# Generated by pormake.
# Topology iac, (4,6)-cn, num edge types: 1
# Building blocks:
#     Node 0, Type 0, BuildingBlock: QUQFOY_clean_sbu_3, # of connection points: 4
#     Node 1, Type 0, BuildingBlock: QUQFOY_clean_sbu_3, # of connection points: 4
#     Node 2, Type 0, BuildingBlock: QUQFOY_clean_sbu_3, # of connection points: 4
#     Node 3, Type 0, BuildingBlock: QUQFOY_clean_sbu_3, # of connection points: 4
#     Node 4, Type 0, BuildingBlock: QUQFOY_clean_sbu_3, # of connection points: 4
#     Node 5, Type 0, BuildingBlock: QUQFOY_clean_sbu_3, # of connection points: 4
#     Node 6, Type 0, BuildingBlock: QUQFOY_clean_sbu_3, # of connection points: 4
#     Node 7, Type 0, BuildingBlock: QUQFOY_clean_sbu_3, # of connection points: 4
#     Node 8, Type 0, BuildingBlock: QUQFOY_clean_sbu_3, # of connection points: 4
#     Node 9, Type 0, BuildingBlock: QUQFOY_clean_sbu_3, # of connection points: 4
#     Node 10, Type 0, BuildingBlock: QUQFOY_clean_sbu_3, # of connection points: 4
#     Node 11, Type 0, BuildingBlock: QUQFOY_clean_sbu_3, # of connection points: 4
#     Node 12, Type 0, BuildingBlock: QUQFOY_clean_sbu_3, # of connection points: 4
#     Node 13, Type 0, BuildingBlock: QUQFOY_clean_sbu_3, # of connection points: 4
#     Node 14, Type 0, BuildingBlock: QUQFOY_clean_sbu_3, # of connection points: 4
#     Node 15, Type 0, BuildingBlock: QUQFOY_clean_sbu_3, # of connection points: 4
#     Node 16, Type 0, BuildingBlock: QUQFOY_clean_sbu_3, # of connection points: 4
#     Node 17, Type 0, BuildingBlock: QUQFOY_clean_sbu_3, # of connection points: 4
#     Node 18, Type 0, BuildingBlock: QUQFOY_clean_sbu_3, # of connection points: 4
#     Node 19, Type 0, BuildingBlock: QUQFOY_clean_sbu_3, # of connection points: 4
#     Node 20, Type 0, BuildingBlock: QUQFOY_clean_sbu_3, # of connection points: 4
#     Node 21, Type 0, BuildingBlock: QUQFOY_clean_sbu_3, # of connection points: 4
#     Node 22, Type 0, BuildingBlock: QUQFOY_clean_sbu_3, # of connection points: 4
#     Node 23, Type 0, BuildingBlock: QUQFOY_clean_sbu_3, # of connection points: 4
#     Node 24, Type 1, BuildingBlock: JUFBIX_clean_sbu_0, # of connection points: 6
#     Node 25, Type 1, BuildingBlock: JUFBIX_clean_sbu_0, # of connection points: 6
#     Node 26, Type 1, BuildingBlock: JUFBIX_clean_sbu_0, # of connection points: 6
#     Node 27, Type 1, BuildingBlock: JUFBIX_clean_sbu_0, # of connection points: 6
#     Node 28, Type 1, BuildingBlock: JUFBIX_clean_sbu_0, # of connection points: 6
#     Node 29, Type 1, BuildingBlock: JUFBIX_clean_sbu_0, # of connection points: 6
#     Node 30, Type 1, BuildingBlock: JUFBIX_clean_sbu_0, # of connection points: 6
#     Node 31, Type 1, BuildingBlock: JUFBIX_clean_sbu_0, # of connection points: 6
#     Node 32, Type 1, BuildingBlock: JUFBIX_clean_sbu_0, # of connection points: 6
#     Node 33, Type 1, BuildingBlock: JUFBIX_clean_sbu_0, # of connection points: 6
#     Node 34, Type 1, BuildingBlock: JUFBIX_clean_sbu_0, # of connection points: 6
#     Node 35, Type 1, BuildingBlock: JUFBIX_clean_sbu_0, # of connection points: 6
#     Node 36, Type 1, BuildingBlock: JUFBIX_clean_sbu_0, # of connection points: 6
#     Node 37, Type 1, BuildingBlock: JUFBIX_clean_sbu_0, # of connection points: 6
#     Node 38, Type 1, BuildingBlock: JUFBIX_clean_sbu_0, # of connection points: 6
#     Node 39, Type 1, BuildingBlock: JUFBIX_clean_sbu_0, # of connection points: 6
#     Edge 40, Type (0, 1), BuildingBlock: AJUNOK_clean_linker_0, # of connection points: 2
#     Edge 41, Type (0, 1), BuildingBlock: AJUNOK_clean_linker_0, # of connection points: 2
#     Edge 42, Type (0, 1), BuildingBlock: AJUNOK_clean_linker_0, # of connection points: 2
#     Edge 43, Type (0, 1), BuildingBlock: AJUNOK_clean_linker_0, # of connection points: 2
#     Edge 44, Type (0, 1), BuildingBlock: AJUNOK_clean_linker_0, # of connection points: 2
#     Edge 45, Type (0, 1), BuildingBlock: AJUNOK_clean_linker_0, # of connection points: 2
#     Edge 46, Type (0, 1), BuildingBlock: AJUNOK_clean_linker_0, # of connection points: 2
#     Edge 47, Type (0, 1), BuildingBlock: AJUNOK_clean_linker_0, # of connection points: 2
#     Edge 48, Type (0, 1), BuildingBlock: AJUNOK_clean_linker_0, # of connection points: 2
#     Edge 49, Type (0, 1), BuildingBlock: AJUNOK_clean_linker_0, # of connection points: 2
#     Edge 50, Type (0, 1), BuildingBlock: AJUNOK_clean_linker_0, # of connection points: 2
#     Edge 51, Type (0, 1), BuildingBlock: AJUNOK_clean_linker_0, # of connection points: 2
#     Edge 52, Type (0, 1), BuildingBlock: AJUNOK_clean_linker_0, # of connection points: 2
#     Edge 53, Type (0, 1), BuildingBlock: AJUNOK_clean_linker_0, # of connection points: 2
#     Edge 54, Type (0, 1), BuildingBlock: AJUNOK_clean_linker_0, # of connection points: 2
#     Edge 55, Type (0, 1), BuildingBlock: AJUNOK_clean_linker_0, # of connection points: 2
#     Edge 56, Type (0, 1), BuildingBlock: AJUNOK_clean_linker_0, # of connection points: 2
#     Edge 57, Type (0, 1), BuildingBlock: AJUNOK_clean_linker_0, # of connection points: 2
#     Edge 58, Type (0, 1), BuildingBlock: AJUNOK_clean_linker_0, # of connection points: 2
#     Edge 59, Type (0, 1), BuildingBlock: AJUNOK_clean_linker_0, # of connection points: 2
#     Edge 60, Type (0, 1), BuildingBlock: AJUNOK_clean_linker_0, # of connection points: 2
#     Edge 61, Type (0, 1), BuildingBlock: AJUNOK_clean_linker_0, # of connection points: 2
#     Edge 62, Type (0, 1), BuildingBlock: AJUNOK_clean_linker_0, # of connection points: 2
#     Edge 63, Type (0, 1), BuildingBlock: AJUNOK_clean_linker_0, # of connection points: 2
#     Edge 64, Type (0, 1), BuildingBlock: AJUNOK_clean_linker_0, # of connection points: 2
#     Edge 65, Type (0, 1), BuildingBlock: AJUNOK_clean_linker_0, # of connection points: 2
#     Edge 66, Type (0, 1), BuildingBlock: AJUNOK_clean_linker_0, # of connection points: 2
#     Edge 67, Type (0, 1), BuildingBlock: AJUNOK_clean_linker_0, # of connection points: 2
#     Edge 68, Type (0, 1), BuildingBlock: AJUNOK_clean_linker_0, # of connection points: 2
#     Edge 69, Type (0, 1), BuildingBlock: AJUNOK_clean_linker_0, # of connection points: 2
#     Edge 70, Type (0, 1), BuildingBlock: AJUNOK_clean_linker_0, # of connection points: 2
#     Edge 71, Type (0, 1), BuildingBlock: AJUNOK_clean_linker_0, # of connection points: 2
#     Edge 72, Type (0, 1), BuildingBlock: AJUNOK_clean_linker_0, # of connection points: 2
#     Edge 73, Type (0, 1), BuildingBlock: AJUNOK_clean_linker_0, # of connection points: 2
#     Edge 74, Type (0, 1), BuildingBlock: AJUNOK_clean_linker_0, # of connection points: 2
#     Edge 75, Type (0, 1), BuildingBlock: AJUNOK_clean_linker_0, # of connection points: 2
#     Edge 76, Type (0, 1), BuildingBlock: AJUNOK_clean_linker_0, # of connection points: 2
#     Edge 77, Type (0, 1), BuildingBlock: AJUNOK_clean_linker_0, # of connection points: 2
#     Edge 78, Type (0, 1), BuildingBlock: AJUNOK_clean_linker_0, # of connection points: 2
#     Edge 79, Type (0, 1), BuildingBlock: AJUNOK_clean_linker_0, # of connection points: 2
#     Edge 80, Type (0, 1), BuildingBlock: AJUNOK_clean_linker_0, # of connection points: 2
#     Edge 81, Type (0, 1), BuildingBlock: AJUNOK_clean_linker_0, # of connection points: 2
#     Edge 82, Type (0, 1), BuildingBlock: AJUNOK_clean_linker_0, # of connection points: 2
#     Edge 83, Type (0, 1), BuildingBlock: AJUNOK_clean_linker_0, # of connection points: 2
#     Edge 84, Type (0, 1), BuildingBlock: AJUNOK_clean_linker_0, # of connection points: 2
#     Edge 85, Type (0, 1), BuildingBlock: AJUNOK_clean_linker_0, # of connection points: 2
#     Edge 86, Type (0, 1), BuildingBlock: AJUNOK_clean_linker_0, # of connection points: 2
#     Edge 87, Type (0, 1), BuildingBlock: AJUNOK_clean_linker_0, # of connection points: 2
#     Edge 88, Type (0, 1), BuildingBlock: AJUNOK_clean_linker_0, # of connection points: 2
#     Edge 89, Type (0, 1), BuildingBlock: AJUNOK_clean_linker_0, # of connection points: 2
#     Edge 90, Type (0, 1), BuildingBlock: AJUNOK_clean_linker_0, # of connection points: 2
#     Edge 91, Type (0, 1), BuildingBlock: AJUNOK_clean_linker_0, # of connection points: 2
#     Edge 92, Type (0, 1), BuildingBlock: AJUNOK_clean_linker_0, # of connection points: 2
#     Edge 93, Type (0, 1), BuildingBlock: AJUNOK_clean_linker_0, # of connection points: 2
#     Edge 94, Type (0, 1), BuildingBlock: AJUNOK_clean_linker_0, # of connection points: 2
#     Edge 95, Type (0, 1), BuildingBlock: AJUNOK_clean_linker_0, # of connection points: 2
#     Edge 96, Type (0, 1), BuildingBlock: AJUNOK_clean_linker_0, # of connection points: 2
#     Edge 97, Type (0, 1), BuildingBlock: AJUNOK_clean_linker_0, # of connection points: 2
#     Edge 98, Type (0, 1), BuildingBlock: AJUNOK_clean_linker_0, # of connection points: 2
#     Edge 99, Type (0, 1), BuildingBlock: AJUNOK_clean_linker_0, # of connection points: 2
#     Edge 100, Type (0, 1), BuildingBlock: AJUNOK_clean_linker_0, # of connection points: 2
#     Edge 101, Type (0, 1), BuildingBlock: AJUNOK_clean_linker_0, # of connection points: 2
#     Edge 102, Type (0, 1), BuildingBlock: AJUNOK_clean_linker_0, # of connection points: 2
#     Edge 103, Type (0, 1), BuildingBlock: AJUNOK_clean_linker_0, # of connection points: 2
#     Edge 104, Type (0, 1), BuildingBlock: AJUNOK_clean_linker_0, # of connection points: 2
#     Edge 105, Type (0, 1), BuildingBlock: AJUNOK_clean_linker_0, # of connection points: 2
#     Edge 106, Type (0, 1), BuildingBlock: AJUNOK_clean_linker_0, # of connection points: 2
#     Edge 107, Type (0, 1), BuildingBlock: AJUNOK_clean_linker_0, # of connection points: 2
#     Edge 108, Type (0, 1), BuildingBlock: AJUNOK_clean_linker_0, # of connection points: 2
#     Edge 109, Type (0, 1), BuildingBlock: AJUNOK_clean_linker_0, # of connection points: 2
#     Edge 110, Type (0, 1), BuildingBlock: AJUNOK_clean_linker_0, # of connection points: 2
#     Edge 111, Type (0, 1), BuildingBlock: AJUNOK_clean_linker_0, # of connection points: 2
#     Edge 112, Type (0, 1), BuildingBlock: AJUNOK_clean_linker_0, # of connection points: 2
#     Edge 113, Type (0, 1), BuildingBlock: AJUNOK_clean_linker_0, # of connection points: 2
#     Edge 114, Type (0, 1), BuildingBlock: AJUNOK_clean_linker_0, # of connection points: 2
#     Edge 115, Type (0, 1), BuildingBlock: AJUNOK_clean_linker_0, # of connection points: 2
#     Edge 116, Type (0, 1), BuildingBlock: AJUNOK_clean_linker_0, # of connection points: 2
#     Edge 117, Type (0, 1), BuildingBlock: AJUNOK_clean_linker_0, # of connection points: 2
#     Edge 118, Type (0, 1), BuildingBlock: AJUNOK_clean_linker_0, # of connection points: 2
#     Edge 119, Type (0, 1), BuildingBlock: AJUNOK_clean_linker_0, # of connection points: 2
#     Edge 120, Type (0, 1), BuildingBlock: AJUNOK_clean_linker_0, # of connection points: 2
#     Edge 121, Type (0, 1), BuildingBlock: AJUNOK_clean_linker_0, # of connection points: 2
#     Edge 122, Type (0, 1), BuildingBlock: AJUNOK_clean_linker_0, # of connection points: 2
#     Edge 123, Type (0, 1), BuildingBlock: AJUNOK_clean_linker_0, # of connection points: 2
#     Edge 124, Type (0, 1), BuildingBlock: AJUNOK_clean_linker_0, # of connection points: 2
#     Edge 125, Type (0, 1), BuildingBlock: AJUNOK_clean_linker_0, # of connection points: 2
#     Edge 126, Type (0, 1), BuildingBlock: AJUNOK_clean_linker_0, # of connection points: 2
#     Edge 127, Type (0, 1), BuildingBlock: AJUNOK_clean_linker_0, # of connection points: 2
#     Edge 128, Type (0, 1), BuildingBlock: AJUNOK_clean_linker_0, # of connection points: 2
#     Edge 129, Type (0, 1), BuildingBlock: AJUNOK_clean_linker_0, # of connection points: 2
#     Edge 130, Type (0, 1), BuildingBlock: AJUNOK_clean_linker_0, # of connection points: 2
#     Edge 131, Type (0, 1), BuildingBlock: AJUNOK_clean_linker_0, # of connection points: 2
#     Edge 132, Type (0, 1), BuildingBlock: AJUNOK_clean_linker_0, # of connection points: 2
#     Edge 133, Type (0, 1), BuildingBlock: AJUNOK_clean_linker_0, # of connection points: 2
#     Edge 134, Type (0, 1), BuildingBlock: AJUNOK_clean_linker_0, # of connection points: 2
#     Edge 135, Type (0, 1), BuildingBlock: AJUNOK_clean_linker_0, # of connection points: 2
# Relax obj value: 0.246
# Max RMSD: 0.239
# Mean RMSD: 0.115
data_MOF--net-iac--node1-QUQFOY_clean_sbu_3--node2-JUFBIX_clean_sbu_0--edge1-AJUNOK_clean_linker_0
_symmetry_space_group_name_H-M    P1
_symmetry_Int_Tables_number       1
_symmetry_cell_setting            triclinic
loop_
_symmetry_equiv_pos_as_xyz
'x, y, z'
_cell_length_a     41.089652
_cell_length_b     43.223629
_cell_length_c     42.435819
_cell_angle_alpha  90.084971
_cell_angle_beta   87.762166
_cell_angle_gamma 88.803001
loop_
_atom_site_label
_atom_site_type_symbol
_atom_site_fract_x
_atom_site_fract_y
_atom_site_fract_z
_atom_type_partial_charge
C0 C 0.96813 0.27268 0.20128 0.0
O1 O 0.98617 0.25206 0.21344 0.0
Cd2 Cd 0.04196 0.23963 0.19974 0.0
O3 O 0.97929 0.28952 0.1785 0.0
Cd4 Cd 0.03421 0.29335 0.1451 0.0
C5 C 0.03254 0.21065 0.12463 0.0
O6 O 0.06706 0.28896 0.19395 0.0
O7 O 0.09634 0.29384 0.15171 0.0
O8 O 0.02457 0.35201 0.14258 0.0
C9 C 0.09544 0.29128 0.18156 0.0
O10 O 0.03894 0.20642 0.15343 0.0
C11 C 0.02647 0.35597 0.1129 0.0
O12 O 0.02883 0.2387 0.11449 0.0
O13 O 0.03134 0.33105 0.09712 0.0
C14 C 0.02248 0.78002 0.35027 0.0
O15 O 0.04322 0.80003 0.34188 0.0
Cd16 Cd 0.08494 0.8149 0.3734 0.0
O17 O 0.02559 0.76412 0.37543 0.0
Cd18 Cd 0.06743 0.7565 0.41635 0.0
C19 C 0.03707 0.82387 0.44213 0.0
O20 O 0.1089 0.76516 0.37885 0.0
O21 O 0.12532 0.76995 0.42589 0.0
O22 O 0.06464 0.7006 0.41345 0.0
C23 C 0.1324 0.768 0.39658 0.0
O24 O 0.05121 0.83551 0.41784 0.0
C25 C 0.06503 0.69668 0.44309 0.0
O26 O 0.03972 0.79525 0.44814 0.0
O27 O 0.06507 0.7208 0.46017 0.0
C28 C 0.47497 0.77418 0.70632 0.0
O29 O 0.49359 0.75558 0.72064 0.0
Cd30 Cd 0.54708 0.73987 0.70228 0.0
O31 O 0.48481 0.7871 0.68043 0.0
Cd32 Cd 0.53815 0.78996 0.64417 0.0
C33 C 0.53418 0.70763 0.62775 0.0
O34 O 0.57139 0.78897 0.69325 0.0
O35 O 0.6004 0.79113 0.65077 0.0
O36 O 0.51268 0.84431 0.63408 0.0
C37 C 0.59975 0.79026 0.68068 0.0
O38 O 0.54055 0.70532 0.65681 0.0
C39 C 0.52857 0.85081 0.60873 0.0
O40 O 0.53123 0.73497 0.61571 0.0
O41 O 0.54813 0.82934 0.59891 0.0
C42 C 0.50882 0.29812 0.86929 0.0
O43 O 0.53042 0.31848 0.86554 0.0
Cd44 Cd 0.58338 0.31669 0.88406 0.0
O45 O 0.51414 0.2733 0.88474 0.0
Cd46 Cd 0.56102 0.25578 0.91576 0.0
C47 C 0.55229 0.32121 0.95846 0.0
O48 O 0.59739 0.26397 0.87254 0.0
O49 O 0.62128 0.25944 0.91637 0.0
O50 O 0.55148 0.20045 0.91148 0.0
C51 C 0.62349 0.25943 0.88645 0.0
O52 O 0.5712 0.33392 0.93809 0.0
C53 C 0.55574 0.1956 0.9406 0.0
O54 O 0.54364 0.29354 0.95474 0.0
O55 O 0.56052 0.21894 0.95781 0.0
C56 C 0.10652 0.99316 0.35991 0.0
O57 O 0.08567 0.0062 0.34277 0.0
Cd58 Cd 0.09628 0.027 0.29162 0.0
O59 O 0.13602 0.98928 0.35025 0.0
Cd60 Cd 0.16623 -0.00087 0.3001 0.0
C61 C 0.15832 0.07539 0.30766 0.0
O62 O 0.12494 0.98645 0.26417 0.0
O63 O 0.16316 0.01493 0.24457 0.0
O64 O 0.19171 0.94924 0.29544 0.0
C65 C 0.13869 -0.00171 0.24008 0.0
O66 O 0.1301 0.07296 0.29663 0.0
C67 C 0.22071 0.9584 0.29691 0.0
O68 O 0.1757 0.05174 0.31387 0.0
O69 O 0.22493 0.98709 0.30112 0.0
C70 C 0.27574 0.9821 0.53607 0.0
O71 O 0.2495 0.98922 0.52283 0.0
Cd72 Cd 0.20221 0.9603 0.53131 0.0
O73 O 0.27728 0.96036 0.55632 0.0
Cd74 Cd 0.24008 0.92263 0.58152 0.0
C75 C 0.24342 0.89377 0.50873 0.0
O76 O 0.19705 0.9587 0.58811 0.0
O77 O 0.18185 0.9116 0.59156 0.0
O78 O 0.26373 0.92071 0.63319 0.0
C79 C 0.17511 0.94004 0.59623 0.0
O80 O 0.22424 0.91568 0.50084 0.0
C81 C 0.26266 0.89129 0.63408 0.0
O82 O 0.25203 0.89111 0.53686 0.0
O83 O 0.25348 0.87755 0.60968 0.0
C84 C 0.4761 0.03582 0.78296 0.0
O85 O 0.48481 0.02118 0.758 0.0
Cd86 Cd 0.45037 0.01867 0.71553 0.0
O87 O 0.4493 0.05125 0.78522 0.0
Cd88 Cd 0.40307 0.06481 0.75255 0.0
C89 C 0.38621 0.99108 0.76188 0.0
O90 O 0.43778 0.0723 0.70916 0.0
O91 O 0.38851 0.06493 0.69643 0.0
O92 O 0.4009 0.11737 0.77094 0.0
C93 C 0.41677 0.07414 0.68846 0.0
O94 O 0.40944 0.98603 0.74166 0.0
C95 C 0.37002 0.11925 0.77058 0.0
O96 O 0.37812 0.01843 0.77012 0.0
O97 O 0.35494 0.0946 0.76525 0.0
C98 C 0.33812 0.10893 0.032 0.0
O99 O 0.32067 0.09588 0.0532 0.0
Cd100 Cd 0.26575 0.10984 0.06752 0.0
O101 O 0.32657 0.13229 0.017 0.0
Cd102 Cd 0.27081 0.16384 0.01925 0.0
C103 C 0.27469 0.18131 0.10224 0.0
O104 O 0.23757 0.11557 0.01899 0.0
O105 O 0.20928 0.15666 0.02924 0.0
O106 O 0.27351 0.17016 0.95969 0.0
C107 C 0.2095 0.12786 0.02311 0.0
O108 O 0.26817 0.15278 0.10511 0.0
C109 C 0.27266 0.19947 0.9579 0.0
O110 O 0.27826 0.19259 0.07422 0.0
O111 O 0.27142 0.21328 0.98447 0.0
C112 C 0.78152 0.48224 0.03075 0.0
O113 O 0.75551 0.49079 0.01781 0.0
Cd114 Cd 0.70417 0.46805 0.02775 0.0
O115 O 0.7817 0.46102 0.05161 0.0
Cd116 Cd 0.74142 0.42518 0.07444 0.0
C117 C 0.73724 0.40046 -4e-05 0.0
O118 O 0.6989 0.46219 0.0841 0.0
O119 O 0.68366 0.41491 0.08367 0.0
O120 O 0.76333 0.41825 0.12625 0.0
C121 C 0.67702 0.44287 0.09079 0.0
O122 O 0.71668 0.42223 -0.00482 0.0
C123 C 0.76135 0.38892 0.12481 0.0
O124 O 0.7498 0.39735 0.02655 0.0
O125 O 0.75317 0.37733 0.09892 0.0
C126 C 0.98316 0.53309 0.27818 0.0
O127 O 0.98977 0.51705 0.25362 0.0
Cd128 Cd 0.95159 0.51232 0.21409 0.0
O129 O 0.95646 0.54852 0.28147 0.0
Cd130 Cd 0.90772 0.55971 0.25118 0.0
C131 C 0.88943 0.48736 0.26451 0.0
O132 O 0.93649 0.56468 0.20321 0.0
O133 O 0.8857 0.55474 0.19806 0.0
O134 O 0.90944 0.61351 0.26416 0.0
C135 C 0.91199 0.5653 0.18619 0.0
O136 O 0.91101 0.48142 0.24287 0.0
C137 C 0.87871 0.61687 0.26672 0.0
O138 O 0.88307 0.51499 0.27311 0.0
O139 O 0.86195 0.59256 0.26602 0.0
C140 C 0.8405 0.6071 0.52381 0.0
O141 O 0.8254 0.59271 0.54576 0.0
Cd142 Cd 0.7722 0.60737 0.5672 0.0
O143 O 0.82756 0.63119 0.5113 0.0
Cd144 Cd 0.77258 0.66215 0.51558 0.0
C145 C 0.78057 0.68091 0.59841 0.0
O146 O 0.7403 0.61308 0.52111 0.0
O147 O 0.71097 0.65452 0.52058 0.0
O148 O 0.77553 0.66745 0.45596 0.0
C149 C 0.7119 0.62513 0.52188 0.0
O150 O 0.77693 0.65201 0.60272 0.0
C151 C 0.77557 0.69674 0.45378 0.0
O152 O 0.78072 0.69153 0.56999 0.0
O153 O 0.77441 0.71093 0.48014 0.0
C154 C 0.59341 0.50579 0.87128 0.0
O155 O 0.57271 0.52247 0.8573 0.0
Cd156 Cd 0.58268 0.54719 0.80777 0.0
O157 O 0.62155 0.50014 0.85889 0.0
Cd158 Cd 0.64911 0.5116 0.80823 0.0
C159 C 0.65095 0.58767 0.82222 0.0
O160 O 0.6033 0.50614 0.77479 0.0
O161 O 0.64622 0.5261 0.75286 0.0
O162 O 0.66668 0.45888 0.80369 0.0
C163 C 0.61845 0.51446 0.74979 0.0
O164 O 0.62133 0.58894 0.81448 0.0
C165 C 0.6969 0.46408 0.80085 0.0
O166 O 0.66615 0.5619 0.82415 0.0
O167 O 0.70563 0.492 0.80285 0.0
C168 C 0.96886 0.79765 0.84932 0.0
O169 O 0.98931 0.81558 0.83613 0.0
Cd170 Cd 0.04275 0.82712 0.85348 0.0
O171 O 0.97667 0.78368 0.87487 0.0
Cd172 Cd 0.02971 0.78105 0.91007 0.0
C173 C 0.03271 0.86339 0.92635 0.0
O174 O 0.07142 0.77971 0.86429 0.0
O175 O 0.091 0.78654 0.90962 0.0
O176 O 0.01799 0.72293 0.91462 0.0
C177 C 0.09662 0.78296 0.88024 0.0
O178 O 0.04029 0.86452 0.897 0.0
C179 C 0.02224 0.71923 0.94387 0.0
O180 O 0.02564 0.83689 0.93872 0.0
O181 O 0.02924 0.74398 0.9583 0.0
C182 C 0.97454 0.29125 0.69819 0.0
O183 O -0.00285 0.27721 0.71232 0.0
Cd184 Cd 0.05091 0.27087 0.69044 0.0
O185 O 0.9795 0.30211 0.67059 0.0
Cd186 Cd 0.02241 0.3088 0.62953 0.0
C187 C 0.03944 0.2336 0.61894 0.0
O188 O 0.05947 0.32024 0.66817 0.0
O189 O 0.08278 0.31207 0.62293 0.0
O190 O -0.00263 0.35884 0.62358 0.0
C191 C 0.08569 0.31807 0.65192 0.0
O192 O 0.05166 0.23432 0.64612 0.0
C193 C -0.00186 0.35869 0.59372 0.0
O194 O 0.02397 0.25691 0.60828 0.0
O195 O 0.01012 0.33462 0.58007 0.0
C196 C 0.463 0.29532 0.35197 0.0
O197 O 0.48301 0.31353 0.33859 0.0
Cd198 Cd 0.53686 0.32529 0.35386 0.0
O199 O 0.47146 0.28111 0.37721 0.0
Cd200 Cd 0.52567 0.27847 0.41104 0.0
C201 C 0.52905 0.36125 0.42701 0.0
O202 O 0.56429 0.277 0.3634 0.0
O203 O 0.58725 0.28335 0.40716 0.0
O204 O 0.51244 0.22061 0.4161 0.0
C205 C 0.59068 0.27956 0.37759 0.0
O206 O 0.53536 0.36267 0.39744 0.0
C207 C 0.51992 0.2161 0.44451 0.0
O208 O 0.52289 0.3346 0.43956 0.0
O209 O 0.52921 0.24034 0.45846 0.0
C210 C 0.49101 0.78975 0.21084 0.0
O211 O 0.51688 0.77932 0.22268 0.0
Cd212 Cd 0.56792 0.77743 0.19528 0.0
O213 O 0.49119 0.8002 0.18272 0.0
Cd214 Cd 0.52816 0.81114 0.13708 0.0
C215 C 0.54836 0.73633 0.12782 0.0
O216 O 0.56898 0.82602 0.1701 0.0
O217 O 0.58727 0.81707 0.12314 0.0
O218 O 0.49991 0.86002 0.13318 0.0
C219 C 0.59342 0.82375 0.15135 0.0
O220 O 0.56367 0.73906 0.15322 0.0
C221 C 0.49829 0.85968 0.10342 0.0
O222 O 0.53074 0.75849 0.11766 0.0
O223 O 0.50943 0.83561 0.08913 0.0
C224 C 0.96699 0.04952 0.78893 0.0
O225 O 0.9853 0.04163 0.76536 0.0
Cd226 Cd 0.96345 0.03973 0.71354 0.0
O227 O 0.93807 0.05942 0.78545 0.0
Cd228 Cd 0.89669 0.07311 0.74896 0.0
C229 C 0.89326 -0.00199 0.73124 0.0
O230 O 0.93394 0.08702 0.7083 0.0
O231 O 0.88452 0.08342 0.69394 0.0
O232 O 0.89305 0.11962 0.77907 0.0
C233 C 0.91421 0.08752 0.68615 0.0
O234 O 0.92111 0.00051 0.71717 0.0
C235 C 0.86217 0.12084 0.78117 0.0
O236 O 0.8798 0.02038 0.7468 0.0
O237 O 0.84701 0.09871 0.76897 0.0
C238 C 0.85621 0.09783 0.50981 0.0
O239 O 0.84003 0.08134 0.52933 0.0
Cd240 Cd 0.78834 0.09469 0.55389 0.0
O241 O 0.84576 0.12406 0.50094 0.0
Cd242 Cd 0.79625 0.15504 0.50591 0.0
C243 C 0.79732 0.16816 0.58412 0.0
O244 O 0.76125 0.11267 0.50925 0.0
O245 O 0.73718 0.15724 0.51487 0.0
O246 O 0.80214 0.15933 0.45012 0.0
C247 C 0.73519 0.12802 0.51487 0.0
O248 O 0.79142 0.13969 0.589 0.0
C249 C 0.80332 0.18859 0.44976 0.0
O250 O 0.80245 0.1787 0.55642 0.0
O251 O 0.80055 0.2026 0.47615 0.0
C252 C 0.59585 0.02267 0.34943 0.0
O253 O 0.57602 0.03591 0.33131 0.0
Cd254 Cd 0.58448 0.04494 0.27621 0.0
O255 O 0.62275 0.01102 0.33913 0.0
Cd256 Cd 0.65112 0.0025 0.28918 0.0
C257 C 0.66045 0.07801 0.27664 0.0
O258 O 0.60479 0.99649 0.25877 0.0
O259 O 0.64987 0.0011 0.23185 0.0
O260 O 0.6581 0.95018 0.30512 0.0
C261 C 0.61919 -0.00154 0.23205 0.0
O262 O 0.63054 0.07954 0.26972 0.0
C263 C 0.68889 0.94988 0.30156 0.0
O264 O 0.67339 0.05329 0.28715 0.0
O265 O 0.70225 0.97477 0.29244 0.0
C266 C 0.84113 0.96269 0.01006 0.0
O267 O 0.82281 0.97561 0.99033 0.0
Cd268 Cd 0.7687 0.95902 0.9794 0.0
O269 O 0.83102 0.93847 0.02484 0.0
Cd270 Cd 0.77761 0.90451 0.02748 0.0
C271 C 0.77569 0.88703 0.944 0.0
O272 O 0.73877 0.95098 0.02879 0.0
O273 O 0.71638 0.90701 0.02485 0.0
O274 O 0.79185 0.89884 0.08536 0.0
C275 C 0.71256 0.93609 0.02749 0.0
O276 O 0.76971 0.91594 0.9415 0.0
C277 C 0.78487 0.87063 0.08954 0.0
O278 O 0.78151 0.87581 0.97149 0.0
O279 O 0.77484 0.85722 0.0651 0.0
C280 C 0.34955 0.59825 0.01961 0.0
O281 O 0.33358 0.58243 0.03986 0.0
Cd282 Cd 0.28452 0.59835 0.06728 0.0
O283 O 0.33979 0.62496 0.0113 0.0
Cd284 Cd 0.29217 0.65889 0.01884 0.0
C285 C 0.30295 0.67115 0.096 0.0
O286 O 0.25564 0.61814 0.0249 0.0
O287 O 0.23356 0.66311 0.03347 0.0
O288 O 0.29346 0.66127 0.96267 0.0
C289 C 0.23047 0.63398 0.03266 0.0
O290 O 0.29502 0.6431 0.10062 0.0
C291 C 0.29685 0.69027 0.96086 0.0
O292 O 0.30591 0.6822 0.06824 0.0
O293 O 0.29736 0.70526 0.98666 0.0
C294 C 0.10515 0.53305 0.86175 0.0
O295 O 0.08706 0.55326 0.84906 0.0
Cd296 Cd 0.0854 0.56304 0.79354 0.0
O297 O 0.12521 0.51628 0.84564 0.0
Cd298 Cd 0.14518 0.50988 0.79207 0.0
C299 C 0.16438 0.58472 0.78087 0.0
O300 O 0.09339 0.51408 0.76867 0.0
O301 O 0.13494 0.50656 0.73662 0.0
O302 O 0.14959 0.45588 0.80366 0.0
C303 C 0.1046 0.51195 0.74049 0.0
O304 O 0.13401 0.5912 0.78132 0.0
C305 C 0.18026 0.45437 0.79885 0.0
O306 O 0.17496 0.55741 0.78615 0.0
O307 O 0.19447 0.47894 0.79016 0.0
C308 C 0.33966 0.46444 0.51438 0.0
O309 O 0.321 0.47617 0.49427 0.0
Cd310 Cd 0.26719 0.45978 0.48376 0.0
O311 O 0.33002 0.44056 0.53005 0.0
Cd312 Cd 0.27676 0.40578 0.53102 0.0
C313 C 0.27205 0.38828 0.44769 0.0
O314 O 0.2382 0.45167 0.53336 0.0
O315 O 0.21598 0.40827 0.52407 0.0
O316 O 0.26282 0.39485 0.58915 0.0
C317 C 0.21211 0.43691 0.53029 0.0
O318 O 0.2672 0.41736 0.44526 0.0
C319 C 0.27993 0.37049 0.59277 0.0
O320 O 0.27747 0.3768 0.47516 0.0
O321 O 0.2957 0.36134 0.56796 0.0
C322 C 0.46959 0.55673 0.29132 0.0
O323 O 0.48644 0.54537 0.26824 0.0
Cd324 Cd 0.45974 0.54155 0.21878 0.0
O325 O 0.44002 0.56468 0.28826 0.0
Cd326 Cd 0.39196 0.57137 0.25858 0.0
C327 C 0.39343 0.49581 0.24042 0.0
O328 O 0.42652 0.58739 0.21733 0.0
O329 O 0.37653 0.58491 0.20462 0.0
O330 O 0.39063 0.61329 0.29468 0.0
C331 C 0.40606 0.58875 0.19593 0.0
O332 O 0.42017 0.50005 0.22487 0.0
C333 C 0.35994 0.61523 0.29843 0.0
O334 O 0.37952 0.5173 0.25693 0.0
O335 O 0.34333 0.59597 0.2834 0.0
Co336 Co 0.02581 0.05009 0.00191 0.0
C337 C 0.01994 0.09187 0.05309 0.0
Co338 Co 0.03315 0.02653 0.04634 0.0
C339 C 0.00593 0.05563 0.93913 0.0
C340 C 0.03274 0.09511 0.95271 0.0
N341 N 0.02013 0.06849 0.96378 0.0
N342 N 0.00952 0.07285 0.91296 0.0
C343 C 0.02639 0.09776 0.92121 0.0
H344 H 0.99464 0.03323 0.93998 0.0
H345 H 0.04682 0.11083 0.9663 0.0
C346 C 0.03902 0.98465 -0.00482 0.0
N347 N 0.03951 0.00796 0.0845 0.0
C348 C 0.061 0.01634 0.10589 0.0
C349 C 0.02484 0.9829 0.09684 0.0
N350 N 0.06035 -0.00235 0.13127 0.0
C351 C 0.03756 0.97654 0.12566 0.0
C352 C 0.96844 0.02265 0.02703 0.0
O353 O 0.03406 0.01006 0.98065 0.0
O354 O 0.04189 0.98637 0.02496 0.0
O355 O 0.98733 0.01561 0.04913 0.0
O356 O 0.97973 0.03979 0.0049 0.0
O357 O 0.02437 0.06649 0.06796 0.0
H358 H 0.00654 0.96977 0.08541 0.0
H359 H 0.07761 0.03516 0.10226 0.0
O360 O 0.01772 0.09008 0.02324 0.0
O361 O 0.0714 0.06035 -0.00167 0.0
O362 O 0.07912 0.03785 0.04339 0.0
C363 C 0.09023 0.05408 0.02053 0.0
H364 H 0.03403 0.11614 0.90547 0.0
H365 H 0.03069 0.95769 0.14114 0.0
Co366 Co 0.32387 0.80035 0.33054 0.0
C367 C 0.32065 0.73825 0.32109 0.0
Co368 Co 0.30131 0.78911 0.28603 0.0
C369 C 0.32096 0.83324 0.3867 0.0
C370 C 0.35824 0.79827 0.38951 0.0
N371 N 0.33789 0.81196 0.36934 0.0
N372 N 0.32865 0.83284 0.41709 0.0
C373 C 0.35247 0.81107 0.41916 0.0
H374 H 0.30043 0.84633 0.37801 0.0
H375 H 0.37406 0.77858 0.38375 0.0
C376 C 0.30242 0.85116 0.29539 0.0
N377 N 0.28607 0.77772 0.24775 0.0
C378 C 0.29973 0.75601 0.22835 0.0
C379 C 0.26038 0.78925 0.23242 0.0
N380 N 0.28363 0.75341 0.20154 0.0
C381 C 0.25892 0.77437 0.2038 0.0
C382 C 0.25638 0.7919 0.33378 0.0
O383 O 0.3159 0.84294 0.32053 0.0
O384 O 0.29475 0.83056 0.27597 0.0
O385 O 0.25922 0.78778 0.30423 0.0
O386 O 0.28144 0.79758 0.34896 0.0
O387 O 0.30735 0.74746 0.29626 0.0
H388 H 0.24404 0.80743 0.24136 0.0
H389 H 0.32162 0.7429 0.23352 0.0
O390 O 0.33133 0.75795 0.34013 0.0
O391 O 0.36615 0.8025 0.31223 0.0
O392 O 0.3436 0.79033 0.26794 0.0
C393 C 0.36879 0.79645 0.28292 0.0
H394 H 0.3635 0.80369 0.44071 0.0
H395 H 0.24106 0.77848 0.18611 0.0
Co396 Co 0.49309 0.02722 0.51307 0.0
C397 C 0.51572 0.08866 0.50068 0.0
Co398 Co 0.53786 0.0371 0.53636 0.0
C399 C 0.42735 0.0115 0.50832 0.0
C400 C 0.44723 0.02585 0.46347 0.0
N401 N 0.45525 0.01964 0.4934 0.0
N402 N 0.40199 0.0135 0.48941 0.0
C403 C 0.41422 0.02186 0.46089 0.0
H404 H 0.42538 0.00548 0.53307 0.0
H405 H 0.46391 0.03437 0.44529 0.0
C406 C 0.51667 0.97596 0.54915 0.0
N407 N 0.57517 0.04542 0.55614 0.0
C408 C 0.60145 0.05779 0.54189 0.0
C409 C 0.58196 0.04375 0.58701 0.0
N410 N 0.62427 0.06404 0.56244 0.0
C411 C 0.61242 0.05562 0.59102 0.0
C412 C 0.48273 0.05289 0.57128 0.0
O413 O 0.49264 0.98516 0.53293 0.0
O414 O 0.53937 0.99507 0.55312 0.0
O415 O 0.51346 0.05106 0.57225 0.0
O416 O 0.4689 0.0435 0.54723 0.0
O417 O 0.53706 0.0794 0.51971 0.0
H418 H 0.56547 0.03538 0.60543 0.0
H419 H 0.60334 0.06348 0.51705 0.0
O420 O 0.49405 0.06928 0.49355 0.0
O421 O 0.51651 0.01129 0.47878 0.0
O422 O 0.5622 0.02355 0.49972 0.0
C423 C 0.54717 0.01297 0.47663 0.0
H424 H 0.40008 0.02632 0.44033 0.0
H425 H 0.62464 0.05833 0.61297 0.0
Co426 Co 0.30094 0.29851 0.78163 0.0
C427 C 0.28183 0.31112 0.7195 0.0
Co428 Co 0.25456 0.27765 0.7722 0.0
C429 C 0.36321 0.30374 0.80764 0.0
C430 C 0.35104 0.3432 0.77965 0.0
N431 N 0.33971 0.31583 0.78998 0.0
N432 N 0.38878 0.32254 0.80894 0.0
C433 C 0.38141 0.34734 0.79118 0.0
H434 H 0.3615 0.28163 0.81948 0.0
H435 H 0.33814 0.35899 0.76454 0.0
C436 C 0.27398 0.26462 0.83397 0.0
N437 N 0.21493 0.26095 0.76348 0.0
C438 C 0.20227 0.25988 0.73471 0.0
C439 C 0.18928 0.25781 0.78393 0.0
N440 N 0.16965 0.25889 0.73628 0.0
C441 C 0.16135 0.25668 0.76721 0.0
C442 C 0.30643 0.23867 0.76066 0.0
O443 O 0.29666 0.28305 0.82565 0.0
O444 O 0.2526 0.25895 0.81392 0.0
O445 O 0.27604 0.24178 0.7571 0.0
O446 O 0.32237 0.26147 0.77008 0.0
O447 O 0.25704 0.29681 0.73015 0.0
H448 H 0.19016 0.26073 0.80919 0.0
H449 H 0.21587 0.26464 0.713 0.0
O450 O 0.30547 0.31369 0.73779 0.0
O451 O 0.27957 0.33541 0.79359 0.0
O452 O 0.23273 0.31356 0.7878 0.0
C453 C 0.24879 0.33708 0.79507 0.0
H454 H 0.39707 0.36671 0.78628 0.0
H455 H 0.13675 0.25907 0.77715 0.0
Co456 Co 0.0036 -0.00194 0.53178 0.0
C457 C 0.98217 0.04099 0.57537 0.0
Co458 Co 0.03234 0.04045 0.52978 0.0
C459 C 0.97878 0.94205 0.50862 0.0
C460 C 0.968 0.94668 0.55798 0.0
N461 N 0.98003 0.96213 0.53266 0.0
N462 N 0.96878 0.91396 0.51793 0.0
C463 C 0.96111 0.91694 0.54899 0.0
H464 H 0.98887 0.94668 0.48534 0.0
H465 H 0.96741 0.95535 0.58193 0.0
C466 C 0.05349 -0.00126 0.485 0.0
N467 N 0.05558 0.07639 0.53008 0.0
C468 C 0.04307 0.10458 0.53768 0.0
C469 C 0.08816 0.07971 0.52928 0.0
N470 N 0.06638 0.12522 0.54262 0.0
C471 C 0.09489 0.10975 0.5373 0.0
C472 C 0.05598 0.99554 0.56934 0.0
O473 O 0.0311 0.98257 0.49765 0.0
O474 O 0.05845 0.02552 0.49575 0.0
O475 O 0.06099 0.02231 0.55814 0.0
O476 O 0.03177 0.98051 0.56069 0.0
O477 O 0.00618 0.05554 0.56381 0.0
H478 H 0.10578 0.06097 0.52565 0.0
H479 H 0.01736 0.10908 0.54267 0.0
O480 O 0.97649 0.01419 0.56506 0.0
O481 O 0.97553 0.01545 0.50319 0.0
O482 O 0.00293 0.0584 0.5017 0.0
C483 C 0.97863 0.04301 0.49349 0.0
H484 H 0.95392 0.89835 0.56464 0.0
H485 H 0.11875 0.11889 0.54115 0.0
Co486 Co 0.29349 0.80753 0.80864 0.0
C487 C 0.22827 0.79103 0.81915 0.0
Co488 Co 0.2813 0.76689 0.78117 0.0
C489 C 0.32455 0.86367 0.81286 0.0
C490 C 0.2932 0.85906 0.85383 0.0
N491 N 0.30437 0.8439 0.82761 0.0
N492 N 0.32684 0.89039 0.82846 0.0
C493 C 0.30684 0.8881 0.85422 0.0
H494 H 0.33566 0.85952 0.78964 0.0
H495 H 0.27527 0.85023 0.87066 0.0
C496 C 0.34584 0.7829 0.76993 0.0
N497 N 0.2713 0.73115 0.76108 0.0
C498 C 0.25244 0.70903 0.77361 0.0
C499 C 0.2809 0.72057 0.73216 0.0
N500 N 0.24976 0.68508 0.75384 0.0
C501 C 0.26758 0.69196 0.72762 0.0
C502 C 0.2727 0.81896 0.74778 0.0
O503 O 0.33806 0.80327 0.79069 0.0
O504 O 0.3246 0.7635 0.76285 0.0
O505 O 0.26928 0.78995 0.74607 0.0
O506 O 0.2817 0.83067 0.77324 0.0
O507 O 0.23712 0.77031 0.79906 0.0
H508 H 0.29628 0.73294 0.71543 0.0
H509 H 0.24074 0.71043 0.7969 0.0
O510 O 0.24912 0.81099 0.82657 0.0
O511 O 0.30523 0.78503 0.84377 0.0
O512 O 0.29363 0.74363 0.81695 0.0
C513 C 0.30257 0.75592 0.84235 0.0
H514 H 0.30179 0.90629 0.87138 0.0
H515 H 0.2699 0.67784 0.70653 0.0
Co516 Co 0.52313 0.01546 -0.00374 0.0
C517 C 0.58406 -0.00027 0.02217 0.0
Co518 Co 0.52926 0.03466 0.04305 0.0
C519 C 0.51041 0.01594 0.93146 0.0
C520 C 0.53509 0.97412 0.94452 0.0
N521 N 0.52082 0.00016 0.95643 0.0
N522 N 0.51888 0.00158 0.90404 0.0
C523 C 0.53409 0.975 0.91229 0.0
H524 H 0.49744 0.03782 0.93379 0.0
H525 H 0.54698 0.95645 0.95823 0.0
C526 C 0.4687 0.0506 0.01827 0.0
N527 N 0.53265 0.04966 0.08289 0.0
C528 C 0.54182 0.03243 0.10736 0.0
C529 C 0.53054 0.079 0.09387 0.0
N530 N 0.54589 0.04966 0.13307 0.0
C531 C 0.53934 0.07911 0.12488 0.0
C532 C 0.54918 0.07425 -0.0033 0.0
O533 O 0.47963 0.03506 0.99436 0.0
O534 O 0.48647 0.05245 0.04201 0.0
O535 O 0.54626 0.07151 0.02638 0.0
O536 O 0.54158 0.05185 0.9794 0.0
O537 O 0.57306 0.01682 0.04472 0.0
H538 H 0.52475 0.09909 0.07981 0.0
H539 H 0.5479 0.00796 0.10574 0.0
O540 O 0.56623 0.99621 -0.00133 0.0
O541 O 0.50461 0.97922 0.0123 0.0
O542 O 0.51151 -0.00244 0.05956 0.0
C543 C 0.50188 0.97615 0.04192 0.0
H544 H 0.54492 0.95787 0.89625 0.0
H545 H 0.54227 0.09917 0.13972 0.0
Co546 Co 0.26923 0.26578 0.28678 0.0
C547 C 0.33522 0.28063 0.29157 0.0
Co548 Co 0.28133 0.30744 0.26052 0.0
C549 C 0.23449 0.21054 0.29876 0.0
C550 C 0.27061 0.21698 0.33299 0.0
N551 N 0.25765 0.23005 0.30742 0.0
N552 N 0.23267 0.18542 0.31747 0.0
C553 C 0.25535 0.1895 0.33919 0.0
H554 H 0.2191 0.21504 0.27918 0.0
H555 H 0.29012 0.22658 0.34605 0.0
C556 C 0.21586 0.29372 0.25475 0.0
N557 N 0.2931 0.34262 0.23939 0.0
C558 C 0.31259 0.36475 0.24974 0.0
C559 C 0.28654 0.35072 0.20957 0.0
N560 N 0.31889 0.38609 0.22746 0.0
C561 C 0.30249 0.37758 0.20212 0.0
C562 C 0.2851 0.25428 0.22154 0.0
O563 O 0.2239 0.27185 0.27329 0.0
O564 O 0.2372 0.31371 0.24781 0.0
O565 O 0.28946 0.28339 0.22145 0.0
O566 O 0.27812 0.24176 0.24811 0.0
O567 O 0.32585 0.30157 0.27272 0.0
H568 H 0.27161 0.33767 0.1941 0.0
H569 H 0.32278 0.36474 0.2729 0.0
O570 O 0.31453 0.26037 0.30004 0.0
O571 O 0.26045 0.28914 0.32539 0.0
O572 O 0.27306 0.33143 0.30017 0.0
C573 C 0.26562 0.31806 0.32633 0.0
H574 H 0.26107 0.17347 0.35784 0.0
H575 H 0.30195 0.38996 0.17998 0.0
Co576 Co 0.49856 0.49702 0.04453 0.0
C577 C 0.47648 0.53969 0.08822 0.0
Co578 Co 0.52615 0.54021 0.0422 0.0
C579 C 0.47944 0.43821 0.0235 0.0
C580 C 0.47235 0.44295 0.07337 0.0
N581 N 0.47743 0.45946 0.04671 0.0
N582 N 0.47955 0.40909 0.03469 0.0
C583 C 0.47405 0.41188 0.06603 0.0
H584 H 0.48672 0.44361 -0.00063 0.0
H585 H 0.47326 0.45242 0.09693 0.0
C586 C 0.54766 0.49881 -0.0026 0.0
N587 N 0.5484 0.57686 0.04112 0.0
C588 C 0.53758 0.60475 0.05178 0.0
C589 C 0.58061 0.58023 0.03489 0.0
N590 N 0.56186 0.62501 0.0534 0.0
C591 C 0.58897 0.60986 0.04256 0.0
C592 C 0.55301 0.49664 0.08051 0.0
O593 O 0.5256 0.48232 0.00991 0.0
O594 O 0.55198 0.52568 0.008 0.0
O595 O 0.55638 0.52384 0.06993 0.0
O596 O 0.5288 0.48123 0.07262 0.0
O597 O 0.49999 0.55482 0.07639 0.0
H598 H 0.59736 0.56174 0.02751 0.0
H599 H 0.51296 0.60942 0.06082 0.0
O600 O 0.47167 0.5125 0.07835 0.0
O601 O 0.46875 0.51288 0.01654 0.0
O602 O 0.49537 0.55641 0.01456 0.0
C603 C 0.47121 0.54056 0.00674 0.0
H604 H 0.47654 0.39321 0.08281 0.0
H605 H 0.61335 0.61893 0.0422 0.0
Co606 Co 0.7834 0.30653 0.29843 0.0
C607 C 0.7195 0.28789 0.31137 0.0
Co608 Co 0.77273 0.2638 0.27374 0.0
C609 C 0.81236 0.36401 0.30226 0.0
C610 C 0.78709 0.3549 0.34614 0.0
N611 N 0.79374 0.34303 0.31708 0.0
N612 N 0.81837 0.38814 0.32078 0.0
C613 C 0.8022 0.3831 0.34841 0.0
H614 H 0.82151 0.36168 0.27807 0.0
H615 H 0.77268 0.34364 0.36448 0.0
C616 C 0.8363 0.28122 0.26048 0.0
N617 N 0.76264 0.2276 0.25447 0.0
C618 C 0.74675 0.20414 0.2684 0.0
C619 C 0.76727 0.21909 0.22398 0.0
N620 N 0.74109 0.18139 0.24791 0.0
C621 C 0.7536 0.19062 0.21979 0.0
C622 C 0.76155 0.31535 0.23844 0.0
O623 O 0.82744 0.30371 0.27849 0.0
O624 O 0.8159 0.26024 0.25579 0.0
O625 O 0.76026 0.28609 0.23801 0.0
O626 O 0.76925 0.32878 0.2635 0.0
O627 O 0.72885 0.26695 0.29174 0.0
H628 H 0.77914 0.23297 0.20592 0.0
H629 H 0.73828 0.20428 0.2929 0.0
O630 O 0.73972 0.30868 0.31812 0.0
O631 O 0.79777 0.28486 0.33323 0.0
O632 O 0.78588 0.24167 0.30962 0.0
C633 C 0.79634 0.25565 0.3334 0.0
H634 H 0.802 0.39824 0.36876 0.0
H635 H 0.75251 0.17788 0.19788 0.0
Co636 Co 0.02613 0.51608 0.49163 0.0
C637 C 0.0839 0.5002 0.52351 0.0
Co638 Co 0.02745 0.53451 0.53956 0.0
C639 C 0.02098 0.51857 0.42501 0.0
C640 C 0.04591 0.4774 0.43959 0.0
N641 N 0.02963 0.50278 0.4507 0.0
N642 N 0.03198 0.50455 0.3981 0.0
C643 C 0.0475 0.47848 0.40728 0.0
H644 H 0.00678 0.53987 0.42636 0.0
H645 H 0.05682 0.45971 0.45404 0.0
C646 C 0.97014 0.55075 0.50807 0.0
N647 N 0.02343 0.54701 0.581 0.0
C648 C 0.04701 0.5489 0.60194 0.0
C649 C 0.9953 0.5476 0.59855 0.0
N650 N 0.03483 0.54931 0.63192 0.0
C651 C 0.00224 0.54887 0.62981 0.0
C652 C 0.05203 0.57544 0.49804 0.0
O653 O 0.98252 0.53406 0.48565 0.0
O654 O 0.98607 0.55356 0.53284 0.0
O655 O 0.04712 0.57177 0.52752 0.0
O656 O 0.04484 0.55396 0.47927 0.0
O657 O 0.07003 0.51546 0.54611 0.0
H658 H 0.97145 0.54373 0.58958 0.0
H659 H 0.0727 0.54707 0.5955 0.0
O660 O 0.06907 0.49825 0.4979 0.0
O661 O 0.00759 0.47857 0.50364 0.0
O662 O 0.00738 0.49702 0.55163 0.0
C663 C 0.0009 0.47539 0.53278 0.0
H664 H 0.05959 0.46154 0.39183 0.0
H665 H 0.98481 0.54586 0.64928 0.0
Co666 Co 0.8089 0.79569 0.27791 0.0
C667 C 0.79021 0.80958 0.21574 0.0
Co668 Co 0.76319 0.77397 0.26714 0.0
C669 C 0.87267 0.79415 0.29952 0.0
C670 C 0.86212 0.83758 0.27742 0.0
N671 N 0.84872 0.81057 0.28627 0.0
N672 N 0.90072 0.80942 0.29862 0.0
C673 C 0.89438 0.8369 0.28501 0.0
H674 H 0.87004 0.77077 0.30824 0.0
H675 H 0.84957 0.85601 0.26528 0.0
C676 C 0.78171 0.7602 0.32906 0.0
N677 N 0.72285 0.75893 0.25829 0.0
C678 C 0.71019 0.75859 0.22948 0.0
C679 C 0.69695 0.75766 0.2787 0.0
N680 N 0.67754 0.76005 0.23098 0.0
C681 C 0.66904 0.75851 0.26193 0.0
C682 C 0.81405 0.73558 0.25426 0.0
O683 O 0.80525 0.7777 0.32088 0.0
O684 O 0.76002 0.75569 0.30901 0.0
O685 O 0.78334 0.73717 0.25242 0.0
O686 O 0.82904 0.75908 0.2632 0.0
O687 O 0.76692 0.79243 0.2248 0.0
H688 H 0.69797 0.76079 0.30393 0.0
H689 H 0.7242 0.76233 0.20778 0.0
O690 O 0.81245 0.814 0.23528 0.0
O691 O 0.78936 0.8318 0.2928 0.0
O692 O 0.74274 0.8112 0.28256 0.0
C693 C 0.75869 0.83388 0.29249 0.0
H694 H 0.91187 0.85493 0.28059 0.0
H695 H 0.64465 0.76272 0.27185 0.0
Co696 Co 0.80728 0.30447 0.81292 0.0
C697 C 0.81282 0.24351 0.79834 0.0
Co698 Co 0.7851 0.29394 0.76789 0.0
C699 C 0.7988 0.33324 0.87102 0.0
C700 C 0.8432 0.30664 0.87156 0.0
N701 N 0.81872 0.31502 0.85288 0.0
N702 N 0.80953 0.337 0.90011 0.0
C703 C 0.83741 0.32007 0.90098 0.0
H704 H 0.77567 0.34237 0.86344 0.0
H705 H 0.86323 0.29115 0.8646 0.0
C706 C 0.77747 0.35479 0.78343 0.0
N707 N 0.77318 0.28504 0.72726 0.0
C708 C 0.77155 0.25704 0.71335 0.0
C709 C 0.77387 0.30539 0.70316 0.0
N710 N 0.77256 0.25908 0.6816 0.0
C711 C 0.77341 0.28957 0.67522 0.0
C712 C 0.74134 0.28621 0.81459 0.0
O713 O 0.79442 0.34661 0.80637 0.0
O714 O 0.77049 0.33483 0.76313 0.0
O715 O 0.74399 0.28373 0.78481 0.0
O716 O 0.76533 0.29546 0.82963 0.0
O717 O 0.79911 0.25289 0.77376 0.0
H718 H 0.77778 0.32994 0.70536 0.0
H719 H 0.77143 0.23553 0.72622 0.0
O720 O 0.81992 0.26276 0.81949 0.0
O721 O 0.84909 0.3125 0.79602 0.0
O722 O 0.82657 0.30365 0.75096 0.0
C723 C 0.85145 0.3103 0.76617 0.0
H724 H 0.85216 0.31726 0.92141 0.0
H725 H 0.77641 0.29964 0.65198 0.0
Co726 Co 0.77641 0.76451 0.78242 0.0
C727 C 0.84205 0.78233 0.78725 0.0
Co728 Co 0.78709 0.80703 0.7569 0.0
C729 C 0.73822 0.71694 0.81227 0.0
C730 C 0.78861 0.70384 0.80649 0.0
N731 N 0.76752 0.72774 0.80269 0.0
N732 N 0.74007 0.687 0.82102 0.0
C733 C 0.77183 0.67883 0.81785 0.0
H734 H 0.71573 0.7303 0.81144 0.0
H735 H 0.81418 0.70379 0.7994 0.0
C736 C 0.72183 0.7907 0.75149 0.0
N737 N 0.79644 0.84287 0.73574 0.0
C738 C 0.81541 0.86589 0.74503 0.0
C739 C 0.7878 0.85063 0.70638 0.0
N740 N 0.81937 0.88744 0.72245 0.0
C741 C 0.80197 0.87813 0.69809 0.0
C742 C 0.79228 0.75456 0.71693 0.0
O743 O 0.73067 0.76842 0.76919 0.0
O744 O 0.74249 0.81141 0.74495 0.0
O745 O 0.79576 0.78376 0.71761 0.0
O746 O 0.78611 0.74115 0.74322 0.0
O747 O 0.83214 0.80312 0.76847 0.0
H748 H 0.77264 0.83691 0.69175 0.0
H749 H 0.82691 0.86641 0.76755 0.0
O750 O 0.82198 0.76146 0.79546 0.0
O751 O 0.76674 0.7873 0.82147 0.0
O752 O 0.77824 0.83022 0.79671 0.0
C753 C 0.77112 0.8164 0.8227 0.0
H754 H 0.78179 0.6557 0.82103 0.0
H755 H 0.79963 0.89036 0.67603 0.0
Co756 Co 0.52571 0.54907 0.50298 0.0
C757 C 0.52153 0.58859 0.55612 0.0
Co758 Co 0.53503 0.52361 0.54585 0.0
C759 C 0.51102 0.55829 0.43819 0.0
C760 C 0.52763 0.5996 0.45966 0.0
N761 N 0.5199 0.56991 0.46589 0.0
N762 N 0.51335 0.57935 0.41504 0.0
C763 C 0.5232 0.60558 0.42832 0.0
H764 H 0.50299 0.53491 0.43491 0.0
H765 H 0.53693 0.61563 0.47652 0.0
C766 C 0.53867 0.48341 0.49354 0.0
N767 N 0.54213 0.50352 0.58283 0.0
C768 C 0.56 0.51402 0.60627 0.0
C769 C 0.53108 0.47591 0.5928 0.0
N770 N 0.56081 0.49406 0.63048 0.0
C771 C 0.54244 0.47009 0.62235 0.0
C772 C 0.46921 0.52145 0.52803 0.0
O773 O 0.53298 0.50918 0.4797 0.0
O774 O 0.54319 0.4846 0.52302 0.0
O775 O 0.48878 0.51275 0.54908 0.0
O776 O 0.48011 0.53937 0.50642 0.0
O777 O 0.52677 0.56256 0.56939 0.0
H778 H 0.51565 0.46114 0.57953 0.0
H779 H 0.5715 0.53633 0.60587 0.0
O780 O 0.51826 0.58817 0.52641 0.0
O781 O 0.57087 0.55929 0.49908 0.0
O782 O 0.58148 0.53478 0.54237 0.0
C783 C 0.59105 0.5525 0.51998 0.0
H784 H 0.52751 0.62714 0.41605 0.0
H785 H 0.53762 0.44991 0.63673 0.0
Co786 Co -0.00366 0.53012 0.01237 0.0
C787 C 0.01512 0.59319 0.00258 0.0
Co788 Co 0.03473 0.54434 0.04315 0.0
C789 C 0.93599 0.505 0.00056 0.0
C790 C 0.95299 0.53059 0.96034 0.0
N791 N 0.96233 0.51909 0.98818 0.0
N792 N 0.90989 0.50864 0.98269 0.0
C793 C 0.92051 0.5243 0.95697 0.0
H794 H 0.93506 0.49519 0.02402 0.0
H795 H 0.96761 0.54544 0.94526 0.0
C796 C 0.01723 0.48161 0.05356 0.0
N797 N 0.06766 0.55618 0.06776 0.0
C798 C 0.09378 0.57114 0.05639 0.0
C799 C 0.07218 0.55302 0.09898 0.0
N800 N 0.11454 0.57734 0.07892 0.0
C801 C 0.10148 0.5661 0.10596 0.0
C802 C 0.97455 0.55614 0.06902 0.0
O803 O -0.00232 0.48801 0.03162 0.0
O804 O 0.03568 0.50313 0.06233 0.0
O805 O 0.00456 0.55808 0.07409 0.0
O806 O 0.96566 0.54391 0.04383 0.0
O807 O 0.03398 0.5856 0.02448 0.0
H808 H 0.05556 0.54165 0.11537 0.0
H809 H 0.09794 0.57697 0.03176 0.0
O810 O -0.00403 0.57241 0.99315 0.0
O811 O 0.02607 0.51667 0.98126 0.0
O812 O 0.06542 0.53096 0.01123 0.0
C813 C 0.05615 0.51959 0.98561 0.0
H814 H 0.90526 0.53341 0.93879 0.0
H815 H 0.11268 0.56653 0.12861 0.0
C816 C 0.02942 0.15204 0.11944 0.0
C817 C 0.02832 0.18147 0.10463 0.0
C818 C 0.02582 0.12394 0.1029 0.0
C819 C 0.02087 0.12303 0.07021 0.0
H820 H 0.03329 0.15039 0.14448 0.0
H821 H 0.02747 0.10255 0.11606 0.0
S822 S 0.01599 0.19286 0.0191 0.0
N823 N 0.02163 0.20735 0.05449 0.0
N824 N 0.01517 0.15489 0.02342 0.0
C825 C 0.01953 0.15219 0.05485 0.0
C826 C 0.02313 0.18108 0.0719 0.0
C827 C 0.17028 0.76722 0.35012 0.0
C828 C 0.16478 0.77398 0.38235 0.0
C829 C 0.1997 0.77384 0.33459 0.0
C830 C 0.22496 0.78734 0.35069 0.0
H831 H 0.15165 0.75663 0.33657 0.0
H832 H 0.20271 0.76785 0.30983 0.0
S833 S 0.22266 0.81038 0.43518 0.0
N834 N 0.18662 0.79543 0.4299 0.0
N835 N 0.24257 0.8079 0.40068 0.0
C836 C 0.2199 0.79437 0.38301 0.0
C837 C 0.18968 0.78759 0.39889 0.0
C838 C 0.49548 0.89927 0.59282 0.0
C839 C 0.52531 0.88215 0.59228 0.0
C840 C 0.49237 0.92879 0.57806 0.0
C841 C 0.51922 0.94338 0.5629 0.0
H842 H 0.47415 0.88968 0.60463 0.0
H843 H 0.46889 0.94067 0.57933 0.0
S844 S 0.60294 0.90919 0.55494 0.0
N845 N 0.58214 0.88256 0.57444 0.0
N846 N 0.57679 0.93782 0.54852 0.0
C847 C 0.54915 0.92659 0.56243 0.0
C848 C 0.55206 0.89622 0.57653 0.0
C849 C 0.46002 0.28009 0.84223 0.0
C850 C 0.47702 0.30416 0.85587 0.0
C851 C 0.43101 0.28626 0.82702 0.0
C852 C 0.41807 0.3166 0.82534 0.0
H853 H 0.46972 0.25658 0.84241 0.0
H854 H 0.41905 0.26729 0.81585 0.0
S855 S 0.45112 0.38678 0.86159 0.0
N856 N 0.47764 0.35888 0.86935 0.0
N857 N 0.42262 0.37026 0.84143 0.0
C858 C 0.43417 0.34058 0.84014 0.0
C859 C 0.46378 0.33439 0.8553 0.0
C860 C 0.9956 0.86608 0.44882 0.0
C861 C 0.0157 0.8436 0.46251 0.0
C862 C 0.97685 0.88676 0.4676 0.0
C863 C 0.9783 0.88637 0.50067 0.0
H864 H 0.99499 0.86819 0.42341 0.0
H865 H 0.96296 0.90479 0.45614 0.0
S866 S 0.02536 0.82993 0.54777 0.0
N867 N 0.03373 0.81982 0.51076 0.0
N868 N -0.00013 0.85988 0.54628 0.0
C869 C -0.00327 0.86259 0.51465 0.0
C870 C 0.01526 0.84101 0.49546 0.0
C871 C 0.43792 0.78699 0.75332 0.0
C872 C 0.44166 0.78025 0.72079 0.0
C873 C 0.40694 0.78881 0.76888 0.0
C874 C 0.37843 0.78272 0.75284 0.0
H875 H 0.45925 0.79051 0.767 0.0
H876 H 0.40543 0.79394 0.7939 0.0
S877 S 0.37453 0.76513 0.66736 0.0
N878 N 0.41385 0.7689 0.67288 0.0
N879 N 0.35592 0.77103 0.70214 0.0
C880 C 0.38178 0.77646 0.7202 0.0
C881 C 0.41325 0.77555 0.70419 0.0
C882 C 0.54941 0.1608 0.98678 0.0
C883 C 0.55587 0.16432 0.95424 0.0
C884 C 0.54918 0.13154 0.00065 0.0
C885 C 0.55546 0.10471 0.98247 0.0
H886 H 0.54373 0.18076 0.00162 0.0
H887 H 0.54272 0.12996 0.02558 0.0
S888 S 0.5792 0.10187 0.89723 0.0
N889 N 0.57234 0.13897 0.90478 0.0
N890 N 0.57192 0.0837 0.9309 0.0
C891 C 0.56359 0.10799 0.95016 0.0
C892 C 0.56371 0.13787 0.936 0.0
C893 C 0.15321 0.3084 0.19075 0.0
C894 C 0.12561 0.29176 0.201 0.0
C895 C 0.18143 0.30971 0.2088 0.0
C896 C 0.18402 0.29384 0.23779 0.0
H897 H 0.15293 0.32086 0.16863 0.0
H898 H 0.2018 0.3228 0.19942 0.0
S899 S 0.1192 0.24578 0.27489 0.0
N900 N 0.10295 0.2588 0.24233 0.0
N901 N 0.15607 0.26025 0.27533 0.0
C902 C 0.15671 0.27679 0.24814 0.0
C903 C 0.12762 0.27606 0.23009 0.0
C904 C 0.10913 0.97094 0.19932 0.0
C905 C 0.12192 -0.00143 0.21033 0.0
C906 C 0.0895 0.97082 0.1732 0.0
C907 C 0.08132 -0.00153 0.15764 0.0
H908 H 0.11414 0.94927 0.21119 0.0
H909 H 0.08061 0.94888 0.16524 0.0
S910 S 0.1072 0.0774 0.17924 0.0
N911 N 0.12502 0.05429 0.20461 0.0
N912 N 0.08662 0.05458 0.15637 0.0
C913 C 0.09398 0.0264 0.16866 0.0
C914 C 0.11466 0.02632 0.19484 0.0
C915 C 0.27258 0.89125 0.45666 0.0
C916 C 0.26229 0.8761 0.48442 0.0
C917 C 0.29565 0.87748 0.43579 0.0
C918 C 0.309 0.84789 0.44154 0.0
H919 H 0.26375 0.91444 0.45159 0.0
H920 H 0.30307 0.89001 0.41474 0.0
S921 S 0.28819 0.79763 0.50981 0.0
N922 N 0.26633 0.82966 0.51637 0.0
N923 N 0.30884 0.80312 0.47617 0.0
C924 C 0.29856 0.83223 0.46897 0.0
C925 C 0.27531 0.84647 0.49055 0.0
C926 C 0.41491 0.05737 0.63291 0.0
C927 C 0.42826 0.07636 0.65565 0.0
C928 C 0.43214 0.05118 0.60456 0.0
C929 C 0.46296 0.06387 0.59841 0.0
H930 H 0.39262 0.04511 0.63809 0.0
H931 H 0.42239 0.03458 0.58849 0.0
S932 S 0.50454 0.12053 0.64749 0.0
N933 N 0.47102 0.11201 0.66815 0.0
N934 N 0.50355 0.10009 0.61465 0.0
C935 C 0.47491 0.08531 0.61955 0.0
C936 C 0.45734 0.09178 0.64824 0.0
C937 C 0.28389 0.24685 0.92286 0.0
C938 C 0.27268 0.21625 0.92635 0.0
C939 C 0.28471 0.26226 0.89319 0.0
C940 C 0.27338 0.24824 0.86566 0.0
H941 H 0.29264 0.2589 0.94315 0.0
H942 H 0.29392 0.28553 0.89194 0.0
S943 S 0.24157 0.16852 0.86146 0.0
N944 N 0.25044 0.1726 0.89883 0.0
N945 N 0.25088 0.20155 0.84421 0.0
C946 C 0.26186 0.21781 0.86894 0.0
C947 C 0.2618 0.20191 0.89882 0.0
C948 C 0.11498 -0.00166 0.41708 0.0
C949 C 0.09689 0.98626 0.39269 0.0
C950 C 0.10171 2e-05 0.44793 0.0
C951 C 0.07035 0.98902 0.45531 0.0
H952 H 0.13823 0.00895 0.41185 0.0
H953 H 0.11523 0.01169 0.46569 0.0
S954 S 0.01599 0.95032 0.4004 0.0
N955 N 0.04819 0.95973 0.37823 0.0
N956 N 0.02348 0.96207 0.43638 0.0
C957 C 0.05358 0.97401 0.43164 0.0
C958 C 0.06681 0.97289 0.40017 0.0
C959 C 0.25995 0.84199 0.66356 0.0
C960 C 0.2678 0.87353 0.66306 0.0
C961 C 0.26089 0.82481 0.69124 0.0
C962 C 0.26986 0.83843 0.71956 0.0
H963 H 0.25236 0.8304 0.6425 0.0
H964 H 0.25459 0.80062 0.6903 0.0
S965 S 0.29474 0.91988 0.73053 0.0
N966 N 0.28613 0.91752 0.69294 0.0
N967 N 0.28812 0.88518 0.74529 0.0
C968 C 0.2784 0.86988 0.71938 0.0
C969 C 0.27739 0.88743 0.69104 0.0
C970 C 0.50267 -0.00124 0.81801 0.0
C971 C 0.49332 0.02942 0.81167 0.0
C972 C 0.51193 0.99012 0.848 0.0
C973 C 0.5128 0.01196 0.87256 0.0
H974 H 0.50056 0.98083 0.80036 0.0
H975 H 0.51674 0.96582 0.85218 0.0
S976 S 0.4964 0.09668 0.8653 0.0
N977 N 0.48864 0.08236 0.83038 0.0
N978 N 0.50827 0.06686 0.88655 0.0
C979 C 0.50611 0.04336 0.86552 0.0
C980 C 0.49584 0.05191 0.83507 0.0
C981 C 0.28248 0.23266 0.13242 0.0
C982 C 0.27874 0.20018 0.13243 0.0
C983 C 0.28543 0.24984 0.16089 0.0
C984 C 0.28493 0.23555 0.19099 0.0
H985 H 0.28269 0.24506 0.11027 0.0
H986 H 0.2875 0.27473 0.15925 0.0
S987 S 0.2777 0.15099 0.20475 0.0
N988 N 0.27619 0.15456 0.16615 0.0
N989 N 0.2816 0.18641 0.21836 0.0
C990 C 0.28189 0.2031 0.19122 0.0
C991 C 0.27887 0.18566 0.16247 0.0
C992 C 0.17556 0.08539 0.00036 0.0
C993 C 0.17915 0.10881 0.02319 0.0
C994 C 0.14712 0.06741 -0.00033 0.0
C995 C 0.12165 0.07102 0.02269 0.0
H996 H 0.19459 0.08145 0.98233 0.0
H997 H 0.14508 0.05053 0.981 0.0
S998 S 0.11903 0.12815 0.08821 0.0
N999 N 0.15426 0.13436 0.06938 0.0
N1000 N 0.10215 0.09965 0.06915 0.0
C1001 C 0.12527 0.09381 0.04603 0.0
C1002 C 0.1536 0.11286 0.04605 0.0
C1003 C 0.63812 0.48541 0.10528 0.0
C1004 C 0.64357 0.45385 0.09844 0.0
C1005 C 0.60711 0.49879 0.10362 0.0
C1006 C 0.58067 0.48098 0.09507 0.0
H1007 H 0.65831 0.50045 0.10938 0.0
H1008 H 0.60454 0.52369 0.10608 0.0
S1009 S 0.58059 0.3957 0.08438 0.0
N1010 N 0.61901 0.40387 0.08998 0.0
N1011 N 0.56038 0.42905 0.08699 0.0
C1012 C 0.58487 0.44861 0.09309 0.0
C1013 C 0.61658 0.43497 0.09465 0.0
C1014 C 0.84312 0.46778 0.29824 0.0
C1015 C 0.87262 0.4619 0.28095 0.0
C1016 C 0.82625 0.44376 0.31326 0.0
C1017 C 0.83851 0.41331 0.31149 0.0
H1018 H 0.83245 0.49091 0.29939 0.0
H1019 H 0.8028 0.44868 0.32492 0.0
S1020 S 0.91667 0.38621 0.27347 0.0
N1021 N 0.91482 0.42364 0.26589 0.0
N1022 N 0.88303 0.37875 0.29436 0.0
C1023 C 0.86875 0.4074 0.29594 0.0
C1024 C 0.88582 0.43163 0.28053 0.0
C1025 C 0.90117 0.60922 0.52685 0.0
C1026 C 0.87387 0.59572 0.51397 0.0
C1027 C 0.93234 0.59511 0.52345 0.0
C1028 C 0.9377 0.56706 0.5067 0.0
H1029 H 0.89817 0.63001 0.54105 0.0
H1030 H 0.95234 0.60587 0.53492 0.0
S1031 S 0.87428 0.52307 0.46728 0.0
N1032 N 0.85418 0.55313 0.48316 0.0
N1033 N 0.91282 0.52714 0.47597 0.0
C1034 C 0.9108 0.55412 0.49244 0.0
C1035 C 0.87889 0.56824 0.49639 0.0
C1036 C 0.18469 0.11509 0.33946 0.0
C1037 C 0.17294 0.10575 0.31047 0.0
C1038 C 0.20324 0.14172 0.34166 0.0
C1039 C 0.2115 0.1594 0.31477 0.0
H1040 H 0.17996 0.10141 0.36046 0.0
H1041 H 0.21157 0.14818 0.36458 0.0
S1042 S 0.18748 0.14279 0.23283 0.0
N1043 N 0.17031 0.11543 0.25441 0.0
N1044 N 0.20687 0.16446 0.25776 0.0
C1045 C 0.19956 0.15011 0.28552 0.0
C1046 C 0.17989 0.12346 0.28357 0.0
C1047 C 0.31771 0.98327 0.49322 0.0
C1048 C 0.30601 0.99421 0.52283 0.0
C1049 C 0.34873 0.99097 0.48147 0.0
C1050 C 0.36863 0.00978 0.4991 0.0
H1051 H 0.30337 0.96756 0.47978 0.0
H1052 H 0.35787 0.981 0.45934 0.0
S1053 S 0.34653 0.04818 0.57541 0.0
N1054 N 0.31473 0.02698 0.56796 0.0
N1055 N 0.37288 0.04248 0.54544 0.0
C1056 C 0.35619 0.02247 0.52777 0.0
C1057 C 0.32482 0.01434 0.53983 0.0
C1058 C 0.82893 0.64991 0.26247 0.0
C1059 C 0.86293 0.64765 0.26498 0.0
C1060 C 0.81344 0.67827 0.2568 0.0
C1061 C 0.83137 0.70547 0.25354 0.0
H1062 H 0.81405 0.62957 0.26463 0.0
H1063 H 0.78711 0.67894 0.25601 0.0
S1064 S 0.92115 0.71208 0.25737 0.0
N1065 N 0.9142 0.67505 0.26336 0.0
N1066 N 0.88509 0.72839 0.25231 0.0
C1067 C 0.86548 0.70352 0.25548 0.0
C1068 C 0.88125 0.67465 0.26146 0.0
C1069 C 0.7093 0.41304 0.7768 0.0
C1070 C 0.72009 0.43847 0.79384 0.0
C1071 C 0.72922 0.38695 0.7716 0.0
C1072 C 0.76045 0.38502 0.78388 0.0
H1073 H 0.68495 0.41303 0.76785 0.0
H1074 H 0.71927 0.36749 0.75935 0.0
S1075 S 0.80153 0.44673 0.8271 0.0
N1076 N 0.76507 0.46159 0.82034 0.0
N1077 N 0.80243 0.41162 0.81157 0.0
C1078 C 0.7722 0.41081 0.79975 0.0
C1079 C 0.75204 0.43783 0.80444 0.0
C1080 C 0.03703 0.89574 0.97772 0.0
C1081 C 0.03281 0.89398 0.94481 0.0
C1082 C 0.03968 0.92468 0.99374 0.0
C1083 C 0.03825 0.95354 0.9778 0.0
H1084 H 0.03884 0.87458 0.99122 0.0
H1085 H 0.04275 0.92436 0.01896 0.0
S1086 S 0.02545 0.96251 0.89192 0.0
N1087 N 0.02583 0.92473 0.8974 0.0
N1088 N 0.03113 0.97773 0.92686 0.0
C1089 C 0.03359 0.95198 0.94503 0.0
C1090 C 0.03082 0.92278 0.92884 0.0
C1091 C 0.94064 0.29464 0.74814 0.0
C1092 C 0.94304 0.29755 0.71508 0.0
C1093 C 0.91131 0.30099 0.76492 0.0
C1094 C 0.8833 0.31018 0.7492 0.0
H1095 H 0.96152 0.28724 0.76123 0.0
H1096 H 0.91029 0.29731 0.79019 0.0
S1097 S 0.87694 0.32311 0.66318 0.0
N1098 N 0.91509 0.31169 0.66743 0.0
N1099 N 0.85996 0.3236 0.69906 0.0
C1100 C 0.88556 0.31421 0.71632 0.0
C1101 C 0.91542 0.30785 0.69922 0.0
C1102 C 0.49999 0.16011 0.447 0.0
C1103 C 0.51843 0.18407 0.4599 0.0
C1104 C 0.49876 0.1299 0.46037 0.0
C1105 C 0.51647 0.12151 0.48711 0.0
H1106 H 0.48613 0.16472 0.42627 0.0
H1107 H 0.48409 0.1128 0.44924 0.0
S1108 S 0.56929 0.17497 0.53005 0.0
N1109 N 0.55493 0.19662 0.50149 0.0
N1110 N 0.55339 0.14051 0.52581 0.0
C1111 C 0.53517 0.14522 0.50015 0.0
C1112 C 0.53593 0.17611 0.48687 0.0
C1113 C 0.63004 0.8246 0.19534 0.0
C1114 C 0.62363 0.81284 0.16538 0.0
C1115 C 0.64761 0.80708 0.21661 0.0
C1116 C 0.65979 0.77744 0.20847 0.0
H1117 H 0.61884 0.84627 0.20342 0.0
H1118 H 0.65104 0.81642 0.23992 0.0
S1119 S 0.6566 0.73924 0.13071 0.0
N1120 N 0.63537 0.77182 0.12686 0.0
N1121 N 0.66961 0.73933 0.16708 0.0
C1122 C 0.65692 0.76689 0.17753 0.0
C1123 C 0.63868 0.78462 0.15579 0.0
C1124 C 0.07192 0.18578 0.6051 0.0
C1125 C 0.04588 0.20619 0.59855 0.0
C1126 C 0.07951 0.16018 0.58581 0.0
C1127 C 0.0612 0.15386 0.5594 0.0
H1128 H 0.08671 0.18959 0.62527 0.0
H1129 H 0.09914 0.14462 0.59223 0.0
S1130 S 0.99126 0.20011 0.53122 0.0
N1131 N 0.00222 0.21853 0.56312 0.0
N1132 N 0.01661 0.17011 0.52701 0.0
C1133 C 0.03545 0.17416 0.55224 0.0
C1134 C 0.02777 0.2004 0.57175 0.0
C1135 C 0.64912 0.29763 0.37337 0.0
C1136 C 0.62324 0.28168 0.36019 0.0
C1137 C 0.67968 0.30039 0.35716 0.0
C1138 C 0.68609 0.28673 0.32726 0.0
H1139 H 0.64569 0.30838 0.39637 0.0
H1140 H 0.69867 0.31277 0.36851 0.0
S1141 S 0.6269 0.24204 0.28238 0.0
N1142 N 0.60634 0.2522 0.31512 0.0
N1143 N 0.66353 0.25651 0.28527 0.0
C1144 C 0.66044 0.2706 0.31392 0.0
C1145 C 0.62918 0.26833 0.33014 0.0
C1146 C 0.49792 0.89018 0.05377 0.0
C1147 C 0.48962 0.88808 0.08615 0.0
C1148 C 0.49913 0.91892 0.03873 0.0
C1149 C 0.4922 0.9464 0.05568 0.0
H1150 H 0.50602 0.86985 0.04046 0.0
H1151 H 0.50807 0.9197 0.01439 0.0
S1152 S 0.46083 0.95275 0.13851 0.0
N1153 N 0.46799 0.91537 0.13297 0.0
N1154 N 0.47081 0.96948 0.10464 0.0
C1155 C 0.48034 0.94436 0.08702 0.0
C1156 C 0.47882 0.91511 0.10228 0.0
C1157 C 0.91429 0.77008 0.84287 0.0
C1158 C 0.93639 0.79337 0.83366 0.0
C1159 C 0.88452 0.76591 0.82738 0.0
C1160 C 0.87519 0.78481 0.80184 0.0
H1161 H 0.92001 0.75484 0.86221 0.0
H1162 H 0.86844 0.74796 0.83588 0.0
S1163 S 0.92368 0.84952 0.7683 0.0
N1164 N 0.94585 0.83585 0.79691 0.0
N1165 N 0.89114 0.82786 0.76835 0.0
C1166 C 0.89714 0.80804 0.7924 0.0
C1167 C 0.92721 0.81233 0.80806 0.0
C1168 C 0.01082 0.062 0.82535 0.0
C1169 C 0.97959 0.05065 0.82073 0.0
C1170 C 0.02059 0.06917 0.8557 0.0
C1171 C -0.00043 0.06472 0.88216 0.0
H1172 H 0.02713 0.06682 0.80536 0.0
H1173 H 0.04456 0.07848 0.85852 0.0
S1174 S 0.91636 0.03328 0.88257 0.0
N1175 N 0.92849 0.03352 0.84501 0.0
N1176 N 0.94697 0.04697 0.90203 0.0
C1177 C 0.9689 0.05209 0.8779 0.0
C1178 C 0.95888 0.04504 0.84713 0.0
C1179 C 0.77397 0.21778 0.6041 0.0
C1180 C 0.79185 0.1905 0.60998 0.0
C1181 C 0.76671 0.23924 0.62801 0.0
C1182 C 0.77757 0.23467 0.65867 0.0
H1183 H 0.76497 0.22238 0.58086 0.0
H1184 H 0.7526 0.25978 0.62236 0.0
S1185 S 0.82626 0.16691 0.68584 0.0
N1186 N 0.82 0.15944 0.64839 0.0
N1187 N 0.80807 0.2007 0.69337 0.0
C1188 C 0.79552 0.20727 0.66495 0.0
C1189 C 0.80227 0.18498 0.64056 0.0
C1190 C 0.55457 0.00646 0.38892 0.0
C1191 C 0.58588 0.01732 0.38221 0.0
C1192 C 0.54357 0.00193 0.41989 0.0
C1193 C 0.56319 0.00908 0.44529 0.0
H1194 H 0.53827 0.0018 0.37008 0.0
H1195 H 0.51871 0.99453 0.42382 0.0
S1196 S 0.64886 0.03466 0.43942 0.0
N1197 N 0.63795 0.0318 0.40247 0.0
N1198 N 0.6168 0.02451 0.46142 0.0
C1199 C 0.59546 0.01803 0.43876 0.0
C1200 C 0.6069 0.022 0.40696 0.0
C1201 C 0.77011 0.82767 0.12891 0.0
C1202 C 0.78763 0.85468 0.12145 0.0
C1203 C 0.77119 0.81337 0.15903 0.0
C1204 C 0.79044 0.82479 0.18329 0.0
H1205 H 0.7548 0.81773 0.11151 0.0
H1206 H 0.75671 0.79304 0.16328 0.0
S1207 S 0.84172 0.89449 0.17621 0.0
N1208 N 0.82512 0.89206 0.14149 0.0
N1209 N 0.82778 0.86502 0.19705 0.0
C1210 C 0.80852 0.85147 0.17594 0.0
C1211 C 0.80693 0.86637 0.1455 0.0
C1212 C 0.95711 0.09217 0.64436 0.0
C1213 C 0.92683 0.08041 0.65415 0.0
C1214 C 0.97422 0.08001 0.618 0.0
C1215 C 0.96184 0.05527 0.60089 0.0
H1216 H 0.9684 0.10987 0.6581 0.0
H1217 H -0.00197 0.08913 0.61198 0.0
S1218 S 0.88175 0.01865 0.61483 0.0
N1219 N 0.8836 0.04468 0.64318 0.0
N1220 N 0.91605 0.02154 0.59354 0.0
C1221 C 0.93064 0.04456 0.60924 0.0
C1222 C 0.91298 0.05729 0.6359 0.0
C1223 C 0.80128 0.23782 0.41976 0.0
C1224 C 0.80598 0.20555 0.41981 0.0
C1225 C 0.79991 0.2541 0.39149 0.0
C1226 C 0.80305 0.23862 0.36234 0.0
H1227 H 0.7974 0.25053 0.44166 0.0
H1228 H 0.79482 0.27879 0.39257 0.0
S1229 S 0.82133 0.15514 0.34957 0.0
N1230 N 0.81791 0.15919 0.38825 0.0
N1231 N 0.81494 0.19002 0.33498 0.0
C1232 C 0.80978 0.20669 0.36197 0.0
C1233 C 0.81137 0.19008 0.39078 0.0
C1234 C 0.61269 0.03525 0.18798 0.0
C1235 C 0.60078 0.01015 0.2057 0.0
C1236 C 0.59363 0.0495 0.16543 0.0
C1237 C 0.56244 0.03878 0.15981 0.0
H1238 H 0.63653 0.04438 0.19202 0.0
H1239 H 0.60361 0.06833 0.15156 0.0
S1240 S 0.52034 0.97404 0.19967 0.0
N1241 N 0.55585 0.97555 0.21652 0.0
N1242 N 0.52045 0.00191 0.17305 0.0
C1243 C 0.55032 0.01378 0.17722 0.0
C1244 C 0.56943 -0.00044 0.20051 0.0
C1245 C 0.77516 0.88243 0.8841 0.0
C1246 C 0.77514 0.86754 0.91389 0.0
C1247 C 0.7734 0.86599 0.85531 0.0
C1248 C 0.77104 0.83349 0.85427 0.0
H1249 H 0.77674 0.90738 0.88279 0.0
H1250 H 0.77397 0.87907 0.83355 0.0
S1251 S 0.77001 0.78253 0.92506 0.0
N1252 N 0.7727 0.81767 0.93997 0.0
N1253 N 0.76908 0.7869 0.88643 0.0
C1254 C 0.77091 0.81814 0.88385 0.0
C1255 C 0.77306 0.83499 0.91329 0.0
C1256 C 0.88562 0.00045 -0.00499 0.0
C1257 C 0.87383 0.97714 0.01565 0.0
C1258 C 0.9154 0.01535 -0.00061 0.0
C1259 C 0.93524 0.00814 0.02487 0.0
H1260 H 0.87179 0.00727 0.97486 0.0
H1261 H 0.92305 0.03254 0.98226 0.0
S1262 S 0.91588 0.94936 0.08651 0.0
N1263 N 0.8848 0.94795 0.06306 0.0
N1264 N 0.9403 0.97589 0.07149 0.0
C1265 C 0.92369 0.98508 0.04597 0.0
C1266 C 0.89332 0.96966 0.04133 0.0
C1267 C 0.38275 0.55341 0.00027 0.0
C1268 C 0.3801 0.58533 0.00591 0.0
C1269 C 0.41312 0.53917 0.99449 0.0
C1270 C 0.44177 0.55636 -0.00447 0.0
H1271 H 0.36146 0.53906 0.00243 0.0
H1272 H 0.41422 0.51413 0.99306 0.0
S1273 S 0.44656 0.64188 0.00028 0.0
N1274 N 0.40733 0.63474 0.00487 0.0
N1275 N 0.46493 0.60785 -0.00517 0.0
C1276 C 0.43893 0.58888 -0.0038 0.0
C1277 C 0.40784 0.60344 0.00157 0.0
C1278 C 0.17664 0.64051 0.77851 0.0
C1279 C 0.1873 0.60967 0.77383 0.0
C1280 C 0.19718 0.66495 0.7715 0.0
C1281 C 0.22893 0.65948 0.7592 0.0
H1282 H 0.15229 0.6459 0.78794 0.0
H1283 H 0.18818 0.6884 0.7756 0.0
S1284 S 0.26889 0.58343 0.74251 0.0
N1285 N 0.23191 0.575 0.75612 0.0
N1286 N 0.27055 0.62159 0.74275 0.0
C1287 C 0.24002 0.62897 0.75414 0.0
C1288 C 0.2192 0.60387 0.76163 0.0
C1289 C 0.15528 0.44242 0.50989 0.0
C1290 C 0.17933 0.453 0.52986 0.0
C1291 C 0.12481 0.45788 0.50799 0.0
C1292 C 0.11648 0.48418 0.52662 0.0
H1293 H 0.16028 0.42236 0.49502 0.0
H1294 H 0.1075 0.44893 0.49186 0.0
S1295 S 0.17003 0.52046 0.58402 0.0
N1296 N 0.19234 0.49132 0.56912 0.0
N1297 N 0.13487 0.51949 0.56648 0.0
C1298 C 0.14 0.49454 0.54729 0.0
C1299 C 0.17139 0.47926 0.54862 0.0
C1300 C 0.85421 0.95998 0.75366 0.0
C1301 C 0.87563 0.96892 0.72883 0.0
C1302 C 0.8362 0.93304 0.75153 0.0
C1303 C 0.8385 0.9146 0.72427 0.0
H1304 H 0.85142 0.97383 0.77493 0.0
H1305 H 0.81987 0.92684 0.77105 0.0
S1306 S 0.89123 0.92754 0.65289 0.0
N1307 N 0.8985 0.95694 0.67632 0.0
N1308 N 0.86416 0.90636 0.67233 0.0
C1309 C 0.85987 0.92311 0.69934 0.0
C1310 C 0.87863 0.95026 0.70166 0.0
C1311 C 0.70219 0.08114 0.52002 0.0
C1312 C 0.70642 0.11238 0.52777 0.0
C1313 C 0.67594 0.06492 0.53286 0.0
C1314 C 0.65369 0.07921 0.55433 0.0
H1315 H 0.71897 0.06929 0.50352 0.0
H1316 H 0.67245 0.04124 0.52551 0.0
S1317 S 0.65382 0.16003 0.58279 0.0
N1318 N 0.68622 0.15692 0.55858 0.0
N1319 N 0.63678 0.12574 0.5829 0.0
C1320 C 0.65774 0.11011 0.56277 0.0
C1321 C 0.68418 0.12693 0.54936 0.0
C1322 C 0.18114 0.39707 0.80159 0.0
C1323 C 0.1982 0.42489 0.80187 0.0
C1324 C 0.19771 0.36858 0.80116 0.0
C1325 C 0.23191 0.36695 0.80119 0.0
H1326 H 0.15484 0.39722 0.80043 0.0
H1327 H 0.18359 0.34778 0.7996 0.0
S1328 S 0.28753 0.43328 0.80664 0.0
N1329 N 0.25076 0.44925 0.80555 0.0
N1330 N 0.28212 0.3956 0.80501 0.0
C1331 C 0.24915 0.39461 0.80362 0.0
C1332 C 0.23223 0.42365 0.80381 0.0
C1333 C 0.31474 0.65367 0.30451 0.0
C1334 C 0.34491 0.64242 0.31441 0.0
C1335 C 0.30538 0.68451 0.30975 0.0
C1336 C 0.32576 0.70485 0.32529 0.0
H1337 H 0.29982 0.63964 0.28985 0.0
H1338 H 0.2833 0.69308 0.2993 0.0
S1339 S 0.40286 0.68417 0.36324 0.0
N1340 N 0.39186 0.6519 0.34611 0.0
N1341 N 0.3741 0.71015 0.35594 0.0
C1342 C 0.35367 0.69276 0.33917 0.0
C1343 C 0.36332 0.66134 0.33371 0.0
C1344 C 0.52423 0.67675 0.57649 0.0
C1345 C 0.52982 0.67747 0.6092 0.0
C1346 C 0.52078 0.64837 0.5597 0.0
C1347 C 0.52253 0.61902 0.57462 0.0
H1348 H 0.52282 0.69828 0.56356 0.0
H1349 H 0.51716 0.64952 0.53459 0.0
S1350 S 0.53606 0.60712 0.65993 0.0
N1351 N 0.53635 0.64503 0.65565 0.0
N1352 N 0.52984 0.59311 0.62458 0.0
C1353 C 0.52767 0.61948 0.6073 0.0
C1354 C 0.53129 0.64812 0.62432 0.0
C1355 C 0.68097 0.27605 0.88303 0.0
C1356 C 0.65452 0.26267 0.86872 0.0
C1357 C 0.70893 0.28353 0.86517 0.0
C1358 C 0.71146 0.27767 0.83244 0.0
H1359 H 0.67961 0.28191 0.90789 0.0
H1360 H 0.72847 0.29448 0.87715 0.0
S1361 S 0.64998 0.23953 0.78477 0.0
N1362 N 0.63319 0.24152 0.82071 0.0
N1363 N 0.68602 0.25538 0.78706 0.0
C1364 C 0.68563 0.26308 0.81815 0.0
C1365 C 0.6571 0.25557 0.83635 0.0
C1366 C 0.01472 0.39233 0.06628 0.0
C1367 C 0.02375 0.38809 0.0979 0.0
C1368 C 0.01188 0.42226 0.05237 0.0
C1369 C 0.01881 0.44966 0.06896 0.0
H1370 H 0.00944 0.37231 0.05214 0.0
H1371 H 0.00478 0.42386 0.02811 0.0
S1372 S 0.04351 0.45205 0.15231 0.0
N1373 N 0.03912 0.41481 0.14532 0.0
N1374 N 0.03498 0.47 0.11922 0.0
C1375 C 0.02803 0.44569 0.10048 0.0
C1376 C 0.03016 0.41539 0.11484 0.0
C1377 C 0.96252 0.77423 0.35068 0.0
C1378 C 0.99179 0.78007 0.33368 0.0
C1379 C 0.93258 0.78294 0.3385 0.0
C1380 C 0.93117 0.79778 0.30916 0.0
H1381 H 0.96277 0.76503 0.3744 0.0
H1382 H 0.91052 0.77966 0.35281 0.0
S1383 S 1e-05 0.81158 0.25251 0.0
N1384 N 0.01707 0.79665 0.28381 0.0
N1385 N 0.96049 0.81313 0.2612 0.0
C1386 C 0.95987 0.80113 0.29078 0.0
C1387 C 0.9903 0.7921 0.30296 0.0
C1388 C 0.54888 0.36944 0.99049 0.0
C1389 C 0.53596 0.34054 0.98338 0.0
C1390 C 0.53077 0.39113 0.00856 0.0
C1391 C 0.49898 0.38484 0.01996 0.0
H1392 H 0.57261 0.3759 0.98092 0.0
H1393 H 0.54121 0.4135 0.01274 0.0
S1394 S 0.45523 0.31175 0.01151 0.0
N1395 N 0.49038 0.30573 0.99198 0.0
N1396 N 0.45645 0.34723 0.02588 0.0
C1397 C 0.48658 0.35549 0.0151 0.0
C1398 C 0.50506 0.33313 -0.00321 0.0
C1399 C 0.91892 0.30426 0.22231 0.0
C1400 C 0.93354 0.2755 0.21373 0.0
C1401 C 0.88772 0.30607 0.23779 0.0
C1402 C 0.86967 0.27927 0.24473 0.0
H1403 H 0.93206 0.32539 0.21797 0.0
H1404 H 0.87758 0.32865 0.24418 0.0
S1405 S 0.89661 0.19852 0.22597 0.0
N1406 N 0.92714 0.21979 0.21283 0.0
N1407 N 0.86892 0.22318 0.2409 0.0
C1408 C 0.88385 0.25055 0.23551 0.0
C1409 C 0.9156 0.24869 0.22034 0.0
C1410 C 0.05657 0.66207 0.48947 0.0
C1411 C 0.06517 0.66557 0.45728 0.0
C1412 C 0.05444 0.63271 0.50312 0.0
C1413 C 0.06091 0.60585 0.48505 0.0
H1414 H 0.0503 0.68209 0.50404 0.0
H1415 H 0.04611 0.63109 0.52759 0.0
S1416 S 0.09 0.60271 0.40116 0.0
N1417 N 0.08406 0.63993 0.40865 0.0
N1418 N 0.08018 0.58468 0.43434 0.0
C1419 C 0.07159 0.60911 0.45335 0.0
C1420 C 0.07363 0.63899 0.43942 0.0
C1421 C 0.65965 0.80194 0.68661 0.0
C1422 C 0.6303 0.79026 0.69968 0.0
C1423 C 0.68845 0.80257 0.70384 0.0
C1424 C 0.68985 0.79082 0.73487 0.0
H1425 H 0.66038 0.81103 0.66283 0.0
H1426 H 0.71014 0.81184 0.69236 0.0
S1427 S 0.6201 0.75751 0.78042 0.0
N1428 N 0.60467 0.76699 0.74628 0.0
N1429 N 0.65884 0.76707 0.77785 0.0
C1430 C 0.66084 0.77877 0.74818 0.0
C1431 C 0.63119 0.77883 0.7309 0.0
C1432 C 0.57379 0.49598 0.71712 0.0
C1433 C 0.60431 0.51 0.71874 0.0
C1434 C 0.56 0.49037 0.68816 0.0
C1435 C 0.57611 0.49874 0.65982 0.0
H1436 H 0.56035 0.48917 0.73837 0.0
H1437 H 0.53628 0.47994 0.68795 0.0
S1438 S 0.65698 0.53489 0.65077 0.0
N1439 N 0.65056 0.53151 0.68925 0.0
N1440 N 0.62454 0.52064 0.63472 0.0
C1441 C 0.60669 0.51255 0.66094 0.0
C1442 C 0.62083 0.51826 0.69045 0.0
C1443 C 0.76972 0.355 0.97914 0.0
C1444 C 0.75211 0.38261 0.97327 0.0
C1445 C 0.78921 0.34053 0.95539 0.0
C1446 C 0.79186 0.35328 0.92506 0.0
H1447 H 0.76891 0.34477 0.00244 0.0
H1448 H 0.80196 0.31909 0.96064 0.0
S1449 S 0.75214 0.42585 0.89782 0.0
N1450 N 0.73915 0.42231 0.93488 0.0
N1451 N 0.77639 0.39555 0.89058 0.0
C1452 C 0.77449 0.38087 0.91888 0.0
C1453 C 0.75435 0.39536 0.94286 0.0
C1454 C 0.90852 0.54781 0.13106 0.0
C1455 C 0.91738 0.57052 0.15257 0.0
C1456 C 0.92508 0.54516 0.10173 0.0
C1457 C 0.95064 0.56514 0.09371 0.0
H1458 H 0.89162 0.53 0.13822 0.0
H1459 H 0.92032 0.52547 0.08692 0.0
S1460 S 0.97633 0.63314 0.13876 0.0
N1461 N 0.94804 0.61696 0.1616 0.0
N1462 N 0.97934 0.61182 0.10641 0.0
C1463 C 0.95642 0.59035 0.11326 0.0
C1464 C 0.93954 0.59314 0.14284 0.0
C1465 C 0.79014 0.74279 0.41813 0.0
C1466 C 0.77672 0.71309 0.42202 0.0
C1467 C 0.7922 0.7577 0.38825 0.0
C1468 C 0.78001 0.74411 0.36087 0.0
H1469 H 0.79969 0.75447 0.43828 0.0
H1470 H 0.80305 0.78029 0.3867 0.0
S1471 S 0.74225 0.66682 0.35782 0.0
N1472 N 0.75136 0.67074 0.39516 0.0
N1473 N 0.75408 0.69886 0.34007 0.0
C1474 C 0.76624 0.71462 0.36457 0.0
C1475 C 0.7649 0.69916 0.3947 0.0
C1476 C 0.55384 0.48514 0.91097 0.0
C1477 C 0.58541 0.49535 0.90341 0.0
C1478 C 0.54293 0.48218 0.9424 0.0
C1479 C 0.56305 0.4903 0.96695 0.0
H1480 H 0.53687 0.48125 0.89252 0.0
H1481 H 0.51765 0.47661 0.94735 0.0
S1482 S 0.6492 0.51348 0.95956 0.0
N1483 N 0.63811 0.50922 0.92282 0.0
N1484 N 0.61695 0.50499 0.98212 0.0
C1485 C 0.59551 0.4978 0.95977 0.0
C1486 C 0.60691 0.50001 0.92781 0.0
C1487 C 0.76498 0.38339 0.18285 0.0
C1488 C 0.76364 0.36939 0.15307 0.0
C1489 C 0.76295 0.36576 0.21037 0.0
C1490 C 0.75952 0.33345 0.20916 0.0
H1491 H 0.76703 0.40824 0.18506 0.0
H1492 H 0.7644 0.37766 0.23274 0.0
S1493 S 0.75563 0.28542 0.13685 0.0
N1494 N 0.75935 0.32116 0.12382 0.0
N1495 N 0.75529 0.28806 0.17563 0.0
C1496 C 0.75825 0.31909 0.1795 0.0
C1497 C 0.7605 0.33704 0.15144 0.0
C1498 C 0.01351 0.49822 0.31282 0.0
C1499 C 0.00281 0.52837 0.30582 0.0
C1500 C 0.02454 0.49095 0.3426 0.0
C1501 C 0.02579 0.5137 0.36626 0.0
H1502 H 0.01092 0.47955 0.29609 0.0
H1503 H 0.0301 0.46693 0.34756 0.0
S1504 S 0.00786 0.59773 0.35647 0.0
N1505 N -0.00157 0.58201 0.32262 0.0
N1506 N 0.0212 0.56889 0.37829 0.0
C1507 C 0.01831 0.54464 0.3583 0.0
C1508 C 0.00632 0.55185 0.32811 0.0
C1509 C 0.78451 0.68718 0.65788 0.0
C1510 C 0.78485 0.70109 0.6276 0.0
C1511 C 0.78782 0.70434 0.68597 0.0
C1512 C 0.79186 0.73668 0.68587 0.0
H1513 H 0.78133 0.66247 0.66018 0.0
H1514 H 0.78674 0.69197 0.70815 0.0
S1515 S 0.79499 0.78524 0.61341 0.0
N1516 N 0.79004 0.74989 0.59976 0.0
N1517 N 0.79626 0.782 0.65213 0.0
C1518 C 0.79269 0.75104 0.6558 0.0
C1519 C 0.78921 0.73343 0.62699 0.0
C1520 C 0.6536 0.61667 0.50693 0.0
C1521 C 0.68164 0.60582 0.52191 0.0
C1522 C 0.62525 0.5988 0.50579 0.0
C1523 C 0.62293 0.56941 0.52026 0.0
H1524 H 0.65366 0.63902 0.4956 0.0
H1525 H 0.60457 0.60859 0.49392 0.0
S1526 S 0.68898 0.53057 0.56362 0.0
N1527 N 0.70511 0.56347 0.55172 0.0
N1528 N 0.65152 0.53074 0.55077 0.0
C1529 C 0.65061 0.55845 0.53579 0.0
C1530 C 0.67989 0.57635 0.53623 0.0
C1531 C 0.11572 0.93375 0.59083 0.0
C1532 C 0.14153 0.95169 0.60071 0.0
C1533 C 0.08584 0.94779 0.5842 0.0
C1534 C 0.08131 0.98003 0.58721 0.0
H1535 H 0.11954 0.90948 0.5851 0.0
H1536 H 0.06762 0.9338 0.57357 0.0
S1537 S 0.13787 0.03495 0.62204 0.0
N1538 N 0.15812 0.00154 0.6207 0.0
N1539 N 0.10191 0.02802 0.60782 0.0
C1540 C 0.10518 -0.00279 0.60161 0.0
C1541 C 0.13544 0.98294 0.60852 0.0
C1542 C 0.3409 0.96919 0.79535 0.0
C1543 C 0.37128 0.96504 0.77912 0.0
C1544 C 0.32712 0.94526 0.81333 0.0
C1545 C 0.34347 0.91663 0.81582 0.0
H1546 H 0.32741 0.9909 0.79374 0.0
H1547 H 0.30303 0.94868 0.8242 0.0
S1548 S 0.4249 0.89488 0.78107 0.0
N1549 N 0.41817 0.93056 0.76874 0.0
N1550 N 0.39235 0.88601 0.80295 0.0
C1551 C 0.37434 0.91262 0.80087 0.0
C1552 C 0.38819 0.93667 0.78232 0.0
C1553 C 0.38924 0.08588 0.05292 0.0
C1554 C 0.37237 0.09669 0.02668 0.0
C1555 C 0.42006 0.07132 0.04964 0.0
C1556 C 0.43556 0.06605 0.01985 0.0
H1557 H 0.37839 0.08858 0.07647 0.0
H1558 H 0.43161 0.06362 0.07085 0.0
S1559 S 0.40236 0.08997 0.94324 0.0
N1560 N 0.37396 0.10156 0.9696 0.0
N1561 N 0.43171 0.07348 0.96332 0.0
C1562 C 0.41916 0.0768 0.99323 0.0
C1563 C 0.38777 0.09233 -0.00333 0.0
C1564 C 0.69546 0.61635 0.84642 0.0
C1565 C 0.6693 0.61624 0.82604 0.0
C1566 C 0.71723 0.64078 0.84619 0.0
C1567 C 0.71382 0.66579 0.8254 0.0
H1568 H 0.69989 0.59682 0.86177 0.0
H1569 H 0.73781 0.63947 0.86136 0.0
S1570 S 0.64888 0.67663 0.76772 0.0
N1571 N 0.64024 0.64371 0.7855 0.0
N1572 N 0.68173 0.68929 0.78438 0.0
C1573 C 0.68681 0.66668 0.80596 0.0
C1574 C 0.66439 0.64194 0.80646 0.0
C1575 C 0.83676 0.50216 0.03776 0.0
C1576 C 0.81271 0.49287 0.01757 0.0
C1577 C 0.8681 0.50831 0.02591 0.0
C1578 C 0.87674 0.50439 0.99362 0.0
H1579 H 0.83141 0.50433 0.06289 0.0
H1580 H 0.88576 0.51589 0.04232 0.0
S1581 S 0.82219 0.47962 0.9313 0.0
N1582 N 0.79887 0.48023 0.96391 0.0
N1583 N 0.85848 0.49068 0.94177 0.0
C1584 C 0.85262 0.49562 0.97311 0.0
C1585 C 0.82042 0.49 0.9851 0.0
C1586 C 0.37121 0.17642 0.76653 0.0
C1587 C 0.35298 0.14946 0.77053 0.0
C1588 C 0.35593 0.20502 0.76167 0.0
C1589 C 0.32185 0.20773 0.76065 0.0
H1590 H 0.39758 0.17543 0.76646 0.0
H1591 H 0.37098 0.22522 0.75905 0.0
S1592 S 0.26287 0.14429 0.77163 0.0
N1593 N 0.29898 0.1273 0.77434 0.0
N1594 N 0.27012 0.18118 0.7652 0.0
C1595 C 0.30324 0.18098 0.76488 0.0
C1596 C 0.31883 0.15183 0.76998 0.0
C1597 C 0.24691 0.91459 0.26827 0.0
C1598 C 0.2478 0.93613 0.29289 0.0
C1599 C 0.26768 0.8887 0.26736 0.0
C1600 C 0.28938 0.88297 0.29165 0.0
H1601 H 0.22881 0.91693 0.25046 0.0
H1602 H 0.26467 0.87188 0.2488 0.0
S1603 S 0.30462 0.9357 0.3584 0.0
N1604 N 0.27497 0.95301 0.33947 0.0
N1605 N 0.31382 0.90359 0.33852 0.0
C1606 C 0.29263 0.90599 0.31481 0.0
C1607 C 0.27175 0.93279 0.31531 0.0
C1608 C 0.53994 0.39428 0.47659 0.0
C1609 C 0.52928 0.39183 0.44539 0.0
C1610 C 0.54345 0.42359 0.49167 0.0
C1611 C 0.5366 0.45217 0.47647 0.0
H1612 H 0.54639 0.37345 0.48926 0.0
H1613 H 0.55174 0.42377 0.51558 0.0
S1614 S 0.50456 0.4588 0.39592 0.0
N1615 N 0.50966 0.42121 0.40093 0.0
N1616 N 0.51639 0.47502 0.42864 0.0
C1617 C 0.5252 0.4498 0.4456 0.0
C1618 C 0.52154 0.42018 0.43037 0.0
C1619 C 0.43089 0.79663 0.21537 0.0
C1620 C 0.46043 0.7911 0.23017 0.0
C1621 C 0.40152 0.79874 0.23284 0.0
C1622 C 0.40054 0.7957 0.26584 0.0
H1623 H 0.4303 0.79918 0.19 0.0
H1624 H 0.37937 0.80283 0.22029 0.0
S1625 S 0.47091 0.78103 0.31619 0.0
N1626 N 0.48695 0.78264 0.27996 0.0
N1627 N 0.43135 0.78673 0.31283 0.0
C1628 C 0.4298 0.79037 0.28111 0.0
C1629 C 0.45984 0.78794 0.26325 0.0
C1630 C 0.0045 0.66251 0.94504 0.0
C1631 C 0.01973 0.68754 0.95979 0.0
C1632 C 0.00248 0.63262 0.95901 0.0
C1633 C 0.01613 0.62571 0.98835 0.0
H1634 H 0.99386 0.66601 0.92233 0.0
H1635 H 0.99052 0.61458 0.94635 0.0
S1636 S 0.05914 0.6825 0.03708 0.0
N1637 N 0.04861 0.70275 0.00598 0.0
N1638 N 0.04558 0.64729 0.03159 0.0
C1639 C 0.03149 0.65054 0.00331 0.0
C1640 C 0.03307 0.68105 0.98931 0.0
C1641 C 0.12733 0.2774 0.66191 0.0
C1642 C 0.11419 0.30716 0.66857 0.0
C1643 C 0.14556 0.2615 0.68423 0.0
C1644 C 0.15066 0.27484 0.71371 0.0
H1645 H 0.12149 0.26546 0.64046 0.0
H1646 H 0.15478 0.23833 0.67898 0.0
S1647 S 0.12629 0.35402 0.74009 0.0
N1648 N 0.11084 0.35061 0.70493 0.0
N1649 N 0.14553 0.32086 0.74662 0.0
C1650 C 0.13982 0.30539 0.71955 0.0
C1651 C 0.1215 0.32154 0.69695 0.0
C1652 C 0.53215 0.70236 0.08348 0.0
C1653 C 0.55225 0.70745 0.10908 0.0
C1654 C 0.53578 0.67556 0.06499 0.0
C1655 C 0.56005 0.65331 0.07101 0.0
H1656 H 0.51324 0.71903 0.0778 0.0
H1657 H 0.51955 0.6721 0.04585 0.0
S1658 S 0.61813 0.65444 0.13557 0.0
N1659 N 0.59673 0.68701 0.1399 0.0
N1660 N 0.60362 0.63705 0.10463 0.0
C1661 C 0.58028 0.65792 0.09637 0.0
C1662 C 0.57634 0.68488 0.11555 0.0
C1663 C 0.13764 0.77311 0.83479 0.0
C1664 C 0.13028 0.78566 0.86502 0.0
C1665 C 0.16908 0.77512 0.82019 0.0
C1666 C 0.19459 0.79051 0.83467 0.0
H1667 H 0.11906 0.76114 0.82243 0.0
H1668 H 0.17338 0.76453 0.79721 0.0
S1669 S 0.18823 0.8281 0.91353 0.0
N1670 N 0.15157 0.81426 0.90881 0.0
N1671 N 0.20988 0.81873 0.88119 0.0
C1672 C 0.18741 0.8036 0.86468 0.0
C1673 C 0.1556 0.80099 0.87984 0.0
C1674 C -0.0001 0.38932 0.54406 0.0
C1675 C 0.98995 0.38695 0.57603 0.0
C1676 C 0.00039 0.41807 0.52898 0.0
C1677 C 0.99105 0.44525 0.5455 0.0
H1678 H 0.00971 0.36931 0.53124 0.0
H1679 H 0.0107 0.41921 0.50513 0.0
S1680 S 0.95521 0.45039 0.6269 0.0
N1681 N 0.96455 0.41334 0.62176 0.0
N1682 N 0.96584 0.46741 0.59338 0.0
C1683 C 0.97752 0.4427 0.57624 0.0
C1684 C 0.97685 0.41347 0.59155 0.0
C1685 C 0.40758 0.26863 0.34717 0.0
C1686 C 0.43032 0.29091 0.33669 0.0
C1687 C 0.37752 0.26457 0.33212 0.0
C1688 C 0.36861 0.28251 0.30574 0.0
H1689 H 0.41295 0.25422 0.36723 0.0
H1690 H 0.36087 0.24755 0.34163 0.0
S1691 S 0.41903 0.34399 0.26842 0.0
N1692 N 0.4409 0.33119 0.29762 0.0
N1693 N 0.38581 0.32327 0.26985 0.0
C1694 C 0.39128 0.30457 0.29494 0.0
C1695 C 0.42157 0.30881 0.31018 0.0
C1696 C 0.47046 0.58793 0.34009 0.0
C1697 C 0.48394 0.56333 0.32168 0.0
C1698 C 0.48116 0.59378 0.37021 0.0
C1699 C 0.50528 0.57495 0.38305 0.0
H1700 H 0.45113 0.60263 0.33135 0.0
H1701 H 0.46975 0.61238 0.38406 0.0
S1702 S 0.55077 0.50983 0.34389 0.0
N1703 N 0.52458 0.52162 0.31763 0.0
N1704 N 0.54427 0.53244 0.37505 0.0
C1705 C 0.51987 0.55103 0.36474 0.0
C1706 C 0.50936 0.54532 0.33373 0.0
C1707 C 0.29539 0.724 0.11882 0.0
C1708 C 0.30323 0.69247 0.12323 0.0
C1709 C 0.28943 0.74384 0.14454 0.0
C1710 C 0.29165 0.73303 0.17555 0.0
H1711 H 0.29224 0.7332 0.09538 0.0
H1712 H 0.28265 0.76775 0.1402 0.0
S1713 S 0.31416 0.65332 0.20002 0.0
N1714 N 0.31499 0.65186 0.16109 0.0
N1715 N 0.3039 0.68939 0.20948 0.0
C1716 C 0.30101 0.702 0.18038 0.0
C1717 C 0.30678 0.68165 0.15419 0.0
C1718 C 0.1048 0.54932 0.91761 0.0
C1719 C 0.10011 0.52629 0.89509 0.0
C1720 C 0.09449 0.54492 0.94901 0.0
C1721 C 0.0783 0.51784 0.95811 0.0
H1722 H 0.1149 0.57134 0.91061 0.0
H1723 H 0.09611 0.56405 0.96537 0.0
S1724 S 0.0636 0.44962 0.90831 0.0
N1725 N 0.08202 0.47432 0.88426 0.0
N1726 N 0.0609 0.46673 0.94319 0.0
C1727 C 0.07575 0.49382 0.93625 0.0
C1728 C 0.08705 0.49794 0.90457 0.0
C1729 C 0.2528 0.35215 0.64432 0.0
C1730 C 0.28109 0.3541 0.62443 0.0
C1731 C 0.2532 0.33774 0.67436 0.0
C1732 C 0.28219 0.32553 0.68681 0.0
H1733 H 0.22989 0.36162 0.63646 0.0
H1734 H 0.23058 0.33679 0.68828 0.0
S1735 S 0.36333 0.3251 0.64495 0.0
N1736 N 0.33904 0.34201 0.61972 0.0
N1737 N 0.34015 0.31667 0.67634 0.0
C1738 C 0.31074 0.32765 0.66734 0.0
C1739 C 0.3101 0.34139 0.63626 0.0
C1740 C 0.4469 0.5946 0.15271 0.0
C1741 C 0.41785 0.58126 0.16382 0.0
C1742 C 0.46507 0.58149 0.12749 0.0
C1743 C 0.45504 0.55426 0.11282 0.0
H1744 H 0.45666 0.61421 0.16488 0.0
H1745 H 0.48794 0.59201 0.12053 0.0
S1746 S 0.37854 0.51255 0.13084 0.0
N1747 N 0.37807 0.54119 0.15665 0.0
N1748 N 0.41238 0.5163 0.10902 0.0
C1749 C 0.42486 0.54187 0.12233 0.0
C1750 C 0.40612 0.55552 0.14787 0.0
C1751 C 0.31031 0.73655 0.92845 0.0
C1752 C 0.30032 0.70571 0.93001 0.0
C1753 C 0.31278 0.75206 0.89964 0.0
C1754 C 0.30517 0.73735 0.87131 0.0
H1755 H 0.31589 0.749 0.94968 0.0
H1756 H 0.31973 0.77609 0.89981 0.0
S1757 S 0.27927 0.65608 0.86249 0.0
N1758 N 0.284 0.66046 0.90066 0.0
N1759 N 0.28863 0.68964 0.84647 0.0
C1760 C 0.29627 0.70611 0.87239 0.0
C1761 C 0.29378 0.6903 0.90177 0.0
C1762 C 0.09628 0.51177 0.68312 0.0
C1763 C 0.08521 0.52087 0.7135 0.0
C1764 C 0.08009 0.52165 0.65659 0.0
C1765 C 0.05248 0.54141 0.6594 0.0
H1766 H 0.11757 0.49674 0.67976 0.0
H1767 H 0.08899 0.51311 0.6338 0.0
S1768 S 0.01455 0.57307 0.73364 0.0
N1769 N 0.04506 0.55087 0.74505 0.0
N1770 N 0.01547 0.57068 0.69479 0.0
C1771 C 0.04134 0.55098 0.68963 0.0
C1772 C 0.05746 0.54038 0.71679 0.0
C1773 C 0.27112 0.38394 0.38775 0.0
C1774 C 0.27086 0.36896 0.41752 0.0
C1775 C 0.26901 0.36762 0.35892 0.0
C1776 C 0.26603 0.3352 0.35784 0.0
H1777 H 0.27317 0.40885 0.3865 0.0
H1778 H 0.26979 0.38072 0.33717 0.0
S1779 S 0.26428 0.28405 0.42852 0.0
N1780 N 0.26761 0.3191 0.44349 0.0
N1781 N 0.26332 0.28857 0.38992 0.0
C1782 C 0.26567 0.31977 0.38739 0.0
C1783 C 0.26818 0.33647 0.41686 0.0
C1784 C 0.39486 0.46835 0.54084 0.0
C1785 C 0.37235 0.47954 0.51898 0.0
C1786 C 0.42548 0.48246 0.54451 0.0
C1787 C 0.43524 0.50849 0.5265 0.0
H1788 H 0.38897 0.44831 0.55507 0.0
H1789 H 0.44195 0.47238 0.56116 0.0
S1790 S 0.38531 0.54802 0.46681 0.0
N1791 N 0.36244 0.51943 0.47966 0.0
N1792 N 0.41896 0.54526 0.48662 0.0
C1793 C 0.41275 0.52019 0.50504 0.0
C1794 C 0.38176 0.50597 0.50129 0.0
C1795 C 0.91482 0.10434 0.49619 0.0
C1796 C 0.88714 0.0859 0.49633 0.0
C1797 C 0.94569 0.09119 0.4895 0.0
C1798 C 0.94933 0.05932 0.48289 0.0
H1799 H 0.91293 0.12822 0.50398 0.0
H1800 H 0.96675 0.10521 0.49332 0.0
S1801 S 0.88288 0.00468 0.4694 0.0
N1802 N 0.86411 0.03688 0.48173 0.0
N1803 N 0.92214 0.01224 0.46806 0.0
C1804 C 0.92126 0.04232 0.47754 0.0
C1805 C 0.89002 0.05551 0.48501 0.0
C1806 C 0.67539 0.12337 0.24371 0.0
C1807 C 0.68115 0.10466 0.2701 0.0
C1808 C 0.69583 0.14788 0.23589 0.0
C1809 C 0.72216 0.1547 0.25457 0.0
H1810 H 0.65529 0.11874 0.22872 0.0
H1811 H 0.69064 0.16205 0.2156 0.0
S1812 S 0.74738 0.11314 0.32612 0.0
N1813 N 0.71509 0.09458 0.3148 0.0
N1814 N 0.75312 0.14125 0.3003 0.0
C1815 C 0.7281 0.13636 0.28102 0.0
C1816 C 0.70767 0.11112 0.28873 0.0
C1817 C 0.67387 0.98174 0.03928 0.0
C1818 C 0.67955 0.9519 0.02634 0.0
C1819 C 0.643 0.99686 0.03836 0.0
C1820 C 0.61662 0.98326 0.02358 0.0
H1821 H 0.69337 0.99344 0.05056 0.0
H1822 H 0.63993 0.01965 0.04885 0.0
S1823 S 0.6182 0.90547 0.98621 0.0
N1824 N 0.65546 0.90924 -0.00126 0.0
N1825 N 0.59835 0.93783 -0.00382 0.0
C1826 C 0.62202 0.95353 0.01045 0.0
C1827 C 0.65313 0.93785 0.01205 0.0
C1828 C 0.35418 0.45718 0.26142 0.0
C1829 C 0.37673 0.46616 0.23756 0.0
C1830 C 0.33577 0.43064 0.25813 0.0
C1831 C 0.33884 0.41256 0.23066 0.0
H1832 H 0.35046 0.4709 0.2827 0.0
H1833 H 0.31836 0.42462 0.27683 0.0
S1834 S 0.39542 0.42494 0.16195 0.0
N1835 N 0.40207 0.454 0.18601 0.0
N1836 N 0.36697 0.40418 0.17991 0.0
C1837 C 0.36168 0.42079 0.20689 0.0
C1838 C 0.38083 0.44756 0.21037 0.0
C1839 C 0.17898 0.63529 0.06595 0.0
C1840 C 0.20152 0.61877 0.04616 0.0
C1841 C 0.15146 0.62083 0.07908 0.0
C1842 C 0.14595 0.5896 0.07277 0.0
H1843 H 0.18236 0.65956 0.07099 0.0
H1844 H 0.13359 0.63435 0.0929 0.0
S1845 S 0.19705 0.53618 0.02289 0.0
N1846 N 0.21636 0.56929 0.02134 0.0
N1847 N 0.16446 0.54254 0.04617 0.0
C1848 C 0.16853 0.57272 0.05381 0.0
C1849 C 0.1964 0.58723 0.04042 0.0
C1850 C 0.69106 0.89277 0.30635 0.0
C1851 C 0.70767 0.92088 0.30474 0.0
C1852 C 0.70795 0.86452 0.30399 0.0
C1853 C 0.74203 0.86343 0.30031 0.0
H1854 H 0.66468 0.89248 0.30784 0.0
H1855 H 0.69407 0.84347 0.30386 0.0
S1856 S 0.79719 0.93051 0.29925 0.0
N1857 N 0.76015 0.94599 0.30252 0.0
N1858 N 0.79216 0.89275 0.29837 0.0
C1859 C 0.75913 0.89132 0.30101 0.0
C1860 C 0.74186 0.92012 0.30314 0.0
C1861 C 0.86315 0.17123 0.80921 0.0
C1862 C 0.84536 0.14916 0.79298 0.0
C1863 C 0.85124 0.20155 0.8133 0.0
C1864 C 0.82138 0.21062 0.80101 0.0
H1865 H 0.88736 0.16563 0.81704 0.0
H1866 H 0.86657 0.21844 0.82396 0.0
S1867 S 0.76251 0.16035 0.76262 0.0
N1868 N 0.79415 0.13737 0.76903 0.0
N1869 N 0.77182 0.19449 0.77679 0.0
C1870 C 0.80192 0.18813 0.78764 0.0
C1871 C 0.81389 0.15723 0.78368 0.0
loop_
_geom_bond_atom_site_label_1
_geom_bond_atom_site_label_2
_geom_bond_distance
_geom_bond_site_symmetry_2
_ccdc_geom_bond_type
C0 O1 1.306 . S
C0 O3 1.160 . S
O1 C0 1.306 . S
O1 Cd2 2.228 1_655 S
Cd2 O1 2.228 1_455 S
Cd2 O6 2.273 . S
Cd2 O10 2.277 . S
O3 C0 1.160 . S
O3 Cd4 2.203 1_655 S
Cd4 O3 2.203 1_455 S
Cd4 O6 2.411 . S
Cd4 O7 2.333 . S
Cd4 O8 2.352 . S
Cd4 O12 2.277 . S
Cd4 O13 2.356 . S
C5 O10 1.209 . S
C5 O12 1.226 . S
O6 Cd2 2.273 . S
O6 Cd4 2.411 . S
O6 C9 1.320 . S
O7 Cd4 2.333 . S
O7 C9 1.214 . S
O8 Cd4 2.352 . S
O8 C11 1.258 . S
C9 O6 1.320 . S
C9 O7 1.214 . S
O10 Cd2 2.277 . S
O10 C5 1.209 . S
C11 O8 1.258 . S
C11 O13 1.282 . S
O12 Cd4 2.277 . S
O12 C5 1.226 . S
O13 Cd4 2.356 . S
O13 C11 1.282 . S
C14 O15 1.306 . S
C14 O17 1.160 . S
O15 C14 1.306 . S
O15 Cd16 2.228 . S
Cd16 O15 2.228 . S
Cd16 O20 2.273 . S
Cd16 O24 2.277 . S
O17 C14 1.160 . S
O17 Cd18 2.203 . S
Cd18 O17 2.203 . S
Cd18 O20 2.411 . S
Cd18 O21 2.333 . S
Cd18 O22 2.352 . S
Cd18 O26 2.277 . S
Cd18 O27 2.356 . S
C19 O24 1.209 . S
C19 O26 1.226 . S
O20 Cd16 2.273 . S
O20 Cd18 2.411 . S
O20 C23 1.320 . S
O21 Cd18 2.333 . S
O21 C23 1.214 . S
O22 Cd18 2.352 . S
O22 C25 1.258 . S
C23 O20 1.320 . S
C23 O21 1.214 . S
O24 Cd16 2.277 . S
O24 C19 1.209 . S
C25 O22 1.258 . S
C25 O27 1.282 . S
O26 Cd18 2.277 . S
O26 C19 1.226 . S
O27 Cd18 2.356 . S
O27 C25 1.282 . S
C28 O29 1.306 . S
C28 O31 1.160 . S
O29 C28 1.306 . S
O29 Cd30 2.228 . S
Cd30 O29 2.228 . S
Cd30 O34 2.273 . S
Cd30 O38 2.277 . S
O31 C28 1.160 . S
O31 Cd32 2.203 . S
Cd32 O31 2.203 . S
Cd32 O34 2.411 . S
Cd32 O35 2.333 . S
Cd32 O36 2.352 . S
Cd32 O40 2.277 . S
Cd32 O41 2.356 . S
C33 O38 1.209 . S
C33 O40 1.226 . S
O34 Cd30 2.273 . S
O34 Cd32 2.411 . S
O34 C37 1.320 . S
O35 Cd32 2.333 . S
O35 C37 1.214 . S
O36 Cd32 2.352 . S
O36 C39 1.258 . S
C37 O34 1.320 . S
C37 O35 1.214 . S
O38 Cd30 2.277 . S
O38 C33 1.209 . S
C39 O36 1.258 . S
C39 O41 1.282 . S
O40 Cd32 2.277 . S
O40 C33 1.226 . S
O41 Cd32 2.356 . S
O41 C39 1.282 . S
C42 O43 1.306 . S
C42 O45 1.160 . S
O43 C42 1.306 . S
O43 Cd44 2.228 . S
Cd44 O43 2.228 . S
Cd44 O48 2.273 . S
Cd44 O52 2.277 . S
O45 C42 1.160 . S
O45 Cd46 2.203 . S
Cd46 O45 2.203 . S
Cd46 O48 2.411 . S
Cd46 O49 2.333 . S
Cd46 O50 2.352 . S
Cd46 O54 2.277 . S
Cd46 O55 2.356 . S
C47 O52 1.209 . S
C47 O54 1.226 . S
O48 Cd44 2.273 . S
O48 Cd46 2.411 . S
O48 C51 1.320 . S
O49 Cd46 2.333 . S
O49 C51 1.214 . S
O50 Cd46 2.352 . S
O50 C53 1.258 . S
C51 O48 1.320 . S
C51 O49 1.214 . S
O52 Cd44 2.277 . S
O52 C47 1.209 . S
C53 O50 1.258 . S
C53 O55 1.282 . S
O54 Cd46 2.277 . S
O54 C47 1.226 . S
O55 Cd46 2.356 . S
O55 C53 1.282 . S
C56 O57 1.306 . S
C56 O59 1.160 . S
O57 C56 1.306 . S
O57 Cd58 2.228 . S
Cd58 O57 2.228 . S
Cd58 O62 2.273 . S
Cd58 O66 2.277 . S
O59 C56 1.160 . S
O59 Cd60 2.203 . S
Cd60 O59 2.203 . S
Cd60 O62 2.411 . S
Cd60 O63 2.333 . S
Cd60 O64 2.352 1_545 S
Cd60 O68 2.277 . S
Cd60 O69 2.356 1_545 S
C61 O66 1.209 . S
C61 O68 1.226 . S
O62 Cd58 2.273 . S
O62 Cd60 2.411 . S
O62 C65 1.320 . S
O63 Cd60 2.333 . S
O63 C65 1.214 . S
O64 Cd60 2.352 1_565 S
O64 C67 1.258 . S
C65 O62 1.320 . S
C65 O63 1.214 . S
O66 Cd58 2.277 . S
O66 C61 1.209 . S
C67 O64 1.258 . S
C67 O69 1.282 . S
O68 Cd60 2.277 . S
O68 C61 1.226 . S
O69 Cd60 2.356 1_565 S
O69 C67 1.282 . S
C70 O71 1.306 . S
C70 O73 1.160 . S
O71 C70 1.306 . S
O71 Cd72 2.228 . S
Cd72 O71 2.228 . S
Cd72 O76 2.273 . S
Cd72 O80 2.277 . S
O73 C70 1.160 . S
O73 Cd74 2.203 . S
Cd74 O73 2.203 . S
Cd74 O76 2.411 . S
Cd74 O77 2.333 . S
Cd74 O78 2.352 . S
Cd74 O82 2.277 . S
Cd74 O83 2.356 . S
C75 O80 1.209 . S
C75 O82 1.226 . S
O76 Cd72 2.273 . S
O76 Cd74 2.411 . S
O76 C79 1.320 . S
O77 Cd74 2.333 . S
O77 C79 1.214 . S
O78 Cd74 2.352 . S
O78 C81 1.258 . S
C79 O76 1.320 . S
C79 O77 1.214 . S
O80 Cd72 2.277 . S
O80 C75 1.209 . S
C81 O78 1.258 . S
C81 O83 1.282 . S
O82 Cd74 2.277 . S
O82 C75 1.226 . S
O83 Cd74 2.356 . S
O83 C81 1.282 . S
C84 O85 1.306 . S
C84 O87 1.160 . S
O85 C84 1.306 . S
O85 Cd86 2.228 . S
Cd86 O85 2.228 . S
Cd86 O90 2.273 . S
Cd86 O94 2.277 . S
O87 C84 1.160 . S
O87 Cd88 2.203 . S
Cd88 O87 2.203 . S
Cd88 O90 2.411 . S
Cd88 O91 2.333 . S
Cd88 O92 2.352 . S
Cd88 O96 2.277 . S
Cd88 O97 2.356 . S
C89 O94 1.209 . S
C89 O96 1.226 . S
O90 Cd86 2.273 . S
O90 Cd88 2.411 . S
O90 C93 1.320 . S
O91 Cd88 2.333 . S
O91 C93 1.214 . S
O92 Cd88 2.352 . S
O92 C95 1.258 . S
C93 O90 1.320 . S
C93 O91 1.214 . S
O94 Cd86 2.277 . S
O94 C89 1.209 . S
C95 O92 1.258 . S
C95 O97 1.282 . S
O96 Cd88 2.277 . S
O96 C89 1.226 . S
O97 Cd88 2.356 . S
O97 C95 1.282 . S
C98 O99 1.306 . S
C98 O101 1.160 . S
O99 C98 1.306 . S
O99 Cd100 2.228 . S
Cd100 O99 2.228 . S
Cd100 O104 2.273 . S
Cd100 O108 2.277 . S
O101 C98 1.160 . S
O101 Cd102 2.203 . S
Cd102 O101 2.203 . S
Cd102 O104 2.411 . S
Cd102 O105 2.333 . S
Cd102 O106 2.352 1_554 S
Cd102 O110 2.277 . S
Cd102 O111 2.356 1_554 S
C103 O108 1.209 . S
C103 O110 1.226 . S
O104 Cd100 2.273 . S
O104 Cd102 2.411 . S
O104 C107 1.320 . S
O105 Cd102 2.333 . S
O105 C107 1.214 . S
O106 Cd102 2.352 1_556 S
O106 C109 1.258 . S
C107 O104 1.320 . S
C107 O105 1.214 . S
O108 Cd100 2.277 . S
O108 C103 1.209 . S
C109 O106 1.258 . S
C109 O111 1.282 . S
O110 Cd102 2.277 . S
O110 C103 1.226 . S
O111 Cd102 2.356 1_556 S
O111 C109 1.282 . S
C112 O113 1.306 . S
C112 O115 1.160 . S
O113 C112 1.306 . S
O113 Cd114 2.228 . S
Cd114 O113 2.228 . S
Cd114 O118 2.273 . S
Cd114 O122 2.277 . S
O115 C112 1.160 . S
O115 Cd116 2.203 . S
Cd116 O115 2.203 . S
Cd116 O118 2.411 . S
Cd116 O119 2.333 . S
Cd116 O120 2.352 . S
Cd116 O124 2.277 . S
Cd116 O125 2.356 . S
C117 O122 1.209 . S
C117 O124 1.226 . S
O118 Cd114 2.273 . S
O118 Cd116 2.411 . S
O118 C121 1.320 . S
O119 Cd116 2.333 . S
O119 C121 1.214 . S
O120 Cd116 2.352 . S
O120 C123 1.258 . S
C121 O118 1.320 . S
C121 O119 1.214 . S
O122 Cd114 2.277 . S
O122 C117 1.209 . S
C123 O120 1.258 . S
C123 O125 1.282 . S
O124 Cd116 2.277 . S
O124 C117 1.226 . S
O125 Cd116 2.356 . S
O125 C123 1.282 . S
C126 O127 1.306 . S
C126 O129 1.160 . S
O127 C126 1.306 . S
O127 Cd128 2.228 . S
Cd128 O127 2.228 . S
Cd128 O132 2.273 . S
Cd128 O136 2.277 . S
O129 C126 1.160 . S
O129 Cd130 2.203 . S
Cd130 O129 2.203 . S
Cd130 O132 2.411 . S
Cd130 O133 2.333 . S
Cd130 O134 2.352 . S
Cd130 O138 2.277 . S
Cd130 O139 2.356 . S
C131 O136 1.209 . S
C131 O138 1.226 . S
O132 Cd128 2.273 . S
O132 Cd130 2.411 . S
O132 C135 1.320 . S
O133 Cd130 2.333 . S
O133 C135 1.214 . S
O134 Cd130 2.352 . S
O134 C137 1.258 . S
C135 O132 1.320 . S
C135 O133 1.214 . S
O136 Cd128 2.277 . S
O136 C131 1.209 . S
C137 O134 1.258 . S
C137 O139 1.282 . S
O138 Cd130 2.277 . S
O138 C131 1.226 . S
O139 Cd130 2.356 . S
O139 C137 1.282 . S
C140 O141 1.306 . S
C140 O143 1.160 . S
O141 C140 1.306 . S
O141 Cd142 2.228 . S
Cd142 O141 2.228 . S
Cd142 O146 2.273 . S
Cd142 O150 2.277 . S
O143 C140 1.160 . S
O143 Cd144 2.203 . S
Cd144 O143 2.203 . S
Cd144 O146 2.411 . S
Cd144 O147 2.333 . S
Cd144 O148 2.352 . S
Cd144 O152 2.277 . S
Cd144 O153 2.356 . S
C145 O150 1.209 . S
C145 O152 1.226 . S
O146 Cd142 2.273 . S
O146 Cd144 2.411 . S
O146 C149 1.320 . S
O147 Cd144 2.333 . S
O147 C149 1.214 . S
O148 Cd144 2.352 . S
O148 C151 1.258 . S
C149 O146 1.320 . S
C149 O147 1.214 . S
O150 Cd142 2.277 . S
O150 C145 1.209 . S
C151 O148 1.258 . S
C151 O153 1.282 . S
O152 Cd144 2.277 . S
O152 C145 1.226 . S
O153 Cd144 2.356 . S
O153 C151 1.282 . S
C154 O155 1.306 . S
C154 O157 1.160 . S
O155 C154 1.306 . S
O155 Cd156 2.228 . S
Cd156 O155 2.228 . S
Cd156 O160 2.273 . S
Cd156 O164 2.277 . S
O157 C154 1.160 . S
O157 Cd158 2.203 . S
Cd158 O157 2.203 . S
Cd158 O160 2.411 . S
Cd158 O161 2.333 . S
Cd158 O162 2.352 . S
Cd158 O166 2.277 . S
Cd158 O167 2.356 . S
C159 O164 1.209 . S
C159 O166 1.226 . S
O160 Cd156 2.273 . S
O160 Cd158 2.411 . S
O160 C163 1.320 . S
O161 Cd158 2.333 . S
O161 C163 1.214 . S
O162 Cd158 2.352 . S
O162 C165 1.258 . S
C163 O160 1.320 . S
C163 O161 1.214 . S
O164 Cd156 2.277 . S
O164 C159 1.209 . S
C165 O162 1.258 . S
C165 O167 1.282 . S
O166 Cd158 2.277 . S
O166 C159 1.226 . S
O167 Cd158 2.356 . S
O167 C165 1.282 . S
C168 O169 1.306 . S
C168 O171 1.160 . S
O169 C168 1.306 . S
O169 Cd170 2.228 1_655 S
Cd170 O169 2.228 1_455 S
Cd170 O174 2.273 . S
Cd170 O178 2.277 . S
O171 C168 1.160 . S
O171 Cd172 2.203 1_655 S
Cd172 O171 2.203 1_455 S
Cd172 O174 2.411 . S
Cd172 O175 2.333 . S
Cd172 O176 2.352 . S
Cd172 O180 2.277 . S
Cd172 O181 2.356 . S
C173 O178 1.209 . S
C173 O180 1.226 . S
O174 Cd170 2.273 . S
O174 Cd172 2.411 . S
O174 C177 1.320 . S
O175 Cd172 2.333 . S
O175 C177 1.214 . S
O176 Cd172 2.352 . S
O176 C179 1.258 . S
C177 O174 1.320 . S
C177 O175 1.214 . S
O178 Cd170 2.277 . S
O178 C173 1.209 . S
C179 O176 1.258 . S
C179 O181 1.282 . S
O180 Cd172 2.277 . S
O180 C173 1.226 . S
O181 Cd172 2.356 . S
O181 C179 1.282 . S
C182 O183 1.306 . S
C182 O185 1.160 . S
O183 C182 1.306 . S
O183 Cd184 2.228 1_655 S
Cd184 O183 2.228 1_455 S
Cd184 O188 2.273 . S
Cd184 O192 2.277 . S
O185 C182 1.160 . S
O185 Cd186 2.203 1_655 S
Cd186 O185 2.203 1_455 S
Cd186 O188 2.411 . S
Cd186 O189 2.333 . S
Cd186 O190 2.352 1_455 S
Cd186 O194 2.278 . S
Cd186 O195 2.356 . S
C187 O192 1.209 . S
C187 O194 1.227 . S
O188 Cd184 2.273 . S
O188 Cd186 2.411 . S
O188 C191 1.320 . S
O189 Cd186 2.333 . S
O189 C191 1.214 . S
O190 Cd186 2.352 1_655 S
O190 C193 1.258 1_655 S
C191 O188 1.320 . S
C191 O189 1.214 . S
O192 Cd184 2.277 . S
O192 C187 1.209 . S
C193 O190 1.258 1_455 S
C193 O195 1.282 . S
O194 Cd186 2.278 . S
O194 C187 1.227 . S
O195 Cd186 2.356 . S
O195 C193 1.282 . S
C196 O197 1.306 . S
C196 O199 1.160 . S
O197 C196 1.306 . S
O197 Cd198 2.228 . S
Cd198 O197 2.228 . S
Cd198 O202 2.273 . S
Cd198 O206 2.277 . S
O199 C196 1.160 . S
O199 Cd200 2.203 . S
Cd200 O199 2.203 . S
Cd200 O202 2.411 . S
Cd200 O203 2.333 . S
Cd200 O204 2.352 . S
Cd200 O208 2.277 . S
Cd200 O209 2.356 . S
C201 O206 1.209 . S
C201 O208 1.226 . S
O202 Cd198 2.273 . S
O202 Cd200 2.411 . S
O202 C205 1.320 . S
O203 Cd200 2.333 . S
O203 C205 1.214 . S
O204 Cd200 2.352 . S
O204 C207 1.258 . S
C205 O202 1.320 . S
C205 O203 1.214 . S
O206 Cd198 2.277 . S
O206 C201 1.209 . S
C207 O204 1.258 . S
C207 O209 1.282 . S
O208 Cd200 2.277 . S
O208 C201 1.226 . S
O209 Cd200 2.356 . S
O209 C207 1.282 . S
C210 O211 1.306 . S
C210 O213 1.160 . S
O211 C210 1.306 . S
O211 Cd212 2.228 . S
Cd212 O211 2.228 . S
Cd212 O216 2.273 . S
Cd212 O220 2.277 . S
O213 C210 1.160 . S
O213 Cd214 2.203 . S
Cd214 O213 2.203 . S
Cd214 O216 2.411 . S
Cd214 O217 2.333 . S
Cd214 O218 2.352 . S
Cd214 O222 2.277 . S
Cd214 O223 2.356 . S
C215 O220 1.209 . S
C215 O222 1.226 . S
O216 Cd212 2.273 . S
O216 Cd214 2.411 . S
O216 C219 1.320 . S
O217 Cd214 2.333 . S
O217 C219 1.214 . S
O218 Cd214 2.352 . S
O218 C221 1.258 . S
C219 O216 1.320 . S
C219 O217 1.214 . S
O220 Cd212 2.277 . S
O220 C215 1.209 . S
C221 O218 1.258 . S
C221 O223 1.282 . S
O222 Cd214 2.277 . S
O222 C215 1.226 . S
O223 Cd214 2.356 . S
O223 C221 1.282 . S
C224 O225 1.306 . S
C224 O227 1.160 . S
O225 C224 1.306 . S
O225 Cd226 2.228 . S
Cd226 O225 2.228 . S
Cd226 O230 2.273 . S
Cd226 O234 2.277 . S
O227 C224 1.160 . S
O227 Cd228 2.203 . S
Cd228 O227 2.203 . S
Cd228 O230 2.411 . S
Cd228 O231 2.333 . S
Cd228 O232 2.352 . S
Cd228 O236 2.277 . S
Cd228 O237 2.356 . S
C229 O234 1.209 . S
C229 O236 1.226 . S
O230 Cd226 2.273 . S
O230 Cd228 2.411 . S
O230 C233 1.320 . S
O231 Cd228 2.333 . S
O231 C233 1.214 . S
O232 Cd228 2.352 . S
O232 C235 1.258 . S
C233 O230 1.320 . S
C233 O231 1.214 . S
O234 Cd226 2.277 . S
O234 C229 1.209 . S
C235 O232 1.258 . S
C235 O237 1.282 . S
O236 Cd228 2.277 . S
O236 C229 1.226 . S
O237 Cd228 2.356 . S
O237 C235 1.282 . S
C238 O239 1.306 . S
C238 O241 1.160 . S
O239 C238 1.306 . S
O239 Cd240 2.228 . S
Cd240 O239 2.228 . S
Cd240 O244 2.273 . S
Cd240 O248 2.277 . S
O241 C238 1.160 . S
O241 Cd242 2.203 . S
Cd242 O241 2.203 . S
Cd242 O244 2.411 . S
Cd242 O245 2.333 . S
Cd242 O246 2.352 . S
Cd242 O250 2.277 . S
Cd242 O251 2.356 . S
C243 O248 1.209 . S
C243 O250 1.226 . S
O244 Cd240 2.273 . S
O244 Cd242 2.411 . S
O244 C247 1.320 . S
O245 Cd242 2.333 . S
O245 C247 1.214 . S
O246 Cd242 2.352 . S
O246 C249 1.258 . S
C247 O244 1.320 . S
C247 O245 1.214 . S
O248 Cd240 2.277 . S
O248 C243 1.209 . S
C249 O246 1.258 . S
C249 O251 1.282 . S
O250 Cd242 2.277 . S
O250 C243 1.226 . S
O251 Cd242 2.356 . S
O251 C249 1.282 . S
C252 O253 1.306 . S
C252 O255 1.160 . S
O253 C252 1.306 . S
O253 Cd254 2.228 . S
Cd254 O253 2.228 . S
Cd254 O258 2.273 . S
Cd254 O262 2.277 . S
O255 C252 1.160 . S
O255 Cd256 2.203 . S
Cd256 O255 2.203 . S
Cd256 O258 2.411 . S
Cd256 O259 2.333 . S
Cd256 O260 2.352 1_545 S
Cd256 O264 2.277 . S
Cd256 O265 2.356 1_545 S
C257 O262 1.209 . S
C257 O264 1.226 . S
O258 Cd254 2.273 . S
O258 Cd256 2.411 . S
O258 C261 1.320 . S
O259 Cd256 2.333 . S
O259 C261 1.214 . S
O260 Cd256 2.352 1_565 S
O260 C263 1.258 . S
C261 O258 1.320 . S
C261 O259 1.214 . S
O262 Cd254 2.277 . S
O262 C257 1.209 . S
C263 O260 1.258 . S
C263 O265 1.282 . S
O264 Cd256 2.277 . S
O264 C257 1.226 . S
O265 Cd256 2.356 1_565 S
O265 C263 1.282 . S
C266 O267 1.306 . S
C266 O269 1.160 . S
O267 C266 1.306 . S
O267 Cd268 2.228 1_554 S
Cd268 O267 2.228 1_556 S
Cd268 O272 2.273 1_556 S
Cd268 O276 2.277 . S
O269 C266 1.160 . S
O269 Cd270 2.203 . S
Cd270 O269 2.203 . S
Cd270 O272 2.411 . S
Cd270 O273 2.333 . S
Cd270 O274 2.352 . S
Cd270 O278 2.277 1_554 S
Cd270 O279 2.356 . S
C271 O276 1.209 . S
C271 O278 1.226 . S
O272 Cd268 2.273 1_554 S
O272 Cd270 2.411 . S
O272 C275 1.320 . S
O273 Cd270 2.333 . S
O273 C275 1.214 . S
O274 Cd270 2.352 . S
O274 C277 1.258 . S
C275 O272 1.320 . S
C275 O273 1.214 . S
O276 Cd268 2.277 . S
O276 C271 1.209 . S
C277 O274 1.258 . S
C277 O279 1.282 . S
O278 Cd270 2.277 1_556 S
O278 C271 1.226 . S
O279 Cd270 2.356 . S
O279 C277 1.282 . S
C280 O281 1.306 . S
C280 O283 1.160 1_554 S
O281 C280 1.306 . S
O281 Cd282 2.228 . S
Cd282 O281 2.228 . S
Cd282 O286 2.273 . S
Cd282 O290 2.277 . S
O283 C280 1.160 1_556 S
O283 Cd284 2.203 . S
Cd284 O283 2.203 . S
Cd284 O286 2.411 1_556 S
Cd284 O287 2.333 . S
Cd284 O288 2.352 . S
Cd284 O292 2.277 1_556 S
Cd284 O293 2.356 . S
C285 O290 1.209 . S
C285 O292 1.226 . S
O286 Cd282 2.273 . S
O286 Cd284 2.411 1_554 S
O286 C289 1.320 . S
O287 Cd284 2.333 . S
O287 C289 1.214 1_556 S
O288 Cd284 2.352 . S
O288 C291 1.258 . S
C289 O286 1.320 . S
C289 O287 1.214 1_554 S
O290 Cd282 2.277 . S
O290 C285 1.209 . S
C291 O288 1.258 . S
C291 O293 1.282 . S
O292 Cd284 2.277 1_554 S
O292 C285 1.226 . S
O293 Cd284 2.356 . S
O293 C291 1.282 . S
C294 O295 1.306 . S
C294 O297 1.160 . S
O295 C294 1.306 . S
O295 Cd296 2.228 . S
Cd296 O295 2.228 . S
Cd296 O300 2.273 . S
Cd296 O304 2.277 . S
O297 C294 1.160 . S
O297 Cd298 2.203 . S
Cd298 O297 2.203 . S
Cd298 O300 2.411 . S
Cd298 O301 2.333 . S
Cd298 O302 2.352 . S
Cd298 O306 2.277 . S
Cd298 O307 2.356 . S
C299 O304 1.209 . S
C299 O306 1.226 . S
O300 Cd296 2.273 . S
O300 Cd298 2.411 . S
O300 C303 1.320 . S
O301 Cd298 2.333 . S
O301 C303 1.214 . S
O302 Cd298 2.352 . S
O302 C305 1.258 . S
C303 O300 1.320 . S
C303 O301 1.214 . S
O304 Cd296 2.277 . S
O304 C299 1.209 . S
C305 O302 1.258 . S
C305 O307 1.282 . S
O306 Cd298 2.277 . S
O306 C299 1.226 . S
O307 Cd298 2.356 . S
O307 C305 1.282 . S
C308 O309 1.306 . S
C308 O311 1.160 . S
O309 C308 1.306 . S
O309 Cd310 2.228 . S
Cd310 O309 2.228 . S
Cd310 O314 2.273 . S
Cd310 O318 2.277 . S
O311 C308 1.160 . S
O311 Cd312 2.203 . S
Cd312 O311 2.203 . S
Cd312 O314 2.411 . S
Cd312 O315 2.333 . S
Cd312 O316 2.352 . S
Cd312 O320 2.277 . S
Cd312 O321 2.356 . S
C313 O318 1.209 . S
C313 O320 1.226 . S
O314 Cd310 2.273 . S
O314 Cd312 2.411 . S
O314 C317 1.320 . S
O315 Cd312 2.333 . S
O315 C317 1.214 . S
O316 Cd312 2.352 . S
O316 C319 1.258 . S
C317 O314 1.320 . S
C317 O315 1.214 . S
O318 Cd310 2.277 . S
O318 C313 1.209 . S
C319 O316 1.258 . S
C319 O321 1.282 . S
O320 Cd312 2.277 . S
O320 C313 1.226 . S
O321 Cd312 2.356 . S
O321 C319 1.282 . S
C322 O323 1.306 . S
C322 O325 1.160 . S
O323 C322 1.306 . S
O323 Cd324 2.228 . S
Cd324 O323 2.228 . S
Cd324 O328 2.273 . S
Cd324 O332 2.277 . S
O325 C322 1.160 . S
O325 Cd326 2.203 . S
Cd326 O325 2.203 . S
Cd326 O328 2.411 . S
Cd326 O329 2.333 . S
Cd326 O330 2.352 . S
Cd326 O334 2.277 . S
Cd326 O335 2.356 . S
C327 O332 1.209 . S
C327 O334 1.226 . S
O328 Cd324 2.273 . S
O328 Cd326 2.411 . S
O328 C331 1.320 . S
O329 Cd326 2.333 . S
O329 C331 1.214 . S
O330 Cd326 2.352 . S
O330 C333 1.258 . S
C331 O328 1.320 . S
C331 O329 1.214 . S
O332 Cd324 2.277 . S
O332 C327 1.209 . S
C333 O330 1.258 . S
C333 O335 1.282 . S
O334 Cd326 2.277 . S
O334 C327 1.226 . S
O335 Cd326 2.356 . S
O335 C333 1.282 . S
Co336 N341 2.057 1_554 S
Co336 O353 2.021 1_554 S
Co336 O356 2.062 1_455 S
Co336 O360 2.117 . S
Co336 O361 2.020 . S
C337 O357 1.259 . S
C337 O360 1.258 . S
Co338 N347 2.057 . S
Co338 O354 2.117 1_545 S
Co338 O355 2.020 1_455 S
Co338 O357 2.021 . S
Co338 O362 2.062 . S
C339 N341 1.316 . S
C339 N342 1.347 1_455 S
C339 H344 0.931 . S
C340 N341 1.376 . S
C340 C343 1.349 1_455 S
C340 H345 0.930 . S
N341 Co336 2.057 1_556 S
N341 C339 1.316 . S
N341 C340 1.376 . S
N342 C339 1.347 1_655 S
N342 C343 1.373 . S
C343 C340 1.349 1_655 S
C343 N342 1.373 . S
C343 H364 0.931 . S
H344 C339 0.931 . S
H345 C340 0.930 . S
C346 O353 1.259 1_564 S
C346 O354 1.258 . S
N347 Co338 2.057 . S
N347 C348 1.316 . S
N347 C349 1.375 1_545 S
C348 N347 1.316 . S
C348 N350 1.344 . S
C348 H359 0.931 . S
C349 N347 1.375 1_565 S
C349 C351 1.350 . S
C349 H358 0.930 . S
N350 C348 1.344 . S
N350 C351 1.376 1_545 S
C351 C349 1.350 . S
C351 N350 1.376 1_565 S
C351 H365 0.931 . S
C352 O355 1.256 . S
C352 O356 1.255 . S
O353 Co336 2.021 1_556 S
O353 C346 1.259 1_546 S
O354 Co338 2.117 1_565 S
O354 C346 1.258 . S
O355 Co338 2.020 1_655 S
O355 C352 1.256 . S
O356 Co336 2.062 1_655 S
O356 C352 1.255 . S
O357 C337 1.259 . S
O357 Co338 2.021 . S
H358 C349 0.930 . S
H359 C348 0.931 . S
O360 Co336 2.117 . S
O360 C337 1.258 . S
O361 Co336 2.020 . S
O361 C363 1.256 . S
O362 Co338 2.062 . S
O362 C363 1.255 . S
C363 O361 1.256 . S
C363 O362 1.255 . S
H364 C343 0.931 . S
H365 C351 0.931 . S
Co366 N371 2.057 . S
Co366 O383 2.021 . S
Co366 O386 2.062 . S
Co366 O390 2.117 . S
Co366 O391 2.020 . S
C367 O387 1.259 . S
C367 O390 1.258 . S
Co368 N377 2.057 . S
Co368 O384 2.117 . S
Co368 O385 2.020 . S
Co368 O387 2.021 . S
Co368 O392 2.062 . S
C369 N371 1.316 . S
C369 N372 1.347 . S
C369 H374 0.931 . S
C370 N371 1.375 . S
C370 C373 1.350 . S
C370 H375 0.930 . S
N371 Co366 2.057 . S
N371 C369 1.316 . S
N371 C370 1.375 . S
N372 C369 1.347 . S
N372 C373 1.373 . S
C373 C370 1.350 . S
C373 N372 1.373 . S
C373 H394 0.931 . S
H374 C369 0.931 . S
H375 C370 0.930 . S
C376 O383 1.259 . S
C376 O384 1.258 . S
N377 Co368 2.057 . S
N377 C378 1.316 . S
N377 C379 1.375 . S
C378 N377 1.316 . S
C378 N380 1.347 . S
C378 H389 0.931 . S
C379 N377 1.375 . S
C379 C381 1.350 . S
C379 H388 0.930 . S
N380 C378 1.347 . S
N380 C381 1.373 . S
C381 C379 1.350 . S
C381 N380 1.373 . S
C381 H395 0.931 . S
C382 O385 1.256 . S
C382 O386 1.255 . S
O383 Co366 2.021 . S
O383 C376 1.259 . S
O384 Co368 2.117 . S
O384 C376 1.258 . S
O385 Co368 2.020 . S
O385 C382 1.256 . S
O386 Co366 2.062 . S
O386 C382 1.255 . S
O387 C367 1.259 . S
O387 Co368 2.021 . S
H388 C379 0.930 . S
H389 C378 0.931 . S
O390 Co366 2.117 . S
O390 C367 1.258 . S
O391 Co366 2.020 . S
O391 C393 1.256 . S
O392 Co368 2.062 . S
O392 C393 1.255 . S
C393 O391 1.256 . S
C393 O392 1.255 . S
H394 C373 0.931 . S
H395 C381 0.931 . S
Co396 N401 2.057 . S
Co396 O413 2.021 1_545 S
Co396 O416 2.062 . S
Co396 O420 2.117 . S
Co396 O421 2.020 . S
C397 O417 1.259 . S
C397 O420 1.258 . S
Co398 N407 2.057 . S
Co398 O414 2.117 . S
Co398 O415 2.020 . S
Co398 O417 2.021 . S
Co398 O422 2.062 . S
C399 N401 1.316 1_565 S
C399 N402 1.347 1_565 S
C399 H404 0.931 . S
C400 N401 1.375 . S
C400 C403 1.350 . S
C400 H405 0.930 . S
N401 Co396 2.057 . S
N401 C399 1.316 1_545 S
N401 C400 1.375 . S
N402 C399 1.347 1_545 S
N402 C403 1.373 . S
C403 C400 1.350 . S
C403 N402 1.373 . S
C403 H424 0.931 . S
H404 C399 0.931 . S
H405 C400 0.930 . S
C406 O413 1.259 . S
C406 O414 1.258 1_565 S
N407 Co398 2.057 . S
N407 C408 1.316 . S
N407 C409 1.375 . S
C408 N407 1.316 . S
C408 N410 1.347 . S
C408 H419 0.931 . S
C409 N407 1.375 . S
C409 C411 1.350 . S
C409 H418 0.930 . S
N410 C408 1.347 . S
N410 C411 1.373 . S
C411 C409 1.350 . S
C411 N410 1.373 . S
C411 H425 0.931 . S
C412 O415 1.256 . S
C412 O416 1.255 . S
O413 Co396 2.021 1_565 S
O413 C406 1.259 . S
O414 Co398 2.117 . S
O414 C406 1.258 1_545 S
O415 Co398 2.020 . S
O415 C412 1.256 . S
O416 Co396 2.062 . S
O416 C412 1.255 . S
O417 C397 1.259 . S
O417 Co398 2.021 . S
H418 C409 0.930 . S
H419 C408 0.931 . S
O420 Co396 2.117 . S
O420 C397 1.258 . S
O421 Co396 2.020 . S
O421 C423 1.256 . S
O422 Co398 2.062 . S
O422 C423 1.255 . S
C423 O421 1.256 . S
C423 O422 1.255 . S
H424 C403 0.931 . S
H425 C411 0.931 . S
Co426 N431 2.057 . S
Co426 O443 2.021 . S
Co426 O446 2.062 . S
Co426 O450 2.117 . S
Co426 O451 2.020 . S
C427 O447 1.259 . S
C427 O450 1.258 . S
Co428 N437 2.057 . S
Co428 O444 2.117 . S
Co428 O445 2.020 . S
Co428 O447 2.021 . S
Co428 O452 2.062 . S
C429 N431 1.316 . S
C429 N432 1.347 . S
C429 H434 0.931 . S
C430 N431 1.375 . S
C430 C433 1.350 . S
C430 H435 0.930 . S
N431 Co426 2.057 . S
N431 C429 1.316 . S
N431 C430 1.375 . S
N432 C429 1.347 . S
N432 C433 1.373 . S
C433 C430 1.350 . S
C433 N432 1.373 . S
C433 H454 0.931 . S
H434 C429 0.931 . S
H435 C430 0.930 . S
C436 O443 1.259 . S
C436 O444 1.258 . S
N437 Co428 2.057 . S
N437 C438 1.316 . S
N437 C439 1.375 . S
C438 N437 1.316 . S
C438 N440 1.347 . S
C438 H449 0.931 . S
C439 N437 1.375 . S
C439 C441 1.350 . S
C439 H448 0.930 . S
N440 C438 1.347 . S
N440 C441 1.373 . S
C441 C439 1.350 . S
C441 N440 1.373 . S
C441 H455 0.931 . S
C442 O445 1.256 . S
C442 O446 1.255 . S
O443 Co426 2.021 . S
O443 C436 1.259 . S
O444 Co428 2.117 . S
O444 C436 1.258 . S
O445 Co428 2.020 . S
O445 C442 1.256 . S
O446 Co426 2.062 . S
O446 C442 1.255 . S
O447 C427 1.259 . S
O447 Co428 2.021 . S
H448 C439 0.930 . S
H449 C438 0.931 . S
O450 Co426 2.117 . S
O450 C427 1.258 . S
O451 Co426 2.020 . S
O451 C453 1.256 . S
O452 Co428 2.062 . S
O452 C453 1.255 . S
C453 O451 1.256 . S
C453 O452 1.255 . S
H454 C433 0.931 . S
H455 C441 0.931 . S
Co456 N461 2.057 1_545 S
Co456 O473 2.021 . S
Co456 O476 2.062 1_545 S
Co456 O480 2.117 . S
Co456 O481 2.020 1_455 S
C457 O477 1.259 . S
C457 O480 1.258 . S
Co458 N467 2.057 . S
Co458 O474 2.117 . S
Co458 O475 2.020 . S
Co458 O477 2.021 . S
Co458 O482 2.062 1_455 S
C459 N461 1.316 . S
C459 N462 1.347 . S
C459 H464 0.931 . S
C460 N461 1.375 1_655 S
C460 C463 1.350 . S
C460 H465 0.930 . S
N461 Co456 2.057 1_565 S
N461 C459 1.316 . S
N461 C460 1.375 1_455 S
N462 C459 1.347 . S
N462 C463 1.373 1_455 S
C463 C460 1.350 . S
C463 N462 1.373 1_655 S
C463 H484 0.931 . S
H464 C459 0.931 . S
H465 C460 0.930 . S
C466 O473 1.259 . S
C466 O474 1.258 . S
N467 Co458 2.057 . S
N467 C468 1.316 . S
N467 C469 1.375 . S
C468 N467 1.316 . S
C468 N470 1.347 . S
C468 H479 0.931 . S
C469 N467 1.375 . S
C469 C471 1.350 . S
C469 H478 0.930 . S
N470 C468 1.347 . S
N470 C471 1.373 . S
C471 C469 1.350 . S
C471 N470 1.373 . S
C471 H485 0.931 . S
C472 O475 1.256 . S
C472 O476 1.255 1_545 S
O473 Co456 2.021 . S
O473 C466 1.259 . S
O474 Co458 2.117 . S
O474 C466 1.258 . S
O475 Co458 2.020 . S
O475 C472 1.256 . S
O476 Co456 2.062 1_565 S
O476 C472 1.255 1_565 S
O477 C457 1.259 . S
O477 Co458 2.021 . S
H478 C469 0.930 . S
H479 C468 0.931 . S
O480 Co456 2.117 . S
O480 C457 1.258 . S
O481 Co456 2.020 1_655 S
O481 C483 1.256 . S
O482 Co458 2.062 1_655 S
O482 C483 1.255 . S
C483 O481 1.256 . S
C483 O482 1.255 . S
H484 C463 0.931 . S
H485 C471 0.931 . S
Co486 N491 2.057 . S
Co486 O503 2.021 . S
Co486 O506 2.062 . S
Co486 O510 2.117 . S
Co486 O511 2.020 . S
C487 O507 1.259 . S
C487 O510 1.258 . S
Co488 N497 2.057 . S
Co488 O504 2.117 . S
Co488 O505 2.020 . S
Co488 O507 2.021 . S
Co488 O512 2.062 . S
C489 N491 1.316 . S
C489 N492 1.347 . S
C489 H494 0.931 . S
C490 N491 1.375 . S
C490 C493 1.350 . S
C490 H495 0.930 . S
N491 Co486 2.057 . S
N491 C489 1.316 . S
N491 C490 1.375 . S
N492 C489 1.347 . S
N492 C493 1.373 . S
C493 C490 1.350 . S
C493 N492 1.373 . S
C493 H514 0.931 . S
H494 C489 0.931 . S
H495 C490 0.930 . S
C496 O503 1.259 . S
C496 O504 1.258 . S
N497 Co488 2.057 . S
N497 C498 1.316 . S
N497 C499 1.375 . S
C498 N497 1.316 . S
C498 N500 1.347 . S
C498 H509 0.931 . S
C499 N497 1.375 . S
C499 C501 1.350 . S
C499 H508 0.930 . S
N500 C498 1.347 . S
N500 C501 1.373 . S
C501 C499 1.350 . S
C501 N500 1.373 . S
C501 H515 0.931 . S
C502 O505 1.256 . S
C502 O506 1.255 . S
O503 Co486 2.021 . S
O503 C496 1.259 . S
O504 Co488 2.117 . S
O504 C496 1.258 . S
O505 Co488 2.020 . S
O505 C502 1.256 . S
O506 Co486 2.062 . S
O506 C502 1.255 . S
O507 C487 1.259 . S
O507 Co488 2.021 . S
H508 C499 0.930 . S
H509 C498 0.931 . S
O510 Co486 2.117 . S
O510 C487 1.258 . S
O511 Co486 2.020 . S
O511 C513 1.256 . S
O512 Co488 2.062 . S
O512 C513 1.255 . S
C513 O511 1.256 . S
C513 O512 1.255 . S
H514 C493 0.931 . S
H515 C501 0.931 . S
Co516 N521 2.057 1_554 S
Co516 O533 2.021 . S
Co516 O536 2.062 1_554 S
Co516 O540 2.117 . S
Co516 O541 2.020 1_545 S
C517 O537 1.259 . S
C517 O540 1.258 . S
Co518 N527 2.057 . S
Co518 O534 2.117 . S
Co518 O535 2.020 . S
Co518 O537 2.021 . S
Co518 O542 2.062 . S
C519 N521 1.316 . S
C519 N522 1.347 . S
C519 H524 0.931 . S
C520 N521 1.375 . S
C520 C523 1.352 . S
C520 H525 0.930 1_545 S
N521 Co516 2.057 1_556 S
N521 C519 1.316 . S
N521 C520 1.375 . S
N522 C519 1.347 . S
N522 C523 1.390 . S
C523 C520 1.352 . S
C523 N522 1.390 . S
C523 H544 0.917 1_545 S
H524 C519 0.931 . S
H525 C520 0.930 1_565 S
C526 O533 1.259 . S
C526 O534 1.258 . S
N527 Co518 2.057 . S
N527 C528 1.316 . S
N527 C529 1.375 . S
C528 N527 1.316 . S
C528 N530 1.347 . S
C528 H539 0.931 . S
C529 N527 1.375 . S
C529 C531 1.350 . S
C529 H538 0.930 . S
N530 C528 1.347 . S
N530 C531 1.373 . S
C531 C529 1.350 . S
C531 N530 1.373 . S
C531 H545 0.931 . S
C532 O535 1.256 . S
C532 O536 1.255 1_554 S
O533 Co516 2.021 . S
O533 C526 1.259 . S
O534 Co518 2.117 . S
O534 C526 1.258 . S
O535 Co518 2.020 . S
O535 C532 1.256 . S
O536 Co516 2.062 1_556 S
O536 C532 1.255 1_556 S
O537 C517 1.259 . S
O537 Co518 2.021 . S
H538 C529 0.930 . S
H539 C528 0.931 . S
O540 Co516 2.117 . S
O540 C517 1.258 . S
O541 Co516 2.020 1_565 S
O541 C543 1.256 . S
O542 Co518 2.062 . S
O542 C543 1.255 1_545 S
C543 O541 1.256 . S
C543 O542 1.255 1_565 S
H544 C523 0.917 1_565 S
H545 C531 0.931 . S
Co546 N551 2.057 . S
Co546 O563 2.021 . S
Co546 O566 2.062 . S
Co546 O570 2.117 . S
Co546 O571 2.020 . S
C547 O567 1.259 . S
C547 O570 1.258 . S
Co548 N557 2.057 . S
Co548 O564 2.117 . S
Co548 O565 2.020 . S
Co548 O567 2.021 . S
Co548 O572 2.062 . S
C549 N551 1.316 . S
C549 N552 1.347 . S
C549 H554 0.931 . S
C550 N551 1.375 . S
C550 C553 1.350 . S
C550 H555 0.930 . S
N551 Co546 2.057 . S
N551 C549 1.316 . S
N551 C550 1.375 . S
N552 C549 1.347 . S
N552 C553 1.373 . S
C553 C550 1.350 . S
C553 N552 1.373 . S
C553 H574 0.931 . S
H554 C549 0.931 . S
H555 C550 0.930 . S
C556 O563 1.259 . S
C556 O564 1.258 . S
N557 Co548 2.057 . S
N557 C558 1.316 . S
N557 C559 1.375 . S
C558 N557 1.316 . S
C558 N560 1.347 . S
C558 H569 0.931 . S
C559 N557 1.375 . S
C559 C561 1.350 . S
C559 H568 0.930 . S
N560 C558 1.347 . S
N560 C561 1.373 . S
C561 C559 1.350 . S
C561 N560 1.373 . S
C561 H575 0.931 . S
C562 O565 1.256 . S
C562 O566 1.255 . S
O563 Co546 2.021 . S
O563 C556 1.259 . S
O564 Co548 2.117 . S
O564 C556 1.258 . S
O565 Co548 2.020 . S
O565 C562 1.256 . S
O566 Co546 2.062 . S
O566 C562 1.255 . S
O567 C547 1.259 . S
O567 Co548 2.021 . S
H568 C559 0.930 . S
H569 C558 0.931 . S
O570 Co546 2.117 . S
O570 C547 1.258 . S
O571 Co546 2.020 . S
O571 C573 1.256 . S
O572 Co548 2.062 . S
O572 C573 1.255 . S
C573 O571 1.256 . S
C573 O572 1.255 . S
H574 C553 0.931 . S
H575 C561 0.931 . S
Co576 N581 2.057 . S
Co576 O593 2.021 1_554 S
Co576 O596 2.062 . S
Co576 O600 2.117 . S
Co576 O601 2.020 . S
C577 O597 1.259 . S
C577 O600 1.258 . S
Co578 N587 2.057 . S
Co578 O594 2.117 . S
Co578 O595 2.020 . S
Co578 O597 2.021 . S
Co578 O602 2.062 . S
C579 N581 1.316 1_556 S
C579 N582 1.347 1_556 S
C579 H584 0.931 . S
C580 N581 1.375 . S
C580 C583 1.350 . S
C580 H585 0.930 . S
N581 Co576 2.057 . S
N581 C579 1.316 1_554 S
N581 C580 1.375 . S
N582 C579 1.347 1_554 S
N582 C583 1.373 . S
C583 C580 1.350 . S
C583 N582 1.373 . S
C583 H604 0.931 . S
H584 C579 0.931 . S
H585 C580 0.930 . S
C586 O593 1.259 . S
C586 O594 1.258 1_556 S
N587 Co578 2.057 . S
N587 C588 1.316 . S
N587 C589 1.375 . S
C588 N587 1.316 . S
C588 N590 1.347 . S
C588 H599 0.931 . S
C589 N587 1.375 . S
C589 C591 1.350 . S
C589 H598 0.930 . S
N590 C588 1.347 . S
N590 C591 1.373 . S
C591 C589 1.350 . S
C591 N590 1.373 . S
C591 H605 0.931 . S
C592 O595 1.256 . S
C592 O596 1.255 . S
O593 Co576 2.021 1_556 S
O593 C586 1.259 . S
O594 Co578 2.117 . S
O594 C586 1.258 1_554 S
O595 Co578 2.020 . S
O595 C592 1.256 . S
O596 Co576 2.062 . S
O596 C592 1.255 . S
O597 C577 1.259 . S
O597 Co578 2.021 . S
H598 C589 0.930 . S
H599 C588 0.931 . S
O600 Co576 2.117 . S
O600 C577 1.258 . S
O601 Co576 2.020 . S
O601 C603 1.256 . S
O602 Co578 2.062 . S
O602 C603 1.255 . S
C603 O601 1.256 . S
C603 O602 1.255 . S
H604 C583 0.931 . S
H605 C591 0.931 . S
Co606 N611 2.057 . S
Co606 O623 2.021 . S
Co606 O626 2.062 . S
Co606 O630 2.117 . S
Co606 O631 2.020 . S
C607 O627 1.259 . S
C607 O630 1.258 . S
Co608 N617 2.057 . S
Co608 O624 2.117 . S
Co608 O625 2.020 . S
Co608 O627 2.021 . S
Co608 O632 2.062 . S
C609 N611 1.316 . S
C609 N612 1.347 . S
C609 H614 0.931 . S
C610 N611 1.375 . S
C610 C613 1.350 . S
C610 H615 0.930 . S
N611 Co606 2.057 . S
N611 C609 1.316 . S
N611 C610 1.375 . S
N612 C609 1.347 . S
N612 C613 1.373 . S
C613 C610 1.350 . S
C613 N612 1.373 . S
C613 H634 0.931 . S
H614 C609 0.931 . S
H615 C610 0.930 . S
C616 O623 1.259 . S
C616 O624 1.258 . S
N617 Co608 2.057 . S
N617 C618 1.316 . S
N617 C619 1.375 . S
C618 N617 1.316 . S
C618 N620 1.347 . S
C618 H629 0.931 . S
C619 N617 1.375 . S
C619 C621 1.350 . S
C619 H628 0.930 . S
N620 C618 1.347 . S
N620 C621 1.373 . S
C621 C619 1.350 . S
C621 N620 1.373 . S
C621 H635 0.931 . S
C622 O625 1.256 . S
C622 O626 1.255 . S
O623 Co606 2.021 . S
O623 C616 1.259 . S
O624 Co608 2.117 . S
O624 C616 1.258 . S
O625 Co608 2.020 . S
O625 C622 1.256 . S
O626 Co606 2.062 . S
O626 C622 1.255 . S
O627 C607 1.259 . S
O627 Co608 2.021 . S
H628 C619 0.930 . S
H629 C618 0.931 . S
O630 Co606 2.117 . S
O630 C607 1.258 . S
O631 Co606 2.020 . S
O631 C633 1.256 . S
O632 Co608 2.062 . S
O632 C633 1.255 . S
C633 O631 1.256 . S
C633 O632 1.255 . S
H634 C613 0.931 . S
H635 C621 0.931 . S
Co636 N641 2.057 . S
Co636 O653 2.021 1_455 S
Co636 O656 2.062 . S
Co636 O660 2.117 . S
Co636 O661 2.020 . S
C637 O657 1.259 . S
C637 O660 1.258 . S
Co638 N647 2.057 . S
Co638 O654 2.116 1_455 S
Co638 O655 2.020 . S
Co638 O657 2.021 . S
Co638 O662 2.062 . S
C639 N641 1.316 1_655 S
C639 N642 1.347 1_655 S
C639 H644 0.931 . S
C640 N641 1.375 . S
C640 C643 1.350 . S
C640 H645 0.930 . S
N641 Co636 2.057 . S
N641 C639 1.316 1_455 S
N641 C640 1.375 . S
N642 C639 1.347 1_455 S
N642 C643 1.373 . S
C643 C640 1.350 . S
C643 N642 1.373 . S
C643 H664 0.931 . S
H644 C639 0.931 . S
H645 C640 0.930 . S
C646 O653 1.259 . S
C646 O654 1.258 . S
N647 Co638 2.057 . S
N647 C648 1.316 . S
N647 C649 1.375 . S
C648 N647 1.316 . S
C648 N650 1.347 . S
C648 H659 0.931 . S
C649 N647 1.375 . S
C649 C651 1.350 . S
C649 H658 0.930 . S
N650 C648 1.347 . S
N650 C651 1.373 . S
C651 C649 1.350 . S
C651 N650 1.373 . S
C651 H665 0.931 . S
C652 O655 1.256 . S
C652 O656 1.255 . S
O653 Co636 2.021 1_655 S
O653 C646 1.259 . S
O654 Co638 2.116 1_655 S
O654 C646 1.258 . S
O655 Co638 2.020 . S
O655 C652 1.256 . S
O656 Co636 2.062 . S
O656 C652 1.255 . S
O657 C637 1.259 . S
O657 Co638 2.021 . S
H658 C649 0.930 . S
H659 C648 0.931 . S
O660 Co636 2.117 . S
O660 C637 1.258 . S
O661 Co636 2.020 . S
O661 C663 1.256 . S
O662 Co638 2.062 . S
O662 C663 1.255 . S
C663 O661 1.256 . S
C663 O662 1.255 . S
H664 C643 0.931 . S
H665 C651 0.931 . S
Co666 N671 2.057 . S
Co666 O683 2.021 . S
Co666 O686 2.062 . S
Co666 O690 2.117 . S
Co666 O691 2.020 . S
C667 O687 1.259 . S
C667 O690 1.258 . S
Co668 N677 2.057 . S
Co668 O684 2.117 . S
Co668 O685 2.020 . S
Co668 O687 2.021 . S
Co668 O692 2.062 . S
C669 N671 1.316 . S
C669 N672 1.347 . S
C669 H674 0.931 . S
C670 N671 1.375 . S
C670 C673 1.350 . S
C670 H675 0.930 . S
N671 Co666 2.057 . S
N671 C669 1.316 . S
N671 C670 1.375 . S
N672 C669 1.347 . S
N672 C673 1.373 . S
C673 C670 1.350 . S
C673 N672 1.373 . S
C673 H694 0.931 . S
H674 C669 0.931 . S
H675 C670 0.930 . S
C676 O683 1.259 . S
C676 O684 1.258 . S
N677 Co668 2.057 . S
N677 C678 1.316 . S
N677 C679 1.375 . S
C678 N677 1.316 . S
C678 N680 1.347 . S
C678 H689 0.931 . S
C679 N677 1.375 . S
C679 C681 1.350 . S
C679 H688 0.930 . S
N680 C678 1.347 . S
N680 C681 1.373 . S
C681 C679 1.350 . S
C681 N680 1.373 . S
C681 H695 0.931 . S
C682 O685 1.256 . S
C682 O686 1.255 . S
O683 Co666 2.021 . S
O683 C676 1.259 . S
O684 Co668 2.117 . S
O684 C676 1.258 . S
O685 Co668 2.020 . S
O685 C682 1.256 . S
O686 Co666 2.062 . S
O686 C682 1.255 . S
O687 C667 1.259 . S
O687 Co668 2.021 . S
H688 C679 0.930 . S
H689 C678 0.931 . S
O690 Co666 2.117 . S
O690 C667 1.258 . S
O691 Co666 2.020 . S
O691 C693 1.256 . S
O692 Co668 2.062 . S
O692 C693 1.255 . S
C693 O691 1.256 . S
C693 O692 1.255 . S
H694 C673 0.931 . S
H695 C681 0.931 . S
Co696 N701 2.057 . S
Co696 O713 2.021 . S
Co696 O716 2.062 . S
Co696 O720 2.117 . S
Co696 O721 2.020 . S
C697 O717 1.259 . S
C697 O720 1.258 . S
Co698 N707 2.057 . S
Co698 O714 2.117 . S
Co698 O715 2.020 . S
Co698 O717 2.021 . S
Co698 O722 2.062 . S
C699 N701 1.316 . S
C699 N702 1.347 . S
C699 H704 0.931 . S
C700 N701 1.375 . S
C700 C703 1.350 . S
C700 H705 0.930 . S
N701 Co696 2.057 . S
N701 C699 1.316 . S
N701 C700 1.375 . S
N702 C699 1.347 . S
N702 C703 1.373 . S
C703 C700 1.350 . S
C703 N702 1.373 . S
C703 H724 0.931 . S
H704 C699 0.931 . S
H705 C700 0.930 . S
C706 O713 1.259 . S
C706 O714 1.258 . S
N707 Co698 2.057 . S
N707 C708 1.316 . S
N707 C709 1.375 . S
C708 N707 1.316 . S
C708 N710 1.347 . S
C708 H719 0.931 . S
C709 N707 1.375 . S
C709 C711 1.350 . S
C709 H718 0.930 . S
N710 C708 1.347 . S
N710 C711 1.373 . S
C711 C709 1.350 . S
C711 N710 1.373 . S
C711 H725 0.931 . S
C712 O715 1.256 . S
C712 O716 1.255 . S
O713 Co696 2.021 . S
O713 C706 1.259 . S
O714 Co698 2.117 . S
O714 C706 1.258 . S
O715 Co698 2.020 . S
O715 C712 1.256 . S
O716 Co696 2.062 . S
O716 C712 1.255 . S
O717 C697 1.259 . S
O717 Co698 2.021 . S
H718 C709 0.930 . S
H719 C708 0.931 . S
O720 Co696 2.117 . S
O720 C697 1.258 . S
O721 Co696 2.020 . S
O721 C723 1.256 . S
O722 Co698 2.062 . S
O722 C723 1.255 . S
C723 O721 1.256 . S
C723 O722 1.255 . S
H724 C703 0.931 . S
H725 C711 0.931 . S
Co726 N731 2.057 . S
Co726 O743 2.021 . S
Co726 O746 2.062 . S
Co726 O750 2.117 . S
Co726 O751 2.020 . S
C727 O747 1.259 . S
C727 O750 1.258 . S
Co728 N737 2.057 . S
Co728 O744 2.117 . S
Co728 O745 2.020 . S
Co728 O747 2.021 . S
Co728 O752 2.062 . S
C729 N731 1.316 . S
C729 N732 1.347 . S
C729 H734 0.931 . S
C730 N731 1.375 . S
C730 C733 1.350 . S
C730 H735 0.930 . S
N731 Co726 2.057 . S
N731 C729 1.316 . S
N731 C730 1.375 . S
N732 C729 1.347 . S
N732 C733 1.373 . S
C733 C730 1.350 . S
C733 N732 1.373 . S
C733 H754 0.931 . S
H734 C729 0.931 . S
H735 C730 0.930 . S
C736 O743 1.259 . S
C736 O744 1.258 . S
N737 Co728 2.057 . S
N737 C738 1.316 . S
N737 C739 1.375 . S
C738 N737 1.316 . S
C738 N740 1.347 . S
C738 H749 0.931 . S
C739 N737 1.375 . S
C739 C741 1.350 . S
C739 H748 0.930 . S
N740 C738 1.347 . S
N740 C741 1.373 . S
C741 C739 1.350 . S
C741 N740 1.373 . S
C741 H755 0.931 . S
C742 O745 1.256 . S
C742 O746 1.255 . S
O743 Co726 2.021 . S
O743 C736 1.259 . S
O744 Co728 2.117 . S
O744 C736 1.258 . S
O745 Co728 2.020 . S
O745 C742 1.256 . S
O746 Co726 2.062 . S
O746 C742 1.255 . S
O747 C727 1.259 . S
O747 Co728 2.021 . S
H748 C739 0.930 . S
H749 C738 0.931 . S
O750 Co726 2.117 . S
O750 C727 1.258 . S
O751 Co726 2.020 . S
O751 C753 1.256 . S
O752 Co728 2.062 . S
O752 C753 1.255 . S
C753 O751 1.256 . S
C753 O752 1.255 . S
H754 C733 0.931 . S
H755 C741 0.931 . S
Co756 N761 2.057 . S
Co756 O773 2.021 . S
Co756 O776 2.062 . S
Co756 O780 2.117 . S
Co756 O781 2.020 . S
C757 O777 1.259 . S
C757 O780 1.258 . S
Co758 N767 2.057 . S
Co758 O774 2.117 . S
Co758 O775 2.020 . S
Co758 O777 2.021 . S
Co758 O782 2.062 . S
C759 N761 1.316 . S
C759 N762 1.347 . S
C759 H764 0.931 . S
C760 N761 1.375 . S
C760 C763 1.350 . S
C760 H765 0.930 . S
N761 Co756 2.057 . S
N761 C759 1.316 . S
N761 C760 1.375 . S
N762 C759 1.347 . S
N762 C763 1.373 . S
C763 C760 1.350 . S
C763 N762 1.373 . S
C763 H784 0.931 . S
H764 C759 0.931 . S
H765 C760 0.930 . S
C766 O773 1.259 . S
C766 O774 1.258 . S
N767 Co758 2.057 . S
N767 C768 1.316 . S
N767 C769 1.375 . S
C768 N767 1.316 . S
C768 N770 1.347 . S
C768 H779 0.931 . S
C769 N767 1.375 . S
C769 C771 1.350 . S
C769 H778 0.930 . S
N770 C768 1.347 . S
N770 C771 1.373 . S
C771 C769 1.350 . S
C771 N770 1.373 . S
C771 H785 0.931 . S
C772 O775 1.256 . S
C772 O776 1.255 . S
O773 Co756 2.021 . S
O773 C766 1.259 . S
O774 Co758 2.117 . S
O774 C766 1.258 . S
O775 Co758 2.020 . S
O775 C772 1.256 . S
O776 Co756 2.062 . S
O776 C772 1.255 . S
O777 C757 1.259 . S
O777 Co758 2.021 . S
H778 C769 0.930 . S
H779 C768 0.931 . S
O780 Co756 2.117 . S
O780 C757 1.258 . S
O781 Co756 2.020 . S
O781 C783 1.256 . S
O782 Co758 2.062 . S
O782 C783 1.255 . S
C783 O781 1.256 . S
C783 O782 1.255 . S
H784 C763 0.931 . S
H785 C771 0.931 . S
Co786 N791 2.057 1_455 S
Co786 O803 2.021 . S
Co786 O806 2.062 1_455 S
Co786 O810 2.117 . S
Co786 O811 2.020 1_554 S
C787 O807 1.259 . S
C787 O810 1.258 . S
Co788 N797 2.057 . S
Co788 O804 2.117 . S
Co788 O805 2.020 . S
Co788 O807 2.021 . S
Co788 O812 2.062 1_554 S
C789 N791 1.316 . S
C789 N792 1.347 . S
C789 H794 0.931 . S
C790 N791 1.375 . S
C790 C793 1.350 . S
C790 H795 0.930 1_554 S
N791 Co786 2.057 1_655 S
N791 C789 1.316 . S
N791 C790 1.375 . S
N792 C789 1.347 . S
N792 C793 1.373 . S
C793 C790 1.350 . S
C793 N792 1.373 . S
C793 H814 0.931 1_554 S
H794 C789 0.931 . S
H795 C790 0.930 1_556 S
C796 O803 1.259 . S
C796 O804 1.258 . S
N797 Co788 2.057 . S
N797 C798 1.316 . S
N797 C799 1.375 . S
C798 N797 1.316 . S
C798 N800 1.347 . S
C798 H809 0.931 . S
C799 N797 1.375 . S
C799 C801 1.350 . S
C799 H808 0.930 . S
N800 C798 1.347 . S
N800 C801 1.373 . S
C801 C799 1.350 . S
C801 N800 1.373 . S
C801 H815 0.931 . S
C802 O805 1.256 . S
C802 O806 1.255 1_455 S
O803 Co786 2.021 . S
O803 C796 1.259 . S
O804 Co788 2.117 . S
O804 C796 1.258 . S
O805 Co788 2.020 . S
O805 C802 1.256 . S
O806 Co786 2.062 1_655 S
O806 C802 1.255 1_655 S
O807 C787 1.259 . S
O807 Co788 2.021 . S
H808 C799 0.930 . S
H809 C798 0.931 . S
O810 Co786 2.117 . S
O810 C787 1.258 . S
O811 Co786 2.020 1_556 S
O811 C813 1.256 . S
O812 Co788 2.062 1_556 S
O812 C813 1.255 . S
C813 O811 1.256 . S
C813 O812 1.255 . S
H814 C793 0.931 1_556 S
H815 C801 0.931 . S
C816 C817 1.369 . S
C816 C818 1.416 1_455 S
C816 H820 0.930 1_455 S
C817 C816 1.369 . S
C817 C826 1.429 . S
C818 C816 1.416 1_655 S
C818 C819 1.356 1_655 S
C818 H821 0.940 . S
C819 C818 1.356 1_455 S
C819 C825 1.428 . S
H820 C816 0.930 1_655 S
H821 C818 0.940 . S
S822 N823 1.613 . S
S822 N824 1.610 . S
N823 S822 1.613 . S
N823 C826 1.350 . S
N824 S822 1.610 . S
N824 C825 1.351 . S
C825 C819 1.428 . S
C825 N824 1.351 . S
C825 C826 1.434 . S
C826 C817 1.429 . S
C826 N823 1.350 . S
C826 C825 1.434 . S
C827 C828 1.369 . S
C827 C829 1.419 . S
C827 H831 0.930 . S
C828 C827 1.369 . S
C828 C837 1.429 . S
C829 C827 1.419 . S
C829 C830 1.363 . S
C829 H832 0.929 . S
C830 C829 1.363 . S
C830 C836 1.428 . S
H831 C827 0.930 . S
H832 C829 0.929 . S
S833 N834 1.613 . S
S833 N835 1.610 . S
N834 S833 1.613 . S
N834 C837 1.350 . S
N835 S833 1.610 . S
N835 C836 1.351 . S
C836 C830 1.428 . S
C836 N835 1.351 . S
C836 C837 1.434 . S
C837 C828 1.429 . S
C837 N834 1.350 . S
C837 C836 1.434 . S
C838 C839 1.369 . S
C838 C840 1.419 . S
C838 H842 0.930 . S
C839 C838 1.369 . S
C839 C848 1.429 . S
C840 C838 1.419 . S
C840 C841 1.363 . S
C840 H843 0.929 . S
C841 C840 1.363 . S
C841 C847 1.428 . S
H842 C838 0.930 . S
H843 C840 0.929 . S
S844 N845 1.613 . S
S844 N846 1.610 . S
N845 S844 1.613 . S
N845 C848 1.350 . S
N846 S844 1.610 . S
N846 C847 1.351 . S
C847 C841 1.428 . S
C847 N846 1.351 . S
C847 C848 1.434 . S
C848 C839 1.429 . S
C848 N845 1.350 . S
C848 C847 1.434 . S
C849 C850 1.369 . S
C849 C851 1.419 . S
C849 H853 0.930 . S
C850 C849 1.369 . S
C850 C859 1.429 . S
C851 C849 1.419 . S
C851 C852 1.363 . S
C851 H854 0.929 . S
C852 C851 1.363 . S
C852 C858 1.428 . S
H853 C849 0.930 . S
H854 C851 0.929 . S
S855 N856 1.613 . S
S855 N857 1.610 . S
N856 S855 1.613 . S
N856 C859 1.350 . S
N857 S855 1.610 . S
N857 C858 1.351 . S
C858 C852 1.428 . S
C858 N857 1.351 . S
C858 C859 1.434 . S
C859 C850 1.429 . S
C859 N856 1.350 . S
C859 C858 1.434 . S
C860 C861 1.369 . S
C860 C862 1.419 . S
C860 H864 0.930 . S
C861 C860 1.369 . S
C861 C870 1.429 . S
C862 C860 1.419 . S
C862 C863 1.363 . S
C862 H865 0.929 . S
C863 C862 1.363 . S
C863 C869 1.428 . S
H864 C860 0.930 . S
H865 C862 0.929 . S
S866 N867 1.613 . S
S866 N868 1.610 . S
N867 S866 1.613 . S
N867 C870 1.350 . S
N868 S866 1.610 . S
N868 C869 1.351 . S
C869 C863 1.428 . S
C869 N868 1.351 . S
C869 C870 1.434 . S
C870 C861 1.429 . S
C870 N867 1.350 . S
C870 C869 1.434 . S
C871 C872 1.369 . S
C871 C873 1.419 . S
C871 H875 0.930 . S
C872 C871 1.369 . S
C872 C881 1.429 . S
C873 C871 1.419 . S
C873 C874 1.363 . S
C873 H876 0.929 . S
C874 C873 1.363 . S
C874 C880 1.428 . S
H875 C871 0.930 . S
H876 C873 0.929 . S
S877 N878 1.613 . S
S877 N879 1.610 . S
N878 S877 1.613 . S
N878 C881 1.350 . S
N879 S877 1.610 . S
N879 C880 1.351 . S
C880 C874 1.428 . S
C880 N879 1.351 . S
C880 C881 1.434 . S
C881 C872 1.429 . S
C881 N878 1.350 . S
C881 C880 1.434 . S
C882 C883 1.369 . S
C882 C884 1.398 1_556 S
C882 H886 0.930 . S
C883 C882 1.369 . S
C883 C892 1.429 . S
C884 C882 1.398 1_554 S
C884 C885 1.361 1_554 S
C884 H887 0.954 . S
C885 C884 1.361 1_556 S
C885 C891 1.428 . S
H886 C882 0.930 . S
H887 C884 0.954 . S
S888 N889 1.613 . S
S888 N890 1.610 . S
N889 S888 1.613 . S
N889 C892 1.350 . S
N890 S888 1.610 . S
N890 C891 1.351 . S
C891 C885 1.428 . S
C891 N890 1.351 . S
C891 C892 1.434 . S
C892 C883 1.429 . S
C892 N889 1.350 . S
C892 C891 1.434 . S
C893 C894 1.369 . S
C893 C895 1.419 . S
C893 H897 0.930 . S
C894 C893 1.369 . S
C894 C903 1.429 . S
C895 C893 1.419 . S
C895 C896 1.363 . S
C895 H898 0.929 . S
C896 C895 1.363 . S
C896 C902 1.428 . S
H897 C893 0.930 . S
H898 C895 0.929 . S
S899 N900 1.613 . S
S899 N901 1.610 . S
N900 S899 1.613 . S
N900 C903 1.350 . S
N901 S899 1.610 . S
N901 C902 1.351 . S
C902 C896 1.428 . S
C902 N901 1.351 . S
C902 C903 1.434 . S
C903 C894 1.429 . S
C903 N900 1.350 . S
C903 C902 1.434 . S
C904 C905 1.369 1_565 S
C904 C906 1.419 . S
C904 H908 0.930 . S
C905 C904 1.369 1_545 S
C905 C914 1.429 . S
C906 C904 1.419 . S
C906 C907 1.363 1_565 S
C906 H909 0.929 . S
C907 C906 1.363 1_545 S
C907 C913 1.428 . S
H908 C904 0.930 . S
H909 C906 0.929 . S
S910 N911 1.613 . S
S910 N912 1.610 . S
N911 S910 1.613 . S
N911 C914 1.350 . S
N912 S910 1.610 . S
N912 C913 1.351 . S
C913 C907 1.428 . S
C913 N912 1.351 . S
C913 C914 1.434 . S
C914 C905 1.429 . S
C914 N911 1.350 . S
C914 C913 1.434 . S
C915 C916 1.369 . S
C915 C917 1.419 . S
C915 H919 0.930 . S
C916 C915 1.369 . S
C916 C925 1.429 . S
C917 C915 1.419 . S
C917 C918 1.363 . S
C917 H920 0.929 . S
C918 C917 1.363 . S
C918 C924 1.428 . S
H919 C915 0.930 . S
H920 C917 0.929 . S
S921 N922 1.613 . S
S921 N923 1.610 . S
N922 S921 1.613 . S
N922 C925 1.350 . S
N923 S921 1.610 . S
N923 C924 1.351 . S
C924 C918 1.428 . S
C924 N923 1.351 . S
C924 C925 1.434 . S
C925 C916 1.429 . S
C925 N922 1.350 . S
C925 C924 1.434 . S
C926 C927 1.369 . S
C926 C928 1.419 . S
C926 H930 0.930 . S
C927 C926 1.369 . S
C927 C936 1.429 . S
C928 C926 1.419 . S
C928 C929 1.363 . S
C928 H931 0.929 . S
C929 C928 1.363 . S
C929 C935 1.428 . S
H930 C926 0.930 . S
H931 C928 0.929 . S
S932 N933 1.613 . S
S932 N934 1.610 . S
N933 S932 1.613 . S
N933 C936 1.350 . S
N934 S932 1.610 . S
N934 C935 1.351 . S
C935 C929 1.428 . S
C935 N934 1.351 . S
C935 C936 1.434 . S
C936 C927 1.429 . S
C936 N933 1.350 . S
C936 C935 1.434 . S
C937 C938 1.369 . S
C937 C939 1.419 . S
C937 H941 0.930 . S
C938 C937 1.369 . S
C938 C947 1.429 . S
C939 C937 1.419 . S
C939 C940 1.363 . S
C939 H942 0.929 . S
C940 C939 1.363 . S
C940 C946 1.428 . S
H941 C937 0.930 . S
H942 C939 0.929 . S
S943 N944 1.613 . S
S943 N945 1.610 . S
N944 S943 1.613 . S
N944 C947 1.350 . S
N945 S943 1.610 . S
N945 C946 1.351 . S
C946 C940 1.428 . S
C946 N945 1.351 . S
C946 C947 1.434 . S
C947 C938 1.429 . S
C947 N944 1.350 . S
C947 C946 1.434 . S
C948 C949 1.369 . S
C948 C950 1.419 . S
C948 H952 0.930 . S
C949 C948 1.369 . S
C949 C958 1.429 . S
C950 C948 1.419 . S
C950 C951 1.363 . S
C950 H953 0.929 . S
C951 C950 1.363 . S
C951 C957 1.428 . S
H952 C948 0.930 . S
H953 C950 0.929 . S
S954 N955 1.613 . S
S954 N956 1.610 . S
N955 S954 1.613 . S
N955 C958 1.350 . S
N956 S954 1.610 . S
N956 C957 1.351 . S
C957 C951 1.428 . S
C957 N956 1.351 . S
C957 C958 1.434 . S
C958 C949 1.429 . S
C958 N955 1.350 . S
C958 C957 1.434 . S
C959 C960 1.369 . S
C959 C961 1.419 . S
C959 H963 0.930 . S
C960 C959 1.369 . S
C960 C969 1.429 . S
C961 C959 1.419 . S
C961 C962 1.363 . S
C961 H964 0.929 . S
C962 C961 1.363 . S
C962 C968 1.428 . S
H963 C959 0.930 . S
H964 C961 0.929 . S
S965 N966 1.613 . S
S965 N967 1.610 . S
N966 S965 1.613 . S
N966 C969 1.350 . S
N967 S965 1.610 . S
N967 C968 1.351 . S
C968 C962 1.428 . S
C968 N967 1.351 . S
C968 C969 1.434 . S
C969 C960 1.429 . S
C969 N966 1.350 . S
C969 C968 1.434 . S
C970 C971 1.369 . S
C970 C972 1.419 . S
C970 H974 0.930 . S
C971 C970 1.369 . S
C971 C980 1.429 . S
C972 C970 1.419 . S
C972 C973 1.363 . S
C972 H975 0.929 1_545 S
C973 C972 1.363 . S
C973 C979 1.428 . S
H974 C970 0.930 . S
H975 C972 0.929 1_565 S
S976 N977 1.613 . S
S976 N978 1.610 . S
N977 S976 1.613 . S
N977 C980 1.350 . S
N978 S976 1.610 . S
N978 C979 1.351 . S
C979 C973 1.428 . S
C979 N978 1.351 . S
C979 C980 1.434 . S
C980 C971 1.429 . S
C980 N977 1.350 . S
C980 C979 1.434 . S
C981 C982 1.369 . S
C981 C983 1.419 . S
C981 H985 0.930 . S
C982 C981 1.369 . S
C982 C991 1.429 . S
C983 C981 1.419 . S
C983 C984 1.363 . S
C983 H986 0.929 . S
C984 C983 1.363 . S
C984 C990 1.428 . S
H985 C981 0.930 . S
H986 C983 0.929 . S
S987 N988 1.613 . S
S987 N989 1.610 . S
N988 S987 1.613 . S
N988 C991 1.350 . S
N989 S987 1.610 . S
N989 C990 1.351 . S
C990 C984 1.428 . S
C990 N989 1.351 . S
C990 C991 1.434 . S
C991 C982 1.429 . S
C991 N988 1.350 . S
C991 C990 1.434 . S
C992 C993 1.369 . S
C992 C994 1.419 . S
C992 H996 0.930 1_554 S
C993 C992 1.369 . S
C993 C1002 1.429 . S
C994 C992 1.419 . S
C994 C995 1.363 . S
C994 H997 0.929 1_554 S
C995 C994 1.363 . S
C995 C1001 1.428 . S
H996 C992 0.930 1_556 S
H997 C994 0.929 1_556 S
S998 N999 1.613 . S
S998 N1000 1.610 . S
N999 S998 1.613 . S
N999 C1002 1.350 . S
N1000 S998 1.610 . S
N1000 C1001 1.351 . S
C1001 C995 1.428 . S
C1001 N1000 1.351 . S
C1001 C1002 1.434 . S
C1002 C993 1.429 . S
C1002 N999 1.350 . S
C1002 C1001 1.434 . S
C1003 C1004 1.369 . S
C1003 C1005 1.419 . S
C1003 H1007 0.930 . S
C1004 C1003 1.369 . S
C1004 C1013 1.429 . S
C1005 C1003 1.419 . S
C1005 C1006 1.363 . S
C1005 H1008 0.929 . S
C1006 C1005 1.363 . S
C1006 C1012 1.428 . S
H1007 C1003 0.930 . S
H1008 C1005 0.929 . S
S1009 N1010 1.613 . S
S1009 N1011 1.610 . S
N1010 S1009 1.613 . S
N1010 C1013 1.350 . S
N1011 S1009 1.610 . S
N1011 C1012 1.351 . S
C1012 C1006 1.428 . S
C1012 N1011 1.351 . S
C1012 C1013 1.434 . S
C1013 C1004 1.429 . S
C1013 N1010 1.350 . S
C1013 C1012 1.434 . S
C1014 C1015 1.369 . S
C1014 C1016 1.419 . S
C1014 H1018 0.930 . S
C1015 C1014 1.369 . S
C1015 C1024 1.429 . S
C1016 C1014 1.419 . S
C1016 C1017 1.363 . S
C1016 H1019 0.929 . S
C1017 C1016 1.363 . S
C1017 C1023 1.428 . S
H1018 C1014 0.930 . S
H1019 C1016 0.929 . S
S1020 N1021 1.613 . S
S1020 N1022 1.610 . S
N1021 S1020 1.613 . S
N1021 C1024 1.350 . S
N1022 S1020 1.610 . S
N1022 C1023 1.351 . S
C1023 C1017 1.428 . S
C1023 N1022 1.351 . S
C1023 C1024 1.434 . S
C1024 C1015 1.429 . S
C1024 N1021 1.350 . S
C1024 C1023 1.434 . S
C1025 C1026 1.369 . S
C1025 C1027 1.419 . S
C1025 H1029 0.930 . S
C1026 C1025 1.369 . S
C1026 C1035 1.429 . S
C1027 C1025 1.419 . S
C1027 C1028 1.363 . S
C1027 H1030 0.929 . S
C1028 C1027 1.363 . S
C1028 C1034 1.428 . S
H1029 C1025 0.930 . S
H1030 C1027 0.929 . S
S1031 N1032 1.613 . S
S1031 N1033 1.610 . S
N1032 S1031 1.613 . S
N1032 C1035 1.350 . S
N1033 S1031 1.610 . S
N1033 C1034 1.351 . S
C1034 C1028 1.428 . S
C1034 N1033 1.351 . S
C1034 C1035 1.434 . S
C1035 C1026 1.429 . S
C1035 N1032 1.350 . S
C1035 C1034 1.434 . S
C1036 C1037 1.369 . S
C1036 C1038 1.419 . S
C1036 H1040 0.930 . S
C1037 C1036 1.369 . S
C1037 C1046 1.429 . S
C1038 C1036 1.419 . S
C1038 C1039 1.363 . S
C1038 H1041 0.929 . S
C1039 C1038 1.363 . S
C1039 C1045 1.428 . S
H1040 C1036 0.930 . S
H1041 C1038 0.929 . S
S1042 N1043 1.613 . S
S1042 N1044 1.610 . S
N1043 S1042 1.613 . S
N1043 C1046 1.350 . S
N1044 S1042 1.610 . S
N1044 C1045 1.351 . S
C1045 C1039 1.428 . S
C1045 N1044 1.351 . S
C1045 C1046 1.434 . S
C1046 C1037 1.429 . S
C1046 N1043 1.350 . S
C1046 C1045 1.434 . S
C1047 C1048 1.369 . S
C1047 C1049 1.419 . S
C1047 H1051 0.930 . S
C1048 C1047 1.369 . S
C1048 C1057 1.429 . S
C1049 C1047 1.419 . S
C1049 C1050 1.363 . S
C1049 H1052 0.929 . S
C1050 C1049 1.363 . S
C1050 C1056 1.428 1_565 S
H1051 C1047 0.930 . S
H1052 C1049 0.929 . S
S1053 N1054 1.618 . S
S1053 N1055 1.610 . S
N1054 S1053 1.618 . S
N1054 C1057 1.347 1_545 S
N1055 S1053 1.610 . S
N1055 C1056 1.351 . S
C1056 C1050 1.428 1_545 S
C1056 N1055 1.351 . S
C1056 C1057 1.434 1_545 S
C1057 C1048 1.429 . S
C1057 N1054 1.347 1_565 S
C1057 C1056 1.434 1_565 S
C1058 C1059 1.369 . S
C1058 C1060 1.419 . S
C1058 H1062 0.930 . S
C1059 C1058 1.369 . S
C1059 C1068 1.429 . S
C1060 C1058 1.419 . S
C1060 C1061 1.363 . S
C1060 H1063 0.929 . S
C1061 C1060 1.363 . S
C1061 C1067 1.428 . S
H1062 C1058 0.930 . S
H1063 C1060 0.929 . S
S1064 N1065 1.613 . S
S1064 N1066 1.610 . S
N1065 S1064 1.613 . S
N1065 C1068 1.350 . S
N1066 S1064 1.610 . S
N1066 C1067 1.351 . S
C1067 C1061 1.428 . S
C1067 N1066 1.351 . S
C1067 C1068 1.434 . S
C1068 C1059 1.429 . S
C1068 N1065 1.350 . S
C1068 C1067 1.434 . S
C1069 C1070 1.369 . S
C1069 C1071 1.419 . S
C1069 H1073 0.930 . S
C1070 C1069 1.369 . S
C1070 C1079 1.429 . S
C1071 C1069 1.419 . S
C1071 C1072 1.363 . S
C1071 H1074 0.929 . S
C1072 C1071 1.363 . S
C1072 C1078 1.428 . S
H1073 C1069 0.930 . S
H1074 C1071 0.929 . S
S1075 N1076 1.613 . S
S1075 N1077 1.610 . S
N1076 S1075 1.613 . S
N1076 C1079 1.350 . S
N1077 S1075 1.610 . S
N1077 C1078 1.351 . S
C1078 C1072 1.428 . S
C1078 N1077 1.351 . S
C1078 C1079 1.434 . S
C1079 C1070 1.429 . S
C1079 N1076 1.350 . S
C1079 C1078 1.434 . S
C1080 C1081 1.369 . S
C1080 C1082 1.419 1_556 S
C1080 H1084 0.930 . S
C1081 C1080 1.369 . S
C1081 C1090 1.429 . S
C1082 C1080 1.419 1_554 S
C1082 C1083 1.363 1_554 S
C1082 H1085 0.929 . S
C1083 C1082 1.363 1_556 S
C1083 C1089 1.428 . S
H1084 C1080 0.930 . S
H1085 C1082 0.929 . S
S1086 N1087 1.613 . S
S1086 N1088 1.610 . S
N1087 S1086 1.613 . S
N1087 C1090 1.350 . S
N1088 S1086 1.610 . S
N1088 C1089 1.351 . S
C1089 C1083 1.428 . S
C1089 N1088 1.351 . S
C1089 C1090 1.434 . S
C1090 C1081 1.429 . S
C1090 N1087 1.350 . S
C1090 C1089 1.434 . S
C1091 C1092 1.369 . S
C1091 C1093 1.419 . S
C1091 H1095 0.930 . S
C1092 C1091 1.369 . S
C1092 C1101 1.429 . S
C1093 C1091 1.419 . S
C1093 C1094 1.363 . S
C1093 H1096 0.929 . S
C1094 C1093 1.363 . S
C1094 C1100 1.428 . S
H1095 C1091 0.930 . S
H1096 C1093 0.929 . S
S1097 N1098 1.613 . S
S1097 N1099 1.610 . S
N1098 S1097 1.613 . S
N1098 C1101 1.350 . S
N1099 S1097 1.610 . S
N1099 C1100 1.351 . S
C1100 C1094 1.428 . S
C1100 N1099 1.351 . S
C1100 C1101 1.434 . S
C1101 C1092 1.429 . S
C1101 N1098 1.350 . S
C1101 C1100 1.434 . S
C1102 C1103 1.369 . S
C1102 C1104 1.419 . S
C1102 H1106 0.930 . S
C1103 C1102 1.369 . S
C1103 C1112 1.429 . S
C1104 C1102 1.419 . S
C1104 C1105 1.363 . S
C1104 H1107 0.929 . S
C1105 C1104 1.363 . S
C1105 C1111 1.428 . S
H1106 C1102 0.930 . S
H1107 C1104 0.929 . S
S1108 N1109 1.613 . S
S1108 N1110 1.610 . S
N1109 S1108 1.613 . S
N1109 C1112 1.350 . S
N1110 S1108 1.610 . S
N1110 C1111 1.351 . S
C1111 C1105 1.428 . S
C1111 N1110 1.351 . S
C1111 C1112 1.434 . S
C1112 C1103 1.429 . S
C1112 N1109 1.350 . S
C1112 C1111 1.434 . S
C1113 C1114 1.369 . S
C1113 C1115 1.419 . S
C1113 H1117 0.930 . S
C1114 C1113 1.369 . S
C1114 C1123 1.429 . S
C1115 C1113 1.419 . S
C1115 C1116 1.363 . S
C1115 H1118 0.929 . S
C1116 C1115 1.363 . S
C1116 C1122 1.428 . S
H1117 C1113 0.930 . S
H1118 C1115 0.929 . S
S1119 N1120 1.613 . S
S1119 N1121 1.610 . S
N1120 S1119 1.613 . S
N1120 C1123 1.350 . S
N1121 S1119 1.610 . S
N1121 C1122 1.351 . S
C1122 C1116 1.428 . S
C1122 N1121 1.351 . S
C1122 C1123 1.434 . S
C1123 C1114 1.429 . S
C1123 N1120 1.350 . S
C1123 C1122 1.434 . S
C1124 C1125 1.369 . S
C1124 C1126 1.419 . S
C1124 H1128 0.930 . S
C1125 C1124 1.369 . S
C1125 C1134 1.429 . S
C1126 C1124 1.419 . S
C1126 C1127 1.363 . S
C1126 H1129 0.929 . S
C1127 C1126 1.363 . S
C1127 C1133 1.428 . S
H1128 C1124 0.930 . S
H1129 C1126 0.929 . S
S1130 N1131 1.613 . S
S1130 N1132 1.610 . S
N1131 S1130 1.613 . S
N1131 C1134 1.350 . S
N1132 S1130 1.610 . S
N1132 C1133 1.351 . S
C1133 C1127 1.428 . S
C1133 N1132 1.351 . S
C1133 C1134 1.434 . S
C1134 C1125 1.429 . S
C1134 N1131 1.350 . S
C1134 C1133 1.434 . S
C1135 C1136 1.369 . S
C1135 C1137 1.419 . S
C1135 H1139 0.930 . S
C1136 C1135 1.369 . S
C1136 C1145 1.429 . S
C1137 C1135 1.419 . S
C1137 C1138 1.363 . S
C1137 H1140 0.929 . S
C1138 C1137 1.363 . S
C1138 C1144 1.428 . S
H1139 C1135 0.930 . S
H1140 C1137 0.929 . S
S1141 N1142 1.613 . S
S1141 N1143 1.610 . S
N1142 S1141 1.613 . S
N1142 C1145 1.350 . S
N1143 S1141 1.610 . S
N1143 C1144 1.351 . S
C1144 C1138 1.428 . S
C1144 N1143 1.351 . S
C1144 C1145 1.434 . S
C1145 C1136 1.429 . S
C1145 N1142 1.350 . S
C1145 C1144 1.434 . S
C1146 C1147 1.369 . S
C1146 C1148 1.419 . S
C1146 H1150 0.930 . S
C1147 C1146 1.369 . S
C1147 C1156 1.429 . S
C1148 C1146 1.419 . S
C1148 C1149 1.363 . S
C1148 H1151 0.929 . S
C1149 C1148 1.363 . S
C1149 C1155 1.428 . S
H1150 C1146 0.930 . S
H1151 C1148 0.929 . S
S1152 N1153 1.613 . S
S1152 N1154 1.610 . S
N1153 S1152 1.613 . S
N1153 C1156 1.350 . S
N1154 S1152 1.610 . S
N1154 C1155 1.351 . S
C1155 C1149 1.428 . S
C1155 N1154 1.351 . S
C1155 C1156 1.434 . S
C1156 C1147 1.429 . S
C1156 N1153 1.350 . S
C1156 C1155 1.434 . S
C1157 C1158 1.369 . S
C1157 C1159 1.419 . S
C1157 H1161 0.930 . S
C1158 C1157 1.369 . S
C1158 C1167 1.429 . S
C1159 C1157 1.419 . S
C1159 C1160 1.363 . S
C1159 H1162 0.929 . S
C1160 C1159 1.363 . S
C1160 C1166 1.428 . S
H1161 C1157 0.930 . S
H1162 C1159 0.929 . S
S1163 N1164 1.613 . S
S1163 N1165 1.610 . S
N1164 S1163 1.613 . S
N1164 C1167 1.350 . S
N1165 S1163 1.610 . S
N1165 C1166 1.351 . S
C1166 C1160 1.428 . S
C1166 N1165 1.351 . S
C1166 C1167 1.434 . S
C1167 C1158 1.429 . S
C1167 N1164 1.350 . S
C1167 C1166 1.434 . S
C1168 C1169 1.369 . S
C1168 C1170 1.419 . S
C1168 H1172 0.930 . S
C1169 C1168 1.369 . S
C1169 C1178 1.429 . S
C1170 C1168 1.419 . S
C1170 C1171 1.363 . S
C1170 H1173 0.929 . S
C1171 C1170 1.363 . S
C1171 C1177 1.428 . S
H1172 C1168 0.930 . S
H1173 C1170 0.929 . S
S1174 N1175 1.613 1_565 S
S1174 N1176 1.610 1_565 S
N1175 S1174 1.613 1_545 S
N1175 C1178 1.350 . S
N1176 S1174 1.610 1_545 S
N1176 C1177 1.351 . S
C1177 C1171 1.428 . S
C1177 N1176 1.351 . S
C1177 C1178 1.434 . S
C1178 C1169 1.429 . S
C1178 N1175 1.350 . S
C1178 C1177 1.434 . S
C1179 C1180 1.369 . S
C1179 C1181 1.419 . S
C1179 H1183 0.930 . S
C1180 C1179 1.369 . S
C1180 C1189 1.429 . S
C1181 C1179 1.419 . S
C1181 C1182 1.363 . S
C1181 H1184 0.929 . S
C1182 C1181 1.363 . S
C1182 C1188 1.428 . S
H1183 C1179 0.930 . S
H1184 C1181 0.929 . S
S1185 N1186 1.613 . S
S1185 N1187 1.610 . S
N1186 S1185 1.613 . S
N1186 C1189 1.350 . S
N1187 S1185 1.610 . S
N1187 C1188 1.351 . S
C1188 C1182 1.428 . S
C1188 N1187 1.351 . S
C1188 C1189 1.434 . S
C1189 C1180 1.429 . S
C1189 N1186 1.350 . S
C1189 C1188 1.434 . S
C1190 C1191 1.369 . S
C1190 C1192 1.419 . S
C1190 H1194 0.930 . S
C1191 C1190 1.369 . S
C1191 C1200 1.429 . S
C1192 C1190 1.419 . S
C1192 C1193 1.363 . S
C1192 H1195 0.929 . S
C1193 C1192 1.363 . S
C1193 C1199 1.428 . S
H1194 C1190 0.930 . S
H1195 C1192 0.929 . S
S1196 N1197 1.613 . S
S1196 N1198 1.610 . S
N1197 S1196 1.613 . S
N1197 C1200 1.350 1_565 S
N1198 S1196 1.610 . S
N1198 C1199 1.351 1_565 S
C1199 C1193 1.428 . S
C1199 N1198 1.351 1_545 S
C1199 C1200 1.434 . S
C1200 C1191 1.429 . S
C1200 N1197 1.350 1_545 S
C1200 C1199 1.434 . S
C1201 C1202 1.369 . S
C1201 C1203 1.419 . S
C1201 H1205 0.930 . S
C1202 C1201 1.369 . S
C1202 C1211 1.429 . S
C1203 C1201 1.419 . S
C1203 C1204 1.363 . S
C1203 H1206 0.929 . S
C1204 C1203 1.363 . S
C1204 C1210 1.428 . S
H1205 C1201 0.930 . S
H1206 C1203 0.929 . S
S1207 N1208 1.613 . S
S1207 N1209 1.610 . S
N1208 S1207 1.613 . S
N1208 C1211 1.350 . S
N1209 S1207 1.610 . S
N1209 C1210 1.351 . S
C1210 C1204 1.428 . S
C1210 N1209 1.351 . S
C1210 C1211 1.434 . S
C1211 C1202 1.429 . S
C1211 N1208 1.350 . S
C1211 C1210 1.434 . S
C1212 C1213 1.369 . S
C1212 C1214 1.419 . S
C1212 H1216 0.930 . S
C1213 C1212 1.369 . S
C1213 C1222 1.429 . S
C1214 C1212 1.419 . S
C1214 C1215 1.363 . S
C1214 H1217 0.929 1_655 S
C1215 C1214 1.363 . S
C1215 C1221 1.428 . S
H1216 C1212 0.930 . S
H1217 C1214 0.929 1_455 S
S1218 N1219 1.613 . S
S1218 N1220 1.610 . S
N1219 S1218 1.613 . S
N1219 C1222 1.350 . S
N1220 S1218 1.610 . S
N1220 C1221 1.351 . S
C1221 C1215 1.428 . S
C1221 N1220 1.351 . S
C1221 C1222 1.434 . S
C1222 C1213 1.429 . S
C1222 N1219 1.350 . S
C1222 C1221 1.434 . S
C1223 C1224 1.369 . S
C1223 C1225 1.419 . S
C1223 H1227 0.930 . S
C1224 C1223 1.369 . S
C1224 C1233 1.429 . S
C1225 C1223 1.419 . S
C1225 C1226 1.363 . S
C1225 H1228 0.929 . S
C1226 C1225 1.363 . S
C1226 C1232 1.428 . S
H1227 C1223 0.930 . S
H1228 C1225 0.929 . S
S1229 N1230 1.613 . S
S1229 N1231 1.610 . S
N1230 S1229 1.613 . S
N1230 C1233 1.350 . S
N1231 S1229 1.610 . S
N1231 C1232 1.351 . S
C1232 C1226 1.428 . S
C1232 N1231 1.351 . S
C1232 C1233 1.434 . S
C1233 C1224 1.429 . S
C1233 N1230 1.350 . S
C1233 C1232 1.434 . S
C1234 C1235 1.369 . S
C1234 C1236 1.419 . S
C1234 H1238 0.930 . S
C1235 C1234 1.369 . S
C1235 C1244 1.429 . S
C1236 C1234 1.419 . S
C1236 C1237 1.363 . S
C1236 H1239 0.929 . S
C1237 C1236 1.363 . S
C1237 C1243 1.428 . S
H1238 C1234 0.930 . S
H1239 C1236 0.929 . S
S1240 N1241 1.613 . S
S1240 N1242 1.610 1_565 S
N1241 S1240 1.613 . S
N1241 C1244 1.350 1_565 S
N1242 S1240 1.610 1_545 S
N1242 C1243 1.351 . S
C1243 C1237 1.428 . S
C1243 N1242 1.351 . S
C1243 C1244 1.434 . S
C1244 C1235 1.429 . S
C1244 N1241 1.350 1_545 S
C1244 C1243 1.434 . S
C1245 C1246 1.369 . S
C1245 C1247 1.419 . S
C1245 H1249 0.930 . S
C1246 C1245 1.369 . S
C1246 C1255 1.429 . S
C1247 C1245 1.419 . S
C1247 C1248 1.363 . S
C1247 H1250 0.929 . S
C1248 C1247 1.363 . S
C1248 C1254 1.428 . S
H1249 C1245 0.930 . S
H1250 C1247 0.929 . S
S1251 N1252 1.613 . S
S1251 N1253 1.610 . S
N1252 S1251 1.613 . S
N1252 C1255 1.350 . S
N1253 S1251 1.610 . S
N1253 C1254 1.351 . S
C1254 C1248 1.428 . S
C1254 N1253 1.351 . S
C1254 C1255 1.434 . S
C1255 C1246 1.429 . S
C1255 N1252 1.350 . S
C1255 C1254 1.434 . S
C1256 C1257 1.369 . S
C1256 C1258 1.419 1_565 S
C1256 H1260 0.930 1_565 S
C1257 C1256 1.369 . S
C1257 C1266 1.429 . S
C1258 C1256 1.419 1_545 S
C1258 C1259 1.367 . S
C1258 H1261 0.929 . S
C1259 C1258 1.367 . S
C1259 C1265 1.418 1_545 S
H1260 C1256 0.930 1_545 S
H1261 C1258 0.929 . S
S1262 N1263 1.613 . S
S1262 N1264 1.610 . S
N1263 S1262 1.613 . S
N1263 C1266 1.350 . S
N1264 S1262 1.610 . S
N1264 C1265 1.351 . S
C1265 C1259 1.418 1_565 S
C1265 N1264 1.351 . S
C1265 C1266 1.434 . S
C1266 C1257 1.429 . S
C1266 N1263 1.350 . S
C1266 C1265 1.434 . S
C1267 C1268 1.369 . S
C1267 C1269 1.419 . S
C1267 H1271 0.930 . S
C1268 C1267 1.369 . S
C1268 C1277 1.429 . S
C1269 C1267 1.419 . S
C1269 C1270 1.363 . S
C1269 H1272 0.929 . S
C1270 C1269 1.363 . S
C1270 C1276 1.428 . S
H1271 C1267 0.930 . S
H1272 C1269 0.929 . S
S1273 N1274 1.613 1_554 S
S1273 N1275 1.610 . S
N1274 S1273 1.613 1_556 S
N1274 C1277 1.350 1_556 S
N1275 S1273 1.610 . S
N1275 C1276 1.351 . S
C1276 C1270 1.428 . S
C1276 N1275 1.351 . S
C1276 C1277 1.434 . S
C1277 C1268 1.429 . S
C1277 N1274 1.350 1_554 S
C1277 C1276 1.434 . S
C1278 C1279 1.369 . S
C1278 C1280 1.419 . S
C1278 H1282 0.930 . S
C1279 C1278 1.369 . S
C1279 C1288 1.429 . S
C1280 C1278 1.419 . S
C1280 C1281 1.363 . S
C1280 H1283 0.929 . S
C1281 C1280 1.363 . S
C1281 C1287 1.428 . S
H1282 C1278 0.930 . S
H1283 C1280 0.929 . S
S1284 N1285 1.613 . S
S1284 N1286 1.610 . S
N1285 S1284 1.613 . S
N1285 C1288 1.350 . S
N1286 S1284 1.610 . S
N1286 C1287 1.351 . S
C1287 C1281 1.428 . S
C1287 N1286 1.351 . S
C1287 C1288 1.434 . S
C1288 C1279 1.429 . S
C1288 N1285 1.350 . S
C1288 C1287 1.434 . S
C1289 C1290 1.369 . S
C1289 C1291 1.419 . S
C1289 H1293 0.930 . S
C1290 C1289 1.369 . S
C1290 C1299 1.429 . S
C1291 C1289 1.419 . S
C1291 C1292 1.363 . S
C1291 H1294 0.929 . S
C1292 C1291 1.363 . S
C1292 C1298 1.428 . S
H1293 C1289 0.930 . S
H1294 C1291 0.929 . S
S1295 N1296 1.613 . S
S1295 N1297 1.610 . S
N1296 S1295 1.613 . S
N1296 C1299 1.350 . S
N1297 S1295 1.610 . S
N1297 C1298 1.351 . S
C1298 C1292 1.428 . S
C1298 N1297 1.351 . S
C1298 C1299 1.434 . S
C1299 C1290 1.429 . S
C1299 N1296 1.350 . S
C1299 C1298 1.434 . S
C1300 C1301 1.369 . S
C1300 C1302 1.419 . S
C1300 H1304 0.955 . S
C1301 C1300 1.369 . S
C1301 C1310 1.429 . S
C1302 C1300 1.419 . S
C1302 C1303 1.363 . S
C1302 H1305 0.929 . S
C1303 C1302 1.363 . S
C1303 C1309 1.428 . S
H1304 C1300 0.955 . S
H1305 C1302 0.929 . S
S1306 N1307 1.613 . S
S1306 N1308 1.610 . S
N1307 S1306 1.613 . S
N1307 C1310 1.350 . S
N1308 S1306 1.610 . S
N1308 C1309 1.351 . S
C1309 C1303 1.428 . S
C1309 N1308 1.351 . S
C1309 C1310 1.434 . S
C1310 C1301 1.429 . S
C1310 N1307 1.350 . S
C1310 C1309 1.434 . S
C1311 C1312 1.369 . S
C1311 C1313 1.419 . S
C1311 H1315 0.930 . S
C1312 C1311 1.369 . S
C1312 C1321 1.429 . S
C1313 C1311 1.419 . S
C1313 C1314 1.363 . S
C1313 H1316 0.929 . S
C1314 C1313 1.363 . S
C1314 C1320 1.428 . S
H1315 C1311 0.930 . S
H1316 C1313 0.929 . S
S1317 N1318 1.613 . S
S1317 N1319 1.610 . S
N1318 S1317 1.613 . S
N1318 C1321 1.350 . S
N1319 S1317 1.610 . S
N1319 C1320 1.351 . S
C1320 C1314 1.428 . S
C1320 N1319 1.351 . S
C1320 C1321 1.434 . S
C1321 C1312 1.429 . S
C1321 N1318 1.350 . S
C1321 C1320 1.434 . S
C1322 C1323 1.369 . S
C1322 C1324 1.419 . S
C1322 H1326 0.930 . S
C1323 C1322 1.369 . S
C1323 C1332 1.429 . S
C1324 C1322 1.419 . S
C1324 C1325 1.363 . S
C1324 H1327 0.929 . S
C1325 C1324 1.363 . S
C1325 C1331 1.428 . S
H1326 C1322 0.930 . S
H1327 C1324 0.929 . S
S1328 N1329 1.613 . S
S1328 N1330 1.610 . S
N1329 S1328 1.613 . S
N1329 C1332 1.350 . S
N1330 S1328 1.610 . S
N1330 C1331 1.351 . S
C1331 C1325 1.428 . S
C1331 N1330 1.351 . S
C1331 C1332 1.434 . S
C1332 C1323 1.429 . S
C1332 N1329 1.350 . S
C1332 C1331 1.434 . S
C1333 C1334 1.369 . S
C1333 C1335 1.419 . S
C1333 H1337 0.930 . S
C1334 C1333 1.369 . S
C1334 C1343 1.429 . S
C1335 C1333 1.419 . S
C1335 C1336 1.363 . S
C1335 H1338 0.929 . S
C1336 C1335 1.363 . S
C1336 C1342 1.428 . S
H1337 C1333 0.930 . S
H1338 C1335 0.929 . S
S1339 N1340 1.613 . S
S1339 N1341 1.610 . S
N1340 S1339 1.613 . S
N1340 C1343 1.350 . S
N1341 S1339 1.610 . S
N1341 C1342 1.351 . S
C1342 C1336 1.428 . S
C1342 N1341 1.351 . S
C1342 C1343 1.434 . S
C1343 C1334 1.429 . S
C1343 N1340 1.350 . S
C1343 C1342 1.434 . S
C1344 C1345 1.369 . S
C1344 C1346 1.419 . S
C1344 H1348 0.930 . S
C1345 C1344 1.369 . S
C1345 C1354 1.429 . S
C1346 C1344 1.419 . S
C1346 C1347 1.363 . S
C1346 H1349 0.929 . S
C1347 C1346 1.363 . S
C1347 C1353 1.428 . S
H1348 C1344 0.930 . S
H1349 C1346 0.929 . S
S1350 N1351 1.613 . S
S1350 N1352 1.610 . S
N1351 S1350 1.613 . S
N1351 C1354 1.350 . S
N1352 S1350 1.610 . S
N1352 C1353 1.351 . S
C1353 C1347 1.428 . S
C1353 N1352 1.351 . S
C1353 C1354 1.434 . S
C1354 C1345 1.429 . S
C1354 N1351 1.350 . S
C1354 C1353 1.434 . S
C1355 C1356 1.369 . S
C1355 C1357 1.419 . S
C1355 H1359 0.930 . S
C1356 C1355 1.369 . S
C1356 C1365 1.429 . S
C1357 C1355 1.419 . S
C1357 C1358 1.363 . S
C1357 H1360 0.929 . S
C1358 C1357 1.363 . S
C1358 C1364 1.428 . S
H1359 C1355 0.930 . S
H1360 C1357 0.929 . S
S1361 N1362 1.613 . S
S1361 N1363 1.610 . S
N1362 S1361 1.613 . S
N1362 C1365 1.350 . S
N1363 S1361 1.610 . S
N1363 C1364 1.351 . S
C1364 C1358 1.428 . S
C1364 N1363 1.351 . S
C1364 C1365 1.434 . S
C1365 C1356 1.429 . S
C1365 N1362 1.350 . S
C1365 C1364 1.434 . S
C1366 C1367 1.369 . S
C1366 C1368 1.419 . S
C1366 H1370 0.930 . S
C1367 C1366 1.369 . S
C1367 C1376 1.429 . S
C1368 C1366 1.419 . S
C1368 C1369 1.363 . S
C1368 H1371 0.929 . S
C1369 C1368 1.363 . S
C1369 C1375 1.428 . S
H1370 C1366 0.930 . S
H1371 C1368 0.929 . S
S1372 N1373 1.613 . S
S1372 N1374 1.610 . S
N1373 S1372 1.613 . S
N1373 C1376 1.350 . S
N1374 S1372 1.610 . S
N1374 C1375 1.351 . S
C1375 C1369 1.428 . S
C1375 N1374 1.351 . S
C1375 C1376 1.434 . S
C1376 C1367 1.429 . S
C1376 N1373 1.350 . S
C1376 C1375 1.434 . S
C1377 C1378 1.369 . S
C1377 C1379 1.419 . S
C1377 H1381 0.930 . S
C1378 C1377 1.369 . S
C1378 C1387 1.429 . S
C1379 C1377 1.419 . S
C1379 C1380 1.363 . S
C1379 H1382 0.929 . S
C1380 C1379 1.363 . S
C1380 C1386 1.428 . S
H1381 C1377 0.930 . S
H1382 C1379 0.929 . S
S1383 N1384 1.613 . S
S1383 N1385 1.610 . S
N1384 S1383 1.613 . S
N1384 C1387 1.350 . S
N1385 S1383 1.610 . S
N1385 C1386 1.351 . S
C1386 C1380 1.428 . S
C1386 N1385 1.351 . S
C1386 C1387 1.434 . S
C1387 C1378 1.429 . S
C1387 N1384 1.350 . S
C1387 C1386 1.434 . S
C1388 C1389 1.369 . S
C1388 C1390 1.419 . S
C1388 H1392 0.930 . S
C1389 C1388 1.369 . S
C1389 C1398 1.429 . S
C1390 C1388 1.419 . S
C1390 C1391 1.363 . S
C1390 H1393 0.929 . S
C1391 C1390 1.363 . S
C1391 C1397 1.428 . S
H1392 C1388 0.930 . S
H1393 C1390 0.929 . S
S1394 N1395 1.613 . S
S1394 N1396 1.610 . S
N1395 S1394 1.613 . S
N1395 C1398 1.350 . S
N1396 S1394 1.610 . S
N1396 C1397 1.351 . S
C1397 C1391 1.428 . S
C1397 N1396 1.351 . S
C1397 C1398 1.434 . S
C1398 C1389 1.429 . S
C1398 N1395 1.350 . S
C1398 C1397 1.434 . S
C1399 C1400 1.369 . S
C1399 C1401 1.419 . S
C1399 H1403 0.930 . S
C1400 C1399 1.369 . S
C1400 C1409 1.429 . S
C1401 C1399 1.419 . S
C1401 C1402 1.363 . S
C1401 H1404 0.929 . S
C1402 C1401 1.363 . S
C1402 C1408 1.428 . S
H1403 C1399 0.930 . S
H1404 C1401 0.929 . S
S1405 N1406 1.613 . S
S1405 N1407 1.610 . S
N1406 S1405 1.613 . S
N1406 C1409 1.350 . S
N1407 S1405 1.610 . S
N1407 C1408 1.351 . S
C1408 C1402 1.428 . S
C1408 N1407 1.351 . S
C1408 C1409 1.434 . S
C1409 C1400 1.429 . S
C1409 N1406 1.350 . S
C1409 C1408 1.434 . S
C1410 C1411 1.369 . S
C1410 C1412 1.419 . S
C1410 H1414 0.930 . S
C1411 C1410 1.369 . S
C1411 C1420 1.429 . S
C1412 C1410 1.419 . S
C1412 C1413 1.363 . S
C1412 H1415 0.929 . S
C1413 C1412 1.363 . S
C1413 C1419 1.428 . S
H1414 C1410 0.930 . S
H1415 C1412 0.929 . S
S1416 N1417 1.613 . S
S1416 N1418 1.610 . S
N1417 S1416 1.613 . S
N1417 C1420 1.350 . S
N1418 S1416 1.610 . S
N1418 C1419 1.351 . S
C1419 C1413 1.428 . S
C1419 N1418 1.351 . S
C1419 C1420 1.434 . S
C1420 C1411 1.429 . S
C1420 N1417 1.350 . S
C1420 C1419 1.434 . S
C1421 C1422 1.369 . S
C1421 C1423 1.419 . S
C1421 H1425 0.930 . S
C1422 C1421 1.369 . S
C1422 C1431 1.429 . S
C1423 C1421 1.419 . S
C1423 C1424 1.363 . S
C1423 H1426 0.929 . S
C1424 C1423 1.363 . S
C1424 C1430 1.428 . S
H1425 C1421 0.930 . S
H1426 C1423 0.929 . S
S1427 N1428 1.613 . S
S1427 N1429 1.610 . S
N1428 S1427 1.613 . S
N1428 C1431 1.350 . S
N1429 S1427 1.610 . S
N1429 C1430 1.351 . S
C1430 C1424 1.428 . S
C1430 N1429 1.351 . S
C1430 C1431 1.434 . S
C1431 C1422 1.429 . S
C1431 N1428 1.350 . S
C1431 C1430 1.434 . S
C1432 C1433 1.369 . S
C1432 C1434 1.419 . S
C1432 H1436 0.930 . S
C1433 C1432 1.369 . S
C1433 C1442 1.429 . S
C1434 C1432 1.419 . S
C1434 C1435 1.363 . S
C1434 H1437 0.929 . S
C1435 C1434 1.363 . S
C1435 C1441 1.428 . S
H1436 C1432 0.930 . S
H1437 C1434 0.929 . S
S1438 N1439 1.613 . S
S1438 N1440 1.610 . S
N1439 S1438 1.613 . S
N1439 C1442 1.350 . S
N1440 S1438 1.610 . S
N1440 C1441 1.351 . S
C1441 C1435 1.428 . S
C1441 N1440 1.351 . S
C1441 C1442 1.434 . S
C1442 C1433 1.429 . S
C1442 N1439 1.350 . S
C1442 C1441 1.434 . S
C1443 C1444 1.369 . S
C1443 C1445 1.419 . S
C1443 H1447 0.930 1_556 S
C1444 C1443 1.369 . S
C1444 C1453 1.429 . S
C1445 C1443 1.419 . S
C1445 C1446 1.363 . S
C1445 H1448 0.929 . S
C1446 C1445 1.363 . S
C1446 C1452 1.428 . S
H1447 C1443 0.930 1_554 S
H1448 C1445 0.929 . S
S1449 N1450 1.613 . S
S1449 N1451 1.610 . S
N1450 S1449 1.613 . S
N1450 C1453 1.350 . S
N1451 S1449 1.610 . S
N1451 C1452 1.351 . S
C1452 C1446 1.428 . S
C1452 N1451 1.351 . S
C1452 C1453 1.434 . S
C1453 C1444 1.429 . S
C1453 N1450 1.350 . S
C1453 C1452 1.434 . S
C1454 C1455 1.369 . S
C1454 C1456 1.419 . S
C1454 H1458 0.930 . S
C1455 C1454 1.369 . S
C1455 C1464 1.429 . S
C1456 C1454 1.419 . S
C1456 C1457 1.363 . S
C1456 H1459 0.929 . S
C1457 C1456 1.363 . S
C1457 C1463 1.428 1_655 S
H1458 C1454 0.930 . S
H1459 C1456 0.929 . S
S1460 N1461 1.613 . S
S1460 N1462 1.610 . S
N1461 S1460 1.613 . S
N1461 C1464 1.350 1_455 S
N1462 S1460 1.610 . S
N1462 C1463 1.351 . S
C1463 C1457 1.428 1_455 S
C1463 N1462 1.351 . S
C1463 C1464 1.434 1_455 S
C1464 C1455 1.429 . S
C1464 N1461 1.350 1_655 S
C1464 C1463 1.434 1_655 S
C1465 C1466 1.369 . S
C1465 C1467 1.419 . S
C1465 H1469 0.930 . S
C1466 C1465 1.369 . S
C1466 C1475 1.429 . S
C1467 C1465 1.419 . S
C1467 C1468 1.363 . S
C1467 H1470 0.929 . S
C1468 C1467 1.363 . S
C1468 C1474 1.428 . S
H1469 C1465 0.930 . S
H1470 C1467 0.929 . S
S1471 N1472 1.613 . S
S1471 N1473 1.610 . S
N1472 S1471 1.613 . S
N1472 C1475 1.350 . S
N1473 S1471 1.610 . S
N1473 C1474 1.351 . S
C1474 C1468 1.428 . S
C1474 N1473 1.351 . S
C1474 C1475 1.434 . S
C1475 C1466 1.429 . S
C1475 N1472 1.350 . S
C1475 C1474 1.434 . S
C1476 C1477 1.369 . S
C1476 C1478 1.419 . S
C1476 H1480 0.930 . S
C1477 C1476 1.369 . S
C1477 C1486 1.429 . S
C1478 C1476 1.419 . S
C1478 C1479 1.363 . S
C1478 H1481 0.929 . S
C1479 C1478 1.363 . S
C1479 C1485 1.428 . S
H1480 C1476 0.930 . S
H1481 C1478 0.929 . S
S1482 N1483 1.613 . S
S1482 N1484 1.610 . S
N1483 S1482 1.613 . S
N1483 C1486 1.350 . S
N1484 S1482 1.610 . S
N1484 C1485 1.351 . S
C1485 C1479 1.428 . S
C1485 N1484 1.351 . S
C1485 C1486 1.434 . S
C1486 C1477 1.429 . S
C1486 N1483 1.350 . S
C1486 C1485 1.434 . S
C1487 C1488 1.369 . S
C1487 C1489 1.419 . S
C1487 H1491 0.930 . S
C1488 C1487 1.369 . S
C1488 C1497 1.429 . S
C1489 C1487 1.419 . S
C1489 C1490 1.363 . S
C1489 H1492 0.929 . S
C1490 C1489 1.363 . S
C1490 C1496 1.428 . S
H1491 C1487 0.930 . S
H1492 C1489 0.929 . S
S1493 N1494 1.613 . S
S1493 N1495 1.610 . S
N1494 S1493 1.613 . S
N1494 C1497 1.350 . S
N1495 S1493 1.610 . S
N1495 C1496 1.351 . S
C1496 C1490 1.428 . S
C1496 N1495 1.351 . S
C1496 C1497 1.434 . S
C1497 C1488 1.429 . S
C1497 N1494 1.350 . S
C1497 C1496 1.434 . S
C1498 C1499 1.369 . S
C1498 C1500 1.419 . S
C1498 H1502 0.930 . S
C1499 C1498 1.369 . S
C1499 C1508 1.429 . S
C1500 C1498 1.419 . S
C1500 C1501 1.363 . S
C1500 H1503 0.929 . S
C1501 C1500 1.363 . S
C1501 C1507 1.428 . S
H1502 C1498 0.930 . S
H1503 C1500 0.929 . S
S1504 N1505 1.613 . S
S1504 N1506 1.610 . S
N1505 S1504 1.613 . S
N1505 C1508 1.350 . S
N1506 S1504 1.610 . S
N1506 C1507 1.351 . S
C1507 C1501 1.428 . S
C1507 N1506 1.351 . S
C1507 C1508 1.434 . S
C1508 C1499 1.429 . S
C1508 N1505 1.350 . S
C1508 C1507 1.434 . S
C1509 C1510 1.369 . S
C1509 C1511 1.419 . S
C1509 H1513 0.930 . S
C1510 C1509 1.369 . S
C1510 C1519 1.429 . S
C1511 C1509 1.419 . S
C1511 C1512 1.363 . S
C1511 H1514 0.929 . S
C1512 C1511 1.363 . S
C1512 C1518 1.428 . S
H1513 C1509 0.930 . S
H1514 C1511 0.929 . S
S1515 N1516 1.613 . S
S1515 N1517 1.610 . S
N1516 S1515 1.613 . S
N1516 C1519 1.350 . S
N1517 S1515 1.610 . S
N1517 C1518 1.351 . S
C1518 C1512 1.428 . S
C1518 N1517 1.351 . S
C1518 C1519 1.434 . S
C1519 C1510 1.429 . S
C1519 N1516 1.350 . S
C1519 C1518 1.434 . S
C1520 C1521 1.369 . S
C1520 C1522 1.419 . S
C1520 H1524 0.930 . S
C1521 C1520 1.369 . S
C1521 C1530 1.429 . S
C1522 C1520 1.419 . S
C1522 C1523 1.363 . S
C1522 H1525 0.929 . S
C1523 C1522 1.363 . S
C1523 C1529 1.428 . S
H1524 C1520 0.930 . S
H1525 C1522 0.929 . S
S1526 N1527 1.613 . S
S1526 N1528 1.610 . S
N1527 S1526 1.613 . S
N1527 C1530 1.350 . S
N1528 S1526 1.610 . S
N1528 C1529 1.351 . S
C1529 C1523 1.428 . S
C1529 N1528 1.351 . S
C1529 C1530 1.434 . S
C1530 C1521 1.429 . S
C1530 N1527 1.350 . S
C1530 C1529 1.434 . S
C1531 C1532 1.369 . S
C1531 C1533 1.419 . S
C1531 H1535 0.930 . S
C1532 C1531 1.369 . S
C1532 C1541 1.429 . S
C1533 C1531 1.419 . S
C1533 C1534 1.358 1_565 S
C1533 H1536 0.929 . S
C1534 C1533 1.358 1_545 S
C1534 C1540 1.428 1_545 S
H1535 C1531 0.930 . S
H1536 C1533 0.929 . S
S1537 N1538 1.613 . S
S1537 N1539 1.610 1_565 S
N1538 S1537 1.613 . S
N1538 C1541 1.350 . S
N1539 S1537 1.610 1_545 S
N1539 C1540 1.351 1_545 S
C1540 C1534 1.428 1_565 S
C1540 N1539 1.351 1_565 S
C1540 C1541 1.434 . S
C1541 C1532 1.429 . S
C1541 N1538 1.350 . S
C1541 C1540 1.434 . S
C1542 C1543 1.369 . S
C1542 C1544 1.419 . S
C1542 H1546 0.930 1_565 S
C1543 C1542 1.369 . S
C1543 C1552 1.429 . S
C1544 C1542 1.419 . S
C1544 C1545 1.363 . S
C1544 H1547 0.929 . S
C1545 C1544 1.363 . S
C1545 C1551 1.428 . S
H1546 C1542 0.930 1_545 S
H1547 C1544 0.929 . S
S1548 N1549 1.613 . S
S1548 N1550 1.610 . S
N1549 S1548 1.613 . S
N1549 C1552 1.350 . S
N1550 S1548 1.610 . S
N1550 C1551 1.351 . S
C1551 C1545 1.428 . S
C1551 N1550 1.351 . S
C1551 C1552 1.434 . S
C1552 C1543 1.429 . S
C1552 N1549 1.350 . S
C1552 C1551 1.434 . S
C1553 C1554 1.369 . S
C1553 C1555 1.419 . S
C1553 H1557 0.930 . S
C1554 C1553 1.369 . S
C1554 C1563 1.429 . S
C1555 C1553 1.419 . S
C1555 C1556 1.363 . S
C1555 H1558 0.929 . S
C1556 C1555 1.363 . S
C1556 C1562 1.428 . S
H1557 C1553 0.930 . S
H1558 C1555 0.929 . S
S1559 N1560 1.613 . S
S1559 N1561 1.610 . S
N1560 S1559 1.613 . S
N1560 C1563 1.350 . S
N1561 S1559 1.610 . S
N1561 C1562 1.351 . S
C1562 C1556 1.428 . S
C1562 N1561 1.351 . S
C1562 C1563 1.434 . S
C1563 C1554 1.429 . S
C1563 N1560 1.350 . S
C1563 C1562 1.434 . S
C1564 C1565 1.369 . S
C1564 C1566 1.419 . S
C1564 H1568 0.930 . S
C1565 C1564 1.369 . S
C1565 C1574 1.429 . S
C1566 C1564 1.419 . S
C1566 C1567 1.363 . S
C1566 H1569 0.929 . S
C1567 C1566 1.363 . S
C1567 C1573 1.428 . S
H1568 C1564 0.930 . S
H1569 C1566 0.929 . S
S1570 N1571 1.613 . S
S1570 N1572 1.610 . S
N1571 S1570 1.613 . S
N1571 C1574 1.350 . S
N1572 S1570 1.610 . S
N1572 C1573 1.351 . S
C1573 C1567 1.428 . S
C1573 N1572 1.351 . S
C1573 C1574 1.434 . S
C1574 C1565 1.429 . S
C1574 N1571 1.350 . S
C1574 C1573 1.434 . S
C1575 C1576 1.369 . S
C1575 C1577 1.419 . S
C1575 H1579 0.930 . S
C1576 C1575 1.369 . S
C1576 C1585 1.429 . S
C1577 C1575 1.419 . S
C1577 C1578 1.363 . S
C1577 H1580 0.929 . S
C1578 C1577 1.363 . S
C1578 C1584 1.428 . S
H1579 C1575 0.930 . S
H1580 C1577 0.929 . S
S1581 N1582 1.613 1_556 S
S1581 N1583 1.610 . S
N1582 S1581 1.613 1_554 S
N1582 C1585 1.350 . S
N1583 S1581 1.610 . S
N1583 C1584 1.351 1_556 S
C1584 C1578 1.428 . S
C1584 N1583 1.351 1_554 S
C1584 C1585 1.434 . S
C1585 C1576 1.429 . S
C1585 N1582 1.350 . S
C1585 C1584 1.434 . S
C1586 C1587 1.369 . S
C1586 C1588 1.419 . S
C1586 H1590 0.930 . S
C1587 C1586 1.369 . S
C1587 C1596 1.429 . S
C1588 C1586 1.419 . S
C1588 C1589 1.363 . S
C1588 H1591 0.929 . S
C1589 C1588 1.363 . S
C1589 C1595 1.428 . S
H1590 C1586 0.930 . S
H1591 C1588 0.929 . S
S1592 N1593 1.613 . S
S1592 N1594 1.610 . S
N1593 S1592 1.613 . S
N1593 C1596 1.350 . S
N1594 S1592 1.610 . S
N1594 C1595 1.351 . S
C1595 C1589 1.428 . S
C1595 N1594 1.351 . S
C1595 C1596 1.434 . S
C1596 C1587 1.429 . S
C1596 N1593 1.350 . S
C1596 C1595 1.434 . S
C1597 C1598 1.369 . S
C1597 C1599 1.419 . S
C1597 H1601 0.930 . S
C1598 C1597 1.369 . S
C1598 C1607 1.429 . S
C1599 C1597 1.419 . S
C1599 C1600 1.363 . S
C1599 H1602 0.929 . S
C1600 C1599 1.363 . S
C1600 C1606 1.428 . S
H1601 C1597 0.930 . S
H1602 C1599 0.929 . S
S1603 N1604 1.613 . S
S1603 N1605 1.610 . S
N1604 S1603 1.613 . S
N1604 C1607 1.350 . S
N1605 S1603 1.610 . S
N1605 C1606 1.351 . S
C1606 C1600 1.428 . S
C1606 N1605 1.351 . S
C1606 C1607 1.434 . S
C1607 C1598 1.429 . S
C1607 N1604 1.350 . S
C1607 C1606 1.434 . S
C1608 C1609 1.369 . S
C1608 C1610 1.419 . S
C1608 H1612 0.930 . S
C1609 C1608 1.369 . S
C1609 C1618 1.429 . S
C1610 C1608 1.419 . S
C1610 C1611 1.363 . S
C1610 H1613 0.929 . S
C1611 C1610 1.363 . S
C1611 C1617 1.428 . S
H1612 C1608 0.930 . S
H1613 C1610 0.929 . S
S1614 N1615 1.613 . S
S1614 N1616 1.610 . S
N1615 S1614 1.613 . S
N1615 C1618 1.350 . S
N1616 S1614 1.610 . S
N1616 C1617 1.351 . S
C1617 C1611 1.428 . S
C1617 N1616 1.351 . S
C1617 C1618 1.434 . S
C1618 C1609 1.429 . S
C1618 N1615 1.350 . S
C1618 C1617 1.434 . S
C1619 C1620 1.369 . S
C1619 C1621 1.419 . S
C1619 H1623 0.930 . S
C1620 C1619 1.369 . S
C1620 C1629 1.429 . S
C1621 C1619 1.419 . S
C1621 C1622 1.363 . S
C1621 H1624 0.929 . S
C1622 C1621 1.363 . S
C1622 C1628 1.428 . S
H1623 C1619 0.930 . S
H1624 C1621 0.929 . S
S1625 N1626 1.613 . S
S1625 N1627 1.610 . S
N1626 S1625 1.613 . S
N1626 C1629 1.350 . S
N1627 S1625 1.610 . S
N1627 C1628 1.351 . S
C1628 C1622 1.428 . S
C1628 N1627 1.351 . S
C1628 C1629 1.434 . S
C1629 C1620 1.429 . S
C1629 N1626 1.350 . S
C1629 C1628 1.434 . S
C1630 C1631 1.395 . S
C1630 C1632 1.415 1_455 S
C1630 H1634 0.908 1_455 S
C1631 C1630 1.395 . S
C1631 C1640 1.429 . S
C1632 C1630 1.415 1_655 S
C1632 C1633 1.363 1_655 S
C1632 H1635 0.929 . S
C1633 C1632 1.363 1_455 S
C1633 C1639 1.428 . S
H1634 C1630 0.908 1_655 S
H1635 C1632 0.929 . S
S1636 N1637 1.613 1_554 S
S1636 N1638 1.610 . S
N1637 S1636 1.613 1_556 S
N1637 C1640 1.350 . S
N1638 S1636 1.610 . S
N1638 C1639 1.351 1_554 S
C1639 C1633 1.428 . S
C1639 N1638 1.351 1_556 S
C1639 C1640 1.434 . S
C1640 C1631 1.429 . S
C1640 N1637 1.350 . S
C1640 C1639 1.434 . S
C1641 C1642 1.369 . S
C1641 C1643 1.419 . S
C1641 H1645 0.930 . S
C1642 C1641 1.369 . S
C1642 C1651 1.429 . S
C1643 C1641 1.419 . S
C1643 C1644 1.363 . S
C1643 H1646 0.929 . S
C1644 C1643 1.363 . S
C1644 C1650 1.428 . S
H1645 C1641 0.930 . S
H1646 C1643 0.929 . S
S1647 N1648 1.613 . S
S1647 N1649 1.610 . S
N1648 S1647 1.613 . S
N1648 C1651 1.350 . S
N1649 S1647 1.610 . S
N1649 C1650 1.351 . S
C1650 C1644 1.428 . S
C1650 N1649 1.351 . S
C1650 C1651 1.434 . S
C1651 C1642 1.429 . S
C1651 N1648 1.350 . S
C1651 C1650 1.434 . S
C1652 C1653 1.369 . S
C1652 C1654 1.419 . S
C1652 H1656 0.930 . S
C1653 C1652 1.369 . S
C1653 C1662 1.429 . S
C1654 C1652 1.419 . S
C1654 C1655 1.363 . S
C1654 H1657 0.929 . S
C1655 C1654 1.363 . S
C1655 C1661 1.428 . S
H1656 C1652 0.930 . S
H1657 C1654 0.929 . S
S1658 N1659 1.613 . S
S1658 N1660 1.610 . S
N1659 S1658 1.613 . S
N1659 C1662 1.350 . S
N1660 S1658 1.610 . S
N1660 C1661 1.351 . S
C1661 C1655 1.428 . S
C1661 N1660 1.351 . S
C1661 C1662 1.434 . S
C1662 C1653 1.429 . S
C1662 N1659 1.350 . S
C1662 C1661 1.434 . S
C1663 C1664 1.369 . S
C1663 C1665 1.419 . S
C1663 H1667 0.930 . S
C1664 C1663 1.369 . S
C1664 C1673 1.429 . S
C1665 C1663 1.419 . S
C1665 C1666 1.363 . S
C1665 H1668 0.929 . S
C1666 C1665 1.363 . S
C1666 C1672 1.428 . S
H1667 C1663 0.930 . S
H1668 C1665 0.929 . S
S1669 N1670 1.613 . S
S1669 N1671 1.610 . S
N1670 S1669 1.613 . S
N1670 C1673 1.350 . S
N1671 S1669 1.610 . S
N1671 C1672 1.351 . S
C1672 C1666 1.428 . S
C1672 N1671 1.351 . S
C1672 C1673 1.434 . S
C1673 C1664 1.429 . S
C1673 N1670 1.350 . S
C1673 C1672 1.434 . S
C1674 C1675 1.369 1_655 S
C1674 C1676 1.419 . S
C1674 H1678 0.930 . S
C1675 C1674 1.369 1_455 S
C1675 C1684 1.429 . S
C1676 C1674 1.419 . S
C1676 C1677 1.363 1_655 S
C1676 H1679 0.929 . S
C1677 C1676 1.363 1_455 S
C1677 C1683 1.428 . S
H1678 C1674 0.930 . S
H1679 C1676 0.929 . S
S1680 N1681 1.613 . S
S1680 N1682 1.610 . S
N1681 S1680 1.613 . S
N1681 C1684 1.350 . S
N1682 S1680 1.610 . S
N1682 C1683 1.351 . S
C1683 C1677 1.428 . S
C1683 N1682 1.351 . S
C1683 C1684 1.434 . S
C1684 C1675 1.429 . S
C1684 N1681 1.350 . S
C1684 C1683 1.434 . S
C1685 C1686 1.369 . S
C1685 C1687 1.419 . S
C1685 H1689 0.930 . S
C1686 C1685 1.369 . S
C1686 C1695 1.429 . S
C1687 C1685 1.419 . S
C1687 C1688 1.363 . S
C1687 H1690 0.929 . S
C1688 C1687 1.363 . S
C1688 C1694 1.428 . S
H1689 C1685 0.930 . S
H1690 C1687 0.929 . S
S1691 N1692 1.613 . S
S1691 N1693 1.610 . S
N1692 S1691 1.613 . S
N1692 C1695 1.350 . S
N1693 S1691 1.610 . S
N1693 C1694 1.351 . S
C1694 C1688 1.428 . S
C1694 N1693 1.351 . S
C1694 C1695 1.434 . S
C1695 C1686 1.429 . S
C1695 N1692 1.350 . S
C1695 C1694 1.434 . S
C1696 C1697 1.369 . S
C1696 C1698 1.419 . S
C1696 H1700 0.930 . S
C1697 C1696 1.369 . S
C1697 C1706 1.429 . S
C1698 C1696 1.419 . S
C1698 C1699 1.363 . S
C1698 H1701 0.929 . S
C1699 C1698 1.363 . S
C1699 C1705 1.428 . S
H1700 C1696 0.930 . S
H1701 C1698 0.929 . S
S1702 N1703 1.613 . S
S1702 N1704 1.610 . S
N1703 S1702 1.613 . S
N1703 C1706 1.350 . S
N1704 S1702 1.610 . S
N1704 C1705 1.351 . S
C1705 C1699 1.428 . S
C1705 N1704 1.351 . S
C1705 C1706 1.434 . S
C1706 C1697 1.429 . S
C1706 N1703 1.350 . S
C1706 C1705 1.434 . S
C1707 C1708 1.369 . S
C1707 C1709 1.419 . S
C1707 H1711 0.930 . S
C1708 C1707 1.369 . S
C1708 C1717 1.429 . S
C1709 C1707 1.419 . S
C1709 C1710 1.363 . S
C1709 H1712 0.929 . S
C1710 C1709 1.363 . S
C1710 C1716 1.428 . S
H1711 C1707 0.930 . S
H1712 C1709 0.929 . S
S1713 N1714 1.613 . S
S1713 N1715 1.610 . S
N1714 S1713 1.613 . S
N1714 C1717 1.350 . S
N1715 S1713 1.610 . S
N1715 C1716 1.351 . S
C1716 C1710 1.428 . S
C1716 N1715 1.351 . S
C1716 C1717 1.434 . S
C1717 C1708 1.429 . S
C1717 N1714 1.350 . S
C1717 C1716 1.434 . S
C1718 C1719 1.369 . S
C1718 C1720 1.419 . S
C1718 H1722 0.930 . S
C1719 C1718 1.369 . S
C1719 C1728 1.429 . S
C1720 C1718 1.419 . S
C1720 C1721 1.363 . S
C1720 H1723 0.929 . S
C1721 C1720 1.363 . S
C1721 C1727 1.428 . S
H1722 C1718 0.930 . S
H1723 C1720 0.929 . S
S1724 N1725 1.613 . S
S1724 N1726 1.610 . S
N1725 S1724 1.613 . S
N1725 C1728 1.350 . S
N1726 S1724 1.610 . S
N1726 C1727 1.351 . S
C1727 C1721 1.428 . S
C1727 N1726 1.351 . S
C1727 C1728 1.434 . S
C1728 C1719 1.429 . S
C1728 N1725 1.350 . S
C1728 C1727 1.434 . S
C1729 C1730 1.369 . S
C1729 C1731 1.419 . S
C1729 H1733 0.930 . S
C1730 C1729 1.369 . S
C1730 C1739 1.429 . S
C1731 C1729 1.419 . S
C1731 C1732 1.363 . S
C1731 H1734 0.929 . S
C1732 C1731 1.363 . S
C1732 C1738 1.428 . S
H1733 C1729 0.930 . S
H1734 C1731 0.929 . S
S1735 N1736 1.613 . S
S1735 N1737 1.610 . S
N1736 S1735 1.613 . S
N1736 C1739 1.350 . S
N1737 S1735 1.610 . S
N1737 C1738 1.351 . S
C1738 C1732 1.428 . S
C1738 N1737 1.351 . S
C1738 C1739 1.434 . S
C1739 C1730 1.429 . S
C1739 N1736 1.350 . S
C1739 C1738 1.434 . S
C1740 C1741 1.369 . S
C1740 C1742 1.419 . S
C1740 H1744 0.930 . S
C1741 C1740 1.369 . S
C1741 C1750 1.429 . S
C1742 C1740 1.419 . S
C1742 C1743 1.363 . S
C1742 H1745 0.929 . S
C1743 C1742 1.363 . S
C1743 C1749 1.428 . S
H1744 C1740 0.930 . S
H1745 C1742 0.929 . S
S1746 N1747 1.613 . S
S1746 N1748 1.610 . S
N1747 S1746 1.613 . S
N1747 C1750 1.350 . S
N1748 S1746 1.610 . S
N1748 C1749 1.351 . S
C1749 C1743 1.428 . S
C1749 N1748 1.351 . S
C1749 C1750 1.434 . S
C1750 C1741 1.429 . S
C1750 N1747 1.350 . S
C1750 C1749 1.434 . S
C1751 C1752 1.369 . S
C1751 C1753 1.419 . S
C1751 H1755 0.930 . S
C1752 C1751 1.369 . S
C1752 C1761 1.429 . S
C1753 C1751 1.419 . S
C1753 C1754 1.363 . S
C1753 H1756 0.929 . S
C1754 C1753 1.363 . S
C1754 C1760 1.428 . S
H1755 C1751 0.930 . S
H1756 C1753 0.929 . S
S1757 N1758 1.613 . S
S1757 N1759 1.610 . S
N1758 S1757 1.613 . S
N1758 C1761 1.350 . S
N1759 S1757 1.610 . S
N1759 C1760 1.351 . S
C1760 C1754 1.428 . S
C1760 N1759 1.351 . S
C1760 C1761 1.434 . S
C1761 C1752 1.429 . S
C1761 N1758 1.350 . S
C1761 C1760 1.434 . S
C1762 C1763 1.369 . S
C1762 C1764 1.419 . S
C1762 H1766 0.930 . S
C1763 C1762 1.369 . S
C1763 C1772 1.429 . S
C1764 C1762 1.419 . S
C1764 C1765 1.363 . S
C1764 H1767 0.929 . S
C1765 C1764 1.363 . S
C1765 C1771 1.428 . S
H1766 C1762 0.930 . S
H1767 C1764 0.929 . S
S1768 N1769 1.613 . S
S1768 N1770 1.610 . S
N1769 S1768 1.613 . S
N1769 C1772 1.350 . S
N1770 S1768 1.610 . S
N1770 C1771 1.351 . S
C1771 C1765 1.428 . S
C1771 N1770 1.351 . S
C1771 C1772 1.434 . S
C1772 C1763 1.429 . S
C1772 N1769 1.350 . S
C1772 C1771 1.434 . S
C1773 C1774 1.369 . S
C1773 C1775 1.419 . S
C1773 H1777 0.930 . S
C1774 C1773 1.369 . S
C1774 C1783 1.429 . S
C1775 C1773 1.419 . S
C1775 C1776 1.363 . S
C1775 H1778 0.929 . S
C1776 C1775 1.363 . S
C1776 C1782 1.428 . S
H1777 C1773 0.930 . S
H1778 C1775 0.929 . S
S1779 N1780 1.613 . S
S1779 N1781 1.610 . S
N1780 S1779 1.613 . S
N1780 C1783 1.350 . S
N1781 S1779 1.610 . S
N1781 C1782 1.351 . S
C1782 C1776 1.428 . S
C1782 N1781 1.351 . S
C1782 C1783 1.434 . S
C1783 C1774 1.429 . S
C1783 N1780 1.350 . S
C1783 C1782 1.434 . S
C1784 C1785 1.369 . S
C1784 C1786 1.419 . S
C1784 H1788 0.930 . S
C1785 C1784 1.369 . S
C1785 C1794 1.429 . S
C1786 C1784 1.419 . S
C1786 C1787 1.363 . S
C1786 H1789 0.929 . S
C1787 C1786 1.363 . S
C1787 C1793 1.428 . S
H1788 C1784 0.930 . S
H1789 C1786 0.929 . S
S1790 N1791 1.613 . S
S1790 N1792 1.610 . S
N1791 S1790 1.613 . S
N1791 C1794 1.350 . S
N1792 S1790 1.610 . S
N1792 C1793 1.351 . S
C1793 C1787 1.428 . S
C1793 N1792 1.351 . S
C1793 C1794 1.434 . S
C1794 C1785 1.429 . S
C1794 N1791 1.350 . S
C1794 C1793 1.434 . S
C1795 C1796 1.369 . S
C1795 C1797 1.419 . S
C1795 H1799 0.930 . S
C1796 C1795 1.369 . S
C1796 C1805 1.429 . S
C1797 C1795 1.419 . S
C1797 C1798 1.363 . S
C1797 H1800 0.929 . S
C1798 C1797 1.363 . S
C1798 C1804 1.428 . S
H1799 C1795 0.930 . S
H1800 C1797 0.929 . S
S1801 N1802 1.613 . S
S1801 N1803 1.610 . S
N1802 S1801 1.613 . S
N1802 C1805 1.350 . S
N1803 S1801 1.610 . S
N1803 C1804 1.351 . S
C1804 C1798 1.428 . S
C1804 N1803 1.351 . S
C1804 C1805 1.434 . S
C1805 C1796 1.429 . S
C1805 N1802 1.350 . S
C1805 C1804 1.434 . S
C1806 C1807 1.369 . S
C1806 C1808 1.419 . S
C1806 H1810 0.930 . S
C1807 C1806 1.369 . S
C1807 C1816 1.429 . S
C1808 C1806 1.419 . S
C1808 C1809 1.363 . S
C1808 H1811 0.929 . S
C1809 C1808 1.363 . S
C1809 C1815 1.428 . S
H1810 C1806 0.930 . S
H1811 C1808 0.929 . S
S1812 N1813 1.613 . S
S1812 N1814 1.610 . S
N1813 S1812 1.613 . S
N1813 C1816 1.350 . S
N1814 S1812 1.610 . S
N1814 C1815 1.351 . S
C1815 C1809 1.428 . S
C1815 N1814 1.351 . S
C1815 C1816 1.434 . S
C1816 C1807 1.429 . S
C1816 N1813 1.350 . S
C1816 C1815 1.434 . S
C1817 C1818 1.369 . S
C1817 C1819 1.419 . S
C1817 H1821 0.930 . S
C1818 C1817 1.369 . S
C1818 C1827 1.454 . S
C1819 C1817 1.419 . S
C1819 C1820 1.363 . S
C1819 H1822 0.929 1_565 S
C1820 C1819 1.363 . S
C1820 C1826 1.428 1_554 S
H1821 C1817 0.930 . S
H1822 C1819 0.929 1_545 S
S1823 N1824 1.613 . S
S1823 N1825 1.610 . S
N1824 S1823 1.613 . S
N1824 C1827 1.327 1_556 S
N1825 S1823 1.610 . S
N1825 C1826 1.351 . S
C1826 C1820 1.428 1_556 S
C1826 N1825 1.351 . S
C1826 C1827 1.430 1_556 S
C1827 C1818 1.454 . S
C1827 N1824 1.327 1_554 S
C1827 C1826 1.430 1_554 S
C1828 C1829 1.369 . S
C1828 C1830 1.419 . S
C1828 H1832 0.930 . S
C1829 C1828 1.369 . S
C1829 C1838 1.429 . S
C1830 C1828 1.419 . S
C1830 C1831 1.363 . S
C1830 H1833 0.929 . S
C1831 C1830 1.363 . S
C1831 C1837 1.428 . S
H1832 C1828 0.930 . S
H1833 C1830 0.929 . S
S1834 N1835 1.613 . S
S1834 N1836 1.610 . S
N1835 S1834 1.613 . S
N1835 C1838 1.350 . S
N1836 S1834 1.610 . S
N1836 C1837 1.351 . S
C1837 C1831 1.428 . S
C1837 N1836 1.351 . S
C1837 C1838 1.434 . S
C1838 C1829 1.429 . S
C1838 N1835 1.350 . S
C1838 C1837 1.434 . S
C1839 C1840 1.369 . S
C1839 C1841 1.419 . S
C1839 H1843 0.930 . S
C1840 C1839 1.369 . S
C1840 C1849 1.429 1_554 S
C1841 C1839 1.419 . S
C1841 C1842 1.363 . S
C1841 H1844 0.929 . S
C1842 C1841 1.363 . S
C1842 C1848 1.428 . S
H1843 C1839 0.930 . S
H1844 C1841 0.929 . S
S1845 N1846 1.613 . S
S1845 N1847 1.610 . S
N1846 S1845 1.613 . S
N1846 C1849 1.350 . S
N1847 S1845 1.610 . S
N1847 C1848 1.351 1_556 S
C1848 C1842 1.428 . S
C1848 N1847 1.351 1_554 S
C1848 C1849 1.434 1_554 S
C1849 C1840 1.429 1_556 S
C1849 N1846 1.350 . S
C1849 C1848 1.434 1_556 S
C1850 C1851 1.369 . S
C1850 C1852 1.419 . S
C1850 H1854 0.930 . S
C1851 C1850 1.369 . S
C1851 C1860 1.429 . S
C1852 C1850 1.419 . S
C1852 C1853 1.363 . S
C1852 H1855 0.929 . S
C1853 C1852 1.363 . S
C1853 C1859 1.428 . S
H1854 C1850 0.930 . S
H1855 C1852 0.929 . S
S1856 N1857 1.613 . S
S1856 N1858 1.610 . S
N1857 S1856 1.613 . S
N1857 C1860 1.350 . S
N1858 S1856 1.610 . S
N1858 C1859 1.351 . S
C1859 C1853 1.428 . S
C1859 N1858 1.351 . S
C1859 C1860 1.434 . S
C1860 C1851 1.429 . S
C1860 N1857 1.350 . S
C1860 C1859 1.434 . S
C1861 C1862 1.369 . S
C1861 C1863 1.419 . S
C1861 H1865 0.930 . S
C1862 C1861 1.369 . S
C1862 C1871 1.429 . S
C1863 C1861 1.419 . S
C1863 C1864 1.363 . S
C1863 H1866 0.929 . S
C1864 C1863 1.363 . S
C1864 C1870 1.428 . S
H1865 C1861 0.930 . S
H1866 C1863 0.929 . S
S1867 N1868 1.613 . S
S1867 N1869 1.610 . S
N1868 S1867 1.613 . S
N1868 C1871 1.350 . S
N1869 S1867 1.610 . S
N1869 C1870 1.351 . S
C1870 C1864 1.428 . S
C1870 N1869 1.351 . S
C1870 C1871 1.434 . S
C1871 C1862 1.429 . S
C1871 N1868 1.350 . S
C1871 C1870 1.434 . S
C819 C337 1.874 . S
C817 C5 1.917 . S
C828 C23 1.115 . S
C830 C382 1.099 . S
C839 C39 1.752 . S
C841 C406 1.723 . S
C852 N432 1.222 . S
C850 C42 1.161 . S
C861 C19 1.316 . S
C863 N462 1.347 . S
C874 C496 1.659 . S
C872 C28 1.680 . S
C885 C532 1.236 1_556 S
C883 C53 1.237 . S
C894 C9 1.867 . S
C896 C556 1.834 . S
C905 C65 1.111 . S
C907 N350 1.113 . S
C916 C75 1.313 . S
C918 N372 1.350 . S
C929 C412 1.174 . S
C927 C93 1.183 . S
C940 C436 1.773 . S
C938 C109 1.803 . S
C949 C56 1.285 . S
C951 C466 1.279 . S
C962 C502 1.185 . S
C960 C81 1.169 . S
C973 N522 1.274 . S
C971 C84 1.231 . S
C984 C562 1.809 . S
C982 C103 1.841 . S
C995 C363 1.759 . S
C993 C107 1.788 . S
C1006 C592 1.124 . S
C1004 C121 1.138 . S
C1015 C131 1.308 . S
C1017 N612 1.331 . S
C1028 C646 1.676 . S
C1026 C140 1.695 . S
C1037 C61 1.080 . S
C1039 N552 1.079 . S
C1050 N402 1.226 1_565 S
C1048 C70 1.176 . S
C1059 C137 1.154 . S
C1061 C682 1.149 . S
C1072 C706 1.119 . S
C1070 C165 1.139 . S
C1081 C173 1.898 . S
C1083 C346 1.854 1_556 S
C1094 C723 1.065 . S
C1092 C182 1.067 . S
C1103 C207 1.738 . S
C1105 C397 1.701 . S
C1114 C219 1.201 . S
C1116 N680 1.218 . S
C1127 N470 1.321 . S
C1125 C187 1.290 . S
C1138 C607 1.646 . S
C1136 C205 1.686 . S
C1149 C543 1.215 . S
C1147 C221 1.207 . S
C1160 C727 1.806 . S
C1158 C168 1.844 . S
C1171 N342 1.092 . S
C1169 C224 1.092 . S
C1180 C243 1.300 . S
C1182 N710 1.329 . S
C1193 C423 1.125 . S
C1191 C252 1.125 . S
C1202 C277 1.781 . S
C1204 C667 1.745 . S
C1213 C233 1.335 . S
C1215 C457 1.278 1_655 S
C1224 C249 1.154 . S
C1226 C633 1.163 . S
C1237 N530 1.265 . S
C1235 C261 1.259 . S
C1246 C271 1.822 . S
C1248 C753 1.795 . S
C1257 C266 1.768 . S
C1259 C352 1.741 . S
C1268 C280 1.086 . S
C1270 C603 1.092 . S
C1279 C299 1.270 . S
C1281 N500 1.297 . S
C1290 C317 1.692 . S
C1292 C637 1.651 . S
C1303 N740 1.069 . S
C1301 C229 1.067 1_565 S
C1314 N410 1.236 . S
C1312 C247 1.219 . S
C1325 C453 1.128 . S
C1323 C305 1.124 . S
C1336 C367 1.127 . S
C1334 C333 1.156 . S
C1345 C33 1.916 . S
C1347 C757 1.875 . S
C1358 C712 1.105 . S
C1356 C51 1.112 . S
C1369 C796 1.722 . S
C1367 C11 1.753 . S
C1378 C14 1.167 1_655 S
C1380 N672 1.220 . S
C1389 C47 1.312 . S
C1391 N582 1.349 1_556 S
C1402 C616 1.661 . S
C1400 C0 1.676 . S
C1413 C652 1.235 . S
C1411 C25 1.237 . S
C1424 C736 1.832 . S
C1422 C37 1.868 . S
C1435 N770 1.112 . S
C1433 C163 1.106 . S
C1444 C117 1.321 1_556 S
C1446 N702 1.347 . S
C1455 C135 1.182 . S
C1457 C802 1.174 1_655 S
C1468 C676 1.771 . S
C1466 C151 1.804 . S
C1479 C586 1.275 . S
C1477 C154 1.293 . S
C1488 C123 1.169 . S
C1490 C622 1.186 . S
C1501 N642 1.274 1_655 S
C1499 C126 1.230 . S
C1510 C145 1.838 . S
C1512 C742 1.812 . S
C1523 C783 1.763 . S
C1521 C149 1.784 . S
C1534 C472 1.132 . S
C1532 C79 1.139 . S
C1545 N492 1.332 . S
C1543 C89 1.307 1_565 S
C1554 C98 1.695 . S
C1556 C526 1.675 . S
C1567 N732 1.079 . S
C1565 C159 1.080 . S
C1576 C112 1.173 . S
C1578 N792 1.229 . S
C1589 C442 1.154 . S
C1587 C95 1.150 . S
C1600 C376 1.112 . S
C1598 C67 1.146 . S
C1609 C201 1.899 . S
C1611 C766 1.854 . S
C1622 C393 1.069 . S
C1620 C210 1.056 . S
C1633 C787 1.698 1_556 S
C1631 C179 1.740 . S
C1642 C191 1.207 . S
C1644 N440 1.211 . S
C1653 C215 1.285 . S
C1655 N590 1.323 . S
C1664 C177 1.685 . S
C1666 C487 1.651 . S
C1675 C193 1.210 . S
C1677 C663 1.210 . S
C1686 C196 1.843 . S
C1688 C547 1.807 . S
C1699 N762 1.093 . S
C1697 C322 1.090 . S
C1708 C285 1.295 . S
C1710 N380 1.331 . S
C1721 C813 1.127 . S
C1719 C294 1.121 . S
C1730 C319 1.779 . S
C1732 C427 1.745 . S
C1741 C331 1.332 . S
C1743 C577 1.284 . S
C1754 C513 1.163 . S
C1752 C291 1.151 . S
C1763 C303 1.254 . S
C1765 N650 1.268 . S
C1776 C573 1.793 . S
C1774 C313 1.823 . S
C1787 C772 1.738 . S
C1785 C308 1.766 . S
C1798 C483 1.096 . S
C1796 C238 1.076 . S
C1807 C257 1.272 . S
C1809 N620 1.296 . S
C1820 C517 1.655 1_565 S
C1818 C275 1.691 . S
C1831 N560 1.067 . S
C1829 C327 1.067 . S
C1840 C289 1.226 . S
C1842 N800 1.233 . S
C1853 C693 1.123 . S
C1851 C263 1.124 . S
C1864 C697 1.123 . S
C1862 C235 1.157 . S
