# Generated by pormake.
# Topology ssb, (4,4)-cn, num edge types: 1
# Building blocks:
#     Node 0, Type 0, BuildingBlock: NAWXER_clean_sbu_0, # of connection points: 4
#     Node 1, Type 0, BuildingBlock: NAWXER_clean_sbu_0, # of connection points: 4
#     Node 2, Type 0, BuildingBlock: NAWXER_clean_sbu_0, # of connection points: 4
#     Node 3, Type 0, BuildingBlock: NAWXER_clean_sbu_0, # of connection points: 4
#     Node 4, Type 0, BuildingBlock: NAWXER_clean_sbu_0, # of connection points: 4
#     Node 5, Type 0, BuildingBlock: NAWXER_clean_sbu_0, # of connection points: 4
#     Node 6, Type 0, BuildingBlock: NAWXER_clean_sbu_0, # of connection points: 4
#     Node 7, Type 0, BuildingBlock: NAWXER_clean_sbu_0, # of connection points: 4
#     Node 8, Type 1, BuildingBlock: KOZSID_clean_sbu_0, # of connection points: 4
#     Node 9, Type 1, BuildingBlock: KOZSID_clean_sbu_0, # of connection points: 4
#     Node 10, Type 1, BuildingBlock: KOZSID_clean_sbu_0, # of connection points: 4
#     Node 11, Type 1, BuildingBlock: KOZSID_clean_sbu_0, # of connection points: 4
#     Node 12, Type 1, BuildingBlock: KOZSID_clean_sbu_0, # of connection points: 4
#     Node 13, Type 1, BuildingBlock: KOZSID_clean_sbu_0, # of connection points: 4
#     Node 14, Type 1, BuildingBlock: KOZSID_clean_sbu_0, # of connection points: 4
#     Node 15, Type 1, BuildingBlock: KOZSID_clean_sbu_0, # of connection points: 4
#     Edge 16, Type (0, 1), None
#     Edge 17, Type (0, 1), None
#     Edge 18, Type (0, 1), None
#     Edge 19, Type (0, 1), None
#     Edge 20, Type (0, 1), None
#     Edge 21, Type (0, 1), None
#     Edge 22, Type (0, 1), None
#     Edge 23, Type (0, 1), None
#     Edge 24, Type (0, 1), None
#     Edge 25, Type (0, 1), None
#     Edge 26, Type (0, 1), None
#     Edge 27, Type (0, 1), None
#     Edge 28, Type (0, 1), None
#     Edge 29, Type (0, 1), None
#     Edge 30, Type (0, 1), None
#     Edge 31, Type (0, 1), None
#     Edge 32, Type (0, 1), None
#     Edge 33, Type (0, 1), None
#     Edge 34, Type (0, 1), None
#     Edge 35, Type (0, 1), None
#     Edge 36, Type (0, 1), None
#     Edge 37, Type (0, 1), None
#     Edge 38, Type (0, 1), None
#     Edge 39, Type (0, 1), None
#     Edge 40, Type (0, 1), None
#     Edge 41, Type (0, 1), None
#     Edge 42, Type (0, 1), None
#     Edge 43, Type (0, 1), None
#     Edge 44, Type (0, 1), None
#     Edge 45, Type (0, 1), None
#     Edge 46, Type (0, 1), None
#     Edge 47, Type (0, 1), None
# Relax obj value: 0.017
# Max RMSD: 0.058
# Mean RMSD: 0.038
data_MOF--net-ssb--node1-NAWXER_clean_sbu_0--node2-KOZSID_clean_sbu_0--edge1-none
_symmetry_space_group_name_H-M    P1
_symmetry_Int_Tables_number       1
_symmetry_cell_setting            triclinic
loop_
_symmetry_equiv_pos_as_xyz
'x, y, z'
_cell_length_a     25.992958
_cell_length_b     25.939952
_cell_length_c     18.711994
_cell_angle_alpha  94.553416
_cell_angle_beta   99.037204
_cell_angle_gamma 90.296269
loop_
_atom_site_label
_atom_site_type_symbol
_atom_site_fract_x
_atom_site_fract_y
_atom_site_fract_z
_atom_type_partial_charge
C0 C 0.22579 0.28725 0.40109 0.0
C1 C 0.38904 0.26084 0.29439 0.0
O2 O 0.22069 0.26242 0.33854 0.0
Zn3 Zn 0.26598 0.23422 0.26016 0.0
O4 O 0.27079 0.30494 0.43017 0.0
Zn5 Zn 0.31135 0.27726 0.35377 0.0
O6 O 0.28899 0.32518 0.26418 0.0
O7 O 0.24115 0.27863 0.17503 0.0
O8 O 0.3874 0.28616 0.35537 0.0
O9 O 0.34731 0.23978 0.25817 0.0
O10 O 0.25692 0.1572 0.27314 0.0
O11 O 0.3046 0.19552 0.3701 0.0
C12 C 0.26355 0.32202 0.19939 0.0
C13 C 0.28229 0.15411 0.33713 0.0
C14 C 0.70332 0.25533 0.19407 0.0
C15 C 0.87784 0.27268 0.35625 0.0
O16 O 0.70478 0.28162 0.25522 0.0
Zn17 Zn 0.75804 0.30636 0.35075 0.0
O18 O 0.74538 0.23592 0.17768 0.0
Zn19 Zn 0.79374 0.26112 0.26812 0.0
O20 O 0.76678 0.21861 0.34434 0.0
O21 O 0.7318 0.26906 0.4243 0.0
O22 O 0.86931 0.24785 0.29365 0.0
O23 O 0.84019 0.29591 0.3809 0.0
O24 O 0.75457 0.38131 0.34716 0.0
O25 O 0.79457 0.34187 0.26247 0.0
C26 C 0.74439 0.22436 0.40019 0.0
C27 C 0.77937 0.38336 0.29385 0.0
C28 C 0.78573 0.69635 0.1795 0.0
C29 C 0.76168 0.86822 0.34452 0.0
O30 O 0.7614 0.69411 0.2336 0.0
Zn31 Zn 0.73919 0.74343 0.3219 0.0
O32 O 0.80403 0.74073 0.16908 0.0
Zn33 Zn 0.77938 0.78758 0.25232 0.0
O34 O 0.83031 0.76049 0.34038 0.0
O35 O 0.78694 0.71433 0.40516 0.0
O36 O 0.78501 0.86553 0.28874 0.0
O37 O 0.74263 0.8257 0.36088 0.0
O38 O 0.66214 0.73375 0.28886 0.0
O39 O 0.6975 0.78018 0.21525 0.0
C40 C 0.83034 0.73303 0.39407 0.0
C41 C 0.65713 0.7584 0.23165 0.0
C42 C 0.258 0.64545 0.25099 0.0
C43 C 0.27255 0.81883 0.36974 0.0
O44 O 0.23368 0.67968 0.21392 0.0
Zn45 Zn 0.2206 0.75978 0.2203 0.0
O46 O 0.28332 0.6578 0.31403 0.0
Zn47 Zn 0.2689 0.73067 0.31522 0.0
O48 O 0.18811 0.73155 0.32037 0.0
O49 O 0.14404 0.76345 0.22356 0.0
O50 O 0.29525 0.77957 0.39604 0.0
O51 O 0.24548 0.81523 0.30643 0.0
O52 O 0.26077 0.78031 0.14314 0.0
O53 O 0.31241 0.75214 0.23597 0.0
C54 C 0.1448 0.74501 0.28508 0.0
C55 C 0.30665 0.76972 0.17345 0.0
C56 C 0.38219 0.78132 0.80284 0.0
C57 C 0.20059 0.75542 0.65975 0.0
O58 O 0.34608 0.80753 0.82722 0.0
Zn59 Zn 0.26388 0.82061 0.80025 0.0
O60 O 0.37125 0.75512 0.74143 0.0
Zn61 Zn 0.29507 0.76967 0.72121 0.0
O62 O 0.29489 0.84972 0.68999 0.0
O63 O 0.2615 0.89613 0.77361 0.0
O64 O 0.24164 0.73468 0.64185 0.0
O65 O 0.20533 0.78738 0.71622 0.0
O66 O 0.24242 0.78614 0.88674 0.0
O67 O 0.27687 0.73119 0.81328 0.0
C68 C 0.28026 0.89416 0.71413 0.0
C69 C 0.25771 0.74016 0.87199 0.0
C70 C 0.28893 0.24118 0.72465 0.0
C71 C 0.26984 0.41052 0.84378 0.0
O72 O 0.268 0.23998 0.7818 0.0
Zn73 Zn 0.24518 0.29135 0.86319 0.0
O74 O 0.30157 0.28418 0.7032 0.0
Zn75 Zn 0.2798 0.32645 0.78117 0.0
O76 O 0.33592 0.30416 0.86973 0.0
O77 O 0.29459 0.26787 0.94736 0.0
O78 O 0.28967 0.40016 0.78662 0.0
O79 O 0.25229 0.37409 0.87635 0.0
O80 O 0.168 0.27809 0.84086 0.0
O81 O 0.19683 0.31571 0.75316 0.0
C82 C 0.33742 0.28123 0.92809 0.0
C83 C 0.15883 0.29638 0.77883 0.0
C84 C 0.76142 0.16063 0.74492 0.0
C85 C 0.7896 0.33718 0.90612 0.0
O86 O 0.74083 0.20122 0.71809 0.0
Zn87 Zn 0.73743 0.28461 0.74772 0.0
O88 O 0.78633 0.16596 0.81003 0.0
Zn89 Zn 0.78108 0.24394 0.83465 0.0
O90 O 0.70012 0.25007 0.83883 0.0
O91 O 0.66103 0.29382 0.74997 0.0
O92 O 0.8093 0.29408 0.92466 0.0
O93 O 0.76302 0.33733 0.84242 0.0
O94 O 0.78053 0.30919 0.67626 0.0
O95 O 0.82684 0.26442 0.75769 0.0
C96 C 0.65877 0.27011 0.80676 0.0
C97 C 0.8235 0.28809 0.7 0.0
C98 C 0.87842 0.75109 0.77324 0.0
C99 C 0.71418 0.7667 0.88444 0.0
O100 O 0.83629 0.73194 0.73581 0.0
Zn101 Zn 0.75479 0.72508 0.73785 0.0
O102 O 0.8772 0.77523 0.8353 0.0
Zn103 Zn 0.80081 0.76592 0.83487 0.0
O104 O 0.79626 0.68491 0.83233 0.0
O105 O 0.74797 0.65003 0.73135 0.0
O106 O 0.75806 0.7877 0.91229 0.0
O107 O 0.70935 0.74331 0.82097 0.0
O108 O 0.7279 0.76813 0.65967 0.0
O109 O 0.77605 0.81299 0.75201 0.0
C110 C 0.7767 0.64518 0.79225 0.0
C111 C 0.74998 0.81039 0.68825 0.0
C112 C 0.0843 0.33816 0.6984 0.0
C113 C 0.0963 0.38729 0.73086 0.0
C114 C 0.0808 0.42121 0.67946 0.0
C115 C 0.0592 0.39079 0.61866 0.0
N116 N 0.05874 0.34002 0.62929 0.0
Co117 Co 0.02752 0.28358 0.55672 0.0
N118 N 0.99445 0.33305 0.48783 0.0
C119 C 1.00579 0.38395 0.49064 0.0
C120 C 0.97564 0.40857 0.43701 0.0
C121 C 0.9433 0.37081 0.39814 0.0
C122 C 0.95535 0.32523 0.43039 0.0
N123 N 0.99567 0.22681 0.48433 0.0
C124 C 0.95665 0.22807 0.42676 0.0
C125 C 0.94555 0.1791 0.39211 0.0
C126 C 0.97892 0.14606 0.42895 0.0
C127 C 1.00827 0.17656 0.48393 0.0
N128 N 0.06149 0.2334 0.62517 0.0
C129 C 0.06587 0.1822 0.60854 0.0
C130 C 0.09402 0.15715 0.66319 0.0
C131 C 0.10955 0.19486 0.71763 0.0
C132 C 0.08997 0.24107 0.69305 0.0
N133 N 0.96368 0.28465 0.60279 0.0
C134 C 0.86957 0.28702 0.6613 0.0
C135 C 0.89642 0.24065 0.65168 0.0
C136 C 0.94273 0.24013 0.62154 0.0
C137 C 0.89078 0.33206 0.64076 0.0
C138 C 0.93801 0.3302 0.61294 0.0
N139 N 0.09077 0.28418 0.50947 0.0
C140 C 0.1291 0.28266 0.39971 0.0
C141 C 0.17944 0.29019 0.43951 0.0
C142 C 0.18433 0.29474 0.51538 0.0
C143 C 0.13979 0.29122 0.54907 0.0
C144 C 0.08568 0.28017 0.43532 0.0
H145 H 0.14553 0.29421 0.60725 0.0
H146 H 0.04782 0.27513 0.4024 0.0
H147 H 0.96153 0.20367 0.61351 0.0
H148 H 0.95349 0.36608 0.59982 0.0
C149 C 0.0362 0.4085 0.55248 0.0
C150 C 0.10616 0.29166 0.7313 0.0
C151 C 0.93032 0.27503 0.40297 0.0
C152 C 0.04159 0.15859 0.54212 0.0
H153 H 0.11561 0.39663 0.78576 0.0
H154 H 0.08472 0.46296 0.68576 0.0
H155 H 0.97516 0.44952 0.42948 0.0
H156 H 0.91381 0.37607 0.35188 0.0
H157 H 0.9163 0.16822 0.34549 0.0
H158 H 0.98004 0.10444 0.41874 0.0
H159 H 0.10287 0.11641 0.66309 0.0
H160 H 0.1343 0.18928 0.76847 0.0
H161 H 0.88157 0.20478 0.66724 0.0
H162 H 0.8721 0.36886 0.64862 0.0
H163 H 0.1231 0.27848 0.34091 0.0
H164 H 0.22235 0.29949 0.54865 0.0
C165 C 0.7092 0.08863 0.65379 0.0
C166 C 0.66108 0.10661 0.66672 0.0
C167 C 0.62421 0.08066 0.61606 0.0
C168 C 0.65156 0.04824 0.57483 0.0
N169 N 0.70354 0.05063 0.59742 0.0
Co170 Co 0.75637 0.01639 0.54224 0.0
N171 N 0.70303 0.97886 0.46566 0.0
C172 C 0.65106 0.98033 0.46553 0.0
C173 C 0.62391 0.94194 0.42018 0.0
C174 C 0.66081 0.91368 0.39056 0.0
C175 C 0.70871 0.93684 0.41775 0.0
N176 N 0.80922 0.98616 0.48352 0.0
C177 C 0.80461 0.95186 0.42299 0.0
C178 C 0.85154 0.94775 0.39664 0.0
C179 C 0.88693 0.97888 0.44287 0.0
C180 C 0.8601 0.99968 0.49554 0.0
N181 N 0.81075 0.04919 0.62217 0.0
C182 C 0.86269 0.04384 0.62478 0.0
C183 C 0.89151 0.07144 0.6832 0.0
C184 C 0.85598 0.09661 0.71943 0.0
C185 C 0.80701 0.08338 0.68092 0.0
N186 N 0.75636 0.95365 0.59504 0.0
C187 C 0.75038 0.85648 0.64845 0.0
C188 C 0.79765 0.87545 0.63328 0.0
C189 C 0.79977 0.92399 0.60633 0.0
C190 C 0.70682 0.88731 0.63926 0.0
C191 C 0.71085 0.93589 0.61375 0.0
N192 N 0.7544 0.07979 0.48955 0.0
C193 C 0.78918 0.16529 0.48245 0.0
C194 C 0.74297 0.17911 0.44085 0.0
C195 C 0.7034 0.14205 0.42057 0.0
C196 C 0.70981 0.09279 0.44551 0.0
C197 C 0.79444 0.11558 0.50497 0.0
H198 H 0.67828 0.06595 0.42804 0.0
H199 H 0.83151 0.1073 0.53444 0.0
H200 H 0.83656 0.93709 0.59475 0.0
H201 H 0.67646 0.95824 0.60937 0.0
C202 C 0.63003 0.01453 0.51499 0.0
C203 C 0.759 0.10943 0.69663 0.0
C204 C 0.75822 0.91892 0.39358 0.0
C205 C 0.8826 0.0234 0.56319 0.0
H206 H 0.65349 0.13599 0.70798 0.0
H207 H 0.58244 0.08551 0.60937 0.0
H208 H 0.5825 0.93349 0.41292 0.0
H209 H 0.65353 0.87851 0.35576 0.0
H210 H 0.86032 0.92281 0.35124 0.0
H211 H 0.92838 0.98191 0.44198 0.0
H212 H 0.93347 0.07624 0.69472 0.0
H213 H 0.86549 0.12423 0.76611 0.0
H214 H 0.83288 0.85317 0.6431 0.0
H215 H 0.67039 0.87485 0.65426 0.0
H216 H 0.82224 0.19201 0.49442 0.0
H217 H 0.66854 0.15046 0.38367 0.0
C218 C 0.11799 0.7947 0.59369 0.0
C219 C 0.14082 0.84377 0.60079 0.0
C220 C 0.10184 0.87731 0.58162 0.0
C221 C 0.05777 0.84727 0.56356 0.0
N222 N 0.06591 0.79627 0.5688 0.0
Co223 Co 1.01364 0.7394 0.53145 0.0
N224 N 0.95732 0.78918 0.50083 0.0
C225 C 0.96039 0.84078 0.5172 0.0
C226 C 0.9132 0.86423 0.50942 0.0
C227 C 0.87767 0.82605 0.48251 0.0
C228 C 0.90545 0.78081 0.47699 0.0
N229 N 0.96162 0.68243 0.49029 0.0
C230 C 0.91101 0.68424 0.45663 0.0
C231 C 0.8905 0.6351 0.43465 0.0
C232 C 0.92891 0.60106 0.45601 0.0
C233 C 0.97082 0.63119 0.48927 0.0
N234 N 0.0696 0.68954 0.56572 0.0
C235 C 0.06379 0.63756 0.56197 0.0
C236 C 0.10803 0.61297 0.59059 0.0
C237 C 0.14435 0.65155 0.61386 0.0
C238 C 0.12039 0.69774 0.59765 0.0
N239 N 0.98843 0.74069 0.6275 0.0
C240 C 0.92594 0.74647 0.73856 0.0
C241 C 0.93604 0.69901 0.70305 0.0
C242 C 0.96799 0.69684 0.64929 0.0
C243 C 0.95294 0.79012 0.72399 0.0
C244 C 0.98442 0.78624 0.6691 0.0
N245 N 0.03875 0.7387 0.43564 0.0
C246 C 0.08802 0.69489 0.3501 0.0
C247 C 0.09827 0.74134 0.32161 0.0
C248 C 0.07355 0.7857 0.34594 0.0
C249 C 0.04355 0.78341 0.40228 0.0
C250 C 0.05774 0.69425 0.40563 0.0
H251 H 0.02701 0.81875 0.421 0.0
H252 H 0.05294 0.65776 0.42644 0.0
H253 H 0.97302 0.65958 0.62323 0.0
H254 H 1.00275 0.82119 0.65872 0.0
C255 C 1.00797 0.86577 0.54264 0.0
C256 C 0.14754 0.74835 0.61317 0.0
C257 C 0.88038 0.73138 0.44709 0.0
C258 C 0.01795 0.61295 0.52494 0.0
H259 H 0.18151 0.85422 0.6175 0.0
H260 H 0.10493 0.91858 0.57948 0.0
H261 H 0.90561 0.90375 0.52577 0.0
H262 H 0.83592 0.83056 0.47042 0.0
H263 H 0.85141 0.62498 0.40766 0.0
H264 H 0.92618 0.55924 0.44957 0.0
H265 H 0.11365 0.57176 0.5926 0.0
H266 H 0.18422 0.64621 0.63882 0.0
H267 H 0.91646 0.66397 0.71325 0.0
H268 H 0.94645 0.82773 0.75024 0.0
H269 H 0.10637 0.65955 0.33305 0.0
H270 H 0.08077 0.82273 0.32602 0.0
C271 C 0.33246 0.96334 0.65406 0.0
C272 C 0.38079 0.95042 0.68965 0.0
C273 C 0.41698 0.98148 0.6669 0.0
C274 C 0.38898 1.01185 0.6183 0.0
N275 N 0.33745 1.00183 0.60911 0.0
Co276 Co 0.28431 0.03372 0.53705 0.0
N277 N 0.33703 0.0612 0.48125 0.0
C278 C 0.38871 0.06359 0.50553 0.0
C279 C 0.41647 0.08749 0.46051 0.0
C280 C 0.38006 0.10258 0.40523 0.0
C281 C 0.33168 0.08725 0.41941 0.0
N282 N 0.22996 0.06491 0.46504 0.0
C283 C 0.2332 0.08952 0.4035 0.0
C284 C 0.18498 0.10851 0.37537 0.0
C285 C 0.15116 0.09735 0.42134 0.0
C286 C 0.18009 0.0719 0.47489 0.0
N287 N 0.23193 1.00696 0.59387 0.0
C288 C 0.18335 0.02485 0.59168 0.0
C289 C 0.15677 1.00403 0.64063 0.0
C290 C 0.19026 0.96978 0.67498 0.0
C291 C 0.23586 0.97189 0.6455 0.0
N292 N 0.28997 0.09881 0.59773 0.0
C293 C 0.29414 0.19232 0.6822 0.0
C294 C 0.29397 0.19179 0.60795 0.0
C295 C 0.2914 0.14481 0.56685 0.0
C296 C 0.29405 0.14531 0.71438 0.0
C297 C 0.2924 0.09889 0.67114 0.0
N298 N 0.2798 0.96877 0.47732 0.0
C299 C 0.22947 0.89571 0.41775 0.0
C300 C 0.27535 0.86904 0.41086 0.0
C301 C 0.32331 0.89328 0.43572 0.0
C302 C 0.32465 0.94362 0.4675 0.0
C303 C 0.23254 0.94556 0.45201 0.0
H304 H 0.3622 0.96155 0.48555 0.0
H305 H 0.19694 0.96496 0.45925 0.0
H306 H 0.2895 0.14662 0.50992 0.0
H307 H 0.2921 0.06316 0.69685 0.0
C308 C 0.40972 0.04148 0.56969 0.0
C309 C 0.28266 0.94166 0.66982 0.0
C310 C 0.28205 0.10535 0.3786 0.0
C311 C 0.16197 0.05459 0.53562 0.0
H312 H 0.38883 0.92127 0.72752 0.0
H313 H 0.45892 0.97999 0.68114 0.0
H314 H 0.45819 0.09402 0.46766 0.0
H315 H 0.38796 0.12452 0.36118 0.0
H316 H 0.1758 0.13107 0.32899 0.0
H317 H 0.11068 0.1081 0.41747 0.0
H318 H 0.11678 1.0108 0.64787 0.0
H319 H 0.1817 0.94575 0.71641 0.0
H320 H 0.29347 0.22734 0.58109 0.0
H321 H 0.29439 0.14437 0.77224 0.0
H322 H 0.19162 0.87792 0.39745 0.0
H323 H 0.35935 0.87408 0.42885 0.0
C324 C 0.58608 0.8128 0.1604 0.0
C325 C 0.6042 0.85936 0.1971 0.0
C326 C 0.57317 0.89717 0.16741 0.0
C327 C 0.53826 0.87181 0.11318 0.0
N328 N 0.54548 0.82039 0.1069 0.0
Co329 Co 0.50984 0.77066 0.02752 0.0
N330 N 0.48229 0.82676 0.9657 0.0
C331 C 0.48298 0.87751 0.98808 0.0
C332 C 0.45985 0.90777 0.9358 0.0
C333 C 0.44222 0.87396 0.8772 0.0
C334 C 0.45523 0.82472 0.89685 0.0
N335 N 0.47435 0.72014 0.94823 0.0
C336 C 0.44869 0.72704 0.88021 0.0
C337 C 0.42872 0.68023 0.84528 0.0
C338 C 0.44035 0.6434 0.89342 0.0
C339 C 0.46697 0.66933 0.95488 0.0
N340 N 0.53718 0.71469 0.09013 0.0
C341 C 0.519 0.66563 0.08261 0.0
C342 C 0.54257 0.6361 0.13574 0.0
C343 C 0.57857 0.66837 0.17909 0.0
C344 C 0.57456 0.71608 0.15024 0.0
N345 N 0.44545 0.77319 0.07257 0.0
C346 C 0.35415 0.77441 0.13801 0.0
C347 C 0.40405 0.77115 0.17923 0.0
C348 C 0.44877 0.77102 0.14592 0.0
C349 C 0.35125 0.77832 0.06339 0.0
C350 C 0.39702 0.7772 0.03185 0.0
N351 N 0.57442 0.76898 0.98303 0.0
C352 C 0.63951 0.72177 0.9265 0.0
C353 C 0.66821 0.76745 0.92353 0.0
C354 C 0.64908 0.81377 0.9515 0.0
C355 C 0.60198 0.81382 0.97968 0.0
C356 C 0.59345 0.72323 0.95739 0.0
H357 H 0.58799 0.85055 0.99844 0.0
H358 H 0.57313 0.68729 0.96017 0.0
H359 H 0.48614 0.76863 0.17977 0.0
H360 H 0.39257 0.77901 0.97424 0.0
C361 C 0.50797 0.89563 0.0572 0.0
C362 C 0.60596 0.76212 0.18155 0.0
C363 C 0.43375 0.77752 0.85242 0.0
C364 C 0.48657 0.64706 1.01903 0.0
H365 H 0.63768 0.86544 0.23876 0.0
H366 H 0.57821 0.93851 0.18005 0.0
H367 H 0.45572 0.94936 0.94 0.0
H368 H 0.41993 0.88393 0.82687 0.0
H369 H 0.40569 0.6735 0.79197 0.0
H370 H 0.42955 0.60277 0.88511 0.0
H371 H 0.5364 0.59525 0.14017 0.0
H372 H 0.60498 0.65767 0.22594 0.0
H373 H 0.40877 0.76827 0.23732 0.0
H374 H 0.31384 0.78082 0.02915 0.0
H375 H 0.65271 0.68497 0.90516 0.0
H376 H 0.66927 0.85008 0.94908 0.0
C377 C 0.21387 0.5726 0.16954 0.0
C378 C 0.16543 0.57766 0.19139 0.0
C379 C 0.12934 0.56088 0.13277 0.0
C380 C 0.15778 0.54648 0.07882 0.0
N381 N 0.20976 0.55308 0.09963 0.0
Co382 Co 0.2656 0.53348 0.04121 0.0
N383 N 0.21327 0.50846 0.95597 0.0
C384 C 0.16118 0.51418 0.9476 0.0
C385 C 0.13636 0.4981 0.87906 0.0
C386 C 0.17525 0.4804 0.84242 0.0
C387 C 0.22091 0.48565 0.89124 0.0
N388 N 0.32165 0.5118 0.98333 0.0
C389 C 0.31767 0.4862 0.91683 0.0
C390 C 0.36559 0.48042 0.89394 0.0
C391 C 0.40154 0.50304 0.94867 0.0
C392 C 0.37349 0.51984 1.00214 0.0
N393 N 0.31846 0.56017 0.12588 0.0
C394 C 0.37078 0.56224 0.12896 0.0
C395 C 0.39698 0.58194 0.19483 0.0
C396 C 0.35909 0.59365 0.23609 0.0
C397 C 0.31176 0.58039 0.19271 0.0
N398 N 0.2664 0.46257 0.08133 0.0
C399 C 0.26431 0.36846 0.15405 0.0
C400 C 0.30985 0.3991 0.15915 0.0
C401 C 0.3104 0.44454 0.12182 0.0
C402 C 0.2204 0.38506 0.10838 0.0
C403 C 0.22207 0.43185 0.07366 0.0
N404 N 0.26369 0.60474 1.00052 0.0
C405 C 0.30587 0.67138 0.94291 0.0
C406 C 0.25924 0.69726 0.92318 0.0
C407 C 0.21508 0.67735 0.94696 0.0
C408 C 0.21809 0.63161 0.98488 0.0
C409 C 0.30754 0.62698 0.98227 0.0
H410 H 0.18257 0.61818 0.99968 0.0
H411 H 0.34507 0.61108 0.99615 0.0
H412 H 0.34687 0.46512 0.12734 0.0
H413 H 0.18654 0.44311 0.04184 0.0
C414 C 0.13696 0.53015 1.00698 0.0
C415 C 0.26158 0.59385 0.21375 0.0
C416 C 0.26968 0.464 0.87633 0.0
C417 C 0.39425 0.54317 0.07037 0.0
H418 H 0.15723 0.5938 0.24348 0.0
H419 H 0.08737 0.56063 0.1293 0.0
H420 H 0.09501 0.49805 0.85873 0.0
H421 H 0.17121 0.46476 0.78654 0.0
H422 H 0.37361 0.46128 0.84345 0.0
H423 H 0.44333 0.5053 0.95041 0.0
H424 H 0.43866 0.58718 0.21091 0.0
H425 H 0.36557 0.61087 0.29137 0.0
H426 H 0.34548 0.38796 0.19217 0.0
H427 H 0.18411 0.36321 0.10167 0.0
H428 H 0.3415 0.68541 0.92752 0.0
H429 H 0.17778 0.69556 0.93368 0.0
C430 C 0.42125 0.32026 1.00164 0.0
C431 C 0.39993 0.3691 1.00712 0.0
C432 C 0.44004 0.40231 0.03525 0.0
C433 C 0.48331 0.37257 0.04384 0.0
N434 N 0.47355 0.32166 0.02571 0.0
Co435 Co 0.52323 0.26431 0.05056 0.0
N436 N 0.58064 0.31411 0.09616 0.0
C437 C 0.57881 0.36621 0.09819 0.0
C438 C 0.62502 0.39085 0.12649 0.0
C439 C 0.65889 0.35214 0.14295 0.0
C440 C 0.63091 0.3059 0.12536 0.0
N441 N 0.57259 0.20695 0.07843 0.0
C442 C 0.62269 0.20852 0.11426 0.0
C443 C 0.64161 0.15919 0.12312 0.0
C444 C 0.60258 0.12533 0.09124 0.0
C445 C 0.56191 0.1557 0.06514 0.0
N446 N 0.4658 0.21487 1.00287 0.0
C447 C 0.46942 0.16288 0.99361 0.0
C448 C 0.42402 0.13881 0.95933 0.0
C449 C 0.38919 0.17769 0.9465 0.0
C450 C 0.41518 0.22352 0.97416 0.0
N451 N 0.55027 0.26591 0.95565 0.0
C452 C 0.61146 0.26826 0.8427 0.0
C453 C 0.59777 0.2217 0.8678 0.0
C454 C 0.56632 0.22126 0.922 0.0
C455 C 0.58849 0.31325 0.86888 0.0
C456 C 0.55857 0.31134 0.92569 0.0
N457 N 0.49641 0.26214 0.14489 0.0
C458 C 0.44716 0.21475 0.21866 0.0
C459 C 0.43563 0.26024 0.2575 0.0
C460 C 0.4598 0.30617 0.24444 0.0
C461 C 0.49035 0.30617 0.18847 0.0
C462 C 0.47797 0.21643 0.16402 0.0
H463 H 0.50642 0.34254 0.17885 0.0
H464 H 0.48367 0.18047 0.13513 0.0
H465 H 0.55801 0.18423 0.93823 0.0
H466 H 0.54463 0.34724 0.947 0.0
C467 C 0.53274 0.39093 0.07484 0.0
C468 C 0.38968 0.27409 0.97345 0.0
C469 C 0.65381 0.25567 0.1404 0.0
C470 C 0.5142 0.13768 0.02455 0.0
H471 H 0.35936 0.37929 0.99451 0.0
H472 H 0.43804 0.44278 0.05224 0.0
H473 H 0.63314 0.43205 0.13362 0.0
H474 H 0.69965 0.3573 0.16542 0.0
H475 H 0.67989 0.14882 0.14914 0.0
H476 H 0.60396 0.08352 0.08675 0.0
H477 H 0.41657 0.09769 0.94729 0.0
H478 H 0.34885 0.17281 0.92131 0.0
H479 H 0.6138 0.18566 0.84852 0.0
H480 H 0.5974 0.35031 0.85045 0.0
H481 H 0.4295 0.17822 0.22707 0.0
H482 H 0.45176 0.34251 0.27292 0.0
C483 C 0.74014 0.61874 0.09459 0.0
C484 C 0.69151 0.64114 0.09043 0.0
C485 C 0.65581 0.60406 0.05844 0.0
C486 C 0.68419 0.56109 0.04476 0.0
N487 N 0.7361 0.5686 0.0644 0.0
Co488 Co 0.79031 0.51606 0.0454 0.0
N489 N 0.73752 0.46027 1.00385 0.0
C490 C 0.68553 0.46429 1.0017 0.0
C491 C 0.65823 0.42024 0.97287 0.0
C492 C 0.69495 0.38585 0.95572 0.0
C493 C 0.74283 0.41112 0.97335 0.0
N494 N 0.84476 0.46415 0.02305 0.0
C495 C 0.84063 0.41533 0.98788 0.0
C496 C 0.88926 0.3956 0.98143 0.0
C497 C 0.9252 0.43267 1.01298 0.0
C498 C 0.89677 0.47318 0.03668 0.0
N499 N 0.84339 0.57157 0.08998 0.0
C500 C 0.89557 0.56562 0.09943 0.0
C501 C 0.92303 0.60811 0.13444 0.0
C502 C 0.88626 0.64334 0.14897 0.0
C503 C 0.83809 0.6206 0.12167 0.0
N504 N 0.79085 0.4909 0.14279 0.0
C505 C 0.78621 0.43133 0.25978 0.0
C506 C 0.83357 0.44053 0.23652 0.0
C507 C 0.83525 0.47129 0.17928 0.0
C508 C 0.74281 0.45851 0.23106 0.0
C509 C 0.74591 0.48797 0.17241 0.0
N510 N 0.78876 0.54065 0.94788 0.0
C511 C 0.83109 0.58671 0.86634 0.0
C512 C 0.78289 0.59612 0.82537 0.0
C513 C 0.7389 0.57058 0.83947 0.0
C514 C 0.74279 0.54274 0.90079 0.0
C515 C 0.83316 0.55884 0.92717 0.0
H516 H 0.70743 0.52629 0.91128 0.0
H517 H 0.87048 0.55559 0.95923 0.0
H518 H 0.87219 0.4757 0.16257 0.0
H519 H 0.71066 0.50517 0.14934 0.0
C520 C 0.66339 0.51191 1.01908 0.0
C521 C 0.78856 0.64702 0.1287 0.0
C522 C 0.79171 0.38652 0.95824 0.0
C523 C 0.91744 0.52 0.07295 0.0
H524 H 0.6828 0.68026 0.10876 0.0
H525 H 0.61403 0.60771 0.04682 0.0
H526 H 0.61643 0.41435 0.96399 0.0
H527 H 0.68761 0.34665 0.93221 0.0
H528 H 0.89782 0.35832 0.95614 0.0
H529 H 0.96716 0.43046 1.0177 0.0
H530 H 0.96491 0.61292 0.14794 0.0
H531 H 0.89399 0.68144 0.17676 0.0
H532 H 0.86833 0.42056 0.25806 0.0
H533 H 0.70541 0.45257 0.24811 0.0
H534 H 0.86622 0.6058 0.85645 0.0
H535 H 0.70082 0.57702 0.80884 0.0
loop_
_geom_bond_atom_site_label_1
_geom_bond_atom_site_label_2
_geom_bond_distance
_geom_bond_site_symmetry_2
_ccdc_geom_bond_type
C0 O2 1.247 . S
C0 O4 1.258 . S
C1 O8 1.247 . S
C1 O9 1.258 . S
O2 C0 1.247 . S
O2 Zn3 2.028 . S
Zn3 O2 2.028 . S
Zn3 O7 2.035 . S
Zn3 O9 2.035 . S
Zn3 O10 2.028 . S
O4 C0 1.258 . S
O4 Zn5 2.035 . S
Zn5 O4 2.035 . S
Zn5 O6 2.028 . S
Zn5 O8 2.028 . S
Zn5 O11 2.035 . S
O6 Zn5 2.028 . S
O6 C12 1.247 . S
O7 Zn3 2.035 . S
O7 C12 1.258 . S
O8 C1 1.247 . S
O8 Zn5 2.028 . S
O9 C1 1.258 . S
O9 Zn3 2.035 . S
O10 Zn3 2.028 . S
O10 C13 1.247 . S
O11 Zn5 2.035 . S
O11 C13 1.258 . S
C12 O6 1.247 . S
C12 O7 1.258 . S
C13 O10 1.247 . S
C13 O11 1.258 . S
C14 O16 1.247 . S
C14 O18 1.258 . S
C15 O22 1.247 . S
C15 O23 1.258 . S
O16 C14 1.247 . S
O16 Zn17 2.028 . S
Zn17 O16 2.028 . S
Zn17 O21 2.035 . S
Zn17 O23 2.035 . S
Zn17 O24 2.028 . S
O18 C14 1.258 . S
O18 Zn19 2.035 . S
Zn19 O18 2.035 . S
Zn19 O20 2.028 . S
Zn19 O22 2.028 . S
Zn19 O25 2.035 . S
O20 Zn19 2.028 . S
O20 C26 1.247 . S
O21 Zn17 2.035 . S
O21 C26 1.258 . S
O22 C15 1.247 . S
O22 Zn19 2.028 . S
O23 C15 1.258 . S
O23 Zn17 2.035 . S
O24 Zn17 2.028 . S
O24 C27 1.247 . S
O25 Zn19 2.035 . S
O25 C27 1.258 . S
C26 O20 1.247 . S
C26 O21 1.258 . S
C27 O24 1.247 . S
C27 O25 1.258 . S
C28 O30 1.247 . S
C28 O32 1.258 . S
C29 O36 1.247 . S
C29 O37 1.258 . S
O30 C28 1.247 . S
O30 Zn31 2.028 . S
Zn31 O30 2.028 . S
Zn31 O35 2.035 . S
Zn31 O37 2.035 . S
Zn31 O38 2.028 . S
O32 C28 1.258 . S
O32 Zn33 2.035 . S
Zn33 O32 2.035 . S
Zn33 O34 2.028 . S
Zn33 O36 2.028 . S
Zn33 O39 2.035 . S
O34 Zn33 2.028 . S
O34 C40 1.247 . S
O35 Zn31 2.035 . S
O35 C40 1.258 . S
O36 C29 1.247 . S
O36 Zn33 2.028 . S
O37 C29 1.258 . S
O37 Zn31 2.035 . S
O38 Zn31 2.028 . S
O38 C41 1.247 . S
O39 Zn33 2.035 . S
O39 C41 1.258 . S
C40 O34 1.247 . S
C40 O35 1.258 . S
C41 O38 1.247 . S
C41 O39 1.258 . S
C42 O44 1.247 . S
C42 O46 1.258 . S
C43 O50 1.247 . S
C43 O51 1.258 . S
O44 C42 1.247 . S
O44 Zn45 2.028 . S
Zn45 O44 2.028 . S
Zn45 O49 2.035 . S
Zn45 O51 2.035 . S
Zn45 O52 2.028 . S
O46 C42 1.258 . S
O46 Zn47 2.035 . S
Zn47 O46 2.035 . S
Zn47 O48 2.028 . S
Zn47 O50 2.028 . S
Zn47 O53 2.035 . S
O48 Zn47 2.028 . S
O48 C54 1.247 . S
O49 Zn45 2.035 . S
O49 C54 1.258 . S
O50 C43 1.247 . S
O50 Zn47 2.028 . S
O51 C43 1.258 . S
O51 Zn45 2.035 . S
O52 Zn45 2.028 . S
O52 C55 1.247 . S
O53 Zn47 2.035 . S
O53 C55 1.258 . S
C54 O48 1.247 . S
C54 O49 1.258 . S
C55 O52 1.247 . S
C55 O53 1.258 . S
C56 O58 1.247 . S
C56 O60 1.258 . S
C57 O64 1.247 . S
C57 O65 1.258 . S
O58 C56 1.247 . S
O58 Zn59 2.028 . S
Zn59 O58 2.028 . S
Zn59 O63 2.035 . S
Zn59 O65 2.035 . S
Zn59 O66 2.028 . S
O60 C56 1.258 . S
O60 Zn61 2.035 . S
Zn61 O60 2.035 . S
Zn61 O62 2.028 . S
Zn61 O64 2.028 . S
Zn61 O67 2.035 . S
O62 Zn61 2.028 . S
O62 C68 1.247 . S
O63 Zn59 2.035 . S
O63 C68 1.258 . S
O64 C57 1.247 . S
O64 Zn61 2.028 . S
O65 C57 1.258 . S
O65 Zn59 2.035 . S
O66 Zn59 2.028 . S
O66 C69 1.247 . S
O67 Zn61 2.035 . S
O67 C69 1.258 . S
C68 O62 1.247 . S
C68 O63 1.258 . S
C69 O66 1.247 . S
C69 O67 1.258 . S
C70 O72 1.247 . S
C70 O74 1.258 . S
C71 O78 1.247 . S
C71 O79 1.258 . S
O72 C70 1.247 . S
O72 Zn73 2.028 . S
Zn73 O72 2.028 . S
Zn73 O77 2.035 . S
Zn73 O79 2.035 . S
Zn73 O80 2.028 . S
O74 C70 1.258 . S
O74 Zn75 2.035 . S
Zn75 O74 2.035 . S
Zn75 O76 2.028 . S
Zn75 O78 2.028 . S
Zn75 O81 2.035 . S
O76 Zn75 2.028 . S
O76 C82 1.247 . S
O77 Zn73 2.035 . S
O77 C82 1.258 . S
O78 C71 1.247 . S
O78 Zn75 2.028 . S
O79 C71 1.258 . S
O79 Zn73 2.035 . S
O80 Zn73 2.028 . S
O80 C83 1.247 . S
O81 Zn75 2.035 . S
O81 C83 1.258 . S
C82 O76 1.247 . S
C82 O77 1.258 . S
C83 O80 1.247 . S
C83 O81 1.258 . S
C84 O86 1.247 . S
C84 O88 1.258 . S
C85 O92 1.247 . S
C85 O93 1.258 . S
O86 C84 1.247 . S
O86 Zn87 2.028 . S
Zn87 O86 2.028 . S
Zn87 O91 2.035 . S
Zn87 O93 2.035 . S
Zn87 O94 2.028 . S
O88 C84 1.258 . S
O88 Zn89 2.035 . S
Zn89 O88 2.035 . S
Zn89 O90 2.028 . S
Zn89 O92 2.028 . S
Zn89 O95 2.035 . S
O90 Zn89 2.028 . S
O90 C96 1.247 . S
O91 Zn87 2.035 . S
O91 C96 1.258 . S
O92 C85 1.247 . S
O92 Zn89 2.028 . S
O93 C85 1.258 . S
O93 Zn87 2.035 . S
O94 Zn87 2.028 . S
O94 C97 1.247 . S
O95 Zn89 2.035 . S
O95 C97 1.258 . S
C96 O90 1.247 . S
C96 O91 1.258 . S
C97 O94 1.247 . S
C97 O95 1.258 . S
C98 O100 1.247 . S
C98 O102 1.258 . S
C99 O106 1.247 . S
C99 O107 1.258 . S
O100 C98 1.247 . S
O100 Zn101 2.028 . S
Zn101 O100 2.028 . S
Zn101 O105 2.035 . S
Zn101 O107 2.035 . S
Zn101 O108 2.028 . S
O102 C98 1.258 . S
O102 Zn103 2.035 . S
Zn103 O102 2.035 . S
Zn103 O104 2.028 . S
Zn103 O106 2.028 . S
Zn103 O109 2.035 . S
O104 Zn103 2.028 . S
O104 C110 1.247 . S
O105 Zn101 2.035 . S
O105 C110 1.258 . S
O106 C99 1.247 . S
O106 Zn103 2.028 . S
O107 C99 1.258 . S
O107 Zn101 2.035 . S
O108 Zn101 2.028 . S
O108 C111 1.247 . S
O109 Zn103 2.035 . S
O109 C111 1.258 . S
C110 O104 1.247 . S
C110 O105 1.258 . S
C111 O108 1.247 . S
C111 O109 1.258 . S
C112 C113 1.443 . S
C112 N116 1.376 . S
C112 C150 1.389 . S
C113 C112 1.443 . S
C113 C114 1.340 . S
C113 H153 0.951 . S
C114 C113 1.340 . S
C114 C115 1.439 . S
C114 H154 0.950 . S
C115 C114 1.439 . S
C115 N116 1.374 . S
C115 C149 1.395 . S
N116 C112 1.376 . S
N116 C115 1.374 . S
N116 Co117 2.008 . S
Co117 N116 2.008 . S
Co117 N118 1.995 1_455 S
Co117 N123 2.008 1_455 S
Co117 N128 1.995 . S
Co117 N133 2.282 1_455 S
Co117 N139 2.282 . S
N118 Co117 1.995 1_655 S
N118 C119 1.376 . S
N118 C122 1.383 . S
C119 N118 1.376 . S
C119 C120 1.446 . S
C119 C149 1.391 1_655 S
C120 C119 1.446 . S
C120 C121 1.339 . S
C120 H155 0.949 . S
C121 C120 1.339 . S
C121 C122 1.439 . S
C121 H156 0.950 . S
C122 N118 1.383 . S
C122 C121 1.439 . S
C122 C151 1.392 . S
N123 Co117 2.008 1_655 S
N123 C124 1.376 . S
N123 C127 1.374 . S
C124 N123 1.376 . S
C124 C125 1.443 . S
C124 C151 1.389 . S
C125 C124 1.443 . S
C125 C126 1.340 . S
C125 H157 0.951 . S
C126 C125 1.340 . S
C126 C127 1.439 . S
C126 H158 0.950 . S
C127 N123 1.374 . S
C127 C126 1.439 . S
C127 C152 1.382 1_655 S
N128 Co117 1.995 . S
N128 C129 1.376 . S
N128 C132 1.383 . S
C129 N128 1.376 . S
C129 C130 1.446 . S
C129 C152 1.405 . S
C130 C129 1.446 . S
C130 C131 1.339 . S
C130 H159 0.949 . S
C131 C130 1.339 . S
C131 C132 1.439 . S
C131 H160 0.950 . S
C132 N128 1.383 . S
C132 C131 1.439 . S
C132 C150 1.392 . S
N133 Co117 2.282 1_655 S
N133 C136 1.332 . S
N133 C138 1.332 . S
C134 C135 1.386 . S
C134 C137 1.388 . S
C135 C134 1.386 . S
C135 C136 1.382 . S
C135 H161 0.950 . S
C136 N133 1.332 . S
C136 C135 1.382 . S
C136 H147 0.952 . S
C137 C134 1.388 . S
C137 C138 1.382 . S
C137 H162 0.950 . S
C138 N133 1.332 . S
C138 C137 1.382 . S
C138 H148 0.948 . S
N139 Co117 2.282 . S
N139 C143 1.332 . S
N139 C144 1.332 . S
C140 C141 1.388 . S
C140 C144 1.382 . S
C140 H163 0.950 . S
C141 C140 1.388 . S
C141 C142 1.386 . S
C142 C141 1.386 . S
C142 C143 1.382 . S
C142 H164 0.950 . S
C143 N139 1.332 . S
C143 C142 1.382 . S
C143 H145 0.952 . S
C144 N139 1.332 . S
C144 C140 1.382 . S
C144 H146 0.948 . S
H145 C143 0.952 . S
H146 C144 0.948 . S
H147 C136 0.952 . S
H148 C138 0.948 . S
C149 C115 1.395 . S
C149 C119 1.391 1_455 S
C150 C112 1.389 . S
C150 C132 1.392 . S
C151 C122 1.392 . S
C151 C124 1.389 . S
C152 C127 1.382 1_455 S
C152 C129 1.405 . S
H153 C113 0.951 . S
H154 C114 0.950 . S
H155 C120 0.949 . S
H156 C121 0.950 . S
H157 C125 0.951 . S
H158 C126 0.950 . S
H159 C130 0.949 . S
H160 C131 0.950 . S
H161 C135 0.950 . S
H162 C137 0.950 . S
H163 C140 0.950 . S
H164 C142 0.950 . S
C165 C166 1.443 . S
C165 N169 1.376 . S
C165 C203 1.389 . S
C166 C165 1.443 . S
C166 C167 1.340 . S
C166 H206 0.951 . S
C167 C166 1.340 . S
C167 C168 1.439 . S
C167 H207 0.950 . S
C168 C167 1.439 . S
C168 N169 1.374 . S
C168 C202 1.395 . S
N169 C165 1.376 . S
N169 C168 1.374 . S
N169 Co170 2.008 . S
Co170 N169 2.008 . S
Co170 N171 1.995 1_545 S
Co170 N176 2.008 1_545 S
Co170 N181 1.995 . S
Co170 N186 2.282 1_545 S
Co170 N192 2.282 . S
N171 Co170 1.995 1_565 S
N171 C172 1.376 . S
N171 C175 1.383 . S
C172 N171 1.376 . S
C172 C173 1.446 . S
C172 C202 1.391 1_565 S
C173 C172 1.446 . S
C173 C174 1.339 . S
C173 H208 0.949 . S
C174 C173 1.339 . S
C174 C175 1.439 . S
C174 H209 0.950 . S
C175 N171 1.383 . S
C175 C174 1.439 . S
C175 C204 1.392 . S
N176 Co170 2.008 1_565 S
N176 C177 1.376 . S
N176 C180 1.374 . S
C177 N176 1.376 . S
C177 C178 1.443 . S
C177 C204 1.389 . S
C178 C177 1.443 . S
C178 C179 1.340 . S
C178 H210 0.951 . S
C179 C178 1.340 . S
C179 C180 1.439 . S
C179 H211 0.950 . S
C180 N176 1.374 . S
C180 C179 1.439 . S
C180 C205 1.395 . S
N181 Co170 1.995 . S
N181 C182 1.376 . S
N181 C185 1.383 . S
C182 N181 1.376 . S
C182 C183 1.446 . S
C182 C205 1.391 1_545 S
C183 C182 1.446 . S
C183 C184 1.339 . S
C183 H212 0.949 . S
C184 C183 1.339 . S
C184 C185 1.439 . S
C184 H213 0.950 . S
C185 N181 1.383 . S
C185 C184 1.439 . S
C185 C203 1.392 . S
N186 Co170 2.282 1_565 S
N186 C189 1.332 . S
N186 C191 1.332 . S
C187 C188 1.386 . S
C187 C190 1.388 . S
C188 C187 1.386 . S
C188 C189 1.382 . S
C188 H214 0.950 . S
C189 N186 1.332 . S
C189 C188 1.382 . S
C189 H200 0.952 . S
C190 C187 1.388 . S
C190 C191 1.382 . S
C190 H215 0.950 . S
C191 N186 1.332 . S
C191 C190 1.382 . S
C191 H201 0.948 . S
N192 Co170 2.282 . S
N192 C196 1.332 . S
N192 C197 1.332 . S
C193 C194 1.388 . S
C193 C197 1.382 . S
C193 H216 0.950 . S
C194 C193 1.388 . S
C194 C195 1.386 . S
C195 C194 1.386 . S
C195 C196 1.382 . S
C195 H217 0.950 . S
C196 N192 1.332 . S
C196 C195 1.382 . S
C196 H198 0.952 . S
C197 N192 1.332 . S
C197 C193 1.382 . S
C197 H199 0.948 . S
H198 C196 0.952 . S
H199 C197 0.948 . S
H200 C189 0.952 . S
H201 C191 0.948 . S
C202 C168 1.395 . S
C202 C172 1.391 1_545 S
C203 C165 1.389 . S
C203 C185 1.392 . S
C204 C175 1.392 . S
C204 C177 1.389 . S
C205 C180 1.395 . S
C205 C182 1.391 1_565 S
H206 C166 0.951 . S
H207 C167 0.950 . S
H208 C173 0.949 . S
H209 C174 0.950 . S
H210 C178 0.951 . S
H211 C179 0.950 . S
H212 C183 0.949 . S
H213 C184 0.950 . S
H214 C188 0.950 . S
H215 C190 0.950 . S
H216 C193 0.950 . S
H217 C195 0.950 . S
C218 C219 1.443 . S
C218 N222 1.376 . S
C218 C256 1.389 . S
C219 C218 1.443 . S
C219 C220 1.340 . S
C219 H259 0.951 . S
C220 C219 1.340 . S
C220 C221 1.439 . S
C220 H260 0.950 . S
C221 C220 1.439 . S
C221 N222 1.374 . S
C221 C255 1.395 . S
N222 C218 1.376 . S
N222 C221 1.374 . S
N222 Co223 2.008 . S
Co223 N222 2.008 . S
Co223 N224 1.995 1_455 S
Co223 N229 2.008 1_455 S
Co223 N234 1.995 . S
Co223 N239 2.282 1_455 S
Co223 N245 2.282 . S
N224 Co223 1.995 1_655 S
N224 C225 1.376 . S
N224 C228 1.383 . S
C225 N224 1.376 . S
C225 C226 1.446 . S
C225 C255 1.391 1_655 S
C226 C225 1.446 . S
C226 C227 1.339 . S
C226 H261 0.949 . S
C227 C226 1.339 . S
C227 C228 1.439 . S
C227 H262 0.950 . S
C228 N224 1.383 . S
C228 C227 1.439 . S
C228 C257 1.392 . S
N229 Co223 2.008 1_655 S
N229 C230 1.376 . S
N229 C233 1.374 . S
C230 N229 1.376 . S
C230 C231 1.443 . S
C230 C257 1.389 . S
C231 C230 1.443 . S
C231 C232 1.340 . S
C231 H263 0.951 . S
C232 C231 1.340 . S
C232 C233 1.439 . S
C232 H264 0.950 . S
C233 N229 1.374 . S
C233 C232 1.439 . S
C233 C258 1.395 . S
N234 Co223 1.995 . S
N234 C235 1.376 . S
N234 C238 1.383 . S
C235 N234 1.376 . S
C235 C236 1.446 . S
C235 C258 1.391 1_455 S
C236 C235 1.446 . S
C236 C237 1.339 . S
C236 H265 0.949 . S
C237 C236 1.339 . S
C237 C238 1.439 . S
C237 H266 0.950 . S
C238 N234 1.383 . S
C238 C237 1.439 . S
C238 C256 1.392 . S
N239 Co223 2.282 1_655 S
N239 C242 1.332 . S
N239 C244 1.332 . S
C240 C241 1.386 . S
C240 C243 1.388 . S
C241 C240 1.386 . S
C241 C242 1.382 . S
C241 H267 0.950 . S
C242 N239 1.332 . S
C242 C241 1.382 . S
C242 H253 0.952 . S
C243 C240 1.388 . S
C243 C244 1.382 . S
C243 H268 0.950 . S
C244 N239 1.332 . S
C244 C243 1.382 . S
C244 H254 0.948 . S
N245 Co223 2.282 . S
N245 C249 1.332 . S
N245 C250 1.332 . S
C246 C247 1.388 . S
C246 C250 1.382 . S
C246 H269 0.950 . S
C247 C246 1.388 . S
C247 C248 1.386 . S
C248 C247 1.386 . S
C248 C249 1.382 . S
C248 H270 0.950 . S
C249 N245 1.332 . S
C249 C248 1.382 . S
C249 H251 0.952 . S
C250 N245 1.332 . S
C250 C246 1.382 . S
C250 H252 0.948 . S
H251 C249 0.952 . S
H252 C250 0.948 . S
H253 C242 0.952 . S
H254 C244 0.948 . S
C255 C221 1.395 . S
C255 C225 1.391 1_455 S
C256 C218 1.389 . S
C256 C238 1.392 . S
C257 C228 1.392 . S
C257 C230 1.389 . S
C258 C233 1.395 . S
C258 C235 1.391 1_655 S
H259 C219 0.951 . S
H260 C220 0.950 . S
H261 C226 0.949 . S
H262 C227 0.950 . S
H263 C231 0.951 . S
H264 C232 0.950 . S
H265 C236 0.949 . S
H266 C237 0.950 . S
H267 C241 0.950 . S
H268 C243 0.950 . S
H269 C246 0.950 . S
H270 C248 0.950 . S
C271 C272 1.443 . S
C271 N275 1.376 . S
C271 C309 1.389 . S
C272 C271 1.443 . S
C272 C273 1.340 . S
C272 H312 0.951 . S
C273 C272 1.340 . S
C273 C274 1.439 . S
C273 H313 0.950 . S
C274 C273 1.439 . S
C274 N275 1.374 . S
C274 C308 1.407 . S
N275 C271 1.376 . S
N275 C274 1.374 . S
N275 Co276 2.008 1_565 S
Co276 N275 2.008 1_545 S
Co276 N277 1.995 . S
Co276 N282 2.008 . S
Co276 N287 1.995 1_545 S
Co276 N292 2.282 . S
Co276 N298 2.282 1_545 S
N277 Co276 1.995 . S
N277 C278 1.376 . S
N277 C281 1.383 . S
C278 N277 1.376 . S
C278 C279 1.446 . S
C278 C308 1.378 1_545 S
C279 C278 1.446 . S
C279 C280 1.339 . S
C279 H314 0.949 . S
C280 C279 1.339 . S
C280 C281 1.439 . S
C280 H315 0.950 . S
C281 N277 1.383 . S
C281 C280 1.439 . S
C281 C310 1.392 . S
N282 Co276 2.008 . S
N282 C283 1.376 . S
N282 C286 1.374 . S
C283 N282 1.376 . S
C283 C284 1.443 . S
C283 C310 1.389 . S
C284 C283 1.443 . S
C284 C285 1.340 . S
C284 H316 0.951 . S
C285 C284 1.340 . S
C285 C286 1.439 . S
C285 H317 0.950 . S
C286 N282 1.374 . S
C286 C285 1.439 . S
C286 C311 1.395 . S
N287 Co276 1.995 1_565 S
N287 C288 1.376 . S
N287 C291 1.383 . S
C288 N287 1.376 . S
C288 C289 1.446 . S
C288 C311 1.391 1_565 S
C289 C288 1.446 . S
C289 C290 1.339 . S
C289 H318 0.949 . S
C290 C289 1.339 . S
C290 C291 1.439 . S
C290 H319 0.950 . S
C291 N287 1.383 . S
C291 C290 1.439 . S
C291 C309 1.392 . S
N292 Co276 2.282 . S
N292 C295 1.332 . S
N292 C297 1.332 . S
C293 C294 1.386 . S
C293 C296 1.388 . S
C294 C293 1.386 . S
C294 C295 1.382 . S
C294 H320 0.950 . S
C295 N292 1.332 . S
C295 C294 1.382 . S
C295 H306 0.952 . S
C296 C293 1.388 . S
C296 C297 1.382 . S
C296 H321 0.950 . S
C297 N292 1.332 . S
C297 C296 1.382 . S
C297 H307 0.948 . S
N298 Co276 2.282 1_565 S
N298 C302 1.332 . S
N298 C303 1.332 . S
C299 C300 1.388 . S
C299 C303 1.382 . S
C299 H322 0.950 . S
C300 C299 1.388 . S
C300 C301 1.386 . S
C301 C300 1.386 . S
C301 C302 1.382 . S
C301 H323 0.950 . S
C302 N298 1.332 . S
C302 C301 1.382 . S
C302 H304 0.952 . S
C303 N298 1.332 . S
C303 C299 1.382 . S
C303 H305 0.948 . S
H304 C302 0.952 . S
H305 C303 0.948 . S
H306 C295 0.952 . S
H307 C297 0.948 . S
C308 C274 1.407 . S
C308 C278 1.378 1_565 S
C309 C271 1.389 . S
C309 C291 1.392 . S
C310 C281 1.392 . S
C310 C283 1.389 . S
C311 C286 1.395 . S
C311 C288 1.391 1_545 S
H312 C272 0.951 . S
H313 C273 0.950 . S
H314 C279 0.949 . S
H315 C280 0.950 . S
H316 C284 0.951 . S
H317 C285 0.950 . S
H318 C289 0.949 . S
H319 C290 0.950 . S
H320 C294 0.950 . S
H321 C296 0.950 . S
H322 C299 0.950 . S
H323 C301 0.950 . S
C324 C325 1.443 . S
C324 N328 1.376 . S
C324 C362 1.389 . S
C325 C324 1.443 . S
C325 C326 1.340 . S
C325 H365 0.951 . S
C326 C325 1.340 . S
C326 C327 1.439 . S
C326 H366 0.950 . S
C327 C326 1.439 . S
C327 N328 1.374 . S
C327 C361 1.395 . S
N328 C324 1.376 . S
N328 C327 1.374 . S
N328 Co329 2.012 . S
Co329 N328 2.012 . S
Co329 N330 1.991 1_554 S
Co329 N335 2.005 1_554 S
Co329 N340 1.999 . S
Co329 N345 2.290 . S
Co329 N351 2.275 1_554 S
N330 Co329 1.991 1_556 S
N330 C331 1.376 . S
N330 C334 1.383 . S
C331 N330 1.376 . S
C331 C332 1.446 . S
C331 C361 1.391 1_556 S
C332 C331 1.446 . S
C332 C333 1.339 . S
C332 H367 0.949 . S
C333 C332 1.339 . S
C333 C334 1.439 . S
C333 H368 0.950 . S
C334 N330 1.383 . S
C334 C333 1.439 . S
C334 C363 1.392 . S
N335 Co329 2.005 1_556 S
N335 C336 1.376 . S
N335 C339 1.374 . S
C336 N335 1.376 . S
C336 C337 1.443 . S
C336 C363 1.389 . S
C337 C336 1.443 . S
C337 C338 1.340 . S
C337 H369 0.951 . S
C338 C337 1.340 . S
C338 C339 1.439 . S
C338 H370 0.950 . S
C339 N335 1.374 . S
C339 C338 1.439 . S
C339 C364 1.395 . S
N340 Co329 1.999 . S
N340 C341 1.376 . S
N340 C344 1.383 . S
C341 N340 1.376 . S
C341 C342 1.446 . S
C341 C364 1.391 1_554 S
C342 C341 1.446 . S
C342 C343 1.339 . S
C342 H371 0.949 . S
C343 C342 1.339 . S
C343 C344 1.439 . S
C343 H372 0.950 . S
C344 N340 1.383 . S
C344 C343 1.439 . S
C344 C362 1.392 . S
N345 Co329 2.290 . S
N345 C348 1.332 . S
N345 C350 1.332 . S
C346 C347 1.386 . S
C346 C349 1.388 . S
C347 C346 1.386 . S
C347 C348 1.382 . S
C347 H373 0.950 . S
C348 N345 1.332 . S
C348 C347 1.382 . S
C348 H359 0.952 . S
C349 C346 1.388 . S
C349 C350 1.382 . S
C349 H374 0.950 . S
C350 N345 1.332 . S
C350 C349 1.382 . S
C350 H360 0.948 . S
N351 Co329 2.275 1_556 S
N351 C355 1.332 . S
N351 C356 1.332 . S
C352 C353 1.388 . S
C352 C356 1.382 . S
C352 H375 0.950 . S
C353 C352 1.388 . S
C353 C354 1.386 . S
C354 C353 1.386 . S
C354 C355 1.382 . S
C354 H376 0.950 . S
C355 N351 1.332 . S
C355 C354 1.382 . S
C355 H357 0.952 . S
C356 N351 1.332 . S
C356 C352 1.382 . S
C356 H358 0.948 . S
H357 C355 0.952 . S
H358 C356 0.948 . S
H359 C348 0.952 . S
H360 C350 0.948 . S
C361 C327 1.395 . S
C361 C331 1.391 1_554 S
C362 C324 1.389 . S
C362 C344 1.392 . S
C363 C334 1.392 . S
C363 C336 1.389 . S
C364 C339 1.395 . S
C364 C341 1.391 1_556 S
H365 C325 0.951 . S
H366 C326 0.950 . S
H367 C332 0.949 . S
H368 C333 0.950 . S
H369 C337 0.951 . S
H370 C338 0.950 . S
H371 C342 0.949 . S
H372 C343 0.950 . S
H373 C347 0.950 . S
H374 C349 0.950 . S
H375 C352 0.950 . S
H376 C354 0.950 . S
C377 C378 1.443 . S
C377 N381 1.376 . S
C377 C415 1.389 . S
C378 C377 1.443 . S
C378 C379 1.340 . S
C378 H418 0.951 . S
C379 C378 1.340 . S
C379 C380 1.439 . S
C379 H419 0.950 . S
C380 C379 1.439 . S
C380 N381 1.374 . S
C380 C414 1.395 1_554 S
N381 C377 1.376 . S
N381 C380 1.374 . S
N381 Co382 2.008 . S
Co382 N381 2.008 . S
Co382 N383 1.995 1_554 S
Co382 N388 2.008 1_554 S
Co382 N393 1.995 . S
Co382 N398 2.282 . S
Co382 N404 2.282 1_554 S
N383 Co382 1.995 1_556 S
N383 C384 1.376 . S
N383 C387 1.383 . S
C384 N383 1.376 . S
C384 C385 1.446 . S
C384 C414 1.391 . S
C385 C384 1.446 . S
C385 C386 1.339 . S
C385 H420 0.949 . S
C386 C385 1.339 . S
C386 C387 1.439 . S
C386 H421 0.950 . S
C387 N383 1.383 . S
C387 C386 1.439 . S
C387 C416 1.392 . S
N388 Co382 2.008 1_556 S
N388 C389 1.376 . S
N388 C392 1.374 1_556 S
C389 N388 1.376 . S
C389 C390 1.443 . S
C389 C416 1.389 . S
C390 C389 1.443 . S
C390 C391 1.340 . S
C390 H422 0.951 . S
C391 C390 1.340 . S
C391 C392 1.439 1_556 S
C391 H423 0.950 1_556 S
C392 N388 1.374 1_554 S
C392 C391 1.439 1_554 S
C392 C417 1.395 . S
N393 Co382 1.995 . S
N393 C394 1.376 . S
N393 C397 1.383 . S
C394 N393 1.376 . S
C394 C395 1.446 . S
C394 C417 1.391 . S
C395 C394 1.446 . S
C395 C396 1.339 . S
C395 H424 0.949 . S
C396 C395 1.339 . S
C396 C397 1.439 . S
C396 H425 0.950 . S
C397 N393 1.383 . S
C397 C396 1.439 . S
C397 C415 1.392 . S
N398 Co382 2.282 . S
N398 C401 1.332 . S
N398 C403 1.332 . S
C399 C400 1.386 . S
C399 C402 1.388 . S
C400 C399 1.386 . S
C400 C401 1.382 . S
C400 H426 0.950 . S
C401 N398 1.332 . S
C401 C400 1.382 . S
C401 H412 0.952 . S
C402 C399 1.388 . S
C402 C403 1.382 . S
C402 H427 0.950 . S
C403 N398 1.332 . S
C403 C402 1.382 . S
C403 H413 0.948 . S
N404 Co382 2.282 1_556 S
N404 C408 1.332 . S
N404 C409 1.332 . S
C405 C406 1.388 . S
C405 C409 1.382 . S
C405 H428 0.950 . S
C406 C405 1.388 . S
C406 C407 1.386 . S
C407 C406 1.386 . S
C407 C408 1.382 . S
C407 H429 0.950 . S
C408 N404 1.332 . S
C408 C407 1.382 . S
C408 H410 0.952 . S
C409 N404 1.332 . S
C409 C405 1.382 . S
C409 H411 0.948 . S
H410 C408 0.952 . S
H411 C409 0.948 . S
H412 C401 0.952 . S
H413 C403 0.948 . S
C414 C380 1.395 1_556 S
C414 C384 1.391 . S
C415 C377 1.389 . S
C415 C397 1.392 . S
C416 C387 1.392 . S
C416 C389 1.389 . S
C417 C392 1.395 . S
C417 C394 1.391 . S
H418 C378 0.951 . S
H419 C379 0.950 . S
H420 C385 0.949 . S
H421 C386 0.950 . S
H422 C390 0.951 . S
H423 C391 0.950 1_554 S
H424 C395 0.949 . S
H425 C396 0.950 . S
H426 C400 0.950 . S
H427 C402 0.950 . S
H428 C405 0.950 . S
H429 C407 0.950 . S
C430 C431 1.443 . S
C430 N434 1.376 1_556 S
C430 C468 1.389 . S
C431 C430 1.443 . S
C431 C432 1.340 . S
C431 H471 0.951 . S
C432 C431 1.340 . S
C432 C433 1.439 1_556 S
C432 H472 0.950 1_556 S
C433 C432 1.439 1_554 S
C433 N434 1.374 . S
C433 C467 1.395 . S
N434 C430 1.376 1_554 S
N434 C433 1.374 . S
N434 Co435 2.008 . S
Co435 N434 2.008 . S
Co435 N436 1.995 . S
Co435 N441 2.008 . S
Co435 N446 1.995 1_554 S
Co435 N451 2.282 1_554 S
Co435 N457 2.282 . S
N436 Co435 1.995 . S
N436 C437 1.376 . S
N436 C440 1.383 . S
C437 N436 1.376 . S
C437 C438 1.446 . S
C437 C467 1.391 . S
C438 C437 1.446 . S
C438 C439 1.339 . S
C438 H473 0.949 . S
C439 C438 1.339 . S
C439 C440 1.439 . S
C439 H474 0.950 . S
C440 N436 1.383 . S
C440 C439 1.439 . S
C440 C469 1.392 . S
N441 Co435 2.008 . S
N441 C442 1.376 . S
N441 C445 1.374 . S
C442 N441 1.376 . S
C442 C443 1.443 . S
C442 C469 1.389 . S
C443 C442 1.443 . S
C443 C444 1.340 . S
C443 H475 0.951 . S
C444 C443 1.340 . S
C444 C445 1.439 . S
C444 H476 0.950 . S
C445 N441 1.374 . S
C445 C444 1.439 . S
C445 C470 1.395 . S
N446 Co435 1.995 1_556 S
N446 C447 1.376 . S
N446 C450 1.383 . S
C447 N446 1.376 . S
C447 C448 1.446 . S
C447 C470 1.391 1_556 S
C448 C447 1.446 . S
C448 C449 1.339 . S
C448 H477 0.949 . S
C449 C448 1.339 . S
C449 C450 1.439 . S
C449 H478 0.950 . S
C450 N446 1.383 . S
C450 C449 1.439 . S
C450 C468 1.392 . S
N451 Co435 2.282 1_556 S
N451 C454 1.332 . S
N451 C456 1.332 . S
C452 C453 1.386 . S
C452 C455 1.388 . S
C453 C452 1.386 . S
C453 C454 1.382 . S
C453 H479 0.950 . S
C454 N451 1.332 . S
C454 C453 1.382 . S
C454 H465 0.952 . S
C455 C452 1.388 . S
C455 C456 1.382 . S
C455 H480 0.950 . S
C456 N451 1.332 . S
C456 C455 1.382 . S
C456 H466 0.948 1_556 S
N457 Co435 2.282 . S
N457 C461 1.332 . S
N457 C462 1.332 . S
C458 C459 1.388 . S
C458 C462 1.382 . S
C458 H481 0.950 . S
C459 C458 1.388 . S
C459 C460 1.386 . S
C460 C459 1.386 . S
C460 C461 1.382 . S
C460 H482 0.950 . S
C461 N457 1.332 . S
C461 C460 1.382 . S
C461 H463 0.952 . S
C462 N457 1.332 . S
C462 C458 1.382 . S
C462 H464 0.948 . S
H463 C461 0.952 . S
H464 C462 0.948 . S
H465 C454 0.952 . S
H466 C456 0.948 1_554 S
C467 C433 1.395 . S
C467 C437 1.391 . S
C468 C430 1.389 . S
C468 C450 1.392 . S
C469 C440 1.392 . S
C469 C442 1.389 . S
C470 C445 1.395 . S
C470 C447 1.391 1_554 S
H471 C431 0.951 . S
H472 C432 0.950 1_554 S
H473 C438 0.949 . S
H474 C439 0.950 . S
H475 C443 0.951 . S
H476 C444 0.950 . S
H477 C448 0.949 . S
H478 C449 0.950 . S
H479 C453 0.950 . S
H480 C455 0.950 . S
H481 C458 0.950 . S
H482 C460 0.950 . S
C483 C484 1.443 . S
C483 N487 1.376 . S
C483 C521 1.389 . S
C484 C483 1.443 . S
C484 C485 1.340 . S
C484 H524 0.951 . S
C485 C484 1.340 . S
C485 C486 1.439 . S
C485 H525 0.950 . S
C486 C485 1.439 . S
C486 N487 1.374 . S
C486 C520 1.395 1_554 S
N487 C483 1.376 . S
N487 C486 1.374 . S
N487 Co488 2.008 . S
Co488 N487 2.008 . S
Co488 N489 1.995 1_554 S
Co488 N494 2.008 1_554 S
Co488 N499 1.995 . S
Co488 N504 2.282 . S
Co488 N510 2.282 1_554 S
N489 Co488 1.995 1_556 S
N489 C490 1.376 . S
N489 C493 1.383 . S
C490 N489 1.376 . S
C490 C491 1.446 . S
C490 C520 1.391 . S
C491 C490 1.446 . S
C491 C492 1.339 . S
C491 H526 0.949 . S
C492 C491 1.339 . S
C492 C493 1.439 . S
C492 H527 0.950 . S
C493 N489 1.383 . S
C493 C492 1.439 . S
C493 C522 1.392 . S
N494 Co488 2.008 1_556 S
N494 C495 1.377 . S
N494 C498 1.373 1_556 S
C495 N494 1.377 . S
C495 C496 1.443 . S
C495 C522 1.389 . S
C496 C495 1.443 . S
C496 C497 1.340 1_556 S
C496 H528 0.951 . S
C497 C496 1.340 1_554 S
C497 C498 1.439 . S
C497 H529 0.950 . S
C498 N494 1.373 1_554 S
C498 C497 1.439 . S
C498 C523 1.395 . S
N499 Co488 1.995 . S
N499 C500 1.376 . S
N499 C503 1.383 . S
C500 N499 1.376 . S
C500 C501 1.446 . S
C500 C523 1.391 . S
C501 C500 1.446 . S
C501 C502 1.339 . S
C501 H530 0.949 . S
C502 C501 1.339 . S
C502 C503 1.439 . S
C502 H531 0.950 . S
C503 N499 1.383 . S
C503 C502 1.439 . S
C503 C521 1.392 . S
N504 Co488 2.282 . S
N504 C507 1.332 . S
N504 C509 1.332 . S
C505 C506 1.386 . S
C505 C508 1.388 . S
C506 C505 1.386 . S
C506 C507 1.382 . S
C506 H532 0.950 . S
C507 N504 1.332 . S
C507 C506 1.382 . S
C507 H518 0.952 . S
C508 C505 1.388 . S
C508 C509 1.382 . S
C508 H533 0.950 . S
C509 N504 1.332 . S
C509 C508 1.382 . S
C509 H519 0.948 . S
N510 Co488 2.282 1_556 S
N510 C514 1.332 . S
N510 C515 1.332 . S
C511 C512 1.388 . S
C511 C515 1.382 . S
C511 H534 0.950 . S
C512 C511 1.388 . S
C512 C513 1.386 . S
C513 C512 1.386 . S
C513 C514 1.382 . S
C513 H535 0.950 . S
C514 N510 1.332 . S
C514 C513 1.382 . S
C514 H516 0.952 . S
C515 N510 1.332 . S
C515 C511 1.382 . S
C515 H517 0.948 . S
H516 C514 0.952 . S
H517 C515 0.948 . S
H518 C507 0.952 . S
H519 C509 0.948 . S
C520 C486 1.395 1_556 S
C520 C490 1.391 . S
C521 C483 1.389 . S
C521 C503 1.392 . S
C522 C493 1.392 . S
C522 C495 1.389 . S
C523 C498 1.395 . S
C523 C500 1.391 . S
H524 C484 0.951 . S
H525 C485 0.950 . S
H526 C491 0.949 . S
H527 C492 0.950 . S
H528 C496 0.951 . S
H529 C497 0.950 . S
H530 C501 0.949 . S
H531 C502 0.950 . S
H532 C506 0.950 . S
H533 C508 0.950 . S
H534 C511 0.950 . S
H535 C513 0.950 . S
C141 C0 1.738 . S
C194 C26 1.268 . S
C257 C40 1.886 . S
C300 C43 1.161 . S
C57 C256 1.881 . S
C293 C70 1.357 . S
C134 C97 1.728 . S
C187 C111 1.085 . S
C240 C98 1.436 . S
C309 C68 2.248 . S
C150 C83 1.654 . S
C203 C84 2.069 . S
C151 C15 1.607 . S
C204 C29 2.252 . S
C247 C54 1.470 . S
C310 C13 2.023 . S
C353 C99 1.641 . S
C69 C406 1.905 . S
C82 C468 2.001 . S
C85 C522 1.933 . S
C14 C469 1.789 . S
C28 C521 2.139 . S
C55 C346 1.837 . S
C399 C12 1.757 . S
C459 C1 1.396 . S
C27 C505 1.476 . S
C41 C362 1.738 . S
C42 C415 1.250 . S
C363 C56 1.543 . S
C416 C71 1.521 . S
C96 C452 1.524 . S
C512 C110 1.341 . S
