# Generated by pormake.
# Topology gar, (4,6)-cn, num edge types: 1
# Building blocks:
#     Node 0, Type 0, BuildingBlock: CEKHIL_clean_sbu_0, # of connection points: 4
#     Node 1, Type 0, BuildingBlock: CEKHIL_clean_sbu_0, # of connection points: 4
#     Node 2, Type 0, BuildingBlock: CEKHIL_clean_sbu_0, # of connection points: 4
#     Node 3, Type 0, BuildingBlock: CEKHIL_clean_sbu_0, # of connection points: 4
#     Node 4, Type 0, BuildingBlock: CEKHIL_clean_sbu_0, # of connection points: 4
#     Node 5, Type 0, BuildingBlock: CEKHIL_clean_sbu_0, # of connection points: 4
#     Node 6, Type 0, BuildingBlock: CEKHIL_clean_sbu_0, # of connection points: 4
#     Node 7, Type 0, BuildingBlock: CEKHIL_clean_sbu_0, # of connection points: 4
#     Node 8, Type 0, BuildingBlock: CEKHIL_clean_sbu_0, # of connection points: 4
#     Node 9, Type 0, BuildingBlock: CEKHIL_clean_sbu_0, # of connection points: 4
#     Node 10, Type 0, BuildingBlock: CEKHIL_clean_sbu_0, # of connection points: 4
#     Node 11, Type 0, BuildingBlock: CEKHIL_clean_sbu_0, # of connection points: 4
#     Node 12, Type 0, BuildingBlock: CEKHIL_clean_sbu_0, # of connection points: 4
#     Node 13, Type 0, BuildingBlock: CEKHIL_clean_sbu_0, # of connection points: 4
#     Node 14, Type 0, BuildingBlock: CEKHIL_clean_sbu_0, # of connection points: 4
#     Node 15, Type 0, BuildingBlock: CEKHIL_clean_sbu_0, # of connection points: 4
#     Node 16, Type 0, BuildingBlock: CEKHIL_clean_sbu_0, # of connection points: 4
#     Node 17, Type 0, BuildingBlock: CEKHIL_clean_sbu_0, # of connection points: 4
#     Node 18, Type 0, BuildingBlock: CEKHIL_clean_sbu_0, # of connection points: 4
#     Node 19, Type 0, BuildingBlock: CEKHIL_clean_sbu_0, # of connection points: 4
#     Node 20, Type 0, BuildingBlock: CEKHIL_clean_sbu_0, # of connection points: 4
#     Node 21, Type 0, BuildingBlock: CEKHIL_clean_sbu_0, # of connection points: 4
#     Node 22, Type 0, BuildingBlock: CEKHIL_clean_sbu_0, # of connection points: 4
#     Node 23, Type 0, BuildingBlock: CEKHIL_clean_sbu_0, # of connection points: 4
#     Node 24, Type 1, BuildingBlock: BETDIP_clean_sbu_0, # of connection points: 6
#     Node 25, Type 1, BuildingBlock: BETDIP_clean_sbu_0, # of connection points: 6
#     Node 26, Type 1, BuildingBlock: BETDIP_clean_sbu_0, # of connection points: 6
#     Node 27, Type 1, BuildingBlock: BETDIP_clean_sbu_0, # of connection points: 6
#     Node 28, Type 1, BuildingBlock: BETDIP_clean_sbu_0, # of connection points: 6
#     Node 29, Type 1, BuildingBlock: BETDIP_clean_sbu_0, # of connection points: 6
#     Node 30, Type 1, BuildingBlock: BETDIP_clean_sbu_0, # of connection points: 6
#     Node 31, Type 1, BuildingBlock: BETDIP_clean_sbu_0, # of connection points: 6
#     Node 32, Type 1, BuildingBlock: BETDIP_clean_sbu_0, # of connection points: 6
#     Node 33, Type 1, BuildingBlock: BETDIP_clean_sbu_0, # of connection points: 6
#     Node 34, Type 1, BuildingBlock: BETDIP_clean_sbu_0, # of connection points: 6
#     Node 35, Type 1, BuildingBlock: BETDIP_clean_sbu_0, # of connection points: 6
#     Node 36, Type 1, BuildingBlock: BETDIP_clean_sbu_0, # of connection points: 6
#     Node 37, Type 1, BuildingBlock: BETDIP_clean_sbu_0, # of connection points: 6
#     Node 38, Type 1, BuildingBlock: BETDIP_clean_sbu_0, # of connection points: 6
#     Node 39, Type 1, BuildingBlock: BETDIP_clean_sbu_0, # of connection points: 6
#     Edge 40, Type (0, 1), BuildingBlock: ZUJKAS_clean_linker_0, # of connection points: 2
#     Edge 41, Type (0, 1), BuildingBlock: ZUJKAS_clean_linker_0, # of connection points: 2
#     Edge 42, Type (0, 1), BuildingBlock: ZUJKAS_clean_linker_0, # of connection points: 2
#     Edge 43, Type (0, 1), BuildingBlock: ZUJKAS_clean_linker_0, # of connection points: 2
#     Edge 44, Type (0, 1), BuildingBlock: ZUJKAS_clean_linker_0, # of connection points: 2
#     Edge 45, Type (0, 1), BuildingBlock: ZUJKAS_clean_linker_0, # of connection points: 2
#     Edge 46, Type (0, 1), BuildingBlock: ZUJKAS_clean_linker_0, # of connection points: 2
#     Edge 47, Type (0, 1), BuildingBlock: ZUJKAS_clean_linker_0, # of connection points: 2
#     Edge 48, Type (0, 1), BuildingBlock: ZUJKAS_clean_linker_0, # of connection points: 2
#     Edge 49, Type (0, 1), BuildingBlock: ZUJKAS_clean_linker_0, # of connection points: 2
#     Edge 50, Type (0, 1), BuildingBlock: ZUJKAS_clean_linker_0, # of connection points: 2
#     Edge 51, Type (0, 1), BuildingBlock: ZUJKAS_clean_linker_0, # of connection points: 2
#     Edge 52, Type (0, 1), BuildingBlock: ZUJKAS_clean_linker_0, # of connection points: 2
#     Edge 53, Type (0, 1), BuildingBlock: ZUJKAS_clean_linker_0, # of connection points: 2
#     Edge 54, Type (0, 1), BuildingBlock: ZUJKAS_clean_linker_0, # of connection points: 2
#     Edge 55, Type (0, 1), BuildingBlock: ZUJKAS_clean_linker_0, # of connection points: 2
#     Edge 56, Type (0, 1), BuildingBlock: ZUJKAS_clean_linker_0, # of connection points: 2
#     Edge 57, Type (0, 1), BuildingBlock: ZUJKAS_clean_linker_0, # of connection points: 2
#     Edge 58, Type (0, 1), BuildingBlock: ZUJKAS_clean_linker_0, # of connection points: 2
#     Edge 59, Type (0, 1), BuildingBlock: ZUJKAS_clean_linker_0, # of connection points: 2
#     Edge 60, Type (0, 1), BuildingBlock: ZUJKAS_clean_linker_0, # of connection points: 2
#     Edge 61, Type (0, 1), BuildingBlock: ZUJKAS_clean_linker_0, # of connection points: 2
#     Edge 62, Type (0, 1), BuildingBlock: ZUJKAS_clean_linker_0, # of connection points: 2
#     Edge 63, Type (0, 1), BuildingBlock: ZUJKAS_clean_linker_0, # of connection points: 2
#     Edge 64, Type (0, 1), BuildingBlock: ZUJKAS_clean_linker_0, # of connection points: 2
#     Edge 65, Type (0, 1), BuildingBlock: ZUJKAS_clean_linker_0, # of connection points: 2
#     Edge 66, Type (0, 1), BuildingBlock: ZUJKAS_clean_linker_0, # of connection points: 2
#     Edge 67, Type (0, 1), BuildingBlock: ZUJKAS_clean_linker_0, # of connection points: 2
#     Edge 68, Type (0, 1), BuildingBlock: ZUJKAS_clean_linker_0, # of connection points: 2
#     Edge 69, Type (0, 1), BuildingBlock: ZUJKAS_clean_linker_0, # of connection points: 2
#     Edge 70, Type (0, 1), BuildingBlock: ZUJKAS_clean_linker_0, # of connection points: 2
#     Edge 71, Type (0, 1), BuildingBlock: ZUJKAS_clean_linker_0, # of connection points: 2
#     Edge 72, Type (0, 1), BuildingBlock: ZUJKAS_clean_linker_0, # of connection points: 2
#     Edge 73, Type (0, 1), BuildingBlock: ZUJKAS_clean_linker_0, # of connection points: 2
#     Edge 74, Type (0, 1), BuildingBlock: ZUJKAS_clean_linker_0, # of connection points: 2
#     Edge 75, Type (0, 1), BuildingBlock: ZUJKAS_clean_linker_0, # of connection points: 2
#     Edge 76, Type (0, 1), BuildingBlock: ZUJKAS_clean_linker_0, # of connection points: 2
#     Edge 77, Type (0, 1), BuildingBlock: ZUJKAS_clean_linker_0, # of connection points: 2
#     Edge 78, Type (0, 1), BuildingBlock: ZUJKAS_clean_linker_0, # of connection points: 2
#     Edge 79, Type (0, 1), BuildingBlock: ZUJKAS_clean_linker_0, # of connection points: 2
#     Edge 80, Type (0, 1), BuildingBlock: ZUJKAS_clean_linker_0, # of connection points: 2
#     Edge 81, Type (0, 1), BuildingBlock: ZUJKAS_clean_linker_0, # of connection points: 2
#     Edge 82, Type (0, 1), BuildingBlock: ZUJKAS_clean_linker_0, # of connection points: 2
#     Edge 83, Type (0, 1), BuildingBlock: ZUJKAS_clean_linker_0, # of connection points: 2
#     Edge 84, Type (0, 1), BuildingBlock: ZUJKAS_clean_linker_0, # of connection points: 2
#     Edge 85, Type (0, 1), BuildingBlock: ZUJKAS_clean_linker_0, # of connection points: 2
#     Edge 86, Type (0, 1), BuildingBlock: ZUJKAS_clean_linker_0, # of connection points: 2
#     Edge 87, Type (0, 1), BuildingBlock: ZUJKAS_clean_linker_0, # of connection points: 2
#     Edge 88, Type (0, 1), BuildingBlock: ZUJKAS_clean_linker_0, # of connection points: 2
#     Edge 89, Type (0, 1), BuildingBlock: ZUJKAS_clean_linker_0, # of connection points: 2
#     Edge 90, Type (0, 1), BuildingBlock: ZUJKAS_clean_linker_0, # of connection points: 2
#     Edge 91, Type (0, 1), BuildingBlock: ZUJKAS_clean_linker_0, # of connection points: 2
#     Edge 92, Type (0, 1), BuildingBlock: ZUJKAS_clean_linker_0, # of connection points: 2
#     Edge 93, Type (0, 1), BuildingBlock: ZUJKAS_clean_linker_0, # of connection points: 2
#     Edge 94, Type (0, 1), BuildingBlock: ZUJKAS_clean_linker_0, # of connection points: 2
#     Edge 95, Type (0, 1), BuildingBlock: ZUJKAS_clean_linker_0, # of connection points: 2
#     Edge 96, Type (0, 1), BuildingBlock: ZUJKAS_clean_linker_0, # of connection points: 2
#     Edge 97, Type (0, 1), BuildingBlock: ZUJKAS_clean_linker_0, # of connection points: 2
#     Edge 98, Type (0, 1), BuildingBlock: ZUJKAS_clean_linker_0, # of connection points: 2
#     Edge 99, Type (0, 1), BuildingBlock: ZUJKAS_clean_linker_0, # of connection points: 2
#     Edge 100, Type (0, 1), BuildingBlock: ZUJKAS_clean_linker_0, # of connection points: 2
#     Edge 101, Type (0, 1), BuildingBlock: ZUJKAS_clean_linker_0, # of connection points: 2
#     Edge 102, Type (0, 1), BuildingBlock: ZUJKAS_clean_linker_0, # of connection points: 2
#     Edge 103, Type (0, 1), BuildingBlock: ZUJKAS_clean_linker_0, # of connection points: 2
#     Edge 104, Type (0, 1), BuildingBlock: ZUJKAS_clean_linker_0, # of connection points: 2
#     Edge 105, Type (0, 1), BuildingBlock: ZUJKAS_clean_linker_0, # of connection points: 2
#     Edge 106, Type (0, 1), BuildingBlock: ZUJKAS_clean_linker_0, # of connection points: 2
#     Edge 107, Type (0, 1), BuildingBlock: ZUJKAS_clean_linker_0, # of connection points: 2
#     Edge 108, Type (0, 1), BuildingBlock: ZUJKAS_clean_linker_0, # of connection points: 2
#     Edge 109, Type (0, 1), BuildingBlock: ZUJKAS_clean_linker_0, # of connection points: 2
#     Edge 110, Type (0, 1), BuildingBlock: ZUJKAS_clean_linker_0, # of connection points: 2
#     Edge 111, Type (0, 1), BuildingBlock: ZUJKAS_clean_linker_0, # of connection points: 2
#     Edge 112, Type (0, 1), BuildingBlock: ZUJKAS_clean_linker_0, # of connection points: 2
#     Edge 113, Type (0, 1), BuildingBlock: ZUJKAS_clean_linker_0, # of connection points: 2
#     Edge 114, Type (0, 1), BuildingBlock: ZUJKAS_clean_linker_0, # of connection points: 2
#     Edge 115, Type (0, 1), BuildingBlock: ZUJKAS_clean_linker_0, # of connection points: 2
#     Edge 116, Type (0, 1), BuildingBlock: ZUJKAS_clean_linker_0, # of connection points: 2
#     Edge 117, Type (0, 1), BuildingBlock: ZUJKAS_clean_linker_0, # of connection points: 2
#     Edge 118, Type (0, 1), BuildingBlock: ZUJKAS_clean_linker_0, # of connection points: 2
#     Edge 119, Type (0, 1), BuildingBlock: ZUJKAS_clean_linker_0, # of connection points: 2
#     Edge 120, Type (0, 1), BuildingBlock: ZUJKAS_clean_linker_0, # of connection points: 2
#     Edge 121, Type (0, 1), BuildingBlock: ZUJKAS_clean_linker_0, # of connection points: 2
#     Edge 122, Type (0, 1), BuildingBlock: ZUJKAS_clean_linker_0, # of connection points: 2
#     Edge 123, Type (0, 1), BuildingBlock: ZUJKAS_clean_linker_0, # of connection points: 2
#     Edge 124, Type (0, 1), BuildingBlock: ZUJKAS_clean_linker_0, # of connection points: 2
#     Edge 125, Type (0, 1), BuildingBlock: ZUJKAS_clean_linker_0, # of connection points: 2
#     Edge 126, Type (0, 1), BuildingBlock: ZUJKAS_clean_linker_0, # of connection points: 2
#     Edge 127, Type (0, 1), BuildingBlock: ZUJKAS_clean_linker_0, # of connection points: 2
#     Edge 128, Type (0, 1), BuildingBlock: ZUJKAS_clean_linker_0, # of connection points: 2
#     Edge 129, Type (0, 1), BuildingBlock: ZUJKAS_clean_linker_0, # of connection points: 2
#     Edge 130, Type (0, 1), BuildingBlock: ZUJKAS_clean_linker_0, # of connection points: 2
#     Edge 131, Type (0, 1), BuildingBlock: ZUJKAS_clean_linker_0, # of connection points: 2
#     Edge 132, Type (0, 1), BuildingBlock: ZUJKAS_clean_linker_0, # of connection points: 2
#     Edge 133, Type (0, 1), BuildingBlock: ZUJKAS_clean_linker_0, # of connection points: 2
#     Edge 134, Type (0, 1), BuildingBlock: ZUJKAS_clean_linker_0, # of connection points: 2
#     Edge 135, Type (0, 1), BuildingBlock: ZUJKAS_clean_linker_0, # of connection points: 2
# Relax obj value: 0.149
# Max RMSD: 0.269
# Mean RMSD: 0.139
data_MOF--net-gar--node1-CEKHIL_clean_sbu_0--node2-BETDIP_clean_sbu_0--edge1-ZUJKAS_clean_linker_0
_symmetry_space_group_name_H-M    P1
_symmetry_Int_Tables_number       1
_symmetry_cell_setting            triclinic
loop_
_symmetry_equiv_pos_as_xyz
'x, y, z'
_cell_length_a     79.932678
_cell_length_b     72.404294
_cell_length_c     69.487385
_cell_angle_alpha  96.156032
_cell_angle_beta   97.756434
_cell_angle_gamma 99.969979
loop_
_atom_site_label
_atom_site_type_symbol
_atom_site_fract_x
_atom_site_fract_y
_atom_site_fract_z
_atom_type_partial_charge
Co0 Co 0.04061 0.30715 0.38791 0.0
O1 O 0.06479 0.3069 0.38946 0.0
O2 O 0.04628 0.30405 0.36194 0.0
C3 C 0.04262 0.33229 0.41055 0.0
O4 O 1.01526 0.30749 0.38016 0.0
Co5 Co 0.02104 0.30062 0.42312 0.0
O6 O 1.00202 0.3085 0.40669 0.0
C7 C 0.03073 0.26832 0.40055 0.0
C8 C 0.06194 0.30479 0.3704 0.0
C9 C 1.00208 0.30921 0.38847 0.0
O10 O 0.03582 0.27887 0.3879 0.0
O11 O 0.02551 0.2746 0.41615 0.0
O12 O 0.04528 0.33469 0.39286 0.0
O13 O 0.04073 0.31508 0.41446 0.0
Co14 Co 0.04678 0.76736 0.67361 0.0
O15 O 0.0225 0.76624 0.67191 0.0
O16 O 0.03812 0.75314 0.69344 0.0
C17 C 0.05386 0.79855 0.67203 0.0
O18 O 0.07221 0.76647 0.68008 0.0
Co19 Co 0.06519 0.77937 0.63874 0.0
O20 O 0.08613 0.78136 0.65832 0.0
C21 C 0.04426 0.74116 0.63567 0.0
C22 C 0.02323 0.75694 0.68685 0.0
C23 C 0.08612 0.77362 0.67398 0.0
O24 O 0.04288 0.74372 0.65399 0.0
O25 O 0.05106 0.75425 0.62656 0.0
O26 O 0.05127 0.79271 0.68861 0.0
O27 O 0.05029 0.78568 0.65699 0.0
Co28 Co 0.53855 0.80591 0.88517 0.0
O29 O 0.56258 0.80673 0.88464 0.0
O30 O 0.54213 0.79971 0.85857 0.0
C31 C 0.54119 0.83291 0.90534 0.0
O32 O 0.5127 0.80437 0.87987 0.0
Co33 Co 0.5233 0.80308 0.92398 0.0
O34 O 0.50226 0.80775 0.90827 0.0
C35 C 0.53155 0.76915 0.9027 0.0
C36 C 0.55831 0.80181 0.86584 0.0
C37 C 0.50039 0.80624 0.88963 0.0
O38 O 0.53546 0.7784 0.88865 0.0
O39 O 0.52736 0.77664 0.91845 0.0
O40 O 0.54181 0.83339 0.88678 0.0
O41 O 0.54083 0.81658 0.91125 0.0
Co42 Co 0.55047 0.26527 0.18445 0.0
O43 O 0.52617 0.2641 0.18282 0.0
O44 O 0.54202 0.25129 0.20445 0.0
C45 C 0.55761 0.2963 0.18242 0.0
O46 O 0.5758 0.26428 0.19093 0.0
Co47 Co 0.56879 0.27654 0.14922 0.0
O48 O 0.58989 0.27598 0.1676 0.0
C49 C 0.54721 0.23887 0.14664 0.0
C50 C 0.52707 0.25489 0.19784 0.0
C51 C 0.58971 0.26937 0.18387 0.0
O52 O 0.5465 0.24146 0.16512 0.0
O53 O 0.55366 0.25194 0.13727 0.0
O54 O 0.55492 0.29081 0.19912 0.0
O55 O 0.55407 0.28327 0.16753 0.0
Co56 Co 0.06792 0.79839 0.14913 0.0
O57 O 0.04309 0.79601 0.14488 0.0
O58 O 0.05818 0.7905 0.17188 0.0
C59 C 0.07283 0.82703 0.13759 0.0
O60 O 0.09357 0.79983 0.15987 0.0
Co61 Co 0.08958 0.80087 0.11579 0.0
O62 O 0.11 0.80477 0.13648 0.0
C63 C 0.06856 0.76412 0.11999 0.0
C64 C 0.04322 0.79146 0.16245 0.0
C65 C 0.10843 0.80252 0.15412 0.0
O66 O 0.06574 0.77104 0.13692 0.0
O67 O 0.07625 0.77425 0.10862 0.0
O68 O 0.07045 0.82597 0.15561 0.0
O69 O 0.0716 0.81092 0.12703 0.0
Co70 Co 0.52501 0.76746 0.41682 0.0
O71 O 0.54981 0.77002 0.42052 0.0
O72 O 0.53276 0.75751 0.39294 0.0
C73 C 0.52512 0.79748 0.43049 0.0
O74 O 0.4988 0.76382 0.407 0.0
Co75 Co 0.50576 0.77135 0.45238 0.0
O76 O 0.48634 0.77365 0.43238 0.0
C77 C 0.52043 0.73714 0.44412 0.0
C78 C 0.54839 0.76272 0.40238 0.0
C79 C 0.48569 0.76847 0.41413 0.0
O80 O 0.52284 0.74177 0.42708 0.0
O81 O 0.51516 0.74795 0.45686 0.0
O82 O 0.52726 0.79403 0.41234 0.0
O83 O 0.52437 0.7831 0.44005 0.0
Co84 Co 0.56941 0.29856 0.6481 0.0
O85 O 0.54453 0.29575 0.64357 0.0
O86 O 0.55954 0.29015 0.67058 0.0
C87 C 0.57412 0.32748 0.6371 0.0
O88 O 0.59511 0.30043 0.6591 0.0
Co89 Co 0.59146 0.30222 0.61509 0.0
O90 O 0.61162 0.30702 0.63611 0.0
C91 C 0.57253 0.26436 0.61982 0.0
C92 C 0.54458 0.291 0.66106 0.0
C93 C 0.61002 0.30406 0.65356 0.0
O94 O 0.56777 0.27136 0.63565 0.0
O95 O 0.58092 0.27461 0.60906 0.0
O96 O 0.57144 0.32603 0.65496 0.0
O97 O 0.57317 0.31156 0.6263 0.0
Co98 Co 0.02682 0.26733 0.9179 0.0
O99 O 0.05167 0.27026 0.92185 0.0
O100 O 0.03482 0.25733 0.89426 0.0
C101 C 0.02642 0.29741 0.93109 0.0
O102 O 1.00071 0.26312 0.90764 0.0
Co103 Co 1.007 0.27124 0.95288 0.0
O104 O 0.98688 0.27071 0.93264 0.0
C105 C 0.02192 0.2371 0.94535 0.0
C106 C 0.0504 0.26281 0.90377 0.0
C107 C 0.98694 0.26599 0.91446 0.0
O108 O 0.02481 0.24176 0.92845 0.0
O109 O 0.01636 0.24793 0.9578 0.0
O110 O 0.02868 0.29374 0.91301 0.0
O111 O 0.02582 0.28322 0.94093 0.0
Co112 Co 0.41665 0.05265 0.27601 0.0
O113 O 0.41951 0.08111 0.27837 0.0
O114 O 0.39532 0.06251 0.26678 0.0
C115 C 0.43088 0.05139 0.3081 0.0
O116 O 0.40613 0.02312 0.27292 0.0
Co117 Co 0.44525 0.02938 0.27938 0.0
O118 O 0.42721 1.00749 0.28176 0.0
C119 C 0.43908 0.04578 0.24233 0.0
C120 C 0.40325 0.07995 0.27189 0.0
C121 C 0.41126 1.00756 0.277 0.0
O122 O 0.42519 0.05087 0.24793 0.0
O123 O 0.44921 0.03842 0.25378 0.0
O124 O 0.41508 0.05395 0.30483 0.0
O125 O 0.43783 0.05091 0.29237 0.0
Co126 Co 0.27458 0.15367 0.50703 0.0
O127 O 0.29952 0.15824 0.50954 0.0
O128 O 0.28362 0.13178 0.5148 0.0
C129 C 0.27098 0.16549 0.47781 0.0
O130 O 0.24867 0.14278 0.50544 0.0
Co131 Co 0.25294 0.18506 0.50414 0.0
O132 O 0.23257 0.16431 0.49811 0.0
C133 C 0.2726 0.18107 0.54251 0.0
C134 C 0.29886 0.14118 0.51397 0.0
C135 C 0.23388 0.1476 0.50131 0.0
O136 O 0.27611 0.16519 0.53539 0.0
O137 O 0.26486 0.19145 0.53196 0.0
O138 O 0.27297 0.14808 0.47831 0.0
O139 O 0.27165 0.1751 0.49469 0.0
Co140 Co 0.15416 0.04884 0.81106 0.0
O141 O 0.14843 0.02154 0.80725 0.0
O142 O 0.17266 0.03856 0.80162 0.0
C143 C 0.14589 0.05236 0.8409 0.0
O144 O 0.16552 0.0766 0.81398 0.0
Co145 Co 0.12776 0.07456 0.81548 0.0
O146 O 0.14762 0.09608 0.82104 0.0
C147 C 0.12854 0.05404 0.77669 0.0
C148 C 0.16347 0.02198 0.80198 0.0
C149 C 0.16247 0.09327 0.81833 0.0
O150 O 0.14293 0.04959 0.78337 0.0
O151 O 0.11967 0.06239 0.78761 0.0
O152 O 0.16099 0.04871 0.83906 0.0
O153 O 0.13597 0.05282 0.8247 0.0
Co154 Co 0.25671 0.87674 1.00171 0.0
O155 O 0.23755 0.87359 0.01602 0.0
O156 O 0.25532 0.90065 0.01541 0.0
C157 C 0.24327 0.8596 0.97322 0.0
O158 O 0.27715 0.88615 0.98871 0.0
Co159 Co 0.27298 0.84343 0.98584 0.0
O160 O 0.2871 0.86251 0.9732 0.0
C161 C 0.28149 0.85906 0.02779 0.0
C162 C 0.24209 0.89169 0.02178 0.0
C163 C 0.28742 0.88008 0.97792 0.0
O164 O 0.27259 0.87195 0.02481 0.0
O165 O 0.28225 0.84568 0.01449 0.0
O166 O 0.24128 0.87694 0.97748 0.0
O167 O 0.25173 0.8527 0.98701 0.0
Co168 Co 0.31052 0.40283 0.0486 0.0
O169 O 0.28572 0.39852 0.04708 0.0
O170 O 0.30303 0.42539 0.05977 0.0
C171 C 0.31003 0.39011 0.01714 0.0
O172 O 0.33673 0.41322 0.05146 0.0
Co173 Co 0.33007 0.36971 0.04208 0.0
O174 O 0.34908 0.39003 0.03879 0.0
C175 C 0.3151 0.37561 0.07851 0.0
C176 C 0.28733 0.41596 0.05485 0.0
C177 C 0.34971 0.40734 0.04521 0.0
O178 O 0.31272 0.39221 0.07482 0.0
O179 O 0.32045 0.36419 0.06643 0.0
O180 O 0.30809 0.40749 0.02107 0.0
O181 O 0.31103 0.38085 0.03194 0.0
Co182 Co 0.83427 0.17824 0.03427 0.0
O183 O 0.857 0.17845 0.0281 0.0
O184 O 0.84404 0.15927 0.04673 0.0
C185 C 0.82068 0.17877 1.00403 0.0
O186 O 0.81085 0.17302 0.04282 0.0
Co187 Co 0.81594 0.21219 0.02822 0.0
O188 O 0.79533 0.19398 0.032 0.0
C189 C 0.84238 0.21488 0.06274 0.0
C190 C 0.85729 0.16437 0.0382 0.0
C191 C 0.79658 0.17891 0.03961 0.0
O192 O 0.84337 0.19745 0.05817 0.0
O193 O 0.83344 0.22384 0.0517 0.0
O194 O 0.82424 0.16302 0.00923 0.0
O195 O 0.8276 0.19384 0.01611 0.0
Co196 Co 0.17093 0.50425 0.29975 0.0
O197 O 0.16784 0.47575 0.29848 0.0
O198 O 0.19155 0.49312 0.29453 0.0
C199 C 0.15828 0.50931 0.32899 0.0
O200 O 0.18185 0.53344 0.30063 0.0
Co201 Co 0.14363 0.52908 0.29869 0.0
O202 O 0.16239 0.55179 0.30465 0.0
C203 C 0.14748 0.5083 0.26084 0.0
C204 C 0.18366 0.47611 0.29563 0.0
C205 C 0.17777 0.55017 0.30306 0.0
O206 O 0.1609 0.50258 0.26966 0.0
O207 O 0.13837 0.51775 0.27033 0.0
O208 O 0.17404 0.5067 0.32943 0.0
O209 O 0.15055 0.50824 0.31122 0.0
Co210 Co 0.81003 0.90239 0.54903 0.0
O211 O 0.78518 0.89754 0.54735 0.0
O212 O 0.80203 0.92487 0.55942 0.0
C213 C 0.80989 0.88889 0.51789 0.0
O214 O 0.83608 0.91356 0.55191 0.0
Co215 Co 0.83089 0.87039 0.54404 0.0
O216 O 0.84914 0.89095 0.53951 0.0
C217 C 0.8179 0.87813 0.5815 0.0
C218 C 0.78646 0.9151 0.55459 0.0
C219 C 0.84927 0.90818 0.5457 0.0
O220 O 0.81258 0.89287 0.5758 0.0
O221 O 0.82462 0.86705 0.57055 0.0
O222 O 0.80752 0.90617 0.5213 0.0
O223 O 0.81116 0.88007 0.53304 0.0
Co224 Co 0.93761 1.01066 0.26258 0.0
O225 O 0.94168 0.03791 0.26466 0.0
O226 O 0.9174 0.01875 0.25066 0.0
C227 C 0.94883 1.00973 0.29394 0.0
O228 O 0.92768 0.98239 0.25863 0.0
Co229 Co 0.96637 0.98754 0.26877 0.0
O230 O 0.94752 0.96584 0.26921 0.0
C231 C 0.9618 1.00645 0.23332 0.0
C232 C 0.9259 0.03594 0.25597 0.0
C233 C 0.93202 0.96686 0.263 0.0
O234 O 0.94699 1.00926 0.23698 0.0
O235 O 0.97203 0.99952 0.2451 0.0
O236 O 0.93306 1.01205 0.28955 0.0
O237 O 0.95749 1.00905 0.27957 0.0
Co238 Co 0.32806 0.67557 0.54046 0.0
O239 O 0.34977 0.66892 0.53685 0.0
O240 O 0.33104 0.65417 0.55368 0.0
C241 C 0.31828 0.6788 0.50949 0.0
O242 O 0.30435 0.67746 0.54657 0.0
Co243 Co 0.31982 0.71482 0.53316 0.0
O244 O 0.29583 0.70266 0.5349 0.0
C245 C 0.34189 0.71138 0.56954 0.0
C246 C 0.34555 0.65523 0.54701 0.0
C247 C 0.29278 0.68733 0.54238 0.0
O248 O 0.33899 0.69331 0.56494 0.0
O249 O 0.33668 0.7226 0.55803 0.0
O250 O 0.31739 0.66206 0.51483 0.0
O251 O 0.32741 0.69255 0.52205 0.0
Co252 Co 0.43879 0.51263 0.75901 0.0
O253 O 0.44368 0.53982 0.7598 0.0
O254 O 0.41886 0.52111 0.74694 0.0
C255 C 0.45018 0.51252 0.79055 0.0
O256 O 0.42794 0.48464 0.75645 0.0
Co257 Co 0.4665 0.48831 0.7658 0.0
O258 O 0.44719 0.46768 0.76772 0.0
C259 C 0.46131 0.50426 0.72848 0.0
C260 C 0.42784 0.53816 0.75142 0.0
C261 C 0.43179 0.46913 0.76156 0.0
O262 O 0.44756 0.50943 0.73306 0.0
O263 O 0.47122 0.49688 0.74018 0.0
O264 O 0.43468 0.51561 0.78609 0.0
O265 O 0.45866 0.51077 0.77609 0.0
Co266 Co 0.67102 1.00398 0.79905 0.0
O267 O 0.6684 0.97553 0.79777 0.0
O268 O 0.6918 0.9933 0.79353 0.0
C269 C 0.6586 1.00874 0.82852 0.0
O270 O 0.68135 0.03334 0.80006 0.0
Co271 Co 0.64262 0.02762 0.79841 0.0
O272 O 0.66085 0.05068 0.80221 0.0
C273 C 0.64649 1.00699 0.7605 0.0
C274 C 0.68421 0.97619 0.79474 0.0
C275 C 0.67649 0.04972 0.80132 0.0
O276 O 0.66061 1.00225 0.76894 0.0
O277 O 0.63705 0.01553 0.77041 0.0
O278 O 0.67443 1.00641 0.8288 0.0
O279 O 0.65071 1.00741 0.81083 0.0
Co280 Co 0.77656 0.65596 1.00644 0.0
O281 O 0.80154 0.66059 0.00944 0.0
O282 O 0.78555 0.63408 0.01438 0.0
C283 C 0.77324 0.66783 0.97716 0.0
O284 O 0.75057 0.64497 1.00428 0.0
Co285 Co 0.75514 0.68754 1.00352 0.0
O286 O 0.73468 0.66692 0.99781 0.0
C287 C 0.77416 0.68319 0.04204 0.0
C288 C 0.80084 0.64354 0.01388 0.0
C289 C 0.73584 0.65003 1.0005 0.0
O290 O 0.77766 0.66733 0.03483 0.0
O291 O 0.7667 0.69376 0.03148 0.0
O292 O 0.77536 0.65048 0.97776 0.0
O293 O 0.77377 0.67743 0.99401 0.0
Co294 Co 0.91668 0.55277 0.7768 0.0
O295 O 0.91959 0.58119 0.77863 0.0
O296 O 0.89525 0.56253 0.76789 0.0
C297 C 0.93142 0.55189 0.80869 0.0
O298 O 0.9061 0.52334 0.77433 0.0
Co299 Co 0.94513 0.52925 0.77992 0.0
O300 O 0.92717 0.50801 0.78399 0.0
C301 C 0.93726 0.54342 0.74184 0.0
C302 C 0.90326 0.57999 0.77254 0.0
C303 C 0.91122 0.50801 0.77916 0.0
O304 O 0.9245 0.55029 0.7484 0.0
O305 O 0.94721 0.53544 0.7528 0.0
O306 O 0.91565 0.55458 0.80573 0.0
O307 O 0.93808 0.55111 0.79276 0.0
Co308 Co 0.74869 0.37974 0.50296 0.0
O309 O 0.72896 0.37917 0.51613 0.0
O310 O 0.74818 0.40485 0.51455 0.0
C311 C 0.73581 0.36153 0.47494 0.0
O312 O 0.7702 0.38623 0.49065 0.0
Co313 Co 0.76298 0.34355 0.49142 0.0
O314 O 0.77853 0.36018 0.47773 0.0
C315 C 0.77097 0.36236 0.53231 0.0
C316 C 0.73431 0.39731 0.52082 0.0
C317 C 0.78014 0.37811 0.48094 0.0
O318 O 0.76306 0.37561 0.52752 0.0
O319 O 0.77138 0.34776 0.52039 0.0
O320 O 0.73464 0.37929 0.47767 0.0
O321 O 0.74273 0.35499 0.49001 0.0
Co322 Co 0.6533 0.54549 0.30859 0.0
O323 O 0.64845 0.51813 0.30417 0.0
O324 O 0.67234 0.53637 0.29927 0.0
C325 C 0.64456 0.54788 0.33822 0.0
O326 O 0.664 0.57349 0.31221 0.0
Co327 Co 0.62631 0.57033 0.3133 0.0
O328 O 0.64573 0.59224 0.31995 0.0
C329 C 0.62802 0.55121 0.27404 0.0
C330 C 0.66367 0.51944 0.29918 0.0
C331 C 0.66068 0.58993 0.31715 0.0
O332 O 0.64219 0.54639 0.2809 0.0
O333 O 0.61908 0.55952 0.28491 0.0
O334 O 0.6599 0.54489 0.33653 0.0
O335 O 0.63472 0.54845 0.32199 0.0
Tb336 Tb 0.03102 0.01865 0.02381 0.0
Tb337 Tb 0.06541 0.0393 0.04516 0.0
C338 C 1.00032 1.0021 0.01404 0.0
C339 C 0.98551 1.00788 1.00326 0.0
C340 C 0.98791 0.02501 0.99542 0.0
C341 C 0.97408 0.03407 0.99122 0.0
C342 C 0.95761 0.02602 0.99469 0.0
C343 C 0.95497 1.00775 1.00031 0.0
C344 C 0.96889 0.99882 1.00478 0.0
C345 C 0.05405 0.02691 1.001 0.0
C346 C 0.04188 0.06256 0.02236 0.0
C347 C 0.09674 0.04891 0.05865 0.0
C348 C 0.10965 0.03701 0.06211 0.0
C349 C 0.10786 0.0196 0.05031 0.0
C350 C 0.1189 1.00723 0.05475 0.0
C351 C 0.13191 1.01195 0.07118 0.0
C352 C 0.13378 0.02949 0.08294 0.0
C353 C 0.12267 0.04191 0.07845 0.0
C354 C 0.03912 0.04178 0.06397 0.0
C355 C 0.05535 0.99463 0.0456 0.0
O356 O 1.0063 1.01285 0.03078 0.0
O357 O 1.01257 0.99871 1.00415 0.0
O358 O 0.05692 0.02162 0.01771 0.0
O359 O 0.03777 0.0265 0.99621 0.0
O360 O 0.02883 0.0485 0.02274 0.0
O361 O 0.05797 0.06108 0.02835 0.0
O362 O 0.0905 0.04923 0.04024 0.0
O363 O 0.08472 0.04669 0.06969 0.0
O364 O 0.0417 0.02758 0.05357 0.0
O365 O 0.05211 0.05549 0.06474 0.0
O366 O 0.06679 1.01049 0.05131 0.0
O367 O 0.04061 0.99433 0.03418 0.0
H368 H 1.00072 0.03221 0.99424 0.0
H369 H 0.9767 0.04814 0.98704 0.0
H370 H 0.94237 1.00096 1.00266 0.0
H371 H 0.96686 0.9856 0.01088 0.0
H372 H 0.09773 0.01536 0.03781 0.0
H373 H 0.11733 0.99403 0.04515 0.0
H374 H 0.14365 0.03347 0.09573 0.0
H375 H 0.12401 0.05515 0.08792 0.0
Tb376 Tb 0.29635 0.7718 0.26489 0.0
Tb377 Tb 0.29085 0.78506 0.30824 0.0
C378 C 0.29392 0.76652 0.22846 0.0
C379 C 0.30581 0.77409 0.21574 0.0
C380 C 0.30063 0.77147 0.19547 0.0
C381 C 0.31029 0.78194 0.18367 0.0
C382 C 0.32519 0.79529 0.19207 0.0
C383 C 0.33094 0.7969 0.21229 0.0
C384 C 0.32132 0.78632 0.22405 0.0
C385 C 0.32443 0.77202 0.29087 0.0
C386 C 0.31074 0.81552 0.28399 0.0
C387 C 0.29323 0.79168 0.34456 0.0
C388 C 0.28092 0.78582 0.35761 0.0
C389 C 0.26889 0.76888 0.35231 0.0
C390 C 0.25832 0.76221 0.3654 0.0
C391 C 0.25936 0.77253 0.38402 0.0
C392 C 0.27034 0.79041 0.38852 0.0
C393 C 0.28116 0.79692 0.37546 0.0
C394 C 0.26278 0.78487 0.28214 0.0
C395 C 0.27666 0.74123 0.28924 0.0
O396 O 0.28737 0.77947 0.23791 0.0
O397 O 0.29922 0.75459 0.23974 0.0
O398 O 0.31031 0.77648 0.29369 0.0
O399 O 0.32287 0.76696 0.27218 0.0
O400 O 0.30686 0.80273 0.26791 0.0
O401 O 0.3068 0.81111 0.30124 0.0
O402 O 0.29937 0.77792 0.33571 0.0
O403 O 0.28869 0.80354 0.33275 0.0
O404 O 0.27701 0.78065 0.27944 0.0
O405 O 0.26414 0.78954 0.30087 0.0
O406 O 0.28047 0.75412 0.30526 0.0
O407 O 0.28066 0.74549 0.27193 0.0
H408 H 0.2886 0.7622 0.18891 0.0
H409 H 0.30537 0.78059 0.16818 0.0
H410 H 0.34238 0.80702 0.21911 0.0
H411 H 0.32545 0.78852 0.23976 0.0
H412 H 0.26818 0.76034 0.33836 0.0
H413 H 0.25026 0.74832 0.36134 0.0
H414 H 0.27118 0.79896 0.40252 0.0
H415 H 0.29007 0.8103 0.37955 0.0
Tb416 Tb 0.56141 0.03048 0.52668 0.0
Tb417 Tb 0.52384 0.02467 0.5386 0.0
C418 C 0.59327 0.03186 0.52706 0.0
C419 C 0.60763 0.02209 0.53308 0.0
C420 C 0.60493 1.00275 0.53519 0.0
C421 C 0.61899 0.99362 0.539 0.0
C422 C 0.63608 1.00361 0.54077 0.0
C423 C 0.63858 0.02307 0.53898 0.0
C424 C 0.62457 0.03214 0.53522 0.0
C425 C 0.5373 0.03557 0.49672 0.0
C426 C 0.53783 0.98926 0.52124 0.0
C427 C 0.49205 0.02373 0.53809 0.0
C428 C 0.47819 0.03458 0.53316 0.0
C429 C 0.48001 0.05394 0.54009 0.0
C430 C 0.46592 0.06316 0.5375 0.0
C431 C 0.44963 0.05326 0.52795 0.0
C432 C 0.44809 0.03408 0.52041 0.0
C433 C 0.46215 0.02489 0.52301 0.0
C434 C 0.54787 0.01883 0.56822 0.0
C435 C 0.54742 0.06591 0.5446 0.0
O436 O 0.58689 0.04095 0.54083 0.0
O437 O 0.58133 0.02291 0.51269 0.0
O438 O 0.53565 0.03188 0.51393 0.0
O439 O 0.5537 0.03713 0.49653 0.0
O440 O 0.55356 0.99971 0.52392 0.0
O441 O 0.52408 0.99631 0.52459 0.0
O442 O 0.49841 0.01562 0.52366 0.0
O443 O 0.50388 0.03097 0.55323 0.0
O444 O 0.54962 0.02328 0.5513 0.0
O445 O 0.53142 0.01688 0.5683 0.0
O446 O 0.53177 0.0554 0.54241 0.0
O447 O 0.56107 0.05897 0.54053 0.0
H448 H 0.59198 0.99464 0.53356 0.0
H449 H 0.61645 0.97871 0.54053 0.0
H450 H 0.6514 0.03128 0.53987 0.0
H451 H 0.62701 0.04701 0.53345 0.0
H452 H 0.49218 0.06183 0.54803 0.0
H453 H 0.46767 0.07787 0.54364 0.0
H454 H 0.43592 0.02603 0.51263 0.0
H455 H 0.46035 1.00998 0.51755 0.0
Tb456 Tb 0.27916 0.27978 0.7797 0.0
Tb457 Tb 0.31725 0.27571 0.7876 0.0
C458 C 0.24714 0.27683 0.77981 0.0
C459 C 0.23346 0.27767 0.79224 0.0
C460 C 0.23399 0.27049 0.81031 0.0
C461 C 0.21978 0.26947 0.82041 0.0
C462 C 0.20467 0.27544 0.81258 0.0
C463 C 0.2045 0.28312 0.79479 0.0
C464 C 0.21867 0.28421 0.7848 0.0
C465 C 0.30191 0.30771 0.77178 0.0
C466 C 0.3014 0.29209 0.82292 0.0
C467 C 0.34911 0.27826 0.78682 0.0
C468 C 0.36209 0.27705 0.77339 0.0
C469 C 0.36613 0.29103 0.76124 0.0
C470 C 0.37998 0.29099 0.75074 0.0
C471 C 0.39025 0.27705 0.75218 0.0
C472 C 0.38583 0.26278 0.76389 0.0
C473 C 0.372 0.26283 0.77436 0.0
C474 C 0.29452 0.24801 0.79584 0.0
C475 C 0.29513 0.26358 0.74437 0.0
O476 O 0.25534 0.26271 0.78066 0.0
O477 O 0.25729 0.29264 0.77813 0.0
O478 O 0.30357 0.29826 0.78581 0.0
O479 O 0.28641 0.30253 0.76209 0.0
O480 O 0.28602 0.28686 0.81179 0.0
O481 O 0.31585 0.2907 0.81598 0.0
O482 O 0.34119 0.29265 0.7868 0.0
O483 O 0.33889 0.26259 0.78881 0.0
O484 O 0.29286 0.25726 0.78163 0.0
O485 O 0.31002 0.25326 0.80553 0.0
O486 O 0.31045 0.26887 0.75554 0.0
O487 O 0.28064 0.26488 0.75128 0.0
H488 H 0.24518 0.26523 0.81637 0.0
H489 H 0.2204 0.2634 0.834 0.0
H490 H 0.1933 0.28819 0.78844 0.0
H491 H 0.21789 0.28975 0.77089 0.0
H492 H 0.35893 0.30235 0.76025 0.0
H493 H 0.38302 0.30232 0.74207 0.0
H494 H 0.39317 0.25161 0.76515 0.0
H495 H 0.36935 0.25196 0.78369 0.0
Tb496 Tb 0.04104 0.0498 0.53584 0.0
Tb497 Tb 0.04468 1.0076 0.53062 0.0
C498 C 0.04115 0.08379 0.53184 0.0
C499 C 0.04281 0.09441 0.51519 0.0
C500 C 0.05055 0.08783 0.4995 0.0
C501 C 0.05069 0.09715 0.48291 0.0
C502 C 0.04307 0.11318 0.48179 0.0
C503 C 0.03569 0.11993 0.49778 0.0
C504 C 0.03551 0.11057 0.51431 0.0
C505 C 1.01577 0.02512 0.54513 0.0
C506 C 0.03121 0.02466 0.49371 0.0
C507 C 0.03974 0.97313 0.53361 0.0
C508 C 0.04961 0.96269 0.54632 0.0
C509 C 0.04309 0.94381 0.54788 0.0
C510 C 0.05121 0.93477 0.56219 0.0
C511 C 0.06585 0.94461 0.57521 0.0
C512 C 0.07269 0.96335 0.57308 0.0
C513 C 0.06465 0.9723 0.55868 0.0
C514 C 0.07389 0.03012 0.52621 0.0
C515 C 0.05816 0.03374 0.5718 0.0
O516 O 0.05483 0.07758 0.53897 0.0
O517 O 0.02707 0.07099 0.52981 0.0
O518 O 0.02404 0.02281 0.53112 0.0
O519 O 0.02119 0.04222 0.5541 0.0
O520 O 0.03676 0.04174 0.50387 0.0
O521 O 0.03117 1.00898 0.50188 0.0
O522 O 0.03229 0.9852 0.54317 0.0
O523 O 0.04752 0.98033 0.51987 0.0
O524 O 0.06003 0.0343 0.53016 0.0
O525 O 0.07155 1.01181 0.52448 0.0
O526 O 0.05253 0.0165 0.56212 0.0
O527 O 0.05669 0.04927 0.56375 0.0
H528 H 0.05623 0.07531 0.49992 0.0
H529 H 0.05639 0.09156 0.47081 0.0
H530 H 0.03003 0.13248 0.49754 0.0
H531 H 0.02946 0.11579 0.52629 0.0
H532 H 0.03138 0.9363 0.53858 0.0
H533 H 0.04554 0.92038 0.56367 0.0
H534 H 0.08401 0.97119 0.58282 0.0
H535 H 0.0698 0.98696 0.55766 0.0
Tb536 Tb 0.29117 0.75691 0.77181 0.0
Tb537 Tb 0.29502 0.79994 0.77885 0.0
C538 C 0.29434 0.72351 0.76164 0.0
C539 C 0.30798 0.71241 0.75955 0.0
C540 C 0.30705 0.70058 0.74194 0.0
C541 C 0.31878 0.68854 0.74003 0.0
C542 C 0.33167 0.68798 0.75577 0.0
C543 C 0.33301 0.7004 0.77317 0.0
C544 C 0.32128 0.71253 0.77505 0.0
C545 C 0.27879 0.77059 0.80218 0.0
C546 C 0.32675 0.78317 0.79298 0.0
C547 C 0.29211 0.83356 0.78829 0.0
C548 C 0.27859 0.845 0.78823 0.0
C549 C 0.2629 0.83881 0.79468 0.0
C550 C 0.25056 0.8504 0.79473 0.0
C551 C 0.25366 0.86818 0.78808 0.0
C552 C 0.26933 0.87415 0.78149 0.0
C553 C 0.28166 0.8627 0.78161 0.0
C554 C 0.3076 0.78631 0.74863 0.0
C555 C 0.25917 0.77385 0.75833 0.0
O556 O 0.29262 0.73576 0.7493 0.0
O557 O 0.29257 0.72998 0.77946 0.0
O558 O 0.29236 0.77766 0.7963 0.0
O559 O 0.27205 0.75447 0.79164 0.0
O560 O 0.31876 0.76674 0.78275 0.0
O561 O 0.31902 0.79773 0.79577 0.0
O562 O 0.29228 0.82108 0.80063 0.0
O563 O 0.29518 0.82711 0.77105 0.0
O564 O 0.29391 0.77919 0.75429 0.0
O565 O 0.31421 0.8024 0.75921 0.0
O566 O 0.26748 0.7903 0.76821 0.0
O567 O 0.26667 0.75908 0.75563 0.0
H568 H 0.29696 0.70034 0.72976 0.0
H569 H 0.31759 0.67945 0.72629 0.0
H570 H 0.34271 0.70027 0.78562 0.0
H571 H 0.32237 0.7216 0.78878 0.0
H572 H 0.26021 0.82512 0.79975 0.0
H573 H 0.23857 0.84541 0.79982 0.0
H574 H 0.27222 0.88789 0.77658 0.0
H575 H 0.2937 0.86773 0.77662 0.0
Tb576 Tb 0.52871 0.03455 0.01733 0.0
Tb577 Tb 0.55854 0.02927 0.04575 0.0
C578 C 0.50065 0.0316 0.99486 0.0
C579 C 0.48242 0.02322 0.99335 0.0
C580 C 0.47278 0.0176 0.97464 0.0
C581 C 0.45584 1.00792 0.9724 0.0
C582 C 0.44825 1.00374 0.98889 0.0
C583 C 0.45777 1.00991 0.00772 0.0
C584 C 0.47483 0.01951 0.00995 0.0
C585 C 0.5505 0.06601 0.03277 0.0
C586 C 0.52397 0.03143 0.06325 0.0
C587 C 0.58751 0.03434 0.06686 0.0
C588 C 0.60496 0.04266 0.06416 0.0
C589 C 0.60745 0.05315 0.04861 0.0
C590 C 0.62384 0.06251 0.04696 0.0
C591 C 0.63804 0.06178 0.06099 0.0
C592 C 0.63559 0.05079 0.07626 0.0
C593 C 0.61912 0.0413 0.07782 0.0
C594 C 0.53664 0.99793 0.03077 0.0
C595 C 0.56307 0.03144 0.99959 0.0
O596 O 0.5109 0.01945 0.99371 0.0
O597 O 0.507 0.04607 0.00837 0.0
O598 O 0.54564 0.05188 0.041 0.0
O599 O 0.54235 0.06296 0.01495 0.0
O600 O 0.51648 0.02988 0.04448 0.0
O601 O 0.5409 0.03247 0.06735 0.0
O602 O 0.57701 0.04629 0.06754 0.0
O603 O 0.58038 0.01838 0.05582 0.0
O604 O 0.54149 1.0119 0.02227 0.0
O605 O 0.54526 1.00076 0.04843 0.0
O606 O 0.57048 0.0325 0.01826 0.0
O607 O 0.54626 0.03111 0.99561 0.0
H608 H 0.47849 0.02033 0.96169 0.0
H609 H 0.44872 1.00351 0.95774 0.0
H610 H 0.45223 1.00673 0.02066 0.0
H611 H 0.48218 0.02362 0.02451 0.0
H612 H 0.59667 0.0546 0.03805 0.0
H613 H 0.62534 0.07059 0.03485 0.0
H614 H 0.64626 0.05007 0.08737 0.0
H615 H 0.61738 0.03334 0.08999 0.0
Tb616 Tb 0.27667 0.26386 0.27354 0.0
Tb617 Tb 0.30848 0.29034 0.29114 0.0
C618 C 0.24685 0.24456 0.26932 0.0
C619 C 0.22965 0.24901 0.26939 0.0
C620 C 0.21849 0.23887 0.28009 0.0
C621 C 0.20301 0.24436 0.28277 0.0
C622 C 0.19828 0.26004 0.2746 0.0
C623 C 0.20925 0.26975 0.26322 0.0
C624 C 0.22488 0.26438 0.26077 0.0
C625 C 0.29307 0.28083 0.24787 0.0
C626 C 0.27476 0.30865 0.28779 0.0
C627 C 0.33874 0.3083 0.29477 0.0
C628 C 0.35425 0.30172 0.28979 0.0
C629 C 0.35301 0.28833 0.27321 0.0
C630 C 0.36742 0.28145 0.26871 0.0
C631 C 0.3835 0.28792 0.28055 0.0
C632 C 0.38476 0.30128 0.29723 0.0
C633 C 0.37022 0.30811 0.30182 0.0
C634 C 0.29192 0.2734 0.31664 0.0
C635 C 0.3103 0.24564 0.27676 0.0
O636 O 0.25701 0.24918 0.2862 0.0
O637 O 0.25469 0.24894 0.25458 0.0
O638 O 0.29122 0.28796 0.26461 0.0
O639 O 0.28479 0.26341 0.24461 0.0
O640 O 0.26649 0.29074 0.28167 0.0
O641 O 0.29191 0.31214 0.29193 0.0
O642 O 0.32692 0.3084 0.27981 0.0
O643 O 0.33223 0.3012 0.30928 0.0
O644 O 0.29398 0.26623 0.29999 0.0
O645 O 0.30006 0.29092 0.31994 0.0
O646 O 0.31848 0.26366 0.28196 0.0
O647 O 0.29317 0.24202 0.27364 0.0
H648 H 0.22208 0.22713 0.28707 0.0
H649 H 0.19514 0.23677 0.29198 0.0
H650 H 0.20594 0.28174 0.25652 0.0
H651 H 0.23341 0.27256 0.25261 0.0
H652 H 0.34085 0.28306 0.26367 0.0
H653 H 0.3659 0.2709 0.25599 0.0
H654 H 0.39702 0.30664 0.30655 0.0
H655 H 0.37142 0.31836 0.31473 0.0
Tb656 Tb 0.5432 0.5452 0.03333 0.0
Tb657 Tb 0.54813 0.50618 0.02542 0.0
C658 C 0.54357 0.5797 0.03165 0.0
C659 C 0.5436 0.59067 0.01515 0.0
C660 C 0.54982 0.58429 0.99819 0.0
C661 C 0.54885 0.59411 0.98202 0.0
C662 C 0.54186 0.61064 0.98263 0.0
C663 C 0.53591 0.61713 0.99983 0.0
C664 C 0.53668 0.60714 0.01592 0.0
C665 C 0.51787 0.5199 0.04136 0.0
C666 C 0.53236 0.52259 0.99 0.0
C667 C 0.54862 0.47195 0.02738 0.0
C668 C 0.554 0.46224 0.04397 0.0
C669 C 0.54305 0.44613 0.04759 0.0
C670 C 0.54675 0.43816 0.06468 0.0
C671 C 0.56151 0.44617 0.0784 0.0
C672 C 0.57277 0.46194 0.07447 0.0
C673 C 0.56898 0.47002 0.05744 0.0
C674 C 0.57325 0.5317 0.01721 0.0
C675 C 0.55878 0.52853 0.06906 0.0
O676 O 0.55742 0.57273 0.0361 0.0
O677 O 0.52949 0.56733 0.03131 0.0
O678 O 0.5258 0.5184 0.02688 0.0
O679 O 0.52369 0.53644 0.05146 0.0
O680 O 0.53779 0.53917 1.00109 0.0
O681 O 0.53316 0.50667 0.99732 0.0
O682 O 0.53498 0.47938 0.02883 0.0
O683 O 0.56075 0.48333 0.02126 0.0
O684 O 0.56549 0.53301 0.03183 0.0
O685 O 0.56741 0.51522 1.00703 0.0
O686 O 0.55505 0.51212 0.05752 0.0
O687 O 0.55649 0.54436 0.0623 0.0
H688 H 0.55532 0.57164 0.99736 0.0
H689 H 0.55339 0.58862 0.96898 0.0
H690 H 0.5308 0.63004 1.00097 0.0
H691 H 0.53185 0.61223 0.02892 0.0
H692 H 0.53139 0.44002 0.03744 0.0
H693 H 0.53804 0.42574 0.0672 0.0
H694 H 0.5842 0.46837 0.08485 0.0
H695 H 0.57751 0.48266 0.05512 0.0
Tb696 Tb 0.79738 0.26007 0.2768 0.0
Tb697 Tb 0.79739 0.30137 0.27391 0.0
C698 C 0.79525 0.22492 0.2691 0.0
C699 C 0.80718 0.21158 0.26775 0.0
C700 C 0.82104 0.2147 0.25727 0.0
C701 C 0.83199 0.20165 0.25601 0.0
C702 C 0.82938 0.18534 0.26536 0.0
C703 C 0.8156 0.18236 0.27599 0.0
C704 C 0.80458 0.19533 0.27711 0.0
C705 C 0.79564 0.28054 0.30987 0.0
C706 C 0.83255 0.2878 0.28787 0.0
C707 C 0.79932 0.33664 0.27841 0.0
C708 C 0.78722 0.34951 0.28102 0.0
C709 C 0.77337 0.34509 0.29126 0.0
C710 C 0.76176 0.35738 0.29296 0.0
C711 C 0.76375 0.3742 0.28432 0.0
C712 C 0.77759 0.37838 0.27395 0.0
C713 C 0.78921 0.36618 0.27238 0.0
C714 C 0.79999 0.28043 0.24141 0.0
C715 C 0.76207 0.27423 0.26584 0.0
O716 O 0.7945 0.23631 0.2557 0.0
O717 O 0.79518 0.23347 0.28665 0.0
O718 O 0.78855 0.28221 0.29304 0.0
O719 O 0.80233 0.26545 0.30878 0.0
O720 O 0.82498 0.26993 0.28216 0.0
O721 O 0.824 0.3019 0.28709 0.0
O722 O 0.80288 0.32697 0.29278 0.0
O723 O 0.79677 0.32633 0.26128 0.0
O724 O 0.80702 0.27954 0.25843 0.0
O725 O 0.79164 0.29421 0.24197 0.0
O726 O 0.77007 0.2917 0.2727 0.0
O727 O 0.77056 0.26011 0.26407 0.0
H728 H 0.82344 0.22716 0.25002 0.0
H729 H 0.8426 0.20441 0.24789 0.0
H730 H 0.81316 0.16982 0.28317 0.0
H731 H 0.79396 0.19262 0.28524 0.0
H732 H 0.77151 0.33216 0.2979 0.0
H733 H 0.75135 0.35381 0.30119 0.0
H734 H 0.77933 0.39099 0.26677 0.0
H735 H 0.7997 0.36968 0.26421 0.0
Tb736 Tb 0.02722 0.52888 0.51761 0.0
Tb737 Tb 0.05856 0.52993 0.54694 0.0
C738 C 0.999 0.51971 0.49489 0.0
C739 C 0.98145 0.5092 0.49396 0.0
C740 C 0.97313 0.49881 0.47604 0.0
C741 C 0.95654 0.48832 0.47446 0.0
C742 C 0.94794 0.48807 0.49079 0.0
C743 C 0.95628 0.49858 0.50878 0.0
C744 C 0.97299 0.50902 0.51039 0.0
C745 C 0.04591 0.56294 0.52992 0.0
C746 C 0.02345 0.52968 0.56417 0.0
C747 C 0.08729 0.53966 0.56855 0.0
C748 C 0.10415 0.55023 0.56643 0.0
C749 C 0.11343 0.56334 0.58215 0.0
C750 C 0.12819 0.57569 0.57967 0.0
C751 C 0.13388 0.57512 0.56138 0.0
C752 C 0.12497 0.56139 0.54586 0.0
C753 C 0.11017 0.54906 0.54836 0.0
C754 C 0.03911 0.49625 0.53623 0.0
C755 C 0.06234 0.52929 0.50031 0.0
O756 O 1.011 0.50951 0.49555 0.0
O757 O 1.00365 0.53576 0.50658 0.0
O758 O 0.04281 0.54949 0.53964 0.0
O759 O 0.03745 0.55772 0.51233 0.0
O760 O 1.01566 0.52589 0.54542 0.0
O761 O 0.04056 0.53285 0.56819 0.0
O762 O 0.07521 0.54974 0.56818 0.0
O763 O 0.08207 0.52295 0.55816 0.0
O764 O 0.04245 0.50895 0.52557 0.0
O765 O 0.04843 0.50167 0.55335 0.0
O766 O 0.07003 0.53264 0.51906 0.0
O767 O 0.04527 0.52651 0.49629 0.0
H768 H 0.9795 0.4988 0.46323 0.0
H769 H 0.95037 0.48057 0.46036 0.0
H770 H 0.94998 0.4985 0.52164 0.0
H771 H 0.97929 0.51685 0.5244 0.0
H772 H 0.10892 0.56447 0.59618 0.0
H773 H 0.13498 0.58592 0.59197 0.0
H774 H 0.12902 0.56069 0.53158 0.0
H775 H 0.10314 0.53908 0.53603 0.0
Tb776 Tb 0.77851 0.77898 0.28051 0.0
Tb777 Tb 0.81589 0.77238 0.28837 0.0
C778 C 0.74676 0.77795 0.28113 0.0
C779 C 0.7331 0.7754 0.29388 0.0
C780 C 0.72119 0.75823 0.29128 0.0
C781 C 0.70685 0.75632 0.30105 0.0
C782 C 0.7039 0.77156 0.31371 0.0
C783 C 0.71612 0.78858 0.3168 0.0
C784 C 0.73047 0.79051 0.30696 0.0
C785 C 0.8018 0.80483 0.27 0.0
C786 C 0.80109 0.79077 0.32333 0.0
C787 C 0.84722 0.77084 0.28788 0.0
C788 C 0.86076 0.77317 0.27498 0.0
C789 C 0.87058 0.79108 0.27398 0.0
C790 C 0.88455 0.79287 0.26358 0.0
C791 C 0.88926 0.77681 0.25404 0.0
C792 C 0.87922 0.75894 0.25479 0.0
C793 C 0.86523 0.75716 0.26512 0.0
C794 C 0.79194 0.74666 0.29814 0.0
C795 C 0.79407 0.76221 0.24518 0.0
O796 O 0.75332 0.76319 0.27587 0.0
O797 O 0.75837 0.79359 0.28457 0.0
O798 O 0.80375 0.79599 0.28455 0.0
O799 O 0.78569 0.80106 0.26219 0.0
O800 O 0.7856 0.78527 0.31257 0.0
O801 O 0.81534 0.7889 0.31619 0.0
O802 O 0.84187 0.78596 0.29481 0.0
O803 O 0.83463 0.75616 0.28309 0.0
O804 O 0.79074 0.75545 0.28358 0.0
O805 O 0.80762 0.75109 0.30729 0.0
O806 O 0.80942 0.76759 0.25625 0.0
O807 O 0.77963 0.76362 0.25214 0.0
H808 H 0.72268 0.74634 0.28121 0.0
H809 H 0.69794 0.74289 0.2985 0.0
H810 H 0.71428 0.8007 0.32628 0.0
H811 H 0.73921 0.80403 0.30919 0.0
H812 H 0.86773 0.80374 0.2816 0.0
H813 H 0.89174 0.80691 0.26317 0.0
H814 H 0.88251 0.74618 0.24795 0.0
H815 H 0.8582 0.74312 0.26585 0.0
Tb816 Tb 0.79829 0.27196 0.77136 0.0
Tb817 Tb 0.79002 0.28592 0.80785 0.0
C818 C 0.80376 0.26821 0.7366 0.0
C819 C 0.80977 0.28254 0.72437 0.0
C820 C 0.80309 0.29924 0.72438 0.0
C821 C 0.80948 0.31329 0.71366 0.0
C822 C 0.82272 0.31098 0.70275 0.0
C823 C 0.82954 0.29434 0.70292 0.0
C824 C 0.82311 0.28023 0.7137 0.0
C825 C 0.82054 0.26751 0.80159 0.0
C826 C 0.81112 0.31664 0.78788 0.0
C827 C 0.78441 0.29036 0.84259 0.0
C828 C 0.77417 0.27769 0.85365 0.0
C829 C 0.7755 0.25856 0.85265 0.0
C830 C 0.7648 0.24619 0.86174 0.0
C831 C 0.75269 0.25272 0.87226 0.0
C832 C 0.75149 0.27192 0.87356 0.0
C833 C 0.76207 0.28431 0.86413 0.0
C834 C 0.76807 0.29102 0.77768 0.0
C835 C 0.77689 0.24101 0.79091 0.0
O836 O 0.78849 0.26824 0.7414 0.0
O837 O 0.81501 0.26663 0.75148 0.0
O838 O 0.814 0.282 0.79946 0.0
O839 O 0.81443 0.25486 0.78652 0.0
O840 O 0.80662 0.30338 0.77231 0.0
O841 O 0.80761 0.31217 0.80508 0.0
O842 O 0.7983 0.28513 0.83764 0.0
O843 O 0.77553 0.29627 0.82814 0.0
O844 O 0.77433 0.27631 0.77961 0.0
O845 O 0.77398 0.30326 0.7931 0.0
O846 O 0.78007 0.25461 0.80621 0.0
O847 O 0.7818 0.24506 0.77417 0.0
H848 H 0.79291 0.30151 0.73268 0.0
H849 H 0.80368 0.32575 0.71349 0.0
H850 H 0.83975 0.29219 0.69464 0.0
H851 H 0.82859 0.26755 0.71376 0.0
H852 H 0.78483 0.2531 0.84486 0.0
H853 H 0.7664 0.23159 0.86106 0.0
H854 H 0.74244 0.27731 0.88189 0.0
H855 H 0.76079 0.29902 0.86499 0.0
Tb856 Tb 0.77703 0.76507 0.77757 0.0
Tb857 Tb 0.8105 0.79068 0.78594 0.0
C858 C 0.7503 0.74124 0.77786 0.0
C859 C 0.73299 0.74386 0.78087 0.0
C860 C 0.73093 0.75932 0.79374 0.0
C861 C 0.71456 0.7625 0.79586 0.0
C862 C 0.69988 0.75042 0.78499 0.0
C863 C 0.70196 0.73486 0.77217 0.0
C864 C 0.71843 0.73162 0.77012 0.0
C865 C 0.78556 0.78213 0.74776 0.0
C866 C 0.77578 0.80906 0.7868 0.0
C867 C 0.83782 0.81337 0.78537 0.0
C868 C 0.85525 0.80952 0.78488 0.0
C869 C 0.86536 0.81806 0.7721 0.0
C870 C 0.88049 0.81194 0.76871 0.0
C871 C 0.8858 0.79714 0.77809 0.0
C872 C 0.876 0.7892 0.79155 0.0
C873 C 0.86083 0.79524 0.79482 0.0
C874 C 0.80158 0.77372 0.81584 0.0
C875 C 0.81186 0.74673 0.77694 0.0
O876 O 0.76237 0.74691 0.79308 0.0
O877 O 0.75513 0.7466 0.76177 0.0
O878 O 0.79558 0.77542 0.75966 0.0
O879 O 0.77009 0.77822 0.75171 0.0
O880 O 0.7672 0.79139 0.78617 0.0
O881 O 0.79265 0.81178 0.78586 0.0
O882 O 0.82681 0.80598 0.7696 0.0
O883 O 0.83137 0.81084 0.80146 0.0
O884 O 0.7918 0.78049 0.80377 0.0
O885 O 0.81712 0.7775 0.81203 0.0
O886 O 0.82065 0.76439 0.77874 0.0
O887 O 0.79482 0.74396 0.77661 0.0
H888 H 0.74198 0.76904 0.80213 0.0
H889 H 0.71344 0.77438 0.80617 0.0
H890 H 0.69089 0.72538 0.76352 0.0
H891 H 0.71981 0.71974 0.75997 0.0
H892 H 0.86111 0.82885 0.76402 0.0
H893 H 0.88755 0.8182 0.75802 0.0
H894 H 0.87982 0.77799 0.79925 0.0
H895 H 0.85312 0.7882 0.80455 0.0
Tb896 Tb 0.53347 0.52095 0.52646 0.0
Tb897 Tb 0.5699 0.53957 0.54173 0.0
C898 C 0.50266 0.50508 0.52471 0.0
C899 C 0.48723 0.51255 0.52773 0.0
C900 C 0.48784 0.53211 0.5295 0.0
C901 C 0.47372 0.53954 0.53401 0.0
C902 C 0.45872 0.52752 0.53684 0.0
C903 C 0.45797 0.50785 0.53464 0.0
C904 C 0.47223 0.50041 0.53021 0.0
C905 C 0.55381 0.5212 0.49987 0.0
C906 C 0.54443 0.56286 0.52007 0.0
C907 C 0.6009 0.5554 0.54873 0.0
C908 C 0.6154 0.54976 0.56045 0.0
C909 C 0.63088 0.55014 0.55307 0.0
C910 C 0.64315 0.54048 0.56128 0.0
C911 C 0.64009 0.53029 0.57703 0.0
C912 C 0.62519 0.53133 0.58542 0.0
C913 C 0.61289 0.54087 0.57712 0.0
C914 C 0.5487 0.5383 0.56769 0.0
C915 C 0.55968 0.49711 0.54737 0.0
O916 O 0.51419 0.50728 0.54043 0.0
O917 O 0.50945 0.50968 0.50936 0.0
O918 O 0.55778 0.51887 0.51752 0.0
O919 O 0.53753 0.52128 0.49618 0.0
O920 O 0.53136 0.55019 0.52325 0.0
O921 O 0.56047 0.56027 0.52419 0.0
O922 O 0.59413 0.54362 0.53285 0.0
O923 O 0.5892 0.56083 0.55834 0.0
O924 O 0.54547 0.54171 0.55033 0.0
O925 O 0.56457 0.53637 0.57134 0.0
O926 O 0.57274 0.51123 0.54775 0.0
O927 O 0.54373 0.49827 0.54009 0.0
H928 H 0.49934 0.54168 0.52768 0.0
H929 H 0.47453 0.55472 0.53523 0.0
H930 H 0.44654 0.49832 0.53677 0.0
H931 H 0.47166 0.48526 0.52902 0.0
H932 H 0.63295 0.55675 0.54009 0.0
H933 H 0.65438 0.53979 0.55427 0.0
H934 H 0.62257 0.52384 0.5977 0.0
H935 H 0.60096 0.54025 0.58301 0.0
Tb936 Tb 0.06065 0.53014 0.02807 0.0
Tb937 Tb 0.02461 0.52463 0.03998 0.0
C938 C 0.09245 0.53058 0.02814 0.0
C939 C 0.10621 0.51927 0.0321 0.0
C940 C 0.11363 0.51756 0.05125 0.0
C941 C 0.12788 0.50861 0.05442 0.0
C942 C 0.13518 0.50129 0.03855 0.0
C943 C 0.12741 0.50263 0.01945 0.0
C944 C 0.11322 0.51152 0.0163 0.0
C945 C 0.03699 0.53416 0.99719 0.0
C946 C 0.03696 0.48954 0.02108 0.0
C947 C 0.99391 0.52565 0.04468 0.0
C948 C 0.98031 0.53728 0.04257 0.0
C949 C 0.97867 0.54886 0.02768 0.0
C950 C 0.96471 0.55836 0.02527 0.0
C951 C 0.95206 0.55644 0.03765 0.0
C952 C 0.95411 0.5452 0.05283 0.0
C953 C 0.968 0.53577 0.05522 0.0
C954 C 0.04955 0.5164 0.06652 0.0
C955 C 0.04728 0.56638 0.04335 0.0
O956 O 0.08617 0.53815 0.04289 0.0
O957 O 0.08054 0.52416 0.01294 0.0
O958 O 0.03488 0.53055 0.01427 0.0
O959 O 0.05349 0.53638 0.99762 0.0
O960 O 0.05279 0.49944 0.0263 0.0
O961 O 0.02335 0.49737 0.02267 0.0
O962 O 0.99826 0.51793 0.02863 0.0
O963 O 1.00721 0.53186 0.05845 0.0
O964 O 0.05082 0.52946 0.05563 0.0
O965 O 0.0335 0.50805 0.06301 0.0
O966 O 0.03197 0.55553 0.04263 0.0
O967 O 0.06085 0.55948 0.03906 0.0
H968 H 0.10872 0.52352 0.06381 0.0
H969 H 0.13352 0.50799 0.06935 0.0
H970 H 0.13236 0.49689 1.00682 0.0
H971 H 0.10795 0.5127 1.00137 0.0
H972 H 0.98799 0.55031 0.01772 0.0
H973 H 0.96359 0.56677 0.01335 0.0
H974 H 0.94493 0.54364 0.06294 0.0
H975 H 0.96897 0.52698 0.06684 0.0
H976 H 0.02482 0.20453 0.92193 0.0
H977 H 0.02695 0.1734 0.93229 0.0
H978 H 0.02785 0.19652 0.9923 0.0
H979 H 0.02538 0.22714 0.98218 0.0
H980 H 0.05042 0.16053 0.95711 0.0
H981 H 0.98913 0.1518 0.9865 0.0
H982 H 0.99514 0.16999 0.97154 0.0
H983 H 1.00315 0.17353 0.99744 0.0
C984 C 0.0255 0.20296 0.93732 0.0
C985 C 0.02464 0.21837 0.95112 0.0
C986 C 0.02668 0.18513 0.94325 0.0
C987 C 0.02704 0.18236 0.96307 0.0
C988 C 0.02697 0.19797 0.97687 0.0
H989 H 0.06439 0.09612 0.02474 0.0
H990 H 0.06014 0.124 0.0093 0.0
C991 C 0.02567 0.21561 0.971 0.0
C992 C 0.02766 0.1634 0.96965 0.0
H993 H 1.0087 0.13199 0.99742 0.0
C994 C 0.04118 0.1542 0.96573 0.0
C995 C 1.01544 0.15477 0.9806 0.0
C996 C 0.9998 0.16293 0.98408 0.0
C997 C 0.04322 0.13719 0.97314 0.0
C998 C 0.0317 0.12931 0.9853 0.0
C999 C 0.01775 0.13807 0.98845 0.0
C1000 C 0.03406 0.11227 0.99517 0.0
C1001 C 0.05766 0.12778 0.96766 0.0
C1002 C 0.02056 0.09655 0.99337 0.0
C1003 C 0.02285 0.0806 1.0026 0.0
C1004 C 0.03872 0.07998 0.01386 0.0
C1005 C 0.05204 0.09594 0.01604 0.0
C1006 C 0.04969 0.11189 1.007 0.0
H1007 H 0.0613 0.13159 0.95352 0.0
H1008 H 0.06917 0.13268 0.97909 0.0
H1009 H 0.0541 0.11214 0.96645 0.0
H1010 H 1.00829 0.09647 0.98453 0.0
H1011 H 1.0123 0.06862 1.00055 0.0
H1012 H 0.14131 0.80448 0.14607 0.0
H1013 H 0.1669 0.80071 0.16747 0.0
H1014 H 0.13783 0.79524 0.21516 0.0
H1015 H 0.11186 0.79844 0.19356 0.0
H1016 H 0.18528 0.82046 0.19987 0.0
H1017 H 0.15914 0.74919 0.21708 0.0
H1018 H 0.14808 0.76009 0.19833 0.0
H1019 H 0.14661 0.76647 0.22373 0.0
C1020 C 0.14025 0.8025 0.16111 0.0
C1021 C 0.12433 0.80167 0.16795 0.0
C1022 C 0.155 0.80033 0.17339 0.0
C1023 C 0.15439 0.79727 0.19293 0.0
C1024 C 0.13866 0.79702 0.20003 0.0
H1025 H 0.23142 0.78844 0.29072 0.0
H1026 H 0.20559 0.79084 0.26866 0.0
C1027 C 0.12379 0.79907 0.18768 0.0
C1028 C 0.17027 0.79454 0.20569 0.0
H1029 H 0.18632 0.76454 0.23513 0.0
C1030 C 0.18548 0.80815 0.20746 0.0
C1031 C 0.17074 0.77844 0.21561 0.0
C1032 C 0.15533 0.76261 0.21347 0.0
C1033 C 0.20086 0.80633 0.21906 0.0
C1034 C 0.20122 0.79039 0.22915 0.0
C1035 C 0.18608 0.77676 0.22739 0.0
C1036 C 0.21698 0.78806 0.24227 0.0
C1037 C 0.21655 0.82172 0.22082 0.0
C1038 C 0.23203 0.78528 0.23483 0.0
C1039 C 0.24688 0.78367 0.24751 0.0
C1040 C 0.24706 0.78501 0.26786 0.0
C1041 C 0.23184 0.78743 0.27513 0.0
C1042 C 0.217 0.7888 0.26252 0.0
H1043 H 0.21338 0.83466 0.21513 0.0
H1044 H 0.22284 0.82553 0.23634 0.0
H1045 H 0.22597 0.8165 0.21228 0.0
H1046 H 0.23231 0.7844 0.21923 0.0
H1047 H 0.2582 0.78175 0.24136 0.0
H1048 H 0.51863 0.80759 0.46742 0.0
H1049 H 0.51865 0.83939 0.48345 0.0
H1050 H 0.53046 0.86263 0.43117 0.0
H1051 H 0.53005 0.8308 0.41491 0.0
H1052 H 0.54446 0.86932 0.49216 0.0
H1053 H 0.49146 0.8883 0.443 0.0
H1054 H 0.4953 0.86442 0.44223 0.0
H1055 H 0.50777 0.88132 0.43001 0.0
C1056 C 0.52104 0.81945 0.45925 0.0
C1057 C 0.52427 0.81665 0.43985 0.0
C1058 C 0.52107 0.83765 0.46845 0.0
C1059 C 0.52432 0.85346 0.45847 0.0
C1060 C 0.5275 0.85067 0.43906 0.0
H1061 H 0.56239 0.96996 0.51023 0.0
H1062 H 0.55857 0.93696 0.496 0.0
C1063 C 0.52736 0.83245 0.42981 0.0
C1064 C 0.52523 0.8729 0.4687 0.0
H1065 H 0.50965 0.91372 0.46508 0.0
C1066 C 0.53674 0.87897 0.48629 0.0
C1067 C 0.51499 0.88546 0.46129 0.0
C1068 C 0.50156 0.8795 0.44321 0.0
C1069 C 0.53864 0.89732 0.49634 0.0
C1070 C 0.52905 0.9102 0.48838 0.0
C1071 C 0.51717 0.90397 0.47109 0.0
C1072 C 0.53137 0.93026 0.49754 0.0
C1073 C 0.55077 0.90263 0.51553 0.0
C1074 C 0.51728 0.93775 0.5028 0.0
C1075 C 0.51938 0.95678 0.51082 0.0
C1076 C 0.53563 0.96878 0.5137 0.0
C1077 C 0.54971 0.96118 0.50845 0.0
C1078 C 0.54757 0.94221 0.50037 0.0
H1079 H 0.55281 0.88992 0.52251 0.0
H1080 H 0.56345 0.90992 0.51278 0.0
H1081 H 0.54586 0.9123 0.52596 0.0
H1082 H 0.50462 0.92886 0.50067 0.0
H1083 H 0.50822 0.9621 0.51459 0.0
H1084 H 0.51233 0.29515 0.64538 0.0
H1085 H 0.48637 0.29225 0.66075 0.0
H1086 H 0.51417 0.27668 0.71221 0.0
H1087 H 0.54033 0.28001 0.69708 0.0
H1088 H 0.46721 0.26317 0.67379 0.0
H1089 H 0.49407 0.31909 0.73656 0.0
H1090 H 0.50495 0.31554 0.71573 0.0
H1091 H 0.50632 0.3006 0.73476 0.0
C1092 C 0.51295 0.29108 0.65997 0.0
C1093 C 0.52851 0.28794 0.67002 0.0
C1094 C 0.49804 0.28942 0.66877 0.0
C1095 C 0.49827 0.28462 0.68786 0.0
C1096 C 0.51368 0.28091 0.6977 0.0
H1097 H 0.42169 0.26894 0.76611 0.0
H1098 H 0.44716 0.27018 0.75005 0.0
C1099 C 0.52864 0.28266 0.68895 0.0
C1100 C 0.48239 0.28344 0.69733 0.0
H1101 H 0.46667 0.30071 0.73765 0.0
C1102 C 0.4671 0.27145 0.68772 0.0
C1103 C 0.4821 0.29426 0.71551 0.0
C1104 C 0.49768 0.30824 0.72617 0.0
C1105 C 0.45177 0.2697 0.6959 0.0
C1106 C 0.45153 0.28043 0.71413 0.0
C1107 C 0.46679 0.29243 0.72373 0.0
C1108 C 0.43568 0.27933 0.7236 0.0
C1109 C 0.43606 0.25602 0.68514 0.0
C1110 C 0.42063 0.28421 0.71424 0.0
C1111 C 0.40591 0.28339 0.72338 0.0
C1112 C 0.40585 0.27773 0.74216 0.0
C1113 C 0.42103 0.273 0.75152 0.0
C1114 C 0.43572 0.27386 0.7424 0.0
H1115 H 0.43945 0.24541 0.6743 0.0
H1116 H 0.42892 0.24844 0.69551 0.0
H1117 H 0.42735 0.26397 0.6771 0.0
H1118 H 0.4203 0.28885 0.69991 0.0
H1119 H 0.39452 0.28707 0.71563 0.0
H1120 H 0.06604 0.81149 0.64049 0.0
H1121 H 0.07796 0.84376 0.63671 0.0
H1122 H 0.07177 0.86258 0.69593 0.0
H1123 H 0.05985 0.82976 0.69998 0.0
H1124 H 0.05626 0.88127 0.66729 0.0
H1125 H 0.1232 0.88077 0.65681 0.0
H1126 H 0.10923 0.86016 0.6431 0.0
H1127 H 0.11133 0.86358 0.66947 0.0
C1128 C 0.06748 0.82234 0.65289 0.0
C1129 C 0.06197 0.8181 0.67052 0.0
C1130 C 0.07452 0.84081 0.65078 0.0
C1131 C 0.07615 0.85548 0.6662 0.0
C1132 C 0.07091 0.85134 0.684 0.0
H1133 H 0.07517 0.96024 0.61357 0.0
H1134 H 0.08285 0.9439 0.64168 0.0
C1135 C 0.06402 0.83268 0.68623 0.0
C1136 C 0.08078 0.87514 0.66209 0.0
H1137 H 0.10776 0.90025 0.63614 0.0
C1138 C 0.06784 0.88598 0.66124 0.0
C1139 C 0.09597 0.88127 0.6544 0.0
C1140 C 0.11079 0.87089 0.6562 0.0
C1141 C 0.06863 0.90129 0.65043 0.0
C1142 C 0.08287 0.90589 0.64058 0.0
C1143 C 0.09678 0.89654 0.64354 0.0
C1144 C 0.0817 0.91706 0.62408 0.0
C1145 C 0.05339 0.91103 0.6478 0.0
C1146 C 0.07926 0.90753 0.60495 0.0
C1147 C 0.07494 0.91677 0.58894 0.0
C1148 C 0.07305 0.93573 0.59182 0.0
C1149 C 0.07661 0.94563 0.61094 0.0
C1150 C 0.08091 0.93632 0.627 0.0
H1151 H 0.04292 0.90495 0.6556 0.0
H1152 H 0.05752 0.92628 0.65351 0.0
H1153 H 0.04815 0.90987 0.63199 0.0
H1154 H 0.07981 0.89263 0.60245 0.0
H1155 H 0.0725 0.90891 0.57436 0.0
H1156 H 0.46983 0.79815 0.90303 0.0
H1157 H 0.44105 0.79475 0.88463 0.0
H1158 H 0.46276 0.80973 0.83355 0.0
H1159 H 0.49174 0.81246 0.85171 0.0
H1160 H 0.42522 0.81927 0.868 0.0
H1161 H 0.42997 0.76141 0.81095 0.0
H1162 H 0.44598 0.76904 0.83254 0.0
H1163 H 0.44601 0.78233 0.81209 0.0
C1164 C 0.46852 0.80076 0.88789 0.0
C1165 C 0.48305 0.80545 0.87876 0.0
C1166 C 0.45205 0.79878 0.87738 0.0
C1167 C 0.44976 0.80162 0.85762 0.0
C1168 C 0.46424 0.80693 0.84862 0.0
H1169 H 0.35009 0.81602 0.80047 0.0
H1170 H 0.38036 0.8207 0.81472 0.0
C1171 C 0.48077 0.80863 0.85905 0.0
C1172 C 0.43215 0.79922 0.84672 0.0
H1173 H 0.40468 0.77444 0.80683 0.0
C1174 C 0.42072 0.80945 0.85463 0.0
C1175 C 0.42627 0.78622 0.82942 0.0
C1176 C 0.43764 0.77398 0.82083 0.0
C1177 C 0.40351 0.80693 0.84587 0.0
C1178 C 0.39775 0.79434 0.82825 0.0
C1179 C 0.40919 0.78418 0.82025 0.0
C1180 C 0.37979 0.79124 0.81819 0.0
C1181 C 0.3916 0.81731 0.85598 0.0
C1182 C 0.36967 0.77295 0.81442 0.0
C1183 C 0.35242 0.77017 0.80583 0.0
C1184 C 0.34506 0.78569 0.80115 0.0
C1185 C 0.35536 0.80387 0.80438 0.0
C1186 C 0.37263 0.80658 0.81257 0.0
H1187 H 0.3966 0.8216 0.87184 0.0
H1188 H 0.39047 0.83037 0.84929 0.0
H1189 H 0.37856 0.80847 0.85449 0.0
H1190 H 0.37501 0.7609 0.8185 0.0
H1191 H 0.34477 0.75599 0.80334 0.0
H1192 H 0.54683 0.20538 0.16164 0.0
H1193 H 0.54656 0.17455 0.143 0.0
H1194 H 0.53788 0.19812 0.08892 0.0
H1195 H 0.53798 0.2288 0.1073 0.0
H1196 H 0.51954 0.15998 0.08849 0.0
H1197 H 0.58972 0.17044 0.11604 0.0
H1198 H 0.5758 0.17147 0.13426 0.0
H1199 H 0.57779 0.18937 0.11828 0.0
C1200 C 0.54434 0.20383 0.14578 0.0
C1201 C 0.54269 0.21954 0.13591 0.0
C1202 C 0.54435 0.18629 0.13518 0.0
C1203 C 0.54261 0.1843 0.11466 0.0
C1204 C 0.5394 0.19949 0.10477 0.0
H1205 H 0.5496 0.1 0.01921 0.0
H1206 H 0.54945 0.12996 0.03926 0.0
C1207 C 0.53948 0.21699 0.11531 0.0
C1208 C 0.54566 0.16708 0.1034 0.0
H1209 H 0.57737 0.14289 0.09404 0.0
C1210 C 0.53214 0.15616 0.08972 0.0
C1211 C 0.56219 0.16234 0.10502 0.0
C1212 C 0.57728 0.17405 0.11907 0.0
C1213 C 0.53468 0.14043 0.07765 0.0
C1214 C 0.55127 0.13586 0.07905 0.0
C1215 C 0.56474 0.14664 0.09289 0.0
C1216 C 0.55457 0.11925 0.06694 0.0
C1217 C 0.51952 0.12863 0.06375 0.0
C1218 C 0.55868 0.10388 0.07595 0.0
C1219 C 0.55892 0.0869 0.0646 0.0
C1220 C 0.55506 0.08505 0.04406 0.0
C1221 C 0.55253 0.10101 0.03501 0.0
C1222 C 0.55228 0.11804 0.04643 0.0
H1223 H 0.50708 0.13156 0.06754 0.0
H1224 H 0.52038 0.13193 0.04864 0.0
H1225 H 0.51953 0.1133 0.06382 0.0
H1226 H 0.56063 0.10464 0.09178 0.0
H1227 H 0.56087 0.07484 0.07198 0.0
H1228 H 0.0923 0.29401 0.38188 0.0
H1229 H 0.11477 0.28988 0.36211 0.0
H1230 H 0.08557 0.3082 0.31324 0.0
H1231 H 0.06264 0.31139 0.33268 0.0
H1232 H 0.09715 0.27882 0.30093 0.0
H1233 H 0.15129 0.32803 0.34787 0.0
H1234 H 0.14176 0.31067 0.36168 0.0
H1235 H 0.12933 0.32704 0.35186 0.0
C1236 C 0.09076 0.2973 0.36697 0.0
C1237 C 0.07581 0.30309 0.3588 0.0
C1238 C 0.10367 0.29509 0.35573 0.0
C1239 C 0.10207 0.29919 0.33633 0.0
C1240 C 0.08714 0.30507 0.32821 0.0
H1241 H 0.19373 0.29677 0.2813 0.0
H1242 H 0.1691 0.30792 0.29232 0.0
C1243 C 0.07407 0.30689 0.33931 0.0
C1244 C 0.11553 0.29628 0.32422 0.0
H1245 H 0.15894 0.30435 0.32523 0.0
C1246 C 0.11065 0.28467 0.3061 0.0
C1247 C 0.1331 0.30429 0.33065 0.0
C1248 C 0.13913 0.31838 0.34897 0.0
C1249 C 0.12293 0.28006 0.29472 0.0
C1250 C 0.1406 0.28664 0.30206 0.0
C1251 C 0.14541 0.29904 0.31969 0.0
C1252 C 0.15434 0.2799 0.29251 0.0
C1253 C 0.11676 0.2682 0.275 0.0
C1254 C 0.15411 0.26044 0.28853 0.0
C1255 C 0.16795 0.254 0.28163 0.0
C1256 C 0.18258 0.26688 0.27917 0.0
C1257 C 0.1826 0.2864 0.28271 0.0
C1258 C 0.16858 0.29283 0.28922 0.0
H1259 H 0.10404 0.27077 0.26842 0.0
H1260 H 0.12598 0.2712 0.26462 0.0
H1261 H 0.11513 0.253 0.27688 0.0
H1262 H 0.14352 0.25016 0.29144 0.0
H1263 H 0.16734 0.23888 0.27877 0.0
H1264 H 0.9423 1.01267 0.19963 0.0
H1265 H 0.95235 0.01962 0.16882 0.0
H1266 H 1.00443 0.01957 0.19496 0.0
H1267 H 0.99455 1.01212 0.22533 0.0
H1268 H 0.97539 0.04859 0.15907 0.0
H1269 H 0.99851 0.98125 0.14687 0.0
H1270 H 0.98514 0.98557 0.16515 0.0
H1271 H 1.00801 0.99432 0.1703 0.0
C1272 C 0.95588 1.01411 0.19877 0.0
C1273 C 0.96757 1.01149 0.21483 0.0
C1274 C 0.9616 0.01812 0.18118 0.0
C1275 C 0.97909 0.01966 0.17944 0.0
C1276 C 0.99082 0.01787 0.19575 0.0
H1277 H 0.03788 0.06817 0.09485 0.0
H1278 H 0.02135 0.06352 0.12177 0.0
C1279 C 0.98513 1.01365 0.21315 0.0
C1280 C 0.98525 0.02284 0.16063 0.0
H1281 H 1.00902 1.00543 0.12829 0.0
C1282 C 0.98257 0.03906 0.15216 0.0
C1283 C 0.99433 1.01022 0.15141 0.0
C1284 C 0.99651 0.99177 0.15879 0.0
C1285 C 0.98927 0.04333 0.13509 0.0
C1286 C 0.99929 0.0313 0.1266 0.0
C1287 C 1.00149 0.0148 0.13481 0.0
C1288 C 1.00778 0.03531 0.10931 0.0
C1289 C 0.98535 0.06054 0.12625 0.0
C1290 C 1.00588 0.021 0.09341 0.0
C1291 C 1.0157 0.02342 0.07842 0.0
C1292 C 0.02739 0.04037 0.07869 0.0
C1293 C 0.02881 0.05504 0.09413 0.0
C1294 C 0.01923 0.05245 0.10944 0.0
H1295 H 0.97324 0.0643 0.13023 0.0
H1296 H 0.99591 0.07276 0.13204 0.0
H1297 H 0.98418 0.05827 0.11003 0.0
H1298 H 0.99724 1.00761 0.09296 0.0
H1299 H 1.01461 1.01166 0.06704 0.0
H1300 H 0.31625 0.71239 0.49632 0.0
H1301 H 0.29197 0.72013 0.47565 0.0
H1302 H 0.26617 0.66176 0.46734 0.0
H1303 H 0.29047 0.65381 0.48836 0.0
H1304 H 0.26808 0.68327 0.43188 0.0
H1305 H 0.24226 0.71898 0.49254 0.0
H1306 H 0.26537 0.72343 0.49569 0.0
H1307 H 0.25376 0.69973 0.49528 0.0
C1308 C 0.30552 0.70113 0.48996 0.0
C1309 C 0.30521 0.68254 0.49407 0.0
C1310 C 0.2916 0.7056 0.47833 0.0
C1311 C 0.27715 0.69158 0.47052 0.0
C1312 C 0.27712 0.67278 0.47359 0.0
H1313 H 0.2286 0.74715 0.3808 0.0
H1314 H 0.22264 0.72338 0.40279 0.0
C1315 C 0.29108 0.66827 0.4854 0.0
C1316 C 0.26261 0.69707 0.4586 0.0
H1317 H 0.23925 0.73206 0.46166 0.0
C1318 C 0.26105 0.69329 0.43821 0.0
C1319 C 0.25323 0.70978 0.46703 0.0
C1320 C 0.25356 0.71311 0.48887 0.0
C1321 C 0.25252 0.70418 0.42611 0.0
C1322 C 0.24549 0.71908 0.43486 0.0
C1323 C 0.24479 0.72077 0.45501 0.0
C1324 C 0.24451 0.73597 0.42492 0.0
C1325 C 0.25321 0.70136 0.4044 0.0
C1326 C 0.25785 0.7517 0.43092 0.0
C1327 C 0.26148 0.76505 0.41836 0.0
C1328 C 0.25173 0.76295 0.39957 0.0
C1329 C 0.23675 0.74877 0.39488 0.0
C1330 C 0.23322 0.73524 0.40746 0.0
H1331 H 0.25906 0.68902 0.40003 0.0
H1332 H 0.24002 0.6991 0.39604 0.0
H1333 H 0.26086 0.71419 0.40016 0.0
H1334 H 0.26668 0.75256 0.44441 0.0
H1335 H 0.27308 0.77568 0.42265 0.0
H1336 H 0.61349 0.99391 0.7426 0.0
H1337 H 0.60023 0.99545 0.70925 0.0
H1338 H 0.65011 0.01557 0.6943 0.0
H1339 H 0.66356 1.01394 0.72812 0.0
H1340 H 0.5986 0.02564 0.69123 0.0
H1341 H 0.63002 0.97929 0.64498 0.0
H1342 H 0.63155 0.97911 0.67112 0.0
H1343 H 0.64456 0.99771 0.66154 0.0
C1344 C 0.62184 0.99813 0.73216 0.0
C1345 C 0.63982 1.00337 0.73843 0.0
C1346 C 0.6141 0.99921 0.71287 0.0
C1347 C 0.62386 1.00559 0.69859 0.0
C1348 C 0.64198 1.01021 0.7045 0.0
H1349 H 0.58455 0.02624 0.57519 0.0
H1350 H 0.60369 0.02384 0.60563 0.0
C1351 C 0.64981 1.00913 0.72402 0.0
C1352 C 0.61468 1.00844 0.6784 0.0
H1353 H 0.61093 0.99607 0.62832 0.0
C1354 C 0.60142 0.01908 0.67757 0.0
C1355 C 0.61812 1.00031 0.66007 0.0
C1356 C 0.63172 0.98833 0.65933 0.0
C1357 C 0.59175 0.0217 0.65962 0.0
C1358 C 0.59471 1.01301 0.64129 0.0
C1359 C 0.60829 1.00276 0.64201 0.0
C1360 C 0.58328 1.01376 0.62172 0.0
C1361 C 0.57857 0.03424 0.66063 0.0
C1362 C 0.56524 1.00846 0.61969 0.0
C1363 C 0.55433 1.00992 0.60235 0.0
C1364 C 0.56077 0.0165 0.58583 0.0
C1365 C 0.57888 0.02119 0.58738 0.0
C1366 C 0.58992 0.01978 0.60498 0.0
H1367 H 0.58195 0.04484 0.67402 0.0
H1368 H 0.57733 0.04187 0.64764 0.0
H1369 H 0.56589 0.02543 0.66129 0.0
H1370 H 0.55941 1.00314 0.63168 0.0
H1371 H 0.54059 1.00592 0.60199 0.0
H1372 H 0.30338 0.404 0.98221 0.0
H1373 H 0.30213 0.38752 0.94911 0.0
H1374 H 0.31712 0.33961 0.97388 0.0
H1375 H 0.31798 0.35571 1.0068 0.0
H1376 H 0.32603 0.37325 0.93018 0.0
H1377 H 0.27324 0.31503 0.9374 0.0
H1378 H 0.2794 0.33631 0.9548 0.0
H1379 H 0.29152 0.3176 0.95623 0.0
C1380 C 0.30647 0.38998 0.98057 0.0
C1381 C 0.31061 0.38108 0.99712 0.0
C1382 C 0.30574 0.38058 0.96166 0.0
C1383 C 0.30914 0.36213 0.95898 0.0
C1384 C 0.31397 0.35359 0.97553 0.0
H1385 H 0.32999 0.30316 0.85114 0.0
H1386 H 0.3319 0.32002 0.88402 0.0
C1387 C 0.31457 0.36289 0.99437 0.0
C1388 C 0.30754 0.35172 0.93895 0.0
H1389 H 0.28739 0.31079 0.90969 0.0
C1390 C 0.31753 0.35963 0.92566 0.0
C1391 C 0.29625 0.33407 0.93293 0.0
C1392 C 0.28436 0.32532 0.94601 0.0
C1393 C 0.31678 0.35022 0.90668 0.0
C1394 C 0.30602 0.33219 0.90096 0.0
C1395 C 0.2958 0.32447 0.91413 0.0
C1396 C 0.30484 0.3213 0.88123 0.0
C1397 C 0.32727 0.35987 0.89283 0.0
C1398 C 0.28887 0.31563 0.86897 0.0
C1399 C 0.28768 0.30571 0.85026 0.0
C1400 C 0.30246 0.30125 0.84335 0.0
C1401 C 0.31836 0.30649 0.85587 0.0
C1402 C 0.31951 0.31629 0.87465 0.0
H1403 H 0.33079 0.37541 0.89733 0.0
H1404 H 0.33937 0.35431 0.8929 0.0
H1405 H 0.32018 0.35714 0.87762 0.0
H1406 H 0.27733 0.31917 0.87377 0.0
H1407 H 0.2752 0.3019 0.84107 0.0
H1408 H 0.9828 1.01185 0.3072 0.0
H1409 H 0.99673 1.01384 0.341 0.0
H1410 H 0.94734 1.00887 0.36054 0.0
H1411 H 0.93332 1.00756 0.32665 0.0
H1412 H 0.97032 0.03661 0.38291 0.0
H1413 H 0.99934 0.97271 0.37473 0.0
H1414 H 1.00571 0.98878 0.35799 0.0
H1415 H 0.98346 0.97765 0.35596 0.0
C1416 C 0.97486 1.01097 0.31865 0.0
C1417 C 0.95695 1.00946 0.31428 0.0
C1418 C 0.98285 1.01201 0.33798 0.0
C1419 C 0.97307 1.01115 0.35329 0.0
C1420 C 0.95514 1.00947 0.34894 0.0
H1421 H 1.01167 0.99339 0.47084 0.0
H1422 H 0.99763 0.99083 0.43706 0.0
C1423 C 0.94714 1.00866 0.32959 0.0
C1424 C 0.98166 1.01283 0.37389 0.0
H1425 H 1.00983 0.99428 0.40407 0.0
C1426 C 0.97886 0.02727 0.38758 0.0
C1427 C 0.99267 1.00052 0.38003 0.0
C1428 C 0.99534 0.98393 0.36645 0.0
C1429 C 0.98692 0.02987 0.40719 0.0
C1430 C 0.9985 0.01806 0.41312 0.0
C1431 C 1.00114 1.0035 0.39946 0.0
C1432 C 1.00739 0.0199 0.43362 0.0
C1433 C 0.98259 0.04494 0.4214 0.0
C1434 C 0.01782 0.03704 0.4429 0.0
C1435 C 0.02574 0.03863 0.46239 0.0
C1436 C 0.02364 0.02298 0.47281 0.0
C1437 C 1.01362 1.00571 0.46326 0.0
C1438 C 1.00555 1.00422 0.44391 0.0
H1439 H 0.97013 0.04887 0.41599 0.0
H1440 H 0.9819 0.04019 0.43599 0.0
H1441 H 0.99273 0.05786 0.42321 0.0
H1442 H 0.01984 0.0492 0.43508 0.0
H1443 H 0.0335 0.05208 0.46927 0.0
H1444 H 0.35509 0.74839 0.58426 0.0
H1445 H 0.35746 0.76235 0.6183 0.0
H1446 H 0.34537 0.70662 0.63536 0.0
H1447 H 0.34346 0.69254 0.60155 0.0
H1448 H 0.32796 0.75675 0.63292 0.0
H1449 H 0.37811 0.7343 0.68325 0.0
H1450 H 0.37822 0.73287 0.65714 0.0
H1451 H 0.36481 0.71477 0.66699 0.0
C1452 C 0.35363 0.73907 0.59538 0.0
C1453 C 0.34874 0.71937 0.59015 0.0
C1454 C 0.355 0.74708 0.61484 0.0
C1455 C 0.35148 0.73554 0.62935 0.0
C1456 C 0.3484 0.71581 0.6245 0.0
H1457 H 0.29205 0.75718 0.72028 0.0
H1458 H 0.30423 0.74428 0.6924 0.0
C1459 C 0.34721 0.70777 0.60506 0.0
C1460 C 0.34738 0.74393 0.64811 0.0
H1461 H 0.35483 0.7445 0.69776 0.0
C1462 C 0.33407 0.75433 0.6471 0.0
C1463 C 0.35525 0.74065 0.66659 0.0
C1464 C 0.37 0.73019 0.6686 0.0
C1465 C 0.32809 0.76111 0.66398 0.0
C1466 C 0.33542 0.75712 0.68235 0.0
C1467 C 0.3491 0.74727 0.68355 0.0
C1468 C 0.32891 0.76324 0.70037 0.0
C1469 C 0.31387 0.77238 0.662 0.0
C1470 C 0.33896 0.77777 0.71425 0.0
C1471 C 0.33205 0.78507 0.73018 0.0
C1472 C 0.31507 0.77782 0.73247 0.0
C1473 C 0.30523 0.76285 0.71891 0.0
C1474 C 0.31213 0.75556 0.70299 0.0
H1475 H 0.31236 0.77778 0.64761 0.0
H1476 H 0.30154 0.76319 0.66326 0.0
H1477 H 0.31637 0.78457 0.67383 0.0
H1478 H 0.35192 0.78386 0.71241 0.0
H1479 H 0.33991 0.79656 0.74054 0.0
H1480 H 0.62484 1.01268 0.83054 0.0
H1481 H 0.61014 0.01678 0.85907 0.0
H1482 H 0.65684 0.01527 0.89726 0.0
H1483 H 0.67163 1.01144 0.86866 0.0
H1484 H 0.60108 0.9968 0.88653 0.0
H1485 H 0.64568 0.05974 0.92761 0.0
H1486 H 0.64713 0.05111 0.90268 0.0
H1487 H 0.65618 0.04018 0.92269 0.0
C1488 C 0.63215 1.01337 0.84498 0.0
C1489 C 0.64973 1.01182 0.8468 0.0
C1490 C 0.62358 0.01569 0.86156 0.0
C1491 C 0.63208 0.0168 0.88104 0.0
C1492 C 0.64966 0.01512 0.88287 0.0
H1493 H 0.59812 0.02988 1.00011 0.0
H1494 H 0.61418 0.02616 0.97253 0.0
C1495 C 0.65824 1.01274 0.86623 0.0
C1496 C 0.62242 0.01915 0.89897 0.0
H1497 H 0.62426 0.04494 0.94446 0.0
C1498 C 0.60627 1.00747 0.89906 0.0
C1499 C 0.62868 0.03288 0.91594 0.0
C1500 C 0.64527 0.04682 0.91723 0.0
C1501 C 0.59674 1.00878 0.91507 0.0
C1502 C 0.60289 0.02263 0.93196 0.0
C1503 C 0.6191 0.03425 0.93194 0.0
C1504 C 0.59281 0.0253 0.94948 0.0
C1505 C 0.58029 0.99458 0.91383 0.0
C1506 C 0.57516 0.0266 0.94672 0.0
C1507 C 0.56584 0.02869 0.96268 0.0
C1508 C 0.5736 0.02986 0.98249 0.0
C1509 C 0.59136 0.02902 0.98536 0.0
C1510 C 0.60069 0.02689 0.96932 0.0
H1511 H 0.58033 0.98144 0.904 0.0
H1512 H 0.57821 0.99072 0.92848 0.0
H1513 H 0.5693 1.00074 0.90766 0.0
H1514 H 0.56843 0.02619 0.93204 0.0
H1515 H 0.55235 0.02939 0.95938 0.0
H1516 H 0.31475 0.39606 0.11471 0.0
H1517 H 0.3121 0.38318 0.14592 0.0
H1518 H 0.3048 0.32655 0.11564 0.0
H1519 H 0.30757 0.33905 0.08495 0.0
H1520 H 0.28576 0.35626 0.15794 0.0
H1521 H 0.34609 0.32857 0.1581 0.0
H1522 H 0.34055 0.34573 0.14252 0.0
H1523 H 0.33151 0.32097 0.13554 0.0
C1524 C 0.31245 0.38088 0.11475 0.0
C1525 C 0.3117 0.36865 0.09734 0.0
C1526 C 0.31098 0.37353 0.13258 0.0
C1527 C 0.30873 0.35388 0.13323 0.0
C1528 C 0.30705 0.34175 0.11568 0.0
H1529 H 0.29358 0.26839 0.20937 0.0
H1530 H 0.29802 0.2876 0.18281 0.0
C1531 C 0.3086 0.34899 0.09807 0.0
C1532 C 0.30832 0.34563 0.15201 0.0
H1533 H 0.32695 0.31559 0.17904 0.0
C1534 C 0.29493 0.34763 0.16277 0.0
C1535 C 0.32028 0.33433 0.15835 0.0
C1536 C 0.33552 0.33241 0.14814 0.0
C1537 C 0.2927 0.33791 0.17907 0.0
C1538 C 0.30428 0.32603 0.1849 0.0
C1539 C 0.31798 0.32454 0.17451 0.0
C1540 C 0.30211 0.31451 0.20129 0.0
C1541 C 0.27755 0.33979 0.18943 0.0
C1542 C 0.30335 0.3232 0.22063 0.0
C1543 C 0.30093 0.31224 0.23585 0.0
C1544 C 0.29721 0.29234 0.23205 0.0
C1545 C 0.29641 0.28366 0.21277 0.0
C1546 C 0.29891 0.29464 0.19758 0.0
H1547 H 0.26794 0.34631 0.1808 0.0
H1548 H 0.2711 0.32575 0.19238 0.0
H1549 H 0.28213 0.34888 0.20371 0.0
H1550 H 0.30613 0.33848 0.22396 0.0
H1551 H 0.30164 0.31937 0.25054 0.0
H1552 H 0.25227 0.92724 0.04133 0.0
H1553 H 0.23484 0.94617 0.05816 0.0
H1554 H 0.19233 0.89876 0.04691 0.0
H1555 H 0.20988 0.87952 0.0303 0.0
H1556 H 0.20526 0.95284 0.0366 0.0
H1557 H 0.19043 0.92163 0.10343 0.0
H1558 H 0.20826 0.91708 0.09136 0.0
H1559 H 0.18673 0.90516 0.08132 0.0
C1560 C 0.23933 0.9207 0.04279 0.0
C1561 C 0.23233 0.902 0.03431 0.0
C1562 C 0.22943 0.9315 0.0525 0.0
C1563 C 0.21236 0.92382 0.05387 0.0
C1564 C 0.2056 0.90482 0.04634 0.0
H1565 H 0.12428 0.97335 0.06886 0.0
H1566 H 0.14466 0.95176 0.06825 0.0
C1567 C 0.21558 0.89391 0.03672 0.0
C1568 C 0.20102 0.93655 0.06026 0.0
H1569 H 0.17457 0.945 0.09355 0.0
C1570 C 0.19871 0.95126 0.0492 0.0
C1571 C 0.19232 0.93421 0.07649 0.0
C1572 C 0.19462 0.91876 0.08897 0.0
C1573 C 0.18777 0.96362 0.05375 0.0
C1574 C 0.17919 0.96147 0.07012 0.0
C1575 C 0.18139 0.94671 0.08119 0.0
C1576 C 0.16725 0.97401 0.07503 0.0
C1577 C 0.18508 0.97852 0.0406 0.0
C1578 C 0.17329 0.99355 0.08001 0.0
C1579 C 0.16172 1.00594 0.07999 0.0
C1580 C 0.14394 0.9989 0.07517 0.0
C1581 C 0.13794 0.97919 0.07211 0.0
C1582 C 0.14953 0.96683 0.07198 0.0
H1583 H 0.18953 0.97551 0.02632 0.0
H1584 H 0.17129 0.97957 0.03773 0.0
H1585 H 0.19249 0.99248 0.04791 0.0
H1586 H 0.18697 0.99928 0.08263 0.0
H1587 H 0.16675 0.02102 0.08243 0.0
H1588 H 0.73133 0.61307 0.00897 0.0
H1589 H 0.70416 0.59196 0.01094 0.0
H1590 H 0.67612 0.63528 0.99516 0.0
H1591 H 0.70286 0.65611 0.99275 0.0
H1592 H 0.67988 0.59586 0.0345 0.0
H1593 H 0.64947 0.59071 0.95731 0.0
H1594 H 0.67201 0.60033 0.96539 0.0
H1595 H 0.65614 0.6148 0.9686 0.0
C1596 C 0.71936 0.61801 1.00563 0.0
C1597 C 0.71944 0.63634 1.00053 0.0
C1598 C 0.7038 0.60593 1.00687 0.0
C1599 C 0.68793 0.61183 1.0029 0.0
C1600 C 0.68803 0.6301 0.99783 0.0
H1601 H 0.59048 0.56448 0.04052 0.0
H1602 H 0.61813 0.58384 0.03728 0.0
C1603 C 0.70348 0.6421 0.99655 0.0
C1604 C 0.67129 0.5993 1.00461 0.0
H1605 H 0.6308 0.58077 0.97989 0.0
C1606 C 0.6692 0.59245 0.0225 0.0
C1607 C 0.6573 0.59457 0.98895 0.0
C1608 C 0.65887 0.60032 0.96893 0.0
C1609 C 0.65351 0.58146 0.02526 0.0
C1610 C 0.63927 0.57747 0.00987 0.0
C1611 C 0.64152 0.58398 0.99185 0.0
C1612 C 0.62213 0.56607 0.01181 0.0
C1613 C 0.65251 0.57392 0.04458 0.0
C1614 C 0.61464 0.55 0.99819 0.0
C1615 C 0.59868 0.53914 0.99983 0.0
C1616 C 0.58974 0.54402 0.01514 0.0
C1617 C 0.59703 0.56029 0.02859 0.0
C1618 C 0.61298 0.57126 0.02686 0.0
H1619 H 0.66548 0.57339 0.05236 0.0
H1620 H 0.64664 0.58342 0.05413 0.0
H1621 H 0.64449 0.5595 0.04248 0.0
H1622 H 0.62126 0.54566 0.98637 0.0
H1623 H 0.59344 0.52674 0.98918 0.0
H1624 H 0.64926 0.48217 0.299 0.0
H1625 H 0.66362 0.45486 0.29596 0.0
H1626 H 0.70997 0.49144 0.28767 0.0
H1627 H 0.69581 0.5187 0.29059 0.0
H1628 H 0.68384 0.44219 0.26333 0.0
H1629 H 0.72143 0.46389 0.33814 0.0
H1630 H 0.70157 0.47166 0.33045 0.0
H1631 H 0.72109 0.48221 0.3226 0.0
C1632 C 0.66244 0.48434 0.29627 0.0
C1633 C 0.67145 0.5026 0.29516 0.0
C1634 C 0.67059 0.46875 0.29454 0.0
C1635 C 0.68786 0.47125 0.29182 0.0
C1636 C 0.69666 0.48931 0.28994 0.0
H1637 H 0.77128 0.41287 0.2902 0.0
H1638 H 0.75136 0.43474 0.29172 0.0
C1639 C 0.68853 0.50485 0.29157 0.0
C1640 C 0.69712 0.45528 0.29181 0.0
H1641 H 0.72978 0.4396 0.31811 0.0
C1642 C 0.69376 0.44141 0.27535 0.0
C1643 C 0.70999 0.45441 0.30758 0.0
C1644 C 0.71372 0.46873 0.3258 0.0
C1645 C 0.70356 0.42711 0.27386 0.0
C1646 C 0.71679 0.42654 0.28944 0.0
C1647 C 0.71968 0.44008 0.30617 0.0
C1648 C 0.72857 0.41288 0.28825 0.0
C1649 C 0.7002 0.41329 0.25527 0.0
C1650 C 0.72241 0.39328 0.286 0.0
C1651 C 0.73379 0.38066 0.28484 0.0
C1652 C 0.75156 0.38745 0.28609 0.0
C1653 C 0.75767 0.40712 0.28877 0.0
C1654 C 0.7463 0.41967 0.2898 0.0
H1655 H 0.6924 0.41829 0.24311 0.0
H1656 H 0.71246 0.41089 0.25053 0.0
H1657 H 0.69301 0.39952 0.25799 0.0
H1658 H 0.70881 0.38773 0.28518 0.0
H1659 H 0.72863 0.36561 0.28266 0.0
H1660 H 0.80675 0.36681 0.46457 0.0
H1661 H 0.83459 0.38652 0.46311 0.0
H1662 H 0.81621 0.43618 0.48453 0.0
H1663 H 0.78841 0.41675 0.48613 0.0
H1664 H 0.84496 0.42251 0.4454 0.0
H1665 H 0.85749 0.42972 0.52689 0.0
H1666 H 0.84103 0.41143 0.5123 0.0
H1667 H 0.83753 0.4353 0.5161 0.0
C1668 C 0.80847 0.38197 0.46857 0.0
C1669 C 0.79544 0.39014 0.47584 0.0
C1670 C 0.82439 0.39319 0.46772 0.0
C1671 C 0.82746 0.41268 0.47409 0.0
C1672 C 0.81409 0.42109 0.47983 0.0
H1673 H 0.92017 0.49893 0.50454 0.0
H1674 H 0.89068 0.48085 0.49978 0.0
C1675 C 0.7982 0.40993 0.48068 0.0
C1676 C 0.84503 0.42397 0.47649 0.0
H1677 H 0.87854 0.44668 0.51144 0.0
C1678 C 0.85235 0.42781 0.4598 0.0
C1679 C 0.85454 0.4308 0.49534 0.0
C1680 C 0.84736 0.42654 0.51373 0.0
C1681 C 0.86897 0.43866 0.46147 0.0
C1682 C 0.87854 0.44539 0.48034 0.0
C1683 C 0.87115 0.44153 0.49701 0.0
C1684 C 0.89636 0.45627 0.48318 0.0
C1685 C 0.87598 0.44311 0.44304 0.0
C1686 C 0.90935 0.44823 0.47583 0.0
C1687 C 0.92615 0.4585 0.47854 0.0
C1688 C 0.93029 0.47691 0.48883 0.0
C1689 C 0.91735 0.48473 0.49665 0.0
C1690 C 0.90051 0.47448 0.49384 0.0
H1691 H 0.86552 0.44162 0.43038 0.0
H1692 H 0.88365 0.45771 0.44506 0.0
H1693 H 0.88448 0.43308 0.43939 0.0
H1694 H 0.90652 0.43398 0.46809 0.0
H1695 H 0.93593 0.45198 0.47266 0.0
H1696 H 0.41656 0.11889 0.28289 0.0
H1697 H 0.40165 0.14596 0.28345 0.0
H1698 H 0.35375 0.10817 0.2603 0.0
H1699 H 0.36855 0.08118 0.26006 0.0
H1700 H 0.38468 0.16421 0.25898 0.0
H1701 H 0.33562 0.13579 0.30223 0.0
H1702 H 0.35359 0.12451 0.29874 0.0
H1703 H 0.33487 0.12035 0.28006 0.0
C1704 C 0.40282 0.11619 0.2779 0.0
C1705 C 0.39405 0.09727 0.27149 0.0
C1706 C 0.39414 0.13196 0.27823 0.0
C1707 C 0.37609 0.12983 0.27239 0.0
C1708 C 0.36742 0.11092 0.26561 0.0
H1709 H 0.29819 0.20663 0.26612 0.0
H1710 H 0.31388 0.18035 0.26485 0.0
C1711 C 0.37609 0.09518 0.26525 0.0
C1712 C 0.36659 0.14709 0.27313 0.0
H1713 H 0.33119 0.1631 0.28775 0.0
C1714 C 0.37303 0.16381 0.26543 0.0
C1715 C 0.35116 0.14746 0.28141 0.0
C1716 C 0.34348 0.13117 0.29126 0.0
C1717 C 0.36466 0.17989 0.26523 0.0
C1718 C 0.34919 0.18024 0.27348 0.0
C1719 C 0.34281 0.16354 0.28126 0.0
C1720 C 0.3394 0.1973 0.27405 0.0
C1721 C 0.37234 0.19613 0.25531 0.0
C1722 C 0.34777 0.2165 0.27984 0.0
C1723 C 0.33862 0.23188 0.28042 0.0
C1724 C 0.32045 0.22908 0.27549 0.0
C1725 C 0.31206 0.20991 0.26996 0.0
C1726 C 0.32121 0.19457 0.2693 0.0
H1727 H 0.38016 0.19146 0.24432 0.0
H1728 H 0.36224 0.20279 0.24782 0.0
H1729 H 0.38101 0.20696 0.26646 0.0
H1730 H 0.36155 0.21978 0.28438 0.0
H1731 H 0.3459 0.24609 0.28506 0.0
H1732 H 0.30136 0.10525 0.52186 0.0
H1733 H 0.32712 0.09099 0.52504 0.0
H1734 H 0.3577 0.14328 0.51521 0.0
H1735 H 0.33211 0.15767 0.51228 0.0
H1736 H 0.34849 0.08533 0.4979 0.0
H1737 H 0.38613 0.13164 0.56373 0.0
H1738 H 0.36348 0.13094 0.55631 0.0
H1739 H 0.37913 0.14437 0.54433 0.0
C1740 C 0.3136 0.11379 0.52059 0.0
C1741 C 0.31462 0.13268 0.51692 0.0
C1742 C 0.32834 0.10559 0.52236 0.0
C1743 C 0.3445 0.11608 0.52066 0.0
C1744 C 0.34553 0.13495 0.51704 0.0
H1745 H 0.44771 0.0899 0.52141 0.0
H1746 H 0.42243 0.10494 0.51942 0.0
C1747 C 0.33081 0.14316 0.51526 0.0
C1748 C 0.36009 0.10708 0.52188 0.0
H1749 H 0.40094 0.11108 0.54656 0.0
C1750 C 0.35991 0.09092 0.50863 0.0
C1751 C 0.37511 0.11436 0.53578 0.0
C1752 C 0.37599 0.13118 0.55097 0.0
C1753 C 0.3743 0.08208 0.50867 0.0
C1754 C 0.3893 0.08931 0.52262 0.0
C1755 C 0.38951 0.10551 0.53584 0.0
C1756 C 0.40477 0.08011 0.5239 0.0
C1757 C 0.37344 0.06532 0.49341 0.0
C1758 C 0.40347 0.06119 0.5274 0.0
C1759 C 0.41792 0.05255 0.5286 0.0
C1760 C 0.43418 0.06261 0.52647 0.0
C1761 C 0.4355 0.08168 0.52326 0.0
C1762 C 0.421 0.09031 0.52204 0.0
H1763 H 0.36337 0.06496 0.48061 0.0
H1764 H 0.38598 0.06552 0.48815 0.0
H1765 H 0.37019 0.05208 0.49996 0.0
H1766 H 0.39126 0.05311 0.52944 0.0
H1767 H 0.41638 0.03803 0.53158 0.0
H1768 H 0.69501 0.59043 0.31774 0.0
H1769 H 0.71774 0.61763 0.31758 0.0
H1770 H 0.68083 0.65453 0.31882 0.0
H1771 H 0.65801 0.62741 0.31945 0.0
H1772 H 0.72003 0.64027 0.28974 0.0
H1773 H 0.7195 0.68336 0.36046 0.0
H1774 H 0.70864 0.65896 0.35462 0.0
H1775 H 0.6988 0.67742 0.34528 0.0
C1776 C 0.69172 0.60435 0.31823 0.0
C1777 C 0.67465 0.6067 0.3186 0.0
C1778 C 0.70476 0.6199 0.31814 0.0
C1779 C 0.70106 0.63817 0.31841 0.0
C1780 C 0.68409 0.64064 0.31907 0.0
H1781 H 0.76195 0.73049 0.27436 0.0
H1782 H 0.73984 0.70482 0.28018 0.0
C1783 C 0.67103 0.62508 0.31932 0.0
C1784 C 0.71475 0.65432 0.31656 0.0
H1785 H 0.73535 0.6986 0.33789 0.0
C1786 C 0.72344 0.65297 0.30035 0.0
C1787 C 0.71936 0.67081 0.33051 0.0
C1788 C 0.71121 0.6727 0.3488 0.0
C1789 C 0.73638 0.66773 0.29752 0.0
C1790 C 0.74048 0.68455 0.31101 0.0
C1791 C 0.73206 0.68579 0.32744 0.0
C1792 C 0.7534 0.701 0.30817 0.0
C1793 C 0.7457 0.66502 0.28022 0.0
C1794 C 0.76808 0.70791 0.32233 0.0
C1795 C 0.78059 0.72294 0.31921 0.0
C1796 C 0.77854 0.73132 0.30194 0.0
C1797 C 0.76372 0.72456 0.28796 0.0
C1798 C 0.75119 0.70969 0.29114 0.0
H1799 H 0.74469 0.64979 0.27486 0.0
H1800 H 0.73983 0.67169 0.26801 0.0
H1801 H 0.75952 0.6717 0.28401 0.0
H1802 H 0.77001 0.70145 0.33561 0.0
H1803 H 0.7919 0.7279 0.33021 0.0
H1804 H 0.87496 0.49749 0.7685 0.0
H1805 H 0.85658 0.46631 0.76847 0.0
H1806 H 0.90122 0.44426 0.78984 0.0
H1807 H 0.91937 0.47471 0.78957 0.0
H1808 H 0.88256 0.41848 0.76339 0.0
H1809 H 0.83768 0.44082 0.81126 0.0
H1810 H 0.83791 0.45227 0.7896 0.0
H1811 H 0.85685 0.45659 0.8079 0.0
C1812 C 0.88089 0.48605 0.77326 0.0
C1813 C 0.89892 0.48915 0.77904 0.0
C1814 C 0.87026 0.46805 0.7734 0.0
C1815 C 0.87721 0.45243 0.77943 0.0
C1816 C 0.89517 0.45562 0.78507 0.0
H1817 H 0.8237 0.34733 0.81693 0.0
H1818 H 0.83882 0.3792 0.81408 0.0
C1819 C 0.90568 0.4734 0.78493 0.0
C1820 C 0.86633 0.4327 0.77964 0.0
H1821 H 0.83185 0.40859 0.79751 0.0
C1822 C 0.87144 0.41648 0.77084 0.0
C1823 C 0.85179 0.42944 0.78952 0.0
C1824 C 0.84578 0.44564 0.80028 0.0
C1825 C 0.86278 0.39769 0.77161 0.0
C1826 C 0.84805 0.39441 0.78116 0.0
C1827 C 0.84292 0.41063 0.79 0.0
C1828 C 0.83823 0.37448 0.78269 0.0
C1829 C 0.87008 0.38149 0.76272 0.0
C1830 C 0.83228 0.36057 0.76611 0.0
C1831 C 0.82363 0.34208 0.76776 0.0
C1832 C 0.8203 0.33663 0.78603 0.0
C1833 C 0.82593 0.35064 0.80255 0.0
C1834 C 0.83464 0.36912 0.80091 0.0
H1835 H 0.88387 0.38595 0.76152 0.0
H1836 H 0.86884 0.36955 0.77152 0.0
H1837 H 0.86299 0.37637 0.74771 0.0
H1838 H 0.83417 0.36401 0.75169 0.0
H1839 H 0.8195 0.33202 0.75459 0.0
H1840 H 0.07192 0.86264 0.15526 0.0
H1841 H 0.07062 0.89129 0.13963 0.0
H1842 H 0.07402 0.86065 0.08402 0.0
H1843 H 0.07563 0.83211 0.09959 0.0
H1844 H 0.09376 0.89625 0.08949 0.0
H1845 H 0.02822 0.90017 0.10533 0.0
H1846 H 0.04356 0.90037 0.12677 0.0
H1847 H 0.03784 0.87973 0.10863 0.0
C1848 C 0.07256 0.86204 0.13974 0.0
C1849 C 0.07379 0.845 0.1287 0.0
C1850 C 0.07166 0.87842 0.13076 0.0
C1851 C 0.07184 0.87812 0.1105 0.0
C1852 C 0.07374 0.8613 0.09962 0.0
H1853 H 0.03468 0.95926 0.03896 0.0
H1854 H 0.03942 0.93108 0.05383 0.0
C1855 C 0.07466 0.84495 0.10858 0.0
C1856 C 0.06976 0.89513 0.10053 0.0
H1857 H 0.04243 0.92586 0.09156 0.0
C1858 C 0.08253 0.90272 0.08996 0.0
C1859 C 0.05498 0.90346 0.10077 0.0
C1860 C 0.04027 0.89544 0.11081 0.0
C1861 C 0.08106 0.91845 0.07992 0.0
C1862 C 0.06651 0.92713 0.08066 0.0
C1863 C 0.05365 0.91938 0.09104 0.0
C1864 C 0.06423 0.94412 0.07071 0.0
C1865 C 0.09495 0.92532 0.06824 0.0
C1866 C 0.07657 0.96097 0.07507 0.0
C1867 C 0.07394 0.97712 0.06646 0.0
C1868 C 0.05879 0.97694 0.05338 0.0
C1869 C 0.04653 0.95999 0.04887 0.0
C1870 C 0.0492 0.94383 0.05745 0.0
H1871 H 0.10222 0.91407 0.06431 0.0
H1872 H 0.08949 0.9302 0.05456 0.0
H1873 H 0.10421 0.93738 0.07717 0.0
H1874 H 0.0881 0.96183 0.08555 0.0
H1875 H 0.08365 0.98989 0.07046 0.0
H1876 H 0.95471 0.25539 0.92297 0.0
H1877 H 0.92719 0.2551 0.90291 0.0
H1878 H 0.95356 0.27338 0.85605 0.0
H1879 H 0.98129 0.27283 0.87594 0.0
H1880 H 0.91433 0.28236 0.89039 0.0
H1881 H 0.91715 0.23309 0.82476 0.0
H1882 H 0.93259 0.236 0.84683 0.0
H1883 H 0.93479 0.25282 0.82959 0.0
C1884 C 0.95469 0.25906 0.90826 0.0
C1885 C 0.97027 0.26404 0.90106 0.0
C1886 C 0.93887 0.25897 0.89678 0.0
C1887 C 0.93806 0.26408 0.87777 0.0
C1888 C 0.95363 0.26889 0.87041 0.0
H1889 H 0.84384 0.29794 0.8222 0.0
H1890 H 0.87236 0.29786 0.84026 0.0
C1891 C 0.96954 0.26864 0.88183 0.0
C1892 C 0.92094 0.26516 0.86635 0.0
H1893 H 0.89423 0.25009 0.82257 0.0
C1894 C 0.90996 0.27522 0.87557 0.0
C1895 C 0.91496 0.25574 0.84704 0.0
C1896 C 0.9254 0.24365 0.83653 0.0
C1897 C 0.89335 0.27601 0.86626 0.0
C1898 C 0.88756 0.26708 0.84673 0.0
C1899 C 0.89856 0.2571 0.83745 0.0
C1900 C 0.87002 0.26737 0.83587 0.0
C1901 C 0.88198 0.28586 0.87783 0.0
C1902 C 0.85915 0.25038 0.82679 0.0
C1903 C 0.84297 0.25047 0.8161 0.0
C1904 C 0.83712 0.26753 0.8143 0.0
C1905 C 0.84784 0.28453 0.82355 0.0
C1906 C 0.86417 0.28447 0.83399 0.0
H1907 H 0.88602 0.2865 0.89386 0.0
H1908 H 0.88296 0.30062 0.87449 0.0
H1909 H 0.86831 0.2786 0.87408 0.0
H1910 H 0.86322 0.23697 0.82791 0.0
H1911 H 0.83506 0.23714 0.80908 0.0
H1912 H 0.58691 0.24472 0.5928 0.0
H1913 H 0.5814 0.21079 0.58222 0.0
H1914 H 0.54461 0.20213 0.62186 0.0
H1915 H 0.55014 0.23646 0.63288 0.0
H1916 H 0.58233 0.17943 0.61207 0.0
H1917 H 0.52211 0.17693 0.56022 0.0
H1918 H 0.53856 0.19809 0.56581 0.0
H1919 H 0.5258 0.19101 0.584 0.0
C1920 C 0.57758 0.23574 0.59934 0.0
C1921 C 0.5689 0.24347 0.61369 0.0
C1922 C 0.57451 0.21627 0.59326 0.0
C1923 C 0.56259 0.20396 0.60119 0.0
C1924 C 0.55386 0.21145 0.61554 0.0
H1925 H 0.52409 0.08379 0.56072 0.0
H1926 H 0.52789 0.1167 0.57526 0.0
C1927 C 0.55705 0.23105 0.62183 0.0
C1928 C 0.55943 0.18335 0.59416 0.0
H1929 H 0.53315 0.14891 0.56067 0.0
C1930 C 0.5715 0.17266 0.60096 0.0
C1931 C 0.54532 0.17461 0.57968 0.0
C1932 C 0.53213 0.18563 0.57186 0.0
C1933 C 0.56986 0.15342 0.59362 0.0
C1934 C 0.55605 0.14477 0.57858 0.0
C1935 C 0.54381 0.15547 0.57207 0.0
C1936 C 0.55393 0.12464 0.56952 0.0
C1937 C 0.58282 0.14254 0.60234 0.0
C1938 C 0.56718 0.11803 0.56105 0.0
C1939 C 0.56511 0.09904 0.55283 0.0
C1940 C 0.54961 0.0863 0.55256 0.0
C1941 C 0.53621 0.09312 0.56058 0.0
C1942 C 0.53836 0.11201 0.56896 0.0
H1943 H 0.58901 0.14922 0.61734 0.0
H1944 H 0.57676 0.12768 0.60306 0.0
H1945 H 0.5931 0.14242 0.59309 0.0
H1946 H 0.57914 0.12756 0.56071 0.0
H1947 H 0.57565 0.09437 0.54665 0.0
H1948 H 0.58204 0.7753 0.41877 0.0
H1949 H 0.60768 0.77585 0.40316 0.0
H1950 H 0.57614 0.74821 0.34903 0.0
H1951 H 0.55027 0.74808 0.36451 0.0
H1952 H 0.62218 0.74879 0.387 0.0
H1953 H 0.60363 0.7924 0.32972 0.0
H1954 H 0.59203 0.78908 0.35001 0.0
H1955 H 0.58827 0.77103 0.32916 0.0
C1956 C 0.58049 0.7693 0.40353 0.0
C1957 C 0.56399 0.76173 0.39289 0.0
C1958 C 0.59524 0.76963 0.39459 0.0
C1959 C 0.59398 0.76243 0.37474 0.0
C1960 C 0.57754 0.75435 0.3642 0.0
H1961 H 0.67099 0.75377 0.29738 0.0
H1962 H 0.64481 0.7511 0.31232 0.0
C1963 C 0.56272 0.75411 0.37313 0.0
C1964 C 0.60991 0.76333 0.36533 0.0
H1965 H 0.62885 0.77976 0.32747 0.0
C1966 C 0.62361 0.75562 0.374 0.0
C1967 C 0.61196 0.77228 0.34837 0.0
C1968 C 0.59827 0.78184 0.33886 0.0
C1969 C 0.63906 0.75636 0.36614 0.0
C1970 C 0.64107 0.76528 0.34919 0.0
C1971 C 0.62736 0.77289 0.34043 0.0
C1972 C 0.65726 0.76681 0.34029 0.0
C1973 C 0.65298 0.74727 0.37586 0.0
C1974 C 0.6731 0.7767 0.3509 0.0
C1975 C 0.68819 0.77822 0.34238 0.0
C1976 C 0.68785 0.76988 0.32301 0.0
C1977 C 0.67191 0.7601 0.31242 0.0
C1978 C 0.65684 0.75867 0.32091 0.0
H1979 H 0.6479 0.73699 0.38542 0.0
H1980 H 0.65918 0.73985 0.36479 0.0
H1981 H 0.663 0.7584 0.38514 0.0
H1982 H 0.67379 0.78341 0.36575 0.0
H1983 H 0.70016 0.7858 0.35107 0.0
H1984 H 1.01123 0.2398 0.41448 0.0
H1985 H 1.01591 0.20748 0.415 0.0
H1986 H 0.05705 0.21856 0.38108 0.0
H1987 H 0.05239 0.25119 0.3804 0.0
H1988 H 0.01916 0.17597 0.38408 0.0
H1989 H 0.07864 0.20795 0.43714 0.0
H1990 H 0.06206 0.22143 0.43144 0.0
H1991 H 0.07523 0.21592 0.41349 0.0
C1992 C 0.02106 0.23528 0.40679 0.0
C1993 C 0.03163 0.24807 0.39767 0.0
C1994 C 0.02362 0.21678 0.40697 0.0
C1995 C 0.03688 0.21076 0.3982 0.0
C1996 C 0.04676 0.22304 0.38793 0.0
H1997 H 0.06896 0.1214 0.46007 0.0
H1998 H 0.06919 0.14055 0.43308 0.0
C1999 C 0.04407 0.24161 0.38756 0.0
C2000 C 0.04162 0.19269 0.4026 0.0
H2001 H 0.06689 0.17627 0.43778 0.0
C2002 C 0.02991 0.17583 0.39536 0.0
C2003 C 0.05575 0.19257 0.41717 0.0
C2004 C 0.0687 0.21038 0.42538 0.0
C2005 C 0.03116 0.15914 0.40354 0.0
C2006 C 0.04414 0.15959 0.41968 0.0
C2007 C 0.05686 0.17595 0.4255 0.0
C2008 C 0.04306 0.14489 0.43297 0.0
C2009 C 0.01805 0.14147 0.39545 0.0
C2010 C 0.02823 0.14076 0.4417 0.0
C2011 C 0.02804 0.12979 0.45697 0.0
C2012 C 0.04276 0.12294 0.4641 0.0
C2013 C 0.05738 0.12639 0.45483 0.0
C2014 C 0.05754 0.13733 0.43942 0.0
H2015 H 1.01431 0.14082 0.37936 0.0
H2016 H 0.02298 0.12848 0.3985 0.0
H2017 H 1.00627 0.14176 0.4022 0.0
H2018 H 0.01707 0.14686 0.43743 0.0
H2019 H 0.01649 0.12713 0.4636 0.0
H2020 H 0.5959 0.25947 0.22089 0.0
H2021 H 0.62383 0.25795 0.23955 0.0
H2022 H 0.64873 0.27313 0.19064 0.0
H2023 H 0.62114 0.27491 0.17201 0.0
H2024 H 0.64969 0.23635 0.23051 0.0
H2025 H 0.67274 0.31379 0.23703 0.0
H2026 H 0.65033 0.3029 0.23006 0.0
H2027 H 0.66469 0.30318 0.21221 0.0
C2028 C 0.60732 0.26244 0.21409 0.0
C2029 C 0.60631 0.26756 0.19504 0.0
C2030 C 0.62322 0.26151 0.22476 0.0
C2031 C 0.63827 0.26572 0.21652 0.0
C2032 C 0.63723 0.27017 0.19733 0.0
H2033 H 0.74101 0.24696 0.2389 0.0
H2034 H 0.70976 0.24316 0.23013 0.0
C2035 C 0.62144 0.27117 0.18671 0.0
C2036 C 0.65527 0.2661 0.22798 0.0
H2037 H 0.69421 0.29503 0.24308 0.0
C2038 C 0.65941 0.24919 0.23358 0.0
C2039 C 0.66773 0.28297 0.23228 0.0
C2040 C 0.66362 0.30178 0.22777 0.0
C2041 C 0.67611 0.24855 0.24251 0.0
C2042 C 0.68892 0.26517 0.24544 0.0
C2043 C 0.68445 0.28223 0.24069 0.0
C2044 C 0.70726 0.26534 0.25253 0.0
C2045 C 0.67982 0.23011 0.24861 0.0
C2046 C 0.71625 0.27912 0.26791 0.0
C2047 C 0.73407 0.28169 0.27245 0.0
C2048 C 0.7432 0.27032 0.26191 0.0
C2049 C 0.73419 0.25584 0.24724 0.0
C2050 C 0.71634 0.25354 0.24239 0.0
H2051 H 0.66805 0.22114 0.25183 0.0
H2052 H 0.68436 0.22216 0.23643 0.0
H2053 H 0.68991 0.2325 0.26176 0.0
H2054 H 0.70952 0.28837 0.27593 0.0
H2055 H 0.74073 0.29278 0.28404 0.0
H2056 H 0.53946 0.83477 0.94424 0.0
H2057 H 0.53478 0.86148 0.96605 0.0
H2058 H 0.53259 0.89457 0.91803 0.0
H2059 H 0.53746 0.86788 0.89604 0.0
H2060 H 0.55437 0.91289 0.95207 0.0
H2061 H 0.49018 0.8818 0.96858 0.0
H2062 H 0.50616 0.86738 0.97257 0.0
H2063 H 0.49917 0.87202 0.94818 0.0
C2064 C 0.53792 0.84771 0.93828 0.0
C2065 C 0.53878 0.84927 0.91843 0.0
C2066 C 0.5351 0.86288 0.95073 0.0
C2067 C 0.53298 0.87979 0.94352 0.0
C2068 C 0.53402 0.8815 0.92377 0.0
H2069 H 0.52296 0.98969 0.99238 0.0
H2070 H 0.51917 0.95944 0.97189 0.0
C2071 C 0.53686 0.86631 0.91127 0.0
C2072 C 0.53071 0.89607 0.95691 0.0
H2073 H 0.5045 0.91084 0.98791 0.0
C2074 C 0.54343 0.91249 0.95983 0.0
C2075 C 0.51644 0.89537 0.96704 0.0
C2076 C 0.50212 0.87826 0.96385 0.0
C2077 C 0.54238 0.92823 0.97281 0.0
C2078 C 0.52813 0.92755 0.98293 0.0
C2079 C 0.5154 0.91116 0.98012 0.0
C2080 C 0.52621 0.94422 0.9959 0.0
C2081 C 0.55654 0.94552 0.9757 0.0
C2082 C 0.53046 0.9453 0.01629 0.0
C2083 C 0.53242 0.96264 0.02817 0.0
C2084 C 0.53026 0.97899 0.01964 0.0
C2085 C 0.52457 0.97737 0.9994 0.0
C2086 C 0.52249 0.9601 0.98763 0.0
H2087 H 0.56812 0.94247 0.96969 0.0
H2088 H 0.55181 0.95678 0.96809 0.0
H2089 H 0.56032 0.9511 0.9915 0.0
H2090 H 0.53338 0.93307 0.02283 0.0
H2091 H 0.53682 0.96351 0.04374 0.0
H2092 H 0.02156 0.74316 0.72202 0.0
H2093 H 0.99768 0.74207 0.74095 0.0
H2094 H 0.9676 0.76202 0.69398 0.0
H2095 H 0.99098 0.76262 0.67496 0.0
H2096 H 0.9856 0.77205 0.75423 0.0
H2097 H 0.93171 0.72231 0.70787 0.0
H2098 H 0.95368 0.7234 0.70382 0.0
H2099 H 0.94102 0.73939 0.69361 0.0
C2100 C 1.00965 0.74676 0.71554 0.0
C2101 C 1.00816 0.75301 0.69702 0.0
C2102 C 0.99605 0.7462 0.72638 0.0
C2103 C 0.98074 0.75173 0.7188 0.0
C2104 C 0.97905 0.75719 0.69997 0.0
H2105 H 0.91633 0.81633 0.77022 0.0
H2106 H 0.93967 0.803 0.75852 0.0
C2107 C 0.99254 0.75769 0.68915 0.0
C2108 C 0.96732 0.75414 0.73118 0.0
H2109 H 0.92378 0.74746 0.7291 0.0
C2110 C 0.9721 0.76631 0.74896 0.0
C2111 C 0.94972 0.7464 0.72458 0.0
C2112 C 0.94378 0.73198 0.70652 0.0
C2113 C 0.95969 0.77204 0.75955 0.0
C2114 C 0.94205 0.76584 0.75184 0.0
C2115 C 0.9373 0.75255 0.73485 0.0
C2116 C 0.92836 0.77392 0.76029 0.0
C2117 C 0.96567 0.78492 0.77869 0.0
C2118 C 0.91398 0.76201 0.76473 0.0
C2119 C 0.90037 0.76958 0.77095 0.0
C2120 C 0.90086 0.78925 0.77288 0.0
C2121 C 0.91544 0.80114 0.76876 0.0
C2122 C 0.92896 0.79354 0.76237 0.0
H2123 H 0.97826 0.78257 0.78591 0.0
H2124 H 0.96744 0.79986 0.7758 0.0
H2125 H 0.95621 0.78275 0.78895 0.0
H2126 H 0.91313 0.74681 0.76302 0.0
H2127 H 0.88921 0.75993 0.7736 0.0
H2128 H 0.11384 0.05635 0.84776 0.0
H2129 H 0.10197 0.05332 0.87814 0.0
H2130 H 0.15108 0.04604 0.90728 0.0
H2131 H 0.16312 0.04909 0.87687 0.0
H2132 H 0.10169 0.0199 0.89754 0.0
H2133 H 0.13549 0.08579 0.94597 0.0
H2134 H 0.13355 0.0837 0.91958 0.0
H2135 H 0.14847 0.07222 0.93321 0.0
C2136 C 0.12222 0.05442 0.86069 0.0
C2137 C 0.13941 0.05291 0.85989 0.0
C2138 C 0.1154 0.05266 0.87804 0.0
C2139 C 0.12566 0.04954 0.89497 0.0
C2140 C 0.143 0.04867 0.89444 0.0
H2141 H 0.08813 0.02333 1.00517 0.0
H2142 H 0.10771 0.02853 0.98087 0.0
C2143 C 0.14984 0.05037 0.87704 0.0
C2144 C 0.11773 0.04577 0.9126 0.0
H2145 H 0.11596 0.06443 0.95945 0.0
C2146 C 0.10492 0.02955 0.91113 0.0
C2147 C 0.12209 0.05831 0.93035 0.0
C2148 C 0.13558 0.07607 0.93249 0.0
C2149 C 0.09602 0.02578 0.92676 0.0
C2150 C 0.09988 0.03867 0.94423 0.0
C2151 C 0.11312 0.05455 0.94603 0.0
C2152 C 0.08892 0.03683 0.95973 0.0
C2153 C 0.08224 1.00822 0.92435 0.0
C2154 C 0.07212 0.04018 0.95598 0.0
C2155 C 0.06108 0.03731 0.96972 0.0
C2156 C 0.06658 0.03101 0.98751 0.0
C2157 C 0.08359 0.02819 0.99158 0.0
C2158 C 0.09474 0.03114 0.97775 0.0
H2159 H 0.08354 0.99766 0.91207 0.0
H2160 H 0.0827 1.00155 0.93803 0.0
H2161 H 0.06943 1.01216 0.92118 0.0
H2162 H 0.06746 0.04473 0.94223 0.0
H2163 H 0.04809 0.03976 0.96622 0.0
H2164 H 0.7738 0.3914 0.56213 0.0
H2165 H 0.791 0.39543 0.59474 0.0
H2166 H 0.80766 0.34282 0.58018 0.0
H2167 H 0.79079 0.33871 0.54766 0.0
H2168 H 0.78664 0.37147 0.62187 0.0
H2169 H 0.85269 0.37728 0.6055 0.0
H2170 H 0.83513 0.38129 0.58812 0.0
H2171 H 0.83877 0.35763 0.59009 0.0
C2172 C 0.78122 0.38073 0.56582 0.0
C2173 C 0.78089 0.36469 0.55226 0.0
C2174 C 0.79113 0.38317 0.58439 0.0
C2175 C 0.80099 0.36972 0.58963 0.0
C2176 C 0.80062 0.3537 0.57618 0.0
H2177 H 0.8277 0.30378 0.66498 0.0
H2178 H 0.82819 0.32578 0.6409 0.0
C2179 C 0.79074 0.35123 0.55767 0.0
C2180 C 0.80999 0.37088 0.60983 0.0
H2181 H 0.84688 0.36176 0.63443 0.0
C2182 C 0.8 0.37007 0.62492 0.0
C2183 C 0.82747 0.36936 0.61375 0.0
C2184 C 0.83916 0.37166 0.5985 0.0
C2185 C 0.80639 0.36529 0.64311 0.0
C2186 C 0.82328 0.36153 0.64623 0.0
C2187 C 0.8339 0.36453 0.63192 0.0
C2188 C 0.82834 0.35029 0.66176 0.0
C2189 C 0.79438 0.36229 0.65801 0.0
C2190 C 0.82938 0.35708 0.68163 0.0
C2191 C 0.82908 0.34445 0.6955 0.0
C2192 C 0.82779 0.32498 0.68958 0.0
C2193 C 0.82872 0.31868 0.67001 0.0
C2194 C 0.829 0.33126 0.65621 0.0
H2195 H 0.78125 0.3645 0.65257 0.0
H2196 H 0.79338 0.34771 0.66193 0.0
H2197 H 0.79955 0.37235 0.67155 0.0
H2198 H 0.82917 0.37181 0.68619 0.0
H2199 H 0.82875 0.34972 0.71061 0.0
H2200 H 0.46491 0.04827 0.31843 0.0
H2201 H 0.48067 0.04554 0.35053 0.0
H2202 H 0.43483 0.04733 0.37628 0.0
H2203 H 0.419 0.04999 0.34409 0.0
H2204 H 0.48904 0.06842 0.38498 0.0
H2205 H 0.44877 1.00288 0.39983 0.0
H2206 H 0.44668 1.01082 0.37603 0.0
H2207 H 0.43702 0.02138 0.3953 0.0
C2208 C 0.45805 0.04797 0.33084 0.0
C2209 C 0.44045 0.04929 0.32822 0.0
C2210 C 0.46719 0.04643 0.34944 0.0
C2211 C 0.45918 0.04586 0.36638 0.0
C2212 C 0.44156 0.04721 0.36378 0.0
H2213 H 0.50132 0.03591 0.49212 0.0
H2214 H 0.48216 0.03879 0.46187 0.0
C2215 C 0.43242 0.0489 0.34516 0.0
C2216 C 0.46942 0.04448 0.38652 0.0
H2217 H 0.47065 0.01875 0.42567 0.0
C2218 C 0.48491 0.05746 0.39372 0.0
C2219 C 0.46437 0.03043 0.39862 0.0
C2220 C 0.4484 0.01546 0.39204 0.0
C2221 C 0.4951 0.05695 0.41211 0.0
C2222 C 0.49033 0.04262 0.42402 0.0
C2223 C 0.47468 0.02979 0.41698 0.0
C2224 C 0.50178 0.04032 0.44307 0.0
C2225 C 0.51078 0.07234 0.41875 0.0
C2226 C 0.51933 0.03967 0.44324 0.0
C2227 C 0.53026 0.03811 0.46054 0.0
C2228 C 0.52431 0.03679 0.47871 0.0
C2229 C 0.50661 0.03689 0.47865 0.0
C2230 C 0.49557 0.03856 0.46115 0.0
H2231 H 0.50929 0.08546 0.41227 0.0
H2232 H 0.51336 0.07586 0.43495 0.0
H2233 H 0.52213 0.06755 0.41377 0.0
H2234 H 0.52474 0.04024 0.42981 0.0
H2235 H 0.54363 0.03789 0.45956 0.0
H2236 H 0.78754 0.66494 0.07206 0.0
H2237 H 0.79316 0.67645 0.10741 0.0
H2238 H 0.77553 0.72776 0.09579 0.0
H2239 H 0.77024 0.71677 0.06097 0.0
H2240 H 0.80524 0.73494 0.12179 0.0
H2241 H 0.75708 0.67929 0.14378 0.0
H2242 H 0.77296 0.67098 0.13089 0.0
H2243 H 0.75756 0.68279 0.11852 0.0
C2244 C 0.78493 0.67869 0.07706 0.0
C2245 C 0.77834 0.68982 0.06354 0.0
C2246 C 0.78803 0.6852 0.09729 0.0
C2247 C 0.78456 0.7029 0.10431 0.0
C2248 C 0.77829 0.71406 0.0908 0.0
H2249 H 0.76558 0.75109 0.21669 0.0
H2250 H 0.76428 0.73632 0.18299 0.0
C2251 C 0.77522 0.70765 0.07077 0.0
C2252 C 0.78738 0.71022 0.12562 0.0
H2253 H 0.77287 0.70286 0.1688 0.0
C2254 C 0.79828 0.72783 0.13212 0.0
C2255 C 0.77809 0.70111 0.13903 0.0
C2256 C 0.76564 0.68257 0.13277 0.0
C2257 C 0.79992 0.73673 0.15146 0.0
C2258 C 0.7907 0.72759 0.16491 0.0
C2259 C 0.77999 0.70984 0.15852 0.0
C2260 C 0.79159 0.7365 0.18549 0.0
C2261 C 0.81099 0.7562 0.15705 0.0
C2262 C 0.80735 0.74145 0.19821 0.0
C2263 C 0.80817 0.75007 0.21743 0.0
C2264 C 0.79319 0.75374 0.22448 0.0
C2265 C 0.77738 0.74858 0.21177 0.0
C2266 C 0.7766 0.74004 0.1925 0.0
H2267 H 0.81338 0.76322 0.14396 0.0
H2268 H 0.80493 0.7654 0.16671 0.0
H2269 H 0.82363 0.75496 0.1651 0.0
H2270 H 0.81904 0.73851 0.19333 0.0
H2271 H 0.82055 0.75362 0.22681 0.0
H2272 H 0.09531 0.04888 0.75874 0.0
H2273 H 0.08449 0.04387 0.72367 0.0
H2274 H 0.13621 0.046 0.71129 0.0
H2275 H 0.14703 0.05016 0.74648 0.0
H2276 H 0.09013 0.06649 0.69792 0.0
H2277 H 0.11218 1.00051 0.67415 0.0
H2278 H 0.11306 1.00921 0.69964 0.0
H2279 H 0.12954 0.01891 0.68627 0.0
C2280 C 0.10437 0.04806 0.74855 0.0
C2281 C 0.12203 0.0499 0.75538 0.0
C2282 C 0.09817 0.0452 0.72848 0.0
C2283 C 0.10947 0.04434 0.71474 0.0
C2284 C 0.12714 0.04609 0.72152 0.0
H2285 H 0.0784 0.06504 0.59444 0.0
H2286 H 0.09179 0.06777 0.62866 0.0
C2287 C 0.13333 0.04859 0.74166 0.0
C2288 C 0.10273 0.04273 0.69345 0.0
H2289 H 0.10139 0.01705 0.64885 0.0
C2290 C 0.09255 0.05561 0.68722 0.0
C2291 C 0.10571 0.02842 0.67945 0.0
C2292 C 0.11557 1.01336 0.68523 0.0
C2293 C 0.08521 0.05458 0.66752 0.0
C2294 C 0.08869 0.04072 0.65341 0.0
C2295 C 0.09888 0.02782 0.65961 0.0
C2296 C 0.08134 0.03891 0.6323 0.0
C2297 C 0.07332 0.06798 0.66223 0.0
C2298 C 0.07163 0.02157 0.62262 0.0
C2299 C 0.06426 0.01986 0.60294 0.0
C2300 C 0.06632 0.03553 0.59254 0.0
C2301 C 0.07631 0.0528 0.60213 0.0
C2302 C 0.08391 0.0544 0.62174 0.0
H2303 H 0.06798 0.0735 0.67516 0.0
H2304 H 0.08062 0.08026 0.65673 0.0
H2305 H 0.06245 0.06097 0.65064 0.0
H2306 H 0.06954 1.00937 0.63039 0.0
H2307 H 0.05672 1.00632 0.59599 0.0
H2308 H 0.7351 0.32411 0.46513 0.0
H2309 H 0.74195 0.30924 0.43464 0.0
H2310 H 0.74248 0.36145 0.41 0.0
H2311 H 0.73557 0.3765 0.44046 0.0
H2312 H 0.72665 0.31413 0.38639 0.0
H2313 H 0.79438 0.34203 0.4227 0.0
H2314 H 0.77788 0.33436 0.43701 0.0
H2315 H 0.77773 0.35552 0.42588 0.0
C2316 C 0.7361 0.33225 0.45299 0.0
C2317 C 0.735 0.3515 0.45519 0.0
C2318 C 0.73999 0.32373 0.43562 0.0
C2319 C 0.7428 0.33436 0.4203 0.0
C2320 C 0.74026 0.3531 0.42177 0.0
H2321 H 0.79936 0.31738 0.32481 0.0
H2322 H 0.78608 0.33035 0.35161 0.0
C2323 C 0.73628 0.36163 0.43913 0.0
C2324 C 0.7509 0.32678 0.40422 0.0
H2325 H 0.79025 0.3237 0.39181 0.0
C2326 C 0.74053 0.3162 0.38746 0.0
C2327 C 0.769 0.32967 0.40587 0.0
C2328 C 0.78052 0.341 0.42378 0.0
C2329 C 0.74792 0.30831 0.37211 0.0
C2330 C 0.76604 0.3109 0.37391 0.0
C2331 C 0.77637 0.32167 0.39063 0.0
C2332 C 0.77456 0.30295 0.35833 0.0
C2333 C 0.73635 0.29753 0.35398 0.0
C2334 C 0.77287 0.2833 0.35371 0.0
C2335 C 0.78047 0.27594 0.3384 0.0
C2336 C 0.78975 0.28817 0.32756 0.0
C2337 C 0.79193 0.30776 0.33267 0.0
C2338 C 0.78446 0.31514 0.34803 0.0
H2339 H 0.72302 0.30025 0.35315 0.0
H2340 H 0.74145 0.30138 0.34055 0.0
H2341 H 0.73582 0.28214 0.35419 0.0
H2342 H 0.76549 0.27372 0.36176 0.0
H2343 H 0.77859 0.26073 0.33458 0.0
H2344 H 0.42052 0.03942 0.20315 0.0
H2345 H 0.43261 0.0371 0.17209 0.0
H2346 H 0.48374 0.05362 0.20468 0.0
H2347 H 0.47195 0.05587 0.23517 0.0
H2348 H 0.45442 0.06057 0.15133 0.0
H2349 H 0.48926 1.00519 0.17423 0.0
H2350 H 0.47308 1.01271 0.18731 0.0
H2351 H 0.49467 0.02627 0.19163 0.0
C2352 C 0.43432 0.04302 0.20374 0.0
C2353 C 0.44504 0.04799 0.22224 0.0
C2354 C 0.44136 0.04148 0.18577 0.0
C2355 C 0.45941 0.04461 0.18546 0.0
C2356 C 0.4699 0.05045 0.20387 0.0
H2357 H 0.53544 0.03673 0.10347 0.0
H2358 H 0.51952 0.0398 0.13097 0.0
C2359 C 0.46297 0.05198 0.2216 0.0
C2360 C 0.46754 0.04158 0.1665 0.0
H2361 H 0.49744 0.01924 0.14669 0.0
C2362 C 0.46368 0.05134 0.15036 0.0
C2363 C 0.47989 0.02967 0.16453 0.0
C2364 C 0.48437 0.01771 0.18024 0.0
C2365 C 0.47199 0.05014 0.13328 0.0
C2366 C 0.48452 0.03837 0.13143 0.0
C2367 C 0.48812 0.02841 0.14749 0.0
C2368 C 0.49434 0.03648 0.11357 0.0
C2369 C 0.46769 0.06232 0.11775 0.0
C2370 C 0.48609 0.03323 0.09373 0.0
C2371 C 0.4954 0.03151 0.07762 0.0
C2372 C 0.51348 0.0327 0.0804 0.0
C2373 C 0.52164 0.03564 0.10021 0.0
C2374 C 0.51237 0.03742 0.11626 0.0
H2375 H 0.46243 0.07457 0.12375 0.0
H2376 H 0.47918 0.06777 0.1112 0.0
H2377 H 0.45773 0.05378 0.10598 0.0
H2378 H 0.47226 0.03172 0.09053 0.0
H2379 H 0.48831 0.02917 0.06288 0.0
H2380 H 0.77781 0.65357 0.94017 0.0
H2381 H 0.78031 0.67081 0.91172 0.0
H2382 H 0.76988 0.72031 0.94467 0.0
H2383 H 0.76755 0.70336 0.97303 0.0
H2384 H 0.75795 0.6905 0.88941 0.0
H2385 H 0.81682 0.73928 0.92871 0.0
H2386 H 0.80804 0.71763 0.93744 0.0
H2387 H 0.79863 0.73827 0.94144 0.0
C2388 C 0.77584 0.66805 0.94125 0.0
C2389 C 0.77262 0.6771 0.95897 0.0
C2390 C 0.77729 0.67791 0.92498 0.0
C2391 C 0.77561 0.69701 0.92612 0.0
C2392 C 0.77158 0.70573 0.94349 0.0
H2393 H 0.77057 0.76757 0.82989 0.0
H2394 H 0.76321 0.74864 0.85603 0.0
C2395 C 0.77016 0.69594 0.95971 0.0
C2396 C 0.77882 0.70815 0.9096 0.0
H2397 H 0.80503 0.74661 0.89801 0.0
C2398 C 0.76825 0.70276 0.89127 0.0
C2399 C 0.79237 0.72407 0.9119 0.0
C2400 C 0.80473 0.7301 0.93086 0.0
C2401 C 0.77075 0.71296 0.87533 0.0
C2402 C 0.78407 0.72913 0.8778 0.0
C2403 C 0.7947 0.73437 0.89609 0.0
C2404 C 0.78797 0.74023 0.86141 0.0
C2405 C 0.75937 0.70607 0.85585 0.0
C2406 C 0.80437 0.74216 0.85587 0.0
C2407 C 0.80858 0.75298 0.84109 0.0
C2408 C 0.79652 0.76225 0.8314 0.0
C2409 C 0.78007 0.76042 0.8369 0.0
C2410 C 0.77584 0.74952 0.8518 0.0
H2411 H 0.75255 0.69121 0.85508 0.0
H2412 H 0.74954 0.71508 0.85371 0.0
H2413 H 0.76697 0.70703 0.84363 0.0
H2414 H 0.814 0.73523 0.86302 0.0
H2415 H 0.82136 0.75406 0.83721 0.0
H2416 H 0.86127 0.13432 0.05777 0.0
H2417 H 0.87969 0.11146 0.05122 0.0
H2418 H 0.90129 0.14492 0.0096 0.0
H2419 H 0.88327 0.16802 0.0164 0.0
H2420 H 0.87649 0.0914 0.01508 0.0
H2421 H 0.94363 0.13028 0.03793 0.0
H2422 H 0.92548 0.13898 0.04584 0.0
H2423 H 0.93085 0.14214 0.02193 0.0
C2424 C 0.87031 0.13708 0.04765 0.0
C2425 C 0.87076 0.15288 0.0375 0.0
C2426 C 0.88077 0.12399 0.04388 0.0
C2427 C 0.89186 0.12652 0.02996 0.0
C2428 C 0.89306 0.14286 0.02065 0.0
H2429 H 0.94996 0.05279 0.97129 0.0
H2430 H 0.93265 0.07681 0.97824 0.0
C2431 C 0.88268 0.15602 0.02451 0.0
C2432 C 0.90058 0.1111 0.02348 0.0
H2433 H 0.93974 0.10065 0.01757 0.0
C2434 C 0.89034 0.09339 0.01575 0.0
C2435 C 0.91861 0.11381 0.02421 0.0
C2436 C 0.93031 0.13228 0.0331 0.0
C2437 C 0.89765 0.07831 0.00863 0.0
C2438 C 0.91563 0.08105 0.00931 0.0
C2439 C 0.9259 0.09875 0.0169 0.0
C2440 C 0.9242 0.06535 1.00354 0.0
C2441 C 0.88613 0.05959 1.0003 0.0
C2442 C 0.92481 0.05086 0.01527 0.0
C2443 C 0.9348 0.03731 0.01153 0.0
C2444 C 0.94435 0.03798 0.99593 0.0
C2445 C 0.94292 0.05198 0.98354 0.0
C2446 C 0.93303 0.06567 0.98743 0.0
H2447 H 0.87244 0.06092 0.997 0.0
H2448 H 0.8902 0.05355 0.9867 0.0
H2449 H 0.88715 0.04946 0.01112 0.0
H2450 H 0.91824 0.05059 0.02793 0.0
H2451 H 0.93585 0.02707 0.02168 0.0
H2452 H 0.37593 0.40129 0.02545 0.0
H2453 H 0.40353 0.42186 0.02596 0.0
H2454 H 0.3894 0.46442 0.06553 0.0
H2455 H 0.36136 0.44372 0.0651 0.0
H2456 H 0.41029 0.45979 0.01559 0.0
H2457 H 0.43717 0.45602 0.09291 0.0
H2458 H 0.41896 0.439 0.07961 0.0
H2459 H 0.41631 0.46234 0.08849 0.0
C2460 C 0.37857 0.415 0.03435 0.0
C2461 C 0.36632 0.4207 0.04538 0.0
C2462 C 0.39444 0.4268 0.03455 0.0
C2463 C 0.39871 0.44463 0.04593 0.0
C2464 C 0.38651 0.45061 0.05681 0.0
H2465 H 0.49618 0.52642 0.06743 0.0
H2466 H 0.46734 0.50875 0.06834 0.0
C2467 C 0.37043 0.4388 0.05648 0.0
C2468 C 0.41596 0.45672 0.0461 0.0
H2469 H 0.45502 0.47408 0.07474 0.0
C2470 C 0.42005 0.46301 0.02856 0.0
C2471 C 0.42873 0.46094 0.06298 0.0
C2472 C 0.42523 0.45417 0.08209 0.0
C2473 C 0.43644 0.47342 0.02744 0.0
C2474 C 0.44942 0.47722 0.04419 0.0
C2475 C 0.44522 0.47115 0.06183 0.0
C2476 C 0.46733 0.48763 0.04381 0.0
C2477 C 0.43949 0.48059 0.00836 0.0
C2478 C 0.47731 0.48154 0.03002 0.0
C2479 C 0.49382 0.49178 0.02936 0.0
C2480 C 0.50087 0.5082 0.04268 0.0
C2481 C 0.49114 0.51388 0.05689 0.0
C2482 C 0.4746 0.50375 0.05744 0.0
H2483 H 0.42723 0.48172 0.99931 0.0
H2484 H 0.44813 0.49467 0.01091 0.0
H2485 H 0.44556 0.47049 0.9998 0.0
H2486 H 0.47234 0.46885 0.0197 0.0
H2487 H 0.50099 0.48694 0.0183 0.0
H2488 H 0.39523 0.5386 0.73408 0.0
H2489 H 0.38083 0.56573 0.73353 0.0
H2490 H 0.42759 0.60252 0.76313 0.0
H2491 H 0.44219 0.57546 0.76351 0.0
H2492 H 0.37674 0.58788 0.76732 0.0
H2493 H 0.41155 0.63193 0.71907 0.0
H2494 H 0.41259 0.60726 0.71956 0.0
H2495 H 0.42497 0.62486 0.73877 0.0
C2496 C 0.40256 0.55251 0.74015 0.0
C2497 C 0.41985 0.55488 0.74885 0.0
C2498 C 0.39429 0.56799 0.73986 0.0
C2499 C 0.40316 0.58616 0.74816 0.0
C2500 C 0.42058 0.58869 0.75632 0.0
H2501 H 0.36628 0.69249 0.76943 0.0
H2502 H 0.38425 0.66825 0.76829 0.0
C2503 C 0.42889 0.57319 0.75659 0.0
C2504 C 0.39373 0.60205 0.74967 0.0
H2505 H 0.39144 0.64538 0.73542 0.0
C2506 C 0.37993 0.60043 0.7603 0.0
C2507 C 0.39805 0.6185 0.7407 0.0
C2508 C 0.41251 0.62077 0.72874 0.0
C2509 C 0.37028 0.61478 0.76216 0.0
C2510 C 0.37433 0.63104 0.75282 0.0
C2511 C 0.38835 0.63286 0.74251 0.0
C2512 C 0.36371 0.6459 0.75303 0.0
C2513 C 0.35592 0.61247 0.77427 0.0
C2514 C 0.34633 0.64142 0.74454 0.0
C2515 C 0.33604 0.65513 0.74528 0.0
C2516 C 0.34296 0.67371 0.75437 0.0
C2517 C 0.36051 0.67827 0.76252 0.0
C2518 C 0.37081 0.66449 0.76178 0.0
H2519 H 0.35756 0.60209 0.78473 0.0
H2520 H 0.3552 0.62618 0.78265 0.0
H2521 H 0.34349 0.60719 0.7644 0.0
H2522 H 0.34066 0.62723 0.73746 0.0
H2523 H 0.32256 0.65104 0.73907 0.0
H2524 H 0.26326 0.70054 0.53105 0.0
H2525 H 0.23381 0.68622 0.53434 0.0
H2526 H 0.2531 0.64317 0.56424 0.0
H2527 H 0.28233 0.65719 0.56106 0.0
H2528 H 0.21726 0.64806 0.51933 0.0
H2529 H 0.22083 0.66259 0.59982 0.0
H2530 H 0.23599 0.67545 0.58664 0.0
H2531 H 0.23843 0.65244 0.5928 0.0
C2532 C 0.26122 0.68814 0.5385 0.0
C2533 C 0.27514 0.67998 0.54573 0.0
C2534 C 0.24442 0.68001 0.54035 0.0
C2535 C 0.24138 0.66382 0.54974 0.0
C2536 C 0.25525 0.65588 0.55727 0.0
H2537 H 0.16071 0.56927 0.54242 0.0
H2538 H 0.18534 0.5929 0.53815 0.0
C2539 C 0.27195 0.66388 0.55533 0.0
C2540 C 0.22373 0.65428 0.55075 0.0
H2541 H 0.1985 0.63713 0.58307 0.0
C2542 C 0.21297 0.64594 0.53323 0.0
C2543 C 0.21817 0.65174 0.5689 0.0
C2544 C 0.2289 0.66119 0.58811 0.0
C2545 C 0.19712 0.63416 0.53344 0.0
C2546 C 0.19214 0.63053 0.55165 0.0
C2547 C 0.20247 0.63977 0.56912 0.0
C2548 C 0.17671 0.61652 0.55302 0.0
C2549 C 0.186 0.62549 0.51421 0.0
C2550 C 0.16392 0.62195 0.5631 0.0
C2551 C 0.14996 0.60849 0.5657 0.0
C2552 C 0.14861 0.58934 0.55833 0.0
C2553 C 0.16135 0.58395 0.54807 0.0
C2554 C 0.17536 0.59744 0.54553 0.0
H2555 H 0.18891 0.63398 0.50225 0.0
H2556 H 0.18855 0.61112 0.51011 0.0
H2557 H 0.17213 0.62421 0.51533 0.0
H2558 H 0.16481 0.63661 0.56906 0.0
H2559 H 0.14018 0.61308 0.57341 0.0
H2560 H 0.6716 0.93769 0.797 0.0
H2561 H 0.68648 0.91059 0.7959 0.0
H2562 H 0.73284 0.94726 0.7882 0.0
H2563 H 0.71809 0.97428 0.78961 0.0
H2564 H 0.70091 0.89061 0.77112 0.0
H2565 H 0.75534 0.92236 0.82931 0.0
H2566 H 0.73696 0.9334 0.82435 0.0
H2567 H 0.75391 0.93638 0.80962 0.0
C2568 C 0.685 0.94015 0.79513 0.0
C2569 C 0.69335 0.95878 0.79352 0.0
C2570 C 0.69367 0.92435 0.79447 0.0
C2571 C 0.71133 0.92617 0.79241 0.0
C2572 C 0.71955 0.94478 0.79047 0.0
H2573 H 0.78803 0.84784 0.78612 0.0
H2574 H 0.77276 0.87454 0.78717 0.0
C2575 C 0.71089 0.96053 0.79107 0.0
C2576 C 0.72084 0.90888 0.79195 0.0
H2577 H 0.75799 0.89387 0.81064 0.0
C2578 C 0.71335 0.89151 0.77996 0.0
C2579 C 0.73731 0.90912 0.80319 0.0
C2580 C 0.7463 0.92622 0.81749 0.0
C2581 C 0.72162 0.87534 0.7785 0.0
C2582 C 0.73809 0.87558 0.78976 0.0
C2583 C 0.74555 0.89295 0.80178 0.0
C2584 C 0.74775 0.85838 0.78921 0.0
C2585 C 0.71267 0.85833 0.76407 0.0
C2586 C 0.73957 0.83952 0.79033 0.0
C2587 C 0.74845 0.82392 0.78964 0.0
C2588 C 0.76621 0.82613 0.78806 0.0
C2589 C 0.77449 0.84501 0.78733 0.0
C2590 C 0.76558 0.8606 0.78796 0.0
H2591 H 0.70371 0.86229 0.75224 0.0
H2592 H 0.72203 0.85117 0.75723 0.0
H2593 H 0.70495 0.84814 0.77181 0.0
H2594 H 0.72615 0.83669 0.79202 0.0
H2595 H 0.74127 0.80997 0.79042 0.0
H2596 H 0.78471 0.95144 0.56948 0.0
H2597 H 0.75909 0.96591 0.56903 0.0
H2598 H 0.72744 0.91319 0.54047 0.0
H2599 H 0.75281 0.89858 0.5414 0.0
H2600 H 0.73719 0.97197 0.53885 0.0
H2601 H 0.69988 0.92527 0.58236 0.0
H2602 H 0.72225 0.92514 0.58109 0.0
H2603 H 0.70576 0.91225 0.56172 0.0
C2604 C 0.77225 0.94284 0.56339 0.0
C2605 C 0.77087 0.92376 0.55566 0.0
C2606 C 0.75758 0.95117 0.56306 0.0
C2607 C 0.74114 0.94063 0.55503 0.0
C2608 C 0.73978 0.92157 0.54729 0.0
H2609 H 0.63878 0.96745 0.52586 0.0
H2610 H 0.66399 0.95239 0.52976 0.0
C2611 C 0.7544 0.91323 0.54773 0.0
C2612 C 0.72558 0.94977 0.55385 0.0
H2613 H 0.68455 0.94525 0.5646 0.0
C2614 C 0.72576 0.96618 0.54466 0.0
C2615 C 0.71051 0.94229 0.56133 0.0
C2616 C 0.70961 0.92538 0.57235 0.0
C2617 C 0.71134 0.97502 0.54241 0.0
C2618 C 0.69626 0.96744 0.54971 0.0
C2619 C 0.69605 0.95106 0.55892 0.0
C2620 C 0.68066 0.9764 0.54801 0.0
C2621 C 0.71223 0.99219 0.53178 0.0
C2622 C 0.6814 0.99479 0.55734 0.0
C2623 C 0.66692 1.00339 0.55533 0.0
C2624 C 0.65125 0.99388 0.54389 0.0
C2625 C 0.65046 0.97524 0.53495 0.0
C2626 C 0.66495 0.96661 0.53706 0.0
H2627 H 0.72296 0.99356 0.52308 0.0
H2628 H 0.69999 0.99158 0.52182 0.0
H2629 H 0.71434 1.00509 0.54265 0.0
H2630 H 0.69321 1.00252 0.56624 0.0
H2631 H 0.66805 0.01755 0.56285 0.0
H2632 H 0.43473 0.43281 0.76718 0.0
H2633 H 0.41155 0.40573 0.76655 0.0
H2634 H 0.37393 0.4404 0.75314 0.0
H2635 H 0.39698 0.46761 0.75365 0.0
H2636 H 0.36964 0.41826 0.7859 0.0
H2637 H 0.37722 0.37536 0.71743 0.0
H2638 H 0.39666 0.38482 0.73442 0.0
H2639 H 0.38502 0.40063 0.72254 0.0
C2640 C 0.42154 0.4347 0.76394 0.0
C2641 C 0.41776 0.45244 0.76042 0.0
C2642 C 0.40831 0.41916 0.76351 0.0
C2643 C 0.39105 0.42103 0.75961 0.0
C2644 C 0.38719 0.43865 0.75607 0.0
H2645 H 0.30163 0.3282 0.74089 0.0
H2646 H 0.32262 0.3563 0.73736 0.0
C2647 C 0.4004 0.45418 0.75635 0.0
C2648 C 0.37705 0.40479 0.76009 0.0
H2649 H 0.35849 0.36039 0.73726 0.0
C2650 C 0.36711 0.40565 0.77521 0.0
C2651 C 0.37369 0.38847 0.746 0.0
C2652 C 0.38359 0.3872 0.72905 0.0
C2653 C 0.35419 0.39036 0.77694 0.0
C2654 C 0.35125 0.37372 0.76327 0.0
C2655 C 0.36085 0.3731 0.7478 0.0
C2656 C 0.33862 0.35664 0.76518 0.0
C2657 C 0.34377 0.39219 0.79337 0.0
C2658 C 0.3408 0.3474 0.78182 0.0
C2659 C 0.32886 0.33148 0.78386 0.0
C2660 C 0.31461 0.32433 0.76919 0.0
C2661 C 0.31251 0.33343 0.7524 0.0
C2662 C 0.32449 0.34942 0.75037 0.0
H2663 H 0.34423 0.40725 0.79903 0.0
H2664 H 0.33012 0.38518 0.78851 0.0
H2665 H 0.34913 0.38527 0.80566 0.0
H2666 H 0.35175 0.35251 0.79327 0.0
H2667 H 0.33071 0.32491 0.79707 0.0
H2668 H 0.17761 0.58569 0.32153 0.0
H2669 H 0.19537 0.61624 0.31918 0.0
H2670 H 0.22446 0.58836 0.28141 0.0
H2671 H 0.20676 0.55742 0.28402 0.0
H2672 H 0.2327 0.63041 0.32841 0.0
H2673 H 0.20875 0.63043 0.24964 0.0
H2674 H 0.19736 0.61518 0.2645 0.0
H2675 H 0.21652 0.60974 0.25635 0.0
C2676 C 0.1879 0.58585 0.31286 0.0
C2677 C 0.19057 0.56863 0.3031 0.0
C2678 C 0.19814 0.60357 0.31148 0.0
C2679 C 0.21136 0.60514 0.29989 0.0
C2680 C 0.21433 0.58796 0.29032 0.0
H2681 H 0.27342 0.70766 0.26398 0.0
H2682 H 0.25887 0.67556 0.26695 0.0
C2683 C 0.20423 0.57007 0.292 0.0
C2684 C 0.22173 0.62467 0.29793 0.0
H2685 H 0.22927 0.65681 0.26541 0.0
C2686 C 0.23194 0.63609 0.31457 0.0
C2687 C 0.22111 0.63252 0.28 0.0
C2688 C 0.21029 0.62149 0.26155 0.0
C2689 C 0.2415 0.65451 0.31377 0.0
C2690 C 0.24048 0.66272 0.29593 0.0
C2691 C 0.23032 0.65114 0.27924 0.0
C2692 C 0.24974 0.68298 0.2942 0.0
C2693 C 0.25317 0.66454 0.33216 0.0
C2694 C 0.24968 0.69876 0.30814 0.0
C2695 C 0.25844 0.71726 0.30665 0.0
C2696 C 0.26729 0.72117 0.2908 0.0
C2697 C 0.26692 0.70557 0.2765 0.0
C2698 C 0.25843 0.68696 0.2782 0.0
H2699 H 0.25735 0.6543 0.34172 0.0
H2700 H 0.26482 0.67357 0.32877 0.0
H2701 H 0.24605 0.67353 0.34065 0.0
H2702 H 0.24264 0.69693 0.32025 0.0
H2703 H 0.25798 0.72865 0.31788 0.0
H2704 H 0.5271 0.72823 0.48108 0.0
H2705 H 0.53101 0.69806 0.49143 0.0
H2706 H 0.52452 0.67324 0.431 0.0
H2707 H 0.52115 0.70394 0.42044 0.0
H2708 H 0.50963 0.66598 0.48664 0.0
H2709 H 0.56628 0.65404 0.45241 0.0
H2710 H 0.55911 0.67636 0.45353 0.0
H2711 H 0.54838 0.65695 0.43519 0.0
C2712 C 0.52662 0.71645 0.46988 0.0
C2713 C 0.52376 0.71861 0.44986 0.0
C2714 C 0.52885 0.69909 0.47588 0.0
C2715 C 0.52819 0.68321 0.4621 0.0
C2716 C 0.52547 0.68528 0.44202 0.0
H2717 H 0.51392 0.57027 0.50203 0.0
H2718 H 0.50927 0.59835 0.48684 0.0
C2719 C 0.52345 0.70285 0.43596 0.0
C2720 C 0.52975 0.66458 0.46912 0.0
H2721 H 0.55303 0.62909 0.4679 0.0
C2722 C 0.51913 0.65793 0.48249 0.0
C2723 C 0.54225 0.65404 0.46398 0.0
C2724 C 0.55477 0.66076 0.45065 0.0
C2725 C 0.52078 0.64141 0.49101 0.0
C2726 C 0.53303 0.63064 0.48557 0.0
C2727 C 0.54353 0.63715 0.47203 0.0
C2728 C 0.53574 0.61314 0.49441 0.0
C2729 C 0.50983 0.63617 0.5064 0.0
C2730 C 0.55224 0.6116 0.50324 0.0
C2731 C 0.55499 0.59538 0.51162 0.0
C2732 C 0.54127 0.58025 0.51153 0.0
C2733 C 0.52474 0.58173 0.50264 0.0
C2734 C 0.52205 0.59788 0.494 0.0
H2735 H 0.50507 0.64855 0.51299 0.0
H2736 H 0.49845 0.62528 0.49953 0.0
H2737 H 0.51709 0.63034 0.51833 0.0
H2738 H 0.56307 0.62305 0.50379 0.0
H2739 H 0.5679 0.59478 0.51827 0.0
H2740 H 0.64276 0.30687 0.64514 0.0
H2741 H 0.66873 0.30384 0.66615 0.0
H2742 H 0.64037 0.29721 0.71433 0.0
H2743 H 0.61392 0.2996 0.693 0.0
H2744 H 0.68675 0.32426 0.69749 0.0
H2745 H 0.66407 0.25293 0.71689 0.0
H2746 H 0.65198 0.26292 0.69817 0.0
H2747 H 0.65105 0.26966 0.72365 0.0
C2748 C 0.6419 0.30478 0.6602 0.0
C2749 C 0.62605 0.30344 0.66725 0.0
C2750 C 0.65689 0.30302 0.67227 0.0
C2751 C 0.65664 0.29994 0.69184 0.0
C2752 C 0.64094 0.29905 0.69916 0.0
H2753 H 0.75024 0.31974 0.77782 0.0
H2754 H 0.72352 0.32142 0.75712 0.0
C2755 C 0.6258 0.30064 0.68698 0.0
C2756 C 0.67296 0.29813 0.7044 0.0
H2757 H 0.69132 0.26949 0.73369 0.0
C2758 C 0.68769 0.31223 0.70536 0.0
C2759 C 0.67447 0.2823 0.71446 0.0
C2760 C 0.65961 0.26599 0.71312 0.0
C2761 C 0.70365 0.31108 0.71609 0.0
C2762 C 0.705 0.29566 0.7268 0.0
C2763 C 0.69036 0.28141 0.72567 0.0
C2764 C 0.72136 0.29433 0.73953 0.0
C2765 C 0.71902 0.32625 0.71539 0.0
C2766 C 0.72901 0.27826 0.7371 0.0
C2767 C 0.74433 0.27715 0.74921 0.0
C2768 C 0.75228 0.29206 0.76404 0.0
C2769 C 0.74457 0.30805 0.76644 0.0
C2770 C 0.72928 0.30909 0.75449 0.0
H2771 H 0.7173 0.33318 0.70194 0.0
H2772 H 0.7206 0.33732 0.72819 0.0
H2773 H 0.731 0.3204 0.71587 0.0
H2774 H 0.72316 0.2666 0.72576 0.0
H2775 H 0.74987 0.2646 0.74705 0.0
H2776 H 0.02385 0.32876 0.91287 0.0
H2777 H 0.02403 0.36091 0.92812 0.0
H2778 H 0.02796 0.34206 0.98509 0.0
H2779 H 0.02717 0.30977 0.96985 0.0
H2780 H 1.00633 0.36605 0.9826 0.0
H2781 H 0.06583 0.39742 0.95615 0.0
H2782 H 0.04911 0.38594 0.93653 0.0
H2783 H 0.0583 0.37221 0.95383 0.0
C2784 C 0.02469 0.33145 0.92864 0.0
C2785 C 0.02564 0.31672 0.94015 0.0
C2786 C 0.02492 0.34989 0.93738 0.0
C2787 C 0.02645 0.3541 0.95785 0.0
C2788 C 0.0269 0.33927 0.96929 0.0
H2789 H 0.06111 0.46696 0.02258 0.0
H2790 H 0.0578 0.43404 0.00809 0.0
C2791 C 0.02647 0.32079 0.96055 0.0
C2792 C 0.02769 0.37391 0.96738 0.0
H2793 H 0.05071 0.41895 0.97123 0.0
C2794 C 0.01606 0.3776 0.98014 0.0
C2795 C 0.04057 0.38902 0.96451 0.0
C2796 C 0.05427 0.38595 0.95218 0.0
C2797 C 0.01685 0.3959 0.98989 0.0
C2798 C 0.02933 0.41113 0.98643 0.0
C2799 C 0.04102 0.40739 0.97379 0.0
C2800 C 0.03087 0.43096 0.99609 0.0
C2801 C 1.0046 0.39856 1.00423 0.0
C2802 C 0.01686 0.44036 0.99429 0.0
C2803 C 0.01866 0.4592 1.00284 0.0
C2804 C 0.03462 0.46919 0.01306 0.0
C2805 C 0.04863 0.45975 0.01482 0.0
C2806 C 0.04676 0.44088 1.00648 0.0
H2807 H 0.99968 0.38507 0.00962 0.0
H2808 H 1.01087 0.40916 0.01705 0.0
H2809 H 0.9934 0.40362 0.99682 0.0
H2810 H 1.00458 0.43328 0.98593 0.0
H2811 H 1.00766 0.46608 1.00099 0.0
H2812 H 0.03937 0.78235 0.19926 0.0
H2813 H 1.01322 0.77931 0.21446 0.0
H2814 H 0.98469 0.79118 0.16149 0.0
H2815 H 1.01075 0.79438 0.14629 0.0
H2816 H 0.97853 0.81208 0.19464 0.0
H2817 H 0.97128 0.73624 0.20448 0.0
H2818 H 0.99198 0.75022 0.21489 0.0
H2819 H 0.98535 0.74691 0.18879 0.0
C2820 C 0.02749 0.78414 0.19078 0.0
C2821 C 0.0272 0.78853 0.1715 0.0
C2822 C 1.0125 0.78232 0.19947 0.0
C2823 C 0.99685 0.78479 0.18909 0.0
C2824 C 0.99654 0.78914 0.16983 0.0
H2825 H 0.89386 0.75603 0.22009 0.0
H2826 H 0.91968 0.75819 0.20449 0.0
C2827 C 1.01149 0.79091 0.16112 0.0
C2828 C 0.98091 0.78348 0.19841 0.0
H2829 H 0.95282 0.75368 0.21948 0.0
C2830 C 0.97292 0.79929 0.20005 0.0
C2831 C 0.97338 0.76674 0.20528 0.0
C2832 C 0.98081 0.74898 0.20315 0.0
C2833 C 0.95785 0.79893 0.20859 0.0
C2834 C 0.95059 0.78237 0.21595 0.0
C2835 C 0.95842 0.76645 0.21403 0.0
C2836 C 0.9348 0.78122 0.22551 0.0
C2837 C 0.94966 0.81621 0.20932 0.0
C2838 C 0.93461 0.79332 0.24268 0.0
C2839 C 0.91987 0.79204 0.25175 0.0
C2840 C 0.90487 0.77856 0.24395 0.0
C2841 C 0.90514 0.76644 0.22673 0.0
C2842 C 0.91992 0.76771 0.21771 0.0
H2843 H 0.95408 0.82572 0.19873 0.0
H2844 H 0.93542 0.81217 0.20613 0.0
H2845 H 0.95325 0.82431 0.22424 0.0
H2846 H 0.946 0.8036 0.24927 0.0
H2847 H 0.92039 0.80136 0.26517 0.0
H2848 H 0.5802 0.30812 0.15869 0.0
H2849 H 0.58711 0.3397 0.14952 0.0
H2850 H 0.55682 0.36028 0.19104 0.0
H2851 H 0.55044 0.32854 0.20093 0.0
H2852 H 0.55862 0.35199 0.13297 0.0
H2853 H 0.59675 0.40586 0.19315 0.0
H2854 H 0.59672 0.38083 0.19264 0.0
H2855 H 0.57878 0.39038 0.19955 0.0
C2856 C 0.57548 0.31948 0.16634 0.0
C2857 C 0.5646 0.31594 0.18028 0.0
C2858 C 0.57953 0.33755 0.16118 0.0
C2859 C 0.57245 0.35229 0.16957 0.0
C2860 C 0.56265 0.34916 0.18464 0.0
H2861 H 0.53924 0.43593 0.10342 0.0
H2862 H 0.5435 0.41646 0.1297 0.0
C2863 C 0.5589 0.33103 0.19016 0.0
C2864 C 0.57228 0.36922 0.15953 0.0
H2865 H 0.58435 0.41733 0.16464 0.0
C2866 C 0.56436 0.36625 0.13989 0.0
C2867 C 0.57966 0.38776 0.16868 0.0
C2868 C 0.58859 0.3915 0.18963 0.0
C2869 C 0.56367 0.38129 0.12905 0.0
C2870 C 0.57085 0.39986 0.13819 0.0
C2871 C 0.57881 0.403 0.15783 0.0
C2872 C 0.57003 0.41585 0.12697 0.0
C2873 C 0.5553 0.37725 0.10781 0.0
C2874 C 0.58379 0.42243 0.1174 0.0
C2875 C 0.58136 0.43341 0.10228 0.0
C2876 C 0.5651 0.43775 0.09658 0.0
C2877 C 0.5518 0.43245 0.10734 0.0
C2878 C 0.55426 0.42158 0.12248 0.0
H2879 H 0.55245 0.36188 0.10229 0.0
H2880 H 0.54304 0.38256 0.10619 0.0
H2881 H 0.56373 0.38469 0.09847 0.0
H2882 H 0.59598 0.41788 0.12059 0.0
H2883 H 0.59181 0.43734 0.09419 0.0
H2884 H 0.96983 0.30405 0.3981 0.0
H2885 H 0.943 0.3046 0.37713 0.0
H2886 H 0.97102 0.31967 0.33041 0.0
H2887 H 0.99803 0.31854 0.35116 0.0
H2888 H 0.93122 0.33203 0.35919 0.0
H2889 H 0.93719 0.27282 0.30402 0.0
H2890 H 0.95127 0.279 0.32723 0.0
H2891 H 0.95437 0.29304 0.30773 0.0
C2892 C 0.97034 0.30757 0.38341 0.0
C2893 C 0.98604 0.31104 0.37622 0.0
C2894 C 0.95499 0.30791 0.37144 0.0
C2895 C 0.95502 0.31186 0.35213 0.0
C2896 C 0.9707 0.31613 0.34512 0.0
H2897 H 0.85421 0.32177 0.29006 0.0
H2898 H 0.88499 0.32943 0.30279 0.0
C2899 C 0.98611 0.31556 0.35703 0.0
C2900 C 0.93843 0.31089 0.33941 0.0
H2901 H 0.91197 0.28533 0.29924 0.0
C2902 C 0.92703 0.32197 0.34595 0.0
C2903 C 0.93306 0.29765 0.32223 0.0
C2904 C 0.94452 0.28482 0.31491 0.0
C2905 C 0.91008 0.31954 0.33634 0.0
C2906 C 0.90462 0.30609 0.31933 0.0
C2907 C 0.91627 0.29565 0.31225 0.0
C2908 C 0.88646 0.3013 0.30985 0.0
C2909 C 0.89796 0.3306 0.34518 0.0
C2910 C 0.87732 0.28273 0.30876 0.0
C2911 C 0.85984 0.27822 0.30117 0.0
C2912 C 0.85121 0.29227 0.29471 0.0
C2913 C 0.8605 0.31073 0.29524 0.0
C2914 C 0.87805 0.31515 0.30256 0.0
H2915 H 0.90312 0.33695 0.36057 0.0
H2916 H 0.896 0.34228 0.33653 0.0
H2917 H 0.88524 0.32143 0.34494 0.0
H2918 H 0.88361 0.27182 0.31428 0.0
H2919 H 0.85302 0.26388 0.30089 0.0
H2920 H 0.03563 0.73126 0.59624 0.0
H2921 H 0.0348 0.7004 0.57781 0.0
H2922 H 0.04271 0.6766 0.63185 0.0
H2923 H 0.04359 0.70758 0.65052 0.0
H2924 H 0.06769 0.67291 0.60568 0.0
H2925 H 1.0004 0.64911 0.56758 0.0
H2926 H 1.0098 0.67324 0.5661 0.0
H2927 H 1.0061 0.66625 0.58943 0.0
C2928 C 0.03674 0.71935 0.60422 0.0
C2929 C 0.03978 0.72185 0.62483 0.0
C2930 C 0.0362 0.70172 0.59365 0.0
C2931 C 0.03867 0.68628 0.60349 0.0
C2932 C 0.04072 0.6884 0.62404 0.0
H2933 H 0.05612 0.57522 0.56861 0.0
H2934 H 0.05645 0.60637 0.58568 0.0
C2935 C 0.04111 0.70605 0.63466 0.0
C2936 C 0.04114 0.66868 0.59235 0.0
H2937 H 0.02125 0.6325 0.55673 0.0
C2938 C 0.05752 0.66397 0.59506 0.0
C2939 C 0.02791 0.65731 0.57833 0.0
C2940 C 1.01001 0.66159 0.57523 0.0
C2941 C 0.0611 0.6482 0.58394 0.0
C2942 C 0.04782 0.6367 0.57003 0.0
C2943 C 0.03145 0.64148 0.56727 0.0
C2944 C 0.05019 0.61881 0.5593 0.0
C2945 C 0.0791 0.64418 0.587 0.0
C2946 C 0.04675 0.61547 0.53873 0.0
C2947 C 0.04658 0.59753 0.52885 0.0
C2948 C 0.04968 0.5827 0.53947 0.0
C2949 C 0.05397 0.5864 0.55998 0.0
C2950 C 0.05415 0.60425 0.5698 0.0
H2951 H 0.08872 0.65718 0.59317 0.0
H2952 H 0.07987 0.63378 0.59756 0.0
H2953 H 0.08262 0.63814 0.57306 0.0
H2954 H 0.04358 0.62655 0.5304 0.0
H2955 H 0.04314 0.59503 0.51304 0.0
H2956 H 0.59306 0.81013 0.87601 0.0
H2957 H 0.61446 0.80025 0.85732 0.0
H2958 H 0.57421 0.77303 0.80996 0.0
H2959 H 0.55267 0.78332 0.82845 0.0
H2960 H 0.61626 0.76357 0.84593 0.0
H2961 H 0.60921 0.80223 0.78127 0.0
H2962 H 0.60037 0.80824 0.80317 0.0
H2963 H 0.58969 0.78809 0.7858 0.0
C2964 C 0.58877 0.80229 0.86149 0.0
C2965 C 0.57121 0.79748 0.85366 0.0
C2966 C 0.601 0.79664 0.85085 0.0
C2967 C 0.59592 0.78601 0.83223 0.0
C2968 C 0.57842 0.78153 0.82416 0.0
H2969 H 0.67094 0.72458 0.78708 0.0
H2970 H 0.64351 0.73121 0.79514 0.0
C2971 C 0.56614 0.78735 0.83475 0.0
C2972 C 0.60897 0.77865 0.82205 0.0
H2973 H 0.62856 0.78096 0.78145 0.0
C2974 C 0.61891 0.76727 0.83178 0.0
C2975 C 0.61236 0.78358 0.80362 0.0
C2976 C 0.60246 0.79633 0.79288 0.0
C2977 C 0.63254 0.76115 0.8239 0.0
C2978 C 0.63596 0.76607 0.80546 0.0
C2979 C 0.62573 0.77704 0.79547 0.0
C2980 C 0.65121 0.76163 0.7974 0.0
C2981 C 0.64364 0.75028 0.83587 0.0
C2982 C 0.66417 0.77647 0.79487 0.0
C2983 C 0.67968 0.77272 0.7899 0.0
C2984 C 0.68256 0.75405 0.78751 0.0
C2985 C 0.66914 0.73911 0.78886 0.0
C2986 C 0.65353 0.74288 0.79365 0.0
H2987 H 0.64159 0.75138 0.85142 0.0
H2988 H 0.64041 0.7351 0.82967 0.0
H2989 H 0.65749 0.7555 0.8355 0.0
H2990 H 0.66257 0.79104 0.79753 0.0
H2991 H 0.6896 0.78452 0.78846 0.0
H2992 H 0.44612 0.52243 0.69984 0.0
H2993 H 0.45543 0.52783 0.66829 0.0
H2994 H 0.49722 0.4985 0.68179 0.0
H2995 H 0.48803 0.49285 0.71291 0.0
H2996 H 0.48707 0.54724 0.66155 0.0
H2997 H 0.47581 0.47292 0.62692 0.0
H2998 H 0.46646 0.48005 0.64812 0.0
H2999 H 0.48824 0.47609 0.65093 0.0
C3000 C 0.45718 0.51694 0.69598 0.0
C3001 C 0.46625 0.5071 0.70895 0.0
C3002 C 0.46249 0.52008 0.67796 0.0
C3003 C 0.47683 0.51326 0.67251 0.0
C3004 C 0.48587 0.50349 0.68543 0.0
H3005 H 0.55343 0.524 0.60199 0.0
H3006 H 0.5331 0.51843 0.62499 0.0
C3007 C 0.48063 0.50038 0.70336 0.0
C3008 C 0.48313 0.51702 0.65387 0.0
H3009 H 0.49671 0.49503 0.61448 0.0
C3010 C 0.48879 0.53585 0.65097 0.0
C3011 C 0.48527 0.50215 0.63999 0.0
C3012 C 0.47845 0.48168 0.64153 0.0
C3013 C 0.49768 0.54014 0.63537 0.0
C3014 C 0.50088 0.52522 0.62237 0.0
C3015 C 0.49432 0.50644 0.62457 0.0
C3016 C 0.51279 0.5287 0.60798 0.0
C3017 C 0.50453 0.56052 0.63352 0.0
C3018 C 0.50802 0.53625 0.59071 0.0
C3019 C 0.51967 0.53944 0.57746 0.0
C3020 C 0.53618 0.53512 0.58136 0.0
C3021 C 0.54082 0.52754 0.59863 0.0
C3022 C 0.52921 0.52429 0.61176 0.0
H3023 H 0.50167 0.57047 0.64541 0.0
H3024 H 0.51867 0.56278 0.63384 0.0
H3025 H 0.49872 0.56393 0.61922 0.0
H3026 H 0.49534 0.53962 0.58748 0.0
H3027 H 0.51582 0.54534 0.56426 0.0
H3028 H 0.7984 0.14832 0.98233 0.0
H3029 H 0.77289 0.14902 0.95856 0.0
H3030 H 0.78465 0.21003 0.96757 0.0
H3031 H 0.81 0.2095 0.99118 0.0
H3032 H 0.74747 0.19039 0.96792 0.0
H3033 H 0.77702 0.16752 0.90322 0.0
H3034 H 0.77699 0.15447 0.9239 0.0
H3035 H 0.7906 0.17731 0.92621 0.0
C3036 C 0.7956 0.16187 0.97909 0.0
C3037 C 0.80624 0.17888 0.98849 0.0
C3038 C 0.78097 0.16221 0.96569 0.0
C3039 C 0.77688 0.17957 0.96155 0.0
C3040 C 0.78753 0.19651 0.97083 0.0
H3041 H 0.75119 0.25877 0.91102 0.0
H3042 H 0.7463 0.23421 0.93177 0.0
C3043 C 0.80209 0.19618 0.98415 0.0
C3044 C 0.76231 0.18067 0.94657 0.0
H3045 H 0.7557 0.18559 0.89829 0.0
C3046 C 0.7488 0.18874 0.95252 0.0
C3047 C 0.76378 0.17794 0.92651 0.0
C3048 C 0.77783 0.16882 0.91941 0.0
C3049 C 0.73807 0.19645 0.93919 0.0
C3050 C 0.74142 0.19653 0.91973 0.0
C3051 C 0.75322 0.18587 0.91327 0.0
C3052 C 0.737 0.21133 0.90782 0.0
C3053 C 0.72417 0.20567 0.94645 0.0
C3054 C 0.73247 0.20702 0.88737 0.0
C3055 C 0.73571 0.22114 0.87543 0.0
C3056 C 0.74326 0.23975 0.88383 0.0
C3057 C 0.74531 0.24454 0.9042 0.0
C3058 C 0.74233 0.2304 0.91612 0.0
H3059 H 0.71752 0.19687 0.95633 0.0
H3060 H 0.73007 0.21958 0.95519 0.0
H3061 H 0.71453 0.20778 0.93421 0.0
H3062 H 0.72828 0.19245 0.88061 0.0
H3063 H 0.73387 0.2172 0.85969 0.0
H3064 H 0.16026 0.52751 0.23185 0.0
H3065 H 0.14538 0.52844 0.19862 0.0
H3066 H 0.10491 0.48369 0.20673 0.0
H3067 H 0.11952 0.48321 0.24 0.0
H3068 H 0.13426 0.50685 0.16394 0.0
H3069 H 0.07562 0.52032 0.19219 0.0
H3070 H 0.09523 0.52022 0.20831 0.0
H3071 H 0.08083 0.49831 0.19812 0.0
C3072 C 0.1485 0.51738 0.22633 0.0
C3073 C 0.14155 0.50481 0.23874 0.0
C3074 C 0.13975 0.51809 0.20722 0.0
C3075 C 0.1235 0.50652 0.19975 0.0
C3076 C 0.11703 0.49332 0.21183 0.0
H3077 H 0.04447 0.49201 0.09381 0.0
H3078 H 0.06259 0.4901 0.12459 0.0
C3079 C 0.1257 0.4927 0.23092 0.0
C3080 C 0.11318 0.50855 0.17988 0.0
H3081 H 0.07317 0.51347 0.15763 0.0
C3082 C 0.12093 0.50841 0.16273 0.0
C3083 C 0.09565 0.51077 0.17762 0.0
C3084 C 0.08639 0.51263 0.19505 0.0
C3085 C 0.11178 0.50971 0.1439 0.0
C3086 C 0.09417 0.51158 0.14164 0.0
C3087 C 0.08651 0.51193 0.15882 0.0
C3088 C 0.08331 0.51272 0.12182 0.0
C3089 C 0.12103 0.50841 0.12642 0.0
C3090 C 0.08839 0.52614 0.10924 0.0
C3091 C 0.07782 0.5273 0.09131 0.0
C3092 C 0.06169 0.5151 0.08517 0.0
C3093 C 0.05671 0.50169 0.09771 0.0
C3094 C 0.06718 0.5006 0.11558 0.0
H3095 H 0.13243 0.50167 0.12934 0.0
H3096 H 0.11237 0.5002 0.11332 0.0
H3097 H 0.1256 0.52287 0.12301 0.0
H3098 H 0.10042 0.53612 0.11345 0.0
H3099 H 0.0822 0.53798 0.08241 0.0
H3100 H 0.8034 0.90227 0.4827 0.0
H3101 H 0.80243 0.88557 0.4498 0.0
H3102 H 0.81722 0.8379 0.47526 0.0
H3103 H 0.81781 0.85428 0.50805 0.0
H3104 H 0.82649 0.87144 0.43136 0.0
H3105 H 0.77384 0.81288 0.43821 0.0
H3106 H 0.77976 0.83418 0.45558 0.0
H3107 H 0.79206 0.81565 0.45715 0.0
C3108 C 0.80649 0.88825 0.48127 0.0
C3109 C 0.81052 0.87954 0.49798 0.0
C3110 C 0.80593 0.87871 0.46246 0.0
C3111 C 0.80938 0.86028 0.46 0.0
C3112 C 0.81404 0.85188 0.47672 0.0
H3113 H 0.82997 0.80186 0.35124 0.0
H3114 H 0.8322 0.8185 0.3843 0.0
C3115 C 0.81449 0.86133 0.49549 0.0
C3116 C 0.80801 0.84981 0.44 0.0
H3117 H 0.7879 0.80902 0.41043 0.0
C3118 C 0.81802 0.85781 0.42677 0.0
C3119 C 0.79677 0.83214 0.43385 0.0
C3120 C 0.78487 0.82328 0.44686 0.0
C3121 C 0.81728 0.84853 0.40772 0.0
C3122 C 0.8065 0.83054 0.40183 0.0
C3123 C 0.79632 0.82268 0.41498 0.0
C3124 C 0.80517 0.81988 0.38192 0.0
C3125 C 0.82777 0.85833 0.39395 0.0
C3126 C 0.78914 0.81439 0.36977 0.0
C3127 C 0.78777 0.80462 0.35094 0.0
C3128 C 0.80243 0.80009 0.34379 0.0
C3129 C 0.81842 0.80522 0.35616 0.0
C3130 C 0.81975 0.8149 0.37505 0.0
H3131 H 0.83138 0.87384 0.39864 0.0
H3132 H 0.83981 0.85269 0.39382 0.0
H3133 H 0.82062 0.85582 0.37876 0.0
H3134 H 0.77767 0.81794 0.37474 0.0
H3135 H 0.77523 0.80092 0.34188 0.0
H3136 H 0.43681 0.52051 0.82398 0.0
H3137 H 0.4509 0.52255 0.85789 0.0
H3138 H 0.49534 0.50588 0.83731 0.0
H3139 H 0.48149 0.50423 0.80339 0.0
H3140 H 0.46279 0.49642 0.87852 0.0
H3141 H 0.51672 0.5543 0.87357 0.0
H3142 H 0.49795 0.54752 0.85491 0.0
H3143 H 0.51491 0.53406 0.85555 0.0
C3144 C 0.44956 0.51723 0.82668 0.0
C3145 C 0.45811 0.51237 0.81102 0.0
C3146 C 0.45761 0.51842 0.84606 0.0
C3147 C 0.47433 0.51477 0.85014 0.0
C3148 C 0.48263 0.50926 0.83452 0.0
H3149 H 0.52318 0.49164 0.96195 0.0
H3150 H 0.50923 0.49009 0.92817 0.0
C3151 C 0.47464 0.50818 0.81514 0.0
C3152 C 0.48302 0.51663 0.87073 0.0
H3153 H 0.51907 0.53914 0.9023 0.0
C3154 C 0.47506 0.50581 0.88374 0.0
C3155 C 0.49889 0.52915 0.87764 0.0
C3156 C 0.50755 0.54207 0.86475 0.0
C3157 C 0.48271 0.50686 0.90335 0.0
C3158 C 0.49895 0.51874 0.91001 0.0
C3159 C 0.50673 0.52986 0.89712 0.0
C3160 C 0.50805 0.51986 0.93033 0.0
C3161 C 0.47314 0.49548 0.91681 0.0
C3162 C 0.5127 0.53727 0.94256 0.0
C3163 C 0.5209 0.53827 0.96185 0.0
C3164 C 0.52462 0.52185 0.96926 0.0
C3165 C 0.52035 0.50453 0.95679 0.0
C3166 C 0.51225 0.50358 0.9375 0.0
H3167 H 0.45913 0.49171 0.91122 0.0
H3168 H 0.47802 0.48211 0.91778 0.0
H3169 H 0.47506 0.50336 0.9318 0.0
H3170 H 0.5097 0.55006 0.93728 0.0
H3171 H 0.52402 0.55184 0.97104 0.0
H3172 H 0.84653 0.25228 0.07739 0.0
H3173 H 0.84593 0.26421 0.11145 0.0
H3174 H 0.85111 0.20974 0.12845 0.0
H3175 H 0.85184 0.1976 0.0945 0.0
H3176 H 0.81584 0.22953 0.1269 0.0
H3177 H 0.87788 0.2655 0.17294 0.0
H3178 H 0.87402 0.268 0.14719 0.0
H3179 H 0.87676 0.24557 0.15443 0.0
C3180 C 0.84831 0.24304 0.08847 0.0
C3181 C 0.84875 0.22384 0.08316 0.0
C3182 C 0.84803 0.24993 0.10793 0.0
C3183 C 0.84833 0.23776 0.12228 0.0
C3184 C 0.85095 0.21931 0.11749 0.0
H3185 H 0.82285 0.25696 0.23951 0.0
H3186 H 0.83423 0.24524 0.21057 0.0
C3187 C 0.85136 0.21242 0.09804 0.0
C3188 C 0.84159 0.24268 0.14043 0.0
H3189 H 0.85252 0.26595 0.1869 0.0
C3190 C 0.82383 0.2374 0.1401 0.0
C3191 C 0.85215 0.25279 0.15746 0.0
C3192 C 0.87131 0.25834 0.15825 0.0
C3193 C 0.81621 0.24223 0.15643 0.0
C3194 C 0.82666 0.25294 0.17336 0.0
C3195 C 0.84454 0.25785 0.17382 0.0
C3196 C 0.81922 0.25936 0.19064 0.0
C3197 C 0.79708 0.23569 0.15541 0.0
C3198 C 0.80694 0.27107 0.18895 0.0
C3199 C 0.80017 0.27742 0.20538 0.0
C3200 C 0.8058 0.27239 0.22375 0.0
C3201 C 0.81808 0.2607 0.22541 0.0
C3202 C 0.82471 0.25419 0.20897 0.0
H3203 H 0.79202 0.22324 0.14404 0.0
H3204 H 0.79388 0.23191 0.16972 0.0
H3205 H 0.79038 0.24727 0.15146 0.0
H3206 H 0.80282 0.27556 0.17499 0.0
H3207 H 0.79087 0.28662 0.20379 0.0
H3208 H 0.12428 0.51258 0.33087 0.0
H3209 H 0.10943 0.51624 0.35935 0.0
H3210 H 0.15629 0.51564 0.39768 0.0
H3211 H 0.17121 0.51215 0.36915 0.0
H3212 H 0.10092 0.49573 0.38712 0.0
H3213 H 0.14407 0.55998 0.4276 0.0
H3214 H 0.14557 0.55138 0.40268 0.0
H3215 H 0.15512 0.54086 0.42272 0.0
C3216 C 0.1316 0.51337 0.34533 0.0
C3217 C 0.14925 0.51216 0.3472 0.0
C3218 C 0.12293 0.51544 0.36189 0.0
C3219 C 0.13142 0.51666 0.38139 0.0
C3220 C 0.14909 0.51535 0.38327 0.0
H3221 H 0.09782 0.52998 0.50063 0.0
H3222 H 0.11383 0.52673 0.47298 0.0
C3223 C 0.15775 0.51318 0.36667 0.0
C3224 C 0.12171 0.51876 0.39931 0.0
H3225 H 0.12299 0.54471 0.44458 0.0
C3226 C 0.10585 0.50658 0.39956 0.0
C3227 C 0.12766 0.5327 0.41616 0.0
C3228 C 0.14394 0.5471 0.41729 0.0
C3229 C 0.09633 0.50759 0.41561 0.0
C3230 C 0.10215 0.5217 0.43238 0.0
C3231 C 0.11807 0.53383 0.43217 0.0
C3232 C 0.09205 0.52407 0.44996 0.0
C3233 C 0.08032 0.49281 0.41456 0.0
C3234 C 0.07416 0.52423 0.44728 0.0
C3235 C 0.06486 0.526 0.46332 0.0
C3236 C 0.07287 0.52808 0.48314 0.0
C3237 C 0.09085 0.52844 0.48591 0.0
C3238 C 0.10016 0.52655 0.46981 0.0
H3239 H 0.08084 0.47969 0.40495 0.0
H3240 H 0.07842 0.48903 0.42929 0.0
H3241 H 0.069 0.49834 0.4082 0.0
H3242 H 0.0672 0.52314 0.43261 0.0
H3243 H 0.05119 0.52578 0.46005 0.0
H3244 H 0.7929 0.88396 0.60417 0.0
H3245 H 0.78819 0.87063 0.63463 0.0
H3246 H 0.83387 0.84668 0.63374 0.0
H3247 H 0.83858 0.85975 0.6036 0.0
H3248 H 0.7839 0.83045 0.63768 0.0
H3249 H 0.83907 0.87145 0.69118 0.0
H3250 H 0.83149 0.87965 0.66852 0.0
H3251 H 0.84471 0.86194 0.66849 0.0
C3252 C 0.80213 0.87623 0.61075 0.0
C3253 C 0.81611 0.87294 0.60142 0.0
C3254 C 0.79938 0.86852 0.62809 0.0
C3255 C 0.81077 0.85776 0.63662 0.0
C3256 C 0.82505 0.85514 0.62769 0.0
H3257 H 0.81545 0.78694 0.73131 0.0
H3258 H 0.82168 0.80555 0.70453 0.0
C3259 C 0.82766 0.86257 0.61034 0.0
C3260 C 0.80714 0.84787 0.65382 0.0
H3261 H 0.824 0.84338 0.7007 0.0
C3262 C 0.79255 0.83344 0.65154 0.0
C3263 C 0.81859 0.8515 0.67181 0.0
C3264 C 0.83428 0.86708 0.67529 0.0
C3265 C 0.78929 0.82229 0.66652 0.0
C3266 C 0.80069 0.82596 0.68461 0.0
C3267 C 0.81526 0.84048 0.68691 0.0
C3268 C 0.79739 0.8152 0.70138 0.0
C3269 C 0.77394 0.80623 0.66252 0.0
C3270 C 0.78192 0.81476 0.70891 0.0
C3271 C 0.77834 0.8041 0.724 0.0
C3272 C 0.79024 0.79381 0.73225 0.0
C3273 C 0.80602 0.79471 0.72525 0.0
C3274 C 0.80957 0.80533 0.70994 0.0
H3275 H 0.76987 0.8016 0.64655 0.0
H3276 H 0.77675 0.79385 0.66963 0.0
H3277 H 0.76297 0.81104 0.66841 0.0
H3278 H 0.77251 0.82265 0.70306 0.0
H3279 H 0.76615 0.80394 0.72923 0.0
H3280 H 0.70582 0.38538 0.53727 0.0
H3281 H 0.68983 0.4051 0.55574 0.0
H3282 H 0.72592 0.45502 0.5497 0.0
H3283 H 0.74211 0.43547 0.53154 0.0
H3284 H 0.71573 0.45467 0.58773 0.0
H3285 H 0.66036 0.43792 0.52659 0.0
H3286 H 0.66721 0.41809 0.5366 0.0
H3287 H 0.68119 0.43263 0.52371 0.0
C3288 C 0.7104 0.40055 0.53999 0.0
C3289 C 0.72508 0.40893 0.53276 0.0
C3290 C 0.70127 0.41176 0.55054 0.0
C3291 C 0.70663 0.43148 0.55386 0.0
C3292 C 0.72162 0.4398 0.54728 0.0
H3293 H 0.67517 0.53417 0.58037 0.0
H3294 H 0.6914 0.50855 0.58031 0.0
C3295 C 0.73078 0.42862 0.53681 0.0
C3296 C 0.69603 0.44373 0.56282 0.0
H3297 H 0.65865 0.45989 0.55306 0.0
C3298 C 0.70313 0.45567 0.58035 0.0
C3299 C 0.67962 0.44492 0.55311 0.0
C3300 C 0.67162 0.43284 0.53389 0.0
C3301 C 0.6944 0.46924 0.58815 0.0
C3302 C 0.67835 0.47099 0.57795 0.0
C3303 C 0.67093 0.45844 0.56092 0.0
C3304 C 0.66977 0.48695 0.58309 0.0
C3305 C 0.70256 0.48174 0.60701 0.0
C3306 C 0.65233 0.4834 0.58512 0.0
C3307 C 0.64296 0.49794 0.58475 0.0
C3308 C 0.65088 0.51631 0.58233 0.0
C3309 C 0.66868 0.52013 0.58201 0.0
C3310 C 0.67803 0.50554 0.58225 0.0
H3311 H 0.71122 0.47458 0.61624 0.0
H3312 H 0.71043 0.49481 0.60357 0.0
H3313 H 0.69269 0.48583 0.61556 0.0
H3314 H 0.6457 0.46912 0.58563 0.0
H3315 H 0.62923 0.49438 0.58478 0.0
H3316 H 0.20093 0.1502 0.48666 0.0
H3317 H 0.17407 0.1301 0.49059 0.0
H3318 H 0.20266 0.09408 0.52145 0.0
H3319 H 0.22977 0.11423 0.51761 0.0
H3320 H 0.16107 0.09095 0.47879 0.0
H3321 H 0.17017 0.10928 0.55971 0.0
H3322 H 0.18265 0.12286 0.54442 0.0
H3323 H 0.18759 0.10062 0.55018 0.0
C3324 C 0.20159 0.13794 0.49418 0.0
C3325 C 0.21763 0.13395 0.50188 0.0
C3326 C 0.18615 0.12643 0.49642 0.0
C3327 C 0.18625 0.11072 0.50661 0.0
C3328 C 0.2022 0.1063 0.51381 0.0
H3329 H 0.10079 0.01956 0.511 0.0
H3330 H 0.1275 0.0394 0.50607 0.0
C3331 C 0.21772 0.11775 0.51144 0.0
C3332 C 0.16962 0.09919 0.50972 0.0
H3333 H 0.14573 0.08618 0.54517 0.0
C3334 C 0.15775 0.08989 0.49331 0.0
C3335 C 0.16509 0.09802 0.52865 0.0
C3336 C 0.17694 0.10833 0.54679 0.0
C3337 C 0.14171 0.07923 0.49532 0.0
C3338 C 0.13734 0.0777 0.51426 0.0
C3339 C 0.14906 0.08727 0.53066 0.0
C3340 C 0.12088 0.06577 0.51727 0.0
C3341 C 0.12943 0.06982 0.47712 0.0
C3342 C 0.10824 0.07388 0.52549 0.0
C3343 C 0.09281 0.06249 0.52825 0.0
C3344 C 0.08982 0.04276 0.52306 0.0
C3345 C 0.1026 0.03472 0.51506 0.0
C3346 C 0.11789 0.04606 0.51216 0.0
H3347 H 0.13287 0.07587 0.46382 0.0
H3348 H 0.12984 0.05451 0.475 0.0
H3349 H 0.11603 0.07127 0.47858 0.0
H3350 H 0.11027 0.08904 0.52969 0.0
H3351 H 0.0834 0.06908 0.53472 0.0
H3352 H 0.19441 0.01891 0.7908 0.0
H3353 H 0.20695 0.99048 0.78718 0.0
H3354 H 0.16106 0.95729 0.80121 0.0
H3355 H 0.14831 0.98564 0.80463 0.0
H3356 H 0.21331 0.96837 0.81675 0.0
H3357 H 0.16983 0.92581 0.75206 0.0
H3358 H 0.1708 0.95088 0.75828 0.0
H3359 H 0.15924 0.93428 0.77151 0.0
C3360 C 0.18688 1.00552 0.79284 0.0
C3361 C 0.17036 1.00451 0.79798 0.0
C3362 C 0.19408 0.9893 0.79081 0.0
C3363 C 0.18489 0.97176 0.79378 0.0
C3364 C 0.16826 0.97062 0.79852 0.0
H3365 H 0.23562 0.87673 0.81758 0.0
H3366 H 0.21718 0.90047 0.81933 0.0
C3367 C 0.16102 0.98685 0.80054 0.0
C3368 C 0.1932 0.95499 0.79307 0.0
H3369 H 0.19056 0.91083 0.76857 0.0
C3370 C 0.20832 0.95576 0.80626 0.0
C3371 C 0.18668 0.93862 0.77929 0.0
C3372 C 0.17083 0.93731 0.76435 0.0
C3373 C 0.21719 0.94065 0.80597 0.0
C3374 C 0.2106 0.92421 0.79232 0.0
C3375 C 0.19544 0.92338 0.77917 0.0
C3376 C 0.22001 0.90835 0.7906 0.0
C3377 C 0.23383 0.94265 0.81986 0.0
C3378 C 0.22709 0.90443 0.77357 0.0
C3379 C 0.23751 0.89086 0.7725 0.0
C3380 C 0.24097 0.88089 0.78841 0.0
C3381 C 0.23314 0.88416 0.80508 0.0
C3382 C 0.22274 0.89781 0.80616 0.0
H3383 H 0.23886 0.95754 0.8266 0.0
H3384 H 0.23163 0.93395 0.83182 0.0
H3385 H 0.24379 0.93752 0.81216 0.0
H3386 H 0.22505 0.91234 0.76136 0.0
H3387 H 0.24315 0.88843 0.75935 0.0
H3388 H 0.31513 0.87344 0.96067 0.0
H3389 H 0.34111 0.89652 0.95939 0.0
H3390 H 0.31798 0.94139 0.98367 0.0
H3391 H 0.29195 0.91861 0.98496 0.0
H3392 H 0.34538 0.93704 0.9435 0.0
H3393 H 0.3633 0.93494 0.02353 0.0
H3394 H 0.34889 0.91561 0.00771 0.0
H3395 H 0.34163 0.93713 0.01443 0.0
C3396 C 0.31537 0.88826 0.96528 0.0
C3397 C 0.30153 0.89412 0.97318 0.0
C3398 C 0.33023 0.9014 0.96454 0.0
C3399 C 0.33141 0.92052 0.97166 0.0
C3400 C 0.31724 0.92663 0.97823 0.0
H3401 H 0.42147 1.01039 0.00764 0.0
H3402 H 0.39235 0.99124 1.00268 0.0
C3403 C 0.30239 0.91356 0.97894 0.0
C3404 C 0.34799 0.93374 0.97409 0.0
H3405 H 0.38238 0.95503 0.00852 0.0
C3406 C 0.35351 0.94105 0.95768 0.0
C3407 C 0.35836 0.93895 0.99267 0.0
C3408 C 0.35289 0.93125 0.01066 0.0
C3409 C 0.36929 0.95359 0.95939 0.0
C3410 C 0.37992 0.95845 0.97792 0.0
C3411 C 0.37421 0.95128 0.99435 0.0
C3412 C 0.39729 0.97035 0.9805 0.0
C3413 C 0.3743 0.9617 0.94141 0.0
C3414 C 0.40975 0.96475 0.96995 0.0
C3415 C 0.42626 0.97567 0.97268 0.0
C3416 C 0.43071 0.99225 0.98624 0.0
C3417 C 0.41835 0.99765 0.99712 0.0
C3418 C 0.40175 0.98679 0.99424 0.0
H3419 H 0.36282 0.96151 0.93035 0.0
H3420 H 0.38155 0.97647 0.94519 0.0
H3421 H 0.38259 0.95298 0.93455 0.0
H3422 H 0.40677 0.95178 0.95977 0.0
H3423 H 0.43566 0.97098 0.9644 0.0
H3424 H 0.91684 0.61906 0.78128 0.0
H3425 H 0.90197 0.64616 0.78172 0.0
H3426 H 0.85348 0.60801 0.76315 0.0
H3427 H 0.86828 0.581 0.76289 0.0
H3428 H 0.88311 0.66271 0.75638 0.0
H3429 H 0.83859 0.63821 0.80646 0.0
H3430 H 0.85627 0.62672 0.80209 0.0
H3431 H 0.83652 0.62146 0.78492 0.0
C3432 C 0.90299 0.61629 0.77727 0.0
C3433 C 0.89406 0.59728 0.77209 0.0
C3434 C 0.89433 0.63206 0.77752 0.0
C3435 C 0.87616 0.62984 0.77291 0.0
C3436 C 0.86729 0.61083 0.76743 0.0
H3437 H 0.79873 0.70751 0.77035 0.0
H3438 H 0.81394 0.68078 0.76901 0.0
C3439 C 0.87594 0.59509 0.76707 0.0
C3440 C 0.86671 0.64711 0.77356 0.0
H3441 H 0.83305 0.66461 0.79095 0.0
C3442 C 0.87223 0.66298 0.7641 0.0
C3443 C 0.85224 0.64829 0.78341 0.0
C3444 C 0.84563 0.63287 0.79496 0.0
C3445 C 0.86381 0.67902 0.76373 0.0
C3446 C 0.84936 0.68025 0.77368 0.0
C3447 C 0.8439 0.66437 0.78317 0.0
C3448 C 0.83977 0.69746 0.77433 0.0
C3449 C 0.87027 0.69415 0.75178 0.0
C3450 C 0.84851 0.71665 0.77805 0.0
C3451 C 0.83964 0.73223 0.77859 0.0
C3452 C 0.82142 0.7297 0.77579 0.0
C3453 C 0.81265 0.71056 0.77247 0.0
C3454 C 0.82153 0.69497 0.77177 0.0
H3455 H 0.87684 0.68845 0.73999 0.0
H3456 H 0.85964 0.70047 0.74491 0.0
H3457 H 0.87981 0.70547 0.76143 0.0
H3458 H 0.8624 0.71981 0.78095 0.0
H3459 H 0.84723 0.74643 0.78152 0.0
H3460 H 0.80349 0.60819 0.02361 0.0
H3461 H 0.82934 0.59416 0.02798 0.0
H3462 H 0.85971 0.64546 0.01547 0.0
H3463 H 0.83404 0.65965 0.01148 0.0
H3464 H 0.85074 0.5866 1.00213 0.0
H3465 H 0.88844 0.6371 0.06489 0.0
H3466 H 0.86582 0.63623 0.05706 0.0
H3467 H 0.88158 0.64837 0.04425 0.0
C3468 C 0.8157 0.61656 0.02199 0.0
C3469 C 0.81664 0.63513 0.01733 0.0
C3470 C 0.83051 0.60849 0.02444 0.0
C3471 C 0.84666 0.61879 0.02239 0.0
C3472 C 0.84758 0.63731 0.01766 0.0
H3473 H 0.95015 0.59186 0.02707 0.0
H3474 H 0.92479 0.60672 0.0226 0.0
C3475 C 0.83281 0.6454 0.01526 0.0
C3476 C 0.86235 0.60993 0.02448 0.0
H3477 H 0.90335 0.61555 0.04936 0.0
C3478 C 0.86219 0.59291 0.01255 0.0
C3479 C 0.87744 0.61811 0.03799 0.0
C3480 C 0.87833 0.63586 0.05191 0.0
C3481 C 0.87663 0.58406 0.01353 0.0
C3482 C 0.89168 0.59221 0.02707 0.0
C3483 C 0.89189 0.60927 0.03893 0.0
C3484 C 0.90714 0.58302 0.02946 0.0
C3485 C 0.87573 0.56624 0.9997 0.0
C3486 C 0.90585 0.56477 0.03497 0.0
C3487 C 0.92031 0.55621 0.03745 0.0
C3488 C 0.93659 0.56567 0.03464 0.0
C3489 C 0.93787 0.58399 0.02915 0.0
C3490 C 0.92336 0.59259 0.02672 0.0
H3491 H 0.86559 0.5649 0.98674 0.0
H3492 H 0.88824 0.56587 0.99454 0.0
H3493 H 0.87256 0.55379 0.00748 0.0
H3494 H 0.89362 0.55716 0.03755 0.0
H3495 H 0.91866 0.54203 0.04145 0.0
H3496 H 0.19671 0.09302 0.8191 0.0
H3497 H 0.21975 0.11965 0.81805 0.0
H3498 H 0.18343 0.15732 0.81752 0.0
H3499 H 0.16032 0.1308 0.81906 0.0
H3500 H 0.22261 0.14123 0.78943 0.0
H3501 H 0.22209 0.18678 0.85861 0.0
H3502 H 0.21091 0.16247 0.8535 0.0
H3503 H 0.20146 0.1808 0.8433 0.0
C3504 C 0.19362 0.107 0.81902 0.0
C3505 C 0.17663 0.10974 0.81919 0.0
C3506 C 0.20683 0.12222 0.8184 0.0
C3507 C 0.20339 0.14055 0.81793 0.0
C3508 C 0.1865 0.14341 0.81835 0.0
H3509 H 0.26529 0.23046 0.77142 0.0
H3510 H 0.24331 0.20472 0.77745 0.0
C3511 C 0.17326 0.12818 0.81912 0.0
C3512 C 0.21729 0.15632 0.81566 0.0
H3513 H 0.23818 0.20091 0.83561 0.0
C3514 C 0.22608 0.15422 0.79961 0.0
C3515 C 0.22198 0.1732 0.82906 0.0
C3516 C 0.21374 0.17591 0.8472 0.0
C3517 C 0.2392 0.16861 0.7964 0.0
C3518 C 0.24338 0.18581 0.80932 0.0
C3519 C 0.23485 0.18779 0.8256 0.0
C3520 C 0.25645 0.20193 0.80605 0.0
C3521 C 0.2486 0.1651 0.77933 0.0
C3522 C 0.2709 0.20939 0.82038 0.0
C3523 C 0.28333 0.22441 0.81711 0.0
C3524 C 0.28144 0.23227 0.79951 0.0
C3525 C 0.26695 0.22486 0.78525 0.0
C3526 C 0.25449 0.20998 0.78857 0.0
H3527 H 0.24757 0.14973 0.77465 0.0
H3528 H 0.24281 0.17127 0.76668 0.0
H3529 H 0.26243 0.17177 0.78303 0.0
H3530 H 0.27264 0.20344 0.834 0.0
H3531 H 0.29439 0.22988 0.82833 0.0
H3532 H 0.41966 0.97265 0.2801 0.0
H3533 H 0.40166 0.94212 0.28039 0.0
H3534 H 0.35653 0.9672 0.27319 0.0
H3535 H 0.37478 0.99828 0.27247 0.0
H3536 H 0.38258 0.92806 0.30379 0.0
H3537 H 0.33874 0.92159 0.23368 0.0
H3538 H 0.35758 0.94006 0.24036 0.0
H3539 H 0.33822 0.94219 0.25026 0.0
C3540 C 0.4059 0.97195 0.27842 0.0
C3541 C 0.39898 0.98851 0.27619 0.0
C3542 C 0.39546 0.95414 0.27865 0.0
C3543 C 0.3774 0.95165 0.27663 0.0
C3544 C 0.37029 0.96812 0.27434 0.0
H3545 H 0.31922 0.84688 0.31274 0.0
H3546 H 0.33413 0.879 0.31101 0.0
C3547 C 0.38084 0.98615 0.27404 0.0
C3548 C 0.36661 0.932 0.27762 0.0
H3549 H 0.33242 0.89766 0.25383 0.0
C3550 C 0.3716 0.92158 0.29278 0.0
C3551 C 0.35227 0.92279 0.2633 0.0
C3552 C 0.34644 0.93211 0.24586 0.0
C3553 C 0.36298 0.9029 0.29408 0.0
C3554 C 0.34835 0.89387 0.2801 0.0
C3555 C 0.34339 0.90421 0.26482 0.0
C3556 C 0.33834 0.87382 0.28093 0.0
C3557 C 0.37022 0.89279 0.31022 0.0
C3558 C 0.33472 0.8596 0.26449 0.0
C3559 C 0.32587 0.84096 0.2654 0.0
C3560 C 0.32011 0.83565 0.28278 0.0
C3561 C 0.32346 0.84998 0.29908 0.0
C3562 C 0.33224 0.86859 0.29814 0.0
H3563 H 0.38405 0.89875 0.31553 0.0
H3564 H 0.3632 0.89455 0.32282 0.0
H3565 H 0.36886 0.87743 0.30525 0.0
H3566 H 0.339 0.8628 0.25088 0.0
H3567 H 0.32365 0.83063 0.25239 0.0
H3568 H 0.56823 0.36155 0.65349 0.0
H3569 H 0.56738 0.39033 0.63803 0.0
H3570 H 0.58266 0.36365 0.58643 0.0
H3571 H 0.58294 0.33467 0.60154 0.0
H3572 H 0.58992 0.4151 0.62442 0.0
H3573 H 0.54019 0.37954 0.56202 0.0
H3574 H 0.54611 0.36799 0.58294 0.0
H3575 H 0.55907 0.36922 0.56366 0.0
C3576 C 0.57152 0.36185 0.63889 0.0
C3577 C 0.57551 0.34571 0.62871 0.0
C3578 C 0.57101 0.37834 0.63003 0.0
C3579 C 0.57453 0.37914 0.61079 0.0
C3580 C 0.57934 0.36331 0.601 0.0
H3581 H 0.59054 0.48645 0.55958 0.0
H3582 H 0.59497 0.4581 0.57443 0.0
C3583 C 0.57966 0.34676 0.60975 0.0
C3584 C 0.57293 0.39637 0.60095 0.0
H3585 H 0.55329 0.41112 0.56002 0.0
C3586 C 0.58189 0.41421 0.61034 0.0
C3587 C 0.56224 0.3954 0.58269 0.0
C3588 C 0.55122 0.37705 0.57233 0.0
C3589 C 0.58054 0.43095 0.60202 0.0
C3590 C 0.57029 0.42989 0.58345 0.0
C3591 C 0.56131 0.41205 0.57411 0.0
C3592 C 0.56789 0.44709 0.57388 0.0
C3593 C 0.58966 0.44963 0.61361 0.0
C3594 C 0.55121 0.45018 0.56779 0.0
C3595 C 0.54864 0.46616 0.5589 0.0
C3596 C 0.56268 0.47963 0.55587 0.0
C3597 C 0.57941 0.47646 0.56173 0.0
C3598 C 0.58197 0.4603 0.57044 0.0
H3599 H 0.59265 0.4485 0.62948 0.0
H3600 H 0.60201 0.45419 0.6083 0.0
H3601 H 0.58181 0.46075 0.61185 0.0
H3602 H 0.54009 0.44031 0.57016 0.0
H3603 H 0.53557 0.46808 0.55471 0.0
H3604 H 0.47696 0.75876 0.37368 0.0
H3605 H 0.44946 0.75949 0.35321 0.0
H3606 H 0.4291 0.778 0.40472 0.0
H3607 H 0.45615 0.77744 0.42506 0.0
H3608 H 0.41539 0.74003 0.35495 0.0
H3609 H 0.41959 0.81766 0.36904 0.0
H3610 H 0.43797 0.8066 0.37441 0.0
H3611 H 0.42242 0.80657 0.39085 0.0
C3612 C 0.46664 0.76299 0.38065 0.0
C3613 C 0.46899 0.76812 0.40111 0.0
C3614 C 0.45089 0.76342 0.36891 0.0
C3615 C 0.43723 0.76917 0.37734 0.0
C3616 C 0.43948 0.77395 0.39773 0.0
H3617 H 0.33204 0.78352 0.33129 0.0
H3618 H 0.35882 0.7823 0.35309 0.0
C3619 C 0.45506 0.77348 0.4094 0.0
C3620 C 0.42045 0.76987 0.36509 0.0
H3621 H 0.39269 0.79953 0.35309 0.0
C3622 C 0.41051 0.75307 0.35445 0.0
C3623 C 0.41384 0.78682 0.36459 0.0
C3624 C 0.42405 0.80548 0.37519 0.0
C3625 C 0.39418 0.75269 0.34359 0.0
C3626 C 0.38764 0.76968 0.34288 0.0
C3627 C 0.39754 0.78647 0.35364 0.0
C3628 C 0.37116 0.77047 0.33004 0.0
C3629 C 0.38392 0.73392 0.3333 0.0
C3630 C 0.36918 0.76464 0.30982 0.0
C3631 C 0.35397 0.7652 0.29753 0.0
C3632 C 0.34022 0.7718 0.30496 0.0
C3633 C 0.34222 0.77807 0.32515 0.0
C3634 C 0.35758 0.77746 0.33758 0.0
H3635 H 0.38781 0.72194 0.34036 0.0
H3636 H 0.36992 0.73318 0.33318 0.0
H3637 H 0.38631 0.73208 0.31791 0.0
H3638 H 0.37953 0.75976 0.30343 0.0
H3639 H 0.35304 0.76047 0.28203 0.0
H3640 H 0.06705 0.73471 0.1422 0.0
H3641 H 0.06334 0.70081 0.13018 0.0
H3642 H 0.05492 0.71303 0.07063 0.0
H3643 H 0.05928 0.74672 0.08247 0.0
H3644 H 0.03878 0.67421 0.10866 0.0
H3645 H 0.09359 0.68517 0.06784 0.0
H3646 H 0.08909 0.70377 0.08464 0.0
H3647 H 0.07779 0.69864 0.05984 0.0
C3648 C 0.06423 0.7301 0.12656 0.0
C3649 C 0.06368 0.74343 0.11329 0.0
C3650 C 0.06218 0.71073 0.11969 0.0
C3651 C 0.05941 0.70434 0.09943 0.0
C3652 C 0.05771 0.71757 0.08627 0.0
H3653 H 0.02219 0.58774 0.04418 0.0
H3654 H 0.02533 0.62088 0.05796 0.0
C3655 C 0.06004 0.73686 0.09309 0.0
C3656 C 0.05853 0.684 0.09191 0.0
H3657 H 0.0747 0.65506 0.05997 0.0
C3658 C 0.04673 0.67002 0.09812 0.0
C3659 C 0.06917 0.67835 0.0785 0.0
C3660 C 0.08325 0.69226 0.0725 0.0
C3661 C 0.0449 0.65072 0.09087 0.0
C3662 C 0.05475 0.64523 0.07646 0.0
C3663 C 0.0669 0.65917 0.07072 0.0
C3664 C 0.05285 0.62514 0.06731 0.0
C3665 C 0.0327 0.63644 0.0991 0.0
C3666 C 0.06735 0.61661 0.06687 0.0
C3667 C 0.06565 0.59775 0.05847 0.0
C3668 C 0.04936 0.58691 0.05043 0.0
C3669 C 0.03491 0.59559 0.05042 0.0
C3670 C 0.03667 0.61454 0.05853 0.0
H3671 H 0.03075 0.64195 0.11403 0.0
H3672 H 0.01998 0.6334 0.08956 0.0
H3673 H 0.03748 0.62298 0.09988 0.0
H3674 H 0.08002 0.62445 0.07337 0.0
H3675 H 0.07704 0.59152 0.05882 0.0
H3676 H 0.08412 0.27285 0.921 0.0
H3677 H 0.10988 0.2739 0.90543 0.0
H3678 H 0.07823 0.25203 0.84966 0.0
H3679 H 0.0523 0.25112 0.86515 0.0
H3680 H 0.12275 0.24598 0.88468 0.0
H3681 H 0.10787 0.29979 0.8372 0.0
H3682 H 0.09655 0.2946 0.85734 0.0
H3683 H 0.09125 0.27911 0.83449 0.0
C3684 C 0.08258 0.26816 0.90542 0.0
C3685 C 0.06605 0.26197 0.89434 0.0
C3686 C 0.09738 0.26878 0.89652 0.0
C3687 C 0.0961 0.26337 0.87626 0.0
C3688 C 0.07963 0.25668 0.86523 0.0
H3689 H 0.17087 0.264 0.79547 0.0
H3690 H 0.14516 0.26074 0.81119 0.0
C3691 C 0.06478 0.25601 0.87415 0.0
C3692 C 0.112 0.26486 0.86682 0.0
H3693 H 0.13214 0.28632 0.83232 0.0
C3694 C 0.12481 0.25483 0.87325 0.0
C3695 C 0.1148 0.27643 0.85191 0.0
C3696 C 0.10199 0.28825 0.84491 0.0
C3697 C 0.14007 0.25574 0.86497 0.0
C3698 C 0.1429 0.26736 0.85009 0.0
C3699 C 0.13007 0.27739 0.84368 0.0
C3700 C 0.15888 0.26914 0.84073 0.0
C3701 C 0.15279 0.2438 0.87193 0.0
C3702 C 0.17536 0.27512 0.85195 0.0
C3703 C 0.1902 0.27698 0.84295 0.0
C3704 C 0.18895 0.27318 0.82243 0.0
C3705 C 0.17242 0.26731 0.81126 0.0
C3706 C 0.15763 0.26536 0.82026 0.0
H3707 H 0.14664 0.23183 0.8789 0.0
H3708 H 0.15874 0.23801 0.85964 0.0
H3709 H 0.16315 0.25267 0.88303 0.0
H3710 H 0.17677 0.27865 0.8677 0.0
H3711 H 0.20264 0.28179 0.85204 0.0
H3712 H 0.55272 0.75068 0.88338 0.0
H3713 H 0.55588 0.71758 0.88418 0.0
H3714 H 0.51459 0.70906 0.91827 0.0
H3715 H 0.51162 0.74199 0.91792 0.0
H3716 H 0.56293 0.7057 0.92352 0.0
H3717 H 0.50612 0.66002 0.87671 0.0
H3718 H 0.5146 0.68381 0.87242 0.0
H3719 H 0.50121 0.68003 0.89098 0.0
C3720 C 0.5441 0.74158 0.89066 0.0
C3721 C 0.53207 0.74885 0.9008 0.0
C3722 C 0.54587 0.72273 0.89102 0.0
C3723 C 0.53528 0.71092 0.90101 0.0
C3724 C 0.52264 0.71791 0.91016 0.0
H3725 H 0.51614 0.62834 0.96856 0.0
H3726 H 0.51662 0.64947 0.94357 0.0
C3727 C 0.5211 0.73676 0.91016 0.0
C3728 C 0.53913 0.69246 0.90515 0.0
H3729 H 0.51888 0.64693 0.90451 0.0
C3730 C 0.55367 0.6926 0.91892 0.0
C3731 C 0.52692 0.67559 0.89907 0.0
C3732 C 0.51139 0.67475 0.88383 0.0
C3733 C 0.55537 0.67681 0.92849 0.0
C3734 C 0.54242 0.6603 0.92352 0.0
C3735 C 0.52875 0.65962 0.90831 0.0
C3736 C 0.54126 0.64515 0.9362 0.0
C3737 C 0.57007 0.67868 0.94515 0.0
C3738 C 0.5547 0.63525 0.9399 0.0
C3739 C 0.55471 0.62358 0.95464 0.0
C3740 C 0.54109 0.62136 0.96562 0.0
C3741 C 0.52706 0.63019 0.96079 0.0
C3742 C 0.52719 0.64205 0.94629 0.0
H3743 H 0.57726 0.69348 0.94912 0.0
H3744 H 0.56528 0.67385 0.95839 0.0
H3745 H 0.57924 0.66972 0.94081 0.0
H3746 H 0.56551 0.63718 0.93197 0.0
H3747 H 0.56573 0.61698 0.95796 0.0
H3748 H 0.09275 0.75203 0.70332 0.0
H3749 H 0.12102 0.74897 0.71998 0.0
H3750 H 0.14561 0.78954 0.68651 0.0
H3751 H 0.11767 0.7925 0.66968 0.0
H3752 H 0.15885 0.75648 0.68589 0.0
H3753 H 0.15504 0.7868 0.76192 0.0
H3754 H 0.13785 0.7678 0.75041 0.0
H3755 H 0.14039 0.79007 0.74095 0.0
C3756 C 0.10419 0.76042 0.69966 0.0
C3757 C 0.10295 0.77244 0.6851 0.0
C3758 C 0.1203 0.7587 0.70923 0.0
C3759 C 0.13536 0.76911 0.70452 0.0
C3760 C 0.13413 0.78135 0.6903 0.0
H3761 H 0.23991 0.80155 0.75818 0.0
H3762 H 0.20931 0.79814 0.7459 0.0
C3763 C 0.11812 0.783 0.68069 0.0
C3764 C 0.15258 0.76695 0.71369 0.0
H3765 H 0.18067 0.77654 0.75665 0.0
C3766 C 0.16361 0.7607 0.7014 0.0
C3767 C 0.15868 0.77255 0.73389 0.0
C3768 C 0.14747 0.77982 0.74761 0.0
C3769 C 0.18079 0.7605 0.70862 0.0
C3770 C 0.18698 0.76633 0.72878 0.0
C3771 C 0.17582 0.77203 0.74121 0.0
C3772 C 0.20532 0.76795 0.73692 0.0
C3773 C 0.19235 0.7549 0.69443 0.0
C3774 C 0.21315 0.75204 0.73611 0.0
C3775 C 0.23071 0.75396 0.74289 0.0
C3776 C 0.24067 0.77181 0.75081 0.0
C3777 C 0.23266 0.78763 0.75203 0.0
C3778 C 0.21515 0.7857 0.74512 0.0
H3779 H 0.1866 0.75492 0.67896 0.0
H3780 H 0.20505 0.76463 0.69742 0.0
H3781 H 0.19451 0.74039 0.69612 0.0
H3782 H 0.2057 0.73816 0.73019 0.0
H3783 H 0.23643 0.74145 0.74202 0.0
H3784 H 0.024 0.32925 0.44051 0.0
H3785 H 0.0174 0.35477 0.4622 0.0
H3786 H 0.04855 0.39568 0.43447 0.0
H3787 H 0.05401 0.3701 0.41161 0.0
H3788 H 0.03563 0.37856 0.48868 0.0
H3789 H 1.00815 0.41974 0.43448 0.0
H3790 H 1.01251 0.39656 0.42745 0.0
H3791 H 0.02928 0.4173 0.43016 0.0
C3792 C 0.02927 0.34368 0.43885 0.0
C3793 C 0.03938 0.34773 0.42425 0.0
C3794 C 0.0255 0.35828 0.4513 0.0
C3795 C 0.03212 0.37722 0.44972 0.0
C3796 C 0.04269 0.38125 0.4355 0.0
H3797 H 0.05872 0.46972 0.53957 0.0
H3798 H 0.05378 0.43883 0.51986 0.0
C3799 C 0.04601 0.36664 0.42261 0.0
C3800 C 0.02883 0.39264 0.46372 0.0
H3801 H 0.01944 0.43689 0.46682 0.0
C3802 C 0.03175 0.39115 0.48384 0.0
C3803 C 0.02325 0.40887 0.45753 0.0
C3804 C 0.01792 0.41058 0.43621 0.0
C3805 C 0.03021 0.40586 0.49792 0.0
C3806 C 0.0265 0.42291 0.49176 0.0
C3807 C 0.02258 0.42397 0.47163 0.0
C3808 C 0.02824 0.44037 0.50571 0.0
C3809 C 0.03264 0.40289 0.51921 0.0
C3810 C 1.01566 0.45174 0.50423 0.0
C3811 C 0.01875 0.46971 0.5151 0.0
C3812 C 0.0343 0.47634 0.52781 0.0
C3813 C 0.04646 0.46464 0.53013 0.0
C3814 C 0.04358 0.44692 0.51894 0.0
H3815 H 0.028 0.38784 0.5208 0.0
H3816 H 0.04656 0.4064 0.52526 0.0
H3817 H 0.02572 0.41183 0.52804 0.0
H3818 H 1.00375 0.44703 0.49409 0.0
H3819 H 1.00924 0.47861 0.51317 0.0
H3820 H 0.49394 0.25668 0.18446 0.0
H3821 H 0.4702 0.25551 0.20324 0.0
H3822 H 0.50244 0.24281 0.25313 0.0
H3823 H 0.52645 0.24406 0.23437 0.0
H3824 H 0.45353 0.22743 0.22504 0.0
H3825 H 0.48859 0.29413 0.27151 0.0
H3826 H 0.49488 0.2859 0.24861 0.0
H3827 H 0.49941 0.27433 0.26976 0.0
C3828 C 0.49593 0.2533 0.19931 0.0
C3829 C 0.5121 0.25068 0.20803 0.0
C3830 C 0.48233 0.25258 0.20999 0.0
C3831 C 0.48468 0.24935 0.22962 0.0
C3832 C 0.50048 0.24554 0.23804 0.0
H3833 H 0.40968 0.27793 0.30472 0.0
H3834 H 0.4346 0.26575 0.29509 0.0
C3835 C 0.51412 0.24616 0.22729 0.0
C3836 C 0.47098 0.25176 0.24143 0.0
H3837 H 0.45982 0.28384 0.27468 0.0
C3838 C 0.45497 0.23954 0.23619 0.0
C3839 C 0.47295 0.26757 0.25598 0.0
C3840 C 0.48982 0.28136 0.26182 0.0
C3841 C 0.44063 0.24321 0.24448 0.0
C3842 C 0.44235 0.25969 0.25806 0.0
C3843 C 0.45859 0.27124 0.26423 0.0
C3844 C 0.42718 0.26642 0.2641 0.0
C3845 C 0.42363 0.22975 0.23818 0.0
C3846 C 0.41508 0.27126 0.24991 0.0
C3847 C 0.40105 0.27839 0.25533 0.0
C3848 C 0.39881 0.28086 0.27511 0.0
C3849 C 0.41111 0.27629 0.28939 0.0
C3850 C 0.42524 0.26919 0.28391 0.0
H3851 H 0.4255 0.21531 0.23296 0.0
H3852 H 0.41596 0.22892 0.25036 0.0
H3853 H 0.41614 0.23485 0.22588 0.0
H3854 H 0.41664 0.26978 0.2346 0.0
H3855 H 0.39206 0.28219 0.24402 0.0
H3856 H 0.66079 0.54157 0.37356 0.0
H3857 H 0.64807 0.5371 0.40334 0.0
H3858 H 0.60046 0.54915 0.37514 0.0
H3859 H 0.61296 0.55343 0.34533 0.0
H3860 H 0.63187 0.56075 0.42789 0.0
H3861 H 0.58681 0.49584 0.39076 0.0
H3862 H 0.60526 0.5064 0.38064 0.0
H3863 H 0.58592 0.51604 0.37803 0.0
C3864 C 0.64768 0.54348 0.37379 0.0
C3865 C 0.63781 0.54765 0.35702 0.0
C3866 C 0.64044 0.54091 0.39081 0.0
C3867 C 0.62323 0.54241 0.39129 0.0
C3868 C 0.61366 0.54754 0.37492 0.0
H3869 H 0.54653 0.53243 0.46444 0.0
H3870 H 0.56518 0.53711 0.43967 0.0
C3871 C 0.62086 0.55008 0.35793 0.0
C3872 C 0.61494 0.53792 0.40851 0.0
H3873 H 0.58115 0.50891 0.42164 0.0
C3874 C 0.62091 0.54929 0.42665 0.0
C3875 C 0.60078 0.52281 0.40687 0.0
C3876 C 0.5944 0.50944 0.38808 0.0
C3877 C 0.61246 0.54654 0.44292 0.0
C3878 C 0.59785 0.53194 0.44098 0.0
C3879 C 0.59233 0.52014 0.42306 0.0
C3880 C 0.58712 0.5296 0.45669 0.0
C3881 C 0.61872 0.55976 0.4618 0.0
C3882 C 0.59327 0.52373 0.47451 0.0
C3883 C 0.58253 0.52096 0.48878 0.0
C3884 C 0.56557 0.52404 0.48533 0.0
C3885 C 0.55954 0.5299 0.46749 0.0
C3886 C 0.57019 0.53263 0.45333 0.0
H3887 H 0.62863 0.572 0.46003 0.0
H3888 H 0.60781 0.56515 0.46728 0.0
H3889 H 0.62441 0.55194 0.47308 0.0
H3890 H 0.60622 0.52101 0.47724 0.0
H3891 H 0.58739 0.51615 0.50229 0.0
H3892 H 0.28527 0.88636 0.05952 0.0
H3893 H 0.30256 0.88786 0.0917 0.0
H3894 H 0.31834 0.83581 0.0724 0.0
H3895 H 0.30146 0.83432 0.04027 0.0
H3896 H 0.29726 0.86243 0.11616 0.0
H3897 H 0.36344 0.86657 0.101 0.0
H3898 H 0.34658 0.8722 0.08381 0.0
H3899 H 0.34939 0.84805 0.08421 0.0
C3900 C 0.29257 0.87532 0.06205 0.0
C3901 C 0.29191 0.86016 0.0473 0.0
C3902 C 0.30255 0.87632 0.0804 0.0
C3903 C 0.31212 0.86225 0.08426 0.0
C3904 C 0.31157 0.8472 0.06953 0.0
H3905 H 0.33251 0.78895 0.15495 0.0
H3906 H 0.33555 0.8124 0.1323 0.0
C3907 C 0.30166 0.84621 0.05122 0.0
C3908 C 0.32066 0.86149 0.10431 0.0
H3909 H 0.35613 0.84853 0.12801 0.0
C3910 C 0.31035 0.86011 0.11908 0.0
C3911 C 0.33782 0.85873 0.10814 0.0
C3912 C 0.34997 0.8617 0.09346 0.0
C3913 C 0.31598 0.85365 0.13665 0.0
C3914 C 0.33246 0.84874 0.13952 0.0
C3915 C 0.34347 0.85216 0.12568 0.0
C3916 C 0.33659 0.83633 0.15426 0.0
C3917 C 0.30355 0.85026 0.15105 0.0
C3918 C 0.33743 0.84224 0.17431 0.0
C3919 C 0.33547 0.8288 0.18724 0.0
C3920 C 0.33277 0.80937 0.18021 0.0
C3921 C 0.33423 0.80379 0.16063 0.0
C3922 C 0.33611 0.8172 0.14773 0.0
H3923 H 0.29072 0.85334 0.14568 0.0
H3924 H 0.30183 0.83532 0.15399 0.0
H3925 H 0.30878 0.85948 0.16513 0.0
H3926 H 0.33803 0.85699 0.17961 0.0
H3927 H 0.33442 0.83355 0.20227 0.0
H3928 H 0.92004 0.55073 0.84497 0.0
H3929 H 0.93621 0.54781 0.87695 0.0
H3930 H 0.98132 0.54492 0.85009 0.0
H3931 H 0.96528 0.54789 0.81828 0.0
H3932 H 0.95313 0.52075 0.89186 0.0
H3933 H 1.0018 0.58575 0.89532 0.0
H3934 H 0.98243 0.58037 0.8775 0.0
H3935 H 1.00051 0.56949 0.87357 0.0
C3936 C 0.93342 0.54951 0.8458 0.0
C3937 C 0.94118 0.54972 0.82866 0.0
C3938 C 0.94276 0.54779 0.86428 0.0
C3939 C 0.96036 0.54645 0.86657 0.0
C3940 C 0.96801 0.54637 0.84935 0.0
H3941 H 0.04407 0.53961 0.96073 0.0
H3942 H 0.02519 0.54209 0.93092 0.0
C3943 C 0.95867 0.54796 0.8309 0.0
C3944 C 0.97066 0.54509 0.88665 0.0
H3945 H 1.00754 0.56541 0.91893 0.0
C3946 C 0.96497 0.53065 0.89776 0.0
C3947 C 0.98626 0.55782 0.89491 0.0
C3948 C 0.99306 0.57434 0.88484 0.0
C3949 C 0.97449 0.5282 0.91599 0.0
C3950 C 0.99022 0.54085 0.92418 0.0
C3951 C 0.99569 0.55548 0.91315 0.0
C3952 C 1.00164 0.53885 0.94339 0.0
C3953 C 0.96783 0.51145 0.9258 0.0
C3954 C 0.99532 0.53621 0.96128 0.0
C3955 C 1.00636 0.53455 0.97875 0.0
C3956 C 0.02425 0.53575 0.97914 0.0
C3957 C 0.03048 0.5386 0.96136 0.0
C3958 C 0.01954 0.54009 0.94404 0.0
H3959 H 0.95892 0.50024 0.91526 0.0
H3960 H 0.97852 0.50521 0.93267 0.0
H3961 H 0.96059 0.51611 0.93738 0.0
H3962 H 0.98181 0.5357 0.96195 0.0
H3963 H 1.00089 0.53246 0.99195 0.0
H3964 H 0.28696 0.16345 0.57246 0.0
H3965 H 0.29336 0.17549 0.60768 0.0
H3966 H 0.27472 0.22622 0.59595 0.0
H3967 H 0.26862 0.2147 0.56124 0.0
H3968 H 0.30521 0.2339 0.62104 0.0
H3969 H 0.25804 0.17865 0.64516 0.0
H3970 H 0.27359 0.17028 0.63175 0.0
H3971 H 0.2578 0.18185 0.61973 0.0
C3972 C 0.28428 0.17718 0.57741 0.0
C3973 C 0.27718 0.18799 0.5639 0.0
C3974 C 0.28784 0.18399 0.59756 0.0
C3975 C 0.28433 0.20169 0.6045 0.0
C3976 C 0.27752 0.21254 0.591 0.0
H3977 H 0.2666 0.25196 0.7161 0.0
H3978 H 0.26519 0.23652 0.68268 0.0
C3979 C 0.274 0.20582 0.57105 0.0
C3980 C 0.28761 0.20932 0.62571 0.0
H3981 H 0.27394 0.2028 0.66947 0.0
C3982 C 0.29851 0.22701 0.63169 0.0
C3983 C 0.27866 0.20046 0.63952 0.0
C3984 C 0.26625 0.18183 0.63379 0.0
C3985 C 0.30043 0.23627 0.65092 0.0
C3986 C 0.29149 0.22741 0.66475 0.0
C3987 C 0.28083 0.20955 0.65889 0.0
C3988 C 0.29251 0.23678 0.68514 0.0
C3989 C 0.31144 0.25581 0.65598 0.0
C3990 C 0.30832 0.24204 0.69772 0.0
C3991 C 0.30921 0.25104 0.7168 0.0
C3992 C 0.29425 0.2548 0.72381 0.0
C3993 C 0.2784 0.24938 0.71121 0.0
C3994 C 0.27755 0.24046 0.6921 0.0
H3995 H 0.3137 0.26249 0.64265 0.0
H3996 H 0.3054 0.2652 0.66546 0.0
H3997 H 0.32413 0.25479 0.66406 0.0
H3998 H 0.32 0.23902 0.69286 0.0
H3999 H 0.32163 0.25481 0.7261 0.0
H4000 H 0.64267 0.5337 0.24523 0.0
H4001 H 0.63195 0.5274 0.20996 0.0
H4002 H 0.5885 0.55333 0.21906 0.0
H4003 H 0.59888 0.55949 0.25417 0.0
H4004 H 0.57957 0.51885 0.19444 0.0
H4005 H 0.63328 0.56709 0.17174 0.0
H4006 H 0.63945 0.5496 0.18634 0.0
H4007 H 0.6296 0.56793 0.19686 0.0
C4008 C 0.63084 0.53809 0.23974 0.0
C4009 C 0.6217 0.5472 0.25261 0.0
C4010 C 0.62478 0.53454 0.21956 0.0
C4011 C 0.60953 0.54009 0.21187 0.0
C4012 C 0.60031 0.54896 0.22467 0.0
H4013 H 0.56953 0.55976 0.09667 0.0
H4014 H 0.58204 0.56101 0.13094 0.0
C4015 C 0.60632 0.55251 0.24478 0.0
C4016 C 0.603 0.53673 0.19052 0.0
H4017 H 0.61178 0.54973 0.14659 0.0
C4018 C 0.58664 0.52549 0.18393 0.0
C4019 C 0.6122 0.54556 0.1769 0.0
C4020 C 0.62955 0.55836 0.18325 0.0
C4021 C 0.57911 0.52305 0.16414 0.0
C4022 C 0.58832 0.53188 0.15051 0.0
C4023 C 0.60479 0.5429 0.15705 0.0
C4024 C 0.58072 0.53079 0.12962 0.0
C4025 C 0.56113 0.51162 0.15812 0.0
C4026 C 0.57587 0.51337 0.11743 0.0
C4027 C 0.56857 0.51259 0.09782 0.0
C4028 C 0.56615 0.52923 0.08996 0.0
C4029 C 0.57115 0.54665 0.1022 0.0
C4030 C 0.57837 0.54741 0.1218 0.0
H4031 H 0.55441 0.50951 0.17094 0.0
H4032 H 0.55334 0.51861 0.14772 0.0
H4033 H 0.56179 0.49747 0.15069 0.0
H4034 H 0.57781 0.50039 0.12305 0.0
H4035 H 0.56486 0.49894 0.08883 0.0
H4036 H 0.22748 0.87142 0.94047 0.0
H4037 H 0.22429 0.85641 0.90646 0.0
H4038 H 0.24806 0.8113 0.92655 0.0
H4039 H 0.25051 0.82562 0.96023 0.0
H4040 H 0.24877 0.85171 0.88679 0.0
H4041 H 0.21079 0.7809 0.88666 0.0
H4042 H 0.21216 0.79971 0.90641 0.0
H4043 H 0.22817 0.7849 0.90666 0.0
C4044 C 0.23161 0.85805 0.93759 0.0
C4045 C 0.23929 0.84972 0.95299 0.0
C4046 C 0.22979 0.84951 0.91818 0.0
C4047 C 0.23564 0.83253 0.91393 0.0
C4048 C 0.2429 0.82403 0.92941 0.0
H4049 H 0.29391 0.79826 0.83181 0.0
H4050 H 0.27996 0.81479 0.85567 0.0
C4051 C 0.2445 0.83239 0.94872 0.0
C4052 C 0.2363 0.82477 0.89347 0.0
H4053 H 0.23275 0.78266 0.86474 0.0
C4054 C 0.24483 0.83668 0.88172 0.0
C4055 C 0.23071 0.80529 0.88645 0.0
C4056 C 0.21976 0.79208 0.89718 0.0
C4057 C 0.24941 0.8293 0.86411 0.0
C4058 C 0.24593 0.80947 0.85854 0.0
C4059 C 0.23588 0.79783 0.86925 0.0
C4060 C 0.25407 0.80036 0.8431 0.0
C4061 C 0.25831 0.84283 0.85196 0.0
C4062 C 0.24428 0.78625 0.82849 0.0
C4063 C 0.25233 0.77643 0.81519 0.0
C4064 C 0.27026 0.78071 0.81622 0.0
C4065 C 0.28004 0.79489 0.83066 0.0
C4066 C 0.27204 0.80449 0.84412 0.0
H4067 H 0.25369 0.85646 0.85328 0.0
H4068 H 0.27234 0.84597 0.85742 0.0
H4069 H 0.25614 0.83685 0.83625 0.0
H4070 H 0.23043 0.78271 0.82752 0.0
H4071 H 0.24454 0.7656 0.80403 0.0
H4072 H 0.94234 0.57246 0.71737 0.0
H4073 H 0.95473 0.57114 0.68655 0.0
H4074 H 0.95592 0.51218 0.68848 0.0
H4075 H 0.94339 0.51339 0.71851 0.0
H4076 H 0.98463 0.5651 0.67654 0.0
H4077 H 0.93719 0.50666 0.63234 0.0
H4078 H 0.93341 0.5179 0.65535 0.0
H4079 H 0.94589 0.49939 0.6548 0.0
C4080 C 0.9446 0.55903 0.71086 0.0
C4081 C 0.94114 0.5429 0.72062 0.0
C4082 C 0.95205 0.5583 0.69317 0.0
C4083 C 0.95626 0.54139 0.68427 0.0
C4084 C 0.95255 0.52537 0.69401 0.0
H4085 H 0.03514 0.53558 0.60434 0.0
H4086 H 0.01933 0.53861 0.63189 0.0
C4087 C 0.94526 0.52612 0.71154 0.0
C4088 C 0.96514 0.54042 0.66566 0.0
H4089 H 0.96439 0.51349 0.62113 0.0
C4090 C 0.98001 0.5538 0.66446 0.0
C4091 C 0.95945 0.52603 0.64915 0.0
C4092 C 0.94301 0.51182 0.64784 0.0
C4093 C 0.9893 0.55291 0.6482 0.0
C4094 C 0.98414 0.5379 0.63219 0.0
C4095 C 0.96894 0.5249 0.6331 0.0
C4096 C 0.99412 0.53552 0.61458 0.0
C4097 C 1.00441 0.5686 0.64827 0.0
C4098 C 0.98575 0.53177 0.5948 0.0
C4099 C 0.99495 0.5297 0.57865 0.0
C4100 C 1.01305 0.53112 0.58137 0.0
C4101 C 0.02134 0.53448 0.60114 0.0
C4102 C 1.01216 0.53648 0.61722 0.0
H4103 H 1.00316 0.5818 0.65724 0.0
H4104 H 0.01635 0.56431 0.65485 0.0
H4105 H 1.00576 0.57175 0.63321 0.0
H4106 H 0.97194 0.5307 0.59172 0.0
H4107 H 0.9878 0.52713 0.56393 0.0
H4108 H 0.26849 0.20211 0.47475 0.0
H4109 H 0.27033 0.21881 0.4462 0.0
H4110 H 0.27407 0.16726 0.41121 0.0
H4111 H 0.27231 0.1503 0.43996 0.0
H4112 H 0.29897 0.2214 0.42438 0.0
H4113 H 0.23634 0.18935 0.3777 0.0
H4114 H 0.24006 0.1885 0.4038 0.0
H4115 H 0.24907 0.17335 0.3876 0.0
C4116 C 0.26949 0.19418 0.46096 0.0
C4117 C 0.27024 0.1748 0.45969 0.0
C4118 C 0.27058 0.20381 0.44462 0.0
C4119 C 0.27225 0.19432 0.42651 0.0
C4120 C 0.27257 0.17485 0.42498 0.0
H4121 H 0.28356 0.23489 0.31397 0.0
H4122 H 0.27874 0.21577 0.3404 0.0
C4123 C 0.27158 0.16517 0.44143 0.0
C4124 C 0.27461 0.2052 0.40969 0.0
H4125 H 0.25528 0.21155 0.3645 0.0
C4126 C 0.28942 0.21925 0.41128 0.0
C4127 C 0.26221 0.20232 0.39254 0.0
C4128 C 0.24594 0.18766 0.39021 0.0
C4129 C 0.29224 0.2304 0.3962 0.0
C4130 C 0.27964 0.22789 0.37921 0.0
C4131 C 0.2649 0.21365 0.37753 0.0
C4132 C 0.28167 0.23969 0.36294 0.0
C4133 C 0.30895 0.24442 0.39848 0.0
C4134 C 0.28445 0.25958 0.36654 0.0
C4135 C 0.28736 0.27057 0.35143 0.0
C4136 C 0.28729 0.26192 0.33232 0.0
C4137 C 0.28374 0.24202 0.32854 0.0
C4138 C 0.28098 0.23105 0.34367 0.0
H4139 H 0.3191 0.24062 0.40908 0.0
H4140 H 0.3137 0.24527 0.38424 0.0
H4141 H 0.3069 0.25863 0.40415 0.0
H4142 H 0.28454 0.26664 0.38111 0.0
H4143 H 0.2899 0.28585 0.35478 0.0
H4144 H 0.37766 0.65545 0.53783 0.0
H4145 H 0.39374 0.62967 0.53868 0.0
H4146 H 0.35308 0.59606 0.56193 0.0
H4147 H 0.33708 0.62196 0.56158 0.0
H4148 H 0.38525 0.59335 0.57979 0.0
H4149 H 0.38054 0.58193 0.49901 0.0
H4150 H 0.38991 0.60589 0.50921 0.0
H4151 H 0.36795 0.59649 0.5113 0.0
C4152 C 0.37222 0.64264 0.54328 0.0
C4153 C 0.35607 0.64062 0.54946 0.0
C4154 C 0.38135 0.62789 0.54363 0.0
C4155 C 0.37435 0.61083 0.54987 0.0
C4156 C 0.35859 0.60908 0.55688 0.0
H4157 H 0.42485 0.51607 0.52081 0.0
H4158 H 0.40126 0.5327 0.526 0.0
C4159 C 0.3495 0.62389 0.55669 0.0
C4160 C 0.38342 0.59476 0.54877 0.0
H4161 H 0.4015 0.56784 0.51724 0.0
C4162 C 0.38862 0.58755 0.56609 0.0
C4163 C 0.38735 0.58689 0.5308 0.0
C4164 C 0.38098 0.59305 0.5115 0.0
C4165 C 0.39862 0.57345 0.56607 0.0
C4166 C 0.40375 0.56673 0.54835 0.0
C4167 C 0.39765 0.57312 0.53086 0.0
C4168 C 0.41691 0.55475 0.5478 0.0
C4169 C 0.4038 0.5661 0.58507 0.0
C4170 C 0.43337 0.56148 0.5586 0.0
C4171 C 0.44675 0.552 0.55575 0.0
C4172 C 0.44396 0.53576 0.54185 0.0
C4173 C 0.42729 0.52849 0.5317 0.0
C4174 C 0.41386 0.53799 0.5346 0.0
H4175 H 0.39413 0.56715 0.59501 0.0
H4176 H 0.40538 0.55114 0.58251 0.0
H4177 H 0.41622 0.57482 0.59263 0.0
H4178 H 0.43612 0.57461 0.56852 0.0
H4179 H 0.45945 0.55776 0.56392 0.0
H4180 H 0.8598 0.94467 0.56551 0.0
H4181 H 0.88751 0.96617 0.5664 0.0
H4182 H 0.90332 0.92436 0.5275 0.0
H4183 H 0.87604 0.90301 0.52652 0.0
H4184 H 0.92237 0.95814 0.57802 0.0
H4185 H 0.91173 0.9734 0.50125 0.0
H4186 H 0.89429 0.96433 0.51377 0.0
H4187 H 0.90716 0.94871 0.50396 0.0
C4188 C 0.86913 0.94013 0.55704 0.0
C4189 C 0.86558 0.92204 0.54596 0.0
C4190 C 0.88499 0.95241 0.55761 0.0
C4191 C 0.89748 0.94697 0.54686 0.0
C4192 C 0.89387 0.92903 0.53572 0.0
H4193 H 0.99988 0.9913 0.52325 0.0
H4194 H 0.9715 0.97264 0.52484 0.0
C4195 C 0.87821 0.91676 0.53528 0.0
C4196 C 0.91452 0.95961 0.54747 0.0
H4197 H 0.94038 0.98202 0.51824 0.0
C4198 C 0.92626 0.96358 0.56502 0.0
C4199 C 0.91969 0.96653 0.53047 0.0
C4200 C 0.90753 0.9632 0.51131 0.0
C4201 C 0.94316 0.97372 0.56588 0.0
C4202 C 0.9484 0.98054 0.5488 0.0
C4203 C 0.93651 0.97679 0.53134 0.0
C4204 C 0.96612 0.99149 0.54862 0.0
C4205 C 0.95542 0.97634 0.5849 0.0
C4206 C 0.97272 1.00835 0.56144 0.0
C4207 C 0.98904 0.01893 0.56067 0.0
C4208 C 0.99909 1.01305 0.54691 0.0
C4209 C 0.99254 0.99615 0.53413 0.0
C4210 C 0.97625 0.98552 0.53497 0.0
H4211 H 0.95123 0.9657 0.59452 0.0
H4212 H 0.96863 0.97527 0.58226 0.0
H4213 H 0.95583 0.99057 0.59289 0.0
H4214 H 0.9651 1.01361 0.57177 0.0
H4215 H 0.99362 0.03196 0.5706 0.0
H4216 H 0.93847 0.07271 0.27183 0.0
H4217 H 0.92299 0.09905 0.27209 0.0
H4218 H 0.87907 0.06293 0.23553 0.0
H4219 H 0.89428 0.03638 0.23565 0.0
H4220 H 0.90824 0.11739 0.24395 0.0
H4221 H 0.85862 0.08096 0.28278 0.0
H4222 H 0.87812 0.07239 0.27983 0.0
H4223 H 0.86032 0.06769 0.26003 0.0
C4224 C 0.92558 0.07042 0.26368 0.0
C4225 C 0.9175 0.05242 0.2539 0.0
C4226 C 0.91675 0.08549 0.26385 0.0
C4227 C 0.89974 0.08283 0.25422 0.0
C4228 C 0.89203 0.06516 0.2435 0.0
H4229 H 0.84068 0.17088 0.23259 0.0
H4230 H 0.85852 0.14674 0.22992 0.0
C4231 C 0.90078 0.05004 0.24347 0.0
C4232 C 0.88989 0.09834 0.25602 0.0
H4233 H 0.85365 0.10955 0.27137 0.0
C4234 C 0.89631 0.11571 0.24997 0.0
C4235 C 0.87452 0.09624 0.26426 0.0
C4236 C 0.86756 0.07839 0.27229 0.0
C4237 C 0.88763 0.13096 0.25164 0.0
C4238 C 0.8719 0.12859 0.25915 0.0
C4239 C 0.86562 0.11129 0.26545 0.0
C4240 C 0.86174 0.14384 0.26082 0.0
C4241 C 0.89557 0.14956 0.24575 0.0
C4242 C 0.85731 0.14996 0.27899 0.0
C4243 C 0.84695 0.16357 0.28051 0.0
C4244 C 0.84084 0.17135 0.26387 0.0
C4245 C 0.84541 0.16534 0.24571 0.0
C4246 C 0.85566 0.1516 0.24418 0.0
H4247 H 0.90964 0.15073 0.24588 0.0
H4248 H 0.88961 0.15059 0.23063 0.0
H4249 H 0.8934 0.1617 0.25566 0.0
H4250 H 0.86182 0.14413 0.29202 0.0
H4251 H 0.84376 0.16805 0.29472 0.0
H4252 H 0.79368 0.14516 0.05443 0.0
H4253 H 0.76735 0.12458 0.05914 0.0
H4254 H 0.73763 0.16543 0.03997 0.0
H4255 H 0.76381 0.18605 0.0349 0.0
H4256 H 0.74214 0.13079 0.08234 0.0
H4257 H 0.71541 0.1167 1.00307 0.0
H4258 H 0.73761 0.12735 0.01205 0.0
H4259 H 0.72115 0.14139 0.01257 0.0
C4260 C 0.78157 0.14986 0.05129 0.0
C4261 C 0.78086 0.16721 0.0441 0.0
C4262 C 0.76655 0.13806 0.05402 0.0
C4263 C 0.75058 0.14336 0.04955 0.0
C4264 C 0.74984 0.16094 0.0431 0.0
H4265 H 0.64507 0.09796 0.05262 0.0
H4266 H 0.673 0.11678 0.05039 0.0
C4267 C 0.76484 0.17275 0.04032 0.0
C4268 C 0.73462 0.13035 0.05133 0.0
H4269 H 0.69659 0.10607 0.02503 0.0
C4270 C 0.73221 0.12525 0.06982 0.0
C4271 C 0.72182 0.12306 0.03488 0.0
C4272 C 0.72415 0.12723 0.01448 0.0
C4273 C 0.71698 0.11353 0.07243 0.0
C4274 C 0.70402 0.10666 0.05607 0.0
C4275 C 0.70658 0.11146 0.03753 0.0
C4276 C 0.68734 0.09516 0.05795 0.0
C4277 C 0.71461 0.10904 0.09271 0.0
C4278 C 0.68623 0.07674 0.06286 0.0
C4279 C 0.67022 0.06584 0.06398 0.0
C4280 C 0.65513 0.07321 0.06011 0.0
C4281 C 0.6564 0.09174 0.05533 0.0
C4282 C 0.67234 0.10256 0.05418 0.0
H4283 H 0.72452 0.1181 0.10423 0.0
H4284 H 0.70168 0.1109 0.09577 0.0
H4285 H 0.71557 0.09405 0.09364 0.0
H4286 H 0.69769 0.07072 0.06553 0.0
H4287 H 0.66963 0.05155 0.06751 0.0
H4288 H 0.16998 0.43733 0.2952 0.0
H4289 H 0.18444 0.40987 0.29396 0.0
H4290 H 0.23238 0.44668 0.29201 0.0
H4291 H 0.21801 0.47402 0.29328 0.0
H4292 H 0.20132 0.39159 0.26867 0.0
H4293 H 0.25013 0.41854 0.33416 0.0
H4294 H 0.23208 0.42983 0.32796 0.0
H4295 H 0.25071 0.43434 0.31597 0.0
C4296 C 0.18363 0.43974 0.29454 0.0
C4297 C 0.19254 0.45849 0.29444 0.0
C4298 C 0.19205 0.42374 0.2938 0.0
C4299 C 0.20997 0.42549 0.29327 0.0
C4300 C 0.21879 0.44424 0.29294 0.0
H4301 H 0.28721 0.34784 0.29381 0.0
H4302 H 0.27175 0.37429 0.29458 0.0
C4303 C 0.21037 0.46017 0.2935 0.0
C4304 C 0.21924 0.40804 0.2928 0.0
H4305 H 0.25413 0.39116 0.31479 0.0
C4306 C 0.21282 0.39164 0.27892 0.0
C4307 C 0.23449 0.40725 0.30585 0.0
C4308 C 0.2422 0.42332 0.32195 0.0
C4309 C 0.2211 0.37548 0.27736 0.0
C4310 C 0.23634 0.37463 0.2905 0.0
C4311 C 0.24266 0.39103 0.30445 0.0
C4312 C 0.24602 0.35741 0.28993 0.0
C4313 C 0.21359 0.3598 0.2608 0.0
C4314 C 0.23749 0.33812 0.28735 0.0
C4315 C 0.24653 0.32263 0.28664 0.0
C4316 C 0.26475 0.32537 0.28893 0.0
C4317 C 0.2733 0.3446 0.29198 0.0
C4318 C 0.26426 0.36005 0.29246 0.0
H4319 H 0.20614 0.36503 0.24853 0.0
H4320 H 0.22377 0.35325 0.25497 0.0
H4321 H 0.20461 0.34877 0.26617 0.0
H4322 H 0.22364 0.33481 0.28611 0.0
H4323 H 0.2391 0.30837 0.28443 0.0
H4324 H 0.28608 0.45349 0.06522 0.0
H4325 H 0.26049 0.46804 0.06428 0.0
H4326 H 0.22804 0.41309 0.04661 0.0
H4327 H 0.25348 0.39857 0.04714 0.0
H4328 H 0.21812 0.43789 0.02385 0.0
H4329 H 0.22587 0.47 0.1013 0.0
H4330 H 0.24425 0.47736 0.08979 0.0
H4331 H 0.23834 0.45295 0.09325 0.0
C4332 C 0.27349 0.44447 0.06142 0.0
C4333 C 0.2719 0.42482 0.05633 0.0
C4334 C 0.25881 0.45281 0.06096 0.0
C4335 C 0.24218 0.4417 0.0556 0.0
C4336 C 0.24063 0.42204 0.05083 0.0
H4337 H 0.14408 0.47836 0.06613 0.0
H4338 H 0.16974 0.46399 0.07043 0.0
C4339 C 0.25525 0.41373 0.05122 0.0
C4340 C 0.22644 0.45049 0.05388 0.0
H4341 H 0.20439 0.47908 0.07897 0.0
C4342 C 0.21514 0.44684 0.03596 0.0
C4343 C 0.22226 0.46201 0.06969 0.0
C4344 C 0.23321 0.46568 0.08965 0.0
C4345 C 0.20008 0.45454 0.03332 0.0
C4346 C 0.19623 0.46663 0.04889 0.0
C4347 C 0.20735 0.47002 0.06693 0.0
C4348 C 0.18078 0.47586 0.04666 0.0
C4349 C 0.18826 0.44931 0.01391 0.0
C4350 C 0.17848 0.4877 0.03215 0.0
C4351 C 0.16382 0.49595 0.02966 0.0
C4352 C 0.15104 0.49274 0.04171 0.0
C4353 C 0.1536 0.48127 0.0566 0.0
C4354 C 0.16829 0.47297 0.05905 0.0
H4355 H 0.19024 0.43595 1.00586 0.0
H4356 H 0.17456 0.44764 0.01594 0.0
H4357 H 0.19097 0.4607 1.00464 0.0
H4358 H 0.18808 0.49066 0.02274 0.0
H4359 H 0.16262 0.50505 0.01837 0.0
H4360 H 0.93588 0.93073 0.26836 0.0
H4361 H 0.91327 0.90291 0.26685 0.0
H4362 H 0.87467 0.93625 0.25267 0.0
H4363 H 0.89713 0.96405 0.25377 0.0
H4364 H 0.88796 0.89843 0.28968 0.0
H4365 H 0.85864 0.89021 0.21145 0.0
H4366 H 0.87929 0.90512 0.22088 0.0
H4367 H 0.85979 0.91333 0.22438 0.0
C4368 C 0.92259 0.93214 0.2647 0.0
C4369 C 0.91837 0.94967 0.26112 0.0
C4370 C 0.90968 0.9162 0.26386 0.0
C4371 C 0.89227 0.91741 0.25936 0.0
C4372 C 0.888 0.93484 0.25569 0.0
H4373 H 0.79629 0.83909 0.26041 0.0
H4374 H 0.81815 0.86652 0.25718 0.0
C4375 C 0.9009 0.95078 0.25646 0.0
C4376 C 0.87861 0.90069 0.25964 0.0
H4377 H 0.84349 0.87136 0.23194 0.0
C4378 C 0.87831 0.89244 0.27701 0.0
C4379 C 0.86594 0.89297 0.24314 0.0
C4380 C 0.86597 0.90073 0.22385 0.0
C4381 C 0.8656 0.87684 0.27842 0.0
C4382 C 0.85298 0.86907 0.26191 0.0
C4383 C 0.85319 0.87736 0.24457 0.0
C4384 C 0.83963 0.85218 0.26242 0.0
C4385 C 0.86559 0.86904 0.29771 0.0
C4386 C 0.84438 0.83489 0.26572 0.0
C4387 C 0.83195 0.81933 0.26759 0.0
C4388 C 0.81458 0.82074 0.26616 0.0
C4389 C 0.80966 0.83771 0.26177 0.0
C4390 C 0.82212 0.85336 0.25995 0.0
H4391 H 0.87324 0.87938 0.31008 0.0
H4392 H 0.85228 0.86505 0.30086 0.0
H4393 H 0.87138 0.85616 0.29698 0.0
H4394 H 0.85775 0.83347 0.26702 0.0
H4395 H 0.83588 0.80614 0.26993 0.0
H4396 H 0.71294 0.05907 0.80518 0.0
H4397 H 0.73109 0.09034 0.80467 0.0
H4398 H 0.6856 0.11439 0.79438 0.0
H4399 H 0.66778 0.08399 0.79557 0.0
H4400 H 0.73669 0.11508 0.7799 0.0
H4401 H 0.70987 0.15317 0.83753 0.0
H4402 H 0.70486 0.12775 0.83213 0.0
H4403 H 0.693 0.14212 0.81797 0.0
C4404 C 0.70678 0.07104 0.80298 0.0
C4405 C 0.68864 0.06857 0.80078 0.0
C4406 C 0.71725 0.08911 0.80265 0.0
C4407 C 0.71003 0.10546 0.80009 0.0
C4408 C 0.69193 0.1027 0.79724 0.0
H4409 H 0.76291 0.21123 0.76128 0.0
H4410 H 0.74764 0.17937 0.76352 0.0
C4411 C 0.68159 0.08489 0.79777 0.0
C4412 C 0.72099 0.12519 0.79996 0.0
H4413 H 0.72502 0.17252 0.81716 0.0
C4414 C 0.73412 0.12756 0.78821 0.0
C4415 C 0.71834 0.14196 0.81099 0.0
C4416 C 0.7059 0.14111 0.82552 0.0
C4417 C 0.74398 0.14566 0.78673 0.0
C4418 C 0.74054 0.16254 0.79679 0.0
C4419 C 0.72778 0.16007 0.809 0.0
C4420 C 0.75004 0.18267 0.7952 0.0
C4421 C 0.7584 0.14627 0.77475 0.0
C4422 C 0.75617 0.19631 0.81199 0.0
C4423 C 0.7647 0.21495 0.81064 0.0
C4424 C 0.76756 0.22096 0.79246 0.0
C4425 C 0.7613 0.20741 0.77566 0.0
C4426 C 0.7526 0.18884 0.77697 0.0
H4427 H 0.76328 0.13278 0.77398 0.0
H4428 H 0.75353 0.14828 0.75954 0.0
H4429 H 0.76931 0.15801 0.78093 0.0
H4430 H 0.75453 0.19252 0.82637 0.0
H4431 H 0.76921 0.22463 0.824 0.0
loop_
_geom_bond_atom_site_label_1
_geom_bond_atom_site_label_2
_geom_bond_distance
_geom_bond_site_symmetry_2
_ccdc_geom_bond_type
Co0 O1 2.216 . S
Co0 O2 2.091 . S
Co0 O4 2.004 1_455 S
Co0 O10 2.021 . S
Co0 O12 2.137 . S
Co0 O13 2.244 . S
O1 Co0 2.216 . S
O1 C8 1.247 . S
O2 Co0 2.091 . S
O2 C8 1.261 . S
C3 O12 1.247 . S
C3 O13 1.272 . S
O4 Co0 2.004 1_655 S
O4 C9 1.259 . S
Co5 O6 2.061 . S
Co5 O11 2.052 . S
Co5 O13 2.135 1_655 S
O6 Co5 2.061 . S
O6 C9 1.235 . S
C7 O10 1.238 1_655 S
C7 O11 1.241 . S
C8 O1 1.247 . S
C8 O2 1.261 . S
C9 O4 1.259 . S
C9 O6 1.235 . S
O10 Co0 2.021 . S
O10 C7 1.238 1_455 S
O11 Co5 2.052 . S
O11 C7 1.241 . S
O12 Co0 2.137 . S
O12 C3 1.247 . S
O13 Co0 2.244 . S
O13 C3 1.272 . S
O13 Co5 2.135 1_455 S
Co14 O15 2.216 . S
Co14 O16 2.091 . S
Co14 O18 2.004 . S
Co14 O24 2.021 . S
Co14 O26 2.137 . S
Co14 O27 2.244 . S
O15 Co14 2.216 . S
O15 C22 1.247 . S
O16 Co14 2.091 . S
O16 C22 1.261 . S
C17 O26 1.247 . S
C17 O27 1.272 . S
O18 Co14 2.004 . S
O18 C23 1.259 . S
Co19 O20 2.061 . S
Co19 O25 2.052 . S
Co19 O27 2.135 . S
O20 Co19 2.061 . S
O20 C23 1.235 . S
C21 O24 1.238 . S
C21 O25 1.241 . S
C22 O15 1.247 . S
C22 O16 1.261 . S
C23 O18 1.259 . S
C23 O20 1.235 . S
O24 Co14 2.021 . S
O24 C21 1.238 . S
O25 Co19 2.052 . S
O25 C21 1.241 . S
O26 Co14 2.137 . S
O26 C17 1.247 . S
O27 Co14 2.244 . S
O27 C17 1.272 . S
O27 Co19 2.135 . S
Co28 O29 2.216 . S
Co28 O30 2.091 . S
Co28 O32 2.004 . S
Co28 O38 2.021 . S
Co28 O40 2.137 . S
Co28 O41 2.244 . S
O29 Co28 2.216 . S
O29 C36 1.247 . S
O30 Co28 2.091 . S
O30 C36 1.261 . S
C31 O40 1.247 . S
C31 O41 1.272 . S
O32 Co28 2.004 . S
O32 C37 1.259 . S
Co33 O34 2.061 . S
Co33 O39 2.052 . S
Co33 O41 2.135 . S
O34 Co33 2.061 . S
O34 C37 1.235 . S
C35 O38 1.238 . S
C35 O39 1.241 . S
C36 O29 1.247 . S
C36 O30 1.261 . S
C37 O32 1.259 . S
C37 O34 1.235 . S
O38 Co28 2.021 . S
O38 C35 1.238 . S
O39 Co33 2.052 . S
O39 C35 1.241 . S
O40 Co28 2.137 . S
O40 C31 1.247 . S
O41 Co28 2.244 . S
O41 C31 1.272 . S
O41 Co33 2.135 . S
Co42 O43 2.216 . S
Co42 O44 2.091 . S
Co42 O46 2.004 . S
Co42 O52 2.021 . S
Co42 O54 2.137 . S
Co42 O55 2.244 . S
O43 Co42 2.216 . S
O43 C50 1.247 . S
O44 Co42 2.091 . S
O44 C50 1.261 . S
C45 O54 1.247 . S
C45 O55 1.272 . S
O46 Co42 2.004 . S
O46 C51 1.259 . S
Co47 O48 2.061 . S
Co47 O53 2.052 . S
Co47 O55 2.135 . S
O48 Co47 2.061 . S
O48 C51 1.235 . S
C49 O52 1.238 . S
C49 O53 1.241 . S
C50 O43 1.247 . S
C50 O44 1.261 . S
C51 O46 1.259 . S
C51 O48 1.235 . S
O52 Co42 2.021 . S
O52 C49 1.238 . S
O53 Co47 2.052 . S
O53 C49 1.241 . S
O54 Co42 2.137 . S
O54 C45 1.247 . S
O55 Co42 2.244 . S
O55 C45 1.272 . S
O55 Co47 2.135 . S
Co56 O57 2.216 . S
Co56 O58 2.091 . S
Co56 O60 2.004 . S
Co56 O66 2.021 . S
Co56 O68 2.137 . S
Co56 O69 2.244 . S
O57 Co56 2.216 . S
O57 C64 1.247 . S
O58 Co56 2.091 . S
O58 C64 1.261 . S
C59 O68 1.247 . S
C59 O69 1.272 . S
O60 Co56 2.004 . S
O60 C65 1.259 . S
Co61 O62 2.061 . S
Co61 O67 2.052 . S
Co61 O69 2.135 . S
O62 Co61 2.061 . S
O62 C65 1.235 . S
C63 O66 1.238 . S
C63 O67 1.241 . S
C64 O57 1.247 . S
C64 O58 1.261 . S
C65 O60 1.259 . S
C65 O62 1.235 . S
O66 Co56 2.021 . S
O66 C63 1.238 . S
O67 Co61 2.052 . S
O67 C63 1.241 . S
O68 Co56 2.137 . S
O68 C59 1.247 . S
O69 Co56 2.244 . S
O69 C59 1.272 . S
O69 Co61 2.135 . S
Co70 O71 2.216 . S
Co70 O72 2.091 . S
Co70 O74 2.004 . S
Co70 O80 2.021 . S
Co70 O82 2.137 . S
Co70 O83 2.244 . S
O71 Co70 2.216 . S
O71 C78 1.247 . S
O72 Co70 2.091 . S
O72 C78 1.261 . S
C73 O82 1.247 . S
C73 O83 1.272 . S
O74 Co70 2.004 . S
O74 C79 1.259 . S
Co75 O76 2.061 . S
Co75 O81 2.052 . S
Co75 O83 2.135 . S
O76 Co75 2.061 . S
O76 C79 1.235 . S
C77 O80 1.238 . S
C77 O81 1.241 . S
C78 O71 1.247 . S
C78 O72 1.261 . S
C79 O74 1.259 . S
C79 O76 1.235 . S
O80 Co70 2.021 . S
O80 C77 1.238 . S
O81 Co75 2.052 . S
O81 C77 1.241 . S
O82 Co70 2.137 . S
O82 C73 1.247 . S
O83 Co70 2.244 . S
O83 C73 1.272 . S
O83 Co75 2.135 . S
Co84 O85 2.216 . S
Co84 O86 2.091 . S
Co84 O88 2.004 . S
Co84 O94 2.021 . S
Co84 O96 2.137 . S
Co84 O97 2.244 . S
O85 Co84 2.216 . S
O85 C92 1.247 . S
O86 Co84 2.091 . S
O86 C92 1.261 . S
C87 O96 1.247 . S
C87 O97 1.272 . S
O88 Co84 2.004 . S
O88 C93 1.259 . S
Co89 O90 2.061 . S
Co89 O95 2.052 . S
Co89 O97 2.135 . S
O90 Co89 2.061 . S
O90 C93 1.235 . S
C91 O94 1.238 . S
C91 O95 1.241 . S
C92 O85 1.247 . S
C92 O86 1.261 . S
C93 O88 1.259 . S
C93 O90 1.235 . S
O94 Co84 2.021 . S
O94 C91 1.238 . S
O95 Co89 2.052 . S
O95 C91 1.241 . S
O96 Co84 2.137 . S
O96 C87 1.247 . S
O97 Co84 2.244 . S
O97 C87 1.272 . S
O97 Co89 2.135 . S
Co98 O99 2.216 . S
Co98 O100 2.091 . S
Co98 O102 2.004 1_455 S
Co98 O108 2.021 . S
Co98 O110 2.137 . S
Co98 O111 2.244 . S
O99 Co98 2.216 . S
O99 C106 1.247 . S
O100 Co98 2.091 . S
O100 C106 1.261 . S
C101 O110 1.247 . S
C101 O111 1.272 . S
O102 Co98 2.004 1_655 S
O102 C107 1.259 . S
Co103 O104 2.061 . S
Co103 O109 2.052 1_655 S
Co103 O111 2.135 1_655 S
O104 Co103 2.061 . S
O104 C107 1.235 . S
C105 O108 1.238 . S
C105 O109 1.241 . S
C106 O99 1.247 . S
C106 O100 1.261 . S
C107 O102 1.259 . S
C107 O104 1.235 . S
O108 Co98 2.021 . S
O108 C105 1.238 . S
O109 Co103 2.052 1_455 S
O109 C105 1.241 . S
O110 Co98 2.137 . S
O110 C101 1.247 . S
O111 Co98 2.244 . S
O111 C101 1.272 . S
O111 Co103 2.135 1_455 S
Co112 O113 2.216 . S
Co112 O114 2.091 . S
Co112 O116 2.004 1_545 S
Co112 O122 2.021 . S
Co112 O124 2.137 . S
Co112 O125 2.244 . S
O113 Co112 2.216 . S
O113 C120 1.247 . S
O114 Co112 2.091 . S
O114 C120 1.261 . S
C115 O124 1.247 . S
C115 O125 1.272 . S
O116 Co112 2.004 1_565 S
O116 C121 1.259 . S
Co117 O118 2.061 . S
Co117 O123 2.052 1_565 S
Co117 O125 2.135 1_565 S
O118 Co117 2.061 . S
O118 C121 1.235 . S
C119 O122 1.238 . S
C119 O123 1.241 . S
C120 O113 1.247 . S
C120 O114 1.261 . S
C121 O116 1.259 . S
C121 O118 1.235 . S
O122 Co112 2.021 . S
O122 C119 1.238 . S
O123 Co117 2.052 1_545 S
O123 C119 1.241 . S
O124 Co112 2.137 . S
O124 C115 1.247 . S
O125 Co112 2.244 . S
O125 C115 1.272 . S
O125 Co117 2.135 1_545 S
Co126 O127 2.216 . S
Co126 O128 2.091 . S
Co126 O130 2.004 . S
Co126 O136 2.021 . S
Co126 O138 2.137 . S
Co126 O139 2.244 . S
O127 Co126 2.216 . S
O127 C134 1.247 . S
O128 Co126 2.091 . S
O128 C134 1.261 . S
C129 O138 1.247 . S
C129 O139 1.272 . S
O130 Co126 2.004 . S
O130 C135 1.259 . S
Co131 O132 2.061 . S
Co131 O137 2.052 . S
Co131 O139 2.135 . S
O132 Co131 2.061 . S
O132 C135 1.235 . S
C133 O136 1.238 . S
C133 O137 1.241 . S
C134 O127 1.247 . S
C134 O128 1.261 . S
C135 O130 1.259 . S
C135 O132 1.235 . S
O136 Co126 2.021 . S
O136 C133 1.238 . S
O137 Co131 2.052 . S
O137 C133 1.241 . S
O138 Co126 2.137 . S
O138 C129 1.247 . S
O139 Co126 2.244 . S
O139 C129 1.272 . S
O139 Co131 2.135 . S
Co140 O141 2.216 1_545 S
Co140 O142 2.091 . S
Co140 O144 2.004 . S
Co140 O150 2.021 . S
Co140 O152 2.137 . S
Co140 O153 2.244 . S
O141 Co140 2.216 1_565 S
O141 C148 1.247 . S
O142 Co140 2.091 . S
O142 C148 1.261 1_545 S
C143 O152 1.247 . S
C143 O153 1.272 . S
O144 Co140 2.004 . S
O144 C149 1.259 . S
Co145 O146 2.061 . S
Co145 O151 2.052 . S
Co145 O153 2.135 . S
O146 Co145 2.061 . S
O146 C149 1.235 . S
C147 O150 1.238 . S
C147 O151 1.241 . S
C148 O141 1.247 . S
C148 O142 1.261 1_565 S
C149 O144 1.259 . S
C149 O146 1.235 . S
O150 Co140 2.021 . S
O150 C147 1.238 . S
O151 Co145 2.052 . S
O151 C147 1.241 . S
O152 Co140 2.137 . S
O152 C143 1.247 . S
O153 Co140 2.244 . S
O153 C143 1.272 . S
O153 Co145 2.135 . S
Co154 O155 2.216 . S
Co154 O156 2.091 1_556 S
Co154 O158 2.004 1_556 S
Co154 O164 2.021 1_556 S
Co154 O166 2.137 . S
Co154 O167 2.244 . S
O155 Co154 2.216 . S
O155 C162 1.247 . S
O156 Co154 2.091 1_554 S
O156 C162 1.261 1_554 S
C157 O166 1.247 . S
C157 O167 1.272 . S
O158 Co154 2.004 1_554 S
O158 C163 1.259 . S
Co159 O160 2.061 1_556 S
Co159 O165 2.052 1_556 S
Co159 O167 2.135 . S
O160 Co159 2.061 1_554 S
O160 C163 1.235 . S
C161 O164 1.238 . S
C161 O165 1.241 . S
C162 O155 1.247 . S
C162 O156 1.261 1_556 S
C163 O158 1.259 . S
C163 O160 1.235 . S
O164 Co154 2.021 1_554 S
O164 C161 1.238 . S
O165 Co159 2.052 1_554 S
O165 C161 1.241 . S
O166 Co154 2.137 . S
O166 C157 1.247 . S
O167 Co154 2.244 . S
O167 C157 1.272 . S
O167 Co159 2.135 . S
Co168 O169 2.216 . S
Co168 O170 2.091 . S
Co168 O172 2.004 . S
Co168 O178 2.021 . S
Co168 O180 2.137 1_554 S
Co168 O181 2.244 . S
O169 Co168 2.216 . S
O169 C176 1.247 . S
O170 Co168 2.091 . S
O170 C176 1.261 . S
C171 O180 1.247 . S
C171 O181 1.272 1_556 S
O172 Co168 2.004 . S
O172 C177 1.259 . S
Co173 O174 2.061 . S
Co173 O179 2.052 . S
Co173 O181 2.135 . S
O174 Co173 2.061 . S
O174 C177 1.235 . S
C175 O178 1.238 . S
C175 O179 1.241 . S
C176 O169 1.247 . S
C176 O170 1.261 . S
C177 O172 1.259 . S
C177 O174 1.235 . S
O178 Co168 2.021 . S
O178 C175 1.238 . S
O179 Co173 2.052 . S
O179 C175 1.241 . S
O180 Co168 2.137 1_556 S
O180 C171 1.247 . S
O181 Co168 2.244 . S
O181 C171 1.272 1_554 S
O181 Co173 2.135 . S
Co182 O183 2.216 . S
Co182 O184 2.091 . S
Co182 O186 2.004 . S
Co182 O192 2.021 . S
Co182 O194 2.137 . S
Co182 O195 2.244 . S
O183 Co182 2.216 . S
O183 C190 1.247 . S
O184 Co182 2.091 . S
O184 C190 1.261 . S
C185 O194 1.247 . S
C185 O195 1.272 . S
O186 Co182 2.004 . S
O186 C191 1.259 . S
Co187 O188 2.061 . S
Co187 O193 2.052 . S
Co187 O195 2.135 . S
O188 Co187 2.061 . S
O188 C191 1.235 . S
C189 O192 1.238 . S
C189 O193 1.241 . S
C190 O183 1.247 . S
C190 O184 1.261 . S
C191 O186 1.259 . S
C191 O188 1.235 . S
O192 Co182 2.021 . S
O192 C189 1.238 . S
O193 Co187 2.052 . S
O193 C189 1.241 . S
O194 Co182 2.137 . S
O194 C185 1.247 . S
O195 Co182 2.244 . S
O195 C185 1.272 . S
O195 Co187 2.135 . S
Co196 O197 2.216 . S
Co196 O198 2.091 . S
Co196 O200 2.004 . S
Co196 O206 2.021 . S
Co196 O208 2.137 . S
Co196 O209 2.244 . S
O197 Co196 2.216 . S
O197 C204 1.247 . S
O198 Co196 2.091 . S
O198 C204 1.261 . S
C199 O208 1.247 . S
C199 O209 1.272 . S
O200 Co196 2.004 . S
O200 C205 1.259 . S
Co201 O202 2.061 . S
Co201 O207 2.052 . S
Co201 O209 2.135 . S
O202 Co201 2.061 . S
O202 C205 1.235 . S
C203 O206 1.238 . S
C203 O207 1.241 . S
C204 O197 1.247 . S
C204 O198 1.261 . S
C205 O200 1.259 . S
C205 O202 1.235 . S
O206 Co196 2.021 . S
O206 C203 1.238 . S
O207 Co201 2.052 . S
O207 C203 1.241 . S
O208 Co196 2.137 . S
O208 C199 1.247 . S
O209 Co196 2.244 . S
O209 C199 1.272 . S
O209 Co201 2.135 . S
Co210 O211 2.216 . S
Co210 O212 2.091 . S
Co210 O214 2.004 . S
Co210 O220 2.021 . S
Co210 O222 2.137 . S
Co210 O223 2.244 . S
O211 Co210 2.216 . S
O211 C218 1.247 . S
O212 Co210 2.091 . S
O212 C218 1.261 . S
C213 O222 1.247 . S
C213 O223 1.272 . S
O214 Co210 2.004 . S
O214 C219 1.259 . S
Co215 O216 2.061 . S
Co215 O221 2.052 . S
Co215 O223 2.135 . S
O216 Co215 2.061 . S
O216 C219 1.235 . S
C217 O220 1.238 . S
C217 O221 1.241 . S
C218 O211 1.247 . S
C218 O212 1.261 . S
C219 O214 1.259 . S
C219 O216 1.235 . S
O220 Co210 2.021 . S
O220 C217 1.238 . S
O221 Co215 2.052 . S
O221 C217 1.241 . S
O222 Co210 2.137 . S
O222 C213 1.247 . S
O223 Co210 2.244 . S
O223 C213 1.272 . S
O223 Co215 2.135 . S
Co224 O225 2.216 . S
Co224 O226 2.091 . S
Co224 O228 2.004 1_545 S
Co224 O234 2.021 . S
Co224 O236 2.137 . S
Co224 O237 2.244 . S
O225 Co224 2.216 . S
O225 C232 1.247 . S
O226 Co224 2.091 . S
O226 C232 1.261 . S
C227 O236 1.247 . S
C227 O237 1.272 . S
O228 Co224 2.004 1_565 S
O228 C233 1.259 . S
Co229 O230 2.061 . S
Co229 O235 2.052 . S
Co229 O237 2.135 1_565 S
O230 Co229 2.061 . S
O230 C233 1.235 . S
C231 O234 1.238 . S
C231 O235 1.241 1_545 S
C232 O225 1.247 . S
C232 O226 1.261 . S
C233 O228 1.259 . S
C233 O230 1.235 . S
O234 Co224 2.021 . S
O234 C231 1.238 . S
O235 Co229 2.052 . S
O235 C231 1.241 1_565 S
O236 Co224 2.137 . S
O236 C227 1.247 . S
O237 Co224 2.244 . S
O237 C227 1.272 . S
O237 Co229 2.135 1_545 S
Co238 O239 2.216 . S
Co238 O240 2.091 . S
Co238 O242 2.004 . S
Co238 O248 2.021 . S
Co238 O250 2.137 . S
Co238 O251 2.244 . S
O239 Co238 2.216 . S
O239 C246 1.247 . S
O240 Co238 2.091 . S
O240 C246 1.261 . S
C241 O250 1.247 . S
C241 O251 1.272 . S
O242 Co238 2.004 . S
O242 C247 1.259 . S
Co243 O244 2.061 . S
Co243 O249 2.052 . S
Co243 O251 2.135 . S
O244 Co243 2.061 . S
O244 C247 1.235 . S
C245 O248 1.238 . S
C245 O249 1.241 . S
C246 O239 1.247 . S
C246 O240 1.261 . S
C247 O242 1.259 . S
C247 O244 1.235 . S
O248 Co238 2.021 . S
O248 C245 1.238 . S
O249 Co243 2.052 . S
O249 C245 1.241 . S
O250 Co238 2.137 . S
O250 C241 1.247 . S
O251 Co238 2.244 . S
O251 C241 1.272 . S
O251 Co243 2.135 . S
Co252 O253 2.216 . S
Co252 O254 2.091 . S
Co252 O256 2.004 . S
Co252 O262 2.021 . S
Co252 O264 2.137 . S
Co252 O265 2.244 . S
O253 Co252 2.216 . S
O253 C260 1.247 . S
O254 Co252 2.091 . S
O254 C260 1.261 . S
C255 O264 1.247 . S
C255 O265 1.272 . S
O256 Co252 2.004 . S
O256 C261 1.259 . S
Co257 O258 2.061 . S
Co257 O263 2.052 . S
Co257 O265 2.135 . S
O258 Co257 2.061 . S
O258 C261 1.235 . S
C259 O262 1.238 . S
C259 O263 1.241 . S
C260 O253 1.247 . S
C260 O254 1.261 . S
C261 O256 1.259 . S
C261 O258 1.235 . S
O262 Co252 2.021 . S
O262 C259 1.238 . S
O263 Co257 2.052 . S
O263 C259 1.241 . S
O264 Co252 2.137 . S
O264 C255 1.247 . S
O265 Co252 2.244 . S
O265 C255 1.272 . S
O265 Co257 2.135 . S
Co266 O267 2.216 1_545 S
Co266 O268 2.091 1_545 S
Co266 O270 2.004 . S
Co266 O276 2.021 . S
Co266 O278 2.137 . S
Co266 O279 2.244 . S
O267 Co266 2.216 1_565 S
O267 C274 1.247 . S
O268 Co266 2.091 1_565 S
O268 C274 1.261 . S
C269 O278 1.247 . S
C269 O279 1.272 . S
O270 Co266 2.004 . S
O270 C275 1.259 . S
Co271 O272 2.061 . S
Co271 O277 2.052 . S
Co271 O279 2.135 . S
O272 Co271 2.061 . S
O272 C275 1.235 . S
C273 O276 1.238 . S
C273 O277 1.241 . S
C274 O267 1.247 . S
C274 O268 1.261 . S
C275 O270 1.259 . S
C275 O272 1.235 . S
O276 Co266 2.021 . S
O276 C273 1.238 . S
O277 Co271 2.052 . S
O277 C273 1.241 . S
O278 Co266 2.137 . S
O278 C269 1.247 . S
O279 Co266 2.244 . S
O279 C269 1.272 . S
O279 Co271 2.135 . S
Co280 O281 2.216 . S
Co280 O282 2.091 . S
Co280 O284 2.004 . S
Co280 O290 2.021 . S
Co280 O292 2.137 1_554 S
Co280 O293 2.244 . S
O281 Co280 2.216 . S
O281 C288 1.247 . S
O282 Co280 2.091 . S
O282 C288 1.261 . S
C283 O292 1.247 . S
C283 O293 1.272 1_556 S
O284 Co280 2.004 . S
O284 C289 1.259 . S
Co285 O286 2.061 . S
Co285 O291 2.052 . S
Co285 O293 2.135 . S
O286 Co285 2.061 . S
O286 C289 1.235 . S
C287 O290 1.238 . S
C287 O291 1.241 . S
C288 O281 1.247 . S
C288 O282 1.261 . S
C289 O284 1.259 . S
C289 O286 1.235 . S
O290 Co280 2.021 . S
O290 C287 1.238 . S
O291 Co285 2.052 . S
O291 C287 1.241 . S
O292 Co280 2.137 1_556 S
O292 C283 1.247 . S
O293 Co280 2.244 . S
O293 C283 1.272 1_554 S
O293 Co285 2.135 . S
Co294 O295 2.216 . S
Co294 O296 2.091 . S
Co294 O298 2.004 . S
Co294 O304 2.021 . S
Co294 O306 2.137 . S
Co294 O307 2.244 . S
O295 Co294 2.216 . S
O295 C302 1.247 . S
O296 Co294 2.091 . S
O296 C302 1.261 . S
C297 O306 1.247 . S
C297 O307 1.272 . S
O298 Co294 2.004 . S
O298 C303 1.259 . S
Co299 O300 2.061 . S
Co299 O305 2.052 . S
Co299 O307 2.135 . S
O300 Co299 2.061 . S
O300 C303 1.235 . S
C301 O304 1.238 . S
C301 O305 1.241 . S
C302 O295 1.247 . S
C302 O296 1.261 . S
C303 O298 1.259 . S
C303 O300 1.235 . S
O304 Co294 2.021 . S
O304 C301 1.238 . S
O305 Co299 2.052 . S
O305 C301 1.241 . S
O306 Co294 2.137 . S
O306 C297 1.247 . S
O307 Co294 2.244 . S
O307 C297 1.272 . S
O307 Co299 2.135 . S
Co308 O309 2.216 . S
Co308 O310 2.091 . S
Co308 O312 2.004 . S
Co308 O318 2.021 . S
Co308 O320 2.137 . S
Co308 O321 2.244 . S
O309 Co308 2.216 . S
O309 C316 1.247 . S
O310 Co308 2.091 . S
O310 C316 1.261 . S
C311 O320 1.247 . S
C311 O321 1.272 . S
O312 Co308 2.004 . S
O312 C317 1.259 . S
Co313 O314 2.061 . S
Co313 O319 2.052 . S
Co313 O321 2.135 . S
O314 Co313 2.061 . S
O314 C317 1.235 . S
C315 O318 1.238 . S
C315 O319 1.241 . S
C316 O309 1.247 . S
C316 O310 1.261 . S
C317 O312 1.259 . S
C317 O314 1.235 . S
O318 Co308 2.021 . S
O318 C315 1.238 . S
O319 Co313 2.052 . S
O319 C315 1.241 . S
O320 Co308 2.137 . S
O320 C311 1.247 . S
O321 Co308 2.244 . S
O321 C311 1.272 . S
O321 Co313 2.135 . S
Co322 O323 2.216 . S
Co322 O324 2.091 . S
Co322 O326 2.004 . S
Co322 O332 2.021 . S
Co322 O334 2.137 . S
Co322 O335 2.244 . S
O323 Co322 2.216 . S
O323 C330 1.247 . S
O324 Co322 2.091 . S
O324 C330 1.261 . S
C325 O334 1.247 . S
C325 O335 1.272 . S
O326 Co322 2.004 . S
O326 C331 1.259 . S
Co327 O328 2.061 . S
Co327 O333 2.052 . S
Co327 O335 2.135 . S
O328 Co327 2.061 . S
O328 C331 1.235 . S
C329 O332 1.238 . S
C329 O333 1.241 . S
C330 O323 1.247 . S
C330 O324 1.261 . S
C331 O326 1.259 . S
C331 O328 1.235 . S
O332 Co322 2.021 . S
O332 C329 1.238 . S
O333 Co327 2.052 . S
O333 C329 1.241 . S
O334 Co322 2.137 . S
O334 C325 1.247 . S
O335 Co322 2.244 . S
O335 C325 1.272 . S
O335 Co327 2.135 . S
Tb336 C338 2.809 1_455 S
Tb336 O356 2.484 1_455 S
Tb336 O357 2.440 1_454 S
Tb336 O358 2.658 . S
Tb336 O359 2.409 1_554 S
Tb336 O360 2.378 . S
Tb336 O364 2.325 . S
Tb336 O367 2.341 1_545 S
Tb337 C347 2.809 . S
Tb337 O358 2.325 . S
Tb337 O361 2.341 . S
Tb337 O362 2.484 . S
Tb337 O363 2.440 . S
Tb337 O364 2.658 . S
Tb337 O365 2.409 . S
Tb337 O366 2.378 1_545 S
C338 Tb336 2.809 1_655 S
C338 C339 1.514 . S
C338 O356 1.248 . S
C338 O357 1.266 1_554 S
C339 C338 1.514 . S
C339 C340 1.359 . S
C339 C344 1.348 1_554 S
C340 C339 1.359 . S
C340 C341 1.380 . S
C340 H368 0.929 . S
C341 C340 1.380 . S
C341 C342 1.360 . S
C341 H369 0.931 . S
C342 C341 1.360 . S
C342 C343 1.357 1_554 S
C343 C342 1.357 1_556 S
C343 C344 1.408 . S
C343 H370 0.930 . S
C344 C339 1.348 1_556 S
C344 C343 1.408 . S
C344 H371 0.930 . S
C345 O358 1.281 1_556 S
C345 O359 1.254 . S
C346 O360 1.236 . S
C346 O361 1.266 . S
C347 Tb337 2.809 . S
C347 C348 1.514 1_545 S
C347 O362 1.248 . S
C347 O363 1.266 . S
C348 C347 1.514 1_565 S
C348 C349 1.359 . S
C348 C353 1.348 . S
C349 C348 1.359 . S
C349 C350 1.380 . S
C349 H372 0.929 . S
C350 C349 1.380 . S
C350 C351 1.347 . S
C350 H373 0.931 . S
C351 C350 1.347 . S
C351 C352 1.369 . S
C352 C351 1.369 . S
C352 C353 1.408 . S
C352 H374 0.930 . S
C353 C348 1.348 . S
C353 C352 1.408 . S
C353 H375 0.930 . S
C354 O364 1.281 . S
C354 O365 1.254 . S
C355 O366 1.236 . S
C355 O367 1.266 . S
O356 Tb336 2.484 1_655 S
O356 C338 1.248 . S
O357 Tb336 2.440 1_656 S
O357 C338 1.266 1_556 S
O358 Tb336 2.658 . S
O358 Tb337 2.325 . S
O358 C345 1.281 1_554 S
O359 Tb336 2.409 1_556 S
O359 C345 1.254 . S
O360 Tb336 2.378 . S
O360 C346 1.236 . S
O361 Tb337 2.341 . S
O361 C346 1.266 . S
O362 Tb337 2.484 . S
O362 C347 1.248 . S
O363 Tb337 2.440 . S
O363 C347 1.266 . S
O364 Tb336 2.325 . S
O364 Tb337 2.658 . S
O364 C354 1.281 . S
O365 Tb337 2.409 . S
O365 C354 1.254 . S
O366 Tb337 2.378 1_565 S
O366 C355 1.236 . S
O367 Tb336 2.341 1_565 S
O367 C355 1.266 . S
H368 C340 0.929 . S
H369 C341 0.931 . S
H370 C343 0.930 . S
H371 C344 0.930 . S
H372 C349 0.929 . S
H373 C350 0.931 . S
H374 C352 0.930 . S
H375 C353 0.930 . S
Tb376 C378 2.809 . S
Tb376 O396 2.484 . S
Tb376 O397 2.440 . S
Tb376 O398 2.658 . S
Tb376 O399 2.409 . S
Tb376 O400 2.378 . S
Tb376 O404 2.325 . S
Tb376 O407 2.341 . S
Tb377 C387 2.809 . S
Tb377 O398 2.325 . S
Tb377 O401 2.341 . S
Tb377 O402 2.484 . S
Tb377 O403 2.440 . S
Tb377 O404 2.658 . S
Tb377 O405 2.409 . S
Tb377 O406 2.378 . S
C378 Tb376 2.809 . S
C378 C379 1.514 . S
C378 O396 1.248 . S
C378 O397 1.266 . S
C379 C378 1.514 . S
C379 C380 1.359 . S
C379 C384 1.348 . S
C380 C379 1.359 . S
C380 C381 1.380 . S
C380 H408 0.929 . S
C381 C380 1.380 . S
C381 C382 1.347 . S
C381 H409 0.931 . S
C382 C381 1.347 . S
C382 C383 1.369 . S
C383 C382 1.369 . S
C383 C384 1.408 . S
C383 H410 0.930 . S
C384 C379 1.348 . S
C384 C383 1.408 . S
C384 H411 0.930 . S
C385 O398 1.281 . S
C385 O399 1.254 . S
C386 O400 1.236 . S
C386 O401 1.266 . S
C387 Tb377 2.809 . S
C387 C388 1.514 . S
C387 O402 1.248 . S
C387 O403 1.266 . S
C388 C387 1.514 . S
C388 C389 1.359 . S
C388 C393 1.348 . S
C389 C388 1.359 . S
C389 C390 1.380 . S
C389 H412 0.929 . S
C390 C389 1.380 . S
C390 C391 1.347 . S
C390 H413 0.931 . S
C391 C390 1.347 . S
C391 C392 1.369 . S
C392 C391 1.369 . S
C392 C393 1.408 . S
C392 H414 0.930 . S
C393 C388 1.348 . S
C393 C392 1.408 . S
C393 H415 0.930 . S
C394 O404 1.281 . S
C394 O405 1.254 . S
C395 O406 1.236 . S
C395 O407 1.266 . S
O396 Tb376 2.484 . S
O396 C378 1.248 . S
O397 Tb376 2.440 . S
O397 C378 1.266 . S
O398 Tb376 2.658 . S
O398 Tb377 2.325 . S
O398 C385 1.281 . S
O399 Tb376 2.409 . S
O399 C385 1.254 . S
O400 Tb376 2.378 . S
O400 C386 1.236 . S
O401 Tb377 2.341 . S
O401 C386 1.266 . S
O402 Tb377 2.484 . S
O402 C387 1.248 . S
O403 Tb377 2.440 . S
O403 C387 1.266 . S
O404 Tb376 2.325 . S
O404 Tb377 2.658 . S
O404 C394 1.281 . S
O405 Tb377 2.409 . S
O405 C394 1.254 . S
O406 Tb377 2.378 . S
O406 C395 1.236 . S
O407 Tb376 2.341 . S
O407 C395 1.266 . S
H408 C380 0.929 . S
H409 C381 0.931 . S
H410 C383 0.930 . S
H411 C384 0.930 . S
H412 C389 0.929 . S
H413 C390 0.931 . S
H414 C392 0.930 . S
H415 C393 0.930 . S
Tb416 C418 2.809 1_545 S
Tb416 O436 2.484 1_545 S
Tb416 O437 2.440 . S
Tb416 O438 2.658 . S
Tb416 O439 2.409 . S
Tb416 O440 2.378 1_545 S
Tb416 O444 2.325 . S
Tb416 O447 2.341 . S
Tb417 C427 2.809 . S
Tb417 O438 2.325 . S
Tb417 O441 2.341 1_545 S
Tb417 O442 2.484 . S
Tb417 O443 2.440 . S
Tb417 O444 2.658 . S
Tb417 O445 2.409 . S
Tb417 O446 2.378 . S
C418 Tb416 2.809 1_565 S
C418 C419 1.514 . S
C418 O436 1.248 . S
C418 O437 1.266 1_565 S
C419 C418 1.514 . S
C419 C420 1.359 . S
C419 C424 1.348 . S
C420 C419 1.359 . S
C420 C421 1.380 . S
C420 H448 0.929 . S
C421 C420 1.380 . S
C421 C422 1.347 . S
C421 H449 0.931 . S
C422 C421 1.347 . S
C422 C423 1.369 . S
C423 C422 1.369 . S
C423 C424 1.408 . S
C423 H450 0.930 . S
C424 C419 1.348 . S
C424 C423 1.408 . S
C424 H451 0.930 . S
C425 O438 1.281 . S
C425 O439 1.254 . S
C426 O440 1.236 . S
C426 O441 1.266 . S
C427 Tb417 2.809 . S
C427 C428 1.514 . S
C427 O442 1.248 . S
C427 O443 1.266 . S
C428 C427 1.514 . S
C428 C429 1.359 . S
C428 C433 1.348 . S
C429 C428 1.359 . S
C429 C430 1.380 . S
C429 H452 0.929 . S
C430 C429 1.380 . S
C430 C431 1.347 . S
C430 H453 0.931 . S
C431 C430 1.347 . S
C431 C432 1.369 . S
C432 C431 1.369 . S
C432 C433 1.408 . S
C432 H454 0.930 . S
C433 C428 1.348 . S
C433 C432 1.408 . S
C433 H455 0.930 . S
C434 O444 1.281 . S
C434 O445 1.254 . S
C435 O446 1.236 . S
C435 O447 1.266 . S
O436 Tb416 2.484 1_565 S
O436 C418 1.248 . S
O437 Tb416 2.440 . S
O437 C418 1.266 1_545 S
O438 Tb416 2.658 . S
O438 Tb417 2.325 . S
O438 C425 1.281 . S
O439 Tb416 2.409 . S
O439 C425 1.254 . S
O440 Tb416 2.378 1_565 S
O440 C426 1.236 . S
O441 Tb417 2.341 1_565 S
O441 C426 1.266 . S
O442 Tb417 2.484 . S
O442 C427 1.248 . S
O443 Tb417 2.440 . S
O443 C427 1.266 . S
O444 Tb416 2.325 . S
O444 Tb417 2.658 . S
O444 C434 1.281 . S
O445 Tb417 2.409 . S
O445 C434 1.254 . S
O446 Tb417 2.378 . S
O446 C435 1.236 . S
O447 Tb416 2.341 . S
O447 C435 1.266 . S
H448 C420 0.929 . S
H449 C421 0.931 . S
H450 C423 0.930 . S
H451 C424 0.930 . S
H452 C429 0.929 . S
H453 C430 0.931 . S
H454 C432 0.930 . S
H455 C433 0.930 . S
Tb456 C458 2.809 . S
Tb456 O476 2.484 . S
Tb456 O477 2.440 . S
Tb456 O478 2.658 . S
Tb456 O479 2.409 . S
Tb456 O480 2.378 . S
Tb456 O484 2.325 . S
Tb456 O487 2.341 . S
Tb457 C467 2.809 . S
Tb457 O478 2.325 . S
Tb457 O481 2.341 . S
Tb457 O482 2.484 . S
Tb457 O483 2.440 . S
Tb457 O484 2.658 . S
Tb457 O485 2.409 . S
Tb457 O486 2.378 . S
C458 Tb456 2.809 . S
C458 C459 1.514 . S
C458 O476 1.248 . S
C458 O477 1.266 . S
C459 C458 1.514 . S
C459 C460 1.359 . S
C459 C464 1.348 . S
C460 C459 1.359 . S
C460 C461 1.380 . S
C460 H488 0.929 . S
C461 C460 1.380 . S
C461 C462 1.347 . S
C461 H489 0.931 . S
C462 C461 1.347 . S
C462 C463 1.369 . S
C463 C462 1.369 . S
C463 C464 1.408 . S
C463 H490 0.930 . S
C464 C459 1.348 . S
C464 C463 1.408 . S
C464 H491 0.930 . S
C465 O478 1.281 . S
C465 O479 1.254 . S
C466 O480 1.236 . S
C466 O481 1.266 . S
C467 Tb457 2.809 . S
C467 C468 1.514 . S
C467 O482 1.248 . S
C467 O483 1.266 . S
C468 C467 1.514 . S
C468 C469 1.359 . S
C468 C473 1.348 . S
C469 C468 1.359 . S
C469 C470 1.380 . S
C469 H492 0.929 . S
C470 C469 1.380 . S
C470 C471 1.347 . S
C470 H493 0.931 . S
C471 C470 1.347 . S
C471 C472 1.369 . S
C472 C471 1.369 . S
C472 C473 1.408 . S
C472 H494 0.930 . S
C473 C468 1.348 . S
C473 C472 1.408 . S
C473 H495 0.930 . S
C474 O484 1.281 . S
C474 O485 1.254 . S
C475 O486 1.236 . S
C475 O487 1.266 . S
O476 Tb456 2.484 . S
O476 C458 1.248 . S
O477 Tb456 2.440 . S
O477 C458 1.266 . S
O478 Tb456 2.658 . S
O478 Tb457 2.325 . S
O478 C465 1.281 . S
O479 Tb456 2.409 . S
O479 C465 1.254 . S
O480 Tb456 2.378 . S
O480 C466 1.236 . S
O481 Tb457 2.341 . S
O481 C466 1.266 . S
O482 Tb457 2.484 . S
O482 C467 1.248 . S
O483 Tb457 2.440 . S
O483 C467 1.266 . S
O484 Tb456 2.325 . S
O484 Tb457 2.658 . S
O484 C474 1.281 . S
O485 Tb457 2.409 . S
O485 C474 1.254 . S
O486 Tb457 2.378 . S
O486 C475 1.236 . S
O487 Tb456 2.341 . S
O487 C475 1.266 . S
H488 C460 0.929 . S
H489 C461 0.931 . S
H490 C463 0.930 . S
H491 C464 0.930 . S
H492 C469 0.929 . S
H493 C470 0.931 . S
H494 C472 0.930 . S
H495 C473 0.930 . S
Tb496 C498 2.809 . S
Tb496 O516 2.484 . S
Tb496 O517 2.440 . S
Tb496 O518 2.658 . S
Tb496 O519 2.409 1_455 S
Tb496 O520 2.378 . S
Tb496 O524 2.325 . S
Tb496 O527 2.341 . S
Tb497 C507 2.809 . S
Tb497 O518 2.325 1_565 S
Tb497 O521 2.341 . S
Tb497 O522 2.484 . S
Tb497 O523 2.440 . S
Tb497 O524 2.658 1_565 S
Tb497 O525 2.409 1_565 S
Tb497 O526 2.378 1_565 S
C498 Tb496 2.809 . S
C498 C499 1.514 . S
C498 O516 1.248 . S
C498 O517 1.266 . S
C499 C498 1.514 . S
C499 C500 1.359 . S
C499 C504 1.348 1_455 S
C500 C499 1.359 . S
C500 C501 1.380 . S
C500 H528 0.929 . S
C501 C500 1.380 . S
C501 C502 1.347 . S
C501 H529 0.931 . S
C502 C501 1.347 . S
C502 C503 1.369 1_455 S
C503 C502 1.369 1_655 S
C503 C504 1.408 . S
C503 H530 0.930 . S
C504 C499 1.348 1_655 S
C504 C503 1.408 . S
C504 H531 0.930 . S
C505 O518 1.231 1_655 S
C505 O519 1.274 . S
C506 O520 1.236 . S
C506 O521 1.266 1_545 S
C507 Tb497 2.809 . S
C507 C508 1.514 . S
C507 O522 1.248 . S
C507 O523 1.266 . S
C508 C507 1.514 . S
C508 C509 1.359 . S
C508 C513 1.348 . S
C509 C508 1.359 . S
C509 C510 1.380 . S
C509 H532 0.929 . S
C510 C509 1.380 . S
C510 C511 1.347 . S
C510 H533 0.931 . S
C511 C510 1.347 . S
C511 C512 1.369 . S
C512 C511 1.369 . S
C512 C513 1.408 . S
C512 H534 0.930 . S
C513 C508 1.348 . S
C513 C512 1.408 . S
C513 H535 0.930 . S
C514 O524 1.281 . S
C514 O525 1.254 . S
C515 O526 1.236 . S
C515 O527 1.266 . S
O516 Tb496 2.484 . S
O516 C498 1.248 . S
O517 Tb496 2.440 . S
O517 C498 1.266 . S
O518 Tb496 2.658 . S
O518 Tb497 2.325 1_545 S
O518 C505 1.231 1_455 S
O519 Tb496 2.409 1_655 S
O519 C505 1.274 . S
O520 Tb496 2.378 . S
O520 C506 1.236 . S
O521 Tb497 2.341 . S
O521 C506 1.266 1_565 S
O522 Tb497 2.484 . S
O522 C507 1.248 . S
O523 Tb497 2.440 . S
O523 C507 1.266 . S
O524 Tb496 2.325 . S
O524 Tb497 2.658 1_545 S
O524 C514 1.281 . S
O525 Tb497 2.409 1_545 S
O525 C514 1.254 . S
O526 Tb497 2.378 1_545 S
O526 C515 1.236 . S
O527 Tb496 2.341 . S
O527 C515 1.266 . S
H528 C500 0.929 . S
H529 C501 0.931 . S
H530 C503 0.930 . S
H531 C504 0.930 . S
H532 C509 0.929 . S
H533 C510 0.931 . S
H534 C512 0.930 . S
H535 C513 0.930 . S
Tb536 C538 2.809 . S
Tb536 O556 2.484 . S
Tb536 O557 2.440 . S
Tb536 O558 2.658 . S
Tb536 O559 2.409 . S
Tb536 O560 2.378 . S
Tb536 O564 2.325 . S
Tb536 O567 2.341 . S
Tb537 C547 2.809 . S
Tb537 O558 2.325 . S
Tb537 O561 2.341 . S
Tb537 O562 2.484 . S
Tb537 O563 2.440 . S
Tb537 O564 2.658 . S
Tb537 O565 2.409 . S
Tb537 O566 2.378 . S
C538 Tb536 2.809 . S
C538 C539 1.514 . S
C538 O556 1.248 . S
C538 O557 1.266 . S
C539 C538 1.514 . S
C539 C540 1.359 . S
C539 C544 1.348 . S
C540 C539 1.359 . S
C540 C541 1.380 . S
C540 H568 0.929 . S
C541 C540 1.380 . S
C541 C542 1.347 . S
C541 H569 0.931 . S
C542 C541 1.347 . S
C542 C543 1.369 . S
C543 C542 1.369 . S
C543 C544 1.408 . S
C543 H570 0.930 . S
C544 C539 1.348 . S
C544 C543 1.408 . S
C544 H571 0.930 . S
C545 O558 1.281 . S
C545 O559 1.254 . S
C546 O560 1.236 . S
C546 O561 1.266 . S
C547 Tb537 2.809 . S
C547 C548 1.514 . S
C547 O562 1.248 . S
C547 O563 1.266 . S
C548 C547 1.514 . S
C548 C549 1.359 . S
C548 C553 1.348 . S
C549 C548 1.359 . S
C549 C550 1.380 . S
C549 H572 0.929 . S
C550 C549 1.380 . S
C550 C551 1.347 . S
C550 H573 0.931 . S
C551 C550 1.347 . S
C551 C552 1.369 . S
C552 C551 1.369 . S
C552 C553 1.408 . S
C552 H574 0.930 . S
C553 C548 1.348 . S
C553 C552 1.408 . S
C553 H575 0.930 . S
C554 O564 1.281 . S
C554 O565 1.254 . S
C555 O566 1.236 . S
C555 O567 1.266 . S
O556 Tb536 2.484 . S
O556 C538 1.248 . S
O557 Tb536 2.440 . S
O557 C538 1.266 . S
O558 Tb536 2.658 . S
O558 Tb537 2.325 . S
O558 C545 1.281 . S
O559 Tb536 2.409 . S
O559 C545 1.254 . S
O560 Tb536 2.378 . S
O560 C546 1.236 . S
O561 Tb537 2.341 . S
O561 C546 1.266 . S
O562 Tb537 2.484 . S
O562 C547 1.248 . S
O563 Tb537 2.440 . S
O563 C547 1.266 . S
O564 Tb536 2.325 . S
O564 Tb537 2.658 . S
O564 C554 1.281 . S
O565 Tb537 2.409 . S
O565 C554 1.254 . S
O566 Tb537 2.378 . S
O566 C555 1.236 . S
O567 Tb536 2.341 . S
O567 C555 1.266 . S
H568 C540 0.929 . S
H569 C541 0.931 . S
H570 C543 0.930 . S
H571 C544 0.930 . S
H572 C549 0.929 . S
H573 C550 0.931 . S
H574 C552 0.930 . S
H575 C553 0.930 . S
Tb576 C578 2.809 . S
Tb576 O596 2.484 1_545 S
Tb576 O597 2.440 . S
Tb576 O598 2.658 . S
Tb576 O599 2.409 . S
Tb576 O600 2.378 . S
Tb576 O604 2.325 1_545 S
Tb576 O607 2.341 1_554 S
Tb577 C587 2.809 . S
Tb577 O598 2.325 . S
Tb577 O601 2.341 . S
Tb577 O602 2.484 . S
Tb577 O603 2.440 . S
Tb577 O604 2.658 1_545 S
Tb577 O605 2.409 1_545 S
Tb577 O606 2.378 . S
C578 Tb576 2.809 . S
C578 C579 1.514 1_545 S
C578 O596 1.248 1_545 S
C578 O597 1.266 . S
C579 C578 1.514 1_565 S
C579 C580 1.359 . S
C579 C584 1.348 1_565 S
C580 C579 1.359 . S
C580 C581 1.380 . S
C580 H608 0.929 . S
C581 C580 1.380 . S
C581 C582 1.347 . S
C581 H609 0.931 . S
C582 C581 1.347 . S
C582 C583 1.383 . S
C583 C582 1.383 . S
C583 C584 1.406 1_565 S
C583 H610 0.919 1_565 S
C584 C579 1.348 1_545 S
C584 C583 1.406 1_545 S
C584 H611 0.930 . S
C585 O598 1.281 . S
C585 O599 1.254 . S
C586 O600 1.236 . S
C586 O601 1.266 . S
C587 Tb577 2.809 . S
C587 C588 1.514 . S
C587 O602 1.248 . S
C587 O603 1.266 . S
C588 C587 1.514 . S
C588 C589 1.359 . S
C588 C593 1.348 . S
C589 C588 1.359 . S
C589 C590 1.380 . S
C589 H612 0.929 . S
C590 C589 1.380 . S
C590 C591 1.347 . S
C590 H613 0.931 . S
C591 C590 1.347 . S
C591 C592 1.369 . S
C592 C591 1.369 . S
C592 C593 1.408 . S
C592 H614 0.930 . S
C593 C588 1.348 . S
C593 C592 1.408 . S
C593 H615 0.930 . S
C594 O604 1.281 . S
C594 O605 1.254 . S
C595 O606 1.236 1_556 S
C595 O607 1.266 . S
O596 Tb576 2.484 1_565 S
O596 C578 1.248 1_565 S
O597 Tb576 2.440 . S
O597 C578 1.266 . S
O598 Tb576 2.658 . S
O598 Tb577 2.325 . S
O598 C585 1.281 . S
O599 Tb576 2.409 . S
O599 C585 1.254 . S
O600 Tb576 2.378 . S
O600 C586 1.236 . S
O601 Tb577 2.341 . S
O601 C586 1.266 . S
O602 Tb577 2.484 . S
O602 C587 1.248 . S
O603 Tb577 2.440 . S
O603 C587 1.266 . S
O604 Tb576 2.325 1_565 S
O604 Tb577 2.658 1_565 S
O604 C594 1.281 . S
O605 Tb577 2.409 1_565 S
O605 C594 1.254 . S
O606 Tb577 2.378 . S
O606 C595 1.236 1_554 S
O607 Tb576 2.341 1_556 S
O607 C595 1.266 . S
H608 C580 0.929 . S
H609 C581 0.931 . S
H610 C583 0.919 1_545 S
H611 C584 0.930 . S
H612 C589 0.929 . S
H613 C590 0.931 . S
H614 C592 0.930 . S
H615 C593 0.930 . S
Tb616 C618 2.809 . S
Tb616 O636 2.484 . S
Tb616 O637 2.440 . S
Tb616 O638 2.658 . S
Tb616 O639 2.409 . S
Tb616 O640 2.378 . S
Tb616 O644 2.325 . S
Tb616 O647 2.341 . S
Tb617 C627 2.809 . S
Tb617 O638 2.325 . S
Tb617 O641 2.341 . S
Tb617 O642 2.484 . S
Tb617 O643 2.440 . S
Tb617 O644 2.658 . S
Tb617 O645 2.409 . S
Tb617 O646 2.378 . S
C618 Tb616 2.809 . S
C618 C619 1.514 . S
C618 O636 1.248 . S
C618 O637 1.266 . S
C619 C618 1.514 . S
C619 C620 1.359 . S
C619 C624 1.348 . S
C620 C619 1.359 . S
C620 C621 1.380 . S
C620 H648 0.929 . S
C621 C620 1.380 . S
C621 C622 1.347 . S
C621 H649 0.931 . S
C622 C621 1.347 . S
C622 C623 1.369 . S
C623 C622 1.369 . S
C623 C624 1.408 . S
C623 H650 0.930 . S
C624 C619 1.348 . S
C624 C623 1.408 . S
C624 H651 0.930 . S
C625 O638 1.281 . S
C625 O639 1.254 . S
C626 O640 1.236 . S
C626 O641 1.266 . S
C627 Tb617 2.809 . S
C627 C628 1.514 . S
C627 O642 1.248 . S
C627 O643 1.266 . S
C628 C627 1.514 . S
C628 C629 1.359 . S
C628 C633 1.348 . S
C629 C628 1.359 . S
C629 C630 1.380 . S
C629 H652 0.929 . S
C630 C629 1.380 . S
C630 C631 1.347 . S
C630 H653 0.931 . S
C631 C630 1.347 . S
C631 C632 1.369 . S
C632 C631 1.369 . S
C632 C633 1.408 . S
C632 H654 0.930 . S
C633 C628 1.348 . S
C633 C632 1.408 . S
C633 H655 0.930 . S
C634 O644 1.281 . S
C634 O645 1.254 . S
C635 O646 1.236 . S
C635 O647 1.266 . S
O636 Tb616 2.484 . S
O636 C618 1.248 . S
O637 Tb616 2.440 . S
O637 C618 1.266 . S
O638 Tb616 2.658 . S
O638 Tb617 2.325 . S
O638 C625 1.281 . S
O639 Tb616 2.409 . S
O639 C625 1.254 . S
O640 Tb616 2.378 . S
O640 C626 1.236 . S
O641 Tb617 2.341 . S
O641 C626 1.266 . S
O642 Tb617 2.484 . S
O642 C627 1.248 . S
O643 Tb617 2.440 . S
O643 C627 1.266 . S
O644 Tb616 2.325 . S
O644 Tb617 2.658 . S
O644 C634 1.281 . S
O645 Tb617 2.409 . S
O645 C634 1.254 . S
O646 Tb617 2.378 . S
O646 C635 1.236 . S
O647 Tb616 2.341 . S
O647 C635 1.266 . S
H648 C620 0.929 . S
H649 C621 0.931 . S
H650 C623 0.930 . S
H651 C624 0.930 . S
H652 C629 0.929 . S
H653 C630 0.931 . S
H654 C632 0.930 . S
H655 C633 0.930 . S
Tb656 C658 2.809 . S
Tb656 O676 2.484 . S
Tb656 O677 2.440 . S
Tb656 O678 2.658 . S
Tb656 O679 2.409 . S
Tb656 O680 2.378 1_554 S
Tb656 O684 2.325 . S
Tb656 O687 2.341 . S
Tb657 C667 2.809 . S
Tb657 O678 2.325 . S
Tb657 O681 2.341 1_554 S
Tb657 O682 2.484 . S
Tb657 O683 2.440 . S
Tb657 O684 2.658 . S
Tb657 O685 2.409 . S
Tb657 O686 2.378 . S
C658 Tb656 2.809 . S
C658 C659 1.514 1_554 S
C658 O676 1.248 . S
C658 O677 1.266 . S
C659 C658 1.514 1_556 S
C659 C660 1.359 . S
C659 C664 1.348 . S
C660 C659 1.359 . S
C660 C661 1.380 . S
C660 H688 0.929 . S
C661 C660 1.380 . S
C661 C662 1.347 . S
C661 H689 0.931 . S
C662 C661 1.347 . S
C662 C663 1.369 . S
C663 C662 1.369 . S
C663 C664 1.408 . S
C663 H690 0.930 . S
C664 C659 1.348 . S
C664 C663 1.408 . S
C664 H691 0.930 . S
C665 O678 1.281 . S
C665 O679 1.254 . S
C666 O680 1.236 . S
C666 O681 1.266 . S
C667 Tb657 2.809 . S
C667 C668 1.514 . S
C667 O682 1.248 . S
C667 O683 1.266 . S
C668 C667 1.514 . S
C668 C669 1.359 . S
C668 C673 1.348 . S
C669 C668 1.359 . S
C669 C670 1.380 . S
C669 H692 0.929 . S
C670 C669 1.380 . S
C670 C671 1.347 . S
C670 H693 0.931 . S
C671 C670 1.347 . S
C671 C672 1.369 . S
C672 C671 1.369 . S
C672 C673 1.408 . S
C672 H694 0.930 . S
C673 C668 1.348 . S
C673 C672 1.408 . S
C673 H695 0.930 . S
C674 O684 1.281 . S
C674 O685 1.254 . S
C675 O686 1.236 . S
C675 O687 1.266 . S
O676 Tb656 2.484 . S
O676 C658 1.248 . S
O677 Tb656 2.440 . S
O677 C658 1.266 . S
O678 Tb656 2.658 . S
O678 Tb657 2.325 . S
O678 C665 1.281 . S
O679 Tb656 2.409 . S
O679 C665 1.254 . S
O680 Tb656 2.378 1_556 S
O680 C666 1.236 . S
O681 Tb657 2.341 1_556 S
O681 C666 1.266 . S
O682 Tb657 2.484 . S
O682 C667 1.248 . S
O683 Tb657 2.440 . S
O683 C667 1.266 . S
O684 Tb656 2.325 . S
O684 Tb657 2.658 . S
O684 C674 1.281 . S
O685 Tb657 2.409 . S
O685 C674 1.254 . S
O686 Tb657 2.378 . S
O686 C675 1.236 . S
O687 Tb656 2.341 . S
O687 C675 1.266 . S
H688 C660 0.929 . S
H689 C661 0.931 . S
H690 C663 0.930 . S
H691 C664 0.930 . S
H692 C669 0.929 . S
H693 C670 0.931 . S
H694 C672 0.930 . S
H695 C673 0.930 . S
Tb696 C698 2.809 . S
Tb696 O716 2.484 . S
Tb696 O717 2.440 . S
Tb696 O718 2.658 . S
Tb696 O719 2.409 . S
Tb696 O720 2.378 . S
Tb696 O724 2.325 . S
Tb696 O727 2.341 . S
Tb697 C707 2.809 . S
Tb697 O718 2.325 . S
Tb697 O721 2.341 . S
Tb697 O722 2.484 . S
Tb697 O723 2.440 . S
Tb697 O724 2.658 . S
Tb697 O725 2.409 . S
Tb697 O726 2.378 . S
C698 Tb696 2.809 . S
C698 C699 1.514 . S
C698 O716 1.248 . S
C698 O717 1.266 . S
C699 C698 1.514 . S
C699 C700 1.359 . S
C699 C704 1.348 . S
C700 C699 1.359 . S
C700 C701 1.380 . S
C700 H728 0.929 . S
C701 C700 1.380 . S
C701 C702 1.347 . S
C701 H729 0.931 . S
C702 C701 1.347 . S
C702 C703 1.369 . S
C703 C702 1.369 . S
C703 C704 1.408 . S
C703 H730 0.930 . S
C704 C699 1.348 . S
C704 C703 1.408 . S
C704 H731 0.930 . S
C705 O718 1.281 . S
C705 O719 1.254 . S
C706 O720 1.236 . S
C706 O721 1.266 . S
C707 Tb697 2.809 . S
C707 C708 1.514 . S
C707 O722 1.248 . S
C707 O723 1.266 . S
C708 C707 1.514 . S
C708 C709 1.359 . S
C708 C713 1.348 . S
C709 C708 1.359 . S
C709 C710 1.380 . S
C709 H732 0.929 . S
C710 C709 1.380 . S
C710 C711 1.347 . S
C710 H733 0.931 . S
C711 C710 1.347 . S
C711 C712 1.369 . S
C712 C711 1.369 . S
C712 C713 1.408 . S
C712 H734 0.930 . S
C713 C708 1.348 . S
C713 C712 1.408 . S
C713 H735 0.930 . S
C714 O724 1.281 . S
C714 O725 1.254 . S
C715 O726 1.236 . S
C715 O727 1.266 . S
O716 Tb696 2.484 . S
O716 C698 1.248 . S
O717 Tb696 2.440 . S
O717 C698 1.266 . S
O718 Tb696 2.658 . S
O718 Tb697 2.325 . S
O718 C705 1.281 . S
O719 Tb696 2.409 . S
O719 C705 1.254 . S
O720 Tb696 2.378 . S
O720 C706 1.236 . S
O721 Tb697 2.341 . S
O721 C706 1.266 . S
O722 Tb697 2.484 . S
O722 C707 1.248 . S
O723 Tb697 2.440 . S
O723 C707 1.266 . S
O724 Tb696 2.325 . S
O724 Tb697 2.658 . S
O724 C714 1.281 . S
O725 Tb697 2.409 . S
O725 C714 1.254 . S
O726 Tb697 2.378 . S
O726 C715 1.236 . S
O727 Tb696 2.341 . S
O727 C715 1.266 . S
H728 C700 0.929 . S
H729 C701 0.931 . S
H730 C703 0.930 . S
H731 C704 0.930 . S
H732 C709 0.929 . S
H733 C710 0.931 . S
H734 C712 0.930 . S
H735 C713 0.930 . S
Tb736 C738 2.809 1_455 S
Tb736 O756 2.484 1_455 S
Tb736 O757 2.440 1_455 S
Tb736 O758 2.658 . S
Tb736 O759 2.409 . S
Tb736 O760 2.378 . S
Tb736 O764 2.325 . S
Tb736 O767 2.341 . S
Tb737 C747 2.809 . S
Tb737 O758 2.325 . S
Tb737 O761 2.341 . S
Tb737 O762 2.484 . S
Tb737 O763 2.440 . S
Tb737 O764 2.658 . S
Tb737 O765 2.409 . S
Tb737 O766 2.378 . S
C738 Tb736 2.809 1_655 S
C738 C739 1.514 . S
C738 O756 1.248 . S
C738 O757 1.266 . S
C739 C738 1.514 . S
C739 C740 1.359 . S
C739 C744 1.348 . S
C740 C739 1.359 . S
C740 C741 1.380 . S
C740 H768 0.929 . S
C741 C740 1.380 . S
C741 C742 1.347 . S
C741 H769 0.931 . S
C742 C741 1.347 . S
C742 C743 1.369 . S
C743 C742 1.369 . S
C743 C744 1.408 . S
C743 H770 0.930 . S
C744 C739 1.348 . S
C744 C743 1.408 . S
C744 H771 0.930 . S
C745 O758 1.281 . S
C745 O759 1.254 . S
C746 O760 1.236 . S
C746 O761 1.266 . S
C747 Tb737 2.809 . S
C747 C748 1.514 . S
C747 O762 1.248 . S
C747 O763 1.266 . S
C748 C747 1.514 . S
C748 C749 1.359 . S
C748 C753 1.348 . S
C749 C748 1.359 . S
C749 C750 1.380 . S
C749 H772 0.929 . S
C750 C749 1.380 . S
C750 C751 1.347 . S
C750 H773 0.931 . S
C751 C750 1.347 . S
C751 C752 1.369 . S
C752 C751 1.369 . S
C752 C753 1.408 . S
C752 H774 0.930 . S
C753 C748 1.348 . S
C753 C752 1.408 . S
C753 H775 0.930 . S
C754 O764 1.281 . S
C754 O765 1.254 . S
C755 O766 1.236 . S
C755 O767 1.266 . S
O756 Tb736 2.484 1_655 S
O756 C738 1.248 . S
O757 Tb736 2.440 1_655 S
O757 C738 1.266 . S
O758 Tb736 2.658 . S
O758 Tb737 2.325 . S
O758 C745 1.281 . S
O759 Tb736 2.409 . S
O759 C745 1.254 . S
O760 Tb736 2.378 . S
O760 C746 1.236 . S
O761 Tb737 2.341 . S
O761 C746 1.266 . S
O762 Tb737 2.484 . S
O762 C747 1.248 . S
O763 Tb737 2.440 . S
O763 C747 1.266 . S
O764 Tb736 2.325 . S
O764 Tb737 2.658 . S
O764 C754 1.281 . S
O765 Tb737 2.409 . S
O765 C754 1.254 . S
O766 Tb737 2.378 . S
O766 C755 1.236 . S
O767 Tb736 2.341 . S
O767 C755 1.266 . S
H768 C740 0.929 . S
H769 C741 0.931 . S
H770 C743 0.930 . S
H771 C744 0.930 . S
H772 C749 0.929 . S
H773 C750 0.931 . S
H774 C752 0.930 . S
H775 C753 0.930 . S
Tb776 C778 2.809 . S
Tb776 O796 2.484 . S
Tb776 O797 2.440 . S
Tb776 O798 2.658 . S
Tb776 O799 2.409 . S
Tb776 O800 2.378 . S
Tb776 O804 2.325 . S
Tb776 O807 2.341 . S
Tb777 C787 2.809 . S
Tb777 O798 2.325 . S
Tb777 O801 2.341 . S
Tb777 O802 2.484 . S
Tb777 O803 2.440 . S
Tb777 O804 2.658 . S
Tb777 O805 2.409 . S
Tb777 O806 2.378 . S
C778 Tb776 2.809 . S
C778 C779 1.514 . S
C778 O796 1.248 . S
C778 O797 1.266 . S
C779 C778 1.514 . S
C779 C780 1.359 . S
C779 C784 1.348 . S
C780 C779 1.359 . S
C780 C781 1.380 . S
C780 H808 0.929 . S
C781 C780 1.380 . S
C781 C782 1.347 . S
C781 H809 0.931 . S
C782 C781 1.347 . S
C782 C783 1.369 . S
C783 C782 1.369 . S
C783 C784 1.408 . S
C783 H810 0.930 . S
C784 C779 1.348 . S
C784 C783 1.408 . S
C784 H811 0.930 . S
C785 O798 1.281 . S
C785 O799 1.254 . S
C786 O800 1.236 . S
C786 O801 1.266 . S
C787 Tb777 2.809 . S
C787 C788 1.514 . S
C787 O802 1.248 . S
C787 O803 1.266 . S
C788 C787 1.514 . S
C788 C789 1.359 . S
C788 C793 1.348 . S
C789 C788 1.359 . S
C789 C790 1.380 . S
C789 H812 0.929 . S
C790 C789 1.380 . S
C790 C791 1.347 . S
C790 H813 0.931 . S
C791 C790 1.347 . S
C791 C792 1.369 . S
C792 C791 1.369 . S
C792 C793 1.408 . S
C792 H814 0.930 . S
C793 C788 1.348 . S
C793 C792 1.408 . S
C793 H815 0.930 . S
C794 O804 1.281 . S
C794 O805 1.254 . S
C795 O806 1.236 . S
C795 O807 1.266 . S
O796 Tb776 2.484 . S
O796 C778 1.248 . S
O797 Tb776 2.440 . S
O797 C778 1.266 . S
O798 Tb776 2.658 . S
O798 Tb777 2.325 . S
O798 C785 1.281 . S
O799 Tb776 2.409 . S
O799 C785 1.254 . S
O800 Tb776 2.378 . S
O800 C786 1.236 . S
O801 Tb777 2.341 . S
O801 C786 1.266 . S
O802 Tb777 2.484 . S
O802 C787 1.248 . S
O803 Tb777 2.440 . S
O803 C787 1.266 . S
O804 Tb776 2.325 . S
O804 Tb777 2.658 . S
O804 C794 1.281 . S
O805 Tb777 2.409 . S
O805 C794 1.254 . S
O806 Tb777 2.378 . S
O806 C795 1.236 . S
O807 Tb776 2.341 . S
O807 C795 1.266 . S
H808 C780 0.929 . S
H809 C781 0.931 . S
H810 C783 0.930 . S
H811 C784 0.930 . S
H812 C789 0.929 . S
H813 C790 0.931 . S
H814 C792 0.930 . S
H815 C793 0.930 . S
Tb816 C818 2.809 . S
Tb816 O836 2.484 . S
Tb816 O837 2.440 . S
Tb816 O838 2.658 . S
Tb816 O839 2.409 . S
Tb816 O840 2.378 . S
Tb816 O844 2.325 . S
Tb816 O847 2.341 . S
Tb817 C827 2.809 . S
Tb817 O838 2.325 . S
Tb817 O841 2.341 . S
Tb817 O842 2.484 . S
Tb817 O843 2.440 . S
Tb817 O844 2.658 . S
Tb817 O845 2.409 . S
Tb817 O846 2.378 . S
C818 Tb816 2.809 . S
C818 C819 1.514 . S
C818 O836 1.248 . S
C818 O837 1.266 . S
C819 C818 1.514 . S
C819 C820 1.359 . S
C819 C824 1.348 . S
C820 C819 1.359 . S
C820 C821 1.380 . S
C820 H848 0.929 . S
C821 C820 1.380 . S
C821 C822 1.347 . S
C821 H849 0.931 . S
C822 C821 1.347 . S
C822 C823 1.369 . S
C823 C822 1.369 . S
C823 C824 1.408 . S
C823 H850 0.930 . S
C824 C819 1.348 . S
C824 C823 1.408 . S
C824 H851 0.930 . S
C825 O838 1.281 . S
C825 O839 1.254 . S
C826 O840 1.236 . S
C826 O841 1.266 . S
C827 Tb817 2.809 . S
C827 C828 1.514 . S
C827 O842 1.248 . S
C827 O843 1.266 . S
C828 C827 1.514 . S
C828 C829 1.359 . S
C828 C833 1.348 . S
C829 C828 1.359 . S
C829 C830 1.380 . S
C829 H852 0.929 . S
C830 C829 1.380 . S
C830 C831 1.347 . S
C830 H853 0.931 . S
C831 C830 1.347 . S
C831 C832 1.369 . S
C832 C831 1.369 . S
C832 C833 1.408 . S
C832 H854 0.930 . S
C833 C828 1.348 . S
C833 C832 1.408 . S
C833 H855 0.930 . S
C834 O844 1.281 . S
C834 O845 1.254 . S
C835 O846 1.236 . S
C835 O847 1.266 . S
O836 Tb816 2.484 . S
O836 C818 1.248 . S
O837 Tb816 2.440 . S
O837 C818 1.266 . S
O838 Tb816 2.658 . S
O838 Tb817 2.325 . S
O838 C825 1.281 . S
O839 Tb816 2.409 . S
O839 C825 1.254 . S
O840 Tb816 2.378 . S
O840 C826 1.236 . S
O841 Tb817 2.341 . S
O841 C826 1.266 . S
O842 Tb817 2.484 . S
O842 C827 1.248 . S
O843 Tb817 2.440 . S
O843 C827 1.266 . S
O844 Tb816 2.325 . S
O844 Tb817 2.658 . S
O844 C834 1.281 . S
O845 Tb817 2.409 . S
O845 C834 1.254 . S
O846 Tb817 2.378 . S
O846 C835 1.236 . S
O847 Tb816 2.341 . S
O847 C835 1.266 . S
H848 C820 0.929 . S
H849 C821 0.931 . S
H850 C823 0.930 . S
H851 C824 0.930 . S
H852 C829 0.929 . S
H853 C830 0.931 . S
H854 C832 0.930 . S
H855 C833 0.930 . S
Tb856 C858 2.809 . S
Tb856 O876 2.484 . S
Tb856 O877 2.440 . S
Tb856 O878 2.658 . S
Tb856 O879 2.409 . S
Tb856 O880 2.378 . S
Tb856 O884 2.325 . S
Tb856 O887 2.341 . S
Tb857 C867 2.809 . S
Tb857 O878 2.325 . S
Tb857 O881 2.341 . S
Tb857 O882 2.484 . S
Tb857 O883 2.440 . S
Tb857 O884 2.658 . S
Tb857 O885 2.409 . S
Tb857 O886 2.378 . S
C858 Tb856 2.809 . S
C858 C859 1.514 . S
C858 O876 1.248 . S
C858 O877 1.266 . S
C859 C858 1.514 . S
C859 C860 1.359 . S
C859 C864 1.348 . S
C860 C859 1.359 . S
C860 C861 1.380 . S
C860 H888 0.929 . S
C861 C860 1.380 . S
C861 C862 1.347 . S
C861 H889 0.931 . S
C862 C861 1.347 . S
C862 C863 1.369 . S
C863 C862 1.369 . S
C863 C864 1.408 . S
C863 H890 0.930 . S
C864 C859 1.348 . S
C864 C863 1.408 . S
C864 H891 0.930 . S
C865 O878 1.281 . S
C865 O879 1.254 . S
C866 O880 1.236 . S
C866 O881 1.266 . S
C867 Tb857 2.809 . S
C867 C868 1.514 . S
C867 O882 1.248 . S
C867 O883 1.266 . S
C868 C867 1.514 . S
C868 C869 1.359 . S
C868 C873 1.348 . S
C869 C868 1.359 . S
C869 C870 1.380 . S
C869 H892 0.929 . S
C870 C869 1.380 . S
C870 C871 1.347 . S
C870 H893 0.931 . S
C871 C870 1.347 . S
C871 C872 1.369 . S
C872 C871 1.369 . S
C872 C873 1.408 . S
C872 H894 0.930 . S
C873 C868 1.348 . S
C873 C872 1.408 . S
C873 H895 0.930 . S
C874 O884 1.281 . S
C874 O885 1.254 . S
C875 O886 1.236 . S
C875 O887 1.266 . S
O876 Tb856 2.484 . S
O876 C858 1.248 . S
O877 Tb856 2.440 . S
O877 C858 1.266 . S
O878 Tb856 2.658 . S
O878 Tb857 2.325 . S
O878 C865 1.281 . S
O879 Tb856 2.409 . S
O879 C865 1.254 . S
O880 Tb856 2.378 . S
O880 C866 1.236 . S
O881 Tb857 2.341 . S
O881 C866 1.266 . S
O882 Tb857 2.484 . S
O882 C867 1.248 . S
O883 Tb857 2.440 . S
O883 C867 1.266 . S
O884 Tb856 2.325 . S
O884 Tb857 2.658 . S
O884 C874 1.281 . S
O885 Tb857 2.409 . S
O885 C874 1.254 . S
O886 Tb857 2.378 . S
O886 C875 1.236 . S
O887 Tb856 2.341 . S
O887 C875 1.266 . S
H888 C860 0.929 . S
H889 C861 0.931 . S
H890 C863 0.930 . S
H891 C864 0.930 . S
H892 C869 0.929 . S
H893 C870 0.931 . S
H894 C872 0.930 . S
H895 C873 0.930 . S
Tb896 C898 2.809 . S
Tb896 O916 2.484 . S
Tb896 O917 2.440 . S
Tb896 O918 2.658 . S
Tb896 O919 2.409 . S
Tb896 O920 2.378 . S
Tb896 O924 2.325 . S
Tb896 O927 2.341 . S
Tb897 C907 2.809 . S
Tb897 O918 2.325 . S
Tb897 O921 2.341 . S
Tb897 O922 2.484 . S
Tb897 O923 2.440 . S
Tb897 O924 2.658 . S
Tb897 O925 2.409 . S
Tb897 O926 2.378 . S
C898 Tb896 2.809 . S
C898 C899 1.514 . S
C898 O916 1.248 . S
C898 O917 1.266 . S
C899 C898 1.514 . S
C899 C900 1.359 . S
C899 C904 1.348 . S
C900 C899 1.359 . S
C900 C901 1.380 . S
C900 H928 0.929 . S
C901 C900 1.380 . S
C901 C902 1.347 . S
C901 H929 0.931 . S
C902 C901 1.347 . S
C902 C903 1.369 . S
C903 C902 1.369 . S
C903 C904 1.408 . S
C903 H930 0.930 . S
C904 C899 1.348 . S
C904 C903 1.408 . S
C904 H931 0.930 . S
C905 O918 1.281 . S
C905 O919 1.254 . S
C906 O920 1.236 . S
C906 O921 1.266 . S
C907 Tb897 2.809 . S
C907 C908 1.514 . S
C907 O922 1.248 . S
C907 O923 1.266 . S
C908 C907 1.514 . S
C908 C909 1.359 . S
C908 C913 1.348 . S
C909 C908 1.359 . S
C909 C910 1.380 . S
C909 H932 0.929 . S
C910 C909 1.380 . S
C910 C911 1.347 . S
C910 H933 0.931 . S
C911 C910 1.347 . S
C911 C912 1.369 . S
C912 C911 1.369 . S
C912 C913 1.408 . S
C912 H934 0.930 . S
C913 C908 1.348 . S
C913 C912 1.408 . S
C913 H935 0.930 . S
C914 O924 1.281 . S
C914 O925 1.254 . S
C915 O926 1.236 . S
C915 O927 1.266 . S
O916 Tb896 2.484 . S
O916 C898 1.248 . S
O917 Tb896 2.440 . S
O917 C898 1.266 . S
O918 Tb896 2.658 . S
O918 Tb897 2.325 . S
O918 C905 1.281 . S
O919 Tb896 2.409 . S
O919 C905 1.254 . S
O920 Tb896 2.378 . S
O920 C906 1.236 . S
O921 Tb897 2.341 . S
O921 C906 1.266 . S
O922 Tb897 2.484 . S
O922 C907 1.248 . S
O923 Tb897 2.440 . S
O923 C907 1.266 . S
O924 Tb896 2.325 . S
O924 Tb897 2.658 . S
O924 C914 1.281 . S
O925 Tb897 2.409 . S
O925 C914 1.254 . S
O926 Tb897 2.378 . S
O926 C915 1.236 . S
O927 Tb896 2.341 . S
O927 C915 1.266 . S
H928 C900 0.929 . S
H929 C901 0.931 . S
H930 C903 0.930 . S
H931 C904 0.930 . S
H932 C909 0.929 . S
H933 C910 0.931 . S
H934 C912 0.930 . S
H935 C913 0.930 . S
Tb936 C938 2.809 . S
Tb936 O956 2.484 . S
Tb936 O957 2.434 1_554 S
Tb936 O958 2.658 . S
Tb936 O959 2.409 1_554 S
Tb936 O960 2.378 . S
Tb936 O964 2.325 . S
Tb936 O967 2.341 . S
Tb937 C947 2.809 1_455 S
Tb937 O958 2.325 . S
Tb937 O961 2.341 . S
Tb937 O962 2.484 1_455 S
Tb937 O963 2.440 1_455 S
Tb937 O964 2.658 . S
Tb937 O965 2.409 . S
Tb937 O966 2.378 . S
C938 Tb936 2.809 . S
C938 C939 1.514 . S
C938 O956 1.248 . S
C938 O957 1.258 1_554 S
C939 C938 1.514 . S
C939 C940 1.359 . S
C939 C944 1.348 1_554 S
C940 C939 1.359 . S
C940 C941 1.380 . S
C940 H968 0.929 . S
C941 C940 1.380 . S
C941 C942 1.347 . S
C941 H969 0.931 . S
C942 C941 1.347 . S
C942 C943 1.369 1_554 S
C943 C942 1.369 1_556 S
C943 C944 1.408 . S
C943 H970 0.930 . S
C944 C939 1.348 1_556 S
C944 C943 1.408 . S
C944 H971 0.930 . S
C945 O958 1.281 1_556 S
C945 O959 1.254 . S
C946 O960 1.236 . S
C946 O961 1.266 . S
C947 Tb937 2.809 1_655 S
C947 C948 1.514 . S
C947 O962 1.248 . S
C947 O963 1.266 . S
C948 C947 1.514 . S
C948 C949 1.359 . S
C948 C953 1.348 . S
C949 C948 1.359 . S
C949 C950 1.380 . S
C949 H972 0.929 . S
C950 C949 1.380 . S
C950 C951 1.347 . S
C950 H973 0.931 . S
C951 C950 1.347 . S
C951 C952 1.369 . S
C952 C951 1.369 . S
C952 C953 1.408 . S
C952 H974 0.930 . S
C953 C948 1.348 . S
C953 C952 1.408 . S
C953 H975 0.930 . S
C954 O964 1.281 . S
C954 O965 1.254 . S
C955 O966 1.236 . S
C955 O967 1.266 . S
O956 Tb936 2.484 . S
O956 C938 1.248 . S
O957 Tb936 2.434 1_556 S
O957 C938 1.258 1_556 S
O958 Tb936 2.658 . S
O958 Tb937 2.325 . S
O958 C945 1.281 1_554 S
O959 Tb936 2.409 1_556 S
O959 C945 1.254 . S
O960 Tb936 2.378 . S
O960 C946 1.236 . S
O961 Tb937 2.341 . S
O961 C946 1.266 . S
O962 Tb937 2.484 1_655 S
O962 C947 1.248 . S
O963 Tb937 2.440 1_655 S
O963 C947 1.266 . S
O964 Tb936 2.325 . S
O964 Tb937 2.658 . S
O964 C954 1.281 . S
O965 Tb937 2.409 . S
O965 C954 1.254 . S
O966 Tb937 2.378 . S
O966 C955 1.236 . S
O967 Tb936 2.341 . S
O967 C955 1.266 . S
H968 C940 0.929 . S
H969 C941 0.931 . S
H970 C943 0.930 . S
H971 C944 0.930 . S
H972 C949 0.929 . S
H973 C950 0.931 . S
H974 C952 0.930 . S
H975 C953 0.930 . S
H976 C984 0.929 1_655 S
H977 C986 0.930 1_655 S
H978 C988 0.930 . S
H979 C991 0.929 . S
H980 C994 0.930 . S
H981 C996 0.960 . S
H982 C996 0.960 . S
H983 C996 0.960 . S
C984 H976 0.929 1_455 S
C984 C985 1.377 . S
C984 C986 1.384 . S
C985 C984 1.377 . S
C985 C991 1.390 . S
C986 H977 0.930 1_455 S
C986 C984 1.384 . S
C986 C987 1.372 . S
C987 C986 1.372 . S
C987 C988 1.400 . S
C987 C992 1.490 . S
C988 H978 0.930 . S
C988 C987 1.400 . S
C988 C991 1.386 . S
H989 C1005 0.930 . S
H990 C1006 0.931 . S
C991 H979 0.929 . S
C991 C985 1.390 . S
C991 C988 1.386 . S
C992 C987 1.490 . S
C992 C994 1.395 . S
C992 C995 1.403 . S
H993 C999 0.936 1_554 S
C994 H980 0.930 . S
C994 C992 1.395 . S
C994 C997 1.403 . S
C995 C992 1.403 . S
C995 C996 1.524 1_556 S
C995 C999 1.398 . S
C996 H981 0.960 . S
C996 H982 0.960 . S
C996 H983 0.960 . S
C996 C995 1.524 1_554 S
C997 C994 1.403 . S
C997 C998 1.392 . S
C997 C1001 1.495 . S
C998 C997 1.392 . S
C998 C999 1.382 . S
C998 C1000 1.478 . S
C999 H993 0.936 1_556 S
C999 C995 1.398 . S
C999 C998 1.382 . S
C1000 C998 1.478 . S
C1000 C1002 1.381 . S
C1000 C1006 1.383 1_556 S
C1001 C997 1.495 . S
C1001 H1007 0.959 . S
C1001 H1008 0.961 . S
C1001 H1009 0.960 . S
C1002 C1000 1.381 . S
C1002 C1003 1.392 1_556 S
C1002 H1010 0.930 . S
C1003 C1002 1.392 1_554 S
C1003 C1004 1.386 . S
C1003 H1011 0.929 1_554 S
C1004 C1003 1.386 . S
C1004 C1005 1.377 . S
C1005 H989 0.930 . S
C1005 C1004 1.377 . S
C1005 C1006 1.379 . S
C1006 H990 0.931 . S
C1006 C1000 1.383 1_554 S
C1006 C1005 1.379 . S
H1007 C1001 0.959 . S
H1008 C1001 0.961 . S
H1009 C1001 0.960 . S
H1010 C1002 0.930 . S
H1011 C1003 0.929 1_556 S
H1012 C1020 0.929 . S
H1013 C1022 0.930 . S
H1014 C1024 0.930 . S
H1015 C1027 0.929 . S
H1016 C1030 0.930 . S
H1017 C1032 0.960 . S
H1018 C1032 0.960 . S
H1019 C1032 0.960 . S
C1020 H1012 0.929 . S
C1020 C1021 1.377 . S
C1020 C1022 1.384 . S
C1021 C1020 1.377 . S
C1021 C1027 1.390 . S
C1022 H1013 0.930 . S
C1022 C1020 1.384 . S
C1022 C1023 1.372 . S
C1023 C1022 1.372 . S
C1023 C1024 1.400 . S
C1023 C1028 1.490 . S
C1024 H1014 0.930 . S
C1024 C1023 1.400 . S
C1024 C1027 1.386 . S
H1025 C1041 0.930 . S
H1026 C1042 0.931 . S
C1027 H1015 0.929 . S
C1027 C1021 1.390 . S
C1027 C1024 1.386 . S
C1028 C1023 1.490 . S
C1028 C1030 1.395 . S
C1028 C1031 1.403 . S
H1029 C1035 0.930 . S
C1030 H1016 0.930 . S
C1030 C1028 1.395 . S
C1030 C1033 1.403 . S
C1031 C1028 1.403 . S
C1031 C1032 1.524 . S
C1031 C1035 1.400 . S
C1032 H1017 0.960 . S
C1032 H1018 0.960 . S
C1032 H1019 0.960 . S
C1032 C1031 1.524 . S
C1033 C1030 1.403 . S
C1033 C1034 1.392 . S
C1033 C1037 1.495 . S
C1034 C1033 1.392 . S
C1034 C1035 1.385 . S
C1034 C1036 1.478 . S
C1035 H1029 0.930 . S
C1035 C1031 1.400 . S
C1035 C1034 1.385 . S
C1036 C1034 1.478 . S
C1036 C1038 1.381 . S
C1036 C1042 1.383 . S
C1037 C1033 1.495 . S
C1037 H1043 0.959 . S
C1037 H1044 0.961 . S
C1037 H1045 0.960 . S
C1038 C1036 1.381 . S
C1038 C1039 1.394 . S
C1038 H1046 0.930 . S
C1039 C1038 1.394 . S
C1039 C1040 1.383 . S
C1039 H1047 0.929 . S
C1040 C1039 1.383 . S
C1040 C1041 1.377 . S
C1041 H1025 0.930 . S
C1041 C1040 1.377 . S
C1041 C1042 1.379 . S
C1042 H1026 0.931 . S
C1042 C1036 1.383 . S
C1042 C1041 1.379 . S
H1043 C1037 0.959 . S
H1044 C1037 0.961 . S
H1045 C1037 0.960 . S
H1046 C1038 0.930 . S
H1047 C1039 0.929 . S
H1048 C1056 0.929 . S
H1049 C1058 0.930 . S
H1050 C1060 0.930 . S
H1051 C1063 0.929 . S
H1052 C1066 0.930 . S
H1053 C1068 0.960 . S
H1054 C1068 0.960 . S
H1055 C1068 0.960 . S
C1056 H1048 0.929 . S
C1056 C1057 1.377 . S
C1056 C1058 1.384 . S
C1057 C1056 1.377 . S
C1057 C1063 1.390 . S
C1058 H1049 0.930 . S
C1058 C1056 1.384 . S
C1058 C1059 1.372 . S
C1059 C1058 1.372 . S
C1059 C1060 1.400 . S
C1059 C1064 1.490 . S
C1060 H1050 0.930 . S
C1060 C1059 1.400 . S
C1060 C1063 1.386 . S
H1061 C1077 0.930 . S
H1062 C1078 0.931 . S
C1063 H1051 0.929 . S
C1063 C1057 1.390 . S
C1063 C1060 1.386 . S
C1064 C1059 1.490 . S
C1064 C1066 1.395 . S
C1064 C1067 1.403 . S
H1065 C1071 0.930 . S
C1066 H1052 0.930 . S
C1066 C1064 1.395 . S
C1066 C1069 1.403 . S
C1067 C1064 1.403 . S
C1067 C1068 1.524 . S
C1067 C1071 1.400 . S
C1068 H1053 0.960 . S
C1068 H1054 0.960 . S
C1068 H1055 0.960 . S
C1068 C1067 1.524 . S
C1069 C1066 1.403 . S
C1069 C1070 1.392 . S
C1069 C1073 1.495 . S
C1070 C1069 1.392 . S
C1070 C1071 1.385 . S
C1070 C1072 1.478 . S
C1071 H1065 0.930 . S
C1071 C1067 1.400 . S
C1071 C1070 1.385 . S
C1072 C1070 1.478 . S
C1072 C1074 1.381 . S
C1072 C1078 1.383 . S
C1073 C1069 1.495 . S
C1073 H1079 0.959 . S
C1073 H1080 0.961 . S
C1073 H1081 0.960 . S
C1074 C1072 1.381 . S
C1074 C1075 1.394 . S
C1074 H1082 0.930 . S
C1075 C1074 1.394 . S
C1075 C1076 1.383 . S
C1075 H1083 0.929 . S
C1076 C1075 1.383 . S
C1076 C1077 1.377 . S
C1077 H1061 0.930 . S
C1077 C1076 1.377 . S
C1077 C1078 1.379 . S
C1078 H1062 0.931 . S
C1078 C1072 1.383 . S
C1078 C1077 1.379 . S
H1079 C1073 0.959 . S
H1080 C1073 0.961 . S
H1081 C1073 0.960 . S
H1082 C1074 0.930 . S
H1083 C1075 0.929 . S
H1084 C1092 0.929 . S
H1085 C1094 0.930 . S
H1086 C1096 0.930 . S
H1087 C1099 0.929 . S
H1088 C1102 0.930 . S
H1089 C1104 0.960 . S
H1090 C1104 0.960 . S
H1091 C1104 0.960 . S
C1092 H1084 0.929 . S
C1092 C1093 1.377 . S
C1092 C1094 1.384 . S
C1093 C1092 1.377 . S
C1093 C1099 1.390 . S
C1094 H1085 0.930 . S
C1094 C1092 1.384 . S
C1094 C1095 1.372 . S
C1095 C1094 1.372 . S
C1095 C1096 1.400 . S
C1095 C1100 1.490 . S
C1096 H1086 0.930 . S
C1096 C1095 1.400 . S
C1096 C1099 1.386 . S
H1097 C1113 0.930 . S
H1098 C1114 0.931 . S
C1099 H1087 0.929 . S
C1099 C1093 1.390 . S
C1099 C1096 1.386 . S
C1100 C1095 1.490 . S
C1100 C1102 1.395 . S
C1100 C1103 1.403 . S
H1101 C1107 0.930 . S
C1102 H1088 0.930 . S
C1102 C1100 1.395 . S
C1102 C1105 1.403 . S
C1103 C1100 1.403 . S
C1103 C1104 1.524 . S
C1103 C1107 1.400 . S
C1104 H1089 0.960 . S
C1104 H1090 0.960 . S
C1104 H1091 0.960 . S
C1104 C1103 1.524 . S
C1105 C1102 1.403 . S
C1105 C1106 1.392 . S
C1105 C1109 1.495 . S
C1106 C1105 1.392 . S
C1106 C1107 1.385 . S
C1106 C1108 1.478 . S
C1107 H1101 0.930 . S
C1107 C1103 1.400 . S
C1107 C1106 1.385 . S
C1108 C1106 1.478 . S
C1108 C1110 1.381 . S
C1108 C1114 1.383 . S
C1109 C1105 1.495 . S
C1109 H1115 0.959 . S
C1109 H1116 0.961 . S
C1109 H1117 0.960 . S
C1110 C1108 1.381 . S
C1110 C1111 1.394 . S
C1110 H1118 0.930 . S
C1111 C1110 1.394 . S
C1111 C1112 1.383 . S
C1111 H1119 0.929 . S
C1112 C1111 1.383 . S
C1112 C1113 1.377 . S
C1113 H1097 0.930 . S
C1113 C1112 1.377 . S
C1113 C1114 1.379 . S
C1114 H1098 0.931 . S
C1114 C1108 1.383 . S
C1114 C1113 1.379 . S
H1115 C1109 0.959 . S
H1116 C1109 0.961 . S
H1117 C1109 0.960 . S
H1118 C1110 0.930 . S
H1119 C1111 0.929 . S
H1120 C1128 0.929 . S
H1121 C1130 0.930 . S
H1122 C1132 0.930 . S
H1123 C1135 0.929 . S
H1124 C1138 0.930 . S
H1125 C1140 0.960 . S
H1126 C1140 0.960 . S
H1127 C1140 0.960 . S
C1128 H1120 0.929 . S
C1128 C1129 1.377 . S
C1128 C1130 1.384 . S
C1129 C1128 1.377 . S
C1129 C1135 1.390 . S
C1130 H1121 0.930 . S
C1130 C1128 1.384 . S
C1130 C1131 1.372 . S
C1131 C1130 1.372 . S
C1131 C1132 1.400 . S
C1131 C1136 1.490 . S
C1132 H1122 0.930 . S
C1132 C1131 1.400 . S
C1132 C1135 1.386 . S
H1133 C1149 0.930 . S
H1134 C1150 0.931 . S
C1135 H1123 0.929 . S
C1135 C1129 1.390 . S
C1135 C1132 1.386 . S
C1136 C1131 1.490 . S
C1136 C1138 1.395 . S
C1136 C1139 1.403 . S
H1137 C1143 0.930 . S
C1138 H1124 0.930 . S
C1138 C1136 1.395 . S
C1138 C1141 1.403 . S
C1139 C1136 1.403 . S
C1139 C1140 1.524 . S
C1139 C1143 1.400 . S
C1140 H1125 0.960 . S
C1140 H1126 0.960 . S
C1140 H1127 0.960 . S
C1140 C1139 1.524 . S
C1141 C1138 1.403 . S
C1141 C1142 1.392 . S
C1141 C1145 1.495 . S
C1142 C1141 1.392 . S
C1142 C1143 1.385 . S
C1142 C1144 1.478 . S
C1143 H1137 0.930 . S
C1143 C1139 1.400 . S
C1143 C1142 1.385 . S
C1144 C1142 1.478 . S
C1144 C1146 1.381 . S
C1144 C1150 1.383 . S
C1145 C1141 1.495 . S
C1145 H1151 0.959 . S
C1145 H1152 0.961 . S
C1145 H1153 0.960 . S
C1146 C1144 1.381 . S
C1146 C1147 1.394 . S
C1146 H1154 0.930 . S
C1147 C1146 1.394 . S
C1147 C1148 1.383 . S
C1147 H1155 0.929 . S
C1148 C1147 1.383 . S
C1148 C1149 1.377 . S
C1149 H1133 0.930 . S
C1149 C1148 1.377 . S
C1149 C1150 1.379 . S
C1150 H1134 0.931 . S
C1150 C1144 1.383 . S
C1150 C1149 1.379 . S
H1151 C1145 0.959 . S
H1152 C1145 0.961 . S
H1153 C1145 0.960 . S
H1154 C1146 0.930 . S
H1155 C1147 0.929 . S
H1156 C1164 0.929 . S
H1157 C1166 0.930 . S
H1158 C1168 0.930 . S
H1159 C1171 0.929 . S
H1160 C1174 0.930 . S
H1161 C1176 0.960 . S
H1162 C1176 0.960 . S
H1163 C1176 0.960 . S
C1164 H1156 0.929 . S
C1164 C1165 1.377 . S
C1164 C1166 1.384 . S
C1165 C1164 1.377 . S
C1165 C1171 1.390 . S
C1166 H1157 0.930 . S
C1166 C1164 1.384 . S
C1166 C1167 1.372 . S
C1167 C1166 1.372 . S
C1167 C1168 1.400 . S
C1167 C1172 1.490 . S
C1168 H1158 0.930 . S
C1168 C1167 1.400 . S
C1168 C1171 1.386 . S
H1169 C1185 0.930 . S
H1170 C1186 0.931 . S
C1171 H1159 0.929 . S
C1171 C1165 1.390 . S
C1171 C1168 1.386 . S
C1172 C1167 1.490 . S
C1172 C1174 1.395 . S
C1172 C1175 1.403 . S
H1173 C1179 0.930 . S
C1174 H1160 0.930 . S
C1174 C1172 1.395 . S
C1174 C1177 1.403 . S
C1175 C1172 1.403 . S
C1175 C1176 1.524 . S
C1175 C1179 1.400 . S
C1176 H1161 0.960 . S
C1176 H1162 0.960 . S
C1176 H1163 0.960 . S
C1176 C1175 1.524 . S
C1177 C1174 1.403 . S
C1177 C1178 1.392 . S
C1177 C1181 1.495 . S
C1178 C1177 1.392 . S
C1178 C1179 1.385 . S
C1178 C1180 1.478 . S
C1179 H1173 0.930 . S
C1179 C1175 1.400 . S
C1179 C1178 1.385 . S
C1180 C1178 1.478 . S
C1180 C1182 1.381 . S
C1180 C1186 1.383 . S
C1181 C1177 1.495 . S
C1181 H1187 0.959 . S
C1181 H1188 0.961 . S
C1181 H1189 0.960 . S
C1182 C1180 1.381 . S
C1182 C1183 1.394 . S
C1182 H1190 0.930 . S
C1183 C1182 1.394 . S
C1183 C1184 1.383 . S
C1183 H1191 0.929 . S
C1184 C1183 1.383 . S
C1184 C1185 1.377 . S
C1185 H1169 0.930 . S
C1185 C1184 1.377 . S
C1185 C1186 1.379 . S
C1186 H1170 0.931 . S
C1186 C1180 1.383 . S
C1186 C1185 1.379 . S
H1187 C1181 0.959 . S
H1188 C1181 0.961 . S
H1189 C1181 0.960 . S
H1190 C1182 0.930 . S
H1191 C1183 0.929 . S
H1192 C1200 0.929 . S
H1193 C1202 0.930 . S
H1194 C1204 0.930 . S
H1195 C1207 0.929 . S
H1196 C1210 0.930 . S
H1197 C1212 0.960 . S
H1198 C1212 0.960 . S
H1199 C1212 0.960 . S
C1200 H1192 0.929 . S
C1200 C1201 1.377 . S
C1200 C1202 1.384 . S
C1201 C1200 1.377 . S
C1201 C1207 1.390 . S
C1202 H1193 0.930 . S
C1202 C1200 1.384 . S
C1202 C1203 1.372 . S
C1203 C1202 1.372 . S
C1203 C1204 1.400 . S
C1203 C1208 1.490 . S
C1204 H1194 0.930 . S
C1204 C1203 1.400 . S
C1204 C1207 1.386 . S
H1205 C1221 0.930 . S
H1206 C1222 0.931 . S
C1207 H1195 0.929 . S
C1207 C1201 1.390 . S
C1207 C1204 1.386 . S
C1208 C1203 1.490 . S
C1208 C1210 1.395 . S
C1208 C1211 1.403 . S
H1209 C1215 0.930 . S
C1210 H1196 0.930 . S
C1210 C1208 1.395 . S
C1210 C1213 1.403 . S
C1211 C1208 1.403 . S
C1211 C1212 1.524 . S
C1211 C1215 1.400 . S
C1212 H1197 0.960 . S
C1212 H1198 0.960 . S
C1212 H1199 0.960 . S
C1212 C1211 1.524 . S
C1213 C1210 1.403 . S
C1213 C1214 1.392 . S
C1213 C1217 1.495 . S
C1214 C1213 1.392 . S
C1214 C1215 1.385 . S
C1214 C1216 1.478 . S
C1215 H1209 0.930 . S
C1215 C1211 1.400 . S
C1215 C1214 1.385 . S
C1216 C1214 1.478 . S
C1216 C1218 1.381 . S
C1216 C1222 1.383 . S
C1217 C1213 1.495 . S
C1217 H1223 0.959 . S
C1217 H1224 0.961 . S
C1217 H1225 0.960 . S
C1218 C1216 1.381 . S
C1218 C1219 1.394 . S
C1218 H1226 0.930 . S
C1219 C1218 1.394 . S
C1219 C1220 1.383 . S
C1219 H1227 0.929 . S
C1220 C1219 1.383 . S
C1220 C1221 1.377 . S
C1221 H1205 0.930 . S
C1221 C1220 1.377 . S
C1221 C1222 1.379 . S
C1222 H1206 0.931 . S
C1222 C1216 1.383 . S
C1222 C1221 1.379 . S
H1223 C1217 0.959 . S
H1224 C1217 0.961 . S
H1225 C1217 0.960 . S
H1226 C1218 0.930 . S
H1227 C1219 0.929 . S
H1228 C1236 0.929 . S
H1229 C1238 0.930 . S
H1230 C1240 0.930 . S
H1231 C1243 0.929 . S
H1232 C1246 0.930 . S
H1233 C1248 0.960 . S
H1234 C1248 0.960 . S
H1235 C1248 0.960 . S
C1236 H1228 0.929 . S
C1236 C1237 1.377 . S
C1236 C1238 1.384 . S
C1237 C1236 1.377 . S
C1237 C1243 1.390 . S
C1238 H1229 0.930 . S
C1238 C1236 1.384 . S
C1238 C1239 1.372 . S
C1239 C1238 1.372 . S
C1239 C1240 1.400 . S
C1239 C1244 1.490 . S
C1240 H1230 0.930 . S
C1240 C1239 1.400 . S
C1240 C1243 1.386 . S
H1241 C1257 0.930 . S
H1242 C1258 0.931 . S
C1243 H1231 0.929 . S
C1243 C1237 1.390 . S
C1243 C1240 1.386 . S
C1244 C1239 1.490 . S
C1244 C1246 1.395 . S
C1244 C1247 1.403 . S
H1245 C1251 0.930 . S
C1246 H1232 0.930 . S
C1246 C1244 1.395 . S
C1246 C1249 1.403 . S
C1247 C1244 1.403 . S
C1247 C1248 1.524 . S
C1247 C1251 1.400 . S
C1248 H1233 0.960 . S
C1248 H1234 0.960 . S
C1248 H1235 0.960 . S
C1248 C1247 1.524 . S
C1249 C1246 1.403 . S
C1249 C1250 1.392 . S
C1249 C1253 1.495 . S
C1250 C1249 1.392 . S
C1250 C1251 1.385 . S
C1250 C1252 1.478 . S
C1251 H1245 0.930 . S
C1251 C1247 1.400 . S
C1251 C1250 1.385 . S
C1252 C1250 1.478 . S
C1252 C1254 1.381 . S
C1252 C1258 1.383 . S
C1253 C1249 1.495 . S
C1253 H1259 0.959 . S
C1253 H1260 0.961 . S
C1253 H1261 0.960 . S
C1254 C1252 1.381 . S
C1254 C1255 1.394 . S
C1254 H1262 0.930 . S
C1255 C1254 1.394 . S
C1255 C1256 1.383 . S
C1255 H1263 0.929 . S
C1256 C1255 1.383 . S
C1256 C1257 1.377 . S
C1257 H1241 0.930 . S
C1257 C1256 1.377 . S
C1257 C1258 1.379 . S
C1258 H1242 0.931 . S
C1258 C1252 1.383 . S
C1258 C1257 1.379 . S
H1259 C1253 0.959 . S
H1260 C1253 0.961 . S
H1261 C1253 0.960 . S
H1262 C1254 0.930 . S
H1263 C1255 0.929 . S
H1264 C1272 0.929 . S
H1265 C1274 0.930 . S
H1266 C1276 0.930 . S
H1267 C1279 0.929 . S
H1268 C1282 0.930 . S
H1269 C1284 0.960 1_455 S
H1270 C1284 0.960 . S
H1271 C1284 0.961 1_445 S
C1272 H1264 0.929 . S
C1272 C1273 1.377 1_565 S
C1272 C1274 1.384 . S
C1273 C1272 1.377 1_545 S
C1273 C1279 1.390 . S
C1274 H1265 0.930 . S
C1274 C1272 1.384 . S
C1274 C1275 1.372 1_565 S
C1275 C1274 1.372 1_545 S
C1275 C1276 1.400 . S
C1275 C1280 1.490 . S
C1276 H1266 0.930 . S
C1276 C1275 1.400 . S
C1276 C1279 1.386 . S
H1277 C1293 0.930 . S
H1278 C1294 0.931 . S
C1279 H1267 0.929 . S
C1279 C1273 1.390 . S
C1279 C1276 1.386 . S
C1280 C1275 1.490 . S
C1280 C1282 1.395 . S
C1280 C1283 1.403 . S
H1281 C1287 0.930 1_455 S
C1282 H1268 0.930 . S
C1282 C1280 1.395 . S
C1282 C1285 1.403 . S
C1283 C1280 1.403 . S
C1283 C1284 1.524 1_545 S
C1283 C1287 1.400 . S
C1284 H1269 0.960 1_655 S
C1284 H1270 0.960 . S
C1284 H1271 0.961 1_665 S
C1284 C1283 1.524 1_565 S
C1285 C1282 1.403 . S
C1285 C1286 1.392 . S
C1285 C1289 1.495 . S
C1286 C1285 1.392 . S
C1286 C1287 1.385 . S
C1286 C1288 1.478 . S
C1287 H1281 0.930 1_655 S
C1287 C1283 1.400 . S
C1287 C1286 1.385 . S
C1288 C1286 1.478 . S
C1288 C1290 1.381 . S
C1288 C1294 1.383 1_655 S
C1289 C1285 1.495 . S
C1289 H1295 0.959 . S
C1289 H1296 0.961 . S
C1289 H1297 0.960 . S
C1290 C1288 1.381 . S
C1290 C1291 1.433 . S
C1290 H1298 0.930 . S
C1291 C1290 1.433 . S
C1291 C1292 1.334 1_655 S
C1291 H1299 0.943 . S
C1292 C1291 1.334 1_455 S
C1292 C1293 1.377 . S
C1293 H1277 0.930 . S
C1293 C1292 1.377 . S
C1293 C1294 1.379 . S
C1294 H1278 0.931 . S
C1294 C1288 1.383 1_455 S
C1294 C1293 1.379 . S
H1295 C1289 0.959 . S
H1296 C1289 0.961 . S
H1297 C1289 0.960 . S
H1298 C1290 0.930 . S
H1299 C1291 0.943 . S
H1300 C1308 0.929 . S
H1301 C1310 0.930 . S
H1302 C1312 0.930 . S
H1303 C1315 0.929 . S
H1304 C1318 0.930 . S
H1305 C1320 0.960 . S
H1306 C1320 0.960 . S
H1307 C1320 0.960 . S
C1308 H1300 0.929 . S
C1308 C1309 1.377 . S
C1308 C1310 1.384 . S
C1309 C1308 1.377 . S
C1309 C1315 1.390 . S
C1310 H1301 0.930 . S
C1310 C1308 1.384 . S
C1310 C1311 1.372 . S
C1311 C1310 1.372 . S
C1311 C1312 1.400 . S
C1311 C1316 1.490 . S
C1312 H1302 0.930 . S
C1312 C1311 1.400 . S
C1312 C1315 1.386 . S
H1313 C1329 0.930 . S
H1314 C1330 0.931 . S
C1315 H1303 0.929 . S
C1315 C1309 1.390 . S
C1315 C1312 1.386 . S
C1316 C1311 1.490 . S
C1316 C1318 1.395 . S
C1316 C1319 1.403 . S
H1317 C1323 0.930 . S
C1318 H1304 0.930 . S
C1318 C1316 1.395 . S
C1318 C1321 1.403 . S
C1319 C1316 1.403 . S
C1319 C1320 1.524 . S
C1319 C1323 1.400 . S
C1320 H1305 0.960 . S
C1320 H1306 0.960 . S
C1320 H1307 0.960 . S
C1320 C1319 1.524 . S
C1321 C1318 1.403 . S
C1321 C1322 1.392 . S
C1321 C1325 1.495 . S
C1322 C1321 1.392 . S
C1322 C1323 1.385 . S
C1322 C1324 1.478 . S
C1323 H1317 0.930 . S
C1323 C1319 1.400 . S
C1323 C1322 1.385 . S
C1324 C1322 1.478 . S
C1324 C1326 1.381 . S
C1324 C1330 1.383 . S
C1325 C1321 1.495 . S
C1325 H1331 0.959 . S
C1325 H1332 0.961 . S
C1325 H1333 0.960 . S
C1326 C1324 1.381 . S
C1326 C1327 1.394 . S
C1326 H1334 0.930 . S
C1327 C1326 1.394 . S
C1327 C1328 1.383 . S
C1327 H1335 0.929 . S
C1328 C1327 1.383 . S
C1328 C1329 1.377 . S
C1329 H1313 0.930 . S
C1329 C1328 1.377 . S
C1329 C1330 1.379 . S
C1330 H1314 0.931 . S
C1330 C1324 1.383 . S
C1330 C1329 1.379 . S
H1331 C1325 0.959 . S
H1332 C1325 0.961 . S
H1333 C1325 0.960 . S
H1334 C1326 0.930 . S
H1335 C1327 0.929 . S
H1336 C1344 0.918 1_565 S
H1337 C1346 0.930 1_565 S
H1338 C1348 0.930 . S
H1339 C1351 0.929 . S
H1340 C1354 0.930 . S
H1341 C1356 0.960 . S
H1342 C1356 0.960 . S
H1343 C1356 0.960 . S
C1344 H1336 0.918 1_545 S
C1344 C1345 1.380 . S
C1344 C1346 1.393 . S
C1345 C1344 1.380 . S
C1345 C1351 1.390 . S
C1346 H1337 0.930 1_545 S
C1346 C1344 1.393 . S
C1346 C1347 1.372 . S
C1347 C1346 1.372 . S
C1347 C1348 1.400 . S
C1347 C1352 1.490 . S
C1348 H1338 0.930 . S
C1348 C1347 1.400 . S
C1348 C1351 1.386 . S
H1349 C1365 0.930 . S
H1350 C1366 0.931 . S
C1351 H1339 0.929 . S
C1351 C1345 1.390 . S
C1351 C1348 1.386 . S
C1352 C1347 1.490 . S
C1352 C1354 1.395 . S
C1352 C1355 1.403 1_545 S
H1353 C1359 0.956 . S
C1354 H1340 0.930 . S
C1354 C1352 1.395 . S
C1354 C1357 1.403 . S
C1355 C1352 1.403 1_565 S
C1355 C1356 1.524 . S
C1355 C1359 1.419 . S
C1356 H1341 0.960 . S
C1356 H1342 0.960 . S
C1356 H1343 0.960 . S
C1356 C1355 1.524 . S
C1357 C1354 1.403 . S
C1357 C1358 1.392 . S
C1357 C1361 1.495 . S
C1358 C1357 1.392 . S
C1358 C1359 1.344 1_545 S
C1358 C1360 1.478 . S
C1359 H1353 0.956 . S
C1359 C1355 1.419 . S
C1359 C1358 1.344 1_565 S
C1360 C1358 1.478 . S
C1360 C1362 1.381 . S
C1360 C1366 1.383 . S
C1361 C1357 1.495 . S
C1361 H1367 0.959 . S
C1361 H1368 0.961 . S
C1361 H1369 0.960 . S
C1362 C1360 1.381 . S
C1362 C1363 1.394 . S
C1362 H1370 0.939 . S
C1363 C1362 1.394 . S
C1363 C1364 1.383 . S
C1363 H1371 0.926 1_545 S
C1364 C1363 1.383 . S
C1364 C1365 1.377 . S
C1365 H1349 0.930 . S
C1365 C1364 1.377 . S
C1365 C1366 1.379 . S
C1366 H1350 0.931 . S
C1366 C1360 1.383 . S
C1366 C1365 1.379 . S
H1367 C1361 0.959 . S
H1368 C1361 0.961 . S
H1369 C1361 0.960 . S
H1370 C1362 0.939 . S
H1371 C1363 0.926 1_565 S
H1372 C1380 0.929 . S
H1373 C1382 0.930 . S
H1374 C1384 0.930 . S
H1375 C1387 0.929 . S
H1376 C1390 0.930 . S
H1377 C1392 0.960 . S
H1378 C1392 0.960 . S
H1379 C1392 0.960 . S
C1380 H1372 0.929 . S
C1380 C1381 1.377 . S
C1380 C1382 1.384 . S
C1381 C1380 1.377 . S
C1381 C1387 1.390 . S
C1382 H1373 0.930 . S
C1382 C1380 1.384 . S
C1382 C1383 1.372 . S
C1383 C1382 1.372 . S
C1383 C1384 1.400 . S
C1383 C1388 1.490 . S
C1384 H1374 0.930 . S
C1384 C1383 1.400 . S
C1384 C1387 1.386 . S
H1385 C1401 0.930 . S
H1386 C1402 0.931 . S
C1387 H1375 0.929 . S
C1387 C1381 1.390 . S
C1387 C1384 1.386 . S
C1388 C1383 1.490 . S
C1388 C1390 1.395 . S
C1388 C1391 1.403 . S
H1389 C1395 0.930 . S
C1390 H1376 0.930 . S
C1390 C1388 1.395 . S
C1390 C1393 1.403 . S
C1391 C1388 1.403 . S
C1391 C1392 1.524 . S
C1391 C1395 1.400 . S
C1392 H1377 0.960 . S
C1392 H1378 0.960 . S
C1392 H1379 0.960 . S
C1392 C1391 1.524 . S
C1393 C1390 1.403 . S
C1393 C1394 1.392 . S
C1393 C1397 1.495 . S
C1394 C1393 1.392 . S
C1394 C1395 1.385 . S
C1394 C1396 1.478 . S
C1395 H1389 0.930 . S
C1395 C1391 1.400 . S
C1395 C1394 1.385 . S
C1396 C1394 1.478 . S
C1396 C1398 1.381 . S
C1396 C1402 1.383 . S
C1397 C1393 1.495 . S
C1397 H1403 0.959 . S
C1397 H1404 0.961 . S
C1397 H1405 0.960 . S
C1398 C1396 1.381 . S
C1398 C1399 1.394 . S
C1398 H1406 0.930 . S
C1399 C1398 1.394 . S
C1399 C1400 1.383 . S
C1399 H1407 0.929 . S
C1400 C1399 1.383 . S
C1400 C1401 1.377 . S
C1401 H1385 0.930 . S
C1401 C1400 1.377 . S
C1401 C1402 1.379 . S
C1402 H1386 0.931 . S
C1402 C1396 1.383 . S
C1402 C1401 1.379 . S
H1403 C1397 0.959 . S
H1404 C1397 0.961 . S
H1405 C1397 0.960 . S
H1406 C1398 0.930 . S
H1407 C1399 0.929 . S
H1408 C1416 0.929 . S
H1409 C1418 0.930 . S
H1410 C1420 0.930 . S
H1411 C1423 0.929 . S
H1412 C1426 0.930 . S
H1413 C1428 0.960 . S
H1414 C1428 0.960 . S
H1415 C1428 0.960 . S
C1416 H1408 0.929 . S
C1416 C1417 1.377 . S
C1416 C1418 1.384 . S
C1417 C1416 1.377 . S
C1417 C1423 1.390 1_545 S
C1418 H1409 0.930 . S
C1418 C1416 1.384 . S
C1418 C1419 1.372 . S
C1419 C1418 1.372 . S
C1419 C1420 1.400 1_545 S
C1419 C1424 1.490 . S
C1420 H1410 0.930 . S
C1420 C1419 1.400 1_565 S
C1420 C1423 1.386 . S
H1421 C1437 0.920 1_665 S
H1422 C1438 0.931 1_565 S
C1423 H1411 0.929 . S
C1423 C1417 1.390 1_565 S
C1423 C1420 1.386 . S
C1424 C1419 1.490 . S
C1424 C1426 1.395 . S
C1424 C1427 1.403 1_545 S
H1425 C1431 0.882 1_565 S
C1426 H1412 0.930 . S
C1426 C1424 1.395 . S
C1426 C1429 1.403 . S
C1427 C1424 1.403 1_565 S
C1427 C1428 1.524 . S
C1427 C1431 1.406 1_565 S
C1428 H1413 0.960 . S
C1428 H1414 0.960 . S
C1428 H1415 0.960 . S
C1428 C1427 1.524 . S
C1429 C1426 1.403 . S
C1429 C1430 1.392 . S
C1429 C1433 1.495 . S
C1430 C1429 1.392 . S
C1430 C1431 1.427 . S
C1430 C1432 1.478 . S
C1431 H1425 0.882 1_545 S
C1431 C1427 1.406 1_545 S
C1431 C1430 1.427 . S
C1432 C1430 1.478 . S
C1432 C1434 1.381 1_655 S
C1432 C1438 1.383 . S
C1433 C1429 1.495 . S
C1433 H1439 0.959 . S
C1433 H1440 0.961 . S
C1433 H1441 0.960 . S
C1434 C1432 1.381 1_455 S
C1434 C1435 1.394 . S
C1434 H1442 0.930 . S
C1435 C1434 1.394 . S
C1435 C1436 1.383 . S
C1435 H1443 0.929 . S
C1436 C1435 1.383 . S
C1436 C1437 1.399 . S
C1437 H1421 0.920 1_445 S
C1437 C1436 1.399 . S
C1437 C1438 1.368 1_455 S
C1438 H1422 0.931 1_545 S
C1438 C1432 1.383 . S
C1438 C1437 1.368 1_655 S
H1439 C1433 0.959 . S
H1440 C1433 0.961 . S
H1441 C1433 0.960 . S
H1442 C1434 0.930 . S
H1443 C1435 0.929 . S
H1444 C1452 0.929 . S
H1445 C1454 0.930 . S
H1446 C1456 0.930 . S
H1447 C1459 0.929 . S
H1448 C1462 0.930 . S
H1449 C1464 0.960 . S
H1450 C1464 0.960 . S
H1451 C1464 0.960 . S
C1452 H1444 0.929 . S
C1452 C1453 1.377 . S
C1452 C1454 1.384 . S
C1453 C1452 1.377 . S
C1453 C1459 1.390 . S
C1454 H1445 0.930 . S
C1454 C1452 1.384 . S
C1454 C1455 1.372 . S
C1455 C1454 1.372 . S
C1455 C1456 1.400 . S
C1455 C1460 1.490 . S
C1456 H1446 0.930 . S
C1456 C1455 1.400 . S
C1456 C1459 1.386 . S
H1457 C1473 0.930 . S
H1458 C1474 0.931 . S
C1459 H1447 0.929 . S
C1459 C1453 1.390 . S
C1459 C1456 1.386 . S
C1460 C1455 1.490 . S
C1460 C1462 1.395 . S
C1460 C1463 1.403 . S
H1461 C1467 0.930 . S
C1462 H1448 0.930 . S
C1462 C1460 1.395 . S
C1462 C1465 1.403 . S
C1463 C1460 1.403 . S
C1463 C1464 1.524 . S
C1463 C1467 1.400 . S
C1464 H1449 0.960 . S
C1464 H1450 0.960 . S
C1464 H1451 0.960 . S
C1464 C1463 1.524 . S
C1465 C1462 1.403 . S
C1465 C1466 1.392 . S
C1465 C1469 1.495 . S
C1466 C1465 1.392 . S
C1466 C1467 1.385 . S
C1466 C1468 1.478 . S
C1467 H1461 0.930 . S
C1467 C1463 1.400 . S
C1467 C1466 1.385 . S
C1468 C1466 1.478 . S
C1468 C1470 1.381 . S
C1468 C1474 1.383 . S
C1469 C1465 1.495 . S
C1469 H1475 0.959 . S
C1469 H1476 0.961 . S
C1469 H1477 0.960 . S
C1470 C1468 1.381 . S
C1470 C1471 1.394 . S
C1470 H1478 0.930 . S
C1471 C1470 1.394 . S
C1471 C1472 1.383 . S
C1471 H1479 0.929 . S
C1472 C1471 1.383 . S
C1472 C1473 1.377 . S
C1473 H1457 0.930 . S
C1473 C1472 1.377 . S
C1473 C1474 1.379 . S
C1474 H1458 0.931 . S
C1474 C1468 1.383 . S
C1474 C1473 1.379 . S
H1475 C1469 0.959 . S
H1476 C1469 0.961 . S
H1477 C1469 0.960 . S
H1478 C1470 0.930 . S
H1479 C1471 0.929 . S
H1480 C1488 0.929 . S
H1481 C1490 0.930 . S
H1482 C1492 0.930 1_565 S
H1483 C1495 0.929 1_565 S
H1484 C1498 0.930 . S
H1485 C1500 0.960 . S
H1486 C1500 0.960 . S
H1487 C1500 0.960 . S
C1488 H1480 0.929 . S
C1488 C1489 1.377 . S
C1488 C1490 1.384 . S
C1489 C1488 1.377 . S
C1489 C1495 1.390 . S
C1490 H1481 0.930 . S
C1490 C1488 1.384 . S
C1490 C1491 1.372 . S
C1491 C1490 1.372 . S
C1491 C1492 1.400 . S
C1491 C1496 1.490 . S
C1492 H1482 0.930 1_545 S
C1492 C1491 1.400 . S
C1492 C1495 1.386 . S
H1493 C1509 0.930 . S
H1494 C1510 0.934 1_565 S
C1495 H1483 0.929 1_545 S
C1495 C1489 1.390 . S
C1495 C1492 1.386 . S
C1496 C1491 1.490 . S
C1496 C1498 1.395 . S
C1496 C1499 1.403 . S
H1497 C1503 0.930 . S
C1498 H1484 0.930 . S
C1498 C1496 1.395 . S
C1498 C1501 1.403 . S
C1499 C1496 1.403 . S
C1499 C1500 1.524 . S
C1499 C1503 1.400 . S
C1500 H1485 0.960 . S
C1500 H1486 0.960 . S
C1500 H1487 0.960 . S
C1500 C1499 1.524 . S
C1501 C1498 1.403 . S
C1501 C1502 1.392 . S
C1501 C1505 1.495 . S
C1502 C1501 1.392 . S
C1502 C1503 1.385 . S
C1502 C1504 1.478 . S
C1503 H1497 0.930 . S
C1503 C1499 1.400 . S
C1503 C1502 1.385 . S
C1504 C1502 1.478 . S
C1504 C1506 1.381 . S
C1504 C1510 1.383 . S
C1505 C1501 1.495 . S
C1505 H1511 0.959 . S
C1505 H1512 0.961 . S
C1505 H1513 0.960 . S
C1506 C1504 1.381 . S
C1506 C1507 1.394 . S
C1506 H1514 0.930 . S
C1507 C1506 1.394 . S
C1507 C1508 1.383 . S
C1507 H1515 0.929 . S
C1508 C1507 1.383 . S
C1508 C1509 1.377 . S
C1509 H1493 0.930 . S
C1509 C1508 1.377 . S
C1509 C1510 1.379 . S
C1510 H1494 0.934 1_545 S
C1510 C1504 1.383 . S
C1510 C1509 1.379 . S
H1511 C1505 0.959 . S
H1512 C1505 0.961 . S
H1513 C1505 0.960 . S
H1514 C1506 0.930 . S
H1515 C1507 0.929 . S
H1516 C1524 0.929 . S
H1517 C1526 0.930 . S
H1518 C1528 0.930 . S
H1519 C1531 0.929 . S
H1520 C1534 0.930 . S
H1521 C1536 0.960 . S
H1522 C1536 0.960 . S
H1523 C1536 0.960 . S
C1524 H1516 0.929 . S
C1524 C1525 1.377 . S
C1524 C1526 1.384 . S
C1525 C1524 1.377 . S
C1525 C1531 1.390 . S
C1526 H1517 0.930 . S
C1526 C1524 1.384 . S
C1526 C1527 1.372 . S
C1527 C1526 1.372 . S
C1527 C1528 1.400 . S
C1527 C1532 1.490 . S
C1528 H1518 0.930 . S
C1528 C1527 1.400 . S
C1528 C1531 1.386 . S
H1529 C1545 0.930 . S
H1530 C1546 0.931 . S
C1531 H1519 0.929 . S
C1531 C1525 1.390 . S
C1531 C1528 1.386 . S
C1532 C1527 1.490 . S
C1532 C1534 1.395 . S
C1532 C1535 1.403 . S
H1533 C1539 0.930 . S
C1534 H1520 0.930 . S
C1534 C1532 1.395 . S
C1534 C1537 1.403 . S
C1535 C1532 1.403 . S
C1535 C1536 1.524 . S
C1535 C1539 1.400 . S
C1536 H1521 0.960 . S
C1536 H1522 0.960 . S
C1536 H1523 0.960 . S
C1536 C1535 1.524 . S
C1537 C1534 1.403 . S
C1537 C1538 1.392 . S
C1537 C1541 1.495 . S
C1538 C1537 1.392 . S
C1538 C1539 1.385 . S
C1538 C1540 1.478 . S
C1539 H1533 0.930 . S
C1539 C1535 1.400 . S
C1539 C1538 1.385 . S
C1540 C1538 1.478 . S
C1540 C1542 1.381 . S
C1540 C1546 1.383 . S
C1541 C1537 1.495 . S
C1541 H1547 0.959 . S
C1541 H1548 0.961 . S
C1541 H1549 0.960 . S
C1542 C1540 1.381 . S
C1542 C1543 1.394 . S
C1542 H1550 0.930 . S
C1543 C1542 1.394 . S
C1543 C1544 1.383 . S
C1543 H1551 0.929 . S
C1544 C1543 1.383 . S
C1544 C1545 1.377 . S
C1545 H1529 0.930 . S
C1545 C1544 1.377 . S
C1545 C1546 1.379 . S
C1546 H1530 0.931 . S
C1546 C1540 1.383 . S
C1546 C1545 1.379 . S
H1547 C1541 0.959 . S
H1548 C1541 0.961 . S
H1549 C1541 0.960 . S
H1550 C1542 0.930 . S
H1551 C1543 0.929 . S
H1552 C1560 0.929 . S
H1553 C1562 0.930 . S
H1554 C1564 0.930 . S
H1555 C1567 0.929 . S
H1556 C1570 0.930 . S
H1557 C1572 0.960 . S
H1558 C1572 0.960 . S
H1559 C1572 0.960 . S
C1560 H1552 0.929 . S
C1560 C1561 1.377 . S
C1560 C1562 1.384 . S
C1561 C1560 1.377 . S
C1561 C1567 1.390 1_554 S
C1562 H1553 0.930 . S
C1562 C1560 1.384 . S
C1562 C1563 1.372 . S
C1563 C1562 1.372 . S
C1563 C1564 1.400 1_554 S
C1563 C1568 1.490 . S
C1564 H1554 0.930 . S
C1564 C1563 1.400 1_556 S
C1564 C1567 1.386 . S
H1565 C1581 0.930 . S
H1566 C1582 0.931 . S
C1567 H1555 0.929 . S
C1567 C1561 1.390 1_556 S
C1567 C1564 1.386 . S
C1568 C1563 1.490 . S
C1568 C1570 1.395 . S
C1568 C1571 1.403 . S
H1569 C1575 0.930 . S
C1570 H1556 0.930 . S
C1570 C1568 1.395 . S
C1570 C1573 1.403 . S
C1571 C1568 1.403 . S
C1571 C1572 1.524 . S
C1571 C1575 1.400 . S
C1572 H1557 0.960 . S
C1572 H1558 0.960 . S
C1572 H1559 0.960 . S
C1572 C1571 1.524 . S
C1573 C1570 1.403 . S
C1573 C1574 1.392 . S
C1573 C1577 1.495 . S
C1574 C1573 1.392 . S
C1574 C1575 1.385 . S
C1574 C1576 1.478 . S
C1575 H1569 0.930 . S
C1575 C1571 1.400 . S
C1575 C1574 1.385 . S
C1576 C1574 1.478 . S
C1576 C1578 1.381 . S
C1576 C1582 1.383 . S
C1577 C1573 1.495 . S
C1577 H1583 0.959 . S
C1577 H1584 0.961 . S
C1577 H1585 0.960 . S
C1578 C1576 1.381 . S
C1578 C1579 1.394 . S
C1578 H1586 0.930 . S
C1579 C1578 1.394 . S
C1579 C1580 1.383 . S
C1579 H1587 0.929 . S
C1580 C1579 1.383 . S
C1580 C1581 1.377 . S
C1581 H1565 0.930 . S
C1581 C1580 1.377 . S
C1581 C1582 1.379 . S
C1582 H1566 0.931 . S
C1582 C1576 1.383 . S
C1582 C1581 1.379 . S
H1583 C1577 0.959 . S
H1584 C1577 0.961 . S
H1585 C1577 0.960 . S
H1586 C1578 0.930 . S
H1587 C1579 0.929 . S
H1588 C1596 0.929 1_556 S
H1589 C1598 0.930 1_556 S
H1590 C1600 0.930 . S
H1591 C1603 0.929 . S
H1592 C1606 0.930 . S
H1593 C1608 0.965 . S
H1594 C1608 0.960 1_556 S
H1595 C1608 0.960 . S
C1596 H1588 0.929 1_554 S
C1596 C1597 1.377 . S
C1596 C1598 1.384 . S
C1597 C1596 1.377 . S
C1597 C1603 1.390 . S
C1598 H1589 0.930 1_554 S
C1598 C1596 1.384 . S
C1598 C1599 1.372 . S
C1599 C1598 1.372 . S
C1599 C1600 1.400 . S
C1599 C1604 1.490 . S
C1600 H1590 0.930 . S
C1600 C1599 1.400 . S
C1600 C1603 1.386 . S
H1601 C1617 0.930 . S
H1602 C1618 0.931 . S
C1603 H1591 0.929 . S
C1603 C1597 1.390 . S
C1603 C1600 1.386 . S
C1604 C1599 1.490 . S
C1604 C1606 1.395 . S
C1604 C1607 1.403 . S
H1605 C1611 0.930 . S
C1606 H1592 0.930 . S
C1606 C1604 1.395 . S
C1606 C1609 1.403 . S
C1607 C1604 1.403 . S
C1607 C1608 1.524 . S
C1607 C1611 1.400 . S
C1608 H1593 0.965 . S
C1608 H1594 0.960 1_554 S
C1608 H1595 0.960 . S
C1608 C1607 1.524 . S
C1609 C1606 1.403 . S
C1609 C1610 1.392 . S
C1609 C1613 1.495 . S
C1610 C1609 1.392 . S
C1610 C1611 1.385 . S
C1610 C1612 1.478 . S
C1611 H1605 0.930 . S
C1611 C1607 1.400 . S
C1611 C1610 1.385 . S
C1612 C1610 1.478 . S
C1612 C1614 1.381 . S
C1612 C1618 1.383 . S
C1613 C1609 1.495 . S
C1613 H1619 0.959 . S
C1613 H1620 0.961 . S
C1613 H1621 0.960 . S
C1614 C1612 1.381 . S
C1614 C1615 1.394 . S
C1614 H1622 0.930 1_554 S
C1615 C1614 1.394 . S
C1615 C1616 1.383 . S
C1615 H1623 0.929 1_554 S
C1616 C1615 1.383 . S
C1616 C1617 1.377 . S
C1617 H1601 0.930 . S
C1617 C1616 1.377 . S
C1617 C1618 1.379 . S
C1618 H1602 0.931 . S
C1618 C1612 1.383 . S
C1618 C1617 1.379 . S
H1619 C1613 0.959 . S
H1620 C1613 0.961 . S
H1621 C1613 0.960 . S
H1622 C1614 0.930 1_556 S
H1623 C1615 0.929 1_556 S
H1624 C1632 0.929 . S
H1625 C1634 0.930 . S
H1626 C1636 0.930 . S
H1627 C1639 0.929 . S
H1628 C1642 0.930 . S
H1629 C1644 0.960 . S
H1630 C1644 0.960 . S
H1631 C1644 0.960 . S
C1632 H1624 0.929 . S
C1632 C1633 1.377 . S
C1632 C1634 1.384 . S
C1633 C1632 1.377 . S
C1633 C1639 1.390 . S
C1634 H1625 0.930 . S
C1634 C1632 1.384 . S
C1634 C1635 1.372 . S
C1635 C1634 1.372 . S
C1635 C1636 1.400 . S
C1635 C1640 1.490 . S
C1636 H1626 0.930 . S
C1636 C1635 1.400 . S
C1636 C1639 1.386 . S
H1637 C1653 0.930 . S
H1638 C1654 0.931 . S
C1639 H1627 0.929 . S
C1639 C1633 1.390 . S
C1639 C1636 1.386 . S
C1640 C1635 1.490 . S
C1640 C1642 1.395 . S
C1640 C1643 1.403 . S
H1641 C1647 0.930 . S
C1642 H1628 0.930 . S
C1642 C1640 1.395 . S
C1642 C1645 1.403 . S
C1643 C1640 1.403 . S
C1643 C1644 1.524 . S
C1643 C1647 1.400 . S
C1644 H1629 0.960 . S
C1644 H1630 0.960 . S
C1644 H1631 0.960 . S
C1644 C1643 1.524 . S
C1645 C1642 1.403 . S
C1645 C1646 1.392 . S
C1645 C1649 1.495 . S
C1646 C1645 1.392 . S
C1646 C1647 1.385 . S
C1646 C1648 1.478 . S
C1647 H1641 0.930 . S
C1647 C1643 1.400 . S
C1647 C1646 1.385 . S
C1648 C1646 1.478 . S
C1648 C1650 1.381 . S
C1648 C1654 1.383 . S
C1649 C1645 1.495 . S
C1649 H1655 0.959 . S
C1649 H1656 0.961 . S
C1649 H1657 0.960 . S
C1650 C1648 1.381 . S
C1650 C1651 1.394 . S
C1650 H1658 0.930 . S
C1651 C1650 1.394 . S
C1651 C1652 1.383 . S
C1651 H1659 0.929 . S
C1652 C1651 1.383 . S
C1652 C1653 1.377 . S
C1653 H1637 0.930 . S
C1653 C1652 1.377 . S
C1653 C1654 1.379 . S
C1654 H1638 0.931 . S
C1654 C1648 1.383 . S
C1654 C1653 1.379 . S
H1655 C1649 0.959 . S
H1656 C1649 0.961 . S
H1657 C1649 0.960 . S
H1658 C1650 0.930 . S
H1659 C1651 0.929 . S
H1660 C1668 0.929 . S
H1661 C1670 0.930 . S
H1662 C1672 0.930 . S
H1663 C1675 0.929 . S
H1664 C1678 0.930 . S
H1665 C1680 0.960 . S
H1666 C1680 0.960 . S
H1667 C1680 0.960 . S
C1668 H1660 0.929 . S
C1668 C1669 1.377 . S
C1668 C1670 1.384 . S
C1669 C1668 1.377 . S
C1669 C1675 1.390 . S
C1670 H1661 0.930 . S
C1670 C1668 1.384 . S
C1670 C1671 1.372 . S
C1671 C1670 1.372 . S
C1671 C1672 1.400 . S
C1671 C1676 1.490 . S
C1672 H1662 0.930 . S
C1672 C1671 1.400 . S
C1672 C1675 1.386 . S
H1673 C1689 0.930 . S
H1674 C1690 0.931 . S
C1675 H1663 0.929 . S
C1675 C1669 1.390 . S
C1675 C1672 1.386 . S
C1676 C1671 1.490 . S
C1676 C1678 1.395 . S
C1676 C1679 1.403 . S
H1677 C1683 0.930 . S
C1678 H1664 0.930 . S
C1678 C1676 1.395 . S
C1678 C1681 1.403 . S
C1679 C1676 1.403 . S
C1679 C1680 1.524 . S
C1679 C1683 1.400 . S
C1680 H1665 0.960 . S
C1680 H1666 0.960 . S
C1680 H1667 0.960 . S
C1680 C1679 1.524 . S
C1681 C1678 1.403 . S
C1681 C1682 1.392 . S
C1681 C1685 1.495 . S
C1682 C1681 1.392 . S
C1682 C1683 1.385 . S
C1682 C1684 1.478 . S
C1683 H1677 0.930 . S
C1683 C1679 1.400 . S
C1683 C1682 1.385 . S
C1684 C1682 1.478 . S
C1684 C1686 1.381 . S
C1684 C1690 1.383 . S
C1685 C1681 1.495 . S
C1685 H1691 0.959 . S
C1685 H1692 0.961 . S
C1685 H1693 0.960 . S
C1686 C1684 1.381 . S
C1686 C1687 1.394 . S
C1686 H1694 0.930 . S
C1687 C1686 1.394 . S
C1687 C1688 1.383 . S
C1687 H1695 0.929 . S
C1688 C1687 1.383 . S
C1688 C1689 1.377 . S
C1689 H1673 0.930 . S
C1689 C1688 1.377 . S
C1689 C1690 1.379 . S
C1690 H1674 0.931 . S
C1690 C1684 1.383 . S
C1690 C1689 1.379 . S
H1691 C1685 0.959 . S
H1692 C1685 0.961 . S
H1693 C1685 0.960 . S
H1694 C1686 0.930 . S
H1695 C1687 0.929 . S
H1696 C1704 0.929 . S
H1697 C1706 0.930 . S
H1698 C1708 0.930 . S
H1699 C1711 0.929 . S
H1700 C1714 0.930 . S
H1701 C1716 0.960 . S
H1702 C1716 0.960 . S
H1703 C1716 0.960 . S
C1704 H1696 0.929 . S
C1704 C1705 1.377 . S
C1704 C1706 1.384 . S
C1705 C1704 1.377 . S
C1705 C1711 1.390 . S
C1706 H1697 0.930 . S
C1706 C1704 1.384 . S
C1706 C1707 1.372 . S
C1707 C1706 1.372 . S
C1707 C1708 1.400 . S
C1707 C1712 1.490 . S
C1708 H1698 0.930 . S
C1708 C1707 1.400 . S
C1708 C1711 1.386 . S
H1709 C1725 0.930 . S
H1710 C1726 0.931 . S
C1711 H1699 0.929 . S
C1711 C1705 1.390 . S
C1711 C1708 1.386 . S
C1712 C1707 1.490 . S
C1712 C1714 1.395 . S
C1712 C1715 1.403 . S
H1713 C1719 0.930 . S
C1714 H1700 0.930 . S
C1714 C1712 1.395 . S
C1714 C1717 1.403 . S
C1715 C1712 1.403 . S
C1715 C1716 1.524 . S
C1715 C1719 1.400 . S
C1716 H1701 0.960 . S
C1716 H1702 0.960 . S
C1716 H1703 0.960 . S
C1716 C1715 1.524 . S
C1717 C1714 1.403 . S
C1717 C1718 1.392 . S
C1717 C1721 1.495 . S
C1718 C1717 1.392 . S
C1718 C1719 1.385 . S
C1718 C1720 1.478 . S
C1719 H1713 0.930 . S
C1719 C1715 1.400 . S
C1719 C1718 1.385 . S
C1720 C1718 1.478 . S
C1720 C1722 1.381 . S
C1720 C1726 1.383 . S
C1721 C1717 1.495 . S
C1721 H1727 0.959 . S
C1721 H1728 0.961 . S
C1721 H1729 0.960 . S
C1722 C1720 1.381 . S
C1722 C1723 1.394 . S
C1722 H1730 0.930 . S
C1723 C1722 1.394 . S
C1723 C1724 1.383 . S
C1723 H1731 0.929 . S
C1724 C1723 1.383 . S
C1724 C1725 1.377 . S
C1725 H1709 0.930 . S
C1725 C1724 1.377 . S
C1725 C1726 1.379 . S
C1726 H1710 0.931 . S
C1726 C1720 1.383 . S
C1726 C1725 1.379 . S
H1727 C1721 0.959 . S
H1728 C1721 0.961 . S
H1729 C1721 0.960 . S
H1730 C1722 0.930 . S
H1731 C1723 0.929 . S
H1732 C1740 0.929 . S
H1733 C1742 0.930 . S
H1734 C1744 0.930 . S
H1735 C1747 0.929 . S
H1736 C1750 0.930 . S
H1737 C1752 0.960 . S
H1738 C1752 0.960 . S
H1739 C1752 0.960 . S
C1740 H1732 0.929 . S
C1740 C1741 1.377 . S
C1740 C1742 1.384 . S
C1741 C1740 1.377 . S
C1741 C1747 1.390 . S
C1742 H1733 0.930 . S
C1742 C1740 1.384 . S
C1742 C1743 1.372 . S
C1743 C1742 1.372 . S
C1743 C1744 1.400 . S
C1743 C1748 1.490 . S
C1744 H1734 0.930 . S
C1744 C1743 1.400 . S
C1744 C1747 1.386 . S
H1745 C1761 0.930 . S
H1746 C1762 0.931 . S
C1747 H1735 0.929 . S
C1747 C1741 1.390 . S
C1747 C1744 1.386 . S
C1748 C1743 1.490 . S
C1748 C1750 1.395 . S
C1748 C1751 1.403 . S
H1749 C1755 0.930 . S
C1750 H1736 0.930 . S
C1750 C1748 1.395 . S
C1750 C1753 1.403 . S
C1751 C1748 1.403 . S
C1751 C1752 1.524 . S
C1751 C1755 1.400 . S
C1752 H1737 0.960 . S
C1752 H1738 0.960 . S
C1752 H1739 0.960 . S
C1752 C1751 1.524 . S
C1753 C1750 1.403 . S
C1753 C1754 1.392 . S
C1753 C1757 1.495 . S
C1754 C1753 1.392 . S
C1754 C1755 1.385 . S
C1754 C1756 1.478 . S
C1755 H1749 0.930 . S
C1755 C1751 1.400 . S
C1755 C1754 1.385 . S
C1756 C1754 1.478 . S
C1756 C1758 1.381 . S
C1756 C1762 1.383 . S
C1757 C1753 1.495 . S
C1757 H1763 0.959 . S
C1757 H1764 0.961 . S
C1757 H1765 0.960 . S
C1758 C1756 1.381 . S
C1758 C1759 1.394 . S
C1758 H1766 0.930 . S
C1759 C1758 1.394 . S
C1759 C1760 1.383 . S
C1759 H1767 0.929 . S
C1760 C1759 1.383 . S
C1760 C1761 1.377 . S
C1761 H1745 0.930 . S
C1761 C1760 1.377 . S
C1761 C1762 1.379 . S
C1762 H1746 0.931 . S
C1762 C1756 1.383 . S
C1762 C1761 1.379 . S
H1763 C1757 0.959 . S
H1764 C1757 0.961 . S
H1765 C1757 0.960 . S
H1766 C1758 0.930 . S
H1767 C1759 0.929 . S
H1768 C1776 0.929 . S
H1769 C1778 0.930 . S
H1770 C1780 0.930 . S
H1771 C1783 0.929 . S
H1772 C1786 0.930 . S
H1773 C1788 0.960 . S
H1774 C1788 0.960 . S
H1775 C1788 0.960 . S
C1776 H1768 0.929 . S
C1776 C1777 1.377 . S
C1776 C1778 1.384 . S
C1777 C1776 1.377 . S
C1777 C1783 1.390 . S
C1778 H1769 0.930 . S
C1778 C1776 1.384 . S
C1778 C1779 1.372 . S
C1779 C1778 1.372 . S
C1779 C1780 1.400 . S
C1779 C1784 1.490 . S
C1780 H1770 0.930 . S
C1780 C1779 1.400 . S
C1780 C1783 1.386 . S
H1781 C1797 0.930 . S
H1782 C1798 0.931 . S
C1783 H1771 0.929 . S
C1783 C1777 1.390 . S
C1783 C1780 1.386 . S
C1784 C1779 1.490 . S
C1784 C1786 1.395 . S
C1784 C1787 1.403 . S
H1785 C1791 0.930 . S
C1786 H1772 0.930 . S
C1786 C1784 1.395 . S
C1786 C1789 1.403 . S
C1787 C1784 1.403 . S
C1787 C1788 1.524 . S
C1787 C1791 1.400 . S
C1788 H1773 0.960 . S
C1788 H1774 0.960 . S
C1788 H1775 0.960 . S
C1788 C1787 1.524 . S
C1789 C1786 1.403 . S
C1789 C1790 1.392 . S
C1789 C1793 1.495 . S
C1790 C1789 1.392 . S
C1790 C1791 1.385 . S
C1790 C1792 1.478 . S
C1791 H1785 0.930 . S
C1791 C1787 1.400 . S
C1791 C1790 1.385 . S
C1792 C1790 1.478 . S
C1792 C1794 1.381 . S
C1792 C1798 1.383 . S
C1793 C1789 1.495 . S
C1793 H1799 0.959 . S
C1793 H1800 0.961 . S
C1793 H1801 0.960 . S
C1794 C1792 1.381 . S
C1794 C1795 1.394 . S
C1794 H1802 0.930 . S
C1795 C1794 1.394 . S
C1795 C1796 1.383 . S
C1795 H1803 0.929 . S
C1796 C1795 1.383 . S
C1796 C1797 1.377 . S
C1797 H1781 0.930 . S
C1797 C1796 1.377 . S
C1797 C1798 1.379 . S
C1798 H1782 0.931 . S
C1798 C1792 1.383 . S
C1798 C1797 1.379 . S
H1799 C1793 0.959 . S
H1800 C1793 0.961 . S
H1801 C1793 0.960 . S
H1802 C1794 0.930 . S
H1803 C1795 0.929 . S
H1804 C1812 0.929 . S
H1805 C1814 0.930 . S
H1806 C1816 0.930 . S
H1807 C1819 0.929 . S
H1808 C1822 0.930 . S
H1809 C1824 0.960 . S
H1810 C1824 0.960 . S
H1811 C1824 0.960 . S
C1812 H1804 0.929 . S
C1812 C1813 1.377 . S
C1812 C1814 1.384 . S
C1813 C1812 1.377 . S
C1813 C1819 1.390 . S
C1814 H1805 0.930 . S
C1814 C1812 1.384 . S
C1814 C1815 1.372 . S
C1815 C1814 1.372 . S
C1815 C1816 1.400 . S
C1815 C1820 1.490 . S
C1816 H1806 0.930 . S
C1816 C1815 1.400 . S
C1816 C1819 1.386 . S
H1817 C1833 0.930 . S
H1818 C1834 0.931 . S
C1819 H1807 0.929 . S
C1819 C1813 1.390 . S
C1819 C1816 1.386 . S
C1820 C1815 1.490 . S
C1820 C1822 1.395 . S
C1820 C1823 1.403 . S
H1821 C1827 0.930 . S
C1822 H1808 0.930 . S
C1822 C1820 1.395 . S
C1822 C1825 1.403 . S
C1823 C1820 1.403 . S
C1823 C1824 1.524 . S
C1823 C1827 1.400 . S
C1824 H1809 0.960 . S
C1824 H1810 0.960 . S
C1824 H1811 0.960 . S
C1824 C1823 1.524 . S
C1825 C1822 1.403 . S
C1825 C1826 1.392 . S
C1825 C1829 1.495 . S
C1826 C1825 1.392 . S
C1826 C1827 1.385 . S
C1826 C1828 1.478 . S
C1827 H1821 0.930 . S
C1827 C1823 1.400 . S
C1827 C1826 1.385 . S
C1828 C1826 1.478 . S
C1828 C1830 1.381 . S
C1828 C1834 1.383 . S
C1829 C1825 1.495 . S
C1829 H1835 0.959 . S
C1829 H1836 0.961 . S
C1829 H1837 0.960 . S
C1830 C1828 1.381 . S
C1830 C1831 1.394 . S
C1830 H1838 0.930 . S
C1831 C1830 1.394 . S
C1831 C1832 1.383 . S
C1831 H1839 0.929 . S
C1832 C1831 1.383 . S
C1832 C1833 1.377 . S
C1833 H1817 0.930 . S
C1833 C1832 1.377 . S
C1833 C1834 1.379 . S
C1834 H1818 0.931 . S
C1834 C1828 1.383 . S
C1834 C1833 1.379 . S
H1835 C1829 0.959 . S
H1836 C1829 0.961 . S
H1837 C1829 0.960 . S
H1838 C1830 0.930 . S
H1839 C1831 0.929 . S
H1840 C1848 0.929 . S
H1841 C1850 0.930 . S
H1842 C1852 0.930 . S
H1843 C1855 0.929 . S
H1844 C1858 0.930 . S
H1845 C1860 0.978 . S
H1846 C1860 0.960 . S
H1847 C1860 0.960 . S
C1848 H1840 0.929 . S
C1848 C1849 1.377 . S
C1848 C1850 1.384 . S
C1849 C1848 1.377 . S
C1849 C1855 1.390 . S
C1850 H1841 0.930 . S
C1850 C1848 1.384 . S
C1850 C1851 1.372 . S
C1851 C1850 1.372 . S
C1851 C1852 1.400 . S
C1851 C1856 1.490 . S
C1852 H1842 0.930 . S
C1852 C1851 1.400 . S
C1852 C1855 1.386 . S
H1853 C1869 0.930 . S
H1854 C1870 0.931 . S
C1855 H1843 0.929 . S
C1855 C1849 1.390 . S
C1855 C1852 1.386 . S
C1856 C1851 1.490 . S
C1856 C1858 1.395 . S
C1856 C1859 1.403 . S
H1857 C1863 0.930 . S
C1858 H1844 0.930 . S
C1858 C1856 1.395 . S
C1858 C1861 1.403 . S
C1859 C1856 1.403 . S
C1859 C1860 1.524 . S
C1859 C1863 1.400 . S
C1860 H1845 0.978 . S
C1860 H1846 0.960 . S
C1860 H1847 0.960 . S
C1860 C1859 1.524 . S
C1861 C1858 1.403 . S
C1861 C1862 1.392 . S
C1861 C1865 1.495 . S
C1862 C1861 1.392 . S
C1862 C1863 1.385 . S
C1862 C1864 1.478 . S
C1863 H1857 0.930 . S
C1863 C1859 1.400 . S
C1863 C1862 1.385 . S
C1864 C1862 1.478 . S
C1864 C1866 1.381 . S
C1864 C1870 1.383 . S
C1865 C1861 1.495 . S
C1865 H1871 0.959 . S
C1865 H1872 0.961 . S
C1865 H1873 0.960 . S
C1866 C1864 1.381 . S
C1866 C1867 1.394 . S
C1866 H1874 0.930 . S
C1867 C1866 1.394 . S
C1867 C1868 1.383 . S
C1867 H1875 0.929 . S
C1868 C1867 1.383 . S
C1868 C1869 1.377 . S
C1869 H1853 0.930 . S
C1869 C1868 1.377 . S
C1869 C1870 1.379 . S
C1870 H1854 0.931 . S
C1870 C1864 1.383 . S
C1870 C1869 1.379 . S
H1871 C1865 0.959 . S
H1872 C1865 0.961 . S
H1873 C1865 0.960 . S
H1874 C1866 0.930 . S
H1875 C1867 0.929 . S
H1876 C1884 0.929 . S
H1877 C1886 0.930 . S
H1878 C1888 0.930 . S
H1879 C1891 0.929 . S
H1880 C1894 0.930 . S
H1881 C1896 0.960 . S
H1882 C1896 0.960 . S
H1883 C1896 0.960 . S
C1884 H1876 0.929 . S
C1884 C1885 1.377 . S
C1884 C1886 1.384 . S
C1885 C1884 1.377 . S
C1885 C1891 1.390 . S
C1886 H1877 0.930 . S
C1886 C1884 1.384 . S
C1886 C1887 1.372 . S
C1887 C1886 1.372 . S
C1887 C1888 1.400 . S
C1887 C1892 1.490 . S
C1888 H1878 0.930 . S
C1888 C1887 1.400 . S
C1888 C1891 1.386 . S
H1889 C1905 0.930 . S
H1890 C1906 0.931 . S
C1891 H1879 0.929 . S
C1891 C1885 1.390 . S
C1891 C1888 1.386 . S
C1892 C1887 1.490 . S
C1892 C1894 1.395 . S
C1892 C1895 1.403 . S
H1893 C1899 0.930 . S
C1894 H1880 0.930 . S
C1894 C1892 1.395 . S
C1894 C1897 1.403 . S
C1895 C1892 1.403 . S
C1895 C1896 1.524 . S
C1895 C1899 1.400 . S
C1896 H1881 0.960 . S
C1896 H1882 0.960 . S
C1896 H1883 0.960 . S
C1896 C1895 1.524 . S
C1897 C1894 1.403 . S
C1897 C1898 1.392 . S
C1897 C1901 1.495 . S
C1898 C1897 1.392 . S
C1898 C1899 1.385 . S
C1898 C1900 1.478 . S
C1899 H1893 0.930 . S
C1899 C1895 1.400 . S
C1899 C1898 1.385 . S
C1900 C1898 1.478 . S
C1900 C1902 1.381 . S
C1900 C1906 1.383 . S
C1901 C1897 1.495 . S
C1901 H1907 0.959 . S
C1901 H1908 0.961 . S
C1901 H1909 0.960 . S
C1902 C1900 1.381 . S
C1902 C1903 1.394 . S
C1902 H1910 0.930 . S
C1903 C1902 1.394 . S
C1903 C1904 1.383 . S
C1903 H1911 0.929 . S
C1904 C1903 1.383 . S
C1904 C1905 1.377 . S
C1905 H1889 0.930 . S
C1905 C1904 1.377 . S
C1905 C1906 1.379 . S
C1906 H1890 0.931 . S
C1906 C1900 1.383 . S
C1906 C1905 1.379 . S
H1907 C1901 0.959 . S
H1908 C1901 0.961 . S
H1909 C1901 0.960 . S
H1910 C1902 0.930 . S
H1911 C1903 0.929 . S
H1912 C1920 0.929 . S
H1913 C1922 0.930 . S
H1914 C1924 0.930 . S
H1915 C1927 0.929 . S
H1916 C1930 0.930 . S
H1917 C1932 0.960 . S
H1918 C1932 0.960 . S
H1919 C1932 0.960 . S
C1920 H1912 0.929 . S
C1920 C1921 1.377 . S
C1920 C1922 1.384 . S
C1921 C1920 1.377 . S
C1921 C1927 1.390 . S
C1922 H1913 0.930 . S
C1922 C1920 1.384 . S
C1922 C1923 1.372 . S
C1923 C1922 1.372 . S
C1923 C1924 1.400 . S
C1923 C1928 1.490 . S
C1924 H1914 0.930 . S
C1924 C1923 1.400 . S
C1924 C1927 1.386 . S
H1925 C1941 0.930 . S
H1926 C1942 0.931 . S
C1927 H1915 0.929 . S
C1927 C1921 1.390 . S
C1927 C1924 1.386 . S
C1928 C1923 1.490 . S
C1928 C1930 1.395 . S
C1928 C1931 1.403 . S
H1929 C1935 0.930 . S
C1930 H1916 0.930 . S
C1930 C1928 1.395 . S
C1930 C1933 1.403 . S
C1931 C1928 1.403 . S
C1931 C1932 1.524 . S
C1931 C1935 1.400 . S
C1932 H1917 0.960 . S
C1932 H1918 0.960 . S
C1932 H1919 0.960 . S
C1932 C1931 1.524 . S
C1933 C1930 1.403 . S
C1933 C1934 1.392 . S
C1933 C1937 1.495 . S
C1934 C1933 1.392 . S
C1934 C1935 1.385 . S
C1934 C1936 1.478 . S
C1935 H1929 0.930 . S
C1935 C1931 1.400 . S
C1935 C1934 1.385 . S
C1936 C1934 1.478 . S
C1936 C1938 1.381 . S
C1936 C1942 1.383 . S
C1937 C1933 1.495 . S
C1937 H1943 0.959 . S
C1937 H1944 0.961 . S
C1937 H1945 0.960 . S
C1938 C1936 1.381 . S
C1938 C1939 1.394 . S
C1938 H1946 0.930 . S
C1939 C1938 1.394 . S
C1939 C1940 1.383 . S
C1939 H1947 0.929 . S
C1940 C1939 1.383 . S
C1940 C1941 1.377 . S
C1941 H1925 0.930 . S
C1941 C1940 1.377 . S
C1941 C1942 1.379 . S
C1942 H1926 0.931 . S
C1942 C1936 1.383 . S
C1942 C1941 1.379 . S
H1943 C1937 0.959 . S
H1944 C1937 0.961 . S
H1945 C1937 0.960 . S
H1946 C1938 0.930 . S
H1947 C1939 0.929 . S
H1948 C1956 0.929 . S
H1949 C1958 0.930 . S
H1950 C1960 0.930 . S
H1951 C1963 0.929 . S
H1952 C1966 0.930 . S
H1953 C1968 0.960 . S
H1954 C1968 0.960 . S
H1955 C1968 0.960 . S
C1956 H1948 0.929 . S
C1956 C1957 1.377 . S
C1956 C1958 1.384 . S
C1957 C1956 1.377 . S
C1957 C1963 1.390 . S
C1958 H1949 0.930 . S
C1958 C1956 1.384 . S
C1958 C1959 1.372 . S
C1959 C1958 1.372 . S
C1959 C1960 1.400 . S
C1959 C1964 1.490 . S
C1960 H1950 0.930 . S
C1960 C1959 1.400 . S
C1960 C1963 1.386 . S
H1961 C1977 0.930 . S
H1962 C1978 0.931 . S
C1963 H1951 0.929 . S
C1963 C1957 1.390 . S
C1963 C1960 1.386 . S
C1964 C1959 1.490 . S
C1964 C1966 1.395 . S
C1964 C1967 1.403 . S
H1965 C1971 0.930 . S
C1966 H1952 0.930 . S
C1966 C1964 1.395 . S
C1966 C1969 1.403 . S
C1967 C1964 1.403 . S
C1967 C1968 1.524 . S
C1967 C1971 1.400 . S
C1968 H1953 0.960 . S
C1968 H1954 0.960 . S
C1968 H1955 0.960 . S
C1968 C1967 1.524 . S
C1969 C1966 1.403 . S
C1969 C1970 1.392 . S
C1969 C1973 1.495 . S
C1970 C1969 1.392 . S
C1970 C1971 1.385 . S
C1970 C1972 1.478 . S
C1971 H1965 0.930 . S
C1971 C1967 1.400 . S
C1971 C1970 1.385 . S
C1972 C1970 1.478 . S
C1972 C1974 1.381 . S
C1972 C1978 1.383 . S
C1973 C1969 1.495 . S
C1973 H1979 0.959 . S
C1973 H1980 0.961 . S
C1973 H1981 0.960 . S
C1974 C1972 1.381 . S
C1974 C1975 1.394 . S
C1974 H1982 0.930 . S
C1975 C1974 1.394 . S
C1975 C1976 1.383 . S
C1975 H1983 0.929 . S
C1976 C1975 1.383 . S
C1976 C1977 1.377 . S
C1977 H1961 0.930 . S
C1977 C1976 1.377 . S
C1977 C1978 1.379 . S
C1978 H1962 0.931 . S
C1978 C1972 1.383 . S
C1978 C1977 1.379 . S
H1979 C1973 0.959 . S
H1980 C1973 0.961 . S
H1981 C1973 0.960 . S
H1982 C1974 0.930 . S
H1983 C1975 0.929 . S
H1984 C1992 0.929 . S
H1985 C1994 0.930 . S
H1986 C1996 0.930 . S
H1987 C1999 0.929 . S
H1988 C2002 0.930 . S
H1989 C2004 0.960 . S
H1990 C2004 0.960 1_655 S
H1991 C2004 0.960 . S
C1992 H1984 0.929 . S
C1992 C1993 1.346 1_655 S
C1992 C1994 1.384 . S
C1993 C1992 1.346 1_455 S
C1993 C1999 1.427 . S
C1994 H1985 0.930 . S
C1994 C1992 1.384 . S
C1994 C1995 1.335 1_655 S
C1995 C1994 1.335 1_455 S
C1995 C1996 1.432 . S
C1995 C2000 1.497 . S
C1996 H1986 0.930 . S
C1996 C1995 1.432 . S
C1996 C1999 1.386 . S
H1997 C2013 0.930 . S
H1998 C2014 0.931 . S
C1999 H1987 0.929 . S
C1999 C1993 1.427 . S
C1999 C1996 1.386 . S
C2000 C1995 1.497 . S
C2000 C2002 1.397 1_455 S
C2000 C2003 1.403 . S
H2001 C2007 0.930 . S
C2002 H1988 0.930 . S
C2002 C2000 1.397 1_655 S
C2002 C2005 1.401 1_655 S
C2003 C2000 1.403 . S
C2003 C2004 1.524 . S
C2003 C2007 1.400 . S
C2004 H1989 0.960 . S
C2004 H1990 0.960 1_455 S
C2004 H1991 0.960 . S
C2004 C2003 1.524 . S
C2005 C2002 1.401 1_455 S
C2005 C2006 1.392 . S
C2005 C2009 1.512 1_455 S
C2006 C2005 1.392 . S
C2006 C2007 1.385 . S
C2006 C2008 1.478 . S
C2007 H2001 0.930 . S
C2007 C2003 1.400 . S
C2007 C2006 1.385 . S
C2008 C2006 1.478 . S
C2008 C2010 1.381 1_455 S
C2008 C2014 1.383 . S
C2009 C2005 1.512 1_655 S
C2009 H2015 0.962 . S
C2009 H2016 0.899 1_655 S
C2009 H2017 1.010 . S
C2010 C2008 1.381 1_655 S
C2010 C2011 1.394 . S
C2010 H2018 0.930 . S
C2011 C2010 1.394 . S
C2011 C2012 1.383 1_655 S
C2011 H2019 0.929 . S
C2012 C2011 1.383 1_455 S
C2012 C2013 1.377 . S
C2013 H1997 0.930 . S
C2013 C2012 1.377 . S
C2013 C2014 1.379 . S
C2014 H1998 0.931 . S
C2014 C2008 1.383 . S
C2014 C2013 1.379 . S
H2015 C2009 0.962 . S
H2016 C2009 0.899 1_455 S
H2017 C2009 1.010 . S
H2018 C2010 0.930 . S
H2019 C2011 0.929 . S
H2020 C2028 0.929 . S
H2021 C2030 0.930 . S
H2022 C2032 0.930 . S
H2023 C2035 0.929 . S
H2024 C2038 0.930 . S
H2025 C2040 0.960 . S
H2026 C2040 0.960 . S
H2027 C2040 0.960 . S
C2028 H2020 0.929 . S
C2028 C2029 1.377 . S
C2028 C2030 1.384 . S
C2029 C2028 1.377 . S
C2029 C2035 1.390 . S
C2030 H2021 0.930 . S
C2030 C2028 1.384 . S
C2030 C2031 1.372 . S
C2031 C2030 1.372 . S
C2031 C2032 1.400 . S
C2031 C2036 1.490 . S
C2032 H2022 0.930 . S
C2032 C2031 1.400 . S
C2032 C2035 1.386 . S
H2033 C2049 0.930 . S
H2034 C2050 0.931 . S
C2035 H2023 0.929 . S
C2035 C2029 1.390 . S
C2035 C2032 1.386 . S
C2036 C2031 1.490 . S
C2036 C2038 1.395 . S
C2036 C2039 1.403 . S
H2037 C2043 0.930 . S
C2038 H2024 0.930 . S
C2038 C2036 1.395 . S
C2038 C2041 1.403 . S
C2039 C2036 1.403 . S
C2039 C2040 1.524 . S
C2039 C2043 1.400 . S
C2040 H2025 0.960 . S
C2040 H2026 0.960 . S
C2040 H2027 0.960 . S
C2040 C2039 1.524 . S
C2041 C2038 1.403 . S
C2041 C2042 1.392 . S
C2041 C2045 1.495 . S
C2042 C2041 1.392 . S
C2042 C2043 1.385 . S
C2042 C2044 1.478 . S
C2043 H2037 0.930 . S
C2043 C2039 1.400 . S
C2043 C2042 1.385 . S
C2044 C2042 1.478 . S
C2044 C2046 1.381 . S
C2044 C2050 1.383 . S
C2045 C2041 1.495 . S
C2045 H2051 0.959 . S
C2045 H2052 0.961 . S
C2045 H2053 0.960 . S
C2046 C2044 1.381 . S
C2046 C2047 1.394 . S
C2046 H2054 0.930 . S
C2047 C2046 1.394 . S
C2047 C2048 1.383 . S
C2047 H2055 0.929 . S
C2048 C2047 1.383 . S
C2048 C2049 1.377 . S
C2049 H2033 0.930 . S
C2049 C2048 1.377 . S
C2049 C2050 1.379 . S
C2050 H2034 0.931 . S
C2050 C2044 1.383 . S
C2050 C2049 1.379 . S
H2051 C2045 0.959 . S
H2052 C2045 0.961 . S
H2053 C2045 0.960 . S
H2054 C2046 0.930 . S
H2055 C2047 0.929 . S
H2056 C2064 0.929 . S
H2057 C2066 0.930 . S
H2058 C2068 0.930 . S
H2059 C2071 0.929 . S
H2060 C2074 0.930 . S
H2061 C2076 0.960 . S
H2062 C2076 0.960 . S
H2063 C2076 0.960 . S
C2064 H2056 0.929 . S
C2064 C2065 1.377 . S
C2064 C2066 1.384 . S
C2065 C2064 1.377 . S
C2065 C2071 1.390 . S
C2066 H2057 0.930 . S
C2066 C2064 1.384 . S
C2066 C2067 1.372 . S
C2067 C2066 1.372 . S
C2067 C2068 1.400 . S
C2067 C2072 1.490 . S
C2068 H2058 0.930 . S
C2068 C2067 1.400 . S
C2068 C2071 1.386 . S
H2069 C2085 0.930 . S
H2070 C2086 0.931 . S
C2071 H2059 0.929 . S
C2071 C2065 1.390 . S
C2071 C2068 1.386 . S
C2072 C2067 1.490 . S
C2072 C2074 1.395 . S
C2072 C2075 1.403 . S
H2073 C2079 0.930 . S
C2074 H2060 0.930 . S
C2074 C2072 1.395 . S
C2074 C2077 1.403 . S
C2075 C2072 1.403 . S
C2075 C2076 1.524 . S
C2075 C2079 1.400 . S
C2076 H2061 0.960 . S
C2076 H2062 0.960 . S
C2076 H2063 0.960 . S
C2076 C2075 1.524 . S
C2077 C2074 1.403 . S
C2077 C2078 1.392 . S
C2077 C2081 1.495 . S
C2078 C2077 1.392 . S
C2078 C2079 1.385 . S
C2078 C2080 1.478 . S
C2079 H2073 0.930 . S
C2079 C2075 1.400 . S
C2079 C2078 1.385 . S
C2080 C2078 1.478 . S
C2080 C2082 1.381 . S
C2080 C2086 1.383 . S
C2081 C2077 1.495 . S
C2081 H2087 0.959 . S
C2081 H2088 0.961 . S
C2081 H2089 0.960 . S
C2082 C2080 1.381 . S
C2082 C2083 1.389 1_556 S
C2082 H2090 0.930 . S
C2083 C2082 1.389 1_554 S
C2083 C2084 1.384 . S
C2083 H2091 0.934 . S
C2084 C2083 1.384 . S
C2084 C2085 1.377 1_554 S
C2085 H2069 0.930 . S
C2085 C2084 1.377 1_556 S
C2085 C2086 1.379 . S
C2086 H2070 0.931 . S
C2086 C2080 1.383 . S
C2086 C2085 1.379 . S
H2087 C2081 0.959 . S
H2088 C2081 0.961 . S
H2089 C2081 0.960 . S
H2090 C2082 0.930 . S
H2091 C2083 0.934 . S
H2092 C2100 0.929 . S
H2093 C2102 0.930 . S
H2094 C2104 0.930 . S
H2095 C2107 0.929 . S
H2096 C2110 0.930 . S
H2097 C2112 0.960 . S
H2098 C2112 0.960 . S
H2099 C2112 0.960 . S
C2100 H2092 0.929 . S
C2100 C2101 1.377 . S
C2100 C2102 1.384 1_455 S
C2101 C2100 1.377 . S
C2101 C2107 1.390 . S
C2102 H2093 0.930 . S
C2102 C2100 1.384 1_655 S
C2102 C2103 1.372 . S
C2103 C2102 1.372 . S
C2103 C2104 1.400 . S
C2103 C2108 1.490 . S
C2104 H2094 0.930 . S
C2104 C2103 1.400 . S
C2104 C2107 1.386 1_655 S
H2105 C2121 0.930 . S
H2106 C2122 0.931 . S
C2107 H2095 0.929 . S
C2107 C2101 1.390 . S
C2107 C2104 1.386 1_455 S
C2108 C2103 1.490 . S
C2108 C2110 1.395 . S
C2108 C2111 1.403 . S
H2109 C2115 0.930 . S
C2110 H2096 0.930 . S
C2110 C2108 1.395 . S
C2110 C2113 1.403 . S
C2111 C2108 1.403 . S
C2111 C2112 1.524 . S
C2111 C2115 1.400 . S
C2112 H2097 0.960 . S
C2112 H2098 0.960 . S
C2112 H2099 0.960 . S
C2112 C2111 1.524 . S
C2113 C2110 1.403 . S
C2113 C2114 1.392 . S
C2113 C2117 1.495 . S
C2114 C2113 1.392 . S
C2114 C2115 1.385 . S
C2114 C2116 1.478 . S
C2115 H2109 0.930 . S
C2115 C2111 1.400 . S
C2115 C2114 1.385 . S
C2116 C2114 1.478 . S
C2116 C2118 1.381 . S
C2116 C2122 1.383 . S
C2117 C2113 1.495 . S
C2117 H2123 0.959 . S
C2117 H2124 0.961 . S
C2117 H2125 0.960 . S
C2118 C2116 1.381 . S
C2118 C2119 1.394 . S
C2118 H2126 0.930 . S
C2119 C2118 1.394 . S
C2119 C2120 1.383 . S
C2119 H2127 0.929 . S
C2120 C2119 1.383 . S
C2120 C2121 1.377 . S
C2121 H2105 0.930 . S
C2121 C2120 1.377 . S
C2121 C2122 1.379 . S
C2122 H2106 0.931 . S
C2122 C2116 1.383 . S
C2122 C2121 1.379 . S
H2123 C2117 0.959 . S
H2124 C2117 0.961 . S
H2125 C2117 0.960 . S
H2126 C2118 0.930 . S
H2127 C2119 0.929 . S
H2128 C2136 0.929 . S
H2129 C2138 0.930 . S
H2130 C2140 0.930 . S
H2131 C2143 0.929 . S
H2132 C2146 0.930 . S
H2133 C2148 0.960 . S
H2134 C2148 0.960 . S
H2135 C2148 0.960 . S
C2136 H2128 0.929 . S
C2136 C2137 1.377 . S
C2136 C2138 1.384 . S
C2137 C2136 1.377 . S
C2137 C2143 1.390 . S
C2138 H2129 0.930 . S
C2138 C2136 1.384 . S
C2138 C2139 1.372 . S
C2139 C2138 1.372 . S
C2139 C2140 1.400 . S
C2139 C2144 1.490 . S
C2140 H2130 0.930 . S
C2140 C2139 1.400 . S
C2140 C2143 1.386 . S
H2141 C2157 0.893 1_565 S
H2142 C2158 0.931 1_565 S
C2143 H2131 0.929 . S
C2143 C2137 1.390 . S
C2143 C2140 1.386 . S
C2144 C2139 1.490 . S
C2144 C2146 1.395 . S
C2144 C2147 1.403 . S
H2145 C2151 0.930 . S
C2146 H2132 0.930 . S
C2146 C2144 1.395 . S
C2146 C2149 1.403 . S
C2147 C2144 1.403 . S
C2147 C2148 1.524 . S
C2147 C2151 1.400 . S
C2148 H2133 0.960 . S
C2148 H2134 0.960 . S
C2148 H2135 0.960 . S
C2148 C2147 1.524 . S
C2149 C2146 1.403 . S
C2149 C2150 1.392 . S
C2149 C2153 1.495 . S
C2150 C2149 1.392 . S
C2150 C2151 1.385 . S
C2150 C2152 1.478 . S
C2151 H2145 0.930 . S
C2151 C2147 1.400 . S
C2151 C2150 1.385 . S
C2152 C2150 1.478 . S
C2152 C2154 1.381 . S
C2152 C2158 1.383 . S
C2153 C2149 1.495 . S
C2153 H2159 0.959 1_545 S
C2153 H2160 0.961 1_545 S
C2153 H2161 0.960 . S
C2154 C2152 1.381 . S
C2154 C2155 1.394 . S
C2154 H2162 0.930 . S
C2155 C2154 1.394 . S
C2155 C2156 1.383 . S
C2155 H2163 0.929 . S
C2156 C2155 1.383 . S
C2156 C2157 1.409 . S
C2157 H2141 0.893 1_545 S
C2157 C2156 1.409 . S
C2157 C2158 1.385 . S
C2158 H2142 0.931 1_545 S
C2158 C2152 1.383 . S
C2158 C2157 1.385 . S
H2159 C2153 0.959 1_565 S
H2160 C2153 0.961 1_565 S
H2161 C2153 0.960 . S
H2162 C2154 0.930 . S
H2163 C2155 0.929 . S
H2164 C2172 0.929 . S
H2165 C2174 0.930 . S
H2166 C2176 0.930 . S
H2167 C2179 0.929 . S
H2168 C2182 0.930 . S
H2169 C2184 0.960 . S
H2170 C2184 0.960 . S
H2171 C2184 0.960 . S
C2172 H2164 0.929 . S
C2172 C2173 1.377 . S
C2172 C2174 1.384 . S
C2173 C2172 1.377 . S
C2173 C2179 1.390 . S
C2174 H2165 0.930 . S
C2174 C2172 1.384 . S
C2174 C2175 1.372 . S
C2175 C2174 1.372 . S
C2175 C2176 1.400 . S
C2175 C2180 1.490 . S
C2176 H2166 0.930 . S
C2176 C2175 1.400 . S
C2176 C2179 1.386 . S
H2177 C2193 0.930 . S
H2178 C2194 0.931 . S
C2179 H2167 0.929 . S
C2179 C2173 1.390 . S
C2179 C2176 1.386 . S
C2180 C2175 1.490 . S
C2180 C2182 1.395 . S
C2180 C2183 1.403 . S
H2181 C2187 0.930 . S
C2182 H2168 0.930 . S
C2182 C2180 1.395 . S
C2182 C2185 1.403 . S
C2183 C2180 1.403 . S
C2183 C2184 1.524 . S
C2183 C2187 1.400 . S
C2184 H2169 0.960 . S
C2184 H2170 0.960 . S
C2184 H2171 0.960 . S
C2184 C2183 1.524 . S
C2185 C2182 1.403 . S
C2185 C2186 1.392 . S
C2185 C2189 1.495 . S
C2186 C2185 1.392 . S
C2186 C2187 1.385 . S
C2186 C2188 1.478 . S
C2187 H2181 0.930 . S
C2187 C2183 1.400 . S
C2187 C2186 1.385 . S
C2188 C2186 1.478 . S
C2188 C2190 1.381 . S
C2188 C2194 1.383 . S
C2189 C2185 1.495 . S
C2189 H2195 0.959 . S
C2189 H2196 0.961 . S
C2189 H2197 0.960 . S
C2190 C2188 1.381 . S
C2190 C2191 1.394 . S
C2190 H2198 0.930 . S
C2191 C2190 1.394 . S
C2191 C2192 1.383 . S
C2191 H2199 0.929 . S
C2192 C2191 1.383 . S
C2192 C2193 1.377 . S
C2193 H2177 0.930 . S
C2193 C2192 1.377 . S
C2193 C2194 1.379 . S
C2194 H2178 0.931 . S
C2194 C2188 1.383 . S
C2194 C2193 1.379 . S
H2195 C2189 0.959 . S
H2196 C2189 0.961 . S
H2197 C2189 0.960 . S
H2198 C2190 0.930 . S
H2199 C2191 0.929 . S
H2200 C2208 0.929 1_565 S
H2201 C2210 0.930 1_565 S
H2202 C2212 0.930 . S
H2203 C2215 0.929 . S
H2204 C2218 0.930 . S
H2205 C2220 0.960 . S
H2206 C2220 0.960 . S
H2207 C2220 0.960 . S
C2208 H2200 0.929 1_545 S
C2208 C2209 1.377 . S
C2208 C2210 1.384 . S
C2209 C2208 1.377 . S
C2209 C2215 1.390 . S
C2210 H2201 0.930 1_545 S
C2210 C2208 1.384 . S
C2210 C2211 1.372 . S
C2211 C2210 1.372 . S
C2211 C2212 1.400 . S
C2211 C2216 1.490 . S
C2212 H2202 0.930 . S
C2212 C2211 1.400 . S
C2212 C2215 1.386 . S
H2213 C2229 0.930 . S
H2214 C2230 0.931 . S
C2215 H2203 0.929 . S
C2215 C2209 1.390 . S
C2215 C2212 1.386 . S
C2216 C2211 1.490 . S
C2216 C2218 1.395 . S
C2216 C2219 1.403 . S
H2217 C2223 0.930 . S
C2218 H2204 0.930 . S
C2218 C2216 1.395 . S
C2218 C2221 1.403 . S
C2219 C2216 1.403 . S
C2219 C2220 1.524 . S
C2219 C2223 1.400 . S
C2220 H2205 0.960 . S
C2220 H2206 0.960 . S
C2220 H2207 0.960 . S
C2220 C2219 1.524 . S
C2221 C2218 1.403 . S
C2221 C2222 1.392 . S
C2221 C2225 1.495 . S
C2222 C2221 1.392 . S
C2222 C2223 1.385 . S
C2222 C2224 1.478 . S
C2223 H2217 0.930 . S
C2223 C2219 1.400 . S
C2223 C2222 1.385 . S
C2224 C2222 1.478 . S
C2224 C2226 1.381 . S
C2224 C2230 1.383 . S
C2225 C2221 1.495 . S
C2225 H2231 0.959 . S
C2225 H2232 0.961 . S
C2225 H2233 0.960 . S
C2226 C2224 1.381 . S
C2226 C2227 1.394 . S
C2226 H2234 0.930 1_545 S
C2227 C2226 1.394 . S
C2227 C2228 1.383 . S
C2227 H2235 0.929 1_545 S
C2228 C2227 1.383 . S
C2228 C2229 1.377 . S
C2229 H2213 0.930 . S
C2229 C2228 1.377 . S
C2229 C2230 1.379 . S
C2230 H2214 0.931 . S
C2230 C2224 1.383 . S
C2230 C2229 1.379 . S
H2231 C2225 0.959 . S
H2232 C2225 0.961 . S
H2233 C2225 0.960 . S
H2234 C2226 0.930 1_565 S
H2235 C2227 0.929 1_565 S
H2236 C2244 0.929 . S
H2237 C2246 0.930 . S
H2238 C2248 0.930 . S
H2239 C2251 0.929 . S
H2240 C2254 0.930 . S
H2241 C2256 0.960 . S
H2242 C2256 0.960 . S
H2243 C2256 0.960 . S
C2244 H2236 0.929 . S
C2244 C2245 1.377 . S
C2244 C2246 1.384 . S
C2245 C2244 1.377 . S
C2245 C2251 1.390 . S
C2246 H2237 0.930 . S
C2246 C2244 1.384 . S
C2246 C2247 1.372 . S
C2247 C2246 1.372 . S
C2247 C2248 1.400 . S
C2247 C2252 1.490 . S
C2248 H2238 0.930 . S
C2248 C2247 1.400 . S
C2248 C2251 1.386 . S
H2249 C2265 0.930 . S
H2250 C2266 0.931 . S
C2251 H2239 0.929 . S
C2251 C2245 1.390 . S
C2251 C2248 1.386 . S
C2252 C2247 1.490 . S
C2252 C2254 1.395 . S
C2252 C2255 1.403 . S
H2253 C2259 0.930 . S
C2254 H2240 0.930 . S
C2254 C2252 1.395 . S
C2254 C2257 1.403 . S
C2255 C2252 1.403 . S
C2255 C2256 1.524 . S
C2255 C2259 1.400 . S
C2256 H2241 0.960 . S
C2256 H2242 0.960 . S
C2256 H2243 0.960 . S
C2256 C2255 1.524 . S
C2257 C2254 1.403 . S
C2257 C2258 1.392 . S
C2257 C2261 1.495 . S
C2258 C2257 1.392 . S
C2258 C2259 1.385 . S
C2258 C2260 1.478 . S
C2259 H2253 0.930 . S
C2259 C2255 1.400 . S
C2259 C2258 1.385 . S
C2260 C2258 1.478 . S
C2260 C2262 1.381 . S
C2260 C2266 1.383 . S
C2261 C2257 1.495 . S
C2261 H2267 0.959 . S
C2261 H2268 0.961 . S
C2261 H2269 0.960 . S
C2262 C2260 1.381 . S
C2262 C2263 1.394 . S
C2262 H2270 0.930 . S
C2263 C2262 1.394 . S
C2263 C2264 1.383 . S
C2263 H2271 0.929 . S
C2264 C2263 1.383 . S
C2264 C2265 1.377 . S
C2265 H2249 0.930 . S
C2265 C2264 1.377 . S
C2265 C2266 1.379 . S
C2266 H2250 0.931 . S
C2266 C2260 1.383 . S
C2266 C2265 1.379 . S
H2267 C2261 0.959 . S
H2268 C2261 0.961 . S
H2269 C2261 0.960 . S
H2270 C2262 0.930 . S
H2271 C2263 0.929 . S
H2272 C2280 0.929 . S
H2273 C2282 0.930 . S
H2274 C2284 0.930 . S
H2275 C2287 0.929 . S
H2276 C2290 0.930 . S
H2277 C2292 0.960 . S
H2278 C2292 0.960 . S
H2279 C2292 0.960 1_545 S
C2280 H2272 0.929 . S
C2280 C2281 1.377 . S
C2280 C2282 1.384 . S
C2281 C2280 1.377 . S
C2281 C2287 1.390 . S
C2282 H2273 0.930 . S
C2282 C2280 1.384 . S
C2282 C2283 1.372 . S
C2283 C2282 1.372 . S
C2283 C2284 1.400 . S
C2283 C2288 1.490 . S
C2284 H2274 0.930 . S
C2284 C2283 1.400 . S
C2284 C2287 1.386 . S
H2285 C2301 0.930 . S
H2286 C2302 0.931 . S
C2287 H2275 0.929 . S
C2287 C2281 1.390 . S
C2287 C2284 1.386 . S
C2288 C2283 1.490 . S
C2288 C2290 1.395 . S
C2288 C2291 1.403 . S
H2289 C2295 0.930 . S
C2290 H2276 0.930 . S
C2290 C2288 1.395 . S
C2290 C2293 1.403 . S
C2291 C2288 1.403 . S
C2291 C2292 1.524 1_545 S
C2291 C2295 1.400 . S
C2292 H2277 0.960 . S
C2292 H2278 0.960 . S
C2292 H2279 0.960 1_565 S
C2292 C2291 1.524 1_565 S
C2293 C2290 1.403 . S
C2293 C2294 1.392 . S
C2293 C2297 1.495 . S
C2294 C2293 1.392 . S
C2294 C2295 1.385 . S
C2294 C2296 1.478 . S
C2295 H2289 0.930 . S
C2295 C2291 1.400 . S
C2295 C2294 1.385 . S
C2296 C2294 1.478 . S
C2296 C2298 1.381 . S
C2296 C2302 1.383 . S
C2297 C2293 1.495 . S
C2297 H2303 0.959 . S
C2297 H2304 0.961 . S
C2297 H2305 0.960 . S
C2298 C2296 1.381 . S
C2298 C2299 1.394 . S
C2298 H2306 0.960 . S
C2299 C2298 1.394 . S
C2299 C2300 1.383 . S
C2299 H2307 0.929 1_545 S
C2300 C2299 1.383 . S
C2300 C2301 1.377 . S
C2301 H2285 0.930 . S
C2301 C2300 1.377 . S
C2301 C2302 1.379 . S
C2302 H2286 0.931 . S
C2302 C2296 1.383 . S
C2302 C2301 1.379 . S
H2303 C2297 0.959 . S
H2304 C2297 0.961 . S
H2305 C2297 0.960 . S
H2306 C2298 0.960 . S
H2307 C2299 0.929 1_565 S
H2308 C2316 0.929 . S
H2309 C2318 0.930 . S
H2310 C2320 0.930 . S
H2311 C2323 0.929 . S
H2312 C2326 0.930 . S
H2313 C2328 0.960 . S
H2314 C2328 0.960 . S
H2315 C2328 0.960 . S
C2316 H2308 0.929 . S
C2316 C2317 1.377 . S
C2316 C2318 1.384 . S
C2317 C2316 1.377 . S
C2317 C2323 1.390 . S
C2318 H2309 0.930 . S
C2318 C2316 1.384 . S
C2318 C2319 1.372 . S
C2319 C2318 1.372 . S
C2319 C2320 1.400 . S
C2319 C2324 1.490 . S
C2320 H2310 0.930 . S
C2320 C2319 1.400 . S
C2320 C2323 1.386 . S
H2321 C2337 0.930 . S
H2322 C2338 0.931 . S
C2323 H2311 0.929 . S
C2323 C2317 1.390 . S
C2323 C2320 1.386 . S
C2324 C2319 1.490 . S
C2324 C2326 1.395 . S
C2324 C2327 1.403 . S
H2325 C2331 0.930 . S
C2326 H2312 0.930 . S
C2326 C2324 1.395 . S
C2326 C2329 1.403 . S
C2327 C2324 1.403 . S
C2327 C2328 1.524 . S
C2327 C2331 1.400 . S
C2328 H2313 0.960 . S
C2328 H2314 0.960 . S
C2328 H2315 0.960 . S
C2328 C2327 1.524 . S
C2329 C2326 1.403 . S
C2329 C2330 1.392 . S
C2329 C2333 1.495 . S
C2330 C2329 1.392 . S
C2330 C2331 1.385 . S
C2330 C2332 1.478 . S
C2331 H2325 0.930 . S
C2331 C2327 1.400 . S
C2331 C2330 1.385 . S
C2332 C2330 1.478 . S
C2332 C2334 1.381 . S
C2332 C2338 1.383 . S
C2333 C2329 1.495 . S
C2333 H2339 0.959 . S
C2333 H2340 0.961 . S
C2333 H2341 0.960 . S
C2334 C2332 1.381 . S
C2334 C2335 1.394 . S
C2334 H2342 0.930 . S
C2335 C2334 1.394 . S
C2335 C2336 1.383 . S
C2335 H2343 0.929 . S
C2336 C2335 1.383 . S
C2336 C2337 1.377 . S
C2337 H2321 0.930 . S
C2337 C2336 1.377 . S
C2337 C2338 1.379 . S
C2338 H2322 0.931 . S
C2338 C2332 1.383 . S
C2338 C2337 1.379 . S
H2339 C2333 0.959 . S
H2340 C2333 0.961 . S
H2341 C2333 0.960 . S
H2342 C2334 0.930 . S
H2343 C2335 0.929 . S
H2344 C2352 0.929 1_565 S
H2345 C2354 0.950 . S
H2346 C2356 0.930 . S
H2347 C2359 0.929 . S
H2348 C2362 0.930 . S
H2349 C2364 0.960 . S
H2350 C2364 0.960 1_565 S
H2351 C2364 0.960 . S
C2352 H2344 0.929 1_545 S
C2352 C2353 1.377 . S
C2352 C2354 1.381 1_545 S
C2353 C2352 1.377 . S
C2353 C2359 1.390 . S
C2354 H2345 0.950 . S
C2354 C2352 1.381 1_565 S
C2354 C2355 1.356 1_565 S
C2355 C2354 1.356 1_545 S
C2355 C2356 1.400 . S
C2355 C2360 1.490 . S
C2356 H2346 0.930 . S
C2356 C2355 1.400 . S
C2356 C2359 1.386 . S
H2357 C2373 0.930 . S
H2358 C2374 0.931 . S
C2359 H2347 0.929 . S
C2359 C2353 1.390 . S
C2359 C2356 1.386 . S
C2360 C2355 1.490 . S
C2360 C2362 1.395 . S
C2360 C2363 1.403 . S
H2361 C2367 0.930 . S
C2362 H2348 0.930 . S
C2362 C2360 1.395 . S
C2362 C2365 1.403 . S
C2363 C2360 1.403 . S
C2363 C2364 1.524 . S
C2363 C2367 1.400 . S
C2364 H2349 0.960 . S
C2364 H2350 0.960 1_545 S
C2364 H2351 0.960 . S
C2364 C2363 1.524 . S
C2365 C2362 1.403 . S
C2365 C2366 1.392 . S
C2365 C2369 1.495 . S
C2366 C2365 1.392 . S
C2366 C2367 1.385 . S
C2366 C2368 1.478 . S
C2367 H2361 0.930 . S
C2367 C2363 1.400 . S
C2367 C2366 1.385 . S
C2368 C2366 1.478 . S
C2368 C2370 1.381 1_545 S
C2368 C2374 1.383 . S
C2369 C2365 1.495 . S
C2369 H2375 0.959 . S
C2369 H2376 0.961 . S
C2369 H2377 0.960 1_545 S
C2370 C2368 1.381 1_565 S
C2370 C2371 1.394 . S
C2370 H2378 0.930 . S
C2371 C2370 1.394 . S
C2371 C2372 1.383 1_565 S
C2371 H2379 0.929 . S
C2372 C2371 1.383 1_545 S
C2372 C2373 1.377 . S
C2373 H2357 0.930 . S
C2373 C2372 1.377 . S
C2373 C2374 1.379 . S
C2374 H2358 0.931 . S
C2374 C2368 1.383 . S
C2374 C2373 1.379 . S
H2375 C2369 0.959 . S
H2376 C2369 0.961 . S
H2377 C2369 0.960 1_565 S
H2378 C2370 0.930 . S
H2379 C2371 0.929 . S
H2380 C2388 0.929 . S
H2381 C2390 0.930 . S
H2382 C2392 0.930 . S
H2383 C2395 0.929 . S
H2384 C2398 0.930 . S
H2385 C2400 0.960 . S
H2386 C2400 0.960 . S
H2387 C2400 0.960 . S
C2388 H2380 0.929 . S
C2388 C2389 1.377 . S
C2388 C2390 1.384 . S
C2389 C2388 1.377 . S
C2389 C2395 1.390 . S
C2390 H2381 0.930 . S
C2390 C2388 1.384 . S
C2390 C2391 1.372 . S
C2391 C2390 1.372 . S
C2391 C2392 1.400 . S
C2391 C2396 1.490 . S
C2392 H2382 0.930 . S
C2392 C2391 1.400 . S
C2392 C2395 1.386 . S
H2393 C2409 0.930 . S
H2394 C2410 0.931 . S
C2395 H2383 0.929 . S
C2395 C2389 1.390 . S
C2395 C2392 1.386 . S
C2396 C2391 1.490 . S
C2396 C2398 1.395 . S
C2396 C2399 1.403 . S
H2397 C2403 0.930 . S
C2398 H2384 0.930 . S
C2398 C2396 1.395 . S
C2398 C2401 1.403 . S
C2399 C2396 1.403 . S
C2399 C2400 1.524 . S
C2399 C2403 1.400 . S
C2400 H2385 0.960 . S
C2400 H2386 0.960 . S
C2400 H2387 0.960 . S
C2400 C2399 1.524 . S
C2401 C2398 1.403 . S
C2401 C2402 1.392 . S
C2401 C2405 1.495 . S
C2402 C2401 1.392 . S
C2402 C2403 1.385 . S
C2402 C2404 1.478 . S
C2403 H2397 0.930 . S
C2403 C2399 1.400 . S
C2403 C2402 1.385 . S
C2404 C2402 1.478 . S
C2404 C2406 1.381 . S
C2404 C2410 1.383 . S
C2405 C2401 1.495 . S
C2405 H2411 0.959 . S
C2405 H2412 0.961 . S
C2405 H2413 0.960 . S
C2406 C2404 1.381 . S
C2406 C2407 1.394 . S
C2406 H2414 0.930 . S
C2407 C2406 1.394 . S
C2407 C2408 1.383 . S
C2407 H2415 0.929 . S
C2408 C2407 1.383 . S
C2408 C2409 1.377 . S
C2409 H2393 0.930 . S
C2409 C2408 1.377 . S
C2409 C2410 1.379 . S
C2410 H2394 0.931 . S
C2410 C2404 1.383 . S
C2410 C2409 1.379 . S
H2411 C2405 0.959 . S
H2412 C2405 0.961 . S
H2413 C2405 0.960 . S
H2414 C2406 0.930 . S
H2415 C2407 0.929 . S
H2416 C2424 0.929 . S
H2417 C2426 0.930 . S
H2418 C2428 0.930 . S
H2419 C2431 0.929 . S
H2420 C2434 0.930 . S
H2421 C2436 0.960 . S
H2422 C2436 0.960 . S
H2423 C2436 0.960 . S
C2424 H2416 0.929 . S
C2424 C2425 1.377 . S
C2424 C2426 1.384 . S
C2425 C2424 1.377 . S
C2425 C2431 1.390 . S
C2426 H2417 0.930 . S
C2426 C2424 1.384 . S
C2426 C2427 1.372 . S
C2427 C2426 1.372 . S
C2427 C2428 1.400 . S
C2427 C2432 1.490 . S
C2428 H2418 0.930 . S
C2428 C2427 1.400 . S
C2428 C2431 1.386 . S
H2429 C2445 0.930 . S
H2430 C2446 0.931 . S
C2431 H2419 0.929 . S
C2431 C2425 1.390 . S
C2431 C2428 1.386 . S
C2432 C2427 1.490 . S
C2432 C2434 1.395 . S
C2432 C2435 1.403 . S
H2433 C2439 0.930 . S
C2434 H2420 0.930 . S
C2434 C2432 1.395 . S
C2434 C2437 1.403 . S
C2435 C2432 1.403 . S
C2435 C2436 1.524 . S
C2435 C2439 1.400 . S
C2436 H2421 0.960 . S
C2436 H2422 0.960 . S
C2436 H2423 0.960 . S
C2436 C2435 1.524 . S
C2437 C2434 1.403 . S
C2437 C2438 1.392 . S
C2437 C2441 1.495 . S
C2438 C2437 1.392 . S
C2438 C2439 1.385 . S
C2438 C2440 1.478 . S
C2439 H2433 0.930 . S
C2439 C2435 1.400 . S
C2439 C2438 1.385 . S
C2440 C2438 1.478 . S
C2440 C2442 1.381 . S
C2440 C2446 1.383 1_554 S
C2441 C2437 1.495 . S
C2441 H2447 0.959 . S
C2441 H2448 0.961 1_554 S
C2441 H2449 0.960 . S
C2442 C2440 1.381 . S
C2442 C2443 1.394 . S
C2442 H2450 0.930 . S
C2443 C2442 1.394 . S
C2443 C2444 1.356 1_554 S
C2443 H2451 0.929 . S
C2444 C2443 1.356 1_556 S
C2444 C2445 1.394 . S
C2445 H2429 0.930 . S
C2445 C2444 1.394 . S
C2445 C2446 1.379 . S
C2446 H2430 0.931 . S
C2446 C2440 1.383 1_556 S
C2446 C2445 1.379 . S
H2447 C2441 0.959 . S
H2448 C2441 0.961 1_556 S
H2449 C2441 0.960 . S
H2450 C2442 0.930 . S
H2451 C2443 0.929 . S
H2452 C2460 0.929 . S
H2453 C2462 0.930 . S
H2454 C2464 0.930 . S
H2455 C2467 0.929 . S
H2456 C2470 0.921 1_556 S
H2457 C2472 0.960 . S
H2458 C2472 0.960 . S
H2459 C2472 0.960 . S
C2460 H2452 0.929 . S
C2460 C2461 1.377 . S
C2460 C2462 1.384 . S
C2461 C2460 1.377 . S
C2461 C2467 1.390 . S
C2462 H2453 0.930 . S
C2462 C2460 1.384 . S
C2462 C2463 1.372 . S
C2463 C2462 1.372 . S
C2463 C2464 1.400 . S
C2463 C2468 1.490 . S
C2464 H2454 0.930 . S
C2464 C2463 1.400 . S
C2464 C2467 1.386 . S
H2465 C2481 0.930 . S
H2466 C2482 0.931 . S
C2467 H2455 0.929 . S
C2467 C2461 1.390 . S
C2467 C2464 1.386 . S
C2468 C2463 1.490 . S
C2468 C2470 1.395 . S
C2468 C2471 1.403 . S
H2469 C2475 0.930 . S
C2470 H2456 0.921 1_554 S
C2470 C2468 1.395 . S
C2470 C2473 1.403 . S
C2471 C2468 1.403 . S
C2471 C2472 1.524 . S
C2471 C2475 1.400 . S
C2472 H2457 0.960 . S
C2472 H2458 0.960 . S
C2472 H2459 0.960 . S
C2472 C2471 1.524 . S
C2473 C2470 1.403 . S
C2473 C2474 1.392 . S
C2473 C2477 1.495 1_554 S
C2474 C2473 1.392 . S
C2474 C2475 1.385 . S
C2474 C2476 1.478 . S
C2475 H2469 0.930 . S
C2475 C2471 1.400 . S
C2475 C2474 1.385 . S
C2476 C2474 1.478 . S
C2476 C2478 1.381 . S
C2476 C2482 1.383 . S
C2477 C2473 1.495 1_556 S
C2477 H2483 0.959 . S
C2477 H2484 0.961 . S
C2477 H2485 0.960 . S
C2478 C2476 1.381 . S
C2478 C2479 1.394 . S
C2478 H2486 0.930 . S
C2479 C2478 1.394 . S
C2479 C2480 1.383 . S
C2479 H2487 0.929 . S
C2480 C2479 1.383 . S
C2480 C2481 1.377 . S
C2481 H2465 0.930 . S
C2481 C2480 1.377 . S
C2481 C2482 1.379 . S
C2482 H2466 0.931 . S
C2482 C2476 1.383 . S
C2482 C2481 1.379 . S
H2483 C2477 0.959 . S
H2484 C2477 0.961 . S
H2485 C2477 0.960 . S
H2486 C2478 0.930 . S
H2487 C2479 0.929 . S
H2488 C2496 0.929 . S
H2489 C2498 0.930 . S
H2490 C2500 0.930 . S
H2491 C2503 0.929 . S
H2492 C2506 0.930 . S
H2493 C2508 0.960 . S
H2494 C2508 0.960 . S
H2495 C2508 0.960 . S
C2496 H2488 0.929 . S
C2496 C2497 1.377 . S
C2496 C2498 1.384 . S
C2497 C2496 1.377 . S
C2497 C2503 1.390 . S
C2498 H2489 0.930 . S
C2498 C2496 1.384 . S
C2498 C2499 1.372 . S
C2499 C2498 1.372 . S
C2499 C2500 1.400 . S
C2499 C2504 1.490 . S
C2500 H2490 0.930 . S
C2500 C2499 1.400 . S
C2500 C2503 1.386 . S
H2501 C2517 0.930 . S
H2502 C2518 0.931 . S
C2503 H2491 0.929 . S
C2503 C2497 1.390 . S
C2503 C2500 1.386 . S
C2504 C2499 1.490 . S
C2504 C2506 1.395 . S
C2504 C2507 1.403 . S
H2505 C2511 0.930 . S
C2506 H2492 0.930 . S
C2506 C2504 1.395 . S
C2506 C2509 1.403 . S
C2507 C2504 1.403 . S
C2507 C2508 1.524 . S
C2507 C2511 1.400 . S
C2508 H2493 0.960 . S
C2508 H2494 0.960 . S
C2508 H2495 0.960 . S
C2508 C2507 1.524 . S
C2509 C2506 1.403 . S
C2509 C2510 1.392 . S
C2509 C2513 1.495 . S
C2510 C2509 1.392 . S
C2510 C2511 1.385 . S
C2510 C2512 1.478 . S
C2511 H2505 0.930 . S
C2511 C2507 1.400 . S
C2511 C2510 1.385 . S
C2512 C2510 1.478 . S
C2512 C2514 1.381 . S
C2512 C2518 1.383 . S
C2513 C2509 1.495 . S
C2513 H2519 0.959 . S
C2513 H2520 0.961 . S
C2513 H2521 0.960 . S
C2514 C2512 1.381 . S
C2514 C2515 1.394 . S
C2514 H2522 0.930 . S
C2515 C2514 1.394 . S
C2515 C2516 1.383 . S
C2515 H2523 0.929 . S
C2516 C2515 1.383 . S
C2516 C2517 1.377 . S
C2517 H2501 0.930 . S
C2517 C2516 1.377 . S
C2517 C2518 1.379 . S
C2518 H2502 0.931 . S
C2518 C2512 1.383 . S
C2518 C2517 1.379 . S
H2519 C2513 0.959 . S
H2520 C2513 0.961 . S
H2521 C2513 0.960 . S
H2522 C2514 0.930 . S
H2523 C2515 0.929 . S
H2524 C2532 0.929 . S
H2525 C2534 0.930 . S
H2526 C2536 0.930 . S
H2527 C2539 0.929 . S
H2528 C2542 0.930 . S
H2529 C2544 0.960 . S
H2530 C2544 0.960 . S
H2531 C2544 0.960 . S
C2532 H2524 0.929 . S
C2532 C2533 1.377 . S
C2532 C2534 1.384 . S
C2533 C2532 1.377 . S
C2533 C2539 1.390 . S
C2534 H2525 0.930 . S
C2534 C2532 1.384 . S
C2534 C2535 1.372 . S
C2535 C2534 1.372 . S
C2535 C2536 1.400 . S
C2535 C2540 1.490 . S
C2536 H2526 0.930 . S
C2536 C2535 1.400 . S
C2536 C2539 1.386 . S
H2537 C2553 0.930 . S
H2538 C2554 0.931 . S
C2539 H2527 0.929 . S
C2539 C2533 1.390 . S
C2539 C2536 1.386 . S
C2540 C2535 1.490 . S
C2540 C2542 1.395 . S
C2540 C2543 1.403 . S
H2541 C2547 0.930 . S
C2542 H2528 0.930 . S
C2542 C2540 1.395 . S
C2542 C2545 1.403 . S
C2543 C2540 1.403 . S
C2543 C2544 1.524 . S
C2543 C2547 1.400 . S
C2544 H2529 0.960 . S
C2544 H2530 0.960 . S
C2544 H2531 0.960 . S
C2544 C2543 1.524 . S
C2545 C2542 1.403 . S
C2545 C2546 1.392 . S
C2545 C2549 1.495 . S
C2546 C2545 1.392 . S
C2546 C2547 1.385 . S
C2546 C2548 1.478 . S
C2547 H2541 0.930 . S
C2547 C2543 1.400 . S
C2547 C2546 1.385 . S
C2548 C2546 1.478 . S
C2548 C2550 1.381 . S
C2548 C2554 1.383 . S
C2549 C2545 1.495 . S
C2549 H2555 0.959 . S
C2549 H2556 0.961 . S
C2549 H2557 0.960 . S
C2550 C2548 1.381 . S
C2550 C2551 1.394 . S
C2550 H2558 0.930 . S
C2551 C2550 1.394 . S
C2551 C2552 1.383 . S
C2551 H2559 0.929 . S
C2552 C2551 1.383 . S
C2552 C2553 1.377 . S
C2553 H2537 0.930 . S
C2553 C2552 1.377 . S
C2553 C2554 1.379 . S
C2554 H2538 0.931 . S
C2554 C2548 1.383 . S
C2554 C2553 1.379 . S
H2555 C2549 0.959 . S
H2556 C2549 0.961 . S
H2557 C2549 0.960 . S
H2558 C2550 0.930 . S
H2559 C2551 0.929 . S
H2560 C2568 0.929 . S
H2561 C2570 0.930 . S
H2562 C2572 0.930 . S
H2563 C2575 0.929 . S
H2564 C2578 0.930 . S
H2565 C2580 0.960 . S
H2566 C2580 0.960 . S
H2567 C2580 0.960 . S
C2568 H2560 0.929 . S
C2568 C2569 1.377 . S
C2568 C2570 1.384 . S
C2569 C2568 1.377 . S
C2569 C2575 1.390 . S
C2570 H2561 0.930 . S
C2570 C2568 1.384 . S
C2570 C2571 1.372 . S
C2571 C2570 1.372 . S
C2571 C2572 1.400 . S
C2571 C2576 1.490 . S
C2572 H2562 0.930 . S
C2572 C2571 1.400 . S
C2572 C2575 1.386 . S
H2573 C2589 0.930 . S
H2574 C2590 0.931 . S
C2575 H2563 0.929 . S
C2575 C2569 1.390 . S
C2575 C2572 1.386 . S
C2576 C2571 1.490 . S
C2576 C2578 1.395 . S
C2576 C2579 1.403 . S
H2577 C2583 0.930 . S
C2578 H2564 0.930 . S
C2578 C2576 1.395 . S
C2578 C2581 1.403 . S
C2579 C2576 1.403 . S
C2579 C2580 1.524 . S
C2579 C2583 1.400 . S
C2580 H2565 0.960 . S
C2580 H2566 0.960 . S
C2580 H2567 0.960 . S
C2580 C2579 1.524 . S
C2581 C2578 1.403 . S
C2581 C2582 1.392 . S
C2581 C2585 1.495 . S
C2582 C2581 1.392 . S
C2582 C2583 1.385 . S
C2582 C2584 1.478 . S
C2583 H2577 0.930 . S
C2583 C2579 1.400 . S
C2583 C2582 1.385 . S
C2584 C2582 1.478 . S
C2584 C2586 1.381 . S
C2584 C2590 1.383 . S
C2585 C2581 1.495 . S
C2585 H2591 0.959 . S
C2585 H2592 0.961 . S
C2585 H2593 0.960 . S
C2586 C2584 1.381 . S
C2586 C2587 1.394 . S
C2586 H2594 0.930 . S
C2587 C2586 1.394 . S
C2587 C2588 1.383 . S
C2587 H2595 0.929 . S
C2588 C2587 1.383 . S
C2588 C2589 1.377 . S
C2589 H2573 0.930 . S
C2589 C2588 1.377 . S
C2589 C2590 1.379 . S
C2590 H2574 0.931 . S
C2590 C2584 1.383 . S
C2590 C2589 1.379 . S
H2591 C2585 0.959 . S
H2592 C2585 0.961 . S
H2593 C2585 0.960 . S
H2594 C2586 0.930 . S
H2595 C2587 0.929 . S
H2596 C2604 0.929 . S
H2597 C2606 0.930 . S
H2598 C2608 0.930 . S
H2599 C2611 0.929 . S
H2600 C2614 0.930 . S
H2601 C2616 0.960 . S
H2602 C2616 0.960 . S
H2603 C2616 0.960 . S
C2604 H2596 0.929 . S
C2604 C2605 1.377 . S
C2604 C2606 1.384 . S
C2605 C2604 1.377 . S
C2605 C2611 1.390 . S
C2606 H2597 0.930 . S
C2606 C2604 1.384 . S
C2606 C2607 1.372 . S
C2607 C2606 1.372 . S
C2607 C2608 1.400 . S
C2607 C2612 1.490 . S
C2608 H2598 0.930 . S
C2608 C2607 1.400 . S
C2608 C2611 1.386 . S
H2609 C2625 0.930 . S
H2610 C2626 0.931 . S
C2611 H2599 0.929 . S
C2611 C2605 1.390 . S
C2611 C2608 1.386 . S
C2612 C2607 1.490 . S
C2612 C2614 1.395 . S
C2612 C2615 1.403 . S
H2613 C2619 0.930 . S
C2614 H2600 0.930 . S
C2614 C2612 1.395 . S
C2614 C2617 1.403 . S
C2615 C2612 1.403 . S
C2615 C2616 1.524 . S
C2615 C2619 1.400 . S
C2616 H2601 0.960 . S
C2616 H2602 0.960 . S
C2616 H2603 0.960 . S
C2616 C2615 1.524 . S
C2617 C2614 1.403 . S
C2617 C2618 1.392 . S
C2617 C2621 1.495 . S
C2618 C2617 1.392 . S
C2618 C2619 1.385 . S
C2618 C2620 1.478 . S
C2619 H2613 0.930 . S
C2619 C2615 1.400 . S
C2619 C2618 1.385 . S
C2620 C2618 1.478 . S
C2620 C2622 1.381 . S
C2620 C2626 1.383 . S
C2621 C2617 1.495 . S
C2621 H2627 0.959 . S
C2621 H2628 0.961 . S
C2621 H2629 0.960 . S
C2622 C2620 1.381 . S
C2622 C2623 1.394 . S
C2622 H2630 0.930 . S
C2623 C2622 1.394 . S
C2623 C2624 1.383 . S
C2623 H2631 0.929 . S
C2624 C2623 1.383 . S
C2624 C2625 1.377 . S
C2625 H2609 0.930 . S
C2625 C2624 1.377 . S
C2625 C2626 1.379 . S
C2626 H2610 0.931 . S
C2626 C2620 1.383 . S
C2626 C2625 1.379 . S
H2627 C2621 0.959 . S
H2628 C2621 0.961 . S
H2629 C2621 0.960 . S
H2630 C2622 0.930 . S
H2631 C2623 0.929 . S
H2632 C2640 0.929 . S
H2633 C2642 0.930 . S
H2634 C2644 0.930 . S
H2635 C2647 0.929 . S
H2636 C2650 0.930 . S
H2637 C2652 0.960 . S
H2638 C2652 0.960 . S
H2639 C2652 0.960 . S
C2640 H2632 0.929 . S
C2640 C2641 1.377 . S
C2640 C2642 1.384 . S
C2641 C2640 1.377 . S
C2641 C2647 1.390 . S
C2642 H2633 0.930 . S
C2642 C2640 1.384 . S
C2642 C2643 1.372 . S
C2643 C2642 1.372 . S
C2643 C2644 1.400 . S
C2643 C2648 1.490 . S
C2644 H2634 0.930 . S
C2644 C2643 1.400 . S
C2644 C2647 1.386 . S
H2645 C2661 0.930 . S
H2646 C2662 0.931 . S
C2647 H2635 0.929 . S
C2647 C2641 1.390 . S
C2647 C2644 1.386 . S
C2648 C2643 1.490 . S
C2648 C2650 1.395 . S
C2648 C2651 1.403 . S
H2649 C2655 0.930 . S
C2650 H2636 0.930 . S
C2650 C2648 1.395 . S
C2650 C2653 1.403 . S
C2651 C2648 1.403 . S
C2651 C2652 1.524 . S
C2651 C2655 1.400 . S
C2652 H2637 0.960 . S
C2652 H2638 0.960 . S
C2652 H2639 0.960 . S
C2652 C2651 1.524 . S
C2653 C2650 1.403 . S
C2653 C2654 1.392 . S
C2653 C2657 1.495 . S
C2654 C2653 1.392 . S
C2654 C2655 1.385 . S
C2654 C2656 1.478 . S
C2655 H2649 0.930 . S
C2655 C2651 1.400 . S
C2655 C2654 1.385 . S
C2656 C2654 1.478 . S
C2656 C2658 1.381 . S
C2656 C2662 1.383 . S
C2657 C2653 1.495 . S
C2657 H2663 0.959 . S
C2657 H2664 0.961 . S
C2657 H2665 0.960 . S
C2658 C2656 1.381 . S
C2658 C2659 1.394 . S
C2658 H2666 0.930 . S
C2659 C2658 1.394 . S
C2659 C2660 1.383 . S
C2659 H2667 0.929 . S
C2660 C2659 1.383 . S
C2660 C2661 1.377 . S
C2661 H2645 0.930 . S
C2661 C2660 1.377 . S
C2661 C2662 1.379 . S
C2662 H2646 0.931 . S
C2662 C2656 1.383 . S
C2662 C2661 1.379 . S
H2663 C2657 0.959 . S
H2664 C2657 0.961 . S
H2665 C2657 0.960 . S
H2666 C2658 0.930 . S
H2667 C2659 0.929 . S
H2668 C2676 0.929 . S
H2669 C2678 0.930 . S
H2670 C2680 0.930 . S
H2671 C2683 0.929 . S
H2672 C2686 0.930 . S
H2673 C2688 0.960 . S
H2674 C2688 0.960 . S
H2675 C2688 0.960 . S
C2676 H2668 0.929 . S
C2676 C2677 1.377 . S
C2676 C2678 1.384 . S
C2677 C2676 1.377 . S
C2677 C2683 1.390 . S
C2678 H2669 0.930 . S
C2678 C2676 1.384 . S
C2678 C2679 1.372 . S
C2679 C2678 1.372 . S
C2679 C2680 1.400 . S
C2679 C2684 1.490 . S
C2680 H2670 0.930 . S
C2680 C2679 1.400 . S
C2680 C2683 1.386 . S
H2681 C2697 0.930 . S
H2682 C2698 0.931 . S
C2683 H2671 0.929 . S
C2683 C2677 1.390 . S
C2683 C2680 1.386 . S
C2684 C2679 1.490 . S
C2684 C2686 1.395 . S
C2684 C2687 1.403 . S
H2685 C2691 0.930 . S
C2686 H2672 0.930 . S
C2686 C2684 1.395 . S
C2686 C2689 1.403 . S
C2687 C2684 1.403 . S
C2687 C2688 1.524 . S
C2687 C2691 1.400 . S
C2688 H2673 0.960 . S
C2688 H2674 0.960 . S
C2688 H2675 0.960 . S
C2688 C2687 1.524 . S
C2689 C2686 1.403 . S
C2689 C2690 1.392 . S
C2689 C2693 1.495 . S
C2690 C2689 1.392 . S
C2690 C2691 1.385 . S
C2690 C2692 1.478 . S
C2691 H2685 0.930 . S
C2691 C2687 1.400 . S
C2691 C2690 1.385 . S
C2692 C2690 1.478 . S
C2692 C2694 1.381 . S
C2692 C2698 1.383 . S
C2693 C2689 1.495 . S
C2693 H2699 0.959 . S
C2693 H2700 0.961 . S
C2693 H2701 0.960 . S
C2694 C2692 1.381 . S
C2694 C2695 1.394 . S
C2694 H2702 0.930 . S
C2695 C2694 1.394 . S
C2695 C2696 1.383 . S
C2695 H2703 0.929 . S
C2696 C2695 1.383 . S
C2696 C2697 1.377 . S
C2697 H2681 0.930 . S
C2697 C2696 1.377 . S
C2697 C2698 1.379 . S
C2698 H2682 0.931 . S
C2698 C2692 1.383 . S
C2698 C2697 1.379 . S
H2699 C2693 0.959 . S
H2700 C2693 0.961 . S
H2701 C2693 0.960 . S
H2702 C2694 0.930 . S
H2703 C2695 0.929 . S
H2704 C2712 0.929 . S
H2705 C2714 0.930 . S
H2706 C2716 0.930 . S
H2707 C2719 0.929 . S
H2708 C2722 0.930 . S
H2709 C2724 0.960 . S
H2710 C2724 0.960 . S
H2711 C2724 0.960 . S
C2712 H2704 0.929 . S
C2712 C2713 1.377 . S
C2712 C2714 1.384 . S
C2713 C2712 1.377 . S
C2713 C2719 1.390 . S
C2714 H2705 0.930 . S
C2714 C2712 1.384 . S
C2714 C2715 1.372 . S
C2715 C2714 1.372 . S
C2715 C2716 1.400 . S
C2715 C2720 1.490 . S
C2716 H2706 0.930 . S
C2716 C2715 1.400 . S
C2716 C2719 1.386 . S
H2717 C2733 0.930 . S
H2718 C2734 0.931 . S
C2719 H2707 0.929 . S
C2719 C2713 1.390 . S
C2719 C2716 1.386 . S
C2720 C2715 1.490 . S
C2720 C2722 1.395 . S
C2720 C2723 1.403 . S
H2721 C2727 0.930 . S
C2722 H2708 0.930 . S
C2722 C2720 1.395 . S
C2722 C2725 1.403 . S
C2723 C2720 1.403 . S
C2723 C2724 1.524 . S
C2723 C2727 1.400 . S
C2724 H2709 0.960 . S
C2724 H2710 0.960 . S
C2724 H2711 0.960 . S
C2724 C2723 1.524 . S
C2725 C2722 1.403 . S
C2725 C2726 1.392 . S
C2725 C2729 1.495 . S
C2726 C2725 1.392 . S
C2726 C2727 1.385 . S
C2726 C2728 1.478 . S
C2727 H2721 0.930 . S
C2727 C2723 1.400 . S
C2727 C2726 1.385 . S
C2728 C2726 1.478 . S
C2728 C2730 1.381 . S
C2728 C2734 1.383 . S
C2729 C2725 1.495 . S
C2729 H2735 0.959 . S
C2729 H2736 0.961 . S
C2729 H2737 0.960 . S
C2730 C2728 1.381 . S
C2730 C2731 1.394 . S
C2730 H2738 0.930 . S
C2731 C2730 1.394 . S
C2731 C2732 1.383 . S
C2731 H2739 0.929 . S
C2732 C2731 1.383 . S
C2732 C2733 1.377 . S
C2733 H2717 0.930 . S
C2733 C2732 1.377 . S
C2733 C2734 1.379 . S
C2734 H2718 0.931 . S
C2734 C2728 1.383 . S
C2734 C2733 1.379 . S
H2735 C2729 0.959 . S
H2736 C2729 0.961 . S
H2737 C2729 0.960 . S
H2738 C2730 0.930 . S
H2739 C2731 0.929 . S
H2740 C2748 0.929 . S
H2741 C2750 0.930 . S
H2742 C2752 0.930 . S
H2743 C2755 0.929 . S
H2744 C2758 0.930 . S
H2745 C2760 0.960 . S
H2746 C2760 0.960 . S
H2747 C2760 0.960 . S
C2748 H2740 0.929 . S
C2748 C2749 1.377 . S
C2748 C2750 1.384 . S
C2749 C2748 1.377 . S
C2749 C2755 1.390 . S
C2750 H2741 0.930 . S
C2750 C2748 1.384 . S
C2750 C2751 1.372 . S
C2751 C2750 1.372 . S
C2751 C2752 1.400 . S
C2751 C2756 1.490 . S
C2752 H2742 0.930 . S
C2752 C2751 1.400 . S
C2752 C2755 1.386 . S
H2753 C2769 0.930 . S
H2754 C2770 0.931 . S
C2755 H2743 0.929 . S
C2755 C2749 1.390 . S
C2755 C2752 1.386 . S
C2756 C2751 1.490 . S
C2756 C2758 1.395 . S
C2756 C2759 1.403 . S
H2757 C2763 0.930 . S
C2758 H2744 0.930 . S
C2758 C2756 1.395 . S
C2758 C2761 1.403 . S
C2759 C2756 1.403 . S
C2759 C2760 1.524 . S
C2759 C2763 1.400 . S
C2760 H2745 0.960 . S
C2760 H2746 0.960 . S
C2760 H2747 0.960 . S
C2760 C2759 1.524 . S
C2761 C2758 1.403 . S
C2761 C2762 1.392 . S
C2761 C2765 1.495 . S
C2762 C2761 1.392 . S
C2762 C2763 1.385 . S
C2762 C2764 1.478 . S
C2763 H2757 0.930 . S
C2763 C2759 1.400 . S
C2763 C2762 1.385 . S
C2764 C2762 1.478 . S
C2764 C2766 1.381 . S
C2764 C2770 1.383 . S
C2765 C2761 1.495 . S
C2765 H2771 0.959 . S
C2765 H2772 0.961 . S
C2765 H2773 0.960 . S
C2766 C2764 1.381 . S
C2766 C2767 1.394 . S
C2766 H2774 0.930 . S
C2767 C2766 1.394 . S
C2767 C2768 1.383 . S
C2767 H2775 0.929 . S
C2768 C2767 1.383 . S
C2768 C2769 1.377 . S
C2769 H2753 0.930 . S
C2769 C2768 1.377 . S
C2769 C2770 1.379 . S
C2770 H2754 0.931 . S
C2770 C2764 1.383 . S
C2770 C2769 1.379 . S
H2771 C2765 0.959 . S
H2772 C2765 0.961 . S
H2773 C2765 0.960 . S
H2774 C2766 0.930 . S
H2775 C2767 0.929 . S
H2776 C2784 0.929 . S
H2777 C2786 0.930 . S
H2778 C2788 0.930 . S
H2779 C2791 0.929 . S
H2780 C2794 0.930 1_655 S
H2781 C2796 0.960 . S
H2782 C2796 0.960 . S
H2783 C2796 0.960 . S
C2784 H2776 0.929 . S
C2784 C2785 1.377 . S
C2784 C2786 1.384 . S
C2785 C2784 1.377 . S
C2785 C2791 1.390 . S
C2786 H2777 0.930 . S
C2786 C2784 1.384 . S
C2786 C2787 1.372 . S
C2787 C2786 1.372 . S
C2787 C2788 1.400 . S
C2787 C2792 1.490 . S
C2788 H2778 0.930 . S
C2788 C2787 1.400 . S
C2788 C2791 1.386 . S
H2789 C2805 0.930 . S
H2790 C2806 0.931 . S
C2791 H2779 0.929 . S
C2791 C2785 1.390 . S
C2791 C2788 1.386 . S
C2792 C2787 1.490 . S
C2792 C2794 1.395 . S
C2792 C2795 1.403 . S
H2793 C2799 0.930 . S
C2794 H2780 0.930 1_455 S
C2794 C2792 1.395 . S
C2794 C2797 1.403 . S
C2795 C2792 1.403 . S
C2795 C2796 1.524 . S
C2795 C2799 1.400 . S
C2796 H2781 0.960 . S
C2796 H2782 0.960 . S
C2796 H2783 0.960 . S
C2796 C2795 1.524 . S
C2797 C2794 1.403 . S
C2797 C2798 1.392 . S
C2797 C2801 1.495 1_455 S
C2798 C2797 1.392 . S
C2798 C2799 1.385 . S
C2798 C2800 1.478 . S
C2799 H2793 0.930 . S
C2799 C2795 1.400 . S
C2799 C2798 1.385 . S
C2800 C2798 1.478 . S
C2800 C2802 1.381 . S
C2800 C2806 1.383 1_556 S
C2801 C2797 1.495 1_655 S
C2801 H2807 0.959 . S
C2801 H2808 0.961 . S
C2801 H2809 0.960 . S
C2802 C2800 1.381 . S
C2802 C2803 1.394 . S
C2802 H2810 0.930 . S
C2803 C2802 1.394 . S
C2803 C2804 1.383 1_556 S
C2803 H2811 0.929 . S
C2804 C2803 1.383 1_554 S
C2804 C2805 1.377 . S
C2805 H2789 0.930 . S
C2805 C2804 1.377 . S
C2805 C2806 1.379 . S
C2806 H2790 0.931 . S
C2806 C2800 1.383 1_554 S
C2806 C2805 1.379 . S
H2807 C2801 0.959 . S
H2808 C2801 0.961 . S
H2809 C2801 0.960 . S
H2810 C2802 0.930 . S
H2811 C2803 0.929 . S
H2812 C2820 0.929 1_455 S
H2813 C2822 0.930 . S
H2814 C2824 0.930 . S
H2815 C2827 0.929 . S
H2816 C2830 0.930 . S
H2817 C2832 0.960 . S
H2818 C2832 0.960 . S
H2819 C2832 0.960 . S
C2820 H2812 0.929 1_655 S
C2820 C2821 1.377 . S
C2820 C2822 1.384 . S
C2821 C2820 1.377 . S
C2821 C2827 1.390 . S
C2822 H2813 0.930 . S
C2822 C2820 1.384 . S
C2822 C2823 1.372 . S
C2823 C2822 1.372 . S
C2823 C2824 1.400 . S
C2823 C2828 1.490 . S
C2824 H2814 0.930 . S
C2824 C2823 1.400 . S
C2824 C2827 1.386 . S
H2825 C2841 0.930 . S
H2826 C2842 0.931 . S
C2827 H2815 0.929 . S
C2827 C2821 1.390 . S
C2827 C2824 1.386 . S
C2828 C2823 1.490 . S
C2828 C2830 1.395 . S
C2828 C2831 1.403 . S
H2829 C2835 0.930 . S
C2830 H2816 0.930 . S
C2830 C2828 1.395 . S
C2830 C2833 1.403 . S
C2831 C2828 1.403 . S
C2831 C2832 1.524 . S
C2831 C2835 1.400 . S
C2832 H2817 0.960 . S
C2832 H2818 0.960 . S
C2832 H2819 0.960 . S
C2832 C2831 1.524 . S
C2833 C2830 1.403 . S
C2833 C2834 1.392 . S
C2833 C2837 1.495 . S
C2834 C2833 1.392 . S
C2834 C2835 1.385 . S
C2834 C2836 1.478 . S
C2835 H2829 0.930 . S
C2835 C2831 1.400 . S
C2835 C2834 1.385 . S
C2836 C2834 1.478 . S
C2836 C2838 1.381 . S
C2836 C2842 1.383 . S
C2837 C2833 1.495 . S
C2837 H2843 0.959 . S
C2837 H2844 0.961 . S
C2837 H2845 0.960 . S
C2838 C2836 1.381 . S
C2838 C2839 1.394 . S
C2838 H2846 0.930 . S
C2839 C2838 1.394 . S
C2839 C2840 1.383 . S
C2839 H2847 0.929 . S
C2840 C2839 1.383 . S
C2840 C2841 1.377 . S
C2841 H2825 0.930 . S
C2841 C2840 1.377 . S
C2841 C2842 1.379 . S
C2842 H2826 0.931 . S
C2842 C2836 1.383 . S
C2842 C2841 1.379 . S
H2843 C2837 0.959 . S
H2844 C2837 0.961 . S
H2845 C2837 0.960 . S
H2846 C2838 0.930 . S
H2847 C2839 0.929 . S
H2848 C2856 0.929 . S
H2849 C2858 0.930 . S
H2850 C2860 0.930 . S
H2851 C2863 0.929 . S
H2852 C2866 0.930 . S
H2853 C2868 0.960 . S
H2854 C2868 0.960 . S
H2855 C2868 0.960 . S
C2856 H2848 0.929 . S
C2856 C2857 1.377 . S
C2856 C2858 1.384 . S
C2857 C2856 1.377 . S
C2857 C2863 1.390 . S
C2858 H2849 0.930 . S
C2858 C2856 1.384 . S
C2858 C2859 1.372 . S
C2859 C2858 1.372 . S
C2859 C2860 1.400 . S
C2859 C2864 1.490 . S
C2860 H2850 0.930 . S
C2860 C2859 1.400 . S
C2860 C2863 1.386 . S
H2861 C2877 0.930 . S
H2862 C2878 0.931 . S
C2863 H2851 0.929 . S
C2863 C2857 1.390 . S
C2863 C2860 1.386 . S
C2864 C2859 1.490 . S
C2864 C2866 1.395 . S
C2864 C2867 1.403 . S
H2865 C2871 0.930 . S
C2866 H2852 0.930 . S
C2866 C2864 1.395 . S
C2866 C2869 1.403 . S
C2867 C2864 1.403 . S
C2867 C2868 1.524 . S
C2867 C2871 1.400 . S
C2868 H2853 0.960 . S
C2868 H2854 0.960 . S
C2868 H2855 0.960 . S
C2868 C2867 1.524 . S
C2869 C2866 1.403 . S
C2869 C2870 1.392 . S
C2869 C2873 1.495 . S
C2870 C2869 1.392 . S
C2870 C2871 1.385 . S
C2870 C2872 1.478 . S
C2871 H2865 0.930 . S
C2871 C2867 1.400 . S
C2871 C2870 1.385 . S
C2872 C2870 1.478 . S
C2872 C2874 1.381 . S
C2872 C2878 1.383 . S
C2873 C2869 1.495 . S
C2873 H2879 0.959 . S
C2873 H2880 0.961 . S
C2873 H2881 0.960 . S
C2874 C2872 1.381 . S
C2874 C2875 1.394 . S
C2874 H2882 0.930 . S
C2875 C2874 1.394 . S
C2875 C2876 1.383 . S
C2875 H2883 0.929 . S
C2876 C2875 1.383 . S
C2876 C2877 1.377 . S
C2877 H2861 0.930 . S
C2877 C2876 1.377 . S
C2877 C2878 1.379 . S
C2878 H2862 0.931 . S
C2878 C2872 1.383 . S
C2878 C2877 1.379 . S
H2879 C2873 0.959 . S
H2880 C2873 0.961 . S
H2881 C2873 0.960 . S
H2882 C2874 0.930 . S
H2883 C2875 0.929 . S
H2884 C2892 0.929 . S
H2885 C2894 0.930 . S
H2886 C2896 0.930 . S
H2887 C2899 0.929 . S
H2888 C2902 0.930 . S
H2889 C2904 0.960 . S
H2890 C2904 0.960 . S
H2891 C2904 0.960 . S
C2892 H2884 0.929 . S
C2892 C2893 1.377 . S
C2892 C2894 1.384 . S
C2893 C2892 1.377 . S
C2893 C2899 1.390 . S
C2894 H2885 0.930 . S
C2894 C2892 1.384 . S
C2894 C2895 1.372 . S
C2895 C2894 1.372 . S
C2895 C2896 1.400 . S
C2895 C2900 1.490 . S
C2896 H2886 0.930 . S
C2896 C2895 1.400 . S
C2896 C2899 1.386 . S
H2897 C2913 0.930 . S
H2898 C2914 0.931 . S
C2899 H2887 0.929 . S
C2899 C2893 1.390 . S
C2899 C2896 1.386 . S
C2900 C2895 1.490 . S
C2900 C2902 1.395 . S
C2900 C2903 1.403 . S
H2901 C2907 0.930 . S
C2902 H2888 0.930 . S
C2902 C2900 1.395 . S
C2902 C2905 1.403 . S
C2903 C2900 1.403 . S
C2903 C2904 1.524 . S
C2903 C2907 1.400 . S
C2904 H2889 0.960 . S
C2904 H2890 0.960 . S
C2904 H2891 0.960 . S
C2904 C2903 1.524 . S
C2905 C2902 1.403 . S
C2905 C2906 1.392 . S
C2905 C2909 1.495 . S
C2906 C2905 1.392 . S
C2906 C2907 1.385 . S
C2906 C2908 1.478 . S
C2907 H2901 0.930 . S
C2907 C2903 1.400 . S
C2907 C2906 1.385 . S
C2908 C2906 1.478 . S
C2908 C2910 1.381 . S
C2908 C2914 1.383 . S
C2909 C2905 1.495 . S
C2909 H2915 0.959 . S
C2909 H2916 0.961 . S
C2909 H2917 0.960 . S
C2910 C2908 1.381 . S
C2910 C2911 1.394 . S
C2910 H2918 0.930 . S
C2911 C2910 1.394 . S
C2911 C2912 1.383 . S
C2911 H2919 0.929 . S
C2912 C2911 1.383 . S
C2912 C2913 1.377 . S
C2913 H2897 0.930 . S
C2913 C2912 1.377 . S
C2913 C2914 1.379 . S
C2914 H2898 0.931 . S
C2914 C2908 1.383 . S
C2914 C2913 1.379 . S
H2915 C2909 0.959 . S
H2916 C2909 0.961 . S
H2917 C2909 0.960 . S
H2918 C2910 0.930 . S
H2919 C2911 0.929 . S
H2920 C2928 0.929 . S
H2921 C2930 0.930 . S
H2922 C2932 0.930 . S
H2923 C2935 0.929 . S
H2924 C2938 0.930 . S
H2925 C2940 0.960 . S
H2926 C2940 0.960 . S
H2927 C2940 0.960 . S
C2928 H2920 0.929 . S
C2928 C2929 1.377 . S
C2928 C2930 1.384 . S
C2929 C2928 1.377 . S
C2929 C2935 1.390 . S
C2930 H2921 0.930 . S
C2930 C2928 1.384 . S
C2930 C2931 1.372 . S
C2931 C2930 1.372 . S
C2931 C2932 1.400 . S
C2931 C2936 1.490 . S
C2932 H2922 0.930 . S
C2932 C2931 1.400 . S
C2932 C2935 1.386 . S
H2933 C2949 0.930 . S
H2934 C2950 0.931 . S
C2935 H2923 0.929 . S
C2935 C2929 1.390 . S
C2935 C2932 1.386 . S
C2936 C2931 1.490 . S
C2936 C2938 1.395 . S
C2936 C2939 1.403 . S
H2937 C2943 0.930 . S
C2938 H2924 0.930 . S
C2938 C2936 1.395 . S
C2938 C2941 1.403 . S
C2939 C2936 1.403 . S
C2939 C2940 1.524 . S
C2939 C2943 1.400 . S
C2940 H2925 0.960 . S
C2940 H2926 0.960 . S
C2940 H2927 0.960 . S
C2940 C2939 1.524 . S
C2941 C2938 1.403 . S
C2941 C2942 1.392 . S
C2941 C2945 1.495 . S
C2942 C2941 1.392 . S
C2942 C2943 1.385 . S
C2942 C2944 1.478 . S
C2943 H2937 0.930 . S
C2943 C2939 1.400 . S
C2943 C2942 1.385 . S
C2944 C2942 1.478 . S
C2944 C2946 1.381 . S
C2944 C2950 1.383 . S
C2945 C2941 1.495 . S
C2945 H2951 0.959 . S
C2945 H2952 0.961 . S
C2945 H2953 0.960 . S
C2946 C2944 1.381 . S
C2946 C2947 1.394 . S
C2946 H2954 0.930 . S
C2947 C2946 1.394 . S
C2947 C2948 1.383 . S
C2947 H2955 0.929 . S
C2948 C2947 1.383 . S
C2948 C2949 1.377 . S
C2949 H2933 0.930 . S
C2949 C2948 1.377 . S
C2949 C2950 1.379 . S
C2950 H2934 0.931 . S
C2950 C2944 1.383 . S
C2950 C2949 1.379 . S
H2951 C2945 0.959 . S
H2952 C2945 0.961 . S
H2953 C2945 0.960 . S
H2954 C2946 0.930 . S
H2955 C2947 0.929 . S
H2956 C2964 0.929 . S
H2957 C2966 0.930 . S
H2958 C2968 0.930 . S
H2959 C2971 0.929 . S
H2960 C2974 0.930 . S
H2961 C2976 0.960 . S
H2962 C2976 0.960 . S
H2963 C2976 0.960 . S
C2964 H2956 0.929 . S
C2964 C2965 1.377 . S
C2964 C2966 1.384 . S
C2965 C2964 1.377 . S
C2965 C2971 1.390 . S
C2966 H2957 0.930 . S
C2966 C2964 1.384 . S
C2966 C2967 1.372 . S
C2967 C2966 1.372 . S
C2967 C2968 1.400 . S
C2967 C2972 1.490 . S
C2968 H2958 0.930 . S
C2968 C2967 1.400 . S
C2968 C2971 1.386 . S
H2969 C2985 0.930 . S
H2970 C2986 0.931 . S
C2971 H2959 0.929 . S
C2971 C2965 1.390 . S
C2971 C2968 1.386 . S
C2972 C2967 1.490 . S
C2972 C2974 1.395 . S
C2972 C2975 1.403 . S
H2973 C2979 0.930 . S
C2974 H2960 0.930 . S
C2974 C2972 1.395 . S
C2974 C2977 1.403 . S
C2975 C2972 1.403 . S
C2975 C2976 1.524 . S
C2975 C2979 1.400 . S
C2976 H2961 0.960 . S
C2976 H2962 0.960 . S
C2976 H2963 0.960 . S
C2976 C2975 1.524 . S
C2977 C2974 1.403 . S
C2977 C2978 1.392 . S
C2977 C2981 1.495 . S
C2978 C2977 1.392 . S
C2978 C2979 1.385 . S
C2978 C2980 1.478 . S
C2979 H2973 0.930 . S
C2979 C2975 1.400 . S
C2979 C2978 1.385 . S
C2980 C2978 1.478 . S
C2980 C2982 1.381 . S
C2980 C2986 1.383 . S
C2981 C2977 1.495 . S
C2981 H2987 0.959 . S
C2981 H2988 0.961 . S
C2981 H2989 0.960 . S
C2982 C2980 1.381 . S
C2982 C2983 1.394 . S
C2982 H2990 0.930 . S
C2983 C2982 1.394 . S
C2983 C2984 1.383 . S
C2983 H2991 0.929 . S
C2984 C2983 1.383 . S
C2984 C2985 1.377 . S
C2985 H2969 0.930 . S
C2985 C2984 1.377 . S
C2985 C2986 1.379 . S
C2986 H2970 0.931 . S
C2986 C2980 1.383 . S
C2986 C2985 1.379 . S
H2987 C2981 0.959 . S
H2988 C2981 0.961 . S
H2989 C2981 0.960 . S
H2990 C2982 0.930 . S
H2991 C2983 0.929 . S
H2992 C3000 0.929 . S
H2993 C3002 0.930 . S
H2994 C3004 0.930 . S
H2995 C3007 0.929 . S
H2996 C3010 0.930 . S
H2997 C3012 0.960 . S
H2998 C3012 0.960 . S
H2999 C3012 0.960 . S
C3000 H2992 0.929 . S
C3000 C3001 1.377 . S
C3000 C3002 1.384 . S
C3001 C3000 1.377 . S
C3001 C3007 1.390 . S
C3002 H2993 0.930 . S
C3002 C3000 1.384 . S
C3002 C3003 1.372 . S
C3003 C3002 1.372 . S
C3003 C3004 1.400 . S
C3003 C3008 1.490 . S
C3004 H2994 0.930 . S
C3004 C3003 1.400 . S
C3004 C3007 1.386 . S
H3005 C3021 0.930 . S
H3006 C3022 0.931 . S
C3007 H2995 0.929 . S
C3007 C3001 1.390 . S
C3007 C3004 1.386 . S
C3008 C3003 1.490 . S
C3008 C3010 1.395 . S
C3008 C3011 1.403 . S
H3009 C3015 0.930 . S
C3010 H2996 0.930 . S
C3010 C3008 1.395 . S
C3010 C3013 1.403 . S
C3011 C3008 1.403 . S
C3011 C3012 1.524 . S
C3011 C3015 1.400 . S
C3012 H2997 0.960 . S
C3012 H2998 0.960 . S
C3012 H2999 0.960 . S
C3012 C3011 1.524 . S
C3013 C3010 1.403 . S
C3013 C3014 1.392 . S
C3013 C3017 1.495 . S
C3014 C3013 1.392 . S
C3014 C3015 1.385 . S
C3014 C3016 1.478 . S
C3015 H3009 0.930 . S
C3015 C3011 1.400 . S
C3015 C3014 1.385 . S
C3016 C3014 1.478 . S
C3016 C3018 1.381 . S
C3016 C3022 1.383 . S
C3017 C3013 1.495 . S
C3017 H3023 0.959 . S
C3017 H3024 0.961 . S
C3017 H3025 0.960 . S
C3018 C3016 1.381 . S
C3018 C3019 1.394 . S
C3018 H3026 0.930 . S
C3019 C3018 1.394 . S
C3019 C3020 1.383 . S
C3019 H3027 0.929 . S
C3020 C3019 1.383 . S
C3020 C3021 1.377 . S
C3021 H3005 0.930 . S
C3021 C3020 1.377 . S
C3021 C3022 1.379 . S
C3022 H3006 0.931 . S
C3022 C3016 1.383 . S
C3022 C3021 1.379 . S
H3023 C3017 0.959 . S
H3024 C3017 0.961 . S
H3025 C3017 0.960 . S
H3026 C3018 0.930 . S
H3027 C3019 0.929 . S
H3028 C3036 0.929 . S
H3029 C3038 0.930 . S
H3030 C3040 0.930 . S
H3031 C3043 0.929 . S
H3032 C3046 0.930 . S
H3033 C3048 0.960 . S
H3034 C3048 0.960 . S
H3035 C3048 0.960 . S
C3036 H3028 0.929 . S
C3036 C3037 1.377 . S
C3036 C3038 1.384 1_554 S
C3037 C3036 1.377 . S
C3037 C3043 1.390 . S
C3038 H3029 0.930 . S
C3038 C3036 1.384 1_556 S
C3038 C3039 1.372 . S
C3039 C3038 1.372 . S
C3039 C3040 1.400 . S
C3039 C3044 1.490 . S
C3040 H3030 0.930 . S
C3040 C3039 1.400 . S
C3040 C3043 1.386 1_556 S
H3041 C3057 0.930 . S
H3042 C3058 0.931 . S
C3043 H3031 0.929 . S
C3043 C3037 1.390 . S
C3043 C3040 1.386 1_554 S
C3044 C3039 1.490 . S
C3044 C3046 1.395 . S
C3044 C3047 1.403 . S
H3045 C3051 0.930 . S
C3046 H3032 0.930 . S
C3046 C3044 1.395 . S
C3046 C3049 1.403 . S
C3047 C3044 1.403 . S
C3047 C3048 1.524 . S
C3047 C3051 1.400 . S
C3048 H3033 0.960 . S
C3048 H3034 0.960 . S
C3048 H3035 0.960 . S
C3048 C3047 1.524 . S
C3049 C3046 1.403 . S
C3049 C3050 1.392 . S
C3049 C3053 1.495 . S
C3050 C3049 1.392 . S
C3050 C3051 1.385 . S
C3050 C3052 1.478 . S
C3051 H3045 0.930 . S
C3051 C3047 1.400 . S
C3051 C3050 1.385 . S
C3052 C3050 1.478 . S
C3052 C3054 1.381 . S
C3052 C3058 1.383 . S
C3053 C3049 1.495 . S
C3053 H3059 0.959 . S
C3053 H3060 0.961 . S
C3053 H3061 0.960 . S
C3054 C3052 1.381 . S
C3054 C3055 1.394 . S
C3054 H3062 0.930 . S
C3055 C3054 1.394 . S
C3055 C3056 1.383 . S
C3055 H3063 0.929 . S
C3056 C3055 1.383 . S
C3056 C3057 1.377 . S
C3057 H3041 0.930 . S
C3057 C3056 1.377 . S
C3057 C3058 1.379 . S
C3058 H3042 0.931 . S
C3058 C3052 1.383 . S
C3058 C3057 1.379 . S
H3059 C3053 0.959 . S
H3060 C3053 0.961 . S
H3061 C3053 0.960 . S
H3062 C3054 0.930 . S
H3063 C3055 0.929 . S
H3064 C3072 0.929 . S
H3065 C3074 0.930 . S
H3066 C3076 0.930 . S
H3067 C3079 0.929 . S
H3068 C3082 0.930 . S
H3069 C3084 0.960 . S
H3070 C3084 0.960 . S
H3071 C3084 0.960 . S
C3072 H3064 0.929 . S
C3072 C3073 1.377 . S
C3072 C3074 1.384 . S
C3073 C3072 1.377 . S
C3073 C3079 1.390 . S
C3074 H3065 0.930 . S
C3074 C3072 1.384 . S
C3074 C3075 1.372 . S
C3075 C3074 1.372 . S
C3075 C3076 1.400 . S
C3075 C3080 1.490 . S
C3076 H3066 0.930 . S
C3076 C3075 1.400 . S
C3076 C3079 1.386 . S
H3077 C3093 0.930 . S
H3078 C3094 0.931 . S
C3079 H3067 0.929 . S
C3079 C3073 1.390 . S
C3079 C3076 1.386 . S
C3080 C3075 1.490 . S
C3080 C3082 1.395 . S
C3080 C3083 1.403 . S
H3081 C3087 0.930 . S
C3082 H3068 0.930 . S
C3082 C3080 1.395 . S
C3082 C3085 1.403 . S
C3083 C3080 1.403 . S
C3083 C3084 1.524 . S
C3083 C3087 1.400 . S
C3084 H3069 0.960 . S
C3084 H3070 0.960 . S
C3084 H3071 0.960 . S
C3084 C3083 1.524 . S
C3085 C3082 1.403 . S
C3085 C3086 1.392 . S
C3085 C3089 1.495 . S
C3086 C3085 1.392 . S
C3086 C3087 1.385 . S
C3086 C3088 1.478 . S
C3087 H3081 0.930 . S
C3087 C3083 1.400 . S
C3087 C3086 1.385 . S
C3088 C3086 1.478 . S
C3088 C3090 1.381 . S
C3088 C3094 1.383 . S
C3089 C3085 1.495 . S
C3089 H3095 0.959 . S
C3089 H3096 0.961 . S
C3089 H3097 0.960 . S
C3090 C3088 1.381 . S
C3090 C3091 1.394 . S
C3090 H3098 0.930 . S
C3091 C3090 1.394 . S
C3091 C3092 1.383 . S
C3091 H3099 0.929 . S
C3092 C3091 1.383 . S
C3092 C3093 1.377 . S
C3093 H3077 0.930 . S
C3093 C3092 1.377 . S
C3093 C3094 1.379 . S
C3094 H3078 0.931 . S
C3094 C3088 1.383 . S
C3094 C3093 1.379 . S
H3095 C3089 0.959 . S
H3096 C3089 0.961 . S
H3097 C3089 0.960 . S
H3098 C3090 0.930 . S
H3099 C3091 0.929 . S
H3100 C3108 0.929 . S
H3101 C3110 0.930 . S
H3102 C3112 0.930 . S
H3103 C3115 0.929 . S
H3104 C3118 0.930 . S
H3105 C3120 0.960 . S
H3106 C3120 0.960 . S
H3107 C3120 0.960 . S
C3108 H3100 0.929 . S
C3108 C3109 1.377 . S
C3108 C3110 1.384 . S
C3109 C3108 1.377 . S
C3109 C3115 1.390 . S
C3110 H3101 0.930 . S
C3110 C3108 1.384 . S
C3110 C3111 1.372 . S
C3111 C3110 1.372 . S
C3111 C3112 1.400 . S
C3111 C3116 1.490 . S
C3112 H3102 0.930 . S
C3112 C3111 1.400 . S
C3112 C3115 1.386 . S
H3113 C3129 0.930 . S
H3114 C3130 0.931 . S
C3115 H3103 0.929 . S
C3115 C3109 1.390 . S
C3115 C3112 1.386 . S
C3116 C3111 1.490 . S
C3116 C3118 1.395 . S
C3116 C3119 1.403 . S
H3117 C3123 0.930 . S
C3118 H3104 0.930 . S
C3118 C3116 1.395 . S
C3118 C3121 1.403 . S
C3119 C3116 1.403 . S
C3119 C3120 1.524 . S
C3119 C3123 1.400 . S
C3120 H3105 0.960 . S
C3120 H3106 0.960 . S
C3120 H3107 0.960 . S
C3120 C3119 1.524 . S
C3121 C3118 1.403 . S
C3121 C3122 1.392 . S
C3121 C3125 1.495 . S
C3122 C3121 1.392 . S
C3122 C3123 1.385 . S
C3122 C3124 1.478 . S
C3123 H3117 0.930 . S
C3123 C3119 1.400 . S
C3123 C3122 1.385 . S
C3124 C3122 1.478 . S
C3124 C3126 1.381 . S
C3124 C3130 1.383 . S
C3125 C3121 1.495 . S
C3125 H3131 0.959 . S
C3125 H3132 0.961 . S
C3125 H3133 0.960 . S
C3126 C3124 1.381 . S
C3126 C3127 1.394 . S
C3126 H3134 0.930 . S
C3127 C3126 1.394 . S
C3127 C3128 1.383 . S
C3127 H3135 0.929 . S
C3128 C3127 1.383 . S
C3128 C3129 1.377 . S
C3129 H3113 0.930 . S
C3129 C3128 1.377 . S
C3129 C3130 1.379 . S
C3130 H3114 0.931 . S
C3130 C3124 1.383 . S
C3130 C3129 1.379 . S
H3131 C3125 0.959 . S
H3132 C3125 0.961 . S
H3133 C3125 0.960 . S
H3134 C3126 0.930 . S
H3135 C3127 0.929 . S
H3136 C3144 0.929 . S
H3137 C3146 0.930 . S
H3138 C3148 0.930 . S
H3139 C3151 0.929 . S
H3140 C3154 0.930 . S
H3141 C3156 0.960 . S
H3142 C3156 0.960 . S
H3143 C3156 0.960 . S
C3144 H3136 0.929 . S
C3144 C3145 1.377 . S
C3144 C3146 1.384 . S
C3145 C3144 1.377 . S
C3145 C3151 1.390 . S
C3146 H3137 0.930 . S
C3146 C3144 1.384 . S
C3146 C3147 1.372 . S
C3147 C3146 1.372 . S
C3147 C3148 1.400 . S
C3147 C3152 1.490 . S
C3148 H3138 0.930 . S
C3148 C3147 1.400 . S
C3148 C3151 1.386 . S
H3149 C3165 0.930 . S
H3150 C3166 0.931 . S
C3151 H3139 0.929 . S
C3151 C3145 1.390 . S
C3151 C3148 1.386 . S
C3152 C3147 1.490 . S
C3152 C3154 1.395 . S
C3152 C3155 1.403 . S
H3153 C3159 0.930 . S
C3154 H3140 0.930 . S
C3154 C3152 1.395 . S
C3154 C3157 1.403 . S
C3155 C3152 1.403 . S
C3155 C3156 1.524 . S
C3155 C3159 1.400 . S
C3156 H3141 0.960 . S
C3156 H3142 0.960 . S
C3156 H3143 0.960 . S
C3156 C3155 1.524 . S
C3157 C3154 1.403 . S
C3157 C3158 1.392 . S
C3157 C3161 1.495 . S
C3158 C3157 1.392 . S
C3158 C3159 1.385 . S
C3158 C3160 1.478 . S
C3159 H3153 0.930 . S
C3159 C3155 1.400 . S
C3159 C3158 1.385 . S
C3160 C3158 1.478 . S
C3160 C3162 1.381 . S
C3160 C3166 1.383 . S
C3161 C3157 1.495 . S
C3161 H3167 0.959 . S
C3161 H3168 0.961 . S
C3161 H3169 0.960 . S
C3162 C3160 1.381 . S
C3162 C3163 1.394 . S
C3162 H3170 0.930 . S
C3163 C3162 1.394 . S
C3163 C3164 1.383 . S
C3163 H3171 0.929 . S
C3164 C3163 1.383 . S
C3164 C3165 1.377 . S
C3165 H3149 0.930 . S
C3165 C3164 1.377 . S
C3165 C3166 1.379 . S
C3166 H3150 0.931 . S
C3166 C3160 1.383 . S
C3166 C3165 1.379 . S
H3167 C3161 0.959 . S
H3168 C3161 0.961 . S
H3169 C3161 0.960 . S
H3170 C3162 0.930 . S
H3171 C3163 0.929 . S
H3172 C3180 0.929 . S
H3173 C3182 0.930 . S
H3174 C3184 0.930 . S
H3175 C3187 0.929 . S
H3176 C3190 0.930 . S
H3177 C3192 0.960 . S
H3178 C3192 0.960 . S
H3179 C3192 0.960 . S
C3180 H3172 0.929 . S
C3180 C3181 1.377 . S
C3180 C3182 1.384 . S
C3181 C3180 1.377 . S
C3181 C3187 1.390 . S
C3182 H3173 0.930 . S
C3182 C3180 1.384 . S
C3182 C3183 1.372 . S
C3183 C3182 1.372 . S
C3183 C3184 1.400 . S
C3183 C3188 1.490 . S
C3184 H3174 0.930 . S
C3184 C3183 1.400 . S
C3184 C3187 1.386 . S
H3185 C3201 0.930 . S
H3186 C3202 0.931 . S
C3187 H3175 0.929 . S
C3187 C3181 1.390 . S
C3187 C3184 1.386 . S
C3188 C3183 1.490 . S
C3188 C3190 1.395 . S
C3188 C3191 1.403 . S
H3189 C3195 0.930 . S
C3190 H3176 0.930 . S
C3190 C3188 1.395 . S
C3190 C3193 1.403 . S
C3191 C3188 1.403 . S
C3191 C3192 1.524 . S
C3191 C3195 1.400 . S
C3192 H3177 0.960 . S
C3192 H3178 0.960 . S
C3192 H3179 0.960 . S
C3192 C3191 1.524 . S
C3193 C3190 1.403 . S
C3193 C3194 1.392 . S
C3193 C3197 1.495 . S
C3194 C3193 1.392 . S
C3194 C3195 1.385 . S
C3194 C3196 1.478 . S
C3195 H3189 0.930 . S
C3195 C3191 1.400 . S
C3195 C3194 1.385 . S
C3196 C3194 1.478 . S
C3196 C3198 1.381 . S
C3196 C3202 1.383 . S
C3197 C3193 1.495 . S
C3197 H3203 0.959 . S
C3197 H3204 0.961 . S
C3197 H3205 0.960 . S
C3198 C3196 1.381 . S
C3198 C3199 1.394 . S
C3198 H3206 0.930 . S
C3199 C3198 1.394 . S
C3199 C3200 1.383 . S
C3199 H3207 0.929 . S
C3200 C3199 1.383 . S
C3200 C3201 1.377 . S
C3201 H3185 0.930 . S
C3201 C3200 1.377 . S
C3201 C3202 1.379 . S
C3202 H3186 0.931 . S
C3202 C3196 1.383 . S
C3202 C3201 1.379 . S
H3203 C3197 0.959 . S
H3204 C3197 0.961 . S
H3205 C3197 0.960 . S
H3206 C3198 0.930 . S
H3207 C3199 0.929 . S
H3208 C3216 0.929 . S
H3209 C3218 0.930 . S
H3210 C3220 0.930 . S
H3211 C3223 0.929 . S
H3212 C3226 0.930 . S
H3213 C3228 0.960 . S
H3214 C3228 0.960 . S
H3215 C3228 0.960 . S
C3216 H3208 0.929 . S
C3216 C3217 1.377 . S
C3216 C3218 1.384 . S
C3217 C3216 1.377 . S
C3217 C3223 1.390 . S
C3218 H3209 0.930 . S
C3218 C3216 1.384 . S
C3218 C3219 1.372 . S
C3219 C3218 1.372 . S
C3219 C3220 1.400 . S
C3219 C3224 1.490 . S
C3220 H3210 0.930 . S
C3220 C3219 1.400 . S
C3220 C3223 1.386 . S
H3221 C3237 0.930 . S
H3222 C3238 0.931 . S
C3223 H3211 0.929 . S
C3223 C3217 1.390 . S
C3223 C3220 1.386 . S
C3224 C3219 1.490 . S
C3224 C3226 1.395 . S
C3224 C3227 1.403 . S
H3225 C3231 0.930 . S
C3226 H3212 0.930 . S
C3226 C3224 1.395 . S
C3226 C3229 1.403 . S
C3227 C3224 1.403 . S
C3227 C3228 1.524 . S
C3227 C3231 1.400 . S
C3228 H3213 0.960 . S
C3228 H3214 0.960 . S
C3228 H3215 0.960 . S
C3228 C3227 1.524 . S
C3229 C3226 1.403 . S
C3229 C3230 1.392 . S
C3229 C3233 1.495 . S
C3230 C3229 1.392 . S
C3230 C3231 1.385 . S
C3230 C3232 1.478 . S
C3231 H3225 0.930 . S
C3231 C3227 1.400 . S
C3231 C3230 1.385 . S
C3232 C3230 1.478 . S
C3232 C3234 1.381 . S
C3232 C3238 1.383 . S
C3233 C3229 1.495 . S
C3233 H3239 0.959 . S
C3233 H3240 0.961 . S
C3233 H3241 0.960 . S
C3234 C3232 1.381 . S
C3234 C3235 1.394 . S
C3234 H3242 0.930 . S
C3235 C3234 1.394 . S
C3235 C3236 1.383 . S
C3235 H3243 0.929 . S
C3236 C3235 1.383 . S
C3236 C3237 1.377 . S
C3237 H3221 0.930 . S
C3237 C3236 1.377 . S
C3237 C3238 1.379 . S
C3238 H3222 0.931 . S
C3238 C3232 1.383 . S
C3238 C3237 1.379 . S
H3239 C3233 0.959 . S
H3240 C3233 0.961 . S
H3241 C3233 0.960 . S
H3242 C3234 0.930 . S
H3243 C3235 0.929 . S
H3244 C3252 0.929 . S
H3245 C3254 0.930 . S
H3246 C3256 0.930 . S
H3247 C3259 0.929 . S
H3248 C3262 0.930 . S
H3249 C3264 0.960 . S
H3250 C3264 0.960 . S
H3251 C3264 0.960 . S
C3252 H3244 0.929 . S
C3252 C3253 1.377 . S
C3252 C3254 1.384 . S
C3253 C3252 1.377 . S
C3253 C3259 1.390 . S
C3254 H3245 0.930 . S
C3254 C3252 1.384 . S
C3254 C3255 1.372 . S
C3255 C3254 1.372 . S
C3255 C3256 1.400 . S
C3255 C3260 1.490 . S
C3256 H3246 0.930 . S
C3256 C3255 1.400 . S
C3256 C3259 1.386 . S
H3257 C3273 0.930 . S
H3258 C3274 0.931 . S
C3259 H3247 0.929 . S
C3259 C3253 1.390 . S
C3259 C3256 1.386 . S
C3260 C3255 1.490 . S
C3260 C3262 1.395 . S
C3260 C3263 1.403 . S
H3261 C3267 0.930 . S
C3262 H3248 0.930 . S
C3262 C3260 1.395 . S
C3262 C3265 1.403 . S
C3263 C3260 1.403 . S
C3263 C3264 1.524 . S
C3263 C3267 1.400 . S
C3264 H3249 0.960 . S
C3264 H3250 0.960 . S
C3264 H3251 0.960 . S
C3264 C3263 1.524 . S
C3265 C3262 1.403 . S
C3265 C3266 1.392 . S
C3265 C3269 1.495 . S
C3266 C3265 1.392 . S
C3266 C3267 1.385 . S
C3266 C3268 1.478 . S
C3267 H3261 0.930 . S
C3267 C3263 1.400 . S
C3267 C3266 1.385 . S
C3268 C3266 1.478 . S
C3268 C3270 1.381 . S
C3268 C3274 1.383 . S
C3269 C3265 1.495 . S
C3269 H3275 0.959 . S
C3269 H3276 0.961 . S
C3269 H3277 0.960 . S
C3270 C3268 1.381 . S
C3270 C3271 1.394 . S
C3270 H3278 0.930 . S
C3271 C3270 1.394 . S
C3271 C3272 1.383 . S
C3271 H3279 0.929 . S
C3272 C3271 1.383 . S
C3272 C3273 1.377 . S
C3273 H3257 0.930 . S
C3273 C3272 1.377 . S
C3273 C3274 1.379 . S
C3274 H3258 0.931 . S
C3274 C3268 1.383 . S
C3274 C3273 1.379 . S
H3275 C3269 0.959 . S
H3276 C3269 0.961 . S
H3277 C3269 0.960 . S
H3278 C3270 0.930 . S
H3279 C3271 0.929 . S
H3280 C3288 0.929 . S
H3281 C3290 0.930 . S
H3282 C3292 0.930 . S
H3283 C3295 0.929 . S
H3284 C3298 0.930 . S
H3285 C3300 0.960 . S
H3286 C3300 0.960 . S
H3287 C3300 0.960 . S
C3288 H3280 0.929 . S
C3288 C3289 1.377 . S
C3288 C3290 1.384 . S
C3289 C3288 1.377 . S
C3289 C3295 1.390 . S
C3290 H3281 0.930 . S
C3290 C3288 1.384 . S
C3290 C3291 1.372 . S
C3291 C3290 1.372 . S
C3291 C3292 1.400 . S
C3291 C3296 1.490 . S
C3292 H3282 0.930 . S
C3292 C3291 1.400 . S
C3292 C3295 1.386 . S
H3293 C3309 0.930 . S
H3294 C3310 0.931 . S
C3295 H3283 0.929 . S
C3295 C3289 1.390 . S
C3295 C3292 1.386 . S
C3296 C3291 1.490 . S
C3296 C3298 1.395 . S
C3296 C3299 1.403 . S
H3297 C3303 0.930 . S
C3298 H3284 0.930 . S
C3298 C3296 1.395 . S
C3298 C3301 1.403 . S
C3299 C3296 1.403 . S
C3299 C3300 1.524 . S
C3299 C3303 1.400 . S
C3300 H3285 0.960 . S
C3300 H3286 0.960 . S
C3300 H3287 0.960 . S
C3300 C3299 1.524 . S
C3301 C3298 1.403 . S
C3301 C3302 1.392 . S
C3301 C3305 1.495 . S
C3302 C3301 1.392 . S
C3302 C3303 1.385 . S
C3302 C3304 1.478 . S
C3303 H3297 0.930 . S
C3303 C3299 1.400 . S
C3303 C3302 1.385 . S
C3304 C3302 1.478 . S
C3304 C3306 1.381 . S
C3304 C3310 1.383 . S
C3305 C3301 1.495 . S
C3305 H3311 0.959 . S
C3305 H3312 0.961 . S
C3305 H3313 0.960 . S
C3306 C3304 1.381 . S
C3306 C3307 1.394 . S
C3306 H3314 0.930 . S
C3307 C3306 1.394 . S
C3307 C3308 1.383 . S
C3307 H3315 0.929 . S
C3308 C3307 1.383 . S
C3308 C3309 1.377 . S
C3309 H3293 0.930 . S
C3309 C3308 1.377 . S
C3309 C3310 1.379 . S
C3310 H3294 0.931 . S
C3310 C3304 1.383 . S
C3310 C3309 1.379 . S
H3311 C3305 0.959 . S
H3312 C3305 0.961 . S
H3313 C3305 0.960 . S
H3314 C3306 0.930 . S
H3315 C3307 0.929 . S
H3316 C3324 0.929 . S
H3317 C3326 0.930 . S
H3318 C3328 0.930 . S
H3319 C3331 0.929 . S
H3320 C3334 0.930 . S
H3321 C3336 0.960 . S
H3322 C3336 0.960 . S
H3323 C3336 0.960 . S
C3324 H3316 0.929 . S
C3324 C3325 1.377 . S
C3324 C3326 1.384 . S
C3325 C3324 1.377 . S
C3325 C3331 1.390 . S
C3326 H3317 0.930 . S
C3326 C3324 1.384 . S
C3326 C3327 1.372 . S
C3327 C3326 1.372 . S
C3327 C3328 1.400 . S
C3327 C3332 1.490 . S
C3328 H3318 0.930 . S
C3328 C3327 1.400 . S
C3328 C3331 1.386 . S
H3329 C3345 0.930 . S
H3330 C3346 0.931 . S
C3331 H3319 0.929 . S
C3331 C3325 1.390 . S
C3331 C3328 1.386 . S
C3332 C3327 1.490 . S
C3332 C3334 1.395 . S
C3332 C3335 1.403 . S
H3333 C3339 0.930 . S
C3334 H3320 0.930 . S
C3334 C3332 1.395 . S
C3334 C3337 1.403 . S
C3335 C3332 1.403 . S
C3335 C3336 1.524 . S
C3335 C3339 1.400 . S
C3336 H3321 0.960 . S
C3336 H3322 0.960 . S
C3336 H3323 0.960 . S
C3336 C3335 1.524 . S
C3337 C3334 1.403 . S
C3337 C3338 1.392 . S
C3337 C3341 1.495 . S
C3338 C3337 1.392 . S
C3338 C3339 1.385 . S
C3338 C3340 1.478 . S
C3339 H3333 0.930 . S
C3339 C3335 1.400 . S
C3339 C3338 1.385 . S
C3340 C3338 1.478 . S
C3340 C3342 1.381 . S
C3340 C3346 1.383 . S
C3341 C3337 1.495 . S
C3341 H3347 0.959 . S
C3341 H3348 0.961 . S
C3341 H3349 0.960 . S
C3342 C3340 1.381 . S
C3342 C3343 1.394 . S
C3342 H3350 0.930 . S
C3343 C3342 1.394 . S
C3343 C3344 1.383 . S
C3343 H3351 0.929 . S
C3344 C3343 1.383 . S
C3344 C3345 1.377 . S
C3345 H3329 0.930 . S
C3345 C3344 1.377 . S
C3345 C3346 1.379 . S
C3346 H3330 0.931 . S
C3346 C3340 1.383 . S
C3346 C3345 1.379 . S
H3347 C3341 0.959 . S
H3348 C3341 0.961 . S
H3349 C3341 0.960 . S
H3350 C3342 0.930 . S
H3351 C3343 0.929 . S
H3352 C3360 0.929 . S
H3353 C3362 0.930 . S
H3354 C3364 0.930 . S
H3355 C3367 0.929 . S
H3356 C3370 0.930 . S
H3357 C3372 0.960 . S
H3358 C3372 0.960 . S
H3359 C3372 0.960 . S
C3360 H3352 0.929 . S
C3360 C3361 1.377 . S
C3360 C3362 1.384 . S
C3361 C3360 1.377 . S
C3361 C3367 1.390 . S
C3362 H3353 0.930 . S
C3362 C3360 1.384 . S
C3362 C3363 1.372 . S
C3363 C3362 1.372 . S
C3363 C3364 1.400 . S
C3363 C3368 1.490 . S
C3364 H3354 0.930 . S
C3364 C3363 1.400 . S
C3364 C3367 1.386 . S
H3365 C3381 0.930 . S
H3366 C3382 0.931 . S
C3367 H3355 0.929 . S
C3367 C3361 1.390 . S
C3367 C3364 1.386 . S
C3368 C3363 1.490 . S
C3368 C3370 1.395 . S
C3368 C3371 1.403 . S
H3369 C3375 0.930 . S
C3370 H3356 0.930 . S
C3370 C3368 1.395 . S
C3370 C3373 1.403 . S
C3371 C3368 1.403 . S
C3371 C3372 1.524 . S
C3371 C3375 1.400 . S
C3372 H3357 0.960 . S
C3372 H3358 0.960 . S
C3372 H3359 0.960 . S
C3372 C3371 1.524 . S
C3373 C3370 1.403 . S
C3373 C3374 1.392 . S
C3373 C3377 1.495 . S
C3374 C3373 1.392 . S
C3374 C3375 1.385 . S
C3374 C3376 1.478 . S
C3375 H3369 0.930 . S
C3375 C3371 1.400 . S
C3375 C3374 1.385 . S
C3376 C3374 1.478 . S
C3376 C3378 1.381 . S
C3376 C3382 1.383 . S
C3377 C3373 1.495 . S
C3377 H3383 0.959 . S
C3377 H3384 0.961 . S
C3377 H3385 0.960 . S
C3378 C3376 1.381 . S
C3378 C3379 1.394 . S
C3378 H3386 0.930 . S
C3379 C3378 1.394 . S
C3379 C3380 1.383 . S
C3379 H3387 0.929 . S
C3380 C3379 1.383 . S
C3380 C3381 1.377 . S
C3381 H3365 0.930 . S
C3381 C3380 1.377 . S
C3381 C3382 1.379 . S
C3382 H3366 0.931 . S
C3382 C3376 1.383 . S
C3382 C3381 1.379 . S
H3383 C3377 0.959 . S
H3384 C3377 0.961 . S
H3385 C3377 0.960 . S
H3386 C3378 0.930 . S
H3387 C3379 0.929 . S
H3388 C3396 0.929 . S
H3389 C3398 0.930 . S
H3390 C3400 0.930 . S
H3391 C3403 0.929 . S
H3392 C3406 0.930 . S
H3393 C3408 0.960 . S
H3394 C3408 0.960 . S
H3395 C3408 0.960 . S
C3396 H3388 0.929 . S
C3396 C3397 1.377 . S
C3396 C3398 1.384 . S
C3397 C3396 1.377 . S
C3397 C3403 1.390 . S
C3398 H3389 0.930 . S
C3398 C3396 1.384 . S
C3398 C3399 1.372 . S
C3399 C3398 1.372 . S
C3399 C3400 1.400 . S
C3399 C3404 1.490 . S
C3400 H3390 0.930 . S
C3400 C3399 1.400 . S
C3400 C3403 1.386 . S
H3401 C3417 0.930 . S
H3402 C3418 0.931 . S
C3403 H3391 0.929 . S
C3403 C3397 1.390 . S
C3403 C3400 1.386 . S
C3404 C3399 1.490 . S
C3404 C3406 1.395 1_554 S
C3404 C3407 1.403 . S
H3405 C3411 0.930 . S
C3406 H3392 0.930 . S
C3406 C3404 1.395 1_556 S
C3406 C3409 1.403 . S
C3407 C3404 1.403 . S
C3407 C3408 1.524 . S
C3407 C3411 1.400 . S
C3408 H3393 0.960 . S
C3408 H3394 0.960 . S
C3408 H3395 0.960 . S
C3408 C3407 1.524 . S
C3409 C3406 1.403 . S
C3409 C3410 1.392 1_556 S
C3409 C3413 1.495 . S
C3410 C3409 1.392 1_554 S
C3410 C3411 1.385 . S
C3410 C3412 1.478 . S
C3411 H3405 0.930 . S
C3411 C3407 1.400 . S
C3411 C3410 1.385 . S
C3412 C3410 1.478 . S
C3412 C3414 1.381 . S
C3412 C3418 1.383 . S
C3413 C3409 1.495 . S
C3413 H3419 0.959 . S
C3413 H3420 0.961 . S
C3413 H3421 0.960 . S
C3414 C3412 1.381 . S
C3414 C3415 1.394 . S
C3414 H3422 0.930 . S
C3415 C3414 1.394 . S
C3415 C3416 1.383 . S
C3415 H3423 0.929 . S
C3416 C3415 1.383 . S
C3416 C3417 1.377 . S
C3417 H3401 0.930 . S
C3417 C3416 1.377 . S
C3417 C3418 1.379 . S
C3418 H3402 0.931 . S
C3418 C3412 1.383 . S
C3418 C3417 1.379 . S
H3419 C3413 0.959 . S
H3420 C3413 0.961 . S
H3421 C3413 0.960 . S
H3422 C3414 0.930 . S
H3423 C3415 0.929 . S
H3424 C3432 0.929 . S
H3425 C3434 0.930 . S
H3426 C3436 0.930 . S
H3427 C3439 0.929 . S
H3428 C3442 0.930 . S
H3429 C3444 0.960 . S
H3430 C3444 0.960 . S
H3431 C3444 0.960 . S
C3432 H3424 0.929 . S
C3432 C3433 1.377 . S
C3432 C3434 1.384 . S
C3433 C3432 1.377 . S
C3433 C3439 1.390 . S
C3434 H3425 0.930 . S
C3434 C3432 1.384 . S
C3434 C3435 1.372 . S
C3435 C3434 1.372 . S
C3435 C3436 1.400 . S
C3435 C3440 1.490 . S
C3436 H3426 0.930 . S
C3436 C3435 1.400 . S
C3436 C3439 1.386 . S
H3437 C3453 0.930 . S
H3438 C3454 0.931 . S
C3439 H3427 0.929 . S
C3439 C3433 1.390 . S
C3439 C3436 1.386 . S
C3440 C3435 1.490 . S
C3440 C3442 1.395 . S
C3440 C3443 1.403 . S
H3441 C3447 0.930 . S
C3442 H3428 0.930 . S
C3442 C3440 1.395 . S
C3442 C3445 1.403 . S
C3443 C3440 1.403 . S
C3443 C3444 1.524 . S
C3443 C3447 1.400 . S
C3444 H3429 0.960 . S
C3444 H3430 0.960 . S
C3444 H3431 0.960 . S
C3444 C3443 1.524 . S
C3445 C3442 1.403 . S
C3445 C3446 1.392 . S
C3445 C3449 1.495 . S
C3446 C3445 1.392 . S
C3446 C3447 1.385 . S
C3446 C3448 1.478 . S
C3447 H3441 0.930 . S
C3447 C3443 1.400 . S
C3447 C3446 1.385 . S
C3448 C3446 1.478 . S
C3448 C3450 1.381 . S
C3448 C3454 1.383 . S
C3449 C3445 1.495 . S
C3449 H3455 0.959 . S
C3449 H3456 0.961 . S
C3449 H3457 0.960 . S
C3450 C3448 1.381 . S
C3450 C3451 1.394 . S
C3450 H3458 0.930 . S
C3451 C3450 1.394 . S
C3451 C3452 1.383 . S
C3451 H3459 0.929 . S
C3452 C3451 1.383 . S
C3452 C3453 1.377 . S
C3453 H3437 0.930 . S
C3453 C3452 1.377 . S
C3453 C3454 1.379 . S
C3454 H3438 0.931 . S
C3454 C3448 1.383 . S
C3454 C3453 1.379 . S
H3455 C3449 0.959 . S
H3456 C3449 0.961 . S
H3457 C3449 0.960 . S
H3458 C3450 0.930 . S
H3459 C3451 0.929 . S
H3460 C3468 0.929 . S
H3461 C3470 0.930 . S
H3462 C3472 0.930 . S
H3463 C3475 0.929 . S
H3464 C3478 0.930 . S
H3465 C3480 0.960 . S
H3466 C3480 0.960 . S
H3467 C3480 0.960 . S
C3468 H3460 0.929 . S
C3468 C3469 1.377 . S
C3468 C3470 1.384 . S
C3469 C3468 1.377 . S
C3469 C3475 1.390 . S
C3470 H3461 0.930 . S
C3470 C3468 1.384 . S
C3470 C3471 1.372 . S
C3471 C3470 1.372 . S
C3471 C3472 1.400 . S
C3471 C3476 1.490 . S
C3472 H3462 0.930 . S
C3472 C3471 1.400 . S
C3472 C3475 1.386 . S
H3473 C3489 0.930 . S
H3474 C3490 0.931 . S
C3475 H3463 0.929 . S
C3475 C3469 1.390 . S
C3475 C3472 1.386 . S
C3476 C3471 1.490 . S
C3476 C3478 1.395 . S
C3476 C3479 1.403 . S
H3477 C3483 0.930 . S
C3478 H3464 0.930 . S
C3478 C3476 1.395 . S
C3478 C3481 1.403 . S
C3479 C3476 1.403 . S
C3479 C3480 1.524 . S
C3479 C3483 1.400 . S
C3480 H3465 0.960 . S
C3480 H3466 0.960 . S
C3480 H3467 0.960 . S
C3480 C3479 1.524 . S
C3481 C3478 1.403 . S
C3481 C3482 1.392 . S
C3481 C3485 1.543 . S
C3482 C3481 1.392 . S
C3482 C3483 1.385 . S
C3482 C3484 1.478 . S
C3483 H3477 0.930 . S
C3483 C3479 1.400 . S
C3483 C3482 1.385 . S
C3484 C3482 1.478 . S
C3484 C3486 1.381 . S
C3484 C3490 1.383 . S
C3485 C3481 1.543 . S
C3485 H3491 0.919 1_554 S
C3485 H3492 0.942 1_554 S
C3485 H3493 0.971 . S
C3486 C3484 1.381 . S
C3486 C3487 1.394 . S
C3486 H3494 0.930 . S
C3487 C3486 1.394 . S
C3487 C3488 1.383 . S
C3487 H3495 0.929 . S
C3488 C3487 1.383 . S
C3488 C3489 1.377 . S
C3489 H3473 0.930 . S
C3489 C3488 1.377 . S
C3489 C3490 1.379 . S
C3490 H3474 0.931 . S
C3490 C3484 1.383 . S
C3490 C3489 1.379 . S
H3491 C3485 0.919 1_556 S
H3492 C3485 0.942 1_556 S
H3493 C3485 0.971 . S
H3494 C3486 0.930 . S
H3495 C3487 0.929 . S
H3496 C3504 0.929 . S
H3497 C3506 0.930 . S
H3498 C3508 0.930 . S
H3499 C3511 0.929 . S
H3500 C3514 0.930 . S
H3501 C3516 0.960 . S
H3502 C3516 0.960 . S
H3503 C3516 0.960 . S
C3504 H3496 0.929 . S
C3504 C3505 1.377 . S
C3504 C3506 1.384 . S
C3505 C3504 1.377 . S
C3505 C3511 1.390 . S
C3506 H3497 0.930 . S
C3506 C3504 1.384 . S
C3506 C3507 1.372 . S
C3507 C3506 1.372 . S
C3507 C3508 1.400 . S
C3507 C3512 1.490 . S
C3508 H3498 0.930 . S
C3508 C3507 1.400 . S
C3508 C3511 1.386 . S
H3509 C3525 0.930 . S
H3510 C3526 0.931 . S
C3511 H3499 0.929 . S
C3511 C3505 1.390 . S
C3511 C3508 1.386 . S
C3512 C3507 1.490 . S
C3512 C3514 1.395 . S
C3512 C3515 1.403 . S
H3513 C3519 0.930 . S
C3514 H3500 0.930 . S
C3514 C3512 1.395 . S
C3514 C3517 1.403 . S
C3515 C3512 1.403 . S
C3515 C3516 1.524 . S
C3515 C3519 1.400 . S
C3516 H3501 0.960 . S
C3516 H3502 0.960 . S
C3516 H3503 0.960 . S
C3516 C3515 1.524 . S
C3517 C3514 1.403 . S
C3517 C3518 1.392 . S
C3517 C3521 1.495 . S
C3518 C3517 1.392 . S
C3518 C3519 1.385 . S
C3518 C3520 1.478 . S
C3519 H3513 0.930 . S
C3519 C3515 1.400 . S
C3519 C3518 1.385 . S
C3520 C3518 1.478 . S
C3520 C3522 1.381 . S
C3520 C3526 1.383 . S
C3521 C3517 1.495 . S
C3521 H3527 0.959 . S
C3521 H3528 0.961 . S
C3521 H3529 0.960 . S
C3522 C3520 1.381 . S
C3522 C3523 1.394 . S
C3522 H3530 0.930 . S
C3523 C3522 1.394 . S
C3523 C3524 1.383 . S
C3523 H3531 0.929 . S
C3524 C3523 1.383 . S
C3524 C3525 1.377 . S
C3525 H3509 0.930 . S
C3525 C3524 1.377 . S
C3525 C3526 1.379 . S
C3526 H3510 0.931 . S
C3526 C3520 1.383 . S
C3526 C3525 1.379 . S
H3527 C3521 0.959 . S
H3528 C3521 0.961 . S
H3529 C3521 0.960 . S
H3530 C3522 0.930 . S
H3531 C3523 0.929 . S
H3532 C3540 0.929 . S
H3533 C3542 0.930 . S
H3534 C3544 0.930 . S
H3535 C3547 0.929 . S
H3536 C3550 0.930 . S
H3537 C3552 0.960 . S
H3538 C3552 0.960 . S
H3539 C3552 0.960 . S
C3540 H3532 0.929 . S
C3540 C3541 1.377 . S
C3540 C3542 1.384 . S
C3541 C3540 1.377 . S
C3541 C3547 1.390 . S
C3542 H3533 0.930 . S
C3542 C3540 1.384 . S
C3542 C3543 1.372 . S
C3543 C3542 1.372 . S
C3543 C3544 1.400 . S
C3543 C3548 1.490 . S
C3544 H3534 0.930 . S
C3544 C3543 1.400 . S
C3544 C3547 1.386 . S
H3545 C3561 0.930 . S
H3546 C3562 0.931 . S
C3547 H3535 0.929 . S
C3547 C3541 1.390 . S
C3547 C3544 1.386 . S
C3548 C3543 1.490 . S
C3548 C3550 1.395 . S
C3548 C3551 1.403 . S
H3549 C3555 0.930 . S
C3550 H3536 0.930 . S
C3550 C3548 1.395 . S
C3550 C3553 1.403 . S
C3551 C3548 1.403 . S
C3551 C3552 1.524 . S
C3551 C3555 1.400 . S
C3552 H3537 0.960 . S
C3552 H3538 0.960 . S
C3552 H3539 0.960 . S
C3552 C3551 1.524 . S
C3553 C3550 1.403 . S
C3553 C3554 1.392 . S
C3553 C3557 1.495 . S
C3554 C3553 1.392 . S
C3554 C3555 1.385 . S
C3554 C3556 1.478 . S
C3555 H3549 0.930 . S
C3555 C3551 1.400 . S
C3555 C3554 1.385 . S
C3556 C3554 1.478 . S
C3556 C3558 1.381 . S
C3556 C3562 1.383 . S
C3557 C3553 1.495 . S
C3557 H3563 0.959 . S
C3557 H3564 0.961 . S
C3557 H3565 0.960 . S
C3558 C3556 1.381 . S
C3558 C3559 1.394 . S
C3558 H3566 0.930 . S
C3559 C3558 1.394 . S
C3559 C3560 1.383 . S
C3559 H3567 0.929 . S
C3560 C3559 1.383 . S
C3560 C3561 1.377 . S
C3561 H3545 0.930 . S
C3561 C3560 1.377 . S
C3561 C3562 1.379 . S
C3562 H3546 0.931 . S
C3562 C3556 1.383 . S
C3562 C3561 1.379 . S
H3563 C3557 0.959 . S
H3564 C3557 0.961 . S
H3565 C3557 0.960 . S
H3566 C3558 0.930 . S
H3567 C3559 0.929 . S
H3568 C3576 0.929 . S
H3569 C3578 0.930 . S
H3570 C3580 0.930 . S
H3571 C3583 0.929 . S
H3572 C3586 0.930 . S
H3573 C3588 0.960 . S
H3574 C3588 0.960 . S
H3575 C3588 0.960 . S
C3576 H3568 0.929 . S
C3576 C3577 1.377 . S
C3576 C3578 1.384 . S
C3577 C3576 1.377 . S
C3577 C3583 1.390 . S
C3578 H3569 0.930 . S
C3578 C3576 1.384 . S
C3578 C3579 1.372 . S
C3579 C3578 1.372 . S
C3579 C3580 1.400 . S
C3579 C3584 1.490 . S
C3580 H3570 0.930 . S
C3580 C3579 1.400 . S
C3580 C3583 1.386 . S
H3581 C3597 0.930 . S
H3582 C3598 0.931 . S
C3583 H3571 0.929 . S
C3583 C3577 1.390 . S
C3583 C3580 1.386 . S
C3584 C3579 1.490 . S
C3584 C3586 1.395 . S
C3584 C3587 1.403 . S
H3585 C3591 0.930 . S
C3586 H3572 0.930 . S
C3586 C3584 1.395 . S
C3586 C3589 1.403 . S
C3587 C3584 1.403 . S
C3587 C3588 1.524 . S
C3587 C3591 1.400 . S
C3588 H3573 0.960 . S
C3588 H3574 0.960 . S
C3588 H3575 0.960 . S
C3588 C3587 1.524 . S
C3589 C3586 1.403 . S
C3589 C3590 1.392 . S
C3589 C3593 1.495 . S
C3590 C3589 1.392 . S
C3590 C3591 1.385 . S
C3590 C3592 1.478 . S
C3591 H3585 0.930 . S
C3591 C3587 1.400 . S
C3591 C3590 1.385 . S
C3592 C3590 1.478 . S
C3592 C3594 1.381 . S
C3592 C3598 1.383 . S
C3593 C3589 1.495 . S
C3593 H3599 0.959 . S
C3593 H3600 0.961 . S
C3593 H3601 0.960 . S
C3594 C3592 1.381 . S
C3594 C3595 1.394 . S
C3594 H3602 0.930 . S
C3595 C3594 1.394 . S
C3595 C3596 1.383 . S
C3595 H3603 0.929 . S
C3596 C3595 1.383 . S
C3596 C3597 1.377 . S
C3597 H3581 0.930 . S
C3597 C3596 1.377 . S
C3597 C3598 1.379 . S
C3598 H3582 0.931 . S
C3598 C3592 1.383 . S
C3598 C3597 1.379 . S
H3599 C3593 0.959 . S
H3600 C3593 0.961 . S
H3601 C3593 0.960 . S
H3602 C3594 0.930 . S
H3603 C3595 0.929 . S
H3604 C3612 0.929 . S
H3605 C3614 0.930 . S
H3606 C3616 0.930 . S
H3607 C3619 0.929 . S
H3608 C3622 0.930 . S
H3609 C3624 0.960 . S
H3610 C3624 0.960 . S
H3611 C3624 0.960 . S
C3612 H3604 0.929 . S
C3612 C3613 1.377 . S
C3612 C3614 1.384 . S
C3613 C3612 1.377 . S
C3613 C3619 1.390 . S
C3614 H3605 0.930 . S
C3614 C3612 1.384 . S
C3614 C3615 1.372 . S
C3615 C3614 1.372 . S
C3615 C3616 1.400 . S
C3615 C3620 1.490 . S
C3616 H3606 0.930 . S
C3616 C3615 1.400 . S
C3616 C3619 1.386 . S
H3617 C3633 0.930 . S
H3618 C3634 0.931 . S
C3619 H3607 0.929 . S
C3619 C3613 1.390 . S
C3619 C3616 1.386 . S
C3620 C3615 1.490 . S
C3620 C3622 1.395 . S
C3620 C3623 1.403 . S
H3621 C3627 0.930 . S
C3622 H3608 0.930 . S
C3622 C3620 1.395 . S
C3622 C3625 1.403 . S
C3623 C3620 1.403 . S
C3623 C3624 1.524 . S
C3623 C3627 1.400 . S
C3624 H3609 0.960 . S
C3624 H3610 0.960 . S
C3624 H3611 0.960 . S
C3624 C3623 1.524 . S
C3625 C3622 1.403 . S
C3625 C3626 1.392 . S
C3625 C3629 1.495 . S
C3626 C3625 1.392 . S
C3626 C3627 1.385 . S
C3626 C3628 1.478 . S
C3627 H3621 0.930 . S
C3627 C3623 1.400 . S
C3627 C3626 1.385 . S
C3628 C3626 1.478 . S
C3628 C3630 1.381 . S
C3628 C3634 1.383 . S
C3629 C3625 1.495 . S
C3629 H3635 0.959 . S
C3629 H3636 0.961 . S
C3629 H3637 0.960 . S
C3630 C3628 1.381 . S
C3630 C3631 1.394 . S
C3630 H3638 0.930 . S
C3631 C3630 1.394 . S
C3631 C3632 1.383 . S
C3631 H3639 0.929 . S
C3632 C3631 1.383 . S
C3632 C3633 1.377 . S
C3633 H3617 0.930 . S
C3633 C3632 1.377 . S
C3633 C3634 1.379 . S
C3634 H3618 0.931 . S
C3634 C3628 1.383 . S
C3634 C3633 1.379 . S
H3635 C3629 0.959 . S
H3636 C3629 0.961 . S
H3637 C3629 0.960 . S
H3638 C3630 0.930 . S
H3639 C3631 0.929 . S
H3640 C3648 0.929 . S
H3641 C3650 0.930 . S
H3642 C3652 0.930 . S
H3643 C3655 0.929 . S
H3644 C3658 0.930 . S
H3645 C3660 0.960 . S
H3646 C3660 0.960 . S
H3647 C3660 0.960 . S
C3648 H3640 0.929 . S
C3648 C3649 1.377 . S
C3648 C3650 1.384 . S
C3649 C3648 1.377 . S
C3649 C3655 1.390 . S
C3650 H3641 0.930 . S
C3650 C3648 1.384 . S
C3650 C3651 1.372 . S
C3651 C3650 1.372 . S
C3651 C3652 1.400 . S
C3651 C3656 1.490 . S
C3652 H3642 0.930 . S
C3652 C3651 1.400 . S
C3652 C3655 1.386 . S
H3653 C3669 0.930 . S
H3654 C3670 0.931 . S
C3655 H3643 0.929 . S
C3655 C3649 1.390 . S
C3655 C3652 1.386 . S
C3656 C3651 1.490 . S
C3656 C3658 1.395 . S
C3656 C3659 1.403 . S
H3657 C3663 0.930 . S
C3658 H3644 0.930 . S
C3658 C3656 1.395 . S
C3658 C3661 1.403 . S
C3659 C3656 1.403 . S
C3659 C3660 1.524 . S
C3659 C3663 1.400 . S
C3660 H3645 0.960 . S
C3660 H3646 0.960 . S
C3660 H3647 0.960 . S
C3660 C3659 1.524 . S
C3661 C3658 1.403 . S
C3661 C3662 1.392 . S
C3661 C3665 1.495 . S
C3662 C3661 1.392 . S
C3662 C3663 1.385 . S
C3662 C3664 1.478 . S
C3663 H3657 0.930 . S
C3663 C3659 1.400 . S
C3663 C3662 1.385 . S
C3664 C3662 1.478 . S
C3664 C3666 1.381 . S
C3664 C3670 1.383 . S
C3665 C3661 1.495 . S
C3665 H3671 0.959 . S
C3665 H3672 0.969 . S
C3665 H3673 0.960 . S
C3666 C3664 1.381 . S
C3666 C3667 1.394 . S
C3666 H3674 0.930 . S
C3667 C3666 1.394 . S
C3667 C3668 1.383 . S
C3667 H3675 0.929 . S
C3668 C3667 1.383 . S
C3668 C3669 1.377 . S
C3669 H3653 0.930 . S
C3669 C3668 1.377 . S
C3669 C3670 1.379 . S
C3670 H3654 0.931 . S
C3670 C3664 1.383 . S
C3670 C3669 1.379 . S
H3671 C3665 0.959 . S
H3672 C3665 0.969 . S
H3673 C3665 0.960 . S
H3674 C3666 0.930 . S
H3675 C3667 0.929 . S
H3676 C3684 0.929 . S
H3677 C3686 0.930 . S
H3678 C3688 0.930 . S
H3679 C3691 0.929 . S
H3680 C3694 0.930 . S
H3681 C3696 0.960 . S
H3682 C3696 0.960 . S
H3683 C3696 0.960 . S
C3684 H3676 0.929 . S
C3684 C3685 1.377 . S
C3684 C3686 1.384 . S
C3685 C3684 1.377 . S
C3685 C3691 1.390 . S
C3686 H3677 0.930 . S
C3686 C3684 1.384 . S
C3686 C3687 1.372 . S
C3687 C3686 1.372 . S
C3687 C3688 1.400 . S
C3687 C3692 1.490 . S
C3688 H3678 0.930 . S
C3688 C3687 1.400 . S
C3688 C3691 1.386 . S
H3689 C3705 0.930 . S
H3690 C3706 0.931 . S
C3691 H3679 0.929 . S
C3691 C3685 1.390 . S
C3691 C3688 1.386 . S
C3692 C3687 1.490 . S
C3692 C3694 1.395 . S
C3692 C3695 1.403 . S
H3693 C3699 0.930 . S
C3694 H3680 0.930 . S
C3694 C3692 1.395 . S
C3694 C3697 1.403 . S
C3695 C3692 1.403 . S
C3695 C3696 1.524 . S
C3695 C3699 1.400 . S
C3696 H3681 0.960 . S
C3696 H3682 0.960 . S
C3696 H3683 0.960 . S
C3696 C3695 1.524 . S
C3697 C3694 1.403 . S
C3697 C3698 1.392 . S
C3697 C3701 1.495 . S
C3698 C3697 1.392 . S
C3698 C3699 1.385 . S
C3698 C3700 1.478 . S
C3699 H3693 0.930 . S
C3699 C3695 1.400 . S
C3699 C3698 1.385 . S
C3700 C3698 1.478 . S
C3700 C3702 1.381 . S
C3700 C3706 1.383 . S
C3701 C3697 1.495 . S
C3701 H3707 0.959 . S
C3701 H3708 0.961 . S
C3701 H3709 0.960 . S
C3702 C3700 1.381 . S
C3702 C3703 1.394 . S
C3702 H3710 0.930 . S
C3703 C3702 1.394 . S
C3703 C3704 1.383 . S
C3703 H3711 0.929 . S
C3704 C3703 1.383 . S
C3704 C3705 1.377 . S
C3705 H3689 0.930 . S
C3705 C3704 1.377 . S
C3705 C3706 1.379 . S
C3706 H3690 0.931 . S
C3706 C3700 1.383 . S
C3706 C3705 1.379 . S
H3707 C3701 0.959 . S
H3708 C3701 0.961 . S
H3709 C3701 0.960 . S
H3710 C3702 0.930 . S
H3711 C3703 0.929 . S
H3712 C3720 0.929 . S
H3713 C3722 0.930 . S
H3714 C3724 0.930 . S
H3715 C3727 0.929 . S
H3716 C3730 0.930 . S
H3717 C3732 0.960 . S
H3718 C3732 0.960 . S
H3719 C3732 0.960 . S
C3720 H3712 0.929 . S
C3720 C3721 1.377 . S
C3720 C3722 1.384 . S
C3721 C3720 1.377 . S
C3721 C3727 1.390 . S
C3722 H3713 0.930 . S
C3722 C3720 1.384 . S
C3722 C3723 1.372 . S
C3723 C3722 1.372 . S
C3723 C3724 1.400 . S
C3723 C3728 1.490 . S
C3724 H3714 0.930 . S
C3724 C3723 1.400 . S
C3724 C3727 1.386 . S
H3725 C3741 0.930 . S
H3726 C3742 0.931 . S
C3727 H3715 0.929 . S
C3727 C3721 1.390 . S
C3727 C3724 1.386 . S
C3728 C3723 1.490 . S
C3728 C3730 1.395 . S
C3728 C3731 1.403 . S
H3729 C3735 0.930 . S
C3730 H3716 0.930 . S
C3730 C3728 1.395 . S
C3730 C3733 1.403 . S
C3731 C3728 1.403 . S
C3731 C3732 1.524 . S
C3731 C3735 1.400 . S
C3732 H3717 0.960 . S
C3732 H3718 0.960 . S
C3732 H3719 0.960 . S
C3732 C3731 1.524 . S
C3733 C3730 1.403 . S
C3733 C3734 1.392 . S
C3733 C3737 1.495 . S
C3734 C3733 1.392 . S
C3734 C3735 1.385 . S
C3734 C3736 1.478 . S
C3735 H3729 0.930 . S
C3735 C3731 1.400 . S
C3735 C3734 1.385 . S
C3736 C3734 1.478 . S
C3736 C3738 1.381 . S
C3736 C3742 1.383 . S
C3737 C3733 1.495 . S
C3737 H3743 0.959 . S
C3737 H3744 0.961 . S
C3737 H3745 0.960 . S
C3738 C3736 1.381 . S
C3738 C3739 1.394 . S
C3738 H3746 0.930 . S
C3739 C3738 1.394 . S
C3739 C3740 1.383 . S
C3739 H3747 0.929 . S
C3740 C3739 1.383 . S
C3740 C3741 1.377 . S
C3741 H3725 0.930 . S
C3741 C3740 1.377 . S
C3741 C3742 1.379 . S
C3742 H3726 0.931 . S
C3742 C3736 1.383 . S
C3742 C3741 1.379 . S
H3743 C3737 0.959 . S
H3744 C3737 0.961 . S
H3745 C3737 0.960 . S
H3746 C3738 0.930 . S
H3747 C3739 0.929 . S
H3748 C3756 0.929 . S
H3749 C3758 0.930 . S
H3750 C3760 0.930 . S
H3751 C3763 0.929 . S
H3752 C3766 0.930 . S
H3753 C3768 0.960 . S
H3754 C3768 0.960 . S
H3755 C3768 0.960 . S
C3756 H3748 0.929 . S
C3756 C3757 1.377 . S
C3756 C3758 1.384 . S
C3757 C3756 1.377 . S
C3757 C3763 1.390 . S
C3758 H3749 0.930 . S
C3758 C3756 1.384 . S
C3758 C3759 1.372 . S
C3759 C3758 1.372 . S
C3759 C3760 1.400 . S
C3759 C3764 1.490 . S
C3760 H3750 0.930 . S
C3760 C3759 1.400 . S
C3760 C3763 1.386 . S
H3761 C3777 0.930 . S
H3762 C3778 0.931 . S
C3763 H3751 0.929 . S
C3763 C3757 1.390 . S
C3763 C3760 1.386 . S
C3764 C3759 1.490 . S
C3764 C3766 1.395 . S
C3764 C3767 1.403 . S
H3765 C3771 0.930 . S
C3766 H3752 0.930 . S
C3766 C3764 1.395 . S
C3766 C3769 1.403 . S
C3767 C3764 1.403 . S
C3767 C3768 1.524 . S
C3767 C3771 1.400 . S
C3768 H3753 0.960 . S
C3768 H3754 0.960 . S
C3768 H3755 0.960 . S
C3768 C3767 1.524 . S
C3769 C3766 1.403 . S
C3769 C3770 1.392 . S
C3769 C3773 1.495 . S
C3770 C3769 1.392 . S
C3770 C3771 1.385 . S
C3770 C3772 1.478 . S
C3771 H3765 0.930 . S
C3771 C3767 1.400 . S
C3771 C3770 1.385 . S
C3772 C3770 1.478 . S
C3772 C3774 1.381 . S
C3772 C3778 1.383 . S
C3773 C3769 1.495 . S
C3773 H3779 0.959 . S
C3773 H3780 0.961 . S
C3773 H3781 0.960 . S
C3774 C3772 1.381 . S
C3774 C3775 1.394 . S
C3774 H3782 0.930 . S
C3775 C3774 1.394 . S
C3775 C3776 1.383 . S
C3775 H3783 0.929 . S
C3776 C3775 1.383 . S
C3776 C3777 1.377 . S
C3777 H3761 0.930 . S
C3777 C3776 1.377 . S
C3777 C3778 1.379 . S
C3778 H3762 0.931 . S
C3778 C3772 1.383 . S
C3778 C3777 1.379 . S
H3779 C3773 0.959 . S
H3780 C3773 0.961 . S
H3781 C3773 0.960 . S
H3782 C3774 0.930 . S
H3783 C3775 0.929 . S
H3784 C3792 0.929 . S
H3785 C3794 0.930 . S
H3786 C3796 0.930 . S
H3787 C3799 0.929 . S
H3788 C3802 0.930 . S
H3789 C3804 0.960 . S
H3790 C3804 0.960 . S
H3791 C3804 0.960 . S
C3792 H3784 0.929 . S
C3792 C3793 1.377 1_655 S
C3792 C3794 1.384 . S
C3793 C3792 1.377 1_455 S
C3793 C3799 1.390 . S
C3794 H3785 0.930 . S
C3794 C3792 1.384 . S
C3794 C3795 1.372 1_655 S
C3795 C3794 1.372 1_455 S
C3795 C3796 1.400 . S
C3795 C3800 1.490 . S
C3796 H3786 0.930 . S
C3796 C3795 1.400 . S
C3796 C3799 1.386 . S
H3797 C3813 0.930 . S
H3798 C3814 0.931 . S
C3799 H3787 0.929 . S
C3799 C3793 1.390 . S
C3799 C3796 1.386 . S
C3800 C3795 1.490 . S
C3800 C3802 1.395 . S
C3800 C3803 1.403 . S
H3801 C3807 0.930 . S
C3802 H3788 0.930 . S
C3802 C3800 1.395 . S
C3802 C3805 1.403 . S
C3803 C3800 1.403 . S
C3803 C3804 1.524 . S
C3803 C3807 1.400 . S
C3804 H3789 0.960 . S
C3804 H3790 0.960 . S
C3804 H3791 0.960 . S
C3804 C3803 1.524 . S
C3805 C3802 1.403 . S
C3805 C3806 1.392 . S
C3805 C3809 1.495 . S
C3806 C3805 1.392 . S
C3806 C3807 1.385 . S
C3806 C3808 1.478 . S
C3807 H3801 0.930 . S
C3807 C3803 1.400 . S
C3807 C3806 1.385 . S
C3808 C3806 1.478 . S
C3808 C3810 1.381 . S
C3808 C3814 1.383 . S
C3809 C3805 1.495 . S
C3809 H3815 0.965 . S
C3809 H3816 0.961 . S
C3809 H3817 0.960 1_455 S
C3810 C3808 1.381 . S
C3810 C3811 1.394 . S
C3810 H3818 0.930 1_455 S
C3811 C3810 1.394 . S
C3811 C3812 1.383 . S
C3811 H3819 0.929 1_455 S
C3812 C3811 1.383 . S
C3812 C3813 1.377 . S
C3813 H3797 0.930 . S
C3813 C3812 1.377 . S
C3813 C3814 1.379 . S
C3814 H3798 0.931 . S
C3814 C3808 1.383 . S
C3814 C3813 1.379 . S
H3815 C3809 0.965 . S
H3816 C3809 0.961 . S
H3817 C3809 0.960 1_655 S
H3818 C3810 0.930 1_655 S
H3819 C3811 0.929 1_655 S
H3820 C3828 0.929 . S
H3821 C3830 0.930 . S
H3822 C3832 0.930 . S
H3823 C3835 0.929 . S
H3824 C3838 0.930 . S
H3825 C3840 0.960 . S
H3826 C3840 0.960 . S
H3827 C3840 0.960 . S
C3828 H3820 0.929 . S
C3828 C3829 1.377 . S
C3828 C3830 1.384 . S
C3829 C3828 1.377 . S
C3829 C3835 1.390 . S
C3830 H3821 0.930 . S
C3830 C3828 1.384 . S
C3830 C3831 1.372 . S
C3831 C3830 1.372 . S
C3831 C3832 1.400 . S
C3831 C3836 1.490 . S
C3832 H3822 0.930 . S
C3832 C3831 1.400 . S
C3832 C3835 1.386 . S
H3833 C3849 0.930 . S
H3834 C3850 0.931 . S
C3835 H3823 0.929 . S
C3835 C3829 1.390 . S
C3835 C3832 1.386 . S
C3836 C3831 1.490 . S
C3836 C3838 1.395 . S
C3836 C3839 1.403 . S
H3837 C3843 0.930 . S
C3838 H3824 0.930 . S
C3838 C3836 1.395 . S
C3838 C3841 1.403 . S
C3839 C3836 1.403 . S
C3839 C3840 1.524 . S
C3839 C3843 1.400 . S
C3840 H3825 0.960 . S
C3840 H3826 0.960 . S
C3840 H3827 0.960 . S
C3840 C3839 1.524 . S
C3841 C3838 1.403 . S
C3841 C3842 1.392 . S
C3841 C3845 1.495 . S
C3842 C3841 1.392 . S
C3842 C3843 1.385 . S
C3842 C3844 1.478 . S
C3843 H3837 0.930 . S
C3843 C3839 1.400 . S
C3843 C3842 1.385 . S
C3844 C3842 1.478 . S
C3844 C3846 1.381 . S
C3844 C3850 1.383 . S
C3845 C3841 1.495 . S
C3845 H3851 0.959 . S
C3845 H3852 0.961 . S
C3845 H3853 0.960 . S
C3846 C3844 1.381 . S
C3846 C3847 1.394 . S
C3846 H3854 0.930 . S
C3847 C3846 1.394 . S
C3847 C3848 1.383 . S
C3847 H3855 0.929 . S
C3848 C3847 1.383 . S
C3848 C3849 1.377 . S
C3849 H3833 0.930 . S
C3849 C3848 1.377 . S
C3849 C3850 1.379 . S
C3850 H3834 0.931 . S
C3850 C3844 1.383 . S
C3850 C3849 1.379 . S
H3851 C3845 0.959 . S
H3852 C3845 0.961 . S
H3853 C3845 0.960 . S
H3854 C3846 0.930 . S
H3855 C3847 0.929 . S
H3856 C3864 0.929 . S
H3857 C3866 0.930 . S
H3858 C3868 0.930 . S
H3859 C3871 0.929 . S
H3860 C3874 0.930 . S
H3861 C3876 0.960 . S
H3862 C3876 0.960 . S
H3863 C3876 0.960 . S
C3864 H3856 0.929 . S
C3864 C3865 1.377 . S
C3864 C3866 1.384 . S
C3865 C3864 1.377 . S
C3865 C3871 1.390 . S
C3866 H3857 0.930 . S
C3866 C3864 1.384 . S
C3866 C3867 1.372 . S
C3867 C3866 1.372 . S
C3867 C3868 1.400 . S
C3867 C3872 1.490 . S
C3868 H3858 0.930 . S
C3868 C3867 1.400 . S
C3868 C3871 1.386 . S
H3869 C3885 0.930 . S
H3870 C3886 0.931 . S
C3871 H3859 0.929 . S
C3871 C3865 1.390 . S
C3871 C3868 1.386 . S
C3872 C3867 1.490 . S
C3872 C3874 1.395 . S
C3872 C3875 1.403 . S
H3873 C3879 0.930 . S
C3874 H3860 0.930 . S
C3874 C3872 1.395 . S
C3874 C3877 1.403 . S
C3875 C3872 1.403 . S
C3875 C3876 1.524 . S
C3875 C3879 1.400 . S
C3876 H3861 0.960 . S
C3876 H3862 0.960 . S
C3876 H3863 0.960 . S
C3876 C3875 1.524 . S
C3877 C3874 1.403 . S
C3877 C3878 1.392 . S
C3877 C3881 1.495 . S
C3878 C3877 1.392 . S
C3878 C3879 1.385 . S
C3878 C3880 1.478 . S
C3879 H3873 0.930 . S
C3879 C3875 1.400 . S
C3879 C3878 1.385 . S
C3880 C3878 1.478 . S
C3880 C3882 1.381 . S
C3880 C3886 1.383 . S
C3881 C3877 1.495 . S
C3881 H3887 0.959 . S
C3881 H3888 0.961 . S
C3881 H3889 0.960 . S
C3882 C3880 1.381 . S
C3882 C3883 1.394 . S
C3882 H3890 0.930 . S
C3883 C3882 1.394 . S
C3883 C3884 1.383 . S
C3883 H3891 0.929 . S
C3884 C3883 1.383 . S
C3884 C3885 1.377 . S
C3885 H3869 0.930 . S
C3885 C3884 1.377 . S
C3885 C3886 1.379 . S
C3886 H3870 0.931 . S
C3886 C3880 1.383 . S
C3886 C3885 1.379 . S
H3887 C3881 0.959 . S
H3888 C3881 0.961 . S
H3889 C3881 0.960 . S
H3890 C3882 0.930 . S
H3891 C3883 0.929 . S
H3892 C3900 0.929 . S
H3893 C3902 0.930 . S
H3894 C3904 0.930 . S
H3895 C3907 0.929 . S
H3896 C3910 0.930 . S
H3897 C3912 0.960 . S
H3898 C3912 0.960 . S
H3899 C3912 0.960 . S
C3900 H3892 0.929 . S
C3900 C3901 1.377 . S
C3900 C3902 1.384 . S
C3901 C3900 1.377 . S
C3901 C3907 1.390 . S
C3902 H3893 0.930 . S
C3902 C3900 1.384 . S
C3902 C3903 1.372 . S
C3903 C3902 1.372 . S
C3903 C3904 1.400 . S
C3903 C3908 1.490 . S
C3904 H3894 0.930 . S
C3904 C3903 1.400 . S
C3904 C3907 1.386 . S
H3905 C3921 0.930 . S
H3906 C3922 0.931 . S
C3907 H3895 0.929 . S
C3907 C3901 1.390 . S
C3907 C3904 1.386 . S
C3908 C3903 1.490 . S
C3908 C3910 1.395 . S
C3908 C3911 1.403 . S
H3909 C3915 0.930 . S
C3910 H3896 0.930 . S
C3910 C3908 1.395 . S
C3910 C3913 1.403 . S
C3911 C3908 1.403 . S
C3911 C3912 1.524 . S
C3911 C3915 1.400 . S
C3912 H3897 0.960 . S
C3912 H3898 0.960 . S
C3912 H3899 0.960 . S
C3912 C3911 1.524 . S
C3913 C3910 1.403 . S
C3913 C3914 1.392 . S
C3913 C3917 1.495 . S
C3914 C3913 1.392 . S
C3914 C3915 1.385 . S
C3914 C3916 1.478 . S
C3915 H3909 0.930 . S
C3915 C3911 1.400 . S
C3915 C3914 1.385 . S
C3916 C3914 1.478 . S
C3916 C3918 1.381 . S
C3916 C3922 1.383 . S
C3917 C3913 1.495 . S
C3917 H3923 0.959 . S
C3917 H3924 0.961 . S
C3917 H3925 0.960 . S
C3918 C3916 1.381 . S
C3918 C3919 1.394 . S
C3918 H3926 0.930 . S
C3919 C3918 1.394 . S
C3919 C3920 1.383 . S
C3919 H3927 0.929 . S
C3920 C3919 1.383 . S
C3920 C3921 1.377 . S
C3921 H3905 0.930 . S
C3921 C3920 1.377 . S
C3921 C3922 1.379 . S
C3922 H3906 0.931 . S
C3922 C3916 1.383 . S
C3922 C3921 1.379 . S
H3923 C3917 0.959 . S
H3924 C3917 0.961 . S
H3925 C3917 0.960 . S
H3926 C3918 0.930 . S
H3927 C3919 0.929 . S
H3928 C3936 0.929 . S
H3929 C3938 0.930 . S
H3930 C3940 0.930 . S
H3931 C3943 0.929 . S
H3932 C3946 0.930 . S
H3933 C3948 0.960 . S
H3934 C3948 0.960 . S
H3935 C3948 0.960 . S
C3936 H3928 0.929 . S
C3936 C3937 1.377 . S
C3936 C3938 1.384 . S
C3937 C3936 1.377 . S
C3937 C3943 1.390 . S
C3938 H3929 0.930 . S
C3938 C3936 1.384 . S
C3938 C3939 1.372 . S
C3939 C3938 1.372 . S
C3939 C3940 1.400 . S
C3939 C3944 1.490 . S
C3940 H3930 0.930 . S
C3940 C3939 1.400 . S
C3940 C3943 1.386 . S
H3941 C3957 0.930 . S
H3942 C3958 0.958 . S
C3943 H3931 0.929 . S
C3943 C3937 1.390 . S
C3943 C3940 1.386 . S
C3944 C3939 1.490 . S
C3944 C3946 1.395 . S
C3944 C3947 1.403 . S
H3945 C3951 0.930 . S
C3946 H3932 0.930 . S
C3946 C3944 1.395 . S
C3946 C3949 1.403 . S
C3947 C3944 1.403 . S
C3947 C3948 1.524 . S
C3947 C3951 1.400 . S
C3948 H3933 0.960 . S
C3948 H3934 0.960 . S
C3948 H3935 0.960 . S
C3948 C3947 1.524 . S
C3949 C3946 1.403 . S
C3949 C3950 1.392 . S
C3949 C3953 1.495 . S
C3950 C3949 1.392 . S
C3950 C3951 1.385 . S
C3950 C3952 1.478 . S
C3951 H3945 0.930 . S
C3951 C3947 1.400 . S
C3951 C3950 1.385 . S
C3952 C3950 1.478 . S
C3952 C3954 1.381 . S
C3952 C3958 1.338 1_655 S
C3953 C3949 1.495 . S
C3953 H3959 0.959 . S
C3953 H3960 0.961 . S
C3953 H3961 0.960 . S
C3954 C3952 1.381 . S
C3954 C3955 1.394 . S
C3954 H3962 0.930 . S
C3955 C3954 1.394 . S
C3955 C3956 1.383 1_655 S
C3955 H3963 0.929 . S
C3956 C3955 1.383 1_455 S
C3956 C3957 1.377 . S
C3957 H3941 0.930 . S
C3957 C3956 1.377 . S
C3957 C3958 1.400 . S
C3958 H3942 0.958 . S
C3958 C3952 1.338 1_455 S
C3958 C3957 1.400 . S
H3959 C3953 0.959 . S
H3960 C3953 0.961 . S
H3961 C3953 0.960 . S
H3962 C3954 0.930 . S
H3963 C3955 0.929 . S
H3964 C3972 0.929 . S
H3965 C3974 0.930 . S
H3966 C3976 0.930 . S
H3967 C3979 0.929 . S
H3968 C3982 0.930 . S
H3969 C3984 0.960 . S
H3970 C3984 0.960 . S
H3971 C3984 0.960 . S
C3972 H3964 0.929 . S
C3972 C3973 1.377 . S
C3972 C3974 1.384 . S
C3973 C3972 1.377 . S
C3973 C3979 1.390 . S
C3974 H3965 0.930 . S
C3974 C3972 1.384 . S
C3974 C3975 1.372 . S
C3975 C3974 1.372 . S
C3975 C3976 1.400 . S
C3975 C3980 1.490 . S
C3976 H3966 0.930 . S
C3976 C3975 1.400 . S
C3976 C3979 1.386 . S
H3977 C3993 0.930 . S
H3978 C3994 0.931 . S
C3979 H3967 0.929 . S
C3979 C3973 1.390 . S
C3979 C3976 1.386 . S
C3980 C3975 1.490 . S
C3980 C3982 1.395 . S
C3980 C3983 1.403 . S
H3981 C3987 0.930 . S
C3982 H3968 0.930 . S
C3982 C3980 1.395 . S
C3982 C3985 1.403 . S
C3983 C3980 1.403 . S
C3983 C3984 1.524 . S
C3983 C3987 1.400 . S
C3984 H3969 0.960 . S
C3984 H3970 0.960 . S
C3984 H3971 0.960 . S
C3984 C3983 1.524 . S
C3985 C3982 1.403 . S
C3985 C3986 1.392 . S
C3985 C3989 1.495 . S
C3986 C3985 1.392 . S
C3986 C3987 1.385 . S
C3986 C3988 1.478 . S
C3987 H3981 0.930 . S
C3987 C3983 1.400 . S
C3987 C3986 1.385 . S
C3988 C3986 1.478 . S
C3988 C3990 1.381 . S
C3988 C3994 1.383 . S
C3989 C3985 1.495 . S
C3989 H3995 0.959 . S
C3989 H3996 0.961 . S
C3989 H3997 0.960 . S
C3990 C3988 1.381 . S
C3990 C3991 1.394 . S
C3990 H3998 0.930 . S
C3991 C3990 1.394 . S
C3991 C3992 1.383 . S
C3991 H3999 0.929 . S
C3992 C3991 1.383 . S
C3992 C3993 1.377 . S
C3993 H3977 0.930 . S
C3993 C3992 1.377 . S
C3993 C3994 1.379 . S
C3994 H3978 0.931 . S
C3994 C3988 1.383 . S
C3994 C3993 1.379 . S
H3995 C3989 0.959 . S
H3996 C3989 0.961 . S
H3997 C3989 0.960 . S
H3998 C3990 0.930 . S
H3999 C3991 0.929 . S
H4000 C4008 0.929 . S
H4001 C4010 0.930 . S
H4002 C4012 0.930 . S
H4003 C4015 0.929 . S
H4004 C4018 0.930 . S
H4005 C4020 0.960 . S
H4006 C4020 0.960 . S
H4007 C4020 0.960 . S
C4008 H4000 0.929 . S
C4008 C4009 1.377 . S
C4008 C4010 1.384 . S
C4009 C4008 1.377 . S
C4009 C4015 1.390 . S
C4010 H4001 0.930 . S
C4010 C4008 1.384 . S
C4010 C4011 1.372 . S
C4011 C4010 1.372 . S
C4011 C4012 1.400 . S
C4011 C4016 1.490 . S
C4012 H4002 0.930 . S
C4012 C4011 1.400 . S
C4012 C4015 1.386 . S
H4013 C4029 0.930 . S
H4014 C4030 0.931 . S
C4015 H4003 0.929 . S
C4015 C4009 1.390 . S
C4015 C4012 1.386 . S
C4016 C4011 1.490 . S
C4016 C4018 1.395 . S
C4016 C4019 1.403 . S
H4017 C4023 0.930 . S
C4018 H4004 0.930 . S
C4018 C4016 1.395 . S
C4018 C4021 1.403 . S
C4019 C4016 1.403 . S
C4019 C4020 1.524 . S
C4019 C4023 1.400 . S
C4020 H4005 0.960 . S
C4020 H4006 0.960 . S
C4020 H4007 0.960 . S
C4020 C4019 1.524 . S
C4021 C4018 1.403 . S
C4021 C4022 1.392 . S
C4021 C4025 1.495 . S
C4022 C4021 1.392 . S
C4022 C4023 1.385 . S
C4022 C4024 1.478 . S
C4023 H4017 0.930 . S
C4023 C4019 1.400 . S
C4023 C4022 1.385 . S
C4024 C4022 1.478 . S
C4024 C4026 1.381 . S
C4024 C4030 1.383 . S
C4025 C4021 1.495 . S
C4025 H4031 0.959 . S
C4025 H4032 0.961 . S
C4025 H4033 0.960 . S
C4026 C4024 1.381 . S
C4026 C4027 1.394 . S
C4026 H4034 0.930 . S
C4027 C4026 1.394 . S
C4027 C4028 1.383 . S
C4027 H4035 0.929 . S
C4028 C4027 1.383 . S
C4028 C4029 1.377 . S
C4029 H4013 0.930 . S
C4029 C4028 1.377 . S
C4029 C4030 1.379 . S
C4030 H4014 0.931 . S
C4030 C4024 1.383 . S
C4030 C4029 1.379 . S
H4031 C4025 0.959 . S
H4032 C4025 0.961 . S
H4033 C4025 0.960 . S
H4034 C4026 0.930 . S
H4035 C4027 0.929 . S
H4036 C4044 0.929 . S
H4037 C4046 0.930 . S
H4038 C4048 0.930 . S
H4039 C4051 0.929 . S
H4040 C4054 0.930 . S
H4041 C4056 0.960 . S
H4042 C4056 0.960 . S
H4043 C4056 0.960 . S
C4044 H4036 0.929 . S
C4044 C4045 1.377 . S
C4044 C4046 1.384 . S
C4045 C4044 1.377 . S
C4045 C4051 1.390 . S
C4046 H4037 0.930 . S
C4046 C4044 1.384 . S
C4046 C4047 1.372 . S
C4047 C4046 1.372 . S
C4047 C4048 1.400 . S
C4047 C4052 1.490 . S
C4048 H4038 0.930 . S
C4048 C4047 1.400 . S
C4048 C4051 1.386 . S
H4049 C4065 0.930 . S
H4050 C4066 0.931 . S
C4051 H4039 0.929 . S
C4051 C4045 1.390 . S
C4051 C4048 1.386 . S
C4052 C4047 1.490 . S
C4052 C4054 1.395 . S
C4052 C4055 1.403 . S
H4053 C4059 0.930 . S
C4054 H4040 0.930 . S
C4054 C4052 1.395 . S
C4054 C4057 1.403 . S
C4055 C4052 1.403 . S
C4055 C4056 1.524 . S
C4055 C4059 1.400 . S
C4056 H4041 0.960 . S
C4056 H4042 0.960 . S
C4056 H4043 0.960 . S
C4056 C4055 1.524 . S
C4057 C4054 1.403 . S
C4057 C4058 1.392 . S
C4057 C4061 1.495 . S
C4058 C4057 1.392 . S
C4058 C4059 1.385 . S
C4058 C4060 1.478 . S
C4059 H4053 0.930 . S
C4059 C4055 1.400 . S
C4059 C4058 1.385 . S
C4060 C4058 1.478 . S
C4060 C4062 1.381 . S
C4060 C4066 1.383 . S
C4061 C4057 1.495 . S
C4061 H4067 0.959 . S
C4061 H4068 0.961 . S
C4061 H4069 0.960 . S
C4062 C4060 1.381 . S
C4062 C4063 1.394 . S
C4062 H4070 0.930 . S
C4063 C4062 1.394 . S
C4063 C4064 1.383 . S
C4063 H4071 0.929 . S
C4064 C4063 1.383 . S
C4064 C4065 1.377 . S
C4065 H4049 0.930 . S
C4065 C4064 1.377 . S
C4065 C4066 1.379 . S
C4066 H4050 0.931 . S
C4066 C4060 1.383 . S
C4066 C4065 1.379 . S
H4067 C4061 0.959 . S
H4068 C4061 0.961 . S
H4069 C4061 0.960 . S
H4070 C4062 0.930 . S
H4071 C4063 0.929 . S
H4072 C4080 0.929 . S
H4073 C4082 0.930 . S
H4074 C4084 0.930 . S
H4075 C4087 0.929 . S
H4076 C4090 0.930 . S
H4077 C4092 0.960 . S
H4078 C4092 0.960 . S
H4079 C4092 0.960 . S
C4080 H4072 0.929 . S
C4080 C4081 1.377 . S
C4080 C4082 1.384 . S
C4081 C4080 1.377 . S
C4081 C4087 1.390 . S
C4082 H4073 0.930 . S
C4082 C4080 1.384 . S
C4082 C4083 1.372 . S
C4083 C4082 1.372 . S
C4083 C4084 1.400 . S
C4083 C4088 1.490 . S
C4084 H4074 0.930 . S
C4084 C4083 1.400 . S
C4084 C4087 1.386 . S
H4085 C4101 0.930 . S
H4086 C4102 0.931 . S
C4087 H4075 0.929 . S
C4087 C4081 1.390 . S
C4087 C4084 1.386 . S
C4088 C4083 1.490 . S
C4088 C4090 1.395 . S
C4088 C4091 1.403 . S
H4089 C4095 0.930 . S
C4090 H4076 0.930 . S
C4090 C4088 1.395 . S
C4090 C4093 1.403 . S
C4091 C4088 1.403 . S
C4091 C4092 1.524 . S
C4091 C4095 1.400 . S
C4092 H4077 0.960 . S
C4092 H4078 0.960 . S
C4092 H4079 0.960 . S
C4092 C4091 1.524 . S
C4093 C4090 1.403 . S
C4093 C4094 1.392 . S
C4093 C4097 1.495 . S
C4094 C4093 1.392 . S
C4094 C4095 1.385 . S
C4094 C4096 1.478 . S
C4095 H4089 0.930 . S
C4095 C4091 1.400 . S
C4095 C4094 1.385 . S
C4096 C4094 1.478 . S
C4096 C4098 1.381 . S
C4096 C4102 1.383 . S
C4097 C4093 1.495 . S
C4097 H4103 0.959 . S
C4097 H4104 0.961 . S
C4097 H4105 0.960 . S
C4098 C4096 1.381 . S
C4098 C4099 1.394 . S
C4098 H4106 0.930 . S
C4099 C4098 1.394 . S
C4099 C4100 1.383 . S
C4099 H4107 0.929 . S
C4100 C4099 1.383 . S
C4100 C4101 1.377 1_655 S
C4101 H4085 0.930 . S
C4101 C4100 1.377 1_455 S
C4101 C4102 1.379 1_455 S
C4102 H4086 0.931 . S
C4102 C4096 1.383 . S
C4102 C4101 1.379 1_655 S
H4103 C4097 0.959 . S
H4104 C4097 0.961 . S
H4105 C4097 0.960 . S
H4106 C4098 0.930 . S
H4107 C4099 0.929 . S
H4108 C4116 0.929 . S
H4109 C4118 0.930 . S
H4110 C4120 0.930 . S
H4111 C4123 0.929 . S
H4112 C4126 0.930 . S
H4113 C4128 0.960 . S
H4114 C4128 0.960 . S
H4115 C4128 0.960 . S
C4116 H4108 0.929 . S
C4116 C4117 1.377 . S
C4116 C4118 1.384 . S
C4117 C4116 1.377 . S
C4117 C4123 1.390 . S
C4118 H4109 0.930 . S
C4118 C4116 1.384 . S
C4118 C4119 1.372 . S
C4119 C4118 1.372 . S
C4119 C4120 1.400 . S
C4119 C4124 1.490 . S
C4120 H4110 0.930 . S
C4120 C4119 1.400 . S
C4120 C4123 1.386 . S
H4121 C4137 0.930 . S
H4122 C4138 0.931 . S
C4123 H4111 0.929 . S
C4123 C4117 1.390 . S
C4123 C4120 1.386 . S
C4124 C4119 1.490 . S
C4124 C4126 1.395 . S
C4124 C4127 1.403 . S
H4125 C4131 0.930 . S
C4126 H4112 0.930 . S
C4126 C4124 1.395 . S
C4126 C4129 1.403 . S
C4127 C4124 1.403 . S
C4127 C4128 1.524 . S
C4127 C4131 1.400 . S
C4128 H4113 0.960 . S
C4128 H4114 0.960 . S
C4128 H4115 0.960 . S
C4128 C4127 1.524 . S
C4129 C4126 1.403 . S
C4129 C4130 1.392 . S
C4129 C4133 1.495 . S
C4130 C4129 1.392 . S
C4130 C4131 1.385 . S
C4130 C4132 1.478 . S
C4131 H4125 0.930 . S
C4131 C4127 1.400 . S
C4131 C4130 1.385 . S
C4132 C4130 1.478 . S
C4132 C4134 1.381 . S
C4132 C4138 1.383 . S
C4133 C4129 1.495 . S
C4133 H4139 0.959 . S
C4133 H4140 0.961 . S
C4133 H4141 0.960 . S
C4134 C4132 1.381 . S
C4134 C4135 1.394 . S
C4134 H4142 0.930 . S
C4135 C4134 1.394 . S
C4135 C4136 1.383 . S
C4135 H4143 0.929 . S
C4136 C4135 1.383 . S
C4136 C4137 1.377 . S
C4137 H4121 0.930 . S
C4137 C4136 1.377 . S
C4137 C4138 1.379 . S
C4138 H4122 0.931 . S
C4138 C4132 1.383 . S
C4138 C4137 1.379 . S
H4139 C4133 0.959 . S
H4140 C4133 0.961 . S
H4141 C4133 0.960 . S
H4142 C4134 0.930 . S
H4143 C4135 0.929 . S
H4144 C4152 0.929 . S
H4145 C4154 0.930 . S
H4146 C4156 0.930 . S
H4147 C4159 0.929 . S
H4148 C4162 0.930 . S
H4149 C4164 0.960 . S
H4150 C4164 0.960 . S
H4151 C4164 0.960 . S
C4152 H4144 0.929 . S
C4152 C4153 1.377 . S
C4152 C4154 1.384 . S
C4153 C4152 1.377 . S
C4153 C4159 1.390 . S
C4154 H4145 0.930 . S
C4154 C4152 1.384 . S
C4154 C4155 1.372 . S
C4155 C4154 1.372 . S
C4155 C4156 1.400 . S
C4155 C4160 1.490 . S
C4156 H4146 0.930 . S
C4156 C4155 1.400 . S
C4156 C4159 1.386 . S
H4157 C4173 0.930 . S
H4158 C4174 0.931 . S
C4159 H4147 0.929 . S
C4159 C4153 1.390 . S
C4159 C4156 1.386 . S
C4160 C4155 1.490 . S
C4160 C4162 1.395 . S
C4160 C4163 1.403 . S
H4161 C4167 0.930 . S
C4162 H4148 0.930 . S
C4162 C4160 1.395 . S
C4162 C4165 1.403 . S
C4163 C4160 1.403 . S
C4163 C4164 1.524 . S
C4163 C4167 1.400 . S
C4164 H4149 0.960 . S
C4164 H4150 0.960 . S
C4164 H4151 0.960 . S
C4164 C4163 1.524 . S
C4165 C4162 1.403 . S
C4165 C4166 1.392 . S
C4165 C4169 1.495 . S
C4166 C4165 1.392 . S
C4166 C4167 1.385 . S
C4166 C4168 1.478 . S
C4167 H4161 0.930 . S
C4167 C4163 1.400 . S
C4167 C4166 1.385 . S
C4168 C4166 1.478 . S
C4168 C4170 1.381 . S
C4168 C4174 1.383 . S
C4169 C4165 1.495 . S
C4169 H4175 0.959 . S
C4169 H4176 0.961 . S
C4169 H4177 0.960 . S
C4170 C4168 1.381 . S
C4170 C4171 1.394 . S
C4170 H4178 0.930 . S
C4171 C4170 1.394 . S
C4171 C4172 1.383 . S
C4171 H4179 0.929 . S
C4172 C4171 1.383 . S
C4172 C4173 1.377 . S
C4173 H4157 0.930 . S
C4173 C4172 1.377 . S
C4173 C4174 1.379 . S
C4174 H4158 0.931 . S
C4174 C4168 1.383 . S
C4174 C4173 1.379 . S
H4175 C4169 0.959 . S
H4176 C4169 0.961 . S
H4177 C4169 0.960 . S
H4178 C4170 0.930 . S
H4179 C4171 0.929 . S
H4180 C4188 0.929 . S
H4181 C4190 0.930 . S
H4182 C4192 0.930 . S
H4183 C4195 0.929 . S
H4184 C4198 0.930 . S
H4185 C4200 0.960 . S
H4186 C4200 0.960 . S
H4187 C4200 0.960 . S
C4188 H4180 0.929 . S
C4188 C4189 1.377 . S
C4188 C4190 1.384 . S
C4189 C4188 1.377 . S
C4189 C4195 1.390 . S
C4190 H4181 0.930 . S
C4190 C4188 1.384 . S
C4190 C4191 1.372 . S
C4191 C4190 1.372 . S
C4191 C4192 1.400 . S
C4191 C4196 1.490 . S
C4192 H4182 0.930 . S
C4192 C4191 1.400 . S
C4192 C4195 1.386 . S
H4193 C4209 0.930 . S
H4194 C4210 0.931 . S
C4195 H4183 0.929 . S
C4195 C4189 1.390 . S
C4195 C4192 1.386 . S
C4196 C4191 1.490 . S
C4196 C4198 1.395 . S
C4196 C4199 1.403 . S
H4197 C4203 0.930 . S
C4198 H4184 0.930 . S
C4198 C4196 1.395 . S
C4198 C4201 1.403 . S
C4199 C4196 1.403 . S
C4199 C4200 1.524 . S
C4199 C4203 1.400 . S
C4200 H4185 0.960 . S
C4200 H4186 0.960 . S
C4200 H4187 0.960 . S
C4200 C4199 1.524 . S
C4201 C4198 1.403 . S
C4201 C4202 1.392 . S
C4201 C4205 1.495 . S
C4202 C4201 1.392 . S
C4202 C4203 1.385 . S
C4202 C4204 1.478 . S
C4203 H4197 0.930 . S
C4203 C4199 1.400 . S
C4203 C4202 1.385 . S
C4204 C4202 1.478 . S
C4204 C4206 1.381 . S
C4204 C4210 1.383 . S
C4205 C4201 1.495 . S
C4205 H4211 0.959 . S
C4205 H4212 0.961 . S
C4205 H4213 0.960 . S
C4206 C4204 1.381 . S
C4206 C4207 1.394 . S
C4206 H4214 0.930 . S
C4207 C4206 1.394 . S
C4207 C4208 1.383 . S
C4207 H4215 0.929 1_565 S
C4208 C4207 1.383 . S
C4208 C4209 1.377 . S
C4209 H4193 0.930 . S
C4209 C4208 1.377 . S
C4209 C4210 1.379 . S
C4210 H4194 0.931 . S
C4210 C4204 1.383 . S
C4210 C4209 1.379 . S
H4211 C4205 0.959 . S
H4212 C4205 0.961 . S
H4213 C4205 0.960 . S
H4214 C4206 0.930 . S
H4215 C4207 0.929 1_545 S
H4216 C4224 0.929 . S
H4217 C4226 0.930 . S
H4218 C4228 0.930 . S
H4219 C4231 0.929 . S
H4220 C4234 0.930 . S
H4221 C4236 0.960 . S
H4222 C4236 0.960 . S
H4223 C4236 0.960 . S
C4224 H4216 0.929 . S
C4224 C4225 1.377 . S
C4224 C4226 1.384 . S
C4225 C4224 1.377 . S
C4225 C4231 1.390 . S
C4226 H4217 0.930 . S
C4226 C4224 1.384 . S
C4226 C4227 1.372 . S
C4227 C4226 1.372 . S
C4227 C4228 1.400 . S
C4227 C4232 1.490 . S
C4228 H4218 0.930 . S
C4228 C4227 1.400 . S
C4228 C4231 1.386 . S
H4229 C4245 0.930 . S
H4230 C4246 0.931 . S
C4231 H4219 0.929 . S
C4231 C4225 1.390 . S
C4231 C4228 1.386 . S
C4232 C4227 1.490 . S
C4232 C4234 1.395 . S
C4232 C4235 1.403 . S
H4233 C4239 0.930 . S
C4234 H4220 0.930 . S
C4234 C4232 1.395 . S
C4234 C4237 1.403 . S
C4235 C4232 1.403 . S
C4235 C4236 1.524 . S
C4235 C4239 1.400 . S
C4236 H4221 0.960 . S
C4236 H4222 0.960 . S
C4236 H4223 0.960 . S
C4236 C4235 1.524 . S
C4237 C4234 1.403 . S
C4237 C4238 1.392 . S
C4237 C4241 1.495 . S
C4238 C4237 1.392 . S
C4238 C4239 1.385 . S
C4238 C4240 1.478 . S
C4239 H4233 0.930 . S
C4239 C4235 1.400 . S
C4239 C4238 1.385 . S
C4240 C4238 1.478 . S
C4240 C4242 1.381 . S
C4240 C4246 1.383 . S
C4241 C4237 1.495 . S
C4241 H4247 0.959 . S
C4241 H4248 0.961 . S
C4241 H4249 0.960 . S
C4242 C4240 1.381 . S
C4242 C4243 1.394 . S
C4242 H4250 0.930 . S
C4243 C4242 1.394 . S
C4243 C4244 1.383 . S
C4243 H4251 0.929 . S
C4244 C4243 1.383 . S
C4244 C4245 1.377 . S
C4245 H4229 0.930 . S
C4245 C4244 1.377 . S
C4245 C4246 1.379 . S
C4246 H4230 0.931 . S
C4246 C4240 1.383 . S
C4246 C4245 1.379 . S
H4247 C4241 0.959 . S
H4248 C4241 0.961 . S
H4249 C4241 0.960 . S
H4250 C4242 0.930 . S
H4251 C4243 0.929 . S
H4252 C4260 0.929 . S
H4253 C4262 0.930 . S
H4254 C4264 0.930 . S
H4255 C4267 0.929 . S
H4256 C4270 0.930 . S
H4257 C4272 0.960 1_556 S
H4258 C4272 0.960 1_556 S
H4259 C4272 0.960 . S
C4260 H4252 0.929 . S
C4260 C4261 1.377 . S
C4260 C4262 1.384 . S
C4261 C4260 1.377 . S
C4261 C4267 1.390 . S
C4262 H4253 0.930 . S
C4262 C4260 1.384 . S
C4262 C4263 1.372 . S
C4263 C4262 1.372 . S
C4263 C4264 1.400 . S
C4263 C4268 1.490 . S
C4264 H4254 0.930 . S
C4264 C4263 1.400 . S
C4264 C4267 1.386 . S
H4265 C4281 0.930 . S
H4266 C4282 0.931 . S
C4267 H4255 0.929 . S
C4267 C4261 1.390 . S
C4267 C4264 1.386 . S
C4268 C4263 1.490 . S
C4268 C4270 1.395 . S
C4268 C4271 1.403 . S
H4269 C4275 0.930 . S
C4270 H4256 0.930 . S
C4270 C4268 1.395 . S
C4270 C4273 1.403 . S
C4271 C4268 1.403 . S
C4271 C4272 1.524 . S
C4271 C4275 1.400 . S
C4272 H4257 0.960 1_554 S
C4272 H4258 0.960 1_554 S
C4272 H4259 0.960 . S
C4272 C4271 1.524 . S
C4273 C4270 1.403 . S
C4273 C4274 1.392 . S
C4273 C4277 1.495 . S
C4274 C4273 1.392 . S
C4274 C4275 1.385 . S
C4274 C4276 1.478 . S
C4275 H4269 0.930 . S
C4275 C4271 1.400 . S
C4275 C4274 1.385 . S
C4276 C4274 1.478 . S
C4276 C4278 1.381 . S
C4276 C4282 1.383 . S
C4277 C4273 1.495 . S
C4277 H4283 0.959 . S
C4277 H4284 0.961 . S
C4277 H4285 0.960 . S
C4278 C4276 1.381 . S
C4278 C4279 1.394 . S
C4278 H4286 0.930 . S
C4279 C4278 1.394 . S
C4279 C4280 1.383 . S
C4279 H4287 0.929 . S
C4280 C4279 1.383 . S
C4280 C4281 1.377 . S
C4281 H4265 0.930 . S
C4281 C4280 1.377 . S
C4281 C4282 1.379 . S
C4282 H4266 0.931 . S
C4282 C4276 1.383 . S
C4282 C4281 1.379 . S
H4283 C4277 0.959 . S
H4284 C4277 0.961 . S
H4285 C4277 0.960 . S
H4286 C4278 0.930 . S
H4287 C4279 0.929 . S
H4288 C4296 0.929 . S
H4289 C4298 0.930 . S
H4290 C4300 0.930 . S
H4291 C4303 0.929 . S
H4292 C4306 0.930 . S
H4293 C4308 0.960 . S
H4294 C4308 0.960 . S
H4295 C4308 0.960 . S
C4296 H4288 0.929 . S
C4296 C4297 1.377 . S
C4296 C4298 1.384 . S
C4297 C4296 1.377 . S
C4297 C4303 1.390 . S
C4298 H4289 0.930 . S
C4298 C4296 1.384 . S
C4298 C4299 1.372 . S
C4299 C4298 1.372 . S
C4299 C4300 1.400 . S
C4299 C4304 1.490 . S
C4300 H4290 0.930 . S
C4300 C4299 1.400 . S
C4300 C4303 1.386 . S
H4301 C4317 0.930 . S
H4302 C4318 0.931 . S
C4303 H4291 0.929 . S
C4303 C4297 1.390 . S
C4303 C4300 1.386 . S
C4304 C4299 1.490 . S
C4304 C4306 1.395 . S
C4304 C4307 1.403 . S
H4305 C4311 0.930 . S
C4306 H4292 0.930 . S
C4306 C4304 1.395 . S
C4306 C4309 1.403 . S
C4307 C4304 1.403 . S
C4307 C4308 1.524 . S
C4307 C4311 1.400 . S
C4308 H4293 0.960 . S
C4308 H4294 0.960 . S
C4308 H4295 0.960 . S
C4308 C4307 1.524 . S
C4309 C4306 1.403 . S
C4309 C4310 1.392 . S
C4309 C4313 1.495 . S
C4310 C4309 1.392 . S
C4310 C4311 1.385 . S
C4310 C4312 1.478 . S
C4311 H4305 0.930 . S
C4311 C4307 1.400 . S
C4311 C4310 1.385 . S
C4312 C4310 1.478 . S
C4312 C4314 1.381 . S
C4312 C4318 1.383 . S
C4313 C4309 1.495 . S
C4313 H4319 0.959 . S
C4313 H4320 0.961 . S
C4313 H4321 0.960 . S
C4314 C4312 1.381 . S
C4314 C4315 1.394 . S
C4314 H4322 0.930 . S
C4315 C4314 1.394 . S
C4315 C4316 1.383 . S
C4315 H4323 0.929 . S
C4316 C4315 1.383 . S
C4316 C4317 1.377 . S
C4317 H4301 0.930 . S
C4317 C4316 1.377 . S
C4317 C4318 1.379 . S
C4318 H4302 0.931 . S
C4318 C4312 1.383 . S
C4318 C4317 1.379 . S
H4319 C4313 0.959 . S
H4320 C4313 0.961 . S
H4321 C4313 0.960 . S
H4322 C4314 0.930 . S
H4323 C4315 0.929 . S
H4324 C4332 0.929 1_556 S
H4325 C4334 0.930 1_556 S
H4326 C4336 0.930 . S
H4327 C4339 0.929 . S
H4328 C4342 0.930 . S
H4329 C4344 0.960 . S
H4330 C4344 0.960 . S
H4331 C4344 0.960 . S
C4332 H4324 0.929 1_554 S
C4332 C4333 1.377 . S
C4332 C4334 1.384 . S
C4333 C4332 1.377 . S
C4333 C4339 1.390 . S
C4334 H4325 0.930 1_554 S
C4334 C4332 1.384 . S
C4334 C4335 1.372 . S
C4335 C4334 1.372 . S
C4335 C4336 1.400 . S
C4335 C4340 1.490 . S
C4336 H4326 0.930 . S
C4336 C4335 1.400 . S
C4336 C4339 1.386 . S
H4337 C4353 0.930 . S
H4338 C4354 0.931 . S
C4339 H4327 0.929 . S
C4339 C4333 1.390 . S
C4339 C4336 1.386 . S
C4340 C4335 1.490 . S
C4340 C4342 1.395 1_554 S
C4340 C4343 1.403 . S
H4341 C4347 0.930 . S
C4342 H4328 0.930 . S
C4342 C4340 1.395 1_556 S
C4342 C4345 1.403 . S
C4343 C4340 1.403 . S
C4343 C4344 1.524 . S
C4343 C4347 1.400 . S
C4344 H4329 0.960 . S
C4344 H4330 0.960 . S
C4344 H4331 0.960 . S
C4344 C4343 1.524 . S
C4345 C4342 1.403 . S
C4345 C4346 1.392 1_556 S
C4345 C4349 1.495 . S
C4346 C4345 1.392 1_554 S
C4346 C4347 1.385 . S
C4346 C4348 1.478 . S
C4347 H4341 0.930 . S
C4347 C4343 1.400 . S
C4347 C4346 1.385 . S
C4348 C4346 1.478 . S
C4348 C4350 1.381 1_554 S
C4348 C4354 1.383 . S
C4349 C4345 1.495 . S
C4349 H4355 0.959 . S
C4349 H4356 0.961 . S
C4349 H4357 0.960 . S
C4350 C4348 1.381 1_556 S
C4350 C4351 1.394 . S
C4350 H4358 0.930 . S
C4351 C4350 1.394 . S
C4351 C4352 1.350 1_556 S
C4351 H4359 0.929 . S
C4352 C4351 1.350 1_554 S
C4352 C4353 1.412 . S
C4353 H4337 0.930 . S
C4353 C4352 1.412 . S
C4353 C4354 1.379 . S
C4354 H4338 0.931 . S
C4354 C4348 1.383 . S
C4354 C4353 1.379 . S
H4355 C4349 0.959 . S
H4356 C4349 0.961 . S
H4357 C4349 0.960 . S
H4358 C4350 0.930 . S
H4359 C4351 0.929 . S
H4360 C4368 0.929 . S
H4361 C4370 0.930 . S
H4362 C4372 0.930 . S
H4363 C4375 0.929 . S
H4364 C4378 0.930 . S
H4365 C4380 0.960 . S
H4366 C4380 0.960 . S
H4367 C4380 0.960 . S
C4368 H4360 0.929 . S
C4368 C4369 1.377 . S
C4368 C4370 1.384 . S
C4369 C4368 1.377 . S
C4369 C4375 1.390 . S
C4370 H4361 0.930 . S
C4370 C4368 1.384 . S
C4370 C4371 1.372 . S
C4371 C4370 1.372 . S
C4371 C4372 1.400 . S
C4371 C4376 1.490 . S
C4372 H4362 0.930 . S
C4372 C4371 1.400 . S
C4372 C4375 1.386 . S
H4373 C4389 0.930 . S
H4374 C4390 0.931 . S
C4375 H4363 0.929 . S
C4375 C4369 1.390 . S
C4375 C4372 1.386 . S
C4376 C4371 1.490 . S
C4376 C4378 1.395 . S
C4376 C4379 1.403 . S
H4377 C4383 0.930 . S
C4378 H4364 0.930 . S
C4378 C4376 1.395 . S
C4378 C4381 1.403 . S
C4379 C4376 1.403 . S
C4379 C4380 1.524 . S
C4379 C4383 1.400 . S
C4380 H4365 0.960 . S
C4380 H4366 0.960 . S
C4380 H4367 0.960 . S
C4380 C4379 1.524 . S
C4381 C4378 1.403 . S
C4381 C4382 1.392 . S
C4381 C4385 1.495 . S
C4382 C4381 1.392 . S
C4382 C4383 1.385 . S
C4382 C4384 1.478 . S
C4383 H4377 0.930 . S
C4383 C4379 1.400 . S
C4383 C4382 1.385 . S
C4384 C4382 1.478 . S
C4384 C4386 1.381 . S
C4384 C4390 1.383 . S
C4385 C4381 1.495 . S
C4385 H4391 0.959 . S
C4385 H4392 0.961 . S
C4385 H4393 0.960 . S
C4386 C4384 1.381 . S
C4386 C4387 1.394 . S
C4386 H4394 0.930 . S
C4387 C4386 1.394 . S
C4387 C4388 1.383 . S
C4387 H4395 0.929 . S
C4388 C4387 1.383 . S
C4388 C4389 1.377 . S
C4389 H4373 0.930 . S
C4389 C4388 1.377 . S
C4389 C4390 1.379 . S
C4390 H4374 0.931 . S
C4390 C4384 1.383 . S
C4390 C4389 1.379 . S
H4391 C4385 0.959 . S
H4392 C4385 0.961 . S
H4393 C4385 0.960 . S
H4394 C4386 0.930 . S
H4395 C4387 0.929 . S
H4396 C4404 0.929 . S
H4397 C4406 0.930 . S
H4398 C4408 0.930 . S
H4399 C4411 0.929 . S
H4400 C4414 0.930 . S
H4401 C4416 0.960 . S
H4402 C4416 0.960 . S
H4403 C4416 0.960 . S
C4404 H4396 0.929 . S
C4404 C4405 1.377 . S
C4404 C4406 1.384 . S
C4405 C4404 1.377 . S
C4405 C4411 1.390 . S
C4406 H4397 0.930 . S
C4406 C4404 1.384 . S
C4406 C4407 1.372 . S
C4407 C4406 1.372 . S
C4407 C4408 1.400 . S
C4407 C4412 1.490 . S
C4408 H4398 0.930 . S
C4408 C4407 1.400 . S
C4408 C4411 1.386 . S
H4409 C4425 0.930 . S
H4410 C4426 0.931 . S
C4411 H4399 0.929 . S
C4411 C4405 1.390 . S
C4411 C4408 1.386 . S
C4412 C4407 1.490 . S
C4412 C4414 1.395 . S
C4412 C4415 1.403 . S
H4413 C4419 0.930 . S
C4414 H4400 0.930 . S
C4414 C4412 1.395 . S
C4414 C4417 1.403 . S
C4415 C4412 1.403 . S
C4415 C4416 1.524 . S
C4415 C4419 1.400 . S
C4416 H4401 0.960 . S
C4416 H4402 0.960 . S
C4416 H4403 0.960 . S
C4416 C4415 1.524 . S
C4417 C4414 1.403 . S
C4417 C4418 1.392 . S
C4417 C4421 1.495 . S
C4418 C4417 1.392 . S
C4418 C4419 1.385 . S
C4418 C4420 1.478 . S
C4419 H4413 0.930 . S
C4419 C4415 1.400 . S
C4419 C4418 1.385 . S
C4420 C4418 1.478 . S
C4420 C4422 1.381 . S
C4420 C4426 1.383 . S
C4421 C4417 1.495 . S
C4421 H4427 0.959 . S
C4421 H4428 0.961 . S
C4421 H4429 0.960 . S
C4422 C4420 1.381 . S
C4422 C4423 1.394 . S
C4422 H4430 0.930 . S
C4423 C4422 1.394 . S
C4423 C4424 1.383 . S
C4423 H4431 0.929 . S
C4424 C4423 1.383 . S
C4424 C4425 1.377 . S
C4425 H4409 0.930 . S
C4425 C4424 1.377 . S
C4425 C4426 1.379 . S
C4426 H4410 0.931 . S
C4426 C4420 1.383 . S
C4426 C4425 1.379 . S
H4427 C4421 0.959 . S
H4428 C4421 0.961 . S
H4429 C4421 0.960 . S
H4430 C4422 0.930 . S
H4431 C4423 0.929 . S
C985 C105 2.289 . S
C1004 C346 2.215 . S
C1021 C65 2.070 . S
C1040 C394 2.049 . S
C1057 C73 1.137 . S
C1076 C426 1.147 . S
C1112 C471 1.592 . S
C1093 C92 1.620 . S
C1129 C17 0.939 . S
C1148 C511 0.917 . S
C1184 C546 0.801 . S
C1165 C37 0.830 . S
C1220 C585 1.194 . S
C1201 C49 1.193 . S
C1237 C8 1.210 . S
C1256 C622 1.212 . S
C1292 C354 1.985 . S
C1273 C231 1.960 . S
C1309 C241 0.337 . S
C1328 C391 0.413 . S
C1364 C434 2.440 . S
C1345 C273 2.397 . S
C1400 C466 0.928 . S
C1381 C171 0.965 . S
C1417 C227 1.083 . S
C1436 C506 1.060 . S
C1472 C554 0.454 . S
C1453 C245 0.524 . S
C1508 C595 1.843 . S
C1489 C269 1.925 . S
C1544 C625 1.919 . S
C1525 C175 1.924 . S
C1580 C351 1.113 . S
C1561 C162 1.124 1_554 S
C1597 C289 2.215 . S
C1616 C674 2.180 . S
C1652 C711 1.196 . S
C1633 C330 1.186 . S
C1688 C742 0.283 . S
C1669 C317 0.238 . S
C1705 C120 2.777 . S
C1724 C635 2.736 . S
C1741 C134 1.452 . S
C1760 C431 1.434 . S
C1777 C331 1.767 . S
C1796 C794 1.750 . S
C1832 C826 1.683 . S
C1813 C303 1.711 . S
C1868 C355 2.250 . S
C1849 C59 2.303 . S
C1904 C825 2.130 . S
C1885 C107 2.133 . S
C1921 C91 1.188 . S
C1940 C435 1.185 . S
C1957 C78 1.643 . S
C1976 C782 1.629 . S
C2012 C502 0.982 . S
C1993 C7 0.954 1_455 S
C2029 C51 0.901 . S
C2048 C715 0.922 . S
C2084 C594 1.219 . S
C2065 C31 1.247 . S
C2120 C871 1.242 . S
C2101 C22 1.233 . S
C2156 C345 2.005 . S
C2137 C143 2.028 . S
C2192 C822 0.377 . S
C2173 C315 0.536 . S
C2209 C115 2.514 . S
C2228 C425 2.476 . S
C2245 C287 1.010 . S
C2264 C795 1.035 . S
C2281 C147 1.134 . S
C2300 C515 1.142 . S
C2336 C705 0.487 . S
C2317 C311 0.501 . S
C2353 C119 1.902 . S
C2372 C586 1.898 . S
C2389 C283 1.963 . S
C2408 C874 1.943 . S
C2425 C190 1.106 . S
C2444 C342 1.108 1_556 S
C2461 C177 2.267 . S
C2480 C665 2.245 . S
C2497 C260 1.196 . S
C2516 C542 1.195 . S
C2533 C247 0.230 . S
C2552 C751 0.345 . S
C2588 C866 2.772 . S
C2569 C274 2.821 . S
C2605 C218 1.479 . S
C2624 C422 1.476 . S
C2660 C465 1.811 . S
C2641 C261 1.811 . S
C2696 C395 1.762 . S
C2677 C205 1.766 . S
C2713 C77 2.291 . S
C2732 C906 2.246 . S
C2768 C834 2.065 . S
C2749 C93 2.071 . S
C2785 C101 1.137 . S
C2804 C946 1.111 . S
C2821 C64 1.618 1_655 S
C2840 C791 1.571 . S
C2857 C45 0.939 . S
C2876 C671 0.926 . S
C2912 C706 0.799 . S
C2893 C9 0.834 . S
C2948 C745 1.231 . S
C2929 C21 1.183 . S
C2984 C862 1.181 . S
C2965 C36 1.209 . S
C3020 C914 1.976 . S
C3001 C259 1.964 . S
C3037 C185 0.324 . S
C3056 C831 0.535 . S
C3092 C954 2.449 . S
C3073 C203 2.392 . S
C3128 C786 0.923 . S
C3109 C213 0.964 . S
C3164 C666 1.050 . S
C3145 C255 1.083 . S
C3181 C189 0.527 . S
C3200 C714 0.441 . S
C3236 C755 1.849 . S
C3217 C199 1.925 . S
C3253 C217 1.928 . S
C3272 C865 1.917 . S
C3308 C911 1.134 . S
C3289 C316 1.129 . S
C3325 C135 2.214 . S
C3344 C514 2.177 . S
C3380 C551 1.184 . S
C3361 C148 1.184 . S
C3416 C582 0.309 . S
C3397 C163 0.236 . S
C3452 C875 2.729 . S
C3433 C302 2.776 . S
C3469 C288 1.450 . S
C3488 C951 1.417 . S
C3524 C474 1.761 . S
C3505 C149 1.766 . S
C3560 C386 1.684 . S
C3541 C121 1.710 . S
C3577 C87 2.304 . S
C3596 C915 2.229 . S
C3632 C385 2.113 . S
C3613 C79 2.130 . S
C3649 C63 1.182 . S
C3668 C955 1.183 . S
C3685 C106 1.645 . S
C3704 C462 1.606 . S
C3721 C35 0.979 . S
C3740 C662 0.979 . S
C3776 C555 0.875 . S
C3757 C23 0.905 . S
C3793 C3 1.248 . S
C3812 C754 1.234 . S
C3829 C50 1.228 . S
C3848 C631 1.218 . S
C3884 C905 2.020 . S
C3865 C325 2.026 . S
C3901 C161 0.532 . S
C3920 C382 0.373 . S
C3956 C945 2.489 . S
C3937 C297 2.515 . S
C3973 C133 1.012 . S
C3992 C475 1.038 . S
C4009 C329 1.133 . S
C4028 C675 1.155 . S
C4064 C545 0.570 . S
C4045 C157 0.515 . S
C4081 C301 1.908 . S
C4100 C746 1.882 1_655 S
C4136 C634 1.933 . S
C4117 C129 1.964 . S
C4172 C902 1.087 . S
C4153 C246 1.106 . S
C4208 C505 2.287 1_565 S
C4189 C219 2.269 . S
C4225 C232 1.187 . S
C4244 C702 1.199 . S
C4280 C591 0.363 . S
C4261 C191 0.233 . S
C4297 C204 2.822 . S
C4316 C626 2.761 . S
C4333 C176 1.475 . S
C4352 C942 1.484 . S
C4388 C785 1.810 . S
C4369 C233 1.810 . S
C4424 C835 1.759 . S
C4405 C275 1.768 . S
