# Generated by pormake.
# Topology ocu, (6,8)-cn, num edge types: 1
# Building blocks:
#     Node 0, Type 0, BuildingBlock: HISSIN_clean_sbu_0, # of connection points: 6
#     Node 1, Type 0, BuildingBlock: HISSIN_clean_sbu_0, # of connection points: 6
#     Node 2, Type 0, BuildingBlock: HISSIN_clean_sbu_0, # of connection points: 6
#     Node 3, Type 0, BuildingBlock: HISSIN_clean_sbu_0, # of connection points: 6
#     Node 4, Type 0, BuildingBlock: HISSIN_clean_sbu_0, # of connection points: 6
#     Node 5, Type 0, BuildingBlock: HISSIN_clean_sbu_0, # of connection points: 6
#     Node 6, Type 0, BuildingBlock: HISSIN_clean_sbu_0, # of connection points: 6
#     Node 7, Type 0, BuildingBlock: HISSIN_clean_sbu_0, # of connection points: 6
#     Node 8, Type 1, BuildingBlock: VETTIZ_charged_sbu_0, # of connection points: 8
#     Node 9, Type 1, BuildingBlock: VETTIZ_charged_sbu_0, # of connection points: 8
#     Node 10, Type 1, BuildingBlock: VETTIZ_charged_sbu_0, # of connection points: 8
#     Node 11, Type 1, BuildingBlock: VETTIZ_charged_sbu_0, # of connection points: 8
#     Node 12, Type 1, BuildingBlock: VETTIZ_charged_sbu_0, # of connection points: 8
#     Node 13, Type 1, BuildingBlock: VETTIZ_charged_sbu_0, # of connection points: 8
#     Edge 14, Type (0, 1), BuildingBlock: KIFKEQ_clean_linker_1, # of connection points: 2
#     Edge 15, Type (0, 1), BuildingBlock: KIFKEQ_clean_linker_1, # of connection points: 2
#     Edge 16, Type (0, 1), BuildingBlock: KIFKEQ_clean_linker_1, # of connection points: 2
#     Edge 17, Type (0, 1), BuildingBlock: KIFKEQ_clean_linker_1, # of connection points: 2
#     Edge 18, Type (0, 1), BuildingBlock: KIFKEQ_clean_linker_1, # of connection points: 2
#     Edge 19, Type (0, 1), BuildingBlock: KIFKEQ_clean_linker_1, # of connection points: 2
#     Edge 20, Type (0, 1), BuildingBlock: KIFKEQ_clean_linker_1, # of connection points: 2
#     Edge 21, Type (0, 1), BuildingBlock: KIFKEQ_clean_linker_1, # of connection points: 2
#     Edge 22, Type (0, 1), BuildingBlock: KIFKEQ_clean_linker_1, # of connection points: 2
#     Edge 23, Type (0, 1), BuildingBlock: KIFKEQ_clean_linker_1, # of connection points: 2
#     Edge 24, Type (0, 1), BuildingBlock: KIFKEQ_clean_linker_1, # of connection points: 2
#     Edge 25, Type (0, 1), BuildingBlock: KIFKEQ_clean_linker_1, # of connection points: 2
#     Edge 26, Type (0, 1), BuildingBlock: KIFKEQ_clean_linker_1, # of connection points: 2
#     Edge 27, Type (0, 1), BuildingBlock: KIFKEQ_clean_linker_1, # of connection points: 2
#     Edge 28, Type (0, 1), BuildingBlock: KIFKEQ_clean_linker_1, # of connection points: 2
#     Edge 29, Type (0, 1), BuildingBlock: KIFKEQ_clean_linker_1, # of connection points: 2
#     Edge 30, Type (0, 1), BuildingBlock: KIFKEQ_clean_linker_1, # of connection points: 2
#     Edge 31, Type (0, 1), BuildingBlock: KIFKEQ_clean_linker_1, # of connection points: 2
#     Edge 32, Type (0, 1), BuildingBlock: KIFKEQ_clean_linker_1, # of connection points: 2
#     Edge 33, Type (0, 1), BuildingBlock: KIFKEQ_clean_linker_1, # of connection points: 2
#     Edge 34, Type (0, 1), BuildingBlock: KIFKEQ_clean_linker_1, # of connection points: 2
#     Edge 35, Type (0, 1), BuildingBlock: KIFKEQ_clean_linker_1, # of connection points: 2
#     Edge 36, Type (0, 1), BuildingBlock: KIFKEQ_clean_linker_1, # of connection points: 2
#     Edge 37, Type (0, 1), BuildingBlock: KIFKEQ_clean_linker_1, # of connection points: 2
#     Edge 38, Type (0, 1), BuildingBlock: KIFKEQ_clean_linker_1, # of connection points: 2
#     Edge 39, Type (0, 1), BuildingBlock: KIFKEQ_clean_linker_1, # of connection points: 2
#     Edge 40, Type (0, 1), BuildingBlock: KIFKEQ_clean_linker_1, # of connection points: 2
#     Edge 41, Type (0, 1), BuildingBlock: KIFKEQ_clean_linker_1, # of connection points: 2
#     Edge 42, Type (0, 1), BuildingBlock: KIFKEQ_clean_linker_1, # of connection points: 2
#     Edge 43, Type (0, 1), BuildingBlock: KIFKEQ_clean_linker_1, # of connection points: 2
#     Edge 44, Type (0, 1), BuildingBlock: KIFKEQ_clean_linker_1, # of connection points: 2
#     Edge 45, Type (0, 1), BuildingBlock: KIFKEQ_clean_linker_1, # of connection points: 2
#     Edge 46, Type (0, 1), BuildingBlock: KIFKEQ_clean_linker_1, # of connection points: 2
#     Edge 47, Type (0, 1), BuildingBlock: KIFKEQ_clean_linker_1, # of connection points: 2
#     Edge 48, Type (0, 1), BuildingBlock: KIFKEQ_clean_linker_1, # of connection points: 2
#     Edge 49, Type (0, 1), BuildingBlock: KIFKEQ_clean_linker_1, # of connection points: 2
#     Edge 50, Type (0, 1), BuildingBlock: KIFKEQ_clean_linker_1, # of connection points: 2
#     Edge 51, Type (0, 1), BuildingBlock: KIFKEQ_clean_linker_1, # of connection points: 2
#     Edge 52, Type (0, 1), BuildingBlock: KIFKEQ_clean_linker_1, # of connection points: 2
#     Edge 53, Type (0, 1), BuildingBlock: KIFKEQ_clean_linker_1, # of connection points: 2
#     Edge 54, Type (0, 1), BuildingBlock: KIFKEQ_clean_linker_1, # of connection points: 2
#     Edge 55, Type (0, 1), BuildingBlock: KIFKEQ_clean_linker_1, # of connection points: 2
#     Edge 56, Type (0, 1), BuildingBlock: KIFKEQ_clean_linker_1, # of connection points: 2
#     Edge 57, Type (0, 1), BuildingBlock: KIFKEQ_clean_linker_1, # of connection points: 2
#     Edge 58, Type (0, 1), BuildingBlock: KIFKEQ_clean_linker_1, # of connection points: 2
#     Edge 59, Type (0, 1), BuildingBlock: KIFKEQ_clean_linker_1, # of connection points: 2
#     Edge 60, Type (0, 1), BuildingBlock: KIFKEQ_clean_linker_1, # of connection points: 2
#     Edge 61, Type (0, 1), BuildingBlock: KIFKEQ_clean_linker_1, # of connection points: 2
# Relax obj value: 0.109
# Max RMSD: 0.183
# Mean RMSD: 0.130
data_MOF--net-ocu--node1-HISSIN_clean_sbu_0--node2-VETTIZ_charged_sbu_0--edge1-KIFKEQ_clean_linker_1
_symmetry_space_group_name_H-M    P1
_symmetry_Int_Tables_number       1
_symmetry_cell_setting            triclinic
loop_
_symmetry_equiv_pos_as_xyz
'x, y, z'
_cell_length_a     40.929243
_cell_length_b     41.170158
_cell_length_c     40.618564
_cell_angle_alpha  101.58675
_cell_angle_beta   79.733184
_cell_angle_gamma 103.22779
loop_
_atom_site_label
_atom_site_type_symbol
_atom_site_fract_x
_atom_site_fract_y
_atom_site_fract_z
_atom_type_partial_charge
Eu0 Eu 0.30472 0.28025 0.30451 0.0
Eu1 Eu 0.2505 0.25956 0.24812 0.0
C2 C 0.24315 0.21539 0.30618 0.0
C3 C 0.35946 0.26385 0.36291 0.0
C4 C 0.34603 0.22899 0.35589 0.0
C5 C 0.39807 0.25209 0.39621 0.0
C6 C 0.3586 0.20586 0.36881 0.0
C7 C 0.38548 0.2752 0.38325 0.0
C8 C 0.38495 0.21702 0.38904 0.0
C9 C 0.34706 0.28816 0.34826 0.0
O10 O 0.22653 0.29029 0.29501 0.0
O11 O 0.27357 0.32141 0.31821 0.0
C12 C 0.24134 0.31701 0.31469 0.0
O13 O 0.32745 0.31249 0.26374 0.0
O14 O 0.19865 0.24993 0.236 0.0
O15 O 0.24079 0.249 0.19556 0.0
O16 O 0.27852 0.31223 0.24341 0.0
C17 C 0.31074 0.32433 0.24546 0.0
O18 O 0.3163 0.2334 0.26917 0.0
O19 O 0.2984 0.24129 0.22182 0.0
O20 O 0.24073 0.21389 0.27403 0.0
O21 O 0.35649 0.28811 0.31583 0.0
O22 O 0.31506 0.2895 0.35698 0.0
O23 O 0.26003 0.2424 0.32365 0.0
C24 C 0.1962 0.27406 0.18824 0.0
C25 C 0.21881 0.29754 0.16987 0.0
C26 C 0.14943 0.29732 0.17915 0.0
C27 C 0.20687 0.32054 0.1563 0.0
C28 C 0.16139 0.27415 0.19264 0.0
C29 C 0.17204 0.32079 0.16077 0.0
C30 C 0.20876 0.2503 0.20372 0.0
C31 C 0.31789 0.22849 0.23606 0.0
H32 H 0.32591 0.21964 0.34022 0.0
H33 H 0.41865 0.2617 0.41125 0.0
H34 H 0.34749 0.1792 0.36306 0.0
H35 H 0.39634 0.30196 0.38882 0.0
H36 H 0.24583 0.2984 0.16614 0.0
H37 H 0.12242 0.29657 0.18279 0.0
H38 H 0.22507 0.33854 0.14272 0.0
H39 H 0.14341 0.25638 0.20668 0.0
Eu40 Eu 0.80153 0.24134 0.27517 0.0
Eu41 Eu 0.76094 0.30284 0.27934 0.0
C42 C 0.81962 0.3105 0.32684 0.0
C43 C 0.83701 0.1762 0.30194 0.0
C44 C 0.83035 0.19193 0.33575 0.0
C45 C 0.85411 0.1314 0.32136 0.0
C46 C 0.83603 0.17778 0.36218 0.0
C47 C 0.84859 0.14573 0.29487 0.0
C48 C 0.84822 0.1475 0.35527 0.0
C49 C 0.83143 0.19155 0.27431 0.0
O50 O 0.79384 0.29702 0.22846 0.0
O51 O 0.83612 0.27919 0.24496 0.0
C52 C 0.82567 0.29442 0.22461 0.0
O53 O 0.77191 0.22707 0.23066 0.0
O54 O 0.76426 0.35525 0.27414 0.0
O55 O 0.71501 0.32258 0.28207 0.0
O56 O 0.72897 0.25472 0.25499 0.0
C57 C 0.74071 0.23107 0.23237 0.0
O58 O 0.75642 0.2326 0.31544 0.0
O59 O 0.73956 0.2841 0.32899 0.0
O60 O 0.80519 0.32565 0.30933 0.0
O61 O 0.79988 0.18719 0.26972 0.0
O62 O 0.84762 0.22269 0.27358 0.0
O63 O 0.81538 0.27742 0.32225 0.0
C64 C 0.72159 0.36199 0.24514 0.0
C65 C 0.73994 0.35725 0.21238 0.0
C66 C 0.68206 0.38522 0.22303 0.0
C67 C 0.72945 0.36652 0.18518 0.0
C68 C 0.69269 0.37616 0.25022 0.0
C69 C 0.7002 0.38036 0.19012 0.0
C70 C 0.73179 0.35147 0.27388 0.0
C71 C 0.73883 0.25379 0.33532 0.0
H72 H 0.82098 0.21531 0.34167 0.0
H73 H 0.86383 0.10824 0.31526 0.0
H74 H 0.83092 0.19054 0.38804 0.0
H75 H 0.85366 0.1332 0.2689 0.0
H76 H 0.76222 0.34609 0.20773 0.0
H77 H 0.65967 0.39621 0.22782 0.0
H78 H 0.74379 0.36213 0.16015 0.0
H79 H 0.67817 0.38002 0.27524 0.0
Eu80 Eu 0.79084 0.80198 0.24883 0.0
Eu81 Eu 0.77734 0.74426 0.29887 0.0
C82 C 0.73689 0.73121 0.23367 0.0
C83 C 0.77713 0.86459 0.19735 0.0
C84 C 0.74171 0.85556 0.20449 0.0
C85 C 0.77105 0.90321 0.16196 0.0
C86 C 0.72104 0.87034 0.19041 0.0
C87 C 0.79164 0.88849 0.17609 0.0
C88 C 0.7355 0.89427 0.16886 0.0
C89 C 0.79919 0.84964 0.21224 0.0
O90 O 0.81686 0.7284 0.25644 0.0
O91 O 0.83602 0.77604 0.23131 0.0
C92 C 0.83866 0.74579 0.23535 0.0
O93 O 0.81635 0.82651 0.29527 0.0
O94 O 0.76318 0.69154 0.30629 0.0
O95 O 0.77605 0.73098 0.3486 0.0
O96 O 0.8264 0.77946 0.31016 0.0
C97 C 0.83211 0.81242 0.31231 0.0
O98 O 0.73966 0.80442 0.2803 0.0
O99 O 0.74627 0.7833 0.32623 0.0
O100 O 0.73704 0.7251 0.26423 0.0
O101 O 0.79613 0.8551 0.24525 0.0
O102 O 0.80137 0.81842 0.1994 0.0
O103 O 0.75717 0.75714 0.22169 0.0
C104 C 0.79474 0.67926 0.3441 0.0
C105 C 0.81997 0.69478 0.36485 0.0
C106 C 0.81632 0.62713 0.33407 0.0
C107 C 0.84315 0.67671 0.37004 0.0
C108 C 0.79303 0.64516 0.329 0.0
C109 C 0.84176 0.6427 0.35457 0.0
C110 C 0.77098 0.69852 0.33703 0.0
C111 C 0.73135 0.80136 0.31252 0.0
H112 H 0.7301 0.83708 0.2209 0.0
H113 H 0.78302 0.92191 0.14591 0.0
H114 H 0.69379 0.86266 0.19596 0.0
H115 H 0.81894 0.89587 0.17049 0.0
H116 H 0.82199 0.72096 0.37703 0.0
H117 H 0.81462 0.60108 0.32155 0.0
H118 H 0.86191 0.68934 0.38659 0.0
H119 H 0.77386 0.63249 0.3129 0.0
Eu120 Eu 0.31411 0.7352 0.27368 0.0
Eu121 Eu 0.26477 0.7886 0.28135 0.0
C122 C 0.25012 0.71597 0.23304 0.0
C123 C 0.39249 0.70294 0.27436 0.0
C124 C 0.41244 0.73519 0.27171 0.0
C125 C 0.44269 0.68178 0.27453 0.0
C126 C 0.44771 0.74041 0.26925 0.0
C127 C 0.40761 0.67669 0.27702 0.0
C128 C 0.46339 0.71335 0.26923 0.0
C129 C 0.35594 0.69643 0.27425 0.0
O130 O 0.23278 0.74631 0.30791 0.0
O131 O 0.27734 0.72943 0.32137 0.0
C132 C 0.24485 0.72922 0.32536 0.0
O133 O 0.34195 0.78567 0.29738 0.0
O134 O 0.24672 0.82169 0.2561 0.0
O135 O 0.22949 0.81997 0.30965 0.0
O136 O 0.29607 0.80781 0.32446 0.0
C137 C 0.32846 0.80736 0.32098 0.0
O138 O 0.33428 0.76259 0.22891 0.0
O139 O 0.31452 0.81089 0.25251 0.0
O140 O 0.25049 0.74847 0.23706 0.0
O141 O 0.3391 0.7105 0.30156 0.0
O142 O 0.34595 0.69974 0.24652 0.0
O143 O 0.26928 0.70419 0.24866 0.0
C144 C 0.19126 0.83029 0.27691 0.0
C145 C 0.16291 0.81356 0.29628 0.0
C146 C 0.15414 0.85362 0.25172 0.0
C147 C 0.13065 0.81852 0.29487 0.0
C148 C 0.18649 0.84892 0.25341 0.0
C149 C 0.12615 0.84029 0.27405 0.0
C150 C 0.22589 0.83098 0.28273 0.0
C151 C 0.3348 0.79474 0.22962 0.0
H152 H 0.40084 0.75594 0.27029 0.0
H153 H 0.45346 0.65998 0.27409 0.0
H154 H 0.46271 0.76505 0.26553 0.0
H155 H 0.3924 0.65182 0.27959 0.0
H156 H 0.1658 0.79842 0.31412 0.0
H157 H 0.15148 0.86996 0.23494 0.0
H158 H 0.10989 0.80786 0.31262 0.0
H159 H 0.20803 0.86152 0.23774 0.0
Eu160 Eu 0.30014 0.74503 0.77051 0.0
Eu161 Eu 0.25691 0.80617 0.78126 0.0
C162 C 0.31923 0.81394 0.82161 0.0
C163 C 0.34345 0.68801 0.80142 0.0
C164 C 0.35841 0.71206 0.82712 0.0
C165 C 0.34434 0.64346 0.83253 0.0
C166 C 0.36663 0.70188 0.85493 0.0
C167 C 0.33638 0.65364 0.80447 0.0
C168 C 0.35977 0.66747 0.85798 0.0
C169 C 0.33367 0.69876 0.77246 0.0
O170 O 0.28872 0.80742 0.73008 0.0
O171 O 0.33047 0.78031 0.73495 0.0
C172 C 0.31898 0.8002 0.72012 0.0
O173 O 0.26941 0.72943 0.72666 0.0
O174 O 0.25592 0.85998 0.78966 0.0
O175 O 0.20953 0.82327 0.78369 0.0
O176 O 0.22833 0.7607 0.74949 0.0
C177 C 0.23947 0.73644 0.727 0.0
O178 O 0.25079 0.73004 0.80314 0.0
O179 O 0.23819 0.78154 0.82817 0.0
O180 O 0.30531 0.82901 0.80387 0.0
O181 O 0.30134 0.69204 0.77021 0.0
O182 O 0.3482 0.72908 0.76639 0.0
O183 O 0.31254 0.78088 0.81853 0.0
C184 C 0.21831 0.87167 0.75821 0.0
C185 C 0.23764 0.86795 0.72603 0.0
C186 C 0.18675 0.90564 0.73856 0.0
C187 C 0.23195 0.88318 0.70041 0.0
C188 C 0.19291 0.89073 0.76441 0.0
C189 C 0.20612 0.90191 0.70611 0.0
C190 C 0.22443 0.85495 0.78473 0.0
C191 C 0.23512 0.74899 0.82796 0.0
H192 H 0.36365 0.73883 0.8259 0.0
H193 H 0.33897 0.61674 0.83402 0.0
H194 H 0.3781 0.72104 0.87429 0.0
H195 H 0.32458 0.63466 0.78518 0.0
H196 H 0.257 0.85296 0.72066 0.0
H197 H 0.16624 0.91932 0.74381 0.0
H198 H 0.24778 0.88009 0.67607 0.0
H199 H 0.17752 0.89367 0.78904 0.0
Eu200 Eu 0.28511 0.29613 0.75395 0.0
Eu201 Eu 0.26919 0.23848 0.80401 0.0
C202 C 0.22849 0.22891 0.74024 0.0
C203 C 0.26998 0.36158 0.70869 0.0
C204 C 0.23481 0.34987 0.71502 0.0
C205 C 0.26024 0.41007 0.68908 0.0
C206 C 0.21249 0.36794 0.70806 0.0
C207 C 0.28254 0.39187 0.69591 0.0
C208 C 0.2249 0.39823 0.69485 0.0
C209 C 0.29347 0.34284 0.71646 0.0
O210 O 0.31948 0.2332 0.7717 0.0
O211 O 0.31496 0.25625 0.72614 0.0
C212 C 0.32843 0.23679 0.73964 0.0
O213 O 0.32769 0.31086 0.78608 0.0
O214 O 0.26088 0.1854 0.80929 0.0
O215 O 0.26105 0.2238 0.85413 0.0
O216 O 0.3009 0.28495 0.83127 0.0
C217 C 0.32499 0.30763 0.81806 0.0
O218 O 0.24684 0.31314 0.79746 0.0
O219 O 0.22404 0.26442 0.81997 0.0
O220 O 0.24272 0.21425 0.75818 0.0
O221 O 0.29924 0.34926 0.74789 0.0
O222 O 0.28846 0.3105 0.7044 0.0
O223 O 0.23593 0.26181 0.74139 0.0
C224 C 0.28314 0.176 0.85526 0.0
C225 C 0.31844 0.1845 0.84668 0.0
C226 C 0.29039 0.13603 0.88859 0.0
C227 C 0.33962 0.16882 0.859 0.0
C228 C 0.26927 0.15173 0.87627 0.0
C229 C 0.32584 0.14432 0.88008 0.0
C230 C 0.26062 0.19193 0.84204 0.0
C231 C 0.2233 0.29558 0.81713 0.0
H232 H 0.22462 0.32665 0.72521 0.0
H233 H 0.27071 0.43354 0.67946 0.0
H234 H 0.18553 0.35779 0.71243 0.0
H235 H 0.3096 0.4015 0.69131 0.0
H236 H 0.32958 0.20314 0.83033 0.0
H237 H 0.27893 0.11771 0.90519 0.0
H238 H 0.36675 0.17556 0.85167 0.0
H239 H 0.24206 0.14492 0.88317 0.0
Eu240 Eu 0.79631 0.25724 0.77281 0.0
Eu241 Eu 0.74736 0.31164 0.78347 0.0
C242 C 0.73387 0.24172 0.7319 0.0
C243 C 0.8638 0.20613 0.77622 0.0
C244 C 0.88954 0.23338 0.78637 0.0
C245 C 0.90061 0.16723 0.77351 0.0
C246 C 0.92133 0.22752 0.78898 0.0
C247 C 0.86909 0.17312 0.77113 0.0
C248 C 0.92773 0.19438 0.7811 0.0
C249 C 0.83142 0.211 0.76975 0.0
O250 O 0.72866 0.28339 0.82763 0.0
O251 O 0.74576 0.23489 0.80035 0.0
C252 C 0.72685 0.25079 0.82496 0.0
O253 O 0.81289 0.29678 0.81676 0.0
O254 O 0.71947 0.33588 0.75799 0.0
O255 O 0.71653 0.34711 0.81286 0.0
O256 O 0.7927 0.34164 0.80816 0.0
C257 C 0.81278 0.3293 0.82215 0.0
O258 O 0.82858 0.29908 0.74561 0.0
O259 O 0.78506 0.32176 0.7374 0.0
O260 O 0.72019 0.26236 0.75659 0.0
O261 O 0.8107 0.22058 0.79631 0.0
O262 O 0.83189 0.22612 0.74427 0.0
O263 O 0.76604 0.24068 0.72899 0.0
C264 C 0.66599 0.34045 0.78877 0.0
C265 C 0.64574 0.33085 0.81829 0.0
C266 C 0.61507 0.3347 0.76328 0.0
C267 C 0.61056 0.32469 0.82082 0.0
C268 C 0.65037 0.34122 0.76089 0.0
C269 C 0.59473 0.32791 0.79385 0.0
C270 C 0.70325 0.3488 0.7864 0.0
C271 C 0.81695 0.31901 0.73092 0.0
H272 H 0.88544 0.25909 0.79104 0.0
H273 H 0.9041 0.14134 0.76662 0.0
H274 H 0.94128 0.24902 0.79543 0.0
H275 H 0.84923 0.15182 0.76368 0.0
H276 H 0.65696 0.32928 0.84 0.0
H277 H 0.60378 0.33697 0.74189 0.0
H278 H 0.59602 0.32002 0.84502 0.0
H279 H 0.66548 0.34782 0.73753 0.0
Eu280 Eu 0.81105 0.78038 0.80973 0.0
Eu281 Eu 0.75774 0.76184 0.75162 0.0
C282 C 0.75026 0.71227 0.80615 0.0
C283 C 0.8661 0.76814 0.86923 0.0
C284 C 0.86663 0.73521 0.85149 0.0
C285 C 0.89143 0.75554 0.91379 0.0
C286 C 0.87955 0.71265 0.86472 0.0
C287 C 0.87864 0.77817 0.90042 0.0
C288 C 0.89197 0.72245 0.89613 0.0
C289 C 0.8514 0.79143 0.85572 0.0
O290 O 0.72937 0.78377 0.80074 0.0
O291 O 0.77446 0.81661 0.82592 0.0
C292 C 0.7418 0.80884 0.82349 0.0
O293 O 0.83566 0.8108 0.76857 0.0
O294 O 0.70763 0.75235 0.73538 0.0
O295 O 0.75266 0.76075 0.69876 0.0
O296 O 0.78668 0.81565 0.75262 0.0
C297 C 0.81936 0.82572 0.75306 0.0
O298 O 0.82723 0.73566 0.77459 0.0
O299 O 0.79824 0.73043 0.72926 0.0
O300 O 0.74188 0.71586 0.77738 0.0
O301 O 0.862 0.79437 0.824 0.0
O302 O 0.81861 0.78842 0.86296 0.0
O303 O 0.77284 0.73459 0.82255 0.0
C304 C 0.70588 0.78223 0.6916 0.0
C305 C 0.7172 0.81727 0.70068 0.0
C306 C 0.66844 0.79353 0.65665 0.0
C307 C 0.70435 0.84025 0.68777 0.0
C308 C 0.68139 0.77059 0.66952 0.0
C309 C 0.67974 0.82876 0.66552 0.0
C310 C 0.7198 0.75776 0.70457 0.0
C311 C 0.82103 0.72213 0.74365 0.0
H312 H 0.85673 0.72679 0.82752 0.0
H313 H 0.90107 0.76401 0.93788 0.0
H314 H 0.8791 0.68727 0.85068 0.0
H315 H 0.87833 0.80342 0.91454 0.0
H316 H 0.73612 0.82688 0.71767 0.0
H317 H 0.64917 0.78357 0.6401 0.0
H318 H 0.7141 0.86705 0.69494 0.0
H319 H 0.6722 0.74369 0.66221 0.0
Fe320 Fe 0.03685 0.09591 0.51631 0.0
O321 O 1.02654 0.04624 0.51132 0.0
Fe322 Fe 0.06529 0.02236 0.51511 0.0
Fe323 Fe 0.98951 1.02088 0.5413 0.0
O324 O 1.02983 0.04665 0.51072 0.0
O325 O 1.02818 0.9968 0.54498 0.0
O326 O 1.02482 0.99629 0.54544 0.0
Fe327 Fe 1.01668 0.94691 0.5395 0.0
C328 C 1.00845 0.08701 0.58779 0.0
O329 O 0.99132 0.08642 0.49784 0.0
O330 O 0.95682 0.04976 0.53198 0.0
O331 O 0.0429 0.93957 0.49135 0.0
O332 O 0.05136 0.98864 0.47306 0.0
O333 O 0.09939 0.05213 0.48169 0.0
O334 O 0.06772 0.08773 0.47095 0.0
O335 O 0.97525 0.98677 0.49911 0.0
O336 O 0.97268 0.93917 0.51804 0.0
C337 C 0.09343 0.07277 0.46385 0.0
O338 O 0.06259 0.95485 0.55659 0.0
O339 O 0.09787 0.99325 0.52472 0.0
O340 O 1.00913 0.10271 0.56366 0.0
O341 O 1.00373 0.05492 0.58335 0.0
C342 C 0.96199 0.07024 0.51007 0.0
C343 C 0.96579 0.95485 0.49696 0.0
C344 C 0.96124 0.97057 0.59239 0.0
O345 O 0.95534 0.99116 0.57453 0.0
O346 O 0.98688 0.95552 0.5855 0.0
C347 C 0.04532 0.95652 0.46776 0.0
O348 O 0.07951 0.05676 0.55707 0.0
O349 O 0.08018 0.1047 0.53925 0.0
C350 C 0.0922 0.97107 0.54507 0.0
C351 C 0.08827 0.08879 0.55949 0.0
Fe352 Fe 0.53238 0.98321 1.02201 0.0
O353 O 0.556 0.02365 1.00064 0.0
Fe354 Fe 0.45607 1.00569 0.06101 0.0
Fe355 Fe 0.60554 0.03713 0.99176 0.0
O356 O 0.50563 1.01602 0.05141 0.0
O357 O 0.50558 1.01971 0.05208 0.0
O358 O 0.55597 0.02731 1.00135 0.0
Fe359 Fe 0.52901 0.0601 0.03048 0.0
C360 C 0.59791 0.99729 0.05008 0.0
O361 O 0.56512 0.95455 0.98734 0.0
O362 O 0.59952 0.99363 0.95614 0.0
O363 O 0.49563 0.0487 0.9955 0.0
O364 O 0.44683 0.03443 0.02872 0.0
O365 O 0.45062 0.96403 1.02292 0.0
O366 O 0.49857 0.97002 0.98685 0.0
O367 O 0.59588 0.0701 0.96436 0.0
O368 O 0.55798 0.0979 1.00248 0.0
C369 C 0.46695 0.95808 0.99334 0.0
O370 O 0.49623 0.08873 0.06473 0.0
O371 O 0.46148 0.04986 0.09605 0.0
O372 O 0.56587 0.99411 0.05689 0.0
O373 O 0.6144 1.00728 1.02303 0.0
C374 C 0.58802 0.96281 0.9618 0.0
C375 C 0.57995 0.09498 0.97494 0.0
C376 C 0.59453 0.0836 0.06022 0.0
O377 O 0.61149 0.07755 0.03097 0.0
O378 O 0.56247 0.07385 0.06581 0.0
C379 C 0.46351 0.04489 1.00192 0.0
O380 O 0.46639 0.97374 0.0891 0.0
O381 O 0.50339 0.94543 0.05022 0.0
C382 C 0.47362 0.08063 0.09046 0.0
C383 C 0.48205 0.94867 0.07825 0.0
Fe384 Fe 0.03667 0.56103 0.03362 0.0
O385 O 1.00629 0.52191 0.05288 0.0
Fe386 Fe 0.10752 0.5266 0.99505 0.0
Fe387 Fe 0.95673 0.51616 0.06059 0.0
O388 O 0.05842 0.52464 1.00333 0.0
O389 O 0.05799 0.52095 1.00252 0.0
O390 O 1.00581 0.51816 0.05198 0.0
Fe391 Fe 1.02726 0.48177 1.02132 0.0
C392 C 0.98422 0.58763 0.09393 0.0
O393 O 1.00541 0.55788 0.99814 0.0
O394 O 0.95552 0.55131 0.03103 0.0
O395 O 0.05526 0.44883 0.98573 0.0
O396 O 0.09684 0.48546 0.95736 0.0
O397 O 0.10584 0.56464 0.96943 0.0
O398 O 0.07192 0.59697 1.00772 0.0
O399 O 0.94678 0.47834 1.01987 0.0
O400 O 0.99566 0.47698 0.98555 0.0
C401 C 0.0937 0.59206 0.98035 0.0
O402 O 0.05819 0.48413 0.05681 0.0
O403 O 0.10854 0.49137 1.02473 0.0
O404 O 1.00851 0.59393 0.06888 0.0
O405 O 0.96759 0.55745 0.0981 0.0
C406 C 0.97469 0.56132 1.00512 0.0
C407 C 0.96338 0.47133 0.99061 0.0
C408 C 0.9701 0.45049 0.07426 0.0
O409 O 0.9585 0.47807 0.08615 0.0
O410 O 0.99162 0.44582 0.04667 0.0
C411 C 0.07986 0.45527 0.96097 0.0
O412 O 0.11738 0.56438 0.03574 0.0
O413 O 0.06832 0.56659 0.06953 0.0
C414 C 0.08898 0.48098 0.05029 0.0
C415 C 0.10059 0.57189 0.06476 0.0
Fe416 Fe 0.5208 0.55149 0.96327 0.0
O417 O 0.53026 0.54665 1.00777 0.0
Fe418 Fe 0.48856 0.52423 0.03975 0.0
Fe419 Fe 0.56439 0.52072 1.01319 0.0
O420 O 0.52643 0.54576 1.0081 0.0
O421 O 0.52282 0.49879 0.04566 0.0
O422 O 0.52648 0.49941 0.04513 0.0
Fe423 Fe 0.53194 0.49358 0.09001 0.0
C424 C 0.54159 0.48475 0.94623 0.0
O425 O 0.5683 0.58137 0.96315 0.0
O426 O 0.59934 0.54718 0.97758 0.0
O427 O 0.50957 0.53292 0.11613 0.0
O428 O 0.50502 0.56263 0.07751 0.0
O429 O 0.4575 0.55424 0.02834 0.0
O430 O 0.49339 0.58629 0.99104 0.0
O431 O 0.58234 0.55889 0.0516 0.0
O432 O 0.5783 0.52643 0.09044 0.0
C433 C 0.46517 0.57907 1.0109 0.0
O434 O 0.48379 0.46439 0.09116 0.0
O435 O 0.45357 0.4984 0.07526 0.0
O436 O 0.54444 0.51321 0.93723 0.0
O437 O 0.54705 0.4825 0.97547 0.0
C438 C 0.59662 0.57271 0.96425 0.0
C439 C 0.58978 0.55424 0.07933 0.0
C440 C 0.58662 0.46473 0.04156 0.0
O441 O 0.59478 0.48964 1.0241 0.0
O442 O 0.55855 0.45821 0.06194 0.0
C443 C 0.51075 0.56096 0.10685 0.0
O444 O 0.47178 0.48569 1.00142 0.0
O445 O 0.47491 0.51751 0.96221 0.0
C446 C 0.45592 0.47369 0.08981 0.0
C447 C 0.46411 0.48975 0.97361 0.0
Fe448 Fe 0.04767 0.44978 0.52261 0.0
O449 O 0.05003 0.49863 0.52742 0.0
Fe450 Fe 0.03818 0.51602 0.48641 0.0
Fe451 Fe 1.02475 0.52559 0.56634 0.0
O452 O 0.05172 0.4987 0.52355 0.0
O453 O 1.01333 0.54317 0.52527 0.0
O454 O 1.01153 0.543 0.52903 0.0
Fe455 Fe 1.01548 0.59163 0.52852 0.0
C456 C 0.98054 0.45683 0.56951 0.0
O457 O 0.07422 0.46583 0.56355 0.0
O458 O 0.04437 0.50379 0.59955 0.0
O459 O 0.05588 0.59757 0.49081 0.0
O460 O 0.08129 0.55403 0.4852 0.0
O461 O 0.06771 0.48439 0.45057 0.0
O462 O 0.08762 0.45686 0.48474 0.0
O463 O 0.06758 0.56305 0.56848 0.0
O464 O 0.04836 0.60846 0.56494 0.0
C465 C 0.08867 0.46697 0.45629 0.0
O466 O 0.9869 0.57384 0.48943 0.0
O467 O 1.01787 0.53719 0.45307 0.0
O468 O 1.00557 0.44248 0.558 0.0
O469 O 0.9816 0.48757 0.56732 0.0
C470 C 0.06651 0.48412 0.59275 0.0
C471 C 0.06989 0.59493 0.57373 0.0
C472 C 0.97484 0.57532 0.59619 0.0
O473 O 0.99495 0.55709 0.60209 0.0
O474 O 0.97686 0.58596 0.56785 0.0
C475 C 0.08124 0.58357 0.48013 0.0
O476 O 0.99523 0.47891 0.48515 0.0
O477 O 1.01667 0.43391 0.48427 0.0
C478 C 0.99428 0.55525 0.46032 0.0
C479 C 0.99405 0.44732 0.47737 0.0
Fe480 Fe 0.53159 0.98373 0.51886 0.0
O481 O 0.50949 1.01843 0.55152 0.0
Fe482 Fe 0.56408 0.02512 0.44962 0.0
Fe483 Fe 0.50279 1.02024 0.60076 0.0
O484 O 0.55809 0.02404 0.49863 0.0
O485 O 0.55769 0.02766 0.49898 0.0
O486 O 0.50904 0.02203 0.55185 0.0
Fe487 Fe 0.53546 0.06236 0.53147 0.0
C488 C 0.47375 0.94854 0.56915 0.0
O489 O 0.56839 0.98753 0.54915 0.0
O490 O 0.53561 0.98819 0.59914 0.0
O491 O 0.56757 0.1 0.50494 0.0
O492 O 0.59844 0.06939 0.46135 0.0
O493 O 0.59421 0.9908 0.44841 0.0
O494 O 0.55971 0.95283 0.48084 0.0
O495 O 0.54131 0.06115 0.61129 0.0
O496 O 0.57267 0.06959 0.56178 0.0
C497 C 0.58566 0.96133 0.45797 0.0
O498 O 0.49853 0.05794 0.50131 0.0
O499 O 0.53037 0.0562 0.45074 0.0
O500 O 0.49943 0.9462 0.54512 0.0
O501 O 0.46778 0.97644 0.58845 0.0
C502 C 0.56209 0.98155 0.5795 0.0
C503 C 0.56882 0.07361 0.59402 0.0
C504 C 0.4823 0.08511 0.59301 0.0
O505 O 0.47355 0.05585 0.60304 0.0
O506 O 0.50744 0.09317 0.5693 0.0
C507 C 0.59298 0.0975 0.48055 0.0
O508 O 0.52654 0.9831 0.43923 0.0
O509 O 0.49426 0.97712 0.48874 0.0
C510 C 0.50423 0.06322 0.47076 0.0
C511 C 0.49871 0.97154 0.45652 0.0
H512 H 0.2503 0.20695 0.36916 0.0
H513 H 0.19639 0.15913 0.28411 0.0
H514 H 0.21764 0.1641 0.40174 0.0
H515 H 0.16401 0.11545 0.31671 0.0
H516 H 0.0798 0.08912 0.40713 0.0
H517 H 0.11958 0.11651 0.3644 0.0
H518 H 0.20305 0.10558 0.41037 0.0
H519 H 0.16268 0.0785 0.45399 0.0
C520 C 0.23172 0.18702 0.3572 0.0
C521 C 0.22549 0.1869 0.3242 0.0
C522 C 0.21327 0.1621 0.37581 0.0
C523 C 0.18804 0.13634 0.36197 0.0
C524 C 0.18298 0.13519 0.3283 0.0
C525 C 0.20156 0.16018 0.30958 0.0
C526 C 0.10667 0.09195 0.40779 0.0
C527 C 0.11813 0.08217 0.43426 0.0
C528 C 0.12955 0.10742 0.38303 0.0
C529 C 0.16457 0.11366 0.3841 0.0
C530 C 0.17618 0.10159 0.40913 0.0
C531 C 0.15313 0.08582 0.43394 0.0
H532 H 0.83323 0.08168 0.36579 0.0
H533 H 0.88217 0.18229 0.40752 0.0
H534 H 0.85087 0.05887 0.4094 0.0
H535 H 0.90049 0.15971 0.45038 0.0
H536 H 0.92359 0.11804 0.53253 0.0
H537 H 0.88692 0.13407 0.49962 0.0
H538 H 0.90277 0.04949 0.42024 0.0
H539 H 0.93804 0.03311 0.45394 0.0
C540 C 0.84765 0.0989 0.38438 0.0
C541 C 0.85646 0.13373 0.38317 0.0
C542 C 0.85775 0.08588 0.40937 0.0
C543 C 0.87716 0.10739 0.43348 0.0
C544 C 0.88497 0.14238 0.43279 0.0
C545 C 0.87464 0.15538 0.40804 0.0
C546 C 0.9179 0.10224 0.50867 0.0
C547 C 0.93306 0.07422 0.49575 0.0
C548 C 0.89737 0.1116 0.48958 0.0
C549 C 0.89231 0.09343 0.45696 0.0
C550 C 0.9057 0.06392 0.44531 0.0
C551 C 0.92593 0.05445 0.46456 0.0
H552 H 0.87436 0.79303 0.34665 0.0
H553 H 0.84119 0.88114 0.33287 0.0
H554 H 0.90836 0.82796 0.38916 0.0
H555 H 0.87423 0.91591 0.37626 0.0
H556 H 0.95837 0.97485 0.43855 0.0
H557 H 0.92907 0.94103 0.39181 0.0
H558 H 0.90057 0.85615 0.44579 0.0
H559 H 0.93059 0.88951 0.49175 0.0
C560 C 0.87434 0.81988 0.35263 0.0
C561 C 0.85487 0.83418 0.33636 0.0
C562 C 0.89367 0.83994 0.37727 0.0
C563 C 0.89385 0.87483 0.38661 0.0
C564 C 0.87509 0.88927 0.36962 0.0
C565 C 0.85595 0.86924 0.34476 0.0
C566 C 0.94564 0.94903 0.4405 0.0
C567 C 0.94669 0.93502 0.46907 0.0
C568 C 0.9288 0.92959 0.41366 0.0
C569 C 0.91242 0.89568 0.4148 0.0
C570 C 0.91339 0.88187 0.44354 0.0
C571 C 0.9304 0.90117 0.47016 0.0
H572 H 0.12359 0.9065 0.27734 0.0
H573 H 0.05936 0.80979 0.29135 0.0
H574 H 0.0851 0.93494 0.31808 0.0
H575 H 1.02007 0.83879 0.33275 0.0
H576 H 0.03956 0.88878 0.44478 0.0
H577 H 0.03939 0.85981 0.38687 0.0
H578 H 0.03839 0.95332 0.35429 0.0
H579 H 0.03964 0.98271 0.41263 0.0
C580 C 0.10023 0.89118 0.28756 0.0
C581 C 0.0956 0.85571 0.28265 0.0
C582 C 0.07784 0.90773 0.31125 0.0
C583 C 0.05056 0.889 0.33026 0.0
C584 C 0.04186 0.85382 0.31961 0.0
C585 C 0.06436 0.8372 0.29587 0.0
C586 C 0.03895 0.90316 0.42538 0.0
C587 C 0.04122 0.93831 0.43305 0.0
C588 C 0.03811 0.88637 0.39207 0.0
C589 C 0.03937 0.90432 0.36564 0.0
C590 C 0.03808 0.93888 0.37392 0.0
C591 C 0.0392 0.95577 0.40729 0.0
H592 H 0.18542 0.96174 0.70912 0.0
H593 H 0.20915 0.8738 0.63867 0.0
H594 H 0.16688 0.981 0.66389 0.0
H595 H 0.19285 0.89423 0.59324 0.0
H596 H 0.10351 0.90946 0.54575 0.0
H597 H 0.13882 0.89569 0.58084 0.0
H598 H 0.17958 1.00221 0.61024 0.0
H599 H 0.14323 1.01588 0.57505 0.0
C600 C 0.18711 0.9467 0.68397 0.0
C601 C 0.19838 0.91591 0.67784 0.0
C602 C 0.17704 0.9581 0.65783 0.0
C603 C 0.17817 0.93908 0.62488 0.0
C604 C 0.1912 0.90931 0.61839 0.0
C605 C 0.20092 0.89776 0.6445 0.0
C606 C 0.12091 0.92986 0.55879 0.0
C607 C 0.1208 0.96366 0.55768 0.0
C608 C 0.14125 0.92202 0.57893 0.0
C609 C 0.16191 0.94785 0.5987 0.0
C610 C 0.16365 0.98174 0.59565 0.0
C611 C 0.14329 0.9896 0.57514 0.0
H612 H 0.18561 0.24943 0.70758 0.0
H613 H 0.21852 0.16032 0.71897 0.0
H614 H 0.14998 0.21523 0.66611 0.0
H615 H 0.18407 0.1263 0.67644 0.0
H616 H 0.09868 0.06809 0.61636 0.0
H617 H 0.12946 0.1015 0.66215 0.0
H618 H 0.15437 0.18744 0.60975 0.0
H619 H 0.12252 0.15454 0.56495 0.0
C620 C 0.18528 0.22252 0.70122 0.0
C621 C 0.20505 0.2077 0.7166 0.0
C622 C 0.165 0.20286 0.67717 0.0
C623 C 0.16427 0.16788 0.66742 0.0
C624 C 0.18352 0.15299 0.68344 0.0
C625 C 0.20348 0.17259 0.7078 0.0
C626 C 0.11082 0.0941 0.61461 0.0
C627 C 0.10817 0.10854 0.58685 0.0
C628 C 0.1286 0.11331 0.64088 0.0
C629 C 0.14452 0.14737 0.63991 0.0
C630 C 0.14196 0.16161 0.61195 0.0
C631 C 0.12389 0.14256 0.58596 0.0
H632 H 0.98593 0.23571 0.75525 0.0
H633 H 0.95141 0.13882 0.78861 0.0
H634 H 1.02897 0.21325 0.71415 0.0
H635 H 0.99108 0.11511 0.74425 0.0
H636 H 1.02452 0.06655 0.64214 0.0
H637 H 1.02935 0.09928 0.69889 0.0
H638 H 1.00806 0.18494 0.66553 0.0
H639 H 1.00502 0.15304 0.6095 0.0
C640 C 0.98801 0.20989 0.7548 0.0
C641 C 0.96297 0.18804 0.77296 0.0
C642 C 1.01254 0.19676 0.73061 0.0
C643 C 1.01093 0.16157 0.72329 0.0
C644 C 0.99196 0.14201 0.74754 0.0
C645 C 0.96864 0.15559 0.77292 0.0
C646 C 1.02115 0.09252 0.64715 0.0
C647 C 1.01314 0.10688 0.62175 0.0
C648 C 1.02419 0.1114 0.67961 0.0
C649 C 1.01862 0.14479 0.68744 0.0
C650 C 1.01306 0.15962 0.66101 0.0
C651 C 1.01055 0.14099 0.62868 0.0
H652 H 0.88787 0.84627 0.73951 0.0
H653 H 0.79355 0.8679 0.72472 0.0
H654 H 0.91905 0.88795 0.70496 0.0
H655 H 0.82492 0.91078 0.69096 0.0
H656 H 0.89378 0.94423 0.59315 0.0
H657 H 0.85707 0.91403 0.63646 0.0
H658 H 0.93652 0.94528 0.70034 0.0
H659 H 0.97346 0.97366 0.65616 0.0
C660 C 0.87377 0.86041 0.72941 0.0
C661 C 0.83821 0.85356 0.73475 0.0
C662 C 0.8917 0.88462 0.70973 0.0
C663 C 0.87459 0.90299 0.69514 0.0
C664 C 0.83897 0.89688 0.70139 0.0
C665 C 0.82098 0.87237 0.7209 0.0
C666 C 0.90283 0.94539 0.61693 0.0
C667 C 0.93632 0.96104 0.62144 0.0
C668 C 0.88189 0.92807 0.6418 0.0
C669 C 0.89405 0.92652 0.67171 0.0
C670 C 0.92662 0.94499 0.67726 0.0
C671 C 0.94767 0.96164 0.65219 0.0
H672 H 0.364 0.20151 0.25745 0.0
H673 H 0.32919 0.2116 0.16635 0.0
H674 H 0.40567 0.17049 0.22336 0.0
H675 H 0.37063 0.17966 0.13208 0.0
H676 H 0.46642 0.14181 0.07768 0.0
H677 H 0.43096 0.17996 0.1129 0.0
H678 H 0.40684 0.11615 0.18986 0.0
H679 H 0.44248 0.0789 0.15535 0.0
C680 C 0.36503 0.19696 0.23011 0.0
C681 C 0.34287 0.20888 0.21475 0.0
C682 C 0.38901 0.17903 0.21049 0.0
C683 C 0.39158 0.17233 0.17485 0.0
C684 C 0.36973 0.18464 0.1594 0.0
C685 C 0.34568 0.20268 0.1791 0.0
C686 C 0.45419 0.13646 0.10248 0.0
C687 C 0.45737 0.10723 0.11361 0.0
C688 C 0.43346 0.15806 0.1225 0.0
C689 C 0.41571 0.1511 0.15422 0.0
C690 C 0.42024 0.12267 0.16583 0.0
C691 C 0.44068 0.10113 0.14587 0.0
H692 H 0.81253 0.31313 0.16816 0.0
H693 H 0.89439 0.31353 0.22238 0.0
H694 H 0.85247 0.34573 0.12855 0.0
H695 H 0.93409 0.34676 0.18311 0.0
H696 H 0.96578 0.45292 0.14186 0.0
H697 H 0.93434 0.4096 0.17529 0.0
H698 H 0.90916 0.34203 0.08338 0.0
H699 H 0.9417 0.38529 0.04971 0.0
C700 C 0.83909 0.31979 0.17136 0.0
C701 C 0.85029 0.31086 0.19847 0.0
C702 C 0.86195 0.33825 0.14856 0.0
C703 C 0.89632 0.34869 0.1528 0.0
C704 C 0.90771 0.33896 0.1793 0.0
C705 C 0.88499 0.31991 0.20169 0.0
C706 C 0.95426 0.42848 0.12879 0.0
C707 C 0.9562 0.42228 0.0933 0.0
C708 C 0.93635 0.40371 0.14787 0.0
C709 C 0.91929 0.37256 0.13188 0.0
C710 C 0.92212 0.36589 0.09625 0.0
C711 C 0.94085 0.39045 0.07704 0.0
H712 H 0.74445 0.90612 0.1038 0.0
H713 H 0.67727 0.9171 0.19849 0.0
H714 H 0.71036 0.93288 0.07832 0.0
H715 H 0.64297 0.94408 0.17285 0.0
H716 H 0.57246 0.95692 0.09887 0.0
H717 H 0.60479 0.93263 0.12948 0.0
H718 H 0.69804 0.98836 0.08226 0.0
H719 H 0.66602 1.01196 0.05134 0.0
C720 C 0.72255 0.91454 0.11929 0.0
C721 C 0.7138 0.90973 0.15328 0.0
C722 C 0.70299 0.92994 0.10469 0.0
C723 C 0.67414 0.94103 0.12366 0.0
C724 C 0.66493 0.93567 0.15749 0.0
C725 C 0.68456 0.92019 0.17215 0.0
C726 C 0.59984 0.96431 0.0954 0.0
C727 C 0.61667 0.98602 0.0723 0.0
C728 C 0.61837 0.95042 0.11297 0.0
C729 C 0.65404 0.95808 0.10785 0.0
C730 C 0.67065 0.98121 0.08612 0.0
C731 C 0.65224 0.99491 0.06853 0.0
H732 H 0.2469 0.64791 0.20993 0.0
H733 H 0.19976 0.73074 0.20628 0.0
H734 H 0.20821 0.60999 0.17278 0.0
H735 H 0.16155 0.69305 0.16927 0.0
H736 H 0.07917 0.61109 0.12443 0.0
H737 H 0.11361 0.64339 0.16819 0.0
H738 H 0.20029 0.60391 0.11247 0.0
H739 H 0.16609 0.57162 0.06912 0.0
C740 C 0.22831 0.65802 0.2013 0.0
C741 C 0.22669 0.69244 0.21086 0.0
C742 C 0.20619 0.63632 0.18001 0.0
C743 C 0.18175 0.64852 0.16816 0.0
C744 C 0.17974 0.68275 0.1783 0.0
C745 C 0.20198 0.70444 0.19926 0.0
C746 C 0.10545 0.609 0.1218 0.0
C747 C 0.11997 0.58909 0.09311 0.0
C748 C 0.12522 0.62762 0.14673 0.0
C749 C 0.15974 0.62633 0.14369 0.0
C750 C 0.17376 0.60527 0.11574 0.0
C751 C 0.15417 0.58699 0.09072 0.0
H752 H 0.34354 0.7929 0.87064 0.0
H753 H 0.34863 0.88135 0.82646 0.0
H754 H 0.38167 0.82664 0.91027 0.0
H755 H 0.387 0.915 0.86609 0.0
H756 H 0.48095 0.95532 0.92403 0.0
H757 H 0.44688 0.91987 0.88098 0.0
H758 H 0.37646 0.87452 0.95953 0.0
H759 H 0.40997 0.90979 1.00223 0.0
C760 C 0.35284 0.8195 0.86928 0.0
C761 C 0.34277 0.83444 0.84549 0.0
C762 C 0.37467 0.83884 0.89205 0.0
C763 C 0.38736 0.87349 0.89131 0.0
C764 C 0.37789 0.88831 0.86708 0.0
C765 C 0.35567 0.86906 0.84458 0.0
C766 C 0.45835 0.93755 0.93198 0.0
C767 C 0.44816 0.93544 0.96655 0.0
C768 C 0.43875 0.91745 0.9074 0.0
C769 C 0.40899 0.89438 0.91688 0.0
C770 C 0.39936 0.8918 0.95135 0.0
C771 C 0.41852 0.9122 0.97585 0.0
H772 H 0.19126 0.29245 0.88259 0.0
H773 H 0.19235 0.33699 0.79491 0.0
H774 H 0.15151 0.32723 0.91569 0.0
H775 H 0.15128 0.36985 0.82673 0.0
H776 H 0.1212 0.45904 0.90081 0.0
H777 H 0.15118 0.41745 0.86641 0.0
H778 H 0.09849 0.34418 0.93043 0.0
H779 H 0.06931 0.38728 0.96654 0.0
C780 C 0.18234 0.30906 0.87019 0.0
C781 C 0.19533 0.31233 0.83628 0.0
C782 C 0.15938 0.32899 0.88911 0.0
C783 C 0.1484 0.35221 0.87436 0.0
C784 C 0.15983 0.35344 0.83967 0.0
C785 C 0.18326 0.33427 0.82116 0.0
C786 C 0.1155 0.43401 0.90759 0.0
C787 C 0.09274 0.42684 0.93679 0.0
C788 C 0.13268 0.40974 0.88742 0.0
C789 C 0.12753 0.37696 0.89521 0.0
C790 C 0.10364 0.36916 0.92367 0.0
C791 C 0.08646 0.39379 0.94419 0.0
H792 H 0.68036 0.27298 0.878 0.0
H793 H 0.7162 0.18304 0.82475 0.0
H794 H 0.63826 0.23859 0.91487 0.0
H795 H 0.67493 0.14928 0.86135 0.0
H796 H 0.58298 0.08826 0.90715 0.0
H797 H 0.61424 0.12902 0.87112 0.0
H798 H 0.63431 0.20377 0.96018 0.0
H799 H 0.60185 0.16281 0.99633 0.0
C800 C 0.67935 0.24598 0.87417 0.0
C801 C 0.70164 0.23081 0.84827 0.0
C802 C 0.65526 0.22632 0.89532 0.0
C803 C 0.65281 0.19108 0.89077 0.0
C804 C 0.67542 0.17618 0.86511 0.0
C805 C 0.6994 0.19569 0.84421 0.0
C806 C 0.59312 0.11377 0.91898 0.0
C807 C 0.59007 0.12242 0.95445 0.0
C808 C 0.61137 0.13703 0.89839 0.0
C809 C 0.6276 0.1694 0.91275 0.0
C810 C 0.62217 0.17905 0.94829 0.0
C811 C 0.60346 0.1557 0.96901 0.0
H812 H 0.88023 0.71184 0.96197 0.0
H813 H 0.93222 0.67747 0.86331 0.0
H814 H 0.90017 0.67138 0.98588 0.0
H815 H 0.95147 0.63625 0.88711 0.0
H816 H 1.0099 0.59549 0.95381 0.0
H817 H 0.99004 0.63349 0.92629 0.0
H818 H 0.89067 0.61033 0.98385 0.0
H819 H 0.91043 0.57276 1.01159 0.0
C820 C 0.89604 0.69575 0.94539 0.0
C821 C 0.90464 0.69798 0.91072 0.0
C822 C 0.90714 0.67223 0.95902 0.0
C823 C 0.92725 0.65037 0.93838 0.0
C824 C 0.93617 0.6528 0.90376 0.0
C825 C 0.92488 0.67623 0.89007 0.0
C826 C 0.98368 0.59814 0.96029 0.0
C827 C 0.96187 0.58116 0.98515 0.0
C828 C 0.97229 0.61993 0.94446 0.0
C829 C 0.93886 0.62531 0.95316 0.0
C830 C 0.91676 0.60733 0.97705 0.0
C831 C 0.92808 0.58555 0.99279 0.0
H832 H 0.19252 0.33949 0.09818 0.0
H833 H 0.12321 0.35782 0.19013 0.0
H834 H 0.1728 0.37992 0.0742 0.0
H835 H 0.10368 0.39879 0.16631 0.0
H836 H 0.05192 0.44124 0.09626 0.0
H837 H 0.07182 0.40365 0.12407 0.0
H838 H 0.17445 0.43871 0.07857 0.0
H839 H 0.15443 0.47552 0.05003 0.0
C840 C 0.1733 0.35244 0.11345 0.0
C841 C 0.15954 0.34541 0.14614 0.0
C842 C 0.16202 0.37578 0.09972 0.0
C843 C 0.13675 0.39295 0.11834 0.0
C844 C 0.12288 0.38583 0.15103 0.0
C845 C 0.13408 0.36231 0.16472 0.0
C846 C 0.0788 0.44125 0.09249 0.0
C847 C 0.10152 0.4613 0.07065 0.0
C848 C 0.09026 0.41968 0.10855 0.0
C849 C 0.12476 0.41773 0.10333 0.0
C850 C 0.1476 0.43886 0.08259 0.0
C851 C 0.13614 0.46024 0.0664 0.0
H852 H 0.24152 0.69135 0.84574 0.0
H853 H 0.17979 0.76751 0.87215 0.0
H854 H 0.20319 0.65779 0.88452 0.0
H855 H 0.14068 0.73308 0.91166 0.0
H856 H 0.10688 0.66136 1.00174 0.0
H857 H 0.13913 0.70441 0.96747 0.0
H858 H 0.14208 0.6269 0.87861 0.0
H859 H 0.11068 0.58444 0.91234 0.0
C860 C 0.21974 0.70105 0.85996 0.0
C861 C 0.21335 0.73182 0.8553 0.0
C862 C 0.19773 0.68173 0.88222 0.0
C863 C 0.16853 0.69243 0.90052 0.0
C864 C 0.16294 0.72418 0.89765 0.0
C865 C 0.18527 0.74382 0.87511 0.0
C866 C 0.11381 0.65382 0.97473 0.0
C867 C 0.10689 0.61945 0.95982 0.0
C868 C 0.13221 0.67841 0.95518 0.0
C869 C 0.1437 0.66882 0.92056 0.0
C870 C 0.13422 0.63491 0.90538 0.0
C871 C 0.1162 0.61058 0.92473 0.0
H872 H 0.38618 0.1733 0.90422 0.0
H873 H 0.31622 0.07765 0.88641 0.0
H874 H 0.42099 0.1467 0.92934 0.0
H875 H 0.35096 0.05113 0.91165 0.0
H876 H 0.39514 0.0317 1.00139 0.0
H877 H 0.36378 0.05402 0.96862 0.0
H878 H 0.45784 0.1048 0.91791 0.0
H879 H 0.48947 0.08278 0.9512 0.0
C880 C 0.37848 0.1465 0.90519 0.0
C881 C 0.34821 0.1277 0.89355 0.0
C882 C 0.39848 0.13123 0.91956 0.0
C883 C 0.38868 0.09681 0.92267 0.0
C884 C 0.35894 0.07782 0.91016 0.0
C885 C 0.33898 0.09305 0.89576 0.0
C886 C 0.40924 0.04738 0.98306 0.0
C887 C 0.44486 0.0556 0.97913 0.0
C888 C 0.39121 0.06001 0.96407 0.0
C889 C 0.40827 0.08131 0.94071 0.0
C890 C 0.44393 0.08877 0.93599 0.0
C891 C 0.46205 0.07593 0.95489 0.0
H892 H 0.86438 0.31406 0.84672 0.0
H893 H 0.81549 0.39685 0.84736 0.0
H894 H 0.90284 0.3511 0.88396 0.0
H895 H 0.85439 0.43407 0.88458 0.0
H896 H 0.89737 0.47051 0.98743 0.0
H897 H 0.86298 0.43852 0.94417 0.0
H898 H 0.95014 0.40134 0.88636 0.0
H899 H 0.9848 0.43334 0.93008 0.0
C900 C 0.86184 0.3402 0.85471 0.0
C901 C 0.83654 0.35237 0.84429 0.0
C902 C 0.8842 0.36153 0.8758 0.0
C903 C 0.88172 0.39553 0.8872 0.0
C904 C 0.85677 0.40789 0.87642 0.0
C905 C 0.83451 0.38659 0.85506 0.0
C906 C 0.90935 0.45571 0.96541 0.0
C907 C 0.94379 0.45421 0.96239 0.0
C908 C 0.88965 0.43759 0.94044 0.0
C909 C 0.90376 0.41729 0.91189 0.0
C910 C 0.93846 0.41652 0.90828 0.0
C911 C 0.95835 0.43498 0.93319 0.0
H912 H 0.75716 0.87287 0.85991 0.0
H913 H 0.67272 0.79114 0.8377 0.0
H914 H 0.71769 0.90758 0.89333 0.0
H915 H 0.63338 0.82578 0.87152 0.0
H916 H 0.58141 0.89514 0.96657 0.0
H917 H 0.61768 0.85608 0.93446 0.0
H918 H 0.67255 0.93299 0.87592 0.0
H919 H 0.63653 0.9714 0.90679 0.0
C920 C 0.73026 0.86216 0.86243 0.0
C921 C 0.71818 0.82929 0.84588 0.0
C922 C 0.70762 0.88209 0.88147 0.0
C923 C 0.67237 0.86946 0.88494 0.0
C924 C 0.66034 0.83617 0.86945 0.0
C925 C 0.68294 0.81644 0.84991 0.0
C926 C 0.60079 0.9035 0.94645 0.0
C927 C 0.60595 0.93668 0.93964 0.0
C928 C 0.62166 0.88117 0.92817 0.0
C929 C 0.64842 0.89173 0.90312 0.0
C930 C 0.65267 0.92431 0.89552 0.0
C931 C 0.63167 0.9463 0.91324 0.0
H932 H 0.87328 0.70842 0.25862 0.0
H933 H 0.86821 0.74678 0.16879 0.0
H934 H 0.91488 0.67613 0.22696 0.0
H935 H 0.90869 0.71259 0.13604 0.0
H936 H 0.99286 0.65465 0.08602 0.0
H937 H 0.96319 0.6978 0.12124 0.0
H938 H 0.91402 0.6268 0.18879 0.0
H939 H 0.94439 0.58508 0.15505 0.0
C940 C 0.88118 0.70996 0.23196 0.0
C941 C 0.86719 0.72992 0.21616 0.0
C942 C 0.90492 0.69112 0.21359 0.0
C943 C 0.9148 0.69077 0.17847 0.0
C944 C 0.90199 0.71214 0.16297 0.0
C945 C 0.87865 0.73172 0.1817 0.0
C946 C 0.9764 0.64868 0.10894 0.0
C947 C 0.97117 0.61622 0.11755 0.0
C948 C 0.95895 0.67331 0.12894 0.0
C949 C 0.93591 0.66611 0.1581 0.0
C950 C 0.93184 0.63398 0.16712 0.0
C951 C 0.94924 0.60967 0.1474 0.0
H952 H 0.38167 0.77183 0.17732 0.0
H953 H 0.34551 0.86224 0.22846 0.0
H954 H 0.42397 0.80559 0.13997 0.0
H955 H 0.38701 0.89534 0.19148 0.0
H956 H 0.47959 0.95557 0.14599 0.0
H957 H 0.4483 0.91508 0.18229 0.0
H958 H 0.42744 0.84008 0.09364 0.0
H959 H 0.45983 0.8808 0.05716 0.0
C960 C 0.38266 0.79878 0.18061 0.0
C961 C 0.36017 0.81427 0.20603 0.0
C962 C 0.40685 0.81808 0.15918 0.0
C963 C 0.40925 0.85326 0.16305 0.0
C964 C 0.38649 0.86847 0.18825 0.0
C965 C 0.36238 0.84932 0.20936 0.0
C966 C 0.4693 0.93006 0.13429 0.0
C967 C 0.47206 0.92129 0.09883 0.0
C968 C 0.45105 0.90695 0.15504 0.0
C969 C 0.43459 0.87461 0.14087 0.0
C970 C 0.43978 0.86479 0.10535 0.0
C971 C 0.45846 0.888 0.08445 0.0
H972 H 0.67144 0.21487 0.24081 0.0
H973 H 0.75966 0.19727 0.16934 0.0
H974 H 0.63488 0.17762 0.20167 0.0
H975 H 0.72343 0.16192 0.12916 0.0
H976 H 0.65542 0.07708 0.07223 0.0
H977 H 0.6892 0.11075 0.11522 0.0
H978 H 0.61131 0.16989 0.15264 0.0
H979 H 0.57655 0.13414 0.1108 0.0
C980 C 0.683 0.20328 0.21651 0.0
C981 C 0.71845 0.20887 0.20824 0.0
C982 C 0.66199 0.18202 0.19385 0.0
C983 C 0.67587 0.16633 0.16196 0.0
C984 C 0.71149 0.17254 0.15367 0.0
C985 C 0.73244 0.19314 0.17664 0.0
C986 C 0.64546 0.09713 0.0899 0.0
C987 C 0.61347 0.10313 0.0881 0.0
C988 C 0.66501 0.1168 0.11443 0.0
C989 C 0.65359 0.14378 0.13735 0.0
C990 C 0.62107 0.14925 0.13589 0.0
C991 C 0.60108 0.12887 0.11179 0.0
H992 H 0.68441 0.6794 0.80477 0.0
H993 H 0.77463 0.68134 0.84704 0.0
H994 H 0.65126 0.64179 0.84373 0.0
H995 H 0.74144 0.64334 0.88557 0.0
H996 H 0.65319 0.55026 0.92781 0.0
H997 H 0.6942 0.5788 0.8851 0.0
H998 H 0.64678 0.66562 0.91384 0.0
H999 H 0.60692 0.6381 0.95663 0.0
C1000 C 0.69733 0.67087 0.8215 0.0
C1001 C 0.73194 0.68353 0.82316 0.0
C1002 C 0.67839 0.64953 0.84385 0.0
C1003 C 0.69393 0.64003 0.86768 0.0
C1004 C 0.72902 0.65028 0.86734 0.0
C1005 C 0.74786 0.67208 0.84541 0.0
C1006 C 0.65235 0.57586 0.9257 0.0
C1007 C 0.62664 0.59181 0.94529 0.0
C1008 C 0.67545 0.59193 0.90107 0.0
C1009 C 0.67274 0.62385 0.8957 0.0
C1010 C 0.64873 0.64064 0.91699 0.0
C1011 C 0.62613 0.62494 0.94164 0.0
H1012 H 0.32257 0.62155 0.89794 0.0
H1013 H 0.41961 0.68907 0.88364 0.0
H1014 H 0.33994 0.60345 0.94482 0.0
H1015 H 0.4375 0.67043 0.92928 0.0
H1016 H 0.46554 0.64613 1.01755 0.0
H1017 H 0.43351 0.67047 0.98699 0.0
H1018 H 0.37546 0.57054 0.95544 0.0
H1019 H 0.40616 0.54694 0.9879 0.0
C1020 C 0.34765 0.63246 0.90479 0.0
C1021 C 0.36971 0.65678 0.88709 0.0
C1022 C 0.35765 0.6221 0.93169 0.0
C1023 C 0.39013 0.63554 0.94129 0.0
C1024 C 0.41195 0.66008 0.92357 0.0
C1025 C 0.40182 0.67067 0.89706 0.0
C1026 C 0.44467 0.62977 1.00556 0.0
C1027 C 0.4381 0.59476 1.00534 0.0
C1028 C 0.42676 0.64352 0.98734 0.0
C1029 C 0.40259 0.6224 0.96758 0.0
C1030 C 0.39375 0.58777 0.97025 0.0
C1031 C 0.41118 0.57415 0.98916 0.0
H1032 H 0.37725 0.35929 0.80118 0.0
H1033 H 0.32574 0.31011 0.88598 0.0
H1034 H 0.41214 0.40105 0.83896 0.0
H1035 H 0.36015 0.35233 0.92382 0.0
H1036 H 0.44771 0.42174 0.97821 0.0
H1037 H 0.41695 0.37564 0.94001 0.0
H1038 H 0.40275 0.44822 0.88314 0.0
H1039 H 0.43347 0.49379 0.92066 0.0
C1040 C 0.37343 0.35722 0.82781 0.0
C1041 C 0.34838 0.3314 0.84045 0.0
C1042 C 0.39333 0.38135 0.84957 0.0
C1043 C 0.3887 0.38041 0.88461 0.0
C1044 C 0.36458 0.35381 0.89702 0.0
C1045 C 0.34468 0.32965 0.87525 0.0
C1046 C 0.43766 0.42782 0.95778 0.0
C1047 C 0.44304 0.46156 0.95267 0.0
C1048 C 0.42012 0.40139 0.9358 0.0
C1049 C 0.40759 0.40811 0.90822 0.0
C1050 C 0.41259 0.44191 0.90358 0.0
C1051 C 0.43 0.46817 0.92542 0.0
H1052 H 0.5682 0.37355 0.77176 0.0
H1053 H 0.5397 0.29425 0.83283 0.0
H1054 H 0.52935 0.40428 0.80876 0.0
H1055 H 0.50005 0.32561 0.87063 0.0
H1056 H 0.54535 0.42 0.94873 0.0
H1057 H 0.53077 0.37009 0.90706 0.0
H1058 H 0.49183 0.42858 0.85116 0.0
H1059 H 0.50851 0.47911 0.89209 0.0
C1060 C 0.55219 0.3615 0.79196 0.0
C1061 C 0.55915 0.33289 0.80113 0.0
C1062 C 0.52952 0.3794 0.81356 0.0
C1063 C 0.51393 0.36881 0.84446 0.0
C1064 C 0.51358 0.33547 0.84812 0.0
C1065 C 0.53633 0.31748 0.82643 0.0
C1066 C 0.53354 0.42215 0.92762 0.0
C1067 C 0.52972 0.45371 0.92269 0.0
C1068 C 0.52433 0.39328 0.90398 0.0
C1069 C 0.51073 0.3953 0.87505 0.0
C1070 C 0.50321 0.42625 0.87248 0.0
C1071 C 0.51321 0.45529 0.89568 0.0
H1072 H 0.73758 0.41264 0.13829 0.0
H1073 H 0.63527 0.36759 0.17615 0.0
H1074 H 0.71668 0.42844 0.09199 0.0
H1075 H 0.6144 0.38396 0.13083 0.0
H1076 H 0.5802 0.39758 0.04094 0.0
H1077 H 0.613 0.37298 0.07044 0.0
H1078 H 0.68315 0.46882 0.08554 0.0
H1079 H 0.65074 0.49298 0.05502 0.0
C1080 C 0.7107 0.40585 0.13657 0.0
C1081 C 0.68806 0.38904 0.16108 0.0
C1082 C 0.69872 0.41506 0.11015 0.0
C1083 C 0.66388 0.40729 0.10744 0.0
C1084 C 0.64146 0.38986 0.13162 0.0
C1085 C 0.65336 0.38088 0.15801 0.0
C1086 C 0.60358 0.41285 0.04909 0.0
C1087 C 0.61294 0.44715 0.04566 0.0
C1088 C 0.62209 0.39897 0.06651 0.0
C1089 C 0.65011 0.41921 0.08133 0.0
C1090 C 0.66169 0.45247 0.07453 0.0
C1091 C 0.64328 0.4663 0.05673 0.0
H1092 H 0.71972 0.66319 0.2307 0.0
H1093 H 0.70471 0.74348 0.18486 0.0
H1094 H 0.68685 0.62175 0.19173 0.0
H1095 H 0.66892 0.70216 0.14726 0.0
H1096 H 0.62684 0.61651 0.06471 0.0
H1097 H 0.66265 0.65971 0.10091 0.0
H1098 H 0.63519 0.59711 0.17925 0.0
H1099 H 0.60282 0.55363 0.14245 0.0
C1100 C 0.70857 0.67202 0.21272 0.0
C1101 C 0.71453 0.70661 0.21111 0.0
C1102 C 0.68935 0.64818 0.19032 0.0
C1103 C 0.67433 0.65818 0.16625 0.0
C1104 C 0.6802 0.69307 0.16489 0.0
C1105 C 0.70045 0.71691 0.18673 0.0
C1106 C 0.62896 0.61196 0.08952 0.0
C1107 C 0.61201 0.58134 0.10036 0.0
C1108 C 0.64924 0.63694 0.11058 0.0
C1109 C 0.65252 0.63218 0.14329 0.0
C1110 C 0.6348 0.60173 0.15404 0.0
C1111 C 0.61563 0.57662 0.1328 0.0
H1112 H 0.50257 0.74806 0.21959 0.0
H1113 H 0.50902 0.68264 0.28786 0.0
H1114 H 0.54131 0.72115 0.17668 0.0
H1115 H 0.54388 0.65279 0.24386 0.0
H1116 H 0.54488 0.56942 0.16061 0.0
H1117 H 0.56386 0.6213 0.19817 0.0
H1118 H 0.5171 0.67526 0.14405 0.0
H1119 H 0.50221 0.62419 0.10455 0.0
C1120 C 0.51304 0.72865 0.22606 0.0
C1121 C 0.49984 0.71478 0.25577 0.0
C1122 C 0.53479 0.71253 0.20094 0.0
C1123 C 0.54157 0.6816 0.2049 0.0
C1124 C 0.53691 0.67466 0.23826 0.0
C1125 C 0.5166 0.69188 0.26391 0.0
C1126 C 0.53918 0.59264 0.15662 0.0
C1127 C 0.52127 0.5926 0.13019 0.0
C1128 C 0.55002 0.62259 0.17831 0.0
C1129 C 0.54127 0.65299 0.17552 0.0
C1130 C 0.52489 0.653 0.14765 0.0
C1131 C 0.51542 0.6233 0.12511 0.0
H1132 H 0.3754 0.36186 0.24664 0.0
H1133 H 0.28644 0.34636 0.19732 0.0
H1134 H 0.40556 0.40218 0.20934 0.0
H1135 H 0.31677 0.38623 0.16001 0.0
H1136 H 0.40697 0.41853 0.07266 0.0
H1137 H 0.36793 0.38513 0.11258 0.0
H1138 H 0.40268 0.45987 0.19663 0.0
H1139 H 0.44123 0.49312 0.15672 0.0
C1140 C 0.36219 0.36723 0.22812 0.0
C1141 C 0.32857 0.35077 0.22495 0.0
C1142 C 0.37939 0.3904 0.20687 0.0
C1143 C 0.36344 0.39725 0.18178 0.0
C1144 C 0.3297 0.38125 0.17897 0.0
C1145 C 0.31236 0.35849 0.20049 0.0
C1146 C 0.40512 0.42829 0.09961 0.0
C1147 C 0.42642 0.45849 0.11182 0.0
C1148 C 0.38306 0.4092 0.12244 0.0
C1149 C 0.38262 0.41982 0.15768 0.0
C1150 C 0.40276 0.45097 0.16964 0.0
C1151 C 0.42444 0.47015 0.14688 0.0
H1152 H 0.88517 0.71814 0.75016 0.0
H1153 H 0.80199 0.66764 0.6948 0.0
H1154 H 0.91893 0.67754 0.71869 0.0
H1155 H 0.83448 0.62521 0.66502 0.0
H1156 H 0.91408 0.58311 0.58591 0.0
H1157 H 0.87608 0.61541 0.62294 0.0
H1158 H 0.93424 0.62575 0.70493 0.0
H1159 H 0.97437 0.59492 0.66603 0.0
C1160 C 0.87392 0.698 0.73146 0.0
C1161 C 0.84104 0.69651 0.72459 0.0
C1162 C 0.89322 0.67427 0.71358 0.0
C1163 C 0.87998 0.6477 0.68875 0.0
C1164 C 0.84641 0.64563 0.68296 0.0
C1165 C 0.82748 0.66995 0.7002 0.0
C1166 C 0.91864 0.59181 0.61201 0.0
C1167 C 0.94768 0.58671 0.62276 0.0
C1168 C 0.89639 0.61033 0.63364 0.0
C1169 C 0.90177 0.62401 0.66732 0.0
C1170 C 0.92946 0.6166 0.679 0.0
C1171 C 0.95225 0.59827 0.65691 0.0
H1172 H 0.37506 0.78105 0.67901 0.0
H1173 H 0.31337 0.85679 0.69862 0.0
H1174 H 0.41168 0.80974 0.6344 0.0
H1175 H 0.34984 0.88573 0.65554 0.0
H1176 H 0.40607 0.92879 0.56813 0.0
H1177 H 0.36754 0.8863 0.59821 0.0
H1178 H 0.45335 0.85896 0.62668 0.0
H1179 H 0.49164 0.90008 0.59454 0.0
C1180 C 0.36921 0.8037 0.67373 0.0
C1181 C 0.34097 0.81636 0.69216 0.0
C1182 C 0.39025 0.82023 0.64823 0.0
C1183 C 0.38368 0.84999 0.64086 0.0
C1184 C 0.35533 0.86238 0.65942 0.0
C1185 C 0.33429 0.84576 0.68447 0.0
C1186 C 0.41655 0.91268 0.57974 0.0
C1187 C 0.45167 0.91737 0.57887 0.0
C1188 C 0.39455 0.88869 0.59749 0.0
C1189 C 0.40715 0.8697 0.61584 0.0
C1190 C 0.44254 0.87284 0.61284 0.0
C1191 C 0.46459 0.89636 0.59435 0.0
H1192 H 0.23295 0.42979 0.6399 0.0
H1193 H 0.16279 0.40829 0.72949 0.0
H1194 H 0.19325 0.45721 0.62346 0.0
H1195 H 0.12266 0.43554 0.71264 0.0
H1196 H 0.04849 0.43904 0.63616 0.0
H1197 H 0.08684 0.4229 0.66701 0.0
H1198 H 0.16579 0.50574 0.63798 0.0
H1199 H 0.12753 0.52101 0.60651 0.0
C1200 C 0.20933 0.43146 0.65648 0.0
C1201 C 0.20116 0.41673 0.68603 0.0
C1202 C 0.1865 0.44728 0.64705 0.0
C1203 C 0.1548 0.44877 0.66683 0.0
C1204 C 0.14677 0.43461 0.69672 0.0
C1205 C 0.16973 0.41887 0.70627 0.0
C1206 C 0.07361 0.45455 0.63769 0.0
C1207 C 0.085 0.48162 0.61964 0.0
C1208 C 0.09564 0.44528 0.65521 0.0
C1209 C 0.12955 0.46277 0.6546 0.0
C1210 C 0.14 0.49145 0.63855 0.0
C1211 C 0.11798 0.50061 0.62101 0.0
H1212 H 0.75187 0.19478 0.67707 0.0
H1213 H 0.66557 0.23374 0.73504 0.0
H1214 H 0.71392 0.15271 0.64196 0.0
H1215 H 0.62816 0.19205 0.70016 0.0
H1216 H 0.56868 0.08888 0.66253 0.0
H1217 H 0.61043 0.12891 0.69372 0.0
H1218 H 0.67259 0.14907 0.59955 0.0
H1219 H 0.6306 0.10865 0.56783 0.0
C1220 C 0.72494 0.19453 0.68221 0.0
C1221 C 0.71175 0.21745 0.70905 0.0
C1222 C 0.70328 0.17054 0.66205 0.0
C1223 C 0.6681 0.1689 0.66863 0.0
C1224 C 0.65512 0.19235 0.69489 0.0
C1225 C 0.67665 0.21636 0.71478 0.0
C1226 C 0.59128 0.10157 0.64828 0.0
C1227 C 0.59604 0.09573 0.61259 0.0
C1228 C 0.61515 0.12465 0.66624 0.0
C1229 C 0.6445 0.14242 0.64906 0.0
C1230 C 0.65016 0.13566 0.61341 0.0
C1231 C 0.62607 0.1126 0.59531 0.0
H1232 H 0.84551 0.37898 0.33579 0.0
H1233 H 0.8466 0.28821 0.37317 0.0
H1234 H 0.88665 0.41126 0.37288 0.0
H1235 H 0.88683 0.32056 0.41097 0.0
H1236 H 0.98718 0.38063 0.44635 0.0
H1237 H 0.94431 0.34808 0.41125 0.0
H1238 H 0.89559 0.43396 0.42951 0.0
H1239 H 0.93891 0.46669 0.46355 0.0
C1240 C 0.85414 0.36597 0.35225 0.0
C1241 C 0.8427 0.33093 0.35132 0.0
C1242 C 0.87773 0.38453 0.3737 0.0
C1243 C 0.89038 0.36864 0.39503 0.0
C1244 C 0.87832 0.33369 0.39455 0.0
C1245 C 0.85494 0.31512 0.37297 0.0
C1246 C 0.96721 0.3925 0.44303 0.0
C1247 C 0.9667 0.42637 0.45781 0.0
C1248 C 0.94244 0.37376 0.42297 0.0
C1249 C 0.91632 0.38828 0.41727 0.0
C1250 C 0.91552 0.42197 0.43265 0.0
C1251 C 0.94034 0.44073 0.4525 0.0
H1252 H 0.70667 0.80203 0.3805 0.0
H1253 H 0.69898 0.84502 0.2942 0.0
H1254 H 0.66995 0.83818 0.4169 0.0
H1255 H 0.66236 0.88071 0.33039 0.0
H1256 H 0.6405 0.97072 0.40897 0.0
H1257 H 0.67231 0.92995 0.37533 0.0
H1258 H 0.61087 0.85222 0.42964 0.0
H1259 H 0.57826 0.89363 0.46407 0.0
C1260 C 0.69688 0.81883 0.36914 0.0
C1261 C 0.70615 0.82065 0.3343 0.0
C1262 C 0.67567 0.83948 0.39006 0.0
C1263 C 0.66343 0.86272 0.37676 0.0
C1264 C 0.67173 0.86358 0.34171 0.0
C1265 C 0.69267 0.84288 0.32083 0.0
C1266 C 0.63344 0.94504 0.41412 0.0
C1267 C 0.60631 0.93571 0.43939 0.0
C1268 C 0.65177 0.92146 0.39443 0.0
C1269 C 0.64393 0.88756 0.39923 0.0
C1270 C 0.61758 0.87814 0.42518 0.0
C1271 C 0.59885 0.90189 0.44492 0.0
H1272 H 0.17755 0.72851 0.34907 0.0
H1273 H 0.26008 0.68169 0.35517 0.0
H1274 H 0.13988 0.69223 0.38649 0.0
H1275 H 0.22224 0.64449 0.39131 0.0
H1276 H 0.14995 0.60362 0.48211 0.0
H1277 H 0.1905 0.63965 0.44555 0.0
H1278 H 0.11141 0.63605 0.38627 0.0
H1279 H 0.07128 0.60174 0.42356 0.0
C1280 C 0.18763 0.71041 0.35828 0.0
C1281 C 0.22184 0.70808 0.34905 0.0
C1282 C 0.16597 0.68932 0.37957 0.0
C1283 C 0.17781 0.66499 0.3918 0.0
C1284 C 0.21218 0.66305 0.38285 0.0
C1285 C 0.2339 0.68438 0.36189 0.0
C1286 C 0.14166 0.61021 0.46087 0.0
C1287 C 0.10764 0.6 0.45553 0.0
C1288 C 0.16474 0.63091 0.43994 0.0
C1289 C 0.15419 0.64141 0.41316 0.0
C1290 C 0.12039 0.62953 0.40712 0.0
C1291 C 0.09743 0.60942 0.4282 0.0
H1292 H 0.3966 0.15463 0.35617 0.0
H1293 H 0.4058 0.22301 0.45125 0.0
H1294 H 0.42104 0.11492 0.37644 0.0
H1295 H 0.4315 0.18382 0.47104 0.0
H1296 H 0.45304 0.09411 0.50808 0.0
H1297 H 0.42161 0.12918 0.48911 0.0
H1298 H 0.4751 0.11011 0.38769 0.0
H1299 H 0.5059 0.07481 0.40638 0.0
C1300 C 0.4036 0.16117 0.38151 0.0
C1301 C 0.3992 0.19224 0.40196 0.0
C1302 C 0.41802 0.13848 0.39303 0.0
C1303 C 0.42849 0.14608 0.42539 0.0
C1304 C 0.42351 0.17685 0.44611 0.0
C1305 C 0.40914 0.1996 0.43455 0.0
C1306 C 0.45775 0.097 0.48163 0.0
C1307 C 0.48215 0.08155 0.45885 0.0
C1308 C 0.43992 0.11741 0.47079 0.0
C1309 C 0.44584 0.12274 0.43683 0.0
C1310 C 0.46947 0.1064 0.41391 0.0
C1311 C 0.48734 0.08618 0.42474 0.0
H1312 H 0.662 0.82323 0.60188 0.0
H1313 H 0.66534 0.8903 0.69829 0.0
H1314 H 0.63658 0.86184 0.58097 0.0
H1315 H 0.64149 0.92959 0.67686 0.0
H1316 H 0.55871 0.96927 0.64381 0.0
H1317 H 0.58885 0.93413 0.66338 0.0
H1318 H 0.64506 0.91601 0.56313 0.0
H1319 H 0.61398 0.95079 0.54314 0.0
C1320 C 0.65743 0.84621 0.61866 0.0
C1321 C 0.66562 0.8533 0.65198 0.0
C1322 C 0.64324 0.86869 0.60644 0.0
C1323 C 0.63677 0.89899 0.62714 0.0
C1324 C 0.64559 0.90638 0.66021 0.0
C1325 C 0.65973 0.88391 0.67243 0.0
C1326 C 0.57769 0.95812 0.62585 0.0
C1327 C 0.58376 0.96301 0.59178 0.0
C1328 C 0.59523 0.93799 0.63722 0.0
C1329 C 0.61954 0.92201 0.61496 0.0
C1330 C 0.62625 0.9275 0.58099 0.0
C1331 C 0.60865 0.94778 0.56957 0.0
H1332 H 0.67057 0.24868 0.35547 0.0
H1333 H 0.76119 0.23182 0.3837 0.0
H1334 H 0.63605 0.21725 0.39917 0.0
H1335 H 0.72738 0.20245 0.42863 0.0
H1336 H 0.65919 0.10363 0.45442 0.0
H1337 H 0.69454 0.14836 0.42635 0.0
H1338 H 0.61573 0.20702 0.45623 0.0
H1339 H 0.57944 0.16082 0.4837 0.0
C1340 C 0.68308 0.2393 0.37193 0.0
C1341 C 0.71839 0.24233 0.36618 0.0
C1342 C 0.66337 0.22136 0.39707 0.0
C1343 C 0.67877 0.20657 0.41715 0.0
C1344 C 0.71443 0.21247 0.4131 0.0
C1345 C 0.73392 0.2296 0.38757 0.0
C1346 C 0.64955 0.12633 0.45567 0.0
C1347 C 0.61641 0.12853 0.47112 0.0
C1348 C 0.67003 0.15231 0.4397 0.0
C1349 C 0.65815 0.18156 0.43875 0.0
C1350 C 0.62563 0.18473 0.45604 0.0
C1351 C 0.60498 0.15849 0.4722 0.0
H1352 H 0.82931 0.57665 0.3642 0.0
H1353 H 0.90965 0.66496 0.35877 0.0
H1354 H 0.86792 0.54687 0.37951 0.0
H1355 H 0.94775 0.63574 0.37572 0.0
H1356 H 1.01552 0.57495 0.39823 0.0
H1357 H 0.97962 0.59019 0.36364 0.0
H1358 H 0.8908 0.5535 0.43154 0.0
H1359 H 0.92653 0.53828 0.46536 0.0
C1360 C 0.85532 0.58959 0.36576 0.0
C1361 C 0.86618 0.62342 0.36071 0.0
C1362 C 0.87741 0.57256 0.3748 0.0
C1363 C 0.91088 0.58897 0.37917 0.0
C1364 C 0.92227 0.62217 0.37232 0.0
C1365 C 0.90021 0.63916 0.36316 0.0
C1366 C 0.98824 0.56905 0.40478 0.0
C1367 C 0.97363 0.55546 0.43428 0.0
C1368 C 0.9677 0.5781 0.38532 0.0
C1369 C 0.93232 0.57342 0.39501 0.0
C1370 C 0.91781 0.55721 0.42303 0.0
C1371 C 0.93826 0.54852 0.44252 0.0
H1372 H 0.39139 0.83962 0.29951 0.0
H1373 H 0.31641 0.83377 0.38848 0.0
H1374 H 0.43055 0.88096 0.33256 0.0
H1375 H 0.35664 0.87348 0.42277 0.0
H1376 H 0.42979 0.96573 0.47083 0.0
H1377 H 0.38694 0.92791 0.43831 0.0
H1378 H 0.46615 0.8846 0.37062 0.0
H1379 H 0.5084 0.92393 0.4015 0.0
C1380 C 0.38351 0.84702 0.3264 0.0
C1381 C 0.35108 0.83339 0.34158 0.0
C1382 C 0.40609 0.87053 0.34555 0.0
C1383 C 0.39731 0.88023 0.38073 0.0
C1384 C 0.36439 0.86698 0.39578 0.0
C1385 C 0.34134 0.84407 0.37626 0.0
C1386 C 0.43776 0.94813 0.44884 0.0
C1387 C 0.47231 0.94801 0.43829 0.0
C1388 C 0.41326 0.92627 0.43028 0.0
C1389 C 0.42287 0.90331 0.40132 0.0
C1390 C 0.45757 0.90262 0.39184 0.0
C1391 C 0.48192 0.925 0.40974 0.0
H1392 H 0.26337 0.38093 0.3493 0.0
H1393 H 0.17275 0.31201 0.31988 0.0
H1394 H 0.22964 0.42311 0.37724 0.0
H1395 H 0.13892 0.35346 0.34876 0.0
H1396 H 0.083 0.43807 0.38944 0.0
H1397 H 0.1221 0.4054 0.35128 0.0
H1398 H 0.19134 0.43415 0.42584 0.0
H1399 H 0.15315 0.46725 0.46271 0.0
C1400 C 0.23624 0.37463 0.34899 0.0
C1401 C 0.22089 0.34282 0.33253 0.0
C1402 C 0.21676 0.39887 0.36508 0.0
C1403 C 0.18128 0.39196 0.36549 0.0
C1404 C 0.16611 0.36023 0.34862 0.0
C1405 C 0.18559 0.33615 0.33232 0.0
C1406 C 0.1072 0.43839 0.39692 0.0
C1407 C 0.11499 0.45532 0.42905 0.0
C1408 C 0.12942 0.41914 0.37537 0.0
C1409 C 0.15989 0.41647 0.38552 0.0
C1410 C 0.16851 0.43555 0.41669 0.0
C1411 C 0.14646 0.45462 0.43802 0.0
H1412 H 0.36582 0.2473 0.67771 0.0
H1413 H 0.34691 0.18108 0.75187 0.0
H1414 H 0.40533 0.21401 0.64206 0.0
H1415 H 0.38441 0.14673 0.71579 0.0
H1416 H 0.47211 0.10221 0.66111 0.0
H1417 H 0.43838 0.14116 0.69585 0.0
H1418 H 0.41421 0.16497 0.60511 0.0
H1419 H 0.45041 0.12727 0.57037 0.0
C1420 C 0.37001 0.22556 0.68639 0.0
C1421 C 0.35334 0.21717 0.71792 0.0
C1422 C 0.39254 0.20617 0.66573 0.0
C1423 C 0.39869 0.17743 0.67572 0.0
C1424 C 0.38156 0.16904 0.70722 0.0
C1425 C 0.35963 0.18874 0.72806 0.0
C1426 C 0.45987 0.11609 0.64859 0.0
C1427 C 0.46382 0.11154 0.61301 0.0
C1428 C 0.44002 0.13826 0.66858 0.0
C1429 C 0.42247 0.15603 0.65371 0.0
C1430 C 0.42728 0.15215 0.61785 0.0
C1431 C 0.44798 0.13041 0.59776 0.0
H1432 H 0.88277 0.31583 0.70293 0.0
H1433 H 0.80298 0.3691 0.7038 0.0
H1434 H 0.91956 0.34981 0.66264 0.0
H1435 H 0.83961 0.40272 0.66354 0.0
H1436 H 0.9328 0.48048 0.62017 0.0
H1437 H 0.89216 0.44737 0.65918 0.0
H1438 H 0.92248 0.35584 0.60284 0.0
H1439 H 0.96269 0.38853 0.56421 0.0
C1440 C 0.87304 0.33469 0.69456 0.0
C1441 C 0.83983 0.3395 0.70653 0.0
C1442 C 0.89405 0.35408 0.67133 0.0
C1443 C 0.88244 0.37892 0.65974 0.0
C1444 C 0.84942 0.38402 0.67209 0.0
C1445 C 0.82836 0.36448 0.69504 0.0
C1446 C 0.93018 0.45322 0.61572 0.0
C1447 C 0.95123 0.43724 0.58925 0.0
C1448 C 0.90706 0.43425 0.63815 0.0
C1449 C 0.90465 0.39902 0.63454 0.0
C1450 C 0.92434 0.38299 0.60691 0.0
C1451 C 0.94721 0.40178 0.58458 0.0
H1452 H 0.17617 0.74408 0.72146 0.0
H1453 H 0.25075 0.68313 0.67586 0.0
H1454 H 0.13776 0.71094 0.68253 0.0
H1455 H 0.21228 0.65022 0.636 0.0
H1456 H 0.11813 0.5747 0.59932 0.0
H1457 H 0.16031 0.60908 0.63396 0.0
H1458 H 0.12733 0.69903 0.6251 0.0
H1459 H 0.08437 0.66439 0.59117 0.0
C1460 C 0.18459 0.72374 0.70294 0.0
C1461 C 0.21671 0.71631 0.70203 0.0
C1462 C 0.16251 0.70482 0.68029 0.0
C1463 C 0.17177 0.67785 0.65585 0.0
C1464 C 0.20403 0.67054 0.65467 0.0
C1465 C 0.22622 0.68954 0.67745 0.0
C1466 C 0.11992 0.60182 0.60456 0.0
C1467 C 0.0975 0.61661 0.59256 0.0
C1468 C 0.14439 0.62165 0.62432 0.0
C1469 C 0.1473 0.65695 0.63264 0.0
C1470 C 0.12553 0.67188 0.61979 0.0
C1471 C 0.10096 0.652 0.60008 0.0
loop_
_geom_bond_atom_site_label_1
_geom_bond_atom_site_label_2
_geom_bond_distance
_geom_bond_site_symmetry_2
_ccdc_geom_bond_type
Eu0 C9 2.828 . S
Eu0 O11 2.392 . S
Eu0 O13 2.418 . S
Eu0 O18 2.373 . S
Eu0 O21 2.488 . S
Eu0 O22 2.471 . S
Eu0 O23 2.349 . S
Eu1 O10 2.373 . S
Eu1 O14 2.488 . S
Eu1 O15 2.471 . S
Eu1 O16 2.349 . S
Eu1 O19 2.392 . S
Eu1 O20 2.418 . S
Eu1 C30 2.828 . S
C2 O20 1.244 . S
C2 O23 1.265 . S
C3 C4 1.379 . S
C3 C7 1.373 . S
C3 C9 1.505 . S
C4 C3 1.379 . S
C4 C6 1.369 . S
C4 H32 0.930 . S
C5 C7 1.383 . S
C5 C8 1.382 . S
C5 H33 0.930 . S
C6 C4 1.369 . S
C6 C8 1.392 . S
C6 H34 0.930 . S
C7 C3 1.373 . S
C7 C5 1.383 . S
C7 H35 0.931 . S
C8 C5 1.382 . S
C8 C6 1.392 . S
C9 Eu0 2.828 . S
C9 C3 1.505 . S
C9 O21 1.249 . S
C9 O22 1.244 . S
O10 Eu1 2.373 . S
O10 C12 1.258 . S
O11 Eu0 2.392 . S
O11 C12 1.242 . S
C12 O10 1.258 . S
C12 O11 1.242 . S
O13 Eu0 2.418 . S
O13 C17 1.244 . S
O14 Eu1 2.488 . S
O14 C30 1.249 . S
O15 Eu1 2.471 . S
O15 C30 1.244 . S
O16 Eu1 2.349 . S
O16 C17 1.265 . S
C17 O13 1.244 . S
C17 O16 1.265 . S
O18 Eu0 2.373 . S
O18 C31 1.258 . S
O19 Eu1 2.392 . S
O19 C31 1.242 . S
O20 Eu1 2.418 . S
O20 C2 1.244 . S
O21 Eu0 2.488 . S
O21 C9 1.249 . S
O22 Eu0 2.471 . S
O22 C9 1.244 . S
O23 Eu0 2.349 . S
O23 C2 1.265 . S
C24 C25 1.379 . S
C24 C28 1.373 . S
C24 C30 1.505 . S
C25 C24 1.379 . S
C25 C27 1.369 . S
C25 H36 0.930 . S
C26 C28 1.383 . S
C26 C29 1.382 . S
C26 H37 0.930 . S
C27 C25 1.369 . S
C27 C29 1.392 . S
C27 H38 0.930 . S
C28 C24 1.373 . S
C28 C26 1.383 . S
C28 H39 0.931 . S
C29 C26 1.382 . S
C29 C27 1.392 . S
C30 Eu1 2.828 . S
C30 O14 1.249 . S
C30 O15 1.244 . S
C30 C24 1.505 . S
C31 O18 1.258 . S
C31 O19 1.242 . S
H32 C4 0.930 . S
H33 C5 0.930 . S
H34 C6 0.930 . S
H35 C7 0.931 . S
H36 C25 0.930 . S
H37 C26 0.930 . S
H38 C27 0.930 . S
H39 C28 0.931 . S
Eu40 C49 2.828 . S
Eu40 O51 2.392 . S
Eu40 O53 2.418 . S
Eu40 O58 2.373 . S
Eu40 O61 2.488 . S
Eu40 O62 2.471 . S
Eu40 O63 2.349 . S
Eu41 O50 2.373 . S
Eu41 O54 2.488 . S
Eu41 O55 2.471 . S
Eu41 O56 2.349 . S
Eu41 O59 2.392 . S
Eu41 O60 2.418 . S
Eu41 C70 2.828 . S
C42 O60 1.244 . S
C42 O63 1.265 . S
C43 C44 1.379 . S
C43 C47 1.373 . S
C43 C49 1.505 . S
C44 C43 1.379 . S
C44 C46 1.369 . S
C44 H72 0.930 . S
C45 C47 1.383 . S
C45 C48 1.382 . S
C45 H73 0.930 . S
C46 C44 1.369 . S
C46 C48 1.392 . S
C46 H74 0.930 . S
C47 C43 1.373 . S
C47 C45 1.383 . S
C47 H75 0.931 . S
C48 C45 1.382 . S
C48 C46 1.392 . S
C49 Eu40 2.828 . S
C49 C43 1.505 . S
C49 O61 1.249 . S
C49 O62 1.244 . S
O50 Eu41 2.373 . S
O50 C52 1.258 . S
O51 Eu40 2.392 . S
O51 C52 1.242 . S
C52 O50 1.258 . S
C52 O51 1.242 . S
O53 Eu40 2.418 . S
O53 C57 1.244 . S
O54 Eu41 2.488 . S
O54 C70 1.249 . S
O55 Eu41 2.471 . S
O55 C70 1.244 . S
O56 Eu41 2.349 . S
O56 C57 1.265 . S
C57 O53 1.244 . S
C57 O56 1.265 . S
O58 Eu40 2.373 . S
O58 C71 1.258 . S
O59 Eu41 2.392 . S
O59 C71 1.242 . S
O60 Eu41 2.418 . S
O60 C42 1.244 . S
O61 Eu40 2.488 . S
O61 C49 1.249 . S
O62 Eu40 2.471 . S
O62 C49 1.244 . S
O63 Eu40 2.349 . S
O63 C42 1.265 . S
C64 C65 1.379 . S
C64 C68 1.373 . S
C64 C70 1.505 . S
C65 C64 1.379 . S
C65 C67 1.369 . S
C65 H76 0.930 . S
C66 C68 1.383 . S
C66 C69 1.382 . S
C66 H77 0.930 . S
C67 C65 1.369 . S
C67 C69 1.392 . S
C67 H78 0.930 . S
C68 C64 1.373 . S
C68 C66 1.383 . S
C68 H79 0.931 . S
C69 C66 1.382 . S
C69 C67 1.392 . S
C70 Eu41 2.828 . S
C70 O54 1.249 . S
C70 O55 1.244 . S
C70 C64 1.505 . S
C71 O58 1.258 . S
C71 O59 1.242 . S
H72 C44 0.930 . S
H73 C45 0.930 . S
H74 C46 0.930 . S
H75 C47 0.931 . S
H76 C65 0.930 . S
H77 C66 0.930 . S
H78 C67 0.930 . S
H79 C68 0.931 . S
Eu80 C89 2.828 . S
Eu80 O91 2.392 . S
Eu80 O93 2.418 . S
Eu80 O98 2.373 . S
Eu80 O101 2.488 . S
Eu80 O102 2.471 . S
Eu80 O103 2.349 . S
Eu81 O90 2.373 . S
Eu81 O94 2.488 . S
Eu81 O95 2.471 . S
Eu81 O96 2.349 . S
Eu81 O99 2.392 . S
Eu81 O100 2.418 . S
Eu81 C110 2.828 . S
C82 O100 1.244 . S
C82 O103 1.265 . S
C83 C84 1.379 . S
C83 C87 1.373 . S
C83 C89 1.505 . S
C84 C83 1.379 . S
C84 C86 1.369 . S
C84 H112 0.930 . S
C85 C87 1.383 . S
C85 C88 1.382 . S
C85 H113 0.930 . S
C86 C84 1.369 . S
C86 C88 1.392 . S
C86 H114 0.930 . S
C87 C83 1.373 . S
C87 C85 1.383 . S
C87 H115 0.931 . S
C88 C85 1.382 . S
C88 C86 1.392 . S
C89 Eu80 2.828 . S
C89 C83 1.505 . S
C89 O101 1.249 . S
C89 O102 1.244 . S
O90 Eu81 2.373 . S
O90 C92 1.258 . S
O91 Eu80 2.392 . S
O91 C92 1.242 . S
C92 O90 1.258 . S
C92 O91 1.242 . S
O93 Eu80 2.418 . S
O93 C97 1.244 . S
O94 Eu81 2.488 . S
O94 C110 1.249 . S
O95 Eu81 2.471 . S
O95 C110 1.244 . S
O96 Eu81 2.349 . S
O96 C97 1.265 . S
C97 O93 1.244 . S
C97 O96 1.265 . S
O98 Eu80 2.373 . S
O98 C111 1.258 . S
O99 Eu81 2.392 . S
O99 C111 1.242 . S
O100 Eu81 2.418 . S
O100 C82 1.244 . S
O101 Eu80 2.488 . S
O101 C89 1.249 . S
O102 Eu80 2.471 . S
O102 C89 1.244 . S
O103 Eu80 2.349 . S
O103 C82 1.265 . S
C104 C105 1.379 . S
C104 C108 1.373 . S
C104 C110 1.505 . S
C105 C104 1.379 . S
C105 C107 1.369 . S
C105 H116 0.930 . S
C106 C108 1.383 . S
C106 C109 1.382 . S
C106 H117 0.930 . S
C107 C105 1.369 . S
C107 C109 1.392 . S
C107 H118 0.930 . S
C108 C104 1.373 . S
C108 C106 1.383 . S
C108 H119 0.931 . S
C109 C106 1.382 . S
C109 C107 1.392 . S
C110 Eu81 2.828 . S
C110 O94 1.249 . S
C110 O95 1.244 . S
C110 C104 1.505 . S
C111 O98 1.258 . S
C111 O99 1.242 . S
H112 C84 0.930 . S
H113 C85 0.930 . S
H114 C86 0.930 . S
H115 C87 0.931 . S
H116 C105 0.930 . S
H117 C106 0.930 . S
H118 C107 0.930 . S
H119 C108 0.931 . S
Eu120 C129 2.828 . S
Eu120 O131 2.392 . S
Eu120 O133 2.418 . S
Eu120 O138 2.373 . S
Eu120 O141 2.488 . S
Eu120 O142 2.471 . S
Eu120 O143 2.349 . S
Eu121 O130 2.373 . S
Eu121 O134 2.488 . S
Eu121 O135 2.471 . S
Eu121 O136 2.349 . S
Eu121 O139 2.392 . S
Eu121 O140 2.418 . S
Eu121 C150 2.828 . S
C122 O140 1.244 . S
C122 O143 1.265 . S
C123 C124 1.379 . S
C123 C127 1.373 . S
C123 C129 1.505 . S
C124 C123 1.379 . S
C124 C126 1.369 . S
C124 H152 0.930 . S
C125 C127 1.383 . S
C125 C128 1.382 . S
C125 H153 0.930 . S
C126 C124 1.369 . S
C126 C128 1.392 . S
C126 H154 0.930 . S
C127 C123 1.373 . S
C127 C125 1.383 . S
C127 H155 0.931 . S
C128 C125 1.382 . S
C128 C126 1.392 . S
C129 Eu120 2.828 . S
C129 C123 1.505 . S
C129 O141 1.249 . S
C129 O142 1.244 . S
O130 Eu121 2.373 . S
O130 C132 1.258 . S
O131 Eu120 2.392 . S
O131 C132 1.242 . S
C132 O130 1.258 . S
C132 O131 1.242 . S
O133 Eu120 2.418 . S
O133 C137 1.244 . S
O134 Eu121 2.488 . S
O134 C150 1.249 . S
O135 Eu121 2.471 . S
O135 C150 1.244 . S
O136 Eu121 2.349 . S
O136 C137 1.265 . S
C137 O133 1.244 . S
C137 O136 1.265 . S
O138 Eu120 2.373 . S
O138 C151 1.258 . S
O139 Eu121 2.392 . S
O139 C151 1.242 . S
O140 Eu121 2.418 . S
O140 C122 1.244 . S
O141 Eu120 2.488 . S
O141 C129 1.249 . S
O142 Eu120 2.471 . S
O142 C129 1.244 . S
O143 Eu120 2.349 . S
O143 C122 1.265 . S
C144 C145 1.379 . S
C144 C148 1.373 . S
C144 C150 1.505 . S
C145 C144 1.379 . S
C145 C147 1.369 . S
C145 H156 0.930 . S
C146 C148 1.383 . S
C146 C149 1.382 . S
C146 H157 0.930 . S
C147 C145 1.369 . S
C147 C149 1.392 . S
C147 H158 0.930 . S
C148 C144 1.373 . S
C148 C146 1.383 . S
C148 H159 0.931 . S
C149 C146 1.382 . S
C149 C147 1.392 . S
C150 Eu121 2.828 . S
C150 O134 1.249 . S
C150 O135 1.244 . S
C150 C144 1.505 . S
C151 O138 1.258 . S
C151 O139 1.242 . S
H152 C124 0.930 . S
H153 C125 0.930 . S
H154 C126 0.930 . S
H155 C127 0.931 . S
H156 C145 0.930 . S
H157 C146 0.930 . S
H158 C147 0.930 . S
H159 C148 0.931 . S
Eu160 C169 2.828 . S
Eu160 O171 2.392 . S
Eu160 O173 2.418 . S
Eu160 O178 2.373 . S
Eu160 O181 2.488 . S
Eu160 O182 2.471 . S
Eu160 O183 2.349 . S
Eu161 O170 2.373 . S
Eu161 O174 2.488 . S
Eu161 O175 2.471 . S
Eu161 O176 2.349 . S
Eu161 O179 2.392 . S
Eu161 O180 2.418 . S
Eu161 C190 2.828 . S
C162 O180 1.244 . S
C162 O183 1.265 . S
C163 C164 1.379 . S
C163 C167 1.373 . S
C163 C169 1.505 . S
C164 C163 1.379 . S
C164 C166 1.369 . S
C164 H192 0.930 . S
C165 C167 1.383 . S
C165 C168 1.382 . S
C165 H193 0.930 . S
C166 C164 1.369 . S
C166 C168 1.392 . S
C166 H194 0.930 . S
C167 C163 1.373 . S
C167 C165 1.383 . S
C167 H195 0.931 . S
C168 C165 1.382 . S
C168 C166 1.392 . S
C169 Eu160 2.828 . S
C169 C163 1.505 . S
C169 O181 1.249 . S
C169 O182 1.244 . S
O170 Eu161 2.373 . S
O170 C172 1.258 . S
O171 Eu160 2.392 . S
O171 C172 1.242 . S
C172 O170 1.258 . S
C172 O171 1.242 . S
O173 Eu160 2.418 . S
O173 C177 1.244 . S
O174 Eu161 2.488 . S
O174 C190 1.249 . S
O175 Eu161 2.471 . S
O175 C190 1.244 . S
O176 Eu161 2.349 . S
O176 C177 1.265 . S
C177 O173 1.244 . S
C177 O176 1.265 . S
O178 Eu160 2.373 . S
O178 C191 1.258 . S
O179 Eu161 2.392 . S
O179 C191 1.242 . S
O180 Eu161 2.418 . S
O180 C162 1.244 . S
O181 Eu160 2.488 . S
O181 C169 1.249 . S
O182 Eu160 2.471 . S
O182 C169 1.244 . S
O183 Eu160 2.349 . S
O183 C162 1.265 . S
C184 C185 1.379 . S
C184 C188 1.373 . S
C184 C190 1.505 . S
C185 C184 1.379 . S
C185 C187 1.369 . S
C185 H196 0.930 . S
C186 C188 1.383 . S
C186 C189 1.382 . S
C186 H197 0.930 . S
C187 C185 1.369 . S
C187 C189 1.392 . S
C187 H198 0.930 . S
C188 C184 1.373 . S
C188 C186 1.383 . S
C188 H199 0.931 . S
C189 C186 1.382 . S
C189 C187 1.392 . S
C190 Eu161 2.828 . S
C190 O174 1.249 . S
C190 O175 1.244 . S
C190 C184 1.505 . S
C191 O178 1.258 . S
C191 O179 1.242 . S
H192 C164 0.930 . S
H193 C165 0.930 . S
H194 C166 0.930 . S
H195 C167 0.931 . S
H196 C185 0.930 . S
H197 C186 0.930 . S
H198 C187 0.930 . S
H199 C188 0.931 . S
Eu200 C209 2.828 . S
Eu200 O211 2.392 . S
Eu200 O213 2.418 . S
Eu200 O218 2.373 . S
Eu200 O221 2.488 . S
Eu200 O222 2.471 . S
Eu200 O223 2.349 . S
Eu201 O210 2.373 . S
Eu201 O214 2.488 . S
Eu201 O215 2.471 . S
Eu201 O216 2.349 . S
Eu201 O219 2.392 . S
Eu201 O220 2.418 . S
Eu201 C230 2.828 . S
C202 O220 1.244 . S
C202 O223 1.265 . S
C203 C204 1.379 . S
C203 C207 1.373 . S
C203 C209 1.505 . S
C204 C203 1.379 . S
C204 C206 1.369 . S
C204 H232 0.930 . S
C205 C207 1.383 . S
C205 C208 1.382 . S
C205 H233 0.930 . S
C206 C204 1.369 . S
C206 C208 1.392 . S
C206 H234 0.930 . S
C207 C203 1.373 . S
C207 C205 1.383 . S
C207 H235 0.931 . S
C208 C205 1.382 . S
C208 C206 1.392 . S
C209 Eu200 2.828 . S
C209 C203 1.505 . S
C209 O221 1.249 . S
C209 O222 1.244 . S
O210 Eu201 2.373 . S
O210 C212 1.258 . S
O211 Eu200 2.392 . S
O211 C212 1.242 . S
C212 O210 1.258 . S
C212 O211 1.242 . S
O213 Eu200 2.418 . S
O213 C217 1.244 . S
O214 Eu201 2.488 . S
O214 C230 1.249 . S
O215 Eu201 2.471 . S
O215 C230 1.244 . S
O216 Eu201 2.349 . S
O216 C217 1.265 . S
C217 O213 1.244 . S
C217 O216 1.265 . S
O218 Eu200 2.373 . S
O218 C231 1.258 . S
O219 Eu201 2.392 . S
O219 C231 1.242 . S
O220 Eu201 2.418 . S
O220 C202 1.244 . S
O221 Eu200 2.488 . S
O221 C209 1.249 . S
O222 Eu200 2.471 . S
O222 C209 1.244 . S
O223 Eu200 2.349 . S
O223 C202 1.265 . S
C224 C225 1.379 . S
C224 C228 1.373 . S
C224 C230 1.505 . S
C225 C224 1.379 . S
C225 C227 1.369 . S
C225 H236 0.930 . S
C226 C228 1.383 . S
C226 C229 1.382 . S
C226 H237 0.930 . S
C227 C225 1.369 . S
C227 C229 1.392 . S
C227 H238 0.930 . S
C228 C224 1.373 . S
C228 C226 1.383 . S
C228 H239 0.931 . S
C229 C226 1.382 . S
C229 C227 1.392 . S
C230 Eu201 2.828 . S
C230 O214 1.249 . S
C230 O215 1.244 . S
C230 C224 1.505 . S
C231 O218 1.258 . S
C231 O219 1.242 . S
H232 C204 0.930 . S
H233 C205 0.930 . S
H234 C206 0.930 . S
H235 C207 0.931 . S
H236 C225 0.930 . S
H237 C226 0.930 . S
H238 C227 0.930 . S
H239 C228 0.931 . S
Eu240 C249 2.828 . S
Eu240 O251 2.392 . S
Eu240 O253 2.418 . S
Eu240 O258 2.373 . S
Eu240 O261 2.488 . S
Eu240 O262 2.471 . S
Eu240 O263 2.349 . S
Eu241 O250 2.373 . S
Eu241 O254 2.488 . S
Eu241 O255 2.471 . S
Eu241 O256 2.349 . S
Eu241 O259 2.392 . S
Eu241 O260 2.418 . S
Eu241 C270 2.828 . S
C242 O260 1.244 . S
C242 O263 1.265 . S
C243 C244 1.379 . S
C243 C247 1.373 . S
C243 C249 1.505 . S
C244 C243 1.379 . S
C244 C246 1.369 . S
C244 H272 0.930 . S
C245 C247 1.383 . S
C245 C248 1.382 . S
C245 H273 0.930 . S
C246 C244 1.369 . S
C246 C248 1.392 . S
C246 H274 0.930 . S
C247 C243 1.373 . S
C247 C245 1.383 . S
C247 H275 0.931 . S
C248 C245 1.382 . S
C248 C246 1.392 . S
C249 Eu240 2.828 . S
C249 C243 1.505 . S
C249 O261 1.249 . S
C249 O262 1.244 . S
O250 Eu241 2.373 . S
O250 C252 1.258 . S
O251 Eu240 2.392 . S
O251 C252 1.242 . S
C252 O250 1.258 . S
C252 O251 1.242 . S
O253 Eu240 2.418 . S
O253 C257 1.244 . S
O254 Eu241 2.488 . S
O254 C270 1.249 . S
O255 Eu241 2.471 . S
O255 C270 1.244 . S
O256 Eu241 2.349 . S
O256 C257 1.265 . S
C257 O253 1.244 . S
C257 O256 1.265 . S
O258 Eu240 2.373 . S
O258 C271 1.258 . S
O259 Eu241 2.392 . S
O259 C271 1.242 . S
O260 Eu241 2.418 . S
O260 C242 1.244 . S
O261 Eu240 2.488 . S
O261 C249 1.249 . S
O262 Eu240 2.471 . S
O262 C249 1.244 . S
O263 Eu240 2.349 . S
O263 C242 1.265 . S
C264 C265 1.379 . S
C264 C268 1.373 . S
C264 C270 1.505 . S
C265 C264 1.379 . S
C265 C267 1.369 . S
C265 H276 0.930 . S
C266 C268 1.383 . S
C266 C269 1.382 . S
C266 H277 0.930 . S
C267 C265 1.369 . S
C267 C269 1.392 . S
C267 H278 0.930 . S
C268 C264 1.373 . S
C268 C266 1.383 . S
C268 H279 0.931 . S
C269 C266 1.382 . S
C269 C267 1.392 . S
C270 Eu241 2.828 . S
C270 O254 1.249 . S
C270 O255 1.244 . S
C270 C264 1.505 . S
C271 O258 1.258 . S
C271 O259 1.242 . S
H272 C244 0.930 . S
H273 C245 0.930 . S
H274 C246 0.930 . S
H275 C247 0.931 . S
H276 C265 0.930 . S
H277 C266 0.930 . S
H278 C267 0.930 . S
H279 C268 0.931 . S
Eu280 C289 2.828 . S
Eu280 O291 2.392 . S
Eu280 O293 2.418 . S
Eu280 O298 2.373 . S
Eu280 O301 2.488 . S
Eu280 O302 2.471 . S
Eu280 O303 2.349 . S
Eu281 O290 2.373 . S
Eu281 O294 2.488 . S
Eu281 O295 2.471 . S
Eu281 O296 2.349 . S
Eu281 O299 2.392 . S
Eu281 O300 2.418 . S
Eu281 C310 2.828 . S
C282 O300 1.244 . S
C282 O303 1.265 . S
C283 C284 1.379 . S
C283 C287 1.373 . S
C283 C289 1.505 . S
C284 C283 1.379 . S
C284 C286 1.369 . S
C284 H312 0.930 . S
C285 C287 1.383 . S
C285 C288 1.382 . S
C285 H313 0.930 . S
C286 C284 1.369 . S
C286 C288 1.392 . S
C286 H314 0.930 . S
C287 C283 1.373 . S
C287 C285 1.383 . S
C287 H315 0.931 . S
C288 C285 1.382 . S
C288 C286 1.392 . S
C289 Eu280 2.828 . S
C289 C283 1.505 . S
C289 O301 1.249 . S
C289 O302 1.244 . S
O290 Eu281 2.373 . S
O290 C292 1.258 . S
O291 Eu280 2.392 . S
O291 C292 1.242 . S
C292 O290 1.258 . S
C292 O291 1.242 . S
O293 Eu280 2.418 . S
O293 C297 1.244 . S
O294 Eu281 2.488 . S
O294 C310 1.249 . S
O295 Eu281 2.471 . S
O295 C310 1.244 . S
O296 Eu281 2.349 . S
O296 C297 1.265 . S
C297 O293 1.244 . S
C297 O296 1.265 . S
O298 Eu280 2.373 . S
O298 C311 1.258 . S
O299 Eu281 2.392 . S
O299 C311 1.242 . S
O300 Eu281 2.418 . S
O300 C282 1.244 . S
O301 Eu280 2.488 . S
O301 C289 1.249 . S
O302 Eu280 2.471 . S
O302 C289 1.244 . S
O303 Eu280 2.349 . S
O303 C282 1.265 . S
C304 C305 1.379 . S
C304 C308 1.373 . S
C304 C310 1.505 . S
C305 C304 1.379 . S
C305 C307 1.369 . S
C305 H316 0.930 . S
C306 C308 1.383 . S
C306 C309 1.382 . S
C306 H317 0.930 . S
C307 C305 1.369 . S
C307 C309 1.392 . S
C307 H318 0.930 . S
C308 C304 1.373 . S
C308 C306 1.383 . S
C308 H319 0.931 . S
C309 C306 1.382 . S
C309 C307 1.392 . S
C310 Eu281 2.828 . S
C310 O294 1.249 . S
C310 O295 1.244 . S
C310 C304 1.505 . S
C311 O298 1.258 . S
C311 O299 1.242 . S
H312 C284 0.930 . S
H313 C285 0.930 . S
H314 C286 0.930 . S
H315 C287 0.931 . S
H316 C305 0.930 . S
H317 C306 0.930 . S
H318 C307 0.930 . S
H319 C308 0.931 . S
Fe320 O321 1.886 1_455 S
Fe320 O324 1.715 . S
Fe320 O329 2.077 1_455 S
Fe320 O334 1.935 . S
Fe320 O340 2.077 1_455 S
Fe320 O349 1.935 . S
O321 Fe320 1.886 1_655 S
O321 Fe323 1.715 1_545 S
Fe322 O324 1.886 . S
Fe322 O325 1.715 1_545 S
Fe322 O332 1.935 1_545 S
Fe322 O333 2.077 . S
Fe322 O339 1.935 1_545 S
Fe322 O348 2.077 . S
Fe323 O321 1.715 1_565 S
Fe323 O326 1.886 . S
Fe323 O330 1.935 1_565 S
Fe323 O335 2.077 . S
Fe323 O341 1.935 1_565 S
Fe323 O345 2.077 . S
O324 Fe320 1.715 . S
O324 Fe322 1.886 . S
O325 Fe322 1.715 1_565 S
O325 Fe327 1.886 1_455 S
O326 Fe323 1.886 . S
O326 Fe327 1.715 . S
Fe327 O325 1.886 1_655 S
Fe327 O326 1.715 . S
Fe327 O331 2.077 1_655 S
Fe327 O336 1.935 . S
Fe327 O338 2.077 1_655 S
Fe327 O346 1.935 . S
C328 O340 1.381 . S
C328 O341 1.421 . S
O329 Fe320 2.077 1_655 S
O329 C342 1.381 . S
O330 Fe323 1.935 1_545 S
O330 C342 1.421 . S
O331 Fe327 2.077 1_455 S
O331 C347 1.381 . S
O332 Fe322 1.935 1_565 S
O332 C347 1.421 . S
O333 Fe322 2.077 . S
O333 C337 1.381 . S
O334 Fe320 1.935 . S
O334 C337 1.421 . S
O335 Fe323 2.077 . S
O335 C343 1.381 . S
O336 Fe327 1.935 . S
O336 C343 1.421 . S
C337 O333 1.381 . S
C337 O334 1.421 . S
O338 Fe327 2.077 1_455 S
O338 C350 1.381 . S
O339 Fe322 1.935 1_565 S
O339 C350 1.421 . S
O340 Fe320 2.077 1_655 S
O340 C328 1.381 . S
O341 Fe323 1.935 1_545 S
O341 C328 1.421 . S
C342 O329 1.381 . S
C342 O330 1.421 . S
C343 O335 1.381 . S
C343 O336 1.421 . S
C344 O345 1.381 . S
C344 O346 1.421 . S
O345 Fe323 2.077 . S
O345 C344 1.381 . S
O346 Fe327 1.935 . S
O346 C344 1.421 . S
C347 O331 1.381 . S
C347 O332 1.421 . S
O348 Fe322 2.077 . S
O348 C351 1.381 . S
O349 Fe320 1.935 . S
O349 C351 1.421 . S
C350 O338 1.381 . S
C350 O339 1.421 . S
C351 O348 1.381 . S
C351 O349 1.421 . S
Fe352 O353 1.886 . S
Fe352 O356 1.715 . S
Fe352 O361 2.077 . S
Fe352 O366 1.935 . S
Fe352 O372 2.077 1_556 S
Fe352 O381 1.935 1_556 S
O353 Fe352 1.886 . S
O353 Fe355 1.715 1_565 S
Fe354 O356 1.886 1_554 S
Fe354 O357 1.715 1_565 S
Fe354 O364 1.935 1_564 S
Fe354 O365 2.077 1_554 S
Fe354 O371 1.935 1_565 S
Fe354 O380 2.077 . S
Fe355 O353 1.715 1_545 S
Fe355 O358 1.886 1_556 S
Fe355 O362 1.935 1_545 S
Fe355 O367 2.077 . S
Fe355 O373 1.935 1_546 S
Fe355 O377 2.077 1_556 S
O356 Fe352 1.715 . S
O356 Fe354 1.886 1_556 S
O357 Fe354 1.715 1_545 S
O357 Fe359 1.886 . S
O358 Fe355 1.886 1_554 S
O358 Fe359 1.715 . S
Fe359 O357 1.886 . S
Fe359 O358 1.715 . S
Fe359 O363 2.077 1_554 S
Fe359 O368 1.935 1_554 S
Fe359 O370 2.077 . S
Fe359 O378 1.935 . S
C360 O372 1.381 . S
C360 O373 1.421 . S
O361 Fe352 2.077 . S
O361 C374 1.381 . S
O362 Fe355 1.935 1_565 S
O362 C374 1.421 . S
O363 Fe359 2.077 1_556 S
O363 C379 1.381 . S
O364 Fe354 1.935 1_546 S
O364 C379 1.421 . S
O365 Fe354 2.077 1_556 S
O365 C369 1.381 . S
O366 Fe352 1.935 . S
O366 C369 1.421 . S
O367 Fe355 2.077 . S
O367 C375 1.381 . S
O368 Fe359 1.935 1_556 S
O368 C375 1.421 . S
C369 O365 1.381 . S
C369 O366 1.421 . S
O370 Fe359 2.077 . S
O370 C382 1.381 . S
O371 Fe354 1.935 1_545 S
O371 C382 1.421 . S
O372 Fe352 2.077 1_554 S
O372 C360 1.381 . S
O373 Fe355 1.935 1_564 S
O373 C360 1.421 . S
C374 O361 1.381 . S
C374 O362 1.421 . S
C375 O367 1.381 . S
C375 O368 1.421 . S
C376 O377 1.381 . S
C376 O378 1.421 . S
O377 Fe355 2.077 1_554 S
O377 C376 1.381 . S
O378 Fe359 1.935 . S
O378 C376 1.421 . S
C379 O363 1.381 . S
C379 O364 1.421 . S
O380 Fe354 2.077 . S
O380 C383 1.381 . S
O381 Fe352 1.935 1_554 S
O381 C383 1.421 . S
C382 O370 1.381 . S
C382 O371 1.421 . S
C383 O380 1.381 . S
C383 O381 1.421 . S
Fe384 O385 1.886 1_455 S
Fe384 O388 1.715 . S
Fe384 O393 2.077 1_454 S
Fe384 O398 1.935 1_554 S
Fe384 O404 2.077 1_455 S
Fe384 O413 1.935 . S
O385 Fe384 1.886 1_655 S
O385 Fe387 1.715 . S
Fe386 O388 1.886 1_556 S
Fe386 O389 1.715 . S
Fe386 O396 1.935 . S
Fe386 O397 2.077 . S
Fe386 O403 1.935 1_556 S
Fe386 O412 2.077 1_556 S
Fe387 O385 1.715 . S
Fe387 O390 1.886 1_554 S
Fe387 O394 1.935 1_554 S
Fe387 O399 2.077 1_554 S
Fe387 O405 1.935 . S
Fe387 O409 2.077 . S
O388 Fe384 1.715 . S
O388 Fe386 1.886 1_554 S
O389 Fe386 1.715 . S
O389 Fe391 1.886 1_455 S
O390 Fe387 1.886 1_556 S
O390 Fe391 1.715 . S
Fe391 O389 1.886 1_655 S
Fe391 O390 1.715 . S
Fe391 O395 2.077 1_655 S
Fe391 O400 1.935 . S
Fe391 O402 2.077 1_656 S
Fe391 O410 1.935 1_556 S
C392 O404 1.381 . S
C392 O405 1.421 . S
O393 Fe384 2.077 1_656 S
O393 C406 1.381 . S
O394 Fe387 1.935 1_556 S
O394 C406 1.421 . S
O395 Fe391 2.077 1_455 S
O395 C411 1.381 . S
O396 Fe386 1.935 . S
O396 C411 1.421 . S
O397 Fe386 2.077 . S
O397 C401 1.381 . S
O398 Fe384 1.935 1_556 S
O398 C401 1.421 . S
O399 Fe387 2.077 1_556 S
O399 C407 1.381 . S
O400 Fe391 1.935 . S
O400 C407 1.421 . S
C401 O397 1.381 . S
C401 O398 1.421 . S
O402 Fe391 2.077 1_454 S
O402 C414 1.381 . S
O403 Fe386 1.935 1_554 S
O403 C414 1.421 . S
O404 Fe384 2.077 1_655 S
O404 C392 1.381 . S
O405 Fe387 1.935 . S
O405 C392 1.421 . S
C406 O393 1.381 . S
C406 O394 1.421 . S
C407 O399 1.381 . S
C407 O400 1.421 . S
C408 O409 1.381 . S
C408 O410 1.421 . S
O409 Fe387 2.077 . S
O409 C408 1.381 . S
O410 Fe391 1.935 1_554 S
O410 C408 1.421 . S
C411 O395 1.381 . S
C411 O396 1.421 . S
O412 Fe386 2.077 1_554 S
O412 C415 1.381 . S
O413 Fe384 1.935 . S
O413 C415 1.421 . S
C414 O402 1.381 . S
C414 O403 1.421 . S
C415 O412 1.381 . S
C415 O413 1.421 . S
Fe416 O417 1.886 . S
Fe416 O420 1.715 . S
Fe416 O425 2.077 . S
Fe416 O430 1.935 . S
Fe416 O436 2.077 . S
Fe416 O445 1.935 . S
O417 Fe416 1.886 . S
O417 Fe419 1.715 . S
Fe418 O420 1.886 1_554 S
Fe418 O421 1.715 . S
Fe418 O428 1.935 . S
Fe418 O429 2.077 1_554 S
Fe418 O435 1.935 . S
Fe418 O444 2.077 1_554 S
Fe419 O417 1.715 . S
Fe419 O422 1.886 1_556 S
Fe419 O426 1.935 . S
Fe419 O431 2.077 1_556 S
Fe419 O437 1.935 . S
Fe419 O441 2.077 1_556 S
O420 Fe416 1.715 . S
O420 Fe418 1.886 1_556 S
O421 Fe418 1.715 . S
O421 Fe423 1.886 . S
O422 Fe419 1.886 1_554 S
O422 Fe423 1.715 . S
Fe423 O421 1.886 . S
Fe423 O422 1.715 . S
Fe423 O427 2.077 . S
Fe423 O432 1.935 . S
Fe423 O434 2.077 . S
Fe423 O442 1.935 . S
C424 O436 1.381 . S
C424 O437 1.421 . S
O425 Fe416 2.077 . S
O425 C438 1.381 . S
O426 Fe419 1.935 . S
O426 C438 1.421 . S
O427 Fe423 2.077 . S
O427 C443 1.381 . S
O428 Fe418 1.935 . S
O428 C443 1.421 . S
O429 Fe418 2.077 1_556 S
O429 C433 1.381 . S
O430 Fe416 1.935 . S
O430 C433 1.421 . S
O431 Fe419 2.077 1_554 S
O431 C439 1.381 . S
O432 Fe423 1.935 . S
O432 C439 1.421 . S
C433 O429 1.381 . S
C433 O430 1.421 . S
O434 Fe423 2.077 . S
O434 C446 1.381 . S
O435 Fe418 1.935 . S
O435 C446 1.421 . S
O436 Fe416 2.077 . S
O436 C424 1.381 . S
O437 Fe419 1.935 . S
O437 C424 1.421 . S
C438 O425 1.381 . S
C438 O426 1.421 . S
C439 O431 1.381 . S
C439 O432 1.421 . S
C440 O441 1.381 . S
C440 O442 1.421 . S
O441 Fe419 2.077 1_554 S
O441 C440 1.381 . S
O442 Fe423 1.935 . S
O442 C440 1.421 . S
C443 O427 1.381 . S
C443 O428 1.421 . S
O444 Fe418 2.077 1_556 S
O444 C447 1.381 . S
O445 Fe416 1.935 . S
O445 C447 1.421 . S
C446 O434 1.381 . S
C446 O435 1.421 . S
C447 O444 1.381 . S
C447 O445 1.421 . S
Fe448 O449 1.886 . S
Fe448 O452 1.715 . S
Fe448 O457 2.077 1_655 S
Fe448 O462 1.935 1_655 S
Fe448 O468 2.077 . S
Fe448 O477 1.935 . S
O449 Fe448 1.886 . S
O449 Fe451 1.715 . S
Fe450 O452 1.886 1_455 S
Fe450 O453 1.715 . S
Fe450 O460 1.935 . S
Fe450 O461 2.077 . S
Fe450 O467 1.935 1_455 S
Fe450 O476 2.077 1_455 S
Fe451 O449 1.715 . S
Fe451 O454 1.886 1_655 S
Fe451 O458 1.935 1_655 S
Fe451 O463 2.077 1_655 S
Fe451 O469 1.935 . S
Fe451 O473 2.077 . S
O452 Fe448 1.715 . S
O452 Fe450 1.886 1_655 S
O453 Fe450 1.715 . S
O453 Fe455 1.886 . S
O454 Fe451 1.886 1_455 S
O454 Fe455 1.715 . S
Fe455 O453 1.886 . S
Fe455 O454 1.715 . S
Fe455 O459 2.077 . S
Fe455 O464 1.935 . S
Fe455 O466 2.077 1_455 S
Fe455 O474 1.935 1_455 S
C456 O468 1.381 . S
C456 O469 1.421 . S
O457 Fe448 2.077 1_455 S
O457 C470 1.381 . S
O458 Fe451 1.935 1_455 S
O458 C470 1.421 . S
O459 Fe455 2.077 . S
O459 C475 1.381 . S
O460 Fe450 1.935 . S
O460 C475 1.421 . S
O461 Fe450 2.077 . S
O461 C465 1.381 . S
O462 Fe448 1.935 1_455 S
O462 C465 1.421 . S
O463 Fe451 2.077 1_455 S
O463 C471 1.381 . S
O464 Fe455 1.935 . S
O464 C471 1.421 . S
C465 O461 1.381 . S
C465 O462 1.421 . S
O466 Fe455 2.077 1_655 S
O466 C478 1.381 . S
O467 Fe450 1.935 1_655 S
O467 C478 1.421 . S
O468 Fe448 2.077 . S
O468 C456 1.381 . S
O469 Fe451 1.935 . S
O469 C456 1.421 . S
C470 O457 1.381 . S
C470 O458 1.421 . S
C471 O463 1.381 . S
C471 O464 1.421 . S
C472 O473 1.381 . S
C472 O474 1.421 . S
O473 Fe451 2.077 . S
O473 C472 1.381 . S
O474 Fe455 1.935 1_655 S
O474 C472 1.421 . S
C475 O459 1.381 . S
C475 O460 1.421 . S
O476 Fe450 2.077 1_655 S
O476 C479 1.381 . S
O477 Fe448 1.935 . S
O477 C479 1.421 . S
C478 O466 1.381 . S
C478 O467 1.421 . S
C479 O476 1.381 . S
C479 O477 1.421 . S
Fe480 O481 1.886 . S
Fe480 O484 1.715 . S
Fe480 O489 2.077 . S
Fe480 O494 1.935 . S
Fe480 O500 2.077 . S
Fe480 O509 1.935 . S
O481 Fe480 1.886 . S
O481 Fe483 1.715 1_565 S
Fe482 O484 1.886 . S
Fe482 O485 1.715 1_565 S
Fe482 O492 1.935 1_565 S
Fe482 O493 2.077 . S
Fe482 O499 1.935 1_565 S
Fe482 O508 2.077 . S
Fe483 O481 1.715 1_545 S
Fe483 O486 1.886 . S
Fe483 O490 1.935 1_545 S
Fe483 O495 2.077 . S
Fe483 O501 1.935 1_545 S
Fe483 O505 2.077 . S
O484 Fe480 1.715 . S
O484 Fe482 1.886 . S
O485 Fe482 1.715 1_545 S
O485 Fe487 1.886 . S
O486 Fe483 1.886 . S
O486 Fe487 1.715 . S
Fe487 O485 1.886 . S
Fe487 O486 1.715 . S
Fe487 O491 2.077 . S
Fe487 O496 1.935 . S
Fe487 O498 2.077 . S
Fe487 O506 1.935 . S
C488 O500 1.381 . S
C488 O501 1.421 . S
O489 Fe480 2.077 . S
O489 C502 1.381 . S
O490 Fe483 1.935 1_565 S
O490 C502 1.421 . S
O491 Fe487 2.077 . S
O491 C507 1.381 . S
O492 Fe482 1.935 1_545 S
O492 C507 1.421 . S
O493 Fe482 2.077 . S
O493 C497 1.381 . S
O494 Fe480 1.935 . S
O494 C497 1.421 . S
O495 Fe483 2.077 . S
O495 C503 1.381 . S
O496 Fe487 1.935 . S
O496 C503 1.421 . S
C497 O493 1.381 . S
C497 O494 1.421 . S
O498 Fe487 2.077 . S
O498 C510 1.381 . S
O499 Fe482 1.935 1_545 S
O499 C510 1.421 . S
O500 Fe480 2.077 . S
O500 C488 1.381 . S
O501 Fe483 1.935 1_565 S
O501 C488 1.421 . S
C502 O489 1.381 . S
C502 O490 1.421 . S
C503 O495 1.381 . S
C503 O496 1.421 . S
C504 O505 1.381 . S
C504 O506 1.421 . S
O505 Fe483 2.077 . S
O505 C504 1.381 . S
O506 Fe487 1.935 . S
O506 C504 1.421 . S
C507 O491 1.381 . S
C507 O492 1.421 . S
O508 Fe482 2.077 . S
O508 C511 1.381 . S
O509 Fe480 1.935 . S
O509 C511 1.421 . S
C510 O498 1.381 . S
C510 O499 1.421 . S
C511 O508 1.381 . S
C511 O509 1.421 . S
H512 C520 0.950 . S
H513 C525 0.950 . S
H514 C522 0.950 . S
H515 C524 0.950 . S
H516 C526 0.950 . S
H517 C528 0.950 . S
H518 C530 0.950 . S
H519 C531 0.950 . S
C520 H512 0.950 . S
C520 C521 1.386 . S
C520 C522 1.391 . S
C521 C520 1.386 . S
C521 C525 1.393 . S
C522 H514 0.950 . S
C522 C520 1.391 . S
C522 C523 1.400 . S
C523 C522 1.400 . S
C523 C524 1.398 . S
C523 C529 1.491 . S
C524 H515 0.950 . S
C524 C523 1.398 . S
C524 C525 1.391 . S
C525 H513 0.950 . S
C525 C521 1.393 . S
C525 C524 1.391 . S
C526 H516 0.950 . S
C526 C527 1.386 . S
C526 C528 1.391 . S
C527 C526 1.386 . S
C527 C531 1.393 . S
C528 H517 0.950 . S
C528 C526 1.391 . S
C528 C529 1.400 . S
C529 C523 1.491 . S
C529 C528 1.400 . S
C529 C530 1.398 . S
C530 H518 0.950 . S
C530 C529 1.398 . S
C530 C531 1.391 . S
C531 H519 0.950 . S
C531 C527 1.393 . S
C531 C530 1.391 . S
H532 C540 0.950 . S
H533 C545 0.950 . S
H534 C542 0.950 . S
H535 C544 0.950 . S
H536 C546 0.950 . S
H537 C548 0.950 . S
H538 C550 0.950 . S
H539 C551 0.950 . S
C540 H532 0.950 . S
C540 C541 1.386 . S
C540 C542 1.391 . S
C541 C540 1.386 . S
C541 C545 1.393 . S
C542 H534 0.950 . S
C542 C540 1.391 . S
C542 C543 1.400 . S
C543 C542 1.400 . S
C543 C544 1.398 . S
C543 C549 1.491 . S
C544 H535 0.950 . S
C544 C543 1.398 . S
C544 C545 1.391 . S
C545 H533 0.950 . S
C545 C541 1.393 . S
C545 C544 1.391 . S
C546 H536 0.950 . S
C546 C547 1.386 . S
C546 C548 1.391 . S
C547 C546 1.386 . S
C547 C551 1.393 . S
C548 H537 0.950 . S
C548 C546 1.391 . S
C548 C549 1.400 . S
C549 C543 1.491 . S
C549 C548 1.400 . S
C549 C550 1.398 . S
C550 H538 0.950 . S
C550 C549 1.398 . S
C550 C551 1.391 . S
C551 H539 0.950 . S
C551 C547 1.393 . S
C551 C550 1.391 . S
H552 C560 0.950 . S
H553 C565 0.950 . S
H554 C562 0.950 . S
H555 C564 0.950 . S
H556 C566 0.950 . S
H557 C568 0.950 . S
H558 C570 0.950 . S
H559 C571 0.950 . S
C560 H552 0.950 . S
C560 C561 1.386 . S
C560 C562 1.391 . S
C561 C560 1.386 . S
C561 C565 1.393 . S
C562 H554 0.950 . S
C562 C560 1.391 . S
C562 C563 1.400 . S
C563 C562 1.400 . S
C563 C564 1.398 . S
C563 C569 1.491 . S
C564 H555 0.950 . S
C564 C563 1.398 . S
C564 C565 1.391 . S
C565 H553 0.950 . S
C565 C561 1.393 . S
C565 C564 1.391 . S
C566 H556 0.950 . S
C566 C567 1.386 . S
C566 C568 1.391 . S
C567 C566 1.386 . S
C567 C571 1.393 . S
C568 H557 0.950 . S
C568 C566 1.391 . S
C568 C569 1.400 . S
C569 C563 1.491 . S
C569 C568 1.400 . S
C569 C570 1.398 . S
C570 H558 0.950 . S
C570 C569 1.398 . S
C570 C571 1.391 . S
C571 H559 0.950 . S
C571 C567 1.393 . S
C571 C570 1.391 . S
H572 C580 0.950 . S
H573 C585 0.950 . S
H574 C582 0.950 . S
H575 C584 0.950 . S
H576 C586 0.950 . S
H577 C588 0.950 . S
H578 C590 0.950 . S
H579 C591 0.950 . S
C580 H572 0.950 . S
C580 C581 1.386 . S
C580 C582 1.391 . S
C581 C580 1.386 . S
C581 C585 1.393 . S
C582 H574 0.950 . S
C582 C580 1.391 . S
C582 C583 1.400 . S
C583 C582 1.400 . S
C583 C584 1.398 . S
C583 C589 1.491 . S
C584 H575 0.950 . S
C584 C583 1.398 . S
C584 C585 1.391 . S
C585 H573 0.950 . S
C585 C581 1.393 . S
C585 C584 1.391 . S
C586 H576 0.950 . S
C586 C587 1.386 . S
C586 C588 1.391 . S
C587 C586 1.386 . S
C587 C591 1.393 . S
C588 H577 0.950 . S
C588 C586 1.391 . S
C588 C589 1.400 . S
C589 C583 1.491 . S
C589 C588 1.400 . S
C589 C590 1.398 . S
C590 H578 0.950 . S
C590 C589 1.398 . S
C590 C591 1.391 . S
C591 H579 0.950 . S
C591 C587 1.393 . S
C591 C590 1.391 . S
H592 C600 0.950 . S
H593 C605 0.950 . S
H594 C602 0.950 . S
H595 C604 0.950 . S
H596 C606 0.950 . S
H597 C608 0.950 . S
H598 C610 0.950 . S
H599 C611 0.950 . S
C600 H592 0.950 . S
C600 C601 1.386 . S
C600 C602 1.391 . S
C601 C600 1.386 . S
C601 C605 1.393 . S
C602 H594 0.950 . S
C602 C600 1.391 . S
C602 C603 1.400 . S
C603 C602 1.400 . S
C603 C604 1.398 . S
C603 C609 1.491 . S
C604 H595 0.950 . S
C604 C603 1.398 . S
C604 C605 1.391 . S
C605 H593 0.950 . S
C605 C601 1.393 . S
C605 C604 1.391 . S
C606 H596 0.950 . S
C606 C607 1.386 . S
C606 C608 1.391 . S
C607 C606 1.386 . S
C607 C611 1.393 . S
C608 H597 0.950 . S
C608 C606 1.391 . S
C608 C609 1.400 . S
C609 C603 1.491 . S
C609 C608 1.400 . S
C609 C610 1.398 . S
C610 H598 0.950 . S
C610 C609 1.398 . S
C610 C611 1.391 . S
C611 H599 0.950 . S
C611 C607 1.393 . S
C611 C610 1.391 . S
H612 C620 0.950 . S
H613 C625 0.950 . S
H614 C622 0.950 . S
H615 C624 0.950 . S
H616 C626 0.950 . S
H617 C628 0.950 . S
H618 C630 0.950 . S
H619 C631 0.950 . S
C620 H612 0.950 . S
C620 C621 1.386 . S
C620 C622 1.391 . S
C621 C620 1.386 . S
C621 C625 1.393 . S
C622 H614 0.950 . S
C622 C620 1.391 . S
C622 C623 1.400 . S
C623 C622 1.400 . S
C623 C624 1.398 . S
C623 C629 1.491 . S
C624 H615 0.950 . S
C624 C623 1.398 . S
C624 C625 1.391 . S
C625 H613 0.950 . S
C625 C621 1.393 . S
C625 C624 1.391 . S
C626 H616 0.950 . S
C626 C627 1.386 . S
C626 C628 1.391 . S
C627 C626 1.386 . S
C627 C631 1.393 . S
C628 H617 0.950 . S
C628 C626 1.391 . S
C628 C629 1.400 . S
C629 C623 1.491 . S
C629 C628 1.400 . S
C629 C630 1.398 . S
C630 H618 0.950 . S
C630 C629 1.398 . S
C630 C631 1.391 . S
C631 H619 0.950 . S
C631 C627 1.393 . S
C631 C630 1.391 . S
H632 C640 0.950 . S
H633 C645 0.950 . S
H634 C642 0.950 . S
H635 C644 0.950 . S
H636 C646 0.950 . S
H637 C648 0.950 . S
H638 C650 0.950 . S
H639 C651 0.950 . S
C640 H632 0.950 . S
C640 C641 1.386 . S
C640 C642 1.391 . S
C641 C640 1.386 . S
C641 C645 1.393 . S
C642 H634 0.950 . S
C642 C640 1.391 . S
C642 C643 1.400 . S
C643 C642 1.400 . S
C643 C644 1.398 . S
C643 C649 1.491 . S
C644 H635 0.950 . S
C644 C643 1.398 . S
C644 C645 1.391 . S
C645 H633 0.950 . S
C645 C641 1.393 . S
C645 C644 1.391 . S
C646 H636 0.950 . S
C646 C647 1.386 . S
C646 C648 1.391 . S
C647 C646 1.386 . S
C647 C651 1.393 . S
C648 H637 0.950 . S
C648 C646 1.391 . S
C648 C649 1.400 . S
C649 C643 1.491 . S
C649 C648 1.400 . S
C649 C650 1.398 . S
C650 H638 0.950 . S
C650 C649 1.398 . S
C650 C651 1.391 . S
C651 H639 0.950 . S
C651 C647 1.393 . S
C651 C650 1.391 . S
H652 C660 0.950 . S
H653 C665 0.950 . S
H654 C662 0.950 . S
H655 C664 0.950 . S
H656 C666 0.950 . S
H657 C668 0.950 . S
H658 C670 0.950 . S
H659 C671 0.950 . S
C660 H652 0.950 . S
C660 C661 1.386 . S
C660 C662 1.391 . S
C661 C660 1.386 . S
C661 C665 1.393 . S
C662 H654 0.950 . S
C662 C660 1.391 . S
C662 C663 1.400 . S
C663 C662 1.400 . S
C663 C664 1.398 . S
C663 C669 1.491 . S
C664 H655 0.950 . S
C664 C663 1.398 . S
C664 C665 1.391 . S
C665 H653 0.950 . S
C665 C661 1.393 . S
C665 C664 1.391 . S
C666 H656 0.950 . S
C666 C667 1.386 . S
C666 C668 1.391 . S
C667 C666 1.386 . S
C667 C671 1.393 . S
C668 H657 0.950 . S
C668 C666 1.391 . S
C668 C669 1.400 . S
C669 C663 1.491 . S
C669 C668 1.400 . S
C669 C670 1.398 . S
C670 H658 0.950 . S
C670 C669 1.398 . S
C670 C671 1.391 . S
C671 H659 0.950 . S
C671 C667 1.393 . S
C671 C670 1.391 . S
H672 C680 0.950 . S
H673 C685 0.950 . S
H674 C682 0.950 . S
H675 C684 0.950 . S
H676 C686 0.950 . S
H677 C688 0.950 . S
H678 C690 0.950 . S
H679 C691 0.950 . S
C680 H672 0.950 . S
C680 C681 1.386 . S
C680 C682 1.391 . S
C681 C680 1.386 . S
C681 C685 1.393 . S
C682 H674 0.950 . S
C682 C680 1.391 . S
C682 C683 1.400 . S
C683 C682 1.400 . S
C683 C684 1.398 . S
C683 C689 1.491 . S
C684 H675 0.950 . S
C684 C683 1.398 . S
C684 C685 1.391 . S
C685 H673 0.950 . S
C685 C681 1.393 . S
C685 C684 1.391 . S
C686 H676 0.950 . S
C686 C687 1.386 . S
C686 C688 1.391 . S
C687 C686 1.386 . S
C687 C691 1.393 . S
C688 H677 0.950 . S
C688 C686 1.391 . S
C688 C689 1.400 . S
C689 C683 1.491 . S
C689 C688 1.400 . S
C689 C690 1.398 . S
C690 H678 0.950 . S
C690 C689 1.398 . S
C690 C691 1.391 . S
C691 H679 0.950 . S
C691 C687 1.393 . S
C691 C690 1.391 . S
H692 C700 0.950 . S
H693 C705 0.950 . S
H694 C702 0.950 . S
H695 C704 0.950 . S
H696 C706 0.950 . S
H697 C708 0.950 . S
H698 C710 0.950 . S
H699 C711 0.950 . S
C700 H692 0.950 . S
C700 C701 1.386 . S
C700 C702 1.391 . S
C701 C700 1.386 . S
C701 C705 1.393 . S
C702 H694 0.950 . S
C702 C700 1.391 . S
C702 C703 1.400 . S
C703 C702 1.400 . S
C703 C704 1.398 . S
C703 C709 1.491 . S
C704 H695 0.950 . S
C704 C703 1.398 . S
C704 C705 1.391 . S
C705 H693 0.950 . S
C705 C701 1.393 . S
C705 C704 1.391 . S
C706 H696 0.950 . S
C706 C707 1.386 . S
C706 C708 1.391 . S
C707 C706 1.386 . S
C707 C711 1.393 . S
C708 H697 0.950 . S
C708 C706 1.391 . S
C708 C709 1.400 . S
C709 C703 1.491 . S
C709 C708 1.400 . S
C709 C710 1.398 . S
C710 H698 0.950 . S
C710 C709 1.398 . S
C710 C711 1.391 . S
C711 H699 0.950 . S
C711 C707 1.393 . S
C711 C710 1.391 . S
H712 C720 0.950 . S
H713 C725 0.950 . S
H714 C722 0.950 . S
H715 C724 0.950 . S
H716 C726 0.950 . S
H717 C728 0.950 . S
H718 C730 0.950 . S
H719 C731 0.950 . S
C720 H712 0.950 . S
C720 C721 1.386 . S
C720 C722 1.391 . S
C721 C720 1.386 . S
C721 C725 1.393 . S
C722 H714 0.950 . S
C722 C720 1.391 . S
C722 C723 1.400 . S
C723 C722 1.400 . S
C723 C724 1.398 . S
C723 C729 1.491 . S
C724 H715 0.950 . S
C724 C723 1.398 . S
C724 C725 1.391 . S
C725 H713 0.950 . S
C725 C721 1.393 . S
C725 C724 1.391 . S
C726 H716 0.950 . S
C726 C727 1.386 . S
C726 C728 1.391 . S
C727 C726 1.386 . S
C727 C731 1.393 . S
C728 H717 0.950 . S
C728 C726 1.391 . S
C728 C729 1.400 . S
C729 C723 1.491 . S
C729 C728 1.400 . S
C729 C730 1.398 . S
C730 H718 0.950 . S
C730 C729 1.398 . S
C730 C731 1.391 . S
C731 H719 0.950 . S
C731 C727 1.393 . S
C731 C730 1.391 . S
H732 C740 0.950 . S
H733 C745 0.950 . S
H734 C742 0.950 . S
H735 C744 0.950 . S
H736 C746 0.950 . S
H737 C748 0.950 . S
H738 C750 0.950 . S
H739 C751 0.950 . S
C740 H732 0.950 . S
C740 C741 1.386 . S
C740 C742 1.391 . S
C741 C740 1.386 . S
C741 C745 1.393 . S
C742 H734 0.950 . S
C742 C740 1.391 . S
C742 C743 1.400 . S
C743 C742 1.400 . S
C743 C744 1.398 . S
C743 C749 1.491 . S
C744 H735 0.950 . S
C744 C743 1.398 . S
C744 C745 1.391 . S
C745 H733 0.950 . S
C745 C741 1.393 . S
C745 C744 1.391 . S
C746 H736 0.950 . S
C746 C747 1.386 . S
C746 C748 1.391 . S
C747 C746 1.386 . S
C747 C751 1.393 . S
C748 H737 0.950 . S
C748 C746 1.391 . S
C748 C749 1.400 . S
C749 C743 1.491 . S
C749 C748 1.400 . S
C749 C750 1.398 . S
C750 H738 0.950 . S
C750 C749 1.398 . S
C750 C751 1.391 . S
C751 H739 0.950 . S
C751 C747 1.393 . S
C751 C750 1.391 . S
H752 C760 0.950 . S
H753 C765 0.950 . S
H754 C762 0.950 . S
H755 C764 0.950 . S
H756 C766 0.950 . S
H757 C768 0.950 . S
H758 C770 0.950 . S
H759 C771 0.950 . S
C760 H752 0.950 . S
C760 C761 1.386 . S
C760 C762 1.391 . S
C761 C760 1.386 . S
C761 C765 1.393 . S
C762 H754 0.950 . S
C762 C760 1.391 . S
C762 C763 1.400 . S
C763 C762 1.400 . S
C763 C764 1.398 . S
C763 C769 1.491 . S
C764 H755 0.950 . S
C764 C763 1.398 . S
C764 C765 1.391 . S
C765 H753 0.950 . S
C765 C761 1.393 . S
C765 C764 1.391 . S
C766 H756 0.950 . S
C766 C767 1.386 . S
C766 C768 1.391 . S
C767 C766 1.386 . S
C767 C771 1.393 . S
C768 H757 0.950 . S
C768 C766 1.391 . S
C768 C769 1.400 . S
C769 C763 1.491 . S
C769 C768 1.400 . S
C769 C770 1.398 . S
C770 H758 0.950 . S
C770 C769 1.398 . S
C770 C771 1.391 . S
C771 H759 0.950 . S
C771 C767 1.393 . S
C771 C770 1.391 . S
H772 C780 0.950 . S
H773 C785 0.950 . S
H774 C782 0.950 . S
H775 C784 0.950 . S
H776 C786 0.950 . S
H777 C788 0.950 . S
H778 C790 0.950 . S
H779 C791 0.950 . S
C780 H772 0.950 . S
C780 C781 1.386 . S
C780 C782 1.391 . S
C781 C780 1.386 . S
C781 C785 1.393 . S
C782 H774 0.950 . S
C782 C780 1.391 . S
C782 C783 1.400 . S
C783 C782 1.400 . S
C783 C784 1.398 . S
C783 C789 1.491 . S
C784 H775 0.950 . S
C784 C783 1.398 . S
C784 C785 1.391 . S
C785 H773 0.950 . S
C785 C781 1.393 . S
C785 C784 1.391 . S
C786 H776 0.950 . S
C786 C787 1.386 . S
C786 C788 1.391 . S
C787 C786 1.386 . S
C787 C791 1.393 . S
C788 H777 0.950 . S
C788 C786 1.391 . S
C788 C789 1.400 . S
C789 C783 1.491 . S
C789 C788 1.400 . S
C789 C790 1.398 . S
C790 H778 0.950 . S
C790 C789 1.398 . S
C790 C791 1.391 . S
C791 H779 0.950 . S
C791 C787 1.393 . S
C791 C790 1.391 . S
H792 C800 0.950 . S
H793 C805 0.950 . S
H794 C802 0.950 . S
H795 C804 0.950 . S
H796 C806 0.950 . S
H797 C808 0.950 . S
H798 C810 0.950 . S
H799 C811 0.950 . S
C800 H792 0.950 . S
C800 C801 1.386 . S
C800 C802 1.391 . S
C801 C800 1.386 . S
C801 C805 1.393 . S
C802 H794 0.950 . S
C802 C800 1.391 . S
C802 C803 1.400 . S
C803 C802 1.400 . S
C803 C804 1.398 . S
C803 C809 1.491 . S
C804 H795 0.950 . S
C804 C803 1.398 . S
C804 C805 1.391 . S
C805 H793 0.950 . S
C805 C801 1.393 . S
C805 C804 1.391 . S
C806 H796 0.950 . S
C806 C807 1.386 . S
C806 C808 1.391 . S
C807 C806 1.386 . S
C807 C811 1.393 . S
C808 H797 0.950 . S
C808 C806 1.391 . S
C808 C809 1.400 . S
C809 C803 1.491 . S
C809 C808 1.400 . S
C809 C810 1.398 . S
C810 H798 0.950 . S
C810 C809 1.398 . S
C810 C811 1.391 . S
C811 H799 0.950 . S
C811 C807 1.393 . S
C811 C810 1.391 . S
H812 C820 0.950 . S
H813 C825 0.950 . S
H814 C822 0.950 . S
H815 C824 0.950 . S
H816 C826 0.950 . S
H817 C828 0.950 . S
H818 C830 0.950 . S
H819 C831 0.950 . S
C820 H812 0.950 . S
C820 C821 1.386 . S
C820 C822 1.391 . S
C821 C820 1.386 . S
C821 C825 1.393 . S
C822 H814 0.950 . S
C822 C820 1.391 . S
C822 C823 1.400 . S
C823 C822 1.400 . S
C823 C824 1.398 . S
C823 C829 1.491 . S
C824 H815 0.950 . S
C824 C823 1.398 . S
C824 C825 1.391 . S
C825 H813 0.950 . S
C825 C821 1.393 . S
C825 C824 1.391 . S
C826 H816 0.950 . S
C826 C827 1.386 . S
C826 C828 1.391 . S
C827 C826 1.386 . S
C827 C831 1.393 . S
C828 H817 0.950 . S
C828 C826 1.391 . S
C828 C829 1.400 . S
C829 C823 1.491 . S
C829 C828 1.400 . S
C829 C830 1.398 . S
C830 H818 0.950 . S
C830 C829 1.398 . S
C830 C831 1.391 . S
C831 H819 0.950 . S
C831 C827 1.393 . S
C831 C830 1.391 . S
H832 C840 0.950 . S
H833 C845 0.950 . S
H834 C842 0.950 . S
H835 C844 0.950 . S
H836 C846 0.950 . S
H837 C848 0.950 . S
H838 C850 0.950 . S
H839 C851 0.950 . S
C840 H832 0.950 . S
C840 C841 1.386 . S
C840 C842 1.391 . S
C841 C840 1.386 . S
C841 C845 1.393 . S
C842 H834 0.950 . S
C842 C840 1.391 . S
C842 C843 1.400 . S
C843 C842 1.400 . S
C843 C844 1.398 . S
C843 C849 1.491 . S
C844 H835 0.950 . S
C844 C843 1.398 . S
C844 C845 1.391 . S
C845 H833 0.950 . S
C845 C841 1.393 . S
C845 C844 1.391 . S
C846 H836 0.950 . S
C846 C847 1.386 . S
C846 C848 1.391 . S
C847 C846 1.386 . S
C847 C851 1.393 . S
C848 H837 0.950 . S
C848 C846 1.391 . S
C848 C849 1.400 . S
C849 C843 1.491 . S
C849 C848 1.400 . S
C849 C850 1.398 . S
C850 H838 0.950 . S
C850 C849 1.398 . S
C850 C851 1.391 . S
C851 H839 0.950 . S
C851 C847 1.393 . S
C851 C850 1.391 . S
H852 C860 0.950 . S
H853 C865 0.950 . S
H854 C862 0.950 . S
H855 C864 0.950 . S
H856 C866 0.950 . S
H857 C868 0.950 . S
H858 C870 0.950 . S
H859 C871 0.950 . S
C860 H852 0.950 . S
C860 C861 1.386 . S
C860 C862 1.391 . S
C861 C860 1.386 . S
C861 C865 1.393 . S
C862 H854 0.950 . S
C862 C860 1.391 . S
C862 C863 1.400 . S
C863 C862 1.400 . S
C863 C864 1.398 . S
C863 C869 1.491 . S
C864 H855 0.950 . S
C864 C863 1.398 . S
C864 C865 1.391 . S
C865 H853 0.950 . S
C865 C861 1.393 . S
C865 C864 1.391 . S
C866 H856 0.950 . S
C866 C867 1.386 . S
C866 C868 1.391 . S
C867 C866 1.386 . S
C867 C871 1.393 . S
C868 H857 0.950 . S
C868 C866 1.391 . S
C868 C869 1.400 . S
C869 C863 1.491 . S
C869 C868 1.400 . S
C869 C870 1.398 . S
C870 H858 0.950 . S
C870 C869 1.398 . S
C870 C871 1.391 . S
C871 H859 0.950 . S
C871 C867 1.393 . S
C871 C870 1.391 . S
H872 C880 0.950 . S
H873 C885 0.950 . S
H874 C882 0.950 . S
H875 C884 0.950 . S
H876 C886 0.950 . S
H877 C888 0.950 . S
H878 C890 0.950 . S
H879 C891 0.950 . S
C880 H872 0.950 . S
C880 C881 1.386 . S
C880 C882 1.391 . S
C881 C880 1.386 . S
C881 C885 1.393 . S
C882 H874 0.950 . S
C882 C880 1.391 . S
C882 C883 1.400 . S
C883 C882 1.400 . S
C883 C884 1.398 . S
C883 C889 1.491 . S
C884 H875 0.950 . S
C884 C883 1.398 . S
C884 C885 1.391 . S
C885 H873 0.950 . S
C885 C881 1.393 . S
C885 C884 1.391 . S
C886 H876 0.950 . S
C886 C887 1.386 . S
C886 C888 1.391 . S
C887 C886 1.386 . S
C887 C891 1.393 . S
C888 H877 0.950 . S
C888 C886 1.391 . S
C888 C889 1.400 . S
C889 C883 1.491 . S
C889 C888 1.400 . S
C889 C890 1.398 . S
C890 H878 0.950 . S
C890 C889 1.398 . S
C890 C891 1.391 . S
C891 H879 0.950 . S
C891 C887 1.393 . S
C891 C890 1.391 . S
H892 C900 0.950 . S
H893 C905 0.950 . S
H894 C902 0.950 . S
H895 C904 0.950 . S
H896 C906 0.950 . S
H897 C908 0.950 . S
H898 C910 0.950 . S
H899 C911 0.950 . S
C900 H892 0.950 . S
C900 C901 1.386 . S
C900 C902 1.391 . S
C901 C900 1.386 . S
C901 C905 1.393 . S
C902 H894 0.950 . S
C902 C900 1.391 . S
C902 C903 1.400 . S
C903 C902 1.400 . S
C903 C904 1.398 . S
C903 C909 1.491 . S
C904 H895 0.950 . S
C904 C903 1.398 . S
C904 C905 1.391 . S
C905 H893 0.950 . S
C905 C901 1.393 . S
C905 C904 1.391 . S
C906 H896 0.950 . S
C906 C907 1.386 . S
C906 C908 1.391 . S
C907 C906 1.386 . S
C907 C911 1.393 . S
C908 H897 0.950 . S
C908 C906 1.391 . S
C908 C909 1.400 . S
C909 C903 1.491 . S
C909 C908 1.400 . S
C909 C910 1.398 . S
C910 H898 0.950 . S
C910 C909 1.398 . S
C910 C911 1.391 . S
C911 H899 0.950 . S
C911 C907 1.393 . S
C911 C910 1.391 . S
H912 C920 0.950 . S
H913 C925 0.950 . S
H914 C922 0.950 . S
H915 C924 0.950 . S
H916 C926 0.950 . S
H917 C928 0.950 . S
H918 C930 0.950 . S
H919 C931 0.950 . S
C920 H912 0.950 . S
C920 C921 1.386 . S
C920 C922 1.391 . S
C921 C920 1.386 . S
C921 C925 1.393 . S
C922 H914 0.950 . S
C922 C920 1.391 . S
C922 C923 1.400 . S
C923 C922 1.400 . S
C923 C924 1.398 . S
C923 C929 1.491 . S
C924 H915 0.950 . S
C924 C923 1.398 . S
C924 C925 1.391 . S
C925 H913 0.950 . S
C925 C921 1.393 . S
C925 C924 1.391 . S
C926 H916 0.950 . S
C926 C927 1.386 . S
C926 C928 1.391 . S
C927 C926 1.386 . S
C927 C931 1.393 . S
C928 H917 0.950 . S
C928 C926 1.391 . S
C928 C929 1.400 . S
C929 C923 1.491 . S
C929 C928 1.400 . S
C929 C930 1.398 . S
C930 H918 0.950 . S
C930 C929 1.398 . S
C930 C931 1.391 . S
C931 H919 0.950 . S
C931 C927 1.393 . S
C931 C930 1.391 . S
H932 C940 0.950 . S
H933 C945 0.950 . S
H934 C942 0.950 . S
H935 C944 0.950 . S
H936 C946 0.950 . S
H937 C948 0.950 . S
H938 C950 0.950 . S
H939 C951 0.950 . S
C940 H932 0.950 . S
C940 C941 1.386 . S
C940 C942 1.391 . S
C941 C940 1.386 . S
C941 C945 1.393 . S
C942 H934 0.950 . S
C942 C940 1.391 . S
C942 C943 1.400 . S
C943 C942 1.400 . S
C943 C944 1.398 . S
C943 C949 1.491 . S
C944 H935 0.950 . S
C944 C943 1.398 . S
C944 C945 1.391 . S
C945 H933 0.950 . S
C945 C941 1.393 . S
C945 C944 1.391 . S
C946 H936 0.950 . S
C946 C947 1.386 . S
C946 C948 1.391 . S
C947 C946 1.386 . S
C947 C951 1.393 . S
C948 H937 0.950 . S
C948 C946 1.391 . S
C948 C949 1.400 . S
C949 C943 1.491 . S
C949 C948 1.400 . S
C949 C950 1.398 . S
C950 H938 0.950 . S
C950 C949 1.398 . S
C950 C951 1.391 . S
C951 H939 0.950 . S
C951 C947 1.393 . S
C951 C950 1.391 . S
H952 C960 0.950 . S
H953 C965 0.950 . S
H954 C962 0.950 . S
H955 C964 0.950 . S
H956 C966 0.950 . S
H957 C968 0.950 . S
H958 C970 0.950 . S
H959 C971 0.950 . S
C960 H952 0.950 . S
C960 C961 1.386 . S
C960 C962 1.391 . S
C961 C960 1.386 . S
C961 C965 1.393 . S
C962 H954 0.950 . S
C962 C960 1.391 . S
C962 C963 1.400 . S
C963 C962 1.400 . S
C963 C964 1.398 . S
C963 C969 1.491 . S
C964 H955 0.950 . S
C964 C963 1.398 . S
C964 C965 1.391 . S
C965 H953 0.950 . S
C965 C961 1.393 . S
C965 C964 1.391 . S
C966 H956 0.950 . S
C966 C967 1.386 . S
C966 C968 1.391 . S
C967 C966 1.386 . S
C967 C971 1.393 . S
C968 H957 0.950 . S
C968 C966 1.391 . S
C968 C969 1.400 . S
C969 C963 1.491 . S
C969 C968 1.400 . S
C969 C970 1.398 . S
C970 H958 0.950 . S
C970 C969 1.398 . S
C970 C971 1.391 . S
C971 H959 0.950 . S
C971 C967 1.393 . S
C971 C970 1.391 . S
H972 C980 0.950 . S
H973 C985 0.950 . S
H974 C982 0.950 . S
H975 C984 0.950 . S
H976 C986 0.950 . S
H977 C988 0.950 . S
H978 C990 0.950 . S
H979 C991 0.950 . S
C980 H972 0.950 . S
C980 C981 1.386 . S
C980 C982 1.391 . S
C981 C980 1.386 . S
C981 C985 1.393 . S
C982 H974 0.950 . S
C982 C980 1.391 . S
C982 C983 1.400 . S
C983 C982 1.400 . S
C983 C984 1.398 . S
C983 C989 1.491 . S
C984 H975 0.950 . S
C984 C983 1.398 . S
C984 C985 1.391 . S
C985 H973 0.950 . S
C985 C981 1.393 . S
C985 C984 1.391 . S
C986 H976 0.950 . S
C986 C987 1.386 . S
C986 C988 1.391 . S
C987 C986 1.386 . S
C987 C991 1.393 . S
C988 H977 0.950 . S
C988 C986 1.391 . S
C988 C989 1.400 . S
C989 C983 1.491 . S
C989 C988 1.400 . S
C989 C990 1.398 . S
C990 H978 0.950 . S
C990 C989 1.398 . S
C990 C991 1.391 . S
C991 H979 0.950 . S
C991 C987 1.393 . S
C991 C990 1.391 . S
H992 C1000 0.950 . S
H993 C1005 0.950 . S
H994 C1002 0.950 . S
H995 C1004 0.950 . S
H996 C1006 0.950 . S
H997 C1008 0.950 . S
H998 C1010 0.950 . S
H999 C1011 0.950 . S
C1000 H992 0.950 . S
C1000 C1001 1.386 . S
C1000 C1002 1.391 . S
C1001 C1000 1.386 . S
C1001 C1005 1.393 . S
C1002 H994 0.950 . S
C1002 C1000 1.391 . S
C1002 C1003 1.400 . S
C1003 C1002 1.400 . S
C1003 C1004 1.398 . S
C1003 C1009 1.491 . S
C1004 H995 0.950 . S
C1004 C1003 1.398 . S
C1004 C1005 1.391 . S
C1005 H993 0.950 . S
C1005 C1001 1.393 . S
C1005 C1004 1.391 . S
C1006 H996 0.950 . S
C1006 C1007 1.386 . S
C1006 C1008 1.391 . S
C1007 C1006 1.386 . S
C1007 C1011 1.393 . S
C1008 H997 0.950 . S
C1008 C1006 1.391 . S
C1008 C1009 1.400 . S
C1009 C1003 1.491 . S
C1009 C1008 1.400 . S
C1009 C1010 1.398 . S
C1010 H998 0.950 . S
C1010 C1009 1.398 . S
C1010 C1011 1.391 . S
C1011 H999 0.950 . S
C1011 C1007 1.393 . S
C1011 C1010 1.391 . S
H1012 C1020 0.950 . S
H1013 C1025 0.950 . S
H1014 C1022 0.950 . S
H1015 C1024 0.950 . S
H1016 C1026 0.950 . S
H1017 C1028 0.950 . S
H1018 C1030 0.950 . S
H1019 C1031 0.950 . S
C1020 H1012 0.950 . S
C1020 C1021 1.386 . S
C1020 C1022 1.391 . S
C1021 C1020 1.386 . S
C1021 C1025 1.393 . S
C1022 H1014 0.950 . S
C1022 C1020 1.391 . S
C1022 C1023 1.400 . S
C1023 C1022 1.400 . S
C1023 C1024 1.398 . S
C1023 C1029 1.491 . S
C1024 H1015 0.950 . S
C1024 C1023 1.398 . S
C1024 C1025 1.391 . S
C1025 H1013 0.950 . S
C1025 C1021 1.393 . S
C1025 C1024 1.391 . S
C1026 H1016 0.950 . S
C1026 C1027 1.386 . S
C1026 C1028 1.391 . S
C1027 C1026 1.386 . S
C1027 C1031 1.393 . S
C1028 H1017 0.950 . S
C1028 C1026 1.391 . S
C1028 C1029 1.400 . S
C1029 C1023 1.491 . S
C1029 C1028 1.400 . S
C1029 C1030 1.398 . S
C1030 H1018 0.950 . S
C1030 C1029 1.398 . S
C1030 C1031 1.391 . S
C1031 H1019 0.950 . S
C1031 C1027 1.393 . S
C1031 C1030 1.391 . S
H1032 C1040 0.950 . S
H1033 C1045 0.950 . S
H1034 C1042 0.950 . S
H1035 C1044 0.950 . S
H1036 C1046 0.950 . S
H1037 C1048 0.950 . S
H1038 C1050 0.950 . S
H1039 C1051 0.950 . S
C1040 H1032 0.950 . S
C1040 C1041 1.386 . S
C1040 C1042 1.391 . S
C1041 C1040 1.386 . S
C1041 C1045 1.393 . S
C1042 H1034 0.950 . S
C1042 C1040 1.391 . S
C1042 C1043 1.400 . S
C1043 C1042 1.400 . S
C1043 C1044 1.398 . S
C1043 C1049 1.491 . S
C1044 H1035 0.950 . S
C1044 C1043 1.398 . S
C1044 C1045 1.391 . S
C1045 H1033 0.950 . S
C1045 C1041 1.393 . S
C1045 C1044 1.391 . S
C1046 H1036 0.950 . S
C1046 C1047 1.386 . S
C1046 C1048 1.391 . S
C1047 C1046 1.386 . S
C1047 C1051 1.393 . S
C1048 H1037 0.950 . S
C1048 C1046 1.391 . S
C1048 C1049 1.400 . S
C1049 C1043 1.491 . S
C1049 C1048 1.400 . S
C1049 C1050 1.398 . S
C1050 H1038 0.950 . S
C1050 C1049 1.398 . S
C1050 C1051 1.391 . S
C1051 H1039 0.950 . S
C1051 C1047 1.393 . S
C1051 C1050 1.391 . S
H1052 C1060 0.950 . S
H1053 C1065 0.950 . S
H1054 C1062 0.950 . S
H1055 C1064 0.950 . S
H1056 C1066 0.950 . S
H1057 C1068 0.950 . S
H1058 C1070 0.950 . S
H1059 C1071 0.950 . S
C1060 H1052 0.950 . S
C1060 C1061 1.386 . S
C1060 C1062 1.391 . S
C1061 C1060 1.386 . S
C1061 C1065 1.393 . S
C1062 H1054 0.950 . S
C1062 C1060 1.391 . S
C1062 C1063 1.400 . S
C1063 C1062 1.400 . S
C1063 C1064 1.398 . S
C1063 C1069 1.491 . S
C1064 H1055 0.950 . S
C1064 C1063 1.398 . S
C1064 C1065 1.391 . S
C1065 H1053 0.950 . S
C1065 C1061 1.393 . S
C1065 C1064 1.391 . S
C1066 H1056 0.950 . S
C1066 C1067 1.386 . S
C1066 C1068 1.391 . S
C1067 C1066 1.386 . S
C1067 C1071 1.393 . S
C1068 H1057 0.950 . S
C1068 C1066 1.391 . S
C1068 C1069 1.400 . S
C1069 C1063 1.491 . S
C1069 C1068 1.400 . S
C1069 C1070 1.398 . S
C1070 H1058 0.950 . S
C1070 C1069 1.398 . S
C1070 C1071 1.391 . S
C1071 H1059 0.950 . S
C1071 C1067 1.393 . S
C1071 C1070 1.391 . S
H1072 C1080 0.950 . S
H1073 C1085 0.950 . S
H1074 C1082 0.950 . S
H1075 C1084 0.950 . S
H1076 C1086 0.950 . S
H1077 C1088 0.950 . S
H1078 C1090 0.950 . S
H1079 C1091 0.950 . S
C1080 H1072 0.950 . S
C1080 C1081 1.386 . S
C1080 C1082 1.391 . S
C1081 C1080 1.386 . S
C1081 C1085 1.393 . S
C1082 H1074 0.950 . S
C1082 C1080 1.391 . S
C1082 C1083 1.400 . S
C1083 C1082 1.400 . S
C1083 C1084 1.398 . S
C1083 C1089 1.491 . S
C1084 H1075 0.950 . S
C1084 C1083 1.398 . S
C1084 C1085 1.391 . S
C1085 H1073 0.950 . S
C1085 C1081 1.393 . S
C1085 C1084 1.391 . S
C1086 H1076 0.950 . S
C1086 C1087 1.386 . S
C1086 C1088 1.391 . S
C1087 C1086 1.386 . S
C1087 C1091 1.393 . S
C1088 H1077 0.950 . S
C1088 C1086 1.391 . S
C1088 C1089 1.400 . S
C1089 C1083 1.491 . S
C1089 C1088 1.400 . S
C1089 C1090 1.398 . S
C1090 H1078 0.950 . S
C1090 C1089 1.398 . S
C1090 C1091 1.391 . S
C1091 H1079 0.950 . S
C1091 C1087 1.393 . S
C1091 C1090 1.391 . S
H1092 C1100 0.950 . S
H1093 C1105 0.950 . S
H1094 C1102 0.950 . S
H1095 C1104 0.950 . S
H1096 C1106 0.950 . S
H1097 C1108 0.950 . S
H1098 C1110 0.950 . S
H1099 C1111 0.950 . S
C1100 H1092 0.950 . S
C1100 C1101 1.386 . S
C1100 C1102 1.391 . S
C1101 C1100 1.386 . S
C1101 C1105 1.393 . S
C1102 H1094 0.950 . S
C1102 C1100 1.391 . S
C1102 C1103 1.400 . S
C1103 C1102 1.400 . S
C1103 C1104 1.398 . S
C1103 C1109 1.491 . S
C1104 H1095 0.950 . S
C1104 C1103 1.398 . S
C1104 C1105 1.391 . S
C1105 H1093 0.950 . S
C1105 C1101 1.393 . S
C1105 C1104 1.391 . S
C1106 H1096 0.950 . S
C1106 C1107 1.386 . S
C1106 C1108 1.391 . S
C1107 C1106 1.386 . S
C1107 C1111 1.393 . S
C1108 H1097 0.950 . S
C1108 C1106 1.391 . S
C1108 C1109 1.400 . S
C1109 C1103 1.491 . S
C1109 C1108 1.400 . S
C1109 C1110 1.398 . S
C1110 H1098 0.950 . S
C1110 C1109 1.398 . S
C1110 C1111 1.391 . S
C1111 H1099 0.950 . S
C1111 C1107 1.393 . S
C1111 C1110 1.391 . S
H1112 C1120 0.950 . S
H1113 C1125 0.950 . S
H1114 C1122 0.950 . S
H1115 C1124 0.950 . S
H1116 C1126 0.950 . S
H1117 C1128 0.950 . S
H1118 C1130 0.950 . S
H1119 C1131 0.950 . S
C1120 H1112 0.950 . S
C1120 C1121 1.386 . S
C1120 C1122 1.391 . S
C1121 C1120 1.386 . S
C1121 C1125 1.393 . S
C1122 H1114 0.950 . S
C1122 C1120 1.391 . S
C1122 C1123 1.400 . S
C1123 C1122 1.400 . S
C1123 C1124 1.398 . S
C1123 C1129 1.491 . S
C1124 H1115 0.950 . S
C1124 C1123 1.398 . S
C1124 C1125 1.391 . S
C1125 H1113 0.950 . S
C1125 C1121 1.393 . S
C1125 C1124 1.391 . S
C1126 H1116 0.950 . S
C1126 C1127 1.386 . S
C1126 C1128 1.391 . S
C1127 C1126 1.386 . S
C1127 C1131 1.393 . S
C1128 H1117 0.950 . S
C1128 C1126 1.391 . S
C1128 C1129 1.400 . S
C1129 C1123 1.491 . S
C1129 C1128 1.400 . S
C1129 C1130 1.398 . S
C1130 H1118 0.950 . S
C1130 C1129 1.398 . S
C1130 C1131 1.391 . S
C1131 H1119 0.950 . S
C1131 C1127 1.393 . S
C1131 C1130 1.391 . S
H1132 C1140 0.950 . S
H1133 C1145 0.950 . S
H1134 C1142 0.950 . S
H1135 C1144 0.950 . S
H1136 C1146 0.950 . S
H1137 C1148 0.950 . S
H1138 C1150 0.950 . S
H1139 C1151 0.950 . S
C1140 H1132 0.950 . S
C1140 C1141 1.386 . S
C1140 C1142 1.391 . S
C1141 C1140 1.386 . S
C1141 C1145 1.393 . S
C1142 H1134 0.950 . S
C1142 C1140 1.391 . S
C1142 C1143 1.400 . S
C1143 C1142 1.400 . S
C1143 C1144 1.398 . S
C1143 C1149 1.491 . S
C1144 H1135 0.950 . S
C1144 C1143 1.398 . S
C1144 C1145 1.391 . S
C1145 H1133 0.950 . S
C1145 C1141 1.393 . S
C1145 C1144 1.391 . S
C1146 H1136 0.950 . S
C1146 C1147 1.386 . S
C1146 C1148 1.391 . S
C1147 C1146 1.386 . S
C1147 C1151 1.393 . S
C1148 H1137 0.950 . S
C1148 C1146 1.391 . S
C1148 C1149 1.400 . S
C1149 C1143 1.491 . S
C1149 C1148 1.400 . S
C1149 C1150 1.398 . S
C1150 H1138 0.950 . S
C1150 C1149 1.398 . S
C1150 C1151 1.391 . S
C1151 H1139 0.950 . S
C1151 C1147 1.393 . S
C1151 C1150 1.391 . S
H1152 C1160 0.950 . S
H1153 C1165 0.950 . S
H1154 C1162 0.950 . S
H1155 C1164 0.950 . S
H1156 C1166 0.950 . S
H1157 C1168 0.950 . S
H1158 C1170 0.950 . S
H1159 C1171 0.950 . S
C1160 H1152 0.950 . S
C1160 C1161 1.386 . S
C1160 C1162 1.391 . S
C1161 C1160 1.386 . S
C1161 C1165 1.393 . S
C1162 H1154 0.950 . S
C1162 C1160 1.391 . S
C1162 C1163 1.400 . S
C1163 C1162 1.400 . S
C1163 C1164 1.398 . S
C1163 C1169 1.491 . S
C1164 H1155 0.950 . S
C1164 C1163 1.398 . S
C1164 C1165 1.391 . S
C1165 H1153 0.950 . S
C1165 C1161 1.393 . S
C1165 C1164 1.391 . S
C1166 H1156 0.950 . S
C1166 C1167 1.386 . S
C1166 C1168 1.391 . S
C1167 C1166 1.386 . S
C1167 C1171 1.393 . S
C1168 H1157 0.950 . S
C1168 C1166 1.391 . S
C1168 C1169 1.400 . S
C1169 C1163 1.491 . S
C1169 C1168 1.400 . S
C1169 C1170 1.398 . S
C1170 H1158 0.950 . S
C1170 C1169 1.398 . S
C1170 C1171 1.391 . S
C1171 H1159 0.950 . S
C1171 C1167 1.393 . S
C1171 C1170 1.391 . S
H1172 C1180 0.950 . S
H1173 C1185 0.950 . S
H1174 C1182 0.950 . S
H1175 C1184 0.950 . S
H1176 C1186 0.950 . S
H1177 C1188 0.950 . S
H1178 C1190 0.950 . S
H1179 C1191 0.950 . S
C1180 H1172 0.950 . S
C1180 C1181 1.386 . S
C1180 C1182 1.391 . S
C1181 C1180 1.386 . S
C1181 C1185 1.393 . S
C1182 H1174 0.950 . S
C1182 C1180 1.391 . S
C1182 C1183 1.400 . S
C1183 C1182 1.400 . S
C1183 C1184 1.398 . S
C1183 C1189 1.491 . S
C1184 H1175 0.950 . S
C1184 C1183 1.398 . S
C1184 C1185 1.391 . S
C1185 H1173 0.950 . S
C1185 C1181 1.393 . S
C1185 C1184 1.391 . S
C1186 H1176 0.950 . S
C1186 C1187 1.386 . S
C1186 C1188 1.391 . S
C1187 C1186 1.386 . S
C1187 C1191 1.393 . S
C1188 H1177 0.950 . S
C1188 C1186 1.391 . S
C1188 C1189 1.400 . S
C1189 C1183 1.491 . S
C1189 C1188 1.400 . S
C1189 C1190 1.398 . S
C1190 H1178 0.950 . S
C1190 C1189 1.398 . S
C1190 C1191 1.391 . S
C1191 H1179 0.950 . S
C1191 C1187 1.393 . S
C1191 C1190 1.391 . S
H1192 C1200 0.950 . S
H1193 C1205 0.950 . S
H1194 C1202 0.950 . S
H1195 C1204 0.950 . S
H1196 C1206 0.950 . S
H1197 C1208 0.950 . S
H1198 C1210 0.950 . S
H1199 C1211 0.950 . S
C1200 H1192 0.950 . S
C1200 C1201 1.386 . S
C1200 C1202 1.391 . S
C1201 C1200 1.386 . S
C1201 C1205 1.393 . S
C1202 H1194 0.950 . S
C1202 C1200 1.391 . S
C1202 C1203 1.400 . S
C1203 C1202 1.400 . S
C1203 C1204 1.398 . S
C1203 C1209 1.491 . S
C1204 H1195 0.950 . S
C1204 C1203 1.398 . S
C1204 C1205 1.391 . S
C1205 H1193 0.950 . S
C1205 C1201 1.393 . S
C1205 C1204 1.391 . S
C1206 H1196 0.950 . S
C1206 C1207 1.386 . S
C1206 C1208 1.391 . S
C1207 C1206 1.386 . S
C1207 C1211 1.393 . S
C1208 H1197 0.950 . S
C1208 C1206 1.391 . S
C1208 C1209 1.400 . S
C1209 C1203 1.491 . S
C1209 C1208 1.400 . S
C1209 C1210 1.398 . S
C1210 H1198 0.950 . S
C1210 C1209 1.398 . S
C1210 C1211 1.391 . S
C1211 H1199 0.950 . S
C1211 C1207 1.393 . S
C1211 C1210 1.391 . S
H1212 C1220 0.950 . S
H1213 C1225 0.950 . S
H1214 C1222 0.950 . S
H1215 C1224 0.950 . S
H1216 C1226 0.950 . S
H1217 C1228 0.950 . S
H1218 C1230 0.950 . S
H1219 C1231 0.950 . S
C1220 H1212 0.950 . S
C1220 C1221 1.386 . S
C1220 C1222 1.391 . S
C1221 C1220 1.386 . S
C1221 C1225 1.393 . S
C1222 H1214 0.950 . S
C1222 C1220 1.391 . S
C1222 C1223 1.400 . S
C1223 C1222 1.400 . S
C1223 C1224 1.398 . S
C1223 C1229 1.491 . S
C1224 H1215 0.950 . S
C1224 C1223 1.398 . S
C1224 C1225 1.391 . S
C1225 H1213 0.950 . S
C1225 C1221 1.393 . S
C1225 C1224 1.391 . S
C1226 H1216 0.950 . S
C1226 C1227 1.386 . S
C1226 C1228 1.391 . S
C1227 C1226 1.386 . S
C1227 C1231 1.393 . S
C1228 H1217 0.950 . S
C1228 C1226 1.391 . S
C1228 C1229 1.400 . S
C1229 C1223 1.491 . S
C1229 C1228 1.400 . S
C1229 C1230 1.398 . S
C1230 H1218 0.950 . S
C1230 C1229 1.398 . S
C1230 C1231 1.391 . S
C1231 H1219 0.950 . S
C1231 C1227 1.393 . S
C1231 C1230 1.391 . S
H1232 C1240 0.950 . S
H1233 C1245 0.950 . S
H1234 C1242 0.950 . S
H1235 C1244 0.950 . S
H1236 C1246 0.950 . S
H1237 C1248 0.950 . S
H1238 C1250 0.950 . S
H1239 C1251 0.950 . S
C1240 H1232 0.950 . S
C1240 C1241 1.386 . S
C1240 C1242 1.391 . S
C1241 C1240 1.386 . S
C1241 C1245 1.393 . S
C1242 H1234 0.950 . S
C1242 C1240 1.391 . S
C1242 C1243 1.400 . S
C1243 C1242 1.400 . S
C1243 C1244 1.398 . S
C1243 C1249 1.491 . S
C1244 H1235 0.950 . S
C1244 C1243 1.398 . S
C1244 C1245 1.391 . S
C1245 H1233 0.950 . S
C1245 C1241 1.393 . S
C1245 C1244 1.391 . S
C1246 H1236 0.950 . S
C1246 C1247 1.386 . S
C1246 C1248 1.391 . S
C1247 C1246 1.386 . S
C1247 C1251 1.393 . S
C1248 H1237 0.950 . S
C1248 C1246 1.391 . S
C1248 C1249 1.400 . S
C1249 C1243 1.491 . S
C1249 C1248 1.400 . S
C1249 C1250 1.398 . S
C1250 H1238 0.950 . S
C1250 C1249 1.398 . S
C1250 C1251 1.391 . S
C1251 H1239 0.950 . S
C1251 C1247 1.393 . S
C1251 C1250 1.391 . S
H1252 C1260 0.950 . S
H1253 C1265 0.950 . S
H1254 C1262 0.950 . S
H1255 C1264 0.950 . S
H1256 C1266 0.950 . S
H1257 C1268 0.950 . S
H1258 C1270 0.950 . S
H1259 C1271 0.950 . S
C1260 H1252 0.950 . S
C1260 C1261 1.386 . S
C1260 C1262 1.391 . S
C1261 C1260 1.386 . S
C1261 C1265 1.393 . S
C1262 H1254 0.950 . S
C1262 C1260 1.391 . S
C1262 C1263 1.400 . S
C1263 C1262 1.400 . S
C1263 C1264 1.398 . S
C1263 C1269 1.491 . S
C1264 H1255 0.950 . S
C1264 C1263 1.398 . S
C1264 C1265 1.391 . S
C1265 H1253 0.950 . S
C1265 C1261 1.393 . S
C1265 C1264 1.391 . S
C1266 H1256 0.950 . S
C1266 C1267 1.386 . S
C1266 C1268 1.391 . S
C1267 C1266 1.386 . S
C1267 C1271 1.393 . S
C1268 H1257 0.950 . S
C1268 C1266 1.391 . S
C1268 C1269 1.400 . S
C1269 C1263 1.491 . S
C1269 C1268 1.400 . S
C1269 C1270 1.398 . S
C1270 H1258 0.950 . S
C1270 C1269 1.398 . S
C1270 C1271 1.391 . S
C1271 H1259 0.950 . S
C1271 C1267 1.393 . S
C1271 C1270 1.391 . S
H1272 C1280 0.950 . S
H1273 C1285 0.950 . S
H1274 C1282 0.950 . S
H1275 C1284 0.950 . S
H1276 C1286 0.950 . S
H1277 C1288 0.950 . S
H1278 C1290 0.950 . S
H1279 C1291 0.950 . S
C1280 H1272 0.950 . S
C1280 C1281 1.386 . S
C1280 C1282 1.391 . S
C1281 C1280 1.386 . S
C1281 C1285 1.393 . S
C1282 H1274 0.950 . S
C1282 C1280 1.391 . S
C1282 C1283 1.400 . S
C1283 C1282 1.400 . S
C1283 C1284 1.398 . S
C1283 C1289 1.491 . S
C1284 H1275 0.950 . S
C1284 C1283 1.398 . S
C1284 C1285 1.391 . S
C1285 H1273 0.950 . S
C1285 C1281 1.393 . S
C1285 C1284 1.391 . S
C1286 H1276 0.950 . S
C1286 C1287 1.386 . S
C1286 C1288 1.391 . S
C1287 C1286 1.386 . S
C1287 C1291 1.393 . S
C1288 H1277 0.950 . S
C1288 C1286 1.391 . S
C1288 C1289 1.400 . S
C1289 C1283 1.491 . S
C1289 C1288 1.400 . S
C1289 C1290 1.398 . S
C1290 H1278 0.950 . S
C1290 C1289 1.398 . S
C1290 C1291 1.391 . S
C1291 H1279 0.950 . S
C1291 C1287 1.393 . S
C1291 C1290 1.391 . S
H1292 C1300 0.950 . S
H1293 C1305 0.950 . S
H1294 C1302 0.950 . S
H1295 C1304 0.950 . S
H1296 C1306 0.950 . S
H1297 C1308 0.950 . S
H1298 C1310 0.950 . S
H1299 C1311 0.950 . S
C1300 H1292 0.950 . S
C1300 C1301 1.386 . S
C1300 C1302 1.391 . S
C1301 C1300 1.386 . S
C1301 C1305 1.393 . S
C1302 H1294 0.950 . S
C1302 C1300 1.391 . S
C1302 C1303 1.400 . S
C1303 C1302 1.400 . S
C1303 C1304 1.398 . S
C1303 C1309 1.491 . S
C1304 H1295 0.950 . S
C1304 C1303 1.398 . S
C1304 C1305 1.391 . S
C1305 H1293 0.950 . S
C1305 C1301 1.393 . S
C1305 C1304 1.391 . S
C1306 H1296 0.950 . S
C1306 C1307 1.386 . S
C1306 C1308 1.391 . S
C1307 C1306 1.386 . S
C1307 C1311 1.393 . S
C1308 H1297 0.950 . S
C1308 C1306 1.391 . S
C1308 C1309 1.400 . S
C1309 C1303 1.491 . S
C1309 C1308 1.400 . S
C1309 C1310 1.398 . S
C1310 H1298 0.950 . S
C1310 C1309 1.398 . S
C1310 C1311 1.391 . S
C1311 H1299 0.950 . S
C1311 C1307 1.393 . S
C1311 C1310 1.391 . S
H1312 C1320 0.950 . S
H1313 C1325 0.950 . S
H1314 C1322 0.950 . S
H1315 C1324 0.950 . S
H1316 C1326 0.950 . S
H1317 C1328 0.950 . S
H1318 C1330 0.950 . S
H1319 C1331 0.950 . S
C1320 H1312 0.950 . S
C1320 C1321 1.386 . S
C1320 C1322 1.391 . S
C1321 C1320 1.386 . S
C1321 C1325 1.393 . S
C1322 H1314 0.950 . S
C1322 C1320 1.391 . S
C1322 C1323 1.400 . S
C1323 C1322 1.400 . S
C1323 C1324 1.398 . S
C1323 C1329 1.491 . S
C1324 H1315 0.950 . S
C1324 C1323 1.398 . S
C1324 C1325 1.391 . S
C1325 H1313 0.950 . S
C1325 C1321 1.393 . S
C1325 C1324 1.391 . S
C1326 H1316 0.950 . S
C1326 C1327 1.386 . S
C1326 C1328 1.391 . S
C1327 C1326 1.386 . S
C1327 C1331 1.393 . S
C1328 H1317 0.950 . S
C1328 C1326 1.391 . S
C1328 C1329 1.400 . S
C1329 C1323 1.491 . S
C1329 C1328 1.400 . S
C1329 C1330 1.398 . S
C1330 H1318 0.950 . S
C1330 C1329 1.398 . S
C1330 C1331 1.391 . S
C1331 H1319 0.950 . S
C1331 C1327 1.393 . S
C1331 C1330 1.391 . S
H1332 C1340 0.950 . S
H1333 C1345 0.950 . S
H1334 C1342 0.950 . S
H1335 C1344 0.950 . S
H1336 C1346 0.950 . S
H1337 C1348 0.950 . S
H1338 C1350 0.950 . S
H1339 C1351 0.950 . S
C1340 H1332 0.950 . S
C1340 C1341 1.386 . S
C1340 C1342 1.391 . S
C1341 C1340 1.386 . S
C1341 C1345 1.393 . S
C1342 H1334 0.950 . S
C1342 C1340 1.391 . S
C1342 C1343 1.400 . S
C1343 C1342 1.400 . S
C1343 C1344 1.398 . S
C1343 C1349 1.491 . S
C1344 H1335 0.950 . S
C1344 C1343 1.398 . S
C1344 C1345 1.391 . S
C1345 H1333 0.950 . S
C1345 C1341 1.393 . S
C1345 C1344 1.391 . S
C1346 H1336 0.950 . S
C1346 C1347 1.386 . S
C1346 C1348 1.391 . S
C1347 C1346 1.386 . S
C1347 C1351 1.393 . S
C1348 H1337 0.950 . S
C1348 C1346 1.391 . S
C1348 C1349 1.400 . S
C1349 C1343 1.491 . S
C1349 C1348 1.400 . S
C1349 C1350 1.398 . S
C1350 H1338 0.950 . S
C1350 C1349 1.398 . S
C1350 C1351 1.391 . S
C1351 H1339 0.950 . S
C1351 C1347 1.393 . S
C1351 C1350 1.391 . S
H1352 C1360 0.950 . S
H1353 C1365 0.950 . S
H1354 C1362 0.950 . S
H1355 C1364 0.950 . S
H1356 C1366 0.950 . S
H1357 C1368 0.950 . S
H1358 C1370 0.950 . S
H1359 C1371 0.950 . S
C1360 H1352 0.950 . S
C1360 C1361 1.386 . S
C1360 C1362 1.391 . S
C1361 C1360 1.386 . S
C1361 C1365 1.393 . S
C1362 H1354 0.950 . S
C1362 C1360 1.391 . S
C1362 C1363 1.400 . S
C1363 C1362 1.400 . S
C1363 C1364 1.398 . S
C1363 C1369 1.491 . S
C1364 H1355 0.950 . S
C1364 C1363 1.398 . S
C1364 C1365 1.391 . S
C1365 H1353 0.950 . S
C1365 C1361 1.393 . S
C1365 C1364 1.391 . S
C1366 H1356 0.950 . S
C1366 C1367 1.386 . S
C1366 C1368 1.391 . S
C1367 C1366 1.386 . S
C1367 C1371 1.393 . S
C1368 H1357 0.950 . S
C1368 C1366 1.391 . S
C1368 C1369 1.400 . S
C1369 C1363 1.491 . S
C1369 C1368 1.400 . S
C1369 C1370 1.398 . S
C1370 H1358 0.950 . S
C1370 C1369 1.398 . S
C1370 C1371 1.391 . S
C1371 H1359 0.950 . S
C1371 C1367 1.393 . S
C1371 C1370 1.391 . S
H1372 C1380 0.950 . S
H1373 C1385 0.950 . S
H1374 C1382 0.950 . S
H1375 C1384 0.950 . S
H1376 C1386 0.950 . S
H1377 C1388 0.950 . S
H1378 C1390 0.950 . S
H1379 C1391 0.950 . S
C1380 H1372 0.950 . S
C1380 C1381 1.386 . S
C1380 C1382 1.391 . S
C1381 C1380 1.386 . S
C1381 C1385 1.393 . S
C1382 H1374 0.950 . S
C1382 C1380 1.391 . S
C1382 C1383 1.400 . S
C1383 C1382 1.400 . S
C1383 C1384 1.398 . S
C1383 C1389 1.491 . S
C1384 H1375 0.950 . S
C1384 C1383 1.398 . S
C1384 C1385 1.391 . S
C1385 H1373 0.950 . S
C1385 C1381 1.393 . S
C1385 C1384 1.391 . S
C1386 H1376 0.950 . S
C1386 C1387 1.386 . S
C1386 C1388 1.391 . S
C1387 C1386 1.386 . S
C1387 C1391 1.393 . S
C1388 H1377 0.950 . S
C1388 C1386 1.391 . S
C1388 C1389 1.400 . S
C1389 C1383 1.491 . S
C1389 C1388 1.400 . S
C1389 C1390 1.398 . S
C1390 H1378 0.950 . S
C1390 C1389 1.398 . S
C1390 C1391 1.391 . S
C1391 H1379 0.950 . S
C1391 C1387 1.393 . S
C1391 C1390 1.391 . S
H1392 C1400 0.950 . S
H1393 C1405 0.950 . S
H1394 C1402 0.950 . S
H1395 C1404 0.950 . S
H1396 C1406 0.950 . S
H1397 C1408 0.950 . S
H1398 C1410 0.950 . S
H1399 C1411 0.950 . S
C1400 H1392 0.950 . S
C1400 C1401 1.386 . S
C1400 C1402 1.391 . S
C1401 C1400 1.386 . S
C1401 C1405 1.393 . S
C1402 H1394 0.950 . S
C1402 C1400 1.391 . S
C1402 C1403 1.400 . S
C1403 C1402 1.400 . S
C1403 C1404 1.398 . S
C1403 C1409 1.491 . S
C1404 H1395 0.950 . S
C1404 C1403 1.398 . S
C1404 C1405 1.391 . S
C1405 H1393 0.950 . S
C1405 C1401 1.393 . S
C1405 C1404 1.391 . S
C1406 H1396 0.950 . S
C1406 C1407 1.386 . S
C1406 C1408 1.391 . S
C1407 C1406 1.386 . S
C1407 C1411 1.393 . S
C1408 H1397 0.950 . S
C1408 C1406 1.391 . S
C1408 C1409 1.400 . S
C1409 C1403 1.491 . S
C1409 C1408 1.400 . S
C1409 C1410 1.398 . S
C1410 H1398 0.950 . S
C1410 C1409 1.398 . S
C1410 C1411 1.391 . S
C1411 H1399 0.950 . S
C1411 C1407 1.393 . S
C1411 C1410 1.391 . S
H1412 C1420 0.950 . S
H1413 C1425 0.950 . S
H1414 C1422 0.950 . S
H1415 C1424 0.950 . S
H1416 C1426 0.950 . S
H1417 C1428 0.950 . S
H1418 C1430 0.950 . S
H1419 C1431 0.950 . S
C1420 H1412 0.950 . S
C1420 C1421 1.386 . S
C1420 C1422 1.391 . S
C1421 C1420 1.386 . S
C1421 C1425 1.393 . S
C1422 H1414 0.950 . S
C1422 C1420 1.391 . S
C1422 C1423 1.400 . S
C1423 C1422 1.400 . S
C1423 C1424 1.398 . S
C1423 C1429 1.491 . S
C1424 H1415 0.950 . S
C1424 C1423 1.398 . S
C1424 C1425 1.391 . S
C1425 H1413 0.950 . S
C1425 C1421 1.393 . S
C1425 C1424 1.391 . S
C1426 H1416 0.950 . S
C1426 C1427 1.386 . S
C1426 C1428 1.391 . S
C1427 C1426 1.386 . S
C1427 C1431 1.393 . S
C1428 H1417 0.950 . S
C1428 C1426 1.391 . S
C1428 C1429 1.400 . S
C1429 C1423 1.491 . S
C1429 C1428 1.400 . S
C1429 C1430 1.398 . S
C1430 H1418 0.950 . S
C1430 C1429 1.398 . S
C1430 C1431 1.391 . S
C1431 H1419 0.950 . S
C1431 C1427 1.393 . S
C1431 C1430 1.391 . S
H1432 C1440 0.950 . S
H1433 C1445 0.950 . S
H1434 C1442 0.950 . S
H1435 C1444 0.950 . S
H1436 C1446 0.950 . S
H1437 C1448 0.950 . S
H1438 C1450 0.950 . S
H1439 C1451 0.950 . S
C1440 H1432 0.950 . S
C1440 C1441 1.386 . S
C1440 C1442 1.391 . S
C1441 C1440 1.386 . S
C1441 C1445 1.393 . S
C1442 H1434 0.950 . S
C1442 C1440 1.391 . S
C1442 C1443 1.400 . S
C1443 C1442 1.400 . S
C1443 C1444 1.398 . S
C1443 C1449 1.491 . S
C1444 H1435 0.950 . S
C1444 C1443 1.398 . S
C1444 C1445 1.391 . S
C1445 H1433 0.950 . S
C1445 C1441 1.393 . S
C1445 C1444 1.391 . S
C1446 H1436 0.950 . S
C1446 C1447 1.386 . S
C1446 C1448 1.391 . S
C1447 C1446 1.386 . S
C1447 C1451 1.393 . S
C1448 H1437 0.950 . S
C1448 C1446 1.391 . S
C1448 C1449 1.400 . S
C1449 C1443 1.491 . S
C1449 C1448 1.400 . S
C1449 C1450 1.398 . S
C1450 H1438 0.950 . S
C1450 C1449 1.398 . S
C1450 C1451 1.391 . S
C1451 H1439 0.950 . S
C1451 C1447 1.393 . S
C1451 C1450 1.391 . S
H1452 C1460 0.950 . S
H1453 C1465 0.950 . S
H1454 C1462 0.950 . S
H1455 C1464 0.950 . S
H1456 C1466 0.950 . S
H1457 C1468 0.950 . S
H1458 C1470 0.950 . S
H1459 C1471 0.950 . S
C1460 H1452 0.950 . S
C1460 C1461 1.386 . S
C1460 C1462 1.391 . S
C1461 C1460 1.386 . S
C1461 C1465 1.393 . S
C1462 H1454 0.950 . S
C1462 C1460 1.391 . S
C1462 C1463 1.400 . S
C1463 C1462 1.400 . S
C1463 C1464 1.398 . S
C1463 C1469 1.491 . S
C1464 H1455 0.950 . S
C1464 C1463 1.398 . S
C1464 C1465 1.391 . S
C1465 H1453 0.950 . S
C1465 C1461 1.393 . S
C1465 C1464 1.391 . S
C1466 H1456 0.950 . S
C1466 C1467 1.386 . S
C1466 C1468 1.391 . S
C1467 C1466 1.386 . S
C1467 C1471 1.393 . S
C1468 H1457 0.950 . S
C1468 C1466 1.391 . S
C1468 C1469 1.400 . S
C1469 C1463 1.491 . S
C1469 C1468 1.400 . S
C1469 C1470 1.398 . S
C1470 H1458 0.950 . S
C1470 C1469 1.398 . S
C1470 C1471 1.391 . S
C1471 H1459 0.950 . S
C1471 C1467 1.393 . S
C1471 C1470 1.391 . S
C527 C337 1.822 . S
C521 C2 1.830 . S
C547 C342 1.215 . S
C541 C48 1.238 . S
C567 C343 1.391 . S
C561 C97 1.412 . S
C581 C149 0.537 . S
C587 C347 0.614 . S
C601 C189 1.262 . S
C607 C350 1.244 . S
C627 C351 1.404 . S
C621 C202 1.406 . S
C641 C248 0.527 . S
C647 C328 0.645 . S
C661 C297 1.836 . S
C667 C344 1.825 . S
C687 C382 2.597 . S
C681 C31 2.682 . S
C701 C52 1.677 . S
C707 C408 1.632 . S
C727 C360 1.222 . S
C721 C88 1.230 . S
C747 C415 1.325 . S
C741 C122 1.333 . S
C761 C162 1.399 . S
C767 C369 1.374 . S
C787 C411 2.575 . S
C781 C231 2.661 . S
C801 C252 1.701 . S
C807 C375 1.664 . S
C821 C288 1.261 . S
C827 C406 1.254 . S
C841 C29 1.267 . S
C847 C414 1.260 . S
C861 C191 1.680 . S
C867 C401 1.650 . S
C887 C379 1.229 . S
C881 C229 1.233 . S
C907 C407 1.333 . S
C901 C257 1.352 . S
C921 C292 2.686 . S
C927 C374 2.585 . S
C941 C92 2.662 . S
C947 C392 2.576 . S
C967 C383 1.678 . S
C961 C151 1.703 . S
C981 C57 1.395 . S
C987 C376 1.380 . S
C1001 C282 1.805 . S
C1007 C438 1.767 . S
C1021 C168 1.220 . S
C1027 C433 1.201 . S
C1047 C447 1.307 . S
C1041 C217 1.392 . S
C1067 C424 0.186 . S
C1061 C269 0.556 . S
C1081 C69 1.215 . S
C1087 C440 1.170 . S
C1107 C439 1.304 . S
C1101 C82 1.389 . S
C1121 C128 0.554 . S
C1127 C443 0.206 . S
C1141 C17 1.799 . S
C1147 C446 1.750 . S
C1161 C311 2.697 . S
C1167 C472 2.662 . S
C1187 C488 1.620 . S
C1181 C172 1.687 . S
C1201 C208 1.239 . S
C1207 C470 1.237 . S
C1221 C242 1.365 . S
C1227 C503 1.334 . S
C1247 C479 1.347 . S
C1241 C42 1.376 . S
C1261 C111 2.698 . S
C1267 C497 2.643 . S
C1287 C475 1.612 . S
C1281 C132 1.677 . S
C1307 C510 1.253 . S
C1301 C8 1.294 . S
C1327 C502 1.256 . S
C1321 C309 1.302 . S
C1341 C71 1.680 . S
C1347 C507 1.631 . S
C1361 C109 1.258 . S
C1367 C478 1.243 . S
C1387 C511 1.336 . S
C1381 C137 1.366 . S
C1401 C12 2.694 . S
C1407 C465 2.667 . S
C1421 C212 2.703 . S
C1427 C504 2.647 . S
C1447 C456 1.606 . S
C1441 C271 1.687 . S
C1467 C471 1.346 . S
C1461 C177 1.372 . S
