# Generated by pormake.
# Topology gar, (4,6)-cn, num edge types: 1
# Building blocks:
#     Node 0, Type 0, BuildingBlock: NAHDIM_clean_sbu_0, # of connection points: 4
#     Node 1, Type 0, BuildingBlock: NAHDIM_clean_sbu_0, # of connection points: 4
#     Node 2, Type 0, BuildingBlock: NAHDIM_clean_sbu_0, # of connection points: 4
#     Node 3, Type 0, BuildingBlock: NAHDIM_clean_sbu_0, # of connection points: 4
#     Node 4, Type 0, BuildingBlock: NAHDIM_clean_sbu_0, # of connection points: 4
#     Node 5, Type 0, BuildingBlock: NAHDIM_clean_sbu_0, # of connection points: 4
#     Node 6, Type 0, BuildingBlock: NAHDIM_clean_sbu_0, # of connection points: 4
#     Node 7, Type 0, BuildingBlock: NAHDIM_clean_sbu_0, # of connection points: 4
#     Node 8, Type 0, BuildingBlock: NAHDIM_clean_sbu_0, # of connection points: 4
#     Node 9, Type 0, BuildingBlock: NAHDIM_clean_sbu_0, # of connection points: 4
#     Node 10, Type 0, BuildingBlock: NAHDIM_clean_sbu_0, # of connection points: 4
#     Node 11, Type 0, BuildingBlock: NAHDIM_clean_sbu_0, # of connection points: 4
#     Node 12, Type 0, BuildingBlock: NAHDIM_clean_sbu_0, # of connection points: 4
#     Node 13, Type 0, BuildingBlock: NAHDIM_clean_sbu_0, # of connection points: 4
#     Node 14, Type 0, BuildingBlock: NAHDIM_clean_sbu_0, # of connection points: 4
#     Node 15, Type 0, BuildingBlock: NAHDIM_clean_sbu_0, # of connection points: 4
#     Node 16, Type 0, BuildingBlock: NAHDIM_clean_sbu_0, # of connection points: 4
#     Node 17, Type 0, BuildingBlock: NAHDIM_clean_sbu_0, # of connection points: 4
#     Node 18, Type 0, BuildingBlock: NAHDIM_clean_sbu_0, # of connection points: 4
#     Node 19, Type 0, BuildingBlock: NAHDIM_clean_sbu_0, # of connection points: 4
#     Node 20, Type 0, BuildingBlock: NAHDIM_clean_sbu_0, # of connection points: 4
#     Node 21, Type 0, BuildingBlock: NAHDIM_clean_sbu_0, # of connection points: 4
#     Node 22, Type 0, BuildingBlock: NAHDIM_clean_sbu_0, # of connection points: 4
#     Node 23, Type 0, BuildingBlock: NAHDIM_clean_sbu_0, # of connection points: 4
#     Node 24, Type 1, BuildingBlock: MIFKUJ_clean_sbu_0, # of connection points: 6
#     Node 25, Type 1, BuildingBlock: MIFKUJ_clean_sbu_0, # of connection points: 6
#     Node 26, Type 1, BuildingBlock: MIFKUJ_clean_sbu_0, # of connection points: 6
#     Node 27, Type 1, BuildingBlock: MIFKUJ_clean_sbu_0, # of connection points: 6
#     Node 28, Type 1, BuildingBlock: MIFKUJ_clean_sbu_0, # of connection points: 6
#     Node 29, Type 1, BuildingBlock: MIFKUJ_clean_sbu_0, # of connection points: 6
#     Node 30, Type 1, BuildingBlock: MIFKUJ_clean_sbu_0, # of connection points: 6
#     Node 31, Type 1, BuildingBlock: MIFKUJ_clean_sbu_0, # of connection points: 6
#     Node 32, Type 1, BuildingBlock: MIFKUJ_clean_sbu_0, # of connection points: 6
#     Node 33, Type 1, BuildingBlock: MIFKUJ_clean_sbu_0, # of connection points: 6
#     Node 34, Type 1, BuildingBlock: MIFKUJ_clean_sbu_0, # of connection points: 6
#     Node 35, Type 1, BuildingBlock: MIFKUJ_clean_sbu_0, # of connection points: 6
#     Node 36, Type 1, BuildingBlock: MIFKUJ_clean_sbu_0, # of connection points: 6
#     Node 37, Type 1, BuildingBlock: MIFKUJ_clean_sbu_0, # of connection points: 6
#     Node 38, Type 1, BuildingBlock: MIFKUJ_clean_sbu_0, # of connection points: 6
#     Node 39, Type 1, BuildingBlock: MIFKUJ_clean_sbu_0, # of connection points: 6
#     Edge 40, Type (0, 1), BuildingBlock: AJUNOK_clean_linker_0, # of connection points: 2
#     Edge 41, Type (0, 1), BuildingBlock: AJUNOK_clean_linker_0, # of connection points: 2
#     Edge 42, Type (0, 1), BuildingBlock: AJUNOK_clean_linker_0, # of connection points: 2
#     Edge 43, Type (0, 1), BuildingBlock: AJUNOK_clean_linker_0, # of connection points: 2
#     Edge 44, Type (0, 1), BuildingBlock: AJUNOK_clean_linker_0, # of connection points: 2
#     Edge 45, Type (0, 1), BuildingBlock: AJUNOK_clean_linker_0, # of connection points: 2
#     Edge 46, Type (0, 1), BuildingBlock: AJUNOK_clean_linker_0, # of connection points: 2
#     Edge 47, Type (0, 1), BuildingBlock: AJUNOK_clean_linker_0, # of connection points: 2
#     Edge 48, Type (0, 1), BuildingBlock: AJUNOK_clean_linker_0, # of connection points: 2
#     Edge 49, Type (0, 1), BuildingBlock: AJUNOK_clean_linker_0, # of connection points: 2
#     Edge 50, Type (0, 1), BuildingBlock: AJUNOK_clean_linker_0, # of connection points: 2
#     Edge 51, Type (0, 1), BuildingBlock: AJUNOK_clean_linker_0, # of connection points: 2
#     Edge 52, Type (0, 1), BuildingBlock: AJUNOK_clean_linker_0, # of connection points: 2
#     Edge 53, Type (0, 1), BuildingBlock: AJUNOK_clean_linker_0, # of connection points: 2
#     Edge 54, Type (0, 1), BuildingBlock: AJUNOK_clean_linker_0, # of connection points: 2
#     Edge 55, Type (0, 1), BuildingBlock: AJUNOK_clean_linker_0, # of connection points: 2
#     Edge 56, Type (0, 1), BuildingBlock: AJUNOK_clean_linker_0, # of connection points: 2
#     Edge 57, Type (0, 1), BuildingBlock: AJUNOK_clean_linker_0, # of connection points: 2
#     Edge 58, Type (0, 1), BuildingBlock: AJUNOK_clean_linker_0, # of connection points: 2
#     Edge 59, Type (0, 1), BuildingBlock: AJUNOK_clean_linker_0, # of connection points: 2
#     Edge 60, Type (0, 1), BuildingBlock: AJUNOK_clean_linker_0, # of connection points: 2
#     Edge 61, Type (0, 1), BuildingBlock: AJUNOK_clean_linker_0, # of connection points: 2
#     Edge 62, Type (0, 1), BuildingBlock: AJUNOK_clean_linker_0, # of connection points: 2
#     Edge 63, Type (0, 1), BuildingBlock: AJUNOK_clean_linker_0, # of connection points: 2
#     Edge 64, Type (0, 1), BuildingBlock: AJUNOK_clean_linker_0, # of connection points: 2
#     Edge 65, Type (0, 1), BuildingBlock: AJUNOK_clean_linker_0, # of connection points: 2
#     Edge 66, Type (0, 1), BuildingBlock: AJUNOK_clean_linker_0, # of connection points: 2
#     Edge 67, Type (0, 1), BuildingBlock: AJUNOK_clean_linker_0, # of connection points: 2
#     Edge 68, Type (0, 1), BuildingBlock: AJUNOK_clean_linker_0, # of connection points: 2
#     Edge 69, Type (0, 1), BuildingBlock: AJUNOK_clean_linker_0, # of connection points: 2
#     Edge 70, Type (0, 1), BuildingBlock: AJUNOK_clean_linker_0, # of connection points: 2
#     Edge 71, Type (0, 1), BuildingBlock: AJUNOK_clean_linker_0, # of connection points: 2
#     Edge 72, Type (0, 1), BuildingBlock: AJUNOK_clean_linker_0, # of connection points: 2
#     Edge 73, Type (0, 1), BuildingBlock: AJUNOK_clean_linker_0, # of connection points: 2
#     Edge 74, Type (0, 1), BuildingBlock: AJUNOK_clean_linker_0, # of connection points: 2
#     Edge 75, Type (0, 1), BuildingBlock: AJUNOK_clean_linker_0, # of connection points: 2
#     Edge 76, Type (0, 1), BuildingBlock: AJUNOK_clean_linker_0, # of connection points: 2
#     Edge 77, Type (0, 1), BuildingBlock: AJUNOK_clean_linker_0, # of connection points: 2
#     Edge 78, Type (0, 1), BuildingBlock: AJUNOK_clean_linker_0, # of connection points: 2
#     Edge 79, Type (0, 1), BuildingBlock: AJUNOK_clean_linker_0, # of connection points: 2
#     Edge 80, Type (0, 1), BuildingBlock: AJUNOK_clean_linker_0, # of connection points: 2
#     Edge 81, Type (0, 1), BuildingBlock: AJUNOK_clean_linker_0, # of connection points: 2
#     Edge 82, Type (0, 1), BuildingBlock: AJUNOK_clean_linker_0, # of connection points: 2
#     Edge 83, Type (0, 1), BuildingBlock: AJUNOK_clean_linker_0, # of connection points: 2
#     Edge 84, Type (0, 1), BuildingBlock: AJUNOK_clean_linker_0, # of connection points: 2
#     Edge 85, Type (0, 1), BuildingBlock: AJUNOK_clean_linker_0, # of connection points: 2
#     Edge 86, Type (0, 1), BuildingBlock: AJUNOK_clean_linker_0, # of connection points: 2
#     Edge 87, Type (0, 1), BuildingBlock: AJUNOK_clean_linker_0, # of connection points: 2
#     Edge 88, Type (0, 1), BuildingBlock: AJUNOK_clean_linker_0, # of connection points: 2
#     Edge 89, Type (0, 1), BuildingBlock: AJUNOK_clean_linker_0, # of connection points: 2
#     Edge 90, Type (0, 1), BuildingBlock: AJUNOK_clean_linker_0, # of connection points: 2
#     Edge 91, Type (0, 1), BuildingBlock: AJUNOK_clean_linker_0, # of connection points: 2
#     Edge 92, Type (0, 1), BuildingBlock: AJUNOK_clean_linker_0, # of connection points: 2
#     Edge 93, Type (0, 1), BuildingBlock: AJUNOK_clean_linker_0, # of connection points: 2
#     Edge 94, Type (0, 1), BuildingBlock: AJUNOK_clean_linker_0, # of connection points: 2
#     Edge 95, Type (0, 1), BuildingBlock: AJUNOK_clean_linker_0, # of connection points: 2
#     Edge 96, Type (0, 1), BuildingBlock: AJUNOK_clean_linker_0, # of connection points: 2
#     Edge 97, Type (0, 1), BuildingBlock: AJUNOK_clean_linker_0, # of connection points: 2
#     Edge 98, Type (0, 1), BuildingBlock: AJUNOK_clean_linker_0, # of connection points: 2
#     Edge 99, Type (0, 1), BuildingBlock: AJUNOK_clean_linker_0, # of connection points: 2
#     Edge 100, Type (0, 1), BuildingBlock: AJUNOK_clean_linker_0, # of connection points: 2
#     Edge 101, Type (0, 1), BuildingBlock: AJUNOK_clean_linker_0, # of connection points: 2
#     Edge 102, Type (0, 1), BuildingBlock: AJUNOK_clean_linker_0, # of connection points: 2
#     Edge 103, Type (0, 1), BuildingBlock: AJUNOK_clean_linker_0, # of connection points: 2
#     Edge 104, Type (0, 1), BuildingBlock: AJUNOK_clean_linker_0, # of connection points: 2
#     Edge 105, Type (0, 1), BuildingBlock: AJUNOK_clean_linker_0, # of connection points: 2
#     Edge 106, Type (0, 1), BuildingBlock: AJUNOK_clean_linker_0, # of connection points: 2
#     Edge 107, Type (0, 1), BuildingBlock: AJUNOK_clean_linker_0, # of connection points: 2
#     Edge 108, Type (0, 1), BuildingBlock: AJUNOK_clean_linker_0, # of connection points: 2
#     Edge 109, Type (0, 1), BuildingBlock: AJUNOK_clean_linker_0, # of connection points: 2
#     Edge 110, Type (0, 1), BuildingBlock: AJUNOK_clean_linker_0, # of connection points: 2
#     Edge 111, Type (0, 1), BuildingBlock: AJUNOK_clean_linker_0, # of connection points: 2
#     Edge 112, Type (0, 1), BuildingBlock: AJUNOK_clean_linker_0, # of connection points: 2
#     Edge 113, Type (0, 1), BuildingBlock: AJUNOK_clean_linker_0, # of connection points: 2
#     Edge 114, Type (0, 1), BuildingBlock: AJUNOK_clean_linker_0, # of connection points: 2
#     Edge 115, Type (0, 1), BuildingBlock: AJUNOK_clean_linker_0, # of connection points: 2
#     Edge 116, Type (0, 1), BuildingBlock: AJUNOK_clean_linker_0, # of connection points: 2
#     Edge 117, Type (0, 1), BuildingBlock: AJUNOK_clean_linker_0, # of connection points: 2
#     Edge 118, Type (0, 1), BuildingBlock: AJUNOK_clean_linker_0, # of connection points: 2
#     Edge 119, Type (0, 1), BuildingBlock: AJUNOK_clean_linker_0, # of connection points: 2
#     Edge 120, Type (0, 1), BuildingBlock: AJUNOK_clean_linker_0, # of connection points: 2
#     Edge 121, Type (0, 1), BuildingBlock: AJUNOK_clean_linker_0, # of connection points: 2
#     Edge 122, Type (0, 1), BuildingBlock: AJUNOK_clean_linker_0, # of connection points: 2
#     Edge 123, Type (0, 1), BuildingBlock: AJUNOK_clean_linker_0, # of connection points: 2
#     Edge 124, Type (0, 1), BuildingBlock: AJUNOK_clean_linker_0, # of connection points: 2
#     Edge 125, Type (0, 1), BuildingBlock: AJUNOK_clean_linker_0, # of connection points: 2
#     Edge 126, Type (0, 1), BuildingBlock: AJUNOK_clean_linker_0, # of connection points: 2
#     Edge 127, Type (0, 1), BuildingBlock: AJUNOK_clean_linker_0, # of connection points: 2
#     Edge 128, Type (0, 1), BuildingBlock: AJUNOK_clean_linker_0, # of connection points: 2
#     Edge 129, Type (0, 1), BuildingBlock: AJUNOK_clean_linker_0, # of connection points: 2
#     Edge 130, Type (0, 1), BuildingBlock: AJUNOK_clean_linker_0, # of connection points: 2
#     Edge 131, Type (0, 1), BuildingBlock: AJUNOK_clean_linker_0, # of connection points: 2
#     Edge 132, Type (0, 1), BuildingBlock: AJUNOK_clean_linker_0, # of connection points: 2
#     Edge 133, Type (0, 1), BuildingBlock: AJUNOK_clean_linker_0, # of connection points: 2
#     Edge 134, Type (0, 1), BuildingBlock: AJUNOK_clean_linker_0, # of connection points: 2
#     Edge 135, Type (0, 1), BuildingBlock: AJUNOK_clean_linker_0, # of connection points: 2
# Relax obj value: 0.121
# Max RMSD: 0.311
# Mean RMSD: 0.163
data_MOF--net-gar--node1-NAHDIM_clean_sbu_0--node2-MIFKUJ_clean_sbu_0--edge1-AJUNOK_clean_linker_0
_symmetry_space_group_name_H-M    P1
_symmetry_Int_Tables_number       1
_symmetry_cell_setting            triclinic
loop_
_symmetry_equiv_pos_as_xyz
'x, y, z'
_cell_length_a     43.368368
_cell_length_b     42.353053
_cell_length_c     39.362523
_cell_angle_alpha  95.207139
_cell_angle_beta   95.556942
_cell_angle_gamma 100.58412
loop_
_atom_site_label
_atom_site_type_symbol
_atom_site_fract_x
_atom_site_fract_y
_atom_site_fract_z
_atom_type_partial_charge
C0 C 0.07275 0.25589 0.36382 0.0
O1 O 0.06313 0.2285 0.37627 0.0
O2 O 0.01952 0.24216 0.42884 0.0
Zn3 Zn 0.02398 0.27969 0.40034 0.0
O4 O 0.03249 0.32202 0.43114 0.0
C5 C 0.95722 0.26635 0.37957 0.0
O6 O 0.9567 0.2539 0.40891 0.0
O7 O 0.05952 0.27972 0.37083 0.0
C8 C 0.0128 0.32825 0.45147 0.0
O9 O 0.98767 0.30624 0.45355 0.0
C10 C 0.04083 0.24014 0.45262 0.0
O11 O 0.06649 0.26274 0.45828 0.0
O12 O 0.98353 0.27771 0.36949 0.0
C13 C 0.95497 0.77608 0.67602 0.0
O14 O 0.96534 0.80238 0.66199 0.0
O15 O 1.00072 0.70829 0.61578 0.0
Zn16 Zn 0.00267 0.7525 0.64045 0.0
O17 O 0.99854 0.78581 0.60789 0.0
C18 C 0.06789 0.75296 0.66089 0.0
O19 O 0.0646 0.73536 0.63108 0.0
O20 O 0.96762 0.75149 0.67088 0.0
C21 C 0.02062 0.8013 0.59345 0.0
O22 O 0.04888 0.79421 0.59773 0.0
C23 C 0.99602 0.6993 0.5837 0.0
O24 O 0.98862 0.71951 0.5623 0.0
O25 O 0.04447 0.76432 0.67025 0.0
C26 C 0.58296 0.76861 0.86591 0.0
O27 O 0.56571 0.7395 0.86471 0.0
O28 O 0.54185 0.74506 0.9361 0.0
Zn29 Zn 0.53947 0.78524 0.91289 0.0
O30 O 0.54292 0.82497 0.94696 0.0
C31 C 0.47509 0.75682 0.88981 0.0
O32 O 0.47994 0.74168 0.91688 0.0
O33 O 0.57564 0.79186 0.88421 0.0
C34 C 0.51893 0.83002 0.96123 0.0
O35 O 0.49276 0.80818 0.95496 0.0
C36 C 0.53567 0.73871 0.96595 0.0
O37 O 0.52884 0.76132 0.98742 0.0
O38 O 0.49766 0.77766 0.8821 0.0
C39 C 0.43886 0.27742 0.16877 0.0
O40 O 0.45061 0.303 0.15427 0.0
O41 O 0.4783 0.20541 0.1061 0.0
Zn42 Zn 0.4849 0.24864 0.13454 0.0
O43 O 0.48893 0.28368 0.10286 0.0
C44 C 0.53538 0.23114 0.1791 0.0
O45 O 0.51776 0.202 0.17391 0.0
O46 O 0.44959 0.2516 0.16366 0.0
C47 C 0.51588 0.29936 0.09824 0.0
O48 O 0.54131 0.29233 0.11425 0.0
C49 C 0.50176 0.20041 0.09086 0.0
O50 O 0.52703 0.22339 0.09389 0.0
O51 O 0.52545 0.25412 0.16569 0.0
C52 C 0.97544 0.77399 0.19136 0.0
O53 O 0.97633 0.76403 0.15894 0.0
O54 O 0.03526 0.74443 0.16131 0.0
Zn55 Zn 0.03734 0.78989 0.18115 0.0
O56 O 0.03149 0.81867 0.14377 0.0
C57 C 0.08629 0.79403 0.23759 0.0
O58 O 0.06378 0.77626 0.25148 0.0
O59 O 0.00106 0.78807 0.20925 0.0
C60 C 0.04566 0.848 0.14926 0.0
O61 O 0.06352 0.85799 0.17853 0.0
C62 C 0.05178 0.73452 0.13924 0.0
O63 O 0.07256 0.75544 0.12648 0.0
O64 O 0.07963 0.80399 0.20884 0.0
C65 C 0.56673 0.75831 0.37013 0.0
O66 O 0.56652 0.75803 0.40345 0.0
O67 O 0.50153 0.70819 0.40118 0.0
Zn68 Zn 0.50422 0.75015 0.38007 0.0
O69 O 0.51537 0.78836 0.41627 0.0
C70 C 0.43812 0.73983 0.36574 0.0
O71 O 0.44102 0.72828 0.39551 0.0
O72 O 0.54047 0.75454 0.3514 0.0
C73 C 0.49779 0.80399 0.43213 0.0
O74 O 0.46698 0.79495 0.42598 0.0
C75 C 0.51127 0.70597 0.43224 0.0
O76 O 0.52353 0.73245 0.45274 0.0
O77 O 0.4629 0.75081 0.35247 0.0
C78 C 0.49446 0.27054 0.70802 0.0
O79 O 0.50643 0.24419 0.70764 0.0
O80 O 0.52534 0.24209 0.6356 0.0
Zn81 Zn 0.53991 0.2868 0.66075 0.0
O82 O 0.54273 0.32087 0.62763 0.0
C83 C 0.59844 0.26861 0.67951 0.0
O84 O 0.59044 0.25259 0.64885 0.0
O85 O 0.50606 0.29292 0.6908 0.0
C86 C 0.56473 0.32771 0.60881 0.0
O87 O 0.58842 0.31234 0.61091 0.0
C88 C 0.5284 0.23218 0.60488 0.0
O89 O 0.54165 0.2527 0.58502 0.0
O90 O 0.58122 0.28771 0.69039 0.0
C91 C 0.06918 0.24678 0.86174 0.0
O92 O 0.06888 0.2419 0.8942 0.0
O93 O 0.00208 0.20797 0.89694 0.0
Zn94 Zn 0.00758 0.24882 0.87363 0.0
O95 O 0.01879 0.28766 0.90848 0.0
C96 C 0.95059 0.23114 0.82342 0.0
O97 O 0.96041 0.2042 0.81519 0.0
O98 O 0.04378 0.25032 0.84489 0.0
C99 C 0.99904 0.29913 0.92535 0.0
O100 O 0.96933 0.28428 0.92104 0.0
C101 C 0.01051 0.20755 0.92876 0.0
O102 O 0.02268 0.23491 0.94779 0.0
O103 O 0.96722 0.25219 0.84617 0.0
C104 C 0.3675 0.07218 0.26899 0.0
O105 O 0.36657 0.05296 0.24062 0.0
O106 O 0.43973 0.03268 0.26215 0.0
Zn107 Zn 0.41132 0.03427 0.29935 0.0
O108 O 0.43695 0.04077 0.34581 0.0
C109 C 0.39754 0.96745 0.30222 0.0
O110 O 0.42834 0.97418 0.31006 0.0
O111 O 0.3851 0.06865 0.2956 0.0
C112 C 0.46694 0.04701 0.35147 0.0
O113 O 0.48366 0.05182 0.32571 0.0
C114 C 0.45818 0.05671 0.25344 0.0
O115 O 0.45833 0.08578 0.26838 0.0
O116 O 0.38336 0.99042 0.29604 0.0
C117 C 0.31747 0.10308 0.47883 0.0
O118 O 0.31878 0.12759 0.46046 0.0
O119 O 0.27011 0.14923 0.54676 0.0
Zn120 Zn 0.26142 0.12526 0.49876 0.0
O121 O 0.26401 0.15444 0.45992 0.0
C122 C 0.19788 0.11158 0.51195 0.0
O123 O 0.20653 0.14239 0.52325 0.0
O124 O 0.29435 0.09662 0.4963 0.0
C125 C 0.25566 0.18166 0.45852 0.0
O126 O 0.2429 0.19382 0.48435 0.0
C127 C 0.28215 0.17804 0.55943 0.0
O128 O 0.29258 0.19955 0.53912 0.0
O129 O 0.21736 0.09768 0.49704 0.0
C130 C 0.19504 0.97707 0.79378 0.0
O131 O 0.19463 0.99272 0.76646 0.0
O132 O 0.13152 0.01251 0.76418 0.0
Zn133 Zn 0.15426 0.02034 0.81259 0.0
O134 O 0.1228 0.01964 0.84819 0.0
C135 C 0.17555 0.08708 0.80439 0.0
O136 O 0.14557 0.08342 0.79263 0.0
O137 O 0.17934 0.98475 0.8179 0.0
C138 C 0.1329 0.02533 0.88001 0.0
O139 O 0.16357 0.03213 0.88896 0.0
C140 C 0.10436 0.01806 0.75451 0.0
O141 O 0.08789 0.02917 0.77754 0.0
O142 O 0.18521 0.06331 0.81641 0.0
C143 C 0.23135 0.92926 0.04543 0.0
O144 O 0.24821 0.92803 0.0747 0.0
O145 O 0.26283 0.85655 0.05934 0.0
Zn146 Zn 0.26697 0.88275 0.01931 0.0
O147 O 0.25966 0.85383 0.97474 0.0
C148 C 0.33289 0.89973 0.0423 0.0
O149 O 0.32606 0.87222 0.05543 0.0
O150 O 0.23544 0.91192 0.01878 0.0
C151 C 0.27587 0.83211 0.96947 0.0
O152 O 0.29746 0.82857 0.99385 0.0
C153 C 0.25041 0.82684 0.05858 0.0
O154 O 0.23659 0.8106 0.02939 0.0
O155 O 0.31102 0.90965 0.02496 0.0
C156 C 0.2162 0.40435 0.04977 0.0
O157 O 0.21301 0.3729 0.04292 0.0
O158 O 0.27647 0.36722 0.09531 0.0
Zn159 Zn 0.27921 0.3956 0.05589 0.0
O160 O 0.27227 0.36965 0.00909 0.0
C161 C 0.34706 0.41823 0.06997 0.0
O162 O 0.34561 0.38959 0.08074 0.0
O163 O 0.24395 0.42114 0.05685 0.0
C164 C 0.28949 0.35145 0.99629 0.0
O165 O 0.3145 0.34655 0.01515 0.0
C166 C 0.26579 0.33684 0.09257 0.0
O167 O 0.25661 0.32112 0.06188 0.0
O168 O 0.32144 0.42659 0.05934 0.0
C169 C 0.81959 0.08146 0.01412 0.0
O170 O 0.80474 0.08339 0.98389 0.0
O171 O 0.78341 0.15233 0.08457 0.0
Zn172 Zn 0.78022 0.12546 0.03866 0.0
O173 O 0.7877 0.15453 0.00156 0.0
C174 C 0.71392 0.10318 0.04345 0.0
O175 O 0.71898 0.1282 0.06695 0.0
O176 O 0.81291 0.09732 0.04052 0.0
C177 C 0.76793 0.17153 0.99179 0.0
O178 O 0.74165 0.16985 0.00616 0.0
C179 C 0.79282 0.18282 0.09016 0.0
O180 O 0.80217 0.19907 0.06492 0.0
O181 O 0.73681 0.09713 0.02773 0.0
C182 C 0.1953 0.46706 0.28656 0.0
O183 O 0.18447 0.47964 0.31363 0.0
O184 O 0.12692 0.49259 0.20636 0.0
Zn185 Zn 0.15341 0.50241 0.25242 0.0
O186 O 0.12576 0.49584 0.29035 0.0
C187 C 0.16318 0.5698 0.24198 0.0
O188 O 0.13723 0.5597 0.22075 0.0
O189 O 0.18558 0.47359 0.25693 0.0
C190 C 0.10741 0.51464 0.29876 0.0
O191 O 0.1053 0.53933 0.28134 0.0
C192 C 0.09783 0.47926 0.20146 0.0
O193 O 0.08396 0.46819 0.22738 0.0
O194 O 0.17525 0.54934 0.25792 0.0
C195 C 0.72715 0.92158 0.58803 0.0
O196 O 0.72619 0.89845 0.60822 0.0
O197 O 0.78087 0.86867 0.60662 0.0
Zn198 Zn 0.78165 0.89653 0.56683 0.0
O199 O 0.76913 0.86885 0.52151 0.0
C200 C 0.83509 0.9524 0.57118 0.0
O201 O 0.8148 0.96998 0.58076 0.0
O202 O 0.74955 0.92621 0.5693 0.0
C203 C 0.7879 0.85519 0.50523 0.0
O204 O 0.81701 0.85724 0.51939 0.0
C205 C 0.76945 0.83846 0.60421 0.0
O206 O 0.75723 0.82322 0.574 0.0
O207 O 0.82609 0.92188 0.56506 0.0
C208 C 0.88202 0.07406 0.27255 0.0
O209 O 0.91286 0.08036 0.28006 0.0
O210 O 0.92388 0.0176 0.21947 0.0
Zn211 Zn 0.89645 0.01198 0.25878 0.0
O212 O 0.92336 0.02169 0.30488 0.0
C213 C 0.87757 0.94143 0.25137 0.0
O214 O 0.90666 0.9423 0.24424 0.0
O215 O 0.86863 0.04554 0.26006 0.0
C216 C 0.93482 0.00305 0.32401 0.0
O217 O 0.93132 0.97222 0.31315 0.0
C218 C 0.95099 0.00995 0.21972 0.0
O219 O 0.96182 0.99629 0.24581 0.0
O220 O 0.86789 0.96781 0.25653 0.0
C221 C 0.31793 0.57368 0.53319 0.0
O222 O 0.29934 0.57201 0.50441 0.0
O223 O 0.29273 0.65434 0.60032 0.0
Zn224 Zn 0.28163 0.62059 0.55862 0.0
O225 O 0.28176 0.64259 0.51529 0.0
C226 C 0.21671 0.60507 0.57273 0.0
O227 O 0.22486 0.63281 0.59226 0.0
O228 O 0.31409 0.59222 0.55907 0.0
C229 C 0.25945 0.65701 0.50653 0.0
O230 O 0.23681 0.65759 0.52627 0.0
C231 C 0.29918 0.68467 0.59844 0.0
O232 O 0.29881 0.69559 0.56829 0.0
O233 O 0.23766 0.59396 0.55753 0.0
C234 C 0.34818 0.54805 0.76112 0.0
O235 O 0.34867 0.53366 0.78932 0.0
O236 O 0.42372 0.50721 0.71161 0.0
Zn237 Zn 0.39424 0.50936 0.74876 0.0
O238 O 0.41789 0.52276 0.7966 0.0
C239 C 0.37505 0.43971 0.74621 0.0
O240 O 0.40458 0.44029 0.74091 0.0
O241 O 0.36632 0.54175 0.73896 0.0
C242 C 0.43614 0.5071 0.81231 0.0
O243 O 0.44224 0.48075 0.79636 0.0
C244 C 0.45243 0.52172 0.71381 0.0
O245 O 0.46531 0.53949 0.74254 0.0
O246 O 0.36517 0.46613 0.74939 0.0
C247 C 0.67809 0.95578 0.79279 0.0
O248 O 0.67967 0.97692 0.81978 0.0
O249 O 0.60745 0.98743 0.71915 0.0
Zn250 Zn 0.62925 0.98761 0.76635 0.0
O251 O 0.59716 0.97934 0.79926 0.0
C252 C 0.67277 0.04748 0.76259 0.0
O253 O 0.67659 0.03358 0.73247 0.0
O254 O 0.65795 0.95571 0.76706 0.0
C255 C 0.58072 0.00093 0.80414 0.0
O256 O 0.58488 0.026 0.78657 0.0
C257 C 0.57918 0.97305 0.70924 0.0
O258 O 0.5634 0.9556 0.73013 0.0
O259 O 0.65442 0.03191 0.78114 0.0
C260 C 0.82585 0.62748 0.02012 0.0
O261 O 0.82634 0.65869 0.02233 0.0
O262 O 0.76145 0.65526 0.05728 0.0
Zn263 Zn 0.76178 0.63124 0.01054 0.0
O264 O 0.76719 0.66044 0.97224 0.0
C265 C 0.69615 0.61177 0.00844 0.0
O266 O 0.70068 0.64318 0.01664 0.0
O267 O 0.79915 0.60838 0.01418 0.0
C268 C 0.75895 0.68757 0.96966 0.0
O269 O 0.74383 0.69946 0.99357 0.0
C270 C 0.773 0.68409 0.07021 0.0
O271 O 0.78874 0.70424 0.05163 0.0
O272 O 0.71987 0.59939 0.00209 0.0
C273 C 0.87279 0.56718 0.7998 0.0
O274 O 0.89883 0.57143 0.82111 0.0
O275 O 0.91673 0.50599 0.74945 0.0
Zn276 Zn 0.88961 0.50554 0.78776 0.0
O277 O 0.9175 0.51371 0.83321 0.0
C278 C 0.87825 0.43842 0.78169 0.0
O279 O 0.9092 0.44617 0.78501 0.0
O280 O 0.86296 0.53976 0.7825 0.0
C281 C 0.94635 0.51092 0.83623 0.0
O282 O 0.95896 0.5018 0.80887 0.0
C283 C 0.93573 0.53108 0.74398 0.0
O284 O 0.93746 0.55827 0.76364 0.0
O285 O 0.86267 0.46105 0.78314 0.0
C286 C 0.71954 0.43476 0.49361 0.0
O287 O 0.72696 0.43115 0.4621 0.0
O288 O 0.74733 0.35312 0.54338 0.0
Zn289 Zn 0.7548 0.3828 0.50722 0.0
O290 O 0.74193 0.35442 0.46251 0.0
C291 C 0.8138 0.42988 0.50563 0.0
O292 O 0.79538 0.44871 0.4937 0.0
O293 O 0.72873 0.41702 0.5153 0.0
C294 C 0.75526 0.35975 0.43575 0.0
O295 O 0.77594 0.38667 0.43596 0.0
C296 C 0.76155 0.32957 0.54543 0.0
O297 O 0.78238 0.32542 0.52415 0.0
O298 O 0.80146 0.4019 0.51251 0.0
C299 C 0.67804 0.4634 0.32942 0.0
O300 O 0.65903 0.46347 0.35345 0.0
O301 O 0.6304 0.51415 0.26307 0.0
Zn302 Zn 0.65389 0.52075 0.31108 0.0
O303 O 0.62384 0.51508 0.34824 0.0
C304 C 0.67344 0.58689 0.30055 0.0
O305 O 0.64433 0.58084 0.28542 0.0
O306 O 0.68034 0.48601 0.31014 0.0
C307 C 0.61778 0.5388 0.36694 0.0
O308 O 0.63085 0.56821 0.36173 0.0
C309 C 0.60266 0.51751 0.25247 0.0
O310 O 0.5842 0.52589 0.27483 0.0
O311 O 0.68321 0.56506 0.31637 0.0
Zn312 Zn 0.06548 0.0044 0.05729 0.0
Zn313 Zn 0.99785 0.03197 0.02156 0.0
C314 C 0.02264 0.9428 0.05712 0.0
O315 O 1.00045 0.95806 0.06602 0.0
C316 C 1.00004 0.08238 0.98171 0.0
O317 O 0.98719 0.05666 0.96028 0.0
O318 O 0.11141 0.00133 0.06666 0.0
O319 O 0.06484 0.03438 0.02041 0.0
O320 O 0.02229 0.00958 0.98763 0.0
C321 C 0.12063 0.98761 0.04042 0.0
O322 O 0.10043 0.97858 0.01266 0.0
O323 O 0.04492 0.95758 0.04233 0.0
C324 C 0.93754 0.03842 0.02931 0.0
O325 O 0.9557 0.05783 0.05414 0.0
O326 O 0.9503 0.02152 0.00844 0.0
O327 O 0.00461 0.02901 0.07363 0.0
O328 O 0.04785 0.01762 0.10035 0.0
O329 O 0.00844 0.07857 0.01271 0.0
C330 C 0.05163 0.02183 0.99092 0.0
C331 C 0.0209 0.02521 0.10117 0.0
Zn332 Zn 0.25379 0.75757 0.32866 0.0
Zn333 Zn 0.27681 0.78332 0.26142 0.0
C334 C 0.21159 0.70447 0.29072 0.0
O335 O 0.19169 0.71924 0.30593 0.0
C336 C 0.32694 0.83549 0.27863 0.0
O337 O 0.34013 0.81397 0.26239 0.0
O338 O 0.24738 0.74164 0.37441 0.0
O339 O 0.3002 0.77439 0.33189 0.0
O340 O 0.3029 0.75231 0.28 0.0
C341 C 0.26186 0.71886 0.38045 0.0
O342 O 0.27856 0.70862 0.35713 0.0
O343 O 0.24083 0.71707 0.29531 0.0
C344 C 0.2605 0.77085 0.18771 0.0
O345 O 0.23695 0.7494 0.19531 0.0
O346 O 0.2813 0.78572 0.21159 0.0
O347 O 0.22997 0.77823 0.2632 0.0
O348 O 0.2249 0.78809 0.31812 0.0
O349 O 0.29789 0.82801 0.28274 0.0
C350 C 0.3151 0.7603 0.31096 0.0
C351 C 0.21471 0.78786 0.28675 0.0
Zn352 Zn 0.48415 0.03127 0.5344 0.0
Zn353 Zn 0.56129 0.99455 0.52946 0.0
C354 C 0.49308 0.09342 0.56582 0.0
O355 O 0.47114 0.07711 0.58173 0.0
C356 C 0.55315 0.93127 0.50079 0.0
O357 O 0.57963 0.94529 0.49034 0.0
O358 O 0.43763 0.03064 0.51889 0.0
O359 O 0.5069 0.00584 0.50211 0.0
O360 O 0.55333 0.01277 0.48407 0.0
C361 C 0.43279 0.05188 0.49908 0.0
O362 O 0.45728 0.06952 0.48817 0.0
O363 O 0.50482 0.07823 0.54256 0.0
C364 C 0.61229 0.97345 0.56586 0.0
O365 O 0.58769 0.95613 0.5769 0.0
O366 O 0.60763 0.99436 0.54556 0.0
O367 O 0.53891 0.02044 0.56149 0.0
O368 O 0.49271 0.01345 0.58 0.0
O369 O 0.53881 0.94811 0.51986 0.0
C370 C 0.52478 0.01669 0.48037 0.0
C371 C 0.52127 0.00964 0.58343 0.0
Zn372 Zn 0.3113 0.2517 0.77117 0.0
Zn373 Zn 0.24782 0.2724 0.78552 0.0
C374 C 0.29659 0.21435 0.70738 0.0
O375 O 0.30706 0.19452 0.72744 0.0
C376 C 0.26167 0.30756 0.84979 0.0
O377 O 0.24628 0.32509 0.83103 0.0
O378 O 0.35726 0.24833 0.77096 0.0
O379 O 0.31369 0.29882 0.78815 0.0
O380 O 0.27031 0.30749 0.76009 0.0
C381 C 0.37061 0.26856 0.7523 0.0
O382 O 0.3535 0.28647 0.73633 0.0
O383 O 0.29464 0.24237 0.72056 0.0
C384 C 0.19113 0.25496 0.80992 0.0
O385 O 0.21007 0.23755 0.82381 0.0
O386 O 0.20187 0.27455 0.78922 0.0
O387 O 0.24544 0.2264 0.76572 0.0
O388 O 0.28683 0.217 0.79646 0.0
O389 O 0.2676 0.28156 0.83536 0.0
C390 C 0.29926 0.31726 0.77164 0.0
C391 C 0.25822 0.20769 0.78346 0.0
Zn392 Zn 0.02532 0.99108 0.54274 0.0
Zn393 Zn 0.01264 0.0584 0.53309 0.0
C394 C 0.06193 0.99789 0.60726 0.0
O395 O 0.07944 0.9844 0.58708 0.0
C396 C 0.98046 0.04604 0.46758 0.0
O397 O 0.96427 0.0643 0.48438 0.0
O398 O 0.02827 0.94394 0.53815 0.0
O399 O 0.97869 0.99154 0.52981 0.0
O400 O 0.9771 0.03815 0.55834 0.0
C401 C 0.00742 0.92612 0.55223 0.0
O402 O 0.98627 0.93941 0.5669 0.0
O403 O 0.03632 0.00454 0.5939 0.0
C404 C 0.03489 0.12068 0.51501 0.0
O405 O 0.05804 0.10589 0.50831 0.0
O406 O 0.01161 0.10556 0.52816 0.0
O407 O 0.0568 0.05802 0.55355 0.0
O408 O 0.0602 0.01606 0.51861 0.0
O409 O 0.00392 0.0376 0.48379 0.0
C410 C 0.96358 0.00942 0.54673 0.0
C411 C 0.0732 0.04321 0.5351 0.0
Zn412 Zn 0.25564 0.79927 0.76075 0.0
Zn413 Zn 0.29031 0.72327 0.78233 0.0
C414 C 0.18844 0.78557 0.7474 0.0
O415 O 0.1915 0.80683 0.77458 0.0
C416 C 0.34712 0.72752 0.81941 0.0
O417 O 0.32664 0.70707 0.83316 0.0
O418 O 0.25325 0.84713 0.7643 0.0
O419 O 0.26079 0.78567 0.80884 0.0
O420 O 0.27336 0.73998 0.82443 0.0
C421 C 0.25366 0.86354 0.79318 0.0
O422 O 0.26045 0.85066 0.82136 0.0
O423 O 0.21303 0.77713 0.73746 0.0
C424 C 0.28274 0.65551 0.75064 0.0
O425 O 0.27492 0.66621 0.72137 0.0
O426 O 0.28633 0.67453 0.77827 0.0
O427 O 0.27181 0.73859 0.74005 0.0
O428 O 0.28706 0.78812 0.72901 0.0
O429 O 0.33724 0.74015 0.79337 0.0
C430 C 0.26556 0.76711 0.83172 0.0
C431 C 0.28902 0.75852 0.72432 0.0
Zn432 Zn 0.51744 0.01947 0.9955 0.0
Zn433 Zn 0.5199 0.0124 0.06864 0.0
C434 C 0.58708 0.02824 1.00007 0.0
O435 O 0.58216 0.00826 0.97168 0.0
C436 C 0.46267 0.97055 0.06977 0.0
O437 O 0.4827 0.95774 0.08874 0.0
O438 O 0.51755 0.02048 0.94454 0.0
O439 O 0.5026 0.97361 0.00393 0.0
O440 O 0.54011 0.97685 0.0465 0.0
C441 C 0.51405 0.99467 0.92418 0.0
O442 O 0.50634 0.96667 0.93611 0.0
O443 O 0.56353 0.03464 0.01424 0.0
C444 C 0.53144 0.04082 0.13961 0.0
O445 O 0.54389 0.06707 0.12664 0.0
O446 O 0.52426 0.0142 0.12027 0.0
O447 O 0.5303 0.05868 0.05829 0.0
O448 O 0.49379 0.05272 0.01433 0.0
O449 O 0.47304 0.99637 0.05695 0.0
C450 C 0.52147 0.96021 0.02162 0.0
C451 C 0.51033 0.07026 0.03995 0.0
Zn452 Zn 0.27262 0.23008 0.2589 0.0
Zn453 Zn 0.2514 0.293 0.29594 0.0
C454 C 0.32372 0.25583 0.22925 0.0
O455 O 0.30413 0.23743 0.20472 0.0
C456 C 0.18372 0.28344 0.29175 0.0
O457 O 0.18857 0.31094 0.27824 0.0
O458 O 0.28257 0.18555 0.24743 0.0
O459 O 0.25631 0.22608 0.30516 0.0
O460 O 0.27734 0.27425 0.3316 0.0
C461 C 0.30259 0.18075 0.2714 0.0
O462 O 0.31282 0.20382 0.29675 0.0
O463 O 0.3159 0.25825 0.25961 0.0
C464 C 0.26393 0.3624 0.2971 0.0
O465 O 0.28502 0.35671 0.27675 0.0
O466 O 0.24984 0.33934 0.31185 0.0
O467 O 0.26126 0.29456 0.24676 0.0
O468 O 0.24551 0.24508 0.2208 0.0
O469 O 0.20694 0.26961 0.298 0.0
C470 C 0.2672 0.24427 0.33277 0.0
C471 C 0.25231 0.27547 0.2193 0.0
Zn472 Zn 0.52988 0.48355 0.03937 0.0
Zn473 Zn 0.50872 0.54827 0.02499 0.0
C474 C 0.56662 0.49791 0.10402 0.0
O475 O 0.58591 0.4858 0.08509 0.0
C476 C 0.47454 0.53783 0.95951 0.0
O477 O 0.45812 0.55485 0.97757 0.0
O478 O 0.53756 0.43836 0.04029 0.0
O479 O 0.48302 0.47889 0.0265 0.0
O480 O 0.47576 0.52501 0.05204 0.0
C481 C 0.51783 0.41327 0.02705 0.0
O482 O 0.49248 0.41655 0.00761 0.0
O483 O 0.54014 0.50142 0.08953 0.0
C484 C 0.52367 0.60684 0.00101 0.0
O485 O 0.54013 0.58809 0.98535 0.0
O486 O 0.50622 0.59539 0.02297 0.0
O487 O 0.55477 0.55163 0.04208 0.0
O488 O 0.56148 0.50807 0.0118 0.0
O489 O 0.49818 0.52892 0.97487 0.0
C490 C 0.46636 0.49481 0.0435 0.0
C491 C 0.57202 0.53713 0.02446 0.0
Zn492 Zn 0.73079 0.2899 0.25202 0.0
Zn493 Zn 0.78001 0.2219 0.28223 0.0
C494 C 0.66607 0.2496 0.23954 0.0
O495 O 0.67683 0.22714 0.25537 0.0
C496 C 0.8363 0.27025 0.3059 0.0
O497 O 0.81647 0.28694 0.31827 0.0
O498 O 0.73533 0.33776 0.26708 0.0
O499 O 0.74378 0.26672 0.29092 0.0
O500 O 0.76322 0.23783 0.32664 0.0
C501 C 0.716 0.34237 0.28858 0.0
O502 O 0.69844 0.31698 0.29866 0.0
O503 O 0.68487 0.27529 0.23531 0.0
C504 C 0.80718 0.17204 0.30384 0.0
O505 O 0.81709 0.19541 0.32896 0.0
O506 O 0.78545 0.17545 0.28114 0.0
O507 O 0.75364 0.23133 0.23925 0.0
O508 O 0.75602 0.27581 0.2144 0.0
O509 O 0.82555 0.24499 0.28519 0.0
C510 C 0.74954 0.26133 0.32168 0.0
C511 C 0.76379 0.24821 0.21597 0.0
Zn512 Zn 0.02689 0.52308 0.48615 0.0
Zn513 Zn 0.01089 0.50906 0.55517 0.0
C514 C 0.08707 0.55988 0.51302 0.0
O515 O 0.0749 0.5813 0.49678 0.0
C516 C 0.94987 0.47189 0.54001 0.0
O517 O 0.96449 0.45363 0.55859 0.0
O518 O 0.03551 0.52637 0.43723 0.0
O519 O 0.00573 0.47665 0.48721 0.0
O520 O 0.03281 0.47402 0.53666 0.0
C521 C 0.05149 0.50584 0.42673 0.0
O522 O 0.05964 0.48576 0.4479 0.0
O523 O 0.07072 0.53164 0.51266 0.0
C524 C 0.9926 0.52841 0.61749 0.0
O525 O 0.98442 0.54947 0.59759 0.0
O526 O 0.00632 0.50661 0.60518 0.0
O527 O 0.02959 0.55563 0.55272 0.0
O528 O 0.00424 0.55848 0.50268 0.0
O529 O 0.96553 0.49862 0.53334 0.0
C530 C 0.01937 0.46052 0.50751 0.0
C531 C 0.01551 0.57164 0.53271 0.0
Zn532 Zn 0.80348 0.7562 0.27995 0.0
Zn533 Zn 0.74478 0.7798 0.29397 0.0
C534 C 0.78098 0.72035 0.21642 0.0
O535 O 0.7913 0.69912 0.23465 0.0
C536 C 0.75674 0.8129 0.35962 0.0
O537 O 0.74088 0.83093 0.34214 0.0
O538 O 0.84745 0.74961 0.2729 0.0
O539 O 0.81047 0.80305 0.29891 0.0
O540 O 0.7696 0.8138 0.26837 0.0
C541 C 0.85727 0.76595 0.24914 0.0
O542 O 0.83951 0.78435 0.23508 0.0
O543 O 0.78198 0.74872 0.23078 0.0
C544 C 0.68804 0.76582 0.31796 0.0
O545 O 0.70566 0.74704 0.33161 0.0
O546 O 0.69948 0.78478 0.29702 0.0
O547 O 0.73884 0.73262 0.27625 0.0
O548 O 0.78015 0.72175 0.30608 0.0
O549 O 0.76408 0.78823 0.34392 0.0
C550 C 0.79842 0.82216 0.28105 0.0
C551 C 0.75185 0.71277 0.29203 0.0
Zn552 Zn 0.7632 0.24534 0.80247 0.0
Zn553 Zn 0.7723 0.2475 0.72961 0.0
C554 C 0.72629 0.18373 0.80027 0.0
O555 O 0.71181 0.20133 0.82017 0.0
C556 C 0.81265 0.3065 0.7384 0.0
O557 O 0.82599 0.28801 0.71815 0.0
O558 O 0.76284 0.24712 0.85379 0.0
O559 O 0.80873 0.25977 0.79501 0.0
O560 O 0.8067 0.22565 0.74897 0.0
C561 C 0.78368 0.23343 0.86801 0.0
O562 O 0.80392 0.22302 0.84916 0.0
O563 O 0.7504 0.19753 0.78757 0.0
C564 C 0.75099 0.26441 0.66735 0.0
O565 O 0.73335 0.27559 0.68902 0.0
O566 O 0.77129 0.24849 0.67849 0.0
O567 O 0.72781 0.22989 0.73741 0.0
O568 O 0.72887 0.26661 0.7805 0.0
O569 O 0.78596 0.29482 0.74758 0.0
C570 C 0.82228 0.24212 0.77587 0.0
C571 C 0.71373 0.24868 0.75427 0.0
Zn572 Zn 0.7882 0.73 0.77009 0.0
Zn573 Zn 0.76614 0.79584 0.80234 0.0
C574 C 0.83904 0.75059 0.73651 0.0
O575 O 0.818 0.73231 0.71318 0.0
C576 C 0.7088 0.78672 0.82593 0.0
O577 O 0.72833 0.80601 0.84986 0.0
O578 O 0.7952 0.68386 0.76145 0.0
O579 O 0.77458 0.72992 0.81796 0.0
O580 O 0.78703 0.77982 0.8436 0.0
C581 C 0.81633 0.68065 0.78513 0.0
O582 O 0.82806 0.70563 0.80797 0.0
O583 O 0.83233 0.75518 0.76714 0.0
C584 C 0.74667 0.85081 0.78621 0.0
O585 O 0.73592 0.8291 0.7597 0.0
O586 O 0.76415 0.84319 0.8108 0.0
O587 O 0.78465 0.79299 0.75734 0.0
O588 O 0.76053 0.7453 0.73243 0.0
O589 O 0.71965 0.77518 0.79957 0.0
C590 C 0.7803 0.74953 0.84523 0.0
C591 C 0.7703 0.77532 0.73061 0.0
Zn592 Zn 0.56918 0.50729 0.55257 0.0
Zn593 Zn 0.49543 0.52536 0.51632 0.0
C594 C 0.56569 0.43937 0.53293 0.0
O595 O 0.58907 0.44986 0.51547 0.0
C596 C 0.49659 0.57741 0.47778 0.0
O597 O 0.48071 0.55296 0.4563 0.0
O598 O 0.61617 0.5072 0.55717 0.0
O599 O 0.55932 0.53119 0.51164 0.0
O600 O 0.51723 0.50193 0.48118 0.0
C601 C 0.6327 0.51719 0.53384 0.0
O602 O 0.62176 0.53582 0.51272 0.0
O603 O 0.55025 0.45957 0.54542 0.0
C604 C 0.43827 0.53412 0.53409 0.0
O605 O 0.45961 0.55268 0.55691 0.0
O606 O 0.44751 0.51685 0.51033 0.0
O607 O 0.50828 0.52227 0.56623 0.0
O608 O 0.55313 0.5215 0.59699 0.0
O609 O 0.50681 0.57194 0.50761 0.0
C610 C 0.54624 0.51526 0.48339 0.0
C611 C 0.52363 0.52112 0.59506 0.0
Zn612 Zn 0.99132 0.54339 0.04505 0.0
Zn613 Zn 0.05552 0.49149 0.01904 0.0
C614 C 0.01586 0.59773 0.09255 0.0
O615 O 0.99706 0.57992 0.11068 0.0
C616 C 0.04181 0.43035 0.98829 0.0
O617 O 0.06462 0.446 0.973 0.0
O618 O 0.94623 0.5518 0.04048 0.0
O619 O 0.00464 0.52967 0.99823 0.0
O620 O 0.04118 0.5076 0.97473 0.0
C621 C 0.94385 0.57929 0.0309 0.0
O622 O 0.96907 0.59775 0.02238 0.0
O623 O 0.01889 0.58633 0.0624 0.0
C624 C 0.1053 0.46447 0.04591 0.0
O625 O 0.0811 0.45105 0.06071 0.0
O626 O 0.1019 0.487 0.0273 0.0
O627 O 0.0417 0.5191 0.0557 0.0
O628 O 0.99979 0.51422 0.08168 0.0
O629 O 0.03087 0.44563 0.0122 0.0
C630 C 0.01647 0.52005 0.97164 0.0
C631 C 0.02685 0.50752 0.07929 0.0
C632 C 0.99693 0.14726 0.92192 0.0
C633 C 0.008 0.17626 0.94353 0.0
C634 C 0.99475 0.11725 0.93461 0.0
C635 C 0.00349 0.11482 0.96951 0.0
H636 H 0.98993 0.14757 0.89479 0.0
H637 H 0.98606 0.09577 0.91669 0.0
S638 S 0.03373 0.18341 0.03723 0.0
N639 N 0.02772 0.20068 0.00186 0.0
N640 N 0.02353 0.14412 0.0257 0.0
C641 C 0.01459 0.14358 0.99155 0.0
C642 C 0.01684 0.1743 0.97858 0.0
C643 C 0.12719 0.78763 0.28465 0.0
C644 C 0.11976 0.79775 0.25223 0.0
C645 C 0.15838 0.78635 0.29685 0.0
C646 C 0.18312 0.79472 0.27681 0.0
H647 H 0.10866 0.77953 0.30026 0.0
H648 H 0.16284 0.77711 0.32126 0.0
S649 S 0.17719 0.82645 0.19211 0.0
N650 N 0.14058 0.81934 0.20189 0.0
N651 N 0.19887 0.81638 0.22467 0.0
C652 C 0.17637 0.80661 0.24531 0.0
C653 C 0.14478 0.80831 0.23306 0.0
C654 C 0.49312 0.85571 0.46593 0.0
C655 C 0.51224 0.8345 0.45406 0.0
C656 C 0.5065 0.88654 0.48275 0.0
C657 C 0.53943 0.89726 0.48802 0.0
H658 H 0.46763 0.84903 0.46107 0.0
H659 H 0.49093 0.90259 0.49015 0.0
S660 S 0.60002 0.84949 0.46691 0.0
N661 N 0.566 0.82526 0.45266 0.0
N662 N 0.59088 0.88321 0.48374 0.0
C663 C 0.5588 0.87568 0.47821 0.0
C664 C 0.54528 0.84428 0.46139 0.0
C665 C 0.44849 0.24445 0.7365 0.0
C666 C 0.46509 0.27211 0.72411 0.0
C667 C 0.41851 0.24386 0.7474 0.0
C668 C 0.40401 0.27085 0.74611 0.0
H669 H 0.45808 0.22258 0.73654 0.0
H670 H 0.40603 0.22164 0.75528 0.0
S671 S 0.43933 0.35087 0.7211 0.0
N672 N 0.46611 0.32843 0.71519 0.0
N673 N 0.40988 0.32716 0.73531 0.0
C674 C 0.42113 0.29927 0.73585 0.0
C675 C 0.45165 0.29996 0.72497 0.0
C676 C 0.04164 0.8519 0.56787 0.0
C677 C 0.01566 0.83048 0.57704 0.0
C678 C 0.03848 0.88218 0.55775 0.0
C679 C 0.00926 0.89219 0.55662 0.0
H680 H 0.06495 0.84596 0.57003 0.0
H681 H 0.05943 0.8985 0.55263 0.0
S682 S 0.93285 0.84323 0.57237 0.0
N683 N 0.95883 0.81997 0.57989 0.0
N684 N 0.95313 0.87691 0.56129 0.0
C685 C 0.98269 0.87018 0.56332 0.0
C686 C 0.98581 0.83931 0.57338 0.0
C687 C 0.41976 0.72635 0.88016 0.0
C688 C 0.44329 0.74989 0.86992 0.0
C689 C 0.38914 0.71934 0.86329 0.0
C690 C 0.38043 0.73547 0.83525 0.0
H691 H 0.42481 0.71315 0.90169 0.0
H692 H 0.37213 0.70111 0.87269 0.0
S693 S 0.43322 0.79866 0.79729 0.0
N694 N 0.45601 0.78906 0.8293 0.0
N695 N 0.39803 0.77571 0.79732 0.0
C696 C 0.40372 0.75879 0.8242 0.0
C697 C 0.43521 0.76604 0.84158 0.0
C698 C 0.5322 0.15792 0.07618 0.0
C699 C 0.50298 0.1679 0.07472 0.0
C700 C 0.53426 0.12651 0.06387 0.0
C701 C 0.50733 0.10402 0.04893 0.0
H702 H 0.55358 0.17413 0.08808 0.0
H703 H 0.55715 0.11965 0.0665 0.0
S704 S 0.42552 0.11867 0.03676 0.0
N705 N 0.44662 0.1533 0.05598 0.0
N706 N 0.45071 0.09414 0.03189 0.0
C707 C 0.47811 0.11396 0.04597 0.0
C708 C 0.47587 0.14592 0.05921 0.0
C709 C 0.1037 0.28533 0.32209 0.0
C710 C 0.09948 0.25978 0.34272 0.0
C711 C 0.13008 0.29153 0.30409 0.0
C712 C 0.1536 0.27266 0.3062 0.0
H713 H 0.08676 0.30116 0.32028 0.0
H714 H 0.13254 0.31212 0.28944 0.0
S715 S 0.15291 0.20157 0.35521 0.0
N716 N 0.12023 0.21432 0.36285 0.0
N717 N 0.16998 0.22606 0.32925 0.0
C718 C 0.14903 0.24612 0.32562 0.0
C719 C 0.12197 0.23969 0.34382 0.0
C720 C 0.99243 0.9966 0.18351 0.0
C721 C 0.97012 0.0159 0.1907 0.0
C722 C 0.00991 0.00082 0.15543 0.0
C723 C 0.00592 0.02466 0.13357 0.0
H724 H 0.99577 0.97741 0.19907 0.0
H725 H 0.02573 0.98443 0.15003 0.0
S726 S 0.95494 0.0853 0.14488 0.0
N727 N 0.9477 0.0621 0.17584 0.0
N728 N 0.9811 0.07044 0.12373 0.0
C729 C 0.98501 0.04523 0.14159 0.0
C730 C 0.96699 0.04076 0.16996 0.0
C731 C 0.28126 0.6687 0.45161 0.0
C732 C 0.25944 0.67344 0.47485 0.0
C733 C 0.28177 0.68356 0.42131 0.0
C734 C 0.26061 0.70398 0.41303 0.0
H735 H 0.29806 0.65318 0.45666 0.0
H736 H 0.29906 0.67901 0.40433 0.0
S737 S 0.19891 0.72479 0.46531 0.0
N738 N 0.21614 0.70031 0.4876 0.0
N739 N 0.21723 0.72834 0.4306 0.0
C740 C 0.23876 0.70919 0.43609 0.0
C741 C 0.23811 0.69387 0.46696 0.0
C742 C 0.58175 0.99751 0.65418 0.0
C743 C 0.56368 0.979 0.67581 0.0
C744 C 0.56773 0.00652 0.62409 0.0
C745 C 0.53508 0.99715 0.61402 0.0
H746 H 0.60695 0.00586 0.66082 0.0
H747 H 0.58266 0.02166 0.60901 0.0
S748 S 0.47723 0.94698 0.6602 0.0
N749 N 0.51133 0.95043 0.68425 0.0
N750 N 0.48507 0.96728 0.62716 0.0
C751 C 0.51672 0.97791 0.63475 0.0
C752 C 0.53102 0.96871 0.66565 0.0
C753 C 0.26059 0.35074 0.93815 0.0
C754 C 0.28254 0.33847 0.95938 0.0
C755 C 0.2543 0.34054 0.90298 0.0
C756 C 0.26937 0.31731 0.8873 0.0
H757 H 0.24835 0.36884 0.94861 0.0
H758 H 0.23726 0.35101 0.88801 0.0
S759 S 0.32816 0.27663 0.93127 0.0
N760 N 0.31909 0.30123 0.96213 0.0
N761 N 0.30686 0.28174 0.8958 0.0
C762 C 0.29101 0.30432 0.90815 0.0
C763 C 0.29771 0.315 0.94417 0.0
C764 C 0.96362 0.99573 0.38049 0.0
C765 C 0.94907 0.01554 0.35971 0.0
C766 C 0.97486 0.00609 0.41516 0.0
C767 C 0.97148 0.03639 0.43039 0.0
H768 H 0.96588 0.9718 0.37012 0.0
H769 H 0.98525 0.98983 0.43041 0.0
S770 S 0.93789 0.09873 0.38697 0.0
N771 N 0.9341 0.06809 0.35684 0.0
N772 N 0.95479 0.08706 0.42177 0.0
C773 C 0.95802 0.05685 0.40975 0.0
C774 C 0.94696 0.04658 0.37447 0.0
C775 C 0.2861 0.73331 0.62986 0.0
C776 C 0.3023 0.70742 0.62976 0.0
C777 C 0.28426 0.75208 0.66057 0.0
C778 C 0.29892 0.74573 0.69197 0.0
H779 H 0.27303 0.73775 0.60646 0.0
H780 H 0.26945 0.77008 0.66004 0.0
S781 S 0.35049 0.68597 0.704 0.0
N782 N 0.33738 0.67982 0.66263 0.0
N783 N 0.33444 0.7156 0.72028 0.0
C784 C 0.3176 0.72197 0.69165 0.0
C785 C 0.31915 0.70261 0.66051 0.0
C786 C 0.5507 0.9698 0.84524 0.0
C787 C 0.55952 0.99917 0.83145 0.0
C788 C 0.53399 0.96816 0.8739 0.0
C789 C 0.52579 0.99593 0.89017 0.0
H790 H 0.55756 0.94802 0.83448 0.0
H791 H 0.52896 0.94521 0.88434 0.0
S792 S 0.54016 0.07806 0.8618 0.0
N793 N 0.55629 0.05614 0.83431 0.0
N794 N 0.5251 0.05308 0.88843 0.0
C795 C 0.53281 0.02508 0.87544 0.0
C796 C 0.54962 0.0267 0.84601 0.0
C797 C 0.26393 0.33829 0.15605 0.0
C798 C 0.26185 0.31997 0.12401 0.0
C799 C 0.25986 0.32348 0.18612 0.0
C800 C 0.25381 0.28955 0.18588 0.0
H801 H 0.26856 0.36445 0.15807 0.0
H802 H 0.26174 0.33902 0.2099 0.0
S803 S 0.24619 0.23027 0.10861 0.0
N804 N 0.25315 0.2658 0.0937 0.0
N805 N 0.24576 0.23799 0.15042 0.0
C806 C 0.25139 0.27081 0.15396 0.0
C807 C 0.25541 0.28598 0.12309 0.0
C808 C 0.19423 0.95875 0.07437 0.0
C809 C 0.20588 0.9483 0.04398 0.0
C810 C 0.16765 0.97335 0.07328 0.0
C811 C 0.15173 0.97784 0.04178 0.0
H812 H 0.20488 0.95446 0.09914 0.0
H813 H 0.15872 0.97975 0.09719 0.0
S814 S 0.17618 0.96037 0.9553 0.0
N815 N 0.20192 0.94758 0.98177 0.0
N816 N 0.15203 0.97478 0.97979 0.0
C817 C 0.16448 0.96963 0.0114 0.0
C818 C 0.19151 0.95488 0.01248 0.0
C819 C 0.64071 0.60654 0.02252 0.0
C820 C 0.66449 0.59158 0.01021 0.0
C821 C 0.61118 0.58864 0.02685 0.0
C822 C 0.60372 0.55486 0.01874 0.0
H823 H 0.64497 0.63243 0.02952 0.0
H824 H 0.59405 0.60162 0.03676 0.0
S825 S 0.65715 0.50367 0.98469 0.0
N826 N 0.67838 0.54073 0.98937 0.0
N827 N 0.62249 0.50701 0.99714 0.0
C828 C 0.62698 0.53946 0.00578 0.0
C829 C 0.65739 0.55779 0.00161 0.0
C830 C 0.6859 0.40793 0.34005 0.0
C831 C 0.69261 0.43477 0.32151 0.0
C832 C 0.69502 0.37874 0.33007 0.0
C833 C 0.7114 0.37509 0.30122 0.0
H834 H 0.67238 0.40892 0.36172 0.0
H835 H 0.68827 0.35854 0.3446 0.0
S836 S 0.73854 0.4391 0.24649 0.0
N837 N 0.71956 0.45671 0.27478 0.0
N838 N 0.73666 0.40172 0.25615 0.0
C839 C 0.7202 0.40228 0.28379 0.0
C840 C 0.71079 0.43212 0.29388 0.0
C841 C 0.86749 0.42038 0.52553 0.0
C842 C 0.84862 0.44111 0.5122 0.0
C843 C 0.90016 0.43044 0.53365 0.0
C844 C 0.91553 0.46168 0.52876 0.0
H845 H 0.85698 0.39616 0.53024 0.0
H846 H 0.91337 0.41353 0.54422 0.0
S847 S 0.8774 0.52512 0.49315 0.0
N848 N 0.84802 0.49423 0.49335 0.0
N849 N 0.90953 0.51311 0.50865 0.0
C850 C 0.89718 0.48251 0.51464 0.0
C851 C 0.86374 0.47225 0.50639 0.0
C852 C 0.33515 0.10747 0.23935 0.0
C853 C 0.3487 0.0982 0.27001 0.0
C854 C 0.31896 0.13338 0.2398 0.0
C855 C 0.31585 0.15092 0.27094 0.0
H856 H 0.33778 0.09524 0.21472 0.0
H857 H 0.3099 0.14044 0.21561 0.0
S858 S 0.34308 0.13372 0.35855 0.0
N859 N 0.35504 0.10684 0.33252 0.0
N860 N 0.32491 0.15528 0.3333 0.0
C861 C 0.32797 0.14093 0.30178 0.0
C862 C 0.34432 0.11465 0.30136 0.0
C863 C 0.36922 0.09348 0.46144 0.0
C864 C 0.34444 0.08575 0.48168 0.0
C865 C 0.39686 0.08096 0.46618 0.0
C866 C 0.40109 0.06007 0.49137 0.0
H867 H 0.36779 0.11018 0.44233 0.0
H868 H 0.41549 0.08861 0.45053 0.0
S869 S 0.3422 0.02949 0.54896 0.0
N870 N 0.32496 0.05368 0.52623 0.0
N871 N 0.37704 0.03019 0.53512 0.0
C872 C 0.37584 0.05061 0.51054 0.0
C873 C 0.34754 0.06344 0.50572 0.0
C874 C 0.72122 0.63053 0.32149 0.0
C875 C 0.69463 0.61804 0.29732 0.0
C876 C 0.74045 0.66076 0.3192 0.0
C877 C 0.73377 0.67945 0.29259 0.0
H878 H 0.72675 0.61725 0.3428 0.0
H879 H 0.76005 0.66995 0.33893 0.0
S880 S 0.6698 0.65539 0.21994 0.0
N881 N 0.66472 0.62535 0.24401 0.0
N882 N 0.70061 0.68163 0.23965 0.0
C883 C 0.70814 0.66645 0.26742 0.0
C884 C 0.68864 0.63592 0.2698 0.0
C885 C 0.82879 0.39583 0.77051 0.0
C886 C 0.862 0.40419 0.77328 0.0
C887 C 0.81286 0.36396 0.76011 0.0
C888 C 0.82957 0.33947 0.7516 0.0
H889 H 0.8149 0.41411 0.77591 0.0
H890 H 0.78729 0.35867 0.75775 0.0
S891 S 0.91668 0.34774 0.75747 0.0
N892 N 0.91104 0.38449 0.76897 0.0
N893 N 0.88107 0.32501 0.74886 0.0
C894 C 0.86274 0.34721 0.75524 0.0
C895 C 0.87897 0.37946 0.76626 0.0
C896 C 0.01339 0.86563 0.10053 0.0
C897 C 0.04108 0.87105 0.12393 0.0
C898 C 0.00764 0.88865 0.0783 0.0
C899 C 0.02981 0.9173 0.07808 0.0
H900 H 0.99556 0.84399 0.10018 0.0
H901 H 0.98566 0.88416 0.06145 0.0
S902 S 0.10602 0.9429 0.13388 0.0
N903 N 0.09089 0.90723 0.14512 0.0
N904 N 0.08024 0.95 0.10326 0.0
C905 C 0.05779 0.92265 0.10081 0.0
C906 C 0.06341 0.89962 0.12373 0.0
C907 C 0.89939 0.21162 0.78544 0.0
C908 C 0.91907 0.23586 0.80885 0.0
C909 C 0.86844 0.21429 0.77379 0.0
C910 C 0.85593 0.24115 0.78537 0.0
H911 H 0.90763 0.19 0.77662 0.0
H912 H 0.85388 0.19464 0.75655 0.0
S913 S 0.89854 0.31296 0.84383 0.0
N914 N 0.92438 0.289 0.84091 0.0
N915 N 0.86632 0.29366 0.81945 0.0
C916 C 0.87572 0.26616 0.80767 0.0
C917 C 0.90724 0.26363 0.81927 0.0
C918 C 0.50135 0.17678 0.61342 0.0
C919 C 0.5192 0.19714 0.59314 0.0
C920 C 0.49324 0.14342 0.60428 0.0
C921 C 0.50277 0.12883 0.57457 0.0
H922 H 0.49351 0.18661 0.63673 0.0
H923 H 0.4795 0.12897 0.62093 0.0
S924 S 0.54958 0.17117 0.51224 0.0
N925 N 0.54599 0.20027 0.54161 0.0
N926 N 0.53074 0.13731 0.52446 0.0
C927 C 0.52055 0.1488 0.55386 0.0
C928 C 0.5287 0.18299 0.56309 0.0
C929 C 0.62393 0.75717 0.3763 0.0
C930 C 0.59719 0.76169 0.35553 0.0
C931 C 0.65313 0.75924 0.3638 0.0
C932 C 0.65705 0.76634 0.33013 0.0
H933 H 0.62233 0.7514 0.4024 0.0
H934 H 0.67286 0.75514 0.3808 0.0
S935 S 0.59516 0.78192 0.26562 0.0
N936 N 0.5767 0.77463 0.29974 0.0
N937 N 0.63223 0.77897 0.27637 0.0
C938 C 0.6309 0.77187 0.30922 0.0
C939 C 0.60079 0.76933 0.32186 0.0
C940 C 0.06552 0.20246 0.48676 0.0
C941 C 0.03806 0.21127 0.47162 0.0
C942 C 0.06402 0.17368 0.50202 0.0
C943 C 0.03497 0.15293 0.50343 0.0
H944 H 0.08853 0.21723 0.48566 0.0
H945 H 0.08591 0.16727 0.51214 0.0
S946 S 0.95591 0.16607 0.47002 0.0
N947 N 0.98071 0.1977 0.46059 0.0
N948 N 0.97793 0.14391 0.49 0.0
C949 C 0.00717 0.16215 0.48992 0.0
C950 C 0.00872 0.19121 0.47377 0.0
C951 C 0.58134 0.21017 0.20596 0.0
C952 C 0.56784 0.23661 0.19723 0.0
C953 C 0.61292 0.21455 0.2204 0.0
C954 C 0.63221 0.2455 0.22646 0.0
H955 H 0.56769 0.18577 0.20087 0.0
H956 H 0.62247 0.19343 0.22595 0.0
S957 S 0.60746 0.3231 0.21168 0.0
N958 N 0.57573 0.29515 0.19828 0.0
N959 N 0.63485 0.30331 0.2252 0.0
C960 C 0.61869 0.27225 0.21906 0.0
C961 C 0.58658 0.26783 0.20452 0.0
C962 C 0.54836 0.88315 0.99223 0.0
C963 C 0.51946 0.86159 0.98138 0.0
C964 C 0.54915 0.9146 0.00771 0.0
C965 C 0.52107 0.92563 0.01229 0.0
H966 H 0.57052 0.87605 0.98784 0.0
H967 H 0.57175 0.93091 0.01428 0.0
S968 S 0.43945 0.87833 0.99151 0.0
N969 N 0.46213 0.85313 0.9792 0.0
N970 N 0.46384 0.91228 0.00722 0.0
C971 C 0.49219 0.90398 0.00305 0.0
C972 C 0.49132 0.87192 0.98791 0.0
C973 C 0.92404 0.75479 0.72228 0.0
C974 C 0.92699 0.77398 0.69494 0.0
C975 C 0.89618 0.74968 0.73814 0.0
C976 C 0.87032 0.76313 0.72667 0.0
H977 H 0.94304 0.74293 0.73082 0.0
H978 H 0.89414 0.73348 0.75795 0.0
S979 S 0.86609 0.81571 0.65685 0.0
N980 N 0.90201 0.80762 0.65825 0.0
N981 N 0.84935 0.79687 0.68729 0.0
C982 C 0.87327 0.78311 0.7002 0.0
C983 C 0.90176 0.78891 0.68455 0.0
C984 C 0.12312 0.03575 0.94123 0.0
C985 C 0.11089 0.0244 0.907 0.0
C986 C 0.10366 0.03501 0.96764 0.0
C987 C 0.07093 0.02243 0.96139 0.0
H988 H 0.14811 0.04543 0.9479 0.0
H989 H 0.11467 0.04419 0.99339 0.0
S990 S 0.02663 0.99009 0.87612 0.0
N991 N 0.06356 0.00069 0.86805 0.0
N992 N 0.027 0.99886 0.91793 0.0
C993 C 0.05819 0.01114 0.92723 0.0
C994 C 0.0781 0.01221 0.90006 0.0
C995 C 0.78044 0.29314 0.58591 0.0
C996 C 0.75643 0.30874 0.57328 0.0
C997 C 0.77775 0.27688 0.61529 0.0
C998 C 0.75088 0.27557 0.63286 0.0
H999 H 0.80214 0.29486 0.57409 0.0
H1000 H 0.79756 0.26682 0.62527 0.0
S1001 S 0.67885 0.30712 0.6062 0.0
N1002 N 0.7032 0.3181 0.57779 0.0
N1003 N 0.69796 0.28729 0.63268 0.0
C1004 C 0.72569 0.28888 0.61886 0.0
C1005 C 0.72852 0.30557 0.58916 0.0
C1006 C 0.46412 0.02817 0.40936 0.0
C1007 C 0.48244 0.04342 0.38574 0.0
C1008 C 0.47815 0.0205 0.44015 0.0
C1009 C 0.51105 0.02834 0.44912 0.0
H1010 H 0.43874 0.02079 0.40352 0.0
H1011 H 0.46299 0.00733 0.45655 0.0
S1012 S 0.56954 0.07114 0.39789 0.0
N1013 N 0.53523 0.06791 0.37432 0.0
N1014 N 0.56156 0.05399 0.4329 0.0
C1015 C 0.52966 0.04479 0.4265 0.0
C1016 C 0.51535 0.05232 0.39474 0.0
C1017 C 0.78237 0.72616 0.12129 0.0
C1018 C 0.77069 0.69395 0.10696 0.0
C1019 C 0.78343 0.73527 0.15665 0.0
C1020 C 0.7734 0.71235 0.17895 0.0
H1021 H 0.79168 0.74433 0.10533 0.0
H1022 H 0.79391 0.75995 0.1668 0.0
S1023 S 0.73671 0.62615 0.15433 0.0
N1024 N 0.74541 0.63999 0.11784 0.0
N1025 N 0.7484 0.65715 0.18418 0.0
C1026 C 0.76002 0.68063 0.16485 0.0
C1027 C 0.75841 0.67141 0.12888 0.0
C1028 C 0.11086 0.00137 0.6934 0.0
C1029 C 0.0924 0.01321 0.71726 0.0
C1030 C 0.10082 0.99685 0.65812 0.0
C1031 C 0.07183 0.00395 0.64491 0.0
H1032 H 0.13341 0.99548 0.70193 0.0
H1033 H 0.11607 0.98759 0.6411 0.0
S1034 S 0.01442 0.0357 0.69619 0.0
N1035 N 0.04352 0.03211 0.725 0.0
N1036 N 0.02466 0.02356 0.65859 0.0
C1037 C 0.05306 0.01591 0.66837 0.0
C1038 C 0.06331 0.02051 0.70449 0.0
C1039 C 0.76142 0.34225 0.37496 0.0
C1040 C 0.75054 0.33434 0.40619 0.0
C1041 C 0.76021 0.31838 0.34761 0.0
C1042 C 0.74786 0.28574 0.35022 0.0
H1043 H 0.77159 0.36699 0.37176 0.0
H1044 H 0.77002 0.32546 0.32454 0.0
S1045 S 0.71625 0.25188 0.42604 0.0
N1046 N 0.72676 0.29112 0.43799 0.0
N1047 N 0.72467 0.24642 0.38615 0.0
C1048 C 0.73667 0.27735 0.38102 0.0
C1049 C 0.73774 0.30165 0.40901 0.0
C1050 C 0.49781 0.0786 0.21505 0.0
C1051 C 0.47959 0.05178 0.22704 0.0
C1052 C 0.51638 0.07471 0.18833 0.0
C1053 C 0.51744 0.04382 0.17243 0.0
H1054 H 0.49701 0.10294 0.22557 0.0
H1055 H 0.52878 0.09627 0.17907 0.0
S1056 S 0.47771 0.96543 0.19759 0.0
N1057 N 0.46646 0.99299 0.22339 0.0
N1058 N 0.50131 0.98575 0.17325 0.0
C1059 C 0.50096 0.01669 0.18568 0.0
C1060 C 0.482 0.02065 0.21288 0.0
C1061 C 0.77441 0.68835 0.91013 0.0
C1062 C 0.76584 0.70498 0.93923 0.0
C1063 C 0.77985 0.70337 0.88045 0.0
C1064 C 0.77742 0.7359 0.87856 0.0
H1065 H 0.77629 0.66317 0.90987 0.0
H1066 H 0.78568 0.6891 0.85859 0.0
S1067 S 0.75762 0.79105 0.94833 0.0
N1068 N 0.75641 0.75639 0.96479 0.0
N1069 N 0.76718 0.78476 0.90902 0.0
C1070 C 0.76995 0.75326 0.90782 0.0
C1071 C 0.76395 0.73777 0.93807 0.0
C1072 C 0.86181 0.05726 0.98818 0.0
C1073 C 0.84631 0.06407 0.01709 0.0
C1074 C 0.89029 0.04583 0.99156 0.0
C1075 C 0.90401 0.04081 0.02394 0.0
H1076 H 0.85298 0.06261 0.96308 0.0
H1077 H 0.90274 0.04324 0.9692 0.0
S1078 S 0.86984 0.04851 0.10632 0.0
N1079 N 0.84461 0.06016 0.07824 0.0
N1080 N 0.898 0.03887 0.0844 0.0
C1081 C 0.8874 0.04479 0.05241 0.0
C1082 C 0.85856 0.05638 0.04905 0.0
C1083 C 0.37948 0.46959 0.05452 0.0
C1084 C 0.37813 0.43913 0.06689 0.0
C1085 C 0.40829 0.48839 0.04839 0.0
C1086 C 0.43669 0.4772 0.05395 0.0
H1087 H 0.35804 0.47871 0.04875 0.0
H1088 H 0.40815 0.51117 0.03793 0.0
S1089 S 0.44714 0.40142 0.08997 0.0
N1090 N 0.40874 0.40037 0.0874 0.0
N1091 N 0.46241 0.43547 0.07534 0.0
C1092 C 0.43597 0.4476 0.06763 0.0
C1093 C 0.40683 0.42865 0.07427 0.0
C1094 C 0.31861 0.58827 0.78588 0.0
C1095 C 0.32845 0.57293 0.75677 0.0
C1096 C 0.30226 0.61373 0.7833 0.0
C1097 C 0.29461 0.62472 0.75141 0.0
H1098 H 0.32464 0.58145 0.81119 0.0
H1099 H 0.29651 0.62557 0.80677 0.0
S1100 S 0.31123 0.58967 0.66664 0.0
N1101 N 0.327 0.56862 0.69458 0.0
N1102 N 0.29542 0.61584 0.6895 0.0
C1103 C 0.30251 0.60817 0.72175 0.0
C1104 C 0.31972 0.58255 0.72448 0.0
C1105 C 0.16086 0.61191 0.5622 0.0
C1106 C 0.18288 0.59129 0.56193 0.0
C1107 C 0.12968 0.60117 0.54706 0.0
C1108 C 0.1191 0.56922 0.53178 0.0
H1109 H 0.16808 0.63704 0.57267 0.0
H1110 H 0.11387 0.61823 0.54681 0.0
S1111 S 0.16632 0.50468 0.52717 0.0
N1112 N 0.19134 0.53679 0.54685 0.0
N1113 N 0.13229 0.51638 0.51926 0.0
C1114 C 0.14025 0.54779 0.53301 0.0
C1115 C 0.17228 0.5589 0.54783 0.0
C1116 C 0.70149 0.91453 0.76055 0.0
C1117 C 0.69899 0.93178 0.79208 0.0
C1118 C 0.71868 0.88972 0.75893 0.0
C1119 C 0.73404 0.88097 0.78875 0.0
H1120 H 0.6895 0.9197 0.73685 0.0
H1121 H 0.71903 0.87661 0.73406 0.0
S1122 S 0.73669 0.91993 0.87756 0.0
N1123 N 0.71491 0.93965 0.85377 0.0
N1124 N 0.74724 0.89271 0.85065 0.0
C1125 C 0.73315 0.89902 0.82032 0.0
C1126 C 0.71556 0.92445 0.822 0.0
C1127 C 0.67599 0.93307 0.60559 0.0
C1128 C 0.70037 0.93917 0.5845 0.0
C1129 C 0.64844 0.94571 0.60034 0.0
C1130 C 0.64393 0.96513 0.5738 0.0
H1131 H 0.67764 0.91751 0.62579 0.0
H1132 H 0.63009 0.93933 0.61672 0.0
S1133 S 0.70161 0.99104 0.51318 0.0
N1134 N 0.71907 0.96808 0.5374 0.0
N1135 N 0.6672 0.99179 0.52759 0.0
C1136 C 0.66876 0.97297 0.55364 0.0
C1137 C 0.69695 0.96 0.55895 0.0
C1138 C 0.3687 0.38503 0.76611 0.0
C1139 C 0.35469 0.40901 0.75206 0.0
C1140 C 0.3504 0.35604 0.773 0.0
C1141 C 0.31725 0.34925 0.7653 0.0
H1142 H 0.39408 0.38887 0.77245 0.0
H1143 H 0.36261 0.3387 0.78425 0.0
S1144 S 0.26892 0.40442 0.72846 0.0
N1145 N 0.30564 0.42465 0.73132 0.0
N1146 N 0.27114 0.36951 0.74319 0.0
C1147 C 0.30285 0.37311 0.75125 0.0
C1148 C 0.32157 0.40309 0.7449 0.0
C1149 C 0.20752 0.6153 0.26606 0.0
C1150 C 0.17635 0.60483 0.25012 0.0
C1151 C 0.21951 0.64803 0.27725 0.0
C1152 C 0.20055 0.67135 0.27347 0.0
H1153 H 0.22258 0.59799 0.27066 0.0
H1154 H 0.24324 0.65484 0.2905 0.0
S1155 S 0.1184 0.65728 0.23087 0.0
N1156 N 0.1276 0.62106 0.22884 0.0
N1157 N 0.15004 0.68239 0.25064 0.0
C1158 C 0.16986 0.66152 0.25636 0.0
C1159 C 0.15779 0.6283 0.24444 0.0
C1160 C 0.49195 0.6462 0.4234 0.0
C1161 C 0.50855 0.67367 0.44482 0.0
C1162 C 0.48854 0.61536 0.43431 0.0
C1163 C 0.50157 0.61052 0.46713 0.0
H1164 H 0.4812 0.64842 0.39794 0.0
H1165 H 0.47532 0.59517 0.41675 0.0
S1166 S 0.54851 0.67416 0.53278 0.0
N1167 N 0.53908 0.69389 0.50024 0.0
N1168 N 0.53263 0.6358 0.52073 0.0
C1169 C 0.51864 0.63767 0.48875 0.0
C1170 C 0.52211 0.66923 0.47762 0.0
C1171 C 0.64404 0.28686 0.72597 0.0
C1172 C 0.62598 0.26257 0.70142 0.0
C1173 C 0.67171 0.28181 0.74472 0.0
C1174 C 0.68194 0.25222 0.73964 0.0
H1175 H 0.63747 0.31029 0.72972 0.0
H1176 H 0.68587 0.30163 0.76206 0.0
S1177 S 0.63993 0.17918 0.68274 0.0
N1178 N 0.6183 0.20674 0.67607 0.0
N1179 N 0.66969 0.19713 0.71144 0.0
C1180 C 0.66286 0.22715 0.71683 0.0
C1181 C 0.63506 0.23237 0.69764 0.0
C1182 C 0.04144 0.3458 0.94965 0.0
C1183 C 0.00936 0.33084 0.94642 0.0
C1184 C 0.05171 0.37754 0.96477 0.0
C1185 C 0.03047 0.39559 0.97768 0.0
H1186 H 0.05877 0.33338 0.93928 0.0
H1187 H 0.07649 0.38833 0.96551 0.0
S1188 S 0.9447 0.36691 0.97942 0.0
N1189 N 0.95672 0.3358 0.96017 0.0
N1190 N 0.97646 0.39574 0.9891 0.0
C1191 C 0.99873 0.38047 0.97687 0.0
C1192 C 0.98807 0.34802 0.96109 0.0
C1193 C 0.9445 0.77371 0.24207 0.0
C1194 C 0.94507 0.76927 0.2062 0.0
C1195 C 0.91579 0.7706 0.25638 0.0
C1196 C 0.88694 0.76341 0.23518 0.0
H1197 H 0.96633 0.78008 0.25919 0.0
H1198 H 0.9162 0.77528 0.28396 0.0
S1199 S 0.87502 0.74749 0.14026 0.0
N1200 N 0.91372 0.75547 0.15015 0.0
N1201 N 0.8602 0.75029 0.17723 0.0
C1202 C 0.88709 0.75797 0.19956 0.0
C1203 C 0.91607 0.76071 0.18499 0.0
C1204 C 0.49155 0.3307 0.05572 0.0
C1205 C 0.51832 0.32646 0.0767 0.0
C1206 C 0.49227 0.35778 0.03765 0.0
C1207 C 0.51966 0.38194 0.04026 0.0
H1208 H 0.46952 0.31343 0.0539 0.0
H1209 H 0.47063 0.36055 0.02303 0.0
S1210 S 0.59722 0.38066 0.08864 0.0
N1211 N 0.57393 0.34735 0.09652 0.0
N1212 N 0.57513 0.39837 0.06286 0.0
C1213 C 0.54713 0.3771 0.05957 0.0
C1214 C 0.54649 0.34937 0.07774 0.0
C1215 C 0.92153 0.26139 0.32476 0.0
C1216 C 0.9275 0.2701 0.36041 0.0
C1217 C 0.89231 0.26282 0.3068 0.0
C1218 C 0.86859 0.27403 0.32377 0.0
H1219 H 0.93904 0.25218 0.31095 0.0
H1220 H 0.88796 0.2544 0.27963 0.0
S1221 S 0.87415 0.30224 0.41675 0.0
N1222 N 0.90838 0.29169 0.41183 0.0
N1223 N 0.85395 0.29549 0.37819 0.0
C1224 C 0.87507 0.2843 0.35922 0.0
C1225 C 0.90441 0.282 0.37753 0.0
C1226 C 0.98833 0.65244 0.53766 0.0
C1227 C 0.00152 0.66703 0.57072 0.0
C1228 C 0.99329 0.62181 0.52521 0.0
C1229 C 0.01195 0.60483 0.5452 0.0
H1230 H 0.97365 0.66452 0.52148 0.0
H1231 H 0.9821 0.61125 0.49991 0.0
S1232 S 0.05418 0.63388 0.63245 0.0
N1233 N 0.03536 0.66286 0.62252 0.0
N1234 N 0.04529 0.60606 0.59906 0.0
C1235 C 0.02605 0.6197 0.57793 0.0
C1236 C 0.02066 0.65056 0.59071 0.0
C1237 C 0.62592 0.74678 0.8386 0.0
C1238 C 0.61289 0.77355 0.84991 0.0
C1239 C 0.65644 0.75096 0.8283 0.0
C1240 C 0.67479 0.78201 0.82909 0.0
H1241 H 0.61316 0.72238 0.83929 0.0
H1242 H 0.66637 0.72985 0.8217 0.0
S1243 S 0.65008 0.85997 0.85064 0.0
N1244 N 0.61958 0.83225 0.85672 0.0
N1245 N 0.67683 0.83983 0.83788 0.0
C1246 C 0.66132 0.80887 0.83796 0.0
C1247 C 0.63036 0.80473 0.84821 0.0
C1248 C 0.50274 0.53576 0.68642 0.0
C1249 C 0.47083 0.51983 0.68376 0.0
C1250 C 0.52019 0.53546 0.65804 0.0
C1251 C 0.50626 0.51961 0.6258 0.0
H1252 H 0.51434 0.54889 0.71054 0.0
H1253 H 0.54442 0.54846 0.66115 0.0
S1254 S 0.42469 0.47161 0.60553 0.0
N1255 N 0.42695 0.48582 0.64633 0.0
N1256 N 0.45952 0.48553 0.59339 0.0
C1257 C 0.47474 0.50284 0.62299 0.0
C1258 C 0.4571 0.50288 0.65182 0.0
C1259 C 0.74837 0.20247 0.94571 0.0
C1260 C 0.77357 0.19138 0.96307 0.0
C1261 C 0.75226 0.2181 0.91605 0.0
C1262 C 0.7815 0.22319 0.90273 0.0
H1263 H 0.72508 0.19785 0.95416 0.0
H1264 H 0.7318 0.22462 0.9025 0.0
S1265 S 0.85618 0.20369 0.94166 0.0
N1266 N 0.82971 0.19016 0.967 0.0
N1267 N 0.83694 0.21947 0.91134 0.0
C1268 C 0.80736 0.2142 0.92112 0.0
C1269 C 0.80343 0.1983 0.95125 0.0
C1270 C 0.09433 0.4971 0.1428 0.0
C1271 C 0.07912 0.48132 0.16833 0.0
C1272 C 0.07717 0.50407 0.11348 0.0
C1273 C 0.04404 0.49512 0.10796 0.0
H1274 H 0.11969 0.50545 0.14602 0.0
H1275 H 0.09006 0.51774 0.09561 0.0
S1276 S 0.99283 0.45029 0.16485 0.0
N1277 N 0.0289 0.45475 0.18485 0.0
N1278 N 0.99671 0.46764 0.12917 0.0
C1279 C 0.02853 0.47791 0.13229 0.0
C1280 C 0.04605 0.47091 0.16248 0.0
C1281 C 0.80016 0.82867 0.44971 0.0
C1282 C 0.77823 0.84072 0.46904 0.0
C1283 C 0.79274 0.81835 0.41443 0.0
C1284 C 0.76332 0.82018 0.39724 0.0
H1285 H 0.82358 0.82803 0.46163 0.0
H1286 H 0.81056 0.81018 0.40028 0.0
S1287 S 0.69594 0.84524 0.43635 0.0
N1288 N 0.72443 0.85032 0.46851 0.0
N1289 N 0.711 0.83155 0.40233 0.0
C1290 C 0.74066 0.83057 0.41641 0.0
C1291 C 0.74797 0.84066 0.45229 0.0
C1292 C 0.46368 0.4963 0.86808 0.0
C1293 C 0.44802 0.51674 0.84929 0.0
C1294 C 0.47291 0.50353 0.90359 0.0
C1295 C 0.46655 0.53131 0.92173 0.0
H1296 H 0.46831 0.47412 0.85547 0.0
H1297 H 0.48429 0.4868 0.91707 0.0
S1298 S 0.42991 0.5949 0.88426 0.0
N1299 N 0.42926 0.56758 0.85139 0.0
N1300 N 0.44635 0.58092 0.91786 0.0
C1301 C 0.45206 0.55259 0.90312 0.0
C1302 C 0.44288 0.54538 0.867 0.0
C1303 C 0.78819 0.23315 0.12651 0.0
C1304 C 0.78989 0.20015 0.12383 0.0
C1305 C 0.78134 0.24899 0.15697 0.0
C1306 C 0.77602 0.23249 0.18602 0.0
H1307 H 0.79083 0.24659 0.10449 0.0
H1308 H 0.77903 0.27404 0.15722 0.0
S1309 S 0.78247 0.147 0.19367 0.0
N1310 N 0.78918 0.15245 0.15389 0.0
N1311 N 0.77624 0.18193 0.21089 0.0
C1312 C 0.77967 0.19999 0.18423 0.0
C1313 C 0.78657 0.1839 0.15322 0.0
C1314 C 0.07547 0.53465 0.34281 0.0
C1315 C 0.09065 0.51031 0.32962 0.0
C1316 C 0.06193 0.53256 0.37366 0.0
C1317 C 0.06306 0.50606 0.39254 0.0
H1318 H 0.07477 0.55599 0.32977 0.0
H1319 H 0.05136 0.55236 0.38325 0.0
S1320 S 0.09682 0.43404 0.36726 0.0
N1321 N 0.10368 0.45754 0.33652 0.0
N1322 N 0.07827 0.45362 0.39434 0.0
C1323 C 0.07692 0.48086 0.37888 0.0
C1324 C 0.09069 0.48297 0.34749 0.0
C1325 C 0.7803 0.83858 0.66782 0.0
C1326 C 0.7693 0.82106 0.63553 0.0
C1327 C 0.78026 0.82341 0.69794 0.0
C1328 C 0.7692 0.78986 0.69746 0.0
H1329 H 0.78902 0.86443 0.67006 0.0
H1330 H 0.78912 0.83841 0.72191 0.0
S1331 S 0.73844 0.73245 0.61953 0.0
N1332 N 0.74737 0.76788 0.60477 0.0
N1333 N 0.74731 0.73941 0.66163 0.0
C1334 C 0.75821 0.77186 0.66538 0.0
C1335 C 0.75827 0.7874 0.63445 0.0
C1336 C 0.69013 0.45968 0.53718 0.0
C1337 C 0.69985 0.45848 0.50402 0.0
C1338 C 0.66988 0.48011 0.54726 0.0
C1339 C 0.65853 0.50041 0.52471 0.0
H1340 H 0.69748 0.44404 0.55538 0.0
H1341 H 0.66225 0.47915 0.57262 0.0
S1342 S 0.67833 0.5081 0.43559 0.0
N1343 N 0.69772 0.48068 0.44912 0.0
N1344 N 0.65981 0.51916 0.46802 0.0
C1345 C 0.66909 0.50051 0.49191 0.0
C1346 C 0.68963 0.4795 0.48156 0.0
C1347 C 0.15202 0.06441 0.49858 0.0
C1348 C 0.16681 0.09334 0.51884 0.0
C1349 C 0.12209 0.04775 0.5044 0.0
C1350 C 0.10599 0.05927 0.53091 0.0
H1351 H 0.16329 0.05495 0.47758 0.0
H1352 H 0.11125 0.0261 0.48754 0.0
S1353 S 0.13634 0.13188 0.59387 0.0
N1354 N 0.16414 0.13133 0.56817 0.0
N1355 N 0.10856 0.10012 0.57937 0.0
C1356 C 0.12123 0.08748 0.55219 0.0
C1357 C 0.15141 0.10449 0.54608 0.0
C1358 C 0.22182 0.93613 0.76497 0.0
C1359 C 0.21206 0.94965 0.79519 0.0
C1360 C 0.23614 0.90899 0.76479 0.0
C1361 C 0.24168 0.89437 0.79492 0.0
H1362 H 0.21763 0.94602 0.74089 0.0
H1363 H 0.24238 0.89907 0.74063 0.0
S1364 S 0.2227 0.92182 0.88158 0.0
N1365 N 0.21042 0.9473 0.85651 0.0
N1366 N 0.23757 0.8966 0.85639 0.0
C1367 C 0.23309 0.90838 0.82566 0.0
C1368 C 0.21821 0.93586 0.82574 0.0
C1369 C 0.38823 0.90801 0.07022 0.0
C1370 C 0.36558 0.9188 0.0485 0.0
C1371 C 0.41929 0.92515 0.07704 0.0
C1372 C 0.42921 0.95385 0.0624 0.0
H1373 H 0.38203 0.88606 0.08225 0.0
H1374 H 0.43567 0.91558 0.09392 0.0
S1375 S 0.37933 0.99259 0.00341 0.0
N1376 N 0.35525 0.96014 0.01216 0.0
N1377 N 0.41389 0.99239 0.02495 0.0
C1378 C 0.40689 0.96506 0.04058 0.0
C1379 C 0.37506 0.94754 0.03364 0.0
C1380 C 0.86629 0.62304 0.8182 0.0
C1381 C 0.85635 0.59463 0.7955 0.0
C1382 C 0.85283 0.65019 0.81451 0.0
C1383 C 0.82876 0.65043 0.78784 0.0
H1384 H 0.88489 0.62457 0.8391 0.0
H1385 H 0.86178 0.67132 0.83283 0.0
S1386 S 0.79342 0.58192 0.72175 0.0
N1387 N 0.82032 0.56798 0.74556 0.0
N1388 N 0.79495 0.61943 0.73859 0.0
C1389 C 0.81813 0.62207 0.76509 0.0
C1390 C 0.83189 0.59411 0.76894 0.0
C1391 C 0.856 0.58179 0.01966 0.0
C1392 C 0.85597 0.61522 0.02422 0.0
C1393 C 0.88438 0.57004 0.02263 0.0
C1394 C 0.91377 0.59132 0.02992 0.0
H1395 H 0.83397 0.56453 0.0134 0.0
H1396 H 0.88335 0.54422 0.01835 0.0
S1397 S 0.92688 0.6807 0.04732 0.0
N1398 N 0.88823 0.66919 0.03873 0.0
N1399 N 0.94108 0.64715 0.04394 0.0
C1400 C 0.91404 0.62465 0.03538 0.0
C1401 C 0.88531 0.63659 0.03263 0.0
C1402 C 0.18632 0.14107 0.78261 0.0
C1403 C 0.1977 0.11762 0.80069 0.0
C1404 C 0.20623 0.16957 0.77706 0.0
C1405 C 0.23859 0.17637 0.78956 0.0
H1406 H 0.16171 0.13739 0.77221 0.0
H1407 H 0.19586 0.18654 0.76287 0.0
S1408 S 0.28053 0.12322 0.83901 0.0
N1409 N 0.24369 0.10312 0.83135 0.0
N1410 N 0.28117 0.15715 0.82121 0.0
C1411 C 0.25044 0.15329 0.80793 0.0
C1412 C 0.23004 0.1239 0.81343 0.0
C1413 C 0.34664 0.92696 0.29361 0.0
C1414 C 0.37989 0.9336 0.29919 0.0
C1415 C 0.32949 0.89511 0.28856 0.0
C1416 C 0.34498 0.86872 0.28848 0.0
H1417 H 0.3337 0.94649 0.29254 0.0
H1418 H 0.304 0.89116 0.28337 0.0
S1419 S 0.43132 0.87261 0.30512 0.0
N1420 N 0.42744 0.91075 0.30683 0.0
N1421 N 0.39512 0.85107 0.29695 0.0
C1422 C 0.37805 0.87491 0.29528 0.0
C1423 C 0.39553 0.90729 0.30076 0.0
C1424 C 0.53884 0.37064 0.58522 0.0
C1425 C 0.56387 0.3536 0.58573 0.0
C1426 C 0.53859 0.39702 0.5662 0.0
C1427 C 0.56331 0.40753 0.54671 0.0
H1428 H 0.51963 0.36426 0.60051 0.0
H1429 H 0.5194 0.41004 0.5679 0.0
S1430 S 0.63294 0.36925 0.5364 0.0
N1431 N 0.61289 0.34765 0.56276 0.0
N1432 N 0.61242 0.39711 0.52698 0.0
C1433 C 0.58761 0.38957 0.54534 0.0
C1434 C 0.58792 0.36272 0.5649 0.0
C1435 C 0.38283 0.74559 0.3716 0.0
C1436 C 0.40668 0.74335 0.35027 0.0
C1437 C 0.35333 0.75085 0.35845 0.0
C1438 C 0.34619 0.75334 0.32328 0.0
H1439 H 0.38718 0.74415 0.39893 0.0
H1440 H 0.33599 0.75306 0.37614 0.0
S1441 S 0.4 0.74765 0.25619 0.0
N1442 N 0.42116 0.74337 0.2921 0.0
N1443 N 0.3651 0.75215 0.26707 0.0
C1444 C 0.3695 0.75022 0.3014 0.0
C1445 C 0.39991 0.74557 0.31498 0.0
C1446 C 0.03052 0.67766 0.14827 0.0
C1447 C 0.04645 0.69949 0.12794 0.0
C1448 C 0.02215 0.64465 0.13723 0.0
C1449 C 0.02913 0.63201 0.10523 0.0
H1450 H 0.02383 0.68618 0.17277 0.0
H1451 H 0.00917 0.62915 0.15358 0.0
S1452 S 0.07296 0.67853 0.04341 0.0
N1453 N 0.07086 0.70594 0.07528 0.0
N1454 N 0.05495 0.64368 0.05424 0.0
C1455 C 0.04639 0.65332 0.08525 0.0
C1456 C 0.0551 0.68709 0.09667 0.0
C1457 C 0.1222 0.23287 0.86082 0.0
C1458 C 0.09892 0.24807 0.84594 0.0
C1459 C 0.15146 0.2349 0.84837 0.0
C1460 C 0.15903 0.25261 0.82071 0.0
H1461 H 0.11789 0.21928 0.88249 0.0
H1462 H 0.16848 0.22282 0.86116 0.0
S1463 S 0.10598 0.29649 0.7721 0.0
N1464 N 0.08486 0.28088 0.80144 0.0
N1465 N 0.14039 0.28514 0.77817 0.0
C1466 C 0.13582 0.26765 0.80514 0.0
C1467 C 0.10564 0.26522 0.81767 0.0
C1468 C 0.52664 0.69744 0.00788 0.0
C1469 C 0.53255 0.70492 0.97463 0.0
C1470 C 0.52287 0.66549 0.01625 0.0
C1471 C 0.52511 0.64002 0.99172 0.0
H1472 H 0.52505 0.71638 0.02768 0.0
H1473 H 0.51891 0.66083 0.04224 0.0
S1474 S 0.53712 0.6458 0.90026 0.0
N1475 N 0.53834 0.68337 0.91648 0.0
N1476 N 0.53134 0.62378 0.93237 0.0
C1477 C 0.53022 0.64697 0.95826 0.0
C1478 C 0.53395 0.6793 0.94968 0.0
C1479 C 0.10301 0.78206 0.71275 0.0
C1480 C 0.09842 0.75958 0.68325 0.0
C1481 C 0.13187 0.78953 0.73383 0.0
C1482 C 0.15738 0.77484 0.72632 0.0
H1483 H 0.08434 0.79447 0.71942 0.0
H1484 H 0.13431 0.80754 0.75579 0.0
S1485 S 0.15686 0.71225 0.65362 0.0
N1486 N 0.12134 0.72118 0.64871 0.0
N1487 N 0.17555 0.73527 0.68828 0.0
C1488 C 0.15285 0.75156 0.69746 0.0
C1489 C 0.12342 0.74395 0.67594 0.0
C1490 C 0.98803 0.37297 0.47473 0.0
C1491 C 0.01564 0.36126 0.46887 0.0
C1492 C 0.98954 0.40507 0.48809 0.0
C1493 C 0.01871 0.42624 0.49706 0.0
H1494 H 0.96498 0.35762 0.46767 0.0
H1495 H 0.96772 0.41353 0.491 0.0
S1496 S 0.09785 0.40751 0.48839 0.0
N1497 N 0.07307 0.3734 0.47377 0.0
N1498 N 0.07576 0.43353 0.50022 0.0
C1499 C 0.04651 0.41471 0.49259 0.0
C1500 C 0.04501 0.38223 0.47811 0.0
C1501 C 0.40821 0.25824 0.21594 0.0
C1502 C 0.41178 0.2776 0.18879 0.0
C1503 C 0.38055 0.25422 0.23213 0.0
C1504 C 0.35549 0.26903 0.22125 0.0
H1505 H 0.4264 0.24508 0.2238 0.0
H1506 H 0.37778 0.23743 0.25133 0.0
S1507 S 0.3535 0.32349 0.15293 0.0
N1508 N 0.38864 0.31354 0.15352 0.0
N1509 N 0.33623 0.30486 0.18319 0.0
C1510 C 0.35932 0.28968 0.19543 0.0
C1511 C 0.38766 0.29433 0.1794 0.0
C1512 C 0.583 0.50173 0.4006 0.0
C1513 C 0.59747 0.53333 0.39529 0.0
C1514 C 0.56513 0.49597 0.42826 0.0
C1515 C 0.5614 0.52155 0.45185 0.0
H1516 H 0.58589 0.48116 0.38361 0.0
H1517 H 0.55517 0.47129 0.43191 0.0
S1518 S 0.59223 0.60882 0.44877 0.0
N1519 N 0.6049 0.59066 0.41545 0.0
N1520 N 0.57211 0.57961 0.4674 0.0
C1521 C 0.57498 0.55321 0.44646 0.0
C1522 C 0.59278 0.55916 0.41821 0.0
C1523 C 0.27262 0.82785 0.11955 0.0
C1524 C 0.25329 0.81082 0.09041 0.0
C1525 C 0.27576 0.81409 0.15031 0.0
C1526 C 0.25945 0.78277 0.15349 0.0
H1527 H 0.28541 0.85225 0.11885 0.0
H1528 H 0.2904 0.82868 0.17209 0.0
S1529 S 0.20747 0.72691 0.08439 0.0
N1530 N 0.21888 0.76007 0.06617 0.0
N1531 N 0.2245 0.73434 0.12443 0.0
C1532 C 0.24063 0.76504 0.12441 0.0
C1533 C 0.23763 0.779 0.09279 0.0
C1534 C 0.9935 0.50454 0.87506 0.0
C1535 C 0.96516 0.51616 0.87047 0.0
C1536 C 0.01061 0.50706 0.90761 0.0
C1537 C 1.00018 0.52148 0.93692 0.0
H1538 H 0.00215 0.49248 0.85353 0.0
H1539 H 0.03169 0.49672 0.90987 0.0
S1540 S 0.92908 0.55897 0.938 0.0
N1541 N 0.92868 0.54491 0.89746 0.0
N1542 N 0.9607 0.54976 0.9585 0.0
C1543 C 0.97256 0.53452 0.93235 0.0
C1544 C 0.95509 0.53181 0.89921 0.0
C1545 C 0.29153 0.21965 0.6111 0.0
C1546 C 0.28432 0.18696 0.59718 0.0
C1547 C 0.29423 0.22848 0.64673 0.0
C1548 C 0.29025 0.20493 0.66979 0.0
H1549 H 0.29528 0.23864 0.59441 0.0
H1550 H 0.30043 0.25391 0.65629 0.0
S1551 S 0.2695 0.11608 0.64678 0.0
N1552 N 0.27195 0.13098 0.60962 0.0
N1553 N 0.27733 0.14765 0.67622 0.0
C1554 C 0.2824 0.17224 0.65624 0.0
C1555 C 0.27934 0.16324 0.62006 0.0
C1556 C 0.61368 0.50598 0.19185 0.0
C1557 C 0.5924 0.5134 0.21483 0.0
C1558 C 0.60521 0.50176 0.15629 0.0
C1559 C 0.57505 0.50474 0.14187 0.0
H1560 H 0.63723 0.50323 0.20131 0.0
H1561 H 0.62256 0.49581 0.14002 0.0
S1562 S 0.51044 0.5244 0.19039 0.0
N1563 N 0.53972 0.52402 0.22038 0.0
N1564 N 0.52378 0.51601 0.1534 0.0
C1565 C 0.55354 0.51255 0.16439 0.0
C1566 C 0.56219 0.51685 0.20082 0.0
C1567 C 0.24857 0.81724 0.90966 0.0
C1568 C 0.27133 0.81228 0.93566 0.0
C1569 C 0.24561 0.80109 0.87652 0.0
C1570 C 0.2652 0.77927 0.86804 0.0
H1571 H 0.23342 0.83442 0.91457 0.0
H1572 H 0.22835 0.80635 0.85713 0.0
S1573 S 0.3273 0.75606 0.92697 0.0
N1574 N 0.31272 0.78248 0.95093 0.0
N1575 N 0.30715 0.75232 0.88857 0.0
C1576 C 0.28704 0.77288 0.89409 0.0
C1577 C 0.29016 0.78939 0.92788 0.0
C1578 C 0.96441 0.55872 0.69975 0.0
C1579 C 0.95393 0.53009 0.71422 0.0
C1580 C 0.97828 0.55799 0.66913 0.0
C1581 C 0.98267 0.52872 0.65223 0.0
H1582 H 0.96064 0.58171 0.71127 0.0
H1583 H 0.98484 0.58048 0.65812 0.0
S1584 S 0.96246 0.44747 0.6815 0.0
N1585 N 0.95112 0.47191 0.71083 0.0
N1586 N 0.97758 0.47071 0.65336 0.0
C1587 C 0.97405 0.50015 0.66744 0.0
C1588 C 0.95951 0.5008 0.69842 0.0
C1589 C 0.26419 0.18183 0.39646 0.0
C1590 C 0.25966 0.19891 0.42738 0.0
C1591 C 0.26696 0.19692 0.36634 0.0
C1592 C 0.26614 0.22997 0.36588 0.0
H1593 H 0.26494 0.15633 0.39522 0.0
H1594 H 0.26962 0.18241 0.3431 0.0
S1595 S 0.25538 0.28596 0.43994 0.0
N1596 N 0.25469 0.25101 0.45565 0.0
N1597 N 0.26067 0.27944 0.39909 0.0
C1598 C 0.26226 0.24758 0.39669 0.0
C1599 C 0.25881 0.23205 0.42735 0.0
C1600 C 0.35616 0.54614 0.50352 0.0
C1601 C 0.34576 0.55777 0.53426 0.0
C1602 C 0.38527 0.53601 0.50362 0.0
C1603 C 0.40493 0.5373 0.53446 0.0
H1604 H 0.34259 0.54644 0.479 0.0
H1605 H 0.39326 0.52914 0.47928 0.0
S1606 S 0.38608 0.5598 0.62234 0.0
N1607 N 0.35554 0.56534 0.59672 0.0
N1608 N 0.41023 0.54692 0.59677 0.0
C1609 C 0.3937 0.54643 0.56549 0.0
C1610 C 0.3641 0.5565 0.56544 0.0
C1611 C 0.88672 0.94955 0.54851 0.0
C1612 C 0.86777 0.96785 0.56573 0.0
C1613 C 0.91729 0.96335 0.54221 0.0
C1614 C 0.93058 0.99608 0.55312 0.0
H1615 H 0.87783 0.92428 0.53945 0.0
H1616 H 0.93062 0.94801 0.52873 0.0
S1617 S 0.89107 0.05465 0.59976 0.0
N1618 N 0.86465 0.02061 0.59377 0.0
N1619 N 0.92218 0.04646 0.58224 0.0
C1620 C 0.91195 0.01471 0.57049 0.0
C1621 C 0.88061 0.00066 0.57671 0.0
C1622 C 0.831 0.09453 0.26805 0.0
C1623 C 0.86314 0.0991 0.28103 0.0
C1624 C 0.81278 0.11785 0.27606 0.0
C1625 C 0.82583 0.14636 0.29784 0.0
H1626 H 0.81987 0.07295 0.25123 0.0
H1627 H 0.78831 0.11354 0.26502 0.0
S1628 S 0.90885 0.17002 0.33886 0.0
N1629 N 0.90717 0.13455 0.31688 0.0
N1630 N 0.87302 0.17786 0.33222 0.0
C1631 C 0.85783 0.15102 0.31137 0.0
C1632 C 0.87646 0.12757 0.30285 0.0
C1633 C 0.67579 0.05887 0.00623 0.0
C1634 C 0.68176 0.08308 0.03434 0.0
C1635 C 0.64533 0.04068 0.99596 0.0
C1636 C 0.61954 0.04584 0.01342 0.0
H1637 H 0.69466 0.05425 0.99153 0.0
H1638 H 0.64197 0.02285 0.97372 0.0
S1639 S 0.62289 0.10478 0.09035 0.0
N1640 N 0.65949 0.11012 0.08058 0.0
N1641 N 0.60248 0.07592 0.06153 0.0
C1642 C 0.62538 0.06929 0.04229 0.0
C1643 C 0.65638 0.0879 0.05265 0.0
C1644 C 0.21596 0.42608 0.31946 0.0
C1645 C 0.21614 0.44321 0.29043 0.0
C1646 C 0.2328 0.401 0.32223 0.0
C1647 C 0.25101 0.39246 0.29643 0.0
H1648 H 0.20161 0.4311 0.33958 0.0
H1649 H 0.23078 0.38756 0.34432 0.0
S1650 S 0.26183 0.43202 0.21676 0.0
N1651 N 0.23767 0.45136 0.23642 0.0
N1652 N 0.26987 0.40473 0.24189 0.0
C1653 C 0.25281 0.41063 0.26816 0.0
C1654 C 0.2352 0.43581 0.26506 0.0
C1655 C 0.19076 0.45333 0.04818 0.0
C1656 C 0.18787 0.41965 0.04888 0.0
C1657 C 0.16403 0.46791 0.04668 0.0
C1658 C 0.13358 0.44941 0.04653 0.0
H1659 H 0.2138 0.46853 0.0485 0.0
H1660 H 0.16726 0.49384 0.04617 0.0
S1661 S 0.1128 0.36035 0.04674 0.0
N1662 N 0.15163 0.36829 0.04833 0.0
N1663 N 0.1019 0.3956 0.0459 0.0
C1664 C 0.13037 0.41578 0.04703 0.0
C1665 C 0.15736 0.40094 0.04811 0.0
C1666 C 0.8245 0.90571 0.25214 0.0
C1667 C 0.85769 0.91062 0.25789 0.0
C1668 C 0.80541 0.87704 0.25945 0.0
C1669 C 0.81877 0.85259 0.27366 0.0
H1670 H 0.81319 0.92406 0.24168 0.0
H1671 H 0.78 0.87421 0.25425 0.0
S1672 S 0.90468 0.85454 0.29506 0.0
N1673 N 0.90309 0.8889 0.27896 0.0
N1674 N 0.86763 0.83595 0.29403 0.0
C1675 C 0.85203 0.8576 0.28003 0.0
C1676 C 0.87136 0.88632 0.27177 0.0
C1677 C 0.70753 0.09924 0.75282 0.0
C1678 C 0.68781 0.08167 0.77383 0.0
C1679 C 0.72051 0.13211 0.7619 0.0
C1680 C 0.71403 0.14868 0.79216 0.0
H1681 H 0.71268 0.0877 0.72889 0.0
H1682 H 0.73508 0.14479 0.74464 0.0
S1683 S 0.6659 0.11351 0.85747 0.0
N1684 N 0.66396 0.08317 0.82743 0.0
N1685 N 0.68822 0.14483 0.8442 0.0
C1686 C 0.69507 0.1313 0.81386 0.0
C1687 C 0.68202 0.09783 0.80479 0.0
loop_
_geom_bond_atom_site_label_1
_geom_bond_atom_site_label_2
_geom_bond_distance
_geom_bond_site_symmetry_2
_ccdc_geom_bond_type
C0 O1 1.160 . S
C0 O7 1.185 . S
O1 C0 1.160 . S
O2 Zn3 1.899 . S
O2 C10 1.284 . S
Zn3 O2 1.899 . S
Zn3 O4 2.032 . S
Zn3 O7 2.086 . S
Zn3 O12 1.977 1_455 S
O4 Zn3 2.032 . S
O4 C8 1.278 . S
C5 O6 1.203 . S
C5 O12 1.267 . S
O6 C5 1.203 . S
O7 C0 1.185 . S
O7 Zn3 2.086 . S
C8 O4 1.278 . S
C8 O9 1.211 . S
O9 C8 1.211 . S
C10 O2 1.284 . S
C10 O11 1.273 . S
O11 C10 1.273 . S
O12 Zn3 1.977 1_655 S
O12 C5 1.267 . S
C13 O14 1.160 . S
C13 O20 1.185 . S
O14 C13 1.160 . S
O15 Zn16 1.899 . S
O15 C23 1.284 . S
Zn16 O15 1.899 . S
Zn16 O17 2.032 1_455 S
Zn16 O20 2.086 1_455 S
Zn16 O25 1.977 . S
O17 Zn16 2.032 1_655 S
O17 C21 1.278 1_655 S
C18 O19 1.203 . S
C18 O25 1.267 . S
O19 C18 1.203 . S
O20 C13 1.185 . S
O20 Zn16 2.086 1_655 S
C21 O17 1.278 1_455 S
C21 O22 1.211 . S
O22 C21 1.211 . S
C23 O15 1.284 . S
C23 O24 1.273 . S
O24 C23 1.273 . S
O25 Zn16 1.977 . S
O25 C18 1.267 . S
C26 O27 1.160 . S
C26 O33 1.185 . S
O27 C26 1.160 . S
O28 Zn29 1.899 . S
O28 C36 1.284 . S
Zn29 O28 1.899 . S
Zn29 O30 2.032 . S
Zn29 O33 2.086 . S
Zn29 O38 1.977 . S
O30 Zn29 2.032 . S
O30 C34 1.278 . S
C31 O32 1.203 . S
C31 O38 1.267 . S
O32 C31 1.203 . S
O33 C26 1.185 . S
O33 Zn29 2.086 . S
C34 O30 1.278 . S
C34 O35 1.211 . S
O35 C34 1.211 . S
C36 O28 1.284 . S
C36 O37 1.273 . S
O37 C36 1.273 . S
O38 Zn29 1.977 . S
O38 C31 1.267 . S
C39 O40 1.160 . S
C39 O46 1.185 . S
O40 C39 1.160 . S
O41 Zn42 1.899 . S
O41 C49 1.284 . S
Zn42 O41 1.899 . S
Zn42 O43 2.032 . S
Zn42 O46 2.086 . S
Zn42 O51 1.977 . S
O43 Zn42 2.032 . S
O43 C47 1.278 . S
C44 O45 1.203 . S
C44 O51 1.267 . S
O45 C44 1.203 . S
O46 C39 1.185 . S
O46 Zn42 2.086 . S
C47 O43 1.278 . S
C47 O48 1.211 . S
O48 C47 1.211 . S
C49 O41 1.284 . S
C49 O50 1.273 . S
O50 C49 1.273 . S
O51 Zn42 1.977 . S
O51 C44 1.267 . S
C52 O53 1.160 . S
C52 O59 1.185 1_655 S
O53 C52 1.160 . S
O54 Zn55 1.899 . S
O54 C62 1.284 . S
Zn55 O54 1.899 . S
Zn55 O56 2.032 . S
Zn55 O59 2.086 . S
Zn55 O64 1.977 . S
O56 Zn55 2.032 . S
O56 C60 1.278 . S
C57 O58 1.203 . S
C57 O64 1.267 . S
O58 C57 1.203 . S
O59 C52 1.185 1_455 S
O59 Zn55 2.086 . S
C60 O56 1.278 . S
C60 O61 1.211 . S
O61 C60 1.211 . S
C62 O54 1.284 . S
C62 O63 1.273 . S
O63 C62 1.273 . S
O64 Zn55 1.977 . S
O64 C57 1.267 . S
C65 O66 1.160 . S
C65 O72 1.185 . S
O66 C65 1.160 . S
O67 Zn68 1.899 . S
O67 C75 1.284 . S
Zn68 O67 1.899 . S
Zn68 O69 2.032 . S
Zn68 O72 2.086 . S
Zn68 O77 1.977 . S
O69 Zn68 2.032 . S
O69 C73 1.278 . S
C70 O71 1.203 . S
C70 O77 1.267 . S
O71 C70 1.203 . S
O72 C65 1.185 . S
O72 Zn68 2.086 . S
C73 O69 1.278 . S
C73 O74 1.211 . S
O74 C73 1.211 . S
C75 O67 1.284 . S
C75 O76 1.273 . S
O76 C75 1.273 . S
O77 Zn68 1.977 . S
O77 C70 1.267 . S
C78 O79 1.160 . S
C78 O85 1.185 . S
O79 C78 1.160 . S
O80 Zn81 1.899 . S
O80 C88 1.284 . S
Zn81 O80 1.899 . S
Zn81 O82 2.032 . S
Zn81 O85 2.086 . S
Zn81 O90 1.977 . S
O82 Zn81 2.032 . S
O82 C86 1.278 . S
C83 O84 1.203 . S
C83 O90 1.267 . S
O84 C83 1.203 . S
O85 C78 1.185 . S
O85 Zn81 2.086 . S
C86 O82 1.278 . S
C86 O87 1.211 . S
O87 C86 1.211 . S
C88 O80 1.284 . S
C88 O89 1.273 . S
O89 C88 1.273 . S
O90 Zn81 1.977 . S
O90 C83 1.267 . S
C91 O92 1.160 . S
C91 O98 1.185 . S
O92 C91 1.160 . S
O93 Zn94 1.899 . S
O93 C101 1.282 1_455 S
Zn94 O93 1.899 . S
Zn94 O95 2.032 . S
Zn94 O98 2.086 . S
Zn94 O103 1.977 1_455 S
O95 Zn94 2.032 . S
O95 C99 1.278 . S
C96 O97 1.203 . S
C96 O103 1.267 . S
O97 C96 1.203 . S
O98 C91 1.185 . S
O98 Zn94 2.086 . S
C99 O95 1.278 . S
C99 O100 1.211 1_455 S
O100 C99 1.211 1_655 S
C101 O93 1.282 1_655 S
C101 O102 1.273 . S
O102 C101 1.273 . S
O103 Zn94 1.977 1_655 S
O103 C96 1.267 . S
C104 O105 1.160 . S
C104 O111 1.185 . S
O105 C104 1.160 . S
O106 Zn107 1.899 . S
O106 C114 1.284 . S
Zn107 O106 1.899 . S
Zn107 O108 2.032 . S
Zn107 O111 2.086 . S
Zn107 O116 1.977 1_545 S
O108 Zn107 2.032 . S
O108 C112 1.278 . S
C109 O110 1.203 . S
C109 O116 1.267 . S
O110 C109 1.203 . S
O111 C104 1.185 . S
O111 Zn107 2.086 . S
C112 O108 1.278 . S
C112 O113 1.211 1_545 S
O113 C112 1.211 1_565 S
C114 O106 1.284 . S
C114 O115 1.273 . S
O115 C114 1.273 . S
O116 Zn107 1.977 1_565 S
O116 C109 1.267 . S
C117 O118 1.160 . S
C117 O124 1.185 . S
O118 C117 1.160 . S
O119 Zn120 1.899 . S
O119 C127 1.284 . S
Zn120 O119 1.899 . S
Zn120 O121 2.032 . S
Zn120 O124 2.086 . S
Zn120 O129 1.977 . S
O121 Zn120 2.032 . S
O121 C125 1.278 . S
C122 O123 1.203 . S
C122 O129 1.267 . S
O123 C122 1.203 . S
O124 C117 1.185 . S
O124 Zn120 2.086 . S
C125 O121 1.278 . S
C125 O126 1.211 . S
O126 C125 1.211 . S
C127 O119 1.284 . S
C127 O128 1.273 . S
O128 C127 1.273 . S
O129 Zn120 1.977 . S
O129 C122 1.267 . S
C130 O131 1.160 . S
C130 O137 1.185 . S
O131 C130 1.160 . S
O132 Zn133 1.899 . S
O132 C140 1.284 . S
Zn133 O132 1.899 . S
Zn133 O134 2.032 . S
Zn133 O137 2.086 1_545 S
Zn133 O142 1.977 . S
O134 Zn133 2.032 . S
O134 C138 1.278 . S
C135 O136 1.203 . S
C135 O142 1.267 . S
O136 C135 1.203 . S
O137 C130 1.185 . S
O137 Zn133 2.086 1_565 S
C138 O134 1.278 . S
C138 O139 1.211 . S
O139 C138 1.211 . S
C140 O132 1.284 . S
C140 O141 1.273 . S
O141 C140 1.273 . S
O142 Zn133 1.977 . S
O142 C135 1.267 . S
C143 O144 1.160 . S
C143 O150 1.185 . S
O144 C143 1.160 . S
O145 Zn146 1.899 . S
O145 C153 1.284 . S
Zn146 O145 1.899 . S
Zn146 O147 2.032 1_554 S
Zn146 O150 2.086 . S
Zn146 O155 1.977 . S
O147 Zn146 2.032 1_556 S
O147 C151 1.278 . S
C148 O149 1.203 . S
C148 O155 1.267 . S
O149 C148 1.203 . S
O150 C143 1.185 . S
O150 Zn146 2.086 . S
C151 O147 1.278 . S
C151 O152 1.211 . S
O152 C151 1.211 . S
C153 O145 1.284 . S
C153 O154 1.273 . S
O154 C153 1.273 . S
O155 Zn146 1.977 . S
O155 C148 1.267 . S
C156 O157 1.160 . S
C156 O163 1.185 . S
O157 C156 1.160 . S
O158 Zn159 1.899 . S
O158 C166 1.284 . S
Zn159 O158 1.899 . S
Zn159 O160 2.032 . S
Zn159 O163 2.086 . S
Zn159 O168 1.977 . S
O160 Zn159 2.032 . S
O160 C164 1.278 . S
C161 O162 1.203 . S
C161 O168 1.267 . S
O162 C161 1.203 . S
O163 C156 1.185 . S
O163 Zn159 2.086 . S
C164 O160 1.278 . S
C164 O165 1.211 . S
O165 C164 1.211 . S
C166 O158 1.284 . S
C166 O167 1.273 . S
O167 C166 1.273 . S
O168 Zn159 1.977 . S
O168 C161 1.267 . S
C169 O170 1.160 . S
C169 O176 1.185 . S
O170 C169 1.160 . S
O171 Zn172 1.899 . S
O171 C179 1.284 . S
Zn172 O171 1.899 . S
Zn172 O173 2.032 . S
Zn172 O176 2.086 . S
Zn172 O181 1.977 . S
O173 Zn172 2.032 . S
O173 C177 1.278 1_554 S
C174 O175 1.203 . S
C174 O181 1.267 . S
O175 C174 1.203 . S
O176 C169 1.185 . S
O176 Zn172 2.086 . S
C177 O173 1.278 1_556 S
C177 O178 1.211 . S
O178 C177 1.211 . S
C179 O171 1.284 . S
C179 O180 1.273 . S
O180 C179 1.273 . S
O181 Zn172 1.977 . S
O181 C174 1.267 . S
C182 O183 1.160 . S
C182 O189 1.185 . S
O183 C182 1.160 . S
O184 Zn185 1.899 . S
O184 C192 1.284 . S
Zn185 O184 1.899 . S
Zn185 O186 2.032 . S
Zn185 O189 2.086 . S
Zn185 O194 1.977 . S
O186 Zn185 2.032 . S
O186 C190 1.278 . S
C187 O188 1.203 . S
C187 O194 1.267 . S
O188 C187 1.203 . S
O189 C182 1.185 . S
O189 Zn185 2.086 . S
C190 O186 1.278 . S
C190 O191 1.211 . S
O191 C190 1.211 . S
C192 O184 1.284 . S
C192 O193 1.273 . S
O193 C192 1.273 . S
O194 Zn185 1.977 . S
O194 C187 1.267 . S
C195 O196 1.160 . S
C195 O202 1.185 . S
O196 C195 1.160 . S
O197 Zn198 1.899 . S
O197 C205 1.284 . S
Zn198 O197 1.899 . S
Zn198 O199 2.032 . S
Zn198 O202 2.086 . S
Zn198 O207 1.977 . S
O199 Zn198 2.032 . S
O199 C203 1.278 . S
C200 O201 1.203 . S
C200 O207 1.267 . S
O201 C200 1.203 . S
O202 C195 1.185 . S
O202 Zn198 2.086 . S
C203 O199 1.278 . S
C203 O204 1.211 . S
O204 C203 1.211 . S
C205 O197 1.284 . S
C205 O206 1.273 . S
O206 C205 1.273 . S
O207 Zn198 1.977 . S
O207 C200 1.267 . S
C208 O209 1.160 . S
C208 O215 1.185 . S
O209 C208 1.160 . S
O210 Zn211 1.899 . S
O210 C218 1.284 . S
Zn211 O210 1.899 . S
Zn211 O212 2.032 . S
Zn211 O215 2.086 . S
Zn211 O220 1.977 1_545 S
O212 Zn211 2.032 . S
O212 C216 1.278 . S
C213 O214 1.203 . S
C213 O220 1.267 . S
O214 C213 1.203 . S
O215 C208 1.185 . S
O215 Zn211 2.086 . S
C216 O212 1.278 . S
C216 O217 1.211 1_545 S
O217 C216 1.211 1_565 S
C218 O210 1.284 . S
C218 O219 1.273 1_545 S
O219 C218 1.273 1_565 S
O220 Zn211 1.977 1_565 S
O220 C213 1.267 . S
C221 O222 1.160 . S
C221 O228 1.185 . S
O222 C221 1.160 . S
O223 Zn224 1.899 . S
O223 C231 1.284 . S
Zn224 O223 1.899 . S
Zn224 O225 2.032 . S
Zn224 O228 2.086 . S
Zn224 O233 1.977 . S
O225 Zn224 2.032 . S
O225 C229 1.278 . S
C226 O227 1.203 . S
C226 O233 1.267 . S
O227 C226 1.203 . S
O228 C221 1.185 . S
O228 Zn224 2.086 . S
C229 O225 1.278 . S
C229 O230 1.211 . S
O230 C229 1.211 . S
C231 O223 1.284 . S
C231 O232 1.273 . S
O232 C231 1.273 . S
O233 Zn224 1.977 . S
O233 C226 1.267 . S
C234 O235 1.160 . S
C234 O241 1.185 . S
O235 C234 1.160 . S
O236 Zn237 1.899 . S
O236 C244 1.284 . S
Zn237 O236 1.899 . S
Zn237 O238 2.032 . S
Zn237 O241 2.086 . S
Zn237 O246 1.977 . S
O238 Zn237 2.032 . S
O238 C242 1.278 . S
C239 O240 1.203 . S
C239 O246 1.267 . S
O240 C239 1.203 . S
O241 C234 1.185 . S
O241 Zn237 2.086 . S
C242 O238 1.278 . S
C242 O243 1.211 . S
O243 C242 1.211 . S
C244 O236 1.284 . S
C244 O245 1.273 . S
O245 C244 1.273 . S
O246 Zn237 1.977 . S
O246 C239 1.267 . S
C247 O248 1.160 . S
C247 O254 1.185 . S
O248 C247 1.160 . S
O249 Zn250 1.899 . S
O249 C257 1.284 . S
Zn250 O249 1.899 . S
Zn250 O251 2.032 . S
Zn250 O254 2.086 . S
Zn250 O259 1.977 1_565 S
O251 Zn250 2.032 . S
O251 C255 1.278 1_565 S
C252 O253 1.203 . S
C252 O259 1.267 . S
O253 C252 1.203 . S
O254 C247 1.185 . S
O254 Zn250 2.086 . S
C255 O251 1.278 1_545 S
C255 O256 1.211 . S
O256 C255 1.211 . S
C257 O249 1.284 . S
C257 O258 1.273 1_565 S
O258 C257 1.273 1_545 S
O259 Zn250 1.977 1_545 S
O259 C252 1.267 . S
C260 O261 1.160 . S
C260 O267 1.185 1_554 S
O261 C260 1.160 . S
O262 Zn263 1.899 . S
O262 C270 1.284 . S
Zn263 O262 1.899 . S
Zn263 O264 2.032 1_554 S
Zn263 O267 2.086 1_554 S
Zn263 O272 1.977 1_554 S
O264 Zn263 2.032 1_556 S
O264 C268 1.278 . S
C265 O266 1.203 1_556 S
C265 O272 1.267 . S
O266 C265 1.203 1_554 S
O267 C260 1.185 1_556 S
O267 Zn263 2.086 1_556 S
C268 O264 1.278 . S
C268 O269 1.211 . S
O269 C268 1.211 . S
C270 O262 1.284 . S
C270 O271 1.273 . S
O271 C270 1.273 . S
O272 Zn263 1.977 1_556 S
O272 C265 1.267 . S
C273 O274 1.160 . S
C273 O280 1.185 . S
O274 C273 1.160 . S
O275 Zn276 1.899 . S
O275 C283 1.284 . S
Zn276 O275 1.899 . S
Zn276 O277 2.032 . S
Zn276 O280 2.086 . S
Zn276 O285 1.977 . S
O277 Zn276 2.032 . S
O277 C281 1.278 . S
C278 O279 1.203 . S
C278 O285 1.267 . S
O279 C278 1.203 . S
O280 C273 1.185 . S
O280 Zn276 2.086 . S
C281 O277 1.278 . S
C281 O282 1.211 . S
O282 C281 1.211 . S
C283 O275 1.284 . S
C283 O284 1.273 . S
O284 C283 1.273 . S
O285 Zn276 1.977 . S
O285 C278 1.267 . S
C286 O287 1.160 . S
C286 O293 1.185 . S
O287 C286 1.160 . S
O288 Zn289 1.899 . S
O288 C296 1.284 . S
Zn289 O288 1.899 . S
Zn289 O290 2.032 . S
Zn289 O293 2.086 . S
Zn289 O298 1.977 . S
O290 Zn289 2.032 . S
O290 C294 1.278 . S
C291 O292 1.203 . S
C291 O298 1.267 . S
O292 C291 1.203 . S
O293 C286 1.185 . S
O293 Zn289 2.086 . S
C294 O290 1.278 . S
C294 O295 1.211 . S
O295 C294 1.211 . S
C296 O288 1.284 . S
C296 O297 1.273 . S
O297 C296 1.273 . S
O298 Zn289 1.977 . S
O298 C291 1.267 . S
C299 O300 1.160 . S
C299 O306 1.185 . S
O300 C299 1.160 . S
O301 Zn302 1.899 . S
O301 C309 1.284 . S
Zn302 O301 1.899 . S
Zn302 O303 2.032 . S
Zn302 O306 2.086 . S
Zn302 O311 1.977 . S
O303 Zn302 2.032 . S
O303 C307 1.278 . S
C304 O305 1.203 . S
C304 O311 1.267 . S
O305 C304 1.203 . S
O306 C299 1.185 . S
O306 Zn302 2.086 . S
C307 O303 1.278 . S
C307 O308 1.211 . S
O308 C307 1.211 . S
C309 O301 1.284 . S
C309 O310 1.273 . S
O310 C309 1.273 . S
O311 Zn302 1.977 . S
O311 C304 1.267 . S
Zn312 O318 1.969 . S
Zn312 O319 1.965 1_565 S
Zn312 O323 2.024 . S
Zn312 O328 1.969 . S
Zn313 O320 1.969 1_654 S
Zn313 O326 1.969 1_554 S
Zn313 O327 1.965 . S
Zn313 O329 2.024 1_655 S
C314 O315 1.229 . S
C314 O323 1.058 . S
O315 C314 1.229 . S
C316 O317 1.229 1_454 S
C316 O329 1.058 . S
O317 C316 1.229 1_656 S
O318 Zn312 1.969 . S
O318 C321 1.267 . S
O319 Zn312 1.965 1_545 S
O319 C330 1.260 1_554 S
O320 Zn313 1.969 1_456 S
O320 C330 1.258 . S
C321 O318 1.267 . S
C321 O322 1.228 . S
O322 C321 1.228 . S
O323 Zn312 2.024 . S
O323 C314 1.058 . S
C324 O325 1.247 . S
C324 O326 1.255 1_554 S
O325 C324 1.247 . S
O326 Zn313 1.969 1_556 S
O326 C324 1.255 1_556 S
O327 Zn313 1.965 . S
O327 C331 1.260 1_655 S
O328 Zn312 1.969 . S
O328 C331 1.258 1_565 S
O329 Zn313 2.024 1_455 S
O329 C316 1.058 . S
C330 O319 1.260 1_556 S
C330 O320 1.258 . S
C331 O327 1.260 1_455 S
C331 O328 1.258 1_545 S
Zn332 O338 1.969 . S
Zn332 O339 1.965 . S
Zn332 O343 2.024 . S
Zn332 O348 1.969 . S
Zn333 O340 1.969 . S
Zn333 O346 1.969 . S
Zn333 O347 1.965 . S
Zn333 O349 2.024 . S
C334 O335 1.229 . S
C334 O343 1.058 . S
O335 C334 1.229 . S
C336 O337 1.229 . S
C336 O349 1.058 . S
O337 C336 1.229 . S
O338 Zn332 1.969 . S
O338 C341 1.267 . S
O339 Zn332 1.965 . S
O339 C350 1.260 . S
O340 Zn333 1.969 . S
O340 C350 1.258 . S
C341 O338 1.267 . S
C341 O342 1.228 . S
O342 C341 1.228 . S
O343 Zn332 2.024 . S
O343 C334 1.058 . S
C344 O345 1.228 . S
C344 O346 1.267 . S
O345 C344 1.228 . S
O346 Zn333 1.969 . S
O346 C344 1.267 . S
O347 Zn333 1.965 . S
O347 C351 1.260 . S
O348 Zn332 1.969 . S
O348 C351 1.258 . S
O349 Zn333 2.024 . S
O349 C336 1.058 . S
C350 O339 1.260 . S
C350 O340 1.258 . S
C351 O347 1.260 . S
C351 O348 1.258 . S
Zn352 O358 1.969 . S
Zn352 O359 1.965 . S
Zn352 O363 2.024 . S
Zn352 O368 1.969 . S
Zn353 O360 1.969 . S
Zn353 O366 1.969 . S
Zn353 O367 1.965 1_565 S
Zn353 O369 2.024 . S
C354 O355 1.229 . S
C354 O363 1.058 . S
O355 C354 1.229 . S
C356 O357 1.229 . S
C356 O369 1.058 . S
O357 C356 1.229 . S
O358 Zn352 1.969 . S
O358 C361 1.267 . S
O359 Zn352 1.965 . S
O359 C370 1.260 . S
O360 Zn353 1.969 . S
O360 C370 1.258 1_565 S
C361 O358 1.267 . S
C361 O362 1.228 . S
O362 C361 1.228 . S
O363 Zn352 2.024 . S
O363 C354 1.058 . S
C364 O365 1.228 . S
C364 O366 1.267 . S
O365 C364 1.228 . S
O366 Zn353 1.969 . S
O366 C364 1.267 . S
O367 Zn353 1.965 1_545 S
O367 C371 1.260 . S
O368 Zn352 1.969 . S
O368 C371 1.258 . S
O369 Zn353 2.024 . S
O369 C356 1.058 . S
C370 O359 1.260 . S
C370 O360 1.258 1_545 S
C371 O367 1.260 . S
C371 O368 1.258 . S
Zn372 O378 1.969 . S
Zn372 O379 1.965 . S
Zn372 O383 2.024 . S
Zn372 O388 1.969 . S
Zn373 O380 1.969 . S
Zn373 O386 1.969 . S
Zn373 O387 1.965 . S
Zn373 O389 2.024 . S
C374 O375 1.229 . S
C374 O383 1.058 . S
O375 C374 1.229 . S
C376 O377 1.229 . S
C376 O389 1.058 . S
O377 C376 1.229 . S
O378 Zn372 1.969 . S
O378 C381 1.267 . S
O379 Zn372 1.965 . S
O379 C390 1.260 . S
O380 Zn373 1.969 . S
O380 C390 1.258 . S
C381 O378 1.267 . S
C381 O382 1.228 . S
O382 C381 1.228 . S
O383 Zn372 2.024 . S
O383 C374 1.058 . S
C384 O385 1.228 . S
C384 O386 1.267 . S
O385 C384 1.228 . S
O386 Zn373 1.969 . S
O386 C384 1.267 . S
O387 Zn373 1.965 . S
O387 C391 1.260 . S
O388 Zn372 1.969 . S
O388 C391 1.258 . S
O389 Zn373 2.024 . S
O389 C376 1.058 . S
C390 O379 1.260 . S
C390 O380 1.258 . S
C391 O387 1.260 . S
C391 O388 1.258 . S
Zn392 O398 1.969 . S
Zn392 O399 1.965 1_455 S
Zn392 O403 2.024 1_565 S
Zn392 O408 1.969 1_565 S
Zn393 O400 1.969 1_455 S
Zn393 O406 1.969 1_455 S
Zn393 O407 1.965 . S
Zn393 O409 2.024 . S
C394 O395 1.229 1_545 S
C394 O403 1.058 . S
O395 C394 1.229 1_565 S
C396 O397 1.229 . S
C396 O409 1.058 1_655 S
O397 C396 1.229 . S
O398 Zn392 1.969 . S
O398 C401 1.267 . S
O399 Zn392 1.965 1_655 S
O399 C410 1.260 . S
O400 Zn393 1.969 1_655 S
O400 C410 1.258 1_545 S
C401 O398 1.267 . S
C401 O402 1.228 . S
O402 C401 1.228 . S
O403 Zn392 2.024 1_545 S
O403 C394 1.058 . S
C404 O405 1.228 . S
C404 O406 1.267 1_455 S
O405 C404 1.228 . S
O406 Zn393 1.969 1_655 S
O406 C404 1.267 1_655 S
O407 Zn393 1.965 . S
O407 C411 1.260 . S
O408 Zn392 1.969 1_545 S
O408 C411 1.258 . S
O409 Zn393 2.024 . S
O409 C396 1.058 1_455 S
C410 O399 1.260 . S
C410 O400 1.258 1_565 S
C411 O407 1.260 . S
C411 O408 1.258 . S
Zn412 O418 1.969 . S
Zn412 O419 1.965 . S
Zn412 O423 2.024 . S
Zn412 O428 1.969 . S
Zn413 O420 1.969 . S
Zn413 O426 1.969 . S
Zn413 O427 1.965 . S
Zn413 O429 2.024 . S
C414 O415 1.229 . S
C414 O423 1.058 . S
O415 C414 1.229 . S
C416 O417 1.229 . S
C416 O429 1.058 . S
O417 C416 1.229 . S
O418 Zn412 1.969 . S
O418 C421 1.267 . S
O419 Zn412 1.965 . S
O419 C430 1.260 . S
O420 Zn413 1.969 . S
O420 C430 1.258 . S
C421 O418 1.267 . S
C421 O422 1.228 . S
O422 C421 1.228 . S
O423 Zn412 2.024 . S
O423 C414 1.058 . S
C424 O425 1.228 . S
C424 O426 1.267 . S
O425 C424 1.228 . S
O426 Zn413 1.969 . S
O426 C424 1.267 . S
O427 Zn413 1.965 . S
O427 C431 1.260 . S
O428 Zn412 1.969 . S
O428 C431 1.258 . S
O429 Zn413 2.024 . S
O429 C416 1.058 . S
C430 O419 1.260 . S
C430 O420 1.258 . S
C431 O427 1.260 . S
C431 O428 1.258 . S
Zn432 O438 1.969 1_554 S
Zn432 O439 1.965 1_545 S
Zn432 O443 2.024 . S
Zn432 O448 1.969 . S
Zn433 O440 1.969 . S
Zn433 O446 1.969 . S
Zn433 O447 1.965 1_565 S
Zn433 O449 2.024 . S
C434 O435 1.229 . S
C434 O443 1.058 . S
O435 C434 1.229 . S
C436 O437 1.229 . S
C436 O449 1.058 . S
O437 C436 1.229 . S
O438 Zn432 1.969 1_556 S
O438 C441 1.267 . S
O439 Zn432 1.965 1_565 S
O439 C450 1.260 . S
O440 Zn433 1.969 . S
O440 C450 1.258 . S
C441 O438 1.267 . S
C441 O442 1.228 . S
O442 C441 1.228 . S
O443 Zn432 2.024 . S
O443 C434 1.058 . S
C444 O445 1.228 1_565 S
C444 O446 1.267 . S
O445 C444 1.228 1_545 S
O446 Zn433 1.969 . S
O446 C444 1.267 . S
O447 Zn433 1.965 1_545 S
O447 C451 1.260 . S
O448 Zn432 1.969 . S
O448 C451 1.258 . S
O449 Zn433 2.024 . S
O449 C436 1.058 . S
C450 O439 1.260 . S
C450 O440 1.258 . S
C451 O447 1.260 . S
C451 O448 1.258 . S
Zn452 O458 1.969 . S
Zn452 O459 1.965 . S
Zn452 O463 2.024 . S
Zn452 O468 1.969 . S
Zn453 O460 1.969 . S
Zn453 O466 1.969 . S
Zn453 O467 1.965 . S
Zn453 O469 2.024 . S
C454 O455 1.229 . S
C454 O463 1.058 . S
O455 C454 1.229 . S
C456 O457 1.229 . S
C456 O469 1.058 . S
O457 C456 1.229 . S
O458 Zn452 1.969 . S
O458 C461 1.267 . S
O459 Zn452 1.965 . S
O459 C470 1.260 . S
O460 Zn453 1.969 . S
O460 C470 1.258 . S
C461 O458 1.267 . S
C461 O462 1.228 . S
O462 C461 1.228 . S
O463 Zn452 2.024 . S
O463 C454 1.058 . S
C464 O465 1.228 . S
C464 O466 1.267 . S
O465 C464 1.228 . S
O466 Zn453 1.969 . S
O466 C464 1.267 . S
O467 Zn453 1.965 . S
O467 C471 1.260 . S
O468 Zn452 1.969 . S
O468 C471 1.258 . S
O469 Zn453 2.024 . S
O469 C456 1.058 . S
C470 O459 1.260 . S
C470 O460 1.258 . S
C471 O467 1.260 . S
C471 O468 1.258 . S
Zn472 O478 1.969 . S
Zn472 O479 1.965 . S
Zn472 O483 2.024 . S
Zn472 O488 1.969 . S
Zn473 O480 1.969 1_556 S
Zn473 O486 1.969 1_556 S
Zn473 O487 1.965 1_556 S
Zn473 O489 2.024 . S
C474 O475 1.229 . S
C474 O483 1.058 . S
O475 C474 1.229 . S
C476 O477 1.229 . S
C476 O489 1.058 . S
O477 C476 1.229 . S
O478 Zn472 1.969 . S
O478 C481 1.267 . S
O479 Zn472 1.965 . S
O479 C490 1.260 . S
O480 Zn473 1.969 1_554 S
O480 C490 1.258 . S
C481 O478 1.267 . S
C481 O482 1.228 . S
O482 C481 1.228 . S
O483 Zn472 2.024 . S
O483 C474 1.058 . S
C484 O485 1.228 . S
C484 O486 1.267 1_556 S
O485 C484 1.228 . S
O486 Zn473 1.969 1_554 S
O486 C484 1.267 1_554 S
O487 Zn473 1.965 1_554 S
O487 C491 1.260 . S
O488 Zn472 1.969 . S
O488 C491 1.258 . S
O489 Zn473 2.024 . S
O489 C476 1.058 . S
C490 O479 1.260 . S
C490 O480 1.258 . S
C491 O487 1.260 . S
C491 O488 1.258 . S
Zn492 O498 1.969 . S
Zn492 O499 1.965 . S
Zn492 O503 2.024 . S
Zn492 O508 1.969 . S
Zn493 O500 1.969 . S
Zn493 O506 1.969 . S
Zn493 O507 1.965 . S
Zn493 O509 2.024 . S
C494 O495 1.229 . S
C494 O503 1.058 . S
O495 C494 1.229 . S
C496 O497 1.229 . S
C496 O509 1.058 . S
O497 C496 1.229 . S
O498 Zn492 1.969 . S
O498 C501 1.267 . S
O499 Zn492 1.965 . S
O499 C510 1.260 . S
O500 Zn493 1.969 . S
O500 C510 1.258 . S
C501 O498 1.267 . S
C501 O502 1.228 . S
O502 C501 1.228 . S
O503 Zn492 2.024 . S
O503 C494 1.058 . S
C504 O505 1.228 . S
C504 O506 1.267 . S
O505 C504 1.228 . S
O506 Zn493 1.969 . S
O506 C504 1.267 . S
O507 Zn493 1.965 . S
O507 C511 1.260 . S
O508 Zn492 1.969 . S
O508 C511 1.258 . S
O509 Zn493 2.024 . S
O509 C496 1.058 . S
C510 O499 1.260 . S
C510 O500 1.258 . S
C511 O507 1.260 . S
C511 O508 1.258 . S
Zn512 O518 1.969 . S
Zn512 O519 1.965 . S
Zn512 O523 2.024 . S
Zn512 O528 1.969 . S
Zn513 O520 1.969 1_655 S
Zn513 O526 1.969 . S
Zn513 O527 1.965 1_655 S
Zn513 O529 2.024 . S
C514 O515 1.229 . S
C514 O523 1.058 . S
O515 C514 1.229 . S
C516 O517 1.229 . S
C516 O529 1.058 . S
O517 C516 1.229 . S
O518 Zn512 1.969 . S
O518 C521 1.267 . S
O519 Zn512 1.965 . S
O519 C530 1.260 . S
O520 Zn513 1.969 1_455 S
O520 C530 1.258 . S
C521 O518 1.267 . S
C521 O522 1.228 . S
O522 C521 1.228 . S
O523 Zn512 2.024 . S
O523 C514 1.058 . S
C524 O525 1.228 . S
C524 O526 1.267 . S
O525 C524 1.228 . S
O526 Zn513 1.969 . S
O526 C524 1.267 . S
O527 Zn513 1.965 1_455 S
O527 C531 1.260 . S
O528 Zn512 1.969 . S
O528 C531 1.258 . S
O529 Zn513 2.024 . S
O529 C516 1.058 . S
C530 O519 1.260 . S
C530 O520 1.258 . S
C531 O527 1.260 . S
C531 O528 1.258 . S
Zn532 O538 1.969 . S
Zn532 O539 1.965 . S
Zn532 O543 2.024 . S
Zn532 O548 1.969 . S
Zn533 O540 1.969 . S
Zn533 O546 1.969 . S
Zn533 O547 1.965 . S
Zn533 O549 2.024 . S
C534 O535 1.229 . S
C534 O543 1.058 . S
O535 C534 1.229 . S
C536 O537 1.229 . S
C536 O549 1.058 . S
O537 C536 1.229 . S
O538 Zn532 1.969 . S
O538 C541 1.267 . S
O539 Zn532 1.965 . S
O539 C550 1.260 . S
O540 Zn533 1.969 . S
O540 C550 1.258 . S
C541 O538 1.267 . S
C541 O542 1.228 . S
O542 C541 1.228 . S
O543 Zn532 2.024 . S
O543 C534 1.058 . S
C544 O545 1.228 . S
C544 O546 1.267 . S
O545 C544 1.228 . S
O546 Zn533 1.969 . S
O546 C544 1.267 . S
O547 Zn533 1.965 . S
O547 C551 1.260 . S
O548 Zn532 1.969 . S
O548 C551 1.258 . S
O549 Zn533 2.024 . S
O549 C536 1.058 . S
C550 O539 1.260 . S
C550 O540 1.258 . S
C551 O547 1.260 . S
C551 O548 1.258 . S
Zn552 O558 1.969 . S
Zn552 O559 1.965 . S
Zn552 O563 2.024 . S
Zn552 O568 1.969 . S
Zn553 O560 1.969 . S
Zn553 O566 1.969 . S
Zn553 O567 1.965 . S
Zn553 O569 2.024 . S
C554 O555 1.229 . S
C554 O563 1.058 . S
O555 C554 1.229 . S
C556 O557 1.229 . S
C556 O569 1.058 . S
O557 C556 1.229 . S
O558 Zn552 1.969 . S
O558 C561 1.267 . S
O559 Zn552 1.965 . S
O559 C570 1.260 . S
O560 Zn553 1.969 . S
O560 C570 1.258 . S
C561 O558 1.267 . S
C561 O562 1.228 . S
O562 C561 1.228 . S
O563 Zn552 2.024 . S
O563 C554 1.058 . S
C564 O565 1.228 . S
C564 O566 1.267 . S
O565 C564 1.228 . S
O566 Zn553 1.969 . S
O566 C564 1.267 . S
O567 Zn553 1.965 . S
O567 C571 1.260 . S
O568 Zn552 1.969 . S
O568 C571 1.258 . S
O569 Zn553 2.024 . S
O569 C556 1.058 . S
C570 O559 1.260 . S
C570 O560 1.258 . S
C571 O567 1.260 . S
C571 O568 1.258 . S
Zn572 O578 1.969 . S
Zn572 O579 1.965 . S
Zn572 O583 2.024 . S
Zn572 O588 1.969 . S
Zn573 O580 1.969 . S
Zn573 O586 1.969 . S
Zn573 O587 1.965 . S
Zn573 O589 2.024 . S
C574 O575 1.229 . S
C574 O583 1.058 . S
O575 C574 1.229 . S
C576 O577 1.229 . S
C576 O589 1.058 . S
O577 C576 1.229 . S
O578 Zn572 1.969 . S
O578 C581 1.267 . S
O579 Zn572 1.965 . S
O579 C590 1.260 . S
O580 Zn573 1.969 . S
O580 C590 1.258 . S
C581 O578 1.267 . S
C581 O582 1.228 . S
O582 C581 1.228 . S
O583 Zn572 2.024 . S
O583 C574 1.058 . S
C584 O585 1.228 . S
C584 O586 1.267 . S
O585 C584 1.228 . S
O586 Zn573 1.969 . S
O586 C584 1.267 . S
O587 Zn573 1.965 . S
O587 C591 1.260 . S
O588 Zn572 1.969 . S
O588 C591 1.258 . S
O589 Zn573 2.024 . S
O589 C576 1.058 . S
C590 O579 1.260 . S
C590 O580 1.258 . S
C591 O587 1.260 . S
C591 O588 1.258 . S
Zn592 O598 1.969 . S
Zn592 O599 1.965 . S
Zn592 O603 2.024 . S
Zn592 O608 1.969 . S
Zn593 O600 1.969 . S
Zn593 O606 1.969 . S
Zn593 O607 1.965 . S
Zn593 O609 2.024 . S
C594 O595 1.229 . S
C594 O603 1.058 . S
O595 C594 1.229 . S
C596 O597 1.229 . S
C596 O609 1.058 . S
O597 C596 1.229 . S
O598 Zn592 1.969 . S
O598 C601 1.267 . S
O599 Zn592 1.965 . S
O599 C610 1.260 . S
O600 Zn593 1.969 . S
O600 C610 1.258 . S
C601 O598 1.267 . S
C601 O602 1.228 . S
O602 C601 1.228 . S
O603 Zn592 2.024 . S
O603 C594 1.058 . S
C604 O605 1.228 . S
C604 O606 1.267 . S
O605 C604 1.228 . S
O606 Zn593 1.969 . S
O606 C604 1.267 . S
O607 Zn593 1.965 . S
O607 C611 1.260 . S
O608 Zn592 1.969 . S
O608 C611 1.258 . S
O609 Zn593 2.024 . S
O609 C596 1.058 . S
C610 O599 1.260 . S
C610 O600 1.258 . S
C611 O607 1.260 . S
C611 O608 1.258 . S
Zn612 O618 1.969 . S
Zn612 O619 1.988 . S
Zn612 O623 2.024 1_655 S
Zn612 O628 1.969 1_655 S
Zn613 O620 1.969 1_554 S
Zn613 O626 1.969 1_554 S
Zn613 O627 1.965 . S
Zn613 O629 2.024 . S
C614 O615 1.229 . S
C614 O623 1.058 . S
O615 C614 1.229 . S
C616 O617 1.229 . S
C616 O629 1.058 1_556 S
O617 C616 1.229 . S
O618 Zn612 1.969 . S
O618 C621 1.267 . S
O619 Zn612 1.988 . S
O619 C630 1.235 1_654 S
O620 Zn613 1.969 1_556 S
O620 C630 1.258 . S
C621 O618 1.267 . S
C621 O622 1.228 . S
O622 C621 1.228 . S
O623 Zn612 2.024 1_455 S
O623 C614 1.058 . S
C624 O625 1.228 . S
C624 O626 1.267 1_554 S
O625 C624 1.228 . S
O626 Zn613 1.969 1_556 S
O626 C624 1.267 1_556 S
O627 Zn613 1.965 . S
O627 C631 1.260 . S
O628 Zn612 1.969 1_455 S
O628 C631 1.258 . S
O629 Zn613 2.024 . S
O629 C616 1.058 1_554 S
C630 O619 1.235 1_456 S
C630 O620 1.258 . S
C631 O627 1.260 . S
C631 O628 1.258 . S
C632 C633 1.369 1_455 S
C632 C634 1.419 . S
C632 H636 0.930 . S
C633 C632 1.369 1_655 S
C633 C642 1.429 . S
C634 C632 1.419 . S
C634 C635 1.363 . S
C634 H637 0.929 . S
C635 C634 1.363 . S
C635 C641 1.428 1_456 S
H636 C632 0.930 . S
H637 C634 0.929 . S
S638 N639 1.613 . S
S638 N640 1.610 . S
N639 S638 1.613 . S
N639 C642 1.350 1_554 S
N640 S638 1.610 . S
N640 C641 1.351 . S
C641 C635 1.428 1_654 S
C641 N640 1.351 . S
C641 C642 1.434 1_554 S
C642 C633 1.429 . S
C642 N639 1.350 1_556 S
C642 C641 1.434 1_556 S
C643 C644 1.369 . S
C643 C645 1.419 . S
C643 H647 0.930 . S
C644 C643 1.369 . S
C644 C653 1.429 . S
C645 C643 1.419 . S
C645 C646 1.363 . S
C645 H648 0.929 . S
C646 C645 1.363 . S
C646 C652 1.428 . S
H647 C643 0.930 . S
H648 C645 0.929 . S
S649 N650 1.613 . S
S649 N651 1.610 . S
N650 S649 1.613 . S
N650 C653 1.350 . S
N651 S649 1.610 . S
N651 C652 1.351 . S
C652 C646 1.428 . S
C652 N651 1.351 . S
C652 C653 1.434 . S
C653 C644 1.429 . S
C653 N650 1.350 . S
C653 C652 1.434 . S
C654 C655 1.369 . S
C654 C656 1.419 . S
C654 H658 0.930 . S
C655 C654 1.369 . S
C655 C664 1.429 . S
C656 C654 1.419 . S
C656 C657 1.363 . S
C656 H659 0.929 . S
C657 C656 1.363 . S
C657 C663 1.428 . S
H658 C654 0.930 . S
H659 C656 0.929 . S
S660 N661 1.613 . S
S660 N662 1.610 . S
N661 S660 1.613 . S
N661 C664 1.350 . S
N662 S660 1.610 . S
N662 C663 1.351 . S
C663 C657 1.428 . S
C663 N662 1.351 . S
C663 C664 1.434 . S
C664 C655 1.429 . S
C664 N661 1.350 . S
C664 C663 1.434 . S
C665 C666 1.369 . S
C665 C667 1.419 . S
C665 H669 0.930 . S
C666 C665 1.369 . S
C666 C675 1.429 . S
C667 C665 1.419 . S
C667 C668 1.363 . S
C667 H670 0.929 . S
C668 C667 1.363 . S
C668 C674 1.428 . S
H669 C665 0.930 . S
H670 C667 0.929 . S
S671 N672 1.613 . S
S671 N673 1.610 . S
N672 S671 1.613 . S
N672 C675 1.350 . S
N673 S671 1.610 . S
N673 C674 1.351 . S
C674 C668 1.428 . S
C674 N673 1.351 . S
C674 C675 1.434 . S
C675 C666 1.429 . S
C675 N672 1.350 . S
C675 C674 1.434 . S
C676 C677 1.369 . S
C676 C678 1.419 . S
C676 H680 0.930 . S
C677 C676 1.369 . S
C677 C686 1.429 . S
C678 C676 1.419 . S
C678 C679 1.363 . S
C678 H681 0.929 . S
C679 C678 1.363 . S
C679 C685 1.428 . S
H680 C676 0.930 . S
H681 C678 0.929 . S
S682 N683 1.613 . S
S682 N684 1.610 . S
N683 S682 1.613 . S
N683 C686 1.350 1_655 S
N684 S682 1.610 . S
N684 C685 1.351 1_655 S
C685 C679 1.428 . S
C685 N684 1.351 1_455 S
C685 C686 1.434 . S
C686 C677 1.429 . S
C686 N683 1.350 1_455 S
C686 C685 1.434 . S
C687 C688 1.369 . S
C687 C689 1.419 . S
C687 H691 0.930 . S
C688 C687 1.369 . S
C688 C697 1.429 . S
C689 C687 1.419 . S
C689 C690 1.363 . S
C689 H692 0.929 . S
C690 C689 1.363 . S
C690 C696 1.428 . S
H691 C687 0.930 . S
H692 C689 0.929 . S
S693 N694 1.613 . S
S693 N695 1.610 . S
N694 S693 1.613 . S
N694 C697 1.350 . S
N695 S693 1.610 . S
N695 C696 1.351 . S
C696 C690 1.428 . S
C696 N695 1.351 . S
C696 C697 1.434 . S
C697 C688 1.429 . S
C697 N694 1.350 . S
C697 C696 1.434 . S
C698 C699 1.369 . S
C698 C700 1.419 . S
C698 H702 0.930 . S
C699 C698 1.369 . S
C699 C708 1.429 . S
C700 C698 1.419 . S
C700 C701 1.363 . S
C700 H703 0.929 . S
C701 C700 1.363 . S
C701 C707 1.428 . S
H702 C698 0.930 . S
H703 C700 0.929 . S
S704 N705 1.613 . S
S704 N706 1.610 . S
N705 S704 1.613 . S
N705 C708 1.350 . S
N706 S704 1.610 . S
N706 C707 1.351 . S
C707 C701 1.428 . S
C707 N706 1.351 . S
C707 C708 1.434 . S
C708 C699 1.429 . S
C708 N705 1.350 . S
C708 C707 1.434 . S
C709 C710 1.369 . S
C709 C711 1.419 . S
C709 H713 0.930 . S
C710 C709 1.369 . S
C710 C719 1.429 . S
C711 C709 1.419 . S
C711 C712 1.363 . S
C711 H714 0.929 . S
C712 C711 1.363 . S
C712 C718 1.428 . S
H713 C709 0.930 . S
H714 C711 0.929 . S
S715 N716 1.613 . S
S715 N717 1.610 . S
N716 S715 1.613 . S
N716 C719 1.350 . S
N717 S715 1.610 . S
N717 C718 1.351 . S
C718 C712 1.428 . S
C718 N717 1.351 . S
C718 C719 1.434 . S
C719 C710 1.429 . S
C719 N716 1.350 . S
C719 C718 1.434 . S
C720 C721 1.369 1_565 S
C720 C722 1.419 . S
C720 H724 0.930 . S
C721 C720 1.369 1_545 S
C721 C730 1.429 . S
C722 C720 1.419 . S
C722 C723 1.363 1_565 S
C722 H725 0.929 . S
C723 C722 1.363 1_545 S
C723 C729 1.428 . S
H724 C720 0.930 . S
H725 C722 0.929 . S
S726 N727 1.613 . S
S726 N728 1.610 . S
N727 S726 1.613 . S
N727 C730 1.350 . S
N728 S726 1.610 . S
N728 C729 1.351 . S
C729 C723 1.428 . S
C729 N728 1.351 . S
C729 C730 1.434 . S
C730 C721 1.429 . S
C730 N727 1.350 . S
C730 C729 1.434 . S
C731 C732 1.369 . S
C731 C733 1.419 . S
C731 H735 0.930 . S
C732 C731 1.369 . S
C732 C741 1.429 . S
C733 C731 1.419 . S
C733 C734 1.363 . S
C733 H736 0.929 . S
C734 C733 1.363 . S
C734 C740 1.428 . S
H735 C731 0.930 . S
H736 C733 0.929 . S
S737 N738 1.613 . S
S737 N739 1.610 . S
N738 S737 1.613 . S
N738 C741 1.350 . S
N739 S737 1.610 . S
N739 C740 1.351 . S
C740 C734 1.428 . S
C740 N739 1.351 . S
C740 C741 1.434 . S
C741 C732 1.429 . S
C741 N738 1.350 . S
C741 C740 1.434 . S
C742 C743 1.369 1_545 S
C742 C744 1.419 . S
C742 H746 0.930 . S
C743 C742 1.369 1_565 S
C743 C752 1.429 . S
C744 C742 1.419 . S
C744 C745 1.363 . S
C744 H747 0.929 . S
C745 C744 1.363 . S
C745 C751 1.428 1_545 S
H746 C742 0.930 . S
H747 C744 0.929 . S
S748 N749 1.613 . S
S748 N750 1.610 . S
N749 S748 1.613 . S
N749 C752 1.350 . S
N750 S748 1.610 . S
N750 C751 1.351 . S
C751 C745 1.428 1_565 S
C751 N750 1.351 . S
C751 C752 1.434 . S
C752 C743 1.429 . S
C752 N749 1.350 . S
C752 C751 1.434 . S
C753 C754 1.369 . S
C753 C755 1.419 . S
C753 H757 0.930 . S
C754 C753 1.369 . S
C754 C763 1.429 . S
C755 C753 1.419 . S
C755 C756 1.363 . S
C755 H758 0.929 . S
C756 C755 1.363 . S
C756 C762 1.428 . S
H757 C753 0.930 . S
H758 C755 0.929 . S
S759 N760 1.613 . S
S759 N761 1.610 . S
N760 S759 1.613 . S
N760 C763 1.350 . S
N761 S759 1.610 . S
N761 C762 1.351 . S
C762 C756 1.428 . S
C762 N761 1.351 . S
C762 C763 1.434 . S
C763 C754 1.429 . S
C763 N760 1.350 . S
C763 C762 1.434 . S
C764 C765 1.369 1_565 S
C764 C766 1.419 . S
C764 H768 0.930 . S
C765 C764 1.369 1_545 S
C765 C774 1.429 . S
C766 C764 1.419 . S
C766 C767 1.363 1_565 S
C766 H769 0.929 . S
C767 C766 1.363 1_545 S
C767 C773 1.428 . S
H768 C764 0.930 . S
H769 C766 0.929 . S
S770 N771 1.613 . S
S770 N772 1.610 . S
N771 S770 1.613 . S
N771 C774 1.350 . S
N772 S770 1.610 . S
N772 C773 1.351 . S
C773 C767 1.428 . S
C773 N772 1.351 . S
C773 C774 1.434 . S
C774 C765 1.429 . S
C774 N771 1.350 . S
C774 C773 1.434 . S
C775 C776 1.369 . S
C775 C777 1.419 . S
C775 H779 0.930 . S
C776 C775 1.369 . S
C776 C785 1.429 . S
C777 C775 1.419 . S
C777 C778 1.363 . S
C777 H780 0.929 . S
C778 C777 1.363 . S
C778 C784 1.428 . S
H779 C775 0.930 . S
H780 C777 0.929 . S
S781 N782 1.613 . S
S781 N783 1.610 . S
N782 S781 1.613 . S
N782 C785 1.350 . S
N783 S781 1.610 . S
N783 C784 1.351 . S
C784 C778 1.428 . S
C784 N783 1.351 . S
C784 C785 1.434 . S
C785 C776 1.429 . S
C785 N782 1.350 . S
C785 C784 1.434 . S
C786 C787 1.379 . S
C786 C788 1.419 . S
C786 H790 0.930 . S
C787 C786 1.379 . S
C787 C796 1.431 1_545 S
C788 C786 1.419 . S
C788 C789 1.363 . S
C788 H791 0.929 . S
C789 C788 1.363 . S
C789 C795 1.428 . S
H790 C786 0.930 . S
H791 C788 0.929 . S
S792 N793 1.613 . S
S792 N794 1.610 1_565 S
N793 S792 1.613 . S
N793 C796 1.350 . S
N794 S792 1.610 1_545 S
N794 C795 1.351 . S
C795 C789 1.428 . S
C795 N794 1.351 . S
C795 C796 1.434 1_545 S
C796 C787 1.431 1_565 S
C796 N793 1.350 . S
C796 C795 1.434 1_565 S
C797 C798 1.369 . S
C797 C799 1.419 . S
C797 H801 0.930 . S
C798 C797 1.369 . S
C798 C807 1.429 . S
C799 C797 1.419 . S
C799 C800 1.363 . S
C799 H802 0.929 . S
C800 C799 1.363 . S
C800 C806 1.428 . S
H801 C797 0.930 . S
H802 C799 0.929 . S
S803 N804 1.613 . S
S803 N805 1.610 . S
N804 S803 1.613 . S
N804 C807 1.350 . S
N805 S803 1.610 . S
N805 C806 1.351 . S
C806 C800 1.428 . S
C806 N805 1.351 . S
C806 C807 1.434 . S
C807 C798 1.429 . S
C807 N804 1.350 . S
C807 C806 1.434 . S
C808 C809 1.369 . S
C808 C810 1.419 . S
C808 H812 0.930 . S
C809 C808 1.369 . S
C809 C818 1.429 1_554 S
C810 C808 1.419 . S
C810 C811 1.363 . S
C810 H813 0.929 . S
C811 C810 1.363 . S
C811 C817 1.428 . S
H812 C808 0.930 . S
H813 C810 0.929 . S
S814 N815 1.613 . S
S814 N816 1.610 . S
N815 S814 1.613 . S
N815 C818 1.350 . S
N816 S814 1.610 . S
N816 C817 1.351 1_556 S
C817 C811 1.428 . S
C817 N816 1.351 1_554 S
C817 C818 1.434 1_554 S
C818 C809 1.429 1_556 S
C818 N815 1.350 . S
C818 C817 1.434 1_556 S
C819 C820 1.379 . S
C819 C821 1.419 . S
C819 H823 0.930 . S
C820 C819 1.379 . S
C820 C829 1.412 1_556 S
C821 C819 1.419 . S
C821 C822 1.363 1_556 S
C821 H824 0.929 . S
C822 C821 1.363 1_554 S
C822 C828 1.428 . S
H823 C819 0.930 . S
H824 C821 0.929 . S
S825 N826 1.613 . S
S825 N827 1.610 . S
N826 S825 1.613 . S
N826 C829 1.350 . S
N827 S825 1.610 . S
N827 C828 1.351 . S
C828 C822 1.428 . S
C828 N827 1.351 . S
C828 C829 1.434 . S
C829 C820 1.412 1_554 S
C829 N826 1.350 . S
C829 C828 1.434 . S
C830 C831 1.369 . S
C830 C832 1.419 . S
C830 H834 0.930 . S
C831 C830 1.369 . S
C831 C840 1.429 . S
C832 C830 1.419 . S
C832 C833 1.363 . S
C832 H835 0.929 . S
C833 C832 1.363 . S
C833 C839 1.428 . S
H834 C830 0.930 . S
H835 C832 0.929 . S
S836 N837 1.613 . S
S836 N838 1.610 . S
N837 S836 1.613 . S
N837 C840 1.350 . S
N838 S836 1.610 . S
N838 C839 1.351 . S
C839 C833 1.428 . S
C839 N838 1.351 . S
C839 C840 1.434 . S
C840 C831 1.429 . S
C840 N837 1.350 . S
C840 C839 1.434 . S
C841 C842 1.369 . S
C841 C843 1.419 . S
C841 H845 0.930 . S
C842 C841 1.369 . S
C842 C851 1.429 . S
C843 C841 1.419 . S
C843 C844 1.363 . S
C843 H846 0.929 . S
C844 C843 1.363 . S
C844 C850 1.428 . S
H845 C841 0.930 . S
H846 C843 0.929 . S
S847 N848 1.613 . S
S847 N849 1.610 . S
N848 S847 1.613 . S
N848 C851 1.350 . S
N849 S847 1.610 . S
N849 C850 1.351 . S
C850 C844 1.428 . S
C850 N849 1.351 . S
C850 C851 1.434 . S
C851 C842 1.429 . S
C851 N848 1.350 . S
C851 C850 1.434 . S
C852 C853 1.369 . S
C852 C854 1.419 . S
C852 H856 0.930 . S
C853 C852 1.369 . S
C853 C862 1.429 . S
C854 C852 1.419 . S
C854 C855 1.363 . S
C854 H857 0.929 . S
C855 C854 1.363 . S
C855 C861 1.428 . S
H856 C852 0.930 . S
H857 C854 0.929 . S
S858 N859 1.613 . S
S858 N860 1.610 . S
N859 S858 1.613 . S
N859 C862 1.350 . S
N860 S858 1.610 . S
N860 C861 1.351 . S
C861 C855 1.428 . S
C861 N860 1.351 . S
C861 C862 1.434 . S
C862 C853 1.429 . S
C862 N859 1.350 . S
C862 C861 1.434 . S
C863 C864 1.369 . S
C863 C865 1.419 . S
C863 H867 0.930 . S
C864 C863 1.369 . S
C864 C873 1.429 . S
C865 C863 1.419 . S
C865 C866 1.363 . S
C865 H868 0.929 . S
C866 C865 1.363 . S
C866 C872 1.428 . S
H867 C863 0.930 . S
H868 C865 0.929 . S
S869 N870 1.613 1_565 S
S869 N871 1.610 1_565 S
N870 S869 1.613 1_545 S
N870 C873 1.350 . S
N871 S869 1.610 1_545 S
N871 C872 1.351 . S
C872 C866 1.428 . S
C872 N871 1.351 . S
C872 C873 1.434 . S
C873 C864 1.429 . S
C873 N870 1.350 . S
C873 C872 1.434 . S
C874 C875 1.369 . S
C874 C876 1.419 . S
C874 H878 0.930 . S
C875 C874 1.369 . S
C875 C884 1.429 . S
C876 C874 1.419 . S
C876 C877 1.363 . S
C876 H879 0.929 . S
C877 C876 1.363 . S
C877 C883 1.428 . S
H878 C874 0.930 . S
H879 C876 0.929 . S
S880 N881 1.613 . S
S880 N882 1.610 . S
N881 S880 1.613 . S
N881 C884 1.350 . S
N882 S880 1.610 . S
N882 C883 1.351 . S
C883 C877 1.428 . S
C883 N882 1.351 . S
C883 C884 1.434 . S
C884 C875 1.429 . S
C884 N881 1.350 . S
C884 C883 1.434 . S
C885 C886 1.369 . S
C885 C887 1.419 . S
C885 H889 0.930 . S
C886 C885 1.369 . S
C886 C895 1.429 . S
C887 C885 1.419 . S
C887 C888 1.363 . S
C887 H890 0.929 . S
C888 C887 1.363 . S
C888 C894 1.428 . S
H889 C885 0.930 . S
H890 C887 0.929 . S
S891 N892 1.613 . S
S891 N893 1.610 . S
N892 S891 1.613 . S
N892 C895 1.350 . S
N893 S891 1.610 . S
N893 C894 1.351 . S
C894 C888 1.428 . S
C894 N893 1.351 . S
C894 C895 1.434 . S
C895 C886 1.429 . S
C895 N892 1.350 . S
C895 C894 1.434 . S
C896 C897 1.369 . S
C896 C898 1.419 . S
C896 H900 0.930 . S
C897 C896 1.369 . S
C897 C906 1.429 . S
C898 C896 1.419 . S
C898 C899 1.363 . S
C898 H901 0.929 1_455 S
C899 C898 1.363 . S
C899 C905 1.428 . S
H900 C896 0.930 . S
H901 C898 0.929 1_655 S
S902 N903 1.613 . S
S902 N904 1.610 . S
N903 S902 1.613 . S
N903 C906 1.350 . S
N904 S902 1.610 . S
N904 C905 1.351 . S
C905 C899 1.428 . S
C905 N904 1.351 . S
C905 C906 1.434 . S
C906 C897 1.429 . S
C906 N903 1.350 . S
C906 C905 1.434 . S
C907 C908 1.369 . S
C907 C909 1.419 . S
C907 H911 0.930 . S
C908 C907 1.369 . S
C908 C917 1.429 . S
C909 C907 1.419 . S
C909 C910 1.363 . S
C909 H912 0.929 . S
C910 C909 1.363 . S
C910 C916 1.428 . S
H911 C907 0.930 . S
H912 C909 0.929 . S
S913 N914 1.613 . S
S913 N915 1.610 . S
N914 S913 1.613 . S
N914 C917 1.350 . S
N915 S913 1.610 . S
N915 C916 1.351 . S
C916 C910 1.428 . S
C916 N915 1.351 . S
C916 C917 1.434 . S
C917 C908 1.429 . S
C917 N914 1.350 . S
C917 C916 1.434 . S
C918 C919 1.369 . S
C918 C920 1.419 . S
C918 H922 0.930 . S
C919 C918 1.369 . S
C919 C928 1.429 . S
C920 C918 1.419 . S
C920 C921 1.363 . S
C920 H923 0.929 . S
C921 C920 1.363 . S
C921 C927 1.428 . S
H922 C918 0.930 . S
H923 C920 0.929 . S
S924 N925 1.613 . S
S924 N926 1.610 . S
N925 S924 1.613 . S
N925 C928 1.350 . S
N926 S924 1.610 . S
N926 C927 1.351 . S
C927 C921 1.428 . S
C927 N926 1.351 . S
C927 C928 1.434 . S
C928 C919 1.429 . S
C928 N925 1.350 . S
C928 C927 1.434 . S
C929 C930 1.369 . S
C929 C931 1.419 . S
C929 H933 0.930 . S
C930 C929 1.369 . S
C930 C939 1.429 . S
C931 C929 1.419 . S
C931 C932 1.363 . S
C931 H934 0.929 . S
C932 C931 1.363 . S
C932 C938 1.428 . S
H933 C929 0.930 . S
H934 C931 0.929 . S
S935 N936 1.613 . S
S935 N937 1.610 . S
N936 S935 1.613 . S
N936 C939 1.350 . S
N937 S935 1.610 . S
N937 C938 1.351 . S
C938 C932 1.428 . S
C938 N937 1.351 . S
C938 C939 1.434 . S
C939 C930 1.429 . S
C939 N936 1.350 . S
C939 C938 1.434 . S
C940 C941 1.369 . S
C940 C942 1.419 . S
C940 H944 0.930 . S
C941 C940 1.369 . S
C941 C950 1.429 1_455 S
C942 C940 1.419 . S
C942 C943 1.363 . S
C942 H945 0.929 . S
C943 C942 1.363 . S
C943 C949 1.428 1_455 S
H944 C940 0.930 . S
H945 C942 0.929 . S
S946 N947 1.613 . S
S946 N948 1.610 . S
N947 S946 1.613 . S
N947 C950 1.350 . S
N948 S946 1.610 . S
N948 C949 1.351 . S
C949 C943 1.428 1_655 S
C949 N948 1.351 . S
C949 C950 1.434 . S
C950 C941 1.429 1_655 S
C950 N947 1.350 . S
C950 C949 1.434 . S
C951 C952 1.369 . S
C951 C953 1.419 . S
C951 H955 0.930 . S
C952 C951 1.369 . S
C952 C961 1.429 . S
C953 C951 1.419 . S
C953 C954 1.363 . S
C953 H956 0.929 . S
C954 C953 1.363 . S
C954 C960 1.428 . S
H955 C951 0.930 . S
H956 C953 0.929 . S
S957 N958 1.613 . S
S957 N959 1.610 . S
N958 S957 1.613 . S
N958 C961 1.350 . S
N959 S957 1.610 . S
N959 C960 1.351 . S
C960 C954 1.428 . S
C960 N959 1.351 . S
C960 C961 1.434 . S
C961 C952 1.429 . S
C961 N958 1.350 . S
C961 C960 1.434 . S
C962 C963 1.385 . S
C962 C964 1.411 1_556 S
C962 H966 0.922 1_556 S
C963 C962 1.385 . S
C963 C972 1.429 . S
C964 C962 1.411 1_554 S
C964 C965 1.363 . S
C964 H967 0.929 . S
C965 C964 1.363 . S
C965 C971 1.428 1_554 S
H966 C962 0.922 1_554 S
H967 C964 0.929 . S
S968 N969 1.613 . S
S968 N970 1.610 . S
N969 S968 1.613 . S
N969 C972 1.350 . S
N970 S968 1.610 . S
N970 C971 1.351 . S
C971 C965 1.428 1_556 S
C971 N970 1.351 . S
C971 C972 1.434 . S
C972 C963 1.429 . S
C972 N969 1.350 . S
C972 C971 1.434 . S
C973 C974 1.369 . S
C973 C975 1.419 . S
C973 H977 0.930 . S
C974 C973 1.369 . S
C974 C983 1.429 . S
C975 C973 1.419 . S
C975 C976 1.363 . S
C975 H978 0.929 . S
C976 C975 1.363 . S
C976 C982 1.428 . S
H977 C973 0.930 . S
H978 C975 0.929 . S
S979 N980 1.613 . S
S979 N981 1.610 . S
N980 S979 1.613 . S
N980 C983 1.350 . S
N981 S979 1.610 . S
N981 C982 1.351 . S
C982 C976 1.428 . S
C982 N981 1.351 . S
C982 C983 1.434 . S
C983 C974 1.429 . S
C983 N980 1.350 . S
C983 C982 1.434 . S
C984 C985 1.369 . S
C984 C986 1.419 . S
C984 H988 0.930 . S
C985 C984 1.369 . S
C985 C994 1.429 1_545 S
C986 C984 1.419 . S
C986 C987 1.346 1_545 S
C986 H989 0.929 . S
C987 C986 1.346 1_565 S
C987 C993 1.443 . S
H988 C984 0.930 . S
H989 C986 0.929 . S
S990 N991 1.613 . S
S990 N992 1.610 . S
N991 S990 1.613 . S
N991 C994 1.350 . S
N992 S990 1.610 . S
N992 C993 1.351 . S
C993 C987 1.443 . S
C993 N992 1.351 . S
C993 C994 1.434 . S
C994 C985 1.429 1_565 S
C994 N991 1.350 . S
C994 C993 1.434 . S
C995 C996 1.369 . S
C995 C997 1.419 . S
C995 H999 0.930 . S
C996 C995 1.369 . S
C996 C1005 1.429 . S
C997 C995 1.419 . S
C997 C998 1.363 . S
C997 H1000 0.929 . S
C998 C997 1.363 . S
C998 C1004 1.428 . S
H999 C995 0.930 . S
H1000 C997 0.929 . S
S1001 N1002 1.613 . S
S1001 N1003 1.610 . S
N1002 S1001 1.613 . S
N1002 C1005 1.350 . S
N1003 S1001 1.610 . S
N1003 C1004 1.351 . S
C1004 C998 1.428 . S
C1004 N1003 1.351 . S
C1004 C1005 1.434 . S
C1005 C996 1.429 . S
C1005 N1002 1.350 . S
C1005 C1004 1.434 . S
C1006 C1007 1.369 . S
C1006 C1008 1.419 . S
C1006 H1010 0.930 . S
C1007 C1006 1.369 . S
C1007 C1016 1.429 . S
C1008 C1006 1.419 . S
C1008 C1009 1.363 . S
C1008 H1011 0.929 . S
C1009 C1008 1.363 . S
C1009 C1015 1.428 . S
H1010 C1006 0.930 . S
H1011 C1008 0.929 . S
S1012 N1013 1.613 . S
S1012 N1014 1.610 . S
N1013 S1012 1.613 . S
N1013 C1016 1.350 . S
N1014 S1012 1.610 . S
N1014 C1015 1.351 . S
C1015 C1009 1.428 . S
C1015 N1014 1.351 . S
C1015 C1016 1.434 . S
C1016 C1007 1.429 . S
C1016 N1013 1.350 . S
C1016 C1015 1.434 . S
C1017 C1018 1.369 . S
C1017 C1019 1.419 . S
C1017 H1021 0.930 . S
C1018 C1017 1.369 . S
C1018 C1027 1.429 . S
C1019 C1017 1.419 . S
C1019 C1020 1.363 . S
C1019 H1022 0.929 . S
C1020 C1019 1.363 . S
C1020 C1026 1.428 . S
H1021 C1017 0.930 . S
H1022 C1019 0.929 . S
S1023 N1024 1.613 . S
S1023 N1025 1.610 . S
N1024 S1023 1.613 . S
N1024 C1027 1.350 . S
N1025 S1023 1.610 . S
N1025 C1026 1.351 . S
C1026 C1020 1.428 . S
C1026 N1025 1.351 . S
C1026 C1027 1.434 . S
C1027 C1018 1.429 . S
C1027 N1024 1.350 . S
C1027 C1026 1.434 . S
C1028 C1029 1.369 . S
C1028 C1030 1.419 . S
C1028 H1032 0.930 . S
C1029 C1028 1.369 . S
C1029 C1038 1.429 1_545 S
C1030 C1028 1.419 . S
C1030 C1031 1.363 . S
C1030 H1033 0.929 . S
C1031 C1030 1.363 . S
C1031 C1037 1.428 1_545 S
H1032 C1028 0.930 . S
H1033 C1030 0.929 . S
S1034 N1035 1.613 . S
S1034 N1036 1.610 . S
N1035 S1034 1.613 . S
N1035 C1038 1.350 . S
N1036 S1034 1.610 . S
N1036 C1037 1.351 . S
C1037 C1031 1.428 1_565 S
C1037 N1036 1.351 . S
C1037 C1038 1.434 . S
C1038 C1029 1.429 1_565 S
C1038 N1035 1.350 . S
C1038 C1037 1.434 . S
C1039 C1040 1.369 . S
C1039 C1041 1.419 . S
C1039 H1043 0.930 . S
C1040 C1039 1.369 . S
C1040 C1049 1.429 . S
C1041 C1039 1.419 . S
C1041 C1042 1.363 . S
C1041 H1044 0.929 . S
C1042 C1041 1.363 . S
C1042 C1048 1.428 . S
H1043 C1039 0.930 . S
H1044 C1041 0.929 . S
S1045 N1046 1.613 . S
S1045 N1047 1.610 . S
N1046 S1045 1.613 . S
N1046 C1049 1.350 . S
N1047 S1045 1.610 . S
N1047 C1048 1.351 . S
C1048 C1042 1.428 . S
C1048 N1047 1.351 . S
C1048 C1049 1.434 . S
C1049 C1040 1.429 . S
C1049 N1046 1.350 . S
C1049 C1048 1.434 . S
C1050 C1051 1.369 . S
C1050 C1052 1.419 . S
C1050 H1054 0.930 . S
C1051 C1050 1.369 . S
C1051 C1060 1.429 1_545 S
C1052 C1050 1.419 . S
C1052 C1053 1.363 1_545 S
C1052 H1055 0.929 . S
C1053 C1052 1.363 1_565 S
C1053 C1059 1.428 . S
H1054 C1050 0.930 . S
H1055 C1052 0.929 . S
S1056 N1057 1.613 . S
S1056 N1058 1.610 . S
N1057 S1056 1.613 . S
N1057 C1060 1.350 . S
N1058 S1056 1.610 . S
N1058 C1059 1.351 . S
C1059 C1053 1.428 . S
C1059 N1058 1.351 . S
C1059 C1060 1.434 . S
C1060 C1051 1.429 1_565 S
C1060 N1057 1.350 . S
C1060 C1059 1.434 . S
C1061 C1062 1.369 . S
C1061 C1063 1.419 . S
C1061 H1065 0.930 . S
C1062 C1061 1.369 . S
C1062 C1071 1.429 . S
C1063 C1061 1.419 . S
C1063 C1064 1.363 . S
C1063 H1066 0.929 . S
C1064 C1063 1.363 . S
C1064 C1070 1.428 . S
H1065 C1061 0.930 . S
H1066 C1063 0.929 . S
S1067 N1068 1.613 . S
S1067 N1069 1.610 . S
N1068 S1067 1.613 . S
N1068 C1071 1.350 . S
N1069 S1067 1.610 . S
N1069 C1070 1.351 . S
C1070 C1064 1.428 . S
C1070 N1069 1.351 . S
C1070 C1071 1.434 . S
C1071 C1062 1.429 . S
C1071 N1068 1.350 . S
C1071 C1070 1.434 . S
C1072 C1073 1.369 . S
C1072 C1074 1.419 1_554 S
C1072 H1076 0.930 1_554 S
C1073 C1072 1.369 . S
C1073 C1082 1.429 . S
C1074 C1072 1.419 1_556 S
C1074 C1075 1.363 1_556 S
C1074 H1077 0.929 . S
C1075 C1074 1.363 1_554 S
C1075 C1081 1.428 . S
H1076 C1072 0.930 1_556 S
H1077 C1074 0.929 . S
S1078 N1079 1.613 . S
S1078 N1080 1.610 . S
N1079 S1078 1.613 . S
N1079 C1082 1.350 . S
N1080 S1078 1.610 . S
N1080 C1081 1.351 . S
C1081 C1075 1.428 . S
C1081 N1080 1.351 . S
C1081 C1082 1.434 . S
C1082 C1073 1.429 . S
C1082 N1079 1.350 . S
C1082 C1081 1.434 . S
C1083 C1084 1.369 . S
C1083 C1085 1.419 . S
C1083 H1087 0.930 . S
C1084 C1083 1.369 . S
C1084 C1093 1.429 . S
C1085 C1083 1.419 . S
C1085 C1086 1.363 . S
C1085 H1088 0.929 . S
C1086 C1085 1.363 . S
C1086 C1092 1.428 . S
H1087 C1083 0.930 . S
H1088 C1085 0.929 . S
S1089 N1090 1.613 . S
S1089 N1091 1.610 . S
N1090 S1089 1.613 . S
N1090 C1093 1.350 . S
N1091 S1089 1.610 . S
N1091 C1092 1.351 . S
C1092 C1086 1.428 . S
C1092 N1091 1.351 . S
C1092 C1093 1.434 . S
C1093 C1084 1.429 . S
C1093 N1090 1.350 . S
C1093 C1092 1.434 . S
C1094 C1095 1.369 . S
C1094 C1096 1.419 . S
C1094 H1098 0.930 . S
C1095 C1094 1.369 . S
C1095 C1104 1.429 . S
C1096 C1094 1.419 . S
C1096 C1097 1.363 . S
C1096 H1099 0.929 . S
C1097 C1096 1.363 . S
C1097 C1103 1.428 . S
H1098 C1094 0.930 . S
H1099 C1096 0.929 . S
S1100 N1101 1.613 . S
S1100 N1102 1.610 . S
N1101 S1100 1.613 . S
N1101 C1104 1.350 . S
N1102 S1100 1.610 . S
N1102 C1103 1.351 . S
C1103 C1097 1.428 . S
C1103 N1102 1.351 . S
C1103 C1104 1.434 . S
C1104 C1095 1.429 . S
C1104 N1101 1.350 . S
C1104 C1103 1.434 . S
C1105 C1106 1.369 . S
C1105 C1107 1.419 . S
C1105 H1109 0.930 . S
C1106 C1105 1.369 . S
C1106 C1115 1.429 . S
C1107 C1105 1.419 . S
C1107 C1108 1.363 . S
C1107 H1110 0.929 . S
C1108 C1107 1.363 . S
C1108 C1114 1.428 . S
H1109 C1105 0.930 . S
H1110 C1107 0.929 . S
S1111 N1112 1.613 . S
S1111 N1113 1.610 . S
N1112 S1111 1.613 . S
N1112 C1115 1.350 . S
N1113 S1111 1.610 . S
N1113 C1114 1.351 . S
C1114 C1108 1.428 . S
C1114 N1113 1.351 . S
C1114 C1115 1.434 . S
C1115 C1106 1.429 . S
C1115 N1112 1.350 . S
C1115 C1114 1.434 . S
C1116 C1117 1.369 . S
C1116 C1118 1.419 . S
C1116 H1120 0.930 . S
C1117 C1116 1.369 . S
C1117 C1126 1.429 . S
C1118 C1116 1.419 . S
C1118 C1119 1.363 . S
C1118 H1121 0.929 . S
C1119 C1118 1.363 . S
C1119 C1125 1.428 . S
H1120 C1116 0.930 . S
H1121 C1118 0.929 . S
S1122 N1123 1.613 . S
S1122 N1124 1.610 . S
N1123 S1122 1.613 . S
N1123 C1126 1.350 . S
N1124 S1122 1.610 . S
N1124 C1125 1.351 . S
C1125 C1119 1.428 . S
C1125 N1124 1.351 . S
C1125 C1126 1.434 . S
C1126 C1117 1.429 . S
C1126 N1123 1.350 . S
C1126 C1125 1.434 . S
C1127 C1128 1.369 . S
C1127 C1129 1.419 . S
C1127 H1131 0.930 . S
C1128 C1127 1.369 . S
C1128 C1137 1.429 . S
C1129 C1127 1.419 . S
C1129 C1130 1.363 . S
C1129 H1132 0.929 . S
C1130 C1129 1.363 . S
C1130 C1136 1.428 . S
H1131 C1127 0.930 . S
H1132 C1129 0.929 . S
S1133 N1134 1.613 . S
S1133 N1135 1.610 . S
N1134 S1133 1.613 . S
N1134 C1137 1.350 . S
N1135 S1133 1.610 . S
N1135 C1136 1.351 . S
C1136 C1130 1.428 . S
C1136 N1135 1.351 . S
C1136 C1137 1.434 . S
C1137 C1128 1.429 . S
C1137 N1134 1.350 . S
C1137 C1136 1.434 . S
C1138 C1139 1.369 . S
C1138 C1140 1.419 . S
C1138 H1142 0.930 . S
C1139 C1138 1.369 . S
C1139 C1148 1.429 . S
C1140 C1138 1.419 . S
C1140 C1141 1.363 . S
C1140 H1143 0.929 . S
C1141 C1140 1.363 . S
C1141 C1147 1.428 . S
H1142 C1138 0.930 . S
H1143 C1140 0.929 . S
S1144 N1145 1.613 . S
S1144 N1146 1.610 . S
N1145 S1144 1.613 . S
N1145 C1148 1.350 . S
N1146 S1144 1.610 . S
N1146 C1147 1.351 . S
C1147 C1141 1.428 . S
C1147 N1146 1.351 . S
C1147 C1148 1.434 . S
C1148 C1139 1.429 . S
C1148 N1145 1.350 . S
C1148 C1147 1.434 . S
C1149 C1150 1.369 . S
C1149 C1151 1.419 . S
C1149 H1153 0.930 . S
C1150 C1149 1.369 . S
C1150 C1159 1.429 . S
C1151 C1149 1.419 . S
C1151 C1152 1.363 . S
C1151 H1154 0.929 . S
C1152 C1151 1.363 . S
C1152 C1158 1.428 . S
H1153 C1149 0.930 . S
H1154 C1151 0.929 . S
S1155 N1156 1.613 . S
S1155 N1157 1.610 . S
N1156 S1155 1.613 . S
N1156 C1159 1.350 . S
N1157 S1155 1.610 . S
N1157 C1158 1.351 . S
C1158 C1152 1.428 . S
C1158 N1157 1.351 . S
C1158 C1159 1.434 . S
C1159 C1150 1.429 . S
C1159 N1156 1.350 . S
C1159 C1158 1.434 . S
C1160 C1161 1.369 . S
C1160 C1162 1.419 . S
C1160 H1164 0.930 . S
C1161 C1160 1.369 . S
C1161 C1170 1.429 . S
C1162 C1160 1.419 . S
C1162 C1163 1.363 . S
C1162 H1165 0.929 . S
C1163 C1162 1.363 . S
C1163 C1169 1.428 . S
H1164 C1160 0.930 . S
H1165 C1162 0.929 . S
S1166 N1167 1.613 . S
S1166 N1168 1.610 . S
N1167 S1166 1.613 . S
N1167 C1170 1.350 . S
N1168 S1166 1.610 . S
N1168 C1169 1.351 . S
C1169 C1163 1.428 . S
C1169 N1168 1.351 . S
C1169 C1170 1.434 . S
C1170 C1161 1.429 . S
C1170 N1167 1.350 . S
C1170 C1169 1.434 . S
C1171 C1172 1.369 . S
C1171 C1173 1.419 . S
C1171 H1175 0.930 . S
C1172 C1171 1.369 . S
C1172 C1181 1.429 . S
C1173 C1171 1.419 . S
C1173 C1174 1.363 . S
C1173 H1176 0.929 . S
C1174 C1173 1.363 . S
C1174 C1180 1.428 . S
H1175 C1171 0.930 . S
H1176 C1173 0.929 . S
S1177 N1178 1.613 . S
S1177 N1179 1.610 . S
N1178 S1177 1.613 . S
N1178 C1181 1.350 . S
N1179 S1177 1.610 . S
N1179 C1180 1.351 . S
C1180 C1174 1.428 . S
C1180 N1179 1.351 . S
C1180 C1181 1.434 . S
C1181 C1172 1.429 . S
C1181 N1178 1.350 . S
C1181 C1180 1.434 . S
C1182 C1183 1.369 . S
C1182 C1184 1.419 . S
C1182 H1186 0.930 . S
C1183 C1182 1.369 . S
C1183 C1192 1.429 1_455 S
C1184 C1182 1.419 . S
C1184 C1185 1.363 . S
C1184 H1187 0.929 . S
C1185 C1184 1.363 . S
C1185 C1191 1.423 1_456 S
H1186 C1182 0.930 . S
H1187 C1184 0.929 . S
S1188 N1189 1.613 . S
S1188 N1190 1.610 . S
N1189 S1188 1.613 . S
N1189 C1192 1.350 1_554 S
N1190 S1188 1.610 . S
N1190 C1191 1.361 . S
C1191 C1185 1.423 1_654 S
C1191 N1190 1.361 . S
C1191 C1192 1.431 1_554 S
C1192 C1183 1.429 1_655 S
C1192 N1189 1.350 1_556 S
C1192 C1191 1.431 1_556 S
C1193 C1194 1.369 . S
C1193 C1195 1.419 . S
C1193 H1197 0.930 . S
C1194 C1193 1.369 . S
C1194 C1203 1.429 . S
C1195 C1193 1.419 . S
C1195 C1196 1.363 . S
C1195 H1198 0.929 . S
C1196 C1195 1.363 . S
C1196 C1202 1.428 . S
H1197 C1193 0.930 . S
H1198 C1195 0.929 . S
S1199 N1200 1.613 . S
S1199 N1201 1.610 . S
N1200 S1199 1.613 . S
N1200 C1203 1.350 . S
N1201 S1199 1.610 . S
N1201 C1202 1.351 . S
C1202 C1196 1.428 . S
C1202 N1201 1.351 . S
C1202 C1203 1.434 . S
C1203 C1194 1.429 . S
C1203 N1200 1.350 . S
C1203 C1202 1.434 . S
C1204 C1205 1.369 . S
C1204 C1206 1.419 . S
C1204 H1208 0.930 . S
C1205 C1204 1.369 . S
C1205 C1214 1.429 . S
C1206 C1204 1.419 . S
C1206 C1207 1.363 . S
C1206 H1209 0.929 . S
C1207 C1206 1.363 . S
C1207 C1213 1.428 . S
H1208 C1204 0.930 . S
H1209 C1206 0.929 . S
S1210 N1211 1.613 . S
S1210 N1212 1.610 . S
N1211 S1210 1.613 . S
N1211 C1214 1.350 . S
N1212 S1210 1.610 . S
N1212 C1213 1.351 . S
C1213 C1207 1.428 . S
C1213 N1212 1.351 . S
C1213 C1214 1.434 . S
C1214 C1205 1.429 . S
C1214 N1211 1.350 . S
C1214 C1213 1.434 . S
C1215 C1216 1.369 . S
C1215 C1217 1.419 . S
C1215 H1219 0.930 . S
C1216 C1215 1.369 . S
C1216 C1225 1.429 . S
C1217 C1215 1.419 . S
C1217 C1218 1.363 . S
C1217 H1220 0.929 . S
C1218 C1217 1.363 . S
C1218 C1224 1.428 . S
H1219 C1215 0.930 . S
H1220 C1217 0.929 . S
S1221 N1222 1.613 . S
S1221 N1223 1.610 . S
N1222 S1221 1.613 . S
N1222 C1225 1.350 . S
N1223 S1221 1.610 . S
N1223 C1224 1.351 . S
C1224 C1218 1.428 . S
C1224 N1223 1.351 . S
C1224 C1225 1.434 . S
C1225 C1216 1.429 . S
C1225 N1222 1.350 . S
C1225 C1224 1.434 . S
C1226 C1227 1.369 . S
C1226 C1228 1.419 . S
C1226 H1230 0.930 . S
C1227 C1226 1.369 . S
C1227 C1236 1.429 . S
C1228 C1226 1.419 . S
C1228 C1229 1.363 . S
C1228 H1231 0.929 . S
C1229 C1228 1.363 . S
C1229 C1235 1.428 . S
H1230 C1226 0.930 . S
H1231 C1228 0.929 . S
S1232 N1233 1.613 . S
S1232 N1234 1.610 1_655 S
N1233 S1232 1.613 . S
N1233 C1236 1.350 1_655 S
N1234 S1232 1.610 1_455 S
N1234 C1235 1.351 . S
C1235 C1229 1.428 . S
C1235 N1234 1.351 . S
C1235 C1236 1.434 . S
C1236 C1227 1.429 . S
C1236 N1233 1.350 1_455 S
C1236 C1235 1.434 . S
C1237 C1238 1.369 . S
C1237 C1239 1.419 . S
C1237 H1241 0.930 . S
C1238 C1237 1.369 . S
C1238 C1247 1.429 . S
C1239 C1237 1.419 . S
C1239 C1240 1.363 . S
C1239 H1242 0.929 . S
C1240 C1239 1.363 . S
C1240 C1246 1.428 . S
H1241 C1237 0.930 . S
H1242 C1239 0.929 . S
S1243 N1244 1.613 . S
S1243 N1245 1.610 . S
N1244 S1243 1.613 . S
N1244 C1247 1.350 . S
N1245 S1243 1.610 . S
N1245 C1246 1.351 . S
C1246 C1240 1.428 . S
C1246 N1245 1.351 . S
C1246 C1247 1.434 . S
C1247 C1238 1.429 . S
C1247 N1244 1.350 . S
C1247 C1246 1.434 . S
C1248 C1249 1.369 . S
C1248 C1250 1.419 . S
C1248 H1252 0.930 . S
C1249 C1248 1.369 . S
C1249 C1258 1.429 . S
C1250 C1248 1.419 . S
C1250 C1251 1.363 . S
C1250 H1253 0.929 . S
C1251 C1250 1.363 . S
C1251 C1257 1.428 . S
H1252 C1248 0.930 . S
H1253 C1250 0.929 . S
S1254 N1255 1.613 . S
S1254 N1256 1.610 . S
N1255 S1254 1.613 . S
N1255 C1258 1.350 . S
N1256 S1254 1.610 . S
N1256 C1257 1.351 . S
C1257 C1251 1.428 . S
C1257 N1256 1.351 . S
C1257 C1258 1.434 . S
C1258 C1249 1.429 . S
C1258 N1255 1.350 . S
C1258 C1257 1.434 . S
C1259 C1260 1.369 . S
C1259 C1261 1.419 . S
C1259 H1263 0.930 . S
C1260 C1259 1.369 . S
C1260 C1269 1.429 . S
C1261 C1259 1.419 . S
C1261 C1262 1.363 . S
C1261 H1264 0.929 . S
C1262 C1261 1.363 . S
C1262 C1268 1.428 . S
H1263 C1259 0.930 . S
H1264 C1261 0.929 . S
S1265 N1266 1.613 . S
S1265 N1267 1.610 . S
N1266 S1265 1.613 . S
N1266 C1269 1.350 . S
N1267 S1265 1.610 . S
N1267 C1268 1.351 . S
C1268 C1262 1.428 . S
C1268 N1267 1.351 . S
C1268 C1269 1.434 . S
C1269 C1260 1.429 . S
C1269 N1266 1.350 . S
C1269 C1268 1.434 . S
C1270 C1271 1.369 . S
C1270 C1272 1.419 . S
C1270 H1274 0.930 . S
C1271 C1270 1.369 . S
C1271 C1280 1.429 . S
C1272 C1270 1.419 . S
C1272 C1273 1.363 . S
C1272 H1275 0.929 . S
C1273 C1272 1.363 . S
C1273 C1279 1.428 . S
H1274 C1270 0.930 . S
H1275 C1272 0.929 . S
S1276 N1277 1.613 . S
S1276 N1278 1.610 . S
N1277 S1276 1.613 . S
N1277 C1280 1.350 . S
N1278 S1276 1.610 . S
N1278 C1279 1.351 . S
C1279 C1273 1.428 . S
C1279 N1278 1.351 . S
C1279 C1280 1.434 . S
C1280 C1271 1.429 . S
C1280 N1277 1.350 . S
C1280 C1279 1.434 . S
C1281 C1282 1.369 . S
C1281 C1283 1.419 . S
C1281 H1285 0.930 . S
C1282 C1281 1.369 . S
C1282 C1291 1.429 . S
C1283 C1281 1.419 . S
C1283 C1284 1.363 . S
C1283 H1286 0.929 . S
C1284 C1283 1.363 . S
C1284 C1290 1.428 . S
H1285 C1281 0.930 . S
H1286 C1283 0.929 . S
S1287 N1288 1.613 . S
S1287 N1289 1.610 . S
N1288 S1287 1.613 . S
N1288 C1291 1.350 . S
N1289 S1287 1.610 . S
N1289 C1290 1.351 . S
C1290 C1284 1.428 . S
C1290 N1289 1.351 . S
C1290 C1291 1.434 . S
C1291 C1282 1.429 . S
C1291 N1288 1.350 . S
C1291 C1290 1.434 . S
C1292 C1293 1.369 . S
C1292 C1294 1.419 . S
C1292 H1296 0.930 . S
C1293 C1292 1.369 . S
C1293 C1302 1.429 . S
C1294 C1292 1.419 . S
C1294 C1295 1.363 . S
C1294 H1297 0.929 . S
C1295 C1294 1.363 . S
C1295 C1301 1.428 . S
H1296 C1292 0.930 . S
H1297 C1294 0.929 . S
S1298 N1299 1.613 . S
S1298 N1300 1.610 . S
N1299 S1298 1.613 . S
N1299 C1302 1.350 . S
N1300 S1298 1.610 . S
N1300 C1301 1.351 . S
C1301 C1295 1.428 . S
C1301 N1300 1.351 . S
C1301 C1302 1.434 . S
C1302 C1293 1.429 . S
C1302 N1299 1.350 . S
C1302 C1301 1.434 . S
C1303 C1304 1.369 . S
C1303 C1305 1.419 . S
C1303 H1307 0.930 . S
C1304 C1303 1.369 . S
C1304 C1313 1.429 . S
C1305 C1303 1.419 . S
C1305 C1306 1.363 . S
C1305 H1308 0.929 . S
C1306 C1305 1.363 . S
C1306 C1312 1.428 . S
H1307 C1303 0.930 . S
H1308 C1305 0.929 . S
S1309 N1310 1.613 . S
S1309 N1311 1.610 . S
N1310 S1309 1.613 . S
N1310 C1313 1.350 . S
N1311 S1309 1.610 . S
N1311 C1312 1.351 . S
C1312 C1306 1.428 . S
C1312 N1311 1.351 . S
C1312 C1313 1.434 . S
C1313 C1304 1.429 . S
C1313 N1310 1.350 . S
C1313 C1312 1.434 . S
C1314 C1315 1.369 . S
C1314 C1316 1.419 . S
C1314 H1318 0.930 . S
C1315 C1314 1.369 . S
C1315 C1324 1.429 . S
C1316 C1314 1.419 . S
C1316 C1317 1.363 . S
C1316 H1319 0.929 . S
C1317 C1316 1.363 . S
C1317 C1323 1.428 . S
H1318 C1314 0.930 . S
H1319 C1316 0.929 . S
S1320 N1321 1.613 . S
S1320 N1322 1.610 . S
N1321 S1320 1.613 . S
N1321 C1324 1.350 . S
N1322 S1320 1.610 . S
N1322 C1323 1.351 . S
C1323 C1317 1.428 . S
C1323 N1322 1.351 . S
C1323 C1324 1.434 . S
C1324 C1315 1.429 . S
C1324 N1321 1.350 . S
C1324 C1323 1.434 . S
C1325 C1326 1.369 . S
C1325 C1327 1.419 . S
C1325 H1329 0.930 . S
C1326 C1325 1.369 . S
C1326 C1335 1.429 . S
C1327 C1325 1.419 . S
C1327 C1328 1.363 . S
C1327 H1330 0.929 . S
C1328 C1327 1.363 . S
C1328 C1334 1.428 . S
H1329 C1325 0.930 . S
H1330 C1327 0.929 . S
S1331 N1332 1.613 . S
S1331 N1333 1.610 . S
N1332 S1331 1.613 . S
N1332 C1335 1.350 . S
N1333 S1331 1.610 . S
N1333 C1334 1.351 . S
C1334 C1328 1.428 . S
C1334 N1333 1.351 . S
C1334 C1335 1.434 . S
C1335 C1326 1.429 . S
C1335 N1332 1.350 . S
C1335 C1334 1.434 . S
C1336 C1337 1.369 . S
C1336 C1338 1.419 . S
C1336 H1340 0.930 . S
C1337 C1336 1.369 . S
C1337 C1346 1.429 . S
C1338 C1336 1.419 . S
C1338 C1339 1.363 . S
C1338 H1341 0.929 . S
C1339 C1338 1.363 . S
C1339 C1345 1.428 . S
H1340 C1336 0.930 . S
H1341 C1338 0.929 . S
S1342 N1343 1.613 . S
S1342 N1344 1.610 . S
N1343 S1342 1.613 . S
N1343 C1346 1.350 . S
N1344 S1342 1.610 . S
N1344 C1345 1.351 . S
C1345 C1339 1.428 . S
C1345 N1344 1.351 . S
C1345 C1346 1.434 . S
C1346 C1337 1.429 . S
C1346 N1343 1.350 . S
C1346 C1345 1.434 . S
C1347 C1348 1.369 . S
C1347 C1349 1.419 . S
C1347 H1351 0.930 . S
C1348 C1347 1.369 . S
C1348 C1357 1.429 . S
C1349 C1347 1.419 . S
C1349 C1350 1.363 . S
C1349 H1352 0.929 . S
C1350 C1349 1.363 . S
C1350 C1356 1.428 . S
H1351 C1347 0.930 . S
H1352 C1349 0.929 . S
S1353 N1354 1.613 . S
S1353 N1355 1.610 . S
N1354 S1353 1.613 . S
N1354 C1357 1.350 . S
N1355 S1353 1.610 . S
N1355 C1356 1.351 . S
C1356 C1350 1.428 . S
C1356 N1355 1.351 . S
C1356 C1357 1.434 . S
C1357 C1348 1.429 . S
C1357 N1354 1.350 . S
C1357 C1356 1.434 . S
C1358 C1359 1.369 . S
C1358 C1360 1.419 . S
C1358 H1362 0.930 . S
C1359 C1358 1.369 . S
C1359 C1368 1.429 . S
C1360 C1358 1.419 . S
C1360 C1361 1.363 . S
C1360 H1363 0.929 . S
C1361 C1360 1.363 . S
C1361 C1367 1.428 . S
H1362 C1358 0.930 . S
H1363 C1360 0.929 . S
S1364 N1365 1.613 . S
S1364 N1366 1.610 . S
N1365 S1364 1.613 . S
N1365 C1368 1.350 . S
N1366 S1364 1.610 . S
N1366 C1367 1.351 . S
C1367 C1361 1.428 . S
C1367 N1366 1.351 . S
C1367 C1368 1.434 . S
C1368 C1359 1.429 . S
C1368 N1365 1.350 . S
C1368 C1367 1.434 . S
C1369 C1370 1.369 . S
C1369 C1371 1.419 . S
C1369 H1373 0.930 . S
C1370 C1369 1.369 . S
C1370 C1379 1.429 . S
C1371 C1369 1.419 . S
C1371 C1372 1.363 . S
C1371 H1374 0.929 . S
C1372 C1371 1.363 . S
C1372 C1378 1.428 . S
H1373 C1369 0.930 . S
H1374 C1371 0.929 . S
S1375 N1376 1.613 1_545 S
S1375 N1377 1.610 . S
N1376 S1375 1.613 1_565 S
N1376 C1379 1.350 . S
N1377 S1375 1.610 . S
N1377 C1378 1.351 1_545 S
C1378 C1372 1.428 . S
C1378 N1377 1.351 1_565 S
C1378 C1379 1.434 . S
C1379 C1370 1.429 . S
C1379 N1376 1.350 . S
C1379 C1378 1.434 . S
C1380 C1381 1.369 . S
C1380 C1382 1.419 . S
C1380 H1384 0.930 . S
C1381 C1380 1.369 . S
C1381 C1390 1.429 . S
C1382 C1380 1.419 . S
C1382 C1383 1.363 . S
C1382 H1385 0.929 . S
C1383 C1382 1.363 . S
C1383 C1389 1.428 . S
H1384 C1380 0.930 . S
H1385 C1382 0.929 . S
S1386 N1387 1.613 . S
S1386 N1388 1.610 . S
N1387 S1386 1.613 . S
N1387 C1390 1.350 . S
N1388 S1386 1.610 . S
N1388 C1389 1.351 . S
C1389 C1383 1.428 . S
C1389 N1388 1.351 . S
C1389 C1390 1.434 . S
C1390 C1381 1.429 . S
C1390 N1387 1.350 . S
C1390 C1389 1.434 . S
C1391 C1392 1.369 1_556 S
C1391 C1393 1.419 1_556 S
C1391 H1395 0.930 . S
C1392 C1391 1.369 1_554 S
C1392 C1401 1.429 . S
C1393 C1391 1.419 1_554 S
C1393 C1394 1.363 . S
C1393 H1396 0.929 . S
C1394 C1393 1.363 . S
C1394 C1400 1.428 . S
H1395 C1391 0.930 . S
H1396 C1393 0.929 . S
S1397 N1398 1.613 . S
S1397 N1399 1.610 . S
N1398 S1397 1.613 . S
N1398 C1401 1.350 . S
N1399 S1397 1.610 . S
N1399 C1400 1.351 . S
C1400 C1394 1.428 . S
C1400 N1399 1.351 . S
C1400 C1401 1.434 . S
C1401 C1392 1.429 . S
C1401 N1398 1.350 . S
C1401 C1400 1.434 . S
C1402 C1403 1.369 . S
C1402 C1404 1.419 . S
C1402 H1406 0.930 . S
C1403 C1402 1.369 . S
C1403 C1412 1.429 . S
C1404 C1402 1.419 . S
C1404 C1405 1.363 . S
C1404 H1407 0.929 . S
C1405 C1404 1.363 . S
C1405 C1411 1.428 . S
H1406 C1402 0.930 . S
H1407 C1404 0.929 . S
S1408 N1409 1.613 . S
S1408 N1410 1.610 . S
N1409 S1408 1.613 . S
N1409 C1412 1.350 . S
N1410 S1408 1.610 . S
N1410 C1411 1.351 . S
C1411 C1405 1.428 . S
C1411 N1410 1.351 . S
C1411 C1412 1.434 . S
C1412 C1403 1.429 . S
C1412 N1409 1.350 . S
C1412 C1411 1.434 . S
C1413 C1414 1.369 . S
C1413 C1415 1.419 . S
C1413 H1417 0.930 . S
C1414 C1413 1.369 . S
C1414 C1423 1.429 . S
C1415 C1413 1.419 . S
C1415 C1416 1.363 . S
C1415 H1418 0.929 . S
C1416 C1415 1.363 . S
C1416 C1422 1.428 . S
H1417 C1413 0.930 . S
H1418 C1415 0.929 . S
S1419 N1420 1.613 . S
S1419 N1421 1.610 . S
N1420 S1419 1.613 . S
N1420 C1423 1.350 . S
N1421 S1419 1.610 . S
N1421 C1422 1.351 . S
C1422 C1416 1.428 . S
C1422 N1421 1.351 . S
C1422 C1423 1.434 . S
C1423 C1414 1.429 . S
C1423 N1420 1.350 . S
C1423 C1422 1.434 . S
C1424 C1425 1.369 . S
C1424 C1426 1.419 . S
C1424 H1428 0.930 . S
C1425 C1424 1.369 . S
C1425 C1434 1.429 . S
C1426 C1424 1.419 . S
C1426 C1427 1.363 . S
C1426 H1429 0.929 . S
C1427 C1426 1.363 . S
C1427 C1433 1.428 . S
H1428 C1424 0.930 . S
H1429 C1426 0.929 . S
S1430 N1431 1.613 . S
S1430 N1432 1.610 . S
N1431 S1430 1.613 . S
N1431 C1434 1.350 . S
N1432 S1430 1.610 . S
N1432 C1433 1.351 . S
C1433 C1427 1.428 . S
C1433 N1432 1.351 . S
C1433 C1434 1.434 . S
C1434 C1425 1.429 . S
C1434 N1431 1.350 . S
C1434 C1433 1.434 . S
C1435 C1436 1.369 . S
C1435 C1437 1.419 . S
C1435 H1439 0.930 . S
C1436 C1435 1.369 . S
C1436 C1445 1.429 . S
C1437 C1435 1.419 . S
C1437 C1438 1.363 . S
C1437 H1440 0.929 . S
C1438 C1437 1.363 . S
C1438 C1444 1.428 . S
H1439 C1435 0.930 . S
H1440 C1437 0.929 . S
S1441 N1442 1.613 . S
S1441 N1443 1.610 . S
N1442 S1441 1.613 . S
N1442 C1445 1.350 . S
N1443 S1441 1.610 . S
N1443 C1444 1.351 . S
C1444 C1438 1.428 . S
C1444 N1443 1.351 . S
C1444 C1445 1.434 . S
C1445 C1436 1.429 . S
C1445 N1442 1.350 . S
C1445 C1444 1.434 . S
C1446 C1447 1.369 . S
C1446 C1448 1.419 . S
C1446 H1450 0.930 . S
C1447 C1446 1.369 . S
C1447 C1456 1.429 . S
C1448 C1446 1.419 . S
C1448 C1449 1.363 . S
C1448 H1451 0.929 . S
C1449 C1448 1.363 . S
C1449 C1455 1.428 . S
H1450 C1446 0.930 . S
H1451 C1448 0.929 . S
S1452 N1453 1.613 . S
S1452 N1454 1.610 . S
N1453 S1452 1.613 . S
N1453 C1456 1.350 . S
N1454 S1452 1.610 . S
N1454 C1455 1.351 . S
C1455 C1449 1.428 . S
C1455 N1454 1.351 . S
C1455 C1456 1.434 . S
C1456 C1447 1.429 . S
C1456 N1453 1.350 . S
C1456 C1455 1.434 . S
C1457 C1458 1.369 . S
C1457 C1459 1.419 . S
C1457 H1461 0.930 . S
C1458 C1457 1.369 . S
C1458 C1467 1.429 . S
C1459 C1457 1.419 . S
C1459 C1460 1.363 . S
C1459 H1462 0.929 . S
C1460 C1459 1.363 . S
C1460 C1466 1.428 . S
H1461 C1457 0.930 . S
H1462 C1459 0.929 . S
S1463 N1464 1.613 . S
S1463 N1465 1.610 . S
N1464 S1463 1.613 . S
N1464 C1467 1.350 . S
N1465 S1463 1.610 . S
N1465 C1466 1.351 . S
C1466 C1460 1.428 . S
C1466 N1465 1.351 . S
C1466 C1467 1.434 . S
C1467 C1458 1.429 . S
C1467 N1464 1.350 . S
C1467 C1466 1.434 . S
C1468 C1469 1.369 . S
C1468 C1470 1.419 1_556 S
C1468 H1472 0.930 1_556 S
C1469 C1468 1.369 . S
C1469 C1478 1.429 . S
C1470 C1468 1.419 1_554 S
C1470 C1471 1.363 1_554 S
C1470 H1473 0.929 . S
C1471 C1470 1.363 1_556 S
C1471 C1477 1.428 . S
H1472 C1468 0.930 1_554 S
H1473 C1470 0.929 . S
S1474 N1475 1.613 . S
S1474 N1476 1.610 . S
N1475 S1474 1.613 . S
N1475 C1478 1.350 . S
N1476 S1474 1.610 . S
N1476 C1477 1.351 . S
C1477 C1471 1.428 . S
C1477 N1476 1.351 . S
C1477 C1478 1.434 . S
C1478 C1469 1.429 . S
C1478 N1475 1.350 . S
C1478 C1477 1.434 . S
C1479 C1480 1.369 . S
C1479 C1481 1.419 . S
C1479 H1483 0.930 . S
C1480 C1479 1.369 . S
C1480 C1489 1.429 . S
C1481 C1479 1.419 . S
C1481 C1482 1.363 . S
C1481 H1484 0.929 . S
C1482 C1481 1.363 . S
C1482 C1488 1.428 . S
H1483 C1479 0.930 . S
H1484 C1481 0.929 . S
S1485 N1486 1.613 . S
S1485 N1487 1.610 . S
N1486 S1485 1.613 . S
N1486 C1489 1.350 . S
N1487 S1485 1.610 . S
N1487 C1488 1.351 . S
C1488 C1482 1.428 . S
C1488 N1487 1.351 . S
C1488 C1489 1.434 . S
C1489 C1480 1.429 . S
C1489 N1486 1.350 . S
C1489 C1488 1.434 . S
C1490 C1491 1.369 . S
C1490 C1492 1.419 . S
C1490 H1494 0.930 1_455 S
C1491 C1490 1.369 . S
C1491 C1500 1.429 . S
C1492 C1490 1.419 . S
C1492 C1493 1.363 . S
C1492 H1495 0.929 1_455 S
C1493 C1492 1.363 . S
C1493 C1499 1.428 . S
H1494 C1490 0.930 1_655 S
H1495 C1492 0.929 1_655 S
S1496 N1497 1.613 . S
S1496 N1498 1.610 . S
N1497 S1496 1.613 . S
N1497 C1500 1.350 . S
N1498 S1496 1.610 . S
N1498 C1499 1.351 . S
C1499 C1493 1.428 . S
C1499 N1498 1.351 . S
C1499 C1500 1.434 . S
C1500 C1491 1.429 . S
C1500 N1497 1.350 . S
C1500 C1499 1.434 . S
C1501 C1502 1.369 . S
C1501 C1503 1.419 . S
C1501 H1505 0.930 . S
C1502 C1501 1.369 . S
C1502 C1511 1.429 . S
C1503 C1501 1.419 . S
C1503 C1504 1.363 . S
C1503 H1506 0.929 . S
C1504 C1503 1.363 . S
C1504 C1510 1.428 . S
H1505 C1501 0.930 . S
H1506 C1503 0.929 . S
S1507 N1508 1.613 . S
S1507 N1509 1.610 . S
N1508 S1507 1.613 . S
N1508 C1511 1.350 . S
N1509 S1507 1.610 . S
N1509 C1510 1.351 . S
C1510 C1504 1.428 . S
C1510 N1509 1.351 . S
C1510 C1511 1.434 . S
C1511 C1502 1.429 . S
C1511 N1508 1.350 . S
C1511 C1510 1.434 . S
C1512 C1513 1.369 . S
C1512 C1514 1.419 . S
C1512 H1516 0.930 . S
C1513 C1512 1.369 . S
C1513 C1522 1.429 . S
C1514 C1512 1.419 . S
C1514 C1515 1.363 . S
C1514 H1517 0.929 . S
C1515 C1514 1.363 . S
C1515 C1521 1.428 . S
H1516 C1512 0.930 . S
H1517 C1514 0.929 . S
S1518 N1519 1.613 . S
S1518 N1520 1.610 . S
N1519 S1518 1.613 . S
N1519 C1522 1.350 . S
N1520 S1518 1.610 . S
N1520 C1521 1.351 . S
C1521 C1515 1.428 . S
C1521 N1520 1.351 . S
C1521 C1522 1.434 . S
C1522 C1513 1.429 . S
C1522 N1519 1.350 . S
C1522 C1521 1.434 . S
C1523 C1524 1.369 . S
C1523 C1525 1.419 . S
C1523 H1527 0.930 . S
C1524 C1523 1.369 . S
C1524 C1533 1.429 . S
C1525 C1523 1.419 . S
C1525 C1526 1.363 . S
C1525 H1528 0.929 . S
C1526 C1525 1.363 . S
C1526 C1532 1.428 . S
H1527 C1523 0.930 . S
H1528 C1525 0.929 . S
S1529 N1530 1.613 . S
S1529 N1531 1.610 . S
N1530 S1529 1.613 . S
N1530 C1533 1.350 . S
N1531 S1529 1.610 . S
N1531 C1532 1.351 . S
C1532 C1526 1.428 . S
C1532 N1531 1.351 . S
C1532 C1533 1.434 . S
C1533 C1524 1.429 . S
C1533 N1530 1.350 . S
C1533 C1532 1.434 . S
C1534 C1535 1.369 . S
C1534 C1536 1.419 . S
C1534 H1538 0.930 . S
C1535 C1534 1.369 . S
C1535 C1544 1.429 . S
C1536 C1534 1.419 . S
C1536 C1537 1.363 . S
C1536 H1539 0.929 . S
C1537 C1536 1.363 . S
C1537 C1543 1.428 . S
H1538 C1534 0.930 . S
H1539 C1536 0.929 . S
S1540 N1541 1.613 . S
S1540 N1542 1.610 . S
N1541 S1540 1.613 . S
N1541 C1544 1.350 . S
N1542 S1540 1.610 . S
N1542 C1543 1.351 . S
C1543 C1537 1.428 . S
C1543 N1542 1.351 . S
C1543 C1544 1.434 . S
C1544 C1535 1.429 . S
C1544 N1541 1.350 . S
C1544 C1543 1.434 . S
C1545 C1546 1.369 . S
C1545 C1547 1.419 . S
C1545 H1549 0.930 . S
C1546 C1545 1.369 . S
C1546 C1555 1.429 . S
C1547 C1545 1.419 . S
C1547 C1548 1.363 . S
C1547 H1550 0.929 . S
C1548 C1547 1.363 . S
C1548 C1554 1.428 . S
H1549 C1545 0.930 . S
H1550 C1547 0.929 . S
S1551 N1552 1.613 . S
S1551 N1553 1.610 . S
N1552 S1551 1.613 . S
N1552 C1555 1.350 . S
N1553 S1551 1.610 . S
N1553 C1554 1.351 . S
C1554 C1548 1.428 . S
C1554 N1553 1.351 . S
C1554 C1555 1.434 . S
C1555 C1546 1.429 . S
C1555 N1552 1.350 . S
C1555 C1554 1.434 . S
C1556 C1557 1.369 . S
C1556 C1558 1.419 . S
C1556 H1560 0.930 . S
C1557 C1556 1.369 . S
C1557 C1566 1.429 . S
C1558 C1556 1.419 . S
C1558 C1559 1.363 . S
C1558 H1561 0.929 . S
C1559 C1558 1.363 . S
C1559 C1565 1.428 . S
H1560 C1556 0.930 . S
H1561 C1558 0.929 . S
S1562 N1563 1.613 . S
S1562 N1564 1.610 . S
N1563 S1562 1.613 . S
N1563 C1566 1.350 . S
N1564 S1562 1.610 . S
N1564 C1565 1.351 . S
C1565 C1559 1.428 . S
C1565 N1564 1.351 . S
C1565 C1566 1.434 . S
C1566 C1557 1.429 . S
C1566 N1563 1.350 . S
C1566 C1565 1.434 . S
C1567 C1568 1.369 . S
C1567 C1569 1.419 . S
C1567 H1571 0.930 . S
C1568 C1567 1.369 . S
C1568 C1577 1.429 . S
C1569 C1567 1.419 . S
C1569 C1570 1.363 . S
C1569 H1572 0.929 . S
C1570 C1569 1.363 . S
C1570 C1576 1.428 . S
H1571 C1567 0.930 . S
H1572 C1569 0.929 . S
S1573 N1574 1.613 . S
S1573 N1575 1.610 . S
N1574 S1573 1.613 . S
N1574 C1577 1.350 . S
N1575 S1573 1.610 . S
N1575 C1576 1.351 . S
C1576 C1570 1.428 . S
C1576 N1575 1.351 . S
C1576 C1577 1.434 . S
C1577 C1568 1.429 . S
C1577 N1574 1.350 . S
C1577 C1576 1.434 . S
C1578 C1579 1.369 . S
C1578 C1580 1.419 . S
C1578 H1582 0.930 . S
C1579 C1578 1.369 . S
C1579 C1588 1.429 . S
C1580 C1578 1.419 . S
C1580 C1581 1.363 . S
C1580 H1583 0.929 1_655 S
C1581 C1580 1.363 . S
C1581 C1587 1.428 . S
H1582 C1578 0.930 . S
H1583 C1580 0.929 1_455 S
S1584 N1585 1.613 . S
S1584 N1586 1.610 . S
N1585 S1584 1.613 . S
N1585 C1588 1.350 . S
N1586 S1584 1.610 . S
N1586 C1587 1.351 . S
C1587 C1581 1.428 . S
C1587 N1586 1.351 . S
C1587 C1588 1.434 . S
C1588 C1579 1.429 . S
C1588 N1585 1.350 . S
C1588 C1587 1.434 . S
C1589 C1590 1.369 . S
C1589 C1591 1.419 . S
C1589 H1593 0.930 . S
C1590 C1589 1.369 . S
C1590 C1599 1.429 . S
C1591 C1589 1.419 . S
C1591 C1592 1.363 . S
C1591 H1594 0.929 . S
C1592 C1591 1.363 . S
C1592 C1598 1.428 . S
H1593 C1589 0.930 . S
H1594 C1591 0.929 . S
S1595 N1596 1.613 . S
S1595 N1597 1.610 . S
N1596 S1595 1.613 . S
N1596 C1599 1.350 . S
N1597 S1595 1.610 . S
N1597 C1598 1.351 . S
C1598 C1592 1.428 . S
C1598 N1597 1.351 . S
C1598 C1599 1.434 . S
C1599 C1590 1.429 . S
C1599 N1596 1.350 . S
C1599 C1598 1.434 . S
C1600 C1601 1.369 . S
C1600 C1602 1.419 . S
C1600 H1604 0.930 . S
C1601 C1600 1.369 . S
C1601 C1610 1.429 . S
C1602 C1600 1.419 . S
C1602 C1603 1.363 . S
C1602 H1605 0.929 . S
C1603 C1602 1.363 . S
C1603 C1609 1.428 . S
H1604 C1600 0.930 . S
H1605 C1602 0.929 . S
S1606 N1607 1.613 . S
S1606 N1608 1.610 . S
N1607 S1606 1.613 . S
N1607 C1610 1.350 . S
N1608 S1606 1.610 . S
N1608 C1609 1.351 . S
C1609 C1603 1.428 . S
C1609 N1608 1.351 . S
C1609 C1610 1.434 . S
C1610 C1601 1.429 . S
C1610 N1607 1.350 . S
C1610 C1609 1.434 . S
C1611 C1612 1.369 . S
C1611 C1613 1.419 . S
C1611 H1615 0.930 . S
C1612 C1611 1.369 . S
C1612 C1621 1.429 . S
C1613 C1611 1.419 . S
C1613 C1614 1.363 . S
C1613 H1616 0.929 . S
C1614 C1613 1.363 . S
C1614 C1620 1.428 . S
H1615 C1611 0.930 . S
H1616 C1613 0.929 . S
S1617 N1618 1.613 . S
S1617 N1619 1.610 . S
N1618 S1617 1.613 . S
N1618 C1621 1.350 . S
N1619 S1617 1.610 . S
N1619 C1620 1.351 . S
C1620 C1614 1.428 . S
C1620 N1619 1.351 . S
C1620 C1621 1.434 . S
C1621 C1612 1.429 . S
C1621 N1618 1.350 . S
C1621 C1620 1.434 . S
C1622 C1623 1.369 . S
C1622 C1624 1.419 . S
C1622 H1626 0.930 . S
C1623 C1622 1.369 . S
C1623 C1632 1.429 . S
C1624 C1622 1.419 . S
C1624 C1625 1.363 . S
C1624 H1627 0.929 . S
C1625 C1624 1.363 . S
C1625 C1631 1.428 . S
H1626 C1622 0.930 . S
H1627 C1624 0.929 . S
S1628 N1629 1.613 . S
S1628 N1630 1.610 . S
N1629 S1628 1.613 . S
N1629 C1632 1.350 . S
N1630 S1628 1.610 . S
N1630 C1631 1.351 . S
C1631 C1625 1.428 . S
C1631 N1630 1.351 . S
C1631 C1632 1.434 . S
C1632 C1623 1.429 . S
C1632 N1629 1.350 . S
C1632 C1631 1.434 . S
C1633 C1634 1.369 . S
C1633 C1635 1.419 . S
C1633 H1637 0.930 . S
C1634 C1633 1.369 . S
C1634 C1643 1.429 . S
C1635 C1633 1.419 . S
C1635 C1636 1.363 . S
C1635 H1638 0.929 . S
C1636 C1635 1.363 . S
C1636 C1642 1.428 . S
H1637 C1633 0.930 . S
H1638 C1635 0.929 . S
S1639 N1640 1.613 1_556 S
S1639 N1641 1.610 1_556 S
N1640 S1639 1.613 1_554 S
N1640 C1643 1.350 . S
N1641 S1639 1.610 1_554 S
N1641 C1642 1.351 . S
C1642 C1636 1.428 . S
C1642 N1641 1.351 . S
C1642 C1643 1.434 . S
C1643 C1634 1.429 . S
C1643 N1640 1.350 . S
C1643 C1642 1.434 . S
C1644 C1645 1.369 . S
C1644 C1646 1.419 . S
C1644 H1648 0.930 . S
C1645 C1644 1.369 . S
C1645 C1654 1.429 . S
C1646 C1644 1.419 . S
C1646 C1647 1.363 . S
C1646 H1649 0.929 . S
C1647 C1646 1.363 . S
C1647 C1653 1.428 . S
H1648 C1644 0.930 . S
H1649 C1646 0.929 . S
S1650 N1651 1.613 . S
S1650 N1652 1.610 . S
N1651 S1650 1.613 . S
N1651 C1654 1.350 . S
N1652 S1650 1.610 . S
N1652 C1653 1.351 . S
C1653 C1647 1.428 . S
C1653 N1652 1.351 . S
C1653 C1654 1.434 . S
C1654 C1645 1.429 . S
C1654 N1651 1.350 . S
C1654 C1653 1.434 . S
C1655 C1656 1.369 . S
C1655 C1657 1.419 . S
C1655 H1659 0.930 . S
C1656 C1655 1.369 . S
C1656 C1665 1.429 . S
C1657 C1655 1.419 . S
C1657 C1658 1.363 . S
C1657 H1660 0.929 . S
C1658 C1657 1.363 . S
C1658 C1664 1.428 . S
H1659 C1655 0.930 . S
H1660 C1657 0.929 . S
S1661 N1662 1.613 . S
S1661 N1663 1.610 . S
N1662 S1661 1.613 . S
N1662 C1665 1.350 . S
N1663 S1661 1.610 . S
N1663 C1664 1.351 . S
C1664 C1658 1.428 . S
C1664 N1663 1.351 . S
C1664 C1665 1.434 . S
C1665 C1656 1.429 . S
C1665 N1662 1.350 . S
C1665 C1664 1.434 . S
C1666 C1667 1.369 . S
C1666 C1668 1.419 . S
C1666 H1670 0.930 . S
C1667 C1666 1.369 . S
C1667 C1676 1.429 . S
C1668 C1666 1.419 . S
C1668 C1669 1.363 . S
C1668 H1671 0.929 . S
C1669 C1668 1.363 . S
C1669 C1675 1.428 . S
H1670 C1666 0.930 . S
H1671 C1668 0.929 . S
S1672 N1673 1.613 . S
S1672 N1674 1.610 . S
N1673 S1672 1.613 . S
N1673 C1676 1.350 . S
N1674 S1672 1.610 . S
N1674 C1675 1.351 . S
C1675 C1669 1.428 . S
C1675 N1674 1.351 . S
C1675 C1676 1.434 . S
C1676 C1667 1.429 . S
C1676 N1673 1.350 . S
C1676 C1675 1.434 . S
C1677 C1678 1.369 . S
C1677 C1679 1.419 . S
C1677 H1681 0.930 . S
C1678 C1677 1.369 . S
C1678 C1687 1.429 . S
C1679 C1677 1.419 . S
C1679 C1680 1.363 . S
C1679 H1682 0.929 . S
C1680 C1679 1.363 . S
C1680 C1686 1.428 . S
H1681 C1677 0.930 . S
H1682 C1679 0.929 . S
S1683 N1684 1.613 . S
S1683 N1685 1.610 . S
N1684 S1683 1.613 . S
N1684 C1687 1.350 . S
N1685 S1683 1.610 . S
N1685 C1686 1.351 . S
C1686 C1680 1.428 . S
C1686 N1685 1.351 . S
C1686 C1687 1.434 . S
C1687 C1678 1.429 . S
C1687 N1684 1.350 . S
C1687 C1686 1.434 . S
C633 C101 1.514 . S
C635 C316 1.314 1_556 S
C644 C57 1.511 . S
C646 C351 1.551 . S
C655 C73 1.218 . S
C657 C356 1.153 . S
C668 C381 1.396 . S
C666 C78 1.393 . S
C677 C21 1.480 . S
C679 C401 1.485 . S
C690 C416 1.112 . S
C688 C31 1.201 . S
C701 C451 1.587 . S
C699 C49 1.610 . S
C710 C0 1.412 . S
C712 C456 1.232 . S
C723 C331 1.605 1_655 S
C721 C218 1.679 . S
C732 C229 1.091 . S
C734 C341 1.100 . S
C745 C371 1.442 . S
C743 C257 1.462 . S
C756 C376 1.226 . S
C754 C164 1.257 1_556 S
C765 C216 1.259 . S
C767 C396 1.207 . S
C778 C431 1.447 . S
C776 C231 1.470 . S
C789 C441 1.110 . S
C787 C255 1.103 . S
C800 C471 1.589 . S
C798 C166 1.663 . S
C811 C321 1.337 . S
C809 C143 1.457 . S
C820 C265 1.731 . S
C822 C491 1.783 . S
C833 C501 1.450 . S
C831 C299 1.475 . S
C844 C516 1.065 . S
C842 C291 1.142 . S
C853 C104 1.407 . S
C855 C461 1.293 . S
C864 C117 1.506 . S
C866 C361 1.493 . S
C875 C304 1.667 . S
C877 C551 1.716 . S
C888 C556 1.021 . S
C886 C278 1.104 . S
C899 C314 1.293 . S
C897 C60 1.584 . S
C910 C570 1.485 . S
C908 C96 1.487 . S
C919 C88 1.205 . S
C921 C354 1.111 . S
C930 C65 1.375 . S
C932 C544 1.334 . S
C943 C404 1.418 . S
C941 C10 1.477 . S
C952 C44 1.167 . S
C954 C494 1.062 . S
C965 C450 1.523 . S
C963 C34 1.474 . S
C976 C574 1.224 . S
C974 C13 1.523 . S
C987 C330 1.571 1_565 S
C985 C138 1.677 . S
C998 C564 1.019 . S
C996 C296 1.080 . S
C1007 C112 1.357 . S
C1009 C370 1.389 . S
C1018 C270 1.264 . S
C1020 C534 1.161 . S
C1029 C140 1.247 . S
C1031 C394 1.147 . S
C1042 C510 1.396 . S
C1040 C294 1.364 . S
C1051 C114 1.096 . S
C1053 C444 1.045 . S
C1062 C268 1.667 . S
C1064 C590 1.565 . S
C1073 C169 1.580 . S
C1075 C324 1.324 . S
C1084 C161 1.717 . S
C1086 C490 1.733 . S
C1095 C234 1.554 . S
C1097 C424 1.392 . S
C1106 C226 1.106 . S
C1108 C514 1.031 . S
C1119 C584 1.275 . S
C1117 C247 1.543 . S
C1128 C195 1.576 . S
C1130 C364 1.440 . S
C1141 C390 1.660 . S
C1139 C239 1.660 . S
C1152 C334 0.997 . S
C1150 C187 1.071 . S
C1161 C75 1.513 . S
C1163 C596 1.315 . S
C1174 C571 1.550 . S
C1172 C83 1.511 . S
C1183 C99 1.211 . S
C1185 C616 1.163 . S
C1194 C52 1.391 . S
C1196 C541 1.389 . S
C1205 C47 1.474 . S
C1207 C481 1.489 . S
C1218 C496 1.100 . S
C1216 C5 1.195 . S
C1229 C531 1.584 . S
C1227 C23 1.608 . S
C1240 C576 1.244 . S
C1238 C26 1.410 . S
C1251 C611 1.599 . S
C1249 C244 1.680 . S
C1260 C177 1.095 . S
C1262 C561 1.095 . S
C1273 C631 1.442 . S
C1271 C192 1.463 . S
C1284 C536 1.219 . S
C1282 C203 1.268 . S
C1295 C476 1.205 . S
C1293 C242 1.258 . S
C1304 C179 1.470 . S
C1306 C511 1.446 . S
C1317 C521 1.106 . S
C1315 C190 1.103 . S
C1326 C205 1.662 . S
C1328 C591 1.592 . S
C1339 C601 1.334 . S
C1337 C286 1.455 . S
C1348 C122 1.726 . S
C1350 C411 1.784 . S
C1361 C421 1.448 . S
C1359 C130 1.478 . S
C1372 C436 1.071 . S
C1370 C148 1.145 . S
C1383 C581 1.293 . S
C1381 C273 1.406 . S
C1392 C260 1.504 . S
C1394 C621 1.485 . S
C1405 C391 1.719 . S
C1403 C135 1.675 . S
C1416 C336 1.029 . S
C1414 C109 1.105 . S
C1425 C86 1.583 . S
C1427 C594 1.305 . S
C1438 C350 1.486 . S
C1436 C70 1.491 . S
C1447 C62 1.205 . S
C1449 C614 1.107 . S
C1458 C91 1.374 . S
C1460 C384 1.333 . S
C1469 C36 1.478 . S
C1471 C484 1.412 . S
C1482 C414 1.065 . S
C1480 C18 1.164 . S
C1491 C8 1.483 . S
C1493 C530 1.528 . S
C1502 C39 1.522 . S
C1504 C454 1.226 . S
C1515 C610 1.566 . S
C1513 C307 1.674 . S
C1524 C153 1.074 . S
C1526 C344 1.031 . S
C1537 C630 1.391 1_655 S
C1535 C281 1.361 . S
C1546 C127 1.265 . S
C1548 C374 1.160 . S
C1557 C309 1.247 . S
C1559 C474 1.147 . S
C1570 C430 1.391 . S
C1568 C151 1.356 . S
C1579 C283 1.096 . S
C1581 C524 1.043 . S
C1592 C470 1.558 . S
C1590 C125 1.666 . S
C1603 C604 1.319 . S
C1601 C221 1.580 . S
C1614 C410 1.734 . S
C1612 C200 1.720 . S
C1623 C208 1.554 . S
C1625 C504 1.391 . S
C1636 C434 1.021 . S
C1634 C174 1.100 . S
C1645 C182 1.542 . S
C1647 C464 1.273 . S
C1656 C156 1.574 . S
C1658 C624 1.432 . S
C1669 C550 1.660 . S
C1667 C213 1.656 . S
C1680 C554 0.987 . S
C1678 C252 1.076 . S
