# Generated by pormake.
# Topology soc, (4,6)-cn, num edge types: 1
# Building blocks:
#     Node 0, Type 0, BuildingBlock: ESEHIV_clean_sbu_0, # of connection points: 4
#     Node 1, Type 0, BuildingBlock: ESEHIV_clean_sbu_0, # of connection points: 4
#     Node 2, Type 0, BuildingBlock: ESEHIV_clean_sbu_0, # of connection points: 4
#     Node 3, Type 0, BuildingBlock: ESEHIV_clean_sbu_0, # of connection points: 4
#     Node 4, Type 0, BuildingBlock: ESEHIV_clean_sbu_0, # of connection points: 4
#     Node 5, Type 0, BuildingBlock: ESEHIV_clean_sbu_0, # of connection points: 4
#     Node 6, Type 0, BuildingBlock: ESEHIV_clean_sbu_0, # of connection points: 4
#     Node 7, Type 0, BuildingBlock: ESEHIV_clean_sbu_0, # of connection points: 4
#     Node 8, Type 0, BuildingBlock: ESEHIV_clean_sbu_0, # of connection points: 4
#     Node 9, Type 0, BuildingBlock: ESEHIV_clean_sbu_0, # of connection points: 4
#     Node 10, Type 0, BuildingBlock: ESEHIV_clean_sbu_0, # of connection points: 4
#     Node 11, Type 0, BuildingBlock: ESEHIV_clean_sbu_0, # of connection points: 4
#     Node 12, Type 1, BuildingBlock: GEDQOX_clean_sbu_0, # of connection points: 6
#     Node 13, Type 1, BuildingBlock: GEDQOX_clean_sbu_0, # of connection points: 6
#     Node 14, Type 1, BuildingBlock: GEDQOX_clean_sbu_0, # of connection points: 6
#     Node 15, Type 1, BuildingBlock: GEDQOX_clean_sbu_0, # of connection points: 6
#     Node 16, Type 1, BuildingBlock: GEDQOX_clean_sbu_0, # of connection points: 6
#     Node 17, Type 1, BuildingBlock: GEDQOX_clean_sbu_0, # of connection points: 6
#     Node 18, Type 1, BuildingBlock: GEDQOX_clean_sbu_0, # of connection points: 6
#     Node 19, Type 1, BuildingBlock: GEDQOX_clean_sbu_0, # of connection points: 6
#     Edge 20, Type (0, 1), None
#     Edge 21, Type (0, 1), None
#     Edge 22, Type (0, 1), None
#     Edge 23, Type (0, 1), None
#     Edge 24, Type (0, 1), None
#     Edge 25, Type (0, 1), None
#     Edge 26, Type (0, 1), None
#     Edge 27, Type (0, 1), None
#     Edge 28, Type (0, 1), None
#     Edge 29, Type (0, 1), None
#     Edge 30, Type (0, 1), None
#     Edge 31, Type (0, 1), None
#     Edge 32, Type (0, 1), None
#     Edge 33, Type (0, 1), None
#     Edge 34, Type (0, 1), None
#     Edge 35, Type (0, 1), None
#     Edge 36, Type (0, 1), None
#     Edge 37, Type (0, 1), None
#     Edge 38, Type (0, 1), None
#     Edge 39, Type (0, 1), None
#     Edge 40, Type (0, 1), None
#     Edge 41, Type (0, 1), None
#     Edge 42, Type (0, 1), None
#     Edge 43, Type (0, 1), None
#     Edge 44, Type (0, 1), None
#     Edge 45, Type (0, 1), None
#     Edge 46, Type (0, 1), None
#     Edge 47, Type (0, 1), None
#     Edge 48, Type (0, 1), None
#     Edge 49, Type (0, 1), None
#     Edge 50, Type (0, 1), None
#     Edge 51, Type (0, 1), None
#     Edge 52, Type (0, 1), None
#     Edge 53, Type (0, 1), None
#     Edge 54, Type (0, 1), None
#     Edge 55, Type (0, 1), None
#     Edge 56, Type (0, 1), None
#     Edge 57, Type (0, 1), None
#     Edge 58, Type (0, 1), None
#     Edge 59, Type (0, 1), None
#     Edge 60, Type (0, 1), None
#     Edge 61, Type (0, 1), None
#     Edge 62, Type (0, 1), None
#     Edge 63, Type (0, 1), None
#     Edge 64, Type (0, 1), None
#     Edge 65, Type (0, 1), None
#     Edge 66, Type (0, 1), None
#     Edge 67, Type (0, 1), None
# Relax obj value: 0.417
# Max RMSD: 0.409
# Mean RMSD: 0.244
data_MOF--net-soc--node1-ESEHIV_clean_sbu_0--node2-GEDQOX_clean_sbu_0--edge1-none
_symmetry_space_group_name_H-M    P1
_symmetry_Int_Tables_number       1
_symmetry_cell_setting            triclinic
loop_
_symmetry_equiv_pos_as_xyz
'x, y, z'
_cell_length_a     20.961509
_cell_length_b     22.571331
_cell_length_c     28.953233
_cell_angle_alpha  100.65401
_cell_angle_beta   116.50717
_cell_angle_gamma 81.550703
loop_
_atom_site_label
_atom_site_type_symbol
_atom_site_fract_x
_atom_site_fract_y
_atom_site_fract_z
_atom_type_partial_charge
Cu0 Cu 0.07409 0.19303 0.39091 0.0
N1 N 0.11972 0.25604 0.38302 0.0
N2 N 0.17761 0.33019 0.37805 0.0
C3 C 0.15275 0.274 0.35686 0.0
C4 C 0.1603 0.34713 0.41814 0.0
C5 C 0.129 0.30151 0.42239 0.0
O6 O 0.15533 0.12685 0.41727 0.0
C7 C 0.97033 0.29693 0.39379 0.0
O8 O 0.97511 0.30443 0.35156 0.0
H9 H 0.15954 0.24671 0.32421 0.0
H10 H 0.11587 0.30101 0.45436 0.0
N11 N 1.00754 0.13536 0.34617 0.0
N12 N 0.95839 1.04874 0.33915 0.0
C13 C 0.97838 0.10373 0.36706 0.0
C14 C 1.00542 0.09871 0.30326 0.0
C15 C 0.97445 1.04614 0.29848 0.0
C16 C 0.20146 0.1101 0.39778 0.0
O17 O 0.20871 0.14575 0.36974 0.0
H18 H 0.97759 0.11875 0.40459 0.0
H19 H 1.03036 0.10695 0.27966 0.0
O20 O 1.00684 0.25069 0.41781 0.0
H21 H 0.17443 0.38823 0.4455 0.0
H22 H 0.96676 1.00793 0.26823 0.0
Cu23 Cu 1.05067 0.18166 0.83976 0.0
N24 N 0.98468 0.13467 0.84649 0.0
N25 N 0.91713 1.07076 0.85501 0.0
C26 C 0.94848 0.083 0.82545 0.0
C27 C 0.9349 0.11527 0.89545 0.0
C28 C 0.97709 0.15203 0.8911 0.0
O29 O 1.01492 0.25687 0.87009 0.0
C30 C 0.12085 1.07424 0.82483 0.0
O31 O 1.06128 1.07328 0.78167 0.0
H32 H 0.94594 1.05475 0.79023 0.0
H33 H 1.00306 0.18872 0.92056 0.0
N34 N 0.08824 0.23152 0.81056 0.0
N35 N 0.15641 0.30421 0.81323 0.0
C36 C 0.15285 0.25746 0.83602 0.0
C37 C 1.05029 0.26373 0.77079 0.0
C38 C 0.09142 0.30752 0.77223 0.0
C39 C 0.94736 0.27112 0.84645 0.0
O40 O 0.90644 0.23452 0.80645 0.0
H41 H 0.19404 0.24555 0.87291 0.0
H42 H 0.99444 0.25899 0.74476 0.0
O43 O 0.13094 0.12055 0.85993 0.0
H44 H 0.92095 0.11974 0.92783 0.0
H45 H 0.07316 0.3414 0.7461 0.0
Cu46 Cu 0.38171 0.08827 0.07404 0.0
N47 N 0.38424 1.02793 0.02395 0.0
N48 N 0.36036 0.95063 0.96143 0.0
C49 C 0.33301 0.99344 0.98797 0.0
C50 C 0.43097 0.95816 0.98213 0.0
C51 C 0.44552 1.00603 0.02093 0.0
O52 O 0.44225 1.06041 0.13745 0.0
C53 C 0.38178 0.19324 0.04179 0.0
O54 O 0.31261 0.18765 0.01717 0.0
H55 H 0.27695 1.00159 0.97971 0.0
H56 H 0.4969 1.02431 0.04514 0.0
N57 N 0.29387 0.11024 0.07517 0.0
N58 N 0.25468 0.15695 0.13343 0.0
C59 C 0.29041 0.1617 0.10583 0.0
C60 C 0.25414 1.0726 0.08043 0.0
C61 C 0.23046 0.10123 0.11691 0.0
C62 C 0.43516 1.00784 0.14303 0.0
O63 O 0.39119 0.9731 0.10317 0.0
H64 H 0.32831 0.19569 0.11765 0.0
H65 H 0.2545 1.02457 0.06723 0.0
O66 O 0.42243 0.15464 0.07026 0.0
H67 H 0.46848 0.93311 0.96806 0.0
H68 H 0.20857 0.07924 0.1363 0.0
Cu69 Cu 0.15298 0.45501 0.09366 0.0
N70 N 0.21174 0.46725 0.05723 0.0
N71 N 0.25748 0.46134 0.9964 0.0
C72 C 0.19966 0.45446 0.00539 0.0
C73 C 0.30777 0.47896 0.04458 0.0
C74 C 0.28019 0.48235 0.08098 0.0
O75 O 0.21467 0.43375 0.17086 0.0
C76 C 1.02687 0.45309 0.00137 0.0
O77 O 1.05193 0.50507 0.00629 0.0
H78 H 0.14982 0.43868 0.9747 0.0
H79 H 0.30949 0.49354 0.12269 0.0
N80 N 0.10117 0.52111 0.11516 0.0
N81 N 1.03545 0.54377 0.16136 0.0
C82 C 1.04359 0.50882 0.1207 0.0
C83 C 0.12866 0.56765 0.15254 0.0
C84 C 0.08817 0.58196 0.18058 0.0
C85 C 0.1895 0.42771 0.20363 0.0
O86 O 0.12213 0.41663 0.18411 0.0
H87 H 1.01516 0.46869 0.10053 0.0
H88 H 0.18046 0.58365 0.16399 0.0
O89 O 0.06502 0.41714 0.03558 0.0
H90 H 0.36149 0.48832 0.05336 0.0
H91 H 0.10232 0.61289 0.21642 0.0
Cu92 Cu 0.72805 0.1933 0.20337 0.0
N93 N 0.80905 0.19756 0.19172 0.0
N94 N 0.84575 0.23679 0.14195 0.0
C95 C 0.79656 0.20554 0.14323 0.0
C96 C 0.89265 0.24904 0.19237 0.0
C97 C 0.86986 0.22496 0.2229 0.0
O98 O 0.70943 0.27624 0.23024 0.0
C99 C 0.67097 0.10927 0.11874 0.0
O100 O 0.71262 1.07397 0.15344 0.0
H101 H 0.74602 0.19785 0.11027 0.0
H102 H 0.89124 0.23361 0.26486 0.0
N103 N 0.72432 0.14262 0.24736 0.0
N104 N 0.71742 1.06301 0.28099 0.0
C105 C 0.7523 0.08644 0.25939 0.0
C106 C 0.67192 0.15483 0.26335 0.0
C107 C 0.66811 0.10661 0.28453 0.0
C108 C 0.74831 0.28883 0.27879 0.0
O109 O 0.79233 0.24625 0.3046 0.0
H110 H 0.79558 1.06253 0.2511 0.0
H111 H 0.63686 0.19576 0.25817 0.0
O112 O 0.65866 0.16451 0.13449 0.0
H113 H 0.93671 0.27749 0.20661 0.0
H114 H 0.63274 0.10427 0.3021 0.0
Cu115 Cu 0.08236 0.85051 0.08766 0.0
N116 N 1.03511 0.9182 0.05265 0.0
N117 N 0.94419 0.92423 0.97364 0.0
C118 C 1.01301 0.90626 0.00051 0.0
C119 C 0.92189 0.95323 0.00922 0.0
C120 C 0.97857 0.95138 0.05764 0.0
O121 O 1.00667 0.81705 0.09155 0.0
C122 C 0.16607 0.82199 0.03827 0.0
O123 O 0.19782 0.86713 0.07346 0.0
H124 H 1.0403 0.87371 0.98241 0.0
H125 H 0.9746 0.96735 0.09376 0.0
N126 N 0.15301 0.85524 0.15658 0.0
N127 N 0.2081 0.88046 0.24279 0.0
C128 C 0.18351 0.90002 0.19576 0.0
C129 C 0.1616 0.8065 0.18001 0.0
C130 C 0.19382 0.82205 0.23271 0.0
C131 C 0.98918 0.85075 0.12496 0.0
O132 O 1.02636 0.89698 0.15334 0.0
H133 H 0.18171 0.94651 0.19026 0.0
H134 H 0.13943 0.76373 0.15981 0.0
O135 O 0.11881 0.79819 0.0434 0.0
H136 H 0.86764 0.97057 0.00128 0.0
H137 H 0.20564 0.79257 0.26156 0.0
Cu138 Cu 0.57965 0.65675 0.85903 0.0
N139 N 0.64566 0.7192 0.88858 0.0
N140 N 0.69668 0.80073 0.88649 0.0
C141 C 0.67521 0.74414 0.86336 0.0
C142 C 0.67987 0.81096 0.92748 0.0
C143 C 0.64895 0.76161 0.92858 0.0
O144 O 0.62866 0.58327 0.83651 0.0
C145 C 0.43476 0.70083 0.78901 0.0
O146 O 0.41953 0.64419 0.76778 0.0
H147 H 0.67484 0.72359 0.82636 0.0
H148 H 0.62466 0.75913 0.95412 0.0
N149 N 0.54031 0.62567 0.8988 0.0
N150 N 0.47047 0.56887 0.91317 0.0
C151 C 0.47411 0.60439 0.88122 0.0
C152 C 0.57917 0.60234 0.94374 0.0
C153 C 0.53699 0.56789 0.95257 0.0
C154 C 0.69514 0.57023 0.86507 0.0
O155 O 0.73244 0.61109 0.90246 0.0
H156 H 0.43102 0.60982 0.84368 0.0
H157 H 0.63607 0.60594 0.96655 0.0
O158 O 0.50196 0.70799 0.81435 0.0
H159 H 0.68664 0.85271 0.95404 0.0
H160 H 0.5554 0.54129 0.9843 0.0
Cu161 Cu 0.58457 0.69934 0.37942 0.0
N162 N 0.53178 0.63246 0.37609 0.0
N163 N 0.47203 0.55304 0.3717 0.0
C164 C 0.46718 0.6069 0.35395 0.0
C165 C 0.53997 0.5459 0.40654 0.0
C166 C 0.57402 0.59509 0.41135 0.0
O167 O 0.53942 0.77514 0.41045 0.0
C168 C 0.68155 0.59127 0.36788 0.0
O169 O 0.62157 0.57233 0.32978 0.0
H170 H 0.4184 0.62671 0.3256 0.0
H171 H 0.62777 0.60332 0.44014 0.0
N172 N 0.60331 0.74617 0.33822 0.0
N173 N 0.66015 0.81723 0.32661 0.0
C174 C 0.64506 0.79441 0.3607 0.0
C175 C 0.59225 0.73799 0.28813 0.0
C176 C 0.62647 0.78142 0.28092 0.0
C177 C 0.47384 0.79614 0.38385 0.0
O178 O 0.43434 0.76314 0.34045 0.0
H179 H 0.66695 0.81039 0.40206 0.0
H180 H 0.56419 0.7015 0.25935 0.0
O181 O 0.67992 0.64471 0.3947 0.0
H182 H 0.56202 0.50934 0.42991 0.0
H183 H 0.62897 0.78444 0.24487 0.0
Cu184 Cu 0.87809 0.70041 0.52294 0.0
N185 N 0.91031 0.76306 0.50801 0.0
N186 N 0.91141 0.8194 0.45292 0.0
C187 C 0.89021 0.7687 0.45808 0.0
C188 C 0.94717 0.84716 0.50187 0.0
C189 C 0.9461 0.81204 0.53617 0.0
O190 O 0.77478 0.71373 0.49638 0.0
C191 C 0.93791 0.58399 0.49744 0.0
O192 O 0.98089 0.58541 0.54715 0.0
H193 H 0.85757 0.73707 0.42588 0.0
H194 H 0.96759 0.82243 0.57812 0.0
N195 N 0.91991 0.68452 0.59111 0.0
N196 N 0.9334 0.63891 0.65684 0.0
C197 C 0.89104 0.64861 0.60765 0.0
C198 C 0.9836 0.69728 0.63098 0.0
C199 C 0.99213 0.66887 0.67198 0.0
C200 C 0.7347 0.73117 0.51959 0.0
O201 O 0.66522 0.73119 0.49185 0.0
H202 H 0.84058 0.62867 0.58346 0.0
H203 H 1.02166 0.72381 0.62978 0.0
O204 O 0.89358 0.62862 0.48097 0.0
H205 H 0.97046 0.89012 0.51208 0.0
H206 H 1.03765 0.66988 0.70974 0.0
Cu207 Cu 0.55488 1.06441 0.6509 0.0
N208 N 0.63004 0.09169 0.64697 0.0
N209 N 0.70724 0.09492 0.61532 0.0
C210 C 0.65469 1.06514 0.61239 0.0
C211 C 0.71677 0.14195 0.65327 0.0
C212 C 0.66966 0.13908 0.67371 0.0
O213 O 0.59024 1.01771 0.70701 0.0
C214 C 0.47971 1.04158 0.54613 0.0
O215 O 0.4946 0.0976 0.55123 0.0
H216 H 0.63373 1.02519 0.58514 0.0
H217 H 0.66657 0.1685 0.70657 0.0
N218 N 0.49764 0.12862 0.66437 0.0
N219 N 0.42491 0.16167 0.70213 0.0
C220 C 0.44157 0.11715 0.67055 0.0
C221 C 0.51525 0.18404 0.69067 0.0
C222 C 0.47056 0.2044 0.71433 0.0
C223 C 0.64963 0.98686 0.72051 0.0
O224 O 0.68706 0.98325 0.69374 0.0
H225 H 0.42312 1.07217 0.66075 0.0
H226 H 0.56211 0.20532 0.6981 0.0
O227 O 0.50051 1.01597 0.58634 0.0
H228 H 0.75585 0.17495 0.66586 0.0
H229 H 0.47792 0.24311 0.7441 0.0
Cu230 Cu 0.37073 0.81122 0.69548 0.0
N231 N 0.46017 0.83705 0.71689 0.0
N232 N 0.50351 0.88511 0.67849 0.0
C233 C 0.48325 0.832 0.68038 0.0
C234 C 0.50771 0.91995 0.72298 0.0
C235 C 0.481 0.88985 0.74672 0.0
O236 O 0.29592 0.87569 0.68386 0.0
C237 C 0.3446 0.69988 0.62371 0.0
O238 O 0.38091 0.66946 0.6633 0.0
H239 H 0.46307 0.79789 0.64658 0.0
H240 H 0.46395 0.91034 0.77632 0.0
N241 N 0.37605 0.77823 0.74891 0.0
N242 N 0.33552 0.71597 0.79773 0.0
C243 C 0.3219 0.72761 0.73921 0.0
C244 C 0.425 0.8009 0.81119 0.0
C245 C 0.39772 0.75759 0.84513 0.0
C246 C 0.231 0.86478 0.66949 0.0
O247 O 0.21137 0.80969 0.6491 0.0
H248 H 0.28094 0.70996 0.70206 0.0
H249 H 0.46233 0.8358 0.82714 0.0
O250 O 0.33965 0.75725 0.63097 0.0
H251 H 0.51083 0.96841 0.73046 0.0
H252 H 0.41439 0.76018 0.88658 0.0
Cu253 Cu 0.48171 0.42877 0.65167 0.0
N254 N 0.52914 0.49245 0.64791 0.0
N255 N 0.59679 0.5034 0.60699 0.0
C256 C 0.5916 0.47699 0.64355 0.0
C257 C 0.53733 0.54129 0.59052 0.0
C258 C 0.49646 0.53447 0.61556 0.0
O259 O 0.57033 0.393 0.70897 0.0
C260 C 0.45292 0.40355 0.53501 0.0
O261 O 0.5217 0.38816 0.55345 0.0
H262 H 0.62727 0.43978 0.66053 0.0
H263 H 0.44145 0.55037 0.60345 0.0
N264 N 0.41767 0.44332 0.68864 0.0
N265 N 0.37207 0.43709 0.7477 0.0
C266 C 0.43208 0.43494 0.73876 0.0
C267 C 0.34557 0.45097 0.66596 0.0
C268 C 0.31809 0.44728 0.70127 0.0
C269 C 0.62962 0.3613 0.71712 0.0
O270 O 0.64002 0.33232 0.67708 0.0
H271 H 0.48574 0.42494 0.76774 0.0
H272 H 0.31415 0.45656 0.62538 0.0
O273 O 0.42469 0.41109 0.56818 0.0
H274 H 0.51928 0.56566 0.55748 0.0
H275 H 0.26199 0.45139 0.69289 0.0
Nd276 Nd 0.36138 0.39238 0.36636 0.0
Nd277 Nd 0.28946 0.4769 0.37318 0.0
C278 C 0.40707 0.28857 0.32962 0.0
C279 C 0.364 0.25287 0.28049 0.0
C280 C 0.30663 0.28181 0.24155 0.0
C281 C 0.26487 0.24895 0.19433 0.0
C282 C 0.27931 0.18652 0.18573 0.0
C283 C 0.33423 0.15707 0.22583 0.0
C284 C 0.37642 0.19016 0.27308 0.0
C285 C 0.41637 0.414 0.47639 0.0
C286 C 0.21865 0.3646 0.36936 0.0
C287 C 0.25747 0.58398 0.41523 0.0
C288 C 0.2632 0.61106 0.46676 0.0
C289 C 0.28899 0.57648 0.5081 0.0
C290 C 0.31088 0.60533 0.5594 0.0
C291 C 0.31138 0.66861 0.56993 0.0
C292 C 0.28137 0.70264 0.52806 0.0
C293 C 0.25718 0.67403 0.47697 0.0
C294 C 0.22849 0.43866 0.26401 0.0
C295 C 0.4224 0.51445 0.36452 0.0
O296 O 0.42328 0.34025 0.32523 0.0
O297 O 0.38391 0.29324 0.3651 0.0
O298 O 0.45326 0.40336 0.44951 0.0
O299 O 0.35007 0.42053 0.44439 0.0
O300 O 0.25809 0.34321 0.34464 0.0
O301 O 0.22772 0.41989 0.3928 0.0
O302 O 0.31946 0.56722 0.41478 0.0
O303 O 0.20928 0.54503 0.38724 0.0
O304 O 0.19356 0.45399 0.29253 0.0
O305 O 0.29518 0.44136 0.29391 0.0
O306 O 0.35618 0.53286 0.35325 0.0
O307 O 0.44254 0.45954 0.37732 0.0
H308 H 0.29582 0.33012 0.24697 0.0
H309 H 0.22434 0.27251 0.16331 0.0
H310 H 0.3477 0.10912 0.21897 0.0
H311 H 0.41975 0.16722 0.30311 0.0
H312 H 0.29504 0.52759 0.50095 0.0
H313 H 0.32956 0.57824 0.59081 0.0
H314 H 0.27919 0.75157 0.53465 0.0
H315 H 0.23813 0.70127 0.44558 0.0
Nd316 Nd 0.80793 0.41994 0.42204 0.0
Nd317 Nd 0.84909 0.47218 0.34712 0.0
C318 C 0.75195 0.40336 0.48439 0.0
C319 C 0.7169 0.43236 0.51825 0.0
C320 C 0.68517 0.49159 0.51571 0.0
C321 C 0.64713 0.51558 0.54552 0.0
C322 C 0.6418 0.48133 0.57975 0.0
C323 C 0.6775 0.42293 0.58379 0.0
C324 C 0.71395 0.39887 0.55328 0.0
C325 C 0.92205 0.34346 0.41087 0.0
C326 C 0.91709 0.52639 0.46605 0.0
C327 C 0.89742 0.49245 0.28187 0.0
C328 C 0.92511 0.50761 0.24681 0.0
C329 C 0.93857 0.46188 0.21168 0.0
C330 C 0.97194 0.47389 0.18206 0.0
C331 C 0.99392 0.53217 0.18756 0.0
C332 C 0.97872 0.5781 0.22226 0.0
C333 C 0.9449 0.56595 0.25157 0.0
C334 C 0.74891 0.55021 0.3752 0.0
C335 C 0.75551 0.35055 0.3058 0.0
O336 O 0.71514 0.4022 0.43386 0.0
O337 O 0.81952 0.41177 0.50069 0.0
O338 O 0.89303 0.3354 0.44023 0.0
O339 O 0.8916 0.39194 0.39148 0.0
O340 O 0.86411 0.50467 0.46857 0.0
O341 O 0.93247 0.5105 0.42596 0.0
O342 O 0.93937 0.48623 0.33061 0.0
O343 O 0.82902 0.48936 0.26785 0.0
O344 O 0.79763 0.56711 0.36546 0.0
O345 O 0.75097 0.49217 0.36557 0.0
O346 O 0.79631 0.38419 0.29876 0.0
O347 O 0.74317 0.36063 0.34744 0.0
H348 H 0.68861 0.51869 0.48984 0.0
H349 H 0.62141 0.56073 0.54132 0.0
H350 H 0.67543 0.39413 0.60891 0.0
H351 H 0.73889 0.35326 0.55641 0.0
H352 H 0.92542 0.41628 0.20864 0.0
H353 H 0.98269 0.4367 0.15648 0.0
H354 H 0.99394 0.62346 0.22733 0.0
H355 H 0.93559 0.60191 0.27882 0.0
Nd356 Nd 0.82017 0.96578 0.39233 0.0
Nd357 Nd 0.83446 0.88501 0.31341 0.0
C358 C 0.84138 1.03538 0.48062 0.0
C359 C 0.81065 1.04914 0.51746 0.0
C360 C 0.79178 1.00314 0.53452 0.0
C361 C 0.75866 1.01833 0.56762 0.0
C362 C 0.74405 0.07938 0.58343 0.0
C363 C 0.76299 0.12504 0.56627 0.0
C364 C 0.79639 0.10991 0.53342 0.0
C365 C 0.73467 1.01038 0.30186 0.0
C366 C 0.70626 0.8607 0.33525 0.0
C367 C 0.84576 0.81298 0.23519 0.0
C368 C 0.86377 0.81943 0.19403 0.0
C369 C 0.86021 0.8772 0.18157 0.0
C370 C 0.89482 0.88594 0.15267 0.0
C371 C 0.93363 0.83715 0.13691 0.0
C372 C 0.9316 0.77852 0.14522 0.0
C373 C 0.89669 0.76972 0.17417 0.0
C374 C 0.8927 0.83869 0.40656 0.0
C375 C 0.92649 1.00561 0.34828 0.0
O376 O 0.874 0.98188 0.4781 0.0
O377 O 0.80105 1.0525 0.43519 0.0
O378 O 0.71139 1.00266 0.33505 0.0
O379 O 0.79522 0.98334 0.31138 0.0
O380 O 0.74392 0.8906 0.382 0.0
O381 O 0.72022 0.86838 0.29686 0.0
O382 O 0.78509 0.84094 0.23246 0.0
O383 O 0.89888 0.8205 0.28173 0.0
O384 O 0.85 0.81085 0.36298 0.0
O385 O 0.90306 0.88966 0.40086 0.0
O386 O 0.90712 0.95559 0.31467 0.0
O387 O 0.90426 1.01762 0.38547 0.0
H388 H 0.80179 0.95584 0.52194 0.0
H389 H 0.74439 0.9826 0.58083 0.0
H390 H 0.75033 0.1722 0.57725 0.0
H391 H 0.80985 0.1456 0.51961 0.0
H392 H 0.8358 0.91608 0.19759 0.0
H393 H 0.89668 0.93158 0.14668 0.0
H394 H 0.96281 0.74092 0.13417 0.0
H395 H 0.90042 0.72524 0.18466 0.0
Nd396 Nd 0.37568 0.97829 0.37888 0.0
Nd397 Nd 0.30941 0.93331 0.41385 0.0
C398 C 0.43257 1.03084 0.33454 0.0
C399 C 0.44934 1.01169 0.29077 0.0
C400 C 0.41217 0.96607 0.25165 0.0
C401 C 0.4147 0.9587 0.20387 0.0
C402 C 0.45448 0.99699 0.19564 0.0
C403 C 0.49884 1.03674 0.23731 0.0
C404 C 0.49598 1.04431 0.28489 0.0
C405 C 0.44044 0.85865 0.39661 0.0
C406 C 0.24254 0.91004 0.2915 0.0
C407 C 0.28953 0.8831 0.47899 0.0
C408 C 0.34803 0.88663 0.53168 0.0
C409 C 0.41582 0.85784 0.53952 0.0
C410 C 0.47487 0.86921 0.587 0.0
C411 C 0.46615 0.90581 0.62875 0.0
C412 C 0.40071 0.94034 0.61895 0.0
C413 C 0.34196 0.93009 0.57114 0.0
C414 C 0.23939 1.0474 0.3983 0.0
C415 C 0.43694 1.0113 0.49454 0.0
O416 O 0.3643 1.03684 0.32268 0.0
O417 O 0.47098 1.00331 0.37514 0.0
O418 O 0.47413 0.90749 0.41497 0.0
O419 O 0.37421 0.87493 0.37365 0.0
O420 O 0.2785 0.95667 0.29986 0.0
O421 O 0.24903 0.88655 0.33164 0.0
O422 O 0.3044 0.8502 0.44253 0.0
O423 O 0.25645 0.93501 0.46554 0.0
O424 O 0.20718 0.9976 0.38206 0.0
O425 O 0.30708 1.03623 0.41669 0.0
O426 O 0.41588 0.95708 0.48602 0.0
O427 O 0.41354 1.0401 0.45479 0.0
H428 H 0.37665 0.93993 0.25649 0.0
H429 H 0.37983 0.92785 0.17222 0.0
H430 H 0.5294 1.06671 0.2313 0.0
H431 H 0.52528 0.0791 0.31538 0.0
H432 H 0.42365 0.82643 0.50902 0.0
H433 H 0.52458 0.84212 0.59367 0.0
H434 H 0.39192 0.96902 0.65026 0.0
H435 H 0.29148 0.95549 0.5653 0.0
Nd436 Nd 0.19698 0.88272 0.80515 0.0
Nd437 Nd 0.2889 0.95655 0.81528 0.0
C438 C 0.1164 0.82482 0.82783 0.0
C439 C 0.11885 0.82597 0.87934 0.0
C440 C 0.14292 0.87677 0.91673 0.0
C441 C 0.16412 0.87348 0.9691 0.0
C442 C 0.15855 0.81998 0.98496 0.0
C443 C 0.13162 0.76979 0.94724 0.0
C444 C 0.11305 0.77248 0.89483 0.0
C445 C 0.3082 0.8111 0.78891 0.0
C446 C 0.3234 0.91947 0.91453 0.0
C447 C 0.38461 1.02059 0.81854 0.0
C448 C 0.38019 1.07132 0.79301 0.0
C449 C 0.43276 0.11246 0.81781 0.0
C450 C 0.44081 0.15117 0.78897 0.0
C451 C 0.39664 0.14797 0.73515 0.0
C452 C 0.33751 0.11292 0.7126 0.0
C453 C 0.32922 1.07454 0.74145 0.0
C454 C 0.17651 1.02456 0.8288 0.0
C455 C 0.19464 0.90309 0.69874 0.0
O456 O 0.09278 0.87447 0.80613 0.0
O457 O 0.17552 0.80135 0.82575 0.0
O458 O 0.23945 0.80647 0.76081 0.0
O459 O 0.31511 0.85669 0.82441 0.0
O460 O 0.25368 0.92446 0.89189 0.0
O461 O 0.35333 0.90535 0.88315 0.0
O462 O 0.36542 0.97006 0.78725 0.0
O463 O 0.36005 1.03152 0.85379 0.0
O464 O 0.24279 1.03001 0.86114 0.0
O465 O 0.16994 0.98108 0.79257 0.0
O466 O 0.23017 0.94936 0.72759 0.0
O467 O 0.16072 0.87576 0.71684 0.0
H468 H 0.14665 0.91889 0.90565 0.0
H469 H 0.18159 0.91391 0.99675 0.0
H470 H 0.12476 0.7287 0.9583 0.0
H471 H 0.09569 0.7325 0.86659 0.0
H472 H 0.47141 0.11081 0.85796 0.0
H473 H 0.4872 0.17743 0.80719 0.0
H474 H 0.30354 0.10952 0.67112 0.0
H475 H 0.28725 1.04357 0.72204 0.0
Nd476 Nd 0.26296 0.47379 0.85569 0.0
Nd477 Nd 0.36101 0.40841 0.88519 0.0
C478 C 0.17324 0.56791 0.82742 0.0
C479 C 0.19194 0.61837 0.81221 0.0
C480 C 0.20161 0.60815 0.76641 0.0
C481 C 0.25117 0.63887 0.76298 0.0
C482 C 0.28933 0.68191 0.80407 0.0
C483 C 0.27614 0.69582 0.84813 0.0
C484 C 0.22609 0.66527 0.85161 0.0
C485 C 0.26416 0.4531 0.94937 0.0
C486 C 0.41649 0.53325 0.9045 0.0
C487 C 0.45677 0.32517 0.93202 0.0
C488 C 0.45326 0.29762 0.97177 0.0
C489 C 0.40407 0.32402 0.9917 0.0
C490 C 0.3831 0.2911 0.01769 0.0
C491 C 0.41329 0.23247 0.02521 0.0
C492 C 0.4671 0.20799 0.00944 0.0
C493 C 0.48629 0.24041 0.98183 0.0
C494 C 0.36631 0.43109 0.79325 0.0
C495 C 0.20824 0.34521 0.82891 0.0
O496 O 0.16664 0.51684 0.79639 0.0
O497 O 0.21318 0.56092 0.87591 0.0
O498 O 0.21098 0.44441 0.90412 0.0
O499 O 0.31886 0.4636 0.94375 0.0
O500 O 0.3529 0.53489 0.86463 0.0
O501 O 0.42921 0.48913 0.93147 0.0
O502 O 0.46743 0.38242 0.94515 0.0
O503 O 0.40404 0.31302 0.88615 0.0
O504 O 0.42043 0.42431 0.83703 0.0
O505 O 0.30844 0.42593 0.79711 0.0
O506 O 0.272 0.34128 0.8686 0.0
O507 O 0.19364 0.39427 0.80702 0.0
H508 H 0.17668 0.57217 0.73544 0.0
H509 H 0.26139 0.62716 0.72883 0.0
H510 H 0.30386 0.73032 0.87956 0.0
H511 H 0.21993 0.67376 0.88754 0.0
H512 H 0.37789 0.36821 0.98368 0.0
H513 H 0.34115 0.31007 0.02948 0.0
H514 H 0.48951 0.16192 0.01437 0.0
H515 H 0.52259 0.21948 0.9652 0.0
Nd516 Nd 0.84812 0.44287 0.83525 0.0
Nd517 Nd 0.79334 0.39387 0.89128 0.0
C518 C 0.87381 0.50153 0.77637 0.0
C519 C 0.88799 0.53417 0.74362 0.0
C520 C 0.83497 0.57472 0.71386 0.0
C521 C 0.84966 0.60811 0.68436 0.0
C522 C 0.91818 0.60305 0.68601 0.0
C523 C 0.97082 0.56173 0.7153 0.0
C524 C 0.95542 0.52666 0.74346 0.0
C525 C 0.91621 0.33141 0.85713 0.0
C526 C 0.69417 0.37681 0.76765 0.0
C527 C 0.7674 0.35063 0.96002 0.0
C528 C 0.79843 0.31882 0.00684 0.0
C529 C 0.77563 0.26183 0.00231 0.0
C530 C 0.79526 0.23378 0.04636 0.0
C531 C 0.83702 0.26221 0.09666 0.0
C532 C 0.86325 0.31803 0.10112 0.0
C533 C 0.844 0.34623 0.0567 0.0
C534 C 0.72757 0.5072 0.86393 0.0
C535 C 0.95627 0.44077 0.95545 0.0
O536 O 0.85203 0.52938 0.81109 0.0
O537 O 0.88132 0.44267 0.77243 0.0
O538 O 0.94803 0.37812 0.86084 0.0
O539 O 0.84924 0.34381 0.84206 0.0
O540 O 0.73706 0.41532 0.76895 0.0
O541 O 0.70727 0.35507 0.81069 0.0
O542 O 0.76147 0.31952 0.91554 0.0
O543 O 0.78268 0.40632 0.96541 0.0
O544 O 0.69366 0.46118 0.8585 0.0
O545 O 0.79405 0.49291 0.88404 0.0
O546 O 0.9145 0.40015 0.95222 0.0
O547 O 0.93521 0.47281 0.91671 0.0
H548 H 0.78243 0.5804 0.71341 0.0
H549 H 0.808 0.63849 0.6609 0.0
H550 H 1.02331 0.55629 0.71583 0.0
H551 H 0.99655 0.4949 0.76609 0.0
H552 H 0.74042 0.23957 0.96463 0.0
H553 H 0.77608 0.1901 0.04116 0.0
H554 H 0.89608 0.34101 0.13891 0.0
H555 H 0.86279 0.39024 0.06168 0.0
Nd556 Nd 0.8206 0.88938 0.81891 0.0
Nd557 Nd 0.75491 0.98281 0.87879 0.0
C558 C 0.81384 0.82542 0.73235 0.0
C559 C 0.80698 0.78854 0.68335 0.0
C560 C 0.74849 0.75303 0.65565 0.0
C561 C 0.72712 0.7327 0.6028 0.0
C562 C 0.76298 0.74847 0.5764 0.0
C563 C 0.82173 0.78395 0.60408 0.0
C564 C 0.84474 0.80262 0.65759 0.0
C565 C 0.90414 0.9068 0.92228 0.0
C566 C 0.72422 0.84315 0.87257 0.0
C567 C 0.71618 1.07051 0.93654 0.0
C568 C 0.69553 1.07544 0.97881 0.0
C569 C 0.7166 1.02972 0.01059 0.0
C570 C 0.70176 1.03811 0.05378 0.0
C571 C 0.66651 0.09265 0.06585 0.0
C572 C 0.64113 0.13596 0.03144 0.0
C573 C 0.65506 0.12716 0.98791 0.0
C574 C 0.68392 0.97027 0.77264 0.0
C575 C 0.87664 1.02534 0.85037 0.0
O576 O 0.75685 0.84603 0.73974 0.0
O577 O 0.87563 0.83283 0.77342 0.0
O578 O 0.93093 0.88522 0.88892 0.0
O579 O 0.83699 0.90682 0.90189 0.0
O580 O 0.74988 0.82945 0.83652 0.0
O581 O 0.72851 0.89841 0.89856 0.0
O582 O 0.78316 1.05309 0.94736 0.0
O583 O 0.67111 1.04481 0.8917 0.0
O584 O 0.65162 0.97558 0.80235 0.0
O585 O 0.74962 0.9725 0.79943 0.0
O586 O 0.84548 1.03247 0.88222 0.0
O587 O 0.86845 0.97584 0.81599 0.0
H588 H 0.71732 0.74316 0.67437 0.0
H589 H 0.68122 0.70585 0.58223 0.0
H590 H 0.84861 0.79842 0.58415 0.0
H591 H 0.88813 0.83222 0.67774 0.0
H592 H 0.74668 0.98877 0.00317 0.0
H593 H 0.72229 1.00367 0.07952 0.0
H594 H 0.61637 0.17899 0.04075 0.0
H595 H 0.63808 0.16241 0.96312 0.0
loop_
_geom_bond_atom_site_label_1
_geom_bond_atom_site_label_2
_geom_bond_distance
_geom_bond_site_symmetry_2
_ccdc_geom_bond_type
Cu0 N1 1.999 . S
Cu0 O6 1.974 . S
Cu0 N11 1.985 1_455 S
Cu0 O20 1.959 1_455 S
N1 Cu0 1.999 . S
N1 C3 1.263 . S
N1 C5 1.389 . S
N2 C3 1.358 . S
N2 C4 1.400 . S
C3 N1 1.263 . S
C3 N2 1.358 . S
C3 H9 0.930 . S
C4 N2 1.400 . S
C4 C5 1.351 . S
C4 H21 0.930 . S
C5 N1 1.389 . S
C5 C4 1.351 . S
C5 H10 0.930 . S
O6 Cu0 1.974 . S
O6 C16 1.282 . S
C7 O8 1.261 . S
C7 O20 1.251 . S
O8 C7 1.261 . S
H9 C3 0.930 . S
H10 C5 0.930 . S
N11 Cu0 1.985 1_655 S
N11 C13 1.335 . S
N11 C14 1.390 . S
N12 C13 1.345 . S
N12 C15 1.336 1_545 S
C13 N11 1.335 . S
C13 N12 1.345 . S
C13 H18 0.930 . S
C14 N11 1.390 . S
C14 C15 1.346 1_545 S
C14 H19 0.930 1_645 S
C15 N12 1.336 1_565 S
C15 C14 1.346 1_565 S
C15 H22 0.929 . S
C16 O6 1.282 . S
C16 O17 1.216 . S
O17 C16 1.216 . S
H18 C13 0.930 . S
H19 C14 0.930 1_465 S
O20 Cu0 1.959 1_655 S
O20 C7 1.251 . S
H21 C4 0.930 . S
H22 C15 0.929 . S
Cu23 N24 1.999 1_455 S
Cu23 O29 1.974 1_455 S
Cu23 N34 1.985 . S
Cu23 O43 1.959 . S
N24 Cu23 1.999 1_655 S
N24 C26 1.263 . S
N24 C28 1.389 . S
N25 C26 1.358 . S
N25 C27 1.400 . S
C26 N24 1.263 . S
C26 N25 1.358 . S
C26 H32 0.930 . S
C27 N25 1.400 . S
C27 C28 1.351 . S
C27 H44 0.930 1_545 S
C28 N24 1.389 . S
C28 C27 1.351 . S
C28 H33 0.930 1_655 S
O29 Cu23 1.974 1_655 S
O29 C39 1.282 . S
C30 O31 1.261 . S
C30 O43 1.251 . S
O31 C30 1.261 . S
H32 C26 0.930 . S
H33 C28 0.930 1_455 S
N34 Cu23 1.985 . S
N34 C36 1.335 . S
N34 C37 1.390 . S
N35 C36 1.345 . S
N35 C38 1.336 . S
C36 N34 1.335 . S
C36 N35 1.345 . S
C36 H41 0.930 . S
C37 N34 1.390 . S
C37 C38 1.346 . S
C37 H42 0.930 . S
C38 N35 1.336 . S
C38 C37 1.346 . S
C38 H45 0.929 . S
C39 O29 1.282 . S
C39 O40 1.216 . S
O40 C39 1.216 . S
H41 C36 0.930 . S
H42 C37 0.930 . S
O43 Cu23 1.959 . S
O43 C30 1.251 . S
H44 C27 0.930 1_565 S
H45 C38 0.929 . S
Cu46 N47 2.010 1_554 S
Cu46 O52 1.989 . S
Cu46 N57 1.975 1_565 S
Cu46 O66 1.944 1_564 S
N47 Cu46 2.010 1_556 S
N47 C49 1.263 . S
N47 C51 1.389 . S
N48 C49 1.358 . S
N48 C50 1.400 . S
C49 N47 1.263 . S
C49 N48 1.358 . S
C49 H55 0.930 . S
C50 N48 1.400 . S
C50 C51 1.351 . S
C50 H67 0.930 . S
C51 N47 1.389 . S
C51 C50 1.351 . S
C51 H56 0.930 . S
O52 Cu46 1.989 . S
O52 C62 1.282 . S
C53 O54 1.261 . S
C53 O66 1.251 . S
O54 C53 1.261 . S
H55 C49 0.930 . S
H56 C51 0.930 . S
N57 Cu46 1.975 1_545 S
N57 C59 1.335 . S
N57 C60 1.390 . S
N58 C59 1.345 . S
N58 C61 1.336 . S
C59 N57 1.335 . S
C59 N58 1.345 . S
C59 H64 0.930 . S
C60 N57 1.390 . S
C60 C61 1.346 . S
C60 H65 0.930 . S
C61 N58 1.336 . S
C61 C60 1.346 . S
C61 H68 0.929 . S
C62 O52 1.282 . S
C62 O63 1.216 . S
O63 C62 1.216 . S
H64 C59 0.930 . S
H65 C60 0.930 . S
O66 Cu46 1.944 1_546 S
O66 C53 1.251 . S
H67 C50 0.930 . S
H68 C61 0.929 . S
Cu69 N70 1.999 . S
Cu69 O75 1.974 . S
Cu69 N80 1.985 . S
Cu69 O89 1.959 . S
N70 Cu69 1.999 . S
N70 C72 1.263 . S
N70 C74 1.389 . S
N71 C72 1.358 . S
N71 C73 1.400 . S
C72 N70 1.263 . S
C72 N71 1.358 . S
C72 H78 0.930 . S
C73 N71 1.400 . S
C73 C74 1.351 . S
C73 H90 0.930 . S
C74 N70 1.389 . S
C74 C73 1.351 . S
C74 H79 0.930 . S
O75 Cu69 1.974 . S
O75 C85 1.282 . S
C76 O77 1.261 1_655 S
C76 O89 1.251 1_655 S
O77 C76 1.261 1_455 S
H78 C72 0.930 . S
H79 C74 0.930 . S
N80 Cu69 1.985 . S
N80 C82 1.335 1_455 S
N80 C83 1.390 . S
N81 C82 1.345 . S
N81 C84 1.336 1_655 S
C82 N80 1.335 1_655 S
C82 N81 1.345 . S
C82 H87 0.930 . S
C83 N80 1.390 . S
C83 C84 1.346 . S
C83 H88 0.930 . S
C84 N81 1.336 1_455 S
C84 C83 1.346 . S
C84 H91 0.929 . S
C85 O75 1.282 . S
C85 O86 1.216 . S
O86 C85 1.216 . S
H87 C82 0.930 . S
H88 C83 0.930 . S
O89 Cu69 1.959 . S
O89 C76 1.251 1_455 S
H90 C73 0.930 . S
H91 C84 0.929 . S
Cu92 N93 1.999 . S
Cu92 O98 1.974 . S
Cu92 N103 1.985 . S
Cu92 O112 1.959 . S
N93 Cu92 1.999 . S
N93 C95 1.263 . S
N93 C97 1.389 . S
N94 C95 1.358 . S
N94 C96 1.400 . S
C95 N93 1.263 . S
C95 N94 1.358 . S
C95 H101 0.930 . S
C96 N94 1.400 . S
C96 C97 1.351 . S
C96 H113 0.930 . S
C97 N93 1.389 . S
C97 C96 1.351 . S
C97 H102 0.930 . S
O98 Cu92 1.974 . S
O98 C108 1.282 . S
C99 O100 1.261 . S
C99 O112 1.251 . S
O100 C99 1.261 . S
H101 C95 0.930 . S
H102 C97 0.930 . S
N103 Cu92 1.985 . S
N103 C105 1.335 . S
N103 C106 1.390 . S
N104 C105 1.345 . S
N104 C107 1.336 . S
C105 N103 1.335 . S
C105 N104 1.345 . S
C105 H110 0.930 . S
C106 N103 1.390 . S
C106 C107 1.346 . S
C106 H111 0.930 . S
C107 N104 1.336 . S
C107 C106 1.346 . S
C107 H114 0.929 . S
C108 O98 1.282 . S
C108 O109 1.216 . S
O109 C108 1.216 . S
H110 C105 0.930 . S
H111 C106 0.930 . S
O112 Cu92 1.959 . S
O112 C99 1.251 . S
H113 C96 0.930 . S
H114 C107 0.929 . S
Cu115 N116 1.999 1_455 S
Cu115 O121 1.974 1_455 S
Cu115 N126 1.985 . S
Cu115 O135 1.959 . S
N116 Cu115 1.999 1_655 S
N116 C118 1.263 1_554 S
N116 C120 1.389 1_554 S
N117 C118 1.358 . S
N117 C119 1.400 . S
C118 N116 1.263 1_556 S
C118 N117 1.358 . S
C118 H124 0.930 1_556 S
C119 N117 1.400 . S
C119 C120 1.351 . S
C119 H136 0.930 . S
C120 N116 1.389 1_556 S
C120 C119 1.351 . S
C120 H125 0.930 . S
O121 Cu115 1.974 1_655 S
O121 C131 1.282 . S
C122 O123 1.261 . S
C122 O135 1.251 . S
O123 C122 1.261 . S
H124 C118 0.930 1_554 S
H125 C120 0.930 . S
N126 Cu115 1.985 . S
N126 C128 1.335 . S
N126 C129 1.390 . S
N127 C128 1.345 . S
N127 C130 1.336 . S
C128 N126 1.335 . S
C128 N127 1.345 . S
C128 H133 0.930 . S
C129 N126 1.390 . S
C129 C130 1.346 . S
C129 H134 0.930 . S
C130 N127 1.336 . S
C130 C129 1.346 . S
C130 H137 0.929 . S
C131 O121 1.282 . S
C131 O132 1.216 . S
O132 C131 1.216 . S
H133 C128 0.930 . S
H134 C129 0.930 . S
O135 Cu115 1.959 . S
O135 C122 1.251 . S
H136 C119 0.930 . S
H137 C130 0.929 . S
Cu138 N139 1.999 . S
Cu138 O144 1.974 . S
Cu138 N149 1.985 . S
Cu138 O158 1.959 . S
N139 Cu138 1.999 . S
N139 C141 1.263 . S
N139 C143 1.389 . S
N140 C141 1.358 . S
N140 C142 1.400 . S
C141 N139 1.263 . S
C141 N140 1.358 . S
C141 H147 0.930 . S
C142 N140 1.400 . S
C142 C143 1.351 . S
C142 H159 0.930 . S
C143 N139 1.389 . S
C143 C142 1.351 . S
C143 H148 0.930 . S
O144 Cu138 1.974 . S
O144 C154 1.282 . S
C145 O146 1.261 . S
C145 O158 1.251 . S
O146 C145 1.261 . S
H147 C141 0.930 . S
H148 C143 0.930 . S
N149 Cu138 1.985 . S
N149 C151 1.335 . S
N149 C152 1.390 . S
N150 C151 1.345 . S
N150 C153 1.336 . S
C151 N149 1.335 . S
C151 N150 1.345 . S
C151 H156 0.930 . S
C152 N149 1.390 . S
C152 C153 1.346 . S
C152 H157 0.930 . S
C153 N150 1.336 . S
C153 C152 1.346 . S
C153 H160 0.929 . S
C154 O144 1.282 . S
C154 O155 1.216 . S
O155 C154 1.216 . S
H156 C151 0.930 . S
H157 C152 0.930 . S
O158 Cu138 1.959 . S
O158 C145 1.251 . S
H159 C142 0.930 . S
H160 C153 0.929 . S
Cu161 N162 1.999 . S
Cu161 O167 1.974 . S
Cu161 N172 1.985 . S
Cu161 O181 1.959 . S
N162 Cu161 1.999 . S
N162 C164 1.263 . S
N162 C166 1.389 . S
N163 C164 1.358 . S
N163 C165 1.400 . S
C164 N162 1.263 . S
C164 N163 1.358 . S
C164 H170 0.930 . S
C165 N163 1.400 . S
C165 C166 1.351 . S
C165 H182 0.930 . S
C166 N162 1.389 . S
C166 C165 1.351 . S
C166 H171 0.930 . S
O167 Cu161 1.974 . S
O167 C177 1.282 . S
C168 O169 1.261 . S
C168 O181 1.251 . S
O169 C168 1.261 . S
H170 C164 0.930 . S
H171 C166 0.930 . S
N172 Cu161 1.985 . S
N172 C174 1.335 . S
N172 C175 1.390 . S
N173 C174 1.345 . S
N173 C176 1.336 . S
C174 N172 1.335 . S
C174 N173 1.345 . S
C174 H179 0.930 . S
C175 N172 1.390 . S
C175 C176 1.346 . S
C175 H180 0.930 . S
C176 N173 1.336 . S
C176 C175 1.346 . S
C176 H183 0.929 . S
C177 O167 1.282 . S
C177 O178 1.216 . S
O178 C177 1.216 . S
H179 C174 0.930 . S
H180 C175 0.930 . S
O181 Cu161 1.959 . S
O181 C168 1.251 . S
H182 C165 0.930 . S
H183 C176 0.929 . S
Cu184 N185 1.999 . S
Cu184 O190 1.974 . S
Cu184 N195 1.985 . S
Cu184 O204 1.959 . S
N185 Cu184 1.999 . S
N185 C187 1.263 . S
N185 C189 1.389 . S
N186 C187 1.358 . S
N186 C188 1.400 . S
C187 N185 1.263 . S
C187 N186 1.358 . S
C187 H193 0.930 . S
C188 N186 1.400 . S
C188 C189 1.351 . S
C188 H205 0.930 . S
C189 N185 1.389 . S
C189 C188 1.351 . S
C189 H194 0.930 . S
O190 Cu184 1.974 . S
O190 C200 1.282 . S
C191 O192 1.261 . S
C191 O204 1.251 . S
O192 C191 1.261 . S
H193 C187 0.930 . S
H194 C189 0.930 . S
N195 Cu184 1.985 . S
N195 C197 1.335 . S
N195 C198 1.390 . S
N196 C197 1.345 . S
N196 C199 1.336 . S
C197 N195 1.335 . S
C197 N196 1.345 . S
C197 H202 0.930 . S
C198 N195 1.390 . S
C198 C199 1.346 . S
C198 H203 0.930 . S
C199 N196 1.336 . S
C199 C198 1.346 . S
C199 H206 0.929 . S
C200 O190 1.282 . S
C200 O201 1.216 . S
O201 C200 1.216 . S
H202 C197 0.930 . S
H203 C198 0.930 . S
O204 Cu184 1.959 . S
O204 C191 1.251 . S
H205 C188 0.930 . S
H206 C199 0.929 . S
Cu207 N208 1.999 . S
Cu207 O213 1.974 . S
Cu207 N218 1.985 . S
Cu207 O227 1.959 . S
N208 Cu207 1.999 . S
N208 C210 1.263 . S
N208 C212 1.389 . S
N209 C210 1.358 . S
N209 C211 1.400 . S
C210 N208 1.263 . S
C210 N209 1.358 . S
C210 H216 0.930 1_545 S
C211 N209 1.400 . S
C211 C212 1.351 . S
C211 H228 0.930 . S
C212 N208 1.389 . S
C212 C211 1.351 . S
C212 H217 0.930 . S
O213 Cu207 1.974 . S
O213 C223 1.282 1_545 S
C214 O215 1.261 . S
C214 O227 1.251 1_565 S
O215 C214 1.261 . S
H216 C210 0.930 1_565 S
H217 C212 0.930 . S
N218 Cu207 1.985 . S
N218 C220 1.335 . S
N218 C221 1.390 1_545 S
N219 C220 1.345 . S
N219 C222 1.336 1_545 S
C220 N218 1.335 . S
C220 N219 1.345 . S
C220 H225 0.930 . S
C221 N218 1.390 1_565 S
C221 C222 1.346 . S
C221 H226 0.930 . S
C222 N219 1.336 1_565 S
C222 C221 1.346 . S
C222 H229 0.929 . S
C223 O213 1.282 1_565 S
C223 O224 1.216 . S
O224 C223 1.216 . S
H225 C220 0.930 . S
H226 C221 0.930 . S
O227 Cu207 1.959 . S
O227 C214 1.251 1_545 S
H228 C211 0.930 . S
H229 C222 0.929 . S
Cu230 N231 1.999 . S
Cu230 O236 1.974 . S
Cu230 N241 1.985 . S
Cu230 O250 1.959 . S
N231 Cu230 1.999 . S
N231 C233 1.263 . S
N231 C235 1.389 . S
N232 C233 1.358 . S
N232 C234 1.400 . S
C233 N231 1.263 . S
C233 N232 1.358 . S
C233 H239 0.930 . S
C234 N232 1.400 . S
C234 C235 1.351 . S
C234 H251 0.930 . S
C235 N231 1.389 . S
C235 C234 1.351 . S
C235 H240 0.930 . S
O236 Cu230 1.974 . S
O236 C246 1.282 . S
C237 O238 1.261 . S
C237 O250 1.251 . S
O238 C237 1.261 . S
H239 C233 0.930 . S
H240 C235 0.930 . S
N241 Cu230 1.985 . S
N241 C243 1.335 . S
N241 C244 1.390 . S
N242 C243 1.345 . S
N242 C245 1.336 . S
C243 N241 1.335 . S
C243 N242 1.345 . S
C243 H248 0.930 . S
C244 N241 1.390 . S
C244 C245 1.346 . S
C244 H249 0.930 . S
C245 N242 1.336 . S
C245 C244 1.346 . S
C245 H252 0.929 . S
C246 O236 1.282 . S
C246 O247 1.216 . S
O247 C246 1.216 . S
H248 C243 0.930 . S
H249 C244 0.930 . S
O250 Cu230 1.959 . S
O250 C237 1.251 . S
H251 C234 0.930 . S
H252 C245 0.929 . S
Cu253 N254 1.999 . S
Cu253 O259 1.974 . S
Cu253 N264 1.985 . S
Cu253 O273 1.959 . S
N254 Cu253 1.999 . S
N254 C256 1.263 . S
N254 C258 1.389 . S
N255 C256 1.358 . S
N255 C257 1.400 . S
C256 N254 1.263 . S
C256 N255 1.358 . S
C256 H262 0.930 . S
C257 N255 1.400 . S
C257 C258 1.351 . S
C257 H274 0.930 . S
C258 N254 1.389 . S
C258 C257 1.351 . S
C258 H263 0.930 . S
O259 Cu253 1.974 . S
O259 C269 1.282 . S
C260 O261 1.261 . S
C260 O273 1.251 . S
O261 C260 1.261 . S
H262 C256 0.930 . S
H263 C258 0.930 . S
N264 Cu253 1.985 . S
N264 C266 1.335 . S
N264 C267 1.390 . S
N265 C266 1.345 . S
N265 C268 1.336 . S
C266 N264 1.335 . S
C266 N265 1.345 . S
C266 H271 0.930 . S
C267 N264 1.390 . S
C267 C268 1.346 . S
C267 H272 0.930 . S
C268 N265 1.336 . S
C268 C267 1.346 . S
C268 H275 0.929 . S
C269 O259 1.282 . S
C269 O270 1.216 . S
O270 C269 1.216 . S
H271 C266 0.930 . S
H272 C267 0.930 . S
O273 Cu253 1.959 . S
O273 C260 1.251 . S
H274 C257 0.930 . S
H275 C268 0.929 . S
Nd276 C278 2.836 . S
Nd276 O296 2.500 . S
Nd276 O297 2.492 . S
Nd276 O298 2.487 . S
Nd276 O299 2.682 . S
Nd276 O300 2.410 . S
Nd276 O305 2.414 . S
Nd276 O307 2.424 . S
Nd277 C287 2.836 . S
Nd277 O299 2.414 . S
Nd277 O301 2.424 . S
Nd277 O302 2.500 . S
Nd277 O303 2.492 . S
Nd277 O304 2.487 . S
Nd277 O305 2.682 . S
Nd277 O306 2.410 . S
C278 Nd276 2.836 . S
C278 C279 1.498 . S
C278 O296 1.258 . S
C278 O297 1.239 . S
C279 C278 1.498 . S
C279 C280 1.366 . S
C279 C284 1.407 . S
C280 C279 1.366 . S
C280 C281 1.392 . S
C280 H308 0.930 . S
C281 C280 1.392 . S
C281 C282 1.398 . S
C281 H309 0.929 . S
C282 C281 1.398 . S
C282 C283 1.352 . S
C283 C282 1.352 . S
C283 C284 1.384 . S
C283 H310 0.930 . S
C284 C279 1.407 . S
C284 C283 1.384 . S
C284 H311 0.929 . S
C285 O298 1.241 . S
C285 O299 1.273 . S
C286 O300 1.251 . S
C286 O301 1.268 . S
C287 Nd277 2.836 . S
C287 C288 1.498 . S
C287 O302 1.258 . S
C287 O303 1.239 . S
C288 C287 1.498 . S
C288 C289 1.366 . S
C288 C293 1.407 . S
C289 C288 1.366 . S
C289 C290 1.392 . S
C289 H312 0.930 . S
C290 C289 1.392 . S
C290 C291 1.398 . S
C290 H313 0.929 . S
C291 C290 1.398 . S
C291 C292 1.352 . S
C292 C291 1.352 . S
C292 C293 1.384 . S
C292 H314 0.930 . S
C293 C288 1.407 . S
C293 C292 1.384 . S
C293 H315 0.929 . S
C294 O304 1.241 . S
C294 O305 1.273 . S
C295 O306 1.251 . S
C295 O307 1.268 . S
O296 Nd276 2.500 . S
O296 C278 1.258 . S
O297 Nd276 2.492 . S
O297 C278 1.239 . S
O298 Nd276 2.487 . S
O298 C285 1.241 . S
O299 Nd276 2.682 . S
O299 Nd277 2.414 . S
O299 C285 1.273 . S
O300 Nd276 2.410 . S
O300 C286 1.251 . S
O301 Nd277 2.424 . S
O301 C286 1.268 . S
O302 Nd277 2.500 . S
O302 C287 1.258 . S
O303 Nd277 2.492 . S
O303 C287 1.239 . S
O304 Nd277 2.487 . S
O304 C294 1.241 . S
O305 Nd276 2.414 . S
O305 Nd277 2.682 . S
O305 C294 1.273 . S
O306 Nd277 2.410 . S
O306 C295 1.251 . S
O307 Nd276 2.424 . S
O307 C295 1.268 . S
H308 C280 0.930 . S
H309 C281 0.929 . S
H310 C283 0.930 . S
H311 C284 0.929 . S
H312 C289 0.930 . S
H313 C290 0.929 . S
H314 C292 0.930 . S
H315 C293 0.929 . S
Nd316 C318 2.836 . S
Nd316 O336 2.500 . S
Nd316 O337 2.492 . S
Nd316 O338 2.487 . S
Nd316 O339 2.682 . S
Nd316 O340 2.410 . S
Nd316 O345 2.414 . S
Nd316 O347 2.424 . S
Nd317 C327 2.836 . S
Nd317 O339 2.414 . S
Nd317 O341 2.424 . S
Nd317 O342 2.500 . S
Nd317 O343 2.492 . S
Nd317 O344 2.487 . S
Nd317 O345 2.682 . S
Nd317 O346 2.410 . S
C318 Nd316 2.836 . S
C318 C319 1.498 . S
C318 O336 1.258 . S
C318 O337 1.239 . S
C319 C318 1.498 . S
C319 C320 1.366 . S
C319 C324 1.407 . S
C320 C319 1.366 . S
C320 C321 1.392 . S
C320 H348 0.930 . S
C321 C320 1.392 . S
C321 C322 1.398 . S
C321 H349 0.929 . S
C322 C321 1.398 . S
C322 C323 1.352 . S
C323 C322 1.352 . S
C323 C324 1.384 . S
C323 H350 0.930 . S
C324 C319 1.407 . S
C324 C323 1.384 . S
C324 H351 0.929 . S
C325 O338 1.241 . S
C325 O339 1.273 . S
C326 O340 1.251 . S
C326 O341 1.268 . S
C327 Nd317 2.836 . S
C327 C328 1.498 . S
C327 O342 1.258 . S
C327 O343 1.239 . S
C328 C327 1.498 . S
C328 C329 1.366 . S
C328 C333 1.407 . S
C329 C328 1.366 . S
C329 C330 1.392 . S
C329 H352 0.930 . S
C330 C329 1.392 . S
C330 C331 1.398 . S
C330 H353 0.929 . S
C331 C330 1.398 . S
C331 C332 1.352 . S
C332 C331 1.352 . S
C332 C333 1.384 . S
C332 H354 0.930 . S
C333 C328 1.407 . S
C333 C332 1.384 . S
C333 H355 0.929 . S
C334 O344 1.241 . S
C334 O345 1.273 . S
C335 O346 1.251 . S
C335 O347 1.268 . S
O336 Nd316 2.500 . S
O336 C318 1.258 . S
O337 Nd316 2.492 . S
O337 C318 1.239 . S
O338 Nd316 2.487 . S
O338 C325 1.241 . S
O339 Nd316 2.682 . S
O339 Nd317 2.414 . S
O339 C325 1.273 . S
O340 Nd316 2.410 . S
O340 C326 1.251 . S
O341 Nd317 2.424 . S
O341 C326 1.268 . S
O342 Nd317 2.500 . S
O342 C327 1.258 . S
O343 Nd317 2.492 . S
O343 C327 1.239 . S
O344 Nd317 2.487 . S
O344 C334 1.241 . S
O345 Nd316 2.414 . S
O345 Nd317 2.682 . S
O345 C334 1.273 . S
O346 Nd317 2.410 . S
O346 C335 1.251 . S
O347 Nd316 2.424 . S
O347 C335 1.268 . S
H348 C320 0.930 . S
H349 C321 0.929 . S
H350 C323 0.930 . S
H351 C324 0.929 . S
H352 C329 0.930 . S
H353 C330 0.929 . S
H354 C332 0.930 . S
H355 C333 0.929 . S
Nd356 C358 2.836 . S
Nd356 O376 2.500 . S
Nd356 O377 2.492 . S
Nd356 O378 2.487 . S
Nd356 O379 2.682 . S
Nd356 O380 2.410 . S
Nd356 O385 2.414 . S
Nd356 O387 2.424 . S
Nd357 C367 2.836 . S
Nd357 O379 2.414 . S
Nd357 O381 2.424 . S
Nd357 O382 2.500 . S
Nd357 O383 2.492 . S
Nd357 O384 2.487 . S
Nd357 O385 2.682 . S
Nd357 O386 2.410 . S
C358 Nd356 2.836 . S
C358 C359 1.498 . S
C358 O376 1.258 . S
C358 O377 1.239 . S
C359 C358 1.498 . S
C359 C360 1.366 . S
C359 C364 1.407 . S
C360 C359 1.366 . S
C360 C361 1.392 . S
C360 H388 0.930 . S
C361 C360 1.392 . S
C361 C362 1.398 . S
C361 H389 0.929 . S
C362 C361 1.398 . S
C362 C363 1.352 . S
C363 C362 1.352 . S
C363 C364 1.384 . S
C363 H390 0.930 1_565 S
C364 C359 1.407 . S
C364 C363 1.384 . S
C364 H391 0.929 1_565 S
C365 O378 1.241 . S
C365 O379 1.273 . S
C366 O380 1.251 . S
C366 O381 1.268 . S
C367 Nd357 2.836 . S
C367 C368 1.498 . S
C367 O382 1.258 . S
C367 O383 1.239 . S
C368 C367 1.498 . S
C368 C369 1.366 . S
C368 C373 1.407 . S
C369 C368 1.366 . S
C369 C370 1.392 . S
C369 H392 0.930 . S
C370 C369 1.392 . S
C370 C371 1.398 . S
C370 H393 0.929 . S
C371 C370 1.398 . S
C371 C372 1.352 . S
C372 C371 1.352 . S
C372 C373 1.384 . S
C372 H394 0.930 . S
C373 C368 1.407 . S
C373 C372 1.384 . S
C373 H395 0.929 . S
C374 O384 1.241 . S
C374 O385 1.273 . S
C375 O386 1.251 . S
C375 O387 1.268 . S
O376 Nd356 2.500 . S
O376 C358 1.258 . S
O377 Nd356 2.492 . S
O377 C358 1.239 . S
O378 Nd356 2.487 . S
O378 C365 1.241 . S
O379 Nd356 2.682 . S
O379 Nd357 2.414 . S
O379 C365 1.273 . S
O380 Nd356 2.410 . S
O380 C366 1.251 . S
O381 Nd357 2.424 . S
O381 C366 1.268 . S
O382 Nd357 2.500 . S
O382 C367 1.258 . S
O383 Nd357 2.492 . S
O383 C367 1.239 . S
O384 Nd357 2.487 . S
O384 C374 1.241 . S
O385 Nd356 2.414 . S
O385 Nd357 2.682 . S
O385 C374 1.273 . S
O386 Nd357 2.410 . S
O386 C375 1.251 . S
O387 Nd356 2.424 . S
O387 C375 1.268 . S
H388 C360 0.930 . S
H389 C361 0.929 . S
H390 C363 0.930 1_545 S
H391 C364 0.929 1_545 S
H392 C369 0.930 . S
H393 C370 0.929 . S
H394 C372 0.930 . S
H395 C373 0.929 . S
Nd396 C398 2.836 . S
Nd396 O416 2.500 . S
Nd396 O417 2.492 . S
Nd396 O418 2.487 . S
Nd396 O419 2.682 . S
Nd396 O420 2.410 . S
Nd396 O425 2.414 . S
Nd396 O427 2.424 . S
Nd397 C407 2.836 . S
Nd397 O419 2.414 . S
Nd397 O421 2.424 . S
Nd397 O422 2.500 . S
Nd397 O423 2.492 . S
Nd397 O424 2.487 . S
Nd397 O425 2.682 . S
Nd397 O426 2.410 . S
C398 Nd396 2.836 . S
C398 C399 1.498 . S
C398 O416 1.258 . S
C398 O417 1.239 . S
C399 C398 1.498 . S
C399 C400 1.366 . S
C399 C404 1.407 . S
C400 C399 1.366 . S
C400 C401 1.392 . S
C400 H428 0.930 . S
C401 C400 1.392 . S
C401 C402 1.398 . S
C401 H429 0.929 . S
C402 C401 1.398 . S
C402 C403 1.352 . S
C403 C402 1.352 . S
C403 C404 1.384 . S
C403 H430 0.930 . S
C404 C399 1.407 . S
C404 C403 1.384 . S
C404 H431 0.929 . S
C405 O418 1.241 . S
C405 O419 1.273 . S
C406 O420 1.251 . S
C406 O421 1.268 . S
C407 Nd397 2.836 . S
C407 C408 1.498 . S
C407 O422 1.258 . S
C407 O423 1.239 . S
C408 C407 1.498 . S
C408 C409 1.366 . S
C408 C413 1.407 . S
C409 C408 1.366 . S
C409 C410 1.392 . S
C409 H432 0.930 . S
C410 C409 1.392 . S
C410 C411 1.398 . S
C410 H433 0.929 . S
C411 C410 1.398 . S
C411 C412 1.352 . S
C412 C411 1.352 . S
C412 C413 1.384 . S
C412 H434 0.930 . S
C413 C408 1.407 . S
C413 C412 1.384 . S
C413 H435 0.929 . S
C414 O424 1.241 . S
C414 O425 1.273 . S
C415 O426 1.251 . S
C415 O427 1.268 . S
O416 Nd396 2.500 . S
O416 C398 1.258 . S
O417 Nd396 2.492 . S
O417 C398 1.239 . S
O418 Nd396 2.487 . S
O418 C405 1.241 . S
O419 Nd396 2.682 . S
O419 Nd397 2.414 . S
O419 C405 1.273 . S
O420 Nd396 2.410 . S
O420 C406 1.251 . S
O421 Nd397 2.424 . S
O421 C406 1.268 . S
O422 Nd397 2.500 . S
O422 C407 1.258 . S
O423 Nd397 2.492 . S
O423 C407 1.239 . S
O424 Nd397 2.487 . S
O424 C414 1.241 . S
O425 Nd396 2.414 . S
O425 Nd397 2.682 . S
O425 C414 1.273 . S
O426 Nd397 2.410 . S
O426 C415 1.251 . S
O427 Nd396 2.424 . S
O427 C415 1.268 . S
H428 C400 0.930 . S
H429 C401 0.929 . S
H430 C403 0.930 . S
H431 C404 0.929 . S
H432 C409 0.930 . S
H433 C410 0.929 . S
H434 C412 0.930 . S
H435 C413 0.929 . S
Nd436 C438 2.836 . S
Nd436 O456 2.500 . S
Nd436 O457 2.492 . S
Nd436 O458 2.487 . S
Nd436 O459 2.682 . S
Nd436 O460 2.410 . S
Nd436 O465 2.414 . S
Nd436 O467 2.424 . S
Nd437 C447 2.836 . S
Nd437 O459 2.414 . S
Nd437 O461 2.424 . S
Nd437 O462 2.500 . S
Nd437 O463 2.492 . S
Nd437 O464 2.487 . S
Nd437 O465 2.682 . S
Nd437 O466 2.410 . S
C438 Nd436 2.836 . S
C438 C439 1.498 . S
C438 O456 1.258 . S
C438 O457 1.239 . S
C439 C438 1.498 . S
C439 C440 1.369 . S
C439 C444 1.407 . S
C440 C439 1.369 . S
C440 C441 1.390 1_455 S
C440 H468 0.930 1_455 S
C441 C440 1.390 1_655 S
C441 C442 1.398 . S
C441 H469 0.929 . S
C442 C441 1.398 . S
C442 C443 1.352 1_655 S
C443 C442 1.352 1_455 S
C443 C444 1.384 . S
C443 H470 0.930 . S
C444 C439 1.407 . S
C444 C443 1.384 . S
C444 H471 0.929 . S
C445 O458 1.241 . S
C445 O459 1.273 . S
C446 O460 1.251 . S
C446 O461 1.268 . S
C447 Nd437 2.836 . S
C447 C448 1.498 . S
C447 O462 1.258 . S
C447 O463 1.239 . S
C448 C447 1.498 . S
C448 C449 1.366 . S
C448 C453 1.407 . S
C449 C448 1.366 . S
C449 C450 1.392 . S
C449 H472 0.930 . S
C450 C449 1.392 . S
C450 C451 1.398 . S
C450 H473 0.929 . S
C451 C450 1.398 . S
C451 C452 1.352 . S
C452 C451 1.352 . S
C452 C453 1.384 . S
C452 H474 0.930 1_565 S
C453 C448 1.407 . S
C453 C452 1.384 . S
C453 H475 0.941 . S
C454 O464 1.241 . S
C454 O465 1.273 . S
C455 O466 1.251 . S
C455 O467 1.268 . S
O456 Nd436 2.500 . S
O456 C438 1.258 . S
O457 Nd436 2.492 . S
O457 C438 1.239 . S
O458 Nd436 2.487 . S
O458 C445 1.241 . S
O459 Nd436 2.682 . S
O459 Nd437 2.414 . S
O459 C445 1.273 . S
O460 Nd436 2.410 . S
O460 C446 1.251 . S
O461 Nd437 2.424 . S
O461 C446 1.268 . S
O462 Nd437 2.500 . S
O462 C447 1.258 . S
O463 Nd437 2.492 . S
O463 C447 1.239 . S
O464 Nd437 2.487 . S
O464 C454 1.241 . S
O465 Nd436 2.414 . S
O465 Nd437 2.682 . S
O465 C454 1.273 . S
O466 Nd437 2.410 . S
O466 C455 1.251 . S
O467 Nd436 2.424 . S
O467 C455 1.268 . S
H468 C440 0.930 1_655 S
H469 C441 0.929 . S
H470 C443 0.930 . S
H471 C444 0.929 . S
H472 C449 0.930 . S
H473 C450 0.929 . S
H474 C452 0.930 1_545 S
H475 C453 0.941 . S
Nd476 C478 2.836 . S
Nd476 O496 2.500 . S
Nd476 O497 2.492 . S
Nd476 O498 2.487 . S
Nd476 O499 2.682 . S
Nd476 O500 2.410 . S
Nd476 O505 2.414 . S
Nd476 O507 2.424 . S
Nd477 C487 2.836 . S
Nd477 O499 2.414 . S
Nd477 O501 2.424 . S
Nd477 O502 2.500 1_556 S
Nd477 O503 2.492 . S
Nd477 O504 2.487 . S
Nd477 O505 2.682 . S
Nd477 O506 2.410 . S
C478 Nd476 2.836 . S
C478 C479 1.498 . S
C478 O496 1.258 . S
C478 O497 1.239 . S
C479 C478 1.498 . S
C479 C480 1.366 . S
C479 C484 1.407 . S
C480 C479 1.366 . S
C480 C481 1.392 . S
C480 H508 0.930 . S
C481 C480 1.392 . S
C481 C482 1.398 . S
C481 H509 0.929 . S
C482 C481 1.398 . S
C482 C483 1.352 . S
C483 C482 1.352 . S
C483 C484 1.384 . S
C483 H510 0.930 . S
C484 C479 1.407 . S
C484 C483 1.384 . S
C484 H511 0.929 . S
C485 O498 1.241 . S
C485 O499 1.273 . S
C486 O500 1.251 . S
C486 O501 1.268 . S
C487 Nd477 2.836 . S
C487 C488 1.487 1_556 S
C487 O502 1.258 1_556 S
C487 O503 1.239 . S
C488 C487 1.487 1_554 S
C488 C489 1.384 . S
C488 C493 1.401 1_554 S
C489 C488 1.384 . S
C489 C490 1.392 . S
C489 H512 0.930 . S
C490 C489 1.392 . S
C490 C491 1.398 . S
C490 H513 0.929 . S
C491 C490 1.398 . S
C491 C492 1.352 . S
C492 C491 1.352 . S
C492 C493 1.384 1_554 S
C492 H514 0.930 . S
C493 C488 1.401 1_556 S
C493 C492 1.384 1_556 S
C493 H515 0.929 . S
C494 O504 1.241 . S
C494 O505 1.273 . S
C495 O506 1.251 . S
C495 O507 1.268 . S
O496 Nd476 2.500 . S
O496 C478 1.258 . S
O497 Nd476 2.492 . S
O497 C478 1.239 . S
O498 Nd476 2.487 . S
O498 C485 1.241 . S
O499 Nd476 2.682 . S
O499 Nd477 2.414 . S
O499 C485 1.273 . S
O500 Nd476 2.410 . S
O500 C486 1.251 . S
O501 Nd477 2.424 . S
O501 C486 1.268 . S
O502 Nd477 2.500 1_554 S
O502 C487 1.258 1_554 S
O503 Nd477 2.492 . S
O503 C487 1.239 . S
O504 Nd477 2.487 . S
O504 C494 1.241 . S
O505 Nd476 2.414 . S
O505 Nd477 2.682 . S
O505 C494 1.273 . S
O506 Nd477 2.410 . S
O506 C495 1.251 . S
O507 Nd476 2.424 . S
O507 C495 1.268 . S
H508 C480 0.930 . S
H509 C481 0.929 . S
H510 C483 0.930 . S
H511 C484 0.929 . S
H512 C489 0.930 . S
H513 C490 0.929 . S
H514 C492 0.930 . S
H515 C493 0.929 . S
Nd516 C518 2.836 . S
Nd516 O536 2.500 . S
Nd516 O537 2.492 . S
Nd516 O538 2.487 . S
Nd516 O539 2.682 . S
Nd516 O540 2.410 . S
Nd516 O545 2.414 . S
Nd516 O547 2.424 . S
Nd517 C527 2.836 1_556 S
Nd517 O539 2.414 . S
Nd517 O541 2.424 . S
Nd517 O542 2.500 . S
Nd517 O543 2.492 . S
Nd517 O544 2.487 . S
Nd517 O545 2.682 . S
Nd517 O546 2.410 . S
C518 Nd516 2.836 . S
C518 C519 1.498 . S
C518 O536 1.258 . S
C518 O537 1.239 . S
C519 C518 1.498 . S
C519 C520 1.366 . S
C519 C524 1.407 . S
C520 C519 1.366 . S
C520 C521 1.392 . S
C520 H548 0.930 . S
C521 C520 1.392 . S
C521 C522 1.398 . S
C521 H549 0.929 . S
C522 C521 1.398 . S
C522 C523 1.352 . S
C523 C522 1.352 . S
C523 C524 1.384 . S
C523 H550 0.930 . S
C524 C519 1.407 . S
C524 C523 1.384 . S
C524 H551 0.929 . S
C525 O538 1.241 . S
C525 O539 1.273 . S
C526 O540 1.251 . S
C526 O541 1.268 . S
C527 Nd517 2.836 1_554 S
C527 C528 1.498 . S
C527 O542 1.258 1_554 S
C527 O543 1.239 1_554 S
C528 C527 1.498 . S
C528 C529 1.366 . S
C528 C533 1.407 . S
C529 C528 1.366 . S
C529 C530 1.392 . S
C529 H552 0.930 . S
C530 C529 1.392 . S
C530 C531 1.398 . S
C530 H553 0.929 . S
C531 C530 1.398 . S
C531 C532 1.352 . S
C532 C531 1.352 . S
C532 C533 1.384 . S
C532 H554 0.930 . S
C533 C528 1.407 . S
C533 C532 1.384 . S
C533 H555 0.929 . S
C534 O544 1.241 . S
C534 O545 1.273 . S
C535 O546 1.251 . S
C535 O547 1.268 . S
O536 Nd516 2.500 . S
O536 C518 1.258 . S
O537 Nd516 2.492 . S
O537 C518 1.239 . S
O538 Nd516 2.487 . S
O538 C525 1.241 . S
O539 Nd516 2.682 . S
O539 Nd517 2.414 . S
O539 C525 1.273 . S
O540 Nd516 2.410 . S
O540 C526 1.251 . S
O541 Nd517 2.424 . S
O541 C526 1.268 . S
O542 Nd517 2.500 . S
O542 C527 1.258 1_556 S
O543 Nd517 2.492 . S
O543 C527 1.239 1_556 S
O544 Nd517 2.487 . S
O544 C534 1.241 . S
O545 Nd516 2.414 . S
O545 Nd517 2.682 . S
O545 C534 1.273 . S
O546 Nd517 2.410 . S
O546 C535 1.251 . S
O547 Nd516 2.424 . S
O547 C535 1.268 . S
H548 C520 0.930 . S
H549 C521 0.929 . S
H550 C523 0.930 . S
H551 C524 0.929 . S
H552 C529 0.930 . S
H553 C530 0.929 . S
H554 C532 0.930 . S
H555 C533 0.929 . S
Nd556 C558 2.836 . S
Nd556 O576 2.500 . S
Nd556 O577 2.492 . S
Nd556 O578 2.487 . S
Nd556 O579 2.682 . S
Nd556 O580 2.410 . S
Nd556 O585 2.414 . S
Nd556 O587 2.424 . S
Nd557 C567 2.830 1_565 S
Nd557 O579 2.414 . S
Nd557 O581 2.424 . S
Nd557 O582 2.500 . S
Nd557 O583 2.492 1_565 S
Nd557 O584 2.487 . S
Nd557 O585 2.682 . S
Nd557 O586 2.410 . S
C558 Nd556 2.836 . S
C558 C559 1.498 . S
C558 O576 1.258 . S
C558 O577 1.239 . S
C559 C558 1.498 . S
C559 C560 1.366 . S
C559 C564 1.407 . S
C560 C559 1.366 . S
C560 C561 1.392 . S
C560 H588 0.930 . S
C561 C560 1.392 . S
C561 C562 1.398 . S
C561 H589 0.929 . S
C562 C561 1.398 . S
C562 C563 1.352 . S
C563 C562 1.352 . S
C563 C564 1.384 . S
C563 H590 0.930 . S
C564 C559 1.407 . S
C564 C563 1.384 . S
C564 H591 0.929 . S
C565 O578 1.241 . S
C565 O579 1.273 . S
C566 O580 1.251 . S
C566 O581 1.268 . S
C567 Nd557 2.830 1_545 S
C567 C568 1.504 1_556 S
C567 O582 1.251 1_545 S
C567 O583 1.240 . S
C568 C567 1.504 1_554 S
C568 C569 1.366 . S
C568 C573 1.407 . S
C569 C568 1.366 . S
C569 C570 1.392 . S
C569 H592 0.930 . S
C570 C569 1.392 . S
C570 C571 1.398 . S
C570 H593 0.929 . S
C571 C570 1.398 . S
C571 C572 1.352 . S
C572 C571 1.352 . S
C572 C573 1.384 . S
C572 H594 0.930 . S
C573 C568 1.407 . S
C573 C572 1.384 . S
C573 H595 0.929 1_554 S
C574 O584 1.241 . S
C574 O585 1.273 . S
C575 O586 1.251 . S
C575 O587 1.268 . S
O576 Nd556 2.500 . S
O576 C558 1.258 . S
O577 Nd556 2.492 . S
O577 C558 1.239 . S
O578 Nd556 2.487 . S
O578 C565 1.241 . S
O579 Nd556 2.682 . S
O579 Nd557 2.414 . S
O579 C565 1.273 . S
O580 Nd556 2.410 . S
O580 C566 1.251 . S
O581 Nd557 2.424 . S
O581 C566 1.268 . S
O582 Nd557 2.500 . S
O582 C567 1.251 1_565 S
O583 Nd557 2.492 1_545 S
O583 C567 1.240 . S
O584 Nd557 2.487 . S
O584 C574 1.241 . S
O585 Nd556 2.414 . S
O585 Nd557 2.682 . S
O585 C574 1.273 . S
O586 Nd557 2.410 . S
O586 C575 1.251 . S
O587 Nd556 2.424 . S
O587 C575 1.268 . S
H588 C560 0.930 . S
H589 C561 0.929 . S
H590 C563 0.930 . S
H591 C564 0.929 . S
H592 C569 0.930 . S
H593 C570 0.929 . S
H594 C572 0.930 . S
H595 C573 0.929 1_556 S
C286 N2 3.238 . S
C325 C7 3.917 . S
C375 N12 3.021 1_565 S
C16 C414 3.095 1_545 S
C454 C30 3.603 1_565 S
C495 N35 2.311 . S
C39 C525 3.052 . S
C575 N25 2.942 1_565 S
C282 N58 2.369 . S
N81 C331 2.711 . S
C365 N104 2.714 1_565 S
N127 C406 3.113 . S
C446 N48 1.242 . S
C485 N71 3.868 1_556 S
N94 C531 1.966 . S
C565 N117 3.420 . S
C85 C294 3.519 . S
C122 C442 2.547 1_454 S
C53 C491 4.189 1_556 S
C535 C76 2.979 1_556 S
C571 C99 3.313 . S
C371 C131 1.438 . S
C402 C62 2.071 . S
C108 C335 2.588 . S
C566 N140 3.424 . S
C145 C445 3.709 . S
C486 N150 2.713 . S
C154 C534 3.410 . S
C334 C168 3.902 . S
N173 C366 2.886 . S
C405 C177 3.132 . S
C295 N163 3.208 . S
C562 C200 3.409 . S
C451 N219 2.280 1_565 S
N242 C482 2.339 . S
C526 C269 3.165 . S
C326 C191 2.047 . S
N209 C362 2.124 1_545 S
N232 C411 1.780 . S
C260 C285 3.757 . S
C223 C574 2.565 . S
N255 C322 1.620 . S
N186 C374 3.943 . S
C415 C214 2.349 . S
C291 C237 2.779 . S
C494 N265 3.703 . S
C522 N196 1.283 . S
C455 C246 4.012 . S
