# Generated by pormake.
# Topology iac, (4,6)-cn, num edge types: 1
# Building blocks:
#     Node 0, Type 0, BuildingBlock: QUQFOY_clean_sbu_3, # of connection points: 4
#     Node 1, Type 0, BuildingBlock: QUQFOY_clean_sbu_3, # of connection points: 4
#     Node 2, Type 0, BuildingBlock: QUQFOY_clean_sbu_3, # of connection points: 4
#     Node 3, Type 0, BuildingBlock: QUQFOY_clean_sbu_3, # of connection points: 4
#     Node 4, Type 0, BuildingBlock: QUQFOY_clean_sbu_3, # of connection points: 4
#     Node 5, Type 0, BuildingBlock: QUQFOY_clean_sbu_3, # of connection points: 4
#     Node 6, Type 0, BuildingBlock: QUQFOY_clean_sbu_3, # of connection points: 4
#     Node 7, Type 0, BuildingBlock: QUQFOY_clean_sbu_3, # of connection points: 4
#     Node 8, Type 0, BuildingBlock: QUQFOY_clean_sbu_3, # of connection points: 4
#     Node 9, Type 0, BuildingBlock: QUQFOY_clean_sbu_3, # of connection points: 4
#     Node 10, Type 0, BuildingBlock: QUQFOY_clean_sbu_3, # of connection points: 4
#     Node 11, Type 0, BuildingBlock: QUQFOY_clean_sbu_3, # of connection points: 4
#     Node 12, Type 0, BuildingBlock: QUQFOY_clean_sbu_3, # of connection points: 4
#     Node 13, Type 0, BuildingBlock: QUQFOY_clean_sbu_3, # of connection points: 4
#     Node 14, Type 0, BuildingBlock: QUQFOY_clean_sbu_3, # of connection points: 4
#     Node 15, Type 0, BuildingBlock: QUQFOY_clean_sbu_3, # of connection points: 4
#     Node 16, Type 0, BuildingBlock: QUQFOY_clean_sbu_3, # of connection points: 4
#     Node 17, Type 0, BuildingBlock: QUQFOY_clean_sbu_3, # of connection points: 4
#     Node 18, Type 0, BuildingBlock: QUQFOY_clean_sbu_3, # of connection points: 4
#     Node 19, Type 0, BuildingBlock: QUQFOY_clean_sbu_3, # of connection points: 4
#     Node 20, Type 0, BuildingBlock: QUQFOY_clean_sbu_3, # of connection points: 4
#     Node 21, Type 0, BuildingBlock: QUQFOY_clean_sbu_3, # of connection points: 4
#     Node 22, Type 0, BuildingBlock: QUQFOY_clean_sbu_3, # of connection points: 4
#     Node 23, Type 0, BuildingBlock: QUQFOY_clean_sbu_3, # of connection points: 4
#     Node 24, Type 1, BuildingBlock: CIFDUS_clean_sbu_1, # of connection points: 6
#     Node 25, Type 1, BuildingBlock: CIFDUS_clean_sbu_1, # of connection points: 6
#     Node 26, Type 1, BuildingBlock: CIFDUS_clean_sbu_1, # of connection points: 6
#     Node 27, Type 1, BuildingBlock: CIFDUS_clean_sbu_1, # of connection points: 6
#     Node 28, Type 1, BuildingBlock: CIFDUS_clean_sbu_1, # of connection points: 6
#     Node 29, Type 1, BuildingBlock: CIFDUS_clean_sbu_1, # of connection points: 6
#     Node 30, Type 1, BuildingBlock: CIFDUS_clean_sbu_1, # of connection points: 6
#     Node 31, Type 1, BuildingBlock: CIFDUS_clean_sbu_1, # of connection points: 6
#     Node 32, Type 1, BuildingBlock: CIFDUS_clean_sbu_1, # of connection points: 6
#     Node 33, Type 1, BuildingBlock: CIFDUS_clean_sbu_1, # of connection points: 6
#     Node 34, Type 1, BuildingBlock: CIFDUS_clean_sbu_1, # of connection points: 6
#     Node 35, Type 1, BuildingBlock: CIFDUS_clean_sbu_1, # of connection points: 6
#     Node 36, Type 1, BuildingBlock: CIFDUS_clean_sbu_1, # of connection points: 6
#     Node 37, Type 1, BuildingBlock: CIFDUS_clean_sbu_1, # of connection points: 6
#     Node 38, Type 1, BuildingBlock: CIFDUS_clean_sbu_1, # of connection points: 6
#     Node 39, Type 1, BuildingBlock: CIFDUS_clean_sbu_1, # of connection points: 6
#     Edge 40, Type (0, 1), BuildingBlock: TEMPAE_clean_linker_10, # of connection points: 2
#     Edge 41, Type (0, 1), BuildingBlock: TEMPAE_clean_linker_10, # of connection points: 2
#     Edge 42, Type (0, 1), BuildingBlock: TEMPAE_clean_linker_10, # of connection points: 2
#     Edge 43, Type (0, 1), BuildingBlock: TEMPAE_clean_linker_10, # of connection points: 2
#     Edge 44, Type (0, 1), BuildingBlock: TEMPAE_clean_linker_10, # of connection points: 2
#     Edge 45, Type (0, 1), BuildingBlock: TEMPAE_clean_linker_10, # of connection points: 2
#     Edge 46, Type (0, 1), BuildingBlock: TEMPAE_clean_linker_10, # of connection points: 2
#     Edge 47, Type (0, 1), BuildingBlock: TEMPAE_clean_linker_10, # of connection points: 2
#     Edge 48, Type (0, 1), BuildingBlock: TEMPAE_clean_linker_10, # of connection points: 2
#     Edge 49, Type (0, 1), BuildingBlock: TEMPAE_clean_linker_10, # of connection points: 2
#     Edge 50, Type (0, 1), BuildingBlock: TEMPAE_clean_linker_10, # of connection points: 2
#     Edge 51, Type (0, 1), BuildingBlock: TEMPAE_clean_linker_10, # of connection points: 2
#     Edge 52, Type (0, 1), BuildingBlock: TEMPAE_clean_linker_10, # of connection points: 2
#     Edge 53, Type (0, 1), BuildingBlock: TEMPAE_clean_linker_10, # of connection points: 2
#     Edge 54, Type (0, 1), BuildingBlock: TEMPAE_clean_linker_10, # of connection points: 2
#     Edge 55, Type (0, 1), BuildingBlock: TEMPAE_clean_linker_10, # of connection points: 2
#     Edge 56, Type (0, 1), BuildingBlock: TEMPAE_clean_linker_10, # of connection points: 2
#     Edge 57, Type (0, 1), BuildingBlock: TEMPAE_clean_linker_10, # of connection points: 2
#     Edge 58, Type (0, 1), BuildingBlock: TEMPAE_clean_linker_10, # of connection points: 2
#     Edge 59, Type (0, 1), BuildingBlock: TEMPAE_clean_linker_10, # of connection points: 2
#     Edge 60, Type (0, 1), BuildingBlock: TEMPAE_clean_linker_10, # of connection points: 2
#     Edge 61, Type (0, 1), BuildingBlock: TEMPAE_clean_linker_10, # of connection points: 2
#     Edge 62, Type (0, 1), BuildingBlock: TEMPAE_clean_linker_10, # of connection points: 2
#     Edge 63, Type (0, 1), BuildingBlock: TEMPAE_clean_linker_10, # of connection points: 2
#     Edge 64, Type (0, 1), BuildingBlock: TEMPAE_clean_linker_10, # of connection points: 2
#     Edge 65, Type (0, 1), BuildingBlock: TEMPAE_clean_linker_10, # of connection points: 2
#     Edge 66, Type (0, 1), BuildingBlock: TEMPAE_clean_linker_10, # of connection points: 2
#     Edge 67, Type (0, 1), BuildingBlock: TEMPAE_clean_linker_10, # of connection points: 2
#     Edge 68, Type (0, 1), BuildingBlock: TEMPAE_clean_linker_10, # of connection points: 2
#     Edge 69, Type (0, 1), BuildingBlock: TEMPAE_clean_linker_10, # of connection points: 2
#     Edge 70, Type (0, 1), BuildingBlock: TEMPAE_clean_linker_10, # of connection points: 2
#     Edge 71, Type (0, 1), BuildingBlock: TEMPAE_clean_linker_10, # of connection points: 2
#     Edge 72, Type (0, 1), BuildingBlock: TEMPAE_clean_linker_10, # of connection points: 2
#     Edge 73, Type (0, 1), BuildingBlock: TEMPAE_clean_linker_10, # of connection points: 2
#     Edge 74, Type (0, 1), BuildingBlock: TEMPAE_clean_linker_10, # of connection points: 2
#     Edge 75, Type (0, 1), BuildingBlock: TEMPAE_clean_linker_10, # of connection points: 2
#     Edge 76, Type (0, 1), BuildingBlock: TEMPAE_clean_linker_10, # of connection points: 2
#     Edge 77, Type (0, 1), BuildingBlock: TEMPAE_clean_linker_10, # of connection points: 2
#     Edge 78, Type (0, 1), BuildingBlock: TEMPAE_clean_linker_10, # of connection points: 2
#     Edge 79, Type (0, 1), BuildingBlock: TEMPAE_clean_linker_10, # of connection points: 2
#     Edge 80, Type (0, 1), BuildingBlock: TEMPAE_clean_linker_10, # of connection points: 2
#     Edge 81, Type (0, 1), BuildingBlock: TEMPAE_clean_linker_10, # of connection points: 2
#     Edge 82, Type (0, 1), BuildingBlock: TEMPAE_clean_linker_10, # of connection points: 2
#     Edge 83, Type (0, 1), BuildingBlock: TEMPAE_clean_linker_10, # of connection points: 2
#     Edge 84, Type (0, 1), BuildingBlock: TEMPAE_clean_linker_10, # of connection points: 2
#     Edge 85, Type (0, 1), BuildingBlock: TEMPAE_clean_linker_10, # of connection points: 2
#     Edge 86, Type (0, 1), BuildingBlock: TEMPAE_clean_linker_10, # of connection points: 2
#     Edge 87, Type (0, 1), BuildingBlock: TEMPAE_clean_linker_10, # of connection points: 2
#     Edge 88, Type (0, 1), BuildingBlock: TEMPAE_clean_linker_10, # of connection points: 2
#     Edge 89, Type (0, 1), BuildingBlock: TEMPAE_clean_linker_10, # of connection points: 2
#     Edge 90, Type (0, 1), BuildingBlock: TEMPAE_clean_linker_10, # of connection points: 2
#     Edge 91, Type (0, 1), BuildingBlock: TEMPAE_clean_linker_10, # of connection points: 2
#     Edge 92, Type (0, 1), BuildingBlock: TEMPAE_clean_linker_10, # of connection points: 2
#     Edge 93, Type (0, 1), BuildingBlock: TEMPAE_clean_linker_10, # of connection points: 2
#     Edge 94, Type (0, 1), BuildingBlock: TEMPAE_clean_linker_10, # of connection points: 2
#     Edge 95, Type (0, 1), BuildingBlock: TEMPAE_clean_linker_10, # of connection points: 2
#     Edge 96, Type (0, 1), BuildingBlock: TEMPAE_clean_linker_10, # of connection points: 2
#     Edge 97, Type (0, 1), BuildingBlock: TEMPAE_clean_linker_10, # of connection points: 2
#     Edge 98, Type (0, 1), BuildingBlock: TEMPAE_clean_linker_10, # of connection points: 2
#     Edge 99, Type (0, 1), BuildingBlock: TEMPAE_clean_linker_10, # of connection points: 2
#     Edge 100, Type (0, 1), BuildingBlock: TEMPAE_clean_linker_10, # of connection points: 2
#     Edge 101, Type (0, 1), BuildingBlock: TEMPAE_clean_linker_10, # of connection points: 2
#     Edge 102, Type (0, 1), BuildingBlock: TEMPAE_clean_linker_10, # of connection points: 2
#     Edge 103, Type (0, 1), BuildingBlock: TEMPAE_clean_linker_10, # of connection points: 2
#     Edge 104, Type (0, 1), BuildingBlock: TEMPAE_clean_linker_10, # of connection points: 2
#     Edge 105, Type (0, 1), BuildingBlock: TEMPAE_clean_linker_10, # of connection points: 2
#     Edge 106, Type (0, 1), BuildingBlock: TEMPAE_clean_linker_10, # of connection points: 2
#     Edge 107, Type (0, 1), BuildingBlock: TEMPAE_clean_linker_10, # of connection points: 2
#     Edge 108, Type (0, 1), BuildingBlock: TEMPAE_clean_linker_10, # of connection points: 2
#     Edge 109, Type (0, 1), BuildingBlock: TEMPAE_clean_linker_10, # of connection points: 2
#     Edge 110, Type (0, 1), BuildingBlock: TEMPAE_clean_linker_10, # of connection points: 2
#     Edge 111, Type (0, 1), BuildingBlock: TEMPAE_clean_linker_10, # of connection points: 2
#     Edge 112, Type (0, 1), BuildingBlock: TEMPAE_clean_linker_10, # of connection points: 2
#     Edge 113, Type (0, 1), BuildingBlock: TEMPAE_clean_linker_10, # of connection points: 2
#     Edge 114, Type (0, 1), BuildingBlock: TEMPAE_clean_linker_10, # of connection points: 2
#     Edge 115, Type (0, 1), BuildingBlock: TEMPAE_clean_linker_10, # of connection points: 2
#     Edge 116, Type (0, 1), BuildingBlock: TEMPAE_clean_linker_10, # of connection points: 2
#     Edge 117, Type (0, 1), BuildingBlock: TEMPAE_clean_linker_10, # of connection points: 2
#     Edge 118, Type (0, 1), BuildingBlock: TEMPAE_clean_linker_10, # of connection points: 2
#     Edge 119, Type (0, 1), BuildingBlock: TEMPAE_clean_linker_10, # of connection points: 2
#     Edge 120, Type (0, 1), BuildingBlock: TEMPAE_clean_linker_10, # of connection points: 2
#     Edge 121, Type (0, 1), BuildingBlock: TEMPAE_clean_linker_10, # of connection points: 2
#     Edge 122, Type (0, 1), BuildingBlock: TEMPAE_clean_linker_10, # of connection points: 2
#     Edge 123, Type (0, 1), BuildingBlock: TEMPAE_clean_linker_10, # of connection points: 2
#     Edge 124, Type (0, 1), BuildingBlock: TEMPAE_clean_linker_10, # of connection points: 2
#     Edge 125, Type (0, 1), BuildingBlock: TEMPAE_clean_linker_10, # of connection points: 2
#     Edge 126, Type (0, 1), BuildingBlock: TEMPAE_clean_linker_10, # of connection points: 2
#     Edge 127, Type (0, 1), BuildingBlock: TEMPAE_clean_linker_10, # of connection points: 2
#     Edge 128, Type (0, 1), BuildingBlock: TEMPAE_clean_linker_10, # of connection points: 2
#     Edge 129, Type (0, 1), BuildingBlock: TEMPAE_clean_linker_10, # of connection points: 2
#     Edge 130, Type (0, 1), BuildingBlock: TEMPAE_clean_linker_10, # of connection points: 2
#     Edge 131, Type (0, 1), BuildingBlock: TEMPAE_clean_linker_10, # of connection points: 2
#     Edge 132, Type (0, 1), BuildingBlock: TEMPAE_clean_linker_10, # of connection points: 2
#     Edge 133, Type (0, 1), BuildingBlock: TEMPAE_clean_linker_10, # of connection points: 2
#     Edge 134, Type (0, 1), BuildingBlock: TEMPAE_clean_linker_10, # of connection points: 2
#     Edge 135, Type (0, 1), BuildingBlock: TEMPAE_clean_linker_10, # of connection points: 2
# Relax obj value: 0.093
# Max RMSD: 0.172
# Mean RMSD: 0.088
data_MOF--net-iac--node1-QUQFOY_clean_sbu_3--node2-CIFDUS_clean_sbu_1--edge1-TEMPAE_clean_linker_10
_symmetry_space_group_name_H-M    P1
_symmetry_Int_Tables_number       1
_symmetry_cell_setting            triclinic
loop_
_symmetry_equiv_pos_as_xyz
'x, y, z'
_cell_length_a     55.081902
_cell_length_b     55.920182
_cell_length_c     55.615416
_cell_angle_alpha  90.847935
_cell_angle_beta   89.86398
_cell_angle_gamma 90.411092
loop_
_atom_site_label
_atom_site_type_symbol
_atom_site_fract_x
_atom_site_fract_y
_atom_site_fract_z
_atom_type_partial_charge
C0 C 0.95127 0.24424 0.15151 0.0
O1 O 0.96515 0.23249 0.16515 0.0
Cd2 Cd 0.00685 0.22341 0.15696 0.0
O3 O 0.95881 0.25263 0.13164 0.0
Cd4 Cd -0.00336 0.25722 0.10773 0.0
C5 C 0.00523 0.19714 0.09928 0.0
O6 O 0.01817 0.2616 0.14442 0.0
O7 O 0.04147 0.26402 0.11373 0.0
O8 O 0.97316 0.29369 0.10137 0.0
C9 C 0.03946 0.26377 0.13643 0.0
O10 O 0.01013 0.19643 0.12167 0.0
C11 C 0.98421 0.29965 0.08236 0.0
O12 O -0.00224 0.21634 0.08957 0.0
O13 O 0.00027 0.28535 0.07438 0.0
C14 C 0.95056 0.75533 0.33538 0.0
O15 O 0.96436 0.76344 0.31901 0.0
Cd16 Cd 0.00721 0.76914 0.32261 0.0
O17 O 0.95909 0.74805 0.35515 0.0
Cd18 Cd -0.00334 0.743 0.37689 0.0
C19 C 0.00044 0.80333 0.37394 0.0
O20 O 0.02015 0.73476 0.34264 0.0
O21 O 0.04136 0.74091 0.37462 0.0
O22 O 0.98057 0.7049 0.38882 0.0
C23 C 0.04088 0.73708 0.35209 0.0
O24 O 0.00779 0.80179 0.35222 0.0
C25 C 0.98554 0.70779 0.41098 0.0
O26 O -0.00584 0.78507 0.38595 0.0
O27 O -0.00478 0.7276 0.41739 0.0
C28 C 0.44503 0.7388 0.65143 0.0
O29 O 0.45819 0.72719 0.66584 0.0
Cd30 Cd 0.50088 0.72057 0.66108 0.0
O31 O 0.45428 0.748 0.63268 0.0
Cd32 Cd 0.49519 0.75317 0.61461 0.0
C33 C 0.50602 0.69432 0.60442 0.0
O34 O 0.51709 0.75865 0.65218 0.0
O35 O 0.53931 0.75227 0.62087 0.0
O36 O 0.48117 0.79405 0.61179 0.0
C37 C 0.5381 0.75686 0.64322 0.0
O38 O 0.50911 0.69363 0.6271 0.0
C39 C 0.4882 0.79757 0.59044 0.0
O40 O 0.49818 0.71327 0.59452 0.0
O41 O 0.49818 0.78 0.57956 0.0
C42 C 0.45225 0.25832 0.8328 0.0
O43 O 0.46626 0.26709 0.81696 0.0
Cd44 Cd 0.50892 0.27351 0.82232 0.0
O45 O 0.4604 0.25021 0.85245 0.0
Cd46 Cd 0.49849 0.24307 0.87346 0.0
C47 C 0.50413 0.30335 0.87688 0.0
O48 O 0.52085 0.23663 0.83818 0.0
O49 O 0.54312 0.23967 0.86983 0.0
O50 O 0.48703 0.20301 0.88211 0.0
C51 C 0.54184 0.23674 0.84719 0.0
O52 O 0.51009 0.30392 0.85471 0.0
C53 C 0.48988 0.20502 0.9047 0.0
O54 O 0.49842 0.28389 0.88713 0.0
O55 O 0.49553 0.22549 0.91329 0.0
C56 C 0.0877 -0.00169 0.29735 0.0
O57 O 0.07272 0.01159 0.28657 0.0
Cd58 Cd 0.07754 0.02598 0.24597 0.0
O59 O 0.10691 0.99103 0.28701 0.0
Cd60 Cd 0.12565 0.99198 0.24672 0.0
C61 C 0.13382 0.05296 0.24061 0.0
O62 O 0.08743 0.98987 0.22519 0.0
O63 O 0.11989 0.98827 0.20322 0.0
O64 O 0.1309 0.94961 0.25081 0.0
C65 C 0.0969 0.9887 0.20445 0.0
O66 O 0.11082 0.05506 0.24164 0.0
C67 C 0.15376 0.94989 0.25317 0.0
O68 O 0.14386 0.03256 0.24271 0.0
O69 O 0.16434 0.97015 0.25203 0.0
C70 C 0.28285 0.91411 0.48533 0.0
O71 O 0.26641 0.92861 0.47929 0.0
Cd72 Cd 0.22593 0.91454 0.47366 0.0
O73 O 0.278 0.8928 0.49136 0.0
Cd74 Cd 0.24447 0.86595 0.49869 0.0
C75 C 0.24107 0.86473 0.43931 0.0
O76 O 0.21663 0.89539 0.51038 0.0
O77 O 0.20008 0.863 0.49657 0.0
O78 O 0.26188 0.85734 0.53729 0.0
C79 C 0.19755 0.88339 0.5065 0.0
O80 O 0.23041 0.88488 0.44057 0.0
C81 C 0.25704 0.83514 0.53594 0.0
O82 O 0.24932 0.8545 0.45778 0.0
O83 O 0.24782 0.82716 0.51645 0.0
C84 C 0.40829 -0.00267 0.78858 0.0
O85 O 0.4259 0.98991 0.77576 0.0
Cd86 Cd 0.4215 0.97823 0.73442 0.0
O87 O 0.38768 0.00173 0.77948 0.0
Cd88 Cd 0.36636 0.00439 0.74115 0.0
C89 C 0.36922 0.94405 0.74011 0.0
O90 O 0.4014 0.01126 0.71779 0.0
O91 O 0.36866 0.00704 0.697 0.0
O92 O 0.35284 0.04173 0.75741 0.0
C93 C 0.39156 0.00932 0.69732 0.0
O94 O 0.39199 0.9451 0.73589 0.0
C95 C 0.33083 0.03887 0.75116 0.0
O96 O 0.35671 0.9629 0.74323 0.0
O97 O 0.32512 0.01947 0.7403 0.0
C98 C 0.28931 0.08058 0.99017 0.0
O99 O 0.27412 0.06555 -0.00167 0.0
Cd100 Cd 0.23508 0.07803 0.01339 0.0
O101 O 0.2834 0.1022 0.9871 0.0
Cd102 Cd 0.24724 0.12714 0.98787 0.0
C103 C 0.2512 0.12741 0.04828 0.0
O104 O 0.21534 0.09796 0.98152 0.0
O105 O 0.20357 0.13213 -0.00405 0.0
O106 O 0.25298 0.13131 0.94561 0.0
C107 C 0.19798 0.11146 0.98787 0.0
O108 O 0.24218 0.10635 0.04705 0.0
C109 C 0.25675 0.15369 0.94579 0.0
O110 O 0.25647 0.1389 0.02929 0.0
O111 O 0.25627 0.16451 0.96611 0.0
C112 C 0.78995 0.41164 0.98369 0.0
O113 O 0.77514 0.42712 0.97608 0.0
Cd114 Cd 0.73274 0.41885 0.97218 0.0
O115 O 0.78264 0.39156 0.99142 0.0
Cd116 Cd 0.74619 0.36856 -0.00066 0.0
C117 C 0.73984 0.36663 0.93963 0.0
O118 O 0.72306 0.40226 0.01018 0.0
O119 O 0.7019 0.37082 0.00147 0.0
O120 O 0.76369 0.35699 0.03688 0.0
C121 C 0.70248 0.39237 0.00886 0.0
O122 O 0.73214 0.38808 0.9399 0.0
C123 C 0.7575 0.33512 0.03488 0.0
O124 O 0.74711 0.35643 0.9585 0.0
O125 O 0.74681 0.32862 0.01562 0.0
C126 C 0.91237 0.49352 0.28718 0.0
O127 O 0.92931 0.48615 0.27347 0.0
Cd128 Cd 0.92228 0.47819 0.23173 0.0
O129 O 0.89194 0.49957 0.27878 0.0
Cd130 Cd 0.86941 0.50498 0.24225 0.0
C131 C 0.86902 0.44567 0.23944 0.0
O132 O 0.90322 0.51317 0.21772 0.0
O133 O 0.86987 0.50442 0.1989 0.0
O134 O 0.8612 0.54436 0.25612 0.0
C135 C 0.89195 0.51083 0.19806 0.0
O136 O 0.89156 0.44647 0.23419 0.0
C137 C 0.83872 0.54368 0.2512 0.0
O138 O 0.85687 0.46449 0.24385 0.0
O139 O 0.82995 0.52394 0.24342 0.0
C140 C 0.79038 0.58227 0.49605 0.0
O141 O 0.77555 0.56775 0.50572 0.0
Cd142 Cd 0.73392 0.57764 0.51479 0.0
O143 O 0.78349 0.60291 0.48972 0.0
Cd144 Cd 0.74771 0.62893 0.48751 0.0
C145 C 0.7445 0.62904 0.54877 0.0
O146 O 0.71876 0.59737 0.48023 0.0
O147 O 0.70321 0.63226 0.4855 0.0
O148 O 0.76678 0.63582 0.44882 0.0
C149 C 0.69982 0.61003 0.48211 0.0
O150 O 0.73791 0.60717 0.54749 0.0
C151 C 0.76243 0.65803 0.44831 0.0
O152 O 0.75001 0.64092 0.53007 0.0
O153 O 0.75165 0.66715 0.46649 0.0
C154 C 0.58925 0.49979 0.79777 0.0
O155 O 0.57556 0.51479 0.78764 0.0
Cd156 Cd 0.5791 0.52574 0.7457 0.0
O157 O 0.60672 0.49011 0.7865 0.0
Cd158 Cd 0.62592 0.49042 0.74685 0.0
C159 C 0.63609 0.55062 0.7427 0.0
O160 O 0.58869 0.48998 0.72427 0.0
O161 O 0.62147 0.49171 0.70294 0.0
O162 O 0.62623 0.44803 0.75284 0.0
C163 C 0.59843 0.4912 0.70365 0.0
O164 O 0.6133 0.55268 0.73984 0.0
C165 C 0.64904 0.44546 0.75264 0.0
O166 O 0.64566 0.53063 0.74806 0.0
O167 O 0.66188 0.46417 0.74919 0.0
C168 C 0.96303 0.75615 0.82968 0.0
O169 O 0.97914 0.76625 0.81693 0.0
Cd170 Cd 0.01858 0.77437 0.83321 0.0
O171 O 0.96806 0.74813 0.85039 0.0
Cd172 Cd 0.00352 0.74335 0.87714 0.0
C173 C 0.00137 0.80275 0.88619 0.0
O174 O 0.03335 0.73628 0.8456 0.0
O175 O 0.04791 0.7461 0.88026 0.0
O176 O 0.988 0.7029 0.88364 0.0
C177 C 0.05172 0.73809 0.85916 0.0
O178 O 0.01205 0.80402 0.86589 0.0
C179 C -0.0038 0.70161 0.90488 0.0
O180 O -0.00538 0.78269 0.89454 0.0
O181 O 0.0059 0.72033 0.91389 0.0
C182 C 0.96452 0.24223 0.66386 0.0
O183 O 0.98122 0.23319 0.67641 0.0
Cd184 Cd 0.02243 0.2288 0.66334 0.0
O185 O 0.96897 0.25139 0.64356 0.0
Cd186 Cd 0.00379 0.25699 0.61697 0.0
C187 C 0.00339 0.19786 0.61299 0.0
O188 O 0.03863 0.26246 0.6425 0.0
O189 O 0.04528 0.24872 0.60642 0.0
O190 O -0.00291 0.29838 0.61135 0.0
C191 C 0.05379 0.2564 0.62626 0.0
O192 O 0.01443 0.19825 0.6331 0.0
C193 C -0.00575 0.29681 0.58873 0.0
O194 O -0.00397 0.21693 0.60325 0.0
O195 O -0.00543 0.27605 0.57908 0.0
C196 C 0.46127 0.25883 0.3276 0.0
O197 O 0.47741 0.2692 0.31512 0.0
Cd198 Cd 0.51763 0.27582 0.32906 0.0
O199 O 0.46656 0.24942 0.34769 0.0
Cd200 Cd 0.50265 0.24386 0.37414 0.0
C201 C 0.49813 0.30389 0.38181 0.0
O202 O 0.53261 0.23869 0.34284 0.0
O203 O 0.54682 0.24885 0.37767 0.0
O204 O 0.4898 0.20202 0.37662 0.0
C205 C 0.55082 0.24101 0.35654 0.0
O206 O 0.50832 0.30426 0.36122 0.0
C207 C 0.4979 0.19902 0.39769 0.0
O208 O 0.49271 0.28401 0.39163 0.0
O209 O 0.50573 0.2175 0.40891 0.0
C210 C 0.46486 0.74732 0.16574 0.0
O211 O 0.48239 0.74109 0.17897 0.0
Cd212 Cd 0.52181 0.73304 0.1625 0.0
O213 O 0.46822 0.75145 0.14353 0.0
Cd214 Cd 0.50042 0.75278 0.11313 0.0
C215 C 0.50336 0.69448 0.11655 0.0
O216 O 0.53455 0.76516 0.1378 0.0
O217 O 0.54319 0.74653 0.1047 0.0
O218 O 0.48397 0.7901 0.10018 0.0
C219 C 0.55068 0.75768 0.12326 0.0
O220 O 0.5162 0.69859 0.13523 0.0
C221 C 0.48793 0.78626 0.07797 0.0
O222 O 0.49243 0.71114 0.10577 0.0
O223 O 0.49647 0.76605 0.07182 0.0
C224 C 0.91676 0.99302 0.7797 0.0
O225 O 0.92999 0.98124 0.76511 0.0
Cd226 Cd 0.91563 0.96942 0.72581 0.0
O227 O 0.89626 0.00112 0.77329 0.0
Cd228 Cd 0.87136 0.00394 0.73645 0.0
C229 C 0.85995 0.94465 0.74017 0.0
O230 O 0.90358 0.00554 0.70693 0.0
O231 O 0.86738 0.00015 0.6927 0.0
O232 O 0.87006 0.04681 0.7402 0.0
C233 C 0.88969 0.00439 0.68878 0.0
O234 O 0.88159 0.94175 0.73262 0.0
C235 C 0.84714 0.04825 0.74105 0.0
O236 O 0.85136 0.96543 0.74408 0.0
O237 O 0.83502 0.02881 0.74137 0.0
C238 C 0.78404 0.07716 0.50832 0.0
O239 O 0.76744 0.06616 0.51969 0.0
Cd240 Cd 0.72625 0.07879 0.52385 0.0
O241 O 0.77964 0.09654 0.49743 0.0
Cd242 Cd 0.74649 0.1241 0.48945 0.0
C243 C 0.7379 0.1346 0.54817 0.0
O244 O 0.71582 0.09488 0.48653 0.0
O245 O 0.70267 0.13104 0.48916 0.0
O246 O 0.75562 0.12828 0.44775 0.0
C247 C 0.6979 0.10887 0.48801 0.0
O248 O 0.7278 0.1141 0.54971 0.0
C249 C 0.75718 0.15096 0.44852 0.0
O250 O 0.74829 0.14158 0.52901 0.0
O251 O 0.75572 0.1612 0.46902 0.0
C252 C 0.57145 0.01432 0.27804 0.0
O253 O 0.55936 0.02269 0.26074 0.0
Cd254 Cd 0.57605 0.02797 0.22207 0.0
O255 O 0.59241 0.00514 0.27506 0.0
Cd256 Cd 0.62228 -0.00483 0.24318 0.0
C257 C 0.63069 0.05353 0.24187 0.0
O258 O 0.59288 0.99045 0.21281 0.0
O259 O 0.62958 0.99244 0.19961 0.0
O260 O 0.62631 0.95434 0.25428 0.0
C261 C 0.60716 0.99021 0.19502 0.0
O262 O 0.60951 0.05436 0.23278 0.0
C263 C 0.6493 0.95512 0.25543 0.0
O264 O 0.6405 0.0339 0.24745 0.0
O265 O 0.65985 0.97513 0.25256 0.0
C266 C 0.78169 0.91026 0.00164 0.0
O267 O 0.76839 0.9275 -0.00468 0.0
Cd268 Cd 0.72678 0.92026 0.98353 0.0
O269 O 0.77261 0.88961 0.00467 0.0
Cd270 Cd 0.73238 0.87092 0.00572 0.0
C271 C 0.73357 0.87142 0.94567 0.0
O272 O 0.70479 0.90333 0.01646 0.0
O273 O 0.68898 0.87214 -0.00115 0.0
O274 O 0.74448 0.8632 0.04625 0.0
C275 C 0.68588 0.8917 0.01024 0.0
O276 O 0.72686 0.89307 0.94827 0.0
C277 C 0.7369 0.84176 0.04656 0.0
O278 O 0.73902 0.85882 0.96379 0.0
O279 O 0.72823 0.83303 0.02709 0.0
C280 C 0.28307 0.57489 -0.00335 0.0
O281 O 0.26669 0.56083 0.00432 0.0
Cd282 Cd 0.22692 0.57389 0.01523 0.0
O283 O 0.27851 0.59668 0.9923 0.0
Cd284 Cd 0.24627 0.62627 0.99172 0.0
C285 C 0.24421 0.62178 0.05172 0.0
O286 O 0.21326 0.59944 0.98459 0.0
O287 O 0.20316 0.63576 -0.00662 0.0
O288 O 0.26114 0.63736 0.95261 0.0
C289 C 0.19658 0.61445 0.98894 0.0
O290 O 0.23365 0.6016 0.0488 0.0
C291 C 0.25829 0.65965 0.95622 0.0
O292 O 0.25211 0.63393 0.03411 0.0
O293 O 0.25149 0.66653 0.97703 0.0
C294 C 0.07073 0.5146 0.78176 0.0
O295 O 0.058 0.5227 0.76475 0.0
Cd296 Cd 0.07199 0.52402 0.72382 0.0
O297 O 0.09136 0.50518 0.77806 0.0
Cd298 Cd 0.12006 0.49484 0.74635 0.0
C299 C 0.12735 0.55267 0.73328 0.0
O300 O 0.08976 0.48616 0.71746 0.0
O301 O 0.12624 0.48695 0.70356 0.0
O302 O 0.1238 0.45621 0.76275 0.0
C303 C 0.10376 0.48428 0.69949 0.0
O304 O 0.10607 0.55216 0.72427 0.0
C305 C 0.14681 0.45558 0.76165 0.0
O306 O 0.13615 0.53469 0.74392 0.0
O307 O 0.1579 0.47465 0.75577 0.0
C308 C 0.28088 0.41033 0.49442 0.0
O309 O 0.26766 0.42399 0.48202 0.0
Cd310 Cd 0.22431 0.41782 0.47662 0.0
O311 O 0.27182 0.39217 0.50462 0.0
Cd312 Cd 0.23275 0.3715 0.5072 0.0
C313 C 0.22874 0.36453 0.44709 0.0
O314 O 0.2051 0.4053 0.5133 0.0
O315 O 0.18901 0.37037 0.50715 0.0
O316 O 0.2473 0.3628 0.54708 0.0
C317 C 0.18603 0.39236 0.51189 0.0
O318 O 0.22112 0.38596 0.44671 0.0
C319 C 0.2401 0.3412 0.54667 0.0
O320 O 0.23656 0.35536 0.4664 0.0
O321 O 0.23021 0.33335 0.52749 0.0
C322 C 0.41714 0.48165 0.27755 0.0
O323 O 0.42802 0.46922 0.26165 0.0
Cd324 Cd 0.41109 0.46096 0.22302 0.0
O325 O 0.39738 0.49249 0.27294 0.0
Cd326 Cd 0.36972 0.49938 0.23784 0.0
C327 C 0.35503 0.4402 0.24184 0.0
O328 O 0.40118 0.49928 0.20756 0.0
O329 O 0.36457 0.49905 0.19367 0.0
O330 O 0.37054 0.54266 0.24283 0.0
C331 C 0.38718 0.50078 0.18963 0.0
O332 O 0.3763 0.4362 0.23387 0.0
C333 C 0.34775 0.54529 0.24432 0.0
O334 O 0.34726 0.46147 0.2449 0.0
O335 O 0.33482 0.52637 0.24491 0.0
O336 O 0.0234 0.02111 0.99148 0.0
Mn337 Mn -0.00564 -0.00263 -0.00271 0.0
O338 O 0.05346 -0.00077 0.97577 0.0
Mn339 Mn 0.04423 0.97274 -0.00709 0.0
O340 O 0.96558 0.97372 0.00342 0.0
O341 O 0.97544 0.02536 0.00955 0.0
Mn342 Mn 0.94517 0.0242 -0.00024 0.0
O343 O 0.9813 0.00281 0.96247 0.0
O344 O 0.93267 -0.00405 0.01182 0.0
O345 O 0.00752 0.99239 0.03179 0.0
O346 O 0.04526 0.97763 0.02614 0.0
O347 O 0.9484 0.05172 0.01862 0.0
O348 O 0.94744 0.02509 0.96634 0.0
C349 C 0.01829 0.94762 0.9782 0.0
C350 C 0.04448 0.01934 0.98175 0.0
C351 C 0.94337 0.97586 0.01 0.0
C352 C 0.97077 0.04521 0.02054 0.0
C353 C 0.96334 0.0143 0.95345 0.0
C354 C 0.02835 0.98589 0.03964 0.0
O355 O 0.01336 0.96892 0.98584 0.0
O356 O 0.04108 0.94239 0.9795 0.0
O357 O 0.28098 0.7441 0.23544 0.0
Mn358 Mn 0.24475 0.74355 0.24504 0.0
O359 O 0.27923 0.76018 0.19885 0.0
Mn360 Mn 0.24725 0.76989 0.20146 0.0
O361 O 0.20823 0.74301 0.2546 0.0
O362 O 0.25012 0.71144 0.25918 0.0
Mn363 Mn 0.23519 0.70817 0.28679 0.0
O364 O 0.25299 0.76009 0.2777 0.0
O365 O 0.20279 0.71175 0.27918 0.0
O366 O 0.2364 0.72427 0.21353 0.0
O367 O 0.22356 0.75092 0.18832 0.0
O368 O 0.2514 0.67974 0.28081 0.0
O369 O 0.24826 0.73225 0.30635 0.0
C370 C 0.23763 0.79903 0.2217 0.0
C371 C 0.29094 0.75047 0.21574 0.0
C372 C 0.19461 0.72881 0.26663 0.0
C373 C 0.2584 0.69017 0.26137 0.0
C374 C 0.25381 0.7534 0.29971 0.0
C375 C 0.22566 0.72943 0.19404 0.0
O376 O 0.24006 0.77795 0.23173 0.0
O377 O 0.2421 0.80085 0.19887 0.0
O378 O 0.4683 0.97728 0.48839 0.0
Mn379 Mn 0.49986 -0.00326 0.49564 0.0
O380 O 0.43759 0.00282 0.49485 0.0
Mn381 Mn 0.45644 0.02719 0.50727 0.0
O382 O 0.53125 0.01554 0.50254 0.0
O383 O 0.51694 0.96604 0.50144 0.0
Mn384 Mn 0.54424 0.96372 0.48546 0.0
O385 O 0.50887 -0.0045 0.45909 0.0
O386 O 0.56233 0.99044 0.4946 0.0
O387 O 0.49199 -0.00322 0.53214 0.0
O388 O 0.46471 0.02539 0.53915 0.0
O389 O 0.54203 0.9368 0.50448 0.0
O390 O 0.53414 0.96432 0.45395 0.0
C391 C 0.47568 0.05057 0.48529 0.0
C392 C 0.44573 0.98256 0.4883 0.0
C393 C 0.55386 0.0108 0.50087 0.0
C394 C 0.52181 0.94617 0.5116 0.0
C395 C 0.52138 0.98124 0.44562 0.0
C396 C 0.47947 0.00983 0.54644 0.0
O397 O 0.4835 0.02915 0.4902 0.0
O398 O 0.45466 0.05629 0.49413 0.0
O399 O 0.26906 0.25691 0.77353 0.0
Mn400 Mn 0.24186 0.24716 0.74883 0.0
O401 O 0.30218 0.26691 0.7524 0.0
Mn402 Mn 0.29289 0.24894 0.7259 0.0
O403 O 0.21415 0.23708 0.72445 0.0
O404 O 0.22178 0.23826 0.77749 0.0
Mn405 Mn 0.19115 0.24426 0.77261 0.0
O406 O 0.2279 0.2813 0.75075 0.0
O407 O 0.18342 0.22424 0.74737 0.0
O408 O 0.25553 0.21296 0.74677 0.0
O409 O 0.29247 0.21595 0.72952 0.0
O410 O 0.19301 0.23372 0.80372 0.0
O411 O 0.19052 0.27694 0.76716 0.0
C412 C 0.26949 0.26331 0.69947 0.0
C413 C 0.2905 0.26591 0.77209 0.0
C414 C 0.19329 0.22678 0.7269 0.0
C415 C 0.21605 0.23282 0.79922 0.0
C416 C 0.20762 0.28969 0.75834 0.0
C417 C 0.27516 0.20366 0.73858 0.0
O418 O 0.26245 0.25648 0.72045 0.0
O419 O 0.29257 0.2615 0.69557 0.0
O420 O -0.00284 0.96716 0.47764 0.0
Mn421 Mn 0.0018 -0.00153 0.49742 0.0
O422 O 0.01 0.93926 0.50376 0.0
Mn423 Mn 0.01272 0.95762 0.53189 0.0
O424 O 0.00738 0.02903 0.51897 0.0
O425 O 0.0108 0.01701 0.46767 0.0
Mn426 Mn -0.00102 0.04617 0.47294 0.0
O427 O 0.96573 0.00644 0.49401 0.0
O428 O 0.02115 0.05757 0.49487 0.0
O429 O 0.03841 0.98998 0.50023 0.0
O430 O 0.04109 0.97473 0.5365 0.0
O431 O 0.00119 0.04235 0.44037 0.0
O432 O 0.96725 0.04524 0.48479 0.0
C433 C 0.98037 0.97338 0.54571 0.0
C434 C 0.00244 0.94546 0.48299 0.0
C435 C 0.01798 0.0493 0.51578 0.0
C436 C 0.00722 0.02057 0.44501 0.0
C437 C 0.95572 0.02667 0.49135 0.0
C438 C 0.05117 0.98211 0.5175 0.0
O439 O -0.00787 0.98063 0.5271 0.0
O440 O 0.98985 0.95508 0.55595 0.0
O441 O 0.26239 0.78266 0.7538 0.0
Mn442 Mn 0.24331 0.7517 0.74658 0.0
O443 O 0.24137 0.80898 0.73301 0.0
Mn444 Mn 0.2118 0.79274 0.73421 0.0
O445 O 0.22552 0.71953 0.73949 0.0
O446 O 0.27541 0.73667 0.73965 0.0
Mn447 Mn 0.27873 0.70941 0.75441 0.0
O448 O 0.24533 0.74303 0.78287 0.0
O449 O 0.25393 0.69064 0.74173 0.0
O450 O 0.24086 0.75995 0.70972 0.0
O451 O 0.20499 0.77775 0.70576 0.0
O452 O 0.30665 0.71376 0.73641 0.0
O453 O 0.27575 0.71662 0.78685 0.0
C454 C 0.1978 0.78019 0.76777 0.0
C455 C 0.26055 0.80275 0.74365 0.0
C456 C 0.23244 0.6977 0.73728 0.0
C457 C 0.29588 0.73281 0.72915 0.0
C458 C 0.2592 0.72997 0.79565 0.0
C459 C 0.22351 0.76781 0.69649 0.0
O460 O 0.21047 0.76709 0.75297 0.0
O461 O 0.19278 0.80112 0.7596 0.0
O462 O 0.47085 0.98984 0.96836 0.0
Mn463 Mn 0.49441 -0.00261 -0.003 0.0
O464 O 0.49468 0.98658 0.93529 0.0
Mn465 Mn 0.52135 0.00295 0.94763 0.0
O466 O 0.51939 0.00436 0.0243 0.0
O467 O 0.46509 0.00365 0.01828 0.0
Mn468 Mn 0.47417 -0.00473 0.0474 0.0
O469 O 0.49383 0.96196 0.00651 0.0
O470 O 0.49836 0.01653 0.05598 0.0
O471 O 0.49505 0.03295 0.98779 0.0
O472 O 0.51668 0.03547 0.95329 0.0
O473 O 0.44273 0.00447 0.0509 0.0
O474 O 0.48281 0.96312 0.04556 0.0
C475 C 0.54488 0.98451 0.97225 0.0
C476 C 0.47423 0.98445 0.946 0.0
C477 C 0.51841 0.0141 0.04517 0.0
C478 C 0.44443 0.009 0.02818 0.0
C479 C 0.49026 0.95191 0.02678 0.0
C480 C 0.50485 0.04483 0.97079 0.0
O481 O 0.52304 0.991 0.97636 0.0
O482 O 0.55217 0.98958 0.95081 0.0
O483 O 0.27836 0.24495 0.25704 0.0
Mn484 Mn 0.24173 0.24553 0.24859 0.0
O485 O 0.27706 0.23369 0.29515 0.0
Mn486 Mn 0.24733 0.2178 0.29327 0.0
O487 O 0.20475 0.24692 0.23932 0.0
O488 O 0.24868 0.27758 0.23428 0.0
Mn489 Mn 0.23247 0.28121 0.20755 0.0
O490 O 0.24895 0.22848 0.21557 0.0
O491 O 0.2004 0.27981 0.21695 0.0
O492 O 0.23333 0.2634 0.28137 0.0
O493 O 0.22341 0.23527 0.30778 0.0
O494 O 0.25055 0.30891 0.21193 0.0
O495 O 0.2422 0.2563 0.18734 0.0
C496 C 0.24174 0.19106 0.26567 0.0
C497 C 0.28819 0.24293 0.27762 0.0
C498 C 0.19153 0.26238 0.22862 0.0
C499 C 0.2578 0.29863 0.23127 0.0
C500 C 0.24773 0.23508 0.19349 0.0
C501 C 0.22375 0.25704 0.30155 0.0
O502 O 0.23475 0.21315 0.2638 0.0
O503 O 0.25024 0.1861 0.28669 0.0
O504 O 0.49339 0.46693 0.98083 0.0
Mn505 Mn 0.50123 0.49986 -0.00304 0.0
O506 O 0.49814 0.43979 0.01016 0.0
Mn507 Mn 0.50612 0.46054 0.03536 0.0
O508 O 0.50978 0.53243 0.01394 0.0
O509 O 0.50971 0.51225 0.9644 0.0
Mn510 Mn 0.5023 0.54263 0.96257 0.0
O511 O 0.46623 0.5114 0.99249 0.0
O512 O 0.52129 0.5578 0.98531 0.0
O513 O 0.53686 0.48864 0.001 0.0
O514 O 0.53849 0.4689 0.03584 0.0
O515 O 0.51349 0.53393 0.93259 0.0
O516 O 0.46908 0.54345 0.96825 0.0
C517 C 0.47947 0.48512 0.04877 0.0
C518 C 0.49423 0.44527 0.98826 0.0
C519 C 0.51879 0.55255 0.00732 0.0
C520 C 0.51515 0.51291 0.94189 0.0
C521 C 0.45694 0.52888 0.98114 0.0
C522 C 0.54864 0.47796 0.01747 0.0
O523 O 0.49135 0.4873 0.02897 0.0
O524 O 0.48521 0.46639 0.06083 0.0
O525 O 0.7674 0.28066 0.24814 0.0
Mn526 Mn 0.74319 0.25228 0.24347 0.0
O527 O 0.74464 0.31382 0.25386 0.0
Mn528 Mn 0.71571 0.30112 0.24228 0.0
O529 O 0.71696 0.2255 0.23988 0.0
O530 O 0.77244 0.23218 0.23143 0.0
Mn531 Mn 0.76132 0.20363 0.23976 0.0
O532 O 0.74883 0.24182 0.27841 0.0
O533 O 0.73504 0.1961 0.22096 0.0
O534 O 0.73748 0.26241 0.20857 0.0
O535 O 0.71486 0.2958 0.20903 0.0
O536 O 0.79012 0.19656 0.22708 0.0
O537 O 0.75826 0.20306 0.27305 0.0
C538 C 0.69584 0.27725 0.26555 0.0
C539 C 0.76496 0.30295 0.25352 0.0
C540 C 0.71582 0.20597 0.22792 0.0
C541 C 0.79098 0.21947 0.22379 0.0
C542 C 0.75393 0.22118 0.28655 0.0
C543 C 0.72613 0.27905 0.19784 0.0
O544 O 0.7157 0.27245 0.25456 0.0
O545 O 0.68811 0.2986 0.26165 0.0
O546 O 0.97246 0.50033 0.46893 0.0
Mn547 Mn -0.0033 0.503 0.49698 0.0
O548 O -0.00556 0.50688 0.4354 0.0
Mn549 Mn 0.02454 0.50993 0.4499 0.0
O550 O 0.02086 0.50563 0.52553 0.0
O551 O 0.96935 0.51433 0.51745 0.0
Mn552 Mn 0.9693 0.50221 0.54618 0.0
O553 O 0.98942 0.46792 0.506 0.0
O554 O -0.00145 0.51259 0.55892 0.0
O555 O 0.00322 0.53856 0.48911 0.0
O556 O 0.03179 0.54046 0.46073 0.0
O557 O 0.94271 0.52241 0.54468 0.0
O558 O 0.96689 0.46944 0.54004 0.0
C559 C 0.04173 0.47979 0.46537 0.0
C560 C 0.97441 0.50306 0.44626 0.0
C561 C 0.01882 0.51093 0.54796 0.0
C562 C 0.95008 0.52595 0.52293 0.0
C563 C 0.97725 0.45789 0.52286 0.0
C564 C 0.01806 0.55051 0.47617 0.0
O565 O 0.02388 0.49129 0.47533 0.0
O566 O 0.04844 0.48787 0.44465 0.0
O567 O 0.76821 0.7542 0.27431 0.0
Mn568 Mn 0.73983 0.74739 0.25051 0.0
O569 O 0.79901 0.76979 0.2539 0.0
Mn570 Mn 0.78915 0.75385 0.2263 0.0
O571 O 0.71032 0.73976 0.22801 0.0
O572 O 0.72236 0.73428 0.27864 0.0
Mn573 Mn 0.69186 0.74252 0.28034 0.0
O574 O 0.72576 0.78078 0.25743 0.0
O575 O 0.67887 0.73008 0.25215 0.0
O576 O 0.75385 0.71422 0.2436 0.0
O577 O 0.79059 0.72054 0.2267 0.0
O578 O 0.69831 0.72371 0.30701 0.0
O579 O 0.69306 0.77581 0.28146 0.0
C580 C 0.7649 0.76875 0.20116 0.0
C581 C 0.78893 0.76452 0.27365 0.0
C582 C 0.68833 0.73244 0.23132 0.0
C583 C 0.72009 0.72296 0.29837 0.0
C584 C 0.70785 0.789 0.26971 0.0
C585 C 0.77381 0.70674 0.23449 0.0
O586 O 0.75814 0.76033 0.22176 0.0
O587 O 0.78812 0.76881 0.19741 0.0
O588 O 0.78606 0.24 0.74153 0.0
Mn589 Mn 0.74924 0.24544 0.74792 0.0
O590 O 0.80123 0.27388 0.72791 0.0
Mn591 Mn 0.77217 0.27993 0.71312 0.0
O592 O 0.712 0.24843 0.7543 0.0
O593 O 0.74918 0.21239 0.76038 0.0
Mn594 Mn 0.73311 0.20913 0.78729 0.0
O595 O 0.75635 0.25891 0.78184 0.0
O596 O 0.70219 0.21713 0.77791 0.0
O597 O 0.74247 0.2324 0.71388 0.0
O598 O 0.76177 0.25834 0.68947 0.0
O599 O 0.74596 0.17932 0.77939 0.0
O600 O 0.74784 0.23048 0.80891 0.0
C601 C 0.74539 0.30146 0.72919 0.0
C602 C 0.80418 0.25296 0.7356 0.0
C603 C 0.69648 0.23482 0.76486 0.0
C604 C 0.75467 0.19022 0.76092 0.0
C605 C 0.75543 0.25139 0.80349 0.0
C606 C 0.749 0.23955 0.69304 0.0
O607 O 0.74911 0.2794 0.7352 0.0
O608 O 0.7602 0.31 0.71327 0.0
O609 O 0.78007 0.74282 0.76175 0.0
Mn610 Mn 0.74511 0.74795 0.74861 0.0
O611 O 0.77768 0.71679 0.79219 0.0
Mn612 Mn 0.74396 0.71591 0.79364 0.0
O613 O 0.70989 0.75326 0.73545 0.0
O614 O 0.75726 0.77861 0.73367 0.0
Mn615 Mn 0.74737 0.77899 0.7036 0.0
O616 O 0.75329 0.72757 0.71748 0.0
O617 O 0.71387 0.77864 0.70466 0.0
O618 O 0.73663 0.76792 0.77989 0.0
O619 O 0.73012 0.74172 0.80958 0.0
O620 O 0.76436 0.80695 0.70784 0.0
O621 O 0.76108 0.75321 0.68776 0.0
C622 C 0.72428 0.69646 0.76637 0.0
C623 C 0.7899 0.73025 0.77823 0.0
C624 C 0.70082 0.7659 0.71854 0.0
C625 C 0.76723 0.79922 0.72946 0.0
C626 C 0.75984 0.73204 0.69574 0.0
C627 C 0.73048 0.76302 0.80168 0.0
O628 O 0.73372 0.71744 0.7637 0.0
O629 O 0.72711 0.6878 0.78761 0.0
O630 O 0.52751 0.51551 0.48877 0.0
Mn631 Mn 0.49556 0.49742 0.49682 0.0
O632 O 0.55482 0.49486 0.50887 0.0
Mn633 Mn 0.53694 0.46659 0.50984 0.0
O634 O 0.46246 0.48059 0.50467 0.0
O635 O 0.48138 0.52981 0.50298 0.0
Mn636 Mn 0.45335 0.53269 0.4887 0.0
O637 O 0.4856 0.49801 0.4601 0.0
O638 O 0.43395 0.50916 0.50184 0.0
O639 O 0.50455 0.49664 0.53394 0.0
O640 O 0.52376 0.46208 0.53954 0.0
O641 O 0.45858 0.56115 0.50517 0.0
O642 O 0.45974 0.52871 0.45636 0.0
C643 C 0.52244 0.44979 0.47793 0.0
C644 C 0.5485 0.51354 0.49806 0.0
C645 C 0.44039 0.48784 0.50652 0.0
C646 C 0.47838 0.55097 0.51197 0.0
C647 C 0.47193 0.51149 0.44729 0.0
C648 C 0.51268 0.48026 0.54791 0.0
O649 O 0.51003 0.46414 0.4918 0.0
O650 O 0.54409 0.44559 0.48577 0.0
O651 O 0.97285 0.47418 0.98855 0.0
Mn652 Mn 0.00099 0.49798 -0.00341 0.0
O653 O 0.94283 0.49535 0.97249 0.0
Mn654 Mn 0.95174 0.52263 0.98938 0.0
O655 O 0.02987 0.52069 0.00484 0.0
O656 O 0.01911 0.47046 0.00854 0.0
Mn657 Mn 0.0496 0.46916 -0.00048 0.0
O658 O 0.01534 0.49267 0.96306 0.0
O659 O 0.06183 0.49708 0.01344 0.0
O660 O 0.98606 0.50337 0.03008 0.0
O661 O 0.94953 0.51996 0.02259 0.0
O662 O 0.04198 0.44088 0.01584 0.0
O663 O 0.04884 0.4701 0.96584 0.0
C664 C 0.97825 0.54639 0.97468 0.0
C665 C 0.95267 0.47551 0.97734 0.0
C666 C 0.05185 0.51759 0.01175 0.0
C667 C 0.02042 0.44967 0.01747 0.0
C668 C 0.03339 0.48177 0.95358 0.0
C669 C 0.96531 0.51125 0.03682 0.0
O670 O 0.98292 0.52599 0.98394 0.0
O671 O 0.95547 0.55179 0.97464 0.0
C672 C 0.02698 0.1593 0.08853 0.0
C673 C 0.0074 0.17477 0.08486 0.0
C674 C 0.02797 0.13676 0.07696 0.0
C675 C 0.00844 0.12916 0.06214 0.0
C676 C 0.98909 0.14516 0.05773 0.0
C677 C 0.98902 0.16791 0.06884 0.0
C678 C 0.04944 0.12077 0.08128 0.0
C679 C 0.96766 0.13773 0.04238 0.0
C680 C 0.00378 0.07558 0.01972 0.0
C681 C 0.98847 0.06071 0.03309 0.0
C682 C 0.01289 0.09711 0.02976 0.0
C683 C 0.00631 0.10375 0.05361 0.0
C684 C -0.00659 0.08718 0.06797 0.0
C685 C 0.98447 0.06595 0.05743 0.0
C686 C 0.02725 0.11379 0.014 0.0
C687 C 0.98643 0.0931 0.09363 0.0
H688 H 0.0414 0.16474 0.10072 0.0
H689 H 0.97385 0.1798 0.06607 0.0
H690 H 0.04363 0.10498 0.09172 0.0
H691 H 0.05684 0.11402 0.06391 0.0
H692 H 0.06418 0.13019 0.0913 0.0
H693 H 0.95466 0.15257 0.03983 0.0
H694 H 0.97395 0.13135 0.02446 0.0
H695 H 0.95787 0.12267 0.05096 0.0
H696 H 0.00664 0.07164 0.00077 0.0
H697 H 0.97248 0.05446 0.06768 0.0
H698 H 0.0418 0.12306 0.02437 0.0
H699 H 0.01499 0.12765 0.00688 0.0
H700 H 0.03556 0.10411 -0.00151 0.0
H701 H 0.00202 0.10095 0.10362 0.0
H702 H 0.97986 0.07708 0.10334 0.0
H703 H 0.97172 0.10657 0.09371 0.0
C704 C 0.05931 0.74505 0.3122 0.0
C705 C 0.06231 0.74143 0.33692 0.0
C706 C 0.0793 0.74884 0.29721 0.0
C707 C 0.10284 0.74803 0.30705 0.0
C708 C 0.10598 0.74588 0.33223 0.0
C709 C 0.08557 0.74271 0.34695 0.0
C710 C 0.07523 0.75206 0.27063 0.0
C711 C 0.13094 0.74519 0.34339 0.0
C712 C 0.15245 0.71573 0.27402 0.0
C713 C 0.16883 0.73439 0.26969 0.0
C714 C 0.12994 0.72029 0.28461 0.0
C715 C 0.12386 0.74412 0.29099 0.0
C716 C 0.13929 0.76328 0.28438 0.0
C717 C 0.16169 0.75815 0.2735 0.0
C718 C 0.11378 0.69938 0.29112 0.0
C719 C 0.13297 0.78894 0.29026 0.0
H720 H 0.04132 0.74453 0.30437 0.0
H721 H 0.08789 0.74036 0.36612 0.0
H722 H 0.08761 0.76597 0.26346 0.0
H723 H 0.07919 0.73506 0.26091 0.0
H724 H 0.0562 0.75713 0.26669 0.0
H725 H 0.1302 0.74642 0.36333 0.0
H726 H 0.13995 0.72819 0.33818 0.0
H727 H 0.14242 0.76005 0.33667 0.0
H728 H 0.15799 0.69739 0.27073 0.0
H729 H 0.17443 0.77256 0.26999 0.0
H730 H 0.095 0.70226 0.28468 0.0
H731 H 0.11296 0.69775 0.31098 0.0
H732 H 0.12042 0.6822 0.28337 0.0
H733 H 0.11628 0.79391 0.28047 0.0
H734 H 0.14776 0.80156 0.28528 0.0
H735 H 0.12911 0.79116 0.30975 0.0
C736 C 0.4724 0.83947 0.59101 0.0
C737 C 0.48651 0.82164 0.5798 0.0
C738 C 0.47273 0.86313 0.58279 0.0
C739 C 0.48776 0.8691 0.5631 0.0
C740 C 0.50152 0.85101 0.55133 0.0
C741 C 0.50053 0.82747 0.55968 0.0
C742 C 0.45756 0.88181 0.59554 0.0
C743 C 0.51807 0.85669 0.53043 0.0
C744 C 0.48569 0.92231 0.52241 0.0
C745 C 0.50685 0.93425 0.5297 0.0
C746 C 0.47726 0.90227 0.535 0.0
C747 C 0.49043 0.8943 0.5552 0.0
C748 C 0.50983 0.90842 0.5644 0.0
C749 C 0.51788 0.92825 0.5514 0.0
C750 C 0.45624 0.8879 0.52497 0.0
C751 C 0.52437 0.90077 0.5859 0.0
H752 H 0.46141 0.83504 0.60653 0.0
H753 H 0.51153 0.81383 0.55103 0.0
H754 H 0.46949 0.89568 0.60383 0.0
H755 H 0.44577 0.89096 0.58245 0.0
H756 H 0.44595 0.87402 0.60983 0.0
H757 H 0.52723 0.84053 0.52304 0.0
H758 H 0.50759 0.865 0.51578 0.0
H759 H 0.53221 0.86976 0.53626 0.0
H760 H 0.47749 0.92682 0.50539 0.0
H761 H 0.53438 0.93752 0.55687 0.0
H762 H 0.44276 0.88435 0.53935 0.0
H763 H 0.46276 0.87033 0.51818 0.0
H764 H 0.44714 0.89711 0.50996 0.0
H765 H 0.51237 0.8939 0.6003 0.0
H766 H 0.53556 0.91571 0.59339 0.0
H767 H 0.53674 0.88608 0.58037 0.0
C768 C 0.41073 0.26429 0.84889 0.0
C769 C 0.42593 0.25913 0.82929 0.0
C770 C 0.38568 0.26689 0.84572 0.0
C771 C 0.37571 0.26358 0.82252 0.0
C772 C 0.39098 0.25743 0.80281 0.0
C773 C 0.41604 0.25569 0.80639 0.0
C774 C 0.37005 0.2738 0.867 0.0
C775 C 0.3809 0.25292 0.77788 0.0
C776 C 0.31118 0.24866 0.80662 0.0
C777 C 0.30516 0.26917 0.79385 0.0
C778 C 0.33348 0.24728 0.81859 0.0
C779 C 0.34948 0.26716 0.81821 0.0
C780 C 0.34161 0.28912 0.80873 0.0
C781 C 0.31954 0.28979 0.7963 0.0
C782 C 0.3414 0.2235 0.82824 0.0
C783 C 0.35794 0.31091 0.80868 0.0
H784 H 0.41856 0.26715 0.86658 0.0
H785 H 0.4279 0.2515 0.79134 0.0
H786 H 0.36129 0.29124 0.86368 0.0
H787 H 0.35532 0.26044 0.86947 0.0
H788 H 0.38066 0.27528 0.88393 0.0
H789 H 0.39509 0.247 0.76492 0.0
H790 H 0.36645 0.23901 0.77845 0.0
H791 H 0.37258 0.2695 0.77106 0.0
H792 H 0.3002 0.23262 0.80439 0.0
H793 H 0.31482 0.30562 0.78635 0.0
H794 H 0.35176 0.22578 0.84518 0.0
H795 H 0.35347 0.2146 0.81489 0.0
H796 H 0.32569 0.21153 0.83161 0.0
H797 H 0.36781 0.31288 0.82597 0.0
H798 H 0.34755 0.3275 0.80543 0.0
H799 H 0.37167 0.3089 0.79416 0.0
C800 C 0.01783 0.84289 0.38516 0.0
C801 C -0.00173 0.82686 0.38536 0.0
C802 C 0.01688 0.86418 0.3987 0.0
C803 C -0.00444 0.86965 0.41191 0.0
C804 C 0.97509 0.85427 0.41054 0.0
C805 C 0.97687 0.83276 0.39756 0.0
C806 C 0.03923 0.87991 0.40023 0.0
C807 C 0.95184 0.8598 0.42388 0.0
C808 C 0.00534 0.90266 0.47061 0.0
C809 C -0.00015 0.92631 0.46457 0.0
C810 C 0.0036 0.88411 0.45366 0.0
C811 C -0.00388 0.88924 0.43002 0.0
C812 C 0.99009 0.9129 0.42377 0.0
C813 C -0.00785 0.93127 0.44115 0.0
C814 C 0.01023 0.85904 0.46101 0.0
C815 C 0.98164 0.91879 0.39877 0.0
H816 H 0.03431 0.83811 0.37559 0.0
H817 H 0.96166 0.82032 0.39725 0.0
H818 H 0.0346 0.89857 0.39573 0.0
H819 H 0.04627 0.88011 0.41892 0.0
H820 H 0.0539 0.87371 0.38796 0.0
H821 H 0.93663 0.84797 0.41797 0.0
H822 H 0.95461 0.85736 0.44343 0.0
H823 H 0.94657 0.87869 0.42119 0.0
H824 H 0.01124 0.89853 0.48865 0.0
H825 H 0.98782 0.94946 0.43636 0.0
H826 H 0.02542 0.85235 0.44968 0.0
H827 H -0.00541 0.84674 0.45815 0.0
H828 H 0.01574 0.85815 0.48018 0.0
H829 H -0.00357 0.91531 0.38565 0.0
H830 H 0.97605 0.93776 0.39729 0.0
H831 H 0.9661 0.90708 0.39359 0.0
C832 C 0.4036 0.75468 0.64151 0.0
C833 C 0.41922 0.74331 0.65762 0.0
C834 C 0.37937 0.75973 0.64785 0.0
C835 C 0.37054 0.75302 0.67073 0.0
C836 C 0.38643 0.74188 0.68715 0.0
C837 C 0.41046 0.73725 0.68041 0.0
C838 C 0.36333 0.77184 0.62985 0.0
C839 C 0.37801 0.73427 0.71182 0.0
C840 C 0.31762 0.76686 0.71024 0.0
C841 C 0.30511 0.7451 0.7078 0.0
C842 C 0.33691 0.77229 0.69453 0.0
C843 C 0.34434 0.75489 0.67724 0.0
C844 C 0.32893 0.73508 0.67221 0.0
C845 C 0.3091 0.73075 0.68737 0.0
C846 C 0.35136 0.79495 0.69863 0.0
C847 C 0.33515 0.71664 0.65306 0.0
H848 H 0.41025 0.75962 0.6239 0.0
H849 H 0.42244 0.72882 0.69314 0.0
H850 H 0.3532 0.75806 0.61934 0.0
H851 H 0.34995 0.78373 0.63886 0.0
H852 H 0.37422 0.7825 0.61695 0.0
H853 H 0.3923 0.72467 0.72181 0.0
H854 H 0.37269 0.75019 0.72266 0.0
H855 H 0.36186 0.72237 0.71025 0.0
H856 H 0.3143 0.77822 0.72585 0.0
H857 H 0.29884 0.71421 0.68524 0.0
H858 H 0.35975 0.80118 0.68164 0.0
H859 H 0.36608 0.79164 0.71172 0.0
H860 H 0.3397 0.80933 0.70619 0.0
H861 H 0.33306 0.72465 0.63509 0.0
H862 H 0.32316 0.7006 0.65386 0.0
H863 H 0.35424 0.7107 0.65477 0.0
C864 C 0.50433 0.16426 0.91047 0.0
C865 C 0.49091 0.18358 0.91932 0.0
C866 C 0.50638 0.14337 0.92362 0.0
C867 C 0.49396 0.14154 0.94581 0.0
C868 C 0.48061 0.16117 0.95509 0.0
C869 C 0.47956 0.18232 0.9418 0.0
C870 C 0.5213 0.12304 0.91333 0.0
C871 C 0.46699 0.15953 0.97859 0.0
C872 C 0.47952 0.0769 0.95563 0.0
C873 C 0.49943 0.07014 0.96931 0.0
C874 C 0.47621 0.10079 0.94967 0.0
C875 C 0.49333 0.11812 0.9577 0.0
C876 C 0.51247 0.11152 0.97317 0.0
C877 C 0.51543 0.08734 0.9787 0.0
C878 C 0.45584 0.10705 0.93279 0.0
C879 C 0.53107 0.12953 0.98201 0.0
H880 H 0.51349 0.16561 0.89324 0.0
H881 H 0.46934 0.1975 0.94856 0.0
H882 H 0.53483 0.11714 0.92669 0.0
H883 H 0.50932 0.10751 0.9091 0.0
H884 H 0.5311 0.1281 0.89665 0.0
H885 H 0.4583 0.17671 0.98379 0.0
H886 H 0.45271 0.14549 0.97715 0.0
H887 H 0.4795 0.15419 -0.00686 0.0
H888 H 0.46744 0.06324 0.94833 0.0
H889 H 0.53087 0.08175 0.98924 0.0
H890 H 0.46349 0.11179 0.91499 0.0
H891 H 0.44581 0.12284 0.93975 0.0
H892 H 0.44284 0.09198 0.9301 0.0
H893 H 0.54404 0.13347 0.96726 0.0
H894 H 0.54151 0.12272 -0.00249 0.0
H895 H 0.52231 0.1466 0.98737 0.0
C896 C 0.08429 0.26418 0.14419 0.0
C897 C 0.0605 0.26097 0.15255 0.0
C898 C 0.10414 0.26148 0.1597 0.0
C899 C 0.10004 0.25522 0.18402 0.0
C900 C 0.07612 0.25119 0.19227 0.0
C901 C 0.05664 0.25436 0.17652 0.0
C902 C 0.12948 0.26591 0.15025 0.0
C903 C 0.07103 0.24402 0.21787 0.0
C904 C 0.15718 0.23609 0.21624 0.0
C905 C 0.16535 0.25819 0.22535 0.0
C906 C 0.13491 0.2343 0.20403 0.0
C907 C 0.12066 0.25508 0.2012 0.0
C908 C 0.12765 0.27672 0.21283 0.0
C909 C 0.14996 0.27799 0.22478 0.0
C910 C 0.12796 0.2108 0.19219 0.0
C911 C 0.11282 0.2992 0.21058 0.0
H912 H 0.08736 0.26914 0.12565 0.0
H913 H 0.03831 0.25158 0.18307 0.0
H914 H 0.13774 0.28146 0.15989 0.0
H915 H 0.14109 0.25019 0.15365 0.0
H916 H 0.12967 0.26953 0.13066 0.0
H917 H 0.05163 0.23927 0.22077 0.0
H918 H 0.08236 0.22849 0.22272 0.0
H919 H 0.07591 0.25897 0.23031 0.0
H920 H 0.16919 0.2208 0.21649 0.0
H921 H 0.15634 0.29507 0.23191 0.0
H922 H 0.13333 0.21114 0.17295 0.0
H923 H 0.10807 0.20768 0.19301 0.0
H924 H 0.1373 0.19556 0.2007 0.0
H925 H 0.11408 0.30572 0.19187 0.0
H926 H 0.11924 0.31368 0.22295 0.0
H927 H 0.09339 0.29551 0.21441 0.0
C928 C 0.08405 0.96975 0.16602 0.0
C929 C 0.08198 0.98853 0.18269 0.0
C930 C 0.0713 0.97014 0.14427 0.0
C931 C 0.05703 0.99032 0.13876 0.0
C932 C 0.05441 0.0091 0.15593 0.0
C933 C 0.06667 0.00775 0.17799 0.0
C934 C 0.074 0.94946 0.12672 0.0
C935 C 0.03997 0.03119 0.15048 0.0
C936 C 0.05657 -0.00073 0.07172 0.0
C937 C 0.03401 0.98948 0.06527 0.0
C938 C 0.06342 0.00141 0.09586 0.0
C939 C 0.04761 0.99279 0.11392 0.0
C940 C 0.02427 0.98396 0.10757 0.0
C941 C 0.01759 0.98269 0.08319 0.0
C942 C 0.08811 0.01178 0.1019 0.0
C943 C 0.007 0.9744 0.12626 0.0
H944 H 0.09582 0.95484 0.16994 0.0
H945 H 0.06529 0.02228 0.19105 0.0
H946 H 0.05597 0.94363 0.11987 0.0
H947 H 0.08499 0.95521 0.11106 0.0
H948 H 0.08305 0.93391 0.13497 0.0
H949 H 0.03799 0.04315 0.16649 0.0
H950 H 0.04919 0.04134 0.13604 0.0
H951 H 0.02164 0.02623 0.14378 0.0
H952 H 0.06903 0.00504 0.0578 0.0
H953 H 7e-05 0.97528 0.07809 0.0
H954 H 0.10031 -0.00272 0.10774 0.0
H955 H 0.08673 0.02491 0.11699 0.0
H956 H 0.09662 0.02076 0.08627 0.0
H957 H 0.01362 0.95685 0.13247 0.0
H958 H 0.98835 0.9719 0.11902 0.0
H959 H 0.00621 0.98654 0.14218 0.0
C960 C 0.26837 0.84978 0.40751 0.0
C961 C 0.24472 0.85291 0.4161 0.0
C962 C 0.27286 0.83526 0.3873 0.0
C963 C 0.25319 0.82326 0.376 0.0
C964 C 0.22914 0.82686 0.38441 0.0
C965 C 0.22517 0.84196 0.40433 0.0
C966 C 0.29865 0.83205 0.37868 0.0
C967 C 0.2078 0.81384 0.37315 0.0
C968 C 0.25676 0.796 0.31352 0.0
C969 C 0.25854 0.7716 0.31871 0.0
C970 C 0.25617 0.81325 0.33203 0.0
C971 C 0.25768 0.80589 0.35618 0.0
C972 C 0.26136 0.78151 0.36147 0.0
C973 C 0.26176 0.76463 0.34263 0.0
C974 C 0.25242 0.83915 0.3258 0.0
C975 C 0.26324 0.77304 0.38708 0.0
H976 H 0.28339 0.85826 0.41701 0.0
H977 H 0.20698 0.84421 0.41148 0.0
H978 H 0.30427 0.81324 0.38116 0.0
H979 H 0.29995 0.83579 0.35918 0.0
H980 H 0.31161 0.84393 0.38851 0.0
H981 H 0.19023 0.81925 0.38137 0.0
H982 H 0.20712 0.81729 0.35358 0.0
H983 H 0.20994 0.79427 0.37535 0.0
H984 H 0.25444 0.80157 0.2951 0.0
H985 H 0.26351 0.74583 0.34677 0.0
H986 H 0.2663 0.85059 0.33484 0.0
H987 H 0.2344 0.84508 0.33244 0.0
H988 H 0.25333 0.84216 0.30612 0.0
H989 H 0.27703 0.78371 0.39712 0.0
H990 H 0.26813 0.75384 0.38802 0.0
H991 H 0.24559 0.77564 0.39638 0.0
C992 C 0.42877 0.99347 0.67792 0.0
C993 C 0.40613 0.00446 0.67573 0.0
C994 C 0.44313 0.98871 0.65773 0.0
C995 C 0.43509 -0.00383 0.63502 0.0
C996 C 0.4118 0.00648 0.63248 0.0
C997 C 0.39738 0.01021 0.65297 0.0
C998 C 0.46746 0.97693 0.66093 0.0
C999 C 0.40273 0.01485 0.60843 0.0
C1000 C 0.47827 0.0208 0.58926 0.0
C1001 C 0.47698 0.00303 0.57143 0.0
C1002 C 0.4663 0.01777 0.61118 0.0
C1003 C 0.45233 -0.00325 0.61472 0.0
C1004 C 0.45304 0.97777 0.59763 0.0
C1005 C 0.46588 0.98103 0.57619 0.0
C1006 C 0.46649 0.03809 0.62939 0.0
C1007 C 0.43825 0.95519 0.60073 0.0
H1008 H 0.43543 0.98864 0.69545 0.0
H1009 H 0.37973 0.0185 0.65131 0.0
H1010 H 0.47068 0.96332 0.64657 0.0
H1011 H 0.48207 0.99061 0.6596 0.0
H1012 H 0.46893 0.96819 0.67867 0.0
H1013 H 0.38324 0.01983 0.60905 0.0
H1014 H 0.41343 0.03072 0.60283 0.0
H1015 H 0.40524 0.00074 0.59444 0.0
H1016 H 0.48687 0.0378 0.58528 0.0
H1017 H 0.46478 0.96747 0.56205 0.0
H1018 H 0.47013 0.03133 0.64767 0.0
H1019 H 0.4484 0.04671 0.62981 0.0
H1020 H 0.48036 0.05191 0.62508 0.0
H1021 H 0.44064 0.94801 0.61905 0.0
H1022 H 0.44323 0.94113 0.58731 0.0
H1023 H 0.41871 0.95928 0.59853 0.0
C1024 C 0.24444 0.15867 0.90363 0.0
C1025 C 0.25888 0.16639 0.92292 0.0
C1026 C 0.24394 0.17132 0.88218 0.0
C1027 C 0.25921 0.1916 0.87952 0.0
C1028 C 0.27537 0.19835 0.89827 0.0
C1029 C 0.27454 0.18601 0.92014 0.0
C1030 C 0.22566 0.16394 0.86316 0.0
C1031 C 0.29282 0.21906 0.8955 0.0
C1032 C 0.25245 0.21229 0.81558 0.0
C1033 C 0.23316 0.22811 0.81871 0.0
C1034 C 0.26351 0.20202 0.83569 0.0
C1035 C 0.25471 0.20774 0.85909 0.0
C1036 C 0.237 0.22574 0.86215 0.0
C1037 C 0.22668 0.23589 0.84186 0.0
C1038 C 0.2826 0.18318 0.83163 0.0
C1039 C 0.22621 0.23181 0.88651 0.0
H1040 H 0.23239 0.14342 0.90583 0.0
H1041 H 0.28609 0.19163 0.93496 0.0
H1042 H 0.21281 0.17878 0.86005 0.0
H1043 H 0.23496 0.16003 0.84588 0.0
H1044 H 0.215 0.14785 0.86827 0.0
H1045 H 0.30723 0.21902 0.90945 0.0
H1046 H 0.30146 0.21849 0.87744 0.0
H1047 H 0.28288 0.23618 0.89712 0.0
H1048 H 0.25745 0.20636 0.7976 0.0
H1049 H 0.21187 0.24842 0.84412 0.0
H1050 H 0.27378 0.16534 0.83005 0.0
H1051 H 0.29559 0.18274 0.84683 0.0
H1052 H 0.29268 0.18626 0.81461 0.0
H1053 H 0.21517 0.21643 0.89281 0.0
H1054 H 0.21433 0.24776 0.88597 0.0
H1055 H 0.24063 0.2352 0.9 0.0
C1056 C 0.06204 0.97349 0.32401 0.0
C1057 C 0.08155 0.98941 0.32133 0.0
C1058 C 0.05294 0.96822 0.34693 0.0
C1059 C 0.06272 0.98033 0.36726 0.0
C1060 C 0.08472 0.99349 0.36478 0.0
C1061 C 0.09395 -0.00214 0.34166 0.0
C1062 C 0.03074 0.95246 0.34903 0.0
C1063 C 0.09646 0.00604 0.38598 0.0
C1064 C 0.01523 0.01461 0.40188 0.0
C1065 C 0.01752 0.00581 0.42521 0.0
C1066 C 0.02981 0.00628 0.38312 0.0
C1067 C 0.04587 0.98709 0.38714 0.0
C1068 C 0.04627 0.97609 0.41 0.0
C1069 C 0.03243 0.986 0.42907 0.0
C1070 C 0.02891 0.01924 0.35939 0.0
C1071 C 0.06133 0.95417 0.41439 0.0
H1072 H 0.05308 0.96619 0.30815 0.0
H1073 H 0.10957 0.00955 0.33946 0.0
H1074 H 0.03095 0.94246 0.36612 0.0
H1075 H 0.01421 0.96369 0.34898 0.0
H1076 H 0.02947 0.93955 0.3337 0.0
H1077 H 0.11595 0.00991 0.38245 0.0
H1078 H 0.08711 0.02328 0.3894 0.0
H1079 H 0.09496 -0.00475 0.40248 0.0
H1080 H 0.00324 0.02949 0.39854 0.0
H1081 H 0.03397 0.97885 0.44698 0.0
H1082 H 0.02217 0.00702 0.34499 0.0
H1083 H 0.04734 0.02546 0.35419 0.0
H1084 H 0.01686 0.03508 0.36008 0.0
H1085 H 0.05301 0.9387 0.40472 0.0
H1086 H 0.06233 0.94985 0.43381 0.0
H1087 H 0.08 0.95637 0.40723 0.0
C1088 C 0.2722 0.82703 0.57714 0.0
C1089 C 0.25754 0.82045 0.55754 0.0
C1090 C 0.2689 0.81627 0.59953 0.0
C1091 C 0.25024 0.79897 0.60221 0.0
C1092 C 0.23601 0.79174 0.58224 0.0
C1093 C 0.24016 0.80228 0.56 0.0
C1094 C 0.28429 0.82445 0.6206 0.0
C1095 C 0.21509 0.77431 0.58479 0.0
C1096 C 0.24645 0.76121 0.65813 0.0
C1097 C 0.22877 0.7736 0.67132 0.0
C1098 C 0.25377 0.76929 0.63545 0.0
C1099 C 0.24353 0.79045 0.62631 0.0
C1100 C 0.22579 0.80305 0.63966 0.0
C1101 C 0.21833 0.79422 0.66176 0.0
C1102 C 0.27256 0.75543 0.62136 0.0
C1103 C 0.21503 0.82618 0.63093 0.0
H1104 H 0.28554 0.84123 0.57521 0.0
H1105 H 0.22847 0.79756 0.54497 0.0
H1106 H 0.27275 0.83351 0.63429 0.0
H1107 H 0.29263 0.80883 0.62936 0.0
H1108 H 0.29894 0.83702 0.61516 0.0
H1109 H 0.20695 0.76925 0.56716 0.0
H1110 H 0.22118 0.75788 0.59385 0.0
H1111 H 0.20071 0.7825 0.59618 0.0
H1112 H 0.25471 0.74545 0.66565 0.0
H1113 H 0.20505 0.80429 0.67208 0.0
H1114 H 0.28842 0.7671 0.61747 0.0
H1115 H 0.26485 0.74952 0.60382 0.0
H1116 H 0.27896 0.73948 0.63112 0.0
H1117 H 0.22962 0.83971 0.62852 0.0
H1118 H 0.20137 0.83367 0.64365 0.0
H1119 H 0.20622 0.82329 0.61321 0.0
C1120 C 0.4315 0.00794 0.82541 0.0
C1121 C 0.4108 -0.00202 0.81473 0.0
C1122 C 0.43536 0.00577 0.85015 0.0
C1123 C 0.41868 0.99231 0.86404 0.0
C1124 C 0.39706 0.98342 0.85348 0.0
C1125 C 0.3932 0.98669 0.82888 0.0
C1126 C 0.45798 0.01672 0.86114 0.0
C1127 C 0.37887 0.96911 0.86773 0.0
C1128 C 0.45582 0.96322 0.91135 0.0
C1129 C 0.45331 0.97976 0.9303 0.0
C1130 C 0.44204 0.96535 0.89041 0.0
C1131 C 0.42592 0.98482 0.88839 0.0
C1132 C 0.42095 -0.0005 0.90872 0.0
C1133 C 0.43455 -0.00352 0.92975 0.0
C1134 C 0.44719 0.94874 0.86937 0.0
C1135 C 0.40384 0.02037 0.90753 0.0
H1136 H 0.44485 0.017 0.81435 0.0
H1137 H 0.37716 0.97905 0.8204 0.0
H1138 H 0.4534 0.02661 0.87798 0.0
H1139 H 0.47087 0.00236 0.86581 0.0
H1140 H 0.46727 0.02919 0.84869 0.0
H1141 H 0.36183 0.96576 0.85755 0.0
H1142 H 0.38689 0.95162 0.87236 0.0
H1143 H 0.37441 0.97852 0.88486 0.0
H1144 H 0.47021 0.9501 0.91195 0.0
H1145 H 0.43253 0.00908 0.94455 0.0
H1146 H 0.45911 0.95802 0.8563 0.0
H1147 H 0.43015 0.94367 0.85992 0.0
H1148 H 0.45649 0.93222 0.8751 0.0
H1149 H 0.41454 0.03696 0.90451 0.0
H1150 H 0.394 0.0226 0.92482 0.0
H1151 H 0.39036 0.0184 0.89286 0.0
C1152 C 0.23868 0.1339 0.0911 0.0
C1153 C 0.25443 0.13921 0.07203 0.0
C1154 C 0.23949 0.14721 0.11272 0.0
C1155 C 0.25686 0.16586 0.11545 0.0
C1156 C 0.27394 0.17006 0.09687 0.0
C1157 C 0.27231 0.15689 0.07526 0.0
C1158 C 0.22061 0.1425 0.13185 0.0
C1159 C 0.29305 0.18943 0.09925 0.0
C1160 C 0.23902 0.22073 0.15183 0.0
C1161 C 0.2508 0.21715 0.17384 0.0
C1162 C 0.24062 0.20397 0.13298 0.0
C1163 C 0.25483 0.18324 0.13588 0.0
C1164 C 0.26697 0.17952 0.15795 0.0
C1165 C 0.26452 0.1964 0.17685 0.0
C1166 C 0.22692 0.20842 0.10996 0.0
C1167 C 0.28255 0.1578 0.16154 0.0
H1168 H 0.2248 0.12024 0.08865 0.0
H1169 H 0.28475 0.16078 0.06067 0.0
H1170 H 0.22919 0.14137 0.14982 0.0
H1171 H 0.20763 0.15758 0.13262 0.0
H1172 H 0.21025 0.12572 0.12825 0.0
H1173 H 0.30705 0.18806 0.08488 0.0
H1174 H 0.28434 0.2072 0.09811 0.0
H1175 H 0.30212 0.18855 0.117 0.0
H1176 H 0.22801 0.23651 0.14945 0.0
H1177 H 0.2736 0.19353 0.19383 0.0
H1178 H 0.21451 0.19316 0.10593 0.0
H1179 H 0.23982 0.20982 0.09469 0.0
H1180 H 0.21603 0.22505 0.11091 0.0
H1181 H 0.27117 0.14138 0.16044 0.0
H1182 H 0.29196 0.15826 0.17919 0.0
H1183 H 0.29637 0.15647 0.14703 0.0
C1184 C 0.16645 0.08305 0.97304 0.0
C1185 C 0.17283 0.10223 0.98824 0.0
C1186 C 0.14325 0.07277 0.97394 0.0
C1187 C 0.12601 0.08173 0.99067 0.0
C1188 C 0.13227 0.10118 0.00609 0.0
C1189 C 0.15561 0.11144 0.00448 0.0
C1190 C 0.13745 0.0518 0.95742 0.0
C1191 C 0.1147 0.11046 0.02483 0.0
C1192 C 0.06288 0.05981 0.9744 0.0
C1193 C 0.06232 0.03829 0.98681 0.0
C1194 C 0.08275 0.07558 0.9772 0.0
C1195 C 0.10214 0.06942 -0.00734 0.0
C1196 C 0.10026 0.04873 0.00687 0.0
C1197 C 0.0804 0.03339 0.00365 0.0
C1198 C 0.08395 0.09785 0.96228 0.0
C1199 C 0.12018 0.04141 0.02382 0.0
H1200 H 0.17974 0.07593 0.96048 0.0
H1201 H 0.16066 0.12607 0.0165 0.0
H1202 H 0.13399 0.03559 0.96822 0.0
H1203 H 0.12073 0.05538 0.94702 0.0
H1204 H 0.15243 0.04787 0.94458 0.0
H1205 H 0.12195 0.12638 0.0347 0.0
H1206 H 0.09722 0.11521 0.01633 0.0
H1207 H 0.11071 0.09627 0.03803 0.0
H1208 H 0.04861 0.06364 0.96167 0.0
H1209 H 0.07958 0.01682 0.01354 0.0
H1210 H 0.09755 0.09536 0.94772 0.0
H1211 H 0.0899 0.11341 0.97343 0.0
H1212 H 0.06615 0.10196 0.95401 0.0
H1213 H 0.13482 0.0325 0.01336 0.0
H1214 H 0.11341 0.02863 0.03746 0.0
H1215 H 0.12827 0.05713 0.03326 0.0
C1216 C 0.67377 0.42115 0.02639 0.0
C1217 C 0.68135 0.40746 0.00668 0.0
C1218 C 0.65407 0.43655 0.02431 0.0
C1219 C 0.64232 0.4385 0.00179 0.0
C1220 C 0.65132 0.4261 0.98135 0.0
C1221 C 0.67061 0.41028 0.98415 0.0
C1222 C 0.64483 0.44941 0.04654 0.0
C1223 C 0.63992 0.42866 0.95687 0.0
C1224 C 0.57572 0.44407 0.01212 0.0
C1225 C 0.57262 0.46884 0.01142 0.0
C1226 C 0.59806 0.43386 0.00692 0.0
C1227 C 0.6179 0.44894 0.00128 0.0
C1228 C 0.61453 0.47388 -0.00116 0.0
C1229 C 0.59161 0.48366 0.00385 0.0
C1230 C 0.60067 0.40704 0.0089 0.0
C1231 C 0.63523 0.49031 0.99215 0.0
H1232 H 0.68282 0.41927 0.04356 0.0
H1233 H 0.67745 0.40025 0.96875 0.0
H1234 H 0.64206 0.46863 0.04286 0.0
H1235 H 0.62699 0.44172 0.05181 0.0
H1236 H 0.65746 0.44787 0.06198 0.0
H1237 H 0.65204 0.42198 0.9423 0.0
H1238 H 0.62271 0.41826 0.95609 0.0
H1239 H 0.63547 0.44763 0.95345 0.0
H1240 H 0.56055 0.43261 0.01696 0.0
H1241 H 0.58878 0.50277 0.00267 0.0
H1242 H 0.61285 0.40287 0.02411 0.0
H1243 H 0.60895 0.39946 0.99231 0.0
H1244 H 0.58296 0.39789 0.01187 0.0
H1245 H 0.64584 0.49495 0.00851 0.0
H1246 H 0.6285 0.5072 0.98436 0.0
H1247 H 0.6477 0.48157 0.97908 0.0
C1248 C 0.83184 0.42083 0.23701 0.0
C1249 C 0.85675 0.42253 0.24156 0.0
C1250 C 0.81934 0.39936 0.24042 0.0
C1251 C 0.83209 0.37937 0.24906 0.0
C1252 C 0.8573 0.38092 0.25351 0.0
C1253 C 0.86947 0.40255 0.24944 0.0
C1254 C 0.7926 0.39801 0.23446 0.0
C1255 C 0.87126 0.35987 0.26279 0.0
C1256 C 0.78935 0.33368 0.275 0.0
C1257 C 0.78657 0.31804 0.25533 0.0
C1258 C 0.80586 0.35278 0.27399 0.0
C1259 C 0.81891 0.35663 0.25243 0.0
C1260 C 0.81679 0.34028 0.23289 0.0
C1261 C 0.80107 0.32066 0.23489 0.0
C1262 C 0.80779 0.36993 0.29514 0.0
C1263 C 0.82962 0.34444 0.20924 0.0
H1264 H 0.82213 0.43631 0.23065 0.0
H1265 H 0.88875 0.40404 0.25312 0.0
H1266 H 0.78927 0.38362 0.22088 0.0
H1267 H 0.78199 0.39346 0.25076 0.0
H1268 H 0.78564 0.41508 0.2273 0.0
H1269 H 0.89065 0.36432 0.26619 0.0
H1270 H 0.86293 0.35355 0.27976 0.0
H1271 H 0.87031 0.34484 0.24957 0.0
H1272 H 0.77775 0.33166 0.29063 0.0
H1273 H 0.79838 0.30871 0.21958 0.0
H1274 H 0.79841 0.38683 0.29085 0.0
H1275 H 0.82707 0.37444 0.2989 0.0
H1276 H 0.7994 0.36249 0.31163 0.0
H1277 H 0.82932 0.36356 0.20422 0.0
H1278 H 0.82117 0.334 0.19431 0.0
H1279 H 0.84889 0.33911 0.21086 0.0
C1280 C 0.8312 0.5883 0.47698 0.0
C1281 C 0.81618 0.57567 0.49292 0.0
C1282 C 0.85607 0.58314 0.47492 0.0
C1283 C 0.86621 0.56535 0.48957 0.0
C1284 C 0.85102 0.5524 0.50551 0.0
C1285 C 0.82617 0.55749 0.5067 0.0
C1286 C 0.87151 0.59714 0.45759 0.0
C1287 C 0.86114 0.53374 0.52207 0.0
C1288 C 0.92349 0.52994 0.48735 0.0
C1289 C 0.93592 0.54072 0.50661 0.0
C1290 C 0.90214 0.54021 0.47851 0.0
C1291 C 0.89282 0.561 0.49 0.0
C1292 C 0.90739 0.5737 0.50691 0.0
C1293 C 0.92896 0.56337 0.51487 0.0
C1294 C 0.88797 0.52721 0.4591 0.0
C1295 C 0.89926 0.59693 0.51847 0.0
H1296 H 0.82354 0.60233 0.46617 0.0
H1297 H 0.81471 0.54779 0.51914 0.0
H1298 H 0.88295 0.61014 0.46776 0.0
H1299 H 0.88384 0.58506 0.4474 0.0
H1300 H 0.86031 0.60721 0.44465 0.0
H1301 H 0.8471 0.52627 0.53428 0.0
H1302 H 0.86896 0.51879 0.51134 0.0
H1303 H 0.87595 0.54161 0.53321 0.0
H1304 H 0.92868 0.51227 0.4811 0.0
H1305 H 0.93903 0.57182 0.52947 0.0
H1306 H 0.88014 0.54013 0.44634 0.0
H1307 H 0.8727 0.51717 0.46732 0.0
H1308 H 0.89946 0.51429 0.44896 0.0
H1309 H 0.90283 0.61172 0.50584 0.0
H1310 H 0.90933 0.60102 0.53534 0.0
H1311 H 0.87955 0.59676 0.52264 0.0
C1312 C 0.1698 0.07344 0.22208 0.0
C1313 C 0.14898 0.07458 0.23661 0.0
C1314 C 0.18489 0.09362 0.21912 0.0
C1315 C 0.17972 0.11506 0.23196 0.0
C1316 C 0.15788 0.11665 0.24548 0.0
C1317 C 0.14258 0.09651 0.24726 0.0
C1318 C 0.20708 0.09155 0.20328 0.0
C1319 C 0.15168 0.13893 0.25984 0.0
C1320 C 0.23226 0.14781 0.26134 0.0
C1321 C 0.23036 0.17089 0.25187 0.0
C1322 C 0.21631 0.12943 0.25447 0.0
C1323 C 0.19924 0.13339 0.23602 0.0
C1324 C 0.19955 0.15558 0.22388 0.0
C1325 C 0.21469 0.1744 0.23239 0.0
C1326 C 0.21632 0.10654 0.26867 0.0
C1327 C 0.18337 0.15965 0.20252 0.0
H1328 H 0.17438 0.05671 0.21313 0.0
H1329 H 0.12627 0.09755 0.25818 0.0
H1330 H 0.21015 0.10829 0.19319 0.0
H1331 H 0.22334 0.08856 0.21453 0.0
H1332 H 0.20542 0.07636 0.19028 0.0
H1333 H 0.13313 0.13804 0.26768 0.0
H1334 H 0.16492 0.14132 0.27472 0.0
H1335 H 0.15297 0.15497 0.24844 0.0
H1336 H 0.24483 0.14454 0.27587 0.0
H1337 H 0.21355 0.19195 0.22449 0.0
H1338 H 0.21953 0.09094 0.25661 0.0
H1339 H 0.19834 0.10391 0.27734 0.0
H1340 H 0.23041 0.10661 0.28294 0.0
H1341 H 0.18687 0.14575 0.18851 0.0
H1342 H 0.18635 0.17756 0.19457 0.0
H1343 H 0.16403 0.15794 0.20781 0.0
C1344 C 0.32417 0.90715 0.47042 0.0
C1345 C 0.3082 0.92118 0.48405 0.0
C1346 C 0.34884 0.91295 0.46939 0.0
C1347 C 0.35748 0.93291 0.48272 0.0
C1348 C 0.3414 0.94665 0.4972 0.0
C1349 C 0.31668 0.94083 0.49735 0.0
C1350 C 0.36554 0.89799 0.45387 0.0
C1351 C 0.35031 0.96746 0.51249 0.0
C1352 C 0.423 0.94579 0.49758 0.0
C1353 C 0.42761 0.96457 0.48186 0.0
C1354 C 0.40059 0.93378 0.49701 0.0
C1355 C 0.38288 0.94086 0.48018 0.0
C1356 C 0.38847 0.95836 0.46288 0.0
C1357 C 0.41088 0.97008 0.464 0.0
C1358 C 0.39532 0.91486 0.51546 0.0
C1359 C 0.36985 0.96658 0.44494 0.0
H1360 H 0.31724 0.89185 0.46029 0.0
H1361 H 0.3041 0.95121 0.50822 0.0
H1362 H 0.37377 0.9092 0.43967 0.0
H1363 H 0.38059 0.89103 0.46492 0.0
H1364 H 0.35593 0.88265 0.44512 0.0
H1365 H 0.33556 0.97559 0.52347 0.0
H1366 H 0.36482 0.96142 0.52477 0.0
H1367 H 0.35829 0.98143 0.50086 0.0
H1368 H 0.43587 0.94211 0.51174 0.0
H1369 H 0.41455 0.98495 0.45218 0.0
H1370 H 0.39606 0.89697 0.5066 0.0
H1371 H 0.37691 0.91694 0.52331 0.0
H1372 H 0.40871 0.91535 0.53037 0.0
H1373 H 0.36104 0.95102 0.43584 0.0
H1374 H 0.37797 0.97829 0.43106 0.0
H1375 H 0.35544 0.97675 0.45451 0.0
C1376 C 0.83586 0.5873 0.25833 0.0
C1377 C 0.8246 0.56583 0.25115 0.0
C1378 C 0.82481 0.60922 0.2543 0.0
C1379 C 0.8018 0.60959 0.24314 0.0
C1380 C 0.7898 0.588 0.23675 0.0
C1381 C 0.80139 0.56623 0.2409 0.0
C1382 C 0.83817 0.63201 0.26128 0.0
C1383 C 0.76522 0.58795 0.22479 0.0
C1384 C 0.77031 0.6679 0.25457 0.0
C1385 C 0.77815 0.68103 0.23476 0.0
C1386 C 0.77656 0.64392 0.2568 0.0
C1387 C 0.79052 0.63286 0.23849 0.0
C1388 C 0.79689 0.64555 0.21752 0.0
C1389 C 0.79097 0.66978 0.21609 0.0
C1390 C 0.76996 0.63112 0.27966 0.0
C1391 C 0.81125 0.63405 0.19734 0.0
H1392 H 0.85382 0.58707 0.26627 0.0
H1393 H 0.79271 0.54963 0.23523 0.0
H1394 H 0.84196 0.64266 0.24501 0.0
H1395 H 0.82677 0.64313 0.27346 0.0
H1396 H 0.85569 0.62849 0.27039 0.0
H1397 H 0.75799 0.56956 0.22173 0.0
H1398 H 0.75205 0.59815 0.23596 0.0
H1399 H 0.76654 0.597 0.20721 0.0
H1400 H 0.76046 0.67677 0.26902 0.0
H1401 H 0.79667 0.68001 0.20063 0.0
H1402 H 0.78637 0.62961 0.29106 0.0
H1403 H 0.76328 0.61274 0.27567 0.0
H1404 H 0.75586 0.64084 0.29014 0.0
H1405 H 0.83056 0.63275 0.20275 0.0
H1406 H 0.81034 0.64458 0.18058 0.0
H1407 H 0.80453 0.61565 0.19346 0.0
C1408 C 0.64494 0.40103 0.75288 0.0
C1409 C 0.6597 0.42148 0.75547 0.0
C1410 C 0.65489 0.37803 0.75311 0.0
C1411 C 0.6802 0.37544 0.75619 0.0
C1412 C 0.69487 0.39595 0.76079 0.0
C1413 C 0.68447 0.41878 0.76015 0.0
C1414 C 0.63858 0.35673 0.74809 0.0
C1415 C 0.72193 0.39392 0.76445 0.0
C1416 C 0.71532 0.3172 0.75966 0.0
C1417 C 0.7241 0.31574 0.73606 0.0
C1418 C 0.69915 0.33558 0.76641 0.0
C1419 C 0.69214 0.35266 0.74912 0.0
C1420 C 0.69923 0.34959 0.72484 0.0
C1421 C 0.71491 0.33106 0.71865 0.0
C1422 C 0.69104 0.33769 0.79225 0.0
C1423 C 0.69213 0.36712 0.70565 0.0
H1424 H 0.62568 0.40297 0.74951 0.0
H1425 H 0.69586 0.43451 0.76265 0.0
H1426 H 0.6404 0.35123 0.72893 0.0
H1427 H 0.64383 0.34129 0.75918 0.0
H1428 H 0.6192 0.36096 0.75159 0.0
H1429 H 0.73013 0.41095 0.77115 0.0
H1430 H 0.72601 0.37961 0.77741 0.0
H1431 H 0.73072 0.38901 0.7471 0.0
H1432 H 0.72221 0.30511 0.77304 0.0
H1433 H 0.72125 0.32949 0.70021 0.0
H1434 H 0.67185 0.34348 0.79346 0.0
H1435 H 0.70233 0.35138 0.80166 0.0
H1436 H 0.69302 0.32048 0.80177 0.0
H1437 H 0.67218 0.36956 0.70546 0.0
H1438 H 0.69801 0.36123 0.68739 0.0
H1439 H 0.70056 0.38482 0.70961 0.0
C1440 C 0.01501 0.84239 0.90208 0.0
C1441 C -0.00317 0.82491 0.90019 0.0
C1442 C 0.01154 0.86312 0.91613 0.0
C1443 C 0.98897 0.86687 0.92792 0.0
C1444 C 0.97008 0.84976 0.92507 0.0
C1445 C 0.9744 0.8287 0.91158 0.0
C1446 C 0.03237 0.88068 0.91891 0.0
C1447 C 0.94543 0.85365 0.9363 0.0
C1448 C 0.00194 0.90677 0.98108 0.0
C1449 C 0.00061 0.92925 0.97043 0.0
C1450 C -0.00521 0.88601 0.96847 0.0
C1451 C 0.98639 0.8879 0.94453 0.0
C1452 C 0.9815 0.91085 0.93524 0.0
C1453 C 0.98878 0.93137 0.94837 0.0
C1454 C -0.00029 0.86203 0.97951 0.0
C1455 C 0.97165 0.91391 0.91022 0.0
H1456 H 0.03231 0.83944 0.8932 0.0
H1457 H 0.96016 0.81533 0.90967 0.0
H1458 H 0.02677 0.8986 0.9128 0.0
H1459 H 0.0375 0.88242 0.93815 0.0
H1460 H 0.04867 0.87513 0.90849 0.0
H1461 H 0.93221 0.83945 0.93098 0.0
H1462 H 0.94698 0.85401 0.95618 0.0
H1463 H 0.93817 0.87123 0.93092 0.0
H1464 H 0.01101 0.90516 -0.00173 0.0
H1465 H 0.98779 0.9487 0.94016 0.0
H1466 H 0.01703 0.85492 0.97222 0.0
H1467 H 0.98516 0.84893 0.975 0.0
H1468 H 0.00131 0.86345 -0.00061 0.0
H1469 H 0.98704 0.91569 0.89744 0.0
H1470 H 0.96062 0.93042 0.90922 0.0
H1471 H 0.96034 0.8984 0.90438 0.0
C1472 C 0.92416 0.25933 0.67311 0.0
C1473 C 0.93925 0.23944 0.67138 0.0
C1474 C 0.90018 0.25681 0.6811 0.0
C1475 C 0.89123 0.23378 0.68695 0.0
C1476 C 0.90572 0.2134 0.68284 0.0
C1477 C 0.92988 0.21652 0.67556 0.0
C1478 C 0.88482 0.27889 0.6844 0.0
C1479 C 0.89594 0.18849 0.68691 0.0
C1480 C 0.84724 0.24034 0.7383 0.0
C1481 C 0.82534 0.24075 0.72584 0.0
C1482 C 0.86885 0.23528 0.72593 0.0
C1483 C 0.86829 0.23174 0.70061 0.0
C1484 C 0.84582 0.23008 0.68848 0.0
C1485 C 0.82451 0.23423 0.70145 0.0
C1486 C 0.89254 0.236 0.73952 0.0
C1487 C 0.84403 0.2267 0.66155 0.0
H1488 H 0.93141 0.27692 0.6691 0.0
H1489 H 0.94146 0.20106 0.67307 0.0
H1490 H 0.86688 0.27623 0.67571 0.0
H1491 H 0.88156 0.2822 0.70386 0.0
H1492 H 0.89362 0.29503 0.67676 0.0
H1493 H 0.90826 0.17453 0.67956 0.0
H1494 H 0.89355 0.18563 0.70647 0.0
H1495 H 0.87785 0.18624 0.67839 0.0
H1496 H 0.84765 0.24538 0.75719 0.0
H1497 H 0.80732 0.23465 0.69198 0.0
H1498 H 0.90276 0.25249 0.73487 0.0
H1499 H 0.90395 0.22048 0.7343 0.0
H1500 H 0.88969 0.23586 0.75929 0.0
H1501 H 0.84337 0.24452 0.65307 0.0
H1502 H 0.82704 0.21699 0.6566 0.0
H1503 H 0.85974 0.21687 0.65394 0.0
C1504 C 0.48346 0.15681 0.40197 0.0
C1505 C 0.50041 0.17478 0.40761 0.0
C1506 C 0.48544 0.1339 0.4118 0.0
C1507 C 0.50528 0.12868 0.42707 0.0
C1508 C 0.52372 0.14611 0.43075 0.0
C1509 C 0.52077 0.16915 0.42146 0.0
C1510 C 0.4652 0.116 0.4075 0.0
C1511 C 0.54585 0.14089 0.44568 0.0
C1512 C 0.48533 0.09299 0.48046 0.0
C1513 C 0.48954 0.06939 0.47281 0.0
C1514 C 0.49152 0.11236 0.46616 0.0
C1515 C 0.50315 0.10821 0.44382 0.0
C1516 C 0.51003 0.08456 0.43714 0.0
C1517 C 0.50285 0.0652 0.4517 0.0
C1518 C 0.48367 0.13712 0.47423 0.0
C1519 C 0.52383 0.07959 0.41419 0.0
H1520 H 0.46803 0.16099 0.39075 0.0
H1521 H 0.53446 0.18277 0.42503 0.0
H1522 H 0.47266 0.09826 0.40248 0.0
H1523 H 0.4546 0.11383 0.42434 0.0
H1524 H 0.45265 0.12171 0.39311 0.0
H1525 H 0.56077 0.15389 0.44228 0.0
H1526 H 0.54108 0.14197 0.46505 0.0
H1527 H 0.55253 0.12254 0.44187 0.0
H1528 H 0.47555 0.0963 0.49712 0.0
H1529 H 0.50637 0.04698 0.4459 0.0
H1530 H 0.47086 0.14457 0.46096 0.0
H1531 H 0.49957 0.14934 0.47531 0.0
H1532 H 0.4746 0.13712 0.49208 0.0
H1533 H 0.51153 0.08138 0.39859 0.0
H1534 H 0.5315 0.06126 0.41379 0.0
H1535 H 0.53881 0.09275 0.41199 0.0
C1536 C 0.58721 0.73242 0.12763 0.0
C1537 C 0.57563 0.75436 0.13171 0.0
C1538 C 0.60843 0.72673 0.1401 0.0
C1539 C 0.61847 0.74367 0.15646 0.0
C1540 C 0.60806 0.7667 0.15882 0.0
C1541 C 0.58648 0.77164 0.14665 0.0
C1542 C 0.61873 0.7019 0.13738 0.0
C1543 C 0.6186 0.78547 0.17565 0.0
C1544 C 0.64723 0.72417 0.21434 0.0
C1545 C 0.67176 0.73005 0.21048 0.0
C1546 C 0.62987 0.72744 0.19641 0.0
C1547 C 0.63727 0.73632 0.17386 0.0
C1548 C 0.66221 0.74025 0.16912 0.0
C1549 C 0.67924 0.73707 0.18751 0.0
C1550 C 0.60339 0.72315 0.20229 0.0
C1551 C 0.6707 0.74922 0.14514 0.0
H1552 H 0.57867 0.71897 0.11615 0.0
H1553 H 0.57753 0.78865 0.14957 0.0
H1554 H 0.63877 0.70266 0.13554 0.0
H1555 H 0.61452 0.69154 0.15376 0.0
H1556 H 0.61102 0.69212 0.1216 0.0
H1557 H 0.61033 0.8033 0.17299 0.0
H1558 H 0.61539 0.78013 0.19453 0.0
H1559 H 0.63852 0.78706 0.17302 0.0
H1560 H 0.64122 0.71838 0.23191 0.0
H1561 H 0.69817 0.74138 0.18425 0.0
H1562 H 0.59467 0.71192 0.1881 0.0
H1563 H 0.59371 0.74049 0.20294 0.0
H1564 H 0.60087 0.71428 0.21987 0.0
H1565 H 0.66612 0.73595 0.13081 0.0
H1566 H 0.69059 0.75262 0.14483 0.0
H1567 H 0.66111 0.766 0.14087 0.0
C1568 C 0.00219 0.15353 0.61268 0.0
C1569 C 0.00067 0.17499 0.60011 0.0
C1570 C 0.00313 0.13164 0.60033 0.0
C1571 C 0.0029 0.13145 0.57494 0.0
C1572 C -0.00025 0.15291 0.56221 0.0
C1573 C -0.00149 0.17453 0.57503 0.0
C1574 C 0.00552 0.10885 0.61434 0.0
C1575 C -0.00109 0.15318 0.53506 0.0
C1576 C 0.03519 0.08187 0.54133 0.0
C1577 C 0.01558 0.06727 0.53475 0.0
C1578 C 0.03136 0.10257 0.55526 0.0
C1579 C 0.00731 0.10896 0.56169 0.0
C1580 C 0.98752 0.09422 0.55494 0.0
C1581 C -0.00798 0.07316 0.54204 0.0
C1582 C 0.05279 0.11819 0.56217 0.0
C1583 C 0.96157 0.10118 0.56033 0.0
H1584 H 0.00329 0.1539 0.63214 0.0
H1585 H -0.00288 0.19114 0.56533 0.0
H1586 H 0.99147 0.09568 0.60854 0.0
H1587 H 0.0235 0.10073 0.61063 0.0
H1588 H 0.00374 0.11197 0.63404 0.0
H1589 H -0.00625 0.17097 0.52813 0.0
H1590 H 0.01703 0.1485 0.52769 0.0
H1591 H 0.98579 0.13963 0.52811 0.0
H1592 H 0.05327 0.07749 0.53497 0.0
H1593 H 0.9769 0.06216 0.53601 0.0
H1594 H 0.05298 0.12136 0.58192 0.0
H1595 H 0.05117 0.13588 0.55357 0.0
H1596 H 0.07036 0.11013 0.55668 0.0
H1597 H 0.95792 0.09914 0.57982 0.0
H1598 H 0.94831 0.09002 0.55006 0.0
H1599 H 0.95837 0.12017 0.55594 0.0
C1600 C 0.58307 0.26251 0.33509 0.0
C1601 C 0.57525 0.24169 0.34627 0.0
C1602 C 0.60539 0.26328 0.32309 0.0
C1603 C 0.62028 0.24268 0.32244 0.0
C1604 C 0.61261 0.22165 0.33426 0.0
C1605 C 0.58997 0.22137 0.34604 0.0
C1606 C 0.6127 0.28606 0.31061 0.0
C1607 C 0.62811 0.1995 0.33416 0.0
C1608 C 0.66296 0.24746 0.26978 0.0
C1609 C 0.68192 0.26058 0.28036 0.0
C1610 C 0.64366 0.23888 0.28382 0.0
C1611 C 0.64357 0.24362 0.30893 0.0
C1612 C 0.66416 0.25442 0.3199 0.0
C1613 C 0.68302 0.26308 0.30537 0.0
C1614 C 0.62201 0.22766 0.27132 0.0
C1615 C 0.66489 0.2595 0.34661 0.0
H1616 H 0.57142 0.27807 0.33533 0.0
H1617 H 0.5836 0.20525 0.35471 0.0
H1618 H 0.63023 0.29283 0.31785 0.0
H1619 H 0.61528 0.28244 0.2911 0.0
H1620 H 0.59896 0.30037 0.31285 0.0
H1621 H 0.61991 0.18493 0.34493 0.0
H1622 H 0.63072 0.19284 0.31546 0.0
H1623 H 0.64638 0.20383 0.34146 0.0
H1624 H 0.66205 0.24593 0.25034 0.0
H1625 H 0.69763 0.27352 0.31342 0.0
H1626 H 0.60751 0.24124 0.26973 0.0
H1627 H 0.61449 0.2126 0.28179 0.0
H1628 H 0.6267 0.22104 0.25297 0.0
H1629 H 0.65272 0.27468 0.35104 0.0
H1630 H 0.68348 0.26431 0.35279 0.0
H1631 H 0.65829 0.2438 0.35676 0.0
C1632 C 0.50798 0.81144 0.04768 0.0
C1633 C 0.48722 0.80615 0.06124 0.0
C1634 C 0.51109 0.83409 0.0376 0.0
C1635 C 0.49257 0.85127 0.04061 0.0
C1636 C 0.47054 0.84502 0.05222 0.0
C1637 C 0.46831 0.82259 0.06282 0.0
C1638 C 0.53507 0.84034 0.02598 0.0
C1639 C 0.45017 0.86275 0.05536 0.0
C1640 C 0.5033 0.91706 0.05029 0.0
C1641 C 0.49467 0.92619 0.02867 0.0
C1642 C 0.50499 0.89241 0.05354 0.0
C1643 C 0.49713 0.87665 0.03493 0.0
C1644 C 0.49014 0.88579 0.01242 0.0
C1645 C 0.48925 0.91062 0.00945 0.0
C1646 C 0.51355 0.88335 0.07751 0.0
C1647 C 0.48176 0.86948 0.9922 0.0
H1648 H 0.52276 0.79873 0.0469 0.0
H1649 H 0.45235 0.81837 0.07345 0.0
H1650 H 0.53229 0.85041 0.0092 0.0
H1651 H 0.54572 0.85205 0.03839 0.0
H1652 H 0.54599 0.82416 0.02181 0.0
H1653 H 0.43319 0.85411 0.06183 0.0
H1654 H 0.45562 0.87677 0.06865 0.0
H1655 H 0.44635 0.87174 0.03813 0.0
H1656 H 0.50819 0.92922 0.06489 0.0
H1657 H 0.48289 0.91779 0.99261 0.0
H1658 H 0.52612 0.86811 0.07498 0.0
H1659 H 0.49771 0.87687 0.08798 0.0
H1660 H 0.52291 0.89755 0.08826 0.0
H1661 H 0.49417 0.85408 0.98994 0.0
H1662 H 0.48058 0.87901 0.97486 0.0
H1663 H 0.46352 0.86219 -0.00339 0.0
C1664 C 0.91855 0.75868 0.83596 0.0
C1665 C 0.9381 0.75368 0.82063 0.0
C1666 C 0.89458 0.75555 0.82808 0.0
C1667 C 0.89018 0.74634 0.80463 0.0
C1668 C 0.90993 0.74167 0.78894 0.0
C1669 C 0.93374 0.74576 0.79704 0.0
C1670 C 0.87398 0.76232 0.84473 0.0
C1671 C 0.90587 0.73203 0.76378 0.0
C1672 C 0.82921 0.71563 0.79499 0.0
C1673 C 0.81618 0.73327 0.78296 0.0
C1674 C 0.85352 0.71947 0.80164 0.0
C1675 C 0.86487 0.74164 0.79659 0.0
C1676 C 0.85178 0.75948 0.78447 0.0
C1677 C 0.82776 0.75489 0.77742 0.0
C1678 C 0.86694 0.7 0.81452 0.0
C1679 C 0.86273 0.78364 0.77909 0.0
H1680 H 0.92205 0.7653 0.85406 0.0
H1681 H 0.94897 0.74202 0.78521 0.0
H1682 H 0.86216 0.77558 0.83592 0.0
H1683 H 0.86262 0.74636 0.84855 0.0
H1684 H 0.88052 0.7701 0.86206 0.0
H1685 H 0.92318 0.72866 0.75407 0.0
H1686 H 0.89531 0.71506 0.76444 0.0
H1687 H 0.89503 0.74494 0.75339 0.0
H1688 H 0.82033 0.69889 0.79939 0.0
H1689 H 0.8177 0.76873 0.76849 0.0
H1690 H 0.87192 0.70629 0.83288 0.0
H1691 H 0.88407 0.69577 0.80487 0.0
H1692 H 0.85595 0.68335 0.81604 0.0
H1693 H 0.84857 0.79766 0.77962 0.0
H1694 H 0.87063 0.78308 0.76072 0.0
H1695 H 0.87726 0.78896 0.79188 0.0
C1696 C 0.94658 0.00941 0.80927 0.0
C1697 C 0.92489 -0.00292 0.80455 0.0
C1698 C 0.95393 0.0142 0.83304 0.0
C1699 C 0.93975 0.00548 0.85237 0.0
C1700 C 0.91799 0.99263 0.84752 0.0
C1701 C 0.91059 0.98899 0.82361 0.0
C1702 C 0.97671 0.02875 0.83747 0.0
C1703 C 0.9027 0.98242 0.86753 0.0
C1704 C 0.97006 -0.00426 0.91269 0.0
C1705 C 0.9597 0.01383 0.92698 0.0
C1706 C 0.96395 0.99296 0.88831 0.0
C1707 C 0.94783 0.00931 0.87767 0.0
C1708 C 0.93858 0.02862 0.89157 0.0
C1709 C 0.9443 0.03043 0.91613 0.0
C1710 C 0.97371 0.97174 0.87434 0.0
C1711 C 0.92221 0.04706 0.88062 0.0
H1712 H 0.95744 0.0158 0.79437 0.0
H1713 H 0.89384 0.97937 0.81976 0.0
H1714 H 0.97272 0.04406 0.84975 0.0
H1715 H 0.99052 0.01762 0.8464 0.0
H1716 H 0.98463 0.03574 0.82056 0.0
H1717 H 0.8867 0.97225 0.86064 0.0
H1718 H 0.91384 0.97033 0.87859 0.0
H1719 H 0.89617 -0.00299 0.87956 0.0
H1720 H 0.98223 0.98313 0.92076 0.0
H1721 H 0.93648 0.04474 0.92692 0.0
H1722 H 0.98152 0.9774 0.85692 0.0
H1723 H 0.9586 0.95909 0.87026 0.0
H1724 H 0.98788 0.9621 0.88446 0.0
H1725 H 0.93054 0.05417 0.86397 0.0
H1726 H 0.91855 0.06224 0.8932 0.0
H1727 H 0.90463 0.03868 0.87551 0.0
C1728 C 0.75683 0.16573 0.5741 0.0
C1729 C 0.73696 0.15092 0.56886 0.0
C1730 C 0.75642 0.18102 0.59417 0.0
C1731 C 0.73534 0.18184 0.60875 0.0
C1732 C 0.71482 0.1676 0.60292 0.0
C1733 C 0.71603 0.15192 0.58315 0.0
C1734 C 0.77884 0.19561 0.60026 0.0
C1735 C 0.6918 0.16874 0.61767 0.0
C1736 C 0.74679 0.20002 0.67314 0.0
C1737 C 0.74278 0.22461 0.67226 0.0
C1738 C 0.74374 0.18569 0.6526 0.0
C1739 C 0.73568 0.19625 0.63111 0.0
C1740 C 0.73019 0.2209 0.63058 0.0
C1741 C 0.73432 0.23499 0.65118 0.0
C1742 C 0.75037 0.15955 0.65358 0.0
C1743 C 0.72091 0.23253 0.60809 0.0
H1744 H 0.77296 0.16481 0.56291 0.0
H1745 H 0.70053 0.14066 0.57867 0.0
H1746 H 0.77431 0.21488 0.60145 0.0
H1747 H 0.78584 0.19036 0.61811 0.0
H1748 H 0.79354 0.19318 0.58675 0.0
H1749 H 0.67681 0.15809 0.60939 0.0
H1750 H 0.69522 0.16185 0.63594 0.0
H1751 H 0.68583 0.18756 0.61979 0.0
H1752 H 0.75355 0.19225 0.68954 0.0
H1753 H 0.7311 0.25409 0.6508 0.0
H1754 H 0.76467 0.15546 0.64007 0.0
H1755 H 0.73433 0.14826 0.64909 0.0
H1756 H 0.75716 0.15446 0.67155 0.0
H1757 H 0.73583 0.23385 0.59473 0.0
H1758 H 0.71391 0.25081 0.61178 0.0
H1759 H 0.70622 0.22155 0.59979 0.0
C1760 C 0.56992 0.02779 0.32053 0.0
C1761 C 0.56043 0.01372 0.30177 0.0
C1762 C 0.56087 0.02547 0.34394 0.0
C1763 C 0.54257 0.00816 0.3484 0.0
C1764 C 0.53245 -0.00542 0.32918 0.0
C1765 C 0.54133 -0.00218 0.30591 0.0
C1766 C 0.57173 0.04053 0.36402 0.0
C1767 C 0.51363 0.97533 0.33343 0.0
C1768 C 0.54433 0.97642 0.40747 0.0
C1769 C 0.52482 0.98683 0.42 0.0
C1770 C 0.55057 0.98372 0.38441 0.0
C1771 C 0.53664 0.00154 0.37331 0.0
C1772 C 0.51664 0.01188 0.38551 0.0
C1773 C 0.51091 0.00436 0.40882 0.0
C1774 C 0.57229 0.9725 0.37206 0.0
C1775 C 0.50146 0.0309 0.37399 0.0
H1776 H 0.58466 0.04021 0.31694 0.0
H1777 H 0.53427 0.98699 0.29113 0.0
H1778 H 0.55714 0.04906 0.37483 0.0
H1779 H 0.58219 0.02902 0.37627 0.0
H1780 H 0.58406 0.0547 0.35715 0.0
H1781 H 0.50627 0.96774 0.31635 0.0
H1782 H 0.5219 0.9606 0.3437 0.0
H1783 H 0.49839 0.9825 0.34435 0.0
H1784 H 0.5554 0.96302 0.41597 0.0
H1785 H 0.49581 0.01243 0.41838 0.0
H1786 H 0.58582 0.98651 0.36748 0.0
H1787 H 0.56659 0.96366 0.35498 0.0
H1788 H 0.58135 0.95905 0.38341 0.0
H1789 H 0.51327 0.04534 0.3669 0.0
H1790 H 0.48817 0.0389 0.38678 0.0
H1791 H 0.49139 0.02304 0.3585 0.0
C1792 C 0.7179 0.81188 0.07363 0.0
C1793 C 0.73629 0.82865 0.06931 0.0
C1794 C 0.71568 0.80102 0.09612 0.0
C1795 C 0.73273 0.80653 0.11444 0.0
C1796 C 0.75136 0.82357 0.11007 0.0
C1797 C 0.75271 0.83463 0.08766 0.0
C1798 C 0.69496 0.7839 0.10029 0.0
C1799 C 0.77039 0.82961 0.12878 0.0
C1800 C 0.73248 0.79214 0.18085 0.0
C1801 C 0.7488 0.77311 0.1807 0.0
C1802 C 0.72444 0.80175 0.15898 0.0
C1803 C 0.73357 0.79235 0.13688 0.0
C1804 C 0.74784 0.77144 0.13693 0.0
C1805 C 0.75499 0.76194 0.15887 0.0
C1806 C 0.70824 0.82336 0.15967 0.0
C1807 C 0.75834 0.76092 0.114 0.0
H1808 H 0.7048 0.80777 0.05962 0.0
H1809 H 0.76684 0.84779 0.08435 0.0
H1810 H 0.702 0.76607 0.10502 0.0
H1811 H 0.6839 0.79065 0.11558 0.0
H1812 H 0.68303 0.78182 0.0843 0.0
H1813 H 0.78323 0.84371 0.12273 0.0
H1814 H 0.7616 0.83584 0.14568 0.0
H1815 H 0.78093 0.81336 0.13301 0.0
H1816 H 0.72773 0.80078 0.19778 0.0
H1817 H 0.76758 0.7471 0.1589 0.0
H1818 H 0.69538 0.82302 0.14435 0.0
H1819 H 0.71953 0.8398 0.15832 0.0
H1820 H 0.69779 0.82444 0.17677 0.0
H1821 H 0.74412 0.7587 0.10008 0.0
H1822 H 0.76693 0.74328 0.11693 0.0
H1823 H 0.77236 0.77329 0.10683 0.0
C1824 C 0.88443 0.01182 0.64474 0.0
C1825 C 0.89951 0.00639 0.66419 0.0
C1826 C 0.89369 0.01218 0.62116 0.0
C1827 C 0.91827 0.0061 0.61705 0.0
C1828 C 0.93375 0.00183 0.63684 0.0
C1829 C 0.92422 0.00237 0.66016 0.0
C1830 C 0.877 0.01809 0.60064 0.0
C1831 C 0.96006 -0.00499 0.63338 0.0
C1832 C 0.9409 0.96883 0.5655 0.0
C1833 C 0.95836 0.98423 0.55579 0.0
C1834 C 0.92534 0.97662 0.58385 0.0
C1835 C 0.92727 0.0005 0.59243 0.0
C1836 C 0.94243 0.01695 0.58022 0.0
C1837 C 0.95799 0.00856 0.56191 0.0
C1838 C 0.90966 0.95833 0.59638 0.0
C1839 C 0.94449 0.04266 0.58844 0.0
H1840 H 0.8654 0.01555 0.6479 0.0
H1841 H 0.93596 -0.00156 0.67519 0.0
H1842 H 0.88656 0.02925 0.58722 0.0
H1843 H 0.87107 0.00137 0.59137 0.0
H1844 H 0.86055 0.02769 0.60702 0.0
H1845 H 0.96977 0.99318 0.65073 0.0
H1846 H 0.96115 0.97772 0.62339 0.0
H1847 H 0.9697 0.00862 0.6226 0.0
H1848 H 0.94117 0.94999 0.56053 0.0
H1849 H 0.97156 0.02044 0.5544 0.0
H1850 H 0.89125 0.96544 0.59992 0.0
H1851 H 0.91788 0.95405 0.614 0.0
H1852 H 0.90788 0.94146 0.5857 0.0
H1853 H 0.92687 0.04948 0.59528 0.0
H1854 H 0.95085 0.05403 0.57356 0.0
H1855 H 0.95797 0.04423 0.60317 0.0
C1856 C 0.74954 0.15373 0.40489 0.0
C1857 C 0.75761 0.16472 0.42622 0.0
C1858 C 0.74787 0.16662 0.38368 0.0
C1859 C 0.75517 0.19091 0.38365 0.0
C1860 C 0.76289 0.20231 0.4052 0.0
C1861 C 0.76391 0.18905 0.4264 0.0
C1862 C 0.73821 0.15425 0.36128 0.0
C1863 C 0.77006 0.22839 0.40576 0.0
C1864 C 0.77632 0.20733 0.32185 0.0
C1865 C 0.75554 0.21786 0.31248 0.0
C1866 C 0.7771 0.20041 0.34585 0.0
C1867 C 0.75628 0.20346 0.36049 0.0
C1868 C 0.73555 0.21511 0.35134 0.0
C1869 C 0.73563 0.22261 0.32738 0.0
C1870 C 0.79955 0.18813 0.35498 0.0
C1871 C 0.71285 0.2188 0.36618 0.0
H1872 H 0.74394 0.1351 0.40485 0.0
H1873 H 0.76971 0.19765 0.44303 0.0
H1874 H 0.72277 0.16449 0.35394 0.0
H1875 H 0.75255 0.15361 0.34725 0.0
H1876 H 0.73192 0.13569 0.36474 0.0
H1877 H 0.77495 0.23479 0.42413 0.0
H1878 H 0.7858 0.23133 0.39363 0.0
H1879 H 0.75486 0.23933 0.39901 0.0
H1880 H 0.7917 0.20382 0.31013 0.0
H1881 H 0.71957 0.23068 0.31989 0.0
H1882 H 0.79563 0.1688 0.35727 0.0
H1883 H 0.80487 0.19562 0.3728 0.0
H1884 H 0.81514 0.18995 0.34242 0.0
H1885 H 0.69643 0.21766 0.35467 0.0
H1886 H 0.71352 0.23695 0.37451 0.0
H1887 H 0.71084 0.20564 0.38078 0.0
C1888 C 0.6116 0.98723 0.15056 0.0
C1889 C 0.59788 0.99387 0.17075 0.0
C1890 C 0.60269 0.99109 0.12738 0.0
C1891 C 0.58005 0.00248 0.12464 0.0
C1892 C 0.56653 0.00983 0.14505 0.0
C1893 C 0.57539 0.00492 0.16787 0.0
C1894 C 0.61691 0.98217 0.10588 0.0
C1895 C 0.54228 0.02212 0.14289 0.0
C1896 C 0.55496 0.02845 0.06769 0.0
C1897 C 0.53888 0.01016 0.06096 0.0
C1898 C 0.5705 0.02535 0.08737 0.0
C1899 C 0.56876 0.00401 0.10075 0.0
C1900 C 0.55331 0.98516 0.09305 0.0
C1901 C 0.53898 0.98833 0.07284 0.0
C1902 C 0.58733 0.04546 0.09499 0.0
C1903 C 0.54989 0.96265 0.10746 0.0
H1904 H 0.62893 0.97851 0.15292 0.0
H1905 H 0.56471 0.00999 0.18347 0.0
H1906 H 0.60642 0.9678 0.09658 0.0
H1907 H 0.6196 -0.00321 0.09285 0.0
H1908 H 0.63488 0.97495 0.11097 0.0
H1909 H 0.53556 0.02906 0.16049 0.0
H1910 H 0.54359 0.03727 0.13029 0.0
H1911 H 0.52862 0.00932 0.13552 0.0
H1912 H 0.55457 0.04535 0.0584 0.0
H1913 H 0.52619 0.9744 0.06751 0.0
H1914 H 0.6056 0.03842 0.09918 0.0
H1915 H 0.58024 0.05417 0.1116 0.0
H1916 H 0.58913 0.05922 0.08088 0.0
H1917 H 0.56766 0.95491 0.11229 0.0
H1918 H 0.53908 0.94884 0.09759 0.0
H1919 H 0.54024 0.96707 0.12448 0.0
C1920 C 0.71326 0.86257 0.9066 0.0
C1921 C 0.73358 0.86033 0.92147 0.0
C1922 C 0.71156 0.84964 0.88481 0.0
C1923 C 0.73102 0.83481 0.87742 0.0
C1924 C 0.75237 0.83402 0.89158 0.0
C1925 C 0.7532 0.84644 0.91371 0.0
C1926 C 0.6883 0.8506 0.87059 0.0
C1927 C 0.77385 0.81906 0.884 0.0
C1928 C 0.71831 0.77725 0.84278 0.0
C1929 C 0.72662 0.78269 0.81956 0.0
C1930 C 0.71893 0.79433 0.86146 0.0
C1931 C 0.72784 0.81762 0.8569 0.0
C1932 C 0.73484 0.82375 0.83323 0.0
C1933 C 0.73411 0.8062 0.8148 0.0
C1934 C 0.71127 0.78701 0.88644 0.0
C1935 C 0.7443 0.84843 0.82762 0.0
H1936 H 0.69809 0.87335 0.9127 0.0
H1937 H 0.76906 0.84506 0.92511 0.0
H1938 H 0.69222 0.85345 0.85127 0.0
H1939 H 0.67855 0.83324 0.872 0.0
H1940 H 0.67608 0.865 0.8772 0.0
H1941 H 0.79012 0.82291 0.89521 0.0
H1942 H 0.76916 0.79982 0.8856 0.0
H1943 H 0.77851 0.8223 0.86489 0.0
H1944 H 0.71222 0.75924 0.84669 0.0
H1945 H 0.74056 0.81062 0.79698 0.0
H1946 H 0.69797 0.7999 0.89402 0.0
H1947 H 0.7273 0.78722 0.89849 0.0
H1948 H 0.70305 0.76882 0.88665 0.0
H1949 H 0.73179 0.86228 0.83476 0.0
H1950 H 0.74666 0.85099 0.80801 0.0
H1951 H 0.76212 0.8513 0.8365 0.0
C1952 C 0.81663 0.9359 0.01432 0.0
C1953 C 0.8079 0.91394 0.00555 0.0
C1954 C 0.84158 0.93986 0.01737 0.0
C1955 C 0.85819 0.9216 0.01083 0.0
C1956 C 0.8494 0.89902 0.00291 0.0
C1957 C 0.82426 0.89539 0.00052 0.0
C1958 C 0.8502 0.96404 0.02651 0.0
C1959 C 0.86649 0.87908 -0.00403 0.0
C1960 C 0.9143 0.9515 0.98747 0.0
C1961 C 0.92738 0.95489 0.00875 0.0
C1962 C 0.89262 0.93841 0.98727 0.0
C1963 C 0.88435 0.92785 0.0088 0.0
C1964 C 0.89945 0.92827 0.02943 0.0
C1965 C 0.92067 0.94244 0.02939 0.0
C1966 C 0.87706 0.93887 0.96495 0.0
C1967 C 0.89201 0.91591 0.05224 0.0
H1968 H 0.80393 0.95004 0.0187 0.0
H1969 H 0.81746 0.87831 -0.00615 0.0
H1970 H 0.86253 0.96189 0.04205 0.0
H1971 H 0.86061 0.97322 0.0122 0.0
H1972 H 0.83493 0.97571 0.03221 0.0
H1973 H 0.85679 0.86177 -0.00679 0.0
H1974 H 0.87605 0.88358 0.97904 0.0
H1975 H 0.88053 0.8769 0.01002 0.0
H1976 H 0.91967 0.96129 0.97159 0.0
H1977 H 0.93096 0.94507 0.04582 0.0
H1978 H 0.86175 0.95138 0.96798 0.0
H1979 H 0.8692 0.92097 0.96092 0.0
H1980 H 0.88744 0.94492 0.94897 0.0
H1981 H 0.87986 0.92778 0.06286 0.0
H1982 H 0.90806 0.91185 0.06349 0.0
H1983 H 0.88198 0.89904 0.04825 0.0
C1984 C 0.31315 0.54204 0.99156 0.0
C1985 C 0.30813 0.56648 -0.00595 0.0
C1986 C 0.33714 0.53412 0.98946 0.0
C1987 C 0.3563 0.55107 0.99038 0.0
C1988 C 0.35133 0.57571 -0.00684 0.0
C1989 C 0.32725 0.58314 -0.00524 0.0
C1990 C 0.342 0.50774 0.98606 0.0
C1991 C 0.37145 0.59422 -0.00544 0.0
C1992 C 0.41982 0.53201 0.00595 0.0
C1993 C 0.43094 0.53275 0.98336 0.0
C1994 C 0.39524 0.53754 0.00854 0.0
C1995 C 0.38165 0.54327 0.98786 0.0
C1996 C 0.39274 0.54324 0.96489 0.0
C1997 C 0.41747 0.53831 0.96297 0.0
C1998 C 0.38409 0.53811 0.03338 0.0
C1999 C 0.37868 0.54906 0.94247 0.0
H2000 H 0.29834 0.52917 0.99097 0.0
H2001 H 0.32342 0.60203 -0.00299 0.0
H2002 H 0.35264 0.50465 0.96934 0.0
H2003 H 0.35307 0.50119 0.00122 0.0
H2004 H 0.325 0.49698 0.98501 0.0
H2005 H 0.36442 0.61262 -0.00264 0.0
H2006 H 0.38392 0.59008 0.00955 0.0
H2007 H 0.38231 0.5938 0.97774 0.0
H2008 H 0.43059 0.52808 0.02167 0.0
H2009 H 0.42633 0.53878 0.94554 0.0
H2010 H 0.36861 0.52536 0.03421 0.0
H2011 H 0.37685 0.5562 0.03744 0.0
H2012 H 0.39735 0.53352 0.04757 0.0
H2013 H 0.36201 0.53786 0.94129 0.0
H2014 H 0.38957 0.5462 0.92584 0.0
H2015 H 0.3729 0.56802 0.94323 0.0
C2016 C 0.16231 0.57811 0.74618 0.0
C2017 C 0.14215 0.57453 0.73123 0.0
C2018 C 0.17629 0.59901 0.74478 0.0
C2019 C 0.17005 0.61653 0.7278 0.0
C2020 C 0.15011 0.61277 0.71223 0.0
C2021 C 0.13623 0.59183 0.71426 0.0
C2022 C 0.19745 0.60252 0.76175 0.0
C2023 C 0.14339 0.63088 0.69356 0.0
C2024 C 0.1923 0.67879 0.74348 0.0
C2025 C 0.21449 0.67922 0.73127 0.0
C2026 C 0.17708 0.6587 0.74179 0.0
C2027 C 0.18408 0.63909 0.727 0.0
C2028 C 0.20569 0.64026 0.71325 0.0
C2029 C 0.22088 0.66027 0.71585 0.0
C2030 C 0.15447 0.65777 0.75717 0.0
C2031 C 0.21349 0.61983 0.69698 0.0
H2032 H 0.16694 0.56476 0.75932 0.0
H2033 H 0.12084 0.58894 0.70243 0.0
H2034 H 0.21445 0.60532 0.75141 0.0
H2035 H 0.19458 0.61876 0.77309 0.0
H2036 H 0.19997 0.587 0.77372 0.0
H2037 H 0.12788 0.6248 0.68225 0.0
H2038 H 0.13851 0.64806 0.70249 0.0
H2039 H 0.1592 0.63447 0.68171 0.0
H2040 H 0.18767 0.69341 0.75564 0.0
H2041 H 0.23813 0.6608 0.70641 0.0
H2042 H 0.15663 0.64396 0.77112 0.0
H2043 H 0.1385 0.65258 0.74611 0.0
H2044 H 0.15073 0.67517 0.76629 0.0
H2045 H 0.21954 0.60466 0.70805 0.0
H2046 H 0.22868 0.62505 0.68493 0.0
H2047 H 0.19806 0.61335 0.6858 0.0
C2048 C 0.15827 0.42725 0.50882 0.0
C2049 C 0.16141 0.40267 0.51178 0.0
C2050 C 0.13514 0.43666 0.50475 0.0
C2051 C 0.1147 0.42113 0.50388 0.0
C2052 C 0.11752 0.39659 0.50878 0.0
C2053 C 0.14091 0.38759 0.51253 0.0
C2054 C 0.13277 0.46306 0.50001 0.0
C2055 C 0.09596 0.37979 0.50914 0.0
C2056 C 0.05676 0.45696 0.50089 0.0
C2057 C 0.05486 0.45961 0.47599 0.0
C2058 C 0.07479 0.44224 0.51057 0.0
C2059 C 0.09121 0.43032 0.4949 0.0
C2060 C 0.08724 0.43065 0.4698 0.0
C2061 C 0.06902 0.4452 0.46069 0.0
C2062 C 0.07714 0.4411 0.53749 0.0
C2063 C 0.10383 0.4177 0.45236 0.0
H2064 H 0.17401 0.43899 0.50845 0.0
H2065 H 0.14321 0.36859 0.51532 0.0
H2066 H 0.12659 0.46568 0.48126 0.0
H2067 H 0.11891 0.471 0.51218 0.0
H2068 H 0.15018 0.4729 0.50261 0.0
H2069 H 0.10101 0.36148 0.51468 0.0
H2070 H 0.08197 0.3868 0.52173 0.0
H2071 H 0.08758 0.37866 0.49104 0.0
H2072 H 0.04545 0.46755 0.51283 0.0
H2073 H 0.06707 0.44663 0.44136 0.0
H2074 H 0.08373 0.45865 0.54453 0.0
H2075 H 0.08968 0.42697 0.54348 0.0
H2076 H 0.05901 0.43759 0.54547 0.0
H2077 H 0.12165 0.42707 0.4518 0.0
H2078 H 0.09629 0.41702 0.43385 0.0
H2079 H 0.10713 0.39915 0.45824 0.0
C2080 C 0.83338 0.91162 0.72553 0.0
C2081 C 0.84489 0.92341 0.74469 0.0
C2082 C 0.82025 0.89039 0.72919 0.0
C2083 C 0.8191 0.8805 0.75254 0.0
C2084 C 0.83059 0.89257 0.77202 0.0
C2085 C 0.8433 0.91403 0.76785 0.0
C2086 C 0.80823 0.87818 0.70787 0.0
C2087 C 0.83023 0.88241 0.79699 0.0
C2088 C 0.76865 0.83455 0.75585 0.0
C2089 C 0.78057 0.81429 0.74681 0.0
C2090 C 0.7814 0.85603 0.76017 0.0
C2091 C 0.80673 0.85695 0.75582 0.0
C2092 C 0.81924 0.83565 0.74973 0.0
C2093 C 0.80594 0.81453 0.74521 0.0
C2094 C 0.76727 0.87843 0.76597 0.0
C2095 C 0.8463 0.83588 0.7452 0.0
H2096 H 0.8349 0.91891 0.70762 0.0
H2097 H 0.85254 0.92319 0.78256 0.0
H2098 H 0.8174 0.86096 0.70387 0.0
H2099 H 0.78894 0.87406 0.71198 0.0
H2100 H 0.80898 0.88927 0.69147 0.0
H2101 H 0.83805 0.89505 0.81054 0.0
H2102 H 0.81141 0.87778 0.80243 0.0
H2103 H 0.84089 0.86565 0.79712 0.0
H2104 H 0.74896 0.8345 0.75651 0.0
H2105 H 0.81509 0.79907 0.73758 0.0
H2106 H 0.76753 0.89032 0.75016 0.0
H2107 H 0.77579 0.88842 0.78115 0.0
H2108 H 0.74804 0.87448 0.77059 0.0
H2109 H 0.85316 0.81807 0.73946 0.0
H2110 H 0.85592 0.84175 0.7618 0.0
H2111 H 0.85099 0.84882 0.73097 0.0
C2112 C 0.67218 0.07667 0.50434 0.0
C2113 C 0.674 0.09974 0.49509 0.0
C2114 C 0.64979 0.06706 0.51073 0.0
C2115 C 0.62857 0.0804 0.50648 0.0
C2116 C 0.63029 0.10432 0.49873 0.0
C2117 C 0.65322 0.11389 0.4933 0.0
C2118 C 0.64879 0.04167 0.51967 0.0
C2119 C 0.60792 0.11901 0.49423 0.0
C2120 C 0.58437 0.03596 0.48177 0.0
C2121 C 0.57076 0.03074 0.50222 0.0
C2122 C 0.60157 0.05428 0.48229 0.0
C2123 C 0.60562 0.06704 0.50411 0.0
C2124 C 0.59071 0.06287 0.52442 0.0
C2125 C 0.57307 0.04471 0.52312 0.0
C2126 C 0.61679 0.05849 0.46007 0.0
C2127 C 0.59459 0.07605 0.54796 0.0
H2128 H 0.68821 0.06574 0.50608 0.0
H2129 H 0.65473 0.13194 0.48656 0.0
H2130 H 0.63522 0.03986 0.5343 0.0
H2131 H 0.6433 0.02946 0.5047 0.0
H2132 H 0.66669 0.03574 0.52645 0.0
H2133 H 0.61227 0.13841 0.49342 0.0
H2134 H 0.59975 0.11338 0.4768 0.0
H2135 H 0.59408 0.11608 0.50843 0.0
H2136 H 0.58183 0.02536 0.46545 0.0
H2137 H 0.56198 0.04068 0.5387 0.0
H2138 H 0.63523 0.05112 0.46276 0.0
H2139 H 0.6188 0.0779 0.45667 0.0
H2140 H 0.60882 0.04976 0.44381 0.0
H2141 H 0.60905 0.06701 0.55822 0.0
H2142 H 0.57782 0.07604 0.55911 0.0
H2143 H 0.60051 0.09479 0.5451 0.0
C2144 C 0.14616 0.41185 0.7563 0.0
C2145 C 0.15931 0.43255 0.76251 0.0
C2146 C 0.15761 0.38982 0.75398 0.0
C2147 C 0.18268 0.38827 0.75894 0.0
C2148 C 0.19621 0.40907 0.76512 0.0
C2149 C 0.18435 0.43119 0.76656 0.0
C2150 C 0.14282 0.36817 0.74623 0.0
C2151 C 0.22307 0.40783 0.77016 0.0
C2152 C 0.19585 0.32644 0.77997 0.0
C2153 C 0.20431 0.31554 0.75884 0.0
C2154 C 0.19085 0.35084 0.78076 0.0
C2155 C 0.19379 0.36439 0.75967 0.0
C2156 C 0.2035 0.35366 0.73854 0.0
C2157 C 0.20876 0.32919 0.73843 0.0
C2158 C 0.18094 0.36176 0.80374 0.0
C2159 C 0.20681 0.36725 0.71551 0.0
H2160 H 0.12692 0.41296 0.75242 0.0
H2161 H 0.19456 0.44732 0.7709 0.0
H2162 H 0.15149 0.35927 0.73047 0.0
H2163 H 0.14213 0.35503 0.76097 0.0
H2164 H 0.12391 0.37284 0.74134 0.0
H2165 H 0.23111 0.42573 0.77412 0.0
H2166 H 0.22631 0.39608 0.78572 0.0
H2167 H 0.23263 0.39979 0.75446 0.0
H2168 H 0.19277 0.31573 0.79581 0.0
H2169 H 0.2151 0.32054 0.72209 0.0
H2170 H 0.16135 0.36562 0.80147 0.0
H2171 H 0.19031 0.37895 0.80794 0.0
H2172 H 0.18297 0.34969 0.81928 0.0
H2173 H 0.19121 0.36329 0.70346 0.0
H2174 H 0.22355 0.36131 0.70603 0.0
H2175 H 0.20793 0.38687 0.71851 0.0
C2176 C 0.34424 0.58389 0.22312 0.0
C2177 C 0.33686 0.56916 0.24204 0.0
C2178 C 0.33345 0.60626 0.21957 0.0
C2179 C 0.31564 0.6145 0.236 0.0
C2180 C 0.30841 0.59974 0.25539 0.0
C2181 C 0.31874 0.57699 0.25784 0.0
C2182 C 0.34095 0.62089 0.19816 0.0
C2183 C 0.28983 0.60805 0.27366 0.0
C2184 C 0.29997 0.67809 0.25188 0.0
C2185 C 0.27556 0.67829 0.24506 0.0
C2186 C 0.31468 0.65838 0.24629 0.0
C2187 C 0.30452 0.63858 0.23359 0.0
C2188 C 0.28111 0.6406 0.22333 0.0
C2189 C 0.26672 0.66044 0.22944 0.0
C2190 C 0.33971 0.65744 0.25714 0.0
C2191 C 0.27002 0.62047 0.20862 0.0
H2192 H 0.35802 0.57756 0.21067 0.0
H2193 H 0.31305 0.56553 0.2724 0.0
H2194 H 0.32471 0.62621 0.1878 0.0
H2195 H 0.35016 0.63757 0.20429 0.0
H2196 H 0.35344 0.61098 0.18594 0.0
H2197 H 0.28704 0.59493 0.28823 0.0
H2198 H 0.29568 0.62535 0.28189 0.0
H2199 H 0.27217 0.61103 0.2647 0.0
H2200 H 0.30671 0.69191 0.26407 0.0
H2201 H 0.24776 0.6606 0.22423 0.0
H2202 H 0.35259 0.64782 0.24519 0.0
H2203 H 0.33871 0.64769 0.27437 0.0
H2204 H 0.34702 0.67568 0.26093 0.0
H2205 H 0.28369 0.61226 0.19643 0.0
H2206 H 0.2545 0.62674 0.19776 0.0
H2207 H 0.26328 0.60637 0.22083 0.0
C2208 C 0.50058 0.66886 0.5672 0.0
C2209 C 0.51096 0.67231 0.58995 0.0
C2210 C 0.50233 0.64669 0.55507 0.0
C2211 C 0.51503 0.6276 0.56582 0.0
C2212 C 0.52747 0.63174 0.58771 0.0
C2213 C 0.52511 0.65396 0.59961 0.0
C2214 C 0.48882 0.64314 0.53168 0.0
C2215 C 0.54185 0.61224 0.59944 0.0
C2216 C 0.48213 0.56996 0.55157 0.0
C2217 C 0.49367 0.56274 0.53029 0.0
C2218 C 0.49038 0.58992 0.56472 0.0
C2219 C 0.51103 0.6027 0.55654 0.0
C2220 C 0.52479 0.59334 0.53699 0.0
C2221 C 0.51573 0.57348 0.52381 0.0
C2222 C 0.47506 0.59905 0.58543 0.0
C2223 C 0.5476 0.60566 0.52847 0.0
H2224 H 0.48991 0.68301 0.55945 0.0
H2225 H 0.53378 0.65665 0.61693 0.0
H2226 H 0.50055 0.63426 0.51805 0.0
H2227 H 0.47284 0.63133 0.53466 0.0
H2228 H 0.48236 0.66031 0.52429 0.0
H2229 H 0.55458 0.61959 0.61319 0.0
H2230 H 0.52925 0.59964 0.60844 0.0
H2231 H 0.55232 0.60184 0.58586 0.0
H2232 H 0.46501 0.56161 0.55645 0.0
H2233 H 0.52455 0.56799 0.50721 0.0
H2234 H 0.46544 0.61546 0.5799 0.0
H2235 H 0.48655 0.60387 0.60112 0.0
H2236 H 0.46128 0.58569 0.59117 0.0
H2237 H 0.54272 0.62183 0.51828 0.0
H2238 H 0.55851 0.59382 0.51649 0.0
H2239 H 0.55895 0.61154 0.54394 0.0
C2240 C 0.58662 0.23638 0.84073 0.0
C2241 C 0.56321 0.23935 0.83163 0.0
C2242 C 0.60691 0.23903 0.82574 0.0
C2243 C 0.60351 0.24525 0.80135 0.0
C2244 C 0.57996 0.24904 0.79237 0.0
C2245 C 0.56004 0.24562 0.80753 0.0
C2246 C 0.63188 0.23443 0.83579 0.0
C2247 C 0.57575 0.25623 0.76666 0.0
C2248 C 0.66298 0.26294 0.77292 0.0
C2249 C 0.67066 0.24053 0.7646 0.0
C2250 C 0.63981 0.26553 0.78307 0.0
C2251 C 0.62448 0.24516 0.78478 0.0
C2252 C 0.6311 0.22337 0.77344 0.0
C2253 C 0.65415 0.22142 0.7632 0.0
C2254 C 0.63302 0.28924 0.79438 0.0
C2255 C 0.61532 0.2012 0.77493 0.0
H2256 H 0.58903 0.23154 0.85937 0.0
H2257 H 0.54193 0.24809 0.80045 0.0
H2258 H 0.64023 0.21905 0.82611 0.0
H2259 H 0.64382 0.25021 0.83301 0.0
H2260 H 0.6314 0.23046 0.85531 0.0
H2261 H 0.55658 0.26126 0.76338 0.0
H2262 H 0.58768 0.27156 0.76201 0.0
H2263 H 0.58044 0.24118 0.75433 0.0
H2264 H 0.67587 0.27768 0.77397 0.0
H2265 H 0.66026 0.20415 0.75652 0.0
H2266 H 0.63766 0.28912 0.81378 0.0
H2267 H 0.61327 0.2926 0.79281 0.0
H2268 H 0.64317 0.30421 0.786 0.0
H2269 H 0.61563 0.19446 0.7936 0.0
H2270 H 0.6217 0.1867 0.76265 0.0
H2271 H 0.59619 0.20528 0.77052 0.0
C2272 C 0.95845 0.33441 0.07028 0.0
C2273 C 0.98133 0.32375 0.07242 0.0
C2274 C 0.95627 0.35795 0.06179 0.0
C2275 C 0.97755 0.37116 0.05619 0.0
C2276 C 0.00066 0.36062 0.05947 0.0
C2277 C 0.00218 0.33694 0.06701 0.0
C2278 C 0.93133 0.36833 0.0583 0.0
C2279 C 0.02397 0.37425 0.0548 0.0
C2280 C -0.00816 0.41642 0.01022 0.0
C2281 C -0.00039 0.43519 0.02524 0.0
C2282 C 0.98001 0.39643 0.01979 0.0
C2283 C 0.97658 0.39517 0.04498 0.0
C2284 C 0.98048 0.41597 0.05941 0.0
C2285 C -0.00772 0.43584 0.04932 0.0
C2286 C 0.9751 0.37514 0.00351 0.0
C2287 C 0.97578 0.41607 0.08612 0.0
H2288 H 0.94231 0.32421 0.07481 0.0
H2289 H 0.01986 0.3289 0.06937 0.0
H2290 H 0.93069 0.38721 0.06465 0.0
H2291 H 0.92687 0.36815 0.03885 0.0
H2292 H 0.91713 0.35792 0.06784 0.0
H2293 H 0.04032 0.36398 0.05988 0.0
H2294 H 0.02538 0.37857 0.03544 0.0
H2295 H 0.02411 0.39136 0.06515 0.0
H2296 H -0.00271 0.41619 0.99146 0.0
H2297 H -0.00197 0.45064 0.06083 0.0
H2298 H 0.95841 0.36549 0.0091 0.0
H2299 H 0.99053 0.36254 0.0046 0.0
H2300 H 0.97315 0.38056 0.98447 0.0
H2301 H 0.96044 0.40407 0.09085 0.0
H2302 H 0.9718 0.43444 0.09287 0.0
H2303 H -0.00776 0.40972 0.09549 0.0
C2304 C 0.90875 0.74433 0.34877 0.0
C2305 C 0.92407 0.7559 0.33234 0.0
C2306 C 0.88347 0.74525 0.34639 0.0
C2307 C 0.87346 0.75779 0.32693 0.0
C2308 C 0.88886 0.77018 0.3108 0.0
C2309 C 0.91399 0.76905 0.31371 0.0
C2310 C 0.86772 0.73216 0.36422 0.0
C2311 C 0.87889 0.78395 0.28985 0.0
C2312 C 0.81916 0.73917 0.29168 0.0
C2313 C 0.80549 0.76006 0.29344 0.0
C2314 C 0.84044 0.73677 0.30486 0.0
C2315 C 0.84747 0.75542 0.32087 0.0
C2316 C 0.83152 0.7747 0.32561 0.0
C2317 C 0.81087 0.77732 0.31109 0.0
C2318 C 0.85702 0.7161 0.29883 0.0
C2319 C 0.83751 0.79362 0.3443 0.0
H2320 H 0.91647 0.7343 0.3634 0.0
H2321 H 0.92574 0.77842 0.30128 0.0
H2322 H 0.85025 0.74148 0.36733 0.0
H2323 H 0.86358 0.71394 0.35716 0.0
H2324 H 0.87714 0.73021 0.38172 0.0
H2325 H 0.89341 0.79274 0.27918 0.0
H2326 H 0.86849 0.77173 0.27774 0.0
H2327 H 0.86627 0.79796 0.29645 0.0
H2328 H 0.81457 0.7258 0.27805 0.0
H2329 H 0.79984 0.79324 0.31269 0.0
H2330 H 0.86447 0.70822 0.31537 0.0
H2331 H 0.87256 0.72268 0.28797 0.0
H2332 H 0.84756 0.70178 0.28833 0.0
H2333 H 0.84621 0.78555 0.36021 0.0
H2334 H 0.821 0.80338 0.35021 0.0
H2335 H 0.8505 0.80673 0.33664 0.0
C2336 C 0.48375 0.32772 0.90825 0.0
C2337 C 0.50197 0.32577 0.89076 0.0
C2338 C 0.48132 0.34854 0.9222 0.0
C2339 C 0.49791 0.36764 0.91896 0.0
C2340 C 0.51617 0.36596 0.90102 0.0
C2341 C 0.51777 0.34504 0.88683 0.0
C2342 C 0.4614 0.34977 0.94089 0.0
C2343 C 0.53459 0.38575 0.89756 0.0
C2344 C 0.48243 0.42748 0.94819 0.0
C2345 C 0.49415 0.42551 0.9704 0.0
C2346 C 0.48365 0.40884 0.931 0.0
C2347 C 0.49747 0.38823 0.93601 0.0
C2348 C 0.50985 0.38651 0.95814 0.0
C2349 C 0.50776 0.40501 0.97515 0.0
C2350 C 0.46991 0.41096 0.9077 0.0
C2351 C 0.52521 0.36507 0.96396 0.0
H2352 H 0.47127 0.31291 0.91098 0.0
H2353 H 0.53187 0.34343 0.87327 0.0
H2354 H 0.46947 0.35007 0.95914 0.0
H2355 H 0.4509 0.3665 0.93896 0.0
H2356 H 0.44867 0.3343 0.93954 0.0
H2357 H 0.54656 0.38234 0.88179 0.0
H2358 H 0.52534 0.4031 0.89516 0.0
H2359 H 0.54608 0.38755 0.91386 0.0
H2360 H 0.47213 0.44343 0.9444 0.0
H2361 H 0.51741 0.40363 0.99205 0.0
H2362 H 0.45628 0.3963 0.90617 0.0
H2363 H 0.4825 0.40901 0.89221 0.0
H2364 H 0.46042 0.42835 0.90634 0.0
H2365 H 0.51347 0.34898 0.96561 0.0
H2366 H 0.53546 0.36758 0.981 0.0
H2367 H 0.53835 0.36146 0.94921 0.0
C2368 C 0.90673 0.24546 0.14389 0.0
C2369 C 0.92633 0.24924 0.15947 0.0
C2370 C 0.88277 0.24683 0.15249 0.0
C2371 C 0.87856 0.25272 0.17702 0.0
C2372 C 0.89833 0.25957 0.19188 0.0
C2373 C 0.92207 0.25715 0.18309 0.0
C2374 C 0.86227 0.23935 0.13601 0.0
C2375 C 0.89456 0.26715 0.21776 0.0
C2376 C 0.8141 0.25257 0.20293 0.0
C2377 C 0.81301 0.22949 0.21235 0.0
C2378 C 0.8352 0.26056 0.1909 0.0
C2379 C 0.85546 0.24515 0.1886 0.0
C2380 C 0.85424 0.22188 0.1981 0.0
C2381 C 0.83324 0.2145 0.20992 0.0
C2382 C 0.83591 0.28549 0.18109 0.0
C2383 C 0.87516 0.20457 0.1958 0.0
H2384 H 0.91014 0.23974 0.12548 0.0
H2385 H 0.93733 0.26083 0.1949 0.0
H2386 H 0.85686 0.22066 0.14002 0.0
H2387 H 0.84613 0.25078 0.13891 0.0
H2388 H 0.86771 0.24013 0.11679 0.0
H2389 H 0.91071 0.27672 0.22514 0.0
H2390 H 0.8785 0.27892 0.21954 0.0
H2391 H 0.89119 0.25109 0.2288 0.0
H2392 H 0.79847 0.26416 0.20463 0.0
H2393 H 0.83275 0.19665 0.21725 0.0
H2394 H 0.84503 0.28595 0.1633 0.0
H2395 H 0.84661 0.29706 0.19353 0.0
H2396 H 0.8174 0.29299 0.17931 0.0
H2397 H 0.88074 0.20256 0.17669 0.0
H2398 H 0.87055 0.18656 0.20271 0.0
H2399 H 0.89105 0.21154 0.20599 0.0
C2400 C -0.00352 0.6883 0.4493 0.0
C2401 C 0.98359 0.68764 0.42761 0.0
C2402 C 0.00037 0.66734 0.46213 0.0
C2403 C 0.99085 0.64546 0.45313 0.0
C2404 C 0.97552 0.64517 0.43274 0.0
C2405 C 0.97209 0.66636 0.42015 0.0
C2406 C 0.01668 0.66821 0.48391 0.0
C2407 C 0.96466 0.62215 0.42288 0.0
C2408 C 0.02841 0.58972 0.45825 0.0
C2409 C 0.01494 0.57662 0.47498 0.0
C2410 C 0.02112 0.61256 0.45159 0.0
C2411 C 0.0002 0.62269 0.46238 0.0
C2412 C 0.98777 0.61047 0.4808 0.0
C2413 C -0.00462 0.58754 0.48699 0.0
C2414 C 0.03477 0.62502 0.43169 0.0
C2415 C 0.96535 0.62067 0.49264 0.0
H2416 H 0.00517 0.70479 0.45528 0.0
H2417 H 0.96172 0.6659 0.4036 0.0
H2418 H 0.00881 0.65747 0.49866 0.0
H2419 H 0.03452 0.66032 0.47916 0.0
H2420 H 0.01977 0.6868 0.49058 0.0
H2421 H 0.95058 0.62545 0.40907 0.0
H2422 H 0.9792 0.61116 0.41451 0.0
H2423 H 0.95644 0.61153 0.43753 0.0
H2424 H 0.04369 0.58152 0.44908 0.0
H2425 H 0.98493 0.5776 0.50008 0.0
H2426 H 0.03972 0.64352 0.43732 0.0
H2427 H 0.02296 0.62624 0.41562 0.0
H2428 H 0.05159 0.61542 0.42639 0.0
H2429 H 0.96754 0.6401 0.49639 0.0
H2430 H 0.96097 0.61152 0.50973 0.0
H2431 H 0.94965 0.61829 0.48035 0.0
C2432 C 0.56127 0.76948 0.67956 0.0
C2433 C 0.55948 0.75516 0.65879 0.0
C2434 C 0.58225 0.76914 0.69378 0.0
C2435 C 0.60152 0.7537 0.68727 0.0
C2436 C 0.59874 0.73762 0.66752 0.0
C2437 C 0.57791 0.73888 0.6532 0.0
C2438 C 0.58455 0.78669 0.71453 0.0
C2439 C 0.61846 0.72022 0.66052 0.0
C2440 C 0.66539 0.77754 0.69371 0.0
C2441 C 0.67447 0.76445 0.71305 0.0
C2442 C 0.6416 0.77439 0.68562 0.0
C2443 C 0.62611 0.75802 0.69737 0.0
C2444 C 0.63456 0.74556 0.71767 0.0
C2445 C 0.65877 0.74885 0.72525 0.0
C2446 C 0.63338 0.78796 0.66378 0.0
C2447 C 0.61839 0.72817 0.73077 0.0
H2448 H 0.54677 0.7818 0.684 0.0
H2449 H 0.57612 0.72727 0.6375 0.0
H2450 H 0.59251 0.778 0.73044 0.0
H2451 H 0.59695 0.80148 0.70934 0.0
H2452 H 0.56675 0.79449 0.71968 0.0
H2453 H 0.61179 0.70626 0.64769 0.0
H2454 H 0.63365 0.73005 0.65191 0.0
H2455 H 0.62579 0.71135 0.67664 0.0
H2456 H 0.67715 0.78981 0.68417 0.0
H2457 H 0.66553 0.73877 0.74028 0.0
H2458 H 0.6164 0.7978 0.66784 0.0
H2459 H 0.62942 0.7752 0.6488 0.0
H2460 H 0.64727 0.80095 0.6575 0.0
H2461 H 0.60056 0.73639 0.73491 0.0
H2462 H 0.62668 0.72212 0.7478 0.0
H2463 H 0.61485 0.71229 0.71908 0.0
C2464 C 0.59413 0.49076 0.6589 0.0
C2465 C 0.58355 0.49316 0.68174 0.0
C2466 C 0.57983 0.49145 0.63807 0.0
C2467 C 0.55443 0.49483 0.64021 0.0
C2468 C 0.54387 0.49831 0.66318 0.0
C2469 C 0.55854 0.49729 0.68368 0.0
C2470 C 0.59178 0.4876 0.61386 0.0
C2471 C 0.51695 0.50227 0.66614 0.0
C2472 C 0.52246 0.50841 0.58162 0.0
C2473 C 0.51613 0.48528 0.57376 0.0
C2474 C 0.53387 0.51214 0.60395 0.0
C2475 C 0.53874 0.49225 0.61864 0.0
C2476 C 0.53026 0.46922 0.6117 0.0
C2477 C 0.51897 0.46604 0.58935 0.0
C2478 C 0.54253 0.53699 0.61075 0.0
C2479 C 0.53499 0.44755 0.62687 0.0
H2480 H 0.61349 0.48772 0.65731 0.0
H2481 H 0.55033 0.49951 0.7013 0.0
H2482 H 0.58514 0.47057 0.60565 0.0
H2483 H 0.58687 0.50218 0.60151 0.0
H2484 H 0.61188 0.48683 0.61517 0.0
H2485 H 0.51197 0.50703 0.68497 0.0
H2486 H 0.51083 0.51673 0.65418 0.0
H2487 H 0.50692 0.48576 0.6608 0.0
H2488 H 0.52048 0.5233 0.56952 0.0
H2489 H 0.51399 0.44815 0.58328 0.0
H2490 H 0.56248 0.53818 0.60816 0.0
H2491 H 0.53869 0.541 0.62998 0.0
H2492 H 0.5339 0.55086 0.59957 0.0
H2493 H 0.55474 0.44372 0.62688 0.0
H2494 H 0.52521 0.43139 0.62005 0.0
H2495 H 0.52944 0.45096 0.64578 0.0
C2496 C 0.76739 0.349 0.90989 0.0
C2497 C 0.74356 0.35393 0.91694 0.0
C2498 C 0.77211 0.33304 0.89095 0.0
C2499 C 0.75242 0.32167 0.8791 0.0
C2500 C 0.72819 0.32722 0.88572 0.0
C2501 C 0.72402 0.34349 0.90468 0.0
C2502 C 0.79812 0.32766 0.88428 0.0
C2503 C 0.7068 0.31524 0.87345 0.0
C2504 C 0.76022 0.29348 0.81764 0.0
C2505 C 0.75974 0.26904 0.82303 0.0
C2506 C 0.75854 0.31088 0.83582 0.0
C2507 C 0.75709 0.30366 0.86 0.0
C2508 C 0.7587 0.27915 0.86577 0.0
C2509 C 0.75987 0.26204 0.84714 0.0
C2510 C 0.7567 0.33687 0.82902 0.0
C2511 C 0.75777 0.27095 0.89152 0.0
H2512 H 0.78236 0.35707 0.91982 0.0
H2513 H 0.70565 0.34715 0.91066 0.0
H2514 H 0.80199 0.30855 0.88757 0.0
H2515 H 0.80113 0.33078 0.86485 0.0
H2516 H 0.81125 0.3388 0.89474 0.0
H2517 H 0.68916 0.32213 0.88024 0.0
H2518 H 0.70774 0.318 0.85375 0.0
H2519 H 0.70736 0.29568 0.87642 0.0
H2520 H 0.76035 0.29912 0.79908 0.0
H2521 H 0.75982 0.24319 0.85145 0.0
H2522 H 0.77013 0.34782 0.83923 0.0
H2523 H 0.7384 0.34364 0.83381 0.0
H2524 H 0.75967 0.33959 0.80948 0.0
H2525 H 0.77124 0.28099 0.90261 0.0
H2526 H 0.76138 0.25151 0.89305 0.0
H2527 H 0.73956 0.27469 0.89923 0.0
C2528 C 0.91515 0.48661 0.16914 0.0
C2529 C 0.90537 0.50869 0.17586 0.0
C2530 C 0.9281 0.48418 0.14763 0.0
C2531 C 0.93107 0.50441 0.13294 0.0
C2532 C 0.92157 0.52689 0.14014 0.0
C2533 C 0.90873 0.52875 0.16171 0.0
C2534 C 0.9381 0.46002 0.14042 0.0
C2535 C 0.9242 0.54875 0.12467 0.0
C2536 C 0.97418 0.51008 0.08073 0.0
C2537 C 0.95782 0.50749 0.06164 0.0
C2538 C 0.96613 0.50744 0.10447 0.0
C2539 C 0.94141 0.50186 0.1087 0.0
C2540 C 0.92543 0.49735 0.08932 0.0
C2541 C 0.93382 0.50046 0.06597 0.0
C2542 C 0.98359 0.51187 0.12497 0.0
C2543 C 0.89905 0.49078 0.09317 0.0
H2544 H 0.91242 0.47129 0.1806 0.0
H2545 H 0.90106 0.54573 0.1674 0.0
H2546 H 0.93119 0.45448 0.12245 0.0
H2547 H 0.95816 0.46113 0.13904 0.0
H2548 H 0.93324 0.44595 0.15353 0.0
H2549 H 0.91659 0.56503 0.13345 0.0
H2550 H 0.94363 0.55211 0.12055 0.0
H2551 H 0.9147 0.54569 0.10731 0.0
H2552 H -0.0071 0.51504 0.07716 0.0
H2553 H 0.92147 0.49761 0.05102 0.0
H2554 H 0.98209 0.49738 0.13831 0.0
H2555 H 0.9789 0.52886 0.13438 0.0
H2556 H 0.00271 0.51309 0.11867 0.0
H2557 H 0.89728 0.47627 0.10645 0.0
H2558 H 0.89006 0.48485 0.07621 0.0
H2559 H 0.88919 0.50654 0.10047 0.0
C2560 C 0.74802 0.68704 0.41853 0.0
C2561 C 0.76607 0.67137 0.42592 0.0
C2562 C 0.74758 0.69541 0.39494 0.0
C2563 C 0.7663 0.68877 0.37862 0.0
C2564 C 0.78588 0.67477 0.38672 0.0
C2565 C 0.78525 0.66576 0.41022 0.0
C2566 C 0.72597 0.70983 0.38703 0.0
C2567 C 0.80678 0.66839 0.37031 0.0
C2568 C 0.73732 0.68781 0.31792 0.0
C2569 C 0.73986 0.71185 0.31181 0.0
C2570 C 0.749 0.67878 0.33818 0.0
C2571 C 0.76329 0.69441 0.35272 0.0
C2572 C 0.76867 0.71774 0.34459 0.0
C2573 C 0.75662 0.72633 0.32423 0.0
C2574 C 0.74299 0.65366 0.34593 0.0
C2575 C 0.78451 0.73456 0.3592 0.0
H2576 H 0.73309 0.69119 0.43061 0.0
H2577 H 0.79936 0.65375 0.41607 0.0
H2578 H 0.73207 0.72686 0.37895 0.0
H2579 H 0.71568 0.69965 0.37307 0.0
H2580 H 0.71341 0.71406 0.40213 0.0
H2581 H 0.82189 0.65993 0.3802 0.0
H2582 H 0.80051 0.65578 0.35602 0.0
H2583 H 0.81381 0.68459 0.36128 0.0
H2584 H 0.7243 0.67668 0.30824 0.0
H2585 H 0.75824 0.74507 0.31979 0.0
H2586 H 0.72993 0.65439 0.36115 0.0
H2587 H 0.75948 0.64442 0.35224 0.0
H2588 H 0.73469 0.64284 0.33114 0.0
H2589 H 0.77504 0.73968 0.37612 0.0
H2590 H 0.78893 0.75113 0.34934 0.0
H2591 H 0.80165 0.72562 0.36422 0.0
C2592 C 0.57406 0.46827 0.82502 0.0
C2593 C 0.58324 0.49147 0.82196 0.0
C2594 C 0.5645 0.46123 0.84728 0.0
C2595 C 0.56434 0.47782 0.86672 0.0
C2596 C 0.57635 0.50025 0.86428 0.0
C2597 C 0.58527 0.50697 0.84172 0.0
C2598 C 0.55277 0.43688 0.84936 0.0
C2599 C 0.57761 0.51822 0.88481 0.0
C2600 C 0.51 0.4928 0.9033 0.0
C2601 C 0.52035 0.4923 0.92622 0.0
C2602 C 0.52316 0.4851 0.88322 0.0
C2603 C 0.5465 0.47522 0.88661 0.0
C2604 C 0.55421 0.46953 0.91016 0.0
C2605 C 0.54108 0.4786 0.93001 0.0
C2606 C 0.51401 0.49182 0.8586 0.0
C2607 C 0.57774 0.45668 0.91433 0.0
H2608 H 0.57297 0.45617 0.80963 0.0
H2609 H 0.59299 0.52468 0.83931 0.0
H2610 H 0.55645 0.42913 0.86721 0.0
H2611 H 0.5328 0.43849 0.84755 0.0
H2612 H 0.55928 0.42436 0.8351 0.0
H2613 H 0.59032 0.53319 0.88094 0.0
H2614 H 0.5593 0.52575 0.88815 0.0
H2615 H 0.5836 0.50953 0.90156 0.0
H2616 H 0.49346 0.50288 0.90068 0.0
H2617 H 0.54863 0.47759 0.94795 0.0
H2618 H 0.51618 0.47683 0.84557 0.0
H2619 H 0.52477 0.50722 0.85187 0.0
H2620 H 0.49459 0.49706 0.85897 0.0
H2621 H 0.57846 0.44023 0.90297 0.0
H2622 H 0.57997 0.45171 0.93347 0.0
H2623 H 0.59327 0.46822 0.90907 0.0
C2624 C 0.74436 0.29857 0.05636 0.0
C2625 C 0.7588 0.31929 0.0557 0.0
C2626 C 0.73968 0.28723 0.07819 0.0
C2627 C 0.74996 0.29678 0.09956 0.0
C2628 C 0.76673 0.31604 0.0985 0.0
C2629 C 0.77097 0.32709 0.07649 0.0
C2630 C 0.72196 0.26653 0.07865 0.0
C2631 C 0.77841 0.32645 0.12092 0.0
C2632 C 0.71568 0.29703 0.15835 0.0
C2633 C 0.72889 0.28039 0.17149 0.0
C2634 C 0.72143 0.30145 0.13427 0.0
C2635 C 0.74092 0.28899 0.12325 0.0
C2636 C 0.75321 0.27104 0.13588 0.0
C2637 C 0.74693 0.26683 0.15983 0.0
C2638 C 0.70776 0.32063 0.12119 0.0
C2639 C 0.77415 0.25752 0.12474 0.0
H2640 H 0.73513 0.29233 0.04023 0.0
H2641 H 0.78251 0.34287 0.07591 0.0
H2642 H 0.72867 0.25216 0.0904 0.0
H2643 H 0.70438 0.27274 0.08615 0.0
H2644 H 0.71865 0.25891 0.06037 0.0
H2645 H 0.79319 0.33934 0.11666 0.0
H2646 H 0.76449 0.33593 0.13184 0.0
H2647 H 0.78597 0.31208 0.13215 0.0
H2648 H 0.70153 0.30735 0.16714 0.0
H2649 H 0.75723 0.25384 0.1698 0.0
H2650 H 0.70185 0.31397 0.10323 0.0
H2651 H 0.71992 0.33624 0.11831 0.0
H2652 H 0.69154 0.32679 0.13136 0.0
H2653 H 0.76955 0.25125 0.10628 0.0
H2654 H 0.77941 0.24188 0.1356 0.0
H2655 H 0.79014 0.26961 0.12332 0.0
C2656 C 0.93928 0.49532 0.32295 0.0
C2657 C 0.9159 0.49497 0.31327 0.0
C2658 C 0.94265 0.4971 0.3478 0.0
C2659 C 0.92209 0.49822 0.36318 0.0
C2660 C 0.89845 0.49769 0.35352 0.0
C2661 C 0.89563 0.49615 0.32858 0.0
C2662 C 0.96826 0.49791 0.35755 0.0
C2663 C 0.87623 0.49873 0.36944 0.0
C2664 C 0.94422 0.48002 0.4232 0.0
C2665 C 0.95273 0.50215 0.43155 0.0
C2666 C 0.93068 0.47854 0.402 0.0
C2667 C 0.92591 0.49978 0.38935 0.0
C2668 C 0.93117 0.52235 0.39998 0.0
C2669 C 0.94491 0.52326 0.42104 0.0
C2670 C 0.92502 0.45417 0.39134 0.0
C2671 C 0.92577 0.54542 0.38737 0.0
H2672 H 0.95492 0.49453 0.31111 0.0
H2673 H 0.87748 0.49566 0.32108 0.0
H2674 H 0.97123 0.51474 0.36799 0.0
H2675 H 0.97112 0.48282 0.36992 0.0
H2676 H 0.98217 0.4969 0.34307 0.0
H2677 H 0.8591 0.49839 0.35893 0.0
H2678 H 0.87608 0.48336 0.38182 0.0
H2679 H 0.87666 0.51523 0.38074 0.0
H2680 H 0.95042 0.4638 0.43163 0.0
H2681 H 0.95152 0.54036 0.42792 0.0
H2682 H 0.93937 0.44932 0.37813 0.0
H2683 H 0.90742 0.4541 0.38171 0.0
H2684 H 0.9245 0.44025 0.40538 0.0
H2685 H 0.94046 0.54914 0.37422 0.0
H2686 H 0.92493 0.56072 0.40032 0.0
H2687 H 0.9084 0.54427 0.37737 0.0
C2688 C 0.73008 0.65849 0.57933 0.0
C2689 C 0.74641 0.64061 0.57252 0.0
C2690 C 0.73245 0.67046 0.60157 0.0
C2691 C 0.75203 0.66475 0.61694 0.0
C2692 C 0.76809 0.64609 0.61033 0.0
C2693 C 0.76488 0.63402 0.58824 0.0
C2694 C 0.71457 0.68983 0.60818 0.0
C2695 C 0.78929 0.63966 0.62604 0.0
C2696 C 0.77391 0.71672 0.65579 0.0
C2697 C 0.76224 0.71231 0.67778 0.0
C2698 C 0.77143 0.70089 0.63617 0.0
C2699 C 0.75708 0.67997 0.63857 0.0
C2700 C 0.74648 0.67461 0.6611 0.0
C2701 C 0.7493 0.69081 0.68052 0.0
C2702 C 0.78289 0.70737 0.6124 0.0
C2703 C 0.73103 0.65247 0.66428 0.0
H2704 H 0.71558 0.6632 0.56716 0.0
H2705 H 0.77736 0.62001 0.58283 0.0
H2706 H 0.7076 0.68727 0.6267 0.0
H2707 H 0.72382 0.7075 0.60782 0.0
H2708 H 0.69891 0.69017 0.59564 0.0
H2709 H 0.79894 0.62353 0.61925 0.0
H2710 H 0.80238 0.65483 0.62678 0.0
H2711 H 0.78306 0.63643 0.64469 0.0
H2712 H 0.78403 0.73323 0.65353 0.0
H2713 H 0.74002 0.68741 0.69732 0.0
H2714 H 0.76845 0.7112 0.59914 0.0
H2715 H 0.79361 0.69217 0.60512 0.0
H2716 H 0.79495 0.72332 0.61396 0.0
H2717 H 0.71568 0.65244 0.65141 0.0
H2718 H 0.72353 0.65122 0.68273 0.0
H2719 H 0.74194 0.63627 0.66034 0.0
C2720 C 0.67274 0.57417 0.48282 0.0
C2721 C 0.67542 0.59906 0.48439 0.0
C2722 C 0.65007 0.56322 0.48618 0.0
C2723 C 0.62945 0.5775 0.49111 0.0
C2724 C 0.63199 0.60267 0.49285 0.0
C2725 C 0.65498 0.61318 0.48941 0.0
C2726 C 0.64823 0.53628 0.4846 0.0
C2727 C 0.61059 0.61841 0.49887 0.0
C2728 C 0.57123 0.54464 0.47522 0.0
C2729 C 0.56611 0.53341 0.49695 0.0
C2730 C 0.59096 0.56058 0.47342 0.0
C2731 C 0.60537 0.56568 0.49399 0.0
C2732 C 0.59861 0.55621 0.51651 0.0
C2733 C 0.57927 0.53984 0.51762 0.0
C2734 C 0.59755 0.57043 0.44914 0.0
C2735 C 0.61274 0.56192 0.53912 0.0
H2736 H 0.68847 0.56315 0.47917 0.0
H2737 H 0.65698 0.63244 0.49093 0.0
H2738 H 0.64146 0.52916 0.5019 0.0
H2739 H 0.63502 0.53088 0.47046 0.0
H2740 H 0.66596 0.5278 0.48043 0.0
H2741 H 0.61521 0.63774 0.49783 0.0
H2742 H 0.59525 0.61445 0.48651 0.0
H2743 H 0.60417 0.61463 0.51736 0.0
H2744 H 0.56086 0.53975 0.45933 0.0
H2745 H 0.57484 0.53152 0.5346 0.0
H2746 H 0.6145 0.56188 0.4426 0.0
H2747 H 0.60108 0.58996 0.45051 0.0
H2748 H 0.58306 0.56709 0.43562 0.0
H2749 H 0.62911 0.55049 0.53966 0.0
H2750 H 0.60177 0.55843 0.55552 0.0
H2751 H 0.61889 0.58084 0.53959 0.0
C2752 C 0.16252 0.89742 0.4832 0.0
C2753 C 0.17483 0.89624 0.50512 0.0
C2754 C 0.14336 0.91344 0.48042 0.0
C2755 C 0.13631 0.92793 0.50025 0.0
C2756 C 0.14873 0.92657 0.52245 0.0
C2757 C 0.16809 0.91084 0.5245 0.0
C2758 C 0.13075 0.91492 0.45641 0.0
C2759 C 0.14123 0.94129 0.54421 0.0
C2760 C 0.09358 0.98036 0.50105 0.0
C2761 C 0.07303 0.96916 0.51058 0.0
C2762 C 0.11428 0.96676 0.49552 0.0
C2763 C 0.11376 0.94175 0.49945 0.0
C2764 C 0.09222 0.93035 0.50704 0.0
C2765 C 0.07223 0.94426 0.51269 0.0
C2766 C 0.13699 0.97916 0.48681 0.0
C2767 C 0.09073 0.9037 0.51112 0.0
H2768 H 0.16853 0.88657 0.46803 0.0
H2769 H 0.17815 0.91004 0.54121 0.0
H2770 H 0.11128 0.91006 0.4583 0.0
H2771 H 0.13153 0.93356 0.44988 0.0
H2772 H 0.13905 0.90294 0.44261 0.0
H2773 H 0.15365 0.93893 0.55969 0.0
H2774 H 0.14083 0.96054 0.53971 0.0
H2775 H 0.12262 0.93604 0.54986 0.0
H2776 H 0.09375 -0.00042 0.49878 0.0
H2777 H 0.05592 0.93556 0.5193 0.0
H2778 H 0.14541 0.96886 0.4718 0.0
H2779 H 0.15043 0.98021 0.50162 0.0
H2780 H 0.13326 -0.00239 0.48071 0.0
H2781 H 0.09831 0.89362 0.49556 0.0
H2782 H 0.07177 0.89747 0.5141 0.0
H2783 H 0.10162 0.89917 0.52717 0.0
C2784 C 0.33176 0.91995 0.74614 0.0
C2785 C 0.35675 0.92069 0.74138 0.0
C2786 C 0.31917 0.89826 0.74687 0.0
C2787 C 0.33186 0.87669 0.74277 0.0
C2788 C 0.35718 0.87713 0.73843 0.0
C2789 C 0.36938 0.89924 0.73771 0.0
C2790 C 0.29211 0.89853 0.75156 0.0
C2791 C 0.37123 0.85445 0.73378 0.0
C2792 C 0.29493 0.82397 0.76374 0.0
C2793 C 0.28154 0.81887 0.74296 0.0
C2794 C 0.31299 0.84176 0.76359 0.0
C2795 C 0.31793 0.85402 0.742 0.0
C2796 C 0.30597 0.84719 0.72048 0.0
C2797 C 0.2876 0.82987 0.72131 0.0
C2798 C 0.32529 0.84878 0.78689 0.0
C2799 C 0.31129 0.85933 0.69695 0.0
H2800 H 0.32184 0.93641 0.74908 0.0
H2801 H 0.38871 0.89969 0.73403 0.0
H2802 H 0.28231 0.89125 0.73562 0.0
H2803 H 0.28757 0.88697 0.767 0.0
H2804 H 0.28524 0.91682 0.75547 0.0
H2805 H 0.39112 0.85741 0.73548 0.0
H2806 H 0.36559 0.84021 0.74635 0.0
H2807 H 0.36742 0.84784 0.71526 0.0
H2808 H 0.29027 0.81514 0.78037 0.0
H2809 H 0.27757 0.82527 0.7051 0.0
H2810 H 0.31803 0.86619 0.79337 0.0
H2811 H 0.34511 0.85109 0.78415 0.0
H2812 H 0.32218 0.83533 0.8011 0.0
H2813 H 0.30311 0.87741 0.69722 0.0
H2814 H 0.30374 0.84911 0.68136 0.0
H2815 H 0.33113 0.86157 0.69431 0.0
C2816 C 0.33348 0.0887 -0.00633 0.0
C2817 C 0.31461 0.0735 0.98605 0.0
C2818 C 0.35744 0.08047 -0.00555 0.0
C2819 C 0.36248 0.05677 0.98674 0.0
C2820 C 0.34393 0.04272 0.97584 0.0
C2821 C 0.31999 0.051 0.97624 0.0
C2822 C 0.37672 0.09613 0.00597 0.0
C2823 C 0.3488 0.01782 0.9663 0.0
C2824 C 0.42649 0.03213 -0.00596 0.0
C2825 C 0.42377 0.01987 0.01569 0.0
C2826 C 0.4068 0.04454 0.98413 0.0
C2827 C 0.38412 0.04451 -0.00372 0.0
C2828 C 0.38153 0.03223 0.01821 0.0
C2829 C 0.40121 0.01983 0.02736 0.0
C2830 C 0.41083 0.05855 0.9615 0.0
C2831 C 0.35812 0.03275 0.03256 0.0
H2832 H 0.32924 0.1063 0.0009 0.0
H2833 H 0.3054 0.03953 0.96971 0.0
H2834 H 0.38299 0.08794 0.0229 0.0
H2835 H 0.39262 0.09761 -0.00616 0.0
H2836 H 0.37001 0.11441 0.01018 0.0
H2837 H 0.33541 0.01249 0.95227 0.0
H2838 H 0.36737 0.01648 0.95867 0.0
H2839 H 0.34728 0.00495 0.98123 0.0
H2840 H 0.44407 0.03266 0.98527 0.0
H2841 H 0.39899 0.01046 0.04417 0.0
H2842 H 0.41769 0.07665 0.96645 0.0
H2843 H 0.3939 0.06054 0.95096 0.0
H2844 H 0.42484 0.0501 0.94991 0.0
H2845 H 0.3524 0.0515 0.03587 0.0
H2846 H 0.35986 0.02389 0.05021 0.0
H2847 H 0.34344 0.02357 0.02231 0.0
C2848 C 0.6529 0.58281 0.71695 0.0
C2849 C 0.65132 0.57205 0.73953 0.0
C2850 C 0.66555 0.60453 0.71401 0.0
C2851 C 0.67607 0.61603 0.73434 0.0
C2852 C 0.67442 0.60507 0.75719 0.0
C2853 C 0.66234 0.58304 0.75941 0.0
C2854 C 0.66764 0.61509 0.68926 0.0
C2855 C 0.68493 0.61693 0.77947 0.0
C2856 C 0.72621 0.66164 0.73922 0.0
C2857 C 0.71316 0.68156 0.74739 0.0
C2858 C 0.71416 0.6407 0.73154 0.0
C2859 C 0.6885 0.63971 0.73245 0.0
C2860 C 0.67533 0.66092 0.73742 0.0
C2861 C 0.6879 0.68169 0.74494 0.0
C2862 C 0.72899 0.61884 0.72549 0.0
C2863 C 0.64796 0.6608 0.73825 0.0
H2864 H 0.64417 0.5742 0.70162 0.0
H2865 H 0.66069 0.57481 0.77688 0.0
H2866 H 0.66054 0.6336 0.68933 0.0
H2867 H 0.68703 0.61614 0.68392 0.0
H2868 H 0.65767 0.60433 0.67549 0.0
H2869 H 0.68142 0.60642 0.79593 0.0
H2870 H 0.70483 0.61924 0.77737 0.0
H2871 H 0.67701 0.63498 0.78207 0.0
H2872 H 0.74579 0.66151 0.74129 0.0
H2873 H 0.6778 0.69698 0.75162 0.0
H2874 H 0.72029 0.60796 0.71102 0.0
H2875 H 0.73038 0.60753 0.74165 0.0
H2876 H 0.74767 0.62378 0.71971 0.0
H2877 H 0.64026 0.65049 0.72285 0.0
H2878 H 0.64055 0.6792 0.73806 0.0
H2879 H 0.64179 0.65206 0.755 0.0
C2880 C 0.83232 0.3973 0.98105 0.0
C2881 C 0.81611 0.41644 0.98309 0.0
C2882 C 0.85738 0.40134 0.98005 0.0
C2883 C 0.86628 0.42504 0.98167 0.0
C2884 C 0.84995 0.44442 0.98429 0.0
C2885 C 0.82496 0.43988 0.98463 0.0
C2886 C 0.87422 0.38033 0.97701 0.0
C2887 C 0.85887 0.46998 0.98655 0.0
C2888 C 0.92945 0.4446 -0.00174 0.0
C2889 C 0.93675 0.45457 0.97642 0.0
C2890 C 0.90712 0.43264 2e-05 0.0
C2891 C 0.89251 0.43011 0.97923 0.0
C2892 C 0.90168 0.43697 0.95654 0.0
C2893 C 0.92364 0.44961 0.95547 0.0
C2894 C 0.89789 0.42582 0.02459 0.0
C2895 C 0.88694 0.43373 0.93386 0.0
H2896 H 0.82538 0.37913 0.97972 0.0
H2897 H 0.81236 0.45462 0.98641 0.0
H2898 H 0.88679 0.38327 0.9617 0.0
H2899 H 0.88548 0.37852 -0.00662 0.0
H2900 H 0.86419 0.36327 0.97386 0.0
H2901 H 0.84381 0.48279 0.98962 0.0
H2902 H 0.87186 0.47175 0.0017 0.0
H2903 H 0.86866 0.47511 0.96993 0.0
H2904 H 0.93963 0.44873 0.0145 0.0
H2905 H 0.92945 0.45742 0.93866 0.0
H2906 H 0.88777 0.40862 0.02386 0.0
H2907 H 0.88521 0.43978 0.03126 0.0
H2908 H 0.91294 0.42437 0.03776 0.0
H2909 H 0.8778 0.41599 0.93339 0.0
H2910 H 0.89839 0.43549 0.9175 0.0
H2911 H 0.87265 0.44761 0.93337 0.0
C2912 C 0.29637 0.06232 0.73567 0.0
C2913 C 0.31381 0.05878 0.75351 0.0
C2914 C 0.28504 0.08454 0.73356 0.0
C2915 C 0.29108 0.10315 0.75004 0.0
C2916 C 0.3065 0.09864 0.76975 0.0
C2917 C 0.31788 0.07646 0.77113 0.0
C2918 C 0.26881 0.0888 0.71225 0.0
C2919 C 0.31303 0.11799 0.78791 0.0
C2920 C 0.29822 0.16652 0.72918 0.0
C2921 C 0.278 0.17753 0.73981 0.0
C2922 C 0.30196 0.14198 0.73136 0.0
C2923 C 0.28507 0.12815 0.74455 0.0
C2924 C 0.26405 0.13887 0.75436 0.0
C2925 C 0.26075 0.16351 0.7519 0.0
C2926 C 0.32461 0.13109 0.72052 0.0
C2927 C 0.24566 0.12457 0.76839 0.0
H2928 H 0.29324 0.04857 0.72206 0.0
H2929 H 0.33116 0.0735 0.78512 0.0
H2930 H 0.25282 0.09962 0.71754 0.0
H2931 H 0.27906 0.09896 0.69851 0.0
H2932 H 0.26241 0.07174 0.70385 0.0
H2933 H 0.32211 0.11063 0.80398 0.0
H2934 H 0.32555 0.13106 0.77947 0.0
H2935 H 0.29662 0.12786 0.79384 0.0
H2936 H 0.31146 0.17714 0.71951 0.0
H2937 H 0.24496 0.17185 0.76 0.0
H2938 H 0.31996 0.11486 0.70972 0.0
H2939 H 0.33698 0.12555 0.7351 0.0
H2940 H 0.33456 0.14379 0.70882 0.0
H2941 H 0.24085 0.1078 0.75856 0.0
H2942 H 0.2288 0.13482 0.77197 0.0
H2943 H 0.25362 0.11946 0.78587 0.0
C2944 C 0.15672 0.90594 0.24739 0.0
C2945 C 0.16709 0.9273 0.25611 0.0
C2946 C 0.16951 0.88443 0.24795 0.0
C2947 C 0.19303 0.88409 0.25819 0.0
C2948 C 0.20277 0.90523 0.26885 0.0
C2949 C 0.18987 0.92678 0.26725 0.0
C2950 C 0.15865 0.8626 0.23561 0.0
C2951 C 0.22737 0.90535 0.28075 0.0
C2952 C 0.21847 0.82096 0.25701 0.0
C2953 C 0.23049 0.82112 0.23479 0.0
C2954 C 0.20794 0.84211 0.26634 0.0
C2955 C 0.20898 0.86337 0.25268 0.0
C2956 C 0.2227 0.86383 0.2312 0.0
C2957 C 0.23369 0.84292 0.22292 0.0
C2958 C 0.19459 0.84139 0.29 0.0
C2959 C 0.22388 0.88575 0.21555 0.0
H2960 H 0.13904 0.90627 0.23888 0.0
H2961 H 0.19768 0.9432 0.2745 0.0
H2962 H 0.16921 0.85838 0.21907 0.0
H2963 H 0.15961 0.84685 0.24741 0.0
H2964 H 0.1394 0.8653 0.23045 0.0
H2965 H 0.23005 0.92143 0.29243 0.0
H2966 H 0.22968 0.88909 0.2917 0.0
H2967 H 0.2418 0.90526 0.26682 0.0
H2968 H 0.21628 0.80427 0.26647 0.0
H2969 H 0.24362 0.84344 0.20608 0.0
H2970 H 0.17474 0.84151 0.28676 0.0
H2971 H 0.19909 0.85746 0.30112 0.0
H2972 H 0.19904 0.82511 0.30029 0.0
H2973 H 0.20546 0.8898 0.20871 0.0
H2974 H 0.23618 0.88333 0.19986 0.0
H2975 H 0.23022 0.90155 0.22608 0.0
C2976 C 0.504 0.34809 0.38541 0.0
C2977 C 0.49275 0.32722 0.39385 0.0
C2978 C 0.50133 0.3701 0.39745 0.0
C2979 C 0.48685 0.37149 0.41848 0.0
C2980 C 0.47317 0.35115 0.42549 0.0
C2981 C 0.47657 0.32909 0.41333 0.0
C2982 C 0.51629 0.39118 0.38915 0.0
C2983 C 0.45636 0.35228 0.44691 0.0
C2984 C 0.52079 0.40712 0.46549 0.0
C2985 C 0.5107 0.43005 0.46388 0.0
C2986 C 0.5118 0.38774 0.45214 0.0
C2987 C 0.49221 0.39112 0.43621 0.0
C2988 C 0.48085 0.41386 0.43534 0.0
C2989 C 0.49009 0.43309 0.44952 0.0
C2990 C 0.5243 0.36383 0.45429 0.0
C2991 C 0.45933 0.41793 0.41922 0.0
H2992 H 0.5161 0.34707 0.37004 0.0
H2993 H 0.46703 0.31328 0.41943 0.0
H2994 H 0.50544 0.40779 0.38966 0.0
H2995 H 0.53196 0.39385 0.40144 0.0
H2996 H 0.5234 0.38844 0.37061 0.0
H2997 H 0.44335 0.337 0.44694 0.0
H2998 H 0.46714 0.35181 0.46371 0.0
H2999 H 0.44602 0.36924 0.44711 0.0
H3000 H 0.53614 0.40417 0.47721 0.0
H3001 H 0.48165 0.45048 0.44888 0.0
H3002 H 0.53267 0.35867 0.43681 0.0
H3003 H 0.51093 0.34973 0.45899 0.0
H3004 H 0.53874 0.36409 0.4682 0.0
H3005 H 0.46393 0.41325 0.40032 0.0
H3006 H 0.45306 0.43677 0.42003 0.0
H3007 H 0.44411 0.40607 0.42464 0.0
C3008 C 0.43574 0.74811 0.20043 0.0
C3009 C 0.43997 0.74812 0.17555 0.0
C3010 C 0.41198 0.74793 0.2096 0.0
C3011 C 0.39216 0.74734 0.19346 0.0
C3012 C 0.39635 0.74728 0.16836 0.0
C3013 C 0.42019 0.74785 0.15973 0.0
C3014 C 0.40803 0.74857 0.23647 0.0
C3015 C 0.37563 0.74663 0.15057 0.0
C3016 C 0.32909 0.72725 0.21205 0.0
C3017 C 0.31722 0.74923 0.21318 0.0
C3018 C 0.35394 0.72631 0.20653 0.0
C3019 C 0.36691 0.74791 0.20255 0.0
C3020 C 0.35502 0.77016 0.20492 0.0
C3021 C 0.33017 0.7705 0.20991 0.0
C3022 C 0.36597 0.70226 0.20367 0.0
C3023 C 0.36822 0.79357 0.20107 0.0
H3024 H 0.45098 0.74837 0.21273 0.0
H3025 H 0.42331 0.74766 0.14047 0.0
H3026 H 0.39712 0.76445 0.24163 0.0
H3027 H 0.39759 0.73253 0.24202 0.0
H3028 H 0.42539 0.74923 0.2466 0.0
H3029 H 0.38207 0.74579 0.13163 0.0
H3030 H 0.36381 0.73087 0.15388 0.0
H3031 H 0.36429 0.76281 0.15293 0.0
H3032 H 0.31873 0.71088 0.21431 0.0
H3033 H 0.32069 0.78743 0.21085 0.0
H3034 H 0.38283 0.70172 0.21451 0.0
H3035 H 0.37123 0.69935 0.18458 0.0
H3036 H 0.35385 0.68733 0.20917 0.0
H3037 H 0.38527 0.79422 0.21164 0.0
H3038 H 0.35696 0.80923 0.20624 0.0
H3039 H 0.37324 0.79515 0.18183 0.0
C3040 C 0.02122 0.67093 0.92439 0.0
C3041 C -0.00167 0.6784 0.91669 0.0
C3042 C 0.02461 0.64784 0.93324 0.0
C3043 C 0.00436 0.63233 0.93545 0.0
C3044 C 0.98107 0.64001 0.92796 0.0
C3045 C 0.97847 0.66282 0.9181 0.0
C3046 C 0.04988 0.63982 0.93962 0.0
C3047 C 0.95888 0.6242 0.93045 0.0
C3048 C 0.00213 0.56538 0.94265 0.0
C3049 C -0.00376 0.56408 0.96708 0.0
C3050 C 0.0079 0.58749 0.93231 0.0
C3051 C 0.00694 0.60856 0.94677 0.0
C3052 C 0.00404 0.60671 0.97198 0.0
C3053 C -0.00093 0.58432 0.98187 0.0
C3054 C 0.01212 0.58843 0.90553 0.0
C3055 C 0.00255 0.62863 0.9881 0.0
H3056 H 0.03669 0.68288 0.92256 0.0
H3057 H 0.96088 0.6686 0.91178 0.0
H3058 H 0.0507 0.63469 0.95878 0.0
H3059 H 0.05463 0.62371 0.92875 0.0
H3060 H 0.06376 0.65393 0.93639 0.0
H3061 H 0.94192 0.63351 0.9254 0.0
H3062 H 0.96078 0.60807 0.91877 0.0
H3063 H 0.95707 0.61806 0.94926 0.0
H3064 H -0.0003 0.5497 0.93118 0.0
H3065 H -0.00579 0.5832 0.00074 0.0
H3066 H 0.02439 0.60345 0.90072 0.0
H3067 H -0.00548 0.59104 0.8963 0.0
H3068 H 0.02001 0.57143 0.89863 0.0
H3069 H 0.01728 0.64154 0.984 0.0
H3070 H 0.0036 0.62402 0.00744 0.0
H3071 H 0.98502 0.63773 0.98495 0.0
C3072 C 0.08792 0.2282 0.62906 0.0
C3073 C 0.07893 0.25132 0.63265 0.0
C3074 C 0.11001 0.2215 0.63929 0.0
C3075 C 0.1235 0.23858 0.65282 0.0
C3076 C 0.11553 0.26262 0.65434 0.0
C3077 C 0.09299 0.26861 0.64458 0.0
C3078 C 0.11753 0.19562 0.63777 0.0
C3079 C 0.12955 0.28147 0.66834 0.0
C3080 C 0.1522 0.21912 0.71043 0.0
C3081 C 0.177 0.22331 0.70595 0.0
C3082 C 0.13472 0.2235 0.69302 0.0
C3083 C 0.14224 0.23045 0.66984 0.0
C3084 C 0.16729 0.23166 0.66416 0.0
C3085 C 0.18453 0.22851 0.68248 0.0
C3086 C 0.10821 0.22295 0.70029 0.0
C3087 C 0.17571 0.23763 0.63916 0.0
H3088 H 0.0768 0.21485 0.61988 0.0
H3089 H 0.08593 0.28654 0.64706 0.0
H3090 H 0.13734 0.19414 0.63457 0.0
H3091 H 0.11344 0.18685 0.6551 0.0
H3092 H 0.10768 0.18569 0.6233 0.0
H3093 H 0.12307 0.2998 0.66451 0.0
H3094 H 0.12737 0.27829 0.68788 0.0
H3095 H 0.1492 0.28052 0.66409 0.0
H3096 H 0.14604 0.21455 0.72831 0.0
H3097 H 0.20365 0.23131 0.67872 0.0
H3098 H 0.09752 0.2116 0.68764 0.0
H3099 H 0.1007 0.2413 0.69964 0.0
H3100 H 0.10545 0.21614 0.71877 0.0
H3101 H 0.16816 0.22442 0.62606 0.0
H3102 H 0.19583 0.23776 0.63757 0.0
H3103 H 0.16871 0.2554 0.63413 0.0
C3104 C 0.48462 0.65958 0.09519 0.0
C3105 C 0.50521 0.67125 0.10441 0.0
C3106 C 0.48702 0.63887 0.08086 0.0
C3107 C 0.51058 0.6305 0.07507 0.0
C3108 C 0.53133 0.64233 0.08446 0.0
C3109 C 0.52834 0.66232 0.09946 0.0
C3110 C 0.46452 0.62633 0.07146 0.0
C3111 C 0.5567 0.63467 0.07763 0.0
C3112 C 0.51943 0.56789 0.04979 0.0
C3113 C 0.52052 0.57231 0.02507 0.0
C3114 C 0.51615 0.58673 0.06638 0.0
C3115 C 0.51381 0.61034 0.05793 0.0
C3116 C 0.51561 0.61498 0.03309 0.0
C3117 C 0.5193 0.59595 0.01701 0.0
C3118 C 0.51468 0.5814 0.09287 0.0
C3119 C 0.51292 0.63993 0.02336 0.0
H3120 H 0.46677 0.66679 0.099 0.0
H3121 H 0.5442 0.67186 0.1062 0.0
H3122 H 0.46463 0.62598 0.05151 0.0
H3123 H 0.4643 0.60747 0.07739 0.0
H3124 H 0.44758 0.63511 0.07775 0.0
H3125 H 0.57088 0.6456 0.08688 0.0
H3126 H 0.55941 0.61561 0.08206 0.0
H3127 H 0.55928 0.63636 0.05792 0.0
H3128 H 0.52049 0.54968 0.05609 0.0
H3129 H 0.51993 0.59958 -0.00207 0.0
H3130 H 0.49726 0.58803 0.10037 0.0
H3131 H 0.52945 0.591 0.10262 0.0
H3132 H 0.51616 0.56199 0.09647 0.0
H3133 H 0.49465 0.64693 0.02789 0.0
H3134 H 0.51526 0.64045 0.00353 0.0
H3135 H 0.52645 0.65218 0.03181 0.0
C3136 C 0.08012 0.72546 0.82641 0.0
C3137 C 0.07654 0.7355 0.84938 0.0
C3138 C 0.10279 0.72701 0.81497 0.0
C3139 C 0.12218 0.73904 0.8268 0.0
C3140 C 0.11928 0.74692 0.85095 0.0
C3141 C 0.09647 0.74496 0.86202 0.0
C3142 C 0.1051 0.71819 0.78929 0.0
C3143 C 0.13941 0.76001 0.86412 0.0
C3144 C 0.18303 0.74683 0.79454 0.0
C3145 C 0.18014 0.76964 0.78484 0.0
C3146 C 0.16455 0.73653 0.80873 0.0
C3147 C 0.14248 0.74901 0.81234 0.0
C3148 C 0.13947 0.77187 0.80232 0.0
C3149 C 0.15849 0.78208 0.78938 0.0
C3150 C 0.16853 0.71235 0.81966 0.0
C3151 C 0.11587 0.78546 0.80468 0.0
H3152 H 0.06486 0.71759 0.8168 0.0
H3153 H 0.0939 0.7524 0.87994 0.0
H3154 H 0.10465 0.73368 0.77705 0.0
H3155 H 0.12265 0.70899 0.7864 0.0
H3156 H 0.09009 0.70575 0.78421 0.0
H3157 H 0.13602 0.76094 0.88381 0.0
H3158 H 0.15713 0.75124 0.86079 0.0
H3159 H 0.14078 0.77856 0.85739 0.0
H3160 H 0.19951 0.73698 0.79092 0.0
H3161 H 0.15577 0.79963 0.78188 0.0
H3162 H 0.15436 0.69957 0.81335 0.0
H3163 H 0.16691 0.71377 0.83952 0.0
H3164 H 0.18664 0.70494 0.81506 0.0
H3165 H 0.1007 0.77456 0.79716 0.0
H3166 H 0.11636 0.80278 0.79517 0.0
H3167 H 0.11171 0.78908 0.82391 0.0
C3168 C 0.98268 0.31763 0.55105 0.0
C3169 C -0.00783 0.3185 0.57439 0.0
C3170 C 0.98026 0.33864 0.53782 0.0
C3171 C 0.98784 0.3607 0.5482 0.0
C3172 C -0.00151 0.3614 0.57132 0.0
C3173 C 0.0003 0.3403 0.58421 0.0
C3174 C 0.96888 0.3374 0.51317 0.0
C3175 C 0.00718 0.38456 0.58289 0.0
C3176 C -0.00251 0.41877 0.51591 0.0
C3177 C 0.9773 0.43166 0.52416 0.0
C3178 C 0.00046 0.39477 0.52205 0.0
C3179 C 0.98255 0.38351 0.53633 0.0
C3180 C 0.96107 0.39583 0.54272 0.0
C3181 C 0.95878 0.41987 0.53666 0.0
C3182 C 0.02377 0.3823 0.51526 0.0
C3183 C 0.94156 0.38435 0.55791 0.0
H3184 H 0.9766 0.30068 0.54341 0.0
H3185 H 0.00811 0.3409 0.60209 0.0
H3186 H 0.95125 0.34688 0.51352 0.0
H3187 H 0.98067 0.34654 0.49992 0.0
H3188 H 0.96567 0.31868 0.50694 0.0
H3189 H 0.01697 0.38161 0.60003 0.0
H3190 H 0.01948 0.39429 0.57053 0.0
H3191 H 0.99143 0.39628 0.58669 0.0
H3192 H 0.01185 0.42788 0.50625 0.0
H3193 H 0.94302 0.42978 0.54278 0.0
H3194 H 0.02006 0.36379 0.50874 0.0
H3195 H 0.03551 0.38107 0.53137 0.0
H3196 H 0.03401 0.39206 0.50118 0.0
H3197 H 0.93711 0.36614 0.55099 0.0
H3198 H 0.92466 0.39508 0.55845 0.0
H3199 H 0.94825 0.38253 0.5766 0.0
C3200 C 0.41924 0.24181 0.32719 0.0
C3201 C 0.43578 0.25919 0.31946 0.0
C3202 C 0.39498 0.24211 0.31964 0.0
C3203 C 0.38699 0.26053 0.30435 0.0
C3204 C 0.4034 0.27867 0.29723 0.0
C3205 C 0.42772 0.27759 0.30459 0.0
C3206 C 0.37798 0.22247 0.32768 0.0
C3207 C 0.39526 0.29919 0.28191 0.0
C3208 C 0.33206 0.24347 0.26678 0.0
C3209 C 0.31322 0.25124 0.28174 0.0
C3210 C 0.35637 0.24741 0.2734 0.0
C3211 C 0.36171 0.25999 0.2951 0.0
C3212 C 0.34261 0.26975 0.30909 0.0
C3213 C 0.31853 0.26489 0.30243 0.0
C3214 C 0.37625 0.2366 0.25811 0.0
C3215 C 0.34746 0.28402 0.33186 0.0
H3216 H 0.42539 0.2277 0.33883 0.0
H3217 H 0.44035 0.29141 0.29903 0.0
H3218 H 0.36212 0.23027 0.3372 0.0
H3219 H 0.37098 0.21244 0.31176 0.0
H3220 H 0.38695 0.20969 0.33985 0.0
H3221 H 0.4099 0.31268 0.27928 0.0
H3222 H 0.38934 0.29235 0.26403 0.0
H3223 H 0.37942 0.30817 0.29035 0.0
H3224 H 0.32782 0.23291 0.2508 0.0
H3225 H 0.30379 0.27118 0.3138 0.0
H3226 H 0.38518 0.22212 0.26819 0.0
H3227 H 0.39035 0.25022 0.25405 0.0
H3228 H 0.36924 0.22899 0.2409 0.0
H3229 H 0.35214 0.27167 0.34654 0.0
H3230 H 0.33134 0.29451 0.3376 0.0
H3231 H 0.36304 0.29646 0.32949 0.0
C3232 C 0.41806 0.46885 0.32012 0.0
C3233 C 0.42744 0.48315 0.30182 0.0
C3234 C 0.42752 0.47041 0.34353 0.0
C3235 C 0.44651 0.48696 0.34866 0.0
C3236 C 0.45646 0.50086 0.32989 0.0
C3237 C 0.4469 0.49862 0.30659 0.0
C3238 C 0.4165 0.45515 0.36295 0.0
C3239 C 0.4763 0.51905 0.33468 0.0
C3240 C 0.44766 0.51689 0.41002 0.0
C3241 C 0.46707 0.50555 0.42153 0.0
C3242 C 0.44058 0.5105 0.38667 0.0
C3243 C 0.45341 0.49251 0.37402 0.0
C3244 C 0.47314 0.48096 0.38526 0.0
C3245 C 0.47978 0.48764 0.40894 0.0
C3246 C 0.41918 0.52306 0.37558 0.0
C3247 C 0.48707 0.46152 0.37233 0.0
H3248 H 0.40316 0.45665 0.31613 0.0
H3249 H 0.45417 0.50946 0.29222 0.0
H3250 H 0.43094 0.44636 0.37344 0.0
H3251 H 0.40603 0.46659 0.37564 0.0
H3252 H 0.40411 0.44117 0.35547 0.0
H3253 H 0.48345 0.52695 0.31785 0.0
H3254 H 0.46914 0.5337 0.34629 0.0
H3255 H 0.49152 0.51073 0.34446 0.0
H3256 H 0.43741 0.5306 0.41944 0.0
H3257 H 0.49476 0.47876 0.41758 0.0
H3258 H 0.4051 0.5098 0.37011 0.0
H3259 H 0.42507 0.53253 0.35915 0.0
H3260 H 0.41074 0.53626 0.38811 0.0
H3261 H 0.47451 0.44697 0.3665 0.0
H3262 H 0.50143 0.45377 0.38379 0.0
H3263 H 0.49565 0.46878 0.35589 0.0
C3264 C 0.21925 0.64526 0.07933 0.0
C3265 C 0.24135 0.63403 0.07476 0.0
C3266 C 0.21593 0.65902 0.10016 0.0
C3267 C 0.23516 0.66119 0.11684 0.0
C3268 C 0.25741 0.64923 0.11261 0.0
C3269 C 0.26034 0.63578 0.0913 0.0
C3270 C 0.1923 0.67221 0.10366 0.0
C3271 C 0.27827 0.65139 0.13011 0.0
C3272 C 0.23471 0.71899 0.15201 0.0
C3273 C 0.22562 0.71179 0.17434 0.0
C3274 C 0.23879 0.70247 0.13354 0.0
C3275 C 0.23275 0.67821 0.13717 0.0
C3276 C 0.22307 0.67077 0.15949 0.0
C3277 C 0.21998 0.68771 0.17813 0.0
C3278 C 0.24975 0.71104 0.11021 0.0
C3279 C 0.21585 0.64506 0.16351 0.0
H3280 H 0.2048 0.64388 0.06614 0.0
H3281 H 0.27742 0.62702 0.0874 0.0
H3282 H 0.18461 0.66854 0.12169 0.0
H3283 H 0.19564 0.69176 0.10269 0.0
H3284 H 0.17861 0.66718 0.0898 0.0
H3285 H 0.29397 0.6402 0.1246 0.0
H3286 H 0.28441 0.6703 0.13151 0.0
H3287 H 0.27225 0.646 0.14831 0.0
H3288 H 0.23973 0.73754 0.14925 0.0
H3289 H 0.21322 0.68221 0.19553 0.0
H3290 H 0.23672 0.70806 0.09527 0.0
H3291 H 0.26634 0.7007 0.10583 0.0
H3292 H 0.25467 0.73034 0.11096 0.0
H3293 H 0.20036 0.64023 0.15163 0.0
H3294 H 0.21046 0.6418 0.18244 0.0
H3295 H 0.23104 0.633 0.15861 0.0
C3296 C 0.06809 0.52858 0.82399 0.0
C3297 C 0.06055 0.51274 0.8058 0.0
C3298 C 0.06262 0.52387 0.84808 0.0
C3299 C 0.04997 0.50254 0.85378 0.0
C3300 C 0.04177 0.4869 0.83524 0.0
C3301 C 0.04705 0.49234 0.81134 0.0
C3302 C 0.07113 0.54118 0.86744 0.0
C3303 C 0.02853 0.46387 0.8407 0.0
C3304 C 0.05858 0.47758 0.91614 0.0
C3305 C 0.03709 0.48489 0.92751 0.0
C3306 C 0.06299 0.48309 0.89198 0.0
C3307 C 0.04557 0.49632 0.87914 0.0
C3308 C 0.02375 0.50341 0.8904 0.0
C3309 C 0.01964 0.49735 0.91432 0.0
C3310 C 0.08643 0.47514 0.8803 0.0
C3311 C 0.00487 0.51773 0.87731 0.0
H3312 H 0.07892 0.54414 0.81942 0.0
H3313 H 0.04179 0.47998 0.79703 0.0
H3314 H 0.05575 0.54622 0.87937 0.0
H3315 H 0.08496 0.53252 0.8788 0.0
H3316 H 0.07917 0.55772 0.85986 0.0
H3317 H 0.02316 0.45386 0.82412 0.0
H3318 H 0.0403 0.45225 0.85162 0.0
H3319 H 0.01198 0.46762 0.85146 0.0
H3320 H 0.07217 0.46804 0.92621 0.0
H3321 H 0.00287 0.50297 0.92284 0.0
H3322 H 0.09712 0.49098 0.87465 0.0
H3323 H 0.08249 0.46431 0.86387 0.0
H3324 H 0.09775 0.46439 0.89255 0.0
H3325 H 0.01329 0.53393 0.86948 0.0
H3326 H 0.98971 0.52338 0.88928 0.0
H3327 H -0.00275 0.5069 0.86222 0.0
C3328 C 0.22067 0.3132 0.57504 0.0
C3329 C 0.24097 0.32678 0.56843 0.0
C3330 C 0.21984 0.30176 0.59728 0.0
C3331 C 0.2403 0.30297 0.61258 0.0
C3332 C 0.26118 0.31615 0.60554 0.0
C3333 C 0.26104 0.32834 0.58372 0.0
C3334 C 0.19689 0.28893 0.6046 0.0
C3335 C 0.28351 0.31772 0.62121 0.0
C3336 C 0.24319 0.29267 0.6795 0.0
C3337 C 0.25349 0.26994 0.67975 0.0
C3338 C 0.23618 0.30289 0.6577 0.0
C3339 C 0.24039 0.29021 0.63581 0.0
C3340 C 0.24871 0.26634 0.63636 0.0
C3341 C 0.25498 0.25645 0.65844 0.0
C3342 C 0.22661 0.3281 0.65828 0.0
C3343 C 0.25409 0.25231 0.61358 0.0
H3344 H 0.20499 0.31247 0.56329 0.0
H3345 H 0.27665 0.33904 0.57853 0.0
H3346 H 0.20016 0.26942 0.60466 0.0
H3347 H 0.19149 0.29451 0.62309 0.0
H3348 H 0.1816 0.29241 0.59217 0.0
H3349 H 0.29906 0.32635 0.61189 0.0
H3350 H 0.27935 0.32832 0.63771 0.0
H3351 H 0.28909 0.29962 0.62687 0.0
H3352 H 0.2428 0.3033 0.69592 0.0
H3353 H 0.26334 0.23895 0.65877 0.0
H3354 H 0.21762 0.33309 0.64127 0.0
H3355 H 0.24186 0.34076 0.66182 0.0
H3356 H 0.21338 0.33025 0.67323 0.0
H3357 H 0.2391 0.25383 0.60046 0.0
H3358 H 0.25712 0.23307 0.61714 0.0
H3359 H 0.27071 0.25974 0.60507 0.0
C3360 C 0.38618 0.51987 0.14918 0.0
C3361 C 0.39711 0.50422 0.16532 0.0
C3362 C 0.39666 0.52406 0.12648 0.0
C3363 C 0.41779 0.51141 0.11956 0.0
C3364 C 0.42888 0.49575 0.13604 0.0
C3365 C 0.41858 0.49267 0.15881 0.0
C3366 C 0.38556 0.54229 0.11017 0.0
C3367 C 0.45166 0.48213 0.12967 0.0
C3368 C 0.43658 0.48981 0.05862 0.0
C3369 C 0.4596 0.50041 0.05716 0.0
C3370 C 0.42064 0.49593 0.07735 0.0
C3371 C 0.42806 0.51311 0.09485 0.0
C3372 C 0.44944 0.52679 0.09082 0.0
C3373 C 0.46511 0.52016 0.07191 0.0
C3374 C 0.39788 0.48111 0.08053 0.0
C3375 C 0.45759 0.54648 0.10786 0.0
H3376 H 0.3699 0.52934 0.15458 0.0
H3377 H 0.42713 0.48081 0.17147 0.0
H3378 H 0.39973 0.55507 0.10407 0.0
H3379 H 0.37804 0.53331 0.09388 0.0
H3380 H 0.37079 0.55246 0.11921 0.0
H3381 H 0.45725 0.46983 0.14413 0.0
H3382 H 0.44886 0.47146 0.1129 0.0
H3383 H 0.46678 0.4949 0.1264 0.0
H3384 H 0.43236 0.47454 0.04707 0.0
H3385 H 0.4829 0.52847 0.07069 0.0
H3386 H 0.38265 0.49221 0.08724 0.0
H3387 H 0.40131 0.46709 0.09401 0.0
H3388 H 0.39228 0.47218 0.06343 0.0
H3389 H 0.45885 0.56347 0.09784 0.0
H3390 H 0.47605 0.54256 0.11468 0.0
H3391 H 0.44517 0.54926 0.12335 0.0
C3392 C 0.2381 0.69046 0.93225 0.0
C3393 C 0.25835 0.67597 0.93591 0.0
C3394 C 0.23498 0.70234 0.91048 0.0
C3395 C 0.25305 0.70031 0.89248 0.0
C3396 C 0.2742 0.6867 0.89672 0.0
C3397 C 0.27638 0.67429 0.91829 0.0
C3398 C 0.21169 0.71568 0.90617 0.0
C3399 C 0.29397 0.68425 0.87798 0.0
C3400 C 0.24145 0.70391 0.82602 0.0
C3401 C 0.25264 0.72572 0.82069 0.0
C3402 C 0.23956 0.69623 0.84974 0.0
C3403 C 0.24934 0.71074 0.86844 0.0
C3404 C 0.25876 0.73376 0.86328 0.0
C3405 C 0.26044 0.74101 0.83924 0.0
C3406 C 0.22909 0.67168 0.85439 0.0
C3407 C 0.26883 0.74983 0.88293 0.0
H3408 H 0.22388 0.69115 0.94577 0.0
H3409 H 0.29186 0.66281 0.92117 0.0
H3410 H 0.21564 0.73392 0.89958 0.0
H3411 H 0.20097 0.70625 0.89202 0.0
H3412 H 0.20033 0.7171 0.92266 0.0
H3413 H 0.31011 0.67479 0.88492 0.0
H3414 H 0.2869 0.67413 0.86215 0.0
H3415 H 0.29977 0.70215 0.8717 0.0
H3416 H 0.23541 0.69223 0.81144 0.0
H3417 H 0.26911 0.75787 0.83489 0.0
H3418 H 0.21738 0.67186 0.87063 0.0
H3419 H 0.24411 0.659 0.85758 0.0
H3420 H 0.21827 0.66482 0.83888 0.0
H3421 H 0.25613 0.75069 0.89843 0.0
H3422 H 0.27232 0.76826 0.87653 0.0
H3423 H 0.28616 0.74235 0.88951 0.0
C3424 C 0.10998 0.48501 0.65519 0.0
C3425 C 0.09424 0.48603 0.675 0.0
C3426 C 0.10144 0.48944 0.63201 0.0
C3427 C 0.07671 0.49507 0.62882 0.0
C3428 C 0.06066 0.49568 0.64873 0.0
C3429 C 0.06962 0.49093 0.67159 0.0
C3430 C 0.11884 0.48847 0.61102 0.0
C3431 C 0.03405 0.50148 0.64595 0.0
C3432 C 0.05045 0.52675 0.57562 0.0
C3433 C 0.03964 0.50745 0.56342 0.0
C3434 C 0.06466 0.52281 0.59605 0.0
C3435 C 0.06704 0.49918 0.60458 0.0
C3436 C 0.05708 0.47965 0.59147 0.0
C3437 C 0.04374 0.48408 0.57078 0.0
C3438 C 0.07518 0.54398 0.60971 0.0
C3439 C 0.05838 0.45436 0.6006 0.0
H3440 H 0.12904 0.48113 0.65784 0.0
H3441 H 0.05741 0.49173 0.6869 0.0
H3442 H 0.11253 0.47499 0.59755 0.0
H3443 H 0.1193 0.50602 0.60198 0.0
H3444 H 0.13757 0.48388 0.6166 0.0
H3445 H 0.02417 0.50144 0.66339 0.0
H3446 H 0.03203 0.51935 0.63784 0.0
H3447 H 0.02526 0.48826 0.63364 0.0
H3448 H 0.04658 0.54484 0.57009 0.0
H3449 H 0.03442 0.46941 0.56164 0.0
H3450 H 0.09411 0.54034 0.61528 0.0
H3451 H 0.0644 0.54724 0.6263 0.0
H3452 H 0.075 0.5605 0.59886 0.0
H3453 H 0.07758 0.44915 0.60313 0.0
H3454 H 0.04952 0.4412 0.58824 0.0
H3455 H 0.04926 0.45323 0.61837 0.0
C3456 C 0.24519 0.33245 0.42022 0.0
C3457 C 0.22764 0.3499 0.42493 0.0
C3458 C 0.244 0.31823 0.39927 0.0
C3459 C 0.22442 0.3212 0.38313 0.0
C3460 C 0.20674 0.33887 0.38782 0.0
C3461 C 0.20873 0.35324 0.40856 0.0
C3462 C 0.26376 0.30024 0.39427 0.0
C3463 C 0.18559 0.34237 0.37106 0.0
C3464 C 0.23136 0.29754 0.31928 0.0
C3465 C 0.21987 0.27517 0.32073 0.0
C3466 C 0.23306 0.31273 0.33947 0.0
C3467 C 0.22229 0.30568 0.3614 0.0
C3468 C 0.20957 0.28366 0.36268 0.0
C3469 C 0.20848 0.26867 0.34229 0.0
C3470 C 0.24697 0.33596 0.33727 0.0
C3471 C 0.1981 0.27545 0.38587 0.0
H3472 H 0.26001 0.33017 0.43276 0.0
H3473 H 0.1951 0.3667 0.4123 0.0
H3474 H 0.25581 0.282 0.39266 0.0
H3475 H 0.2727 0.30424 0.37686 0.0
H3476 H 0.2778 0.30028 0.40858 0.0
H3477 H 0.17325 0.35678 0.37742 0.0
H3478 H 0.19236 0.3469 0.35287 0.0
H3479 H 0.17498 0.32549 0.3693 0.0
H3480 H 0.24035 0.30262 0.30277 0.0
H3481 H 0.19957 0.25138 0.34354 0.0
H3482 H 0.25678 0.3408 0.35405 0.0
H3483 H 0.23404 0.35051 0.33338 0.0
H3484 H 0.26042 0.335 0.32238 0.0
H3485 H 0.21239 0.273 0.39963 0.0
H3486 H 0.18798 0.25831 0.38358 0.0
H3487 H 0.18547 0.28924 0.39293 0.0
C3488 C 0.32036 0.4259 0.47879 0.0
C3489 C 0.307 0.41549 0.49739 0.0
C3490 C 0.34489 0.43201 0.48201 0.0
C3491 C 0.35597 0.42838 0.50464 0.0
C3492 C 0.34294 0.41652 0.52294 0.0
C3493 C 0.31862 0.41001 0.519 0.0
C3494 C 0.35846 0.44385 0.46173 0.0
C3495 C 0.35405 0.4123 0.54728 0.0
C3496 C 0.42262 0.44634 0.50599 0.0
C3497 C 0.42059 0.47073 0.51187 0.0
C3498 C 0.40188 0.43148 0.50535 0.0
C3499 C 0.37881 0.44147 0.51046 0.0
C3500 C 0.37716 0.4655 0.51856 0.0
C3501 C 0.39808 0.47972 0.5194 0.0
C3502 C 0.40452 0.40572 0.49744 0.0
C3503 C 0.35297 0.47692 0.52428 0.0
H3504 H 0.31154 0.42953 0.46183 0.0
H3505 H 0.30833 0.4017 0.53332 0.0
H3506 H 0.36113 0.46311 0.4661 0.0
H3507 H 0.37669 0.43581 0.45941 0.0
H3508 H 0.34854 0.44226 0.4444 0.0
H3509 H 0.34353 0.39894 0.55768 0.0
H3510 H 0.37306 0.40613 0.54543 0.0
H3511 H 0.35438 0.42936 0.55774 0.0
H3512 H 0.44001 0.43924 0.50032 0.0
H3513 H 0.39649 0.49843 0.52449 0.0
H3514 H 0.39993 0.40396 0.47808 0.0
H3515 H 0.39195 0.39395 0.50754 0.0
H3516 H 0.4234 0.39935 0.49989 0.0
H3517 H 0.34221 0.47837 0.50752 0.0
H3518 H 0.35506 0.49512 0.53233 0.0
H3519 H 0.34239 0.46574 0.5369 0.0
C3520 C 0.82736 0.08022 0.49602 0.0
C3521 C 0.80888 0.06757 0.50779 0.0
C3522 C 0.85101 0.07144 0.49501 0.0
C3523 C 0.85628 0.04945 0.50602 0.0
C3524 C 0.83789 0.03671 0.51827 0.0
C3525 C 0.81431 0.04593 0.51899 0.0
C3526 C 0.8703 0.08563 0.48198 0.0
C3527 C 0.84316 0.01339 0.5305 0.0
C3528 C 0.91261 0.0203 0.48088 0.0
C3529 C 0.93005 0.02907 0.49695 0.0
C3530 C 0.88806 0.02574 0.48433 0.0
C3531 C 0.88116 0.03996 0.50447 0.0
C3532 C 0.89871 0.04751 0.52154 0.0
C3533 C 0.9231 0.04211 0.51741 0.0
C3534 C 0.86982 0.01773 0.46561 0.0
C3535 C 0.89202 0.06275 0.54317 0.0
H3536 H 0.82337 0.09704 0.48748 0.0
H3537 H 0.80014 0.03614 0.52825 0.0
H3538 H 0.88569 0.08975 0.49423 0.0
H3539 H 0.87758 0.07489 0.4667 0.0
H3540 H 0.86327 0.10272 0.47494 0.0
H3541 H 0.82694 0.00598 0.53977 0.0
H3542 H 0.84963 2e-05 0.51706 0.0
H3543 H 0.85788 0.01601 0.5439 0.0
H3544 H 0.91832 0.01028 0.46503 0.0
H3545 H 0.93682 0.0487 0.52978 0.0
H3546 H 0.86345 0.03349 0.45556 0.0
H3547 H 0.85371 0.00951 0.47428 0.0
H3548 H 0.87764 0.00467 0.45254 0.0
H3549 H 0.88827 0.08124 0.53732 0.0
H3550 H 0.90684 0.06358 0.55664 0.0
H3551 H 0.87532 0.05585 0.55192 0.0
C3552 C 0.63001 0.0962 0.2531 0.0
C3553 C 0.64348 0.07605 0.2465 0.0
C3554 C 0.64092 0.11873 0.25435 0.0
C3555 C 0.66575 0.12098 0.24848 0.0
C3556 C 0.67996 0.1004 0.24378 0.0
C3557 C 0.66856 0.07794 0.24294 0.0
C3558 C 0.6254 0.14028 0.25992 0.0
C3559 C 0.70672 0.10224 0.23802 0.0
C3560 C 0.6857 0.17584 0.21506 0.0
C3561 C 0.69641 0.18931 0.23353 0.0
C3562 C 0.67475 0.15382 0.21998 0.0
C3563 C 0.67569 0.14491 0.24369 0.0
C3564 C 0.68583 0.15889 0.26252 0.0
C3565 C 0.69532 0.18143 0.2573 0.0
C3566 C 0.66355 0.13944 0.19957 0.0
C3567 C 0.68827 0.14945 0.28772 0.0
H3568 H 0.61068 0.09445 0.25648 0.0
H3569 H 0.67894 0.06216 0.23812 0.0
H3570 H 0.63427 0.15204 0.27357 0.0
H3571 H 0.62319 0.15091 0.24338 0.0
H3572 H 0.60711 0.13517 0.26665 0.0
H3573 H 0.71579 0.08457 0.23871 0.0
H3574 H 0.70911 0.10941 0.21966 0.0
H3575 H 0.71595 0.11477 0.25072 0.0
H3576 H 0.68722 0.18185 0.19666 0.0
H3577 H 0.70435 0.19174 0.27139 0.0
H3578 H 0.64492 0.13356 0.20447 0.0
H3579 H 0.67441 0.12313 0.19607 0.0
H3580 H 0.66263 0.14977 0.18269 0.0
H3581 H 0.67006 0.14706 0.29588 0.0
H3582 H 0.69912 0.16164 0.29954 0.0
H3583 H 0.69711 0.13168 0.28726 0.0
C3584 C 0.65364 0.91384 0.03266 0.0
C3585 C 0.66186 0.90277 0.01145 0.0
C3586 C 0.63149 0.92615 0.03311 0.0
C3587 C 0.61808 0.92827 0.01156 0.0
C3588 C 0.62611 0.91637 0.99032 0.0
C3589 C 0.64767 0.90333 0.9907 0.0
C3590 C 0.62294 0.93763 0.0563 0.0
C3591 C 0.61287 0.91873 0.9667 0.0
C3592 C 0.5552 0.95109 -0.00058 0.0
C3593 C 0.56105 0.97333 0.98966 0.0
C3594 C 0.57336 0.93695 0.00966 0.0
C3595 C 0.59769 0.94539 0.0098 0.0
C3596 C 0.60293 0.96905 0.00255 0.0
C3597 C 0.5845 0.98267 0.99239 0.0
C3598 C 0.56702 0.91208 0.01788 0.0
C3599 C 0.62855 0.97889 0.00246 0.0
H3600 H 0.66462 0.91299 0.04878 0.0
H3601 H 0.6542 0.89474 0.97433 0.0
H3602 H 0.62444 0.95736 0.05508 0.0
H3603 H 0.60353 0.93326 0.05951 0.0
H3604 H 0.63374 0.93179 0.07198 0.0
H3605 H 0.62119 0.90778 0.95207 0.0
H3606 H 0.59362 0.91319 0.96868 0.0
H3607 H 0.61309 0.93772 0.96115 0.0
H3608 H 0.53711 0.94378 -0.00304 0.0
H3609 H 0.58885 -2e-05 0.98488 0.0
H3610 H 0.57588 0.9084 0.03533 0.0
H3611 H 0.57381 0.89871 0.0046 0.0
H3612 H 0.54712 0.90946 0.0198 0.0
H3613 H 0.638 0.97488 0.01948 0.0
H3614 H 0.62896 -0.00145 -0.00014 0.0
H3615 H 0.63893 0.9703 0.98758 0.0
C3616 C 0.3462 0.40521 0.26763 0.0
C3617 C 0.3398 0.41948 0.24815 0.0
C3618 C 0.3339 0.38358 0.27211 0.0
C3619 C 0.31546 0.37568 0.2561 0.0
C3620 C 0.30863 0.39047 0.2367 0.0
C3621 C 0.32071 0.41235 0.23317 0.0
C3622 C 0.34111 0.36895 0.2935 0.0
C3623 C 0.2892 0.38274 0.21903 0.0
C3624 C 0.29949 0.31173 0.24018 0.0
C3625 C 0.27511 0.31106 0.24726 0.0
C3626 C 0.31411 0.33183 0.24543 0.0
C3627 C 0.30403 0.3515 0.25827 0.0
C3628 C 0.28055 0.34924 0.26846 0.0
C3629 C 0.26623 0.32906 0.26261 0.0
C3630 C 0.33902 0.33333 0.23415 0.0
C3631 C 0.26959 0.36933 0.2832 0.0
H3632 H 0.36112 0.41082 0.27913 0.0
H3633 H 0.31603 0.42335 0.21799 0.0
H3634 H 0.32477 0.36262 0.30329 0.0
H3635 H 0.35123 0.35291 0.28735 0.0
H3636 H 0.35285 0.3793 0.30618 0.0
H3637 H 0.28635 0.3961 0.20475 0.0
H3638 H 0.29425 0.36546 0.21038 0.0
H3639 H 0.27173 0.37992 0.22856 0.0
H3640 H 0.30623 0.29794 0.22803 0.0
H3641 H 0.24725 0.32869 0.2678 0.0
H3642 H 0.35231 0.3416 0.24672 0.0
H3643 H 0.33814 0.34477 0.21803 0.0
H3644 H 0.34577 0.31543 0.22848 0.0
H3645 H 0.28164 0.37389 0.29858 0.0
H3646 H 0.25128 0.36465 0.29017 0.0
H3647 H 0.26797 0.3856 0.27217 0.0
C3648 C 0.16954 0.5884 0.01237 0.0
C3649 C 0.17219 0.60659 -0.00436 0.0
C3650 C 0.14665 0.57938 0.01813 0.0
C3651 C 0.12599 0.58863 0.00649 0.0
C3652 C 0.12838 0.60849 0.99114 0.0
C3653 C 0.15167 0.61743 0.98597 0.0
C3654 C 0.14492 0.55837 0.03484 0.0
C3655 C 0.10668 0.6189 0.97864 0.0
C3656 C 0.08523 0.53707 0.99105 0.0
C3657 C 0.06848 0.53785 0.00991 0.0
C3658 C 0.10282 0.55481 0.98865 0.0
C3659 C 0.10381 0.5737 0.00583 0.0
C3660 C 0.08593 0.57544 0.02414 0.0
C3661 C 0.06818 0.55733 0.02595 0.0
C3662 C 0.12141 0.55225 0.96872 0.0
C3663 C 0.08641 0.59553 0.04254 0.0
H3664 H 0.18539 0.58085 0.02067 0.0
H3665 H 0.1539 0.632 0.97349 0.0
H3666 H 0.12965 0.56064 0.04767 0.0
H3667 H 0.14144 0.54179 0.02415 0.0
H3668 H 0.16191 0.55593 0.04523 0.0
H3669 H 0.11077 0.63683 0.97122 0.0
H3670 H 0.10111 0.60687 0.96356 0.0
H3671 H 0.09102 0.62037 0.99114 0.0
H3672 H 0.08488 0.5221 0.9784 0.0
H3673 H 0.05482 0.5579 0.04029 0.0
H3674 H 0.13928 0.54768 0.97653 0.0
H3675 H 0.12363 0.56931 0.95903 0.0
H3676 H 0.11635 0.53803 0.95546 0.0
H3677 H 0.10069 0.59202 0.05604 0.0
H3678 H 0.06876 0.59722 0.0521 0.0
H3679 H 0.09092 0.61281 0.03398 0.0
C3680 C 0.67618 0.92669 0.27606 0.0
C3681 C 0.66303 0.93305 0.25579 0.0
C3682 C 0.68679 0.90406 0.2772 0.0
C3683 C 0.68434 0.88798 0.25741 0.0
C3684 C 0.67256 0.8952 0.23618 0.0
C3685 C 0.6617 0.91768 0.23578 0.0
C3686 C 0.69912 0.89672 0.30012 0.0
C3687 C 0.66992 0.87872 0.21455 0.0
C3688 C 0.71998 0.83048 0.25853 0.0
C3689 C 0.70264 0.81469 0.26804 0.0
C3690 C 0.71427 0.85446 0.25462 0.0
C3691 C 0.69073 0.86266 0.26038 0.0
C3692 C 0.67312 0.84679 0.26976 0.0
C3693 C 0.67937 0.82303 0.27371 0.0
C3694 C 0.73324 0.87092 0.24409 0.0
C3695 C 0.64755 0.85482 0.27539 0.0
H3696 H 0.6771 0.93889 0.29138 0.0
H3697 H 0.65163 0.92306 0.22004 0.0
H3698 H 0.68811 0.88265 0.30898 0.0
H3699 H 0.71719 0.88898 0.29609 0.0
H3700 H 0.70145 0.91197 0.31296 0.0
H3701 H 0.66451 0.88857 0.19823 0.0
H3702 H 0.6871 0.86916 0.21074 0.0
H3703 H 0.65576 0.86504 0.21825 0.0
H3704 H 0.73794 0.82404 0.25391 0.0
H3705 H 0.66574 0.81083 0.2806 0.0
H3706 H 0.73716 0.88586 0.25688 0.0
H3707 H 0.72633 0.87894 0.22734 0.0
H3708 H 0.75047 0.8615 0.23992 0.0
H3709 H 0.64795 0.86932 0.28922 0.0
H3710 H 0.6359 0.84002 0.28203 0.0
H3711 H 0.63901 0.86218 0.25906 0.0
C3712 C 0.84085 0.08571 0.71897 0.0
C3713 C 0.83534 0.07149 0.73881 0.0
C3714 C 0.82957 0.10787 0.71592 0.0
C3715 C 0.81325 0.11627 0.73373 0.0
C3716 C 0.80806 0.10203 0.7541 0.0
C3717 C 0.81882 0.0795 0.75611 0.0
C3718 C 0.8349 0.12205 0.6936 0.0
C3719 C 0.79116 0.11059 0.77381 0.0
C3720 C 0.79595 0.17951 0.74851 0.0
C3721 C 0.77101 0.17798 0.74418 0.0
C3722 C 0.81116 0.16038 0.74229 0.0
C3723 C 0.80092 0.13962 0.73132 0.0
C3724 C 0.77653 0.13989 0.72337 0.0
C3725 C 0.76168 0.15904 0.73027 0.0
C3726 C 0.8371 0.16108 0.75092 0.0
C3727 C 0.76528 0.11856 0.71058 0.0
H3728 H 0.85359 0.07919 0.70554 0.0
H3729 H 0.81477 0.06838 0.77144 0.0
H3730 H 0.81771 0.12647 0.68435 0.0
H3731 H 0.84391 0.13921 0.69854 0.0
H3732 H 0.8468 0.11218 0.68078 0.0
H3733 H 0.79041 0.09811 0.78915 0.0
H3734 H 0.7971 0.12844 0.78065 0.0
H3735 H 0.77253 0.11251 0.76659 0.0
H3736 H 0.80302 0.19418 0.75946 0.0
H3737 H 0.7423 0.15802 0.72693 0.0
H3738 H 0.84932 0.15109 0.73859 0.0
H3739 H 0.83803 0.15262 0.76882 0.0
H3740 H 0.84389 0.17978 0.75281 0.0
H3741 H 0.77769 0.11155 0.69645 0.0
H3742 H 0.74761 0.12303 0.70224 0.0
H3743 H 0.76208 0.10405 0.72364 0.0
loop_
_geom_bond_atom_site_label_1
_geom_bond_atom_site_label_2
_geom_bond_distance
_geom_bond_site_symmetry_2
_ccdc_geom_bond_type
C0 O1 1.306 . S
C0 O3 1.160 . S
O1 C0 1.306 . S
O1 Cd2 2.228 1_655 S
Cd2 O1 2.228 1_455 S
Cd2 O6 2.273 . S
Cd2 O10 2.277 . S
O3 C0 1.160 . S
O3 Cd4 2.203 1_655 S
Cd4 O3 2.203 1_455 S
Cd4 O6 2.411 . S
Cd4 O7 2.333 . S
Cd4 O8 2.352 . S
Cd4 O12 2.277 . S
Cd4 O13 2.356 . S
C5 O10 1.209 . S
C5 O12 1.226 . S
O6 Cd2 2.273 . S
O6 Cd4 2.411 . S
O6 C9 1.320 . S
O7 Cd4 2.333 . S
O7 C9 1.214 . S
O8 Cd4 2.352 . S
O8 C11 1.258 . S
C9 O6 1.320 . S
C9 O7 1.214 . S
O10 Cd2 2.277 . S
O10 C5 1.209 . S
C11 O8 1.258 . S
C11 O13 1.282 . S
O12 Cd4 2.277 . S
O12 C5 1.226 . S
O13 Cd4 2.356 . S
O13 C11 1.282 . S
C14 O15 1.306 . S
C14 O17 1.160 . S
O15 C14 1.306 . S
O15 Cd16 2.228 1_655 S
Cd16 O15 2.228 1_455 S
Cd16 O20 2.273 . S
Cd16 O24 2.277 . S
O17 C14 1.160 . S
O17 Cd18 2.203 1_655 S
Cd18 O17 2.203 1_455 S
Cd18 O20 2.411 . S
Cd18 O21 2.333 . S
Cd18 O22 2.352 . S
Cd18 O26 2.277 . S
Cd18 O27 2.356 . S
C19 O24 1.209 . S
C19 O26 1.226 . S
O20 Cd16 2.273 . S
O20 Cd18 2.411 . S
O20 C23 1.320 . S
O21 Cd18 2.333 . S
O21 C23 1.214 . S
O22 Cd18 2.352 . S
O22 C25 1.258 . S
C23 O20 1.320 . S
C23 O21 1.214 . S
O24 Cd16 2.277 . S
O24 C19 1.209 . S
C25 O22 1.258 . S
C25 O27 1.282 . S
O26 Cd18 2.277 . S
O26 C19 1.226 . S
O27 Cd18 2.356 . S
O27 C25 1.282 . S
C28 O29 1.306 . S
C28 O31 1.160 . S
O29 C28 1.306 . S
O29 Cd30 2.228 . S
Cd30 O29 2.228 . S
Cd30 O34 2.273 . S
Cd30 O38 2.277 . S
O31 C28 1.160 . S
O31 Cd32 2.203 . S
Cd32 O31 2.203 . S
Cd32 O34 2.411 . S
Cd32 O35 2.333 . S
Cd32 O36 2.352 . S
Cd32 O40 2.277 . S
Cd32 O41 2.356 . S
C33 O38 1.209 . S
C33 O40 1.226 . S
O34 Cd30 2.273 . S
O34 Cd32 2.411 . S
O34 C37 1.320 . S
O35 Cd32 2.333 . S
O35 C37 1.214 . S
O36 Cd32 2.352 . S
O36 C39 1.258 . S
C37 O34 1.320 . S
C37 O35 1.214 . S
O38 Cd30 2.277 . S
O38 C33 1.209 . S
C39 O36 1.258 . S
C39 O41 1.282 . S
O40 Cd32 2.277 . S
O40 C33 1.226 . S
O41 Cd32 2.356 . S
O41 C39 1.282 . S
C42 O43 1.306 . S
C42 O45 1.160 . S
O43 C42 1.306 . S
O43 Cd44 2.228 . S
Cd44 O43 2.228 . S
Cd44 O48 2.273 . S
Cd44 O52 2.277 . S
O45 C42 1.160 . S
O45 Cd46 2.203 . S
Cd46 O45 2.203 . S
Cd46 O48 2.411 . S
Cd46 O49 2.333 . S
Cd46 O50 2.352 . S
Cd46 O54 2.277 . S
Cd46 O55 2.356 . S
C47 O52 1.209 . S
C47 O54 1.226 . S
O48 Cd44 2.273 . S
O48 Cd46 2.411 . S
O48 C51 1.320 . S
O49 Cd46 2.333 . S
O49 C51 1.214 . S
O50 Cd46 2.352 . S
O50 C53 1.258 . S
C51 O48 1.320 . S
C51 O49 1.214 . S
O52 Cd44 2.277 . S
O52 C47 1.209 . S
C53 O50 1.258 . S
C53 O55 1.282 . S
O54 Cd46 2.277 . S
O54 C47 1.226 . S
O55 Cd46 2.356 . S
O55 C53 1.282 . S
C56 O57 1.306 . S
C56 O59 1.155 1_545 S
O57 C56 1.306 . S
O57 Cd58 2.228 . S
Cd58 O57 2.228 . S
Cd58 O62 2.273 . S
Cd58 O66 2.277 . S
O59 C56 1.155 1_565 S
O59 Cd60 2.204 . S
Cd60 O59 2.204 . S
Cd60 O62 2.411 1_565 S
Cd60 O63 2.333 . S
Cd60 O64 2.352 . S
Cd60 O68 2.277 1_565 S
Cd60 O69 2.356 . S
C61 O66 1.209 . S
C61 O68 1.226 . S
O62 Cd58 2.273 . S
O62 Cd60 2.411 1_545 S
O62 C65 1.320 . S
O63 Cd60 2.333 . S
O63 C65 1.214 1_565 S
O64 Cd60 2.352 . S
O64 C67 1.258 . S
C65 O62 1.320 . S
C65 O63 1.214 1_545 S
O66 Cd58 2.277 . S
O66 C61 1.209 . S
C67 O64 1.258 . S
C67 O69 1.282 . S
O68 Cd60 2.277 1_545 S
O68 C61 1.226 . S
O69 Cd60 2.356 . S
O69 C67 1.282 . S
C70 O71 1.306 . S
C70 O73 1.160 . S
O71 C70 1.306 . S
O71 Cd72 2.228 . S
Cd72 O71 2.228 . S
Cd72 O76 2.273 . S
Cd72 O80 2.277 . S
O73 C70 1.160 . S
O73 Cd74 2.203 . S
Cd74 O73 2.203 . S
Cd74 O76 2.411 . S
Cd74 O77 2.333 . S
Cd74 O78 2.352 . S
Cd74 O82 2.277 . S
Cd74 O83 2.356 . S
C75 O80 1.209 . S
C75 O82 1.226 . S
O76 Cd72 2.273 . S
O76 Cd74 2.411 . S
O76 C79 1.320 . S
O77 Cd74 2.333 . S
O77 C79 1.214 . S
O78 Cd74 2.352 . S
O78 C81 1.258 . S
C79 O76 1.320 . S
C79 O77 1.214 . S
O80 Cd72 2.277 . S
O80 C75 1.209 . S
C81 O78 1.258 . S
C81 O83 1.282 . S
O82 Cd74 2.277 . S
O82 C75 1.226 . S
O83 Cd74 2.356 . S
O83 C81 1.282 . S
C84 O85 1.306 1_545 S
C84 O87 1.160 . S
O85 C84 1.306 1_565 S
O85 Cd86 2.228 . S
Cd86 O85 2.228 . S
Cd86 O90 2.273 1_565 S
Cd86 O94 2.277 . S
O87 C84 1.160 . S
O87 Cd88 2.203 . S
Cd88 O87 2.203 . S
Cd88 O90 2.411 . S
Cd88 O91 2.333 . S
Cd88 O92 2.352 . S
Cd88 O96 2.277 1_545 S
Cd88 O97 2.356 . S
C89 O94 1.209 . S
C89 O96 1.226 . S
O90 Cd86 2.273 1_545 S
O90 Cd88 2.411 . S
O90 C93 1.320 . S
O91 Cd88 2.333 . S
O91 C93 1.214 . S
O92 Cd88 2.352 . S
O92 C95 1.258 . S
C93 O90 1.320 . S
C93 O91 1.214 . S
O94 Cd86 2.277 . S
O94 C89 1.209 . S
C95 O92 1.258 . S
C95 O97 1.282 . S
O96 Cd88 2.277 1_565 S
O96 C89 1.226 . S
O97 Cd88 2.356 . S
O97 C95 1.282 . S
C98 O99 1.306 . S
C98 O101 1.160 . S
O99 C98 1.306 . S
O99 Cd100 2.228 . S
Cd100 O99 2.228 . S
Cd100 O104 2.273 . S
Cd100 O108 2.277 . S
O101 C98 1.160 . S
O101 Cd102 2.203 . S
Cd102 O101 2.203 . S
Cd102 O104 2.410 . S
Cd102 O105 2.333 . S
Cd102 O106 2.357 1_554 S
Cd102 O110 2.273 . S
Cd102 O111 2.360 1_554 S
C103 O108 1.209 . S
C103 O110 1.226 . S
O104 Cd100 2.273 . S
O104 Cd102 2.410 . S
O104 C107 1.320 . S
O105 Cd102 2.333 . S
O105 C107 1.213 . S
O106 Cd102 2.357 1_556 S
O106 C109 1.258 . S
C107 O104 1.320 . S
C107 O105 1.213 . S
O108 Cd100 2.277 . S
O108 C103 1.209 . S
C109 O106 1.258 . S
C109 O111 1.282 . S
O110 Cd102 2.273 . S
O110 C103 1.226 . S
O111 Cd102 2.360 1_556 S
O111 C109 1.282 . S
C112 O113 1.304 1_554 S
C112 O115 1.161 . S
O113 C112 1.304 1_556 S
O113 Cd114 2.228 . S
Cd114 O113 2.228 . S
Cd114 O118 2.273 1_556 S
Cd114 O122 2.277 . S
O115 C112 1.161 . S
O115 Cd116 2.203 . S
Cd116 O115 2.203 . S
Cd116 O118 2.411 . S
Cd116 O119 2.333 . S
Cd116 O120 2.352 . S
Cd116 O124 2.277 1_554 S
Cd116 O125 2.356 . S
C117 O122 1.209 . S
C117 O124 1.226 . S
O118 Cd114 2.273 1_554 S
O118 Cd116 2.411 . S
O118 C121 1.320 . S
O119 Cd116 2.333 . S
O119 C121 1.214 . S
O120 Cd116 2.352 . S
O120 C123 1.258 . S
C121 O118 1.320 . S
C121 O119 1.214 . S
O122 Cd114 2.277 . S
O122 C117 1.209 . S
C123 O120 1.258 . S
C123 O125 1.282 . S
O124 Cd116 2.277 1_556 S
O124 C117 1.226 . S
O125 Cd116 2.356 . S
O125 C123 1.282 . S
C126 O127 1.306 . S
C126 O129 1.160 . S
O127 C126 1.306 . S
O127 Cd128 2.228 . S
Cd128 O127 2.228 . S
Cd128 O132 2.273 . S
Cd128 O136 2.277 . S
O129 C126 1.160 . S
O129 Cd130 2.203 . S
Cd130 O129 2.203 . S
Cd130 O132 2.411 . S
Cd130 O133 2.333 . S
Cd130 O134 2.352 . S
Cd130 O138 2.277 . S
Cd130 O139 2.356 . S
C131 O136 1.209 . S
C131 O138 1.226 . S
O132 Cd128 2.273 . S
O132 Cd130 2.411 . S
O132 C135 1.320 . S
O133 Cd130 2.333 . S
O133 C135 1.214 . S
O134 Cd130 2.352 . S
O134 C137 1.258 . S
C135 O132 1.320 . S
C135 O133 1.214 . S
O136 Cd128 2.277 . S
O136 C131 1.209 . S
C137 O134 1.258 . S
C137 O139 1.282 . S
O138 Cd130 2.277 . S
O138 C131 1.226 . S
O139 Cd130 2.356 . S
O139 C137 1.282 . S
C140 O141 1.306 . S
C140 O143 1.160 . S
O141 C140 1.306 . S
O141 Cd142 2.228 . S
Cd142 O141 2.228 . S
Cd142 O146 2.273 . S
Cd142 O150 2.277 . S
O143 C140 1.160 . S
O143 Cd144 2.203 . S
Cd144 O143 2.203 . S
Cd144 O146 2.411 . S
Cd144 O147 2.333 . S
Cd144 O148 2.352 . S
Cd144 O152 2.277 . S
Cd144 O153 2.356 . S
C145 O150 1.209 . S
C145 O152 1.226 . S
O146 Cd142 2.273 . S
O146 Cd144 2.411 . S
O146 C149 1.320 . S
O147 Cd144 2.333 . S
O147 C149 1.214 . S
O148 Cd144 2.352 . S
O148 C151 1.258 . S
C149 O146 1.320 . S
C149 O147 1.214 . S
O150 Cd142 2.277 . S
O150 C145 1.209 . S
C151 O148 1.258 . S
C151 O153 1.282 . S
O152 Cd144 2.277 . S
O152 C145 1.226 . S
O153 Cd144 2.356 . S
O153 C151 1.282 . S
C154 O155 1.306 . S
C154 O157 1.160 . S
O155 C154 1.306 . S
O155 Cd156 2.228 . S
Cd156 O155 2.228 . S
Cd156 O160 2.273 . S
Cd156 O164 2.277 . S
O157 C154 1.160 . S
O157 Cd158 2.203 . S
Cd158 O157 2.203 . S
Cd158 O160 2.411 . S
Cd158 O161 2.333 . S
Cd158 O162 2.352 . S
Cd158 O166 2.277 . S
Cd158 O167 2.356 . S
C159 O164 1.209 . S
C159 O166 1.226 . S
O160 Cd156 2.273 . S
O160 Cd158 2.411 . S
O160 C163 1.320 . S
O161 Cd158 2.333 . S
O161 C163 1.214 . S
O162 Cd158 2.352 . S
O162 C165 1.258 . S
C163 O160 1.320 . S
C163 O161 1.214 . S
O164 Cd156 2.277 . S
O164 C159 1.209 . S
C165 O162 1.258 . S
C165 O167 1.282 . S
O166 Cd158 2.277 . S
O166 C159 1.226 . S
O167 Cd158 2.356 . S
O167 C165 1.282 . S
C168 O169 1.306 . S
C168 O171 1.160 . S
O169 C168 1.306 . S
O169 Cd170 2.228 1_655 S
Cd170 O169 2.228 1_455 S
Cd170 O174 2.273 . S
Cd170 O178 2.277 . S
O171 C168 1.160 . S
O171 Cd172 2.203 1_655 S
Cd172 O171 2.203 1_455 S
Cd172 O174 2.411 . S
Cd172 O175 2.333 . S
Cd172 O176 2.352 . S
Cd172 O180 2.277 . S
Cd172 O181 2.356 . S
C173 O178 1.209 . S
C173 O180 1.226 . S
O174 Cd170 2.273 . S
O174 Cd172 2.411 . S
O174 C177 1.320 . S
O175 Cd172 2.333 . S
O175 C177 1.214 . S
O176 Cd172 2.352 . S
O176 C179 1.258 . S
C177 O174 1.320 . S
C177 O175 1.214 . S
O178 Cd170 2.277 . S
O178 C173 1.209 . S
C179 O176 1.258 . S
C179 O181 1.282 . S
O180 Cd172 2.277 . S
O180 C173 1.226 . S
O181 Cd172 2.356 . S
O181 C179 1.282 . S
C182 O183 1.306 . S
C182 O185 1.160 . S
O183 C182 1.306 . S
O183 Cd184 2.228 1_655 S
Cd184 O183 2.228 1_455 S
Cd184 O188 2.273 . S
Cd184 O192 2.277 . S
O185 C182 1.160 . S
O185 Cd186 2.203 1_655 S
Cd186 O185 2.203 1_455 S
Cd186 O188 2.411 . S
Cd186 O189 2.333 . S
Cd186 O190 2.352 . S
Cd186 O194 2.277 . S
Cd186 O195 2.356 . S
C187 O192 1.209 . S
C187 O194 1.226 . S
O188 Cd184 2.273 . S
O188 Cd186 2.411 . S
O188 C191 1.320 . S
O189 Cd186 2.333 . S
O189 C191 1.214 . S
O190 Cd186 2.352 . S
O190 C193 1.258 . S
C191 O188 1.320 . S
C191 O189 1.214 . S
O192 Cd184 2.277 . S
O192 C187 1.209 . S
C193 O190 1.258 . S
C193 O195 1.282 . S
O194 Cd186 2.277 . S
O194 C187 1.226 . S
O195 Cd186 2.356 . S
O195 C193 1.282 . S
C196 O197 1.306 . S
C196 O199 1.160 . S
O197 C196 1.306 . S
O197 Cd198 2.228 . S
Cd198 O197 2.228 . S
Cd198 O202 2.273 . S
Cd198 O206 2.277 . S
O199 C196 1.160 . S
O199 Cd200 2.203 . S
Cd200 O199 2.203 . S
Cd200 O202 2.411 . S
Cd200 O203 2.333 . S
Cd200 O204 2.352 . S
Cd200 O208 2.277 . S
Cd200 O209 2.356 . S
C201 O206 1.209 . S
C201 O208 1.226 . S
O202 Cd198 2.273 . S
O202 Cd200 2.411 . S
O202 C205 1.320 . S
O203 Cd200 2.333 . S
O203 C205 1.214 . S
O204 Cd200 2.352 . S
O204 C207 1.258 . S
C205 O202 1.320 . S
C205 O203 1.214 . S
O206 Cd198 2.277 . S
O206 C201 1.209 . S
C207 O204 1.258 . S
C207 O209 1.282 . S
O208 Cd200 2.277 . S
O208 C201 1.226 . S
O209 Cd200 2.356 . S
O209 C207 1.282 . S
C210 O211 1.306 . S
C210 O213 1.160 . S
O211 C210 1.306 . S
O211 Cd212 2.228 . S
Cd212 O211 2.228 . S
Cd212 O216 2.273 . S
Cd212 O220 2.277 . S
O213 C210 1.160 . S
O213 Cd214 2.203 . S
Cd214 O213 2.203 . S
Cd214 O216 2.411 . S
Cd214 O217 2.333 . S
Cd214 O218 2.352 . S
Cd214 O222 2.277 . S
Cd214 O223 2.356 . S
C215 O220 1.209 . S
C215 O222 1.226 . S
O216 Cd212 2.273 . S
O216 Cd214 2.411 . S
O216 C219 1.320 . S
O217 Cd214 2.333 . S
O217 C219 1.214 . S
O218 Cd214 2.352 . S
O218 C221 1.258 . S
C219 O216 1.320 . S
C219 O217 1.214 . S
O220 Cd212 2.277 . S
O220 C215 1.209 . S
C221 O218 1.258 . S
C221 O223 1.282 . S
O222 Cd214 2.277 . S
O222 C215 1.226 . S
O223 Cd214 2.356 . S
O223 C221 1.282 . S
C224 O225 1.306 . S
C224 O227 1.160 1_565 S
O225 C224 1.306 . S
O225 Cd226 2.228 . S
Cd226 O225 2.228 . S
Cd226 O230 2.296 . S
Cd226 O234 2.277 . S
O227 C224 1.160 1_545 S
O227 Cd228 2.203 . S
Cd228 O227 2.203 . S
Cd228 O230 2.408 1_545 S
Cd228 O231 2.333 . S
Cd228 O232 2.352 . S
Cd228 O236 2.277 1_545 S
Cd228 O237 2.356 . S
C229 O234 1.209 . S
C229 O236 1.226 . S
O230 Cd226 2.296 . S
O230 Cd228 2.408 1_565 S
O230 C233 1.318 1_565 S
O231 Cd228 2.333 . S
O231 C233 1.214 . S
O232 Cd228 2.352 . S
O232 C235 1.258 . S
C233 O230 1.318 1_545 S
C233 O231 1.214 . S
O234 Cd226 2.277 . S
O234 C229 1.209 . S
C235 O232 1.258 . S
C235 O237 1.282 . S
O236 Cd228 2.277 1_565 S
O236 C229 1.226 . S
O237 Cd228 2.356 . S
O237 C235 1.282 . S
C238 O239 1.306 . S
C238 O241 1.160 . S
O239 C238 1.306 . S
O239 Cd240 2.228 . S
Cd240 O239 2.228 . S
Cd240 O244 2.273 . S
Cd240 O248 2.277 . S
O241 C238 1.160 . S
O241 Cd242 2.203 . S
Cd242 O241 2.203 . S
Cd242 O244 2.411 . S
Cd242 O245 2.333 . S
Cd242 O246 2.352 . S
Cd242 O250 2.277 . S
Cd242 O251 2.356 . S
C243 O248 1.209 . S
C243 O250 1.226 . S
O244 Cd240 2.273 . S
O244 Cd242 2.411 . S
O244 C247 1.320 . S
O245 Cd242 2.333 . S
O245 C247 1.214 . S
O246 Cd242 2.352 . S
O246 C249 1.258 . S
C247 O244 1.320 . S
C247 O245 1.214 . S
O248 Cd240 2.277 . S
O248 C243 1.209 . S
C249 O246 1.258 . S
C249 O251 1.282 . S
O250 Cd242 2.277 . S
O250 C243 1.226 . S
O251 Cd242 2.356 . S
O251 C249 1.282 . S
C252 O253 1.306 . S
C252 O255 1.160 . S
O253 C252 1.306 . S
O253 Cd254 2.228 . S
Cd254 O253 2.228 . S
Cd254 O258 2.273 . S
Cd254 O262 2.277 . S
O255 C252 1.160 . S
O255 Cd256 2.203 . S
Cd256 O255 2.203 . S
Cd256 O258 2.411 . S
Cd256 O259 2.333 1_545 S
Cd256 O260 2.352 1_545 S
Cd256 O264 2.276 . S
Cd256 O265 2.357 1_545 S
C257 O262 1.209 . S
C257 O264 1.226 . S
O258 Cd254 2.273 . S
O258 Cd256 2.411 . S
O258 C261 1.320 . S
O259 Cd256 2.333 1_565 S
O259 C261 1.211 1_565 S
O260 Cd256 2.352 1_565 S
O260 C263 1.258 . S
C261 O258 1.320 . S
C261 O259 1.211 1_545 S
O262 Cd254 2.277 . S
O262 C257 1.209 . S
C263 O260 1.258 . S
C263 O265 1.282 . S
O264 Cd256 2.276 . S
O264 C257 1.226 . S
O265 Cd256 2.357 1_565 S
O265 C263 1.282 . S
C266 O267 1.306 1_554 S
C266 O269 1.160 . S
O267 C266 1.306 1_556 S
O267 Cd268 2.228 . S
Cd268 O267 2.228 . S
Cd268 O272 2.273 1_556 S
Cd268 O276 2.277 . S
O269 C266 1.160 . S
O269 Cd270 2.203 . S
Cd270 O269 2.203 . S
Cd270 O272 2.411 . S
Cd270 O273 2.333 . S
Cd270 O274 2.352 . S
Cd270 O278 2.277 1_554 S
Cd270 O279 2.356 . S
C271 O276 1.209 . S
C271 O278 1.226 . S
O272 Cd268 2.273 1_554 S
O272 Cd270 2.411 . S
O272 C275 1.320 . S
O273 Cd270 2.333 . S
O273 C275 1.214 . S
O274 Cd270 2.352 . S
O274 C277 1.258 . S
C275 O272 1.320 . S
C275 O273 1.214 . S
O276 Cd268 2.277 . S
O276 C271 1.209 . S
C277 O274 1.258 . S
C277 O279 1.282 . S
O278 Cd270 2.277 1_556 S
O278 C271 1.226 . S
O279 Cd270 2.356 . S
O279 C277 1.282 . S
C280 O281 1.306 . S
C280 O283 1.160 1_554 S
O281 C280 1.306 . S
O281 Cd282 2.228 . S
Cd282 O281 2.228 . S
Cd282 O286 2.273 . S
Cd282 O290 2.277 . S
O283 C280 1.160 1_556 S
O283 Cd284 2.203 . S
Cd284 O283 2.203 . S
Cd284 O286 2.411 1_556 S
Cd284 O287 2.333 . S
Cd284 O288 2.352 . S
Cd284 O292 2.277 1_556 S
Cd284 O293 2.356 . S
C285 O290 1.209 . S
C285 O292 1.226 . S
O286 Cd282 2.273 . S
O286 Cd284 2.411 1_554 S
O286 C289 1.320 . S
O287 Cd284 2.333 . S
O287 C289 1.214 1_556 S
O288 Cd284 2.352 . S
O288 C291 1.258 . S
C289 O286 1.320 . S
C289 O287 1.214 1_554 S
O290 Cd282 2.277 . S
O290 C285 1.209 . S
C291 O288 1.258 . S
C291 O293 1.282 . S
O292 Cd284 2.277 1_554 S
O292 C285 1.226 . S
O293 Cd284 2.356 . S
O293 C291 1.282 . S
C294 O295 1.306 . S
C294 O297 1.160 . S
O295 C294 1.306 . S
O295 Cd296 2.228 . S
Cd296 O295 2.228 . S
Cd296 O300 2.273 . S
Cd296 O304 2.277 . S
O297 C294 1.160 . S
O297 Cd298 2.203 . S
Cd298 O297 2.203 . S
Cd298 O300 2.411 . S
Cd298 O301 2.333 . S
Cd298 O302 2.352 . S
Cd298 O306 2.277 . S
Cd298 O307 2.356 . S
C299 O304 1.209 . S
C299 O306 1.226 . S
O300 Cd296 2.273 . S
O300 Cd298 2.411 . S
O300 C303 1.320 . S
O301 Cd298 2.333 . S
O301 C303 1.214 . S
O302 Cd298 2.352 . S
O302 C305 1.258 . S
C303 O300 1.320 . S
C303 O301 1.214 . S
O304 Cd296 2.277 . S
O304 C299 1.209 . S
C305 O302 1.258 . S
C305 O307 1.282 . S
O306 Cd298 2.277 . S
O306 C299 1.226 . S
O307 Cd298 2.356 . S
O307 C305 1.282 . S
C308 O309 1.306 . S
C308 O311 1.160 . S
O309 C308 1.306 . S
O309 Cd310 2.228 . S
Cd310 O309 2.228 . S
Cd310 O314 2.273 . S
Cd310 O318 2.277 . S
O311 C308 1.160 . S
O311 Cd312 2.203 . S
Cd312 O311 2.203 . S
Cd312 O314 2.411 . S
Cd312 O315 2.333 . S
Cd312 O316 2.352 . S
Cd312 O320 2.277 . S
Cd312 O321 2.356 . S
C313 O318 1.209 . S
C313 O320 1.226 . S
O314 Cd310 2.273 . S
O314 Cd312 2.411 . S
O314 C317 1.320 . S
O315 Cd312 2.333 . S
O315 C317 1.214 . S
O316 Cd312 2.352 . S
O316 C319 1.258 . S
C317 O314 1.320 . S
C317 O315 1.214 . S
O318 Cd310 2.277 . S
O318 C313 1.209 . S
C319 O316 1.258 . S
C319 O321 1.282 . S
O320 Cd312 2.277 . S
O320 C313 1.226 . S
O321 Cd312 2.356 . S
O321 C319 1.282 . S
C322 O323 1.306 . S
C322 O325 1.160 . S
O323 C322 1.306 . S
O323 Cd324 2.228 . S
Cd324 O323 2.228 . S
Cd324 O328 2.273 . S
Cd324 O332 2.277 . S
O325 C322 1.160 . S
O325 Cd326 2.203 . S
Cd326 O325 2.203 . S
Cd326 O328 2.411 . S
Cd326 O329 2.333 . S
Cd326 O330 2.352 . S
Cd326 O334 2.277 . S
Cd326 O335 2.356 . S
C327 O332 1.209 . S
C327 O334 1.226 . S
O328 Cd324 2.273 . S
O328 Cd326 2.411 . S
O328 C331 1.320 . S
O329 Cd326 2.333 . S
O329 C331 1.214 . S
O330 Cd326 2.352 . S
O330 C333 1.258 . S
C331 O328 1.320 . S
C331 O329 1.214 . S
O332 Cd324 2.277 . S
O332 C327 1.209 . S
C333 O330 1.258 . S
C333 O335 1.282 . S
O334 Cd326 2.277 . S
O334 C327 1.226 . S
O335 Cd326 2.356 . S
O335 C333 1.282 . S
O336 Mn337 2.168 . S
O336 C350 1.241 1_554 S
Mn337 O336 2.168 . S
Mn337 O340 2.160 1_445 S
Mn337 O341 2.221 1_455 S
Mn337 O343 2.163 1_454 S
Mn337 O345 2.160 1_545 S
Mn337 O355 2.214 1_544 S
O338 Mn339 2.087 1_556 S
O338 C350 1.256 1_565 S
Mn339 O338 2.087 1_554 S
Mn339 O346 2.089 . S
Mn339 O355 2.276 1_554 S
Mn339 O356 2.251 1_554 S
O340 Mn337 2.160 1_665 S
O340 C351 1.239 . S
O341 Mn337 2.221 1_655 S
O341 Mn342 2.290 1_554 S
O341 C352 1.278 . S
Mn342 O341 2.290 1_556 S
Mn342 O344 2.089 1_556 S
Mn342 O347 2.251 1_556 S
Mn342 O348 2.087 . S
O343 Mn337 2.163 1_656 S
O343 C353 1.244 . S
O344 Mn342 2.089 1_554 S
O344 C351 1.256 1_545 S
O345 Mn337 2.160 1_565 S
O345 C354 1.239 . S
O346 Mn339 2.089 . S
O346 C354 1.256 . S
O347 Mn342 2.251 1_554 S
O347 C352 1.241 . S
O348 Mn342 2.087 . S
O348 C353 1.256 . S
C349 O355 1.310 . S
C349 O356 1.241 . S
C350 O336 1.241 1_556 S
C350 O338 1.256 1_545 S
C351 O340 1.239 . S
C351 O344 1.256 1_565 S
C352 O341 1.278 . S
C352 O347 1.241 . S
C353 O343 1.244 . S
C353 O348 1.256 . S
C354 O345 1.239 . S
C354 O346 1.256 . S
O355 Mn337 2.214 1_566 S
O355 Mn339 2.276 1_556 S
O355 C349 1.310 . S
O356 Mn339 2.251 1_556 S
O356 C349 1.241 . S
O357 Mn358 2.163 . S
O357 C371 1.244 . S
Mn358 O357 2.163 . S
Mn358 O361 2.160 . S
Mn358 O362 2.221 . S
Mn358 O364 2.163 . S
Mn358 O366 2.160 . S
Mn358 O376 2.221 . S
O359 Mn360 2.087 . S
O359 C371 1.256 . S
Mn360 O359 2.087 . S
Mn360 O367 2.089 . S
Mn360 O376 2.290 . S
Mn360 O377 2.251 . S
O361 Mn358 2.160 . S
O361 C372 1.239 . S
O362 Mn358 2.221 . S
O362 Mn363 2.290 . S
O362 C373 1.278 . S
Mn363 O362 2.290 . S
Mn363 O365 2.089 . S
Mn363 O368 2.251 . S
Mn363 O369 2.087 . S
O364 Mn358 2.163 . S
O364 C374 1.244 . S
O365 Mn363 2.089 . S
O365 C372 1.256 . S
O366 Mn358 2.160 . S
O366 C375 1.239 . S
O367 Mn360 2.089 . S
O367 C375 1.256 . S
O368 Mn363 2.251 . S
O368 C373 1.241 . S
O369 Mn363 2.087 . S
O369 C374 1.256 . S
C370 O376 1.278 . S
C370 O377 1.241 . S
C371 O357 1.244 . S
C371 O359 1.256 . S
C372 O361 1.239 . S
C372 O365 1.256 . S
C373 O362 1.278 . S
C373 O368 1.241 . S
C374 O364 1.244 . S
C374 O369 1.256 . S
C375 O366 1.239 . S
C375 O367 1.256 . S
O376 Mn358 2.221 . S
O376 Mn360 2.290 . S
O376 C370 1.278 . S
O377 Mn360 2.251 . S
O377 C370 1.241 . S
O378 Mn379 2.163 1_565 S
O378 C392 1.244 . S
Mn379 O378 2.163 1_545 S
Mn379 O382 2.160 . S
Mn379 O383 2.221 1_545 S
Mn379 O385 2.163 . S
Mn379 O387 2.160 . S
Mn379 O397 2.221 . S
O380 Mn381 2.087 . S
O380 C392 1.256 1_545 S
Mn381 O380 2.087 . S
Mn381 O388 2.089 . S
Mn381 O397 2.290 . S
Mn381 O398 2.251 . S
O382 Mn379 2.160 . S
O382 C393 1.239 . S
O383 Mn379 2.221 1_565 S
O383 Mn384 2.290 . S
O383 C394 1.278 . S
Mn384 O383 2.290 . S
Mn384 O386 2.089 1_565 S
Mn384 O389 2.251 . S
Mn384 O390 2.087 . S
O385 Mn379 2.163 . S
O385 C395 1.244 1_545 S
O386 Mn384 2.089 1_545 S
O386 C393 1.256 . S
O387 Mn379 2.160 . S
O387 C396 1.239 . S
O388 Mn381 2.089 . S
O388 C396 1.256 . S
O389 Mn384 2.251 . S
O389 C394 1.241 . S
O390 Mn384 2.087 . S
O390 C395 1.256 . S
C391 O397 1.278 . S
C391 O398 1.241 . S
C392 O378 1.244 . S
C392 O380 1.256 1_565 S
C393 O382 1.239 . S
C393 O386 1.256 . S
C394 O383 1.278 . S
C394 O389 1.241 . S
C395 O385 1.244 1_565 S
C395 O390 1.256 . S
C396 O387 1.239 . S
C396 O388 1.256 . S
O397 Mn379 2.221 . S
O397 Mn381 2.290 . S
O397 C391 1.278 . S
O398 Mn381 2.251 . S
O398 C391 1.241 . S
O399 Mn400 2.163 . S
O399 C413 1.244 . S
Mn400 O399 2.163 . S
Mn400 O403 2.160 . S
Mn400 O404 2.221 . S
Mn400 O406 2.163 . S
Mn400 O408 2.160 . S
Mn400 O418 2.221 . S
O401 Mn402 2.087 . S
O401 C413 1.256 . S
Mn402 O401 2.087 . S
Mn402 O409 2.089 . S
Mn402 O418 2.290 . S
Mn402 O419 2.251 . S
O403 Mn400 2.160 . S
O403 C414 1.239 . S
O404 Mn400 2.221 . S
O404 Mn405 2.290 . S
O404 C415 1.278 . S
Mn405 O404 2.290 . S
Mn405 O407 2.089 . S
Mn405 O410 2.251 . S
Mn405 O411 2.087 . S
O406 Mn400 2.163 . S
O406 C416 1.244 . S
O407 Mn405 2.089 . S
O407 C414 1.256 . S
O408 Mn400 2.160 . S
O408 C417 1.239 . S
O409 Mn402 2.089 . S
O409 C417 1.256 . S
O410 Mn405 2.251 . S
O410 C415 1.241 . S
O411 Mn405 2.087 . S
O411 C416 1.256 . S
C412 O418 1.278 . S
C412 O419 1.241 . S
C413 O399 1.244 . S
C413 O401 1.256 . S
C414 O403 1.239 . S
C414 O407 1.256 . S
C415 O404 1.278 . S
C415 O410 1.241 . S
C416 O406 1.244 . S
C416 O411 1.256 . S
C417 O408 1.239 . S
C417 O409 1.256 . S
O418 Mn400 2.221 . S
O418 Mn402 2.290 . S
O418 C412 1.278 . S
O419 Mn402 2.251 . S
O419 C412 1.241 . S
O420 Mn421 2.163 1_565 S
O420 C434 1.239 1_455 S
Mn421 O420 2.163 1_545 S
Mn421 O424 2.160 . S
Mn421 O425 2.221 . S
Mn421 O427 2.163 1_455 S
Mn421 O429 2.160 1_545 S
Mn421 O439 2.225 1_545 S
O422 Mn423 2.087 1_655 S
O422 C434 1.259 . S
Mn423 O422 2.087 1_455 S
Mn423 O430 2.089 . S
Mn423 O439 2.296 . S
Mn423 O440 2.251 1_455 S
O424 Mn421 2.160 . S
O424 C435 1.239 . S
O425 Mn421 2.221 . S
O425 Mn426 2.290 1_455 S
O425 C436 1.278 . S
Mn426 O425 2.290 1_655 S
Mn426 O428 2.089 1_655 S
Mn426 O431 2.251 1_655 S
Mn426 O432 2.087 . S
O427 Mn421 2.163 1_655 S
O427 C437 1.244 . S
O428 Mn426 2.089 1_455 S
O428 C435 1.256 . S
O429 Mn421 2.160 1_565 S
O429 C438 1.239 . S
O430 Mn423 2.089 . S
O430 C438 1.256 . S
O431 Mn426 2.251 1_455 S
O431 C436 1.241 . S
O432 Mn426 2.087 . S
O432 C437 1.256 . S
C433 O439 1.265 1_655 S
C433 O440 1.241 . S
C434 O420 1.239 1_655 S
C434 O422 1.259 . S
C435 O424 1.239 . S
C435 O428 1.256 . S
C436 O425 1.278 . S
C436 O431 1.241 . S
C437 O427 1.244 . S
C437 O432 1.256 . S
C438 O429 1.239 . S
C438 O430 1.256 . S
O439 Mn421 2.225 1_565 S
O439 Mn423 2.296 . S
O439 C433 1.265 1_455 S
O440 Mn423 2.251 1_655 S
O440 C433 1.241 . S
O441 Mn442 2.163 . S
O441 C455 1.244 . S
Mn442 O441 2.163 . S
Mn442 O445 2.160 . S
Mn442 O446 2.221 . S
Mn442 O448 2.163 . S
Mn442 O450 2.160 . S
Mn442 O460 2.221 . S
O443 Mn444 2.087 . S
O443 C455 1.256 . S
Mn444 O443 2.087 . S
Mn444 O451 2.089 . S
Mn444 O460 2.290 . S
Mn444 O461 2.251 . S
O445 Mn442 2.160 . S
O445 C456 1.239 . S
O446 Mn442 2.221 . S
O446 Mn447 2.290 . S
O446 C457 1.278 . S
Mn447 O446 2.290 . S
Mn447 O449 2.089 . S
Mn447 O452 2.251 . S
Mn447 O453 2.087 . S
O448 Mn442 2.163 . S
O448 C458 1.244 . S
O449 Mn447 2.089 . S
O449 C456 1.256 . S
O450 Mn442 2.160 . S
O450 C459 1.239 . S
O451 Mn444 2.089 . S
O451 C459 1.256 . S
O452 Mn447 2.251 . S
O452 C457 1.241 . S
O453 Mn447 2.087 . S
O453 C458 1.256 . S
C454 O460 1.278 . S
C454 O461 1.241 . S
C455 O441 1.244 . S
C455 O443 1.256 . S
C456 O445 1.239 . S
C456 O449 1.256 . S
C457 O446 1.278 . S
C457 O452 1.241 . S
C458 O448 1.244 . S
C458 O453 1.256 . S
C459 O450 1.239 . S
C459 O451 1.256 . S
O460 Mn442 2.221 . S
O460 Mn444 2.290 . S
O460 C454 1.278 . S
O461 Mn444 2.251 . S
O461 C454 1.241 . S
O462 Mn463 2.159 1_566 S
O462 C476 1.247 . S
Mn463 O462 2.159 1_544 S
Mn463 O466 2.160 . S
Mn463 O467 2.221 . S
Mn463 O469 2.163 1_545 S
Mn463 O471 2.160 1_554 S
Mn463 O481 2.221 1_544 S
O464 Mn465 2.087 1_565 S
O464 C476 1.256 . S
Mn465 O464 2.087 1_545 S
Mn465 O472 2.089 . S
Mn465 O481 2.290 1_545 S
Mn465 O482 2.251 1_545 S
O466 Mn463 2.160 . S
O466 C477 1.239 . S
O467 Mn463 2.221 . S
O467 Mn468 2.290 1_545 S
O467 C478 1.278 . S
Mn468 O467 2.290 1_565 S
Mn468 O470 2.089 1_565 S
Mn468 O473 2.251 1_565 S
Mn468 O474 2.087 . S
O469 Mn463 2.163 1_565 S
O469 C479 1.244 . S
O470 Mn468 2.089 1_545 S
O470 C477 1.256 . S
O471 Mn463 2.160 1_556 S
O471 C480 1.239 . S
O472 Mn465 2.089 . S
O472 C480 1.256 . S
O473 Mn468 2.251 1_545 S
O473 C478 1.241 . S
O474 Mn468 2.087 . S
O474 C479 1.256 . S
C475 O481 1.278 . S
C475 O482 1.241 . S
C476 O462 1.247 . S
C476 O464 1.256 . S
C477 O466 1.239 . S
C477 O470 1.256 . S
C478 O467 1.278 . S
C478 O473 1.241 . S
C479 O469 1.244 . S
C479 O474 1.256 . S
C480 O471 1.239 . S
C480 O472 1.256 . S
O481 Mn463 2.221 1_566 S
O481 Mn465 2.290 1_565 S
O481 C475 1.278 . S
O482 Mn465 2.251 1_565 S
O482 C475 1.241 . S
O483 Mn484 2.163 . S
O483 C497 1.244 . S
Mn484 O483 2.163 . S
Mn484 O487 2.160 . S
Mn484 O488 2.221 . S
Mn484 O490 2.163 . S
Mn484 O492 2.160 . S
Mn484 O502 2.221 . S
O485 Mn486 2.087 . S
O485 C497 1.256 . S
Mn486 O485 2.087 . S
Mn486 O493 2.089 . S
Mn486 O502 2.290 . S
Mn486 O503 2.251 . S
O487 Mn484 2.160 . S
O487 C498 1.239 . S
O488 Mn484 2.221 . S
O488 Mn489 2.290 . S
O488 C499 1.278 . S
Mn489 O488 2.290 . S
Mn489 O491 2.089 . S
Mn489 O494 2.251 . S
Mn489 O495 2.087 . S
O490 Mn484 2.163 . S
O490 C500 1.244 . S
O491 Mn489 2.089 . S
O491 C498 1.256 . S
O492 Mn484 2.160 . S
O492 C501 1.239 . S
O493 Mn486 2.089 . S
O493 C501 1.256 . S
O494 Mn489 2.251 . S
O494 C499 1.241 . S
O495 Mn489 2.087 . S
O495 C500 1.256 . S
C496 O502 1.278 . S
C496 O503 1.241 . S
C497 O483 1.244 . S
C497 O485 1.256 . S
C498 O487 1.239 . S
C498 O491 1.256 . S
C499 O488 1.278 . S
C499 O494 1.241 . S
C500 O490 1.244 . S
C500 O495 1.256 . S
C501 O492 1.239 . S
C501 O493 1.256 . S
O502 Mn484 2.221 . S
O502 Mn486 2.290 . S
O502 C496 1.278 . S
O503 Mn486 2.251 . S
O503 C496 1.241 . S
O504 Mn505 2.163 1_556 S
O504 C518 1.244 . S
Mn505 O504 2.163 1_554 S
Mn505 O508 2.160 . S
Mn505 O509 2.221 1_554 S
Mn505 O511 2.163 . S
Mn505 O513 2.160 . S
Mn505 O523 2.221 . S
O506 Mn507 2.087 . S
O506 C518 1.256 1_554 S
Mn507 O506 2.087 . S
Mn507 O514 2.089 . S
Mn507 O523 2.290 . S
Mn507 O524 2.251 . S
O508 Mn505 2.160 . S
O508 C519 1.239 . S
O509 Mn505 2.221 1_556 S
O509 Mn510 2.290 . S
O509 C520 1.278 . S
Mn510 O509 2.290 . S
Mn510 O512 2.089 1_556 S
Mn510 O515 2.251 . S
Mn510 O516 2.087 . S
O511 Mn505 2.163 . S
O511 C521 1.244 1_554 S
O512 Mn510 2.089 1_554 S
O512 C519 1.256 . S
O513 Mn505 2.160 . S
O513 C522 1.239 . S
O514 Mn507 2.089 . S
O514 C522 1.256 . S
O515 Mn510 2.251 . S
O515 C520 1.241 . S
O516 Mn510 2.087 . S
O516 C521 1.256 . S
C517 O523 1.278 . S
C517 O524 1.241 . S
C518 O504 1.244 . S
C518 O506 1.256 1_556 S
C519 O508 1.239 . S
C519 O512 1.256 . S
C520 O509 1.278 . S
C520 O515 1.241 . S
C521 O511 1.244 1_556 S
C521 O516 1.256 . S
C522 O513 1.239 . S
C522 O514 1.256 . S
O523 Mn505 2.221 . S
O523 Mn507 2.290 . S
O523 C517 1.278 . S
O524 Mn507 2.251 . S
O524 C517 1.241 . S
O525 Mn526 2.163 . S
O525 C539 1.244 . S
Mn526 O525 2.163 . S
Mn526 O529 2.160 . S
Mn526 O530 2.221 . S
Mn526 O532 2.163 . S
Mn526 O534 2.160 . S
Mn526 O544 2.221 . S
O527 Mn528 2.087 . S
O527 C539 1.256 . S
Mn528 O527 2.087 . S
Mn528 O535 2.089 . S
Mn528 O544 2.290 . S
Mn528 O545 2.251 . S
O529 Mn526 2.160 . S
O529 C540 1.239 . S
O530 Mn526 2.221 . S
O530 Mn531 2.290 . S
O530 C541 1.278 . S
Mn531 O530 2.290 . S
Mn531 O533 2.089 . S
Mn531 O536 2.251 . S
Mn531 O537 2.087 . S
O532 Mn526 2.163 . S
O532 C542 1.244 . S
O533 Mn531 2.089 . S
O533 C540 1.256 . S
O534 Mn526 2.160 . S
O534 C543 1.239 . S
O535 Mn528 2.089 . S
O535 C543 1.256 . S
O536 Mn531 2.251 . S
O536 C541 1.241 . S
O537 Mn531 2.087 . S
O537 C542 1.256 . S
C538 O544 1.278 . S
C538 O545 1.241 . S
C539 O525 1.244 . S
C539 O527 1.256 . S
C540 O529 1.239 . S
C540 O533 1.256 . S
C541 O530 1.278 . S
C541 O536 1.241 . S
C542 O532 1.244 . S
C542 O537 1.256 . S
C543 O534 1.239 . S
C543 O535 1.256 . S
O544 Mn526 2.221 . S
O544 Mn528 2.290 . S
O544 C538 1.278 . S
O545 Mn528 2.251 . S
O545 C538 1.241 . S
O546 Mn547 2.163 1_655 S
O546 C560 1.244 . S
Mn547 O546 2.163 1_455 S
Mn547 O550 2.160 . S
Mn547 O551 2.221 1_455 S
Mn547 O553 2.163 . S
Mn547 O555 2.160 . S
Mn547 O565 2.221 . S
O548 Mn549 2.087 . S
O548 C560 1.256 1_455 S
Mn549 O548 2.087 . S
Mn549 O556 2.089 . S
Mn549 O565 2.290 . S
Mn549 O566 2.251 . S
O550 Mn547 2.160 . S
O550 C561 1.239 . S
O551 Mn547 2.221 1_655 S
O551 Mn552 2.290 . S
O551 C562 1.278 . S
Mn552 O551 2.290 . S
Mn552 O554 2.089 1_655 S
Mn552 O557 2.251 . S
Mn552 O558 2.087 . S
O553 Mn547 2.163 . S
O553 C563 1.244 1_455 S
O554 Mn552 2.089 1_455 S
O554 C561 1.256 . S
O555 Mn547 2.160 . S
O555 C564 1.239 . S
O556 Mn549 2.089 . S
O556 C564 1.256 . S
O557 Mn552 2.251 . S
O557 C562 1.241 . S
O558 Mn552 2.087 . S
O558 C563 1.256 . S
C559 O565 1.278 . S
C559 O566 1.241 . S
C560 O546 1.244 . S
C560 O548 1.256 1_655 S
C561 O550 1.239 . S
C561 O554 1.256 . S
C562 O551 1.278 . S
C562 O557 1.241 . S
C563 O553 1.244 1_655 S
C563 O558 1.256 . S
C564 O555 1.239 . S
C564 O556 1.256 . S
O565 Mn547 2.221 . S
O565 Mn549 2.290 . S
O565 C559 1.278 . S
O566 Mn549 2.251 . S
O566 C559 1.241 . S
O567 Mn568 2.163 . S
O567 C581 1.244 . S
Mn568 O567 2.163 . S
Mn568 O571 2.160 . S
Mn568 O572 2.221 . S
Mn568 O574 2.163 . S
Mn568 O576 2.160 . S
Mn568 O586 2.221 . S
O569 Mn570 2.087 . S
O569 C581 1.256 . S
Mn570 O569 2.087 . S
Mn570 O577 2.089 . S
Mn570 O586 2.290 . S
Mn570 O587 2.251 . S
O571 Mn568 2.160 . S
O571 C582 1.239 . S
O572 Mn568 2.221 . S
O572 Mn573 2.290 . S
O572 C583 1.278 . S
Mn573 O572 2.290 . S
Mn573 O575 2.089 . S
Mn573 O578 2.251 . S
Mn573 O579 2.087 . S
O574 Mn568 2.163 . S
O574 C584 1.244 . S
O575 Mn573 2.089 . S
O575 C582 1.256 . S
O576 Mn568 2.160 . S
O576 C585 1.239 . S
O577 Mn570 2.089 . S
O577 C585 1.256 . S
O578 Mn573 2.251 . S
O578 C583 1.241 . S
O579 Mn573 2.087 . S
O579 C584 1.256 . S
C580 O586 1.278 . S
C580 O587 1.241 . S
C581 O567 1.244 . S
C581 O569 1.256 . S
C582 O571 1.239 . S
C582 O575 1.256 . S
C583 O572 1.278 . S
C583 O578 1.241 . S
C584 O574 1.244 . S
C584 O579 1.256 . S
C585 O576 1.239 . S
C585 O577 1.256 . S
O586 Mn568 2.221 . S
O586 Mn570 2.290 . S
O586 C580 1.278 . S
O587 Mn570 2.251 . S
O587 C580 1.241 . S
O588 Mn589 2.163 . S
O588 C602 1.244 . S
Mn589 O588 2.163 . S
Mn589 O592 2.160 . S
Mn589 O593 2.221 . S
Mn589 O595 2.163 . S
Mn589 O597 2.160 . S
Mn589 O607 2.221 . S
O590 Mn591 2.087 . S
O590 C602 1.256 . S
Mn591 O590 2.087 . S
Mn591 O598 2.089 . S
Mn591 O607 2.290 . S
Mn591 O608 2.251 . S
O592 Mn589 2.160 . S
O592 C603 1.239 . S
O593 Mn589 2.221 . S
O593 Mn594 2.290 . S
O593 C604 1.278 . S
Mn594 O593 2.290 . S
Mn594 O596 2.089 . S
Mn594 O599 2.251 . S
Mn594 O600 2.087 . S
O595 Mn589 2.163 . S
O595 C605 1.244 . S
O596 Mn594 2.089 . S
O596 C603 1.256 . S
O597 Mn589 2.160 . S
O597 C606 1.239 . S
O598 Mn591 2.089 . S
O598 C606 1.256 . S
O599 Mn594 2.251 . S
O599 C604 1.241 . S
O600 Mn594 2.087 . S
O600 C605 1.256 . S
C601 O607 1.278 . S
C601 O608 1.241 . S
C602 O588 1.244 . S
C602 O590 1.256 . S
C603 O592 1.239 . S
C603 O596 1.256 . S
C604 O593 1.278 . S
C604 O599 1.241 . S
C605 O595 1.244 . S
C605 O600 1.256 . S
C606 O597 1.239 . S
C606 O598 1.256 . S
O607 Mn589 2.221 . S
O607 Mn591 2.290 . S
O607 C601 1.278 . S
O608 Mn591 2.251 . S
O608 C601 1.241 . S
O609 Mn610 2.163 . S
O609 C623 1.244 . S
Mn610 O609 2.163 . S
Mn610 O613 2.160 . S
Mn610 O614 2.221 . S
Mn610 O616 2.163 . S
Mn610 O618 2.160 . S
Mn610 O628 2.221 . S
O611 Mn612 2.087 . S
O611 C623 1.256 . S
Mn612 O611 2.087 . S
Mn612 O619 2.089 . S
Mn612 O628 2.290 . S
Mn612 O629 2.251 . S
O613 Mn610 2.160 . S
O613 C624 1.239 . S
O614 Mn610 2.221 . S
O614 Mn615 2.290 . S
O614 C625 1.278 . S
Mn615 O614 2.290 . S
Mn615 O617 2.089 . S
Mn615 O620 2.251 . S
Mn615 O621 2.087 . S
O616 Mn610 2.163 . S
O616 C626 1.244 . S
O617 Mn615 2.089 . S
O617 C624 1.256 . S
O618 Mn610 2.160 . S
O618 C627 1.239 . S
O619 Mn612 2.089 . S
O619 C627 1.256 . S
O620 Mn615 2.251 . S
O620 C625 1.241 . S
O621 Mn615 2.087 . S
O621 C626 1.256 . S
C622 O628 1.278 . S
C622 O629 1.241 . S
C623 O609 1.244 . S
C623 O611 1.256 . S
C624 O613 1.239 . S
C624 O617 1.256 . S
C625 O614 1.278 . S
C625 O620 1.241 . S
C626 O616 1.244 . S
C626 O621 1.256 . S
C627 O618 1.239 . S
C627 O619 1.256 . S
O628 Mn610 2.221 . S
O628 Mn612 2.290 . S
O628 C622 1.278 . S
O629 Mn612 2.251 . S
O629 C622 1.241 . S
O630 Mn631 2.163 . S
O630 C644 1.244 . S
Mn631 O630 2.163 . S
Mn631 O634 2.160 . S
Mn631 O635 2.221 . S
Mn631 O637 2.163 . S
Mn631 O639 2.160 . S
Mn631 O649 2.221 . S
O632 Mn633 2.087 . S
O632 C644 1.256 . S
Mn633 O632 2.087 . S
Mn633 O640 2.089 . S
Mn633 O649 2.290 . S
Mn633 O650 2.251 . S
O634 Mn631 2.160 . S
O634 C645 1.239 . S
O635 Mn631 2.221 . S
O635 Mn636 2.290 . S
O635 C646 1.278 . S
Mn636 O635 2.290 . S
Mn636 O638 2.089 . S
Mn636 O641 2.251 . S
Mn636 O642 2.087 . S
O637 Mn631 2.163 . S
O637 C647 1.244 . S
O638 Mn636 2.089 . S
O638 C645 1.256 . S
O639 Mn631 2.160 . S
O639 C648 1.239 . S
O640 Mn633 2.089 . S
O640 C648 1.256 . S
O641 Mn636 2.251 . S
O641 C646 1.241 . S
O642 Mn636 2.087 . S
O642 C647 1.256 . S
C643 O649 1.278 . S
C643 O650 1.241 . S
C644 O630 1.244 . S
C644 O632 1.256 . S
C645 O634 1.239 . S
C645 O638 1.256 . S
C646 O635 1.278 . S
C646 O641 1.241 . S
C647 O637 1.244 . S
C647 O642 1.256 . S
C648 O639 1.239 . S
C648 O640 1.256 . S
O649 Mn631 2.221 . S
O649 Mn633 2.290 . S
O649 C643 1.278 . S
O650 Mn633 2.251 . S
O650 C643 1.241 . S
O651 Mn652 2.158 1_656 S
O651 C665 1.248 . S
Mn652 O651 2.158 1_454 S
Mn652 O655 2.160 . S
Mn652 O656 2.221 . S
Mn652 O658 2.163 1_554 S
Mn652 O660 2.160 1_455 S
Mn652 O670 2.221 1_454 S
O653 Mn654 2.087 1_556 S
O653 C665 1.256 . S
Mn654 O653 2.087 1_554 S
Mn654 O661 2.089 . S
Mn654 O670 2.290 1_554 S
Mn654 O671 2.251 1_554 S
O655 Mn652 2.160 . S
O655 C666 1.239 . S
O656 Mn652 2.221 . S
O656 Mn657 2.290 1_554 S
O656 C667 1.278 . S
Mn657 O656 2.290 1_556 S
Mn657 O659 2.090 . S
Mn657 O662 2.251 1_556 S
Mn657 O663 2.087 . S
O658 Mn652 2.163 1_556 S
O658 C668 1.244 . S
O659 Mn657 2.090 . S
O659 C666 1.252 1_556 S
O660 Mn652 2.160 1_655 S
O660 C669 1.239 . S
O661 Mn654 2.089 . S
O661 C669 1.256 . S
O662 Mn657 2.251 1_554 S
O662 C667 1.241 . S
O663 Mn657 2.087 . S
O663 C668 1.256 . S
C664 O670 1.278 . S
C664 O671 1.241 . S
C665 O651 1.248 . S
C665 O653 1.256 . S
C666 O655 1.239 . S
C666 O659 1.252 1_554 S
C667 O656 1.278 . S
C667 O662 1.241 . S
C668 O658 1.244 . S
C668 O663 1.256 . S
C669 O660 1.239 . S
C669 O661 1.256 . S
O670 Mn652 2.221 1_656 S
O670 Mn654 2.290 1_556 S
O670 C664 1.278 . S
O671 Mn654 2.251 1_556 S
O671 C664 1.241 . S
C672 C673 1.425 . S
C672 C674 1.394 . S
C672 H688 0.931 . S
C673 C672 1.425 . S
C673 C677 1.339 1_455 S
C674 C672 1.394 . S
C674 C675 1.369 1_455 S
C674 C678 1.531 . S
C675 C674 1.369 1_655 S
C675 C676 1.410 . S
C675 C683 1.503 . S
C676 C675 1.410 . S
C676 C677 1.392 . S
C676 C679 1.511 . S
C677 C673 1.339 1_655 S
C677 C676 1.392 . S
C677 H689 0.929 . S
C678 C674 1.531 . S
C678 H690 0.960 . S
C678 H691 0.962 . S
C678 H692 0.960 . S
C679 C676 1.511 . S
C679 H693 0.961 . S
C679 H694 0.961 . S
C679 H695 0.961 . S
C680 C681 1.370 1_455 S
C680 C682 1.363 . S
C680 H696 0.931 . S
C681 C680 1.370 1_655 S
C681 C685 1.408 . S
C682 C680 1.363 . S
C682 C683 1.370 1_455 S
C682 C686 1.524 . S
C683 C675 1.503 . S
C683 C682 1.370 1_655 S
C683 C684 1.403 . S
C684 C683 1.403 . S
C684 C685 1.404 . S
C684 C687 1.539 . S
C685 C681 1.408 . S
C685 C684 1.404 . S
C685 H697 0.930 . S
C686 C682 1.524 . S
C686 H698 0.956 . S
C686 H699 0.961 . S
C686 H700 0.961 . S
C687 C684 1.539 . S
C687 H701 0.958 . S
C687 H702 0.961 . S
C687 H703 0.960 . S
H688 C672 0.931 . S
H689 C677 0.929 . S
H690 C678 0.960 . S
H691 C678 0.962 . S
H692 C678 0.960 . S
H693 C679 0.961 . S
H694 C679 0.961 . S
H695 C679 0.961 . S
H696 C680 0.931 . S
H697 C685 0.930 . S
H698 C686 0.956 . S
H699 C686 0.961 . S
H700 C686 0.961 . S
H701 C687 0.958 . S
H702 C687 0.961 . S
H703 C687 0.960 . S
C704 C705 1.391 . S
C704 C706 1.394 . S
C704 H720 0.931 . S
C705 C704 1.391 . S
C705 C709 1.376 . S
C706 C704 1.394 . S
C706 C707 1.369 . S
C706 C710 1.531 . S
C707 C706 1.369 . S
C707 C708 1.410 . S
C707 C715 1.503 . S
C708 C707 1.410 . S
C708 C709 1.392 . S
C708 C711 1.511 . S
C709 C705 1.376 . S
C709 C708 1.392 . S
C709 H721 0.929 . S
C710 C706 1.531 . S
C710 H722 0.960 . S
C710 H723 0.962 . S
C710 H724 0.960 . S
C711 C708 1.511 . S
C711 H725 0.961 . S
C711 H726 0.961 . S
C711 H727 0.961 . S
C712 C713 1.370 . S
C712 C714 1.363 . S
C712 H728 0.931 . S
C713 C712 1.370 . S
C713 C717 1.408 . S
C714 C712 1.363 . S
C714 C715 1.370 . S
C714 C718 1.524 . S
C715 C707 1.503 . S
C715 C714 1.370 . S
C715 C716 1.403 . S
C716 C715 1.403 . S
C716 C717 1.404 . S
C716 C719 1.539 . S
C717 C713 1.408 . S
C717 C716 1.404 . S
C717 H729 0.930 . S
C718 C714 1.524 . S
C718 H730 0.956 . S
C718 H731 0.961 . S
C718 H732 0.961 . S
C719 C716 1.539 . S
C719 H733 0.958 . S
C719 H734 0.961 . S
C719 H735 0.960 . S
H720 C704 0.931 . S
H721 C709 0.929 . S
H722 C710 0.960 . S
H723 C710 0.962 . S
H724 C710 0.960 . S
H725 C711 0.961 . S
H726 C711 0.961 . S
H727 C711 0.961 . S
H728 C712 0.931 . S
H729 C717 0.930 . S
H730 C718 0.956 . S
H731 C718 0.961 . S
H732 C718 0.961 . S
H733 C719 0.958 . S
H734 C719 0.961 . S
H735 C719 0.960 . S
C736 C737 1.391 . S
C736 C738 1.394 . S
C736 H752 0.931 . S
C737 C736 1.391 . S
C737 C741 1.376 . S
C738 C736 1.394 . S
C738 C739 1.369 . S
C738 C742 1.531 . S
C739 C738 1.369 . S
C739 C740 1.410 . S
C739 C747 1.503 . S
C740 C739 1.410 . S
C740 C741 1.392 . S
C740 C743 1.511 . S
C741 C737 1.376 . S
C741 C740 1.392 . S
C741 H753 0.929 . S
C742 C738 1.531 . S
C742 H754 0.960 . S
C742 H755 0.962 . S
C742 H756 0.960 . S
C743 C740 1.511 . S
C743 H757 0.961 . S
C743 H758 0.961 . S
C743 H759 0.961 . S
C744 C745 1.370 . S
C744 C746 1.363 . S
C744 H760 0.931 . S
C745 C744 1.370 . S
C745 C749 1.408 . S
C746 C744 1.363 . S
C746 C747 1.370 . S
C746 C750 1.524 . S
C747 C739 1.503 . S
C747 C746 1.370 . S
C747 C748 1.403 . S
C748 C747 1.403 . S
C748 C749 1.404 . S
C748 C751 1.539 . S
C749 C745 1.408 . S
C749 C748 1.404 . S
C749 H761 0.930 . S
C750 C746 1.524 . S
C750 H762 0.956 . S
C750 H763 0.961 . S
C750 H764 0.961 . S
C751 C748 1.539 . S
C751 H765 0.958 . S
C751 H766 0.961 . S
C751 H767 0.960 . S
H752 C736 0.931 . S
H753 C741 0.929 . S
H754 C742 0.960 . S
H755 C742 0.962 . S
H756 C742 0.960 . S
H757 C743 0.961 . S
H758 C743 0.961 . S
H759 C743 0.961 . S
H760 C744 0.931 . S
H761 C749 0.930 . S
H762 C750 0.956 . S
H763 C750 0.961 . S
H764 C750 0.961 . S
H765 C751 0.958 . S
H766 C751 0.961 . S
H767 C751 0.960 . S
C768 C769 1.391 . S
C768 C770 1.394 . S
C768 H784 0.931 . S
C769 C768 1.391 . S
C769 C773 1.376 . S
C770 C768 1.394 . S
C770 C771 1.369 . S
C770 C774 1.531 . S
C771 C770 1.369 . S
C771 C772 1.410 . S
C771 C779 1.503 . S
C772 C771 1.410 . S
C772 C773 1.392 . S
C772 C775 1.511 . S
C773 C769 1.376 . S
C773 C772 1.392 . S
C773 H785 0.929 . S
C774 C770 1.531 . S
C774 H786 0.960 . S
C774 H787 0.962 . S
C774 H788 0.960 . S
C775 C772 1.511 . S
C775 H789 0.961 . S
C775 H790 0.961 . S
C775 H791 0.961 . S
C776 C777 1.370 . S
C776 C778 1.363 . S
C776 H792 0.931 . S
C777 C776 1.370 . S
C777 C781 1.408 . S
C778 C776 1.363 . S
C778 C779 1.370 . S
C778 C782 1.524 . S
C779 C771 1.503 . S
C779 C778 1.370 . S
C779 C780 1.403 . S
C780 C779 1.403 . S
C780 C781 1.404 . S
C780 C783 1.539 . S
C781 C777 1.408 . S
C781 C780 1.404 . S
C781 H793 0.930 . S
C782 C778 1.524 . S
C782 H794 0.956 . S
C782 H795 0.961 . S
C782 H796 0.961 . S
C783 C780 1.539 . S
C783 H797 0.958 . S
C783 H798 0.961 . S
C783 H799 0.960 . S
H784 C768 0.931 . S
H785 C773 0.929 . S
H786 C774 0.960 . S
H787 C774 0.962 . S
H788 C774 0.960 . S
H789 C775 0.961 . S
H790 C775 0.961 . S
H791 C775 0.961 . S
H792 C776 0.931 . S
H793 C781 0.930 . S
H794 C782 0.956 . S
H795 C782 0.961 . S
H796 C782 0.961 . S
H797 C783 0.958 . S
H798 C783 0.961 . S
H799 C783 0.960 . S
C800 C801 1.391 . S
C800 C802 1.394 . S
C800 H816 0.931 . S
C801 C800 1.391 . S
C801 C805 1.376 1_455 S
C802 C800 1.394 . S
C802 C803 1.369 . S
C802 C806 1.531 . S
C803 C802 1.369 . S
C803 C804 1.410 1_455 S
C803 C811 1.504 . S
C804 C803 1.410 1_655 S
C804 C805 1.392 . S
C804 C807 1.511 . S
C805 C801 1.376 1_655 S
C805 C804 1.392 . S
C805 H817 0.929 . S
C806 C802 1.531 . S
C806 H818 0.960 . S
C806 H819 0.962 . S
C806 H820 0.960 . S
C807 C804 1.511 . S
C807 H821 0.961 . S
C807 H822 0.961 . S
C807 H823 0.961 . S
C808 C809 1.370 1_455 S
C808 C810 1.363 . S
C808 H824 0.931 . S
C809 C808 1.370 1_655 S
C809 C813 1.408 . S
C810 C808 1.363 . S
C810 C811 1.374 . S
C810 C814 1.524 . S
C811 C803 1.504 . S
C811 C810 1.374 . S
C811 C812 1.399 1_455 S
C812 C811 1.399 1_655 S
C812 C813 1.404 . S
C812 C815 1.539 . S
C813 C809 1.408 . S
C813 C812 1.404 . S
C813 H825 0.930 . S
C814 C810 1.524 . S
C814 H826 0.956 . S
C814 H827 0.932 1_455 S
C814 H828 0.961 . S
C815 C812 1.539 . S
C815 H829 0.958 1_655 S
C815 H830 0.961 . S
C815 H831 0.960 . S
H816 C800 0.931 . S
H817 C805 0.929 . S
H818 C806 0.960 . S
H819 C806 0.962 . S
H820 C806 0.960 . S
H821 C807 0.961 . S
H822 C807 0.961 . S
H823 C807 0.961 . S
H824 C808 0.931 . S
H825 C813 0.930 . S
H826 C814 0.956 . S
H827 C814 0.932 1_655 S
H828 C814 0.961 . S
H829 C815 0.958 1_455 S
H830 C815 0.961 . S
H831 C815 0.960 . S
C832 C833 1.391 . S
C832 C834 1.394 . S
C832 H848 0.931 . S
C833 C832 1.391 . S
C833 C837 1.376 . S
C834 C832 1.394 . S
C834 C835 1.369 . S
C834 C838 1.531 . S
C835 C834 1.369 . S
C835 C836 1.410 . S
C835 C843 1.503 . S
C836 C835 1.410 . S
C836 C837 1.392 . S
C836 C839 1.511 . S
C837 C833 1.376 . S
C837 C836 1.392 . S
C837 H849 0.929 . S
C838 C834 1.531 . S
C838 H850 0.960 . S
C838 H851 0.962 . S
C838 H852 0.960 . S
C839 C836 1.511 . S
C839 H853 0.961 . S
C839 H854 0.961 . S
C839 H855 0.961 . S
C840 C841 1.370 . S
C840 C842 1.363 . S
C840 H856 0.931 . S
C841 C840 1.370 . S
C841 C845 1.408 . S
C842 C840 1.363 . S
C842 C843 1.370 . S
C842 C846 1.524 . S
C843 C835 1.503 . S
C843 C842 1.370 . S
C843 C844 1.403 . S
C844 C843 1.403 . S
C844 C845 1.404 . S
C844 C847 1.539 . S
C845 C841 1.408 . S
C845 C844 1.404 . S
C845 H857 0.930 . S
C846 C842 1.524 . S
C846 H858 0.956 . S
C846 H859 0.961 . S
C846 H860 0.961 . S
C847 C844 1.539 . S
C847 H861 0.958 . S
C847 H862 0.961 . S
C847 H863 0.960 . S
H848 C832 0.931 . S
H849 C837 0.929 . S
H850 C838 0.960 . S
H851 C838 0.962 . S
H852 C838 0.960 . S
H853 C839 0.961 . S
H854 C839 0.961 . S
H855 C839 0.961 . S
H856 C840 0.931 . S
H857 C845 0.930 . S
H858 C846 0.956 . S
H859 C846 0.961 . S
H860 C846 0.961 . S
H861 C847 0.958 . S
H862 C847 0.961 . S
H863 C847 0.960 . S
C864 C865 1.391 . S
C864 C866 1.394 . S
C864 H880 0.931 . S
C865 C864 1.391 . S
C865 C869 1.376 . S
C866 C864 1.394 . S
C866 C867 1.369 . S
C866 C870 1.531 . S
C867 C866 1.369 . S
C867 C868 1.410 . S
C867 C875 1.503 . S
C868 C867 1.410 . S
C868 C869 1.392 . S
C868 C871 1.511 . S
C869 C865 1.376 . S
C869 C868 1.392 . S
C869 H881 0.929 . S
C870 C866 1.531 . S
C870 H882 0.960 . S
C870 H883 0.962 . S
C870 H884 0.960 . S
C871 C868 1.511 . S
C871 H885 0.961 . S
C871 H886 0.961 . S
C871 H887 0.961 . S
C872 C873 1.370 . S
C872 C874 1.363 . S
C872 H888 0.931 . S
C873 C872 1.370 . S
C873 C877 1.408 . S
C874 C872 1.363 . S
C874 C875 1.370 . S
C874 C878 1.524 . S
C875 C867 1.503 . S
C875 C874 1.370 . S
C875 C876 1.403 . S
C876 C875 1.403 . S
C876 C877 1.404 . S
C876 C879 1.539 . S
C877 C873 1.408 . S
C877 C876 1.404 . S
C877 H889 0.930 . S
C878 C874 1.524 . S
C878 H890 0.956 . S
C878 H891 0.961 . S
C878 H892 0.961 . S
C879 C876 1.539 . S
C879 H893 0.958 . S
C879 H894 0.961 1_556 S
C879 H895 0.960 . S
H880 C864 0.931 . S
H881 C869 0.929 . S
H882 C870 0.960 . S
H883 C870 0.962 . S
H884 C870 0.960 . S
H885 C871 0.961 . S
H886 C871 0.961 . S
H887 C871 0.961 . S
H888 C872 0.931 . S
H889 C877 0.930 . S
H890 C878 0.956 . S
H891 C878 0.961 . S
H892 C878 0.961 . S
H893 C879 0.958 . S
H894 C879 0.961 1_554 S
H895 C879 0.960 . S
C896 C897 1.391 . S
C896 C898 1.394 . S
C896 H912 0.931 . S
C897 C896 1.391 . S
C897 C901 1.376 . S
C898 C896 1.394 . S
C898 C899 1.369 . S
C898 C902 1.531 . S
C899 C898 1.369 . S
C899 C900 1.410 . S
C899 C907 1.503 . S
C900 C899 1.410 . S
C900 C901 1.392 . S
C900 C903 1.511 . S
C901 C897 1.376 . S
C901 C900 1.392 . S
C901 H913 0.929 . S
C902 C898 1.531 . S
C902 H914 0.960 . S
C902 H915 0.962 . S
C902 H916 0.960 . S
C903 C900 1.511 . S
C903 H917 0.961 . S
C903 H918 0.961 . S
C903 H919 0.961 . S
C904 C905 1.370 . S
C904 C906 1.363 . S
C904 H920 0.931 . S
C905 C904 1.370 . S
C905 C909 1.408 . S
C906 C904 1.363 . S
C906 C907 1.370 . S
C906 C910 1.524 . S
C907 C899 1.503 . S
C907 C906 1.370 . S
C907 C908 1.403 . S
C908 C907 1.403 . S
C908 C909 1.404 . S
C908 C911 1.539 . S
C909 C905 1.408 . S
C909 C908 1.404 . S
C909 H921 0.930 . S
C910 C906 1.524 . S
C910 H922 0.956 . S
C910 H923 0.961 . S
C910 H924 0.961 . S
C911 C908 1.539 . S
C911 H925 0.958 . S
C911 H926 0.961 . S
C911 H927 0.960 . S
H912 C896 0.931 . S
H913 C901 0.929 . S
H914 C902 0.960 . S
H915 C902 0.962 . S
H916 C902 0.960 . S
H917 C903 0.961 . S
H918 C903 0.961 . S
H919 C903 0.961 . S
H920 C904 0.931 . S
H921 C909 0.930 . S
H922 C910 0.956 . S
H923 C910 0.961 . S
H924 C910 0.961 . S
H925 C911 0.958 . S
H926 C911 0.961 . S
H927 C911 0.960 . S
C928 C929 1.351 1_565 S
C928 C930 1.394 . S
C928 H944 0.931 . S
C929 C928 1.351 1_545 S
C929 C933 1.412 . S
C930 C928 1.394 . S
C930 C931 1.369 . S
C930 C934 1.531 . S
C931 C930 1.369 . S
C931 C932 1.410 1_565 S
C931 C939 1.503 . S
C932 C931 1.410 1_545 S
C932 C933 1.392 . S
C932 C935 1.511 . S
C933 C929 1.412 . S
C933 C932 1.392 . S
C933 H945 0.929 . S
C934 C930 1.531 . S
C934 H946 0.960 . S
C934 H947 0.962 . S
C934 H948 0.960 . S
C935 C932 1.511 . S
C935 H949 0.961 . S
C935 H950 0.961 . S
C935 H951 0.961 . S
C936 C937 1.370 1_545 S
C936 C938 1.363 . S
C936 H952 0.931 . S
C937 C936 1.370 1_565 S
C937 C941 1.408 . S
C938 C936 1.363 . S
C938 C939 1.370 1_545 S
C938 C942 1.524 . S
C939 C931 1.503 . S
C939 C938 1.370 1_565 S
C939 C940 1.403 . S
C940 C939 1.403 . S
C940 C941 1.404 . S
C940 C943 1.539 . S
C941 C937 1.408 . S
C941 C940 1.404 . S
C941 H953 0.930 . S
C942 C938 1.524 . S
C942 H954 0.953 . S
C942 H955 0.961 . S
C942 H956 0.961 . S
C943 C940 1.539 . S
C943 H957 0.958 . S
C943 H958 0.961 . S
C943 H959 0.960 . S
H944 C928 0.931 . S
H945 C933 0.929 . S
H946 C934 0.960 . S
H947 C934 0.962 . S
H948 C934 0.960 . S
H949 C935 0.961 . S
H950 C935 0.961 . S
H951 C935 0.961 . S
H952 C936 0.931 . S
H953 C941 0.930 . S
H954 C942 0.953 . S
H955 C942 0.961 . S
H956 C942 0.961 . S
H957 C943 0.958 . S
H958 C943 0.961 . S
H959 C943 0.960 . S
C960 C961 1.391 . S
C960 C962 1.394 . S
C960 H976 0.931 . S
C961 C960 1.391 . S
C961 C965 1.376 . S
C962 C960 1.394 . S
C962 C963 1.369 . S
C962 C966 1.531 . S
C963 C962 1.369 . S
C963 C964 1.410 . S
C963 C971 1.503 . S
C964 C963 1.410 . S
C964 C965 1.392 . S
C964 C967 1.511 . S
C965 C961 1.376 . S
C965 C964 1.392 . S
C965 H977 0.929 . S
C966 C962 1.531 . S
C966 H978 0.960 . S
C966 H979 0.962 . S
C966 H980 0.960 . S
C967 C964 1.511 . S
C967 H981 0.961 . S
C967 H982 0.961 . S
C967 H983 0.961 . S
C968 C969 1.370 . S
C968 C970 1.363 . S
C968 H984 0.931 . S
C969 C968 1.370 . S
C969 C973 1.408 . S
C970 C968 1.363 . S
C970 C971 1.370 . S
C970 C974 1.524 . S
C971 C963 1.503 . S
C971 C970 1.370 . S
C971 C972 1.403 . S
C972 C971 1.403 . S
C972 C973 1.404 . S
C972 C975 1.539 . S
C973 C969 1.408 . S
C973 C972 1.404 . S
C973 H985 0.930 . S
C974 C970 1.524 . S
C974 H986 0.956 . S
C974 H987 0.961 . S
C974 H988 0.961 . S
C975 C972 1.539 . S
C975 H989 0.958 . S
C975 H990 0.961 . S
C975 H991 0.960 . S
H976 C960 0.931 . S
H977 C965 0.929 . S
H978 C966 0.960 . S
H979 C966 0.962 . S
H980 C966 0.960 . S
H981 C967 0.961 . S
H982 C967 0.961 . S
H983 C967 0.961 . S
H984 C968 0.931 . S
H985 C973 0.930 . S
H986 C974 0.956 . S
H987 C974 0.961 . S
H988 C974 0.961 . S
H989 C975 0.958 . S
H990 C975 0.961 . S
H991 C975 0.960 . S
C992 C993 1.391 1_565 S
C992 C994 1.394 . S
C992 H1008 0.931 . S
C993 C992 1.391 1_545 S
C993 C997 1.376 . S
C994 C992 1.394 . S
C994 C995 1.369 1_565 S
C994 C998 1.531 . S
C995 C994 1.369 1_545 S
C995 C996 1.410 . S
C995 C1003 1.503 . S
C996 C995 1.410 . S
C996 C997 1.392 . S
C996 C999 1.511 . S
C997 C993 1.376 . S
C997 C996 1.392 . S
C997 H1009 0.929 . S
C998 C994 1.531 . S
C998 H1010 0.960 . S
C998 H1011 0.962 . S
C998 H1012 0.960 . S
C999 C996 1.511 . S
C999 H1013 0.961 . S
C999 H1014 0.961 . S
C999 H1015 0.961 . S
C1000 C1001 1.370 . S
C1000 C1002 1.363 . S
C1000 H1016 0.931 . S
C1001 C1000 1.370 . S
C1001 C1005 1.408 1_545 S
C1002 C1000 1.363 . S
C1002 C1003 1.370 . S
C1002 C1006 1.524 . S
C1003 C995 1.503 . S
C1003 C1002 1.370 . S
C1003 C1004 1.403 1_545 S
C1004 C1003 1.403 1_565 S
C1004 C1005 1.404 . S
C1004 C1007 1.539 . S
C1005 C1001 1.408 1_565 S
C1005 C1004 1.404 . S
C1005 H1017 0.930 . S
C1006 C1002 1.524 . S
C1006 H1018 0.956 . S
C1006 H1019 0.961 . S
C1006 H1020 0.961 . S
C1007 C1004 1.539 . S
C1007 H1021 0.958 . S
C1007 H1022 0.961 . S
C1007 H1023 0.960 . S
H1008 C992 0.931 . S
H1009 C997 0.929 . S
H1010 C998 0.960 . S
H1011 C998 0.962 . S
H1012 C998 0.960 . S
H1013 C999 0.961 . S
H1014 C999 0.961 . S
H1015 C999 0.961 . S
H1016 C1000 0.931 . S
H1017 C1005 0.930 . S
H1018 C1006 0.956 . S
H1019 C1006 0.961 . S
H1020 C1006 0.961 . S
H1021 C1007 0.958 . S
H1022 C1007 0.961 . S
H1023 C1007 0.960 . S
C1024 C1025 1.391 . S
C1024 C1026 1.394 . S
C1024 H1040 0.931 . S
C1025 C1024 1.391 . S
C1025 C1029 1.376 . S
C1026 C1024 1.394 . S
C1026 C1027 1.369 . S
C1026 C1030 1.531 . S
C1027 C1026 1.369 . S
C1027 C1028 1.410 . S
C1027 C1035 1.503 . S
C1028 C1027 1.410 . S
C1028 C1029 1.392 . S
C1028 C1031 1.511 . S
C1029 C1025 1.376 . S
C1029 C1028 1.392 . S
C1029 H1041 0.929 . S
C1030 C1026 1.531 . S
C1030 H1042 0.960 . S
C1030 H1043 0.962 . S
C1030 H1044 0.960 . S
C1031 C1028 1.511 . S
C1031 H1045 0.961 . S
C1031 H1046 0.961 . S
C1031 H1047 0.961 . S
C1032 C1033 1.370 . S
C1032 C1034 1.363 . S
C1032 H1048 0.931 . S
C1033 C1032 1.370 . S
C1033 C1037 1.408 . S
C1034 C1032 1.363 . S
C1034 C1035 1.370 . S
C1034 C1038 1.524 . S
C1035 C1027 1.503 . S
C1035 C1034 1.370 . S
C1035 C1036 1.403 . S
C1036 C1035 1.403 . S
C1036 C1037 1.404 . S
C1036 C1039 1.539 . S
C1037 C1033 1.408 . S
C1037 C1036 1.404 . S
C1037 H1049 0.930 . S
C1038 C1034 1.524 . S
C1038 H1050 0.956 . S
C1038 H1051 0.961 . S
C1038 H1052 0.961 . S
C1039 C1036 1.539 . S
C1039 H1053 0.958 . S
C1039 H1054 0.961 . S
C1039 H1055 0.960 . S
H1040 C1024 0.931 . S
H1041 C1029 0.929 . S
H1042 C1030 0.960 . S
H1043 C1030 0.962 . S
H1044 C1030 0.960 . S
H1045 C1031 0.961 . S
H1046 C1031 0.961 . S
H1047 C1031 0.961 . S
H1048 C1032 0.931 . S
H1049 C1037 0.930 . S
H1050 C1038 0.956 . S
H1051 C1038 0.961 . S
H1052 C1038 0.961 . S
H1053 C1039 0.958 . S
H1054 C1039 0.961 . S
H1055 C1039 0.960 . S
C1056 C1057 1.391 1_565 S
C1056 C1058 1.394 . S
C1056 H1072 0.931 . S
C1057 C1056 1.391 1_545 S
C1057 C1061 1.376 . S
C1058 C1056 1.394 . S
C1058 C1059 1.351 1_565 S
C1058 C1062 1.531 . S
C1059 C1058 1.351 1_545 S
C1059 C1060 1.429 . S
C1059 C1067 1.508 . S
C1060 C1059 1.429 . S
C1060 C1061 1.392 . S
C1060 C1063 1.511 . S
C1061 C1057 1.376 . S
C1061 C1060 1.392 . S
C1061 H1073 0.929 . S
C1062 C1058 1.531 . S
C1062 H1074 0.960 . S
C1062 H1075 0.962 . S
C1062 H1076 0.960 . S
C1063 C1060 1.511 . S
C1063 H1077 0.961 . S
C1063 H1078 0.961 . S
C1063 H1079 0.961 . S
C1064 C1065 1.370 . S
C1064 C1066 1.363 . S
C1064 H1080 0.931 . S
C1065 C1064 1.370 . S
C1065 C1069 1.408 1_545 S
C1066 C1064 1.363 . S
C1066 C1067 1.370 . S
C1066 C1070 1.524 . S
C1067 C1059 1.508 . S
C1067 C1066 1.370 . S
C1067 C1068 1.403 1_545 S
C1068 C1067 1.403 1_565 S
C1068 C1069 1.404 . S
C1068 C1071 1.539 . S
C1069 C1065 1.408 1_565 S
C1069 C1068 1.404 . S
C1069 H1081 0.930 . S
C1070 C1066 1.524 . S
C1070 H1082 0.956 . S
C1070 H1083 0.961 . S
C1070 H1084 0.961 . S
C1071 C1068 1.539 . S
C1071 H1085 0.958 . S
C1071 H1086 0.961 . S
C1071 H1087 0.960 . S
H1072 C1056 0.931 . S
H1073 C1061 0.929 . S
H1074 C1062 0.960 . S
H1075 C1062 0.962 . S
H1076 C1062 0.960 . S
H1077 C1063 0.961 . S
H1078 C1063 0.961 . S
H1079 C1063 0.961 . S
H1080 C1064 0.931 . S
H1081 C1069 0.930 . S
H1082 C1070 0.956 . S
H1083 C1070 0.961 . S
H1084 C1070 0.961 . S
H1085 C1071 0.958 . S
H1086 C1071 0.961 . S
H1087 C1071 0.960 . S
C1088 C1089 1.391 . S
C1088 C1090 1.394 . S
C1088 H1104 0.931 . S
C1089 C1088 1.391 . S
C1089 C1093 1.376 . S
C1090 C1088 1.394 . S
C1090 C1091 1.369 . S
C1090 C1094 1.531 . S
C1091 C1090 1.369 . S
C1091 C1092 1.410 . S
C1091 C1099 1.503 . S
C1092 C1091 1.410 . S
C1092 C1093 1.392 . S
C1092 C1095 1.511 . S
C1093 C1089 1.376 . S
C1093 C1092 1.392 . S
C1093 H1105 0.929 . S
C1094 C1090 1.531 . S
C1094 H1106 0.960 . S
C1094 H1107 0.962 . S
C1094 H1108 0.960 . S
C1095 C1092 1.511 . S
C1095 H1109 0.961 . S
C1095 H1110 0.961 . S
C1095 H1111 0.961 . S
C1096 C1097 1.370 . S
C1096 C1098 1.363 . S
C1096 H1112 0.931 . S
C1097 C1096 1.370 . S
C1097 C1101 1.408 . S
C1098 C1096 1.363 . S
C1098 C1099 1.370 . S
C1098 C1102 1.524 . S
C1099 C1091 1.503 . S
C1099 C1098 1.370 . S
C1099 C1100 1.403 . S
C1100 C1099 1.403 . S
C1100 C1101 1.404 . S
C1100 C1103 1.539 . S
C1101 C1097 1.408 . S
C1101 C1100 1.404 . S
C1101 H1113 0.930 . S
C1102 C1098 1.524 . S
C1102 H1114 0.956 . S
C1102 H1115 0.961 . S
C1102 H1116 0.961 . S
C1103 C1100 1.539 . S
C1103 H1117 0.958 . S
C1103 H1118 0.961 . S
C1103 H1119 0.960 . S
H1104 C1088 0.931 . S
H1105 C1093 0.929 . S
H1106 C1094 0.960 . S
H1107 C1094 0.962 . S
H1108 C1094 0.960 . S
H1109 C1095 0.961 . S
H1110 C1095 0.961 . S
H1111 C1095 0.961 . S
H1112 C1096 0.931 . S
H1113 C1101 0.930 . S
H1114 C1102 0.956 . S
H1115 C1102 0.961 . S
H1116 C1102 0.961 . S
H1117 C1103 0.958 . S
H1118 C1103 0.961 . S
H1119 C1103 0.960 . S
C1120 C1121 1.391 . S
C1120 C1122 1.394 . S
C1120 H1136 0.931 . S
C1121 C1120 1.391 . S
C1121 C1125 1.376 1_545 S
C1122 C1120 1.394 . S
C1122 C1123 1.369 . S
C1122 C1126 1.531 . S
C1123 C1122 1.369 . S
C1123 C1124 1.410 1_545 S
C1123 C1131 1.503 . S
C1124 C1123 1.410 1_565 S
C1124 C1125 1.392 . S
C1124 C1127 1.511 . S
C1125 C1121 1.376 1_565 S
C1125 C1124 1.392 . S
C1125 H1137 0.929 . S
C1126 C1122 1.531 . S
C1126 H1138 0.960 . S
C1126 H1139 0.962 . S
C1126 H1140 0.960 . S
C1127 C1124 1.511 . S
C1127 H1141 0.961 . S
C1127 H1142 0.961 . S
C1127 H1143 0.961 . S
C1128 C1129 1.370 . S
C1128 C1130 1.363 . S
C1128 H1144 0.931 . S
C1129 C1128 1.370 . S
C1129 C1133 1.408 1_565 S
C1130 C1128 1.363 . S
C1130 C1131 1.370 1_565 S
C1130 C1134 1.524 . S
C1131 C1123 1.503 . S
C1131 C1130 1.370 1_545 S
C1131 C1132 1.403 . S
C1132 C1131 1.403 . S
C1132 C1133 1.404 . S
C1132 C1135 1.539 . S
C1133 C1129 1.408 1_545 S
C1133 C1132 1.404 . S
C1133 H1145 0.930 . S
C1134 C1130 1.524 . S
C1134 H1146 0.956 . S
C1134 H1147 0.961 . S
C1134 H1148 0.961 . S
C1135 C1132 1.539 . S
C1135 H1149 0.958 . S
C1135 H1150 0.961 . S
C1135 H1151 0.960 . S
H1136 C1120 0.931 . S
H1137 C1125 0.929 . S
H1138 C1126 0.960 . S
H1139 C1126 0.962 . S
H1140 C1126 0.960 . S
H1141 C1127 0.961 . S
H1142 C1127 0.961 . S
H1143 C1127 0.961 . S
H1144 C1128 0.931 . S
H1145 C1133 0.930 . S
H1146 C1134 0.956 . S
H1147 C1134 0.961 . S
H1148 C1134 0.961 . S
H1149 C1135 0.958 . S
H1150 C1135 0.961 . S
H1151 C1135 0.960 . S
C1152 C1153 1.391 . S
C1152 C1154 1.394 . S
C1152 H1168 0.931 . S
C1153 C1152 1.391 . S
C1153 C1157 1.376 . S
C1154 C1152 1.394 . S
C1154 C1155 1.369 . S
C1154 C1158 1.531 . S
C1155 C1154 1.369 . S
C1155 C1156 1.410 . S
C1155 C1163 1.503 . S
C1156 C1155 1.410 . S
C1156 C1157 1.392 . S
C1156 C1159 1.511 . S
C1157 C1153 1.376 . S
C1157 C1156 1.392 . S
C1157 H1169 0.929 . S
C1158 C1154 1.531 . S
C1158 H1170 0.960 . S
C1158 H1171 0.962 . S
C1158 H1172 0.960 . S
C1159 C1156 1.511 . S
C1159 H1173 0.961 . S
C1159 H1174 0.961 . S
C1159 H1175 0.961 . S
C1160 C1161 1.370 . S
C1160 C1162 1.363 . S
C1160 H1176 0.931 . S
C1161 C1160 1.370 . S
C1161 C1165 1.408 . S
C1162 C1160 1.363 . S
C1162 C1163 1.370 . S
C1162 C1166 1.524 . S
C1163 C1155 1.503 . S
C1163 C1162 1.370 . S
C1163 C1164 1.403 . S
C1164 C1163 1.403 . S
C1164 C1165 1.404 . S
C1164 C1167 1.539 . S
C1165 C1161 1.408 . S
C1165 C1164 1.404 . S
C1165 H1177 0.930 . S
C1166 C1162 1.524 . S
C1166 H1178 0.956 . S
C1166 H1179 0.961 . S
C1166 H1180 0.961 . S
C1167 C1164 1.539 . S
C1167 H1181 0.958 . S
C1167 H1182 0.961 . S
C1167 H1183 0.960 . S
H1168 C1152 0.931 . S
H1169 C1157 0.929 . S
H1170 C1158 0.960 . S
H1171 C1158 0.962 . S
H1172 C1158 0.960 . S
H1173 C1159 0.961 . S
H1174 C1159 0.961 . S
H1175 C1159 0.961 . S
H1176 C1160 0.931 . S
H1177 C1165 0.930 . S
H1178 C1166 0.956 . S
H1179 C1166 0.961 . S
H1180 C1166 0.961 . S
H1181 C1167 0.958 . S
H1182 C1167 0.961 . S
H1183 C1167 0.960 . S
C1184 C1185 1.391 1_556 S
C1184 C1186 1.394 . S
C1184 H1200 0.931 . S
C1185 C1184 1.391 1_554 S
C1185 C1189 1.376 . S
C1186 C1184 1.394 . S
C1186 C1187 1.369 1_556 S
C1186 C1190 1.531 . S
C1187 C1186 1.369 1_554 S
C1187 C1188 1.410 . S
C1187 C1195 1.503 . S
C1188 C1187 1.410 . S
C1188 C1189 1.392 . S
C1188 C1191 1.511 . S
C1189 C1185 1.376 . S
C1189 C1188 1.392 . S
C1189 H1201 0.929 . S
C1190 C1186 1.531 . S
C1190 H1202 0.960 . S
C1190 H1203 0.962 . S
C1190 H1204 0.960 . S
C1191 C1188 1.511 . S
C1191 H1205 0.961 . S
C1191 H1206 0.961 . S
C1191 H1207 0.961 . S
C1192 C1193 1.370 . S
C1192 C1194 1.363 . S
C1192 H1208 0.931 . S
C1193 C1192 1.370 . S
C1193 C1197 1.408 1_556 S
C1194 C1192 1.363 . S
C1194 C1195 1.370 1_556 S
C1194 C1198 1.524 . S
C1195 C1187 1.503 . S
C1195 C1194 1.370 1_554 S
C1195 C1196 1.403 . S
C1196 C1195 1.403 . S
C1196 C1197 1.404 . S
C1196 C1199 1.539 . S
C1197 C1193 1.408 1_554 S
C1197 C1196 1.404 . S
C1197 H1209 0.930 . S
C1198 C1194 1.524 . S
C1198 H1210 0.956 . S
C1198 H1211 0.961 . S
C1198 H1212 0.961 . S
C1199 C1196 1.539 . S
C1199 H1213 0.958 . S
C1199 H1214 0.961 . S
C1199 H1215 0.960 . S
H1200 C1184 0.931 . S
H1201 C1189 0.929 . S
H1202 C1190 0.960 . S
H1203 C1190 0.962 . S
H1204 C1190 0.960 . S
H1205 C1191 0.961 . S
H1206 C1191 0.961 . S
H1207 C1191 0.961 . S
H1208 C1192 0.931 . S
H1209 C1197 0.930 . S
H1210 C1198 0.956 . S
H1211 C1198 0.961 . S
H1212 C1198 0.961 . S
H1213 C1199 0.958 . S
H1214 C1199 0.961 . S
H1215 C1199 0.960 . S
C1216 C1217 1.391 . S
C1216 C1218 1.394 . S
C1216 H1232 0.931 . S
C1217 C1216 1.391 . S
C1217 C1221 1.376 1_554 S
C1218 C1216 1.394 . S
C1218 C1219 1.369 . S
C1218 C1222 1.531 . S
C1219 C1218 1.369 . S
C1219 C1220 1.410 1_554 S
C1219 C1227 1.503 . S
C1220 C1219 1.410 1_556 S
C1220 C1221 1.392 . S
C1220 C1223 1.511 . S
C1221 C1217 1.376 1_556 S
C1221 C1220 1.392 . S
C1221 H1233 0.929 . S
C1222 C1218 1.531 . S
C1222 H1234 0.960 . S
C1222 H1235 0.962 . S
C1222 H1236 0.960 . S
C1223 C1220 1.511 . S
C1223 H1237 0.961 . S
C1223 H1238 0.961 . S
C1223 H1239 0.961 . S
C1224 C1225 1.370 . S
C1224 C1226 1.363 . S
C1224 H1240 0.931 . S
C1225 C1224 1.370 . S
C1225 C1229 1.408 . S
C1226 C1224 1.363 . S
C1226 C1227 1.370 . S
C1226 C1230 1.524 . S
C1227 C1219 1.503 . S
C1227 C1226 1.370 . S
C1227 C1228 1.403 . S
C1228 C1227 1.403 . S
C1228 C1229 1.404 . S
C1228 C1231 1.539 . S
C1229 C1225 1.408 . S
C1229 C1228 1.404 . S
C1229 H1241 0.930 . S
C1230 C1226 1.524 . S
C1230 H1242 0.956 . S
C1230 H1243 0.962 . S
C1230 H1244 0.961 . S
C1231 C1228 1.539 . S
C1231 H1245 0.958 . S
C1231 H1246 0.961 1_554 S
C1231 H1247 0.960 1_554 S
H1232 C1216 0.931 . S
H1233 C1221 0.929 . S
H1234 C1222 0.960 . S
H1235 C1222 0.962 . S
H1236 C1222 0.960 . S
H1237 C1223 0.961 . S
H1238 C1223 0.961 . S
H1239 C1223 0.961 . S
H1240 C1224 0.931 . S
H1241 C1229 0.930 . S
H1242 C1230 0.956 . S
H1243 C1230 0.962 . S
H1244 C1230 0.961 . S
H1245 C1231 0.958 . S
H1246 C1231 0.961 1_556 S
H1247 C1231 0.960 1_556 S
C1248 C1249 1.391 . S
C1248 C1250 1.394 . S
C1248 H1264 0.931 . S
C1249 C1248 1.391 . S
C1249 C1253 1.376 . S
C1250 C1248 1.394 . S
C1250 C1251 1.369 . S
C1250 C1254 1.531 . S
C1251 C1250 1.369 . S
C1251 C1252 1.410 . S
C1251 C1259 1.503 . S
C1252 C1251 1.410 . S
C1252 C1253 1.392 . S
C1252 C1255 1.511 . S
C1253 C1249 1.376 . S
C1253 C1252 1.392 . S
C1253 H1265 0.929 . S
C1254 C1250 1.531 . S
C1254 H1266 0.960 . S
C1254 H1267 0.962 . S
C1254 H1268 0.960 . S
C1255 C1252 1.511 . S
C1255 H1269 0.961 . S
C1255 H1270 0.961 . S
C1255 H1271 0.961 . S
C1256 C1257 1.370 . S
C1256 C1258 1.363 . S
C1256 H1272 0.931 . S
C1257 C1256 1.370 . S
C1257 C1261 1.408 . S
C1258 C1256 1.363 . S
C1258 C1259 1.370 . S
C1258 C1262 1.524 . S
C1259 C1251 1.503 . S
C1259 C1258 1.370 . S
C1259 C1260 1.403 . S
C1260 C1259 1.403 . S
C1260 C1261 1.404 . S
C1260 C1263 1.539 . S
C1261 C1257 1.408 . S
C1261 C1260 1.404 . S
C1261 H1273 0.930 . S
C1262 C1258 1.524 . S
C1262 H1274 0.956 . S
C1262 H1275 0.961 . S
C1262 H1276 0.961 . S
C1263 C1260 1.539 . S
C1263 H1277 0.958 . S
C1263 H1278 0.961 . S
C1263 H1279 0.960 . S
H1264 C1248 0.931 . S
H1265 C1253 0.929 . S
H1266 C1254 0.960 . S
H1267 C1254 0.962 . S
H1268 C1254 0.960 . S
H1269 C1255 0.961 . S
H1270 C1255 0.961 . S
H1271 C1255 0.961 . S
H1272 C1256 0.931 . S
H1273 C1261 0.930 . S
H1274 C1262 0.956 . S
H1275 C1262 0.961 . S
H1276 C1262 0.961 . S
H1277 C1263 0.958 . S
H1278 C1263 0.961 . S
H1279 C1263 0.960 . S
C1280 C1281 1.391 . S
C1280 C1282 1.394 . S
C1280 H1296 0.931 . S
C1281 C1280 1.391 . S
C1281 C1285 1.376 . S
C1282 C1280 1.394 . S
C1282 C1283 1.369 . S
C1282 C1286 1.531 . S
C1283 C1282 1.369 . S
C1283 C1284 1.410 . S
C1283 C1291 1.503 . S
C1284 C1283 1.410 . S
C1284 C1285 1.392 . S
C1284 C1287 1.511 . S
C1285 C1281 1.376 . S
C1285 C1284 1.392 . S
C1285 H1297 0.929 . S
C1286 C1282 1.531 . S
C1286 H1298 0.960 . S
C1286 H1299 0.962 . S
C1286 H1300 0.960 . S
C1287 C1284 1.511 . S
C1287 H1301 0.961 . S
C1287 H1302 0.961 . S
C1287 H1303 0.961 . S
C1288 C1289 1.370 . S
C1288 C1290 1.363 . S
C1288 H1304 0.931 . S
C1289 C1288 1.370 . S
C1289 C1293 1.408 . S
C1290 C1288 1.363 . S
C1290 C1291 1.370 . S
C1290 C1294 1.524 . S
C1291 C1283 1.503 . S
C1291 C1290 1.370 . S
C1291 C1292 1.403 . S
C1292 C1291 1.403 . S
C1292 C1293 1.404 . S
C1292 C1295 1.539 . S
C1293 C1289 1.408 . S
C1293 C1292 1.404 . S
C1293 H1305 0.930 . S
C1294 C1290 1.524 . S
C1294 H1306 0.956 . S
C1294 H1307 0.961 . S
C1294 H1308 0.961 . S
C1295 C1292 1.539 . S
C1295 H1309 0.958 . S
C1295 H1310 0.961 . S
C1295 H1311 0.960 . S
H1296 C1280 0.931 . S
H1297 C1285 0.929 . S
H1298 C1286 0.960 . S
H1299 C1286 0.962 . S
H1300 C1286 0.960 . S
H1301 C1287 0.961 . S
H1302 C1287 0.961 . S
H1303 C1287 0.961 . S
H1304 C1288 0.931 . S
H1305 C1293 0.930 . S
H1306 C1294 0.956 . S
H1307 C1294 0.961 . S
H1308 C1294 0.961 . S
H1309 C1295 0.958 . S
H1310 C1295 0.961 . S
H1311 C1295 0.960 . S
C1312 C1313 1.391 . S
C1312 C1314 1.394 . S
C1312 H1328 0.931 . S
C1313 C1312 1.391 . S
C1313 C1317 1.376 . S
C1314 C1312 1.394 . S
C1314 C1315 1.369 . S
C1314 C1318 1.531 . S
C1315 C1314 1.369 . S
C1315 C1316 1.410 . S
C1315 C1323 1.503 . S
C1316 C1315 1.410 . S
C1316 C1317 1.392 . S
C1316 C1319 1.511 . S
C1317 C1313 1.376 . S
C1317 C1316 1.392 . S
C1317 H1329 0.929 . S
C1318 C1314 1.531 . S
C1318 H1330 0.960 . S
C1318 H1331 0.962 . S
C1318 H1332 0.960 . S
C1319 C1316 1.511 . S
C1319 H1333 0.961 . S
C1319 H1334 0.961 . S
C1319 H1335 0.961 . S
C1320 C1321 1.370 . S
C1320 C1322 1.363 . S
C1320 H1336 0.931 . S
C1321 C1320 1.370 . S
C1321 C1325 1.408 . S
C1322 C1320 1.363 . S
C1322 C1323 1.370 . S
C1322 C1326 1.524 . S
C1323 C1315 1.503 . S
C1323 C1322 1.370 . S
C1323 C1324 1.403 . S
C1324 C1323 1.403 . S
C1324 C1325 1.404 . S
C1324 C1327 1.539 . S
C1325 C1321 1.408 . S
C1325 C1324 1.404 . S
C1325 H1337 0.930 . S
C1326 C1322 1.524 . S
C1326 H1338 0.956 . S
C1326 H1339 0.961 . S
C1326 H1340 0.961 . S
C1327 C1324 1.539 . S
C1327 H1341 0.958 . S
C1327 H1342 0.961 . S
C1327 H1343 0.960 . S
H1328 C1312 0.931 . S
H1329 C1317 0.929 . S
H1330 C1318 0.960 . S
H1331 C1318 0.962 . S
H1332 C1318 0.960 . S
H1333 C1319 0.961 . S
H1334 C1319 0.961 . S
H1335 C1319 0.961 . S
H1336 C1320 0.931 . S
H1337 C1325 0.930 . S
H1338 C1326 0.956 . S
H1339 C1326 0.961 . S
H1340 C1326 0.961 . S
H1341 C1327 0.958 . S
H1342 C1327 0.961 . S
H1343 C1327 0.960 . S
C1344 C1345 1.391 . S
C1344 C1346 1.394 . S
C1344 H1360 0.931 . S
C1345 C1344 1.391 . S
C1345 C1349 1.376 . S
C1346 C1344 1.394 . S
C1346 C1347 1.369 . S
C1346 C1350 1.531 . S
C1347 C1346 1.369 . S
C1347 C1348 1.410 . S
C1347 C1355 1.503 . S
C1348 C1347 1.410 . S
C1348 C1349 1.392 . S
C1348 C1351 1.511 . S
C1349 C1345 1.376 . S
C1349 C1348 1.392 . S
C1349 H1361 0.929 . S
C1350 C1346 1.531 . S
C1350 H1362 0.960 . S
C1350 H1363 0.962 . S
C1350 H1364 0.960 . S
C1351 C1348 1.511 . S
C1351 H1365 0.961 . S
C1351 H1366 0.961 . S
C1351 H1367 0.961 . S
C1352 C1353 1.370 . S
C1352 C1354 1.363 . S
C1352 H1368 0.931 . S
C1353 C1352 1.370 . S
C1353 C1357 1.408 . S
C1354 C1352 1.363 . S
C1354 C1355 1.370 . S
C1354 C1358 1.524 . S
C1355 C1347 1.503 . S
C1355 C1354 1.370 . S
C1355 C1356 1.403 . S
C1356 C1355 1.403 . S
C1356 C1357 1.404 . S
C1356 C1359 1.539 . S
C1357 C1353 1.408 . S
C1357 C1356 1.404 . S
C1357 H1369 0.924 1_565 S
C1358 C1354 1.524 . S
C1358 H1370 0.956 . S
C1358 H1371 0.961 . S
C1358 H1372 0.961 . S
C1359 C1356 1.539 . S
C1359 H1373 0.958 . S
C1359 H1374 0.961 1_565 S
C1359 H1375 0.960 . S
H1360 C1344 0.931 . S
H1361 C1349 0.929 . S
H1362 C1350 0.960 . S
H1363 C1350 0.962 . S
H1364 C1350 0.960 . S
H1365 C1351 0.961 . S
H1366 C1351 0.961 . S
H1367 C1351 0.961 . S
H1368 C1352 0.931 . S
H1369 C1357 0.924 1_545 S
H1370 C1358 0.956 . S
H1371 C1358 0.961 . S
H1372 C1358 0.961 . S
H1373 C1359 0.958 . S
H1374 C1359 0.961 1_545 S
H1375 C1359 0.960 . S
C1376 C1377 1.391 . S
C1376 C1378 1.394 . S
C1376 H1392 0.931 . S
C1377 C1376 1.391 . S
C1377 C1381 1.376 . S
C1378 C1376 1.394 . S
C1378 C1379 1.369 . S
C1378 C1382 1.531 . S
C1379 C1378 1.369 . S
C1379 C1380 1.410 . S
C1379 C1387 1.503 . S
C1380 C1379 1.410 . S
C1380 C1381 1.392 . S
C1380 C1383 1.511 . S
C1381 C1377 1.376 . S
C1381 C1380 1.392 . S
C1381 H1393 0.929 . S
C1382 C1378 1.531 . S
C1382 H1394 0.960 . S
C1382 H1395 0.962 . S
C1382 H1396 0.960 . S
C1383 C1380 1.511 . S
C1383 H1397 0.961 . S
C1383 H1398 0.961 . S
C1383 H1399 0.961 . S
C1384 C1385 1.370 . S
C1384 C1386 1.363 . S
C1384 H1400 0.931 . S
C1385 C1384 1.370 . S
C1385 C1389 1.408 . S
C1386 C1384 1.363 . S
C1386 C1387 1.370 . S
C1386 C1390 1.524 . S
C1387 C1379 1.503 . S
C1387 C1386 1.370 . S
C1387 C1388 1.403 . S
C1388 C1387 1.403 . S
C1388 C1389 1.404 . S
C1388 C1391 1.539 . S
C1389 C1385 1.408 . S
C1389 C1388 1.404 . S
C1389 H1401 0.930 . S
C1390 C1386 1.524 . S
C1390 H1402 0.956 . S
C1390 H1403 0.961 . S
C1390 H1404 0.961 . S
C1391 C1388 1.539 . S
C1391 H1405 0.958 . S
C1391 H1406 0.961 . S
C1391 H1407 0.960 . S
H1392 C1376 0.931 . S
H1393 C1381 0.929 . S
H1394 C1382 0.960 . S
H1395 C1382 0.962 . S
H1396 C1382 0.960 . S
H1397 C1383 0.961 . S
H1398 C1383 0.961 . S
H1399 C1383 0.961 . S
H1400 C1384 0.931 . S
H1401 C1389 0.930 . S
H1402 C1390 0.956 . S
H1403 C1390 0.961 . S
H1404 C1390 0.961 . S
H1405 C1391 0.958 . S
H1406 C1391 0.961 . S
H1407 C1391 0.960 . S
C1408 C1409 1.391 . S
C1408 C1410 1.394 . S
C1408 H1424 0.931 . S
C1409 C1408 1.391 . S
C1409 C1413 1.376 . S
C1410 C1408 1.394 . S
C1410 C1411 1.369 . S
C1410 C1414 1.531 . S
C1411 C1410 1.369 . S
C1411 C1412 1.410 . S
C1411 C1419 1.503 . S
C1412 C1411 1.410 . S
C1412 C1413 1.392 . S
C1412 C1415 1.511 . S
C1413 C1409 1.376 . S
C1413 C1412 1.392 . S
C1413 H1425 0.929 . S
C1414 C1410 1.531 . S
C1414 H1426 0.960 . S
C1414 H1427 0.962 . S
C1414 H1428 0.960 . S
C1415 C1412 1.511 . S
C1415 H1429 0.961 . S
C1415 H1430 0.961 . S
C1415 H1431 0.961 . S
C1416 C1417 1.370 . S
C1416 C1418 1.363 . S
C1416 H1432 0.931 . S
C1417 C1416 1.370 . S
C1417 C1421 1.408 . S
C1418 C1416 1.363 . S
C1418 C1419 1.370 . S
C1418 C1422 1.524 . S
C1419 C1411 1.503 . S
C1419 C1418 1.370 . S
C1419 C1420 1.403 . S
C1420 C1419 1.403 . S
C1420 C1421 1.404 . S
C1420 C1423 1.539 . S
C1421 C1417 1.408 . S
C1421 C1420 1.404 . S
C1421 H1433 0.930 . S
C1422 C1418 1.524 . S
C1422 H1434 0.956 . S
C1422 H1435 0.961 . S
C1422 H1436 0.961 . S
C1423 C1420 1.539 . S
C1423 H1437 0.958 . S
C1423 H1438 0.961 . S
C1423 H1439 0.960 . S
H1424 C1408 0.931 . S
H1425 C1413 0.929 . S
H1426 C1414 0.960 . S
H1427 C1414 0.962 . S
H1428 C1414 0.960 . S
H1429 C1415 0.961 . S
H1430 C1415 0.961 . S
H1431 C1415 0.961 . S
H1432 C1416 0.931 . S
H1433 C1421 0.930 . S
H1434 C1422 0.956 . S
H1435 C1422 0.961 . S
H1436 C1422 0.961 . S
H1437 C1423 0.958 . S
H1438 C1423 0.961 . S
H1439 C1423 0.960 . S
C1440 C1441 1.391 . S
C1440 C1442 1.394 . S
C1440 H1456 0.931 . S
C1441 C1440 1.391 . S
C1441 C1445 1.376 1_455 S
C1442 C1440 1.394 . S
C1442 C1443 1.369 . S
C1442 C1446 1.531 . S
C1443 C1442 1.369 . S
C1443 C1444 1.410 1_455 S
C1443 C1451 1.503 . S
C1444 C1443 1.410 1_655 S
C1444 C1445 1.392 . S
C1444 C1447 1.511 . S
C1445 C1441 1.376 1_655 S
C1445 C1444 1.392 . S
C1445 H1457 0.929 . S
C1446 C1442 1.531 . S
C1446 H1458 0.960 . S
C1446 H1459 0.962 . S
C1446 H1460 0.960 . S
C1447 C1444 1.511 . S
C1447 H1461 0.961 . S
C1447 H1462 0.961 . S
C1447 H1463 0.961 . S
C1448 C1449 1.370 . S
C1448 C1450 1.363 . S
C1448 H1464 0.931 . S
C1449 C1448 1.370 . S
C1449 C1453 1.408 . S
C1450 C1448 1.363 . S
C1450 C1451 1.370 . S
C1450 C1454 1.524 . S
C1451 C1443 1.503 . S
C1451 C1450 1.370 . S
C1451 C1452 1.403 . S
C1452 C1451 1.403 . S
C1452 C1453 1.404 . S
C1452 C1455 1.536 1_455 S
C1453 C1449 1.408 . S
C1453 C1452 1.404 . S
C1453 H1465 0.930 . S
C1454 C1450 1.524 . S
C1454 H1466 0.956 . S
C1454 H1467 0.961 . S
C1454 H1468 0.961 . S
C1455 C1452 1.536 1_655 S
C1455 H1469 0.949 1_655 S
C1455 H1470 0.968 . S
C1455 H1471 0.965 . S
H1456 C1440 0.931 . S
H1457 C1445 0.929 . S
H1458 C1446 0.960 . S
H1459 C1446 0.962 . S
H1460 C1446 0.960 . S
H1461 C1447 0.961 . S
H1462 C1447 0.961 . S
H1463 C1447 0.961 . S
H1464 C1448 0.931 . S
H1465 C1453 0.930 . S
H1466 C1454 0.956 . S
H1467 C1454 0.961 . S
H1468 C1454 0.961 . S
H1469 C1455 0.949 1_455 S
H1470 C1455 0.968 . S
H1471 C1455 0.965 . S
C1472 C1473 1.391 . S
C1472 C1474 1.394 . S
C1472 H1488 0.931 . S
C1473 C1472 1.391 . S
C1473 C1477 1.376 . S
C1474 C1472 1.394 . S
C1474 C1475 1.369 . S
C1474 C1478 1.531 . S
C1475 C1474 1.369 . S
C1475 C1476 1.410 . S
C1475 C1483 1.503 . S
C1476 C1475 1.410 . S
C1476 C1477 1.392 . S
C1476 C1479 1.511 . S
C1477 C1473 1.376 . S
C1477 C1476 1.392 . S
C1477 H1489 0.929 . S
C1478 C1474 1.531 . S
C1478 H1490 0.960 . S
C1478 H1491 0.962 . S
C1478 H1492 0.960 . S
C1479 C1476 1.511 . S
C1479 H1493 0.961 . S
C1479 H1494 0.961 . S
C1479 H1495 0.961 . S
C1480 C1481 1.370 . S
C1480 C1482 1.363 . S
C1480 H1496 0.931 . S
C1481 C1480 1.370 . S
C1481 C1485 1.408 . S
C1482 C1480 1.363 . S
C1482 C1483 1.370 . S
C1482 C1486 1.524 . S
C1483 C1475 1.503 . S
C1483 C1482 1.370 . S
C1483 C1484 1.403 . S
C1484 C1483 1.403 . S
C1484 C1485 1.404 . S
C1484 C1487 1.539 . S
C1485 C1481 1.408 . S
C1485 C1484 1.404 . S
C1485 H1497 0.930 . S
C1486 C1482 1.524 . S
C1486 H1498 0.956 . S
C1486 H1499 0.961 . S
C1486 H1500 0.961 . S
C1487 C1484 1.539 . S
C1487 H1501 0.958 . S
C1487 H1502 0.961 . S
C1487 H1503 0.960 . S
H1488 C1472 0.931 . S
H1489 C1477 0.929 . S
H1490 C1478 0.960 . S
H1491 C1478 0.962 . S
H1492 C1478 0.960 . S
H1493 C1479 0.961 . S
H1494 C1479 0.961 . S
H1495 C1479 0.961 . S
H1496 C1480 0.931 . S
H1497 C1485 0.930 . S
H1498 C1486 0.956 . S
H1499 C1486 0.961 . S
H1500 C1486 0.961 . S
H1501 C1487 0.958 . S
H1502 C1487 0.961 . S
H1503 C1487 0.960 . S
C1504 C1505 1.391 . S
C1504 C1506 1.394 . S
C1504 H1520 0.931 . S
C1505 C1504 1.391 . S
C1505 C1509 1.376 . S
C1506 C1504 1.394 . S
C1506 C1507 1.369 . S
C1506 C1510 1.531 . S
C1507 C1506 1.369 . S
C1507 C1508 1.410 . S
C1507 C1515 1.503 . S
C1508 C1507 1.410 . S
C1508 C1509 1.392 . S
C1508 C1511 1.511 . S
C1509 C1505 1.376 . S
C1509 C1508 1.392 . S
C1509 H1521 0.929 . S
C1510 C1506 1.531 . S
C1510 H1522 0.960 . S
C1510 H1523 0.962 . S
C1510 H1524 0.960 . S
C1511 C1508 1.511 . S
C1511 H1525 0.961 . S
C1511 H1526 0.961 . S
C1511 H1527 0.961 . S
C1512 C1513 1.370 . S
C1512 C1514 1.363 . S
C1512 H1528 0.931 . S
C1513 C1512 1.370 . S
C1513 C1517 1.408 . S
C1514 C1512 1.363 . S
C1514 C1515 1.370 . S
C1514 C1518 1.524 . S
C1515 C1507 1.503 . S
C1515 C1514 1.370 . S
C1515 C1516 1.403 . S
C1516 C1515 1.403 . S
C1516 C1517 1.404 . S
C1516 C1519 1.539 . S
C1517 C1513 1.408 . S
C1517 C1516 1.404 . S
C1517 H1529 0.930 . S
C1518 C1514 1.524 . S
C1518 H1530 0.956 . S
C1518 H1531 0.961 . S
C1518 H1532 0.961 . S
C1519 C1516 1.539 . S
C1519 H1533 0.958 . S
C1519 H1534 0.961 . S
C1519 H1535 0.960 . S
H1520 C1504 0.931 . S
H1521 C1509 0.929 . S
H1522 C1510 0.960 . S
H1523 C1510 0.962 . S
H1524 C1510 0.960 . S
H1525 C1511 0.961 . S
H1526 C1511 0.961 . S
H1527 C1511 0.961 . S
H1528 C1512 0.931 . S
H1529 C1517 0.930 . S
H1530 C1518 0.956 . S
H1531 C1518 0.961 . S
H1532 C1518 0.961 . S
H1533 C1519 0.958 . S
H1534 C1519 0.961 . S
H1535 C1519 0.960 . S
C1536 C1537 1.391 . S
C1536 C1538 1.394 . S
C1536 H1552 0.931 . S
C1537 C1536 1.391 . S
C1537 C1541 1.376 . S
C1538 C1536 1.394 . S
C1538 C1539 1.369 . S
C1538 C1542 1.531 . S
C1539 C1538 1.369 . S
C1539 C1540 1.410 . S
C1539 C1547 1.503 . S
C1540 C1539 1.410 . S
C1540 C1541 1.392 . S
C1540 C1543 1.511 . S
C1541 C1537 1.376 . S
C1541 C1540 1.392 . S
C1541 H1553 0.929 . S
C1542 C1538 1.531 . S
C1542 H1554 0.960 . S
C1542 H1555 0.962 . S
C1542 H1556 0.960 . S
C1543 C1540 1.511 . S
C1543 H1557 0.961 . S
C1543 H1558 0.961 . S
C1543 H1559 0.961 . S
C1544 C1545 1.370 . S
C1544 C1546 1.363 . S
C1544 H1560 0.931 . S
C1545 C1544 1.370 . S
C1545 C1549 1.408 . S
C1546 C1544 1.363 . S
C1546 C1547 1.370 . S
C1546 C1550 1.524 . S
C1547 C1539 1.503 . S
C1547 C1546 1.370 . S
C1547 C1548 1.403 . S
C1548 C1547 1.403 . S
C1548 C1549 1.404 . S
C1548 C1551 1.539 . S
C1549 C1545 1.408 . S
C1549 C1548 1.404 . S
C1549 H1561 0.930 . S
C1550 C1546 1.524 . S
C1550 H1562 0.956 . S
C1550 H1563 0.961 . S
C1550 H1564 0.961 . S
C1551 C1548 1.539 . S
C1551 H1565 0.958 . S
C1551 H1566 0.961 . S
C1551 H1567 0.960 . S
H1552 C1536 0.931 . S
H1553 C1541 0.929 . S
H1554 C1542 0.960 . S
H1555 C1542 0.962 . S
H1556 C1542 0.960 . S
H1557 C1543 0.961 . S
H1558 C1543 0.961 . S
H1559 C1543 0.961 . S
H1560 C1544 0.931 . S
H1561 C1549 0.930 . S
H1562 C1550 0.956 . S
H1563 C1550 0.961 . S
H1564 C1550 0.961 . S
H1565 C1551 0.958 . S
H1566 C1551 0.961 . S
H1567 C1551 0.960 . S
C1568 C1569 1.391 . S
C1568 C1570 1.394 . S
C1568 H1584 0.931 . S
C1569 C1568 1.391 . S
C1569 C1573 1.379 . S
C1570 C1568 1.394 . S
C1570 C1571 1.369 . S
C1570 C1574 1.531 . S
C1571 C1570 1.369 . S
C1571 C1572 1.410 . S
C1571 C1579 1.503 . S
C1572 C1571 1.410 . S
C1572 C1573 1.394 . S
C1572 C1575 1.511 1_455 S
C1573 C1569 1.379 . S
C1573 C1572 1.394 . S
C1573 H1585 0.926 1_455 S
C1574 C1570 1.531 . S
C1574 H1586 0.960 1_455 S
C1574 H1587 0.962 . S
C1574 H1588 0.960 1_455 S
C1575 C1572 1.511 1_655 S
C1575 H1589 0.956 1_655 S
C1575 H1590 0.954 1_655 S
C1575 H1591 0.972 . S
C1576 C1577 1.370 . S
C1576 C1578 1.363 . S
C1576 H1592 0.931 . S
C1577 C1576 1.370 . S
C1577 C1581 1.408 1_455 S
C1578 C1576 1.363 . S
C1578 C1579 1.370 . S
C1578 C1582 1.524 . S
C1579 C1571 1.503 . S
C1579 C1578 1.370 . S
C1579 C1580 1.403 1_455 S
C1580 C1579 1.403 1_655 S
C1580 C1581 1.404 . S
C1580 C1583 1.539 . S
C1581 C1577 1.408 1_655 S
C1581 C1580 1.404 . S
C1581 H1593 0.930 . S
C1582 C1578 1.524 . S
C1582 H1594 0.956 . S
C1582 H1595 0.961 . S
C1582 H1596 0.961 . S
C1583 C1580 1.539 . S
C1583 H1597 0.958 . S
C1583 H1598 0.961 . S
C1583 H1599 0.960 . S
H1584 C1568 0.931 . S
H1585 C1573 0.926 1_655 S
H1586 C1574 0.960 1_655 S
H1587 C1574 0.962 . S
H1588 C1574 0.960 1_655 S
H1589 C1575 0.956 1_455 S
H1590 C1575 0.954 1_455 S
H1591 C1575 0.972 . S
H1592 C1576 0.931 . S
H1593 C1581 0.930 . S
H1594 C1582 0.956 . S
H1595 C1582 0.961 . S
H1596 C1582 0.961 . S
H1597 C1583 0.958 . S
H1598 C1583 0.961 . S
H1599 C1583 0.960 . S
C1600 C1601 1.391 . S
C1600 C1602 1.394 . S
C1600 H1616 0.931 . S
C1601 C1600 1.391 . S
C1601 C1605 1.376 . S
C1602 C1600 1.394 . S
C1602 C1603 1.369 . S
C1602 C1606 1.531 . S
C1603 C1602 1.369 . S
C1603 C1604 1.410 . S
C1603 C1611 1.503 . S
C1604 C1603 1.410 . S
C1604 C1605 1.392 . S
C1604 C1607 1.511 . S
C1605 C1601 1.376 . S
C1605 C1604 1.392 . S
C1605 H1617 0.929 . S
C1606 C1602 1.531 . S
C1606 H1618 0.960 . S
C1606 H1619 0.962 . S
C1606 H1620 0.960 . S
C1607 C1604 1.511 . S
C1607 H1621 0.961 . S
C1607 H1622 0.961 . S
C1607 H1623 0.961 . S
C1608 C1609 1.370 . S
C1608 C1610 1.363 . S
C1608 H1624 0.931 . S
C1609 C1608 1.370 . S
C1609 C1613 1.408 . S
C1610 C1608 1.363 . S
C1610 C1611 1.370 . S
C1610 C1614 1.524 . S
C1611 C1603 1.503 . S
C1611 C1610 1.370 . S
C1611 C1612 1.403 . S
C1612 C1611 1.403 . S
C1612 C1613 1.404 . S
C1612 C1615 1.539 . S
C1613 C1609 1.408 . S
C1613 C1612 1.404 . S
C1613 H1625 0.930 . S
C1614 C1610 1.524 . S
C1614 H1626 0.956 . S
C1614 H1627 0.961 . S
C1614 H1628 0.961 . S
C1615 C1612 1.539 . S
C1615 H1629 0.958 . S
C1615 H1630 0.961 . S
C1615 H1631 0.960 . S
H1616 C1600 0.931 . S
H1617 C1605 0.929 . S
H1618 C1606 0.960 . S
H1619 C1606 0.962 . S
H1620 C1606 0.960 . S
H1621 C1607 0.961 . S
H1622 C1607 0.961 . S
H1623 C1607 0.961 . S
H1624 C1608 0.931 . S
H1625 C1613 0.930 . S
H1626 C1614 0.956 . S
H1627 C1614 0.961 . S
H1628 C1614 0.961 . S
H1629 C1615 0.958 . S
H1630 C1615 0.961 . S
H1631 C1615 0.960 . S
C1632 C1633 1.391 . S
C1632 C1634 1.394 . S
C1632 H1648 0.931 . S
C1633 C1632 1.391 . S
C1633 C1637 1.376 . S
C1634 C1632 1.394 . S
C1634 C1635 1.369 . S
C1634 C1638 1.531 . S
C1635 C1634 1.369 . S
C1635 C1636 1.410 . S
C1635 C1643 1.503 . S
C1636 C1635 1.410 . S
C1636 C1637 1.392 . S
C1636 C1639 1.511 . S
C1637 C1633 1.376 . S
C1637 C1636 1.392 . S
C1637 H1649 0.929 . S
C1638 C1634 1.531 . S
C1638 H1650 0.960 . S
C1638 H1651 0.962 . S
C1638 H1652 0.960 . S
C1639 C1636 1.511 . S
C1639 H1653 0.961 . S
C1639 H1654 0.961 . S
C1639 H1655 0.961 . S
C1640 C1641 1.370 . S
C1640 C1642 1.363 . S
C1640 H1656 0.931 . S
C1641 C1640 1.370 . S
C1641 C1645 1.408 . S
C1642 C1640 1.363 . S
C1642 C1643 1.370 . S
C1642 C1646 1.524 . S
C1643 C1635 1.503 . S
C1643 C1642 1.370 . S
C1643 C1644 1.403 . S
C1644 C1643 1.403 . S
C1644 C1645 1.404 . S
C1644 C1647 1.539 . S
C1645 C1641 1.408 . S
C1645 C1644 1.404 . S
C1645 H1657 0.930 . S
C1646 C1642 1.524 . S
C1646 H1658 0.956 . S
C1646 H1659 0.961 . S
C1646 H1660 0.961 . S
C1647 C1644 1.539 . S
C1647 H1661 0.958 . S
C1647 H1662 0.961 . S
C1647 H1663 0.960 . S
H1648 C1632 0.931 . S
H1649 C1637 0.929 . S
H1650 C1638 0.960 . S
H1651 C1638 0.962 . S
H1652 C1638 0.960 . S
H1653 C1639 0.961 . S
H1654 C1639 0.961 . S
H1655 C1639 0.961 . S
H1656 C1640 0.931 . S
H1657 C1645 0.930 . S
H1658 C1646 0.956 . S
H1659 C1646 0.961 . S
H1660 C1646 0.961 . S
H1661 C1647 0.958 . S
H1662 C1647 0.961 . S
H1663 C1647 0.960 . S
C1664 C1665 1.391 . S
C1664 C1666 1.394 . S
C1664 H1680 0.931 . S
C1665 C1664 1.391 . S
C1665 C1669 1.376 . S
C1666 C1664 1.394 . S
C1666 C1667 1.369 . S
C1666 C1670 1.531 . S
C1667 C1666 1.369 . S
C1667 C1668 1.410 . S
C1667 C1675 1.503 . S
C1668 C1667 1.410 . S
C1668 C1669 1.392 . S
C1668 C1671 1.511 . S
C1669 C1665 1.376 . S
C1669 C1668 1.392 . S
C1669 H1681 0.929 . S
C1670 C1666 1.531 . S
C1670 H1682 0.960 . S
C1670 H1683 0.962 . S
C1670 H1684 0.960 . S
C1671 C1668 1.511 . S
C1671 H1685 0.961 . S
C1671 H1686 0.961 . S
C1671 H1687 0.961 . S
C1672 C1673 1.370 . S
C1672 C1674 1.363 . S
C1672 H1688 0.931 . S
C1673 C1672 1.370 . S
C1673 C1677 1.408 . S
C1674 C1672 1.363 . S
C1674 C1675 1.370 . S
C1674 C1678 1.524 . S
C1675 C1667 1.503 . S
C1675 C1674 1.370 . S
C1675 C1676 1.403 . S
C1676 C1675 1.403 . S
C1676 C1677 1.404 . S
C1676 C1679 1.539 . S
C1677 C1673 1.408 . S
C1677 C1676 1.404 . S
C1677 H1689 0.930 . S
C1678 C1674 1.524 . S
C1678 H1690 0.956 . S
C1678 H1691 0.961 . S
C1678 H1692 0.961 . S
C1679 C1676 1.539 . S
C1679 H1693 0.958 . S
C1679 H1694 0.961 . S
C1679 H1695 0.960 . S
H1680 C1664 0.931 . S
H1681 C1669 0.929 . S
H1682 C1670 0.960 . S
H1683 C1670 0.962 . S
H1684 C1670 0.960 . S
H1685 C1671 0.961 . S
H1686 C1671 0.961 . S
H1687 C1671 0.961 . S
H1688 C1672 0.931 . S
H1689 C1677 0.930 . S
H1690 C1678 0.956 . S
H1691 C1678 0.961 . S
H1692 C1678 0.961 . S
H1693 C1679 0.958 . S
H1694 C1679 0.961 . S
H1695 C1679 0.960 . S
C1696 C1697 1.391 . S
C1696 C1698 1.394 . S
C1696 H1712 0.931 . S
C1697 C1696 1.391 . S
C1697 C1701 1.376 1_545 S
C1698 C1696 1.394 . S
C1698 C1699 1.369 . S
C1698 C1702 1.531 . S
C1699 C1698 1.369 . S
C1699 C1700 1.410 1_545 S
C1699 C1707 1.503 . S
C1700 C1699 1.410 1_565 S
C1700 C1701 1.392 . S
C1700 C1703 1.511 . S
C1701 C1697 1.376 1_565 S
C1701 C1700 1.392 . S
C1701 H1713 0.929 . S
C1702 C1698 1.531 . S
C1702 H1714 0.960 . S
C1702 H1715 0.962 . S
C1702 H1716 0.960 . S
C1703 C1700 1.511 . S
C1703 H1717 0.961 . S
C1703 H1718 0.961 . S
C1703 H1719 0.961 1_565 S
C1704 C1705 1.370 1_565 S
C1704 C1706 1.363 . S
C1704 H1720 0.931 . S
C1705 C1704 1.370 1_545 S
C1705 C1709 1.408 . S
C1706 C1704 1.363 . S
C1706 C1707 1.370 1_565 S
C1706 C1710 1.524 . S
C1707 C1699 1.503 . S
C1707 C1706 1.370 1_545 S
C1707 C1708 1.403 . S
C1708 C1707 1.403 . S
C1708 C1709 1.404 . S
C1708 C1711 1.539 . S
C1709 C1705 1.408 . S
C1709 C1708 1.404 . S
C1709 H1721 0.930 . S
C1710 C1706 1.524 . S
C1710 H1722 0.956 . S
C1710 H1723 0.961 . S
C1710 H1724 0.961 . S
C1711 C1708 1.539 . S
C1711 H1725 0.958 . S
C1711 H1726 0.961 . S
C1711 H1727 0.960 . S
H1712 C1696 0.931 . S
H1713 C1701 0.929 . S
H1714 C1702 0.960 . S
H1715 C1702 0.962 . S
H1716 C1702 0.960 . S
H1717 C1703 0.961 . S
H1718 C1703 0.961 . S
H1719 C1703 0.961 1_545 S
H1720 C1704 0.931 . S
H1721 C1709 0.930 . S
H1722 C1710 0.956 . S
H1723 C1710 0.961 . S
H1724 C1710 0.961 . S
H1725 C1711 0.958 . S
H1726 C1711 0.961 . S
H1727 C1711 0.960 . S
C1728 C1729 1.391 . S
C1728 C1730 1.394 . S
C1728 H1744 0.931 . S
C1729 C1728 1.391 . S
C1729 C1733 1.376 . S
C1730 C1728 1.394 . S
C1730 C1731 1.369 . S
C1730 C1734 1.531 . S
C1731 C1730 1.369 . S
C1731 C1732 1.410 . S
C1731 C1739 1.503 . S
C1732 C1731 1.410 . S
C1732 C1733 1.392 . S
C1732 C1735 1.511 . S
C1733 C1729 1.376 . S
C1733 C1732 1.392 . S
C1733 H1745 0.929 . S
C1734 C1730 1.531 . S
C1734 H1746 0.960 . S
C1734 H1747 0.962 . S
C1734 H1748 0.960 . S
C1735 C1732 1.511 . S
C1735 H1749 0.961 . S
C1735 H1750 0.961 . S
C1735 H1751 0.961 . S
C1736 C1737 1.370 . S
C1736 C1738 1.363 . S
C1736 H1752 0.931 . S
C1737 C1736 1.370 . S
C1737 C1741 1.408 . S
C1738 C1736 1.363 . S
C1738 C1739 1.370 . S
C1738 C1742 1.524 . S
C1739 C1731 1.503 . S
C1739 C1738 1.370 . S
C1739 C1740 1.403 . S
C1740 C1739 1.403 . S
C1740 C1741 1.404 . S
C1740 C1743 1.539 . S
C1741 C1737 1.408 . S
C1741 C1740 1.404 . S
C1741 H1753 0.930 . S
C1742 C1738 1.524 . S
C1742 H1754 0.956 . S
C1742 H1755 0.961 . S
C1742 H1756 0.961 . S
C1743 C1740 1.539 . S
C1743 H1757 0.958 . S
C1743 H1758 0.961 . S
C1743 H1759 0.960 . S
H1744 C1728 0.931 . S
H1745 C1733 0.929 . S
H1746 C1734 0.960 . S
H1747 C1734 0.962 . S
H1748 C1734 0.960 . S
H1749 C1735 0.961 . S
H1750 C1735 0.961 . S
H1751 C1735 0.961 . S
H1752 C1736 0.931 . S
H1753 C1741 0.930 . S
H1754 C1742 0.956 . S
H1755 C1742 0.961 . S
H1756 C1742 0.961 . S
H1757 C1743 0.958 . S
H1758 C1743 0.961 . S
H1759 C1743 0.960 . S
C1760 C1761 1.391 . S
C1760 C1762 1.394 . S
C1760 H1776 0.931 . S
C1761 C1760 1.391 . S
C1761 C1765 1.376 1_545 S
C1762 C1760 1.394 . S
C1762 C1763 1.369 . S
C1762 C1766 1.531 . S
C1763 C1762 1.369 . S
C1763 C1764 1.410 1_545 S
C1763 C1771 1.503 . S
C1764 C1763 1.410 1_565 S
C1764 C1765 1.392 . S
C1764 C1767 1.511 . S
C1765 C1761 1.376 1_565 S
C1765 C1764 1.392 . S
C1765 H1777 0.929 . S
C1766 C1762 1.531 . S
C1766 H1778 0.960 . S
C1766 H1779 0.962 . S
C1766 H1780 0.960 . S
C1767 C1764 1.511 . S
C1767 H1781 0.961 . S
C1767 H1782 0.961 . S
C1767 H1783 0.961 . S
C1768 C1769 1.386 . S
C1768 C1770 1.363 . S
C1768 H1784 0.931 . S
C1769 C1768 1.386 . S
C1769 C1773 1.388 1_565 S
C1770 C1768 1.363 . S
C1770 C1771 1.370 1_565 S
C1770 C1774 1.524 . S
C1771 C1763 1.503 . S
C1771 C1770 1.370 1_545 S
C1771 C1772 1.403 . S
C1772 C1771 1.403 . S
C1772 C1773 1.404 . S
C1772 C1775 1.539 . S
C1773 C1769 1.388 1_545 S
C1773 C1772 1.404 . S
C1773 H1785 0.930 . S
C1774 C1770 1.524 . S
C1774 H1786 0.956 . S
C1774 H1787 0.961 . S
C1774 H1788 0.961 . S
C1775 C1772 1.539 . S
C1775 H1789 0.958 . S
C1775 H1790 0.961 . S
C1775 H1791 0.960 . S
H1776 C1760 0.931 . S
H1777 C1765 0.929 . S
H1778 C1766 0.960 . S
H1779 C1766 0.962 . S
H1780 C1766 0.960 . S
H1781 C1767 0.961 . S
H1782 C1767 0.961 . S
H1783 C1767 0.961 . S
H1784 C1768 0.931 . S
H1785 C1773 0.930 . S
H1786 C1774 0.956 . S
H1787 C1774 0.961 . S
H1788 C1774 0.961 . S
H1789 C1775 0.958 . S
H1790 C1775 0.961 . S
H1791 C1775 0.960 . S
C1792 C1793 1.391 . S
C1792 C1794 1.394 . S
C1792 H1808 0.931 . S
C1793 C1792 1.391 . S
C1793 C1797 1.376 . S
C1794 C1792 1.394 . S
C1794 C1795 1.369 . S
C1794 C1798 1.531 . S
C1795 C1794 1.369 . S
C1795 C1796 1.410 . S
C1795 C1803 1.503 . S
C1796 C1795 1.410 . S
C1796 C1797 1.392 . S
C1796 C1799 1.511 . S
C1797 C1793 1.376 . S
C1797 C1796 1.392 . S
C1797 H1809 0.929 . S
C1798 C1794 1.531 . S
C1798 H1810 0.960 . S
C1798 H1811 0.962 . S
C1798 H1812 0.960 . S
C1799 C1796 1.511 . S
C1799 H1813 0.961 . S
C1799 H1814 0.961 . S
C1799 H1815 0.961 . S
C1800 C1801 1.370 . S
C1800 C1802 1.363 . S
C1800 H1816 0.931 . S
C1801 C1800 1.370 . S
C1801 C1805 1.408 . S
C1802 C1800 1.363 . S
C1802 C1803 1.370 . S
C1802 C1806 1.524 . S
C1803 C1795 1.503 . S
C1803 C1802 1.370 . S
C1803 C1804 1.403 . S
C1804 C1803 1.403 . S
C1804 C1805 1.404 . S
C1804 C1807 1.539 . S
C1805 C1801 1.408 . S
C1805 C1804 1.404 . S
C1805 H1817 0.930 . S
C1806 C1802 1.524 . S
C1806 H1818 0.956 . S
C1806 H1819 0.961 . S
C1806 H1820 0.961 . S
C1807 C1804 1.539 . S
C1807 H1821 0.958 . S
C1807 H1822 0.961 . S
C1807 H1823 0.960 . S
H1808 C1792 0.931 . S
H1809 C1797 0.929 . S
H1810 C1798 0.960 . S
H1811 C1798 0.962 . S
H1812 C1798 0.960 . S
H1813 C1799 0.961 . S
H1814 C1799 0.961 . S
H1815 C1799 0.961 . S
H1816 C1800 0.931 . S
H1817 C1805 0.930 . S
H1818 C1806 0.956 . S
H1819 C1806 0.961 . S
H1820 C1806 0.961 . S
H1821 C1807 0.958 . S
H1822 C1807 0.961 . S
H1823 C1807 0.960 . S
C1824 C1825 1.391 . S
C1824 C1826 1.394 . S
C1824 H1840 0.931 . S
C1825 C1824 1.391 . S
C1825 C1829 1.375 1_545 S
C1826 C1824 1.394 . S
C1826 C1827 1.369 . S
C1826 C1830 1.531 . S
C1827 C1826 1.369 . S
C1827 C1828 1.410 1_545 S
C1827 C1835 1.503 1_545 S
C1828 C1827 1.410 1_565 S
C1828 C1829 1.392 . S
C1828 C1831 1.511 . S
C1829 C1825 1.375 1_565 S
C1829 C1828 1.392 . S
C1829 H1841 0.931 . S
C1830 C1826 1.531 . S
C1830 H1842 0.960 . S
C1830 H1843 0.962 1_545 S
C1830 H1844 0.960 . S
C1831 C1828 1.511 . S
C1831 H1845 0.961 . S
C1831 H1846 0.961 . S
C1831 H1847 0.961 1_565 S
C1832 C1833 1.370 . S
C1832 C1834 1.363 . S
C1832 H1848 0.931 . S
C1833 C1832 1.370 . S
C1833 C1837 1.408 1_565 S
C1834 C1832 1.363 . S
C1834 C1835 1.370 . S
C1834 C1838 1.524 . S
C1835 C1827 1.503 1_565 S
C1835 C1834 1.370 . S
C1835 C1836 1.403 1_565 S
C1836 C1835 1.403 1_545 S
C1836 C1837 1.404 . S
C1836 C1839 1.539 . S
C1837 C1833 1.408 1_545 S
C1837 C1836 1.404 . S
C1837 H1849 0.930 . S
C1838 C1834 1.524 . S
C1838 H1850 0.956 . S
C1838 H1851 0.961 . S
C1838 H1852 0.961 . S
C1839 C1836 1.539 . S
C1839 H1853 0.958 . S
C1839 H1854 0.961 . S
C1839 H1855 0.960 . S
H1840 C1824 0.931 . S
H1841 C1829 0.931 . S
H1842 C1830 0.960 . S
H1843 C1830 0.962 1_565 S
H1844 C1830 0.960 . S
H1845 C1831 0.961 . S
H1846 C1831 0.961 . S
H1847 C1831 0.961 1_545 S
H1848 C1832 0.931 . S
H1849 C1837 0.930 . S
H1850 C1838 0.956 . S
H1851 C1838 0.961 . S
H1852 C1838 0.961 . S
H1853 C1839 0.958 . S
H1854 C1839 0.961 . S
H1855 C1839 0.960 . S
C1856 C1857 1.391 . S
C1856 C1858 1.394 . S
C1856 H1872 0.931 . S
C1857 C1856 1.391 . S
C1857 C1861 1.376 . S
C1858 C1856 1.394 . S
C1858 C1859 1.369 . S
C1858 C1862 1.531 . S
C1859 C1858 1.369 . S
C1859 C1860 1.410 . S
C1859 C1867 1.503 . S
C1860 C1859 1.410 . S
C1860 C1861 1.392 . S
C1860 C1863 1.511 . S
C1861 C1857 1.376 . S
C1861 C1860 1.392 . S
C1861 H1873 0.929 . S
C1862 C1858 1.531 . S
C1862 H1874 0.960 . S
C1862 H1875 0.962 . S
C1862 H1876 0.960 . S
C1863 C1860 1.511 . S
C1863 H1877 0.961 . S
C1863 H1878 0.961 . S
C1863 H1879 0.961 . S
C1864 C1865 1.370 . S
C1864 C1866 1.363 . S
C1864 H1880 0.931 . S
C1865 C1864 1.370 . S
C1865 C1869 1.408 . S
C1866 C1864 1.363 . S
C1866 C1867 1.370 . S
C1866 C1870 1.524 . S
C1867 C1859 1.503 . S
C1867 C1866 1.370 . S
C1867 C1868 1.403 . S
C1868 C1867 1.403 . S
C1868 C1869 1.404 . S
C1868 C1871 1.539 . S
C1869 C1865 1.408 . S
C1869 C1868 1.404 . S
C1869 H1881 0.930 . S
C1870 C1866 1.524 . S
C1870 H1882 0.956 . S
C1870 H1883 0.961 . S
C1870 H1884 0.961 . S
C1871 C1868 1.539 . S
C1871 H1885 0.958 . S
C1871 H1886 0.961 . S
C1871 H1887 0.960 . S
H1872 C1856 0.931 . S
H1873 C1861 0.929 . S
H1874 C1862 0.960 . S
H1875 C1862 0.962 . S
H1876 C1862 0.960 . S
H1877 C1863 0.961 . S
H1878 C1863 0.961 . S
H1879 C1863 0.961 . S
H1880 C1864 0.931 . S
H1881 C1869 0.930 . S
H1882 C1870 0.956 . S
H1883 C1870 0.961 . S
H1884 C1870 0.961 . S
H1885 C1871 0.958 . S
H1886 C1871 0.961 . S
H1887 C1871 0.960 . S
C1888 C1889 1.391 1_565 S
C1888 C1890 1.394 . S
C1888 H1904 0.931 . S
C1889 C1888 1.391 1_545 S
C1889 C1893 1.376 . S
C1890 C1888 1.394 . S
C1890 C1891 1.369 1_565 S
C1890 C1894 1.531 . S
C1891 C1890 1.369 1_545 S
C1891 C1892 1.410 . S
C1891 C1899 1.503 . S
C1892 C1891 1.410 . S
C1892 C1893 1.392 . S
C1892 C1895 1.511 . S
C1893 C1889 1.376 . S
C1893 C1892 1.392 . S
C1893 H1905 0.929 . S
C1894 C1890 1.531 . S
C1894 H1906 0.960 . S
C1894 H1907 0.962 . S
C1894 H1908 0.960 . S
C1895 C1892 1.511 . S
C1895 H1909 0.961 . S
C1895 H1910 0.961 . S
C1895 H1911 0.961 . S
C1896 C1897 1.370 . S
C1896 C1898 1.363 . S
C1896 H1912 0.931 . S
C1897 C1896 1.370 . S
C1897 C1901 1.408 1_545 S
C1898 C1896 1.363 . S
C1898 C1899 1.370 . S
C1898 C1902 1.524 . S
C1899 C1891 1.503 . S
C1899 C1898 1.370 . S
C1899 C1900 1.403 1_545 S
C1900 C1899 1.403 1_565 S
C1900 C1901 1.404 . S
C1900 C1903 1.539 . S
C1901 C1897 1.408 1_565 S
C1901 C1900 1.404 . S
C1901 H1913 0.930 . S
C1902 C1898 1.524 . S
C1902 H1914 0.956 . S
C1902 H1915 0.961 . S
C1902 H1916 0.961 . S
C1903 C1900 1.539 . S
C1903 H1917 0.958 . S
C1903 H1918 0.961 . S
C1903 H1919 0.960 . S
H1904 C1888 0.931 . S
H1905 C1893 0.929 . S
H1906 C1894 0.960 . S
H1907 C1894 0.962 . S
H1908 C1894 0.960 . S
H1909 C1895 0.961 . S
H1910 C1895 0.961 . S
H1911 C1895 0.961 . S
H1912 C1896 0.931 . S
H1913 C1901 0.930 . S
H1914 C1902 0.956 . S
H1915 C1902 0.961 . S
H1916 C1902 0.961 . S
H1917 C1903 0.958 . S
H1918 C1903 0.961 . S
H1919 C1903 0.960 . S
C1920 C1921 1.391 . S
C1920 C1922 1.394 . S
C1920 H1936 0.931 . S
C1921 C1920 1.391 . S
C1921 C1925 1.376 . S
C1922 C1920 1.394 . S
C1922 C1923 1.369 . S
C1922 C1926 1.531 . S
C1923 C1922 1.369 . S
C1923 C1924 1.410 . S
C1923 C1931 1.503 . S
C1924 C1923 1.410 . S
C1924 C1925 1.392 . S
C1924 C1927 1.511 . S
C1925 C1921 1.376 . S
C1925 C1924 1.392 . S
C1925 H1937 0.929 . S
C1926 C1922 1.531 . S
C1926 H1938 0.960 . S
C1926 H1939 0.962 . S
C1926 H1940 0.960 . S
C1927 C1924 1.511 . S
C1927 H1941 0.961 . S
C1927 H1942 0.961 . S
C1927 H1943 0.961 . S
C1928 C1929 1.370 . S
C1928 C1930 1.363 . S
C1928 H1944 0.931 . S
C1929 C1928 1.370 . S
C1929 C1933 1.408 . S
C1930 C1928 1.363 . S
C1930 C1931 1.370 . S
C1930 C1934 1.524 . S
C1931 C1923 1.503 . S
C1931 C1930 1.370 . S
C1931 C1932 1.403 . S
C1932 C1931 1.403 . S
C1932 C1933 1.404 . S
C1932 C1935 1.539 . S
C1933 C1929 1.408 . S
C1933 C1932 1.404 . S
C1933 H1945 0.930 . S
C1934 C1930 1.524 . S
C1934 H1946 0.956 . S
C1934 H1947 0.961 . S
C1934 H1948 0.961 . S
C1935 C1932 1.539 . S
C1935 H1949 0.958 . S
C1935 H1950 0.961 . S
C1935 H1951 0.960 . S
H1936 C1920 0.931 . S
H1937 C1925 0.929 . S
H1938 C1926 0.960 . S
H1939 C1926 0.962 . S
H1940 C1926 0.960 . S
H1941 C1927 0.961 . S
H1942 C1927 0.961 . S
H1943 C1927 0.961 . S
H1944 C1928 0.931 . S
H1945 C1933 0.930 . S
H1946 C1934 0.956 . S
H1947 C1934 0.961 . S
H1948 C1934 0.961 . S
H1949 C1935 0.958 . S
H1950 C1935 0.961 . S
H1951 C1935 0.960 . S
C1952 C1953 1.391 . S
C1952 C1954 1.394 . S
C1952 H1968 0.931 . S
C1953 C1952 1.391 . S
C1953 C1957 1.376 1_554 S
C1954 C1952 1.394 . S
C1954 C1955 1.369 . S
C1954 C1958 1.531 . S
C1955 C1954 1.369 . S
C1955 C1956 1.410 . S
C1955 C1963 1.503 . S
C1956 C1955 1.410 . S
C1956 C1957 1.392 1_554 S
C1956 C1959 1.511 1_554 S
C1957 C1953 1.376 1_556 S
C1957 C1956 1.392 1_556 S
C1957 H1969 0.929 . S
C1958 C1954 1.531 . S
C1958 H1970 0.960 . S
C1958 H1971 0.962 . S
C1958 H1972 0.960 . S
C1959 C1956 1.511 1_556 S
C1959 H1973 0.961 . S
C1959 H1974 0.961 . S
C1959 H1975 0.961 1_556 S
C1960 C1961 1.370 1_556 S
C1960 C1962 1.363 . S
C1960 H1976 0.931 . S
C1961 C1960 1.370 1_554 S
C1961 C1965 1.408 . S
C1962 C1960 1.363 . S
C1962 C1963 1.370 1_556 S
C1962 C1966 1.524 . S
C1963 C1955 1.503 . S
C1963 C1962 1.370 1_554 S
C1963 C1964 1.403 . S
C1964 C1963 1.403 . S
C1964 C1965 1.404 . S
C1964 C1967 1.539 . S
C1965 C1961 1.408 . S
C1965 C1964 1.404 . S
C1965 H1977 0.930 . S
C1966 C1962 1.524 . S
C1966 H1978 0.956 . S
C1966 H1979 0.961 . S
C1966 H1980 0.961 . S
C1967 C1964 1.539 . S
C1967 H1981 0.958 . S
C1967 H1982 0.961 . S
C1967 H1983 0.960 . S
H1968 C1952 0.931 . S
H1969 C1957 0.929 . S
H1970 C1958 0.960 . S
H1971 C1958 0.962 . S
H1972 C1958 0.960 . S
H1973 C1959 0.961 . S
H1974 C1959 0.961 . S
H1975 C1959 0.961 1_554 S
H1976 C1960 0.931 . S
H1977 C1965 0.930 . S
H1978 C1966 0.956 . S
H1979 C1966 0.961 . S
H1980 C1966 0.961 . S
H1981 C1967 0.958 . S
H1982 C1967 0.961 . S
H1983 C1967 0.960 . S
C1984 C1985 1.391 . S
C1984 C1986 1.394 . S
C1984 H2000 0.931 . S
C1985 C1984 1.391 . S
C1985 C1989 1.376 . S
C1986 C1984 1.394 . S
C1986 C1987 1.369 . S
C1986 C1990 1.531 . S
C1987 C1986 1.369 . S
C1987 C1988 1.410 . S
C1987 C1995 1.503 . S
C1988 C1987 1.410 . S
C1988 C1989 1.392 . S
C1988 C1991 1.511 . S
C1989 C1985 1.376 . S
C1989 C1988 1.392 . S
C1989 H2001 0.928 1_556 S
C1990 C1986 1.531 . S
C1990 H2002 0.960 . S
C1990 H2003 0.962 1_556 S
C1990 H2004 0.960 . S
C1991 C1988 1.511 . S
C1991 H2005 0.961 1_556 S
C1991 H2006 0.961 1_556 S
C1991 H2007 0.961 . S
C1992 C1993 1.370 1_554 S
C1992 C1994 1.363 . S
C1992 H2008 0.931 . S
C1993 C1992 1.370 1_556 S
C1993 C1997 1.408 . S
C1994 C1992 1.363 . S
C1994 C1995 1.370 1_554 S
C1994 C1998 1.524 . S
C1995 C1987 1.503 . S
C1995 C1994 1.370 1_556 S
C1995 C1996 1.403 . S
C1996 C1995 1.403 . S
C1996 C1997 1.404 . S
C1996 C1999 1.539 . S
C1997 C1993 1.408 . S
C1997 C1996 1.404 . S
C1997 H2009 0.930 . S
C1998 C1994 1.524 . S
C1998 H2010 0.956 . S
C1998 H2011 0.961 . S
C1998 H2012 0.961 . S
C1999 C1996 1.539 . S
C1999 H2013 0.958 . S
C1999 H2014 0.961 . S
C1999 H2015 0.960 . S
H2000 C1984 0.931 . S
H2001 C1989 0.928 1_554 S
H2002 C1990 0.960 . S
H2003 C1990 0.962 1_554 S
H2004 C1990 0.960 . S
H2005 C1991 0.961 1_554 S
H2006 C1991 0.961 1_554 S
H2007 C1991 0.961 . S
H2008 C1992 0.931 . S
H2009 C1997 0.930 . S
H2010 C1998 0.956 . S
H2011 C1998 0.961 . S
H2012 C1998 0.961 . S
H2013 C1999 0.958 . S
H2014 C1999 0.961 . S
H2015 C1999 0.960 . S
C2016 C2017 1.391 . S
C2016 C2018 1.394 . S
C2016 H2032 0.931 . S
C2017 C2016 1.391 . S
C2017 C2021 1.376 . S
C2018 C2016 1.394 . S
C2018 C2019 1.369 . S
C2018 C2022 1.531 . S
C2019 C2018 1.369 . S
C2019 C2020 1.410 . S
C2019 C2027 1.503 . S
C2020 C2019 1.410 . S
C2020 C2021 1.392 . S
C2020 C2023 1.511 . S
C2021 C2017 1.376 . S
C2021 C2020 1.392 . S
C2021 H2033 0.929 . S
C2022 C2018 1.531 . S
C2022 H2034 0.960 . S
C2022 H2035 0.962 . S
C2022 H2036 0.960 . S
C2023 C2020 1.511 . S
C2023 H2037 0.961 . S
C2023 H2038 0.961 . S
C2023 H2039 0.961 . S
C2024 C2025 1.370 . S
C2024 C2026 1.363 . S
C2024 H2040 0.931 . S
C2025 C2024 1.370 . S
C2025 C2029 1.408 . S
C2026 C2024 1.363 . S
C2026 C2027 1.370 . S
C2026 C2030 1.524 . S
C2027 C2019 1.503 . S
C2027 C2026 1.370 . S
C2027 C2028 1.403 . S
C2028 C2027 1.403 . S
C2028 C2029 1.404 . S
C2028 C2031 1.539 . S
C2029 C2025 1.408 . S
C2029 C2028 1.404 . S
C2029 H2041 0.930 . S
C2030 C2026 1.524 . S
C2030 H2042 0.956 . S
C2030 H2043 0.961 . S
C2030 H2044 0.961 . S
C2031 C2028 1.539 . S
C2031 H2045 0.958 . S
C2031 H2046 0.961 . S
C2031 H2047 0.960 . S
H2032 C2016 0.931 . S
H2033 C2021 0.929 . S
H2034 C2022 0.960 . S
H2035 C2022 0.962 . S
H2036 C2022 0.960 . S
H2037 C2023 0.961 . S
H2038 C2023 0.961 . S
H2039 C2023 0.961 . S
H2040 C2024 0.931 . S
H2041 C2029 0.930 . S
H2042 C2030 0.956 . S
H2043 C2030 0.961 . S
H2044 C2030 0.961 . S
H2045 C2031 0.958 . S
H2046 C2031 0.961 . S
H2047 C2031 0.960 . S
C2048 C2049 1.391 . S
C2048 C2050 1.394 . S
C2048 H2064 0.931 . S
C2049 C2048 1.391 . S
C2049 C2053 1.376 . S
C2050 C2048 1.394 . S
C2050 C2051 1.369 . S
C2050 C2054 1.531 . S
C2051 C2050 1.369 . S
C2051 C2052 1.410 . S
C2051 C2059 1.503 . S
C2052 C2051 1.410 . S
C2052 C2053 1.392 . S
C2052 C2055 1.511 . S
C2053 C2049 1.376 . S
C2053 C2052 1.392 . S
C2053 H2065 0.929 . S
C2054 C2050 1.531 . S
C2054 H2066 0.960 . S
C2054 H2067 0.962 . S
C2054 H2068 0.960 . S
C2055 C2052 1.511 . S
C2055 H2069 0.961 . S
C2055 H2070 0.961 . S
C2055 H2071 0.961 . S
C2056 C2057 1.370 . S
C2056 C2058 1.363 . S
C2056 H2072 0.931 . S
C2057 C2056 1.370 . S
C2057 C2061 1.408 . S
C2058 C2056 1.363 . S
C2058 C2059 1.370 . S
C2058 C2062 1.524 . S
C2059 C2051 1.503 . S
C2059 C2058 1.370 . S
C2059 C2060 1.403 . S
C2060 C2059 1.403 . S
C2060 C2061 1.404 . S
C2060 C2063 1.539 . S
C2061 C2057 1.408 . S
C2061 C2060 1.404 . S
C2061 H2073 0.930 . S
C2062 C2058 1.524 . S
C2062 H2074 0.956 . S
C2062 H2075 0.961 . S
C2062 H2076 0.961 . S
C2063 C2060 1.539 . S
C2063 H2077 0.958 . S
C2063 H2078 0.961 . S
C2063 H2079 0.960 . S
H2064 C2048 0.931 . S
H2065 C2053 0.929 . S
H2066 C2054 0.960 . S
H2067 C2054 0.962 . S
H2068 C2054 0.960 . S
H2069 C2055 0.961 . S
H2070 C2055 0.961 . S
H2071 C2055 0.961 . S
H2072 C2056 0.931 . S
H2073 C2061 0.930 . S
H2074 C2062 0.956 . S
H2075 C2062 0.961 . S
H2076 C2062 0.961 . S
H2077 C2063 0.958 . S
H2078 C2063 0.961 . S
H2079 C2063 0.960 . S
C2080 C2081 1.391 . S
C2080 C2082 1.394 . S
C2080 H2096 0.931 . S
C2081 C2080 1.391 . S
C2081 C2085 1.376 . S
C2082 C2080 1.394 . S
C2082 C2083 1.369 . S
C2082 C2086 1.531 . S
C2083 C2082 1.369 . S
C2083 C2084 1.410 . S
C2083 C2091 1.503 . S
C2084 C2083 1.410 . S
C2084 C2085 1.392 . S
C2084 C2087 1.511 . S
C2085 C2081 1.376 . S
C2085 C2084 1.392 . S
C2085 H2097 0.929 . S
C2086 C2082 1.531 . S
C2086 H2098 0.960 . S
C2086 H2099 0.962 . S
C2086 H2100 0.960 . S
C2087 C2084 1.511 . S
C2087 H2101 0.961 . S
C2087 H2102 0.961 . S
C2087 H2103 0.961 . S
C2088 C2089 1.370 . S
C2088 C2090 1.363 . S
C2088 H2104 0.931 . S
C2089 C2088 1.370 . S
C2089 C2093 1.408 . S
C2090 C2088 1.363 . S
C2090 C2091 1.370 . S
C2090 C2094 1.524 . S
C2091 C2083 1.503 . S
C2091 C2090 1.370 . S
C2091 C2092 1.403 . S
C2092 C2091 1.403 . S
C2092 C2093 1.404 . S
C2092 C2095 1.539 . S
C2093 C2089 1.408 . S
C2093 C2092 1.404 . S
C2093 H2105 0.930 . S
C2094 C2090 1.524 . S
C2094 H2106 0.956 . S
C2094 H2107 0.961 . S
C2094 H2108 0.961 . S
C2095 C2092 1.539 . S
C2095 H2109 0.958 . S
C2095 H2110 0.961 . S
C2095 H2111 0.960 . S
H2096 C2080 0.931 . S
H2097 C2085 0.929 . S
H2098 C2086 0.960 . S
H2099 C2086 0.962 . S
H2100 C2086 0.960 . S
H2101 C2087 0.961 . S
H2102 C2087 0.961 . S
H2103 C2087 0.961 . S
H2104 C2088 0.931 . S
H2105 C2093 0.930 . S
H2106 C2094 0.956 . S
H2107 C2094 0.961 . S
H2108 C2094 0.961 . S
H2109 C2095 0.958 . S
H2110 C2095 0.961 . S
H2111 C2095 0.960 . S
C2112 C2113 1.391 . S
C2112 C2114 1.394 . S
C2112 H2128 0.931 . S
C2113 C2112 1.391 . S
C2113 C2117 1.376 . S
C2114 C2112 1.394 . S
C2114 C2115 1.369 . S
C2114 C2118 1.531 . S
C2115 C2114 1.369 . S
C2115 C2116 1.410 . S
C2115 C2123 1.503 . S
C2116 C2115 1.410 . S
C2116 C2117 1.392 . S
C2116 C2119 1.511 . S
C2117 C2113 1.376 . S
C2117 C2116 1.392 . S
C2117 H2129 0.929 . S
C2118 C2114 1.531 . S
C2118 H2130 0.960 . S
C2118 H2131 0.962 . S
C2118 H2132 0.960 . S
C2119 C2116 1.511 . S
C2119 H2133 0.961 . S
C2119 H2134 0.961 . S
C2119 H2135 0.961 . S
C2120 C2121 1.370 . S
C2120 C2122 1.363 . S
C2120 H2136 0.931 . S
C2121 C2120 1.370 . S
C2121 C2125 1.408 . S
C2122 C2120 1.363 . S
C2122 C2123 1.370 . S
C2122 C2126 1.524 . S
C2123 C2115 1.503 . S
C2123 C2122 1.370 . S
C2123 C2124 1.403 . S
C2124 C2123 1.403 . S
C2124 C2125 1.404 . S
C2124 C2127 1.539 . S
C2125 C2121 1.408 . S
C2125 C2124 1.404 . S
C2125 H2137 0.930 . S
C2126 C2122 1.524 . S
C2126 H2138 0.956 . S
C2126 H2139 0.961 . S
C2126 H2140 0.961 . S
C2127 C2124 1.539 . S
C2127 H2141 0.958 . S
C2127 H2142 0.961 . S
C2127 H2143 0.960 . S
H2128 C2112 0.931 . S
H2129 C2117 0.929 . S
H2130 C2118 0.960 . S
H2131 C2118 0.962 . S
H2132 C2118 0.960 . S
H2133 C2119 0.961 . S
H2134 C2119 0.961 . S
H2135 C2119 0.961 . S
H2136 C2120 0.931 . S
H2137 C2125 0.930 . S
H2138 C2126 0.956 . S
H2139 C2126 0.961 . S
H2140 C2126 0.961 . S
H2141 C2127 0.958 . S
H2142 C2127 0.961 . S
H2143 C2127 0.960 . S
C2144 C2145 1.391 . S
C2144 C2146 1.394 . S
C2144 H2160 0.931 . S
C2145 C2144 1.391 . S
C2145 C2149 1.376 . S
C2146 C2144 1.394 . S
C2146 C2147 1.369 . S
C2146 C2150 1.531 . S
C2147 C2146 1.369 . S
C2147 C2148 1.410 . S
C2147 C2155 1.503 . S
C2148 C2147 1.410 . S
C2148 C2149 1.392 . S
C2148 C2151 1.511 . S
C2149 C2145 1.376 . S
C2149 C2148 1.392 . S
C2149 H2161 0.929 . S
C2150 C2146 1.531 . S
C2150 H2162 0.960 . S
C2150 H2163 0.962 . S
C2150 H2164 0.960 . S
C2151 C2148 1.511 . S
C2151 H2165 0.961 . S
C2151 H2166 0.961 . S
C2151 H2167 0.961 . S
C2152 C2153 1.370 . S
C2152 C2154 1.363 . S
C2152 H2168 0.931 . S
C2153 C2152 1.370 . S
C2153 C2157 1.408 . S
C2154 C2152 1.363 . S
C2154 C2155 1.370 . S
C2154 C2158 1.524 . S
C2155 C2147 1.503 . S
C2155 C2154 1.370 . S
C2155 C2156 1.403 . S
C2156 C2155 1.403 . S
C2156 C2157 1.404 . S
C2156 C2159 1.539 . S
C2157 C2153 1.408 . S
C2157 C2156 1.404 . S
C2157 H2169 0.930 . S
C2158 C2154 1.524 . S
C2158 H2170 0.956 . S
C2158 H2171 0.961 . S
C2158 H2172 0.961 . S
C2159 C2156 1.539 . S
C2159 H2173 0.958 . S
C2159 H2174 0.961 . S
C2159 H2175 0.960 . S
H2160 C2144 0.931 . S
H2161 C2149 0.929 . S
H2162 C2150 0.960 . S
H2163 C2150 0.962 . S
H2164 C2150 0.960 . S
H2165 C2151 0.961 . S
H2166 C2151 0.961 . S
H2167 C2151 0.961 . S
H2168 C2152 0.931 . S
H2169 C2157 0.930 . S
H2170 C2158 0.956 . S
H2171 C2158 0.961 . S
H2172 C2158 0.961 . S
H2173 C2159 0.958 . S
H2174 C2159 0.961 . S
H2175 C2159 0.960 . S
C2176 C2177 1.391 . S
C2176 C2178 1.394 . S
C2176 H2192 0.931 . S
C2177 C2176 1.391 . S
C2177 C2181 1.376 . S
C2178 C2176 1.394 . S
C2178 C2179 1.369 . S
C2178 C2182 1.531 . S
C2179 C2178 1.369 . S
C2179 C2180 1.410 . S
C2179 C2187 1.503 . S
C2180 C2179 1.410 . S
C2180 C2181 1.392 . S
C2180 C2183 1.511 . S
C2181 C2177 1.376 . S
C2181 C2180 1.392 . S
C2181 H2193 0.929 . S
C2182 C2178 1.531 . S
C2182 H2194 0.960 . S
C2182 H2195 0.962 . S
C2182 H2196 0.960 . S
C2183 C2180 1.511 . S
C2183 H2197 0.961 . S
C2183 H2198 0.961 . S
C2183 H2199 0.961 . S
C2184 C2185 1.370 . S
C2184 C2186 1.363 . S
C2184 H2200 0.931 . S
C2185 C2184 1.370 . S
C2185 C2189 1.408 . S
C2186 C2184 1.363 . S
C2186 C2187 1.370 . S
C2186 C2190 1.524 . S
C2187 C2179 1.503 . S
C2187 C2186 1.370 . S
C2187 C2188 1.403 . S
C2188 C2187 1.403 . S
C2188 C2189 1.404 . S
C2188 C2191 1.539 . S
C2189 C2185 1.408 . S
C2189 C2188 1.404 . S
C2189 H2201 0.930 . S
C2190 C2186 1.524 . S
C2190 H2202 0.956 . S
C2190 H2203 0.961 . S
C2190 H2204 0.961 . S
C2191 C2188 1.539 . S
C2191 H2205 0.958 . S
C2191 H2206 0.961 . S
C2191 H2207 0.960 . S
H2192 C2176 0.931 . S
H2193 C2181 0.929 . S
H2194 C2182 0.960 . S
H2195 C2182 0.962 . S
H2196 C2182 0.960 . S
H2197 C2183 0.961 . S
H2198 C2183 0.961 . S
H2199 C2183 0.961 . S
H2200 C2184 0.931 . S
H2201 C2189 0.930 . S
H2202 C2190 0.956 . S
H2203 C2190 0.961 . S
H2204 C2190 0.961 . S
H2205 C2191 0.958 . S
H2206 C2191 0.961 . S
H2207 C2191 0.960 . S
C2208 C2209 1.391 . S
C2208 C2210 1.394 . S
C2208 H2224 0.931 . S
C2209 C2208 1.391 . S
C2209 C2213 1.376 . S
C2210 C2208 1.394 . S
C2210 C2211 1.369 . S
C2210 C2214 1.531 . S
C2211 C2210 1.369 . S
C2211 C2212 1.410 . S
C2211 C2219 1.503 . S
C2212 C2211 1.410 . S
C2212 C2213 1.392 . S
C2212 C2215 1.511 . S
C2213 C2209 1.376 . S
C2213 C2212 1.392 . S
C2213 H2225 0.929 . S
C2214 C2210 1.531 . S
C2214 H2226 0.960 . S
C2214 H2227 0.962 . S
C2214 H2228 0.960 . S
C2215 C2212 1.511 . S
C2215 H2229 0.961 . S
C2215 H2230 0.961 . S
C2215 H2231 0.961 . S
C2216 C2217 1.370 . S
C2216 C2218 1.363 . S
C2216 H2232 0.931 . S
C2217 C2216 1.370 . S
C2217 C2221 1.408 . S
C2218 C2216 1.363 . S
C2218 C2219 1.370 . S
C2218 C2222 1.524 . S
C2219 C2211 1.503 . S
C2219 C2218 1.370 . S
C2219 C2220 1.403 . S
C2220 C2219 1.403 . S
C2220 C2221 1.404 . S
C2220 C2223 1.539 . S
C2221 C2217 1.408 . S
C2221 C2220 1.404 . S
C2221 H2233 0.930 . S
C2222 C2218 1.524 . S
C2222 H2234 0.956 . S
C2222 H2235 0.961 . S
C2222 H2236 0.961 . S
C2223 C2220 1.539 . S
C2223 H2237 0.958 . S
C2223 H2238 0.961 . S
C2223 H2239 0.960 . S
H2224 C2208 0.931 . S
H2225 C2213 0.929 . S
H2226 C2214 0.960 . S
H2227 C2214 0.962 . S
H2228 C2214 0.960 . S
H2229 C2215 0.961 . S
H2230 C2215 0.961 . S
H2231 C2215 0.961 . S
H2232 C2216 0.931 . S
H2233 C2221 0.930 . S
H2234 C2222 0.956 . S
H2235 C2222 0.961 . S
H2236 C2222 0.961 . S
H2237 C2223 0.958 . S
H2238 C2223 0.961 . S
H2239 C2223 0.960 . S
C2240 C2241 1.391 . S
C2240 C2242 1.394 . S
C2240 H2256 0.931 . S
C2241 C2240 1.391 . S
C2241 C2245 1.376 . S
C2242 C2240 1.394 . S
C2242 C2243 1.369 . S
C2242 C2246 1.531 . S
C2243 C2242 1.369 . S
C2243 C2244 1.410 . S
C2243 C2251 1.503 . S
C2244 C2243 1.410 . S
C2244 C2245 1.392 . S
C2244 C2247 1.511 . S
C2245 C2241 1.376 . S
C2245 C2244 1.392 . S
C2245 H2257 0.929 . S
C2246 C2242 1.531 . S
C2246 H2258 0.960 . S
C2246 H2259 0.962 . S
C2246 H2260 0.960 . S
C2247 C2244 1.511 . S
C2247 H2261 0.961 . S
C2247 H2262 0.961 . S
C2247 H2263 0.961 . S
C2248 C2249 1.370 . S
C2248 C2250 1.363 . S
C2248 H2264 0.931 . S
C2249 C2248 1.370 . S
C2249 C2253 1.408 . S
C2250 C2248 1.363 . S
C2250 C2251 1.370 . S
C2250 C2254 1.524 . S
C2251 C2243 1.503 . S
C2251 C2250 1.370 . S
C2251 C2252 1.403 . S
C2252 C2251 1.403 . S
C2252 C2253 1.404 . S
C2252 C2255 1.539 . S
C2253 C2249 1.408 . S
C2253 C2252 1.404 . S
C2253 H2265 0.930 . S
C2254 C2250 1.524 . S
C2254 H2266 0.956 . S
C2254 H2267 0.961 . S
C2254 H2268 0.961 . S
C2255 C2252 1.539 . S
C2255 H2269 0.958 . S
C2255 H2270 0.961 . S
C2255 H2271 0.960 . S
H2256 C2240 0.931 . S
H2257 C2245 0.929 . S
H2258 C2246 0.960 . S
H2259 C2246 0.962 . S
H2260 C2246 0.960 . S
H2261 C2247 0.961 . S
H2262 C2247 0.961 . S
H2263 C2247 0.961 . S
H2264 C2248 0.931 . S
H2265 C2253 0.930 . S
H2266 C2254 0.956 . S
H2267 C2254 0.961 . S
H2268 C2254 0.961 . S
H2269 C2255 0.958 . S
H2270 C2255 0.961 . S
H2271 C2255 0.960 . S
C2272 C2273 1.391 1_655 S
C2272 C2274 1.394 . S
C2272 H2288 0.931 . S
C2273 C2272 1.391 1_455 S
C2273 C2277 1.376 . S
C2274 C2272 1.394 . S
C2274 C2275 1.369 1_655 S
C2274 C2278 1.531 . S
C2275 C2274 1.369 1_455 S
C2275 C2276 1.410 . S
C2275 C2283 1.503 . S
C2276 C2275 1.410 . S
C2276 C2277 1.392 . S
C2276 C2279 1.511 . S
C2277 C2273 1.376 . S
C2277 C2276 1.392 . S
C2277 H2289 0.929 . S
C2278 C2274 1.531 . S
C2278 H2290 0.960 . S
C2278 H2291 0.962 . S
C2278 H2292 0.960 . S
C2279 C2276 1.511 . S
C2279 H2293 0.961 . S
C2279 H2294 0.961 . S
C2279 H2295 0.961 . S
C2280 C2281 1.370 . S
C2280 C2282 1.363 . S
C2280 H2296 0.941 . S
C2281 C2280 1.370 . S
C2281 C2285 1.408 . S
C2282 C2280 1.363 . S
C2282 C2283 1.370 . S
C2282 C2286 1.524 . S
C2283 C2275 1.503 . S
C2283 C2282 1.370 . S
C2283 C2284 1.403 . S
C2284 C2283 1.403 . S
C2284 C2285 1.404 . S
C2284 C2287 1.533 1_455 S
C2285 C2281 1.408 . S
C2285 C2284 1.404 . S
C2285 H2297 0.930 . S
C2286 C2282 1.524 . S
C2286 H2298 0.956 . S
C2286 H2299 0.961 . S
C2286 H2300 0.961 . S
C2287 C2284 1.533 1_655 S
C2287 H2301 0.998 . S
C2287 H2302 0.946 1_655 S
C2287 H2303 0.943 1_655 S
H2288 C2272 0.931 . S
H2289 C2277 0.929 . S
H2290 C2278 0.960 . S
H2291 C2278 0.962 . S
H2292 C2278 0.960 . S
H2293 C2279 0.961 . S
H2294 C2279 0.961 . S
H2295 C2279 0.961 . S
H2296 C2280 0.941 . S
H2297 C2285 0.930 . S
H2298 C2286 0.956 . S
H2299 C2286 0.961 . S
H2300 C2286 0.961 . S
H2301 C2287 0.998 . S
H2302 C2287 0.946 1_455 S
H2303 C2287 0.943 1_455 S
C2304 C2305 1.391 . S
C2304 C2306 1.394 . S
C2304 H2320 0.931 . S
C2305 C2304 1.391 . S
C2305 C2309 1.376 . S
C2306 C2304 1.394 . S
C2306 C2307 1.369 . S
C2306 C2310 1.531 . S
C2307 C2306 1.369 . S
C2307 C2308 1.410 . S
C2307 C2315 1.503 . S
C2308 C2307 1.410 . S
C2308 C2309 1.392 . S
C2308 C2311 1.511 . S
C2309 C2305 1.376 . S
C2309 C2308 1.392 . S
C2309 H2321 0.929 . S
C2310 C2306 1.531 . S
C2310 H2322 0.960 . S
C2310 H2323 0.962 . S
C2310 H2324 0.960 . S
C2311 C2308 1.511 . S
C2311 H2325 0.961 . S
C2311 H2326 0.961 . S
C2311 H2327 0.961 . S
C2312 C2313 1.370 . S
C2312 C2314 1.363 . S
C2312 H2328 0.931 . S
C2313 C2312 1.370 . S
C2313 C2317 1.408 . S
C2314 C2312 1.363 . S
C2314 C2315 1.370 . S
C2314 C2318 1.524 . S
C2315 C2307 1.503 . S
C2315 C2314 1.370 . S
C2315 C2316 1.403 . S
C2316 C2315 1.403 . S
C2316 C2317 1.404 . S
C2316 C2319 1.539 . S
C2317 C2313 1.408 . S
C2317 C2316 1.404 . S
C2317 H2329 0.930 . S
C2318 C2314 1.524 . S
C2318 H2330 0.956 . S
C2318 H2331 0.961 . S
C2318 H2332 0.961 . S
C2319 C2316 1.539 . S
C2319 H2333 0.958 . S
C2319 H2334 0.961 . S
C2319 H2335 0.960 . S
H2320 C2304 0.931 . S
H2321 C2309 0.929 . S
H2322 C2310 0.960 . S
H2323 C2310 0.962 . S
H2324 C2310 0.960 . S
H2325 C2311 0.961 . S
H2326 C2311 0.961 . S
H2327 C2311 0.961 . S
H2328 C2312 0.931 . S
H2329 C2317 0.930 . S
H2330 C2318 0.956 . S
H2331 C2318 0.961 . S
H2332 C2318 0.961 . S
H2333 C2319 0.958 . S
H2334 C2319 0.961 . S
H2335 C2319 0.960 . S
C2336 C2337 1.391 . S
C2336 C2338 1.394 . S
C2336 H2352 0.931 . S
C2337 C2336 1.391 . S
C2337 C2341 1.376 . S
C2338 C2336 1.394 . S
C2338 C2339 1.369 . S
C2338 C2342 1.531 . S
C2339 C2338 1.369 . S
C2339 C2340 1.410 . S
C2339 C2347 1.503 . S
C2340 C2339 1.410 . S
C2340 C2341 1.392 . S
C2340 C2343 1.511 . S
C2341 C2337 1.376 . S
C2341 C2340 1.392 . S
C2341 H2353 0.929 . S
C2342 C2338 1.531 . S
C2342 H2354 0.960 . S
C2342 H2355 0.962 . S
C2342 H2356 0.960 . S
C2343 C2340 1.511 . S
C2343 H2357 0.961 . S
C2343 H2358 0.961 . S
C2343 H2359 0.961 . S
C2344 C2345 1.370 . S
C2344 C2346 1.363 . S
C2344 H2360 0.931 . S
C2345 C2344 1.370 . S
C2345 C2349 1.408 . S
C2346 C2344 1.363 . S
C2346 C2347 1.370 . S
C2346 C2350 1.524 . S
C2347 C2339 1.503 . S
C2347 C2346 1.370 . S
C2347 C2348 1.403 . S
C2348 C2347 1.403 . S
C2348 C2349 1.404 . S
C2348 C2351 1.539 . S
C2349 C2345 1.408 . S
C2349 C2348 1.404 . S
C2349 H2361 0.949 . S
C2350 C2346 1.524 . S
C2350 H2362 0.956 . S
C2350 H2363 0.961 . S
C2350 H2364 0.961 . S
C2351 C2348 1.539 . S
C2351 H2365 0.958 . S
C2351 H2366 0.961 . S
C2351 H2367 0.960 . S
H2352 C2336 0.931 . S
H2353 C2341 0.929 . S
H2354 C2342 0.960 . S
H2355 C2342 0.962 . S
H2356 C2342 0.960 . S
H2357 C2343 0.961 . S
H2358 C2343 0.961 . S
H2359 C2343 0.961 . S
H2360 C2344 0.931 . S
H2361 C2349 0.949 . S
H2362 C2350 0.956 . S
H2363 C2350 0.961 . S
H2364 C2350 0.961 . S
H2365 C2351 0.958 . S
H2366 C2351 0.961 . S
H2367 C2351 0.960 . S
C2368 C2369 1.391 . S
C2368 C2370 1.394 . S
C2368 H2384 0.931 . S
C2369 C2368 1.391 . S
C2369 C2373 1.376 . S
C2370 C2368 1.394 . S
C2370 C2371 1.369 . S
C2370 C2374 1.531 . S
C2371 C2370 1.369 . S
C2371 C2372 1.410 . S
C2371 C2379 1.503 . S
C2372 C2371 1.410 . S
C2372 C2373 1.392 . S
C2372 C2375 1.511 . S
C2373 C2369 1.376 . S
C2373 C2372 1.392 . S
C2373 H2385 0.929 . S
C2374 C2370 1.531 . S
C2374 H2386 0.960 . S
C2374 H2387 0.962 . S
C2374 H2388 0.960 . S
C2375 C2372 1.511 . S
C2375 H2389 0.961 . S
C2375 H2390 0.961 . S
C2375 H2391 0.961 . S
C2376 C2377 1.370 . S
C2376 C2378 1.363 . S
C2376 H2392 0.931 . S
C2377 C2376 1.370 . S
C2377 C2381 1.408 . S
C2378 C2376 1.363 . S
C2378 C2379 1.370 . S
C2378 C2382 1.524 . S
C2379 C2371 1.503 . S
C2379 C2378 1.370 . S
C2379 C2380 1.403 . S
C2380 C2379 1.403 . S
C2380 C2381 1.404 . S
C2380 C2383 1.539 . S
C2381 C2377 1.408 . S
C2381 C2380 1.404 . S
C2381 H2393 0.930 . S
C2382 C2378 1.524 . S
C2382 H2394 0.956 . S
C2382 H2395 0.961 . S
C2382 H2396 0.961 . S
C2383 C2380 1.539 . S
C2383 H2397 0.958 . S
C2383 H2398 0.961 . S
C2383 H2399 0.960 . S
H2384 C2368 0.931 . S
H2385 C2373 0.929 . S
H2386 C2374 0.960 . S
H2387 C2374 0.962 . S
H2388 C2374 0.960 . S
H2389 C2375 0.961 . S
H2390 C2375 0.961 . S
H2391 C2375 0.961 . S
H2392 C2376 0.931 . S
H2393 C2381 0.930 . S
H2394 C2382 0.956 . S
H2395 C2382 0.961 . S
H2396 C2382 0.961 . S
H2397 C2383 0.958 . S
H2398 C2383 0.961 . S
H2399 C2383 0.960 . S
C2400 C2401 1.391 . S
C2400 C2402 1.394 . S
C2400 H2416 0.931 . S
C2401 C2400 1.391 . S
C2401 C2405 1.376 1_455 S
C2402 C2400 1.394 . S
C2402 C2403 1.369 . S
C2402 C2406 1.531 . S
C2403 C2402 1.369 . S
C2403 C2404 1.410 1_455 S
C2403 C2411 1.503 . S
C2404 C2403 1.410 1_655 S
C2404 C2405 1.392 . S
C2404 C2407 1.511 . S
C2405 C2401 1.376 1_655 S
C2405 C2404 1.392 . S
C2405 H2417 0.929 . S
C2406 C2402 1.531 . S
C2406 H2418 0.960 . S
C2406 H2419 0.962 . S
C2406 H2420 0.960 . S
C2407 C2404 1.511 . S
C2407 H2421 0.961 . S
C2407 H2422 0.961 . S
C2407 H2423 0.961 . S
C2408 C2409 1.370 . S
C2408 C2410 1.363 . S
C2408 H2424 0.931 . S
C2409 C2408 1.370 . S
C2409 C2413 1.408 1_455 S
C2410 C2408 1.363 . S
C2410 C2411 1.370 . S
C2410 C2414 1.524 . S
C2411 C2403 1.503 . S
C2411 C2410 1.370 . S
C2411 C2412 1.403 1_455 S
C2412 C2411 1.403 1_655 S
C2412 C2413 1.404 . S
C2412 C2415 1.539 . S
C2413 C2409 1.408 1_655 S
C2413 C2412 1.404 . S
C2413 H2425 0.930 . S
C2414 C2410 1.524 . S
C2414 H2426 0.956 . S
C2414 H2427 0.961 . S
C2414 H2428 0.961 . S
C2415 C2412 1.539 . S
C2415 H2429 0.958 . S
C2415 H2430 0.961 . S
C2415 H2431 0.960 . S
H2416 C2400 0.931 . S
H2417 C2405 0.929 . S
H2418 C2406 0.960 . S
H2419 C2406 0.962 . S
H2420 C2406 0.960 . S
H2421 C2407 0.961 . S
H2422 C2407 0.961 . S
H2423 C2407 0.961 . S
H2424 C2408 0.931 . S
H2425 C2413 0.930 . S
H2426 C2414 0.956 . S
H2427 C2414 0.961 . S
H2428 C2414 0.961 . S
H2429 C2415 0.958 . S
H2430 C2415 0.961 . S
H2431 C2415 0.960 . S
C2432 C2433 1.391 . S
C2432 C2434 1.394 . S
C2432 H2448 0.931 . S
C2433 C2432 1.391 . S
C2433 C2437 1.376 . S
C2434 C2432 1.394 . S
C2434 C2435 1.369 . S
C2434 C2438 1.531 . S
C2435 C2434 1.369 . S
C2435 C2436 1.410 . S
C2435 C2443 1.503 . S
C2436 C2435 1.410 . S
C2436 C2437 1.392 . S
C2436 C2439 1.511 . S
C2437 C2433 1.376 . S
C2437 C2436 1.392 . S
C2437 H2449 0.929 . S
C2438 C2434 1.531 . S
C2438 H2450 0.960 . S
C2438 H2451 0.962 . S
C2438 H2452 0.960 . S
C2439 C2436 1.511 . S
C2439 H2453 0.961 . S
C2439 H2454 0.961 . S
C2439 H2455 0.961 . S
C2440 C2441 1.370 . S
C2440 C2442 1.363 . S
C2440 H2456 0.931 . S
C2441 C2440 1.370 . S
C2441 C2445 1.408 . S
C2442 C2440 1.363 . S
C2442 C2443 1.370 . S
C2442 C2446 1.524 . S
C2443 C2435 1.503 . S
C2443 C2442 1.370 . S
C2443 C2444 1.403 . S
C2444 C2443 1.403 . S
C2444 C2445 1.404 . S
C2444 C2447 1.539 . S
C2445 C2441 1.408 . S
C2445 C2444 1.404 . S
C2445 H2457 0.930 . S
C2446 C2442 1.524 . S
C2446 H2458 0.956 . S
C2446 H2459 0.961 . S
C2446 H2460 0.961 . S
C2447 C2444 1.539 . S
C2447 H2461 0.958 . S
C2447 H2462 0.961 . S
C2447 H2463 0.960 . S
H2448 C2432 0.931 . S
H2449 C2437 0.929 . S
H2450 C2438 0.960 . S
H2451 C2438 0.962 . S
H2452 C2438 0.960 . S
H2453 C2439 0.961 . S
H2454 C2439 0.961 . S
H2455 C2439 0.961 . S
H2456 C2440 0.931 . S
H2457 C2445 0.930 . S
H2458 C2446 0.956 . S
H2459 C2446 0.961 . S
H2460 C2446 0.961 . S
H2461 C2447 0.958 . S
H2462 C2447 0.961 . S
H2463 C2447 0.960 . S
C2464 C2465 1.391 . S
C2464 C2466 1.394 . S
C2464 H2480 0.931 . S
C2465 C2464 1.391 . S
C2465 C2469 1.376 . S
C2466 C2464 1.394 . S
C2466 C2467 1.369 . S
C2466 C2470 1.531 . S
C2467 C2466 1.369 . S
C2467 C2468 1.410 . S
C2467 C2475 1.503 . S
C2468 C2467 1.410 . S
C2468 C2469 1.392 . S
C2468 C2471 1.511 . S
C2469 C2465 1.376 . S
C2469 C2468 1.392 . S
C2469 H2481 0.929 . S
C2470 C2466 1.531 . S
C2470 H2482 0.960 . S
C2470 H2483 0.962 . S
C2470 H2484 0.960 . S
C2471 C2468 1.511 . S
C2471 H2485 0.961 . S
C2471 H2486 0.961 . S
C2471 H2487 0.961 . S
C2472 C2473 1.370 . S
C2472 C2474 1.363 . S
C2472 H2488 0.931 . S
C2473 C2472 1.370 . S
C2473 C2477 1.408 . S
C2474 C2472 1.363 . S
C2474 C2475 1.370 . S
C2474 C2478 1.524 . S
C2475 C2467 1.503 . S
C2475 C2474 1.370 . S
C2475 C2476 1.403 . S
C2476 C2475 1.403 . S
C2476 C2477 1.404 . S
C2476 C2479 1.539 . S
C2477 C2473 1.408 . S
C2477 C2476 1.404 . S
C2477 H2489 0.930 . S
C2478 C2474 1.524 . S
C2478 H2490 0.956 . S
C2478 H2491 0.961 . S
C2478 H2492 0.961 . S
C2479 C2476 1.539 . S
C2479 H2493 0.958 . S
C2479 H2494 0.961 . S
C2479 H2495 0.960 . S
H2480 C2464 0.931 . S
H2481 C2469 0.929 . S
H2482 C2470 0.960 . S
H2483 C2470 0.962 . S
H2484 C2470 0.960 . S
H2485 C2471 0.961 . S
H2486 C2471 0.961 . S
H2487 C2471 0.961 . S
H2488 C2472 0.931 . S
H2489 C2477 0.930 . S
H2490 C2478 0.956 . S
H2491 C2478 0.961 . S
H2492 C2478 0.961 . S
H2493 C2479 0.958 . S
H2494 C2479 0.961 . S
H2495 C2479 0.960 . S
C2496 C2497 1.391 . S
C2496 C2498 1.394 . S
C2496 H2512 0.931 . S
C2497 C2496 1.391 . S
C2497 C2501 1.376 . S
C2498 C2496 1.394 . S
C2498 C2499 1.369 . S
C2498 C2502 1.531 . S
C2499 C2498 1.369 . S
C2499 C2500 1.410 . S
C2499 C2507 1.503 . S
C2500 C2499 1.410 . S
C2500 C2501 1.392 . S
C2500 C2503 1.511 . S
C2501 C2497 1.376 . S
C2501 C2500 1.392 . S
C2501 H2513 0.929 . S
C2502 C2498 1.531 . S
C2502 H2514 0.960 . S
C2502 H2515 0.962 . S
C2502 H2516 0.960 . S
C2503 C2500 1.511 . S
C2503 H2517 0.961 . S
C2503 H2518 0.961 . S
C2503 H2519 0.961 . S
C2504 C2505 1.370 . S
C2504 C2506 1.363 . S
C2504 H2520 0.931 . S
C2505 C2504 1.370 . S
C2505 C2509 1.408 . S
C2506 C2504 1.363 . S
C2506 C2507 1.370 . S
C2506 C2510 1.524 . S
C2507 C2499 1.503 . S
C2507 C2506 1.370 . S
C2507 C2508 1.403 . S
C2508 C2507 1.403 . S
C2508 C2509 1.404 . S
C2508 C2511 1.539 . S
C2509 C2505 1.408 . S
C2509 C2508 1.404 . S
C2509 H2521 0.930 . S
C2510 C2506 1.524 . S
C2510 H2522 0.956 . S
C2510 H2523 0.961 . S
C2510 H2524 0.961 . S
C2511 C2508 1.539 . S
C2511 H2525 0.958 . S
C2511 H2526 0.961 . S
C2511 H2527 0.960 . S
H2512 C2496 0.931 . S
H2513 C2501 0.929 . S
H2514 C2502 0.960 . S
H2515 C2502 0.962 . S
H2516 C2502 0.960 . S
H2517 C2503 0.961 . S
H2518 C2503 0.961 . S
H2519 C2503 0.961 . S
H2520 C2504 0.931 . S
H2521 C2509 0.930 . S
H2522 C2510 0.956 . S
H2523 C2510 0.961 . S
H2524 C2510 0.961 . S
H2525 C2511 0.958 . S
H2526 C2511 0.961 . S
H2527 C2511 0.960 . S
C2528 C2529 1.391 . S
C2528 C2530 1.394 . S
C2528 H2544 0.931 . S
C2529 C2528 1.391 . S
C2529 C2533 1.376 . S
C2530 C2528 1.394 . S
C2530 C2531 1.369 . S
C2530 C2534 1.531 . S
C2531 C2530 1.369 . S
C2531 C2532 1.410 . S
C2531 C2539 1.503 . S
C2532 C2531 1.410 . S
C2532 C2533 1.392 . S
C2532 C2535 1.511 . S
C2533 C2529 1.376 . S
C2533 C2532 1.392 . S
C2533 H2545 0.929 . S
C2534 C2530 1.531 . S
C2534 H2546 0.960 . S
C2534 H2547 0.962 . S
C2534 H2548 0.960 . S
C2535 C2532 1.511 . S
C2535 H2549 0.961 . S
C2535 H2550 0.961 . S
C2535 H2551 0.961 . S
C2536 C2537 1.370 . S
C2536 C2538 1.363 . S
C2536 H2552 0.893 1_655 S
C2537 C2536 1.370 . S
C2537 C2541 1.408 . S
C2538 C2536 1.363 . S
C2538 C2539 1.370 . S
C2538 C2542 1.524 . S
C2539 C2531 1.503 . S
C2539 C2538 1.370 . S
C2539 C2540 1.403 . S
C2540 C2539 1.403 . S
C2540 C2541 1.404 . S
C2540 C2543 1.539 . S
C2541 C2537 1.408 . S
C2541 C2540 1.404 . S
C2541 H2553 0.930 . S
C2542 C2538 1.524 . S
C2542 H2554 0.956 . S
C2542 H2555 0.961 . S
C2542 H2556 0.954 1_655 S
C2543 C2540 1.539 . S
C2543 H2557 0.958 . S
C2543 H2558 0.961 . S
C2543 H2559 0.960 . S
H2544 C2528 0.931 . S
H2545 C2533 0.929 . S
H2546 C2534 0.960 . S
H2547 C2534 0.962 . S
H2548 C2534 0.960 . S
H2549 C2535 0.961 . S
H2550 C2535 0.961 . S
H2551 C2535 0.961 . S
H2552 C2536 0.893 1_455 S
H2553 C2541 0.930 . S
H2554 C2542 0.956 . S
H2555 C2542 0.961 . S
H2556 C2542 0.954 1_455 S
H2557 C2543 0.958 . S
H2558 C2543 0.961 . S
H2559 C2543 0.960 . S
C2560 C2561 1.391 . S
C2560 C2562 1.394 . S
C2560 H2576 0.931 . S
C2561 C2560 1.391 . S
C2561 C2565 1.376 . S
C2562 C2560 1.394 . S
C2562 C2563 1.369 . S
C2562 C2566 1.531 . S
C2563 C2562 1.369 . S
C2563 C2564 1.410 . S
C2563 C2571 1.503 . S
C2564 C2563 1.410 . S
C2564 C2565 1.392 . S
C2564 C2567 1.511 . S
C2565 C2561 1.376 . S
C2565 C2564 1.392 . S
C2565 H2577 0.929 . S
C2566 C2562 1.531 . S
C2566 H2578 0.960 . S
C2566 H2579 0.962 . S
C2566 H2580 0.960 . S
C2567 C2564 1.511 . S
C2567 H2581 0.961 . S
C2567 H2582 0.961 . S
C2567 H2583 0.961 . S
C2568 C2569 1.370 . S
C2568 C2570 1.363 . S
C2568 H2584 0.931 . S
C2569 C2568 1.370 . S
C2569 C2573 1.408 . S
C2570 C2568 1.363 . S
C2570 C2571 1.370 . S
C2570 C2574 1.524 . S
C2571 C2563 1.503 . S
C2571 C2570 1.370 . S
C2571 C2572 1.403 . S
C2572 C2571 1.403 . S
C2572 C2573 1.404 . S
C2572 C2575 1.539 . S
C2573 C2569 1.408 . S
C2573 C2572 1.404 . S
C2573 H2585 0.930 . S
C2574 C2570 1.524 . S
C2574 H2586 0.956 . S
C2574 H2587 0.961 . S
C2574 H2588 0.961 . S
C2575 C2572 1.539 . S
C2575 H2589 0.958 . S
C2575 H2590 0.961 . S
C2575 H2591 0.960 . S
H2576 C2560 0.931 . S
H2577 C2565 0.929 . S
H2578 C2566 0.960 . S
H2579 C2566 0.962 . S
H2580 C2566 0.960 . S
H2581 C2567 0.961 . S
H2582 C2567 0.961 . S
H2583 C2567 0.961 . S
H2584 C2568 0.931 . S
H2585 C2573 0.930 . S
H2586 C2574 0.956 . S
H2587 C2574 0.961 . S
H2588 C2574 0.961 . S
H2589 C2575 0.958 . S
H2590 C2575 0.961 . S
H2591 C2575 0.960 . S
C2592 C2593 1.391 . S
C2592 C2594 1.394 . S
C2592 H2608 0.931 . S
C2593 C2592 1.391 . S
C2593 C2597 1.376 . S
C2594 C2592 1.394 . S
C2594 C2595 1.369 . S
C2594 C2598 1.531 . S
C2595 C2594 1.369 . S
C2595 C2596 1.410 . S
C2595 C2603 1.503 . S
C2596 C2595 1.410 . S
C2596 C2597 1.392 . S
C2596 C2599 1.511 . S
C2597 C2593 1.376 . S
C2597 C2596 1.392 . S
C2597 H2609 0.929 . S
C2598 C2594 1.531 . S
C2598 H2610 0.960 . S
C2598 H2611 0.962 . S
C2598 H2612 0.960 . S
C2599 C2596 1.511 . S
C2599 H2613 0.961 . S
C2599 H2614 0.961 . S
C2599 H2615 0.961 . S
C2600 C2601 1.370 . S
C2600 C2602 1.363 . S
C2600 H2616 0.931 . S
C2601 C2600 1.370 . S
C2601 C2605 1.408 . S
C2602 C2600 1.363 . S
C2602 C2603 1.370 . S
C2602 C2606 1.524 . S
C2603 C2595 1.503 . S
C2603 C2602 1.370 . S
C2603 C2604 1.403 . S
C2604 C2603 1.403 . S
C2604 C2605 1.404 . S
C2604 C2607 1.539 . S
C2605 C2601 1.408 . S
C2605 C2604 1.404 . S
C2605 H2617 0.930 . S
C2606 C2602 1.524 . S
C2606 H2618 0.956 . S
C2606 H2619 0.961 . S
C2606 H2620 0.961 . S
C2607 C2604 1.539 . S
C2607 H2621 0.958 . S
C2607 H2622 0.961 . S
C2607 H2623 0.960 . S
H2608 C2592 0.931 . S
H2609 C2597 0.929 . S
H2610 C2598 0.960 . S
H2611 C2598 0.962 . S
H2612 C2598 0.960 . S
H2613 C2599 0.961 . S
H2614 C2599 0.961 . S
H2615 C2599 0.961 . S
H2616 C2600 0.931 . S
H2617 C2605 0.930 . S
H2618 C2606 0.956 . S
H2619 C2606 0.961 . S
H2620 C2606 0.961 . S
H2621 C2607 0.958 . S
H2622 C2607 0.961 . S
H2623 C2607 0.960 . S
C2624 C2625 1.391 . S
C2624 C2626 1.394 . S
C2624 H2640 0.931 . S
C2625 C2624 1.391 . S
C2625 C2629 1.376 . S
C2626 C2624 1.394 . S
C2626 C2627 1.369 . S
C2626 C2630 1.531 . S
C2627 C2626 1.369 . S
C2627 C2628 1.410 . S
C2627 C2635 1.503 . S
C2628 C2627 1.410 . S
C2628 C2629 1.392 . S
C2628 C2631 1.511 . S
C2629 C2625 1.376 . S
C2629 C2628 1.392 . S
C2629 H2641 0.929 . S
C2630 C2626 1.531 . S
C2630 H2642 0.960 . S
C2630 H2643 0.962 . S
C2630 H2644 0.960 . S
C2631 C2628 1.511 . S
C2631 H2645 0.961 . S
C2631 H2646 0.961 . S
C2631 H2647 0.961 . S
C2632 C2633 1.370 . S
C2632 C2634 1.363 . S
C2632 H2648 0.931 . S
C2633 C2632 1.370 . S
C2633 C2637 1.408 . S
C2634 C2632 1.363 . S
C2634 C2635 1.370 . S
C2634 C2638 1.524 . S
C2635 C2627 1.503 . S
C2635 C2634 1.370 . S
C2635 C2636 1.403 . S
C2636 C2635 1.403 . S
C2636 C2637 1.404 . S
C2636 C2639 1.539 . S
C2637 C2633 1.408 . S
C2637 C2636 1.404 . S
C2637 H2649 0.930 . S
C2638 C2634 1.524 . S
C2638 H2650 0.956 . S
C2638 H2651 0.961 . S
C2638 H2652 0.961 . S
C2639 C2636 1.539 . S
C2639 H2653 0.958 . S
C2639 H2654 0.961 . S
C2639 H2655 0.960 . S
H2640 C2624 0.931 . S
H2641 C2629 0.929 . S
H2642 C2630 0.960 . S
H2643 C2630 0.962 . S
H2644 C2630 0.960 . S
H2645 C2631 0.961 . S
H2646 C2631 0.961 . S
H2647 C2631 0.961 . S
H2648 C2632 0.931 . S
H2649 C2637 0.930 . S
H2650 C2638 0.956 . S
H2651 C2638 0.961 . S
H2652 C2638 0.961 . S
H2653 C2639 0.958 . S
H2654 C2639 0.961 . S
H2655 C2639 0.960 . S
C2656 C2657 1.391 . S
C2656 C2658 1.394 . S
C2656 H2672 0.931 . S
C2657 C2656 1.391 . S
C2657 C2661 1.376 . S
C2658 C2656 1.394 . S
C2658 C2659 1.369 . S
C2658 C2662 1.531 . S
C2659 C2658 1.369 . S
C2659 C2660 1.410 . S
C2659 C2667 1.503 . S
C2660 C2659 1.410 . S
C2660 C2661 1.392 . S
C2660 C2663 1.511 . S
C2661 C2657 1.376 . S
C2661 C2660 1.392 . S
C2661 H2673 0.929 . S
C2662 C2658 1.531 . S
C2662 H2674 0.960 . S
C2662 H2675 0.962 . S
C2662 H2676 0.960 . S
C2663 C2660 1.511 . S
C2663 H2677 0.961 . S
C2663 H2678 0.961 . S
C2663 H2679 0.961 . S
C2664 C2665 1.370 . S
C2664 C2666 1.363 . S
C2664 H2680 0.931 . S
C2665 C2664 1.370 . S
C2665 C2669 1.408 . S
C2666 C2664 1.363 . S
C2666 C2667 1.370 . S
C2666 C2670 1.524 . S
C2667 C2659 1.503 . S
C2667 C2666 1.370 . S
C2667 C2668 1.403 . S
C2668 C2667 1.403 . S
C2668 C2669 1.404 . S
C2668 C2671 1.539 . S
C2669 C2665 1.408 . S
C2669 C2668 1.404 . S
C2669 H2681 0.930 . S
C2670 C2666 1.524 . S
C2670 H2682 0.956 . S
C2670 H2683 0.961 . S
C2670 H2684 0.961 . S
C2671 C2668 1.539 . S
C2671 H2685 0.958 . S
C2671 H2686 0.961 . S
C2671 H2687 0.960 . S
H2672 C2656 0.931 . S
H2673 C2661 0.929 . S
H2674 C2662 0.960 . S
H2675 C2662 0.962 . S
H2676 C2662 0.960 . S
H2677 C2663 0.961 . S
H2678 C2663 0.961 . S
H2679 C2663 0.961 . S
H2680 C2664 0.931 . S
H2681 C2669 0.930 . S
H2682 C2670 0.956 . S
H2683 C2670 0.961 . S
H2684 C2670 0.961 . S
H2685 C2671 0.958 . S
H2686 C2671 0.961 . S
H2687 C2671 0.960 . S
C2688 C2689 1.391 . S
C2688 C2690 1.394 . S
C2688 H2704 0.931 . S
C2689 C2688 1.391 . S
C2689 C2693 1.376 . S
C2690 C2688 1.394 . S
C2690 C2691 1.369 . S
C2690 C2694 1.531 . S
C2691 C2690 1.369 . S
C2691 C2692 1.410 . S
C2691 C2699 1.503 . S
C2692 C2691 1.410 . S
C2692 C2693 1.392 . S
C2692 C2695 1.511 . S
C2693 C2689 1.376 . S
C2693 C2692 1.392 . S
C2693 H2705 0.929 . S
C2694 C2690 1.531 . S
C2694 H2706 0.960 . S
C2694 H2707 0.962 . S
C2694 H2708 0.960 . S
C2695 C2692 1.511 . S
C2695 H2709 0.961 . S
C2695 H2710 0.961 . S
C2695 H2711 0.961 . S
C2696 C2697 1.370 . S
C2696 C2698 1.363 . S
C2696 H2712 0.931 . S
C2697 C2696 1.370 . S
C2697 C2701 1.408 . S
C2698 C2696 1.363 . S
C2698 C2699 1.370 . S
C2698 C2702 1.524 . S
C2699 C2691 1.503 . S
C2699 C2698 1.370 . S
C2699 C2700 1.403 . S
C2700 C2699 1.403 . S
C2700 C2701 1.404 . S
C2700 C2703 1.539 . S
C2701 C2697 1.408 . S
C2701 C2700 1.404 . S
C2701 H2713 0.930 . S
C2702 C2698 1.524 . S
C2702 H2714 0.956 . S
C2702 H2715 0.961 . S
C2702 H2716 0.961 . S
C2703 C2700 1.539 . S
C2703 H2717 0.958 . S
C2703 H2718 0.961 . S
C2703 H2719 0.960 . S
H2704 C2688 0.931 . S
H2705 C2693 0.929 . S
H2706 C2694 0.960 . S
H2707 C2694 0.962 . S
H2708 C2694 0.960 . S
H2709 C2695 0.961 . S
H2710 C2695 0.961 . S
H2711 C2695 0.961 . S
H2712 C2696 0.931 . S
H2713 C2701 0.930 . S
H2714 C2702 0.956 . S
H2715 C2702 0.961 . S
H2716 C2702 0.961 . S
H2717 C2703 0.958 . S
H2718 C2703 0.961 . S
H2719 C2703 0.960 . S
C2720 C2721 1.391 . S
C2720 C2722 1.394 . S
C2720 H2736 0.931 . S
C2721 C2720 1.391 . S
C2721 C2725 1.376 . S
C2722 C2720 1.394 . S
C2722 C2723 1.369 . S
C2722 C2726 1.531 . S
C2723 C2722 1.369 . S
C2723 C2724 1.410 . S
C2723 C2731 1.503 . S
C2724 C2723 1.410 . S
C2724 C2725 1.392 . S
C2724 C2727 1.511 . S
C2725 C2721 1.376 . S
C2725 C2724 1.392 . S
C2725 H2737 0.929 . S
C2726 C2722 1.531 . S
C2726 H2738 0.960 . S
C2726 H2739 0.962 . S
C2726 H2740 0.960 . S
C2727 C2724 1.511 . S
C2727 H2741 0.961 . S
C2727 H2742 0.961 . S
C2727 H2743 0.961 . S
C2728 C2729 1.370 . S
C2728 C2730 1.363 . S
C2728 H2744 0.931 . S
C2729 C2728 1.370 . S
C2729 C2733 1.408 . S
C2730 C2728 1.363 . S
C2730 C2731 1.370 . S
C2730 C2734 1.524 . S
C2731 C2723 1.503 . S
C2731 C2730 1.370 . S
C2731 C2732 1.403 . S
C2732 C2731 1.403 . S
C2732 C2733 1.404 . S
C2732 C2735 1.539 . S
C2733 C2729 1.408 . S
C2733 C2732 1.404 . S
C2733 H2745 0.930 . S
C2734 C2730 1.524 . S
C2734 H2746 0.956 . S
C2734 H2747 0.961 . S
C2734 H2748 0.961 . S
C2735 C2732 1.539 . S
C2735 H2749 0.958 . S
C2735 H2750 0.961 . S
C2735 H2751 0.960 . S
H2736 C2720 0.931 . S
H2737 C2725 0.929 . S
H2738 C2726 0.960 . S
H2739 C2726 0.962 . S
H2740 C2726 0.960 . S
H2741 C2727 0.961 . S
H2742 C2727 0.961 . S
H2743 C2727 0.961 . S
H2744 C2728 0.931 . S
H2745 C2733 0.930 . S
H2746 C2734 0.956 . S
H2747 C2734 0.961 . S
H2748 C2734 0.961 . S
H2749 C2735 0.958 . S
H2750 C2735 0.961 . S
H2751 C2735 0.960 . S
C2752 C2753 1.391 . S
C2752 C2754 1.394 . S
C2752 H2768 0.931 . S
C2753 C2752 1.391 . S
C2753 C2757 1.376 . S
C2754 C2752 1.394 . S
C2754 C2755 1.369 . S
C2754 C2758 1.531 . S
C2755 C2754 1.369 . S
C2755 C2756 1.410 . S
C2755 C2763 1.503 . S
C2756 C2755 1.410 . S
C2756 C2757 1.392 . S
C2756 C2759 1.511 . S
C2757 C2753 1.376 . S
C2757 C2756 1.392 . S
C2757 H2769 0.929 . S
C2758 C2754 1.531 . S
C2758 H2770 0.960 . S
C2758 H2771 0.962 . S
C2758 H2772 0.960 . S
C2759 C2756 1.511 . S
C2759 H2773 0.961 . S
C2759 H2774 0.961 . S
C2759 H2775 0.961 . S
C2760 C2761 1.370 . S
C2760 C2762 1.363 . S
C2760 H2776 0.931 . S
C2761 C2760 1.370 . S
C2761 C2765 1.408 . S
C2762 C2760 1.363 . S
C2762 C2763 1.370 . S
C2762 C2766 1.524 . S
C2763 C2755 1.503 . S
C2763 C2762 1.370 . S
C2763 C2764 1.403 . S
C2764 C2763 1.403 . S
C2764 C2765 1.404 . S
C2764 C2767 1.539 . S
C2765 C2761 1.408 . S
C2765 C2764 1.404 . S
C2765 H2777 0.930 . S
C2766 C2762 1.524 . S
C2766 H2778 0.956 . S
C2766 H2779 0.961 . S
C2766 H2780 0.961 . S
C2767 C2764 1.539 . S
C2767 H2781 0.958 . S
C2767 H2782 0.961 . S
C2767 H2783 0.960 . S
H2768 C2752 0.931 . S
H2769 C2757 0.929 . S
H2770 C2758 0.960 . S
H2771 C2758 0.962 . S
H2772 C2758 0.960 . S
H2773 C2759 0.961 . S
H2774 C2759 0.961 . S
H2775 C2759 0.961 . S
H2776 C2760 0.931 . S
H2777 C2765 0.930 . S
H2778 C2766 0.956 . S
H2779 C2766 0.961 . S
H2780 C2766 0.961 . S
H2781 C2767 0.958 . S
H2782 C2767 0.961 . S
H2783 C2767 0.960 . S
C2784 C2785 1.391 . S
C2784 C2786 1.394 . S
C2784 H2800 0.931 . S
C2785 C2784 1.391 . S
C2785 C2789 1.376 . S
C2786 C2784 1.394 . S
C2786 C2787 1.369 . S
C2786 C2790 1.531 . S
C2787 C2786 1.369 . S
C2787 C2788 1.410 . S
C2787 C2795 1.503 . S
C2788 C2787 1.410 . S
C2788 C2789 1.392 . S
C2788 C2791 1.511 . S
C2789 C2785 1.376 . S
C2789 C2788 1.392 . S
C2789 H2801 0.929 . S
C2790 C2786 1.531 . S
C2790 H2802 0.960 . S
C2790 H2803 0.962 . S
C2790 H2804 0.960 . S
C2791 C2788 1.511 . S
C2791 H2805 0.961 . S
C2791 H2806 0.961 . S
C2791 H2807 0.961 . S
C2792 C2793 1.370 . S
C2792 C2794 1.363 . S
C2792 H2808 0.931 . S
C2793 C2792 1.370 . S
C2793 C2797 1.408 . S
C2794 C2792 1.363 . S
C2794 C2795 1.370 . S
C2794 C2798 1.524 . S
C2795 C2787 1.503 . S
C2795 C2794 1.370 . S
C2795 C2796 1.403 . S
C2796 C2795 1.403 . S
C2796 C2797 1.404 . S
C2796 C2799 1.539 . S
C2797 C2793 1.408 . S
C2797 C2796 1.404 . S
C2797 H2809 0.930 . S
C2798 C2794 1.524 . S
C2798 H2810 0.956 . S
C2798 H2811 0.961 . S
C2798 H2812 0.961 . S
C2799 C2796 1.539 . S
C2799 H2813 0.958 . S
C2799 H2814 0.961 . S
C2799 H2815 0.960 . S
H2800 C2784 0.931 . S
H2801 C2789 0.929 . S
H2802 C2790 0.960 . S
H2803 C2790 0.962 . S
H2804 C2790 0.960 . S
H2805 C2791 0.961 . S
H2806 C2791 0.961 . S
H2807 C2791 0.961 . S
H2808 C2792 0.931 . S
H2809 C2797 0.930 . S
H2810 C2798 0.956 . S
H2811 C2798 0.961 . S
H2812 C2798 0.961 . S
H2813 C2799 0.958 . S
H2814 C2799 0.961 . S
H2815 C2799 0.960 . S
C2816 C2817 1.391 . S
C2816 C2818 1.394 . S
C2816 H2832 0.931 . S
C2817 C2816 1.391 . S
C2817 C2821 1.376 . S
C2818 C2816 1.394 . S
C2818 C2819 1.369 . S
C2818 C2822 1.531 . S
C2819 C2818 1.369 . S
C2819 C2820 1.410 . S
C2819 C2827 1.503 . S
C2820 C2819 1.410 . S
C2820 C2821 1.392 . S
C2820 C2823 1.511 1_554 S
C2821 C2817 1.376 . S
C2821 C2820 1.392 . S
C2821 H2833 0.929 1_554 S
C2822 C2818 1.531 . S
C2822 H2834 0.960 . S
C2822 H2835 0.962 . S
C2822 H2836 0.960 . S
C2823 C2820 1.511 1_556 S
C2823 H2837 0.961 . S
C2823 H2838 0.961 . S
C2823 H2839 0.961 1_556 S
C2824 C2825 1.370 1_556 S
C2824 C2826 1.363 . S
C2824 H2840 0.931 . S
C2825 C2824 1.370 1_554 S
C2825 C2829 1.408 . S
C2826 C2824 1.363 . S
C2826 C2827 1.370 1_556 S
C2826 C2830 1.524 . S
C2827 C2819 1.503 . S
C2827 C2826 1.370 1_554 S
C2827 C2828 1.403 . S
C2828 C2827 1.403 . S
C2828 C2829 1.404 . S
C2828 C2831 1.539 . S
C2829 C2825 1.408 . S
C2829 C2828 1.404 . S
C2829 H2841 0.930 . S
C2830 C2826 1.524 . S
C2830 H2842 0.956 . S
C2830 H2843 0.961 . S
C2830 H2844 0.961 . S
C2831 C2828 1.539 . S
C2831 H2845 0.958 . S
C2831 H2846 0.961 . S
C2831 H2847 0.960 . S
H2832 C2816 0.931 . S
H2833 C2821 0.929 1_556 S
H2834 C2822 0.960 . S
H2835 C2822 0.962 . S
H2836 C2822 0.960 . S
H2837 C2823 0.961 . S
H2838 C2823 0.961 . S
H2839 C2823 0.961 1_554 S
H2840 C2824 0.931 . S
H2841 C2829 0.930 . S
H2842 C2830 0.956 . S
H2843 C2830 0.961 . S
H2844 C2830 0.961 . S
H2845 C2831 0.958 . S
H2846 C2831 0.961 . S
H2847 C2831 0.960 . S
C2848 C2849 1.391 . S
C2848 C2850 1.394 . S
C2848 H2864 0.931 . S
C2849 C2848 1.391 . S
C2849 C2853 1.376 . S
C2850 C2848 1.394 . S
C2850 C2851 1.369 . S
C2850 C2854 1.531 . S
C2851 C2850 1.369 . S
C2851 C2852 1.410 . S
C2851 C2859 1.503 . S
C2852 C2851 1.410 . S
C2852 C2853 1.392 . S
C2852 C2855 1.511 . S
C2853 C2849 1.376 . S
C2853 C2852 1.392 . S
C2853 H2865 0.929 . S
C2854 C2850 1.531 . S
C2854 H2866 0.960 . S
C2854 H2867 0.962 . S
C2854 H2868 0.960 . S
C2855 C2852 1.511 . S
C2855 H2869 0.961 . S
C2855 H2870 0.961 . S
C2855 H2871 0.961 . S
C2856 C2857 1.370 . S
C2856 C2858 1.363 . S
C2856 H2872 0.931 . S
C2857 C2856 1.370 . S
C2857 C2861 1.408 . S
C2858 C2856 1.363 . S
C2858 C2859 1.370 . S
C2858 C2862 1.524 . S
C2859 C2851 1.503 . S
C2859 C2858 1.370 . S
C2859 C2860 1.403 . S
C2860 C2859 1.403 . S
C2860 C2861 1.404 . S
C2860 C2863 1.539 . S
C2861 C2857 1.408 . S
C2861 C2860 1.404 . S
C2861 H2873 0.930 . S
C2862 C2858 1.524 . S
C2862 H2874 0.956 . S
C2862 H2875 0.961 . S
C2862 H2876 0.961 . S
C2863 C2860 1.539 . S
C2863 H2877 0.958 . S
C2863 H2878 0.961 . S
C2863 H2879 0.960 . S
H2864 C2848 0.931 . S
H2865 C2853 0.929 . S
H2866 C2854 0.960 . S
H2867 C2854 0.962 . S
H2868 C2854 0.960 . S
H2869 C2855 0.961 . S
H2870 C2855 0.961 . S
H2871 C2855 0.961 . S
H2872 C2856 0.931 . S
H2873 C2861 0.930 . S
H2874 C2862 0.956 . S
H2875 C2862 0.961 . S
H2876 C2862 0.961 . S
H2877 C2863 0.958 . S
H2878 C2863 0.961 . S
H2879 C2863 0.960 . S
C2880 C2881 1.396 . S
C2880 C2882 1.394 . S
C2880 H2896 0.931 . S
C2881 C2880 1.396 . S
C2881 C2885 1.376 . S
C2882 C2880 1.394 . S
C2882 C2883 1.369 . S
C2882 C2886 1.531 . S
C2883 C2882 1.369 . S
C2883 C2884 1.410 . S
C2883 C2891 1.503 . S
C2884 C2883 1.410 . S
C2884 C2885 1.394 . S
C2884 C2887 1.511 . S
C2885 C2881 1.376 . S
C2885 C2884 1.394 . S
C2885 H2897 0.927 1_556 S
C2886 C2882 1.531 . S
C2886 H2898 0.960 . S
C2886 H2899 0.962 1_556 S
C2886 H2900 0.960 . S
C2887 C2884 1.511 . S
C2887 H2901 0.961 1_556 S
C2887 H2902 0.961 1_556 S
C2887 H2903 0.961 . S
C2888 C2889 1.370 1_554 S
C2888 C2890 1.363 . S
C2888 H2904 0.931 . S
C2889 C2888 1.370 1_556 S
C2889 C2893 1.408 . S
C2890 C2888 1.363 . S
C2890 C2891 1.370 1_554 S
C2890 C2894 1.524 . S
C2891 C2883 1.503 . S
C2891 C2890 1.370 1_556 S
C2891 C2892 1.403 . S
C2892 C2891 1.403 . S
C2892 C2893 1.404 . S
C2892 C2895 1.539 . S
C2893 C2889 1.408 . S
C2893 C2892 1.404 . S
C2893 H2905 0.930 . S
C2894 C2890 1.524 . S
C2894 H2906 0.956 . S
C2894 H2907 0.961 . S
C2894 H2908 0.961 . S
C2895 C2892 1.539 . S
C2895 H2909 0.958 . S
C2895 H2910 0.961 . S
C2895 H2911 0.960 . S
H2896 C2880 0.931 . S
H2897 C2885 0.927 1_554 S
H2898 C2886 0.960 . S
H2899 C2886 0.962 1_554 S
H2900 C2886 0.960 . S
H2901 C2887 0.961 1_554 S
H2902 C2887 0.961 1_554 S
H2903 C2887 0.961 . S
H2904 C2888 0.931 . S
H2905 C2893 0.930 . S
H2906 C2894 0.956 . S
H2907 C2894 0.961 . S
H2908 C2894 0.961 . S
H2909 C2895 0.958 . S
H2910 C2895 0.961 . S
H2911 C2895 0.960 . S
C2912 C2913 1.391 . S
C2912 C2914 1.394 . S
C2912 H2928 0.931 . S
C2913 C2912 1.391 . S
C2913 C2917 1.376 . S
C2914 C2912 1.394 . S
C2914 C2915 1.369 . S
C2914 C2918 1.531 . S
C2915 C2914 1.369 . S
C2915 C2916 1.410 . S
C2915 C2923 1.503 . S
C2916 C2915 1.410 . S
C2916 C2917 1.392 . S
C2916 C2919 1.511 . S
C2917 C2913 1.376 . S
C2917 C2916 1.392 . S
C2917 H2929 0.929 . S
C2918 C2914 1.531 . S
C2918 H2930 0.960 . S
C2918 H2931 0.962 . S
C2918 H2932 0.960 . S
C2919 C2916 1.511 . S
C2919 H2933 0.961 . S
C2919 H2934 0.961 . S
C2919 H2935 0.961 . S
C2920 C2921 1.370 . S
C2920 C2922 1.363 . S
C2920 H2936 0.931 . S
C2921 C2920 1.370 . S
C2921 C2925 1.408 . S
C2922 C2920 1.363 . S
C2922 C2923 1.370 . S
C2922 C2926 1.524 . S
C2923 C2915 1.503 . S
C2923 C2922 1.370 . S
C2923 C2924 1.403 . S
C2924 C2923 1.403 . S
C2924 C2925 1.404 . S
C2924 C2927 1.539 . S
C2925 C2921 1.408 . S
C2925 C2924 1.404 . S
C2925 H2937 0.930 . S
C2926 C2922 1.524 . S
C2926 H2938 0.956 . S
C2926 H2939 0.961 . S
C2926 H2940 0.961 . S
C2927 C2924 1.539 . S
C2927 H2941 0.958 . S
C2927 H2942 0.961 . S
C2927 H2943 0.960 . S
H2928 C2912 0.931 . S
H2929 C2917 0.929 . S
H2930 C2918 0.960 . S
H2931 C2918 0.962 . S
H2932 C2918 0.960 . S
H2933 C2919 0.961 . S
H2934 C2919 0.961 . S
H2935 C2919 0.961 . S
H2936 C2920 0.931 . S
H2937 C2925 0.930 . S
H2938 C2926 0.956 . S
H2939 C2926 0.961 . S
H2940 C2926 0.961 . S
H2941 C2927 0.958 . S
H2942 C2927 0.961 . S
H2943 C2927 0.960 . S
C2944 C2945 1.391 . S
C2944 C2946 1.394 . S
C2944 H2960 0.931 . S
C2945 C2944 1.391 . S
C2945 C2949 1.376 . S
C2946 C2944 1.394 . S
C2946 C2947 1.369 . S
C2946 C2950 1.531 . S
C2947 C2946 1.369 . S
C2947 C2948 1.410 . S
C2947 C2955 1.503 . S
C2948 C2947 1.410 . S
C2948 C2949 1.392 . S
C2948 C2951 1.511 . S
C2949 C2945 1.376 . S
C2949 C2948 1.392 . S
C2949 H2961 0.929 . S
C2950 C2946 1.531 . S
C2950 H2962 0.960 . S
C2950 H2963 0.962 . S
C2950 H2964 0.960 . S
C2951 C2948 1.511 . S
C2951 H2965 0.961 . S
C2951 H2966 0.961 . S
C2951 H2967 0.961 . S
C2952 C2953 1.370 . S
C2952 C2954 1.363 . S
C2952 H2968 0.931 . S
C2953 C2952 1.370 . S
C2953 C2957 1.408 . S
C2954 C2952 1.363 . S
C2954 C2955 1.370 . S
C2954 C2958 1.524 . S
C2955 C2947 1.503 . S
C2955 C2954 1.370 . S
C2955 C2956 1.403 . S
C2956 C2955 1.403 . S
C2956 C2957 1.404 . S
C2956 C2959 1.539 . S
C2957 C2953 1.408 . S
C2957 C2956 1.404 . S
C2957 H2969 0.930 . S
C2958 C2954 1.524 . S
C2958 H2970 0.956 . S
C2958 H2971 0.961 . S
C2958 H2972 0.961 . S
C2959 C2956 1.539 . S
C2959 H2973 0.958 . S
C2959 H2974 0.961 . S
C2959 H2975 0.960 . S
H2960 C2944 0.931 . S
H2961 C2949 0.929 . S
H2962 C2950 0.960 . S
H2963 C2950 0.962 . S
H2964 C2950 0.960 . S
H2965 C2951 0.961 . S
H2966 C2951 0.961 . S
H2967 C2951 0.961 . S
H2968 C2952 0.931 . S
H2969 C2957 0.930 . S
H2970 C2958 0.956 . S
H2971 C2958 0.961 . S
H2972 C2958 0.961 . S
H2973 C2959 0.958 . S
H2974 C2959 0.961 . S
H2975 C2959 0.960 . S
C2976 C2977 1.391 . S
C2976 C2978 1.394 . S
C2976 H2992 0.931 . S
C2977 C2976 1.391 . S
C2977 C2981 1.376 . S
C2978 C2976 1.394 . S
C2978 C2979 1.369 . S
C2978 C2982 1.531 . S
C2979 C2978 1.369 . S
C2979 C2980 1.410 . S
C2979 C2987 1.503 . S
C2980 C2979 1.410 . S
C2980 C2981 1.392 . S
C2980 C2983 1.511 . S
C2981 C2977 1.376 . S
C2981 C2980 1.392 . S
C2981 H2993 0.929 . S
C2982 C2978 1.531 . S
C2982 H2994 0.960 . S
C2982 H2995 0.962 . S
C2982 H2996 0.960 . S
C2983 C2980 1.511 . S
C2983 H2997 0.961 . S
C2983 H2998 0.961 . S
C2983 H2999 0.961 . S
C2984 C2985 1.370 . S
C2984 C2986 1.363 . S
C2984 H3000 0.931 . S
C2985 C2984 1.370 . S
C2985 C2989 1.408 . S
C2986 C2984 1.363 . S
C2986 C2987 1.370 . S
C2986 C2990 1.524 . S
C2987 C2979 1.503 . S
C2987 C2986 1.370 . S
C2987 C2988 1.403 . S
C2988 C2987 1.403 . S
C2988 C2989 1.404 . S
C2988 C2991 1.539 . S
C2989 C2985 1.408 . S
C2989 C2988 1.404 . S
C2989 H3001 0.930 . S
C2990 C2986 1.524 . S
C2990 H3002 0.956 . S
C2990 H3003 0.961 . S
C2990 H3004 0.961 . S
C2991 C2988 1.539 . S
C2991 H3005 0.958 . S
C2991 H3006 0.961 . S
C2991 H3007 0.960 . S
H2992 C2976 0.931 . S
H2993 C2981 0.929 . S
H2994 C2982 0.960 . S
H2995 C2982 0.962 . S
H2996 C2982 0.960 . S
H2997 C2983 0.961 . S
H2998 C2983 0.961 . S
H2999 C2983 0.961 . S
H3000 C2984 0.931 . S
H3001 C2989 0.930 . S
H3002 C2990 0.956 . S
H3003 C2990 0.961 . S
H3004 C2990 0.961 . S
H3005 C2991 0.958 . S
H3006 C2991 0.961 . S
H3007 C2991 0.960 . S
C3008 C3009 1.391 . S
C3008 C3010 1.394 . S
C3008 H3024 0.931 . S
C3009 C3008 1.391 . S
C3009 C3013 1.376 . S
C3010 C3008 1.394 . S
C3010 C3011 1.369 . S
C3010 C3014 1.531 . S
C3011 C3010 1.369 . S
C3011 C3012 1.410 . S
C3011 C3019 1.503 . S
C3012 C3011 1.410 . S
C3012 C3013 1.392 . S
C3012 C3015 1.511 . S
C3013 C3009 1.376 . S
C3013 C3012 1.392 . S
C3013 H3025 0.929 . S
C3014 C3010 1.531 . S
C3014 H3026 0.960 . S
C3014 H3027 0.962 . S
C3014 H3028 0.960 . S
C3015 C3012 1.511 . S
C3015 H3029 0.961 . S
C3015 H3030 0.961 . S
C3015 H3031 0.961 . S
C3016 C3017 1.370 . S
C3016 C3018 1.363 . S
C3016 H3032 0.931 . S
C3017 C3016 1.370 . S
C3017 C3021 1.408 . S
C3018 C3016 1.363 . S
C3018 C3019 1.370 . S
C3018 C3022 1.524 . S
C3019 C3011 1.503 . S
C3019 C3018 1.370 . S
C3019 C3020 1.403 . S
C3020 C3019 1.403 . S
C3020 C3021 1.404 . S
C3020 C3023 1.539 . S
C3021 C3017 1.408 . S
C3021 C3020 1.404 . S
C3021 H3033 0.930 . S
C3022 C3018 1.524 . S
C3022 H3034 0.956 . S
C3022 H3035 0.961 . S
C3022 H3036 0.961 . S
C3023 C3020 1.539 . S
C3023 H3037 0.958 . S
C3023 H3038 0.961 . S
C3023 H3039 0.960 . S
H3024 C3008 0.931 . S
H3025 C3013 0.929 . S
H3026 C3014 0.960 . S
H3027 C3014 0.962 . S
H3028 C3014 0.960 . S
H3029 C3015 0.961 . S
H3030 C3015 0.961 . S
H3031 C3015 0.961 . S
H3032 C3016 0.931 . S
H3033 C3021 0.930 . S
H3034 C3022 0.956 . S
H3035 C3022 0.961 . S
H3036 C3022 0.961 . S
H3037 C3023 0.958 . S
H3038 C3023 0.961 . S
H3039 C3023 0.960 . S
C3040 C3041 1.391 . S
C3040 C3042 1.394 . S
C3040 H3056 0.931 . S
C3041 C3040 1.391 . S
C3041 C3045 1.376 1_455 S
C3042 C3040 1.394 . S
C3042 C3043 1.379 . S
C3042 C3046 1.531 . S
C3043 C3042 1.379 . S
C3043 C3044 1.401 1_455 S
C3043 C3051 1.503 1_455 S
C3044 C3043 1.401 1_655 S
C3044 C3045 1.392 . S
C3044 C3047 1.511 . S
C3045 C3041 1.376 1_655 S
C3045 C3044 1.392 . S
C3045 H3057 0.929 . S
C3046 C3042 1.531 . S
C3046 H3058 0.960 . S
C3046 H3059 0.962 . S
C3046 H3060 0.960 . S
C3047 C3044 1.511 . S
C3047 H3061 0.961 . S
C3047 H3062 0.961 . S
C3047 H3063 0.961 . S
C3048 C3049 1.360 1_455 S
C3048 C3050 1.366 . S
C3048 H3064 0.940 . S
C3049 C3048 1.360 1_655 S
C3049 C3053 1.408 . S
C3050 C3048 1.366 . S
C3050 C3051 1.370 1_455 S
C3050 C3054 1.524 . S
C3051 C3043 1.503 1_655 S
C3051 C3050 1.370 1_655 S
C3051 C3052 1.403 . S
C3052 C3051 1.403 . S
C3052 C3053 1.404 . S
C3052 C3055 1.539 . S
C3053 C3049 1.408 . S
C3053 C3052 1.404 . S
C3053 H3065 0.893 1_556 S
C3054 C3050 1.524 . S
C3054 H3066 0.956 . S
C3054 H3067 0.961 1_455 S
C3054 H3068 0.961 . S
C3055 C3052 1.539 . S
C3055 H3069 0.980 . S
C3055 H3070 0.961 1_556 S
C3055 H3071 0.960 . S
H3056 C3040 0.931 . S
H3057 C3045 0.929 . S
H3058 C3046 0.960 . S
H3059 C3046 0.962 . S
H3060 C3046 0.960 . S
H3061 C3047 0.961 . S
H3062 C3047 0.961 . S
H3063 C3047 0.961 . S
H3064 C3048 0.940 . S
H3065 C3053 0.893 1_554 S
H3066 C3054 0.956 . S
H3067 C3054 0.961 1_655 S
H3068 C3054 0.961 . S
H3069 C3055 0.980 . S
H3070 C3055 0.961 1_554 S
H3071 C3055 0.960 . S
C3072 C3073 1.391 . S
C3072 C3074 1.394 . S
C3072 H3088 0.931 . S
C3073 C3072 1.391 . S
C3073 C3077 1.376 . S
C3074 C3072 1.394 . S
C3074 C3075 1.369 . S
C3074 C3078 1.531 . S
C3075 C3074 1.369 . S
C3075 C3076 1.410 . S
C3075 C3083 1.503 . S
C3076 C3075 1.410 . S
C3076 C3077 1.392 . S
C3076 C3079 1.511 . S
C3077 C3073 1.376 . S
C3077 C3076 1.392 . S
C3077 H3089 0.929 . S
C3078 C3074 1.531 . S
C3078 H3090 0.960 . S
C3078 H3091 0.962 . S
C3078 H3092 0.960 . S
C3079 C3076 1.511 . S
C3079 H3093 0.961 . S
C3079 H3094 0.961 . S
C3079 H3095 0.961 . S
C3080 C3081 1.370 . S
C3080 C3082 1.363 . S
C3080 H3096 0.931 . S
C3081 C3080 1.370 . S
C3081 C3085 1.408 . S
C3082 C3080 1.363 . S
C3082 C3083 1.370 . S
C3082 C3086 1.524 . S
C3083 C3075 1.503 . S
C3083 C3082 1.370 . S
C3083 C3084 1.403 . S
C3084 C3083 1.403 . S
C3084 C3085 1.404 . S
C3084 C3087 1.539 . S
C3085 C3081 1.408 . S
C3085 C3084 1.404 . S
C3085 H3097 0.930 . S
C3086 C3082 1.524 . S
C3086 H3098 0.956 . S
C3086 H3099 0.961 . S
C3086 H3100 0.961 . S
C3087 C3084 1.539 . S
C3087 H3101 0.958 . S
C3087 H3102 0.961 . S
C3087 H3103 0.960 . S
H3088 C3072 0.931 . S
H3089 C3077 0.929 . S
H3090 C3078 0.960 . S
H3091 C3078 0.962 . S
H3092 C3078 0.960 . S
H3093 C3079 0.961 . S
H3094 C3079 0.961 . S
H3095 C3079 0.961 . S
H3096 C3080 0.931 . S
H3097 C3085 0.930 . S
H3098 C3086 0.956 . S
H3099 C3086 0.961 . S
H3100 C3086 0.961 . S
H3101 C3087 0.958 . S
H3102 C3087 0.961 . S
H3103 C3087 0.960 . S
C3104 C3105 1.391 . S
C3104 C3106 1.394 . S
C3104 H3120 0.931 . S
C3105 C3104 1.391 . S
C3105 C3109 1.376 . S
C3106 C3104 1.394 . S
C3106 C3107 1.369 . S
C3106 C3110 1.531 . S
C3107 C3106 1.369 . S
C3107 C3108 1.410 . S
C3107 C3115 1.503 . S
C3108 C3107 1.410 . S
C3108 C3109 1.392 . S
C3108 C3111 1.511 . S
C3109 C3105 1.376 . S
C3109 C3108 1.392 . S
C3109 H3121 0.929 . S
C3110 C3106 1.531 . S
C3110 H3122 0.960 . S
C3110 H3123 0.962 . S
C3110 H3124 0.960 . S
C3111 C3108 1.511 . S
C3111 H3125 0.961 . S
C3111 H3126 0.961 . S
C3111 H3127 0.961 . S
C3112 C3113 1.370 . S
C3112 C3114 1.363 . S
C3112 H3128 0.931 . S
C3113 C3112 1.370 . S
C3113 C3117 1.408 . S
C3114 C3112 1.363 . S
C3114 C3115 1.370 . S
C3114 C3118 1.524 . S
C3115 C3107 1.503 . S
C3115 C3114 1.370 . S
C3115 C3116 1.403 . S
C3116 C3115 1.403 . S
C3116 C3117 1.404 . S
C3116 C3119 1.539 . S
C3117 C3113 1.408 . S
C3117 C3116 1.404 . S
C3117 H3129 0.930 . S
C3118 C3114 1.524 . S
C3118 H3130 0.956 . S
C3118 H3131 0.961 . S
C3118 H3132 0.961 . S
C3119 C3116 1.539 . S
C3119 H3133 0.958 . S
C3119 H3134 0.947 1_554 S
C3119 H3135 0.960 . S
H3120 C3104 0.931 . S
H3121 C3109 0.929 . S
H3122 C3110 0.960 . S
H3123 C3110 0.962 . S
H3124 C3110 0.960 . S
H3125 C3111 0.961 . S
H3126 C3111 0.961 . S
H3127 C3111 0.961 . S
H3128 C3112 0.931 . S
H3129 C3117 0.930 . S
H3130 C3118 0.956 . S
H3131 C3118 0.961 . S
H3132 C3118 0.961 . S
H3133 C3119 0.958 . S
H3134 C3119 0.947 1_556 S
H3135 C3119 0.960 . S
C3136 C3137 1.391 . S
C3136 C3138 1.394 . S
C3136 H3152 0.931 . S
C3137 C3136 1.391 . S
C3137 C3141 1.376 . S
C3138 C3136 1.394 . S
C3138 C3139 1.369 . S
C3138 C3142 1.531 . S
C3139 C3138 1.369 . S
C3139 C3140 1.410 . S
C3139 C3147 1.503 . S
C3140 C3139 1.410 . S
C3140 C3141 1.392 . S
C3140 C3143 1.511 . S
C3141 C3137 1.376 . S
C3141 C3140 1.392 . S
C3141 H3153 0.929 . S
C3142 C3138 1.531 . S
C3142 H3154 0.960 . S
C3142 H3155 0.962 . S
C3142 H3156 0.960 . S
C3143 C3140 1.511 . S
C3143 H3157 0.961 . S
C3143 H3158 0.961 . S
C3143 H3159 0.961 . S
C3144 C3145 1.370 . S
C3144 C3146 1.363 . S
C3144 H3160 0.931 . S
C3145 C3144 1.370 . S
C3145 C3149 1.408 . S
C3146 C3144 1.363 . S
C3146 C3147 1.370 . S
C3146 C3150 1.524 . S
C3147 C3139 1.503 . S
C3147 C3146 1.370 . S
C3147 C3148 1.403 . S
C3148 C3147 1.403 . S
C3148 C3149 1.404 . S
C3148 C3151 1.539 . S
C3149 C3145 1.408 . S
C3149 C3148 1.404 . S
C3149 H3161 0.930 . S
C3150 C3146 1.524 . S
C3150 H3162 0.956 . S
C3150 H3163 0.961 . S
C3150 H3164 0.961 . S
C3151 C3148 1.539 . S
C3151 H3165 0.958 . S
C3151 H3166 0.961 . S
C3151 H3167 0.960 . S
H3152 C3136 0.931 . S
H3153 C3141 0.929 . S
H3154 C3142 0.960 . S
H3155 C3142 0.962 . S
H3156 C3142 0.960 . S
H3157 C3143 0.961 . S
H3158 C3143 0.961 . S
H3159 C3143 0.961 . S
H3160 C3144 0.931 . S
H3161 C3149 0.930 . S
H3162 C3150 0.956 . S
H3163 C3150 0.961 . S
H3164 C3150 0.961 . S
H3165 C3151 0.958 . S
H3166 C3151 0.961 . S
H3167 C3151 0.960 . S
C3168 C3169 1.391 1_655 S
C3168 C3170 1.394 . S
C3168 H3184 0.931 . S
C3169 C3168 1.391 1_455 S
C3169 C3173 1.376 . S
C3170 C3168 1.394 . S
C3170 C3171 1.369 . S
C3170 C3174 1.531 . S
C3171 C3170 1.369 . S
C3171 C3172 1.410 1_655 S
C3171 C3179 1.503 . S
C3172 C3171 1.410 1_455 S
C3172 C3173 1.392 . S
C3172 C3175 1.511 . S
C3173 C3169 1.376 . S
C3173 C3172 1.392 . S
C3173 H3185 0.929 . S
C3174 C3170 1.531 . S
C3174 H3186 0.960 . S
C3174 H3187 0.962 . S
C3174 H3188 0.960 . S
C3175 C3172 1.511 . S
C3175 H3189 0.961 . S
C3175 H3190 0.961 . S
C3175 H3191 0.961 . S
C3176 C3177 1.370 1_455 S
C3176 C3178 1.363 . S
C3176 H3192 0.931 . S
C3177 C3176 1.370 1_655 S
C3177 C3181 1.408 . S
C3178 C3176 1.363 . S
C3178 C3179 1.370 1_455 S
C3178 C3182 1.524 . S
C3179 C3171 1.503 . S
C3179 C3178 1.370 1_655 S
C3179 C3180 1.403 . S
C3180 C3179 1.403 . S
C3180 C3181 1.404 . S
C3180 C3183 1.539 . S
C3181 C3177 1.408 . S
C3181 C3180 1.404 . S
C3181 H3193 0.930 . S
C3182 C3178 1.524 . S
C3182 H3194 0.956 . S
C3182 H3195 0.961 . S
C3182 H3196 0.961 . S
C3183 C3180 1.539 . S
C3183 H3197 0.958 . S
C3183 H3198 0.961 . S
C3183 H3199 0.960 . S
H3184 C3168 0.931 . S
H3185 C3173 0.929 . S
H3186 C3174 0.960 . S
H3187 C3174 0.962 . S
H3188 C3174 0.960 . S
H3189 C3175 0.961 . S
H3190 C3175 0.961 . S
H3191 C3175 0.961 . S
H3192 C3176 0.931 . S
H3193 C3181 0.930 . S
H3194 C3182 0.956 . S
H3195 C3182 0.961 . S
H3196 C3182 0.961 . S
H3197 C3183 0.958 . S
H3198 C3183 0.961 . S
H3199 C3183 0.960 . S
C3200 C3201 1.391 . S
C3200 C3202 1.394 . S
C3200 H3216 0.931 . S
C3201 C3200 1.391 . S
C3201 C3205 1.376 . S
C3202 C3200 1.394 . S
C3202 C3203 1.369 . S
C3202 C3206 1.531 . S
C3203 C3202 1.369 . S
C3203 C3204 1.410 . S
C3203 C3211 1.503 . S
C3204 C3203 1.410 . S
C3204 C3205 1.392 . S
C3204 C3207 1.511 . S
C3205 C3201 1.376 . S
C3205 C3204 1.392 . S
C3205 H3217 0.929 . S
C3206 C3202 1.531 . S
C3206 H3218 0.960 . S
C3206 H3219 0.962 . S
C3206 H3220 0.960 . S
C3207 C3204 1.511 . S
C3207 H3221 0.961 . S
C3207 H3222 0.961 . S
C3207 H3223 0.961 . S
C3208 C3209 1.370 . S
C3208 C3210 1.363 . S
C3208 H3224 0.931 . S
C3209 C3208 1.370 . S
C3209 C3213 1.408 . S
C3210 C3208 1.363 . S
C3210 C3211 1.370 . S
C3210 C3214 1.524 . S
C3211 C3203 1.503 . S
C3211 C3210 1.370 . S
C3211 C3212 1.403 . S
C3212 C3211 1.403 . S
C3212 C3213 1.404 . S
C3212 C3215 1.539 . S
C3213 C3209 1.408 . S
C3213 C3212 1.404 . S
C3213 H3225 0.930 . S
C3214 C3210 1.524 . S
C3214 H3226 0.956 . S
C3214 H3227 0.961 . S
C3214 H3228 0.961 . S
C3215 C3212 1.539 . S
C3215 H3229 0.958 . S
C3215 H3230 0.961 . S
C3215 H3231 0.960 . S
H3216 C3200 0.931 . S
H3217 C3205 0.929 . S
H3218 C3206 0.960 . S
H3219 C3206 0.962 . S
H3220 C3206 0.960 . S
H3221 C3207 0.961 . S
H3222 C3207 0.961 . S
H3223 C3207 0.961 . S
H3224 C3208 0.931 . S
H3225 C3213 0.930 . S
H3226 C3214 0.956 . S
H3227 C3214 0.961 . S
H3228 C3214 0.961 . S
H3229 C3215 0.958 . S
H3230 C3215 0.961 . S
H3231 C3215 0.960 . S
C3232 C3233 1.391 . S
C3232 C3234 1.394 . S
C3232 H3248 0.931 . S
C3233 C3232 1.391 . S
C3233 C3237 1.376 . S
C3234 C3232 1.394 . S
C3234 C3235 1.369 . S
C3234 C3238 1.531 . S
C3235 C3234 1.369 . S
C3235 C3236 1.410 . S
C3235 C3243 1.503 . S
C3236 C3235 1.410 . S
C3236 C3237 1.392 . S
C3236 C3239 1.511 . S
C3237 C3233 1.376 . S
C3237 C3236 1.392 . S
C3237 H3249 0.929 . S
C3238 C3234 1.531 . S
C3238 H3250 0.960 . S
C3238 H3251 0.962 . S
C3238 H3252 0.960 . S
C3239 C3236 1.511 . S
C3239 H3253 0.961 . S
C3239 H3254 0.961 . S
C3239 H3255 0.961 . S
C3240 C3241 1.370 . S
C3240 C3242 1.363 . S
C3240 H3256 0.931 . S
C3241 C3240 1.370 . S
C3241 C3245 1.408 . S
C3242 C3240 1.363 . S
C3242 C3243 1.370 . S
C3242 C3246 1.524 . S
C3243 C3235 1.503 . S
C3243 C3242 1.370 . S
C3243 C3244 1.403 . S
C3244 C3243 1.403 . S
C3244 C3245 1.404 . S
C3244 C3247 1.539 . S
C3245 C3241 1.408 . S
C3245 C3244 1.404 . S
C3245 H3257 0.930 . S
C3246 C3242 1.524 . S
C3246 H3258 0.956 . S
C3246 H3259 0.961 . S
C3246 H3260 0.961 . S
C3247 C3244 1.539 . S
C3247 H3261 0.958 . S
C3247 H3262 0.961 . S
C3247 H3263 0.960 . S
H3248 C3232 0.931 . S
H3249 C3237 0.929 . S
H3250 C3238 0.960 . S
H3251 C3238 0.962 . S
H3252 C3238 0.960 . S
H3253 C3239 0.961 . S
H3254 C3239 0.961 . S
H3255 C3239 0.961 . S
H3256 C3240 0.931 . S
H3257 C3245 0.930 . S
H3258 C3246 0.956 . S
H3259 C3246 0.961 . S
H3260 C3246 0.961 . S
H3261 C3247 0.958 . S
H3262 C3247 0.961 . S
H3263 C3247 0.960 . S
C3264 C3265 1.391 . S
C3264 C3266 1.394 . S
C3264 H3280 0.931 . S
C3265 C3264 1.391 . S
C3265 C3269 1.376 . S
C3266 C3264 1.394 . S
C3266 C3267 1.369 . S
C3266 C3270 1.531 . S
C3267 C3266 1.369 . S
C3267 C3268 1.410 . S
C3267 C3275 1.503 . S
C3268 C3267 1.410 . S
C3268 C3269 1.392 . S
C3268 C3271 1.511 . S
C3269 C3265 1.376 . S
C3269 C3268 1.392 . S
C3269 H3281 0.929 . S
C3270 C3266 1.531 . S
C3270 H3282 0.960 . S
C3270 H3283 0.962 . S
C3270 H3284 0.960 . S
C3271 C3268 1.511 . S
C3271 H3285 0.961 . S
C3271 H3286 0.961 . S
C3271 H3287 0.961 . S
C3272 C3273 1.370 . S
C3272 C3274 1.363 . S
C3272 H3288 0.931 . S
C3273 C3272 1.370 . S
C3273 C3277 1.408 . S
C3274 C3272 1.363 . S
C3274 C3275 1.370 . S
C3274 C3278 1.524 . S
C3275 C3267 1.503 . S
C3275 C3274 1.370 . S
C3275 C3276 1.403 . S
C3276 C3275 1.403 . S
C3276 C3277 1.404 . S
C3276 C3279 1.539 . S
C3277 C3273 1.408 . S
C3277 C3276 1.404 . S
C3277 H3289 0.930 . S
C3278 C3274 1.524 . S
C3278 H3290 0.956 . S
C3278 H3291 0.961 . S
C3278 H3292 0.961 . S
C3279 C3276 1.539 . S
C3279 H3293 0.958 . S
C3279 H3294 0.961 . S
C3279 H3295 0.960 . S
H3280 C3264 0.931 . S
H3281 C3269 0.929 . S
H3282 C3270 0.960 . S
H3283 C3270 0.962 . S
H3284 C3270 0.960 . S
H3285 C3271 0.961 . S
H3286 C3271 0.961 . S
H3287 C3271 0.961 . S
H3288 C3272 0.931 . S
H3289 C3277 0.930 . S
H3290 C3278 0.956 . S
H3291 C3278 0.961 . S
H3292 C3278 0.961 . S
H3293 C3279 0.958 . S
H3294 C3279 0.961 . S
H3295 C3279 0.960 . S
C3296 C3297 1.391 . S
C3296 C3298 1.394 . S
C3296 H3312 0.931 . S
C3297 C3296 1.391 . S
C3297 C3301 1.376 . S
C3298 C3296 1.394 . S
C3298 C3299 1.369 . S
C3298 C3302 1.531 . S
C3299 C3298 1.369 . S
C3299 C3300 1.410 . S
C3299 C3307 1.503 . S
C3300 C3299 1.410 . S
C3300 C3301 1.392 . S
C3300 C3303 1.511 . S
C3301 C3297 1.376 . S
C3301 C3300 1.392 . S
C3301 H3313 0.929 . S
C3302 C3298 1.531 . S
C3302 H3314 0.960 . S
C3302 H3315 0.962 . S
C3302 H3316 0.960 . S
C3303 C3300 1.511 . S
C3303 H3317 0.961 . S
C3303 H3318 0.961 . S
C3303 H3319 0.961 . S
C3304 C3305 1.370 . S
C3304 C3306 1.363 . S
C3304 H3320 0.931 . S
C3305 C3304 1.370 . S
C3305 C3309 1.408 . S
C3306 C3304 1.363 . S
C3306 C3307 1.370 . S
C3306 C3310 1.524 . S
C3307 C3299 1.503 . S
C3307 C3306 1.370 . S
C3307 C3308 1.403 . S
C3308 C3307 1.403 . S
C3308 C3309 1.404 . S
C3308 C3311 1.539 . S
C3309 C3305 1.408 . S
C3309 C3308 1.404 . S
C3309 H3321 0.930 . S
C3310 C3306 1.524 . S
C3310 H3322 0.956 . S
C3310 H3323 0.961 . S
C3310 H3324 0.961 . S
C3311 C3308 1.539 . S
C3311 H3325 0.958 . S
C3311 H3326 0.961 . S
C3311 H3327 0.960 . S
H3312 C3296 0.931 . S
H3313 C3301 0.929 . S
H3314 C3302 0.960 . S
H3315 C3302 0.962 . S
H3316 C3302 0.960 . S
H3317 C3303 0.961 . S
H3318 C3303 0.961 . S
H3319 C3303 0.961 . S
H3320 C3304 0.931 . S
H3321 C3309 0.930 . S
H3322 C3310 0.956 . S
H3323 C3310 0.961 . S
H3324 C3310 0.961 . S
H3325 C3311 0.958 . S
H3326 C3311 0.961 . S
H3327 C3311 0.960 . S
C3328 C3329 1.391 . S
C3328 C3330 1.394 . S
C3328 H3344 0.931 . S
C3329 C3328 1.391 . S
C3329 C3333 1.376 . S
C3330 C3328 1.394 . S
C3330 C3331 1.369 . S
C3330 C3334 1.531 . S
C3331 C3330 1.369 . S
C3331 C3332 1.410 . S
C3331 C3339 1.503 . S
C3332 C3331 1.410 . S
C3332 C3333 1.392 . S
C3332 C3335 1.511 . S
C3333 C3329 1.376 . S
C3333 C3332 1.392 . S
C3333 H3345 0.929 . S
C3334 C3330 1.531 . S
C3334 H3346 0.960 . S
C3334 H3347 0.962 . S
C3334 H3348 0.960 . S
C3335 C3332 1.511 . S
C3335 H3349 0.961 . S
C3335 H3350 0.961 . S
C3335 H3351 0.961 . S
C3336 C3337 1.370 . S
C3336 C3338 1.363 . S
C3336 H3352 0.931 . S
C3337 C3336 1.370 . S
C3337 C3341 1.408 . S
C3338 C3336 1.363 . S
C3338 C3339 1.370 . S
C3338 C3342 1.524 . S
C3339 C3331 1.503 . S
C3339 C3338 1.370 . S
C3339 C3340 1.403 . S
C3340 C3339 1.403 . S
C3340 C3341 1.404 . S
C3340 C3343 1.539 . S
C3341 C3337 1.408 . S
C3341 C3340 1.404 . S
C3341 H3353 0.930 . S
C3342 C3338 1.524 . S
C3342 H3354 0.956 . S
C3342 H3355 0.961 . S
C3342 H3356 0.961 . S
C3343 C3340 1.539 . S
C3343 H3357 0.958 . S
C3343 H3358 0.961 . S
C3343 H3359 0.960 . S
H3344 C3328 0.931 . S
H3345 C3333 0.929 . S
H3346 C3334 0.960 . S
H3347 C3334 0.962 . S
H3348 C3334 0.960 . S
H3349 C3335 0.961 . S
H3350 C3335 0.961 . S
H3351 C3335 0.961 . S
H3352 C3336 0.931 . S
H3353 C3341 0.930 . S
H3354 C3342 0.956 . S
H3355 C3342 0.961 . S
H3356 C3342 0.961 . S
H3357 C3343 0.958 . S
H3358 C3343 0.961 . S
H3359 C3343 0.960 . S
C3360 C3361 1.391 . S
C3360 C3362 1.394 . S
C3360 H3376 0.931 . S
C3361 C3360 1.391 . S
C3361 C3365 1.376 . S
C3362 C3360 1.394 . S
C3362 C3363 1.369 . S
C3362 C3366 1.531 . S
C3363 C3362 1.369 . S
C3363 C3364 1.410 . S
C3363 C3371 1.503 . S
C3364 C3363 1.410 . S
C3364 C3365 1.392 . S
C3364 C3367 1.511 . S
C3365 C3361 1.376 . S
C3365 C3364 1.392 . S
C3365 H3377 0.929 . S
C3366 C3362 1.531 . S
C3366 H3378 0.960 . S
C3366 H3379 0.962 . S
C3366 H3380 0.960 . S
C3367 C3364 1.511 . S
C3367 H3381 0.961 . S
C3367 H3382 0.961 . S
C3367 H3383 0.961 . S
C3368 C3369 1.370 . S
C3368 C3370 1.363 . S
C3368 H3384 0.931 . S
C3369 C3368 1.370 . S
C3369 C3373 1.408 . S
C3370 C3368 1.363 . S
C3370 C3371 1.370 . S
C3370 C3374 1.524 . S
C3371 C3363 1.503 . S
C3371 C3370 1.370 . S
C3371 C3372 1.403 . S
C3372 C3371 1.403 . S
C3372 C3373 1.404 . S
C3372 C3375 1.539 . S
C3373 C3369 1.408 . S
C3373 C3372 1.404 . S
C3373 H3385 0.930 . S
C3374 C3370 1.524 . S
C3374 H3386 0.956 . S
C3374 H3387 0.961 . S
C3374 H3388 0.961 . S
C3375 C3372 1.539 . S
C3375 H3389 0.958 . S
C3375 H3390 0.961 . S
C3375 H3391 0.960 . S
H3376 C3360 0.931 . S
H3377 C3365 0.929 . S
H3378 C3366 0.960 . S
H3379 C3366 0.962 . S
H3380 C3366 0.960 . S
H3381 C3367 0.961 . S
H3382 C3367 0.961 . S
H3383 C3367 0.961 . S
H3384 C3368 0.931 . S
H3385 C3373 0.930 . S
H3386 C3374 0.956 . S
H3387 C3374 0.961 . S
H3388 C3374 0.961 . S
H3389 C3375 0.958 . S
H3390 C3375 0.961 . S
H3391 C3375 0.960 . S
C3392 C3393 1.391 . S
C3392 C3394 1.394 . S
C3392 H3408 0.931 . S
C3393 C3392 1.391 . S
C3393 C3397 1.376 . S
C3394 C3392 1.394 . S
C3394 C3395 1.369 . S
C3394 C3398 1.531 . S
C3395 C3394 1.369 . S
C3395 C3396 1.410 . S
C3395 C3403 1.503 . S
C3396 C3395 1.410 . S
C3396 C3397 1.392 . S
C3396 C3399 1.511 . S
C3397 C3393 1.376 . S
C3397 C3396 1.392 . S
C3397 H3409 0.929 . S
C3398 C3394 1.531 . S
C3398 H3410 0.960 . S
C3398 H3411 0.962 . S
C3398 H3412 0.960 . S
C3399 C3396 1.511 . S
C3399 H3413 0.961 . S
C3399 H3414 0.961 . S
C3399 H3415 0.961 . S
C3400 C3401 1.370 . S
C3400 C3402 1.363 . S
C3400 H3416 0.931 . S
C3401 C3400 1.370 . S
C3401 C3405 1.408 . S
C3402 C3400 1.363 . S
C3402 C3403 1.370 . S
C3402 C3406 1.524 . S
C3403 C3395 1.503 . S
C3403 C3402 1.370 . S
C3403 C3404 1.403 . S
C3404 C3403 1.403 . S
C3404 C3405 1.404 . S
C3404 C3407 1.539 . S
C3405 C3401 1.408 . S
C3405 C3404 1.404 . S
C3405 H3417 0.930 . S
C3406 C3402 1.524 . S
C3406 H3418 0.956 . S
C3406 H3419 0.961 . S
C3406 H3420 0.961 . S
C3407 C3404 1.539 . S
C3407 H3421 0.958 . S
C3407 H3422 0.961 . S
C3407 H3423 0.960 . S
H3408 C3392 0.931 . S
H3409 C3397 0.929 . S
H3410 C3398 0.960 . S
H3411 C3398 0.962 . S
H3412 C3398 0.960 . S
H3413 C3399 0.961 . S
H3414 C3399 0.961 . S
H3415 C3399 0.961 . S
H3416 C3400 0.931 . S
H3417 C3405 0.930 . S
H3418 C3406 0.956 . S
H3419 C3406 0.961 . S
H3420 C3406 0.961 . S
H3421 C3407 0.958 . S
H3422 C3407 0.961 . S
H3423 C3407 0.960 . S
C3424 C3425 1.391 . S
C3424 C3426 1.394 . S
C3424 H3440 0.931 . S
C3425 C3424 1.391 . S
C3425 C3429 1.376 . S
C3426 C3424 1.394 . S
C3426 C3427 1.369 . S
C3426 C3430 1.531 . S
C3427 C3426 1.369 . S
C3427 C3428 1.410 . S
C3427 C3435 1.503 . S
C3428 C3427 1.410 . S
C3428 C3429 1.392 . S
C3428 C3431 1.511 . S
C3429 C3425 1.376 . S
C3429 C3428 1.392 . S
C3429 H3441 0.929 . S
C3430 C3426 1.531 . S
C3430 H3442 0.960 . S
C3430 H3443 0.962 . S
C3430 H3444 0.960 . S
C3431 C3428 1.511 . S
C3431 H3445 0.961 . S
C3431 H3446 0.961 . S
C3431 H3447 0.961 . S
C3432 C3433 1.370 . S
C3432 C3434 1.363 . S
C3432 H3448 0.931 . S
C3433 C3432 1.370 . S
C3433 C3437 1.408 . S
C3434 C3432 1.363 . S
C3434 C3435 1.370 . S
C3434 C3438 1.524 . S
C3435 C3427 1.503 . S
C3435 C3434 1.370 . S
C3435 C3436 1.403 . S
C3436 C3435 1.403 . S
C3436 C3437 1.404 . S
C3436 C3439 1.539 . S
C3437 C3433 1.408 . S
C3437 C3436 1.404 . S
C3437 H3449 0.930 . S
C3438 C3434 1.524 . S
C3438 H3450 0.956 . S
C3438 H3451 0.961 . S
C3438 H3452 0.961 . S
C3439 C3436 1.539 . S
C3439 H3453 0.958 . S
C3439 H3454 0.961 . S
C3439 H3455 0.960 . S
H3440 C3424 0.931 . S
H3441 C3429 0.929 . S
H3442 C3430 0.960 . S
H3443 C3430 0.962 . S
H3444 C3430 0.960 . S
H3445 C3431 0.961 . S
H3446 C3431 0.961 . S
H3447 C3431 0.961 . S
H3448 C3432 0.931 . S
H3449 C3437 0.930 . S
H3450 C3438 0.956 . S
H3451 C3438 0.961 . S
H3452 C3438 0.961 . S
H3453 C3439 0.958 . S
H3454 C3439 0.961 . S
H3455 C3439 0.960 . S
C3456 C3457 1.391 . S
C3456 C3458 1.394 . S
C3456 H3472 0.931 . S
C3457 C3456 1.391 . S
C3457 C3461 1.376 . S
C3458 C3456 1.394 . S
C3458 C3459 1.369 . S
C3458 C3462 1.531 . S
C3459 C3458 1.369 . S
C3459 C3460 1.410 . S
C3459 C3467 1.503 . S
C3460 C3459 1.410 . S
C3460 C3461 1.392 . S
C3460 C3463 1.511 . S
C3461 C3457 1.376 . S
C3461 C3460 1.392 . S
C3461 H3473 0.929 . S
C3462 C3458 1.531 . S
C3462 H3474 0.960 . S
C3462 H3475 0.962 . S
C3462 H3476 0.960 . S
C3463 C3460 1.511 . S
C3463 H3477 0.961 . S
C3463 H3478 0.961 . S
C3463 H3479 0.961 . S
C3464 C3465 1.370 . S
C3464 C3466 1.363 . S
C3464 H3480 0.931 . S
C3465 C3464 1.370 . S
C3465 C3469 1.408 . S
C3466 C3464 1.363 . S
C3466 C3467 1.370 . S
C3466 C3470 1.524 . S
C3467 C3459 1.503 . S
C3467 C3466 1.370 . S
C3467 C3468 1.403 . S
C3468 C3467 1.403 . S
C3468 C3469 1.404 . S
C3468 C3471 1.539 . S
C3469 C3465 1.408 . S
C3469 C3468 1.404 . S
C3469 H3481 0.930 . S
C3470 C3466 1.524 . S
C3470 H3482 0.956 . S
C3470 H3483 0.961 . S
C3470 H3484 0.961 . S
C3471 C3468 1.539 . S
C3471 H3485 0.958 . S
C3471 H3486 0.961 . S
C3471 H3487 0.960 . S
H3472 C3456 0.931 . S
H3473 C3461 0.929 . S
H3474 C3462 0.960 . S
H3475 C3462 0.962 . S
H3476 C3462 0.960 . S
H3477 C3463 0.961 . S
H3478 C3463 0.961 . S
H3479 C3463 0.961 . S
H3480 C3464 0.931 . S
H3481 C3469 0.930 . S
H3482 C3470 0.956 . S
H3483 C3470 0.961 . S
H3484 C3470 0.961 . S
H3485 C3471 0.958 . S
H3486 C3471 0.961 . S
H3487 C3471 0.960 . S
C3488 C3489 1.391 . S
C3488 C3490 1.394 . S
C3488 H3504 0.931 . S
C3489 C3488 1.391 . S
C3489 C3493 1.376 . S
C3490 C3488 1.394 . S
C3490 C3491 1.369 . S
C3490 C3494 1.531 . S
C3491 C3490 1.369 . S
C3491 C3492 1.410 . S
C3491 C3499 1.503 . S
C3492 C3491 1.410 . S
C3492 C3493 1.392 . S
C3492 C3495 1.511 . S
C3493 C3489 1.376 . S
C3493 C3492 1.392 . S
C3493 H3505 0.929 . S
C3494 C3490 1.531 . S
C3494 H3506 0.960 . S
C3494 H3507 0.962 . S
C3494 H3508 0.960 . S
C3495 C3492 1.511 . S
C3495 H3509 0.961 . S
C3495 H3510 0.961 . S
C3495 H3511 0.961 . S
C3496 C3497 1.370 . S
C3496 C3498 1.363 . S
C3496 H3512 0.931 . S
C3497 C3496 1.370 . S
C3497 C3501 1.408 . S
C3498 C3496 1.363 . S
C3498 C3499 1.370 . S
C3498 C3502 1.524 . S
C3499 C3491 1.503 . S
C3499 C3498 1.370 . S
C3499 C3500 1.403 . S
C3500 C3499 1.403 . S
C3500 C3501 1.404 . S
C3500 C3503 1.539 . S
C3501 C3497 1.408 . S
C3501 C3500 1.404 . S
C3501 H3513 0.930 . S
C3502 C3498 1.524 . S
C3502 H3514 0.956 . S
C3502 H3515 0.961 . S
C3502 H3516 0.961 . S
C3503 C3500 1.539 . S
C3503 H3517 0.958 . S
C3503 H3518 0.961 . S
C3503 H3519 0.960 . S
H3504 C3488 0.931 . S
H3505 C3493 0.929 . S
H3506 C3494 0.960 . S
H3507 C3494 0.962 . S
H3508 C3494 0.960 . S
H3509 C3495 0.961 . S
H3510 C3495 0.961 . S
H3511 C3495 0.961 . S
H3512 C3496 0.931 . S
H3513 C3501 0.930 . S
H3514 C3502 0.956 . S
H3515 C3502 0.961 . S
H3516 C3502 0.961 . S
H3517 C3503 0.958 . S
H3518 C3503 0.961 . S
H3519 C3503 0.960 . S
C3520 C3521 1.391 . S
C3520 C3522 1.394 . S
C3520 H3536 0.931 . S
C3521 C3520 1.391 . S
C3521 C3525 1.376 . S
C3522 C3520 1.394 . S
C3522 C3523 1.369 . S
C3522 C3526 1.531 . S
C3523 C3522 1.369 . S
C3523 C3524 1.410 . S
C3523 C3531 1.503 . S
C3524 C3523 1.410 . S
C3524 C3525 1.392 . S
C3524 C3527 1.511 . S
C3525 C3521 1.376 . S
C3525 C3524 1.392 . S
C3525 H3537 0.929 . S
C3526 C3522 1.531 . S
C3526 H3538 0.960 . S
C3526 H3539 0.962 . S
C3526 H3540 0.960 . S
C3527 C3524 1.511 . S
C3527 H3541 0.961 . S
C3527 H3542 0.961 . S
C3527 H3543 0.961 . S
C3528 C3529 1.370 . S
C3528 C3530 1.363 . S
C3528 H3544 0.931 . S
C3529 C3528 1.370 . S
C3529 C3533 1.408 . S
C3530 C3528 1.363 . S
C3530 C3531 1.370 . S
C3530 C3534 1.524 . S
C3531 C3523 1.503 . S
C3531 C3530 1.370 . S
C3531 C3532 1.403 . S
C3532 C3531 1.403 . S
C3532 C3533 1.404 . S
C3532 C3535 1.539 . S
C3533 C3529 1.408 . S
C3533 C3532 1.404 . S
C3533 H3545 0.930 . S
C3534 C3530 1.524 . S
C3534 H3546 0.956 . S
C3534 H3547 0.961 . S
C3534 H3548 0.961 . S
C3535 C3532 1.539 . S
C3535 H3549 0.958 . S
C3535 H3550 0.961 . S
C3535 H3551 0.960 . S
H3536 C3520 0.931 . S
H3537 C3525 0.929 . S
H3538 C3526 0.960 . S
H3539 C3526 0.962 . S
H3540 C3526 0.960 . S
H3541 C3527 0.961 . S
H3542 C3527 0.961 . S
H3543 C3527 0.961 . S
H3544 C3528 0.931 . S
H3545 C3533 0.930 . S
H3546 C3534 0.956 . S
H3547 C3534 0.961 . S
H3548 C3534 0.961 . S
H3549 C3535 0.958 . S
H3550 C3535 0.961 . S
H3551 C3535 0.960 . S
C3552 C3553 1.391 . S
C3552 C3554 1.394 . S
C3552 H3568 0.931 . S
C3553 C3552 1.391 . S
C3553 C3557 1.376 . S
C3554 C3552 1.394 . S
C3554 C3555 1.369 . S
C3554 C3558 1.531 . S
C3555 C3554 1.369 . S
C3555 C3556 1.410 . S
C3555 C3563 1.503 . S
C3556 C3555 1.410 . S
C3556 C3557 1.392 . S
C3556 C3559 1.511 . S
C3557 C3553 1.376 . S
C3557 C3556 1.392 . S
C3557 H3569 0.929 . S
C3558 C3554 1.531 . S
C3558 H3570 0.960 . S
C3558 H3571 0.962 . S
C3558 H3572 0.960 . S
C3559 C3556 1.511 . S
C3559 H3573 0.961 . S
C3559 H3574 0.961 . S
C3559 H3575 0.961 . S
C3560 C3561 1.370 . S
C3560 C3562 1.363 . S
C3560 H3576 0.931 . S
C3561 C3560 1.370 . S
C3561 C3565 1.408 . S
C3562 C3560 1.363 . S
C3562 C3563 1.370 . S
C3562 C3566 1.524 . S
C3563 C3555 1.503 . S
C3563 C3562 1.370 . S
C3563 C3564 1.403 . S
C3564 C3563 1.403 . S
C3564 C3565 1.404 . S
C3564 C3567 1.539 . S
C3565 C3561 1.408 . S
C3565 C3564 1.404 . S
C3565 H3577 0.930 . S
C3566 C3562 1.524 . S
C3566 H3578 0.956 . S
C3566 H3579 0.961 . S
C3566 H3580 0.961 . S
C3567 C3564 1.539 . S
C3567 H3581 0.958 . S
C3567 H3582 0.961 . S
C3567 H3583 0.960 . S
H3568 C3552 0.931 . S
H3569 C3557 0.929 . S
H3570 C3558 0.960 . S
H3571 C3558 0.962 . S
H3572 C3558 0.960 . S
H3573 C3559 0.961 . S
H3574 C3559 0.961 . S
H3575 C3559 0.961 . S
H3576 C3560 0.931 . S
H3577 C3565 0.930 . S
H3578 C3566 0.956 . S
H3579 C3566 0.961 . S
H3580 C3566 0.961 . S
H3581 C3567 0.958 . S
H3582 C3567 0.961 . S
H3583 C3567 0.960 . S
C3584 C3585 1.391 . S
C3584 C3586 1.394 . S
C3584 H3600 0.931 . S
C3585 C3584 1.391 . S
C3585 C3589 1.376 1_554 S
C3586 C3584 1.394 . S
C3586 C3587 1.370 1_554 S
C3586 C3590 1.531 . S
C3587 C3586 1.370 1_556 S
C3587 C3588 1.408 . S
C3587 C3595 1.503 . S
C3588 C3587 1.408 . S
C3588 C3589 1.392 . S
C3588 C3591 1.511 . S
C3589 C3585 1.376 1_556 S
C3589 C3588 1.392 . S
C3589 H3601 0.929 . S
C3590 C3586 1.531 . S
C3590 H3602 0.960 . S
C3590 H3603 0.962 . S
C3590 H3604 0.960 . S
C3591 C3588 1.511 . S
C3591 H3605 0.961 . S
C3591 H3606 0.961 . S
C3591 H3607 0.961 . S
C3592 C3593 1.372 1_554 S
C3592 C3594 1.363 . S
C3592 H3608 0.930 . S
C3593 C3592 1.372 1_556 S
C3593 C3597 1.408 . S
C3594 C3592 1.363 . S
C3594 C3595 1.370 1_554 S
C3594 C3598 1.524 . S
C3595 C3587 1.503 . S
C3595 C3594 1.370 1_556 S
C3595 C3596 1.403 . S
C3596 C3595 1.403 . S
C3596 C3597 1.404 . S
C3596 C3599 1.539 . S
C3597 C3593 1.408 . S
C3597 C3596 1.404 . S
C3597 H3609 0.953 . S
C3598 C3594 1.524 . S
C3598 H3610 0.956 . S
C3598 H3611 0.961 1_554 S
C3598 H3612 0.961 . S
C3599 C3596 1.539 . S
C3599 H3613 0.991 . S
C3599 H3614 0.960 . S
C3599 H3615 0.960 . S
H3600 C3584 0.931 . S
H3601 C3589 0.929 . S
H3602 C3590 0.960 . S
H3603 C3590 0.962 . S
H3604 C3590 0.960 . S
H3605 C3591 0.961 . S
H3606 C3591 0.961 . S
H3607 C3591 0.961 . S
H3608 C3592 0.930 . S
H3609 C3597 0.953 . S
H3610 C3598 0.956 . S
H3611 C3598 0.961 1_556 S
H3612 C3598 0.961 . S
H3613 C3599 0.991 . S
H3614 C3599 0.960 . S
H3615 C3599 0.960 . S
C3616 C3617 1.391 . S
C3616 C3618 1.394 . S
C3616 H3632 0.931 . S
C3617 C3616 1.391 . S
C3617 C3621 1.376 . S
C3618 C3616 1.394 . S
C3618 C3619 1.369 . S
C3618 C3622 1.531 . S
C3619 C3618 1.369 . S
C3619 C3620 1.410 . S
C3619 C3627 1.503 . S
C3620 C3619 1.410 . S
C3620 C3621 1.392 . S
C3620 C3623 1.511 . S
C3621 C3617 1.376 . S
C3621 C3620 1.392 . S
C3621 H3633 0.929 . S
C3622 C3618 1.531 . S
C3622 H3634 0.960 . S
C3622 H3635 0.962 . S
C3622 H3636 0.960 . S
C3623 C3620 1.511 . S
C3623 H3637 0.961 . S
C3623 H3638 0.961 . S
C3623 H3639 0.961 . S
C3624 C3625 1.370 . S
C3624 C3626 1.363 . S
C3624 H3640 0.931 . S
C3625 C3624 1.370 . S
C3625 C3629 1.408 . S
C3626 C3624 1.363 . S
C3626 C3627 1.370 . S
C3626 C3630 1.524 . S
C3627 C3619 1.503 . S
C3627 C3626 1.370 . S
C3627 C3628 1.403 . S
C3628 C3627 1.403 . S
C3628 C3629 1.404 . S
C3628 C3631 1.539 . S
C3629 C3625 1.408 . S
C3629 C3628 1.404 . S
C3629 H3641 0.930 . S
C3630 C3626 1.524 . S
C3630 H3642 0.956 . S
C3630 H3643 0.961 . S
C3630 H3644 0.961 . S
C3631 C3628 1.539 . S
C3631 H3645 0.958 . S
C3631 H3646 0.961 . S
C3631 H3647 0.960 . S
H3632 C3616 0.931 . S
H3633 C3621 0.929 . S
H3634 C3622 0.960 . S
H3635 C3622 0.962 . S
H3636 C3622 0.960 . S
H3637 C3623 0.961 . S
H3638 C3623 0.961 . S
H3639 C3623 0.961 . S
H3640 C3624 0.931 . S
H3641 C3629 0.930 . S
H3642 C3630 0.956 . S
H3643 C3630 0.961 . S
H3644 C3630 0.961 . S
H3645 C3631 0.958 . S
H3646 C3631 0.961 . S
H3647 C3631 0.960 . S
C3648 C3649 1.391 . S
C3648 C3650 1.394 . S
C3648 H3664 0.931 . S
C3649 C3648 1.391 . S
C3649 C3653 1.376 1_554 S
C3650 C3648 1.394 . S
C3650 C3651 1.369 . S
C3650 C3654 1.531 . S
C3651 C3650 1.369 . S
C3651 C3652 1.410 1_554 S
C3651 C3659 1.503 . S
C3652 C3651 1.410 1_556 S
C3652 C3653 1.392 . S
C3652 C3655 1.511 . S
C3653 C3649 1.376 1_556 S
C3653 C3652 1.392 . S
C3653 H3665 0.929 . S
C3654 C3650 1.531 . S
C3654 H3666 0.960 . S
C3654 H3667 0.962 . S
C3654 H3668 0.960 . S
C3655 C3652 1.511 . S
C3655 H3669 0.961 . S
C3655 H3670 0.961 . S
C3655 H3671 0.961 . S
C3656 C3657 1.370 1_556 S
C3656 C3658 1.363 . S
C3656 H3672 0.931 . S
C3657 C3656 1.370 1_554 S
C3657 C3661 1.408 . S
C3658 C3656 1.363 . S
C3658 C3659 1.370 1_556 S
C3658 C3662 1.524 . S
C3659 C3651 1.503 . S
C3659 C3658 1.370 1_554 S
C3659 C3660 1.403 . S
C3660 C3659 1.403 . S
C3660 C3661 1.404 . S
C3660 C3663 1.539 . S
C3661 C3657 1.408 . S
C3661 C3660 1.404 . S
C3661 H3673 0.930 . S
C3662 C3658 1.524 . S
C3662 H3674 0.956 . S
C3662 H3675 0.961 . S
C3662 H3676 0.961 . S
C3663 C3660 1.539 . S
C3663 H3677 0.958 . S
C3663 H3678 0.961 . S
C3663 H3679 0.960 . S
H3664 C3648 0.931 . S
H3665 C3653 0.929 . S
H3666 C3654 0.960 . S
H3667 C3654 0.962 . S
H3668 C3654 0.960 . S
H3669 C3655 0.961 . S
H3670 C3655 0.961 . S
H3671 C3655 0.961 . S
H3672 C3656 0.931 . S
H3673 C3661 0.930 . S
H3674 C3662 0.956 . S
H3675 C3662 0.961 . S
H3676 C3662 0.961 . S
H3677 C3663 0.958 . S
H3678 C3663 0.961 . S
H3679 C3663 0.960 . S
C3680 C3681 1.391 . S
C3680 C3682 1.394 . S
C3680 H3696 0.931 . S
C3681 C3680 1.391 . S
C3681 C3685 1.376 . S
C3682 C3680 1.394 . S
C3682 C3683 1.369 . S
C3682 C3686 1.531 . S
C3683 C3682 1.369 . S
C3683 C3684 1.410 . S
C3683 C3691 1.503 . S
C3684 C3683 1.410 . S
C3684 C3685 1.392 . S
C3684 C3687 1.511 . S
C3685 C3681 1.376 . S
C3685 C3684 1.392 . S
C3685 H3697 0.929 . S
C3686 C3682 1.531 . S
C3686 H3698 0.960 . S
C3686 H3699 0.962 . S
C3686 H3700 0.960 . S
C3687 C3684 1.511 . S
C3687 H3701 0.961 . S
C3687 H3702 0.961 . S
C3687 H3703 0.961 . S
C3688 C3689 1.370 . S
C3688 C3690 1.363 . S
C3688 H3704 0.931 . S
C3689 C3688 1.370 . S
C3689 C3693 1.408 . S
C3690 C3688 1.363 . S
C3690 C3691 1.370 . S
C3690 C3694 1.524 . S
C3691 C3683 1.503 . S
C3691 C3690 1.370 . S
C3691 C3692 1.403 . S
C3692 C3691 1.403 . S
C3692 C3693 1.404 . S
C3692 C3695 1.539 . S
C3693 C3689 1.408 . S
C3693 C3692 1.404 . S
C3693 H3705 0.930 . S
C3694 C3690 1.524 . S
C3694 H3706 0.956 . S
C3694 H3707 0.961 . S
C3694 H3708 0.961 . S
C3695 C3692 1.539 . S
C3695 H3709 0.958 . S
C3695 H3710 0.961 . S
C3695 H3711 0.960 . S
H3696 C3680 0.931 . S
H3697 C3685 0.929 . S
H3698 C3686 0.960 . S
H3699 C3686 0.962 . S
H3700 C3686 0.960 . S
H3701 C3687 0.961 . S
H3702 C3687 0.961 . S
H3703 C3687 0.961 . S
H3704 C3688 0.931 . S
H3705 C3693 0.930 . S
H3706 C3694 0.956 . S
H3707 C3694 0.961 . S
H3708 C3694 0.961 . S
H3709 C3695 0.958 . S
H3710 C3695 0.961 . S
H3711 C3695 0.960 . S
C3712 C3713 1.391 . S
C3712 C3714 1.394 . S
C3712 H3728 0.931 . S
C3713 C3712 1.391 . S
C3713 C3717 1.376 . S
C3714 C3712 1.394 . S
C3714 C3715 1.369 . S
C3714 C3718 1.531 . S
C3715 C3714 1.369 . S
C3715 C3716 1.410 . S
C3715 C3723 1.503 . S
C3716 C3715 1.410 . S
C3716 C3717 1.392 . S
C3716 C3719 1.511 . S
C3717 C3713 1.376 . S
C3717 C3716 1.392 . S
C3717 H3729 0.929 . S
C3718 C3714 1.531 . S
C3718 H3730 0.960 . S
C3718 H3731 0.962 . S
C3718 H3732 0.960 . S
C3719 C3716 1.511 . S
C3719 H3733 0.961 . S
C3719 H3734 0.961 . S
C3719 H3735 0.961 . S
C3720 C3721 1.370 . S
C3720 C3722 1.363 . S
C3720 H3736 0.931 . S
C3721 C3720 1.370 . S
C3721 C3725 1.408 . S
C3722 C3720 1.363 . S
C3722 C3723 1.370 . S
C3722 C3726 1.524 . S
C3723 C3715 1.503 . S
C3723 C3722 1.370 . S
C3723 C3724 1.403 . S
C3724 C3723 1.403 . S
C3724 C3725 1.404 . S
C3724 C3727 1.539 . S
C3725 C3721 1.408 . S
C3725 C3724 1.404 . S
C3725 H3737 0.930 . S
C3726 C3722 1.524 . S
C3726 H3738 0.956 . S
C3726 H3739 0.961 . S
C3726 H3740 0.961 . S
C3727 C3724 1.539 . S
C3727 H3741 0.958 . S
C3727 H3742 0.961 . S
C3727 H3743 0.960 . S
H3728 C3712 0.931 . S
H3729 C3717 0.929 . S
H3730 C3718 0.960 . S
H3731 C3718 0.962 . S
H3732 C3718 0.960 . S
H3733 C3719 0.961 . S
H3734 C3719 0.961 . S
H3735 C3719 0.961 . S
H3736 C3720 0.931 . S
H3737 C3725 0.930 . S
H3738 C3726 0.956 . S
H3739 C3726 0.961 . S
H3740 C3726 0.961 . S
H3741 C3727 0.958 . S
H3742 C3727 0.961 . S
H3743 C3727 0.960 . S
C681 C352 1.259 . S
C673 C5 1.380 . S
C705 C23 1.235 . S
C713 C372 1.188 . S
C737 C39 1.296 . S
C745 C394 1.191 . S
C777 C413 1.328 . S
C769 C42 1.334 . S
C801 C19 1.373 . S
C809 C434 1.359 . S
C841 C457 1.267 . S
C833 C28 1.370 . S
C873 C480 1.162 . S
C865 C53 1.162 . S
C897 C9 1.312 . S
C905 C498 1.283 . S
C929 C65 1.354 . S
C937 C354 1.328 . S
C961 C75 1.363 . S
C969 C374 1.337 . S
C1001 C396 1.227 . S
C993 C93 1.274 . S
C1033 C415 1.228 . S
C1025 C109 1.319 . S
C1057 C56 1.417 . S
C1065 C436 1.322 . S
C1097 C459 1.080 . S
C1089 C81 1.129 . S
C1129 C476 1.365 . S
C1121 C84 1.393 . S
C1161 C500 1.302 . S
C1153 C103 1.316 . S
C1193 C350 1.276 . S
C1185 C107 1.315 . S
C1225 C522 1.190 . S
C1217 C121 1.211 . S
C1249 C131 1.393 . S
C1257 C539 1.367 . S
C1289 C562 1.290 . S
C1281 C140 1.399 . S
C1313 C61 1.390 . S
C1321 C496 1.294 . S
C1353 C392 1.316 . S
C1345 C70 1.324 . S
C1377 C137 1.159 . S
C1385 C585 1.130 . S
C1417 C601 1.159 . S
C1409 C165 1.261 . S
C1441 C173 1.322 . S
C1449 C349 1.238 . S
C1481 C602 1.226 . S
C1473 C182 1.270 . S
C1505 C207 1.358 . S
C1513 C391 1.274 . S
C1537 C219 1.211 . S
C1545 C582 1.192 . S
C1577 C435 1.193 . S
C1569 C187 1.246 . S
C1609 C538 1.259 . S
C1601 C205 1.345 . S
C1641 C479 1.262 . S
C1633 C221 1.264 . S
C1673 C623 1.337 . S
C1665 C168 1.341 . S
C1705 C353 1.350 . S
C1697 C224 1.389 1_545 S
C1729 C243 1.202 . S
C1737 C606 1.172 . S
C1769 C395 1.294 . S
C1761 C252 1.290 . S
C1793 C277 1.243 . S
C1801 C580 1.155 . S
C1825 C233 1.383 . S
C1833 C433 1.292 . S
C1857 C249 1.242 . S
C1865 C542 1.237 . S
C1897 C477 1.202 . S
C1889 C261 1.251 . S
C1921 C271 1.267 . S
C1929 C627 1.237 . S
C1953 C266 1.255 . S
C1961 C351 1.230 . S
C1985 C280 1.313 1_556 S
C1993 C521 1.274 . S
C2017 C299 1.241 . S
C2025 C456 1.215 . S
C2049 C317 1.330 . S
C2057 C559 1.220 . S
C2089 C625 1.243 . S
C2081 C229 1.332 . S
C2121 C393 1.191 . S
C2113 C247 1.209 . S
C2153 C416 1.251 . S
C2145 C305 1.260 . S
C2185 C373 1.237 . S
C2177 C333 1.331 . S
C2209 C33 1.374 . S
C2217 C646 1.281 . S
C2249 C603 1.194 . S
C2241 C51 1.210 . S
C2281 C667 1.216 . S
C2273 C11 1.309 . S
C2305 C14 1.347 . S
C2313 C581 1.340 . S
C2337 C47 1.369 . S
C2345 C518 1.336 . S
C2377 C541 1.267 . S
C2369 C0 1.365 . S
C2409 C564 1.160 . S
C2401 C25 1.176 . S
C2441 C624 1.292 . S
C2433 C37 1.329 . S
C2473 C648 1.317 . S
C2465 C163 1.345 . S
C2497 C117 1.363 . S
C2505 C605 1.336 . S
C2529 C135 1.263 . S
C2537 C669 1.221 . S
C2569 C583 1.250 . S
C2561 C151 1.321 . S
C2601 C520 1.319 . S
C2593 C154 1.419 . S
C2625 C123 1.117 . S
C2633 C543 1.106 . S
C2665 C560 1.358 . S
C2657 C126 1.391 . S
C2689 C145 1.319 . S
C2697 C626 1.301 . S
C2729 C644 1.283 . S
C2721 C149 1.316 . S
C2761 C438 1.159 . S
C2753 C79 1.199 . S
C2793 C455 1.361 . S
C2785 C89 1.391 . S
C2817 C98 1.387 . S
C2825 C478 1.285 . S
C2857 C622 1.278 . S
C2849 C159 1.391 . S
C2881 C112 1.326 1_556 S
C2889 C665 1.325 . S
C2921 C417 1.149 . S
C2913 C95 1.155 . S
C2953 C370 1.159 . S
C2945 C67 1.261 . S
C2977 C201 1.324 . S
C2985 C643 1.244 . S
C3017 C371 1.229 . S
C3009 C210 1.264 . S
C3049 C664 1.239 . S
C3041 C179 1.341 . S
C3073 C191 1.211 . S
C3081 C414 1.194 . S
C3105 C215 1.236 . S
C3113 C519 1.194 . S
C3137 C177 1.357 . S
C3145 C454 1.226 . S
C3169 C193 1.279 . S
C3177 C563 1.243 . S
C3201 C196 1.354 . S
C3209 C497 1.322 . S
C3241 C647 1.371 . S
C3233 C322 1.375 . S
C3265 C285 1.210 . S
C3273 C375 1.191 . S
C3305 C668 1.287 . S
C3297 C294 1.289 . S
C3329 C319 1.243 . S
C3337 C412 1.157 . S
C3361 C331 1.388 . S
C3369 C517 1.282 . S
C3401 C458 1.233 . S
C3393 C291 1.236 . S
C3425 C303 1.250 . S
C3433 C561 1.203 . S
C3465 C501 1.224 . S
C3457 C313 1.256 . S
C3497 C645 1.206 . S
C3489 C308 1.236 . S
C3529 C437 1.283 . S
C3521 C238 1.308 . S
C3553 C257 1.254 . S
C3561 C540 1.200 . S
C3593 C475 1.222 . S
C3585 C275 1.336 . S
C3625 C499 1.231 . S
C3617 C327 1.331 . S
C3649 C289 1.207 . S
C3657 C666 1.192 . S
C3689 C584 1.230 . S
C3681 C263 1.269 . S
C3721 C604 1.236 . S
C3713 C235 1.331 . S
