# Generated by pormake.
# Topology gar, (4,6)-cn, num edge types: 1
# Building blocks:
#     Node 0, Type 0, BuildingBlock: CEKHIL_clean_sbu_0, # of connection points: 4
#     Node 1, Type 0, BuildingBlock: CEKHIL_clean_sbu_0, # of connection points: 4
#     Node 2, Type 0, BuildingBlock: CEKHIL_clean_sbu_0, # of connection points: 4
#     Node 3, Type 0, BuildingBlock: CEKHIL_clean_sbu_0, # of connection points: 4
#     Node 4, Type 0, BuildingBlock: CEKHIL_clean_sbu_0, # of connection points: 4
#     Node 5, Type 0, BuildingBlock: CEKHIL_clean_sbu_0, # of connection points: 4
#     Node 6, Type 0, BuildingBlock: CEKHIL_clean_sbu_0, # of connection points: 4
#     Node 7, Type 0, BuildingBlock: CEKHIL_clean_sbu_0, # of connection points: 4
#     Node 8, Type 0, BuildingBlock: CEKHIL_clean_sbu_0, # of connection points: 4
#     Node 9, Type 0, BuildingBlock: CEKHIL_clean_sbu_0, # of connection points: 4
#     Node 10, Type 0, BuildingBlock: CEKHIL_clean_sbu_0, # of connection points: 4
#     Node 11, Type 0, BuildingBlock: CEKHIL_clean_sbu_0, # of connection points: 4
#     Node 12, Type 0, BuildingBlock: CEKHIL_clean_sbu_0, # of connection points: 4
#     Node 13, Type 0, BuildingBlock: CEKHIL_clean_sbu_0, # of connection points: 4
#     Node 14, Type 0, BuildingBlock: CEKHIL_clean_sbu_0, # of connection points: 4
#     Node 15, Type 0, BuildingBlock: CEKHIL_clean_sbu_0, # of connection points: 4
#     Node 16, Type 0, BuildingBlock: CEKHIL_clean_sbu_0, # of connection points: 4
#     Node 17, Type 0, BuildingBlock: CEKHIL_clean_sbu_0, # of connection points: 4
#     Node 18, Type 0, BuildingBlock: CEKHIL_clean_sbu_0, # of connection points: 4
#     Node 19, Type 0, BuildingBlock: CEKHIL_clean_sbu_0, # of connection points: 4
#     Node 20, Type 0, BuildingBlock: CEKHIL_clean_sbu_0, # of connection points: 4
#     Node 21, Type 0, BuildingBlock: CEKHIL_clean_sbu_0, # of connection points: 4
#     Node 22, Type 0, BuildingBlock: CEKHIL_clean_sbu_0, # of connection points: 4
#     Node 23, Type 0, BuildingBlock: CEKHIL_clean_sbu_0, # of connection points: 4
#     Node 24, Type 1, BuildingBlock: CUKXOW_clean_sbu_0, # of connection points: 6
#     Node 25, Type 1, BuildingBlock: CUKXOW_clean_sbu_0, # of connection points: 6
#     Node 26, Type 1, BuildingBlock: CUKXOW_clean_sbu_0, # of connection points: 6
#     Node 27, Type 1, BuildingBlock: CUKXOW_clean_sbu_0, # of connection points: 6
#     Node 28, Type 1, BuildingBlock: CUKXOW_clean_sbu_0, # of connection points: 6
#     Node 29, Type 1, BuildingBlock: CUKXOW_clean_sbu_0, # of connection points: 6
#     Node 30, Type 1, BuildingBlock: CUKXOW_clean_sbu_0, # of connection points: 6
#     Node 31, Type 1, BuildingBlock: CUKXOW_clean_sbu_0, # of connection points: 6
#     Node 32, Type 1, BuildingBlock: CUKXOW_clean_sbu_0, # of connection points: 6
#     Node 33, Type 1, BuildingBlock: CUKXOW_clean_sbu_0, # of connection points: 6
#     Node 34, Type 1, BuildingBlock: CUKXOW_clean_sbu_0, # of connection points: 6
#     Node 35, Type 1, BuildingBlock: CUKXOW_clean_sbu_0, # of connection points: 6
#     Node 36, Type 1, BuildingBlock: CUKXOW_clean_sbu_0, # of connection points: 6
#     Node 37, Type 1, BuildingBlock: CUKXOW_clean_sbu_0, # of connection points: 6
#     Node 38, Type 1, BuildingBlock: CUKXOW_clean_sbu_0, # of connection points: 6
#     Node 39, Type 1, BuildingBlock: CUKXOW_clean_sbu_0, # of connection points: 6
#     Edge 40, Type (0, 1), BuildingBlock: TEMPAE_clean_linker_10, # of connection points: 2
#     Edge 41, Type (0, 1), BuildingBlock: TEMPAE_clean_linker_10, # of connection points: 2
#     Edge 42, Type (0, 1), BuildingBlock: TEMPAE_clean_linker_10, # of connection points: 2
#     Edge 43, Type (0, 1), BuildingBlock: TEMPAE_clean_linker_10, # of connection points: 2
#     Edge 44, Type (0, 1), BuildingBlock: TEMPAE_clean_linker_10, # of connection points: 2
#     Edge 45, Type (0, 1), BuildingBlock: TEMPAE_clean_linker_10, # of connection points: 2
#     Edge 46, Type (0, 1), BuildingBlock: TEMPAE_clean_linker_10, # of connection points: 2
#     Edge 47, Type (0, 1), BuildingBlock: TEMPAE_clean_linker_10, # of connection points: 2
#     Edge 48, Type (0, 1), BuildingBlock: TEMPAE_clean_linker_10, # of connection points: 2
#     Edge 49, Type (0, 1), BuildingBlock: TEMPAE_clean_linker_10, # of connection points: 2
#     Edge 50, Type (0, 1), BuildingBlock: TEMPAE_clean_linker_10, # of connection points: 2
#     Edge 51, Type (0, 1), BuildingBlock: TEMPAE_clean_linker_10, # of connection points: 2
#     Edge 52, Type (0, 1), BuildingBlock: TEMPAE_clean_linker_10, # of connection points: 2
#     Edge 53, Type (0, 1), BuildingBlock: TEMPAE_clean_linker_10, # of connection points: 2
#     Edge 54, Type (0, 1), BuildingBlock: TEMPAE_clean_linker_10, # of connection points: 2
#     Edge 55, Type (0, 1), BuildingBlock: TEMPAE_clean_linker_10, # of connection points: 2
#     Edge 56, Type (0, 1), BuildingBlock: TEMPAE_clean_linker_10, # of connection points: 2
#     Edge 57, Type (0, 1), BuildingBlock: TEMPAE_clean_linker_10, # of connection points: 2
#     Edge 58, Type (0, 1), BuildingBlock: TEMPAE_clean_linker_10, # of connection points: 2
#     Edge 59, Type (0, 1), BuildingBlock: TEMPAE_clean_linker_10, # of connection points: 2
#     Edge 60, Type (0, 1), BuildingBlock: TEMPAE_clean_linker_10, # of connection points: 2
#     Edge 61, Type (0, 1), BuildingBlock: TEMPAE_clean_linker_10, # of connection points: 2
#     Edge 62, Type (0, 1), BuildingBlock: TEMPAE_clean_linker_10, # of connection points: 2
#     Edge 63, Type (0, 1), BuildingBlock: TEMPAE_clean_linker_10, # of connection points: 2
#     Edge 64, Type (0, 1), BuildingBlock: TEMPAE_clean_linker_10, # of connection points: 2
#     Edge 65, Type (0, 1), BuildingBlock: TEMPAE_clean_linker_10, # of connection points: 2
#     Edge 66, Type (0, 1), BuildingBlock: TEMPAE_clean_linker_10, # of connection points: 2
#     Edge 67, Type (0, 1), BuildingBlock: TEMPAE_clean_linker_10, # of connection points: 2
#     Edge 68, Type (0, 1), BuildingBlock: TEMPAE_clean_linker_10, # of connection points: 2
#     Edge 69, Type (0, 1), BuildingBlock: TEMPAE_clean_linker_10, # of connection points: 2
#     Edge 70, Type (0, 1), BuildingBlock: TEMPAE_clean_linker_10, # of connection points: 2
#     Edge 71, Type (0, 1), BuildingBlock: TEMPAE_clean_linker_10, # of connection points: 2
#     Edge 72, Type (0, 1), BuildingBlock: TEMPAE_clean_linker_10, # of connection points: 2
#     Edge 73, Type (0, 1), BuildingBlock: TEMPAE_clean_linker_10, # of connection points: 2
#     Edge 74, Type (0, 1), BuildingBlock: TEMPAE_clean_linker_10, # of connection points: 2
#     Edge 75, Type (0, 1), BuildingBlock: TEMPAE_clean_linker_10, # of connection points: 2
#     Edge 76, Type (0, 1), BuildingBlock: TEMPAE_clean_linker_10, # of connection points: 2
#     Edge 77, Type (0, 1), BuildingBlock: TEMPAE_clean_linker_10, # of connection points: 2
#     Edge 78, Type (0, 1), BuildingBlock: TEMPAE_clean_linker_10, # of connection points: 2
#     Edge 79, Type (0, 1), BuildingBlock: TEMPAE_clean_linker_10, # of connection points: 2
#     Edge 80, Type (0, 1), BuildingBlock: TEMPAE_clean_linker_10, # of connection points: 2
#     Edge 81, Type (0, 1), BuildingBlock: TEMPAE_clean_linker_10, # of connection points: 2
#     Edge 82, Type (0, 1), BuildingBlock: TEMPAE_clean_linker_10, # of connection points: 2
#     Edge 83, Type (0, 1), BuildingBlock: TEMPAE_clean_linker_10, # of connection points: 2
#     Edge 84, Type (0, 1), BuildingBlock: TEMPAE_clean_linker_10, # of connection points: 2
#     Edge 85, Type (0, 1), BuildingBlock: TEMPAE_clean_linker_10, # of connection points: 2
#     Edge 86, Type (0, 1), BuildingBlock: TEMPAE_clean_linker_10, # of connection points: 2
#     Edge 87, Type (0, 1), BuildingBlock: TEMPAE_clean_linker_10, # of connection points: 2
#     Edge 88, Type (0, 1), BuildingBlock: TEMPAE_clean_linker_10, # of connection points: 2
#     Edge 89, Type (0, 1), BuildingBlock: TEMPAE_clean_linker_10, # of connection points: 2
#     Edge 90, Type (0, 1), BuildingBlock: TEMPAE_clean_linker_10, # of connection points: 2
#     Edge 91, Type (0, 1), BuildingBlock: TEMPAE_clean_linker_10, # of connection points: 2
#     Edge 92, Type (0, 1), BuildingBlock: TEMPAE_clean_linker_10, # of connection points: 2
#     Edge 93, Type (0, 1), BuildingBlock: TEMPAE_clean_linker_10, # of connection points: 2
#     Edge 94, Type (0, 1), BuildingBlock: TEMPAE_clean_linker_10, # of connection points: 2
#     Edge 95, Type (0, 1), BuildingBlock: TEMPAE_clean_linker_10, # of connection points: 2
#     Edge 96, Type (0, 1), BuildingBlock: TEMPAE_clean_linker_10, # of connection points: 2
#     Edge 97, Type (0, 1), BuildingBlock: TEMPAE_clean_linker_10, # of connection points: 2
#     Edge 98, Type (0, 1), BuildingBlock: TEMPAE_clean_linker_10, # of connection points: 2
#     Edge 99, Type (0, 1), BuildingBlock: TEMPAE_clean_linker_10, # of connection points: 2
#     Edge 100, Type (0, 1), BuildingBlock: TEMPAE_clean_linker_10, # of connection points: 2
#     Edge 101, Type (0, 1), BuildingBlock: TEMPAE_clean_linker_10, # of connection points: 2
#     Edge 102, Type (0, 1), BuildingBlock: TEMPAE_clean_linker_10, # of connection points: 2
#     Edge 103, Type (0, 1), BuildingBlock: TEMPAE_clean_linker_10, # of connection points: 2
#     Edge 104, Type (0, 1), BuildingBlock: TEMPAE_clean_linker_10, # of connection points: 2
#     Edge 105, Type (0, 1), BuildingBlock: TEMPAE_clean_linker_10, # of connection points: 2
#     Edge 106, Type (0, 1), BuildingBlock: TEMPAE_clean_linker_10, # of connection points: 2
#     Edge 107, Type (0, 1), BuildingBlock: TEMPAE_clean_linker_10, # of connection points: 2
#     Edge 108, Type (0, 1), BuildingBlock: TEMPAE_clean_linker_10, # of connection points: 2
#     Edge 109, Type (0, 1), BuildingBlock: TEMPAE_clean_linker_10, # of connection points: 2
#     Edge 110, Type (0, 1), BuildingBlock: TEMPAE_clean_linker_10, # of connection points: 2
#     Edge 111, Type (0, 1), BuildingBlock: TEMPAE_clean_linker_10, # of connection points: 2
#     Edge 112, Type (0, 1), BuildingBlock: TEMPAE_clean_linker_10, # of connection points: 2
#     Edge 113, Type (0, 1), BuildingBlock: TEMPAE_clean_linker_10, # of connection points: 2
#     Edge 114, Type (0, 1), BuildingBlock: TEMPAE_clean_linker_10, # of connection points: 2
#     Edge 115, Type (0, 1), BuildingBlock: TEMPAE_clean_linker_10, # of connection points: 2
#     Edge 116, Type (0, 1), BuildingBlock: TEMPAE_clean_linker_10, # of connection points: 2
#     Edge 117, Type (0, 1), BuildingBlock: TEMPAE_clean_linker_10, # of connection points: 2
#     Edge 118, Type (0, 1), BuildingBlock: TEMPAE_clean_linker_10, # of connection points: 2
#     Edge 119, Type (0, 1), BuildingBlock: TEMPAE_clean_linker_10, # of connection points: 2
#     Edge 120, Type (0, 1), BuildingBlock: TEMPAE_clean_linker_10, # of connection points: 2
#     Edge 121, Type (0, 1), BuildingBlock: TEMPAE_clean_linker_10, # of connection points: 2
#     Edge 122, Type (0, 1), BuildingBlock: TEMPAE_clean_linker_10, # of connection points: 2
#     Edge 123, Type (0, 1), BuildingBlock: TEMPAE_clean_linker_10, # of connection points: 2
#     Edge 124, Type (0, 1), BuildingBlock: TEMPAE_clean_linker_10, # of connection points: 2
#     Edge 125, Type (0, 1), BuildingBlock: TEMPAE_clean_linker_10, # of connection points: 2
#     Edge 126, Type (0, 1), BuildingBlock: TEMPAE_clean_linker_10, # of connection points: 2
#     Edge 127, Type (0, 1), BuildingBlock: TEMPAE_clean_linker_10, # of connection points: 2
#     Edge 128, Type (0, 1), BuildingBlock: TEMPAE_clean_linker_10, # of connection points: 2
#     Edge 129, Type (0, 1), BuildingBlock: TEMPAE_clean_linker_10, # of connection points: 2
#     Edge 130, Type (0, 1), BuildingBlock: TEMPAE_clean_linker_10, # of connection points: 2
#     Edge 131, Type (0, 1), BuildingBlock: TEMPAE_clean_linker_10, # of connection points: 2
#     Edge 132, Type (0, 1), BuildingBlock: TEMPAE_clean_linker_10, # of connection points: 2
#     Edge 133, Type (0, 1), BuildingBlock: TEMPAE_clean_linker_10, # of connection points: 2
#     Edge 134, Type (0, 1), BuildingBlock: TEMPAE_clean_linker_10, # of connection points: 2
#     Edge 135, Type (0, 1), BuildingBlock: TEMPAE_clean_linker_10, # of connection points: 2
# Relax obj value: 0.109
# Max RMSD: 0.223
# Mean RMSD: 0.120
data_MOF--net-gar--node1-CEKHIL_clean_sbu_0--node2-CUKXOW_clean_sbu_0--edge1-TEMPAE_clean_linker_10
_symmetry_space_group_name_H-M    P1
_symmetry_Int_Tables_number       1
_symmetry_cell_setting            triclinic
loop_
_symmetry_equiv_pos_as_xyz
'x, y, z'
_cell_length_a     56.099673
_cell_length_b     54.006427
_cell_length_c     53.701355
_cell_angle_alpha  93.741389
_cell_angle_beta   95.295885
_cell_angle_gamma 98.933729
loop_
_atom_site_label
_atom_site_type_symbol
_atom_site_fract_x
_atom_site_fract_y
_atom_site_fract_z
_atom_type_partial_charge
Co0 Co 0.0392 0.27889 0.42167 0.0
O1 O 0.07265 0.27502 0.41946 0.0
O2 O 0.04202 0.26166 0.39015 0.0
C3 C 0.04676 0.31953 0.43654 0.0
O4 O 1.00345 0.27979 0.41492 0.0
Co5 Co 0.01594 0.29322 0.46937 0.0
O6 O 0.98674 0.29675 0.44671 0.0
C7 C 0.02717 0.24166 0.45988 0.0
C8 C 0.06508 0.26431 0.39708 0.0
C9 C 0.98543 0.28759 0.42409 0.0
O10 O 0.03259 0.24627 0.43769 0.0
O11 O 0.02198 0.25837 0.47562 0.0
O12 O 0.04633 0.31348 0.41264 0.0
O13 O 0.04386 0.30108 0.45066 0.0
Co14 Co 0.99971 0.80256 0.61518 0.0
O15 O 0.96515 0.80071 0.61493 0.0
O16 O 0.99021 0.79346 0.64713 0.0
C17 C 1.00614 0.83911 0.59738 0.0
O18 O 0.03567 0.80402 0.62392 0.0
Co19 Co 0.02705 0.80316 0.56761 0.0
O20 O 0.05729 0.80982 0.59108 0.0
C21 C 0.99581 0.75704 0.57914 0.0
C22 C 0.96835 0.79543 0.63819 0.0
C23 C 0.05594 0.80797 0.61445 0.0
O24 O 0.99544 0.76621 0.60181 0.0
O25 O 1.00504 0.76983 0.56212 0.0
O26 O 1.00391 0.83911 0.62127 0.0
O27 O 1.00289 0.81736 0.58503 0.0
Co28 Co 0.54054 0.7816 0.92423 0.0
O29 O 0.57408 0.77698 0.92564 0.0
O30 O 0.54605 0.76446 0.8935 0.0
C31 C 0.54792 0.82191 0.94001 0.0
O32 O 0.50534 0.78342 0.91408 0.0
Co33 Co 0.51349 0.79546 0.96947 0.0
O34 O 0.48629 0.79964 0.94447 0.0
C35 C 0.5249 0.744 0.96087 0.0
C36 C 0.56841 0.76621 0.90301 0.0
C37 C 0.48667 0.79122 0.92184 0.0
O38 O 0.53158 0.74881 0.93917 0.0
O39 O 0.51905 0.76059 0.97626 0.0
O40 O 0.54955 0.8164 0.91633 0.0
O41 O 0.54312 0.80314 0.95338 0.0
Co42 Co 0.50051 0.30294 0.11435 0.0
O43 O 0.46598 0.30114 0.11463 0.0
O44 O 0.49137 0.29315 0.14619 0.0
C45 C 0.50708 0.33991 0.09745 0.0
O46 O 0.53649 0.30402 0.12258 0.0
Co47 Co 0.52756 0.30476 0.0665 0.0
O48 O 0.55796 0.31048 0.08972 0.0
C49 C 0.49578 0.25853 0.07692 0.0
C50 C 0.46944 0.29535 0.1377 0.0
C51 C 0.55671 0.30805 0.11302 0.0
O52 O 0.49588 0.26691 0.09994 0.0
O53 O 0.50492 0.27189 0.06025 0.0
O54 O 0.50503 0.33941 0.12135 0.0
O55 O 0.50354 0.31842 0.08461 0.0
Co56 Co 0.99321 0.77522 0.16239 0.0
O57 O 0.9581 0.7717 0.1579 0.0
O58 O 0.97923 0.7669 0.19339 0.0
C59 C 0.99926 0.81146 0.14287 0.0
O60 O 0.02967 0.77875 0.17494 0.0
Co61 Co 0.02407 0.77619 0.11697 0.0
O62 O 0.05213 0.78598 0.14278 0.0
C63 C 0.99625 0.72826 0.12937 0.0
C64 C 0.95812 0.76766 0.18144 0.0
C65 C 0.05043 0.78389 0.16609 0.0
O66 O 0.99188 0.73833 0.15064 0.0
O67 O 1.00654 0.74072 0.11275 0.0
O68 O 0.99515 0.81203 0.16632 0.0
O69 O 0.99827 0.78935 0.13196 0.0
Co70 Co 0.53709 0.80402 0.37301 0.0
O71 O 0.57237 0.8097 0.37754 0.0
O72 O 0.55035 0.7908 0.34352 0.0
C73 C 0.53306 0.84329 0.38836 0.0
O74 O 0.50047 0.79589 0.36032 0.0
Co75 Co 0.50571 0.8088 0.4176 0.0
O76 O 0.47832 0.80601 0.39117 0.0
C77 C 0.53234 0.76602 0.41196 0.0
C78 C 0.57181 0.79897 0.3551 0.0
C79 C 0.47991 0.79865 0.36844 0.0
O80 O 0.53618 0.77078 0.38922 0.0
O81 O 0.52295 0.78057 0.42658 0.0
O82 O 0.5376 0.83948 0.3652 0.0
O83 O 0.53274 0.8241 0.40127 0.0
Co84 Co 0.49331 0.27146 0.6652 0.0
O85 O 0.458 0.26351 0.66109 0.0
O86 O 0.48088 0.26113 0.69621 0.0
C87 C 0.49488 0.30828 0.64641 0.0
O88 O 0.52978 0.27885 0.67798 0.0
Co89 Co 0.52531 0.28007 0.621 0.0
O90 O 0.55255 0.29122 0.64738 0.0
C91 C 0.50442 0.22808 0.6318 0.0
C92 C 0.4592 0.25953 0.68473 0.0
C93 C 0.55051 0.28692 0.67019 0.0
O94 O 0.49636 0.23568 0.65235 0.0
O95 O 0.51386 0.24308 0.61656 0.0
O96 O 0.491 0.30759 0.66987 0.0
O97 O 0.49662 0.28702 0.63516 0.0
Co98 Co 0.03782 0.3033 0.87138 0.0
O99 O 0.07281 0.30528 0.87683 0.0
O100 O 0.05051 0.28971 0.84168 0.0
C101 C 0.03757 0.34309 0.88729 0.0
O102 O 1.00137 0.29872 0.85803 0.0
Co103 Co 1.00642 0.31078 0.91531 0.0
O104 O 0.97993 0.31126 0.88849 0.0
C105 C 0.02649 0.26347 0.90782 0.0
C106 C 0.07195 0.29536 0.85405 0.0
C107 C 0.98125 0.30356 0.8658 0.0
O108 O 0.03352 0.2695 0.88644 0.0
O109 O 0.01726 0.2782 0.92243 0.0
O110 O 0.04169 0.33891 0.8641 0.0
O111 O 0.0351 0.3238 0.90017 0.0
Co112 Co 0.40484 0.08064 0.25837 0.0
O113 O 0.40541 0.11681 0.25627 0.0
O114 O 0.37439 0.08755 0.24235 0.0
C115 C 0.4208 0.08316 0.29949 0.0
O116 O 0.39458 0.04267 0.25844 0.0
Co117 Co 0.44854 0.05364 0.27149 0.0
O118 O 0.4237 0.02526 0.27859 0.0
C119 C 0.43941 0.06913 0.21953 0.0
C120 C 0.38294 0.11135 0.24646 0.0
C121 C 0.40189 0.02409 0.26901 0.0
O122 O 0.41931 0.07662 0.22459 0.0
O123 O 0.45357 0.0612 0.23621 0.0
O124 O 0.39796 0.0841 0.29371 0.0
O125 O 0.43341 0.08225 0.28066 0.0
Co126 Co 0.27936 0.14596 0.48449 0.0
O127 O 0.31299 0.145 0.49412 0.0
O128 O 0.2827 0.11416 0.4978 0.0
C129 C 0.28602 0.16225 0.44792 0.0
O130 O 0.24276 0.13937 0.47592 0.0
Co131 Co 0.25972 0.19549 0.47449 0.0
O132 O 0.2277 0.17389 0.46547 0.0
C133 C 0.27634 0.1847 0.52579 0.0
C134 C 0.30588 0.12257 0.50074 0.0
C135 C 0.22495 0.15051 0.46876 0.0
O136 O 0.2759 0.16142 0.51868 0.0
O137 O 0.27332 0.20154 0.51062 0.0
O138 O 0.28401 0.13805 0.44923 0.0
O139 O 0.28462 0.17541 0.4684 0.0
Co140 Co 0.16069 1.00181 0.79878 0.0
O141 O 0.15913 0.96568 0.79473 0.0
O142 O 0.19231 0.99346 0.79367 0.0
C143 C 0.13821 1.00131 0.83189 0.0
O144 O 0.17029 0.04023 0.80263 0.0
Co145 Co 0.11506 0.02792 0.79428 0.0
O146 O 0.13784 0.05973 0.80396 0.0
C147 C 0.13183 0.00421 0.74935 0.0
C148 C 0.18215 0.96999 0.79209 0.0
C149 C 0.16072 0.0604 0.80483 0.0
O150 O 0.15227 1.00238 0.7615 0.0
O151 O 0.1141 0.01144 0.75956 0.0
O152 O 0.16137 1.00064 0.83548 0.0
O153 O 0.12959 1.00133 0.80886 0.0
Co154 Co 0.21949 0.89753 0.02042 0.0
O155 O 0.18456 0.89629 0.02217 0.0
O156 O 0.21222 0.92969 0.03337 0.0
C157 C 0.21752 0.87876 0.98046 0.0
O158 O 0.25616 0.90825 0.02038 0.0
Co159 Co 0.24531 0.85119 0.01328 0.0
O160 O 0.27335 0.87602 0.00617 0.0
C161 C 0.23225 0.86572 0.06388 0.0
C162 C 0.1894 0.91998 0.0302 0.0
C163 C 0.27449 0.89929 0.01282 0.0
O164 O 0.22406 0.88525 0.05581 0.0
O165 O 0.24026 0.84966 0.04963 0.0
O166 O 0.21555 0.90234 0.98427 0.0
O167 O 0.21836 0.86683 1.00053 0.0
Co168 Co 0.26291 0.43218 0.0398 0.0
O169 O 0.22916 0.4325 0.02987 0.0
O170 O 0.25457 0.46446 0.05034 0.0
C171 C 0.27133 0.41549 0.0029 0.0
O172 O 0.29921 0.43891 0.05195 0.0
Co173 Co 0.28283 0.38129 0.0399 0.0
O174 O 0.31477 0.40343 0.04461 0.0
C175 C 0.24861 0.39366 0.07516 0.0
C176 C 0.23286 0.4555 0.03975 0.0
C177 C 0.31738 0.42695 0.0509 0.0
O178 O 0.25392 0.41722 0.07188 0.0
O179 O 0.25599 0.37635 0.06197 0.0
O180 O 0.27091 0.43949 0.00596 0.0
O181 O 0.26462 0.40257 0.02107 0.0
Co182 Co 0.80973 0.16732 1.00241 0.0
O183 O 0.84459 0.16862 1.00148 0.0
O184 O 0.81985 0.13564 0.01109 0.0
C185 C 0.80328 0.18496 0.96519 0.0
O186 O 0.77308 0.15738 0.00374 0.0
Co187 Co 0.78491 0.21496 0.00311 0.0
O188 O 0.75409 0.19068 0.99868 0.0
C189 C 0.81111 0.20267 0.04982 0.0
C190 C 0.84174 0.14544 0.00725 0.0
C191 C 0.75359 0.1673 1.00121 0.0
O192 O 0.81387 0.18109 0.03938 0.0
O193 O 0.8025 0.21947 0.03767 0.0
O194 O 0.80473 0.16117 0.96542 0.0
O195 O 0.8074 0.19735 0.98687 0.0
Co196 Co 0.12579 0.48412 0.2875 0.0
O197 O 0.1225 0.44731 0.28521 0.0
O198 O 0.15611 0.4732 0.28115 0.0
C199 C 0.10688 0.48908 0.32327 0.0
O200 O 0.13833 0.52189 0.28935 0.0
Co201 Co 0.08327 0.51481 0.28505 0.0
O202 O 0.10863 0.54507 0.29194 0.0
C203 C 0.09698 0.49185 0.23788 0.0
C204 C 0.14546 0.45022 0.28194 0.0
C205 C 0.13095 0.54328 0.2914 0.0
O206 O 0.11515 0.484 0.24985 0.0
O207 O 0.08176 0.50296 0.24876 0.0
O208 O 0.12924 0.48519 0.32453 0.0
O209 O 0.09617 0.48774 0.30077 0.0
Co210 Co 0.75489 0.92829 0.54118 0.0
O211 O 0.72101 0.93017 0.5345 0.0
O212 O 0.74912 0.96175 0.55143 0.0
C213 C 0.75785 0.90929 0.50352 0.0
O214 O 0.7918 0.93354 0.54957 0.0
Co215 Co 0.77326 0.8765 0.53948 0.0
O216 O 0.80558 0.89743 0.54018 0.0
C217 C 0.74357 0.89158 0.57876 0.0
C218 C 0.72659 0.95358 0.54294 0.0
C219 C 0.80926 0.921 0.54642 0.0
O220 O 0.74861 0.91497 0.57465 0.0
O221 O 0.74939 0.8737 0.56496 0.0
O222 O 0.75961 0.93363 0.50609 0.0
O223 O 0.75316 0.89766 0.52304 0.0
Co224 Co 0.86763 0.05927 0.2429 0.0
O225 O 0.87021 0.09547 0.24458 0.0
O226 O 0.837 0.069 0.23032 0.0
C227 C 0.88529 0.05928 0.28234 0.0
O228 O 0.8576 0.02055 0.2398 0.0
Co229 Co 0.91335 0.03335 0.25049 0.0
O230 O 0.88964 1.00276 0.25322 0.0
C231 C 0.90329 0.05906 0.20451 0.0
C232 C 0.84742 0.09217 0.2363 0.0
C233 C 0.86712 1.00117 0.24605 0.0
O234 O 0.88102 0.05942 0.20885 0.0
O235 O 0.91903 0.05198 0.2201 0.0
O236 O 0.86219 0.05989 0.27855 0.0
O237 O 0.89671 0.05953 0.26266 0.0
Co238 Co 0.30964 0.66445 0.50087 0.0
O239 O 0.34497 0.66651 0.50165 0.0
O240 O 0.32007 0.6328 0.50899 0.0
C241 C 0.3042 0.6824 0.4636 0.0
O242 O 0.27296 0.65324 0.50105 0.0
Co243 Co 0.28197 0.70994 0.49971 0.0
O244 O 0.25235 0.68428 0.49092 0.0
C245 C 0.30741 0.69901 0.54789 0.0
C246 C 0.34214 0.64297 0.50636 0.0
C247 C 0.25296 0.66149 0.49531 0.0
O248 O 0.31219 0.678 0.53791 0.0
O249 O 0.29768 0.71478 0.53518 0.0
O250 O 0.30604 0.65873 0.46386 0.0
O251 O 0.307 0.69465 0.48533 0.0
Co252 Co 0.37129 0.56447 0.74732 0.0
O253 O 0.37363 0.60062 0.74898 0.0
O254 O 0.3407 0.57372 0.73444 0.0
C255 C 0.38889 0.56427 0.7867 0.0
O256 O 0.36126 0.52592 0.74404 0.0
Co257 Co 0.4168 0.53831 0.75465 0.0
O258 O 0.3931 0.50741 0.7564 0.0
C259 C 0.40722 0.56526 0.7095 0.0
C260 C 0.35091 0.59696 0.74033 0.0
C261 C 0.37056 0.50625 0.74956 0.0
O262 O 0.38478 0.56481 0.71347 0.0
O263 O 0.42298 0.55827 0.72515 0.0
O264 O 0.36578 0.56496 0.78295 0.0
O265 O 0.40032 0.5646 0.76703 0.0
Co266 Co 0.62358 0.98657 0.78451 0.0
O267 O 0.61985 0.94981 0.78341 0.0
O268 O 0.65347 0.97493 0.77762 0.0
C269 C 0.60583 0.99289 0.82074 0.0
O270 O 0.63626 0.02417 0.78476 0.0
Co271 Co 0.58119 0.01738 0.78213 0.0
O272 O 0.60679 0.04767 0.78698 0.0
C273 C 0.59154 0.98988 0.73603 0.0
C274 C 0.64259 0.9522 0.77935 0.0
C275 C 0.62904 0.04568 0.78607 0.0
O276 O 0.61163 0.98515 0.74717 0.0
O277 O 0.57605 1.00009 0.74742 0.0
O278 O 0.62817 0.98895 0.82158 0.0
O279 O 0.59456 0.99092 0.79846 0.0
Co280 Co 0.78372 0.64501 0.98284 0.0
O281 O 0.81708 0.64278 0.99263 0.0
O282 O 0.78633 0.61129 0.99126 0.0
C283 C 0.79182 0.66685 0.9496 0.0
O284 O 0.74729 0.63934 0.97315 0.0
Co285 Co 0.76434 0.69574 0.97935 0.0
O286 O 0.73239 0.67507 0.96761 0.0
C287 C 0.77922 0.67781 0.02838 0.0
C288 C 0.8095 0.61933 0.99575 0.0
C289 C 0.72958 0.65121 0.96766 0.0
O290 O 0.77909 0.65549 0.01839 0.0
O291 O 0.77672 0.69666 0.01566 0.0
O292 O 0.78966 0.64243 0.94734 0.0
O293 O 0.78962 0.67686 0.97145 0.0
Co294 Co 0.90554 0.57973 0.75968 0.0
O295 O 0.90611 0.61577 0.75551 0.0
O296 O 0.87455 0.58615 0.74491 0.0
C297 C 0.92351 0.58363 0.80036 0.0
O298 O 0.89467 0.54218 0.76212 0.0
Co299 Co 0.94888 0.55174 0.77162 0.0
O300 O 0.92435 0.52333 0.7791 0.0
C301 C 0.9376 0.56503 0.71933 0.0
C302 C 0.88316 0.60995 0.74734 0.0
C303 C 0.90216 0.52305 0.7714 0.0
O304 O 0.91805 0.57333 0.72506 0.0
O305 O 0.95246 0.55782 0.73581 0.0
O306 O 0.90084 0.58581 0.7955 0.0
O307 O 0.93494 0.58121 0.7808 0.0
Co308 Co 0.71682 0.39685 0.51952 0.0
O309 O 0.68185 0.39533 0.52068 0.0
O310 O 0.70915 0.42855 0.53356 0.0
C311 C 0.7151 0.37906 0.47926 0.0
O312 O 0.75359 0.40746 0.52002 0.0
Co313 Co 0.74197 0.35003 0.5114 0.0
O314 O 0.77027 0.37509 0.50508 0.0
C315 C 0.72631 0.36214 0.56125 0.0
C316 C 0.68634 0.41872 0.52969 0.0
C317 C 0.77173 0.39832 0.51217 0.0
O318 O 0.72105 0.38341 0.55437 0.0
O319 O 0.73267 0.34559 0.54619 0.0
O320 O 0.71332 0.40265 0.4835 0.0
O321 O 0.71571 0.36673 0.49902 0.0
Co322 Co 0.65789 0.49744 0.30335 0.0
O323 O 0.65654 0.46133 0.29848 0.0
O324 O 0.68867 0.48954 0.29448 0.0
C325 C 0.63914 0.49611 0.33899 0.0
O326 O 0.66754 0.53585 0.30729 0.0
Co327 Co 0.61291 0.52402 0.30568 0.0
O328 O 0.63617 0.55573 0.31381 0.0
C329 C 0.62385 0.50027 0.25755 0.0
C330 C 0.67899 0.46599 0.29359 0.0
C331 C 0.65865 0.55615 0.31166 0.0
O332 O 0.64541 0.49832 0.26695 0.0
O333 O 0.6079 0.50751 0.27069 0.0
O334 O 0.6624 0.49591 0.34008 0.0
O335 O 0.62829 0.49655 0.31694 0.0
Tb336 Tb 0.02855 0.06099 0.01432 0.0
C337 C 0.02923 0.01883 0.96871 0.0
Tb338 Tb 1.00476 0.00402 0.01803 0.0
O339 O 0.06166 0.05484 0.03779 0.0
O340 O 0.03935 0.02563 0.01701 0.0
O341 O 0.03342 0.04287 0.97783 0.0
C342 C 1.00631 0.96078 0.03873 0.0
O343 O 0.0189 1.00011 0.9813 0.0
C344 C 0.97195 0.03296 0.00505 0.0
C345 C 1.00008 0.04704 0.06057 0.0
O346 O 0.99133 0.96368 0.0194 0.0
O347 O 0.02023 0.98203 0.04595 0.0
O348 O 0.96655 0.00868 0.00653 0.0
O349 O 0.99464 0.03813 0.00978 0.0
O350 O 1.00126 0.02289 0.05481 0.0
O351 O 0.00816 0.06527 0.04649 0.0
C352 C 0.0337 0.1039 0.99191 0.0
O353 O 0.04587 0.10042 0.01296 0.0
O354 O 0.01864 0.08361 0.98423 0.0
C355 C 0.05752 0.03041 0.03303 0.0
Tb356 Tb 0.26966 0.81122 0.27743 0.0
C357 C 0.31352 0.77871 0.27414 0.0
Tb358 Tb 0.25819 0.75219 0.26187 0.0
O359 O 0.26081 0.80415 0.31615 0.0
O360 O 0.27229 0.77709 0.2935 0.0
O361 O 0.30613 0.80103 0.27682 0.0
C362 C 0.24127 0.70526 0.27158 0.0
O363 O 0.2981 0.75696 0.26926 0.0
C364 C 0.25666 0.77955 0.22243 0.0
C365 C 0.21533 0.78574 0.26138 0.0
O366 O 0.25361 0.71129 0.25278 0.0
O367 O 0.23876 0.72558 0.2847 0.0
O368 O 0.25392 0.755 0.22055 0.0
O369 O 0.26069 0.78613 0.24552 0.0
O370 O 0.2221 0.76328 0.26369 0.0
O371 O 0.23112 0.80715 0.26397 0.0
C372 C 0.28984 0.85898 0.27384 0.0
O373 O 0.27731 0.85114 0.29188 0.0
O374 O 0.29054 0.84005 0.25798 0.0
C375 C 0.26424 0.78075 0.31421 0.0
Tb376 Tb 0.5367 0.03429 0.51044 0.0
C377 C 0.5243 0.01057 0.56039 0.0
Tb378 Tb 0.4841 0.02666 0.5215 0.0
O379 O 0.54486 0.06288 0.54234 0.0
O380 O 0.51148 0.05777 0.52081 0.0
O381 O 0.53909 0.01163 0.54245 0.0
C382 C 0.44176 0.03185 0.53856 0.0
O383 O 0.50237 0.01717 0.55703 0.0
C384 C 0.49596 0.99109 0.49188 0.0
C385 C 0.49651 0.04867 0.47058 0.0
O386 O 0.46206 0.04705 0.5444 0.0
O387 O 0.44551 0.01336 0.52355 0.0
O388 O 0.47433 0.99689 0.4911 0.0
O389 O 0.50896 1.0031 0.51056 0.0
O390 O 0.48168 0.04819 0.48853 0.0
O391 O 0.5185 0.04217 0.47419 0.0
C392 C 0.58183 0.03282 0.49854 0.0
O393 O 0.57472 0.05141 0.51068 0.0
O394 O 0.56307 0.01562 0.49183 0.0
C395 C 0.5236 0.06945 0.54002 0.0
Tb396 Tb 0.27673 0.28802 0.80041 0.0
C397 C 0.28011 0.33135 0.76221 0.0
Tb398 Tb 0.26175 0.27388 0.74546 0.0
O399 O 0.30694 0.26622 0.79829 0.0
O400 O 0.29484 0.28432 0.76801 0.0
O401 O 0.28147 0.32525 0.78586 0.0
C402 C 0.26722 0.25719 0.69942 0.0
O403 O 0.27315 0.31426 0.74282 0.0
C404 C 0.22502 0.27641 0.77212 0.0
C405 C 0.25482 0.23222 0.78433 0.0
O406 O 0.2513 0.27138 0.70497 0.0
O407 O 0.27985 0.25282 0.71961 0.0
O408 O 0.22361 0.2624 0.75123 0.0
O409 O 0.24562 0.29022 0.77543 0.0
O410 O 0.25961 0.23719 0.76125 0.0
O411 O 0.2577 0.25016 0.80286 0.0
C412 C 0.28155 0.31015 0.84659 0.0
O413 O 0.26167 0.29724 0.83518 0.0
O414 O 0.29893 0.30996 0.83228 0.0
C415 C 0.30936 0.27004 0.77493 0.0
Tb416 Tb 0.0076 0.03306 0.48577 0.0
C417 C 0.97591 0.01219 0.52694 0.0
Tb418 Tb 0.03316 0.02893 0.53866 0.0
O419 O 0.99842 0.99201 0.48095 0.0
O420 O 0.02956 0.00935 0.50303 0.0
O421 O 0.97635 0.02457 0.5064 0.0
C422 C 0.05327 0.01323 0.58038 0.0
O423 O 0.99604 0.00932 0.54092 0.0
C424 C 0.02448 0.07361 0.52924 0.0
C425 C 0.06432 0.05202 0.49727 0.0
O426 O 0.03702 0.02795 0.57946 0.0
O427 O 0.05816 0.00736 0.55783 0.0
O428 O 0.0418 0.06975 0.54559 0.0
O429 O 0.01158 0.05288 0.52148 0.0
O430 O 0.06452 0.04114 0.51881 0.0
O431 O 0.04415 0.05252 0.48233 0.0
C432 C 0.98619 0.04467 0.44284 0.0
O433 O 0.9979 0.02593 0.4454 0.0
O434 O 0.98708 0.05733 0.46437 0.0
C435 C 0.01672 0.98846 0.49613 0.0
Tb436 Tb 0.29438 0.78633 0.77893 0.0
C437 C 0.25432 0.79872 0.81347 0.0
Tb438 Tb 0.24228 0.78324 0.75444 0.0
O439 O 0.297 0.82674 0.78807 0.0
O440 O 0.27471 0.80916 0.75697 0.0
O441 O 0.27597 0.79165 0.81264 0.0
C442 C 0.20094 0.79411 0.73306 0.0
O443 O 0.23881 0.79804 0.79297 0.0
C444 C 0.25566 0.73967 0.76229 0.0
C445 C 0.28226 0.76927 0.7204 0.0
O446 O 0.20281 0.77479 0.74588 0.0
O447 O 0.22223 0.80729 0.73256 0.0
O448 O 0.23858 0.74282 0.74531 0.0
O449 O 0.26201 0.76009 0.77589 0.0
O450 O 0.26091 0.77713 0.72091 0.0
O451 O 0.29751 0.7698 0.74105 0.0
C452 C 0.33744 0.77956 0.7999 0.0
O453 O 0.31683 0.76611 0.80307 0.0
O454 O 0.33382 0.7964 0.78441 0.0
C455 C 0.28059 0.82968 0.77037 0.0
Tb456 Tb 0.48613 0.02491 0.00829 0.0
C457 C 0.52654 0.99138 0.01239 0.0
Tb458 Tb 0.53945 0.05104 0.01666 0.0
O459 O 0.49167 0.00754 0.97172 0.0
O460 O 0.51261 0.0417 0.98559 0.0
O461 O 0.50375 0.99291 0.0161 0.0
C462 C 0.58613 0.06943 0.0125 0.0
O463 O 0.54302 0.01147 0.01047 0.0
C464 C 0.51525 0.05221 0.05654 0.0
C465 C 0.49886 0.08441 0.01247 0.0
O466 O 0.57788 0.05955 0.03207 0.0
O467 O 0.5681 0.06888 0.99541 0.0
O468 O 0.53376 0.06879 0.053 0.0
O469 O 0.51292 0.03445 0.03942 0.0
O470 O 0.5216 0.08284 0.00845 0.0
O471 O 0.48249 0.06437 0.01489 0.0
C472 C 0.43958 0.00574 0.0117 0.0
O473 O 0.44771 0.0175 0.99306 0.0
O474 O 0.45765 0.00508 0.02844 0.0
C475 C 0.51013 0.02418 0.96825 0.0
Tb476 Tb 0.23226 0.26436 0.26163 0.0
C477 C 0.27451 0.2658 0.30332 0.0
Tb478 Tb 0.28297 0.28567 0.25027 0.0
O479 O 0.2426 0.22695 0.26378 0.0
O480 O 0.25877 0.25181 0.24002 0.0
O481 O 0.25133 0.26784 0.29885 0.0
C482 C 0.32842 0.28867 0.23887 0.0
O483 O 0.29011 0.27047 0.28645 0.0
C484 C 0.25603 0.31932 0.26305 0.0
C485 C 0.24 0.28569 0.209 0.0
O486 O 0.31185 0.26897 0.23508 0.0
O487 O 0.31948 0.30715 0.24919 0.0
O488 O 0.2731 0.32324 0.24827 0.0
O489 O 0.25655 0.29823 0.2719 0.0
O490 O 0.2636 0.2853 0.21339 0.0
O491 O 0.22437 0.27904 0.22541 0.0
C492 C 0.1871 0.25819 0.2745 0.0
O493 O 0.19868 0.24014 0.26815 0.0
O494 O 0.20072 0.27953 0.27283 0.0
C495 C 0.25946 0.23074 0.24883 0.0
Tb496 Tb 0.5132 0.53578 0.98823 0.0
C497 C 0.48263 0.51868 0.03199 0.0
Tb498 Tb 0.54046 0.53285 0.04041 0.0
O499 O 0.50289 0.49501 0.98472 0.0
O500 O 0.53522 0.51195 0.00531 0.0
O501 O 0.4827 0.52901 0.01022 0.0
C502 C 0.56211 0.52016 0.0829 0.0
O503 O 0.50297 0.51671 0.04615 0.0
C504 C 0.53201 0.57721 0.02956 0.0
C505 C 0.57038 0.55181 0.99672 0.0
O506 O 0.55657 0.50562 0.06234 0.0
O507 O 0.55503 0.54157 0.07967 0.0
O508 O 0.55054 0.5737 0.04445 0.0
O509 O 0.51841 0.55654 0.02342 0.0
O510 O 0.57089 0.54064 0.0181 0.0
O511 O 0.54985 0.55379 0.98306 0.0
C512 C 0.49083 0.54705 0.94566 0.0
O513 O 0.50139 0.52752 0.94831 0.0
O514 O 0.49344 0.56065 0.96684 0.0
C515 C 0.52148 0.4913 0.99938 0.0
Tb516 Tb 0.79319 0.28414 0.28071 0.0
C517 C 0.75217 0.29673 0.31375 0.0
Tb518 Tb 0.7417 0.28105 0.25472 0.0
O519 O 0.79561 0.32457 0.28993 0.0
O520 O 0.77407 0.30712 0.25837 0.0
O521 O 0.77373 0.28937 0.31363 0.0
C522 C 0.70087 0.29172 0.23191 0.0
O523 O 0.7372 0.29607 0.29287 0.0
C524 C 0.75505 0.23729 0.26203 0.0
C525 C 0.78303 0.26819 0.22203 0.0
O526 O 0.7023 0.27267 0.24524 0.0
O527 O 0.72227 0.30473 0.23172 0.0
O528 O 0.73824 0.24078 0.24492 0.0
O529 O 0.76102 0.25745 0.27618 0.0
O530 O 0.76161 0.27598 0.22197 0.0
O531 O 0.79765 0.26826 0.24304 0.0
C532 C 0.83541 0.27718 0.30356 0.0
O533 O 0.83261 0.29378 0.28756 0.0
O534 O 0.81449 0.26399 0.30608 0.0
C535 C 0.7796 0.32759 0.27186 0.0
Tb536 Tb 0.98466 0.52277 0.50827 0.0
C537 C 0.02535 0.48952 0.50878 0.0
Tb538 Tb 0.03844 0.54894 0.51641 0.0
O539 O 0.98902 0.50738 0.47043 0.0
O540 O 0.0111 0.54015 0.48575 0.0
O541 O 1.00299 0.49082 0.51434 0.0
C542 C 0.08445 0.56901 0.51074 0.0
O543 O 0.04143 0.5098 0.50637 0.0
C544 C 0.01571 0.54815 0.55758 0.0
C545 C 0.99741 0.5819 0.51534 0.0
O546 O 0.07795 0.54886 0.52205 0.0
O547 O 0.06513 0.57773 0.50277 0.0
O548 O 0.03543 0.56346 0.55497 0.0
O549 O 0.01211 0.53179 0.53905 0.0
O550 O 0.0196 0.58036 0.50939 0.0
O551 O 0.9813 0.56177 0.51806 0.0
C552 C 0.93828 0.50249 0.5114 0.0
O553 O 0.9457 0.51803 0.49516 0.0
O554 O 0.95696 0.49863 0.52585 0.0
C555 C 0.00802 0.52355 0.4675 0.0
Tb556 Tb 0.77286 0.78426 0.30066 0.0
C557 C 0.77885 0.82494 0.25994 0.0
Tb558 Tb 0.75741 0.76826 0.24363 0.0
O559 O 0.81265 0.78499 0.29985 0.0
O560 O 0.78848 0.77499 0.26872 0.0
O561 O 0.77547 0.82019 0.28348 0.0
C562 C 0.75992 0.7433 0.20008 0.0
O563 O 0.77557 0.80686 0.24126 0.0
C564 C 0.72408 0.78413 0.26933 0.0
C565 C 0.7512 0.72686 0.28454 0.0
O566 O 0.74251 0.7557 0.20484 0.0
O567 O 0.77573 0.7455 0.21949 0.0
O568 O 0.72473 0.78602 0.24528 0.0
O569 O 0.74034 0.77182 0.27681 0.0
O570 O 0.74934 0.73221 0.26055 0.0
O571 O 0.75934 0.74428 0.30349 0.0
C572 C 0.76827 0.80573 0.34503 0.0
O573 O 0.7832 0.79003 0.34104 0.0
O574 O 0.75585 0.8089 0.32423 0.0
C575 C 0.81068 0.7777 0.27606 0.0
Tb576 Tb 0.76901 0.31138 0.77748 0.0
C577 C 0.81397 0.28107 0.77201 0.0
Tb578 Tb 0.75923 0.25521 0.7605 0.0
O579 O 0.75959 0.30317 0.81553 0.0
O580 O 0.77414 0.27775 0.79333 0.0
O581 O 0.80589 0.30302 0.77351 0.0
C582 C 0.74131 0.20711 0.76593 0.0
O583 O 0.79882 0.2592 0.76886 0.0
C584 C 0.76313 0.28562 0.72393 0.0
C585 C 0.71436 0.28629 0.76478 0.0
O586 O 0.74835 0.2157 0.74521 0.0
O587 O 0.74482 0.22548 0.7833 0.0
O588 O 0.76836 0.26285 0.72233 0.0
O589 O 0.75427 0.28884 0.74437 0.0
O590 O 0.7222 0.26415 0.76317 0.0
O591 O 0.72972 0.30794 0.76855 0.0
C592 C 0.78738 0.3599 0.77547 0.0
O593 O 0.77863 0.35014 0.79492 0.0
O594 O 0.78514 0.34246 0.75725 0.0
C595 C 0.76506 0.28057 0.81363 0.0
Tb596 Tb 0.7349 0.76379 0.76632 0.0
C597 C 0.77737 0.77577 0.81113 0.0
Tb598 Tb 0.78497 0.79106 0.7567 0.0
O599 O 0.74137 0.73041 0.74275 0.0
O600 O 0.76947 0.75443 0.76284 0.0
O601 O 0.75367 0.76997 0.80411 0.0
C602 C 0.82825 0.79212 0.7409 0.0
O603 O 0.79352 0.78396 0.79565 0.0
C604 C 0.75285 0.82114 0.76265 0.0
C605 C 0.7412 0.78454 0.71467 0.0
O606 O 0.82278 0.80932 0.7567 0.0
O607 O 0.80948 0.775 0.7342 0.0
O608 O 0.77194 0.8267 0.75074 0.0
O609 O 0.75444 0.80103 0.77312 0.0
O610 O 0.76469 0.78393 0.7195 0.0
O611 O 0.72568 0.77904 0.73127 0.0
C612 C 0.69278 0.75139 0.78504 0.0
O613 O 0.69853 0.77066 0.77236 0.0
O614 O 0.71056 0.7386 0.78657 0.0
C615 C 0.76491 0.73557 0.74737 0.0
Tb616 Tb 0.52491 0.56025 0.51384 0.0
C617 C 0.53117 0.51544 0.47648 0.0
Tb618 Tb 0.50893 0.50639 0.52811 0.0
O619 O 0.56263 0.55379 0.51442 0.0
O620 O 0.53963 0.53456 0.5372 0.0
O621 O 0.52657 0.53879 0.47869 0.0
C622 C 0.50827 0.46184 0.54733 0.0
O623 O 0.52678 0.49951 0.49405 0.0
C624 C 0.47316 0.53044 0.51262 0.0
C625 C 0.50249 0.55199 0.56523 0.0
O626 O 0.49301 0.46652 0.52913 0.0
O627 O 0.52391 0.48197 0.55404 0.0
O628 O 0.47102 0.51224 0.52734 0.0
O629 O 0.49403 0.53211 0.50497 0.0
O630 O 0.50575 0.52813 0.56288 0.0
O631 O 0.50777 0.56792 0.54792 0.0
C632 C 0.52796 0.60526 0.49551 0.0
O633 O 0.54392 0.59869 0.51182 0.0
O634 O 0.51003 0.58687 0.49032 0.0
C635 C 0.56048 0.53604 0.52961 0.0
Tb636 Tb 0.04037 0.5394 0.01113 0.0
C637 C 0.03083 0.51147 0.06149 0.0
Tb638 Tb 0.98916 0.52253 0.02358 0.0
O639 O 0.03668 0.57895 0.01728 0.0
O640 O 0.01788 0.55171 0.03729 0.0
O641 O 0.04539 0.51713 0.04376 0.0
C642 C 0.94352 0.52448 0.03299 0.0
O643 O 0.00763 0.51417 0.05878 0.0
C644 C 0.00906 0.48746 1.00137 0.0
C645 C 0.99856 0.54933 0.97235 0.0
O646 O 0.95013 0.50836 0.01712 0.0
O647 O 0.96269 0.53899 0.04387 0.0
O648 O 0.99296 0.48292 0.01722 0.0
O649 O 0.01155 0.51041 0.99743 0.0
O650 O 0.98357 0.54265 0.98951 0.0
O651 O 0.02216 0.54815 0.97573 0.0
C652 C 0.08725 0.53866 0.00599 0.0
O653 O 0.07885 0.55371 0.02149 0.0
O654 O 0.06909 0.52475 0.99241 0.0
C655 C 0.0205 0.57462 0.03302 0.0
C656 C 0.01307 0.22846 0.93372 0.0
C657 C 0.02889 0.2385 0.91679 0.0
C658 C 0.01601 0.20629 0.94487 0.0
C659 C 0.03535 0.19369 0.93911 0.0
C660 C 0.05114 0.20333 0.92161 0.0
C661 C 0.04765 0.22564 0.91051 0.0
C662 C 0.99845 0.19648 0.96305 0.0
C663 C 0.07193 0.19035 0.91501 0.0
C664 C 0.05047 0.1493 0.98826 0.0
C665 C 0.03644 0.12664 0.97788 0.0
C666 C 0.05149 0.17114 0.97517 0.0
C667 C 0.03828 0.17011 0.95117 0.0
C668 C 0.02509 0.14691 0.9402 0.0
C669 C 0.02426 0.12552 0.95373 0.0
C670 C 0.06572 0.19556 0.98751 0.0
C671 C 0.01077 0.1449 0.91471 0.0
H672 H 0.99836 0.23813 0.93848 0.0
H673 H 0.06003 0.23342 0.8976 0.0
H674 H 0.98925 0.17719 0.95635 0.0
H675 H 0.00842 0.19536 0.98167 0.0
H676 H 0.98436 0.20855 0.96548 0.0
H677 H 0.08221 0.19985 0.90062 0.0
H678 H 0.08457 0.18995 0.93208 0.0
H679 H 0.06507 0.17054 0.90787 0.0
H680 H 0.06003 0.15014 0.00686 0.0
H681 H 0.01361 0.10793 0.94549 0.0
H682 H 0.05299 0.20839 0.99266 0.0
H683 H 0.07748 0.20504 0.97429 0.0
H684 H 0.07719 0.19271 0.00475 0.0
H685 H 0.99498 0.15485 0.9159 0.0
H686 H 1.00396 0.12505 0.90756 0.0
H687 H 0.02205 0.15404 0.90091 0.0
C688 C 0.07396 0.785 0.20906 0.0
C689 C 0.07366 0.78624 0.18298 0.0
C690 C 0.09598 0.78609 0.22451 0.0
C691 C 0.11829 0.78818 0.21367 0.0
C692 C 0.1181 0.78984 0.18746 0.0
C693 C 0.09597 0.78897 0.17257 0.0
C694 C 0.09538 0.78468 0.25242 0.0
C695 C 0.1413 0.79192 0.17492 0.0
C696 C 0.18082 0.80937 0.2501 0.0
C697 C 0.18935 0.78642 0.25252 0.0
C698 C 0.15726 0.81019 0.23879 0.0
C699 C 0.14183 0.78756 0.22926 0.0
C700 C 0.15 0.76432 0.23252 0.0
C701 C 0.17348 0.76403 0.2442 0.0
C702 C 0.14926 0.83538 0.23608 0.0
C703 C 0.13443 0.73972 0.22242 0.0
H704 H 0.05697 0.78299 0.21742 0.0
H705 H 0.09623 0.78998 0.15251 0.0
H706 H 0.1018 0.76727 0.25816 0.0
H707 H 0.10786 0.80081 0.26272 0.0
H708 H 0.07688 0.78472 0.2582 0.0
H709 H 0.13817 0.79348 0.15439 0.0
H710 H 0.15429 0.80863 0.18331 0.0
H711 H 0.15005 0.77516 0.17804 0.0
H712 H 0.19278 0.82683 0.25645 0.0
H713 H 0.17972 0.74613 0.24581 0.0
H714 H 0.13081 0.8351 0.24205 0.0
H715 H 0.14839 0.83951 0.21608 0.0
H716 H 0.16189 0.85087 0.24727 0.0
H717 H 0.11616 0.73836 0.22904 0.0
H718 H 0.14257 0.7232 0.22812 0.0
H719 H 0.13197 0.73884 0.20162 0.0
C720 C 0.53511 0.8905 0.39039 0.0
C721 C 0.52758 0.86727 0.39981 0.0
C722 C 0.53164 0.91315 0.40321 0.0
C723 C 0.52005 0.91236 0.42561 0.0
C724 C 0.51188 0.88887 0.43468 0.0
C725 C 0.51593 0.86678 0.42184 0.0
C726 C 0.54088 0.9379 0.39319 0.0
C727 C 0.49904 0.88697 0.4582 0.0
C728 C 0.52593 0.96458 0.47775 0.0
C729 C 0.50361 0.97297 0.4736 0.0
C730 C 0.53254 0.94635 0.46096 0.0
C731 C 0.51609 0.93575 0.43994 0.0
C732 C 0.49393 0.94493 0.4352 0.0
C733 C 0.48804 0.96351 0.45202 0.0
C734 C 0.55653 0.93745 0.46655 0.0
C735 C 0.47571 0.93402 0.41327 0.0
H736 H 0.54434 0.89102 0.37352 0.0
H737 H 0.51 0.84902 0.42934 0.0
H738 H 0.52598 0.94907 0.3904 0.0
H739 H 0.55502 0.94904 0.40708 0.0
H740 H 0.54874 0.93535 0.37513 0.0
H741 H 0.49308 0.86718 0.46224 0.0
H742 H 0.51127 0.89663 0.47454 0.0
H743 H 0.48286 0.89648 0.45637 0.0
H744 H 0.5379 0.97162 0.49456 0.0
H745 H 0.47082 0.9701 0.44862 0.0
H746 H 0.5656 0.93548 0.44918 0.0
H747 H 0.55339 0.91867 0.47402 0.0
H748 H 0.56895 0.95053 0.48062 0.0
H749 H 0.48469 0.93277 0.39578 0.0
H750 H 0.4609 0.94533 0.41032 0.0
H751 H 0.46753 0.91464 0.41669 0.0
C752 C 0.41424 0.24626 0.68639 0.0
C753 C 0.43715 0.25678 0.69855 0.0
C754 C 0.39305 0.24581 0.69879 0.0
C755 C 0.39457 0.25714 0.72361 0.0
C756 C 0.41773 0.26763 0.73598 0.0
C757 C 0.43869 0.26688 0.72351 0.0
C758 C 0.36896 0.2336 0.6851 0.0
C759 C 0.4203 0.2808 0.762 0.0
C760 C 0.3389 0.28269 0.74406 0.0
C761 C 0.33062 0.26585 0.76142 0.0
C762 C 0.3596 0.2801 0.73177 0.0
C763 C 0.37197 0.25954 0.7361 0.0
C764 C 0.36313 0.24192 0.75295 0.0
C765 C 0.34288 0.24557 0.76578 0.0
C766 C 0.36858 0.29981 0.71464 0.0
C767 C 0.37502 0.21917 0.75736 0.0
H768 H 0.41287 0.23842 0.66711 0.0
H769 H 0.45625 0.2754 0.73293 0.0
H770 H 0.35873 0.22092 0.69728 0.0
H771 H 0.35781 0.24821 0.68031 0.0
H772 H 0.37116 0.22261 0.66747 0.0
H773 H 0.43955 0.28776 0.76918 0.0
H774 H 0.41035 0.29703 0.76179 0.0
H775 H 0.41213 0.26791 0.77527 0.0
H776 H 0.32956 0.29847 0.7406 0.0
H777 H 0.33641 0.23235 0.77896 0.0
H778 H 0.36826 0.2911 0.69532 0.0
H779 H 0.38768 0.30818 0.72107 0.0
H780 H 0.35748 0.31514 0.714 0.0
H781 H 0.37625 0.20869 0.73917 0.0
H782 H 0.36494 0.20625 0.76947 0.0
H783 H 0.3938 0.22515 0.76641 0.0
C784 C 0.01075 0.88589 0.5966 0.0
C785 C 0.01137 0.86226 0.58448 0.0
C786 C 0.01327 0.90754 0.58331 0.0
C787 C 0.01645 0.90525 0.55745 0.0
C788 C 0.01814 0.88159 0.54549 0.0
C789 C 0.01556 0.86038 0.55916 0.0
C790 C 0.0116 0.93262 0.59662 0.0
C791 C 0.02172 0.87848 0.51797 0.0
C792 C 0.99492 0.9513 0.51392 0.0
C793 C 0.01682 0.96636 0.51052 0.0
C794 C 0.99448 0.93177 0.52985 0.0
C795 C 0.01654 0.92714 0.54229 0.0
C796 C 0.03874 0.94224 0.53872 0.0
C797 C 0.03859 0.96166 0.52268 0.0
C798 C 0.97042 0.91616 0.53338 0.0
C799 C 0.06256 0.93789 0.5518 0.0
H800 H 0.00757 0.88737 0.61621 0.0
H801 H 0.01626 0.84217 0.54974 0.0
H802 H 0.0272 0.94693 0.59331 0.0
H803 H 0.99487 0.93928 0.58898 0.0
H804 H 0.0112 0.93156 0.61718 0.0
H805 H 0.02409 0.85903 0.51192 0.0
H806 H 1.00577 0.88314 0.5065 0.0
H807 H 0.03786 0.89165 0.5139 0.0
H808 H 0.97804 0.95522 0.50469 0.0
H809 H 0.0555 0.97331 0.51974 0.0
H810 H 0.96755 0.91691 0.55356 0.0
H811 H 0.97044 0.8962 0.52704 0.0
H812 H 0.95491 0.9227 0.5228 0.0
H813 H 0.06191 0.93937 0.57243 0.0
H814 H 0.07814 0.95161 0.54726 0.0
H815 H 0.0658 0.91862 0.54634 0.0
C816 C 0.44445 0.79956 0.90978 0.0
C817 C 0.46483 0.78929 0.90363 0.0
C818 C 0.42377 0.79744 0.89242 0.0
C819 C 0.42348 0.78464 0.86848 0.0
C820 C 0.44391 0.77417 0.86221 0.0
C821 C 0.46432 0.77669 0.87979 0.0
C822 C 0.40228 0.80899 0.89962 0.0
C823 C 0.4442 0.76028 0.83691 0.0
C824 C 0.36221 0.7605 0.83194 0.0
C825 C 0.36039 0.77925 0.81538 0.0
C826 C 0.38287 0.76178 0.84911 0.0
C827 C 0.40191 0.78245 0.84979 0.0
C828 C 0.40039 0.80106 0.83259 0.0
C829 C 0.37965 0.79914 0.81546 0.0
C830 C 0.38409 0.74135 0.86686 0.0
C831 C 0.42035 0.82336 0.83277 0.0
H832 H 0.44468 0.80933 0.9281 0.0
H833 H 0.47989 0.76855 0.87481 0.0
H834 H 0.39833 0.82309 0.88635 0.0
H835 H 0.38594 0.79429 0.89831 0.0
H836 H 0.40539 0.81831 0.91897 0.0
H837 H 0.46143 0.75289 0.83513 0.0
H838 H 0.42894 0.7443 0.83376 0.0
H839 H 0.44166 0.77297 0.82179 0.0
H840 H 0.34727 0.7451 0.83183 0.0
H841 H 0.37816 0.81372 0.80271 0.0
H842 H 0.38484 0.74946 0.88649 0.0
H843 H 0.40087 0.73313 0.86524 0.0
H844 H 0.36822 0.72602 0.86316 0.0
H845 H 0.42267 0.83443 0.85123 0.0
H846 H 0.41653 0.83593 0.81785 0.0
H847 H 0.43783 0.81686 0.83016 0.0
C848 C 0.49142 0.21323 0.08514 0.0
C849 C 0.48687 0.23181 0.06918 0.0
C850 C 0.48863 0.18796 0.07574 0.0
C851 C 0.48082 0.18136 0.04998 0.0
C852 C 0.47366 0.1997 0.03457 0.0
C853 C 0.47699 0.2248 0.04431 0.0
C854 C 0.4962 0.1688 0.09278 0.0
C855 C 0.46453 0.19324 0.00722 0.0
C856 C 0.51052 0.13097 0.01897 0.0
C857 C 0.4927 0.10961 0.0185 0.0
C858 C 0.50663 0.15443 0.02888 0.0
C859 C 0.48422 0.1567 0.03826 0.0
C860 C 0.46566 0.13554 0.0367 0.0
C861 C 0.47017 0.11216 0.02695 0.0
C862 C 0.5269 0.17662 0.03017 0.0
C863 C 0.44144 0.13731 0.04622 0.0
H864 H 0.49899 0.21866 0.10439 0.0
H865 H 0.47306 0.23917 0.03207 0.0
H866 H 0.48243 0.15149 0.09056 0.0
H867 H 0.51351 0.16346 0.08755 0.0
H868 H 0.49884 0.17613 0.11283 0.0
H869 H 0.45586 0.20846 0.99908 0.0
H870 H 0.47996 0.19027 0.99647 0.0
H871 H 0.45125 0.17554 0.00473 0.0
H872 H 0.52797 0.12924 0.0125 0.0
H873 H 0.45629 0.09576 0.02677 0.0
H874 H 0.53233 0.18394 0.05 0.0
H875 H 0.52061 0.19205 0.02004 0.0
H876 H 0.54316 0.17168 0.02191 0.0
H877 H 0.44358 0.13878 0.06703 0.0
H878 H 0.42767 0.12054 0.03958 0.0
H879 H 0.43454 0.15437 0.04018 0.0
C880 C 0.0728 0.24931 0.35424 0.0
C881 C 0.08191 0.25782 0.37906 0.0
C882 C 0.08843 0.24665 0.33573 0.0
C883 C 0.11376 0.25238 0.34228 0.0
C884 C 0.1231 0.25953 0.36759 0.0
C885 C 0.10702 0.26229 0.38572 0.0
C886 C 0.07781 0.23909 0.30893 0.0
C887 C 0.15008 0.2654 0.37529 0.0
C888 C 0.15737 0.23254 0.29791 0.0
C889 C 0.16545 0.25539 0.28811 0.0
C890 C 0.14002 0.23104 0.31518 0.0
C891 C 0.13044 0.25286 0.32242 0.0
C892 C 0.13756 0.27561 0.31139 0.0
C893 C 0.15513 0.27662 0.29444 0.0
C894 C 0.13293 0.20653 0.32668 0.0
C895 C 0.12748 0.29919 0.31833 0.0
H896 H 0.05338 0.24572 0.34896 0.0
H897 H 0.11413 0.26875 0.40489 0.0
H898 H 0.08188 0.25522 0.29736 0.0
H899 H 0.08617 0.22349 0.30087 0.0
H900 H 0.05783 0.23312 0.30733 0.0
H901 H 0.15437 0.26841 0.39599 0.0
H902 H 0.15913 0.24988 0.36822 0.0
H903 H 0.1579 0.28265 0.36684 0.0
H904 H 0.16556 0.21617 0.29315 0.0
H905 H 0.16148 0.29432 0.28686 0.0
H906 H 0.1129 0.2014 0.32531 0.0
H907 H 0.13968 0.20869 0.34691 0.0
H908 H 0.14049 0.19085 0.31753 0.0
H909 H 0.13337 0.31466 0.30647 0.0
H910 H 0.13363 0.30573 0.33823 0.0
H911 H 0.10736 0.29526 0.31643 0.0
C912 C 0.93576 0.07989 0.18144 0.0
C913 C 0.91226 0.06618 0.18051 0.0
C914 C 0.94877 0.08023 0.16041 0.0
C915 C 0.93794 0.06668 0.13771 0.0
C916 C 0.91325 0.0551 0.13588 0.0
C917 C 0.90064 0.05486 0.15745 0.0
C918 C 0.97495 0.09293 0.16332 0.0
C919 C 0.90081 0.04121 0.11173 0.0
C920 C 0.9741 0.07441 0.0812 0.0
C921 C 0.98565 0.0531 0.0813 0.0
C922 C 0.95788 0.07873 0.09887 0.0
C923 C 0.95354 0.06167 0.11749 0.0
C924 C 0.96544 0.04035 0.1179 0.0
C925 C 0.98114 0.03622 0.09969 0.0
C926 C 0.94545 0.10155 0.09762 0.0
C927 C 0.96169 0.02188 0.13769 0.0
H928 H 0.94472 0.08877 0.19928 0.0
H929 H 0.88254 0.04413 0.1567 0.0
H930 H 0.98694 0.07839 0.16341 0.0
H931 H 0.97889 0.10437 0.14735 0.0
H932 H 0.97966 0.10526 0.18103 0.0
H933 H 0.88081 0.03714 0.11201 0.0
H934 H 0.90501 0.05224 0.09551 0.0
H935 H 0.90759 0.02311 0.10881 0.0
H936 H 0.97717 0.0874 0.06685 0.0
H937 H 0.98986 0.01966 0.09983 0.0
H938 H 0.95308 0.11546 0.11356 0.0
H939 H 0.92576 0.09634 0.09925 0.0
H940 H 0.94781 0.11074 0.0799 0.0
H941 H 0.96733 0.0317 0.15661 0.0
H942 H 0.97215 0.00618 0.13529 0.0
H943 H 0.94217 0.01388 0.13699 0.0
C944 C 0.27597 0.68617 0.4252 0.0
C945 C 0.29779 0.69465 0.44041 0.0
C946 C 0.26889 0.69931 0.40454 0.0
C947 C 0.28433 0.72103 0.39844 0.0
C948 C 0.30672 0.72913 0.41343 0.0
C949 C 0.31289 0.71619 0.43447 0.0
C950 C 0.24463 0.6903 0.38957 0.0
C951 C 0.32425 0.75149 0.40725 0.0
C952 C 0.27839 0.74309 0.33213 0.0
C953 C 0.26732 0.76454 0.33546 0.0
C954 C 0.28348 0.72851 0.35219 0.0
C955 C 0.27728 0.73531 0.37642 0.0
C956 C 0.26548 0.75658 0.37977 0.0
C957 C 0.26077 0.77098 0.35933 0.0
C958 C 0.2963 0.70631 0.34758 0.0
C959 C 0.25824 0.76441 0.4051 0.0
H960 H 0.26406 0.66977 0.43001 0.0
H961 H 0.32973 0.72282 0.44623 0.0
H962 H 0.23325 0.70535 0.39038 0.0
H963 H 0.24711 0.68616 0.36956 0.0
H964 H 0.2347 0.67316 0.39661 0.0
H965 H 0.34138 0.7547 0.42 0.0
H966 H 0.32873 0.7487 0.38766 0.0
H967 H 0.31575 0.76869 0.40857 0.0
H968 H 0.28371 0.73797 0.31385 0.0
H969 H 0.25228 0.78751 0.36213 0.0
H970 H 0.28583 0.68908 0.3538 0.0
H971 H 0.31433 0.70967 0.35875 0.0
H972 H 0.29895 0.70282 0.32748 0.0
H973 H 0.24717 0.74826 0.41259 0.0
H974 H 0.24772 0.78021 0.40433 0.0
H975 H 0.27469 0.77033 0.41855 0.0
C976 C 0.56575 0.96954 0.69765 0.0
C977 C 0.58636 0.9862 0.70839 0.0
C978 C 0.55632 0.97064 0.67258 0.0
C979 C 0.56722 0.98949 0.65812 0.0
C980 C 0.58868 0.00569 0.66861 0.0
C981 C 0.59808 0.0037 0.69355 0.0
C982 C 0.53386 0.95252 0.66206 0.0
C983 C 0.6007 0.02636 0.65418 0.0
C984 C 0.55122 0.98749 0.58712 0.0
C985 C 0.53347 1.00317 0.58528 0.0
C986 C 0.56186 0.98228 0.61061 0.0
C987 C 0.55514 0.99358 0.63291 0.0
C988 C 0.53709 0.00932 0.63113 0.0
C989 C 0.52627 0.01364 0.6074 0.0
C990 C 0.58053 0.96494 0.61154 0.0
C991 C 0.52973 0.02229 0.6543 0.0
H992 H 0.55634 0.95637 0.70928 0.0
H993 H 0.61357 0.01711 0.70205 0.0
H994 H 0.51816 0.96271 0.66005 0.0
H995 H 0.53619 0.94432 0.64311 0.0
H996 H 0.52952 0.937 0.67432 0.0
H997 H 0.6182 0.03612 0.66417 0.0
H998 H 0.60407 0.0187 0.63539 0.0
H999 H 0.58844 0.04042 0.65122 0.0
H1000 H 0.55692 0.97934 0.5701 0.0
H1001 H 0.5129 0.02613 0.60614 0.0
H1002 H 0.57527 0.94958 0.62371 0.0
H1003 H 0.59835 0.97543 0.61991 0.0
H1004 H 0.58274 0.95648 0.59264 0.0
H1005 H 0.52255 0.00813 0.66693 0.0
H1006 H 0.51569 0.03418 0.64975 0.0
H1007 H 0.54582 0.03433 0.6648 0.0
C1008 C 0.28478 0.37902 0.98126 0.0
C1009 C 0.27872 0.40317 0.98031 0.0
C1010 C 0.28846 0.36515 0.95949 0.0
C1011 C 0.28571 0.37563 0.93618 0.0
C1012 C 0.28108 0.40063 0.93524 0.0
C1013 C 0.27775 0.41424 0.95747 0.0
C1014 C 0.2937 0.33868 0.9613 0.0
C1015 C 0.27807 0.41235 0.91062 0.0
C1016 C 0.30513 0.34059 0.88007 0.0
C1017 C 0.28305 0.32603 0.87006 0.0
C1018 C 0.3063 0.35724 0.90146 0.0
C1019 C 0.28485 0.35931 0.91281 0.0
C1020 C 0.26251 0.34462 0.90267 0.0
C1021 C 0.26191 0.32805 0.88142 0.0
C1022 C 0.33042 0.3725 0.91197 0.0
C1023 C 0.23924 0.34634 0.91431 0.0
H1024 H 0.28587 0.37051 0.99895 0.0
H1025 H 0.27311 0.43295 0.95677 0.0
H1026 H 0.27759 0.32505 0.95304 0.0
H1027 H 0.30905 0.33559 0.9505 0.0
H1028 H 0.29813 0.33449 0.98102 0.0
H1029 H 0.27764 0.43284 0.91337 0.0
H1030 H 0.293 0.4094 0.89916 0.0
H1031 H 0.26083 0.40313 0.89976 0.0
H1032 H 0.32143 0.3391 0.87108 0.0
H1033 H 0.2448 0.31694 0.87348 0.0
H1034 H 0.33521 0.36773 0.93139 0.0
H1035 H 0.3292 0.39284 0.91294 0.0
H1036 H 0.34528 0.36915 0.9005 0.0
H1037 H 0.24079 0.34037 0.93369 0.0
H1038 H 0.22326 0.3344 0.90344 0.0
H1039 H 0.23596 0.36609 0.91556 0.0
C1040 C 0.92363 0.06718 0.31036 0.0
C1041 C 0.89847 0.05921 0.3073 0.0
C1042 C 0.93718 0.06663 0.33342 0.0
C1043 C 0.92531 0.0574 0.35384 0.0
C1044 C 0.8998 0.04981 0.35109 0.0
C1045 C 0.88656 0.05103 0.32778 0.0
C1046 C 0.9643 0.07524 0.33569 0.0
C1047 C 0.88667 0.03954 0.37244 0.0
C1048 C 0.96568 0.02922 0.40064 0.0
C1049 C 0.97113 0.04845 0.42002 0.0
C1050 C 0.95006 0.03159 0.37938 0.0
C1051 C 0.94007 0.05397 0.37732 0.0
C1052 C 0.94564 0.07355 0.39682 0.0
C1053 C 0.96101 0.07045 0.41814 0.0
C1054 C 0.94439 0.01022 0.35904 0.0
C1055 C 0.93573 0.09787 0.39497 0.0
H1056 H 0.93285 0.07385 0.2946 0.0
H1057 H 0.8671 0.04489 0.32538 0.0
H1058 H 0.96999 0.08915 0.35211 0.0
H1059 H 0.97381 0.05899 0.33879 0.0
H1060 H 0.97038 0.08387 0.31866 0.0
H1061 H 0.86666 0.03599 0.36778 0.0
H1062 H 0.89267 0.02162 0.37715 0.0
H1063 H 0.89122 0.05283 0.38946 0.0
H1064 H 0.97333 0.01207 0.40227 0.0
H1065 H 0.96522 0.08527 0.43324 0.0
H1066 H 0.95157 0.01643 0.34151 0.0
H1067 H 0.92447 0.00459 0.35487 0.0
H1068 H 0.95238 0.99347 0.36431 0.0
H1069 H 0.94228 0.10741 0.37862 0.0
H1070 H 0.94123 0.11092 0.41212 0.0
H1071 H 0.91563 0.09401 0.39183 0.0
C1072 C 0.30085 0.6889 0.59217 0.0
C1073 C 0.31108 0.70551 0.57556 0.0
C1074 C 0.29787 0.6975 0.61701 0.0
C1075 C 0.30566 0.72321 0.62559 0.0
C1076 C 0.31764 0.73949 0.60936 0.0
C1077 C 0.31996 0.73054 0.58463 0.0
C1078 C 0.28524 0.67935 0.63362 0.0
C1079 C 0.32669 0.76687 0.61758 0.0
C1080 C 0.27254 0.75594 0.67412 0.0
C1081 C 0.28851 0.75769 0.69615 0.0
C1082 C 0.27762 0.74418 0.65141 0.0
C1083 C 0.29933 0.73387 0.65036 0.0
C1084 C 0.31542 0.7353 0.67258 0.0
C1085 C 0.3098 0.74703 0.69512 0.0
C1086 C 0.25974 0.74296 0.62839 0.0
C1087 C 0.33865 0.72449 0.67257 0.0
H1088 H 0.29355 0.66967 0.58522 0.0
H1089 H 0.32773 0.74355 0.57186 0.0
H1090 H 0.2977 0.67772 0.65047 0.0
H1091 H 0.26918 0.68649 0.64016 0.0
H1092 H 0.27923 0.66031 0.62388 0.0
H1093 H 0.33778 0.77641 0.60381 0.0
H1094 H 0.31101 0.77676 0.61988 0.0
H1095 H 0.33777 0.76876 0.63603 0.0
H1096 H 0.25589 0.76372 0.67456 0.0
H1097 H 0.32214 0.74773 0.712 0.0
H1098 H 0.25433 0.72319 0.62039 0.0
H1099 H 0.26837 0.75378 0.6138 0.0
H1100 H 0.24314 0.75066 0.63249 0.0
H1101 H 0.33435 0.70377 0.66879 0.0
H1102 H 0.35018 0.72888 0.69076 0.0
H1103 H 0.34924 0.73189 0.65743 0.0
C1104 C 0.60438 0.9974 0.86776 0.0
C1105 C 0.59401 0.99998 0.84344 0.0
C1106 C 0.59242 1.00271 0.88907 0.0
C1107 C 0.56967 0.01117 0.8861 0.0
C1108 C 0.55956 0.01455 0.86161 0.0
C1109 C 0.5717 0.00877 0.84069 0.0
C1110 C 0.60378 0.99854 0.91472 0.0
C1111 C 0.5355 0.02368 0.8574 0.0
C1112 C 0.52438 0.99783 0.93442 0.0
C1113 C 0.52627 0.02128 0.94802 0.0
C1114 C 0.5386 0.9943 0.91462 0.0
C1115 C 0.55547 0.01464 0.90819 0.0
C1116 C 0.55774 0.03833 0.92209 0.0
C1117 C 0.54302 0.0414 0.94172 0.0
C1118 C 0.53528 0.96879 0.90031 0.0
C1119 C 0.57545 0.06055 0.91598 0.0
H1120 H 0.62157 0.9906 0.87014 0.0
H1121 H 0.56353 0.01098 0.82205 0.0
H1122 H 0.60509 0.01572 0.92761 0.0
H1123 H 0.59213 0.98318 0.92275 0.0
H1124 H 0.62218 0.99347 0.91414 0.0
H1125 H 0.53087 0.027 0.83747 0.0
H1126 H 0.52088 0.00957 0.86313 0.0
H1127 H 0.53582 0.04142 0.86917 0.0
H1128 H 0.51157 0.98211 0.93919 0.0
H1129 H 0.54422 0.05969 0.95173 0.0
H1130 H 0.55263 0.96128 0.90187 0.0
H1131 H 0.5302 0.97042 0.8801 0.0
H1132 H 0.52103 0.95509 0.90724 0.0
H1133 H 0.59415 0.0561 0.91801 0.0
H1134 H 0.57493 0.07774 0.92833 0.0
H1135 H 0.57137 0.06459 0.89618 0.0
C1136 C 0.24645 0.3922 0.12078 0.0
C1137 C 0.23565 0.38523 0.09633 0.0
C1138 C 0.24096 0.37672 0.14015 0.0
C1139 C 0.2242 0.35404 0.13469 0.0
C1140 C 0.21078 0.34901 0.11081 0.0
C1141 C 0.21682 0.36465 0.0918 0.0
C1142 C 0.25565 0.38294 0.16537 0.0
C1143 C 0.19249 0.32534 0.10428 0.0
C1144 C 0.24582 0.30019 0.16678 0.0
C1145 C 0.23196 0.29852 0.18713 0.0
C1146 C 0.2425 0.31737 0.14888 0.0
C1147 C 0.22501 0.33343 0.15157 0.0
C1148 C 0.20989 0.33075 0.17121 0.0
C1149 C 0.2134 0.31309 0.18871 0.0
C1150 C 0.25878 0.31934 0.12794 0.0
C1151 C 0.19092 0.34736 0.17447 0.0
H1152 H 0.26117 0.40801 0.12417 0.0
H1153 H 0.2085 0.35935 0.07276 0.0
H1154 H 0.24528 0.3759 0.18075 0.0
H1155 H 0.27208 0.37382 0.16548 0.0
H1156 H 0.26165 0.40354 0.16915 0.0
H1157 H 0.17987 0.32709 0.08752 0.0
H1158 H 0.20219 0.3094 0.10005 0.0
H1159 H 0.18177 0.32068 0.12017 0.0
H1160 H 0.26011 0.28889 0.16552 0.0
H1161 H 0.20279 0.31202 0.20459 0.0
H1162 H 0.2708 0.33788 0.13021 0.0
H1163 H 0.24776 0.31803 0.10951 0.0
H1164 H 0.27033 0.30439 0.12763 0.0
H1165 H 0.19917 0.36745 0.17485 0.0
H1166 H 0.18208 0.34434 0.19195 0.0
H1167 H 0.17676 0.34349 0.15827 0.0
C1168 C 0.1749 0.96179 0.03071 0.0
C1169 C 0.17005 0.93586 0.03354 0.0
C1170 C 0.1567 0.97705 0.0319 0.0
C1171 C 0.13303 0.96648 0.03692 0.0
C1172 C 0.12823 0.94045 0.0407 0.0
C1173 C 0.1466 0.9254 0.03851 0.0
C1174 C 0.16264 0.00439 0.02685 0.0
C1175 C 0.10356 0.92841 0.04682 0.0
C1176 C 0.09168 0.01329 0.05703 0.0
C1177 C 0.07661 0.01391 0.03481 0.0
C1178 C 0.10953 0.99736 0.0583 0.0
C1179 C 0.11307 0.98236 0.03659 0.0
C1180 C 0.098 0.98325 0.01407 0.0
C1181 C 0.07982 0.99857 0.01362 0.0
C1182 C 0.12456 0.99651 0.0829 0.0
C1183 C 0.10142 0.96847 0.99016 0.0
H1184 H 0.19284 0.97007 0.02662 0.0
H1185 H 0.14264 0.90545 0.04084 0.0
H1186 H 0.15101 0.0081 0.01009 0.0
H1187 H 0.15872 0.01658 0.04289 0.0
H1188 H 0.18194 0.00989 0.02357 0.0
H1189 H 0.10332 0.90869 0.05167 0.0
H1190 H 0.09785 0.93938 0.06279 0.0
H1191 H 0.08991 0.92847 0.03052 0.0
H1192 H 0.08924 0.02494 0.07351 0.0
H1193 H 0.06847 0.99904 0.99628 0.0
H1194 H 0.14394 1.00344 0.08106 0.0
H1195 H 0.12323 0.9768 0.08804 0.0
H1196 H 0.11873 0.00807 0.09839 0.0
H1197 H 0.12015 0.97405 0.98515 0.0
H1198 H 0.08846 0.97146 0.97415 0.0
H1199 H 0.09902 0.9481 0.99291 0.0
C1200 C 0.6851 0.64815 0.97105 0.0
C1201 C 0.70469 0.63665 0.96461 0.0
C1202 C 0.66242 0.63374 0.97328 0.0
C1203 C 0.65918 0.60727 0.96846 0.0
C1204 C 0.67833 0.59579 0.96005 0.0
C1205 C 0.70095 0.61059 0.95846 0.0
C1206 C 0.64251 0.64667 0.98255 0.0
C1207 C 0.67539 0.5677 0.95412 0.0
C1208 C 0.61446 0.56926 0.00576 0.0
C1209 C 0.59357 0.56402 0.98861 0.0
C1210 C 0.63597 0.58305 0.99926 0.0
C1211 C 0.63676 0.59149 0.97488 0.0
C1212 C 0.61601 0.58554 0.95719 0.0
C1213 C 0.59457 0.57205 0.96433 0.0
C1214 C 0.65765 0.58925 0.0188 0.0
C1215 C 0.6163 0.59384 0.9309 0.0
H1216 H 0.68787 0.66826 0.97596 0.0
H1217 H 0.71596 0.60162 0.95325 0.0
H1218 H 0.62527 0.64059 0.97034 0.0
H1219 H 0.63926 0.64128 1.0017 0.0
H1220 H 0.64713 0.66748 0.98326 0.0
H1221 H 0.6907 0.56218 0.94451 0.0
H1222 H 0.67448 0.55816 0.97177 0.0
H1223 H 0.65819 0.56076 0.94207 0.0
H1224 H 0.61381 0.56333 0.02461 0.0
H1225 H 0.57852 0.56802 0.95093 0.0
H1226 H 0.66263 0.60995 0.0225 0.0
H1227 H 0.67352 0.58215 0.01179 0.0
H1228 H 0.65414 0.58102 0.03679 0.0
H1229 H 0.6186 0.61465 0.93153 0.0
H1230 H 0.59934 0.58592 0.91879 0.0
H1231 H 0.63192 0.58801 0.92212 0.0
C1232 C 0.71744 0.45118 0.28327 0.0
C1233 C 0.69302 0.44548 0.28778 0.0
C1234 C 0.73129 0.43206 0.27887 0.0
C1235 C 0.72053 0.40654 0.27896 0.0
C1236 C 0.69572 0.40063 0.28287 0.0
C1237 C 0.68228 0.42015 0.28725 0.0
C1238 C 0.75768 0.43921 0.27484 0.0
C1239 C 0.68353 0.37367 0.28307 0.0
C1240 C 0.75265 0.35524 0.25141 0.0
C1241 C 0.76471 0.34793 0.27305 0.0
C1242 C 0.7382 0.37434 0.25295 0.0
C1243 C 0.73566 0.38617 0.27671 0.0
C1244 C 0.74789 0.37877 0.29856 0.0
C1245 C 0.76244 0.35999 0.29642 0.0
C1246 C 0.72579 0.38199 0.2292 0.0
C1247 C 0.7455 0.39055 0.32428 0.0
H1248 H 0.72589 0.47067 0.28356 0.0
H1249 H 0.66341 0.41553 0.29061 0.0
H1250 H 0.76926 0.43342 0.29059 0.0
H1251 H 0.76161 0.42919 0.25737 0.0
H1252 H 0.76291 0.45976 0.27362 0.0
H1253 H 0.66381 0.37214 0.28495 0.0
H1254 H 0.68596 0.36271 0.26554 0.0
H1255 H 0.69211 0.36485 0.29893 0.0
H1256 H 0.75479 0.34627 0.23329 0.0
H1257 H 0.77172 0.35438 0.31323 0.0
H1258 H 0.73202 0.40222 0.2272 0.0
H1259 H 0.7059 0.3795 0.23017 0.0
H1260 H 0.72947 0.37092 0.21221 0.0
H1261 H 0.75153 0.41117 0.3252 0.0
H1262 H 0.75633 0.38272 0.33931 0.0
H1263 H 0.72619 0.38735 0.32804 0.0
C1264 C 0.81412 0.40674 0.49954 0.0
C1265 C 0.79544 0.41519 0.51179 0.0
C1266 C 0.83678 0.42207 0.49935 0.0
C1267 C 0.84112 0.4465 0.51187 0.0
C1268 C 0.82233 0.45529 0.52408 0.0
C1269 C 0.79972 0.43961 0.5238 0.0
C1270 C 0.85618 0.41198 0.4859 0.0
C1271 C 0.82623 0.48113 0.53777 0.0
C1272 C 0.90753 0.47394 0.53148 0.0
C1273 C 0.91301 0.4897 0.51235 0.0
C1274 C 0.88407 0.46038 0.53195 0.0
C1275 C 0.86559 0.46245 0.51269 0.0
C1276 C 0.87093 0.47881 0.49361 0.0
C1277 C 0.89456 0.49229 0.49371 0.0
C1278 C 0.87921 0.44335 0.55274 0.0
C1279 C 0.85184 0.48154 0.4727 0.0
H1280 H 0.81106 0.38804 0.49001 0.0
H1281 H 0.7855 0.44639 0.53335 0.0
H1282 H 0.86248 0.42485 0.47172 0.0
H1283 H 0.8721 0.41102 0.49948 0.0
H1284 H 0.84969 0.39293 0.47635 0.0
H1285 H 0.80965 0.48546 0.5458 0.0
H1286 H 0.84107 0.48259 0.55322 0.0
H1287 H 0.83192 0.49563 0.52485 0.0
H1288 H 0.92172 0.47192 0.54598 0.0
H1289 H 0.89871 0.50444 0.47888 0.0
H1290 H 0.87467 0.42351 0.54479 0.0
H1291 H 0.86338 0.44783 0.56206 0.0
H1292 H 0.89506 0.44502 0.56713 0.0
H1293 H 0.84607 0.46326 0.46144 0.0
H1294 H 0.85849 0.49594 0.46002 0.0
H1295 H 0.83554 0.48678 0.48057 0.0
C1296 C 0.37446 0.15606 0.25198 0.0
C1297 C 0.36678 0.13081 0.24285 0.0
C1298 C 0.35822 0.17367 0.25147 0.0
C1299 C 0.3336 0.16598 0.24163 0.0
C1300 C 0.32607 0.14079 0.23144 0.0
C1301 C 0.34263 0.12362 0.23221 0.0
C1302 C 0.3672 0.20033 0.2623 0.0
C1303 C 0.30019 0.13169 0.2205 0.0
C1304 C 0.28428 0.19984 0.26624 0.0
C1305 C 0.27892 0.2149 0.2468 0.0
C1306 C 0.30227 0.18438 0.26495 0.0
C1307 C 0.3153 0.18361 0.24357 0.0
C1308 C 0.31004 0.19893 0.22389 0.0
C1309 C 0.2919 0.21428 0.22571 0.0
C1310 C 0.30714 0.16858 0.28644 0.0
C1311 C 0.32295 0.19859 0.20047 0.0
H1312 H 0.39299 0.16192 0.26031 0.0
H1313 H 0.3364 0.10425 0.22502 0.0
H1314 H 0.36137 0.21386 0.24925 0.0
H1315 H 0.35915 0.20366 0.28009 0.0
H1316 H 0.38728 0.20428 0.26621 0.0
H1317 H 0.29744 0.11199 0.21206 0.0
H1318 H 0.28785 0.13279 0.2354 0.0
H1319 H 0.29486 0.14395 0.20588 0.0
H1320 H 0.27441 0.20021 0.28266 0.0
H1321 H 0.28761 0.22552 0.21041 0.0
H1322 H 0.32645 0.17332 0.29424 0.0
H1323 H 0.30375 0.14837 0.27965 0.0
H1324 H 0.29558 0.17136 0.30175 0.0
H1325 H 0.34233 0.19702 0.20486 0.0
H1326 H 0.32175 0.21573 0.19035 0.0
H1327 H 0.31439 0.18198 0.1877 0.0
C1328 C 0.31756 0.08901 0.52716 0.0
C1329 C 0.32363 0.1072 0.51036 0.0
C1330 C 0.33472 0.07455 0.53637 0.0
C1331 C 0.35804 0.07786 0.5278 0.0
C1332 C 0.36409 0.09613 0.51066 0.0
C1333 C 0.34692 0.11084 0.50249 0.0
C1334 C 0.328 0.05588 0.55529 0.0
C1335 C 0.38857 0.09988 0.50056 0.0
C1336 C 0.41591 0.05999 0.55724 0.0
C1337 C 0.41784 0.03902 0.54125 0.0
C1338 C 0.39507 0.07138 0.55497 0.0
C1339 C 0.37618 0.06189 0.5358 0.0
C1340 C 0.37718 0.03934 0.5212 0.0
C1341 C 0.39795 0.02795 0.52437 0.0
C1342 C 0.39437 0.09492 0.57147 0.0
C1343 C 0.3577 0.02884 0.50023 0.0
H1344 H 0.29958 0.08641 0.53341 0.0
H1345 H 0.35154 0.12482 0.48937 0.0
H1346 H 0.32883 0.03657 0.54743 0.0
H1347 H 0.34124 0.05985 0.5723 0.0
H1348 H 0.3095 0.0564 0.56091 0.0
H1349 H 0.39 0.11426 0.48666 0.0
H1350 H 0.40314 0.10583 0.51615 0.0
H1351 H 0.39193 0.08188 0.49144 0.0
H1352 H 0.43128 0.06846 0.57043 0.0
H1353 H 0.39945 0.01171 0.51199 0.0
H1354 H 0.37585 0.09533 0.577 0.0
H1355 H 0.39942 0.11164 0.56097 0.0
H1356 H 0.4073 0.09649 0.58869 0.0
H1357 H 0.33937 0.02876 0.50639 0.0
H1358 H 0.35931 0.00939 0.49328 0.0
H1359 H 0.35929 0.04096 0.48435 0.0
C1360 C 0.69934 0.58272 0.30851 0.0
C1361 C 0.67463 0.5811 0.31198 0.0
C1362 C 0.71384 0.60602 0.30603 0.0
C1363 C 0.70344 0.62832 0.30686 0.0
C1364 C 0.67879 0.62694 0.31132 0.0
C1365 C 0.66476 0.60346 0.31391 0.0
C1366 C 0.7401 0.60665 0.3016 0.0
C1367 C 0.66688 0.65017 0.3123 0.0
C1368 C 0.74194 0.69385 0.31507 0.0
C1369 C 0.74104 0.70086 0.29029 0.0
C1370 C 0.73051 0.67002 0.32071 0.0
C1371 C 0.71763 0.65281 0.30118 0.0
C1372 C 0.71722 0.65953 0.2761 0.0
C1373 C 0.72897 0.68331 0.27098 0.0
C1374 C 0.73168 0.66352 0.34765 0.0
C1375 C 0.70362 0.6419 0.25467 0.0
H1376 H 0.70727 0.56569 0.30707 0.0
H1377 H 0.64577 0.60262 0.31665 0.0
H1378 H 0.74275 0.61187 0.28228 0.0
H1379 H 0.75192 0.62115 0.31474 0.0
H1380 H 0.74611 0.58821 0.30392 0.0
H1381 H 0.64802 0.64622 0.31747 0.0
H1382 H 0.67754 0.66488 0.32608 0.0
H1383 H 0.66644 0.658 0.2937 0.0
H1384 H 0.75123 0.70713 0.33018 0.0
H1385 H 0.72808 0.68835 0.25175 0.0
H1386 H 0.73791 0.64513 0.34932 0.0
H1387 H 0.71329 0.6617 0.35406 0.0
H1388 H 0.74405 0.67801 0.36037 0.0
H1389 H 0.71004 0.62348 0.25455 0.0
H1390 H 0.70581 0.64951 0.23614 0.0
H1391 H 0.684 0.63842 0.25719 0.0
C1392 C 0.85934 0.4998 0.7668 0.0
C1393 C 0.88427 0.49985 0.77284 0.0
C1394 C 0.84223 0.47802 0.76783 0.0
C1395 C 0.85016 0.45562 0.77494 0.0
C1396 C 0.87523 0.45556 0.7813 0.0
C1397 C 0.89195 0.47766 0.78025 0.0
C1398 C 0.81567 0.4789 0.76102 0.0
C1399 C 0.88445 0.43202 0.78883 0.0
C1400 C 0.80613 0.40213 0.79659 0.0
C1401 C 0.80127 0.38546 0.77495 0.0
C1402 C 0.82155 0.42535 0.79672 0.0
C1403 C 0.8324 0.43194 0.77474 0.0
C1404 C 0.82693 0.41542 0.75266 0.0
C1405 C 0.81141 0.39243 0.75304 0.0
C1406 C 0.82677 0.44253 0.82057 0.0
C1407 C 0.83806 0.42166 0.72881 0.0
H1408 H 0.85312 0.51683 0.7612 0.0
H1409 H 0.91111 0.47741 0.785 0.0
H1410 H 0.80866 0.46575 0.74429 0.0
H1411 H 0.80508 0.47268 0.77658 0.0
H1412 H 0.81234 0.49804 0.75689 0.0
H1413 H 0.90441 0.43522 0.79384 0.0
H1414 H 0.8755 0.42489 0.80512 0.0
H1415 H 0.87982 0.41707 0.77318 0.0
H1416 H 0.79836 0.39675 0.81357 0.0
H1417 H 0.80772 0.37958 0.73626 0.0
H1418 H 0.82301 0.4616 0.81685 0.0
H1419 H 0.84626 0.44448 0.82754 0.0
H1420 H 0.81579 0.43541 0.83557 0.0
H1421 H 0.83425 0.44021 0.72331 0.0
H1422 H 0.83112 0.40731 0.71297 0.0
H1423 H 0.85806 0.423 0.73201 0.0
C1424 C 0.99641 0.85679 0.13757 0.0
C1425 C 1.00298 0.8341 0.12863 0.0
C1426 C 0.99748 0.87741 0.12275 0.0
C1427 C 1.00564 0.87538 0.09858 0.0
C1428 C 0.01308 0.85278 0.08987 0.0
C1429 C 0.0115 0.8324 0.1049 0.0
C1430 C 0.98927 0.90115 0.13265 0.0
C1431 C 0.02233 0.84997 0.06447 0.0
C1432 C 0.98634 0.91883 0.05004 0.0
C1433 C 1.00659 0.93788 0.05228 0.0
C1434 C 0.98577 0.89835 0.06502 0.0
C1435 C 1.00612 0.89674 0.08225 0.0
C1436 C 0.02693 0.91556 0.08388 0.0
C1437 C 0.02681 0.93601 0.06905 0.0
C1438 C 0.96321 0.87874 0.06282 0.0
C1439 C 0.04922 0.91429 0.1015 0.0
H1440 H 0.98968 0.85815 0.15581 0.0
H1441 H 0.01669 0.81495 0.09789 0.0
H1442 H 1.00407 0.91741 0.13284 0.0
H1443 H 0.97369 0.90504 0.12007 0.0
H1444 H 0.98374 0.89988 0.15192 0.0
H1445 H 0.0285 0.8316 0.06097 0.0
H1446 H 0.00779 0.85165 0.04951 0.0
H1447 H 0.03767 0.86525 0.06287 0.0
H1448 H 0.97065 0.92037 0.03719 0.0
H1449 H 0.04256 0.95069 0.0707 0.0
H1450 H 0.95563 0.87798 0.08117 0.0
H1451 H 0.96775 0.8599 0.05782 0.0
H1452 H 0.949 0.88264 0.04846 0.0
H1453 H 0.04466 0.91511 0.12117 0.0
H1454 H 0.06425 0.92988 0.09973 0.0
H1455 H 0.0557 0.89616 0.09771 0.0
C1456 C 0.93634 0.30341 0.85796 0.0
C1457 C 0.95809 0.29917 0.84853 0.0
C1458 C 0.91405 0.29895 0.84283 0.0
C1459 C 0.9131 0.29008 0.81731 0.0
C1460 C 0.93489 0.28577 0.80749 0.0
C1461 C 0.95709 0.2903 0.82319 0.0
C1462 C 0.89142 0.3038 0.8543 0.0
C1463 C 0.93471 0.27638 0.7804 0.0
C1464 C 0.84905 0.26083 0.78902 0.0
C1465 C 0.84049 0.28152 0.77889 0.0
C1466 C 0.87313 0.26282 0.80021 0.0
C1467 C 0.8892 0.28601 0.80118 0.0
C1468 C 0.88109 0.3064 0.78946 0.0
C1469 C 0.85692 0.30395 0.7786 0.0
C1470 C 0.88078 0.2406 0.81255 0.0
C1471 C 0.89745 0.33144 0.78983 0.0
H1472 H 0.93658 0.31019 0.87744 0.0
H1473 H 0.97362 0.28686 0.8156 0.0
H1474 H 0.88327 0.31832 0.84434 0.0
H1475 H 0.87773 0.28641 0.85217 0.0
H1476 H 0.89511 0.31026 0.87455 0.0
H1477 H 0.95304 0.27375 0.77558 0.0
H1478 H 0.92226 0.25819 0.77636 0.0
H1479 H 0.92778 0.28989 0.76799 0.0
H1480 H 0.83656 0.24346 0.78957 0.0
H1481 H 0.85061 0.32006 0.77075 0.0
H1482 H 0.88203 0.24433 0.83324 0.0
H1483 H 0.89898 0.23765 0.80767 0.0
H1484 H 0.86768 0.22302 0.80705 0.0
H1485 H 0.90041 0.34062 0.8092 0.0
H1486 H 0.88961 0.3443 0.77723 0.0
H1487 H 0.91546 0.32879 0.78413 0.0
C1488 C 0.52325 0.19515 0.61062 0.0
C1489 C 0.50477 0.20102 0.62483 0.0
C1490 C 0.52294 0.17094 0.59963 0.0
C1491 C 0.50398 0.15147 0.60339 0.0
C1492 C 0.486 0.15669 0.61911 0.0
C1493 C 0.48649 0.18156 0.62956 0.0
C1494 C 0.54256 0.16657 0.58307 0.0
C1495 C 0.4658 0.13637 0.62419 0.0
C1496 C 0.49743 0.10168 0.54922 0.0
C1497 C 0.51485 0.08733 0.55766 0.0
C1498 C 0.49167 0.12132 0.56491 0.0
C1499 C 0.50323 0.12627 0.58977 0.0
C1500 C 0.51871 0.10987 0.59912 0.0
C1501 C 0.52476 0.09092 0.58279 0.0
C1502 C 0.47496 0.13817 0.55413 0.0
C1503 C 0.53033 0.11348 0.62585 0.0
H1504 H 0.53782 0.20989 0.60732 0.0
H1505 H 0.47217 0.18589 0.64053 0.0
H1506 H 0.55289 0.15233 0.59067 0.0
H1507 H 0.53427 0.15921 0.56393 0.0
H1508 H 0.55558 0.184 0.5815 0.0
H1509 H 0.458 0.14124 0.6418 0.0
H1510 H 0.45107 0.13414 0.60855 0.0
H1511 H 0.47219 0.11801 0.62553 0.0
H1512 H 0.48946 0.09861 0.52987 0.0
H1513 H 0.53771 0.07931 0.58955 0.0
H1514 H 0.48569 0.15674 0.55159 0.0
H1515 H 0.46136 0.14137 0.5672 0.0
H1516 H 0.46527 0.13016 0.53569 0.0
H1517 H 0.54598 0.12904 0.6276 0.0
H1518 H 0.53702 0.09624 0.63179 0.0
H1519 H 0.51728 0.11866 0.63883 0.0
C1520 C 0.59441 0.77981 0.32227 0.0
C1521 C 0.59456 0.79684 0.3432 0.0
C1522 C 0.6158 0.77779 0.31087 0.0
C1523 C 0.63789 0.79361 0.32016 0.0
C1524 C 0.63809 0.81096 0.3412 0.0
C1525 C 0.61656 0.81215 0.3526 0.0
C1526 C 0.61478 0.75857 0.28893 0.0
C1527 C 0.66099 0.82856 0.35149 0.0
C1528 C 0.69814 0.77463 0.30436 0.0
C1529 C 0.70292 0.78784 0.28322 0.0
C1530 C 0.67713 0.77628 0.31649 0.0
C1531 C 0.66069 0.79208 0.30777 0.0
C1532 C 0.66591 0.8061 0.28692 0.0
C1533 C 0.68673 0.80355 0.27472 0.0
C1534 C 0.6722 0.76058 0.33826 0.0
C1535 C 0.64938 0.82371 0.27737 0.0
H1536 H 0.57758 0.76781 0.31493 0.0
H1537 H 0.61689 0.82548 0.36866 0.0
H1538 H 0.61973 0.76813 0.27204 0.0
H1539 H 0.62817 0.74587 0.29301 0.0
H1540 H 0.5965 0.74702 0.28454 0.0
H1541 H 0.65813 0.84121 0.36772 0.0
H1542 H 0.67539 0.81764 0.35752 0.0
H1543 H 0.66779 0.84024 0.33659 0.0
H1544 H 0.71049 0.76234 0.31099 0.0
H1545 H 0.69036 0.81388 0.25848 0.0
H1546 H 0.65456 0.74783 0.33394 0.0
H1547 H 0.6708 0.77287 0.35525 0.0
H1548 H 0.68659 0.74906 0.34263 0.0
H1549 H 0.63127 0.8129 0.27041 0.0
H1550 H 0.65663 0.83434 0.26194 0.0
H1551 H 0.64676 0.83732 0.29288 0.0
C1552 C 0.02172 0.21085 0.49234 0.0
C1553 C 0.02664 0.21585 0.46784 0.0
C1554 C 0.02112 0.18673 0.50049 0.0
C1555 C 0.0255 0.16703 0.48376 0.0
C1556 C 0.0303 0.17174 0.45895 0.0
C1557 C 0.03085 0.19617 0.45126 0.0
C1558 C 0.01601 0.18242 0.52716 0.0
C1559 C 0.03499 0.15104 0.44065 0.0
C1560 C 0.04654 0.11357 0.51697 0.0
C1561 C 0.02474 0.09689 0.51662 0.0
C1562 C 0.04732 0.13591 0.50504 0.0
C1563 C 0.02567 0.14174 0.49282 0.0
C1564 C 1.00373 0.12454 0.49179 0.0
C1565 C 1.00353 0.10226 0.50384 0.0
C1566 C 0.07112 0.15363 0.50629 0.0
C1567 C 0.98035 0.13006 0.47874 0.0
H1568 H 0.01842 0.22584 0.50534 0.0
H1569 H 0.0346 0.19981 0.43227 0.0
H1570 H 0.99998 0.16754 0.52721 0.0
H1571 H 0.03166 0.1758 0.53732 0.0
H1572 H 0.01254 0.1997 0.53765 0.0
H1573 H 0.03784 0.15766 0.42183 0.0
H1574 H 0.05129 0.14339 0.44792 0.0
H1575 H 0.01949 0.1353 0.4386 0.0
H1576 H 0.06303 0.10914 0.52656 0.0
H1577 H 0.98669 0.08933 0.5038 0.0
H1578 H 0.07012 0.17107 0.518 0.0
H1579 H 0.07478 0.15913 0.4873 0.0
H1580 H 0.08663 0.14518 0.51441 0.0
H1581 H 0.97475 0.1464 0.48892 0.0
H1582 H 0.96541 0.1138 0.47778 0.0
H1583 H 0.983 0.13515 0.45939 0.0
C1584 C 0.57883 0.31612 0.15575 0.0
C1585 C 0.57905 0.30922 0.13013 0.0
C1586 C 0.5989 0.31513 0.17296 0.0
C1587 C 0.61953 0.30667 0.16438 0.0
C1588 C 0.62019 0.3004 0.13844 0.0
C1589 C 0.59995 0.30197 0.12153 0.0
C1590 C 0.59772 0.32245 0.20041 0.0
C1591 C 0.6419 0.29113 0.12871 0.0
C1592 C 0.67929 0.31912 0.20573 0.0
C1593 C 0.67919 0.2962 0.2165 0.0
C1594 C 0.65974 0.32303 0.18908 0.0
C1595 C 0.63995 0.30329 0.18274 0.0
C1596 C 0.63962 0.2802 0.19392 0.0
C1597 C 0.65922 0.27702 0.21092 0.0
C1598 C 0.66044 0.34811 0.17803 0.0
C1599 C 0.61886 0.25867 0.18744 0.0
H1600 H 0.56279 0.32204 0.16243 0.0
H1601 H 0.60011 0.29654 0.10176 0.0
H1602 H 0.598 0.30571 0.21128 0.0
H1603 H 0.61381 0.33648 0.20789 0.0
H1604 H 0.58109 0.33045 0.2037 0.0
H1605 H 0.63994 0.28799 0.10792 0.0
H1606 H 0.65861 0.30485 0.13473 0.0
H1607 H 0.64437 0.27317 0.13676 0.0
H1608 H 0.6948 0.3339 0.21012 0.0
H1609 H 0.65928 0.25923 0.21917 0.0
H1610 H 0.64399 0.35619 0.1818 0.0
H1611 H 0.66043 0.34554 0.15737 0.0
H1612 H 0.67672 0.36182 0.18576 0.0
H1613 H 0.60157 0.26464 0.19185 0.0
H1614 H 0.62142 0.24196 0.19779 0.0
H1615 H 0.61703 0.25309 0.16701 0.0
C1616 C 0.54511 0.86726 0.93608 0.0
C1617 C 0.5492 0.8478 0.95108 0.0
C1618 C 0.54374 0.89124 0.94707 0.0
C1619 C 0.54689 0.89577 0.97356 0.0
C1620 C 0.55233 0.87649 0.98865 0.0
C1621 C 0.55321 0.85266 0.97722 0.0
C1622 C 0.53773 0.91134 0.93044 0.0
C1623 C 0.55626 0.88074 0.01691 0.0
C1624 C 0.55628 0.96363 1.00077 0.0
C1625 C 0.5327 0.96623 0.00605 0.0
C1626 C 0.56137 0.94063 0.9907 0.0
C1627 C 0.54238 0.91988 0.98558 0.0
C1628 C 0.51875 0.92214 0.99164 0.0
C1629 C 0.51425 0.94522 1.00198 0.0
C1630 C 0.58685 0.93876 0.98477 0.0
C1631 C 0.49799 0.90043 0.98631 0.0
H1632 H 0.54199 0.86348 0.91587 0.0
H1633 H 0.55667 0.83767 0.98885 0.0
H1634 H 0.51944 0.91561 0.93349 0.0
H1635 H 0.55083 0.92896 0.93537 0.0
H1636 H 0.5379 0.90558 0.91022 0.0
H1637 H 0.56273 0.86462 0.02573 0.0
H1638 H 0.56968 0.89798 0.02268 0.0
H1639 H 0.539 0.88361 0.02435 0.0
H1640 H 0.57065 0.97976 0.00379 0.0
H1641 H 0.49594 0.94701 0.00584 0.0
H1642 H 0.5872 0.93618 0.96416 0.0
H1643 H 0.59295 0.92215 0.99288 0.0
H1644 H 0.59997 0.95584 0.99207 0.0
H1645 H 0.49508 0.89474 0.96589 0.0
H1646 H 0.48076 0.9052 0.99247 0.0
H1647 H 0.5024 0.88392 0.99597 0.0
C1648 C 0.95227 0.78678 0.67903 0.0
C1649 C 0.94849 0.79373 0.65443 0.0
C1650 C 0.93411 0.78668 0.69528 0.0
C1651 C 0.91178 0.79382 0.68671 0.0
C1652 C 0.90782 0.80077 0.66188 0.0
C1653 C 0.92623 0.80054 0.64598 0.0
C1654 C 0.93879 0.77891 0.72157 0.0
C1655 C 0.88408 0.80829 0.65206 0.0
C1656 C 0.85473 0.77051 0.71589 0.0
C1657 C 0.85132 0.79216 0.73007 0.0
C1658 C 0.8748 0.77059 0.70231 0.0
C1659 C 0.89196 0.79283 0.70317 0.0
C1660 C 0.88925 0.81441 0.71846 0.0
C1661 C 0.86883 0.81382 0.73184 0.0
C1662 C 0.87717 0.74713 0.68639 0.0
C1663 C 0.9073 0.83841 0.71977 0.0
H1664 H 0.96949 0.78153 0.68565 0.0
H1665 H 0.9233 0.80606 0.62703 0.0
H1666 H 0.93618 0.79412 0.73548 0.0
H1667 H 0.92556 0.76205 0.72437 0.0
H1668 H 0.95741 0.77454 0.72554 0.0
H1669 H 0.88421 0.81391 0.63253 0.0
H1670 H 0.86906 0.79237 0.6525 0.0
H1671 H 0.88012 0.82421 0.66426 0.0
H1672 H 0.84127 0.75362 0.71479 0.0
H1673 H 0.8661 0.83052 0.74284 0.0
H1674 H 0.87902 0.75148 0.66668 0.0
H1675 H 0.86133 0.732 0.68647 0.0
H1676 H 0.89379 0.73992 0.69341 0.0
H1677 H 0.926 0.83454 0.72428 0.0
H1678 H 0.90364 0.8528 0.73404 0.0
H1679 H 0.90659 0.84632 0.70121 0.0
C1680 C 0.09671 0.9968 0.84572 0.0
C1681 C 0.12193 1.00108 0.85217 0.0
C1682 C 0.08051 0.99688 0.86407 0.0
C1683 C 0.08966 1.00172 0.88964 0.0
C1684 C 0.1151 0.00546 0.89642 0.0
C1685 C 0.13098 0.00496 0.87757 0.0
C1686 C 0.05357 0.99251 0.856 0.0
C1687 C 0.12555 0.01084 0.9235 0.0
C1688 C 0.05068 0.03286 0.93218 0.0
C1689 C 0.0413 0.01305 0.94602 0.0
C1690 C 0.0664 0.02934 0.91392 0.0
C1691 C 0.07265 0.00527 0.90887 0.0
C1692 C 0.06234 0.98484 0.92182 0.0
C1693 C 0.04683 0.98898 0.94033 0.0
C1694 C 0.07691 0.05166 0.90058 0.0
C1695 C 0.06826 0.9588 0.91665 0.0
H1696 H 0.0895 0.99346 0.82614 0.0
H1697 H 0.15042 0.00813 0.88268 0.0
H1698 H 0.04409 0.97777 0.86671 0.0
H1699 H 0.0461 0.01001 0.86013 0.0
H1700 H 0.04933 0.98671 0.83564 0.0
H1701 H 0.14553 0.01156 0.92586 0.0
H1702 H 0.12135 0.02915 0.93095 0.0
H1703 H 0.11712 0.99624 0.93504 0.0
H1704 H 0.04646 0.05153 0.93626 0.0
H1705 H 0.03991 0.97361 0.95104 0.0
H1706 H 0.0721 0.04791 0.88003 0.0
H1707 H 0.097 0.05482 0.90403 0.0
H1708 H 0.07034 0.06919 0.90682 0.0
H1709 H 0.06458 0.95289 0.8963 0.0
H1710 H 0.05766 0.94466 0.92718 0.0
H1711 H 0.08786 0.95889 0.92199 0.0
C1712 C 0.71455 0.33324 0.59403 0.0
C1713 C 0.7271 0.35625 0.58798 0.0
C1714 C 0.71949 0.3238 0.61748 0.0
C1715 C 0.73806 0.33724 0.63521 0.0
C1716 C 0.75011 0.36105 0.6296 0.0
C1717 C 0.74436 0.37035 0.60613 0.0
C1718 C 0.70562 0.29874 0.62274 0.0
C1719 C 0.77019 0.37596 0.64769 0.0
C1720 C 0.74175 0.31732 0.70251 0.0
C1721 C 0.75829 0.30026 0.70187 0.0
C1722 C 0.73522 0.3297 0.68119 0.0
C1723 C 0.74588 0.32549 0.65868 0.0
C1724 C 0.76323 0.30893 0.65823 0.0
C1725 C 0.76899 0.29634 0.67968 0.0
C1726 C 0.71623 0.34659 0.68254 0.0
C1727 C 0.7754 0.30411 0.63488 0.0
H1728 H 0.70147 0.32207 0.57992 0.0
H1729 H 0.75458 0.3878 0.60133 0.0
H1730 H 0.71794 0.28453 0.62326 0.0
H1731 H 0.69861 0.30012 0.64136 0.0
H1732 H 0.69012 0.29193 0.60827 0.0
H1733 H 0.77629 0.39501 0.64168 0.0
H1734 H 0.76418 0.37792 0.66673 0.0
H1735 H 0.78593 0.36579 0.64912 0.0
H1736 H 0.73323 0.32041 0.7195 0.0
H1737 H 0.78179 0.28325 0.67902 0.0
H1738 H 0.70004 0.33862 0.66935 0.0
H1739 H 0.72324 0.36543 0.67668 0.0
H1740 H 0.71046 0.34883 0.70169 0.0
H1741 H 0.76169 0.29459 0.61965 0.0
H1742 H 0.78967 0.29218 0.63802 0.0
H1743 H 0.78373 0.32219 0.62828 0.0
C1744 C 0.45571 0.08996 0.33311 0.0
C1745 C 0.43143 0.07972 0.32526 0.0
C1746 C 0.46673 0.08604 0.35689 0.0
C1747 C 0.4535 0.07062 0.37297 0.0
C1748 C 0.42897 0.06002 0.36499 0.0
C1749 C 0.41811 0.06507 0.34145 0.0
C1750 C 0.49256 0.09846 0.36479 0.0
C1751 C 0.41437 0.0428 0.38103 0.0
C1752 C 0.49036 0.04128 0.4236 0.0
C1753 C 0.48737 0.05562 0.44548 0.0
C1754 C 0.47919 0.04569 0.40001 0.0
C1755 C 0.46538 0.06553 0.39803 0.0
C1756 C 0.463 0.08055 0.42006 0.0
C1757 C 0.47356 0.07508 0.44351 0.0
C1758 C 0.4816 0.02862 0.3773 0.0
C1759 C 0.44923 0.10241 0.4189 0.0
H1760 H 0.46609 0.1013 0.32067 0.0
H1761 H 0.39946 0.05677 0.33532 0.0
H1762 H 0.49363 0.1096 0.3831 0.0
H1763 H 0.50436 0.08396 0.36738 0.0
H1764 H 0.49988 0.11109 0.35081 0.0
H1765 H 0.39581 0.03546 0.3719 0.0
H1766 H 0.42377 0.02664 0.38504 0.0
H1767 H 0.41285 0.05292 0.39931 0.0
H1768 H 0.50058 0.02587 0.42509 0.0
H1769 H 0.4711 0.08615 0.46039 0.0
H1770 H 0.49063 0.03968 0.36312 0.0
H1771 H 0.46332 0.0198 0.36845 0.0
H1772 H 0.49218 0.0135 0.38206 0.0
H1773 H 0.45654 0.11535 0.4052 0.0
H1774 H 0.45027 0.11318 0.43742 0.0
H1775 H 0.42987 0.09552 0.4123 0.0
C1776 C 0.76855 0.66454 0.07006 0.0
C1777 C 0.78062 0.68229 0.05574 0.0
C1778 C 0.76556 0.67099 0.09519 0.0
C1779 C 0.77513 0.69556 0.10595 0.0
C1780 C 0.78899 0.71278 0.09205 0.0
C1781 C 0.79146 0.70594 0.06703 0.0
C1782 C 0.75091 0.65214 0.10966 0.0
C1783 C 0.7999 0.739 0.10306 0.0
C1784 C 0.74547 0.72899 0.15552 0.0
C1785 C 0.76207 0.72894 0.17654 0.0
C1786 C 0.74876 0.71679 0.13255 0.0
C1787 C 0.76909 0.70434 0.13086 0.0
C1788 C 0.78517 0.70318 0.15244 0.0
C1789 C 0.7815 0.71562 0.17507 0.0
C1790 C 0.73125 0.71839 0.10983 0.0
C1791 C 0.80701 0.69008 0.15138 0.0
H1792 H 0.76012 0.64626 0.06123 0.0
H1793 H 0.80109 0.71951 0.05595 0.0
H1794 H 0.76027 0.65139 0.12866 0.0
H1795 H 0.73313 0.65804 0.11213 0.0
H1796 H 0.74757 0.63297 0.09987 0.0
H1797 H 0.81181 0.74928 0.09041 0.0
H1798 H 0.78518 0.74992 0.10664 0.0
H1799 H 0.81067 0.73826 0.12131 0.0
H1800 H 0.73037 0.73918 0.15682 0.0
H1801 H 0.79423 0.7154 0.19149 0.0
H1802 H 0.72491 0.69944 0.10008 0.0
H1803 H 0.74061 0.73022 0.09638 0.0
H1804 H 0.71519 0.72664 0.11479 0.0
H1805 H 0.80209 0.6716 0.14033 0.0
H1806 H 0.81514 0.68712 0.17039 0.0
H1807 H 0.82101 0.70168 0.1419 0.0
C1808 C 0.13536 0.01888 0.70717 0.0
C1809 C 0.12837 0.99929 0.72205 0.0
C1810 C 0.12551 0.01788 0.68209 0.0
C1811 C 0.10837 0.99673 0.67189 0.0
C1812 C 0.10313 0.97587 0.68626 0.0
C1813 C 0.113 0.97755 0.7114 0.0
C1814 C 0.13155 0.04053 0.66741 0.0
C1815 C 0.0853 0.95282 0.67595 0.0
C1816 C 0.05838 0.0131 0.62675 0.0
C1817 C 0.06597 0.00646 0.60352 0.0
C1818 C 0.07162 0.00912 0.64913 0.0
C1819 C 0.09306 0.99839 0.64817 0.0
C1820 C 0.10026 0.9907 0.6247 0.0
C1821 C 0.08655 0.99479 0.60256 0.0
C1822 C 0.06309 0.01725 0.6738 0.0
C1823 C 0.12292 0.97912 0.62295 0.0
H1824 H 0.14693 0.03585 0.71572 0.0
H1825 H 0.10742 0.96259 0.72319 0.0
H1826 H 0.13519 0.0347 0.64812 0.0
H1827 H 0.1158 0.0507 0.66576 0.0
H1828 H 0.14755 0.05378 0.67661 0.0
H1829 H 0.08681 0.93665 0.68744 0.0
H1830 H 0.06657 0.95707 0.67586 0.0
H1831 H 0.08813 0.94726 0.65632 0.0
H1832 H 0.04235 0.02194 0.62745 0.0
H1833 H 0.09238 0.98962 0.58453 0.0
H1834 H 0.07677 0.03251 0.68391 0.0
H1835 H 0.06113 1.00133 0.68591 0.0
H1836 H 0.04544 0.02415 0.67126 0.0
H1837 H 0.1391 0.99357 0.62897 0.0
H1838 H 0.1244 0.97143 0.60356 0.0
H1839 H 0.1233 0.96381 0.63573 0.0
C1840 C 0.72618 0.38236 0.43489 0.0
C1841 C 0.71893 0.36748 0.45418 0.0
C1842 C 0.73112 0.3714 0.41169 0.0
C1843 C 0.72823 0.34482 0.40731 0.0
C1844 C 0.72034 0.32975 0.42658 0.0
C1845 C 0.71607 0.34121 0.44975 0.0
C1846 C 0.73982 0.38831 0.39202 0.0
C1847 C 0.71659 0.30141 0.42281 0.0
C1848 C 0.72239 0.31453 0.33979 0.0
C1849 C 0.74557 0.30817 0.33789 0.0
C1850 C 0.7165 0.32646 0.3621 0.0
C1851 C 0.73427 0.3327 0.38308 0.0
C1852 C 0.75778 0.32665 0.38113 0.0
C1853 C 0.76305 0.31437 0.35878 0.0
C1854 C 0.69116 0.33229 0.36325 0.0
C1855 C 0.77752 0.33336 0.40266 0.0
H1856 H 0.72857 0.40266 0.43813 0.0
H1857 H 0.7104 0.3295 0.46447 0.0
H1858 H 0.75731 0.38388 0.38636 0.0
H1859 H 0.7265 0.38498 0.3751 0.0
H1860 H 0.74232 0.40855 0.39868 0.0
H1861 H 0.70917 0.29232 0.43905 0.0
H1862 H 0.70396 0.29481 0.40571 0.0
H1863 H 0.73409 0.29505 0.41994 0.0
H1864 H 0.70875 0.31015 0.32381 0.0
H1865 H 0.78116 0.31005 0.35758 0.0
H1866 H 0.6918 0.35286 0.36676 0.0
H1867 H 0.68292 0.32327 0.3791 0.0
H1868 H 0.67922 0.32571 0.34564 0.0
H1869 H 0.7802 0.35386 0.40813 0.0
H1870 H 0.7951 0.32826 0.39794 0.0
H1871 H 0.77211 0.32353 0.41926 0.0
C1872 C 0.43263 0.07307 0.17208 0.0
C1873 C 0.44725 0.06834 0.1934 0.0
C1874 C 0.44044 0.07075 0.14772 0.0
C1875 C 0.46332 0.06341 0.14451 0.0
C1876 C 0.47806 0.05877 0.16596 0.0
C1877 C 0.46999 0.06138 0.18981 0.0
C1878 C 0.4242 0.07604 0.1254 0.0
C1879 C 0.50266 0.05112 0.16381 0.0
C1880 C 0.48317 0.03495 0.08402 0.0
C1881 C 0.49931 0.05518 0.07699 0.0
C1882 C 0.46985 0.03777 0.10487 0.0
C1883 C 0.47283 0.06134 0.1192 0.0
C1884 C 0.48824 0.08207 0.11129 0.0
C1885 C 0.50116 0.07875 0.09037 0.0
C1886 C 0.45365 0.01511 0.1124 0.0
C1887 C 0.49203 0.10758 0.12568 0.0
H1888 H 0.41505 0.07836 0.17437 0.0
H1889 H 0.48179 0.05772 0.20582 0.0
H1890 H 0.42012 0.05926 0.11171 0.0
H1891 H 0.40685 0.08118 0.1308 0.0
H1892 H 0.43365 0.09163 0.1157 0.0
H1893 H 0.51172 0.04762 0.18222 0.0
H1894 H 0.50078 0.03378 0.15104 0.0
H1895 H 0.51463 0.0661 0.15562 0.0
H1896 H 0.48169 0.01667 0.0739 0.0
H1897 H 0.51328 0.09463 0.08484 0.0
H1898 H 0.43604 0.02011 0.11705 0.0
H1899 H 0.46241 0.00835 0.12947 0.0
H1900 H 0.45015 0.99947 0.09736 0.0
H1901 H 0.47443 0.11444 0.12616 0.0
H1902 H 0.50483 0.12169 0.1173 0.0
H1903 H 0.4993 0.1062 0.14538 0.0
C1904 C 0.7883 0.6747 0.9041 0.0
C1905 C 0.7963 0.68308 0.92907 0.0
C1906 C 0.78932 0.69176 0.88542 0.0
C1907 C 0.79882 0.71751 0.89209 0.0
C1908 C 0.80861 0.72553 0.91697 0.0
C1909 C 0.80709 0.70823 0.93519 0.0
C1910 C 0.77878 0.68261 0.85894 0.0
C1911 C 0.81916 0.75271 0.92475 0.0
C1912 C 0.80823 0.7586 0.83818 0.0
C1913 C 0.78591 0.76728 0.83535 0.0
C1914 C 0.81327 0.74313 0.85734 0.0
C1915 C 0.79558 0.73645 0.87391 0.0
C1916 C 0.77396 0.74697 0.87242 0.0
C1917 C 0.76945 0.7624 0.8532 0.0
C1918 C 0.83676 0.7327 0.85888 0.0
C1919 C 0.75477 0.74052 0.88999 0.0
H1920 H 0.78005 0.65523 0.89943 0.0
H1921 H 0.81368 0.71464 0.95453 0.0
H1922 H 0.7619 0.69048 0.8544 0.0
H1923 H 0.79162 0.68928 0.84536 0.0
H1924 H 0.77439 0.66177 0.8563 0.0
H1925 H 0.82952 0.75502 0.94364 0.0
H1926 H 0.83131 0.76056 0.91104 0.0
H1927 H 0.80426 0.764 0.92521 0.0
H1928 H 0.82096 0.76219 0.82433 0.0
H1929 H 0.75225 0.76925 0.85114 0.0
H1930 H 0.83293 0.71197 0.85486 0.0
H1931 H 0.84622 0.73657 0.87814 0.0
H1932 H 0.84914 0.74077 0.84542 0.0
H1933 H 0.74721 0.72019 0.88694 0.0
H1934 H 0.73961 0.75141 0.88715 0.0
H1935 H 0.76282 0.74422 0.90979 0.0
C1936 C 0.87707 0.13163 0.98781 0.0
C1937 C 0.86198 0.13039 0.00729 0.0
C1938 C 0.89522 0.11631 0.98637 0.0
C1939 C 0.8994 0.10016 0.00558 0.0
C1940 C 0.88478 0.09965 0.02588 0.0
C1941 C 0.86585 0.11415 0.02608 0.0
C1942 C 0.90947 0.11692 0.96384 0.0
C1943 C 0.88889 0.08366 0.04742 0.0
C1944 C 0.92962 0.04183 0.99473 0.0
C1945 C 0.95411 0.05087 0.0029 0.0
C1946 C 0.91194 0.05781 0.99464 0.0
C1947 C 0.91851 0.08337 0.0041 0.0
C1948 C 0.9433 0.09261 0.01234 0.0
C1949 C 0.96081 0.0765 0.01087 0.0
C1950 C 0.88614 0.04721 0.98448 0.0
C1951 C 0.95146 0.1194 0.02321 0.0
H1952 H 0.87404 0.14395 0.97309 0.0
H1953 H 0.85433 0.11313 0.04124 0.0
H1954 H 0.9286 0.12546 0.96965 0.0
H1955 H 0.90943 0.09752 0.95559 0.0
H1956 H 0.90204 0.12798 0.9491 0.0
H1957 H 0.88166 0.09085 0.06457 0.0
H1958 H 0.87938 0.06418 0.04222 0.0
H1959 H 0.90846 0.08291 0.05194 0.0
H1960 H 0.92423 0.02211 0.98837 0.0
H1961 H 0.97964 0.08389 0.01686 0.0
H1962 H 0.87897 0.05983 0.97117 0.0
H1963 H 0.87448 0.04594 1.00008 0.0
H1964 H 0.88458 0.02816 0.97472 0.0
H1965 H 0.95349 0.13196 0.00776 0.0
H1966 H 0.96926 0.12164 0.03475 0.0
H1967 H 0.93799 0.12575 0.03502 0.0
C1968 C 0.36208 0.42916 0.0494 0.0
C1969 C 0.34254 0.44111 0.05531 0.0
C1970 C 0.38555 0.44272 0.04982 0.0
C1971 C 0.38982 0.46888 0.05671 0.0
C1972 C 0.37064 0.48075 0.06455 0.0
C1973 C 0.34715 0.46678 0.06353 0.0
C1974 C 0.4054 0.42932 0.04111 0.0
C1975 C 0.37466 0.50847 0.07271 0.0
C1976 C 0.45644 0.4991 0.06356 0.0
C1977 C 0.45871 0.50799 0.03977 0.0
C1978 C 0.43383 0.48746 0.06998 0.0
C1979 C 0.41323 0.48411 0.05197 0.0
C1980 C 0.41538 0.49353 0.02817 0.0
C1981 C 0.43796 0.50549 0.02248 0.0
C1982 C 0.43218 0.47811 0.09573 0.0
C1983 C 0.39405 0.48996 0.00818 0.0
H1984 H 0.3589 0.40932 0.04318 0.0
H1985 H 0.3323 0.47616 0.06845 0.0
H1986 H 0.41087 0.43641 0.0232 0.0
H1987 H 0.42166 0.43322 0.05502 0.0
H1988 H 0.39959 0.40863 0.0381 0.0
H1989 H 0.35924 0.51392 0.0822 0.0
H1990 H 0.39157 0.51378 0.08563 0.0
H1991 H 0.37676 0.51945 0.05607 0.0
H1992 H 0.47234 0.50098 0.07706 0.0
H1993 H 0.43941 0.51214 0.00398 0.0
H1994 H 0.43065 0.45734 0.09436 0.0
H1995 H 0.41576 0.48291 0.10371 0.0
H1996 H 0.44841 0.48613 0.10888 0.0
H1997 H 0.38778 0.46958 0.00309 0.0
H1998 H 0.39859 0.49909 0.99089 0.0
H1999 H 0.37866 0.49783 0.01538 0.0
C2000 C 0.31223 0.61383 0.74414 0.0
C2001 C 0.33689 0.61809 0.74046 0.0
C2002 C 0.2995 0.634 0.748 0.0
C2003 C 0.31154 0.65903 0.74747 0.0
C2004 C 0.33619 0.66338 0.74269 0.0
C2005 C 0.34868 0.64288 0.73969 0.0
C2006 C 0.27332 0.62853 0.75332 0.0
C2007 C 0.34946 0.68968 0.74101 0.0
C2008 C 0.27034 0.70742 0.73511 0.0
C2009 C 0.27048 0.71949 0.75908 0.0
C2010 C 0.28435 0.68849 0.73095 0.0
C2011 C 0.29811 0.68056 0.75147 0.0
C2012 C 0.29834 0.69267 0.7758 0.0
C2013 C 0.28473 0.71227 0.77926 0.0
C2014 C 0.28441 0.67704 0.70455 0.0
C2015 C 0.31257 0.68461 0.79823 0.0
H2016 H 0.30312 0.59473 0.74511 0.0
H2017 H 0.36777 0.64627 0.73687 0.0
H2018 H 0.27113 0.63817 0.77167 0.0
H2019 H 0.26163 0.636 0.73879 0.0
H2020 H 0.26675 0.60808 0.75373 0.0
H2021 H 0.36782 0.68972 0.73481 0.0
H2022 H 0.33892 0.69979 0.72769 0.0
H2023 H 0.35139 0.70041 0.75961 0.0
H2024 H 0.25952 0.7131 0.71935 0.0
H2025 H 0.28474 0.72148 0.7978 0.0
H2026 H 0.27614 0.6569 0.70314 0.0
H2027 H 0.30332 0.67799 0.69971 0.0
H2028 H 0.27424 0.68671 0.69047 0.0
H2029 H 0.30601 0.66453 0.80063 0.0
H2030 H 0.31099 0.69599 0.81582 0.0
H2031 H 0.33202 0.68633 0.79518 0.0
C2032 C 0.21294 0.63834 0.47516 0.0
C2033 C 0.2296 0.64478 0.49654 0.0
C2034 C 0.18992 0.62405 0.47667 0.0
C2035 C 0.18301 0.61698 0.50031 0.0
C2036 C 0.19997 0.62341 0.52192 0.0
C2037 C 0.22318 0.63685 0.51968 0.0
C2038 C 0.17283 0.6169 0.45301 0.0
C2039 C 0.19323 0.6171 0.5476 0.0
C2040 C 0.1152 0.60708 0.50763 0.0
C2041 C 0.10966 0.58092 0.50807 0.0
C2042 C 0.13901 0.619 0.50553 0.0
C2043 C 0.15763 0.60434 0.50271 0.0
C2044 C 0.15193 0.57778 0.50251 0.0
C2045 C 0.12813 0.56642 0.50573 0.0
C2046 C 0.14428 0.64736 0.50675 0.0
C2047 C 0.17091 0.56134 0.49856 0.0
H2048 H 0.21793 0.64453 0.45727 0.0
H2049 H 0.236 0.64214 0.53626 0.0
H2050 H 0.16545 0.5965 0.45164 0.0
H2051 H 0.15723 0.6272 0.45352 0.0
H2052 H 0.18184 0.62129 0.43589 0.0
H2053 H 0.2086 0.62297 0.56244 0.0
H2054 H 0.17787 0.62663 0.55231 0.0
H2055 H 0.18709 0.59659 0.54777 0.0
H2056 H 0.10097 0.61833 0.50955 0.0
H2057 H 0.1238 0.54615 0.5058 0.0
H2058 H 0.15073 0.65354 0.4889 0.0
H2059 H 0.15898 0.65459 0.52194 0.0
H2060 H 0.12808 0.65607 0.51022 0.0
H2061 H 0.17897 0.56534 0.48084 0.0
H2062 H 0.16335 0.541 0.49769 0.0
H2063 H 0.18583 0.56562 0.51402 0.0
C2064 C 0.64601 0.90735 0.76532 0.0
C2065 C 0.65619 0.93056 0.77822 0.0
C2066 C 0.65976 0.88761 0.76291 0.0
C2067 C 0.68399 0.8908 0.77445 0.0
C2068 C 0.69383 0.91386 0.78851 0.0
C2069 C 0.68005 0.93353 0.78976 0.0
C2070 C 0.64872 0.86385 0.74697 0.0
C2071 C 0.71917 0.91799 0.8019 0.0
C2072 C 0.71767 0.83466 0.78338 0.0
C2073 C 0.73378 0.83739 0.76487 0.0
C2074 C 0.70087 0.85138 0.78636 0.0
C2075 C 0.6999 0.87114 0.77025 0.0
C2076 C 0.71554 0.87325 0.75094 0.0
C2077 C 0.7323 0.85654 0.74861 0.0
C2078 C 0.68485 0.84848 0.80741 0.0
C2079 C 0.7149 0.89359 0.73299 0.0
H2080 H 0.62763 0.90499 0.75624 0.0
H2081 H 0.68795 0.95132 0.79999 0.0
H2082 H 0.65749 0.86322 0.7293 0.0
H2083 H 0.65196 0.84698 0.75667 0.0
H2084 H 0.62888 0.8628 0.74212 0.0
H2085 H 0.72322 0.93582 0.81416 0.0
H2086 H 0.72162 0.90215 0.81354 0.0
H2087 H 0.73263 0.91857 0.78797 0.0
H2088 H 0.7187 0.81993 0.79603 0.0
H2089 H 0.74444 0.8586 0.73402 0.0
H2090 H 0.66562 0.84821 0.80023 0.0
H2091 H 0.69012 0.86487 0.82148 0.0
H2092 H 0.68624 0.83102 0.81692 0.0
H2093 H 0.69621 0.8926 0.72378 0.0
H2094 H 0.72739 0.89209 0.71831 0.0
H2095 H 0.72009 0.91236 0.74339 0.0
C2096 C 0.685 0.96283 0.54624 0.0
C2097 C 0.70846 0.97038 0.53976 0.0
C2098 C 0.66625 0.97626 0.53939 0.0
C2099 C 0.67089 0.99703 0.5247 0.0
C2100 C 0.69475 0.00501 0.51856 0.0
C2101 C 0.7134 0.9918 0.52656 0.0
C2102 C 0.64129 0.96769 0.54719 0.0
C2103 C 0.70027 0.0265 0.50227 0.0
C2104 C 0.61341 0.00773 0.48681 0.0
C2105 C 0.60693 0.02759 0.50135 0.0
C2106 C 0.63526 0.99884 0.49311 0.0
C2107 C 0.65042 0.00949 0.51501 0.0
C2108 C 0.64448 0.0304 0.52899 0.0
C2109 C 0.62299 0.03949 0.52171 0.0
C2110 C 0.64135 0.97707 0.47719 0.0
C2111 C 0.65966 0.04181 0.55287 0.0
H2112 H 0.68124 0.94611 0.55627 0.0
H2113 H 0.73148 0.99721 0.52108 0.0
H2114 H 0.63412 0.98385 0.55589 0.0
H2115 H 0.62862 0.95993 0.53043 0.0
H2116 H 0.64132 0.95298 0.56072 0.0
H2117 H 0.72 0.03149 0.50064 0.0
H2118 H 0.6907 0.02119 0.4832 0.0
H2119 H 0.69353 0.0434 0.50986 0.0
H2120 H 0.60095 0.99846 0.47113 0.0
H2121 H 0.61785 0.05466 0.5332 0.0
H2122 H 0.63846 0.95975 0.48728 0.0
H2123 H 0.66071 0.9806 0.47362 0.0
H2124 H 0.62989 0.9736 0.4589 0.0
H2125 H 0.65768 0.02827 0.56752 0.0
H2126 H 0.65412 0.05961 0.56001 0.0
H2127 H 0.67915 0.04559 0.54994 0.0
C2128 C 0.36534 0.45951 0.75238 0.0
C2129 C 0.35479 0.48107 0.74828 0.0
C2130 C 0.35113 0.43573 0.75267 0.0
C2131 C 0.32553 0.43312 0.74876 0.0
C2132 C 0.31466 0.45461 0.74399 0.0
C2133 C 0.32939 0.47831 0.7438 0.0
C2134 C 0.36358 0.41343 0.75782 0.0
C2135 C 0.28746 0.45266 0.73969 0.0
C2136 C 0.29349 0.36525 0.73383 0.0
C2137 C 0.28847 0.35818 0.75775 0.0
C2138 C 0.30439 0.38997 0.73032 0.0
C2139 C 0.31043 0.40809 0.75119 0.0
C2140 C 0.30423 0.40137 0.7751 0.0
C2141 C 0.29339 0.37661 0.77808 0.0
C2142 C 0.31056 0.39631 0.70448 0.0
C2143 C 0.31022 0.41998 0.79791 0.0
H2144 H 0.3849 0.46118 0.75572 0.0
H2145 H 0.32096 0.49472 0.74059 0.0
H2146 H 0.35829 0.40586 0.77558 0.0
H2147 H 0.35776 0.39818 0.74263 0.0
H2148 H 0.38367 0.41836 0.75939 0.0
H2149 H 0.28185 0.47065 0.73451 0.0
H2150 H 0.27993 0.43775 0.72458 0.0
H2151 H 0.27927 0.44721 0.75697 0.0
H2152 H 0.28979 0.35126 0.71797 0.0
H2153 H 0.28943 0.37155 0.79664 0.0
H2154 H 0.33053 0.39899 0.70408 0.0
H2155 H 0.30451 0.41421 0.69981 0.0
H2156 H 0.30214 0.38127 0.68978 0.0
H2157 H 0.3302 0.42451 0.8024 0.0
H2158 H 0.30219 0.41261 0.81464 0.0
H2159 H 0.30358 0.4378 0.79409 0.0
C2160 C 0.14094 0.58909 0.28465 0.0
C2161 C 0.14884 0.5667 0.29108 0.0
C2162 C 0.15754 0.61088 0.28214 0.0
C2163 C 0.18277 0.61054 0.2866 0.0
C2164 C 0.19091 0.58822 0.29375 0.0
C2165 C 0.17387 0.56651 0.29567 0.0
C2166 C 0.14806 0.63417 0.27421 0.0
C2167 C 0.21761 0.58721 0.29914 0.0
C2168 C 0.22375 0.66071 0.25659 0.0
C2169 C 0.22927 0.67982 0.27612 0.0
C2170 C 0.20923 0.63769 0.25995 0.0
C2171 C 0.20047 0.63359 0.28354 0.0
C2172 C 0.20718 0.6524 0.30368 0.0
C2173 C 0.2213 0.67537 0.29965 0.0
C2174 C 0.20225 0.6183 0.23789 0.0
C2175 C 0.19874 0.64862 0.32927 0.0
H2176 H 0.12168 0.58944 0.28083 0.0
H2177 H 0.18019 0.54935 0.30071 0.0
H2178 H 0.15436 0.65005 0.28865 0.0
H2179 H 0.15531 0.63975 0.25649 0.0
H2180 H 0.12792 0.63132 0.27127 0.0
H2181 H 0.22096 0.56878 0.30553 0.0
H2182 H 0.22686 0.59066 0.28202 0.0
H2183 H 0.22604 0.60225 0.3138 0.0
H2184 H 0.22979 0.66419 0.23835 0.0
H2185 H 0.22574 0.69009 0.31486 0.0
H2186 H 0.1824 0.616 0.2325 0.0
H2187 H 0.2064 0.59977 0.24306 0.0
H2188 H 0.21178 0.62364 0.22132 0.0
H2189 H 0.17869 0.64683 0.32804 0.0
H2190 H 0.20671 0.66445 0.3433 0.0
H2191 H 0.20364 0.63093 0.33606 0.0
C2192 C 0.5393 0.72083 0.40697 0.0
C2193 C 0.53749 0.74233 0.42234 0.0
C2194 C 0.54034 0.69761 0.41733 0.0
C2195 C 0.53925 0.69597 0.44349 0.0
C2196 C 0.53878 0.71792 0.45913 0.0
C2197 C 0.53822 0.74074 0.44843 0.0
C2198 C 0.54155 0.67467 0.4002 0.0
C2199 C 0.53745 0.71712 0.48707 0.0
C2200 C 0.51075 0.63611 0.46973 0.0
C2201 C 0.53101 0.62835 0.48217 0.0
C2202 C 0.51327 0.65763 0.45629 0.0
C2203 C 0.53673 0.67129 0.45469 0.0
C2204 C 0.55734 0.66293 0.46649 0.0
C2205 C 0.5542 0.64174 0.48044 0.0
C2206 C 0.49076 0.66625 0.4446 0.0
C2207 C 0.58265 0.67661 0.46474 0.0
H2208 H 0.5389 0.72188 0.38686 0.0
H2209 H 0.53737 0.75731 0.46064 0.0
H2210 H 0.55543 0.66405 0.40824 0.0
H2211 H 0.52382 0.66197 0.3983 0.0
H2212 H 0.54587 0.67966 0.38119 0.0
H2213 H 0.53802 0.73607 0.4967 0.0
H2214 H 0.52036 0.70508 0.49055 0.0
H2215 H 0.55269 0.70869 0.49573 0.0
H2216 H 0.49282 0.62561 0.47093 0.0
H2217 H 0.56992 0.6354 0.48967 0.0
H2218 H 0.49209 0.66854 0.42438 0.0
H2219 H 0.4891 0.68489 0.45367 0.0
H2220 H 0.47399 0.65289 0.44656 0.0
H2221 H 0.58529 0.67997 0.44493 0.0
H2222 H 0.5968 0.66599 0.47226 0.0
H2223 H 0.5853 0.69525 0.47548 0.0
C2224 C 0.57301 0.28567 0.7132 0.0
C2225 C 0.57339 0.28943 0.68757 0.0
C2226 C 0.59472 0.28617 0.72896 0.0
C2227 C 0.61738 0.29017 0.71886 0.0
C2228 C 0.61788 0.29452 0.69318 0.0
C2229 C 0.59604 0.29426 0.678 0.0
C2230 C 0.5934 0.28194 0.75633 0.0
C2231 C 0.64152 0.29867 0.68145 0.0
C2232 C 0.67905 0.30962 0.75723 0.0
C2233 C 0.68814 0.28679 0.75716 0.0
C2234 C 0.65547 0.31079 0.74625 0.0
C2235 C 0.64062 0.28868 0.73454 0.0
C2236 C 0.64924 0.26541 0.73553 0.0
C2237 C 0.67272 0.26472 0.74694 0.0
C2238 C 0.64694 0.33594 0.74605 0.0
C2239 C 0.63426 0.24138 0.72311 0.0
H2240 H 0.55574 0.282 0.72091 0.0
H2241 H 0.59678 0.2972 0.6583 0.0
H2242 H 0.59972 0.26401 0.76036 0.0
H2243 H 0.60559 0.29719 0.76824 0.0
H2244 H 0.57468 0.28114 0.76178 0.0
H2245 H 0.63889 0.30228 0.66133 0.0
H2246 H 0.65401 0.31487 0.6916 0.0
H2247 H 0.65057 0.28188 0.683 0.0
H2248 H 0.69065 0.32681 0.7651 0.0
H2249 H 0.6794 0.24693 0.74669 0.0
H2250 H 0.62814 0.33435 0.75134 0.0
H2251 H 0.64677 0.34233 0.72683 0.0
H2252 H 0.65888 0.35051 0.75905 0.0
H2253 H 0.61573 0.2389 0.72919 0.0
H2254 H 0.64256 0.22456 0.7274 0.0
H2255 H 0.63238 0.24241 0.70246 0.0
C2256 C 0.05506 0.38044 0.91602 0.0
C2257 C 0.03587 0.36802 0.89901 0.0
C2258 C 0.05228 0.4015 0.93159 0.0
C2259 C 0.02956 0.40997 0.9304 0.0
C2260 C 0.01038 0.39796 0.9125 0.0
C2261 C 0.01378 0.37704 0.89699 0.0
C2262 C 0.07323 0.41381 0.95025 0.0
C2263 C 0.98588 0.40633 0.91068 0.0
C2264 C 0.0118 0.44261 0.98928 0.0
C2265 C 0.01592 0.4679 0.9841 0.0
C2266 C 0.01654 0.42364 0.97213 0.0
C2267 C 0.02534 0.43011 0.94909 0.0
C2268 C 0.02989 0.45571 0.94397 0.0
C2269 C 0.02528 0.47432 0.96161 0.0
C2270 C 0.01181 0.39662 0.97851 0.0
C2271 C 0.03914 0.46339 0.91963 0.0
H2272 H 0.07199 0.37304 0.91782 0.0
H2273 H 0.99881 0.36697 0.8842 0.0
H2274 H 0.07639 0.43448 0.94907 0.0
H2275 H 0.06882 0.41033 0.96957 0.0
H2276 H 0.09028 0.40653 0.94718 0.0
H2277 H 0.97355 0.39641 0.89448 0.0
H2278 H 0.97723 0.4026 0.92812 0.0
H2279 H 0.98792 0.42688 0.90886 0.0
H2280 H 1.00464 0.43763 0.00668 0.0
H2281 H 0.0284 0.49387 0.95747 0.0
H2282 H 0.02855 0.38816 0.97775 0.0
H2283 H 0.99777 0.38555 0.96449 0.0
H2284 H 1.00561 0.39479 0.99747 0.0
H2285 H 0.0564 0.45635 0.91724 0.0
H2286 H 0.04222 0.48412 0.91872 0.0
H2287 H 0.02588 0.45478 0.90362 0.0
C2288 C 0.93437 0.75799 0.21838 0.0
C2289 C 0.93544 0.76635 0.19425 0.0
C2290 C 0.91343 0.75828 0.23106 0.0
C2291 C 0.8932 0.76776 0.21967 0.0
C2292 C 0.89411 0.77592 0.19517 0.0
C2293 C 0.91503 0.77487 0.18272 0.0
C2294 C 0.91304 0.74869 0.25681 0.0
C2295 C 0.87327 0.78653 0.18238 0.0
C2296 C 0.83098 0.75381 0.24465 0.0
C2297 C 0.8311 0.77532 0.26078 0.0
C2298 C 0.85106 0.75093 0.23132 0.0
C2299 C 0.87162 0.77026 0.23379 0.0
C2300 C 0.87157 0.79217 0.24989 0.0
C2301 C 0.85153 0.79421 0.26346 0.0
C2302 C 0.85028 0.72709 0.21474 0.0
C2303 C 0.89269 0.81355 0.25273 0.0
H2304 H 0.94995 0.75128 0.22743 0.0
H2305 H 0.91565 0.78153 0.16414 0.0
H2306 H 0.912 0.76433 0.27091 0.0
H2307 H 0.89667 0.73432 0.25733 0.0
H2308 H 0.9294 0.74027 0.26237 0.0
H2309 H 0.87671 0.79202 0.16329 0.0
H2310 H 0.85641 0.77251 0.18084 0.0
H2311 H 0.87 0.80332 0.1938 0.0
H2312 H 0.81558 0.7388 0.24319 0.0
H2313 H 0.85171 0.81081 0.27602 0.0
H2314 H 0.86749 0.7195 0.21799 0.0
H2315 H 0.84812 0.73121 0.19477 0.0
H2316 H 0.83498 0.71235 0.21797 0.0
H2317 H 0.90934 0.80695 0.26065 0.0
H2318 H 0.88946 0.8297 0.26516 0.0
H2319 H 0.89618 0.82019 0.23408 0.0
C2320 C 0.51412 0.38685 0.0981 0.0
C2321 C 0.51307 0.36328 0.08514 0.0
C2322 C 0.5176 0.40887 0.08548 0.0
C2323 C 0.51987 0.40703 0.05939 0.0
C2324 C 0.51984 0.38335 0.04654 0.0
C2325 C 0.51648 0.36178 0.05959 0.0
C2326 C 0.51758 0.4338 0.09995 0.0
C2327 C 0.52216 0.38064 0.01871 0.0
C2328 C 0.49914 0.45561 0.0187 0.0
C2329 C 0.5213 0.46938 0.01404 0.0
C2330 C 0.49844 0.4357 0.03412 0.0
C2331 C 0.52048 0.4294 0.04488 0.0
C2332 C 0.54294 0.44332 0.04024 0.0
C2333 C 0.54307 0.46311 0.02461 0.0
C2334 C 0.47414 0.42141 0.03885 0.0
C2335 C 0.56679 0.43715 0.05144 0.0
H2336 H 0.51152 0.38807 0.11787 0.0
H2337 H 0.51586 0.3436 0.04951 0.0
H2338 H 0.52877 0.4495 0.09198 0.0
H2339 H 0.49871 0.43773 0.09918 0.0
H2340 H 0.52439 0.43338 0.11999 0.0
H2341 H 0.523 0.36097 0.01184 0.0
H2342 H 0.50638 0.38674 0.00822 0.0
H2343 H 0.53872 0.39292 0.01428 0.0
H2344 H 0.4823 0.46074 0.01069 0.0
H2345 H 0.56017 0.47383 0.0208 0.0
H2346 H 0.47204 0.42316 0.0592 0.0
H2347 H 0.47306 0.40112 0.0331 0.0
H2348 H 0.45877 0.4284 0.02852 0.0
H2349 H 0.5658 0.43251 0.07119 0.0
H2350 H 0.58194 0.45295 0.05085 0.0
H2351 H 0.57103 0.42043 0.04068 0.0
C2352 C 0.94327 0.29706 0.41384 0.0
C2353 C 0.96257 0.28516 0.40732 0.0
C2354 C 0.92208 0.29527 0.39722 0.0
C2355 C 0.92021 0.28115 0.37373 0.0
C2356 C 0.93943 0.26875 0.36729 0.0
C2357 C 0.96034 0.27093 0.38411 0.0
C2358 C 0.90186 0.30879 0.40458 0.0
C2359 C 0.93807 0.25343 0.34247 0.0
C2360 C 0.85835 0.25899 0.33774 0.0
C2361 C 0.85776 0.27685 0.32002 0.0
C2362 C 0.87857 0.2602 0.35546 0.0
C2363 C 0.89849 0.27981 0.35542 0.0
C2364 C 0.8981 0.29764 0.33727 0.0
C2365 C 0.87772 0.29587 0.31968 0.0
C2366 C 0.87854 0.24065 0.37432 0.0
C2367 C 0.91908 0.31874 0.3366 0.0
H2368 H 0.94487 0.30808 0.43169 0.0
H2369 H 0.97503 0.26144 0.37892 0.0
H2370 H 0.89884 0.323 0.3911 0.0
H2371 H 0.88469 0.29529 0.40372 0.0
H2372 H 0.90585 0.31842 0.42377 0.0
H2373 H 0.95433 0.24429 0.3407 0.0
H2374 H 0.92176 0.23864 0.34019 0.0
H2375 H 0.93633 0.26568 0.32682 0.0
H2376 H 0.84284 0.24431 0.33801 0.0
H2377 H 0.87717 0.30978 0.30606 0.0
H2378 H 0.88053 0.2499 0.39363 0.0
H2379 H 0.89425 0.23065 0.3727 0.0
H2380 H 0.86164 0.22657 0.37173 0.0
H2381 H 0.92246 0.33023 0.35485 0.0
H2382 H 0.91575 0.33125 0.32147 0.0
H2383 H 0.93585 0.31091 0.33368 0.0
C2384 C 0.9926 0.71211 0.58864 0.0
C2385 C 0.98716 0.73009 0.57229 0.0
C2386 C 0.98983 0.68662 0.57995 0.0
C2387 C 0.98106 0.67917 0.55453 0.0
C2388 C 0.97312 0.69694 0.53884 0.0
C2389 C 0.97653 0.72227 0.54784 0.0
C2390 C 0.99849 0.66818 0.59726 0.0
C2391 C 0.96302 0.68961 0.51186 0.0
C2392 C 0.0095 0.62839 0.5224 0.0
C2393 C 0.99175 0.60707 0.52261 0.0
C2394 C 1.00609 0.65188 0.53271 0.0
C2395 C 0.98423 0.65425 0.54321 0.0
C2396 C 0.96582 0.63306 0.54268 0.0
C2397 C 0.96986 0.60964 0.53249 0.0
C2398 C 0.02622 0.67406 0.53293 0.0
C2399 C 0.9422 0.63496 0.55348 0.0
H2400 H 1.00082 0.71819 0.60756 0.0
H2401 H 0.97198 0.73619 0.53531 0.0
H2402 H 0.98536 0.6504 0.59563 0.0
H2403 H 0.01598 0.6635 0.59183 0.0
H2404 H 1.00128 0.67595 0.61717 0.0
H2405 H 0.9539 0.70447 0.50361 0.0
H2406 H 0.97801 0.68639 0.50056 0.0
H2407 H 0.94987 0.67184 0.51031 0.0
H2408 H 0.02649 0.62664 0.51489 0.0
H2409 H 0.95608 0.59324 0.53291 0.0
H2410 H 0.0322 0.68192 0.55252 0.0
H2411 H 0.01953 0.68916 0.52258 0.0
H2412 H 0.04221 0.66893 0.52429 0.0
H2413 H 0.94555 0.6382 0.5742 0.0
H2414 H 0.92864 0.61759 0.54875 0.0
H2415 H 0.93438 0.65116 0.5465 0.0
C2416 C 0.57921 0.74236 0.86563 0.0
C2417 C 0.58669 0.758 0.88775 0.0
C2418 C 0.59587 0.73735 0.84884 0.0
C2419 C 0.62047 0.74855 0.8542 0.0
C2420 C 0.62837 0.76317 0.87719 0.0
C2421 C 0.61135 0.76759 0.89382 0.0
C2422 C 0.58687 0.7213 0.82473 0.0
C2423 C 0.65449 0.7755 0.88347 0.0
C2424 C 0.66948 0.72911 0.81656 0.0
C2425 C 0.67213 0.74822 0.80012 0.0
C2426 C 0.65213 0.72841 0.83384 0.0
C2427 C 0.63736 0.74738 0.83465 0.0
C2428 C 0.63938 0.76612 0.81737 0.0
C2429 C 0.65671 0.76624 0.80022 0.0
C2430 C 0.6503 0.70804 0.85185 0.0
C2431 C 0.62397 0.78672 0.81767 0.0
H2432 H 0.56017 0.73466 0.86103 0.0
H2433 H 0.61716 0.77968 0.91091 0.0
H2434 H 0.58731 0.73333 0.80875 0.0
H2435 H 0.59884 0.70717 0.82131 0.0
H2436 H 0.56801 0.71135 0.82492 0.0
H2437 H 0.6581 0.78432 0.90301 0.0
H2438 H 0.66681 0.76154 0.88098 0.0
H2439 H 0.65902 0.79026 0.87044 0.0
H2440 H 0.68153 0.71523 0.81652 0.0
H2441 H 0.65885 0.7811 0.78757 0.0
H2442 H 0.63115 0.69898 0.85185 0.0
H2443 H 0.65665 0.71643 0.87118 0.0
H2444 H 0.66136 0.69334 0.84715 0.0
H2445 H 0.60445 0.77844 0.8157 0.0
H2446 H 0.62728 0.79938 0.80241 0.0
H2447 H 0.6279 0.79819 0.83592 0.0
C2448 C 0.40496 0.56084 0.66272 0.0
C2449 C 0.41615 0.57271 0.68566 0.0
C2450 C 0.41772 0.56114 0.64131 0.0
C2451 C 0.44198 0.5741 0.64299 0.0
C2452 C 0.4522 0.58836 0.66554 0.0
C2453 C 0.4392 0.58739 0.68659 0.0
C2454 C 0.40547 0.54654 0.61743 0.0
C2455 C 0.47786 0.60248 0.66833 0.0
C2456 C 0.48635 0.54428 0.60631 0.0
C2457 C 0.48932 0.55971 0.58644 0.0
C2458 C 0.47096 0.54882 0.62463 0.0
C2459 C 0.45809 0.56936 0.62319 0.0
C2460 C 0.46131 0.58536 0.60349 0.0
C2461 C 0.47699 0.58044 0.5854 0.0
C2462 C 0.46805 0.53121 0.64528 0.0
C2463 C 0.44791 0.60741 0.60136 0.0
H2464 H 0.38711 0.54955 0.66201 0.0
H2465 H 0.44782 0.59666 0.70441 0.0
H2466 H 0.3973 0.55967 0.60548 0.0
H2467 H 0.4184 0.53778 0.60669 0.0
H2468 H 0.39063 0.53155 0.62123 0.0
H2469 H 0.4817 0.61565 0.68551 0.0
H2470 H 0.49075 0.58884 0.66949 0.0
H2471 H 0.4814 0.61327 0.65182 0.0
H2472 H 0.4957 0.52818 0.60729 0.0
H2473 H 0.47884 0.59227 0.56992 0.0
H2474 H 0.4488 0.52214 0.64447 0.0
H2475 H 0.47293 0.54192 0.66387 0.0
H2476 H 0.47952 0.51625 0.64387 0.0
H2477 H 0.42827 0.60132 0.60266 0.0
H2478 H 0.45022 0.61634 0.5835 0.0
H2479 H 0.4547 0.62176 0.61718 0.0
C2480 C 0.80507 0.22326 0.94124 0.0
C2481 C 0.79691 0.19744 0.9421 0.0
C2482 C 0.79934 0.23589 0.91993 0.0
C2483 C 0.78431 0.22267 0.89908 0.0
C2484 C 0.77571 0.1966 0.89994 0.0
C2485 C 0.78242 0.18422 0.92127 0.0
C2486 C 0.80964 0.26341 0.91965 0.0
C2487 C 0.75911 0.18191 0.87849 0.0
C2488 C 0.75432 0.26441 0.85483 0.0
C2489 C 0.7689 0.2649 0.83498 0.0
C2490 C 0.75843 0.24985 0.87525 0.0
C2491 C 0.77814 0.23617 0.87632 0.0
C2492 C 0.79287 0.23667 0.85623 0.0
C2493 C 0.78781 0.25062 0.83569 0.0
C2494 C 0.74182 0.24931 0.89583 0.0
C2495 C 0.81455 0.2232 0.85677 0.0
H2496 H 0.81638 0.23359 0.95719 0.0
H2497 H 0.77586 0.16433 0.9219 0.0
H2498 H 0.82015 0.26632 0.90326 0.0
H2499 H 0.79472 0.27464 0.91766 0.0
H2500 H 0.8217 0.27079 0.93699 0.0
H2501 H 0.7533 0.16202 0.88231 0.0
H2502 H 0.74273 0.19083 0.87483 0.0
H2503 H 0.76835 0.1822 0.8611 0.0
H2504 H 0.73959 0.27525 0.85428 0.0
H2505 H 0.79928 0.25101 0.8205 0.0
H2506 H 0.75202 0.25855 0.91353 0.0
H2507 H 0.73493 0.22957 0.89932 0.0
H2508 H 0.72611 0.25902 0.89119 0.0
H2509 H 0.82753 0.23063 0.87341 0.0
H2510 H 0.82418 0.22542 0.83968 0.0
H2511 H 0.80878 0.20286 0.85853 0.0
C2512 C 0.09627 0.51365 0.19874 0.0
C2513 C 0.09404 0.49085 0.21008 0.0
C2514 C 0.08773 0.51472 0.17344 0.0
C2515 C 0.07636 0.49243 0.15897 0.0
C2516 C 0.07525 0.46909 0.16996 0.0
C2517 C 0.08403 0.46858 0.19545 0.0
C2518 C 0.0895 0.54003 0.16272 0.0
C2519 C 0.06348 0.44485 0.15525 0.0
C2520 C 0.02859 0.5029 0.1069 0.0
C2521 C 0.04157 0.50369 0.08575 0.0
C2522 C 0.03942 0.49831 0.13054 0.0
C2523 C 0.06385 0.49414 0.13327 0.0
C2524 C 0.07674 0.49385 0.11178 0.0
C2525 C 0.06553 0.49873 0.0884 0.0
C2526 C 0.02497 0.49903 0.15287 0.0
C2527 C 0.10269 0.48928 0.11362 0.0
H2528 H 0.10362 0.53095 0.21014 0.0
H2529 H 0.08176 0.451 0.20429 0.0
H2530 H 0.09754 0.53945 0.14463 0.0
H2531 H 0.07105 0.54484 0.15892 0.0
H2532 H 0.10063 0.55524 0.17567 0.0
H2533 H 0.06682 0.42812 0.16521 0.0
H2534 H 0.04361 0.44453 0.15211 0.0
H2535 H 0.07032 0.44346 0.13655 0.0
H2536 H 0.01014 0.50675 0.10522 0.0
H2537 H 0.07581 0.49916 0.07225 0.0
H2538 H 0.03332 0.51516 0.16636 0.0
H2539 H 0.02527 0.48167 0.16278 0.0
H2540 H 1.00578 0.50093 0.14745 0.0
H2541 H 0.11455 0.5053 0.1248 0.0
H2542 H 0.10941 0.48713 0.0949 0.0
H2543 H 0.10446 0.47214 0.12349 0.0
C2544 C 0.77096 0.90716 0.46029 0.0
C2545 C 0.76103 0.89514 0.48015 0.0
C2546 C 0.77361 0.89317 0.43804 0.0
C2547 C 0.76574 0.86683 0.43576 0.0
C2548 C 0.7558 0.85469 0.45584 0.0
C2549 C 0.75374 0.869 0.47786 0.0
C2550 C 0.78457 0.90652 0.41695 0.0
C2551 C 0.74689 0.82666 0.45392 0.0
C2552 C 0.74756 0.83268 0.37171 0.0
C2553 C 0.7674 0.82037 0.36866 0.0
C2554 C 0.74697 0.84826 0.39338 0.0
C2555 C 0.76692 0.85181 0.4121 0.0
C2556 C 0.78711 0.83954 0.409 0.0
C2557 C 0.78699 0.82366 0.3873 0.0
C2558 C 0.72486 0.86054 0.3964 0.0
C2559 C 0.80874 0.84317 0.42859 0.0
H2560 H 0.77671 0.92736 0.46217 0.0
H2561 H 0.74594 0.85965 0.49319 0.0
H2562 H 0.80016 0.89784 0.41139 0.0
H2563 H 0.771 0.90445 0.40026 0.0
H2564 H 0.79089 0.92688 0.42221 0.0
H2565 H 0.73985 0.82017 0.47145 0.0
H2566 H 0.73219 0.82157 0.43829 0.0
H2567 H 0.76179 0.81629 0.44964 0.0
H2568 H 0.73242 0.83003 0.35716 0.0
H2569 H 0.80243 0.8143 0.38464 0.0
H2570 H 0.73025 0.88118 0.40023 0.0
H2571 H 0.7159 0.85347 0.41271 0.0
H2572 H 0.71144 0.85676 0.3795 0.0
H2573 H 0.81591 0.8635 0.43269 0.0
H2574 H 0.82356 0.83345 0.42258 0.0
H2575 H 0.80317 0.83583 0.44635 0.0
C2576 C 0.42736 0.57097 0.81444 0.0
C2577 C 0.40208 0.56387 0.81161 0.0
C2578 C 0.44095 0.56996 0.83737 0.0
C2579 C 0.42899 0.56124 0.85792 0.0
C2580 C 0.40337 0.55461 0.85543 0.0
C2581 C 0.39011 0.5562 0.83222 0.0
C2582 C 0.4682 0.57749 0.83934 0.0
C2583 C 0.39013 0.54499 0.87697 0.0
C2584 C 0.46871 0.53167 0.90411 0.0
C2585 C 0.47533 0.55106 0.92323 0.0
C2586 C 0.45282 0.53444 0.88319 0.0
C2587 C 0.44371 0.55733 0.88124 0.0
C2588 C 0.45036 0.57701 0.90055 0.0
C2589 C 0.46603 0.57355 0.92149 0.0
C2590 C 0.44607 0.513 0.86301 0.0
C2591 C 0.44133 0.60182 0.89885 0.0
H2592 H 0.43666 0.57726 0.79859 0.0
H2593 H 0.37056 0.55075 0.83 0.0
H2594 H 0.4745 0.59139 0.85566 0.0
H2595 H 0.47704 0.56078 0.84242 0.0
H2596 H 0.47444 0.58574 0.82218 0.0
H2597 H 0.37011 0.54233 0.87255 0.0
H2598 H 0.39537 0.52671 0.88159 0.0
H2599 H 0.39536 0.55823 0.89397 0.0
H2600 H 0.47573 0.51416 0.90564 0.0
H2601 H 0.47113 0.58849 0.9364 0.0
H2602 H 0.45322 0.51874 0.84531 0.0
H2603 H 0.42605 0.50821 0.85917 0.0
H2604 H 0.45337 0.49586 0.86825 0.0
H2605 H 0.44815 0.61115 0.8825 0.0
H2606 H 0.44729 0.61474 0.91601 0.0
H2607 H 0.42122 0.59868 0.8958 0.0
C2608 C 0.8042 0.1912 0.09346 0.0
C2609 C 0.81497 0.20822 0.07754 0.0
C2610 C 0.80106 0.19911 0.1184 0.0
C2611 C 0.80928 0.22452 0.12777 0.0
C2612 C 0.82203 0.2411 0.11234 0.0
C2613 C 0.82448 0.23285 0.08745 0.0
C2614 C 0.78767 0.18066 0.13421 0.0
C2615 C 0.83165 0.26814 0.12153 0.0
C2616 C 0.77497 0.25651 0.17545 0.0
C2617 C 0.79007 0.25728 0.19794 0.0
C2618 C 0.78075 0.24536 0.15281 0.0
C2619 C 0.8023 0.23468 0.15235 0.0
C2620 C 0.81754 0.23515 0.17501 0.0
C2621 C 0.8112 0.24628 0.19748 0.0
C2622 C 0.76378 0.24514 0.12924 0.0
C2623 C 0.84054 0.22387 0.17561 0.0
H2624 H 0.79651 0.17226 0.08585 0.0
H2625 H 0.83274 0.24615 0.07521 0.0
H2626 H 0.79966 0.17843 0.15122 0.0
H2627 H 0.77157 0.18791 0.14048 0.0
H2628 H 0.78161 0.16188 0.12395 0.0
H2629 H 0.8435 0.27778 0.10843 0.0
H2630 H 0.81626 0.27849 0.12361 0.0
H2631 H 0.84212 0.26918 0.14025 0.0
H2632 H 0.75846 0.26459 0.17547 0.0
H2633 H 0.82284 0.24623 0.21474 0.0
H2634 H 0.75822 0.2256 0.12063 0.0
H2635 H 0.77326 0.25621 0.11533 0.0
H2636 H 0.74722 0.25312 0.13287 0.0
H2637 H 0.83587 0.20312 0.17241 0.0
H2638 H 0.85192 0.22853 0.19386 0.0
H2639 H 0.85142 0.23057 0.16041 0.0
C2640 C 0.10343 0.49115 0.37001 0.0
C2641 C 0.09476 0.49618 0.34578 0.0
C2642 C 0.09116 0.49661 0.39106 0.0
C2643 C 0.06997 0.50794 0.388 0.0
C2644 C 0.06169 0.51382 0.36367 0.0
C2645 C 0.07394 0.50763 0.34295 0.0
C2646 C 0.10037 0.48944 0.41646 0.0
C2647 C 0.03947 0.5262 0.3594 0.0
C2648 C 0.02099 0.49716 0.43286 0.0
C2649 C 0.02482 0.51987 0.44806 0.0
C2650 C 0.03591 0.49288 0.41387 0.0
C2651 C 0.05528 0.51182 0.40965 0.0
C2652 C 0.05961 0.53466 0.42531 0.0
C2653 C 0.04436 0.5384 0.44433 0.0
C2654 C 0.03056 0.46819 0.39794 0.0
C2655 C 0.07997 0.5554 0.42157 0.0
H2656 H 0.11943 0.48224 0.37244 0.0
H2657 H 0.06712 0.51177 0.32441 0.0
H2658 H 0.10298 0.50591 0.43047 0.0
H2659 H 0.08672 0.47477 0.42295 0.0
H2660 H 0.11778 0.4821 0.4161 0.0
H2661 H 0.03646 0.53138 0.33981 0.0
H2662 H 0.02319 0.51325 0.36353 0.0
H2663 H 0.04119 0.54341 0.37233 0.0
H2664 H 1.00612 0.48258 0.43573 0.0
H2665 H 0.04746 0.55597 0.45597 0.0
H2666 H 0.04717 0.45943 0.39768 0.0
H2667 H 0.02477 0.47152 0.37829 0.0
H2668 H 0.01603 0.45471 0.40475 0.0
H2669 H 0.09735 0.54801 0.42159 0.0
H2670 H 0.08211 0.57121 0.43634 0.0
H2671 H 0.07637 0.56276 0.40301 0.0
C2672 C 0.71357 0.86298 0.59797 0.0
C2673 C 0.73224 0.88377 0.6011 0.0
C2674 C 0.70938 0.84738 0.61743 0.0
C2675 C 0.7242 0.85297 0.64046 0.0
C2676 C 0.74068 0.87594 0.64477 0.0
C2677 C 0.74456 0.89118 0.62485 0.0
C2678 C 0.69156 0.82322 0.61203 0.0
C2679 C 0.75653 0.8829 0.66924 0.0
C2680 C 0.71481 0.81222 0.69476 0.0
C2681 C 0.73347 0.79779 0.69299 0.0
C2682 C 0.71119 0.83008 0.67758 0.0
C2683 C 0.72604 0.83288 0.65775 0.0
C2684 C 0.74372 0.81706 0.65487 0.0
C2685 C 0.7474 0.79989 0.67272 0.0
C2686 C 0.69227 0.84666 0.68132 0.0
C2687 C 0.75958 0.8191 0.6336 0.0
H2688 H 0.70407 0.85735 0.57946 0.0
H2689 H 0.75912 0.90717 0.62717 0.0
H2690 H 0.70161 0.80752 0.60791 0.0
H2691 H 0.68156 0.81875 0.62846 0.0
H2692 H 0.67825 0.82411 0.59559 0.0
H2693 H 0.76163 0.90363 0.67276 0.0
H2694 H 0.74748 0.8754 0.68529 0.0
H2695 H 0.77347 0.8748 0.66828 0.0
H2696 H 0.70412 0.81087 0.71058 0.0
H2697 H 0.76181 0.78877 0.67135 0.0
H2698 H 0.6771 0.84172 0.66619 0.0
H2699 H 0.70005 0.8667 0.6802 0.0
H2700 H 0.68478 0.84459 0.69965 0.0
H2701 H 0.74825 0.81789 0.61537 0.0
H2702 H 0.77109 0.80412 0.63296 0.0
H2703 H 0.77162 0.83762 0.63577 0.0
C2704 C 0.67213 0.45884 0.54459 0.0
C2705 C 0.66656 0.43404 0.53351 0.0
C2706 C 0.65411 0.47432 0.54631 0.0
C2707 C 0.62976 0.46509 0.53647 0.0
C2708 C 0.62388 0.43981 0.52594 0.0
C2709 C 0.64223 0.42463 0.52472 0.0
C2710 C 0.66135 0.50093 0.55798 0.0
C2711 C 0.59833 0.4291 0.51502 0.0
C2712 C 0.5792 0.50269 0.55242 0.0
C2713 C 0.57745 0.51722 0.53178 0.0
C2714 C 0.59591 0.48553 0.55426 0.0
C2715 C 0.61116 0.4826 0.53489 0.0
C2716 C 0.60912 0.49708 0.51395 0.0
C2717 C 0.59263 0.51428 0.51281 0.0
C2718 C 0.59743 0.47073 0.57706 0.0
C2719 C 0.62463 0.49472 0.49272 0.0
H2720 H 0.69076 0.4664 0.55156 0.0
H2721 H 0.6376 0.40557 0.51609 0.0
H2722 H 0.65964 0.5143 0.54334 0.0
H2723 H 0.64904 0.50491 0.57223 0.0
H2724 H 0.68032 0.50454 0.56702 0.0
H2725 H 0.59651 0.40909 0.50778 0.0
H2726 H 0.5856 0.43059 0.52946 0.0
H2727 H 0.59271 0.44017 0.49945 0.0
H2728 H 0.56797 0.5052 0.56746 0.0
H2729 H 0.59151 0.52539 0.49676 0.0
H2730 H 0.61649 0.47297 0.58564 0.0
H2731 H 0.59139 0.45044 0.57142 0.0
H2732 H 0.58599 0.47665 0.59145 0.0
H2733 H 0.64373 0.50297 0.49919 0.0
H2734 H 0.61847 0.50459 0.47647 0.0
H2735 H 0.62425 0.47468 0.48643 0.0
C2736 C 0.18029 0.1482 0.47091 0.0
C2737 C 0.20009 0.13598 0.46687 0.0
C2738 C 0.15738 0.13441 0.47343 0.0
C2739 C 0.15413 0.1078 0.47141 0.0
C2740 C 0.17363 0.09539 0.46567 0.0
C2741 C 0.19644 0.10963 0.46371 0.0
C2742 C 0.13711 0.14834 0.47986 0.0
C2743 C 0.17074 0.06705 0.46283 0.0
C2744 C 0.10723 0.07285 0.50858 0.0
C2745 C 0.08752 0.06535 0.49023 0.0
C2746 C 0.12892 0.08676 0.50266 0.0
C2747 C 0.13113 0.093 0.47768 0.0
C2748 C 0.11143 0.08521 0.45897 0.0
C2749 C 0.08975 0.07166 0.46552 0.0
C2750 C 0.14937 0.09508 0.52326 0.0
C2751 C 0.11324 0.09123 0.43208 0.0
H2752 H 0.18299 0.16855 0.47352 0.0
H2753 H 0.21161 0.10007 0.46036 0.0
H2754 H 0.12025 0.14105 0.46741 0.0
H2755 H 0.13312 0.14525 0.49939 0.0
H2756 H 0.1418 0.16889 0.47831 0.0
H2757 H 0.1867 0.0604 0.45547 0.0
H2758 H 0.16837 0.0595 0.48133 0.0
H2759 H 0.15428 0.05912 0.45002 0.0
H2760 H 0.10554 0.06835 0.52778 0.0
H2761 H 0.07459 0.06592 0.45124 0.0
H2762 H 0.1542 0.11588 0.52483 0.0
H2763 H 0.16576 0.08731 0.51865 0.0
H2764 H 0.14462 0.08896 0.54178 0.0
H2765 H 0.11646 0.1119 0.43099 0.0
H2766 H 0.09657 0.08308 0.41962 0.0
H2767 H 0.12894 0.0839 0.4249 0.0
C2768 C 0.22063 0.95436 0.78328 0.0
C2769 C 0.19606 0.94917 0.78729 0.0
C2770 C 0.23409 0.93487 0.77905 0.0
C2771 C 0.22278 0.9095 0.77892 0.0
C2772 C 0.19788 0.90411 0.7826 0.0
C2773 C 0.18482 0.92399 0.78669 0.0
C2774 C 0.26057 0.94143 0.77514 0.0
C2775 C 0.18515 0.87733 0.78268 0.0
C2776 C 0.25363 0.85762 0.75056 0.0
C2777 C 0.26578 0.85003 0.77199 0.0
C2778 C 0.2395 0.87695 0.75245 0.0
C2779 C 0.23735 0.88871 0.77637 0.0
C2780 C 0.2495 0.88087 0.79803 0.0
C2781 C 0.26378 0.8619 0.79553 0.0
C2782 C 0.2271 0.885 0.72888 0.0
C2783 C 0.24738 0.89246 0.82393 0.0
H2784 H 0.22945 0.97373 0.78358 0.0
H2785 H 0.16582 0.91976 0.78969 0.0
H2786 H 0.2719 0.93496 0.79067 0.0
H2787 H 0.26423 0.93161 0.75744 0.0
H2788 H 0.26633 0.96198 0.77437 0.0
H2789 H 0.16553 0.87625 0.78489 0.0
H2790 H 0.18708 0.86642 0.76495 0.0
H2791 H 0.1937 0.86813 0.79826 0.0
H2792 H 0.2555 0.84872 0.73231 0.0
H2793 H 0.27311 0.85603 0.81217 0.0
H2794 H 0.23406 0.90504 0.72675 0.0
H2795 H 0.20731 0.8834 0.73022 0.0
H2796 H 0.23002 0.87356 0.71181 0.0
H2797 H 0.25433 0.91293 0.82523 0.0
H2798 H 0.25761 0.88384 0.83884 0.0
H2799 H 0.22805 0.89014 0.82757 0.0
C2800 C 0.30084 0.94188 0.0213 0.0
C2801 C 0.29803 0.91641 0.01246 0.0
C2802 C 0.32319 0.95797 0.02152 0.0
C2803 C 0.34327 0.94845 0.01265 0.0
C2804 C 0.3405 0.92287 0.00348 0.0
C2805 C 0.31801 0.90722 0.00351 0.0
C2806 C 0.32538 0.98511 0.03145 0.0
C2807 C 0.3614 0.91193 0.99379 0.0
C2808 C 0.39685 0.99211 0.99216 0.0
C2809 C 0.41437 0.99296 0.01271 0.0
C2810 C 0.37341 0.97828 0.99215 0.0
C2811 C 0.36734 0.96501 0.01322 0.0
C2812 C 0.3848 0.9665 0.03433 0.0
C2813 C 0.40809 0.98042 0.0338 0.0
C2814 C 0.35537 0.97725 0.96929 0.0
C2815 C 0.37911 0.95277 0.05722 0.0
H2816 H 0.28561 0.94927 0.02826 0.0
H2817 H 0.31616 0.88765 0.99654 0.0
H2818 H 0.33935 0.98923 0.04783 0.0
H2819 H 0.33139 0.99767 0.01691 0.0
H2820 H 0.30798 0.98975 0.03727 0.0
H2821 H 0.3562 0.89178 0.98692 0.0
H2822 H 0.36824 0.92257 0.97821 0.0
H2823 H 0.3766 0.91371 0.00889 0.0
H2824 H 0.40163 1.00179 0.97582 0.0
H2825 H 0.42157 0.98108 0.04976 0.0
H2826 H 0.3382 0.98269 0.97476 0.0
H2827 H 0.35099 0.95771 0.96047 0.0
H2828 H 0.36237 0.9898 0.9551 0.0
H2829 H 0.3941 0.95712 0.07266 0.0
H2830 H 0.37577 0.93219 0.05216 0.0
H2831 H 0.36234 0.95779 0.06419 0.0
C2832 C 0.84153 0.62168 0.74592 0.0
C2833 C 0.86646 0.62897 0.74412 0.0
C2834 C 0.82529 0.63914 0.74525 0.0
C2835 C 0.83377 0.66468 0.7418 0.0
C2836 C 0.85881 0.67207 0.73908 0.0
C2837 C 0.8749 0.65428 0.74076 0.0
C2838 C 0.79913 0.63036 0.74932 0.0
C2839 C 0.8689 0.69889 0.73499 0.0
C2840 C 0.78396 0.70356 0.72264 0.0
C2841 C 0.78203 0.7171 0.74534 0.0
C2842 C 0.80135 0.68725 0.72093 0.0
C2843 C 0.81657 0.68361 0.74263 0.0
C2844 C 0.81444 0.6972 0.7656 0.0
C2845 C 0.79762 0.71401 0.76654 0.0
C2846 C 0.80374 0.6742 0.69581 0.0
C2847 C 0.8297 0.69377 0.7894 0.0
H2848 H 0.83474 0.60229 0.74886 0.0
H2849 H 0.89406 0.66023 0.73941 0.0
H2850 H 0.79458 0.64082 0.76626 0.0
H2851 H 0.78692 0.63438 0.73317 0.0
H2852 H 0.79533 0.60991 0.75178 0.0
H2853 H 0.88568 0.69998 0.72535 0.0
H2854 H 0.85548 0.70784 0.72379 0.0
H2855 H 0.87356 0.70992 0.75342 0.0
H2856 H 0.77232 0.70623 0.7061 0.0
H2857 H 0.79635 0.72449 0.78416 0.0
H2858 H 0.79943 0.65353 0.69653 0.0
H2859 H 0.82277 0.67859 0.69126 0.0
H2860 H 0.79155 0.67991 0.68049 0.0
H2861 H 0.82749 0.67358 0.79298 0.0
H2862 H 0.82481 0.70455 0.80599 0.0
H2863 H 0.84914 0.70008 0.78735 0.0
C2864 C 0.81895 0.58075 0.01534 0.0
C2865 C 0.82667 0.60257 0.00356 0.0
C2866 C 0.83542 0.56491 0.02295 0.0
C2867 C 0.85992 0.57076 0.01797 0.0
C2868 C 0.86768 0.59267 0.00584 0.0
C2869 C 0.85101 0.60847 0.9991 0.0
C2870 C 0.82673 0.54209 0.03646 0.0
C2871 C 0.89356 0.59935 0.99975 0.0
C2872 C 0.91411 0.54862 0.05096 0.0
C2873 C 0.919 0.53092 0.03268 0.0
C2874 C 0.89343 0.56011 0.04754 0.0
C2875 C 0.87771 0.5541 0.02505 0.0
C2876 C 0.88155 0.53472 0.00754 0.0
C2877 C 0.9021 0.52312 0.01173 0.0
C2878 C 0.88966 0.58025 0.06695 0.0
C2879 C 0.86548 0.52805 0.98313 0.0
H2880 H 0.80014 0.5763 0.01898 0.0
H2881 H 0.85696 0.62526 0.98984 0.0
H2882 H 0.82957 0.52477 0.02565 0.0
H2883 H 0.83749 0.54304 0.05501 0.0
H2884 H 0.80722 0.54047 0.03935 0.0
H2885 H 0.89637 0.61656 0.98941 0.0
H2886 H 0.90609 0.60248 0.01729 0.0
H2887 H 0.89864 0.58358 0.98819 0.0
H2888 H 0.92719 0.55459 0.06722 0.0
H2889 H 0.90596 0.5095 0.99754 0.0
H2890 H 0.8702 0.57873 0.06999 0.0
H2891 H 0.89544 0.59904 0.06025 0.0
H2892 H 0.90038 0.57916 0.0852 0.0
H2893 H 0.84606 0.52609 0.98632 0.0
H2894 H 0.86876 0.51031 0.97334 0.0
H2895 H 0.86915 0.54343 0.97057 0.0
C2896 C 0.20163 0.08751 0.80438 0.0
C2897 C 0.17656 0.08552 0.80604 0.0
C2898 C 0.21615 0.11098 0.80259 0.0
C2899 C 0.2054 0.13305 0.80232 0.0
C2900 C 0.18031 0.1313 0.80493 0.0
C2901 C 0.16627 0.10767 0.80683 0.0
C2902 C 0.24287 0.11203 0.80014 0.0
C2903 C 0.16804 0.1543 0.80474 0.0
C2904 C 0.24295 0.19888 0.81358 0.0
C2905 C 0.24416 0.20612 0.78902 0.0
C2906 C 0.23117 0.17487 0.8182 0.0
C2907 C 0.21992 0.15777 0.79781 0.0
C2908 C 0.22146 0.16483 0.77297 0.0
C2909 C 0.23369 0.18877 0.76889 0.0
C2910 C 0.2303 0.16801 0.84493 0.0
C2911 C 0.20946 0.1474 0.75068 0.0
H2912 H 0.20988 0.07065 0.80379 0.0
H2913 H 0.14699 0.10654 0.80819 0.0
H2914 H 0.24683 0.11757 0.78123 0.0
H2915 H 0.25373 0.12648 0.81405 0.0
H2916 H 0.2489 0.09366 0.80287 0.0
H2917 H 0.14868 0.15001 0.80823 0.0
H2918 H 0.17753 0.16899 0.81922 0.0
H2919 H 0.16903 0.16233 0.78629 0.0
H2920 H 0.25102 0.21208 0.82927 0.0
H2921 H 0.2343 0.19418 0.74984 0.0
H2922 H 0.23674 0.14978 0.84714 0.0
H2923 H 0.2113 0.16566 0.8497 0.0
H2924 H 0.24153 0.18254 0.85855 0.0
H2925 H 0.21601 0.12907 0.75104 0.0
H2926 H 0.213 0.15532 0.73254 0.0
H2927 H 0.18956 0.14367 0.75161 0.0
C2928 C 0.3914 0.98002 0.28176 0.0
C2929 C 0.38433 1.00047 0.26979 0.0
C2930 C 0.37498 0.95769 0.28273 0.0
C2931 C 0.35082 0.95564 0.27147 0.0
C2932 C 0.34348 0.97625 0.25954 0.0
C2933 C 0.36028 0.99836 0.25884 0.0
C2934 C 0.38357 0.93614 0.29558 0.0
C2935 C 0.31792 0.97483 0.24728 0.0
C2936 C 0.3174 0.88936 0.25239 0.0
C2937 C 0.3036 0.8845 0.27253 0.0
C2938 C 0.3324 0.91259 0.25157 0.0
C2939 C 0.3336 0.93155 0.27135 0.0
C2940 C 0.31908 0.92704 0.29137 0.0
C2941 C 0.30427 0.9035 0.29176 0.0
C2942 C 0.34751 0.91655 0.22987 0.0
C2943 C 0.31967 0.94685 0.31268 0.0
H2944 H 0.40984 0.98139 0.2904 0.0
H2945 H 0.35451 0.01401 0.2496 0.0
H2946 H 0.37198 0.93065 0.31062 0.0
H2947 H 0.38193 0.9195 0.2819 0.0
H2948 H 0.40273 0.94092 0.30398 0.0
H2949 H 0.31482 0.99277 0.23951 0.0
H2950 H 0.31411 0.95964 0.23183 0.0
H2951 H 0.30471 0.97007 0.26107 0.0
H2952 H 0.3169 0.87474 0.23744 0.0
H2953 H 0.29361 0.89981 0.30734 0.0
H2954 H 0.36706 0.91936 0.23683 0.0
H2955 H 0.3441 0.93376 0.22086 0.0
H2956 H 0.34364 0.90038 0.21541 0.0
H2957 H 0.33805 0.95078 0.3231 0.0
H2958 H 0.30627 0.941 0.32602 0.0
H2959 H 0.31589 0.96469 0.30525 0.0
C2960 C 0.5064 0.33092 0.6092 0.0
C2961 C 0.49795 0.33158 0.63302 0.0
C2962 C 0.50843 0.35207 0.59525 0.0
C2963 C 0.50151 0.3745 0.60512 0.0
C2964 C 0.49311 0.37544 0.62924 0.0
C2965 C 0.49157 0.35398 0.64301 0.0
C2966 C 0.51784 0.35032 0.56983 0.0
C2967 C 0.48542 0.39899 0.64032 0.0
C2968 C 0.5262 0.43552 0.578 0.0
C2969 C 0.50679 0.4387 0.56076 0.0
C2970 C 0.52473 0.41476 0.59254 0.0
C2971 C 0.50315 0.39689 0.59006 0.0
C2972 C 0.48351 0.39995 0.57253 0.0
C2973 C 0.48564 0.42076 0.55794 0.0
C2974 C 0.54629 0.41198 0.61056 0.0
C2975 C 0.46018 0.38137 0.56938 0.0
H2976 H 0.5114 0.31372 0.60127 0.0
H2977 H 0.4849 0.35458 0.66131 0.0
H2978 H 0.50374 0.35363 0.55508 0.0
H2979 H 0.53385 0.3651 0.56925 0.0
H2980 H 0.5231 0.3317 0.56514 0.0
H2981 H 0.47934 0.39672 0.65927 0.0
H2982 H 0.5007 0.41491 0.6417 0.0
H2983 H 0.47037 0.4041 0.62783 0.0
H2984 H 0.54258 0.4494 0.58023 0.0
H2985 H 0.47054 0.42332 0.54477 0.0
H2986 H 0.55238 0.39379 0.60597 0.0
H2987 H 0.54105 0.41179 0.62998 0.0
H2988 H 0.56181 0.4274 0.61006 0.0
H2989 H 0.46381 0.36241 0.5633 0.0
H2990 H 0.44643 0.38673 0.55539 0.0
H2991 H 0.45245 0.37997 0.58762 0.0
C2992 C 0.45622 0.78653 0.32548 0.0
C2993 C 0.4567 0.79284 0.35136 0.0
C2994 C 0.43409 0.78189 0.30969 0.0
C2995 C 0.4119 0.78359 0.31995 0.0
C2996 C 0.41229 0.78938 0.34609 0.0
C2997 C 0.43449 0.79389 0.36132 0.0
C2998 C 0.43448 0.77559 0.28198 0.0
C2999 C 0.38921 0.79141 0.35801 0.0
C3000 C 0.3564 0.80114 0.28337 0.0
C3001 C 0.33991 0.77847 0.28108 0.0
C3002 C 0.38033 0.80267 0.2945 0.0
C3003 C 0.38829 0.78096 0.30357 0.0
C3004 C 0.37229 0.75763 0.29977 0.0
C3005 C 0.34832 0.75666 0.28862 0.0
C3006 C 0.39655 0.82798 0.29815 0.0
C3007 C 0.37995 0.73397 0.30897 0.0
H3008 H 0.47312 0.78553 0.31749 0.0
H3009 H 0.43435 0.79851 0.38124 0.0
H3010 H 0.42167 0.75803 0.27571 0.0
H3011 H 0.42835 0.79079 0.27134 0.0
H3012 H 0.45286 0.77321 0.27712 0.0
H3013 H 0.39247 0.79517 0.37873 0.0
H3014 H 0.38066 0.80683 0.35023 0.0
H3015 H 0.37603 0.77376 0.35359 0.0
H3016 H 0.35029 0.81812 0.27746 0.0
H3017 H 0.33582 0.73904 0.28709 0.0
H3018 H 0.41464 0.82655 0.29197 0.0
H3019 H 0.39931 0.83451 0.31839 0.0
H3020 H 0.38871 0.84242 0.28769 0.0
H3021 H 0.39843 0.73223 0.30404 0.0
H3022 H 0.3672 0.71686 0.30103 0.0
H3023 H 0.38055 0.73482 0.32972 0.0
C3024 C 0.97371 0.68984 0.10501 0.0
C3025 C 0.99193 0.70078 0.12386 0.0
C3026 C 0.97465 0.66638 0.09244 0.0
C3027 C 0.99474 0.65405 0.09838 0.0
C3028 C 0.01208 0.66411 0.11885 0.0
C3029 C 0.01038 0.68733 0.13143 0.0
C3030 C 0.95537 0.656 0.07128 0.0
C3031 C 0.03389 0.65178 0.12576 0.0
C3032 C 0.99915 0.58871 0.06926 0.0
C3033 C 0.01242 0.59459 0.04891 0.0
C3034 C 0.99238 0.60774 0.08501 0.0
C3035 C 0.9998 0.63329 0.08084 0.0
C3036 C 0.01311 0.63926 0.06022 0.0
C3037 C 0.01902 0.61986 0.04441 0.0
C3038 C 0.9777 0.60051 0.10635 0.0
C3039 C 0.02163 0.66622 0.05515 0.0
H3040 H 0.9597 0.70049 0.09881 0.0
H3041 H 0.02481 0.69611 0.14557 0.0
H3042 H 0.96262 0.65947 0.05307 0.0
H3043 H 0.95009 0.63537 0.07171 0.0
H3044 H 0.93891 0.66499 0.07212 0.0
H3045 H 0.04379 0.65991 0.14406 0.0
H3046 H 0.02842 0.63126 0.1267 0.0
H3047 H 0.04653 0.65443 0.11107 0.0
H3048 H 0.99444 0.56926 0.0732 0.0
H3049 H 0.02933 0.62454 0.02877 0.0
H3050 H 0.96186 0.61053 0.10622 0.0
H3051 H 0.98895 0.60619 0.1245 0.0
H3052 H 0.97108 0.57995 0.10536 0.0
H3053 H 1.00588 0.67621 0.05223 0.0
H3054 H 0.03183 0.66769 0.03839 0.0
H3055 H 0.03354 0.67611 0.07162 0.0
C3056 C 0.09733 0.29709 0.81784 0.0
C3057 C 0.0945 0.29169 0.84268 0.0
C3058 C 0.11926 0.29537 0.80743 0.0
C3059 C 0.13857 0.28703 0.82181 0.0
C3060 C 0.13552 0.28098 0.84676 0.0
C3061 C 0.11378 0.28392 0.85704 0.0
C3062 C 0.12188 0.30284 0.78109 0.0
C3063 C 0.1551 0.27106 0.8625 0.0
C3064 C 0.18397 0.25931 0.78391 0.0
C3065 C 0.2039 0.27885 0.78644 0.0
C3066 C 0.16304 0.26143 0.79596 0.0
C3067 C 0.16158 0.28394 0.81045 0.0
C3068 C 0.18187 0.30363 0.8134 0.0
C3069 C 0.20289 0.30072 0.80162 0.0
C3070 C 0.14235 0.23958 0.79292 0.0
C3071 C 0.1811 0.3281 0.82832 0.0
H3072 H 0.08262 0.30346 0.80679 0.0
H3073 H 0.11165 0.27967 0.87625 0.0
H3074 H 0.13823 0.31735 0.78106 0.0
H3075 H 0.12444 0.28635 0.7688 0.0
H3076 H 0.10582 0.31037 0.77292 0.0
H3077 H 0.14964 0.26642 0.88123 0.0
H3078 H 0.15952 0.25389 0.85267 0.0
H3079 H 0.17193 0.28516 0.86519 0.0
H3080 H 0.18474 0.24225 0.7724 0.0
H3081 H 0.21822 0.31589 0.80363 0.0
H3082 H 0.12631 0.24496 0.78226 0.0
H3083 H 0.13699 0.23459 0.81157 0.0
H3084 H 0.1471 0.22266 0.78288 0.0
H3085 H 0.16636 0.33725 0.81962 0.0
H3086 H 0.1985 0.34133 0.82933 0.0
H3087 H 0.17695 0.32457 0.84769 0.0
C3088 C 0.52838 0.69861 0.95202 0.0
C3089 C 0.52437 0.71824 0.96877 0.0
C3090 C 0.52876 0.67438 0.95984 0.0
C3091 C 0.52524 0.66987 0.98499 0.0
C3092 C 0.52076 0.68944 1.00183 0.0
C3093 C 0.5203 0.71335 0.9935 0.0
C3094 C 0.53331 0.65375 0.94137 0.0
C3095 C 0.51702 0.68528 0.02886 0.0
C3096 C 0.50796 0.60474 0.00623 0.0
C3097 C 0.53028 0.60044 0.01743 0.0
C3098 C 0.50619 0.62684 0.99441 0.0
C3099 C 0.52724 0.64504 0.99428 0.0
C3100 C 0.54994 0.64048 0.00518 0.0
C3101 C 0.55116 0.61817 0.01672 0.0
C3102 C 0.48175 0.63102 0.98273 0.0
C3103 C 0.5728 0.65943 0.00528 0.0
H3104 H 0.53139 0.70218 0.93283 0.0
H3105 H 0.51718 0.72834 0.00661 0.0
H3106 H 0.5505 0.64721 0.94766 0.0
H3107 H 0.51857 0.63734 0.94055 0.0
H3108 H 0.5345 0.66004 0.92217 0.0
H3109 H 0.51305 0.70235 0.03933 0.0
H3110 H 0.50179 0.6697 0.02976 0.0
H3111 H 0.53352 0.67975 0.03848 0.0
H3112 H 0.49181 0.59102 0.0071 0.0
H3113 H 0.56848 0.6146 0.02519 0.0
H3114 H 0.48302 0.63636 0.96324 0.0
H3115 H 0.47576 0.64677 0.99349 0.0
H3116 H 0.46768 0.61403 0.98238 0.0
H3117 H 0.57529 0.66481 0.98599 0.0
H3118 H 0.58923 0.65214 0.01286 0.0
H3119 H 0.57126 0.67676 0.01689 0.0
C3120 C 0.09942 0.80286 0.62335 0.0
C3121 C 0.07825 0.80966 0.63175 0.0
C3122 C 0.11971 0.80184 0.64041 0.0
C3123 C 0.11882 0.80819 0.66629 0.0
C3124 C 0.0979 0.8162 0.67467 0.0
C3125 C 0.0778 0.81667 0.65731 0.0
C3126 C 0.14171 0.79303 0.63088 0.0
C3127 C 0.09645 0.82355 0.70205 0.0
C3128 C 0.15914 0.77914 0.71269 0.0
C3129 C 0.17895 0.79852 0.71817 0.0
C3130 C 0.13932 0.78212 0.6959 0.0
C3131 C 0.13927 0.8052 0.68479 0.0
C3132 C 0.15883 0.82519 0.69114 0.0
C3133 C 0.17859 0.8215 0.70762 0.0
C3134 C 0.1188 0.76033 0.68946 0.0
C3135 C 0.15911 0.85026 0.68015 0.0
H3136 H 0.09978 0.79736 0.60363 0.0
H3137 H 0.06155 0.82225 0.66385 0.0
H3138 H 0.15819 0.80707 0.63696 0.0
H3139 H 0.1445 0.77521 0.63904 0.0
H3140 H 0.13992 0.78982 0.6101 0.0
H3141 H 0.07963 0.83126 0.70517 0.0
H3142 H 0.09692 0.80689 0.71301 0.0
H3143 H 0.11234 0.83782 0.70959 0.0
H3144 H 0.15954 0.76132 0.72079 0.0
H3145 H 0.19396 0.83648 0.71196 0.0
H3146 H 0.11715 0.75461 0.66907 0.0
H3147 H 0.10137 0.76608 0.69367 0.0
H3148 H 0.12152 0.74377 0.69997 0.0
H3149 H 0.15947 0.84781 0.65953 0.0
H3150 H 0.17506 0.86429 0.68815 0.0
H3151 H 0.14235 0.85788 0.68362 0.0
C3152 C 0.04217 0.36434 0.43171 0.0
C3153 C 0.04765 0.34558 0.44707 0.0
C3154 C 0.04064 0.38848 0.4422 0.0
C3155 C 0.04504 0.39391 0.46855 0.0
C3156 C 0.05177 0.37536 0.48395 0.0
C3157 C 0.0528 0.35134 0.47303 0.0
C3158 C 0.03328 0.4078 0.42525 0.0
C3159 C 0.05702 0.38058 0.51206 0.0
C3160 C 0.05446 0.46227 0.49433 0.0
C3161 C 0.03132 0.46455 0.50123 0.0
C3162 C 0.05937 0.43929 0.48397 0.0
C3163 C 0.04062 0.41822 0.48024 0.0
C3164 C 0.01739 0.42025 0.48764 0.0
C3165 C 0.01307 0.44334 0.49821 0.0
C3166 C 0.08443 0.43771 0.47652 0.0
C3167 C 0.99686 0.39822 0.48374 0.0
H3168 H 0.03817 0.3599 0.41163 0.0
H3169 H 0.05731 0.33692 0.48493 0.0
H3170 H 0.0152 0.412 0.42927 0.0
H3171 H 0.04629 0.42562 0.42894 0.0
H3172 H 0.03235 0.40132 0.40506 0.0
H3173 H 0.06422 0.36493 0.52105 0.0
H3174 H 0.07035 0.39809 0.51673 0.0
H3175 H 0.04014 0.38348 0.5203 0.0
H3176 H 0.06866 0.47857 0.49649 0.0
H3177 H 0.99508 0.4449 0.50328 0.0
H3178 H 0.08355 0.43391 0.45588 0.0
H3179 H 0.09159 0.42189 0.48518 0.0
H3180 H 0.0974 0.45534 0.4822 0.0
H3181 H 0.99316 0.39184 0.46349 0.0
H3182 H 0.97987 0.40293 0.49054 0.0
H3183 H 1.00202 0.38218 0.49371 0.0
C3184 C 0.42586 0.29357 0.14454 0.0
C3185 C 0.44983 0.29327 0.15426 0.0
C3186 C 0.40735 0.29305 0.16041 0.0
C3187 C 0.41308 0.29253 0.18659 0.0
C3188 C 0.43723 0.29209 0.1965 0.0
C3189 C 0.45533 0.29233 0.18017 0.0
C3190 C 0.38165 0.29306 0.14919 0.0
C3191 C 0.44389 0.29131 0.22431 0.0
C3192 C 0.36614 0.31323 0.2262 0.0
C3193 C 0.35225 0.29004 0.2294 0.0
C3194 C 0.38681 0.31434 0.21319 0.0
C3195 C 0.39357 0.29172 0.20343 0.0
C3196 C 0.38046 0.26825 0.2082 0.0
C3197 C 0.35984 0.26773 0.22103 0.0
C3198 C 0.40062 0.33968 0.20873 0.0
C3199 C 0.38713 0.24365 0.19838 0.0
H3200 H 0.42156 0.29427 0.12453 0.0
H3201 H 0.47388 0.29222 0.18781 0.0
H3202 H 0.36974 0.27592 0.15376 0.0
H3203 H 0.37464 0.30953 0.15742 0.0
H3204 H 0.38027 0.29365 0.12847 0.0
H3205 H 0.46363 0.29159 0.22905 0.0
H3206 H 0.4385 0.30762 0.23475 0.0
H3207 H 0.43385 0.27404 0.23094 0.0
H3208 H 0.3602 0.33046 0.23274 0.0
H3209 H 0.34914 0.24977 0.22372 0.0
H3210 H 0.39806 0.34273 0.18849 0.0
H3211 H 0.42034 0.34037 0.21389 0.0
H3212 H 0.3945 0.35532 0.2196 0.0
H3213 H 0.37957 0.23946 0.17845 0.0
H3214 H 0.37963 0.22786 0.20908 0.0
H3215 H 0.40707 0.2445 0.19927 0.0
C3216 C 0.60043 0.48445 0.35741 0.0
C3217 C 0.625 0.49534 0.36093 0.0
C3218 C 0.58551 0.48519 0.3769 0.0
C3219 C 0.59519 0.49772 0.40046 0.0
C3220 C 0.62023 0.50834 0.4043 0.0
C3221 C 0.63496 0.50654 0.38457 0.0
C3222 C 0.55909 0.47347 0.37187 0.0
C3223 C 0.63174 0.52195 0.42891 0.0
C3224 C 0.5498 0.52595 0.43717 0.0
C3225 C 0.5453 0.5089 0.45552 0.0
C3226 C 0.56626 0.52268 0.41957 0.0
C3227 C 0.57841 0.50161 0.4199 0.0
C3228 C 0.57364 0.48397 0.43796 0.0
C3229 C 0.55715 0.48781 0.45558 0.0
C3230 C 0.57109 0.54217 0.40093 0.0
C3231 C 0.58616 0.46123 0.43878 0.0
H3232 H 0.5927 0.47551 0.33916 0.0
H3233 H 0.65396 0.51492 0.38735 0.0
H3234 H 0.55391 0.4609 0.38668 0.0
H3235 H 0.5476 0.48844 0.37229 0.0
H3236 H 0.55495 0.46246 0.35335 0.0
H3237 H 0.64645 0.53741 0.42585 0.0
H3238 H 0.61851 0.52997 0.43983 0.0
H3239 H 0.64013 0.50848 0.44022 0.0
H3240 H 0.54095 0.54241 0.43692 0.0
H3241 H 0.55418 0.47472 0.46987 0.0
H3242 H 0.56646 0.53329 0.38151 0.0
H3243 H 0.59069 0.5502 0.40299 0.0
H3244 H 0.56051 0.55777 0.40342 0.0
H3245 H 0.58046 0.44877 0.4213 0.0
H3246 H 0.58194 0.45027 0.45506 0.0
H3247 H 0.6061 0.46708 0.4397 0.0
C3248 C 0.25785 0.86165 0.10322 0.0
C3249 C 0.23458 0.86155 0.09106 0.0
C3250 C 0.26124 0.85145 0.12652 0.0
C3251 C 0.24086 0.84037 0.13797 0.0
C3252 C 0.21723 0.84152 0.12647 0.0
C3253 C 0.21437 0.85207 0.10313 0.0
C3254 C 0.28676 0.85095 0.13795 0.0
C3255 C 0.19495 0.83006 0.13794 0.0
C3256 C 0.2505 0.7849 0.17646 0.0
C3257 C 0.25323 0.79568 0.20125 0.0
C3258 C 0.24617 0.79914 0.15593 0.0
C3259 C 0.24444 0.82499 0.16007 0.0
C3260 C 0.24711 0.836 0.18513 0.0
C3261 C 0.25136 0.82122 0.20538 0.0
C3262 C 0.2436 0.78646 0.1297 0.0
C3263 C 0.2454 0.86339 0.19056 0.0
H3264 H 0.27353 0.86858 0.09378 0.0
H3265 H 0.19636 0.85141 0.09359 0.0
H3266 H 0.28888 0.85741 0.15819 0.0
H3267 H 0.29053 0.83136 0.13642 0.0
H3268 H 0.30053 0.86293 0.12847 0.0
H3269 H 0.17811 0.83534 0.12872 0.0
H3270 H 0.19328 0.80926 0.13605 0.0
H3271 H 0.19649 0.836 0.15827 0.0
H3272 H 0.2517 0.76515 0.17307 0.0
H3273 H 0.25287 0.8296 0.22443 0.0
H3274 H 0.25798 0.7957 0.11896 0.0
H3275 H 0.22587 0.78844 0.1197 0.0
H3276 H 0.24489 0.76614 0.12961 0.0
H3277 H 0.25901 0.8753 0.18087 0.0
H3278 H 0.2484 0.86931 0.21096 0.0
H3279 H 0.22724 0.867 0.18315 0.0
C3280 C 0.95291 0.56516 0.82907 0.0
C3281 C 0.93457 0.58005 0.82606 0.0
C3282 C 0.96314 0.56076 0.85301 0.0
C3283 C 0.9558 0.57246 0.87479 0.0
C3284 C 0.93777 0.58815 0.87189 0.0
C3285 C 0.92703 0.59131 0.84765 0.0
C3286 C 0.98147 0.54305 0.85498 0.0
C3287 C 0.92996 0.60176 0.8944 0.0
C3288 C 0.96507 0.54293 0.93717 0.0
C3289 C 0.98767 0.55609 0.94779 0.0
C3290 C 0.95459 0.54801 0.91355 0.0
C3291 C 0.96646 0.56751 0.90046 0.0
C3292 C 0.98899 0.58139 0.91148 0.0
C3293 C 0.99957 0.57517 0.9347 0.0
C3294 C 0.93114 0.53195 0.90229 0.0
C3295 C 1.00192 0.60291 0.89875 0.0
H3296 H 0.95893 0.55631 0.81266 0.0
H3297 H 0.91305 0.60302 0.84556 0.0
H3298 H 0.99905 0.55315 0.86433 0.0
H3299 H 0.97518 0.52763 0.86669 0.0
H3300 H 0.98455 0.53464 0.83635 0.0
H3301 H 0.91716 0.61473 0.88897 0.0
H3302 H 0.92102 0.58799 0.90644 0.0
H3303 H 0.94607 0.61274 0.90589 0.0
H3304 H 0.95586 0.52798 0.94703 0.0
H3305 H 0.01694 0.58553 0.94286 0.0
H3306 H 0.93381 0.52262 0.88395 0.0
H3307 H 0.91695 0.54383 0.89871 0.0
H3308 H 0.92439 0.51725 0.91464 0.0
H3309 H 0.00789 0.59572 0.88094 0.0
H3310 H 0.01806 0.61328 0.9107 0.0
H3311 H 0.98935 0.61626 0.89395 0.0
C3312 C 0.26755 0.17722 0.56947 0.0
C3313 C 0.27898 0.19263 0.55266 0.0
C3314 C 0.26661 0.18644 0.59431 0.0
C3315 C 0.27779 0.21137 0.60235 0.0
C3316 C 0.29079 0.22631 0.58587 0.0
C3317 C 0.29099 0.21683 0.56107 0.0
C3318 C 0.25271 0.17001 0.61156 0.0
C3319 C 0.30361 0.25268 0.59411 0.0
C3320 C 0.25317 0.24778 0.654 0.0
C3321 C 0.26993 0.24602 0.67446 0.0
C3322 C 0.25526 0.23605 0.63043 0.0
C3323 C 0.27467 0.22252 0.62746 0.0
C3324 C 0.29158 0.22065 0.64816 0.0
C3325 C 0.28904 0.23253 0.67145 0.0
C3326 C 0.23679 0.23819 0.6087 0.0
C3327 C 0.31265 0.20663 0.64568 0.0
H3328 H 0.25823 0.1585 0.56286 0.0
H3329 H 0.3001 0.22858 0.54804 0.0
H3330 H 0.26416 0.16918 0.62938 0.0
H3331 H 0.23662 0.17825 0.61635 0.0
H3332 H 0.24647 0.15054 0.60294 0.0
H3333 H 0.31453 0.261 0.57958 0.0
H3334 H 0.29008 0.26492 0.59825 0.0
H3335 H 0.31579 0.25269 0.61161 0.0
H3336 H 0.23833 0.25808 0.65648 0.0
H3337 H 0.30208 0.23126 0.68735 0.0
H3338 H 0.22833 0.21918 0.60031 0.0
H3339 H 0.24587 0.24818 0.59387 0.0
H3340 H 0.22224 0.24848 0.61442 0.0
H3341 H 0.30699 0.1887 0.63384 0.0
H3342 H 0.32084 0.2024 0.66424 0.0
H3343 H 0.32683 0.21831 0.6365 0.0
C3344 C 0.59235 0.49343 0.22096 0.0
C3345 C 0.61691 0.49564 0.23015 0.0
C3346 C 0.58526 0.4936 0.19535 0.0
C3347 C 0.60312 0.49577 0.17836 0.0
C3348 C 0.62772 0.49574 0.18716 0.0
C3349 C 0.6344 0.49575 0.21308 0.0
C3350 C 0.5588 0.49353 0.1868 0.0
C3351 C 0.64717 0.49745 0.16946 0.0
C3352 C 0.57668 0.48878 0.1102 0.0
C3353 C 0.57479 0.51378 0.1062 0.0
C3354 C 0.58712 0.4825 0.13325 0.0
C3355 C 0.5962 0.50185 0.15239 0.0
C3356 C 0.59561 0.52728 0.14775 0.0
C3357 C 0.58467 0.5329 0.12477 0.0
C3358 C 0.58718 0.45517 0.13753 0.0
C3359 C 0.60535 0.54852 0.16754 0.0
H3360 H 0.5786 0.49274 0.23392 0.0
H3361 H 0.65337 0.49718 0.21999 0.0
H3362 H 0.5564 0.51234 0.18077 0.0
H3363 H 0.5526 0.47967 0.17045 0.0
H3364 H 0.54693 0.48907 0.20191 0.0
H3365 H 0.66431 0.49245 0.17828 0.0
H3366 H 0.64104 0.48487 0.15213 0.0
H3367 H 0.65102 0.51696 0.16384 0.0
H3368 H 0.56923 0.47407 0.09566 0.0
H3369 H 0.58354 0.5523 0.12148 0.0
H3370 H 0.57322 0.44896 0.15015 0.0
H3371 H 0.60498 0.45248 0.14684 0.0
H3372 H 0.58311 0.44291 0.11973 0.0
H3373 H 0.59383 0.54747 0.18329 0.0
H3374 H 0.60569 0.56728 0.16009 0.0
H3375 H 0.62401 0.54687 0.17528 0.0
C3376 C 0.22038 0.84086 0.95156 0.0
C3377 C 0.2216 0.86703 0.95548 0.0
C3378 C 0.22477 0.82946 0.92838 0.0
C3379 C 0.23103 0.84451 0.90853 0.0
C3380 C 0.23228 0.87096 0.91239 0.0
C3381 C 0.22737 0.88183 0.93564 0.0
C3382 C 0.22282 0.80121 0.92517 0.0
C3383 C 0.23924 0.88788 0.89208 0.0
C3384 C 0.26599 0.81674 0.85833 0.0
C3385 C 0.24799 0.80951 0.83804 0.0
C3386 C 0.2608 0.82834 0.88108 0.0
C3387 C 0.23686 0.8326 0.88406 0.0
C3388 C 0.21856 0.82521 0.86372 0.0
C3389 C 0.22436 0.81404 0.84099 0.0
C3390 C 0.28107 0.83631 0.9019 0.0
C3391 C 0.19275 0.82906 0.86599 0.0
H3392 H 0.21589 0.82919 0.96668 0.0
H3393 H 0.22851 0.90206 0.93844 0.0
H3394 H 0.20981 0.79354 0.90863 0.0
H3395 H 0.24067 0.7961 0.92162 0.0
H3396 H 0.21675 0.79204 0.94193 0.0
H3397 H 0.23949 0.90804 0.89793 0.0
H3398 H 0.25749 0.88546 0.88691 0.0
H3399 H 0.22627 0.88258 0.87501 0.0
H3400 H 0.28441 0.81379 0.85631 0.0
H3401 H 0.21027 0.80876 0.82551 0.0
H3402 H 0.27687 0.82648 0.91885 0.0
H3403 H 0.2828 0.85678 0.90711 0.0
H3404 H 0.2988 0.83222 0.89653 0.0
H3405 H 0.18585 0.81956 0.88222 0.0
H3406 H 0.18045 0.82167 0.84883 0.0
H3407 H 0.19206 0.84939 0.86955 0.0
C3408 C 0.93427 0.57467 0.67293 0.0
C3409 C 0.94411 0.56235 0.69275 0.0
C3410 C 0.94257 0.57278 0.64873 0.0
C3411 C 0.96119 0.55837 0.64423 0.0
C3412 C 0.97049 0.54536 0.66396 0.0
C3413 C 0.96181 0.54735 0.68757 0.0
C3414 C 0.93178 0.58658 0.62811 0.0
C3415 C 0.99035 0.52984 0.66046 0.0
C3416 C 0.97917 0.53418 0.581 0.0
C3417 C 1.00008 0.55136 0.57835 0.0
C3418 C 0.96506 0.53735 0.60115 0.0
C3419 C 0.97241 0.55778 0.61973 0.0
C3420 C 0.99316 0.57555 0.61667 0.0
C3421 C 1.00651 0.57223 0.59605 0.0
C3422 C 0.9428 0.51821 0.60306 0.0
C3423 C 1.00216 0.59739 0.63596 0.0
H3424 H 0.92055 0.58618 0.67643 0.0
H3425 H 0.96941 0.53718 0.70228 0.0
H3426 H 0.92639 0.57378 0.61081 0.0
H3427 H 0.9157 0.59451 0.63352 0.0
H3428 H 0.94555 0.6022 0.62349 0.0
H3429 H 0.99547 0.52059 0.6776 0.0
H3430 H 0.98446 0.51506 0.64484 0.0
H3431 H 1.00675 0.54199 0.65543 0.0
H3432 H 0.97416 0.51791 0.56773 0.0
H3433 H 0.02252 0.58579 0.59418 0.0
H3434 H 0.9277 0.52756 0.60889 0.0
H3435 H 0.94692 0.50529 0.61751 0.0
H3436 H 0.93666 0.50681 0.58497 0.0
H3437 H 0.98719 0.60777 0.63996 0.0
H3438 H 0.01718 0.61077 0.62982 0.0
H3439 H 0.00876 0.59022 0.6538 0.0
C3440 C 0.30431 0.19911 0.42767 0.0
C3441 C 0.29043 0.17499 0.42512 0.0
C3442 C 0.30579 0.21396 0.40736 0.0
C3443 C 0.29268 0.20454 0.38408 0.0
C3444 C 0.27991 0.17953 0.38095 0.0
C3445 C 0.27909 0.16486 0.40161 0.0
C3446 C 0.31982 0.24038 0.41142 0.0
C3447 C 0.26559 0.16897 0.35638 0.0
C3448 C 0.26663 0.25176 0.34531 0.0
C3449 C 0.28184 0.25382 0.32603 0.0
C3450 C 0.27023 0.23599 0.36446 0.0
C3451 C 0.28957 0.222 0.36434 0.0
C3452 C 0.3057 0.22485 0.3456 0.0
C3453 C 0.30169 0.24087 0.32664 0.0
C3454 C 0.25278 0.23364 0.38434 0.0
C3455 C 0.3267 0.21047 0.34518 0.0
H3456 H 0.31335 0.20677 0.4459 0.0
H3457 H 0.26834 0.14621 0.39977 0.0
H3458 H 0.33102 0.24461 0.39578 0.0
H3459 H 0.30694 0.25402 0.41186 0.0
H3460 H 0.33186 0.24342 0.42934 0.0
H3461 H 0.2601 0.14825 0.35573 0.0
H3462 H 0.24895 0.17767 0.3538 0.0
H3463 H 0.27625 0.17354 0.34044 0.0
H3464 H 0.2513 0.26179 0.34493 0.0
H3465 H 0.31337 0.24218 0.31162 0.0
H3466 H 0.26283 0.23845 0.40324 0.0
H3467 H 0.2434 0.21392 0.38377 0.0
H3468 H 0.23886 0.24608 0.38185 0.0
H3469 H 0.33933 0.21589 0.36249 0.0
H3470 H 0.33695 0.21399 0.32867 0.0
H3471 H 0.32005 0.19 0.34492 0.0
C3472 C 0.3579 0.60215 0.4987 0.0
C3473 C 0.36255 0.62789 0.50674 0.0
C3474 C 0.37677 0.58763 0.49795 0.0
C3475 C 0.40107 0.59865 0.50641 0.0
C3476 C 0.40586 0.62463 0.51482 0.0
C3477 C 0.38671 0.639 0.51432 0.0
C3478 C 0.37064 0.56036 0.48802 0.0
C3479 C 0.43115 0.63722 0.52481 0.0
C3480 C 0.44111 0.55186 0.53023 0.0
C3481 C 0.45599 0.54915 0.51091 0.0
C3482 C 0.42408 0.56851 0.52935 0.0
C3483 C 0.42091 0.58248 0.50817 0.0
C3484 C 0.43597 0.57992 0.48853 0.0
C3485 C 0.45348 0.56356 0.49026 0.0
C3486 C 0.4092 0.57081 0.55113 0.0
C3487 C 0.43312 0.59392 0.46533 0.0
H3488 H 0.33941 0.5934 0.49242 0.0
H3489 H 0.39059 0.65885 0.52051 0.0
H3490 H 0.38271 0.55627 0.47355 0.0
H3491 H 0.37367 0.54814 0.50343 0.0
H3492 H 0.35148 0.55525 0.47969 0.0
H3493 H 0.43141 0.65643 0.5337 0.0
H3494 H 0.43923 0.62584 0.5388 0.0
H3495 H 0.44287 0.63866 0.50926 0.0
H3496 H 0.44289 0.54094 0.54635 0.0
H3497 H 0.46461 0.5614 0.47507 0.0
H3498 H 0.39034 0.56114 0.54569 0.0
H3499 H 0.40845 0.59084 0.55653 0.0
H3500 H 0.41672 0.56222 0.56767 0.0
H3501 H 0.41408 0.5895 0.45658 0.0
H3502 H 0.44536 0.58915 0.45125 0.0
H3503 H 0.43712 0.61447 0.47044 0.0
C3504 C 0.85321 0.92202 0.54083 0.0
C3505 C 0.8347 0.93444 0.54886 0.0
C3506 C 0.87688 0.93487 0.54037 0.0
C3507 C 0.88237 0.96076 0.54844 0.0
C3508 C 0.86419 0.97312 0.55791 0.0
C3509 C 0.84051 0.95988 0.55783 0.0
C3510 C 0.89564 0.92101 0.52988 0.0
C3511 C 0.86949 1.00061 0.56712 0.0
C3512 C 0.94943 0.98944 0.55642 0.0
C3513 C 0.95192 1.00018 0.53351 0.0
C3514 C 0.92673 0.97725 0.56202 0.0
C3515 C 0.90621 0.97536 0.54409 0.0
C3516 C 0.90865 0.98631 0.52104 0.0
C3517 C 0.93136 0.9987 0.51614 0.0
C3518 C 0.92477 0.96607 0.58693 0.0
C3519 C 0.88738 0.98428 0.50115 0.0
H3520 H 0.84906 0.90237 0.5339 0.0
H3521 H 0.82645 0.96961 0.56431 0.0
H3522 H 0.90082 0.92889 0.5122 0.0
H3523 H 0.91232 0.92357 0.5432 0.0
H3524 H 0.88893 0.90055 0.52589 0.0
H3525 H 0.85446 0.0066 0.57687 0.0
H3526 H 0.88642 0.00462 0.58014 0.0
H3527 H 0.87231 0.01217 0.55099 0.0
H3528 H 0.9652 0.99047 0.56995 0.0
H3529 H 0.93304 0.00672 0.49828 0.0
H3530 H 0.92066 0.94528 0.58392 0.0
H3531 H 0.90963 0.97239 0.5962 0.0
H3532 H 0.94177 0.97131 0.59977 0.0
H3533 H 0.88051 0.9642 0.49508 0.0
H3534 H 0.89223 0.9942 0.48438 0.0
H3535 H 0.87231 0.99228 0.5089 0.0
C3536 C 0.80912 0.10981 0.24113 0.0
C3537 C 0.83373 0.11364 0.23715 0.0
C3538 C 0.7969 0.13028 0.24579 0.0
C3539 C 0.80938 0.15524 0.24586 0.0
C3540 C 0.83399 0.15917 0.24086 0.0
C3541 C 0.84595 0.13838 0.23699 0.0
C3542 C 0.77074 0.1252 0.25123 0.0
C3543 C 0.84778 0.18536 0.23984 0.0
C3544 C 0.76962 0.20523 0.23444 0.0
C3545 C 0.76982 0.21699 0.25858 0.0
C3546 C 0.78306 0.18585 0.22999 0.0
C3547 C 0.79641 0.17714 0.25033 0.0
C3548 C 0.79682 0.18901 0.27482 0.0
C3549 C 0.78373 0.20904 0.27862 0.0
C3550 C 0.78291 0.17471 0.20344 0.0
C3551 C 0.81066 0.1802 0.29708 0.0
H3552 H 0.79966 0.09079 0.24166 0.0
H3553 H 0.865 0.14149 0.234 0.0
H3554 H 0.76881 0.13457 0.26978 0.0
H3555 H 0.7592 0.1332 0.23698 0.0
H3556 H 0.76381 0.10478 0.25125 0.0
H3557 H 0.86601 0.18518 0.23338 0.0
H3558 H 0.83744 0.19616 0.22706 0.0
H3559 H 0.85008 0.19555 0.25874 0.0
H3560 H 0.75912 0.21146 0.21877 0.0
H3561 H 0.78383 0.21798 0.2973 0.0
H3562 H 0.77406 0.15474 0.2017 0.0
H3563 H 0.80178 0.17513 0.19865 0.0
H3564 H 0.77317 0.18496 0.18955 0.0
H3565 H 0.80947 0.19155 0.3148 0.0
H3566 H 0.83005 0.18122 0.29397 0.0
H3567 H 0.80342 0.16022 0.29926 0.0
C3568 C 0.70913 0.16252 0.00647 0.0
C3569 C 0.72953 0.15129 1.00221 0.0
C3570 C 0.68635 0.14797 0.00807 0.0
C3571 C 0.6836 0.1214 0.00499 0.0
C3572 C 0.70401 0.10988 1.00046 0.0
C3573 C 0.72675 0.12492 0.99933 0.0
C3574 C 0.66521 0.1611 0.01324 0.0
C3575 C 0.7018 0.08164 0.99672 0.0
C3576 C 0.62872 0.08548 0.0315 0.0
C3577 C 0.61159 0.08087 0.01033 0.0
C3578 C 0.65243 0.09804 0.02991 0.0
C3579 C 0.65927 0.1059 0.00653 0.0
C3580 C 0.64223 0.10038 0.98492 0.0
C3581 C 0.61858 0.08812 0.98713 0.0
C3582 C 0.66988 0.1037 0.05346 0.0
C3583 C 0.64877 0.10803 0.95956 0.0
H3584 H 0.711 0.18284 0.00894 0.0
H3585 H 0.74231 0.11601 0.99595 0.0
H3586 H 0.65052 0.15621 0.9976 0.0
H3587 H 0.65767 0.15464 0.03053 0.0
H3588 H 0.67042 0.18188 0.0156 0.0
H3589 H 0.71926 0.07556 0.99302 0.0
H3590 H 0.69549 0.07296 0.0136 0.0
H3591 H 0.68802 0.07429 0.98071 0.0
H3592 H 0.62339 0.07991 0.04947 0.0
H3593 H 0.60544 0.08444 0.97067 0.0
H3594 H 0.67446 0.12436 0.05786 0.0
H3595 H 0.68705 0.09666 0.05058 0.0
H3596 H 0.66226 0.09515 0.06987 0.0
H3597 H 0.65204 0.12884 0.95977 0.0
H3598 H 0.63424 0.10042 0.94429 0.0
H3599 H 0.6658 0.10139 0.95524 0.0
C3600 C 0.18426 0.43306 0.28956 0.0
C3601 C 0.15954 0.4289 0.28057 0.0
C3602 C 0.19841 0.41371 0.28821 0.0
C3603 C 0.18795 0.3896 0.27674 0.0
C3604 C 0.1629 0.38518 0.26777 0.0
C3605 C 0.14891 0.40474 0.27018 0.0
C3606 C 0.22476 0.41928 0.29871 0.0
C3607 C 0.15108 0.36005 0.25485 0.0
C3608 C 0.23375 0.35337 0.2485 0.0
C3609 C 0.2375 0.33605 0.26628 0.0
C3610 C 0.21705 0.37009 0.25126 0.0
C3611 C 0.20382 0.3699 0.27252 0.0
C3612 C 0.20719 0.35209 0.29034 0.0
C3613 C 0.22391 0.33536 0.28697 0.0
C3614 C 0.21384 0.38832 0.23154 0.0
C3615 C 0.19384 0.35131 0.31348 0.0
H3616 H 0.19259 0.45156 0.29791 0.0
H3617 H 0.12985 0.40136 0.26315 0.0
H3618 H 0.22891 0.4049 0.31158 0.0
H3619 H 0.23649 0.41841 0.28324 0.0
H3620 H 0.2296 0.43815 0.30907 0.0
H3621 H 0.13128 0.35917 0.24987 0.0
H3622 H 0.15964 0.3564 0.23744 0.0
H3623 H 0.15392 0.34474 0.26705 0.0
H3624 H 0.24395 0.35388 0.23229 0.0
H3625 H 0.2268 0.32215 0.30087 0.0
H3626 H 0.21913 0.40793 0.23998 0.0
H3627 H 0.19447 0.38601 0.22398 0.0
H3628 H 0.22489 0.38566 0.2158 0.0
H3629 H 0.20071 0.36856 0.32608 0.0
H3630 H 0.19623 0.33465 0.32396 0.0
H3631 H 0.17418 0.35103 0.30845 0.0
C3632 C 0.18934 0.4598 0.03877 0.0
C3633 C 0.21339 0.47091 0.03742 0.0
C3634 C 0.17019 0.47331 0.03412 0.0
C3635 C 0.17518 0.49822 0.02695 0.0
C3636 C 0.19952 0.50962 0.02578 0.0
C3637 C 0.21843 0.49593 0.03147 0.0
C3638 C 0.14458 0.46077 0.03653 0.0
C3639 C 0.2055 0.53587 0.01757 0.0
C3640 C 0.12065 0.51792 0.99086 0.0
C3641 C 0.1119 0.53229 0.00955 0.0
C3642 C 0.14222 0.50809 0.99581 0.0
C3643 C 0.15474 0.51198 0.02028 0.0
C3644 C 0.14633 0.52719 0.03896 0.0
C3645 C 0.12523 0.53752 0.03321 0.0
C3646 C 0.15096 0.49255 0.97519 0.0
C3647 C 0.15852 0.53104 0.06551 0.0
H3648 H 0.18551 0.44043 0.04342 0.0
H3649 H 0.23705 0.50436 0.03007 0.0
H3650 H 0.13564 0.47282 0.04903 0.0
H3651 H 0.13381 0.45824 0.0179 0.0
H3652 H 0.144 0.44207 0.04415 0.0
H3653 H 0.22537 0.54223 0.01814 0.0
H3654 H 0.19709 0.53648 0.99814 0.0
H3655 H 0.19783 0.54936 0.02973 0.0
H3656 H 0.11027 0.51379 0.97261 0.0
H3657 H 0.11828 0.54831 0.04784 0.0
H3658 H 0.14804 0.47247 0.97917 0.0
H3659 H 0.17071 0.49841 0.97435 0.0
H3660 H 0.14125 0.49422 0.95654 0.0
H3661 H 0.15575 0.51297 0.0744 0.0
H3662 H 0.15117 0.54527 0.07714 0.0
H3663 H 0.17836 0.53702 0.06566 0.0
C3664 C 0.82668 0.9717 0.23816 0.0
C3665 C 0.85183 0.97569 0.24514 0.0
C3666 C 0.81253 0.94762 0.23829 0.0
C3667 C 0.82373 0.92703 0.24566 0.0
C3668 C 0.84912 0.9309 0.25228 0.0
C3669 C 0.86274 0.95497 0.25191 0.0
C3670 C 0.78555 0.9443 0.23096 0.0
C3671 C 0.86193 0.90966 0.26037 0.0
C3672 C 0.79013 0.87085 0.27443 0.0
C3673 C 0.78782 0.85156 0.25503 0.0
C3674 C 0.80062 0.89568 0.27118 0.0
C3675 C 0.8091 0.90166 0.24792 0.0
C3676 C 0.80588 0.88258 0.22788 0.0
C3677 C 0.79532 0.8578 0.23166 0.0
C3678 C 0.80369 0.91526 0.29313 0.0
C3679 C 0.81454 0.88808 0.20273 0.0
H3680 H 0.81797 0.98741 0.23284 0.0
H3681 H 0.88211 0.95753 0.25729 0.0
H3682 H 0.78002 0.92873 0.21603 0.0
H3683 H 0.77572 0.93907 0.24734 0.0
H3684 H 0.77978 0.96166 0.22417 0.0
H3685 H 0.88189 0.91553 0.26412 0.0
H3686 H 0.85494 0.90259 0.27769 0.0
H3687 H 0.85822 0.89375 0.24568 0.0
H3688 H 0.78427 0.86649 0.29254 0.0
H3689 H 0.79363 0.84319 0.21649 0.0
H3690 H 0.79661 0.93233 0.28741 0.0
H3691 H 0.82327 0.92096 0.29956 0.0
H3692 H 0.79424 0.90824 0.30921 0.0
H3693 H 0.80814 0.90521 0.19615 0.0
H3694 H 0.80818 0.87219 0.18827 0.0
H3695 H 0.83466 0.8918 0.20458 0.0
C3696 C 0.67192 0.06771 0.78477 0.0
C3697 C 0.64706 0.0689 0.78476 0.0
C3698 C 0.68887 0.08922 0.78194 0.0
C3699 C 0.68084 0.11255 0.77884 0.0
C3700 C 0.65585 0.11394 0.77908 0.0
C3701 C 0.63933 0.09221 0.78212 0.0
C3702 C 0.71536 0.08695 0.78205 0.0
C3703 C 0.64648 0.13841 0.77582 0.0
C3704 C 0.72376 0.17481 0.79314 0.0
C3705 C 0.72829 0.18162 0.76904 0.0
C3706 C 0.70911 0.15198 0.79664 0.0
C3707 C 0.69847 0.1356 0.77551 0.0
C3708 C 0.70366 0.14203 0.75115 0.0
C3709 C 0.71861 0.16493 0.74821 0.0
C3710 C 0.70437 0.14581 0.82295 0.0
C3711 C 0.69264 0.12517 0.72812 0.0
H3712 H 0.67819 0.04988 0.7868 0.0
H3713 H 0.62022 0.09345 0.78196 0.0
H3714 H 0.72186 0.09218 0.76392 0.0
H3715 H 0.72631 0.1002 0.797 0.0
H3716 H 0.71877 0.06761 0.78514 0.0
H3717 H 0.62653 0.13638 0.77637 0.0
H3718 H 0.65542 0.15284 0.79082 0.0
H3719 H 0.651 0.14551 0.75762 0.0
H3720 H 0.73129 0.18762 0.80933 0.0
H3721 H 0.72198 0.17019 0.72956 0.0
H3722 H 0.70867 0.12688 0.82638 0.0
H3723 H 0.68486 0.14537 0.82523 0.0
H3724 H 0.71521 0.15973 0.83743 0.0
H3725 H 0.6965 0.1058 0.72995 0.0
H3726 H 0.69959 0.13204 0.71069 0.0
H3727 H 0.67263 0.12407 0.72628 0.0
loop_
_geom_bond_atom_site_label_1
_geom_bond_atom_site_label_2
_geom_bond_distance
_geom_bond_site_symmetry_2
_ccdc_geom_bond_type
Co0 O1 2.216 . S
Co0 O2 2.091 . S
Co0 O4 2.004 1_455 S
Co0 O10 2.021 . S
Co0 O12 2.137 . S
Co0 O13 2.244 . S
O1 Co0 2.216 . S
O1 C8 1.247 . S
O2 Co0 2.091 . S
O2 C8 1.261 . S
C3 O12 1.247 . S
C3 O13 1.272 . S
O4 Co0 2.004 1_655 S
O4 C9 1.259 . S
Co5 O6 2.061 . S
Co5 O11 2.052 1_655 S
Co5 O13 2.135 1_655 S
O6 Co5 2.061 . S
O6 C9 1.235 . S
C7 O10 1.238 . S
C7 O11 1.241 . S
C8 O1 1.247 . S
C8 O2 1.261 . S
C9 O4 1.259 . S
C9 O6 1.235 . S
O10 Co0 2.021 . S
O10 C7 1.238 . S
O11 Co5 2.052 1_455 S
O11 C7 1.241 . S
O12 Co0 2.137 . S
O12 C3 1.247 . S
O13 Co0 2.244 . S
O13 C3 1.272 . S
O13 Co5 2.135 1_455 S
Co14 O15 2.216 . S
Co14 O16 2.091 . S
Co14 O18 2.004 1_655 S
Co14 O24 2.021 . S
Co14 O26 2.137 . S
Co14 O27 2.244 1_655 S
O15 Co14 2.216 . S
O15 C22 1.247 . S
O16 Co14 2.091 . S
O16 C22 1.261 . S
C17 O26 1.247 1_455 S
C17 O27 1.272 . S
O18 Co14 2.004 1_455 S
O18 C23 1.259 . S
Co19 O20 2.061 . S
Co19 O25 2.052 . S
Co19 O27 2.135 . S
O20 Co19 2.061 . S
O20 C23 1.235 . S
C21 O24 1.254 . S
C21 O25 1.220 1_655 S
C22 O15 1.247 . S
C22 O16 1.261 . S
C23 O18 1.259 . S
C23 O20 1.235 . S
O24 Co14 2.021 . S
O24 C21 1.254 . S
O25 Co19 2.052 . S
O25 C21 1.220 1_455 S
O26 Co14 2.137 . S
O26 C17 1.247 1_655 S
O27 Co14 2.244 1_455 S
O27 C17 1.272 . S
O27 Co19 2.135 . S
Co28 O29 2.216 . S
Co28 O30 2.091 . S
Co28 O32 2.004 . S
Co28 O38 2.021 . S
Co28 O40 2.137 . S
Co28 O41 2.244 . S
O29 Co28 2.216 . S
O29 C36 1.247 . S
O30 Co28 2.091 . S
O30 C36 1.261 . S
C31 O40 1.247 . S
C31 O41 1.272 . S
O32 Co28 2.004 . S
O32 C37 1.259 . S
Co33 O34 2.061 . S
Co33 O39 2.052 . S
Co33 O41 2.135 . S
O34 Co33 2.061 . S
O34 C37 1.235 . S
C35 O38 1.238 . S
C35 O39 1.241 . S
C36 O29 1.247 . S
C36 O30 1.261 . S
C37 O32 1.259 . S
C37 O34 1.235 . S
O38 Co28 2.021 . S
O38 C35 1.238 . S
O39 Co33 2.052 . S
O39 C35 1.241 . S
O40 Co28 2.137 . S
O40 C31 1.247 . S
O41 Co28 2.244 . S
O41 C31 1.272 . S
O41 Co33 2.135 . S
Co42 O43 2.216 . S
Co42 O44 2.091 . S
Co42 O46 2.004 . S
Co42 O52 2.021 . S
Co42 O54 2.137 . S
Co42 O55 2.244 . S
O43 Co42 2.216 . S
O43 C50 1.247 . S
O44 Co42 2.091 . S
O44 C50 1.261 . S
C45 O54 1.247 . S
C45 O55 1.272 . S
O46 Co42 2.004 . S
O46 C51 1.259 . S
Co47 O48 2.061 . S
Co47 O53 2.052 . S
Co47 O55 2.135 . S
O48 Co47 2.061 . S
O48 C51 1.235 . S
C49 O52 1.238 . S
C49 O53 1.241 . S
C50 O43 1.247 . S
C50 O44 1.261 . S
C51 O46 1.259 . S
C51 O48 1.235 . S
O52 Co42 2.021 . S
O52 C49 1.238 . S
O53 Co47 2.052 . S
O53 C49 1.241 . S
O54 Co42 2.137 . S
O54 C45 1.247 . S
O55 Co42 2.244 . S
O55 C45 1.272 . S
O55 Co47 2.135 . S
Co56 O57 2.216 1_455 S
Co56 O58 2.091 1_455 S
Co56 O60 2.004 . S
Co56 O66 2.021 . S
Co56 O68 2.137 . S
Co56 O69 2.244 . S
O57 Co56 2.216 1_655 S
O57 C64 1.247 . S
O58 Co56 2.091 1_655 S
O58 C64 1.261 . S
C59 O68 1.247 . S
C59 O69 1.272 . S
O60 Co56 2.004 . S
O60 C65 1.259 . S
Co61 O62 2.061 . S
Co61 O67 2.052 . S
Co61 O69 2.135 . S
O62 Co61 2.061 . S
O62 C65 1.235 . S
C63 O66 1.238 . S
C63 O67 1.241 . S
C64 O57 1.247 . S
C64 O58 1.261 . S
C65 O60 1.259 . S
C65 O62 1.235 . S
O66 Co56 2.021 . S
O66 C63 1.238 . S
O67 Co61 2.052 . S
O67 C63 1.241 . S
O68 Co56 2.137 . S
O68 C59 1.247 . S
O69 Co56 2.244 . S
O69 C59 1.272 . S
O69 Co61 2.135 . S
Co70 O71 2.216 . S
Co70 O72 2.091 . S
Co70 O74 2.004 . S
Co70 O80 2.021 . S
Co70 O82 2.137 . S
Co70 O83 2.244 . S
O71 Co70 2.216 . S
O71 C78 1.247 . S
O72 Co70 2.091 . S
O72 C78 1.261 . S
C73 O82 1.247 . S
C73 O83 1.272 . S
O74 Co70 2.004 . S
O74 C79 1.259 . S
Co75 O76 2.061 . S
Co75 O81 2.052 . S
Co75 O83 2.135 . S
O76 Co75 2.061 . S
O76 C79 1.235 . S
C77 O80 1.238 . S
C77 O81 1.241 . S
C78 O71 1.247 . S
C78 O72 1.261 . S
C79 O74 1.259 . S
C79 O76 1.235 . S
O80 Co70 2.021 . S
O80 C77 1.238 . S
O81 Co75 2.052 . S
O81 C77 1.241 . S
O82 Co70 2.137 . S
O82 C73 1.247 . S
O83 Co70 2.244 . S
O83 C73 1.272 . S
O83 Co75 2.135 . S
Co84 O85 2.216 . S
Co84 O86 2.091 . S
Co84 O88 2.004 . S
Co84 O94 2.021 . S
Co84 O96 2.137 . S
Co84 O97 2.244 . S
O85 Co84 2.216 . S
O85 C92 1.247 . S
O86 Co84 2.091 . S
O86 C92 1.261 . S
C87 O96 1.247 . S
C87 O97 1.272 . S
O88 Co84 2.004 . S
O88 C93 1.259 . S
Co89 O90 2.061 . S
Co89 O95 2.052 . S
Co89 O97 2.135 . S
O90 Co89 2.061 . S
O90 C93 1.235 . S
C91 O94 1.238 . S
C91 O95 1.241 . S
C92 O85 1.247 . S
C92 O86 1.261 . S
C93 O88 1.259 . S
C93 O90 1.235 . S
O94 Co84 2.021 . S
O94 C91 1.238 . S
O95 Co89 2.052 . S
O95 C91 1.241 . S
O96 Co84 2.137 . S
O96 C87 1.247 . S
O97 Co84 2.244 . S
O97 C87 1.272 . S
O97 Co89 2.135 . S
Co98 O99 2.216 . S
Co98 O100 2.091 . S
Co98 O102 2.004 1_455 S
Co98 O108 2.021 . S
Co98 O110 2.137 . S
Co98 O111 2.244 . S
O99 Co98 2.216 . S
O99 C106 1.247 . S
O100 Co98 2.091 . S
O100 C106 1.261 . S
C101 O110 1.247 . S
C101 O111 1.272 . S
O102 Co98 2.004 1_655 S
O102 C107 1.259 . S
Co103 O104 2.061 . S
Co103 O109 2.052 . S
Co103 O111 2.135 1_655 S
O104 Co103 2.061 . S
O104 C107 1.235 . S
C105 O108 1.238 . S
C105 O109 1.241 1_455 S
C106 O99 1.247 . S
C106 O100 1.261 . S
C107 O102 1.259 . S
C107 O104 1.235 . S
O108 Co98 2.021 . S
O108 C105 1.238 . S
O109 Co103 2.052 . S
O109 C105 1.241 1_655 S
O110 Co98 2.137 . S
O110 C101 1.247 . S
O111 Co98 2.244 . S
O111 C101 1.272 . S
O111 Co103 2.135 1_455 S
Co112 O113 2.216 . S
Co112 O114 2.091 . S
Co112 O116 2.004 . S
Co112 O122 2.021 . S
Co112 O124 2.137 . S
Co112 O125 2.244 . S
O113 Co112 2.216 . S
O113 C120 1.247 . S
O114 Co112 2.091 . S
O114 C120 1.261 . S
C115 O124 1.247 . S
C115 O125 1.272 . S
O116 Co112 2.004 . S
O116 C121 1.259 1_545 S
Co117 O118 2.061 1_545 S
Co117 O123 2.052 . S
Co117 O125 2.135 . S
O118 Co117 2.061 1_565 S
O118 C121 1.235 . S
C119 O122 1.238 . S
C119 O123 1.241 . S
C120 O113 1.247 . S
C120 O114 1.261 . S
C121 O116 1.259 1_565 S
C121 O118 1.235 . S
O122 Co112 2.021 . S
O122 C119 1.238 . S
O123 Co117 2.052 . S
O123 C119 1.241 . S
O124 Co112 2.137 . S
O124 C115 1.247 . S
O125 Co112 2.244 . S
O125 C115 1.272 . S
O125 Co117 2.135 . S
Co126 O127 2.216 . S
Co126 O128 2.091 . S
Co126 O130 2.004 . S
Co126 O136 2.021 . S
Co126 O138 2.137 . S
Co126 O139 2.244 . S
O127 Co126 2.216 . S
O127 C134 1.247 . S
O128 Co126 2.091 . S
O128 C134 1.261 . S
C129 O138 1.247 . S
C129 O139 1.272 . S
O130 Co126 2.004 . S
O130 C135 1.259 . S
Co131 O132 2.061 . S
Co131 O137 2.052 . S
Co131 O139 2.135 . S
O132 Co131 2.061 . S
O132 C135 1.235 . S
C133 O136 1.238 . S
C133 O137 1.241 . S
C134 O127 1.247 . S
C134 O128 1.261 . S
C135 O130 1.259 . S
C135 O132 1.235 . S
O136 Co126 2.021 . S
O136 C133 1.238 . S
O137 Co131 2.052 . S
O137 C133 1.241 . S
O138 Co126 2.137 . S
O138 C129 1.247 . S
O139 Co126 2.244 . S
O139 C129 1.272 . S
O139 Co131 2.135 . S
Co140 O141 2.216 . S
Co140 O142 2.091 . S
Co140 O144 2.004 1_565 S
Co140 O150 2.021 . S
Co140 O152 2.137 . S
Co140 O153 2.244 1_565 S
O141 Co140 2.216 . S
O141 C148 1.247 . S
O142 Co140 2.091 . S
O142 C148 1.261 . S
C143 O152 1.241 1_545 S
C143 O153 1.276 . S
O144 Co140 2.004 1_545 S
O144 C149 1.259 . S
Co145 O146 2.061 . S
Co145 O151 2.052 . S
Co145 O153 2.135 . S
O146 Co145 2.061 . S
O146 C149 1.235 . S
C147 O150 1.236 . S
C147 O151 1.244 1_565 S
C148 O141 1.247 . S
C148 O142 1.261 . S
C149 O144 1.259 . S
C149 O146 1.235 . S
O150 Co140 2.021 . S
O150 C147 1.236 . S
O151 Co145 2.052 . S
O151 C147 1.244 1_545 S
O152 Co140 2.137 . S
O152 C143 1.241 1_565 S
O153 Co140 2.244 1_545 S
O153 C143 1.276 . S
O153 Co145 2.135 . S
Co154 O155 2.216 . S
Co154 O156 2.091 . S
Co154 O158 2.004 . S
Co154 O164 2.021 . S
Co154 O166 2.137 1_554 S
Co154 O167 2.244 . S
O155 Co154 2.216 . S
O155 C162 1.247 . S
O156 Co154 2.091 . S
O156 C162 1.261 . S
C157 O166 1.247 . S
C157 O167 1.272 1_556 S
O158 Co154 2.004 . S
O158 C163 1.259 . S
Co159 O160 2.061 . S
Co159 O165 2.052 . S
Co159 O167 2.135 . S
O160 Co159 2.061 . S
O160 C163 1.235 . S
C161 O164 1.238 . S
C161 O165 1.241 . S
C162 O155 1.247 . S
C162 O156 1.261 . S
C163 O158 1.259 . S
C163 O160 1.235 . S
O164 Co154 2.021 . S
O164 C161 1.238 . S
O165 Co159 2.052 . S
O165 C161 1.241 . S
O166 Co154 2.137 1_556 S
O166 C157 1.247 . S
O167 Co154 2.244 . S
O167 C157 1.272 1_554 S
O167 Co159 2.135 . S
Co168 O169 2.216 . S
Co168 O170 2.091 . S
Co168 O172 2.004 . S
Co168 O178 2.021 . S
Co168 O180 2.137 1_554 S
Co168 O181 2.244 . S
O169 Co168 2.216 . S
O169 C176 1.247 . S
O170 Co168 2.091 . S
O170 C176 1.261 . S
C171 O180 1.247 . S
C171 O181 1.272 1_556 S
O172 Co168 2.004 . S
O172 C177 1.259 . S
Co173 O174 2.061 . S
Co173 O179 2.052 . S
Co173 O181 2.135 . S
O174 Co173 2.061 . S
O174 C177 1.235 . S
C175 O178 1.238 . S
C175 O179 1.241 . S
C176 O169 1.247 . S
C176 O170 1.261 . S
C177 O172 1.259 . S
C177 O174 1.235 . S
O178 Co168 2.021 . S
O178 C175 1.238 . S
O179 Co173 2.052 . S
O179 C175 1.241 . S
O180 Co168 2.137 1_556 S
O180 C171 1.247 . S
O181 Co168 2.244 . S
O181 C171 1.272 1_554 S
O181 Co173 2.135 . S
Co182 O183 2.216 1_556 S
Co182 O184 2.091 . S
Co182 O186 2.004 . S
Co182 O192 2.021 1_556 S
Co182 O194 2.137 . S
Co182 O195 2.244 . S
O183 Co182 2.216 1_554 S
O183 C190 1.248 . S
O184 Co182 2.091 . S
O184 C190 1.261 1_556 S
C185 O194 1.247 . S
C185 O195 1.272 . S
O186 Co182 2.004 . S
O186 C191 1.259 . S
Co187 O188 2.060 . S
Co187 O193 2.044 1_556 S
Co187 O195 2.140 . S
O188 Co187 2.060 . S
O188 C191 1.235 . S
C189 O192 1.238 . S
C189 O193 1.241 . S
C190 O183 1.248 . S
C190 O184 1.261 1_554 S
C191 O186 1.259 . S
C191 O188 1.235 . S
O192 Co182 2.021 1_554 S
O192 C189 1.238 . S
O193 Co187 2.044 1_554 S
O193 C189 1.241 . S
O194 Co182 2.137 . S
O194 C185 1.247 . S
O195 Co182 2.244 . S
O195 C185 1.272 . S
O195 Co187 2.140 . S
Co196 O197 2.216 . S
Co196 O198 2.091 . S
Co196 O200 2.004 . S
Co196 O206 2.021 . S
Co196 O208 2.137 . S
Co196 O209 2.244 . S
O197 Co196 2.216 . S
O197 C204 1.247 . S
O198 Co196 2.091 . S
O198 C204 1.261 . S
C199 O208 1.247 . S
C199 O209 1.272 . S
O200 Co196 2.004 . S
O200 C205 1.259 . S
Co201 O202 2.061 . S
Co201 O207 2.052 . S
Co201 O209 2.135 . S
O202 Co201 2.061 . S
O202 C205 1.235 . S
C203 O206 1.238 . S
C203 O207 1.241 . S
C204 O197 1.247 . S
C204 O198 1.261 . S
C205 O200 1.259 . S
C205 O202 1.235 . S
O206 Co196 2.021 . S
O206 C203 1.238 . S
O207 Co201 2.052 . S
O207 C203 1.241 . S
O208 Co196 2.137 . S
O208 C199 1.247 . S
O209 Co196 2.244 . S
O209 C199 1.272 . S
O209 Co201 2.135 . S
Co210 O211 2.216 . S
Co210 O212 2.091 . S
Co210 O214 2.004 . S
Co210 O220 2.021 . S
Co210 O222 2.137 . S
Co210 O223 2.244 . S
O211 Co210 2.216 . S
O211 C218 1.247 . S
O212 Co210 2.091 . S
O212 C218 1.261 . S
C213 O222 1.247 . S
C213 O223 1.272 . S
O214 Co210 2.004 . S
O214 C219 1.259 . S
Co215 O216 2.061 . S
Co215 O221 2.052 . S
Co215 O223 2.135 . S
O216 Co215 2.061 . S
O216 C219 1.235 . S
C217 O220 1.238 . S
C217 O221 1.241 . S
C218 O211 1.247 . S
C218 O212 1.261 . S
C219 O214 1.259 . S
C219 O216 1.235 . S
O220 Co210 2.021 . S
O220 C217 1.238 . S
O221 Co215 2.052 . S
O221 C217 1.241 . S
O222 Co210 2.137 . S
O222 C213 1.247 . S
O223 Co210 2.244 . S
O223 C213 1.272 . S
O223 Co215 2.135 . S
Co224 O225 2.216 . S
Co224 O226 2.091 . S
Co224 O228 2.004 . S
Co224 O234 2.021 . S
Co224 O236 2.137 . S
Co224 O237 2.244 . S
O225 Co224 2.216 . S
O225 C232 1.247 . S
O226 Co224 2.091 . S
O226 C232 1.261 . S
C227 O236 1.247 . S
C227 O237 1.272 . S
O228 Co224 2.004 . S
O228 C233 1.259 . S
Co229 O230 2.061 . S
Co229 O235 2.052 . S
Co229 O237 2.135 . S
O230 Co229 2.061 . S
O230 C233 1.235 . S
C231 O234 1.238 . S
C231 O235 1.241 . S
C232 O225 1.247 . S
C232 O226 1.261 . S
C233 O228 1.259 . S
C233 O230 1.235 . S
O234 Co224 2.021 . S
O234 C231 1.238 . S
O235 Co229 2.052 . S
O235 C231 1.241 . S
O236 Co224 2.137 . S
O236 C227 1.247 . S
O237 Co224 2.244 . S
O237 C227 1.272 . S
O237 Co229 2.135 . S
Co238 O239 2.216 . S
Co238 O240 2.091 . S
Co238 O242 2.004 . S
Co238 O248 2.021 . S
Co238 O250 2.137 . S
Co238 O251 2.244 . S
O239 Co238 2.216 . S
O239 C246 1.247 . S
O240 Co238 2.091 . S
O240 C246 1.261 . S
C241 O250 1.247 . S
C241 O251 1.272 . S
O242 Co238 2.004 . S
O242 C247 1.259 . S
Co243 O244 2.061 . S
Co243 O249 2.052 . S
Co243 O251 2.135 . S
O244 Co243 2.061 . S
O244 C247 1.235 . S
C245 O248 1.238 . S
C245 O249 1.241 . S
C246 O239 1.247 . S
C246 O240 1.261 . S
C247 O242 1.259 . S
C247 O244 1.235 . S
O248 Co238 2.021 . S
O248 C245 1.238 . S
O249 Co243 2.052 . S
O249 C245 1.241 . S
O250 Co238 2.137 . S
O250 C241 1.247 . S
O251 Co238 2.244 . S
O251 C241 1.272 . S
O251 Co243 2.135 . S
Co252 O253 2.216 . S
Co252 O254 2.091 . S
Co252 O256 2.004 . S
Co252 O262 2.021 . S
Co252 O264 2.137 . S
Co252 O265 2.244 . S
O253 Co252 2.216 . S
O253 C260 1.247 . S
O254 Co252 2.091 . S
O254 C260 1.261 . S
C255 O264 1.247 . S
C255 O265 1.272 . S
O256 Co252 2.004 . S
O256 C261 1.259 . S
Co257 O258 2.061 . S
Co257 O263 2.052 . S
Co257 O265 2.135 . S
O258 Co257 2.061 . S
O258 C261 1.235 . S
C259 O262 1.238 . S
C259 O263 1.241 . S
C260 O253 1.247 . S
C260 O254 1.261 . S
C261 O256 1.259 . S
C261 O258 1.235 . S
O262 Co252 2.021 . S
O262 C259 1.238 . S
O263 Co257 2.052 . S
O263 C259 1.241 . S
O264 Co252 2.137 . S
O264 C255 1.247 . S
O265 Co252 2.244 . S
O265 C255 1.272 . S
O265 Co257 2.135 . S
Co266 O267 2.216 1_545 S
Co266 O268 2.091 1_545 S
Co266 O270 2.004 . S
Co266 O276 2.021 . S
Co266 O278 2.137 . S
Co266 O279 2.244 . S
O267 Co266 2.216 1_565 S
O267 C274 1.247 . S
O268 Co266 2.091 1_565 S
O268 C274 1.261 . S
C269 O278 1.247 . S
C269 O279 1.272 . S
O270 Co266 2.004 . S
O270 C275 1.259 . S
Co271 O272 2.061 . S
Co271 O277 2.052 . S
Co271 O279 2.135 . S
O272 Co271 2.061 . S
O272 C275 1.235 . S
C273 O276 1.238 . S
C273 O277 1.241 . S
C274 O267 1.247 . S
C274 O268 1.261 . S
C275 O270 1.259 . S
C275 O272 1.235 . S
O276 Co266 2.021 . S
O276 C273 1.238 . S
O277 Co271 2.052 . S
O277 C273 1.241 . S
O278 Co266 2.137 . S
O278 C269 1.247 . S
O279 Co266 2.244 . S
O279 C269 1.272 . S
O279 Co271 2.135 . S
Co280 O281 2.216 1_556 S
Co280 O282 2.091 1_556 S
Co280 O284 2.004 . S
Co280 O290 2.021 1_556 S
Co280 O292 2.137 . S
Co280 O293 2.244 . S
O281 Co280 2.216 1_554 S
O281 C288 1.247 . S
O282 Co280 2.091 1_554 S
O282 C288 1.261 . S
C283 O292 1.247 . S
C283 O293 1.272 . S
O284 Co280 2.004 . S
O284 C289 1.259 . S
Co285 O286 2.060 . S
Co285 O291 2.052 . S
Co285 O293 2.135 1_554 S
O286 Co285 2.060 . S
O286 C289 1.234 1_554 S
C287 O290 1.238 . S
C287 O291 1.241 . S
C288 O281 1.247 . S
C288 O282 1.261 . S
C289 O284 1.259 . S
C289 O286 1.234 1_556 S
O290 Co280 2.021 1_554 S
O290 C287 1.238 . S
O291 Co285 2.052 . S
O291 C287 1.241 . S
O292 Co280 2.137 . S
O292 C283 1.247 . S
O293 Co280 2.244 . S
O293 C283 1.272 . S
O293 Co285 2.135 1_556 S
Co294 O295 2.216 . S
Co294 O296 2.091 . S
Co294 O298 2.004 . S
Co294 O304 2.021 . S
Co294 O306 2.137 . S
Co294 O307 2.244 . S
O295 Co294 2.216 . S
O295 C302 1.247 . S
O296 Co294 2.091 . S
O296 C302 1.261 . S
C297 O306 1.247 . S
C297 O307 1.272 . S
O298 Co294 2.004 . S
O298 C303 1.259 . S
Co299 O300 2.061 . S
Co299 O305 2.052 . S
Co299 O307 2.135 . S
O300 Co299 2.061 . S
O300 C303 1.235 . S
C301 O304 1.238 . S
C301 O305 1.241 . S
C302 O295 1.247 . S
C302 O296 1.261 . S
C303 O298 1.259 . S
C303 O300 1.235 . S
O304 Co294 2.021 . S
O304 C301 1.238 . S
O305 Co299 2.052 . S
O305 C301 1.241 . S
O306 Co294 2.137 . S
O306 C297 1.247 . S
O307 Co294 2.244 . S
O307 C297 1.272 . S
O307 Co299 2.135 . S
Co308 O309 2.216 . S
Co308 O310 2.091 . S
Co308 O312 2.004 . S
Co308 O318 2.021 . S
Co308 O320 2.137 . S
Co308 O321 2.244 . S
O309 Co308 2.216 . S
O309 C316 1.247 . S
O310 Co308 2.091 . S
O310 C316 1.261 . S
C311 O320 1.247 . S
C311 O321 1.272 . S
O312 Co308 2.004 . S
O312 C317 1.259 . S
Co313 O314 2.061 . S
Co313 O319 2.052 . S
Co313 O321 2.135 . S
O314 Co313 2.061 . S
O314 C317 1.235 . S
C315 O318 1.238 . S
C315 O319 1.241 . S
C316 O309 1.247 . S
C316 O310 1.261 . S
C317 O312 1.259 . S
C317 O314 1.235 . S
O318 Co308 2.021 . S
O318 C315 1.238 . S
O319 Co313 2.052 . S
O319 C315 1.241 . S
O320 Co308 2.137 . S
O320 C311 1.247 . S
O321 Co308 2.244 . S
O321 C311 1.272 . S
O321 Co313 2.135 . S
Co322 O323 2.216 . S
Co322 O324 2.091 . S
Co322 O326 2.004 . S
Co322 O332 2.021 . S
Co322 O334 2.137 . S
Co322 O335 2.244 . S
O323 Co322 2.216 . S
O323 C330 1.247 . S
O324 Co322 2.091 . S
O324 C330 1.261 . S
C325 O334 1.247 . S
C325 O335 1.272 . S
O326 Co322 2.004 . S
O326 C331 1.259 . S
Co327 O328 2.061 . S
Co327 O333 2.052 . S
Co327 O335 2.135 . S
O328 Co327 2.061 . S
O328 C331 1.235 . S
C329 O332 1.238 . S
C329 O333 1.241 . S
C330 O323 1.247 . S
C330 O324 1.261 . S
C331 O326 1.259 . S
C331 O328 1.235 . S
O332 Co322 2.021 . S
O332 C329 1.238 . S
O333 Co327 2.052 . S
O333 C329 1.241 . S
O334 Co322 2.137 . S
O334 C325 1.247 . S
O335 Co322 2.244 . S
O335 C325 1.272 . S
O335 Co327 2.135 . S
Tb336 O339 2.453 . S
Tb336 O340 2.596 . S
Tb336 O341 2.374 1_554 S
Tb336 O349 2.343 1_455 S
Tb336 O351 2.353 . S
Tb336 O353 2.427 . S
Tb336 O354 2.513 1_554 S
C337 O341 1.251 . S
C337 O343 1.263 . S
Tb338 O340 2.343 1_665 S
Tb338 O343 2.353 1_664 S
Tb338 O346 2.427 1_655 S
Tb338 O347 2.513 1_655 S
Tb338 O348 2.453 1_564 S
Tb338 O349 2.596 1_565 S
Tb338 O350 2.374 1_565 S
O339 Tb336 2.453 . S
O339 C355 1.245 . S
O340 Tb336 2.596 . S
O340 Tb338 2.343 1_445 S
O340 C355 1.259 . S
O341 Tb336 2.374 1_556 S
O341 C337 1.251 . S
C342 O346 1.275 . S
C342 O347 1.246 . S
O343 C337 1.263 . S
O343 Tb338 2.353 1_446 S
C344 O348 1.245 1_554 S
C344 O349 1.259 . S
C345 O350 1.250 . S
C345 O351 1.263 1_655 S
O346 Tb338 2.427 1_455 S
O346 C342 1.275 . S
O347 Tb338 2.513 1_455 S
O347 C342 1.246 . S
O348 Tb338 2.453 1_546 S
O348 C344 1.245 1_556 S
O349 Tb336 2.343 1_655 S
O349 Tb338 2.596 1_545 S
O349 C344 1.259 . S
O350 Tb338 2.374 1_545 S
O350 C345 1.250 . S
O351 Tb336 2.353 . S
O351 C345 1.263 1_455 S
C352 O353 1.305 . S
C352 O354 1.226 1_554 S
O353 Tb336 2.427 . S
O353 C352 1.305 . S
O354 Tb336 2.513 1_556 S
O354 C352 1.226 1_556 S
C355 O339 1.245 . S
C355 O340 1.259 . S
Tb356 O359 2.453 . S
Tb356 O360 2.596 . S
Tb356 O361 2.374 . S
Tb356 O369 2.343 . S
Tb356 O371 2.353 . S
Tb356 O373 2.427 . S
Tb356 O374 2.513 . S
C357 O361 1.251 . S
C357 O363 1.263 . S
Tb358 O360 2.343 . S
Tb358 O363 2.353 . S
Tb358 O366 2.427 . S
Tb358 O367 2.513 . S
Tb358 O368 2.453 . S
Tb358 O369 2.596 . S
Tb358 O370 2.374 . S
O359 Tb356 2.453 . S
O359 C375 1.245 . S
O360 Tb356 2.596 . S
O360 Tb358 2.343 . S
O360 C375 1.259 . S
O361 Tb356 2.374 . S
O361 C357 1.251 . S
C362 O366 1.275 . S
C362 O367 1.246 . S
O363 C357 1.263 . S
O363 Tb358 2.353 . S
C364 O368 1.245 . S
C364 O369 1.259 . S
C365 O370 1.250 . S
C365 O371 1.263 . S
O366 Tb358 2.427 . S
O366 C362 1.275 . S
O367 Tb358 2.513 . S
O367 C362 1.246 . S
O368 Tb358 2.453 . S
O368 C364 1.245 . S
O369 Tb356 2.343 . S
O369 Tb358 2.596 . S
O369 C364 1.259 . S
O370 Tb358 2.374 . S
O370 C365 1.250 . S
O371 Tb356 2.353 . S
O371 C365 1.263 . S
C372 O373 1.275 . S
C372 O374 1.246 . S
O373 Tb356 2.427 . S
O373 C372 1.275 . S
O374 Tb356 2.513 . S
O374 C372 1.246 . S
C375 O359 1.245 . S
C375 O360 1.259 . S
Tb376 O379 2.453 . S
Tb376 O380 2.596 . S
Tb376 O381 2.374 . S
Tb376 O389 2.343 . S
Tb376 O391 2.353 . S
Tb376 O393 2.427 . S
Tb376 O394 2.513 . S
C377 O381 1.251 . S
C377 O383 1.263 . S
Tb378 O380 2.343 . S
Tb378 O383 2.353 . S
Tb378 O386 2.427 . S
Tb378 O387 2.513 . S
Tb378 O388 2.453 1_545 S
Tb378 O389 2.596 . S
Tb378 O390 2.374 . S
O379 Tb376 2.453 . S
O379 C395 1.245 . S
O380 Tb376 2.596 . S
O380 Tb378 2.343 . S
O380 C395 1.259 . S
O381 Tb376 2.374 . S
O381 C377 1.251 . S
C382 O386 1.275 . S
C382 O387 1.246 . S
O383 C377 1.263 . S
O383 Tb378 2.353 . S
C384 O388 1.245 . S
C384 O389 1.259 1_565 S
C385 O390 1.250 . S
C385 O391 1.263 . S
O386 Tb378 2.427 . S
O386 C382 1.275 . S
O387 Tb378 2.513 . S
O387 C382 1.246 . S
O388 Tb378 2.453 1_565 S
O388 C384 1.245 . S
O389 Tb376 2.343 . S
O389 Tb378 2.596 . S
O389 C384 1.259 1_545 S
O390 Tb378 2.374 . S
O390 C385 1.250 . S
O391 Tb376 2.353 . S
O391 C385 1.263 . S
C392 O393 1.290 . S
C392 O394 1.248 . S
O393 Tb376 2.427 . S
O393 C392 1.290 . S
O394 Tb376 2.513 . S
O394 C392 1.248 . S
C395 O379 1.245 . S
C395 O380 1.259 . S
Tb396 O399 2.453 . S
Tb396 O400 2.596 . S
Tb396 O401 2.374 . S
Tb396 O409 2.343 . S
Tb396 O411 2.353 . S
Tb396 O413 2.427 . S
Tb396 O414 2.513 . S
C397 O401 1.251 . S
C397 O403 1.263 . S
Tb398 O400 2.343 . S
Tb398 O403 2.353 . S
Tb398 O406 2.427 . S
Tb398 O407 2.513 . S
Tb398 O408 2.453 . S
Tb398 O409 2.596 . S
Tb398 O410 2.374 . S
O399 Tb396 2.453 . S
O399 C415 1.245 . S
O400 Tb396 2.596 . S
O400 Tb398 2.343 . S
O400 C415 1.259 . S
O401 Tb396 2.374 . S
O401 C397 1.251 . S
C402 O406 1.275 . S
C402 O407 1.246 . S
O403 C397 1.263 . S
O403 Tb398 2.353 . S
C404 O408 1.245 . S
C404 O409 1.259 . S
C405 O410 1.250 . S
C405 O411 1.263 . S
O406 Tb398 2.427 . S
O406 C402 1.275 . S
O407 Tb398 2.513 . S
O407 C402 1.246 . S
O408 Tb398 2.453 . S
O408 C404 1.245 . S
O409 Tb396 2.343 . S
O409 Tb398 2.596 . S
O409 C404 1.259 . S
O410 Tb398 2.374 . S
O410 C405 1.250 . S
O411 Tb396 2.353 . S
O411 C405 1.263 . S
C412 O413 1.275 . S
C412 O414 1.246 . S
O413 Tb396 2.427 . S
O413 C412 1.275 . S
O414 Tb396 2.513 . S
O414 C412 1.246 . S
C415 O399 1.245 . S
C415 O400 1.259 . S
Tb416 O419 2.453 1_545 S
Tb416 O420 2.596 . S
Tb416 O421 2.374 1_455 S
Tb416 O429 2.343 . S
Tb416 O431 2.353 . S
Tb416 O433 2.427 . S
Tb416 O434 2.513 1_455 S
C417 O421 1.251 . S
C417 O423 1.263 . S
Tb418 O420 2.343 . S
Tb418 O423 2.353 1_455 S
Tb418 O426 2.427 . S
Tb418 O427 2.513 . S
Tb418 O428 2.453 . S
Tb418 O429 2.596 . S
Tb418 O430 2.374 . S
O419 Tb416 2.453 1_565 S
O419 C435 1.245 . S
O420 Tb416 2.596 . S
O420 Tb418 2.343 . S
O420 C435 1.259 1_545 S
O421 Tb416 2.374 1_655 S
O421 C417 1.251 . S
C422 O426 1.275 . S
C422 O427 1.246 . S
O423 C417 1.263 . S
O423 Tb418 2.353 1_655 S
C424 O428 1.245 . S
C424 O429 1.259 . S
C425 O430 1.250 . S
C425 O431 1.263 . S
O426 Tb418 2.427 . S
O426 C422 1.275 . S
O427 Tb418 2.513 . S
O427 C422 1.246 . S
O428 Tb418 2.453 . S
O428 C424 1.245 . S
O429 Tb416 2.343 . S
O429 Tb418 2.596 . S
O429 C424 1.259 . S
O430 Tb418 2.374 . S
O430 C425 1.250 . S
O431 Tb416 2.353 . S
O431 C425 1.263 . S
C432 O433 1.275 1_655 S
C432 O434 1.246 . S
O433 Tb416 2.427 . S
O433 C432 1.275 1_455 S
O434 Tb416 2.513 1_655 S
O434 C432 1.246 . S
C435 O419 1.245 . S
C435 O420 1.259 1_565 S
Tb436 O439 2.453 . S
Tb436 O440 2.596 . S
Tb436 O441 2.374 . S
Tb436 O449 2.343 . S
Tb436 O451 2.353 . S
Tb436 O453 2.427 . S
Tb436 O454 2.513 . S
C437 O441 1.251 . S
C437 O443 1.263 . S
Tb438 O440 2.343 . S
Tb438 O443 2.353 . S
Tb438 O446 2.427 . S
Tb438 O447 2.513 . S
Tb438 O448 2.453 . S
Tb438 O449 2.596 . S
Tb438 O450 2.374 . S
O439 Tb436 2.453 . S
O439 C455 1.245 . S
O440 Tb436 2.596 . S
O440 Tb438 2.343 . S
O440 C455 1.259 . S
O441 Tb436 2.374 . S
O441 C437 1.251 . S
C442 O446 1.275 . S
C442 O447 1.246 . S
O443 C437 1.263 . S
O443 Tb438 2.353 . S
C444 O448 1.245 . S
C444 O449 1.259 . S
C445 O450 1.250 . S
C445 O451 1.263 . S
O446 Tb438 2.427 . S
O446 C442 1.275 . S
O447 Tb438 2.513 . S
O447 C442 1.246 . S
O448 Tb438 2.453 . S
O448 C444 1.245 . S
O449 Tb436 2.343 . S
O449 Tb438 2.596 . S
O449 C444 1.259 . S
O450 Tb438 2.374 . S
O450 C445 1.250 . S
O451 Tb436 2.353 . S
O451 C445 1.263 . S
C452 O453 1.275 . S
C452 O454 1.246 . S
O453 Tb436 2.427 . S
O453 C452 1.275 . S
O454 Tb436 2.513 . S
O454 C452 1.246 . S
C455 O439 1.245 . S
C455 O440 1.259 . S
Tb456 O459 2.453 . S
Tb456 O460 2.596 . S
Tb456 O461 2.374 1_545 S
Tb456 O469 2.343 1_556 S
Tb456 O471 2.353 1_556 S
Tb456 O473 2.427 1_556 S
Tb456 O474 2.513 1_546 S
C457 O461 1.262 . S
C457 O463 1.232 1_556 S
Tb458 O460 2.343 1_554 S
Tb458 O463 2.353 1_545 S
Tb458 O466 2.427 . S
Tb458 O467 2.513 . S
Tb458 O468 2.453 . S
Tb458 O469 2.596 . S
Tb458 O470 2.374 . S
O459 Tb456 2.453 . S
O459 C475 1.245 . S
O460 Tb456 2.596 . S
O460 Tb458 2.343 1_556 S
O460 C475 1.259 . S
O461 Tb456 2.374 1_565 S
O461 C457 1.262 . S
C462 O466 1.275 . S
C462 O467 1.246 . S
O463 C457 1.232 1_554 S
O463 Tb458 2.353 1_565 S
C464 O468 1.245 . S
C464 O469 1.259 . S
C465 O470 1.250 . S
C465 O471 1.263 . S
O466 Tb458 2.427 . S
O466 C462 1.275 . S
O467 Tb458 2.513 . S
O467 C462 1.246 . S
O468 Tb458 2.453 . S
O468 C464 1.245 . S
O469 Tb456 2.343 1_554 S
O469 Tb458 2.596 . S
O469 C464 1.259 . S
O470 Tb458 2.374 . S
O470 C465 1.250 . S
O471 Tb456 2.353 1_554 S
O471 C465 1.263 . S
C472 O473 1.275 . S
C472 O474 1.246 1_545 S
O473 Tb456 2.427 1_554 S
O473 C472 1.275 . S
O474 Tb456 2.513 1_564 S
O474 C472 1.246 1_565 S
C475 O459 1.245 . S
C475 O460 1.259 . S
Tb476 O479 2.453 . S
Tb476 O480 2.596 . S
Tb476 O481 2.374 . S
Tb476 O489 2.343 . S
Tb476 O491 2.353 . S
Tb476 O493 2.427 . S
Tb476 O494 2.513 . S
C477 O481 1.251 . S
C477 O483 1.263 . S
Tb478 O480 2.343 . S
Tb478 O483 2.353 . S
Tb478 O486 2.427 . S
Tb478 O487 2.513 . S
Tb478 O488 2.453 . S
Tb478 O489 2.596 . S
Tb478 O490 2.374 . S
O479 Tb476 2.453 . S
O479 C495 1.245 . S
O480 Tb476 2.596 . S
O480 Tb478 2.343 . S
O480 C495 1.259 . S
O481 Tb476 2.374 . S
O481 C477 1.251 . S
C482 O486 1.275 . S
C482 O487 1.246 . S
O483 C477 1.263 . S
O483 Tb478 2.353 . S
C484 O488 1.245 . S
C484 O489 1.259 . S
C485 O490 1.250 . S
C485 O491 1.263 . S
O486 Tb478 2.427 . S
O486 C482 1.275 . S
O487 Tb478 2.513 . S
O487 C482 1.246 . S
O488 Tb478 2.453 . S
O488 C484 1.245 . S
O489 Tb476 2.343 . S
O489 Tb478 2.596 . S
O489 C484 1.259 . S
O490 Tb478 2.374 . S
O490 C485 1.250 . S
O491 Tb476 2.353 . S
O491 C485 1.263 . S
C492 O493 1.275 . S
C492 O494 1.246 . S
O493 Tb476 2.427 . S
O493 C492 1.275 . S
O494 Tb476 2.513 . S
O494 C492 1.246 . S
C495 O479 1.245 . S
C495 O480 1.259 . S
Tb496 O499 2.453 1_556 S
Tb496 O500 2.596 1_556 S
Tb496 O501 2.394 . S
Tb496 O509 2.343 . S
Tb496 O511 2.353 . S
Tb496 O513 2.427 . S
Tb496 O514 2.513 . S
C497 O501 1.216 1_554 S
C497 O503 1.263 . S
Tb498 O500 2.343 . S
Tb498 O503 2.353 . S
Tb498 O506 2.427 . S
Tb498 O507 2.513 . S
Tb498 O508 2.453 . S
Tb498 O509 2.596 1_554 S
Tb498 O510 2.374 . S
O499 Tb496 2.453 1_554 S
O499 C515 1.245 . S
O500 Tb496 2.596 1_554 S
O500 Tb498 2.343 . S
O500 C515 1.259 . S
O501 Tb496 2.394 . S
O501 C497 1.216 1_556 S
C502 O506 1.275 . S
C502 O507 1.246 . S
O503 C497 1.263 . S
O503 Tb498 2.353 . S
C504 O508 1.245 . S
C504 O509 1.259 1_554 S
C505 O510 1.250 . S
C505 O511 1.263 1_554 S
O506 Tb498 2.427 . S
O506 C502 1.275 . S
O507 Tb498 2.513 . S
O507 C502 1.246 . S
O508 Tb498 2.453 . S
O508 C504 1.245 . S
O509 Tb496 2.343 . S
O509 Tb498 2.596 1_556 S
O509 C504 1.259 1_556 S
O510 Tb498 2.374 . S
O510 C505 1.250 . S
O511 Tb496 2.353 . S
O511 C505 1.263 1_556 S
C512 O513 1.275 . S
C512 O514 1.246 . S
O513 Tb496 2.427 . S
O513 C512 1.275 . S
O514 Tb496 2.513 . S
O514 C512 1.246 . S
C515 O499 1.245 . S
C515 O500 1.259 . S
Tb516 O519 2.453 . S
Tb516 O520 2.596 . S
Tb516 O521 2.374 . S
Tb516 O529 2.343 . S
Tb516 O531 2.353 . S
Tb516 O533 2.427 . S
Tb516 O534 2.513 . S
C517 O521 1.251 . S
C517 O523 1.263 . S
Tb518 O520 2.343 . S
Tb518 O523 2.353 . S
Tb518 O526 2.427 . S
Tb518 O527 2.513 . S
Tb518 O528 2.453 . S
Tb518 O529 2.596 . S
Tb518 O530 2.374 . S
O519 Tb516 2.453 . S
O519 C535 1.245 . S
O520 Tb516 2.596 . S
O520 Tb518 2.343 . S
O520 C535 1.259 . S
O521 Tb516 2.374 . S
O521 C517 1.251 . S
C522 O526 1.275 . S
C522 O527 1.246 . S
O523 C517 1.263 . S
O523 Tb518 2.353 . S
C524 O528 1.245 . S
C524 O529 1.259 . S
C525 O530 1.250 . S
C525 O531 1.263 . S
O526 Tb518 2.427 . S
O526 C522 1.275 . S
O527 Tb518 2.513 . S
O527 C522 1.246 . S
O528 Tb518 2.453 . S
O528 C524 1.245 . S
O529 Tb516 2.343 . S
O529 Tb518 2.596 . S
O529 C524 1.259 . S
O530 Tb518 2.374 . S
O530 C525 1.250 . S
O531 Tb516 2.353 . S
O531 C525 1.263 . S
C532 O533 1.275 . S
C532 O534 1.246 . S
O533 Tb516 2.427 . S
O533 C532 1.275 . S
O534 Tb516 2.513 . S
O534 C532 1.246 . S
C535 O519 1.245 . S
C535 O520 1.259 . S
Tb536 O539 2.459 . S
Tb536 O540 2.596 1_655 S
Tb536 O541 2.374 . S
Tb536 O549 2.343 . S
Tb536 O551 2.353 . S
Tb536 O553 2.427 . S
Tb536 O554 2.513 . S
C537 O541 1.251 1_455 S
C537 O543 1.263 . S
Tb538 O540 2.343 . S
Tb538 O543 2.353 . S
Tb538 O546 2.427 . S
Tb538 O547 2.513 . S
Tb538 O548 2.453 . S
Tb538 O549 2.596 1_455 S
Tb538 O550 2.374 . S
O539 Tb536 2.459 . S
O539 C555 1.235 1_655 S
O540 Tb536 2.596 1_455 S
O540 Tb538 2.343 . S
O540 C555 1.259 . S
O541 Tb536 2.374 . S
O541 C537 1.251 1_655 S
C542 O546 1.275 . S
C542 O547 1.246 . S
O543 C537 1.263 . S
O543 Tb538 2.353 . S
C544 O548 1.245 1_655 S
C544 O549 1.259 . S
C545 O550 1.250 . S
C545 O551 1.263 1_455 S
O546 Tb538 2.427 . S
O546 C542 1.275 . S
O547 Tb538 2.513 . S
O547 C542 1.246 . S
O548 Tb538 2.453 . S
O548 C544 1.245 1_455 S
O549 Tb536 2.343 . S
O549 Tb538 2.596 1_655 S
O549 C544 1.259 . S
O550 Tb538 2.374 . S
O550 C545 1.250 . S
O551 Tb536 2.353 . S
O551 C545 1.263 1_655 S
C552 O553 1.275 . S
C552 O554 1.246 . S
O553 Tb536 2.427 . S
O553 C552 1.275 . S
O554 Tb536 2.513 . S
O554 C552 1.246 . S
C555 O539 1.235 1_455 S
C555 O540 1.259 . S
Tb556 O559 2.453 . S
Tb556 O560 2.596 . S
Tb556 O561 2.374 . S
Tb556 O569 2.343 . S
Tb556 O571 2.353 . S
Tb556 O573 2.427 . S
Tb556 O574 2.513 . S
C557 O561 1.251 . S
C557 O563 1.263 . S
Tb558 O560 2.343 . S
Tb558 O563 2.353 . S
Tb558 O566 2.427 . S
Tb558 O567 2.513 . S
Tb558 O568 2.453 . S
Tb558 O569 2.596 . S
Tb558 O570 2.374 . S
O559 Tb556 2.453 . S
O559 C575 1.245 . S
O560 Tb556 2.596 . S
O560 Tb558 2.343 . S
O560 C575 1.259 . S
O561 Tb556 2.374 . S
O561 C557 1.251 . S
C562 O566 1.275 . S
C562 O567 1.246 . S
O563 C557 1.263 . S
O563 Tb558 2.353 . S
C564 O568 1.245 . S
C564 O569 1.259 . S
C565 O570 1.250 . S
C565 O571 1.263 . S
O566 Tb558 2.427 . S
O566 C562 1.275 . S
O567 Tb558 2.513 . S
O567 C562 1.246 . S
O568 Tb558 2.453 . S
O568 C564 1.245 . S
O569 Tb556 2.343 . S
O569 Tb558 2.596 . S
O569 C564 1.259 . S
O570 Tb558 2.374 . S
O570 C565 1.250 . S
O571 Tb556 2.353 . S
O571 C565 1.263 . S
C572 O573 1.275 . S
C572 O574 1.246 . S
O573 Tb556 2.427 . S
O573 C572 1.275 . S
O574 Tb556 2.513 . S
O574 C572 1.246 . S
C575 O559 1.245 . S
C575 O560 1.259 . S
Tb576 O579 2.453 . S
Tb576 O580 2.596 . S
Tb576 O581 2.374 . S
Tb576 O589 2.343 . S
Tb576 O591 2.353 . S
Tb576 O593 2.427 . S
Tb576 O594 2.513 . S
C577 O581 1.251 . S
C577 O583 1.263 . S
Tb578 O580 2.343 . S
Tb578 O583 2.353 . S
Tb578 O586 2.427 . S
Tb578 O587 2.513 . S
Tb578 O588 2.453 . S
Tb578 O589 2.596 . S
Tb578 O590 2.374 . S
O579 Tb576 2.453 . S
O579 C595 1.245 . S
O580 Tb576 2.596 . S
O580 Tb578 2.343 . S
O580 C595 1.259 . S
O581 Tb576 2.374 . S
O581 C577 1.251 . S
C582 O586 1.275 . S
C582 O587 1.246 . S
O583 C577 1.263 . S
O583 Tb578 2.353 . S
C584 O588 1.245 . S
C584 O589 1.259 . S
C585 O590 1.250 . S
C585 O591 1.263 . S
O586 Tb578 2.427 . S
O586 C582 1.275 . S
O587 Tb578 2.513 . S
O587 C582 1.246 . S
O588 Tb578 2.453 . S
O588 C584 1.245 . S
O589 Tb576 2.343 . S
O589 Tb578 2.596 . S
O589 C584 1.259 . S
O590 Tb578 2.374 . S
O590 C585 1.250 . S
O591 Tb576 2.353 . S
O591 C585 1.263 . S
C592 O593 1.275 . S
C592 O594 1.246 . S
O593 Tb576 2.427 . S
O593 C592 1.275 . S
O594 Tb576 2.513 . S
O594 C592 1.246 . S
C595 O579 1.245 . S
C595 O580 1.259 . S
Tb596 O599 2.453 . S
Tb596 O600 2.596 . S
Tb596 O601 2.374 . S
Tb596 O609 2.343 . S
Tb596 O611 2.353 . S
Tb596 O613 2.427 . S
Tb596 O614 2.513 . S
C597 O601 1.251 . S
C597 O603 1.263 . S
Tb598 O600 2.343 . S
Tb598 O603 2.353 . S
Tb598 O606 2.427 . S
Tb598 O607 2.513 . S
Tb598 O608 2.453 . S
Tb598 O609 2.596 . S
Tb598 O610 2.374 . S
O599 Tb596 2.453 . S
O599 C615 1.245 . S
O600 Tb596 2.596 . S
O600 Tb598 2.343 . S
O600 C615 1.259 . S
O601 Tb596 2.374 . S
O601 C597 1.251 . S
C602 O606 1.275 . S
C602 O607 1.246 . S
O603 C597 1.263 . S
O603 Tb598 2.353 . S
C604 O608 1.245 . S
C604 O609 1.259 . S
C605 O610 1.250 . S
C605 O611 1.263 . S
O606 Tb598 2.427 . S
O606 C602 1.275 . S
O607 Tb598 2.513 . S
O607 C602 1.246 . S
O608 Tb598 2.453 . S
O608 C604 1.245 . S
O609 Tb596 2.343 . S
O609 Tb598 2.596 . S
O609 C604 1.259 . S
O610 Tb598 2.374 . S
O610 C605 1.250 . S
O611 Tb596 2.353 . S
O611 C605 1.263 . S
C612 O613 1.275 . S
C612 O614 1.246 . S
O613 Tb596 2.427 . S
O613 C612 1.275 . S
O614 Tb596 2.513 . S
O614 C612 1.246 . S
C615 O599 1.245 . S
C615 O600 1.259 . S
Tb616 O619 2.453 . S
Tb616 O620 2.596 . S
Tb616 O621 2.374 . S
Tb616 O629 2.343 . S
Tb616 O631 2.353 . S
Tb616 O633 2.427 . S
Tb616 O634 2.513 . S
C617 O621 1.251 . S
C617 O623 1.263 . S
Tb618 O620 2.343 . S
Tb618 O623 2.353 . S
Tb618 O626 2.427 . S
Tb618 O627 2.513 . S
Tb618 O628 2.453 . S
Tb618 O629 2.596 . S
Tb618 O630 2.374 . S
O619 Tb616 2.453 . S
O619 C635 1.245 . S
O620 Tb616 2.596 . S
O620 Tb618 2.343 . S
O620 C635 1.259 . S
O621 Tb616 2.374 . S
O621 C617 1.251 . S
C622 O626 1.275 . S
C622 O627 1.246 . S
O623 C617 1.263 . S
O623 Tb618 2.353 . S
C624 O628 1.245 . S
C624 O629 1.259 . S
C625 O630 1.250 . S
C625 O631 1.263 . S
O626 Tb618 2.427 . S
O626 C622 1.275 . S
O627 Tb618 2.513 . S
O627 C622 1.246 . S
O628 Tb618 2.453 . S
O628 C624 1.245 . S
O629 Tb616 2.343 . S
O629 Tb618 2.596 . S
O629 C624 1.259 . S
O630 Tb618 2.374 . S
O630 C625 1.250 . S
O631 Tb616 2.353 . S
O631 C625 1.263 . S
C632 O633 1.275 . S
C632 O634 1.246 . S
O633 Tb616 2.427 . S
O633 C632 1.275 . S
O634 Tb616 2.513 . S
O634 C632 1.246 . S
C635 O619 1.245 . S
C635 O620 1.259 . S
Tb636 O639 2.453 . S
Tb636 O640 2.596 . S
Tb636 O641 2.374 . S
Tb636 O649 2.343 . S
Tb636 O651 2.353 1_554 S
Tb636 O653 2.427 1_554 S
Tb636 O654 2.513 . S
C637 O641 1.251 . S
C637 O643 1.263 1_455 S
Tb638 O640 2.343 1_655 S
Tb638 O643 2.353 . S
Tb638 O646 2.427 . S
Tb638 O647 2.513 . S
Tb638 O648 2.453 . S
Tb638 O649 2.596 1_655 S
Tb638 O650 2.374 1_554 S
O639 Tb636 2.453 . S
O639 C655 1.245 . S
O640 Tb636 2.596 . S
O640 Tb638 2.343 1_455 S
O640 C655 1.259 . S
O641 Tb636 2.374 . S
O641 C637 1.251 . S
C642 O646 1.275 . S
C642 O647 1.246 . S
O643 C637 1.263 1_655 S
O643 Tb638 2.353 . S
C644 O648 1.287 1_556 S
C644 O649 1.242 1_656 S
C645 O650 1.250 . S
C645 O651 1.263 1_655 S
O646 Tb638 2.427 . S
O646 C642 1.275 . S
O647 Tb638 2.513 . S
O647 C642 1.246 . S
O648 Tb638 2.453 . S
O648 C644 1.287 1_554 S
O649 Tb636 2.343 . S
O649 Tb638 2.596 1_455 S
O649 C644 1.242 1_454 S
O650 Tb638 2.374 1_556 S
O650 C645 1.250 . S
O651 Tb636 2.353 1_556 S
O651 C645 1.263 1_455 S
C652 O653 1.280 . S
C652 O654 1.238 1_556 S
O653 Tb636 2.427 1_556 S
O653 C652 1.280 . S
O654 Tb636 2.513 . S
O654 C652 1.238 1_554 S
C655 O639 1.245 . S
C655 O640 1.259 . S
C656 C657 1.391 1_655 S
C656 C658 1.394 . S
C656 H672 0.931 . S
C657 C656 1.391 1_455 S
C657 C661 1.376 . S
C658 C656 1.394 . S
C658 C659 1.369 1_655 S
C658 C662 1.531 . S
C659 C658 1.369 1_455 S
C659 C660 1.410 . S
C659 C667 1.503 . S
C660 C659 1.410 . S
C660 C661 1.392 . S
C660 C663 1.511 . S
C661 C657 1.376 . S
C661 C660 1.392 . S
C661 H673 0.929 . S
C662 C658 1.531 . S
C662 H674 0.960 . S
C662 H675 0.962 . S
C662 H676 0.960 . S
C663 C660 1.511 . S
C663 H677 0.961 . S
C663 H678 0.961 . S
C663 H679 0.961 . S
C664 C665 1.382 . S
C664 C666 1.362 . S
C664 H680 0.920 1_456 S
C665 C664 1.382 . S
C665 C669 1.408 . S
C666 C664 1.362 . S
C666 C667 1.370 . S
C666 C670 1.524 1_455 S
C667 C659 1.503 . S
C667 C666 1.370 . S
C667 C668 1.403 . S
C668 C667 1.403 . S
C668 C669 1.404 . S
C668 C671 1.539 . S
C669 C665 1.408 . S
C669 C668 1.404 . S
C669 H681 0.930 . S
C670 C666 1.524 1_655 S
C670 H682 0.956 . S
C670 H683 0.961 1_655 S
C670 H684 0.961 1_556 S
C671 C668 1.539 . S
C671 H685 0.958 . S
C671 H686 0.961 . S
C671 H687 0.960 . S
H672 C656 0.931 . S
H673 C661 0.929 . S
H674 C662 0.960 . S
H675 C662 0.962 . S
H676 C662 0.960 . S
H677 C663 0.961 . S
H678 C663 0.961 . S
H679 C663 0.961 . S
H680 C664 0.920 1_654 S
H681 C669 0.930 . S
H682 C670 0.956 . S
H683 C670 0.961 1_455 S
H684 C670 0.961 1_554 S
H685 C671 0.958 . S
H686 C671 0.961 . S
H687 C671 0.960 . S
C688 C689 1.391 . S
C688 C690 1.394 . S
C688 H704 0.931 . S
C689 C688 1.391 . S
C689 C693 1.376 . S
C690 C688 1.394 . S
C690 C691 1.369 . S
C690 C694 1.531 . S
C691 C690 1.369 . S
C691 C692 1.410 . S
C691 C699 1.503 . S
C692 C691 1.410 . S
C692 C693 1.392 . S
C692 C695 1.511 . S
C693 C689 1.376 . S
C693 C692 1.392 . S
C693 H705 0.929 . S
C694 C690 1.531 . S
C694 H706 0.960 . S
C694 H707 0.962 . S
C694 H708 0.960 . S
C695 C692 1.511 . S
C695 H709 0.961 . S
C695 H710 0.961 . S
C695 H711 0.961 . S
C696 C697 1.370 . S
C696 C698 1.363 . S
C696 H712 0.931 . S
C697 C696 1.370 . S
C697 C701 1.408 . S
C698 C696 1.363 . S
C698 C699 1.370 . S
C698 C702 1.524 . S
C699 C691 1.503 . S
C699 C698 1.370 . S
C699 C700 1.403 . S
C700 C699 1.403 . S
C700 C701 1.404 . S
C700 C703 1.539 . S
C701 C697 1.408 . S
C701 C700 1.404 . S
C701 H713 0.930 . S
C702 C698 1.524 . S
C702 H714 0.956 . S
C702 H715 0.961 . S
C702 H716 0.961 . S
C703 C700 1.539 . S
C703 H717 0.958 . S
C703 H718 0.961 . S
C703 H719 0.960 . S
H704 C688 0.931 . S
H705 C693 0.929 . S
H706 C694 0.960 . S
H707 C694 0.962 . S
H708 C694 0.960 . S
H709 C695 0.961 . S
H710 C695 0.961 . S
H711 C695 0.961 . S
H712 C696 0.931 . S
H713 C701 0.930 . S
H714 C702 0.956 . S
H715 C702 0.961 . S
H716 C702 0.961 . S
H717 C703 0.958 . S
H718 C703 0.961 . S
H719 C703 0.960 . S
C720 C721 1.391 . S
C720 C722 1.394 . S
C720 H736 0.931 . S
C721 C720 1.391 . S
C721 C725 1.376 . S
C722 C720 1.394 . S
C722 C723 1.369 . S
C722 C726 1.531 . S
C723 C722 1.369 . S
C723 C724 1.410 . S
C723 C731 1.503 . S
C724 C723 1.410 . S
C724 C725 1.392 . S
C724 C727 1.511 . S
C725 C721 1.376 . S
C725 C724 1.392 . S
C725 H737 0.929 . S
C726 C722 1.531 . S
C726 H738 0.960 . S
C726 H739 0.962 . S
C726 H740 0.960 . S
C727 C724 1.511 . S
C727 H741 0.961 . S
C727 H742 0.961 . S
C727 H743 0.961 . S
C728 C729 1.370 . S
C728 C730 1.363 . S
C728 H744 0.931 . S
C729 C728 1.370 . S
C729 C733 1.408 . S
C730 C728 1.363 . S
C730 C731 1.370 . S
C730 C734 1.524 . S
C731 C723 1.503 . S
C731 C730 1.370 . S
C731 C732 1.403 . S
C732 C731 1.403 . S
C732 C733 1.404 . S
C732 C735 1.539 . S
C733 C729 1.408 . S
C733 C732 1.404 . S
C733 H745 0.930 . S
C734 C730 1.524 . S
C734 H746 0.956 . S
C734 H747 0.961 . S
C734 H748 0.961 . S
C735 C732 1.539 . S
C735 H749 0.958 . S
C735 H750 0.961 . S
C735 H751 0.960 . S
H736 C720 0.931 . S
H737 C725 0.929 . S
H738 C726 0.960 . S
H739 C726 0.962 . S
H740 C726 0.960 . S
H741 C727 0.961 . S
H742 C727 0.961 . S
H743 C727 0.961 . S
H744 C728 0.931 . S
H745 C733 0.930 . S
H746 C734 0.956 . S
H747 C734 0.961 . S
H748 C734 0.961 . S
H749 C735 0.958 . S
H750 C735 0.961 . S
H751 C735 0.960 . S
C752 C753 1.391 . S
C752 C754 1.394 . S
C752 H768 0.931 . S
C753 C752 1.391 . S
C753 C757 1.376 . S
C754 C752 1.394 . S
C754 C755 1.369 . S
C754 C758 1.531 . S
C755 C754 1.369 . S
C755 C756 1.410 . S
C755 C763 1.503 . S
C756 C755 1.410 . S
C756 C757 1.392 . S
C756 C759 1.511 . S
C757 C753 1.376 . S
C757 C756 1.392 . S
C757 H769 0.929 . S
C758 C754 1.531 . S
C758 H770 0.960 . S
C758 H771 0.962 . S
C758 H772 0.960 . S
C759 C756 1.511 . S
C759 H773 0.961 . S
C759 H774 0.961 . S
C759 H775 0.961 . S
C760 C761 1.370 . S
C760 C762 1.363 . S
C760 H776 0.931 . S
C761 C760 1.370 . S
C761 C765 1.408 . S
C762 C760 1.363 . S
C762 C763 1.370 . S
C762 C766 1.524 . S
C763 C755 1.503 . S
C763 C762 1.370 . S
C763 C764 1.403 . S
C764 C763 1.403 . S
C764 C765 1.404 . S
C764 C767 1.539 . S
C765 C761 1.408 . S
C765 C764 1.404 . S
C765 H777 0.930 . S
C766 C762 1.524 . S
C766 H778 0.956 . S
C766 H779 0.961 . S
C766 H780 0.961 . S
C767 C764 1.539 . S
C767 H781 0.958 . S
C767 H782 0.961 . S
C767 H783 0.960 . S
H768 C752 0.931 . S
H769 C757 0.929 . S
H770 C758 0.960 . S
H771 C758 0.962 . S
H772 C758 0.960 . S
H773 C759 0.961 . S
H774 C759 0.961 . S
H775 C759 0.961 . S
H776 C760 0.931 . S
H777 C765 0.930 . S
H778 C766 0.956 . S
H779 C766 0.961 . S
H780 C766 0.961 . S
H781 C767 0.958 . S
H782 C767 0.961 . S
H783 C767 0.960 . S
C784 C785 1.391 1_655 S
C784 C786 1.394 . S
C784 H800 0.931 . S
C785 C784 1.391 1_455 S
C785 C789 1.376 . S
C786 C784 1.394 . S
C786 C787 1.369 1_655 S
C786 C790 1.531 . S
C787 C786 1.369 1_455 S
C787 C788 1.410 . S
C787 C795 1.503 . S
C788 C787 1.410 . S
C788 C789 1.392 . S
C788 C791 1.511 . S
C789 C785 1.376 . S
C789 C788 1.392 . S
C789 H801 0.929 . S
C790 C786 1.531 . S
C790 H802 0.960 . S
C790 H803 0.962 . S
C790 H804 0.960 . S
C791 C788 1.511 . S
C791 H805 0.961 . S
C791 H806 0.961 . S
C791 H807 0.961 . S
C792 C793 1.370 . S
C792 C794 1.363 . S
C792 H808 0.931 . S
C793 C792 1.370 . S
C793 C797 1.408 . S
C794 C792 1.363 . S
C794 C795 1.370 . S
C794 C798 1.524 . S
C795 C787 1.503 . S
C795 C794 1.370 . S
C795 C796 1.403 . S
C796 C795 1.403 . S
C796 C797 1.404 . S
C796 C799 1.539 . S
C797 C793 1.408 . S
C797 C796 1.404 . S
C797 H809 0.930 . S
C798 C794 1.524 . S
C798 H810 0.956 1_455 S
C798 H811 0.961 . S
C798 H812 0.961 . S
C799 C796 1.539 . S
C799 H813 0.958 1_455 S
C799 H814 0.961 . S
C799 H815 0.960 . S
H800 C784 0.931 . S
H801 C789 0.929 . S
H802 C790 0.960 . S
H803 C790 0.962 . S
H804 C790 0.960 . S
H805 C791 0.961 . S
H806 C791 0.961 . S
H807 C791 0.961 . S
H808 C792 0.931 . S
H809 C797 0.930 . S
H810 C798 0.956 1_655 S
H811 C798 0.961 . S
H812 C798 0.961 . S
H813 C799 0.958 1_655 S
H814 C799 0.961 . S
H815 C799 0.960 . S
C816 C817 1.391 . S
C816 C818 1.394 . S
C816 H832 0.931 . S
C817 C816 1.391 . S
C817 C821 1.376 . S
C818 C816 1.394 . S
C818 C819 1.369 . S
C818 C822 1.531 . S
C819 C818 1.369 . S
C819 C820 1.410 . S
C819 C827 1.503 . S
C820 C819 1.410 . S
C820 C821 1.392 . S
C820 C823 1.511 . S
C821 C817 1.376 . S
C821 C820 1.392 . S
C821 H833 0.929 . S
C822 C818 1.531 . S
C822 H834 0.960 . S
C822 H835 0.962 . S
C822 H836 0.960 . S
C823 C820 1.511 . S
C823 H837 0.961 . S
C823 H838 0.961 . S
C823 H839 0.961 . S
C824 C825 1.370 . S
C824 C826 1.363 . S
C824 H840 0.931 . S
C825 C824 1.370 . S
C825 C829 1.408 . S
C826 C824 1.363 . S
C826 C827 1.370 . S
C826 C830 1.524 . S
C827 C819 1.503 . S
C827 C826 1.370 . S
C827 C828 1.403 . S
C828 C827 1.403 . S
C828 C829 1.404 . S
C828 C831 1.539 . S
C829 C825 1.408 . S
C829 C828 1.404 . S
C829 H841 0.930 . S
C830 C826 1.524 . S
C830 H842 0.956 . S
C830 H843 0.961 . S
C830 H844 0.961 . S
C831 C828 1.539 . S
C831 H845 0.958 . S
C831 H846 0.961 . S
C831 H847 0.960 . S
H832 C816 0.931 . S
H833 C821 0.929 . S
H834 C822 0.960 . S
H835 C822 0.962 . S
H836 C822 0.960 . S
H837 C823 0.961 . S
H838 C823 0.961 . S
H839 C823 0.961 . S
H840 C824 0.931 . S
H841 C829 0.930 . S
H842 C830 0.956 . S
H843 C830 0.961 . S
H844 C830 0.961 . S
H845 C831 0.958 . S
H846 C831 0.961 . S
H847 C831 0.960 . S
C848 C849 1.391 . S
C848 C850 1.394 . S
C848 H864 0.931 . S
C849 C848 1.391 . S
C849 C853 1.376 . S
C850 C848 1.394 . S
C850 C851 1.369 . S
C850 C854 1.531 . S
C851 C850 1.369 . S
C851 C852 1.410 . S
C851 C859 1.503 . S
C852 C851 1.410 . S
C852 C853 1.392 . S
C852 C855 1.511 . S
C853 C849 1.376 . S
C853 C852 1.392 . S
C853 H865 0.929 . S
C854 C850 1.531 . S
C854 H866 0.960 . S
C854 H867 0.962 . S
C854 H868 0.960 . S
C855 C852 1.511 . S
C855 H869 0.961 . S
C855 H870 0.961 . S
C855 H871 0.961 . S
C856 C857 1.370 . S
C856 C858 1.363 . S
C856 H872 0.931 . S
C857 C856 1.370 . S
C857 C861 1.408 . S
C858 C856 1.363 . S
C858 C859 1.370 . S
C858 C862 1.524 . S
C859 C851 1.503 . S
C859 C858 1.370 . S
C859 C860 1.403 . S
C860 C859 1.403 . S
C860 C861 1.404 . S
C860 C863 1.539 . S
C861 C857 1.408 . S
C861 C860 1.404 . S
C861 H873 0.930 . S
C862 C858 1.524 . S
C862 H874 0.956 . S
C862 H875 0.961 . S
C862 H876 0.961 . S
C863 C860 1.539 . S
C863 H877 0.958 . S
C863 H878 0.961 . S
C863 H879 0.960 . S
H864 C848 0.931 . S
H865 C853 0.929 . S
H866 C854 0.960 . S
H867 C854 0.962 . S
H868 C854 0.960 . S
H869 C855 0.961 . S
H870 C855 0.961 . S
H871 C855 0.961 . S
H872 C856 0.931 . S
H873 C861 0.930 . S
H874 C862 0.956 . S
H875 C862 0.961 . S
H876 C862 0.961 . S
H877 C863 0.958 . S
H878 C863 0.961 . S
H879 C863 0.960 . S
C880 C881 1.391 . S
C880 C882 1.394 . S
C880 H896 0.931 . S
C881 C880 1.391 . S
C881 C885 1.376 . S
C882 C880 1.394 . S
C882 C883 1.369 . S
C882 C886 1.531 . S
C883 C882 1.369 . S
C883 C884 1.410 . S
C883 C891 1.503 . S
C884 C883 1.410 . S
C884 C885 1.392 . S
C884 C887 1.511 . S
C885 C881 1.376 . S
C885 C884 1.392 . S
C885 H897 0.929 . S
C886 C882 1.531 . S
C886 H898 0.960 . S
C886 H899 0.962 . S
C886 H900 0.960 . S
C887 C884 1.511 . S
C887 H901 0.961 . S
C887 H902 0.961 . S
C887 H903 0.961 . S
C888 C889 1.370 . S
C888 C890 1.363 . S
C888 H904 0.931 . S
C889 C888 1.370 . S
C889 C893 1.408 . S
C890 C888 1.363 . S
C890 C891 1.370 . S
C890 C894 1.524 . S
C891 C883 1.503 . S
C891 C890 1.370 . S
C891 C892 1.403 . S
C892 C891 1.403 . S
C892 C893 1.404 . S
C892 C895 1.539 . S
C893 C889 1.408 . S
C893 C892 1.404 . S
C893 H905 0.930 . S
C894 C890 1.524 . S
C894 H906 0.956 . S
C894 H907 0.961 . S
C894 H908 0.961 . S
C895 C892 1.539 . S
C895 H909 0.958 . S
C895 H910 0.961 . S
C895 H911 0.960 . S
H896 C880 0.931 . S
H897 C885 0.929 . S
H898 C886 0.960 . S
H899 C886 0.962 . S
H900 C886 0.960 . S
H901 C887 0.961 . S
H902 C887 0.961 . S
H903 C887 0.961 . S
H904 C888 0.931 . S
H905 C893 0.930 . S
H906 C894 0.956 . S
H907 C894 0.961 . S
H908 C894 0.961 . S
H909 C895 0.958 . S
H910 C895 0.961 . S
H911 C895 0.960 . S
C912 C913 1.391 . S
C912 C914 1.394 . S
C912 H928 0.931 . S
C913 C912 1.391 . S
C913 C917 1.376 . S
C914 C912 1.394 . S
C914 C915 1.369 . S
C914 C918 1.531 . S
C915 C914 1.369 . S
C915 C916 1.410 . S
C915 C923 1.503 . S
C916 C915 1.410 . S
C916 C917 1.392 . S
C916 C919 1.511 . S
C917 C913 1.376 . S
C917 C916 1.392 . S
C917 H929 0.929 . S
C918 C914 1.531 . S
C918 H930 0.960 . S
C918 H931 0.962 . S
C918 H932 0.960 . S
C919 C916 1.511 . S
C919 H933 0.961 . S
C919 H934 0.961 . S
C919 H935 0.961 . S
C920 C921 1.370 . S
C920 C922 1.363 . S
C920 H936 0.931 . S
C921 C920 1.370 . S
C921 C925 1.408 . S
C922 C920 1.363 . S
C922 C923 1.370 . S
C922 C926 1.524 . S
C923 C915 1.503 . S
C923 C922 1.370 . S
C923 C924 1.403 . S
C924 C923 1.403 . S
C924 C925 1.404 . S
C924 C927 1.539 . S
C925 C921 1.408 . S
C925 C924 1.404 . S
C925 H937 0.930 . S
C926 C922 1.524 . S
C926 H938 0.956 . S
C926 H939 0.961 . S
C926 H940 0.961 . S
C927 C924 1.539 . S
C927 H941 0.958 1_545 S
C927 H942 0.961 1_545 S
C927 H943 0.960 . S
H928 C912 0.931 . S
H929 C917 0.929 . S
H930 C918 0.960 . S
H931 C918 0.962 . S
H932 C918 0.960 . S
H933 C919 0.961 . S
H934 C919 0.961 . S
H935 C919 0.961 . S
H936 C920 0.931 . S
H937 C925 0.930 . S
H938 C926 0.956 . S
H939 C926 0.961 . S
H940 C926 0.961 . S
H941 C927 0.958 1_565 S
H942 C927 0.961 1_565 S
H943 C927 0.960 . S
C944 C945 1.391 . S
C944 C946 1.394 . S
C944 H960 0.931 . S
C945 C944 1.391 . S
C945 C949 1.376 . S
C946 C944 1.394 . S
C946 C947 1.369 . S
C946 C950 1.531 . S
C947 C946 1.369 . S
C947 C948 1.410 . S
C947 C955 1.503 . S
C948 C947 1.410 . S
C948 C949 1.392 . S
C948 C951 1.511 . S
C949 C945 1.376 . S
C949 C948 1.392 . S
C949 H961 0.929 . S
C950 C946 1.531 . S
C950 H962 0.960 . S
C950 H963 0.962 . S
C950 H964 0.960 . S
C951 C948 1.511 . S
C951 H965 0.961 . S
C951 H966 0.961 . S
C951 H967 0.961 . S
C952 C953 1.370 . S
C952 C954 1.363 . S
C952 H968 0.931 . S
C953 C952 1.370 . S
C953 C957 1.408 . S
C954 C952 1.363 . S
C954 C955 1.370 . S
C954 C958 1.524 . S
C955 C947 1.503 . S
C955 C954 1.370 . S
C955 C956 1.403 . S
C956 C955 1.403 . S
C956 C957 1.404 . S
C956 C959 1.539 . S
C957 C953 1.408 . S
C957 C956 1.404 . S
C957 H969 0.930 . S
C958 C954 1.524 . S
C958 H970 0.956 . S
C958 H971 0.961 . S
C958 H972 0.961 . S
C959 C956 1.539 . S
C959 H973 0.958 . S
C959 H974 0.961 . S
C959 H975 0.960 . S
H960 C944 0.931 . S
H961 C949 0.929 . S
H962 C950 0.960 . S
H963 C950 0.962 . S
H964 C950 0.960 . S
H965 C951 0.961 . S
H966 C951 0.961 . S
H967 C951 0.961 . S
H968 C952 0.931 . S
H969 C957 0.930 . S
H970 C958 0.956 . S
H971 C958 0.961 . S
H972 C958 0.961 . S
H973 C959 0.958 . S
H974 C959 0.961 . S
H975 C959 0.960 . S
C976 C977 1.391 . S
C976 C978 1.394 . S
C976 H992 0.931 . S
C977 C976 1.391 . S
C977 C981 1.376 . S
C978 C976 1.394 . S
C978 C979 1.369 . S
C978 C982 1.531 . S
C979 C978 1.369 . S
C979 C980 1.410 . S
C979 C987 1.503 . S
C980 C979 1.410 . S
C980 C981 1.392 . S
C980 C983 1.511 . S
C981 C977 1.376 . S
C981 C980 1.392 . S
C981 H993 0.929 . S
C982 C978 1.531 . S
C982 H994 0.960 . S
C982 H995 0.962 1_545 S
C982 H996 0.960 . S
C983 C980 1.511 . S
C983 H997 0.961 . S
C983 H998 0.961 . S
C983 H999 0.961 . S
C984 C985 1.370 . S
C984 C986 1.370 . S
C984 H1000 0.931 1_545 S
C985 C984 1.370 . S
C985 C989 1.408 . S
C986 C984 1.370 . S
C986 C987 1.396 . S
C986 C990 1.492 1_545 S
C987 C979 1.503 . S
C987 C986 1.396 . S
C987 C988 1.403 . S
C988 C987 1.403 . S
C988 C989 1.404 . S
C988 C991 1.539 . S
C989 C985 1.408 . S
C989 C988 1.404 . S
C989 H1001 0.930 . S
C990 C986 1.492 1_565 S
C990 H1002 0.956 . S
C990 H1003 0.961 . S
C990 H1004 0.961 . S
C991 C988 1.539 . S
C991 H1005 0.958 . S
C991 H1006 0.961 . S
C991 H1007 0.960 . S
H992 C976 0.931 . S
H993 C981 0.929 . S
H994 C982 0.960 . S
H995 C982 0.962 1_565 S
H996 C982 0.960 . S
H997 C983 0.961 . S
H998 C983 0.961 . S
H999 C983 0.961 . S
H1000 C984 0.931 1_565 S
H1001 C989 0.930 . S
H1002 C990 0.956 . S
H1003 C990 0.961 . S
H1004 C990 0.961 . S
H1005 C991 0.958 . S
H1006 C991 0.961 . S
H1007 C991 0.960 . S
C1008 C1009 1.391 . S
C1008 C1010 1.394 . S
C1008 H1024 0.931 . S
C1009 C1008 1.391 . S
C1009 C1013 1.376 . S
C1010 C1008 1.394 . S
C1010 C1011 1.369 . S
C1010 C1014 1.531 . S
C1011 C1010 1.369 . S
C1011 C1012 1.410 . S
C1011 C1019 1.503 . S
C1012 C1011 1.410 . S
C1012 C1013 1.392 . S
C1012 C1015 1.511 . S
C1013 C1009 1.376 . S
C1013 C1012 1.392 . S
C1013 H1025 0.929 . S
C1014 C1010 1.531 . S
C1014 H1026 0.960 . S
C1014 H1027 0.962 . S
C1014 H1028 0.960 . S
C1015 C1012 1.511 . S
C1015 H1029 0.961 . S
C1015 H1030 0.961 . S
C1015 H1031 0.961 . S
C1016 C1017 1.370 . S
C1016 C1018 1.363 . S
C1016 H1032 0.931 . S
C1017 C1016 1.370 . S
C1017 C1021 1.408 . S
C1018 C1016 1.363 . S
C1018 C1019 1.370 . S
C1018 C1022 1.524 . S
C1019 C1011 1.503 . S
C1019 C1018 1.370 . S
C1019 C1020 1.403 . S
C1020 C1019 1.403 . S
C1020 C1021 1.404 . S
C1020 C1023 1.539 . S
C1021 C1017 1.408 . S
C1021 C1020 1.404 . S
C1021 H1033 0.930 . S
C1022 C1018 1.524 . S
C1022 H1034 0.956 . S
C1022 H1035 0.961 . S
C1022 H1036 0.961 . S
C1023 C1020 1.539 . S
C1023 H1037 0.958 . S
C1023 H1038 0.961 . S
C1023 H1039 0.960 . S
H1024 C1008 0.931 . S
H1025 C1013 0.929 . S
H1026 C1014 0.960 . S
H1027 C1014 0.962 . S
H1028 C1014 0.960 . S
H1029 C1015 0.961 . S
H1030 C1015 0.961 . S
H1031 C1015 0.961 . S
H1032 C1016 0.931 . S
H1033 C1021 0.930 . S
H1034 C1022 0.956 . S
H1035 C1022 0.961 . S
H1036 C1022 0.961 . S
H1037 C1023 0.958 . S
H1038 C1023 0.961 . S
H1039 C1023 0.960 . S
C1040 C1041 1.391 . S
C1040 C1042 1.394 . S
C1040 H1056 0.931 . S
C1041 C1040 1.391 . S
C1041 C1045 1.376 . S
C1042 C1040 1.394 . S
C1042 C1043 1.369 . S
C1042 C1046 1.531 . S
C1043 C1042 1.369 . S
C1043 C1044 1.410 . S
C1043 C1051 1.503 . S
C1044 C1043 1.410 . S
C1044 C1045 1.392 . S
C1044 C1047 1.511 . S
C1045 C1041 1.376 . S
C1045 C1044 1.392 . S
C1045 H1057 0.929 . S
C1046 C1042 1.531 . S
C1046 H1058 0.960 . S
C1046 H1059 0.962 . S
C1046 H1060 0.960 . S
C1047 C1044 1.511 . S
C1047 H1061 0.961 . S
C1047 H1062 0.961 . S
C1047 H1063 0.961 . S
C1048 C1049 1.370 . S
C1048 C1050 1.363 . S
C1048 H1064 0.931 . S
C1049 C1048 1.370 . S
C1049 C1053 1.408 . S
C1050 C1048 1.363 . S
C1050 C1051 1.370 . S
C1050 C1054 1.524 . S
C1051 C1043 1.503 . S
C1051 C1050 1.370 . S
C1051 C1052 1.403 . S
C1052 C1051 1.403 . S
C1052 C1053 1.404 . S
C1052 C1055 1.539 . S
C1053 C1049 1.408 . S
C1053 C1052 1.404 . S
C1053 H1065 0.930 . S
C1054 C1050 1.524 . S
C1054 H1066 0.956 . S
C1054 H1067 0.961 . S
C1054 H1068 0.961 . S
C1055 C1052 1.539 . S
C1055 H1069 0.958 . S
C1055 H1070 0.961 . S
C1055 H1071 0.960 . S
H1056 C1040 0.931 . S
H1057 C1045 0.929 . S
H1058 C1046 0.960 . S
H1059 C1046 0.962 . S
H1060 C1046 0.960 . S
H1061 C1047 0.961 . S
H1062 C1047 0.961 . S
H1063 C1047 0.961 . S
H1064 C1048 0.931 . S
H1065 C1053 0.930 . S
H1066 C1054 0.956 . S
H1067 C1054 0.961 . S
H1068 C1054 0.961 . S
H1069 C1055 0.958 . S
H1070 C1055 0.961 . S
H1071 C1055 0.960 . S
C1072 C1073 1.391 . S
C1072 C1074 1.394 . S
C1072 H1088 0.931 . S
C1073 C1072 1.391 . S
C1073 C1077 1.376 . S
C1074 C1072 1.394 . S
C1074 C1075 1.369 . S
C1074 C1078 1.531 . S
C1075 C1074 1.369 . S
C1075 C1076 1.410 . S
C1075 C1083 1.503 . S
C1076 C1075 1.410 . S
C1076 C1077 1.392 . S
C1076 C1079 1.511 . S
C1077 C1073 1.376 . S
C1077 C1076 1.392 . S
C1077 H1089 0.929 . S
C1078 C1074 1.531 . S
C1078 H1090 0.960 . S
C1078 H1091 0.962 . S
C1078 H1092 0.960 . S
C1079 C1076 1.511 . S
C1079 H1093 0.961 . S
C1079 H1094 0.961 . S
C1079 H1095 0.961 . S
C1080 C1081 1.370 . S
C1080 C1082 1.363 . S
C1080 H1096 0.931 . S
C1081 C1080 1.370 . S
C1081 C1085 1.408 . S
C1082 C1080 1.363 . S
C1082 C1083 1.370 . S
C1082 C1086 1.524 . S
C1083 C1075 1.503 . S
C1083 C1082 1.370 . S
C1083 C1084 1.403 . S
C1084 C1083 1.403 . S
C1084 C1085 1.404 . S
C1084 C1087 1.539 . S
C1085 C1081 1.408 . S
C1085 C1084 1.404 . S
C1085 H1097 0.930 . S
C1086 C1082 1.524 . S
C1086 H1098 0.956 . S
C1086 H1099 0.961 . S
C1086 H1100 0.961 . S
C1087 C1084 1.539 . S
C1087 H1101 0.958 . S
C1087 H1102 0.961 . S
C1087 H1103 0.960 . S
H1088 C1072 0.931 . S
H1089 C1077 0.929 . S
H1090 C1078 0.960 . S
H1091 C1078 0.962 . S
H1092 C1078 0.960 . S
H1093 C1079 0.961 . S
H1094 C1079 0.961 . S
H1095 C1079 0.961 . S
H1096 C1080 0.931 . S
H1097 C1085 0.930 . S
H1098 C1086 0.956 . S
H1099 C1086 0.961 . S
H1100 C1086 0.961 . S
H1101 C1087 0.958 . S
H1102 C1087 0.961 . S
H1103 C1087 0.960 . S
C1104 C1105 1.391 1_565 S
C1104 C1106 1.394 . S
C1104 H1120 0.931 . S
C1105 C1104 1.391 1_545 S
C1105 C1109 1.376 . S
C1106 C1104 1.394 . S
C1106 C1107 1.369 1_565 S
C1106 C1110 1.531 . S
C1107 C1106 1.369 1_545 S
C1107 C1108 1.410 . S
C1107 C1115 1.503 . S
C1108 C1107 1.410 . S
C1108 C1109 1.392 . S
C1108 C1111 1.511 . S
C1109 C1105 1.376 . S
C1109 C1108 1.392 . S
C1109 H1121 0.929 . S
C1110 C1106 1.531 . S
C1110 H1122 0.960 . S
C1110 H1123 0.962 . S
C1110 H1124 0.960 . S
C1111 C1108 1.511 . S
C1111 H1125 0.961 . S
C1111 H1126 0.961 . S
C1111 H1127 0.961 . S
C1112 C1113 1.370 . S
C1112 C1114 1.363 . S
C1112 H1128 0.931 . S
C1113 C1112 1.370 . S
C1113 C1117 1.408 . S
C1114 C1112 1.363 . S
C1114 C1115 1.370 . S
C1114 C1118 1.524 . S
C1115 C1107 1.503 . S
C1115 C1114 1.370 . S
C1115 C1116 1.403 . S
C1116 C1115 1.403 . S
C1116 C1117 1.404 . S
C1116 C1119 1.536 . S
C1117 C1113 1.408 . S
C1117 C1116 1.404 . S
C1117 H1129 0.930 . S
C1118 C1114 1.524 . S
C1118 H1130 0.956 . S
C1118 H1131 0.961 . S
C1118 H1132 0.961 . S
C1119 C1116 1.536 . S
C1119 H1133 0.963 1_545 S
C1119 H1134 0.961 . S
C1119 H1135 0.958 . S
H1120 C1104 0.931 . S
H1121 C1109 0.929 . S
H1122 C1110 0.960 . S
H1123 C1110 0.962 . S
H1124 C1110 0.960 . S
H1125 C1111 0.961 . S
H1126 C1111 0.961 . S
H1127 C1111 0.961 . S
H1128 C1112 0.931 . S
H1129 C1117 0.930 . S
H1130 C1118 0.956 . S
H1131 C1118 0.961 . S
H1132 C1118 0.961 . S
H1133 C1119 0.963 1_565 S
H1134 C1119 0.961 . S
H1135 C1119 0.958 . S
C1136 C1137 1.391 . S
C1136 C1138 1.394 . S
C1136 H1152 0.931 . S
C1137 C1136 1.391 . S
C1137 C1141 1.376 . S
C1138 C1136 1.394 . S
C1138 C1139 1.369 . S
C1138 C1142 1.531 . S
C1139 C1138 1.369 . S
C1139 C1140 1.410 . S
C1139 C1147 1.503 . S
C1140 C1139 1.410 . S
C1140 C1141 1.392 . S
C1140 C1143 1.511 . S
C1141 C1137 1.376 . S
C1141 C1140 1.392 . S
C1141 H1153 0.929 . S
C1142 C1138 1.531 . S
C1142 H1154 0.960 . S
C1142 H1155 0.962 . S
C1142 H1156 0.960 . S
C1143 C1140 1.511 . S
C1143 H1157 0.961 . S
C1143 H1158 0.961 . S
C1143 H1159 0.961 . S
C1144 C1145 1.370 . S
C1144 C1146 1.363 . S
C1144 H1160 0.931 . S
C1145 C1144 1.370 . S
C1145 C1149 1.408 . S
C1146 C1144 1.363 . S
C1146 C1147 1.370 . S
C1146 C1150 1.524 . S
C1147 C1139 1.503 . S
C1147 C1146 1.370 . S
C1147 C1148 1.403 . S
C1148 C1147 1.403 . S
C1148 C1149 1.404 . S
C1148 C1151 1.539 . S
C1149 C1145 1.408 . S
C1149 C1148 1.404 . S
C1149 H1161 0.930 . S
C1150 C1146 1.524 . S
C1150 H1162 0.956 . S
C1150 H1163 0.961 . S
C1150 H1164 0.961 . S
C1151 C1148 1.539 . S
C1151 H1165 0.958 . S
C1151 H1166 0.961 . S
C1151 H1167 0.960 . S
H1152 C1136 0.931 . S
H1153 C1141 0.929 . S
H1154 C1142 0.960 . S
H1155 C1142 0.962 . S
H1156 C1142 0.960 . S
H1157 C1143 0.961 . S
H1158 C1143 0.961 . S
H1159 C1143 0.961 . S
H1160 C1144 0.931 . S
H1161 C1149 0.930 . S
H1162 C1150 0.956 . S
H1163 C1150 0.961 . S
H1164 C1150 0.961 . S
H1165 C1151 0.958 . S
H1166 C1151 0.961 . S
H1167 C1151 0.960 . S
C1168 C1169 1.391 . S
C1168 C1170 1.394 . S
C1168 H1184 0.931 . S
C1169 C1168 1.391 . S
C1169 C1173 1.376 . S
C1170 C1168 1.394 . S
C1170 C1171 1.369 . S
C1170 C1174 1.531 . S
C1171 C1170 1.369 . S
C1171 C1172 1.410 . S
C1171 C1179 1.503 . S
C1172 C1171 1.410 . S
C1172 C1173 1.392 . S
C1172 C1175 1.511 . S
C1173 C1169 1.376 . S
C1173 C1172 1.392 . S
C1173 H1185 0.929 . S
C1174 C1170 1.531 . S
C1174 H1186 0.960 1_554 S
C1174 H1187 0.962 1_565 S
C1174 H1188 0.960 1_554 S
C1175 C1172 1.511 . S
C1175 H1189 0.961 . S
C1175 H1190 0.961 . S
C1175 H1191 0.961 . S
C1176 C1177 1.377 . S
C1176 C1178 1.334 1_545 S
C1176 H1192 0.956 . S
C1177 C1176 1.377 . S
C1177 C1181 1.407 1_545 S
C1178 C1176 1.334 1_565 S
C1178 C1179 1.370 . S
C1178 C1182 1.524 . S
C1179 C1171 1.503 . S
C1179 C1178 1.370 . S
C1179 C1180 1.403 . S
C1180 C1179 1.403 . S
C1180 C1181 1.404 . S
C1180 C1183 1.539 1_554 S
C1181 C1177 1.407 1_565 S
C1181 C1180 1.404 . S
C1181 H1193 0.930 1_554 S
C1182 C1178 1.524 . S
C1182 H1194 0.956 . S
C1182 H1195 0.961 . S
C1182 H1196 0.961 . S
C1183 C1180 1.539 1_556 S
C1183 H1197 0.958 . S
C1183 H1198 0.961 . S
C1183 H1199 0.960 . S
H1184 C1168 0.931 . S
H1185 C1173 0.929 . S
H1186 C1174 0.960 1_556 S
H1187 C1174 0.962 1_545 S
H1188 C1174 0.960 1_556 S
H1189 C1175 0.961 . S
H1190 C1175 0.961 . S
H1191 C1175 0.961 . S
H1192 C1176 0.956 . S
H1193 C1181 0.930 1_556 S
H1194 C1182 0.956 . S
H1195 C1182 0.961 . S
H1196 C1182 0.961 . S
H1197 C1183 0.958 . S
H1198 C1183 0.961 . S
H1199 C1183 0.960 . S
C1200 C1201 1.391 1_554 S
C1200 C1202 1.394 . S
C1200 H1216 0.931 . S
C1201 C1200 1.391 1_556 S
C1201 C1205 1.376 . S
C1202 C1200 1.394 . S
C1202 C1203 1.369 1_554 S
C1202 C1206 1.531 . S
C1203 C1202 1.369 1_556 S
C1203 C1204 1.410 . S
C1203 C1211 1.503 . S
C1204 C1203 1.410 . S
C1204 C1205 1.392 . S
C1204 C1207 1.511 . S
C1205 C1201 1.376 . S
C1205 C1204 1.392 . S
C1205 H1217 0.929 . S
C1206 C1202 1.531 . S
C1206 H1218 0.960 . S
C1206 H1219 0.962 . S
C1206 H1220 0.960 . S
C1207 C1204 1.511 . S
C1207 H1221 0.961 . S
C1207 H1222 0.961 . S
C1207 H1223 0.961 . S
C1208 C1209 1.376 . S
C1208 C1210 1.363 . S
C1208 H1224 0.931 . S
C1209 C1208 1.376 . S
C1209 C1213 1.399 1_554 S
C1210 C1208 1.363 . S
C1210 C1211 1.370 1_554 S
C1210 C1214 1.524 . S
C1211 C1203 1.503 . S
C1211 C1210 1.370 1_556 S
C1211 C1212 1.403 . S
C1212 C1211 1.403 . S
C1212 C1213 1.404 . S
C1212 C1215 1.539 . S
C1213 C1209 1.399 1_556 S
C1213 C1212 1.404 . S
C1213 H1225 0.930 . S
C1214 C1210 1.524 . S
C1214 H1226 0.956 . S
C1214 H1227 0.961 . S
C1214 H1228 0.961 . S
C1215 C1212 1.539 . S
C1215 H1229 0.958 . S
C1215 H1230 0.961 . S
C1215 H1231 0.960 . S
H1216 C1200 0.931 . S
H1217 C1205 0.929 . S
H1218 C1206 0.960 . S
H1219 C1206 0.962 . S
H1220 C1206 0.960 . S
H1221 C1207 0.961 . S
H1222 C1207 0.961 . S
H1223 C1207 0.961 . S
H1224 C1208 0.931 . S
H1225 C1213 0.930 . S
H1226 C1214 0.956 . S
H1227 C1214 0.961 . S
H1228 C1214 0.961 . S
H1229 C1215 0.958 . S
H1230 C1215 0.961 . S
H1231 C1215 0.960 . S
C1232 C1233 1.391 . S
C1232 C1234 1.394 . S
C1232 H1248 0.931 . S
C1233 C1232 1.391 . S
C1233 C1237 1.376 . S
C1234 C1232 1.394 . S
C1234 C1235 1.369 . S
C1234 C1238 1.531 . S
C1235 C1234 1.369 . S
C1235 C1236 1.410 . S
C1235 C1243 1.503 . S
C1236 C1235 1.410 . S
C1236 C1237 1.392 . S
C1236 C1239 1.511 . S
C1237 C1233 1.376 . S
C1237 C1236 1.392 . S
C1237 H1249 0.929 . S
C1238 C1234 1.531 . S
C1238 H1250 0.960 . S
C1238 H1251 0.962 . S
C1238 H1252 0.960 . S
C1239 C1236 1.511 . S
C1239 H1253 0.961 . S
C1239 H1254 0.961 . S
C1239 H1255 0.961 . S
C1240 C1241 1.370 . S
C1240 C1242 1.363 . S
C1240 H1256 0.931 . S
C1241 C1240 1.370 . S
C1241 C1245 1.408 . S
C1242 C1240 1.363 . S
C1242 C1243 1.370 . S
C1242 C1246 1.524 . S
C1243 C1235 1.503 . S
C1243 C1242 1.370 . S
C1243 C1244 1.403 . S
C1244 C1243 1.403 . S
C1244 C1245 1.404 . S
C1244 C1247 1.539 . S
C1245 C1241 1.408 . S
C1245 C1244 1.404 . S
C1245 H1257 0.930 . S
C1246 C1242 1.524 . S
C1246 H1258 0.956 . S
C1246 H1259 0.961 . S
C1246 H1260 0.961 . S
C1247 C1244 1.539 . S
C1247 H1261 0.958 . S
C1247 H1262 0.961 . S
C1247 H1263 0.960 . S
H1248 C1232 0.931 . S
H1249 C1237 0.929 . S
H1250 C1238 0.960 . S
H1251 C1238 0.962 . S
H1252 C1238 0.960 . S
H1253 C1239 0.961 . S
H1254 C1239 0.961 . S
H1255 C1239 0.961 . S
H1256 C1240 0.931 . S
H1257 C1245 0.930 . S
H1258 C1246 0.956 . S
H1259 C1246 0.961 . S
H1260 C1246 0.961 . S
H1261 C1247 0.958 . S
H1262 C1247 0.961 . S
H1263 C1247 0.960 . S
C1264 C1265 1.391 . S
C1264 C1266 1.394 . S
C1264 H1280 0.931 . S
C1265 C1264 1.391 . S
C1265 C1269 1.376 . S
C1266 C1264 1.394 . S
C1266 C1267 1.369 . S
C1266 C1270 1.531 . S
C1267 C1266 1.369 . S
C1267 C1268 1.410 . S
C1267 C1275 1.503 . S
C1268 C1267 1.410 . S
C1268 C1269 1.392 . S
C1268 C1271 1.511 . S
C1269 C1265 1.376 . S
C1269 C1268 1.392 . S
C1269 H1281 0.929 . S
C1270 C1266 1.531 . S
C1270 H1282 0.960 . S
C1270 H1283 0.962 . S
C1270 H1284 0.960 . S
C1271 C1268 1.511 . S
C1271 H1285 0.961 . S
C1271 H1286 0.961 . S
C1271 H1287 0.961 . S
C1272 C1273 1.370 . S
C1272 C1274 1.363 . S
C1272 H1288 0.931 . S
C1273 C1272 1.370 . S
C1273 C1277 1.408 . S
C1274 C1272 1.363 . S
C1274 C1275 1.370 . S
C1274 C1278 1.524 . S
C1275 C1267 1.503 . S
C1275 C1274 1.370 . S
C1275 C1276 1.403 . S
C1276 C1275 1.403 . S
C1276 C1277 1.404 . S
C1276 C1279 1.539 . S
C1277 C1273 1.408 . S
C1277 C1276 1.404 . S
C1277 H1289 0.930 . S
C1278 C1274 1.524 . S
C1278 H1290 0.956 . S
C1278 H1291 0.961 . S
C1278 H1292 0.961 . S
C1279 C1276 1.539 . S
C1279 H1293 0.958 . S
C1279 H1294 0.961 . S
C1279 H1295 0.960 . S
H1280 C1264 0.931 . S
H1281 C1269 0.929 . S
H1282 C1270 0.960 . S
H1283 C1270 0.962 . S
H1284 C1270 0.960 . S
H1285 C1271 0.961 . S
H1286 C1271 0.961 . S
H1287 C1271 0.961 . S
H1288 C1272 0.931 . S
H1289 C1277 0.930 . S
H1290 C1278 0.956 . S
H1291 C1278 0.961 . S
H1292 C1278 0.961 . S
H1293 C1279 0.958 . S
H1294 C1279 0.961 . S
H1295 C1279 0.960 . S
C1296 C1297 1.391 . S
C1296 C1298 1.394 . S
C1296 H1312 0.931 . S
C1297 C1296 1.391 . S
C1297 C1301 1.376 . S
C1298 C1296 1.394 . S
C1298 C1299 1.369 . S
C1298 C1302 1.531 . S
C1299 C1298 1.369 . S
C1299 C1300 1.410 . S
C1299 C1307 1.503 . S
C1300 C1299 1.410 . S
C1300 C1301 1.392 . S
C1300 C1303 1.511 . S
C1301 C1297 1.376 . S
C1301 C1300 1.392 . S
C1301 H1313 0.929 . S
C1302 C1298 1.531 . S
C1302 H1314 0.960 . S
C1302 H1315 0.962 . S
C1302 H1316 0.960 . S
C1303 C1300 1.511 . S
C1303 H1317 0.961 . S
C1303 H1318 0.961 . S
C1303 H1319 0.961 . S
C1304 C1305 1.370 . S
C1304 C1306 1.363 . S
C1304 H1320 0.931 . S
C1305 C1304 1.370 . S
C1305 C1309 1.408 . S
C1306 C1304 1.363 . S
C1306 C1307 1.370 . S
C1306 C1310 1.524 . S
C1307 C1299 1.503 . S
C1307 C1306 1.370 . S
C1307 C1308 1.403 . S
C1308 C1307 1.403 . S
C1308 C1309 1.404 . S
C1308 C1311 1.539 . S
C1309 C1305 1.408 . S
C1309 C1308 1.404 . S
C1309 H1321 0.930 . S
C1310 C1306 1.524 . S
C1310 H1322 0.956 . S
C1310 H1323 0.961 . S
C1310 H1324 0.961 . S
C1311 C1308 1.539 . S
C1311 H1325 0.958 . S
C1311 H1326 0.961 . S
C1311 H1327 0.960 . S
H1312 C1296 0.931 . S
H1313 C1301 0.929 . S
H1314 C1302 0.960 . S
H1315 C1302 0.962 . S
H1316 C1302 0.960 . S
H1317 C1303 0.961 . S
H1318 C1303 0.961 . S
H1319 C1303 0.961 . S
H1320 C1304 0.931 . S
H1321 C1309 0.930 . S
H1322 C1310 0.956 . S
H1323 C1310 0.961 . S
H1324 C1310 0.961 . S
H1325 C1311 0.958 . S
H1326 C1311 0.961 . S
H1327 C1311 0.960 . S
C1328 C1329 1.391 . S
C1328 C1330 1.394 . S
C1328 H1344 0.931 . S
C1329 C1328 1.391 . S
C1329 C1333 1.376 . S
C1330 C1328 1.394 . S
C1330 C1331 1.369 . S
C1330 C1334 1.531 . S
C1331 C1330 1.369 . S
C1331 C1332 1.410 . S
C1331 C1339 1.503 . S
C1332 C1331 1.410 . S
C1332 C1333 1.392 . S
C1332 C1335 1.511 . S
C1333 C1329 1.376 . S
C1333 C1332 1.392 . S
C1333 H1345 0.929 . S
C1334 C1330 1.531 . S
C1334 H1346 0.960 . S
C1334 H1347 0.962 . S
C1334 H1348 0.960 . S
C1335 C1332 1.511 . S
C1335 H1349 0.961 . S
C1335 H1350 0.961 . S
C1335 H1351 0.961 . S
C1336 C1337 1.370 . S
C1336 C1338 1.363 . S
C1336 H1352 0.931 . S
C1337 C1336 1.370 . S
C1337 C1341 1.408 . S
C1338 C1336 1.363 . S
C1338 C1339 1.370 . S
C1338 C1342 1.524 . S
C1339 C1331 1.503 . S
C1339 C1338 1.370 . S
C1339 C1340 1.403 . S
C1340 C1339 1.403 . S
C1340 C1341 1.404 . S
C1340 C1343 1.539 . S
C1341 C1337 1.408 . S
C1341 C1340 1.404 . S
C1341 H1353 0.930 . S
C1342 C1338 1.524 . S
C1342 H1354 0.956 . S
C1342 H1355 0.961 . S
C1342 H1356 0.961 . S
C1343 C1340 1.539 . S
C1343 H1357 0.958 . S
C1343 H1358 0.961 . S
C1343 H1359 0.960 . S
H1344 C1328 0.931 . S
H1345 C1333 0.929 . S
H1346 C1334 0.960 . S
H1347 C1334 0.962 . S
H1348 C1334 0.960 . S
H1349 C1335 0.961 . S
H1350 C1335 0.961 . S
H1351 C1335 0.961 . S
H1352 C1336 0.931 . S
H1353 C1341 0.930 . S
H1354 C1342 0.956 . S
H1355 C1342 0.961 . S
H1356 C1342 0.961 . S
H1357 C1343 0.958 . S
H1358 C1343 0.961 . S
H1359 C1343 0.960 . S
C1360 C1361 1.391 . S
C1360 C1362 1.394 . S
C1360 H1376 0.931 . S
C1361 C1360 1.391 . S
C1361 C1365 1.376 . S
C1362 C1360 1.394 . S
C1362 C1363 1.369 . S
C1362 C1366 1.531 . S
C1363 C1362 1.369 . S
C1363 C1364 1.410 . S
C1363 C1371 1.503 . S
C1364 C1363 1.410 . S
C1364 C1365 1.392 . S
C1364 C1367 1.511 . S
C1365 C1361 1.376 . S
C1365 C1364 1.392 . S
C1365 H1377 0.929 . S
C1366 C1362 1.531 . S
C1366 H1378 0.960 . S
C1366 H1379 0.962 . S
C1366 H1380 0.960 . S
C1367 C1364 1.511 . S
C1367 H1381 0.961 . S
C1367 H1382 0.961 . S
C1367 H1383 0.961 . S
C1368 C1369 1.370 . S
C1368 C1370 1.363 . S
C1368 H1384 0.931 . S
C1369 C1368 1.370 . S
C1369 C1373 1.408 . S
C1370 C1368 1.363 . S
C1370 C1371 1.370 . S
C1370 C1374 1.524 . S
C1371 C1363 1.503 . S
C1371 C1370 1.370 . S
C1371 C1372 1.403 . S
C1372 C1371 1.403 . S
C1372 C1373 1.404 . S
C1372 C1375 1.539 . S
C1373 C1369 1.408 . S
C1373 C1372 1.404 . S
C1373 H1385 0.930 . S
C1374 C1370 1.524 . S
C1374 H1386 0.956 . S
C1374 H1387 0.961 . S
C1374 H1388 0.961 . S
C1375 C1372 1.539 . S
C1375 H1389 0.958 . S
C1375 H1390 0.961 . S
C1375 H1391 0.960 . S
H1376 C1360 0.931 . S
H1377 C1365 0.929 . S
H1378 C1366 0.960 . S
H1379 C1366 0.962 . S
H1380 C1366 0.960 . S
H1381 C1367 0.961 . S
H1382 C1367 0.961 . S
H1383 C1367 0.961 . S
H1384 C1368 0.931 . S
H1385 C1373 0.930 . S
H1386 C1374 0.956 . S
H1387 C1374 0.961 . S
H1388 C1374 0.961 . S
H1389 C1375 0.958 . S
H1390 C1375 0.961 . S
H1391 C1375 0.960 . S
C1392 C1393 1.391 . S
C1392 C1394 1.394 . S
C1392 H1408 0.931 . S
C1393 C1392 1.391 . S
C1393 C1397 1.376 . S
C1394 C1392 1.394 . S
C1394 C1395 1.369 . S
C1394 C1398 1.531 . S
C1395 C1394 1.369 . S
C1395 C1396 1.410 . S
C1395 C1403 1.503 . S
C1396 C1395 1.410 . S
C1396 C1397 1.392 . S
C1396 C1399 1.511 . S
C1397 C1393 1.376 . S
C1397 C1396 1.392 . S
C1397 H1409 0.929 . S
C1398 C1394 1.531 . S
C1398 H1410 0.960 . S
C1398 H1411 0.962 . S
C1398 H1412 0.960 . S
C1399 C1396 1.511 . S
C1399 H1413 0.961 . S
C1399 H1414 0.961 . S
C1399 H1415 0.961 . S
C1400 C1401 1.370 . S
C1400 C1402 1.363 . S
C1400 H1416 0.931 . S
C1401 C1400 1.370 . S
C1401 C1405 1.408 . S
C1402 C1400 1.363 . S
C1402 C1403 1.370 . S
C1402 C1406 1.524 . S
C1403 C1395 1.503 . S
C1403 C1402 1.370 . S
C1403 C1404 1.403 . S
C1404 C1403 1.403 . S
C1404 C1405 1.404 . S
C1404 C1407 1.539 . S
C1405 C1401 1.408 . S
C1405 C1404 1.404 . S
C1405 H1417 0.930 . S
C1406 C1402 1.524 . S
C1406 H1418 0.956 . S
C1406 H1419 0.961 . S
C1406 H1420 0.961 . S
C1407 C1404 1.539 . S
C1407 H1421 0.958 . S
C1407 H1422 0.961 . S
C1407 H1423 0.960 . S
H1408 C1392 0.931 . S
H1409 C1397 0.929 . S
H1410 C1398 0.960 . S
H1411 C1398 0.962 . S
H1412 C1398 0.960 . S
H1413 C1399 0.961 . S
H1414 C1399 0.961 . S
H1415 C1399 0.961 . S
H1416 C1400 0.931 . S
H1417 C1405 0.930 . S
H1418 C1406 0.956 . S
H1419 C1406 0.961 . S
H1420 C1406 0.961 . S
H1421 C1407 0.958 . S
H1422 C1407 0.961 . S
H1423 C1407 0.960 . S
C1424 C1425 1.370 1_655 S
C1424 C1426 1.397 1_655 S
C1424 H1440 0.950 . S
C1425 C1424 1.370 1_455 S
C1425 C1429 1.376 . S
C1426 C1424 1.397 1_455 S
C1426 C1427 1.400 . S
C1426 C1430 1.499 1_455 S
C1427 C1426 1.400 . S
C1427 C1428 1.410 . S
C1427 C1435 1.503 . S
C1428 C1427 1.410 . S
C1428 C1429 1.392 . S
C1428 C1431 1.511 . S
C1429 C1425 1.376 . S
C1429 C1428 1.392 . S
C1429 H1441 0.929 . S
C1430 C1426 1.499 1_655 S
C1430 H1442 0.960 . S
C1430 H1443 0.962 . S
C1430 H1444 0.960 . S
C1431 C1428 1.511 . S
C1431 H1445 0.961 . S
C1431 H1446 0.961 . S
C1431 H1447 0.961 . S
C1432 C1433 1.370 1_655 S
C1432 C1434 1.369 . S
C1432 H1448 0.931 . S
C1433 C1432 1.370 1_455 S
C1433 C1437 1.408 . S
C1434 C1432 1.369 . S
C1434 C1435 1.347 1_655 S
C1434 C1438 1.544 . S
C1435 C1427 1.503 . S
C1435 C1434 1.347 1_455 S
C1435 C1436 1.403 . S
C1436 C1435 1.403 . S
C1436 C1437 1.404 . S
C1436 C1439 1.539 . S
C1437 C1433 1.408 . S
C1437 C1436 1.404 . S
C1437 H1449 0.930 . S
C1438 C1434 1.544 . S
C1438 H1450 0.956 . S
C1438 H1451 0.961 . S
C1438 H1452 0.961 . S
C1439 C1436 1.539 . S
C1439 H1453 0.958 . S
C1439 H1454 0.961 . S
C1439 H1455 0.960 . S
H1440 C1424 0.950 . S
H1441 C1429 0.929 . S
H1442 C1430 0.960 . S
H1443 C1430 0.962 . S
H1444 C1430 0.960 . S
H1445 C1431 0.961 . S
H1446 C1431 0.961 . S
H1447 C1431 0.961 . S
H1448 C1432 0.931 . S
H1449 C1437 0.930 . S
H1450 C1438 0.956 . S
H1451 C1438 0.961 . S
H1452 C1438 0.961 . S
H1453 C1439 0.958 . S
H1454 C1439 0.961 . S
H1455 C1439 0.960 . S
C1456 C1457 1.391 . S
C1456 C1458 1.394 . S
C1456 H1472 0.931 . S
C1457 C1456 1.391 . S
C1457 C1461 1.376 . S
C1458 C1456 1.394 . S
C1458 C1459 1.369 . S
C1458 C1462 1.531 . S
C1459 C1458 1.369 . S
C1459 C1460 1.410 . S
C1459 C1467 1.503 . S
C1460 C1459 1.410 . S
C1460 C1461 1.392 . S
C1460 C1463 1.511 . S
C1461 C1457 1.376 . S
C1461 C1460 1.392 . S
C1461 H1473 0.929 . S
C1462 C1458 1.531 . S
C1462 H1474 0.960 . S
C1462 H1475 0.962 . S
C1462 H1476 0.960 . S
C1463 C1460 1.511 . S
C1463 H1477 0.961 . S
C1463 H1478 0.961 . S
C1463 H1479 0.961 . S
C1464 C1465 1.370 . S
C1464 C1466 1.363 . S
C1464 H1480 0.931 . S
C1465 C1464 1.370 . S
C1465 C1469 1.408 . S
C1466 C1464 1.363 . S
C1466 C1467 1.370 . S
C1466 C1470 1.524 . S
C1467 C1459 1.503 . S
C1467 C1466 1.370 . S
C1467 C1468 1.403 . S
C1468 C1467 1.403 . S
C1468 C1469 1.404 . S
C1468 C1471 1.539 . S
C1469 C1465 1.408 . S
C1469 C1468 1.404 . S
C1469 H1481 0.930 . S
C1470 C1466 1.524 . S
C1470 H1482 0.956 . S
C1470 H1483 0.961 . S
C1470 H1484 0.961 . S
C1471 C1468 1.539 . S
C1471 H1485 0.958 . S
C1471 H1486 0.961 . S
C1471 H1487 0.960 . S
H1472 C1456 0.931 . S
H1473 C1461 0.929 . S
H1474 C1462 0.960 . S
H1475 C1462 0.962 . S
H1476 C1462 0.960 . S
H1477 C1463 0.961 . S
H1478 C1463 0.961 . S
H1479 C1463 0.961 . S
H1480 C1464 0.931 . S
H1481 C1469 0.930 . S
H1482 C1470 0.956 . S
H1483 C1470 0.961 . S
H1484 C1470 0.961 . S
H1485 C1471 0.958 . S
H1486 C1471 0.961 . S
H1487 C1471 0.960 . S
C1488 C1489 1.391 . S
C1488 C1490 1.394 . S
C1488 H1504 0.931 . S
C1489 C1488 1.391 . S
C1489 C1493 1.376 . S
C1490 C1488 1.394 . S
C1490 C1491 1.369 . S
C1490 C1494 1.531 . S
C1491 C1490 1.369 . S
C1491 C1492 1.410 . S
C1491 C1499 1.503 . S
C1492 C1491 1.410 . S
C1492 C1493 1.392 . S
C1492 C1495 1.511 . S
C1493 C1489 1.376 . S
C1493 C1492 1.392 . S
C1493 H1505 0.929 . S
C1494 C1490 1.531 . S
C1494 H1506 0.960 . S
C1494 H1507 0.962 . S
C1494 H1508 0.960 . S
C1495 C1492 1.511 . S
C1495 H1509 0.961 . S
C1495 H1510 0.961 . S
C1495 H1511 0.961 . S
C1496 C1497 1.370 . S
C1496 C1498 1.363 . S
C1496 H1512 0.931 . S
C1497 C1496 1.370 . S
C1497 C1501 1.408 . S
C1498 C1496 1.363 . S
C1498 C1499 1.370 . S
C1498 C1502 1.524 . S
C1499 C1491 1.503 . S
C1499 C1498 1.370 . S
C1499 C1500 1.403 . S
C1500 C1499 1.403 . S
C1500 C1501 1.404 . S
C1500 C1503 1.539 . S
C1501 C1497 1.408 . S
C1501 C1500 1.404 . S
C1501 H1513 0.930 . S
C1502 C1498 1.524 . S
C1502 H1514 0.956 . S
C1502 H1515 0.961 . S
C1502 H1516 0.961 . S
C1503 C1500 1.539 . S
C1503 H1517 0.958 . S
C1503 H1518 0.961 . S
C1503 H1519 0.960 . S
H1504 C1488 0.931 . S
H1505 C1493 0.929 . S
H1506 C1494 0.960 . S
H1507 C1494 0.962 . S
H1508 C1494 0.960 . S
H1509 C1495 0.961 . S
H1510 C1495 0.961 . S
H1511 C1495 0.961 . S
H1512 C1496 0.931 . S
H1513 C1501 0.930 . S
H1514 C1502 0.956 . S
H1515 C1502 0.961 . S
H1516 C1502 0.961 . S
H1517 C1503 0.958 . S
H1518 C1503 0.961 . S
H1519 C1503 0.960 . S
C1520 C1521 1.391 . S
C1520 C1522 1.394 . S
C1520 H1536 0.931 . S
C1521 C1520 1.391 . S
C1521 C1525 1.376 . S
C1522 C1520 1.394 . S
C1522 C1523 1.369 . S
C1522 C1526 1.531 . S
C1523 C1522 1.369 . S
C1523 C1524 1.410 . S
C1523 C1531 1.503 . S
C1524 C1523 1.410 . S
C1524 C1525 1.392 . S
C1524 C1527 1.511 . S
C1525 C1521 1.376 . S
C1525 C1524 1.392 . S
C1525 H1537 0.929 . S
C1526 C1522 1.531 . S
C1526 H1538 0.960 . S
C1526 H1539 0.962 . S
C1526 H1540 0.960 . S
C1527 C1524 1.511 . S
C1527 H1541 0.961 . S
C1527 H1542 0.961 . S
C1527 H1543 0.961 . S
C1528 C1529 1.370 . S
C1528 C1530 1.363 . S
C1528 H1544 0.931 . S
C1529 C1528 1.370 . S
C1529 C1533 1.408 . S
C1530 C1528 1.363 . S
C1530 C1531 1.370 . S
C1530 C1534 1.524 . S
C1531 C1523 1.503 . S
C1531 C1530 1.370 . S
C1531 C1532 1.403 . S
C1532 C1531 1.403 . S
C1532 C1533 1.404 . S
C1532 C1535 1.539 . S
C1533 C1529 1.408 . S
C1533 C1532 1.404 . S
C1533 H1545 0.930 . S
C1534 C1530 1.524 . S
C1534 H1546 0.956 . S
C1534 H1547 0.961 . S
C1534 H1548 0.961 . S
C1535 C1532 1.539 . S
C1535 H1549 0.958 . S
C1535 H1550 0.961 . S
C1535 H1551 0.960 . S
H1536 C1520 0.931 . S
H1537 C1525 0.929 . S
H1538 C1526 0.960 . S
H1539 C1526 0.962 . S
H1540 C1526 0.960 . S
H1541 C1527 0.961 . S
H1542 C1527 0.961 . S
H1543 C1527 0.961 . S
H1544 C1528 0.931 . S
H1545 C1533 0.930 . S
H1546 C1534 0.956 . S
H1547 C1534 0.961 . S
H1548 C1534 0.961 . S
H1549 C1535 0.958 . S
H1550 C1535 0.961 . S
H1551 C1535 0.960 . S
C1552 C1553 1.375 1_655 S
C1552 C1554 1.394 . S
C1552 H1568 0.947 . S
C1553 C1552 1.375 1_455 S
C1553 C1557 1.376 . S
C1554 C1552 1.394 . S
C1554 C1555 1.369 1_655 S
C1554 C1558 1.531 . S
C1555 C1554 1.369 1_455 S
C1555 C1556 1.410 . S
C1555 C1563 1.503 . S
C1556 C1555 1.410 . S
C1556 C1557 1.392 . S
C1556 C1559 1.511 . S
C1557 C1553 1.376 . S
C1557 C1556 1.392 . S
C1557 H1569 0.929 . S
C1558 C1554 1.531 . S
C1558 H1570 0.960 . S
C1558 H1571 0.962 . S
C1558 H1572 0.960 . S
C1559 C1556 1.511 . S
C1559 H1573 0.961 . S
C1559 H1574 0.961 . S
C1559 H1575 0.961 . S
C1560 C1561 1.370 . S
C1560 C1562 1.363 . S
C1560 H1576 0.931 . S
C1561 C1560 1.370 . S
C1561 C1565 1.408 1_455 S
C1562 C1560 1.363 . S
C1562 C1563 1.370 . S
C1562 C1566 1.524 . S
C1563 C1555 1.503 . S
C1563 C1562 1.370 . S
C1563 C1564 1.403 1_455 S
C1564 C1563 1.403 1_655 S
C1564 C1565 1.404 . S
C1564 C1567 1.539 . S
C1565 C1561 1.408 1_655 S
C1565 C1564 1.404 . S
C1565 H1577 0.930 . S
C1566 C1562 1.524 . S
C1566 H1578 0.956 . S
C1566 H1579 0.961 . S
C1566 H1580 0.961 . S
C1567 C1564 1.539 . S
C1567 H1581 0.958 . S
C1567 H1582 0.961 . S
C1567 H1583 0.960 . S
H1568 C1552 0.947 . S
H1569 C1557 0.929 . S
H1570 C1558 0.960 . S
H1571 C1558 0.962 . S
H1572 C1558 0.960 . S
H1573 C1559 0.961 . S
H1574 C1559 0.961 . S
H1575 C1559 0.961 . S
H1576 C1560 0.931 . S
H1577 C1565 0.930 . S
H1578 C1566 0.956 . S
H1579 C1566 0.961 . S
H1580 C1566 0.961 . S
H1581 C1567 0.958 . S
H1582 C1567 0.961 . S
H1583 C1567 0.960 . S
C1584 C1585 1.391 . S
C1584 C1586 1.394 . S
C1584 H1600 0.931 . S
C1585 C1584 1.391 . S
C1585 C1589 1.376 . S
C1586 C1584 1.394 . S
C1586 C1587 1.369 . S
C1586 C1590 1.531 . S
C1587 C1586 1.369 . S
C1587 C1588 1.410 . S
C1587 C1595 1.503 . S
C1588 C1587 1.410 . S
C1588 C1589 1.392 . S
C1588 C1591 1.511 . S
C1589 C1585 1.376 . S
C1589 C1588 1.392 . S
C1589 H1601 0.929 . S
C1590 C1586 1.531 . S
C1590 H1602 0.960 . S
C1590 H1603 0.962 . S
C1590 H1604 0.960 . S
C1591 C1588 1.511 . S
C1591 H1605 0.961 . S
C1591 H1606 0.961 . S
C1591 H1607 0.961 . S
C1592 C1593 1.370 . S
C1592 C1594 1.363 . S
C1592 H1608 0.931 . S
C1593 C1592 1.370 . S
C1593 C1597 1.408 . S
C1594 C1592 1.363 . S
C1594 C1595 1.370 . S
C1594 C1598 1.524 . S
C1595 C1587 1.503 . S
C1595 C1594 1.370 . S
C1595 C1596 1.403 . S
C1596 C1595 1.403 . S
C1596 C1597 1.404 . S
C1596 C1599 1.539 . S
C1597 C1593 1.408 . S
C1597 C1596 1.404 . S
C1597 H1609 0.930 . S
C1598 C1594 1.524 . S
C1598 H1610 0.956 . S
C1598 H1611 0.961 . S
C1598 H1612 0.961 . S
C1599 C1596 1.539 . S
C1599 H1613 0.958 . S
C1599 H1614 0.961 . S
C1599 H1615 0.960 . S
H1600 C1584 0.931 . S
H1601 C1589 0.929 . S
H1602 C1590 0.960 . S
H1603 C1590 0.962 . S
H1604 C1590 0.960 . S
H1605 C1591 0.961 . S
H1606 C1591 0.961 . S
H1607 C1591 0.961 . S
H1608 C1592 0.931 . S
H1609 C1597 0.930 . S
H1610 C1598 0.956 . S
H1611 C1598 0.961 . S
H1612 C1598 0.961 . S
H1613 C1599 0.958 . S
H1614 C1599 0.961 . S
H1615 C1599 0.960 . S
C1616 C1617 1.391 . S
C1616 C1618 1.394 . S
C1616 H1632 0.931 . S
C1617 C1616 1.391 . S
C1617 C1621 1.376 . S
C1618 C1616 1.394 . S
C1618 C1619 1.369 . S
C1618 C1622 1.531 . S
C1619 C1618 1.369 . S
C1619 C1620 1.410 . S
C1619 C1627 1.503 . S
C1620 C1619 1.410 . S
C1620 C1621 1.392 . S
C1620 C1623 1.511 . S
C1621 C1617 1.376 . S
C1621 C1620 1.392 . S
C1621 H1633 0.929 . S
C1622 C1618 1.531 . S
C1622 H1634 0.960 . S
C1622 H1635 0.962 . S
C1622 H1636 0.960 . S
C1623 C1620 1.511 . S
C1623 H1637 0.961 . S
C1623 H1638 0.961 . S
C1623 H1639 0.961 . S
C1624 C1625 1.370 . S
C1624 C1626 1.363 . S
C1624 H1640 0.931 1_556 S
C1625 C1624 1.370 . S
C1625 C1629 1.408 . S
C1626 C1624 1.363 . S
C1626 C1627 1.370 . S
C1626 C1630 1.524 . S
C1627 C1619 1.503 . S
C1627 C1626 1.370 . S
C1627 C1628 1.403 . S
C1628 C1627 1.403 . S
C1628 C1629 1.404 . S
C1628 C1631 1.539 . S
C1629 C1625 1.408 . S
C1629 C1628 1.404 . S
C1629 H1641 0.930 . S
C1630 C1626 1.524 . S
C1630 H1642 0.956 . S
C1630 H1643 0.961 . S
C1630 H1644 0.961 1_556 S
C1631 C1628 1.539 . S
C1631 H1645 0.958 . S
C1631 H1646 0.961 . S
C1631 H1647 0.960 . S
H1632 C1616 0.931 . S
H1633 C1621 0.929 . S
H1634 C1622 0.960 . S
H1635 C1622 0.962 . S
H1636 C1622 0.960 . S
H1637 C1623 0.961 . S
H1638 C1623 0.961 . S
H1639 C1623 0.961 . S
H1640 C1624 0.931 1_554 S
H1641 C1629 0.930 . S
H1642 C1630 0.956 . S
H1643 C1630 0.961 . S
H1644 C1630 0.961 1_554 S
H1645 C1631 0.958 . S
H1646 C1631 0.961 . S
H1647 C1631 0.960 . S
C1648 C1649 1.391 . S
C1648 C1650 1.394 . S
C1648 H1664 0.931 . S
C1649 C1648 1.391 . S
C1649 C1653 1.376 . S
C1650 C1648 1.394 . S
C1650 C1651 1.369 . S
C1650 C1654 1.531 . S
C1651 C1650 1.369 . S
C1651 C1652 1.410 . S
C1651 C1659 1.503 . S
C1652 C1651 1.410 . S
C1652 C1653 1.392 . S
C1652 C1655 1.511 . S
C1653 C1649 1.376 . S
C1653 C1652 1.392 . S
C1653 H1665 0.929 . S
C1654 C1650 1.531 . S
C1654 H1666 0.960 . S
C1654 H1667 0.962 . S
C1654 H1668 0.960 . S
C1655 C1652 1.511 . S
C1655 H1669 0.961 . S
C1655 H1670 0.961 . S
C1655 H1671 0.961 . S
C1656 C1657 1.370 . S
C1656 C1658 1.363 . S
C1656 H1672 0.931 . S
C1657 C1656 1.370 . S
C1657 C1661 1.408 . S
C1658 C1656 1.363 . S
C1658 C1659 1.370 . S
C1658 C1662 1.524 . S
C1659 C1651 1.503 . S
C1659 C1658 1.370 . S
C1659 C1660 1.403 . S
C1660 C1659 1.403 . S
C1660 C1661 1.404 . S
C1660 C1663 1.539 . S
C1661 C1657 1.408 . S
C1661 C1660 1.404 . S
C1661 H1673 0.930 . S
C1662 C1658 1.524 . S
C1662 H1674 0.956 . S
C1662 H1675 0.961 . S
C1662 H1676 0.961 . S
C1663 C1660 1.539 . S
C1663 H1677 0.958 . S
C1663 H1678 0.961 . S
C1663 H1679 0.960 . S
H1664 C1648 0.931 . S
H1665 C1653 0.929 . S
H1666 C1654 0.960 . S
H1667 C1654 0.962 . S
H1668 C1654 0.960 . S
H1669 C1655 0.961 . S
H1670 C1655 0.961 . S
H1671 C1655 0.961 . S
H1672 C1656 0.931 . S
H1673 C1661 0.930 . S
H1674 C1662 0.956 . S
H1675 C1662 0.961 . S
H1676 C1662 0.961 . S
H1677 C1663 0.958 . S
H1678 C1663 0.961 . S
H1679 C1663 0.960 . S
C1680 C1681 1.434 . S
C1680 C1682 1.394 . S
C1680 H1696 0.931 . S
C1681 C1680 1.434 . S
C1681 C1685 1.339 1_545 S
C1682 C1680 1.394 . S
C1682 C1683 1.369 . S
C1682 C1686 1.531 . S
C1683 C1682 1.369 . S
C1683 C1684 1.410 1_545 S
C1683 C1691 1.503 . S
C1684 C1683 1.410 1_565 S
C1684 C1685 1.392 . S
C1684 C1687 1.511 . S
C1685 C1681 1.339 1_565 S
C1685 C1684 1.392 . S
C1685 H1697 0.929 . S
C1686 C1682 1.531 . S
C1686 H1698 0.960 . S
C1686 H1699 0.962 . S
C1686 H1700 0.960 . S
C1687 C1684 1.511 . S
C1687 H1701 0.961 . S
C1687 H1702 0.961 . S
C1687 H1703 0.961 . S
C1688 C1689 1.370 . S
C1688 C1690 1.363 . S
C1688 H1704 0.931 . S
C1689 C1688 1.370 . S
C1689 C1693 1.408 . S
C1690 C1688 1.363 . S
C1690 C1691 1.370 . S
C1690 C1694 1.524 . S
C1691 C1683 1.503 . S
C1691 C1690 1.370 . S
C1691 C1692 1.403 . S
C1692 C1691 1.403 . S
C1692 C1693 1.404 . S
C1692 C1695 1.539 1_545 S
C1693 C1689 1.408 . S
C1693 C1692 1.404 . S
C1693 H1705 0.930 . S
C1694 C1690 1.524 . S
C1694 H1706 0.956 . S
C1694 H1707 0.961 . S
C1694 H1708 0.961 . S
C1695 C1692 1.539 1_565 S
C1695 H1709 0.958 1_565 S
C1695 H1710 0.961 1_455 S
C1695 H1711 0.960 . S
H1696 C1680 0.931 . S
H1697 C1685 0.929 . S
H1698 C1686 0.960 . S
H1699 C1686 0.962 . S
H1700 C1686 0.960 . S
H1701 C1687 0.961 . S
H1702 C1687 0.961 . S
H1703 C1687 0.961 . S
H1704 C1688 0.931 . S
H1705 C1693 0.930 . S
H1706 C1694 0.956 . S
H1707 C1694 0.961 . S
H1708 C1694 0.961 . S
H1709 C1695 0.958 1_545 S
H1710 C1695 0.961 1_655 S
H1711 C1695 0.960 . S
C1712 C1713 1.391 . S
C1712 C1714 1.394 . S
C1712 H1728 0.931 . S
C1713 C1712 1.391 . S
C1713 C1717 1.376 . S
C1714 C1712 1.394 . S
C1714 C1715 1.369 . S
C1714 C1718 1.531 . S
C1715 C1714 1.369 . S
C1715 C1716 1.410 . S
C1715 C1723 1.503 . S
C1716 C1715 1.410 . S
C1716 C1717 1.392 . S
C1716 C1719 1.511 . S
C1717 C1713 1.376 . S
C1717 C1716 1.392 . S
C1717 H1729 0.929 . S
C1718 C1714 1.531 . S
C1718 H1730 0.960 . S
C1718 H1731 0.962 . S
C1718 H1732 0.960 . S
C1719 C1716 1.511 . S
C1719 H1733 0.961 . S
C1719 H1734 0.961 . S
C1719 H1735 0.961 . S
C1720 C1721 1.370 . S
C1720 C1722 1.363 . S
C1720 H1736 0.931 . S
C1721 C1720 1.370 . S
C1721 C1725 1.408 . S
C1722 C1720 1.363 . S
C1722 C1723 1.370 . S
C1722 C1726 1.524 . S
C1723 C1715 1.503 . S
C1723 C1722 1.370 . S
C1723 C1724 1.403 . S
C1724 C1723 1.403 . S
C1724 C1725 1.404 . S
C1724 C1727 1.539 . S
C1725 C1721 1.408 . S
C1725 C1724 1.404 . S
C1725 H1737 0.930 . S
C1726 C1722 1.524 . S
C1726 H1738 0.956 . S
C1726 H1739 0.961 . S
C1726 H1740 0.961 . S
C1727 C1724 1.539 . S
C1727 H1741 0.958 . S
C1727 H1742 0.961 . S
C1727 H1743 0.960 . S
H1728 C1712 0.931 . S
H1729 C1717 0.929 . S
H1730 C1718 0.960 . S
H1731 C1718 0.962 . S
H1732 C1718 0.960 . S
H1733 C1719 0.961 . S
H1734 C1719 0.961 . S
H1735 C1719 0.961 . S
H1736 C1720 0.931 . S
H1737 C1725 0.930 . S
H1738 C1726 0.956 . S
H1739 C1726 0.961 . S
H1740 C1726 0.961 . S
H1741 C1727 0.958 . S
H1742 C1727 0.961 . S
H1743 C1727 0.960 . S
C1744 C1745 1.391 . S
C1744 C1746 1.394 . S
C1744 H1760 0.931 . S
C1745 C1744 1.391 . S
C1745 C1749 1.376 . S
C1746 C1744 1.394 . S
C1746 C1747 1.369 . S
C1746 C1750 1.531 . S
C1747 C1746 1.369 . S
C1747 C1748 1.410 . S
C1747 C1755 1.503 . S
C1748 C1747 1.410 . S
C1748 C1749 1.392 . S
C1748 C1751 1.511 . S
C1749 C1745 1.376 . S
C1749 C1748 1.392 . S
C1749 H1761 0.929 . S
C1750 C1746 1.531 . S
C1750 H1762 0.960 . S
C1750 H1763 0.962 . S
C1750 H1764 0.960 . S
C1751 C1748 1.511 . S
C1751 H1765 0.961 1_545 S
C1751 H1766 0.961 . S
C1751 H1767 0.961 . S
C1752 C1753 1.370 . S
C1752 C1754 1.363 . S
C1752 H1768 0.931 . S
C1753 C1752 1.370 . S
C1753 C1757 1.408 . S
C1754 C1752 1.363 . S
C1754 C1755 1.370 . S
C1754 C1758 1.524 . S
C1755 C1747 1.503 . S
C1755 C1754 1.370 . S
C1755 C1756 1.403 . S
C1756 C1755 1.403 . S
C1756 C1757 1.404 . S
C1756 C1759 1.539 . S
C1757 C1753 1.408 . S
C1757 C1756 1.404 . S
C1757 H1769 0.930 . S
C1758 C1754 1.524 . S
C1758 H1770 0.956 . S
C1758 H1771 0.961 . S
C1758 H1772 0.975 . S
C1759 C1756 1.539 . S
C1759 H1773 0.958 . S
C1759 H1774 0.961 . S
C1759 H1775 0.960 . S
H1760 C1744 0.931 . S
H1761 C1749 0.929 . S
H1762 C1750 0.960 . S
H1763 C1750 0.962 . S
H1764 C1750 0.960 . S
H1765 C1751 0.961 1_565 S
H1766 C1751 0.961 . S
H1767 C1751 0.961 . S
H1768 C1752 0.931 . S
H1769 C1757 0.930 . S
H1770 C1758 0.956 . S
H1771 C1758 0.961 . S
H1772 C1758 0.975 . S
H1773 C1759 0.958 . S
H1774 C1759 0.961 . S
H1775 C1759 0.960 . S
C1776 C1777 1.391 . S
C1776 C1778 1.394 . S
C1776 H1792 0.931 . S
C1777 C1776 1.391 . S
C1777 C1781 1.376 . S
C1778 C1776 1.394 . S
C1778 C1779 1.369 . S
C1778 C1782 1.531 . S
C1779 C1778 1.369 . S
C1779 C1780 1.410 . S
C1779 C1787 1.503 . S
C1780 C1779 1.410 . S
C1780 C1781 1.392 . S
C1780 C1783 1.511 . S
C1781 C1777 1.376 . S
C1781 C1780 1.392 . S
C1781 H1793 0.929 . S
C1782 C1778 1.531 . S
C1782 H1794 0.960 . S
C1782 H1795 0.962 . S
C1782 H1796 0.960 . S
C1783 C1780 1.511 . S
C1783 H1797 0.961 . S
C1783 H1798 0.961 . S
C1783 H1799 0.961 . S
C1784 C1785 1.370 . S
C1784 C1786 1.363 . S
C1784 H1800 0.931 . S
C1785 C1784 1.370 . S
C1785 C1789 1.408 . S
C1786 C1784 1.363 . S
C1786 C1787 1.370 . S
C1786 C1790 1.524 . S
C1787 C1779 1.503 . S
C1787 C1786 1.370 . S
C1787 C1788 1.403 . S
C1788 C1787 1.403 . S
C1788 C1789 1.404 . S
C1788 C1791 1.539 . S
C1789 C1785 1.408 . S
C1789 C1788 1.404 . S
C1789 H1801 0.930 . S
C1790 C1786 1.524 . S
C1790 H1802 0.956 . S
C1790 H1803 0.961 . S
C1790 H1804 0.961 . S
C1791 C1788 1.539 . S
C1791 H1805 0.958 . S
C1791 H1806 0.961 . S
C1791 H1807 0.960 . S
H1792 C1776 0.931 . S
H1793 C1781 0.929 . S
H1794 C1782 0.960 . S
H1795 C1782 0.962 . S
H1796 C1782 0.960 . S
H1797 C1783 0.961 . S
H1798 C1783 0.961 . S
H1799 C1783 0.961 . S
H1800 C1784 0.931 . S
H1801 C1789 0.930 . S
H1802 C1790 0.956 . S
H1803 C1790 0.961 . S
H1804 C1790 0.961 . S
H1805 C1791 0.958 . S
H1806 C1791 0.961 . S
H1807 C1791 0.960 . S
C1808 C1809 1.391 1_545 S
C1808 C1810 1.394 . S
C1808 H1824 0.931 . S
C1809 C1808 1.391 1_565 S
C1809 C1813 1.376 . S
C1810 C1808 1.394 . S
C1810 C1811 1.369 . S
C1810 C1814 1.531 . S
C1811 C1810 1.369 . S
C1811 C1812 1.410 1_545 S
C1811 C1819 1.503 . S
C1812 C1811 1.410 1_565 S
C1812 C1813 1.392 . S
C1812 C1815 1.511 . S
C1813 C1809 1.376 . S
C1813 C1812 1.392 . S
C1813 H1825 0.929 . S
C1814 C1810 1.531 . S
C1814 H1826 0.960 . S
C1814 H1827 0.962 . S
C1814 H1828 0.960 . S
C1815 C1812 1.511 . S
C1815 H1829 0.961 . S
C1815 H1830 0.961 . S
C1815 H1831 0.961 1_565 S
C1816 C1817 1.370 1_565 S
C1816 C1818 1.363 . S
C1816 H1832 0.931 . S
C1817 C1816 1.370 1_545 S
C1817 C1821 1.408 . S
C1818 C1816 1.363 . S
C1818 C1819 1.370 1_565 S
C1818 C1822 1.524 . S
C1819 C1811 1.503 . S
C1819 C1818 1.370 1_545 S
C1819 C1820 1.403 . S
C1820 C1819 1.403 . S
C1820 C1821 1.404 . S
C1820 C1823 1.539 . S
C1821 C1817 1.408 . S
C1821 C1820 1.404 . S
C1821 H1833 0.930 . S
C1822 C1818 1.524 . S
C1822 H1834 0.956 . S
C1822 H1835 0.961 . S
C1822 H1836 0.961 . S
C1823 C1820 1.539 . S
C1823 H1837 0.958 . S
C1823 H1838 0.961 . S
C1823 H1839 0.960 . S
H1824 C1808 0.931 . S
H1825 C1813 0.929 . S
H1826 C1814 0.960 . S
H1827 C1814 0.962 . S
H1828 C1814 0.960 . S
H1829 C1815 0.961 . S
H1830 C1815 0.961 . S
H1831 C1815 0.961 1_545 S
H1832 C1816 0.931 . S
H1833 C1821 0.930 . S
H1834 C1822 0.956 . S
H1835 C1822 0.961 . S
H1836 C1822 0.961 . S
H1837 C1823 0.958 . S
H1838 C1823 0.961 . S
H1839 C1823 0.960 . S
C1840 C1841 1.391 . S
C1840 C1842 1.394 . S
C1840 H1856 0.931 . S
C1841 C1840 1.391 . S
C1841 C1845 1.376 . S
C1842 C1840 1.394 . S
C1842 C1843 1.369 . S
C1842 C1846 1.531 . S
C1843 C1842 1.369 . S
C1843 C1844 1.410 . S
C1843 C1851 1.503 . S
C1844 C1843 1.410 . S
C1844 C1845 1.392 . S
C1844 C1847 1.511 . S
C1845 C1841 1.376 . S
C1845 C1844 1.392 . S
C1845 H1857 0.929 . S
C1846 C1842 1.531 . S
C1846 H1858 0.960 . S
C1846 H1859 0.962 . S
C1846 H1860 0.960 . S
C1847 C1844 1.511 . S
C1847 H1861 0.961 . S
C1847 H1862 0.961 . S
C1847 H1863 0.961 . S
C1848 C1849 1.370 . S
C1848 C1850 1.363 . S
C1848 H1864 0.931 . S
C1849 C1848 1.370 . S
C1849 C1853 1.408 . S
C1850 C1848 1.363 . S
C1850 C1851 1.370 . S
C1850 C1854 1.524 . S
C1851 C1843 1.503 . S
C1851 C1850 1.370 . S
C1851 C1852 1.403 . S
C1852 C1851 1.403 . S
C1852 C1853 1.404 . S
C1852 C1855 1.539 . S
C1853 C1849 1.408 . S
C1853 C1852 1.404 . S
C1853 H1865 0.930 . S
C1854 C1850 1.524 . S
C1854 H1866 0.956 . S
C1854 H1867 0.961 . S
C1854 H1868 0.961 . S
C1855 C1852 1.539 . S
C1855 H1869 0.958 . S
C1855 H1870 0.961 . S
C1855 H1871 0.960 . S
H1856 C1840 0.931 . S
H1857 C1845 0.929 . S
H1858 C1846 0.960 . S
H1859 C1846 0.962 . S
H1860 C1846 0.960 . S
H1861 C1847 0.961 . S
H1862 C1847 0.961 . S
H1863 C1847 0.961 . S
H1864 C1848 0.931 . S
H1865 C1853 0.930 . S
H1866 C1854 0.956 . S
H1867 C1854 0.961 . S
H1868 C1854 0.961 . S
H1869 C1855 0.958 . S
H1870 C1855 0.961 . S
H1871 C1855 0.960 . S
C1872 C1873 1.391 . S
C1872 C1874 1.394 . S
C1872 H1888 0.931 . S
C1873 C1872 1.391 . S
C1873 C1877 1.376 . S
C1874 C1872 1.394 . S
C1874 C1875 1.369 . S
C1874 C1878 1.531 . S
C1875 C1874 1.369 . S
C1875 C1876 1.410 . S
C1875 C1883 1.503 . S
C1876 C1875 1.410 . S
C1876 C1877 1.392 . S
C1876 C1879 1.511 . S
C1877 C1873 1.376 . S
C1877 C1876 1.392 . S
C1877 H1889 0.929 . S
C1878 C1874 1.531 . S
C1878 H1890 0.960 . S
C1878 H1891 0.962 . S
C1878 H1892 0.960 . S
C1879 C1876 1.511 . S
C1879 H1893 0.961 . S
C1879 H1894 0.961 . S
C1879 H1895 0.961 . S
C1880 C1881 1.370 . S
C1880 C1882 1.363 . S
C1880 H1896 0.931 1_545 S
C1881 C1880 1.370 . S
C1881 C1885 1.408 . S
C1882 C1880 1.363 . S
C1882 C1883 1.370 . S
C1882 C1886 1.524 1_545 S
C1883 C1875 1.503 . S
C1883 C1882 1.370 . S
C1883 C1884 1.403 . S
C1884 C1883 1.403 . S
C1884 C1885 1.404 . S
C1884 C1887 1.539 . S
C1885 C1881 1.408 . S
C1885 C1884 1.404 . S
C1885 H1897 0.930 . S
C1886 C1882 1.524 1_565 S
C1886 H1898 0.956 1_565 S
C1886 H1899 0.961 . S
C1886 H1900 0.961 . S
C1887 C1884 1.539 . S
C1887 H1901 0.958 . S
C1887 H1902 0.961 . S
C1887 H1903 0.960 . S
H1888 C1872 0.931 . S
H1889 C1877 0.929 . S
H1890 C1878 0.960 . S
H1891 C1878 0.962 . S
H1892 C1878 0.960 . S
H1893 C1879 0.961 . S
H1894 C1879 0.961 . S
H1895 C1879 0.961 . S
H1896 C1880 0.931 1_565 S
H1897 C1885 0.930 . S
H1898 C1886 0.956 1_545 S
H1899 C1886 0.961 . S
H1900 C1886 0.961 . S
H1901 C1887 0.958 . S
H1902 C1887 0.961 . S
H1903 C1887 0.960 . S
C1904 C1905 1.391 . S
C1904 C1906 1.394 . S
C1904 H1920 0.931 . S
C1905 C1904 1.391 . S
C1905 C1909 1.376 . S
C1906 C1904 1.394 . S
C1906 C1907 1.369 . S
C1906 C1910 1.531 . S
C1907 C1906 1.369 . S
C1907 C1908 1.410 . S
C1907 C1915 1.503 . S
C1908 C1907 1.410 . S
C1908 C1909 1.392 . S
C1908 C1911 1.511 . S
C1909 C1905 1.376 . S
C1909 C1908 1.392 . S
C1909 H1921 0.929 . S
C1910 C1906 1.531 . S
C1910 H1922 0.960 . S
C1910 H1923 0.962 . S
C1910 H1924 0.960 . S
C1911 C1908 1.511 . S
C1911 H1925 0.961 . S
C1911 H1926 0.961 . S
C1911 H1927 0.961 . S
C1912 C1913 1.370 . S
C1912 C1914 1.363 . S
C1912 H1928 0.931 . S
C1913 C1912 1.370 . S
C1913 C1917 1.408 . S
C1914 C1912 1.363 . S
C1914 C1915 1.370 . S
C1914 C1918 1.524 . S
C1915 C1907 1.503 . S
C1915 C1914 1.370 . S
C1915 C1916 1.403 . S
C1916 C1915 1.403 . S
C1916 C1917 1.404 . S
C1916 C1919 1.539 . S
C1917 C1913 1.408 . S
C1917 C1916 1.404 . S
C1917 H1929 0.930 . S
C1918 C1914 1.524 . S
C1918 H1930 0.956 . S
C1918 H1931 0.961 . S
C1918 H1932 0.961 . S
C1919 C1916 1.539 . S
C1919 H1933 0.958 . S
C1919 H1934 0.961 . S
C1919 H1935 0.960 . S
H1920 C1904 0.931 . S
H1921 C1909 0.929 . S
H1922 C1910 0.960 . S
H1923 C1910 0.962 . S
H1924 C1910 0.960 . S
H1925 C1911 0.961 . S
H1926 C1911 0.961 . S
H1927 C1911 0.961 . S
H1928 C1912 0.931 . S
H1929 C1917 0.930 . S
H1930 C1918 0.956 . S
H1931 C1918 0.961 . S
H1932 C1918 0.961 . S
H1933 C1919 0.958 . S
H1934 C1919 0.961 . S
H1935 C1919 0.960 . S
C1936 C1937 1.391 1_556 S
C1936 C1938 1.394 . S
C1936 H1952 0.931 . S
C1937 C1936 1.391 1_554 S
C1937 C1941 1.376 . S
C1938 C1936 1.394 . S
C1938 C1939 1.369 1_556 S
C1938 C1942 1.531 . S
C1939 C1938 1.369 1_554 S
C1939 C1940 1.410 . S
C1939 C1947 1.503 . S
C1940 C1939 1.410 . S
C1940 C1941 1.392 . S
C1940 C1943 1.511 . S
C1941 C1937 1.376 . S
C1941 C1940 1.392 . S
C1941 H1953 0.929 . S
C1942 C1938 1.531 . S
C1942 H1954 0.960 . S
C1942 H1955 0.962 . S
C1942 H1956 0.960 . S
C1943 C1940 1.511 . S
C1943 H1957 0.961 . S
C1943 H1958 0.961 . S
C1943 H1959 0.961 . S
C1944 C1945 1.369 . S
C1944 C1946 1.365 . S
C1944 H1960 0.931 1_554 S
C1945 C1944 1.369 . S
C1945 C1949 1.408 . S
C1946 C1944 1.365 . S
C1946 C1947 1.370 . S
C1946 C1950 1.526 1_554 S
C1947 C1939 1.503 . S
C1947 C1946 1.370 . S
C1947 C1948 1.403 . S
C1948 C1947 1.403 . S
C1948 C1949 1.404 . S
C1948 C1951 1.539 . S
C1949 C1945 1.408 . S
C1949 C1948 1.404 . S
C1949 H1961 0.930 . S
C1950 C1946 1.526 1_556 S
C1950 H1962 0.971 . S
C1950 H1963 0.947 1_556 S
C1950 H1964 0.958 1_556 S
C1951 C1948 1.539 . S
C1951 H1965 0.958 1_554 S
C1951 H1966 0.961 . S
C1951 H1967 0.960 . S
H1952 C1936 0.931 . S
H1953 C1941 0.929 . S
H1954 C1942 0.960 . S
H1955 C1942 0.962 . S
H1956 C1942 0.960 . S
H1957 C1943 0.961 . S
H1958 C1943 0.961 . S
H1959 C1943 0.961 . S
H1960 C1944 0.931 1_556 S
H1961 C1949 0.930 . S
H1962 C1950 0.971 . S
H1963 C1950 0.947 1_554 S
H1964 C1950 0.958 1_554 S
H1965 C1951 0.958 1_556 S
H1966 C1951 0.961 . S
H1967 C1951 0.960 . S
C1968 C1969 1.391 . S
C1968 C1970 1.394 . S
C1968 H1984 0.931 . S
C1969 C1968 1.391 . S
C1969 C1973 1.376 . S
C1970 C1968 1.394 . S
C1970 C1971 1.369 . S
C1970 C1974 1.531 . S
C1971 C1970 1.369 . S
C1971 C1972 1.410 . S
C1971 C1979 1.503 . S
C1972 C1971 1.410 . S
C1972 C1973 1.392 . S
C1972 C1975 1.511 . S
C1973 C1969 1.376 . S
C1973 C1972 1.392 . S
C1973 H1985 0.929 . S
C1974 C1970 1.531 . S
C1974 H1986 0.960 . S
C1974 H1987 0.962 . S
C1974 H1988 0.960 . S
C1975 C1972 1.511 . S
C1975 H1989 0.961 . S
C1975 H1990 0.961 . S
C1975 H1991 0.961 1_554 S
C1976 C1977 1.370 . S
C1976 C1978 1.363 . S
C1976 H1992 0.931 . S
C1977 C1976 1.370 . S
C1977 C1981 1.408 . S
C1978 C1976 1.363 . S
C1978 C1979 1.370 . S
C1978 C1982 1.524 . S
C1979 C1971 1.503 . S
C1979 C1978 1.370 . S
C1979 C1980 1.438 . S
C1980 C1979 1.438 . S
C1980 C1981 1.400 . S
C1980 C1983 1.508 1_554 S
C1981 C1977 1.408 . S
C1981 C1980 1.400 . S
C1981 H1993 0.930 1_554 S
C1982 C1978 1.524 . S
C1982 H1994 0.956 . S
C1982 H1995 0.961 . S
C1982 H1996 0.961 . S
C1983 C1980 1.508 1_556 S
C1983 H1997 0.958 . S
C1983 H1998 0.961 . S
C1983 H1999 0.960 . S
H1984 C1968 0.931 . S
H1985 C1973 0.929 . S
H1986 C1974 0.960 . S
H1987 C1974 0.962 . S
H1988 C1974 0.960 . S
H1989 C1975 0.961 . S
H1990 C1975 0.961 . S
H1991 C1975 0.961 1_556 S
H1992 C1976 0.931 . S
H1993 C1981 0.930 1_556 S
H1994 C1982 0.956 . S
H1995 C1982 0.961 . S
H1996 C1982 0.961 . S
H1997 C1983 0.958 . S
H1998 C1983 0.961 . S
H1999 C1983 0.960 . S
C2000 C2001 1.391 . S
C2000 C2002 1.394 . S
C2000 H2016 0.931 . S
C2001 C2000 1.391 . S
C2001 C2005 1.376 . S
C2002 C2000 1.394 . S
C2002 C2003 1.369 . S
C2002 C2006 1.531 . S
C2003 C2002 1.369 . S
C2003 C2004 1.410 . S
C2003 C2011 1.503 . S
C2004 C2003 1.410 . S
C2004 C2005 1.392 . S
C2004 C2007 1.511 . S
C2005 C2001 1.376 . S
C2005 C2004 1.392 . S
C2005 H2017 0.929 . S
C2006 C2002 1.531 . S
C2006 H2018 0.960 . S
C2006 H2019 0.962 . S
C2006 H2020 0.960 . S
C2007 C2004 1.511 . S
C2007 H2021 0.961 . S
C2007 H2022 0.961 . S
C2007 H2023 0.961 . S
C2008 C2009 1.370 . S
C2008 C2010 1.363 . S
C2008 H2024 0.931 . S
C2009 C2008 1.370 . S
C2009 C2013 1.408 . S
C2010 C2008 1.363 . S
C2010 C2011 1.370 . S
C2010 C2014 1.524 . S
C2011 C2003 1.503 . S
C2011 C2010 1.370 . S
C2011 C2012 1.403 . S
C2012 C2011 1.403 . S
C2012 C2013 1.404 . S
C2012 C2015 1.539 . S
C2013 C2009 1.408 . S
C2013 C2012 1.404 . S
C2013 H2025 0.930 . S
C2014 C2010 1.524 . S
C2014 H2026 0.956 . S
C2014 H2027 0.961 . S
C2014 H2028 0.961 . S
C2015 C2012 1.539 . S
C2015 H2029 0.958 . S
C2015 H2030 0.961 . S
C2015 H2031 0.960 . S
H2016 C2000 0.931 . S
H2017 C2005 0.929 . S
H2018 C2006 0.960 . S
H2019 C2006 0.962 . S
H2020 C2006 0.960 . S
H2021 C2007 0.961 . S
H2022 C2007 0.961 . S
H2023 C2007 0.961 . S
H2024 C2008 0.931 . S
H2025 C2013 0.930 . S
H2026 C2014 0.956 . S
H2027 C2014 0.961 . S
H2028 C2014 0.961 . S
H2029 C2015 0.958 . S
H2030 C2015 0.961 . S
H2031 C2015 0.960 . S
C2032 C2033 1.391 . S
C2032 C2034 1.394 . S
C2032 H2048 0.931 . S
C2033 C2032 1.391 . S
C2033 C2037 1.376 . S
C2034 C2032 1.394 . S
C2034 C2035 1.369 . S
C2034 C2038 1.531 . S
C2035 C2034 1.369 . S
C2035 C2036 1.410 . S
C2035 C2043 1.503 . S
C2036 C2035 1.410 . S
C2036 C2037 1.392 . S
C2036 C2039 1.511 . S
C2037 C2033 1.376 . S
C2037 C2036 1.392 . S
C2037 H2049 0.929 . S
C2038 C2034 1.531 . S
C2038 H2050 0.960 . S
C2038 H2051 0.962 . S
C2038 H2052 0.960 . S
C2039 C2036 1.511 . S
C2039 H2053 0.961 . S
C2039 H2054 0.961 . S
C2039 H2055 0.961 . S
C2040 C2041 1.370 . S
C2040 C2042 1.363 . S
C2040 H2056 0.931 . S
C2041 C2040 1.370 . S
C2041 C2045 1.408 . S
C2042 C2040 1.363 . S
C2042 C2043 1.370 . S
C2042 C2046 1.524 . S
C2043 C2035 1.503 . S
C2043 C2042 1.370 . S
C2043 C2044 1.403 . S
C2044 C2043 1.403 . S
C2044 C2045 1.404 . S
C2044 C2047 1.539 . S
C2045 C2041 1.408 . S
C2045 C2044 1.404 . S
C2045 H2057 0.930 . S
C2046 C2042 1.524 . S
C2046 H2058 0.956 . S
C2046 H2059 0.961 . S
C2046 H2060 0.961 . S
C2047 C2044 1.539 . S
C2047 H2061 0.958 . S
C2047 H2062 0.961 . S
C2047 H2063 0.960 . S
H2048 C2032 0.931 . S
H2049 C2037 0.929 . S
H2050 C2038 0.960 . S
H2051 C2038 0.962 . S
H2052 C2038 0.960 . S
H2053 C2039 0.961 . S
H2054 C2039 0.961 . S
H2055 C2039 0.961 . S
H2056 C2040 0.931 . S
H2057 C2045 0.930 . S
H2058 C2046 0.956 . S
H2059 C2046 0.961 . S
H2060 C2046 0.961 . S
H2061 C2047 0.958 . S
H2062 C2047 0.961 . S
H2063 C2047 0.960 . S
C2064 C2065 1.391 . S
C2064 C2066 1.394 . S
C2064 H2080 0.931 . S
C2065 C2064 1.391 . S
C2065 C2069 1.376 . S
C2066 C2064 1.394 . S
C2066 C2067 1.369 . S
C2066 C2070 1.531 . S
C2067 C2066 1.369 . S
C2067 C2068 1.410 . S
C2067 C2075 1.503 . S
C2068 C2067 1.410 . S
C2068 C2069 1.392 . S
C2068 C2071 1.511 . S
C2069 C2065 1.376 . S
C2069 C2068 1.392 . S
C2069 H2081 0.929 . S
C2070 C2066 1.531 . S
C2070 H2082 0.960 . S
C2070 H2083 0.962 . S
C2070 H2084 0.960 . S
C2071 C2068 1.511 . S
C2071 H2085 0.961 . S
C2071 H2086 0.961 . S
C2071 H2087 0.961 . S
C2072 C2073 1.370 . S
C2072 C2074 1.363 . S
C2072 H2088 0.931 . S
C2073 C2072 1.370 . S
C2073 C2077 1.408 . S
C2074 C2072 1.363 . S
C2074 C2075 1.370 . S
C2074 C2078 1.524 . S
C2075 C2067 1.503 . S
C2075 C2074 1.370 . S
C2075 C2076 1.403 . S
C2076 C2075 1.403 . S
C2076 C2077 1.404 . S
C2076 C2079 1.539 . S
C2077 C2073 1.408 . S
C2077 C2076 1.404 . S
C2077 H2089 0.930 . S
C2078 C2074 1.524 . S
C2078 H2090 0.956 . S
C2078 H2091 0.961 . S
C2078 H2092 0.961 . S
C2079 C2076 1.539 . S
C2079 H2093 0.958 . S
C2079 H2094 0.961 . S
C2079 H2095 0.960 . S
H2080 C2064 0.931 . S
H2081 C2069 0.929 . S
H2082 C2070 0.960 . S
H2083 C2070 0.962 . S
H2084 C2070 0.960 . S
H2085 C2071 0.961 . S
H2086 C2071 0.961 . S
H2087 C2071 0.961 . S
H2088 C2072 0.931 . S
H2089 C2077 0.930 . S
H2090 C2078 0.956 . S
H2091 C2078 0.961 . S
H2092 C2078 0.961 . S
H2093 C2079 0.958 . S
H2094 C2079 0.961 . S
H2095 C2079 0.960 . S
C2096 C2097 1.391 . S
C2096 C2098 1.394 . S
C2096 H2112 0.931 . S
C2097 C2096 1.391 . S
C2097 C2101 1.376 . S
C2098 C2096 1.394 . S
C2098 C2099 1.369 . S
C2098 C2102 1.531 . S
C2099 C2098 1.369 . S
C2099 C2100 1.410 . S
C2099 C2107 1.503 . S
C2100 C2099 1.410 . S
C2100 C2101 1.392 . S
C2100 C2103 1.511 . S
C2101 C2097 1.376 . S
C2101 C2100 1.392 . S
C2101 H2113 0.929 . S
C2102 C2098 1.531 . S
C2102 H2114 0.960 . S
C2102 H2115 0.962 . S
C2102 H2116 0.960 . S
C2103 C2100 1.511 . S
C2103 H2117 0.961 . S
C2103 H2118 0.961 . S
C2103 H2119 0.961 . S
C2104 C2105 1.370 . S
C2104 C2106 1.363 . S
C2104 H2120 0.931 . S
C2105 C2104 1.370 . S
C2105 C2109 1.408 . S
C2106 C2104 1.363 . S
C2106 C2107 1.370 . S
C2106 C2110 1.524 . S
C2107 C2099 1.503 . S
C2107 C2106 1.370 . S
C2107 C2108 1.403 . S
C2108 C2107 1.403 . S
C2108 C2109 1.404 . S
C2108 C2111 1.539 . S
C2109 C2105 1.408 . S
C2109 C2108 1.404 . S
C2109 H2121 0.930 . S
C2110 C2106 1.524 . S
C2110 H2122 0.956 . S
C2110 H2123 0.961 . S
C2110 H2124 0.961 . S
C2111 C2108 1.539 . S
C2111 H2125 0.958 . S
C2111 H2126 0.961 . S
C2111 H2127 0.960 . S
H2112 C2096 0.931 . S
H2113 C2101 0.929 . S
H2114 C2102 0.960 . S
H2115 C2102 0.962 . S
H2116 C2102 0.960 . S
H2117 C2103 0.961 . S
H2118 C2103 0.961 . S
H2119 C2103 0.961 . S
H2120 C2104 0.931 . S
H2121 C2109 0.930 . S
H2122 C2110 0.956 . S
H2123 C2110 0.961 . S
H2124 C2110 0.961 . S
H2125 C2111 0.958 . S
H2126 C2111 0.961 . S
H2127 C2111 0.960 . S
C2128 C2129 1.391 . S
C2128 C2130 1.394 . S
C2128 H2144 0.931 . S
C2129 C2128 1.391 . S
C2129 C2133 1.376 . S
C2130 C2128 1.394 . S
C2130 C2131 1.369 . S
C2130 C2134 1.531 . S
C2131 C2130 1.369 . S
C2131 C2132 1.410 . S
C2131 C2139 1.503 . S
C2132 C2131 1.410 . S
C2132 C2133 1.392 . S
C2132 C2135 1.511 . S
C2133 C2129 1.376 . S
C2133 C2132 1.392 . S
C2133 H2145 0.929 . S
C2134 C2130 1.531 . S
C2134 H2146 0.960 . S
C2134 H2147 0.962 . S
C2134 H2148 0.960 . S
C2135 C2132 1.511 . S
C2135 H2149 0.961 . S
C2135 H2150 0.961 . S
C2135 H2151 0.961 . S
C2136 C2137 1.370 . S
C2136 C2138 1.363 . S
C2136 H2152 0.931 . S
C2137 C2136 1.370 . S
C2137 C2141 1.408 . S
C2138 C2136 1.363 . S
C2138 C2139 1.370 . S
C2138 C2142 1.524 . S
C2139 C2131 1.503 . S
C2139 C2138 1.370 . S
C2139 C2140 1.403 . S
C2140 C2139 1.403 . S
C2140 C2141 1.404 . S
C2140 C2143 1.539 . S
C2141 C2137 1.408 . S
C2141 C2140 1.404 . S
C2141 H2153 0.930 . S
C2142 C2138 1.524 . S
C2142 H2154 0.956 . S
C2142 H2155 0.961 . S
C2142 H2156 0.961 . S
C2143 C2140 1.539 . S
C2143 H2157 0.958 . S
C2143 H2158 0.961 . S
C2143 H2159 0.960 . S
H2144 C2128 0.931 . S
H2145 C2133 0.929 . S
H2146 C2134 0.960 . S
H2147 C2134 0.962 . S
H2148 C2134 0.960 . S
H2149 C2135 0.961 . S
H2150 C2135 0.961 . S
H2151 C2135 0.961 . S
H2152 C2136 0.931 . S
H2153 C2141 0.930 . S
H2154 C2142 0.956 . S
H2155 C2142 0.961 . S
H2156 C2142 0.961 . S
H2157 C2143 0.958 . S
H2158 C2143 0.961 . S
H2159 C2143 0.960 . S
C2160 C2161 1.391 . S
C2160 C2162 1.394 . S
C2160 H2176 0.931 . S
C2161 C2160 1.391 . S
C2161 C2165 1.376 . S
C2162 C2160 1.394 . S
C2162 C2163 1.369 . S
C2162 C2166 1.531 . S
C2163 C2162 1.369 . S
C2163 C2164 1.410 . S
C2163 C2171 1.503 . S
C2164 C2163 1.410 . S
C2164 C2165 1.392 . S
C2164 C2167 1.511 . S
C2165 C2161 1.376 . S
C2165 C2164 1.392 . S
C2165 H2177 0.929 . S
C2166 C2162 1.531 . S
C2166 H2178 0.960 . S
C2166 H2179 0.962 . S
C2166 H2180 0.960 . S
C2167 C2164 1.511 . S
C2167 H2181 0.961 . S
C2167 H2182 0.961 . S
C2167 H2183 0.961 . S
C2168 C2169 1.370 . S
C2168 C2170 1.363 . S
C2168 H2184 0.931 . S
C2169 C2168 1.370 . S
C2169 C2173 1.408 . S
C2170 C2168 1.363 . S
C2170 C2171 1.370 . S
C2170 C2174 1.524 . S
C2171 C2163 1.503 . S
C2171 C2170 1.370 . S
C2171 C2172 1.403 . S
C2172 C2171 1.403 . S
C2172 C2173 1.404 . S
C2172 C2175 1.539 . S
C2173 C2169 1.408 . S
C2173 C2172 1.404 . S
C2173 H2185 0.930 . S
C2174 C2170 1.524 . S
C2174 H2186 0.956 . S
C2174 H2187 0.961 . S
C2174 H2188 0.961 . S
C2175 C2172 1.539 . S
C2175 H2189 0.958 . S
C2175 H2190 0.961 . S
C2175 H2191 0.960 . S
H2176 C2160 0.931 . S
H2177 C2165 0.929 . S
H2178 C2166 0.960 . S
H2179 C2166 0.962 . S
H2180 C2166 0.960 . S
H2181 C2167 0.961 . S
H2182 C2167 0.961 . S
H2183 C2167 0.961 . S
H2184 C2168 0.931 . S
H2185 C2173 0.930 . S
H2186 C2174 0.956 . S
H2187 C2174 0.961 . S
H2188 C2174 0.961 . S
H2189 C2175 0.958 . S
H2190 C2175 0.961 . S
H2191 C2175 0.960 . S
C2192 C2193 1.391 . S
C2192 C2194 1.394 . S
C2192 H2208 0.931 . S
C2193 C2192 1.391 . S
C2193 C2197 1.376 . S
C2194 C2192 1.394 . S
C2194 C2195 1.369 . S
C2194 C2198 1.531 . S
C2195 C2194 1.369 . S
C2195 C2196 1.410 . S
C2195 C2203 1.503 . S
C2196 C2195 1.410 . S
C2196 C2197 1.392 . S
C2196 C2199 1.511 . S
C2197 C2193 1.376 . S
C2197 C2196 1.392 . S
C2197 H2209 0.929 . S
C2198 C2194 1.531 . S
C2198 H2210 0.960 . S
C2198 H2211 0.962 . S
C2198 H2212 0.960 . S
C2199 C2196 1.511 . S
C2199 H2213 0.961 . S
C2199 H2214 0.961 . S
C2199 H2215 0.961 . S
C2200 C2201 1.370 . S
C2200 C2202 1.363 . S
C2200 H2216 0.931 . S
C2201 C2200 1.370 . S
C2201 C2205 1.408 . S
C2202 C2200 1.363 . S
C2202 C2203 1.370 . S
C2202 C2206 1.524 . S
C2203 C2195 1.503 . S
C2203 C2202 1.370 . S
C2203 C2204 1.403 . S
C2204 C2203 1.403 . S
C2204 C2205 1.404 . S
C2204 C2207 1.539 . S
C2205 C2201 1.408 . S
C2205 C2204 1.404 . S
C2205 H2217 0.930 . S
C2206 C2202 1.524 . S
C2206 H2218 0.956 . S
C2206 H2219 0.961 . S
C2206 H2220 0.961 . S
C2207 C2204 1.539 . S
C2207 H2221 0.958 . S
C2207 H2222 0.961 . S
C2207 H2223 0.960 . S
H2208 C2192 0.931 . S
H2209 C2197 0.929 . S
H2210 C2198 0.960 . S
H2211 C2198 0.962 . S
H2212 C2198 0.960 . S
H2213 C2199 0.961 . S
H2214 C2199 0.961 . S
H2215 C2199 0.961 . S
H2216 C2200 0.931 . S
H2217 C2205 0.930 . S
H2218 C2206 0.956 . S
H2219 C2206 0.961 . S
H2220 C2206 0.961 . S
H2221 C2207 0.958 . S
H2222 C2207 0.961 . S
H2223 C2207 0.960 . S
C2224 C2225 1.391 . S
C2224 C2226 1.394 . S
C2224 H2240 0.931 . S
C2225 C2224 1.391 . S
C2225 C2229 1.376 . S
C2226 C2224 1.394 . S
C2226 C2227 1.369 . S
C2226 C2230 1.531 . S
C2227 C2226 1.369 . S
C2227 C2228 1.410 . S
C2227 C2235 1.503 . S
C2228 C2227 1.410 . S
C2228 C2229 1.392 . S
C2228 C2231 1.511 . S
C2229 C2225 1.376 . S
C2229 C2228 1.392 . S
C2229 H2241 0.929 . S
C2230 C2226 1.531 . S
C2230 H2242 0.960 . S
C2230 H2243 0.962 . S
C2230 H2244 0.960 . S
C2231 C2228 1.511 . S
C2231 H2245 0.961 . S
C2231 H2246 0.961 . S
C2231 H2247 0.961 . S
C2232 C2233 1.370 . S
C2232 C2234 1.363 . S
C2232 H2248 0.931 . S
C2233 C2232 1.370 . S
C2233 C2237 1.408 . S
C2234 C2232 1.363 . S
C2234 C2235 1.370 . S
C2234 C2238 1.524 . S
C2235 C2227 1.503 . S
C2235 C2234 1.370 . S
C2235 C2236 1.403 . S
C2236 C2235 1.403 . S
C2236 C2237 1.404 . S
C2236 C2239 1.539 . S
C2237 C2233 1.408 . S
C2237 C2236 1.404 . S
C2237 H2249 0.930 . S
C2238 C2234 1.524 . S
C2238 H2250 0.956 . S
C2238 H2251 0.961 . S
C2238 H2252 0.961 . S
C2239 C2236 1.539 . S
C2239 H2253 0.958 . S
C2239 H2254 0.961 . S
C2239 H2255 0.960 . S
H2240 C2224 0.931 . S
H2241 C2229 0.929 . S
H2242 C2230 0.960 . S
H2243 C2230 0.962 . S
H2244 C2230 0.960 . S
H2245 C2231 0.961 . S
H2246 C2231 0.961 . S
H2247 C2231 0.961 . S
H2248 C2232 0.931 . S
H2249 C2237 0.930 . S
H2250 C2238 0.956 . S
H2251 C2238 0.961 . S
H2252 C2238 0.961 . S
H2253 C2239 0.958 . S
H2254 C2239 0.961 . S
H2255 C2239 0.960 . S
C2256 C2257 1.391 . S
C2256 C2258 1.394 . S
C2256 H2272 0.931 . S
C2257 C2256 1.391 . S
C2257 C2261 1.376 1_455 S
C2258 C2256 1.394 . S
C2258 C2259 1.369 . S
C2258 C2262 1.531 . S
C2259 C2258 1.369 . S
C2259 C2260 1.410 1_455 S
C2259 C2267 1.503 . S
C2260 C2259 1.410 1_655 S
C2260 C2261 1.392 . S
C2260 C2263 1.511 . S
C2261 C2257 1.376 1_655 S
C2261 C2260 1.392 . S
C2261 H2273 0.929 . S
C2262 C2258 1.531 . S
C2262 H2274 0.960 . S
C2262 H2275 0.962 . S
C2262 H2276 0.960 . S
C2263 C2260 1.511 . S
C2263 H2277 0.961 . S
C2263 H2278 0.961 . S
C2263 H2279 0.961 . S
C2264 C2265 1.370 . S
C2264 C2266 1.363 . S
C2264 H2280 0.931 1_556 S
C2265 C2264 1.370 . S
C2265 C2269 1.408 1_455 S
C2266 C2264 1.363 . S
C2266 C2267 1.370 . S
C2266 C2270 1.524 . S
C2267 C2259 1.503 . S
C2267 C2266 1.370 . S
C2267 C2268 1.403 1_455 S
C2268 C2267 1.403 1_655 S
C2268 C2269 1.404 . S
C2268 C2271 1.539 . S
C2269 C2265 1.408 1_655 S
C2269 C2268 1.404 . S
C2269 H2281 0.930 . S
C2270 C2266 1.524 . S
C2270 H2282 0.956 . S
C2270 H2283 0.961 . S
C2270 H2284 0.961 1_556 S
C2271 C2268 1.539 . S
C2271 H2285 0.958 1_655 S
C2271 H2286 0.961 . S
C2271 H2287 0.960 . S
H2272 C2256 0.931 . S
H2273 C2261 0.929 . S
H2274 C2262 0.960 . S
H2275 C2262 0.962 . S
H2276 C2262 0.960 . S
H2277 C2263 0.961 . S
H2278 C2263 0.961 . S
H2279 C2263 0.961 . S
H2280 C2264 0.931 1_554 S
H2281 C2269 0.930 . S
H2282 C2270 0.956 . S
H2283 C2270 0.961 . S
H2284 C2270 0.961 1_554 S
H2285 C2271 0.958 1_455 S
H2286 C2271 0.961 . S
H2287 C2271 0.960 . S
C2288 C2289 1.391 . S
C2288 C2290 1.394 . S
C2288 H2304 0.931 . S
C2289 C2288 1.391 . S
C2289 C2293 1.376 . S
C2290 C2288 1.394 . S
C2290 C2291 1.369 . S
C2290 C2294 1.531 . S
C2291 C2290 1.369 . S
C2291 C2292 1.410 . S
C2291 C2299 1.503 . S
C2292 C2291 1.410 . S
C2292 C2293 1.392 . S
C2292 C2295 1.511 . S
C2293 C2289 1.376 . S
C2293 C2292 1.392 . S
C2293 H2305 0.929 . S
C2294 C2290 1.531 . S
C2294 H2306 0.960 . S
C2294 H2307 0.962 . S
C2294 H2308 0.960 . S
C2295 C2292 1.511 . S
C2295 H2309 0.961 . S
C2295 H2310 0.961 . S
C2295 H2311 0.961 . S
C2296 C2297 1.370 . S
C2296 C2298 1.363 . S
C2296 H2312 0.931 . S
C2297 C2296 1.370 . S
C2297 C2301 1.408 . S
C2298 C2296 1.363 . S
C2298 C2299 1.370 . S
C2298 C2302 1.524 . S
C2299 C2291 1.503 . S
C2299 C2298 1.370 . S
C2299 C2300 1.403 . S
C2300 C2299 1.403 . S
C2300 C2301 1.404 . S
C2300 C2303 1.539 . S
C2301 C2297 1.408 . S
C2301 C2300 1.404 . S
C2301 H2313 0.930 . S
C2302 C2298 1.524 . S
C2302 H2314 0.956 . S
C2302 H2315 0.961 . S
C2302 H2316 0.961 . S
C2303 C2300 1.539 . S
C2303 H2317 0.958 . S
C2303 H2318 0.961 . S
C2303 H2319 0.960 . S
H2304 C2288 0.931 . S
H2305 C2293 0.929 . S
H2306 C2294 0.960 . S
H2307 C2294 0.962 . S
H2308 C2294 0.960 . S
H2309 C2295 0.961 . S
H2310 C2295 0.961 . S
H2311 C2295 0.961 . S
H2312 C2296 0.931 . S
H2313 C2301 0.930 . S
H2314 C2302 0.956 . S
H2315 C2302 0.961 . S
H2316 C2302 0.961 . S
H2317 C2303 0.958 . S
H2318 C2303 0.961 . S
H2319 C2303 0.960 . S
C2320 C2321 1.391 . S
C2320 C2322 1.394 . S
C2320 H2336 0.931 . S
C2321 C2320 1.391 . S
C2321 C2325 1.376 . S
C2322 C2320 1.394 . S
C2322 C2323 1.369 . S
C2322 C2326 1.531 . S
C2323 C2322 1.369 . S
C2323 C2324 1.410 . S
C2323 C2331 1.503 . S
C2324 C2323 1.410 . S
C2324 C2325 1.392 . S
C2324 C2327 1.511 . S
C2325 C2321 1.376 . S
C2325 C2324 1.392 . S
C2325 H2337 0.929 . S
C2326 C2322 1.531 . S
C2326 H2338 0.960 . S
C2326 H2339 0.962 . S
C2326 H2340 0.960 . S
C2327 C2324 1.511 . S
C2327 H2341 0.961 . S
C2327 H2342 0.961 . S
C2327 H2343 0.961 . S
C2328 C2329 1.370 . S
C2328 C2330 1.363 . S
C2328 H2344 0.931 . S
C2329 C2328 1.370 . S
C2329 C2333 1.408 . S
C2330 C2328 1.363 . S
C2330 C2331 1.370 . S
C2330 C2334 1.524 . S
C2331 C2323 1.503 . S
C2331 C2330 1.370 . S
C2331 C2332 1.403 . S
C2332 C2331 1.403 . S
C2332 C2333 1.404 . S
C2332 C2335 1.539 . S
C2333 C2329 1.408 . S
C2333 C2332 1.404 . S
C2333 H2345 0.930 . S
C2334 C2330 1.524 . S
C2334 H2346 0.956 . S
C2334 H2347 0.961 . S
C2334 H2348 0.961 . S
C2335 C2332 1.539 . S
C2335 H2349 0.958 . S
C2335 H2350 0.961 . S
C2335 H2351 0.960 . S
H2336 C2320 0.931 . S
H2337 C2325 0.929 . S
H2338 C2326 0.960 . S
H2339 C2326 0.962 . S
H2340 C2326 0.960 . S
H2341 C2327 0.961 . S
H2342 C2327 0.961 . S
H2343 C2327 0.961 . S
H2344 C2328 0.931 . S
H2345 C2333 0.930 . S
H2346 C2334 0.956 . S
H2347 C2334 0.961 . S
H2348 C2334 0.961 . S
H2349 C2335 0.958 . S
H2350 C2335 0.961 . S
H2351 C2335 0.960 . S
C2352 C2353 1.391 . S
C2352 C2354 1.394 . S
C2352 H2368 0.931 . S
C2353 C2352 1.391 . S
C2353 C2357 1.376 . S
C2354 C2352 1.394 . S
C2354 C2355 1.369 . S
C2354 C2358 1.531 . S
C2355 C2354 1.369 . S
C2355 C2356 1.410 . S
C2355 C2363 1.503 . S
C2356 C2355 1.410 . S
C2356 C2357 1.392 . S
C2356 C2359 1.511 . S
C2357 C2353 1.376 . S
C2357 C2356 1.392 . S
C2357 H2369 0.929 . S
C2358 C2354 1.531 . S
C2358 H2370 0.960 . S
C2358 H2371 0.962 . S
C2358 H2372 0.960 . S
C2359 C2356 1.511 . S
C2359 H2373 0.961 . S
C2359 H2374 0.961 . S
C2359 H2375 0.961 . S
C2360 C2361 1.370 . S
C2360 C2362 1.363 . S
C2360 H2376 0.931 . S
C2361 C2360 1.370 . S
C2361 C2365 1.408 . S
C2362 C2360 1.363 . S
C2362 C2363 1.370 . S
C2362 C2366 1.524 . S
C2363 C2355 1.503 . S
C2363 C2362 1.370 . S
C2363 C2364 1.403 . S
C2364 C2363 1.403 . S
C2364 C2365 1.404 . S
C2364 C2367 1.539 . S
C2365 C2361 1.408 . S
C2365 C2364 1.404 . S
C2365 H2377 0.930 . S
C2366 C2362 1.524 . S
C2366 H2378 0.956 . S
C2366 H2379 0.961 . S
C2366 H2380 0.961 . S
C2367 C2364 1.539 . S
C2367 H2381 0.958 . S
C2367 H2382 0.961 . S
C2367 H2383 0.960 . S
H2368 C2352 0.931 . S
H2369 C2357 0.929 . S
H2370 C2358 0.960 . S
H2371 C2358 0.962 . S
H2372 C2358 0.960 . S
H2373 C2359 0.961 . S
H2374 C2359 0.961 . S
H2375 C2359 0.961 . S
H2376 C2360 0.931 . S
H2377 C2365 0.930 . S
H2378 C2366 0.956 . S
H2379 C2366 0.961 . S
H2380 C2366 0.961 . S
H2381 C2367 0.958 . S
H2382 C2367 0.961 . S
H2383 C2367 0.960 . S
C2384 C2385 1.391 1_455 S
C2384 C2386 1.394 . S
C2384 H2400 0.931 . S
C2385 C2384 1.391 1_655 S
C2385 C2389 1.376 . S
C2386 C2384 1.394 . S
C2386 C2387 1.369 1_455 S
C2386 C2390 1.531 . S
C2387 C2386 1.369 1_655 S
C2387 C2388 1.410 . S
C2387 C2395 1.503 . S
C2388 C2387 1.410 . S
C2388 C2389 1.392 . S
C2388 C2391 1.511 . S
C2389 C2385 1.376 . S
C2389 C2388 1.392 . S
C2389 H2401 0.929 . S
C2390 C2386 1.531 . S
C2390 H2402 0.960 . S
C2390 H2403 0.962 . S
C2390 H2404 0.960 . S
C2391 C2388 1.511 . S
C2391 H2405 0.961 . S
C2391 H2406 0.961 . S
C2391 H2407 0.961 . S
C2392 C2393 1.370 1_455 S
C2392 C2394 1.363 . S
C2392 H2408 0.931 . S
C2393 C2392 1.370 1_655 S
C2393 C2397 1.408 . S
C2394 C2392 1.363 . S
C2394 C2395 1.370 1_455 S
C2394 C2398 1.524 . S
C2395 C2387 1.503 . S
C2395 C2394 1.370 1_655 S
C2395 C2396 1.403 . S
C2396 C2395 1.403 . S
C2396 C2397 1.404 . S
C2396 C2399 1.539 . S
C2397 C2393 1.408 . S
C2397 C2396 1.404 . S
C2397 H2409 0.930 . S
C2398 C2394 1.524 . S
C2398 H2410 0.956 . S
C2398 H2411 0.961 . S
C2398 H2412 0.961 . S
C2399 C2396 1.539 . S
C2399 H2413 0.958 . S
C2399 H2414 0.961 . S
C2399 H2415 0.960 . S
H2400 C2384 0.931 . S
H2401 C2389 0.929 . S
H2402 C2390 0.960 . S
H2403 C2390 0.962 . S
H2404 C2390 0.960 . S
H2405 C2391 0.961 . S
H2406 C2391 0.961 . S
H2407 C2391 0.961 . S
H2408 C2392 0.931 . S
H2409 C2397 0.930 . S
H2410 C2398 0.956 . S
H2411 C2398 0.961 . S
H2412 C2398 0.961 . S
H2413 C2399 0.958 . S
H2414 C2399 0.961 . S
H2415 C2399 0.960 . S
C2416 C2417 1.391 . S
C2416 C2418 1.394 . S
C2416 H2432 0.931 . S
C2417 C2416 1.391 . S
C2417 C2421 1.376 . S
C2418 C2416 1.394 . S
C2418 C2419 1.369 . S
C2418 C2422 1.531 . S
C2419 C2418 1.369 . S
C2419 C2420 1.410 . S
C2419 C2427 1.503 . S
C2420 C2419 1.410 . S
C2420 C2421 1.392 . S
C2420 C2423 1.511 . S
C2421 C2417 1.376 . S
C2421 C2420 1.392 . S
C2421 H2433 0.929 . S
C2422 C2418 1.531 . S
C2422 H2434 0.960 . S
C2422 H2435 0.962 . S
C2422 H2436 0.960 . S
C2423 C2420 1.511 . S
C2423 H2437 0.961 . S
C2423 H2438 0.961 . S
C2423 H2439 0.961 . S
C2424 C2425 1.370 . S
C2424 C2426 1.363 . S
C2424 H2440 0.931 . S
C2425 C2424 1.370 . S
C2425 C2429 1.408 . S
C2426 C2424 1.363 . S
C2426 C2427 1.370 . S
C2426 C2430 1.524 . S
C2427 C2419 1.503 . S
C2427 C2426 1.370 . S
C2427 C2428 1.403 . S
C2428 C2427 1.403 . S
C2428 C2429 1.404 . S
C2428 C2431 1.539 . S
C2429 C2425 1.408 . S
C2429 C2428 1.404 . S
C2429 H2441 0.930 . S
C2430 C2426 1.524 . S
C2430 H2442 0.956 . S
C2430 H2443 0.961 . S
C2430 H2444 0.961 . S
C2431 C2428 1.539 . S
C2431 H2445 0.958 . S
C2431 H2446 0.961 . S
C2431 H2447 0.960 . S
H2432 C2416 0.931 . S
H2433 C2421 0.929 . S
H2434 C2422 0.960 . S
H2435 C2422 0.962 . S
H2436 C2422 0.960 . S
H2437 C2423 0.961 . S
H2438 C2423 0.961 . S
H2439 C2423 0.961 . S
H2440 C2424 0.931 . S
H2441 C2429 0.930 . S
H2442 C2430 0.956 . S
H2443 C2430 0.961 . S
H2444 C2430 0.961 . S
H2445 C2431 0.958 . S
H2446 C2431 0.961 . S
H2447 C2431 0.960 . S
C2448 C2449 1.391 . S
C2448 C2450 1.394 . S
C2448 H2464 0.931 . S
C2449 C2448 1.391 . S
C2449 C2453 1.376 . S
C2450 C2448 1.394 . S
C2450 C2451 1.369 . S
C2450 C2454 1.531 . S
C2451 C2450 1.369 . S
C2451 C2452 1.410 . S
C2451 C2459 1.503 . S
C2452 C2451 1.410 . S
C2452 C2453 1.392 . S
C2452 C2455 1.511 . S
C2453 C2449 1.376 . S
C2453 C2452 1.392 . S
C2453 H2465 0.929 . S
C2454 C2450 1.531 . S
C2454 H2466 0.960 . S
C2454 H2467 0.962 . S
C2454 H2468 0.960 . S
C2455 C2452 1.511 . S
C2455 H2469 0.961 . S
C2455 H2470 0.961 . S
C2455 H2471 0.961 . S
C2456 C2457 1.370 . S
C2456 C2458 1.363 . S
C2456 H2472 0.931 . S
C2457 C2456 1.370 . S
C2457 C2461 1.408 . S
C2458 C2456 1.363 . S
C2458 C2459 1.370 . S
C2458 C2462 1.524 . S
C2459 C2451 1.503 . S
C2459 C2458 1.370 . S
C2459 C2460 1.403 . S
C2460 C2459 1.403 . S
C2460 C2461 1.404 . S
C2460 C2463 1.539 . S
C2461 C2457 1.408 . S
C2461 C2460 1.404 . S
C2461 H2473 0.930 . S
C2462 C2458 1.524 . S
C2462 H2474 0.956 . S
C2462 H2475 0.961 . S
C2462 H2476 0.961 . S
C2463 C2460 1.539 . S
C2463 H2477 0.958 . S
C2463 H2478 0.961 . S
C2463 H2479 0.960 . S
H2464 C2448 0.931 . S
H2465 C2453 0.929 . S
H2466 C2454 0.960 . S
H2467 C2454 0.962 . S
H2468 C2454 0.960 . S
H2469 C2455 0.961 . S
H2470 C2455 0.961 . S
H2471 C2455 0.961 . S
H2472 C2456 0.931 . S
H2473 C2461 0.930 . S
H2474 C2462 0.956 . S
H2475 C2462 0.961 . S
H2476 C2462 0.961 . S
H2477 C2463 0.958 . S
H2478 C2463 0.961 . S
H2479 C2463 0.960 . S
C2480 C2481 1.391 . S
C2480 C2482 1.394 . S
C2480 H2496 0.931 . S
C2481 C2480 1.391 . S
C2481 C2485 1.376 . S
C2482 C2480 1.394 . S
C2482 C2483 1.369 . S
C2482 C2486 1.531 . S
C2483 C2482 1.369 . S
C2483 C2484 1.410 . S
C2483 C2491 1.503 . S
C2484 C2483 1.410 . S
C2484 C2485 1.392 . S
C2484 C2487 1.511 . S
C2485 C2481 1.376 . S
C2485 C2484 1.392 . S
C2485 H2497 0.929 . S
C2486 C2482 1.531 . S
C2486 H2498 0.960 . S
C2486 H2499 0.962 . S
C2486 H2500 0.960 . S
C2487 C2484 1.511 . S
C2487 H2501 0.961 . S
C2487 H2502 0.961 . S
C2487 H2503 0.961 . S
C2488 C2489 1.370 . S
C2488 C2490 1.363 . S
C2488 H2504 0.931 . S
C2489 C2488 1.370 . S
C2489 C2493 1.408 . S
C2490 C2488 1.363 . S
C2490 C2491 1.370 . S
C2490 C2494 1.524 . S
C2491 C2483 1.503 . S
C2491 C2490 1.370 . S
C2491 C2492 1.403 . S
C2492 C2491 1.403 . S
C2492 C2493 1.404 . S
C2492 C2495 1.539 . S
C2493 C2489 1.408 . S
C2493 C2492 1.404 . S
C2493 H2505 0.930 . S
C2494 C2490 1.524 . S
C2494 H2506 0.956 . S
C2494 H2507 0.961 . S
C2494 H2508 0.961 . S
C2495 C2492 1.539 . S
C2495 H2509 0.958 . S
C2495 H2510 0.961 . S
C2495 H2511 0.960 . S
H2496 C2480 0.931 . S
H2497 C2485 0.929 . S
H2498 C2486 0.960 . S
H2499 C2486 0.962 . S
H2500 C2486 0.960 . S
H2501 C2487 0.961 . S
H2502 C2487 0.961 . S
H2503 C2487 0.961 . S
H2504 C2488 0.931 . S
H2505 C2493 0.930 . S
H2506 C2494 0.956 . S
H2507 C2494 0.961 . S
H2508 C2494 0.961 . S
H2509 C2495 0.958 . S
H2510 C2495 0.961 . S
H2511 C2495 0.960 . S
C2512 C2513 1.391 . S
C2512 C2514 1.394 . S
C2512 H2528 0.931 . S
C2513 C2512 1.391 . S
C2513 C2517 1.376 . S
C2514 C2512 1.394 . S
C2514 C2515 1.369 . S
C2514 C2518 1.531 . S
C2515 C2514 1.369 . S
C2515 C2516 1.410 . S
C2515 C2523 1.503 . S
C2516 C2515 1.410 . S
C2516 C2517 1.392 . S
C2516 C2519 1.511 . S
C2517 C2513 1.376 . S
C2517 C2516 1.392 . S
C2517 H2529 0.929 . S
C2518 C2514 1.531 . S
C2518 H2530 0.960 . S
C2518 H2531 0.962 . S
C2518 H2532 0.960 . S
C2519 C2516 1.511 . S
C2519 H2533 0.961 . S
C2519 H2534 0.961 . S
C2519 H2535 0.961 . S
C2520 C2521 1.370 . S
C2520 C2522 1.363 . S
C2520 H2536 0.931 . S
C2521 C2520 1.370 . S
C2521 C2525 1.408 . S
C2522 C2520 1.363 . S
C2522 C2523 1.370 . S
C2522 C2526 1.524 . S
C2523 C2515 1.503 . S
C2523 C2522 1.370 . S
C2523 C2524 1.403 . S
C2524 C2523 1.403 . S
C2524 C2525 1.404 . S
C2524 C2527 1.539 . S
C2525 C2521 1.408 . S
C2525 C2524 1.404 . S
C2525 H2537 0.930 . S
C2526 C2522 1.524 . S
C2526 H2538 0.956 . S
C2526 H2539 0.961 . S
C2526 H2540 0.961 . S
C2527 C2524 1.539 . S
C2527 H2541 0.958 . S
C2527 H2542 0.961 . S
C2527 H2543 0.960 . S
H2528 C2512 0.931 . S
H2529 C2517 0.929 . S
H2530 C2518 0.960 . S
H2531 C2518 0.962 . S
H2532 C2518 0.960 . S
H2533 C2519 0.961 . S
H2534 C2519 0.961 . S
H2535 C2519 0.961 . S
H2536 C2520 0.931 . S
H2537 C2525 0.930 . S
H2538 C2526 0.956 . S
H2539 C2526 0.961 . S
H2540 C2526 0.961 . S
H2541 C2527 0.958 . S
H2542 C2527 0.961 . S
H2543 C2527 0.960 . S
C2544 C2545 1.391 . S
C2544 C2546 1.394 . S
C2544 H2560 0.931 . S
C2545 C2544 1.391 . S
C2545 C2549 1.376 . S
C2546 C2544 1.394 . S
C2546 C2547 1.369 . S
C2546 C2550 1.531 . S
C2547 C2546 1.369 . S
C2547 C2548 1.410 . S
C2547 C2555 1.503 . S
C2548 C2547 1.410 . S
C2548 C2549 1.392 . S
C2548 C2551 1.511 . S
C2549 C2545 1.376 . S
C2549 C2548 1.392 . S
C2549 H2561 0.929 . S
C2550 C2546 1.531 . S
C2550 H2562 0.960 . S
C2550 H2563 0.962 . S
C2550 H2564 0.960 . S
C2551 C2548 1.511 . S
C2551 H2565 0.961 . S
C2551 H2566 0.961 . S
C2551 H2567 0.961 . S
C2552 C2553 1.370 . S
C2552 C2554 1.363 . S
C2552 H2568 0.931 . S
C2553 C2552 1.370 . S
C2553 C2557 1.408 . S
C2554 C2552 1.363 . S
C2554 C2555 1.370 . S
C2554 C2558 1.524 . S
C2555 C2547 1.503 . S
C2555 C2554 1.370 . S
C2555 C2556 1.403 . S
C2556 C2555 1.403 . S
C2556 C2557 1.404 . S
C2556 C2559 1.539 . S
C2557 C2553 1.408 . S
C2557 C2556 1.404 . S
C2557 H2569 0.930 . S
C2558 C2554 1.524 . S
C2558 H2570 0.956 . S
C2558 H2571 0.961 . S
C2558 H2572 0.961 . S
C2559 C2556 1.539 . S
C2559 H2573 0.958 . S
C2559 H2574 0.961 . S
C2559 H2575 0.960 . S
H2560 C2544 0.931 . S
H2561 C2549 0.929 . S
H2562 C2550 0.960 . S
H2563 C2550 0.962 . S
H2564 C2550 0.960 . S
H2565 C2551 0.961 . S
H2566 C2551 0.961 . S
H2567 C2551 0.961 . S
H2568 C2552 0.931 . S
H2569 C2557 0.930 . S
H2570 C2558 0.956 . S
H2571 C2558 0.961 . S
H2572 C2558 0.961 . S
H2573 C2559 0.958 . S
H2574 C2559 0.961 . S
H2575 C2559 0.960 . S
C2576 C2577 1.391 . S
C2576 C2578 1.394 . S
C2576 H2592 0.931 . S
C2577 C2576 1.391 . S
C2577 C2581 1.376 . S
C2578 C2576 1.394 . S
C2578 C2579 1.369 . S
C2578 C2582 1.531 . S
C2579 C2578 1.369 . S
C2579 C2580 1.410 . S
C2579 C2587 1.503 . S
C2580 C2579 1.410 . S
C2580 C2581 1.392 . S
C2580 C2583 1.511 . S
C2581 C2577 1.376 . S
C2581 C2580 1.392 . S
C2581 H2593 0.929 . S
C2582 C2578 1.531 . S
C2582 H2594 0.960 . S
C2582 H2595 0.962 . S
C2582 H2596 0.960 . S
C2583 C2580 1.511 . S
C2583 H2597 0.961 . S
C2583 H2598 0.961 . S
C2583 H2599 0.961 . S
C2584 C2585 1.370 . S
C2584 C2586 1.363 . S
C2584 H2600 0.931 . S
C2585 C2584 1.370 . S
C2585 C2589 1.408 . S
C2586 C2584 1.363 . S
C2586 C2587 1.370 . S
C2586 C2590 1.524 . S
C2587 C2579 1.503 . S
C2587 C2586 1.370 . S
C2587 C2588 1.403 . S
C2588 C2587 1.403 . S
C2588 C2589 1.404 . S
C2588 C2591 1.539 . S
C2589 C2585 1.408 . S
C2589 C2588 1.404 . S
C2589 H2601 0.930 . S
C2590 C2586 1.524 . S
C2590 H2602 0.956 . S
C2590 H2603 0.961 . S
C2590 H2604 0.961 . S
C2591 C2588 1.539 . S
C2591 H2605 0.958 . S
C2591 H2606 0.961 . S
C2591 H2607 0.960 . S
H2592 C2576 0.931 . S
H2593 C2581 0.929 . S
H2594 C2582 0.960 . S
H2595 C2582 0.962 . S
H2596 C2582 0.960 . S
H2597 C2583 0.961 . S
H2598 C2583 0.961 . S
H2599 C2583 0.961 . S
H2600 C2584 0.931 . S
H2601 C2589 0.930 . S
H2602 C2590 0.956 . S
H2603 C2590 0.961 . S
H2604 C2590 0.961 . S
H2605 C2591 0.958 . S
H2606 C2591 0.961 . S
H2607 C2591 0.960 . S
C2608 C2609 1.391 . S
C2608 C2610 1.394 . S
C2608 H2624 0.931 . S
C2609 C2608 1.391 . S
C2609 C2613 1.376 . S
C2610 C2608 1.394 . S
C2610 C2611 1.369 . S
C2610 C2614 1.531 . S
C2611 C2610 1.369 . S
C2611 C2612 1.410 . S
C2611 C2619 1.503 . S
C2612 C2611 1.410 . S
C2612 C2613 1.392 . S
C2612 C2615 1.511 . S
C2613 C2609 1.376 . S
C2613 C2612 1.392 . S
C2613 H2625 0.929 . S
C2614 C2610 1.531 . S
C2614 H2626 0.960 . S
C2614 H2627 0.962 . S
C2614 H2628 0.960 . S
C2615 C2612 1.511 . S
C2615 H2629 0.961 . S
C2615 H2630 0.961 . S
C2615 H2631 0.961 . S
C2616 C2617 1.370 . S
C2616 C2618 1.363 . S
C2616 H2632 0.931 . S
C2617 C2616 1.370 . S
C2617 C2621 1.408 . S
C2618 C2616 1.363 . S
C2618 C2619 1.370 . S
C2618 C2622 1.524 . S
C2619 C2611 1.503 . S
C2619 C2618 1.370 . S
C2619 C2620 1.403 . S
C2620 C2619 1.403 . S
C2620 C2621 1.404 . S
C2620 C2623 1.539 . S
C2621 C2617 1.408 . S
C2621 C2620 1.404 . S
C2621 H2633 0.930 . S
C2622 C2618 1.524 . S
C2622 H2634 0.956 . S
C2622 H2635 0.961 . S
C2622 H2636 0.961 . S
C2623 C2620 1.539 . S
C2623 H2637 0.958 . S
C2623 H2638 0.961 . S
C2623 H2639 0.960 . S
H2624 C2608 0.931 . S
H2625 C2613 0.929 . S
H2626 C2614 0.960 . S
H2627 C2614 0.962 . S
H2628 C2614 0.960 . S
H2629 C2615 0.961 . S
H2630 C2615 0.961 . S
H2631 C2615 0.961 . S
H2632 C2616 0.931 . S
H2633 C2621 0.930 . S
H2634 C2622 0.956 . S
H2635 C2622 0.961 . S
H2636 C2622 0.961 . S
H2637 C2623 0.958 . S
H2638 C2623 0.961 . S
H2639 C2623 0.960 . S
C2640 C2641 1.391 . S
C2640 C2642 1.394 . S
C2640 H2656 0.931 . S
C2641 C2640 1.391 . S
C2641 C2645 1.376 . S
C2642 C2640 1.394 . S
C2642 C2643 1.369 . S
C2642 C2646 1.531 . S
C2643 C2642 1.369 . S
C2643 C2644 1.410 . S
C2643 C2651 1.503 . S
C2644 C2643 1.410 . S
C2644 C2645 1.392 . S
C2644 C2647 1.511 . S
C2645 C2641 1.376 . S
C2645 C2644 1.392 . S
C2645 H2657 0.929 . S
C2646 C2642 1.531 . S
C2646 H2658 0.960 . S
C2646 H2659 0.962 . S
C2646 H2660 0.960 . S
C2647 C2644 1.511 . S
C2647 H2661 0.961 . S
C2647 H2662 0.961 . S
C2647 H2663 0.961 . S
C2648 C2649 1.370 . S
C2648 C2650 1.363 . S
C2648 H2664 0.931 . S
C2649 C2648 1.370 . S
C2649 C2653 1.408 . S
C2650 C2648 1.363 . S
C2650 C2651 1.370 . S
C2650 C2654 1.524 . S
C2651 C2643 1.503 . S
C2651 C2650 1.370 . S
C2651 C2652 1.403 . S
C2652 C2651 1.403 . S
C2652 C2653 1.404 . S
C2652 C2655 1.539 . S
C2653 C2649 1.408 . S
C2653 C2652 1.404 . S
C2653 H2665 0.930 . S
C2654 C2650 1.524 . S
C2654 H2666 0.956 . S
C2654 H2667 0.961 . S
C2654 H2668 0.961 . S
C2655 C2652 1.539 . S
C2655 H2669 0.958 . S
C2655 H2670 0.961 . S
C2655 H2671 0.960 . S
H2656 C2640 0.931 . S
H2657 C2645 0.929 . S
H2658 C2646 0.960 . S
H2659 C2646 0.962 . S
H2660 C2646 0.960 . S
H2661 C2647 0.961 . S
H2662 C2647 0.961 . S
H2663 C2647 0.961 . S
H2664 C2648 0.931 . S
H2665 C2653 0.930 . S
H2666 C2654 0.956 . S
H2667 C2654 0.961 . S
H2668 C2654 0.961 . S
H2669 C2655 0.958 . S
H2670 C2655 0.961 . S
H2671 C2655 0.960 . S
C2672 C2673 1.391 . S
C2672 C2674 1.394 . S
C2672 H2688 0.931 . S
C2673 C2672 1.391 . S
C2673 C2677 1.376 . S
C2674 C2672 1.394 . S
C2674 C2675 1.369 . S
C2674 C2678 1.531 . S
C2675 C2674 1.369 . S
C2675 C2676 1.410 . S
C2675 C2683 1.503 . S
C2676 C2675 1.410 . S
C2676 C2677 1.392 . S
C2676 C2679 1.511 . S
C2677 C2673 1.376 . S
C2677 C2676 1.392 . S
C2677 H2689 0.929 . S
C2678 C2674 1.531 . S
C2678 H2690 0.960 . S
C2678 H2691 0.962 . S
C2678 H2692 0.960 . S
C2679 C2676 1.511 . S
C2679 H2693 0.961 . S
C2679 H2694 0.961 . S
C2679 H2695 0.961 . S
C2680 C2681 1.370 . S
C2680 C2682 1.363 . S
C2680 H2696 0.931 . S
C2681 C2680 1.370 . S
C2681 C2685 1.408 . S
C2682 C2680 1.363 . S
C2682 C2683 1.370 . S
C2682 C2686 1.524 . S
C2683 C2675 1.503 . S
C2683 C2682 1.370 . S
C2683 C2684 1.403 . S
C2684 C2683 1.403 . S
C2684 C2685 1.404 . S
C2684 C2687 1.539 . S
C2685 C2681 1.408 . S
C2685 C2684 1.404 . S
C2685 H2697 0.930 . S
C2686 C2682 1.524 . S
C2686 H2698 0.956 . S
C2686 H2699 0.961 . S
C2686 H2700 0.961 . S
C2687 C2684 1.539 . S
C2687 H2701 0.958 . S
C2687 H2702 0.961 . S
C2687 H2703 0.960 . S
H2688 C2672 0.931 . S
H2689 C2677 0.929 . S
H2690 C2678 0.960 . S
H2691 C2678 0.962 . S
H2692 C2678 0.960 . S
H2693 C2679 0.961 . S
H2694 C2679 0.961 . S
H2695 C2679 0.961 . S
H2696 C2680 0.931 . S
H2697 C2685 0.930 . S
H2698 C2686 0.956 . S
H2699 C2686 0.961 . S
H2700 C2686 0.961 . S
H2701 C2687 0.958 . S
H2702 C2687 0.961 . S
H2703 C2687 0.960 . S
C2704 C2705 1.391 . S
C2704 C2706 1.394 . S
C2704 H2720 0.931 . S
C2705 C2704 1.391 . S
C2705 C2709 1.376 . S
C2706 C2704 1.394 . S
C2706 C2707 1.369 . S
C2706 C2710 1.531 . S
C2707 C2706 1.369 . S
C2707 C2708 1.410 . S
C2707 C2715 1.503 . S
C2708 C2707 1.410 . S
C2708 C2709 1.392 . S
C2708 C2711 1.511 . S
C2709 C2705 1.376 . S
C2709 C2708 1.392 . S
C2709 H2721 0.929 . S
C2710 C2706 1.531 . S
C2710 H2722 0.960 . S
C2710 H2723 0.962 . S
C2710 H2724 0.960 . S
C2711 C2708 1.511 . S
C2711 H2725 0.961 . S
C2711 H2726 0.961 . S
C2711 H2727 0.961 . S
C2712 C2713 1.370 . S
C2712 C2714 1.363 . S
C2712 H2728 0.931 . S
C2713 C2712 1.370 . S
C2713 C2717 1.408 . S
C2714 C2712 1.363 . S
C2714 C2715 1.370 . S
C2714 C2718 1.524 . S
C2715 C2707 1.503 . S
C2715 C2714 1.370 . S
C2715 C2716 1.403 . S
C2716 C2715 1.403 . S
C2716 C2717 1.404 . S
C2716 C2719 1.539 . S
C2717 C2713 1.408 . S
C2717 C2716 1.404 . S
C2717 H2729 0.930 . S
C2718 C2714 1.524 . S
C2718 H2730 0.956 . S
C2718 H2731 0.961 . S
C2718 H2732 0.961 . S
C2719 C2716 1.539 . S
C2719 H2733 0.958 . S
C2719 H2734 0.961 . S
C2719 H2735 0.960 . S
H2720 C2704 0.931 . S
H2721 C2709 0.929 . S
H2722 C2710 0.960 . S
H2723 C2710 0.962 . S
H2724 C2710 0.960 . S
H2725 C2711 0.961 . S
H2726 C2711 0.961 . S
H2727 C2711 0.961 . S
H2728 C2712 0.931 . S
H2729 C2717 0.930 . S
H2730 C2718 0.956 . S
H2731 C2718 0.961 . S
H2732 C2718 0.961 . S
H2733 C2719 0.958 . S
H2734 C2719 0.961 . S
H2735 C2719 0.960 . S
C2736 C2737 1.391 . S
C2736 C2738 1.394 . S
C2736 H2752 0.931 . S
C2737 C2736 1.391 . S
C2737 C2741 1.376 . S
C2738 C2736 1.394 . S
C2738 C2739 1.369 . S
C2738 C2742 1.531 . S
C2739 C2738 1.369 . S
C2739 C2740 1.410 . S
C2739 C2747 1.503 . S
C2740 C2739 1.410 . S
C2740 C2741 1.392 . S
C2740 C2743 1.511 . S
C2741 C2737 1.376 . S
C2741 C2740 1.392 . S
C2741 H2753 0.929 . S
C2742 C2738 1.531 . S
C2742 H2754 0.960 . S
C2742 H2755 0.962 . S
C2742 H2756 0.960 . S
C2743 C2740 1.511 . S
C2743 H2757 0.961 . S
C2743 H2758 0.961 . S
C2743 H2759 0.961 . S
C2744 C2745 1.370 . S
C2744 C2746 1.363 . S
C2744 H2760 0.931 . S
C2745 C2744 1.370 . S
C2745 C2749 1.408 . S
C2746 C2744 1.363 . S
C2746 C2747 1.370 . S
C2746 C2750 1.524 . S
C2747 C2739 1.503 . S
C2747 C2746 1.370 . S
C2747 C2748 1.403 . S
C2748 C2747 1.403 . S
C2748 C2749 1.404 . S
C2748 C2751 1.539 . S
C2749 C2745 1.408 . S
C2749 C2748 1.404 . S
C2749 H2761 0.930 . S
C2750 C2746 1.524 . S
C2750 H2762 0.956 . S
C2750 H2763 0.961 . S
C2750 H2764 0.961 . S
C2751 C2748 1.539 . S
C2751 H2765 0.958 . S
C2751 H2766 0.961 . S
C2751 H2767 0.960 . S
H2752 C2736 0.931 . S
H2753 C2741 0.929 . S
H2754 C2742 0.960 . S
H2755 C2742 0.962 . S
H2756 C2742 0.960 . S
H2757 C2743 0.961 . S
H2758 C2743 0.961 . S
H2759 C2743 0.961 . S
H2760 C2744 0.931 . S
H2761 C2749 0.930 . S
H2762 C2750 0.956 . S
H2763 C2750 0.961 . S
H2764 C2750 0.961 . S
H2765 C2751 0.958 . S
H2766 C2751 0.961 . S
H2767 C2751 0.960 . S
C2768 C2769 1.391 . S
C2768 C2770 1.394 . S
C2768 H2784 0.931 . S
C2769 C2768 1.391 . S
C2769 C2773 1.376 . S
C2770 C2768 1.394 . S
C2770 C2771 1.369 . S
C2770 C2774 1.531 . S
C2771 C2770 1.369 . S
C2771 C2772 1.410 . S
C2771 C2779 1.503 . S
C2772 C2771 1.410 . S
C2772 C2773 1.392 . S
C2772 C2775 1.511 . S
C2773 C2769 1.376 . S
C2773 C2772 1.392 . S
C2773 H2785 0.929 . S
C2774 C2770 1.531 . S
C2774 H2786 0.960 . S
C2774 H2787 0.962 . S
C2774 H2788 0.960 . S
C2775 C2772 1.511 . S
C2775 H2789 0.961 . S
C2775 H2790 0.961 . S
C2775 H2791 0.961 . S
C2776 C2777 1.370 . S
C2776 C2778 1.363 . S
C2776 H2792 0.931 . S
C2777 C2776 1.370 . S
C2777 C2781 1.408 . S
C2778 C2776 1.363 . S
C2778 C2779 1.370 . S
C2778 C2782 1.524 . S
C2779 C2771 1.503 . S
C2779 C2778 1.370 . S
C2779 C2780 1.403 . S
C2780 C2779 1.403 . S
C2780 C2781 1.404 . S
C2780 C2783 1.539 . S
C2781 C2777 1.408 . S
C2781 C2780 1.404 . S
C2781 H2793 0.930 . S
C2782 C2778 1.524 . S
C2782 H2794 0.956 . S
C2782 H2795 0.961 . S
C2782 H2796 0.961 . S
C2783 C2780 1.539 . S
C2783 H2797 0.958 . S
C2783 H2798 0.961 . S
C2783 H2799 0.960 . S
H2784 C2768 0.931 . S
H2785 C2773 0.929 . S
H2786 C2774 0.960 . S
H2787 C2774 0.962 . S
H2788 C2774 0.960 . S
H2789 C2775 0.961 . S
H2790 C2775 0.961 . S
H2791 C2775 0.961 . S
H2792 C2776 0.931 . S
H2793 C2781 0.930 . S
H2794 C2782 0.956 . S
H2795 C2782 0.961 . S
H2796 C2782 0.961 . S
H2797 C2783 0.958 . S
H2798 C2783 0.961 . S
H2799 C2783 0.960 . S
C2800 C2801 1.391 . S
C2800 C2802 1.394 . S
C2800 H2816 0.931 . S
C2801 C2800 1.391 . S
C2801 C2805 1.376 . S
C2802 C2800 1.394 . S
C2802 C2803 1.369 . S
C2802 C2806 1.531 1_565 S
C2803 C2802 1.369 . S
C2803 C2804 1.410 . S
C2803 C2811 1.503 . S
C2804 C2803 1.410 . S
C2804 C2805 1.392 . S
C2804 C2807 1.511 . S
C2805 C2801 1.376 . S
C2805 C2804 1.392 . S
C2805 H2817 0.929 . S
C2806 C2802 1.531 1_545 S
C2806 H2818 0.960 . S
C2806 H2819 0.962 . S
C2806 H2820 0.960 . S
C2807 C2804 1.511 . S
C2807 H2821 0.961 . S
C2807 H2822 0.961 . S
C2807 H2823 0.961 . S
C2808 C2809 1.370 1_565 S
C2808 C2810 1.363 . S
C2808 H2824 0.931 1_554 S
C2809 C2808 1.370 1_545 S
C2809 C2813 1.408 . S
C2810 C2808 1.363 . S
C2810 C2811 1.370 . S
C2810 C2814 1.524 1_554 S
C2811 C2803 1.503 . S
C2811 C2810 1.370 . S
C2811 C2812 1.403 . S
C2812 C2811 1.403 . S
C2812 C2813 1.404 1_565 S
C2812 C2815 1.539 . S
C2813 C2809 1.408 . S
C2813 C2812 1.404 1_545 S
C2813 H2825 0.930 . S
C2814 C2810 1.524 1_556 S
C2814 H2826 0.956 . S
C2814 H2827 0.961 . S
C2814 H2828 0.961 . S
C2815 C2812 1.539 . S
C2815 H2829 0.958 1_565 S
C2815 H2830 0.961 . S
C2815 H2831 0.960 . S
H2816 C2800 0.931 . S
H2817 C2805 0.929 . S
H2818 C2806 0.960 . S
H2819 C2806 0.962 . S
H2820 C2806 0.960 . S
H2821 C2807 0.961 . S
H2822 C2807 0.961 . S
H2823 C2807 0.961 . S
H2824 C2808 0.931 1_556 S
H2825 C2813 0.930 . S
H2826 C2814 0.956 . S
H2827 C2814 0.961 . S
H2828 C2814 0.961 . S
H2829 C2815 0.958 1_545 S
H2830 C2815 0.961 . S
H2831 C2815 0.960 . S
C2832 C2833 1.391 . S
C2832 C2834 1.394 . S
C2832 H2848 0.931 . S
C2833 C2832 1.391 . S
C2833 C2837 1.376 . S
C2834 C2832 1.394 . S
C2834 C2835 1.369 . S
C2834 C2838 1.531 . S
C2835 C2834 1.369 . S
C2835 C2836 1.410 . S
C2835 C2843 1.503 . S
C2836 C2835 1.410 . S
C2836 C2837 1.392 . S
C2836 C2839 1.511 . S
C2837 C2833 1.376 . S
C2837 C2836 1.392 . S
C2837 H2849 0.929 . S
C2838 C2834 1.531 . S
C2838 H2850 0.960 . S
C2838 H2851 0.962 . S
C2838 H2852 0.960 . S
C2839 C2836 1.511 . S
C2839 H2853 0.961 . S
C2839 H2854 0.961 . S
C2839 H2855 0.961 . S
C2840 C2841 1.370 . S
C2840 C2842 1.363 . S
C2840 H2856 0.931 . S
C2841 C2840 1.370 . S
C2841 C2845 1.408 . S
C2842 C2840 1.363 . S
C2842 C2843 1.370 . S
C2842 C2846 1.524 . S
C2843 C2835 1.503 . S
C2843 C2842 1.370 . S
C2843 C2844 1.403 . S
C2844 C2843 1.403 . S
C2844 C2845 1.404 . S
C2844 C2847 1.539 . S
C2845 C2841 1.408 . S
C2845 C2844 1.404 . S
C2845 H2857 0.930 . S
C2846 C2842 1.524 . S
C2846 H2858 0.956 . S
C2846 H2859 0.961 . S
C2846 H2860 0.961 . S
C2847 C2844 1.539 . S
C2847 H2861 0.958 . S
C2847 H2862 0.961 . S
C2847 H2863 0.960 . S
H2848 C2832 0.931 . S
H2849 C2837 0.929 . S
H2850 C2838 0.960 . S
H2851 C2838 0.962 . S
H2852 C2838 0.960 . S
H2853 C2839 0.961 . S
H2854 C2839 0.961 . S
H2855 C2839 0.961 . S
H2856 C2840 0.931 . S
H2857 C2845 0.930 . S
H2858 C2846 0.956 . S
H2859 C2846 0.961 . S
H2860 C2846 0.961 . S
H2861 C2847 0.958 . S
H2862 C2847 0.961 . S
H2863 C2847 0.960 . S
C2864 C2865 1.391 . S
C2864 C2866 1.394 . S
C2864 H2880 0.931 . S
C2865 C2864 1.391 . S
C2865 C2869 1.376 . S
C2866 C2864 1.394 . S
C2866 C2867 1.369 . S
C2866 C2870 1.531 . S
C2867 C2866 1.369 . S
C2867 C2868 1.410 . S
C2867 C2875 1.503 . S
C2868 C2867 1.410 . S
C2868 C2869 1.392 . S
C2868 C2871 1.511 . S
C2869 C2865 1.376 . S
C2869 C2868 1.392 . S
C2869 H2881 0.929 . S
C2870 C2866 1.531 . S
C2870 H2882 0.960 . S
C2870 H2883 0.962 . S
C2870 H2884 0.960 1_554 S
C2871 C2868 1.511 . S
C2871 H2885 0.961 . S
C2871 H2886 0.961 . S
C2871 H2887 0.961 1_554 S
C2872 C2873 1.370 . S
C2872 C2874 1.363 . S
C2872 H2888 0.931 . S
C2873 C2872 1.370 . S
C2873 C2877 1.408 . S
C2874 C2872 1.363 . S
C2874 C2875 1.370 . S
C2874 C2878 1.524 . S
C2875 C2867 1.503 . S
C2875 C2874 1.370 . S
C2875 C2876 1.414 . S
C2876 C2875 1.414 . S
C2876 C2877 1.407 . S
C2876 C2879 1.525 1_554 S
C2877 C2873 1.408 . S
C2877 C2876 1.407 . S
C2877 H2889 0.930 1_554 S
C2878 C2874 1.524 . S
C2878 H2890 0.956 . S
C2878 H2891 0.961 . S
C2878 H2892 0.961 . S
C2879 C2876 1.525 1_556 S
C2879 H2893 0.958 . S
C2879 H2894 0.961 . S
C2879 H2895 0.960 . S
H2880 C2864 0.931 . S
H2881 C2869 0.929 . S
H2882 C2870 0.960 . S
H2883 C2870 0.962 . S
H2884 C2870 0.960 1_556 S
H2885 C2871 0.961 . S
H2886 C2871 0.961 . S
H2887 C2871 0.961 1_556 S
H2888 C2872 0.931 . S
H2889 C2877 0.930 1_556 S
H2890 C2878 0.956 . S
H2891 C2878 0.961 . S
H2892 C2878 0.961 . S
H2893 C2879 0.958 . S
H2894 C2879 0.961 . S
H2895 C2879 0.960 . S
C2896 C2897 1.391 . S
C2896 C2898 1.394 . S
C2896 H2912 0.931 . S
C2897 C2896 1.391 . S
C2897 C2901 1.376 . S
C2898 C2896 1.394 . S
C2898 C2899 1.369 . S
C2898 C2902 1.531 . S
C2899 C2898 1.369 . S
C2899 C2900 1.410 . S
C2899 C2907 1.503 . S
C2900 C2899 1.410 . S
C2900 C2901 1.392 . S
C2900 C2903 1.511 . S
C2901 C2897 1.376 . S
C2901 C2900 1.392 . S
C2901 H2913 0.929 . S
C2902 C2898 1.531 . S
C2902 H2914 0.960 . S
C2902 H2915 0.962 . S
C2902 H2916 0.960 . S
C2903 C2900 1.511 . S
C2903 H2917 0.961 . S
C2903 H2918 0.961 . S
C2903 H2919 0.961 . S
C2904 C2905 1.370 . S
C2904 C2906 1.363 . S
C2904 H2920 0.931 . S
C2905 C2904 1.370 . S
C2905 C2909 1.408 . S
C2906 C2904 1.363 . S
C2906 C2907 1.370 . S
C2906 C2910 1.524 . S
C2907 C2899 1.503 . S
C2907 C2906 1.370 . S
C2907 C2908 1.403 . S
C2908 C2907 1.403 . S
C2908 C2909 1.404 . S
C2908 C2911 1.539 . S
C2909 C2905 1.408 . S
C2909 C2908 1.404 . S
C2909 H2921 0.930 . S
C2910 C2906 1.524 . S
C2910 H2922 0.956 . S
C2910 H2923 0.961 . S
C2910 H2924 0.961 . S
C2911 C2908 1.539 . S
C2911 H2925 0.958 . S
C2911 H2926 0.961 . S
C2911 H2927 0.960 . S
H2912 C2896 0.931 . S
H2913 C2901 0.929 . S
H2914 C2902 0.960 . S
H2915 C2902 0.962 . S
H2916 C2902 0.960 . S
H2917 C2903 0.961 . S
H2918 C2903 0.961 . S
H2919 C2903 0.961 . S
H2920 C2904 0.931 . S
H2921 C2909 0.930 . S
H2922 C2910 0.956 . S
H2923 C2910 0.961 . S
H2924 C2910 0.961 . S
H2925 C2911 0.958 . S
H2926 C2911 0.961 . S
H2927 C2911 0.960 . S
C2928 C2929 1.391 . S
C2928 C2930 1.394 . S
C2928 H2944 0.931 . S
C2929 C2928 1.391 . S
C2929 C2933 1.376 . S
C2930 C2928 1.394 . S
C2930 C2931 1.369 . S
C2930 C2934 1.531 . S
C2931 C2930 1.369 . S
C2931 C2932 1.410 . S
C2931 C2939 1.503 . S
C2932 C2931 1.410 . S
C2932 C2933 1.392 . S
C2932 C2935 1.511 . S
C2933 C2929 1.376 . S
C2933 C2932 1.392 . S
C2933 H2945 0.929 . S
C2934 C2930 1.531 . S
C2934 H2946 0.960 . S
C2934 H2947 0.962 . S
C2934 H2948 0.960 . S
C2935 C2932 1.511 . S
C2935 H2949 0.961 . S
C2935 H2950 0.961 . S
C2935 H2951 0.961 . S
C2936 C2937 1.370 . S
C2936 C2938 1.363 . S
C2936 H2952 0.931 . S
C2937 C2936 1.370 . S
C2937 C2941 1.408 . S
C2938 C2936 1.363 . S
C2938 C2939 1.370 . S
C2938 C2942 1.524 . S
C2939 C2931 1.503 . S
C2939 C2938 1.370 . S
C2939 C2940 1.403 . S
C2940 C2939 1.403 . S
C2940 C2941 1.404 . S
C2940 C2943 1.539 . S
C2941 C2937 1.408 . S
C2941 C2940 1.404 . S
C2941 H2953 0.930 . S
C2942 C2938 1.524 . S
C2942 H2954 0.956 . S
C2942 H2955 0.961 . S
C2942 H2956 0.961 . S
C2943 C2940 1.539 . S
C2943 H2957 0.958 . S
C2943 H2958 0.961 . S
C2943 H2959 0.960 . S
H2944 C2928 0.931 . S
H2945 C2933 0.929 . S
H2946 C2934 0.960 . S
H2947 C2934 0.962 . S
H2948 C2934 0.960 . S
H2949 C2935 0.961 . S
H2950 C2935 0.961 . S
H2951 C2935 0.961 . S
H2952 C2936 0.931 . S
H2953 C2941 0.930 . S
H2954 C2942 0.956 . S
H2955 C2942 0.961 . S
H2956 C2942 0.961 . S
H2957 C2943 0.958 . S
H2958 C2943 0.961 . S
H2959 C2943 0.960 . S
C2960 C2961 1.391 . S
C2960 C2962 1.394 . S
C2960 H2976 0.931 . S
C2961 C2960 1.391 . S
C2961 C2965 1.376 . S
C2962 C2960 1.394 . S
C2962 C2963 1.369 . S
C2962 C2966 1.531 . S
C2963 C2962 1.369 . S
C2963 C2964 1.410 . S
C2963 C2971 1.503 . S
C2964 C2963 1.410 . S
C2964 C2965 1.392 . S
C2964 C2967 1.511 . S
C2965 C2961 1.376 . S
C2965 C2964 1.392 . S
C2965 H2977 0.929 . S
C2966 C2962 1.531 . S
C2966 H2978 0.960 . S
C2966 H2979 0.962 . S
C2966 H2980 0.960 . S
C2967 C2964 1.511 . S
C2967 H2981 0.961 . S
C2967 H2982 0.961 . S
C2967 H2983 0.961 . S
C2968 C2969 1.370 . S
C2968 C2970 1.363 . S
C2968 H2984 0.931 . S
C2969 C2968 1.370 . S
C2969 C2973 1.408 . S
C2970 C2968 1.363 . S
C2970 C2971 1.370 . S
C2970 C2974 1.524 . S
C2971 C2963 1.503 . S
C2971 C2970 1.370 . S
C2971 C2972 1.403 . S
C2972 C2971 1.403 . S
C2972 C2973 1.404 . S
C2972 C2975 1.539 . S
C2973 C2969 1.408 . S
C2973 C2972 1.404 . S
C2973 H2985 0.930 . S
C2974 C2970 1.524 . S
C2974 H2986 0.956 . S
C2974 H2987 0.961 . S
C2974 H2988 0.961 . S
C2975 C2972 1.539 . S
C2975 H2989 0.958 . S
C2975 H2990 0.961 . S
C2975 H2991 0.960 . S
H2976 C2960 0.931 . S
H2977 C2965 0.929 . S
H2978 C2966 0.960 . S
H2979 C2966 0.962 . S
H2980 C2966 0.960 . S
H2981 C2967 0.961 . S
H2982 C2967 0.961 . S
H2983 C2967 0.961 . S
H2984 C2968 0.931 . S
H2985 C2973 0.930 . S
H2986 C2974 0.956 . S
H2987 C2974 0.961 . S
H2988 C2974 0.961 . S
H2989 C2975 0.958 . S
H2990 C2975 0.961 . S
H2991 C2975 0.960 . S
C2992 C2993 1.391 . S
C2992 C2994 1.394 . S
C2992 H3008 0.931 . S
C2993 C2992 1.391 . S
C2993 C2997 1.376 . S
C2994 C2992 1.394 . S
C2994 C2995 1.369 . S
C2994 C2998 1.531 . S
C2995 C2994 1.369 . S
C2995 C2996 1.410 . S
C2995 C3003 1.503 . S
C2996 C2995 1.410 . S
C2996 C2997 1.392 . S
C2996 C2999 1.511 . S
C2997 C2993 1.376 . S
C2997 C2996 1.392 . S
C2997 H3009 0.929 . S
C2998 C2994 1.531 . S
C2998 H3010 0.960 . S
C2998 H3011 0.962 . S
C2998 H3012 0.960 . S
C2999 C2996 1.511 . S
C2999 H3013 0.961 . S
C2999 H3014 0.961 . S
C2999 H3015 0.961 . S
C3000 C3001 1.370 . S
C3000 C3002 1.363 . S
C3000 H3016 0.931 . S
C3001 C3000 1.370 . S
C3001 C3005 1.408 . S
C3002 C3000 1.363 . S
C3002 C3003 1.370 . S
C3002 C3006 1.524 . S
C3003 C2995 1.503 . S
C3003 C3002 1.370 . S
C3003 C3004 1.403 . S
C3004 C3003 1.403 . S
C3004 C3005 1.404 . S
C3004 C3007 1.539 . S
C3005 C3001 1.408 . S
C3005 C3004 1.404 . S
C3005 H3017 0.930 . S
C3006 C3002 1.524 . S
C3006 H3018 0.956 . S
C3006 H3019 0.961 . S
C3006 H3020 0.961 . S
C3007 C3004 1.539 . S
C3007 H3021 0.958 . S
C3007 H3022 0.961 . S
C3007 H3023 0.960 . S
H3008 C2992 0.931 . S
H3009 C2997 0.929 . S
H3010 C2998 0.960 . S
H3011 C2998 0.962 . S
H3012 C2998 0.960 . S
H3013 C2999 0.961 . S
H3014 C2999 0.961 . S
H3015 C2999 0.961 . S
H3016 C3000 0.931 . S
H3017 C3005 0.930 . S
H3018 C3006 0.956 . S
H3019 C3006 0.961 . S
H3020 C3006 0.961 . S
H3021 C3007 0.958 . S
H3022 C3007 0.961 . S
H3023 C3007 0.960 . S
C3024 C3025 1.391 1_655 S
C3024 C3026 1.394 . S
C3024 H3040 0.931 . S
C3025 C3024 1.391 1_455 S
C3025 C3029 1.376 . S
C3026 C3024 1.394 . S
C3026 C3027 1.369 1_655 S
C3026 C3030 1.531 . S
C3027 C3026 1.369 1_455 S
C3027 C3028 1.410 . S
C3027 C3035 1.503 . S
C3028 C3027 1.410 . S
C3028 C3029 1.392 . S
C3028 C3031 1.511 . S
C3029 C3025 1.376 . S
C3029 C3028 1.392 . S
C3029 H3041 0.929 . S
C3030 C3026 1.531 . S
C3030 H3042 0.960 . S
C3030 H3043 0.962 . S
C3030 H3044 0.960 . S
C3031 C3028 1.511 . S
C3031 H3045 0.961 . S
C3031 H3046 0.961 . S
C3031 H3047 0.961 . S
C3032 C3033 1.371 . S
C3032 C3034 1.359 1_455 S
C3032 H3048 0.930 1_455 S
C3033 C3032 1.371 . S
C3033 C3037 1.408 . S
C3034 C3032 1.359 1_655 S
C3034 C3035 1.366 1_655 S
C3034 C3038 1.533 . S
C3035 C3027 1.503 . S
C3035 C3034 1.366 1_455 S
C3035 C3036 1.403 . S
C3036 C3035 1.403 . S
C3036 C3037 1.404 . S
C3036 C3039 1.539 . S
C3037 C3033 1.408 . S
C3037 C3036 1.404 . S
C3037 H3049 0.930 . S
C3038 C3034 1.533 . S
C3038 H3050 0.956 . S
C3038 H3051 0.961 1_655 S
C3038 H3052 0.961 . S
C3039 C3036 1.539 . S
C3039 H3053 0.958 . S
C3039 H3054 0.961 . S
C3039 H3055 0.960 . S
H3040 C3024 0.931 . S
H3041 C3029 0.929 . S
H3042 C3030 0.960 . S
H3043 C3030 0.962 . S
H3044 C3030 0.960 . S
H3045 C3031 0.961 . S
H3046 C3031 0.961 . S
H3047 C3031 0.961 . S
H3048 C3032 0.930 1_655 S
H3049 C3037 0.930 . S
H3050 C3038 0.956 . S
H3051 C3038 0.961 1_455 S
H3052 C3038 0.961 . S
H3053 C3039 0.958 . S
H3054 C3039 0.961 . S
H3055 C3039 0.960 . S
C3056 C3057 1.391 . S
C3056 C3058 1.394 . S
C3056 H3072 0.931 . S
C3057 C3056 1.391 . S
C3057 C3061 1.376 . S
C3058 C3056 1.394 . S
C3058 C3059 1.369 . S
C3058 C3062 1.531 . S
C3059 C3058 1.369 . S
C3059 C3060 1.410 . S
C3059 C3067 1.503 . S
C3060 C3059 1.410 . S
C3060 C3061 1.392 . S
C3060 C3063 1.511 . S
C3061 C3057 1.376 . S
C3061 C3060 1.392 . S
C3061 H3073 0.929 . S
C3062 C3058 1.531 . S
C3062 H3074 0.960 . S
C3062 H3075 0.962 . S
C3062 H3076 0.960 . S
C3063 C3060 1.511 . S
C3063 H3077 0.961 . S
C3063 H3078 0.961 . S
C3063 H3079 0.961 . S
C3064 C3065 1.370 . S
C3064 C3066 1.363 . S
C3064 H3080 0.931 . S
C3065 C3064 1.370 . S
C3065 C3069 1.408 . S
C3066 C3064 1.363 . S
C3066 C3067 1.370 . S
C3066 C3070 1.524 . S
C3067 C3059 1.503 . S
C3067 C3066 1.370 . S
C3067 C3068 1.403 . S
C3068 C3067 1.403 . S
C3068 C3069 1.404 . S
C3068 C3071 1.539 . S
C3069 C3065 1.408 . S
C3069 C3068 1.404 . S
C3069 H3081 0.930 . S
C3070 C3066 1.524 . S
C3070 H3082 0.956 . S
C3070 H3083 0.961 . S
C3070 H3084 0.961 . S
C3071 C3068 1.539 . S
C3071 H3085 0.958 . S
C3071 H3086 0.961 . S
C3071 H3087 0.960 . S
H3072 C3056 0.931 . S
H3073 C3061 0.929 . S
H3074 C3062 0.960 . S
H3075 C3062 0.962 . S
H3076 C3062 0.960 . S
H3077 C3063 0.961 . S
H3078 C3063 0.961 . S
H3079 C3063 0.961 . S
H3080 C3064 0.931 . S
H3081 C3069 0.930 . S
H3082 C3070 0.956 . S
H3083 C3070 0.961 . S
H3084 C3070 0.961 . S
H3085 C3071 0.958 . S
H3086 C3071 0.961 . S
H3087 C3071 0.960 . S
C3088 C3089 1.391 . S
C3088 C3090 1.394 . S
C3088 H3104 0.931 . S
C3089 C3088 1.391 . S
C3089 C3093 1.376 . S
C3090 C3088 1.394 . S
C3090 C3091 1.369 . S
C3090 C3094 1.531 . S
C3091 C3090 1.369 . S
C3091 C3092 1.410 . S
C3091 C3099 1.503 . S
C3092 C3091 1.410 . S
C3092 C3093 1.392 . S
C3092 C3095 1.511 . S
C3093 C3089 1.376 . S
C3093 C3092 1.392 . S
C3093 H3105 0.929 . S
C3094 C3090 1.531 . S
C3094 H3106 0.960 . S
C3094 H3107 0.962 . S
C3094 H3108 0.960 . S
C3095 C3092 1.511 . S
C3095 H3109 0.961 . S
C3095 H3110 0.961 . S
C3095 H3111 0.961 . S
C3096 C3097 1.370 . S
C3096 C3098 1.363 . S
C3096 H3112 0.931 . S
C3097 C3096 1.370 . S
C3097 C3101 1.408 . S
C3098 C3096 1.363 . S
C3098 C3099 1.370 . S
C3098 C3102 1.524 . S
C3099 C3091 1.503 . S
C3099 C3098 1.370 . S
C3099 C3100 1.403 . S
C3100 C3099 1.403 . S
C3100 C3101 1.404 . S
C3100 C3103 1.539 . S
C3101 C3097 1.408 . S
C3101 C3100 1.404 . S
C3101 H3113 0.930 . S
C3102 C3098 1.524 . S
C3102 H3114 0.956 . S
C3102 H3115 0.961 . S
C3102 H3116 0.961 . S
C3103 C3100 1.539 . S
C3103 H3117 0.958 . S
C3103 H3118 0.961 . S
C3103 H3119 0.960 . S
H3104 C3088 0.931 . S
H3105 C3093 0.929 . S
H3106 C3094 0.960 . S
H3107 C3094 0.962 . S
H3108 C3094 0.960 . S
H3109 C3095 0.961 . S
H3110 C3095 0.961 . S
H3111 C3095 0.961 . S
H3112 C3096 0.931 . S
H3113 C3101 0.930 . S
H3114 C3102 0.956 . S
H3115 C3102 0.961 . S
H3116 C3102 0.961 . S
H3117 C3103 0.958 . S
H3118 C3103 0.961 . S
H3119 C3103 0.960 . S
C3120 C3121 1.391 . S
C3120 C3122 1.394 . S
C3120 H3136 0.931 . S
C3121 C3120 1.391 . S
C3121 C3125 1.376 . S
C3122 C3120 1.394 . S
C3122 C3123 1.369 . S
C3122 C3126 1.531 . S
C3123 C3122 1.369 . S
C3123 C3124 1.410 . S
C3123 C3131 1.503 . S
C3124 C3123 1.410 . S
C3124 C3125 1.392 . S
C3124 C3127 1.511 . S
C3125 C3121 1.376 . S
C3125 C3124 1.392 . S
C3125 H3137 0.929 . S
C3126 C3122 1.531 . S
C3126 H3138 0.960 . S
C3126 H3139 0.962 . S
C3126 H3140 0.960 . S
C3127 C3124 1.511 . S
C3127 H3141 0.961 . S
C3127 H3142 0.961 . S
C3127 H3143 0.961 . S
C3128 C3129 1.370 . S
C3128 C3130 1.363 . S
C3128 H3144 0.931 . S
C3129 C3128 1.370 . S
C3129 C3133 1.408 . S
C3130 C3128 1.363 . S
C3130 C3131 1.370 . S
C3130 C3134 1.524 . S
C3131 C3123 1.503 . S
C3131 C3130 1.370 . S
C3131 C3132 1.403 . S
C3132 C3131 1.403 . S
C3132 C3133 1.404 . S
C3132 C3135 1.539 . S
C3133 C3129 1.408 . S
C3133 C3132 1.404 . S
C3133 H3145 0.930 . S
C3134 C3130 1.524 . S
C3134 H3146 0.956 . S
C3134 H3147 0.961 . S
C3134 H3148 0.961 . S
C3135 C3132 1.539 . S
C3135 H3149 0.958 . S
C3135 H3150 0.961 . S
C3135 H3151 0.960 . S
H3136 C3120 0.931 . S
H3137 C3125 0.929 . S
H3138 C3126 0.960 . S
H3139 C3126 0.962 . S
H3140 C3126 0.960 . S
H3141 C3127 0.961 . S
H3142 C3127 0.961 . S
H3143 C3127 0.961 . S
H3144 C3128 0.931 . S
H3145 C3133 0.930 . S
H3146 C3134 0.956 . S
H3147 C3134 0.961 . S
H3148 C3134 0.961 . S
H3149 C3135 0.958 . S
H3150 C3135 0.961 . S
H3151 C3135 0.960 . S
C3152 C3153 1.391 . S
C3152 C3154 1.394 . S
C3152 H3168 0.931 . S
C3153 C3152 1.391 . S
C3153 C3157 1.333 1_455 S
C3154 C3152 1.394 . S
C3154 C3155 1.369 . S
C3154 C3158 1.531 . S
C3155 C3154 1.369 . S
C3155 C3156 1.410 1_455 S
C3155 C3163 1.503 . S
C3156 C3155 1.410 1_655 S
C3156 C3157 1.405 . S
C3156 C3159 1.511 . S
C3157 C3153 1.333 1_655 S
C3157 C3156 1.405 . S
C3157 H3169 0.961 . S
C3158 C3154 1.531 . S
C3158 H3170 0.960 . S
C3158 H3171 0.962 . S
C3158 H3172 0.960 . S
C3159 C3156 1.511 . S
C3159 H3173 0.961 . S
C3159 H3174 0.961 . S
C3159 H3175 0.961 . S
C3160 C3161 1.370 . S
C3160 C3162 1.363 . S
C3160 H3176 0.931 . S
C3161 C3160 1.370 . S
C3161 C3165 1.408 . S
C3162 C3160 1.363 . S
C3162 C3163 1.370 . S
C3162 C3166 1.524 . S
C3163 C3155 1.503 . S
C3163 C3162 1.370 . S
C3163 C3164 1.403 . S
C3164 C3163 1.403 . S
C3164 C3165 1.404 . S
C3164 C3167 1.539 . S
C3165 C3161 1.408 . S
C3165 C3164 1.404 . S
C3165 H3177 0.930 . S
C3166 C3162 1.524 . S
C3166 H3178 0.956 . S
C3166 H3179 0.961 . S
C3166 H3180 0.961 . S
C3167 C3164 1.539 . S
C3167 H3181 0.958 . S
C3167 H3182 0.961 1_455 S
C3167 H3183 0.950 1_455 S
H3168 C3152 0.931 . S
H3169 C3157 0.961 . S
H3170 C3158 0.960 . S
H3171 C3158 0.962 . S
H3172 C3158 0.960 . S
H3173 C3159 0.961 . S
H3174 C3159 0.961 . S
H3175 C3159 0.961 . S
H3176 C3160 0.931 . S
H3177 C3165 0.930 . S
H3178 C3166 0.956 . S
H3179 C3166 0.961 . S
H3180 C3166 0.961 . S
H3181 C3167 0.958 . S
H3182 C3167 0.961 1_655 S
H3183 C3167 0.950 1_655 S
C3184 C3185 1.391 . S
C3184 C3186 1.394 . S
C3184 H3200 0.931 . S
C3185 C3184 1.391 . S
C3185 C3189 1.376 . S
C3186 C3184 1.394 . S
C3186 C3187 1.369 . S
C3186 C3190 1.531 . S
C3187 C3186 1.369 . S
C3187 C3188 1.410 . S
C3187 C3195 1.503 . S
C3188 C3187 1.410 . S
C3188 C3189 1.392 . S
C3188 C3191 1.511 . S
C3189 C3185 1.376 . S
C3189 C3188 1.392 . S
C3189 H3201 0.929 . S
C3190 C3186 1.531 . S
C3190 H3202 0.960 . S
C3190 H3203 0.962 . S
C3190 H3204 0.960 . S
C3191 C3188 1.511 . S
C3191 H3205 0.961 . S
C3191 H3206 0.961 . S
C3191 H3207 0.961 . S
C3192 C3193 1.370 . S
C3192 C3194 1.363 . S
C3192 H3208 0.931 . S
C3193 C3192 1.370 . S
C3193 C3197 1.408 . S
C3194 C3192 1.363 . S
C3194 C3195 1.370 . S
C3194 C3198 1.524 . S
C3195 C3187 1.503 . S
C3195 C3194 1.370 . S
C3195 C3196 1.403 . S
C3196 C3195 1.403 . S
C3196 C3197 1.404 . S
C3196 C3199 1.539 . S
C3197 C3193 1.408 . S
C3197 C3196 1.404 . S
C3197 H3209 0.930 . S
C3198 C3194 1.524 . S
C3198 H3210 0.956 . S
C3198 H3211 0.961 . S
C3198 H3212 0.961 . S
C3199 C3196 1.539 . S
C3199 H3213 0.958 . S
C3199 H3214 0.961 . S
C3199 H3215 0.960 . S
H3200 C3184 0.931 . S
H3201 C3189 0.929 . S
H3202 C3190 0.960 . S
H3203 C3190 0.962 . S
H3204 C3190 0.960 . S
H3205 C3191 0.961 . S
H3206 C3191 0.961 . S
H3207 C3191 0.961 . S
H3208 C3192 0.931 . S
H3209 C3197 0.930 . S
H3210 C3198 0.956 . S
H3211 C3198 0.961 . S
H3212 C3198 0.961 . S
H3213 C3199 0.958 . S
H3214 C3199 0.961 . S
H3215 C3199 0.960 . S
C3216 C3217 1.391 . S
C3216 C3218 1.394 . S
C3216 H3232 0.931 . S
C3217 C3216 1.391 . S
C3217 C3221 1.376 . S
C3218 C3216 1.394 . S
C3218 C3219 1.369 . S
C3218 C3222 1.531 . S
C3219 C3218 1.369 . S
C3219 C3220 1.410 . S
C3219 C3227 1.503 . S
C3220 C3219 1.410 . S
C3220 C3221 1.392 . S
C3220 C3223 1.511 . S
C3221 C3217 1.376 . S
C3221 C3220 1.392 . S
C3221 H3233 0.929 . S
C3222 C3218 1.531 . S
C3222 H3234 0.960 . S
C3222 H3235 0.962 . S
C3222 H3236 0.960 . S
C3223 C3220 1.511 . S
C3223 H3237 0.961 . S
C3223 H3238 0.961 . S
C3223 H3239 0.961 . S
C3224 C3225 1.370 . S
C3224 C3226 1.363 . S
C3224 H3240 0.931 . S
C3225 C3224 1.370 . S
C3225 C3229 1.408 . S
C3226 C3224 1.363 . S
C3226 C3227 1.370 . S
C3226 C3230 1.524 . S
C3227 C3219 1.503 . S
C3227 C3226 1.370 . S
C3227 C3228 1.403 . S
C3228 C3227 1.403 . S
C3228 C3229 1.404 . S
C3228 C3231 1.539 . S
C3229 C3225 1.408 . S
C3229 C3228 1.404 . S
C3229 H3241 0.930 . S
C3230 C3226 1.524 . S
C3230 H3242 0.956 . S
C3230 H3243 0.961 . S
C3230 H3244 0.961 . S
C3231 C3228 1.539 . S
C3231 H3245 0.958 . S
C3231 H3246 0.961 . S
C3231 H3247 0.960 . S
H3232 C3216 0.931 . S
H3233 C3221 0.929 . S
H3234 C3222 0.960 . S
H3235 C3222 0.962 . S
H3236 C3222 0.960 . S
H3237 C3223 0.961 . S
H3238 C3223 0.961 . S
H3239 C3223 0.961 . S
H3240 C3224 0.931 . S
H3241 C3229 0.930 . S
H3242 C3230 0.956 . S
H3243 C3230 0.961 . S
H3244 C3230 0.961 . S
H3245 C3231 0.958 . S
H3246 C3231 0.961 . S
H3247 C3231 0.960 . S
C3248 C3249 1.391 . S
C3248 C3250 1.394 . S
C3248 H3264 0.931 . S
C3249 C3248 1.391 . S
C3249 C3253 1.376 . S
C3250 C3248 1.394 . S
C3250 C3251 1.369 . S
C3250 C3254 1.531 . S
C3251 C3250 1.369 . S
C3251 C3252 1.410 . S
C3251 C3259 1.503 . S
C3252 C3251 1.410 . S
C3252 C3253 1.392 . S
C3252 C3255 1.511 . S
C3253 C3249 1.376 . S
C3253 C3252 1.392 . S
C3253 H3265 0.929 . S
C3254 C3250 1.531 . S
C3254 H3266 0.960 . S
C3254 H3267 0.962 . S
C3254 H3268 0.960 . S
C3255 C3252 1.511 . S
C3255 H3269 0.961 . S
C3255 H3270 0.961 . S
C3255 H3271 0.961 . S
C3256 C3257 1.370 . S
C3256 C3258 1.363 . S
C3256 H3272 0.931 . S
C3257 C3256 1.370 . S
C3257 C3261 1.408 . S
C3258 C3256 1.363 . S
C3258 C3259 1.370 . S
C3258 C3262 1.524 . S
C3259 C3251 1.503 . S
C3259 C3258 1.370 . S
C3259 C3260 1.403 . S
C3260 C3259 1.403 . S
C3260 C3261 1.404 . S
C3260 C3263 1.539 . S
C3261 C3257 1.408 . S
C3261 C3260 1.404 . S
C3261 H3273 0.930 . S
C3262 C3258 1.524 . S
C3262 H3274 0.956 . S
C3262 H3275 0.961 . S
C3262 H3276 0.961 . S
C3263 C3260 1.539 . S
C3263 H3277 0.958 . S
C3263 H3278 0.961 . S
C3263 H3279 0.960 . S
H3264 C3248 0.931 . S
H3265 C3253 0.929 . S
H3266 C3254 0.960 . S
H3267 C3254 0.962 . S
H3268 C3254 0.960 . S
H3269 C3255 0.961 . S
H3270 C3255 0.961 . S
H3271 C3255 0.961 . S
H3272 C3256 0.931 . S
H3273 C3261 0.930 . S
H3274 C3262 0.956 . S
H3275 C3262 0.961 . S
H3276 C3262 0.961 . S
H3277 C3263 0.958 . S
H3278 C3263 0.961 . S
H3279 C3263 0.960 . S
C3280 C3281 1.391 . S
C3280 C3282 1.394 . S
C3280 H3296 0.931 . S
C3281 C3280 1.391 . S
C3281 C3285 1.376 . S
C3282 C3280 1.394 . S
C3282 C3283 1.369 . S
C3282 C3286 1.531 . S
C3283 C3282 1.369 . S
C3283 C3284 1.410 . S
C3283 C3291 1.503 . S
C3284 C3283 1.410 . S
C3284 C3285 1.392 . S
C3284 C3287 1.511 . S
C3285 C3281 1.376 . S
C3285 C3284 1.392 . S
C3285 H3297 0.929 . S
C3286 C3282 1.531 . S
C3286 H3298 0.960 . S
C3286 H3299 0.962 . S
C3286 H3300 0.960 . S
C3287 C3284 1.511 . S
C3287 H3301 0.961 . S
C3287 H3302 0.961 . S
C3287 H3303 0.961 . S
C3288 C3289 1.370 . S
C3288 C3290 1.363 . S
C3288 H3304 0.931 . S
C3289 C3288 1.370 . S
C3289 C3293 1.414 . S
C3290 C3288 1.363 . S
C3290 C3291 1.370 . S
C3290 C3294 1.524 . S
C3291 C3283 1.503 . S
C3291 C3290 1.370 . S
C3291 C3292 1.403 . S
C3292 C3291 1.403 . S
C3292 C3293 1.409 . S
C3292 C3295 1.525 1_655 S
C3293 C3289 1.414 . S
C3293 C3292 1.409 . S
C3293 H3305 0.919 1_655 S
C3294 C3290 1.524 . S
C3294 H3306 0.956 . S
C3294 H3307 0.961 . S
C3294 H3308 0.961 . S
C3295 C3292 1.525 1_455 S
C3295 H3309 0.996 . S
C3295 H3310 0.972 . S
C3295 H3311 0.928 1_455 S
H3296 C3280 0.931 . S
H3297 C3285 0.929 . S
H3298 C3286 0.960 . S
H3299 C3286 0.962 . S
H3300 C3286 0.960 . S
H3301 C3287 0.961 . S
H3302 C3287 0.961 . S
H3303 C3287 0.961 . S
H3304 C3288 0.931 . S
H3305 C3293 0.919 1_455 S
H3306 C3294 0.956 . S
H3307 C3294 0.961 . S
H3308 C3294 0.961 . S
H3309 C3295 0.996 . S
H3310 C3295 0.972 . S
H3311 C3295 0.928 1_655 S
C3312 C3313 1.391 . S
C3312 C3314 1.394 . S
C3312 H3328 0.931 . S
C3313 C3312 1.391 . S
C3313 C3317 1.376 . S
C3314 C3312 1.394 . S
C3314 C3315 1.369 . S
C3314 C3318 1.531 . S
C3315 C3314 1.369 . S
C3315 C3316 1.410 . S
C3315 C3323 1.503 . S
C3316 C3315 1.410 . S
C3316 C3317 1.392 . S
C3316 C3319 1.511 . S
C3317 C3313 1.376 . S
C3317 C3316 1.392 . S
C3317 H3329 0.929 . S
C3318 C3314 1.531 . S
C3318 H3330 0.960 . S
C3318 H3331 0.962 . S
C3318 H3332 0.960 . S
C3319 C3316 1.511 . S
C3319 H3333 0.961 . S
C3319 H3334 0.961 . S
C3319 H3335 0.961 . S
C3320 C3321 1.370 . S
C3320 C3322 1.363 . S
C3320 H3336 0.931 . S
C3321 C3320 1.370 . S
C3321 C3325 1.408 . S
C3322 C3320 1.363 . S
C3322 C3323 1.370 . S
C3322 C3326 1.524 . S
C3323 C3315 1.503 . S
C3323 C3322 1.370 . S
C3323 C3324 1.403 . S
C3324 C3323 1.403 . S
C3324 C3325 1.404 . S
C3324 C3327 1.539 . S
C3325 C3321 1.408 . S
C3325 C3324 1.404 . S
C3325 H3337 0.930 . S
C3326 C3322 1.524 . S
C3326 H3338 0.956 . S
C3326 H3339 0.961 . S
C3326 H3340 0.961 . S
C3327 C3324 1.539 . S
C3327 H3341 0.958 . S
C3327 H3342 0.961 . S
C3327 H3343 0.960 . S
H3328 C3312 0.931 . S
H3329 C3317 0.929 . S
H3330 C3318 0.960 . S
H3331 C3318 0.962 . S
H3332 C3318 0.960 . S
H3333 C3319 0.961 . S
H3334 C3319 0.961 . S
H3335 C3319 0.961 . S
H3336 C3320 0.931 . S
H3337 C3325 0.930 . S
H3338 C3326 0.956 . S
H3339 C3326 0.961 . S
H3340 C3326 0.961 . S
H3341 C3327 0.958 . S
H3342 C3327 0.961 . S
H3343 C3327 0.960 . S
C3344 C3345 1.391 . S
C3344 C3346 1.394 . S
C3344 H3360 0.931 . S
C3345 C3344 1.391 . S
C3345 C3349 1.376 . S
C3346 C3344 1.394 . S
C3346 C3347 1.369 . S
C3346 C3350 1.531 . S
C3347 C3346 1.369 . S
C3347 C3348 1.410 . S
C3347 C3355 1.503 . S
C3348 C3347 1.410 . S
C3348 C3349 1.392 . S
C3348 C3351 1.511 . S
C3349 C3345 1.376 . S
C3349 C3348 1.392 . S
C3349 H3361 0.929 . S
C3350 C3346 1.531 . S
C3350 H3362 0.960 . S
C3350 H3363 0.962 . S
C3350 H3364 0.960 . S
C3351 C3348 1.511 . S
C3351 H3365 0.961 . S
C3351 H3366 0.961 . S
C3351 H3367 0.961 . S
C3352 C3353 1.370 . S
C3352 C3354 1.363 . S
C3352 H3368 0.931 . S
C3353 C3352 1.370 . S
C3353 C3357 1.408 . S
C3354 C3352 1.363 . S
C3354 C3355 1.370 . S
C3354 C3358 1.524 . S
C3355 C3347 1.503 . S
C3355 C3354 1.370 . S
C3355 C3356 1.403 . S
C3356 C3355 1.403 . S
C3356 C3357 1.404 . S
C3356 C3359 1.539 . S
C3357 C3353 1.408 . S
C3357 C3356 1.404 . S
C3357 H3369 0.930 . S
C3358 C3354 1.524 . S
C3358 H3370 0.956 . S
C3358 H3371 0.961 . S
C3358 H3372 0.961 . S
C3359 C3356 1.539 . S
C3359 H3373 0.958 . S
C3359 H3374 0.961 . S
C3359 H3375 0.960 . S
H3360 C3344 0.931 . S
H3361 C3349 0.929 . S
H3362 C3350 0.960 . S
H3363 C3350 0.962 . S
H3364 C3350 0.960 . S
H3365 C3351 0.961 . S
H3366 C3351 0.961 . S
H3367 C3351 0.961 . S
H3368 C3352 0.931 . S
H3369 C3357 0.930 . S
H3370 C3358 0.956 . S
H3371 C3358 0.961 . S
H3372 C3358 0.961 . S
H3373 C3359 0.958 . S
H3374 C3359 0.961 . S
H3375 C3359 0.960 . S
C3376 C3377 1.391 . S
C3376 C3378 1.394 . S
C3376 H3392 0.931 . S
C3377 C3376 1.391 . S
C3377 C3381 1.376 . S
C3378 C3376 1.394 . S
C3378 C3379 1.369 . S
C3378 C3382 1.531 . S
C3379 C3378 1.369 . S
C3379 C3380 1.410 . S
C3379 C3387 1.503 . S
C3380 C3379 1.410 . S
C3380 C3381 1.392 . S
C3380 C3383 1.511 . S
C3381 C3377 1.376 . S
C3381 C3380 1.392 . S
C3381 H3393 0.929 . S
C3382 C3378 1.531 . S
C3382 H3394 0.960 . S
C3382 H3395 0.962 . S
C3382 H3396 0.960 . S
C3383 C3380 1.511 . S
C3383 H3397 0.961 . S
C3383 H3398 0.961 . S
C3383 H3399 0.961 . S
C3384 C3385 1.370 . S
C3384 C3386 1.363 . S
C3384 H3400 0.931 . S
C3385 C3384 1.370 . S
C3385 C3389 1.408 . S
C3386 C3384 1.363 . S
C3386 C3387 1.370 . S
C3386 C3390 1.524 . S
C3387 C3379 1.503 . S
C3387 C3386 1.370 . S
C3387 C3388 1.403 . S
C3388 C3387 1.403 . S
C3388 C3389 1.404 . S
C3388 C3391 1.539 . S
C3389 C3385 1.408 . S
C3389 C3388 1.404 . S
C3389 H3401 0.930 . S
C3390 C3386 1.524 . S
C3390 H3402 0.956 . S
C3390 H3403 0.961 . S
C3390 H3404 0.961 . S
C3391 C3388 1.539 . S
C3391 H3405 0.958 . S
C3391 H3406 0.961 . S
C3391 H3407 0.960 . S
H3392 C3376 0.931 . S
H3393 C3381 0.929 . S
H3394 C3382 0.960 . S
H3395 C3382 0.962 . S
H3396 C3382 0.960 . S
H3397 C3383 0.961 . S
H3398 C3383 0.961 . S
H3399 C3383 0.961 . S
H3400 C3384 0.931 . S
H3401 C3389 0.930 . S
H3402 C3390 0.956 . S
H3403 C3390 0.961 . S
H3404 C3390 0.961 . S
H3405 C3391 0.958 . S
H3406 C3391 0.961 . S
H3407 C3391 0.960 . S
C3408 C3409 1.391 . S
C3408 C3410 1.394 . S
C3408 H3424 0.931 . S
C3409 C3408 1.391 . S
C3409 C3413 1.376 . S
C3410 C3408 1.394 . S
C3410 C3411 1.369 . S
C3410 C3414 1.531 . S
C3411 C3410 1.369 . S
C3411 C3412 1.410 . S
C3411 C3419 1.503 . S
C3412 C3411 1.410 . S
C3412 C3413 1.392 . S
C3412 C3415 1.511 . S
C3413 C3409 1.376 . S
C3413 C3412 1.392 . S
C3413 H3425 0.929 . S
C3414 C3410 1.531 . S
C3414 H3426 0.960 . S
C3414 H3427 0.962 . S
C3414 H3428 0.960 . S
C3415 C3412 1.511 . S
C3415 H3429 0.961 . S
C3415 H3430 0.961 . S
C3415 H3431 0.961 . S
C3416 C3417 1.370 . S
C3416 C3418 1.363 . S
C3416 H3432 0.931 . S
C3417 C3416 1.370 . S
C3417 C3421 1.408 . S
C3418 C3416 1.363 . S
C3418 C3419 1.370 . S
C3418 C3422 1.524 . S
C3419 C3411 1.503 . S
C3419 C3418 1.370 . S
C3419 C3420 1.403 . S
C3420 C3419 1.403 . S
C3420 C3421 1.404 . S
C3420 C3423 1.539 . S
C3421 C3417 1.408 . S
C3421 C3420 1.404 . S
C3421 H3433 0.930 1_655 S
C3422 C3418 1.524 . S
C3422 H3434 0.956 . S
C3422 H3435 0.961 . S
C3422 H3436 0.961 . S
C3423 C3420 1.539 . S
C3423 H3437 0.958 . S
C3423 H3438 0.961 1_655 S
C3423 H3439 0.960 . S
H3424 C3408 0.931 . S
H3425 C3413 0.929 . S
H3426 C3414 0.960 . S
H3427 C3414 0.962 . S
H3428 C3414 0.960 . S
H3429 C3415 0.961 . S
H3430 C3415 0.961 . S
H3431 C3415 0.961 . S
H3432 C3416 0.931 . S
H3433 C3421 0.930 1_455 S
H3434 C3422 0.956 . S
H3435 C3422 0.961 . S
H3436 C3422 0.961 . S
H3437 C3423 0.958 . S
H3438 C3423 0.961 1_455 S
H3439 C3423 0.960 . S
C3440 C3441 1.391 . S
C3440 C3442 1.394 . S
C3440 H3456 0.931 . S
C3441 C3440 1.391 . S
C3441 C3445 1.376 . S
C3442 C3440 1.394 . S
C3442 C3443 1.369 . S
C3442 C3446 1.531 . S
C3443 C3442 1.369 . S
C3443 C3444 1.410 . S
C3443 C3451 1.503 . S
C3444 C3443 1.410 . S
C3444 C3445 1.392 . S
C3444 C3447 1.511 . S
C3445 C3441 1.376 . S
C3445 C3444 1.392 . S
C3445 H3457 0.929 . S
C3446 C3442 1.531 . S
C3446 H3458 0.960 . S
C3446 H3459 0.962 . S
C3446 H3460 0.960 . S
C3447 C3444 1.511 . S
C3447 H3461 0.961 . S
C3447 H3462 0.961 . S
C3447 H3463 0.961 . S
C3448 C3449 1.370 . S
C3448 C3450 1.363 . S
C3448 H3464 0.931 . S
C3449 C3448 1.370 . S
C3449 C3453 1.408 . S
C3450 C3448 1.363 . S
C3450 C3451 1.370 . S
C3450 C3454 1.524 . S
C3451 C3443 1.503 . S
C3451 C3450 1.370 . S
C3451 C3452 1.403 . S
C3452 C3451 1.403 . S
C3452 C3453 1.404 . S
C3452 C3455 1.539 . S
C3453 C3449 1.408 . S
C3453 C3452 1.404 . S
C3453 H3465 0.930 . S
C3454 C3450 1.524 . S
C3454 H3466 0.956 . S
C3454 H3467 0.961 . S
C3454 H3468 0.961 . S
C3455 C3452 1.539 . S
C3455 H3469 0.958 . S
C3455 H3470 0.961 . S
C3455 H3471 0.960 . S
H3456 C3440 0.931 . S
H3457 C3445 0.929 . S
H3458 C3446 0.960 . S
H3459 C3446 0.962 . S
H3460 C3446 0.960 . S
H3461 C3447 0.961 . S
H3462 C3447 0.961 . S
H3463 C3447 0.961 . S
H3464 C3448 0.931 . S
H3465 C3453 0.930 . S
H3466 C3454 0.956 . S
H3467 C3454 0.961 . S
H3468 C3454 0.961 . S
H3469 C3455 0.958 . S
H3470 C3455 0.961 . S
H3471 C3455 0.960 . S
C3472 C3473 1.391 . S
C3472 C3474 1.394 . S
C3472 H3488 0.931 . S
C3473 C3472 1.391 . S
C3473 C3477 1.376 . S
C3474 C3472 1.394 . S
C3474 C3475 1.369 . S
C3474 C3478 1.531 . S
C3475 C3474 1.369 . S
C3475 C3476 1.410 . S
C3475 C3483 1.503 . S
C3476 C3475 1.410 . S
C3476 C3477 1.392 . S
C3476 C3479 1.511 . S
C3477 C3473 1.376 . S
C3477 C3476 1.392 . S
C3477 H3489 0.929 . S
C3478 C3474 1.531 . S
C3478 H3490 0.960 . S
C3478 H3491 0.962 . S
C3478 H3492 0.960 . S
C3479 C3476 1.511 . S
C3479 H3493 0.961 . S
C3479 H3494 0.961 . S
C3479 H3495 0.961 . S
C3480 C3481 1.370 . S
C3480 C3482 1.363 . S
C3480 H3496 0.931 . S
C3481 C3480 1.370 . S
C3481 C3485 1.408 . S
C3482 C3480 1.363 . S
C3482 C3483 1.370 . S
C3482 C3486 1.524 . S
C3483 C3475 1.503 . S
C3483 C3482 1.370 . S
C3483 C3484 1.403 . S
C3484 C3483 1.403 . S
C3484 C3485 1.404 . S
C3484 C3487 1.539 . S
C3485 C3481 1.408 . S
C3485 C3484 1.404 . S
C3485 H3497 0.930 . S
C3486 C3482 1.524 . S
C3486 H3498 0.956 . S
C3486 H3499 0.961 . S
C3486 H3500 0.961 . S
C3487 C3484 1.539 . S
C3487 H3501 0.958 . S
C3487 H3502 0.961 . S
C3487 H3503 0.960 . S
H3488 C3472 0.931 . S
H3489 C3477 0.929 . S
H3490 C3478 0.960 . S
H3491 C3478 0.962 . S
H3492 C3478 0.960 . S
H3493 C3479 0.961 . S
H3494 C3479 0.961 . S
H3495 C3479 0.961 . S
H3496 C3480 0.931 . S
H3497 C3485 0.930 . S
H3498 C3486 0.956 . S
H3499 C3486 0.961 . S
H3500 C3486 0.961 . S
H3501 C3487 0.958 . S
H3502 C3487 0.961 . S
H3503 C3487 0.960 . S
C3504 C3505 1.391 . S
C3504 C3506 1.394 . S
C3504 H3520 0.931 . S
C3505 C3504 1.391 . S
C3505 C3509 1.376 . S
C3506 C3504 1.394 . S
C3506 C3507 1.369 . S
C3506 C3510 1.531 . S
C3507 C3506 1.369 . S
C3507 C3508 1.410 . S
C3507 C3515 1.503 . S
C3508 C3507 1.410 . S
C3508 C3509 1.392 . S
C3508 C3511 1.511 . S
C3509 C3505 1.376 . S
C3509 C3508 1.392 . S
C3509 H3521 0.929 . S
C3510 C3506 1.531 . S
C3510 H3522 0.960 . S
C3510 H3523 0.962 . S
C3510 H3524 0.960 . S
C3511 C3508 1.511 . S
C3511 H3525 0.961 . S
C3511 H3526 0.961 . S
C3511 H3527 0.961 . S
C3512 C3513 1.370 . S
C3512 C3514 1.363 . S
C3512 H3528 0.931 1_565 S
C3513 C3512 1.370 . S
C3513 C3517 1.408 . S
C3514 C3512 1.363 . S
C3514 C3515 1.370 . S
C3514 C3518 1.524 . S
C3515 C3507 1.503 . S
C3515 C3514 1.370 . S
C3515 C3516 1.403 . S
C3516 C3515 1.403 . S
C3516 C3517 1.404 . S
C3516 C3519 1.539 . S
C3517 C3513 1.408 . S
C3517 C3516 1.404 . S
C3517 H3529 0.930 . S
C3518 C3514 1.524 . S
C3518 H3530 0.956 . S
C3518 H3531 0.961 . S
C3518 H3532 0.961 1_565 S
C3519 C3516 1.539 . S
C3519 H3533 0.958 . S
C3519 H3534 0.961 . S
C3519 H3535 0.960 . S
H3520 C3504 0.931 . S
H3521 C3509 0.929 . S
H3522 C3510 0.960 . S
H3523 C3510 0.962 . S
H3524 C3510 0.960 . S
H3525 C3511 0.961 . S
H3526 C3511 0.961 . S
H3527 C3511 0.961 . S
H3528 C3512 0.931 1_545 S
H3529 C3517 0.930 . S
H3530 C3518 0.956 . S
H3531 C3518 0.961 . S
H3532 C3518 0.961 1_545 S
H3533 C3519 0.958 . S
H3534 C3519 0.961 . S
H3535 C3519 0.960 . S
C3536 C3537 1.391 . S
C3536 C3538 1.394 . S
C3536 H3552 0.931 . S
C3537 C3536 1.391 . S
C3537 C3541 1.376 . S
C3538 C3536 1.394 . S
C3538 C3539 1.369 . S
C3538 C3542 1.531 . S
C3539 C3538 1.369 . S
C3539 C3540 1.410 . S
C3539 C3547 1.503 . S
C3540 C3539 1.410 . S
C3540 C3541 1.392 . S
C3540 C3543 1.511 . S
C3541 C3537 1.376 . S
C3541 C3540 1.392 . S
C3541 H3553 0.929 . S
C3542 C3538 1.531 . S
C3542 H3554 0.960 . S
C3542 H3555 0.962 . S
C3542 H3556 0.960 . S
C3543 C3540 1.511 . S
C3543 H3557 0.961 . S
C3543 H3558 0.961 . S
C3543 H3559 0.961 . S
C3544 C3545 1.370 . S
C3544 C3546 1.363 . S
C3544 H3560 0.931 . S
C3545 C3544 1.370 . S
C3545 C3549 1.408 . S
C3546 C3544 1.363 . S
C3546 C3547 1.370 . S
C3546 C3550 1.524 . S
C3547 C3539 1.503 . S
C3547 C3546 1.370 . S
C3547 C3548 1.403 . S
C3548 C3547 1.403 . S
C3548 C3549 1.404 . S
C3548 C3551 1.539 . S
C3549 C3545 1.408 . S
C3549 C3548 1.404 . S
C3549 H3561 0.930 . S
C3550 C3546 1.524 . S
C3550 H3562 0.956 . S
C3550 H3563 0.961 . S
C3550 H3564 0.961 . S
C3551 C3548 1.539 . S
C3551 H3565 0.958 . S
C3551 H3566 0.961 . S
C3551 H3567 0.960 . S
H3552 C3536 0.931 . S
H3553 C3541 0.929 . S
H3554 C3542 0.960 . S
H3555 C3542 0.962 . S
H3556 C3542 0.960 . S
H3557 C3543 0.961 . S
H3558 C3543 0.961 . S
H3559 C3543 0.961 . S
H3560 C3544 0.931 . S
H3561 C3549 0.930 . S
H3562 C3550 0.956 . S
H3563 C3550 0.961 . S
H3564 C3550 0.961 . S
H3565 C3551 0.958 . S
H3566 C3551 0.961 . S
H3567 C3551 0.960 . S
C3568 C3569 1.391 1_554 S
C3568 C3570 1.394 . S
C3568 H3584 0.931 . S
C3569 C3568 1.391 1_556 S
C3569 C3573 1.376 . S
C3570 C3568 1.394 . S
C3570 C3571 1.369 1_554 S
C3570 C3574 1.531 . S
C3571 C3570 1.369 1_556 S
C3571 C3572 1.410 . S
C3571 C3579 1.503 1_556 S
C3572 C3571 1.410 . S
C3572 C3573 1.392 . S
C3572 C3575 1.511 . S
C3573 C3569 1.376 . S
C3573 C3572 1.392 . S
C3573 H3585 0.929 . S
C3574 C3570 1.531 . S
C3574 H3586 0.960 . S
C3574 H3587 0.962 . S
C3574 H3588 0.960 . S
C3575 C3572 1.511 . S
C3575 H3589 0.961 . S
C3575 H3590 0.961 . S
C3575 H3591 0.961 . S
C3576 C3577 1.370 . S
C3576 C3578 1.363 . S
C3576 H3592 0.931 . S
C3577 C3576 1.370 . S
C3577 C3581 1.415 . S
C3578 C3576 1.363 . S
C3578 C3579 1.370 . S
C3578 C3582 1.524 . S
C3579 C3571 1.503 1_554 S
C3579 C3578 1.370 . S
C3579 C3580 1.403 1_554 S
C3580 C3579 1.403 1_556 S
C3580 C3581 1.399 1_556 S
C3580 C3583 1.539 . S
C3581 C3577 1.415 . S
C3581 C3580 1.399 1_554 S
C3581 H3593 0.929 1_554 S
C3582 C3578 1.524 . S
C3582 H3594 0.956 . S
C3582 H3595 0.961 1_554 S
C3582 H3596 0.961 . S
C3583 C3580 1.539 . S
C3583 H3597 0.958 1_556 S
C3583 H3598 0.961 . S
C3583 H3599 0.960 . S
H3584 C3568 0.931 . S
H3585 C3573 0.929 . S
H3586 C3574 0.960 . S
H3587 C3574 0.962 . S
H3588 C3574 0.960 . S
H3589 C3575 0.961 . S
H3590 C3575 0.961 . S
H3591 C3575 0.961 . S
H3592 C3576 0.931 . S
H3593 C3581 0.929 1_556 S
H3594 C3582 0.956 . S
H3595 C3582 0.961 1_556 S
H3596 C3582 0.961 . S
H3597 C3583 0.958 1_554 S
H3598 C3583 0.961 . S
H3599 C3583 0.960 . S
C3600 C3601 1.391 . S
C3600 C3602 1.394 . S
C3600 H3616 0.931 . S
C3601 C3600 1.391 . S
C3601 C3605 1.376 . S
C3602 C3600 1.394 . S
C3602 C3603 1.369 . S
C3602 C3606 1.531 . S
C3603 C3602 1.369 . S
C3603 C3604 1.410 . S
C3603 C3611 1.503 . S
C3604 C3603 1.410 . S
C3604 C3605 1.392 . S
C3604 C3607 1.511 . S
C3605 C3601 1.376 . S
C3605 C3604 1.392 . S
C3605 H3617 0.929 . S
C3606 C3602 1.531 . S
C3606 H3618 0.960 . S
C3606 H3619 0.962 . S
C3606 H3620 0.960 . S
C3607 C3604 1.511 . S
C3607 H3621 0.961 . S
C3607 H3622 0.961 . S
C3607 H3623 0.961 . S
C3608 C3609 1.370 . S
C3608 C3610 1.363 . S
C3608 H3624 0.931 . S
C3609 C3608 1.370 . S
C3609 C3613 1.408 . S
C3610 C3608 1.363 . S
C3610 C3611 1.370 . S
C3610 C3614 1.524 . S
C3611 C3603 1.503 . S
C3611 C3610 1.370 . S
C3611 C3612 1.403 . S
C3612 C3611 1.403 . S
C3612 C3613 1.404 . S
C3612 C3615 1.539 . S
C3613 C3609 1.408 . S
C3613 C3612 1.404 . S
C3613 H3625 0.930 . S
C3614 C3610 1.524 . S
C3614 H3626 0.956 . S
C3614 H3627 0.961 . S
C3614 H3628 0.961 . S
C3615 C3612 1.539 . S
C3615 H3629 0.958 . S
C3615 H3630 0.961 . S
C3615 H3631 0.960 . S
H3616 C3600 0.931 . S
H3617 C3605 0.929 . S
H3618 C3606 0.960 . S
H3619 C3606 0.962 . S
H3620 C3606 0.960 . S
H3621 C3607 0.961 . S
H3622 C3607 0.961 . S
H3623 C3607 0.961 . S
H3624 C3608 0.931 . S
H3625 C3613 0.930 . S
H3626 C3614 0.956 . S
H3627 C3614 0.961 . S
H3628 C3614 0.961 . S
H3629 C3615 0.958 . S
H3630 C3615 0.961 . S
H3631 C3615 0.960 . S
C3632 C3633 1.391 . S
C3632 C3634 1.394 . S
C3632 H3648 0.931 . S
C3633 C3632 1.391 . S
C3633 C3637 1.376 . S
C3634 C3632 1.394 . S
C3634 C3635 1.369 . S
C3634 C3638 1.531 . S
C3635 C3634 1.369 . S
C3635 C3636 1.410 . S
C3635 C3643 1.503 . S
C3636 C3635 1.410 . S
C3636 C3637 1.392 . S
C3636 C3639 1.511 1_554 S
C3637 C3633 1.376 . S
C3637 C3636 1.392 . S
C3637 H3649 0.943 . S
C3638 C3634 1.531 . S
C3638 H3650 0.960 . S
C3638 H3651 0.962 . S
C3638 H3652 0.960 . S
C3639 C3636 1.511 1_556 S
C3639 H3653 0.961 . S
C3639 H3654 0.961 . S
C3639 H3655 0.961 . S
C3640 C3641 1.370 . S
C3640 C3642 1.363 . S
C3640 H3656 0.931 . S
C3641 C3640 1.370 . S
C3641 C3645 1.408 1_556 S
C3642 C3640 1.363 . S
C3642 C3643 1.370 1_556 S
C3642 C3646 1.524 . S
C3643 C3635 1.503 . S
C3643 C3642 1.370 1_554 S
C3643 C3644 1.403 . S
C3644 C3643 1.403 . S
C3644 C3645 1.404 . S
C3644 C3647 1.539 . S
C3645 C3641 1.408 1_554 S
C3645 C3644 1.404 . S
C3645 H3657 0.930 . S
C3646 C3642 1.524 . S
C3646 H3658 0.956 . S
C3646 H3659 0.961 . S
C3646 H3660 0.961 . S
C3647 C3644 1.539 . S
C3647 H3661 0.958 . S
C3647 H3662 0.961 . S
C3647 H3663 0.960 . S
H3648 C3632 0.931 . S
H3649 C3637 0.943 . S
H3650 C3638 0.960 . S
H3651 C3638 0.962 . S
H3652 C3638 0.960 . S
H3653 C3639 0.961 . S
H3654 C3639 0.961 . S
H3655 C3639 0.961 . S
H3656 C3640 0.931 . S
H3657 C3645 0.930 . S
H3658 C3646 0.956 . S
H3659 C3646 0.961 . S
H3660 C3646 0.961 . S
H3661 C3647 0.958 . S
H3662 C3647 0.961 . S
H3663 C3647 0.960 . S
C3664 C3665 1.391 . S
C3664 C3666 1.394 . S
C3664 H3680 0.931 . S
C3665 C3664 1.391 . S
C3665 C3669 1.376 . S
C3666 C3664 1.394 . S
C3666 C3667 1.369 . S
C3666 C3670 1.531 . S
C3667 C3666 1.369 . S
C3667 C3668 1.410 . S
C3667 C3675 1.503 . S
C3668 C3667 1.410 . S
C3668 C3669 1.392 . S
C3668 C3671 1.511 . S
C3669 C3665 1.376 . S
C3669 C3668 1.392 . S
C3669 H3681 0.929 . S
C3670 C3666 1.531 . S
C3670 H3682 0.960 . S
C3670 H3683 0.962 . S
C3670 H3684 0.960 . S
C3671 C3668 1.511 . S
C3671 H3685 0.961 . S
C3671 H3686 0.961 . S
C3671 H3687 0.961 . S
C3672 C3673 1.370 . S
C3672 C3674 1.363 . S
C3672 H3688 0.931 . S
C3673 C3672 1.370 . S
C3673 C3677 1.408 . S
C3674 C3672 1.363 . S
C3674 C3675 1.370 . S
C3674 C3678 1.524 . S
C3675 C3667 1.503 . S
C3675 C3674 1.370 . S
C3675 C3676 1.403 . S
C3676 C3675 1.403 . S
C3676 C3677 1.404 . S
C3676 C3679 1.539 . S
C3677 C3673 1.408 . S
C3677 C3676 1.404 . S
C3677 H3689 0.930 . S
C3678 C3674 1.524 . S
C3678 H3690 0.956 . S
C3678 H3691 0.961 . S
C3678 H3692 0.961 . S
C3679 C3676 1.539 . S
C3679 H3693 0.958 . S
C3679 H3694 0.961 . S
C3679 H3695 0.960 . S
H3680 C3664 0.931 . S
H3681 C3669 0.929 . S
H3682 C3670 0.960 . S
H3683 C3670 0.962 . S
H3684 C3670 0.960 . S
H3685 C3671 0.961 . S
H3686 C3671 0.961 . S
H3687 C3671 0.961 . S
H3688 C3672 0.931 . S
H3689 C3677 0.930 . S
H3690 C3678 0.956 . S
H3691 C3678 0.961 . S
H3692 C3678 0.961 . S
H3693 C3679 0.958 . S
H3694 C3679 0.961 . S
H3695 C3679 0.960 . S
C3696 C3697 1.391 . S
C3696 C3698 1.394 . S
C3696 H3712 0.931 . S
C3697 C3696 1.391 . S
C3697 C3701 1.376 . S
C3698 C3696 1.394 . S
C3698 C3699 1.369 . S
C3698 C3702 1.531 . S
C3699 C3698 1.369 . S
C3699 C3700 1.410 . S
C3699 C3707 1.503 . S
C3700 C3699 1.410 . S
C3700 C3701 1.392 . S
C3700 C3703 1.511 . S
C3701 C3697 1.376 . S
C3701 C3700 1.392 . S
C3701 H3713 0.929 . S
C3702 C3698 1.531 . S
C3702 H3714 0.960 . S
C3702 H3715 0.962 . S
C3702 H3716 0.960 . S
C3703 C3700 1.511 . S
C3703 H3717 0.961 . S
C3703 H3718 0.961 . S
C3703 H3719 0.961 . S
C3704 C3705 1.370 . S
C3704 C3706 1.363 . S
C3704 H3720 0.931 . S
C3705 C3704 1.370 . S
C3705 C3709 1.408 . S
C3706 C3704 1.363 . S
C3706 C3707 1.370 . S
C3706 C3710 1.524 . S
C3707 C3699 1.503 . S
C3707 C3706 1.370 . S
C3707 C3708 1.403 . S
C3708 C3707 1.403 . S
C3708 C3709 1.404 . S
C3708 C3711 1.539 . S
C3709 C3705 1.408 . S
C3709 C3708 1.404 . S
C3709 H3721 0.930 . S
C3710 C3706 1.524 . S
C3710 H3722 0.956 . S
C3710 H3723 0.961 . S
C3710 H3724 0.961 . S
C3711 C3708 1.539 . S
C3711 H3725 0.958 . S
C3711 H3726 0.961 . S
C3711 H3727 0.960 . S
H3712 C3696 0.931 . S
H3713 C3701 0.929 . S
H3714 C3702 0.960 . S
H3715 C3702 0.962 . S
H3716 C3702 0.960 . S
H3717 C3703 0.961 . S
H3718 C3703 0.961 . S
H3719 C3703 0.961 . S
H3720 C3704 0.931 . S
H3721 C3709 0.930 . S
H3722 C3710 0.956 . S
H3723 C3710 0.961 . S
H3724 C3710 0.961 . S
H3725 C3711 0.958 . S
H3726 C3711 0.961 . S
H3727 C3711 0.960 . S
C657 C105 1.277 . S
C665 C352 1.211 1_556 S
C689 C65 1.346 . S
C697 C365 1.317 . S
C721 C73 1.352 . S
C729 C384 1.335 . S
C761 C415 1.900 . S
C753 C92 1.942 . S
C785 C17 1.790 . S
C793 C435 1.770 . S
C825 C452 0.860 . S
C817 C37 0.860 . S
C857 C465 1.510 . S
C849 C49 1.487 . S
C881 C8 1.014 . S
C889 C492 1.015 . S
C921 C345 1.216 . S
C913 C231 1.169 . S
C945 C241 1.471 . S
C953 C375 1.435 . S
C985 C377 1.688 . S
C977 C273 1.643 . S
C1017 C412 0.872 . S
C1009 C171 0.874 . S
C1041 C227 1.136 . S
C1049 C432 1.118 . S
C1081 C445 1.772 . S
C1073 C245 1.704 . S
C1113 C475 1.299 . S
C1105 C269 1.319 . S
C1145 C485 1.208 . S
C1137 C175 1.225 . S
C1177 C355 1.610 . S
C1169 C162 1.622 . S
C1201 C289 1.778 . S
C1209 C505 1.789 . S
C1241 C535 1.624 . S
C1233 C330 1.626 . S
C1273 C552 1.201 . S
C1265 C317 1.220 . S
C1297 C120 1.902 . S
C1305 C495 1.897 . S
C1329 C134 1.282 . S
C1337 C382 1.226 . S
C1361 C331 1.803 . S
C1369 C565 1.812 . S
C1401 C592 0.961 . S
C1393 C303 0.997 . S
C1433 C342 1.261 . S
C1425 C59 1.303 . S
C1465 C577 1.344 . S
C1457 C107 1.362 . S
C1489 C91 1.368 . S
C1497 C395 1.383 . S
C1521 C78 1.976 . S
C1529 C564 1.933 . S
C1561 C424 1.800 . S
C1553 C7 1.781 . S
C1585 C51 0.885 . S
C1593 C522 0.886 . S
C1625 C457 1.541 . S
C1617 C31 1.520 . S
C1657 C602 1.001 . S
C1649 C22 1.050 . S
C1689 C337 1.252 . S
C1681 C143 1.261 . S
C1721 C584 1.483 . S
C1713 C315 1.416 . S
C1745 C115 1.756 . S
C1753 C385 1.699 . S
C1777 C287 0.926 . S
C1785 C562 0.904 . S
C1809 C147 1.099 . S
C1817 C422 1.144 . S
C1849 C517 1.789 . S
C1841 C311 1.781 . S
C1873 C119 1.313 . S
C1881 C464 1.311 . S
C1905 C283 1.245 . S
C1913 C597 1.207 . S
C1937 C190 1.659 . S
C1945 C344 1.636 . S
C1969 C177 1.795 . S
C1977 C497 1.799 . S
C2001 C260 1.642 . S
C2009 C444 1.655 . S
C2033 C247 1.256 . S
C2041 C542 1.231 . S
C2073 C604 1.910 . S
C2065 C274 1.919 . S
C2097 C218 1.296 . S
C2105 C392 1.221 1_565 S
C2137 C397 1.833 . S
C2129 C261 1.830 . S
C2169 C362 1.006 . S
C2161 C205 1.025 . S
C2193 C77 1.271 . S
C2201 C632 1.226 . S
C2233 C585 1.327 . S
C2225 C93 1.324 . S
C2257 C101 1.355 . S
C2265 C644 1.323 1_455 S
C2289 C64 1.930 . S
C2297 C575 1.900 . S
C2321 C45 1.791 . S
C2329 C515 1.768 . S
C2361 C532 0.884 . S
C2353 C9 0.884 . S
C2393 C545 1.510 1_655 S
C2385 C21 1.487 . S
C2425 C612 1.009 . S
C2417 C36 1.001 . S
C2457 C625 1.236 . S
C2449 C259 1.221 . S
C2481 C185 1.476 . S
C2489 C595 1.457 . S
C2521 C637 1.671 . S
C2513 C203 1.698 . S
C2553 C572 0.858 . S
C2545 C213 0.856 . S
C2585 C512 1.117 . S
C2577 C255 1.135 . S
C2609 C189 1.725 . S
C2617 C525 1.770 . S
C2649 C555 1.283 . S
C2641 C199 1.309 . S
C2673 C217 1.163 . S
C2681 C605 1.184 . S
C2713 C635 1.604 . S
C2705 C316 1.615 . S
C2737 C135 1.781 . S
C2745 C425 1.785 . S
C2777 C455 1.626 . S
C2769 C148 1.635 . S
C2809 C472 1.200 . S
C2801 C163 1.218 . S
C2841 C615 1.895 . S
C2833 C302 1.885 . S
C2865 C288 1.275 . S
C2873 C642 1.221 . S
C2905 C405 1.814 . S
C2897 C149 1.799 . S
C2937 C372 0.954 . S
C2929 C121 0.960 . S
C2961 C87 1.291 . S
C2969 C622 1.258 . S
C3001 C357 1.354 . S
C2993 C79 1.376 . S
C3025 C63 1.317 . S
C3033 C655 1.368 . S
C3057 C106 1.981 . S
C3065 C404 1.941 . S
C3089 C35 1.798 . S
C3097 C504 1.792 1_556 S
C3129 C442 0.906 . S
C3121 C23 0.906 . S
C3153 C3 1.522 . S
C3161 C537 1.520 . S
C3185 C50 1.034 . S
C3193 C482 1.037 . S
C3225 C617 1.260 . S
C3217 C325 1.267 . S
C3249 C161 1.482 . S
C3257 C364 1.488 . S
C3289 C645 1.707 . S
C3281 C297 1.764 . S
C3313 C133 0.935 . S
C3321 C402 0.907 . S
C3345 C329 1.124 . S
C3353 C502 1.148 . S
C3385 C437 1.790 . S
C3377 C157 1.791 . S
C3409 C301 1.308 . S
C3417 C544 1.310 . S
C3449 C477 1.229 . S
C3441 C129 1.242 . S
C3481 C624 1.635 . S
C3473 C246 1.652 . S
C3513 C417 1.801 1_565 S
C3505 C219 1.792 . S
C3537 C232 1.641 . S
C3545 C524 1.655 . S
C3577 C462 1.222 . S
C3569 C191 1.227 . S
C3601 C204 1.928 . S
C3609 C484 1.916 . S
C3633 C176 1.276 . S
C3641 C652 1.239 . S
C3673 C557 1.844 . S
C3665 C233 1.831 1_565 S
C3705 C582 0.973 . S
C3697 C275 1.000 . S
