# Generated by pormake.
# Topology nia, (6,6)-cn, num edge types: 1
# Building blocks:
#     Node 0, Type 0, BuildingBlock: JUFBIX_clean_sbu_0, # of connection points: 6
#     Node 1, Type 0, BuildingBlock: JUFBIX_clean_sbu_0, # of connection points: 6
#     Node 2, Type 1, BuildingBlock: MIDCAF_clean_sbu_0, # of connection points: 6
#     Node 3, Type 1, BuildingBlock: MIDCAF_clean_sbu_0, # of connection points: 6
#     Edge 4, Type (0, 1), BuildingBlock: ZUJKAS_clean_linker_0, # of connection points: 2
#     Edge 5, Type (0, 1), BuildingBlock: ZUJKAS_clean_linker_0, # of connection points: 2
#     Edge 6, Type (0, 1), BuildingBlock: ZUJKAS_clean_linker_0, # of connection points: 2
#     Edge 7, Type (0, 1), BuildingBlock: ZUJKAS_clean_linker_0, # of connection points: 2
#     Edge 8, Type (0, 1), BuildingBlock: ZUJKAS_clean_linker_0, # of connection points: 2
#     Edge 9, Type (0, 1), BuildingBlock: ZUJKAS_clean_linker_0, # of connection points: 2
#     Edge 10, Type (0, 1), BuildingBlock: ZUJKAS_clean_linker_0, # of connection points: 2
#     Edge 11, Type (0, 1), BuildingBlock: ZUJKAS_clean_linker_0, # of connection points: 2
#     Edge 12, Type (0, 1), BuildingBlock: ZUJKAS_clean_linker_0, # of connection points: 2
#     Edge 13, Type (0, 1), BuildingBlock: ZUJKAS_clean_linker_0, # of connection points: 2
#     Edge 14, Type (0, 1), BuildingBlock: ZUJKAS_clean_linker_0, # of connection points: 2
#     Edge 15, Type (0, 1), BuildingBlock: ZUJKAS_clean_linker_0, # of connection points: 2
# Relax obj value: 0.139
# Max RMSD: 0.237
# Mean RMSD: 0.150
data_MOF--net-nia--node1-JUFBIX_clean_sbu_0--node2-MIDCAF_clean_sbu_0--edge1-ZUJKAS_clean_linker_0
_symmetry_space_group_name_H-M    P1
_symmetry_Int_Tables_number       1
_symmetry_cell_setting            triclinic
loop_
_symmetry_equiv_pos_as_xyz
'x, y, z'
_cell_length_a     29.768998
_cell_length_b     29.796701
_cell_length_c     44.635083
_cell_angle_alpha  86.266304
_cell_angle_beta   86.41082
_cell_angle_gamma 120.84908
loop_
_atom_site_label
_atom_site_type_symbol
_atom_site_fract_x
_atom_site_fract_y
_atom_site_fract_z
_atom_type_partial_charge
Co0 Co 0.99117 0.96592 1.01129 0.0
C1 C 0.94038 0.9743 0.06399 0.0
Co2 Co 0.037 0.04073 0.03114 0.0
C3 C 0.96283 0.88125 0.97368 0.0
C4 C 0.89538 0.87521 0.99805 0.0
N5 N 0.94852 0.90435 0.99422 0.0
N6 N 0.92084 0.83915 0.96463 0.0
C7 C 0.87834 0.83502 0.98007 0.0
H8 H 0.0032 0.89527 0.96516 0.0
H9 H 0.87029 0.88351 1.01221 0.0
C10 C 0.08724 0.0319 0.97823 0.0
N11 N 0.08094 0.1019 0.04806 0.0
C12 C 0.07093 0.13323 0.06432 0.0
C13 C 0.13302 0.12141 0.04833 0.0
N14 N 0.11485 0.17101 0.07486 0.0
C15 C 0.15385 0.16369 0.06459 0.0
C16 C 0.05164 0.95857 0.05259 0.0
O17 O 0.04541 0.98732 0.97926 0.0
O18 O 0.09159 0.061 0.99879 0.0
O19 O 0.06374 0.00579 0.05435 0.0
O20 O 0.01949 0.93204 0.03424 0.0
O21 O 0.98146 0.01978 0.06317 0.0
H22 H 0.15444 0.10498 0.03805 0.0
H23 H 0.03205 0.12724 0.06927 0.0
O24 O 0.93764 0.9454 0.04362 0.0
O25 O 0.96316 0.00035 0.98851 0.0
O26 O 0.00992 0.07495 1.00768 0.0
C27 C 0.97682 0.04822 0.98977 0.0
H28 H 0.83777 0.80632 0.97759 0.0
H29 H 0.19467 0.18708 0.06868 0.0
Co30 Co 0.02912 0.02422 0.5315 0.0
C31 C 0.02241 0.08338 0.48243 0.0
Co32 Co 0.95493 0.9831 0.51055 0.0
C33 C 0.1154 0.04741 0.56798 0.0
C34 C 0.11445 0.11558 0.55062 0.0
N35 N 0.09048 0.06313 0.54952 0.0
N36 N 0.15321 0.08801 0.58073 0.0
C37 C 0.1529 0.13089 0.56962 0.0
H38 H 0.10408 0.00676 0.57337 0.0
H39 H 0.1029 0.14094 0.53963 0.0
C40 C 0.96171 0.92406 0.55966 0.0
N41 N 0.89289 0.94618 0.49296 0.0
C42 C 0.88457 0.95102 0.4638 0.0
C43 C 0.84523 0.90995 0.50733 0.0
N44 N 0.83347 0.91957 0.45943 0.0
C45 C 0.8088 0.89346 0.48687 0.0
C46 C 0.03583 0.97021 0.48556 0.0
O47 O 0.00599 0.96553 0.56087 0.0
O48 O 0.93388 0.92306 0.53893 0.0
O49 O 0.9889 0.95956 0.48351 0.0
O50 O 0.06137 -0.00186 0.50581 0.0
O51 O 0.97663 0.04346 0.4824 0.0
H52 H 0.83725 0.89696 0.53129 0.0
H53 H 0.91523 0.97833 0.44631 0.0
O54 O 0.05141 0.08242 0.5018 0.0
O55 O 0.9966 0.0496 0.55711 0.0
O56 O 0.9216 0.00691 0.53808 0.0
C57 C 0.94881 0.03657 0.55723 0.0
H58 H 0.17787 0.1704 0.57544 0.0
H59 H 0.76726 0.86454 0.49199 0.0
Zn60 Zn 0.32903 0.70606 0.18252 0.0
Zn61 Zn 0.34693 0.69705 0.33057 0.0
Zn62 Zn 0.32844 0.69633 0.27601 0.0
C63 C 0.44401 0.74633 0.29473 0.0
C64 C 0.28243 0.59134 0.32344 0.0
O65 O 0.28402 0.73447 0.2659 0.0
O66 O 0.30449 0.71414 0.22418 0.0
C67 C 0.42854 0.75397 0.2139 0.0
O68 O 0.41446 0.73926 0.27357 0.0
O69 O 0.42398 0.72966 0.32182 0.0
O70 O 0.30481 0.6202 0.34375 0.0
O71 O 0.28724 0.61237 0.29634 0.0
O72 O 0.4065 0.74634 0.18938 0.0
O73 O 0.40275 0.73738 0.24098 0.0
O74 O 0.28272 0.61486 0.26591 0.0
O75 O 0.30325 0.66185 0.22329 0.0
C76 C 0.28093 0.61625 0.23746 0.0
O77 O 0.29222 0.73806 0.29644 0.0
O78 O 0.31822 0.74197 0.342 0.0
C79 C 0.28249 0.73527 0.23742 0.0
C80 C 0.29445 0.75292 0.32305 0.0
Zn81 Zn 0.6713 0.31982 0.83058 0.0
Zn82 Zn 0.7071 0.32052 0.71486 0.0
Zn83 Zn 0.68978 0.31872 0.77248 0.0
C84 C 0.74651 0.42389 0.7231 0.0
C85 C 0.59894 0.25649 0.72985 0.0
O86 O 0.72538 0.27863 0.79588 0.0
O87 O 0.6986 0.27427 0.84393 0.0
C88 C 0.73759 0.42388 0.80668 0.0
O89 O 0.73331 0.4023 0.75075 0.0
O90 O 0.7369 0.39566 0.70173 0.0
O91 O 0.63371 0.26849 0.70808 0.0
O92 O 0.61214 0.27412 0.75546 0.0
O93 O 0.7155 0.39645 0.83176 0.0
O94 O 0.73155 0.40191 0.7821 0.0
O95 O 0.6026 0.27703 0.78601 0.0
O96 O 0.59486 0.28971 0.8339 0.0
C97 C 0.57385 0.27166 0.81043 0.0
O98 O 0.73369 0.27757 0.76456 0.0
O99 O 0.75688 0.296 0.7152 0.0
C100 C 0.7228 0.26372 0.82402 0.0
C101 C 0.75848 0.27559 0.74043 0.0
H102 H 0.02847 0.85627 0.05962 0.0
H103 H 0.06606 0.81888 0.0933 0.0
H104 H 0.16343 0.97078 0.12383 0.0
H105 H 0.12658 0.00846 0.09034 0.0
H106 H 0.21775 0.91963 0.10722 0.0
H107 H 0.03782 0.79004 0.18705 0.0
H108 H 0.03001 0.7826 0.14772 0.0
H109 H 0.04454 0.84335 0.1616 0.0
C110 C 0.05786 0.88166 0.07352 0.0
C111 C 0.07442 0.9353 0.07233 0.0
C112 C 0.079 0.86018 0.09289 0.0
C113 C 0.11697 0.89197 0.11134 0.0
C114 C 0.13394 0.94554 0.10992 0.0
H115 H 0.24786 0.79916 0.25701 0.0
H116 H 0.20703 0.83876 0.22771 0.0
C117 C 0.11277 0.96696 0.09072 0.0
C118 C 0.14052 0.87011 0.13148 0.0
H119 H 0.11205 0.78165 0.19298 0.0
C120 C 0.19469 0.8896 0.12603 0.0
C121 C 0.11043 0.83147 0.15623 0.0
C122 C 0.05254 0.81082 0.16378 0.0
C123 C 0.21937 0.8705 0.14424 0.0
C124 C 0.18901 0.83075 0.16841 0.0
C125 C 0.13509 0.81209 0.17436 0.0
C126 C 0.21228 0.8062 0.18662 0.0
C127 C 0.27775 0.89283 0.13751 0.0
C128 C 0.22795 0.77443 0.17328 0.0
C129 C 0.25062 0.75153 0.18994 0.0
C130 C 0.25822 0.76 0.22032 0.0
C131 C 0.2421 0.79156 0.23378 0.0
C132 C 0.21899 0.81431 0.21706 0.0
H133 H 0.29732 0.93065 0.12257 0.0
H134 H 0.29676 0.89924 0.15873 0.0
H135 H 0.28425 0.86441 0.12598 0.0
H136 H 0.22247 0.76722 0.14992 0.0
H137 H 0.26179 0.72683 0.17896 0.0
H138 H 0.19652 0.02741 0.58471 0.0
H139 H 0.26068 0.03461 0.6192 0.0
H140 H 0.24612 0.15327 0.66157 0.0
H141 H 0.18213 0.14581 0.62759 0.0
H142 H 0.35508 0.13129 0.61867 0.0
H143 H 0.24915 0.06332 0.73417 0.0
H144 H 0.2157 0.04507 0.70061 0.0
H145 H 0.23657 0.10839 0.7131 0.0
C146 C 0.20613 0.05393 0.60193 0.0
C147 C 0.18504 0.08654 0.60327 0.0
C148 C 0.24264 0.05803 0.62158 0.0
C149 C 0.25764 0.09403 0.64317 0.0
C150 C 0.23439 0.12452 0.64552 0.0
H151 H 0.51738 0.27188 0.74313 0.0
H152 H 0.42976 0.22358 0.7255 0.0
C153 C 0.19843 0.12078 0.62579 0.0
C154 C 0.30314 0.10606 0.65997 0.0
H155 H 0.34341 0.11953 0.73059 0.0
C156 C 0.35245 0.12771 0.64315 0.0
C157 C 0.29955 0.10221 0.69189 0.0
C158 C 0.2473 0.07804 0.71104 0.0
C159 C 0.39868 0.14781 0.65725 0.0
C160 C 0.39532 0.14461 0.6892 0.0
C161 C 0.34583 0.12174 0.70614 0.0
C162 C 0.44336 0.16707 0.70497 0.0
C163 C 0.45086 0.17476 0.63763 0.0
C164 C 0.47875 0.14963 0.7006 0.0
C165 C 0.52871 0.17755 0.71017 0.0
C166 C 0.54346 0.22235 0.72506 0.0
C167 C 0.50659 0.23725 0.73177 0.0
C168 C 0.4567 0.20972 0.72173 0.0
H169 H 0.44712 0.18579 0.61405 0.0
H170 H 0.48042 0.21088 0.64684 0.0
H171 H 0.46593 0.14761 0.63686 0.0
H172 H 0.46874 0.11607 0.68836 0.0
H173 H 0.55655 0.16522 0.70498 0.0
H174 H 0.05954 0.22064 0.07647 0.0
H175 H 0.07713 0.29485 0.1052 0.0
H176 H 0.20019 0.28425 0.14483 0.0
H177 H 0.18255 0.21035 0.11681 0.0
H178 H 0.08728 0.30488 0.17421 0.0
H179 H 0.26817 0.43723 0.09557 0.0
H180 H 0.21463 0.37644 0.08538 0.0
H181 H 0.25995 0.3752 0.10964 0.0
C182 C 0.08964 0.23364 0.09173 0.0
C183 C 0.12031 0.21033 0.09397 0.0
C184 C 0.09972 0.27598 0.10803 0.0
C185 C 0.14043 0.29529 0.12675 0.0
C186 C 0.16909 0.27029 0.13018 0.0
H187 H 0.25461 0.51647 0.25856 0.0
H188 H 0.21438 0.43793 0.23185 0.0
C189 C 0.15914 0.22828 0.11399 0.0
C190 C 0.15586 0.34349 0.14143 0.0
H191 H 0.25742 0.47005 0.14071 0.0
C192 C 0.12414 0.34124 0.16677 0.0
C193 C 0.20382 0.3908 0.13149 0.0
C194 C 0.23859 0.39552 0.10389 0.0
C195 C 0.14014 0.3849 0.18307 0.0
C196 C 0.18924 0.43154 0.17383 0.0
C197 C 0.21997 0.43416 0.14787 0.0
C198 C 0.21014 0.47806 0.19088 0.0
C199 C 0.10449 0.38082 0.20999 0.0
C200 C 0.22197 0.52681 0.17657 0.0
C201 C 0.24477 0.57158 0.19183 0.0
C202 C 0.25639 0.56849 0.22167 0.0
C203 C 0.24476 0.51971 0.23593 0.0
C204 C 0.22181 0.47485 0.22066 0.0
H205 H 0.06325 0.34827 0.2094 0.0
H206 H 0.11857 0.37285 0.23098 0.0
H207 H 0.10494 0.41817 0.21106 0.0
H208 H 0.21373 0.53024 0.15351 0.0
H209 H 0.25325 0.60862 0.18024 0.0
H210 H 0.8481 0.01843 0.56519 0.0
H211 H 0.8115 0.04839 0.60461 0.0
H212 H 0.96045 0.12378 0.64144 0.0
H213 H -0.00285 0.09423 0.60257 0.0
H214 H 0.86904 0.06479 0.68603 0.0
H215 H 0.85641 0.20585 0.60392 0.0
H216 H 0.82434 0.13859 0.59581 0.0
H217 H 0.89476 0.17647 0.59458 0.0
C218 C 0.87299 0.0414 0.58169 0.0
C219 C 0.92566 0.05436 0.58053 0.0
C220 C 0.85203 0.05835 0.6042 0.0
C221 C 0.88341 0.08838 0.62585 0.0
C222 C 0.93555 0.10046 0.62503 0.0
H223 H 0.86032 0.31278 0.72173 0.0
H224 H 0.8934 0.26079 0.69985 0.0
C225 C 0.95653 0.0838 0.60259 0.0
C226 C 0.86347 0.11016 0.64841 0.0
H227 H 0.8297 0.20272 0.65497 0.0
C228 C 0.85998 0.09466 0.67934 0.0
C229 C 0.85241 0.14954 0.63952 0.0
C230 C 0.85744 0.16907 0.6067 0.0
C231 C 0.846 0.11798 0.70163 0.0
C232 C 0.83542 0.15763 0.69264 0.0
C233 C 0.83814 0.17241 0.66175 0.0
C234 C 0.82241 0.1858 0.71443 0.0
C235 C 0.84402 0.10133 0.73455 0.0
C236 C 0.77303 0.16051 0.73177 0.0
C237 C 0.75447 0.19032 0.74484 0.0
C238 C 0.78494 0.24549 0.74024 0.0
C239 C 0.83649 0.27024 0.72584 0.0
C240 C 0.85519 0.24059 0.71313 0.0
H241 H 0.86129 0.07622 0.73774 0.0
H242 H 0.8654 0.13638 0.74684 0.0
H243 H 0.80241 0.07871 0.74484 0.0
H244 H 0.7469 0.11832 0.73275 0.0
H245 H 0.71421 0.17057 0.75537 0.0
H246 H 0.92085 0.02954 0.10488 0.0
H247 H 0.84007 0.99716 0.13941 0.0
H248 H 0.77697 0.84266 0.11053 0.0
H249 H 0.85644 0.87445 0.07604 0.0
H250 H 0.71266 0.8838 0.10424 0.0
H251 H 0.77485 0.89702 0.21988 0.0
H252 H 0.81294 0.9551 0.1933 0.0
H253 H 0.8139 0.89661 0.18733 0.0
C254 C 0.89008 0.98848 0.10631 0.0
C255 C 0.89492 0.95475 0.08748 0.0
C256 C 0.84409 0.96995 0.12618 0.0
C257 C 0.80258 0.91735 0.1277 0.0
C258 C 0.80846 0.88333 0.1098 0.0
H259 H 0.49478 0.72015 0.22859 0.0
H260 H 0.58979 0.76511 0.21196 0.0
C261 C 0.85398 0.90172 0.08998 0.0
C262 C 0.75061 0.89859 0.145 0.0
H263 H 0.68595 0.87188 0.21601 0.0
C264 C 0.70693 0.88133 0.12868 0.0
C265 C 0.74314 0.89504 0.1769 0.0
C266 C 0.7885 0.9115 0.19555 0.0
C267 C 0.65604 0.86038 0.14324 0.0
C268 C 0.64848 0.85745 0.17508 0.0
C269 C 0.69201 0.87461 0.19159 0.0
C270 C 0.595 0.83548 0.19107 0.0
C271 C 0.61048 0.84047 0.12439 0.0
C272 C 0.56718 0.86109 0.18596 0.0
C273 C 0.51325 0.83545 0.19522 0.0
C274 C 0.48649 0.78424 0.21028 0.0
C275 C 0.51491 0.75992 0.2173 0.0
C276 C 0.56901 0.78555 0.20785 0.0
H277 H 0.62143 0.83497 0.10125 0.0
H278 H 0.57649 0.80244 0.13523 0.0
H279 H 0.59763 0.86941 0.12232 0.0
H280 H 0.58657 0.89969 0.17319 0.0
H281 H 0.49191 0.85469 0.18941 0.0
H282 H 0.87826 0.82465 0.55813 0.0
H283 H 0.84552 0.74858 0.59582 0.0
H284 H 0.96638 0.84302 0.65123 0.0
H285 H 0.00067 0.91902 0.61295 0.0
H286 H 0.95974 0.75281 0.64931 0.0
H287 H 0.75777 0.71156 0.67483 0.0
H288 H 0.77168 0.71298 0.63504 0.0
H289 H 0.80885 0.77175 0.65317 0.0
C290 C 0.89779 0.82934 0.57838 0.0
C291 C 0.942 0.87792 0.58257 0.0
C292 C 0.87864 0.78589 0.60012 0.0
C293 C 0.9025 0.79029 0.62683 0.0
C294 C 0.94693 0.83872 0.63097 0.0
H295 H 0.73541 0.49685 0.75233 0.0
H296 H 0.77943 0.59189 0.73644 0.0
C297 C 0.96656 0.88211 0.60903 0.0
C298 C 0.8829 0.74336 0.64937 0.0
H299 H 0.7698 0.6375 0.68559 0.0
C300 C 0.91835 0.72818 0.6577 0.0
C301 C 0.82921 0.71179 0.66125 0.0
C302 C 0.78991 0.72827 0.65587 0.0
C303 C 0.90088 0.68043 0.67554 0.0
C304 C 0.84635 0.64616 0.6845 0.0
C305 C 0.81151 0.66323 0.67826 0.0
C306 C 0.82412 0.59037 0.69671 0.0
C307 C 0.94102 0.6667 0.68402 0.0
C308 C 0.83456 0.55804 0.67979 0.0
C309 C 0.81036 0.50444 0.6891 0.0
C310 C 0.77466 0.4816 0.71544 0.0
C311 C 0.76414 0.51377 0.73256 0.0
C312 C 0.78878 0.56787 0.72328 0.0
H313 H 0.97928 0.70275 0.68627 0.0
H314 H 0.92749 0.64037 0.70558 0.0
H315 H 0.94802 0.64652 0.66588 0.0
H316 H 0.86022 0.57393 0.65872 0.0
H317 H 0.81893 0.48058 0.67529 0.0
H318 H 0.13209 0.9798 0.48643 0.0
H319 H 0.17125 0.94377 0.45332 0.0
H320 H 0.0344 0.87791 0.40486 0.0
H321 H 0.99478 0.91401 0.43784 0.0
H322 H 0.1237 0.83368 0.44611 0.0
H323 H 0.16152 0.95658 0.33736 0.0
H324 H 0.15142 0.97618 0.37343 0.0
H325 H 0.09651 0.92563 0.35736 0.0
C326 C 0.11039 0.95801 0.46861 0.0
C327 C 0.06025 0.94977 0.46482 0.0
C328 C 0.13287 0.93746 0.4497 0.0
C329 C 0.10597 0.90867 0.42646 0.0
C330 C 0.05616 0.90073 0.42236 0.0
H331 H 0.20383 0.74429 0.30521 0.0
H332 H 0.15477 0.78215 0.32767 0.0
C333 C 0.03347 0.92113 0.44137 0.0
C334 C 0.12914 0.88461 0.40778 0.0
H335 H 0.18434 0.89147 0.33681 0.0
C336 C 0.13672 0.84614 0.42219 0.0
C337 C 0.14551 0.90053 0.37651 0.0
C338 C 0.13876 0.94222 0.36013 0.0
C339 C 0.16116 0.82384 0.40632 0.0
C340 C 0.17953 0.84126 0.37534 0.0
C341 C 0.17037 0.87841 0.36059 0.0
C342 C 0.21145 0.82366 0.35879 0.0
C343 C 0.16747 0.78199 0.42296 0.0
C344 C 0.26031 0.83617 0.36804 0.0
C345 C 0.28819 0.81488 0.3553 0.0
C346 C 0.26814 0.78111 0.33273 0.0
C347 C 0.22056 0.77085 0.32222 0.0
C348 C 0.1924 0.79213 0.33516 0.0
H349 H 0.13902 0.7629 0.44367 0.0
H350 H 0.16196 0.75123 0.40829 0.0
H351 H 0.2078 0.80032 0.4299 0.0
H352 H 0.2761 0.86113 0.38589 0.0
H353 H 0.32492 0.82379 0.36371 0.0
H354 H 0.09371 0.9766 0.93309 0.0
H355 H 0.16559 0.00673 0.89238 0.0
H356 H 0.24913 0.15771 0.92617 0.0
H357 H 0.17785 0.12813 0.96693 0.0
H358 H 0.23954 0.15546 0.85854 0.0
H359 H 0.31739 0.03562 0.90817 0.0
H360 H 0.24789 0.00455 0.905 0.0
H361 H 0.27706 0.0523 0.93111 0.0
C362 C 0.12736 0.01625 0.93185 0.0
C363 C 0.13018 0.04991 0.95336 0.0
C364 C 0.16833 0.03332 0.90858 0.0
C365 C 0.21259 0.08433 0.90638 0.0
C366 C 0.21517 0.11821 0.9275 0.0
H367 H 0.51291 0.30569 0.834 0.0
H368 H 0.41817 0.25432 0.84834 0.0
C369 C 0.17449 0.10115 0.95084 0.0
C370 C 0.25733 0.10255 0.88271 0.0
H371 H 0.36845 0.0981 0.8668 0.0
C372 C 0.2673 0.14228 0.85994 0.0
C373 C 0.29294 0.08468 0.88434 0.0
C374 C 0.28376 0.04204 0.90845 0.0
C375 C 0.31357 0.16666 0.83972 0.0
C376 C 0.35132 0.1518 0.84293 0.0
C377 C 0.33951 0.10948 0.86433 0.0
C378 C 0.40636 0.18516 0.82847 0.0
C379 C 0.3224 0.20931 0.81575 0.0
C380 C 0.43148 0.16371 0.81216 0.0
C381 C 0.4861 0.19335 0.80389 0.0
C382 C 0.51607 0.24444 0.81217 0.0
C383 C 0.49047 0.26654 0.82711 0.0
C384 C 0.43623 0.23728 0.83512 0.0
H385 H 0.28439 0.20219 0.80861 0.0
H386 H 0.34176 0.24769 0.82513 0.0
H387 H 0.34787 0.21203 0.79559 0.0
H388 H 0.40925 0.12336 0.80709 0.0
H389 H 0.50523 0.17525 0.79283 0.0
H390 H 0.9715 0.10048 0.43776 0.0
H391 H 0.00685 0.17867 0.40068 0.0
H392 H 0.15378 0.25008 0.43974 0.0
H393 H 0.11929 0.17273 0.47649 0.0
H394 H 0.04633 0.28449 0.4118 0.0
H395 H 0.20012 0.26407 0.34941 0.0
H396 H 0.14566 0.21028 0.37375 0.0
H397 H 0.20262 0.25924 0.38948 0.0
C398 C 0.0114 0.13281 0.43834 0.0
C399 C 0.04264 0.13027 0.46002 0.0
C400 C 0.0315 0.17735 0.41714 0.0
C401 C 0.08327 0.21966 0.4171 0.0
C402 C 0.11417 0.21734 0.4389 0.0
H403 H 0.29963 0.53483 0.3661 0.0
H404 H 0.2456 0.44077 0.38278 0.0
C405 C 0.09419 0.17315 0.46006 0.0
C406 C 0.10505 0.26767 0.39534 0.0
H407 H 0.2137 0.35159 0.34606 0.0
C408 C 0.08216 0.29868 0.3968 0.0
C409 C 0.15157 0.28583 0.37564 0.0
C410 C 0.17613 0.25283 0.37171 0.0
C411 C 0.10699 0.34929 0.38088 0.0
C412 C 0.15555 0.36889 0.36295 0.0
C413 C 0.17653 0.33647 0.35993 0.0
C414 C 0.18879 0.42512 0.35092 0.0
C415 C 0.08316 0.3829 0.38492 0.0
C416 C 0.17505 0.44735 0.32715 0.0
C417 C 0.20611 0.50141 0.31747 0.0
C418 C 0.2512 0.53371 0.33148 0.0
C419 C 0.26509 0.51094 0.3549 0.0
C420 C 0.23438 0.4572 0.36439 0.0
H421 H 0.04722 0.36319 0.40146 0.0
H422 H 0.1123 0.42082 0.3927 0.0
H423 H 0.07253 0.39197 0.3629 0.0
H424 H 0.14006 0.42308 0.3164 0.0
H425 H 0.1941 0.51814 0.2997 0.0
H426 H 0.89362 -0.00163 0.957 0.0
H427 H 0.85835 0.03798 0.92363 0.0
H428 H 0.97684 0.19245 0.94293 0.0
H429 H 0.01133 0.15287 0.97724 0.0
H430 H 0.8846 0.1835 0.94628 0.0
H431 H 0.91098 0.11138 0.83958 0.0
H432 H 0.87345 0.05799 0.86888 0.0
H433 H 0.94091 0.10655 0.87262 0.0
C434 C 0.91236 0.04082 0.95407 0.0
C435 C 0.95533 0.0725 0.96977 0.0
C436 C 0.89249 0.06346 0.93468 0.0
C437 C 0.91574 0.11831 0.93009 0.0
C438 C 0.95854 0.15005 0.94586 0.0
H439 H 0.81643 0.27686 0.79973 0.0
H440 H 0.86689 0.2421 0.82293 0.0
C441 C 0.9781 0.12738 0.96556 0.0
C442 C 0.89297 0.14215 0.91057 0.0
H443 H 0.84947 0.14143 0.84136 0.0
C444 C 0.87762 0.17479 0.92322 0.0
C445 C 0.88462 0.1317 0.88023 0.0
C446 C 0.90392 0.10047 0.86444 0.0
C447 C 0.85212 0.19527 0.90692 0.0
C448 C 0.84018 0.18153 0.87744 0.0
C449 C 0.85773 0.15104 0.86417 0.0
C450 C 0.8076 0.1969 0.86087 0.0
C451 C 0.83802 0.23137 0.92156 0.0
C452 C 0.75669 0.18087 0.87367 0.0
C453 C 0.72815 0.20066 0.86061 0.0
C454 C 0.74949 0.2361 0.83411 0.0
C455 C 0.79886 0.24915 0.81997 0.0
C456 C 0.82781 0.22964 0.83331 0.0
H457 H 0.86367 0.25072 0.93942 0.0
H458 H 0.84145 0.26232 0.90467 0.0
H459 H 0.79675 0.20802 0.93236 0.0
H460 H 0.73978 0.15451 0.89448 0.0
H461 H 0.68993 0.18951 0.8718 0.0
H462 H 0.88087 0.94617 0.40139 0.0
H463 H 0.83895 0.94103 0.35508 0.0
H464 H 0.68947 0.87905 0.40864 0.0
H465 H 0.7309 0.88617 0.45455 0.0
H466 H 0.76241 0.85783 0.3319 0.0
H467 H 0.69193 0.99195 0.35325 0.0
H468 H 0.74105 0.99011 0.37421 0.0
H469 H 0.67182 0.94532 0.38605 0.0
C470 C 0.83925 0.93229 0.40332 0.0
C471 C 0.80941 0.91667 0.43189 0.0
C472 C 0.81532 0.92917 0.37679 0.0
C473 C 0.76127 0.91085 0.37836 0.0
C474 C 0.73152 0.89481 0.40679 0.0
H475 H 0.50502 0.70928 0.3112 0.0
H476 H 0.59788 0.76125 0.31748 0.0
C477 C 0.75525 0.89806 0.43316 0.0
C478 C 0.73418 0.9049 0.35072 0.0
H479 H 0.63493 0.91731 0.32572 0.0
C480 C 0.7356 0.87208 0.32995 0.0
C481 C 0.70092 0.92531 0.34705 0.0
C482 C 0.70191 0.96567 0.36616 0.0
C483 C 0.69969 0.85376 0.30826 0.0
C484 C 0.66043 0.86719 0.30815 0.0
C485 C 0.66392 0.90561 0.32614 0.0
C486 C 0.60982 0.83422 0.29547 0.0
C487 C 0.70252 0.81811 0.28675 0.0
C488 C 0.58518 0.85711 0.28017 0.0
C489 C 0.53128 0.82709 0.27693 0.0
C490 C 0.50168 0.77391 0.28883 0.0
C491 C 0.52731 0.75013 0.30156 0.0
C492 C 0.58074 0.7799 0.30486 0.0
H493 H 0.74424 0.83179 0.2791 0.0
H494 H 0.68452 0.77781 0.29864 0.0
H495 H 0.68181 0.81646 0.26663 0.0
H496 H 0.60659 0.89895 0.27285 0.0
H497 H 0.51204 0.84633 0.2674 0.0
H498 H 0.85307 0.73548 0.9639 0.0
H499 H 0.84793 0.68251 0.92313 0.0
H500 H 0.98179 0.81814 0.87188 0.0
H501 H 0.98739 0.87153 0.91293 0.0
H502 H 0.87429 0.75006 0.84331 0.0
H503 H 0.96467 0.6432 0.89255 0.0
H504 H 0.92133 0.65106 0.91872 0.0
H505 H 0.98153 0.70806 0.90145 0.0
C506 C 0.88158 0.75391 0.94405 0.0
C507 C 0.92056 0.80751 0.94155 0.0
C508 C 0.87878 0.72366 0.92088 0.0
C509 C 0.91461 0.74652 0.89466 0.0
C510 C 0.95404 0.79989 0.89208 0.0
H511 H 0.83996 0.49041 0.78275 0.0
H512 H 0.89717 0.58223 0.79317 0.0
C513 C 0.95732 0.83014 0.91554 0.0
C514 C 0.90817 0.71419 0.86972 0.0
H515 H 0.90433 0.60118 0.85612 0.0
C516 C 0.88233 0.71844 0.84545 0.0
C517 C 0.91936 0.67354 0.87239 0.0
C518 C 0.94867 0.66872 0.89754 0.0
C519 C 0.86265 0.67973 0.8255 0.0
C520 C 0.86879 0.63591 0.83025 0.0
C521 C 0.89954 0.63478 0.85254 0.0
C522 C 0.8344 0.58618 0.81763 0.0
C523 C 0.83235 0.68401 0.80078 0.0
C524 C 0.78033 0.5587 0.82745 0.0
C525 C 0.7483 0.50656 0.82214 0.0
C526 C 0.76956 0.48121 0.80648 0.0
C527 C 0.82287 0.50959 0.7947 0.0
C528 C 0.85539 0.56179 0.80059 0.0
H529 H 0.84566 0.72577 0.79358 0.0
H530 H 0.83673 0.66555 0.78084 0.0
H531 H 0.78993 0.66338 0.80936 0.0
H532 H 0.76354 0.57639 0.84113 0.0
H533 H 0.70728 0.4852 0.83148 0.0
loop_
_geom_bond_atom_site_label_1
_geom_bond_atom_site_label_2
_geom_bond_distance
_geom_bond_site_symmetry_2
_ccdc_geom_bond_type
Co0 N5 2.057 . S
Co0 O17 2.021 1_665 S
Co0 O20 2.062 1_656 S
Co0 O24 2.117 1_556 S
Co0 O25 2.020 1_565 S
C1 O21 1.259 1_565 S
C1 O24 1.258 . S
Co2 N11 2.057 . S
Co2 O18 2.117 1_554 S
Co2 O19 2.020 . S
Co2 O21 2.021 1_455 S
Co2 O26 2.062 1_554 S
C3 N5 1.316 . S
C3 N6 1.347 . S
C3 H8 0.931 1_655 S
C4 N5 1.375 . S
C4 C7 1.350 . S
C4 H9 0.930 . S
N5 Co0 2.057 . S
N5 C3 1.316 . S
N5 C4 1.375 . S
N6 C3 1.347 . S
N6 C7 1.373 . S
C7 C4 1.350 . S
C7 N6 1.373 . S
C7 H28 0.931 . S
H8 C3 0.931 1_455 S
H9 C4 0.930 . S
C10 O17 1.259 . S
C10 O18 1.258 . S
N11 Co2 2.057 . S
N11 C12 1.316 . S
N11 C13 1.375 . S
C12 N11 1.316 . S
C12 N14 1.347 . S
C12 H23 0.931 . S
C13 N11 1.375 . S
C13 C15 1.350 . S
C13 H22 0.930 . S
N14 C12 1.347 . S
N14 C15 1.373 . S
C15 C13 1.350 . S
C15 N14 1.373 . S
C15 H29 0.931 . S
C16 O19 1.256 1_565 S
C16 O20 1.255 . S
O17 Co0 2.021 1_445 S
O17 C10 1.259 . S
O18 Co2 2.117 1_556 S
O18 C10 1.258 . S
O19 Co2 2.020 . S
O19 C16 1.256 1_545 S
O20 Co0 2.062 1_454 S
O20 C16 1.255 . S
O21 C1 1.259 1_545 S
O21 Co2 2.021 1_655 S
H22 C13 0.930 . S
H23 C12 0.931 . S
O24 Co0 2.117 1_554 S
O24 C1 1.258 . S
O25 Co0 2.020 1_545 S
O25 C27 1.256 . S
O26 Co2 2.062 1_556 S
O26 C27 1.255 1_455 S
C27 O25 1.256 . S
C27 O26 1.255 1_655 S
H28 C7 0.931 . S
H29 C15 0.931 . S
Co30 N35 2.057 . S
Co30 O47 2.021 1_545 S
Co30 O50 2.062 1_545 S
Co30 O54 2.117 . S
Co30 O55 2.020 . S
C31 O51 1.259 . S
C31 O54 1.258 . S
Co32 N41 2.057 . S
Co32 O48 2.117 . S
Co32 O49 2.020 1_655 S
Co32 O51 2.021 1_665 S
Co32 O56 2.062 1_565 S
C33 N35 1.316 . S
C33 N36 1.347 . S
C33 H38 0.931 . S
C34 N35 1.375 . S
C34 C37 1.350 . S
C34 H39 0.930 . S
N35 Co30 2.057 . S
N35 C33 1.316 . S
N35 C34 1.375 . S
N36 C33 1.347 . S
N36 C37 1.373 . S
C37 C34 1.350 . S
C37 N36 1.373 . S
C37 H58 0.931 . S
H38 C33 0.931 . S
H39 C34 0.930 . S
C40 O47 1.259 1_655 S
C40 O48 1.258 . S
N41 Co32 2.057 . S
N41 C42 1.316 . S
N41 C43 1.375 . S
C42 N41 1.316 . S
C42 N44 1.347 . S
C42 H53 0.931 . S
C43 N41 1.375 . S
C43 C45 1.350 . S
C43 H52 0.930 . S
N44 C42 1.347 . S
N44 C45 1.373 . S
C45 C43 1.350 . S
C45 N44 1.373 . S
C45 H59 0.931 . S
C46 O49 1.256 . S
C46 O50 1.255 . S
O47 Co30 2.021 1_565 S
O47 C40 1.259 1_455 S
O48 Co32 2.117 . S
O48 C40 1.258 . S
O49 Co32 2.020 1_455 S
O49 C46 1.256 . S
O50 Co30 2.062 1_565 S
O50 C46 1.255 . S
O51 C31 1.259 . S
O51 Co32 2.021 1_445 S
H52 C43 0.930 . S
H53 C42 0.931 . S
O54 Co30 2.117 . S
O54 C31 1.258 . S
O55 Co30 2.020 . S
O55 C57 1.256 1_455 S
O56 Co32 2.062 1_545 S
O56 C57 1.255 . S
C57 O55 1.256 1_655 S
C57 O56 1.255 . S
H58 C37 0.931 . S
H59 C45 0.931 . S
Zn60 O66 1.920 . S
Zn60 O72 1.898 . S
Zn60 O75 1.905 . S
Zn61 O69 1.905 . S
Zn61 O70 1.898 . S
Zn61 O78 1.920 . S
Zn62 O65 2.080 . S
Zn62 O68 2.114 . S
Zn62 O71 2.120 . S
Zn62 O73 2.120 . S
Zn62 O74 2.114 . S
Zn62 O77 2.080 . S
C63 O68 1.166 . S
C63 O69 1.182 . S
C64 O70 1.167 . S
C64 O71 1.299 . S
O65 Zn62 2.080 . S
O65 C79 1.305 . S
O66 Zn60 1.920 . S
O66 C79 1.234 . S
C67 O72 1.167 . S
C67 O73 1.299 . S
O68 Zn62 2.114 . S
O68 C63 1.166 . S
O69 Zn61 1.905 . S
O69 C63 1.182 . S
O70 Zn61 1.898 . S
O70 C64 1.167 . S
O71 Zn62 2.120 . S
O71 C64 1.299 . S
O72 Zn60 1.898 . S
O72 C67 1.167 . S
O73 Zn62 2.120 . S
O73 C67 1.299 . S
O74 Zn62 2.114 . S
O74 C76 1.166 . S
O75 Zn60 1.905 . S
O75 C76 1.182 . S
C76 O74 1.166 . S
C76 O75 1.182 . S
O77 Zn62 2.080 . S
O77 C80 1.305 . S
O78 Zn61 1.920 . S
O78 C80 1.234 . S
C79 O65 1.305 . S
C79 O66 1.234 . S
C80 O77 1.305 . S
C80 O78 1.234 . S
Zn81 O87 1.920 . S
Zn81 O93 1.898 . S
Zn81 O96 1.905 . S
Zn82 O90 1.905 . S
Zn82 O91 1.898 . S
Zn82 O99 1.920 . S
Zn83 O86 2.080 . S
Zn83 O89 2.114 . S
Zn83 O92 2.120 . S
Zn83 O94 2.120 . S
Zn83 O95 2.114 . S
Zn83 O98 2.080 . S
C84 O89 1.166 . S
C84 O90 1.182 . S
C85 O91 1.167 . S
C85 O92 1.299 . S
O86 Zn83 2.080 . S
O86 C100 1.305 . S
O87 Zn81 1.920 . S
O87 C100 1.234 . S
C88 O93 1.167 . S
C88 O94 1.299 . S
O89 Zn83 2.114 . S
O89 C84 1.166 . S
O90 Zn82 1.905 . S
O90 C84 1.182 . S
O91 Zn82 1.898 . S
O91 C85 1.167 . S
O92 Zn83 2.120 . S
O92 C85 1.299 . S
O93 Zn81 1.898 . S
O93 C88 1.167 . S
O94 Zn83 2.120 . S
O94 C88 1.299 . S
O95 Zn83 2.114 . S
O95 C97 1.166 . S
O96 Zn81 1.905 . S
O96 C97 1.182 . S
C97 O95 1.166 . S
C97 O96 1.182 . S
O98 Zn83 2.080 . S
O98 C101 1.305 . S
O99 Zn82 1.920 . S
O99 C101 1.234 . S
C100 O86 1.305 . S
C100 O87 1.234 . S
C101 O98 1.305 . S
C101 O99 1.234 . S
H102 C110 0.929 . S
H103 C112 0.930 . S
H104 C114 0.930 . S
H105 C117 0.929 . S
H106 C120 0.930 . S
H107 C122 0.960 . S
H108 C122 0.960 . S
H109 C122 0.960 . S
C110 H102 0.929 . S
C110 C111 1.377 . S
C110 C112 1.384 . S
C111 C110 1.377 . S
C111 C117 1.390 . S
C112 H103 0.930 . S
C112 C110 1.384 . S
C112 C113 1.372 . S
C113 C112 1.372 . S
C113 C114 1.400 . S
C113 C118 1.490 . S
C114 H104 0.930 . S
C114 C113 1.400 . S
C114 C117 1.386 . S
H115 C131 0.930 . S
H116 C132 0.931 . S
C117 H105 0.929 . S
C117 C111 1.390 . S
C117 C114 1.386 . S
C118 C113 1.490 . S
C118 C120 1.395 . S
C118 C121 1.403 . S
H119 C125 0.930 . S
C120 H106 0.930 . S
C120 C118 1.395 . S
C120 C123 1.403 . S
C121 C118 1.403 . S
C121 C122 1.524 . S
C121 C125 1.400 . S
C122 H107 0.960 . S
C122 H108 0.960 . S
C122 H109 0.960 . S
C122 C121 1.524 . S
C123 C120 1.403 . S
C123 C124 1.392 . S
C123 C127 1.495 . S
C124 C123 1.392 . S
C124 C125 1.385 . S
C124 C126 1.478 . S
C125 H119 0.930 . S
C125 C121 1.400 . S
C125 C124 1.385 . S
C126 C124 1.478 . S
C126 C128 1.381 . S
C126 C132 1.383 . S
C127 C123 1.495 . S
C127 H133 0.959 . S
C127 H134 0.961 . S
C127 H135 0.960 . S
C128 C126 1.381 . S
C128 C129 1.394 . S
C128 H136 0.930 . S
C129 C128 1.394 . S
C129 C130 1.383 . S
C129 H137 0.929 . S
C130 C129 1.383 . S
C130 C131 1.377 . S
C131 H115 0.930 . S
C131 C130 1.377 . S
C131 C132 1.379 . S
C132 H116 0.931 . S
C132 C126 1.383 . S
C132 C131 1.379 . S
H133 C127 0.959 . S
H134 C127 0.961 . S
H135 C127 0.960 . S
H136 C128 0.930 . S
H137 C129 0.929 . S
H138 C146 0.929 . S
H139 C148 0.930 . S
H140 C150 0.930 . S
H141 C153 0.929 . S
H142 C156 0.930 . S
H143 C158 0.960 . S
H144 C158 0.960 . S
H145 C158 0.960 . S
C146 H138 0.929 . S
C146 C147 1.377 . S
C146 C148 1.384 . S
C147 C146 1.377 . S
C147 C153 1.390 . S
C148 H139 0.930 . S
C148 C146 1.384 . S
C148 C149 1.372 . S
C149 C148 1.372 . S
C149 C150 1.400 . S
C149 C154 1.490 . S
C150 H140 0.930 . S
C150 C149 1.400 . S
C150 C153 1.386 . S
H151 C167 0.930 . S
H152 C168 0.931 . S
C153 H141 0.929 . S
C153 C147 1.390 . S
C153 C150 1.386 . S
C154 C149 1.490 . S
C154 C156 1.395 . S
C154 C157 1.403 . S
H155 C161 0.930 . S
C156 H142 0.930 . S
C156 C154 1.395 . S
C156 C159 1.403 . S
C157 C154 1.403 . S
C157 C158 1.524 . S
C157 C161 1.400 . S
C158 H143 0.960 . S
C158 H144 0.960 . S
C158 H145 0.960 . S
C158 C157 1.524 . S
C159 C156 1.403 . S
C159 C160 1.392 . S
C159 C163 1.495 . S
C160 C159 1.392 . S
C160 C161 1.385 . S
C160 C162 1.478 . S
C161 H155 0.930 . S
C161 C157 1.400 . S
C161 C160 1.385 . S
C162 C160 1.478 . S
C162 C164 1.381 . S
C162 C168 1.383 . S
C163 C159 1.495 . S
C163 H169 0.959 . S
C163 H170 0.961 . S
C163 H171 0.960 . S
C164 C162 1.381 . S
C164 C165 1.394 . S
C164 H172 0.930 . S
C165 C164 1.394 . S
C165 C166 1.383 . S
C165 H173 0.929 . S
C166 C165 1.383 . S
C166 C167 1.377 . S
C167 H151 0.930 . S
C167 C166 1.377 . S
C167 C168 1.379 . S
C168 H152 0.931 . S
C168 C162 1.383 . S
C168 C167 1.379 . S
H169 C163 0.959 . S
H170 C163 0.961 . S
H171 C163 0.960 . S
H172 C164 0.930 . S
H173 C165 0.929 . S
H174 C182 0.929 . S
H175 C184 0.930 . S
H176 C186 0.930 . S
H177 C189 0.929 . S
H178 C192 0.930 . S
H179 C194 0.960 . S
H180 C194 0.960 . S
H181 C194 0.960 . S
C182 H174 0.929 . S
C182 C183 1.377 . S
C182 C184 1.384 . S
C183 C182 1.377 . S
C183 C189 1.390 . S
C184 H175 0.930 . S
C184 C182 1.384 . S
C184 C185 1.372 . S
C185 C184 1.372 . S
C185 C186 1.400 . S
C185 C190 1.490 . S
C186 H176 0.930 . S
C186 C185 1.400 . S
C186 C189 1.386 . S
H187 C203 0.930 . S
H188 C204 0.931 . S
C189 H177 0.929 . S
C189 C183 1.390 . S
C189 C186 1.386 . S
C190 C185 1.490 . S
C190 C192 1.395 . S
C190 C193 1.403 . S
H191 C197 0.930 . S
C192 H178 0.930 . S
C192 C190 1.395 . S
C192 C195 1.403 . S
C193 C190 1.403 . S
C193 C194 1.524 . S
C193 C197 1.400 . S
C194 H179 0.960 . S
C194 H180 0.960 . S
C194 H181 0.960 . S
C194 C193 1.524 . S
C195 C192 1.403 . S
C195 C196 1.392 . S
C195 C199 1.495 . S
C196 C195 1.392 . S
C196 C197 1.385 . S
C196 C198 1.478 . S
C197 H191 0.930 . S
C197 C193 1.400 . S
C197 C196 1.385 . S
C198 C196 1.478 . S
C198 C200 1.381 . S
C198 C204 1.383 . S
C199 C195 1.495 . S
C199 H205 0.959 . S
C199 H206 0.961 . S
C199 H207 0.960 . S
C200 C198 1.381 . S
C200 C201 1.394 . S
C200 H208 0.930 . S
C201 C200 1.394 . S
C201 C202 1.383 . S
C201 H209 0.929 . S
C202 C201 1.383 . S
C202 C203 1.377 . S
C203 H187 0.930 . S
C203 C202 1.377 . S
C203 C204 1.379 . S
C204 H188 0.931 . S
C204 C198 1.383 . S
C204 C203 1.379 . S
H205 C199 0.959 . S
H206 C199 0.961 . S
H207 C199 0.960 . S
H208 C200 0.930 . S
H209 C201 0.929 . S
H210 C218 0.929 . S
H211 C220 0.930 . S
H212 C222 0.930 . S
H213 C225 0.929 1_455 S
H214 C228 0.930 . S
H215 C230 0.960 . S
H216 C230 0.960 . S
H217 C230 0.960 . S
C218 H210 0.929 . S
C218 C219 1.377 . S
C218 C220 1.384 . S
C219 C218 1.377 . S
C219 C225 1.390 . S
C220 H211 0.930 . S
C220 C218 1.384 . S
C220 C221 1.372 . S
C221 C220 1.372 . S
C221 C222 1.400 . S
C221 C226 1.490 . S
C222 H212 0.930 . S
C222 C221 1.400 . S
C222 C225 1.386 . S
H223 C239 0.930 . S
H224 C240 0.931 . S
C225 H213 0.929 1_655 S
C225 C219 1.390 . S
C225 C222 1.386 . S
C226 C221 1.490 . S
C226 C228 1.395 . S
C226 C229 1.403 . S
H227 C233 0.930 . S
C228 H214 0.930 . S
C228 C226 1.395 . S
C228 C231 1.403 . S
C229 C226 1.403 . S
C229 C230 1.524 . S
C229 C233 1.400 . S
C230 H215 0.960 . S
C230 H216 0.960 . S
C230 H217 0.960 . S
C230 C229 1.524 . S
C231 C228 1.403 . S
C231 C232 1.392 . S
C231 C235 1.495 . S
C232 C231 1.392 . S
C232 C233 1.385 . S
C232 C234 1.478 . S
C233 H227 0.930 . S
C233 C229 1.400 . S
C233 C232 1.385 . S
C234 C232 1.478 . S
C234 C236 1.381 . S
C234 C240 1.383 . S
C235 C231 1.495 . S
C235 H241 0.959 . S
C235 H242 0.961 . S
C235 H243 0.960 . S
C236 C234 1.381 . S
C236 C237 1.394 . S
C236 H244 0.930 . S
C237 C236 1.394 . S
C237 C238 1.383 . S
C237 H245 0.929 . S
C238 C237 1.383 . S
C238 C239 1.377 . S
C239 H223 0.930 . S
C239 C238 1.377 . S
C239 C240 1.379 . S
C240 H224 0.931 . S
C240 C234 1.383 . S
C240 C239 1.379 . S
H241 C235 0.959 . S
H242 C235 0.961 . S
H243 C235 0.960 . S
H244 C236 0.930 . S
H245 C237 0.929 . S
H246 C254 0.929 . S
H247 C256 0.930 . S
H248 C258 0.930 . S
H249 C261 0.929 . S
H250 C264 0.930 . S
H251 C266 0.960 . S
H252 C266 0.960 . S
H253 C266 0.960 . S
C254 H246 0.929 . S
C254 C255 1.377 . S
C254 C256 1.384 . S
C255 C254 1.377 . S
C255 C261 1.390 . S
C256 H247 0.930 . S
C256 C254 1.384 . S
C256 C257 1.372 . S
C257 C256 1.372 . S
C257 C258 1.400 . S
C257 C262 1.490 . S
C258 H248 0.930 . S
C258 C257 1.400 . S
C258 C261 1.386 . S
H259 C275 0.930 . S
H260 C276 0.931 . S
C261 H249 0.929 . S
C261 C255 1.390 . S
C261 C258 1.386 . S
C262 C257 1.490 . S
C262 C264 1.395 . S
C262 C265 1.403 . S
H263 C269 0.930 . S
C264 H250 0.930 . S
C264 C262 1.395 . S
C264 C267 1.403 . S
C265 C262 1.403 . S
C265 C266 1.524 . S
C265 C269 1.400 . S
C266 H251 0.960 . S
C266 H252 0.960 . S
C266 H253 0.960 . S
C266 C265 1.524 . S
C267 C264 1.403 . S
C267 C268 1.392 . S
C267 C271 1.495 . S
C268 C267 1.392 . S
C268 C269 1.385 . S
C268 C270 1.478 . S
C269 H263 0.930 . S
C269 C265 1.400 . S
C269 C268 1.385 . S
C270 C268 1.478 . S
C270 C272 1.381 . S
C270 C276 1.383 . S
C271 C267 1.495 . S
C271 H277 0.959 . S
C271 H278 0.961 . S
C271 H279 0.960 . S
C272 C270 1.381 . S
C272 C273 1.394 . S
C272 H280 0.930 . S
C273 C272 1.394 . S
C273 C274 1.383 . S
C273 H281 0.929 . S
C274 C273 1.383 . S
C274 C275 1.377 . S
C275 H259 0.930 . S
C275 C274 1.377 . S
C275 C276 1.379 . S
C276 H260 0.931 . S
C276 C270 1.383 . S
C276 C275 1.379 . S
H277 C271 0.959 . S
H278 C271 0.961 . S
H279 C271 0.960 . S
H280 C272 0.930 . S
H281 C273 0.929 . S
H282 C290 0.929 . S
H283 C292 0.930 . S
H284 C294 0.930 . S
H285 C297 0.929 . S
H286 C300 0.930 . S
H287 C302 0.960 . S
H288 C302 0.960 . S
H289 C302 0.960 . S
C290 H282 0.929 . S
C290 C291 1.377 . S
C290 C292 1.384 . S
C291 C290 1.377 . S
C291 C297 1.390 . S
C292 H283 0.930 . S
C292 C290 1.384 . S
C292 C293 1.372 . S
C293 C292 1.372 . S
C293 C294 1.400 . S
C293 C298 1.490 . S
C294 H284 0.930 . S
C294 C293 1.400 . S
C294 C297 1.386 . S
H295 C311 0.930 . S
H296 C312 0.931 . S
C297 H285 0.929 . S
C297 C291 1.390 . S
C297 C294 1.386 . S
C298 C293 1.490 . S
C298 C300 1.395 . S
C298 C301 1.403 . S
H299 C305 0.930 . S
C300 H286 0.930 . S
C300 C298 1.395 . S
C300 C303 1.403 . S
C301 C298 1.403 . S
C301 C302 1.524 . S
C301 C305 1.400 . S
C302 H287 0.960 . S
C302 H288 0.960 . S
C302 H289 0.960 . S
C302 C301 1.524 . S
C303 C300 1.403 . S
C303 C304 1.392 . S
C303 C307 1.495 . S
C304 C303 1.392 . S
C304 C305 1.385 . S
C304 C306 1.478 . S
C305 H299 0.930 . S
C305 C301 1.400 . S
C305 C304 1.385 . S
C306 C304 1.478 . S
C306 C308 1.381 . S
C306 C312 1.383 . S
C307 C303 1.495 . S
C307 H313 0.959 . S
C307 H314 0.961 . S
C307 H315 0.960 . S
C308 C306 1.381 . S
C308 C309 1.394 . S
C308 H316 0.930 . S
C309 C308 1.394 . S
C309 C310 1.383 . S
C309 H317 0.929 . S
C310 C309 1.383 . S
C310 C311 1.377 . S
C311 H295 0.930 . S
C311 C310 1.377 . S
C311 C312 1.379 . S
C312 H296 0.931 . S
C312 C306 1.383 . S
C312 C311 1.379 . S
H313 C307 0.959 . S
H314 C307 0.961 . S
H315 C307 0.960 . S
H316 C308 0.930 . S
H317 C309 0.929 . S
H318 C326 0.929 . S
H319 C328 0.930 . S
H320 C330 0.930 . S
H321 C333 0.929 . S
H322 C336 0.930 . S
H323 C338 0.960 . S
H324 C338 0.960 . S
H325 C338 0.960 . S
C326 H318 0.929 . S
C326 C327 1.377 . S
C326 C328 1.384 . S
C327 C326 1.377 . S
C327 C333 1.390 . S
C328 H319 0.930 . S
C328 C326 1.384 . S
C328 C329 1.372 . S
C329 C328 1.372 . S
C329 C330 1.400 . S
C329 C334 1.490 . S
C330 H320 0.930 . S
C330 C329 1.400 . S
C330 C333 1.386 . S
H331 C347 0.930 . S
H332 C348 0.931 . S
C333 H321 0.929 . S
C333 C327 1.390 . S
C333 C330 1.386 . S
C334 C329 1.490 . S
C334 C336 1.395 . S
C334 C337 1.403 . S
H335 C341 0.930 . S
C336 H322 0.930 . S
C336 C334 1.395 . S
C336 C339 1.403 . S
C337 C334 1.403 . S
C337 C338 1.524 . S
C337 C341 1.400 . S
C338 H323 0.960 . S
C338 H324 0.960 . S
C338 H325 0.960 . S
C338 C337 1.524 . S
C339 C336 1.403 . S
C339 C340 1.392 . S
C339 C343 1.495 . S
C340 C339 1.392 . S
C340 C341 1.385 . S
C340 C342 1.478 . S
C341 H335 0.930 . S
C341 C337 1.400 . S
C341 C340 1.385 . S
C342 C340 1.478 . S
C342 C344 1.381 . S
C342 C348 1.383 . S
C343 C339 1.495 . S
C343 H349 0.959 . S
C343 H350 0.961 . S
C343 H351 0.960 . S
C344 C342 1.381 . S
C344 C345 1.394 . S
C344 H352 0.930 . S
C345 C344 1.394 . S
C345 C346 1.383 . S
C345 H353 0.929 . S
C346 C345 1.383 . S
C346 C347 1.377 . S
C347 H331 0.930 . S
C347 C346 1.377 . S
C347 C348 1.379 . S
C348 H332 0.931 . S
C348 C342 1.383 . S
C348 C347 1.379 . S
H349 C343 0.959 . S
H350 C343 0.961 . S
H351 C343 0.960 . S
H352 C344 0.930 . S
H353 C345 0.929 . S
H354 C362 0.929 . S
H355 C364 0.930 . S
H356 C366 0.930 . S
H357 C369 0.929 . S
H358 C372 0.930 . S
H359 C374 0.960 . S
H360 C374 0.960 . S
H361 C374 0.960 . S
C362 H354 0.929 . S
C362 C363 1.377 . S
C362 C364 1.384 . S
C363 C362 1.377 . S
C363 C369 1.390 . S
C364 H355 0.930 . S
C364 C362 1.384 . S
C364 C365 1.372 . S
C365 C364 1.372 . S
C365 C366 1.400 . S
C365 C370 1.490 . S
C366 H356 0.930 . S
C366 C365 1.400 . S
C366 C369 1.386 . S
H367 C383 0.930 . S
H368 C384 0.931 . S
C369 H357 0.929 . S
C369 C363 1.390 . S
C369 C366 1.386 . S
C370 C365 1.490 . S
C370 C372 1.395 . S
C370 C373 1.403 . S
H371 C377 0.930 . S
C372 H358 0.930 . S
C372 C370 1.395 . S
C372 C375 1.403 . S
C373 C370 1.403 . S
C373 C374 1.524 . S
C373 C377 1.400 . S
C374 H359 0.960 . S
C374 H360 0.960 . S
C374 H361 0.960 . S
C374 C373 1.524 . S
C375 C372 1.403 . S
C375 C376 1.392 . S
C375 C379 1.495 . S
C376 C375 1.392 . S
C376 C377 1.385 . S
C376 C378 1.478 . S
C377 H371 0.930 . S
C377 C373 1.400 . S
C377 C376 1.385 . S
C378 C376 1.478 . S
C378 C380 1.381 . S
C378 C384 1.383 . S
C379 C375 1.495 . S
C379 H385 0.959 . S
C379 H386 0.961 . S
C379 H387 0.960 . S
C380 C378 1.381 . S
C380 C381 1.394 . S
C380 H388 0.930 . S
C381 C380 1.394 . S
C381 C382 1.383 . S
C381 H389 0.929 . S
C382 C381 1.383 . S
C382 C383 1.377 . S
C383 H367 0.930 . S
C383 C382 1.377 . S
C383 C384 1.379 . S
C384 H368 0.931 . S
C384 C378 1.383 . S
C384 C383 1.379 . S
H385 C379 0.959 . S
H386 C379 0.961 . S
H387 C379 0.960 . S
H388 C380 0.930 . S
H389 C381 0.929 . S
H390 C398 0.929 . S
H391 C400 0.930 . S
H392 C402 0.930 . S
H393 C405 0.929 . S
H394 C408 0.930 . S
H395 C410 0.960 . S
H396 C410 0.960 . S
H397 C410 0.960 . S
C398 H390 0.929 . S
C398 C399 1.377 . S
C398 C400 1.384 . S
C399 C398 1.377 . S
C399 C405 1.390 . S
C400 H391 0.930 . S
C400 C398 1.384 . S
C400 C401 1.372 . S
C401 C400 1.372 . S
C401 C402 1.400 . S
C401 C406 1.490 . S
C402 H392 0.930 . S
C402 C401 1.400 . S
C402 C405 1.386 . S
H403 C419 0.930 . S
H404 C420 0.931 . S
C405 H393 0.929 . S
C405 C399 1.390 . S
C405 C402 1.386 . S
C406 C401 1.490 . S
C406 C408 1.395 . S
C406 C409 1.403 . S
H407 C413 0.930 . S
C408 H394 0.930 . S
C408 C406 1.395 . S
C408 C411 1.403 . S
C409 C406 1.403 . S
C409 C410 1.524 . S
C409 C413 1.400 . S
C410 H395 0.960 . S
C410 H396 0.960 . S
C410 H397 0.960 . S
C410 C409 1.524 . S
C411 C408 1.403 . S
C411 C412 1.392 . S
C411 C415 1.495 . S
C412 C411 1.392 . S
C412 C413 1.385 . S
C412 C414 1.478 . S
C413 H407 0.930 . S
C413 C409 1.400 . S
C413 C412 1.385 . S
C414 C412 1.478 . S
C414 C416 1.381 . S
C414 C420 1.383 . S
C415 C411 1.495 . S
C415 H421 0.959 . S
C415 H422 0.961 . S
C415 H423 0.960 . S
C416 C414 1.381 . S
C416 C417 1.394 . S
C416 H424 0.930 . S
C417 C416 1.394 . S
C417 C418 1.383 . S
C417 H425 0.929 . S
C418 C417 1.383 . S
C418 C419 1.377 . S
C419 H403 0.930 . S
C419 C418 1.377 . S
C419 C420 1.379 . S
C420 H404 0.931 . S
C420 C414 1.383 . S
C420 C419 1.379 . S
H421 C415 0.959 . S
H422 C415 0.961 . S
H423 C415 0.960 . S
H424 C416 0.930 . S
H425 C417 0.929 . S
H426 C434 0.929 . S
H427 C436 0.930 . S
H428 C438 0.930 . S
H429 C441 0.929 1_455 S
H430 C444 0.930 . S
H431 C446 0.960 . S
H432 C446 0.960 . S
H433 C446 0.960 . S
C434 H426 0.929 . S
C434 C435 1.377 . S
C434 C436 1.384 . S
C435 C434 1.377 . S
C435 C441 1.390 . S
C436 H427 0.930 . S
C436 C434 1.384 . S
C436 C437 1.372 . S
C437 C436 1.372 . S
C437 C438 1.400 . S
C437 C442 1.490 . S
C438 H428 0.930 . S
C438 C437 1.400 . S
C438 C441 1.386 . S
H439 C455 0.930 . S
H440 C456 0.931 . S
C441 H429 0.929 1_655 S
C441 C435 1.390 . S
C441 C438 1.386 . S
C442 C437 1.490 . S
C442 C444 1.395 . S
C442 C445 1.403 . S
H443 C449 0.930 . S
C444 H430 0.930 . S
C444 C442 1.395 . S
C444 C447 1.403 . S
C445 C442 1.403 . S
C445 C446 1.524 . S
C445 C449 1.400 . S
C446 H431 0.960 . S
C446 H432 0.960 . S
C446 H433 0.960 . S
C446 C445 1.524 . S
C447 C444 1.403 . S
C447 C448 1.392 . S
C447 C451 1.495 . S
C448 C447 1.392 . S
C448 C449 1.385 . S
C448 C450 1.478 . S
C449 H443 0.930 . S
C449 C445 1.400 . S
C449 C448 1.385 . S
C450 C448 1.478 . S
C450 C452 1.381 . S
C450 C456 1.383 . S
C451 C447 1.495 . S
C451 H457 0.959 . S
C451 H458 0.961 . S
C451 H459 0.960 . S
C452 C450 1.381 . S
C452 C453 1.394 . S
C452 H460 0.930 . S
C453 C452 1.394 . S
C453 C454 1.383 . S
C453 H461 0.929 . S
C454 C453 1.383 . S
C454 C455 1.377 . S
C455 H439 0.930 . S
C455 C454 1.377 . S
C455 C456 1.379 . S
C456 H440 0.931 . S
C456 C450 1.383 . S
C456 C455 1.379 . S
H457 C451 0.959 . S
H458 C451 0.961 . S
H459 C451 0.960 . S
H460 C452 0.930 . S
H461 C453 0.929 . S
H462 C470 0.929 . S
H463 C472 0.930 . S
H464 C474 0.930 . S
H465 C477 0.929 . S
H466 C480 0.930 . S
H467 C482 0.960 . S
H468 C482 0.960 . S
H469 C482 0.960 . S
C470 H462 0.929 . S
C470 C471 1.377 . S
C470 C472 1.384 . S
C471 C470 1.377 . S
C471 C477 1.390 . S
C472 H463 0.930 . S
C472 C470 1.384 . S
C472 C473 1.372 . S
C473 C472 1.372 . S
C473 C474 1.400 . S
C473 C478 1.490 . S
C474 H464 0.930 . S
C474 C473 1.400 . S
C474 C477 1.386 . S
H475 C491 0.930 . S
H476 C492 0.931 . S
C477 H465 0.929 . S
C477 C471 1.390 . S
C477 C474 1.386 . S
C478 C473 1.490 . S
C478 C480 1.395 . S
C478 C481 1.403 . S
H479 C485 0.930 . S
C480 H466 0.930 . S
C480 C478 1.395 . S
C480 C483 1.403 . S
C481 C478 1.403 . S
C481 C482 1.524 . S
C481 C485 1.400 . S
C482 H467 0.960 . S
C482 H468 0.960 . S
C482 H469 0.960 . S
C482 C481 1.524 . S
C483 C480 1.403 . S
C483 C484 1.392 . S
C483 C487 1.495 . S
C484 C483 1.392 . S
C484 C485 1.385 . S
C484 C486 1.478 . S
C485 H479 0.930 . S
C485 C481 1.400 . S
C485 C484 1.385 . S
C486 C484 1.478 . S
C486 C488 1.381 . S
C486 C492 1.383 . S
C487 C483 1.495 . S
C487 H493 0.959 . S
C487 H494 0.961 . S
C487 H495 0.960 . S
C488 C486 1.381 . S
C488 C489 1.394 . S
C488 H496 0.930 . S
C489 C488 1.394 . S
C489 C490 1.383 . S
C489 H497 0.929 . S
C490 C489 1.383 . S
C490 C491 1.377 . S
C491 H475 0.930 . S
C491 C490 1.377 . S
C491 C492 1.379 . S
C492 H476 0.931 . S
C492 C486 1.383 . S
C492 C491 1.379 . S
H493 C487 0.959 . S
H494 C487 0.961 . S
H495 C487 0.960 . S
H496 C488 0.930 . S
H497 C489 0.929 . S
H498 C506 0.929 . S
H499 C508 0.930 . S
H500 C510 0.930 . S
H501 C513 0.929 . S
H502 C516 0.930 . S
H503 C518 0.960 . S
H504 C518 0.960 . S
H505 C518 0.960 . S
C506 H498 0.929 . S
C506 C507 1.377 . S
C506 C508 1.384 . S
C507 C506 1.377 . S
C507 C513 1.390 . S
C508 H499 0.930 . S
C508 C506 1.384 . S
C508 C509 1.372 . S
C509 C508 1.372 . S
C509 C510 1.400 . S
C509 C514 1.490 . S
C510 H500 0.930 . S
C510 C509 1.400 . S
C510 C513 1.386 . S
H511 C527 0.930 . S
H512 C528 0.931 . S
C513 H501 0.929 . S
C513 C507 1.390 . S
C513 C510 1.386 . S
C514 C509 1.490 . S
C514 C516 1.395 . S
C514 C517 1.403 . S
H515 C521 0.930 . S
C516 H502 0.930 . S
C516 C514 1.395 . S
C516 C519 1.403 . S
C517 C514 1.403 . S
C517 C518 1.524 . S
C517 C521 1.400 . S
C518 H503 0.960 . S
C518 H504 0.960 . S
C518 H505 0.960 . S
C518 C517 1.524 . S
C519 C516 1.403 . S
C519 C520 1.392 . S
C519 C523 1.495 . S
C520 C519 1.392 . S
C520 C521 1.385 . S
C520 C522 1.478 . S
C521 H515 0.930 . S
C521 C517 1.400 . S
C521 C520 1.385 . S
C522 C520 1.478 . S
C522 C524 1.381 . S
C522 C528 1.383 . S
C523 C519 1.495 . S
C523 H529 0.959 . S
C523 H530 0.961 . S
C523 H531 0.960 . S
C524 C522 1.381 . S
C524 C525 1.394 . S
C524 H532 0.930 . S
C525 C524 1.394 . S
C525 C526 1.383 . S
C525 H533 0.929 . S
C526 C525 1.383 . S
C526 C527 1.377 . S
C527 H511 0.930 . S
C527 C526 1.377 . S
C527 C528 1.379 . S
C528 H512 0.931 . S
C528 C522 1.383 . S
C528 C527 1.379 . S
H529 C523 0.959 . S
H530 C523 0.961 . S
H531 C523 0.960 . S
H532 C524 0.930 . S
H533 C525 0.929 . S
C111 C16 1.488 . S
C130 C79 1.327 . S
C147 N36 1.168 . S
C166 C85 1.022 . S
C183 N14 1.159 . S
C202 C76 1.079 . S
C219 C57 1.597 . S
C238 C101 1.425 . S
C255 C1 1.774 . S
C274 C67 1.576 . S
C310 C84 1.516 . S
C291 C40 1.672 . S
C327 C46 1.488 . S
C346 C80 1.288 . S
C382 C97 1.572 . S
C363 C10 1.671 . S
C418 C64 1.618 . S
C399 C31 1.775 . S
C454 C100 1.390 . S
C435 C27 1.596 . S
C490 C63 1.150 . S
C471 N44 1.171 . S
C526 C88 1.075 . S
C507 N6 1.163 . S
