# Generated by pormake.
# Topology pth, (4,4)-cn, num edge types: 1
# Building blocks:
#     Node 0, Type 0, BuildingBlock: AZAVOO_clean_sbu_0, # of connection points: 4
#     Node 1, Type 0, BuildingBlock: AZAVOO_clean_sbu_0, # of connection points: 4
#     Node 2, Type 0, BuildingBlock: AZAVOO_clean_sbu_0, # of connection points: 4
#     Node 3, Type 1, BuildingBlock: MUDLON_clean_sbu_0, # of connection points: 4
#     Node 4, Type 1, BuildingBlock: MUDLON_clean_sbu_0, # of connection points: 4
#     Node 5, Type 1, BuildingBlock: MUDLON_clean_sbu_0, # of connection points: 4
#     Edge 6, Type (0, 1), BuildingBlock: TEMPAE_clean_linker_10, # of connection points: 2
#     Edge 7, Type (0, 1), BuildingBlock: TEMPAE_clean_linker_10, # of connection points: 2
#     Edge 8, Type (0, 1), BuildingBlock: TEMPAE_clean_linker_10, # of connection points: 2
#     Edge 9, Type (0, 1), BuildingBlock: TEMPAE_clean_linker_10, # of connection points: 2
#     Edge 10, Type (0, 1), BuildingBlock: TEMPAE_clean_linker_10, # of connection points: 2
#     Edge 11, Type (0, 1), BuildingBlock: TEMPAE_clean_linker_10, # of connection points: 2
#     Edge 12, Type (0, 1), BuildingBlock: TEMPAE_clean_linker_10, # of connection points: 2
#     Edge 13, Type (0, 1), BuildingBlock: TEMPAE_clean_linker_10, # of connection points: 2
#     Edge 14, Type (0, 1), BuildingBlock: TEMPAE_clean_linker_10, # of connection points: 2
#     Edge 15, Type (0, 1), BuildingBlock: TEMPAE_clean_linker_10, # of connection points: 2
#     Edge 16, Type (0, 1), BuildingBlock: TEMPAE_clean_linker_10, # of connection points: 2
#     Edge 17, Type (0, 1), BuildingBlock: TEMPAE_clean_linker_10, # of connection points: 2
# Relax obj value: 0.104
# Max RMSD: 0.231
# Mean RMSD: 0.137
data_MOF--net-pth--node1-AZAVOO_clean_sbu_0--node2-MUDLON_clean_sbu_0--edge1-TEMPAE_clean_linker_10
_symmetry_space_group_name_H-M    P1
_symmetry_Int_Tables_number       1
_symmetry_cell_setting            triclinic
loop_
_symmetry_equiv_pos_as_xyz
'x, y, z'
_cell_length_a     22.736881
_cell_length_b     23.213604
_cell_length_c     60.269793
_cell_angle_alpha  91.232411
_cell_angle_beta   93.076376
_cell_angle_gamma 122.04661
loop_
_atom_site_label
_atom_site_type_symbol
_atom_site_fract_x
_atom_site_fract_y
_atom_site_fract_z
_atom_type_partial_charge
Mg0 Mg 0.11235 0.12033 0.08296 0.0
O1 O 0.02673 0.02722 0.06178 0.0
O2 O 0.97002 0.05974 0.03929 0.0
Mg3 Mg 0.02134 0.17509 0.04542 0.0
C4 C 0.97938 0.01371 0.04653 0.0
C5 C 0.15135 0.0633 0.12511 0.0
O6 O 0.18137 0.12668 0.13301 0.0
O7 O 0.0351 0.12543 0.1046 0.0
O8 O 0.98871 0.16682 0.08125 0.0
O9 O 0.1858 0.14235 0.05633 0.0
O10 O 0.11955 0.18504 0.05807 0.0
C11 C 0.99583 0.14858 0.10056 0.0
C12 C 0.16421 0.17916 0.04769 0.0
O13 O 0.12079 0.0468 0.10565 0.0
Mg14 Mg 0.99786 0.07936 0.4091 0.0
O15 O 0.08135 0.07858 0.43212 0.0
O16 O 0.13723 0.17617 0.45297 0.0
Mg17 Mg 0.086 0.23655 0.44513 0.0
C18 C 0.12836 0.11874 0.4471 0.0
C19 C 0.94624 0.93044 0.38825 0.0
O20 O 0.90096 0.91055 0.40344 0.0
O21 O 0.07864 0.16028 0.38767 0.0
O22 O 0.12221 0.25475 0.40976 0.0
O23 O 0.91981 0.03227 0.4352 0.0
O24 O 0.98965 0.14242 0.43217 0.0
C25 C 0.11745 0.22498 0.39106 0.0
C26 C 0.94194 0.09387 0.44255 0.0
O27 O 0.99005 0.99374 0.38689 0.0
Mg28 Mg 0.02022 0.0069 0.7425 0.0
O29 O 0.0924 0.08605 0.77008 0.0
O30 O 0.02882 0.10104 0.79371 0.0
Mg31 Mg 0.91349 0.02514 0.78218 0.0
C32 C 0.08752 0.11441 0.78763 0.0
C33 C 0.11904 0.01108 0.70644 0.0
O34 O 0.07273 0.94532 0.70437 0.0
O35 O 0.98881 0.07512 0.72576 0.0
O36 O 0.91417 0.0719 0.74906 0.0
O37 O 0.01388 0.92481 0.76401 0.0
O38 O 0.94179 0.96081 0.76408 0.0
C39 C 0.94216 0.08725 0.73053 0.0
C40 C 0.96084 0.92212 0.77209 0.0
O41 O 0.11267 0.04747 0.72097 0.0
Mg42 Mg 0.04295 0.56973 0.2479 0.0
C43 C 0.0663 0.49208 0.2793 0.0
O44 O 0.99924 0.46834 0.2775 0.0
C45 C 0.05595 0.68091 0.22279 0.0
O46 O 0.99142 0.64639 0.22841 0.0
C47 C 0.02189 0.48221 0.20954 0.0
O48 O 0.08571 0.53532 0.2095 0.0
O49 O 0.98385 0.48173 0.22437 0.0
O50 O 0.1059 0.54201 0.2679 0.0
O51 O 0.98548 0.59198 0.27096 0.0
C52 C 0.01988 0.62369 0.28918 0.0
O53 O 0.08262 0.63492 0.29313 0.0
O54 O 0.09605 0.66045 0.22886 0.0
Mg55 Mg 0.55313 0.11988 0.57682 0.0
C56 C 0.45865 0.03939 0.53645 0.0
O57 O 0.51918 0.06414 0.5281 0.0
C58 C 0.62727 0.05689 0.60185 0.0
O59 O 0.62594 0.02871 0.58255 0.0
C60 C 0.46456 0.17286 0.59076 0.0
O61 O 0.4338 0.14721 0.57082 0.0
O62 O 0.52327 0.17997 0.59568 0.0
O63 O 0.45736 0.04495 0.55744 0.0
O64 O 0.63366 0.16742 0.55358 0.0
C65 C 0.69604 0.1856 0.55939 0.0
O66 O 0.71515 0.19114 0.58067 0.0
O67 O 0.59603 0.08857 0.60346 0.0
Mg68 Mg 0.58554 0.52013 0.92032 0.0
C69 C 0.48625 0.36956 0.90512 0.0
O70 O 0.4678 0.36235 0.92566 0.0
C71 C 0.7262 0.5936 0.94545 0.0
O72 O 0.74556 0.60866 0.92516 0.0
C73 C 0.43654 0.47598 0.92807 0.0
O74 O 0.42516 0.45741 0.90675 0.0
O75 O 0.49896 0.51234 0.93647 0.0
O76 O 0.54059 0.42466 0.90046 0.0
O77 O 0.63543 0.60057 0.89731 0.0
C78 C 0.65281 0.58492 0.87952 0.0
O79 O 0.63438 0.52152 0.87536 0.0
O80 O 0.66311 0.54807 0.94794 0.0
C81 C 1.0 0.17786 0.14113 0.0
C82 C 0.96973 0.16893 0.11941 0.0
C83 C 0.99342 0.21748 0.15761 0.0
C84 C 0.95539 0.24844 0.15225 0.0
C85 C 0.91739 0.23217 0.13128 0.0
C86 C 0.92504 0.19265 0.1151 0.0
C87 C 0.03374 0.23239 0.1799 0.0
C88 C 0.87484 0.26264 0.12501 0.0
C89 C 0.94142 0.35793 0.19742 0.0
C90 C 0.99911 0.42258 0.19392 0.0
C91 C 0.92521 0.30046 0.18379 0.0
C92 C 0.96776 0.30809 0.16633 0.0
C93 C 0.02456 0.37369 0.16235 0.0
C94 C 0.0394 0.42983 0.17614 0.0
C95 C 0.86415 0.2315 0.18854 0.0
C96 C 0.07103 0.3846 0.14379 0.0
H97 H 0.034 0.15919 0.14478 0.0
H98 H 0.90019 0.18492 0.09851 0.0
H99 H 0.08135 0.28419 0.18042 0.0
H100 H 1.00251 0.23139 0.19357 0.0
H101 H 0.04973 0.1954 0.18297 0.0
H102 H 0.83776 0.2347 0.11028 0.0
H103 H 0.84528 0.26263 0.13907 0.0
H104 H 0.91023 0.31634 0.12093 0.0
H105 H 0.91024 0.35185 0.21121 0.0
H106 H 0.08374 0.4796 0.17319 0.0
H107 H 0.88349 0.20073 0.19597 0.0
H108 H 0.83238 0.20358 0.17293 0.0
H109 H 0.83025 0.23545 0.20028 0.0
H110 H 0.09654 0.35546 0.14649 0.0
H111 H 0.11215 0.43908 0.14265 0.0
H112 H 0.03959 0.36552 0.1276 0.0
C113 C 0.93344 0.17702 0.46695 0.0
C114 C 0.91247 0.10927 0.4615 0.0
C115 C 0.90239 0.19318 0.48341 0.0
C116 C 0.84883 0.14036 0.49479 0.0
C117 C 0.82851 0.07194 0.48983 0.0
C118 C 0.86051 0.05716 0.47319 0.0
C119 C 0.9255 0.26673 0.48815 0.0
C120 C 0.77179 0.01425 0.50172 0.0
C121 C 0.80093 0.18461 0.54932 0.0
C122 C 0.74005 0.18311 0.54255 0.0
C123 C 0.83722 0.17134 0.53395 0.0
C124 C 0.81233 0.15665 0.51123 0.0
C125 C 0.75246 0.15762 0.50415 0.0
C126 C 0.71704 0.17079 0.51988 0.0
C127 C 0.901 0.17104 0.54213 0.0
C128 C 0.72472 0.14298 0.48002 0.0
H129 H 0.973 0.21774 0.4579 0.0
H130 H 0.8439 0.00474 0.46906 0.0
H131 H 0.88173 0.27369 0.48376 0.0
H132 H 0.94054 0.28114 0.50616 0.0
H133 H 0.97025 0.30208 0.47863 0.0
H134 H 0.76443 0.96433 0.49675 0.0
H135 H 0.78419 0.02372 0.51999 0.0
H136 H 0.72189 0.01128 0.49801 0.0
H137 H 0.81901 0.19372 0.5668 0.0
H138 H 0.67007 0.16946 0.51447 0.0
H139 H 0.94606 0.20678 0.53284 0.0
H140 H 0.89183 0.11952 0.53898 0.0
H141 H 0.91488 0.18556 0.5602 0.0
H142 H 0.7658 0.17862 0.46943 0.0
H143 H 0.67873 0.14758 0.47713 0.0
H144 H 0.70962 0.09068 0.4745 0.0
C145 C 0.94722 0.84297 0.8021 0.0
C146 C 0.9219 0.87686 0.78978 0.0
C147 C 0.90767 0.79823 0.81827 0.0
C148 C 0.84113 0.78663 0.82181 0.0
C149 C 0.81603 0.82157 0.80962 0.0
C150 C 0.85676 0.86633 0.79387 0.0
C151 C 0.93636 0.76244 0.83125 0.0
C152 C 0.74497 0.80994 0.81261 0.0
C153 C 0.70218 0.6187 0.84279 0.0
C154 C 0.69953 0.6375 0.86479 0.0
C155 C 0.74897 0.66657 0.82878 0.0
C156 C 0.79514 0.73472 0.8371 0.0
C157 C 0.79334 0.75393 0.8594 0.0
C158 C 0.74495 0.70513 0.87295 0.0
C159 C 0.7481 0.64441 0.80494 0.0
C160 C 0.84237 0.82598 0.86889 0.0
H161 H 0.9976 0.85115 0.79906 0.0
H162 H 0.83635 0.89176 0.78429 0.0
H163 H 0.93408 0.76981 0.84936 0.0
H164 H 0.90401 0.70691 0.82688 0.0
H165 H 0.99102 0.78107 0.82785 0.0
H166 H 0.73432 0.84313 0.80238 0.0
H167 H 0.70421 0.75606 0.80785 0.0
H168 H 0.74025 0.81958 0.83033 0.0
H169 H 0.66714 0.56641 0.83644 0.0
H170 H 0.74377 0.71956 0.89007 0.0
H171 H 0.80052 0.65607 0.80132 0.0
H172 H 0.73452 0.67311 0.79348 0.0
H173 H 0.7101 0.5891 0.80125 0.0
H174 H 0.89695 0.84217 0.8664 0.0
H175 H 0.83753 0.83157 0.88694 0.0
H176 H 0.83158 0.86112 0.85999 0.0
C177 C 0.1773 0.02683 0.16136 0.0
C178 C 0.14921 0.01049 0.13917 0.0
C179 C 0.17049 0.97616 0.1753 0.0
C180 C 0.13477 0.90749 0.16687 0.0
C181 C 0.10898 0.89115 0.14423 0.0
C182 C 0.11644 0.94275 0.13068 0.0
C183 C 0.19877 0.9957 0.19934 0.0
C184 C 0.07067 0.81862 0.13454 0.0
C185 C 0.14265 0.77204 0.19936 0.0
C186 C 0.07933 0.74125 0.20937 0.0
C187 C 0.16224 0.82705 0.18571 0.0
C188 C 0.11761 0.85188 0.18216 0.0
C189 C 0.05454 0.82194 0.1927 0.0
C190 C 0.03619 0.76709 0.20608 0.0
C191 C 0.22986 0.85765 0.17473 0.0
C192 C 1.00559 0.84702 0.18951 0.0
H193 H 0.20304 0.07902 0.16806 0.0
H194 H 0.09499 0.92957 0.11352 0.0
H195 H 0.15493 0.97474 0.21024 0.0
H196 H 0.23027 0.97357 0.20399 0.0
H197 H 0.23143 0.05178 0.20272 0.0
H198 H 0.05958 0.8152 0.11622 0.0
H199 H 0.1014 0.79513 0.13831 0.0
H200 H 0.02054 0.78816 0.14226 0.0
H201 H 0.17623 0.75235 0.20181 0.0
H202 H 0.98741 0.74409 0.21389 0.0
H203 H 0.26212 0.91339 0.17872 0.0
H204 H 0.21909 0.84979 0.15638 0.0
H205 H 0.26035 0.83488 0.18003 0.0
H206 H 0.03333 0.90225 0.19429 0.0
H207 H 0.95971 0.81974 0.1995 0.0
H208 H 0.98683 0.8401 0.1717 0.0
C209 C 0.15384 0.02904 0.45714 0.0
C210 C 0.17241 0.09727 0.45871 0.0
C211 C 0.19361 0.00793 0.46895 0.0
C212 C 0.2538 0.0563 0.48243 0.0
C213 C 0.27324 0.1253 0.48384 0.0
C214 C 0.23222 0.14481 0.47208 0.0
C215 C 0.1708 0.93383 0.46724 0.0
C216 C 0.33751 0.17873 0.49782 0.0
C217 C 0.33741 0.01567 0.53071 0.0
C218 C 0.39776 0.02612 0.52166 0.0
C219 C 0.28713 0.02033 0.51766 0.0
C220 C 0.29747 0.03586 0.49505 0.0
C221 C 0.35509 0.04045 0.48538 0.0
C222 C 0.40432 0.03518 0.49877 0.0
C223 C 0.22584 0.01395 0.52856 0.0
C224 C 0.36808 0.05675 0.46134 0.0
H225 H 0.10746 0.99178 0.44698 0.0
H226 H 0.24725 0.19763 0.47335 0.0
H227 H 0.21296 0.92852 0.46114 0.0
H228 H 0.16041 0.91294 0.48395 0.0
H229 H 0.12314 0.90269 0.45587 0.0
H230 H 0.34597 0.23033 0.4969 0.0
H231 H 0.33308 0.16547 0.51548 0.0
H232 H 0.38409 0.18042 0.49224 0.0
H233 H 0.3314 0.00802 0.54832 0.0
H234 H 0.45033 0.04267 0.49152 0.0
H235 H 0.17711 0.98221 0.51774 0.0
H236 H 0.23373 0.06516 0.53108 0.0
H237 H 0.21924 0.99136 0.545 0.0
H238 H 0.31983 0.02442 0.45039 0.0
H239 H 0.40949 0.04955 0.45559 0.0
H240 H 0.38433 0.11055 0.45937 0.0
C241 C 0.15524 0.20386 0.81869 0.0
C242 C 0.15062 0.15572 0.80307 0.0
C243 C 0.2121 0.23812 0.83474 0.0
C244 C 0.26441 0.22228 0.83562 0.0
C245 C 0.26006 0.17389 0.81984 0.0
C246 C 0.20385 0.14199 0.80359 0.0
C247 C 0.21595 0.29092 0.85087 0.0
C248 C 0.31366 0.15422 0.82054 0.0
C249 C 0.44105 0.34988 0.86513 0.0
C250 C 0.43389 0.32603 0.88667 0.0
C251 C 0.38655 0.31643 0.84838 0.0
C252 C 0.32382 0.25646 0.853 0.0
C253 C 0.31749 0.23009 0.87434 0.0
C254 C 0.37226 0.26562 0.891 0.0
C255 C 0.39497 0.34714 0.82603 0.0
C256 C 0.25211 0.16536 0.87979 0.0
H257 H 0.11426 0.21459 0.8184 0.0
H258 H 0.20013 0.104 0.79182 0.0
H259 H 0.2134 0.27444 0.86811 0.0
H260 H 0.26639 0.33986 0.8502 0.0
H261 H 0.17308 0.29986 0.84727 0.0
H262 H 0.30258 0.11539 0.80714 0.0
H263 H 0.36619 0.19967 0.81888 0.0
H264 H 0.31518 0.13362 0.83686 0.0
H265 H 0.48805 0.39687 0.8616 0.0
H266 H 0.3661 0.24698 0.90758 0.0
H267 H 0.35567 0.36117 0.82299 0.0
H268 H 0.38569 0.30944 0.81251 0.0
H269 H 0.44756 0.39331 0.82495 0.0
H270 H 0.20825 0.17352 0.87963 0.0
H271 H 0.25789 0.14827 0.89639 0.0
H272 H 0.23799 0.12405 0.867 0.0
C273 C 0.93438 0.11993 0.69144 0.0
C274 C 0.90712 0.10313 0.71234 0.0
C275 C 0.89375 0.11905 0.67282 0.0
C276 C 0.82378 0.09909 0.67506 0.0
C277 C 0.79732 0.08569 0.69631 0.0
C278 C 0.83963 0.08908 0.71471 0.0
C279 C 0.92472 0.13654 0.65059 0.0
C280 C 0.72274 0.06336 0.69943 0.0
C281 C 0.7161 0.12983 0.63242 0.0
C282 C 0.67794 0.06679 0.62025 0.0
C283 C 0.76633 0.14219 0.64953 0.0
C284 C 0.77681 0.08935 0.65522 0.0
C285 C 0.73856 0.02555 0.64293 0.0
C286 C 0.69045 0.01548 0.62525 0.0
C287 C 0.80774 0.21162 0.66163 0.0
C288 C 0.74694 0.96734 0.64889 0.0
H289 H 0.98647 0.13113 0.68942 0.0
H290 H 0.81769 0.07589 0.7307 0.0
H291 H 0.90114 0.08968 0.63948 0.0
H292 H 0.91308 0.17214 0.64241 0.0
H293 H 0.98202 0.15999 0.6522 0.0
H294 H 0.71066 0.0563 0.71715 0.0
H295 H 0.71159 0.10133 0.69307 0.0
H296 H 0.68707 0.0145 0.6897 0.0
H297 H 0.70755 0.17018 0.62827 0.0
H298 H 0.66123 0.96696 0.61574 0.0
H299 H 0.8642 0.23125 0.6621 0.0
H300 H 0.79371 0.20791 0.67911 0.0
H301 H 0.79831 0.24906 0.6537 0.0
H302 H 0.80201 0.98269 0.64818 0.0
H303 H 0.71378 0.92121 0.63761 0.0
H304 H 0.73302 0.95406 0.66622 0.0
C305 C 0.88692 0.928 0.01837 0.0
C306 C 0.93846 0.94402 0.03551 0.0
C307 C 0.85329 0.86517 0.00608 0.0
C308 C 0.87148 0.81689 0.01097 0.0
C309 C 0.92136 0.83146 0.02881 0.0
C310 C 0.95423 0.89479 0.04087 0.0
C311 C 0.79995 0.85147 0.98729 0.0
C312 C 0.94198 0.78127 0.03461 0.0
C313 C 0.74189 0.63991 0.9848 0.0
C314 C 0.77013 0.6424 0.96441 0.0
C315 C 0.77647 0.69471 1.00086 0.0
C316 C 0.84087 0.75318 0.99646 0.0
C317 C 0.87232 0.75345 0.97677 0.0
C318 C 0.83662 0.69807 0.96101 0.0
C319 C 0.74151 0.69203 0.02174 0.0
C320 C 0.94137 0.81438 0.97155 0.0
H321 H 0.87398 0.96532 0.01412 0.0
H322 H 0.99386 0.9064 0.05408 0.0
H323 H 0.81887 0.84646 0.9712 0.0
H324 H 0.75051 0.80272 0.98934 0.0
H325 H 0.78897 0.89267 0.98637 0.0
H326 H 0.97605 0.79718 0.05031 0.0
H327 H 0.89511 0.73011 0.03632 0.0
H328 H 0.97022 0.7764 0.02097 0.0
H329 H 0.69073 0.59704 0.98769 0.0
H330 H 0.85925 0.70029 0.94543 0.0
H331 H 0.72135 0.72625 0.0206 0.0
H332 H 0.77926 0.71019 0.03657 0.0
H333 H 0.69732 0.63979 0.02427 0.0
H334 H 0.93486 0.85747 0.96796 0.0
H335 H 0.9625 0.80358 0.95692 0.0
H336 H 0.98006 0.83104 0.98606 0.0
C337 C 0.99506 0.90163 0.3566 0.0
C338 C 0.94763 0.8798 0.37313 0.0
C339 C 0.99913 0.85474 0.3427 0.0
C340 C 0.95481 0.78408 0.34536 0.0
C341 C 0.90567 0.76154 0.36165 0.0
C342 C 0.90263 0.80964 0.37533 0.0
C343 C 0.05221 0.881 0.32551 0.0
C344 C 0.85757 0.68669 0.36501 0.0
C345 C 0.94318 0.66805 0.29735 0.0
C346 C 0.99491 0.65556 0.30455 0.0
C347 C 0.92727 0.70753 0.31084 0.0
C348 C 0.96359 0.73458 0.33203 0.0
C349 C 0.01295 0.71876 0.33982 0.0
C350 C 0.02814 0.67973 0.32597 0.0
C351 C 0.87427 0.72322 0.30194 0.0
C352 C 0.05235 0.74585 0.36239 0.0
H353 H 0.02983 0.95563 0.35465 0.0
H354 H 0.86564 0.79219 0.388 0.0
H355 H 0.09107 0.86695 0.32949 0.0
H356 H 0.02654 0.85713 0.30881 0.0
H357 H 0.08012 0.9372 0.32471 0.0
H358 H 0.81909 0.67724 0.37729 0.0
H359 H 0.82914 0.65888 0.34898 0.0
H360 H 0.88848 0.66503 0.37096 0.0
H361 H 0.91743 0.64973 0.28079 0.0
H362 H 0.06773 0.66976 0.33174 0.0
H363 H 0.90093 0.77798 0.29856 0.0
H364 H 0.83642 0.7134 0.31445 0.0
H365 H 0.84537 0.69264 0.28629 0.0
H366 H 0.08715 0.80205 0.36255 0.0
H367 H 0.0845 0.72412 0.36675 0.0
H368 H 0.01571 0.73429 0.37548 0.0
C369 C 0.21325 0.11429 0.68925 0.0
C370 C 0.17506 0.04336 0.69092 0.0
C371 C 0.26367 0.14513 0.67371 0.0
C372 C 0.27688 0.10419 0.65969 0.0
C373 C 0.23945 0.03274 0.6616 0.0
C374 C 0.18876 1.0032 0.67707 0.0
C375 C 0.30186 0.2213 0.67201 0.0
C376 C 0.25256 0.98731 0.64715 0.0
C377 C 0.35439 0.15651 0.60394 0.0
C378 C 0.42226 0.17144 0.60894 0.0
C379 C 0.30767 0.13873 0.6206 0.0
C380 C 0.32914 0.13532 0.64277 0.0
C381 C 0.39906 0.15532 0.64821 0.0
C382 C 0.44491 0.17359 0.63126 0.0
C383 C 0.23397 0.11913 0.61416 0.0
C384 C 0.42414 0.15246 0.67163 0.0
H385 H 0.20274 0.14574 0.69979 0.0
H386 H 0.15972 0.94846 0.67829 0.0
H387 H 0.35885 0.24392 0.67443 0.0
H388 H 0.29089 0.23311 0.65512 0.0
H389 H 0.28669 0.24613 0.68446 0.0
H390 H 0.22057 0.93303 0.65115 0.0
H391 H 0.24061 0.99134 0.62937 0.0
H392 H 0.3083 0.00405 0.64925 0.0
H393 H 0.33648 0.15517 0.58678 0.0
H394 H 0.49724 0.1852 0.63537 0.0
H395 H 0.21738 0.14431 0.62591 0.0
H396 H 0.19828 0.06334 0.61507 0.0
H397 H 0.228 0.13286 0.597 0.0
H398 H 0.40855 0.17758 0.68377 0.0
H399 H 0.48157 0.1771 0.67366 0.0
H400 H 0.39963 0.0985 0.67584 0.0
C401 C 0.16701 0.25518 0.01834 0.0
C402 C 0.1914 0.21542 0.02713 0.0
C403 C 0.1973 0.29581 1.00038 0.0
C404 C 0.254 0.29748 0.99114 0.0
C405 C 0.27706 0.25537 0.99931 0.0
C406 C 0.24531 0.21466 0.01716 0.0
C407 C 0.17064 0.33927 0.99197 0.0
C408 C 0.33752 0.25578 0.98991 0.0
C409 C 0.3216 0.37435 0.93604 0.0
C410 C 0.38131 0.43721 0.94335 0.0
C411 C 0.27756 0.32927 0.95134 0.0
C412 C 0.29355 0.3477 0.97442 0.0
C413 C 0.35089 0.41304 0.98174 0.0
C414 C 0.39392 0.457 0.96612 0.0
C415 C 0.21657 0.26036 0.94284 0.0
C416 C 0.36954 0.43494 0.00619 0.0
H417 H 0.12553 0.25638 0.02591 0.0
H418 H 0.26447 0.1841 0.02381 0.0
H419 H 0.2101 0.3937 0.99647 0.0
H420 H 0.16197 0.33333 0.97356 0.0
H421 H 0.12126 0.32627 0.99911 0.0
H422 H 0.34584 0.21661 0.99697 0.0
H423 H 0.32887 0.24674 0.97155 0.0
H424 H 0.38579 0.30652 0.99359 0.0
H425 H 0.31156 0.35837 0.9185 0.0
H426 H 0.43974 0.5056 0.97188 0.0
H427 H 0.16904 0.24854 0.95097 0.0
H428 H 0.22764 0.22057 0.94704 0.0
H429 H 0.20588 0.25728 0.9245 0.0
H430 H 0.32367 0.42784 0.0143 0.0
H431 H 0.41265 0.48906 0.00903 0.0
H432 H 0.38565 0.40272 0.0145 0.0
C433 C 0.18475 0.33944 0.37537 0.0
C434 C 0.14515 0.26821 0.37179 0.0
C435 C 0.18998 0.3817 0.3583 0.0
C436 C 0.15537 0.352 0.33713 0.0
C437 C 0.12488 0.28124 0.33254 0.0
C438 C 0.11995 0.23998 0.34997 0.0
C439 C 0.2245 0.45707 0.36384 0.0
C440 C 0.08966 0.24785 0.30995 0.0
C441 C 0.0521 0.42193 0.31139 0.0
C442 C 0.09296 0.46031 0.29445 0.0
C443 C 0.07265 0.38745 0.32539 0.0
C444 C 0.1356 0.39057 0.3223 0.0
C445 C 0.17788 0.43003 0.30541 0.0
C446 C 0.15615 0.46485 0.2917 0.0
C447 C 0.02631 0.34711 0.34342 0.0
C448 C 0.24472 0.43382 0.30136 0.0
H449 H 0.20621 0.3621 0.39203 0.0
H450 H 0.09052 0.18516 0.34684 0.0
H451 H 0.25347 0.48705 0.34983 0.0
H452 H 0.18395 0.46857 0.36686 0.0
H453 H 0.2609 0.47398 0.37902 0.0
H454 H 0.08223 0.19672 0.30761 0.0
H455 H 0.03775 0.24171 0.30826 0.0
H456 H 0.12028 0.27985 0.29651 0.0
H457 H 1.0035 0.41867 0.31374 0.0
H458 H 0.18761 0.49403 0.27848 0.0
H459 H 0.056 0.36504 0.35993 0.0
H460 H 0.00797 0.2925 0.34067 0.0
H461 H 0.98005 0.35148 0.34393 0.0
H462 H 0.27549 0.44138 0.31728 0.0
H463 H 0.27733 0.47558 0.29051 0.0
H464 H 0.23227 0.38502 0.29313 0.0
loop_
_geom_bond_atom_site_label_1
_geom_bond_atom_site_label_2
_geom_bond_distance
_geom_bond_site_symmetry_2
_ccdc_geom_bond_type
Mg0 O1 2.028 . S
Mg0 O7 1.986 . S
Mg0 O9 2.114 . S
Mg0 O10 2.251 . S
Mg0 O13 2.010 . S
O1 Mg0 2.028 . S
O1 C4 1.250 1_455 S
O2 Mg3 2.028 . S
O2 C4 1.248 1_455 S
Mg3 O2 2.028 . S
Mg3 O8 2.032 . S
Mg3 O10 2.079 . S
C4 O1 1.250 1_655 S
C4 O2 1.248 1_655 S
C5 O6 1.264 1_565 S
C5 O13 1.249 1_565 S
O6 C5 1.264 1_545 S
O7 Mg0 1.986 . S
O7 C11 1.246 . S
O8 Mg3 2.032 . S
O8 C11 1.259 . S
O9 Mg0 2.114 . S
O9 C12 1.252 . S
O10 Mg0 2.251 . S
O10 Mg3 2.079 . S
O10 C12 1.273 . S
C11 O7 1.246 . S
C11 O8 1.259 . S
C12 O9 1.252 . S
C12 O10 1.273 . S
O13 Mg0 2.010 . S
O13 C5 1.249 1_545 S
Mg14 O15 2.028 1_655 S
Mg14 O21 1.986 1_655 S
Mg14 O23 2.114 1_545 S
Mg14 O24 2.251 . S
Mg14 O27 2.010 1_545 S
O15 Mg14 2.028 1_455 S
O15 C18 1.250 . S
O16 Mg17 2.028 . S
O16 C18 1.248 . S
Mg17 O16 2.028 . S
Mg17 O22 2.032 . S
Mg17 O24 2.079 1_455 S
C18 O15 1.250 . S
C18 O16 1.248 . S
C19 O20 1.264 . S
C19 O27 1.249 . S
O20 C19 1.264 . S
O21 Mg14 1.986 1_455 S
O21 C25 1.246 . S
O22 Mg17 2.032 . S
O22 C25 1.259 . S
O23 Mg14 2.114 1_565 S
O23 C26 1.252 1_565 S
O24 Mg14 2.251 . S
O24 Mg17 2.079 1_655 S
O24 C26 1.273 . S
C25 O21 1.246 . S
C25 O22 1.259 . S
C26 O23 1.252 1_545 S
C26 O24 1.273 . S
O27 Mg14 2.010 1_565 S
O27 C19 1.249 . S
Mg28 O29 2.028 . S
Mg28 O35 1.986 1_455 S
Mg28 O37 2.114 1_545 S
Mg28 O38 2.251 1_445 S
Mg28 O41 2.010 . S
O29 Mg28 2.028 . S
O29 C32 1.250 . S
O30 Mg31 2.028 1_455 S
O30 C32 1.248 . S
Mg31 O30 2.028 1_655 S
Mg31 O36 2.032 . S
Mg31 O38 2.079 1_545 S
C32 O29 1.250 . S
C32 O30 1.248 . S
C33 O34 1.262 1_545 S
C33 O41 1.251 . S
O34 C33 1.262 1_565 S
O35 Mg28 1.986 1_655 S
O35 C39 1.246 . S
O36 Mg31 2.032 . S
O36 C39 1.259 . S
O37 Mg28 2.114 1_565 S
O37 C40 1.252 1_455 S
O38 Mg28 2.251 1_665 S
O38 Mg31 2.079 1_565 S
O38 C40 1.273 . S
C39 O35 1.246 . S
C39 O36 1.259 . S
C40 O37 1.252 1_655 S
C40 O38 1.273 . S
O41 Mg28 2.010 . S
O41 C33 1.251 . S
Mg42 O49 2.141 . S
Mg42 O50 2.048 . S
Mg42 O51 2.048 . S
Mg42 O54 2.141 . S
C43 O44 1.313 1_455 S
C43 O50 1.195 . S
O44 C43 1.313 1_655 S
C45 O46 1.245 1_455 S
C45 O54 1.289 . S
O46 C45 1.245 1_655 S
C47 O48 1.245 1_455 S
C47 O49 1.289 . S
O48 C47 1.245 1_655 S
O49 Mg42 2.141 . S
O49 C47 1.289 . S
O50 Mg42 2.048 . S
O50 C43 1.195 . S
O51 Mg42 2.048 . S
O51 C52 1.195 . S
C52 O51 1.195 . S
C52 O53 1.313 1_455 S
O53 C52 1.313 1_655 S
O54 Mg42 2.141 . S
O54 C45 1.289 . S
Mg55 O62 2.141 . S
Mg55 O63 2.048 . S
Mg55 O64 2.048 . S
Mg55 O67 2.141 . S
C56 O57 1.313 . S
C56 O63 1.195 . S
O57 C56 1.313 . S
C58 O59 1.245 . S
C58 O67 1.289 . S
O59 C58 1.245 . S
C60 O61 1.245 . S
C60 O62 1.289 . S
O61 C60 1.245 . S
O62 Mg55 2.141 . S
O62 C60 1.289 . S
O63 Mg55 2.048 . S
O63 C56 1.195 . S
O64 Mg55 2.048 . S
O64 C65 1.195 . S
C65 O64 1.195 . S
C65 O66 1.313 . S
O66 C65 1.313 . S
O67 Mg55 2.141 . S
O67 C58 1.289 . S
Mg68 O75 2.141 . S
Mg68 O76 2.048 . S
Mg68 O77 2.048 . S
Mg68 O80 2.141 . S
C69 O70 1.313 . S
C69 O76 1.195 . S
O70 C69 1.313 . S
C71 O72 1.245 . S
C71 O80 1.289 . S
O72 C71 1.245 . S
C73 O74 1.245 . S
C73 O75 1.289 . S
O74 C73 1.245 . S
O75 Mg68 2.141 . S
O75 C73 1.289 . S
O76 Mg68 2.048 . S
O76 C69 1.195 . S
O77 Mg68 2.048 . S
O77 C78 1.195 . S
C78 O77 1.195 . S
C78 O79 1.313 . S
O79 C78 1.313 . S
O80 Mg68 2.141 . S
O80 C71 1.289 . S
C81 C82 1.391 . S
C81 C83 1.394 . S
C81 H97 0.931 . S
C82 C81 1.391 . S
C82 C86 1.376 1_455 S
C83 C81 1.394 . S
C83 C84 1.369 . S
C83 C87 1.531 . S
C84 C83 1.369 . S
C84 C85 1.410 1_455 S
C84 C92 1.503 . S
C85 C84 1.410 1_655 S
C85 C86 1.392 . S
C85 C88 1.511 . S
C86 C82 1.376 1_655 S
C86 C85 1.392 . S
C86 H98 0.929 . S
C87 C83 1.531 . S
C87 H99 0.960 . S
C87 H100 0.962 . S
C87 H101 0.960 . S
C88 C85 1.511 . S
C88 H102 0.961 . S
C88 H103 0.961 . S
C88 H104 0.961 . S
C89 C90 1.370 . S
C89 C91 1.363 . S
C89 H105 0.931 . S
C90 C89 1.370 . S
C90 C94 1.408 . S
C91 C89 1.363 . S
C91 C92 1.370 . S
C91 C95 1.524 . S
C92 C84 1.503 . S
C92 C91 1.370 . S
C92 C93 1.403 . S
C93 C92 1.403 . S
C93 C94 1.404 . S
C93 C96 1.539 . S
C94 C90 1.408 . S
C94 C93 1.404 . S
C94 H106 0.930 . S
C95 C91 1.524 . S
C95 H107 0.956 . S
C95 H108 0.961 . S
C95 H109 0.961 . S
C96 C93 1.539 . S
C96 H110 0.958 . S
C96 H111 0.961 1_455 S
C96 H112 0.960 1_455 S
H97 C81 0.931 . S
H98 C86 0.929 . S
H99 C87 0.960 . S
H100 C87 0.962 . S
H101 C87 0.960 . S
H102 C88 0.961 . S
H103 C88 0.961 . S
H104 C88 0.961 . S
H105 C89 0.931 . S
H106 C94 0.930 . S
H107 C95 0.956 . S
H108 C95 0.961 . S
H109 C95 0.961 . S
H110 C96 0.958 . S
H111 C96 0.961 1_655 S
H112 C96 0.960 1_655 S
C113 C114 1.391 . S
C113 C115 1.394 . S
C113 H129 0.931 . S
C114 C113 1.391 . S
C114 C118 1.376 . S
C115 C113 1.394 . S
C115 C116 1.369 . S
C115 C119 1.531 . S
C116 C115 1.369 . S
C116 C117 1.410 . S
C116 C124 1.503 . S
C117 C116 1.410 . S
C117 C118 1.392 . S
C117 C120 1.511 1_545 S
C118 C114 1.376 . S
C118 C117 1.392 . S
C118 H130 0.929 1_545 S
C119 C115 1.531 . S
C119 H131 0.960 . S
C119 H132 0.962 . S
C119 H133 0.960 . S
C120 C117 1.511 1_565 S
C120 H134 0.961 . S
C120 H135 0.961 . S
C120 H136 0.961 1_565 S
C121 C122 1.370 . S
C121 C123 1.363 . S
C121 H137 0.931 1_545 S
C122 C121 1.370 . S
C122 C126 1.408 . S
C123 C121 1.363 . S
C123 C124 1.370 . S
C123 C127 1.524 1_545 S
C124 C116 1.503 . S
C124 C123 1.370 . S
C124 C125 1.403 . S
C125 C124 1.403 . S
C125 C126 1.404 . S
C125 C128 1.539 . S
C126 C122 1.408 . S
C126 C125 1.404 . S
C126 H138 0.930 . S
C127 C123 1.524 1_565 S
C127 H139 0.956 . S
C127 H140 0.961 . S
C127 H141 0.961 . S
C128 C125 1.539 . S
C128 H142 0.958 . S
C128 H143 0.961 . S
C128 H144 0.960 . S
H129 C113 0.931 . S
H130 C118 0.929 1_565 S
H131 C119 0.960 . S
H132 C119 0.962 . S
H133 C119 0.960 . S
H134 C120 0.961 . S
H135 C120 0.961 . S
H136 C120 0.961 1_545 S
H137 C121 0.931 1_565 S
H138 C126 0.930 . S
H139 C127 0.956 . S
H140 C127 0.961 . S
H141 C127 0.961 . S
H142 C128 0.958 . S
H143 C128 0.961 . S
H144 C128 0.960 . S
C145 C146 1.391 . S
C145 C147 1.394 . S
C145 H161 0.931 . S
C146 C145 1.391 . S
C146 C150 1.376 . S
C147 C145 1.394 . S
C147 C148 1.369 . S
C147 C151 1.531 . S
C148 C147 1.369 . S
C148 C149 1.410 . S
C148 C156 1.503 . S
C149 C148 1.410 . S
C149 C150 1.392 . S
C149 C152 1.511 . S
C150 C146 1.376 . S
C150 C149 1.392 . S
C150 H162 0.929 . S
C151 C147 1.531 . S
C151 H163 0.960 . S
C151 H164 0.962 . S
C151 H165 0.960 . S
C152 C149 1.511 . S
C152 H166 0.961 . S
C152 H167 0.961 . S
C152 H168 0.961 . S
C153 C154 1.370 . S
C153 C155 1.363 . S
C153 H169 0.931 . S
C154 C153 1.370 . S
C154 C158 1.408 . S
C155 C153 1.363 . S
C155 C156 1.370 . S
C155 C159 1.524 . S
C156 C148 1.503 . S
C156 C155 1.370 . S
C156 C157 1.403 . S
C157 C156 1.403 . S
C157 C158 1.404 . S
C157 C160 1.539 . S
C158 C154 1.408 . S
C158 C157 1.404 . S
C158 H170 0.930 . S
C159 C155 1.524 . S
C159 H171 0.956 . S
C159 H172 0.961 . S
C159 H173 0.961 . S
C160 C157 1.539 . S
C160 H174 0.958 . S
C160 H175 0.961 . S
C160 H176 0.960 . S
H161 C145 0.931 . S
H162 C150 0.929 . S
H163 C151 0.960 . S
H164 C151 0.962 . S
H165 C151 0.960 . S
H166 C152 0.961 . S
H167 C152 0.961 . S
H168 C152 0.961 . S
H169 C153 0.931 . S
H170 C158 0.930 . S
H171 C159 0.956 . S
H172 C159 0.961 . S
H173 C159 0.961 . S
H174 C160 0.958 . S
H175 C160 0.961 . S
H176 C160 0.960 . S
C177 C178 1.391 . S
C177 C179 1.394 . S
C177 H193 0.931 . S
C178 C177 1.391 . S
C178 C182 1.376 . S
C179 C177 1.394 . S
C179 C180 1.369 . S
C179 C183 1.531 . S
C180 C179 1.369 . S
C180 C181 1.410 . S
C180 C188 1.503 . S
C181 C180 1.410 . S
C181 C182 1.392 . S
C181 C184 1.511 1_455 S
C182 C178 1.376 . S
C182 C181 1.392 . S
C182 H194 0.929 . S
C183 C179 1.531 . S
C183 H195 0.960 . S
C183 H196 0.962 . S
C183 H197 0.960 . S
C184 C181 1.511 1_655 S
C184 H198 0.961 . S
C184 H199 0.961 . S
C184 H200 0.961 . S
C185 C186 1.370 . S
C185 C187 1.363 . S
C185 H201 0.931 . S
C186 C185 1.370 . S
C186 C190 1.408 . S
C187 C185 1.363 . S
C187 C188 1.370 . S
C187 C191 1.524 . S
C188 C180 1.503 . S
C188 C187 1.370 . S
C188 C189 1.403 . S
C189 C188 1.403 . S
C189 C190 1.404 . S
C189 C192 1.539 . S
C190 C186 1.408 . S
C190 C189 1.404 . S
C190 H202 0.930 . S
C191 C187 1.524 . S
C191 H203 0.956 . S
C191 H204 0.961 . S
C191 H205 0.961 . S
C192 C189 1.539 . S
C192 H206 0.958 . S
C192 H207 0.961 . S
C192 H208 0.960 . S
H193 C177 0.931 . S
H194 C182 0.929 . S
H195 C183 0.960 . S
H196 C183 0.962 . S
H197 C183 0.960 . S
H198 C184 0.961 . S
H199 C184 0.961 . S
H200 C184 0.961 . S
H201 C185 0.931 . S
H202 C190 0.930 . S
H203 C191 0.956 . S
H204 C191 0.961 . S
H205 C191 0.961 . S
H206 C192 0.958 . S
H207 C192 0.961 . S
H208 C192 0.960 . S
C209 C210 1.391 . S
C209 C211 1.394 . S
C209 H225 0.931 1_545 S
C210 C209 1.391 . S
C210 C214 1.376 . S
C211 C209 1.394 . S
C211 C212 1.369 . S
C211 C215 1.531 1_545 S
C212 C211 1.369 . S
C212 C213 1.410 . S
C212 C220 1.503 . S
C213 C212 1.410 . S
C213 C214 1.392 . S
C213 C216 1.511 . S
C214 C210 1.376 . S
C214 C213 1.392 . S
C214 H226 0.929 . S
C215 C211 1.531 1_565 S
C215 H227 0.960 . S
C215 H228 0.962 . S
C215 H229 0.960 . S
C216 C213 1.511 . S
C216 H230 0.961 . S
C216 H231 0.961 . S
C216 H232 0.961 . S
C217 C218 1.370 . S
C217 C219 1.363 . S
C217 H233 0.931 . S
C218 C217 1.370 . S
C218 C222 1.408 . S
C219 C217 1.363 . S
C219 C220 1.370 . S
C219 C223 1.524 . S
C220 C212 1.503 . S
C220 C219 1.370 . S
C220 C221 1.403 . S
C221 C220 1.403 . S
C221 C222 1.404 . S
C221 C224 1.539 . S
C222 C218 1.408 . S
C222 C221 1.404 . S
C222 H234 0.930 . S
C223 C219 1.524 . S
C223 H235 0.956 . S
C223 H236 0.961 . S
C223 H237 0.961 . S
C224 C221 1.539 . S
C224 H238 0.958 . S
C224 H239 0.961 . S
C224 H240 0.960 . S
H225 C209 0.931 1_565 S
H226 C214 0.929 . S
H227 C215 0.960 . S
H228 C215 0.962 . S
H229 C215 0.960 . S
H230 C216 0.961 . S
H231 C216 0.961 . S
H232 C216 0.961 . S
H233 C217 0.931 . S
H234 C222 0.930 . S
H235 C223 0.956 . S
H236 C223 0.961 . S
H237 C223 0.961 . S
H238 C224 0.958 . S
H239 C224 0.961 . S
H240 C224 0.960 . S
C241 C242 1.391 . S
C241 C243 1.394 . S
C241 H257 0.931 . S
C242 C241 1.391 . S
C242 C246 1.376 . S
C243 C241 1.394 . S
C243 C244 1.369 . S
C243 C247 1.531 . S
C244 C243 1.369 . S
C244 C245 1.410 . S
C244 C252 1.503 . S
C245 C244 1.410 . S
C245 C246 1.392 . S
C245 C248 1.511 . S
C246 C242 1.376 . S
C246 C245 1.392 . S
C246 H258 0.929 . S
C247 C243 1.531 . S
C247 H259 0.960 . S
C247 H260 0.962 . S
C247 H261 0.960 . S
C248 C245 1.511 . S
C248 H262 0.961 . S
C248 H263 0.961 . S
C248 H264 0.961 . S
C249 C250 1.370 . S
C249 C251 1.363 . S
C249 H265 0.931 . S
C250 C249 1.370 . S
C250 C254 1.408 . S
C251 C249 1.363 . S
C251 C252 1.370 . S
C251 C255 1.524 . S
C252 C244 1.503 . S
C252 C251 1.370 . S
C252 C253 1.403 . S
C253 C252 1.403 . S
C253 C254 1.404 . S
C253 C256 1.539 . S
C254 C250 1.408 . S
C254 C253 1.404 . S
C254 H266 0.930 . S
C255 C251 1.524 . S
C255 H267 0.956 . S
C255 H268 0.961 . S
C255 H269 0.961 . S
C256 C253 1.539 . S
C256 H270 0.958 . S
C256 H271 0.961 . S
C256 H272 0.960 . S
H257 C241 0.931 . S
H258 C246 0.929 . S
H259 C247 0.960 . S
H260 C247 0.962 . S
H261 C247 0.960 . S
H262 C248 0.961 . S
H263 C248 0.961 . S
H264 C248 0.961 . S
H265 C249 0.931 . S
H266 C254 0.930 . S
H267 C255 0.956 . S
H268 C255 0.961 . S
H269 C255 0.961 . S
H270 C256 0.958 . S
H271 C256 0.961 . S
H272 C256 0.960 . S
C273 C274 1.391 . S
C273 C275 1.394 . S
C273 H289 0.931 . S
C274 C273 1.391 . S
C274 C278 1.376 . S
C275 C273 1.394 . S
C275 C276 1.369 . S
C275 C279 1.531 . S
C276 C275 1.369 . S
C276 C277 1.410 . S
C276 C284 1.503 . S
C277 C276 1.410 . S
C277 C278 1.392 . S
C277 C280 1.511 . S
C278 C274 1.376 . S
C278 C277 1.392 . S
C278 H290 0.929 . S
C279 C275 1.531 . S
C279 H291 0.960 . S
C279 H292 0.962 . S
C279 H293 0.960 . S
C280 C277 1.511 . S
C280 H294 0.961 . S
C280 H295 0.961 . S
C280 H296 0.961 . S
C281 C282 1.370 . S
C281 C283 1.363 . S
C281 H297 0.931 . S
C282 C281 1.370 . S
C282 C286 1.408 . S
C283 C281 1.363 . S
C283 C284 1.370 . S
C283 C287 1.524 . S
C284 C276 1.503 . S
C284 C283 1.370 . S
C284 C285 1.403 . S
C285 C284 1.403 . S
C285 C286 1.404 . S
C285 C288 1.539 1_545 S
C286 C282 1.408 . S
C286 C285 1.404 . S
C286 H298 0.930 1_545 S
C287 C283 1.524 . S
C287 H299 0.956 . S
C287 H300 0.961 . S
C287 H301 0.961 . S
C288 C285 1.539 1_565 S
C288 H302 0.958 . S
C288 H303 0.961 . S
C288 H304 0.960 . S
H289 C273 0.931 . S
H290 C278 0.929 . S
H291 C279 0.960 . S
H292 C279 0.962 . S
H293 C279 0.960 . S
H294 C280 0.961 . S
H295 C280 0.961 . S
H296 C280 0.961 . S
H297 C281 0.931 . S
H298 C286 0.930 1_565 S
H299 C287 0.956 . S
H300 C287 0.961 . S
H301 C287 0.961 . S
H302 C288 0.958 . S
H303 C288 0.961 . S
H304 C288 0.960 . S
C305 C306 1.391 . S
C305 C307 1.394 . S
C305 H321 0.931 1_565 S
C306 C305 1.391 . S
C306 C310 1.376 . S
C307 C305 1.394 . S
C307 C308 1.369 . S
C307 C311 1.531 1_554 S
C308 C307 1.369 . S
C308 C309 1.410 . S
C308 C316 1.503 1_554 S
C309 C308 1.410 . S
C309 C310 1.392 . S
C309 C312 1.511 . S
C310 C306 1.376 . S
C310 C309 1.392 . S
C310 H322 0.929 . S
C311 C307 1.531 1_556 S
C311 H323 0.960 . S
C311 H324 0.962 . S
C311 H325 0.951 1_565 S
C312 C309 1.511 . S
C312 H326 0.961 . S
C312 H327 0.961 . S
C312 H328 0.961 . S
C313 C314 1.370 . S
C313 C315 1.363 . S
C313 H329 0.931 . S
C314 C313 1.370 . S
C314 C318 1.408 . S
C315 C313 1.363 . S
C315 C316 1.370 . S
C315 C319 1.524 1_556 S
C316 C308 1.503 1_556 S
C316 C315 1.370 . S
C316 C317 1.403 . S
C317 C316 1.403 . S
C317 C318 1.404 . S
C317 C320 1.539 . S
C318 C314 1.408 . S
C318 C317 1.404 . S
C318 H330 0.930 . S
C319 C315 1.524 1_554 S
C319 H331 0.956 . S
C319 H332 0.961 . S
C319 H333 0.961 . S
C320 C317 1.539 . S
C320 H334 0.958 . S
C320 H335 0.961 . S
C320 H336 0.960 . S
H321 C305 0.931 1_545 S
H322 C310 0.929 . S
H323 C311 0.960 . S
H324 C311 0.962 . S
H325 C311 0.951 1_545 S
H326 C312 0.961 . S
H327 C312 0.961 . S
H328 C312 0.961 . S
H329 C313 0.931 . S
H330 C318 0.930 . S
H331 C319 0.956 . S
H332 C319 0.961 . S
H333 C319 0.961 . S
H334 C320 0.958 . S
H335 C320 0.961 . S
H336 C320 0.960 . S
C337 C338 1.391 1_455 S
C337 C339 1.394 . S
C337 H353 0.931 . S
C338 C337 1.391 1_655 S
C338 C342 1.376 . S
C339 C337 1.394 . S
C339 C340 1.369 1_455 S
C339 C343 1.531 . S
C340 C339 1.369 1_655 S
C340 C341 1.410 . S
C340 C348 1.503 1_655 S
C341 C340 1.410 . S
C341 C342 1.392 . S
C341 C344 1.511 . S
C342 C338 1.376 . S
C342 C341 1.392 . S
C342 H354 0.929 . S
C343 C339 1.531 . S
C343 H355 0.960 . S
C343 H356 0.962 . S
C343 H357 0.960 . S
C344 C341 1.511 . S
C344 H358 0.961 . S
C344 H359 0.961 . S
C344 H360 0.961 . S
C345 C346 1.370 . S
C345 C347 1.363 . S
C345 H361 0.931 . S
C346 C345 1.370 . S
C346 C350 1.408 1_455 S
C347 C345 1.363 . S
C347 C348 1.370 . S
C347 C351 1.524 . S
C348 C340 1.503 1_455 S
C348 C347 1.370 . S
C348 C349 1.403 1_455 S
C349 C348 1.403 1_655 S
C349 C350 1.404 . S
C349 C352 1.539 . S
C350 C346 1.408 1_655 S
C350 C349 1.404 . S
C350 H362 0.930 . S
C351 C347 1.524 . S
C351 H363 0.956 . S
C351 H364 0.961 . S
C351 H365 0.961 . S
C352 C349 1.539 . S
C352 H366 0.958 . S
C352 H367 0.961 . S
C352 H368 0.960 . S
H353 C337 0.931 . S
H354 C342 0.929 . S
H355 C343 0.960 . S
H356 C343 0.962 . S
H357 C343 0.960 . S
H358 C344 0.961 . S
H359 C344 0.961 . S
H360 C344 0.961 . S
H361 C345 0.931 . S
H362 C350 0.930 . S
H363 C351 0.956 . S
H364 C351 0.961 . S
H365 C351 0.961 . S
H366 C352 0.958 . S
H367 C352 0.961 . S
H368 C352 0.960 . S
C369 C370 1.391 . S
C369 C371 1.394 . S
C369 H385 0.931 . S
C370 C369 1.391 . S
C370 C374 1.376 1_545 S
C371 C369 1.394 . S
C371 C372 1.369 . S
C371 C375 1.531 . S
C372 C371 1.369 . S
C372 C373 1.410 1_545 S
C372 C380 1.503 . S
C373 C372 1.410 1_565 S
C373 C374 1.392 . S
C373 C376 1.511 . S
C374 C370 1.376 1_565 S
C374 C373 1.392 . S
C374 H386 0.929 . S
C375 C371 1.531 . S
C375 H387 0.960 . S
C375 H388 0.962 . S
C375 H389 0.960 . S
C376 C373 1.511 . S
C376 H390 0.961 . S
C376 H391 0.961 . S
C376 H392 0.961 . S
C377 C378 1.370 . S
C377 C379 1.363 . S
C377 H393 0.931 . S
C378 C377 1.370 . S
C378 C382 1.408 . S
C379 C377 1.363 . S
C379 C380 1.370 . S
C379 C383 1.524 . S
C380 C372 1.503 . S
C380 C379 1.370 . S
C380 C381 1.403 . S
C381 C380 1.403 . S
C381 C382 1.404 . S
C381 C384 1.539 . S
C382 C378 1.408 . S
C382 C381 1.404 . S
C382 H394 0.930 . S
C383 C379 1.524 . S
C383 H395 0.956 . S
C383 H396 0.961 1_545 S
C383 H397 0.961 1_545 S
C384 C381 1.539 . S
C384 H398 0.958 . S
C384 H399 0.961 . S
C384 H400 0.960 . S
H385 C369 0.931 . S
H386 C374 0.929 . S
H387 C375 0.960 . S
H388 C375 0.962 . S
H389 C375 0.960 . S
H390 C376 0.961 . S
H391 C376 0.961 . S
H392 C376 0.961 . S
H393 C377 0.931 . S
H394 C382 0.930 . S
H395 C383 0.956 . S
H396 C383 0.961 1_565 S
H397 C383 0.961 1_565 S
H398 C384 0.958 . S
H399 C384 0.961 . S
H400 C384 0.960 . S
C401 C402 1.391 . S
C401 C403 1.394 . S
C401 H417 0.931 . S
C402 C401 1.391 . S
C402 C406 1.376 . S
C403 C401 1.394 . S
C403 C404 1.369 . S
C403 C407 1.531 1_554 S
C404 C403 1.369 . S
C404 C405 1.410 . S
C404 C412 1.503 1_554 S
C405 C404 1.410 . S
C405 C406 1.392 . S
C405 C408 1.511 . S
C406 C402 1.376 . S
C406 C405 1.392 . S
C406 H418 0.929 . S
C407 C403 1.531 1_556 S
C407 H419 0.960 . S
C407 H420 0.962 . S
C407 H421 0.952 1_556 S
C408 C405 1.511 . S
C408 H422 0.961 . S
C408 H423 0.961 . S
C408 H424 0.961 . S
C409 C410 1.370 . S
C409 C411 1.363 . S
C409 H425 0.931 . S
C410 C409 1.370 . S
C410 C414 1.408 . S
C411 C409 1.363 . S
C411 C412 1.370 . S
C411 C415 1.524 . S
C412 C404 1.503 1_556 S
C412 C411 1.370 . S
C412 C413 1.403 . S
C413 C412 1.403 . S
C413 C414 1.404 . S
C413 C416 1.539 1_556 S
C414 C410 1.408 . S
C414 C413 1.404 . S
C414 H426 0.930 . S
C415 C411 1.524 . S
C415 H427 0.956 . S
C415 H428 0.961 . S
C415 H429 0.961 . S
C416 C413 1.539 1_554 S
C416 H430 0.958 . S
C416 H431 0.961 . S
C416 H432 0.960 . S
H417 C401 0.931 . S
H418 C406 0.929 . S
H419 C407 0.960 . S
H420 C407 0.962 . S
H421 C407 0.952 1_554 S
H422 C408 0.961 . S
H423 C408 0.961 . S
H424 C408 0.961 . S
H425 C409 0.931 . S
H426 C414 0.930 . S
H427 C415 0.956 . S
H428 C415 0.961 . S
H429 C415 0.961 . S
H430 C416 0.958 . S
H431 C416 0.961 . S
H432 C416 0.960 . S
C433 C434 1.391 . S
C433 C435 1.394 . S
C433 H449 0.931 . S
C434 C433 1.391 . S
C434 C438 1.376 1_455 S
C435 C433 1.394 . S
C435 C436 1.369 . S
C435 C439 1.531 . S
C436 C435 1.369 . S
C436 C437 1.410 1_455 S
C436 C444 1.503 . S
C437 C436 1.410 1_655 S
C437 C438 1.392 . S
C437 C440 1.511 . S
C438 C434 1.376 1_655 S
C438 C437 1.392 . S
C438 H450 0.929 . S
C439 C435 1.531 . S
C439 H451 0.960 . S
C439 H452 0.962 . S
C439 H453 0.960 . S
C440 C437 1.511 . S
C440 H454 0.961 . S
C440 H455 0.961 . S
C440 H456 0.961 . S
C441 C442 1.370 . S
C441 C443 1.363 . S
C441 H457 0.931 . S
C442 C441 1.370 . S
C442 C446 1.408 . S
C443 C441 1.363 . S
C443 C444 1.370 . S
C443 C447 1.529 . S
C444 C436 1.503 . S
C444 C443 1.370 . S
C444 C445 1.403 . S
C445 C444 1.403 . S
C445 C446 1.404 . S
C445 C448 1.539 . S
C446 C442 1.408 . S
C446 C445 1.404 . S
C446 H458 0.930 . S
C447 C443 1.529 . S
C447 H459 0.964 . S
C447 H460 0.958 1_455 S
C447 H461 0.951 1_455 S
C448 C445 1.539 . S
C448 H462 0.958 . S
C448 H463 0.961 . S
C448 H464 0.960 . S
H449 C433 0.931 . S
H450 C438 0.929 . S
H451 C439 0.960 . S
H452 C439 0.962 . S
H453 C439 0.960 . S
H454 C440 0.961 . S
H455 C440 0.961 . S
H456 C440 0.961 . S
H457 C441 0.931 . S
H458 C446 0.930 . S
H459 C447 0.964 . S
H460 C447 0.958 1_655 S
H461 C447 0.951 1_655 S
H462 C448 0.958 . S
H463 C448 0.961 . S
H464 C448 0.960 . S
C90 C47 1.342 . S
C82 C11 1.337 . S
C114 C26 1.497 . S
C122 C65 1.519 . S
C146 C40 1.396 . S
C154 C78 1.419 . S
C178 C5 1.141 . S
C186 C45 1.345 . S
C218 C56 1.535 . S
C210 C18 1.534 . S
C242 C32 1.387 . S
C250 C69 1.420 . S
C282 C58 1.231 . S
C274 C39 1.219 . S
C306 C4 1.337 1_565 S
C314 C71 1.359 . S
C346 C52 1.406 . S
C338 C19 1.265 . S
C378 C60 1.267 . S
C370 C33 1.181 . S
C410 C73 1.357 . S
C402 C12 1.349 . S
C434 C25 1.439 . S
C442 C43 1.440 . S
