# Generated by pormake.
# Topology anh, (6,3)-cn, num edge types: 1
# Building blocks:
#     Node 0, Type 0, BuildingBlock: BETDAH_clean_sbu_0, # of connection points: 6
#     Node 1, Type 0, BuildingBlock: BETDAH_clean_sbu_0, # of connection points: 6
#     Node 2, Type 0, BuildingBlock: BETDAH_clean_sbu_0, # of connection points: 6
#     Node 3, Type 1, BuildingBlock: WUSLED_clean_sbu_0, # of connection points: 3
#     Node 4, Type 1, BuildingBlock: WUSLED_clean_sbu_0, # of connection points: 3
#     Node 5, Type 1, BuildingBlock: WUSLED_clean_sbu_0, # of connection points: 3
#     Node 6, Type 1, BuildingBlock: WUSLED_clean_sbu_0, # of connection points: 3
#     Node 7, Type 1, BuildingBlock: WUSLED_clean_sbu_0, # of connection points: 3
#     Node 8, Type 1, BuildingBlock: WUSLED_clean_sbu_0, # of connection points: 3
#     Edge 9, Type (0, 1), BuildingBlock: EZIPEK_clean_linker_0, # of connection points: 2
#     Edge 10, Type (0, 1), BuildingBlock: EZIPEK_clean_linker_0, # of connection points: 2
#     Edge 11, Type (0, 1), BuildingBlock: EZIPEK_clean_linker_0, # of connection points: 2
#     Edge 12, Type (0, 1), BuildingBlock: EZIPEK_clean_linker_0, # of connection points: 2
#     Edge 13, Type (0, 1), BuildingBlock: EZIPEK_clean_linker_0, # of connection points: 2
#     Edge 14, Type (0, 1), BuildingBlock: EZIPEK_clean_linker_0, # of connection points: 2
#     Edge 15, Type (0, 1), BuildingBlock: EZIPEK_clean_linker_0, # of connection points: 2
#     Edge 16, Type (0, 1), BuildingBlock: EZIPEK_clean_linker_0, # of connection points: 2
#     Edge 17, Type (0, 1), BuildingBlock: EZIPEK_clean_linker_0, # of connection points: 2
#     Edge 18, Type (0, 1), BuildingBlock: EZIPEK_clean_linker_0, # of connection points: 2
#     Edge 19, Type (0, 1), BuildingBlock: EZIPEK_clean_linker_0, # of connection points: 2
#     Edge 20, Type (0, 1), BuildingBlock: EZIPEK_clean_linker_0, # of connection points: 2
#     Edge 21, Type (0, 1), BuildingBlock: EZIPEK_clean_linker_0, # of connection points: 2
#     Edge 22, Type (0, 1), BuildingBlock: EZIPEK_clean_linker_0, # of connection points: 2
#     Edge 23, Type (0, 1), BuildingBlock: EZIPEK_clean_linker_0, # of connection points: 2
#     Edge 24, Type (0, 1), BuildingBlock: EZIPEK_clean_linker_0, # of connection points: 2
#     Edge 25, Type (0, 1), BuildingBlock: EZIPEK_clean_linker_0, # of connection points: 2
#     Edge 26, Type (0, 1), BuildingBlock: EZIPEK_clean_linker_0, # of connection points: 2
# Relax obj value: 0.194
# Max RMSD: 0.217
# Mean RMSD: 0.157
data_MOF--net-anh--node1-BETDAH_clean_sbu_0--node2-WUSLED_clean_sbu_0--edge1-EZIPEK_clean_linker_0
_symmetry_space_group_name_H-M    P1
_symmetry_Int_Tables_number       1
_symmetry_cell_setting            triclinic
loop_
_symmetry_equiv_pos_as_xyz
'x, y, z'
_cell_length_a     31.068506
_cell_length_b     37.509246
_cell_length_c     55.215646
_cell_angle_alpha  91.471666
_cell_angle_beta   90.71204
_cell_angle_gamma 128.74199
loop_
_atom_site_label
_atom_site_type_symbol
_atom_site_fract_x
_atom_site_fract_y
_atom_site_fract_z
_atom_type_partial_charge
Ho0 Ho 0.13395 0.51571 0.16827 0.0
Ho1 Ho 1.08103 0.54918 0.15951 0.0
C2 C 0.20686 0.62596 0.17088 0.0
C3 C 0.19596 0.49344 0.17264 0.0
C4 C 0.2478 0.51458 0.18586 0.0
C5 C 0.29282 0.56066 0.18259 0.0
C6 C 0.34579 0.57409 0.18394 0.0
C7 C 0.35226 0.5411 0.18839 0.0
C8 C 0.30912 0.49943 0.19808 0.0
C9 C 0.25603 0.48577 0.19652 0.0
C10 C 0.09528 0.52232 0.21061 0.0
C11 C 1.01026 0.44098 0.16339 0.0
C12 C 1.01258 0.56549 0.15741 0.0
C13 C 0.96343 0.54297 0.17137 0.0
C14 C 0.96145 0.5244 0.19357 0.0
C15 C 0.91191 0.49615 0.20528 0.0
C16 C 0.86432 0.48622 0.19469 0.0
C17 C 0.86645 0.50503 0.17261 0.0
C18 C 0.91597 0.53339 0.16096 0.0
C19 C 0.12223 0.54287 0.11779 0.0
O20 O 0.20822 0.59151 0.16917 0.0
O21 O 0.15963 0.61822 0.16899 0.0
O22 O 0.15386 0.47711 0.18609 0.0
O23 O 0.19746 0.51507 0.15401 0.0
O24 O 1.09228 0.48812 0.20332 0.0
O25 O 0.11817 0.55228 0.19477 0.0
O26 O 1.01258 0.47599 0.17068 0.0
O27 O 1.05489 0.45002 0.15471 0.0
O28 O 1.01116 0.53819 0.14174 0.0
O29 O 1.0588 0.59129 0.17018 0.0
O30 O 0.12786 0.57841 0.12536 0.0
O31 O 0.0965 0.51248 0.13325 0.0
H32 H 0.28702 0.58391 0.1752 0.0
H33 H 0.37936 0.60679 0.17694 0.0
H34 H 0.31438 0.47421 0.20211 0.0
H35 H 0.22136 0.45056 0.19985 0.0
H36 H 0.99791 0.5308 0.20149 0.0
H37 H 0.91051 0.48187 0.22233 0.0
H38 H 0.82954 0.49746 0.16437 0.0
H39 H 0.91694 0.54666 0.14359 0.0
Ho40 Ho 0.63636 1.0126 0.48271 0.0
Ho41 Ho 0.56431 0.04095 0.47946 0.0
C42 C 0.50259 0.9337 0.47661 0.0
C43 C 0.67888 0.97574 0.49745 0.0
C44 C 0.6602 0.92882 0.49908 0.0
C45 C 0.61551 0.89653 0.51331 0.0
C46 C 0.60173 0.85362 0.51623 0.0
C47 C 0.63235 0.84251 0.50493 0.0
C48 C 0.67517 0.87378 0.48984 0.0
C49 C 0.68906 0.91668 0.48697 0.0
C50 C 0.61683 0.02429 0.43706 0.0
C51 C 0.699 0.1189 0.47997 0.0
C52 C 0.52344 0.08097 0.46859 0.0
C53 C 0.54048 0.12604 0.4763 0.0
C54 C 0.52662 0.14785 0.46179 0.0
C55 C 0.54083 0.18989 0.4696 0.0
C56 C 0.56894 0.21036 0.49201 0.0
C57 C 0.58467 0.1894 0.50612 0.0
C58 C 0.57079 0.14757 0.49825 0.0
C59 C 0.58529 0.03035 0.5253 0.0
O60 O 0.55097 0.94431 0.48228 0.0
O61 O 0.49772 0.96557 0.47212 0.0
O62 O 0.68504 0.99063 0.4756 0.0
O63 O 0.65639 0.98767 0.51194 0.0
O64 O 0.6613 0.03102 0.44438 0.0
O65 O 0.58209 1.00663 0.4536 0.0
O66 O 0.64991 0.10811 0.47636 0.0
O67 O 0.70515 0.08819 0.48537 0.0
O68 O 0.50435 0.05135 0.4856 0.0
O69 O 0.55784 0.08155 0.45487 0.0
O70 O 0.54053 0.02314 0.51811 0.0
O71 O 0.61883 0.04736 0.5083 0.0
H72 H 0.59229 0.90481 0.52278 0.0
H73 H 0.56869 0.82981 0.52801 0.0
H74 H 0.69923 0.86562 0.48109 0.0
H75 H 0.72345 0.94092 0.47585 0.0
H76 H 0.50392 0.13197 0.44468 0.0
H77 H 0.52838 0.20573 0.45858 0.0
H78 H 0.6063 0.20482 0.52348 0.0
H79 H 0.58264 0.13155 0.50953 0.0
Ho80 Ho 0.66503 0.58859 0.84652 0.0
Ho81 Ho 0.58946 0.48479 0.84032 0.0
C82 C 0.53225 0.53236 0.84852 0.0
C83 C 0.72765 0.674 0.83704 0.0
C84 C 0.71609 0.70602 0.83229 0.0
C85 C 0.69554 0.70563 0.80931 0.0
C86 C 0.68293 0.73466 0.80492 0.0
C87 C 0.69154 0.76522 0.82324 0.0
C88 C 0.71241 0.76617 0.84614 0.0
C89 C 0.72457 0.73673 0.85065 0.0
C90 C 0.62566 0.54423 0.88802 0.0
C91 C 0.72438 0.54157 0.8477 0.0
C92 C 0.53911 0.39781 0.83936 0.0
C93 C 0.55279 0.3668 0.83961 0.0
C94 C 0.60792 0.38371 0.84039 0.0
C95 C 0.62024 0.35421 0.8356 0.0
C96 C 0.57751 0.30766 0.82992 0.0
C97 C 0.52245 0.29049 0.83029 0.0
C98 C 0.51018 0.31991 0.83513 0.0
C99 C 0.60651 0.53079 0.79986 0.0
O100 O 0.58021 0.57103 0.8424 0.0
O101 O 0.52722 0.49491 0.85174 0.0
O102 O 0.72123 0.65987 0.85915 0.0
O103 O 0.70818 0.64108 0.82056 0.0
O104 O 0.63495 0.58254 0.88417 0.0
O105 O 0.64082 0.53346 0.87028 0.0
O106 O 0.67443 0.50171 0.84292 0.0
O107 O 0.73148 0.58032 0.85051 0.0
O108 O 0.55439 0.42196 0.82009 0.0
O109 O 0.54808 0.42152 0.85934 0.0
O110 O 0.55946 0.49279 0.80494 0.0
O111 O 0.64164 0.54093 0.81604 0.0
H112 H 0.68922 0.68298 0.79461 0.0
H113 H 0.6672 0.73378 0.7871 0.0
H114 H 0.71958 0.78988 0.86042 0.0
H115 H 0.74061 0.73801 0.86846 0.0
H116 H 0.64141 0.41984 0.84356 0.0
H117 H 0.66297 0.36795 0.83521 0.0
H118 H 0.48911 0.25466 0.82582 0.0
H119 H 0.46749 0.3064 0.83415 0.0
C120 C 0.72979 0.15682 0.18128 0.0
C121 C 0.75015 0.18691 0.20175 0.0
C122 C 0.81913 0.25065 0.17728 0.0
C123 C 0.7947 0.23362 0.19976 0.0
C124 C 0.79902 0.22033 0.157 0.0
C125 C 0.75478 0.17388 0.159 0.0
U126 U 0.61751 0.0413 0.21163 0.0
O127 O 0.58501 0.97284 0.19755 0.0
O128 O 0.53055 0.99161 0.19844 0.0
C129 C 0.53568 0.96032 0.19243 0.0
C130 C 0.6815 0.10793 0.18202 0.0
C131 C 0.48698 0.91154 0.19381 0.0
C132 C 0.39735 0.84769 0.17587 0.0
C133 C 0.44126 0.89457 0.17822 0.0
C134 C 0.44303 0.83353 0.2053 0.0
C135 C 0.39815 0.81676 0.18914 0.0
C136 C 0.48742 0.88067 0.20753 0.0
C137 C 0.62255 0.04089 0.2834 0.0
C138 C 0.55872 1.00797 0.31656 0.0
C139 C 0.65573 0.04593 0.32448 0.0
C140 C 0.66559 0.05452 0.2999 0.0
C141 C 0.60254 0.0234 0.33308 0.0
C142 C 0.56867 0.01676 0.29182 0.0
C143 C 0.63752 0.0582 0.25865 0.0
O144 O 0.69075 0.08 0.18904 0.0
O145 O 0.63616 0.09825 0.19059 0.0
O146 O 0.60455 0.06263 0.24646 0.0
O147 O 0.66015 0.04508 0.24503 0.0
H148 H 0.73148 0.17437 0.21913 0.0
H149 H 0.81013 0.25646 0.21568 0.0
H150 H 0.81771 0.23268 0.13961 0.0
H151 H 0.73971 0.15121 0.14301 0.0
H152 H 0.36301 0.83542 0.16341 0.0
H153 H 0.44033 0.91758 0.16718 0.0
H154 H 0.44414 0.81008 0.21577 0.0
H155 H 0.52244 0.89278 0.21946 0.0
H156 H 0.5174 0.99065 0.32294 0.0
H157 H 0.69006 0.05827 0.33697 0.0
H158 H 0.70755 0.07367 0.29393 0.0
H159 H 0.53478 1.00617 0.27951 0.0
C160 C 0.6059 0.60636 0.53532 0.0
C161 C 0.5974 0.62723 0.55402 0.0
C162 C 0.61021 0.68176 0.52605 0.0
C163 C 0.59931 0.66462 0.54938 0.0
C164 C 0.61856 0.66081 0.50735 0.0
C165 C 0.61635 0.62324 0.51198 0.0
U166 U 0.60876 0.5349 0.58096 0.0
O167 O 0.56553 0.46121 0.58208 0.0
O168 O 0.6563 0.50949 0.58221 0.0
C169 C 0.61146 0.46646 0.58087 0.0
C170 C 0.60622 0.56832 0.54038 0.0
C171 C 0.61123 0.43617 0.56323 0.0
C172 C 0.56907 0.38103 0.52896 0.0
C173 C 0.57323 0.41442 0.54334 0.0
C174 C 0.6429 0.39275 0.55321 0.0
C175 C 0.60288 0.36918 0.53429 0.0
C176 C 0.64699 0.42599 0.56759 0.0
C177 C 0.61269 0.5661 0.64814 0.0
C178 C 0.64122 0.544 0.68182 0.0
C179 C 0.60128 0.58106 0.6895 0.0
C180 C 0.59417 0.58224 0.66461 0.0
C181 C 0.63021 0.56622 0.69878 0.0
C182 C 0.63406 0.54512 0.65684 0.0
C183 C 0.60983 0.57202 0.62212 0.0
O184 O 0.65216 0.58063 0.55085 0.0
O185 O 0.56156 0.53312 0.55027 0.0
O186 O 0.56402 0.53866 0.61025 0.0
O187 O 0.6546 0.58764 0.61028 0.0
H188 H 0.58984 0.61485 0.57223 0.0
H189 H 0.59305 0.6806 0.56401 0.0
H190 H 0.62725 0.67385 0.48929 0.0
H191 H 0.62339 0.60769 0.49742 0.0
H192 H 0.53791 0.36301 0.51441 0.0
H193 H 0.54542 0.4219 0.53948 0.0
H194 H 0.66921 0.38391 0.55754 0.0
H195 H 0.67664 0.44246 0.58276 0.0
H196 H 0.65461 0.52488 0.68724 0.0
H197 H 0.58356 0.59192 0.70124 0.0
H198 H 0.57452 0.59619 0.65822 0.0
H199 H 0.64547 0.52979 0.64432 0.0
C200 C 1.00676 0.5401 0.86587 0.0
C201 C 0.95164 0.49996 0.86794 0.0
C202 C 0.91476 0.54145 0.86162 0.0
C203 C 0.90662 0.50064 0.86586 0.0
C204 C 0.96988 0.58173 0.86013 0.0
C205 C 1.01481 0.581 0.86201 0.0
U206 U 0.12908 0.53689 0.88706 0.0
O207 O 0.15511 0.49997 0.86885 0.0
O208 O 0.21143 0.57465 0.87071 0.0
C209 C 0.20432 0.53742 0.8638 0.0
C210 C 1.05455 0.53874 0.86387 0.0
C211 C 0.25347 0.53779 0.86501 0.0
C212 C 0.34428 0.56789 0.84948 0.0
C213 C 0.30007 0.56936 0.85136 0.0
C214 C 0.29748 0.50321 0.87505 0.0
C215 C 0.34373 0.53455 0.86107 0.0
C216 C 0.25307 0.50471 0.87695 0.0
C217 C 0.12807 0.53451 0.9614 0.0
C218 C 0.11442 0.49527 0.99862 0.0
C219 C 0.13834 0.57033 1.00091 0.0
C220 C 0.14001 0.57166 0.97554 0.0
C221 C 0.12559 0.53215 0.01269 0.0
C222 C 0.1151 0.49624 0.97323 0.0
C223 C 0.12845 0.53542 0.93449 0.0
O224 O 0.10452 0.57549 0.87062 0.0
O225 O 1.04674 0.5009 0.86863 0.0
O226 O 0.1005 0.49787 0.92052 0.0
O227 O 0.15699 0.57381 0.92293 0.0
H228 H 0.94298 0.46752 0.87047 0.0
H229 H 0.86505 0.46889 0.86714 0.0
H230 H 0.97817 0.61384 0.85685 0.0
H231 H 1.05608 0.61253 0.8597 0.0
H232 H 0.37878 0.59252 0.83854 0.0
H233 H 0.30176 0.5948 0.84153 0.0
H234 H 0.29535 0.47703 0.88426 0.0
H235 H 0.21799 0.4794 0.88742 0.0
H236 H 0.10458 0.46551 1.00731 0.0
H237 H 0.14722 0.5992 0.01139 0.0
H238 H 0.14997 0.60155 0.96697 0.0
H239 H 0.10581 0.46713 0.96284 0.0
C240 C 0.98005 0.40069 0.46233 0.0
C241 C 0.93135 0.38132 0.44838 0.0
C242 C 0.88836 0.30805 0.46651 0.0
C243 C 0.88577 0.3351 0.4504 0.0
C244 C 0.93734 0.32712 0.47994 0.0
C245 C 0.98282 0.37304 0.47783 0.0
U246 U 0.09526 0.52533 0.44027 0.0
O247 O 0.17713 0.57273 0.45845 0.0
O248 O 0.11893 0.58743 0.45995 0.0
C249 C 0.16862 0.60144 0.46572 0.0
C250 C 1.02622 0.45023 0.46366 0.0
C251 C 0.2144 0.65043 0.46352 0.0
C252 C 0.26822 0.72714 0.48188 0.0
C253 C 0.22211 0.68098 0.48165 0.0
C254 C 0.299 0.71325 0.4453 0.0
C255 C 0.30738 0.74342 0.46396 0.0
C256 C 0.2526 0.66689 0.44504 0.0
C257 C 1.09167 0.52716 0.36628 0.0
C258 C 1.08156 0.55633 0.32954 0.0
C259 C 0.10321 0.50456 0.32671 0.0
C260 C 0.10307 0.5026 0.352 0.0
C261 C 1.09262 0.53153 0.31532 0.0
C262 C 1.0807 0.5539 0.35482 0.0
C263 C 1.09307 0.52623 0.39303 0.0
O264 O 1.07459 0.46372 0.45688 0.0
O265 O 1.01589 0.47803 0.45777 0.0
O266 O 1.0647 0.5339 0.40645 0.0
O267 O 0.12189 0.51715 0.40499 0.0
H268 H 0.92806 0.40205 0.43645 0.0
H269 H 0.84813 0.32069 0.43987 0.0
H270 H 0.93998 0.30661 0.49236 0.0
H271 H 1.01976 0.38742 0.48893 0.0
H272 H 0.27424 0.74997 0.49643 0.0
H273 H 0.19321 0.66883 0.4961 0.0
H274 H 0.32906 0.72537 0.43139 0.0
H275 H 0.24738 0.64382 0.43088 0.0
H276 H 1.07345 0.5774 0.32104 0.0
H277 H 0.11188 0.48524 0.316 0.0
H278 H 0.11173 0.4818 0.36037 0.0
H279 H 1.07228 0.57349 0.36542 0.0
C280 C 0.63643 0.9567 0.79045 0.0
C281 C 0.61122 0.91692 0.77552 0.0
C282 C 0.65083 0.89192 0.80131 0.0
C283 C 0.61813 0.88456 0.78102 0.0
C284 C 0.67605 0.9316 0.81618 0.0
C285 C 0.66873 0.96373 0.81081 0.0
U286 U 0.62274 0.02404 0.74491 0.0
O287 O 0.5721 0.04644 0.74537 0.0
O288 O 0.66254 0.09735 0.7452 0.0
C289 C 0.61549 0.09004 0.74732 0.0
C290 C 0.6308 0.99174 0.78477 0.0
C291 C 0.61461 0.11894 0.7658 0.0
C292 C 0.56281 0.1333 0.79111 0.0
C293 C 0.56551 0.10309 0.77719 0.0
C294 C 0.65899 0.19498 0.78384 0.0
C295 C 0.60904 0.1797 0.79381 0.0
C296 C 0.66171 0.1649 0.76988 0.0
C297 C 0.62119 0.9989 0.67691 0.0
C298 C 0.61621 0.04017 0.64519 0.0
C299 C 0.61761 0.9778 0.63453 0.0
C300 C 0.62062 0.97126 0.65912 0.0
C301 C 0.61522 1.01216 0.62739 0.0
C302 C 0.61917 0.03356 0.66985 0.0
C303 C 0.62381 0.99085 0.70263 0.0
O304 O 0.67363 0.0281 0.77468 0.0
O305 O 0.58327 0.97673 0.77468 0.0
O306 O 0.57852 0.97305 0.71455 0.0
O307 O 0.66883 0.02417 0.71496 0.0
H308 H 0.58658 0.91104 0.75956 0.0
H309 H 0.59874 0.85417 0.76931 0.0
H310 H 0.70159 0.93774 0.83184 0.0
H311 H 0.68871 0.99431 0.82244 0.0
H312 H 0.52385 0.1211 0.79859 0.0
H313 H 0.5284 0.06797 0.77439 0.0
H314 H 0.6949 0.2308 0.78563 0.0
H315 H 0.69998 0.17824 0.76125 0.0
H316 H 0.61402 0.06665 0.63997 0.0
H317 H 0.61657 0.95575 0.62104 0.0
H318 H 0.62216 0.94438 0.66426 0.0
H319 H 0.61953 0.05521 0.68337 0.0
C320 C 0.60218 0.4187 0.1453 0.0
C321 C 0.6478 0.42209 0.13855 0.0
C322 C 0.66254 0.41298 0.18028 0.0
C323 C 0.67817 0.41965 0.15603 0.0
C324 C 0.61338 0.40445 0.1865 0.0
C325 C 0.58361 0.40806 0.16903 0.0
U326 U 0.58696 0.45273 0.08336 0.0
O327 O 0.51896 0.45044 0.0688 0.0
O328 O 0.60203 0.5164 0.07488 0.0
C329 C 0.54909 0.49521 0.07159 0.0
C330 C 0.58074 0.43455 0.12915 0.0
C331 C 0.52908 0.50999 0.08952 0.0
C332 C 0.50577 0.50823 0.13127 0.0
C333 C 0.52217 0.49388 0.11293 0.0
C334 C 0.50409 0.55615 0.10308 0.0
C335 C 0.49504 0.53822 0.12619 0.0
C336 C 0.52161 0.5422 0.08467 0.0
C337 C 0.6347 0.45121 0.02565 0.0
C338 C 0.60174 0.4781 0.99723 0.0
C339 C 0.67364 0.47367 0.98599 0.0
C340 C 0.67207 0.4575 0.00884 0.0
C341 C 0.63835 0.48396 0.98029 0.0
C342 C 0.59983 0.46171 0.01964 0.0
C343 C 0.63336 0.43802 0.05044 0.0
O344 O 0.61919 0.47496 0.12066 0.0
O345 O 0.5432 0.40461 0.1127 0.0
O346 O 0.58307 0.40526 0.05743 0.0
O347 O 0.66245 0.47318 0.06608 0.0
H348 H 0.66245 0.43034 0.12024 0.0
H349 H 0.71598 0.42604 0.15095 0.0
H350 H 0.60082 0.39888 0.20513 0.0
H351 H 0.54841 0.4056 0.17437 0.0
H352 H 0.49736 0.49329 0.14885 0.0
H353 H 0.52813 0.46918 0.11689 0.0
H354 H 0.49438 0.57856 0.09902 0.0
H355 H 0.52792 0.55547 0.06675 0.0
H356 H 0.57438 0.48596 0.99302 0.0
H357 H 0.7021 0.47818 0.97284 0.0
H358 H 0.69988 0.45031 0.0134 0.0
H359 H 0.57113 0.45753 0.0324 0.0
C360 C 0.44622 0.56596 0.18053 0.0
C361 C 0.39023 0.54104 0.17309 0.0
C362 C 0.4029 0.51051 0.13702 0.0
C363 C 0.46013 0.53989 0.14269 0.0
N364 N 0.5384 0.59693 0.16874 0.0
N365 N 0.31835 0.49853 0.14111 0.0
C366 C 0.48261 0.56806 0.16421 0.0
C367 C 0.36931 0.5158 0.15047 0.0
N368 N 0.46399 0.58685 0.20313 0.0
N369 N 0.38019 0.47656 0.11923 0.0
H370 H 0.29179 0.50228 0.1496 0.0
H371 H 0.30475 0.48465 0.12347 0.0
H372 H 0.40319 0.47107 0.10859 0.0
H373 H 0.33771 0.45082 0.11667 0.0
H374 H 0.5032 0.6021 0.21054 0.0
H375 H 0.43801 0.58635 0.21518 0.0
H376 H 0.55787 0.62128 0.18304 0.0
H377 H 0.56574 0.59837 0.15719 0.0
C378 C 0.7861 0.17829 0.45858 0.0
C379 C 0.74849 0.16731 0.47706 0.0
C380 C 0.79978 0.24929 0.48687 0.0
C381 C 0.83955 0.2597 0.46978 0.0
N382 N 0.87522 0.23482 0.44148 0.0
N383 N 0.72215 0.19188 0.51054 0.0
C384 C 0.83411 0.22436 0.45631 0.0
C385 C 0.75594 0.20274 0.49164 0.0
N386 N 0.7743 0.14516 0.44215 0.0
N387 N 0.80349 0.28401 0.49825 0.0
H388 H 0.68866 0.15842 0.51424 0.0
H389 H 0.72924 0.21565 0.52363 0.0
H390 H 0.83612 0.3185 0.49591 0.0
H391 H 0.77257 0.27893 0.5087 0.0
H392 H 0.79624 0.15191 0.42652 0.0
H393 H 0.73938 0.1112 0.44285 0.0
H394 H 0.8771 0.21033 0.43358 0.0
H395 H 0.90978 0.26831 0.43836 0.0
C396 C 0.63391 0.79077 0.82717 0.0
C397 C 0.68098 0.79774 0.81793 0.0
C398 C 0.70453 0.86331 0.79578 0.0
C399 C 0.66026 0.85874 0.80665 0.0
N400 N 0.58636 0.82203 0.83473 0.0
N401 N 0.76603 0.84428 0.79664 0.0
C402 C 0.62595 0.82357 0.82298 0.0
C403 C 0.71762 0.83497 0.80305 0.0
N404 N 0.59588 0.75198 0.83919 0.0
N405 N 0.73354 0.89432 0.77824 0.0
H406 H 0.77738 0.82453 0.80176 0.0
H407 H 0.79722 0.87372 0.78804 0.0
H408 H 0.7265 0.91686 0.77302 0.0
H409 H 0.76173 0.89547 0.76757 0.0
H410 H 0.5578 0.7424 0.84411 0.0
H411 H 0.60047 0.72729 0.84266 0.0
H412 H 0.56433 0.80064 0.84891 0.0
H413 H 0.57794 0.84441 0.83139 0.0
C414 C 0.77311 0.41148 0.19927 0.0
C415 C 0.81156 0.45811 0.20667 0.0
C416 C 0.73973 0.46519 0.2101 0.0
C417 C 0.70254 0.42086 0.19872 0.0
N418 N 0.67647 0.3464 0.19099 0.0
N419 N 0.83088 0.52252 0.22883 0.0
C420 C 0.71665 0.39168 0.197 0.0
C421 C 0.79388 0.48192 0.2162 0.0
N422 N 0.79152 0.38815 0.19216 0.0
N423 N 0.72573 0.49311 0.21223 0.0
H424 H 0.87145 0.53526 0.23246 0.0
H425 H 0.82019 0.54095 0.23736 0.0
H426 H 0.68606 0.4819 0.20831 0.0
H427 H 0.75402 0.52788 0.21702 0.0
H428 H 0.76609 0.35524 0.18427 0.0
H429 H 0.83314 0.40268 0.19392 0.0
H430 H 0.68321 0.3225 0.19013 0.0
H431 H 0.63515 0.33256 0.18872 0.0
C432 C 0.44346 0.85153 0.48937 0.0
C433 C 0.45378 0.8844 0.47275 0.0
C434 C 0.3671 0.82438 0.45034 0.0
C435 C 0.359 0.79148 0.46597 0.0
N436 N 0.39593 0.77154 0.49649 0.0
N437 N 0.43329 0.89794 0.43313 0.0
C438 C 0.39925 0.80441 0.48428 0.0
C439 C 0.4178 0.86973 0.45201 0.0
N440 N 0.47401 0.86501 0.51057 0.0
N441 N 0.32597 0.81269 0.43422 0.0
H442 H 0.47162 0.93026 0.4326 0.0
H443 H 0.41088 0.88717 0.41669 0.0
H444 H 0.28849 0.77962 0.43223 0.0
H445 H 0.32734 0.83664 0.42432 0.0
H446 H 0.46361 0.84292 0.52449 0.0
H447 H 0.50699 0.89878 0.51542 0.0
H448 H 0.42745 0.77869 0.50807 0.0
H449 H 0.36416 0.7366 0.49325 0.0
C450 C 0.59423 0.27287 0.79594 0.0
C451 C 0.58994 0.27737 0.8212 0.0
C452 C 0.60372 0.22092 0.82893 0.0
C453 C 0.6029 0.21349 0.80355 0.0
N454 N 0.58901 0.22684 0.76268 0.0
N455 N 0.58608 0.25406 0.86186 0.0
C456 C 0.59608 0.23809 0.78698 0.0
C457 C 0.59358 0.251 0.83778 0.0
N458 N 0.59727 0.30232 0.78054 0.0
N459 N 0.61531 0.19993 0.84448 0.0
H460 H 0.58068 0.27701 0.869 0.0
H461 H 0.58204 0.23225 0.8746 0.0
H462 H 0.62195 0.17716 0.83852 0.0
H463 H 0.62207 0.20727 0.86308 0.0
H464 H 0.60698 0.30432 0.76239 0.0
H465 H 0.59458 0.32755 0.78629 0.0
H466 H 0.57739 0.23971 0.75 0.0
H467 H 0.59016 0.20162 0.75524 0.0
C468 C 0.66296 0.80462 0.52744 0.0
C469 C 0.62431 0.8006 0.51117 0.0
C470 C 0.57214 0.71766 0.50737 0.0
C471 C 0.61441 0.72256 0.52131 0.0
N472 N 0.7044 0.77141 0.54157 0.0
N473 N 0.54538 0.75476 0.48344 0.0
C474 C 0.66099 0.76624 0.53059 0.0
C475 C 0.57962 0.75746 0.50054 0.0
N476 N 0.70074 0.84488 0.54035 0.0
N477 N 0.52425 0.67495 0.50129 0.0
H478 H 0.54921 0.78319 0.47833 0.0
H479 H 0.51584 0.7251 0.47307 0.0
H480 H 0.51729 0.64505 0.5061 0.0
H481 H 0.48966 0.66907 0.49332 0.0
H482 H 0.72595 0.84834 0.5544 0.0
H483 H 0.70351 0.87389 0.5386 0.0
H484 H 0.74199 0.80318 0.54622 0.0
H485 H 0.70481 0.74418 0.54413 0.0
C486 C 0.77985 0.5253 0.8729 0.0
C487 C 0.77359 0.54222 0.85142 0.0
C488 C 0.85692 0.55524 0.83589 0.0
C489 C 0.86595 0.54187 0.85817 0.0
N490 N 0.84061 0.52262 0.89965 0.0
N491 N 0.81209 0.5804 0.81414 0.0
C492 C 0.82842 0.52901 0.87711 0.0
C493 C 0.81416 0.55954 0.83353 0.0
N494 N 0.73926 0.50557 0.88945 0.0
N495 N 0.88726 0.56144 0.81638 0.0
H496 H 0.78045 0.58241 0.81118 0.0
H497 H 0.84386 0.59872 0.80203 0.0
H498 H 0.91725 0.55707 0.81695 0.0
H499 H 0.87906 0.56643 0.79899 0.0
H500 H 0.73765 0.48759 0.90395 0.0
H501 H 0.70496 0.50447 0.88781 0.0
H502 H 0.81855 0.51805 0.91491 0.0
H503 H 0.8761 0.52627 0.90367 0.0
C504 C 0.2594 0.69898 0.19675 0.0
C505 C 0.25807 0.67373 0.17662 0.0
C506 C 0.3527 0.74045 0.1674 0.0
C507 C 0.35145 0.76678 0.18589 0.0
N508 N 0.3015 0.77322 0.2163 0.0
N509 N 0.3003 0.67264 0.14055 0.0
C510 C 0.30424 0.74657 0.20009 0.0
C511 C 0.30414 0.69489 0.16147 0.0
N512 N 0.21872 0.67721 0.21326 0.0
N513 N 0.40041 0.75908 0.1555 0.0
H514 H 0.26505 0.63991 0.13524 0.0
H515 H 0.3299 0.68797 0.12735 0.0
H516 H 0.43615 0.79271 0.15887 0.0
H517 H 0.40601 0.74029 0.14371 0.0
H518 H 0.22084 0.69245 0.22975 0.0
H519 H 0.18489 0.64258 0.21165 0.0
H520 H 0.2655 0.76197 0.22486 0.0
H521 H 0.33426 0.8078 0.21999 0.0
C522 C 0.62365 0.29571 0.49574 0.0
C523 C 0.57692 0.25131 0.5019 0.0
C524 C 0.54773 0.28426 0.52941 0.0
C525 C 0.59242 0.32859 0.52207 0.0
N526 N 0.66782 0.37672 0.49566 0.0
N527 N 0.48961 0.20232 0.52133 0.0
C528 C 0.62895 0.33439 0.50444 0.0
C529 C 0.53744 0.24531 0.51774 0.0
N530 N 0.66364 0.30087 0.48221 0.0
N531 N 0.51653 0.27943 0.54828 0.0
H532 H 0.48106 0.17272 0.51363 0.0
H533 H 0.45641 0.19605 0.53038 0.0
H534 H 0.52221 0.30697 0.55725 0.0
H535 H 0.48781 0.24849 0.55638 0.0
H536 H 0.70157 0.33243 0.47932 0.0
H537 H 0.66054 0.27317 0.47527 0.0
H538 H 0.69211 0.38256 0.48107 0.0
H539 H 0.6727 0.40568 0.50173 0.0
C540 C 0.46921 0.53749 0.87538 0.0
C541 C 0.48264 0.53118 0.85188 0.0
C542 C 0.4012 0.52155 0.83493 0.0
C543 C 0.39102 0.53231 0.85808 0.0
N544 N 0.42162 0.55737 0.89976 0.0
N545 N 0.46363 0.52125 0.80883 0.0
C546 C 0.42661 0.54184 0.87815 0.0
C547 C 0.44926 0.52452 0.83156 0.0
N548 N 0.49677 0.53879 0.89527 0.0
N549 N 0.36334 0.50626 0.81628 0.0
H550 H 0.49561 0.51989 0.80575 0.0
H551 H 0.44616 0.52263 0.79303 0.0
H552 H 0.3274 0.50259 0.81809 0.0
H553 H 0.36476 0.49322 0.79971 0.0
H554 H 0.48483 0.53753 0.91297 0.0
H555 H 0.52916 0.53751 0.89401 0.0
H556 H 0.44981 0.56988 0.91433 0.0
H557 H 0.39189 0.56161 0.90248 0.0
C558 C 0.90753 0.37512 0.15847 0.0
C559 C 0.96077 0.39231 0.16741 0.0
C560 C 0.9208 0.31578 0.182 0.0
C561 C 0.86738 0.29993 0.17487 0.0
N562 N 0.80798 0.31457 0.15843 0.0
N563 N 1.01603 0.37965 0.19121 0.0
C564 C 0.86023 0.32975 0.16377 0.0
C565 C 0.96681 0.36279 0.18009 0.0
N566 N 0.90252 0.40134 0.14386 0.0
N567 N 0.92811 0.28542 0.18967 0.0
H568 H 1.05199 0.41259 0.18938 0.0
H569 H 1.02048 0.36178 0.20375 0.0
H570 H 0.89555 0.25087 0.19187 0.0
H571 H 0.9667 0.29348 0.19194 0.0
H572 H 0.86608 0.3895 0.13467 0.0
H573 H 0.93609 0.43412 0.13911 0.0
H574 H 0.79909 0.33511 0.15184 0.0
H575 H 0.7727 0.28174 0.16212 0.0
C576 C 1.07141 0.50852 0.0771 0.0
C577 C 0.12162 0.53348 0.09127 0.0
C578 C 0.17426 0.55666 0.05399 0.0
C579 C 0.12411 0.53099 0.03981 0.0
N580 N 1.02462 0.47656 0.03764 0.0
N581 N 0.21918 0.57272 0.09366 0.0
C582 C 1.07258 0.50485 0.05134 0.0
C583 C 0.17258 0.55506 0.07979 0.0
N584 N 1.02279 0.49031 0.08811 0.0
N585 N 0.22362 0.58316 0.04279 0.0
H586 H 0.21854 0.57033 0.11246 0.0
H587 H 0.2571 0.58557 0.08659 0.0
H588 H 0.22675 0.58312 0.02401 0.0
H589 H 0.26137 0.60716 0.05197 0.0
H590 H 0.98596 0.47696 0.07873 0.0
H591 H 1.01954 0.49088 0.10683 0.0
H592 H 0.98627 0.45226 0.04492 0.0
H593 H 1.02334 0.47513 0.01874 0.0
C594 C 0.58 0.97975 0.39714 0.0
C595 C 0.60271 0.02091 0.41087 0.0
C596 C 0.60999 0.05851 0.37365 0.0
C597 C 0.59481 0.01966 0.35973 0.0
N598 N 0.56685 0.94358 0.35757 0.0
N599 N 0.64365 0.10075 0.41232 0.0
C600 C 0.57942 0.98004 0.37131 0.0
C601 C 0.61834 0.06052 0.39918 0.0
N602 N 0.55949 0.94056 0.40882 0.0
N603 N 0.61624 0.09346 0.36238 0.0
H604 H 0.64931 0.1033 0.43107 0.0
H605 H 0.66238 0.13217 0.40459 0.0
H606 H 0.61087 0.0932 0.34367 0.0
H607 H 0.62176 0.12065 0.37166 0.0
H608 H 0.53719 0.9084 0.40009 0.0
H609 H 0.56104 0.93948 0.42765 0.0
H610 H 0.56174 0.91579 0.36472 0.0
H611 H 0.56437 0.9422 0.33867 0.0
C612 C 0.64511 0.53098 0.76017 0.0
C613 C 0.62158 0.5461 0.7748 0.0
C614 C 0.63333 0.59409 0.74219 0.0
C615 C 0.64275 0.56986 0.72595 0.0
N616 N 0.70358 0.55068 0.72642 0.0
N617 N 0.59635 0.59492 0.7802 0.0
C618 C 0.66183 0.54782 0.7366 0.0
C619 C 0.61696 0.5788 0.76603 0.0
N620 N 0.65092 0.50015 0.76847 0.0
N621 N 0.648 0.63529 0.73604 0.0
H622 H 0.58681 0.58655 0.7982 0.0
H623 H 0.58621 0.61469 0.77355 0.0
H624 H 0.66819 0.65042 0.72003 0.0
H625 H 0.64697 0.6567 0.74799 0.0
H626 H 0.66305 0.48513 0.75737 0.0
H627 H 0.63983 0.48713 0.78573 0.0
H628 H 0.72239 0.53856 0.73457 0.0
H629 H 0.72501 0.57185 0.71202 0.0
C630 C 0.64762 0.05841 0.56362 0.0
C631 C 0.59602 0.02494 0.551 0.0
C632 C 0.55655 0.98595 0.58922 0.0
C633 C 0.60889 0.01709 0.60119 0.0
N634 N 0.70656 0.07824 0.59924 0.0
N635 N 0.50507 0.95098 0.55129 0.0
C636 C 0.65514 0.05185 0.58819 0.0
C637 C 0.55159 0.98706 0.56369 0.0
N638 N 0.68852 0.09785 0.55289 0.0
N639 N 0.51098 0.95598 0.60238 0.0
H640 H 0.49912 0.94956 0.53261 0.0
H641 H 0.47461 0.92022 0.55917 0.0
H642 H 0.51283 0.95373 0.62111 0.0
H643 H 0.47075 0.93621 0.59511 0.0
H644 H 0.7238 0.12566 0.56226 0.0
H645 H 0.68565 0.10493 0.53519 0.0
H646 H 0.74278 0.10046 0.58998 0.0
H647 H 0.71343 0.07523 0.61734 0.0
C648 C 0.67656 0.55976 0.92735 0.0
C649 C 0.62775 0.53059 0.91244 0.0
C650 C 0.59114 0.46886 0.94034 0.0
C651 C 0.63721 0.49945 0.9563 0.0
N652 N 0.71787 0.57641 0.96767 0.0
N653 N 0.53427 0.46053 0.90695 0.0
C654 C 0.67826 0.54568 0.95063 0.0
C655 C 0.58375 0.48599 0.91956 0.0
N656 N 0.72229 0.59978 0.91894 0.0
N657 N 0.55498 0.42329 0.94487 0.0
H658 H 0.52714 0.47248 0.89194 0.0
H659 H 0.49885 0.42973 0.91274 0.0
H660 H 0.55918 0.40944 0.95999 0.0
H661 H 0.52379 0.39862 0.93258 0.0
H662 H 0.76052 0.61956 0.92821 0.0
H663 H 0.72385 0.61127 0.90175 0.0
H664 H 0.74476 0.61158 0.96538 0.0
H665 H 0.7209 0.56723 0.98491 0.0
C666 C 1.04385 0.50105 0.24893 0.0
C667 C 0.09468 0.53062 0.23707 0.0
C668 C 0.14435 0.56275 0.27677 0.0
C669 C 0.09322 0.53362 0.28839 0.0
N670 N 0.99383 0.4801 0.28614 0.0
N671 N 0.19398 0.58873 0.23928 0.0
C672 C 1.04285 0.50444 0.27461 0.0
C673 C 0.14514 0.5617 0.25088 0.0
N674 N 0.99671 0.46791 0.23568 0.0
N675 N 0.19219 0.5902 0.29069 0.0
H676 H 0.19741 0.58539 0.22079 0.0
H677 H 0.23161 0.61547 0.2476 0.0
H678 H 0.19272 0.59299 0.30956 0.0
H679 H 0.23171 0.60965 0.28403 0.0
H680 H 0.96012 0.44108 0.24328 0.0
H681 H 0.99473 0.46535 0.21681 0.0
H682 H 0.95551 0.46253 0.27718 0.0
H683 H 0.99131 0.47995 0.30496 0.0
loop_
_geom_bond_atom_site_label_1
_geom_bond_atom_site_label_2
_geom_bond_distance
_geom_bond_site_symmetry_2
_ccdc_geom_bond_type
Ho0 C3 2.811 . S
Ho0 O20 2.322 . S
Ho0 O22 2.378 . S
Ho0 O23 2.524 . S
Ho0 O24 2.381 . S
Ho0 O25 2.669 . S
Ho0 O27 2.346 1_455 S
Ho0 O31 2.305 . S
Ho1 C12 2.811 . S
Ho1 O21 2.346 1_655 S
Ho1 O25 2.305 1_655 S
Ho1 O26 2.322 . S
Ho1 O28 2.378 . S
Ho1 O29 2.524 . S
Ho1 O30 2.381 . S
Ho1 O31 2.669 1_655 S
C2 O20 1.259 . S
C2 O21 1.268 . S
C3 Ho0 2.811 . S
C3 C4 1.488 . S
C3 O22 1.215 . S
C3 O23 1.289 . S
C4 C3 1.488 . S
C4 C5 1.348 . S
C4 C9 1.413 . S
C5 C4 1.348 . S
C5 C6 1.442 . S
C5 H32 0.930 . S
C6 C5 1.442 . S
C6 C7 1.381 . S
C6 H33 0.931 . S
C7 C6 1.381 . S
C7 C8 1.321 . S
C8 C7 1.321 . S
C8 C9 1.403 . S
C8 H34 0.934 . S
C9 C4 1.413 . S
C9 C8 1.403 . S
C9 H35 0.930 . S
C10 O24 1.275 . S
C10 O25 1.256 . S
C11 O26 1.259 . S
C11 O27 1.268 . S
C12 Ho1 2.811 . S
C12 C13 1.488 . S
C12 O28 1.215 . S
C12 O29 1.289 . S
C13 C12 1.488 . S
C13 C14 1.348 . S
C13 C18 1.413 . S
C14 C13 1.348 . S
C14 C15 1.442 . S
C14 H36 0.930 . S
C15 C14 1.442 . S
C15 C16 1.381 . S
C15 H37 0.931 . S
C16 C15 1.381 . S
C16 C17 1.321 . S
C17 C16 1.321 . S
C17 C18 1.403 . S
C17 H38 0.934 . S
C18 C13 1.413 . S
C18 C17 1.403 . S
C18 H39 0.930 . S
C19 O30 1.275 1_455 S
C19 O31 1.256 . S
O20 Ho0 2.322 . S
O20 C2 1.259 . S
O21 Ho1 2.346 1_455 S
O21 C2 1.268 . S
O22 Ho0 2.378 . S
O22 C3 1.215 . S
O23 Ho0 2.524 . S
O23 C3 1.289 . S
O24 Ho0 2.381 . S
O24 C10 1.275 . S
O25 Ho0 2.669 . S
O25 Ho1 2.305 1_455 S
O25 C10 1.256 . S
O26 Ho1 2.322 . S
O26 C11 1.259 . S
O27 Ho0 2.346 1_655 S
O27 C11 1.268 . S
O28 Ho1 2.378 . S
O28 C12 1.215 . S
O29 Ho1 2.524 . S
O29 C12 1.289 . S
O30 Ho1 2.381 . S
O30 C19 1.275 1_655 S
O31 Ho0 2.305 . S
O31 Ho1 2.669 1_455 S
O31 C19 1.256 . S
H32 C5 0.930 . S
H33 C6 0.931 . S
H34 C8 0.934 . S
H35 C9 0.930 . S
H36 C14 0.930 . S
H37 C15 0.931 . S
H38 C17 0.934 . S
H39 C18 0.930 . S
Ho40 C43 2.811 . S
Ho40 O60 2.322 . S
Ho40 O62 2.378 . S
Ho40 O63 2.524 . S
Ho40 O64 2.381 . S
Ho40 O65 2.669 1_565 S
Ho40 O67 2.346 1_565 S
Ho40 O71 2.321 . S
Ho41 C52 2.811 . S
Ho41 O61 2.346 1_545 S
Ho41 O65 2.305 . S
Ho41 O66 2.322 . S
Ho41 O68 2.378 . S
Ho41 O69 2.524 . S
Ho41 O70 2.381 . S
Ho41 O71 2.644 1_545 S
C42 O60 1.259 . S
C42 O61 1.268 . S
C43 Ho40 2.811 . S
C43 C44 1.488 . S
C43 O62 1.215 . S
C43 O63 1.289 . S
C44 C43 1.488 . S
C44 C45 1.348 . S
C44 C49 1.413 . S
C45 C44 1.348 . S
C45 C46 1.442 . S
C45 H72 0.930 . S
C46 C45 1.442 . S
C46 C47 1.381 . S
C46 H73 0.931 . S
C47 C46 1.381 . S
C47 C48 1.321 . S
C48 C47 1.321 . S
C48 C49 1.403 . S
C48 H74 0.934 . S
C49 C44 1.413 . S
C49 C48 1.403 . S
C49 H75 0.930 . S
C50 O64 1.275 1_545 S
C50 O65 1.256 . S
C51 O66 1.259 . S
C51 O67 1.268 . S
C52 Ho41 2.811 . S
C52 C53 1.488 . S
C52 O68 1.215 . S
C52 O69 1.289 . S
C53 C52 1.488 . S
C53 C54 1.348 . S
C53 C58 1.413 . S
C54 C53 1.348 . S
C54 C55 1.442 . S
C54 H76 0.930 . S
C55 C54 1.442 . S
C55 C56 1.381 . S
C55 H77 0.931 . S
C56 C55 1.381 . S
C56 C57 1.321 . S
C57 C56 1.321 . S
C57 C58 1.403 . S
C57 H78 0.934 . S
C58 C53 1.413 . S
C58 C57 1.403 . S
C58 H79 0.930 . S
C59 O70 1.275 . S
C59 O71 1.242 1_545 S
O60 Ho40 2.322 . S
O60 C42 1.259 . S
O61 Ho41 2.346 1_565 S
O61 C42 1.268 . S
O62 Ho40 2.378 . S
O62 C43 1.215 . S
O63 Ho40 2.524 . S
O63 C43 1.289 . S
O64 Ho40 2.381 . S
O64 C50 1.275 1_565 S
O65 Ho40 2.669 1_545 S
O65 Ho41 2.305 . S
O65 C50 1.256 . S
O66 Ho41 2.322 . S
O66 C51 1.259 . S
O67 Ho40 2.346 1_545 S
O67 C51 1.268 . S
O68 Ho41 2.378 . S
O68 C52 1.215 . S
O69 Ho41 2.524 . S
O69 C52 1.289 . S
O70 Ho41 2.381 . S
O70 C59 1.275 . S
O71 Ho40 2.321 . S
O71 Ho41 2.644 1_565 S
O71 C59 1.242 1_565 S
H72 C45 0.930 . S
H73 C46 0.931 . S
H74 C48 0.934 . S
H75 C49 0.930 . S
H76 C54 0.930 . S
H77 C55 0.931 . S
H78 C57 0.934 . S
H79 C58 0.930 . S
Ho80 C83 2.811 . S
Ho80 O100 2.322 . S
Ho80 O102 2.378 . S
Ho80 O103 2.524 . S
Ho80 O104 2.381 . S
Ho80 O105 2.669 . S
Ho80 O107 2.346 . S
Ho80 O111 2.305 . S
Ho81 C92 2.811 . S
Ho81 O101 2.346 . S
Ho81 O105 2.305 . S
Ho81 O106 2.322 . S
Ho81 O108 2.378 . S
Ho81 O109 2.524 . S
Ho81 O110 2.381 . S
Ho81 O111 2.669 . S
C82 O100 1.259 . S
C82 O101 1.268 . S
C83 Ho80 2.811 . S
C83 C84 1.488 . S
C83 O102 1.215 . S
C83 O103 1.289 . S
C84 C83 1.488 . S
C84 C85 1.348 . S
C84 C89 1.413 . S
C85 C84 1.348 . S
C85 C86 1.442 . S
C85 H112 0.930 . S
C86 C85 1.442 . S
C86 C87 1.381 . S
C86 H113 0.931 . S
C87 C86 1.381 . S
C87 C88 1.321 . S
C88 C87 1.321 . S
C88 C89 1.403 . S
C88 H114 0.934 . S
C89 C84 1.413 . S
C89 C88 1.403 . S
C89 H115 0.930 . S
C90 O104 1.275 . S
C90 O105 1.256 . S
C91 O106 1.259 . S
C91 O107 1.268 . S
C92 Ho81 2.811 . S
C92 C93 1.488 . S
C92 O108 1.215 . S
C92 O109 1.289 . S
C93 C92 1.488 . S
C93 C94 1.348 . S
C93 C98 1.413 . S
C94 C93 1.348 . S
C94 C95 1.442 . S
C94 H116 0.930 . S
C95 C94 1.442 . S
C95 C96 1.381 . S
C95 H117 0.931 . S
C96 C95 1.381 . S
C96 C97 1.321 . S
C97 C96 1.321 . S
C97 C98 1.403 . S
C97 H118 0.934 . S
C98 C93 1.413 . S
C98 C97 1.403 . S
C98 H119 0.930 . S
C99 O110 1.275 . S
C99 O111 1.256 . S
O100 Ho80 2.322 . S
O100 C82 1.259 . S
O101 Ho81 2.346 . S
O101 C82 1.268 . S
O102 Ho80 2.378 . S
O102 C83 1.215 . S
O103 Ho80 2.524 . S
O103 C83 1.289 . S
O104 Ho80 2.381 . S
O104 C90 1.275 . S
O105 Ho80 2.669 . S
O105 Ho81 2.305 . S
O105 C90 1.256 . S
O106 Ho81 2.322 . S
O106 C91 1.259 . S
O107 Ho80 2.346 . S
O107 C91 1.268 . S
O108 Ho81 2.378 . S
O108 C92 1.215 . S
O109 Ho81 2.524 . S
O109 C92 1.289 . S
O110 Ho81 2.381 . S
O110 C99 1.275 . S
O111 Ho80 2.305 . S
O111 Ho81 2.669 . S
O111 C99 1.256 . S
H112 C85 0.930 . S
H113 C86 0.931 . S
H114 C88 0.934 . S
H115 C89 0.930 . S
H116 C94 0.930 . S
H117 C95 0.931 . S
H118 C97 0.934 . S
H119 C98 0.930 . S
C120 C121 1.264 . S
C120 C125 1.479 . S
C120 C130 1.465 . S
C121 C120 1.264 . S
C121 C123 1.339 . S
C121 H148 0.931 . S
C122 C123 1.395 . S
C122 C124 1.320 . S
C123 C121 1.339 . S
C123 C122 1.395 . S
C123 H149 0.929 . S
C124 C122 1.320 . S
C124 C125 1.405 . S
C124 H150 0.930 . S
C125 C120 1.479 . S
C125 C124 1.405 . S
C125 H151 0.931 . S
U126 O127 2.454 1_545 S
U126 O128 2.458 1_545 S
U126 C129 2.984 1_545 S
U126 C130 2.847 . S
U126 C143 2.882 . S
U126 O144 2.441 . S
U126 O145 2.420 . S
U126 O146 2.455 1_545 S
U126 O147 2.449 . S
O127 U126 2.454 1_565 S
O127 C129 1.353 . S
O128 U126 2.458 1_565 S
O128 C129 1.286 . S
C129 U126 2.984 1_565 S
C129 O127 1.353 . S
C129 O128 1.286 . S
C129 C131 1.363 . S
C130 C120 1.465 . S
C130 U126 2.847 . S
C130 O144 1.249 . S
C130 O145 1.202 . S
C131 C129 1.363 . S
C131 C133 1.408 . S
C131 C136 1.342 . S
C132 C133 1.310 . S
C132 C135 1.461 . S
C132 H152 0.932 . S
C133 C131 1.408 . S
C133 C132 1.310 . S
C133 H153 0.930 . S
C134 C135 1.474 . S
C134 C136 1.285 . S
C134 H154 0.929 . S
C135 C132 1.461 . S
C135 C134 1.474 . S
C136 C131 1.342 . S
C136 C134 1.285 . S
C136 H155 0.930 . S
C137 C140 1.424 . S
C137 C142 1.245 1_545 S
C137 C143 1.428 . S
C138 C141 1.260 1_565 S
C138 C142 1.477 . S
C138 H156 0.932 . S
C139 C140 1.384 . S
C139 C141 1.479 . S
C139 H157 0.929 . S
C140 C137 1.424 . S
C140 C139 1.384 . S
C140 H158 0.928 . S
C141 C138 1.260 1_545 S
C141 C139 1.479 . S
C142 C137 1.245 1_565 S
C142 C138 1.477 . S
C142 H159 0.932 . S
C143 U126 2.882 . S
C143 C137 1.428 . S
C143 O146 1.301 1_545 S
C143 O147 1.282 . S
O144 U126 2.441 . S
O144 C130 1.249 . S
O145 U126 2.420 . S
O145 C130 1.202 . S
O146 U126 2.455 1_565 S
O146 C143 1.301 1_565 S
O147 U126 2.449 . S
O147 C143 1.282 . S
H148 C121 0.931 . S
H149 C123 0.929 . S
H150 C124 0.930 . S
H151 C125 0.931 . S
H152 C132 0.932 . S
H153 C133 0.930 . S
H154 C134 0.929 . S
H155 C136 0.930 . S
H156 C138 0.932 . S
H157 C139 0.929 . S
H158 C140 0.928 . S
H159 C142 0.932 . S
C160 C161 1.264 . S
C160 C165 1.479 . S
C160 C170 1.465 . S
C161 C160 1.264 . S
C161 C163 1.339 . S
C161 H188 0.931 . S
C162 C163 1.395 . S
C162 C164 1.320 . S
C163 C161 1.339 . S
C163 C162 1.395 . S
C163 H189 0.929 . S
C164 C162 1.320 . S
C164 C165 1.405 . S
C164 H190 0.930 . S
C165 C160 1.479 . S
C165 C164 1.405 . S
C165 H191 0.931 . S
U166 O167 2.454 . S
U166 O168 2.458 . S
U166 C169 2.984 . S
U166 C170 2.847 . S
U166 C183 2.882 . S
U166 O184 2.441 . S
U166 O185 2.420 . S
U166 O186 2.455 . S
U166 O187 2.449 . S
O167 U166 2.454 . S
O167 C169 1.353 . S
O168 U166 2.458 . S
O168 C169 1.286 . S
C169 U166 2.984 . S
C169 O167 1.353 . S
C169 O168 1.286 . S
C169 C171 1.363 . S
C170 C160 1.465 . S
C170 U166 2.847 . S
C170 O184 1.249 . S
C170 O185 1.202 . S
C171 C169 1.363 . S
C171 C173 1.408 . S
C171 C176 1.342 . S
C172 C173 1.310 . S
C172 C175 1.461 . S
C172 H192 0.932 . S
C173 C171 1.408 . S
C173 C172 1.310 . S
C173 H193 0.930 . S
C174 C175 1.474 . S
C174 C176 1.285 . S
C174 H194 0.929 . S
C175 C172 1.461 . S
C175 C174 1.474 . S
C176 C171 1.342 . S
C176 C174 1.285 . S
C176 H195 0.930 . S
C177 C180 1.424 . S
C177 C182 1.245 . S
C177 C183 1.428 . S
C178 C181 1.260 . S
C178 C182 1.477 . S
C178 H196 0.932 . S
C179 C180 1.384 . S
C179 C181 1.479 . S
C179 H197 0.929 . S
C180 C177 1.424 . S
C180 C179 1.384 . S
C180 H198 0.928 . S
C181 C178 1.260 . S
C181 C179 1.479 . S
C182 C177 1.245 . S
C182 C178 1.477 . S
C182 H199 0.932 . S
C183 U166 2.882 . S
C183 C177 1.428 . S
C183 O186 1.301 . S
C183 O187 1.282 . S
O184 U166 2.441 . S
O184 C170 1.249 . S
O185 U166 2.420 . S
O185 C170 1.202 . S
O186 U166 2.455 . S
O186 C183 1.301 . S
O187 U166 2.449 . S
O187 C183 1.282 . S
H188 C161 0.931 . S
H189 C163 0.929 . S
H190 C164 0.930 . S
H191 C165 0.931 . S
H192 C172 0.932 . S
H193 C173 0.930 . S
H194 C174 0.929 . S
H195 C176 0.930 . S
H196 C178 0.932 . S
H197 C179 0.929 . S
H198 C180 0.928 . S
H199 C182 0.932 . S
C200 C201 1.264 . S
C200 C205 1.479 . S
C200 C210 1.465 . S
C201 C200 1.264 . S
C201 C203 1.339 . S
C201 H228 0.931 . S
C202 C203 1.395 . S
C202 C204 1.320 . S
C203 C201 1.339 . S
C203 C202 1.395 . S
C203 H229 0.929 . S
C204 C202 1.320 . S
C204 C205 1.405 . S
C204 H230 0.930 . S
C205 C200 1.479 . S
C205 C204 1.405 . S
C205 H231 0.931 . S
U206 O207 2.454 . S
U206 O208 2.458 . S
U206 C209 2.984 . S
U206 C210 2.847 1_455 S
U206 C223 2.882 . S
U206 O224 2.441 1_455 S
U206 O225 2.420 1_455 S
U206 O226 2.455 . S
U206 O227 2.449 1_455 S
O207 U206 2.454 . S
O207 C209 1.353 . S
O208 U206 2.458 . S
O208 C209 1.286 . S
C209 U206 2.984 . S
C209 O207 1.353 . S
C209 O208 1.286 . S
C209 C211 1.363 . S
C210 C200 1.465 . S
C210 U206 2.847 1_655 S
C210 O224 1.248 . S
C210 O225 1.202 . S
C211 C209 1.363 . S
C211 C213 1.408 . S
C211 C216 1.342 . S
C212 C213 1.310 . S
C212 C215 1.461 . S
C212 H232 0.932 . S
C213 C211 1.408 . S
C213 C212 1.310 . S
C213 H233 0.930 . S
C214 C215 1.474 . S
C214 C216 1.285 . S
C214 H234 0.929 . S
C215 C212 1.461 . S
C215 C214 1.474 . S
C216 C211 1.342 . S
C216 C214 1.285 . S
C216 H235 0.930 . S
C217 C220 1.411 1_455 S
C217 C222 1.245 . S
C217 C223 1.428 . S
C218 C221 1.260 1_556 S
C218 C222 1.477 . S
C218 H236 0.932 1_556 S
C219 C220 1.385 . S
C219 C221 1.479 1_656 S
C219 H237 0.929 1_556 S
C220 C217 1.411 1_655 S
C220 C219 1.385 . S
C220 H238 0.940 . S
C221 C218 1.260 1_554 S
C221 C219 1.479 1_454 S
C222 C217 1.245 . S
C222 C218 1.477 . S
C222 H239 0.932 . S
C223 U206 2.882 . S
C223 C217 1.428 . S
C223 O226 1.301 . S
C223 O227 1.282 1_455 S
O224 U206 2.441 1_655 S
O224 C210 1.248 . S
O225 U206 2.420 1_655 S
O225 C210 1.202 . S
O226 U206 2.455 . S
O226 C223 1.301 . S
O227 U206 2.449 1_655 S
O227 C223 1.282 1_655 S
H228 C201 0.931 . S
H229 C203 0.929 . S
H230 C204 0.930 . S
H231 C205 0.931 . S
H232 C212 0.932 . S
H233 C213 0.930 . S
H234 C214 0.929 . S
H235 C216 0.930 . S
H236 C218 0.932 1_554 S
H237 C219 0.929 1_554 S
H238 C220 0.940 . S
H239 C222 0.932 . S
C240 C241 1.264 . S
C240 C245 1.479 . S
C240 C250 1.465 . S
C241 C240 1.264 . S
C241 C243 1.339 . S
C241 H268 0.931 . S
C242 C243 1.395 . S
C242 C244 1.320 . S
C243 C241 1.339 . S
C243 C242 1.395 . S
C243 H269 0.929 . S
C244 C242 1.320 . S
C244 C245 1.405 . S
C244 H270 0.930 . S
C245 C240 1.479 . S
C245 C244 1.405 . S
C245 H271 0.931 . S
U246 O247 2.454 1_655 S
U246 O248 2.458 1_655 S
U246 C249 2.984 1_655 S
U246 C250 2.847 . S
U246 C263 2.882 . S
U246 O264 2.441 . S
U246 O265 2.420 . S
U246 O266 2.455 1_655 S
U246 O267 2.449 . S
O247 U246 2.454 1_455 S
O247 C249 1.353 . S
O248 U246 2.458 1_455 S
O248 C249 1.286 . S
C249 U246 2.984 1_455 S
C249 O247 1.353 . S
C249 O248 1.286 . S
C249 C251 1.363 . S
C250 C240 1.465 . S
C250 U246 2.847 . S
C250 O264 1.249 . S
C250 O265 1.202 . S
C251 C249 1.363 . S
C251 C253 1.408 . S
C251 C256 1.342 . S
C252 C253 1.310 . S
C252 C255 1.461 . S
C252 H272 0.932 . S
C253 C251 1.408 . S
C253 C252 1.310 . S
C253 H273 0.930 . S
C254 C255 1.474 . S
C254 C256 1.285 . S
C254 H274 0.929 . S
C255 C252 1.461 . S
C255 C254 1.474 . S
C256 C251 1.342 . S
C256 C254 1.285 . S
C256 H275 0.930 . S
C257 C260 1.424 . S
C257 C262 1.245 1_655 S
C257 C263 1.428 . S
C258 C261 1.260 1_455 S
C258 C262 1.477 . S
C258 H276 0.932 . S
C259 C260 1.384 . S
C259 C261 1.479 . S
C259 H277 0.929 . S
C260 C257 1.424 . S
C260 C259 1.384 . S
C260 H278 0.928 . S
C261 C258 1.260 1_655 S
C261 C259 1.479 . S
C262 C257 1.245 1_455 S
C262 C258 1.477 . S
C262 H279 0.932 . S
C263 U246 2.882 . S
C263 C257 1.428 . S
C263 O266 1.301 1_655 S
C263 O267 1.282 . S
O264 U246 2.441 . S
O264 C250 1.249 . S
O265 U246 2.420 . S
O265 C250 1.202 . S
O266 U246 2.455 1_455 S
O266 C263 1.301 1_455 S
O267 U246 2.449 . S
O267 C263 1.282 . S
H268 C241 0.931 . S
H269 C243 0.929 . S
H270 C244 0.930 . S
H271 C245 0.931 . S
H272 C252 0.932 . S
H273 C253 0.930 . S
H274 C254 0.929 . S
H275 C256 0.930 . S
H276 C258 0.932 . S
H277 C259 0.929 . S
H278 C260 0.928 . S
H279 C262 0.932 . S
C280 C281 1.264 . S
C280 C285 1.479 . S
C280 C290 1.465 . S
C281 C280 1.264 . S
C281 C283 1.339 . S
C281 H308 0.931 . S
C282 C283 1.395 . S
C282 C284 1.320 . S
C283 C281 1.339 . S
C283 C282 1.395 . S
C283 H309 0.929 . S
C284 C282 1.320 . S
C284 C285 1.405 . S
C284 H310 0.930 . S
C285 C280 1.479 . S
C285 C284 1.405 . S
C285 H311 0.931 . S
U286 O287 2.454 1_565 S
U286 O288 2.458 1_565 S
U286 C289 2.984 1_565 S
U286 C290 2.847 . S
U286 C303 2.882 . S
U286 O304 2.441 . S
U286 O305 2.420 . S
U286 O306 2.455 1_565 S
U286 O307 2.449 . S
O287 U286 2.454 1_545 S
O287 C289 1.353 . S
O288 U286 2.458 1_545 S
O288 C289 1.286 . S
C289 U286 2.984 1_545 S
C289 O287 1.353 . S
C289 O288 1.286 . S
C289 C291 1.363 . S
C290 C280 1.465 . S
C290 U286 2.847 . S
C290 O304 1.249 . S
C290 O305 1.202 . S
C291 C289 1.363 . S
C291 C293 1.408 . S
C291 C296 1.342 . S
C292 C293 1.310 . S
C292 C295 1.461 . S
C292 H312 0.932 . S
C293 C291 1.408 . S
C293 C292 1.310 . S
C293 H313 0.930 . S
C294 C295 1.474 . S
C294 C296 1.285 . S
C294 H314 0.929 . S
C295 C292 1.461 . S
C295 C294 1.474 . S
C296 C291 1.342 . S
C296 C294 1.285 . S
C296 H315 0.930 . S
C297 C300 1.424 . S
C297 C302 1.245 1_565 S
C297 C303 1.428 . S
C298 C301 1.260 1_545 S
C298 C302 1.477 . S
C298 H316 0.932 . S
C299 C300 1.384 . S
C299 C301 1.479 . S
C299 H317 0.929 . S
C300 C297 1.424 . S
C300 C299 1.384 . S
C300 H318 0.928 . S
C301 C298 1.260 1_565 S
C301 C299 1.479 . S
C302 C297 1.245 1_545 S
C302 C298 1.477 . S
C302 H319 0.932 . S
C303 U286 2.882 . S
C303 C297 1.428 . S
C303 O306 1.301 1_565 S
C303 O307 1.282 . S
O304 U286 2.441 . S
O304 C290 1.249 . S
O305 U286 2.420 . S
O305 C290 1.202 . S
O306 U286 2.455 1_545 S
O306 C303 1.301 1_545 S
O307 U286 2.449 . S
O307 C303 1.282 . S
H308 C281 0.931 . S
H309 C283 0.929 . S
H310 C284 0.930 . S
H311 C285 0.931 . S
H312 C292 0.932 . S
H313 C293 0.930 . S
H314 C294 0.929 . S
H315 C296 0.930 . S
H316 C298 0.932 . S
H317 C299 0.929 . S
H318 C300 0.928 . S
H319 C302 0.932 . S
C320 C321 1.264 . S
C320 C325 1.479 . S
C320 C330 1.465 . S
C321 C320 1.264 . S
C321 C323 1.339 . S
C321 H348 0.931 . S
C322 C323 1.395 . S
C322 C324 1.320 . S
C323 C321 1.339 . S
C323 C322 1.395 . S
C323 H349 0.929 . S
C324 C322 1.320 . S
C324 C325 1.405 . S
C324 H350 0.930 . S
C325 C320 1.479 . S
C325 C324 1.405 . S
C325 H351 0.931 . S
U326 O327 2.454 . S
U326 O328 2.458 . S
U326 C329 2.984 . S
U326 C330 2.847 . S
U326 C343 2.882 . S
U326 O344 2.441 . S
U326 O345 2.420 . S
U326 O346 2.455 . S
U326 O347 2.449 . S
O327 U326 2.454 . S
O327 C329 1.353 . S
O328 U326 2.458 . S
O328 C329 1.286 . S
C329 U326 2.984 . S
C329 O327 1.353 . S
C329 O328 1.286 . S
C329 C331 1.363 . S
C330 C320 1.465 . S
C330 U326 2.847 . S
C330 O344 1.249 . S
C330 O345 1.202 . S
C331 C329 1.363 . S
C331 C333 1.408 . S
C331 C336 1.342 . S
C332 C333 1.310 . S
C332 C335 1.461 . S
C332 H352 0.932 . S
C333 C331 1.408 . S
C333 C332 1.310 . S
C333 H353 0.930 . S
C334 C335 1.474 . S
C334 C336 1.285 . S
C334 H354 0.929 . S
C335 C332 1.461 . S
C335 C334 1.474 . S
C336 C331 1.342 . S
C336 C334 1.285 . S
C336 H355 0.930 . S
C337 C340 1.417 1_554 S
C337 C342 1.245 1_554 S
C337 C343 1.428 . S
C338 C341 1.260 . S
C338 C342 1.477 . S
C338 H356 0.932 . S
C339 C340 1.399 . S
C339 C341 1.479 . S
C339 H357 0.929 . S
C340 C337 1.417 1_556 S
C340 C339 1.399 . S
C340 H358 0.919 1_556 S
C341 C338 1.260 . S
C341 C339 1.479 . S
C342 C337 1.245 1_556 S
C342 C338 1.477 . S
C342 H359 0.932 1_556 S
C343 U326 2.882 . S
C343 C337 1.428 . S
C343 O346 1.301 . S
C343 O347 1.282 . S
O344 U326 2.441 . S
O344 C330 1.249 . S
O345 U326 2.420 . S
O345 C330 1.202 . S
O346 U326 2.455 . S
O346 C343 1.301 . S
O347 U326 2.449 . S
O347 C343 1.282 . S
H348 C321 0.931 . S
H349 C323 0.929 . S
H350 C324 0.930 . S
H351 C325 0.931 . S
H352 C332 0.932 . S
H353 C333 0.930 . S
H354 C334 0.929 . S
H355 C336 0.930 . S
H356 C338 0.932 . S
H357 C339 0.929 . S
H358 C340 0.919 1_554 S
H359 C342 0.932 1_554 S
C360 C361 1.363 . S
C360 C366 1.379 . S
C360 N368 1.356 . S
C361 C360 1.363 . S
C361 C367 1.363 . S
C362 C363 1.363 . S
C362 C367 1.379 . S
C362 N369 1.356 . S
C363 C362 1.363 . S
C363 C366 1.363 . S
N364 C366 1.356 . S
N364 H376 0.984 . S
N364 H377 0.985 . S
N365 C367 1.356 . S
N365 H370 0.984 . S
N365 H371 0.985 . S
C366 C360 1.379 . S
C366 C363 1.363 . S
C366 N364 1.356 . S
C367 C361 1.363 . S
C367 C362 1.379 . S
C367 N365 1.356 . S
N368 C360 1.356 . S
N368 H374 0.984 . S
N368 H375 0.984 . S
N369 C362 1.356 . S
N369 H372 0.984 . S
N369 H373 0.985 . S
H370 N365 0.984 . S
H371 N365 0.985 . S
H372 N369 0.984 . S
H373 N369 0.985 . S
H374 N368 0.984 . S
H375 N368 0.984 . S
H376 N364 0.984 . S
H377 N364 0.985 . S
C378 C379 1.363 . S
C378 C384 1.379 . S
C378 N386 1.356 . S
C379 C378 1.363 . S
C379 C385 1.363 . S
C380 C381 1.363 . S
C380 C385 1.379 . S
C380 N387 1.356 . S
C381 C380 1.363 . S
C381 C384 1.363 . S
N382 C384 1.356 . S
N382 H394 0.984 . S
N382 H395 0.985 . S
N383 C385 1.356 . S
N383 H388 0.984 . S
N383 H389 0.985 . S
C384 C378 1.379 . S
C384 C381 1.363 . S
C384 N382 1.356 . S
C385 C379 1.363 . S
C385 C380 1.379 . S
C385 N383 1.356 . S
N386 C378 1.356 . S
N386 H392 0.984 . S
N386 H393 0.984 . S
N387 C380 1.356 . S
N387 H390 0.984 . S
N387 H391 0.985 . S
H388 N383 0.984 . S
H389 N383 0.985 . S
H390 N387 0.984 . S
H391 N387 0.985 . S
H392 N386 0.984 . S
H393 N386 0.984 . S
H394 N382 0.984 . S
H395 N382 0.985 . S
C396 C397 1.363 . S
C396 C402 1.379 . S
C396 N404 1.356 . S
C397 C396 1.363 . S
C397 C403 1.363 . S
C398 C399 1.363 . S
C398 C403 1.379 . S
C398 N405 1.356 . S
C399 C398 1.363 . S
C399 C402 1.363 . S
N400 C402 1.356 . S
N400 H412 0.984 . S
N400 H413 0.985 . S
N401 C403 1.356 . S
N401 H406 0.984 . S
N401 H407 0.985 . S
C402 C396 1.379 . S
C402 C399 1.363 . S
C402 N400 1.356 . S
C403 C397 1.363 . S
C403 C398 1.379 . S
C403 N401 1.356 . S
N404 C396 1.356 . S
N404 H410 0.984 . S
N404 H411 0.984 . S
N405 C398 1.356 . S
N405 H408 0.984 . S
N405 H409 0.985 . S
H406 N401 0.984 . S
H407 N401 0.985 . S
H408 N405 0.984 . S
H409 N405 0.985 . S
H410 N404 0.984 . S
H411 N404 0.984 . S
H412 N400 0.984 . S
H413 N400 0.985 . S
C414 C415 1.363 . S
C414 C420 1.379 . S
C414 N422 1.356 . S
C415 C414 1.363 . S
C415 C421 1.363 . S
C416 C417 1.363 . S
C416 C421 1.379 . S
C416 N423 1.356 . S
C417 C416 1.363 . S
C417 C420 1.363 . S
N418 C420 1.356 . S
N418 H430 0.984 . S
N418 H431 0.985 . S
N419 C421 1.356 . S
N419 H424 0.984 . S
N419 H425 0.985 . S
C420 C414 1.379 . S
C420 C417 1.363 . S
C420 N418 1.356 . S
C421 C415 1.363 . S
C421 C416 1.379 . S
C421 N419 1.356 . S
N422 C414 1.356 . S
N422 H428 0.984 . S
N422 H429 0.984 . S
N423 C416 1.356 . S
N423 H426 0.984 . S
N423 H427 0.985 . S
H424 N419 0.984 . S
H425 N419 0.985 . S
H426 N423 0.984 . S
H427 N423 0.985 . S
H428 N422 0.984 . S
H429 N422 0.984 . S
H430 N418 0.984 . S
H431 N418 0.985 . S
C432 C433 1.363 . S
C432 C438 1.379 . S
C432 N440 1.356 . S
C433 C432 1.363 . S
C433 C439 1.363 . S
C434 C435 1.363 . S
C434 C439 1.379 . S
C434 N441 1.356 . S
C435 C434 1.363 . S
C435 C438 1.363 . S
N436 C438 1.356 . S
N436 H448 0.984 . S
N436 H449 0.985 . S
N437 C439 1.356 . S
N437 H442 0.984 . S
N437 H443 0.985 . S
C438 C432 1.379 . S
C438 C435 1.363 . S
C438 N436 1.356 . S
C439 C433 1.363 . S
C439 C434 1.379 . S
C439 N437 1.356 . S
N440 C432 1.356 . S
N440 H446 0.984 . S
N440 H447 0.984 . S
N441 C434 1.356 . S
N441 H444 0.984 . S
N441 H445 0.985 . S
H442 N437 0.984 . S
H443 N437 0.985 . S
H444 N441 0.984 . S
H445 N441 0.985 . S
H446 N440 0.984 . S
H447 N440 0.984 . S
H448 N436 0.984 . S
H449 N436 0.985 . S
C450 C451 1.363 . S
C450 C456 1.379 . S
C450 N458 1.356 . S
C451 C450 1.363 . S
C451 C457 1.363 . S
C452 C453 1.363 . S
C452 C457 1.379 . S
C452 N459 1.356 . S
C453 C452 1.363 . S
C453 C456 1.363 . S
N454 C456 1.356 . S
N454 H466 0.984 . S
N454 H467 0.985 . S
N455 C457 1.356 . S
N455 H460 0.984 . S
N455 H461 0.985 . S
C456 C450 1.379 . S
C456 C453 1.363 . S
C456 N454 1.356 . S
C457 C451 1.363 . S
C457 C452 1.379 . S
C457 N455 1.356 . S
N458 C450 1.356 . S
N458 H464 0.984 . S
N458 H465 0.984 . S
N459 C452 1.356 . S
N459 H462 0.984 . S
N459 H463 0.985 . S
H460 N455 0.984 . S
H461 N455 0.985 . S
H462 N459 0.984 . S
H463 N459 0.985 . S
H464 N458 0.984 . S
H465 N458 0.984 . S
H466 N454 0.984 . S
H467 N454 0.985 . S
C468 C469 1.363 . S
C468 C474 1.379 . S
C468 N476 1.356 . S
C469 C468 1.363 . S
C469 C475 1.363 . S
C470 C471 1.363 . S
C470 C475 1.379 . S
C470 N477 1.356 . S
C471 C470 1.363 . S
C471 C474 1.363 . S
N472 C474 1.356 . S
N472 H484 0.984 . S
N472 H485 0.985 . S
N473 C475 1.356 . S
N473 H478 0.984 . S
N473 H479 0.985 . S
C474 C468 1.379 . S
C474 C471 1.363 . S
C474 N472 1.356 . S
C475 C469 1.363 . S
C475 C470 1.379 . S
C475 N473 1.356 . S
N476 C468 1.356 . S
N476 H482 0.984 . S
N476 H483 0.984 . S
N477 C470 1.356 . S
N477 H480 0.984 . S
N477 H481 0.985 . S
H478 N473 0.984 . S
H479 N473 0.985 . S
H480 N477 0.984 . S
H481 N477 0.985 . S
H482 N476 0.984 . S
H483 N476 0.984 . S
H484 N472 0.984 . S
H485 N472 0.985 . S
C486 C487 1.363 . S
C486 C492 1.379 . S
C486 N494 1.356 . S
C487 C486 1.363 . S
C487 C493 1.363 . S
C488 C489 1.363 . S
C488 C493 1.379 . S
C488 N495 1.356 . S
C489 C488 1.363 . S
C489 C492 1.363 . S
N490 C492 1.356 . S
N490 H502 0.984 . S
N490 H503 0.985 . S
N491 C493 1.356 . S
N491 H496 0.984 . S
N491 H497 0.985 . S
C492 C486 1.379 . S
C492 C489 1.363 . S
C492 N490 1.356 . S
C493 C487 1.363 . S
C493 C488 1.379 . S
C493 N491 1.356 . S
N494 C486 1.356 . S
N494 H500 0.984 . S
N494 H501 0.984 . S
N495 C488 1.356 . S
N495 H498 0.984 . S
N495 H499 0.985 . S
H496 N491 0.984 . S
H497 N491 0.985 . S
H498 N495 0.984 . S
H499 N495 0.985 . S
H500 N494 0.984 . S
H501 N494 0.984 . S
H502 N490 0.984 . S
H503 N490 0.985 . S
C504 C505 1.363 . S
C504 C510 1.379 . S
C504 N512 1.356 . S
C505 C504 1.363 . S
C505 C511 1.363 . S
C506 C507 1.363 . S
C506 C511 1.379 . S
C506 N513 1.356 . S
C507 C506 1.363 . S
C507 C510 1.363 . S
N508 C510 1.356 . S
N508 H520 0.984 . S
N508 H521 0.985 . S
N509 C511 1.356 . S
N509 H514 0.984 . S
N509 H515 0.985 . S
C510 C504 1.379 . S
C510 C507 1.363 . S
C510 N508 1.356 . S
C511 C505 1.363 . S
C511 C506 1.379 . S
C511 N509 1.356 . S
N512 C504 1.356 . S
N512 H518 0.984 . S
N512 H519 0.984 . S
N513 C506 1.356 . S
N513 H516 0.984 . S
N513 H517 0.985 . S
H514 N509 0.984 . S
H515 N509 0.985 . S
H516 N513 0.984 . S
H517 N513 0.985 . S
H518 N512 0.984 . S
H519 N512 0.984 . S
H520 N508 0.984 . S
H521 N508 0.985 . S
C522 C523 1.363 . S
C522 C528 1.379 . S
C522 N530 1.356 . S
C523 C522 1.363 . S
C523 C529 1.363 . S
C524 C525 1.363 . S
C524 C529 1.379 . S
C524 N531 1.356 . S
C525 C524 1.363 . S
C525 C528 1.363 . S
N526 C528 1.356 . S
N526 H538 0.984 . S
N526 H539 0.985 . S
N527 C529 1.356 . S
N527 H532 0.984 . S
N527 H533 0.985 . S
C528 C522 1.379 . S
C528 C525 1.363 . S
C528 N526 1.356 . S
C529 C523 1.363 . S
C529 C524 1.379 . S
C529 N527 1.356 . S
N530 C522 1.356 . S
N530 H536 0.984 . S
N530 H537 0.984 . S
N531 C524 1.356 . S
N531 H534 0.984 . S
N531 H535 0.985 . S
H532 N527 0.984 . S
H533 N527 0.985 . S
H534 N531 0.984 . S
H535 N531 0.985 . S
H536 N530 0.984 . S
H537 N530 0.984 . S
H538 N526 0.984 . S
H539 N526 0.985 . S
C540 C541 1.363 . S
C540 C546 1.379 . S
C540 N548 1.356 . S
C541 C540 1.363 . S
C541 C547 1.363 . S
C542 C543 1.363 . S
C542 C547 1.379 . S
C542 N549 1.356 . S
C543 C542 1.363 . S
C543 C546 1.363 . S
N544 C546 1.356 . S
N544 H556 0.984 . S
N544 H557 0.985 . S
N545 C547 1.356 . S
N545 H550 0.984 . S
N545 H551 0.985 . S
C546 C540 1.379 . S
C546 C543 1.363 . S
C546 N544 1.356 . S
C547 C541 1.363 . S
C547 C542 1.379 . S
C547 N545 1.356 . S
N548 C540 1.356 . S
N548 H554 0.984 . S
N548 H555 0.984 . S
N549 C542 1.356 . S
N549 H552 0.984 . S
N549 H553 0.985 . S
H550 N545 0.984 . S
H551 N545 0.985 . S
H552 N549 0.984 . S
H553 N549 0.985 . S
H554 N548 0.984 . S
H555 N548 0.984 . S
H556 N544 0.984 . S
H557 N544 0.985 . S
C558 C559 1.363 . S
C558 C564 1.379 . S
C558 N566 1.356 . S
C559 C558 1.363 . S
C559 C565 1.363 . S
C560 C561 1.363 . S
C560 C565 1.379 . S
C560 N567 1.356 . S
C561 C560 1.363 . S
C561 C564 1.363 . S
N562 C564 1.356 . S
N562 H574 0.984 . S
N562 H575 0.985 . S
N563 C565 1.356 . S
N563 H568 0.984 . S
N563 H569 0.985 . S
C564 C558 1.379 . S
C564 C561 1.363 . S
C564 N562 1.356 . S
C565 C559 1.363 . S
C565 C560 1.379 . S
C565 N563 1.356 . S
N566 C558 1.356 . S
N566 H572 0.984 . S
N566 H573 0.984 . S
N567 C560 1.356 . S
N567 H570 0.984 . S
N567 H571 0.985 . S
H568 N563 0.984 . S
H569 N563 0.985 . S
H570 N567 0.984 . S
H571 N567 0.985 . S
H572 N566 0.984 . S
H573 N566 0.984 . S
H574 N562 0.984 . S
H575 N562 0.985 . S
C576 C577 1.363 1_655 S
C576 C582 1.379 . S
C576 N584 1.356 . S
C577 C576 1.363 1_455 S
C577 C583 1.363 . S
C578 C579 1.363 . S
C578 C583 1.379 . S
C578 N585 1.356 . S
C579 C578 1.363 . S
C579 C582 1.363 1_455 S
N580 C582 1.356 . S
N580 H592 0.984 . S
N580 H593 0.985 . S
N581 C583 1.356 . S
N581 H586 0.984 . S
N581 H587 0.985 . S
C582 C576 1.379 . S
C582 C579 1.363 1_655 S
C582 N580 1.356 . S
C583 C577 1.363 . S
C583 C578 1.379 . S
C583 N581 1.356 . S
N584 C576 1.356 . S
N584 H590 0.984 . S
N584 H591 0.984 . S
N585 C578 1.356 . S
N585 H588 0.984 . S
N585 H589 0.985 . S
H586 N581 0.984 . S
H587 N581 0.985 . S
H588 N585 0.984 . S
H589 N585 0.985 . S
H590 N584 0.984 . S
H591 N584 0.984 . S
H592 N580 0.984 . S
H593 N580 0.985 . S
C594 C595 1.363 1_565 S
C594 C600 1.379 . S
C594 N602 1.356 . S
C595 C594 1.363 1_545 S
C595 C601 1.363 . S
C596 C597 1.363 . S
C596 C601 1.379 . S
C596 N603 1.356 . S
C597 C596 1.363 . S
C597 C600 1.363 1_545 S
N598 C600 1.356 . S
N598 H610 0.984 . S
N598 H611 0.985 . S
N599 C601 1.356 . S
N599 H604 0.984 . S
N599 H605 0.985 . S
C600 C594 1.379 . S
C600 C597 1.363 1_565 S
C600 N598 1.356 . S
C601 C595 1.363 . S
C601 C596 1.379 . S
C601 N599 1.356 . S
N602 C594 1.356 . S
N602 H608 0.984 . S
N602 H609 0.984 . S
N603 C596 1.356 . S
N603 H606 0.984 . S
N603 H607 0.985 . S
H604 N599 0.984 . S
H605 N599 0.985 . S
H606 N603 0.984 . S
H607 N603 0.985 . S
H608 N602 0.984 . S
H609 N602 0.984 . S
H610 N598 0.984 . S
H611 N598 0.985 . S
C612 C613 1.363 . S
C612 C618 1.379 . S
C612 N620 1.356 . S
C613 C612 1.363 . S
C613 C619 1.363 . S
C614 C615 1.363 . S
C614 C619 1.379 . S
C614 N621 1.356 . S
C615 C614 1.363 . S
C615 C618 1.363 . S
N616 C618 1.356 . S
N616 H628 0.984 . S
N616 H629 0.985 . S
N617 C619 1.356 . S
N617 H622 0.984 . S
N617 H623 0.985 . S
C618 C612 1.379 . S
C618 C615 1.363 . S
C618 N616 1.356 . S
C619 C613 1.363 . S
C619 C614 1.379 . S
C619 N617 1.356 . S
N620 C612 1.356 . S
N620 H626 0.984 . S
N620 H627 0.984 . S
N621 C614 1.356 . S
N621 H624 0.984 . S
N621 H625 0.985 . S
H622 N617 0.984 . S
H623 N617 0.985 . S
H624 N621 0.984 . S
H625 N621 0.985 . S
H626 N620 0.984 . S
H627 N620 0.984 . S
H628 N616 0.984 . S
H629 N616 0.985 . S
C630 C631 1.363 . S
C630 C636 1.379 . S
C630 N638 1.356 . S
C631 C630 1.363 . S
C631 C637 1.363 1_545 S
C632 C633 1.363 . S
C632 C637 1.379 . S
C632 N639 1.356 . S
C633 C632 1.363 . S
C633 C636 1.363 1_565 S
N634 C636 1.356 . S
N634 H646 0.984 . S
N634 H647 0.985 . S
N635 C637 1.356 . S
N635 H640 0.984 . S
N635 H641 0.985 . S
C636 C630 1.379 . S
C636 C633 1.363 1_545 S
C636 N634 1.356 . S
C637 C631 1.363 1_565 S
C637 C632 1.379 . S
C637 N635 1.356 . S
N638 C630 1.356 . S
N638 H644 0.984 . S
N638 H645 0.984 . S
N639 C632 1.356 . S
N639 H642 0.984 . S
N639 H643 0.985 . S
H640 N635 0.984 . S
H641 N635 0.985 . S
H642 N639 0.984 . S
H643 N639 0.985 . S
H644 N638 0.984 . S
H645 N638 0.984 . S
H646 N634 0.984 . S
H647 N634 0.985 . S
C648 C649 1.363 . S
C648 C654 1.379 . S
C648 N656 1.356 . S
C649 C648 1.363 . S
C649 C655 1.363 . S
C650 C651 1.363 . S
C650 C655 1.379 . S
C650 N657 1.356 . S
C651 C650 1.363 . S
C651 C654 1.363 . S
N652 C654 1.356 . S
N652 H664 0.984 . S
N652 H665 0.985 . S
N653 C655 1.356 . S
N653 H658 0.984 . S
N653 H659 0.985 . S
C654 C648 1.379 . S
C654 C651 1.363 . S
C654 N652 1.356 . S
C655 C649 1.363 . S
C655 C650 1.379 . S
C655 N653 1.356 . S
N656 C648 1.356 . S
N656 H662 0.984 . S
N656 H663 0.984 . S
N657 C650 1.356 . S
N657 H660 0.984 . S
N657 H661 0.985 . S
H658 N653 0.984 . S
H659 N653 0.985 . S
H660 N657 0.984 . S
H661 N657 0.985 . S
H662 N656 0.984 . S
H663 N656 0.984 . S
H664 N652 0.984 . S
H665 N652 0.985 . S
C666 C667 1.363 1_655 S
C666 C672 1.379 . S
C666 N674 1.356 . S
C667 C666 1.363 1_455 S
C667 C673 1.363 . S
C668 C669 1.363 1_455 S
C668 C673 1.379 . S
C668 N675 1.356 . S
C669 C668 1.363 1_655 S
C669 C672 1.363 . S
N670 C672 1.356 . S
N670 H682 0.984 . S
N670 H683 0.985 . S
N671 C673 1.356 . S
N671 H676 0.984 . S
N671 H677 0.985 . S
C672 C666 1.379 . S
C672 C669 1.363 . S
C672 N670 1.356 . S
C673 C667 1.363 . S
C673 C668 1.379 . S
C673 N671 1.356 . S
N674 C666 1.356 . S
N674 H680 0.984 . S
N674 H681 0.984 . S
N675 C668 1.356 . S
N675 H678 0.984 . S
N675 H679 0.985 . S
H676 N671 0.984 . S
H677 N671 0.985 . S
H678 N675 0.984 . S
H679 N675 0.985 . S
H680 N674 0.984 . S
H681 N674 0.984 . S
H682 N670 0.984 . S
H683 N670 0.985 . S
C361 C7 0.893 . S
C363 C335 0.925 . S
C379 C51 2.085 . S
C381 C242 2.048 . S
C397 C87 1.317 . S
C399 C282 1.346 . S
C415 C16 0.569 . S
C417 C322 0.494 . S
C435 C255 2.167 . S
C433 C42 2.297 . S
C453 C295 1.380 . S
C451 C96 1.379 . S
C469 C47 1.261 . S
C471 C162 1.256 . S
C487 C91 3.256 . S
C489 C202 3.209 . S
C505 C2 2.327 . S
C507 C135 2.216 . S
C525 C175 1.376 . S
C523 C56 1.361 . S
C543 C215 3.110 . S
C541 C82 3.199 . S
C559 C11 2.081 . S
C561 C122 2.049 . S
C579 C221 1.767 . S
C577 C19 1.723 . S
C595 C50 1.352 . S
C597 C141 1.381 . S
C613 C99 1.471 . S
C615 C181 1.507 . S
C633 C301 1.500 . S
C631 C59 1.465 . S
C651 C341 1.125 . S
C649 C90 1.119 . S
C667 C10 1.344 . S
C669 C261 1.368 . S
