# Generated by pormake.
# Topology gar, (4,6)-cn, num edge types: 1
# Building blocks:
#     Node 0, Type 0, BuildingBlock: NAHDIM_clean_sbu_0, # of connection points: 4
#     Node 1, Type 0, BuildingBlock: NAHDIM_clean_sbu_0, # of connection points: 4
#     Node 2, Type 0, BuildingBlock: NAHDIM_clean_sbu_0, # of connection points: 4
#     Node 3, Type 0, BuildingBlock: NAHDIM_clean_sbu_0, # of connection points: 4
#     Node 4, Type 0, BuildingBlock: NAHDIM_clean_sbu_0, # of connection points: 4
#     Node 5, Type 0, BuildingBlock: NAHDIM_clean_sbu_0, # of connection points: 4
#     Node 6, Type 0, BuildingBlock: NAHDIM_clean_sbu_0, # of connection points: 4
#     Node 7, Type 0, BuildingBlock: NAHDIM_clean_sbu_0, # of connection points: 4
#     Node 8, Type 0, BuildingBlock: NAHDIM_clean_sbu_0, # of connection points: 4
#     Node 9, Type 0, BuildingBlock: NAHDIM_clean_sbu_0, # of connection points: 4
#     Node 10, Type 0, BuildingBlock: NAHDIM_clean_sbu_0, # of connection points: 4
#     Node 11, Type 0, BuildingBlock: NAHDIM_clean_sbu_0, # of connection points: 4
#     Node 12, Type 0, BuildingBlock: NAHDIM_clean_sbu_0, # of connection points: 4
#     Node 13, Type 0, BuildingBlock: NAHDIM_clean_sbu_0, # of connection points: 4
#     Node 14, Type 0, BuildingBlock: NAHDIM_clean_sbu_0, # of connection points: 4
#     Node 15, Type 0, BuildingBlock: NAHDIM_clean_sbu_0, # of connection points: 4
#     Node 16, Type 0, BuildingBlock: NAHDIM_clean_sbu_0, # of connection points: 4
#     Node 17, Type 0, BuildingBlock: NAHDIM_clean_sbu_0, # of connection points: 4
#     Node 18, Type 0, BuildingBlock: NAHDIM_clean_sbu_0, # of connection points: 4
#     Node 19, Type 0, BuildingBlock: NAHDIM_clean_sbu_0, # of connection points: 4
#     Node 20, Type 0, BuildingBlock: NAHDIM_clean_sbu_0, # of connection points: 4
#     Node 21, Type 0, BuildingBlock: NAHDIM_clean_sbu_0, # of connection points: 4
#     Node 22, Type 0, BuildingBlock: NAHDIM_clean_sbu_0, # of connection points: 4
#     Node 23, Type 0, BuildingBlock: NAHDIM_clean_sbu_0, # of connection points: 4
#     Node 24, Type 1, BuildingBlock: NUHQIS_clean_sbu_0, # of connection points: 6
#     Node 25, Type 1, BuildingBlock: NUHQIS_clean_sbu_0, # of connection points: 6
#     Node 26, Type 1, BuildingBlock: NUHQIS_clean_sbu_0, # of connection points: 6
#     Node 27, Type 1, BuildingBlock: NUHQIS_clean_sbu_0, # of connection points: 6
#     Node 28, Type 1, BuildingBlock: NUHQIS_clean_sbu_0, # of connection points: 6
#     Node 29, Type 1, BuildingBlock: NUHQIS_clean_sbu_0, # of connection points: 6
#     Node 30, Type 1, BuildingBlock: NUHQIS_clean_sbu_0, # of connection points: 6
#     Node 31, Type 1, BuildingBlock: NUHQIS_clean_sbu_0, # of connection points: 6
#     Node 32, Type 1, BuildingBlock: NUHQIS_clean_sbu_0, # of connection points: 6
#     Node 33, Type 1, BuildingBlock: NUHQIS_clean_sbu_0, # of connection points: 6
#     Node 34, Type 1, BuildingBlock: NUHQIS_clean_sbu_0, # of connection points: 6
#     Node 35, Type 1, BuildingBlock: NUHQIS_clean_sbu_0, # of connection points: 6
#     Node 36, Type 1, BuildingBlock: NUHQIS_clean_sbu_0, # of connection points: 6
#     Node 37, Type 1, BuildingBlock: NUHQIS_clean_sbu_0, # of connection points: 6
#     Node 38, Type 1, BuildingBlock: NUHQIS_clean_sbu_0, # of connection points: 6
#     Node 39, Type 1, BuildingBlock: NUHQIS_clean_sbu_0, # of connection points: 6
#     Edge 40, Type (0, 1), BuildingBlock: AJUNOK_clean_linker_0, # of connection points: 2
#     Edge 41, Type (0, 1), BuildingBlock: AJUNOK_clean_linker_0, # of connection points: 2
#     Edge 42, Type (0, 1), BuildingBlock: AJUNOK_clean_linker_0, # of connection points: 2
#     Edge 43, Type (0, 1), BuildingBlock: AJUNOK_clean_linker_0, # of connection points: 2
#     Edge 44, Type (0, 1), BuildingBlock: AJUNOK_clean_linker_0, # of connection points: 2
#     Edge 45, Type (0, 1), BuildingBlock: AJUNOK_clean_linker_0, # of connection points: 2
#     Edge 46, Type (0, 1), BuildingBlock: AJUNOK_clean_linker_0, # of connection points: 2
#     Edge 47, Type (0, 1), BuildingBlock: AJUNOK_clean_linker_0, # of connection points: 2
#     Edge 48, Type (0, 1), BuildingBlock: AJUNOK_clean_linker_0, # of connection points: 2
#     Edge 49, Type (0, 1), BuildingBlock: AJUNOK_clean_linker_0, # of connection points: 2
#     Edge 50, Type (0, 1), BuildingBlock: AJUNOK_clean_linker_0, # of connection points: 2
#     Edge 51, Type (0, 1), BuildingBlock: AJUNOK_clean_linker_0, # of connection points: 2
#     Edge 52, Type (0, 1), BuildingBlock: AJUNOK_clean_linker_0, # of connection points: 2
#     Edge 53, Type (0, 1), BuildingBlock: AJUNOK_clean_linker_0, # of connection points: 2
#     Edge 54, Type (0, 1), BuildingBlock: AJUNOK_clean_linker_0, # of connection points: 2
#     Edge 55, Type (0, 1), BuildingBlock: AJUNOK_clean_linker_0, # of connection points: 2
#     Edge 56, Type (0, 1), BuildingBlock: AJUNOK_clean_linker_0, # of connection points: 2
#     Edge 57, Type (0, 1), BuildingBlock: AJUNOK_clean_linker_0, # of connection points: 2
#     Edge 58, Type (0, 1), BuildingBlock: AJUNOK_clean_linker_0, # of connection points: 2
#     Edge 59, Type (0, 1), BuildingBlock: AJUNOK_clean_linker_0, # of connection points: 2
#     Edge 60, Type (0, 1), BuildingBlock: AJUNOK_clean_linker_0, # of connection points: 2
#     Edge 61, Type (0, 1), BuildingBlock: AJUNOK_clean_linker_0, # of connection points: 2
#     Edge 62, Type (0, 1), BuildingBlock: AJUNOK_clean_linker_0, # of connection points: 2
#     Edge 63, Type (0, 1), BuildingBlock: AJUNOK_clean_linker_0, # of connection points: 2
#     Edge 64, Type (0, 1), BuildingBlock: AJUNOK_clean_linker_0, # of connection points: 2
#     Edge 65, Type (0, 1), BuildingBlock: AJUNOK_clean_linker_0, # of connection points: 2
#     Edge 66, Type (0, 1), BuildingBlock: AJUNOK_clean_linker_0, # of connection points: 2
#     Edge 67, Type (0, 1), BuildingBlock: AJUNOK_clean_linker_0, # of connection points: 2
#     Edge 68, Type (0, 1), BuildingBlock: AJUNOK_clean_linker_0, # of connection points: 2
#     Edge 69, Type (0, 1), BuildingBlock: AJUNOK_clean_linker_0, # of connection points: 2
#     Edge 70, Type (0, 1), BuildingBlock: AJUNOK_clean_linker_0, # of connection points: 2
#     Edge 71, Type (0, 1), BuildingBlock: AJUNOK_clean_linker_0, # of connection points: 2
#     Edge 72, Type (0, 1), BuildingBlock: AJUNOK_clean_linker_0, # of connection points: 2
#     Edge 73, Type (0, 1), BuildingBlock: AJUNOK_clean_linker_0, # of connection points: 2
#     Edge 74, Type (0, 1), BuildingBlock: AJUNOK_clean_linker_0, # of connection points: 2
#     Edge 75, Type (0, 1), BuildingBlock: AJUNOK_clean_linker_0, # of connection points: 2
#     Edge 76, Type (0, 1), BuildingBlock: AJUNOK_clean_linker_0, # of connection points: 2
#     Edge 77, Type (0, 1), BuildingBlock: AJUNOK_clean_linker_0, # of connection points: 2
#     Edge 78, Type (0, 1), BuildingBlock: AJUNOK_clean_linker_0, # of connection points: 2
#     Edge 79, Type (0, 1), BuildingBlock: AJUNOK_clean_linker_0, # of connection points: 2
#     Edge 80, Type (0, 1), BuildingBlock: AJUNOK_clean_linker_0, # of connection points: 2
#     Edge 81, Type (0, 1), BuildingBlock: AJUNOK_clean_linker_0, # of connection points: 2
#     Edge 82, Type (0, 1), BuildingBlock: AJUNOK_clean_linker_0, # of connection points: 2
#     Edge 83, Type (0, 1), BuildingBlock: AJUNOK_clean_linker_0, # of connection points: 2
#     Edge 84, Type (0, 1), BuildingBlock: AJUNOK_clean_linker_0, # of connection points: 2
#     Edge 85, Type (0, 1), BuildingBlock: AJUNOK_clean_linker_0, # of connection points: 2
#     Edge 86, Type (0, 1), BuildingBlock: AJUNOK_clean_linker_0, # of connection points: 2
#     Edge 87, Type (0, 1), BuildingBlock: AJUNOK_clean_linker_0, # of connection points: 2
#     Edge 88, Type (0, 1), BuildingBlock: AJUNOK_clean_linker_0, # of connection points: 2
#     Edge 89, Type (0, 1), BuildingBlock: AJUNOK_clean_linker_0, # of connection points: 2
#     Edge 90, Type (0, 1), BuildingBlock: AJUNOK_clean_linker_0, # of connection points: 2
#     Edge 91, Type (0, 1), BuildingBlock: AJUNOK_clean_linker_0, # of connection points: 2
#     Edge 92, Type (0, 1), BuildingBlock: AJUNOK_clean_linker_0, # of connection points: 2
#     Edge 93, Type (0, 1), BuildingBlock: AJUNOK_clean_linker_0, # of connection points: 2
#     Edge 94, Type (0, 1), BuildingBlock: AJUNOK_clean_linker_0, # of connection points: 2
#     Edge 95, Type (0, 1), BuildingBlock: AJUNOK_clean_linker_0, # of connection points: 2
#     Edge 96, Type (0, 1), BuildingBlock: AJUNOK_clean_linker_0, # of connection points: 2
#     Edge 97, Type (0, 1), BuildingBlock: AJUNOK_clean_linker_0, # of connection points: 2
#     Edge 98, Type (0, 1), BuildingBlock: AJUNOK_clean_linker_0, # of connection points: 2
#     Edge 99, Type (0, 1), BuildingBlock: AJUNOK_clean_linker_0, # of connection points: 2
#     Edge 100, Type (0, 1), BuildingBlock: AJUNOK_clean_linker_0, # of connection points: 2
#     Edge 101, Type (0, 1), BuildingBlock: AJUNOK_clean_linker_0, # of connection points: 2
#     Edge 102, Type (0, 1), BuildingBlock: AJUNOK_clean_linker_0, # of connection points: 2
#     Edge 103, Type (0, 1), BuildingBlock: AJUNOK_clean_linker_0, # of connection points: 2
#     Edge 104, Type (0, 1), BuildingBlock: AJUNOK_clean_linker_0, # of connection points: 2
#     Edge 105, Type (0, 1), BuildingBlock: AJUNOK_clean_linker_0, # of connection points: 2
#     Edge 106, Type (0, 1), BuildingBlock: AJUNOK_clean_linker_0, # of connection points: 2
#     Edge 107, Type (0, 1), BuildingBlock: AJUNOK_clean_linker_0, # of connection points: 2
#     Edge 108, Type (0, 1), BuildingBlock: AJUNOK_clean_linker_0, # of connection points: 2
#     Edge 109, Type (0, 1), BuildingBlock: AJUNOK_clean_linker_0, # of connection points: 2
#     Edge 110, Type (0, 1), BuildingBlock: AJUNOK_clean_linker_0, # of connection points: 2
#     Edge 111, Type (0, 1), BuildingBlock: AJUNOK_clean_linker_0, # of connection points: 2
#     Edge 112, Type (0, 1), BuildingBlock: AJUNOK_clean_linker_0, # of connection points: 2
#     Edge 113, Type (0, 1), BuildingBlock: AJUNOK_clean_linker_0, # of connection points: 2
#     Edge 114, Type (0, 1), BuildingBlock: AJUNOK_clean_linker_0, # of connection points: 2
#     Edge 115, Type (0, 1), BuildingBlock: AJUNOK_clean_linker_0, # of connection points: 2
#     Edge 116, Type (0, 1), BuildingBlock: AJUNOK_clean_linker_0, # of connection points: 2
#     Edge 117, Type (0, 1), BuildingBlock: AJUNOK_clean_linker_0, # of connection points: 2
#     Edge 118, Type (0, 1), BuildingBlock: AJUNOK_clean_linker_0, # of connection points: 2
#     Edge 119, Type (0, 1), BuildingBlock: AJUNOK_clean_linker_0, # of connection points: 2
#     Edge 120, Type (0, 1), BuildingBlock: AJUNOK_clean_linker_0, # of connection points: 2
#     Edge 121, Type (0, 1), BuildingBlock: AJUNOK_clean_linker_0, # of connection points: 2
#     Edge 122, Type (0, 1), BuildingBlock: AJUNOK_clean_linker_0, # of connection points: 2
#     Edge 123, Type (0, 1), BuildingBlock: AJUNOK_clean_linker_0, # of connection points: 2
#     Edge 124, Type (0, 1), BuildingBlock: AJUNOK_clean_linker_0, # of connection points: 2
#     Edge 125, Type (0, 1), BuildingBlock: AJUNOK_clean_linker_0, # of connection points: 2
#     Edge 126, Type (0, 1), BuildingBlock: AJUNOK_clean_linker_0, # of connection points: 2
#     Edge 127, Type (0, 1), BuildingBlock: AJUNOK_clean_linker_0, # of connection points: 2
#     Edge 128, Type (0, 1), BuildingBlock: AJUNOK_clean_linker_0, # of connection points: 2
#     Edge 129, Type (0, 1), BuildingBlock: AJUNOK_clean_linker_0, # of connection points: 2
#     Edge 130, Type (0, 1), BuildingBlock: AJUNOK_clean_linker_0, # of connection points: 2
#     Edge 131, Type (0, 1), BuildingBlock: AJUNOK_clean_linker_0, # of connection points: 2
#     Edge 132, Type (0, 1), BuildingBlock: AJUNOK_clean_linker_0, # of connection points: 2
#     Edge 133, Type (0, 1), BuildingBlock: AJUNOK_clean_linker_0, # of connection points: 2
#     Edge 134, Type (0, 1), BuildingBlock: AJUNOK_clean_linker_0, # of connection points: 2
#     Edge 135, Type (0, 1), BuildingBlock: AJUNOK_clean_linker_0, # of connection points: 2
# Relax obj value: 0.314
# Max RMSD: 0.373
# Mean RMSD: 0.175
data_MOF--net-gar--node1-NAHDIM_clean_sbu_0--node2-NUHQIS_clean_sbu_0--edge1-AJUNOK_clean_linker_0
_symmetry_space_group_name_H-M    P1
_symmetry_Int_Tables_number       1
_symmetry_cell_setting            triclinic
loop_
_symmetry_equiv_pos_as_xyz
'x, y, z'
_cell_length_a     43.421265
_cell_length_b     44.984872
_cell_length_c     41.874062
_cell_angle_alpha  93.316407
_cell_angle_beta   97.652902
_cell_angle_gamma 100.16366
loop_
_atom_site_label
_atom_site_type_symbol
_atom_site_fract_x
_atom_site_fract_y
_atom_site_fract_z
_atom_type_partial_charge
C0 C 0.16171 0.31165 0.37602 0.0
O1 O 0.14467 0.28427 0.36943 0.0
O2 O 0.10622 0.2765 0.44675 0.0
Zn3 Zn 0.10691 0.32337 0.42253 0.0
O4 O 0.11013 0.36874 0.45495 0.0
C5 C 1.03352 0.30421 0.38839 0.0
O6 O 1.03181 0.28227 0.40781 0.0
O7 O 0.15103 0.33012 0.3953 0.0
C8 C 0.10144 0.39358 0.44494 0.0
O9 O 0.08993 0.39231 0.41414 0.0
C10 C 0.08874 0.26018 0.46515 0.0
O11 O 0.06526 0.27165 0.47443 0.0
O12 O 0.06083 0.32192 0.3896 0.0
C13 C 1.03306 0.84191 0.71503 0.0
O14 O 0.05153 0.86819 0.72457 0.0
O15 O 0.08582 0.78528 0.63662 0.0
Zn16 Zn 0.088 0.83057 0.66857 0.0
O17 O 0.09079 0.87817 0.64562 0.0
C18 C 0.16161 0.84243 0.6974 0.0
O19 O 0.16455 0.85483 0.67006 0.0
O20 O 1.04309 0.82427 0.69431 0.0
C21 C 0.09955 0.89047 0.61972 0.0
O22 O 0.10968 0.87276 0.59902 0.0
C23 C 0.09168 0.75962 0.64728 0.0
O24 O 0.0993 0.75978 0.67873 0.0
O25 O 0.13304 0.83211 0.70278 0.0
C26 C 0.6646 0.81442 0.8758 0.0
O27 O 0.64345 0.79057 0.86336 0.0
O28 O 0.6109 0.77885 0.95042 0.0
Zn29 Zn 0.61294 0.8254 0.92628 0.0
O30 O 0.61538 0.87127 0.9571 0.0
C31 C 0.53972 0.80944 0.8985 0.0
O32 O 0.53823 0.79486 0.9247 0.0
O33 O 0.65711 0.83076 0.89945 0.0
C34 C 0.60418 0.89486 0.94685 0.0
O35 O 0.59017 0.89187 0.91673 0.0
C36 C 0.59735 0.76564 0.97347 0.0
O37 O 0.58069 0.78151 0.98925 0.0
O38 O 0.56747 0.82265 0.89341 0.0
C39 C 0.51612 0.31311 0.19507 0.0
O40 O 0.51181 0.28772 0.17651 0.0
O41 O 0.58038 0.28512 0.1346 0.0
Zn42 Zn 0.58412 0.33184 0.16394 0.0
O43 O 0.58826 0.37522 0.1341 0.0
C44 C 0.65817 0.34107 0.18754 0.0
O45 O 0.65957 0.34871 0.15789 0.0
O46 O 0.54224 0.33247 0.19395 0.0
C47 C 0.59312 0.40397 0.14478 0.0
O48 O 0.59554 0.40949 0.17625 0.0
C49 C 0.59338 0.26259 0.14487 0.0
O50 O 0.60845 0.26689 0.17458 0.0
O51 O 0.63028 0.33444 0.19609 0.0
C52 C 0.13542 0.90016 0.22267 0.0
O53 O 0.13355 0.8959 0.19115 0.0
O54 O 0.20534 0.88055 0.19582 0.0
Zn55 Zn 0.19957 0.92027 0.21667 0.0
O56 O 0.19007 0.94947 0.18469 0.0
C57 C 0.26326 0.95091 0.24648 0.0
O58 O 0.26702 0.961 0.21815 0.0
O59 O 0.16196 0.91107 0.23948 0.0
C60 C 0.19926 0.9539 0.15753 0.0
O61 O 0.22068 0.9395 0.14802 0.0
C62 C 0.19281 0.86977 0.16741 0.0
O63 O 0.17613 0.88575 0.1492 0.0
O64 O 0.23663 0.9358 0.25027 0.0
C65 C 0.57526 0.77893 0.38614 0.0
O66 O 0.56882 0.79875 0.40736 0.0
O67 O 0.54086 0.71905 0.44833 0.0
Zn68 Zn 0.5254 0.73993 0.41005 0.0
O69 O 0.5119 0.77811 0.42491 0.0
C70 C 0.46145 0.71561 0.38736 0.0
O71 O 0.45895 0.72198 0.41783 0.0
O72 O 0.56025 0.75177 0.38364 0.0
C73 C 0.50694 0.78557 0.45321 0.0
O74 O 0.50916 0.76652 0.47565 0.0
C75 C 0.56811 0.72993 0.46395 0.0
O76 O 0.58521 0.75385 0.45426 0.0
O77 O 0.48887 0.71602 0.37988 0.0
C78 C 0.62809 0.43596 0.71583 0.0
O79 O 0.62162 0.45049 0.69019 0.0
O80 O 0.69149 0.39202 0.67484 0.0
Zn81 Zn 0.6876 0.43329 0.69194 0.0
O82 O 0.67397 0.45714 0.65579 0.0
C83 C 0.75336 0.4457 0.71172 0.0
O84 O 0.75395 0.43963 0.68075 0.0
O85 O 0.65435 0.4271 0.72082 0.0
C86 C 0.67859 0.45397 0.62656 0.0
O87 O 0.69694 0.43556 0.61798 0.0
C88 C 0.66735 0.37437 0.65956 0.0
O89 O 0.64076 0.38451 0.65349 0.0
O90 O 0.72791 0.45106 0.72046 0.0
C91 C 0.07852 0.2752 0.89748 0.0
O92 O 0.07493 0.29341 0.92183 0.0
O93 O 1.03167 0.21498 0.94535 0.0
Zn94 Zn 1.02012 0.24094 0.91089 0.0
O95 O 1.01057 0.28013 0.92735 0.0
C96 C 0.95684 0.22074 0.87903 0.0
O97 O 0.94951 0.22639 0.90794 0.0
O98 O 0.05804 0.25129 0.8889 0.0
C99 C 0.99981 0.28824 0.95251 0.0
O100 O 0.99177 0.2683 0.97306 0.0
C101 C 0.05074 0.22644 0.97051 0.0
O102 O 0.05911 0.256 0.9758 0.0
O103 O 0.9856 0.22147 0.8761 0.0
C104 C 0.49284 0.14667 0.29686 0.0
O105 O 0.5161 0.1505 0.27952 0.0
O106 O 0.56746 0.12876 0.321 0.0
Zn107 Zn 0.54125 0.14362 0.35161 0.0
O108 O 0.56157 0.18695 0.36886 0.0
C109 C 0.5487 0.0903 0.38694 0.0
O110 O 0.57781 0.09522 0.38033 0.0
O111 O 0.49876 0.14446 0.32704 0.0
C112 C 0.57882 0.19669 0.39562 0.0
O113 O 0.59247 0.22536 0.40044 0.0
C114 C 0.59747 0.1344 0.32501 0.0
O115 O 0.61304 0.15241 0.34995 0.0
O116 O 0.53174 0.11022 0.38111 0.0
C117 C 0.43374 0.1781 0.55553 0.0
O118 O 0.44191 0.20361 0.57408 0.0
O119 O 0.37046 0.22763 0.58857 0.0
Zn120 Zn 0.3644 0.1993 0.54097 0.0
O121 O 0.36172 0.22367 0.49407 0.0
C122 C 0.30036 0.1617 0.56185 0.0
O123 O 0.31523 0.16843 0.59151 0.0
O124 O 0.40459 0.17177 0.54081 0.0
C125 C 0.37746 0.24788 0.48392 0.0
O126 O 0.40055 0.26418 0.50454 0.0
C127 C 0.34816 0.23773 0.6012 0.0
O128 O 0.32047 0.23403 0.583 0.0
O129 O 0.3159 0.17037 0.5385 0.0
C130 C 0.29187 0.07629 0.85238 0.0
O131 O 0.26108 0.07444 0.84689 0.0
O132 O 0.25247 0.13091 0.85909 0.0
Zn133 Zn 0.28458 0.12326 0.89507 0.0
O134 O 0.26189 0.10473 0.92937 0.0
C135 C 0.29837 0.18553 0.90869 0.0
O136 O 0.26827 0.18002 0.91201 0.0
O137 O 0.30812 0.09489 0.87494 0.0
C138 C 0.26363 0.11761 0.95742 0.0
O139 O 0.28378 0.1431 0.96605 0.0
C140 C 0.22325 0.13064 0.85952 0.0
O141 O 0.21143 0.12632 0.88653 0.0
O142 O 0.31267 0.16332 0.90729 0.0
C143 C 0.34832 0.96587 0.09228 0.0
O144 O 0.36871 0.96257 0.11736 0.0
O145 O 0.38371 0.89764 0.10159 0.0
Zn146 Zn 0.38025 0.92352 0.06243 0.0
O147 O 0.37403 0.9018 0.01618 0.0
C148 C 0.44172 0.96261 0.09068 0.0
O149 O 0.43835 0.94974 0.11766 0.0
O150 O 0.34722 0.94972 0.06601 0.0
C151 C 0.34801 0.89202 0.99746 0.0
O152 O 0.32123 0.89242 1.00869 0.0
C153 C 0.36084 0.8811 0.11211 0.0
O154 O 0.33237 0.87743 0.09547 0.0
O155 O 0.42094 0.9543 0.06584 0.0
C156 C 0.25712 0.47701 0.03932 0.0
O157 O 0.24829 0.44801 0.03005 0.0
O158 O 0.32981 0.43247 0.09448 0.0
Zn159 Zn 0.32805 0.4592 0.04942 0.0
O160 O 0.32394 0.43215 1.00127 0.0
C161 C 0.39311 0.49598 0.0316 0.0
O162 O 0.37859 0.48967 1.00176 0.0
O163 O 0.28744 0.48659 0.04825 0.0
C164 C 0.34615 0.4209 0.98969 0.0
O165 O 0.37314 0.42335 1.00892 0.0
C166 C 0.30948 0.41257 0.10599 0.0
O167 O 0.28126 0.40457 0.08889 0.0
O168 O 0.37684 0.4879 0.05454 0.0
C169 C 0.88764 0.20201 1.0148 0.0
O170 O 0.89386 0.22582 0.99838 0.0
O171 O 0.83379 0.24929 0.0728 0.0
Zn172 Zn 0.83016 0.22544 0.0279 0.0
O173 O 0.83186 0.25103 0.98804 0.0
C174 C 0.76174 0.19976 1.01064 0.0
O175 O 0.75918 0.2265 1.0007 0.0
O176 O 0.86344 0.19874 0.02927 0.0
C177 C 0.81969 0.23899 0.9597 0.0
O178 O 0.80566 0.2104 0.95646 0.0
C179 C 0.85912 0.26292 0.0906 0.0
O180 O 0.88617 0.26422 0.07945 0.0
O181 O 0.78882 0.1951 0.02251 0.0
C182 C 0.23893 0.54457 0.24944 0.0
O183 O 0.22688 0.56326 0.26727 0.0
O184 O 0.15268 0.48597 0.21546 0.0
Zn185 Zn 0.17545 0.52925 0.21239 0.0
O186 O 0.16123 0.55621 0.245 0.0
C187 C 0.1727 0.56739 0.15661 0.0
O188 O 0.16468 0.57035 0.12585 0.0
O189 O 0.22163 0.5292 0.22504 0.0
C190 C 0.13806 0.56996 0.24079 0.0
O191 O 0.12171 0.56868 0.21191 0.0
C192 C 0.12912 0.47134 0.19604 0.0
O193 O 0.11824 0.44284 0.19986 0.0
O194 O 0.16758 0.5412 0.16685 0.0
C195 C 0.75585 0.97795 0.53725 0.0
O196 O 0.74617 0.94993 0.52452 0.0
O197 O 0.83148 0.9341 0.59427 0.0
Zn198 Zn 0.82719 0.95957 0.54832 0.0
O199 O 0.82307 0.93 0.50165 0.0
C200 C 0.89992 0.98206 0.54547 0.0
O201 O 0.89892 0.95273 0.54111 0.0
O202 O 0.78609 0.98614 0.54767 0.0
C203 C 0.83833 0.93704 0.47758 0.0
O204 O 0.85678 0.96381 0.48031 0.0
C205 C 0.8106 0.91705 0.60822 0.0
O206 O 0.78111 0.91257 0.59407 0.0
O207 O 0.87379 0.99085 0.54987 0.0
C208 C 0.89029 0.07211 0.20298 0.0
O209 O 0.87607 0.05034 0.18088 0.0
O210 O 0.96249 0.05659 0.15823 0.0
Zn211 Zn 0.94391 0.04478 0.19779 0.0
O212 O 0.98087 0.04571 0.23264 0.0
C213 C 0.91331 0.97941 0.17954 0.0
O214 O 0.93012 0.97773 0.15589 0.0
O215 O 0.91976 0.07502 0.21227 0.0
C216 C 0.99011 1.0218 0.24158 0.0
O217 O 0.97479 0.99528 0.2282 0.0
C218 C 0.98387 0.04202 0.15245 0.0
O219 O 0.98696 1.01812 0.16824 0.0
O220 O 0.91564 1.00435 0.19622 0.0
C221 C 0.38115 0.71953 0.52541 0.0
O222 O 0.39058 0.74862 0.52311 0.0
O223 O 0.32991 0.75597 0.58704 0.0
Zn224 Zn 0.32337 0.73793 0.5397 0.0
O225 O 0.32994 0.76892 0.50612 0.0
C226 C 0.27786 0.68661 0.54538 0.0
O227 O 0.30286 0.68225 0.56461 0.0
O228 O 0.3542 0.71027 0.53362 0.0
C229 C 0.31174 0.76609 0.47919 0.0
O230 O 0.28611 0.745 0.47465 0.0
C231 C 0.35659 0.76475 0.60482 0.0
O232 O 0.38253 0.76384 0.59218 0.0
O233 O 0.28002 0.71062 0.53053 0.0
C234 C 0.41715 0.56706 0.76021 0.0
O235 O 0.44258 0.56137 0.77768 0.0
O236 O 0.46528 0.54766 0.6881 0.0
Zn237 Zn 0.43334 0.5258 0.71311 0.0
O238 O 0.45654 0.50659 0.74875 0.0
C239 C 0.41511 0.46939 0.68067 0.0
O240 O 0.44553 0.47384 0.67879 0.0
O241 O 0.409 0.55458 0.73165 0.0
C242 C 0.4454 0.48636 0.76626 0.0
O243 O 0.41478 0.47616 0.76244 0.0
C244 C 0.49446 0.55321 0.69993 0.0
O245 O 0.50348 0.54431 0.72841 0.0
O246 O 0.4031 0.49247 0.68652 0.0
C247 C 0.67697 0.9754 0.77922 0.0
O248 O 0.64988 0.96305 0.78779 0.0
O249 O 0.62082 0.94809 0.69937 0.0
Zn250 Zn 0.63788 0.98984 0.72291 0.0
O251 O 0.606 0.99983 0.74989 0.0
C252 C 0.63429 0.04642 0.69245 0.0
O253 O 0.60459 0.04089 0.69719 0.0
O254 O 0.67718 0.98757 0.75266 0.0
C255 C 0.61354 1.0245 0.76773 0.0
O256 O 0.64142 0.0415 0.7675 0.0
C257 C 0.60565 0.94247 0.67097 0.0
O258 O 0.59333 0.91438 0.65998 0.0
O259 O 0.65099 1.02619 0.69794 0.0
C260 C 0.93598 0.68181 0.05162 0.0
O261 O 0.94526 0.70941 0.06564 0.0
O262 O 0.87056 0.7289 0.08785 0.0
Zn263 Zn 0.86587 0.70164 0.03995 0.0
O264 O 0.86715 0.73112 0.99735 0.0
C265 C 0.80009 0.66731 0.05779 0.0
O266 O 0.81315 0.67824 0.08719 0.0
O267 O 0.90594 0.67387 0.04016 0.0
C268 C 0.86374 0.72211 0.96674 0.0
O269 O 0.85917 0.69272 0.95942 0.0
C270 C 0.85038 0.74425 0.09759 0.0
O271 O 0.82532 0.74557 0.07673 0.0
O272 O 0.81717 0.67265 0.03481 0.0
C273 C 1.00405 0.6574 0.79277 0.0
O274 O 1.03059 0.67452 0.78801 0.0
O275 O 0.0773 0.63446 0.82486 0.0
Zn276 Zn 1.0425 0.64204 0.84921 0.0
O277 O 0.05325 0.6847 0.87158 0.0
C278 C 1.04523 0.5839 0.87406 0.0
O279 O 0.0728 0.58879 0.86376 0.0
O280 O 1.00406 0.64163 0.81693 0.0
C281 C 0.06681 0.69679 0.89924 0.0
O282 O 0.06959 0.72622 0.90512 0.0
C283 C 0.10419 0.65087 0.8242 0.0
O284 O 0.11177 0.67771 0.84024 0.0
O285 O 1.02956 0.60534 0.8743 0.0
C286 C 0.82871 0.46033 0.58606 0.0
O287 O 0.83818 0.44325 0.60838 0.0
O288 O 0.86279 0.39539 0.58147 0.0
Zn289 Zn 0.86357 0.42646 0.54678 0.0
O290 O 0.84896 0.40714 0.50018 0.0
C291 C 0.91877 0.47473 0.56664 0.0
O292 O 0.90387 0.48068 0.59087 0.0
O293 O 0.83566 0.45639 0.55771 0.0
C294 C 0.86141 0.38593 0.48889 0.0
O295 O 0.88245 0.37525 0.50825 0.0
C296 C 0.88415 0.39772 0.60606 0.0
O297 O 0.90939 0.41901 0.60783 0.0
O298 O 0.90701 0.45205 0.5464 0.0
C299 C 0.82018 0.56778 0.40383 0.0
O300 O 0.80373 0.56351 0.42786 0.0
O301 O 0.74217 0.58945 0.34428 0.0
Zn302 Zn 0.7769 0.60744 0.381 0.0
O303 O 0.75853 0.60746 0.42225 0.0
C304 C 0.77805 0.66379 0.35222 0.0
O305 O 0.75052 0.64954 0.33699 0.0
O306 O 0.81253 0.58494 0.38231 0.0
C307 C 0.73981 0.62585 0.42517 0.0
O308 O 0.73605 0.64465 0.40277 0.0
C309 C 0.71383 0.57886 0.34803 0.0
O310 O 0.70673 0.57553 0.37726 0.0
O311 O 0.7937 0.65022 0.37254 0.0
Tb312 Tb 0.09301 0.06597 0.03457 0.0
Eu313 Eu 0.15915 0.11465 0.09364 0.0
C314 C 0.15338 0.0781 0.01761 0.0
C315 C 0.14067 0.03765 0.0833 0.0
C316 C 1.01153 0.07047 0.01749 0.0
C317 C 0.95975 0.08261 1.0004 0.0
C318 C 0.98067 0.06207 1.00085 0.0
C319 C 1.02109 0.09953 0.03376 0.0
C320 C 1.00044 0.12007 0.03302 0.0
C321 C 0.96956 0.11188 0.01634 0.0
C322 C 1.03472 0.05015 0.01702 0.0
O323 O 0.10581 0.09373 0.07872 0.0
O324 O 0.12103 0.11529 0.12628 0.0
O325 O 0.13435 0.14722 0.06521 0.0
O326 O 0.09931 0.11383 0.02462 0.0
C327 C 0.09738 0.09912 0.1067 0.0
O328 O 0.19852 0.12191 0.1334 0.0
O329 O 0.20548 0.13955 0.08714 0.0
O330 O 0.14898 0.0883 0.04594 0.0
O331 O 0.12758 0.06152 1.00181 0.0
O332 O 0.11773 0.03286 0.05804 0.0
O333 O 0.15479 0.06422 0.09853 0.0
C334 C 0.11325 0.14121 0.0384 0.0
O335 O 0.05491 0.0562 0.99658 0.0
O336 O 1.04876 0.04564 0.04549 0.0
C337 C 0.24083 0.10965 0.10914 0.0
C338 C 0.27781 0.06448 0.10232 0.0
C339 C 0.28868 0.08978 0.12511 0.0
C340 C 0.27024 0.11221 0.12856 0.0
C341 C 0.23022 0.08452 0.0864 0.0
C342 C 0.24829 0.0622 0.08316 0.0
C343 C 0.21894 0.13062 0.11385 0.0
H344 H 0.93612 0.07585 0.9871 0.0
H345 H 0.9729 0.03986 0.98798 0.0
H346 H 1.04473 0.10649 0.04692 0.0
H347 H 1.00856 0.14236 0.04567 0.0
H348 H 0.31132 0.09211 0.14033 0.0
H349 H 0.27866 0.13115 0.14662 0.0
H350 H 0.20737 0.08167 0.07159 0.0
H351 H 0.23865 0.04272 0.06612 0.0
Tb352 Tb 0.39462 0.84328 0.31621 0.0
Eu353 Eu 0.32201 0.80661 0.28732 0.0
C354 C 0.33931 0.87951 0.3032 0.0
C355 C 0.34505 0.81931 0.36178 0.0
C356 C 0.4635 0.90248 0.35309 0.0
C357 C 0.46279 0.94927 0.38507 0.0
C358 C 0.4491 0.91929 0.37417 0.0
C359 C 0.49202 0.91611 0.34349 0.0
C360 C 0.50561 0.94619 0.35422 0.0
C361 C 0.49103 0.96327 0.37492 0.0
C362 C 0.44926 0.8708 0.34121 0.0
O363 O 0.3986 0.79799 0.2981 0.0
O364 O 0.3502 0.77236 0.30568 0.0
O365 O 0.35026 0.81111 0.2458 0.0
O366 O 0.38451 0.85474 0.26618 0.0
C367 C 0.38038 0.7733 0.3049 0.0
O368 O 0.28279 0.79311 0.24783 0.0
O369 O 0.27835 0.77742 0.29519 0.0
O370 O 0.32089 0.85609 0.28602 0.0
O371 O 0.36633 0.87817 0.32083 0.0
O372 O 0.37379 0.82003 0.35488 0.0
O373 O 0.32222 0.82263 0.3392 0.0
C374 C 0.36901 0.83638 0.24131 0.0
O375 O 0.42829 0.85696 0.35743 0.0
O376 O 0.44046 0.86512 0.31014 0.0
C377 C 0.25283 0.74392 0.2505 0.0
C378 C 0.22823 0.68352 0.22558 0.0
C379 C 0.25454 0.70024 0.21423 0.0
C380 C 0.26686 0.73011 0.22671 0.0
C381 C 0.2264 0.7274 0.26161 0.0
C382 C 0.2142 0.69749 0.24928 0.0
C383 C 0.26593 0.77501 0.26486 0.0
H384 H 0.45118 0.9614 0.40148 0.0
H385 H 0.42717 0.90935 0.38222 0.0
H386 H 0.50362 0.90358 0.32737 0.0
H387 H 0.52719 0.95631 0.34562 0.0
H388 H 0.26527 0.69043 0.19527 0.0
H389 H 0.28731 0.74235 0.21774 0.0
H390 H 0.2153 0.73762 0.28002 0.0
H391 H 0.19386 0.6852 0.2584 0.0
Tb392 Tb 0.57335 0.05338 0.52115 0.0
Eu393 Eu 0.61941 0.10727 0.57015 0.0
C394 C 0.59369 0.04189 0.59238 0.0
C395 C 0.54241 0.10874 0.5494 0.0
C396 C 0.52988 0.97785 0.48292 0.0
C397 C 0.54334 0.9295 0.49591 0.0
C398 C 0.55102 0.9611 0.49824 0.0
C399 C 0.50079 0.96285 0.466 0.0
C400 C 0.4931 0.93127 0.46362 0.0
C401 C 0.51437 0.91431 0.47844 0.0
C402 C 0.53736 1.01096 0.4848 0.0
O403 O 0.5871 0.08766 0.48898 0.0
O404 O 0.6117 0.12909 0.52397 0.0
O405 O 0.65455 0.0792 0.55237 0.0
O406 O 0.61976 0.0367 0.52874 0.0
C407 C 0.59943 0.1165 0.49511 0.0
O408 O 0.66166 0.14226 0.58215 0.0
O409 O 0.63035 0.13156 0.618 0.0
O410 O 0.61723 0.06474 0.59521 0.0
O411 O 0.56972 0.03908 0.56929 0.0
O412 O 0.54133 0.08662 0.52668 0.0
O413 O 0.56855 0.11727 0.57081 0.0
C414 C 0.64937 0.05075 0.53969 0.0
O415 O 0.52908 1.02475 0.50954 0.0
O416 O 0.56559 1.02315 0.47953 0.0
C417 C 0.65802 0.18242 0.61939 0.0
C418 C 0.66417 0.24538 0.63353 0.0
C419 C 0.63695 0.22542 0.63901 0.0
C420 C 0.63384 0.19424 0.63194 0.0
C421 C 0.68549 0.20226 0.61456 0.0
C422 C 0.68848 0.23347 0.62135 0.0
C423 C 0.65499 0.14971 0.61071 0.0
H424 H 0.56043 0.91691 0.50701 0.0
H425 H 0.57351 0.97243 0.51166 0.0
H426 H 0.48411 0.97565 0.45452 0.0
H427 H 0.47063 0.92005 0.45007 0.0
H428 H 0.61795 0.23397 0.64864 0.0
H429 H 0.61239 0.17951 0.63601 0.0
H430 H 0.7045 0.19363 0.60503 0.0
H431 H 0.70947 0.24828 0.61631 0.0
Tb432 Tb 0.31485 0.33096 0.78472 0.0
Eu433 Eu 0.38914 0.33143 0.80665 0.0
C434 C 0.36634 0.37714 0.75817 0.0
C435 C 0.35379 0.29847 0.73586 0.0
C436 C 0.23023 0.32538 0.7875 0.0
C437 C 0.17444 0.30917 0.78952 0.0
C438 C 0.19926 0.31614 0.77162 0.0
C439 C 0.23621 0.32847 0.8214 0.0
C440 C 0.2114 0.32169 0.83931 0.0
C441 C 0.18047 0.31133 0.82345 0.0
C442 C 0.25652 0.32858 0.76884 0.0
O443 O 0.31699 0.30165 0.824 0.0
O444 O 0.36434 0.28725 0.82042 0.0
O445 O 0.37152 0.34896 0.85241 0.0
O446 O 0.32533 0.36218 0.83011 0.0
C447 C 0.33726 0.28385 0.83146 0.0
O448 O 0.43311 0.31457 0.80398 0.0
O449 O 0.43218 0.35188 0.83868 0.0
O450 O 0.38682 0.3743 0.7831 0.0
O451 O 0.33809 0.3604 0.75251 0.0
O452 O 0.32696 0.29884 0.74774 0.0
O453 O 0.38075 0.31278 0.75291 0.0
C454 C 0.34732 0.36259 0.85552 0.0
O455 O 0.27703 0.35393 0.77486 0.0
O456 O 0.27015 0.305 0.7678 0.0
C457 C 0.47747 0.35419 0.81324 0.0
C458 C 0.52911 0.38675 0.78828 0.0
C459 C 0.52943 0.35711 0.7972 0.0
C460 C 0.50385 0.34102 0.80972 0.0
C461 C 0.47718 0.38389 0.8046 0.0
C462 C 0.50284 0.40005 0.79231 0.0
C463 C 0.44981 0.33635 0.82436 0.0
H464 H 0.15063 0.30154 0.77691 0.0
H465 H 0.19442 0.31345 0.74544 0.0
H466 H 0.26016 0.33511 0.83394 0.0
H467 H 0.2165 0.3234 0.86546 0.0
H468 H 0.54902 0.346 0.79353 0.0
H469 H 0.50433 0.31805 0.81596 0.0
H470 H 0.45687 0.39443 0.80671 0.0
H471 H 0.50191 0.42272 0.78539 0.0
Tb472 Tb 0.09724 0.06217 0.51368 0.0
Eu473 Eu 0.09575 0.0933 0.58231 0.0
C474 C 0.16295 0.10029 0.55201 0.0
C475 C 0.10174 1.01997 0.57559 0.0
C476 C 0.09729 0.04111 0.42479 0.0
C477 C 0.09862 1.01778 0.37145 0.0
C478 C 0.10624 1.01887 0.40503 0.0
C479 C 0.08434 0.06449 0.4106 0.0
C480 C 0.07613 0.06306 0.37715 0.0
C481 C 0.08119 0.03848 0.35746 0.0
C482 C 0.09442 0.03548 0.45851 0.0
O483 O 1.04929 0.04345 0.52506 0.0
O484 O 1.04276 0.07834 0.56354 0.0
O485 O 0.0916 0.1328 0.54963 0.0
O486 O 0.09272 0.10968 0.49995 0.0
C487 C 1.03065 0.05439 0.5433 0.0
O488 O 0.07697 0.0946 0.62804 0.0
O489 O 0.11209 0.1319 0.61828 0.0
O490 O 0.14926 0.09924 0.57853 0.0
O491 O 0.14591 0.08911 0.52406 0.0
O492 O 0.10601 1.02436 0.54512 0.0
O493 O 0.0973 0.04333 0.5942 0.0
C494 C 0.0921 0.13486 0.51824 0.0
O495 O 0.11991 0.0404 0.47988 0.0
O496 O 0.07064 0.04449 0.46962 0.0
C497 C 0.11154 0.12138 0.67235 0.0
C498 C 0.14477 0.12551 0.73516 0.0
C499 C 0.12557 0.14665 0.72642 0.0
C500 C 0.10902 0.14455 0.69516 0.0
C501 C 0.13039 0.10005 0.68104 0.0
C502 C 0.14688 0.10209 0.71227 0.0
C503 C 0.09511 0.12023 0.63938 0.0
H504 H 0.104 0.99931 0.35673 0.0
H505 H 0.11659 1.00082 0.4156 0.0
H506 H 0.0776 0.08214 0.42542 0.0
H507 H 0.06302 0.07959 0.36718 0.0
H508 H 0.12404 0.16521 0.74345 0.0
H509 H 0.09464 0.16126 0.68863 0.0
H510 H 0.13259 0.08207 0.66359 0.0
H511 H 0.16149 0.08549 0.7185 0.0
Tb512 Tb 0.33532 0.79511 0.80944 0.0
Eu513 Eu 0.36627 0.86047 0.78911 0.0
C514 C 0.34366 0.85251 0.86025 0.0
C515 C 0.28767 0.83413 0.77469 0.0
C516 C 0.33007 0.71397 0.81837 0.0
C517 C 0.32393 0.65928 0.81092 0.0
C518 C 0.31126 0.68513 0.81738 0.0
C519 C 0.36173 0.71676 0.81345 0.0
C520 C 0.37445 0.69107 0.80735 0.0
C521 C 0.35554 0.66215 0.80549 0.0
C522 C 0.31632 0.7412 0.82207 0.0
O523 O 0.33764 0.79018 0.75742 0.0
O524 O 0.38044 0.8265 0.75538 0.0
O525 O 0.41027 0.84631 0.81446 0.0
O526 O 0.3878 0.79794 0.8233 0.0
C527 C 0.36043 0.80252 0.74204 0.0
O528 O 0.37124 0.88993 0.7498 0.0
O529 O 0.39439 0.90602 0.79821 0.0
O530 O 0.35783 0.87023 0.84057 0.0
O531 O 0.33051 0.82411 0.85137 0.0
O532 O 0.29135 0.81261 0.79433 0.0
O533 O 0.31291 0.85301 0.76849 0.0
C534 C 0.41305 0.82007 0.82567 0.0
O535 O 0.33239 0.76242 0.84333 0.0
O536 O 0.30725 0.75218 0.79513 0.0
C537 C 0.37317 0.94076 0.76747 0.0
C538 C 0.34846 0.99277 0.7807 0.0
C539 C 0.38097 0.99506 0.77951 0.0
C540 C 0.39329 0.9691 0.77293 0.0
C541 C 0.34045 0.93876 0.76631 0.0
C542 C 0.32818 0.96459 0.77286 0.0
C543 C 0.38653 0.91323 0.76897 0.0
H544 H 0.309 0.63713 0.80972 0.0
H545 H 0.28668 0.68265 0.82086 0.0
H546 H 0.3764 0.73884 0.81346 0.0
H547 H 0.39876 0.69383 0.80287 0.0
H548 H 0.39701 1.01659 0.78557 0.0
H549 H 0.41865 0.97088 0.77421 0.0
H550 H 0.32461 0.91696 0.76264 0.0
H551 H 0.30314 0.96205 0.77437 0.0
Tb552 Tb 0.62399 0.07342 0.07367 0.0
Eu553 Eu 0.57531 0.08629 1.01362 0.0
C554 C 0.60516 1.02079 1.01414 0.0
C555 C 0.64972 0.1093 0.01902 0.0
C556 C 0.66624 0.07705 0.15738 0.0
C557 C 0.66511 0.11531 0.20023 0.0
C558 C 0.66916 0.1076 0.16853 0.0
C559 C 0.6628 0.0547 0.17934 0.0
C560 C 0.65887 0.06243 0.21109 0.0
C561 C 0.65818 0.09259 0.22115 0.0
C562 C 0.66287 0.06776 0.12264 0.0
O563 O 0.61244 0.11933 0.08874 0.0
O564 O 0.57603 0.12886 0.04736 0.0
O565 O 0.54461 0.0727 0.05084 0.0
O566 O 0.57816 0.04891 0.08241 0.0
C567 C 0.59385 0.13769 0.07565 0.0
O568 O 0.56522 0.11012 0.97074 0.0
O569 O 0.52928 0.07477 0.98314 0.0
O570 O 0.58749 0.03875 0.99914 0.0
O571 O 0.62182 0.03059 0.04288 0.0
O572 O 0.65265 0.08627 0.03612 0.0
O573 O 0.62191 0.11615 1.01107 0.0
C574 C 0.54959 0.05357 0.07237 0.0
O575 O 0.63776 0.0477 0.11144 0.0
O576 O 0.66761 0.08916 0.1032 0.0
C577 C 0.53372 0.07909 0.92802 0.0
C578 C 0.54233 0.05852 0.86595 0.0
C579 C 0.54326 0.0393 0.89118 0.0
C580 C 0.53904 0.04954 0.92204 0.0
C581 C 0.53012 0.09739 0.90233 0.0
C582 C 0.53444 0.08717 0.87141 0.0
C583 C 0.53782 0.09273 0.96127 0.0
H584 H 0.66495 0.13875 0.20758 0.0
H585 H 0.67264 0.12536 0.15231 0.0
H586 H 0.66108 0.03104 0.17138 0.0
H587 H 0.65426 0.04462 0.22712 0.0
H588 H 0.54993 1.01736 0.88779 0.0
H589 H 0.54225 0.03515 0.94163 0.0
H590 H 0.52625 0.12033 0.90663 0.0
H591 H 0.53372 0.10237 0.85229 0.0
Tb592 Tb 0.35863 0.35555 0.30933 0.0
Eu593 Eu 0.32798 0.2915 0.27265 0.0
C594 C 0.35927 0.29678 0.3508 0.0
C595 C 0.40383 0.32116 0.26873 0.0
C596 C 0.36194 0.43491 0.32531 0.0
C597 C 0.36331 0.4888 0.32108 0.0
C598 C 0.3774 0.46511 0.33313 0.0
C599 C 0.33235 0.42866 0.30576 0.0
C600 C 0.31864 0.45201 0.29353 0.0
C601 C 0.3341 0.48219 0.30068 0.0
C602 C 0.37672 0.40922 0.33478 0.0
O603 O 0.34223 0.36871 0.25985 0.0
O604 O 0.31752 0.32335 0.23309 0.0
O605 O 0.28425 0.30471 0.29103 0.0
O606 O 0.30891 0.34758 0.32262 0.0
C607 C 0.32749 0.35285 0.23276 0.0
O608 O 0.32393 0.25867 0.23101 0.0
O609 O 0.29823 0.24659 0.27028 0.0
O610 O 0.34232 0.28015 0.32521 0.0
O611 O 0.37152 0.32558 0.34791 0.0
O612 O 0.40091 0.34474 0.28804 0.0
O613 O 0.37983 0.29796 0.26241 0.0
C614 C 0.28311 0.32641 0.31327 0.0
O615 O 0.35881 0.38825 0.34746 0.0
O616 O 0.38998 0.39745 0.31243 0.0
C617 C 0.32442 0.2102 0.24821 0.0
C618 C 0.36938 0.17214 0.2561 0.0
C619 C 0.35634 0.17774 0.22496 0.0
C620 C 0.33394 0.19661 0.22104 0.0
C621 C 0.33544 0.20243 0.27913 0.0
C622 C 0.35772 0.18368 0.28303 0.0
C623 C 0.30876 0.23661 0.24482 0.0
H624 H 0.37536 0.51206 0.32708 0.0
H625 H 0.40035 0.47028 0.34805 0.0
H626 H 0.31994 0.40555 0.2995 0.0
H627 H 0.2958 0.44648 0.27836 0.0
H628 H 0.36489 0.16906 0.20381 0.0
H629 H 0.32585 0.20237 0.19698 0.0
H630 H 0.32881 0.21268 0.30061 0.0
H631 H 0.36775 0.18041 0.30739 0.0
Tb632 Tb 0.5977 0.56459 1.01388 0.0
Eu633 Eu 0.59796 0.59584 0.08338 0.0
C634 C 0.66385 0.60357 0.04973 0.0
C635 C 0.60071 0.52234 0.0758 0.0
C636 C 0.5719 0.51835 0.93458 0.0
C637 C 0.56158 0.48264 0.88689 0.0
C638 C 0.58264 0.49909 0.91276 0.0
C639 C 0.53951 0.51923 0.93159 0.0
C640 C 0.51851 0.50278 0.90594 0.0
C641 C 0.5295 0.48522 0.88264 0.0
C642 C 0.59484 0.54037 0.95731 0.0
O643 O 0.54624 0.55509 0.01832 0.0
O644 O 0.54673 0.56943 0.07166 0.0
O645 O 0.58785 0.63412 0.05096 0.0
O646 O 0.60232 0.61454 1.00501 0.0
C647 C 0.53126 0.5558 0.04391 0.0
O648 O 0.57487 0.6107 0.12341 0.0
O649 O 0.62577 0.61939 0.12743 0.0
O650 O 0.64782 0.61358 0.07141 0.0
O651 O 0.6495 0.58119 0.02802 0.0
O652 O 0.59393 0.52392 0.044 0.0
O653 O 0.60755 0.54808 0.09462 0.0
C654 C 0.59536 0.63807 0.02162 0.0
O655 O 0.58595 0.56589 0.96411 0.0
O656 O 0.60875 0.53036 0.98293 0.0
C657 C 0.60487 0.60925 0.17472 0.0
C658 C 0.62684 0.59061 0.2351 0.0
C659 C 0.62402 0.62098 0.23193 0.0
C660 C 0.61317 0.63025 0.20187 0.0
C661 C 0.60539 0.5785 0.17831 0.0
C662 C 0.61639 0.56926 0.20834 0.0
C663 C 0.60154 0.62026 0.14241 0.0
H664 H 0.57068 0.46947 0.86906 0.0
H665 H 0.60758 0.4982 0.91455 0.0
H666 H 0.53074 0.53436 0.9477 0.0
H667 H 0.49418 0.50601 0.90282 0.0
H668 H 0.63237 0.63795 0.25211 0.0
H669 H 0.61326 0.65411 0.19941 0.0
H670 H 0.59916 0.56201 0.15754 0.0
H671 H 0.61826 0.54574 0.21037 0.0
Tb672 Tb 0.83244 0.29404 0.29354 0.0
Eu673 Eu 0.86155 0.36159 0.2801 0.0
C674 C 0.8428 0.34626 0.35052 0.0
C675 C 0.78619 0.3345 0.26096 0.0
C676 C 0.80884 0.21103 0.28472 0.0
C677 C 0.81528 0.15896 0.28853 0.0
C678 C 0.80824 0.18547 0.30234 0.0
C679 C 0.81435 0.20927 0.25244 0.0
C680 C 0.82127 0.18279 0.23863 0.0
C681 C 0.82308 0.15794 0.25704 0.0
C682 C 0.80754 0.24022 0.30117 0.0
O683 O 0.8378 0.28962 0.24224 0.0
O684 O 0.87132 0.33398 0.2371 0.0
O685 O 0.90242 0.34679 0.31191 0.0
O686 O 0.88488 0.29561 0.3035 0.0
C687 C 0.85604 0.30691 0.22529 0.0
O688 O 0.85316 0.40629 0.26875 0.0
O689 O 0.90099 0.39765 0.27469 0.0
O690 O 0.84654 0.36693 0.32972 0.0
O691 O 0.8389 0.31733 0.34141 0.0
O692 O 0.79081 0.31671 0.28446 0.0
O693 O 0.81134 0.3503 0.25125 0.0
C694 C 0.90782 0.31907 0.3148 0.0
O695 O 0.83419 0.25442 0.31742 0.0
O696 O 0.7934 0.2583 0.28389 0.0
C697 C 0.89204 0.44428 0.29674 0.0
C698 C 0.88913 0.48958 0.34461 0.0
C699 C 0.88477 0.49502 0.31169 0.0
C700 C 0.88617 0.47248 0.28792 0.0
C701 C 0.89956 0.43981 0.3296 0.0
C702 C 0.89839 0.46246 0.35342 0.0
C703 C 0.88317 0.41817 0.27269 0.0
H704 H 0.81639 0.13987 0.30299 0.0
H705 H 0.80402 0.18654 0.32727 0.0
H706 H 0.81497 0.22881 0.23846 0.0
H707 H 0.82744 0.1825 0.21439 0.0
H708 H 0.87744 0.51565 0.30412 0.0
H709 H 0.88 0.47617 0.26271 0.0
H710 H 0.90391 0.41801 0.33689 0.0
H711 H 0.90246 0.45792 0.37861 0.0
Tb712 Tb 0.11122 0.56769 0.5787 0.0
Eu713 Eu 0.08429 0.58799 0.50964 0.0
C714 C 0.10287 0.51882 0.51457 0.0
C715 C 0.15652 0.60546 0.53776 0.0
C716 C 0.15203 0.57276 0.66206 0.0
C717 C 0.16921 0.57425 0.71961 0.0
C718 C 0.16298 0.55853 0.689 0.0
C719 C 0.15091 0.60372 0.66529 0.0
C720 C 0.15648 0.61926 0.69588 0.0
C721 C 0.16371 0.60408 0.72356 0.0
C722 C 0.13642 0.55444 0.63242 0.0
O723 O 0.09804 0.61268 0.5933 0.0
O724 O 0.08746 0.63125 0.54397 0.0
O725 O 1.04106 0.57193 0.53275 0.0
O726 O 0.0628 0.54344 0.57011 0.0
C727 C 0.092 0.63563 0.57598 0.0
O728 O 0.08526 0.62229 0.47493 0.0
O729 O 0.05162 0.58015 0.46438 0.0
O730 O 0.08934 0.53811 0.49713 0.0
O731 O 0.11509 0.52744 0.54535 0.0
O732 O 0.147 0.60293 0.56589 0.0
O733 O 0.13722 0.59503 0.51122 0.0
C734 C 1.03821 0.55098 0.55321 0.0
O735 O 0.1064 0.55526 0.62534 0.0
O736 O 0.15104 0.55733 0.60719 0.0
C737 C 0.07346 0.60237 0.42112 0.0
C738 C 0.0941 0.59896 0.36051 0.0
C739 C 0.07418 0.61926 0.36721 0.0
C740 C 0.06392 0.62094 0.39742 0.0
C741 C 0.09331 0.5821 0.41451 0.0
C742 C 0.10348 0.58036 0.3844 0.0
C743 C 0.0642 0.60526 0.4533 0.0
H744 H 0.17517 0.56212 0.74049 0.0
H745 H 0.16423 0.53467 0.68679 0.0
H746 H 0.1428 0.6151 0.64458 0.0
H747 H 0.15161 0.64203 0.6979 0.0
H748 H 0.06699 0.6341 0.34933 0.0
H749 H 1.04888 0.63695 0.40242 0.0
H750 H 0.1011 0.5678 0.43272 0.0
H751 H 0.1186 0.56434 0.37973 0.0
Tb752 Tb 0.8115 0.83931 0.278 0.0
Eu753 Eu 0.883 0.83396 0.3046 0.0
C754 C 0.86771 0.88218 0.25489 0.0
C755 C 0.8507 0.80587 0.2304 0.0
C756 C 0.72713 0.83547 0.27816 0.0
C757 C 0.67051 0.82145 0.27752 0.0
C758 C 0.69633 0.83049 0.26129 0.0
C759 C 0.73194 0.83138 0.31127 0.0
C760 C 0.70629 0.82271 0.3275 0.0
C761 C 0.67543 0.8175 0.31073 0.0
C762 C 0.75447 0.84321 0.26124 0.0
O763 O 0.80857 0.79367 0.29262 0.0
O764 O 0.85307 0.79999 0.32979 0.0
O765 O 0.86945 0.86825 0.34065 0.0
O766 O 0.81633 0.85159 0.33137 0.0
C767 C 0.82549 0.78436 0.31693 0.0
O768 O 0.92112 0.80847 0.31444 0.0
O769 O 0.92881 0.85638 0.33 0.0
O770 O 0.88698 0.86414 0.26431 0.0
O771 O 0.84003 0.88018 0.26467 0.0
O772 O 0.8277 0.82134 0.23356 0.0
O773 O 0.87225 0.80468 0.25571 0.0
C774 C 0.84161 0.86697 0.35041 0.0
O775 O 0.77612 0.86578 0.27502 0.0
O776 O 0.76677 0.82026 0.25237 0.0
C777 C 0.97027 0.83857 0.31058 0.0
C778 C 1.02488 0.85759 0.2827 0.0
C779 C 1.02733 0.84997 0.31493 0.0
C780 C 1.0001 0.84068 0.32886 0.0
C781 C 0.96774 0.84513 0.27811 0.0
C782 C 0.99486 0.85461 0.26427 0.0
C783 C 0.94182 0.8327 0.32596 0.0
H784 H 0.64679 0.81767 0.26425 0.0
H785 H 0.6923 0.83328 0.23563 0.0
H786 H 0.75556 0.83452 0.32452 0.0
H787 H 0.71057 0.81952 0.35306 0.0
H788 H 0.05025 0.85145 0.32939 0.0
H789 H 1.00231 0.8358 0.35401 0.0
H790 H 0.94476 0.84376 0.26378 0.0
H791 H 0.99234 0.86041 0.23942 0.0
Tb792 Tb 0.88125 0.3366 0.7987 0.0
Eu793 Eu 0.8143 0.29214 0.76023 0.0
C794 C 0.82057 0.36503 0.77672 0.0
C795 C 0.83243 0.29638 0.83846 0.0
C796 C 0.9491 0.39809 0.83739 0.0
C797 C 0.95557 0.4519 0.83004 0.0
C798 C 0.93977 0.42203 0.8209 0.0
C799 C 0.97408 0.40429 0.86302 0.0
C800 C 0.98973 0.43402 0.87228 0.0
C801 C 0.98079 0.45828 0.8559 0.0
C802 C 0.93211 0.36666 0.83006 0.0
O803 O 0.89104 0.29385 0.77908 0.0
O804 O 0.84509 0.26189 0.78276 0.0
O805 O 0.84503 0.30999 0.72306 0.0
O806 O 0.87692 0.35246 0.75061 0.0
C807 C 0.87586 0.26724 0.78482 0.0
O808 O 0.79507 0.25946 0.719 0.0
O809 O 0.76325 0.27469 0.74965 0.0
O810 O 0.80494 0.33954 0.76103 0.0
O811 O 0.84831 0.36787 0.79478 0.0
O812 O 0.86113 0.31025 0.83561 0.0
O813 O 0.80954 0.29012 0.81353 0.0
C814 C 0.86366 0.33653 0.72342 0.0
O815 O 0.90568 0.36015 0.84183 0.0
O816 O 0.92977 0.35443 0.8006 0.0
C817 C 0.74584 0.22639 0.71844 0.0
C818 C 0.70587 0.16914 0.70291 0.0
C819 C 0.72786 0.18009 0.68271 0.0
C820 C 0.74741 0.2085 0.69024 0.0
C821 C 0.72376 0.21554 0.73866 0.0
C822 C 0.70401 0.18714 0.73098 0.0
C823 C 0.76593 0.25694 0.72467 0.0
H824 H 0.94822 0.46997 0.81667 0.0
H825 H 0.92025 0.41765 0.8012 0.0
H826 H 0.98117 0.386 0.87613 0.0
H827 H 1.00855 0.43794 0.89259 0.0
H828 H 0.7297 0.16678 0.66088 0.0
H829 H 0.76371 0.21659 0.67381 0.0
H830 H 0.72172 0.22892 0.76036 0.0
H831 H 0.68763 0.17901 0.7473 0.0
Tb832 Tb 0.86095 0.85694 0.81109 0.0
Eu833 Eu 0.83184 0.79436 0.77085 0.0
C834 C 0.86078 0.79539 0.84878 0.0
C835 C 0.90828 0.82568 0.7716 0.0
C836 C 0.85517 0.93162 0.8421 0.0
C837 C 0.80939 0.94465 0.86354 0.0
C838 C 0.83637 0.93145 0.86702 0.0
C839 C 0.84868 0.94855 0.81564 0.0
C840 C 0.82161 0.96143 0.81204 0.0
C841 C 0.8007 0.95804 0.83502 0.0
C842 C 0.87637 0.90932 0.84012 0.0
O843 O 0.849 0.87055 0.76048 0.0
O844 O 0.81682 0.82783 0.73529 0.0
O845 O 0.78862 0.80387 0.79387 0.0
O846 O 0.81039 0.85007 0.82074 0.0
C847 C 0.83048 0.85632 0.73426 0.0
O848 O 0.82523 0.76585 0.72549 0.0
O849 O 0.80717 0.74725 0.7669 0.0
O850 O 0.84931 0.7796 0.8208 0.0
O851 O 0.86848 0.82534 0.84966 0.0
O852 O 0.90524 0.84546 0.79535 0.0
O853 O 0.88333 0.80492 0.7591 0.0
C854 C 0.7862 0.82691 0.81399 0.0
O855 O 0.86917 0.88488 0.8547 0.0
O856 O 0.88292 0.9026 0.8115 0.0
C857 C 0.834 0.71693 0.73635 0.0
C858 C 0.88308 0.6832 0.74062 0.0
C859 C 0.87627 0.69856 0.71303 0.0
C860 C 0.85184 0.71517 0.71084 0.0
C861 C 0.8388 0.69904 0.76236 0.0
C862 C 0.86322 0.68253 0.76457 0.0
C863 C 0.81511 0.74116 0.73866 0.0
H864 H 0.7943 0.94269 0.88222 0.0
H865 H 0.84105 0.91908 0.88803 0.0
H866 H 0.86291 0.94961 0.79622 0.0
H867 H 0.81577 0.97185 0.78989 0.0
H868 H 0.89108 0.69925 0.69411 0.0
H869 H 0.8485 0.72843 0.69029 0.0
H870 H 0.82536 0.69962 0.78234 0.0
H871 H 0.8681 0.67132 0.78638 0.0
Tb872 Tb 0.58789 0.59136 0.54031 0.0
Eu873 Eu 0.65206 0.61393 0.59541 0.0
C874 C 0.65582 0.6059 0.5215 0.0
C875 C 0.62683 0.54442 0.56667 0.0
C876 C 0.51049 0.5984 0.50223 0.0
C877 C 0.46583 0.61848 0.47667 0.0
C878 C 0.48878 0.60031 0.4748 0.0
C879 C 0.50864 0.61424 0.53149 0.0
C880 C 0.48621 0.63262 0.53328 0.0
C881 C 0.4649 0.63521 0.50585 0.0
C882 C 0.53798 0.58394 0.50009 0.0
O883 O 0.57345 0.58092 0.58679 0.0
O884 O 0.61091 0.61411 0.62272 0.0
O885 O 0.63998 0.65518 0.57208 0.0
O886 O 0.58818 0.63464 0.56572 0.0
C887 C 0.58356 0.59545 0.61552 0.0
O888 O 0.67805 0.61403 0.64384 0.0
O889 O 0.702 0.63526 0.6066 0.0
O890 O 0.66698 0.59766 0.54946 0.0
O891 O 0.62678 0.61065 0.5158 0.0
O892 O 0.61049 0.55188 0.54061 0.0
O893 O 0.63814 0.56343 0.59217 0.0
C894 C 0.61046 0.65782 0.56388 0.0
O895 O 0.56365 0.60299 0.49748 0.0
O896 O 0.54329 0.56507 0.52184 0.0
C897 C 0.72736 0.60126 0.6361 0.0
C898 C 0.76428 0.55704 0.6245 0.0
C899 C 0.73441 0.54866 0.63408 0.0
C900 C 0.71608 0.57046 0.63964 0.0
C901 C 0.75806 0.60988 0.62853 0.0
C902 C 0.77638 0.58796 0.6228 0.0
C903 C 0.70525 0.62289 0.634 0.0
H904 H 0.44965 0.6204 0.45517 0.0
H905 H 0.49025 0.58863 0.45185 0.0
H906 H 0.52563 0.61345 0.55261 0.0
H907 H 0.48595 0.64542 0.55593 0.0
H908 H 0.72449 0.52503 0.63561 0.0
H909 H 0.69237 0.56283 0.64498 0.0
H910 H 0.76721 0.63337 0.62537 0.0
H911 H 0.79963 0.59509 0.61609 0.0
Tb912 Tb 0.07489 0.55452 0.01918 0.0
Eu913 Eu 0.11849 0.60508 0.07227 0.0
C914 C 0.08975 0.54056 0.09209 0.0
C915 C 1.04405 0.61101 0.04919 0.0
C916 C 1.0291 0.48134 0.98009 0.0
C917 C 1.03921 0.43337 0.99849 0.0
C918 C 1.04717 0.46494 1.00022 0.0
C919 C 1.00279 0.46611 0.95871 0.0
C920 C 0.99484 0.4346 0.957 0.0
C921 C 1.01314 0.41805 0.97666 0.0
C922 C 1.03605 0.51439 0.9829 0.0
O923 O 0.09111 0.58992 0.98907 0.0
O924 O 0.11158 0.62937 0.02767 0.0
O925 O 0.15255 0.57314 0.05946 0.0
O926 O 0.12112 0.5383 0.02119 0.0
C927 C 0.1014 0.61882 0.99765 0.0
O928 O 0.16428 0.63488 0.08621 0.0
O929 O 0.12942 0.63103 0.1191 0.0
O930 O 0.09514 0.56951 0.101 0.0
O931 O 0.08548 0.53061 0.0616 0.0
O932 O 1.04106 0.58443 0.03228 0.0
O933 O 0.07193 0.62366 0.06578 0.0
C934 C 0.14899 0.54844 0.03949 0.0
O935 O 1.03025 0.52678 1.00982 0.0
O936 O 0.06314 0.52727 0.97519 0.0
C937 C 0.16394 0.67786 0.12038 0.0
C938 C 0.17846 0.74114 0.13271 0.0
C939 C 0.20064 0.72333 0.14358 0.0
C940 C 0.19343 0.69186 0.13731 0.0
C941 C 0.1417 0.69549 0.10954 0.0
C942 C 0.14884 0.72691 0.11584 0.0
C943 C 0.15696 0.64495 0.1135 0.0
H944 H 0.05386 0.42088 1.01346 0.0
H945 H 0.0674 0.47654 0.01711 0.0
H946 H 0.98847 0.47857 0.94331 0.0
H947 H 0.97474 0.42303 0.93994 0.0
H948 H 0.22359 0.73376 0.15667 0.0
H949 H 0.21091 0.67846 0.14555 0.0
H950 H 0.11883 0.68496 0.0963 0.0
H951 H 0.13102 0.74003 0.10791 0.0
C952 C 0.0758 0.18139 0.97225 0.0
C953 C 0.06865 0.20668 0.9889 0.0
C954 C 0.09252 0.16173 0.98841 0.0
C955 C 0.10233 0.16625 0.02198 0.0
H956 H 0.06836 0.17662 0.94644 0.0
H957 H 0.09687 0.14218 0.97455 0.0
S958 S 0.09066 0.22993 0.07648 0.0
N959 N 0.074 0.23642 0.04034 0.0
N960 N 0.10481 0.19849 0.07128 0.0
C961 C 0.09648 0.19211 0.03885 0.0
C962 C 0.07968 0.21253 0.02216 0.0
C963 C 0.31831 0.94184 0.25646 0.0
C964 C 0.29081 0.94619 0.26904 0.0
C965 C 0.33768 0.92313 0.27105 0.0
C966 C 0.33026 0.90887 0.29873 0.0
H967 H 0.3226 0.94936 0.23306 0.0
H968 H 0.35613 0.91688 0.25843 0.0
S969 S 0.26712 0.92083 0.3464 0.0
N970 N 0.26199 0.94107 0.31509 0.0
N971 N 0.29827 0.90539 0.342 0.0
C972 C 0.30613 0.91705 0.31433 0.0
C973 C 0.28651 0.93618 0.29968 0.0
C974 C 0.49738 0.8356 0.43582 0.0
C975 C 0.50346 0.81719 0.46116 0.0
C976 C 0.49935 0.86682 0.44186 0.0
C977 C 0.50759 0.88083 0.47344 0.0
H978 H 0.49225 0.82607 0.41092 0.0
H979 H 0.49598 0.88027 0.42146 0.0
S980 S 0.52098 0.84249 0.54871 0.0
N981 N 0.51452 0.81492 0.51945 0.0
N982 N 0.51816 0.87379 0.53068 0.0
C983 C 0.5116 0.86254 0.4992 0.0
C984 C 0.50943 0.83064 0.49309 0.0
C985 C 0.57191 0.42764 0.72576 0.0
C986 C 0.60378 0.42692 0.73678 0.0
C987 C 0.54799 0.41576 0.74331 0.0
C988 C 0.55506 0.40274 0.77251 0.0
H989 H 0.56516 0.43633 0.70278 0.0
H990 H 0.5237 0.41566 0.73322 0.0
S991 S 0.63507 0.4 0.81464 0.0
N992 N 0.64145 0.41537 0.7807 0.0
N993 N 0.59632 0.39328 0.81373 0.0
C994 C 0.58693 0.40362 0.78483 0.0
C995 C 0.61132 0.41566 0.76696 0.0
C996 C 0.10639 0.93282 0.57973 0.0
C997 C 0.09919 0.92419 0.61064 0.0
C998 C 0.10731 0.96283 0.56926 0.0
C999 C 0.10139 0.98755 0.58871 0.0
H1000 H 0.11144 0.9159 0.56273 0.0
H1001 H 0.11283 0.96657 0.54518 0.0
S1002 S 0.0813 0.97937 0.67226 0.0
N1003 N 0.08587 0.94482 0.66075 0.0
N1004 N 0.08772 1.0002 0.64171 0.0
C1005 C 0.09416 0.97953 0.61986 0.0
C1006 C 0.09304 0.94861 0.63053 0.0
C1007 C 0.50384 0.83568 0.85883 0.0
C1008 C 0.50843 0.81075 0.87684 0.0
C1009 C 0.47352 0.83821 0.84217 0.0
C1010 C 0.44585 0.81582 0.84207 0.0
H1011 H 0.52362 0.85401 0.85846 0.0
H1012 H 0.47177 0.85832 0.82956 0.0
S1013 S 0.44487 0.74478 0.88351 0.0
N1014 N 0.48208 0.76238 0.89191 0.0
N1015 N 0.42641 0.76703 0.86103 0.0
C1016 C 0.45045 0.79039 0.85917 0.0
C1017 C 0.48113 0.78794 0.8763 0.0
C1018 C 0.57256 0.21892 0.09682 0.0
C1019 C 0.59335 0.23134 0.12554 0.0
C1020 C 0.57265 0.18932 0.08121 0.0
C1021 C 0.59345 0.16968 0.093 0.0
H1022 H 0.55568 0.23199 0.08635 0.0
H1023 H 0.55593 0.18172 0.05949 0.0
S1024 S 0.65437 0.19109 0.16594 0.0
N1025 N 0.63667 0.2206 0.16367 0.0
N1026 N 0.63639 0.16687 0.13525 0.0
C1027 C 0.61451 0.18211 0.12129 0.0
C1028 C 0.61454 0.21202 0.13707 0.0
C1029 C 0.19805 0.29772 0.33545 0.0
C1030 C 0.19276 0.3187 0.36007 0.0
C1031 C 0.22619 0.30098 0.32062 0.0
C1032 C 0.25205 0.3255 0.32901 0.0
H1033 H 0.18006 0.27786 0.32734 0.0
H1034 H 0.22773 0.2834 0.30243 0.0
S1035 S 0.25201 0.38807 0.39162 0.0
N1036 N 0.21723 0.36598 0.39154 0.0
N1037 N 0.2695 0.37198 0.36434 0.0
C1038 C 0.24723 0.34708 0.35339 0.0
C1039 C 0.21814 0.3438 0.36852 0.0
C1040 C 1.0172 0.08761 0.13475 0.0
C1041 C 1.01001 0.0559 0.13587 0.0
C1042 C 1.04571 0.10163 0.12531 0.0
C1043 C 0.06759 0.08433 0.11646 0.0
H1044 H 1.00145 0.10181 0.1426 0.0
H1045 H 0.05079 0.12608 0.12518 0.0
S1046 S 0.05896 1.00072 0.11296 0.0
N1047 N 1.0262 1.0077 0.12521 0.0
N1048 N 0.07978 0.03417 0.10829 0.0
C1049 C 0.06019 0.05274 0.11651 0.0
C1050 C 1.03128 0.03846 0.12585 0.0
C1051 C 0.29753 0.78637 0.42583 0.0
C1052 C 0.32088 0.7835 0.45162 0.0
C1053 C 0.30549 0.79931 0.39761 0.0
C1054 C 0.33723 0.80954 0.39367 0.0
H1055 H 0.2728 0.77793 0.42711 0.0
H1056 H 0.28653 0.80016 0.37826 0.0
S1057 S 0.40755 0.80837 0.45455 0.0
N1058 N 0.37719 0.79321 0.47191 0.0
N1059 N 0.39223 0.81708 0.41885 0.0
C1060 C 0.36084 0.80771 0.41972 0.0
C1061 C 0.35267 0.79485 0.44867 0.0
C1062 C 0.57277 0.97457 0.64079 0.0
C1063 C 0.60251 0.96712 0.65032 0.0
C1064 C 0.56989 0.99901 0.62199 0.0
C1065 C 0.59673 1.01662 0.61255 0.0
H1066 H 0.55179 0.96174 0.64829 0.0
H1067 H 0.54667 1.0044 0.61519 0.0
S1068 S 0.67928 1.00345 0.62844 0.0
N1069 N 0.65864 0.97701 0.64687 0.0
N1070 N 0.65359 1.02319 0.61195 0.0
C1071 C 0.62643 1.00853 0.62113 0.0
C1072 C 0.62922 0.9836 0.63992 0.0
C1073 C 0.37048 0.39481 0.94576 0.0
C1074 C 0.34401 0.40605 0.95487 0.0
C1075 C 0.37105 0.38139 0.91429 0.0
C1076 C 0.34527 0.37813 0.88902 0.0
H1077 H 0.39153 0.39635 0.96328 0.0
H1078 H 0.39238 0.37349 0.90982 0.0
S1079 S 0.2694 0.40324 0.89859 0.0
N1080 N 0.29071 0.41249 0.9347 0.0
N1081 N 0.29177 0.38766 0.87606 0.0
C1082 C 0.31847 0.38928 0.89749 0.0
C1083 C 0.31784 0.40298 0.92994 0.0
C1084 C 1.03731 0.052 0.27706 0.0
C1085 C 1.01688 1.02399 0.26795 0.0
C1086 C 0.06018 0.05585 0.3046 0.0
C1087 C 0.06327 0.03195 0.32429 0.0
H1088 H 1.03496 0.07143 0.26344 0.0
H1089 H 0.0745 0.07815 0.31144 0.0
S1090 S 1.01742 0.95318 0.30916 0.0
N1091 N 1.00316 0.97114 0.27896 0.0
N1092 N 1.04528 0.97857 0.33138 0.0
C1093 C 1.04434 1.00325 0.31424 0.0
C1094 C 1.0213 0.99925 0.28594 0.0
C1095 C 0.33222 0.76574 0.65615 0.0
C1096 C 0.35837 0.77444 0.63989 0.0
C1097 C 0.3335 0.77405 0.68929 0.0
C1098 C 0.36083 0.79184 0.70763 0.0
H1099 H 0.31055 0.75219 0.64323 0.0
H1100 H 0.31255 0.76697 0.70041 0.0
S1101 S 0.43594 0.82052 0.67678 0.0
N1102 N 0.41265 0.80165 0.64496 0.0
N1103 N 0.41489 0.81756 0.70687 0.0
C1104 C 0.38721 0.80059 0.69171 0.0
C1105 C 0.38603 0.79183 0.65803 0.0
C1106 C 0.59927 0.06292 0.80538 0.0
C1107 C 0.59198 0.0337 0.78927 0.0
C1108 C 0.58148 0.07144 0.82858 0.0
C1109 C 0.55578 0.05104 0.83661 0.0
H1110 H 0.61952 0.07911 0.80087 0.0
H1111 H 0.58907 0.0936 0.84164 0.0
S1112 S 0.52429 0.97325 0.79876 0.0
N1113 N 0.55529 0.98525 0.78083 0.0
N1114 N 0.5219 1.00153 0.82472 0.0
C1115 C 0.547 1.02241 0.81942 0.0
C1116 C 0.56506 1.01369 0.79562 0.0
C1117 C 0.33605 0.41198 0.16633 0.0
C1118 C 0.31605 0.39732 0.13811 0.0
C1119 C 0.33915 0.39811 0.19651 0.0
C1120 C 0.32283 0.36843 0.20055 0.0
H1121 H 0.34897 0.43475 0.16543 0.0
H1122 H 0.3548 0.41087 0.21691 0.0
S1123 S 0.26806 0.31941 0.13441 0.0
N1124 N 0.27995 0.35061 0.11712 0.0
N1125 N 0.28608 0.32514 0.1721 0.0
C1126 C 0.30315 0.35356 0.17235 0.0
C1127 C 0.29971 0.36772 0.14196 0.0
C1128 C 0.32589 1.00354 0.12432 0.0
C1129 C 0.32928 0.99021 0.09401 0.0
C1130 C 0.30965 0.02775 0.12683 0.0
C1131 C 0.29632 0.03979 0.09912 0.0
H1132 H 0.33578 0.99517 0.14641 0.0
H1133 H 0.30713 0.03681 0.15068 0.0
S1134 S 0.30016 1.0144 1.01397 0.0
N1135 N 0.31857 0.99153 0.03562 0.0
N1136 N 0.28891 0.03745 0.04034 0.0
C1137 C 0.29985 1.02692 0.06863 0.0
C1138 C 0.31607 1.00205 0.06608 0.0
C1139 C 0.74746 0.65224 0.07925 0.0
C1140 C 0.76532 0.65034 0.05337 0.0
C1141 C 0.71555 0.63719 0.07767 0.0
C1142 C 0.69886 0.61856 0.05024 0.0
H1143 H 0.75817 0.6659 0.1014 0.0
H1144 H 0.70387 0.64024 0.0986 0.0
S1145 S 0.73341 0.60524 0.97498 0.0
N1146 N 0.7627 0.62794 0.9987 0.0
N1147 N 0.70344 0.59947 0.99585 0.0
C1148 C 0.71627 0.6162 0.024 0.0
C1149 C 0.74897 0.63201 0.02549 0.0
C1150 C 0.86862 0.56057 0.38131 0.0
C1151 C 0.84353 0.54887 0.39774 0.0
C1152 C 0.88592 0.54138 0.36702 0.0
C1153 C 0.87837 0.50981 0.36827 0.0
H1154 H 0.87357 0.5845 0.37767 0.0
H1155 H 0.90372 0.55108 0.35282 0.0
S1156 S 0.81682 0.46848 0.41149 0.0
N1157 N 0.8142 0.50444 0.41762 0.0
N1158 N 0.84589 0.46805 0.38986 0.0
C1159 C 0.85516 0.49816 0.38714 0.0
C1160 C 0.83789 0.51782 0.40211 0.0
C1161 C 0.97065 0.50712 0.5899 0.0
C1162 C 0.94863 0.49478 0.56261 0.0
C1163 C 0.9994 0.52578 0.58667 0.0
C1164 C 1.00663 0.53363 0.55613 0.0
H1165 H 0.96598 0.50171 0.61388 0.0
H1166 H 1.01615 0.53408 0.60824 0.0
S1167 S 0.95626 0.50843 0.47723 0.0
N1168 N 0.93569 0.49217 0.50408 0.0
N1169 N 0.98922 0.52816 0.49814 0.0
C1170 C 0.98442 0.52218 0.52872 0.0
C1171 C 0.95555 0.50248 0.53193 0.0
C1172 C 0.45499 0.16586 0.25657 0.0
C1173 C 0.46025 0.14787 0.28236 0.0
C1174 C 0.42472 0.17165 0.24632 0.0
C1175 C 0.39868 0.15933 0.26128 0.0
H1176 H 0.47465 0.17716 0.24566 0.0
H1177 H 0.4222 0.18757 0.22814 0.0
S1178 S 0.39903 0.10546 0.32502 0.0
N1179 N 0.43637 0.11418 0.31936 0.0
N1180 N 0.37933 0.1245 0.29951 0.0
C1181 C 0.40321 0.13903 0.28497 0.0
C1182 C 0.43405 0.13344 0.29568 0.0
C1183 C 0.48943 0.16647 0.57373 0.0
C1184 C 0.45981 0.1584 0.55308 0.0
C1185 C 0.51505 0.15052 0.57254 0.0
C1186 C 0.51352 0.12505 0.55045 0.0
H1187 H 0.49319 0.18577 0.59141 0.0
H1188 H 0.5366 0.15862 0.58923 0.0
S1189 S 0.442 0.09326 0.49035 0.0
N1190 N 0.43126 0.12213 0.5094 0.0
N1191 N 0.47853 0.0925 0.50702 0.0
C1192 C 0.48401 0.11645 0.52959 0.0
C1193 C 0.4577 0.13279 0.53092 0.0
C1194 C 0.77149 0.71023 0.32458 0.0
C1195 C 0.79046 0.69517 0.34543 0.0
C1196 C 0.78282 0.73933 0.31629 0.0
C1197 C 0.81368 0.75463 0.32848 0.0
H1198 H 0.74768 0.69939 0.31414 0.0
H1199 H 0.76729 0.74968 0.2998 0.0
S1200 S 0.87254 0.72574 0.38533 0.0
N1201 N 0.84131 0.69813 0.3792 0.0
N1202 N 0.86273 0.75295 0.36353 0.0
C1203 C 0.83268 0.74021 0.35011 0.0
C1204 C 0.8211 0.71046 0.35861 0.0
C1205 C 0.99625 0.54432 0.87201 0.0
C1206 C 1.02949 0.55212 0.87652 0.0
C1207 C 0.98075 0.51393 0.8665 0.0
C1208 C 0.99781 0.49009 0.86534 0.0
H1209 H 0.98199 0.56181 0.87093 0.0
H1210 H 0.95514 0.50914 0.86226 0.0
S1211 S 0.08534 0.49829 0.8799 0.0
N1212 N 0.07896 0.53335 0.8832 0.0
N1213 N 0.05001 0.47649 0.87177 0.0
C1214 C 1.03107 0.49753 0.87192 0.0
C1215 C 1.04682 0.52845 0.87778 0.0
C1216 C 0.16185 0.98936 0.14893 0.0
C1217 C 0.18328 0.97343 0.13629 0.0
C1218 C 0.14634 1.00844 0.13043 0.0
C1219 C 0.15089 1.01187 0.09829 0.0
H1220 H 0.15757 0.98791 0.17375 0.0
H1221 H 0.13177 1.02172 0.14199 0.0
S1222 S 0.20415 0.97571 0.05318 0.0
N1223 N 0.20818 0.96245 0.0892 0.0
N1224 N 0.17823 0.99848 0.05421 0.0
C1225 C 0.17156 0.99578 0.08482 0.0
C1226 C 0.18792 0.97648 0.10388 0.0
C1227 C 0.90227 0.22271 0.85295 0.0
C1228 C 0.93433 0.22376 0.85008 0.0
C1229 C 0.88227 0.23397 0.82952 0.0
C1230 C 0.89387 0.24717 0.80279 0.0
H1231 H 0.89307 0.21512 0.8745 0.0
H1232 H 0.85842 0.23479 0.834 0.0
S1233 S 0.9739 0.24988 0.78049 0.0
N1234 N 0.97516 0.23427 0.81525 0.0
N1235 N 0.93762 0.25649 0.77204 0.0
C1236 C 0.92484 0.24562 0.79793 0.0
C1237 C 0.94507 0.23355 0.82136 0.0
C1238 C 0.64137 0.32297 0.63404 0.0
C1239 C 0.66826 0.34206 0.65143 0.0
C1240 C 0.64049 0.29188 0.62812 0.0
C1241 C 0.66643 0.27859 0.63939 0.0
H1242 H 0.62058 0.33197 0.62518 0.0
H1243 H 0.61924 0.27812 0.6146 0.0
S1244 S 0.74282 0.31852 0.68572 0.0
N1245 N 0.72193 0.34543 0.67923 0.0
N1246 N 0.71994 0.28685 0.66855 0.0
C1247 C 0.69373 0.29742 0.6563 0.0
C1248 C 0.69472 0.32917 0.66222 0.0
C1249 C 0.62132 0.81592 0.37433 0.0
C1250 C 0.60001 0.78831 0.36584 0.0
C1251 C 0.64535 0.82539 0.35601 0.0
C1252 C 0.64866 0.80781 0.32831 0.0
H1253 H 0.6198 0.8302 0.39558 0.0
H1254 H 0.66156 0.84658 0.36363 0.0
S1255 S 0.59908 0.73403 0.29525 0.0
N1256 N 0.58374 0.74362 0.3275 0.0
N1257 N 0.62902 0.76175 0.29301 0.0
C1258 C 0.6274 0.78043 0.31918 0.0
C1259 C 0.60306 0.77056 0.33801 0.0
C1260 C 0.09932 0.20321 0.45994 0.0
C1261 C 0.09355 0.22881 0.47849 0.0
C1262 C 0.09862 0.17348 0.47217 0.0
C1263 C 0.09229 0.16687 0.50399 0.0
H1264 H 0.10349 0.20578 0.43526 0.0
H1265 H 0.10307 0.15538 0.45624 0.0
S1266 S 0.07654 0.22547 0.56343 0.0
N1267 N 0.08177 0.24423 0.53127 0.0
N1268 N 0.08091 0.19059 0.55354 0.0
C1269 C 0.08708 0.19251 0.52269 0.0
C1270 C 0.08751 0.22239 0.51026 0.0
C1271 C 0.71852 0.35546 0.20049 0.0
C1272 C 0.6897 0.34017 0.20915 0.0
C1273 C 0.74873 0.35387 0.21751 0.0
C1274 C 0.75267 0.33658 0.24444 0.0
H1275 H 0.71791 0.3689 0.17986 0.0
H1276 H 0.76938 0.36614 0.20893 0.0
S1277 S 0.68549 0.29173 0.27804 0.0
N1278 N 0.66774 0.30702 0.24746 0.0
N1279 N 0.72389 0.3037 0.27902 0.0
C1280 C 0.72407 0.32128 0.25374 0.0
C1281 C 0.69305 0.32315 0.23641 0.0
C1282 C 0.58978 0.94852 0.95155 0.0
C1283 C 0.60553 0.92631 0.96629 0.0
C1284 C 0.58993 0.97799 0.96673 0.0
C1285 C 0.60602 0.98835 0.9982 0.0
H1286 H 0.57676 0.94317 0.9274 0.0
H1287 H 0.5771 0.99292 0.95326 0.0
S1288 S 0.65148 0.94049 0.0491 0.0
N1289 N 0.63797 0.91813 1.0156 0.0
N1290 N 0.63848 0.97251 0.04377 0.0
C1291 C 0.62199 0.96652 1.01352 0.0
C1292 C 0.6217 0.93619 0.99792 0.0
C1293 C 0.99532 0.85495 0.75468 0.0
C1294 C 1.00111 0.83498 0.72932 0.0
C1295 C 0.96638 0.85139 0.76822 0.0
C1296 C 0.94033 0.82755 0.75761 0.0
H1297 H 1.01353 0.87418 0.7644 0.0
H1298 H 0.96437 0.86809 0.78714 0.0
S1299 S 0.94145 0.76794 0.69201 0.0
N1300 N 0.97682 0.78958 0.69461 0.0
N1301 N 0.92323 0.78293 0.71936 0.0
C1302 C 0.94568 0.80705 0.73242 0.0
C1303 C 0.97546 0.81066 0.71864 0.0
C1304 C 0.22356 0.07665 0.97356 0.0
C1305 C 0.23818 0.10743 0.97646 0.0
C1306 C 0.196 0.06707 0.98707 0.0
C1307 C 0.18233 0.08804 1.00377 0.0
H1308 H 0.23311 0.05996 0.96015 0.0
H1309 H 0.18529 0.04325 0.98435 0.0
S1310 S 0.20955 0.17127 1.01568 0.0
N1311 N 0.23611 0.15883 0.99632 0.0
N1312 N 0.1839 0.14082 0.02084 0.0
C1313 C 0.19662 0.11875 1.00687 0.0
C1314 C 0.22477 0.12848 0.99348 0.0
C1315 C 0.90128 0.3863 0.66306 0.0
C1316 C 0.87926 0.37956 0.63446 0.0
C1317 C 0.89636 0.37181 0.69127 0.0
C1318 C 0.86936 0.34958 0.69224 0.0
H1319 H 0.9223 0.40354 0.66407 0.0
H1320 H 0.91379 0.37844 0.71267 0.0
S1321 S 0.80456 0.32276 0.62399 0.0
N1322 N 0.82943 0.34849 0.60894 0.0
N1323 N 0.8204 0.32108 0.66178 0.0
C1324 C 0.84747 0.34194 0.66365 0.0
C1325 C 0.85234 0.35695 0.63489 0.0
C1326 C 0.61489 0.17363 0.43381 0.0
C1327 C 0.584 0.17619 0.42079 0.0
C1328 C 0.62005 0.15397 0.45794 0.0
C1329 C 0.5944 0.13634 0.46928 0.0
H1330 H 0.63506 0.1867 0.42511 0.0
H1331 H 0.64407 0.15238 0.4676 0.0
S1332 S 0.50943 0.13831 0.4462 0.0
N1333 N 0.52784 0.1623 0.42343 0.0
N1334 N 0.53741 0.12446 0.46789 0.0
C1335 C 0.56353 0.13938 0.45704 0.0
C1336 C 0.55835 0.15966 0.43298 0.0
C1337 C 0.82849 0.77553 0.13948 0.0
C1338 C 0.85274 0.75993 0.13202 0.0
C1339 C 0.82828 0.78994 0.1706 0.0
C1340 C 0.85228 0.78995 0.197 0.0
H1341 H 0.80892 0.77667 0.12094 0.0
H1342 H 0.8087 0.80117 0.17389 0.0
S1343 S 0.92225 0.75325 0.19167 0.0
N1344 N 0.90213 0.74611 0.15482 0.0
N1345 N 0.90189 0.7729 0.21271 0.0
C1346 C 0.87697 0.77464 0.19005 0.0
C1347 C 0.87717 0.75986 0.15806 0.0
C1348 C 0.2154 0.12948 0.79949 0.0
C1349 C 0.20268 0.13168 0.8286 0.0
C1350 C 0.19649 0.12789 0.76956 0.0
C1351 C 0.16412 0.12863 0.76741 0.0
H1352 H 0.24012 0.12828 0.79962 0.0
H1353 H 0.20732 0.12593 0.74785 0.0
S1354 S 0.11927 0.13584 0.83601 0.0
N1355 N 0.15575 0.13582 0.8533 0.0
N1356 N 0.12008 0.13272 0.79665 0.0
C1357 C 0.15111 0.13174 0.79616 0.0
C1358 C 0.17041 0.13323 0.82683 0.0
C1359 C 0.8453 0.39389 0.4302 0.0
C1360 C 0.85429 0.3748 0.45389 0.0
C1361 C 0.84125 0.38459 0.39687 0.0
C1362 C 0.8454 0.35553 0.38589 0.0
H1363 H 0.84239 0.41656 0.43747 0.0
H1364 H 0.83504 0.40036 0.37963 0.0
S1365 S 0.86819 0.29653 0.43828 0.0
N1366 N 0.8667 0.32532 0.46394 0.0
N1367 N 0.85878 0.30762 0.40198 0.0
C1368 C 0.85374 0.33602 0.40951 0.0
C1369 C 0.85828 0.34568 0.44326 0.0
C1370 C 0.64523 0.13505 0.29749 0.0
C1371 C 0.61439 0.12114 0.30114 0.0
C1372 C 0.66018 0.12474 0.27247 0.0
C1373 C 0.64495 0.09991 0.25072 0.0
H1374 H 0.65738 0.15482 0.31313 0.0
H1375 H 0.68338 0.13684 0.26948 0.0
S1376 S 0.56515 0.05411 0.25155 0.0
N1377 N 0.57004 0.07992 0.28233 0.0
N1378 N 0.59797 0.06087 0.23522 0.0
C1379 C 0.61475 0.08491 0.25511 0.0
C1380 C 0.5995 0.09546 0.28036 0.0
C1381 C 0.8593 0.72934 0.90583 0.0
C1382 C 0.86431 0.74284 0.93815 0.0
C1383 C 0.85891 0.74628 0.87808 0.0
C1384 C 0.86374 0.77834 0.88006 0.0
H1385 H 0.85527 0.70491 0.90155 0.0
H1386 H 0.85449 0.73376 0.85454 0.0
S1387 S 0.87805 0.82625 0.95826 0.0
N1388 N 0.87435 0.79141 0.96977 0.0
N1389 N 0.87379 0.82298 0.91831 0.0
C1390 C 0.86909 0.79244 0.91219 0.0
C1391 C 0.86932 0.77498 0.94073 0.0
C1392 C 0.93805 0.18501 1.00545 0.0
C1393 C 0.90805 0.1786 1.01552 0.0
C1394 C 0.95771 0.16333 1.00572 0.0
C1395 C 0.94797 0.13417 1.01556 0.0
H1396 H 0.94661 0.20706 0.99751 0.0
H1397 H 0.98067 0.16936 0.99795 0.0
S1398 S 0.87191 0.10562 0.04425 0.0
N1399 N 0.86974 0.14065 0.03578 0.0
N1400 N 0.90667 0.10005 0.03595 0.0
C1401 C 0.91806 0.12733 0.0255 0.0
C1402 C 0.89815 0.14948 0.02561 0.0
C1403 C 0.44443 0.53038 0.0635 0.0
C1404 C 0.42872 0.51029 0.03657 0.0
C1405 C 0.47701 0.5449 0.06579 0.0
C1406 C 0.49605 0.54023 0.0414 0.0
H1407 H 0.43131 0.5355 0.08271 0.0
H1408 H 0.48728 0.56023 0.0869 0.0
S1409 S 0.46798 0.48666 0.96792 0.0
N1410 N 0.43647 0.48492 0.98627 0.0
N1411 N 0.49618 0.51116 0.99081 0.0
C1412 C 0.48075 0.51935 1.01507 0.0
C1413 C 0.4478 0.50482 1.01265 0.0
C1414 C 0.4126 0.60803 0.80119 0.0
C1415 C 0.39934 0.58916 0.77294 0.0
C1416 C 0.39764 0.63091 0.8123 0.0
C1417 C 0.3687 0.63546 0.79584 0.0
H1418 H 0.4352 0.60582 0.81433 0.0
H1419 H 0.40911 0.64558 0.83356 0.0
S1420 S 0.32302 0.5913 0.72187 0.0
N1421 N 0.35463 0.57574 0.72963 0.0
N1422 N 0.3267 0.61888 0.75068 0.0
C1423 C 0.35453 0.61612 0.76833 0.0
C1424 C 0.36982 0.59294 0.75683 0.0
C1425 C 0.22311 0.6645 0.51646 0.0
C1426 C 0.24772 0.66423 0.54205 0.0
C1427 C 0.19408 0.64414 0.51384 0.0
C1428 C 0.18853 0.62315 0.537 0.0
H1429 H 0.22614 0.68079 0.49854 0.0
H1430 H 0.17543 0.64575 0.49443 0.0
S1431 S 0.24544 0.61184 0.60756 0.0
N1432 N 0.26472 0.63986 0.59008 0.0
N1433 N 0.21036 0.60219 0.58526 0.0
C1434 C 0.21318 0.62205 0.56206 0.0
C1435 C 0.24271 0.64242 0.56457 0.0
C1436 C 0.73435 0.99508 0.79739 0.0
C1437 C 0.70731 0.97297 0.79847 0.0
C1438 C 0.76433 0.99119 0.81149 0.0
C1439 C 0.76843 0.9648 0.82675 0.0
H1440 H 0.73247 1.01516 0.78472 0.0
H1441 H 0.78463 1.00837 0.80923 0.0
S1442 S 0.70471 0.9005 0.83647 0.0
N1443 N 0.68608 0.92461 0.81722 0.0
N1444 N 0.74248 0.9165 0.84258 0.0
C1445 C 0.74129 0.94312 0.82914 0.0
C1446 C 0.7107 0.94739 0.81525 0.0
C1447 C 0.69816 0.98657 0.52464 0.0
C1448 C 0.73016 0.99831 0.53846 0.0
C1449 C 0.67305 1.00333 0.52496 0.0
C1450 C 0.67762 0.03347 0.53907 0.0
H1451 H 0.69204 0.96369 0.51322 0.0
H1452 H 0.64954 0.99223 0.51393 0.0
S1453 S 0.75613 0.07591 0.57983 0.0
N1454 N 0.76416 0.04293 0.56749 0.0
N1455 N 0.7179 0.07407 0.56819 0.0
C1456 C 0.70948 0.04566 0.55318 0.0
C1457 C 0.73521 0.02842 0.55286 0.0
C1458 C 0.36892 0.43809 0.69993 0.0
C1459 C 0.39985 0.44063 0.69203 0.0
C1460 C 0.35754 0.41664 0.72052 0.0
C1461 C 0.3768 0.39728 0.73392 0.0
H1462 H 0.35422 0.45416 0.69206 0.0
H1463 H 0.33432 0.41639 0.72743 0.0
S1464 S 0.45538 0.38853 0.71378 0.0
N1465 N 0.4466 0.4173 0.69394 0.0
N1466 N 0.42516 0.37739 0.73305 0.0
C1467 C 0.40619 0.39725 0.72355 0.0
C1468 C 0.41765 0.41872 0.70226 0.0
C1469 C 0.16803 0.61616 0.1845 0.0
C1470 C 0.18666 0.59458 0.17838 0.0
C1471 C 0.18152 0.64439 0.20094 0.0
C1472 C 0.21429 0.65221 0.21141 0.0
H1473 H 0.14292 0.61148 0.17573 0.0
H1474 H 0.16634 0.66071 0.20413 0.0
S1475 S 0.27312 0.60281 0.20216 0.0
N1476 N 0.23915 0.58225 0.18442 0.0
N1477 N 0.26478 0.63518 0.21597 0.0
C1478 C 0.23305 0.63032 0.20627 0.0
C1479 C 0.21917 0.60152 0.18957 0.0
C1480 C 0.55912 0.69977 0.51081 0.0
C1481 C 0.58041 0.71558 0.4925 0.0
C1482 C 0.56972 0.68362 0.53622 0.0
C1483 C 0.60192 0.68189 0.54373 0.0
H1484 H 0.53396 0.69931 0.50502 0.0
H1485 H 0.55226 0.67112 0.54903 0.0
S1486 S 0.6676 0.72174 0.50484 0.0
N1487 N 0.63547 0.73098 0.48532 0.0
N1488 N 0.65537 0.69961 0.53251 0.0
C1489 C 0.62373 0.69915 0.5269 0.0
C1490 C 0.61294 0.71612 0.5013 0.0
C1491 C 0.76218 0.41608 0.75936 0.0
C1492 C 0.77486 0.43286 0.73514 0.0
C1493 C 0.77853 0.39577 0.77532 0.0
C1494 C 0.80852 0.39248 0.7685 0.0
H1495 H 0.73824 0.41636 0.76389 0.0
H1496 H 0.76679 0.38111 0.79143 0.0
S1497 S 0.8541 0.43437 0.71104 0.0
N1498 N 0.82039 0.44695 0.70756 0.0
N1499 N 0.85185 0.40983 0.7389 0.0
C1500 C 0.8228 0.41128 0.74687 0.0
C1501 C 0.80578 0.4313 0.72987 0.0
C1502 C 1.00689 0.34054 0.93511 0.0
C1503 C 0.99989 0.3209 0.95928 0.0
C1504 C 1.01074 0.37184 0.94113 0.0
C1505 C 1.00733 0.38483 0.97132 0.0
H1506 H 1.01028 0.33182 0.91142 0.0
H1507 H 1.01749 0.38614 0.92235 0.0
S1508 S 0.98764 0.34419 0.04247 0.0
N1509 N 0.98873 0.31702 1.01456 0.0
N1510 N 0.9957 0.3764 0.02553 0.0
C1511 C 0.99965 0.3658 0.9956 0.0
C1512 C 0.99578 0.33368 0.98957 0.0
C1513 C 0.08308 0.86721 0.22273 0.0
C1514 C 0.1074 0.89031 0.23841 0.0
C1515 C 0.05663 0.8566 0.23739 0.0
C1516 C 0.05344 0.86888 0.26815 0.0
H1517 H 0.08469 0.85684 0.19915 0.0
H1518 H 1.03865 0.83845 0.22466 0.0
S1519 S 0.10909 0.93175 0.31803 0.0
N1520 N 0.12595 0.92627 0.28563 0.0
N1521 N 0.07576 0.90668 0.31296 0.0
C1522 C 0.07728 0.89241 0.28385 0.0
C1523 C 0.10437 0.90307 0.26902 0.0
C1524 C 0.58213 0.43423 0.09221 0.0
C1525 C 0.59713 0.43266 0.12439 0.0
C1526 C 0.58379 0.46233 0.07641 0.0
C1527 C 0.60041 0.49113 0.09152 0.0
H1528 H 0.56812 0.41373 0.07925 0.0
H1529 H 0.57109 0.46147 0.05221 0.0
S1530 S 0.64709 0.50014 0.17403 0.0
N1531 N 0.6316 0.46367 0.16911 0.0
N1532 N 0.63422 0.51444 0.1405 0.0
C1533 C 0.61619 0.48947 0.12314 0.0
C1534 C 0.61468 0.46118 0.13903 0.0
C1535 C 0.99653 0.33603 0.35689 0.0
C1536 C 1.00274 0.3078 0.36675 0.0
C1537 C 0.96644 0.33935 0.3401 0.0
C1538 C 0.94057 0.31463 0.33158 0.0
H1539 H 1.01476 0.35606 0.36308 0.0
H1540 H 0.9634 0.36182 0.33402 0.0
S1541 S 0.94424 0.23524 0.34978 0.0
N1542 N 0.97972 0.25425 0.36514 0.0
N1543 N 0.92467 0.26044 0.33392 0.0
C1544 C 0.94684 0.2862 0.34054 0.0
C1545 C 0.97722 0.28287 0.35788 0.0
C1546 C 0.09683 0.70275 0.64314 0.0
C1547 C 0.09068 0.7287 0.62691 0.0
C1548 C 0.09691 0.67371 0.62701 0.0
C1549 C 0.09086 0.66763 0.59292 0.0
H1550 H 0.10187 0.70471 0.66928 0.0
H1551 H 0.10204 0.65572 0.64179 0.0
S1552 S 0.07324 0.72651 0.53723 0.0
N1553 N 0.07821 0.74505 0.57334 0.0
N1554 N 0.07838 0.69163 0.54335 0.0
C1555 C 0.08458 0.69327 0.57609 0.0
C1556 C 0.08447 0.72307 0.59272 0.0
C1557 C 0.69865 0.80351 0.83167 0.0
C1558 C 0.69625 0.82037 0.86088 0.0
C1559 C 0.72687 0.80615 0.81699 0.0
C1560 C 0.75539 0.82617 0.82992 0.0
H1561 H 0.67822 0.78749 0.8197 0.0
H1562 H 0.72619 0.79201 0.795 0.0
S1563 S 0.76416 0.87541 0.90671 0.0
N1564 N 0.7269 0.85774 0.90252 0.0
N1565 N 0.77901 0.86308 0.87519 0.0
C1566 C 0.7536 0.8434 0.85914 0.0
C1567 C 0.72468 0.84044 0.87438 0.0
C1568 C 0.54901 0.56087 0.6854 0.0
C1569 C 0.51829 0.56752 0.68086 0.0
C1570 C 0.57107 0.5717 0.66527 0.0
C1571 C 0.56307 0.58968 0.64034 0.0
H1572 H 0.5556 0.54609 0.70362 0.0
H1573 H 0.59388 0.56476 0.66818 0.0
S1574 S 0.4879 0.61746 0.62174 0.0
N1575 N 0.48237 0.59585 0.65179 0.0
N1576 N 0.52414 0.61647 0.61433 0.0
C1577 C 0.53328 0.59798 0.63681 0.0
C1578 C 0.51076 0.58684 0.65704 0.0
C1579 C 0.80065 0.24552 0.90144 0.0
C1580 C 0.82177 0.25606 0.93012 0.0
C1581 C 0.80326 0.25946 0.87239 0.0
C1582 C 0.82742 0.28438 0.87047 0.0
H1583 H 0.78205 0.22595 0.90125 0.0
H1584 H 0.78685 0.24987 0.85099 0.0
S1585 S 0.88837 0.32159 0.93885 0.0
N1586 N 0.8671 0.29374 0.95485 0.0
N1587 N 0.87232 0.31976 0.90059 0.0
C1588 C 0.84828 0.29564 0.89922 0.0
C1589 C 0.84537 0.2816 0.92889 0.0
C1590 C 0.09795 0.50854 0.1737 0.0
C1591 C 0.11522 0.48562 0.16849 0.0
C1592 C 0.08823 0.52545 0.1484 0.0
C1593 C 0.09483 0.51928 0.11697 0.0
H1594 H 0.09276 0.51394 0.19772 0.0
H1595 H 0.07629 0.54398 0.15364 0.0
S1596 S 0.13698 0.45921 0.09066 0.0
N1597 N 0.13682 0.45603 0.12975 0.0
N1598 N 0.11795 0.48705 0.08177 0.0
C1599 C 0.11028 0.49488 0.11114 0.0
C1600 C 0.12057 0.47811 0.13705 0.0
C1601 C 0.86456 0.92062 0.42996 0.0
C1602 C 0.83785 0.91633 0.44659 0.0
C1603 C 0.8654 0.90458 0.39986 0.0
C1604 C 0.83936 0.88327 0.38346 0.0
H1605 H 0.88547 0.9369 0.44034 0.0
H1606 H 0.88687 0.90946 0.38907 0.0
S1607 S 0.763 0.86259 0.41556 0.0
N1608 N 0.78435 0.88809 0.44362 0.0
N1609 N 0.78557 0.85859 0.38735 0.0
C1610 C 0.81237 0.87845 0.39978 0.0
C1611 C 0.81171 0.8946 0.43098 0.0
C1612 C 0.49972 0.48796 0.79493 0.0
C1613 C 0.4669 0.47803 0.7934 0.0
C1614 C 0.52049 0.48699 0.82316 0.0
C1615 C 0.50924 0.47609 0.85102 0.0
H1616 H 0.50939 0.49835 0.77482 0.0
H1617 H 0.54511 0.49733 0.82396 0.0
S1618 S 0.42682 0.44005 0.85714 0.0
N1619 N 0.42498 0.45141 0.82022 0.0
N1620 N 0.4643 0.44982 0.87359 0.0
C1621 C 0.4771 0.46282 0.8487 0.0
C1622 C 0.45584 0.46367 0.81978 0.0
C1623 C 0.83355 0.26362 0.14142 0.0
C1624 C 0.85852 0.27516 0.12461 0.0
C1625 C 0.83331 0.27359 0.17393 0.0
C1626 C 0.85772 0.29602 0.19107 0.0
H1627 H 0.81419 0.24629 0.12955 0.0
H1628 H 0.8135 0.26382 0.18557 0.0
S1629 S 0.92841 0.33413 0.15817 0.0
N1630 N 0.90838 0.31048 0.12781 0.0
N1631 N 0.90758 0.32957 0.18834 0.0
C1632 C 0.88267 0.308 0.17444 0.0
C1633 C 0.88317 0.2975 0.14148 0.0
C1634 C 0.14818 0.58992 0.29852 0.0
C1635 C 0.12707 0.58292 0.26945 0.0
C1636 C 0.13749 0.5967 0.32762 0.0
C1637 C 0.10529 0.59668 0.32877 0.0
H1638 H 0.17301 0.589 0.29906 0.0
H1639 H 0.1544 0.60096 0.34962 0.0
S1640 S 1.04072 0.58229 0.25912 0.0
N1641 N 0.07278 0.5786 0.24318 0.0
N1642 N 0.05263 0.59099 0.29819 0.0
C1643 C 0.08419 0.59156 0.29965 0.0
C1644 C 0.09511 0.58478 0.26988 0.0
C1645 C 0.84169 0.91357 0.66618 0.0
C1646 C 0.81771 0.90124 0.63991 0.0
C1647 C 0.84538 0.89966 0.69632 0.0
C1648 C 0.82566 0.87222 0.70224 0.0
H1649 H 0.85741 0.9346 0.66381 0.0
H1650 H 0.86417 0.91056 0.71518 0.0
S1651 S 0.75988 0.82952 0.64149 0.0
N1652 N 0.77433 0.85895 0.62272 0.0
N1653 N 0.78142 0.8334 0.67755 0.0
C1654 C 0.80203 0.85959 0.67593 0.0
C1655 C 0.79806 0.87381 0.64561 0.0
C1656 C 0.80047 0.48602 0.62471 0.0
C1657 C 0.81196 0.48507 0.5948 0.0
C1658 C 0.78544 0.50949 0.63428 0.0
C1659 C 0.78167 0.53323 0.61456 0.0
H1660 H 0.80297 0.46841 0.64093 0.0
H1661 H 0.77683 0.50912 0.65741 0.0
S1662 S 0.8064 0.54114 0.53352 0.0
N1663 N 0.81775 0.50982 0.54517 0.0
N1664 N 0.78966 0.55395 0.56333 0.0
C1665 C 0.79295 0.53262 0.5846 0.0
C1666 C 0.80795 0.50852 0.57464 0.0
C1667 C 0.25001 0.13969 0.58512 0.0
C1668 C 0.26536 0.14533 0.55749 0.0
C1669 C 0.21774 0.12526 0.58315 0.0
C1670 C 0.1982 0.11509 0.55336 0.0
H1671 H 0.26303 0.14676 0.60903 0.0
H1672 H 0.20802 0.12215 0.6055 0.0
S1673 S 0.22554 0.12383 0.47302 0.0
N1674 N 0.2573 0.13916 0.49889 0.0
N1675 N 0.19753 0.11218 0.495 0.0
C1676 C 0.21316 0.12041 0.52539 0.0
C1677 C 0.24617 0.13535 0.52745 0.0
C1678 C 0.33708 0.05109 0.84406 0.0
C1679 C 0.30738 0.05748 0.83211 0.0
C1680 C 0.35126 0.03155 0.82616 0.0
C1681 C 0.33633 1.018 0.79561 0.0
H1682 H 0.3489 0.06024 0.86794 0.0
H1683 H 0.37325 1.02576 0.83711 0.0
S1684 S 0.26097 0.03143 0.75127 0.0
N1685 N 0.26517 0.05155 0.78634 0.0
N1686 N 0.29222 1.01502 0.75254 0.0
C1687 C 0.30764 1.02576 0.7825 0.0
C1688 C 0.29305 0.04545 0.80081 0.0
C1689 C 0.46697 1.00685 0.06404 0.0
C1690 C 0.46897 0.98729 0.08893 0.0
C1691 C 0.49259 0.02935 0.06028 0.0
C1692 C 0.52164 0.0331 0.08095 0.0
H1693 H 0.4455 1.00455 0.04691 0.0
H1694 H 0.48987 0.04304 0.04 0.0
S1695 S 0.53851 0.98947 0.15174 0.0
N1696 N 0.50167 0.97452 0.13614 0.0
N1697 N 0.55019 1.01659 0.12866 0.0
C1698 C 0.52366 1.01448 0.10675 0.0
C1699 C 0.49728 0.99169 0.11087 0.0
C1700 C 0.97131 0.68638 0.75742 0.0
C1701 C 0.97358 0.66026 0.77381 0.0
C1702 C 0.94185 0.6925 0.74458 0.0
C1703 C 0.9136 0.67262 0.74737 0.0
H1704 H 0.99221 0.70322 0.75626 0.0
H1705 H 0.94117 0.71399 0.73438 0.0
S1706 S 0.90706 0.59821 0.78213 0.0
N1707 N 0.94536 0.61227 0.78807 0.0
N1708 N 0.89 0.62369 0.76339 0.0
C1709 C 0.91571 0.64518 0.76116 0.0
C1710 C 0.9457 0.63901 0.77447 0.0
C1711 C 0.99335 0.67306 0.06604 0.0
C1712 C 0.96193 0.66176 0.05023 0.0
C1713 C 1.0188 0.65678 0.06564 0.0
C1714 C 1.01526 0.62762 0.04931 0.0
H1715 H 0.99875 0.69522 0.07918 0.0
H1716 H 1.04179 0.66754 0.07835 0.0
S1717 S 0.93853 0.58646 1.00324 0.0
N1718 N 0.9295 0.61847 0.01725 0.0
N1719 N 0.97651 0.58824 0.0163 0.0
C1720 C 0.98399 0.61582 0.03323 0.0
C1721 C 0.95784 0.63254 0.03374 0.0
C1722 C 0.29102 0.23366 0.88495 0.0
C1723 C 0.3114 0.21382 0.89494 0.0
C1724 C 0.29989 0.25645 0.86491 0.0
C1725 C 0.32959 0.26051 0.85415 0.0
H1726 H 0.2673 0.23067 0.89117 0.0
H1727 H 0.2828 0.27038 0.85709 0.0
S1728 S 0.39383 0.21799 0.8781 0.0
N1729 N 0.36417 0.20215 0.896 0.0
N1730 N 0.38095 0.24514 0.85833 0.0
C1731 C 0.35113 0.24228 0.86587 0.0
C1732 C 0.34205 0.219 0.88635 0.0
C1733 C 0.55164 0.03625 0.39604 0.0
C1734 C 0.53323 0.05892 0.39177 0.0
C1735 C 0.53767 1.00541 0.39249 0.0
C1736 C 0.50471 0.99594 0.38434 0.0
H1737 H 0.57721 0.04223 0.40053 0.0
H1738 H 0.55294 0.98881 0.39491 0.0
S1739 S 0.44546 0.04632 0.37483 0.0
N1740 N 0.47984 0.06972 0.38299 0.0
N1741 N 0.4538 1.01194 0.37504 0.0
C1742 C 0.48584 1.01841 0.38248 0.0
C1743 C 0.50004 0.04984 0.38655 0.0
C1744 C 0.6311 0.47439 0.60633 0.0
C1745 C 0.66192 0.4705 0.60269 0.0
C1746 C 0.61708 0.49576 0.58973 0.0
C1747 C 0.63351 0.51394 0.56912 0.0
H1748 H 0.61861 0.46236 0.62385 0.0
H1749 H 0.59475 0.50034 0.59573 0.0
S1750 S 0.71259 0.50942 0.54756 0.0
N1751 N 0.70669 0.48359 0.57371 0.0
N1752 N 0.68041 0.52454 0.54296 0.0
C1753 C 0.66291 0.50815 0.56272 0.0
C1754 C 0.67716 0.48613 0.57943 0.0
C1755 C 0.44428 0.72991 0.33198 0.0
C1756 C 0.43617 0.7206 0.36187 0.0
C1757 C 0.42461 0.74475 0.31187 0.0
C1758 C 0.39576 0.75 0.32043 0.0
H1759 H 0.46725 0.72836 0.32535 0.0
H1760 H 0.43302 0.75397 0.2906 0.0
S1761 S 0.36055 0.72434 0.39257 0.0
N1762 N 0.39515 0.71348 0.39645 0.0
N1763 N 0.35776 0.74069 0.35827 0.0
C1764 C 0.38559 0.7375 0.34818 0.0
C1765 C 0.4059 0.72288 0.36898 0.0
C1766 C 0.2011 0.81793 0.18015 0.0
C1767 C 0.19296 0.83781 0.157 0.0
C1768 C 0.19742 0.78679 0.17184 0.0
C1769 C 0.18558 0.77442 0.14007 0.0
H1770 H 0.20914 0.82621 0.20521 0.0
H1771 H 0.20266 0.77217 0.19073 0.0
S1772 S 0.16579 0.81714 0.06938 0.0
N1773 N 0.17589 0.84322 0.1002 0.0
N1774 N 0.16941 0.78466 0.08458 0.0
C1775 C 0.17922 0.7942 0.11629 0.0
C1776 C 0.18284 0.8259 0.12475 0.0
C1777 C 0.12433 0.31237 0.88503 0.0
C1778 C 0.10509 0.28338 0.87905 0.0
C1779 C 0.14881 0.32125 0.86701 0.0
C1780 C 0.15475 0.30152 0.84233 0.0
H1781 H 0.12026 0.32854 0.90347 0.0
H1782 H 0.16289 0.34386 0.8721 0.0
S1783 S 0.11345 0.22236 0.81883 0.0
N1784 N 0.09513 0.2343 0.8478 0.0
N1785 N 0.14123 0.25125 0.81405 0.0
C1786 C 0.13631 0.2723 0.83652 0.0
C1787 C 0.11145 0.26315 0.85488 0.0
C1788 C 0.58671 0.72356 1.01292 0.0
C1789 C 0.59879 0.7327 0.98418 0.0
C1790 C 0.58582 0.69391 0.0242 0.0
C1791 C 0.5966 0.67013 1.00772 0.0
H1792 H 0.57758 0.73974 0.02743 0.0
H1793 H 0.57622 0.68964 0.04642 0.0
S1794 S 0.63107 0.68017 0.93103 0.0
N1795 N 0.62233 0.71379 0.93957 0.0
N1796 N 0.62046 0.65894 0.96011 0.0
C1797 C 0.60888 0.6787 0.97884 0.0
C1798 C 0.61003 0.70929 0.9674 0.0
C1799 C 0.22139 0.85892 0.7153 0.0
C1800 C 0.19237 0.84076 0.72012 0.0
C1801 C 0.25112 0.8571 0.73333 0.0
C1802 C 0.25443 0.83669 0.75751 0.0
H1803 H 0.22136 0.87487 0.6969 0.0
H1804 H 0.27196 0.87167 0.7276 0.0
S1805 S 0.18639 0.78394 0.78116 0.0
N1806 N 0.16948 0.80179 0.75226 0.0
N1807 N 0.22469 0.79799 0.78558 0.0
C1808 C 0.22557 0.81856 0.76309 0.0
C1809 C 0.19502 0.82068 0.74477 0.0
C1810 C 0.09122 0.44875 0.44974 0.0
C1811 C 0.10305 0.42472 0.46526 0.0
C1812 C 0.09155 0.47799 0.46552 0.0
C1813 C 0.10385 0.48639 0.49856 0.0
H1814 H 0.0812 0.4451 0.42443 0.0
H1815 H 0.08179 0.49434 0.45123 0.0
S1816 S 0.13823 0.43326 0.5522 0.0
N1817 N 0.1278 0.41267 0.51715 0.0
N1818 N 0.12853 0.46669 0.54646 0.0
C1819 C 0.11592 0.46275 0.51474 0.0
C1820 C 0.11551 0.4326 0.49846 0.0
C1821 C 0.4632 0.29278 0.21564 0.0
C1822 C 0.48929 0.31711 0.21601 0.0
C1823 C 0.43705 0.29433 0.23284 0.0
C1824 C 0.4343 0.32036 0.2523 0.0
H1825 H 0.46258 0.27175 0.20143 0.0
H1826 H 0.4184 0.27452 0.23043 0.0
S1827 S 0.49538 0.39132 0.26304 0.0
N1828 N 0.50988 0.36876 0.23878 0.0
N1829 N 0.46155 0.37175 0.27064 0.0
C1830 C 0.46031 0.345 0.25337 0.0
C1831 C 0.48722 0.34339 0.23562 0.0
C1832 C 0.72562 0.60527 0.47636 0.0
C1833 C 0.71897 0.62267 0.45034 0.0
C1834 C 0.70508 0.60003 0.49931 0.0
C1835 C 0.67695 0.61171 0.49687 0.0
H1836 H 0.74675 0.59541 0.47896 0.0
H1837 H 0.71115 0.58638 0.51886 0.0
S1838 S 0.64884 0.65932 0.43367 0.0
N1839 N 0.68247 0.6521 0.42378 0.0
N1840 N 0.64384 0.64213 0.46685 0.0
C1841 C 0.67013 0.62943 0.47116 0.0
C1842 C 0.69119 0.63499 0.44795 0.0
C1843 C 0.34241 0.84455 0.15203 0.0
C1844 C 0.3654 0.86821 0.14426 0.0
C1845 C 0.34455 0.83359 0.18291 0.0
C1846 C 0.3695 0.84611 0.20773 0.0
H1847 H 0.32224 0.8346 0.13421 0.0
H1848 H 0.32577 0.81582 0.18761 0.0
S1849 S 0.43659 0.9078 0.19988 0.0
N1850 N 0.41472 0.90305 0.16391 0.0
N1851 N 0.41841 0.88292 0.22188 0.0
C1852 C 0.39305 0.86935 0.20012 0.0
C1853 C 0.39111 0.88023 0.16848 0.0
C1854 C 0.08772 0.65102 0.91655 0.0
C1855 C 0.07843 0.67849 0.92475 0.0
C1856 C 0.09645 0.6322 0.94033 0.0
C1857 C 0.09698 0.64067 0.97326 0.0
H1858 H 0.08805 0.64396 0.89155 0.0
H1859 H 0.10235 0.61068 0.93286 0.0
S1860 S 0.07653 0.71143 1.00767 0.0
N1861 N 0.07148 0.7139 0.96821 0.0
N1862 N 0.08863 0.67908 1.01301 0.0
C1863 C 0.08928 0.66888 0.98192 0.0
C1864 C 0.07992 0.68774 0.95766 0.0
C1865 C 0.37955 0.26765 0.65501 0.0
C1866 C 0.35099 0.25185 0.63644 0.0
C1867 C 0.38053 0.28224 0.68674 0.0
C1868 C 0.35311 0.28175 0.70218 0.0
H1869 H 0.40132 0.26944 0.6447 0.0
H1870 H 0.40312 0.29436 0.69914 0.0
S1871 S 0.27254 0.24142 0.66569 0.0
N1872 N 0.29474 0.23557 0.63777 0.0
N1873 N 0.29666 0.26215 0.69576 0.0
C1874 C 0.32471 0.26532 0.68409 0.0
C1875 C 0.32366 0.25072 0.65199 0.0
C1876 C 0.6944 0.56833 0.28905 0.0
C1877 C 0.68854 0.5766 0.32023 0.0
C1878 C 0.67301 0.57093 0.26167 0.0
C1879 C 0.64535 0.58251 0.26451 0.0
H1880 H 0.71622 0.5608 0.28573 0.0
H1881 H 0.67908 0.56551 0.23801 0.0
S1882 S 0.61821 0.60586 0.34071 0.0
N1883 N 0.65215 0.5952 0.3525 0.0
N1884 N 0.6123 0.6007 0.30083 0.0
C1885 C 0.63855 0.58969 0.29556 0.0
C1886 C 0.66004 0.58652 0.32351 0.0
C1887 C 0.32141 0.8618 0.94531 0.0
C1888 C 0.34759 0.88219 0.96254 0.0
C1889 C 0.32007 0.85264 0.91228 0.0
C1890 C 0.34439 0.86416 0.89467 0.0
H1891 H 0.3019 0.85245 0.95758 0.0
H1892 H 0.29971 0.83643 0.90042 0.0
S1893 S 0.41795 0.91863 0.92798 0.0
N1894 N 0.39846 0.91369 0.95912 0.0
N1895 N 0.39556 0.89721 0.89719 0.0
C1896 C 0.37048 0.88494 0.91146 0.0
C1897 C 0.37219 0.89371 0.94526 0.0
C1898 C 0.12059 0.6082 0.79502 0.0
C1899 C 0.12562 0.63947 0.8039 0.0
C1900 C 0.13575 0.59664 0.77113 0.0
C1901 C 0.15662 0.61589 0.75504 0.0
H1902 H 0.10343 0.59252 0.80534 0.0
H1903 H 0.1289 0.5727 0.76347 0.0
S1904 S 0.18295 0.69878 0.77395 0.0
N1905 N 0.15652 0.68909 0.79827 0.0
N1906 N 0.18546 0.66713 0.75323 0.0
C1907 C 0.16432 0.64685 0.7659 0.0
C1908 C 0.14877 0.65871 0.79042 0.0
C1909 C 0.38708 0.28798 0.4426 0.0
C1910 C 0.37133 0.25894 0.44933 0.0
C1911 C 0.38337 0.29954 0.41145 0.0
C1912 C 0.36381 0.28293 0.38411 0.0
H1913 H 0.4027 0.30243 0.46187 0.0
H1914 H 0.39615 0.32202 0.40893 0.0
S1915 S 0.31684 0.20536 0.38692 0.0
N1916 N 0.33496 0.21383 0.42447 0.0
N1917 N 0.32815 0.23493 0.36678 0.0
C1918 C 0.3479 0.25372 0.39029 0.0
C1919 C 0.35155 0.242 0.42229 0.0
C1920 C 0.43474 0.70765 0.52252 0.0
C1921 C 0.40178 0.69779 0.51864 0.0
C1922 C 0.45494 0.68728 0.51763 0.0
C1923 C 0.44286 0.65652 0.50797 0.0
H1924 H 0.44511 0.7311 0.53024 0.0
H1925 H 0.48024 0.69558 0.52178 0.0
S1926 S 0.35847 0.61957 0.4924 0.0
N1927 N 0.35793 0.65535 0.50328 0.0
N1928 N 0.39614 0.61726 0.49354 0.0
C1929 C 0.41002 0.64651 0.50293 0.0
C1930 C 0.3894 0.66711 0.50845 0.0
C1931 C 0.94403 0.02996 0.5634 0.0
C1932 C 0.93142 1.00321 0.54284 0.0
C1933 C 0.97541 0.04666 0.56313 0.0
C1934 C 0.99601 0.03784 0.54209 0.0
H1935 H 0.93006 0.03749 0.58074 0.0
H1936 H 0.98379 0.0664 0.58014 0.0
S1937 S 0.9736 0.97113 0.48113 0.0
N1938 N 0.94207 0.97017 0.49938 0.0
N1939 N 0.99939 1.0009 0.49859 0.0
C1940 C 0.983 1.01177 0.52068 0.0
C1941 C 0.95142 0.99479 0.52115 0.0
C1942 C 0.84333 0.09729 0.20145 0.0
C1943 C 0.87213 0.09237 0.21801 0.0
C1944 C 0.82671 0.11779 0.2147 0.0
C1945 C 0.83808 0.13343 0.24518 0.0
H1946 H 0.83407 0.08597 0.17768 0.0
H1947 H 0.80518 0.12191 0.20083 0.0
S1948 S 0.91133 0.12741 0.29907 0.0
N1949 N 0.91055 0.10387 0.26712 0.0
N1950 N 0.87924 0.14232 0.29188 0.0
C1951 C 0.86624 0.12797 0.26243 0.0
C1952 C 0.88331 0.10745 0.24886 0.0
C1953 C 0.73531 0.14982 0.02688 0.0
C1954 C 0.73331 0.17553 1.00957 0.0
C1955 C 0.70847 0.12773 0.02844 0.0
C1956 C 0.67844 0.1303 1.01266 0.0
H1957 H 0.75763 0.14713 0.04027 0.0
H1958 H 0.7112 0.10909 0.04317 0.0
S1959 S 0.66103 0.19119 0.96055 0.0
N1960 N 0.69926 0.20078 0.97383 0.0
N1961 N 0.64892 0.15931 0.97657 0.0
C1962 C 0.67639 0.15507 0.99383 0.0
C1963 C 0.70375 0.17765 0.99236 0.0
C1964 C 0.28119 0.53975 0.29451 0.0
C1965 C 0.26973 0.53639 0.26115 0.0
C1966 C 0.30508 0.52461 0.30728 0.0
C1967 C 0.31829 0.50599 0.28699 0.0
H1968 H 0.26984 0.55191 0.3112 0.0
H1969 H 0.31118 0.52531 0.3333 0.0
S1970 S 0.3019 0.49541 0.19757 0.0
N1971 N 0.27744 0.51739 0.20773 0.0
N1972 N 0.32226 0.489 0.23187 0.0
C1973 C 0.30967 0.50533 0.25342 0.0
C1974 C 0.28537 0.52056 0.24043 0.0
C1975 C 0.23391 0.52563 0.05555 0.0
C1976 C 0.23054 0.49669 0.0385 0.0
C1977 C 0.20813 0.54202 0.0557 0.0
C1978 C 0.1771 0.53096 0.03852 0.0
H1979 H 0.25656 0.53562 0.06952 0.0
H1980 H 0.21269 0.56372 0.06972 0.0
S1981 S 0.15462 0.45676 0.98932 0.0
N1982 N 0.19226 0.45836 1.00344 0.0
N1983 N 0.14559 0.4885 1.00373 0.0
C1984 C 0.17364 0.5023 0.02119 0.0
C1985 C 0.19958 0.48558 0.0212 0.0
C1986 C 0.87354 0.95392 0.21135 0.0
C1987 C 0.8981 0.95192 0.19298 0.0
C1988 C 0.86317 0.93083 0.23056 0.0
C1989 C 0.87733 0.9051 0.23249 0.0
H1990 H 0.86309 0.97408 0.21188 0.0
H1991 H 0.84483 0.9338 0.24498 0.0
S1992 S 0.9404 0.88752 0.18661 0.0
N1993 N 0.93466 0.92111 0.17595 0.0
N1994 N 0.91523 0.87761 0.21208 0.0
C1995 C 0.90079 0.90206 0.21291 0.0
C1996 C 0.9111 0.92546 0.19306 0.0
C1997 C 0.68287 0.08366 0.68615 0.0
C1998 C 0.65037 0.07787 0.68879 0.0
C1999 C 0.70034 0.1133 0.6894 0.0
C2000 C 0.68607 0.13836 0.69559 0.0
H2001 H 0.69534 0.0651 0.68298 0.0
H2002 H 0.72553 0.11651 0.68859 0.0
S2003 S 0.60085 0.13628 0.69888 0.0
N2004 N 0.60389 0.1003 0.69368 0.0
N2005 N 0.63695 0.1559 0.70006 0.0
C2006 C 0.65328 0.13315 0.69606 0.0
C2007 C 0.63536 0.10296 0.69244 0.0
loop_
_geom_bond_atom_site_label_1
_geom_bond_atom_site_label_2
_geom_bond_distance
_geom_bond_site_symmetry_2
_ccdc_geom_bond_type
C0 O1 1.160 . S
C0 O7 1.185 . S
O1 C0 1.160 . S
O2 Zn3 1.899 . S
O2 C10 1.284 . S
Zn3 O2 1.899 . S
Zn3 O4 2.032 . S
Zn3 O7 2.086 . S
Zn3 O12 1.977 . S
O4 Zn3 2.032 . S
O4 C8 1.278 . S
C5 O6 1.203 . S
C5 O12 1.267 1_655 S
O6 C5 1.203 . S
O7 C0 1.185 . S
O7 Zn3 2.086 . S
C8 O4 1.278 . S
C8 O9 1.211 . S
O9 C8 1.211 . S
C10 O2 1.284 . S
C10 O11 1.273 . S
O11 C10 1.273 . S
O12 Zn3 1.977 . S
O12 C5 1.267 1_455 S
C13 O14 1.160 . S
C13 O20 1.185 1_655 S
O14 C13 1.160 . S
O15 Zn16 1.899 . S
O15 C23 1.284 . S
Zn16 O15 1.899 . S
Zn16 O17 2.032 . S
Zn16 O20 2.086 . S
Zn16 O25 1.977 . S
O17 Zn16 2.032 . S
O17 C21 1.278 . S
C18 O19 1.203 . S
C18 O25 1.267 . S
O19 C18 1.203 . S
O20 C13 1.185 1_455 S
O20 Zn16 2.086 . S
C21 O17 1.278 . S
C21 O22 1.211 . S
O22 C21 1.211 . S
C23 O15 1.284 . S
C23 O24 1.273 . S
O24 C23 1.273 . S
O25 Zn16 1.977 . S
O25 C18 1.267 . S
C26 O27 1.160 . S
C26 O33 1.185 . S
O27 C26 1.160 . S
O28 Zn29 1.899 . S
O28 C36 1.284 . S
Zn29 O28 1.899 . S
Zn29 O30 2.032 . S
Zn29 O33 2.086 . S
Zn29 O38 1.977 . S
O30 Zn29 2.032 . S
O30 C34 1.278 . S
C31 O32 1.203 . S
C31 O38 1.267 . S
O32 C31 1.203 . S
O33 C26 1.185 . S
O33 Zn29 2.086 . S
C34 O30 1.278 . S
C34 O35 1.211 . S
O35 C34 1.211 . S
C36 O28 1.284 . S
C36 O37 1.273 . S
O37 C36 1.273 . S
O38 Zn29 1.977 . S
O38 C31 1.267 . S
C39 O40 1.160 . S
C39 O46 1.185 . S
O40 C39 1.160 . S
O41 Zn42 1.899 . S
O41 C49 1.284 . S
Zn42 O41 1.899 . S
Zn42 O43 2.032 . S
Zn42 O46 2.086 . S
Zn42 O51 1.977 . S
O43 Zn42 2.032 . S
O43 C47 1.278 . S
C44 O45 1.203 . S
C44 O51 1.267 . S
O45 C44 1.203 . S
O46 C39 1.185 . S
O46 Zn42 2.086 . S
C47 O43 1.278 . S
C47 O48 1.211 . S
O48 C47 1.211 . S
C49 O41 1.284 . S
C49 O50 1.273 . S
O50 C49 1.273 . S
O51 Zn42 1.977 . S
O51 C44 1.267 . S
C52 O53 1.160 . S
C52 O59 1.185 . S
O53 C52 1.160 . S
O54 Zn55 1.899 . S
O54 C62 1.284 . S
Zn55 O54 1.899 . S
Zn55 O56 2.032 . S
Zn55 O59 2.086 . S
Zn55 O64 1.977 . S
O56 Zn55 2.032 . S
O56 C60 1.278 . S
C57 O58 1.203 . S
C57 O64 1.267 . S
O58 C57 1.203 . S
O59 C52 1.185 . S
O59 Zn55 2.086 . S
C60 O56 1.278 . S
C60 O61 1.211 . S
O61 C60 1.211 . S
C62 O54 1.284 . S
C62 O63 1.273 . S
O63 C62 1.273 . S
O64 Zn55 1.977 . S
O64 C57 1.267 . S
C65 O66 1.160 . S
C65 O72 1.185 . S
O66 C65 1.160 . S
O67 Zn68 1.899 . S
O67 C75 1.284 . S
Zn68 O67 1.899 . S
Zn68 O69 2.032 . S
Zn68 O72 2.086 . S
Zn68 O77 1.977 . S
O69 Zn68 2.032 . S
O69 C73 1.278 . S
C70 O71 1.203 . S
C70 O77 1.267 . S
O71 C70 1.203 . S
O72 C65 1.185 . S
O72 Zn68 2.086 . S
C73 O69 1.278 . S
C73 O74 1.211 . S
O74 C73 1.211 . S
C75 O67 1.284 . S
C75 O76 1.273 . S
O76 C75 1.273 . S
O77 Zn68 1.977 . S
O77 C70 1.267 . S
C78 O79 1.160 . S
C78 O85 1.185 . S
O79 C78 1.160 . S
O80 Zn81 1.899 . S
O80 C88 1.284 . S
Zn81 O80 1.899 . S
Zn81 O82 2.032 . S
Zn81 O85 2.086 . S
Zn81 O90 1.977 . S
O82 Zn81 2.032 . S
O82 C86 1.278 . S
C83 O84 1.203 . S
C83 O90 1.267 . S
O84 C83 1.203 . S
O85 C78 1.185 . S
O85 Zn81 2.086 . S
C86 O82 1.278 . S
C86 O87 1.211 . S
O87 C86 1.211 . S
C88 O80 1.284 . S
C88 O89 1.273 . S
O89 C88 1.273 . S
O90 Zn81 1.977 . S
O90 C83 1.267 . S
C91 O92 1.160 . S
C91 O98 1.185 . S
O92 C91 1.160 . S
O93 Zn94 1.900 1_655 S
O93 C101 1.286 . S
Zn94 O93 1.900 1_455 S
Zn94 O95 2.032 . S
Zn94 O98 2.086 . S
Zn94 O103 1.977 1_455 S
O95 Zn94 2.032 . S
O95 C99 1.278 . S
C96 O97 1.203 . S
C96 O103 1.267 . S
O97 C96 1.203 . S
O98 C91 1.185 . S
O98 Zn94 2.086 . S
C99 O95 1.278 . S
C99 O100 1.211 1_455 S
O100 C99 1.211 1_655 S
C101 O93 1.286 . S
C101 O102 1.273 . S
O102 C101 1.273 . S
O103 Zn94 1.977 1_655 S
O103 C96 1.267 . S
C104 O105 1.160 . S
C104 O111 1.185 . S
O105 C104 1.160 . S
O106 Zn107 1.899 . S
O106 C114 1.284 . S
Zn107 O106 1.899 . S
Zn107 O108 2.032 . S
Zn107 O111 2.086 . S
Zn107 O116 1.977 . S
O108 Zn107 2.032 . S
O108 C112 1.278 . S
C109 O110 1.203 . S
C109 O116 1.267 . S
O110 C109 1.203 . S
O111 C104 1.185 . S
O111 Zn107 2.086 . S
C112 O108 1.278 . S
C112 O113 1.211 . S
O113 C112 1.211 . S
C114 O106 1.284 . S
C114 O115 1.273 . S
O115 C114 1.273 . S
O116 Zn107 1.977 . S
O116 C109 1.267 . S
C117 O118 1.160 . S
C117 O124 1.185 . S
O118 C117 1.160 . S
O119 Zn120 1.899 . S
O119 C127 1.284 . S
Zn120 O119 1.899 . S
Zn120 O121 2.032 . S
Zn120 O124 2.086 . S
Zn120 O129 1.977 . S
O121 Zn120 2.032 . S
O121 C125 1.278 . S
C122 O123 1.203 . S
C122 O129 1.267 . S
O123 C122 1.203 . S
O124 C117 1.185 . S
O124 Zn120 2.086 . S
C125 O121 1.278 . S
C125 O126 1.211 . S
O126 C125 1.211 . S
C127 O119 1.284 . S
C127 O128 1.273 . S
O128 C127 1.273 . S
O129 Zn120 1.977 . S
O129 C122 1.267 . S
C130 O131 1.160 . S
C130 O137 1.185 . S
O131 C130 1.160 . S
O132 Zn133 1.899 . S
O132 C140 1.284 . S
Zn133 O132 1.899 . S
Zn133 O134 2.032 . S
Zn133 O137 2.086 . S
Zn133 O142 1.977 . S
O134 Zn133 2.032 . S
O134 C138 1.278 . S
C135 O136 1.203 . S
C135 O142 1.267 . S
O136 C135 1.203 . S
O137 C130 1.185 . S
O137 Zn133 2.086 . S
C138 O134 1.278 . S
C138 O139 1.211 . S
O139 C138 1.211 . S
C140 O132 1.284 . S
C140 O141 1.273 . S
O141 C140 1.273 . S
O142 Zn133 1.977 . S
O142 C135 1.267 . S
C143 O144 1.160 . S
C143 O150 1.185 . S
O144 C143 1.160 . S
O145 Zn146 1.899 . S
O145 C153 1.284 . S
Zn146 O145 1.899 . S
Zn146 O147 2.032 . S
Zn146 O150 2.086 . S
Zn146 O155 1.977 . S
O147 Zn146 2.032 . S
O147 C151 1.278 . S
C148 O149 1.203 . S
C148 O155 1.267 . S
O149 C148 1.203 . S
O150 C143 1.185 . S
O150 Zn146 2.086 . S
C151 O147 1.278 . S
C151 O152 1.211 . S
O152 C151 1.211 . S
C153 O145 1.284 . S
C153 O154 1.273 . S
O154 C153 1.273 . S
O155 Zn146 1.977 . S
O155 C148 1.267 . S
C156 O157 1.160 . S
C156 O163 1.185 . S
O157 C156 1.160 . S
O158 Zn159 1.899 . S
O158 C166 1.284 . S
Zn159 O158 1.899 . S
Zn159 O160 2.032 . S
Zn159 O163 2.086 . S
Zn159 O168 1.977 . S
O160 Zn159 2.032 . S
O160 C164 1.278 1_554 S
C161 O162 1.203 . S
C161 O168 1.267 . S
O162 C161 1.203 . S
O163 C156 1.185 . S
O163 Zn159 2.086 . S
C164 O160 1.278 1_556 S
C164 O165 1.211 . S
O165 C164 1.211 . S
C166 O158 1.284 . S
C166 O167 1.273 . S
O167 C166 1.273 . S
O168 Zn159 1.977 . S
O168 C161 1.267 . S
C169 O170 1.160 . S
C169 O176 1.185 1_554 S
O170 C169 1.160 . S
O171 Zn172 1.899 . S
O171 C179 1.284 . S
Zn172 O171 1.899 . S
Zn172 O173 2.032 1_554 S
Zn172 O176 2.086 1_554 S
Zn172 O181 1.977 1_554 S
O173 Zn172 2.032 1_556 S
O173 C177 1.278 . S
C174 O175 1.203 1_556 S
C174 O181 1.267 . S
O175 C174 1.203 1_554 S
O176 C169 1.185 1_556 S
O176 Zn172 2.086 1_556 S
C177 O173 1.278 . S
C177 O178 1.211 . S
O178 C177 1.211 . S
C179 O171 1.284 . S
C179 O180 1.273 . S
O180 C179 1.273 . S
O181 Zn172 1.977 1_556 S
O181 C174 1.267 . S
C182 O183 1.160 . S
C182 O189 1.185 . S
O183 C182 1.160 . S
O184 Zn185 1.899 . S
O184 C192 1.284 . S
Zn185 O184 1.899 . S
Zn185 O186 2.032 . S
Zn185 O189 2.086 . S
Zn185 O194 1.977 . S
O186 Zn185 2.032 . S
O186 C190 1.278 . S
C187 O188 1.203 . S
C187 O194 1.267 . S
O188 C187 1.203 . S
O189 C182 1.185 . S
O189 Zn185 2.086 . S
C190 O186 1.278 . S
C190 O191 1.211 . S
O191 C190 1.211 . S
C192 O184 1.284 . S
C192 O193 1.273 . S
O193 C192 1.273 . S
O194 Zn185 1.977 . S
O194 C187 1.267 . S
C195 O196 1.160 . S
C195 O202 1.185 . S
O196 C195 1.160 . S
O197 Zn198 1.899 . S
O197 C205 1.284 . S
Zn198 O197 1.899 . S
Zn198 O199 2.032 . S
Zn198 O202 2.086 . S
Zn198 O207 1.977 . S
O199 Zn198 2.032 . S
O199 C203 1.278 . S
C200 O201 1.203 . S
C200 O207 1.267 . S
O201 C200 1.203 . S
O202 C195 1.185 . S
O202 Zn198 2.086 . S
C203 O199 1.278 . S
C203 O204 1.211 . S
O204 C203 1.211 . S
C205 O197 1.284 . S
C205 O206 1.273 . S
O206 C205 1.273 . S
O207 Zn198 1.977 . S
O207 C200 1.267 . S
C208 O209 1.160 . S
C208 O215 1.185 . S
O209 C208 1.160 . S
O210 Zn211 1.899 . S
O210 C218 1.292 . S
Zn211 O210 1.899 . S
Zn211 O212 2.032 . S
Zn211 O215 2.086 . S
Zn211 O220 1.977 1_545 S
O212 Zn211 2.032 . S
O212 C216 1.278 . S
C213 O214 1.203 . S
C213 O220 1.267 . S
O214 C213 1.203 . S
O215 C208 1.185 . S
O215 Zn211 2.086 . S
C216 O212 1.278 . S
C216 O217 1.211 1_545 S
O217 C216 1.211 1_565 S
C218 O210 1.292 . S
C218 O219 1.264 1_545 S
O219 C218 1.264 1_565 S
O220 Zn211 1.977 1_565 S
O220 C213 1.267 . S
C221 O222 1.160 . S
C221 O228 1.185 . S
O222 C221 1.160 . S
O223 Zn224 1.899 . S
O223 C231 1.284 . S
Zn224 O223 1.899 . S
Zn224 O225 2.032 . S
Zn224 O228 2.086 . S
Zn224 O233 1.977 . S
O225 Zn224 2.032 . S
O225 C229 1.278 . S
C226 O227 1.203 . S
C226 O233 1.267 . S
O227 C226 1.203 . S
O228 C221 1.185 . S
O228 Zn224 2.086 . S
C229 O225 1.278 . S
C229 O230 1.211 . S
O230 C229 1.211 . S
C231 O223 1.284 . S
C231 O232 1.273 . S
O232 C231 1.273 . S
O233 Zn224 1.977 . S
O233 C226 1.267 . S
C234 O235 1.160 . S
C234 O241 1.185 . S
O235 C234 1.160 . S
O236 Zn237 1.899 . S
O236 C244 1.284 . S
Zn237 O236 1.899 . S
Zn237 O238 2.032 . S
Zn237 O241 2.086 . S
Zn237 O246 1.977 . S
O238 Zn237 2.032 . S
O238 C242 1.278 . S
C239 O240 1.203 . S
C239 O246 1.267 . S
O240 C239 1.203 . S
O241 C234 1.185 . S
O241 Zn237 2.086 . S
C242 O238 1.278 . S
C242 O243 1.211 . S
O243 C242 1.211 . S
C244 O236 1.284 . S
C244 O245 1.273 . S
O245 C244 1.273 . S
O246 Zn237 1.977 . S
O246 C239 1.267 . S
C247 O248 1.160 . S
C247 O254 1.185 . S
O248 C247 1.160 . S
O249 Zn250 1.899 . S
O249 C257 1.284 . S
Zn250 O249 1.899 . S
Zn250 O251 2.032 1_545 S
Zn250 O254 2.086 1_545 S
Zn250 O259 1.977 . S
O251 Zn250 2.032 1_565 S
O251 C255 1.278 1_565 S
C252 O253 1.203 . S
C252 O259 1.267 . S
O253 C252 1.203 . S
O254 C247 1.185 . S
O254 Zn250 2.086 1_565 S
C255 O251 1.278 1_545 S
C255 O256 1.211 . S
O256 C255 1.211 . S
C257 O249 1.284 . S
C257 O258 1.273 . S
O258 C257 1.273 . S
O259 Zn250 1.977 . S
O259 C252 1.267 . S
C260 O261 1.160 . S
C260 O267 1.185 . S
O261 C260 1.160 . S
O262 Zn263 1.899 . S
O262 C270 1.284 . S
Zn263 O262 1.899 . S
Zn263 O264 2.032 1_554 S
Zn263 O267 2.086 . S
Zn263 O272 1.977 . S
O264 Zn263 2.032 1_556 S
O264 C268 1.278 . S
C265 O266 1.203 . S
C265 O272 1.267 . S
O266 C265 1.203 . S
O267 C260 1.185 . S
O267 Zn263 2.086 . S
C268 O264 1.278 . S
C268 O269 1.211 . S
O269 C268 1.211 . S
C270 O262 1.284 . S
C270 O271 1.273 . S
O271 C270 1.273 . S
O272 Zn263 1.977 . S
O272 C265 1.267 . S
C273 O274 1.160 . S
C273 O280 1.185 . S
O274 C273 1.160 . S
O275 Zn276 1.899 1_455 S
O275 C283 1.284 . S
Zn276 O275 1.899 1_655 S
Zn276 O277 2.032 1_655 S
Zn276 O280 2.086 . S
Zn276 O285 1.977 . S
O277 Zn276 2.032 1_455 S
O277 C281 1.278 . S
C278 O279 1.203 . S
C278 O285 1.267 . S
O279 C278 1.203 . S
O280 C273 1.185 . S
O280 Zn276 2.086 . S
C281 O277 1.278 . S
C281 O282 1.211 . S
O282 C281 1.211 . S
C283 O275 1.284 . S
C283 O284 1.273 . S
O284 C283 1.273 . S
O285 Zn276 1.977 . S
O285 C278 1.267 . S
C286 O287 1.160 . S
C286 O293 1.185 . S
O287 C286 1.160 . S
O288 Zn289 1.899 . S
O288 C296 1.284 . S
Zn289 O288 1.899 . S
Zn289 O290 2.032 . S
Zn289 O293 2.086 . S
Zn289 O298 1.977 . S
O290 Zn289 2.032 . S
O290 C294 1.278 . S
C291 O292 1.203 . S
C291 O298 1.267 . S
O292 C291 1.203 . S
O293 C286 1.185 . S
O293 Zn289 2.086 . S
C294 O290 1.278 . S
C294 O295 1.211 . S
O295 C294 1.211 . S
C296 O288 1.284 . S
C296 O297 1.273 . S
O297 C296 1.273 . S
O298 Zn289 1.977 . S
O298 C291 1.267 . S
C299 O300 1.160 . S
C299 O306 1.185 . S
O300 C299 1.160 . S
O301 Zn302 1.899 . S
O301 C309 1.284 . S
Zn302 O301 1.899 . S
Zn302 O303 2.032 . S
Zn302 O306 2.086 . S
Zn302 O311 1.977 . S
O303 Zn302 2.032 . S
O303 C307 1.278 . S
C304 O305 1.203 . S
C304 O311 1.267 . S
O305 C304 1.203 . S
O306 C299 1.185 . S
O306 Zn302 2.086 . S
C307 O303 1.278 . S
C307 O308 1.211 . S
O308 C307 1.211 . S
C309 O301 1.284 . S
C309 O310 1.273 . S
O310 C309 1.273 . S
O311 Zn302 1.977 . S
O311 C304 1.267 . S
Tb312 C322 2.825 1_455 S
Tb312 O323 2.347 1_556 S
Tb312 O326 2.366 . S
Tb312 O331 2.418 . S
Tb312 O332 2.384 1_546 S
Tb312 O335 2.479 1_455 S
Tb312 O336 2.471 1_456 S
Eu313 O324 2.418 . S
Eu313 O325 2.384 . S
Eu313 O328 2.479 . S
Eu313 O329 2.471 . S
Eu313 O330 2.347 . S
Eu313 O333 2.366 . S
Eu313 C343 2.825 . S
C314 O330 1.259 1_556 S
C314 O331 1.265 . S
C315 O332 1.255 . S
C315 O333 1.265 1_565 S
C316 C318 1.380 . S
C316 C319 1.374 . S
C316 C322 1.507 . S
C317 C318 1.384 . S
C317 C321 1.387 . S
C317 H344 0.930 . S
C318 C316 1.380 . S
C318 C317 1.384 . S
C318 H345 0.931 . S
C319 C316 1.374 . S
C319 C320 1.390 . S
C319 H346 0.930 1_556 S
C320 C319 1.390 . S
C320 C321 1.391 . S
C320 H347 0.930 . S
C321 C317 1.387 . S
C321 C320 1.391 . S
C322 Tb312 2.825 1_655 S
C322 C316 1.507 . S
C322 O335 1.238 . S
C322 O336 1.247 1_556 S
O323 Tb312 2.347 1_554 S
O323 C327 1.259 . S
O324 Eu313 2.418 . S
O324 C327 1.265 . S
O325 Eu313 2.384 . S
O325 C334 1.255 . S
O326 Tb312 2.366 . S
O326 C334 1.265 1_556 S
C327 O323 1.259 . S
C327 O324 1.265 . S
O328 Eu313 2.479 . S
O328 C343 1.238 . S
O329 Eu313 2.471 . S
O329 C343 1.247 . S
O330 Eu313 2.347 . S
O330 C314 1.259 1_554 S
O331 Tb312 2.418 . S
O331 C314 1.265 . S
O332 Tb312 2.384 1_564 S
O332 C315 1.255 . S
O333 Eu313 2.366 . S
O333 C315 1.265 1_545 S
C334 O325 1.255 . S
C334 O326 1.265 1_554 S
O335 Tb312 2.479 1_655 S
O335 C322 1.238 . S
O336 Tb312 2.471 1_654 S
O336 C322 1.247 1_554 S
C337 C340 1.380 . S
C337 C341 1.374 . S
C337 C343 1.507 . S
C338 C339 1.387 . S
C338 C342 1.391 . S
C339 C338 1.387 . S
C339 C340 1.384 . S
C339 H348 0.930 . S
C340 C337 1.380 . S
C340 C339 1.384 . S
C340 H349 0.931 . S
C341 C337 1.374 . S
C341 C342 1.390 . S
C341 H350 0.930 . S
C342 C338 1.391 . S
C342 C341 1.390 . S
C342 H351 0.927 . S
C343 Eu313 2.825 . S
C343 O328 1.238 . S
C343 O329 1.247 . S
C343 C337 1.507 . S
H344 C317 0.930 . S
H345 C318 0.931 . S
H346 C319 0.930 1_554 S
H347 C320 0.930 . S
H348 C339 0.930 . S
H349 C340 0.931 . S
H350 C341 0.930 . S
H351 C342 0.927 . S
Tb352 C362 2.825 . S
Tb352 O363 2.347 . S
Tb352 O366 2.366 . S
Tb352 O371 2.418 . S
Tb352 O372 2.384 . S
Tb352 O375 2.479 . S
Tb352 O376 2.471 . S
Eu353 O364 2.418 . S
Eu353 O365 2.384 . S
Eu353 O368 2.479 . S
Eu353 O369 2.471 . S
Eu353 O370 2.347 . S
Eu353 O373 2.366 . S
Eu353 C383 2.825 . S
C354 O370 1.259 . S
C354 O371 1.265 . S
C355 O372 1.255 . S
C355 O373 1.265 . S
C356 C358 1.380 . S
C356 C359 1.374 . S
C356 C362 1.507 . S
C357 C358 1.384 . S
C357 C361 1.387 . S
C357 H384 0.930 . S
C358 C356 1.380 . S
C358 C357 1.384 . S
C358 H385 0.931 . S
C359 C356 1.374 . S
C359 C360 1.390 . S
C359 H386 0.930 . S
C360 C359 1.390 . S
C360 C361 1.391 . S
C360 H387 0.930 . S
C361 C357 1.387 . S
C361 C360 1.391 . S
C362 Tb352 2.825 . S
C362 C356 1.507 . S
C362 O375 1.238 . S
C362 O376 1.247 . S
O363 Tb352 2.347 . S
O363 C367 1.259 . S
O364 Eu353 2.418 . S
O364 C367 1.265 . S
O365 Eu353 2.384 . S
O365 C374 1.255 . S
O366 Tb352 2.366 . S
O366 C374 1.265 . S
C367 O363 1.259 . S
C367 O364 1.265 . S
O368 Eu353 2.479 . S
O368 C383 1.238 . S
O369 Eu353 2.471 . S
O369 C383 1.247 . S
O370 Eu353 2.347 . S
O370 C354 1.259 . S
O371 Tb352 2.418 . S
O371 C354 1.265 . S
O372 Tb352 2.384 . S
O372 C355 1.255 . S
O373 Eu353 2.366 . S
O373 C355 1.265 . S
C374 O365 1.255 . S
C374 O366 1.265 . S
O375 Tb352 2.479 . S
O375 C362 1.238 . S
O376 Tb352 2.471 . S
O376 C362 1.247 . S
C377 C380 1.380 . S
C377 C381 1.374 . S
C377 C383 1.507 . S
C378 C379 1.387 . S
C378 C382 1.391 . S
C379 C378 1.387 . S
C379 C380 1.384 . S
C379 H388 0.930 . S
C380 C377 1.380 . S
C380 C379 1.384 . S
C380 H389 0.931 . S
C381 C377 1.374 . S
C381 C382 1.390 . S
C381 H390 0.930 . S
C382 C378 1.391 . S
C382 C381 1.390 . S
C382 H391 0.930 . S
C383 Eu353 2.825 . S
C383 O368 1.238 . S
C383 O369 1.247 . S
C383 C377 1.507 . S
H384 C357 0.930 . S
H385 C358 0.931 . S
H386 C359 0.930 . S
H387 C360 0.930 . S
H388 C379 0.930 . S
H389 C380 0.931 . S
H390 C381 0.930 . S
H391 C382 0.930 . S
Tb392 C402 2.825 1_545 S
Tb392 O403 2.347 . S
Tb392 O406 2.366 . S
Tb392 O411 2.418 . S
Tb392 O412 2.384 . S
Tb392 O415 2.479 1_545 S
Tb392 O416 2.471 1_545 S
Eu393 O404 2.418 . S
Eu393 O405 2.384 . S
Eu393 O408 2.479 . S
Eu393 O409 2.471 . S
Eu393 O410 2.347 . S
Eu393 O413 2.366 . S
Eu393 C423 2.825 . S
C394 O410 1.259 . S
C394 O411 1.265 . S
C395 O412 1.255 . S
C395 O413 1.265 . S
C396 C398 1.380 . S
C396 C399 1.374 . S
C396 C402 1.507 . S
C397 C398 1.384 . S
C397 C401 1.387 . S
C397 H424 0.930 . S
C398 C396 1.380 . S
C398 C397 1.384 . S
C398 H425 0.931 . S
C399 C396 1.374 . S
C399 C400 1.390 . S
C399 H426 0.930 . S
C400 C399 1.390 . S
C400 C401 1.391 . S
C400 H427 0.930 . S
C401 C397 1.387 . S
C401 C400 1.391 . S
C402 Tb392 2.825 1_565 S
C402 C396 1.507 . S
C402 O415 1.238 . S
C402 O416 1.247 . S
O403 Tb392 2.347 . S
O403 C407 1.259 . S
O404 Eu393 2.418 . S
O404 C407 1.265 . S
O405 Eu393 2.384 . S
O405 C414 1.255 . S
O406 Tb392 2.366 . S
O406 C414 1.265 . S
C407 O403 1.259 . S
C407 O404 1.265 . S
O408 Eu393 2.479 . S
O408 C423 1.238 . S
O409 Eu393 2.471 . S
O409 C423 1.247 . S
O410 Eu393 2.347 . S
O410 C394 1.259 . S
O411 Tb392 2.418 . S
O411 C394 1.265 . S
O412 Tb392 2.384 . S
O412 C395 1.255 . S
O413 Eu393 2.366 . S
O413 C395 1.265 . S
C414 O405 1.255 . S
C414 O406 1.265 . S
O415 Tb392 2.479 1_565 S
O415 C402 1.238 . S
O416 Tb392 2.471 1_565 S
O416 C402 1.247 . S
C417 C420 1.380 . S
C417 C421 1.374 . S
C417 C423 1.507 . S
C418 C419 1.387 . S
C418 C422 1.391 . S
C419 C418 1.387 . S
C419 C420 1.384 . S
C419 H428 0.930 . S
C420 C417 1.380 . S
C420 C419 1.384 . S
C420 H429 0.931 . S
C421 C417 1.374 . S
C421 C422 1.390 . S
C421 H430 0.930 . S
C422 C418 1.391 . S
C422 C421 1.390 . S
C422 H431 0.930 . S
C423 Eu393 2.825 . S
C423 O408 1.238 . S
C423 O409 1.247 . S
C423 C417 1.507 . S
H424 C397 0.930 . S
H425 C398 0.931 . S
H426 C399 0.930 . S
H427 C400 0.930 . S
H428 C419 0.930 . S
H429 C420 0.931 . S
H430 C421 0.930 . S
H431 C422 0.930 . S
Tb432 C442 2.825 . S
Tb432 O443 2.347 . S
Tb432 O446 2.366 . S
Tb432 O451 2.418 . S
Tb432 O452 2.384 . S
Tb432 O455 2.479 . S
Tb432 O456 2.471 . S
Eu433 O444 2.418 . S
Eu433 O445 2.384 . S
Eu433 O448 2.479 . S
Eu433 O449 2.471 . S
Eu433 O450 2.347 . S
Eu433 O453 2.366 . S
Eu433 C463 2.825 . S
C434 O450 1.259 . S
C434 O451 1.265 . S
C435 O452 1.255 . S
C435 O453 1.265 . S
C436 C438 1.380 . S
C436 C439 1.374 . S
C436 C442 1.507 . S
C437 C438 1.384 . S
C437 C441 1.387 . S
C437 H464 0.930 . S
C438 C436 1.380 . S
C438 C437 1.384 . S
C438 H465 0.931 . S
C439 C436 1.374 . S
C439 C440 1.390 . S
C439 H466 0.930 . S
C440 C439 1.390 . S
C440 C441 1.391 . S
C440 H467 0.930 . S
C441 C437 1.387 . S
C441 C440 1.391 . S
C442 Tb432 2.825 . S
C442 C436 1.507 . S
C442 O455 1.238 . S
C442 O456 1.247 . S
O443 Tb432 2.347 . S
O443 C447 1.259 . S
O444 Eu433 2.418 . S
O444 C447 1.265 . S
O445 Eu433 2.384 . S
O445 C454 1.255 . S
O446 Tb432 2.366 . S
O446 C454 1.265 . S
C447 O443 1.259 . S
C447 O444 1.265 . S
O448 Eu433 2.479 . S
O448 C463 1.238 . S
O449 Eu433 2.471 . S
O449 C463 1.247 . S
O450 Eu433 2.347 . S
O450 C434 1.259 . S
O451 Tb432 2.418 . S
O451 C434 1.265 . S
O452 Tb432 2.384 . S
O452 C435 1.255 . S
O453 Eu433 2.366 . S
O453 C435 1.265 . S
C454 O445 1.255 . S
C454 O446 1.265 . S
O455 Tb432 2.479 . S
O455 C442 1.238 . S
O456 Tb432 2.471 . S
O456 C442 1.247 . S
C457 C460 1.380 . S
C457 C461 1.374 . S
C457 C463 1.507 . S
C458 C459 1.387 . S
C458 C462 1.391 . S
C459 C458 1.387 . S
C459 C460 1.384 . S
C459 H468 0.930 . S
C460 C457 1.380 . S
C460 C459 1.384 . S
C460 H469 0.931 . S
C461 C457 1.374 . S
C461 C462 1.390 . S
C461 H470 0.930 . S
C462 C458 1.391 . S
C462 C461 1.390 . S
C462 H471 0.930 . S
C463 Eu433 2.825 . S
C463 O448 1.238 . S
C463 O449 1.247 . S
C463 C457 1.507 . S
H464 C437 0.930 . S
H465 C438 0.931 . S
H466 C439 0.930 . S
H467 C440 0.930 . S
H468 C459 0.930 . S
H469 C460 0.931 . S
H470 C461 0.930 . S
H471 C462 0.930 . S
Tb472 C482 2.825 . S
Tb472 O483 2.347 . S
Tb472 O486 2.366 . S
Tb472 O491 2.418 . S
Tb472 O492 2.384 . S
Tb472 O495 2.479 . S
Tb472 O496 2.471 . S
Eu473 O484 2.418 . S
Eu473 O485 2.384 . S
Eu473 O488 2.479 . S
Eu473 O489 2.471 . S
Eu473 O490 2.347 . S
Eu473 O493 2.366 . S
Eu473 C503 2.825 . S
C474 O490 1.259 . S
C474 O491 1.265 . S
C475 O492 1.255 . S
C475 O493 1.265 . S
C476 C478 1.380 . S
C476 C479 1.374 1_455 S
C476 C482 1.507 . S
C477 C478 1.384 . S
C477 C481 1.387 1_455 S
C477 H504 0.930 . S
C478 C476 1.380 . S
C478 C477 1.384 . S
C478 H505 0.931 . S
C479 C476 1.374 1_655 S
C479 C480 1.390 . S
C479 H506 0.930 . S
C480 C479 1.390 . S
C480 C481 1.391 . S
C480 H507 0.930 . S
C481 C477 1.387 1_655 S
C481 C480 1.391 . S
C482 Tb472 2.825 . S
C482 C476 1.507 . S
C482 O495 1.238 . S
C482 O496 1.247 . S
O483 Tb472 2.347 . S
O483 C487 1.259 1_455 S
O484 Eu473 2.418 . S
O484 C487 1.265 1_455 S
O485 Eu473 2.384 . S
O485 C494 1.255 . S
O486 Tb472 2.366 . S
O486 C494 1.265 . S
C487 O483 1.259 1_655 S
C487 O484 1.265 1_655 S
O488 Eu473 2.479 . S
O488 C503 1.238 . S
O489 Eu473 2.471 . S
O489 C503 1.247 . S
O490 Eu473 2.347 . S
O490 C474 1.259 . S
O491 Tb472 2.418 . S
O491 C474 1.265 . S
O492 Tb472 2.384 . S
O492 C475 1.255 . S
O493 Eu473 2.366 . S
O493 C475 1.265 . S
C494 O485 1.255 . S
C494 O486 1.265 . S
O495 Tb472 2.479 . S
O495 C482 1.238 . S
O496 Tb472 2.471 . S
O496 C482 1.247 . S
C497 C500 1.380 . S
C497 C501 1.374 . S
C497 C503 1.507 . S
C498 C499 1.387 . S
C498 C502 1.391 . S
C499 C498 1.387 . S
C499 C500 1.384 . S
C499 H508 0.930 . S
C500 C497 1.380 . S
C500 C499 1.384 . S
C500 H509 0.931 . S
C501 C497 1.374 . S
C501 C502 1.390 . S
C501 H510 0.930 . S
C502 C498 1.391 . S
C502 C501 1.390 . S
C502 H511 0.930 . S
C503 Eu473 2.825 . S
C503 O488 1.238 . S
C503 O489 1.247 . S
C503 C497 1.507 . S
H504 C477 0.930 . S
H505 C478 0.931 . S
H506 C479 0.930 . S
H507 C480 0.930 . S
H508 C499 0.930 . S
H509 C500 0.931 . S
H510 C501 0.930 . S
H511 C502 0.930 . S
Tb512 C522 2.825 . S
Tb512 O523 2.347 . S
Tb512 O526 2.366 . S
Tb512 O531 2.418 . S
Tb512 O532 2.384 . S
Tb512 O535 2.479 . S
Tb512 O536 2.471 . S
Eu513 O524 2.418 . S
Eu513 O525 2.384 . S
Eu513 O528 2.479 . S
Eu513 O529 2.471 . S
Eu513 O530 2.347 . S
Eu513 O533 2.366 . S
Eu513 C543 2.825 . S
C514 O530 1.259 . S
C514 O531 1.265 . S
C515 O532 1.255 . S
C515 O533 1.265 . S
C516 C518 1.380 . S
C516 C519 1.374 . S
C516 C522 1.507 . S
C517 C518 1.384 . S
C517 C521 1.387 . S
C517 H544 0.930 . S
C518 C516 1.380 . S
C518 C517 1.384 . S
C518 H545 0.931 . S
C519 C516 1.374 . S
C519 C520 1.390 . S
C519 H546 0.930 . S
C520 C519 1.390 . S
C520 C521 1.391 . S
C520 H547 0.930 . S
C521 C517 1.387 . S
C521 C520 1.391 . S
C522 Tb512 2.825 . S
C522 C516 1.507 . S
C522 O535 1.238 . S
C522 O536 1.247 . S
O523 Tb512 2.347 . S
O523 C527 1.259 . S
O524 Eu513 2.418 . S
O524 C527 1.265 . S
O525 Eu513 2.384 . S
O525 C534 1.255 . S
O526 Tb512 2.366 . S
O526 C534 1.265 . S
C527 O523 1.259 . S
C527 O524 1.265 . S
O528 Eu513 2.479 . S
O528 C543 1.238 . S
O529 Eu513 2.471 . S
O529 C543 1.247 . S
O530 Eu513 2.347 . S
O530 C514 1.259 . S
O531 Tb512 2.418 . S
O531 C514 1.265 . S
O532 Tb512 2.384 . S
O532 C515 1.255 . S
O533 Eu513 2.366 . S
O533 C515 1.265 . S
C534 O525 1.255 . S
C534 O526 1.265 . S
O535 Tb512 2.479 . S
O535 C522 1.238 . S
O536 Tb512 2.471 . S
O536 C522 1.247 . S
C537 C540 1.380 . S
C537 C541 1.374 . S
C537 C543 1.507 . S
C538 C539 1.387 . S
C538 C542 1.391 . S
C539 C538 1.387 . S
C539 C540 1.384 . S
C539 H548 0.930 . S
C540 C537 1.380 . S
C540 C539 1.384 . S
C540 H549 0.931 . S
C541 C537 1.374 . S
C541 C542 1.390 . S
C541 H550 0.930 . S
C542 C538 1.391 . S
C542 C541 1.390 . S
C542 H551 0.930 . S
C543 Eu513 2.825 . S
C543 O528 1.238 . S
C543 O529 1.247 . S
C543 C537 1.507 . S
H544 C517 0.930 . S
H545 C518 0.931 . S
H546 C519 0.930 . S
H547 C520 0.930 . S
H548 C539 0.930 . S
H549 C540 0.931 . S
H550 C541 0.930 . S
H551 C542 0.930 . S
Tb552 C562 2.825 . S
Tb552 O563 2.347 . S
Tb552 O566 2.366 . S
Tb552 O571 2.418 1_545 S
Tb552 O572 2.384 . S
Tb552 O575 2.479 . S
Tb552 O576 2.471 . S
Eu553 O564 2.418 1_556 S
Eu553 O565 2.384 1_556 S
Eu553 O568 2.479 . S
Eu553 O569 2.471 . S
Eu553 O570 2.347 1_556 S
Eu553 O573 2.366 . S
Eu553 C583 2.825 . S
C554 O570 1.259 1_565 S
C554 O571 1.265 . S
C555 O572 1.255 . S
C555 O573 1.265 1_554 S
C556 C558 1.380 . S
C556 C559 1.374 . S
C556 C562 1.507 . S
C557 C558 1.384 . S
C557 C561 1.387 . S
C557 H584 0.930 1_545 S
C558 C556 1.380 . S
C558 C557 1.384 . S
C558 H585 0.939 . S
C559 C556 1.374 . S
C559 C560 1.390 . S
C559 H586 0.930 . S
C560 C559 1.390 . S
C560 C561 1.391 . S
C560 H587 0.930 . S
C561 C557 1.387 . S
C561 C560 1.391 . S
C562 Tb552 2.825 . S
C562 C556 1.507 . S
C562 O575 1.238 . S
C562 O576 1.247 . S
O563 Tb552 2.347 . S
O563 C567 1.259 . S
O564 Eu553 2.418 1_554 S
O564 C567 1.265 . S
O565 Eu553 2.384 1_554 S
O565 C574 1.255 . S
O566 Tb552 2.366 . S
O566 C574 1.265 . S
C567 O563 1.259 . S
C567 O564 1.265 . S
O568 Eu553 2.479 . S
O568 C583 1.238 . S
O569 Eu553 2.471 . S
O569 C583 1.247 . S
O570 Eu553 2.347 1_554 S
O570 C554 1.259 1_545 S
O571 Tb552 2.418 1_565 S
O571 C554 1.265 . S
O572 Tb552 2.384 . S
O572 C555 1.255 . S
O573 Eu553 2.366 . S
O573 C555 1.265 1_556 S
C574 O565 1.255 . S
C574 O566 1.265 . S
O575 Tb552 2.479 . S
O575 C562 1.238 . S
O576 Tb552 2.471 . S
O576 C562 1.247 . S
C577 C580 1.380 . S
C577 C581 1.374 . S
C577 C583 1.507 . S
C578 C579 1.387 . S
C578 C582 1.391 . S
C579 C578 1.387 . S
C579 C580 1.384 . S
C579 H588 0.930 . S
C580 C577 1.380 . S
C580 C579 1.384 . S
C580 H589 0.931 . S
C581 C577 1.374 . S
C581 C582 1.390 . S
C581 H590 0.930 . S
C582 C578 1.391 . S
C582 C581 1.390 . S
C582 H591 0.930 . S
C583 Eu553 2.825 . S
C583 O568 1.238 . S
C583 O569 1.247 . S
C583 C577 1.507 . S
H584 C557 0.930 1_565 S
H585 C558 0.939 . S
H586 C559 0.930 . S
H587 C560 0.930 . S
H588 C579 0.930 . S
H589 C580 0.931 . S
H590 C581 0.930 . S
H591 C582 0.930 . S
Tb592 C602 2.825 . S
Tb592 O603 2.347 . S
Tb592 O606 2.366 . S
Tb592 O611 2.418 . S
Tb592 O612 2.384 . S
Tb592 O615 2.479 . S
Tb592 O616 2.471 . S
Eu593 O604 2.418 . S
Eu593 O605 2.384 . S
Eu593 O608 2.479 . S
Eu593 O609 2.471 . S
Eu593 O610 2.347 . S
Eu593 O613 2.366 . S
Eu593 C623 2.825 . S
C594 O610 1.259 . S
C594 O611 1.265 . S
C595 O612 1.255 . S
C595 O613 1.265 . S
C596 C598 1.380 . S
C596 C599 1.374 . S
C596 C602 1.507 . S
C597 C598 1.384 . S
C597 C601 1.387 . S
C597 H624 0.930 . S
C598 C596 1.380 . S
C598 C597 1.384 . S
C598 H625 0.931 . S
C599 C596 1.374 . S
C599 C600 1.390 . S
C599 H626 0.930 . S
C600 C599 1.390 . S
C600 C601 1.391 . S
C600 H627 0.930 . S
C601 C597 1.387 . S
C601 C600 1.391 . S
C602 Tb592 2.825 . S
C602 C596 1.507 . S
C602 O615 1.238 . S
C602 O616 1.247 . S
O603 Tb592 2.347 . S
O603 C607 1.259 . S
O604 Eu593 2.418 . S
O604 C607 1.265 . S
O605 Eu593 2.384 . S
O605 C614 1.255 . S
O606 Tb592 2.366 . S
O606 C614 1.265 . S
C607 O603 1.259 . S
C607 O604 1.265 . S
O608 Eu593 2.479 . S
O608 C623 1.238 . S
O609 Eu593 2.471 . S
O609 C623 1.247 . S
O610 Eu593 2.347 . S
O610 C594 1.259 . S
O611 Tb592 2.418 . S
O611 C594 1.265 . S
O612 Tb592 2.384 . S
O612 C595 1.255 . S
O613 Eu593 2.366 . S
O613 C595 1.265 . S
C614 O605 1.255 . S
C614 O606 1.265 . S
O615 Tb592 2.479 . S
O615 C602 1.238 . S
O616 Tb592 2.471 . S
O616 C602 1.247 . S
C617 C620 1.380 . S
C617 C621 1.374 . S
C617 C623 1.507 . S
C618 C619 1.387 . S
C618 C622 1.391 . S
C619 C618 1.387 . S
C619 C620 1.384 . S
C619 H628 0.930 . S
C620 C617 1.380 . S
C620 C619 1.384 . S
C620 H629 0.931 . S
C621 C617 1.374 . S
C621 C622 1.390 . S
C621 H630 0.930 . S
C622 C618 1.391 . S
C622 C621 1.390 . S
C622 H631 0.930 . S
C623 Eu593 2.825 . S
C623 O608 1.238 . S
C623 O609 1.247 . S
C623 C617 1.507 . S
H624 C597 0.930 . S
H625 C598 0.931 . S
H626 C599 0.930 . S
H627 C600 0.930 . S
H628 C619 0.930 . S
H629 C620 0.931 . S
H630 C621 0.930 . S
H631 C622 0.930 . S
Tb632 C642 2.825 . S
Tb632 O643 2.347 1_556 S
Tb632 O646 2.366 . S
Tb632 O651 2.418 . S
Tb632 O652 2.384 1_556 S
Tb632 O655 2.479 . S
Tb632 O656 2.471 . S
Eu633 O644 2.418 . S
Eu633 O645 2.384 . S
Eu633 O648 2.479 . S
Eu633 O649 2.471 . S
Eu633 O650 2.347 . S
Eu633 O653 2.366 . S
Eu633 C663 2.825 . S
C634 O650 1.259 . S
C634 O651 1.265 1_554 S
C635 O652 1.255 . S
C635 O653 1.265 . S
C636 C638 1.380 . S
C636 C639 1.374 . S
C636 C642 1.507 . S
C637 C638 1.384 . S
C637 C641 1.387 . S
C637 H664 0.930 . S
C638 C636 1.380 . S
C638 C637 1.384 . S
C638 H665 0.931 . S
C639 C636 1.374 . S
C639 C640 1.390 . S
C639 H666 0.930 . S
C640 C639 1.390 . S
C640 C641 1.391 . S
C640 H667 0.930 . S
C641 C637 1.387 . S
C641 C640 1.391 . S
C642 Tb632 2.825 . S
C642 C636 1.507 . S
C642 O655 1.238 . S
C642 O656 1.247 . S
O643 Tb632 2.347 1_554 S
O643 C647 1.259 . S
O644 Eu633 2.418 . S
O644 C647 1.265 . S
O645 Eu633 2.384 . S
O645 C654 1.255 . S
O646 Tb632 2.366 . S
O646 C654 1.265 1_556 S
C647 O643 1.259 . S
C647 O644 1.265 . S
O648 Eu633 2.479 . S
O648 C663 1.238 . S
O649 Eu633 2.471 . S
O649 C663 1.247 . S
O650 Eu633 2.347 . S
O650 C634 1.259 . S
O651 Tb632 2.418 . S
O651 C634 1.265 1_556 S
O652 Tb632 2.384 1_554 S
O652 C635 1.255 . S
O653 Eu633 2.366 . S
O653 C635 1.265 . S
C654 O645 1.255 . S
C654 O646 1.265 1_554 S
O655 Tb632 2.479 . S
O655 C642 1.238 . S
O656 Tb632 2.471 . S
O656 C642 1.247 . S
C657 C660 1.380 . S
C657 C661 1.374 . S
C657 C663 1.507 . S
C658 C659 1.387 . S
C658 C662 1.391 . S
C659 C658 1.387 . S
C659 C660 1.384 . S
C659 H668 0.930 . S
C660 C657 1.380 . S
C660 C659 1.384 . S
C660 H669 0.931 . S
C661 C657 1.374 . S
C661 C662 1.390 . S
C661 H670 0.930 . S
C662 C658 1.391 . S
C662 C661 1.390 . S
C662 H671 0.930 . S
C663 Eu633 2.825 . S
C663 O648 1.238 . S
C663 O649 1.247 . S
C663 C657 1.507 . S
H664 C637 0.930 . S
H665 C638 0.931 . S
H666 C639 0.930 . S
H667 C640 0.930 . S
H668 C659 0.930 . S
H669 C660 0.931 . S
H670 C661 0.930 . S
H671 C662 0.930 . S
Tb672 C682 2.825 . S
Tb672 O683 2.347 . S
Tb672 O686 2.366 . S
Tb672 O691 2.418 . S
Tb672 O692 2.384 . S
Tb672 O695 2.479 . S
Tb672 O696 2.471 . S
Eu673 O684 2.418 . S
Eu673 O685 2.384 . S
Eu673 O688 2.479 . S
Eu673 O689 2.471 . S
Eu673 O690 2.347 . S
Eu673 O693 2.366 . S
Eu673 C703 2.825 . S
C674 O690 1.259 . S
C674 O691 1.265 . S
C675 O692 1.255 . S
C675 O693 1.265 . S
C676 C678 1.380 . S
C676 C679 1.374 . S
C676 C682 1.507 . S
C677 C678 1.384 . S
C677 C681 1.387 . S
C677 H704 0.930 . S
C678 C676 1.380 . S
C678 C677 1.384 . S
C678 H705 0.931 . S
C679 C676 1.374 . S
C679 C680 1.390 . S
C679 H706 0.930 . S
C680 C679 1.390 . S
C680 C681 1.391 . S
C680 H707 0.930 . S
C681 C677 1.387 . S
C681 C680 1.391 . S
C682 Tb672 2.825 . S
C682 C676 1.507 . S
C682 O695 1.238 . S
C682 O696 1.247 . S
O683 Tb672 2.347 . S
O683 C687 1.259 . S
O684 Eu673 2.418 . S
O684 C687 1.265 . S
O685 Eu673 2.384 . S
O685 C694 1.255 . S
O686 Tb672 2.366 . S
O686 C694 1.265 . S
C687 O683 1.259 . S
C687 O684 1.265 . S
O688 Eu673 2.479 . S
O688 C703 1.238 . S
O689 Eu673 2.471 . S
O689 C703 1.247 . S
O690 Eu673 2.347 . S
O690 C674 1.259 . S
O691 Tb672 2.418 . S
O691 C674 1.265 . S
O692 Tb672 2.384 . S
O692 C675 1.255 . S
O693 Eu673 2.366 . S
O693 C675 1.265 . S
C694 O685 1.255 . S
C694 O686 1.265 . S
O695 Tb672 2.479 . S
O695 C682 1.238 . S
O696 Tb672 2.471 . S
O696 C682 1.247 . S
C697 C700 1.380 . S
C697 C701 1.374 . S
C697 C703 1.507 . S
C698 C699 1.387 . S
C698 C702 1.391 . S
C699 C698 1.387 . S
C699 C700 1.384 . S
C699 H708 0.930 . S
C700 C697 1.380 . S
C700 C699 1.384 . S
C700 H709 0.931 . S
C701 C697 1.374 . S
C701 C702 1.390 . S
C701 H710 0.930 . S
C702 C698 1.391 . S
C702 C701 1.390 . S
C702 H711 0.930 . S
C703 Eu673 2.825 . S
C703 O688 1.238 . S
C703 O689 1.247 . S
C703 C697 1.507 . S
H704 C677 0.930 . S
H705 C678 0.931 . S
H706 C679 0.930 . S
H707 C680 0.930 . S
H708 C699 0.930 . S
H709 C700 0.931 . S
H710 C701 0.930 . S
H711 C702 0.930 . S
Tb712 C722 2.825 . S
Tb712 O723 2.347 . S
Tb712 O726 2.366 . S
Tb712 O731 2.418 . S
Tb712 O732 2.384 . S
Tb712 O735 2.479 . S
Tb712 O736 2.471 . S
Eu713 O724 2.418 . S
Eu713 O725 2.384 1_455 S
Eu713 O728 2.479 . S
Eu713 O729 2.471 . S
Eu713 O730 2.347 . S
Eu713 O733 2.366 . S
Eu713 C743 2.825 . S
C714 O730 1.259 . S
C714 O731 1.265 . S
C715 O732 1.255 . S
C715 O733 1.265 . S
C716 C718 1.380 . S
C716 C719 1.374 . S
C716 C722 1.507 . S
C717 C718 1.384 . S
C717 C721 1.387 . S
C717 H744 0.930 . S
C718 C716 1.380 . S
C718 C717 1.384 . S
C718 H745 0.931 . S
C719 C716 1.374 . S
C719 C720 1.390 . S
C719 H746 0.930 . S
C720 C719 1.390 . S
C720 C721 1.391 . S
C720 H747 0.930 . S
C721 C717 1.387 . S
C721 C720 1.391 . S
C722 Tb712 2.825 . S
C722 C716 1.507 . S
C722 O735 1.238 . S
C722 O736 1.247 . S
O723 Tb712 2.347 . S
O723 C727 1.259 . S
O724 Eu713 2.418 . S
O724 C727 1.265 . S
O725 Eu713 2.384 1_655 S
O725 C734 1.255 1_655 S
O726 Tb712 2.366 . S
O726 C734 1.261 . S
C727 O723 1.259 . S
C727 O724 1.265 . S
O728 Eu713 2.479 . S
O728 C743 1.238 . S
O729 Eu713 2.471 . S
O729 C743 1.247 . S
O730 Eu713 2.347 . S
O730 C714 1.259 . S
O731 Tb712 2.418 . S
O731 C714 1.265 . S
O732 Tb712 2.384 . S
O732 C715 1.255 . S
O733 Eu713 2.366 . S
O733 C715 1.265 . S
C734 O725 1.255 1_455 S
C734 O726 1.261 . S
O735 Tb712 2.479 . S
O735 C722 1.238 . S
O736 Tb712 2.471 . S
O736 C722 1.247 . S
C737 C740 1.380 . S
C737 C741 1.374 . S
C737 C743 1.507 . S
C738 C739 1.387 . S
C738 C742 1.391 . S
C739 C738 1.387 . S
C739 C740 1.384 . S
C739 H748 0.930 . S
C740 C737 1.380 . S
C740 C739 1.384 . S
C740 H749 0.931 . S
C741 C737 1.374 . S
C741 C742 1.390 . S
C741 H750 0.930 . S
C742 C738 1.391 . S
C742 C741 1.390 . S
C742 H751 0.930 . S
C743 Eu713 2.825 . S
C743 O728 1.238 . S
C743 O729 1.247 . S
C743 C737 1.507 . S
H744 C717 0.930 . S
H745 C718 0.931 . S
H746 C719 0.930 . S
H747 C720 0.930 . S
H748 C739 0.930 . S
H749 C740 0.931 . S
H750 C741 0.930 . S
H751 C742 0.930 . S
Tb752 C762 2.825 . S
Tb752 O763 2.347 . S
Tb752 O766 2.366 . S
Tb752 O771 2.418 . S
Tb752 O772 2.384 . S
Tb752 O775 2.479 . S
Tb752 O776 2.471 . S
Eu753 O764 2.418 . S
Eu753 O765 2.384 . S
Eu753 O768 2.479 . S
Eu753 O769 2.471 . S
Eu753 O770 2.347 . S
Eu753 O773 2.366 . S
Eu753 C783 2.825 . S
C754 O770 1.259 . S
C754 O771 1.265 . S
C755 O772 1.255 . S
C755 O773 1.265 . S
C756 C758 1.380 . S
C756 C759 1.374 . S
C756 C762 1.507 . S
C757 C758 1.384 . S
C757 C761 1.387 . S
C757 H784 0.930 . S
C758 C756 1.380 . S
C758 C757 1.384 . S
C758 H785 0.931 . S
C759 C756 1.374 . S
C759 C760 1.390 . S
C759 H786 0.930 . S
C760 C759 1.390 . S
C760 C761 1.391 . S
C760 H787 0.930 . S
C761 C757 1.387 . S
C761 C760 1.391 . S
C762 Tb752 2.825 . S
C762 C756 1.507 . S
C762 O775 1.238 . S
C762 O776 1.247 . S
O763 Tb752 2.347 . S
O763 C767 1.259 . S
O764 Eu753 2.418 . S
O764 C767 1.265 . S
O765 Eu753 2.384 . S
O765 C774 1.255 . S
O766 Tb752 2.366 . S
O766 C774 1.265 . S
C767 O763 1.259 . S
C767 O764 1.265 . S
O768 Eu753 2.479 . S
O768 C783 1.238 . S
O769 Eu753 2.471 . S
O769 C783 1.247 . S
O770 Eu753 2.347 . S
O770 C754 1.259 . S
O771 Tb752 2.418 . S
O771 C754 1.265 . S
O772 Tb752 2.384 . S
O772 C755 1.255 . S
O773 Eu753 2.366 . S
O773 C755 1.265 . S
C774 O765 1.255 . S
C774 O766 1.265 . S
O775 Tb752 2.479 . S
O775 C762 1.238 . S
O776 Tb752 2.471 . S
O776 C762 1.247 . S
C777 C780 1.380 . S
C777 C781 1.374 . S
C777 C783 1.507 . S
C778 C779 1.387 . S
C778 C782 1.391 . S
C779 C778 1.387 . S
C779 C780 1.384 . S
C779 H788 0.930 . S
C780 C777 1.380 . S
C780 C779 1.384 . S
C780 H789 0.931 . S
C781 C777 1.374 . S
C781 C782 1.390 . S
C781 H790 0.930 . S
C782 C778 1.391 . S
C782 C781 1.390 . S
C782 H791 0.930 . S
C783 Eu753 2.825 . S
C783 O768 1.238 . S
C783 O769 1.247 . S
C783 C777 1.507 . S
H784 C757 0.930 . S
H785 C758 0.931 . S
H786 C759 0.930 . S
H787 C760 0.930 . S
H788 C779 0.930 . S
H789 C780 0.931 . S
H790 C781 0.930 . S
H791 C782 0.930 . S
Tb792 C802 2.825 . S
Tb792 O803 2.347 . S
Tb792 O806 2.366 . S
Tb792 O811 2.418 . S
Tb792 O812 2.384 . S
Tb792 O815 2.479 . S
Tb792 O816 2.471 . S
Eu793 O804 2.418 . S
Eu793 O805 2.384 . S
Eu793 O808 2.479 . S
Eu793 O809 2.471 . S
Eu793 O810 2.347 . S
Eu793 O813 2.366 . S
Eu793 C823 2.825 . S
C794 O810 1.259 . S
C794 O811 1.265 . S
C795 O812 1.255 . S
C795 O813 1.265 . S
C796 C798 1.380 . S
C796 C799 1.374 . S
C796 C802 1.507 . S
C797 C798 1.384 . S
C797 C801 1.387 . S
C797 H824 0.930 . S
C798 C796 1.380 . S
C798 C797 1.384 . S
C798 H825 0.931 . S
C799 C796 1.374 . S
C799 C800 1.390 . S
C799 H826 0.930 . S
C800 C799 1.390 . S
C800 C801 1.391 . S
C800 H827 0.930 . S
C801 C797 1.387 . S
C801 C800 1.391 . S
C802 Tb792 2.825 . S
C802 C796 1.507 . S
C802 O815 1.238 . S
C802 O816 1.247 . S
O803 Tb792 2.347 . S
O803 C807 1.259 . S
O804 Eu793 2.418 . S
O804 C807 1.265 . S
O805 Eu793 2.384 . S
O805 C814 1.255 . S
O806 Tb792 2.366 . S
O806 C814 1.265 . S
C807 O803 1.259 . S
C807 O804 1.265 . S
O808 Eu793 2.479 . S
O808 C823 1.238 . S
O809 Eu793 2.471 . S
O809 C823 1.247 . S
O810 Eu793 2.347 . S
O810 C794 1.259 . S
O811 Tb792 2.418 . S
O811 C794 1.265 . S
O812 Tb792 2.384 . S
O812 C795 1.255 . S
O813 Eu793 2.366 . S
O813 C795 1.265 . S
C814 O805 1.255 . S
C814 O806 1.265 . S
O815 Tb792 2.479 . S
O815 C802 1.238 . S
O816 Tb792 2.471 . S
O816 C802 1.247 . S
C817 C820 1.380 . S
C817 C821 1.374 . S
C817 C823 1.507 . S
C818 C819 1.387 . S
C818 C822 1.391 . S
C819 C818 1.387 . S
C819 C820 1.384 . S
C819 H828 0.930 . S
C820 C817 1.380 . S
C820 C819 1.384 . S
C820 H829 0.931 . S
C821 C817 1.374 . S
C821 C822 1.390 . S
C821 H830 0.930 . S
C822 C818 1.391 . S
C822 C821 1.390 . S
C822 H831 0.930 . S
C823 Eu793 2.825 . S
C823 O808 1.238 . S
C823 O809 1.247 . S
C823 C817 1.507 . S
H824 C797 0.930 . S
H825 C798 0.931 . S
H826 C799 0.930 . S
H827 C800 0.930 . S
H828 C819 0.930 . S
H829 C820 0.931 . S
H830 C821 0.930 . S
H831 C822 0.930 . S
Tb832 C842 2.825 . S
Tb832 O843 2.347 . S
Tb832 O846 2.366 . S
Tb832 O851 2.418 . S
Tb832 O852 2.384 . S
Tb832 O855 2.479 . S
Tb832 O856 2.471 . S
Eu833 O844 2.418 . S
Eu833 O845 2.384 . S
Eu833 O848 2.479 . S
Eu833 O849 2.471 . S
Eu833 O850 2.347 . S
Eu833 O853 2.366 . S
Eu833 C863 2.825 . S
C834 O850 1.259 . S
C834 O851 1.265 . S
C835 O852 1.255 . S
C835 O853 1.265 . S
C836 C838 1.380 . S
C836 C839 1.374 . S
C836 C842 1.507 . S
C837 C838 1.384 . S
C837 C841 1.387 . S
C837 H864 0.930 . S
C838 C836 1.380 . S
C838 C837 1.384 . S
C838 H865 0.931 . S
C839 C836 1.374 . S
C839 C840 1.390 . S
C839 H866 0.930 . S
C840 C839 1.390 . S
C840 C841 1.391 . S
C840 H867 0.930 . S
C841 C837 1.387 . S
C841 C840 1.391 . S
C842 Tb832 2.825 . S
C842 C836 1.507 . S
C842 O855 1.238 . S
C842 O856 1.247 . S
O843 Tb832 2.347 . S
O843 C847 1.259 . S
O844 Eu833 2.418 . S
O844 C847 1.265 . S
O845 Eu833 2.384 . S
O845 C854 1.255 . S
O846 Tb832 2.366 . S
O846 C854 1.265 . S
C847 O843 1.259 . S
C847 O844 1.265 . S
O848 Eu833 2.479 . S
O848 C863 1.238 . S
O849 Eu833 2.471 . S
O849 C863 1.247 . S
O850 Eu833 2.347 . S
O850 C834 1.259 . S
O851 Tb832 2.418 . S
O851 C834 1.265 . S
O852 Tb832 2.384 . S
O852 C835 1.255 . S
O853 Eu833 2.366 . S
O853 C835 1.265 . S
C854 O845 1.255 . S
C854 O846 1.265 . S
O855 Tb832 2.479 . S
O855 C842 1.238 . S
O856 Tb832 2.471 . S
O856 C842 1.247 . S
C857 C860 1.380 . S
C857 C861 1.374 . S
C857 C863 1.507 . S
C858 C859 1.387 . S
C858 C862 1.391 . S
C859 C858 1.387 . S
C859 C860 1.384 . S
C859 H868 0.930 . S
C860 C857 1.380 . S
C860 C859 1.384 . S
C860 H869 0.931 . S
C861 C857 1.374 . S
C861 C862 1.390 . S
C861 H870 0.930 . S
C862 C858 1.391 . S
C862 C861 1.390 . S
C862 H871 0.930 . S
C863 Eu833 2.825 . S
C863 O848 1.238 . S
C863 O849 1.247 . S
C863 C857 1.507 . S
H864 C837 0.930 . S
H865 C838 0.931 . S
H866 C839 0.930 . S
H867 C840 0.930 . S
H868 C859 0.930 . S
H869 C860 0.931 . S
H870 C861 0.930 . S
H871 C862 0.930 . S
Tb872 C882 2.825 . S
Tb872 O883 2.347 . S
Tb872 O886 2.366 . S
Tb872 O891 2.418 . S
Tb872 O892 2.384 . S
Tb872 O895 2.479 . S
Tb872 O896 2.471 . S
Eu873 O884 2.418 . S
Eu873 O885 2.384 . S
Eu873 O888 2.479 . S
Eu873 O889 2.471 . S
Eu873 O890 2.347 . S
Eu873 O893 2.366 . S
Eu873 C903 2.825 . S
C874 O890 1.259 . S
C874 O891 1.265 . S
C875 O892 1.255 . S
C875 O893 1.265 . S
C876 C878 1.380 . S
C876 C879 1.374 . S
C876 C882 1.507 . S
C877 C878 1.384 . S
C877 C881 1.387 . S
C877 H904 0.930 . S
C878 C876 1.380 . S
C878 C877 1.384 . S
C878 H905 0.931 . S
C879 C876 1.374 . S
C879 C880 1.390 . S
C879 H906 0.930 . S
C880 C879 1.390 . S
C880 C881 1.391 . S
C880 H907 0.930 . S
C881 C877 1.387 . S
C881 C880 1.391 . S
C882 Tb872 2.825 . S
C882 C876 1.507 . S
C882 O895 1.238 . S
C882 O896 1.247 . S
O883 Tb872 2.347 . S
O883 C887 1.259 . S
O884 Eu873 2.418 . S
O884 C887 1.265 . S
O885 Eu873 2.384 . S
O885 C894 1.255 . S
O886 Tb872 2.366 . S
O886 C894 1.265 . S
C887 O883 1.259 . S
C887 O884 1.265 . S
O888 Eu873 2.479 . S
O888 C903 1.238 . S
O889 Eu873 2.471 . S
O889 C903 1.247 . S
O890 Eu873 2.347 . S
O890 C874 1.259 . S
O891 Tb872 2.418 . S
O891 C874 1.265 . S
O892 Tb872 2.384 . S
O892 C875 1.255 . S
O893 Eu873 2.366 . S
O893 C875 1.265 . S
C894 O885 1.255 . S
C894 O886 1.265 . S
O895 Tb872 2.479 . S
O895 C882 1.238 . S
O896 Tb872 2.471 . S
O896 C882 1.247 . S
C897 C900 1.380 . S
C897 C901 1.374 . S
C897 C903 1.507 . S
C898 C899 1.387 . S
C898 C902 1.391 . S
C899 C898 1.387 . S
C899 C900 1.384 . S
C899 H908 0.930 . S
C900 C897 1.380 . S
C900 C899 1.384 . S
C900 H909 0.931 . S
C901 C897 1.374 . S
C901 C902 1.390 . S
C901 H910 0.930 . S
C902 C898 1.391 . S
C902 C901 1.390 . S
C902 H911 0.930 . S
C903 Eu873 2.825 . S
C903 O888 1.238 . S
C903 O889 1.247 . S
C903 C897 1.507 . S
H904 C877 0.930 . S
H905 C878 0.931 . S
H906 C879 0.930 . S
H907 C880 0.930 . S
H908 C899 0.930 . S
H909 C900 0.931 . S
H910 C901 0.930 . S
H911 C902 0.930 . S
Tb912 C922 2.825 1_554 S
Tb912 O923 2.347 1_554 S
Tb912 O926 2.366 . S
Tb912 O931 2.418 . S
Tb912 O932 2.384 . S
Tb912 O935 2.479 . S
Tb912 O936 2.471 1_554 S
Eu913 O924 2.418 1_554 S
Eu913 O925 2.384 . S
Eu913 O928 2.479 . S
Eu913 O929 2.471 . S
Eu913 O930 2.347 . S
Eu913 O933 2.366 . S
Eu913 C943 2.825 . S
C914 O930 1.259 . S
C914 O931 1.265 . S
C915 O932 1.255 . S
C915 O933 1.265 . S
C916 C918 1.380 . S
C916 C919 1.374 . S
C916 C922 1.507 . S
C917 C918 1.384 . S
C917 C921 1.387 . S
C917 H944 0.930 . S
C918 C916 1.380 . S
C918 C917 1.384 . S
C918 H945 0.931 1_556 S
C919 C916 1.374 . S
C919 C920 1.390 . S
C919 H946 0.930 . S
C920 C919 1.390 . S
C920 C921 1.391 . S
C920 H947 0.930 . S
C921 C917 1.387 . S
C921 C920 1.391 . S
C922 Tb912 2.825 1_556 S
C922 C916 1.507 . S
C922 O935 1.238 1_556 S
C922 O936 1.247 . S
O923 Tb912 2.347 1_556 S
O923 C927 1.259 . S
O924 Eu913 2.418 1_556 S
O924 C927 1.265 . S
O925 Eu913 2.384 . S
O925 C934 1.255 . S
O926 Tb912 2.366 . S
O926 C934 1.265 . S
C927 O923 1.259 . S
C927 O924 1.265 . S
O928 Eu913 2.479 . S
O928 C943 1.238 . S
O929 Eu913 2.471 . S
O929 C943 1.247 . S
O930 Eu913 2.347 . S
O930 C914 1.259 . S
O931 Tb912 2.418 . S
O931 C914 1.265 . S
O932 Tb912 2.384 . S
O932 C915 1.255 . S
O933 Eu913 2.366 . S
O933 C915 1.265 . S
C934 O925 1.255 . S
C934 O926 1.265 . S
O935 Tb912 2.479 . S
O935 C922 1.238 1_554 S
O936 Tb912 2.471 1_556 S
O936 C922 1.247 . S
C937 C940 1.380 . S
C937 C941 1.374 . S
C937 C943 1.507 . S
C938 C939 1.387 . S
C938 C942 1.391 . S
C939 C938 1.387 . S
C939 C940 1.384 . S
C939 H948 0.930 . S
C940 C937 1.380 . S
C940 C939 1.384 . S
C940 H949 0.931 . S
C941 C937 1.374 . S
C941 C942 1.390 . S
C941 H950 0.930 . S
C942 C938 1.391 . S
C942 C941 1.390 . S
C942 H951 0.930 . S
C943 Eu913 2.825 . S
C943 O928 1.238 . S
C943 O929 1.247 . S
C943 C937 1.507 . S
H944 C917 0.930 . S
H945 C918 0.931 1_554 S
H946 C919 0.930 . S
H947 C920 0.930 . S
H948 C939 0.930 . S
H949 C940 0.931 . S
H950 C941 0.930 . S
H951 C942 0.930 . S
C952 C953 1.369 . S
C952 C954 1.419 . S
C952 H956 0.930 . S
C953 C952 1.369 . S
C953 C962 1.429 1_455 S
C954 C952 1.419 . S
C954 C955 1.363 . S
C954 H957 0.929 . S
C955 C954 1.363 . S
C955 C961 1.428 1_556 S
H956 C952 0.930 . S
H957 C954 0.929 . S
S958 N959 1.613 1_554 S
S958 N960 1.610 1_655 S
N959 S958 1.613 1_556 S
N959 C962 1.350 . S
N960 S958 1.610 1_455 S
N960 C961 1.351 . S
C961 C955 1.428 1_554 S
C961 N960 1.351 . S
C961 C962 1.434 1_454 S
C962 C953 1.429 1_655 S
C962 N959 1.350 . S
C962 C961 1.434 1_656 S
C963 C964 1.369 . S
C963 C965 1.419 . S
C963 H967 0.930 . S
C964 C963 1.369 . S
C964 C973 1.429 . S
C965 C963 1.419 . S
C965 C966 1.363 . S
C965 H968 0.929 . S
C966 C965 1.363 . S
C966 C972 1.428 . S
H967 C963 0.930 . S
H968 C965 0.929 . S
S969 N970 1.613 . S
S969 N971 1.610 . S
N970 S969 1.613 . S
N970 C973 1.350 . S
N971 S969 1.610 . S
N971 C972 1.351 . S
C972 C966 1.428 . S
C972 N971 1.351 . S
C972 C973 1.434 . S
C973 C964 1.429 . S
C973 N970 1.350 . S
C973 C972 1.434 . S
C974 C975 1.369 . S
C974 C976 1.419 . S
C974 H978 0.930 . S
C975 C974 1.369 . S
C975 C984 1.429 . S
C976 C974 1.419 . S
C976 C977 1.363 . S
C976 H979 0.929 . S
C977 C976 1.363 . S
C977 C983 1.428 . S
H978 C974 0.930 . S
H979 C976 0.929 . S
S980 N981 1.613 . S
S980 N982 1.610 . S
N981 S980 1.613 . S
N981 C984 1.350 . S
N982 S980 1.610 . S
N982 C983 1.351 . S
C983 C977 1.428 . S
C983 N982 1.351 . S
C983 C984 1.434 . S
C984 C975 1.429 . S
C984 N981 1.350 . S
C984 C983 1.434 . S
C985 C986 1.369 . S
C985 C987 1.419 . S
C985 H989 0.930 . S
C986 C985 1.369 . S
C986 C995 1.429 . S
C987 C985 1.419 . S
C987 C988 1.363 . S
C987 H990 0.929 . S
C988 C987 1.363 . S
C988 C994 1.428 . S
H989 C985 0.930 . S
H990 C987 0.929 . S
S991 N992 1.613 . S
S991 N993 1.610 . S
N992 S991 1.613 . S
N992 C995 1.350 . S
N993 S991 1.610 . S
N993 C994 1.351 . S
C994 C988 1.428 . S
C994 N993 1.351 . S
C994 C995 1.434 . S
C995 C986 1.429 . S
C995 N992 1.350 . S
C995 C994 1.434 . S
C996 C997 1.369 . S
C996 C998 1.419 . S
C996 H1000 0.930 . S
C997 C996 1.369 . S
C997 C1006 1.429 . S
C998 C996 1.419 . S
C998 C999 1.363 . S
C998 H1001 0.929 . S
C999 C998 1.363 . S
C999 C1005 1.428 . S
H1000 C996 0.930 . S
H1001 C998 0.929 . S
S1002 N1003 1.613 . S
S1002 N1004 1.610 . S
N1003 S1002 1.613 . S
N1003 C1006 1.350 . S
N1004 S1002 1.610 . S
N1004 C1005 1.351 . S
C1005 C999 1.428 . S
C1005 N1004 1.351 . S
C1005 C1006 1.434 . S
C1006 C997 1.429 . S
C1006 N1003 1.350 . S
C1006 C1005 1.434 . S
C1007 C1008 1.369 . S
C1007 C1009 1.419 . S
C1007 H1011 0.930 . S
C1008 C1007 1.369 . S
C1008 C1017 1.429 . S
C1009 C1007 1.419 . S
C1009 C1010 1.363 . S
C1009 H1012 0.929 . S
C1010 C1009 1.363 . S
C1010 C1016 1.428 . S
H1011 C1007 0.930 . S
H1012 C1009 0.929 . S
S1013 N1014 1.613 . S
S1013 N1015 1.610 . S
N1014 S1013 1.613 . S
N1014 C1017 1.350 . S
N1015 S1013 1.610 . S
N1015 C1016 1.351 . S
C1016 C1010 1.428 . S
C1016 N1015 1.351 . S
C1016 C1017 1.434 . S
C1017 C1008 1.429 . S
C1017 N1014 1.350 . S
C1017 C1016 1.434 . S
C1018 C1019 1.369 . S
C1018 C1020 1.419 . S
C1018 H1022 0.930 . S
C1019 C1018 1.369 . S
C1019 C1028 1.429 . S
C1020 C1018 1.419 . S
C1020 C1021 1.363 . S
C1020 H1023 0.929 . S
C1021 C1020 1.363 . S
C1021 C1027 1.428 . S
H1022 C1018 0.930 . S
H1023 C1020 0.929 . S
S1024 N1025 1.613 . S
S1024 N1026 1.610 . S
N1025 S1024 1.613 . S
N1025 C1028 1.350 . S
N1026 S1024 1.610 . S
N1026 C1027 1.351 . S
C1027 C1021 1.428 . S
C1027 N1026 1.351 . S
C1027 C1028 1.434 . S
C1028 C1019 1.429 . S
C1028 N1025 1.350 . S
C1028 C1027 1.434 . S
C1029 C1030 1.369 . S
C1029 C1031 1.419 . S
C1029 H1033 0.930 . S
C1030 C1029 1.369 . S
C1030 C1039 1.429 . S
C1031 C1029 1.419 . S
C1031 C1032 1.363 . S
C1031 H1034 0.929 . S
C1032 C1031 1.363 . S
C1032 C1038 1.428 . S
H1033 C1029 0.930 . S
H1034 C1031 0.929 . S
S1035 N1036 1.613 . S
S1035 N1037 1.610 . S
N1036 S1035 1.613 . S
N1036 C1039 1.350 . S
N1037 S1035 1.610 . S
N1037 C1038 1.351 . S
C1038 C1032 1.428 . S
C1038 N1037 1.351 . S
C1038 C1039 1.434 . S
C1039 C1030 1.429 . S
C1039 N1036 1.350 . S
C1039 C1038 1.434 . S
C1040 C1041 1.369 . S
C1040 C1042 1.387 1_655 S
C1040 H1044 0.930 . S
C1041 C1040 1.369 . S
C1041 C1050 1.429 . S
C1042 C1040 1.387 1_455 S
C1042 C1043 1.376 . S
C1042 H1045 0.950 . S
C1043 C1042 1.376 . S
C1043 C1049 1.428 1_455 S
H1044 C1040 0.930 . S
H1045 C1042 0.950 . S
S1046 N1047 1.613 . S
S1046 N1048 1.610 1_565 S
N1047 S1046 1.613 . S
N1047 C1050 1.350 1_565 S
N1048 S1046 1.610 1_545 S
N1048 C1049 1.351 . S
C1049 C1043 1.428 1_655 S
C1049 N1048 1.351 . S
C1049 C1050 1.434 . S
C1050 C1041 1.429 . S
C1050 N1047 1.350 1_545 S
C1050 C1049 1.434 . S
C1051 C1052 1.369 . S
C1051 C1053 1.419 . S
C1051 H1055 0.930 . S
C1052 C1051 1.369 . S
C1052 C1061 1.429 . S
C1053 C1051 1.419 . S
C1053 C1054 1.363 . S
C1053 H1056 0.929 . S
C1054 C1053 1.363 . S
C1054 C1060 1.428 . S
H1055 C1051 0.930 . S
H1056 C1053 0.929 . S
S1057 N1058 1.613 . S
S1057 N1059 1.610 . S
N1058 S1057 1.613 . S
N1058 C1061 1.350 . S
N1059 S1057 1.610 . S
N1059 C1060 1.351 . S
C1060 C1054 1.428 . S
C1060 N1059 1.351 . S
C1060 C1061 1.434 . S
C1061 C1052 1.429 . S
C1061 N1058 1.350 . S
C1061 C1060 1.434 . S
C1062 C1063 1.369 . S
C1062 C1064 1.419 . S
C1062 H1066 0.930 . S
C1063 C1062 1.369 . S
C1063 C1072 1.429 1_545 S
C1064 C1062 1.419 . S
C1064 C1065 1.363 . S
C1064 H1067 0.929 . S
C1065 C1064 1.363 . S
C1065 C1071 1.428 . S
H1066 C1062 0.930 . S
H1067 C1064 0.929 . S
S1068 N1069 1.613 . S
S1068 N1070 1.610 . S
N1069 S1068 1.613 . S
N1069 C1072 1.350 . S
N1070 S1068 1.610 . S
N1070 C1071 1.351 1_565 S
C1071 C1065 1.428 . S
C1071 N1070 1.351 1_545 S
C1071 C1072 1.434 1_545 S
C1072 C1063 1.429 1_565 S
C1072 N1069 1.350 . S
C1072 C1071 1.434 1_565 S
C1073 C1074 1.369 . S
C1073 C1075 1.419 . S
C1073 H1077 0.930 . S
C1074 C1073 1.369 . S
C1074 C1083 1.429 . S
C1075 C1073 1.419 . S
C1075 C1076 1.363 . S
C1075 H1078 0.929 . S
C1076 C1075 1.363 . S
C1076 C1082 1.428 . S
H1077 C1073 0.930 . S
H1078 C1075 0.929 . S
S1079 N1080 1.613 . S
S1079 N1081 1.610 . S
N1080 S1079 1.613 . S
N1080 C1083 1.350 . S
N1081 S1079 1.610 . S
N1081 C1082 1.351 . S
C1082 C1076 1.428 . S
C1082 N1081 1.351 . S
C1082 C1083 1.434 . S
C1083 C1074 1.429 . S
C1083 N1080 1.350 . S
C1083 C1082 1.434 . S
C1084 C1085 1.369 . S
C1084 C1086 1.419 . S
C1084 H1088 0.930 . S
C1085 C1084 1.369 . S
C1085 C1094 1.429 . S
C1086 C1084 1.419 . S
C1086 C1087 1.363 . S
C1086 H1089 0.929 . S
C1087 C1086 1.363 . S
C1087 C1093 1.428 . S
H1088 C1084 0.930 . S
H1089 C1086 0.929 . S
S1090 N1091 1.613 1_455 S
S1090 N1092 1.610 1_565 S
N1091 S1090 1.613 1_655 S
N1091 C1094 1.350 1_565 S
N1092 S1090 1.610 1_545 S
N1092 C1093 1.351 1_455 S
C1093 C1087 1.428 . S
C1093 N1092 1.351 1_655 S
C1093 C1094 1.434 . S
C1094 C1085 1.429 . S
C1094 N1091 1.350 1_545 S
C1094 C1093 1.434 . S
C1095 C1096 1.369 . S
C1095 C1097 1.419 . S
C1095 H1099 0.930 . S
C1096 C1095 1.369 . S
C1096 C1105 1.429 . S
C1097 C1095 1.419 . S
C1097 C1098 1.363 . S
C1097 H1100 0.929 . S
C1098 C1097 1.363 . S
C1098 C1104 1.428 . S
H1099 C1095 0.930 . S
H1100 C1097 0.929 . S
S1101 N1102 1.613 . S
S1101 N1103 1.610 . S
N1102 S1101 1.613 . S
N1102 C1105 1.350 . S
N1103 S1101 1.610 . S
N1103 C1104 1.351 . S
C1104 C1098 1.428 . S
C1104 N1103 1.351 . S
C1104 C1105 1.434 . S
C1105 C1096 1.429 . S
C1105 N1102 1.350 . S
C1105 C1104 1.434 . S
C1106 C1107 1.369 . S
C1106 C1108 1.419 . S
C1106 H1110 0.930 1_545 S
C1107 C1106 1.369 . S
C1107 C1116 1.429 . S
C1108 C1106 1.419 . S
C1108 C1109 1.363 . S
C1108 H1111 0.929 . S
C1109 C1108 1.363 . S
C1109 C1115 1.428 . S
H1110 C1106 0.930 1_565 S
H1111 C1108 0.929 . S
S1112 N1113 1.613 . S
S1112 N1114 1.610 . S
N1113 S1112 1.613 . S
N1113 C1116 1.350 . S
N1114 S1112 1.610 . S
N1114 C1115 1.351 . S
C1115 C1109 1.428 . S
C1115 N1114 1.351 . S
C1115 C1116 1.434 . S
C1116 C1107 1.429 . S
C1116 N1113 1.350 . S
C1116 C1115 1.434 . S
C1117 C1118 1.369 . S
C1117 C1119 1.419 . S
C1117 H1121 0.930 . S
C1118 C1117 1.369 . S
C1118 C1127 1.429 . S
C1119 C1117 1.419 . S
C1119 C1120 1.363 . S
C1119 H1122 0.929 . S
C1120 C1119 1.363 . S
C1120 C1126 1.428 . S
H1121 C1117 0.930 . S
H1122 C1119 0.929 . S
S1123 N1124 1.613 . S
S1123 N1125 1.610 . S
N1124 S1123 1.613 . S
N1124 C1127 1.350 . S
N1125 S1123 1.610 . S
N1125 C1126 1.351 . S
C1126 C1120 1.428 . S
C1126 N1125 1.351 . S
C1126 C1127 1.434 . S
C1127 C1118 1.429 . S
C1127 N1124 1.350 . S
C1127 C1126 1.434 . S
C1128 C1129 1.369 . S
C1128 C1130 1.419 . S
C1128 H1132 0.930 . S
C1129 C1128 1.369 . S
C1129 C1138 1.429 . S
C1130 C1128 1.419 . S
C1130 C1131 1.363 . S
C1130 H1133 0.929 . S
C1131 C1130 1.363 . S
C1131 C1137 1.428 . S
H1132 C1128 0.930 . S
H1133 C1130 0.929 . S
S1134 N1135 1.613 1_545 S
S1134 N1136 1.610 . S
N1135 S1134 1.613 1_565 S
N1135 C1138 1.350 . S
N1136 S1134 1.610 . S
N1136 C1137 1.351 1_545 S
C1137 C1131 1.428 . S
C1137 N1136 1.351 1_565 S
C1137 C1138 1.434 . S
C1138 C1129 1.429 . S
C1138 N1135 1.350 . S
C1138 C1137 1.434 . S
C1139 C1140 1.369 . S
C1139 C1141 1.419 . S
C1139 H1143 0.930 . S
C1140 C1139 1.369 . S
C1140 C1149 1.429 . S
C1141 C1139 1.419 . S
C1141 C1142 1.363 . S
C1141 H1144 0.929 . S
C1142 C1141 1.363 . S
C1142 C1148 1.428 . S
H1143 C1139 0.930 . S
H1144 C1141 0.929 . S
S1145 N1146 1.613 . S
S1145 N1147 1.610 . S
N1146 S1145 1.613 . S
N1146 C1149 1.350 . S
N1147 S1145 1.610 . S
N1147 C1148 1.351 . S
C1148 C1142 1.428 . S
C1148 N1147 1.351 . S
C1148 C1149 1.434 . S
C1149 C1140 1.429 . S
C1149 N1146 1.350 . S
C1149 C1148 1.434 . S
C1150 C1151 1.369 . S
C1150 C1152 1.419 . S
C1150 H1154 0.930 . S
C1151 C1150 1.369 . S
C1151 C1160 1.429 . S
C1152 C1150 1.419 . S
C1152 C1153 1.363 . S
C1152 H1155 0.929 . S
C1153 C1152 1.363 . S
C1153 C1159 1.428 . S
H1154 C1150 0.930 . S
H1155 C1152 0.929 . S
S1156 N1157 1.613 . S
S1156 N1158 1.610 . S
N1157 S1156 1.613 . S
N1157 C1160 1.350 . S
N1158 S1156 1.610 . S
N1158 C1159 1.351 . S
C1159 C1153 1.428 . S
C1159 N1158 1.351 . S
C1159 C1160 1.434 . S
C1160 C1151 1.429 . S
C1160 N1157 1.350 . S
C1160 C1159 1.434 . S
C1161 C1162 1.369 . S
C1161 C1163 1.419 . S
C1161 H1165 0.930 . S
C1162 C1161 1.369 . S
C1162 C1171 1.429 . S
C1163 C1161 1.419 . S
C1163 C1164 1.363 . S
C1163 H1166 0.929 . S
C1164 C1163 1.363 . S
C1164 C1170 1.428 . S
H1165 C1161 0.930 . S
H1166 C1163 0.929 . S
S1167 N1168 1.613 . S
S1167 N1169 1.610 . S
N1168 S1167 1.613 . S
N1168 C1171 1.350 . S
N1169 S1167 1.610 . S
N1169 C1170 1.351 . S
C1170 C1164 1.428 . S
C1170 N1169 1.351 . S
C1170 C1171 1.434 . S
C1171 C1162 1.429 . S
C1171 N1168 1.350 . S
C1171 C1170 1.434 . S
C1172 C1173 1.369 . S
C1172 C1174 1.419 . S
C1172 H1176 0.930 . S
C1173 C1172 1.369 . S
C1173 C1182 1.429 . S
C1174 C1172 1.419 . S
C1174 C1175 1.363 . S
C1174 H1177 0.929 . S
C1175 C1174 1.363 . S
C1175 C1181 1.428 . S
H1176 C1172 0.930 . S
H1177 C1174 0.929 . S
S1178 N1179 1.613 . S
S1178 N1180 1.610 . S
N1179 S1178 1.613 . S
N1179 C1182 1.350 . S
N1180 S1178 1.610 . S
N1180 C1181 1.351 . S
C1181 C1175 1.428 . S
C1181 N1180 1.351 . S
C1181 C1182 1.434 . S
C1182 C1173 1.429 . S
C1182 N1179 1.350 . S
C1182 C1181 1.434 . S
C1183 C1184 1.369 . S
C1183 C1185 1.419 . S
C1183 H1187 0.930 . S
C1184 C1183 1.369 . S
C1184 C1193 1.429 . S
C1185 C1183 1.419 . S
C1185 C1186 1.363 . S
C1185 H1188 0.929 . S
C1186 C1185 1.363 . S
C1186 C1192 1.428 . S
H1187 C1183 0.930 . S
H1188 C1185 0.929 . S
S1189 N1190 1.613 . S
S1189 N1191 1.610 . S
N1190 S1189 1.613 . S
N1190 C1193 1.350 . S
N1191 S1189 1.610 . S
N1191 C1192 1.351 . S
C1192 C1186 1.428 . S
C1192 N1191 1.351 . S
C1192 C1193 1.434 . S
C1193 C1184 1.429 . S
C1193 N1190 1.350 . S
C1193 C1192 1.434 . S
C1194 C1195 1.369 . S
C1194 C1196 1.419 . S
C1194 H1198 0.930 . S
C1195 C1194 1.369 . S
C1195 C1204 1.429 . S
C1196 C1194 1.419 . S
C1196 C1197 1.363 . S
C1196 H1199 0.929 . S
C1197 C1196 1.363 . S
C1197 C1203 1.428 . S
H1198 C1194 0.930 . S
H1199 C1196 0.929 . S
S1200 N1201 1.613 . S
S1200 N1202 1.610 . S
N1201 S1200 1.613 . S
N1201 C1204 1.350 . S
N1202 S1200 1.610 . S
N1202 C1203 1.351 . S
C1203 C1197 1.428 . S
C1203 N1202 1.351 . S
C1203 C1204 1.434 . S
C1204 C1195 1.429 . S
C1204 N1201 1.350 . S
C1204 C1203 1.434 . S
C1205 C1206 1.369 . S
C1205 C1207 1.419 . S
C1205 H1209 0.930 . S
C1206 C1205 1.369 . S
C1206 C1215 1.429 . S
C1207 C1205 1.419 . S
C1207 C1208 1.363 . S
C1207 H1210 0.929 . S
C1208 C1207 1.363 . S
C1208 C1214 1.428 . S
H1209 C1205 0.930 . S
H1210 C1207 0.929 . S
S1211 N1212 1.613 . S
S1211 N1213 1.610 1_455 S
N1212 S1211 1.613 . S
N1212 C1215 1.350 1_455 S
N1213 S1211 1.610 1_655 S
N1213 C1214 1.351 . S
C1214 C1208 1.428 . S
C1214 N1213 1.351 . S
C1214 C1215 1.434 . S
C1215 C1206 1.429 . S
C1215 N1212 1.350 1_655 S
C1215 C1214 1.434 . S
C1216 C1217 1.369 . S
C1216 C1218 1.419 . S
C1216 H1220 0.930 . S
C1217 C1216 1.369 . S
C1217 C1226 1.429 . S
C1218 C1216 1.419 . S
C1218 C1219 1.363 . S
C1218 H1221 0.929 . S
C1219 C1218 1.363 . S
C1219 C1225 1.428 . S
H1220 C1216 0.930 . S
H1221 C1218 0.929 . S
S1222 N1223 1.613 . S
S1222 N1224 1.610 . S
N1223 S1222 1.613 . S
N1223 C1226 1.350 . S
N1224 S1222 1.610 . S
N1224 C1225 1.351 . S
C1225 C1219 1.428 . S
C1225 N1224 1.351 . S
C1225 C1226 1.434 . S
C1226 C1217 1.429 . S
C1226 N1223 1.350 . S
C1226 C1225 1.434 . S
C1227 C1228 1.369 . S
C1227 C1229 1.419 . S
C1227 H1231 0.930 . S
C1228 C1227 1.369 . S
C1228 C1237 1.429 . S
C1229 C1227 1.419 . S
C1229 C1230 1.363 . S
C1229 H1232 0.929 . S
C1230 C1229 1.363 . S
C1230 C1236 1.428 . S
H1231 C1227 0.930 . S
H1232 C1229 0.929 . S
S1233 N1234 1.613 . S
S1233 N1235 1.610 . S
N1234 S1233 1.613 . S
N1234 C1237 1.350 . S
N1235 S1233 1.610 . S
N1235 C1236 1.351 . S
C1236 C1230 1.428 . S
C1236 N1235 1.351 . S
C1236 C1237 1.434 . S
C1237 C1228 1.429 . S
C1237 N1234 1.350 . S
C1237 C1236 1.434 . S
C1238 C1239 1.369 . S
C1238 C1240 1.419 . S
C1238 H1242 0.930 . S
C1239 C1238 1.369 . S
C1239 C1248 1.429 . S
C1240 C1238 1.419 . S
C1240 C1241 1.363 . S
C1240 H1243 0.929 . S
C1241 C1240 1.363 . S
C1241 C1247 1.428 . S
H1242 C1238 0.930 . S
H1243 C1240 0.929 . S
S1244 N1245 1.613 . S
S1244 N1246 1.610 . S
N1245 S1244 1.613 . S
N1245 C1248 1.350 . S
N1246 S1244 1.610 . S
N1246 C1247 1.351 . S
C1247 C1241 1.428 . S
C1247 N1246 1.351 . S
C1247 C1248 1.434 . S
C1248 C1239 1.429 . S
C1248 N1245 1.350 . S
C1248 C1247 1.434 . S
C1249 C1250 1.369 . S
C1249 C1251 1.419 . S
C1249 H1253 0.930 . S
C1250 C1249 1.369 . S
C1250 C1259 1.429 . S
C1251 C1249 1.419 . S
C1251 C1252 1.363 . S
C1251 H1254 0.929 . S
C1252 C1251 1.363 . S
C1252 C1258 1.428 . S
H1253 C1249 0.930 . S
H1254 C1251 0.929 . S
S1255 N1256 1.613 . S
S1255 N1257 1.610 . S
N1256 S1255 1.613 . S
N1256 C1259 1.350 . S
N1257 S1255 1.610 . S
N1257 C1258 1.351 . S
C1258 C1252 1.428 . S
C1258 N1257 1.351 . S
C1258 C1259 1.434 . S
C1259 C1250 1.429 . S
C1259 N1256 1.350 . S
C1259 C1258 1.434 . S
C1260 C1261 1.369 . S
C1260 C1262 1.419 . S
C1260 H1264 0.930 . S
C1261 C1260 1.369 . S
C1261 C1270 1.429 . S
C1262 C1260 1.419 . S
C1262 C1263 1.363 . S
C1262 H1265 0.929 . S
C1263 C1262 1.363 . S
C1263 C1269 1.428 . S
H1264 C1260 0.930 . S
H1265 C1262 0.929 . S
S1266 N1267 1.626 . S
S1266 N1268 1.626 . S
N1267 S1266 1.626 . S
N1267 C1270 1.350 . S
N1268 S1266 1.626 . S
N1268 C1269 1.351 . S
C1269 C1263 1.428 . S
C1269 N1268 1.351 . S
C1269 C1270 1.434 . S
C1270 C1261 1.429 . S
C1270 N1267 1.350 . S
C1270 C1269 1.434 . S
C1271 C1272 1.369 . S
C1271 C1273 1.419 . S
C1271 H1275 0.930 . S
C1272 C1271 1.369 . S
C1272 C1281 1.429 . S
C1273 C1271 1.419 . S
C1273 C1274 1.363 . S
C1273 H1276 0.929 . S
C1274 C1273 1.363 . S
C1274 C1280 1.428 . S
H1275 C1271 0.930 . S
H1276 C1273 0.929 . S
S1277 N1278 1.613 . S
S1277 N1279 1.610 . S
N1278 S1277 1.613 . S
N1278 C1281 1.350 . S
N1279 S1277 1.610 . S
N1279 C1280 1.351 . S
C1280 C1274 1.428 . S
C1280 N1279 1.351 . S
C1280 C1281 1.434 . S
C1281 C1272 1.429 . S
C1281 N1278 1.350 . S
C1281 C1280 1.434 . S
C1282 C1283 1.369 . S
C1282 C1284 1.419 . S
C1282 H1286 0.930 . S
C1283 C1282 1.369 . S
C1283 C1292 1.429 . S
C1284 C1282 1.419 . S
C1284 C1285 1.363 . S
C1284 H1287 0.929 . S
C1285 C1284 1.363 . S
C1285 C1291 1.428 1_556 S
H1286 C1282 0.930 . S
H1287 C1284 0.929 . S
S1288 N1289 1.625 . S
S1288 N1290 1.610 . S
N1289 S1288 1.625 . S
N1289 C1292 1.344 1_554 S
N1290 S1288 1.610 . S
N1290 C1291 1.351 . S
C1291 C1285 1.428 1_554 S
C1291 N1290 1.351 . S
C1291 C1292 1.434 1_554 S
C1292 C1283 1.429 . S
C1292 N1289 1.344 1_556 S
C1292 C1291 1.434 1_556 S
C1293 C1294 1.369 . S
C1293 C1295 1.419 . S
C1293 H1297 0.930 . S
C1294 C1293 1.369 . S
C1294 C1303 1.429 . S
C1295 C1293 1.419 . S
C1295 C1296 1.363 . S
C1295 H1298 0.929 . S
C1296 C1295 1.363 . S
C1296 C1302 1.428 . S
H1297 C1293 0.930 . S
H1298 C1295 0.929 . S
S1299 N1300 1.613 . S
S1299 N1301 1.610 . S
N1300 S1299 1.613 . S
N1300 C1303 1.350 . S
N1301 S1299 1.610 . S
N1301 C1302 1.351 . S
C1302 C1296 1.428 . S
C1302 N1301 1.351 . S
C1302 C1303 1.434 . S
C1303 C1294 1.429 . S
C1303 N1300 1.350 . S
C1303 C1302 1.434 . S
C1304 C1305 1.369 . S
C1304 C1306 1.419 . S
C1304 H1308 0.930 . S
C1305 C1304 1.369 . S
C1305 C1314 1.429 . S
C1306 C1304 1.419 . S
C1306 C1307 1.363 . S
C1306 H1309 0.929 . S
C1307 C1306 1.363 . S
C1307 C1313 1.428 . S
H1308 C1304 0.930 . S
H1309 C1306 0.929 . S
S1310 N1311 1.613 1_554 S
S1310 N1312 1.610 . S
N1311 S1310 1.613 1_556 S
N1311 C1314 1.350 . S
N1312 S1310 1.610 . S
N1312 C1313 1.351 1_554 S
C1313 C1307 1.428 . S
C1313 N1312 1.351 1_556 S
C1313 C1314 1.434 . S
C1314 C1305 1.429 . S
C1314 N1311 1.350 . S
C1314 C1313 1.434 . S
C1315 C1316 1.369 . S
C1315 C1317 1.419 . S
C1315 H1319 0.930 . S
C1316 C1315 1.369 . S
C1316 C1325 1.429 . S
C1317 C1315 1.419 . S
C1317 C1318 1.363 . S
C1317 H1320 0.929 . S
C1318 C1317 1.363 . S
C1318 C1324 1.428 . S
H1319 C1315 0.930 . S
H1320 C1317 0.929 . S
S1321 N1322 1.613 . S
S1321 N1323 1.610 . S
N1322 S1321 1.613 . S
N1322 C1325 1.350 . S
N1323 S1321 1.610 . S
N1323 C1324 1.351 . S
C1324 C1318 1.428 . S
C1324 N1323 1.351 . S
C1324 C1325 1.434 . S
C1325 C1316 1.429 . S
C1325 N1322 1.350 . S
C1325 C1324 1.434 . S
C1326 C1327 1.369 . S
C1326 C1328 1.419 . S
C1326 H1330 0.930 . S
C1327 C1326 1.369 . S
C1327 C1336 1.429 . S
C1328 C1326 1.419 . S
C1328 C1329 1.363 . S
C1328 H1331 0.929 . S
C1329 C1328 1.363 . S
C1329 C1335 1.428 . S
H1330 C1326 0.930 . S
H1331 C1328 0.929 . S
S1332 N1333 1.613 . S
S1332 N1334 1.610 . S
N1333 S1332 1.613 . S
N1333 C1336 1.350 . S
N1334 S1332 1.610 . S
N1334 C1335 1.351 . S
C1335 C1329 1.428 . S
C1335 N1334 1.351 . S
C1335 C1336 1.434 . S
C1336 C1327 1.429 . S
C1336 N1333 1.350 . S
C1336 C1335 1.434 . S
C1337 C1338 1.369 . S
C1337 C1339 1.419 . S
C1337 H1341 0.930 . S
C1338 C1337 1.369 . S
C1338 C1347 1.429 . S
C1339 C1337 1.419 . S
C1339 C1340 1.363 . S
C1339 H1342 0.929 . S
C1340 C1339 1.363 . S
C1340 C1346 1.428 . S
H1341 C1337 0.930 . S
H1342 C1339 0.929 . S
S1343 N1344 1.613 . S
S1343 N1345 1.610 . S
N1344 S1343 1.613 . S
N1344 C1347 1.350 . S
N1345 S1343 1.610 . S
N1345 C1346 1.351 . S
C1346 C1340 1.428 . S
C1346 N1345 1.351 . S
C1346 C1347 1.434 . S
C1347 C1338 1.429 . S
C1347 N1344 1.350 . S
C1347 C1346 1.434 . S
C1348 C1349 1.369 . S
C1348 C1350 1.419 . S
C1348 H1352 0.930 . S
C1349 C1348 1.369 . S
C1349 C1358 1.429 . S
C1350 C1348 1.419 . S
C1350 C1351 1.363 . S
C1350 H1353 0.929 . S
C1351 C1350 1.363 . S
C1351 C1357 1.428 . S
H1352 C1348 0.930 . S
H1353 C1350 0.929 . S
S1354 N1355 1.613 . S
S1354 N1356 1.610 . S
N1355 S1354 1.613 . S
N1355 C1358 1.350 . S
N1356 S1354 1.610 . S
N1356 C1357 1.351 . S
C1357 C1351 1.428 . S
C1357 N1356 1.351 . S
C1357 C1358 1.434 . S
C1358 C1349 1.429 . S
C1358 N1355 1.350 . S
C1358 C1357 1.434 . S
C1359 C1360 1.369 . S
C1359 C1361 1.419 . S
C1359 H1363 0.930 . S
C1360 C1359 1.369 . S
C1360 C1369 1.429 . S
C1361 C1359 1.419 . S
C1361 C1362 1.363 . S
C1361 H1364 0.929 . S
C1362 C1361 1.363 . S
C1362 C1368 1.428 . S
H1363 C1359 0.930 . S
H1364 C1361 0.929 . S
S1365 N1366 1.613 . S
S1365 N1367 1.610 . S
N1366 S1365 1.613 . S
N1366 C1369 1.350 . S
N1367 S1365 1.610 . S
N1367 C1368 1.351 . S
C1368 C1362 1.428 . S
C1368 N1367 1.351 . S
C1368 C1369 1.434 . S
C1369 C1360 1.429 . S
C1369 N1366 1.350 . S
C1369 C1368 1.434 . S
C1370 C1371 1.369 . S
C1370 C1372 1.419 . S
C1370 H1374 0.930 . S
C1371 C1370 1.369 . S
C1371 C1380 1.429 . S
C1372 C1370 1.419 . S
C1372 C1373 1.363 . S
C1372 H1375 0.929 . S
C1373 C1372 1.363 . S
C1373 C1379 1.428 . S
H1374 C1370 0.930 . S
H1375 C1372 0.929 . S
S1376 N1377 1.613 . S
S1376 N1378 1.610 . S
N1377 S1376 1.613 . S
N1377 C1380 1.350 . S
N1378 S1376 1.610 . S
N1378 C1379 1.351 . S
C1379 C1373 1.428 . S
C1379 N1378 1.351 . S
C1379 C1380 1.434 . S
C1380 C1371 1.429 . S
C1380 N1377 1.350 . S
C1380 C1379 1.434 . S
C1381 C1382 1.369 . S
C1381 C1383 1.419 . S
C1381 H1385 0.930 . S
C1382 C1381 1.369 . S
C1382 C1391 1.429 . S
C1383 C1381 1.419 . S
C1383 C1384 1.363 . S
C1383 H1386 0.929 . S
C1384 C1383 1.363 . S
C1384 C1390 1.428 . S
H1385 C1381 0.930 . S
H1386 C1383 0.929 . S
S1387 N1388 1.613 . S
S1387 N1389 1.610 . S
N1388 S1387 1.613 . S
N1388 C1391 1.350 . S
N1389 S1387 1.610 . S
N1389 C1390 1.351 . S
C1390 C1384 1.428 . S
C1390 N1389 1.351 . S
C1390 C1391 1.434 . S
C1391 C1382 1.429 . S
C1391 N1388 1.350 . S
C1391 C1390 1.434 . S
C1392 C1393 1.369 . S
C1392 C1394 1.419 . S
C1392 H1396 0.930 . S
C1393 C1392 1.369 . S
C1393 C1402 1.429 . S
C1394 C1392 1.419 . S
C1394 C1395 1.363 . S
C1394 H1397 0.929 . S
C1395 C1394 1.363 . S
C1395 C1401 1.428 . S
H1396 C1392 0.930 . S
H1397 C1394 0.929 . S
S1398 N1399 1.613 . S
S1398 N1400 1.610 . S
N1399 S1398 1.613 . S
N1399 C1402 1.350 . S
N1400 S1398 1.610 . S
N1400 C1401 1.351 . S
C1401 C1395 1.428 . S
C1401 N1400 1.351 . S
C1401 C1402 1.434 . S
C1402 C1393 1.429 . S
C1402 N1399 1.350 . S
C1402 C1401 1.434 . S
C1403 C1404 1.369 . S
C1403 C1405 1.419 . S
C1403 H1407 0.930 . S
C1404 C1403 1.369 . S
C1404 C1413 1.429 . S
C1405 C1403 1.419 . S
C1405 C1406 1.363 . S
C1405 H1408 0.929 . S
C1406 C1405 1.363 . S
C1406 C1412 1.428 . S
H1407 C1403 0.930 . S
H1408 C1405 0.929 . S
S1409 N1410 1.613 1_556 S
S1409 N1411 1.610 1_556 S
N1410 S1409 1.613 1_554 S
N1410 C1413 1.350 . S
N1411 S1409 1.610 1_554 S
N1411 C1412 1.351 . S
C1412 C1406 1.428 . S
C1412 N1411 1.351 . S
C1412 C1413 1.434 . S
C1413 C1404 1.429 . S
C1413 N1410 1.350 . S
C1413 C1412 1.434 . S
C1414 C1415 1.369 . S
C1414 C1416 1.419 . S
C1414 H1418 0.930 . S
C1415 C1414 1.369 . S
C1415 C1424 1.429 . S
C1416 C1414 1.419 . S
C1416 C1417 1.363 . S
C1416 H1419 0.929 . S
C1417 C1416 1.363 . S
C1417 C1423 1.428 . S
H1418 C1414 0.930 . S
H1419 C1416 0.929 . S
S1420 N1421 1.613 . S
S1420 N1422 1.610 . S
N1421 S1420 1.613 . S
N1421 C1424 1.350 . S
N1422 S1420 1.610 . S
N1422 C1423 1.351 . S
C1423 C1417 1.428 . S
C1423 N1422 1.351 . S
C1423 C1424 1.434 . S
C1424 C1415 1.429 . S
C1424 N1421 1.350 . S
C1424 C1423 1.434 . S
C1425 C1426 1.369 . S
C1425 C1427 1.419 . S
C1425 H1429 0.930 . S
C1426 C1425 1.369 . S
C1426 C1435 1.429 . S
C1427 C1425 1.419 . S
C1427 C1428 1.363 . S
C1427 H1430 0.929 . S
C1428 C1427 1.363 . S
C1428 C1434 1.428 . S
H1429 C1425 0.930 . S
H1430 C1427 0.929 . S
S1431 N1432 1.613 . S
S1431 N1433 1.610 . S
N1432 S1431 1.613 . S
N1432 C1435 1.350 . S
N1433 S1431 1.610 . S
N1433 C1434 1.351 . S
C1434 C1428 1.428 . S
C1434 N1433 1.351 . S
C1434 C1435 1.434 . S
C1435 C1426 1.429 . S
C1435 N1432 1.350 . S
C1435 C1434 1.434 . S
C1436 C1437 1.369 . S
C1436 C1438 1.419 . S
C1436 H1440 0.930 . S
C1437 C1436 1.369 . S
C1437 C1446 1.429 . S
C1438 C1436 1.419 . S
C1438 C1439 1.363 . S
C1438 H1441 0.929 . S
C1439 C1438 1.363 . S
C1439 C1445 1.428 . S
H1440 C1436 0.930 . S
H1441 C1438 0.929 . S
S1442 N1443 1.613 . S
S1442 N1444 1.610 . S
N1443 S1442 1.613 . S
N1443 C1446 1.350 . S
N1444 S1442 1.610 . S
N1444 C1445 1.351 . S
C1445 C1439 1.428 . S
C1445 N1444 1.351 . S
C1445 C1446 1.434 . S
C1446 C1437 1.429 . S
C1446 N1443 1.350 . S
C1446 C1445 1.434 . S
C1447 C1448 1.369 . S
C1447 C1449 1.419 . S
C1447 H1451 0.930 . S
C1448 C1447 1.369 . S
C1448 C1457 1.429 1_565 S
C1449 C1447 1.419 . S
C1449 C1450 1.363 1_565 S
C1449 H1452 0.929 . S
C1450 C1449 1.363 1_545 S
C1450 C1456 1.428 . S
H1451 C1447 0.930 . S
H1452 C1449 0.929 . S
S1453 N1454 1.613 . S
S1453 N1455 1.610 . S
N1454 S1453 1.613 . S
N1454 C1457 1.350 . S
N1455 S1453 1.610 . S
N1455 C1456 1.351 . S
C1456 C1450 1.428 . S
C1456 N1455 1.351 . S
C1456 C1457 1.434 . S
C1457 C1448 1.429 1_545 S
C1457 N1454 1.350 . S
C1457 C1456 1.434 . S
C1458 C1459 1.369 . S
C1458 C1460 1.419 . S
C1458 H1462 0.930 . S
C1459 C1458 1.369 . S
C1459 C1468 1.429 . S
C1460 C1458 1.419 . S
C1460 C1461 1.363 . S
C1460 H1463 0.929 . S
C1461 C1460 1.363 . S
C1461 C1467 1.428 . S
H1462 C1458 0.930 . S
H1463 C1460 0.929 . S
S1464 N1465 1.613 . S
S1464 N1466 1.610 . S
N1465 S1464 1.613 . S
N1465 C1468 1.350 . S
N1466 S1464 1.610 . S
N1466 C1467 1.351 . S
C1467 C1461 1.428 . S
C1467 N1466 1.351 . S
C1467 C1468 1.434 . S
C1468 C1459 1.429 . S
C1468 N1465 1.350 . S
C1468 C1467 1.434 . S
C1469 C1470 1.369 . S
C1469 C1471 1.419 . S
C1469 H1473 0.930 . S
C1470 C1469 1.369 . S
C1470 C1479 1.429 . S
C1471 C1469 1.419 . S
C1471 C1472 1.363 . S
C1471 H1474 0.929 . S
C1472 C1471 1.363 . S
C1472 C1478 1.428 . S
H1473 C1469 0.930 . S
H1474 C1471 0.929 . S
S1475 N1476 1.613 . S
S1475 N1477 1.610 . S
N1476 S1475 1.613 . S
N1476 C1479 1.350 . S
N1477 S1475 1.610 . S
N1477 C1478 1.351 . S
C1478 C1472 1.428 . S
C1478 N1477 1.351 . S
C1478 C1479 1.434 . S
C1479 C1470 1.429 . S
C1479 N1476 1.350 . S
C1479 C1478 1.434 . S
C1480 C1481 1.369 . S
C1480 C1482 1.419 . S
C1480 H1484 0.930 . S
C1481 C1480 1.369 . S
C1481 C1490 1.429 . S
C1482 C1480 1.419 . S
C1482 C1483 1.363 . S
C1482 H1485 0.929 . S
C1483 C1482 1.363 . S
C1483 C1489 1.428 . S
H1484 C1480 0.930 . S
H1485 C1482 0.929 . S
S1486 N1487 1.613 . S
S1486 N1488 1.610 . S
N1487 S1486 1.613 . S
N1487 C1490 1.350 . S
N1488 S1486 1.610 . S
N1488 C1489 1.351 . S
C1489 C1483 1.428 . S
C1489 N1488 1.351 . S
C1489 C1490 1.434 . S
C1490 C1481 1.429 . S
C1490 N1487 1.350 . S
C1490 C1489 1.434 . S
C1491 C1492 1.369 . S
C1491 C1493 1.419 . S
C1491 H1495 0.930 . S
C1492 C1491 1.369 . S
C1492 C1501 1.429 . S
C1493 C1491 1.419 . S
C1493 C1494 1.363 . S
C1493 H1496 0.929 . S
C1494 C1493 1.363 . S
C1494 C1500 1.428 . S
H1495 C1491 0.930 . S
H1496 C1493 0.929 . S
S1497 N1498 1.613 . S
S1497 N1499 1.610 . S
N1498 S1497 1.613 . S
N1498 C1501 1.350 . S
N1499 S1497 1.610 . S
N1499 C1500 1.351 . S
C1500 C1494 1.428 . S
C1500 N1499 1.351 . S
C1500 C1501 1.434 . S
C1501 C1492 1.429 . S
C1501 N1498 1.350 . S
C1501 C1500 1.434 . S
C1502 C1503 1.369 . S
C1502 C1504 1.419 . S
C1502 H1506 0.930 . S
C1503 C1502 1.369 . S
C1503 C1512 1.429 . S
C1504 C1502 1.419 . S
C1504 C1505 1.363 . S
C1504 H1507 0.929 . S
C1505 C1504 1.363 . S
C1505 C1511 1.428 . S
H1506 C1502 0.930 . S
H1507 C1504 0.929 . S
S1508 N1509 1.627 . S
S1508 N1510 1.625 . S
N1509 S1508 1.627 . S
N1509 C1512 1.350 1_655 S
N1510 S1508 1.625 . S
N1510 C1511 1.351 1_655 S
C1511 C1505 1.428 . S
C1511 N1510 1.351 1_455 S
C1511 C1512 1.434 . S
C1512 C1503 1.429 . S
C1512 N1509 1.350 1_455 S
C1512 C1511 1.434 . S
C1513 C1514 1.369 . S
C1513 C1515 1.419 . S
C1513 H1517 0.930 . S
C1514 C1513 1.369 . S
C1514 C1523 1.429 . S
C1515 C1513 1.419 . S
C1515 C1516 1.363 1_455 S
C1515 H1518 0.929 . S
C1516 C1515 1.363 1_655 S
C1516 C1522 1.423 . S
H1517 C1513 0.930 . S
H1518 C1515 0.929 . S
S1519 N1520 1.613 1_655 S
S1519 N1521 1.610 . S
N1520 S1519 1.613 1_455 S
N1520 C1523 1.350 . S
N1521 S1519 1.610 . S
N1521 C1522 1.379 . S
C1522 C1516 1.423 . S
C1522 N1521 1.379 . S
C1522 C1523 1.411 1_655 S
C1523 C1514 1.429 . S
C1523 N1520 1.350 . S
C1523 C1522 1.411 1_455 S
C1524 C1525 1.369 . S
C1524 C1526 1.419 . S
C1524 H1528 0.930 . S
C1525 C1524 1.369 . S
C1525 C1534 1.429 . S
C1526 C1524 1.419 . S
C1526 C1527 1.363 . S
C1526 H1529 0.929 . S
C1527 C1526 1.363 . S
C1527 C1533 1.428 . S
H1528 C1524 0.930 . S
H1529 C1526 0.929 . S
S1530 N1531 1.613 . S
S1530 N1532 1.610 . S
N1531 S1530 1.613 . S
N1531 C1534 1.350 . S
N1532 S1530 1.610 . S
N1532 C1533 1.351 . S
C1533 C1527 1.428 . S
C1533 N1532 1.351 . S
C1533 C1534 1.434 . S
C1534 C1525 1.429 . S
C1534 N1531 1.350 . S
C1534 C1533 1.434 . S
C1535 C1536 1.369 . S
C1535 C1537 1.419 . S
C1535 H1539 0.930 . S
C1536 C1535 1.369 . S
C1536 C1545 1.429 . S
C1537 C1535 1.419 . S
C1537 C1538 1.363 . S
C1537 H1540 0.929 . S
C1538 C1537 1.363 . S
C1538 C1544 1.428 . S
H1539 C1535 0.930 . S
H1540 C1537 0.929 . S
S1541 N1542 1.613 . S
S1541 N1543 1.610 . S
N1542 S1541 1.613 . S
N1542 C1545 1.350 . S
N1543 S1541 1.610 . S
N1543 C1544 1.351 . S
C1544 C1538 1.428 . S
C1544 N1543 1.351 . S
C1544 C1545 1.434 . S
C1545 C1536 1.429 . S
C1545 N1542 1.350 . S
C1545 C1544 1.434 . S
C1546 C1547 1.369 . S
C1546 C1548 1.419 . S
C1546 H1550 0.930 . S
C1547 C1546 1.369 . S
C1547 C1556 1.429 . S
C1548 C1546 1.419 . S
C1548 C1549 1.363 . S
C1548 H1551 0.929 . S
C1549 C1548 1.363 . S
C1549 C1555 1.428 . S
H1550 C1546 0.930 . S
H1551 C1548 0.929 . S
S1552 N1553 1.613 . S
S1552 N1554 1.610 . S
N1553 S1552 1.613 . S
N1553 C1556 1.350 . S
N1554 S1552 1.610 . S
N1554 C1555 1.351 . S
C1555 C1549 1.428 . S
C1555 N1554 1.351 . S
C1555 C1556 1.434 . S
C1556 C1547 1.429 . S
C1556 N1553 1.350 . S
C1556 C1555 1.434 . S
C1557 C1558 1.369 . S
C1557 C1559 1.419 . S
C1557 H1561 0.930 . S
C1558 C1557 1.369 . S
C1558 C1567 1.429 . S
C1559 C1557 1.419 . S
C1559 C1560 1.363 . S
C1559 H1562 0.929 . S
C1560 C1559 1.363 . S
C1560 C1566 1.428 . S
H1561 C1557 0.930 . S
H1562 C1559 0.929 . S
S1563 N1564 1.613 . S
S1563 N1565 1.610 . S
N1564 S1563 1.613 . S
N1564 C1567 1.350 . S
N1565 S1563 1.610 . S
N1565 C1566 1.351 . S
C1566 C1560 1.428 . S
C1566 N1565 1.351 . S
C1566 C1567 1.434 . S
C1567 C1558 1.429 . S
C1567 N1564 1.350 . S
C1567 C1566 1.434 . S
C1568 C1569 1.369 . S
C1568 C1570 1.419 . S
C1568 H1572 0.930 . S
C1569 C1568 1.369 . S
C1569 C1578 1.429 . S
C1570 C1568 1.419 . S
C1570 C1571 1.363 . S
C1570 H1573 0.929 . S
C1571 C1570 1.363 . S
C1571 C1577 1.428 . S
H1572 C1568 0.930 . S
H1573 C1570 0.929 . S
S1574 N1575 1.613 . S
S1574 N1576 1.610 . S
N1575 S1574 1.613 . S
N1575 C1578 1.350 . S
N1576 S1574 1.610 . S
N1576 C1577 1.351 . S
C1577 C1571 1.428 . S
C1577 N1576 1.351 . S
C1577 C1578 1.434 . S
C1578 C1569 1.429 . S
C1578 N1575 1.350 . S
C1578 C1577 1.434 . S
C1579 C1580 1.369 . S
C1579 C1581 1.419 . S
C1579 H1583 0.930 . S
C1580 C1579 1.369 . S
C1580 C1589 1.429 . S
C1581 C1579 1.419 . S
C1581 C1582 1.363 . S
C1581 H1584 0.929 . S
C1582 C1581 1.363 . S
C1582 C1588 1.428 . S
H1583 C1579 0.930 . S
H1584 C1581 0.929 . S
S1585 N1586 1.613 . S
S1585 N1587 1.610 . S
N1586 S1585 1.613 . S
N1586 C1589 1.350 . S
N1587 S1585 1.610 . S
N1587 C1588 1.351 . S
C1588 C1582 1.428 . S
C1588 N1587 1.351 . S
C1588 C1589 1.434 . S
C1589 C1580 1.429 . S
C1589 N1586 1.350 . S
C1589 C1588 1.434 . S
C1590 C1591 1.369 . S
C1590 C1592 1.419 . S
C1590 H1594 0.930 . S
C1591 C1590 1.369 . S
C1591 C1600 1.429 . S
C1592 C1590 1.419 . S
C1592 C1593 1.363 . S
C1592 H1595 0.929 . S
C1593 C1592 1.363 . S
C1593 C1599 1.428 . S
H1594 C1590 0.930 . S
H1595 C1592 0.929 . S
S1596 N1597 1.613 . S
S1596 N1598 1.610 . S
N1597 S1596 1.613 . S
N1597 C1600 1.350 . S
N1598 S1596 1.610 . S
N1598 C1599 1.351 . S
C1599 C1593 1.428 . S
C1599 N1598 1.351 . S
C1599 C1600 1.434 . S
C1600 C1591 1.429 . S
C1600 N1597 1.350 . S
C1600 C1599 1.434 . S
C1601 C1602 1.369 . S
C1601 C1603 1.419 . S
C1601 H1605 0.930 . S
C1602 C1601 1.369 . S
C1602 C1611 1.429 . S
C1603 C1601 1.419 . S
C1603 C1604 1.363 . S
C1603 H1606 0.929 . S
C1604 C1603 1.363 . S
C1604 C1610 1.428 . S
H1605 C1601 0.930 . S
H1606 C1603 0.929 . S
S1607 N1608 1.613 . S
S1607 N1609 1.610 . S
N1608 S1607 1.613 . S
N1608 C1611 1.350 . S
N1609 S1607 1.610 . S
N1609 C1610 1.351 . S
C1610 C1604 1.428 . S
C1610 N1609 1.351 . S
C1610 C1611 1.434 . S
C1611 C1602 1.429 . S
C1611 N1608 1.350 . S
C1611 C1610 1.434 . S
C1612 C1613 1.369 . S
C1612 C1614 1.419 . S
C1612 H1616 0.930 . S
C1613 C1612 1.369 . S
C1613 C1622 1.429 . S
C1614 C1612 1.419 . S
C1614 C1615 1.363 . S
C1614 H1617 0.929 . S
C1615 C1614 1.363 . S
C1615 C1621 1.428 . S
H1616 C1612 0.930 . S
H1617 C1614 0.929 . S
S1618 N1619 1.613 . S
S1618 N1620 1.610 . S
N1619 S1618 1.613 . S
N1619 C1622 1.350 . S
N1620 S1618 1.610 . S
N1620 C1621 1.351 . S
C1621 C1615 1.428 . S
C1621 N1620 1.351 . S
C1621 C1622 1.434 . S
C1622 C1613 1.429 . S
C1622 N1619 1.350 . S
C1622 C1621 1.434 . S
C1623 C1624 1.369 . S
C1623 C1625 1.419 . S
C1623 H1627 0.930 . S
C1624 C1623 1.369 . S
C1624 C1633 1.429 . S
C1625 C1623 1.419 . S
C1625 C1626 1.363 . S
C1625 H1628 0.929 . S
C1626 C1625 1.363 . S
C1626 C1632 1.428 . S
H1627 C1623 0.930 . S
H1628 C1625 0.929 . S
S1629 N1630 1.613 . S
S1629 N1631 1.610 . S
N1630 S1629 1.613 . S
N1630 C1633 1.350 . S
N1631 S1629 1.610 . S
N1631 C1632 1.351 . S
C1632 C1626 1.428 . S
C1632 N1631 1.351 . S
C1632 C1633 1.434 . S
C1633 C1624 1.429 . S
C1633 N1630 1.350 . S
C1633 C1632 1.434 . S
C1634 C1635 1.369 . S
C1634 C1636 1.419 . S
C1634 H1638 0.930 . S
C1635 C1634 1.369 . S
C1635 C1644 1.429 . S
C1636 C1634 1.419 . S
C1636 C1637 1.363 . S
C1636 H1639 0.929 . S
C1637 C1636 1.363 . S
C1637 C1643 1.428 . S
H1638 C1634 0.930 . S
H1639 C1636 0.929 . S
S1640 N1641 1.613 . S
S1640 N1642 1.610 . S
N1641 S1640 1.613 . S
N1641 C1644 1.350 . S
N1642 S1640 1.610 . S
N1642 C1643 1.351 . S
C1643 C1637 1.428 . S
C1643 N1642 1.351 . S
C1643 C1644 1.434 . S
C1644 C1635 1.429 . S
C1644 N1641 1.350 . S
C1644 C1643 1.434 . S
C1645 C1646 1.369 . S
C1645 C1647 1.419 . S
C1645 H1649 0.930 . S
C1646 C1645 1.369 . S
C1646 C1655 1.429 . S
C1647 C1645 1.419 . S
C1647 C1648 1.363 . S
C1647 H1650 0.929 . S
C1648 C1647 1.363 . S
C1648 C1654 1.428 . S
H1649 C1645 0.930 . S
H1650 C1647 0.929 . S
S1651 N1652 1.613 . S
S1651 N1653 1.610 . S
N1652 S1651 1.613 . S
N1652 C1655 1.350 . S
N1653 S1651 1.610 . S
N1653 C1654 1.351 . S
C1654 C1648 1.428 . S
C1654 N1653 1.351 . S
C1654 C1655 1.434 . S
C1655 C1646 1.429 . S
C1655 N1652 1.350 . S
C1655 C1654 1.434 . S
C1656 C1657 1.369 . S
C1656 C1658 1.419 . S
C1656 H1660 0.930 . S
C1657 C1656 1.369 . S
C1657 C1666 1.429 . S
C1658 C1656 1.419 . S
C1658 C1659 1.363 . S
C1658 H1661 0.929 . S
C1659 C1658 1.363 . S
C1659 C1665 1.428 . S
H1660 C1656 0.930 . S
H1661 C1658 0.929 . S
S1662 N1663 1.613 . S
S1662 N1664 1.610 . S
N1663 S1662 1.613 . S
N1663 C1666 1.350 . S
N1664 S1662 1.610 . S
N1664 C1665 1.351 . S
C1665 C1659 1.428 . S
C1665 N1664 1.351 . S
C1665 C1666 1.434 . S
C1666 C1657 1.429 . S
C1666 N1663 1.350 . S
C1666 C1665 1.434 . S
C1667 C1668 1.369 . S
C1667 C1669 1.419 . S
C1667 H1671 0.930 . S
C1668 C1667 1.369 . S
C1668 C1677 1.429 . S
C1669 C1667 1.419 . S
C1669 C1670 1.363 . S
C1669 H1672 0.929 . S
C1670 C1669 1.363 . S
C1670 C1676 1.428 . S
H1671 C1667 0.930 . S
H1672 C1669 0.929 . S
S1673 N1674 1.613 . S
S1673 N1675 1.610 . S
N1674 S1673 1.613 . S
N1674 C1677 1.350 . S
N1675 S1673 1.610 . S
N1675 C1676 1.351 . S
C1676 C1670 1.428 . S
C1676 N1675 1.351 . S
C1676 C1677 1.434 . S
C1677 C1668 1.429 . S
C1677 N1674 1.350 . S
C1677 C1676 1.434 . S
C1678 C1679 1.369 . S
C1678 C1680 1.419 . S
C1678 H1682 0.930 . S
C1679 C1678 1.369 . S
C1679 C1688 1.429 1_545 S
C1680 C1678 1.419 . S
C1680 C1681 1.363 1_545 S
C1680 H1683 0.929 . S
C1681 C1680 1.363 1_565 S
C1681 C1687 1.428 . S
H1682 C1678 0.930 . S
H1683 C1680 0.929 . S
S1684 N1685 1.613 . S
S1684 N1686 1.610 . S
N1685 S1684 1.613 . S
N1685 C1688 1.350 . S
N1686 S1684 1.610 . S
N1686 C1687 1.351 . S
C1687 C1681 1.428 . S
C1687 N1686 1.351 . S
C1687 C1688 1.434 . S
C1688 C1679 1.429 1_565 S
C1688 N1685 1.350 . S
C1688 C1687 1.434 . S
C1689 C1690 1.369 . S
C1689 C1691 1.419 . S
C1689 H1693 0.930 . S
C1690 C1689 1.369 . S
C1690 C1699 1.429 . S
C1691 C1689 1.419 . S
C1691 C1692 1.360 1_565 S
C1691 H1694 0.929 . S
C1692 C1691 1.360 1_545 S
C1692 C1698 1.429 . S
H1693 C1689 0.930 . S
H1694 C1691 0.929 . S
S1695 N1696 1.613 1_545 S
S1695 N1697 1.610 . S
N1696 S1695 1.613 1_565 S
N1696 C1699 1.350 . S
N1697 S1695 1.610 . S
N1697 C1698 1.351 . S
C1698 C1692 1.429 . S
C1698 N1697 1.351 . S
C1698 C1699 1.434 1_545 S
C1699 C1690 1.429 . S
C1699 N1696 1.350 . S
C1699 C1698 1.434 1_565 S
C1700 C1701 1.369 . S
C1700 C1702 1.419 . S
C1700 H1704 0.930 . S
C1701 C1700 1.369 . S
C1701 C1710 1.429 . S
C1702 C1700 1.419 . S
C1702 C1703 1.363 . S
C1702 H1705 0.929 . S
C1703 C1702 1.363 . S
C1703 C1709 1.428 . S
H1704 C1700 0.930 . S
H1705 C1702 0.929 . S
S1706 N1707 1.613 . S
S1706 N1708 1.610 . S
N1707 S1706 1.613 . S
N1707 C1710 1.350 . S
N1708 S1706 1.610 . S
N1708 C1709 1.351 . S
C1709 C1703 1.428 . S
C1709 N1708 1.351 . S
C1709 C1710 1.434 . S
C1710 C1701 1.429 . S
C1710 N1707 1.350 . S
C1710 C1709 1.434 . S
C1711 C1712 1.369 . S
C1711 C1713 1.419 . S
C1711 H1715 0.930 1_554 S
C1712 C1711 1.369 . S
C1712 C1721 1.429 . S
C1713 C1711 1.419 . S
C1713 C1714 1.363 . S
C1713 H1716 0.929 1_554 S
C1714 C1713 1.363 . S
C1714 C1720 1.428 . S
H1715 C1711 0.930 1_556 S
H1716 C1713 0.929 1_556 S
S1717 N1718 1.613 . S
S1717 N1719 1.610 . S
N1718 S1717 1.613 . S
N1718 C1721 1.350 . S
N1719 S1717 1.610 . S
N1719 C1720 1.351 . S
C1720 C1714 1.428 . S
C1720 N1719 1.351 . S
C1720 C1721 1.434 . S
C1721 C1712 1.429 . S
C1721 N1718 1.350 . S
C1721 C1720 1.434 . S
C1722 C1723 1.369 . S
C1722 C1724 1.419 . S
C1722 H1726 0.930 . S
C1723 C1722 1.369 . S
C1723 C1732 1.429 . S
C1724 C1722 1.419 . S
C1724 C1725 1.363 . S
C1724 H1727 0.929 . S
C1725 C1724 1.363 . S
C1725 C1731 1.428 . S
H1726 C1722 0.930 . S
H1727 C1724 0.929 . S
S1728 N1729 1.613 . S
S1728 N1730 1.610 . S
N1729 S1728 1.613 . S
N1729 C1732 1.350 . S
N1730 S1728 1.610 . S
N1730 C1731 1.351 . S
C1731 C1725 1.428 . S
C1731 N1730 1.351 . S
C1731 C1732 1.434 . S
C1732 C1723 1.429 . S
C1732 N1729 1.350 . S
C1732 C1731 1.434 . S
C1733 C1734 1.369 1_565 S
C1733 C1735 1.419 . S
C1733 H1737 0.930 . S
C1734 C1733 1.369 1_545 S
C1734 C1743 1.429 . S
C1735 C1733 1.419 . S
C1735 C1736 1.363 . S
C1735 H1738 0.929 . S
C1736 C1735 1.363 . S
C1736 C1742 1.428 1_565 S
H1737 C1733 0.930 . S
H1738 C1735 0.929 . S
S1739 N1740 1.613 . S
S1739 N1741 1.610 . S
N1740 S1739 1.613 . S
N1740 C1743 1.350 . S
N1741 S1739 1.610 . S
N1741 C1742 1.351 . S
C1742 C1736 1.428 1_545 S
C1742 N1741 1.351 . S
C1742 C1743 1.434 . S
C1743 C1734 1.429 . S
C1743 N1740 1.350 . S
C1743 C1742 1.434 . S
C1744 C1745 1.369 . S
C1744 C1746 1.419 . S
C1744 H1748 0.930 . S
C1745 C1744 1.369 . S
C1745 C1754 1.429 . S
C1746 C1744 1.419 . S
C1746 C1747 1.363 . S
C1746 H1749 0.929 . S
C1747 C1746 1.363 . S
C1747 C1753 1.428 . S
H1748 C1744 0.930 . S
H1749 C1746 0.929 . S
S1750 N1751 1.613 . S
S1750 N1752 1.610 . S
N1751 S1750 1.613 . S
N1751 C1754 1.350 . S
N1752 S1750 1.610 . S
N1752 C1753 1.351 . S
C1753 C1747 1.428 . S
C1753 N1752 1.351 . S
C1753 C1754 1.434 . S
C1754 C1745 1.429 . S
C1754 N1751 1.350 . S
C1754 C1753 1.434 . S
C1755 C1756 1.369 . S
C1755 C1757 1.419 . S
C1755 H1759 0.930 . S
C1756 C1755 1.369 . S
C1756 C1765 1.429 . S
C1757 C1755 1.419 . S
C1757 C1758 1.363 . S
C1757 H1760 0.929 . S
C1758 C1757 1.363 . S
C1758 C1764 1.428 . S
H1759 C1755 0.930 . S
H1760 C1757 0.929 . S
S1761 N1762 1.613 . S
S1761 N1763 1.610 . S
N1762 S1761 1.613 . S
N1762 C1765 1.350 . S
N1763 S1761 1.610 . S
N1763 C1764 1.351 . S
C1764 C1758 1.428 . S
C1764 N1763 1.351 . S
C1764 C1765 1.434 . S
C1765 C1756 1.429 . S
C1765 N1762 1.350 . S
C1765 C1764 1.434 . S
C1766 C1767 1.369 . S
C1766 C1768 1.419 . S
C1766 H1770 0.930 . S
C1767 C1766 1.369 . S
C1767 C1776 1.429 . S
C1768 C1766 1.419 . S
C1768 C1769 1.363 . S
C1768 H1771 0.929 . S
C1769 C1768 1.363 . S
C1769 C1775 1.428 . S
H1770 C1766 0.930 . S
H1771 C1768 0.929 . S
S1772 N1773 1.613 . S
S1772 N1774 1.610 . S
N1773 S1772 1.613 . S
N1773 C1776 1.350 . S
N1774 S1772 1.610 . S
N1774 C1775 1.351 . S
C1775 C1769 1.428 . S
C1775 N1774 1.351 . S
C1775 C1776 1.434 . S
C1776 C1767 1.429 . S
C1776 N1773 1.350 . S
C1776 C1775 1.434 . S
C1777 C1778 1.369 . S
C1777 C1779 1.419 . S
C1777 H1781 0.930 . S
C1778 C1777 1.369 . S
C1778 C1787 1.429 . S
C1779 C1777 1.419 . S
C1779 C1780 1.363 . S
C1779 H1782 0.929 . S
C1780 C1779 1.363 . S
C1780 C1786 1.428 . S
H1781 C1777 0.930 . S
H1782 C1779 0.929 . S
S1783 N1784 1.613 . S
S1783 N1785 1.610 . S
N1784 S1783 1.613 . S
N1784 C1787 1.350 . S
N1785 S1783 1.610 . S
N1785 C1786 1.351 . S
C1786 C1780 1.428 . S
C1786 N1785 1.351 . S
C1786 C1787 1.434 . S
C1787 C1778 1.429 . S
C1787 N1784 1.350 . S
C1787 C1786 1.434 . S
C1788 C1789 1.369 . S
C1788 C1790 1.419 . S
C1788 H1792 0.930 . S
C1789 C1788 1.369 . S
C1789 C1798 1.429 . S
C1790 C1788 1.419 . S
C1790 C1791 1.363 . S
C1790 H1793 0.929 1_556 S
C1791 C1790 1.363 . S
C1791 C1797 1.428 . S
H1792 C1788 0.930 . S
H1793 C1790 0.929 1_554 S
S1794 N1795 1.613 . S
S1794 N1796 1.610 . S
N1795 S1794 1.613 . S
N1795 C1798 1.350 . S
N1796 S1794 1.610 . S
N1796 C1797 1.351 . S
C1797 C1791 1.428 . S
C1797 N1796 1.351 . S
C1797 C1798 1.434 . S
C1798 C1789 1.429 . S
C1798 N1795 1.350 . S
C1798 C1797 1.434 . S
C1799 C1800 1.369 . S
C1799 C1801 1.419 . S
C1799 H1803 0.930 . S
C1800 C1799 1.369 . S
C1800 C1809 1.429 . S
C1801 C1799 1.419 . S
C1801 C1802 1.363 . S
C1801 H1804 0.929 . S
C1802 C1801 1.363 . S
C1802 C1808 1.428 . S
H1803 C1799 0.930 . S
H1804 C1801 0.929 . S
S1805 N1806 1.613 . S
S1805 N1807 1.610 . S
N1806 S1805 1.613 . S
N1806 C1809 1.350 . S
N1807 S1805 1.610 . S
N1807 C1808 1.351 . S
C1808 C1802 1.428 . S
C1808 N1807 1.351 . S
C1808 C1809 1.434 . S
C1809 C1800 1.429 . S
C1809 N1806 1.350 . S
C1809 C1808 1.434 . S
C1810 C1811 1.369 . S
C1810 C1812 1.419 . S
C1810 H1814 0.930 . S
C1811 C1810 1.369 . S
C1811 C1820 1.429 . S
C1812 C1810 1.419 . S
C1812 C1813 1.363 . S
C1812 H1815 0.929 . S
C1813 C1812 1.363 . S
C1813 C1819 1.428 . S
H1814 C1810 0.930 . S
H1815 C1812 0.929 . S
S1816 N1817 1.613 . S
S1816 N1818 1.610 . S
N1817 S1816 1.613 . S
N1817 C1820 1.350 . S
N1818 S1816 1.610 . S
N1818 C1819 1.351 . S
C1819 C1813 1.428 . S
C1819 N1818 1.351 . S
C1819 C1820 1.434 . S
C1820 C1811 1.429 . S
C1820 N1817 1.350 . S
C1820 C1819 1.434 . S
C1821 C1822 1.369 . S
C1821 C1823 1.419 . S
C1821 H1825 0.930 . S
C1822 C1821 1.369 . S
C1822 C1831 1.429 . S
C1823 C1821 1.419 . S
C1823 C1824 1.363 . S
C1823 H1826 0.929 . S
C1824 C1823 1.363 . S
C1824 C1830 1.428 . S
H1825 C1821 0.930 . S
H1826 C1823 0.929 . S
S1827 N1828 1.613 . S
S1827 N1829 1.610 . S
N1828 S1827 1.613 . S
N1828 C1831 1.350 . S
N1829 S1827 1.610 . S
N1829 C1830 1.351 . S
C1830 C1824 1.428 . S
C1830 N1829 1.351 . S
C1830 C1831 1.434 . S
C1831 C1822 1.429 . S
C1831 N1828 1.350 . S
C1831 C1830 1.434 . S
C1832 C1833 1.369 . S
C1832 C1834 1.419 . S
C1832 H1836 0.930 . S
C1833 C1832 1.369 . S
C1833 C1842 1.429 . S
C1834 C1832 1.419 . S
C1834 C1835 1.363 . S
C1834 H1837 0.929 . S
C1835 C1834 1.363 . S
C1835 C1841 1.428 . S
H1836 C1832 0.930 . S
H1837 C1834 0.929 . S
S1838 N1839 1.613 . S
S1838 N1840 1.610 . S
N1839 S1838 1.613 . S
N1839 C1842 1.350 . S
N1840 S1838 1.610 . S
N1840 C1841 1.351 . S
C1841 C1835 1.428 . S
C1841 N1840 1.351 . S
C1841 C1842 1.434 . S
C1842 C1833 1.429 . S
C1842 N1839 1.350 . S
C1842 C1841 1.434 . S
C1843 C1844 1.369 . S
C1843 C1845 1.419 . S
C1843 H1847 0.930 . S
C1844 C1843 1.369 . S
C1844 C1853 1.429 . S
C1845 C1843 1.419 . S
C1845 C1846 1.363 . S
C1845 H1848 0.929 . S
C1846 C1845 1.363 . S
C1846 C1852 1.428 . S
H1847 C1843 0.930 . S
H1848 C1845 0.929 . S
S1849 N1850 1.613 . S
S1849 N1851 1.610 . S
N1850 S1849 1.613 . S
N1850 C1853 1.350 . S
N1851 S1849 1.610 . S
N1851 C1852 1.351 . S
C1852 C1846 1.428 . S
C1852 N1851 1.351 . S
C1852 C1853 1.434 . S
C1853 C1844 1.429 . S
C1853 N1850 1.350 . S
C1853 C1852 1.434 . S
C1854 C1855 1.369 . S
C1854 C1856 1.419 . S
C1854 H1858 0.930 . S
C1855 C1854 1.369 . S
C1855 C1864 1.429 . S
C1856 C1854 1.419 . S
C1856 C1857 1.363 . S
C1856 H1859 0.929 . S
C1857 C1856 1.363 . S
C1857 C1863 1.428 . S
H1858 C1854 0.930 . S
H1859 C1856 0.929 . S
S1860 N1861 1.613 . S
S1860 N1862 1.610 . S
N1861 S1860 1.613 . S
N1861 C1864 1.350 . S
N1862 S1860 1.610 . S
N1862 C1863 1.351 . S
C1863 C1857 1.428 . S
C1863 N1862 1.351 . S
C1863 C1864 1.434 . S
C1864 C1855 1.429 . S
C1864 N1861 1.350 . S
C1864 C1863 1.434 . S
C1865 C1866 1.369 . S
C1865 C1867 1.419 . S
C1865 H1869 0.930 . S
C1866 C1865 1.369 . S
C1866 C1875 1.429 . S
C1867 C1865 1.419 . S
C1867 C1868 1.363 . S
C1867 H1870 0.929 . S
C1868 C1867 1.363 . S
C1868 C1874 1.428 . S
H1869 C1865 0.930 . S
H1870 C1867 0.929 . S
S1871 N1872 1.613 . S
S1871 N1873 1.610 . S
N1872 S1871 1.613 . S
N1872 C1875 1.350 . S
N1873 S1871 1.610 . S
N1873 C1874 1.351 . S
C1874 C1868 1.428 . S
C1874 N1873 1.351 . S
C1874 C1875 1.434 . S
C1875 C1866 1.429 . S
C1875 N1872 1.350 . S
C1875 C1874 1.434 . S
C1876 C1877 1.369 . S
C1876 C1878 1.419 . S
C1876 H1880 0.930 . S
C1877 C1876 1.369 . S
C1877 C1886 1.429 . S
C1878 C1876 1.419 . S
C1878 C1879 1.363 . S
C1878 H1881 0.929 . S
C1879 C1878 1.363 . S
C1879 C1885 1.428 . S
H1880 C1876 0.930 . S
H1881 C1878 0.929 . S
S1882 N1883 1.613 . S
S1882 N1884 1.610 . S
N1883 S1882 1.613 . S
N1883 C1886 1.350 . S
N1884 S1882 1.610 . S
N1884 C1885 1.351 . S
C1885 C1879 1.428 . S
C1885 N1884 1.351 . S
C1885 C1886 1.434 . S
C1886 C1877 1.429 . S
C1886 N1883 1.350 . S
C1886 C1885 1.434 . S
C1887 C1888 1.369 . S
C1887 C1889 1.419 . S
C1887 H1891 0.930 . S
C1888 C1887 1.369 . S
C1888 C1897 1.429 . S
C1889 C1887 1.419 . S
C1889 C1890 1.363 . S
C1889 H1892 0.929 . S
C1890 C1889 1.363 . S
C1890 C1896 1.428 . S
H1891 C1887 0.930 . S
H1892 C1889 0.929 . S
S1893 N1894 1.613 . S
S1893 N1895 1.610 . S
N1894 S1893 1.613 . S
N1894 C1897 1.350 . S
N1895 S1893 1.610 . S
N1895 C1896 1.351 . S
C1896 C1890 1.428 . S
C1896 N1895 1.351 . S
C1896 C1897 1.434 . S
C1897 C1888 1.429 . S
C1897 N1894 1.350 . S
C1897 C1896 1.434 . S
C1898 C1899 1.369 . S
C1898 C1900 1.419 . S
C1898 H1902 0.930 1_455 S
C1899 C1898 1.369 . S
C1899 C1908 1.429 . S
C1900 C1898 1.419 . S
C1900 C1901 1.363 . S
C1900 H1903 0.929 1_455 S
C1901 C1900 1.363 . S
C1901 C1907 1.428 . S
H1902 C1898 0.930 1_655 S
H1903 C1900 0.929 1_655 S
S1904 N1905 1.613 . S
S1904 N1906 1.610 . S
N1905 S1904 1.613 . S
N1905 C1908 1.350 . S
N1906 S1904 1.610 . S
N1906 C1907 1.351 . S
C1907 C1901 1.428 . S
C1907 N1906 1.351 . S
C1907 C1908 1.434 . S
C1908 C1899 1.429 . S
C1908 N1905 1.350 . S
C1908 C1907 1.434 . S
C1909 C1910 1.369 . S
C1909 C1911 1.419 . S
C1909 H1913 0.930 . S
C1910 C1909 1.369 . S
C1910 C1919 1.429 . S
C1911 C1909 1.419 . S
C1911 C1912 1.363 . S
C1911 H1914 0.929 . S
C1912 C1911 1.363 . S
C1912 C1918 1.428 . S
H1913 C1909 0.930 . S
H1914 C1911 0.929 . S
S1915 N1916 1.613 . S
S1915 N1917 1.610 . S
N1916 S1915 1.613 . S
N1916 C1919 1.350 . S
N1917 S1915 1.610 . S
N1917 C1918 1.351 . S
C1918 C1912 1.428 . S
C1918 N1917 1.351 . S
C1918 C1919 1.434 . S
C1919 C1910 1.429 . S
C1919 N1916 1.350 . S
C1919 C1918 1.434 . S
C1920 C1921 1.369 . S
C1920 C1922 1.419 . S
C1920 H1924 0.930 . S
C1921 C1920 1.369 . S
C1921 C1930 1.429 . S
C1922 C1920 1.419 . S
C1922 C1923 1.363 . S
C1922 H1925 0.929 . S
C1923 C1922 1.363 . S
C1923 C1929 1.428 . S
H1924 C1920 0.930 . S
H1925 C1922 0.929 . S
S1926 N1927 1.613 . S
S1926 N1928 1.610 . S
N1927 S1926 1.613 . S
N1927 C1930 1.350 . S
N1928 S1926 1.610 . S
N1928 C1929 1.351 . S
C1929 C1923 1.428 . S
C1929 N1928 1.351 . S
C1929 C1930 1.434 . S
C1930 C1921 1.429 . S
C1930 N1927 1.350 . S
C1930 C1929 1.434 . S
C1931 C1932 1.369 1_545 S
C1931 C1933 1.419 . S
C1931 H1935 0.930 . S
C1932 C1931 1.369 1_565 S
C1932 C1941 1.429 . S
C1933 C1931 1.419 . S
C1933 C1934 1.363 . S
C1933 H1936 0.929 . S
C1934 C1933 1.363 . S
C1934 C1940 1.428 1_545 S
H1935 C1931 0.930 . S
H1936 C1933 0.929 . S
S1937 N1938 1.613 . S
S1937 N1939 1.610 . S
N1938 S1937 1.613 . S
N1938 C1941 1.350 . S
N1939 S1937 1.610 . S
N1939 C1940 1.351 . S
C1940 C1934 1.428 1_565 S
C1940 N1939 1.351 . S
C1940 C1941 1.434 . S
C1941 C1932 1.429 . S
C1941 N1938 1.350 . S
C1941 C1940 1.434 . S
C1942 C1943 1.369 . S
C1942 C1944 1.419 . S
C1942 H1946 0.930 . S
C1943 C1942 1.369 . S
C1943 C1952 1.429 . S
C1944 C1942 1.419 . S
C1944 C1945 1.363 . S
C1944 H1947 0.929 . S
C1945 C1944 1.363 . S
C1945 C1951 1.428 . S
H1946 C1942 0.930 . S
H1947 C1944 0.929 . S
S1948 N1949 1.613 . S
S1948 N1950 1.610 . S
N1949 S1948 1.613 . S
N1949 C1952 1.350 . S
N1950 S1948 1.610 . S
N1950 C1951 1.351 . S
C1951 C1945 1.428 . S
C1951 N1950 1.351 . S
C1951 C1952 1.434 . S
C1952 C1943 1.429 . S
C1952 N1949 1.350 . S
C1952 C1951 1.434 . S
C1953 C1954 1.369 1_554 S
C1953 C1955 1.419 . S
C1953 H1957 0.930 . S
C1954 C1953 1.369 1_556 S
C1954 C1963 1.429 . S
C1955 C1953 1.419 . S
C1955 C1956 1.363 . S
C1955 H1958 0.929 . S
C1956 C1955 1.363 . S
C1956 C1962 1.428 1_554 S
H1957 C1953 0.930 . S
H1958 C1955 0.929 . S
S1959 N1960 1.613 . S
S1959 N1961 1.610 . S
N1960 S1959 1.613 . S
N1960 C1963 1.350 . S
N1961 S1959 1.610 . S
N1961 C1962 1.351 . S
C1962 C1956 1.428 1_556 S
C1962 N1961 1.351 . S
C1962 C1963 1.434 . S
C1963 C1954 1.429 . S
C1963 N1960 1.350 . S
C1963 C1962 1.434 . S
C1964 C1965 1.369 . S
C1964 C1966 1.419 . S
C1964 H1968 0.930 . S
C1965 C1964 1.369 . S
C1965 C1974 1.429 . S
C1966 C1964 1.419 . S
C1966 C1967 1.363 . S
C1966 H1969 0.929 . S
C1967 C1966 1.363 . S
C1967 C1973 1.428 . S
H1968 C1964 0.930 . S
H1969 C1966 0.929 . S
S1970 N1971 1.613 . S
S1970 N1972 1.610 . S
N1971 S1970 1.613 . S
N1971 C1974 1.350 . S
N1972 S1970 1.610 . S
N1972 C1973 1.351 . S
C1973 C1967 1.428 . S
C1973 N1972 1.351 . S
C1973 C1974 1.434 . S
C1974 C1965 1.429 . S
C1974 N1971 1.350 . S
C1974 C1973 1.434 . S
C1975 C1976 1.369 . S
C1975 C1977 1.419 . S
C1975 H1979 0.930 . S
C1976 C1975 1.369 . S
C1976 C1985 1.429 . S
C1977 C1975 1.419 . S
C1977 C1978 1.363 . S
C1977 H1980 0.929 . S
C1978 C1977 1.363 . S
C1978 C1984 1.428 . S
H1979 C1975 0.930 . S
H1980 C1977 0.929 . S
S1981 N1982 1.613 1_556 S
S1981 N1983 1.610 . S
N1982 S1981 1.613 1_554 S
N1982 C1985 1.350 . S
N1983 S1981 1.610 . S
N1983 C1984 1.351 1_556 S
C1984 C1978 1.428 . S
C1984 N1983 1.351 1_554 S
C1984 C1985 1.434 . S
C1985 C1976 1.429 . S
C1985 N1982 1.350 . S
C1985 C1984 1.434 . S
C1986 C1987 1.369 . S
C1986 C1988 1.419 . S
C1986 H1990 0.930 . S
C1987 C1986 1.369 . S
C1987 C1996 1.429 . S
C1988 C1986 1.419 . S
C1988 C1989 1.363 . S
C1988 H1991 0.929 . S
C1989 C1988 1.363 . S
C1989 C1995 1.428 . S
H1990 C1986 0.930 . S
H1991 C1988 0.929 . S
S1992 N1993 1.613 . S
S1992 N1994 1.610 . S
N1993 S1992 1.613 . S
N1993 C1996 1.350 . S
N1994 S1992 1.610 . S
N1994 C1995 1.351 . S
C1995 C1989 1.428 . S
C1995 N1994 1.351 . S
C1995 C1996 1.434 . S
C1996 C1987 1.429 . S
C1996 N1993 1.350 . S
C1996 C1995 1.434 . S
C1997 C1998 1.369 . S
C1997 C1999 1.419 . S
C1997 H2001 0.930 . S
C1998 C1997 1.369 . S
C1998 C2007 1.429 . S
C1999 C1997 1.419 . S
C1999 C2000 1.363 . S
C1999 H2002 0.929 . S
C2000 C1999 1.363 . S
C2000 C2006 1.428 . S
H2001 C1997 0.930 . S
H2002 C1999 0.929 . S
S2003 N2004 1.613 . S
S2003 N2005 1.610 . S
N2004 S2003 1.613 . S
N2004 C2007 1.350 . S
N2005 S2003 1.610 . S
N2005 C2006 1.351 . S
C2006 C2000 1.428 . S
C2006 N2005 1.351 . S
C2006 C2007 1.434 . S
C2007 C1998 1.429 . S
C2007 N2004 1.350 . S
C2007 C2006 1.434 . S
C953 C101 1.811 1_455 S
C955 C334 1.829 1_556 S
C964 C57 1.362 . S
C966 C354 1.437 . S
C975 C73 0.983 . S
C977 C401 0.984 . S
C988 C458 1.232 . S
C986 C78 1.120 . S
C997 C21 2.661 . S
C999 C475 2.699 1_565 S
C1010 C534 1.954 . S
C1008 C31 1.913 . S
C1021 C567 2.757 . S
C1019 C49 2.764 . S
C1030 C0 2.435 . S
C1032 C614 2.469 . S
C1043 C327 1.757 . S
C1041 C218 1.677 . S
C1052 C229 1.647 . S
C1054 C355 1.666 . S
C1065 C394 0.764 . S
C1063 C257 0.779 . S
C1076 C454 2.282 . S
C1074 C164 2.148 . S
C1085 C216 0.666 . S
C1087 C481 0.675 . S
C1098 C527 2.290 . S
C1096 C231 2.314 . S
C1109 C578 1.025 . S
C1107 C255 0.848 . S
C1120 C607 2.340 . S
C1118 C166 2.330 . S
C1131 C338 1.981 1_565 S
C1129 C143 1.990 . S
C1140 C265 2.146 . S
C1142 C634 2.185 . S
C1153 C698 1.589 . S
C1151 C299 1.393 . S
C1164 C734 1.545 1_655 S
C1162 C291 1.572 . S
C1173 C104 1.663 . S
C1175 C618 1.767 . S
C1184 C117 2.558 . S
C1186 C395 2.601 . S
C1195 C304 1.439 . S
C1197 C767 1.584 . S
C1208 C801 0.645 . S
C1206 C278 0.615 . S
C1219 C315 1.945 . S
C1217 C60 2.050 . S
C1230 C807 1.550 . S
C1228 C96 1.583 . S
C1239 C88 0.887 . S
C1241 C418 0.885 . S
C1250 C65 1.353 . S
C1252 C761 1.242 . S
C1263 C494 2.571 . S
C1261 C10 2.599 . S
C1272 C44 1.885 . S
C1274 C675 1.951 . S
C1285 C554 2.657 1_556 S
C1283 C34 2.574 . S
C1296 C835 2.501 . S
C1294 C13 2.521 . S
C1307 C314 1.759 . S
C1305 C138 1.774 . S
C1318 C814 1.503 . S
C1316 C296 1.515 . S
C1327 C112 0.770 . S
C1329 C407 0.677 . S
C1338 C270 2.190 . S
C1340 C755 2.208 . S
C1349 C140 0.636 . S
C1351 C498 0.662 . S
C1362 C674 2.210 . S
C1360 C294 2.169 . S
C1371 C114 1.009 . S
C1373 C561 0.951 . S
C1382 C268 2.249 . S
C1384 C834 2.288 . S
C1393 C169 2.239 1_556 S
C1395 C321 2.041 . S
C1404 C161 2.116 . S
C1406 C647 2.121 . S
C1415 C234 1.647 . S
C1417 C521 1.557 . S
C1426 C226 1.547 . S
C1428 C715 1.542 . S
C1439 C841 1.816 . S
C1437 C247 1.974 . S
C1448 C195 2.489 . S
C1450 C414 2.523 . S
C1461 C434 1.483 . S
C1459 C239 1.449 . S
C1472 C378 0.639 . S
C1470 C187 0.565 . S
C1481 C75 1.931 . S
C1483 C894 1.968 . S
C1494 C794 1.440 . S
C1492 C83 1.371 . S
C1503 C99 0.904 . S
C1505 C921 0.916 . S
C1514 C52 1.171 . S
C1516 C778 1.274 . S
C1525 C47 2.644 . S
C1527 C635 2.689 . S
C1538 C694 1.992 . S
C1536 C5 1.953 . S
C1549 C727 2.765 . S
C1547 C23 2.774 . S
C1560 C854 2.405 . S
C1558 C26 2.372 . S
C1571 C887 1.709 . S
C1569 C244 1.629 . S
C1580 C177 1.633 . S
C1582 C795 1.654 . S
C1593 C914 0.774 . S
C1591 C192 0.797 . S
C1604 C774 2.275 . S
C1602 C203 2.148 . S
C1615 C641 0.676 . S
C1613 C242 0.647 . S
C1624 C179 2.353 . S
C1626 C687 2.327 . S
C1637 C738 0.998 . S
C1635 C190 0.864 . S
C1646 C205 2.308 . S
C1648 C847 2.316 . S
C1659 C898 1.997 . S
C1657 C286 2.014 . S
C1668 C122 2.178 . S
C1670 C474 2.212 . S
C1681 C538 1.542 . S
C1679 C130 1.352 . S
C1692 C574 1.546 . S
C1690 C148 1.570 . S
C1703 C858 1.542 . S
C1701 C273 1.419 . S
C1712 C260 2.578 . S
C1714 C915 2.625 1_655 S
C1725 C447 1.607 . S
C1723 C135 1.469 . S
C1736 C361 0.664 . S
C1734 C109 0.642 . S
C1745 C86 2.085 . S
C1747 C875 1.983 . S
C1758 C367 1.349 . S
C1756 C70 1.385 . S
C1767 C62 0.870 . S
C1769 C938 0.872 . S
C1778 C91 1.231 . S
C1780 C441 1.119 . S
C1789 C36 2.591 . S
C1791 C654 2.565 1_556 S
C1802 C515 1.979 . S
C1800 C18 1.918 . S
C1811 C8 2.604 . S
C1813 C714 2.689 . S
C1822 C39 2.491 . S
C1824 C595 2.455 . S
C1835 C874 1.803 . S
C1833 C307 1.818 . S
C1844 C153 1.509 . S
C1846 C374 1.499 . S
C1857 C927 0.568 . S
C1855 C281 0.704 . S
C1866 C127 2.210 . S
C1868 C435 2.227 . S
C1877 C309 0.615 . S
C1879 C658 0.644 . S
C1890 C514 2.249 . S
C1888 C151 2.206 1_556 S
C1899 C283 0.942 . S
C1901 C721 0.880 . S
C1912 C594 2.285 . S
C1910 C125 2.258 . S
C1923 C881 2.118 . S
C1921 C221 2.332 . S
C1934 C487 2.170 . S
C1932 C200 2.167 . S
C1943 C208 1.594 . S
C1945 C681 1.526 . S
C1956 C555 1.499 . S
C1954 C174 1.507 . S
C1965 C182 1.967 . S
C1967 C601 1.806 . S
C1976 C156 2.528 . S
C1978 C934 2.556 . S
C1989 C754 1.502 . S
C1987 C213 1.463 . S
C2000 C818 0.642 . S
C1998 C252 0.621 . S
