# Generated by pormake.
# Topology llk, (3,12)-cn, num edge types: 1
# Building blocks:
#     Node 0, Type 0, BuildingBlock: OLANEW_clean_sbu_2, # of connection points: 3
#     Node 1, Type 0, BuildingBlock: OLANEW_clean_sbu_2, # of connection points: 3
#     Node 2, Type 0, BuildingBlock: OLANEW_clean_sbu_2, # of connection points: 3
#     Node 3, Type 0, BuildingBlock: OLANEW_clean_sbu_2, # of connection points: 3
#     Node 4, Type 0, BuildingBlock: OLANEW_clean_sbu_2, # of connection points: 3
#     Node 5, Type 0, BuildingBlock: OLANEW_clean_sbu_2, # of connection points: 3
#     Node 6, Type 0, BuildingBlock: OLANEW_clean_sbu_2, # of connection points: 3
#     Node 7, Type 0, BuildingBlock: OLANEW_clean_sbu_2, # of connection points: 3
#     Node 8, Type 0, BuildingBlock: OLANEW_clean_sbu_2, # of connection points: 3
#     Node 9, Type 0, BuildingBlock: OLANEW_clean_sbu_2, # of connection points: 3
#     Node 10, Type 0, BuildingBlock: OLANEW_clean_sbu_2, # of connection points: 3
#     Node 11, Type 0, BuildingBlock: OLANEW_clean_sbu_2, # of connection points: 3
#     Node 12, Type 0, BuildingBlock: OLANEW_clean_sbu_2, # of connection points: 3
#     Node 13, Type 0, BuildingBlock: OLANEW_clean_sbu_2, # of connection points: 3
#     Node 14, Type 0, BuildingBlock: OLANEW_clean_sbu_2, # of connection points: 3
#     Node 15, Type 0, BuildingBlock: OLANEW_clean_sbu_2, # of connection points: 3
#     Node 16, Type 0, BuildingBlock: OLANEW_clean_sbu_2, # of connection points: 3
#     Node 17, Type 0, BuildingBlock: OLANEW_clean_sbu_2, # of connection points: 3
#     Node 18, Type 0, BuildingBlock: OLANEW_clean_sbu_2, # of connection points: 3
#     Node 19, Type 0, BuildingBlock: OLANEW_clean_sbu_2, # of connection points: 3
#     Node 20, Type 0, BuildingBlock: OLANEW_clean_sbu_2, # of connection points: 3
#     Node 21, Type 0, BuildingBlock: OLANEW_clean_sbu_2, # of connection points: 3
#     Node 22, Type 0, BuildingBlock: OLANEW_clean_sbu_2, # of connection points: 3
#     Node 23, Type 0, BuildingBlock: OLANEW_clean_sbu_2, # of connection points: 3
#     Node 24, Type 1, BuildingBlock: QEWDON_clean_sbu_0, # of connection points: 12
#     Node 25, Type 1, BuildingBlock: QEWDON_clean_sbu_0, # of connection points: 12
#     Node 26, Type 1, BuildingBlock: QEWDON_clean_sbu_0, # of connection points: 12
#     Node 27, Type 1, BuildingBlock: QEWDON_clean_sbu_0, # of connection points: 12
#     Node 28, Type 1, BuildingBlock: QEWDON_clean_sbu_0, # of connection points: 12
#     Node 29, Type 1, BuildingBlock: QEWDON_clean_sbu_0, # of connection points: 12
#     Edge 30, Type (0, 1), BuildingBlock: XIVTED_clean_linker_0, # of connection points: 2
#     Edge 31, Type (0, 1), BuildingBlock: XIVTED_clean_linker_0, # of connection points: 2
#     Edge 32, Type (0, 1), BuildingBlock: XIVTED_clean_linker_0, # of connection points: 2
#     Edge 33, Type (0, 1), BuildingBlock: XIVTED_clean_linker_0, # of connection points: 2
#     Edge 34, Type (0, 1), BuildingBlock: XIVTED_clean_linker_0, # of connection points: 2
#     Edge 35, Type (0, 1), BuildingBlock: XIVTED_clean_linker_0, # of connection points: 2
#     Edge 36, Type (0, 1), BuildingBlock: XIVTED_clean_linker_0, # of connection points: 2
#     Edge 37, Type (0, 1), BuildingBlock: XIVTED_clean_linker_0, # of connection points: 2
#     Edge 38, Type (0, 1), BuildingBlock: XIVTED_clean_linker_0, # of connection points: 2
#     Edge 39, Type (0, 1), BuildingBlock: XIVTED_clean_linker_0, # of connection points: 2
#     Edge 40, Type (0, 1), BuildingBlock: XIVTED_clean_linker_0, # of connection points: 2
#     Edge 41, Type (0, 1), BuildingBlock: XIVTED_clean_linker_0, # of connection points: 2
#     Edge 42, Type (0, 1), BuildingBlock: XIVTED_clean_linker_0, # of connection points: 2
#     Edge 43, Type (0, 1), BuildingBlock: XIVTED_clean_linker_0, # of connection points: 2
#     Edge 44, Type (0, 1), BuildingBlock: XIVTED_clean_linker_0, # of connection points: 2
#     Edge 45, Type (0, 1), BuildingBlock: XIVTED_clean_linker_0, # of connection points: 2
#     Edge 46, Type (0, 1), BuildingBlock: XIVTED_clean_linker_0, # of connection points: 2
#     Edge 47, Type (0, 1), BuildingBlock: XIVTED_clean_linker_0, # of connection points: 2
#     Edge 48, Type (0, 1), BuildingBlock: XIVTED_clean_linker_0, # of connection points: 2
#     Edge 49, Type (0, 1), BuildingBlock: XIVTED_clean_linker_0, # of connection points: 2
#     Edge 50, Type (0, 1), BuildingBlock: XIVTED_clean_linker_0, # of connection points: 2
#     Edge 51, Type (0, 1), BuildingBlock: XIVTED_clean_linker_0, # of connection points: 2
#     Edge 52, Type (0, 1), BuildingBlock: XIVTED_clean_linker_0, # of connection points: 2
#     Edge 53, Type (0, 1), BuildingBlock: XIVTED_clean_linker_0, # of connection points: 2
#     Edge 54, Type (0, 1), BuildingBlock: XIVTED_clean_linker_0, # of connection points: 2
#     Edge 55, Type (0, 1), BuildingBlock: XIVTED_clean_linker_0, # of connection points: 2
#     Edge 56, Type (0, 1), BuildingBlock: XIVTED_clean_linker_0, # of connection points: 2
#     Edge 57, Type (0, 1), BuildingBlock: XIVTED_clean_linker_0, # of connection points: 2
#     Edge 58, Type (0, 1), BuildingBlock: XIVTED_clean_linker_0, # of connection points: 2
#     Edge 59, Type (0, 1), BuildingBlock: XIVTED_clean_linker_0, # of connection points: 2
#     Edge 60, Type (0, 1), BuildingBlock: XIVTED_clean_linker_0, # of connection points: 2
#     Edge 61, Type (0, 1), BuildingBlock: XIVTED_clean_linker_0, # of connection points: 2
#     Edge 62, Type (0, 1), BuildingBlock: XIVTED_clean_linker_0, # of connection points: 2
#     Edge 63, Type (0, 1), BuildingBlock: XIVTED_clean_linker_0, # of connection points: 2
#     Edge 64, Type (0, 1), BuildingBlock: XIVTED_clean_linker_0, # of connection points: 2
#     Edge 65, Type (0, 1), BuildingBlock: XIVTED_clean_linker_0, # of connection points: 2
#     Edge 66, Type (0, 1), BuildingBlock: XIVTED_clean_linker_0, # of connection points: 2
#     Edge 67, Type (0, 1), BuildingBlock: XIVTED_clean_linker_0, # of connection points: 2
#     Edge 68, Type (0, 1), BuildingBlock: XIVTED_clean_linker_0, # of connection points: 2
#     Edge 69, Type (0, 1), BuildingBlock: XIVTED_clean_linker_0, # of connection points: 2
#     Edge 70, Type (0, 1), BuildingBlock: XIVTED_clean_linker_0, # of connection points: 2
#     Edge 71, Type (0, 1), BuildingBlock: XIVTED_clean_linker_0, # of connection points: 2
#     Edge 72, Type (0, 1), BuildingBlock: XIVTED_clean_linker_0, # of connection points: 2
#     Edge 73, Type (0, 1), BuildingBlock: XIVTED_clean_linker_0, # of connection points: 2
#     Edge 74, Type (0, 1), BuildingBlock: XIVTED_clean_linker_0, # of connection points: 2
#     Edge 75, Type (0, 1), BuildingBlock: XIVTED_clean_linker_0, # of connection points: 2
#     Edge 76, Type (0, 1), BuildingBlock: XIVTED_clean_linker_0, # of connection points: 2
#     Edge 77, Type (0, 1), BuildingBlock: XIVTED_clean_linker_0, # of connection points: 2
#     Edge 78, Type (0, 1), BuildingBlock: XIVTED_clean_linker_0, # of connection points: 2
#     Edge 79, Type (0, 1), BuildingBlock: XIVTED_clean_linker_0, # of connection points: 2
#     Edge 80, Type (0, 1), BuildingBlock: XIVTED_clean_linker_0, # of connection points: 2
#     Edge 81, Type (0, 1), BuildingBlock: XIVTED_clean_linker_0, # of connection points: 2
#     Edge 82, Type (0, 1), BuildingBlock: XIVTED_clean_linker_0, # of connection points: 2
#     Edge 83, Type (0, 1), BuildingBlock: XIVTED_clean_linker_0, # of connection points: 2
#     Edge 84, Type (0, 1), BuildingBlock: XIVTED_clean_linker_0, # of connection points: 2
#     Edge 85, Type (0, 1), BuildingBlock: XIVTED_clean_linker_0, # of connection points: 2
#     Edge 86, Type (0, 1), BuildingBlock: XIVTED_clean_linker_0, # of connection points: 2
#     Edge 87, Type (0, 1), BuildingBlock: XIVTED_clean_linker_0, # of connection points: 2
#     Edge 88, Type (0, 1), BuildingBlock: XIVTED_clean_linker_0, # of connection points: 2
#     Edge 89, Type (0, 1), BuildingBlock: XIVTED_clean_linker_0, # of connection points: 2
#     Edge 90, Type (0, 1), BuildingBlock: XIVTED_clean_linker_0, # of connection points: 2
#     Edge 91, Type (0, 1), BuildingBlock: XIVTED_clean_linker_0, # of connection points: 2
#     Edge 92, Type (0, 1), BuildingBlock: XIVTED_clean_linker_0, # of connection points: 2
#     Edge 93, Type (0, 1), BuildingBlock: XIVTED_clean_linker_0, # of connection points: 2
#     Edge 94, Type (0, 1), BuildingBlock: XIVTED_clean_linker_0, # of connection points: 2
#     Edge 95, Type (0, 1), BuildingBlock: XIVTED_clean_linker_0, # of connection points: 2
#     Edge 96, Type (0, 1), BuildingBlock: XIVTED_clean_linker_0, # of connection points: 2
#     Edge 97, Type (0, 1), BuildingBlock: XIVTED_clean_linker_0, # of connection points: 2
#     Edge 98, Type (0, 1), BuildingBlock: XIVTED_clean_linker_0, # of connection points: 2
#     Edge 99, Type (0, 1), BuildingBlock: XIVTED_clean_linker_0, # of connection points: 2
#     Edge 100, Type (0, 1), BuildingBlock: XIVTED_clean_linker_0, # of connection points: 2
#     Edge 101, Type (0, 1), BuildingBlock: XIVTED_clean_linker_0, # of connection points: 2
# Relax obj value: 0.070
# Max RMSD: 0.120
# Mean RMSD: 0.076
data_MOF--net-llk--node1-OLANEW_clean_sbu_2--node2-QEWDON_clean_sbu_0--edge1-XIVTED_clean_linker_0
_symmetry_space_group_name_H-M    P1
_symmetry_Int_Tables_number       1
_symmetry_cell_setting            triclinic
loop_
_symmetry_equiv_pos_as_xyz
'x, y, z'
_cell_length_a     47.478912
_cell_length_b     52.26371
_cell_length_c     50.019078
_cell_angle_alpha  90.01044
_cell_angle_beta   90.01176
_cell_angle_gamma 89.681621
loop_
_atom_site_label
_atom_site_type_symbol
_atom_site_fract_x
_atom_site_fract_y
_atom_site_fract_z
_atom_type_partial_charge
O0 O 0.08165 0.2966 0.34553 0.0
Cd1 Cd 0.0973 0.26365 0.31407 0.0
O2 O 0.04742 0.3097 0.31901 0.0
Cd3 Cd 0.06766 0.29813 0.28163 0.0
O4 O 0.08133 0.31776 0.24511 0.0
C5 C 0.06237 0.32925 0.23165 0.0
O6 O 0.03597 0.32698 0.2391 0.0
C7 C 0.05917 0.30944 0.34186 0.0
C8 C 0.07764 0.21683 0.33366 0.0
O9 O 0.10204 0.22514 0.34015 0.0
O10 O 0.06296 0.23021 0.31725 0.0
O11 O 0.64668 0.16195 0.24369 0.0
Cd12 Cd 0.66827 0.18397 0.20606 0.0
O13 O 0.68066 0.17163 0.27169 0.0
Cd14 Cd 0.70212 0.16618 0.31002 0.0
O15 O 0.72626 0.15273 0.34448 0.0
C16 C 0.72281 0.12992 0.35263 0.0
O17 O 0.70409 0.11547 0.34064 0.0
C18 C 0.65755 0.16038 0.26681 0.0
C19 C 0.6659 0.14959 0.16375 0.0
O20 O 0.68794 0.15104 0.17845 0.0
O21 O 0.64556 0.16521 0.16835 0.0
O22 O 0.07419 0.75142 0.34168 0.0
Cd23 Cd 0.09006 0.78972 0.31866 0.0
O24 O 0.0714 0.72936 0.30444 0.0
Cd25 Cd 0.05882 0.69572 0.28136 0.0
O26 O 0.04483 0.67041 0.24926 0.0
C27 C 0.0424 0.64627 0.25131 0.0
O28 O 0.04838 0.6351 0.27416 0.0
C29 C 0.06839 0.73075 0.32963 0.0
C30 C 0.06332 0.83078 0.34336 0.0
O31 O 0.05252 0.82009 0.32273 0.0
O32 O 0.08726 0.8226 0.35168 0.0
O33 O 0.3166 0.13465 0.30591 0.0
Cd34 Cd 0.32018 0.16157 0.26639 0.0
O35 O 0.29359 0.1064 0.28212 0.0
Cd36 Cd 0.26778 0.07225 0.27779 0.0
O37 O 0.22933 0.05152 0.28665 0.0
C38 C 0.20643 0.06357 0.28253 0.0
O39 O 0.20747 0.08634 0.27145 0.0
C40 C 0.30438 0.11314 0.30429 0.0
C41 C 0.35373 0.1368 0.22872 0.0
O42 O 0.36458 0.15209 0.24586 0.0
O43 O 0.32699 0.13359 0.22918 0.0
O44 O 0.99778 0.72352 0.71702 0.0
Cd45 Cd 0.99694 0.75392 0.75397 0.0
O46 O 0.96005 0.702 0.72851 0.0
Cd47 Cd 0.96093 0.7178 0.76892 0.0
O48 O 0.96836 0.70878 0.81098 0.0
C49 C 0.99275 0.7009 0.81767 0.0
O50 O 0.01285 0.70073 0.79961 0.0
C51 C 0.97951 0.70658 0.71178 0.0
C52 C 0.01105 0.80065 0.73098 0.0
O53 O 0.02999 0.78604 0.74115 0.0
O54 O 0.98528 0.79369 0.73283 0.0
O55 O 0.35528 0.89515 0.77205 0.0
Cd56 Cd 0.33214 0.87713 0.81117 0.0
O57 O 0.32231 0.92381 0.76401 0.0
Cd58 Cd 0.30275 0.953 0.7385 0.0
O59 O 0.28109 0.9739 0.70667 0.0
C60 C 0.28422 0.96619 0.68274 0.0
O61 O 0.3011 0.94669 0.67807 0.0
C62 C 0.34614 0.91393 0.75841 0.0
C63 C 0.36528 0.8918 0.8542 0.0
O64 O 0.34304 0.90449 0.84799 0.0
O65 O 0.37105 0.87151 0.84086 0.0
O66 O 0.99797 0.30254 0.6974 0.0
Cd67 Cd 0.98261 0.27205 0.73132 0.0
O68 O 0.0427 0.2927 0.70298 0.0
Cd69 Cd 0.03522 0.27716 0.74279 0.0
O70 O 0.0351 0.29014 0.78425 0.0
C71 C 0.05601 0.3038 0.79097 0.0
O72 O 0.07644 0.30713 0.77361 0.0
C73 C 0.02348 0.30416 0.68983 0.0
C74 C 0.98758 0.22363 0.7084 0.0
O75 O 0.96464 0.23651 0.70632 0.0
O76 O 0.00768 0.23326 0.72216 0.0
O77 O 0.66224 0.17892 0.74177 0.0
Cd78 Cd 0.65734 0.19988 0.78513 0.0
O79 O 0.69997 0.15868 0.75593 0.0
Cd80 Cd 0.73652 0.1334 0.75136 0.0
O81 O 0.7728 0.11057 0.73891 0.0
C82 C 0.79707 0.12068 0.73826 0.0
O83 O 0.79991 0.14454 0.74605 0.0
C84 C 0.68186 0.16276 0.73763 0.0
C85 C 0.647 0.16256 0.82362 0.0
O86 O 0.62671 0.17287 0.81051 0.0
O87 O 0.67208 0.17033 0.81893 0.0
O88 O 0.31082 0.27857 0.93206 0.0
Cd89 Cd 0.28666 0.23846 0.92456 0.0
O90 O 0.2879 0.28199 0.96979 0.0
Cd91 Cd 0.27091 0.30117 0.00511 0.0
O92 O 0.23427 0.32203 0.01997 0.0
C93 C 0.21084 0.31466 0.01048 0.0
O94 O 0.21056 0.29458 0.99466 0.0
C95 C 0.3064 0.29054 0.95376 0.0
C96 C 0.32616 0.20208 0.93957 0.0
O97 O 0.32362 0.20882 0.91505 0.0
O98 O 0.30892 0.21154 0.95668 0.0
O99 O 0.28542 0.75208 0.07401 0.0
Cd100 Cd 0.26544 0.79517 0.07791 0.0
O101 O 0.27232 0.7507 0.03194 0.0
Cd102 Cd 0.239 0.77885 0.03819 0.0
O103 O 0.19732 0.76192 0.04082 0.0
C104 C 0.1949 0.74381 0.05763 0.0
O105 O 0.21585 0.73927 0.07417 0.0
C106 C 0.28607 0.74111 0.05133 0.0
C107 C 0.30731 0.83043 0.06489 0.0
O108 O 0.30297 0.8236 0.08915 0.0
O109 O 0.29139 0.82103 0.04672 0.0
O110 O 0.78279 0.29829 0.0126 0.0
Cd111 Cd 0.8204 0.26583 0.01344 0.0
O112 O 0.77558 0.29437 0.96934 0.0
Cd113 Cd 0.81476 0.27295 0.96455 0.0
O114 O 0.85964 0.28002 0.96898 0.0
C115 C 0.87075 0.29427 0.95139 0.0
O116 O 0.85567 0.30073 0.93038 0.0
C117 C 0.76873 0.30408 0.99178 0.0
C118 C 0.79723 0.21681 0.01284 0.0
O119 O 0.80211 0.22849 0.03488 0.0
O120 O 0.80378 0.22811 0.991 0.0
O121 O 0.76932 0.71583 0.97775 0.0
Cd122 Cd 0.81213 0.74036 0.96964 0.0
O123 O 0.76914 0.72454 0.02079 0.0
Cd124 Cd 0.81365 0.73412 0.01911 0.0
O125 O 0.85338 0.71347 0.01532 0.0
C126 C 0.85225 0.694 0.00013 0.0
O127 O 0.82874 0.68946 0.98714 0.0
C128 C 0.75694 0.71536 0.00031 0.0
C129 C 0.79373 0.79088 0.96912 0.0
O130 O 0.79537 0.7779 0.94743 0.0
O131 O 0.80237 0.78039 0.9908 0.0
O132 O 0.54636 0.78268 0.76994 0.0
Cd133 Cd 0.54026 0.74581 0.74048 0.0
O134 O 0.50218 0.79452 0.76509 0.0
Cd135 Cd 0.5017 0.77667 0.72565 0.0
O136 O 0.51681 0.79199 0.68765 0.0
C137 C 0.54173 0.80077 0.6882 0.0
O138 O 0.55676 0.79762 0.71003 0.0
C139 C 0.52556 0.79643 0.77728 0.0
C140 C 0.52146 0.70581 0.77283 0.0
O141 O 0.54779 0.70912 0.76851 0.0
O142 O 0.50399 0.72083 0.76106 0.0
O143 O 0.25647 0.55166 0.76747 0.0
Cd144 Cd 0.29709 0.55648 0.738 0.0
O145 O 0.25125 0.59312 0.77306 0.0
Cd146 Cd 0.29515 0.59957 0.76188 0.0
O147 O 0.33574 0.59877 0.7825 0.0
C148 C 0.35515 0.58259 0.77756 0.0
O149 O 0.35224 0.56691 0.75723 0.0
C150 C 0.24196 0.57051 0.77595 0.0
C151 C 0.27553 0.55223 0.68646 0.0
O152 O 0.28509 0.53258 0.69889 0.0
O153 O 0.27749 0.57409 0.69793 0.0
O154 O 0.4386 0.18638 0.8408 0.0
Cd155 Cd 0.4145 0.22091 0.81682 0.0
O156 O 0.47004 0.17793 0.80942 0.0
Cd157 Cd 0.4473 0.1932 0.77488 0.0
O158 O 0.44267 0.17883 0.7339 0.0
C159 C 0.43598 0.15538 0.73155 0.0
O160 O 0.43004 0.14235 0.75328 0.0
C161 C 0.46107 0.17522 0.83319 0.0
C162 C 0.42677 0.26681 0.84337 0.0
O163 O 0.4057 0.25311 0.85034 0.0
O164 O 0.44155 0.2592 0.82342 0.0
O165 O 0.75903 0.52992 0.82894 0.0
Cd166 Cd 0.7397 0.53782 0.78462 0.0
O167 O 0.75832 0.48827 0.82268 0.0
Cd168 Cd 0.7247 0.49124 0.79293 0.0
O169 O 0.67871 0.49237 0.79331 0.0
C170 C 0.6653 0.51318 0.78968 0.0
O171 O 0.67931 0.53361 0.78232 0.0
C172 C 0.76623 0.50752 0.83627 0.0
C173 C 0.78555 0.53843 0.74968 0.0
O174 O 0.77601 0.55927 0.75982 0.0
O175 O 0.77285 0.51756 0.75538 0.0
O176 O 0.45538 0.23057 0.18938 0.0
Cd177 Cd 0.43998 0.26675 0.21695 0.0
O178 O 0.47322 0.20484 0.22023 0.0
Cd179 Cd 0.46501 0.22547 0.25743 0.0
O180 O 0.4653 0.21712 0.30036 0.0
C181 C 0.48764 0.20761 0.31044 0.0
O182 O 0.51011 0.2053 0.29527 0.0
C183 C 0.46757 0.20973 0.19589 0.0
C184 C 0.45085 0.3125 0.18967 0.0
O185 O 0.46859 0.30302 0.20631 0.0
O186 O 0.4276 0.30061 0.18619 0.0
O187 O 0.82301 0.44306 0.23801 0.0
Cd188 Cd 0.77886 0.43955 0.26282 0.0
O189 O 0.81424 0.48379 0.2308 0.0
Cd190 Cd 0.76893 0.47877 0.23611 0.0
O191 O 0.72692 0.475 0.21869 0.0
C192 C 0.72427 0.46022 0.19864 0.0
O193 O 0.74624 0.44688 0.19063 0.0
C194 C 0.8313 0.46496 0.23036 0.0
C195 C 0.7917 0.45742 0.31385 0.0
O196 O 0.7929 0.43349 0.30829 0.0
O197 O 0.78298 0.47278 0.29564 0.0
O198 O 0.61778 0.76416 0.22749 0.0
Cd199 Cd 0.61497 0.7247 0.25351 0.0
O200 O 0.6108 0.79563 0.25651 0.0
Cd201 Cd 0.60252 0.77737 0.29497 0.0
O202 O 0.58395 0.79401 0.33126 0.0
C203 C 0.55842 0.80138 0.32965 0.0
O204 O 0.54433 0.79642 0.30765 0.0
C205 C 0.6158 0.7879 0.23285 0.0
C206 C 0.59656 0.68577 0.21922 0.0
O207 O 0.57922 0.69862 0.23364 0.0
O208 O 0.62283 0.69083 0.22141 0.0
O209 O 0.21196 0.70642 0.19457 0.0
Cd210 Cd 0.20439 0.72668 0.23775 0.0
O211 O 0.25603 0.69701 0.20423 0.0
Cd212 Cd 0.29524 0.67697 0.19408 0.0
O213 O 0.3256 0.65001 0.17692 0.0
C214 C 0.32265 0.64353 0.15259 0.0
O215 O 0.30251 0.65419 0.13836 0.0
C216 C 0.23487 0.69505 0.18877 0.0
C217 C 0.17952 0.68929 0.26972 0.0
O218 O 0.16433 0.70494 0.25616 0.0
O219 O 0.20632 0.69197 0.26891 0.0
O220 O 0.86374 0.81151 0.41609 0.0
Cd221 Cd 0.84515 0.77385 0.39338 0.0
O222 O 0.82835 0.80738 0.4438 0.0
Cd223 Cd 0.7995 0.82213 0.47426 0.0
O224 O 0.76295 0.84358 0.4886 0.0
C225 C 0.73925 0.83791 0.47845 0.0
O226 O 0.73795 0.81875 0.46148 0.0
C227 C 0.85026 0.81937 0.43646 0.0
C228 C 0.86303 0.72934 0.41886 0.0
O229 O 0.87605 0.73779 0.39826 0.0
O230 O 0.84144 0.7418 0.42721 0.0
O231 O 0.7935 0.23931 0.51045 0.0
Cd232 Cd 0.75427 0.26954 0.51171 0.0
O233 O 0.78897 0.22918 0.46806 0.0
Cd234 Cd 0.74608 0.24401 0.47009 0.0
O235 O 0.70636 0.23121 0.4872 0.0
C236 C 0.70891 0.2164 0.50724 0.0
O237 O 0.73427 0.21175 0.51667 0.0
C238 C 0.80292 0.22812 0.48971 0.0
C239 C 0.78038 0.31664 0.5171 0.0
O240 O 0.77325 0.30352 0.53763 0.0
O241 O 0.77367 0.30814 0.49393 0.0
O242 O 0.1968 0.79572 0.55461 0.0
Cd243 Cd 0.23271 0.76263 0.56173 0.0
O244 O 0.20126 0.79456 0.51082 0.0
Cd245 Cd 0.2437 0.7782 0.5113 0.0
O246 O 0.28515 0.79333 0.50068 0.0
C247 C 0.30666 0.79218 0.51575 0.0
O248 O 0.30507 0.77959 0.53843 0.0
C249 C 0.18813 0.80221 0.53152 0.0
C250 C 0.2088 0.7146 0.55274 0.0
O251 O 0.20706 0.72538 0.57569 0.0
O252 O 0.22229 0.72628 0.53424 0.0
O253 O 0.2004 0.23182 0.53713 0.0
Cd254 Cd 0.23959 0.26186 0.53405 0.0
O255 O 0.21833 0.211 0.57136 0.0
Cd256 Cd 0.25939 0.22892 0.56718 0.0
O257 O 0.30094 0.21444 0.55633 0.0
C258 C 0.30235 0.20148 0.53485 0.0
O259 O 0.27987 0.20005 0.5196 0.0
C260 C 0.19829 0.21456 0.55494 0.0
C261 C 0.22032 0.31065 0.52033 0.0
O262 O 0.22759 0.29448 0.5023 0.0
O263 O 0.22238 0.3038 0.54486 0.0
Zn264 Zn 0.9218 0.00729 0.45724 0.0
Zn265 Zn 0.93965 0.06385 0.47425 0.0
O266 O 0.95354 0.02817 0.47236 0.0
H267 H 0.97156 0.02185 0.47852 0.0
C268 C 0.91803 0.97727 0.52948 0.0
O269 O 0.91835 0.99943 0.51707 0.0
Zn270 Zn 0.06957 0.0424 0.55998 0.0
Zn271 Zn 0.06598 0.98106 0.56704 0.0
O272 O 0.04262 0.01365 0.56566 0.0
H273 H 0.02244 0.01448 0.56329 0.0
Zn274 Zn 0.94699 0.00806 0.56935 0.0
O275 O 0.96576 0.03369 0.54467 0.0
Zn276 Zn 0.97321 0.06432 0.56735 0.0
H277 H 0.97584 0.02935 0.5285 0.0
Zn278 Zn 0.03883 0.98951 0.45934 0.0
O279 O 0.03401 0.01848 0.48629 0.0
H280 H 0.02583 0.01699 0.5039 0.0
Zn281 Zn 0.03761 0.05063 0.46485 0.0
C282 C 0.06086 0.94995 0.49635 0.0
O283 O 0.05997 0.96878 0.51373 0.0
O284 O 0.88513 0.02762 0.44965 0.0
O285 O 0.89764 0.06575 0.46549 0.0
O286 O 0.10856 0.98809 0.56879 0.0
O287 O 0.10993 0.03065 0.56818 0.0
O288 O 0.93173 0.02351 0.60452 0.0
O289 O 0.95267 0.06147 0.60295 0.0
C290 C 0.98682 0.08133 0.44426 0.0
O291 O 0.0558 0.00121 0.42341 0.0
O292 O 0.05589 0.04345 0.42892 0.0
O293 O 0.05199 0.95232 0.59246 0.0
C294 C 0.87931 0.05091 0.45514 0.0
O295 O 0.93449 0.97597 0.43495 0.0
C296 C 0.03307 0.07708 0.58722 0.0
O297 O 0.92877 0.97564 0.5527 0.0
C298 C 0.12221 0.00894 0.57039 0.0
O299 O 0.05252 0.95395 0.47257 0.0
C300 C 0.94799 0.09619 0.52529 0.0
O301 O 0.96046 0.0846 0.44673 0.0
O302 O 0.99858 0.06471 0.45923 0.0
C303 C 0.93689 0.04533 0.61478 0.0
O304 O 0.05888 0.07087 0.58512 0.0
O305 O 0.01544 0.06559 0.57233 0.0
C306 C 0.06827 0.07463 0.50941 0.0
O307 O 0.95771 0.09593 0.54897 0.0
O308 O 0.94996 0.07583 0.51146 0.0
C309 C 0.0614 0.0236 0.41497 0.0
O310 O 0.05993 0.07682 0.48539 0.0
O311 O 0.06402 0.05366 0.52166 0.0
C312 C 0.07 0.94133 0.60744 0.0
O313 O 0.09655 0.9481 0.60579 0.0
C314 C 0.95422 0.96301 0.44566 0.0
O315 O 0.96313 0.96955 0.46957 0.0
Zn316 Zn 0.5135 0.06219 0.04465 0.0
Zn317 Zn 0.51675 0.03889 0.98646 0.0
O318 O 0.5182 0.0282 0.02487 0.0
H319 H 0.5152 0.0112 0.03187 0.0
C320 C 0.55557 0.10104 0.05443 0.0
O321 O 0.55479 0.10821 0.02926 0.0
Zn322 Zn 0.60395 0.95707 0.94976 0.0
Zn323 Zn 0.60952 0.96108 0.01316 0.0
O324 O 0.58494 0.9719 0.9816 0.0
H325 H 0.57501 0.98806 0.98109 0.0
Zn326 Zn 0.59955 0.0681 0.03305 0.0
O327 O 0.59429 0.03356 0.01594 0.0
Zn328 Zn 0.61746 0.04171 0.98352 0.0
H329 H 0.57825 0.02236 0.01753 0.0
Zn330 Zn 0.5464 0.92837 0.04076 0.0
O331 O 0.56295 0.93168 0.00366 0.0
H332 H 0.55767 0.92966 0.02216 0.0
Zn333 Zn 0.53028 0.93999 0.98023 0.0
C334 C 0.5781 0.91499 0.08963 0.0
O335 O 0.57486 0.93948 0.09485 0.0
O336 O 0.49219 0.08933 0.02255 0.0
O337 O 0.49247 0.07062 0.98279 0.0
O338 O 0.6429 0.93733 0.00388 0.0
O339 O 0.6388 0.93661 0.95965 0.0
O340 O 0.63895 0.08274 0.02866 0.0
O341 O 0.65385 0.06073 0.99327 0.0
C342 C 0.5028 0.98756 0.96454 0.0
O343 O 0.50356 0.92206 0.03984 0.0
O344 O 0.49412 0.92535 0.9964 0.0
O345 O 0.61678 0.98857 0.04184 0.0
C346 C 0.48482 0.08882 0.99813 0.0
O347 O 0.49844 0.06267 0.08337 0.0
C348 C 0.62248 0.0075 0.93798 0.0
O349 O 0.57254 0.08338 0.06137 0.0
C350 C 0.65162 0.93009 0.98101 0.0
O351 O 0.5684 0.90602 0.06794 0.0
C352 C 0.56795 0.06217 0.95919 0.0
O353 O 0.49746 0.01139 0.9652 0.0
O354 O 0.52391 0.9784 0.977 0.0
C355 C 0.65811 0.07713 0.01182 0.0
O356 O 0.61622 0.98655 0.9266 0.0
O357 O 0.62255 0.0086 0.96338 0.0
C358 C 0.55548 0.92163 0.92636 0.0
O359 O 0.59452 0.06457 0.95971 0.0
O360 O 0.55674 0.04599 0.9749 0.0
C361 C 0.48641 0.9204 0.02032 0.0
O362 O 0.5367 0.92302 0.94453 0.0
O363 O 0.57884 0.93351 0.92803 0.0
C364 C 0.64117 0.99826 0.04379 0.0
O365 O 0.66148 0.98969 0.02829 0.0
C366 C 0.47205 0.05907 0.08477 0.0
O367 O 0.45844 0.0526 0.06293 0.0
Zn368 Zn 0.98406 0.46627 0.9628 0.0
Zn369 Zn 0.97617 0.52394 0.978 0.0
O370 O 0.00529 0.49999 0.96332 0.0
H371 H 0.02531 0.5014 0.96631 0.0
C372 C 0.99376 0.42733 0.02444 0.0
O373 O 0.98729 0.45077 0.01708 0.0
Zn374 Zn 0.11052 0.55388 0.04878 0.0
Zn375 Zn 0.14208 0.508 0.07334 0.0
O376 O 0.11236 0.51599 0.04529 0.0
H377 H 0.09685 0.50523 0.04004 0.0
Zn378 Zn 0.02107 0.4572 0.06496 0.0
O379 O 0.01989 0.49002 0.04309 0.0
Zn380 Zn 0.01652 0.5182 0.06963 0.0
H381 H 0.025 0.49185 0.0245 0.0
Zn382 Zn 0.07363 0.50158 0.95213 0.0
O383 O 0.08233 0.52718 0.98162 0.0
H384 H 0.09974 0.52586 0.99153 0.0
Zn385 Zn 0.06783 0.55746 0.96153 0.0
C386 C 0.08035 0.45741 0.98672 0.0
O387 O 0.07361 0.47477 0.0046 0.0
O388 O 0.94148 0.4708 0.95658 0.0
O389 O 0.93683 0.5114 0.96879 0.0
O390 O 0.16857 0.53843 0.08236 0.0
O391 O 0.14896 0.56831 0.05659 0.0
O392 O 0.00415 0.46247 0.10263 0.0
O393 O 0.00181 0.50495 0.10517 0.0
C394 C 0.00417 0.56764 0.95576 0.0
O395 O 0.08807 0.51451 0.91563 0.0
O396 O 0.08462 0.55613 0.92403 0.0
O397 O 0.13511 0.47768 0.09978 0.0
C398 C 0.92624 0.49061 0.96016 0.0
O399 O 0.00218 0.43426 0.94524 0.0
C400 C 0.06313 0.5526 0.08572 0.0
O401 O 0.0091 0.42411 0.04499 0.0
C402 C 0.16864 0.56085 0.07216 0.0
O403 O 0.08113 0.46371 0.96219 0.0
C404 C 0.97949 0.54588 0.03307 0.0
O405 O 0.98007 0.55837 0.96054 0.0
O406 O 0.02563 0.55433 0.96219 0.0
C407 C 0.99767 0.48284 0.11529 0.0
O408 O 0.0864 0.56317 0.08029 0.0
O409 O 0.05462 0.5343 0.0712 0.0
C410 C 0.09015 0.58987 0.00329 0.0
O411 O 0.99005 0.5457 0.05641 0.0
O412 O 0.98408 0.52699 0.01761 0.0
C413 C 0.09152 0.53771 0.90854 0.0
O414 O 0.07924 0.59012 0.98008 0.0
O415 O 0.09352 0.56831 0.01475 0.0
C416 C 0.11047 0.46833 0.10132 0.0
O417 O 0.09025 0.47838 0.08671 0.0
C418 C 0.02307 0.43559 0.92949 0.0
O419 O 0.03438 0.45799 0.92464 0.0
Zn420 Zn 0.47601 0.47602 0.96886 0.0
Zn421 Zn 0.4669 0.47155 0.03248 0.0
O422 O 0.47651 0.49636 0.00323 0.0
H423 H 0.48797 0.51148 0.00508 0.0
C424 C 0.50708 0.4058 0.9571 0.0
O425 O 0.50411 0.40399 0.98315 0.0
Zn426 Zn 0.56334 0.55738 0.04116 0.0
Zn427 Zn 0.54816 0.57001 0.98289 0.0
O428 O 0.55562 0.53909 0.0068 0.0
H429 H 0.54595 0.52296 0.00526 0.0
Zn430 Zn 0.55226 0.44226 0.97204 0.0
O431 O 0.53838 0.46579 0.00119 0.0
Zn432 Zn 0.56525 0.4628 0.03215 0.0
H433 H 0.52712 0.48076 0.99747 0.0
Zn434 Zn 0.45914 0.57674 0.98014 0.0
O435 O 0.48887 0.5711 0.0088 0.0
H436 H 0.50696 0.57943 0.00836 0.0
Zn437 Zn 0.46607 0.56455 0.0417 0.0
C438 C 0.45559 0.60472 0.92964 0.0
O439 O 0.43011 0.60914 0.93884 0.0
O440 O 0.45132 0.44416 0.97283 0.0
O441 O 0.44407 0.44195 0.01679 0.0
O442 O 0.57384 0.6002 0.99293 0.0
O443 O 0.58697 0.58895 0.03395 0.0
O444 O 0.59095 0.42703 0.98038 0.0
O445 O 0.60024 0.44129 0.02145 0.0
C446 C 0.44505 0.51496 0.06115 0.0
O447 O 0.4226 0.59192 0.99603 0.0
O448 O 0.42848 0.58312 0.0392 0.0
O449 O 0.5444 0.56375 0.94212 0.0
C450 C 0.44 0.43356 0.99308 0.0
O451 O 0.47048 0.49661 0.93374 0.0
C452 C 0.58415 0.50961 0.06456 0.0
O453 O 0.52525 0.42116 0.9477 0.0
C454 C 0.58834 0.60409 0.01397 0.0
O455 O 0.47247 0.59113 0.94343 0.0
C456 C 0.51811 0.44641 0.06388 0.0
O457 O 0.44333 0.49069 0.06019 0.0
O458 O 0.4622 0.52633 0.04586 0.0
C459 C 0.60709 0.42832 0.00068 0.0
O460 O 0.5829 0.53382 0.06711 0.0
O461 O 0.57355 0.49931 0.0438 0.0
C462 C 0.51256 0.57768 0.07499 0.0
O463 O 0.54484 0.4452 0.06224 0.0
O464 O 0.50491 0.45945 0.04636 0.0
C465 C 0.41418 0.59307 0.02021 0.0
O466 O 0.48592 0.57892 0.07368 0.0
O467 O 0.52538 0.56704 0.0556 0.0
C468 C 0.53693 0.54263 0.9318 0.0
O469 O 0.52947 0.52372 0.94755 0.0
C470 C 0.45612 0.51711 0.9356 0.0
O471 O 0.44696 0.52427 0.95925 0.0
Zn472 Zn 0.97634 0.49314 0.48178 0.0
Zn473 Zn 0.96636 0.55216 0.47186 0.0
O474 O 0.99751 0.52655 0.47665 0.0
H475 H 0.0155 0.5301 0.48486 0.0
C476 C 0.91782 0.45952 0.53959 0.0
O477 O 0.91589 0.48031 0.52493 0.0
Zn478 Zn 0.0655 0.55227 0.53917 0.0
Zn479 Zn 0.0745 0.49228 0.54099 0.0
O480 O 0.04395 0.51977 0.54124 0.0
H481 H 0.02445 0.51749 0.53631 0.0
Zn482 Zn 0.95641 0.49143 0.57076 0.0
O483 O 0.95931 0.51975 0.54333 0.0
Zn484 Zn 0.96298 0.55216 0.56437 0.0
H485 H 0.96582 0.51693 0.52528 0.0
Zn486 Zn 0.10678 0.51718 0.43452 0.0
O487 O 0.06611 0.51782 0.44719 0.0
H488 H 0.05901 0.50877 0.46261 0.0
Zn489 Zn 0.06202 0.55488 0.43884 0.0
C490 C 0.13443 0.47916 0.46784 0.0
O491 O 0.12327 0.49385 0.4864 0.0
O492 O 0.93621 0.49484 0.46612 0.0
O493 O 0.93241 0.53558 0.45387 0.0
O494 O 0.11355 0.5056 0.55285 0.0
O495 O 0.10499 0.54745 0.55385 0.0
O496 O 0.94374 0.50491 0.60739 0.0
O497 O 0.94683 0.54703 0.60216 0.0
C498 C 0.00508 0.58366 0.44157 0.0
O499 O 0.11584 0.54091 0.40245 0.0
O500 O 0.07533 0.5623 0.401 0.0
O501 O 0.06265 0.45701 0.55592 0.0
C502 C 0.92273 0.51285 0.45458 0.0
O503 O 0.99734 0.45966 0.47134 0.0
C504 C 0.0202 0.57993 0.56852 0.0
O505 O 0.93456 0.45913 0.5594 0.0
C506 C 0.12148 0.52842 0.55756 0.0
O507 O 0.13105 0.48516 0.44342 0.0
C508 C 0.94172 0.58039 0.52061 0.0
O509 O 0.98 0.58253 0.45031 0.0
O510 O 0.02154 0.56493 0.44643 0.0
C511 C 0.94028 0.52755 0.61624 0.0
O512 O 0.04582 0.57964 0.56106 0.0
O513 O 0.0045 0.5613 0.56183 0.0
C514 C 0.08754 0.57429 0.48818 0.0
O515 O 0.94078 0.58014 0.54597 0.0
O516 O 0.95579 0.56278 0.50915 0.0
C517 C 0.09944 0.55698 0.39107 0.0
O518 O 0.08807 0.57456 0.46281 0.0
O519 O 0.0688 0.56115 0.50002 0.0
C520 C 0.08096 0.44022 0.56211 0.0
O521 O 0.10772 0.44509 0.55797 0.0
C522 C 0.98212 0.44019 0.46686 0.0
O523 O 0.95485 0.44188 0.47099 0.0
Zn524 Zn 0.43759 0.98421 0.4535 0.0
Zn525 Zn 0.43678 0.04067 0.47568 0.0
O526 O 0.46362 0.01442 0.461 0.0
H527 H 0.48381 0.01379 0.46336 0.0
C528 C 0.44824 0.92927 0.51218 0.0
O529 O 0.43805 0.95141 0.50418 0.0
Zn530 Zn 0.56962 0.0531 0.55568 0.0
Zn531 Zn 0.60633 0.00283 0.56851 0.0
O532 O 0.56864 0.01515 0.55392 0.0
H533 H 0.55481 0.0051 0.54448 0.0
Zn534 Zn 0.48174 0.96173 0.54875 0.0
O535 O 0.47361 0.99687 0.53245 0.0
Zn536 Zn 0.47087 0.02003 0.56448 0.0
H537 H 0.47972 0.00198 0.51483 0.0
Zn538 Zn 0.55853 0.01087 0.44483 0.0
O539 O 0.54374 0.03056 0.47712 0.0
H540 H 0.53737 0.02313 0.49372 0.0
Zn541 Zn 0.53354 0.06505 0.4632 0.0
C542 C 0.59365 0.97474 0.47467 0.0
O543 O 0.59208 0.99312 0.49254 0.0
O544 O 0.39832 0.99633 0.44062 0.0
O545 O 0.39745 0.0339 0.4614 0.0
O546 O 0.62948 0.03149 0.58707 0.0
O547 O 0.6056 0.06572 0.57303 0.0
O548 O 0.47055 0.95987 0.58847 0.0
O549 O 0.4583 1.0001 0.59713 0.0
C550 C 0.47147 0.0827 0.45737 0.0
O551 O 0.56934 0.03347 0.41217 0.0
O552 O 0.5491 0.06955 0.42601 0.0
O553 O 0.60689 0.96595 0.5841 0.0
C554 C 0.38564 0.01709 0.44675 0.0
O555 O 0.45398 0.95037 0.43744 0.0
C556 C 0.51475 0.05663 0.58203 0.0
O557 O 0.46805 0.92895 0.52925 0.0
C558 C 0.62625 0.05572 0.58571 0.0
O559 O 0.58106 0.97752 0.45241 0.0
C560 C 0.43508 0.05491 0.53495 0.0
O561 O 0.44636 0.07551 0.46141 0.0
O562 O 0.49125 0.06772 0.46465 0.0
C563 C 0.46028 0.97669 0.60413 0.0
O564 O 0.5391 0.06624 0.57968 0.0
O565 O 0.50896 0.03614 0.56947 0.0
C566 C 0.56287 0.08843 0.50804 0.0
O567 O 0.44401 0.04927 0.55815 0.0
O568 O 0.44092 0.0398 0.51578 0.0
C569 C 0.56304 0.05698 0.40861 0.0
O570 O 0.55212 0.09233 0.48518 0.0
O571 O 0.56036 0.06652 0.51878 0.0
C572 C 0.59107 0.94907 0.57373 0.0
O573 O 0.57574 0.95515 0.55278 0.0
C574 C 0.47817 0.94136 0.44322 0.0
O575 O 0.49409 0.95363 0.46041 0.0
H576 H 0.19064 0.17151 0.58538 0.0
H577 H 0.06109 0.12467 0.49668 0.0
H578 H 0.15108 0.21671 0.52348 0.0
H579 H 0.10707 0.07533 0.5504 0.0
H580 H 0.0881 0.161 0.51287 0.0
H581 H 0.1545 0.13888 0.57943 0.0
C582 C 0.17411 0.1748 0.57083 0.0
C583 C 0.17413 0.19677 0.55463 0.0
C584 C 0.09209 0.1423 0.52142 0.0
C585 C 0.13281 0.15939 0.54768 0.0
C586 C 0.07668 0.12151 0.51219 0.0
C587 C 0.08196 0.09684 0.52216 0.0
C588 C 0.11322 0.13844 0.54063 0.0
C589 C 0.10217 0.09396 0.54236 0.0
C590 C 0.15354 0.15609 0.56741 0.0
C591 C 0.15211 0.19999 0.53621 0.0
N592 N 0.11734 0.11447 0.55074 0.0
N593 N 0.13252 0.18139 0.53306 0.0
H594 H 0.84161 0.2284 0.52995 0.0
H595 H 0.92404 0.10586 0.47575 0.0
H596 H 0.82398 0.19314 0.45374 0.0
H597 H 0.93734 0.13995 0.55318 0.0
H598 H 0.89294 0.14132 0.46397 0.0
H599 H 0.88199 0.20001 0.53536 0.0
C600 C 0.84637 0.21479 0.51423 0.0
C601 C 0.82916 0.2129 0.49152 0.0
C602 C 0.90285 0.14109 0.48346 0.0
C603 C 0.87538 0.1801 0.4977 0.0
C604 C 0.92061 0.12071 0.49024 0.0
C605 C 0.93278 0.11931 0.51574 0.0
C606 C 0.89725 0.16028 0.50239 0.0
C607 C 0.9281 0.13982 0.53339 0.0
C608 C 0.86949 0.19858 0.51732 0.0
C609 C 0.83659 0.19513 0.47165 0.0
N610 N 0.91047 0.15923 0.52651 0.0
N611 N 0.85898 0.17916 0.47535 0.0
H612 H 0.84925 0.82848 0.49018 0.0
H613 H 0.89656 0.97367 0.47888 0.0
H614 H 0.87254 0.86275 0.415 0.0
H615 H 0.91263 0.92867 0.54965 0.0
H616 H 0.88014 0.9352 0.45607 0.0
H617 H 0.86485 0.86726 0.51339 0.0
C618 C 0.85733 0.84431 0.47857 0.0
C619 C 0.85932 0.84264 0.45065 0.0
C620 C 0.8873 0.93379 0.47658 0.0
C621 C 0.8772 0.8868 0.47696 0.0
C622 C 0.89672 0.95572 0.48962 0.0
C623 C 0.90647 0.95435 0.51607 0.0
C624 C 0.88689 0.91041 0.49032 0.0
C625 C 0.90553 0.93061 0.52918 0.0
C626 C 0.86645 0.86627 0.49181 0.0
C627 C 0.87063 0.86337 0.43656 0.0
N628 N 0.89581 0.90956 0.51619 0.0
N629 N 0.87894 0.88473 0.44985 0.0
H630 H 0.16302 0.83185 0.57019 0.0
H631 H 0.06711 0.90762 0.46469 0.0
H632 H 0.15904 0.81412 0.48597 0.0
H633 H 0.08504 0.93579 0.54403 0.0
H634 H 0.09363 0.86873 0.47489 0.0
H635 H 0.1275 0.86541 0.56343 0.0
C636 C 0.15441 0.83476 0.55036 0.0
C637 C 0.16425 0.82032 0.52855 0.0
C638 C 0.0916 0.88333 0.49015 0.0
C639 C 0.12367 0.85865 0.52073 0.0
C640 C 0.07642 0.90555 0.48435 0.0
C641 C 0.07416 0.92518 0.50341 0.0
C642 C 0.10462 0.88061 0.5152 0.0
C643 C 0.08643 0.92126 0.52865 0.0
C644 C 0.13423 0.85398 0.54651 0.0
C645 C 0.15232 0.82494 0.50331 0.0
N646 N 0.10133 0.8995 0.53375 0.0
N647 N 0.1328 0.84377 0.50008 0.0
H648 H 0.49206 0.16262 0.20273 0.0
H649 H 0.51531 0.13803 0.04637 0.0
H650 H 0.46284 0.21446 0.14132 0.0
H651 H 0.55658 0.09473 0.10874 0.0
H652 H 0.48984 0.16235 0.08056 0.0
H653 H 0.50954 0.13377 0.16813 0.0
C654 C 0.4892 0.16793 0.18197 0.0
C655 C 0.47628 0.19123 0.17497 0.0
C656 C 0.50438 0.14745 0.08673 0.0
C657 C 0.49638 0.15818 0.13519 0.0
C658 C 0.51892 0.13354 0.06723 0.0
C659 C 0.53834 0.11449 0.07471 0.0
C660 C 0.50935 0.1423 0.11389 0.0
C661 C 0.54198 0.10936 0.10204 0.0
C662 C 0.49922 0.15142 0.16221 0.0
C663 C 0.47288 0.19684 0.14769 0.0
N664 N 0.5278 0.12332 0.12062 0.0
N665 N 0.48306 0.18052 0.1288 0.0
H666 H 0.85721 0.50977 0.2168 0.0
H667 H 0.98386 0.43934 0.14293 0.0
H668 H 0.87128 0.42814 0.21995 0.0
H669 H 0.97249 0.52139 0.14406 0.0
H670 H 0.94736 0.43542 0.17697 0.0
H671 H 0.90306 0.51486 0.19553 0.0
C672 C 0.87003 0.49291 0.2132 0.0
C673 C 0.86017 0.46844 0.21981 0.0
C674 C 0.95314 0.45431 0.17008 0.0
C675 C 0.91277 0.47415 0.19534 0.0
C676 C 0.97408 0.45659 0.15067 0.0
C677 C 0.98083 0.4807 0.14012 0.0
C678 C 0.93868 0.47626 0.17888 0.0
C679 C 0.96769 0.50236 0.15125 0.0
C680 C 0.89628 0.49585 0.20112 0.0
C681 C 0.87789 0.44735 0.21496 0.0
N682 N 0.94689 0.49959 0.16966 0.0
N683 N 0.90317 0.45066 0.20272 0.0
H684 H 0.61971 0.77908 0.17886 0.0
H685 H 0.5943 0.92609 0.14095 0.0
H686 H 0.61476 0.84018 0.23686 0.0
H687 H 0.58947 0.86388 0.08433 0.0
H688 H 0.6094 0.8957 0.1753 0.0
H689 H 0.61629 0.81074 0.14308 0.0
C690 C 0.61823 0.79915 0.1841 0.0
C691 C 0.61716 0.80692 0.21095 0.0
C692 C 0.60527 0.88874 0.15529 0.0
C693 C 0.61311 0.84326 0.17005 0.0
C694 C 0.5967 0.9061 0.13565 0.0
C695 C 0.59025 0.89747 0.10982 0.0
C696 C 0.60743 0.86259 0.14903 0.0
C697 C 0.59389 0.87136 0.10407 0.0
C698 C 0.61621 0.81722 0.16364 0.0
C699 C 0.61535 0.83324 0.21648 0.0
N700 N 0.60201 0.85483 0.12357 0.0
N701 N 0.61315 0.85043 0.19622 0.0
H702 H 0.25647 0.64687 0.18846 0.0
H703 H 0.17493 0.61038 0.05524 0.0
H704 H 0.21217 0.70135 0.13899 0.0
H705 H 0.20859 0.55545 0.11145 0.0
H706 H 0.19951 0.64436 0.07898 0.0
H707 H 0.24987 0.61429 0.15416 0.0
C708 C 0.24621 0.65221 0.16992 0.0
C709 C 0.23528 0.67692 0.16627 0.0
C710 C 0.2019 0.62481 0.08584 0.0
C711 C 0.22665 0.63947 0.12738 0.0
C712 C 0.18789 0.60535 0.07228 0.0
C713 C 0.18899 0.58008 0.08186 0.0
C714 C 0.21713 0.61896 0.10911 0.0
C715 C 0.20668 0.57469 0.10363 0.0
C716 C 0.24211 0.63349 0.15049 0.0
C717 C 0.22107 0.68251 0.14241 0.0
N718 N 0.21966 0.59405 0.11682 0.0
N719 N 0.21696 0.66385 0.12391 0.0
H720 H 0.48435 0.82285 0.80433 0.0
H721 H 0.59336 0.90665 0.88808 0.0
H722 H 0.57457 0.81296 0.79988 0.0
H723 H 0.50641 0.89785 0.91162 0.0
H724 H 0.58556 0.8768 0.85134 0.0
H725 H 0.49094 0.85453 0.83989 0.0
C726 C 0.50552 0.82731 0.81083 0.0
C727 C 0.52895 0.81517 0.79918 0.0
C728 C 0.56818 0.88147 0.86452 0.0
C729 C 0.53659 0.85153 0.83953 0.0
C730 C 0.57256 0.89861 0.88544 0.0
C731 C 0.55052 0.90475 0.90307 0.0
C732 C 0.54151 0.87053 0.86096 0.0
C733 C 0.52403 0.89365 0.89859 0.0
C734 C 0.50924 0.84535 0.83112 0.0
C735 C 0.5559 0.82172 0.80838 0.0
N736 N 0.52025 0.87709 0.87795 0.0
N737 N 0.55898 0.83952 0.82791 0.0
H738 H 0.21549 0.52484 0.78467 0.0
H739 H 0.10484 0.58464 0.88758 0.0
H740 H 0.20748 0.60579 0.80035 0.0
H741 H 0.11407 0.50364 0.87263 0.0
H742 H 0.13737 0.59322 0.8509 0.0
H743 H 0.17394 0.51725 0.81218 0.0
C744 C 0.20487 0.54106 0.79371 0.0
C745 C 0.21524 0.56598 0.79044 0.0
C746 C 0.13202 0.57358 0.85543 0.0
C747 C 0.1676 0.55738 0.82211 0.0
C748 C 0.11335 0.56865 0.87635 0.0
C749 C 0.10702 0.54334 0.88352 0.0
C750 C 0.14455 0.55307 0.84162 0.0
C751 C 0.11854 0.52345 0.86805 0.0
C752 C 0.1811 0.53671 0.80942 0.0
C753 C 0.20041 0.58625 0.80248 0.0
N754 N 0.13701 0.52873 0.84807 0.0
N755 N 0.17752 0.58148 0.81799 0.0
H756 H 0.51751 0.1654 0.83333 0.0
H757 H 0.5155 0.05319 0.93821 0.0
H758 H 0.44072 0.14752 0.87538 0.0
H759 H 0.58358 0.10748 0.93704 0.0
H760 H 0.48905 0.08082 0.90727 0.0
H761 H 0.54359 0.13746 0.86411 0.0
C762 C 0.50616 0.15554 0.84899 0.0
C763 C 0.47696 0.15879 0.85192 0.0
C764 C 0.50959 0.08677 0.91427 0.0
C765 C 0.50647 0.12655 0.88658 0.0
C766 C 0.52455 0.07118 0.93203 0.0
C767 C 0.55121 0.07859 0.94111 0.0
C768 C 0.52169 0.10957 0.90519 0.0
C769 C 0.56277 0.10134 0.93106 0.0
C770 C 0.52103 0.13972 0.86651 0.0
C771 C 0.46325 0.14563 0.87259 0.0
N772 N 0.54794 0.11605 0.91361 0.0
N773 N 0.47811 0.12982 0.88903 0.0
H774 H 0.78477 0.54406 0.87126 0.0
H775 H 0.89634 0.45049 0.93935 0.0
H776 H 0.78975 0.463 0.85508 0.0
H777 H 0.88939 0.53111 0.95741 0.0
H778 H 0.85251 0.45331 0.91403 0.0
H779 H 0.8185 0.53848 0.90762 0.0
C780 C 0.7928 0.52504 0.87546 0.0
C781 C 0.78472 0.50402 0.85982 0.0
C782 C 0.86035 0.47031 0.92386 0.0
C783 C 0.82344 0.4975 0.90146 0.0
C784 C 0.88536 0.4687 0.93843 0.0
C785 C 0.89691 0.49071 0.9501 0.0
C786 C 0.84688 0.49412 0.92078 0.0
C787 C 0.88153 0.51369 0.94845 0.0
C788 C 0.81202 0.52185 0.8963 0.0
C789 C 0.79559 0.47979 0.86642 0.0
N790 N 0.85756 0.51488 0.93366 0.0
N791 N 0.81463 0.47725 0.88655 0.0
H792 H 0.72113 0.70111 0.96025 0.0
H793 H 0.62148 0.62048 0.05557 0.0
H794 H 0.72933 0.70167 0.04621 0.0
H795 H 0.60285 0.63544 0.97247 0.0
H796 H 0.65996 0.65133 0.05324 0.0
H797 H 0.67689 0.67798 0.96471 0.0
C798 C 0.71354 0.6965 0.98008 0.0
C799 C 0.72907 0.70314 0.00288 0.0
C800 C 0.64721 0.64806 0.03562 0.0
C801 C 0.67848 0.67649 0.00814 0.0
C802 C 0.62525 0.63044 0.03693 0.0
C803 C 0.6091 0.62511 0.01409 0.0
C804 C 0.65324 0.66021 0.01125 0.0
C805 C 0.61484 0.63876 0.99054 0.0
C806 C 0.68821 0.68336 0.98263 0.0
C807 C 0.71808 0.69684 0.02809 0.0
N808 N 0.63664 0.65542 0.98966 0.0
N809 N 0.6936 0.6836 0.03004 0.0
H810 H 0.29127 0.71295 0.00553 0.0
H811 H 0.39808 0.61136 0.06926 0.0
H812 H 0.31659 0.71384 0.08846 0.0
H813 H 0.37512 0.61322 0.98575 0.0
H814 H 0.36347 0.64504 0.07809 0.0
H815 H 0.31769 0.67333 0.99926 0.0
C816 C 0.3024 0.70483 0.02246 0.0
C817 C 0.30198 0.71695 0.0475 0.0
C818 C 0.36569 0.63779 0.05791 0.0
C819 C 0.33223 0.67135 0.04044 0.0
C820 C 0.3853 0.61838 0.05287 0.0
C821 C 0.38968 0.60955 0.02667 0.0
C822 C 0.35034 0.64843 0.0366 0.0
C823 C 0.37267 0.6196 0.00622 0.0
C824 C 0.31741 0.68211 0.01887 0.0
C825 C 0.31657 0.70533 0.06873 0.0
N826 N 0.35397 0.63866 0.01158 0.0
N827 N 0.33124 0.68324 0.06468 0.0
H828 H 0.33219 0.32222 0.91842 0.0
H829 H 0.41192 0.40431 0.03028 0.0
H830 H 0.32045 0.31014 0.003 0.0
H831 H 0.42305 0.41394 0.94516 0.0
H832 H 0.37774 0.37037 0.0213 0.0
H833 H 0.36452 0.35695 0.9284 0.0
C834 C 0.33606 0.32716 0.93913 0.0
C835 C 0.32315 0.31355 0.9599 0.0
C836 C 0.38773 0.37994 0.00464 0.0
C837 C 0.36058 0.35317 0.97156 0.0
C838 C 0.40729 0.39927 0.00974 0.0
C839 C 0.42041 0.41205 0.98846 0.0
C840 C 0.38126 0.37341 0.97808 0.0
C841 C 0.41353 0.4047 0.96226 0.0
C842 C 0.35462 0.34696 0.94484 0.0
C843 C 0.32919 0.32063 0.98636 0.0
N844 N 0.39448 0.38593 0.95785 0.0
N845 N 0.34757 0.33991 0.99146 0.0
H846 H 0.7356 0.32179 0.95101 0.0
H847 H 0.64244 0.41557 0.04259 0.0
H848 H 0.74867 0.32959 0.03604 0.0
H849 H 0.63168 0.40572 0.95748 0.0
H850 H 0.68286 0.38602 0.04096 0.0
H851 H 0.69827 0.35379 0.95344 0.0
C852 C 0.73057 0.33016 0.97025 0.0
C853 C 0.74529 0.32288 0.99336 0.0
C854 C 0.67168 0.3905 0.02266 0.0
C855 C 0.70243 0.35984 0.99631 0.0
C856 C 0.64872 0.40745 0.02356 0.0
C857 C 0.63344 0.41297 0.00019 0.0
C858 C 0.67939 0.37912 0.99822 0.0
C859 C 0.64254 0.40187 0.97609 0.0
C860 C 0.70925 0.34855 0.97162 0.0
C861 C 0.73783 0.33455 0.01771 0.0
N862 N 0.66474 0.38545 0.97579 0.0
N863 N 0.7169 0.35245 0.01856 0.0
H864 H 0.01918 0.71094 0.6725 0.0
H865 H 0.96774 0.58811 0.59137 0.0
H866 H 0.94561 0.66746 0.69437 0.0
H867 H 0.04974 0.62219 0.58325 0.0
H868 H 0.95477 0.62141 0.62335 0.0
H869 H 0.02587 0.68315 0.63389 0.0
C870 C 0.00427 0.69567 0.66909 0.0
C871 C 0.982 0.69133 0.68694 0.0
C872 C 0.97554 0.62162 0.61442 0.0
C873 C 0.98962 0.65935 0.64267 0.0
C874 C 0.98299 0.60247 0.59619 0.0
C875 C 0.01009 0.60169 0.58509 0.0
C876 C 0.99531 0.64037 0.62131 0.0
C877 C 0.0287 0.62158 0.59158 0.0
C878 C 0.00814 0.67977 0.64702 0.0
C879 C 0.96322 0.67136 0.68128 0.0
N880 N 0.02104 0.63994 0.60936 0.0
N881 N 0.96759 0.65596 0.65973 0.0
H882 H 0.35148 0.96364 0.74191 0.0
H883 H 0.46111 0.92869 0.62597 0.0
H884 H 0.38165 0.88717 0.72594 0.0
H885 H 0.43001 0.00532 0.64026 0.0
H886 H 0.43462 0.91381 0.66458 0.0
H887 H 0.38138 0.97971 0.70594 0.0
C888 C 0.36389 0.95016 0.73041 0.0
C889 C 0.36339 0.92393 0.73628 0.0
C890 C 0.43372 0.93392 0.65941 0.0
C891 C 0.39859 0.94228 0.69591 0.0
C892 C 0.44895 0.94247 0.63738 0.0
C893 C 0.44759 0.96828 0.62965 0.0
C894 C 0.41688 0.95123 0.67383 0.0
C895 C 0.43158 0.98523 0.64536 0.0
C896 C 0.38133 0.95939 0.71018 0.0
C897 C 0.38116 0.9075 0.7218 0.0
N898 N 0.41664 0.97636 0.66657 0.0
N899 N 0.39795 0.91693 0.7022 0.0
H900 H 0.9883 0.33307 0.6584 0.0
H901 H 0.11478 0.40193 0.58173 0.0
H902 H 0.07593 0.31293 0.66901 0.0
H903 H 0.02759 0.42501 0.57506 0.0
H904 H 0.1004 0.36566 0.60927 0.0
H905 H 0.00181 0.36323 0.62347 0.0
C906 C 0.01036 0.33481 0.65325 0.0
C907 C 0.03104 0.32062 0.66689 0.0
C908 C 0.0844 0.37855 0.6016 0.0
C909 C 0.04665 0.35523 0.62695 0.0
C910 C 0.09259 0.39925 0.58584 0.0
C911 C 0.07239 0.41672 0.57634 0.0
C912 C 0.05581 0.3753 0.60793 0.0
C913 C 0.04392 0.41218 0.58216 0.0
C914 C 0.01806 0.35207 0.6333 0.0
C915 C 0.05928 0.3236 0.6592 0.0
N916 N 0.03651 0.39204 0.59775 0.0
N917 N 0.06627 0.34071 0.6399 0.0
H918 H 0.69855 0.11306 0.72929 0.0
H919 H 0.62821 0.10811 0.58539 0.0
H920 H 0.66463 0.17907 0.6885 0.0
H921 H 0.66401 0.04209 0.62493 0.0
H922 H 0.64926 0.13553 0.61918 0.0
H923 H 0.69368 0.08821 0.68827 0.0
C924 C 0.69101 0.12259 0.71146 0.0
C925 C 0.68245 0.14832 0.71221 0.0
C926 C 0.6529 0.11508 0.62029 0.0
C927 C 0.67565 0.11964 0.66539 0.0
C928 C 0.64097 0.09936 0.60086 0.0
C929 C 0.64394 0.07265 0.60248 0.0
C930 C 0.66765 0.10404 0.64176 0.0
C931 C 0.66089 0.06254 0.62298 0.0
C932 C 0.68785 0.10827 0.68809 0.0
C933 C 0.67148 0.15927 0.68879 0.0
N934 N 0.67168 0.0782 0.64208 0.0
N935 N 0.66818 0.14484 0.66642 0.0
H936 H 0.00503 0.32638 0.34698 0.0
H937 H 0.03785 0.42761 0.45958 0.0
H938 H 0.08596 0.32834 0.38619 0.0
H939 H 0.95365 0.40104 0.44319 0.0
H940 H 0.05666 0.39247 0.43231 0.0
H941 H 0.98618 0.35508 0.38118 0.0
C942 C 0.01879 0.33274 0.3629 0.0
C943 C 0.04713 0.32508 0.3637 0.0
C944 C 0.03409 0.39419 0.43502 0.0
C945 C 0.02578 0.35817 0.40271 0.0
C946 C 0.02335 0.41424 0.45051 0.0
C947 C 0.99413 0.41739 0.45346 0.0
C948 C 0.01545 0.37752 0.42204 0.0
C949 C 0.97631 0.39943 0.44138 0.0
C950 C 0.00799 0.34902 0.38248 0.0
C951 C 0.06397 0.33378 0.38488 0.0
N952 N 0.98724 0.3805 0.42589 0.0
N953 N 0.05314 0.35019 0.40338 0.0
H954 H 0.6504 0.17184 0.31953 0.0
H955 H 0.58668 0.0379 0.36225 0.0
H956 H 0.63291 0.11382 0.26061 0.0
H957 H 0.56681 0.1086 0.40302 0.0
H958 H 0.60963 0.0628 0.32672 0.0
H959 H 0.62649 0.14587 0.35328 0.0
C960 C 0.64179 0.15348 0.31383 0.0
C961 C 0.64376 0.14477 0.28743 0.0
C962 C 0.59998 0.07272 0.34341 0.0
C963 C 0.61635 0.11515 0.32567 0.0
C964 C 0.58692 0.05858 0.36363 0.0
C965 C 0.57474 0.07117 0.3856 0.0
C966 C 0.60135 0.09948 0.34561 0.0
C967 C 0.57572 0.09804 0.38641 0.0
C968 C 0.62795 0.13881 0.33296 0.0
C969 C 0.63173 0.12113 0.28084 0.0
N970 N 0.58905 0.11124 0.36689 0.0
N971 N 0.61867 0.10696 0.29992 0.0
H972 H 0.08521 0.68112 0.32588 0.0
H973 H 0.97161 0.62129 0.42047 0.0
H974 H 0.0284 0.73106 0.36854 0.0
H975 H 0.05867 0.59865 0.42803 0.0
H976 H 0.98627 0.6576 0.39286 0.0
H977 H 0.06941 0.64521 0.35386 0.0
C978 C 0.06916 0.68433 0.34088 0.0
C979 C 0.05794 0.70883 0.34498 0.0
C980 C 0.00204 0.64438 0.4004 0.0
C981 C 0.03985 0.66827 0.37652 0.0
C982 C 0.9938 0.62369 0.41612 0.0
C983 C 0.01396 0.60615 0.42573 0.0
C984 C 0.03052 0.64725 0.39386 0.0
C985 C 0.04237 0.61061 0.41981 0.0
C986 C 0.06041 0.66403 0.35688 0.0
C987 C 0.03751 0.71234 0.36491 0.0
N988 N 0.04983 0.6305 0.4039 0.0
N989 N 0.02884 0.69215 0.37986 0.0
H990 H 0.30093 0.12687 0.35671 0.0
H991 H 0.36128 0.99328 0.4036 0.0
H992 H 0.30822 0.06086 0.30542 0.0
H993 H 0.35204 0.05912 0.45507 0.0
H994 H 0.33036 0.01387 0.37099 0.0
H995 H 0.30884 0.09937 0.39551 0.0
C996 C 0.30359 0.10647 0.35369 0.0
C997 C 0.30389 0.09611 0.32784 0.0
C998 C 0.33455 0.02357 0.3897 0.0
C999 C 0.31355 0.06453 0.37208 0.0
C1000 C 0.35209 0.01171 0.40847 0.0
C1001 C 0.36002 0.02482 0.43179 0.0
C1002 C 0.32505 0.04871 0.39425 0.0
C1003 C 0.34712 0.04855 0.43707 0.0
C1004 C 0.30807 0.09074 0.37584 0.0
C1005 C 0.30737 0.06957 0.32501 0.0
N1006 N 0.33083 0.05998 0.41817 0.0
N1007 N 0.31257 0.05475 0.34683 0.0
H1008 H 0.02576 0.19553 0.32563 0.0
H1009 H 0.04395 0.09113 0.44144 0.0
H1010 H 0.10281 0.18478 0.37015 0.0
H1011 H 0.96516 0.10852 0.40258 0.0
H1012 H 0.06769 0.12095 0.41154 0.0
H1013 H 0.00516 0.15947 0.34952 0.0
C1014 C 0.03847 0.18544 0.34025 0.0
C1015 C 0.066 0.19337 0.34603 0.0
C1016 C 0.04523 0.11807 0.40942 0.0
C1017 C 0.04243 0.15204 0.37365 0.0
C1018 C 0.03168 0.10086 0.42647 0.0
C1019 C 0.0025 0.09725 0.42475 0.0
C1020 C 0.02944 0.1318 0.39042 0.0
C1021 C 0.98769 0.11076 0.40488 0.0
C1022 C 0.02665 0.16486 0.35395 0.0
C1023 C 0.08146 0.17946 0.36514 0.0
N1024 N 0.00126 0.12748 0.38864 0.0
N1025 N 0.0694 0.15959 0.37839 0.0
H1026 H 0.76158 0.15489 0.38362 0.0
H1027 H 0.83419 0.02583 0.4332 0.0
H1028 H 0.72709 0.07997 0.36872 0.0
H1029 H 0.86179 0.10096 0.45735 0.0
H1030 H 0.79233 0.04518 0.41311 0.0
H1031 H 0.79595 0.13564 0.41401 0.0
C1032 C 0.76106 0.13441 0.38691 0.0
C1033 C 0.74165 0.11898 0.37332 0.0
C1034 C 0.80737 0.05741 0.42309 0.0
C1035 C 0.78111 0.09677 0.40796 0.0
C1036 C 0.83131 0.04636 0.4346 0.0
C1037 C 0.85183 0.0618 0.44665 0.0
C1038 C 0.80401 0.08414 0.42339 0.0
C1039 C 0.84675 0.08829 0.44803 0.0
C1040 C 0.78068 0.12343 0.40432 0.0
C1041 C 0.74181 0.09259 0.37859 0.0
N1042 N 0.82357 0.09863 0.43621 0.0
N1043 N 0.76146 0.08229 0.39523 0.0
H1044 H 0.0779 0.85356 0.39058 0.0
H1045 H 0.94226 0.94493 0.39546 0.0
H1046 H 0.01355 0.85399 0.32956 0.0
H1047 H -0.0006 0.93439 0.46176 0.0
H1048 H 0.96895 0.91296 0.3701 0.0
H1049 H 0.05076 0.88523 0.41573 0.0
C1050 C 0.05815 0.86043 0.38238 0.0
C1051 C 0.04796 0.8511 0.35793 0.0
C1052 C 0.97558 0.91761 0.39023 0.0
C1053 C 0.01671 0.88726 0.3867 0.0
C1054 C 0.96033 0.93582 0.40473 0.0
C1055 C 0.96873 0.94246 0.4307 0.0
C1056 C -0.00052 0.90609 0.40174 0.0
C1057 C 0.99228 0.93 0.44173 0.0
C1058 C 0.04259 0.87842 0.39682 0.0
C1059 C 0.02218 0.86064 0.34834 0.0
N1060 N 0.00692 0.91253 0.42714 0.0
N1061 N 0.00743 0.8782 0.36275 0.0
H1062 H 0.15612 0.08905 0.28613 0.0
H1063 H 0.09014 0.98698 0.38662 0.0
H1064 H 0.19623 0.01724 0.30629 0.0
H1065 H 0.0676 0.06714 0.38522 0.0
H1066 H 0.12082 0.99388 0.34803 0.0
H1067 H 0.11539 0.07678 0.31293 0.0
C1068 C 0.15619 0.0705 0.29579 0.0
C1069 C 0.17986 0.05435 0.29441 0.0
C1070 C 0.10884 0.00985 0.35599 0.0
C1071 C 0.13333 0.04028 0.32508 0.0
C1072 C 0.09126 0.00594 0.37795 0.0
C1073 C 0.07667 0.02663 0.38945 0.0
C1074 C 0.11159 0.03454 0.34533 0.0
C1075 C 0.07884 0.05074 0.37729 0.0
C1076 C 0.13295 0.06357 0.31115 0.0
C1077 C 0.17861 0.03045 0.30716 0.0
N1078 N 0.09618 0.05407 0.35601 0.0
N1079 N 0.15585 0.02425 0.32224 0.0
H1080 H 0.97625 0.83368 0.70393 0.0
H1081 H 0.10355 0.9136 0.64124 0.0
H1082 H 0.06378 0.82012 0.72291 0.0
H1083 H 0.01664 0.92413 0.61811 0.0
H1084 H 0.08898 0.88119 0.67339 0.0
H1085 H 0.99021 0.86913 0.67506 0.0
C1086 C 0.99839 0.83831 0.70226 0.0
C1087 C 0.01889 0.82382 0.71578 0.0
C1088 C 0.07306 0.8906 0.66132 0.0
C1089 C 0.03502 0.86425 0.68257 0.0
C1090 C 0.08138 0.90911 0.64291 0.0
C1091 C 0.06129 0.92157 0.62687 0.0
C1092 C 0.04443 0.88446 0.66379 0.0
C1093 C 0.03286 0.91496 0.62999 0.0
C1094 C 0.00635 0.8585 0.68567 0.0
C1095 C 0.04725 0.83071 0.71282 0.0
N1096 N 0.02528 0.89684 0.64807 0.0
N1097 N 0.05448 0.85034 0.69644 0.0
H1098 H 0.27668 0.9471 0.63233 0.0
H1099 H 0.15279 0.0455 0.59664 0.0
H1100 H 0.25123 0.00946 0.68369 0.0
H1101 H 0.15905 0.96897 0.56465 0.0
H1102 H 0.1978 0.03888 0.61971 0.0
H1103 H 0.24239 0.96153 0.59903 0.0
C1104 C 0.26421 0.96405 0.63646 0.0
C1105 C 0.26648 0.97684 0.66105 0.0
C1106 C 0.18953 0.02376 0.6072 0.0
C1107 C 0.22737 0.99349 0.62293 0.0
C1108 C 0.16397 0.02757 0.59387 0.0
C1109 C 0.15198 0.00761 0.57901 0.0
C1110 C 0.20327 0.99997 0.60535 0.0
C1111 C 0.16737 0.98475 0.57619 0.0
C1112 C 0.24462 0.97223 0.61745 0.0
C1113 C 0.24987 0.9988 0.66518 0.0
N1114 N 0.19209 0.98147 0.58946 0.0
N1115 N 0.23083 0.00632 0.64641 0.0
H1116 H 0.95048 0.19944 0.67487 0.0
H1117 H 0.0648 0.09591 0.62793 0.0
H1118 H 0.03396 0.19244 0.70842 0.0
H1119 H 0.98241 0.10289 0.59235 0.0
H1120 H 0.05211 0.12901 0.65998 0.0
H1121 H 0.95978 0.16161 0.64733 0.0
C1122 C 0.97065 0.18981 0.67666 0.0
C1123 C 0.99157 0.19925 0.69384 0.0
C1124 C 0.03666 0.12321 0.64528 0.0
C1125 C 0.00239 0.15612 0.66223 0.0
C1126 C 0.04391 0.10431 0.62687 0.0
C1127 C 0.02458 0.0965 0.60729 0.0
C1128 C 0.00989 0.13466 0.64411 0.0
C1129 C 0.99785 0.10806 0.6071 0.0
C1130 C 0.97596 0.16826 0.66087 0.0
C1131 C 0.01727 0.18596 0.69536 0.0
N1132 N 0.99132 0.12666 0.62513 0.0
N1133 N 0.02201 0.16521 0.67963 0.0
H1134 H 0.79889 0.07086 0.72127 0.0
H1135 H 0.94363 0.08949 0.64368 0.0
H1136 H 0.84999 0.13866 0.72765 0.0
H1137 H 0.89522 0.01978 0.64157 0.0
H1138 H 0.91299 0.10558 0.67911 0.0
H1139 H 0.8369 0.0498 0.69669 0.0
C1140 C 0.81822 0.08124 0.71774 0.0
C1141 C 0.82109 0.1067 0.7262 0.0
C1142 C 0.90928 0.08663 0.67115 0.0
C1143 C 0.86468 0.08274 0.69789 0.0
C1144 C 0.92681 0.07739 0.6509 0.0
C1145 C 0.92172 0.05339 0.63927 0.0
C1146 C 0.88635 0.07187 0.67971 0.0
C1147 C 0.89978 0.0385 0.6497 0.0
C1148 C 0.83995 0.06919 0.70371 0.0
C1149 C 0.84673 0.1191 0.72128 0.0
N1150 N 0.88267 0.04814 0.66905 0.0
N1151 N 0.86739 0.10711 0.70716 0.0
H1152 H 0.33703 0.1026 0.19062 0.0
H1153 H 0.49173 0.08222 0.13033 0.0
H1154 H 0.41098 0.13972 0.22212 0.0
H1155 H 0.41598 0.05261 0.09435 0.0
H1156 H 0.46346 0.09949 0.16711 0.0
H1157 H 0.36656 0.08058 0.15791 0.0
C1158 C 0.35949 0.10611 0.19067 0.0
C1159 C 0.37152 0.12315 0.20904 0.0
C1160 C 0.45308 0.08903 0.15127 0.0
C1161 C 0.40552 0.09791 0.17163 0.0
C1162 C 0.46922 0.0791 0.13031 0.0
C1163 C 0.45615 0.06624 0.10906 0.0
C1164 C 0.42371 0.08588 0.15104 0.0
C1165 C 0.42692 0.06258 0.11018 0.0
C1166 C 0.37636 0.0935 0.172 0.0
C1167 C 0.40079 0.12683 0.20826 0.0
N1168 N 0.41169 0.07248 0.13071 0.0
N1169 N 0.41679 0.11437 0.1898 0.0
H1170 H 0.02676 0.35446 0.19759 0.0
H1171 H 0.14732 0.44148 0.13329 0.0
H1172 H 0.11501 0.34532 0.21624 0.0
H1173 H 0.05982 0.44516 0.11011 0.0
H1174 H 0.13631 0.4058 0.16317 0.0
H1175 H 0.03886 0.38695 0.16461 0.0
C1176 C 0.04873 0.35913 0.19462 0.0
C1177 C 0.06988 0.34718 0.20984 0.0
C1178 C 0.11954 0.41438 0.15148 0.0
C1179 C 0.08392 0.38467 0.17212 0.0
C1180 C 0.1258 0.43479 0.13446 0.0
C1181 C 0.10443 0.44646 0.11926 0.0
C1182 C 0.09169 0.4056 0.15342 0.0
C1183 C 0.07696 0.43688 0.12151 0.0
C1184 C 0.05563 0.37775 0.17577 0.0
C1185 C 0.098 0.35403 0.205 0.0
N1186 N 0.07138 0.41712 0.13832 0.0
N1187 N 0.10418 0.37245 0.1867 0.0
H1188 H 0.61851 0.13569 0.13648 0.0
H1189 H 0.69118 0.02156 0.05573 0.0
H1190 H 0.70668 0.11677 0.14524 0.0
H1191 H 0.602 0.02532 0.0724 0.0
H1192 H 0.69805 0.05944 0.08374 0.0
H1193 H 0.613 0.09896 0.10678 0.0
C1194 C 0.63678 0.12398 0.13195 0.0
C1195 C 0.66307 0.1292 0.1435 0.0
C1196 C 0.67703 0.05186 0.08129 0.0
C1197 C 0.65681 0.08706 0.10972 0.0
C1198 C 0.67307 0.03027 0.06533 0.0
C1199 C 0.64597 0.02028 0.06169 0.0
C1200 C 0.65364 0.0638 0.09321 0.0
C1201 C 0.62327 0.03236 0.07462 0.0
C1202 C 0.63356 0.10291 0.11517 0.0
C1203 C 0.686 0.11333 0.1369 0.0
N1204 N 0.62759 0.05362 0.08961 0.0
N1205 N 0.68234 0.09292 0.12045 0.0
H1206 H 0.0248 0.66365 0.20255 0.0
H1207 H 0.04705 0.52841 0.13152 0.0
H1208 H 0.04369 0.59394 0.2454 0.0
H1209 H 0.04377 0.60093 0.09074 0.0
H1210 H 0.03256 0.54991 0.17309 0.0
H1211 H 0.01895 0.63884 0.16171 0.0
C1212 C 0.02747 0.64307 0.20344 0.0
C1213 C 0.03532 0.63093 0.22735 0.0
C1214 C 0.03426 0.56099 0.15487 0.0
C1215 C 0.02873 0.60234 0.18047 0.0
C1216 C 0.04214 0.54868 0.13115 0.0
C1217 C 0.04639 0.56302 0.10786 0.0
C1218 C 0.0308 0.58775 0.15508 0.0
C1219 C 0.04058 0.5893 0.10839 0.0
C1220 C 0.02407 0.62889 0.18008 0.0
C1221 C 0.038 0.60414 0.22734 0.0
N1222 N 0.03338 0.60087 0.1317 0.0
N1223 N 0.03512 0.59076 0.20415 0.0
H1224 H 0.42084 0.87945 0.86036 0.0
H1225 H 0.44881 0.97838 0.97877 0.0
H1226 H 0.35492 0.92696 0.89358 0.0
H1227 H 0.51107 0.96 0.91913 0.0
H1228 H 0.41458 0.95166 0.95485 0.0
H1229 H 0.45486 0.90041 0.88978 0.0
C1230 C 0.41343 0.89396 0.87418 0.0
C1231 C 0.38507 0.90164 0.87443 0.0
C1232 C 0.43585 0.95324 0.94722 0.0
C1233 C 0.42378 0.92551 0.90804 0.0
C1234 C 0.45527 0.96837 0.9608 0.0
C1235 C 0.48281 0.97063 0.95112 0.0
C1236 C 0.44419 0.94036 0.92389 0.0
C1237 C 0.49028 0.95777 0.92765 0.0
C1238 C 0.43288 0.90599 0.89079 0.0
C1239 C 0.37665 0.92063 0.89263 0.0
N1240 N 0.47107 0.94304 0.9148 0.0
N1241 N 0.39597 0.93198 0.90873 0.0
H1242 H 0.09511 0.33809 0.80863 0.0
H1243 H 0.9987 0.38819 0.9289 0.0
H1244 H 0.01573 0.304 0.83041 0.0
H1245 H 0.06793 0.43077 0.89543 0.0
H1246 H 0.01023 0.35249 0.89924 0.0
H1247 H 0.09084 0.36714 0.84663 0.0
C1248 C 0.07694 0.33646 0.82159 0.0
C1249 C 0.05553 0.3188 0.81607 0.0
C1250 C 0.02305 0.36955 0.89858 0.0
C1251 C 0.05051 0.35213 0.8596 0.0
C1252 C 0.01654 0.38994 0.91554 0.0
C1253 C 0.03209 0.4127 0.9143 0.0
C1254 C 0.04537 0.37187 0.88035 0.0
C1255 C 0.05512 0.41375 0.89678 0.0
C1256 C 0.0745 0.35312 0.84325 0.0
C1257 C 0.0326 0.31748 0.83373 0.0
N1258 N 0.06092 0.3937 0.88033 0.0
N1259 N 0.03056 0.33411 0.85456 0.0
H1260 H 0.59786 0.13652 0.83219 0.0
H1261 H 0.66239 0.04406 0.94398 0.0
H1262 H 0.68437 0.14056 0.85844 0.0
H1263 H 0.5905 0.02383 0.89598 0.0
H1264 H 0.6671 0.08377 0.91825 0.0
H1265 H 0.59095 0.09952 0.86148 0.0
C1266 C 0.61535 0.12975 0.84423 0.0
C1267 C 0.64183 0.14151 0.8427 0.0
C1268 C 0.65029 0.07065 0.91337 0.0
C1269 C 0.63402 0.09927 0.87612 0.0
C1270 C 0.64756 0.04813 0.92808 0.0
C1271 C 0.62602 0.03087 0.92204 0.0
C1272 C 0.63117 0.07596 0.89265 0.0
C1273 C 0.60752 0.03666 0.90103 0.0
C1274 C 0.6114 0.10858 0.86081 0.0
C1275 C 0.66368 0.13197 0.85883 0.0
N1276 N 0.6104 0.05885 0.88714 0.0
N1277 N 0.6593 0.11138 0.87484 0.0
H1278 H 0.95468 0.6945 0.85831 0.0
H1279 H 0.05046 0.59081 0.93278 0.0
H1280 H 0.04073 0.67761 0.83634 0.0
H1281 H 0.96182 0.60209 0.94755 0.0
H1282 H 0.05025 0.62853 0.90399 0.0
H1283 H 0.96003 0.66708 0.8975 0.0
C1284 C 0.97484 0.68533 0.86191 0.0
C1285 C 0.99713 0.68802 0.84372 0.0
C1286 C 0.03092 0.62289 0.91378 0.0
C1287 C 0.00333 0.65637 0.88849 0.0
C1288 C 0.03107 0.60127 0.93025 0.0
C1289 C 0.00605 0.59271 0.94202 0.0
C1290 C 0.00553 0.63613 0.90921 0.0
C1291 C 0.98156 0.60755 0.93839 0.0
C1292 C 0.97787 0.66961 0.88429 0.0
C1293 C 0.02285 0.67585 0.84962 0.0
N1294 N 0.98185 0.6283 0.92209 0.0
N1295 N 0.02513 0.66028 0.8713 0.0
H1296 H 0.16121 0.31038 0.98326 0.0
H1297 H 0.10099 0.44408 0.03583 0.0
H1298 H 0.20241 0.35589 0.04363 0.0
H1299 H 0.08543 0.41383 0.95691 0.0
H1300 H 0.12731 0.40504 0.0469 0.0
H1301 H 0.12268 0.34153 0.98207 0.0
C1302 C 0.16194 0.32666 0.99664 0.0
C1303 C 0.18535 0.33082 0.01321 0.0
C1304 C 0.1177 0.40684 0.02734 0.0
C1305 C 0.14126 0.36637 0.01196 0.0
C1306 C 0.1026 0.42901 0.02102 0.0
C1307 C 0.09153 0.43234 0.99522 0.0
C1308 C 0.1213 0.38779 0.00784 0.0
C1309 C 0.0941 0.41218 0.97686 0.0
C1310 C 0.13996 0.34444 0.99587 0.0
C1311 C 0.18498 0.35216 0.03025 0.0
N1312 N 0.10894 0.39083 0.98346 0.0
N1313 N 0.1634 0.36932 0.02899 0.0
H1314 H 0.15265 0.74302 0.02032 0.0
H1315 H 0.10795 0.59963 0.05492 0.0
H1316 H 0.18561 0.70094 0.08782 0.0
H1317 H 0.09349 0.63637 0.97896 0.0
H1318 H 0.12796 0.63939 0.07201 0.0
H1319 H 0.12151 0.70725 0.01036 0.0
C1320 C 0.153 0.72647 0.03335 0.0
C1321 C 0.17213 0.72481 0.05466 0.0
C1322 C 0.12026 0.63872 0.05164 0.0
C1323 C 0.13672 0.6837 0.04319 0.0
C1324 C 0.10911 0.61589 0.04179 0.0
C1325 C 0.09993 0.61423 0.01521 0.0
C1326 C 0.1219 0.66016 0.03481 0.0
C1327 C 0.10076 0.63649 0.99948 0.0
C1328 C 0.1353 0.70599 0.02756 0.0
C1329 C 0.17146 0.70292 0.07097 0.0
N1330 N 0.11178 0.65842 0.00943 0.0
N1331 N 0.1543 0.68307 0.0647 0.0
H1332 H 0.34312 0.19149 0.9906 0.0
H1333 H 0.46287 0.09302 0.94776 0.0
H1334 H 0.36279 0.17493 0.90809 0.0
H1335 H 0.45945 0.12788 0.02595 0.0
H1336 H 0.42542 0.12166 0.93286 0.0
H1337 H 0.38386 0.16595 0.00435 0.0
C1338 C 0.35588 0.18232 0.97538 0.0
C1339 C 0.3495 0.18525 0.94816 0.0
C1340 C 0.43308 0.12324 0.95319 0.0
C1341 C 0.39621 0.15619 0.96375 0.0
C1342 C 0.45467 0.10702 0.96166 0.0
C1343 C 0.46452 0.1081 0.98809 0.0
C1344 C 0.4208 0.14034 0.97144 0.0
C1345 C 0.45256 0.12633 0.00538 0.0
C1346 C 0.37926 0.16794 0.98324 0.0
C1347 C 0.36691 0.17312 0.92929 0.0
N1348 N 0.43109 0.14155 0.99683 0.0
N1349 N 0.38944 0.15903 0.93746 0.0
H1350 H 0.90583 0.28831 0.99468 0.0
H1351 H 0.95967 0.42851 0.98074 0.0
H1352 H 0.89501 0.33264 0.92253 0.0
H1353 H 0.99936 0.37596 0.03575 0.0
H1354 H 0.93718 0.39277 0.95851 0.0
H1355 H 0.94213 0.3183 0.00931 0.0
C1356 C 0.91149 0.30401 0.98164 0.0
C1357 C 0.89692 0.30829 0.95759 0.0
C1358 C 0.95115 0.38892 0.97517 0.0
C1359 C 0.93803 0.34275 0.9744 0.0
C1360 C 0.96406 0.4094 0.98789 0.0
C1361 C 0.98161 0.40529 0.01002 0.0
C1362 C 0.95505 0.36407 0.98512 0.0
C1363 C 0.98598 0.38002 0.01873 0.0
C1364 C 0.93221 0.32111 0.99002 0.0
C1365 C 0.90533 0.3288 0.94141 0.0
N1366 N 0.97241 0.36034 0.0065 0.0
N1367 N 0.92492 0.34556 0.95036 0.0
H1368 H 0.77184 0.81776 0.92692 0.0
H1369 H 0.68508 0.91231 0.02178 0.0
H1370 H 0.78214 0.82089 0.01262 0.0
H1371 H 0.67548 0.90951 0.93595 0.0
H1372 H 0.72455 0.88237 0.01833 0.0
H1373 H 0.74103 0.85524 0.92926 0.0
C1374 C 0.76799 0.82657 0.94619 0.0
C1375 C 0.77931 0.81599 0.96965 0.0
C1376 C 0.71394 0.88846 0.00023 0.0
C1377 C 0.74374 0.85869 0.97252 0.0
C1378 C 0.69134 0.90553 0.00219 0.0
C1379 C 0.67669 0.91323 0.97915 0.0
C1380 C 0.72192 0.87893 0.97507 0.0
C1381 C 0.68595 0.90395 0.95429 0.0
C1382 C 0.7503 0.84793 0.94753 0.0
C1383 C 0.7737 0.82829 0.99404 0.0
N1384 N 0.70782 0.88714 0.95294 0.0
N1385 N 0.75602 0.84879 0.99488 0.0
H1386 H 0.9024 0.6951 0.02748 0.0
H1387 H 0.93344 0.54752 0.00052 0.0
H1388 H 0.85406 0.64872 0.97293 0.0
H1389 H 0.98864 0.59566 0.0464 0.0
H1390 H 0.90611 0.58518 0.98743 0.0
H1391 H 0.93648 0.6601 0.03186 0.0
C1392 C 0.89913 0.6777 0.01616 0.0
C1393 C 0.87513 0.6747 0.00011 0.0
C1394 C 0.92442 0.58763 6e-05 0.0
C1395 C 0.91385 0.63451 0.00524 0.0
C1396 C 0.94016 0.56611 0.00727 0.0
C1397 C 0.96356 0.56855 0.02404 0.0
C1398 C 0.93187 0.61175 0.01018 0.0
C1399 C 0.97069 0.593 0.03334 0.0
C1400 C 0.91857 0.6577 0.0187 0.0
C1401 C 0.87208 0.65179 0.98578 0.0
N1402 N 0.95482 0.61366 0.02639 0.0
N1403 N 0.89102 0.63248 0.98892 0.0
H1404 H 0.34259 0.85534 0.09917 0.0
H1405 H 0.44525 0.90661 0.9842 0.0
H1406 H 0.32598 0.84465 0.01507 0.0
H1407 H 0.46141 0.91332 0.06888 0.0
H1408 H 0.39917 0.88802 0.99444 0.0
H1409 H 0.38377 0.88072 0.08781 0.0
C1410 C 0.34749 0.85847 0.07828 0.0
C1411 C 0.33091 0.84766 0.05805 0.0
C1412 C 0.41277 0.89375 0.01074 0.0
C1413 C 0.37834 0.87667 0.04482 0.0
C1414 C 0.43905 0.90442 0.00491 0.0
C1415 C 0.45742 0.9113 0.02571 0.0
C1416 C 0.40482 0.88999 0.03753 0.0
C1417 C 0.44818 0.90806 0.05215 0.0
C1418 C 0.37107 0.87298 0.07178 0.0
C1419 C 0.33825 0.85253 0.03132 0.0
N1420 N 0.42269 0.89753 0.05726 0.0
N1421 N 0.36156 0.86651 0.02546 0.0
H1422 H 0.78296 0.18735 0.96948 0.0
H1423 H 0.68008 0.10147 0.05498 0.0
H1424 H 0.77863 0.18921 0.05567 0.0
H1425 H 0.69602 0.08678 0.97144 0.0
H1426 H 0.7193 0.13099 0.05582 0.0
H1427 H 0.75436 0.1485 0.96962 0.0
C1428 C 0.77629 0.17943 0.98845 0.0
C1429 C 0.78288 0.19175 0.0126 0.0
C1430 C 0.71463 0.12107 0.03735 0.0
C1431 C 0.7501 0.14741 0.01286 0.0
C1432 C 0.69221 0.10408 0.03688 0.0
C1433 C 0.68471 0.09163 0.01309 0.0
C1434 C 0.72937 0.12626 0.01368 0.0
C1435 C 0.70114 0.09595 0.99022 0.0
C1436 C 0.76002 0.15722 0.9885 0.0
C1437 C 0.77383 0.18054 0.03655 0.0
N1438 N 0.72244 0.1133 0.99094 0.0
N1439 N 0.75765 0.15921 0.03604 0.0
H1440 H 0.55326 0.67237 0.80258 0.0
H1441 H 0.42262 0.62805 0.8919 0.0
H1442 H 0.46721 0.6954 0.78778 0.0
H1443 H 0.50871 0.60635 0.9083 0.0
H1444 H 0.43804 0.64878 0.85075 0.0
H1445 H 0.53687 0.64411 0.8382 0.0
C1446 C 0.53089 0.67129 0.80661 0.0
C1447 C 0.51161 0.68647 0.79231 0.0
C1448 C 0.45358 0.63939 0.86325 0.0
C1449 C 0.49272 0.65427 0.83323 0.0
C1450 C 0.44479 0.62758 0.88681 0.0
C1451 C 0.46448 0.61574 0.90375 0.0
C1452 C 0.48233 0.63954 0.85662 0.0
C1453 C 0.49286 0.61537 0.89589 0.0
C1454 C 0.52155 0.65517 0.82701 0.0
C1455 C 0.48286 0.68419 0.79838 0.0
N1456 N 0.50098 0.62732 0.87302 0.0
N1457 N 0.47433 0.66858 0.81851 0.0
H1458 H 0.3973 0.54635 0.77687 0.0
H1459 H 0.41854 0.55651 0.93257 0.0
H1460 H 0.36397 0.60853 0.82434 0.0
H1461 H 0.47272 0.50946 0.88346 0.0
H1462 H 0.40044 0.57719 0.8925 0.0
H1463 H 0.42778 0.53422 0.8143 0.0
C1464 C 0.39674 0.55774 0.79495 0.0
C1465 C 0.3776 0.57817 0.79763 0.0
C1466 C 0.41655 0.56258 0.89041 0.0
C1467 C 0.41214 0.5642 0.84059 0.0
C1468 C 0.42692 0.55074 0.91334 0.0
C1469 C 0.44713 0.53118 0.91139 0.0
C1470 C 0.42599 0.5545 0.86518 0.0
C1471 C 0.457 0.52437 0.88588 0.0
C1472 C 0.41415 0.5508 0.81632 0.0
C1473 C 0.37801 0.59238 0.82147 0.0
N1474 N 0.44606 0.53579 0.8637 0.0
N1475 N 0.39461 0.58485 0.84215 0.0
H1476 H 0.40472 0.28412 0.89082 0.0
H1477 H 0.51181 0.40147 0.90268 0.0
H1478 H 0.46704 0.30222 0.83102 0.0
H1479 H 0.46706 0.37021 0.97022 0.0
H1480 H 0.48918 0.37001 0.87375 0.0
H1481 H 0.42102 0.32042 0.91757 0.0
C1482 C 0.42166 0.29584 0.88319 0.0
C1483 C 0.43469 0.28997 0.85871 0.0
C1484 C 0.48417 0.37015 0.89487 0.0
C1485 C 0.45342 0.33151 0.88925 0.0
C1486 C 0.49703 0.38816 0.91142 0.0
C1487 C 0.49152 0.38839 0.939 0.0
C1488 C 0.46548 0.35229 0.90589 0.0
C1489 C 0.4721 0.37066 0.94912 0.0
C1490 C 0.431 0.31649 0.89853 0.0
C1491 C 0.4565 0.30589 0.84983 0.0
N1492 N 0.45984 0.35329 0.93258 0.0
N1493 N 0.46522 0.32585 0.86512 0.0
H1494 H 0.63104 0.4755 0.80938 0.0
H1495 H 0.54734 0.57801 0.89285 0.0
H1496 H 0.63328 0.55676 0.79414 0.0
H1497 H 0.54061 0.49662 0.90558 0.0
H1498 H 0.56875 0.56984 0.84944 0.0
H1499 H 0.58899 0.48184 0.83668 0.0
C1500 C 0.62235 0.49462 0.81127 0.0
C1501 C 0.63621 0.51574 0.80008 0.0
C1502 C 0.56212 0.55371 0.86143 0.0
C1503 C 0.58823 0.52316 0.83162 0.0
C1504 C 0.54979 0.55839 0.88626 0.0
C1505 C 0.54289 0.53796 0.90319 0.0
C1506 C 0.5681 0.52842 0.85369 0.0
C1507 C 0.54614 0.51295 0.8934 0.0
C1508 C 0.5983 0.49823 0.82691 0.0
C1509 C 0.62367 0.53998 0.80284 0.0
N1510 N 0.55918 0.50887 0.86956 0.0
N1511 N 0.60076 0.54309 0.81881 0.0
H1512 H 0.49647 0.3436 0.19541 0.0
H1513 H 0.46348 0.42829 0.06541 0.0
H1514 H 0.42084 0.3346 0.14854 0.0
H1515 H 0.54062 0.43082 0.11088 0.0
H1516 H 0.44402 0.39841 0.09857 0.0
H1517 H 0.50956 0.37986 0.16761 0.0
C1518 C 0.4825 0.34934 0.17935 0.0
C1519 C 0.45764 0.33585 0.17417 0.0
C1520 C 0.46508 0.40579 0.10139 0.0
C1521 C 0.47264 0.37747 0.14195 0.0
C1522 C 0.4761 0.42292 0.08255 0.0
C1523 C 0.50382 0.43177 0.08521 0.0
C1524 C 0.48188 0.39772 0.12303 0.0
C1525 C 0.51929 0.42419 0.1078 0.0
C1526 C 0.48999 0.37011 0.16343 0.0
C1527 C 0.44028 0.34437 0.15316 0.0
N1528 N 0.50821 0.40755 0.12565 0.0
N1529 N 0.44822 0.3645 0.13765 0.0
H1530 H 0.675 0.48605 0.2088 0.0
H1531 H 0.6181 0.46718 0.06026 0.0
H1532 H 0.71427 0.43589 0.15105 0.0
H1533 H 0.58183 0.51913 0.11772 0.0
H1534 H 0.64752 0.44871 0.0957 0.0
H1535 H 0.63526 0.4918 0.1784 0.0
C1536 C 0.67513 0.47599 0.18987 0.0
C1537 C 0.69825 0.46083 0.18229 0.0
C1538 C 0.63267 0.46376 0.10069 0.0
C1539 C 0.65286 0.46751 0.1472 0.0
C1540 C 0.61562 0.47403 0.08049 0.0
C1541 C 0.59753 0.49459 0.0861 0.0
C1542 C 0.63161 0.47431 0.12656 0.0
C1543 C 0.59573 0.50339 0.11254 0.0
C1544 C 0.6524 0.47928 0.17248 0.0
C1545 C 0.69706 0.44803 0.15761 0.0
N1546 N 0.61276 0.49341 0.1317 0.0
N1547 N 0.67495 0.45194 0.14078 0.0
H1548 H 0.62665 0.65956 0.1808 0.0
H1549 H 0.48828 0.59442 0.12082 0.0
H1550 H 0.54295 0.66804 0.21337 0.0
H1551 H 0.5695 0.58738 0.08276 0.0
H1552 H 0.50988 0.61759 0.15732 0.0
H1553 H 0.60798 0.62996 0.14712 0.0
C1554 C 0.60442 0.65504 0.18104 0.0
C1555 C 0.5863 0.66643 0.19989 0.0
C1556 C 0.52314 0.61099 0.14108 0.0
C1557 C 0.56489 0.63262 0.16146 0.0
C1558 C 0.51079 0.59768 0.12011 0.0
C1559 C 0.52701 0.5893 0.09829 0.0
C1560 C 0.55207 0.61625 0.14042 0.0
C1561 C 0.55614 0.59379 0.09891 0.0
C1562 C 0.5938 0.63818 0.16178 0.0
C1563 C 0.5577 0.65988 0.1992 0.0
N1564 N 0.56774 0.60722 0.11953 0.0
N1565 N 0.54794 0.64354 0.1803 0.0
H1566 H 0.37332 0.62532 0.17092 0.0
H1567 H 0.38846 0.51962 0.05583 0.0
H1568 H 0.3127 0.61564 0.10745 0.0
H1569 H 0.45844 0.54517 0.10345 0.0
H1570 H 0.35764 0.54993 0.07952 0.0
H1571 H 0.40249 0.59162 0.15081 0.0
C1572 C 0.36613 0.61607 0.1528 0.0
C1573 C 0.34065 0.62337 0.14074 0.0
C1574 C 0.37968 0.54875 0.08497 0.0
C1575 C 0.37363 0.58463 0.11793 0.0
C1576 C 0.39712 0.53134 0.07165 0.0
C1577 C 0.42584 0.53011 0.07783 0.0
C1578 C 0.3911 0.56474 0.10475 0.0
C1579 C 0.43636 0.54585 0.09811 0.0
C1580 C 0.38277 0.59687 0.14135 0.0
C1581 C 0.33231 0.61073 0.1173 0.0
N1582 N 0.41898 0.56259 0.11089 0.0
N1583 N 0.34871 0.59192 0.10672 0.0
H1584 H 0.81407 0.57953 0.72896 0.0
H1585 H 0.92634 0.49098 0.65289 0.0
H1586 H 0.81512 0.49698 0.73152 0.0
H1587 H 0.91649 0.57166 0.63651 0.0
H1588 H 0.89134 0.49465 0.68826 0.0
H1589 H 0.8561 0.5784 0.70048 0.0
C1590 C 0.82314 0.56118 0.72358 0.0
C1591 C 0.81091 0.53829 0.73245 0.0
C1592 C 0.89702 0.51163 0.67714 0.0
C1593 C 0.85913 0.53691 0.70022 0.0
C1594 C 0.91718 0.5096 0.657 0.0
C1595 C 0.92409 0.53096 0.64135 0.0
C1596 C 0.88353 0.53518 0.68173 0.0
C1597 C 0.91167 0.55463 0.6479 0.0
C1598 C 0.84715 0.56057 0.70738 0.0
C1599 C 0.82365 0.51509 0.72497 0.0
N1600 N 0.89169 0.55604 0.66738 0.0
N1601 N 0.847 0.51501 0.7093 0.0
H1602 H 0.5146 0.81539 0.64203 0.0
H1603 H 0.62259 0.92841 0.61427 0.0
H1604 H 0.59224 0.82543 0.68563 0.0
H1605 H 0.5517 0.91233 0.56301 0.0
H1606 H 0.61359 0.88876 0.63853 0.0
H1607 H 0.52951 0.84853 0.61059 0.0
C1608 C 0.53494 0.82429 0.64479 0.0
C1609 C 0.55203 0.81783 0.66671 0.0
C1610 C 0.60015 0.89375 0.6218 0.0
C1611 C 0.56909 0.85595 0.63098 0.0
C1612 C 0.60527 0.91643 0.60797 0.0
C1613 C 0.5877 0.92385 0.58676 0.0
C1614 C 0.57709 0.87846 0.6146 0.0
C1615 C 0.5657 0.90745 0.57934 0.0
C1616 C 0.54344 0.84324 0.62685 0.0
C1617 C 0.57823 0.82994 0.6692 0.0
N1618 N 0.56081 0.88568 0.59345 0.0
N1619 N 0.58579 0.8486 0.65177 0.0
H1620 H 0.26592 0.50833 0.65806 0.0
H1621 H 0.14642 0.57429 0.56936 0.0
H1622 H 0.24915 0.58959 0.65716 0.0
H1623 H 0.16058 0.49266 0.57336 0.0
H1624 H 0.18948 0.58089 0.59505 0.0
H1625 H 0.23331 0.50304 0.62074 0.0
C1626 C 0.25574 0.52513 0.64974 0.0
C1627 C 0.25995 0.5494 0.66103 0.0
C1628 C 0.18333 0.56154 0.59006 0.0
C1629 C 0.22234 0.54343 0.61847 0.0
C1630 C 0.15871 0.55774 0.57539 0.0
C1631 C 0.14952 0.53284 0.56965 0.0
C1632 C 0.19885 0.54031 0.59918 0.0
C1633 C 0.1666 0.51219 0.57763 0.0
C1634 C 0.23705 0.52208 0.62846 0.0
C1635 C 0.24632 0.57048 0.64928 0.0
N1636 N 0.19023 0.51638 0.59229 0.0
N1637 N 0.22784 0.56697 0.62888 0.0
H1638 H 0.45214 0.17518 0.68304 0.0
H1639 H 0.48017 0.03712 0.62062 0.0
H1640 H 0.42716 0.10467 0.72094 0.0
H1641 H 0.50413 0.1076 0.5826 0.0
H1642 H 0.45289 0.06157 0.6535 0.0
H1643 H 0.46385 0.15116 0.64257 0.0
C1644 C 0.44874 0.15471 0.68275 0.0
C1645 C 0.43907 0.1419 0.70561 0.0
C1646 C 0.46354 0.0717 0.6376 0.0
C1647 C 0.4527 0.11419 0.65936 0.0
C1648 C 0.47868 0.05765 0.61855 0.0
C1649 C 0.49392 0.07033 0.59865 0.0
C1650 C 0.46407 0.09862 0.63688 0.0
C1651 C 0.49259 0.09713 0.59769 0.0
C1652 C 0.45547 0.14097 0.65962 0.0
C1653 C 0.43489 0.11534 0.70394 0.0
N1654 N 0.47819 0.11039 0.61668 0.0
N1655 N 0.44207 0.10234 0.68138 0.0
H1656 H 0.79943 0.50733 0.32896 0.0
H1657 H 0.89565 0.46685 0.4527 0.0
H1658 H 0.81009 0.42975 0.35692 0.0
H1659 H 0.89081 0.54395 0.42194 0.0
H1660 H 0.85728 0.45467 0.42316 0.0
H1661 H 0.82558 0.52251 0.36795 0.0
C1662 C 0.80682 0.49351 0.34353 0.0
C1663 C 0.80292 0.46718 0.33947 0.0
C1664 C 0.86434 0.47434 0.42305 0.0
C1665 C 0.83302 0.48443 0.384 0.0
C1666 C 0.88626 0.48136 0.44001 0.0
C1667 C 0.89678 0.50642 0.4396 0.0
C1668 C 0.85292 0.49241 0.40529 0.0
C1669 C 0.88359 0.52435 0.42277 0.0
C1670 C 0.82184 0.5022 0.36575 0.0
C1671 C 0.81288 0.45019 0.35906 0.0
N1672 N 0.86259 0.51691 0.40601 0.0
N1673 N 0.82774 0.45908 0.38029 0.0
H1674 H 0.58415 0.82322 0.37333 0.0
H1675 H 0.44966 0.91004 0.40886 0.0
H1676 H 0.504 0.81833 0.33295 0.0
H1677 H 0.53079 0.91933 0.44653 0.0
H1678 H 0.46814 0.87327 0.38436 0.0
H1679 H 0.56387 0.85504 0.40384 0.0
C1680 C 0.56221 0.82857 0.37107 0.0
C1681 C 0.54582 0.81821 0.35038 0.0
C1682 C 0.48191 0.88324 0.39807 0.0
C1683 C 0.52254 0.85474 0.38513 0.0
C1684 C 0.47135 0.9043 0.41208 0.0
C1685 C 0.48875 0.91799 0.42961 0.0
C1686 C 0.51015 0.87575 0.40148 0.0
C1687 C 0.51663 0.90944 0.43312 0.0
C1688 C 0.55067 0.84683 0.38844 0.0
C1689 C 0.51752 0.82591 0.34844 0.0
N1690 N 0.52652 0.88898 0.41904 0.0
N1691 N 0.50687 0.84379 0.36544 0.0
H1692 H 0.12335 0.67828 0.27575 0.0
H1693 H 0.15272 0.55734 0.37012 0.0
H1694 H 0.20632 0.65204 0.29863 0.0
H1695 H 0.07046 0.59174 0.36018 0.0
H1696 H 0.17167 0.5876 0.33777 0.0
H1697 H 0.10289 0.64283 0.30104 0.0
C1698 C 0.13727 0.66514 0.28614 0.0
C1699 C 0.16662 0.66828 0.28525 0.0
C1700 C 0.14941 0.58836 0.34245 0.0
C1701 C 0.1433 0.62774 0.31421 0.0
C1702 C 0.1385 0.57096 0.36083 0.0
C1703 C 0.10998 0.57216 0.36818 0.0
C1704 C 0.13169 0.60706 0.3312 0.0
C1705 C 0.09263 0.59024 0.35535 0.0
C1706 C 0.12556 0.64491 0.30055 0.0
C1707 C 0.18359 0.65052 0.29892 0.0
N1708 N 0.10381 0.60708 0.33762 0.0
N1709 N 0.17169 0.63109 0.31288 0.0
H1710 H 0.44314 0.20418 0.34515 0.0
H1711 H 0.52169 0.10636 0.44354 0.0
H1712 H 0.53086 0.1834 0.3369 0.0
H1713 H 0.43157 0.11459 0.43671 0.0
H1714 H 0.52741 0.1415 0.41154 0.0
H1715 H 0.44087 0.17875 0.38601 0.0
C1716 C 0.46204 0.19458 0.3521 0.0
C1717 C 0.48711 0.19563 0.3373 0.0
C1718 C 0.50643 0.13559 0.41721 0.0
C1719 C 0.48459 0.1663 0.38407 0.0
C1720 C 0.50318 0.11536 0.43531 0.0
C1721 C 0.4762 0.10661 0.44197 0.0
C1722 C 0.48246 0.1474 0.40612 0.0
C1723 C 0.45287 0.12013 0.43175 0.0
C1724 C 0.46071 0.17998 0.37542 0.0
C1725 C 0.51098 0.1829 0.34748 0.0
N1726 N 0.45655 0.13959 0.41418 0.0
N1727 N 0.50906 0.16852 0.37008 0.0
H1728 H 0.68744 0.83437 0.45493 0.0
H1729 H 0.6307 0.96645 0.51587 0.0
H1730 H 0.73435 0.87955 0.51167 0.0
H1731 H 0.59714 0.93099 0.44478 0.0
H1732 H 0.66327 0.9303 0.52103 0.0
H1733 H 0.6487 0.86513 0.45782 0.0
C1734 C 0.68949 0.85059 0.46825 0.0
C1735 C 0.71437 0.85457 0.48279 0.0
C1736 C 0.64863 0.93039 0.50442 0.0
C1737 C 0.67005 0.8899 0.48613 0.0
C1738 C 0.63 0.95098 0.50147 0.0
C1739 C 0.6115 0.95194 0.47958 0.0
C1740 C 0.64856 0.91056 0.48549 0.0
C1741 C 0.61134 0.93124 0.46171 0.0
C1742 C 0.66737 0.86819 0.46982 0.0
C1743 C 0.71569 0.87587 0.49988 0.0
N1744 N 0.62971 0.91148 0.46498 0.0
N1745 N 0.69392 0.89286 0.50091 0.0
H1746 H 0.70963 0.17595 0.5419 0.0
H1747 H 0.54991 0.13902 0.51168 0.0
H1748 H 0.65304 0.22229 0.49444 0.0
H1749 H 0.61576 0.08418 0.5277 0.0
H1750 H 0.58341 0.17376 0.51986 0.0
H1751 H 0.67089 0.14672 0.55142 0.0
C1752 C 0.68895 0.18027 0.53386 0.0
C1753 C 0.68468 0.20134 0.51688 0.0
C1754 C 0.59023 0.15411 0.52251 0.0
C1755 C 0.64038 0.168 0.52784 0.0
C1756 C 0.57114 0.13436 0.51806 0.0
C1757 C 0.57997 0.10878 0.51997 0.0
C1758 C 0.61836 0.14814 0.52863 0.0
C1759 C 0.60783 0.10362 0.52744 0.0
C1760 C 0.66691 0.16353 0.53929 0.0
C1761 C 0.65737 0.20606 0.50727 0.0
N1762 N 0.62616 0.12315 0.53126 0.0
N1763 N 0.63629 0.18934 0.51264 0.0
H1764 H 0.89835 0.69183 0.40017 0.0
H1765 H 0.92056 0.62513 0.54046 0.0
H1766 H 0.85059 0.7144 0.46979 0.0
H1767 H 0.92979 0.58311 0.46677 0.0
H1768 H 0.89965 0.6606 0.51542 0.0
H1769 H 0.91572 0.65431 0.42471 0.0
C1770 C 0.89148 0.68886 0.42058 0.0
C1771 C 0.87301 0.70621 0.433 0.0
C1772 C 0.90634 0.64358 0.50476 0.0
C1773 C 0.89299 0.66368 0.46111 0.0
C1774 C 0.91828 0.62331 0.51899 0.0
C1775 C 0.92774 0.60128 0.50556 0.0
C1776 C 0.90412 0.64195 0.47686 0.0
C1777 C 0.92399 0.60002 0.47778 0.0
C1778 C 0.90128 0.66743 0.43448 0.0
C1779 C 0.86472 0.70144 0.45945 0.0
N1780 N 0.91278 0.62021 0.46426 0.0
N1781 N 0.875 0.68073 0.47274 0.0
H1782 H 0.31357 0.82601 0.47442 0.0
H1783 H 0.45738 0.88149 0.53314 0.0
H1784 H 0.35672 0.79465 0.54308 0.0
H1785 H 0.4042 0.92235 0.47742 0.0
H1786 H 0.42654 0.84445 0.52932 0.0
H1787 H 0.35218 0.85613 0.46819 0.0
C1788 C 0.33133 0.82519 0.48799 0.0
C1789 C 0.33168 0.80797 0.50956 0.0
C1790 C 0.42182 0.8614 0.51767 0.0
C1791 C 0.37598 0.84248 0.50247 0.0
C1792 C 0.4395 0.88256 0.51972 0.0
C1793 C 0.43308 0.90529 0.50595 0.0
C1794 C 0.3976 0.86289 0.50165 0.0
C1795 C 0.40973 0.90539 0.48872 0.0
C1796 C 0.35334 0.84246 0.48442 0.0
C1797 C 0.35538 0.80775 0.52636 0.0
N1798 N 0.39265 0.88462 0.48729 0.0
N1799 N 0.37645 0.8249 0.52259 0.0
H1800 H 0.2022 0.34886 0.55379 0.0
H1801 H 0.15683 0.44271 0.43453 0.0
H1802 H 0.21343 0.33087 0.47021 0.0
H1803 H 0.14588 0.46102 0.51807 0.0
H1804 H 0.17921 0.40234 0.44729 0.0
H1805 H 0.18292 0.39059 0.54118 0.0
C1806 C 0.20071 0.35371 0.53278 0.0
C1807 C 0.20939 0.3363 0.51302 0.0
C1808 C 0.17198 0.41521 0.46285 0.0
C1809 C 0.1873 0.38408 0.49844 0.0
C1810 C 0.15923 0.4383 0.45557 0.0
C1811 C 0.1493 0.45523 0.47526 0.0
C1812 C 0.17484 0.40893 0.49003 0.0
C1813 C 0.15303 0.44848 0.50221 0.0
C1814 C 0.18968 0.37756 0.5256 0.0
C1815 C 0.20696 0.34365 0.48613 0.0
N1816 N 0.16541 0.42582 0.50879 0.0
N1817 N 0.19609 0.36695 0.47963 0.0
H1818 H 0.30999 0.16797 0.49332 0.0
H1819 H 0.43727 0.09704 0.56663 0.0
H1820 H 0.3502 0.19583 0.56499 0.0
H1821 H 0.39812 0.06862 0.4949 0.0
H1822 H 0.40964 0.13622 0.56277 0.0
H1823 H 0.34633 0.13488 0.48962 0.0
C1824 C 0.32669 0.1674 0.50806 0.0
C1825 C 0.32678 0.18447 0.52976 0.0
C1826 C 0.40725 0.12156 0.54764 0.0
C1827 C 0.36828 0.14647 0.52575 0.0
C1828 C 0.42298 0.09911 0.54987 0.0
C1829 C 0.4199 0.0794 0.53104 0.0
C1830 C 0.38795 0.12432 0.52657 0.0
C1831 C 0.40129 0.0833 0.50967 0.0
C1832 C 0.3474 0.14844 0.50596 0.0
C1833 C 0.34908 0.18292 0.54811 0.0
N1834 N 0.38576 0.1052 0.50815 0.0
N1835 N 0.36871 0.16404 0.54586 0.0
H1836 H 0.79552 0.35121 0.47844 0.0
H1837 H 0.91031 0.41753 0.57122 0.0
H1838 H 0.80619 0.33398 0.56227 0.0
H1839 H 0.88083 0.45248 0.4981 0.0
H1840 H 0.87565 0.38374 0.56559 0.0
H1841 H 0.82923 0.38631 0.48309 0.0
C1842 C 0.80472 0.35496 0.49786 0.0
C1843 C 0.79806 0.33964 0.52001 0.0
C1844 C 0.87677 0.39879 0.55075 0.0
C1845 C 0.83688 0.37931 0.52529 0.0
C1846 C 0.8967 0.41801 0.55384 0.0
C1847 C 0.89844 0.43791 0.53511 0.0
C1848 C 0.85858 0.39927 0.52864 0.0
C1849 C 0.88019 0.43751 0.51301 0.0
C1850 C 0.82396 0.37494 0.50047 0.0
C1851 C 0.81064 0.34532 0.54467 0.0
N1852 N 0.861 0.41845 0.51035 0.0
N1853 N 0.82962 0.36454 0.54658 0.0
H1854 H 0.16955 0.69004 0.58358 0.0
H1855 H 0.14197 0.58166 0.47378 0.0
H1856 H 0.21543 0.68323 0.50942 0.0
H1857 H 0.08156 0.60197 0.53445 0.0
H1858 H 0.17505 0.61223 0.49301 0.0
H1859 H 0.14299 0.65152 0.57187 0.0
C1860 C 0.17428 0.68029 0.565 0.0
C1861 C 0.19454 0.69002 0.5473 0.0
C1862 C 0.15475 0.60967 0.50247 0.0
C1863 C 0.16437 0.64595 0.53392 0.0
C1864 C 0.1359 0.59217 0.49157 0.0
C1865 C 0.10905 0.58909 0.50278 0.0
C1866 C 0.14663 0.62443 0.52463 0.0
C1867 C 0.10225 0.60322 0.52572 0.0
C1868 C 0.15907 0.65835 0.55833 0.0
C1869 C 0.19982 0.67657 0.52353 0.0
N1870 N 0.12081 0.62049 0.53578 0.0
N1871 N 0.18475 0.65531 0.5175 0.0
loop_
_geom_bond_atom_site_label_1
_geom_bond_atom_site_label_2
_geom_bond_distance
_geom_bond_site_symmetry_2
_ccdc_geom_bond_type
O0 Cd1 2.300 . S
O0 C7 1.275 . S
Cd1 O0 2.300 . S
Cd1 O9 2.381 . S
Cd1 O10 2.378 . S
O2 Cd3 2.385 1_455 S
O2 C7 1.255 . S
Cd3 O2 2.385 1_655 S
Cd3 O4 2.317 1_655 S
O4 Cd3 2.317 1_455 S
O4 C5 1.232 . S
C5 O4 1.232 . S
C5 O6 1.218 . S
O6 C5 1.218 . S
C7 O0 1.275 . S
C7 O2 1.255 . S
C8 O9 1.258 . S
C8 O10 1.256 . S
O9 Cd1 2.381 . S
O9 C8 1.258 . S
O10 Cd1 2.378 . S
O10 C8 1.256 . S
O11 Cd12 2.300 . S
O11 C18 1.275 . S
Cd12 O11 2.300 . S
Cd12 O20 2.381 . S
Cd12 O21 2.378 . S
O13 Cd14 2.385 . S
O13 C18 1.255 . S
Cd14 O13 2.385 . S
Cd14 O15 2.317 . S
O15 Cd14 2.317 . S
O15 C16 1.232 . S
C16 O15 1.232 . S
C16 O17 1.218 . S
O17 C16 1.218 . S
C18 O11 1.275 . S
C18 O13 1.255 . S
C19 O20 1.258 . S
C19 O21 1.256 . S
O20 Cd12 2.381 . S
O20 C19 1.258 . S
O21 Cd12 2.378 . S
O21 C19 1.256 . S
O22 Cd23 2.300 . S
O22 C29 1.275 . S
Cd23 O22 2.300 . S
Cd23 O31 2.381 . S
Cd23 O32 2.378 . S
O24 Cd25 2.385 . S
O24 C29 1.255 . S
Cd25 O24 2.385 . S
Cd25 O26 2.317 . S
O26 Cd25 2.317 . S
O26 C27 1.232 . S
C27 O26 1.232 . S
C27 O28 1.218 . S
O28 C27 1.218 . S
C29 O22 1.275 . S
C29 O24 1.255 . S
C30 O31 1.258 . S
C30 O32 1.256 . S
O31 Cd23 2.381 . S
O31 C30 1.258 . S
O32 Cd23 2.378 . S
O32 C30 1.256 . S
O33 Cd34 2.300 1_545 S
O33 C40 1.280 . S
Cd34 O33 2.300 1_565 S
Cd34 O42 2.381 1_565 S
Cd34 O43 2.378 . S
O35 Cd36 2.385 . S
O35 C40 1.248 1_565 S
Cd36 O35 2.385 . S
Cd36 O37 2.317 . S
O37 Cd36 2.317 . S
O37 C38 1.232 . S
C38 O37 1.232 . S
C38 O39 1.218 . S
O39 C38 1.218 . S
C40 O33 1.280 . S
C40 O35 1.248 1_545 S
C41 O42 1.258 . S
C41 O43 1.256 1_545 S
O42 Cd34 2.381 1_545 S
O42 C41 1.258 . S
O43 Cd34 2.378 . S
O43 C41 1.256 1_565 S
O44 Cd45 2.300 1_455 S
O44 C51 1.275 1_455 S
Cd45 O44 2.300 1_655 S
Cd45 O53 2.381 1_655 S
Cd45 O54 2.378 . S
O46 Cd47 2.385 . S
O46 C51 1.255 . S
Cd47 O46 2.385 . S
Cd47 O48 2.317 . S
O48 Cd47 2.317 . S
O48 C49 1.232 . S
C49 O48 1.232 . S
C49 O50 1.218 . S
O50 C49 1.218 . S
C51 O44 1.275 1_655 S
C51 O46 1.255 . S
C52 O53 1.258 1_655 S
C52 O54 1.256 . S
O53 Cd45 2.381 1_455 S
O53 C52 1.258 1_455 S
O54 Cd45 2.378 . S
O54 C52 1.256 . S
O55 Cd56 2.300 . S
O55 C62 1.275 . S
Cd56 O55 2.300 . S
Cd56 O64 2.381 1_545 S
Cd56 O65 2.378 . S
O57 Cd58 2.385 . S
O57 C62 1.255 . S
Cd58 O57 2.385 . S
Cd58 O59 2.317 . S
O59 Cd58 2.317 . S
O59 C60 1.232 . S
C60 O59 1.232 . S
C60 O61 1.218 . S
O61 C60 1.218 . S
C62 O55 1.275 . S
C62 O57 1.255 . S
C63 O64 1.258 1_545 S
C63 O65 1.256 . S
O64 Cd56 2.381 1_565 S
O64 C63 1.258 1_565 S
O65 Cd56 2.378 . S
O65 C63 1.256 . S
O66 Cd67 2.300 . S
O66 C73 1.275 . S
Cd67 O66 2.300 . S
Cd67 O75 2.381 . S
Cd67 O76 2.378 . S
O68 Cd69 2.385 . S
O68 C73 1.255 . S
Cd69 O68 2.385 . S
Cd69 O70 2.317 . S
O70 Cd69 2.317 . S
O70 C71 1.232 . S
C71 O70 1.232 . S
C71 O72 1.218 . S
O72 C71 1.218 . S
C73 O66 1.275 . S
C73 O68 1.255 . S
C74 O75 1.258 . S
C74 O76 1.256 . S
O75 Cd67 2.381 . S
O75 C74 1.258 . S
O76 Cd67 2.378 . S
O76 C74 1.256 . S
O77 Cd78 2.300 . S
O77 C84 1.275 . S
Cd78 O77 2.300 . S
Cd78 O86 2.381 . S
Cd78 O87 2.378 . S
O79 Cd80 2.385 1_545 S
O79 C84 1.255 . S
Cd80 O79 2.385 1_565 S
Cd80 O81 2.317 1_565 S
O81 Cd80 2.317 1_545 S
O81 C82 1.232 . S
C82 O81 1.232 . S
C82 O83 1.218 . S
O83 C82 1.218 . S
C84 O77 1.275 . S
C84 O79 1.255 . S
C85 O86 1.258 . S
C85 O87 1.256 . S
O86 Cd78 2.381 . S
O86 C85 1.258 . S
O87 Cd78 2.378 . S
O87 C85 1.256 . S
O88 Cd89 2.300 . S
O88 C95 1.275 . S
Cd89 O88 2.300 . S
Cd89 O97 2.381 . S
Cd89 O98 2.378 . S
O90 Cd91 2.385 . S
O90 C95 1.255 . S
Cd91 O90 2.385 . S
Cd91 O92 2.317 . S
O92 Cd91 2.317 . S
O92 C93 1.232 . S
C93 O92 1.232 . S
C93 O94 1.218 . S
O94 C93 1.218 . S
C95 O88 1.275 . S
C95 O90 1.255 . S
C96 O97 1.258 . S
C96 O98 1.256 . S
O97 Cd89 2.381 . S
O97 C96 1.258 . S
O98 Cd89 2.378 . S
O98 C96 1.256 . S
O99 Cd100 2.300 1_554 S
O99 C106 1.275 . S
Cd100 O99 2.300 1_556 S
Cd100 O108 2.381 1_556 S
Cd100 O109 2.378 . S
O101 Cd102 2.385 . S
O101 C106 1.255 1_556 S
Cd102 O101 2.385 . S
Cd102 O103 2.317 . S
O103 Cd102 2.317 . S
O103 C104 1.232 1_556 S
C104 O103 1.232 1_554 S
C104 O105 1.218 1_554 S
O105 C104 1.218 1_556 S
C106 O99 1.275 . S
C106 O101 1.255 1_554 S
C107 O108 1.258 . S
C107 O109 1.256 1_554 S
O108 Cd100 2.381 1_554 S
O108 C107 1.258 . S
O109 Cd100 2.378 . S
O109 C107 1.256 1_556 S
O110 Cd111 2.300 1_554 S
O110 C117 1.275 1_554 S
Cd111 O110 2.300 1_556 S
Cd111 O119 2.381 1_556 S
Cd111 O120 2.378 . S
O112 Cd113 2.385 . S
O112 C117 1.255 . S
Cd113 O112 2.385 . S
Cd113 O114 2.317 . S
O114 Cd113 2.317 . S
O114 C115 1.232 . S
C115 O114 1.232 . S
C115 O116 1.218 . S
O116 C115 1.218 . S
C117 O110 1.275 1_556 S
C117 O112 1.255 . S
C118 O119 1.258 1_556 S
C118 O120 1.256 . S
O119 Cd111 2.381 1_554 S
O119 C118 1.258 1_554 S
O120 Cd111 2.378 . S
O120 C118 1.256 . S
O121 Cd122 2.300 1_556 S
O121 C128 1.275 1_556 S
Cd122 O121 2.300 1_554 S
Cd122 O130 2.381 1_554 S
Cd122 O131 2.378 . S
O123 Cd124 2.385 . S
O123 C128 1.255 . S
Cd124 O123 2.385 . S
Cd124 O125 2.317 . S
O125 Cd124 2.317 . S
O125 C126 1.232 . S
C126 O125 1.232 . S
C126 O127 1.218 . S
O127 C126 1.218 . S
C128 O121 1.275 1_554 S
C128 O123 1.255 . S
C129 O130 1.258 1_554 S
C129 O131 1.256 . S
O130 Cd122 2.381 1_556 S
O130 C129 1.258 1_556 S
O131 Cd122 2.378 . S
O131 C129 1.256 . S
O132 Cd133 2.300 . S
O132 C139 1.275 . S
Cd133 O132 2.300 . S
Cd133 O141 2.381 . S
Cd133 O142 2.378 . S
O134 Cd135 2.385 . S
O134 C139 1.255 . S
Cd135 O134 2.385 . S
Cd135 O136 2.317 . S
O136 Cd135 2.317 . S
O136 C137 1.232 . S
C137 O136 1.232 . S
C137 O138 1.218 . S
O138 C137 1.218 . S
C139 O132 1.275 . S
C139 O134 1.255 . S
C140 O141 1.258 . S
C140 O142 1.256 . S
O141 Cd133 2.381 . S
O141 C140 1.258 . S
O142 Cd133 2.378 . S
O142 C140 1.256 . S
O143 Cd144 2.300 . S
O143 C150 1.275 . S
Cd144 O143 2.300 . S
Cd144 O152 2.381 . S
Cd144 O153 2.378 . S
O145 Cd146 2.385 . S
O145 C150 1.255 . S
Cd146 O145 2.385 . S
Cd146 O147 2.317 . S
O147 Cd146 2.317 . S
O147 C148 1.232 . S
C148 O147 1.232 . S
C148 O149 1.218 . S
O149 C148 1.218 . S
C150 O143 1.275 . S
C150 O145 1.255 . S
C151 O152 1.258 . S
C151 O153 1.256 . S
O152 Cd144 2.381 . S
O152 C151 1.258 . S
O153 Cd144 2.378 . S
O153 C151 1.256 . S
O154 Cd155 2.300 . S
O154 C161 1.275 . S
Cd155 O154 2.300 . S
Cd155 O163 2.381 . S
Cd155 O164 2.378 . S
O156 Cd157 2.385 . S
O156 C161 1.255 . S
Cd157 O156 2.385 . S
Cd157 O158 2.317 . S
O158 Cd157 2.317 . S
O158 C159 1.232 . S
C159 O158 1.232 . S
C159 O160 1.218 . S
O160 C159 1.218 . S
C161 O154 1.275 . S
C161 O156 1.255 . S
C162 O163 1.258 . S
C162 O164 1.256 . S
O163 Cd155 2.381 . S
O163 C162 1.258 . S
O164 Cd155 2.378 . S
O164 C162 1.256 . S
O165 Cd166 2.300 . S
O165 C172 1.275 . S
Cd166 O165 2.300 . S
Cd166 O174 2.381 . S
Cd166 O175 2.378 . S
O167 Cd168 2.385 . S
O167 C172 1.255 . S
Cd168 O167 2.385 . S
Cd168 O169 2.317 . S
O169 Cd168 2.317 . S
O169 C170 1.232 . S
C170 O169 1.232 . S
C170 O171 1.218 . S
O171 C170 1.218 . S
C172 O165 1.275 . S
C172 O167 1.255 . S
C173 O174 1.258 . S
C173 O175 1.256 . S
O174 Cd166 2.381 . S
O174 C173 1.258 . S
O175 Cd166 2.378 . S
O175 C173 1.256 . S
O176 Cd177 2.300 . S
O176 C183 1.275 . S
Cd177 O176 2.300 . S
Cd177 O185 2.381 . S
Cd177 O186 2.378 . S
O178 Cd179 2.385 . S
O178 C183 1.255 . S
Cd179 O178 2.385 . S
Cd179 O180 2.317 . S
O180 Cd179 2.317 . S
O180 C181 1.232 . S
C181 O180 1.232 . S
C181 O182 1.218 . S
O182 C181 1.218 . S
C183 O176 1.275 . S
C183 O178 1.255 . S
C184 O185 1.258 . S
C184 O186 1.256 . S
O185 Cd177 2.381 . S
O185 C184 1.258 . S
O186 Cd177 2.378 . S
O186 C184 1.256 . S
O187 Cd188 2.300 . S
O187 C194 1.275 . S
Cd188 O187 2.300 . S
Cd188 O196 2.381 . S
Cd188 O197 2.378 . S
O189 Cd190 2.385 . S
O189 C194 1.255 . S
Cd190 O189 2.385 . S
Cd190 O191 2.317 . S
O191 Cd190 2.317 . S
O191 C192 1.232 . S
C192 O191 1.232 . S
C192 O193 1.218 . S
O193 C192 1.218 . S
C194 O187 1.275 . S
C194 O189 1.255 . S
C195 O196 1.258 . S
C195 O197 1.256 . S
O196 Cd188 2.381 . S
O196 C195 1.258 . S
O197 Cd188 2.378 . S
O197 C195 1.256 . S
O198 Cd199 2.300 . S
O198 C205 1.275 . S
Cd199 O198 2.300 . S
Cd199 O207 2.381 . S
Cd199 O208 2.378 . S
O200 Cd201 2.385 . S
O200 C205 1.255 . S
Cd201 O200 2.385 . S
Cd201 O202 2.317 . S
O202 Cd201 2.317 . S
O202 C203 1.232 . S
C203 O202 1.232 . S
C203 O204 1.218 . S
O204 C203 1.218 . S
C205 O198 1.275 . S
C205 O200 1.255 . S
C206 O207 1.258 . S
C206 O208 1.256 . S
O207 Cd199 2.381 . S
O207 C206 1.258 . S
O208 Cd199 2.378 . S
O208 C206 1.256 . S
O209 Cd210 2.300 . S
O209 C216 1.275 . S
Cd210 O209 2.300 . S
Cd210 O218 2.381 . S
Cd210 O219 2.378 . S
O211 Cd212 2.385 . S
O211 C216 1.255 . S
Cd212 O211 2.385 . S
Cd212 O213 2.317 . S
O213 Cd212 2.317 . S
O213 C214 1.232 . S
C214 O213 1.232 . S
C214 O215 1.218 . S
O215 C214 1.218 . S
C216 O209 1.275 . S
C216 O211 1.255 . S
C217 O218 1.258 . S
C217 O219 1.256 . S
O218 Cd210 2.381 . S
O218 C217 1.258 . S
O219 Cd210 2.378 . S
O219 C217 1.256 . S
O220 Cd221 2.300 . S
O220 C227 1.275 . S
Cd221 O220 2.300 . S
Cd221 O229 2.381 . S
Cd221 O230 2.378 . S
O222 Cd223 2.385 . S
O222 C227 1.255 . S
Cd223 O222 2.385 . S
Cd223 O224 2.317 . S
O224 Cd223 2.317 . S
O224 C225 1.232 . S
C225 O224 1.232 . S
C225 O226 1.218 . S
O226 C225 1.218 . S
C227 O220 1.275 . S
C227 O222 1.255 . S
C228 O229 1.258 . S
C228 O230 1.256 . S
O229 Cd221 2.381 . S
O229 C228 1.258 . S
O230 Cd221 2.378 . S
O230 C228 1.256 . S
O231 Cd232 2.300 . S
O231 C238 1.275 . S
Cd232 O231 2.300 . S
Cd232 O240 2.381 . S
Cd232 O241 2.378 . S
O233 Cd234 2.385 . S
O233 C238 1.255 . S
Cd234 O233 2.385 . S
Cd234 O235 2.317 . S
O235 Cd234 2.317 . S
O235 C236 1.232 . S
C236 O235 1.232 . S
C236 O237 1.218 . S
O237 C236 1.218 . S
C238 O231 1.275 . S
C238 O233 1.255 . S
C239 O240 1.258 . S
C239 O241 1.256 . S
O240 Cd232 2.381 . S
O240 C239 1.258 . S
O241 Cd232 2.378 . S
O241 C239 1.256 . S
O242 Cd243 2.300 . S
O242 C249 1.275 . S
Cd243 O242 2.300 . S
Cd243 O251 2.381 . S
Cd243 O252 2.378 . S
O244 Cd245 2.385 . S
O244 C249 1.255 . S
Cd245 O244 2.385 . S
Cd245 O246 2.317 . S
O246 Cd245 2.317 . S
O246 C247 1.232 . S
C247 O246 1.232 . S
C247 O248 1.218 . S
O248 C247 1.218 . S
C249 O242 1.275 . S
C249 O244 1.255 . S
C250 O251 1.258 . S
C250 O252 1.256 . S
O251 Cd243 2.381 . S
O251 C250 1.258 . S
O252 Cd243 2.378 . S
O252 C250 1.256 . S
O253 Cd254 2.300 . S
O253 C260 1.275 . S
Cd254 O253 2.300 . S
Cd254 O262 2.381 . S
Cd254 O263 2.378 . S
O255 Cd256 2.385 . S
O255 C260 1.255 . S
Cd256 O255 2.385 . S
Cd256 O257 2.317 . S
O257 Cd256 2.317 . S
O257 C258 1.232 . S
C258 O257 1.232 . S
C258 O259 1.218 . S
O259 C258 1.218 . S
C260 O253 1.275 . S
C260 O255 1.255 . S
C261 O262 1.258 . S
C261 O263 1.256 . S
O262 Cd254 2.381 . S
O262 C261 1.258 . S
O263 Cd254 2.378 . S
O263 C261 1.256 . S
Zn264 O266 1.933 1_565 S
Zn264 O284 1.985 1_565 S
Zn264 O295 1.955 . S
Zn265 O266 1.911 . S
Zn265 O285 1.970 . S
Zn265 O301 1.945 . S
Zn265 O308 1.981 . S
O266 Zn264 1.933 1_545 S
O266 Zn265 1.911 . S
O266 H267 0.841 1_655 S
H267 O266 0.841 1_455 S
C268 O269 1.246 . S
C268 O297 1.276 . S
O269 C268 1.246 . S
Zn270 O272 1.911 . S
Zn270 O287 1.970 . S
Zn270 O304 1.945 . S
Zn270 O311 1.981 . S
Zn271 O272 1.933 1_565 S
Zn271 O286 1.985 . S
Zn271 O293 1.955 . S
O272 Zn270 1.911 . S
O272 Zn271 1.933 1_545 S
O272 H273 0.841 . S
H273 O272 0.841 . S
Zn274 O275 1.933 1_565 S
Zn274 O288 1.985 1_565 S
Zn274 O297 1.955 . S
O275 Zn274 1.933 1_545 S
O275 Zn276 1.911 . S
O275 H277 0.841 . S
Zn276 O275 1.911 . S
Zn276 O289 1.970 . S
Zn276 O305 1.981 1_655 S
Zn276 O307 1.945 . S
H277 O275 0.841 . S
Zn278 O279 1.933 1_565 S
Zn278 O291 1.985 . S
Zn278 O299 1.955 . S
O279 Zn278 1.933 1_545 S
O279 H280 0.841 . S
O279 Zn281 1.911 . S
H280 O279 0.841 . S
Zn281 O279 1.911 . S
Zn281 O292 1.970 . S
Zn281 O302 1.981 . S
Zn281 O310 1.945 . S
C282 O283 1.246 . S
C282 O299 1.276 . S
O283 C282 1.246 . S
O284 Zn264 1.985 1_545 S
O284 C294 1.245 . S
O285 Zn265 1.970 . S
O285 C294 1.263 . S
O286 Zn271 1.985 . S
O286 C298 1.245 1_565 S
O287 Zn270 1.970 . S
O287 C298 1.263 . S
O288 Zn274 1.985 1_545 S
O288 C303 1.245 . S
O289 Zn276 1.970 . S
O289 C303 1.263 . S
C290 O301 1.262 1_455 S
C290 O302 1.245 . S
O291 Zn278 1.985 . S
O291 C309 1.245 1_565 S
O292 Zn281 1.970 . S
O292 C309 1.263 . S
O293 Zn271 1.955 . S
O293 C312 1.276 . S
C294 O284 1.245 . S
C294 O285 1.263 . S
O295 Zn264 1.955 . S
O295 C314 1.276 1_655 S
C296 O304 1.262 . S
C296 O305 1.245 . S
O297 C268 1.276 . S
O297 Zn274 1.955 . S
C298 O286 1.245 1_545 S
C298 O287 1.263 . S
O299 Zn278 1.955 . S
O299 C282 1.276 . S
C300 O307 1.262 . S
C300 O308 1.245 . S
O301 Zn265 1.945 . S
O301 C290 1.262 1_655 S
O302 Zn281 1.981 . S
O302 C290 1.245 . S
C303 O288 1.245 . S
C303 O289 1.263 . S
O304 Zn270 1.945 . S
O304 C296 1.262 . S
O305 Zn276 1.981 1_455 S
O305 C296 1.245 . S
C306 O310 1.262 . S
C306 O311 1.245 . S
O307 Zn276 1.945 . S
O307 C300 1.262 . S
O308 Zn265 1.981 . S
O308 C300 1.245 . S
C309 O291 1.245 1_545 S
C309 O292 1.263 . S
O310 Zn281 1.945 . S
O310 C306 1.262 . S
O311 Zn270 1.981 . S
O311 C306 1.245 . S
C312 O293 1.276 . S
C312 O313 1.246 . S
O313 C312 1.246 . S
C314 O295 1.276 1_455 S
C314 O315 1.246 . S
O315 C314 1.246 . S
Zn316 O318 1.933 . S
Zn316 O336 1.985 . S
Zn316 O347 1.955 . S
Zn317 O318 1.911 1_556 S
Zn317 O337 1.970 . S
Zn317 O353 1.945 . S
Zn317 O360 1.981 . S
O318 Zn316 1.933 . S
O318 Zn317 1.911 1_554 S
O318 H319 0.841 . S
H319 O318 0.841 . S
C320 O321 1.246 . S
C320 O349 1.276 . S
O321 C320 1.246 . S
Zn322 O324 1.912 1_566 S
Zn322 O339 1.970 . S
Zn322 O356 1.945 . S
Zn322 O363 1.981 . S
Zn323 O324 1.934 1_565 S
Zn323 O338 1.985 . S
Zn323 O345 1.953 1_565 S
O324 Zn322 1.912 1_544 S
O324 Zn323 1.934 1_545 S
O324 H325 0.838 . S
H325 O324 0.838 . S
Zn326 O327 1.933 . S
Zn326 O340 1.985 . S
Zn326 O349 1.955 . S
O327 Zn326 1.933 . S
O327 Zn328 1.911 1_554 S
O327 H329 0.841 . S
Zn328 O327 1.911 1_556 S
Zn328 O341 1.970 . S
Zn328 O357 1.981 . S
Zn328 O359 1.945 . S
H329 O327 0.841 . S
Zn330 O331 1.933 . S
Zn330 O343 1.985 . S
Zn330 O351 1.955 . S
O331 Zn330 1.933 . S
O331 H332 0.841 . S
O331 Zn333 1.911 1_554 S
H332 O331 0.841 . S
Zn333 O331 1.911 1_556 S
Zn333 O344 1.970 . S
Zn333 O354 1.981 1_565 S
Zn333 O362 1.945 . S
C334 O335 1.246 . S
C334 O351 1.276 . S
O335 C334 1.246 . S
O336 Zn316 1.985 . S
O336 C346 1.245 . S
O337 Zn317 1.970 . S
O337 C346 1.263 1_556 S
O338 Zn323 1.985 . S
O338 C350 1.245 . S
O339 Zn322 1.970 . S
O339 C350 1.263 1_556 S
O340 Zn326 1.985 . S
O340 C355 1.245 . S
O341 Zn328 1.970 . S
O341 C355 1.263 1_556 S
C342 O353 1.262 . S
C342 O354 1.245 . S
O343 Zn330 1.985 . S
O343 C361 1.245 . S
O344 Zn333 1.970 . S
O344 C361 1.263 1_556 S
O345 Zn323 1.953 1_545 S
O345 C364 1.283 . S
C346 O336 1.245 . S
C346 O337 1.263 1_554 S
O347 Zn316 1.955 . S
O347 C366 1.276 . S
C348 O356 1.262 1_545 S
C348 O357 1.245 . S
O349 C320 1.276 . S
O349 Zn326 1.955 . S
C350 O338 1.245 . S
C350 O339 1.263 1_554 S
O351 Zn330 1.955 . S
O351 C334 1.276 . S
C352 O359 1.262 . S
C352 O360 1.245 . S
O353 Zn317 1.945 . S
O353 C342 1.262 . S
O354 Zn333 1.981 1_545 S
O354 C342 1.245 . S
C355 O340 1.245 . S
C355 O341 1.263 1_554 S
O356 Zn322 1.945 . S
O356 C348 1.262 1_565 S
O357 Zn328 1.981 . S
O357 C348 1.245 . S
C358 O362 1.262 . S
C358 O363 1.245 . S
O359 Zn328 1.945 . S
O359 C352 1.262 . S
O360 Zn317 1.981 . S
O360 C352 1.245 . S
C361 O343 1.245 . S
C361 O344 1.263 1_554 S
O362 Zn333 1.945 . S
O362 C358 1.262 . S
O363 Zn322 1.981 . S
O363 C358 1.245 . S
C364 O345 1.283 . S
C364 O365 1.246 . S
O365 C364 1.246 . S
C366 O347 1.276 . S
C366 O367 1.246 . S
O367 C366 1.246 . S
Zn368 O370 1.933 . S
Zn368 O388 1.985 . S
Zn368 O399 1.954 . S
Zn369 O370 1.911 . S
Zn369 O389 1.970 . S
Zn369 O405 1.945 . S
Zn369 O412 1.981 . S
O370 Zn368 1.933 . S
O370 Zn369 1.911 . S
O370 H371 0.841 1_655 S
H371 O370 0.841 1_455 S
C372 O373 1.246 1_554 S
C372 O401 1.276 . S
O373 C372 1.246 1_556 S
Zn374 O376 1.911 . S
Zn374 O391 1.970 . S
Zn374 O408 1.945 . S
Zn374 O415 1.981 . S
Zn375 O376 1.933 . S
Zn375 O390 1.985 . S
Zn375 O397 1.955 . S
O376 Zn374 1.911 . S
O376 Zn375 1.933 . S
O376 H377 0.841 . S
H377 O376 0.841 . S
Zn378 O379 1.933 . S
Zn378 O392 1.985 . S
Zn378 O401 1.955 . S
O379 Zn378 1.933 . S
O379 Zn380 1.911 . S
O379 H381 0.841 . S
Zn380 O379 1.911 . S
Zn380 O393 1.970 . S
Zn380 O409 1.981 1_655 S
Zn380 O411 1.945 . S
H381 O379 0.841 . S
Zn382 O383 1.933 . S
Zn382 O395 1.985 . S
Zn382 O403 1.955 . S
O383 Zn382 1.933 . S
O383 H384 0.841 1_556 S
O383 Zn385 1.911 . S
H384 O383 0.841 1_554 S
Zn385 O383 1.911 . S
Zn385 O396 1.970 . S
Zn385 O406 1.981 . S
Zn385 O414 1.945 . S
C386 O387 1.246 . S
C386 O403 1.276 1_554 S
O387 C386 1.246 . S
O388 Zn368 1.985 . S
O388 C398 1.245 . S
O389 Zn369 1.970 . S
O389 C398 1.263 . S
O390 Zn375 1.985 . S
O390 C402 1.245 . S
O391 Zn374 1.970 . S
O391 C402 1.263 . S
O392 Zn378 1.985 . S
O392 C407 1.245 . S
O393 Zn380 1.970 . S
O393 C407 1.263 . S
C394 O405 1.262 1_455 S
C394 O406 1.245 . S
O395 Zn382 1.985 . S
O395 C413 1.245 . S
O396 Zn385 1.970 . S
O396 C413 1.263 . S
O397 Zn375 1.955 . S
O397 C416 1.276 . S
C398 O388 1.245 . S
C398 O389 1.263 . S
O399 Zn368 1.954 . S
O399 C418 1.279 1_655 S
C400 O408 1.262 . S
C400 O409 1.245 . S
O401 C372 1.276 . S
O401 Zn378 1.955 . S
C402 O390 1.245 . S
C402 O391 1.263 . S
O403 Zn382 1.955 . S
O403 C386 1.276 1_556 S
C404 O411 1.262 . S
C404 O412 1.245 1_554 S
O405 Zn369 1.945 . S
O405 C394 1.262 1_655 S
O406 Zn385 1.981 . S
O406 C394 1.245 . S
C407 O392 1.245 . S
C407 O393 1.263 . S
O408 Zn374 1.945 . S
O408 C400 1.262 . S
O409 Zn380 1.981 1_455 S
O409 C400 1.245 . S
C410 O414 1.262 1_554 S
C410 O415 1.245 . S
O411 Zn380 1.945 . S
O411 C404 1.262 . S
O412 Zn369 1.981 . S
O412 C404 1.245 1_556 S
C413 O395 1.245 . S
C413 O396 1.263 . S
O414 Zn385 1.945 . S
O414 C410 1.262 1_556 S
O415 Zn374 1.981 . S
O415 C410 1.245 . S
C416 O397 1.276 . S
C416 O417 1.246 . S
O417 C416 1.246 . S
C418 O399 1.279 1_455 S
C418 O419 1.246 . S
O419 C418 1.246 . S
Zn420 O422 1.933 1_556 S
Zn420 O440 1.985 . S
Zn420 O451 1.955 . S
Zn421 O422 1.911 . S
Zn421 O441 1.970 . S
Zn421 O457 1.945 . S
Zn421 O464 1.981 . S
O422 Zn420 1.933 1_554 S
O422 Zn421 1.911 . S
O422 H423 0.841 . S
H423 O422 0.841 . S
C424 O425 1.246 . S
C424 O453 1.276 . S
O425 C424 1.246 . S
Zn426 O428 1.911 . S
Zn426 O443 1.970 . S
Zn426 O460 1.945 . S
Zn426 O467 1.981 . S
Zn427 O428 1.933 1_556 S
Zn427 O442 1.985 . S
Zn427 O449 1.955 . S
O428 Zn426 1.911 . S
O428 Zn427 1.933 1_554 S
O428 H429 0.841 . S
H429 O428 0.841 . S
Zn430 O431 1.933 1_556 S
Zn430 O444 1.985 . S
Zn430 O453 1.955 . S
O431 Zn430 1.933 1_554 S
O431 Zn432 1.911 . S
O431 H433 0.841 . S
Zn432 O431 1.911 . S
Zn432 O445 1.970 . S
Zn432 O461 1.981 . S
Zn432 O463 1.945 . S
H433 O431 0.841 . S
Zn434 O435 1.933 1_556 S
Zn434 O447 1.985 . S
Zn434 O455 1.955 . S
O435 Zn434 1.933 1_554 S
O435 H436 0.841 . S
O435 Zn437 1.911 . S
H436 O435 0.841 . S
Zn437 O435 1.911 . S
Zn437 O448 1.970 . S
Zn437 O458 1.981 . S
Zn437 O466 1.945 . S
C438 O439 1.246 . S
C438 O455 1.276 . S
O439 C438 1.246 . S
O440 Zn420 1.985 . S
O440 C450 1.245 1_556 S
O441 Zn421 1.970 . S
O441 C450 1.263 . S
O442 Zn427 1.985 . S
O442 C454 1.245 1_556 S
O443 Zn426 1.970 . S
O443 C454 1.263 . S
O444 Zn430 1.985 . S
O444 C459 1.245 1_556 S
O445 Zn432 1.970 . S
O445 C459 1.263 . S
C446 O457 1.262 . S
C446 O458 1.245 . S
O447 Zn434 1.985 . S
O447 C465 1.245 1_556 S
O448 Zn437 1.970 . S
O448 C465 1.263 . S
O449 Zn427 1.955 . S
O449 C468 1.276 . S
C450 O440 1.245 1_554 S
C450 O441 1.263 . S
O451 Zn420 1.955 . S
O451 C470 1.276 . S
C452 O460 1.262 . S
C452 O461 1.245 . S
O453 C424 1.276 . S
O453 Zn430 1.955 . S
C454 O442 1.245 1_554 S
C454 O443 1.263 . S
O455 Zn434 1.955 . S
O455 C438 1.276 . S
C456 O463 1.262 . S
C456 O464 1.245 . S
O457 Zn421 1.945 . S
O457 C446 1.262 . S
O458 Zn437 1.981 . S
O458 C446 1.245 . S
C459 O444 1.245 1_554 S
C459 O445 1.263 . S
O460 Zn426 1.945 . S
O460 C452 1.262 . S
O461 Zn432 1.981 . S
O461 C452 1.245 . S
C462 O466 1.262 . S
C462 O467 1.245 . S
O463 Zn432 1.945 . S
O463 C456 1.262 . S
O464 Zn421 1.981 . S
O464 C456 1.245 . S
C465 O447 1.245 1_554 S
C465 O448 1.263 . S
O466 Zn437 1.945 . S
O466 C462 1.262 . S
O467 Zn426 1.981 . S
O467 C462 1.245 . S
C468 O449 1.276 . S
C468 O469 1.246 . S
O469 C468 1.246 . S
C470 O451 1.276 . S
C470 O471 1.246 . S
O471 C470 1.246 . S
Zn472 O474 1.933 . S
Zn472 O492 1.985 . S
Zn472 O503 1.947 1_655 S
Zn473 O474 1.911 . S
Zn473 O493 1.970 . S
Zn473 O509 1.945 . S
Zn473 O516 1.981 . S
O474 Zn472 1.933 . S
O474 Zn473 1.911 . S
O474 H475 0.841 1_655 S
H475 O474 0.841 1_455 S
C476 O477 1.246 . S
C476 O505 1.276 . S
O477 C476 1.246 . S
Zn478 O480 1.911 . S
Zn478 O495 1.970 . S
Zn478 O512 1.945 . S
Zn478 O519 1.981 . S
Zn479 O480 1.933 . S
Zn479 O494 1.985 . S
Zn479 O501 1.955 . S
O480 Zn478 1.911 . S
O480 Zn479 1.933 . S
O480 H481 0.841 . S
H481 O480 0.841 . S
Zn482 O483 1.933 . S
Zn482 O496 1.985 . S
Zn482 O505 1.955 . S
O483 Zn482 1.933 . S
O483 Zn484 1.911 . S
O483 H485 0.841 . S
Zn484 O483 1.911 . S
Zn484 O497 1.970 . S
Zn484 O513 1.981 1_655 S
Zn484 O515 1.945 . S
H485 O483 0.841 . S
Zn486 O487 1.933 . S
Zn486 O499 1.985 . S
Zn486 O507 1.955 . S
O487 Zn486 1.933 . S
O487 H488 0.841 . S
O487 Zn489 1.911 . S
H488 O487 0.841 . S
Zn489 O487 1.911 . S
Zn489 O500 1.970 . S
Zn489 O510 1.981 . S
Zn489 O518 1.945 . S
C490 O491 1.246 . S
C490 O507 1.276 . S
O491 C490 1.246 . S
O492 Zn472 1.985 . S
O492 C502 1.245 . S
O493 Zn473 1.970 . S
O493 C502 1.263 . S
O494 Zn479 1.985 . S
O494 C506 1.245 . S
O495 Zn478 1.970 . S
O495 C506 1.263 . S
O496 Zn482 1.985 . S
O496 C511 1.245 . S
O497 Zn484 1.970 . S
O497 C511 1.263 . S
C498 O509 1.262 1_455 S
C498 O510 1.245 . S
O499 Zn486 1.985 . S
O499 C517 1.245 . S
O500 Zn489 1.970 . S
O500 C517 1.263 . S
O501 Zn479 1.955 . S
O501 C520 1.276 . S
C502 O492 1.245 . S
C502 O493 1.263 . S
O503 Zn472 1.947 1_455 S
O503 C522 1.302 . S
C504 O512 1.262 . S
C504 O513 1.245 . S
O505 C476 1.276 . S
O505 Zn482 1.955 . S
C506 O494 1.245 . S
C506 O495 1.263 . S
O507 Zn486 1.955 . S
O507 C490 1.276 . S
C508 O515 1.262 . S
C508 O516 1.245 . S
O509 Zn473 1.945 . S
O509 C498 1.262 1_655 S
O510 Zn489 1.981 . S
O510 C498 1.245 . S
C511 O496 1.245 . S
C511 O497 1.263 . S
O512 Zn478 1.945 . S
O512 C504 1.262 . S
O513 Zn484 1.981 1_455 S
O513 C504 1.245 . S
C514 O518 1.262 . S
C514 O519 1.245 . S
O515 Zn484 1.945 . S
O515 C508 1.262 . S
O516 Zn473 1.981 . S
O516 C508 1.245 . S
C517 O499 1.245 . S
C517 O500 1.263 . S
O518 Zn489 1.945 . S
O518 C514 1.262 . S
O519 Zn478 1.981 . S
O519 C514 1.245 . S
C520 O501 1.276 . S
C520 O521 1.246 . S
O521 C520 1.246 . S
C522 O503 1.302 . S
C522 O523 1.246 . S
O523 C522 1.246 . S
Zn524 O526 1.933 1_565 S
Zn524 O544 1.985 . S
Zn524 O555 1.955 . S
Zn525 O526 1.911 . S
Zn525 O545 1.970 . S
Zn525 O561 1.945 . S
Zn525 O568 1.981 . S
O526 Zn524 1.933 1_545 S
O526 Zn525 1.911 . S
O526 H527 0.841 . S
H527 O526 0.841 . S
C528 O529 1.246 . S
C528 O557 1.276 . S
O529 C528 1.246 . S
Zn530 O532 1.911 . S
Zn530 O547 1.970 . S
Zn530 O564 1.945 . S
Zn530 O571 1.981 . S
Zn531 O532 1.933 1_565 S
Zn531 O546 1.985 1_565 S
Zn531 O553 1.955 . S
O532 Zn530 1.911 . S
O532 Zn531 1.933 1_545 S
O532 H533 0.841 . S
H533 O532 0.841 . S
Zn534 O535 1.933 1_565 S
Zn534 O548 1.985 . S
Zn534 O557 1.955 . S
O535 Zn534 1.933 1_545 S
O535 Zn536 1.911 . S
O535 H537 0.841 . S
Zn536 O535 1.911 . S
Zn536 O549 1.970 . S
Zn536 O565 1.981 . S
Zn536 O567 1.945 . S
H537 O535 0.841 . S
Zn538 O539 1.933 1_565 S
Zn538 O551 1.985 1_565 S
Zn538 O559 1.955 . S
O539 Zn538 1.933 1_545 S
O539 H540 0.841 . S
O539 Zn541 1.911 . S
H540 O539 0.841 . S
Zn541 O539 1.911 . S
Zn541 O552 1.970 . S
Zn541 O562 1.981 . S
Zn541 O570 1.945 . S
C542 O543 1.246 . S
C542 O559 1.276 . S
O543 C542 1.246 . S
O544 Zn524 1.985 . S
O544 C554 1.245 1_565 S
O545 Zn525 1.970 . S
O545 C554 1.263 . S
O546 Zn531 1.985 1_545 S
O546 C558 1.245 . S
O547 Zn530 1.970 . S
O547 C558 1.263 . S
O548 Zn534 1.985 . S
O548 C563 1.245 1_565 S
O549 Zn536 1.970 . S
O549 C563 1.263 . S
C550 O561 1.262 . S
C550 O562 1.245 . S
O551 Zn538 1.985 1_545 S
O551 C569 1.245 . S
O552 Zn541 1.970 . S
O552 C569 1.263 . S
O553 Zn531 1.955 . S
O553 C572 1.276 . S
C554 O544 1.245 1_545 S
C554 O545 1.263 . S
O555 Zn524 1.955 . S
O555 C574 1.276 . S
C556 O564 1.262 . S
C556 O565 1.245 . S
O557 C528 1.276 . S
O557 Zn534 1.955 . S
C558 O546 1.245 . S
C558 O547 1.263 . S
O559 Zn538 1.955 . S
O559 C542 1.276 . S
C560 O567 1.262 . S
C560 O568 1.245 . S
O561 Zn525 1.945 . S
O561 C550 1.262 . S
O562 Zn541 1.981 . S
O562 C550 1.245 . S
C563 O548 1.245 1_545 S
C563 O549 1.263 . S
O564 Zn530 1.945 . S
O564 C556 1.262 . S
O565 Zn536 1.981 . S
O565 C556 1.245 . S
C566 O570 1.262 . S
C566 O571 1.245 . S
O567 Zn536 1.945 . S
O567 C560 1.262 . S
O568 Zn525 1.981 . S
O568 C560 1.245 . S
C569 O551 1.245 . S
C569 O552 1.263 . S
O570 Zn541 1.945 . S
O570 C566 1.262 . S
O571 Zn530 1.981 . S
O571 C566 1.245 . S
C572 O553 1.276 . S
C572 O573 1.246 . S
O573 C572 1.246 . S
C574 O555 1.276 . S
C574 O575 1.246 . S
O575 C574 1.246 . S
H576 C582 0.930 . S
H577 C586 0.930 . S
H578 C591 0.929 . S
H579 C589 0.929 . S
H580 C584 0.929 . S
H581 C590 0.929 . S
C582 H576 0.930 . S
C582 C583 1.367 . S
C582 C590 1.378 . S
C583 C582 1.367 . S
C583 C591 1.433 . S
C584 H580 0.929 . S
C584 C586 1.378 . S
C584 C588 1.350 . S
C585 C588 1.463 . S
C585 C590 1.350 . S
C585 N593 1.427 . S
C586 H577 0.930 . S
C586 C584 1.378 . S
C586 C587 1.367 . S
C587 C586 1.367 . S
C587 C589 1.433 . S
C588 C584 1.350 . S
C588 C585 1.463 . S
C588 N592 1.427 . S
C589 H579 0.929 . S
C589 C587 1.433 . S
C589 N592 1.384 . S
C590 H581 0.929 . S
C590 C582 1.378 . S
C590 C585 1.350 . S
C591 H578 0.929 . S
C591 C583 1.433 . S
C591 N593 1.384 . S
N592 C588 1.427 . S
N592 C589 1.384 . S
N593 C585 1.427 . S
N593 C591 1.384 . S
H594 C600 0.930 . S
H595 C604 0.930 . S
H596 C609 0.929 . S
H597 C607 0.929 . S
H598 C602 0.929 . S
H599 C608 0.929 . S
C600 H594 0.930 . S
C600 C601 1.367 . S
C600 C608 1.378 . S
C601 C600 1.367 . S
C601 C609 1.433 . S
C602 H598 0.929 . S
C602 C604 1.378 . S
C602 C606 1.350 . S
C603 C606 1.463 . S
C603 C608 1.350 . S
C603 N611 1.427 . S
C604 H595 0.930 . S
C604 C602 1.378 . S
C604 C605 1.367 . S
C605 C604 1.367 . S
C605 C607 1.433 . S
C606 C602 1.350 . S
C606 C603 1.463 . S
C606 N610 1.427 . S
C607 H597 0.929 . S
C607 C605 1.433 . S
C607 N610 1.384 . S
C608 H599 0.929 . S
C608 C600 1.378 . S
C608 C603 1.350 . S
C609 H596 0.929 . S
C609 C601 1.433 . S
C609 N611 1.384 . S
N610 C606 1.427 . S
N610 C607 1.384 . S
N611 C603 1.427 . S
N611 C609 1.384 . S
H612 C618 0.930 . S
H613 C622 0.930 . S
H614 C627 0.929 . S
H615 C625 0.929 . S
H616 C620 0.929 . S
H617 C626 0.929 . S
C618 H612 0.930 . S
C618 C619 1.367 . S
C618 C626 1.378 . S
C619 C618 1.367 . S
C619 C627 1.433 . S
C620 H616 0.929 . S
C620 C622 1.378 . S
C620 C624 1.350 . S
C621 C624 1.463 . S
C621 C626 1.350 . S
C621 N629 1.427 . S
C622 H613 0.930 . S
C622 C620 1.378 . S
C622 C623 1.367 . S
C623 C622 1.367 . S
C623 C625 1.433 . S
C624 C620 1.350 . S
C624 C621 1.463 . S
C624 N628 1.427 . S
C625 H615 0.929 . S
C625 C623 1.433 . S
C625 N628 1.384 . S
C626 H617 0.929 . S
C626 C618 1.378 . S
C626 C621 1.350 . S
C627 H614 0.929 . S
C627 C619 1.433 . S
C627 N629 1.384 . S
N628 C624 1.427 . S
N628 C625 1.384 . S
N629 C621 1.427 . S
N629 C627 1.384 . S
H630 C636 0.930 . S
H631 C640 0.930 . S
H632 C645 0.929 . S
H633 C643 0.929 . S
H634 C638 0.929 . S
H635 C644 0.929 . S
C636 H630 0.930 . S
C636 C637 1.367 . S
C636 C644 1.378 . S
C637 C636 1.367 . S
C637 C645 1.433 . S
C638 H634 0.929 . S
C638 C640 1.378 . S
C638 C642 1.350 . S
C639 C642 1.463 . S
C639 C644 1.350 . S
C639 N647 1.427 . S
C640 H631 0.930 . S
C640 C638 1.378 . S
C640 C641 1.367 . S
C641 C640 1.367 . S
C641 C643 1.433 . S
C642 C638 1.350 . S
C642 C639 1.463 . S
C642 N646 1.427 . S
C643 H633 0.929 . S
C643 C641 1.433 . S
C643 N646 1.384 . S
C644 H635 0.929 . S
C644 C636 1.378 . S
C644 C639 1.350 . S
C645 H632 0.929 . S
C645 C637 1.433 . S
C645 N647 1.384 . S
N646 C642 1.427 . S
N646 C643 1.384 . S
N647 C639 1.427 . S
N647 C645 1.384 . S
H648 C654 0.930 . S
H649 C658 0.930 . S
H650 C663 0.929 . S
H651 C661 0.929 . S
H652 C656 0.929 . S
H653 C662 0.929 . S
C654 H648 0.930 . S
C654 C655 1.367 . S
C654 C662 1.378 . S
C655 C654 1.367 . S
C655 C663 1.433 . S
C656 H652 0.929 . S
C656 C658 1.378 . S
C656 C660 1.350 . S
C657 C660 1.463 . S
C657 C662 1.350 . S
C657 N665 1.427 . S
C658 H649 0.930 . S
C658 C656 1.378 . S
C658 C659 1.367 . S
C659 C658 1.367 . S
C659 C661 1.433 . S
C660 C656 1.350 . S
C660 C657 1.463 . S
C660 N664 1.427 . S
C661 H651 0.929 . S
C661 C659 1.433 . S
C661 N664 1.384 . S
C662 H653 0.929 . S
C662 C654 1.378 . S
C662 C657 1.350 . S
C663 H650 0.929 . S
C663 C655 1.433 . S
C663 N665 1.384 . S
N664 C660 1.427 . S
N664 C661 1.384 . S
N665 C657 1.427 . S
N665 C663 1.384 . S
H666 C672 0.930 . S
H667 C676 0.930 . S
H668 C681 0.929 . S
H669 C679 0.929 . S
H670 C674 0.929 . S
H671 C680 0.929 . S
C672 H666 0.930 . S
C672 C673 1.367 . S
C672 C680 1.378 . S
C673 C672 1.367 . S
C673 C681 1.433 . S
C674 H670 0.929 . S
C674 C676 1.378 . S
C674 C678 1.350 . S
C675 C678 1.463 . S
C675 C680 1.350 . S
C675 N683 1.427 . S
C676 H667 0.930 . S
C676 C674 1.378 . S
C676 C677 1.367 . S
C677 C676 1.367 . S
C677 C679 1.433 . S
C678 C674 1.350 . S
C678 C675 1.463 . S
C678 N682 1.427 . S
C679 H669 0.929 . S
C679 C677 1.433 . S
C679 N682 1.384 . S
C680 H671 0.929 . S
C680 C672 1.378 . S
C680 C675 1.350 . S
C681 H668 0.929 . S
C681 C673 1.433 . S
C681 N683 1.384 . S
N682 C678 1.427 . S
N682 C679 1.384 . S
N683 C675 1.427 . S
N683 C681 1.384 . S
H684 C690 0.930 . S
H685 C694 0.930 . S
H686 C699 0.929 . S
H687 C697 0.929 . S
H688 C692 0.929 . S
H689 C698 0.929 . S
C690 H684 0.930 . S
C690 C691 1.367 . S
C690 C698 1.378 . S
C691 C690 1.367 . S
C691 C699 1.433 . S
C692 H688 0.929 . S
C692 C694 1.378 . S
C692 C696 1.350 . S
C693 C696 1.463 . S
C693 C698 1.350 . S
C693 N701 1.427 . S
C694 H685 0.930 . S
C694 C692 1.378 . S
C694 C695 1.367 . S
C695 C694 1.367 . S
C695 C697 1.433 . S
C696 C692 1.350 . S
C696 C693 1.463 . S
C696 N700 1.427 . S
C697 H687 0.929 . S
C697 C695 1.433 . S
C697 N700 1.384 . S
C698 H689 0.929 . S
C698 C690 1.378 . S
C698 C693 1.350 . S
C699 H686 0.929 . S
C699 C691 1.433 . S
C699 N701 1.384 . S
N700 C696 1.427 . S
N700 C697 1.384 . S
N701 C693 1.427 . S
N701 C699 1.384 . S
H702 C708 0.930 . S
H703 C712 0.930 . S
H704 C717 0.929 . S
H705 C715 0.929 . S
H706 C710 0.929 . S
H707 C716 0.929 . S
C708 H702 0.930 . S
C708 C709 1.367 . S
C708 C716 1.378 . S
C709 C708 1.367 . S
C709 C717 1.433 . S
C710 H706 0.929 . S
C710 C712 1.378 . S
C710 C714 1.350 . S
C711 C714 1.463 . S
C711 C716 1.350 . S
C711 N719 1.427 . S
C712 H703 0.930 . S
C712 C710 1.378 . S
C712 C713 1.367 . S
C713 C712 1.367 . S
C713 C715 1.433 . S
C714 C710 1.350 . S
C714 C711 1.463 . S
C714 N718 1.427 . S
C715 H705 0.929 . S
C715 C713 1.433 . S
C715 N718 1.384 . S
C716 H707 0.929 . S
C716 C708 1.378 . S
C716 C711 1.350 . S
C717 H704 0.929 . S
C717 C709 1.433 . S
C717 N719 1.384 . S
N718 C714 1.427 . S
N718 C715 1.384 . S
N719 C711 1.427 . S
N719 C717 1.384 . S
H720 C726 0.930 . S
H721 C730 0.930 . S
H722 C735 0.929 . S
H723 C733 0.929 . S
H724 C728 0.929 . S
H725 C734 0.929 . S
C726 H720 0.930 . S
C726 C727 1.367 . S
C726 C734 1.378 . S
C727 C726 1.367 . S
C727 C735 1.433 . S
C728 H724 0.929 . S
C728 C730 1.378 . S
C728 C732 1.350 . S
C729 C732 1.463 . S
C729 C734 1.350 . S
C729 N737 1.427 . S
C730 H721 0.930 . S
C730 C728 1.378 . S
C730 C731 1.367 . S
C731 C730 1.367 . S
C731 C733 1.433 . S
C732 C728 1.350 . S
C732 C729 1.463 . S
C732 N736 1.427 . S
C733 H723 0.929 . S
C733 C731 1.433 . S
C733 N736 1.384 . S
C734 H725 0.929 . S
C734 C726 1.378 . S
C734 C729 1.350 . S
C735 H722 0.929 . S
C735 C727 1.433 . S
C735 N737 1.384 . S
N736 C732 1.427 . S
N736 C733 1.384 . S
N737 C729 1.427 . S
N737 C735 1.384 . S
H738 C744 0.930 . S
H739 C748 0.930 . S
H740 C753 0.929 . S
H741 C751 0.929 . S
H742 C746 0.929 . S
H743 C752 0.929 . S
C744 H738 0.930 . S
C744 C745 1.367 . S
C744 C752 1.378 . S
C745 C744 1.367 . S
C745 C753 1.433 . S
C746 H742 0.929 . S
C746 C748 1.378 . S
C746 C750 1.350 . S
C747 C750 1.463 . S
C747 C752 1.350 . S
C747 N755 1.427 . S
C748 H739 0.930 . S
C748 C746 1.378 . S
C748 C749 1.367 . S
C749 C748 1.367 . S
C749 C751 1.433 . S
C750 C746 1.350 . S
C750 C747 1.463 . S
C750 N754 1.427 . S
C751 H741 0.929 . S
C751 C749 1.433 . S
C751 N754 1.384 . S
C752 H743 0.929 . S
C752 C744 1.378 . S
C752 C747 1.350 . S
C753 H740 0.929 . S
C753 C745 1.433 . S
C753 N755 1.384 . S
N754 C750 1.427 . S
N754 C751 1.384 . S
N755 C747 1.427 . S
N755 C753 1.384 . S
H756 C762 0.930 . S
H757 C766 0.930 . S
H758 C771 0.929 . S
H759 C769 0.929 . S
H760 C764 0.929 . S
H761 C770 0.929 . S
C762 H756 0.930 . S
C762 C763 1.367 . S
C762 C770 1.378 . S
C763 C762 1.367 . S
C763 C771 1.433 . S
C764 H760 0.929 . S
C764 C766 1.378 . S
C764 C768 1.350 . S
C765 C768 1.463 . S
C765 C770 1.350 . S
C765 N773 1.427 . S
C766 H757 0.930 . S
C766 C764 1.378 . S
C766 C767 1.367 . S
C767 C766 1.367 . S
C767 C769 1.433 . S
C768 C764 1.350 . S
C768 C765 1.463 . S
C768 N772 1.427 . S
C769 H759 0.929 . S
C769 C767 1.433 . S
C769 N772 1.384 . S
C770 H761 0.929 . S
C770 C762 1.378 . S
C770 C765 1.350 . S
C771 H758 0.929 . S
C771 C763 1.433 . S
C771 N773 1.384 . S
N772 C768 1.427 . S
N772 C769 1.384 . S
N773 C765 1.427 . S
N773 C771 1.384 . S
H774 C780 0.930 . S
H775 C784 0.930 . S
H776 C789 0.929 . S
H777 C787 0.929 . S
H778 C782 0.929 . S
H779 C788 0.929 . S
C780 H774 0.930 . S
C780 C781 1.367 . S
C780 C788 1.378 . S
C781 C780 1.367 . S
C781 C789 1.433 . S
C782 H778 0.929 . S
C782 C784 1.378 . S
C782 C786 1.350 . S
C783 C786 1.463 . S
C783 C788 1.350 . S
C783 N791 1.427 . S
C784 H775 0.930 . S
C784 C782 1.378 . S
C784 C785 1.367 . S
C785 C784 1.367 . S
C785 C787 1.433 . S
C786 C782 1.350 . S
C786 C783 1.463 . S
C786 N790 1.427 . S
C787 H777 0.929 . S
C787 C785 1.433 . S
C787 N790 1.384 . S
C788 H779 0.929 . S
C788 C780 1.378 . S
C788 C783 1.350 . S
C789 H776 0.929 . S
C789 C781 1.433 . S
C789 N791 1.384 . S
N790 C786 1.427 . S
N790 C787 1.384 . S
N791 C783 1.427 . S
N791 C789 1.384 . S
H792 C798 0.930 . S
H793 C802 0.930 . S
H794 C807 0.929 . S
H795 C805 0.929 . S
H796 C800 0.929 . S
H797 C806 0.929 . S
C798 H792 0.930 . S
C798 C799 1.367 1_556 S
C798 C806 1.378 . S
C799 C798 1.367 1_554 S
C799 C807 1.433 . S
C800 H796 0.929 . S
C800 C802 1.378 . S
C800 C804 1.350 . S
C801 C804 1.463 . S
C801 C806 1.350 1_554 S
C801 N809 1.427 . S
C802 H793 0.930 . S
C802 C800 1.378 . S
C802 C803 1.367 . S
C803 C802 1.367 . S
C803 C805 1.433 1_554 S
C804 C800 1.350 . S
C804 C801 1.463 . S
C804 N808 1.427 1_554 S
C805 H795 0.929 . S
C805 C803 1.433 1_556 S
C805 N808 1.384 . S
C806 H797 0.929 . S
C806 C798 1.378 . S
C806 C801 1.350 1_556 S
C807 H794 0.929 . S
C807 C799 1.433 . S
C807 N809 1.384 . S
N808 C804 1.427 1_556 S
N808 C805 1.384 . S
N809 C801 1.427 . S
N809 C807 1.384 . S
H810 C816 0.930 . S
H811 C820 0.930 . S
H812 C825 0.929 . S
H813 C823 0.929 . S
H814 C818 0.929 . S
H815 C824 0.929 . S
C816 H810 0.930 . S
C816 C817 1.367 . S
C816 C824 1.378 . S
C817 C816 1.367 . S
C817 C825 1.433 . S
C818 H814 0.929 . S
C818 C820 1.378 . S
C818 C822 1.350 . S
C819 C822 1.463 . S
C819 C824 1.350 . S
C819 N827 1.427 . S
C820 H811 0.930 . S
C820 C818 1.378 . S
C820 C821 1.367 . S
C821 C820 1.367 . S
C821 C823 1.433 . S
C822 C818 1.350 . S
C822 C819 1.463 . S
C822 N826 1.427 . S
C823 H813 0.929 . S
C823 C821 1.433 . S
C823 N826 1.384 . S
C824 H815 0.929 . S
C824 C816 1.378 . S
C824 C819 1.350 . S
C825 H812 0.929 . S
C825 C817 1.433 . S
C825 N827 1.384 . S
N826 C822 1.427 . S
N826 C823 1.384 . S
N827 C819 1.427 . S
N827 C825 1.384 . S
H828 C834 0.930 . S
H829 C838 0.930 . S
H830 C843 0.929 . S
H831 C841 0.929 . S
H832 C836 0.929 . S
H833 C842 0.929 . S
C834 H828 0.930 . S
C834 C835 1.367 1_556 S
C834 C842 1.378 . S
C835 C834 1.367 1_554 S
C835 C843 1.433 . S
C836 H832 0.929 . S
C836 C838 1.378 . S
C836 C840 1.350 . S
C837 C840 1.463 . S
C837 C842 1.350 1_554 S
C837 N845 1.427 . S
C838 H829 0.930 . S
C838 C836 1.378 . S
C838 C839 1.367 . S
C839 C838 1.367 . S
C839 C841 1.433 1_554 S
C840 C836 1.350 . S
C840 C837 1.463 . S
C840 N844 1.427 1_554 S
C841 H831 0.929 . S
C841 C839 1.433 1_556 S
C841 N844 1.384 . S
C842 H833 0.929 . S
C842 C834 1.378 . S
C842 C837 1.350 1_556 S
C843 H830 0.929 . S
C843 C835 1.433 . S
C843 N845 1.384 . S
N844 C840 1.427 1_556 S
N844 C841 1.384 . S
N845 C837 1.427 . S
N845 C843 1.384 . S
H846 C852 0.930 . S
H847 C856 0.930 . S
H848 C861 0.929 . S
H849 C859 0.929 1_556 S
H850 C854 0.929 . S
H851 C860 0.929 . S
C852 H846 0.930 . S
C852 C853 1.367 1_556 S
C852 C860 1.378 . S
C853 C852 1.367 1_554 S
C853 C861 1.433 . S
C854 H850 0.929 . S
C854 C856 1.378 . S
C854 C858 1.350 . S
C855 C858 1.463 . S
C855 C860 1.350 1_554 S
C855 N863 1.427 . S
C856 H847 0.930 . S
C856 C854 1.378 . S
C856 C857 1.367 . S
C857 C856 1.367 . S
C857 C859 1.433 . S
C858 C854 1.350 . S
C858 C855 1.463 . S
C858 N862 1.427 . S
C859 H849 0.929 1_554 S
C859 C857 1.433 . S
C859 N862 1.384 . S
C860 H851 0.929 . S
C860 C852 1.378 . S
C860 C855 1.350 1_556 S
C861 H848 0.929 . S
C861 C853 1.433 . S
C861 N863 1.384 . S
N862 C858 1.427 . S
N862 C859 1.384 . S
N863 C855 1.427 . S
N863 C861 1.384 . S
H864 C870 0.930 . S
H865 C874 0.930 . S
H866 C879 0.929 . S
H867 C877 0.929 . S
H868 C872 0.929 . S
H869 C878 0.929 . S
C870 H864 0.930 . S
C870 C871 1.367 . S
C870 C878 1.378 . S
C871 C870 1.367 . S
C871 C879 1.433 1_455 S
C872 H868 0.929 . S
C872 C874 1.378 . S
C872 C876 1.350 1_655 S
C873 C876 1.463 . S
C873 C878 1.350 . S
C873 N881 1.427 1_455 S
C874 H865 0.930 . S
C874 C872 1.378 . S
C874 C875 1.367 1_655 S
C875 C874 1.367 1_455 S
C875 C877 1.433 . S
C876 C872 1.350 1_455 S
C876 C873 1.463 . S
C876 N880 1.427 . S
C877 H867 0.929 . S
C877 C875 1.433 . S
C877 N880 1.384 . S
C878 H869 0.929 . S
C878 C870 1.378 . S
C878 C873 1.350 . S
C879 H866 0.929 . S
C879 C871 1.433 1_655 S
C879 N881 1.384 . S
N880 C876 1.427 . S
N880 C877 1.384 . S
N881 C873 1.427 1_655 S
N881 C879 1.384 . S
H882 C888 0.930 . S
H883 C892 0.930 . S
H884 C897 0.929 . S
H885 C895 0.929 . S
H886 C890 0.929 . S
H887 C896 0.929 . S
C888 H882 0.930 . S
C888 C889 1.367 . S
C888 C896 1.378 . S
C889 C888 1.367 . S
C889 C897 1.433 . S
C890 H886 0.929 . S
C890 C892 1.378 . S
C890 C894 1.350 . S
C891 C894 1.463 . S
C891 C896 1.350 . S
C891 N899 1.427 . S
C892 H883 0.930 . S
C892 C890 1.378 . S
C892 C893 1.367 . S
C893 C892 1.367 . S
C893 C895 1.433 . S
C894 C890 1.350 . S
C894 C891 1.463 . S
C894 N898 1.427 . S
C895 H885 0.929 . S
C895 C893 1.433 . S
C895 N898 1.384 . S
C896 H887 0.929 . S
C896 C888 1.378 . S
C896 C891 1.350 . S
C897 H884 0.929 . S
C897 C889 1.433 . S
C897 N899 1.384 . S
N898 C894 1.427 . S
N898 C895 1.384 . S
N899 C891 1.427 . S
N899 C897 1.384 . S
H900 C906 0.930 . S
H901 C910 0.930 . S
H902 C915 0.929 . S
H903 C913 0.929 . S
H904 C908 0.929 . S
H905 C914 0.929 . S
C906 H900 0.930 . S
C906 C907 1.367 . S
C906 C914 1.378 . S
C907 C906 1.367 . S
C907 C915 1.433 . S
C908 H904 0.929 . S
C908 C910 1.378 . S
C908 C912 1.350 . S
C909 C912 1.463 . S
C909 C914 1.350 . S
C909 N917 1.427 . S
C910 H901 0.930 . S
C910 C908 1.378 . S
C910 C911 1.367 . S
C911 C910 1.367 . S
C911 C913 1.433 . S
C912 C908 1.350 . S
C912 C909 1.463 . S
C912 N916 1.427 . S
C913 H903 0.929 . S
C913 C911 1.433 . S
C913 N916 1.384 . S
C914 H905 0.929 . S
C914 C906 1.378 . S
C914 C909 1.350 . S
C915 H902 0.929 . S
C915 C907 1.433 . S
C915 N917 1.384 . S
N916 C912 1.427 . S
N916 C913 1.384 . S
N917 C909 1.427 . S
N917 C915 1.384 . S
H918 C924 0.930 . S
H919 C928 0.930 . S
H920 C933 0.929 . S
H921 C931 0.929 1_565 S
H922 C926 0.929 . S
H923 C932 0.913 1_565 S
C924 H918 0.930 . S
C924 C925 1.367 . S
C924 C932 1.378 . S
C925 C924 1.367 . S
C925 C933 1.433 . S
C926 H922 0.929 . S
C926 C928 1.378 . S
C926 C930 1.350 . S
C927 C930 1.463 . S
C927 C932 1.350 . S
C927 N935 1.427 . S
C928 H919 0.930 . S
C928 C926 1.378 . S
C928 C929 1.367 . S
C929 C928 1.367 . S
C929 C931 1.433 . S
C930 C926 1.350 . S
C930 C927 1.463 . S
C930 N934 1.427 . S
C931 H921 0.929 1_545 S
C931 C929 1.433 . S
C931 N934 1.384 . S
C932 H923 0.913 1_545 S
C932 C924 1.378 . S
C932 C927 1.350 . S
C933 H920 0.929 . S
C933 C925 1.433 . S
C933 N935 1.384 . S
N934 C930 1.427 . S
N934 C931 1.384 . S
N935 C927 1.427 . S
N935 C933 1.384 . S
H936 C942 0.930 . S
H937 C946 0.930 . S
H938 C951 0.929 . S
H939 C949 0.929 . S
H940 C944 0.929 . S
H941 C950 0.929 . S
C942 H936 0.930 . S
C942 C943 1.367 . S
C942 C950 1.378 . S
C943 C942 1.367 . S
C943 C951 1.433 . S
C944 H940 0.929 . S
C944 C946 1.378 . S
C944 C948 1.350 . S
C945 C948 1.463 . S
C945 C950 1.350 . S
C945 N953 1.427 . S
C946 H937 0.930 . S
C946 C944 1.378 . S
C946 C947 1.367 . S
C947 C946 1.367 . S
C947 C949 1.433 . S
C948 C944 1.350 . S
C948 C945 1.463 . S
C948 N952 1.427 . S
C949 H939 0.929 . S
C949 C947 1.433 . S
C949 N952 1.384 . S
C950 H941 0.929 . S
C950 C942 1.378 . S
C950 C945 1.350 . S
C951 H938 0.929 . S
C951 C943 1.433 . S
C951 N953 1.384 . S
N952 C948 1.427 . S
N952 C949 1.384 . S
N953 C945 1.427 . S
N953 C951 1.384 . S
H954 C960 0.930 . S
H955 C964 0.930 1_565 S
H956 C969 0.929 . S
H957 C967 0.929 . S
H958 C962 0.929 1_565 S
H959 C968 0.929 . S
C960 H954 0.930 . S
C960 C961 1.367 . S
C960 C968 1.378 . S
C961 C960 1.367 . S
C961 C969 1.433 . S
C962 H958 0.929 1_545 S
C962 C964 1.378 . S
C962 C966 1.350 . S
C963 C966 1.463 . S
C963 C968 1.350 . S
C963 N971 1.427 . S
C964 H955 0.930 1_545 S
C964 C962 1.378 . S
C964 C965 1.367 . S
C965 C964 1.367 . S
C965 C967 1.433 . S
C966 C962 1.350 . S
C966 C963 1.463 . S
C966 N970 1.427 . S
C967 H957 0.929 . S
C967 C965 1.433 . S
C967 N970 1.384 . S
C968 H959 0.929 . S
C968 C960 1.378 . S
C968 C963 1.350 . S
C969 H956 0.929 . S
C969 C961 1.433 . S
C969 N971 1.384 . S
N970 C966 1.427 . S
N970 C967 1.384 . S
N971 C963 1.427 . S
N971 C969 1.384 . S
H972 C978 0.930 . S
H973 C982 0.930 1_655 S
H974 C987 0.923 1_655 S
H975 C985 0.929 . S
H976 C980 0.929 1_655 S
H977 C986 0.929 . S
C978 H972 0.930 . S
C978 C979 1.367 . S
C978 C986 1.378 . S
C979 C978 1.367 . S
C979 C987 1.440 . S
C980 H976 0.929 1_455 S
C980 C982 1.378 . S
C980 C984 1.350 . S
C981 C984 1.463 . S
C981 C986 1.350 . S
C981 N989 1.464 . S
C982 H973 0.930 1_455 S
C982 C980 1.378 . S
C982 C983 1.367 . S
C983 C982 1.367 . S
C983 C985 1.433 . S
C984 C980 1.350 . S
C984 C981 1.463 . S
C984 N988 1.427 . S
C985 H975 0.929 . S
C985 C983 1.433 . S
C985 N988 1.384 . S
C986 H977 0.929 . S
C986 C978 1.378 . S
C986 C981 1.350 . S
C987 H974 0.923 1_455 S
C987 C979 1.440 . S
C987 N989 1.383 . S
N988 C984 1.427 . S
N988 C985 1.384 . S
N989 C981 1.464 . S
N989 C987 1.383 . S
H990 C996 0.930 . S
H991 C1000 0.930 . S
H992 C1005 0.930 . S
H993 C1003 0.929 . S
H994 C998 0.929 . S
H995 C1004 0.929 . S
C996 H990 0.930 . S
C996 C997 1.367 . S
C996 C1004 1.378 . S
C997 C996 1.367 . S
C997 C1005 1.433 1_545 S
C998 H994 0.929 . S
C998 C1000 1.378 . S
C998 C1002 1.350 . S
C999 C1002 1.463 . S
C999 C1004 1.350 . S
C999 N1007 1.427 . S
C1000 H991 0.930 . S
C1000 C998 1.378 . S
C1000 C1001 1.367 . S
C1001 C1000 1.367 . S
C1001 C1003 1.433 . S
C1002 C998 1.350 . S
C1002 C999 1.463 . S
C1002 N1006 1.427 . S
C1003 H993 0.929 . S
C1003 C1001 1.433 . S
C1003 N1006 1.384 . S
C1004 H995 0.929 . S
C1004 C996 1.378 . S
C1004 C999 1.350 . S
C1005 H992 0.930 . S
C1005 C997 1.433 1_565 S
C1005 N1007 1.383 1_565 S
N1006 C1002 1.427 . S
N1006 C1003 1.384 . S
N1007 C999 1.427 . S
N1007 C1005 1.383 1_545 S
H1008 C1014 0.930 1_655 S
H1009 C1018 0.930 . S
H1010 C1023 0.929 . S
H1011 C1021 0.929 1_655 S
H1012 C1016 0.929 . S
H1013 C1022 0.929 1_655 S
C1014 H1008 0.930 1_455 S
C1014 C1015 1.367 . S
C1014 C1022 1.378 . S
C1015 C1014 1.367 . S
C1015 C1023 1.433 . S
C1016 H1012 0.929 . S
C1016 C1018 1.378 . S
C1016 C1020 1.350 . S
C1017 C1020 1.463 . S
C1017 C1022 1.350 . S
C1017 N1025 1.427 . S
C1018 H1009 0.930 . S
C1018 C1016 1.378 . S
C1018 C1019 1.367 . S
C1019 C1018 1.367 . S
C1019 C1021 1.433 . S
C1020 C1016 1.350 . S
C1020 C1017 1.463 . S
C1020 N1024 1.427 . S
C1021 H1011 0.929 1_455 S
C1021 C1019 1.433 . S
C1021 N1024 1.384 . S
C1022 H1013 0.929 1_455 S
C1022 C1014 1.378 . S
C1022 C1017 1.350 . S
C1023 H1010 0.929 . S
C1023 C1015 1.433 . S
C1023 N1025 1.384 . S
N1024 C1020 1.427 . S
N1024 C1021 1.384 . S
N1025 C1017 1.427 . S
N1025 C1023 1.384 . S
H1026 C1032 0.930 . S
H1027 C1036 0.930 1_565 S
H1028 C1041 0.929 . S
H1029 C1039 0.929 . S
H1030 C1034 0.929 1_565 S
H1031 C1040 0.929 . S
C1032 H1026 0.930 . S
C1032 C1033 1.367 . S
C1032 C1040 1.378 . S
C1033 C1032 1.367 . S
C1033 C1041 1.433 . S
C1034 H1030 0.929 1_545 S
C1034 C1036 1.378 . S
C1034 C1038 1.350 . S
C1035 C1038 1.463 . S
C1035 C1040 1.350 . S
C1035 N1043 1.427 . S
C1036 H1027 0.930 1_545 S
C1036 C1034 1.378 . S
C1036 C1037 1.367 . S
C1037 C1036 1.367 . S
C1037 C1039 1.433 . S
C1038 C1034 1.350 . S
C1038 C1035 1.463 . S
C1038 N1042 1.427 . S
C1039 H1029 0.929 . S
C1039 C1037 1.433 . S
C1039 N1042 1.384 . S
C1040 H1031 0.929 . S
C1040 C1032 1.378 . S
C1040 C1035 1.350 . S
C1041 H1028 0.929 . S
C1041 C1033 1.433 . S
C1041 N1043 1.384 . S
N1042 C1038 1.427 . S
N1042 C1039 1.384 . S
N1043 C1035 1.427 . S
N1043 C1041 1.384 . S
H1044 C1050 0.930 . S
H1045 C1054 0.930 1_655 S
H1046 C1059 0.929 1_655 S
H1047 C1057 0.929 . S
H1048 C1052 0.929 1_655 S
H1049 C1058 0.929 . S
C1050 H1044 0.930 . S
C1050 C1051 1.367 . S
C1050 C1058 1.378 . S
C1051 C1050 1.367 . S
C1051 C1059 1.433 . S
C1052 H1048 0.929 1_455 S
C1052 C1054 1.378 . S
C1052 C1056 1.350 . S
C1053 C1056 1.463 . S
C1053 C1058 1.350 . S
C1053 N1061 1.427 . S
C1054 H1045 0.930 1_455 S
C1054 C1052 1.378 . S
C1054 C1055 1.367 . S
C1055 C1054 1.367 . S
C1055 C1057 1.433 . S
C1056 C1052 1.350 . S
C1056 C1053 1.463 . S
C1056 N1060 1.427 . S
C1057 H1047 0.929 . S
C1057 C1055 1.433 . S
C1057 N1060 1.384 . S
C1058 H1049 0.929 . S
C1058 C1050 1.378 . S
C1058 C1053 1.350 . S
C1059 H1046 0.929 1_455 S
C1059 C1051 1.433 . S
C1059 N1061 1.384 . S
N1060 C1056 1.427 . S
N1060 C1057 1.384 . S
N1061 C1053 1.427 . S
N1061 C1059 1.384 . S
H1062 C1068 0.930 . S
H1063 C1072 0.930 . S
H1064 C1077 0.929 . S
H1065 C1075 0.929 . S
H1066 C1070 0.929 . S
H1067 C1076 0.929 . S
C1068 H1062 0.930 . S
C1068 C1069 1.367 . S
C1068 C1076 1.378 . S
C1069 C1068 1.367 . S
C1069 C1077 1.433 1_545 S
C1070 H1066 0.929 . S
C1070 C1072 1.378 . S
C1070 C1074 1.350 1_565 S
C1071 C1074 1.463 . S
C1071 C1076 1.350 . S
C1071 N1079 1.427 1_545 S
C1072 H1063 0.930 . S
C1072 C1070 1.378 . S
C1072 C1073 1.367 1_565 S
C1073 C1072 1.367 1_545 S
C1073 C1075 1.433 . S
C1074 C1070 1.350 1_545 S
C1074 C1071 1.463 . S
C1074 N1078 1.427 . S
C1075 H1065 0.929 . S
C1075 C1073 1.433 . S
C1075 N1078 1.384 . S
C1076 H1067 0.929 . S
C1076 C1068 1.378 . S
C1076 C1071 1.350 . S
C1077 H1064 0.929 . S
C1077 C1069 1.433 1_565 S
C1077 N1079 1.384 . S
N1078 C1074 1.427 . S
N1078 C1075 1.384 . S
N1079 C1071 1.427 1_565 S
N1079 C1077 1.384 . S
H1080 C1086 0.930 . S
H1081 C1090 0.930 . S
H1082 C1095 0.929 . S
H1083 C1093 0.929 . S
H1084 C1088 0.929 . S
H1085 C1094 0.929 . S
C1086 H1080 0.930 . S
C1086 C1087 1.351 1_655 S
C1086 C1094 1.378 . S
C1087 C1086 1.351 1_455 S
C1087 C1095 1.452 . S
C1088 H1084 0.929 . S
C1088 C1090 1.378 . S
C1088 C1092 1.350 . S
C1089 C1092 1.463 . S
C1089 C1094 1.350 1_455 S
C1089 N1097 1.427 . S
C1090 H1081 0.930 . S
C1090 C1088 1.378 . S
C1090 C1091 1.367 . S
C1091 C1090 1.367 . S
C1091 C1093 1.433 1_455 S
C1092 C1088 1.350 . S
C1092 C1089 1.463 . S
C1092 N1096 1.427 1_455 S
C1093 H1083 0.929 . S
C1093 C1091 1.433 1_655 S
C1093 N1096 1.384 . S
C1094 H1085 0.929 . S
C1094 C1086 1.378 . S
C1094 C1089 1.350 1_655 S
C1095 H1082 0.929 . S
C1095 C1087 1.452 . S
C1095 N1097 1.384 . S
N1096 C1092 1.427 1_655 S
N1096 C1093 1.384 . S
N1097 C1089 1.427 . S
N1097 C1095 1.384 . S
H1098 C1104 0.930 . S
H1099 C1108 0.930 . S
H1100 C1113 0.929 . S
H1101 C1111 0.929 . S
H1102 C1106 0.929 . S
H1103 C1112 0.929 . S
C1104 H1098 0.930 . S
C1104 C1105 1.367 1_565 S
C1104 C1112 1.378 . S
C1105 C1104 1.367 1_545 S
C1105 C1113 1.433 . S
C1106 H1102 0.929 . S
C1106 C1108 1.378 . S
C1106 C1110 1.350 . S
C1107 C1110 1.463 . S
C1107 C1112 1.350 1_545 S
C1107 N1115 1.427 . S
C1108 H1099 0.930 . S
C1108 C1106 1.378 . S
C1108 C1109 1.367 . S
C1109 C1108 1.367 . S
C1109 C1111 1.433 1_545 S
C1110 C1106 1.350 . S
C1110 C1107 1.463 . S
C1110 N1114 1.427 1_545 S
C1111 H1101 0.929 . S
C1111 C1109 1.433 1_565 S
C1111 N1114 1.384 . S
C1112 H1103 0.929 . S
C1112 C1104 1.378 . S
C1112 C1107 1.350 1_565 S
C1113 H1100 0.929 . S
C1113 C1105 1.433 . S
C1113 N1115 1.384 . S
N1114 C1110 1.427 1_565 S
N1114 C1111 1.384 . S
N1115 C1107 1.427 . S
N1115 C1113 1.384 . S
H1116 C1122 0.930 . S
H1117 C1126 0.930 . S
H1118 C1131 0.929 . S
H1119 C1129 0.929 . S
H1120 C1124 0.929 . S
H1121 C1130 0.929 . S
C1122 H1116 0.930 . S
C1122 C1123 1.367 1_655 S
C1122 C1130 1.378 . S
C1123 C1122 1.367 1_455 S
C1123 C1131 1.433 . S
C1124 H1120 0.929 . S
C1124 C1126 1.378 . S
C1124 C1128 1.350 . S
C1125 C1128 1.463 . S
C1125 C1130 1.350 1_455 S
C1125 N1133 1.427 . S
C1126 H1117 0.930 . S
C1126 C1124 1.378 . S
C1126 C1127 1.367 . S
C1127 C1126 1.367 . S
C1127 C1129 1.433 1_455 S
C1128 C1124 1.350 . S
C1128 C1125 1.463 . S
C1128 N1132 1.427 1_455 S
C1129 H1119 0.929 . S
C1129 C1127 1.433 1_655 S
C1129 N1132 1.384 . S
C1130 H1121 0.929 . S
C1130 C1122 1.378 . S
C1130 C1125 1.350 1_655 S
C1131 H1118 0.929 . S
C1131 C1123 1.433 . S
C1131 N1133 1.384 . S
N1132 C1128 1.427 1_655 S
N1132 C1129 1.384 . S
N1133 C1125 1.427 . S
N1133 C1131 1.384 . S
H1134 C1140 0.930 . S
H1135 C1144 0.930 . S
H1136 C1149 0.929 . S
H1137 C1147 0.929 1_565 S
H1138 C1142 0.929 . S
H1139 C1148 0.929 . S
C1140 H1134 0.930 . S
C1140 C1141 1.367 . S
C1140 C1148 1.378 . S
C1141 C1140 1.367 . S
C1141 C1149 1.433 . S
C1142 H1138 0.929 . S
C1142 C1144 1.378 . S
C1142 C1146 1.350 . S
C1143 C1146 1.463 . S
C1143 C1148 1.350 . S
C1143 N1151 1.427 . S
C1144 H1135 0.930 . S
C1144 C1142 1.378 . S
C1144 C1145 1.367 . S
C1145 C1144 1.367 . S
C1145 C1147 1.433 . S
C1146 C1142 1.350 . S
C1146 C1143 1.463 . S
C1146 N1150 1.427 . S
C1147 H1137 0.929 1_545 S
C1147 C1145 1.433 . S
C1147 N1150 1.384 . S
C1148 H1139 0.929 . S
C1148 C1140 1.378 . S
C1148 C1143 1.350 . S
C1149 H1136 0.929 . S
C1149 C1141 1.433 . S
C1149 N1151 1.384 . S
N1150 C1146 1.427 . S
N1150 C1147 1.384 . S
N1151 C1143 1.427 . S
N1151 C1149 1.384 . S
H1152 C1158 0.930 . S
H1153 C1162 0.930 . S
H1154 C1167 0.929 . S
H1155 C1165 0.929 . S
H1156 C1160 0.929 . S
H1157 C1166 0.929 . S
C1158 H1152 0.930 . S
C1158 C1159 1.367 1_565 S
C1158 C1166 1.378 . S
C1159 C1158 1.367 1_545 S
C1159 C1167 1.433 . S
C1160 H1156 0.929 . S
C1160 C1162 1.378 . S
C1160 C1164 1.350 . S
C1161 C1164 1.463 . S
C1161 C1166 1.350 1_545 S
C1161 N1169 1.427 . S
C1162 H1153 0.930 . S
C1162 C1160 1.378 . S
C1162 C1163 1.367 . S
C1163 C1162 1.367 . S
C1163 C1165 1.433 1_545 S
C1164 C1160 1.350 . S
C1164 C1161 1.463 . S
C1164 N1168 1.427 1_545 S
C1165 H1155 0.929 . S
C1165 C1163 1.433 1_565 S
C1165 N1168 1.384 . S
C1166 H1157 0.929 . S
C1166 C1158 1.378 . S
C1166 C1161 1.350 1_565 S
C1167 H1154 0.929 . S
C1167 C1159 1.433 . S
C1167 N1169 1.384 . S
N1168 C1164 1.427 1_565 S
N1168 C1165 1.384 . S
N1169 C1161 1.427 . S
N1169 C1167 1.384 . S
H1170 C1176 0.930 . S
H1171 C1180 0.930 . S
H1172 C1185 0.929 . S
H1173 C1183 0.929 . S
H1174 C1178 0.929 . S
H1175 C1184 0.929 . S
C1176 H1170 0.930 . S
C1176 C1177 1.367 . S
C1176 C1184 1.378 . S
C1177 C1176 1.367 . S
C1177 C1185 1.433 . S
C1178 H1174 0.929 . S
C1178 C1180 1.378 . S
C1178 C1182 1.350 . S
C1179 C1182 1.463 . S
C1179 C1184 1.350 . S
C1179 N1187 1.427 . S
C1180 H1171 0.930 . S
C1180 C1178 1.378 . S
C1180 C1181 1.367 . S
C1181 C1180 1.367 . S
C1181 C1183 1.433 . S
C1182 C1178 1.350 . S
C1182 C1179 1.463 . S
C1182 N1186 1.427 . S
C1183 H1173 0.929 . S
C1183 C1181 1.433 . S
C1183 N1186 1.384 . S
C1184 H1175 0.929 . S
C1184 C1176 1.378 . S
C1184 C1179 1.350 . S
C1185 H1172 0.929 . S
C1185 C1177 1.433 . S
C1185 N1187 1.384 . S
N1186 C1182 1.427 . S
N1186 C1183 1.384 . S
N1187 C1179 1.427 . S
N1187 C1185 1.384 . S
H1188 C1194 0.930 . S
H1189 C1198 0.930 . S
H1190 C1203 0.929 . S
H1191 C1201 0.929 . S
H1192 C1196 0.929 . S
H1193 C1202 0.929 . S
C1194 H1188 0.930 . S
C1194 C1195 1.367 . S
C1194 C1202 1.378 . S
C1195 C1194 1.367 . S
C1195 C1203 1.433 . S
C1196 H1192 0.929 . S
C1196 C1198 1.378 . S
C1196 C1200 1.350 . S
C1197 C1200 1.463 . S
C1197 C1202 1.350 . S
C1197 N1205 1.427 . S
C1198 H1189 0.930 . S
C1198 C1196 1.378 . S
C1198 C1199 1.367 . S
C1199 C1198 1.367 . S
C1199 C1201 1.433 . S
C1200 C1196 1.350 . S
C1200 C1197 1.463 . S
C1200 N1204 1.427 . S
C1201 H1191 0.929 . S
C1201 C1199 1.433 . S
C1201 N1204 1.384 . S
C1202 H1193 0.929 . S
C1202 C1194 1.378 . S
C1202 C1197 1.350 . S
C1203 H1190 0.929 . S
C1203 C1195 1.433 . S
C1203 N1205 1.384 . S
N1204 C1200 1.427 . S
N1204 C1201 1.384 . S
N1205 C1197 1.427 . S
N1205 C1203 1.384 . S
H1206 C1212 0.930 . S
H1207 C1216 0.930 . S
H1208 C1221 0.942 . S
H1209 C1219 0.929 . S
H1210 C1214 0.929 . S
H1211 C1220 0.929 . S
C1212 H1206 0.930 . S
C1212 C1213 1.367 . S
C1212 C1220 1.378 . S
C1213 C1212 1.367 . S
C1213 C1221 1.419 1_455 S
C1214 H1210 0.929 . S
C1214 C1216 1.378 . S
C1214 C1218 1.350 1_655 S
C1215 C1218 1.463 . S
C1215 C1220 1.350 . S
C1215 N1223 1.427 1_455 S
C1216 H1207 0.930 . S
C1216 C1214 1.378 . S
C1216 C1217 1.367 1_655 S
C1217 C1216 1.367 1_455 S
C1217 C1219 1.433 . S
C1218 C1214 1.350 1_455 S
C1218 C1215 1.463 . S
C1218 N1222 1.427 . S
C1219 H1209 0.929 . S
C1219 C1217 1.433 . S
C1219 N1222 1.384 . S
C1220 H1211 0.929 . S
C1220 C1212 1.378 . S
C1220 C1215 1.350 . S
C1221 H1208 0.942 . S
C1221 C1213 1.419 1_655 S
C1221 N1223 1.385 . S
N1222 C1218 1.427 . S
N1222 C1219 1.384 . S
N1223 C1215 1.427 1_655 S
N1223 C1221 1.385 . S
H1224 C1230 0.930 . S
H1225 C1234 0.930 . S
H1226 C1239 0.929 . S
H1227 C1237 0.929 . S
H1228 C1232 0.929 . S
H1229 C1238 0.929 . S
C1230 H1224 0.930 . S
C1230 C1231 1.367 1_565 S
C1230 C1238 1.378 . S
C1231 C1230 1.367 1_545 S
C1231 C1239 1.433 . S
C1232 H1228 0.929 . S
C1232 C1234 1.378 . S
C1232 C1236 1.350 . S
C1233 C1236 1.463 . S
C1233 C1238 1.350 1_545 S
C1233 N1241 1.427 . S
C1234 H1225 0.930 . S
C1234 C1232 1.378 . S
C1234 C1235 1.367 . S
C1235 C1234 1.367 . S
C1235 C1237 1.433 1_545 S
C1236 C1232 1.350 . S
C1236 C1233 1.463 . S
C1236 N1240 1.427 1_545 S
C1237 H1227 0.929 . S
C1237 C1235 1.433 1_565 S
C1237 N1240 1.384 . S
C1238 H1229 0.929 . S
C1238 C1230 1.378 . S
C1238 C1233 1.350 1_565 S
C1239 H1226 0.929 . S
C1239 C1231 1.433 . S
C1239 N1241 1.384 . S
N1240 C1236 1.427 1_565 S
N1240 C1237 1.384 . S
N1241 C1233 1.427 . S
N1241 C1239 1.384 . S
H1242 C1248 0.914 1_655 S
H1243 C1252 0.930 . S
H1244 C1257 0.929 . S
H1245 C1255 0.929 . S
H1246 C1250 0.929 . S
H1247 C1256 0.929 . S
C1248 H1242 0.914 1_455 S
C1248 C1249 1.367 . S
C1248 C1256 1.378 . S
C1249 C1248 1.367 . S
C1249 C1257 1.433 . S
C1250 H1246 0.929 . S
C1250 C1252 1.378 . S
C1250 C1254 1.350 . S
C1251 C1254 1.463 . S
C1251 C1256 1.350 . S
C1251 N1259 1.427 . S
C1252 H1243 0.930 . S
C1252 C1250 1.378 . S
C1252 C1253 1.367 . S
C1253 C1252 1.367 . S
C1253 C1255 1.433 . S
C1254 C1250 1.350 . S
C1254 C1251 1.463 . S
C1254 N1258 1.427 . S
C1255 H1245 0.929 . S
C1255 C1253 1.433 . S
C1255 N1258 1.384 . S
C1256 H1247 0.929 . S
C1256 C1248 1.378 . S
C1256 C1251 1.350 . S
C1257 H1244 0.929 . S
C1257 C1249 1.433 . S
C1257 N1259 1.384 . S
N1258 C1254 1.427 . S
N1258 C1255 1.384 . S
N1259 C1251 1.427 . S
N1259 C1257 1.384 . S
H1260 C1266 0.930 . S
H1261 C1270 0.930 . S
H1262 C1275 0.929 . S
H1263 C1273 0.929 . S
H1264 C1268 0.929 . S
H1265 C1274 0.929 . S
C1266 H1260 0.930 . S
C1266 C1267 1.367 . S
C1266 C1274 1.378 . S
C1267 C1266 1.367 . S
C1267 C1275 1.433 . S
C1268 H1264 0.929 . S
C1268 C1270 1.378 . S
C1268 C1272 1.350 . S
C1269 C1272 1.463 . S
C1269 C1274 1.350 . S
C1269 N1277 1.427 . S
C1270 H1261 0.930 . S
C1270 C1268 1.378 . S
C1270 C1271 1.367 . S
C1271 C1270 1.367 . S
C1271 C1273 1.433 . S
C1272 C1268 1.350 . S
C1272 C1269 1.463 . S
C1272 N1276 1.427 . S
C1273 H1263 0.929 . S
C1273 C1271 1.433 . S
C1273 N1276 1.384 . S
C1274 H1265 0.929 . S
C1274 C1266 1.378 . S
C1274 C1269 1.350 . S
C1275 H1262 0.929 . S
C1275 C1267 1.433 . S
C1275 N1277 1.384 . S
N1276 C1272 1.427 . S
N1276 C1273 1.384 . S
N1277 C1269 1.427 . S
N1277 C1275 1.384 . S
H1278 C1284 0.930 . S
H1279 C1288 0.930 1_655 S
H1280 C1293 0.929 . S
H1281 C1291 0.929 . S
H1282 C1286 0.929 1_655 S
H1283 C1292 0.929 . S
C1284 H1278 0.930 . S
C1284 C1285 1.367 . S
C1284 C1292 1.378 . S
C1285 C1284 1.367 . S
C1285 C1293 1.433 1_455 S
C1286 H1282 0.929 1_455 S
C1286 C1288 1.378 . S
C1286 C1290 1.350 . S
C1287 C1290 1.463 . S
C1287 C1292 1.350 . S
C1287 N1295 1.427 1_455 S
C1288 H1279 0.930 1_455 S
C1288 C1286 1.378 . S
C1288 C1289 1.367 . S
C1289 C1288 1.367 . S
C1289 C1291 1.433 . S
C1290 C1286 1.350 . S
C1290 C1287 1.463 . S
C1290 N1294 1.427 . S
C1291 H1281 0.929 . S
C1291 C1289 1.433 . S
C1291 N1294 1.384 . S
C1292 H1283 0.929 . S
C1292 C1284 1.378 . S
C1292 C1287 1.350 . S
C1293 H1280 0.929 . S
C1293 C1285 1.433 1_655 S
C1293 N1295 1.384 . S
N1294 C1290 1.427 . S
N1294 C1291 1.384 . S
N1295 C1287 1.427 1_655 S
N1295 C1293 1.384 . S
H1296 C1302 0.930 . S
H1297 C1306 0.930 . S
H1298 C1311 0.929 . S
H1299 C1309 0.929 . S
H1300 C1304 0.929 . S
H1301 C1310 0.929 . S
C1302 H1296 0.930 . S
C1302 C1303 1.367 1_556 S
C1302 C1310 1.378 . S
C1303 C1302 1.367 1_554 S
C1303 C1311 1.433 . S
C1304 H1300 0.929 . S
C1304 C1306 1.378 . S
C1304 C1308 1.350 . S
C1305 C1308 1.463 . S
C1305 C1310 1.350 1_554 S
C1305 N1313 1.427 . S
C1306 H1297 0.930 . S
C1306 C1304 1.378 . S
C1306 C1307 1.367 . S
C1307 C1306 1.367 . S
C1307 C1309 1.433 1_554 S
C1308 C1304 1.350 . S
C1308 C1305 1.463 . S
C1308 N1312 1.427 1_554 S
C1309 H1299 0.929 . S
C1309 C1307 1.433 1_556 S
C1309 N1312 1.384 . S
C1310 H1301 0.929 . S
C1310 C1302 1.378 . S
C1310 C1305 1.350 1_556 S
C1311 H1298 0.929 . S
C1311 C1303 1.433 . S
C1311 N1313 1.384 . S
N1312 C1308 1.427 1_556 S
N1312 C1309 1.384 . S
N1313 C1305 1.427 . S
N1313 C1311 1.384 . S
H1314 C1320 0.930 . S
H1315 C1324 0.930 . S
H1316 C1329 0.929 . S
H1317 C1327 0.929 . S
H1318 C1322 0.929 . S
H1319 C1328 0.929 . S
C1320 H1314 0.930 . S
C1320 C1321 1.367 1_556 S
C1320 C1328 1.378 . S
C1321 C1320 1.367 1_554 S
C1321 C1329 1.433 . S
C1322 H1318 0.929 . S
C1322 C1324 1.378 . S
C1322 C1326 1.350 . S
C1323 C1326 1.463 . S
C1323 C1328 1.350 1_554 S
C1323 N1331 1.427 . S
C1324 H1315 0.930 . S
C1324 C1322 1.378 . S
C1324 C1325 1.367 . S
C1325 C1324 1.367 . S
C1325 C1327 1.433 1_554 S
C1326 C1322 1.350 . S
C1326 C1323 1.463 . S
C1326 N1330 1.427 1_554 S
C1327 H1317 0.929 . S
C1327 C1325 1.433 1_556 S
C1327 N1330 1.384 . S
C1328 H1319 0.929 . S
C1328 C1320 1.378 . S
C1328 C1323 1.350 1_556 S
C1329 H1316 0.929 . S
C1329 C1321 1.433 . S
C1329 N1331 1.384 . S
N1330 C1326 1.427 1_556 S
N1330 C1327 1.384 . S
N1331 C1323 1.427 . S
N1331 C1329 1.384 . S
H1332 C1338 0.930 . S
H1333 C1342 0.930 . S
H1334 C1347 0.929 . S
H1335 C1345 0.929 . S
H1336 C1340 0.929 . S
H1337 C1346 0.929 . S
C1338 H1332 0.930 . S
C1338 C1339 1.367 . S
C1338 C1346 1.378 . S
C1339 C1338 1.367 . S
C1339 C1347 1.433 1_554 S
C1340 H1336 0.929 . S
C1340 C1342 1.378 . S
C1340 C1344 1.350 1_556 S
C1341 C1344 1.463 . S
C1341 C1346 1.350 . S
C1341 N1349 1.427 1_554 S
C1342 H1333 0.930 . S
C1342 C1340 1.378 . S
C1342 C1343 1.367 1_556 S
C1343 C1342 1.367 1_554 S
C1343 C1345 1.433 . S
C1344 C1340 1.350 1_554 S
C1344 C1341 1.463 . S
C1344 N1348 1.427 . S
C1345 H1335 0.929 . S
C1345 C1343 1.433 . S
C1345 N1348 1.384 . S
C1346 H1337 0.929 . S
C1346 C1338 1.378 . S
C1346 C1341 1.350 . S
C1347 H1334 0.929 . S
C1347 C1339 1.433 1_556 S
C1347 N1349 1.384 . S
N1348 C1344 1.427 . S
N1348 C1345 1.384 . S
N1349 C1341 1.427 1_556 S
N1349 C1347 1.384 . S
H1350 C1356 0.930 . S
H1351 C1360 0.930 . S
H1352 C1365 0.929 . S
H1353 C1363 0.929 . S
H1354 C1358 0.929 . S
H1355 C1364 0.929 . S
C1356 H1350 0.930 . S
C1356 C1357 1.367 . S
C1356 C1364 1.378 . S
C1357 C1356 1.367 . S
C1357 C1365 1.433 1_554 S
C1358 H1354 0.929 . S
C1358 C1360 1.378 . S
C1358 C1362 1.350 1_556 S
C1359 C1362 1.463 . S
C1359 C1364 1.350 . S
C1359 N1367 1.427 1_554 S
C1360 H1351 0.930 . S
C1360 C1358 1.378 . S
C1360 C1361 1.355 1_556 S
C1361 C1360 1.355 1_554 S
C1361 C1363 1.446 . S
C1362 C1358 1.350 1_554 S
C1362 C1359 1.463 . S
C1362 N1366 1.427 . S
C1363 H1353 0.929 . S
C1363 C1361 1.446 . S
C1363 N1366 1.384 . S
C1364 H1355 0.929 . S
C1364 C1356 1.378 . S
C1364 C1359 1.350 . S
C1365 H1352 0.929 . S
C1365 C1357 1.433 1_556 S
C1365 N1367 1.384 . S
N1366 C1362 1.427 . S
N1366 C1363 1.384 . S
N1367 C1359 1.427 1_556 S
N1367 C1365 1.384 . S
H1368 C1374 0.930 . S
H1369 C1378 0.930 . S
H1370 C1383 0.929 . S
H1371 C1381 0.929 . S
H1372 C1376 0.929 . S
H1373 C1382 0.929 . S
C1374 H1368 0.930 . S
C1374 C1375 1.367 1_556 S
C1374 C1382 1.378 . S
C1375 C1374 1.367 1_554 S
C1375 C1383 1.433 . S
C1376 H1372 0.929 . S
C1376 C1378 1.378 . S
C1376 C1380 1.350 . S
C1377 C1380 1.463 . S
C1377 C1382 1.350 1_554 S
C1377 N1385 1.427 . S
C1378 H1369 0.930 . S
C1378 C1376 1.378 . S
C1378 C1379 1.367 . S
C1379 C1378 1.367 . S
C1379 C1381 1.433 1_554 S
C1380 C1376 1.350 . S
C1380 C1377 1.463 . S
C1380 N1384 1.427 1_554 S
C1381 H1371 0.929 . S
C1381 C1379 1.433 1_556 S
C1381 N1384 1.384 . S
C1382 H1373 0.929 . S
C1382 C1374 1.378 . S
C1382 C1377 1.350 1_556 S
C1383 H1370 0.929 . S
C1383 C1375 1.433 . S
C1383 N1385 1.384 . S
N1384 C1380 1.427 1_556 S
N1384 C1381 1.384 . S
N1385 C1377 1.427 . S
N1385 C1383 1.384 . S
H1386 C1392 0.930 . S
H1387 C1396 0.930 . S
H1388 C1401 0.929 . S
H1389 C1399 0.929 . S
H1390 C1394 0.929 . S
H1391 C1400 0.929 . S
C1392 H1386 0.930 . S
C1392 C1393 1.367 . S
C1392 C1400 1.378 . S
C1393 C1392 1.367 . S
C1393 C1401 1.433 1_554 S
C1394 H1390 0.929 . S
C1394 C1396 1.378 . S
C1394 C1398 1.350 1_556 S
C1395 C1398 1.463 . S
C1395 C1400 1.350 . S
C1395 N1403 1.427 1_554 S
C1396 H1387 0.930 . S
C1396 C1394 1.378 . S
C1396 C1397 1.367 1_556 S
C1397 C1396 1.367 1_554 S
C1397 C1399 1.433 . S
C1398 C1394 1.350 1_554 S
C1398 C1395 1.463 . S
C1398 N1402 1.427 . S
C1399 H1389 0.929 . S
C1399 C1397 1.433 . S
C1399 N1402 1.384 . S
C1400 H1391 0.929 . S
C1400 C1392 1.378 . S
C1400 C1395 1.350 . S
C1401 H1388 0.929 . S
C1401 C1393 1.433 1_556 S
C1401 N1403 1.384 . S
N1402 C1398 1.427 . S
N1402 C1399 1.384 . S
N1403 C1395 1.427 1_556 S
N1403 C1401 1.384 . S
H1404 C1410 0.930 . S
H1405 C1414 0.930 . S
H1406 C1419 0.929 . S
H1407 C1417 0.929 . S
H1408 C1412 0.929 . S
H1409 C1418 0.929 . S
C1410 H1404 0.930 . S
C1410 C1411 1.367 . S
C1410 C1418 1.378 . S
C1411 C1410 1.367 . S
C1411 C1419 1.433 1_554 S
C1412 H1408 0.929 . S
C1412 C1414 1.378 . S
C1412 C1416 1.350 1_556 S
C1413 C1416 1.463 . S
C1413 C1418 1.350 . S
C1413 N1421 1.427 1_554 S
C1414 H1405 0.930 . S
C1414 C1412 1.378 . S
C1414 C1415 1.367 1_556 S
C1415 C1414 1.367 1_554 S
C1415 C1417 1.433 . S
C1416 C1412 1.350 1_554 S
C1416 C1413 1.463 . S
C1416 N1420 1.427 . S
C1417 H1407 0.929 . S
C1417 C1415 1.433 . S
C1417 N1420 1.384 . S
C1418 H1409 0.929 . S
C1418 C1410 1.378 . S
C1418 C1413 1.350 . S
C1419 H1406 0.929 . S
C1419 C1411 1.433 1_556 S
C1419 N1421 1.384 . S
N1420 C1416 1.427 . S
N1420 C1417 1.384 . S
N1421 C1413 1.427 1_556 S
N1421 C1419 1.384 . S
H1422 C1428 0.930 . S
H1423 C1432 0.930 . S
H1424 C1437 0.929 . S
H1425 C1435 0.929 . S
H1426 C1430 0.929 . S
H1427 C1436 0.929 . S
C1428 H1422 0.930 . S
C1428 C1429 1.367 1_556 S
C1428 C1436 1.378 . S
C1429 C1428 1.367 1_554 S
C1429 C1437 1.433 . S
C1430 H1426 0.929 . S
C1430 C1432 1.378 . S
C1430 C1434 1.350 . S
C1431 C1434 1.463 . S
C1431 C1436 1.350 1_554 S
C1431 N1439 1.427 . S
C1432 H1423 0.930 . S
C1432 C1430 1.378 . S
C1432 C1433 1.367 . S
C1433 C1432 1.367 . S
C1433 C1435 1.433 1_554 S
C1434 C1430 1.350 . S
C1434 C1431 1.463 . S
C1434 N1438 1.427 1_554 S
C1435 H1425 0.929 . S
C1435 C1433 1.433 1_556 S
C1435 N1438 1.384 . S
C1436 H1427 0.929 . S
C1436 C1428 1.378 . S
C1436 C1431 1.350 1_556 S
C1437 H1424 0.929 . S
C1437 C1429 1.433 . S
C1437 N1439 1.384 . S
N1438 C1434 1.427 1_556 S
N1438 C1435 1.384 . S
N1439 C1431 1.427 . S
N1439 C1437 1.384 . S
H1440 C1446 0.930 . S
H1441 C1450 0.930 . S
H1442 C1455 0.929 . S
H1443 C1453 0.929 . S
H1444 C1448 0.929 . S
H1445 C1454 0.929 . S
C1446 H1440 0.930 . S
C1446 C1447 1.367 . S
C1446 C1454 1.378 . S
C1447 C1446 1.367 . S
C1447 C1455 1.433 . S
C1448 H1444 0.929 . S
C1448 C1450 1.378 . S
C1448 C1452 1.350 . S
C1449 C1452 1.463 . S
C1449 C1454 1.350 . S
C1449 N1457 1.427 . S
C1450 H1441 0.930 . S
C1450 C1448 1.378 . S
C1450 C1451 1.367 . S
C1451 C1450 1.367 . S
C1451 C1453 1.433 . S
C1452 C1448 1.350 . S
C1452 C1449 1.463 . S
C1452 N1456 1.427 . S
C1453 H1443 0.929 . S
C1453 C1451 1.433 . S
C1453 N1456 1.384 . S
C1454 H1445 0.929 . S
C1454 C1446 1.378 . S
C1454 C1449 1.350 . S
C1455 H1442 0.929 . S
C1455 C1447 1.433 . S
C1455 N1457 1.384 . S
N1456 C1452 1.427 . S
N1456 C1453 1.384 . S
N1457 C1449 1.427 . S
N1457 C1455 1.384 . S
H1458 C1464 0.930 . S
H1459 C1468 0.930 . S
H1460 C1473 0.929 . S
H1461 C1471 0.929 . S
H1462 C1466 0.929 . S
H1463 C1472 0.929 . S
C1464 H1458 0.930 . S
C1464 C1465 1.367 . S
C1464 C1472 1.378 . S
C1465 C1464 1.367 . S
C1465 C1473 1.433 . S
C1466 H1462 0.929 . S
C1466 C1468 1.378 . S
C1466 C1470 1.350 . S
C1467 C1470 1.463 . S
C1467 C1472 1.350 . S
C1467 N1475 1.427 . S
C1468 H1459 0.930 . S
C1468 C1466 1.378 . S
C1468 C1469 1.367 . S
C1469 C1468 1.367 . S
C1469 C1471 1.433 . S
C1470 C1466 1.350 . S
C1470 C1467 1.463 . S
C1470 N1474 1.427 . S
C1471 H1461 0.929 . S
C1471 C1469 1.433 . S
C1471 N1474 1.384 . S
C1472 H1463 0.929 . S
C1472 C1464 1.378 . S
C1472 C1467 1.350 . S
C1473 H1460 0.929 . S
C1473 C1465 1.433 . S
C1473 N1475 1.384 . S
N1474 C1470 1.427 . S
N1474 C1471 1.384 . S
N1475 C1467 1.427 . S
N1475 C1473 1.384 . S
H1476 C1482 0.930 . S
H1477 C1486 0.930 . S
H1478 C1491 0.929 . S
H1479 C1489 0.929 . S
H1480 C1484 0.929 . S
H1481 C1490 0.929 . S
C1482 H1476 0.930 . S
C1482 C1483 1.367 . S
C1482 C1490 1.378 . S
C1483 C1482 1.367 . S
C1483 C1491 1.433 . S
C1484 H1480 0.929 . S
C1484 C1486 1.378 . S
C1484 C1488 1.350 . S
C1485 C1488 1.463 . S
C1485 C1490 1.350 . S
C1485 N1493 1.427 . S
C1486 H1477 0.930 . S
C1486 C1484 1.378 . S
C1486 C1487 1.367 . S
C1487 C1486 1.367 . S
C1487 C1489 1.433 . S
C1488 C1484 1.350 . S
C1488 C1485 1.463 . S
C1488 N1492 1.427 . S
C1489 H1479 0.929 . S
C1489 C1487 1.433 . S
C1489 N1492 1.384 . S
C1490 H1481 0.929 . S
C1490 C1482 1.378 . S
C1490 C1485 1.350 . S
C1491 H1478 0.929 . S
C1491 C1483 1.433 . S
C1491 N1493 1.384 . S
N1492 C1488 1.427 . S
N1492 C1489 1.384 . S
N1493 C1485 1.427 . S
N1493 C1491 1.384 . S
H1494 C1500 0.930 . S
H1495 C1504 0.930 . S
H1496 C1509 0.929 . S
H1497 C1507 0.929 . S
H1498 C1502 0.929 . S
H1499 C1508 0.929 . S
C1500 H1494 0.930 . S
C1500 C1501 1.367 . S
C1500 C1508 1.378 . S
C1501 C1500 1.367 . S
C1501 C1509 1.433 . S
C1502 H1498 0.929 . S
C1502 C1504 1.378 . S
C1502 C1506 1.350 . S
C1503 C1506 1.463 . S
C1503 C1508 1.350 . S
C1503 N1511 1.427 . S
C1504 H1495 0.930 . S
C1504 C1502 1.378 . S
C1504 C1505 1.367 . S
C1505 C1504 1.367 . S
C1505 C1507 1.433 . S
C1506 C1502 1.350 . S
C1506 C1503 1.463 . S
C1506 N1510 1.427 . S
C1507 H1497 0.929 . S
C1507 C1505 1.433 . S
C1507 N1510 1.384 . S
C1508 H1499 0.929 . S
C1508 C1500 1.378 . S
C1508 C1503 1.350 . S
C1509 H1496 0.929 . S
C1509 C1501 1.433 . S
C1509 N1511 1.384 . S
N1510 C1506 1.427 . S
N1510 C1507 1.384 . S
N1511 C1503 1.427 . S
N1511 C1509 1.384 . S
H1512 C1518 0.930 . S
H1513 C1522 0.930 . S
H1514 C1527 0.929 . S
H1515 C1525 0.929 . S
H1516 C1520 0.929 . S
H1517 C1526 0.929 . S
C1518 H1512 0.930 . S
C1518 C1519 1.367 . S
C1518 C1526 1.378 . S
C1519 C1518 1.367 . S
C1519 C1527 1.433 . S
C1520 H1516 0.929 . S
C1520 C1522 1.378 . S
C1520 C1524 1.350 . S
C1521 C1524 1.463 . S
C1521 C1526 1.350 . S
C1521 N1529 1.427 . S
C1522 H1513 0.930 . S
C1522 C1520 1.378 . S
C1522 C1523 1.367 . S
C1523 C1522 1.367 . S
C1523 C1525 1.433 . S
C1524 C1520 1.350 . S
C1524 C1521 1.463 . S
C1524 N1528 1.427 . S
C1525 H1515 0.929 . S
C1525 C1523 1.433 . S
C1525 N1528 1.384 . S
C1526 H1517 0.929 . S
C1526 C1518 1.378 . S
C1526 C1521 1.350 . S
C1527 H1514 0.929 . S
C1527 C1519 1.433 . S
C1527 N1529 1.384 . S
N1528 C1524 1.427 . S
N1528 C1525 1.384 . S
N1529 C1521 1.427 . S
N1529 C1527 1.384 . S
H1530 C1536 0.930 . S
H1531 C1540 0.930 . S
H1532 C1545 0.929 . S
H1533 C1543 0.929 . S
H1534 C1538 0.929 . S
H1535 C1544 0.929 . S
C1536 H1530 0.930 . S
C1536 C1537 1.367 . S
C1536 C1544 1.378 . S
C1537 C1536 1.367 . S
C1537 C1545 1.433 . S
C1538 H1534 0.929 . S
C1538 C1540 1.378 . S
C1538 C1542 1.350 . S
C1539 C1542 1.463 . S
C1539 C1544 1.350 . S
C1539 N1547 1.427 . S
C1540 H1531 0.930 . S
C1540 C1538 1.378 . S
C1540 C1541 1.367 . S
C1541 C1540 1.367 . S
C1541 C1543 1.433 . S
C1542 C1538 1.350 . S
C1542 C1539 1.463 . S
C1542 N1546 1.427 . S
C1543 H1533 0.929 . S
C1543 C1541 1.433 . S
C1543 N1546 1.384 . S
C1544 H1535 0.929 . S
C1544 C1536 1.378 . S
C1544 C1539 1.350 . S
C1545 H1532 0.929 . S
C1545 C1537 1.433 . S
C1545 N1547 1.384 . S
N1546 C1542 1.427 . S
N1546 C1543 1.384 . S
N1547 C1539 1.427 . S
N1547 C1545 1.384 . S
H1548 C1554 0.930 . S
H1549 C1558 0.930 . S
H1550 C1563 0.929 . S
H1551 C1561 0.929 . S
H1552 C1556 0.929 . S
H1553 C1562 0.929 . S
C1554 H1548 0.930 . S
C1554 C1555 1.367 . S
C1554 C1562 1.378 . S
C1555 C1554 1.367 . S
C1555 C1563 1.433 . S
C1556 H1552 0.929 . S
C1556 C1558 1.378 . S
C1556 C1560 1.350 . S
C1557 C1560 1.463 . S
C1557 C1562 1.350 . S
C1557 N1565 1.427 . S
C1558 H1549 0.930 . S
C1558 C1556 1.378 . S
C1558 C1559 1.367 . S
C1559 C1558 1.367 . S
C1559 C1561 1.433 . S
C1560 C1556 1.350 . S
C1560 C1557 1.463 . S
C1560 N1564 1.427 . S
C1561 H1551 0.929 . S
C1561 C1559 1.433 . S
C1561 N1564 1.384 . S
C1562 H1553 0.929 . S
C1562 C1554 1.378 . S
C1562 C1557 1.350 . S
C1563 H1550 0.929 . S
C1563 C1555 1.433 . S
C1563 N1565 1.384 . S
N1564 C1560 1.427 . S
N1564 C1561 1.384 . S
N1565 C1557 1.427 . S
N1565 C1563 1.384 . S
H1566 C1572 0.930 . S
H1567 C1576 0.930 . S
H1568 C1581 0.929 . S
H1569 C1579 0.929 . S
H1570 C1574 0.929 . S
H1571 C1580 0.929 . S
C1572 H1566 0.930 . S
C1572 C1573 1.367 . S
C1572 C1580 1.378 . S
C1573 C1572 1.367 . S
C1573 C1581 1.433 . S
C1574 H1570 0.929 . S
C1574 C1576 1.378 . S
C1574 C1578 1.350 . S
C1575 C1578 1.463 . S
C1575 C1580 1.350 . S
C1575 N1583 1.427 . S
C1576 H1567 0.930 . S
C1576 C1574 1.378 . S
C1576 C1577 1.367 . S
C1577 C1576 1.367 . S
C1577 C1579 1.433 . S
C1578 C1574 1.350 . S
C1578 C1575 1.463 . S
C1578 N1582 1.427 . S
C1579 H1569 0.929 . S
C1579 C1577 1.433 . S
C1579 N1582 1.384 . S
C1580 H1571 0.929 . S
C1580 C1572 1.378 . S
C1580 C1575 1.350 . S
C1581 H1568 0.929 . S
C1581 C1573 1.433 . S
C1581 N1583 1.384 . S
N1582 C1578 1.427 . S
N1582 C1579 1.384 . S
N1583 C1575 1.427 . S
N1583 C1581 1.384 . S
H1584 C1590 0.930 . S
H1585 C1594 0.930 . S
H1586 C1599 0.929 . S
H1587 C1597 0.929 . S
H1588 C1592 0.929 . S
H1589 C1598 0.929 . S
C1590 H1584 0.930 . S
C1590 C1591 1.367 . S
C1590 C1598 1.378 . S
C1591 C1590 1.367 . S
C1591 C1599 1.433 . S
C1592 H1588 0.929 . S
C1592 C1594 1.378 . S
C1592 C1596 1.350 . S
C1593 C1596 1.463 . S
C1593 C1598 1.350 . S
C1593 N1601 1.427 . S
C1594 H1585 0.930 . S
C1594 C1592 1.378 . S
C1594 C1595 1.367 . S
C1595 C1594 1.367 . S
C1595 C1597 1.433 . S
C1596 C1592 1.350 . S
C1596 C1593 1.463 . S
C1596 N1600 1.427 . S
C1597 H1587 0.929 . S
C1597 C1595 1.433 . S
C1597 N1600 1.384 . S
C1598 H1589 0.929 . S
C1598 C1590 1.378 . S
C1598 C1593 1.350 . S
C1599 H1586 0.929 . S
C1599 C1591 1.433 . S
C1599 N1601 1.384 . S
N1600 C1596 1.427 . S
N1600 C1597 1.384 . S
N1601 C1593 1.427 . S
N1601 C1599 1.384 . S
H1602 C1608 0.930 . S
H1603 C1612 0.930 . S
H1604 C1617 0.929 . S
H1605 C1615 0.929 . S
H1606 C1610 0.929 . S
H1607 C1616 0.929 . S
C1608 H1602 0.930 . S
C1608 C1609 1.367 . S
C1608 C1616 1.378 . S
C1609 C1608 1.367 . S
C1609 C1617 1.433 . S
C1610 H1606 0.929 . S
C1610 C1612 1.378 . S
C1610 C1614 1.350 . S
C1611 C1614 1.463 . S
C1611 C1616 1.350 . S
C1611 N1619 1.427 . S
C1612 H1603 0.930 . S
C1612 C1610 1.378 . S
C1612 C1613 1.367 . S
C1613 C1612 1.367 . S
C1613 C1615 1.433 . S
C1614 C1610 1.350 . S
C1614 C1611 1.463 . S
C1614 N1618 1.427 . S
C1615 H1605 0.929 . S
C1615 C1613 1.433 . S
C1615 N1618 1.384 . S
C1616 H1607 0.929 . S
C1616 C1608 1.378 . S
C1616 C1611 1.350 . S
C1617 H1604 0.929 . S
C1617 C1609 1.433 . S
C1617 N1619 1.384 . S
N1618 C1614 1.427 . S
N1618 C1615 1.384 . S
N1619 C1611 1.427 . S
N1619 C1617 1.384 . S
H1620 C1626 0.930 . S
H1621 C1630 0.930 . S
H1622 C1635 0.929 . S
H1623 C1633 0.929 . S
H1624 C1628 0.929 . S
H1625 C1634 0.929 . S
C1626 H1620 0.930 . S
C1626 C1627 1.367 . S
C1626 C1634 1.378 . S
C1627 C1626 1.367 . S
C1627 C1635 1.433 . S
C1628 H1624 0.929 . S
C1628 C1630 1.378 . S
C1628 C1632 1.350 . S
C1629 C1632 1.463 . S
C1629 C1634 1.350 . S
C1629 N1637 1.427 . S
C1630 H1621 0.930 . S
C1630 C1628 1.378 . S
C1630 C1631 1.367 . S
C1631 C1630 1.367 . S
C1631 C1633 1.433 . S
C1632 C1628 1.350 . S
C1632 C1629 1.463 . S
C1632 N1636 1.427 . S
C1633 H1623 0.929 . S
C1633 C1631 1.433 . S
C1633 N1636 1.384 . S
C1634 H1625 0.929 . S
C1634 C1626 1.378 . S
C1634 C1629 1.350 . S
C1635 H1622 0.929 . S
C1635 C1627 1.433 . S
C1635 N1637 1.384 . S
N1636 C1632 1.427 . S
N1636 C1633 1.384 . S
N1637 C1629 1.427 . S
N1637 C1635 1.384 . S
H1638 C1644 0.930 . S
H1639 C1648 0.930 . S
H1640 C1653 0.929 . S
H1641 C1651 0.929 . S
H1642 C1646 0.929 . S
H1643 C1652 0.929 . S
C1644 H1638 0.930 . S
C1644 C1645 1.367 . S
C1644 C1652 1.378 . S
C1645 C1644 1.367 . S
C1645 C1653 1.433 . S
C1646 H1642 0.929 . S
C1646 C1648 1.378 . S
C1646 C1650 1.350 . S
C1647 C1650 1.463 . S
C1647 C1652 1.350 . S
C1647 N1655 1.427 . S
C1648 H1639 0.930 . S
C1648 C1646 1.378 . S
C1648 C1649 1.367 . S
C1649 C1648 1.367 . S
C1649 C1651 1.433 . S
C1650 C1646 1.350 . S
C1650 C1647 1.463 . S
C1650 N1654 1.427 . S
C1651 H1641 0.929 . S
C1651 C1649 1.433 . S
C1651 N1654 1.384 . S
C1652 H1643 0.929 . S
C1652 C1644 1.378 . S
C1652 C1647 1.350 . S
C1653 H1640 0.929 . S
C1653 C1645 1.433 . S
C1653 N1655 1.384 . S
N1654 C1650 1.427 . S
N1654 C1651 1.384 . S
N1655 C1647 1.427 . S
N1655 C1653 1.384 . S
H1656 C1662 0.930 . S
H1657 C1666 0.930 . S
H1658 C1671 0.929 . S
H1659 C1669 0.929 . S
H1660 C1664 0.929 . S
H1661 C1670 0.929 . S
C1662 H1656 0.930 . S
C1662 C1663 1.367 . S
C1662 C1670 1.378 . S
C1663 C1662 1.367 . S
C1663 C1671 1.433 . S
C1664 H1660 0.929 . S
C1664 C1666 1.378 . S
C1664 C1668 1.350 . S
C1665 C1668 1.463 . S
C1665 C1670 1.350 . S
C1665 N1673 1.427 . S
C1666 H1657 0.930 . S
C1666 C1664 1.378 . S
C1666 C1667 1.367 . S
C1667 C1666 1.367 . S
C1667 C1669 1.433 . S
C1668 C1664 1.350 . S
C1668 C1665 1.463 . S
C1668 N1672 1.427 . S
C1669 H1659 0.929 . S
C1669 C1667 1.433 . S
C1669 N1672 1.384 . S
C1670 H1661 0.929 . S
C1670 C1662 1.378 . S
C1670 C1665 1.350 . S
C1671 H1658 0.929 . S
C1671 C1663 1.433 . S
C1671 N1673 1.384 . S
N1672 C1668 1.427 . S
N1672 C1669 1.384 . S
N1673 C1665 1.427 . S
N1673 C1671 1.384 . S
H1674 C1680 0.930 . S
H1675 C1684 0.930 . S
H1676 C1689 0.929 . S
H1677 C1687 0.929 . S
H1678 C1682 0.929 . S
H1679 C1688 0.929 . S
C1680 H1674 0.930 . S
C1680 C1681 1.367 . S
C1680 C1688 1.378 . S
C1681 C1680 1.367 . S
C1681 C1689 1.433 . S
C1682 H1678 0.929 . S
C1682 C1684 1.378 . S
C1682 C1686 1.350 . S
C1683 C1686 1.463 . S
C1683 C1688 1.350 . S
C1683 N1691 1.427 . S
C1684 H1675 0.930 . S
C1684 C1682 1.378 . S
C1684 C1685 1.367 . S
C1685 C1684 1.367 . S
C1685 C1687 1.433 . S
C1686 C1682 1.350 . S
C1686 C1683 1.463 . S
C1686 N1690 1.427 . S
C1687 H1677 0.929 . S
C1687 C1685 1.433 . S
C1687 N1690 1.384 . S
C1688 H1679 0.929 . S
C1688 C1680 1.378 . S
C1688 C1683 1.350 . S
C1689 H1676 0.929 . S
C1689 C1681 1.433 . S
C1689 N1691 1.384 . S
N1690 C1686 1.427 . S
N1690 C1687 1.384 . S
N1691 C1683 1.427 . S
N1691 C1689 1.384 . S
H1692 C1698 0.930 . S
H1693 C1702 0.930 . S
H1694 C1707 0.929 . S
H1695 C1705 0.929 . S
H1696 C1700 0.929 . S
H1697 C1706 0.929 . S
C1698 H1692 0.930 . S
C1698 C1699 1.367 . S
C1698 C1706 1.378 . S
C1699 C1698 1.367 . S
C1699 C1707 1.433 . S
C1700 H1696 0.929 . S
C1700 C1702 1.378 . S
C1700 C1704 1.350 . S
C1701 C1704 1.463 . S
C1701 C1706 1.350 . S
C1701 N1709 1.427 . S
C1702 H1693 0.930 . S
C1702 C1700 1.378 . S
C1702 C1703 1.367 . S
C1703 C1702 1.367 . S
C1703 C1705 1.433 . S
C1704 C1700 1.350 . S
C1704 C1701 1.463 . S
C1704 N1708 1.427 . S
C1705 H1695 0.929 . S
C1705 C1703 1.433 . S
C1705 N1708 1.384 . S
C1706 H1697 0.929 . S
C1706 C1698 1.378 . S
C1706 C1701 1.350 . S
C1707 H1694 0.929 . S
C1707 C1699 1.433 . S
C1707 N1709 1.384 . S
N1708 C1704 1.427 . S
N1708 C1705 1.384 . S
N1709 C1701 1.427 . S
N1709 C1707 1.384 . S
H1710 C1716 0.930 . S
H1711 C1720 0.930 . S
H1712 C1725 0.929 . S
H1713 C1723 0.929 . S
H1714 C1718 0.929 . S
H1715 C1724 0.929 . S
C1716 H1710 0.930 . S
C1716 C1717 1.367 . S
C1716 C1724 1.378 . S
C1717 C1716 1.367 . S
C1717 C1725 1.433 . S
C1718 H1714 0.929 . S
C1718 C1720 1.378 . S
C1718 C1722 1.350 . S
C1719 C1722 1.463 . S
C1719 C1724 1.350 . S
C1719 N1727 1.427 . S
C1720 H1711 0.930 . S
C1720 C1718 1.378 . S
C1720 C1721 1.367 . S
C1721 C1720 1.367 . S
C1721 C1723 1.433 . S
C1722 C1718 1.350 . S
C1722 C1719 1.463 . S
C1722 N1726 1.427 . S
C1723 H1713 0.929 . S
C1723 C1721 1.433 . S
C1723 N1726 1.384 . S
C1724 H1715 0.929 . S
C1724 C1716 1.378 . S
C1724 C1719 1.350 . S
C1725 H1712 0.929 . S
C1725 C1717 1.433 . S
C1725 N1727 1.384 . S
N1726 C1722 1.427 . S
N1726 C1723 1.384 . S
N1727 C1719 1.427 . S
N1727 C1725 1.384 . S
H1728 C1734 0.930 . S
H1729 C1738 0.930 . S
H1730 C1743 0.929 . S
H1731 C1741 0.929 . S
H1732 C1736 0.929 . S
H1733 C1742 0.929 . S
C1734 H1728 0.930 . S
C1734 C1735 1.367 . S
C1734 C1742 1.378 . S
C1735 C1734 1.367 . S
C1735 C1743 1.433 . S
C1736 H1732 0.929 . S
C1736 C1738 1.378 . S
C1736 C1740 1.350 . S
C1737 C1740 1.463 . S
C1737 C1742 1.350 . S
C1737 N1745 1.427 . S
C1738 H1729 0.930 . S
C1738 C1736 1.378 . S
C1738 C1739 1.367 . S
C1739 C1738 1.367 . S
C1739 C1741 1.433 . S
C1740 C1736 1.350 . S
C1740 C1737 1.463 . S
C1740 N1744 1.427 . S
C1741 H1731 0.929 . S
C1741 C1739 1.433 . S
C1741 N1744 1.384 . S
C1742 H1733 0.929 . S
C1742 C1734 1.378 . S
C1742 C1737 1.350 . S
C1743 H1730 0.929 . S
C1743 C1735 1.433 . S
C1743 N1745 1.384 . S
N1744 C1740 1.427 . S
N1744 C1741 1.384 . S
N1745 C1737 1.427 . S
N1745 C1743 1.384 . S
H1746 C1752 0.930 . S
H1747 C1756 0.930 . S
H1748 C1761 0.929 . S
H1749 C1759 0.929 . S
H1750 C1754 0.929 . S
H1751 C1760 0.929 . S
C1752 H1746 0.930 . S
C1752 C1753 1.367 . S
C1752 C1760 1.378 . S
C1753 C1752 1.367 . S
C1753 C1761 1.433 . S
C1754 H1750 0.929 . S
C1754 C1756 1.378 . S
C1754 C1758 1.350 . S
C1755 C1758 1.463 . S
C1755 C1760 1.350 . S
C1755 N1763 1.427 . S
C1756 H1747 0.930 . S
C1756 C1754 1.378 . S
C1756 C1757 1.367 . S
C1757 C1756 1.367 . S
C1757 C1759 1.433 . S
C1758 C1754 1.350 . S
C1758 C1755 1.463 . S
C1758 N1762 1.427 . S
C1759 H1749 0.929 . S
C1759 C1757 1.433 . S
C1759 N1762 1.384 . S
C1760 H1751 0.929 . S
C1760 C1752 1.378 . S
C1760 C1755 1.350 . S
C1761 H1748 0.929 . S
C1761 C1753 1.433 . S
C1761 N1763 1.384 . S
N1762 C1758 1.427 . S
N1762 C1759 1.384 . S
N1763 C1755 1.427 . S
N1763 C1761 1.384 . S
H1764 C1770 0.930 . S
H1765 C1774 0.930 . S
H1766 C1779 0.929 . S
H1767 C1777 0.929 . S
H1768 C1772 0.929 . S
H1769 C1778 0.929 . S
C1770 H1764 0.930 . S
C1770 C1771 1.367 . S
C1770 C1778 1.378 . S
C1771 C1770 1.367 . S
C1771 C1779 1.433 . S
C1772 H1768 0.929 . S
C1772 C1774 1.378 . S
C1772 C1776 1.350 . S
C1773 C1776 1.463 . S
C1773 C1778 1.350 . S
C1773 N1781 1.427 . S
C1774 H1765 0.930 . S
C1774 C1772 1.378 . S
C1774 C1775 1.367 . S
C1775 C1774 1.367 . S
C1775 C1777 1.433 . S
C1776 C1772 1.350 . S
C1776 C1773 1.463 . S
C1776 N1780 1.427 . S
C1777 H1767 0.929 . S
C1777 C1775 1.433 . S
C1777 N1780 1.384 . S
C1778 H1769 0.929 . S
C1778 C1770 1.378 . S
C1778 C1773 1.350 . S
C1779 H1766 0.929 . S
C1779 C1771 1.433 . S
C1779 N1781 1.384 . S
N1780 C1776 1.427 . S
N1780 C1777 1.384 . S
N1781 C1773 1.427 . S
N1781 C1779 1.384 . S
H1782 C1788 0.930 . S
H1783 C1792 0.930 . S
H1784 C1797 0.929 . S
H1785 C1795 0.929 . S
H1786 C1790 0.929 . S
H1787 C1796 0.929 . S
C1788 H1782 0.930 . S
C1788 C1789 1.367 . S
C1788 C1796 1.378 . S
C1789 C1788 1.367 . S
C1789 C1797 1.433 . S
C1790 H1786 0.929 . S
C1790 C1792 1.378 . S
C1790 C1794 1.350 . S
C1791 C1794 1.463 . S
C1791 C1796 1.350 . S
C1791 N1799 1.427 . S
C1792 H1783 0.930 . S
C1792 C1790 1.378 . S
C1792 C1793 1.367 . S
C1793 C1792 1.367 . S
C1793 C1795 1.433 . S
C1794 C1790 1.350 . S
C1794 C1791 1.463 . S
C1794 N1798 1.427 . S
C1795 H1785 0.929 . S
C1795 C1793 1.433 . S
C1795 N1798 1.384 . S
C1796 H1787 0.929 . S
C1796 C1788 1.378 . S
C1796 C1791 1.350 . S
C1797 H1784 0.929 . S
C1797 C1789 1.433 . S
C1797 N1799 1.384 . S
N1798 C1794 1.427 . S
N1798 C1795 1.384 . S
N1799 C1791 1.427 . S
N1799 C1797 1.384 . S
H1800 C1806 0.930 . S
H1801 C1810 0.930 . S
H1802 C1815 0.929 . S
H1803 C1813 0.929 . S
H1804 C1808 0.929 . S
H1805 C1814 0.929 . S
C1806 H1800 0.930 . S
C1806 C1807 1.367 . S
C1806 C1814 1.378 . S
C1807 C1806 1.367 . S
C1807 C1815 1.433 . S
C1808 H1804 0.929 . S
C1808 C1810 1.378 . S
C1808 C1812 1.350 . S
C1809 C1812 1.463 . S
C1809 C1814 1.350 . S
C1809 N1817 1.427 . S
C1810 H1801 0.930 . S
C1810 C1808 1.378 . S
C1810 C1811 1.367 . S
C1811 C1810 1.367 . S
C1811 C1813 1.433 . S
C1812 C1808 1.350 . S
C1812 C1809 1.463 . S
C1812 N1816 1.427 . S
C1813 H1803 0.929 . S
C1813 C1811 1.433 . S
C1813 N1816 1.384 . S
C1814 H1805 0.929 . S
C1814 C1806 1.378 . S
C1814 C1809 1.350 . S
C1815 H1802 0.929 . S
C1815 C1807 1.433 . S
C1815 N1817 1.384 . S
N1816 C1812 1.427 . S
N1816 C1813 1.384 . S
N1817 C1809 1.427 . S
N1817 C1815 1.384 . S
H1818 C1824 0.930 . S
H1819 C1828 0.930 . S
H1820 C1833 0.929 . S
H1821 C1831 0.929 . S
H1822 C1826 0.929 . S
H1823 C1832 0.929 . S
C1824 H1818 0.930 . S
C1824 C1825 1.367 . S
C1824 C1832 1.378 . S
C1825 C1824 1.367 . S
C1825 C1833 1.433 . S
C1826 H1822 0.929 . S
C1826 C1828 1.378 . S
C1826 C1830 1.350 . S
C1827 C1830 1.463 . S
C1827 C1832 1.350 . S
C1827 N1835 1.427 . S
C1828 H1819 0.930 . S
C1828 C1826 1.378 . S
C1828 C1829 1.367 . S
C1829 C1828 1.367 . S
C1829 C1831 1.433 . S
C1830 C1826 1.350 . S
C1830 C1827 1.463 . S
C1830 N1834 1.427 . S
C1831 H1821 0.929 . S
C1831 C1829 1.433 . S
C1831 N1834 1.384 . S
C1832 H1823 0.929 . S
C1832 C1824 1.378 . S
C1832 C1827 1.350 . S
C1833 H1820 0.929 . S
C1833 C1825 1.433 . S
C1833 N1835 1.384 . S
N1834 C1830 1.427 . S
N1834 C1831 1.384 . S
N1835 C1827 1.427 . S
N1835 C1833 1.384 . S
H1836 C1842 0.930 . S
H1837 C1846 0.930 . S
H1838 C1851 0.929 . S
H1839 C1849 0.929 . S
H1840 C1844 0.929 . S
H1841 C1850 0.929 . S
C1842 H1836 0.930 . S
C1842 C1843 1.367 . S
C1842 C1850 1.378 . S
C1843 C1842 1.367 . S
C1843 C1851 1.433 . S
C1844 H1840 0.929 . S
C1844 C1846 1.378 . S
C1844 C1848 1.350 . S
C1845 C1848 1.463 . S
C1845 C1850 1.350 . S
C1845 N1853 1.427 . S
C1846 H1837 0.930 . S
C1846 C1844 1.378 . S
C1846 C1847 1.367 . S
C1847 C1846 1.367 . S
C1847 C1849 1.433 . S
C1848 C1844 1.350 . S
C1848 C1845 1.463 . S
C1848 N1852 1.427 . S
C1849 H1839 0.929 . S
C1849 C1847 1.433 . S
C1849 N1852 1.384 . S
C1850 H1841 0.929 . S
C1850 C1842 1.378 . S
C1850 C1845 1.350 . S
C1851 H1838 0.929 . S
C1851 C1843 1.433 . S
C1851 N1853 1.384 . S
N1852 C1848 1.427 . S
N1852 C1849 1.384 . S
N1853 C1845 1.427 . S
N1853 C1851 1.384 . S
H1854 C1860 0.930 . S
H1855 C1864 0.930 . S
H1856 C1869 0.929 . S
H1857 C1867 0.929 . S
H1858 C1862 0.929 . S
H1859 C1868 0.929 . S
C1860 H1854 0.930 . S
C1860 C1861 1.367 . S
C1860 C1868 1.378 . S
C1861 C1860 1.367 . S
C1861 C1869 1.433 . S
C1862 H1858 0.929 . S
C1862 C1864 1.378 . S
C1862 C1866 1.350 . S
C1863 C1866 1.463 . S
C1863 C1868 1.350 . S
C1863 N1871 1.427 . S
C1864 H1855 0.930 . S
C1864 C1862 1.378 . S
C1864 C1865 1.367 . S
C1865 C1864 1.367 . S
C1865 C1867 1.433 . S
C1866 C1862 1.350 . S
C1866 C1863 1.463 . S
C1866 N1870 1.427 . S
C1867 H1857 0.929 . S
C1867 C1865 1.433 . S
C1867 N1870 1.384 . S
C1868 H1859 0.929 . S
C1868 C1860 1.378 . S
C1868 C1863 1.350 . S
C1869 H1856 0.929 . S
C1869 C1861 1.433 . S
C1869 N1871 1.384 . S
N1870 C1866 1.427 . S
N1870 C1867 1.384 . S
N1871 C1863 1.427 . S
N1871 C1869 1.384 . S
C587 C306 1.496 . S
C583 C260 1.509 . S
C601 C238 1.538 . S
C605 C300 1.518 . S
C623 C268 1.639 . S
C619 C227 1.662 . S
C637 C249 1.688 . S
C641 C282 1.639 . S
C659 C320 2.112 . S
C655 C183 2.160 . S
C677 C407 1.568 . S
C673 C194 1.525 . S
C691 C205 2.209 . S
C695 C334 2.180 . S
C713 C402 1.215 . S
C709 C216 1.173 . S
C727 C139 2.196 . S
C731 C358 2.178 . S
C749 C413 1.617 . S
C745 C150 1.594 . S
C763 C161 2.123 . S
C767 C352 2.133 . S
C781 C172 1.253 . S
C785 C398 1.266 . S
C803 C454 1.330 . S
C799 C128 1.298 . S
C817 C106 1.650 . S
C821 C465 1.697 . S
C835 C95 1.365 . S
C839 C450 1.391 . S
C857 C459 1.748 . S
C853 C117 1.726 1_554 S
C871 C51 1.697 1_455 S
C875 C504 1.680 . S
C889 C62 0.833 . S
C893 C563 0.841 . S
C907 C73 1.830 . S
C911 C520 1.782 . S
C925 C84 1.173 . S
C929 C558 1.200 . S
C947 C522 1.827 . S
C943 C7 1.846 . S
C965 C569 0.778 . S
C961 C18 0.769 . S
C979 C29 1.665 . S
C983 C498 1.648 . S
C1001 C554 1.143 . S
C997 C40 1.168 . S
C1019 C290 1.548 . S
C1015 C8 1.550 . S
C1033 C16 1.032 . S
C1037 C294 1.187 . S
C1051 C30 1.583 . S
C1055 C314 1.544 . S
C1069 C38 0.869 1_545 S
C1073 C309 0.919 . S
C1087 C52 1.599 1_455 S
C1091 C312 1.567 . S
C1109 C298 1.151 . S
C1105 C60 0.988 . S
C1123 C74 1.554 . S
C1127 C296 1.518 . S
C1145 C303 0.886 . S
C1141 C82 0.800 . S
C1163 C366 1.308 . S
C1159 C41 1.338 . S
C1177 C5 1.638 . S
C1181 C416 1.876 . S
C1199 C364 1.022 . S
C1195 C19 1.044 . S
C1217 C400 1.785 . S
C1213 C27 1.621 . S
C1231 C63 0.995 . S
C1235 C342 0.975 . S
C1253 C418 1.850 . S
C1249 C71 1.644 . S
C1271 C348 1.249 . S
C1267 C85 1.262 . S
C1289 C394 1.795 . S
C1285 C49 1.682 1_455 S
C1307 C386 1.432 . S
C1303 C93 1.237 . S
C1321 C104 1.053 . S
C1325 C410 1.275 . S
C1343 C346 1.139 . S
C1339 C96 1.113 . S
C1361 C372 1.315 . S
C1357 C115 1.124 1_554 S
C1375 C129 1.065 . S
C1379 C350 1.088 . S
C1393 C126 1.162 . S
C1397 C404 1.392 . S
C1415 C361 1.395 . S
C1411 C107 1.346 . S
C1433 C355 1.439 . S
C1429 C118 1.376 1_554 S
C1451 C438 1.860 . S
C1447 C140 1.869 . S
C1469 C470 1.357 . S
C1465 C148 1.178 . S
C1483 C162 1.831 . S
C1487 C424 1.861 . S
C1505 C468 1.074 . S
C1501 C170 0.939 . S
C1523 C456 1.829 . S
C1519 C184 1.828 . S
C1537 C192 1.073 . S
C1541 C452 1.304 . S
C1555 C206 1.874 . S
C1559 C462 1.900 . S
C1577 C446 1.033 . S
C1573 C214 0.882 . S
C1595 C511 1.198 . S
C1591 C173 1.176 . S
C1609 C137 1.400 . S
C1613 C572 1.650 . S
C1631 C506 0.972 . S
C1627 C151 0.933 . S
C1649 C556 1.642 . S
C1645 C159 1.350 . S
C1667 C502 0.919 . S
C1663 C195 0.870 . S
C1681 C203 1.434 . S
C1685 C574 1.603 . S
C1703 C517 1.150 . S
C1699 C217 1.121 . S
C1721 C550 1.534 . S
C1717 C181 1.401 . S
C1739 C542 1.558 . S
C1735 C225 1.336 . S
C1753 C236 1.494 . S
C1757 C566 1.607 . S
C1775 C508 1.353 . S
C1771 C228 1.377 . S
C1789 C247 1.448 . S
C1793 C528 1.670 . S
C1811 C490 1.390 . S
C1807 C261 1.420 . S
C1829 C560 1.480 . S
C1825 C258 1.349 . S
C1847 C476 1.380 . S
C1843 C239 1.416 . S
C1861 C250 1.368 . S
C1865 C514 1.337 . S
