# Generated by pormake.
# Topology gar, (4,6)-cn, num edge types: 1
# Building blocks:
#     Node 0, Type 0, BuildingBlock: TATPOV_clean_sbu_0, # of connection points: 4
#     Node 1, Type 0, BuildingBlock: TATPOV_clean_sbu_0, # of connection points: 4
#     Node 2, Type 0, BuildingBlock: TATPOV_clean_sbu_0, # of connection points: 4
#     Node 3, Type 0, BuildingBlock: TATPOV_clean_sbu_0, # of connection points: 4
#     Node 4, Type 0, BuildingBlock: TATPOV_clean_sbu_0, # of connection points: 4
#     Node 5, Type 0, BuildingBlock: TATPOV_clean_sbu_0, # of connection points: 4
#     Node 6, Type 0, BuildingBlock: TATPOV_clean_sbu_0, # of connection points: 4
#     Node 7, Type 0, BuildingBlock: TATPOV_clean_sbu_0, # of connection points: 4
#     Node 8, Type 0, BuildingBlock: TATPOV_clean_sbu_0, # of connection points: 4
#     Node 9, Type 0, BuildingBlock: TATPOV_clean_sbu_0, # of connection points: 4
#     Node 10, Type 0, BuildingBlock: TATPOV_clean_sbu_0, # of connection points: 4
#     Node 11, Type 0, BuildingBlock: TATPOV_clean_sbu_0, # of connection points: 4
#     Node 12, Type 0, BuildingBlock: TATPOV_clean_sbu_0, # of connection points: 4
#     Node 13, Type 0, BuildingBlock: TATPOV_clean_sbu_0, # of connection points: 4
#     Node 14, Type 0, BuildingBlock: TATPOV_clean_sbu_0, # of connection points: 4
#     Node 15, Type 0, BuildingBlock: TATPOV_clean_sbu_0, # of connection points: 4
#     Node 16, Type 0, BuildingBlock: TATPOV_clean_sbu_0, # of connection points: 4
#     Node 17, Type 0, BuildingBlock: TATPOV_clean_sbu_0, # of connection points: 4
#     Node 18, Type 0, BuildingBlock: TATPOV_clean_sbu_0, # of connection points: 4
#     Node 19, Type 0, BuildingBlock: TATPOV_clean_sbu_0, # of connection points: 4
#     Node 20, Type 0, BuildingBlock: TATPOV_clean_sbu_0, # of connection points: 4
#     Node 21, Type 0, BuildingBlock: TATPOV_clean_sbu_0, # of connection points: 4
#     Node 22, Type 0, BuildingBlock: TATPOV_clean_sbu_0, # of connection points: 4
#     Node 23, Type 0, BuildingBlock: TATPOV_clean_sbu_0, # of connection points: 4
#     Node 24, Type 1, BuildingBlock: BETDIP_clean_sbu_0, # of connection points: 6
#     Node 25, Type 1, BuildingBlock: BETDIP_clean_sbu_0, # of connection points: 6
#     Node 26, Type 1, BuildingBlock: BETDIP_clean_sbu_0, # of connection points: 6
#     Node 27, Type 1, BuildingBlock: BETDIP_clean_sbu_0, # of connection points: 6
#     Node 28, Type 1, BuildingBlock: BETDIP_clean_sbu_0, # of connection points: 6
#     Node 29, Type 1, BuildingBlock: BETDIP_clean_sbu_0, # of connection points: 6
#     Node 30, Type 1, BuildingBlock: BETDIP_clean_sbu_0, # of connection points: 6
#     Node 31, Type 1, BuildingBlock: BETDIP_clean_sbu_0, # of connection points: 6
#     Node 32, Type 1, BuildingBlock: BETDIP_clean_sbu_0, # of connection points: 6
#     Node 33, Type 1, BuildingBlock: BETDIP_clean_sbu_0, # of connection points: 6
#     Node 34, Type 1, BuildingBlock: BETDIP_clean_sbu_0, # of connection points: 6
#     Node 35, Type 1, BuildingBlock: BETDIP_clean_sbu_0, # of connection points: 6
#     Node 36, Type 1, BuildingBlock: BETDIP_clean_sbu_0, # of connection points: 6
#     Node 37, Type 1, BuildingBlock: BETDIP_clean_sbu_0, # of connection points: 6
#     Node 38, Type 1, BuildingBlock: BETDIP_clean_sbu_0, # of connection points: 6
#     Node 39, Type 1, BuildingBlock: BETDIP_clean_sbu_0, # of connection points: 6
#     Edge 40, Type (0, 1), BuildingBlock: OJICUG_clean_linker_0, # of connection points: 2
#     Edge 41, Type (0, 1), BuildingBlock: OJICUG_clean_linker_0, # of connection points: 2
#     Edge 42, Type (0, 1), BuildingBlock: OJICUG_clean_linker_0, # of connection points: 2
#     Edge 43, Type (0, 1), BuildingBlock: OJICUG_clean_linker_0, # of connection points: 2
#     Edge 44, Type (0, 1), BuildingBlock: OJICUG_clean_linker_0, # of connection points: 2
#     Edge 45, Type (0, 1), BuildingBlock: OJICUG_clean_linker_0, # of connection points: 2
#     Edge 46, Type (0, 1), BuildingBlock: OJICUG_clean_linker_0, # of connection points: 2
#     Edge 47, Type (0, 1), BuildingBlock: OJICUG_clean_linker_0, # of connection points: 2
#     Edge 48, Type (0, 1), BuildingBlock: OJICUG_clean_linker_0, # of connection points: 2
#     Edge 49, Type (0, 1), BuildingBlock: OJICUG_clean_linker_0, # of connection points: 2
#     Edge 50, Type (0, 1), BuildingBlock: OJICUG_clean_linker_0, # of connection points: 2
#     Edge 51, Type (0, 1), BuildingBlock: OJICUG_clean_linker_0, # of connection points: 2
#     Edge 52, Type (0, 1), BuildingBlock: OJICUG_clean_linker_0, # of connection points: 2
#     Edge 53, Type (0, 1), BuildingBlock: OJICUG_clean_linker_0, # of connection points: 2
#     Edge 54, Type (0, 1), BuildingBlock: OJICUG_clean_linker_0, # of connection points: 2
#     Edge 55, Type (0, 1), BuildingBlock: OJICUG_clean_linker_0, # of connection points: 2
#     Edge 56, Type (0, 1), BuildingBlock: OJICUG_clean_linker_0, # of connection points: 2
#     Edge 57, Type (0, 1), BuildingBlock: OJICUG_clean_linker_0, # of connection points: 2
#     Edge 58, Type (0, 1), BuildingBlock: OJICUG_clean_linker_0, # of connection points: 2
#     Edge 59, Type (0, 1), BuildingBlock: OJICUG_clean_linker_0, # of connection points: 2
#     Edge 60, Type (0, 1), BuildingBlock: OJICUG_clean_linker_0, # of connection points: 2
#     Edge 61, Type (0, 1), BuildingBlock: OJICUG_clean_linker_0, # of connection points: 2
#     Edge 62, Type (0, 1), BuildingBlock: OJICUG_clean_linker_0, # of connection points: 2
#     Edge 63, Type (0, 1), BuildingBlock: OJICUG_clean_linker_0, # of connection points: 2
#     Edge 64, Type (0, 1), BuildingBlock: OJICUG_clean_linker_0, # of connection points: 2
#     Edge 65, Type (0, 1), BuildingBlock: OJICUG_clean_linker_0, # of connection points: 2
#     Edge 66, Type (0, 1), BuildingBlock: OJICUG_clean_linker_0, # of connection points: 2
#     Edge 67, Type (0, 1), BuildingBlock: OJICUG_clean_linker_0, # of connection points: 2
#     Edge 68, Type (0, 1), BuildingBlock: OJICUG_clean_linker_0, # of connection points: 2
#     Edge 69, Type (0, 1), BuildingBlock: OJICUG_clean_linker_0, # of connection points: 2
#     Edge 70, Type (0, 1), BuildingBlock: OJICUG_clean_linker_0, # of connection points: 2
#     Edge 71, Type (0, 1), BuildingBlock: OJICUG_clean_linker_0, # of connection points: 2
#     Edge 72, Type (0, 1), BuildingBlock: OJICUG_clean_linker_0, # of connection points: 2
#     Edge 73, Type (0, 1), BuildingBlock: OJICUG_clean_linker_0, # of connection points: 2
#     Edge 74, Type (0, 1), BuildingBlock: OJICUG_clean_linker_0, # of connection points: 2
#     Edge 75, Type (0, 1), BuildingBlock: OJICUG_clean_linker_0, # of connection points: 2
#     Edge 76, Type (0, 1), BuildingBlock: OJICUG_clean_linker_0, # of connection points: 2
#     Edge 77, Type (0, 1), BuildingBlock: OJICUG_clean_linker_0, # of connection points: 2
#     Edge 78, Type (0, 1), BuildingBlock: OJICUG_clean_linker_0, # of connection points: 2
#     Edge 79, Type (0, 1), BuildingBlock: OJICUG_clean_linker_0, # of connection points: 2
#     Edge 80, Type (0, 1), BuildingBlock: OJICUG_clean_linker_0, # of connection points: 2
#     Edge 81, Type (0, 1), BuildingBlock: OJICUG_clean_linker_0, # of connection points: 2
#     Edge 82, Type (0, 1), BuildingBlock: OJICUG_clean_linker_0, # of connection points: 2
#     Edge 83, Type (0, 1), BuildingBlock: OJICUG_clean_linker_0, # of connection points: 2
#     Edge 84, Type (0, 1), BuildingBlock: OJICUG_clean_linker_0, # of connection points: 2
#     Edge 85, Type (0, 1), BuildingBlock: OJICUG_clean_linker_0, # of connection points: 2
#     Edge 86, Type (0, 1), BuildingBlock: OJICUG_clean_linker_0, # of connection points: 2
#     Edge 87, Type (0, 1), BuildingBlock: OJICUG_clean_linker_0, # of connection points: 2
#     Edge 88, Type (0, 1), BuildingBlock: OJICUG_clean_linker_0, # of connection points: 2
#     Edge 89, Type (0, 1), BuildingBlock: OJICUG_clean_linker_0, # of connection points: 2
#     Edge 90, Type (0, 1), BuildingBlock: OJICUG_clean_linker_0, # of connection points: 2
#     Edge 91, Type (0, 1), BuildingBlock: OJICUG_clean_linker_0, # of connection points: 2
#     Edge 92, Type (0, 1), BuildingBlock: OJICUG_clean_linker_0, # of connection points: 2
#     Edge 93, Type (0, 1), BuildingBlock: OJICUG_clean_linker_0, # of connection points: 2
#     Edge 94, Type (0, 1), BuildingBlock: OJICUG_clean_linker_0, # of connection points: 2
#     Edge 95, Type (0, 1), BuildingBlock: OJICUG_clean_linker_0, # of connection points: 2
#     Edge 96, Type (0, 1), BuildingBlock: OJICUG_clean_linker_0, # of connection points: 2
#     Edge 97, Type (0, 1), BuildingBlock: OJICUG_clean_linker_0, # of connection points: 2
#     Edge 98, Type (0, 1), BuildingBlock: OJICUG_clean_linker_0, # of connection points: 2
#     Edge 99, Type (0, 1), BuildingBlock: OJICUG_clean_linker_0, # of connection points: 2
#     Edge 100, Type (0, 1), BuildingBlock: OJICUG_clean_linker_0, # of connection points: 2
#     Edge 101, Type (0, 1), BuildingBlock: OJICUG_clean_linker_0, # of connection points: 2
#     Edge 102, Type (0, 1), BuildingBlock: OJICUG_clean_linker_0, # of connection points: 2
#     Edge 103, Type (0, 1), BuildingBlock: OJICUG_clean_linker_0, # of connection points: 2
#     Edge 104, Type (0, 1), BuildingBlock: OJICUG_clean_linker_0, # of connection points: 2
#     Edge 105, Type (0, 1), BuildingBlock: OJICUG_clean_linker_0, # of connection points: 2
#     Edge 106, Type (0, 1), BuildingBlock: OJICUG_clean_linker_0, # of connection points: 2
#     Edge 107, Type (0, 1), BuildingBlock: OJICUG_clean_linker_0, # of connection points: 2
#     Edge 108, Type (0, 1), BuildingBlock: OJICUG_clean_linker_0, # of connection points: 2
#     Edge 109, Type (0, 1), BuildingBlock: OJICUG_clean_linker_0, # of connection points: 2
#     Edge 110, Type (0, 1), BuildingBlock: OJICUG_clean_linker_0, # of connection points: 2
#     Edge 111, Type (0, 1), BuildingBlock: OJICUG_clean_linker_0, # of connection points: 2
#     Edge 112, Type (0, 1), BuildingBlock: OJICUG_clean_linker_0, # of connection points: 2
#     Edge 113, Type (0, 1), BuildingBlock: OJICUG_clean_linker_0, # of connection points: 2
#     Edge 114, Type (0, 1), BuildingBlock: OJICUG_clean_linker_0, # of connection points: 2
#     Edge 115, Type (0, 1), BuildingBlock: OJICUG_clean_linker_0, # of connection points: 2
#     Edge 116, Type (0, 1), BuildingBlock: OJICUG_clean_linker_0, # of connection points: 2
#     Edge 117, Type (0, 1), BuildingBlock: OJICUG_clean_linker_0, # of connection points: 2
#     Edge 118, Type (0, 1), BuildingBlock: OJICUG_clean_linker_0, # of connection points: 2
#     Edge 119, Type (0, 1), BuildingBlock: OJICUG_clean_linker_0, # of connection points: 2
#     Edge 120, Type (0, 1), BuildingBlock: OJICUG_clean_linker_0, # of connection points: 2
#     Edge 121, Type (0, 1), BuildingBlock: OJICUG_clean_linker_0, # of connection points: 2
#     Edge 122, Type (0, 1), BuildingBlock: OJICUG_clean_linker_0, # of connection points: 2
#     Edge 123, Type (0, 1), BuildingBlock: OJICUG_clean_linker_0, # of connection points: 2
#     Edge 124, Type (0, 1), BuildingBlock: OJICUG_clean_linker_0, # of connection points: 2
#     Edge 125, Type (0, 1), BuildingBlock: OJICUG_clean_linker_0, # of connection points: 2
#     Edge 126, Type (0, 1), BuildingBlock: OJICUG_clean_linker_0, # of connection points: 2
#     Edge 127, Type (0, 1), BuildingBlock: OJICUG_clean_linker_0, # of connection points: 2
#     Edge 128, Type (0, 1), BuildingBlock: OJICUG_clean_linker_0, # of connection points: 2
#     Edge 129, Type (0, 1), BuildingBlock: OJICUG_clean_linker_0, # of connection points: 2
#     Edge 130, Type (0, 1), BuildingBlock: OJICUG_clean_linker_0, # of connection points: 2
#     Edge 131, Type (0, 1), BuildingBlock: OJICUG_clean_linker_0, # of connection points: 2
#     Edge 132, Type (0, 1), BuildingBlock: OJICUG_clean_linker_0, # of connection points: 2
#     Edge 133, Type (0, 1), BuildingBlock: OJICUG_clean_linker_0, # of connection points: 2
#     Edge 134, Type (0, 1), BuildingBlock: OJICUG_clean_linker_0, # of connection points: 2
#     Edge 135, Type (0, 1), BuildingBlock: OJICUG_clean_linker_0, # of connection points: 2
# Relax obj value: 0.263
# Max RMSD: 0.377
# Mean RMSD: 0.185
data_MOF--net-gar--node1-TATPOV_clean_sbu_0--node2-BETDIP_clean_sbu_0--edge1-OJICUG_clean_linker_0
_symmetry_space_group_name_H-M    P1
_symmetry_Int_Tables_number       1
_symmetry_cell_setting            triclinic
loop_
_symmetry_equiv_pos_as_xyz
'x, y, z'
_cell_length_a     48.728434
_cell_length_b     42.056141
_cell_length_c     40.256035
_cell_angle_alpha  98.318302
_cell_angle_beta   100.66572
_cell_angle_gamma 104.09252
loop_
_atom_site_label
_atom_site_type_symbol
_atom_site_fract_x
_atom_site_fract_y
_atom_site_fract_z
_atom_type_partial_charge
Zn0 Zn 0.98417 0.37407 0.46856 0.0
Zn1 Zn 0.04606 0.36374 0.42119 0.0
O2 O 0.07017 0.40554 0.4603 0.0
O3 O 0.02564 0.39111 0.46275 0.0
O4 O 0.07304 0.3438 0.4003 0.0
O5 O 0.98918 0.32796 0.47331 0.0
O6 O 0.02563 0.32803 0.44574 0.0
C7 C 0.05131 0.40816 0.47752 0.0
C8 C 0.99526 0.37637 0.39919 0.0
O9 O 1.01271 0.36736 0.38272 0.0
O10 O 1.00525 0.38771 0.43105 0.0
C11 C 0.08553 0.35463 0.37761 0.0
O12 O 0.08109 0.38135 0.36677 0.0
C13 C 1.00754 0.31429 0.46238 0.0
Zn14 Zn 0.08015 0.71784 0.80135 0.0
Zn15 Zn 0.08901 0.77213 0.77265 0.0
O16 O 0.06053 0.77851 0.79899 0.0
O17 O 0.05232 0.73751 0.82698 0.0
O18 O 0.09841 0.81361 0.75773 0.0
O19 O 0.12523 0.72876 0.81927 0.0
O20 O 0.12768 0.7732 0.79621 0.0
C21 C 0.04759 0.76431 0.81953 0.0
C22 C 0.06596 0.70831 0.72422 0.0
O23 O 0.07445 0.7397 0.7284 0.0
O24 O 0.06578 0.69418 0.75011 0.0
C25 C 0.07824 0.81765 0.73571 0.0
O26 O 0.05291 0.79494 0.72635 0.0
C27 C 0.14012 0.75526 0.81248 0.0
Zn28 Zn 0.48153 0.86186 0.97049 0.0
Zn29 Zn 0.54809 0.86461 0.92765 0.0
O30 O 0.56917 0.90333 0.97036 0.0
O31 O 0.5249 0.88445 0.97333 0.0
O32 O 0.57683 0.84755 0.9069 0.0
O33 O 0.4846 0.81383 0.9658 0.0
O34 O 0.52456 0.8241 0.94414 0.0
C35 C 0.54998 0.90379 0.98766 0.0
C36 C 0.49818 0.87744 0.9064 0.0
O37 O 0.51745 0.87385 0.89013 0.0
O38 O 0.50564 0.882 0.93875 0.0
C39 C 0.58762 0.85733 0.88257 0.0
O40 O 0.58079 0.88212 0.86973 0.0
C41 C 0.50538 0.80465 0.95545 0.0
Zn42 Zn 0.57856 0.21223 0.29165 0.0
Zn43 Zn 0.59647 0.26904 0.27578 0.0
O44 O 0.55947 0.27142 0.28749 0.0
O45 O 0.55387 0.23464 0.32062 0.0
O46 O 0.60756 0.31085 0.26033 0.0
O47 O 0.62431 0.22148 0.30274 0.0
O48 O 0.62784 0.27437 0.31594 0.0
C49 C 0.54675 0.25874 0.30903 0.0
C50 C 0.57561 0.2091 0.22042 0.0
O51 O 0.59495 0.2365 0.2332 0.0
O52 O 0.56056 0.19471 0.23939 0.0
C53 C 0.58767 0.3119 0.23578 0.0
O54 O 0.56435 0.28633 0.22445 0.0
C55 C 0.64015 0.25133 0.31376 0.0
Zn56 Zn 0.13941 0.8365 0.15014 0.0
Zn57 Zn 0.10465 0.83222 0.19404 0.0
O58 O 0.09989 0.87223 0.1697 0.0
O59 O 0.12786 0.87503 0.13243 0.0
O60 O 0.07225 0.82858 0.22067 0.0
O61 O 0.12036 0.78862 0.12613 0.0
O62 O 0.09316 0.78484 0.16412 0.0
C63 C 0.10973 0.88575 0.14626 0.0
C64 C 0.16996 0.84083 0.22068 0.0
O65 O 0.14485 0.83807 0.22739 0.0
O66 O 0.17321 0.84275 0.19044 0.0
C67 C 0.06915 0.81382 0.24578 0.0
O68 O 0.08949 0.80063 0.25884 0.0
C69 C 0.10155 0.77114 0.13893 0.0
Zn70 Zn 0.49112 0.78293 0.53703 0.0
Zn71 Zn 0.5245 0.78529 0.49233 0.0
O72 O 0.53595 0.83296 0.52126 0.0
O73 O 0.51267 0.82967 0.56305 0.0
O74 O 0.55628 0.78849 0.46489 0.0
O75 O 0.49967 0.74144 0.55154 0.0
O76 O 0.53075 0.74648 0.51814 0.0
C77 C 0.52971 0.84696 0.54802 0.0
C78 C 0.45985 0.78027 0.46726 0.0
O79 O 0.48374 0.77866 0.45899 0.0
O80 O 0.45774 0.78165 0.49828 0.0
C81 C 0.56503 0.8123 0.44971 0.0
O82 O 0.55133 0.83555 0.44827 0.0
C83 C 0.51925 0.73167 0.53985 0.0
Zn84 Zn 0.63986 0.33589 0.65147 0.0
Zn85 Zn 0.60327 0.32925 0.69346 0.0
O86 O 0.59667 0.36959 0.67038 0.0
O87 O 0.62971 0.37761 0.63948 0.0
O88 O 0.57012 0.31921 0.71841 0.0
O89 O 0.62042 0.28925 0.62322 0.0
O90 O 0.59378 0.28361 0.66163 0.0
C91 C 0.60924 0.38603 0.65041 0.0
C92 C 0.66815 0.33685 0.72196 0.0
O93 O 0.64321 0.336 0.72841 0.0
O94 O 0.67196 0.33748 0.69177 0.0
C95 C 0.56847 0.33507 0.74702 0.0
O96 O 0.59036 0.36069 0.7641 0.0
C97 C 0.60181 0.27099 0.63566 0.0
Zn98 Zn 0.98972 0.28253 0.03696 0.0
Zn99 Zn 0.02264 0.28523 0.99119 0.0
O100 O 0.03356 0.33283 0.02084 0.0
O101 O 1.00986 0.32957 0.06226 0.0
O102 O 0.05321 0.28928 0.96132 0.0
O103 O 1.00044 0.24271 0.05268 0.0
O104 O 0.02911 0.24585 0.01636 0.0
C105 C 0.02706 0.3468 0.04742 0.0
C106 C 0.95743 0.27901 0.96747 0.0
O107 O 0.98146 0.27857 0.95895 0.0
O108 O 0.95551 0.27943 0.99848 0.0
C109 C 0.07803 0.31086 0.9725 0.0
O110 O 0.08345 0.33067 1.0027 0.0
C111 C 1.01899 0.23204 0.03957 0.0
Zn112 Zn 0.46447 0.04134 0.32709 0.0
Zn113 Zn 0.43651 0.08581 0.32694 0.0
O114 O 0.46416 0.09348 0.38137 0.0
O115 O 0.48495 0.05241 0.3772 0.0
O116 O 0.41286 0.12804 0.32364 0.0
O117 O 0.48641 0.04909 0.29033 0.0
O118 O 0.46042 0.0842 0.28102 0.0
C119 C 0.48044 0.07656 0.3959 0.0
C120 C 0.4056 1.00675 0.31853 0.0
O121 O 0.40361 0.03722 0.3233 0.0
O122 O 0.42965 1.00173 0.31566 0.0
C123 C 0.40281 0.14523 0.34597 0.0
O124 O 0.40559 0.13801 0.37687 0.0
C125 C 0.47901 0.06877 0.27179 0.0
Zn126 Zn 0.24793 0.24118 0.56283 0.0
Zn127 Zn 0.28106 0.2018 0.56621 0.0
O128 O 0.28814 0.22482 0.52431 0.0
O129 O 0.25945 0.25809 0.52328 0.0
O130 O 0.31165 0.17604 0.57348 0.0
O131 O 0.26511 0.26781 0.60964 0.0
O132 O 0.29203 0.23287 0.61411 0.0
C133 C 0.27801 0.24671 0.5112 0.0
C134 C 0.21547 0.17452 0.55902 0.0
O135 O 0.2401 0.16839 0.56057 0.0
O136 O 0.21318 0.20368 0.55815 0.0
C137 C 0.32255 0.16339 0.55021 0.0
O138 O 0.31258 0.1646 0.51792 0.0
C139 C 0.28382 0.25726 0.62753 0.0
Zn140 Zn 0.13205 0.14793 0.87965 0.0
Zn141 Zn 0.15465 0.09694 0.8698 0.0
O142 O 0.13744 0.08774 0.91068 0.0
O143 O 0.11774 0.12901 0.91994 0.0
O144 O 0.17295 0.06099 0.86355 0.0
O145 O 0.11059 0.13041 0.82784 0.0
O146 O 0.12694 0.08609 0.82431 0.0
C147 C 0.12328 0.10271 0.92777 0.0
C148 C 0.19256 0.16978 0.88235 0.0
O149 O 0.18829 0.13834 0.87406 0.0
O150 O 0.17221 0.18164 0.88898 0.0
C151 C 0.19617 0.06275 0.88468 0.0
O152 O 0.20729 0.08852 0.91047 0.0
C153 C 0.11198 0.10336 0.81036 0.0
Zn154 Zn 0.25364 0.80741 0.98189 0.0
Zn155 Zn 0.23905 0.85788 0.02904 0.0
O156 O 0.22442 0.86134 0.97912 0.0
O157 O 0.2108 0.80828 0.97106 0.0
O158 O 0.22264 0.88603 0.05986 0.0
O159 O 0.26179 0.78401 0.0201 0.0
O160 O 0.23282 0.81099 0.03907 0.0
C161 C 0.21439 0.83387 0.9578 0.0
C162 C 0.29679 0.8768 0.01782 0.0
O163 O 0.28104 0.88033 0.03913 0.0
O164 O 0.28844 0.85217 0.99218 0.0
C165 C 0.20302 0.89824 0.0461 0.0
O166 O 0.19248 0.88966 0.01263 0.0
C167 C 0.25232 0.79574 0.045 0.0
Zn168 Zn 0.38764 0.38359 0.12552 0.0
Zn169 Zn 0.35346 0.42248 0.12467 0.0
O170 O 0.34145 0.39213 0.07612 0.0
O171 O 0.36738 0.35613 0.07949 0.0
O172 O 0.32174 0.4473 0.12324 0.0
O173 O 0.37928 0.36683 0.16679 0.0
O174 O 0.34872 0.39778 0.16589 0.0
C175 C 0.34862 0.36708 0.0622 0.0
C176 C 0.41829 0.45135 0.1278 0.0
O177 O 0.39379 0.45705 0.12897 0.0
O178 O 0.42107 0.42215 0.12686 0.0
C179 C 0.3097 0.45453 0.09549 0.0
O180 O 0.31938 0.44825 0.06758 0.0
C181 C 0.36012 0.37678 0.17906 0.0
Zn182 Zn 0.88376 0.31465 0.21283 0.0
Zn183 Zn 0.90148 0.26393 0.16784 0.0
O184 O 0.90121 0.3062 0.1483 0.0
O185 O 0.87204 0.33119 0.17116 0.0
O186 O 0.91917 0.23612 0.13916 0.0
O187 O 0.92718 0.31715 0.22123 0.0
O188 O 0.92192 0.26515 0.2171 0.0
C189 C 0.88195 0.3222 0.14556 0.0
C190 C 0.84312 0.24352 0.18084 0.0
O191 O 0.86044 0.23821 0.16208 0.0
O192 O 0.84978 0.27002 0.204 0.0
C193 C 0.90451 0.21488 0.11219 0.0
O194 O 0.87692 0.2127 0.10099 0.0
C195 C 0.92836 0.29339 0.23663 0.0
Zn196 Zn 0.16338 0.57841 0.35707 0.0
Zn197 Zn 0.18995 0.533 0.35631 0.0
O198 O 0.16675 0.53594 0.40344 0.0
O199 O 0.14207 0.57241 0.39428 0.0
O200 O 0.21153 0.48797 0.35308 0.0
O201 O 0.14213 0.56859 0.30768 0.0
O202 O 0.16194 0.52686 0.30233 0.0
C203 C 0.14893 0.55258 0.41294 0.0
C204 C 0.22151 0.6122 0.3632 0.0
O205 O 0.22313 0.58152 0.35894 0.0
O206 O 0.19787 0.6179 0.36675 0.0
C207 C 0.23378 0.48161 0.37211 0.0
O208 O 0.24784 0.50417 0.40007 0.0
C209 C 0.14608 0.54445 0.28838 0.0
Zn210 Zn 0.88755 0.88377 0.62847 0.0
Zn211 Zn 0.85314 0.92381 0.62259 0.0
O212 O 0.84274 0.89213 0.57557 0.0
O213 O 0.86699 0.85482 0.58253 0.0
O214 O 0.82273 0.95056 0.61823 0.0
O215 O 0.87776 0.87183 0.67165 0.0
O216 O 0.84536 0.90024 0.6635 0.0
C217 C 0.84937 0.86602 0.56357 0.0
C218 C 0.91876 0.95074 0.62755 0.0
O219 O 0.89433 0.95703 0.62771 0.0
O220 O 0.92115 0.92157 0.62827 0.0
C221 C 0.79849 0.93895 0.59607 0.0
O222 O 0.79345 0.91008 0.57522 0.0
C223 C 0.85706 0.88153 0.68026 0.0
Zn224 Zn 0.99536 0.97068 0.30374 0.0
Zn225 Zn 0.97231 1.02179 0.31076 0.0
O226 O 0.9999 0.03269 0.35674 0.0
O227 O 1.01704 0.98897 0.35491 0.0
O228 O 0.95506 0.05914 0.31451 0.0
O229 O 1.01095 0.98831 0.26354 0.0
O230 O 0.99091 0.0295 0.27076 0.0
C231 C 1.01517 1.01615 0.37151 0.0
C232 C 0.93418 0.94969 0.30125 0.0
O233 O 0.93797 0.9812 0.30701 0.0
O234 O 0.95493 0.93784 0.29601 0.0
C235 C 0.94939 0.06978 0.3428 0.0
O236 O 0.95332 0.05426 0.36861 0.0
C237 C 1.00584 1.01456 0.25499 0.0
Zn238 Zn 0.38643 0.81607 0.71453 0.0
Zn239 Zn 0.40626 0.75853 0.67939 0.0
O240 O 0.388 0.79023 0.65517 0.0
O241 O 0.37773 0.83672 0.67441 0.0
O242 O 0.42211 0.73255 0.64711 0.0
O243 O 0.42945 0.81732 0.72108 0.0
O244 O 0.43307 0.76936 0.72715 0.0
C245 C 0.37805 0.81478 0.64946 0.0
C246 C 0.34968 0.73872 0.6922 0.0
O247 O 0.3702 0.7282 0.68368 0.0
O248 O 0.35267 0.76979 0.70299 0.0
C249 C 0.40492 0.7118 0.62118 0.0
O250 O 0.3772 0.71047 0.61447 0.0
C251 C 0.43402 0.79827 0.74157 0.0
Zn252 Zn 0.49616 0.46991 0.80533 0.0
Zn253 Zn 0.47198 0.52013 0.81177 0.0
O254 O 0.49932 0.53123 0.85799 0.0
O255 O 0.51822 0.48888 0.85625 0.0
O256 O 0.45406 0.55679 0.81476 0.0
O257 O 0.51117 0.48758 0.76476 0.0
O258 O 0.49069 0.52835 0.77207 0.0
C259 C 0.51549 0.51561 0.87278 0.0
C260 C 0.43457 0.44802 0.80209 0.0
O261 O 0.43781 0.47941 0.80708 0.0
O262 O 0.45588 0.43669 0.79816 0.0
C263 C 0.45046 0.57057 0.84311 0.0
O264 O 0.45721 0.55892 0.87117 0.0
C265 C 0.50575 0.5137 0.75625 0.0
Zn266 Zn 0.66445 0.07865 0.86069 0.0
Zn267 Zn 0.68974 0.03358 0.85757 0.0
O268 O 0.66676 0.0363 0.90514 0.0
O269 O 0.64193 0.07266 0.89635 0.0
O270 O 0.71094 0.98823 0.85382 0.0
O271 O 0.64368 0.07163 0.81168 0.0
O272 O 0.6617 0.02883 0.80346 0.0
C273 C 0.64889 0.05281 0.91484 0.0
C274 C 0.72243 0.11257 0.86807 0.0
O275 O 0.72359 0.08183 0.86131 0.0
O276 O 0.69907 0.11801 0.87315 0.0
C277 C 0.73339 0.98199 0.87259 0.0
O278 O 0.74777 1.0048 0.90025 0.0
C279 C 0.64664 0.04787 0.79089 0.0
Zn280 Zn 0.74843 0.7415 0.0668 0.0
Zn281 Zn 0.77979 0.69988 0.06623 0.0
O282 O 0.78616 0.72334 0.02451 0.0
O283 O 0.75706 0.75608 0.02497 0.0
O284 O 0.8107 0.67457 0.07291 0.0
O285 O 0.76898 0.7698 0.11229 0.0
O286 O 0.79052 0.72972 0.11473 0.0
C287 C 0.7752 0.74484 0.01175 0.0
C288 C 0.7155 0.6738 0.06247 0.0
O289 O 0.73909 0.66646 0.05986 0.0
O290 O 0.71444 0.70379 0.06563 0.0
C291 C 0.82 0.65947 0.04955 0.0
O292 O 0.80798 0.65748 0.01701 0.0
C293 C 0.78552 0.75603 0.1293 0.0
Zn294 Zn 0.96404 0.53924 0.82378 0.0
Zn295 Zn 0.93749 0.58551 0.82674 0.0
O296 O 0.96562 0.59209 0.88065 0.0
O297 O 0.98558 0.55052 0.87367 0.0
O298 O 0.91393 0.62847 0.82379 0.0
O299 O 0.98395 0.54413 0.78482 0.0
O300 O 0.96105 0.58304 0.78031 0.0
C301 C 0.98175 0.5743 0.89373 0.0
C302 C 0.90563 0.50643 0.81916 0.0
O303 O 0.90437 0.53721 0.82422 0.0
O304 O 0.92897 0.50048 0.81465 0.0
C305 C 0.9024 0.6448 0.84522 0.0
O306 O 0.90326 0.6364 0.87549 0.0
C307 C 0.97757 0.56577 0.76846 0.0
Zn308 Zn 0.75081 0.30081 0.47661 0.0
Zn309 Zn 0.73263 0.36114 0.51648 0.0
O310 O 0.7086 0.35608 0.46817 0.0
O311 O 0.70892 0.30586 0.47013 0.0
O312 O 0.7181 0.3855 0.55211 0.0
O313 O 0.75604 0.27639 0.51665 0.0
O314 O 0.74605 0.32331 0.5308 0.0
C315 C 0.70633 0.32731 0.45179 0.0
C316 C 0.79106 0.37703 0.50449 0.0
O317 O 0.77172 0.38767 0.51604 0.0
O318 O 0.78644 0.3465 0.48946 0.0
C319 C 0.72735 0.41683 0.5546 0.0
O320 O 0.74248 0.4286 0.53309 0.0
C321 C 0.75466 0.29924 0.54008 0.0
Zn322 Zn 0.63322 0.64727 0.38005 0.0
Zn323 Zn 0.65654 0.59682 0.37164 0.0
O324 O 0.63799 0.58699 0.41156 0.0
O325 O 0.61908 0.62891 0.42086 0.0
O326 O 0.67463 0.56076 0.36499 0.0
O327 O 0.61083 0.62947 0.32889 0.0
O328 O 0.62975 0.58712 0.32535 0.0
C329 C 0.62395 0.60226 0.42856 0.0
C330 C 0.69471 0.6691 0.38393 0.0
O331 O 0.69109 0.63766 0.3781 0.0
O332 O 0.67348 0.6806 0.38777 0.0
C333 C 0.6907 0.55453 0.39021 0.0
O334 O 0.6951 0.57245 0.42127 0.0
C335 C 0.61355 0.60319 0.31141 0.0
Tb336 Tb 0.03767 0.0395 0.07351 0.0
Tb337 Tb 0.0972 0.08178 0.11422 0.0
C338 C 0.98368 1.02183 0.05704 0.0
C339 C 0.96528 0.04473 0.06091 0.0
C340 C 0.96218 0.05728 0.09395 0.0
C341 C 0.95195 0.08524 0.09961 0.0
C342 C 0.94423 0.10102 0.07234 0.0
C343 C 0.94529 0.08724 0.03887 0.0
C344 C 0.95575 0.05928 0.03319 0.0
C345 C 0.0772 0.05096 0.03706 0.0
C346 C 0.05484 0.12074 0.08666 0.0
C347 C 0.15136 0.10005 0.1319 0.0
C348 C 0.17051 0.07769 0.13116 0.0
C349 C 0.1827 0.07327 0.10241 0.0
C350 C 0.19065 0.04418 0.09336 0.0
C351 C 0.18733 1.0195 0.11342 0.0
C352 C 0.17916 0.02589 0.14474 0.0
C353 C 0.17062 0.05483 0.15354 0.0
C354 C 0.05729 0.06935 0.1502 0.0
C355 C 0.07986 1.00008 0.10077 0.0
O356 O 0.9985 1.01765 0.08599 0.0
O357 O 0.99959 0.02653 0.03427 0.0
O358 O 0.07417 0.07057 0.06193 0.0
O359 O 0.05594 0.02356 0.03023 0.0
O360 O 0.03433 0.09183 0.08079 0.0
O361 O 0.0826 0.12296 0.0979 0.0
O362 O 0.13675 0.10078 0.10136 0.0
O363 O 0.13495 0.09769 0.15434 0.0
O364 O 0.06092 0.05033 0.12541 0.0
O365 O 0.07806 0.09726 0.15718 0.0
O366 O 0.10014 0.02945 0.10946 0.0
O367 O 0.05244 0.99744 0.08679 0.0
H368 H 0.96921 0.04677 0.11598 0.0
H369 H 0.95074 0.09505 0.12555 0.0
H370 H 0.93936 0.09902 0.01745 0.0
H371 H 0.95798 0.05028 0.00749 0.0
H372 H 0.18324 0.0906 0.0849 0.0
H373 H 0.19754 0.0399 0.06939 0.0
H374 H 0.17692 1.00725 0.16077 0.0
H375 H 0.16166 0.05766 0.17613 0.0
Tb376 Tb 0.32485 0.79605 0.31687 0.0
Tb377 Tb 0.30694 0.82347 0.37226 0.0
C378 C 0.34363 0.78553 0.264 0.0
C379 C 0.3433 0.80424 0.23644 0.0
C380 C 0.32346 0.82326 0.23221 0.0
C381 C 0.31782 0.83509 0.20208 0.0
C382 C 0.33188 0.82761 0.17576 0.0
C383 C 0.35553 0.81397 0.18286 0.0
C384 C 0.36091 0.8017 0.21307 0.0
C385 C 0.35635 0.78889 0.37476 0.0
C386 C 0.33929 0.87649 0.33646 0.0
C387 C 0.29863 0.84016 0.43068 0.0
C388 C 0.29758 0.82383 0.45964 0.0
C389 C 0.31224 0.79943 0.46381 0.0
C390 C 0.31411 0.78704 0.49395 0.0
C391 C 0.30153 0.79939 0.51994 0.0
C392 C 0.28269 0.81927 0.51284 0.0
C393 C 0.28107 0.83193 0.48278 0.0
C394 C 0.26607 0.82526 0.32036 0.0
C395 C 0.28545 0.7442 0.34683 0.0
O396 O 0.31782 0.76924 0.26673 0.0
O397 O 0.36029 0.80249 0.29355 0.0
O398 O 0.34862 0.81496 0.36989 0.0
O399 O 0.34505 0.76613 0.3474 0.0
O400 O 0.33665 0.84969 0.31308 0.0
O401 O 0.33071 0.87249 0.36509 0.0
O402 O 0.3241 0.84965 0.42321 0.0
O403 O 0.27787 0.82446 0.40386 0.0
O404 O 0.28718 0.81346 0.31632 0.0
O405 O 0.26882 0.83749 0.35206 0.0
O406 O 0.29381 0.76929 0.37378 0.0
O407 O 0.29134 0.75044 0.3173 0.0
H408 H 0.31028 0.82617 0.25066 0.0
H409 H 0.29972 0.84584 0.19785 0.0
H410 H 0.36742 0.80912 0.16336 0.0
H411 H 0.37713 0.78813 0.21686 0.0
H412 H 0.3239 0.79182 0.44502 0.0
H413 H 0.32843 0.77127 0.49849 0.0
H414 H 0.27212 0.8282 0.53224 0.0
H415 H 0.26845 0.84954 0.47862 0.0
Tb416 Tb 0.59362 0.06265 0.57804 0.0
Tb417 Tb 0.5352 0.05522 0.6039 0.0
C418 C 0.64468 0.06344 0.57432 0.0
C419 C 0.66552 0.04314 0.5789 0.0
C420 C 0.67403 0.03296 0.61006 0.0
C421 C 0.69505 1.01523 0.61351 0.0
C422 C 0.70775 1.00721 0.58583 0.0
C423 C 0.69871 1.017 0.55461 0.0
C424 C 0.67794 0.03478 0.55126 0.0
C425 C 0.55094 0.07076 0.52832 0.0
C426 C 0.55142 0.9904 0.57462 0.0
C427 C 0.48415 0.05417 0.60794 0.0
C428 C 0.46271 0.0731 0.60011 0.0
C429 C 0.45996 0.08753 0.57076 0.0
C430 C 0.43849 0.10412 0.56358 0.0
C431 C 0.41936 0.10665 0.5856 0.0
C432 C 0.42296 0.09304 0.61554 0.0
C433 C 0.44439 0.0765 0.62267 0.0
C434 C 0.57836 0.04846 0.65388 0.0
C435 C 0.57741 0.12729 0.60647 0.0
O436 O 0.63821 0.07808 0.6018 0.0
O437 O 0.62205 0.05089 0.54837 0.0
O438 O 0.54974 0.06372 0.55793 0.0
O439 O 0.57775 0.07376 0.52683 0.0
O440 O 0.57723 1.00879 0.57305 0.0
O441 O 0.53072 1.0031 0.58316 0.0
O442 O 0.49044 0.03694 0.58184 0.0
O443 O 0.50711 0.06972 0.63274 0.0
O444 O 0.57888 0.05392 0.62366 0.0
O445 O 0.55204 0.0471 0.65648 0.0
O446 O 0.55105 0.10887 0.60617 0.0
O447 O 0.59861 0.11441 0.60019 0.0
H448 H 0.66467 0.03887 0.63177 0.0
H449 H 0.70128 1.00768 0.63775 0.0
H450 H 0.70821 1.01161 0.5329 0.0
H451 H 0.67183 0.04246 0.52703 0.0
H452 H 0.47418 0.0857 0.55325 0.0
H453 H 0.43683 0.1149 0.54069 0.0
H454 H 0.40864 0.09419 0.63301 0.0
H455 H 0.44633 0.06579 0.64563 0.0
Tb456 Tb 0.28735 0.31964 0.84009 0.0
Tb457 Tb 0.34285 0.2962 0.85029 0.0
C458 C 0.23762 0.32639 0.84125 0.0
C459 C 0.21679 0.32444 0.86397 0.0
C460 C 0.20474 0.29448 0.8742 0.0
C461 C 0.18262 0.29236 0.89232 0.0
C462 C 0.17216 0.32017 0.90078 0.0
C463 C 0.18494 0.35037 0.89147 0.0
C464 C 0.20689 0.35242 0.87318 0.0
C465 C 0.33279 0.36025 0.82735 0.0
C466 C 0.32575 0.32747 0.91536 0.0
C467 C 0.3917 0.28664 0.8488 0.0
C468 C 0.41418 0.2922 0.82826 0.0
C469 C 0.42874 0.32469 0.82582 0.0
C470 C 0.45214 0.33018 0.80992 0.0
C471 C 0.46218 0.30344 0.79677 0.0
C472 C 0.44702 0.27071 0.79807 0.0
C473 C 0.42325 0.26519 0.81372 0.0
C474 C 0.29659 0.256 0.86179 0.0
C475 C 0.30478 0.2902 0.77496 0.0
O476 O 0.24234 0.29833 0.82817 0.0
O477 O 0.26138 0.3514 0.85065 0.0
O478 O 0.3332 0.34289 0.85038 0.0
O479 O 0.30612 0.3587 0.81365 0.0
O480 O 0.30013 0.32531 0.89586 0.0
O481 O 0.34739 0.32082 0.90278 0.0
O482 O 0.38803 0.31336 0.8666 0.0
O483 O 0.36701 0.26382 0.83454 0.0
O484 O 0.29729 0.27307 0.83871 0.0
O485 O 0.32289 0.25836 0.87762 0.0
O486 O 0.33061 0.29301 0.79452 0.0
O487 O 0.28281 0.29506 0.78791 0.0
H488 H 0.21195 0.27244 0.86764 0.0
H489 H 0.17362 0.2689 0.89961 0.0
H490 H 0.17733 0.37222 0.89736 0.0
H491 H 0.21563 0.37572 0.86542 0.0
H492 H 0.4228 0.34616 0.83731 0.0
H493 H 0.46293 0.35564 0.80878 0.0
H494 H 0.45427 0.24955 0.78837 0.0
H495 H 0.41265 0.23989 0.81559 0.0
Tb496 Tb 0.05909 0.0931 0.59444 0.0
Tb497 Tb 0.07415 0.03224 0.58693 0.0
C498 C 0.05107 0.14863 0.58994 0.0
C499 C 0.04222 0.16354 0.56069 0.0
C500 C 0.06218 0.17714 0.54184 0.0
C501 C 0.05412 0.19516 0.51715 0.0
C502 C 0.02616 0.19947 0.51134 0.0
C503 C 1.00542 0.18288 0.52742 0.0
C504 C 1.01348 0.1653 0.55228 0.0
C505 C 1.02043 0.04518 0.6096 0.0
C506 C 0.04472 0.04738 0.52007 0.0
C507 C 0.08684 0.97861 0.58855 0.0
C508 C 0.09314 0.96175 0.61635 0.0
C509 C 0.08063 0.96606 0.64472 0.0
C510 C 0.0852 0.94811 0.67033 0.0
C511 C 0.10214 0.92588 0.66737 0.0
C512 C 0.11682 0.92384 0.64073 0.0
C513 C 0.11232 0.94199 0.61508 0.0
C514 C 0.11193 0.08098 0.57198 0.0
C515 C 0.08551 0.07577 0.66167 0.0
O516 O 0.0768 0.14356 0.59428 0.0
O517 O 0.03118 0.12346 0.59417 0.0
O518 O 0.0328 0.04191 0.58475 0.0
O519 O 0.02914 0.07585 0.62597 0.0
O520 O 0.0506 0.07816 0.53788 0.0
O521 O 0.04779 0.02286 0.5358 0.0
O522 O 0.06002 0.98029 0.58031 0.0
O523 O 0.10608 1.00705 0.59155 0.0
O524 O 0.10012 0.08327 0.59728 0.0
O525 O 0.10234 0.05102 0.55406 0.0
O526 O 0.07938 0.04517 0.64325 0.0
O527 O 0.08399 0.101 0.64636 0.0
H528 H 0.08437 0.17555 0.54748 0.0
H529 H 0.07037 0.20818 0.50502 0.0
H530 H 0.98377 0.18626 0.52314 0.0
H531 H 0.99764 0.15467 0.5662 0.0
H532 H 0.06613 0.9818 0.64617 0.0
H533 H 0.0735 0.94926 0.69071 0.0
H534 H 0.12963 0.90624 0.63828 0.0
H535 H 0.12261 0.93941 0.59354 0.0
Tb536 Tb 0.31668 0.77453 0.83823 0.0
Tb537 Tb 0.31956 0.84874 0.84506 0.0
C538 C 0.32093 0.71622 0.82926 0.0
C539 C 0.3439 0.6996 0.83226 0.0
C540 C 0.36628 0.70666 0.81479 0.0
C541 C 0.38857 0.69137 0.81979 0.0
C542 C 0.38843 0.66865 0.84211 0.0
C543 C 0.36616 0.66197 0.85987 0.0
C544 C 0.34402 0.67734 0.85491 0.0
C545 C 0.29055 0.79661 0.8842 0.0
C546 C 0.37505 0.82987 0.87668 0.0
C547 C 0.31557 0.90714 0.85381 0.0
C548 C 0.29399 0.92542 0.8554 0.0
C549 C 0.27321 0.91803 0.87501 0.0
C550 C 0.25405 0.9374 0.87759 0.0
C551 C 0.25551 0.96394 0.86015 0.0
C552 C 0.27529 0.97043 0.83919 0.0
C553 C 0.29457 0.95121 0.8369 0.0
C554 C 0.34756 0.82799 0.80081 0.0
C555 C 0.26049 0.7931 0.80957 0.0
O556 O 0.31731 0.73231 0.80386 0.0
O557 O 0.31959 0.73276 0.85876 0.0
O558 O 0.31351 0.81303 0.87731 0.0
O559 O 0.28396 0.76614 0.86788 0.0
O560 O 0.36262 0.79853 0.86033 0.0
O561 O 0.36027 0.85227 0.87986 0.0
O562 O 0.3222 0.89226 0.87948 0.0
O563 O 0.3128 0.88897 0.82347 0.0
O564 O 0.32432 0.81076 0.80664 0.0
O565 O 0.35232 0.85847 0.81606 0.0
O566 O 0.27369 0.82441 0.82537 0.0
O567 O 0.27482 0.77042 0.80516 0.0
H568 H 0.36641 0.72352 0.79712 0.0
H569 H 0.40553 0.69674 0.80572 0.0
H570 H 0.36521 0.64391 0.87658 0.0
H571 H 0.32686 0.67171 0.86867 0.0
H572 H 0.27232 0.89805 0.88895 0.0
H573 H 0.23884 0.93244 0.894 0.0
H574 H 0.27657 0.99115 0.82583 0.0
H575 H 0.3104 0.95695 0.82138 0.0
Tb576 Tb 0.53721 0.06322 0.06794 0.0
Tb577 Tb 0.59354 0.07286 0.12086 0.0
C578 C 0.48743 0.03721 0.02982 0.0
C579 C 0.45851 1.02059 0.03417 0.0
C580 C 0.45533 0.99919 0.05778 0.0
C581 C 0.42787 0.97923 0.05767 0.0
C582 C 0.4032 0.98045 0.03406 0.0
C583 C 0.40625 1.00362 0.01214 0.0
C584 C 0.43376 0.02355 0.01219 0.0
C585 C 0.56655 0.12569 0.09591 0.0
C586 C 0.53556 0.06643 0.15006 0.0
C587 C 0.64303 0.10153 0.15819 0.0
C588 C 0.67268 0.11542 0.15418 0.0
C589 C 0.67851 0.13878 0.13286 0.0
C590 C 0.70715 0.15597 0.134 0.0
C591 C 0.73019 0.1501 0.15652 0.0
C592 C 0.72444 0.1253 0.17612 0.0
C593 C 0.69583 0.10797 0.17485 0.0
C594 C 0.56359 1.0108 0.09621 0.0
C595 C 0.59464 0.06586 0.03808 0.0
O596 O 0.50706 1.02104 0.03596 0.0
O597 O 0.49761 0.06937 0.04243 0.0
O598 O 0.56377 0.1003 0.10918 0.0
O599 O 0.55029 0.11631 0.0647 0.0
O600 O 0.5208 0.05953 0.11693 0.0
O601 O 0.56455 0.0731 0.1576 0.0
O602 O 0.62399 0.11727 0.14746 0.0
O603 O 0.63242 0.06888 0.15057 0.0
O604 O 0.56646 0.03484 0.08067 0.0
O605 O 0.58038 1.02116 0.1271 0.0
O606 O 0.60946 0.0717 0.0711 0.0
O607 O 0.56602 0.06237 0.031 0.0
H608 H 0.47417 0.99671 0.07518 0.0
H609 H 0.42619 0.9615 0.07473 0.0
H610 H 0.38747 1.00545 0.99413 0.0
H611 H 0.43583 0.0402 0.99406 0.0
H612 H 0.66102 0.1449 0.11653 0.0
H613 H 0.71122 0.1752 0.11886 0.0
H614 H 0.74205 0.12034 0.19344 0.0
H615 H 0.69175 0.08992 0.19129 0.0
Tb616 Tb 0.28859 0.28578 0.32529 0.0
Tb617 Tb 0.34304 0.3354 0.36071 0.0
C618 C 0.237 0.25106 0.31257 0.0
C619 C 0.21101 0.26077 0.31873 0.0
C620 C 0.20554 0.26384 0.35195 0.0
C621 C 0.18373 0.27773 0.35933 0.0
C622 C 0.16665 0.28848 0.33362 0.0
C623 C 0.17134 0.28442 0.30009 0.0
C624 C 0.19329 0.27052 0.29265 0.0
C625 C 0.31847 0.31273 0.28415 0.0
C626 C 0.28813 0.36472 0.35218 0.0
C627 C 0.39519 0.36712 0.37075 0.0
C628 C 0.41946 0.3538 0.36382 0.0
C629 C 0.42296 0.34701 0.32986 0.0
C630 C 0.44322 0.33052 0.32222 0.0
C631 C 0.46084 0.32076 0.34833 0.0
C632 C 0.45769 0.32777 0.38238 0.0
C633 C 0.4372 0.34423 0.39008 0.0
C634 C 0.31379 0.30884 0.40243 0.0
C635 C 0.34321 0.25632 0.3355 0.0
O636 O 0.25638 0.25211 0.34033 0.0
O637 O 0.24891 0.26401 0.2892 0.0
O638 O 0.31491 0.32757 0.31177 0.0
O639 O 0.30396 0.28138 0.27778 0.0
O640 O 0.27319 0.33246 0.33912 0.0
O641 O 0.31707 0.37234 0.3619 0.0
O642 O 0.37552 0.36651 0.34344 0.0
O643 O 0.3835 0.35709 0.39557 0.0
O644 O 0.31675 0.29369 0.3745 0.0
O645 O 0.32866 0.34013 0.40856 0.0
O646 O 0.35786 0.28841 0.3491 0.0
O647 O 0.31444 0.24858 0.32447 0.0
H648 H 0.21877 0.25664 0.3727 0.0
H649 H 0.18081 0.28096 0.38553 0.0
H650 H 0.15818 0.29219 0.27975 0.0
H651 H 0.19696 0.26833 0.26678 0.0
H652 H 0.40955 0.35365 0.30884 0.0
H653 H 0.44484 0.32507 0.29563 0.0
H654 H 0.47123 0.32085 0.40305 0.0
H655 H 0.4349 0.34894 0.41645 0.0
Tb656 Tb 0.55936 0.59295 0.09591 0.0
Tb657 Tb 0.57337 0.53088 0.08812 0.0
C658 C 0.55217 0.64928 0.09314 0.0
C659 C 0.54377 0.66541 0.06492 0.0
C660 C 0.55618 0.66389 0.0361 0.0
C661 C 0.54722 0.67922 0.00926 0.0
C662 C 0.52553 0.69568 0.0109 0.0
C663 C 0.5125 0.69594 0.03924 0.0
C664 C 0.52163 0.68096 0.06609 0.0
C665 C 0.52041 0.54521 0.11099 0.0
C666 C 0.5451 0.5474 0.0213 0.0
C667 C 0.58409 0.47614 0.08983 0.0
C668 C 0.5891 0.4583 0.11728 0.0
C669 C 0.57534 0.46154 0.1447 0.0
C670 C 0.5794 0.44328 0.17025 0.0
C671 C 0.5974 0.42205 0.16852 0.0
C672 C 0.6129 0.42082 0.14253 0.0
C673 C 0.60866 0.43895 0.1168 0.0
C674 C 0.61176 0.57931 0.07339 0.0
C675 C 0.58562 0.57466 0.16281 0.0
O676 O 0.57766 0.64357 0.09689 0.0
O677 O 0.53176 0.62382 0.0958 0.0
O678 O 0.5326 0.54202 0.08602 0.0
O679 O 0.52956 0.57575 0.12773 0.0
O680 O 0.55105 0.57817 0.03928 0.0
O681 O 0.54768 0.52258 0.0368 0.0
O682 O 0.55769 0.47899 0.08096 0.0
O683 O 0.60416 0.50411 0.09353 0.0
O684 O 0.5998 0.58165 0.09851 0.0
O685 O 0.60236 0.54921 0.05573 0.0
O686 O 0.57884 0.54395 0.14442 0.0
O687 O 0.58457 0.60004 0.14755 0.0
H688 H 0.57293 0.65124 0.03448 0.0
H689 H 0.55758 0.67886 0.98766 0.0
H690 H 0.49617 0.7091 0.04149 0.0
H691 H 0.51161 0.6818 0.08799 0.0
H692 H 0.56071 0.47719 0.14573 0.0
H693 H 0.56734 0.44426 0.19027 0.0
H694 H 0.62665 0.40418 0.14088 0.0
H695 H 0.61989 0.43711 0.09603 0.0
Tb696 Tb 0.8148 0.27195 0.33901 0.0
Tb697 Tb 0.81895 0.3463 0.34724 0.0
C698 C 0.81863 0.21351 0.33014 0.0
C699 C 0.8414 0.19683 0.3329 0.0
C700 C 0.86886 0.21181 0.32768 0.0
C701 C 0.8908 0.19595 0.33294 0.0
C702 C 0.88553 0.16565 0.34456 0.0
C703 C 0.85823 0.15131 0.35064 0.0
C704 C 0.83624 0.16677 0.34465 0.0
C705 C 0.78654 0.29298 0.3829 0.0
C706 C 0.87285 0.32581 0.38046 0.0
C707 C 0.81546 0.40497 0.35686 0.0
C708 C 0.79374 0.42299 0.35878 0.0
C709 C 0.76984 0.41106 0.37266 0.0
C710 C 0.75034 0.42981 0.37623 0.0
C711 C 0.75416 0.46004 0.36467 0.0
C712 C 0.77711 0.47105 0.34889 0.0
C713 C 0.79702 0.45267 0.34624 0.0
C714 C 0.84854 0.32576 0.30477 0.0
C715 C 0.76022 0.29183 0.30733 0.0
O716 O 0.81533 0.22967 0.30479 0.0
O717 O 0.81755 0.23016 0.35971 0.0
O718 O 0.81033 0.30966 0.3781 0.0
O719 O 0.78018 0.2629 0.36568 0.0
O720 O 0.86055 0.29504 0.36262 0.0
O721 O 0.85796 0.34803 0.38422 0.0
O722 O 0.82152 0.38941 0.38211 0.0
O723 O 0.81301 0.38732 0.32634 0.0
O724 O 0.82438 0.30897 0.30869 0.0
O725 O 0.85416 0.35594 0.32145 0.0
O726 O 0.77318 0.32269 0.32475 0.0
O727 O 0.77461 0.26916 0.3033 0.0
H728 H 0.87342 0.23577 0.32009 0.0
H729 H 0.9118 0.2073 0.32815 0.0
H730 H 0.85366 0.12767 0.35916 0.0
H731 H 0.81526 0.15545 0.34956 0.0
H732 H 0.76643 0.38754 0.38085 0.0
H733 H 0.73245 0.4209 0.38808 0.0
H734 H 0.78021 0.49442 0.33981 0.0
H735 H 0.81515 0.4618 0.33485 0.0
Tb736 Tb 0.03706 0.55876 0.56714 0.0
Tb737 Tb 0.09514 0.5705 0.62023 0.0
C738 C 0.98775 0.53031 0.52891 0.0
C739 C 0.95844 0.5139 0.53253 0.0
C740 C 0.95405 0.48855 0.55181 0.0
C741 C 0.92603 0.46911 0.5501 0.0
C742 C 0.90187 0.47479 0.52929 0.0
C743 C 0.90619 0.50177 0.51206 0.0
C744 C 0.9343 0.52111 0.51359 0.0
C745 C 0.06278 0.62062 0.60147 0.0
C746 C 0.03608 0.56038 0.64923 0.0
C747 C 0.14426 0.60729 0.65161 0.0
C748 C 0.17488 0.61857 0.64962 0.0
C749 C 0.18374 0.64677 0.63512 0.0
C750 C 0.21303 0.66227 0.63878 0.0
C751 C 0.2343 0.65005 0.65706 0.0
C752 C 0.22557 0.62074 0.66994 0.0
C753 C 0.19602 0.60516 0.66638 0.0
C754 C 0.06893 0.50839 0.59369 0.0
C755 C 0.09464 0.56368 0.53658 0.0
O756 O 1.00767 0.51499 0.53731 0.0
O757 O 0.9974 0.56286 0.5393 0.0
O758 O 0.06231 0.5933 0.60991 0.0
O759 O 0.04524 0.614 0.57111 0.0
O760 O 1.02145 0.55035 0.61592 0.0
O761 O 0.06531 0.57139 0.65694 0.0
O762 O 0.12594 0.61595 0.62883 0.0
O763 O 0.13372 0.57726 0.65774 0.0
O764 O 0.06903 0.53317 0.57937 0.0
O765 O 0.0876 0.51815 0.62357 0.0
O766 O 0.10932 0.56657 0.56921 0.0
O767 O 0.06629 0.56206 0.53019 0.0
H768 H 0.97229 0.48265 0.56694 0.0
H769 H 0.92346 0.44846 0.56358 0.0
H770 H 0.88791 0.50719 0.49646 0.0
H771 H 0.93723 0.54078 0.49882 0.0
H772 H 0.16811 0.65819 0.62253 0.0
H773 H 0.21891 0.68509 0.62904 0.0
H774 H 0.24157 0.61054 0.68377 0.0
H775 H 0.18982 0.58362 0.67801 0.0
Tb776 Tb 0.7881 0.82146 0.34127 0.0
Tb777 Tb 0.84406 0.79775 0.35093 0.0
C778 C 0.7387 0.82968 0.34221 0.0
C779 C 0.71674 0.82818 0.36353 0.0
C780 C 0.70184 0.79779 0.37065 0.0
C781 C 0.67894 0.79619 0.38741 0.0
C782 C 0.66977 0.82481 0.39665 0.0
C783 C 0.68505 0.85538 0.39005 0.0
C784 C 0.70827 0.85703 0.37375 0.0
C785 C 0.83351 0.86156 0.32816 0.0
C786 C 0.82685 0.8278 0.41645 0.0
C787 C 0.89369 0.79018 0.35019 0.0
C788 C 0.91548 0.79139 0.32875 0.0
C789 C 0.92588 0.81969 0.31509 0.0
C790 C 0.94909 0.82196 0.29872 0.0
C791 C 0.96288 0.79622 0.29632 0.0
C792 C 0.95181 0.76742 0.30902 0.0
C793 C 0.92835 0.76503 0.32495 0.0
C794 C 0.79829 0.75748 0.36344 0.0
C795 C 0.80527 0.79044 0.27593 0.0
O796 O 0.74289 0.80135 0.32884 0.0
O797 O 0.76296 0.85394 0.35287 0.0
O798 O 0.83392 0.84429 0.35129 0.0
O799 O 0.8069 0.86017 0.31457 0.0
O800 O 0.80133 0.82645 0.39707 0.0
O801 O 0.84845 0.82146 0.40357 0.0
O802 O 0.88914 0.81858 0.36258 0.0
O803 O 0.86969 0.76553 0.34025 0.0
O804 O 0.79829 0.77512 0.34069 0.0
O805 O 0.82484 0.75854 0.37706 0.0
O806 O 0.83064 0.79142 0.29524 0.0
O807 O 0.78385 0.79788 0.28844 0.0
H808 H 0.70703 0.7749 0.36201 0.0
H809 H 0.6675 0.77212 0.39159 0.0
H810 H 0.67882 0.87802 0.39706 0.0
H811 H 0.71903 0.88073 0.36814 0.0
H812 H 0.91695 0.8407 0.31837 0.0
H813 H 0.95715 0.84461 0.28952 0.0
H814 H 0.96165 0.74694 0.30721 0.0
H815 H 0.92091 0.743 0.33543 0.0
Tb816 Tb 0.82156 0.29662 0.81773 0.0
Tb817 Tb 0.80529 0.32411 0.87241 0.0
C818 C 0.83773 0.28463 0.76315 0.0
C819 C 0.83867 0.30285 0.73536 0.0
C820 C 0.82012 0.3233 0.73013 0.0
C821 C 0.81553 0.33417 0.69926 0.0
C822 C 0.82926 0.32423 0.67345 0.0
C823 C 0.85158 0.30885 0.68133 0.0
C824 C 0.85603 0.29774 0.71227 0.0
C825 C 0.85526 0.28999 0.87441 0.0
C826 C 0.84075 0.37652 0.83933 0.0
C827 C 0.78913 0.33703 0.92701 0.0
C828 C 0.78832 0.31963 0.95544 0.0
C829 C 0.80504 0.2971 0.95933 0.0
C830 C 0.81078 0.28704 0.99047 0.0
C831 C 0.8002 0.29997 0.01809 0.0
C832 C 0.77945 0.31784 0.01205 0.0
C833 C 0.77379 0.32808 0.98072 0.0
C834 C 0.77147 0.33012 0.81548 0.0
C835 C 0.78624 0.24394 0.85025 0.0
O836 O 0.81157 0.27092 0.76673 0.0
O837 O 0.8556 0.30062 0.79227 0.0
O838 O 0.84705 0.31596 0.87052 0.0
O839 O 0.84417 0.2676 0.84672 0.0
O840 O 0.83311 0.35028 0.8137 0.0
O841 O 0.83501 0.37164 0.86923 0.0
O842 O 0.81529 0.35034 0.92322 0.0
O843 O 0.77135 0.32042 0.89805 0.0
O844 O 0.77972 0.30431 0.8199 0.0
O845 O 0.78288 0.35297 0.84277 0.0
O846 O 0.79344 0.27017 0.8759 0.0
O847 O 0.79218 0.24892 0.82048 0.0
H848 H 0.80704 0.32806 0.74829 0.0
H849 H 0.79839 0.34628 0.69408 0.0
H850 H 0.86298 0.30187 0.662 0.0
H851 H 0.87116 0.2829 0.71683 0.0
H852 H 0.81622 0.29014 0.93978 0.0
H853 H 0.82668 0.27303 0.99404 0.0
H854 H 0.77029 0.32713 0.03274 0.0
H855 H 0.76015 0.34478 0.9774 0.0
Tb856 Tb 0.78822 0.78644 0.82453 0.0
Tb857 Tb 0.84171 0.83455 0.86366 0.0
C858 C 0.73626 0.75236 0.80979 0.0
C859 C 0.71057 0.7622 0.81708 0.0
C860 C 0.70543 0.76425 0.85045 0.0
C861 C 0.68404 0.77835 0.85904 0.0
C862 C 0.66703 0.79038 0.83441 0.0
C863 C 0.67137 0.7873 0.80069 0.0
C864 C 0.69292 0.77321 0.79206 0.0
C865 C 0.81981 0.81457 0.78511 0.0
C866 C 0.78737 0.86475 0.85282 0.0
C867 C 0.89406 0.86693 0.88182 0.0
C868 C 0.91904 0.85516 0.87518 0.0
C869 C 0.92326 0.84948 0.84144 0.0
C870 C 0.94405 0.83382 0.83405 0.0
C871 C 0.96126 0.82369 0.86018 0.0
C872 C 0.95741 0.82959 0.89397 0.0
C873 C 0.93651 0.84536 0.90145 0.0
C874 C 0.8093 0.80679 0.90206 0.0
C875 C 0.84271 0.75646 0.83552 0.0
O876 O 0.75532 0.75117 0.83683 0.0
O877 O 0.74866 0.76698 0.78767 0.0
O878 O 0.81629 0.82881 0.81319 0.0
O879 O 0.80404 0.78364 0.77749 0.0
O880 O 0.7725 0.83273 0.83871 0.0
O881 O 0.81617 0.87196 0.86382 0.0
O882 O 0.87631 0.87007 0.85465 0.0
O883 O 0.88009 0.8522 0.90269 0.0
O884 O 0.81393 0.79227 0.87488 0.0
O885 O 0.82369 0.83819 0.90892 0.0
O886 O 0.85718 0.78836 0.85018 0.0
O887 O 0.81403 0.749 0.82344 0.0
H888 H 0.71861 0.75611 0.87045 0.0
H889 H 0.68147 0.78078 0.88537 0.0
H890 H 0.65829 0.79601 0.78112 0.0
H891 H 0.69635 0.77187 0.76612 0.0
H892 H 0.91002 0.85627 0.8204 0.0
H893 H 0.94646 0.82928 0.80769 0.0
H894 H 0.97072 0.8223 0.91457 0.0
H895 H 0.93353 0.84919 0.9276 0.0
Tb896 Tb 0.53652 0.53872 0.57312 0.0
Tb897 Tb 0.59553 0.58039 0.61497 0.0
C898 C 0.48253 0.52064 0.55487 0.0
C899 C 0.46381 0.54215 0.56257 0.0
C900 C 0.46744 0.55866 0.59675 0.0
C901 C 0.4558 0.58526 0.60362 0.0
C902 C 0.44042 0.59611 0.57654 0.0
C903 C 0.43506 0.57836 0.54258 0.0
C904 C 0.44676 0.55153 0.53563 0.0
C905 C 0.57696 0.54995 0.53752 0.0
C906 C 0.55384 0.61981 0.58742 0.0
C907 C 0.64933 0.59807 0.63452 0.0
C908 C 0.66736 0.57528 0.6288 0.0
C909 C 0.66354 0.55697 0.5953 0.0
C910 C 0.67461 0.52973 0.59022 0.0
C911 C 0.68995 0.52042 0.61834 0.0
C912 C 0.69515 0.53929 0.65167 0.0
C913 C 0.68365 0.56655 0.65693 0.0
C914 C 0.55482 0.56869 0.65009 0.0
C915 C 0.57809 0.4991 0.60145 0.0
O916 O 0.49688 0.5124 0.58162 0.0
O917 O 0.49901 0.53027 0.53386 0.0
O918 O 0.57363 0.56945 0.56222 0.0
O919 O 0.55564 0.5226 0.53055 0.0
O920 O 0.53329 0.59099 0.58219 0.0
O921 O 0.58154 0.62186 0.59872 0.0
O922 O 0.63568 0.60527 0.6066 0.0
O923 O 0.63236 0.59046 0.65558 0.0
O924 O 0.55859 0.54957 0.62552 0.0
O925 O 0.57586 0.59632 0.65725 0.0
O926 O 0.59867 0.52804 0.60752 0.0
O927 O 0.55056 0.49699 0.58879 0.0
H928 H 0.48074 0.55248 0.61821 0.0
H929 H 0.45984 0.59824 0.6301 0.0
H930 H 0.42328 0.58637 0.5213 0.0
H931 H 0.44401 0.53948 0.50909 0.0
H932 H 0.65071 0.56249 0.573 0.0
H933 H 0.67082 0.51554 0.56427 0.0
H934 H 0.70722 0.53232 0.67353 0.0
H935 H 0.68635 0.57983 0.68298 0.0
Tb936 Tb 0.09366 0.56285 0.07816 0.0
Tb937 Tb 0.03501 0.55504 0.10406 0.0
C938 C 0.14452 0.56248 0.07432 0.0
C939 C 0.16505 0.54162 0.07931 0.0
C940 C 0.18233 0.54314 0.11195 0.0
C941 C 0.20425 0.52666 0.11527 0.0
C942 C 0.2095 0.50838 0.08602 0.0
C943 C 0.1912 0.50565 0.05366 0.0
C944 C 0.16949 0.5222 0.05034 0.0
C945 C 0.05052 0.57036 0.0286 0.0
C946 C 0.051 0.49055 0.07425 0.0
C947 C 0.9841 0.55446 0.10817 0.0
C948 C 0.96276 0.57352 0.10036 0.0
C949 C 0.95828 0.5854 0.06952 0.0
C950 C 0.93647 0.60146 0.06211 0.0
C951 C 0.91872 0.60598 0.08538 0.0
C952 C 0.92414 0.59513 0.11681 0.0
C953 C 0.9459 0.57909 0.12416 0.0
C954 C 0.07802 0.54738 0.15346 0.0
C955 C 0.07757 0.62734 0.1079 0.0
O956 O 0.13839 0.57801 0.1016 0.0
O957 O 0.12175 0.55029 0.04845 0.0
O958 O 0.04979 0.56364 0.05837 0.0
O959 O 0.07726 0.5735 0.02662 0.0
O960 O 0.07722 0.50895 0.07395 0.0
O961 O 0.03007 0.50338 0.08164 0.0
O962 O 0.99028 0.53713 0.08204 0.0
O963 O 1.00708 0.56978 0.13303 0.0
O964 O 0.07875 0.55411 0.12373 0.0
O965 O 0.05133 0.54429 0.15553 0.0
O966 O 0.05133 0.60888 0.10799 0.0
O967 O 0.09857 0.61467 0.10034 0.0
H968 H 0.17961 0.55794 0.13482 0.0
H969 H 0.21789 0.52952 0.14061 0.0
H970 H 0.19397 0.49119 0.0306 0.0
H971 H 0.15668 0.52054 0.02477 0.0
H972 H 0.97132 0.58187 0.05095 0.0
H973 H 0.93338 0.61013 0.03801 0.0
H974 H 0.91092 0.59793 0.1353 0.0
H975 H 0.94914 0.57033 0.14823 0.0
C976 C 1.0176 0.18951 0.07789 0.0
C977 C 0.02882 0.20384 0.05188 0.0
H978 H 1.017 0.15197 0.10913 0.0
C979 C 0.04941 0.19099 0.03827 0.0
H980 H 1.00203 0.19897 0.08936 0.0
C981 C 0.0584 0.16457 0.05033 0.0
C982 C 0.0467 0.15006 0.07584 0.0
H983 H 0.05852 0.20122 0.01823 0.0
H984 H 0.07401 0.15496 0.03908 0.0
C985 C 0.02617 0.16269 0.08939 0.0
C986 C 0.22077 0.83495 0.23668 0.0
C987 C 0.19494 0.83781 0.24654 0.0
H988 H 0.26321 0.82781 0.25168 0.0
C989 C 0.19266 0.83507 0.2803 0.0
H990 H 0.22331 0.83662 0.21077 0.0
C991 C 0.21567 0.83011 0.3036 0.0
C992 C 0.24139 0.82721 0.2937 0.0
H993 H 0.17311 0.83669 0.28876 0.0
H994 H 0.2133 0.82855 0.3296 0.0
C995 C 0.24363 0.82945 0.25991 0.0
C996 C 0.5558 0.90364 0.54025 0.0
C997 C 0.53796 0.88393 0.55767 0.0
H998 H 0.57383 0.95281 0.53182 0.0
C999 C 0.52495 0.89975 0.58113 0.0
H1000 H 0.56589 0.89226 0.52172 0.0
C1001 C 0.52891 0.93429 0.58619 0.0
C1002 C 0.54639 0.95381 0.56839 0.0
H1003 H 0.5109 0.88534 0.59481 0.0
H1004 H 0.51847 0.94575 0.60424 0.0
C1005 C 0.56016 0.93827 0.5458 0.0
C1006 C 0.53908 0.34479 0.79053 0.0
C1007 C 0.54154 0.32573 0.76013 0.0
H1008 H 0.51251 0.35246 0.82594 0.0
C1009 C 0.5178 0.29833 0.74215 0.0
H1010 H 0.55689 0.36589 0.8052 0.0
C1011 C 0.49211 0.29063 0.75408 0.0
C1012 C 0.48953 0.31032 0.7841 0.0
H1013 H 0.51894 0.28301 0.71865 0.0
H1014 H 0.47408 0.26976 0.73944 0.0
C1015 C 0.51348 0.33721 0.80231 0.0
C1016 C 0.06435 0.84714 0.68963 0.0
C1017 C 0.08437 0.84589 0.71882 0.0
H1018 H 0.05513 0.87429 0.65014 0.0
C1019 C 0.11095 0.87104 0.73087 0.0
H1020 H 0.04398 0.82779 0.67963 0.0
C1021 C 0.11729 0.89742 0.71391 0.0
C1022 C 0.09703 0.8985 0.68509 0.0
H1023 H 0.12681 0.87036 0.75331 0.0
H1024 H 0.13765 0.91692 0.7233 0.0
C1025 C 0.07072 0.87341 0.67278 0.0
C1026 C 0.45371 0.83064 0.88465 0.0
C1027 C 0.46726 0.86508 0.89082 0.0
H1028 H 0.41374 0.79234 0.87651 0.0
C1029 C 0.45061 0.88775 0.8931 0.0
H1030 H 0.46651 0.81286 0.88443 0.0
C1031 C 0.42074 0.87629 0.88977 0.0
C1032 C 0.40701 0.84185 0.88429 0.0
H1033 H 0.46097 0.91446 0.89911 0.0
H1034 H 0.40847 0.89452 0.89136 0.0
C1035 C 0.42373 0.81906 0.88122 0.0
C1036 C 0.54478 0.1743 0.16439 0.0
C1037 C 0.5721 0.19358 0.1842 0.0
H1038 H 0.5214 0.13916 0.11797 0.0
C1039 C 0.59651 0.19676 0.16963 0.0
H1040 H 0.52562 0.17192 0.17491 0.0
C1041 C 0.59415 0.17776 0.13721 0.0
C1042 C 0.56722 0.15634 0.11864 0.0
H1043 H 0.61781 0.21178 0.18442 0.0
H1044 H 0.61372 0.17745 0.12818 0.0
C1045 C 0.54228 0.15628 0.13152 0.0
C1046 C 0.10724 0.30693 0.37424 0.0
C1047 C 0.10518 0.33712 0.36431 0.0
H1048 H 0.12779 0.26758 0.37155 0.0
C1049 C 0.12241 0.35038 0.34252 0.0
H1050 H 0.09408 0.29588 0.3908 0.0
C1051 C 0.14195 0.3341 0.33163 0.0
C1052 C 0.14442 0.30437 0.34236 0.0
H1053 H 0.12126 0.37361 0.33451 0.0
H1054 H 0.15574 0.3453 0.31575 0.0
C1055 C 0.12658 0.29071 0.36331 0.0
C1056 C 0.02347 1.00771 0.20068 0.0
C1057 C 1.01783 0.02862 0.22742 0.0
H1058 H 0.03956 1.00419 0.15487 0.0
C1059 C 0.02408 0.06324 0.22786 0.0
H1060 H 1.01871 0.98098 0.19957 0.0
C1061 C 0.03665 0.07678 0.20257 0.0
C1062 C 0.0424 0.05577 0.17597 0.0
H1063 H 1.01996 0.07997 0.24828 0.0
H1064 H 0.042 0.10355 0.20389 0.0
C1065 C 0.03526 1.02107 0.17499 0.0
C1066 C 0.34614 0.77895 0.59506 0.0
C1067 C 0.35827 0.81097 0.61621 0.0
H1068 H 0.31662 0.74946 0.54863 0.0
C1069 C 0.34791 0.83768 0.6078 0.0
H1070 H 0.35279 0.75752 0.60168 0.0
C1071 C 0.32693 0.8329 0.57772 0.0
C1072 C 0.31589 0.80125 0.5557 0.0
H1073 H 0.35633 0.86236 0.62416 0.0
H1074 H 0.3208 0.85455 0.5707 0.0
C1075 C 0.32491 0.77406 0.56519 0.0
C1076 C 0.63152 0.07651 0.74202 0.0
C1077 C 0.63392 0.0463 0.75255 0.0
H1078 H 0.61356 0.10097 0.70339 0.0
C1079 C 0.62124 1.01669 0.72715 0.0
H1080 H 0.64075 0.10011 0.76021 0.0
C1081 C 0.6053 1.01743 0.69371 0.0
C1082 C 0.60218 0.04779 0.68403 0.0
H1083 H 0.62205 0.99281 0.7337 0.0
H1084 H 0.59411 0.99395 0.67596 0.0
C1085 C 0.6161 0.07723 0.70886 0.0
C1086 C 0.34917 0.32815 0.00969 0.0
C1087 C 0.33895 0.354 0.02472 0.0
H1088 H 0.35345 0.30007 0.96311 0.0
C1089 C 0.32287 0.36983 1.00323 0.0
H1090 H 0.36149 0.31529 0.02549 0.0
C1091 C 0.31808 0.36076 0.96742 0.0
C1092 C 0.32973 0.33622 0.95276 0.0
H1093 H 0.3149 0.38998 0.014 0.0
H1094 H 0.30619 0.37373 0.95124 0.0
C1095 C 0.34487 0.31961 0.97404 0.0
C1096 C 0.03374 1.00264 0.4282 0.0
C1097 C 0.0263 0.026 0.4093 0.0
H1098 H 0.04469 0.99081 0.47777 0.0
C1099 C 0.02566 0.05713 0.42718 0.0
H1100 H 0.03411 0.97835 0.41527 0.0
C1101 C 0.03168 0.06435 0.46325 0.0
C1102 C 0.03807 0.04041 0.48201 0.0
H1103 H 1.01981 0.07563 0.4133 0.0
H1104 H 0.03082 0.08836 0.47634 0.0
C1105 C 0.03938 1.00968 0.4641 0.0
C1106 C 0.42261 0.83281 0.78816 0.0
C1107 C 0.41888 0.80068 0.76973 0.0
H1108 H 0.40241 0.86672 0.81097 0.0
C1109 C 0.39352 0.77535 0.76832 0.0
H1110 H 0.44205 0.85272 0.78992 0.0
C1111 C 0.36987 0.78369 0.77871 0.0
C1112 C 0.37228 0.81682 0.79269 0.0
H1113 H 0.39039 0.75012 0.75473 0.0
H1114 H 0.34921 0.76498 0.77309 0.0
C1115 C 0.39942 0.8409 0.79921 0.0
C1116 C 0.60925 0.06177 0.94583 0.0
C1117 C 0.63514 0.05159 0.94683 0.0
H1118 H 0.57719 0.0742 0.97163 0.0
C1119 C 0.64785 0.04585 0.97935 0.0
H1120 H 0.5983 0.06696 0.92211 0.0
C1121 C 0.63543 0.05076 0.00896 0.0
C1122 C 0.60962 0.06137 0.00746 0.0
H1123 H 0.66783 0.03853 0.98231 0.0
H1124 H 0.64607 0.04605 0.0331 0.0
C1125 C 0.59688 0.06624 0.97484 0.0
C1126 C 0.34956 0.32795 0.20731 0.0
C1127 C 0.34958 0.3613 0.20658 0.0
H1128 H 0.33926 0.28642 0.23231 0.0
C1129 C 0.33964 0.37891 0.23198 0.0
H1130 H 0.35688 0.31369 0.18782 0.0
C1131 C 0.33025 0.36343 0.25803 0.0
C1132 C 0.32987 0.32989 0.25825 0.0
H1133 H 0.33949 0.40462 0.23195 0.0
H1134 H 0.32271 0.3774 0.27752 0.0
C1135 C 0.33945 0.31229 0.23264 0.0
C1136 C 0.17478 0.93985 0.05 0.0
C1137 C 0.19576 0.9259 0.06614 0.0
H1138 H 0.1557 0.98052 0.05281 0.0
C1139 C 0.2117 0.94094 0.10002 0.0
H1140 H 0.16188 0.92861 0.02413 0.0
C1141 C 0.20808 0.97079 0.11647 0.0
C1142 C 0.18872 0.9859 0.09903 0.0
H1143 H 0.22792 0.93059 0.11316 0.0
H1144 H 0.2214 0.9829 0.14193 0.0
C1145 C 0.17133 0.9696 0.06629 0.0
C1146 C 0.6724 0.65833 0.08728 0.0
C1147 C 0.68964 0.64864 0.06543 0.0
H1148 H 0.63454 0.6438 0.10737 0.0
C1149 C 0.68133 0.6158 0.0465 0.0
H1150 H 0.67856 0.68347 0.10253 0.0
C1151 C 0.65562 0.59331 0.04871 0.0
C1152 C 0.6384 0.60318 0.07053 0.0
H1153 H 0.69425 0.60783 0.0295 0.0
H1154 H 0.64934 0.56815 0.03351 0.0
C1155 C 0.64719 0.63572 0.09008 0.0
C1156 C 0.70522 0.51497 0.34975 0.0
C1157 C 0.70525 0.52847 0.38383 0.0
H1158 H 0.72097 0.48226 0.31706 0.0
C1159 C 0.71978 0.51743 0.41137 0.0
H1160 H 0.69413 0.52302 0.32799 0.0
C1161 C 0.7347 0.49376 0.40491 0.0
C1162 C 0.73548 0.48138 0.37096 0.0
H1163 H 0.71998 0.52737 0.43781 0.0
H1164 H 0.74654 0.48605 0.42643 0.0
C1165 C 0.72045 0.49172 0.34339 0.0
C1166 C 0.82875 0.41463 0.48321 0.0
C1167 C 0.81971 0.40083 0.51029 0.0
H1168 H 0.86191 0.44919 0.46808 0.0
C1169 C 0.83681 0.41259 0.544 0.0
H1170 H 0.81526 0.40671 0.45729 0.0
C1171 C 0.86325 0.43721 0.55041 0.0
C1172 C 0.87277 0.45074 0.52322 0.0
H1173 H 0.82967 0.40273 0.56534 0.0
H1174 H 0.8762 0.44572 0.57662 0.0
C1175 C 0.8551 0.43941 0.4896 0.0
C1176 C 0.3919 0.20045 0.36879 0.0
C1177 C 0.38904 0.17465 0.3402 0.0
H1178 H 0.38134 0.24515 0.38979 0.0
C1179 C 0.37089 0.17678 0.30901 0.0
H1180 H 0.40508 0.20046 0.3936 0.0
C1181 C 0.35607 0.2026 0.30719 0.0
C1182 C 0.3593 0.22837 0.33608 0.0
H1183 H 0.36727 0.15784 0.28616 0.0
H1184 H 0.34209 0.20241 0.28286 0.0
C1185 C 0.37802 0.2266 0.36668 0.0
C1186 C 0.36252 0.15403 0.59402 0.0
C1187 C 0.34721 0.14883 0.55953 0.0
H1188 H 0.39769 0.14584 0.62923 0.0
C1189 C 0.35616 0.13022 0.53379 0.0
H1190 H 0.35645 0.16857 0.6145 0.0
C1191 C 0.37962 0.11689 0.54225 0.0
C1192 C 0.39499 0.12201 0.57669 0.0
H1193 H 0.34485 0.12562 0.50699 0.0
H1194 H 0.38531 0.10197 0.52174 0.0
C1195 C 0.38618 0.14091 0.60248 0.0
C1196 C 0.72865 0.72662 0.39218 0.0
C1197 C 0.72264 0.69178 0.38188 0.0
H1198 H 0.75736 0.77483 0.39409 0.0
C1199 C 0.74249 0.67886 0.36667 0.0
H1200 H 0.71402 0.73732 0.40437 0.0
C1201 C 0.76723 0.70034 0.36092 0.0
C1202 C 0.77243 0.73507 0.36993 0.0
H1203 H 0.73851 0.65215 0.35825 0.0
H1204 H 0.78195 0.68984 0.34868 0.0
C1205 C 0.75331 0.74809 0.38612 0.0
C1206 C 0.8736 0.44765 0.79546 0.0
C1207 C 0.88222 0.47649 0.82189 0.0
H1208 H 0.85402 0.3946 0.77984 0.0
C1209 C 0.87549 0.47235 0.85392 0.0
H1210 H 0.87917 0.44935 0.77081 0.0
C1211 C 0.86156 0.44038 0.85952 0.0
C1212 C 0.85392 0.41135 0.83331 0.0
H1213 H 0.88276 0.49345 0.87541 0.0
H1214 H 0.8577 0.43826 0.88486 0.0
C1215 C 0.85953 0.4159 0.8009 0.0
C1216 C 0.11644 0.9472 0.1529 0.0
C1217 C 0.10085 0.9146 0.13558 0.0
H1218 H 0.12161 0.99961 0.15568 0.0
C1219 C 0.07829 0.90998 0.10645 0.0
H1220 H 0.13395 0.95135 0.17538 0.0
C1221 C 0.07147 0.93767 0.0948 0.0
C1222 C 0.08749 0.97043 0.11173 0.0
H1223 H 0.06612 0.88498 0.09257 0.0
H1224 H 0.05389 0.93345 0.07239 0.0
C1225 C 0.10975 0.9748 0.14118 0.0
C1226 C 0.91596 0.30408 0.95412 0.0
C1227 C 0.93228 0.28291 0.94277 0.0
H1228 H 0.87928 0.32374 0.94135 0.0
C1229 C 0.92388 0.26563 0.90845 0.0
H1230 H 0.92217 0.31809 0.98042 0.0
C1231 C 0.89899 0.26836 0.88644 0.0
C1232 C 0.88243 0.28922 0.8979 0.0
H1233 H 0.93598 0.24925 0.89895 0.0
H1234 H 0.89266 0.25395 0.86031 0.0
C1235 C 0.89151 0.30755 0.93181 0.0
C1236 C 0.61093 0.21878 0.6075 0.0
C1237 C 0.59328 0.23422 0.62427 0.0
H1238 H 0.62016 0.17297 0.5894 0.0
C1239 C 0.56986 0.21411 0.6342 0.0
H1240 H 0.6294 0.23359 0.59995 0.0
C1241 C 0.56452 0.17935 0.62807 0.0
C1242 C 0.58281 0.16402 0.61244 0.0
H1243 H 0.55601 0.22528 0.64741 0.0
H1244 H 0.54648 0.16457 0.63638 0.0
C1245 C 0.60589 0.18406 0.60189 0.0
C1246 C 0.61203 0.79806 0.44721 0.0
C1247 C 0.5917 0.81517 0.43596 0.0
H1248 H 0.65291 0.78843 0.44458 0.0
C1249 C 0.59762 0.83607 0.41238 0.0
H1250 H 0.60842 0.7822 0.46582 0.0
C1251 C 0.62302 0.83946 0.4 0.0
C1252 C 0.64335 0.82226 0.41111 0.0
H1253 H 0.58243 0.84959 0.40313 0.0
H1254 H 0.62642 0.85508 0.38115 0.0
C1255 C 0.63757 0.80166 0.43505 0.0
C1256 C 1.01599 0.25812 0.45098 0.0
C1257 C 1.01096 0.28384 0.47345 0.0
H1258 H 0.02446 0.20997 0.44555 0.0
C1259 C 1.01171 0.28184 0.50793 0.0
H1260 H 1.01596 0.25978 0.42437 0.0
C1261 C 1.01697 0.2542 0.51986 0.0
C1262 C 1.02109 0.22801 0.49734 0.0
H1263 H 1.00902 0.30207 0.52589 0.0
H1264 H 1.01802 0.25331 0.54685 0.0
C1265 C 1.02093 0.23001 0.46293 0.0
C1266 C 0.68573 0.29477 0.31619 0.0
C1267 C 0.67115 0.26073 0.31244 0.0
H1268 H 0.72427 0.33106 0.31501 0.0
C1269 C 0.68518 0.23659 0.30267 0.0
H1270 H 0.67553 0.31418 0.32309 0.0
C1271 C 0.71359 0.24645 0.2979 0.0
C1272 C 0.72831 0.28061 0.30261 0.0
H1273 H 0.67429 0.21017 0.29882 0.0
H1274 H 0.7244 0.22737 0.2921 0.0
C1275 C 0.71365 0.30451 0.31087 0.0
C1276 C 0.5301 0.93154 0.03243 0.0
C1277 C 0.55448 0.92727 0.02013 0.0
H1278 H 0.51409 0.96196 0.06731 0.0
C1279 C 0.58231 0.94716 0.03766 0.0
H1280 H 0.50833 0.91649 0.01934 0.0
C1281 C 0.58549 0.9724 0.06582 0.0
C1282 C 0.56088 0.97812 0.07632 0.0
H1283 H 0.60136 0.94428 0.02868 0.0
H1284 H 0.60692 0.98922 0.07757 0.0
C1285 C 0.53328 0.95716 0.06011 0.0
C1286 C 0.02323 0.80952 0.82284 0.0
C1287 C 0.02642 0.77954 0.83261 0.0
H1288 H 1.0005 0.84679 0.82423 0.0
C1289 C 1.00855 0.76454 0.85293 0.0
H1290 H 0.03661 0.822 0.80725 0.0
C1291 C 0.98752 0.77913 0.86272 0.0
C1292 C 0.98413 0.80864 0.85204 0.0
H1293 H 1.01045 0.74141 0.86067 0.0
H1294 H 0.97344 0.76696 0.87779 0.0
C1295 C 1.0024 0.8238 0.83239 0.0
C1296 C 0.10384 0.05442 0.95469 0.0
C1297 C 0.11326 0.08918 0.95663 0.0
H1298 H 0.08453 1.01486 0.97866 0.0
C1299 C 0.113 0.11092 0.98636 0.0
H1300 H 0.10401 0.03713 0.93205 0.0
C1301 C 0.10294 0.09819 0.01338 0.0
C1302 C 0.09195 0.06351 0.01071 0.0
H1303 H 0.12061 0.13777 0.98873 0.0
H1304 H 0.10286 0.11564 0.0359 0.0
C1305 C 0.09283 0.04167 0.98133 0.0
C1306 C 0.78646 0.28104 0.58466 0.0
C1307 C 0.77298 0.30508 0.57475 0.0
H1308 H 0.81567 0.26877 0.62364 0.0
C1309 C 0.78068 0.33701 0.5961 0.0
H1310 H 0.78133 0.25651 0.56841 0.0
C1311 C 0.80121 0.34454 0.62709 0.0
C1312 C 0.814 0.3201 0.63749 0.0
H1313 H 0.77119 0.35645 0.58873 0.0
H1314 H 0.80634 0.36902 0.64347 0.0
C1315 C 0.80676 0.28846 0.61582 0.0
C1316 C 0.52215 0.10407 0.44849 0.0
C1317 C 0.49402 0.08245 0.43444 0.0
H1318 H 0.56128 0.11767 0.48863 0.0
C1319 C 0.48329 0.05926 0.45461 0.0
H1320 H 0.53195 0.12132 0.43365 0.0
C1321 C 0.50023 0.0572 0.48681 0.0
C1322 C 0.529 0.07772 0.49976 0.0
H1323 H 0.46229 0.04108 0.44433 0.0
H1324 H 0.49158 0.03779 0.5001 0.0
C1325 C 0.53918 0.10168 0.48022 0.0
C1326 C 0.80457 0.74621 0.18772 0.0
C1327 C 0.79456 0.76711 0.167 0.0
H1328 H 0.81547 0.7373 0.239 0.0
C1329 C 0.7893 0.79645 0.18274 0.0
H1330 H 0.80846 0.72323 0.17633 0.0
C1331 C 0.79255 0.80387 0.21833 0.0
C1332 C 0.80159 0.78238 0.23868 0.0
H1333 H 0.78174 0.81315 0.16746 0.0
H1334 H 0.78807 0.82638 0.22999 0.0
C1335 C 0.80827 0.75397 0.22342 0.0
C1336 C 0.10005 0.06302 0.75401 0.0
C1337 C 0.10094 0.09455 0.77248 0.0
H1338 H 0.09467 0.03231 0.70452 0.0
C1339 C 0.0956 0.11913 0.75412 0.0
H1340 H 0.10421 0.04354 0.76747 0.0
C1341 C 0.09076 0.1129 0.71821 0.0
C1342 C 0.09081 0.08179 0.69975 0.0
H1343 H 0.09647 0.14375 0.76752 0.0
H1344 H 0.08725 0.13273 0.70498 0.0
C1345 C 0.09487 0.05664 0.71798 0.0
C1346 C 0.71447 0.29359 0.40222 0.0
C1347 C 0.72097 0.32516 0.42328 0.0
H1348 H 0.73076 0.25832 0.37453 0.0
C1349 C 0.7477 0.34865 0.42578 0.0
H1350 H 0.694 0.27508 0.39987 0.0
C1351 C 0.76948 0.33856 0.41244 0.0
C1352 C 0.76395 0.30576 0.39486 0.0
H1353 H 0.75305 0.37343 0.44154 0.0
H1354 H 0.79093 0.35572 0.41745 0.0
C1355 C 0.73589 0.28382 0.38854 0.0
C1356 C 0.48152 0.08109 0.2093 0.0
C1357 C 0.49304 0.07148 0.24015 0.0
H1358 H 0.48485 0.08666 0.15707 0.0
C1359 C 0.51837 0.06041 0.23988 0.0
H1360 H 0.46211 0.08954 0.20745 0.0
C1361 C 0.53144 0.05893 0.21121 0.0
C1362 C 0.51987 0.06772 0.18021 0.0
H1363 H 0.52844 0.05244 0.26231 0.0
H1364 H 0.55073 0.05021 0.21328 0.0
C1365 C 0.49452 0.079 0.17993 0.0
C1366 C 0.79069 0.74065 0.95533 0.0
C1367 C 0.78484 0.7596 0.98348 0.0
H1368 H 0.80224 0.74069 0.90628 0.0
C1369 C 0.78668 0.79354 0.98413 0.0
H1370 H 0.78922 0.71439 0.95425 0.0
C1371 C 0.79416 0.80843 0.95725 0.0
C1372 C 0.79961 0.78965 0.92886 0.0
H1373 H 0.78249 0.80878 1.00569 0.0
H1374 H 0.79572 0.83477 0.95874 0.0
C1375 C 0.79776 0.75557 0.92787 0.0
C1376 C 0.9009 0.16412 0.06901 0.0
C1377 C 0.91685 0.18867 0.09824 0.0
H1378 H 0.89732 0.11687 0.03768 0.0
C1379 C 0.9433 0.18579 0.11658 0.0
H1380 H 0.88048 0.16581 0.05434 0.0
C1381 C 0.95249 0.15763 0.10751 0.0
C1382 C 0.93585 0.13225 0.07938 0.0
H1383 H 0.95622 0.20437 0.13912 0.0
H1384 H 0.97226 0.15531 0.12311 0.0
C1385 C 0.91049 0.13618 0.05948 0.0
C1386 C 0.45649 0.46862 0.09594 0.0
C1387 C 0.44296 0.47692 0.12268 0.0
H1388 H 0.49151 0.48368 0.07111 0.0
C1389 C 0.45485 0.5079 0.14537 0.0
H1390 H 0.44762 0.44477 0.07809 0.0
C1391 C 0.48031 0.52993 0.14171 0.0
C1392 C 0.49395 0.52147 0.11502 0.0
H1393 H 0.44505 0.51457 0.16645 0.0
H1394 H 0.48943 0.55352 0.15991 0.0
C1395 C 0.48164 0.49073 0.09201 0.0
C1396 C 0.42768 0.60802 0.81271 0.0
C1397 C 0.43791 0.59878 0.84381 0.0
H1398 H 0.40389 0.63769 0.78797 0.0
C1399 C 0.43521 0.61599 0.87503 0.0
H1400 H 0.42969 0.59533 0.78824 0.0
C1401 C 0.42084 0.6408 0.87487 0.0
C1402 C 0.40894 0.64838 0.84348 0.0
H1403 H 0.44338 0.60967 0.89939 0.0
H1404 H 0.41798 0.65307 0.89906 0.0
C1405 C 0.41323 0.63259 0.81255 0.0
C1406 C 0.31025 0.69808 0.70794 0.0
C1407 C 0.3208 0.71526 0.68363 0.0
H1408 H 0.27426 0.66348 0.71841 0.0
C1409 C 0.30399 0.70917 0.64997 0.0
H1410 H 0.3233 0.70235 0.73392 0.0
C1411 C 0.27639 0.68665 0.64081 0.0
C1412 C 0.2651 0.67004 0.66532 0.0
H1413 H 0.31216 0.72206 0.63082 0.0
H1414 H 0.26369 0.68265 0.61469 0.0
C1415 C 0.28249 0.67557 0.69885 0.0
C1416 C 0.773 0.95092 0.88534 0.0
C1417 C 0.74551 0.95063 0.86527 0.0
H1418 H 0.80685 0.92663 0.89753 0.0
C1419 C 0.73146 0.92035 0.84059 0.0
H1420 H 0.78529 0.97276 0.90493 0.0
C1421 C 0.74419 0.89259 0.83672 0.0
C1422 C 0.77199 0.89356 0.8568 0.0
H1423 H 0.7104 0.91782 0.8243 0.0
H1424 H 0.73225 0.87037 0.81745 0.0
C1425 C 0.78578 0.92381 0.88109 0.0
C1426 C 0.75249 0.94784 0.56449 0.0
C1427 C 0.7756 0.95685 0.59387 0.0
H1428 H 0.71299 0.95624 0.53912 0.0
C1429 C 0.7759 0.98211 0.62106 0.0
H1430 H 0.75149 0.92844 0.54306 0.0
C1431 C 0.75356 0.99796 0.61887 0.0
C1432 C 0.73067 0.98919 0.58925 0.0
H1433 H 0.79325 0.98944 0.64414 0.0
H1434 H 0.75453 1.01755 0.64008 0.0
C1435 C 0.73041 0.96386 0.56216 0.0
C1436 C 0.38736 0.43847 0.82067 0.0
C1437 C 0.40711 0.42535 0.80546 0.0
H1438 H 0.34846 0.42786 0.83981 0.0
C1439 C 0.40159 0.39044 0.7966 0.0
H1440 H 0.39102 0.46524 0.82809 0.0
C1441 C 0.37744 0.36919 0.80389 0.0
C1442 C 0.35837 0.38244 0.82 0.0
H1443 H 0.41619 0.37955 0.78457 0.0
H1444 H 0.37378 0.34244 0.79692 0.0
C1445 C 0.36314 0.41718 0.82769 0.0
C1446 C 0.24456 0.64977 0.32634 0.0
C1447 C 0.24446 0.642 0.35933 0.0
H1448 H 0.25699 0.6872 0.29634 0.0
C1449 C 0.25894 0.66812 0.388 0.0
H1450 H 0.2324 0.63108 0.30355 0.0
C1451 C 0.27261 0.70068 0.38391 0.0
C1452 C 0.272 0.7087 0.35092 0.0
H1453 H 0.25841 0.6638 0.41378 0.0
H1454 H 0.28305 0.71989 0.40683 0.0
C1455 C 0.25825 0.68235 0.32219 0.0
C1456 C 0.55699 0.70059 0.55369 0.0
C1457 C 0.5285 0.70313 0.55176 0.0
H1458 H 0.58762 0.67288 0.56746 0.0
C1459 C 0.50876 0.6784 0.5623 0.0
H1460 H 0.57274 0.71919 0.54576 0.0
C1461 C 0.51711 0.65165 0.57413 0.0
C1462 C 0.54565 0.64938 0.5768 0.0
H1463 H 0.48659 0.67942 0.56071 0.0
H1464 H 0.50119 0.63258 0.58112 0.0
C1465 C 0.56558 0.67423 0.56648 0.0
C1466 C 0.70612 0.35852 0.7774 0.0
C1467 C 0.6925 0.33349 0.74803 0.0
H1468 H 0.74211 0.3774 0.82107 0.0
C1469 C 0.70458 0.30668 0.74114 0.0
H1470 H 0.69758 0.3797 0.78295 0.0
C1471 C 0.72997 0.30499 0.7631 0.0
C1472 C 0.74416 0.33056 0.79199 0.0
H1473 H 0.69451 0.28717 0.71837 0.0
H1474 H 0.73878 0.28412 0.75712 0.0
C1475 C 0.7318 0.35723 0.79895 0.0
C1476 C 0.05801 0.40348 0.04575 0.0
C1477 C 0.03535 0.38368 0.05714 0.0
H1478 H 0.08084 0.45291 0.04233 0.0
C1479 C 1.01819 0.39938 0.07455 0.0
H1480 H 0.07143 0.39207 0.03201 0.0
C1481 C 0.02306 0.43401 0.07965 0.0
C1482 C 0.04554 0.45382 0.06802 0.0
H1483 H 1.00026 0.38482 0.08319 0.0
H1484 H 1.00922 0.44522 0.09282 0.0
C1485 C 0.06326 0.43827 0.05147 0.0
C1486 C 0.03944 0.79587 0.28819 0.0
C1487 C 0.04202 0.80982 0.25882 0.0
H1488 H 1.01277 0.78092 0.32306 0.0
C1489 C 1.01811 0.81899 0.24156 0.0
H1490 H 0.05737 0.78861 0.30224 0.0
C1491 C 0.99236 0.81434 0.25342 0.0
C1492 C 0.98983 0.80034 0.28279 0.0
H1493 H 1.01917 0.82953 0.21867 0.0
H1494 H 0.97431 0.82141 0.23938 0.0
C1495 C 1.01373 0.7912 0.3 0.0
C1496 C 0.56552 0.34629 0.20066 0.0
C1497 C 0.59037 0.34139 0.22051 0.0
H1498 H 0.54863 0.37668 0.16896 0.0
C1499 C 0.61764 0.36453 0.22518 0.0
H1500 H 0.54428 0.32881 0.19688 0.0
C1501 C 0.6201 0.39184 0.20909 0.0
C1502 C 0.59521 0.39632 0.18898 0.0
H1503 H 0.63708 0.36102 0.24041 0.0
H1504 H 0.6413 0.40906 0.21179 0.0
C1505 C 0.56793 0.37374 0.1851 0.0
C1506 C 0.94726 0.385 0.3947 0.0
C1507 C 0.96387 0.36302 0.38788 0.0
H1508 H 0.90579 0.3906 0.39918 0.0
C1509 C 0.95091 0.32842 0.38057 0.0
H1510 H 0.95728 0.41178 0.40162 0.0
C1511 C 0.92146 0.31604 0.3801 0.0
C1512 C 0.90474 0.33817 0.38712 0.0
H1513 H 0.96378 0.31107 0.37686 0.0
H1514 H 0.91176 0.28921 0.37395 0.0
C1515 C 0.91802 0.37278 0.39436 0.0
C1516 C 0.08341 0.66758 0.69168 0.0
C1517 C 0.06554 0.68876 0.69103 0.0
H1518 H 0.09673 0.63057 0.6644 0.0
C1519 C 0.05057 0.69281 0.65914 0.0
H1520 H 0.09603 0.66498 0.71583 0.0
C1521 C 0.05133 0.67274 0.62827 0.0
C1522 C 0.06782 0.64959 0.62951 0.0
H1523 H 0.03749 0.71025 0.65829 0.0
H1524 H 0.03789 0.6739 0.60409 0.0
C1525 C 0.08463 0.64854 0.66153 0.0
C1526 C 0.60933 0.80962 0.87819 0.0
C1527 C 0.60709 0.83989 0.86863 0.0
H1528 H 0.62931 0.76983 0.87399 0.0
C1529 C 0.62365 0.85303 0.84617 0.0
H1530 H 0.59659 0.79858 0.89513 0.0
C1531 C 0.64273 0.83657 0.83426 0.0
C1532 C 0.64534 0.80665 0.84451 0.0
H1533 H 0.62234 0.87633 0.8384 0.0
H1534 H 0.65603 0.84775 0.8179 0.0
C1535 C 0.62812 0.79313 0.86614 0.0
C1536 C 0.52289 0.50702 0.70163 0.0
C1537 C 0.51729 0.52783 0.72846 0.0
H1538 H 0.53826 0.50357 0.65536 0.0
C1539 C 0.52294 0.56238 0.72866 0.0
H1540 H 0.51858 0.48035 0.7007 0.0
C1541 C 0.53484 0.57595 0.70296 0.0
C1542 C 0.54048 0.55503 0.67621 0.0
H1543 H 0.51884 0.57904 0.74916 0.0
H1544 H 0.53976 0.60269 0.70408 0.0
C1545 C 0.53399 0.5204 0.67555 0.0
C1546 C 0.85253 0.28543 0.09094 0.0
C1547 C 0.86238 0.31739 0.11212 0.0
H1548 H 0.823 0.25368 0.04571 0.0
C1549 C 0.84874 0.34199 0.10465 0.0
H1550 H 0.86175 0.2656 0.09738 0.0
C1551 C 0.82661 0.33531 0.07521 0.0
C1552 C 0.81738 0.30363 0.0532 0.0
H1553 H 0.85533 0.36639 0.1215 0.0
H1554 H 0.81782 0.35556 0.06892 0.0
C1555 C 0.82993 0.27841 0.06195 0.0
C1556 C 0.13963 0.56989 0.23494 0.0
C1557 C 0.13415 0.54097 0.24972 0.0
H1558 H 0.12762 0.59439 0.19311 0.0
C1559 C 0.11273 0.51252 0.22922 0.0
H1560 H 0.15534 0.59269 0.24994 0.0
C1561 C 0.09633 0.51381 0.19645 0.0
C1562 C 0.10115 0.5432 0.18236 0.0
H1563 H 0.10706 0.49004 0.23955 0.0
H1564 H 0.07863 0.49213 0.18282 0.0
C1565 C 0.12374 0.57092 0.20197 0.0
C1566 C 0.81818 0.86064 0.50516 0.0
C1567 C 0.84065 0.85231 0.52626 0.0
H1568 H 0.79606 0.8592 0.45357 0.0
C1569 C 0.85738 0.83425 0.51095 0.0
H1570 H 0.80497 0.87457 0.51629 0.0
C1571 C 0.85277 0.8262 0.47523 0.0
C1572 C 0.83098 0.83549 0.45412 0.0
H1573 H 0.875 0.82766 0.52653 0.0
H1574 H 0.86649 0.81297 0.4642 0.0
C1575 C 0.81319 0.852 0.46932 0.0
C1576 C 0.52542 0.55673 0.92829 0.0
C1577 C 0.52683 0.52591 0.91051 0.0
H1578 H 0.53 0.58781 0.9774 0.0
C1579 C 0.5353 0.50313 0.92953 0.0
H1580 H 0.51885 0.57481 0.91431 0.0
C1581 C 0.54102 0.51029 0.96542 0.0
C1582 C 0.53878 0.5406 0.98323 0.0
H1583 H 0.53636 0.47912 0.9167 0.0
H1584 H 0.54707 0.49181 0.97917 0.0
C1585 C 0.53155 0.56411 0.96437 0.0
C1586 C 0.88987 0.27055 0.26629 0.0
C1587 C 0.91571 0.29492 0.2671 0.0
H1588 H 0.84672 0.26237 0.27438 0.0
C1589 C 0.92182 0.32649 0.28819 0.0
H1590 H 0.88478 0.2456 0.25093 0.0
C1591 C 0.89999 0.33579 0.30154 0.0
C1592 C 0.87214 0.31326 0.29507 0.0
H1593 H 0.94184 0.34554 0.28998 0.0
H1594 H 0.90449 0.36143 0.31491 0.0
C1595 C 0.86776 0.28011 0.27926 0.0
C1596 C 0.11019 0.56342 0.44492 0.0
C1597 C 0.13514 0.55145 0.44498 0.0
H1598 H 0.07877 0.57654 0.47152 0.0
C1599 C 0.14676 0.54313 0.47657 0.0
H1600 H 0.10003 0.57051 0.42194 0.0
C1601 C 0.13428 0.54732 0.50622 0.0
C1602 C 0.10942 0.55969 0.5057 0.0
H1603 H 0.16592 0.53419 0.47879 0.0
H1604 H 0.14411 0.54062 0.52962 0.0
C1605 C 0.09771 0.56713 0.47396 0.0
C1606 C 0.82119 0.83919 0.69864 0.0
C1607 C 0.84498 0.86784 0.70754 0.0
H1608 H 0.79493 0.79937 0.71637 0.0
C1609 C 0.85996 0.87955 0.74208 0.0
H1610 H 0.80969 0.82952 0.67194 0.0
C1611 C 0.85133 0.86265 0.7675 0.0
C1612 C 0.82837 0.83311 0.75854 0.0
H1613 H 0.87875 0.90127 0.74926 0.0
H1614 H 0.86323 0.87217 0.79386 0.0
C1615 C 0.81308 0.82176 0.72393 0.0
C1616 C 0.73941 0.47135 0.59385 0.0
C1617 C 0.71943 0.44013 0.57889 0.0
H1618 H 0.74549 0.52152 0.61986 0.0
C1619 C 0.6908 0.43372 0.5829 0.0
H1620 H 0.76161 0.47658 0.5908 0.0
C1621 C 0.6815 0.45962 0.59853 0.0
C1622 C 0.70108 0.49148 0.61163 0.0
H1623 H 0.67505 0.40985 0.57106 0.0
H1624 H 0.65862 0.45553 0.59777 0.0
C1625 C 0.73033 0.49685 0.61059 0.0
C1626 C 0.18296 0.11576 0.54729 0.0
C1627 C 0.18983 0.14956 0.56289 0.0
H1628 H 0.15212 0.06749 0.53727 0.0
C1629 C 0.17141 0.16039 0.58236 0.0
H1630 H 0.19688 0.10685 0.53233 0.0
C1631 C 0.14636 0.138 0.58588 0.0
C1632 C 0.13883 0.1045 0.56925 0.0
H1633 H 0.17649 0.18632 0.59514 0.0
H1634 H 0.13273 0.14701 0.60119 0.0
C1635 C 0.15735 0.09344 0.55004 0.0
C1636 C 0.23681 0.03822 0.90201 0.0
C1637 C 0.21072 0.03651 0.87927 0.0
H1638 H 0.27141 1.01558 0.91338 0.0
C1639 C 0.19883 1.00981 0.85068 0.0
H1640 H 0.24643 0.05855 0.92411 0.0
C1641 C 0.21315 0.98549 0.84466 0.0
C1642 C 0.23924 0.98764 0.86728 0.0
H1643 H 0.17872 1.00791 0.8327 0.0
H1644 H 0.20414 0.96534 0.82226 0.0
C1645 C 0.25099 1.01379 0.89601 0.0
C1646 C 0.3396 0.92126 0.05504 0.0
C1647 C 0.32413 0.90306 0.02202 0.0
H1648 H 0.37682 0.96029 0.08479 0.0
C1649 C 0.334 0.91161 0.99305 0.0
H1650 H 0.33225 0.91536 0.07781 0.0
C1651 C 0.35912 0.93763 0.99699 0.0
C1652 C 0.37505 0.9553 0.03004 0.0
H1653 H 0.32212 0.89854 0.96733 0.0
H1654 H 0.3665 0.94333 0.97418 0.0
C1655 C 0.365 0.94697 0.05904 0.0
C1656 C 0.87021 0.6765 0.80852 0.0
C1657 C 0.88902 0.67465 0.83937 0.0
H1658 H 0.84079 0.7018 0.78286 0.0
C1659 C 0.89233 0.70077 0.86787 0.0
H1660 H 0.86607 0.65728 0.78577 0.0
C1661 C 0.87834 0.72692 0.86597 0.0
C1662 C 0.85893 0.72842 0.83574 0.0
H1663 H 0.9059 0.70095 0.89249 0.0
H1664 H 0.88209 0.74566 0.88905 0.0
C1665 C 0.85527 0.70231 0.80695 0.0
C1666 C 0.85275 0.62479 0.03382 0.0
C1667 C 0.84513 0.64569 0.05895 0.0
H1668 H 0.88137 0.59554 0.02245 0.0
C1669 C 0.8622 0.65391 0.09291 0.0
H1670 H 0.84005 0.61782 0.00747 0.0
C1671 C 0.88629 0.64153 0.10143 0.0
C1672 C 0.89381 0.62043 0.07627 0.0
H1673 H 0.85717 0.67023 0.11289 0.0
H1674 H 0.89915 0.64876 0.12771 0.0
C1675 C 0.87666 0.61223 0.04238 0.0
C1676 C 0.22589 0.18902 0.84537 0.0
C1677 C 0.21944 0.1921 0.87805 0.0
H1678 H 0.25519 0.20787 0.8145 0.0
C1679 C 0.23843 0.21657 0.90555 0.0
H1680 H 0.21137 0.17039 0.8238 0.0
C1681 C 0.26403 0.23717 0.90048 0.0
C1682 C 0.27014 0.23428 0.86759 0.0
H1683 H 0.23371 0.21936 0.9309 0.0
H1684 H 0.27874 0.25571 0.92198 0.0
C1685 C 0.25078 0.2104 0.84002 0.0
C1686 C 0.37692 0.94666 0.29466 0.0
C1687 C 0.38202 0.97612 0.31945 0.0
H1688 H 0.35968 0.89324 0.2801 0.0
C1689 C 0.37091 0.97271 0.34913 0.0
H1690 H 0.38569 0.94789 0.27188 0.0
C1691 C 0.35635 0.9408 0.35435 0.0
C1692 C 0.35239 0.91119 0.33007 0.0
H1693 H 0.3752 0.99441 0.36945 0.0
H1694 H 0.34917 0.93926 0.37812 0.0
C1695 C 0.36224 0.915 0.29967 0.0
C1696 C 0.62195 0.44504 0.64178 0.0
C1697 C 0.60053 0.41522 0.63974 0.0
H1698 H 0.63182 0.4946 0.6315 0.0
C1699 C 0.57145 0.41301 0.6251 0.0
H1700 H 0.64449 0.44755 0.65333 0.0
C1701 C 0.56417 0.43983 0.61181 0.0
C1702 C 0.58579 0.4696 0.61328 0.0
H1703 H 0.55448 0.39026 0.62309 0.0
H1704 H 0.54157 0.43725 0.60057 0.0
C1705 C 0.61468 0.47192 0.62899 0.0
C1706 C 0.42165 0.80927 0.45089 0.0
C1707 C 0.43489 0.78387 0.44211 0.0
H1708 H 0.38681 0.8314 0.43642 0.0
C1709 C 0.42265 0.76105 0.41083 0.0
H1710 H 0.43076 0.82729 0.47495 0.0
C1711 C 0.39712 0.76288 0.38938 0.0
C1712 C 0.38362 0.78811 0.3982 0.0
H1713 H 0.43219 0.74111 0.40357 0.0
H1714 H 0.38791 0.7443 0.36574 0.0
C1715 C 0.39649 0.81166 0.42897 0.0
C1716 C 0.10747 0.7188 0.10634 0.0
C1717 C 0.09299 0.73421 0.12824 0.0
H1718 H 0.11436 0.67304 0.08331 0.0
C1719 C 0.07292 0.71398 0.14281 0.0
H1720 H 0.12321 0.73358 0.09481 0.0
C1721 C 0.06778 0.6792 0.13602 0.0
C1722 C 0.08297 0.66403 0.11502 0.0
H1723 H 0.06162 0.72502 0.16006 0.0
H1724 H 0.0524 0.66426 0.14787 0.0
C1725 C 0.10269 0.68412 0.10005 0.0
C1726 C 0.12584 0.34147 0.96243 0.0
C1727 C 0.10133 0.31335 0.95292 0.0
H1728 H 0.16726 0.36556 0.95379 0.0
C1729 C 0.10016 0.28754 0.92582 0.0
H1730 H 0.12751 0.36189 0.98315 0.0
C1731 C 0.1232 0.28959 0.90907 0.0
C1732 C 0.14776 0.31768 0.91876 0.0
H1733 H 0.08168 0.26551 0.91791 0.0
H1734 H 0.12165 0.26931 0.88827 0.0
C1735 C 0.14865 0.34367 0.9455 0.0
C1736 C 0.48583 0.7464 0.96267 0.0
C1737 C 0.50936 0.77212 0.96024 0.0
H1738 H 0.47256 0.70021 0.97933 0.0
C1739 C 0.53757 0.76823 0.96708 0.0
H1740 H 0.46385 0.74864 0.95683 0.0
C1741 C 0.54257 0.74087 0.98029 0.0
C1742 C 0.51935 0.71703 0.98638 0.0
H1743 H 0.5561 0.78774 0.96528 0.0
H1744 H 0.56482 0.74021 0.98883 0.0
C1745 C 0.49079 0.71876 0.97536 0.0
C1746 C 0.18579 0.73908 0.80921 0.0
C1747 C 0.17179 0.76377 0.81687 0.0
H1748 H 0.22488 0.72882 0.79929 0.0
C1749 C 0.18663 0.79751 0.81991 0.0
H1750 H 0.17443 0.71283 0.80569 0.0
C1751 C 0.21453 0.80651 0.81454 0.0
C1752 C 0.22885 0.78209 0.8069 0.0
H1753 H 0.17617 0.81706 0.82527 0.0
H1754 H 0.22514 0.8329 0.81736 0.0
C1755 C 0.21421 0.74819 0.80428 0.0
C1756 C 0.0334 0.43338 0.52563 0.0
C1757 C 0.0571 0.42974 0.51149 0.0
H1758 H 1.01891 0.4612 0.5643 0.0
C1759 C 0.08537 0.448 0.52923 0.0
H1760 H 1.0113 0.41961 0.51266 0.0
C1761 C 0.0896 0.47135 0.55941 0.0
C1762 C 0.06558 0.47659 0.57177 0.0
H1763 H 0.10394 0.44547 0.51896 0.0
H1764 H 0.11132 0.4873 0.57139 0.0
C1765 C 0.03762 0.45685 0.55545 0.0
C1766 C 0.50849 0.26138 0.34339 0.0
C1767 C 0.5247 0.27381 0.32029 0.0
H1768 H 0.47515 0.26648 0.37043 0.0
C1769 C 0.52008 0.30198 0.30748 0.0
H1770 H 0.51161 0.2398 0.35371 0.0
C1771 C 0.49976 0.3172 0.31716 0.0
C1772 C 0.48318 0.30467 0.33974 0.0
H1773 H 0.53225 0.3126 0.28983 0.0
H1774 H 0.49713 0.33903 0.30696 0.0
C1775 C 0.48783 0.27675 0.35308 0.0
C1776 C 0.60579 0.55402 0.45646 0.0
C1777 C 0.61334 0.5887 0.45722 0.0
H1778 H 0.5879 0.51436 0.48122 0.0
C1779 C 0.61059 0.61033 0.48559 0.0
H1780 H 0.60777 0.53676 0.43488 0.0
C1781 C 0.60015 0.59761 0.51243 0.0
C1782 C 0.59143 0.56288 0.51105 0.0
H1783 H 0.61656 0.63714 0.48707 0.0
H1784 H 0.59799 0.61505 0.53372 0.0
C1785 C 0.59453 0.54118 0.48294 0.0
C1786 C 0.27741 0.83554 0.10053 0.0
C1787 C 0.27274 0.80465 0.07857 0.0
H1788 H 0.3019 0.86865 0.14786 0.0
C1789 C 0.29048 0.78395 0.08674 0.0
H1790 H 0.26452 0.85242 0.09422 0.0
C1791 C 0.31176 0.79317 0.11711 0.0
C1792 C 0.31587 0.82347 0.13992 0.0
H1793 H 0.28756 0.76026 0.06983 0.0
H1794 H 0.32366 0.77541 0.12356 0.0
C1795 C 0.29911 0.84509 0.13083 0.0
C1796 C 1.01504 0.60568 0.95338 0.0
C1797 C 0.99415 0.57709 0.93227 0.0
H1798 H 0.04879 0.6261 1.00016 0.0
C1799 C 0.98942 0.54768 0.94635 0.0
H1800 H 1.02017 0.62858 0.94364 0.0
C1801 C 1.00537 0.54643 0.97924 0.0
C1802 C 0.02733 0.57441 0.99955 0.0
H1803 H 0.97415 0.52477 0.93094 0.0
H1804 H 1.00198 0.52268 0.98756 0.0
C1805 C 0.03153 0.60418 0.98607 0.0
C1806 C 0.31717 0.26687 0.68561 0.0
C1807 C 0.29124 0.26873 0.66506 0.0
H1808 H 0.34214 0.27281 0.737 0.0
C1809 C 0.27035 0.27838 0.68082 0.0
H1810 H 0.33349 0.25932 0.67391 0.0
C1811 C 0.27484 0.28517 0.71647 0.0
C1812 C 0.30056 0.28302 0.73723 0.0
H1813 H 0.24988 0.27939 0.66559 0.0
H1814 H 0.25794 0.29188 0.72764 0.0
C1815 C 0.32198 0.27438 0.72157 0.0
C1816 C 0.59594 0.61815 0.25516 0.0
C1817 C 0.60222 0.59399 0.27361 0.0
H1818 H 0.58648 0.63123 0.20591 0.0
C1819 C 0.6018 0.56261 0.25526 0.0
H1820 H 0.5964 0.64264 0.26848 0.0
C1821 C 0.59612 0.55597 0.21919 0.0
C1822 C 0.59119 0.58078 0.20088 0.0
H1823 H 0.60664 0.54347 0.26882 0.0
H1824 H 0.59627 0.53177 0.20577 0.0
C1825 C 0.59069 0.6117 0.21924 0.0
C1826 C 0.25351 0.85393 0.92768 0.0
C1827 C 0.22711 0.83081 0.92741 0.0
H1828 H 0.29579 0.86 0.9169 0.0
C1829 C 0.21963 0.79897 0.90635 0.0
H1830 H 0.25974 0.87897 0.94313 0.0
C1831 C 0.2404 0.7883 0.89198 0.0
C1832 C 0.26841 0.80989 0.89669 0.0
H1833 H 0.19923 0.78077 0.90507 0.0
H1834 H 0.23489 0.76249 0.87873 0.0
C1835 C 0.27441 0.84311 0.91319 0.0
C1836 C 1.00842 0.59551 0.72912 0.0
C1837 C 0.98858 0.56716 0.73476 0.0
H1838 H 0.03874 0.61569 0.69917 0.0
C1839 C 0.98424 0.5369 0.71092 0.0
H1840 H 1.01343 0.61921 0.74682 0.0
C1841 C 0.99864 0.53493 0.68316 0.0
C1842 C 1.01927 0.56286 0.67827 0.0
H1843 H 0.96998 0.51404 0.71431 0.0
H1844 H 0.99436 0.51095 0.66619 0.0
C1845 C 0.0235 0.59331 0.70178 0.0
C1846 C 0.29244 0.24217 0.4543 0.0
C1847 C 0.28906 0.26165 0.48382 0.0
H1848 H 0.30218 0.24193 0.40433 0.0
C1849 C 0.29398 0.2963 0.48628 0.0
H1850 H 0.28847 0.21535 0.45182 0.0
C1851 C 0.30186 0.31138 0.45963 0.0
C1852 C 0.30459 0.29205 0.42972 0.0
H1853 H 0.29158 0.31183 0.50892 0.0
H1854 H 0.3056 0.3382 0.46236 0.0
C1855 C 0.2999 0.2573 0.42714 0.0
C1856 C 0.44367 0.68396 0.61616 0.0
C1857 C 0.41492 0.68473 0.60447 0.0
H1858 H 0.47388 0.655 0.61727 0.0
C1859 C 0.39522 0.65734 0.58051 0.0
H1860 H 0.45948 0.70477 0.63437 0.0
C1861 C 0.40376 0.62878 0.57013 0.0
C1862 C 0.43192 0.62723 0.58397 0.0
H1863 H 0.3729 0.65729 0.57107 0.0
H1864 H 0.38798 0.60737 0.55276 0.0
C1865 C 0.45193 0.65534 0.60643 0.0
C1866 C 0.96195 0.96499 0.60216 0.0
C1867 C 0.94404 0.97575 0.62252 0.0
H1868 H 0.99984 0.97852 0.58163 0.0
C1869 C 0.9511 1.00963 0.63798 0.0
H1870 H 0.95681 0.939 0.58957 0.0
C1871 C 0.97616 0.0321 0.63395 0.0
C1872 C 0.99408 1.02122 0.61364 0.0
H1873 H 0.93772 1.01853 0.65379 0.0
H1874 H 0.98144 0.05807 0.64666 0.0
C1875 C 0.98654 0.98754 0.59748 0.0
C1876 C 0.92804 0.10847 0.37555 0.0
C1877 C 0.93715 0.09827 0.3457 0.0
H1878 H 0.90474 0.13905 0.39881 0.0
C1879 C 0.9331 0.11443 0.3177 0.0
H1880 H 0.9313 0.09676 0.39766 0.0
C1881 C 0.9182 0.13866 0.31853 0.0
C1882 C 0.90714 0.1469 0.34729 0.0
H1883 H 0.94026 0.10733 0.2945 0.0
H1884 H 0.91361 0.14923 0.2958 0.0
C1885 C 0.91304 0.13267 0.37631 0.0
C1886 C 0.80145 0.19879 0.14185 0.0
C1887 C 0.8146 0.21885 0.17481 0.0
H1888 H 0.76387 0.16138 0.11003 0.0
C1889 C 0.80009 0.21536 0.20165 0.0
H1890 H 0.81211 0.2012 0.12061 0.0
C1891 C 0.773 0.19212 0.19574 0.0
C1892 C 0.75969 0.17258 0.16272 0.0
H1893 H 0.80967 0.23047 0.2272 0.0
H1894 H 0.76208 0.18997 0.21678 0.0
C1895 C 0.77397 0.17611 0.13573 0.0
C1896 C 0.23203 0.42008 0.34005 0.0
C1897 C 0.24604 0.45037 0.36472 0.0
H1898 H 0.23292 0.37014 0.31692 0.0
C1899 C 0.27356 0.45075 0.38479 0.0
H1900 H 0.21096 0.4175 0.32378 0.0
C1901 C 0.28641 0.4237 0.3805 0.0
C1902 C 0.27265 0.39343 0.35625 0.0
H1903 H 0.28581 0.47261 0.40437 0.0
H1904 H 0.30751 0.42658 0.39691 0.0
C1905 C 0.24482 0.39238 0.33619 0.0
C1906 C 0.27485 0.48188 0.06513 0.0
C1907 C 0.28429 0.46857 0.09383 0.0
H1908 H 0.24476 0.5054 0.04057 0.0
C1909 C 0.26868 0.46797 0.11998 0.0
H1910 H 0.28631 0.48284 0.04451 0.0
C1911 C 0.24425 0.48042 0.1174 0.0
C1912 C 0.23493 0.49399 0.08873 0.0
H1913 H 0.2751 0.45749 0.14223 0.0
H1914 H 0.2325 0.47908 0.13774 0.0
C1915 C 0.2507 0.49456 0.06271 0.0
C1916 C 0.89033 0.93991 0.32652 0.0
C1917 C 0.90695 0.92734 0.3055 0.0
H1918 H 0.85433 0.92853 0.35075 0.0
C1919 C 0.89869 0.8929 0.29144 0.0
H1920 H 0.89623 0.96629 0.33799 0.0
C1921 C 0.8747 0.87142 0.29884 0.0
C1922 C 0.85899 0.88393 0.32089 0.0
H1923 H 0.91094 0.8825 0.27503 0.0
H1924 H 0.8686 0.84503 0.28748 0.0
C1925 C 0.86658 0.91836 0.33416 0.0
C1926 C 0.75409 0.14765 0.83531 0.0
C1927 C 0.74569 0.14318 0.86643 0.0
H1928 H 0.77288 0.18227 0.80547 0.0
C1929 C 0.75249 0.17204 0.89257 0.0
H1930 H 0.74833 0.12651 0.81402 0.0
C1931 C 0.76626 0.2041 0.88762 0.0
C1932 C 0.77339 0.20893 0.85599 0.0
H1933 H 0.74567 0.17005 0.91651 0.0
H1934 H 0.77027 0.22537 0.90835 0.0
C1935 C 0.7677 0.17994 0.83018 0.0
loop_
_geom_bond_atom_site_label_1
_geom_bond_atom_site_label_2
_geom_bond_distance
_geom_bond_site_symmetry_2
_ccdc_geom_bond_type
Zn0 O3 2.031 . S
Zn0 O5 2.049 . S
Zn0 O10 2.067 . S
Zn1 O2 1.962 . S
Zn1 O4 1.986 . S
Zn1 O6 1.996 . S
Zn1 O9 1.943 1_455 S
O2 Zn1 1.962 . S
O2 C7 1.254 . S
O3 Zn0 2.031 . S
O3 C7 1.269 1_655 S
O4 Zn1 1.986 . S
O4 C11 1.262 . S
O5 Zn0 2.049 . S
O5 C13 1.260 . S
O6 Zn1 1.996 . S
O6 C13 1.257 1_455 S
C7 O2 1.254 . S
C7 O3 1.269 1_455 S
C8 O9 1.249 . S
C8 O10 1.270 . S
O9 Zn1 1.943 1_655 S
O9 C8 1.249 . S
O10 Zn0 2.067 . S
O10 C8 1.270 . S
C11 O4 1.262 . S
C11 O12 1.232 . S
O12 C11 1.232 . S
C13 O5 1.260 . S
C13 O6 1.257 1_655 S
Zn14 O17 2.031 . S
Zn14 O19 2.049 . S
Zn14 O24 2.067 . S
Zn15 O16 1.962 . S
Zn15 O18 1.986 . S
Zn15 O20 1.996 . S
Zn15 O23 1.943 . S
O16 Zn15 1.962 . S
O16 C21 1.254 . S
O17 Zn14 2.031 . S
O17 C21 1.269 . S
O18 Zn15 1.986 . S
O18 C25 1.262 . S
O19 Zn14 2.049 . S
O19 C27 1.260 . S
O20 Zn15 1.996 . S
O20 C27 1.257 . S
C21 O16 1.254 . S
C21 O17 1.269 . S
C22 O23 1.249 . S
C22 O24 1.270 . S
O23 Zn15 1.943 . S
O23 C22 1.249 . S
O24 Zn14 2.067 . S
O24 C22 1.270 . S
C25 O18 1.262 . S
C25 O26 1.232 . S
O26 C25 1.232 . S
C27 O19 1.260 . S
C27 O20 1.257 . S
Zn28 O31 2.031 . S
Zn28 O33 2.049 . S
Zn28 O38 2.067 . S
Zn29 O30 1.962 . S
Zn29 O32 1.986 . S
Zn29 O34 1.996 . S
Zn29 O37 1.943 . S
O30 Zn29 1.962 . S
O30 C35 1.254 . S
O31 Zn28 2.031 . S
O31 C35 1.269 . S
O32 Zn29 1.986 . S
O32 C39 1.262 . S
O33 Zn28 2.049 . S
O33 C41 1.260 . S
O34 Zn29 1.996 . S
O34 C41 1.257 . S
C35 O30 1.254 . S
C35 O31 1.269 . S
C36 O37 1.249 . S
C36 O38 1.270 . S
O37 Zn29 1.943 . S
O37 C36 1.249 . S
O38 Zn28 2.067 . S
O38 C36 1.270 . S
C39 O32 1.262 . S
C39 O40 1.232 . S
O40 C39 1.232 . S
C41 O33 1.260 . S
C41 O34 1.257 . S
Zn42 O45 2.031 . S
Zn42 O47 2.049 . S
Zn42 O52 2.067 . S
Zn43 O44 1.962 . S
Zn43 O46 1.986 . S
Zn43 O48 1.996 . S
Zn43 O51 1.943 . S
O44 Zn43 1.962 . S
O44 C49 1.254 . S
O45 Zn42 2.031 . S
O45 C49 1.269 . S
O46 Zn43 1.986 . S
O46 C53 1.262 . S
O47 Zn42 2.049 . S
O47 C55 1.260 . S
O48 Zn43 1.996 . S
O48 C55 1.257 . S
C49 O44 1.254 . S
C49 O45 1.269 . S
C50 O51 1.249 . S
C50 O52 1.270 . S
O51 Zn43 1.943 . S
O51 C50 1.249 . S
O52 Zn42 2.067 . S
O52 C50 1.270 . S
C53 O46 1.262 . S
C53 O54 1.232 . S
O54 C53 1.232 . S
C55 O47 1.260 . S
C55 O48 1.257 . S
Zn56 O59 2.031 . S
Zn56 O61 2.049 . S
Zn56 O66 2.067 . S
Zn57 O58 1.962 . S
Zn57 O60 1.986 . S
Zn57 O62 1.996 . S
Zn57 O65 1.943 . S
O58 Zn57 1.962 . S
O58 C63 1.254 . S
O59 Zn56 2.031 . S
O59 C63 1.269 . S
O60 Zn57 1.986 . S
O60 C67 1.262 . S
O61 Zn56 2.049 . S
O61 C69 1.260 . S
O62 Zn57 1.996 . S
O62 C69 1.257 . S
C63 O58 1.254 . S
C63 O59 1.269 . S
C64 O65 1.249 . S
C64 O66 1.270 . S
O65 Zn57 1.943 . S
O65 C64 1.249 . S
O66 Zn56 2.067 . S
O66 C64 1.270 . S
C67 O60 1.262 . S
C67 O68 1.232 . S
O68 C67 1.232 . S
C69 O61 1.260 . S
C69 O62 1.257 . S
Zn70 O73 2.031 . S
Zn70 O75 2.049 . S
Zn70 O80 2.067 . S
Zn71 O72 1.962 . S
Zn71 O74 1.986 . S
Zn71 O76 1.996 . S
Zn71 O79 1.943 . S
O72 Zn71 1.962 . S
O72 C77 1.254 . S
O73 Zn70 2.031 . S
O73 C77 1.269 . S
O74 Zn71 1.986 . S
O74 C81 1.262 . S
O75 Zn70 2.049 . S
O75 C83 1.260 . S
O76 Zn71 1.996 . S
O76 C83 1.257 . S
C77 O72 1.254 . S
C77 O73 1.269 . S
C78 O79 1.249 . S
C78 O80 1.270 . S
O79 Zn71 1.943 . S
O79 C78 1.249 . S
O80 Zn70 2.067 . S
O80 C78 1.270 . S
C81 O74 1.262 . S
C81 O82 1.232 . S
O82 C81 1.232 . S
C83 O75 1.260 . S
C83 O76 1.257 . S
Zn84 O87 2.031 . S
Zn84 O89 2.049 . S
Zn84 O94 2.067 . S
Zn85 O86 1.962 . S
Zn85 O88 1.986 . S
Zn85 O90 1.996 . S
Zn85 O93 1.943 . S
O86 Zn85 1.962 . S
O86 C91 1.254 . S
O87 Zn84 2.031 . S
O87 C91 1.269 . S
O88 Zn85 1.986 . S
O88 C95 1.262 . S
O89 Zn84 2.049 . S
O89 C97 1.260 . S
O90 Zn85 1.996 . S
O90 C97 1.257 . S
C91 O86 1.254 . S
C91 O87 1.269 . S
C92 O93 1.249 . S
C92 O94 1.270 . S
O93 Zn85 1.943 . S
O93 C92 1.249 . S
O94 Zn84 2.067 . S
O94 C92 1.270 . S
C95 O88 1.262 . S
C95 O96 1.232 . S
O96 C95 1.232 . S
C97 O89 1.260 . S
C97 O90 1.257 . S
Zn98 O101 2.031 . S
Zn98 O103 2.049 . S
Zn98 O108 2.067 1_554 S
Zn99 O100 1.962 1_556 S
Zn99 O102 1.986 . S
Zn99 O104 1.996 1_556 S
Zn99 O107 1.943 1_455 S
O100 Zn99 1.962 1_554 S
O100 C105 1.254 . S
O101 Zn98 2.031 . S
O101 C105 1.269 1_655 S
O102 Zn99 1.986 . S
O102 C109 1.262 . S
O103 Zn98 2.049 . S
O103 C111 1.260 . S
O104 Zn99 1.996 1_554 S
O104 C111 1.257 1_455 S
C105 O100 1.254 . S
C105 O101 1.269 1_455 S
C106 O107 1.249 . S
C106 O108 1.270 . S
O107 Zn99 1.943 1_655 S
O107 C106 1.249 . S
O108 Zn98 2.067 1_556 S
O108 C106 1.270 . S
C109 O102 1.262 . S
C109 O110 1.232 . S
O110 C109 1.232 . S
C111 O103 1.260 . S
C111 O104 1.257 1_655 S
Zn112 O115 2.031 1_565 S
Zn112 O117 2.049 1_565 S
Zn112 O122 2.067 . S
Zn113 O114 1.962 . S
Zn113 O116 1.986 . S
Zn113 O118 1.996 . S
Zn113 O121 1.943 . S
O114 Zn113 1.962 . S
O114 C119 1.254 . S
O115 Zn112 2.031 1_545 S
O115 C119 1.269 . S
O116 Zn113 1.986 . S
O116 C123 1.262 . S
O117 Zn112 2.049 1_545 S
O117 C125 1.260 . S
O118 Zn113 1.996 . S
O118 C125 1.257 . S
C119 O114 1.254 . S
C119 O115 1.269 . S
C120 O121 1.249 1_565 S
C120 O122 1.270 . S
O121 Zn113 1.943 . S
O121 C120 1.249 1_545 S
O122 Zn112 2.067 . S
O122 C120 1.270 . S
C123 O116 1.262 . S
C123 O124 1.232 . S
O124 C123 1.232 . S
C125 O117 1.260 . S
C125 O118 1.257 . S
Zn126 O129 2.031 . S
Zn126 O131 2.049 . S
Zn126 O136 2.067 . S
Zn127 O128 1.962 . S
Zn127 O130 1.986 . S
Zn127 O132 1.996 . S
Zn127 O135 1.943 . S
O128 Zn127 1.962 . S
O128 C133 1.254 . S
O129 Zn126 2.031 . S
O129 C133 1.269 . S
O130 Zn127 1.986 . S
O130 C137 1.262 . S
O131 Zn126 2.049 . S
O131 C139 1.260 . S
O132 Zn127 1.996 . S
O132 C139 1.257 . S
C133 O128 1.254 . S
C133 O129 1.269 . S
C134 O135 1.249 . S
C134 O136 1.270 . S
O135 Zn127 1.943 . S
O135 C134 1.249 . S
O136 Zn126 2.067 . S
O136 C134 1.270 . S
C137 O130 1.262 . S
C137 O138 1.232 . S
O138 C137 1.232 . S
C139 O131 1.260 . S
C139 O132 1.257 . S
Zn140 O143 2.031 . S
Zn140 O145 2.049 . S
Zn140 O150 2.067 . S
Zn141 O142 1.962 . S
Zn141 O144 1.986 . S
Zn141 O146 1.996 . S
Zn141 O149 1.943 . S
O142 Zn141 1.962 . S
O142 C147 1.254 . S
O143 Zn140 2.031 . S
O143 C147 1.269 . S
O144 Zn141 1.986 . S
O144 C151 1.262 . S
O145 Zn140 2.049 . S
O145 C153 1.260 . S
O146 Zn141 1.996 . S
O146 C153 1.257 . S
C147 O142 1.254 . S
C147 O143 1.269 . S
C148 O149 1.249 . S
C148 O150 1.270 . S
O149 Zn141 1.943 . S
O149 C148 1.249 . S
O150 Zn140 2.067 . S
O150 C148 1.270 . S
C151 O144 1.262 . S
C151 O152 1.232 . S
O152 C151 1.232 . S
C153 O145 1.260 . S
C153 O146 1.257 . S
Zn154 O157 2.031 1_554 S
Zn154 O159 2.049 . S
Zn154 O164 2.067 . S
Zn155 O156 1.962 . S
Zn155 O158 1.986 1_556 S
Zn155 O160 1.996 1_556 S
Zn155 O163 1.943 1_556 S
O156 Zn155 1.962 . S
O156 C161 1.254 . S
O157 Zn154 2.031 1_556 S
O157 C161 1.269 . S
O158 Zn155 1.986 1_554 S
O158 C165 1.262 1_554 S
O159 Zn154 2.049 . S
O159 C167 1.260 . S
O160 Zn155 1.996 1_554 S
O160 C167 1.257 . S
C161 O156 1.254 . S
C161 O157 1.269 . S
C162 O163 1.249 . S
C162 O164 1.270 . S
O163 Zn155 1.943 1_554 S
O163 C162 1.249 . S
O164 Zn154 2.067 . S
O164 C162 1.270 . S
C165 O158 1.262 1_556 S
C165 O166 1.232 . S
O166 C165 1.232 . S
C167 O159 1.260 . S
C167 O160 1.257 . S
Zn168 O171 2.031 . S
Zn168 O173 2.049 . S
Zn168 O178 2.067 . S
Zn169 O170 1.962 . S
Zn169 O172 1.986 . S
Zn169 O174 1.996 . S
Zn169 O177 1.943 . S
O170 Zn169 1.962 . S
O170 C175 1.254 . S
O171 Zn168 2.031 . S
O171 C175 1.269 . S
O172 Zn169 1.986 . S
O172 C179 1.262 . S
O173 Zn168 2.049 . S
O173 C181 1.260 . S
O174 Zn169 1.996 . S
O174 C181 1.257 . S
C175 O170 1.254 . S
C175 O171 1.269 . S
C176 O177 1.249 . S
C176 O178 1.270 . S
O177 Zn169 1.943 . S
O177 C176 1.249 . S
O178 Zn168 2.067 . S
O178 C176 1.270 . S
C179 O172 1.262 . S
C179 O180 1.232 . S
O180 C179 1.232 . S
C181 O173 1.260 . S
C181 O174 1.257 . S
Zn182 O185 2.031 . S
Zn182 O187 2.049 . S
Zn182 O192 2.067 . S
Zn183 O184 1.962 . S
Zn183 O186 1.986 . S
Zn183 O188 1.996 . S
Zn183 O191 1.943 . S
O184 Zn183 1.962 . S
O184 C189 1.254 . S
O185 Zn182 2.031 . S
O185 C189 1.269 . S
O186 Zn183 1.986 . S
O186 C193 1.262 . S
O187 Zn182 2.049 . S
O187 C195 1.260 . S
O188 Zn183 1.996 . S
O188 C195 1.257 . S
C189 O184 1.254 . S
C189 O185 1.269 . S
C190 O191 1.249 . S
C190 O192 1.270 . S
O191 Zn183 1.943 . S
O191 C190 1.249 . S
O192 Zn182 2.067 . S
O192 C190 1.270 . S
C193 O186 1.262 . S
C193 O194 1.232 . S
O194 C193 1.232 . S
C195 O187 1.260 . S
C195 O188 1.257 . S
Zn196 O199 2.031 . S
Zn196 O201 2.049 . S
Zn196 O206 2.067 . S
Zn197 O198 1.962 . S
Zn197 O200 1.986 . S
Zn197 O202 1.996 . S
Zn197 O205 1.943 . S
O198 Zn197 1.962 . S
O198 C203 1.254 . S
O199 Zn196 2.031 . S
O199 C203 1.269 . S
O200 Zn197 1.986 . S
O200 C207 1.262 . S
O201 Zn196 2.049 . S
O201 C209 1.260 . S
O202 Zn197 1.996 . S
O202 C209 1.257 . S
C203 O198 1.254 . S
C203 O199 1.269 . S
C204 O205 1.249 . S
C204 O206 1.270 . S
O205 Zn197 1.943 . S
O205 C204 1.249 . S
O206 Zn196 2.067 . S
O206 C204 1.270 . S
C207 O200 1.262 . S
C207 O208 1.232 . S
O208 C207 1.232 . S
C209 O201 1.260 . S
C209 O202 1.257 . S
Zn210 O213 2.031 . S
Zn210 O215 2.049 . S
Zn210 O220 2.067 . S
Zn211 O212 1.962 . S
Zn211 O214 1.986 . S
Zn211 O216 1.996 . S
Zn211 O219 1.943 . S
O212 Zn211 1.962 . S
O212 C217 1.254 . S
O213 Zn210 2.031 . S
O213 C217 1.269 . S
O214 Zn211 1.986 . S
O214 C221 1.262 . S
O215 Zn210 2.049 . S
O215 C223 1.260 . S
O216 Zn211 1.996 . S
O216 C223 1.257 . S
C217 O212 1.254 . S
C217 O213 1.269 . S
C218 O219 1.249 . S
C218 O220 1.270 . S
O219 Zn211 1.943 . S
O219 C218 1.249 . S
O220 Zn210 2.067 . S
O220 C218 1.270 . S
C221 O214 1.262 . S
C221 O222 1.232 . S
O222 C221 1.232 . S
C223 O215 1.260 . S
C223 O216 1.257 . S
Zn224 O227 2.031 . S
Zn224 O229 2.049 . S
Zn224 O234 2.067 . S
Zn225 O226 1.962 . S
Zn225 O228 1.986 . S
Zn225 O230 1.996 . S
Zn225 O233 1.943 1_545 S
O226 Zn225 1.962 . S
O226 C231 1.254 . S
O227 Zn224 2.031 . S
O227 C231 1.269 1_565 S
O228 Zn225 1.986 . S
O228 C235 1.262 . S
O229 Zn224 2.049 . S
O229 C237 1.260 . S
O230 Zn225 1.996 . S
O230 C237 1.257 1_545 S
C231 O226 1.254 . S
C231 O227 1.269 1_545 S
C232 O233 1.249 . S
C232 O234 1.270 . S
O233 Zn225 1.943 1_565 S
O233 C232 1.249 . S
O234 Zn224 2.067 . S
O234 C232 1.270 . S
C235 O228 1.262 . S
C235 O236 1.232 . S
O236 C235 1.232 . S
C237 O229 1.260 . S
C237 O230 1.257 1_565 S
Zn238 O241 2.031 . S
Zn238 O243 2.049 . S
Zn238 O248 2.067 . S
Zn239 O240 1.962 . S
Zn239 O242 1.986 . S
Zn239 O244 1.996 . S
Zn239 O247 1.943 . S
O240 Zn239 1.962 . S
O240 C245 1.254 . S
O241 Zn238 2.031 . S
O241 C245 1.269 . S
O242 Zn239 1.986 . S
O242 C249 1.262 . S
O243 Zn238 2.049 . S
O243 C251 1.260 . S
O244 Zn239 1.996 . S
O244 C251 1.257 . S
C245 O240 1.254 . S
C245 O241 1.269 . S
C246 O247 1.249 . S
C246 O248 1.270 . S
O247 Zn239 1.943 . S
O247 C246 1.249 . S
O248 Zn238 2.067 . S
O248 C246 1.270 . S
C249 O242 1.262 . S
C249 O250 1.232 . S
O250 C249 1.232 . S
C251 O243 1.260 . S
C251 O244 1.257 . S
Zn252 O255 2.031 . S
Zn252 O257 2.049 . S
Zn252 O262 2.067 . S
Zn253 O254 1.962 . S
Zn253 O256 1.986 . S
Zn253 O258 1.996 . S
Zn253 O261 1.943 . S
O254 Zn253 1.962 . S
O254 C259 1.254 . S
O255 Zn252 2.031 . S
O255 C259 1.269 . S
O256 Zn253 1.986 . S
O256 C263 1.262 . S
O257 Zn252 2.049 . S
O257 C265 1.260 . S
O258 Zn253 1.996 . S
O258 C265 1.257 . S
C259 O254 1.254 . S
C259 O255 1.269 . S
C260 O261 1.249 . S
C260 O262 1.270 . S
O261 Zn253 1.943 . S
O261 C260 1.249 . S
O262 Zn252 2.067 . S
O262 C260 1.270 . S
C263 O256 1.262 . S
C263 O264 1.232 . S
O264 C263 1.232 . S
C265 O257 1.260 . S
C265 O258 1.257 . S
Zn266 O269 2.031 . S
Zn266 O271 2.049 . S
Zn266 O276 2.067 . S
Zn267 O268 1.962 . S
Zn267 O270 1.986 1_545 S
Zn267 O272 1.996 . S
Zn267 O275 1.943 . S
O268 Zn267 1.962 . S
O268 C273 1.254 . S
O269 Zn266 2.031 . S
O269 C273 1.269 . S
O270 Zn267 1.986 1_565 S
O270 C277 1.262 . S
O271 Zn266 2.049 . S
O271 C279 1.260 . S
O272 Zn267 1.996 . S
O272 C279 1.257 . S
C273 O268 1.254 . S
C273 O269 1.269 . S
C274 O275 1.249 . S
C274 O276 1.270 . S
O275 Zn267 1.943 . S
O275 C274 1.249 . S
O276 Zn266 2.067 . S
O276 C274 1.270 . S
C277 O270 1.262 . S
C277 O278 1.232 1_565 S
O278 C277 1.232 1_545 S
C279 O271 1.260 . S
C279 O272 1.257 . S
Zn280 O283 2.031 . S
Zn280 O285 2.049 . S
Zn280 O290 2.067 . S
Zn281 O282 1.962 . S
Zn281 O284 1.986 . S
Zn281 O286 1.996 . S
Zn281 O289 1.943 . S
O282 Zn281 1.962 . S
O282 C287 1.254 . S
O283 Zn280 2.031 . S
O283 C287 1.269 . S
O284 Zn281 1.986 . S
O284 C291 1.262 . S
O285 Zn280 2.049 . S
O285 C293 1.260 . S
O286 Zn281 1.996 . S
O286 C293 1.257 . S
C287 O282 1.254 . S
C287 O283 1.269 . S
C288 O289 1.249 . S
C288 O290 1.270 . S
O289 Zn281 1.943 . S
O289 C288 1.249 . S
O290 Zn280 2.067 . S
O290 C288 1.270 . S
C291 O284 1.262 . S
C291 O292 1.232 . S
O292 C291 1.232 . S
C293 O285 1.260 . S
C293 O286 1.257 . S
Zn294 O297 2.031 . S
Zn294 O299 2.049 . S
Zn294 O304 2.067 . S
Zn295 O296 1.962 . S
Zn295 O298 1.986 . S
Zn295 O300 1.996 . S
Zn295 O303 1.943 . S
O296 Zn295 1.962 . S
O296 C301 1.254 . S
O297 Zn294 2.031 . S
O297 C301 1.269 . S
O298 Zn295 1.986 . S
O298 C305 1.262 . S
O299 Zn294 2.049 . S
O299 C307 1.260 . S
O300 Zn295 1.996 . S
O300 C307 1.257 . S
C301 O296 1.254 . S
C301 O297 1.269 . S
C302 O303 1.249 . S
C302 O304 1.270 . S
O303 Zn295 1.943 . S
O303 C302 1.249 . S
O304 Zn294 2.067 . S
O304 C302 1.270 . S
C305 O298 1.262 . S
C305 O306 1.232 . S
O306 C305 1.232 . S
C307 O299 1.260 . S
C307 O300 1.257 . S
Zn308 O311 2.031 . S
Zn308 O313 2.049 . S
Zn308 O318 2.067 . S
Zn309 O310 1.962 . S
Zn309 O312 1.986 . S
Zn309 O314 1.996 . S
Zn309 O317 1.943 . S
O310 Zn309 1.962 . S
O310 C315 1.254 . S
O311 Zn308 2.031 . S
O311 C315 1.269 . S
O312 Zn309 1.986 . S
O312 C319 1.262 . S
O313 Zn308 2.049 . S
O313 C321 1.260 . S
O314 Zn309 1.996 . S
O314 C321 1.257 . S
C315 O310 1.254 . S
C315 O311 1.269 . S
C316 O317 1.249 . S
C316 O318 1.270 . S
O317 Zn309 1.943 . S
O317 C316 1.249 . S
O318 Zn308 2.067 . S
O318 C316 1.270 . S
C319 O312 1.262 . S
C319 O320 1.232 . S
O320 C319 1.232 . S
C321 O313 1.260 . S
C321 O314 1.257 . S
Zn322 O325 2.031 . S
Zn322 O327 2.049 . S
Zn322 O332 2.067 . S
Zn323 O324 1.962 . S
Zn323 O326 1.986 . S
Zn323 O328 1.996 . S
Zn323 O331 1.943 . S
O324 Zn323 1.962 . S
O324 C329 1.254 . S
O325 Zn322 2.031 . S
O325 C329 1.269 . S
O326 Zn323 1.986 . S
O326 C333 1.262 . S
O327 Zn322 2.049 . S
O327 C335 1.260 . S
O328 Zn323 1.996 . S
O328 C335 1.257 . S
C329 O324 1.254 . S
C329 O325 1.269 . S
C330 O331 1.249 . S
C330 O332 1.270 . S
O331 Zn323 1.943 . S
O331 C330 1.249 . S
O332 Zn322 2.067 . S
O332 C330 1.270 . S
C333 O326 1.262 . S
C333 O334 1.232 . S
O334 C333 1.232 . S
C335 O327 1.260 . S
C335 O328 1.257 . S
Tb336 C338 2.809 1_455 S
Tb336 O356 2.484 1_455 S
Tb336 O357 2.440 1_455 S
Tb336 O358 2.658 . S
Tb336 O359 2.409 . S
Tb336 O360 2.378 . S
Tb336 O364 2.325 . S
Tb336 O367 2.341 1_545 S
Tb337 C347 2.809 . S
Tb337 O358 2.325 . S
Tb337 O361 2.341 . S
Tb337 O362 2.484 . S
Tb337 O363 2.440 . S
Tb337 O364 2.658 . S
Tb337 O365 2.409 . S
Tb337 O366 2.378 1_545 S
C338 Tb336 2.809 1_655 S
C338 C339 1.514 . S
C338 O356 1.248 . S
C338 O357 1.266 . S
C339 C338 1.514 . S
C339 C340 1.359 . S
C339 C344 1.348 . S
C340 C339 1.359 . S
C340 C341 1.380 . S
C340 H368 0.929 . S
C341 C340 1.380 . S
C341 C342 1.347 . S
C341 H369 0.931 . S
C342 C341 1.347 . S
C342 C343 1.369 . S
C343 C342 1.369 . S
C343 C344 1.408 . S
C343 H370 0.930 . S
C344 C339 1.348 . S
C344 C343 1.408 . S
C344 H371 0.930 . S
C345 O358 1.281 . S
C345 O359 1.254 . S
C346 O360 1.236 . S
C346 O361 1.266 . S
C347 Tb337 2.809 . S
C347 C348 1.514 1_545 S
C347 O362 1.248 . S
C347 O363 1.266 . S
C348 C347 1.514 1_565 S
C348 C349 1.359 . S
C348 C353 1.348 . S
C349 C348 1.359 . S
C349 C350 1.380 . S
C349 H372 0.929 . S
C350 C349 1.380 . S
C350 C351 1.347 . S
C350 H373 0.931 . S
C351 C350 1.347 . S
C351 C352 1.369 . S
C352 C351 1.369 . S
C352 C353 1.408 . S
C352 H374 0.930 . S
C353 C348 1.348 . S
C353 C352 1.408 . S
C353 H375 0.930 1_565 S
C354 O364 1.281 . S
C354 O365 1.254 . S
C355 O366 1.236 . S
C355 O367 1.266 . S
O356 Tb336 2.484 1_655 S
O356 C338 1.248 . S
O357 Tb336 2.440 1_655 S
O357 C338 1.266 . S
O358 Tb336 2.658 . S
O358 Tb337 2.325 . S
O358 C345 1.281 . S
O359 Tb336 2.409 . S
O359 C345 1.254 . S
O360 Tb336 2.378 . S
O360 C346 1.236 . S
O361 Tb337 2.341 . S
O361 C346 1.266 . S
O362 Tb337 2.484 . S
O362 C347 1.248 . S
O363 Tb337 2.440 . S
O363 C347 1.266 . S
O364 Tb336 2.325 . S
O364 Tb337 2.658 . S
O364 C354 1.281 . S
O365 Tb337 2.409 . S
O365 C354 1.254 . S
O366 Tb337 2.378 1_565 S
O366 C355 1.236 . S
O367 Tb336 2.341 1_565 S
O367 C355 1.266 . S
H368 C340 0.929 . S
H369 C341 0.931 . S
H370 C343 0.930 . S
H371 C344 0.930 . S
H372 C349 0.929 . S
H373 C350 0.931 . S
H374 C352 0.930 . S
H375 C353 0.930 1_545 S
Tb376 C378 2.809 . S
Tb376 O396 2.484 . S
Tb376 O397 2.440 . S
Tb376 O398 2.658 . S
Tb376 O399 2.409 . S
Tb376 O400 2.378 . S
Tb376 O404 2.325 . S
Tb376 O407 2.341 . S
Tb377 C387 2.809 . S
Tb377 O398 2.325 . S
Tb377 O401 2.341 . S
Tb377 O402 2.484 . S
Tb377 O403 2.440 . S
Tb377 O404 2.658 . S
Tb377 O405 2.409 . S
Tb377 O406 2.378 . S
C378 Tb376 2.809 . S
C378 C379 1.514 . S
C378 O396 1.248 . S
C378 O397 1.266 . S
C379 C378 1.514 . S
C379 C380 1.359 . S
C379 C384 1.348 . S
C380 C379 1.359 . S
C380 C381 1.380 . S
C380 H408 0.929 . S
C381 C380 1.380 . S
C381 C382 1.347 . S
C381 H409 0.931 . S
C382 C381 1.347 . S
C382 C383 1.369 . S
C383 C382 1.369 . S
C383 C384 1.408 . S
C383 H410 0.930 . S
C384 C379 1.348 . S
C384 C383 1.408 . S
C384 H411 0.930 . S
C385 O398 1.281 . S
C385 O399 1.254 . S
C386 O400 1.236 . S
C386 O401 1.266 . S
C387 Tb377 2.809 . S
C387 C388 1.514 . S
C387 O402 1.248 . S
C387 O403 1.266 . S
C388 C387 1.514 . S
C388 C389 1.359 . S
C388 C393 1.348 . S
C389 C388 1.359 . S
C389 C390 1.380 . S
C389 H412 0.929 . S
C390 C389 1.380 . S
C390 C391 1.347 . S
C390 H413 0.931 . S
C391 C390 1.347 . S
C391 C392 1.369 . S
C392 C391 1.369 . S
C392 C393 1.408 . S
C392 H414 0.930 . S
C393 C388 1.348 . S
C393 C392 1.408 . S
C393 H415 0.930 . S
C394 O404 1.281 . S
C394 O405 1.254 . S
C395 O406 1.236 . S
C395 O407 1.266 . S
O396 Tb376 2.484 . S
O396 C378 1.248 . S
O397 Tb376 2.440 . S
O397 C378 1.266 . S
O398 Tb376 2.658 . S
O398 Tb377 2.325 . S
O398 C385 1.281 . S
O399 Tb376 2.409 . S
O399 C385 1.254 . S
O400 Tb376 2.378 . S
O400 C386 1.236 . S
O401 Tb377 2.341 . S
O401 C386 1.266 . S
O402 Tb377 2.484 . S
O402 C387 1.248 . S
O403 Tb377 2.440 . S
O403 C387 1.266 . S
O404 Tb376 2.325 . S
O404 Tb377 2.658 . S
O404 C394 1.281 . S
O405 Tb377 2.409 . S
O405 C394 1.254 . S
O406 Tb377 2.378 . S
O406 C395 1.236 . S
O407 Tb376 2.341 . S
O407 C395 1.266 . S
H408 C380 0.929 . S
H409 C381 0.931 . S
H410 C383 0.930 . S
H411 C384 0.930 . S
H412 C389 0.929 . S
H413 C390 0.931 . S
H414 C392 0.930 . S
H415 C393 0.930 . S
Tb416 C418 2.809 . S
Tb416 O436 2.484 . S
Tb416 O437 2.440 . S
Tb416 O438 2.658 . S
Tb416 O439 2.409 . S
Tb416 O440 2.378 1_545 S
Tb416 O444 2.325 . S
Tb416 O447 2.341 . S
Tb417 C427 2.809 . S
Tb417 O438 2.325 . S
Tb417 O441 2.341 1_545 S
Tb417 O442 2.484 . S
Tb417 O443 2.440 . S
Tb417 O444 2.658 . S
Tb417 O445 2.409 . S
Tb417 O446 2.378 . S
C418 Tb416 2.809 . S
C418 C419 1.514 1_545 S
C418 O436 1.248 . S
C418 O437 1.266 . S
C419 C418 1.514 1_565 S
C419 C420 1.359 . S
C419 C424 1.348 . S
C420 C419 1.359 . S
C420 C421 1.380 . S
C420 H448 0.929 . S
C421 C420 1.380 . S
C421 C422 1.347 . S
C421 H449 0.931 . S
C422 C421 1.347 . S
C422 C423 1.369 . S
C423 C422 1.369 . S
C423 C424 1.408 . S
C423 H450 0.930 . S
C424 C419 1.348 . S
C424 C423 1.408 . S
C424 H451 0.930 . S
C425 O438 1.281 . S
C425 O439 1.254 . S
C426 O440 1.236 . S
C426 O441 1.266 . S
C427 Tb417 2.809 . S
C427 C428 1.514 . S
C427 O442 1.248 . S
C427 O443 1.266 . S
C428 C427 1.514 . S
C428 C429 1.359 . S
C428 C433 1.348 . S
C429 C428 1.359 . S
C429 C430 1.380 . S
C429 H452 0.929 . S
C430 C429 1.380 . S
C430 C431 1.347 . S
C430 H453 0.931 . S
C431 C430 1.347 . S
C431 C432 1.369 . S
C432 C431 1.369 . S
C432 C433 1.408 . S
C432 H454 0.930 . S
C433 C428 1.348 . S
C433 C432 1.408 . S
C433 H455 0.930 . S
C434 O444 1.281 . S
C434 O445 1.254 . S
C435 O446 1.236 . S
C435 O447 1.266 . S
O436 Tb416 2.484 . S
O436 C418 1.248 . S
O437 Tb416 2.440 . S
O437 C418 1.266 . S
O438 Tb416 2.658 . S
O438 Tb417 2.325 . S
O438 C425 1.281 . S
O439 Tb416 2.409 . S
O439 C425 1.254 . S
O440 Tb416 2.378 1_565 S
O440 C426 1.236 . S
O441 Tb417 2.341 1_565 S
O441 C426 1.266 . S
O442 Tb417 2.484 . S
O442 C427 1.248 . S
O443 Tb417 2.440 . S
O443 C427 1.266 . S
O444 Tb416 2.325 . S
O444 Tb417 2.658 . S
O444 C434 1.281 . S
O445 Tb417 2.409 . S
O445 C434 1.254 . S
O446 Tb417 2.378 . S
O446 C435 1.236 . S
O447 Tb416 2.341 . S
O447 C435 1.266 . S
H448 C420 0.929 . S
H449 C421 0.931 . S
H450 C423 0.930 . S
H451 C424 0.930 . S
H452 C429 0.929 . S
H453 C430 0.931 . S
H454 C432 0.930 . S
H455 C433 0.930 . S
Tb456 C458 2.809 . S
Tb456 O476 2.484 . S
Tb456 O477 2.440 . S
Tb456 O478 2.658 . S
Tb456 O479 2.409 . S
Tb456 O480 2.378 . S
Tb456 O484 2.325 . S
Tb456 O487 2.341 . S
Tb457 C467 2.809 . S
Tb457 O478 2.325 . S
Tb457 O481 2.341 . S
Tb457 O482 2.484 . S
Tb457 O483 2.440 . S
Tb457 O484 2.658 . S
Tb457 O485 2.409 . S
Tb457 O486 2.378 . S
C458 Tb456 2.809 . S
C458 C459 1.514 . S
C458 O476 1.248 . S
C458 O477 1.266 . S
C459 C458 1.514 . S
C459 C460 1.359 . S
C459 C464 1.348 . S
C460 C459 1.359 . S
C460 C461 1.380 . S
C460 H488 0.929 . S
C461 C460 1.380 . S
C461 C462 1.347 . S
C461 H489 0.931 . S
C462 C461 1.347 . S
C462 C463 1.369 . S
C463 C462 1.369 . S
C463 C464 1.408 . S
C463 H490 0.930 . S
C464 C459 1.348 . S
C464 C463 1.408 . S
C464 H491 0.930 . S
C465 O478 1.281 . S
C465 O479 1.254 . S
C466 O480 1.236 . S
C466 O481 1.266 . S
C467 Tb457 2.809 . S
C467 C468 1.514 . S
C467 O482 1.248 . S
C467 O483 1.266 . S
C468 C467 1.514 . S
C468 C469 1.359 . S
C468 C473 1.348 . S
C469 C468 1.359 . S
C469 C470 1.380 . S
C469 H492 0.929 . S
C470 C469 1.380 . S
C470 C471 1.347 . S
C470 H493 0.931 . S
C471 C470 1.347 . S
C471 C472 1.369 . S
C472 C471 1.369 . S
C472 C473 1.408 . S
C472 H494 0.930 . S
C473 C468 1.348 . S
C473 C472 1.408 . S
C473 H495 0.930 . S
C474 O484 1.281 . S
C474 O485 1.254 . S
C475 O486 1.236 . S
C475 O487 1.266 . S
O476 Tb456 2.484 . S
O476 C458 1.248 . S
O477 Tb456 2.440 . S
O477 C458 1.266 . S
O478 Tb456 2.658 . S
O478 Tb457 2.325 . S
O478 C465 1.281 . S
O479 Tb456 2.409 . S
O479 C465 1.254 . S
O480 Tb456 2.378 . S
O480 C466 1.236 . S
O481 Tb457 2.341 . S
O481 C466 1.266 . S
O482 Tb457 2.484 . S
O482 C467 1.248 . S
O483 Tb457 2.440 . S
O483 C467 1.266 . S
O484 Tb456 2.325 . S
O484 Tb457 2.658 . S
O484 C474 1.281 . S
O485 Tb457 2.409 . S
O485 C474 1.254 . S
O486 Tb457 2.378 . S
O486 C475 1.236 . S
O487 Tb456 2.341 . S
O487 C475 1.266 . S
H488 C460 0.929 . S
H489 C461 0.931 . S
H490 C463 0.930 . S
H491 C464 0.930 . S
H492 C469 0.929 . S
H493 C470 0.931 . S
H494 C472 0.930 . S
H495 C473 0.930 . S
Tb496 C498 2.809 . S
Tb496 O516 2.484 . S
Tb496 O517 2.440 . S
Tb496 O518 2.658 . S
Tb496 O519 2.409 1_455 S
Tb496 O520 2.378 . S
Tb496 O524 2.325 . S
Tb496 O527 2.341 . S
Tb497 C507 2.809 . S
Tb497 O518 2.325 1_565 S
Tb497 O521 2.341 1_565 S
Tb497 O522 2.484 . S
Tb497 O523 2.440 . S
Tb497 O524 2.658 1_565 S
Tb497 O525 2.409 1_565 S
Tb497 O526 2.378 1_565 S
C498 Tb496 2.809 . S
C498 C499 1.514 . S
C498 O516 1.248 . S
C498 O517 1.266 . S
C499 C498 1.514 . S
C499 C500 1.359 . S
C499 C504 1.348 1_455 S
C500 C499 1.359 . S
C500 C501 1.380 . S
C500 H528 0.929 . S
C501 C500 1.380 . S
C501 C502 1.347 . S
C501 H529 0.931 . S
C502 C501 1.347 . S
C502 C503 1.369 1_455 S
C503 C502 1.369 1_655 S
C503 C504 1.408 . S
C503 H530 0.930 . S
C504 C499 1.348 1_655 S
C504 C503 1.408 . S
C504 H531 0.930 . S
C505 O518 1.281 1_655 S
C505 O519 1.254 . S
C506 O520 1.236 . S
C506 O521 1.266 . S
C507 Tb497 2.809 . S
C507 C508 1.514 . S
C507 O522 1.248 . S
C507 O523 1.266 . S
C508 C507 1.514 . S
C508 C509 1.359 . S
C508 C513 1.348 . S
C509 C508 1.359 . S
C509 C510 1.380 . S
C509 H532 0.929 . S
C510 C509 1.380 . S
C510 C511 1.347 . S
C510 H533 0.931 . S
C511 C510 1.347 . S
C511 C512 1.369 . S
C512 C511 1.369 . S
C512 C513 1.408 . S
C512 H534 0.930 . S
C513 C508 1.348 . S
C513 C512 1.408 . S
C513 H535 0.930 . S
C514 O524 1.281 . S
C514 O525 1.254 . S
C515 O526 1.236 . S
C515 O527 1.266 . S
O516 Tb496 2.484 . S
O516 C498 1.248 . S
O517 Tb496 2.440 . S
O517 C498 1.266 . S
O518 Tb496 2.658 . S
O518 Tb497 2.325 1_545 S
O518 C505 1.281 1_455 S
O519 Tb496 2.409 1_655 S
O519 C505 1.254 . S
O520 Tb496 2.378 . S
O520 C506 1.236 . S
O521 Tb497 2.341 1_545 S
O521 C506 1.266 . S
O522 Tb497 2.484 . S
O522 C507 1.248 . S
O523 Tb497 2.440 . S
O523 C507 1.266 . S
O524 Tb496 2.325 . S
O524 Tb497 2.658 1_545 S
O524 C514 1.281 . S
O525 Tb497 2.409 1_545 S
O525 C514 1.254 . S
O526 Tb497 2.378 1_545 S
O526 C515 1.236 . S
O527 Tb496 2.341 . S
O527 C515 1.266 . S
H528 C500 0.929 . S
H529 C501 0.931 . S
H530 C503 0.930 . S
H531 C504 0.930 . S
H532 C509 0.929 . S
H533 C510 0.931 . S
H534 C512 0.930 . S
H535 C513 0.930 . S
Tb536 C538 2.809 . S
Tb536 O556 2.484 . S
Tb536 O557 2.440 . S
Tb536 O558 2.658 . S
Tb536 O559 2.409 . S
Tb536 O560 2.378 . S
Tb536 O564 2.325 . S
Tb536 O567 2.341 . S
Tb537 C547 2.809 . S
Tb537 O558 2.325 . S
Tb537 O561 2.341 . S
Tb537 O562 2.484 . S
Tb537 O563 2.440 . S
Tb537 O564 2.658 . S
Tb537 O565 2.409 . S
Tb537 O566 2.378 . S
C538 Tb536 2.809 . S
C538 C539 1.514 . S
C538 O556 1.248 . S
C538 O557 1.266 . S
C539 C538 1.514 . S
C539 C540 1.359 . S
C539 C544 1.348 . S
C540 C539 1.359 . S
C540 C541 1.380 . S
C540 H568 0.929 . S
C541 C540 1.380 . S
C541 C542 1.347 . S
C541 H569 0.931 . S
C542 C541 1.347 . S
C542 C543 1.369 . S
C543 C542 1.369 . S
C543 C544 1.408 . S
C543 H570 0.930 . S
C544 C539 1.348 . S
C544 C543 1.408 . S
C544 H571 0.930 . S
C545 O558 1.281 . S
C545 O559 1.254 . S
C546 O560 1.236 . S
C546 O561 1.266 . S
C547 Tb537 2.809 . S
C547 C548 1.514 . S
C547 O562 1.248 . S
C547 O563 1.266 . S
C548 C547 1.514 . S
C548 C549 1.359 . S
C548 C553 1.348 . S
C549 C548 1.359 . S
C549 C550 1.380 . S
C549 H572 0.929 . S
C550 C549 1.380 . S
C550 C551 1.347 . S
C550 H573 0.931 . S
C551 C550 1.347 . S
C551 C552 1.369 . S
C552 C551 1.369 . S
C552 C553 1.408 . S
C552 H574 0.930 . S
C553 C548 1.348 . S
C553 C552 1.408 . S
C553 H575 0.930 . S
C554 O564 1.281 . S
C554 O565 1.254 . S
C555 O566 1.236 . S
C555 O567 1.266 . S
O556 Tb536 2.484 . S
O556 C538 1.248 . S
O557 Tb536 2.440 . S
O557 C538 1.266 . S
O558 Tb536 2.658 . S
O558 Tb537 2.325 . S
O558 C545 1.281 . S
O559 Tb536 2.409 . S
O559 C545 1.254 . S
O560 Tb536 2.378 . S
O560 C546 1.236 . S
O561 Tb537 2.341 . S
O561 C546 1.266 . S
O562 Tb537 2.484 . S
O562 C547 1.248 . S
O563 Tb537 2.440 . S
O563 C547 1.266 . S
O564 Tb536 2.325 . S
O564 Tb537 2.658 . S
O564 C554 1.281 . S
O565 Tb537 2.409 . S
O565 C554 1.254 . S
O566 Tb537 2.378 . S
O566 C555 1.236 . S
O567 Tb536 2.341 . S
O567 C555 1.266 . S
H568 C540 0.929 . S
H569 C541 0.931 . S
H570 C543 0.930 . S
H571 C544 0.930 . S
H572 C549 0.929 . S
H573 C550 0.931 . S
H574 C552 0.930 . S
H575 C553 0.930 . S
Tb576 C578 2.809 . S
Tb576 O596 2.484 1_545 S
Tb576 O597 2.440 . S
Tb576 O598 2.658 . S
Tb576 O599 2.409 . S
Tb576 O600 2.378 . S
Tb576 O604 2.325 . S
Tb576 O607 2.341 . S
Tb577 C587 2.809 . S
Tb577 O598 2.325 . S
Tb577 O601 2.341 . S
Tb577 O602 2.484 . S
Tb577 O603 2.440 . S
Tb577 O604 2.658 . S
Tb577 O605 2.409 1_545 S
Tb577 O606 2.378 . S
C578 Tb576 2.809 . S
C578 C579 1.514 1_545 S
C578 O596 1.248 1_545 S
C578 O597 1.266 . S
C579 C578 1.514 1_565 S
C579 C580 1.359 . S
C579 C584 1.348 1_565 S
C580 C579 1.359 . S
C580 C581 1.380 . S
C580 H608 0.929 . S
C581 C580 1.380 . S
C581 C582 1.347 . S
C581 H609 0.931 . S
C582 C581 1.347 . S
C582 C583 1.369 1_565 S
C583 C582 1.369 1_545 S
C583 C584 1.408 . S
C583 H610 0.930 . S
C584 C579 1.348 1_545 S
C584 C583 1.408 . S
C584 H611 0.930 . S
C585 O598 1.281 . S
C585 O599 1.254 . S
C586 O600 1.236 . S
C586 O601 1.266 . S
C587 Tb577 2.809 . S
C587 C588 1.514 . S
C587 O602 1.248 . S
C587 O603 1.266 . S
C588 C587 1.514 . S
C588 C589 1.359 . S
C588 C593 1.348 . S
C589 C588 1.359 . S
C589 C590 1.380 . S
C589 H612 0.929 . S
C590 C589 1.380 . S
C590 C591 1.347 . S
C590 H613 0.931 . S
C591 C590 1.347 . S
C591 C592 1.369 . S
C592 C591 1.369 . S
C592 C593 1.408 . S
C592 H614 0.930 . S
C593 C588 1.348 . S
C593 C592 1.408 . S
C593 H615 0.930 . S
C594 O604 1.281 1_565 S
C594 O605 1.254 . S
C595 O606 1.236 . S
C595 O607 1.266 . S
O596 Tb576 2.484 1_565 S
O596 C578 1.248 1_565 S
O597 Tb576 2.440 . S
O597 C578 1.266 . S
O598 Tb576 2.658 . S
O598 Tb577 2.325 . S
O598 C585 1.281 . S
O599 Tb576 2.409 . S
O599 C585 1.254 . S
O600 Tb576 2.378 . S
O600 C586 1.236 . S
O601 Tb577 2.341 . S
O601 C586 1.266 . S
O602 Tb577 2.484 . S
O602 C587 1.248 . S
O603 Tb577 2.440 . S
O603 C587 1.266 . S
O604 Tb576 2.325 . S
O604 Tb577 2.658 . S
O604 C594 1.281 1_545 S
O605 Tb577 2.409 1_565 S
O605 C594 1.254 . S
O606 Tb577 2.378 . S
O606 C595 1.236 . S
O607 Tb576 2.341 . S
O607 C595 1.266 . S
H608 C580 0.929 . S
H609 C581 0.931 . S
H610 C583 0.930 . S
H611 C584 0.930 . S
H612 C589 0.929 . S
H613 C590 0.931 . S
H614 C592 0.930 . S
H615 C593 0.930 . S
Tb616 C618 2.809 . S
Tb616 O636 2.484 . S
Tb616 O637 2.440 . S
Tb616 O638 2.658 . S
Tb616 O639 2.409 . S
Tb616 O640 2.378 . S
Tb616 O644 2.325 . S
Tb616 O647 2.341 . S
Tb617 C627 2.809 . S
Tb617 O638 2.325 . S
Tb617 O641 2.341 . S
Tb617 O642 2.484 . S
Tb617 O643 2.440 . S
Tb617 O644 2.658 . S
Tb617 O645 2.409 . S
Tb617 O646 2.378 . S
C618 Tb616 2.809 . S
C618 C619 1.514 . S
C618 O636 1.248 . S
C618 O637 1.266 . S
C619 C618 1.514 . S
C619 C620 1.359 . S
C619 C624 1.348 . S
C620 C619 1.359 . S
C620 C621 1.380 . S
C620 H648 0.929 . S
C621 C620 1.380 . S
C621 C622 1.347 . S
C621 H649 0.931 . S
C622 C621 1.347 . S
C622 C623 1.369 . S
C623 C622 1.369 . S
C623 C624 1.408 . S
C623 H650 0.930 . S
C624 C619 1.348 . S
C624 C623 1.408 . S
C624 H651 0.930 . S
C625 O638 1.281 . S
C625 O639 1.254 . S
C626 O640 1.236 . S
C626 O641 1.266 . S
C627 Tb617 2.809 . S
C627 C628 1.514 . S
C627 O642 1.248 . S
C627 O643 1.266 . S
C628 C627 1.514 . S
C628 C629 1.359 . S
C628 C633 1.348 . S
C629 C628 1.359 . S
C629 C630 1.380 . S
C629 H652 0.929 . S
C630 C629 1.380 . S
C630 C631 1.347 . S
C630 H653 0.931 . S
C631 C630 1.347 . S
C631 C632 1.369 . S
C632 C631 1.369 . S
C632 C633 1.408 . S
C632 H654 0.930 . S
C633 C628 1.348 . S
C633 C632 1.408 . S
C633 H655 0.930 . S
C634 O644 1.281 . S
C634 O645 1.254 . S
C635 O646 1.236 . S
C635 O647 1.266 . S
O636 Tb616 2.484 . S
O636 C618 1.248 . S
O637 Tb616 2.440 . S
O637 C618 1.266 . S
O638 Tb616 2.658 . S
O638 Tb617 2.325 . S
O638 C625 1.281 . S
O639 Tb616 2.409 . S
O639 C625 1.254 . S
O640 Tb616 2.378 . S
O640 C626 1.236 . S
O641 Tb617 2.341 . S
O641 C626 1.266 . S
O642 Tb617 2.484 . S
O642 C627 1.248 . S
O643 Tb617 2.440 . S
O643 C627 1.266 . S
O644 Tb616 2.325 . S
O644 Tb617 2.658 . S
O644 C634 1.281 . S
O645 Tb617 2.409 . S
O645 C634 1.254 . S
O646 Tb617 2.378 . S
O646 C635 1.236 . S
O647 Tb616 2.341 . S
O647 C635 1.266 . S
H648 C620 0.929 . S
H649 C621 0.931 . S
H650 C623 0.930 . S
H651 C624 0.930 . S
H652 C629 0.929 . S
H653 C630 0.931 . S
H654 C632 0.930 . S
H655 C633 0.930 . S
Tb656 C658 2.809 . S
Tb656 O676 2.484 . S
Tb656 O677 2.440 . S
Tb656 O678 2.658 . S
Tb656 O679 2.409 . S
Tb656 O680 2.378 . S
Tb656 O684 2.325 . S
Tb656 O687 2.341 . S
Tb657 C667 2.809 . S
Tb657 O678 2.325 . S
Tb657 O681 2.341 . S
Tb657 O682 2.484 . S
Tb657 O683 2.440 . S
Tb657 O684 2.658 . S
Tb657 O685 2.409 . S
Tb657 O686 2.378 . S
C658 Tb656 2.809 . S
C658 C659 1.514 . S
C658 O676 1.248 . S
C658 O677 1.266 . S
C659 C658 1.514 . S
C659 C660 1.359 . S
C659 C664 1.348 . S
C660 C659 1.359 . S
C660 C661 1.380 1_554 S
C660 H688 0.929 . S
C661 C660 1.380 1_556 S
C661 C662 1.347 . S
C661 H689 0.931 . S
C662 C661 1.347 . S
C662 C663 1.369 1_556 S
C663 C662 1.369 1_554 S
C663 C664 1.408 . S
C663 H690 0.930 . S
C664 C659 1.348 . S
C664 C663 1.408 . S
C664 H691 0.930 . S
C665 O678 1.281 . S
C665 O679 1.254 . S
C666 O680 1.236 . S
C666 O681 1.266 . S
C667 Tb657 2.809 . S
C667 C668 1.514 . S
C667 O682 1.248 . S
C667 O683 1.266 . S
C668 C667 1.514 . S
C668 C669 1.359 . S
C668 C673 1.348 . S
C669 C668 1.359 . S
C669 C670 1.380 . S
C669 H692 0.929 . S
C670 C669 1.380 . S
C670 C671 1.347 . S
C670 H693 0.931 . S
C671 C670 1.347 . S
C671 C672 1.369 . S
C672 C671 1.369 . S
C672 C673 1.408 . S
C672 H694 0.930 . S
C673 C668 1.348 . S
C673 C672 1.408 . S
C673 H695 0.930 . S
C674 O684 1.281 . S
C674 O685 1.254 . S
C675 O686 1.236 . S
C675 O687 1.266 . S
O676 Tb656 2.484 . S
O676 C658 1.248 . S
O677 Tb656 2.440 . S
O677 C658 1.266 . S
O678 Tb656 2.658 . S
O678 Tb657 2.325 . S
O678 C665 1.281 . S
O679 Tb656 2.409 . S
O679 C665 1.254 . S
O680 Tb656 2.378 . S
O680 C666 1.236 . S
O681 Tb657 2.341 . S
O681 C666 1.266 . S
O682 Tb657 2.484 . S
O682 C667 1.248 . S
O683 Tb657 2.440 . S
O683 C667 1.266 . S
O684 Tb656 2.325 . S
O684 Tb657 2.658 . S
O684 C674 1.281 . S
O685 Tb657 2.409 . S
O685 C674 1.254 . S
O686 Tb657 2.378 . S
O686 C675 1.236 . S
O687 Tb656 2.341 . S
O687 C675 1.266 . S
H688 C660 0.929 . S
H689 C661 0.931 . S
H690 C663 0.930 . S
H691 C664 0.930 . S
H692 C669 0.929 . S
H693 C670 0.931 . S
H694 C672 0.930 . S
H695 C673 0.930 . S
Tb696 C698 2.809 . S
Tb696 O716 2.484 . S
Tb696 O717 2.440 . S
Tb696 O718 2.658 . S
Tb696 O719 2.409 . S
Tb696 O720 2.378 . S
Tb696 O724 2.325 . S
Tb696 O727 2.341 . S
Tb697 C707 2.809 . S
Tb697 O718 2.325 . S
Tb697 O721 2.341 . S
Tb697 O722 2.484 . S
Tb697 O723 2.440 . S
Tb697 O724 2.658 . S
Tb697 O725 2.409 . S
Tb697 O726 2.378 . S
C698 Tb696 2.809 . S
C698 C699 1.514 . S
C698 O716 1.248 . S
C698 O717 1.266 . S
C699 C698 1.514 . S
C699 C700 1.359 . S
C699 C704 1.348 . S
C700 C699 1.359 . S
C700 C701 1.380 . S
C700 H728 0.929 . S
C701 C700 1.380 . S
C701 C702 1.347 . S
C701 H729 0.931 . S
C702 C701 1.347 . S
C702 C703 1.369 . S
C703 C702 1.369 . S
C703 C704 1.408 . S
C703 H730 0.930 . S
C704 C699 1.348 . S
C704 C703 1.408 . S
C704 H731 0.930 . S
C705 O718 1.281 . S
C705 O719 1.254 . S
C706 O720 1.236 . S
C706 O721 1.266 . S
C707 Tb697 2.809 . S
C707 C708 1.514 . S
C707 O722 1.248 . S
C707 O723 1.266 . S
C708 C707 1.514 . S
C708 C709 1.359 . S
C708 C713 1.348 . S
C709 C708 1.359 . S
C709 C710 1.380 . S
C709 H732 0.929 . S
C710 C709 1.380 . S
C710 C711 1.347 . S
C710 H733 0.931 . S
C711 C710 1.347 . S
C711 C712 1.369 . S
C712 C711 1.369 . S
C712 C713 1.408 . S
C712 H734 0.930 . S
C713 C708 1.348 . S
C713 C712 1.408 . S
C713 H735 0.930 . S
C714 O724 1.281 . S
C714 O725 1.254 . S
C715 O726 1.236 . S
C715 O727 1.266 . S
O716 Tb696 2.484 . S
O716 C698 1.248 . S
O717 Tb696 2.440 . S
O717 C698 1.266 . S
O718 Tb696 2.658 . S
O718 Tb697 2.325 . S
O718 C705 1.281 . S
O719 Tb696 2.409 . S
O719 C705 1.254 . S
O720 Tb696 2.378 . S
O720 C706 1.236 . S
O721 Tb697 2.341 . S
O721 C706 1.266 . S
O722 Tb697 2.484 . S
O722 C707 1.248 . S
O723 Tb697 2.440 . S
O723 C707 1.266 . S
O724 Tb696 2.325 . S
O724 Tb697 2.658 . S
O724 C714 1.281 . S
O725 Tb697 2.409 . S
O725 C714 1.254 . S
O726 Tb697 2.378 . S
O726 C715 1.236 . S
O727 Tb696 2.341 . S
O727 C715 1.266 . S
H728 C700 0.929 . S
H729 C701 0.931 . S
H730 C703 0.930 . S
H731 C704 0.930 . S
H732 C709 0.929 . S
H733 C710 0.931 . S
H734 C712 0.930 . S
H735 C713 0.930 . S
Tb736 C738 2.809 1_455 S
Tb736 O756 2.484 1_455 S
Tb736 O757 2.440 1_455 S
Tb736 O758 2.658 . S
Tb736 O759 2.409 . S
Tb736 O760 2.378 1_455 S
Tb736 O764 2.325 . S
Tb736 O767 2.341 . S
Tb737 C747 2.809 . S
Tb737 O758 2.325 . S
Tb737 O761 2.341 . S
Tb737 O762 2.484 . S
Tb737 O763 2.440 . S
Tb737 O764 2.658 . S
Tb737 O765 2.409 . S
Tb737 O766 2.378 . S
C738 Tb736 2.809 1_655 S
C738 C739 1.514 . S
C738 O756 1.248 . S
C738 O757 1.266 . S
C739 C738 1.514 . S
C739 C740 1.359 . S
C739 C744 1.348 . S
C740 C739 1.359 . S
C740 C741 1.380 . S
C740 H768 0.929 . S
C741 C740 1.380 . S
C741 C742 1.347 . S
C741 H769 0.931 . S
C742 C741 1.347 . S
C742 C743 1.369 . S
C743 C742 1.369 . S
C743 C744 1.408 . S
C743 H770 0.930 . S
C744 C739 1.348 . S
C744 C743 1.408 . S
C744 H771 0.930 . S
C745 O758 1.281 . S
C745 O759 1.254 . S
C746 O760 1.236 1_455 S
C746 O761 1.266 . S
C747 Tb737 2.809 . S
C747 C748 1.514 . S
C747 O762 1.248 . S
C747 O763 1.266 . S
C748 C747 1.514 . S
C748 C749 1.359 . S
C748 C753 1.348 . S
C749 C748 1.359 . S
C749 C750 1.380 . S
C749 H772 0.929 . S
C750 C749 1.380 . S
C750 C751 1.347 . S
C750 H773 0.931 . S
C751 C750 1.347 . S
C751 C752 1.369 . S
C752 C751 1.369 . S
C752 C753 1.408 . S
C752 H774 0.930 . S
C753 C748 1.348 . S
C753 C752 1.408 . S
C753 H775 0.930 . S
C754 O764 1.281 . S
C754 O765 1.254 . S
C755 O766 1.236 . S
C755 O767 1.266 . S
O756 Tb736 2.484 1_655 S
O756 C738 1.248 . S
O757 Tb736 2.440 1_655 S
O757 C738 1.266 . S
O758 Tb736 2.658 . S
O758 Tb737 2.325 . S
O758 C745 1.281 . S
O759 Tb736 2.409 . S
O759 C745 1.254 . S
O760 Tb736 2.378 1_655 S
O760 C746 1.236 1_655 S
O761 Tb737 2.341 . S
O761 C746 1.266 . S
O762 Tb737 2.484 . S
O762 C747 1.248 . S
O763 Tb737 2.440 . S
O763 C747 1.266 . S
O764 Tb736 2.325 . S
O764 Tb737 2.658 . S
O764 C754 1.281 . S
O765 Tb737 2.409 . S
O765 C754 1.254 . S
O766 Tb737 2.378 . S
O766 C755 1.236 . S
O767 Tb736 2.341 . S
O767 C755 1.266 . S
H768 C740 0.929 . S
H769 C741 0.931 . S
H770 C743 0.930 . S
H771 C744 0.930 . S
H772 C749 0.929 . S
H773 C750 0.931 . S
H774 C752 0.930 . S
H775 C753 0.930 . S
Tb776 C778 2.809 . S
Tb776 O796 2.484 . S
Tb776 O797 2.440 . S
Tb776 O798 2.658 . S
Tb776 O799 2.409 . S
Tb776 O800 2.378 . S
Tb776 O804 2.325 . S
Tb776 O807 2.341 . S
Tb777 C787 2.809 . S
Tb777 O798 2.325 . S
Tb777 O801 2.341 . S
Tb777 O802 2.484 . S
Tb777 O803 2.440 . S
Tb777 O804 2.658 . S
Tb777 O805 2.409 . S
Tb777 O806 2.378 . S
C778 Tb776 2.809 . S
C778 C779 1.514 . S
C778 O796 1.248 . S
C778 O797 1.266 . S
C779 C778 1.514 . S
C779 C780 1.359 . S
C779 C784 1.348 . S
C780 C779 1.359 . S
C780 C781 1.380 . S
C780 H808 0.929 . S
C781 C780 1.380 . S
C781 C782 1.347 . S
C781 H809 0.931 . S
C782 C781 1.347 . S
C782 C783 1.369 . S
C783 C782 1.369 . S
C783 C784 1.408 . S
C783 H810 0.930 . S
C784 C779 1.348 . S
C784 C783 1.408 . S
C784 H811 0.930 . S
C785 O798 1.281 . S
C785 O799 1.254 . S
C786 O800 1.236 . S
C786 O801 1.266 . S
C787 Tb777 2.809 . S
C787 C788 1.514 . S
C787 O802 1.248 . S
C787 O803 1.266 . S
C788 C787 1.514 . S
C788 C789 1.359 . S
C788 C793 1.348 . S
C789 C788 1.359 . S
C789 C790 1.380 . S
C789 H812 0.929 . S
C790 C789 1.380 . S
C790 C791 1.347 . S
C790 H813 0.931 . S
C791 C790 1.347 . S
C791 C792 1.369 . S
C792 C791 1.369 . S
C792 C793 1.408 . S
C792 H814 0.930 . S
C793 C788 1.348 . S
C793 C792 1.408 . S
C793 H815 0.930 . S
C794 O804 1.281 . S
C794 O805 1.254 . S
C795 O806 1.236 . S
C795 O807 1.266 . S
O796 Tb776 2.484 . S
O796 C778 1.248 . S
O797 Tb776 2.440 . S
O797 C778 1.266 . S
O798 Tb776 2.658 . S
O798 Tb777 2.325 . S
O798 C785 1.281 . S
O799 Tb776 2.409 . S
O799 C785 1.254 . S
O800 Tb776 2.378 . S
O800 C786 1.236 . S
O801 Tb777 2.341 . S
O801 C786 1.266 . S
O802 Tb777 2.484 . S
O802 C787 1.248 . S
O803 Tb777 2.440 . S
O803 C787 1.266 . S
O804 Tb776 2.325 . S
O804 Tb777 2.658 . S
O804 C794 1.281 . S
O805 Tb777 2.409 . S
O805 C794 1.254 . S
O806 Tb777 2.378 . S
O806 C795 1.236 . S
O807 Tb776 2.341 . S
O807 C795 1.266 . S
H808 C780 0.929 . S
H809 C781 0.931 . S
H810 C783 0.930 . S
H811 C784 0.930 . S
H812 C789 0.929 . S
H813 C790 0.931 . S
H814 C792 0.930 . S
H815 C793 0.930 . S
Tb816 C818 2.809 . S
Tb816 O836 2.484 . S
Tb816 O837 2.440 . S
Tb816 O838 2.658 . S
Tb816 O839 2.409 . S
Tb816 O840 2.378 . S
Tb816 O844 2.325 . S
Tb816 O847 2.341 . S
Tb817 C827 2.809 . S
Tb817 O838 2.325 . S
Tb817 O841 2.341 . S
Tb817 O842 2.484 . S
Tb817 O843 2.440 . S
Tb817 O844 2.658 . S
Tb817 O845 2.409 . S
Tb817 O846 2.378 . S
C818 Tb816 2.809 . S
C818 C819 1.514 . S
C818 O836 1.248 . S
C818 O837 1.266 . S
C819 C818 1.514 . S
C819 C820 1.359 . S
C819 C824 1.348 . S
C820 C819 1.359 . S
C820 C821 1.380 . S
C820 H848 0.929 . S
C821 C820 1.380 . S
C821 C822 1.347 . S
C821 H849 0.931 . S
C822 C821 1.347 . S
C822 C823 1.369 . S
C823 C822 1.369 . S
C823 C824 1.408 . S
C823 H850 0.930 . S
C824 C819 1.348 . S
C824 C823 1.408 . S
C824 H851 0.930 . S
C825 O838 1.281 . S
C825 O839 1.254 . S
C826 O840 1.236 . S
C826 O841 1.266 . S
C827 Tb817 2.809 . S
C827 C828 1.514 . S
C827 O842 1.248 . S
C827 O843 1.266 . S
C828 C827 1.514 . S
C828 C829 1.359 . S
C828 C833 1.348 . S
C829 C828 1.359 . S
C829 C830 1.380 1_556 S
C829 H852 0.929 . S
C830 C829 1.380 1_554 S
C830 C831 1.347 . S
C830 H853 0.931 . S
C831 C830 1.347 . S
C831 C832 1.369 . S
C832 C831 1.369 . S
C832 C833 1.408 1_554 S
C832 H854 0.930 . S
C833 C828 1.348 . S
C833 C832 1.408 1_556 S
C833 H855 0.930 . S
C834 O844 1.281 . S
C834 O845 1.254 . S
C835 O846 1.236 . S
C835 O847 1.266 . S
O836 Tb816 2.484 . S
O836 C818 1.248 . S
O837 Tb816 2.440 . S
O837 C818 1.266 . S
O838 Tb816 2.658 . S
O838 Tb817 2.325 . S
O838 C825 1.281 . S
O839 Tb816 2.409 . S
O839 C825 1.254 . S
O840 Tb816 2.378 . S
O840 C826 1.236 . S
O841 Tb817 2.341 . S
O841 C826 1.266 . S
O842 Tb817 2.484 . S
O842 C827 1.248 . S
O843 Tb817 2.440 . S
O843 C827 1.266 . S
O844 Tb816 2.325 . S
O844 Tb817 2.658 . S
O844 C834 1.281 . S
O845 Tb817 2.409 . S
O845 C834 1.254 . S
O846 Tb817 2.378 . S
O846 C835 1.236 . S
O847 Tb816 2.341 . S
O847 C835 1.266 . S
H848 C820 0.929 . S
H849 C821 0.931 . S
H850 C823 0.930 . S
H851 C824 0.930 . S
H852 C829 0.929 . S
H853 C830 0.931 . S
H854 C832 0.930 . S
H855 C833 0.930 . S
Tb856 C858 2.809 . S
Tb856 O876 2.484 . S
Tb856 O877 2.440 . S
Tb856 O878 2.658 . S
Tb856 O879 2.409 . S
Tb856 O880 2.378 . S
Tb856 O884 2.325 . S
Tb856 O887 2.341 . S
Tb857 C867 2.809 . S
Tb857 O878 2.325 . S
Tb857 O881 2.341 . S
Tb857 O882 2.484 . S
Tb857 O883 2.440 . S
Tb857 O884 2.658 . S
Tb857 O885 2.409 . S
Tb857 O886 2.378 . S
C858 Tb856 2.809 . S
C858 C859 1.514 . S
C858 O876 1.248 . S
C858 O877 1.266 . S
C859 C858 1.514 . S
C859 C860 1.359 . S
C859 C864 1.348 . S
C860 C859 1.359 . S
C860 C861 1.380 . S
C860 H888 0.929 . S
C861 C860 1.380 . S
C861 C862 1.347 . S
C861 H889 0.931 . S
C862 C861 1.347 . S
C862 C863 1.369 . S
C863 C862 1.369 . S
C863 C864 1.408 . S
C863 H890 0.930 . S
C864 C859 1.348 . S
C864 C863 1.408 . S
C864 H891 0.930 . S
C865 O878 1.281 . S
C865 O879 1.254 . S
C866 O880 1.236 . S
C866 O881 1.266 . S
C867 Tb857 2.809 . S
C867 C868 1.514 . S
C867 O882 1.248 . S
C867 O883 1.266 . S
C868 C867 1.514 . S
C868 C869 1.359 . S
C868 C873 1.348 . S
C869 C868 1.359 . S
C869 C870 1.380 . S
C869 H892 0.929 . S
C870 C869 1.380 . S
C870 C871 1.347 . S
C870 H893 0.931 . S
C871 C870 1.347 . S
C871 C872 1.369 . S
C872 C871 1.369 . S
C872 C873 1.408 . S
C872 H894 0.930 . S
C873 C868 1.348 . S
C873 C872 1.408 . S
C873 H895 0.930 . S
C874 O884 1.281 . S
C874 O885 1.254 . S
C875 O886 1.236 . S
C875 O887 1.266 . S
O876 Tb856 2.484 . S
O876 C858 1.248 . S
O877 Tb856 2.440 . S
O877 C858 1.266 . S
O878 Tb856 2.658 . S
O878 Tb857 2.325 . S
O878 C865 1.281 . S
O879 Tb856 2.409 . S
O879 C865 1.254 . S
O880 Tb856 2.378 . S
O880 C866 1.236 . S
O881 Tb857 2.341 . S
O881 C866 1.266 . S
O882 Tb857 2.484 . S
O882 C867 1.248 . S
O883 Tb857 2.440 . S
O883 C867 1.266 . S
O884 Tb856 2.325 . S
O884 Tb857 2.658 . S
O884 C874 1.281 . S
O885 Tb857 2.409 . S
O885 C874 1.254 . S
O886 Tb857 2.378 . S
O886 C875 1.236 . S
O887 Tb856 2.341 . S
O887 C875 1.266 . S
H888 C860 0.929 . S
H889 C861 0.931 . S
H890 C863 0.930 . S
H891 C864 0.930 . S
H892 C869 0.929 . S
H893 C870 0.931 . S
H894 C872 0.930 . S
H895 C873 0.930 . S
Tb896 C898 2.809 . S
Tb896 O916 2.484 . S
Tb896 O917 2.440 . S
Tb896 O918 2.658 . S
Tb896 O919 2.409 . S
Tb896 O920 2.378 . S
Tb896 O924 2.325 . S
Tb896 O927 2.341 . S
Tb897 C907 2.809 . S
Tb897 O918 2.325 . S
Tb897 O921 2.341 . S
Tb897 O922 2.484 . S
Tb897 O923 2.440 . S
Tb897 O924 2.658 . S
Tb897 O925 2.409 . S
Tb897 O926 2.378 . S
C898 Tb896 2.809 . S
C898 C899 1.514 . S
C898 O916 1.248 . S
C898 O917 1.266 . S
C899 C898 1.514 . S
C899 C900 1.359 . S
C899 C904 1.348 . S
C900 C899 1.359 . S
C900 C901 1.380 . S
C900 H928 0.929 . S
C901 C900 1.380 . S
C901 C902 1.347 . S
C901 H929 0.931 . S
C902 C901 1.347 . S
C902 C903 1.369 . S
C903 C902 1.369 . S
C903 C904 1.408 . S
C903 H930 0.930 . S
C904 C899 1.348 . S
C904 C903 1.408 . S
C904 H931 0.930 . S
C905 O918 1.281 . S
C905 O919 1.254 . S
C906 O920 1.236 . S
C906 O921 1.266 . S
C907 Tb897 2.809 . S
C907 C908 1.514 . S
C907 O922 1.248 . S
C907 O923 1.266 . S
C908 C907 1.514 . S
C908 C909 1.359 . S
C908 C913 1.348 . S
C909 C908 1.359 . S
C909 C910 1.380 . S
C909 H932 0.929 . S
C910 C909 1.380 . S
C910 C911 1.347 . S
C910 H933 0.931 . S
C911 C910 1.347 . S
C911 C912 1.369 . S
C912 C911 1.369 . S
C912 C913 1.408 . S
C912 H934 0.930 . S
C913 C908 1.348 . S
C913 C912 1.408 . S
C913 H935 0.930 . S
C914 O924 1.281 . S
C914 O925 1.254 . S
C915 O926 1.236 . S
C915 O927 1.266 . S
O916 Tb896 2.484 . S
O916 C898 1.248 . S
O917 Tb896 2.440 . S
O917 C898 1.266 . S
O918 Tb896 2.658 . S
O918 Tb897 2.325 . S
O918 C905 1.281 . S
O919 Tb896 2.409 . S
O919 C905 1.254 . S
O920 Tb896 2.378 . S
O920 C906 1.236 . S
O921 Tb897 2.341 . S
O921 C906 1.266 . S
O922 Tb897 2.484 . S
O922 C907 1.248 . S
O923 Tb897 2.440 . S
O923 C907 1.266 . S
O924 Tb896 2.325 . S
O924 Tb897 2.658 . S
O924 C914 1.281 . S
O925 Tb897 2.409 . S
O925 C914 1.254 . S
O926 Tb897 2.378 . S
O926 C915 1.236 . S
O927 Tb896 2.341 . S
O927 C915 1.266 . S
H928 C900 0.929 . S
H929 C901 0.931 . S
H930 C903 0.930 . S
H931 C904 0.930 . S
H932 C909 0.929 . S
H933 C910 0.931 . S
H934 C912 0.930 . S
H935 C913 0.930 . S
Tb936 C938 2.809 . S
Tb936 O956 2.484 . S
Tb936 O957 2.440 . S
Tb936 O958 2.658 . S
Tb936 O959 2.409 . S
Tb936 O960 2.378 . S
Tb936 O964 2.325 . S
Tb936 O967 2.341 . S
Tb937 C947 2.809 1_455 S
Tb937 O958 2.325 . S
Tb937 O961 2.341 . S
Tb937 O962 2.484 1_455 S
Tb937 O963 2.440 1_455 S
Tb937 O964 2.658 . S
Tb937 O965 2.409 . S
Tb937 O966 2.378 . S
C938 Tb936 2.809 . S
C938 C939 1.514 . S
C938 O956 1.248 . S
C938 O957 1.266 . S
C939 C938 1.514 . S
C939 C940 1.359 . S
C939 C944 1.348 . S
C940 C939 1.359 . S
C940 C941 1.380 . S
C940 H968 0.929 . S
C941 C940 1.380 . S
C941 C942 1.347 . S
C941 H969 0.931 . S
C942 C941 1.347 . S
C942 C943 1.369 . S
C943 C942 1.369 . S
C943 C944 1.408 . S
C943 H970 0.930 . S
C944 C939 1.348 . S
C944 C943 1.408 . S
C944 H971 0.930 . S
C945 O958 1.281 . S
C945 O959 1.254 . S
C946 O960 1.236 . S
C946 O961 1.266 . S
C947 Tb937 2.809 1_655 S
C947 C948 1.514 . S
C947 O962 1.248 . S
C947 O963 1.266 . S
C948 C947 1.514 . S
C948 C949 1.359 . S
C948 C953 1.348 . S
C949 C948 1.359 . S
C949 C950 1.380 . S
C949 H972 0.929 . S
C950 C949 1.380 . S
C950 C951 1.347 . S
C950 H973 0.931 . S
C951 C950 1.347 . S
C951 C952 1.369 . S
C952 C951 1.369 . S
C952 C953 1.408 . S
C952 H974 0.930 . S
C953 C948 1.348 . S
C953 C952 1.408 . S
C953 H975 0.930 . S
C954 O964 1.281 . S
C954 O965 1.254 . S
C955 O966 1.236 . S
C955 O967 1.266 . S
O956 Tb936 2.484 . S
O956 C938 1.248 . S
O957 Tb936 2.440 . S
O957 C938 1.266 . S
O958 Tb936 2.658 . S
O958 Tb937 2.325 . S
O958 C945 1.281 . S
O959 Tb936 2.409 . S
O959 C945 1.254 . S
O960 Tb936 2.378 . S
O960 C946 1.236 . S
O961 Tb937 2.341 . S
O961 C946 1.266 . S
O962 Tb937 2.484 1_655 S
O962 C947 1.248 . S
O963 Tb937 2.440 1_655 S
O963 C947 1.266 . S
O964 Tb936 2.325 . S
O964 Tb937 2.658 . S
O964 C954 1.281 . S
O965 Tb937 2.409 . S
O965 C954 1.254 . S
O966 Tb937 2.378 . S
O966 C955 1.236 . S
O967 Tb936 2.341 . S
O967 C955 1.266 . S
H968 C940 0.929 . S
H969 C941 0.931 . S
H970 C943 0.930 . S
H971 C944 0.930 . S
H972 C949 0.929 . S
H973 C950 0.931 . S
H974 C952 0.930 . S
H975 C953 0.930 . S
C976 C977 1.387 . S
C976 H980 0.950 . S
C976 C985 1.390 . S
C977 C976 1.387 . S
C977 C979 1.387 . S
H978 C985 0.950 . S
C979 C977 1.387 . S
C979 C981 1.390 . S
C979 H983 0.950 . S
H980 C976 0.950 . S
C981 C979 1.390 . S
C981 C982 1.387 . S
C981 H984 0.950 . S
C982 C981 1.387 . S
C982 C985 1.387 . S
H983 C979 0.950 . S
H984 C981 0.950 . S
C985 C976 1.390 . S
C985 H978 0.950 . S
C985 C982 1.387 . S
C986 C987 1.387 . S
C986 H990 0.950 . S
C986 C995 1.390 . S
C987 C986 1.387 . S
C987 C989 1.387 . S
H988 C995 0.950 . S
C989 C987 1.387 . S
C989 C991 1.390 . S
C989 H993 0.950 . S
H990 C986 0.950 . S
C991 C989 1.390 . S
C991 C992 1.387 . S
C991 H994 0.950 . S
C992 C991 1.387 . S
C992 C995 1.387 . S
H993 C989 0.950 . S
H994 C991 0.950 . S
C995 C986 1.390 . S
C995 H988 0.950 . S
C995 C992 1.387 . S
C996 C997 1.387 . S
C996 H1000 0.950 . S
C996 C1005 1.390 . S
C997 C996 1.387 . S
C997 C999 1.387 . S
H998 C1005 0.950 . S
C999 C997 1.387 . S
C999 C1001 1.390 . S
C999 H1003 0.950 . S
H1000 C996 0.950 . S
C1001 C999 1.390 . S
C1001 C1002 1.387 . S
C1001 H1004 0.950 . S
C1002 C1001 1.387 . S
C1002 C1005 1.387 . S
H1003 C999 0.950 . S
H1004 C1001 0.950 . S
C1005 C996 1.390 . S
C1005 H998 0.950 . S
C1005 C1002 1.387 . S
C1006 C1007 1.387 . S
C1006 H1010 0.950 . S
C1006 C1015 1.390 . S
C1007 C1006 1.387 . S
C1007 C1009 1.387 . S
H1008 C1015 0.950 . S
C1009 C1007 1.387 . S
C1009 C1011 1.390 . S
C1009 H1013 0.950 . S
H1010 C1006 0.950 . S
C1011 C1009 1.390 . S
C1011 C1012 1.387 . S
C1011 H1014 0.950 . S
C1012 C1011 1.387 . S
C1012 C1015 1.387 . S
H1013 C1009 0.950 . S
H1014 C1011 0.950 . S
C1015 C1006 1.390 . S
C1015 H1008 0.950 . S
C1015 C1012 1.387 . S
C1016 C1017 1.387 . S
C1016 H1020 0.950 . S
C1016 C1025 1.390 . S
C1017 C1016 1.387 . S
C1017 C1019 1.387 . S
H1018 C1025 0.950 . S
C1019 C1017 1.387 . S
C1019 C1021 1.390 . S
C1019 H1023 0.950 . S
H1020 C1016 0.950 . S
C1021 C1019 1.390 . S
C1021 C1022 1.387 . S
C1021 H1024 0.950 . S
C1022 C1021 1.387 . S
C1022 C1025 1.387 . S
H1023 C1019 0.950 . S
H1024 C1021 0.950 . S
C1025 C1016 1.390 . S
C1025 H1018 0.950 . S
C1025 C1022 1.387 . S
C1026 C1027 1.387 . S
C1026 H1030 0.950 . S
C1026 C1035 1.390 . S
C1027 C1026 1.387 . S
C1027 C1029 1.387 . S
H1028 C1035 0.950 . S
C1029 C1027 1.387 . S
C1029 C1031 1.390 . S
C1029 H1033 0.950 . S
H1030 C1026 0.950 . S
C1031 C1029 1.390 . S
C1031 C1032 1.387 . S
C1031 H1034 0.950 . S
C1032 C1031 1.387 . S
C1032 C1035 1.387 . S
H1033 C1029 0.950 . S
H1034 C1031 0.950 . S
C1035 C1026 1.390 . S
C1035 H1028 0.950 . S
C1035 C1032 1.387 . S
C1036 C1037 1.387 . S
C1036 H1040 0.950 . S
C1036 C1045 1.390 . S
C1037 C1036 1.387 . S
C1037 C1039 1.387 . S
H1038 C1045 0.950 . S
C1039 C1037 1.387 . S
C1039 C1041 1.390 . S
C1039 H1043 0.950 . S
H1040 C1036 0.950 . S
C1041 C1039 1.390 . S
C1041 C1042 1.387 . S
C1041 H1044 0.950 . S
C1042 C1041 1.387 . S
C1042 C1045 1.387 . S
H1043 C1039 0.950 . S
H1044 C1041 0.950 . S
C1045 C1036 1.390 . S
C1045 H1038 0.950 . S
C1045 C1042 1.387 . S
C1046 C1047 1.387 . S
C1046 H1050 0.950 . S
C1046 C1055 1.390 . S
C1047 C1046 1.387 . S
C1047 C1049 1.387 . S
H1048 C1055 0.950 . S
C1049 C1047 1.387 . S
C1049 C1051 1.390 . S
C1049 H1053 0.950 . S
H1050 C1046 0.950 . S
C1051 C1049 1.390 . S
C1051 C1052 1.387 . S
C1051 H1054 0.950 . S
C1052 C1051 1.387 . S
C1052 C1055 1.387 . S
H1053 C1049 0.950 . S
H1054 C1051 0.950 . S
C1055 C1046 1.390 . S
C1055 H1048 0.950 . S
C1055 C1052 1.387 . S
C1056 C1057 1.387 1_565 S
C1056 H1060 0.950 . S
C1056 C1065 1.390 1_665 S
C1057 C1056 1.387 1_545 S
C1057 C1059 1.387 . S
H1058 C1065 0.950 1_565 S
C1059 C1057 1.387 . S
C1059 C1061 1.390 1_655 S
C1059 H1063 0.950 . S
H1060 C1056 0.950 . S
C1061 C1059 1.390 1_455 S
C1061 C1062 1.387 . S
C1061 H1064 0.950 . S
C1062 C1061 1.387 . S
C1062 C1065 1.387 . S
H1063 C1059 0.950 . S
H1064 C1061 0.950 . S
C1065 C1056 1.390 1_445 S
C1065 H1058 0.950 1_545 S
C1065 C1062 1.387 . S
C1066 C1067 1.387 . S
C1066 H1070 0.950 . S
C1066 C1075 1.390 . S
C1067 C1066 1.387 . S
C1067 C1069 1.387 . S
H1068 C1075 0.950 . S
C1069 C1067 1.387 . S
C1069 C1071 1.390 . S
C1069 H1073 0.950 . S
H1070 C1066 0.950 . S
C1071 C1069 1.390 . S
C1071 C1072 1.387 . S
C1071 H1074 0.950 . S
C1072 C1071 1.387 . S
C1072 C1075 1.387 . S
H1073 C1069 0.950 . S
H1074 C1071 0.950 . S
C1075 C1066 1.390 . S
C1075 H1068 0.950 . S
C1075 C1072 1.387 . S
C1076 C1077 1.387 . S
C1076 H1080 0.950 . S
C1076 C1085 1.390 . S
C1077 C1076 1.387 . S
C1077 C1079 1.372 1_545 S
H1078 C1085 0.950 . S
C1079 C1077 1.372 1_565 S
C1079 C1081 1.379 1_565 S
C1079 H1083 0.976 . S
H1080 C1076 0.950 . S
C1081 C1079 1.379 1_545 S
C1081 C1082 1.387 . S
C1081 H1084 0.950 1_545 S
C1082 C1081 1.387 . S
C1082 C1085 1.387 . S
H1083 C1079 0.976 . S
H1084 C1081 0.950 1_565 S
C1085 C1076 1.390 . S
C1085 H1078 0.950 . S
C1085 C1082 1.387 . S
C1086 C1087 1.387 1_556 S
C1086 H1090 0.950 . S
C1086 C1095 1.390 . S
C1087 C1086 1.387 1_554 S
C1087 C1089 1.387 1_554 S
H1088 C1095 0.950 . S
C1089 C1087 1.387 1_556 S
C1089 C1091 1.390 . S
C1089 H1093 0.952 . S
H1090 C1086 0.950 . S
C1091 C1089 1.390 . S
C1091 C1092 1.387 . S
C1091 H1094 0.950 . S
C1092 C1091 1.387 . S
C1092 C1095 1.387 . S
H1093 C1089 0.952 . S
H1094 C1091 0.950 . S
C1095 C1086 1.390 . S
C1095 H1088 0.950 . S
C1095 C1092 1.387 . S
C1096 C1097 1.387 1_565 S
C1096 H1100 0.950 . S
C1096 C1105 1.390 1_655 S
C1097 C1096 1.387 1_545 S
C1097 C1099 1.387 . S
H1098 C1105 0.950 . S
C1099 C1097 1.387 . S
C1099 C1101 1.390 1_655 S
C1099 H1103 0.950 . S
H1100 C1096 0.950 . S
C1101 C1099 1.390 1_455 S
C1101 C1102 1.387 . S
C1101 H1104 0.950 . S
C1102 C1101 1.387 . S
C1102 C1105 1.387 1_545 S
H1103 C1099 0.950 . S
H1104 C1101 0.950 . S
C1105 C1096 1.390 1_455 S
C1105 H1098 0.950 . S
C1105 C1102 1.387 1_565 S
C1106 C1107 1.387 . S
C1106 H1110 0.950 . S
C1106 C1115 1.390 . S
C1107 C1106 1.387 . S
C1107 C1109 1.387 . S
H1108 C1115 0.950 . S
C1109 C1107 1.387 . S
C1109 C1111 1.390 . S
C1109 H1113 0.950 . S
H1110 C1106 0.950 . S
C1111 C1109 1.390 . S
C1111 C1112 1.387 . S
C1111 H1114 0.950 . S
C1112 C1111 1.387 . S
C1112 C1115 1.387 . S
H1113 C1109 0.950 . S
H1114 C1111 0.950 . S
C1115 C1106 1.390 . S
C1115 H1108 0.950 . S
C1115 C1112 1.387 . S
C1116 C1117 1.387 . S
C1116 H1120 0.950 . S
C1116 C1125 1.390 . S
C1117 C1116 1.387 . S
C1117 C1119 1.387 . S
H1118 C1125 0.950 . S
C1119 C1117 1.387 . S
C1119 C1121 1.390 . S
C1119 H1123 0.950 . S
H1120 C1116 0.950 . S
C1121 C1119 1.390 . S
C1121 C1122 1.387 1_556 S
C1121 H1124 0.950 1_556 S
C1122 C1121 1.387 1_554 S
C1122 C1125 1.387 1_554 S
H1123 C1119 0.950 . S
H1124 C1121 0.950 1_554 S
C1125 C1116 1.390 . S
C1125 H1118 0.950 . S
C1125 C1122 1.387 1_556 S
C1126 C1127 1.387 . S
C1126 H1130 0.950 . S
C1126 C1135 1.390 . S
C1127 C1126 1.387 . S
C1127 C1129 1.387 . S
H1128 C1135 0.950 . S
C1129 C1127 1.387 . S
C1129 C1131 1.390 . S
C1129 H1133 0.950 . S
H1130 C1126 0.950 . S
C1131 C1129 1.390 . S
C1131 C1132 1.387 . S
C1131 H1134 0.950 . S
C1132 C1131 1.387 . S
C1132 C1135 1.387 . S
H1133 C1129 0.950 . S
H1134 C1131 0.950 . S
C1135 C1126 1.390 . S
C1135 H1128 0.950 . S
C1135 C1132 1.387 . S
C1136 C1137 1.387 . S
C1136 H1140 0.950 . S
C1136 C1145 1.390 . S
C1137 C1136 1.387 . S
C1137 C1139 1.387 . S
H1138 C1145 0.950 . S
C1139 C1137 1.387 . S
C1139 C1141 1.390 . S
C1139 H1143 0.950 . S
H1140 C1136 0.950 . S
C1141 C1139 1.390 . S
C1141 C1142 1.387 . S
C1141 H1144 0.950 . S
C1142 C1141 1.387 . S
C1142 C1145 1.387 . S
H1143 C1139 0.950 . S
H1144 C1141 0.950 . S
C1145 C1136 1.390 . S
C1145 H1138 0.950 . S
C1145 C1142 1.387 . S
C1146 C1147 1.387 . S
C1146 H1150 0.950 . S
C1146 C1155 1.390 . S
C1147 C1146 1.387 . S
C1147 C1149 1.387 . S
H1148 C1155 0.950 . S
C1149 C1147 1.387 . S
C1149 C1151 1.390 . S
C1149 H1153 0.950 . S
H1150 C1146 0.950 . S
C1151 C1149 1.390 . S
C1151 C1152 1.387 . S
C1151 H1154 0.950 . S
C1152 C1151 1.387 . S
C1152 C1155 1.387 . S
H1153 C1149 0.950 . S
H1154 C1151 0.950 . S
C1155 C1146 1.390 . S
C1155 H1148 0.950 . S
C1155 C1152 1.387 . S
C1156 C1157 1.387 . S
C1156 H1160 0.950 . S
C1156 C1165 1.390 . S
C1157 C1156 1.387 . S
C1157 C1159 1.387 . S
H1158 C1165 0.950 . S
C1159 C1157 1.387 . S
C1159 C1161 1.390 . S
C1159 H1163 0.950 . S
H1160 C1156 0.950 . S
C1161 C1159 1.390 . S
C1161 C1162 1.387 . S
C1161 H1164 0.950 . S
C1162 C1161 1.387 . S
C1162 C1165 1.387 . S
H1163 C1159 0.950 . S
H1164 C1161 0.950 . S
C1165 C1156 1.390 . S
C1165 H1158 0.950 . S
C1165 C1162 1.387 . S
C1166 C1167 1.387 . S
C1166 H1170 0.950 . S
C1166 C1175 1.390 . S
C1167 C1166 1.387 . S
C1167 C1169 1.387 . S
H1168 C1175 0.950 . S
C1169 C1167 1.387 . S
C1169 C1171 1.390 . S
C1169 H1173 0.950 . S
H1170 C1166 0.950 . S
C1171 C1169 1.390 . S
C1171 C1172 1.387 . S
C1171 H1174 0.950 . S
C1172 C1171 1.387 . S
C1172 C1175 1.387 . S
H1173 C1169 0.950 . S
H1174 C1171 0.950 . S
C1175 C1166 1.390 . S
C1175 H1168 0.950 . S
C1175 C1172 1.387 . S
C1176 C1177 1.387 . S
C1176 H1180 0.950 . S
C1176 C1185 1.390 . S
C1177 C1176 1.387 . S
C1177 C1179 1.387 . S
H1178 C1185 0.950 . S
C1179 C1177 1.387 . S
C1179 C1181 1.390 . S
C1179 H1183 0.950 . S
H1180 C1176 0.950 . S
C1181 C1179 1.390 . S
C1181 C1182 1.387 . S
C1181 H1184 0.950 . S
C1182 C1181 1.387 . S
C1182 C1185 1.387 . S
H1183 C1179 0.950 . S
H1184 C1181 0.950 . S
C1185 C1176 1.390 . S
C1185 H1178 0.950 . S
C1185 C1182 1.387 . S
C1186 C1187 1.387 . S
C1186 H1190 0.950 . S
C1186 C1195 1.390 . S
C1187 C1186 1.387 . S
C1187 C1189 1.387 . S
H1188 C1195 0.950 . S
C1189 C1187 1.387 . S
C1189 C1191 1.390 . S
C1189 H1193 0.950 . S
H1190 C1186 0.950 . S
C1191 C1189 1.390 . S
C1191 C1192 1.387 . S
C1191 H1194 0.950 . S
C1192 C1191 1.387 . S
C1192 C1195 1.387 . S
H1193 C1189 0.950 . S
H1194 C1191 0.950 . S
C1195 C1186 1.390 . S
C1195 H1188 0.950 . S
C1195 C1192 1.387 . S
C1196 C1197 1.387 . S
C1196 H1200 0.950 . S
C1196 C1205 1.390 . S
C1197 C1196 1.387 . S
C1197 C1199 1.387 . S
H1198 C1205 0.950 . S
C1199 C1197 1.387 . S
C1199 C1201 1.390 . S
C1199 H1203 0.950 . S
H1200 C1196 0.950 . S
C1201 C1199 1.390 . S
C1201 C1202 1.387 . S
C1201 H1204 0.950 . S
C1202 C1201 1.387 . S
C1202 C1205 1.387 . S
H1203 C1199 0.950 . S
H1204 C1201 0.950 . S
C1205 C1196 1.390 . S
C1205 H1198 0.950 . S
C1205 C1202 1.387 . S
C1206 C1207 1.387 . S
C1206 H1210 0.950 . S
C1206 C1215 1.390 . S
C1207 C1206 1.387 . S
C1207 C1209 1.387 . S
H1208 C1215 0.950 . S
C1209 C1207 1.387 . S
C1209 C1211 1.390 . S
C1209 H1213 0.950 . S
H1210 C1206 0.950 . S
C1211 C1209 1.390 . S
C1211 C1212 1.387 . S
C1211 H1214 0.950 . S
C1212 C1211 1.387 . S
C1212 C1215 1.387 . S
H1213 C1209 0.950 . S
H1214 C1211 0.950 . S
C1215 C1206 1.390 . S
C1215 H1208 0.950 . S
C1215 C1212 1.387 . S
C1216 C1217 1.387 . S
C1216 H1220 0.950 . S
C1216 C1225 1.390 . S
C1217 C1216 1.387 . S
C1217 C1219 1.387 . S
H1218 C1225 0.950 . S
C1219 C1217 1.387 . S
C1219 C1221 1.390 . S
C1219 H1223 0.950 . S
H1220 C1216 0.950 . S
C1221 C1219 1.390 . S
C1221 C1222 1.387 . S
C1221 H1224 0.950 . S
C1222 C1221 1.387 . S
C1222 C1225 1.387 . S
H1223 C1219 0.950 . S
H1224 C1221 0.950 . S
C1225 C1216 1.390 . S
C1225 H1218 0.950 . S
C1225 C1222 1.387 . S
C1226 C1227 1.387 . S
C1226 H1230 0.950 . S
C1226 C1235 1.390 . S
C1227 C1226 1.387 . S
C1227 C1229 1.387 . S
H1228 C1235 0.950 . S
C1229 C1227 1.387 . S
C1229 C1231 1.390 . S
C1229 H1233 0.950 . S
H1230 C1226 0.950 . S
C1231 C1229 1.390 . S
C1231 C1232 1.387 . S
C1231 H1234 0.950 . S
C1232 C1231 1.387 . S
C1232 C1235 1.387 . S
H1233 C1229 0.950 . S
H1234 C1231 0.950 . S
C1235 C1226 1.390 . S
C1235 H1228 0.950 . S
C1235 C1232 1.387 . S
C1236 C1237 1.387 . S
C1236 H1240 0.950 . S
C1236 C1245 1.390 . S
C1237 C1236 1.387 . S
C1237 C1239 1.387 . S
H1238 C1245 0.950 . S
C1239 C1237 1.387 . S
C1239 C1241 1.390 . S
C1239 H1243 0.950 . S
H1240 C1236 0.950 . S
C1241 C1239 1.390 . S
C1241 C1242 1.387 . S
C1241 H1244 0.950 . S
C1242 C1241 1.387 . S
C1242 C1245 1.387 . S
H1243 C1239 0.950 . S
H1244 C1241 0.950 . S
C1245 C1236 1.390 . S
C1245 H1238 0.950 . S
C1245 C1242 1.387 . S
C1246 C1247 1.387 . S
C1246 H1250 0.950 . S
C1246 C1255 1.390 . S
C1247 C1246 1.387 . S
C1247 C1249 1.387 . S
H1248 C1255 0.950 . S
C1249 C1247 1.387 . S
C1249 C1251 1.390 . S
C1249 H1253 0.950 . S
H1250 C1246 0.950 . S
C1251 C1249 1.390 . S
C1251 C1252 1.387 . S
C1251 H1254 0.950 . S
C1252 C1251 1.387 . S
C1252 C1255 1.387 . S
H1253 C1249 0.950 . S
H1254 C1251 0.950 . S
C1255 C1246 1.390 . S
C1255 H1248 0.950 . S
C1255 C1252 1.387 . S
C1256 C1257 1.388 1_655 S
C1256 H1260 0.950 . S
C1256 C1265 1.390 . S
C1257 C1256 1.388 1_455 S
C1257 C1259 1.391 . S
H1258 C1265 0.950 . S
C1259 C1257 1.391 . S
C1259 C1261 1.390 . S
C1259 H1263 0.950 . S
H1260 C1256 0.950 . S
C1261 C1259 1.390 . S
C1261 C1262 1.387 1_455 S
C1261 H1264 0.950 . S
C1262 C1261 1.387 1_655 S
C1262 C1265 1.387 . S
H1263 C1259 0.950 . S
H1264 C1261 0.950 . S
C1265 C1256 1.390 . S
C1265 H1258 0.950 . S
C1265 C1262 1.387 . S
C1266 C1267 1.387 . S
C1266 H1270 0.950 . S
C1266 C1275 1.390 . S
C1267 C1266 1.387 . S
C1267 C1269 1.387 . S
H1268 C1275 0.950 . S
C1269 C1267 1.387 . S
C1269 C1271 1.390 . S
C1269 H1273 0.950 . S
H1270 C1266 0.950 . S
C1271 C1269 1.390 . S
C1271 C1272 1.387 . S
C1271 H1274 0.950 . S
C1272 C1271 1.387 . S
C1272 C1275 1.387 . S
H1273 C1269 0.950 . S
H1274 C1271 0.950 . S
C1275 C1266 1.390 . S
C1275 H1268 0.950 . S
C1275 C1272 1.387 . S
C1276 C1277 1.387 . S
C1276 H1280 0.950 . S
C1276 C1285 1.390 1_556 S
C1277 C1276 1.387 . S
C1277 C1279 1.382 1_556 S
H1278 C1285 0.950 . S
C1279 C1277 1.382 1_554 S
C1279 C1281 1.407 . S
C1279 H1283 0.938 1_554 S
H1280 C1276 0.950 . S
C1281 C1279 1.407 . S
C1281 C1282 1.387 . S
C1281 H1284 0.950 . S
C1282 C1281 1.387 . S
C1282 C1285 1.387 . S
H1283 C1279 0.938 1_556 S
H1284 C1281 0.950 . S
C1285 C1276 1.390 1_554 S
C1285 H1278 0.950 . S
C1285 C1282 1.387 . S
C1286 C1287 1.387 . S
C1286 H1290 0.950 . S
C1286 C1295 1.390 1_455 S
C1287 C1286 1.387 . S
C1287 C1289 1.387 . S
H1288 C1295 0.938 . S
C1289 C1287 1.387 . S
C1289 C1291 1.390 1_455 S
C1289 H1293 0.950 . S
H1290 C1286 0.950 . S
C1291 C1289 1.390 1_655 S
C1291 C1292 1.387 . S
C1291 H1294 0.950 . S
C1292 C1291 1.387 . S
C1292 C1295 1.387 . S
H1293 C1289 0.950 . S
H1294 C1291 0.950 . S
C1295 C1286 1.390 1_655 S
C1295 H1288 0.938 . S
C1295 C1292 1.387 . S
C1296 C1297 1.387 . S
C1296 H1300 0.950 . S
C1296 C1305 1.390 . S
C1297 C1296 1.387 . S
C1297 C1299 1.387 . S
H1298 C1305 0.950 . S
C1299 C1297 1.387 . S
C1299 C1301 1.363 1_556 S
C1299 H1303 0.950 . S
H1300 C1296 0.950 . S
C1301 C1299 1.363 1_554 S
C1301 C1302 1.390 1_554 S
C1301 H1304 0.976 . S
C1302 C1301 1.390 1_556 S
C1302 C1305 1.387 . S
H1303 C1299 0.950 . S
H1304 C1301 0.976 . S
C1305 C1296 1.390 . S
C1305 H1298 0.950 . S
C1305 C1302 1.387 . S
C1306 C1307 1.387 . S
C1306 H1310 0.950 . S
C1306 C1315 1.390 . S
C1307 C1306 1.387 . S
C1307 C1309 1.387 . S
H1308 C1315 0.950 . S
C1309 C1307 1.387 . S
C1309 C1311 1.390 . S
C1309 H1313 0.950 . S
H1310 C1306 0.950 . S
C1311 C1309 1.390 . S
C1311 C1312 1.387 . S
C1311 H1314 0.950 . S
C1312 C1311 1.387 . S
C1312 C1315 1.387 . S
H1313 C1309 0.950 . S
H1314 C1311 0.950 . S
C1315 C1306 1.390 . S
C1315 H1308 0.950 . S
C1315 C1312 1.387 . S
C1316 C1317 1.387 . S
C1316 H1320 0.950 . S
C1316 C1325 1.390 . S
C1317 C1316 1.387 . S
C1317 C1319 1.387 . S
H1318 C1325 0.950 . S
C1319 C1317 1.387 . S
C1319 C1321 1.390 . S
C1319 H1323 0.956 . S
H1320 C1316 0.950 . S
C1321 C1319 1.390 . S
C1321 C1322 1.387 . S
C1321 H1324 0.950 1_545 S
C1322 C1321 1.387 . S
C1322 C1325 1.387 . S
H1323 C1319 0.956 . S
H1324 C1321 0.950 1_565 S
C1325 C1316 1.390 . S
C1325 H1318 0.950 . S
C1325 C1322 1.387 . S
C1326 C1327 1.387 . S
C1326 H1330 0.950 . S
C1326 C1335 1.390 . S
C1327 C1326 1.387 . S
C1327 C1329 1.387 . S
H1328 C1335 0.950 . S
C1329 C1327 1.387 . S
C1329 C1331 1.390 . S
C1329 H1333 0.950 . S
H1330 C1326 0.950 . S
C1331 C1329 1.390 . S
C1331 C1332 1.387 . S
C1331 H1334 0.950 . S
C1332 C1331 1.387 . S
C1332 C1335 1.387 . S
H1333 C1329 0.950 . S
H1334 C1331 0.950 . S
C1335 C1326 1.390 . S
C1335 H1328 0.950 . S
C1335 C1332 1.387 . S
C1336 C1337 1.387 . S
C1336 H1340 0.950 . S
C1336 C1345 1.390 . S
C1337 C1336 1.387 . S
C1337 C1339 1.387 . S
H1338 C1345 0.950 . S
C1339 C1337 1.387 . S
C1339 C1341 1.390 . S
C1339 H1343 0.950 . S
H1340 C1336 0.950 . S
C1341 C1339 1.390 . S
C1341 C1342 1.387 . S
C1341 H1344 0.950 . S
C1342 C1341 1.387 . S
C1342 C1345 1.387 . S
H1343 C1339 0.950 . S
H1344 C1341 0.950 . S
C1345 C1336 1.390 . S
C1345 H1338 0.950 . S
C1345 C1342 1.387 . S
C1346 C1347 1.387 . S
C1346 H1350 0.950 . S
C1346 C1355 1.390 . S
C1347 C1346 1.387 . S
C1347 C1349 1.387 . S
H1348 C1355 0.950 . S
C1349 C1347 1.387 . S
C1349 C1351 1.390 . S
C1349 H1353 0.950 . S
H1350 C1346 0.950 . S
C1351 C1349 1.390 . S
C1351 C1352 1.387 . S
C1351 H1354 0.950 . S
C1352 C1351 1.387 . S
C1352 C1355 1.387 . S
H1353 C1349 0.950 . S
H1354 C1351 0.950 . S
C1355 C1346 1.390 . S
C1355 H1348 0.950 . S
C1355 C1352 1.387 . S
C1356 C1357 1.387 . S
C1356 H1360 0.950 . S
C1356 C1365 1.390 . S
C1357 C1356 1.387 . S
C1357 C1359 1.387 . S
H1358 C1365 0.950 . S
C1359 C1357 1.387 . S
C1359 C1361 1.390 . S
C1359 H1363 0.950 1_545 S
H1360 C1356 0.950 . S
C1361 C1359 1.390 . S
C1361 C1362 1.387 . S
C1361 H1364 0.950 1_545 S
C1362 C1361 1.387 . S
C1362 C1365 1.387 . S
H1363 C1359 0.950 1_565 S
H1364 C1361 0.950 1_565 S
C1365 C1356 1.390 . S
C1365 H1358 0.950 . S
C1365 C1362 1.387 . S
C1366 C1367 1.387 . S
C1366 H1370 0.950 . S
C1366 C1375 1.390 . S
C1367 C1366 1.387 . S
C1367 C1369 1.387 . S
H1368 C1375 0.950 . S
C1369 C1367 1.387 . S
C1369 C1371 1.390 . S
C1369 H1373 0.950 1_556 S
H1370 C1366 0.950 . S
C1371 C1369 1.390 . S
C1371 C1372 1.387 . S
C1371 H1374 0.950 . S
C1372 C1371 1.387 . S
C1372 C1375 1.387 . S
H1373 C1369 0.950 1_554 S
H1374 C1371 0.950 . S
C1375 C1366 1.390 . S
C1375 H1368 0.950 . S
C1375 C1372 1.387 . S
C1376 C1377 1.387 . S
C1376 H1380 0.950 . S
C1376 C1385 1.390 . S
C1377 C1376 1.387 . S
C1377 C1379 1.387 . S
H1378 C1385 0.950 . S
C1379 C1377 1.387 . S
C1379 C1381 1.390 . S
C1379 H1383 0.950 . S
H1380 C1376 0.950 . S
C1381 C1379 1.390 . S
C1381 C1382 1.387 . S
C1381 H1384 0.950 . S
C1382 C1381 1.387 . S
C1382 C1385 1.387 . S
H1383 C1379 0.950 . S
H1384 C1381 0.950 . S
C1385 C1376 1.390 . S
C1385 H1378 0.950 . S
C1385 C1382 1.387 . S
C1386 C1387 1.387 . S
C1386 H1390 0.950 . S
C1386 C1395 1.390 . S
C1387 C1386 1.387 . S
C1387 C1389 1.387 . S
H1388 C1395 0.950 . S
C1389 C1387 1.387 . S
C1389 C1391 1.390 . S
C1389 H1393 0.950 . S
H1390 C1386 0.950 . S
C1391 C1389 1.390 . S
C1391 C1392 1.387 . S
C1391 H1394 0.950 . S
C1392 C1391 1.387 . S
C1392 C1395 1.387 . S
H1393 C1389 0.950 . S
H1394 C1391 0.950 . S
C1395 C1386 1.390 . S
C1395 H1388 0.950 . S
C1395 C1392 1.387 . S
C1396 C1397 1.387 . S
C1396 H1400 0.950 . S
C1396 C1405 1.390 . S
C1397 C1396 1.387 . S
C1397 C1399 1.387 . S
H1398 C1405 0.950 . S
C1399 C1397 1.387 . S
C1399 C1401 1.390 . S
C1399 H1403 0.950 . S
H1400 C1396 0.950 . S
C1401 C1399 1.390 . S
C1401 C1402 1.387 . S
C1401 H1404 0.950 . S
C1402 C1401 1.387 . S
C1402 C1405 1.387 . S
H1403 C1399 0.950 . S
H1404 C1401 0.950 . S
C1405 C1396 1.390 . S
C1405 H1398 0.950 . S
C1405 C1402 1.387 . S
C1406 C1407 1.387 . S
C1406 H1410 0.950 . S
C1406 C1415 1.390 . S
C1407 C1406 1.387 . S
C1407 C1409 1.387 . S
H1408 C1415 0.950 . S
C1409 C1407 1.387 . S
C1409 C1411 1.390 . S
C1409 H1413 0.950 . S
H1410 C1406 0.950 . S
C1411 C1409 1.390 . S
C1411 C1412 1.387 . S
C1411 H1414 0.950 . S
C1412 C1411 1.387 . S
C1412 C1415 1.387 . S
H1413 C1409 0.950 . S
H1414 C1411 0.950 . S
C1415 C1406 1.390 . S
C1415 H1408 0.950 . S
C1415 C1412 1.387 . S
C1416 C1417 1.387 . S
C1416 H1420 0.950 . S
C1416 C1425 1.390 . S
C1417 C1416 1.387 . S
C1417 C1419 1.387 . S
H1418 C1425 0.950 . S
C1419 C1417 1.387 . S
C1419 C1421 1.390 . S
C1419 H1423 0.950 . S
H1420 C1416 0.950 . S
C1421 C1419 1.390 . S
C1421 C1422 1.387 . S
C1421 H1424 0.950 . S
C1422 C1421 1.387 . S
C1422 C1425 1.387 . S
H1423 C1419 0.950 . S
H1424 C1421 0.950 . S
C1425 C1416 1.390 . S
C1425 H1418 0.950 . S
C1425 C1422 1.387 . S
C1426 C1427 1.387 . S
C1426 H1430 0.950 . S
C1426 C1435 1.390 . S
C1427 C1426 1.387 . S
C1427 C1429 1.387 . S
H1428 C1435 0.950 . S
C1429 C1427 1.387 . S
C1429 C1431 1.390 . S
C1429 H1433 0.950 . S
H1430 C1426 0.950 . S
C1431 C1429 1.390 . S
C1431 C1432 1.387 . S
C1431 H1434 0.950 . S
C1432 C1431 1.387 . S
C1432 C1435 1.387 . S
H1433 C1429 0.950 . S
H1434 C1431 0.950 . S
C1435 C1426 1.390 . S
C1435 H1428 0.950 . S
C1435 C1432 1.387 . S
C1436 C1437 1.387 . S
C1436 H1440 0.950 . S
C1436 C1445 1.390 . S
C1437 C1436 1.387 . S
C1437 C1439 1.387 . S
H1438 C1445 0.950 . S
C1439 C1437 1.387 . S
C1439 C1441 1.390 . S
C1439 H1443 0.950 . S
H1440 C1436 0.950 . S
C1441 C1439 1.390 . S
C1441 C1442 1.387 . S
C1441 H1444 0.950 . S
C1442 C1441 1.387 . S
C1442 C1445 1.387 . S
H1443 C1439 0.950 . S
H1444 C1441 0.950 . S
C1445 C1436 1.390 . S
C1445 H1438 0.950 . S
C1445 C1442 1.387 . S
C1446 C1447 1.387 . S
C1446 H1450 0.950 . S
C1446 C1455 1.390 . S
C1447 C1446 1.387 . S
C1447 C1449 1.387 . S
H1448 C1455 0.950 . S
C1449 C1447 1.387 . S
C1449 C1451 1.390 . S
C1449 H1453 0.950 . S
H1450 C1446 0.950 . S
C1451 C1449 1.390 . S
C1451 C1452 1.387 . S
C1451 H1454 0.950 . S
C1452 C1451 1.387 . S
C1452 C1455 1.387 . S
H1453 C1449 0.950 . S
H1454 C1451 0.950 . S
C1455 C1446 1.390 . S
C1455 H1448 0.950 . S
C1455 C1452 1.387 . S
C1456 C1457 1.387 . S
C1456 H1460 0.950 . S
C1456 C1465 1.390 . S
C1457 C1456 1.387 . S
C1457 C1459 1.387 . S
H1458 C1465 0.950 . S
C1459 C1457 1.387 . S
C1459 C1461 1.390 . S
C1459 H1463 0.950 . S
H1460 C1456 0.950 . S
C1461 C1459 1.390 . S
C1461 C1462 1.387 . S
C1461 H1464 0.950 . S
C1462 C1461 1.387 . S
C1462 C1465 1.387 . S
H1463 C1459 0.950 . S
H1464 C1461 0.950 . S
C1465 C1456 1.390 . S
C1465 H1458 0.950 . S
C1465 C1462 1.387 . S
C1466 C1467 1.387 . S
C1466 H1470 0.950 . S
C1466 C1475 1.390 . S
C1467 C1466 1.387 . S
C1467 C1469 1.387 . S
H1468 C1475 0.950 . S
C1469 C1467 1.387 . S
C1469 C1471 1.390 . S
C1469 H1473 0.950 . S
H1470 C1466 0.950 . S
C1471 C1469 1.390 . S
C1471 C1472 1.387 . S
C1471 H1474 0.950 . S
C1472 C1471 1.387 . S
C1472 C1475 1.387 . S
H1473 C1469 0.950 . S
H1474 C1471 0.950 . S
C1475 C1466 1.390 . S
C1475 H1468 0.950 . S
C1475 C1472 1.387 . S
C1476 C1477 1.387 . S
C1476 H1480 0.950 . S
C1476 C1485 1.390 . S
C1477 C1476 1.387 . S
C1477 C1479 1.367 1_455 S
H1478 C1485 0.950 . S
C1479 C1477 1.367 1_655 S
C1479 C1481 1.394 1_655 S
C1479 H1483 0.966 . S
H1480 C1476 0.950 . S
C1481 C1479 1.394 1_455 S
C1481 C1482 1.387 . S
C1481 H1484 0.950 1_455 S
C1482 C1481 1.387 . S
C1482 C1485 1.387 . S
H1483 C1479 0.966 . S
H1484 C1481 0.950 1_655 S
C1485 C1476 1.390 . S
C1485 H1478 0.950 . S
C1485 C1482 1.387 . S
C1486 C1487 1.387 . S
C1486 H1490 0.950 . S
C1486 C1495 1.390 1_455 S
C1487 C1486 1.387 . S
C1487 C1489 1.387 1_455 S
H1488 C1495 0.950 . S
C1489 C1487 1.387 1_655 S
C1489 C1491 1.390 . S
C1489 H1493 0.950 . S
H1490 C1486 0.950 . S
C1491 C1489 1.390 . S
C1491 C1492 1.387 . S
C1491 H1494 0.950 . S
C1492 C1491 1.387 . S
C1492 C1495 1.387 . S
H1493 C1489 0.950 . S
H1494 C1491 0.950 . S
C1495 C1486 1.390 1_655 S
C1495 H1488 0.950 . S
C1495 C1492 1.387 . S
C1496 C1497 1.387 . S
C1496 H1500 0.950 . S
C1496 C1505 1.390 . S
C1497 C1496 1.387 . S
C1497 C1499 1.387 . S
H1498 C1505 0.950 . S
C1499 C1497 1.387 . S
C1499 C1501 1.390 . S
C1499 H1503 0.950 . S
H1500 C1496 0.950 . S
C1501 C1499 1.390 . S
C1501 C1502 1.387 . S
C1501 H1504 0.950 . S
C1502 C1501 1.387 . S
C1502 C1505 1.387 . S
H1503 C1499 0.950 . S
H1504 C1501 0.950 . S
C1505 C1496 1.390 . S
C1505 H1498 0.950 . S
C1505 C1502 1.387 . S
C1506 C1507 1.387 . S
C1506 H1510 0.950 . S
C1506 C1515 1.390 . S
C1507 C1506 1.387 . S
C1507 C1509 1.387 . S
H1508 C1515 0.950 . S
C1509 C1507 1.387 . S
C1509 C1511 1.390 . S
C1509 H1513 0.950 . S
H1510 C1506 0.950 . S
C1511 C1509 1.390 . S
C1511 C1512 1.387 . S
C1511 H1514 0.950 . S
C1512 C1511 1.387 . S
C1512 C1515 1.387 . S
H1513 C1509 0.950 . S
H1514 C1511 0.950 . S
C1515 C1506 1.390 . S
C1515 H1508 0.950 . S
C1515 C1512 1.387 . S
C1516 C1517 1.387 . S
C1516 H1520 0.950 . S
C1516 C1525 1.390 . S
C1517 C1516 1.387 . S
C1517 C1519 1.387 . S
H1518 C1525 0.950 . S
C1519 C1517 1.387 . S
C1519 C1521 1.390 . S
C1519 H1523 0.950 . S
H1520 C1516 0.950 . S
C1521 C1519 1.390 . S
C1521 C1522 1.387 . S
C1521 H1524 0.950 . S
C1522 C1521 1.387 . S
C1522 C1525 1.387 . S
H1523 C1519 0.950 . S
H1524 C1521 0.950 . S
C1525 C1516 1.390 . S
C1525 H1518 0.950 . S
C1525 C1522 1.387 . S
C1526 C1527 1.387 . S
C1526 H1530 0.950 . S
C1526 C1535 1.390 . S
C1527 C1526 1.387 . S
C1527 C1529 1.387 . S
H1528 C1535 0.950 . S
C1529 C1527 1.387 . S
C1529 C1531 1.390 . S
C1529 H1533 0.950 . S
H1530 C1526 0.950 . S
C1531 C1529 1.390 . S
C1531 C1532 1.387 . S
C1531 H1534 0.950 . S
C1532 C1531 1.387 . S
C1532 C1535 1.387 . S
H1533 C1529 0.950 . S
H1534 C1531 0.950 . S
C1535 C1526 1.390 . S
C1535 H1528 0.950 . S
C1535 C1532 1.387 . S
C1536 C1537 1.387 . S
C1536 H1540 0.950 . S
C1536 C1545 1.390 . S
C1537 C1536 1.387 . S
C1537 C1539 1.387 . S
H1538 C1545 0.950 . S
C1539 C1537 1.387 . S
C1539 C1541 1.390 . S
C1539 H1543 0.950 . S
H1540 C1536 0.950 . S
C1541 C1539 1.390 . S
C1541 C1542 1.387 . S
C1541 H1544 0.950 . S
C1542 C1541 1.387 . S
C1542 C1545 1.387 . S
H1543 C1539 0.950 . S
H1544 C1541 0.950 . S
C1545 C1536 1.390 . S
C1545 H1538 0.950 . S
C1545 C1542 1.387 . S
C1546 C1547 1.387 . S
C1546 H1550 0.950 . S
C1546 C1555 1.390 . S
C1547 C1546 1.387 . S
C1547 C1549 1.387 . S
H1548 C1555 0.950 . S
C1549 C1547 1.387 . S
C1549 C1551 1.390 . S
C1549 H1553 0.950 . S
H1550 C1546 0.950 . S
C1551 C1549 1.390 . S
C1551 C1552 1.387 . S
C1551 H1554 0.950 . S
C1552 C1551 1.387 . S
C1552 C1555 1.387 . S
H1553 C1549 0.950 . S
H1554 C1551 0.950 . S
C1555 C1546 1.390 . S
C1555 H1548 0.950 . S
C1555 C1552 1.387 . S
C1556 C1557 1.387 . S
C1556 H1560 0.950 . S
C1556 C1565 1.390 . S
C1557 C1556 1.387 . S
C1557 C1559 1.387 . S
H1558 C1565 0.950 . S
C1559 C1557 1.387 . S
C1559 C1561 1.390 . S
C1559 H1563 0.950 . S
H1560 C1556 0.950 . S
C1561 C1559 1.390 . S
C1561 C1562 1.387 . S
C1561 H1564 0.950 . S
C1562 C1561 1.387 . S
C1562 C1565 1.387 . S
H1563 C1559 0.950 . S
H1564 C1561 0.950 . S
C1565 C1556 1.390 . S
C1565 H1558 0.950 . S
C1565 C1562 1.387 . S
C1566 C1567 1.387 . S
C1566 H1570 0.950 . S
C1566 C1575 1.390 . S
C1567 C1566 1.387 . S
C1567 C1569 1.387 . S
H1568 C1575 0.950 . S
C1569 C1567 1.387 . S
C1569 C1571 1.390 . S
C1569 H1573 0.950 . S
H1570 C1566 0.950 . S
C1571 C1569 1.390 . S
C1571 C1572 1.387 . S
C1571 H1574 0.950 . S
C1572 C1571 1.387 . S
C1572 C1575 1.387 . S
H1573 C1569 0.950 . S
H1574 C1571 0.950 . S
C1575 C1566 1.390 . S
C1575 H1568 0.950 . S
C1575 C1572 1.387 . S
C1576 C1577 1.387 . S
C1576 H1580 0.950 . S
C1576 C1585 1.390 . S
C1577 C1576 1.387 . S
C1577 C1579 1.387 . S
H1578 C1585 0.950 . S
C1579 C1577 1.387 . S
C1579 C1581 1.390 . S
C1579 H1583 0.950 . S
H1580 C1576 0.950 . S
C1581 C1579 1.390 . S
C1581 C1582 1.387 . S
C1581 H1584 0.950 . S
C1582 C1581 1.387 . S
C1582 C1585 1.387 . S
H1583 C1579 0.950 . S
H1584 C1581 0.950 . S
C1585 C1576 1.390 . S
C1585 H1578 0.950 . S
C1585 C1582 1.387 . S
C1586 C1587 1.387 . S
C1586 H1590 0.950 . S
C1586 C1595 1.390 . S
C1587 C1586 1.387 . S
C1587 C1589 1.387 . S
H1588 C1595 0.950 . S
C1589 C1587 1.387 . S
C1589 C1591 1.390 . S
C1589 H1593 0.950 . S
H1590 C1586 0.950 . S
C1591 C1589 1.390 . S
C1591 C1592 1.387 . S
C1591 H1594 0.950 . S
C1592 C1591 1.387 . S
C1592 C1595 1.387 . S
H1593 C1589 0.950 . S
H1594 C1591 0.950 . S
C1595 C1586 1.390 . S
C1595 H1588 0.950 . S
C1595 C1592 1.387 . S
C1596 C1597 1.387 . S
C1596 H1600 0.950 . S
C1596 C1605 1.390 . S
C1597 C1596 1.387 . S
C1597 C1599 1.387 . S
H1598 C1605 0.950 . S
C1599 C1597 1.387 . S
C1599 C1601 1.390 . S
C1599 H1603 0.950 . S
H1600 C1596 0.950 . S
C1601 C1599 1.390 . S
C1601 C1602 1.387 . S
C1601 H1604 0.950 . S
C1602 C1601 1.387 . S
C1602 C1605 1.387 . S
H1603 C1599 0.950 . S
H1604 C1601 0.950 . S
C1605 C1596 1.390 . S
C1605 H1598 0.950 . S
C1605 C1602 1.387 . S
C1606 C1607 1.387 . S
C1606 H1610 0.950 . S
C1606 C1615 1.390 . S
C1607 C1606 1.387 . S
C1607 C1609 1.387 . S
H1608 C1615 0.950 . S
C1609 C1607 1.387 . S
C1609 C1611 1.390 . S
C1609 H1613 0.950 . S
H1610 C1606 0.950 . S
C1611 C1609 1.390 . S
C1611 C1612 1.387 . S
C1611 H1614 0.950 . S
C1612 C1611 1.387 . S
C1612 C1615 1.387 . S
H1613 C1609 0.950 . S
H1614 C1611 0.950 . S
C1615 C1606 1.390 . S
C1615 H1608 0.950 . S
C1615 C1612 1.387 . S
C1616 C1617 1.387 . S
C1616 H1620 0.950 . S
C1616 C1625 1.390 . S
C1617 C1616 1.387 . S
C1617 C1619 1.387 . S
H1618 C1625 0.950 . S
C1619 C1617 1.387 . S
C1619 C1621 1.390 . S
C1619 H1623 0.950 . S
H1620 C1616 0.950 . S
C1621 C1619 1.390 . S
C1621 C1622 1.387 . S
C1621 H1624 0.950 . S
C1622 C1621 1.387 . S
C1622 C1625 1.387 . S
H1623 C1619 0.950 . S
H1624 C1621 0.950 . S
C1625 C1616 1.390 . S
C1625 H1618 0.950 . S
C1625 C1622 1.387 . S
C1626 C1627 1.387 . S
C1626 H1630 0.950 . S
C1626 C1635 1.390 . S
C1627 C1626 1.387 . S
C1627 C1629 1.387 . S
H1628 C1635 0.950 . S
C1629 C1627 1.387 . S
C1629 C1631 1.390 . S
C1629 H1633 0.950 . S
H1630 C1626 0.950 . S
C1631 C1629 1.390 . S
C1631 C1632 1.387 . S
C1631 H1634 0.950 . S
C1632 C1631 1.387 . S
C1632 C1635 1.387 . S
H1633 C1629 0.950 . S
H1634 C1631 0.950 . S
C1635 C1626 1.390 . S
C1635 H1628 0.950 . S
C1635 C1632 1.387 . S
C1636 C1637 1.387 . S
C1636 H1640 0.950 . S
C1636 C1645 1.390 1_545 S
C1637 C1636 1.387 . S
C1637 C1639 1.387 1_545 S
H1638 C1645 0.950 . S
C1639 C1637 1.387 1_565 S
C1639 C1641 1.390 . S
C1639 H1643 0.950 . S
H1640 C1636 0.950 . S
C1641 C1639 1.390 . S
C1641 C1642 1.387 . S
C1641 H1644 0.950 . S
C1642 C1641 1.387 . S
C1642 C1645 1.387 . S
H1643 C1639 0.950 . S
H1644 C1641 0.950 . S
C1645 C1636 1.390 1_565 S
C1645 H1638 0.950 . S
C1645 C1642 1.387 . S
C1646 C1647 1.387 . S
C1646 H1650 0.950 . S
C1646 C1655 1.390 . S
C1647 C1646 1.387 . S
C1647 C1649 1.387 1_554 S
H1648 C1655 0.950 . S
C1649 C1647 1.387 1_556 S
C1649 C1651 1.390 . S
C1649 H1653 0.950 . S
H1650 C1646 0.950 . S
C1651 C1649 1.390 . S
C1651 C1652 1.387 1_556 S
C1651 H1654 0.950 . S
C1652 C1651 1.387 1_554 S
C1652 C1655 1.387 . S
H1653 C1649 0.950 . S
H1654 C1651 0.950 . S
C1655 C1646 1.390 . S
C1655 H1648 0.950 . S
C1655 C1652 1.387 . S
C1656 C1657 1.387 . S
C1656 H1660 0.950 . S
C1656 C1665 1.390 . S
C1657 C1656 1.387 . S
C1657 C1659 1.387 . S
H1658 C1665 0.950 . S
C1659 C1657 1.387 . S
C1659 C1661 1.390 . S
C1659 H1663 0.950 . S
H1660 C1656 0.950 . S
C1661 C1659 1.390 . S
C1661 C1662 1.387 . S
C1661 H1664 0.950 . S
C1662 C1661 1.387 . S
C1662 C1665 1.387 . S
H1663 C1659 0.950 . S
H1664 C1661 0.950 . S
C1665 C1656 1.390 . S
C1665 H1658 0.950 . S
C1665 C1662 1.387 . S
C1666 C1667 1.387 . S
C1666 H1670 0.950 . S
C1666 C1675 1.390 . S
C1667 C1666 1.387 . S
C1667 C1669 1.387 . S
H1668 C1675 0.950 . S
C1669 C1667 1.387 . S
C1669 C1671 1.390 . S
C1669 H1673 0.950 . S
H1670 C1666 0.950 . S
C1671 C1669 1.390 . S
C1671 C1672 1.387 . S
C1671 H1674 0.950 . S
C1672 C1671 1.387 . S
C1672 C1675 1.387 . S
H1673 C1669 0.950 . S
H1674 C1671 0.950 . S
C1675 C1666 1.390 . S
C1675 H1668 0.950 . S
C1675 C1672 1.387 . S
C1676 C1677 1.387 . S
C1676 H1680 0.950 . S
C1676 C1685 1.390 . S
C1677 C1676 1.387 . S
C1677 C1679 1.387 . S
H1678 C1685 0.950 . S
C1679 C1677 1.387 . S
C1679 C1681 1.390 . S
C1679 H1683 0.950 . S
H1680 C1676 0.950 . S
C1681 C1679 1.390 . S
C1681 C1682 1.387 . S
C1681 H1684 0.950 . S
C1682 C1681 1.387 . S
C1682 C1685 1.387 . S
H1683 C1679 0.950 . S
H1684 C1681 0.950 . S
C1685 C1676 1.390 . S
C1685 H1678 0.950 . S
C1685 C1682 1.387 . S
C1686 C1687 1.387 . S
C1686 H1690 0.950 . S
C1686 C1695 1.390 . S
C1687 C1686 1.387 . S
C1687 C1689 1.387 . S
H1688 C1695 0.950 . S
C1689 C1687 1.387 . S
C1689 C1691 1.390 . S
C1689 H1693 0.950 . S
H1690 C1686 0.950 . S
C1691 C1689 1.390 . S
C1691 C1692 1.387 . S
C1691 H1694 0.950 . S
C1692 C1691 1.387 . S
C1692 C1695 1.387 . S
H1693 C1689 0.950 . S
H1694 C1691 0.950 . S
C1695 C1686 1.390 . S
C1695 H1688 0.950 . S
C1695 C1692 1.387 . S
C1696 C1697 1.387 . S
C1696 H1700 0.950 . S
C1696 C1705 1.390 . S
C1697 C1696 1.387 . S
C1697 C1699 1.387 . S
H1698 C1705 0.950 . S
C1699 C1697 1.387 . S
C1699 C1701 1.390 . S
C1699 H1703 0.950 . S
H1700 C1696 0.950 . S
C1701 C1699 1.390 . S
C1701 C1702 1.387 . S
C1701 H1704 0.950 . S
C1702 C1701 1.387 . S
C1702 C1705 1.387 . S
H1703 C1699 0.950 . S
H1704 C1701 0.950 . S
C1705 C1696 1.390 . S
C1705 H1698 0.950 . S
C1705 C1702 1.387 . S
C1706 C1707 1.387 . S
C1706 H1710 0.950 . S
C1706 C1715 1.390 . S
C1707 C1706 1.387 . S
C1707 C1709 1.387 . S
H1708 C1715 0.950 . S
C1709 C1707 1.387 . S
C1709 C1711 1.390 . S
C1709 H1713 0.950 . S
H1710 C1706 0.950 . S
C1711 C1709 1.390 . S
C1711 C1712 1.387 . S
C1711 H1714 0.950 . S
C1712 C1711 1.387 . S
C1712 C1715 1.387 . S
H1713 C1709 0.950 . S
H1714 C1711 0.950 . S
C1715 C1706 1.390 . S
C1715 H1708 0.950 . S
C1715 C1712 1.387 . S
C1716 C1717 1.387 . S
C1716 H1720 0.950 . S
C1716 C1725 1.390 . S
C1717 C1716 1.387 . S
C1717 C1719 1.387 . S
H1718 C1725 0.950 . S
C1719 C1717 1.387 . S
C1719 C1721 1.390 . S
C1719 H1723 0.950 . S
H1720 C1716 0.950 . S
C1721 C1719 1.390 . S
C1721 C1722 1.387 . S
C1721 H1724 0.950 . S
C1722 C1721 1.387 . S
C1722 C1725 1.387 . S
H1723 C1719 0.950 . S
H1724 C1721 0.950 . S
C1725 C1716 1.390 . S
C1725 H1718 0.950 . S
C1725 C1722 1.387 . S
C1726 C1727 1.387 . S
C1726 H1730 0.950 . S
C1726 C1735 1.390 . S
C1727 C1726 1.387 . S
C1727 C1729 1.387 . S
H1728 C1735 0.950 . S
C1729 C1727 1.387 . S
C1729 C1731 1.390 . S
C1729 H1733 0.950 . S
H1730 C1726 0.950 . S
C1731 C1729 1.390 . S
C1731 C1732 1.387 . S
C1731 H1734 0.950 . S
C1732 C1731 1.387 . S
C1732 C1735 1.387 . S
H1733 C1729 0.950 . S
H1734 C1731 0.950 . S
C1735 C1726 1.390 . S
C1735 H1728 0.950 . S
C1735 C1732 1.387 . S
C1736 C1737 1.387 . S
C1736 H1740 0.950 . S
C1736 C1745 1.390 . S
C1737 C1736 1.387 . S
C1737 C1739 1.387 . S
H1738 C1745 0.950 . S
C1739 C1737 1.387 . S
C1739 C1741 1.390 . S
C1739 H1743 0.950 . S
H1740 C1736 0.950 . S
C1741 C1739 1.390 . S
C1741 C1742 1.387 . S
C1741 H1744 0.950 . S
C1742 C1741 1.387 . S
C1742 C1745 1.387 . S
H1743 C1739 0.950 . S
H1744 C1741 0.950 . S
C1745 C1736 1.390 . S
C1745 H1738 0.950 . S
C1745 C1742 1.387 . S
C1746 C1747 1.387 . S
C1746 H1750 0.950 . S
C1746 C1755 1.390 . S
C1747 C1746 1.387 . S
C1747 C1749 1.387 . S
H1748 C1755 0.950 . S
C1749 C1747 1.387 . S
C1749 C1751 1.390 . S
C1749 H1753 0.950 . S
H1750 C1746 0.950 . S
C1751 C1749 1.390 . S
C1751 C1752 1.387 . S
C1751 H1754 0.950 . S
C1752 C1751 1.387 . S
C1752 C1755 1.387 . S
H1753 C1749 0.950 . S
H1754 C1751 0.950 . S
C1755 C1746 1.390 . S
C1755 H1748 0.950 . S
C1755 C1752 1.387 . S
C1756 C1757 1.387 1_655 S
C1756 H1760 0.950 . S
C1756 C1765 1.390 1_655 S
C1757 C1756 1.387 1_455 S
C1757 C1759 1.387 . S
H1758 C1765 0.950 1_655 S
C1759 C1757 1.387 . S
C1759 C1761 1.390 . S
C1759 H1763 0.950 . S
H1760 C1756 0.950 . S
C1761 C1759 1.390 . S
C1761 C1762 1.387 . S
C1761 H1764 0.950 . S
C1762 C1761 1.387 . S
C1762 C1765 1.387 . S
H1763 C1759 0.950 . S
H1764 C1761 0.950 . S
C1765 C1756 1.390 1_455 S
C1765 H1758 0.950 1_455 S
C1765 C1762 1.387 . S
C1766 C1767 1.387 . S
C1766 H1770 0.950 . S
C1766 C1775 1.390 . S
C1767 C1766 1.387 . S
C1767 C1769 1.387 . S
H1768 C1775 0.950 . S
C1769 C1767 1.387 . S
C1769 C1771 1.390 . S
C1769 H1773 0.950 . S
H1770 C1766 0.950 . S
C1771 C1769 1.390 . S
C1771 C1772 1.387 . S
C1771 H1774 0.950 . S
C1772 C1771 1.387 . S
C1772 C1775 1.387 . S
H1773 C1769 0.950 . S
H1774 C1771 0.950 . S
C1775 C1766 1.390 . S
C1775 H1768 0.950 . S
C1775 C1772 1.387 . S
C1776 C1777 1.387 . S
C1776 H1780 0.950 . S
C1776 C1785 1.390 . S
C1777 C1776 1.387 . S
C1777 C1779 1.387 . S
H1778 C1785 0.950 . S
C1779 C1777 1.387 . S
C1779 C1781 1.390 . S
C1779 H1783 0.950 . S
H1780 C1776 0.950 . S
C1781 C1779 1.390 . S
C1781 C1782 1.387 . S
C1781 H1784 0.950 . S
C1782 C1781 1.387 . S
C1782 C1785 1.387 . S
H1783 C1779 0.950 . S
H1784 C1781 0.950 . S
C1785 C1776 1.390 . S
C1785 H1778 0.950 . S
C1785 C1782 1.387 . S
C1786 C1787 1.387 . S
C1786 H1790 0.950 . S
C1786 C1795 1.390 . S
C1787 C1786 1.387 . S
C1787 C1789 1.387 . S
H1788 C1795 0.950 . S
C1789 C1787 1.387 . S
C1789 C1791 1.390 . S
C1789 H1793 0.950 . S
H1790 C1786 0.950 . S
C1791 C1789 1.390 . S
C1791 C1792 1.387 . S
C1791 H1794 0.950 . S
C1792 C1791 1.387 . S
C1792 C1795 1.387 . S
H1793 C1789 0.950 . S
H1794 C1791 0.950 . S
C1795 C1786 1.390 . S
C1795 H1788 0.950 . S
C1795 C1792 1.387 . S
C1796 C1797 1.387 . S
C1796 H1800 0.950 . S
C1796 C1805 1.380 1_655 S
C1797 C1796 1.387 . S
C1797 C1799 1.387 . S
H1798 C1805 0.957 . S
C1799 C1797 1.387 . S
C1799 C1801 1.390 . S
C1799 H1803 0.950 . S
H1800 C1796 0.950 . S
C1801 C1799 1.390 . S
C1801 C1802 1.387 . S
C1801 H1804 0.950 . S
C1802 C1801 1.387 . S
C1802 C1805 1.391 1_655 S
H1803 C1799 0.950 . S
H1804 C1801 0.950 . S
C1805 C1796 1.380 1_455 S
C1805 H1798 0.957 . S
C1805 C1802 1.391 1_455 S
C1806 C1807 1.387 . S
C1806 H1810 0.950 . S
C1806 C1815 1.390 . S
C1807 C1806 1.387 . S
C1807 C1809 1.387 . S
H1808 C1815 0.950 . S
C1809 C1807 1.387 . S
C1809 C1811 1.390 . S
C1809 H1813 0.950 . S
H1810 C1806 0.950 . S
C1811 C1809 1.390 . S
C1811 C1812 1.387 . S
C1811 H1814 0.950 . S
C1812 C1811 1.387 . S
C1812 C1815 1.387 . S
H1813 C1809 0.950 . S
H1814 C1811 0.950 . S
C1815 C1806 1.390 . S
C1815 H1808 0.950 . S
C1815 C1812 1.387 . S
C1816 C1817 1.387 . S
C1816 H1820 0.950 . S
C1816 C1825 1.390 . S
C1817 C1816 1.387 . S
C1817 C1819 1.387 . S
H1818 C1825 0.950 . S
C1819 C1817 1.387 . S
C1819 C1821 1.390 . S
C1819 H1823 0.950 . S
H1820 C1816 0.950 . S
C1821 C1819 1.390 . S
C1821 C1822 1.387 . S
C1821 H1824 0.950 . S
C1822 C1821 1.387 . S
C1822 C1825 1.387 . S
H1823 C1819 0.950 . S
H1824 C1821 0.950 . S
C1825 C1816 1.390 . S
C1825 H1818 0.950 . S
C1825 C1822 1.387 . S
C1826 C1827 1.387 . S
C1826 H1830 0.950 . S
C1826 C1835 1.390 . S
C1827 C1826 1.387 . S
C1827 C1829 1.387 . S
H1828 C1835 0.950 . S
C1829 C1827 1.387 . S
C1829 C1831 1.390 . S
C1829 H1833 0.950 . S
H1830 C1826 0.950 . S
C1831 C1829 1.390 . S
C1831 C1832 1.387 . S
C1831 H1834 0.950 . S
C1832 C1831 1.387 . S
C1832 C1835 1.387 . S
H1833 C1829 0.950 . S
H1834 C1831 0.950 . S
C1835 C1826 1.390 . S
C1835 H1828 0.950 . S
C1835 C1832 1.387 . S
C1836 C1837 1.387 . S
C1836 H1840 0.950 . S
C1836 C1845 1.390 . S
C1837 C1836 1.387 . S
C1837 C1839 1.387 . S
H1838 C1845 0.950 . S
C1839 C1837 1.387 . S
C1839 C1841 1.390 . S
C1839 H1843 0.950 . S
H1840 C1836 0.950 . S
C1841 C1839 1.390 . S
C1841 C1842 1.387 . S
C1841 H1844 0.950 . S
C1842 C1841 1.387 . S
C1842 C1845 1.387 . S
H1843 C1839 0.950 . S
H1844 C1841 0.950 . S
C1845 C1836 1.390 . S
C1845 H1838 0.950 . S
C1845 C1842 1.387 . S
C1846 C1847 1.387 . S
C1846 H1850 0.950 . S
C1846 C1855 1.390 . S
C1847 C1846 1.387 . S
C1847 C1849 1.387 . S
H1848 C1855 0.950 . S
C1849 C1847 1.387 . S
C1849 C1851 1.390 . S
C1849 H1853 0.950 . S
H1850 C1846 0.950 . S
C1851 C1849 1.390 . S
C1851 C1852 1.387 . S
C1851 H1854 0.950 . S
C1852 C1851 1.387 . S
C1852 C1855 1.387 . S
H1853 C1849 0.950 . S
H1854 C1851 0.950 . S
C1855 C1846 1.390 . S
C1855 H1848 0.950 . S
C1855 C1852 1.387 . S
C1856 C1857 1.387 . S
C1856 H1860 0.950 . S
C1856 C1865 1.390 . S
C1857 C1856 1.387 . S
C1857 C1859 1.387 . S
H1858 C1865 0.950 . S
C1859 C1857 1.387 . S
C1859 C1861 1.390 . S
C1859 H1863 0.950 . S
H1860 C1856 0.950 . S
C1861 C1859 1.390 . S
C1861 C1862 1.387 . S
C1861 H1864 0.950 . S
C1862 C1861 1.387 . S
C1862 C1865 1.387 . S
H1863 C1859 0.950 . S
H1864 C1861 0.950 . S
C1865 C1856 1.390 . S
C1865 H1858 0.950 . S
C1865 C1862 1.387 . S
C1866 C1867 1.387 . S
C1866 H1870 0.950 . S
C1866 C1875 1.390 . S
C1867 C1866 1.387 . S
C1867 C1869 1.387 . S
H1868 C1875 0.950 . S
C1869 C1867 1.387 . S
C1869 C1871 1.390 . S
C1869 H1873 0.950 . S
H1870 C1866 0.950 . S
C1871 C1869 1.390 . S
C1871 C1872 1.387 . S
C1871 H1874 0.950 1_565 S
C1872 C1871 1.387 . S
C1872 C1875 1.387 . S
H1873 C1869 0.950 . S
H1874 C1871 0.950 1_545 S
C1875 C1866 1.390 . S
C1875 H1868 0.950 . S
C1875 C1872 1.387 . S
C1876 C1877 1.387 . S
C1876 H1880 0.950 . S
C1876 C1885 1.390 . S
C1877 C1876 1.387 . S
C1877 C1879 1.387 . S
H1878 C1885 0.950 . S
C1879 C1877 1.387 . S
C1879 C1881 1.390 . S
C1879 H1883 0.950 . S
H1880 C1876 0.950 . S
C1881 C1879 1.390 . S
C1881 C1882 1.387 . S
C1881 H1884 0.950 . S
C1882 C1881 1.387 . S
C1882 C1885 1.387 . S
H1883 C1879 0.950 . S
H1884 C1881 0.950 . S
C1885 C1876 1.390 . S
C1885 H1878 0.950 . S
C1885 C1882 1.387 . S
C1886 C1887 1.387 . S
C1886 H1890 0.950 . S
C1886 C1895 1.390 . S
C1887 C1886 1.387 . S
C1887 C1889 1.387 . S
H1888 C1895 0.950 . S
C1889 C1887 1.387 . S
C1889 C1891 1.390 . S
C1889 H1893 0.950 . S
H1890 C1886 0.950 . S
C1891 C1889 1.390 . S
C1891 C1892 1.387 . S
C1891 H1894 0.950 . S
C1892 C1891 1.387 . S
C1892 C1895 1.387 . S
H1893 C1889 0.950 . S
H1894 C1891 0.950 . S
C1895 C1886 1.390 . S
C1895 H1888 0.950 . S
C1895 C1892 1.387 . S
C1896 C1897 1.387 . S
C1896 H1900 0.950 . S
C1896 C1905 1.390 . S
C1897 C1896 1.387 . S
C1897 C1899 1.387 . S
H1898 C1905 0.950 . S
C1899 C1897 1.387 . S
C1899 C1901 1.390 . S
C1899 H1903 0.950 . S
H1900 C1896 0.950 . S
C1901 C1899 1.390 . S
C1901 C1902 1.387 . S
C1901 H1904 0.950 . S
C1902 C1901 1.387 . S
C1902 C1905 1.387 . S
H1903 C1899 0.950 . S
H1904 C1901 0.950 . S
C1905 C1896 1.390 . S
C1905 H1898 0.950 . S
C1905 C1902 1.387 . S
C1906 C1907 1.387 . S
C1906 H1910 0.950 . S
C1906 C1915 1.390 . S
C1907 C1906 1.387 . S
C1907 C1909 1.387 . S
H1908 C1915 0.950 . S
C1909 C1907 1.387 . S
C1909 C1911 1.390 . S
C1909 H1913 0.950 . S
H1910 C1906 0.950 . S
C1911 C1909 1.390 . S
C1911 C1912 1.387 . S
C1911 H1914 0.950 . S
C1912 C1911 1.387 . S
C1912 C1915 1.387 . S
H1913 C1909 0.950 . S
H1914 C1911 0.950 . S
C1915 C1906 1.390 . S
C1915 H1908 0.950 . S
C1915 C1912 1.387 . S
C1916 C1917 1.387 . S
C1916 H1920 0.950 . S
C1916 C1925 1.390 . S
C1917 C1916 1.387 . S
C1917 C1919 1.387 . S
H1918 C1925 0.950 . S
C1919 C1917 1.387 . S
C1919 C1921 1.390 . S
C1919 H1923 0.950 . S
H1920 C1916 0.950 . S
C1921 C1919 1.390 . S
C1921 C1922 1.387 . S
C1921 H1924 0.950 . S
C1922 C1921 1.387 . S
C1922 C1925 1.387 . S
H1923 C1919 0.950 . S
H1924 C1921 0.950 . S
C1925 C1916 1.390 . S
C1925 H1918 0.950 . S
C1925 C1922 1.387 . S
C1926 C1927 1.387 . S
C1926 H1930 0.950 . S
C1926 C1935 1.390 . S
C1927 C1926 1.387 . S
C1927 C1929 1.387 . S
H1928 C1935 0.950 . S
C1929 C1927 1.387 . S
C1929 C1931 1.390 . S
C1929 H1933 0.950 . S
H1930 C1926 0.950 . S
C1931 C1929 1.390 . S
C1931 C1932 1.387 . S
C1931 H1934 0.950 . S
C1932 C1931 1.387 . S
C1932 C1935 1.387 . S
H1933 C1929 0.950 . S
H1934 C1931 0.950 . S
C1935 C1926 1.390 . S
C1935 H1928 0.950 . S
C1935 C1932 1.387 . S
C977 C111 2.392 1_455 S
C982 C346 2.312 . S
C987 C64 1.959 . S
C992 C394 2.051 . S
C997 C77 1.479 . S
C1002 C426 1.479 . S
C1012 C471 1.529 . S
C1007 C95 1.627 . S
C1017 C25 0.815 . S
C1022 C511 0.814 . S
C1032 C546 1.165 . S
C1027 C36 1.048 . S
C1042 C585 1.330 . S
C1037 C50 1.336 . S
C1047 C11 1.287 . S
C1052 C622 1.262 . S
C1062 C354 2.143 . S
C1057 C237 2.083 1_545 S
C1067 C245 0.943 . S
C1072 C391 0.928 . S
C1082 C434 2.238 . S
C1077 C279 2.067 . S
C1092 C466 1.151 . S
C1087 C175 1.148 . S
C1097 C231 1.402 . S
C1102 C506 1.389 . S
C1112 C554 0.725 . S
C1107 C251 0.776 . S
C1122 C595 2.136 . S
C1117 C273 2.222 . S
C1132 C625 2.071 . S
C1127 C181 2.032 . S
C1142 C351 2.003 . S
C1137 C165 2.154 1_554 S
C1147 C288 2.043 . S
C1152 C674 2.122 . S
C1162 C711 1.157 . S
C1157 C333 1.182 . S
C1172 C742 1.189 . S
C1167 C316 1.317 . S
C1177 C123 2.646 . S
C1182 C635 2.600 . S
C1187 C137 1.400 . S
C1192 C431 1.355 . S
C1197 C330 1.634 . S
C1202 C794 1.726 . S
C1212 C826 1.934 . S
C1207 C302 1.908 . S
C1222 C355 2.376 . S
C1217 C63 2.465 . S
C1232 C825 2.086 . S
C1227 C106 2.101 . S
C1237 C97 1.498 . S
C1242 C435 1.545 . S
C1247 C81 1.602 . S
C1252 C782 1.583 . S
C1262 C502 0.930 1_655 S
C1257 C13 0.912 1_455 S
C1267 C55 1.254 . S
C1272 C715 1.282 . S
C1282 C594 1.176 . S
C1277 C35 1.162 . S
C1292 C871 1.391 . S
C1287 C21 1.394 . S
C1302 C345 2.246 1_556 S
C1297 C147 2.231 . S
C1312 C822 0.919 . S
C1307 C321 0.871 . S
C1317 C119 2.290 . S
C1322 C425 2.279 . S
C1327 C293 1.232 . S
C1332 C795 1.290 . S
C1337 C153 1.481 . S
C1342 C515 1.522 . S
C1352 C705 0.764 . S
C1347 C315 0.756 . S
C1357 C125 2.042 . S
C1362 C586 2.126 . S
C1367 C287 2.132 1_556 S
C1372 C874 2.132 . S
C1377 C193 1.977 . S
C1382 C342 1.978 . S
C1387 C176 2.157 . S
C1392 C665 2.146 . S
C1397 C263 1.173 . S
C1402 C542 1.187 . S
C1407 C246 1.165 . S
C1412 C751 1.075 . S
C1422 C866 2.697 . S
C1417 C277 2.745 . S
C1427 C221 1.394 . S
C1432 C422 1.397 . S
C1442 C465 1.730 . S
C1437 C260 1.763 . S
C1452 C395 2.004 . S
C1447 C204 1.838 . S
C1457 C83 2.393 . S
C1462 C906 2.313 . S
C1472 C834 2.052 . S
C1467 C92 1.960 . S
C1477 C105 1.479 . S
C1482 C946 1.478 . S
C1487 C67 1.626 . S
C1492 C791 1.528 . S
C1497 C53 0.815 . S
C1502 C671 0.815 . S
C1512 C706 1.164 . S
C1507 C8 1.043 . S
C1522 C745 1.328 . S
C1517 C22 1.335 . S
C1532 C862 1.262 . S
C1527 C39 1.287 . S
C1542 C914 2.143 . S
C1537 C265 2.083 . S
C1547 C189 0.943 . S
C1552 C831 0.928 . S
C1562 C954 2.238 . S
C1557 C209 2.067 . S
C1572 C786 1.150 . S
C1567 C217 1.150 . S
C1582 C666 1.388 1_556 S
C1577 C259 1.403 . S
C1587 C195 0.768 . S
C1592 C714 0.725 . S
C1602 C755 2.136 . S
C1597 C203 2.222 . S
C1607 C223 2.033 . S
C1612 C865 2.071 . S
C1622 C911 2.001 . S
C1617 C319 2.153 . S
C1627 C134 2.044 . S
C1632 C514 2.122 . S
C1642 C551 1.157 . S
C1637 C151 1.182 . S
C1652 C582 1.183 . S
C1647 C162 1.314 . S
C1662 C875 2.600 . S
C1657 C305 2.646 . S
C1667 C291 1.401 . S
C1672 C951 1.354 . S
C1682 C474 1.727 . S
C1677 C148 1.635 . S
C1692 C386 1.934 . S
C1687 C120 1.908 . S
C1697 C91 2.466 . S
C1702 C915 2.376 . S
C1712 C385 2.086 . S
C1707 C78 2.101 . S
C1717 C69 1.499 . S
C1722 C955 1.545 . S
C1727 C109 1.603 . S
C1732 C462 1.584 . S
C1737 C41 0.921 . S
C1742 C662 0.932 . S
C1752 C555 1.283 . S
C1747 C27 1.254 . S
C1757 C7 1.161 . S
C1762 C754 1.176 . S
C1767 C49 1.396 . S
C1772 C631 1.394 . S
C1782 C905 2.246 . S
C1777 C329 2.230 . S
C1787 C167 0.863 . S
C1792 C382 0.913 . S
C1802 C945 2.279 1_656 S
C1797 C301 2.290 . S
C1807 C139 1.235 . S
C1812 C475 1.289 . S
C1817 C335 1.480 . S
C1822 C675 1.522 . S
C1832 C545 0.761 . S
C1827 C161 0.756 . S
C1837 C307 2.042 . S
C1842 C746 2.126 1_655 S
C1852 C634 2.132 . S
C1847 C133 2.132 . S
C1862 C902 1.976 . S
C1857 C249 1.975 . S
C1872 C505 2.146 1_565 S
C1867 C218 2.157 . S
C1877 C235 1.174 . S
C1882 C702 1.188 . S
C1892 C591 1.081 . S
C1887 C190 1.167 . S
C1897 C207 2.744 . S
C1902 C626 2.697 . S
C1907 C179 1.396 . S
C1912 C942 1.398 . S
C1922 C785 1.730 . S
C1917 C232 1.763 . S
C1932 C835 2.003 . S
C1927 C274 1.840 . S
