# Generated by pormake.
# Topology cor, (4,6)-cn, num edge types: 1
# Building blocks:
#     Node 0, Type 0, BuildingBlock: ESEHIV_clean_sbu_0, # of connection points: 4
#     Node 1, Type 0, BuildingBlock: ESEHIV_clean_sbu_0, # of connection points: 4
#     Node 2, Type 0, BuildingBlock: ESEHIV_clean_sbu_0, # of connection points: 4
#     Node 3, Type 0, BuildingBlock: ESEHIV_clean_sbu_0, # of connection points: 4
#     Node 4, Type 0, BuildingBlock: ESEHIV_clean_sbu_0, # of connection points: 4
#     Node 5, Type 0, BuildingBlock: ESEHIV_clean_sbu_0, # of connection points: 4
#     Node 6, Type 0, BuildingBlock: ESEHIV_clean_sbu_0, # of connection points: 4
#     Node 7, Type 0, BuildingBlock: ESEHIV_clean_sbu_0, # of connection points: 4
#     Node 8, Type 0, BuildingBlock: ESEHIV_clean_sbu_0, # of connection points: 4
#     Node 9, Type 0, BuildingBlock: ESEHIV_clean_sbu_0, # of connection points: 4
#     Node 10, Type 0, BuildingBlock: ESEHIV_clean_sbu_0, # of connection points: 4
#     Node 11, Type 0, BuildingBlock: ESEHIV_clean_sbu_0, # of connection points: 4
#     Node 12, Type 0, BuildingBlock: ESEHIV_clean_sbu_0, # of connection points: 4
#     Node 13, Type 0, BuildingBlock: ESEHIV_clean_sbu_0, # of connection points: 4
#     Node 14, Type 0, BuildingBlock: ESEHIV_clean_sbu_0, # of connection points: 4
#     Node 15, Type 0, BuildingBlock: ESEHIV_clean_sbu_0, # of connection points: 4
#     Node 16, Type 0, BuildingBlock: ESEHIV_clean_sbu_0, # of connection points: 4
#     Node 17, Type 0, BuildingBlock: ESEHIV_clean_sbu_0, # of connection points: 4
#     Node 18, Type 1, BuildingBlock: MIDCAF_clean_sbu_0, # of connection points: 6
#     Node 19, Type 1, BuildingBlock: MIDCAF_clean_sbu_0, # of connection points: 6
#     Node 20, Type 1, BuildingBlock: MIDCAF_clean_sbu_0, # of connection points: 6
#     Node 21, Type 1, BuildingBlock: MIDCAF_clean_sbu_0, # of connection points: 6
#     Node 22, Type 1, BuildingBlock: MIDCAF_clean_sbu_0, # of connection points: 6
#     Node 23, Type 1, BuildingBlock: MIDCAF_clean_sbu_0, # of connection points: 6
#     Node 24, Type 1, BuildingBlock: MIDCAF_clean_sbu_0, # of connection points: 6
#     Node 25, Type 1, BuildingBlock: MIDCAF_clean_sbu_0, # of connection points: 6
#     Node 26, Type 1, BuildingBlock: MIDCAF_clean_sbu_0, # of connection points: 6
#     Node 27, Type 1, BuildingBlock: MIDCAF_clean_sbu_0, # of connection points: 6
#     Node 28, Type 1, BuildingBlock: MIDCAF_clean_sbu_0, # of connection points: 6
#     Node 29, Type 1, BuildingBlock: MIDCAF_clean_sbu_0, # of connection points: 6
#     Edge 30, Type (0, 1), BuildingBlock: ZUJKAS_clean_linker_0, # of connection points: 2
#     Edge 31, Type (0, 1), BuildingBlock: ZUJKAS_clean_linker_0, # of connection points: 2
#     Edge 32, Type (0, 1), BuildingBlock: ZUJKAS_clean_linker_0, # of connection points: 2
#     Edge 33, Type (0, 1), BuildingBlock: ZUJKAS_clean_linker_0, # of connection points: 2
#     Edge 34, Type (0, 1), BuildingBlock: ZUJKAS_clean_linker_0, # of connection points: 2
#     Edge 35, Type (0, 1), BuildingBlock: ZUJKAS_clean_linker_0, # of connection points: 2
#     Edge 36, Type (0, 1), BuildingBlock: ZUJKAS_clean_linker_0, # of connection points: 2
#     Edge 37, Type (0, 1), BuildingBlock: ZUJKAS_clean_linker_0, # of connection points: 2
#     Edge 38, Type (0, 1), BuildingBlock: ZUJKAS_clean_linker_0, # of connection points: 2
#     Edge 39, Type (0, 1), BuildingBlock: ZUJKAS_clean_linker_0, # of connection points: 2
#     Edge 40, Type (0, 1), BuildingBlock: ZUJKAS_clean_linker_0, # of connection points: 2
#     Edge 41, Type (0, 1), BuildingBlock: ZUJKAS_clean_linker_0, # of connection points: 2
#     Edge 42, Type (0, 1), BuildingBlock: ZUJKAS_clean_linker_0, # of connection points: 2
#     Edge 43, Type (0, 1), BuildingBlock: ZUJKAS_clean_linker_0, # of connection points: 2
#     Edge 44, Type (0, 1), BuildingBlock: ZUJKAS_clean_linker_0, # of connection points: 2
#     Edge 45, Type (0, 1), BuildingBlock: ZUJKAS_clean_linker_0, # of connection points: 2
#     Edge 46, Type (0, 1), BuildingBlock: ZUJKAS_clean_linker_0, # of connection points: 2
#     Edge 47, Type (0, 1), BuildingBlock: ZUJKAS_clean_linker_0, # of connection points: 2
#     Edge 48, Type (0, 1), BuildingBlock: ZUJKAS_clean_linker_0, # of connection points: 2
#     Edge 49, Type (0, 1), BuildingBlock: ZUJKAS_clean_linker_0, # of connection points: 2
#     Edge 50, Type (0, 1), BuildingBlock: ZUJKAS_clean_linker_0, # of connection points: 2
#     Edge 51, Type (0, 1), BuildingBlock: ZUJKAS_clean_linker_0, # of connection points: 2
#     Edge 52, Type (0, 1), BuildingBlock: ZUJKAS_clean_linker_0, # of connection points: 2
#     Edge 53, Type (0, 1), BuildingBlock: ZUJKAS_clean_linker_0, # of connection points: 2
#     Edge 54, Type (0, 1), BuildingBlock: ZUJKAS_clean_linker_0, # of connection points: 2
#     Edge 55, Type (0, 1), BuildingBlock: ZUJKAS_clean_linker_0, # of connection points: 2
#     Edge 56, Type (0, 1), BuildingBlock: ZUJKAS_clean_linker_0, # of connection points: 2
#     Edge 57, Type (0, 1), BuildingBlock: ZUJKAS_clean_linker_0, # of connection points: 2
#     Edge 58, Type (0, 1), BuildingBlock: ZUJKAS_clean_linker_0, # of connection points: 2
#     Edge 59, Type (0, 1), BuildingBlock: ZUJKAS_clean_linker_0, # of connection points: 2
#     Edge 60, Type (0, 1), BuildingBlock: ZUJKAS_clean_linker_0, # of connection points: 2
#     Edge 61, Type (0, 1), BuildingBlock: ZUJKAS_clean_linker_0, # of connection points: 2
#     Edge 62, Type (0, 1), BuildingBlock: ZUJKAS_clean_linker_0, # of connection points: 2
#     Edge 63, Type (0, 1), BuildingBlock: ZUJKAS_clean_linker_0, # of connection points: 2
#     Edge 64, Type (0, 1), BuildingBlock: ZUJKAS_clean_linker_0, # of connection points: 2
#     Edge 65, Type (0, 1), BuildingBlock: ZUJKAS_clean_linker_0, # of connection points: 2
#     Edge 66, Type (0, 1), BuildingBlock: ZUJKAS_clean_linker_0, # of connection points: 2
#     Edge 67, Type (0, 1), BuildingBlock: ZUJKAS_clean_linker_0, # of connection points: 2
#     Edge 68, Type (0, 1), BuildingBlock: ZUJKAS_clean_linker_0, # of connection points: 2
#     Edge 69, Type (0, 1), BuildingBlock: ZUJKAS_clean_linker_0, # of connection points: 2
#     Edge 70, Type (0, 1), BuildingBlock: ZUJKAS_clean_linker_0, # of connection points: 2
#     Edge 71, Type (0, 1), BuildingBlock: ZUJKAS_clean_linker_0, # of connection points: 2
#     Edge 72, Type (0, 1), BuildingBlock: ZUJKAS_clean_linker_0, # of connection points: 2
#     Edge 73, Type (0, 1), BuildingBlock: ZUJKAS_clean_linker_0, # of connection points: 2
#     Edge 74, Type (0, 1), BuildingBlock: ZUJKAS_clean_linker_0, # of connection points: 2
#     Edge 75, Type (0, 1), BuildingBlock: ZUJKAS_clean_linker_0, # of connection points: 2
#     Edge 76, Type (0, 1), BuildingBlock: ZUJKAS_clean_linker_0, # of connection points: 2
#     Edge 77, Type (0, 1), BuildingBlock: ZUJKAS_clean_linker_0, # of connection points: 2
#     Edge 78, Type (0, 1), BuildingBlock: ZUJKAS_clean_linker_0, # of connection points: 2
#     Edge 79, Type (0, 1), BuildingBlock: ZUJKAS_clean_linker_0, # of connection points: 2
#     Edge 80, Type (0, 1), BuildingBlock: ZUJKAS_clean_linker_0, # of connection points: 2
#     Edge 81, Type (0, 1), BuildingBlock: ZUJKAS_clean_linker_0, # of connection points: 2
#     Edge 82, Type (0, 1), BuildingBlock: ZUJKAS_clean_linker_0, # of connection points: 2
#     Edge 83, Type (0, 1), BuildingBlock: ZUJKAS_clean_linker_0, # of connection points: 2
#     Edge 84, Type (0, 1), BuildingBlock: ZUJKAS_clean_linker_0, # of connection points: 2
#     Edge 85, Type (0, 1), BuildingBlock: ZUJKAS_clean_linker_0, # of connection points: 2
#     Edge 86, Type (0, 1), BuildingBlock: ZUJKAS_clean_linker_0, # of connection points: 2
#     Edge 87, Type (0, 1), BuildingBlock: ZUJKAS_clean_linker_0, # of connection points: 2
#     Edge 88, Type (0, 1), BuildingBlock: ZUJKAS_clean_linker_0, # of connection points: 2
#     Edge 89, Type (0, 1), BuildingBlock: ZUJKAS_clean_linker_0, # of connection points: 2
#     Edge 90, Type (0, 1), BuildingBlock: ZUJKAS_clean_linker_0, # of connection points: 2
#     Edge 91, Type (0, 1), BuildingBlock: ZUJKAS_clean_linker_0, # of connection points: 2
#     Edge 92, Type (0, 1), BuildingBlock: ZUJKAS_clean_linker_0, # of connection points: 2
#     Edge 93, Type (0, 1), BuildingBlock: ZUJKAS_clean_linker_0, # of connection points: 2
#     Edge 94, Type (0, 1), BuildingBlock: ZUJKAS_clean_linker_0, # of connection points: 2
#     Edge 95, Type (0, 1), BuildingBlock: ZUJKAS_clean_linker_0, # of connection points: 2
#     Edge 96, Type (0, 1), BuildingBlock: ZUJKAS_clean_linker_0, # of connection points: 2
#     Edge 97, Type (0, 1), BuildingBlock: ZUJKAS_clean_linker_0, # of connection points: 2
#     Edge 98, Type (0, 1), BuildingBlock: ZUJKAS_clean_linker_0, # of connection points: 2
#     Edge 99, Type (0, 1), BuildingBlock: ZUJKAS_clean_linker_0, # of connection points: 2
#     Edge 100, Type (0, 1), BuildingBlock: ZUJKAS_clean_linker_0, # of connection points: 2
#     Edge 101, Type (0, 1), BuildingBlock: ZUJKAS_clean_linker_0, # of connection points: 2
# Relax obj value: 0.148
# Max RMSD: 0.288
# Mean RMSD: 0.236
data_MOF--net-cor--node1-ESEHIV_clean_sbu_0--node2-MIDCAF_clean_sbu_0--edge1-ZUJKAS_clean_linker_0
_symmetry_space_group_name_H-M    P1
_symmetry_Int_Tables_number       1
_symmetry_cell_setting            triclinic
loop_
_symmetry_equiv_pos_as_xyz
'x, y, z'
_cell_length_a     50.109563
_cell_length_b     48.540677
_cell_length_c     149.72618
_cell_angle_alpha  91.558009
_cell_angle_beta   91.5658
_cell_angle_gamma 120.22883
loop_
_atom_site_label
_atom_site_type_symbol
_atom_site_fract_x
_atom_site_fract_y
_atom_site_fract_z
_atom_type_partial_charge
Cu0 Cu 0.74213 0.02622 0.25835 0.0
N1 N 0.75283 0.01126 0.24823 0.0
N2 N 0.77512 0.01056 0.23552 0.0
C3 C 0.77246 0.02894 0.24199 0.0
C4 C 0.75642 0.98019 0.23784 0.0
C5 C 0.74278 0.98072 0.24566 0.0
O6 O 0.74582 0.06701 0.25494 0.0
C7 C 0.77069 0.03915 0.27612 0.0
O8 O 0.75115 0.04858 0.27821 0.0
H9 H 0.78433 0.05475 0.2422 0.0
H10 H 0.72681 0.96028 0.24927 0.0
N11 N 0.7017 0.99489 0.26117 0.0
N12 N 0.66068 0.95835 0.2683 0.0
C13 C 0.69065 0.98215 0.26912 0.0
C14 C 0.67809 0.9781 0.25515 0.0
C15 C 0.65288 0.95589 0.25949 0.0
C16 C 0.72286 0.06903 0.25187 0.0
O17 O 0.69496 0.04413 0.25214 0.0
H18 H 0.70434 0.98984 0.27535 0.0
H19 H 0.67935 0.98139 0.24802 0.0
O20 O 0.77111 0.03053 0.26804 0.0
H21 H 0.75327 0.95901 0.23426 0.0
H22 H 0.63079 0.93856 0.25632 0.0
Cu23 Cu 0.02498 0.74839 0.25799 0.0
N24 N 0.04192 0.7805 0.24979 0.0
N25 N 0.04642 0.81004 0.23809 0.0
C26 C 0.02731 0.78408 0.24261 0.0
C27 C 0.07409 0.8231 0.24263 0.0
C28 C 0.07123 0.80484 0.24982 0.0
O29 O 0.9868 0.71349 0.25208 0.0
C30 C 0.00969 0.78643 0.26933 0.0
O31 O 1.00084 0.79357 0.26183 0.0
H32 H 1.00303 0.7682 0.24085 0.0
H33 H 0.08925 0.80893 0.25473 0.0
N34 N 0.05379 0.73556 0.26073 0.0
N35 N 0.09126 0.73079 0.26781 0.0
C36 C 0.07245 0.74331 0.26818 0.0
C37 C 0.06103 0.71766 0.25546 0.0
C38 C 0.08393 0.71457 0.2598 0.0
C39 C 0.97607 0.68373 0.25298 0.0
O40 O 0.98961 0.67458 0.25886 0.0
H41 H 0.0726 0.75835 0.27367 0.0
H42 H 0.05039 0.7076 0.2489 0.0
O43 O 0.01891 0.7663 0.26908 0.0
H44 H 0.0951 0.84411 0.24083 0.0
H45 H 0.09412 0.70107 0.25724 0.0
Cu46 Cu 0.30602 0.31319 0.25877 0.0
N47 N 0.2931 0.28492 0.26808 0.0
N48 N 0.26723 0.25709 0.27969 0.0
C49 C 0.26712 0.27402 0.27267 0.0
C50 C 0.29415 0.25713 0.27943 0.0
C51 C 0.30999 0.27426 0.27228 0.0
O52 O 0.30855 0.35259 0.2635 0.0
C53 C 0.28543 0.30293 0.24042 0.0
O54 O 0.31083 0.3304 0.23954 0.0
H55 H 0.24906 0.27936 0.27112 0.0
H56 H 0.33268 0.27936 0.27041 0.0
N57 N 0.34627 0.32338 0.25604 0.0
N58 N 0.38777 0.32783 0.24937 0.0
C59 C 0.35648 0.31329 0.2491 0.0
C60 C 0.37184 0.34452 0.26088 0.0
C61 C 0.39732 0.3473 0.25682 0.0
C62 C 0.28571 0.35533 0.26586 0.0
O63 O 0.25749 0.33146 0.26411 0.0
H64 H 0.34135 0.29628 0.24388 0.0
H65 H 0.37187 0.35723 0.26693 0.0
O66 O 0.27824 0.29245 0.24823 0.0
H67 H 0.30198 0.2458 0.28411 0.0
H68 H 0.42109 0.36242 0.25925 0.0
Cu69 Cu 0.30977 0.02426 0.75954 0.0
N70 N 0.29656 0.04067 0.76881 0.0
N71 N 0.27283 0.04385 0.78094 0.0
C72 C 0.27887 0.02486 0.77562 0.0
C73 C 0.28753 0.07277 0.77733 0.0
C74 C 0.30212 0.07072 0.76988 0.0
O75 O 0.31147 0.98767 0.7642 0.0
C76 C 0.25684 0.0131 0.74876 0.0
O77 O 0.24488 0.01281 0.75647 0.0
H78 H 0.26992 0.99975 0.77652 0.0
H79 H 0.31563 0.08973 0.76549 0.0
N80 N 0.34999 0.05549 0.7568 0.0
N81 N 0.39089 0.09272 0.7498 0.0
C82 C 0.35977 0.07282 0.74943 0.0
C83 C 0.37564 0.06462 0.76198 0.0
C84 C 0.40075 0.08739 0.75771 0.0
C85 C 0.28792 0.96126 0.76606 0.0
O86 O 0.26018 0.9561 0.76383 0.0
H87 H 0.34431 0.07089 0.74394 0.0
H88 H 0.37603 0.05507 0.76839 0.0
O89 O 0.28331 0.01534 0.74868 0.0
H90 H 0.28786 0.094 0.77989 0.0
H91 H 0.42454 0.09856 0.76022 0.0
Cu92 Cu 0.02435 0.30627 0.76025 0.0
N93 N 1.00628 0.2778 0.76931 0.0
N94 N 1.00143 0.25095 0.78163 0.0
C95 C 0.02055 0.27613 0.77687 0.0
C96 C 0.97412 0.23637 0.77688 0.0
C97 C 0.97719 0.25301 0.76929 0.0
O98 O 0.06342 0.34112 0.76572 0.0
C99 C 0.03375 0.29008 0.74239 0.0
O100 O 0.03747 0.31788 0.74031 0.0
H101 H 0.04477 0.29229 0.77866 0.0
H102 H 0.95969 0.24706 0.76402 0.0
N103 N 0.9975 0.32077 0.75654 0.0
N104 N 0.96253 0.32798 0.74886 0.0
C105 C 0.9778 0.31155 0.74926 0.0
C106 C 0.99409 0.34323 0.76094 0.0
C107 C 0.97279 0.34783 0.75623 0.0
C108 C 0.07601 0.3706 0.76408 0.0
O109 O 0.06412 0.37928 0.75757 0.0
H110 H 0.97502 0.29352 0.74431 0.0
H111 H 1.00638 0.35548 0.76716 0.0
O112 O 0.02951 0.28207 0.75049 0.0
H113 H 0.95346 0.21503 0.77872 0.0
H114 H 0.96516 0.3643 0.75817 0.0
Cu115 Cu 0.74055 0.74321 0.76057 0.0
N116 N 0.75533 0.77435 0.752 0.0
N117 N 0.78098 0.80393 0.7406 0.0
C118 C 0.77348 0.77748 0.74514 0.0
C119 C 0.76678 0.81777 0.74473 0.0
C120 C 0.75103 0.79951 0.75173 0.0
O121 O 0.73863 0.7048 0.75522 0.0
C122 C 0.76014 0.75078 0.77908 0.0
O123 O 0.73422 0.72371 0.77988 0.0
H124 H 0.7817 0.76119 0.74365 0.0
H125 H 0.73765 0.8044 0.7564 0.0
N126 N 0.70015 0.73303 0.76318 0.0
N127 N 0.65838 0.72768 0.76992 0.0
C128 C 0.68965 0.74174 0.77034 0.0
C129 C 0.67481 0.71333 0.75804 0.0
C130 C 0.64917 0.71 0.76214 0.0
C131 C 0.76214 0.70295 0.75305 0.0
O132 O 0.78992 0.72686 0.75532 0.0
H133 H 0.70454 0.75739 0.77583 0.0
H134 H 0.675 0.70188 0.75176 0.0
O135 O 0.76766 0.76169 0.77134 0.0
H136 H 0.76765 0.83956 0.74284 0.0
H137 H 0.62553 0.69566 0.75953 0.0
Cu138 Cu 0.40598 0.36295 0.59319 0.0
N139 N 0.42229 0.34829 0.58437 0.0
N140 N 0.44555 0.34525 0.57212 0.0
C141 C 0.43715 0.36317 0.57705 0.0
C142 C 0.43548 0.31807 0.57652 0.0
C143 C 0.4212 0.32003 0.58405 0.0
O144 O 0.40347 0.39907 0.58858 0.0
C145 C 0.45734 0.37723 0.60524 0.0
O146 O 0.47265 0.38055 0.59798 0.0
H147 H 0.4413 0.3864 0.57528 0.0
H148 H 0.4108 0.30216 0.58898 0.0
N149 N 0.36596 0.33015 0.59535 0.0
N150 N 0.32517 0.29235 0.60218 0.0
C151 C 0.35584 0.31393 0.60288 0.0
C152 C 0.34101 0.31834 0.58969 0.0
C153 C 0.31589 0.2951 0.59386 0.0
C154 C 0.42695 0.42532 0.5866 0.0
O155 O 0.45475 0.43007 0.58849 0.0
H156 H 0.37059 0.31831 0.6088 0.0
H157 H 0.34111 0.32618 0.58299 0.0
O158 O 0.42978 0.372 0.60452 0.0
H159 H 0.43864 0.29834 0.57452 0.0
H160 H 0.29263 0.28108 0.59093 0.0
Cu161 Cu 0.69119 0.07897 0.59242 0.0
N162 N 0.70487 0.11067 0.58404 0.0
N163 N 0.70682 0.13792 0.572 0.0
C164 C 0.68917 0.11201 0.57675 0.0
C165 C 0.73455 0.15338 0.57653 0.0
C166 C 0.73326 0.13655 0.58392 0.0
O167 O 0.65595 0.04038 0.58683 0.0
C168 C 0.67772 0.11708 0.60435 0.0
O169 O 0.67347 0.12895 0.59702 0.0
H170 H 0.66551 0.09403 0.57489 0.0
H171 H 0.75178 0.14261 0.58886 0.0
N172 N 0.72258 0.06968 0.59489 0.0
N173 N 0.75943 0.06398 0.60193 0.0
C174 C 0.74061 0.07641 0.60244 0.0
C175 C 0.73042 0.05274 0.58943 0.0
C176 C 0.75306 0.04918 0.59373 0.0
C177 C 0.62776 0.03325 0.58662 0.0
O178 O 0.62004 0.05191 0.59096 0.0
H179 H 0.73935 0.08939 0.60825 0.0
H180 H 0.72005 0.04329 0.58281 0.0
O181 O 0.68345 0.09436 0.60371 0.0
H182 H 0.75436 0.17549 0.57469 0.0
H183 H 0.76408 0.03674 0.591 0.0
Cu184 Cu 0.97744 0.64656 0.59172 0.0
N185 N 0.95926 0.61439 0.59991 0.0
N186 N 0.93416 0.58715 0.6117 0.0
C187 C 0.94357 0.61398 0.60714 0.0
C188 C 0.94433 0.57014 0.60711 0.0
C189 C 0.95976 0.58697 0.59987 0.0
O190 O 0.98221 0.68562 0.5975 0.0
C191 C 0.92553 0.61046 0.57938 0.0
O192 O 0.91004 0.59827 0.58656 0.0
H193 H 0.93958 0.63319 0.60908 0.0
H194 H 0.97064 0.57978 0.59491 0.0
N195 N 0.01684 0.65334 0.58941 0.0
N196 N 0.0574 0.65689 0.58241 0.0
C197 C 0.02705 0.64794 0.58166 0.0
C198 C 0.04138 0.66585 0.59525 0.0
C199 C 0.06634 0.66808 0.59097 0.0
C200 C 0.96054 0.69186 0.59837 0.0
O201 O 0.93323 0.6725 0.59449 0.0
H202 H 0.01269 0.63828 0.57557 0.0
H203 H 0.04113 0.67303 0.60213 0.0
O204 O 0.95367 0.63278 0.58027 0.0
H205 H 0.94058 0.54694 0.60879 0.0
H206 H 0.08927 0.67704 0.59398 0.0
Cu207 Cu 0.97459 0.35735 0.09263 0.0
N208 N 0.9552 0.37094 0.10072 0.0
N209 N 0.92719 0.3724 0.11193 0.0
C210 C 0.93992 0.35654 0.10803 0.0
C211 C 0.93506 0.39784 0.1069 0.0
C212 C 0.95231 0.39688 0.10002 0.0
O213 O 0.97843 0.32284 0.09794 0.0
C214 C 0.92388 0.33805 0.0798 0.0
O215 O 0.90662 0.33129 0.08677 0.0
H216 H 0.93738 0.33443 0.11031 0.0
H217 H 0.96168 0.41361 0.09477 0.0
N218 N 0.01413 0.39171 0.09073 0.0
N219 N 0.05468 0.43023 0.08397 0.0
C220 C 0.02496 0.40604 0.08297 0.0
C221 C 0.03762 0.40737 0.09685 0.0
C222 C 0.06258 0.43104 0.09272 0.0
C223 C 0.9553 0.29609 0.09978 0.0
O224 O 0.92738 0.28977 0.09727 0.0
H225 H 0.01138 0.39857 0.07671 0.0
H226 H 0.03658 0.40199 0.10383 0.0
O227 O 0.95238 0.34683 0.08096 0.0
H228 H 0.92874 0.41587 0.10808 0.0
H229 H 0.0847 0.44783 0.09598 0.0
Cu230 Cu 0.69278 0.64673 0.09217 0.0
N231 N 0.6784 0.61417 0.10031 0.0
N232 N 0.67615 0.58473 0.11187 0.0
C233 C 0.69398 0.61141 0.1074 0.0
C234 C 0.64839 0.57029 0.10733 0.0
C235 C 0.64987 0.58846 0.10025 0.0
O236 O 0.73141 0.68255 0.09756 0.0
C237 C 0.71143 0.61443 0.07964 0.0
O238 O 0.72624 0.61116 0.08653 0.0
H239 H 0.71781 0.62881 0.10928 0.0
H240 H 0.63146 0.58326 0.09535 0.0
N241 N 0.66241 0.65799 0.09011 0.0
N242 N 0.62502 0.66363 0.08331 0.0
C243 C 0.64564 0.65355 0.08242 0.0
C244 C 0.65194 0.67107 0.09608 0.0
C245 C 0.62905 0.67465 0.09192 0.0
C246 C 0.73961 0.71198 0.0972 0.0
O247 O 0.72263 0.72002 0.09232 0.0
H248 H 0.64863 0.6432 0.07631 0.0
H249 H 0.66023 0.67729 0.10299 0.0
O250 O 0.69743 0.62997 0.0807 0.0
H251 H 0.62846 0.54785 0.1089 0.0
H252 H 0.61594 0.68403 0.09509 0.0
Cu253 Cu 0.41086 0.07801 0.09217 0.0
N254 N 0.42247 0.10752 0.08326 0.0
N255 N 0.44461 0.13413 0.07112 0.0
C256 C 0.43639 0.10756 0.07567 0.0
C257 C 0.43538 0.15131 0.07602 0.0
C258 C 0.42172 0.13482 0.0835 0.0
O259 O 0.41462 0.04267 0.08683 0.0
C260 C 0.43581 0.09127 0.11041 0.0
O261 O 0.41268 0.06286 0.11201 0.0
H262 H 0.44157 0.08918 0.07373 0.0
H263 H 0.41264 0.14257 0.08887 0.0
N264 N 0.37004 0.06532 0.09513 0.0
N265 N 0.32856 0.05936 0.1022 0.0
C266 C 0.35977 0.07286 0.10256 0.0
C267 C 0.34458 0.04705 0.08986 0.0
C268 C 0.3191 0.0432 0.09418 0.0
C269 C 0.39499 0.01296 0.0871 0.0
O270 O 0.37135 1.00367 0.09223 0.0
H271 H 0.37483 0.08782 0.10812 0.0
H272 H 0.3446 0.03732 0.08327 0.0
O273 O 0.43936 0.10065 0.10244 0.0
H274 H 0.4386 0.17434 0.07438 0.0
H275 H 0.29544 0.03001 0.09151 0.0
Cu276 Cu 0.07202 0.69443 0.9256 0.0
N277 N 0.08335 0.67604 0.91639 0.0
N278 N 0.10531 0.6709 0.90411 0.0
C279 C 0.09685 0.68932 0.90875 0.0
C280 C 0.09656 0.64496 0.90899 0.0
C281 C 0.08305 0.64821 0.91654 0.0
O282 O 0.07102 0.73109 0.92075 0.0
C283 C 0.09521 0.70801 0.9438 0.0
O284 O 0.07038 0.70984 0.94523 0.0
H285 H 0.1016 0.71261 0.90682 0.0
H286 H 0.07446 0.6319 0.92191 0.0
N287 N 0.03205 0.66542 0.92914 0.0
N288 N 0.99258 0.63121 0.93712 0.0
C289 C 0.02305 0.6441 0.93565 0.0
C290 C 1.00638 0.66556 0.92636 0.0
C291 C 0.98211 0.64462 0.93126 0.0
C292 C 0.09448 0.75641 0.91827 0.0
O293 O 0.1222 0.76051 0.91984 0.0
H294 H 0.03876 0.63944 0.93954 0.0
H295 H 1.00566 0.68085 0.92136 0.0
O296 O 0.10107 0.704 0.9358 0.0
H297 H 0.10007 0.62523 0.90729 0.0
H298 H 0.95861 0.64 0.93065 0.0
Cu299 Cu 0.3567 0.40592 0.92429 0.0
N300 N 0.37037 0.43696 0.91566 0.0
N301 N 0.37232 0.46372 0.90349 0.0
C302 C 0.35511 0.43739 0.90813 0.0
C303 C 0.3994 0.48037 0.9083 0.0
C304 C 0.3981 0.46385 0.91577 0.0
O305 O 0.32038 0.36693 0.91918 0.0
C306 C 0.34309 0.44464 0.93601 0.0
O307 O 0.33669 0.45464 0.92863 0.0
H308 H 0.33204 0.41864 0.90604 0.0
H309 H 0.41607 0.471 0.92097 0.0
N310 N 0.38787 0.39632 0.92689 0.0
N311 N 0.42455 0.39076 0.93414 0.0
C312 C 0.40609 0.40368 0.93444 0.0
C313 C 0.39524 0.37847 0.92165 0.0
C314 C 0.41775 0.37498 0.92607 0.0
C315 C 0.29472 0.36477 0.91683 0.0
O316 O 0.29076 0.38912 0.91857 0.0
H317 H 0.40516 0.41741 0.94012 0.0
H318 H 0.3846 0.36829 0.9151 0.0
O319 O 0.35015 0.42287 0.93549 0.0
H320 H 0.41862 0.50321 0.90664 0.0
H321 H 0.42834 0.36186 0.92353 0.0
Cu322 Cu 0.64471 0.97812 0.92617 0.0
N323 N 0.62422 0.94489 0.93394 0.0
N324 N 0.59672 0.9163 0.94523 0.0
C325 C 0.61057 0.94518 0.94157 0.0
C326 C 0.60209 0.89733 0.93972 0.0
C327 C 0.61906 0.91501 0.93279 0.0
O328 O 0.64995 0.01708 0.93217 0.0
C329 C 0.5937 0.94514 0.91339 0.0
O330 O 0.57737 0.93298 0.92044 0.0
H331 H 0.61016 0.96588 0.94426 0.0
H332 H 0.62681 0.90663 0.92722 0.0
N333 N 0.6837 0.98313 0.92419 0.0
N334 N 0.72358 0.98343 0.91762 0.0
C335 C 0.69458 0.97859 0.91645 0.0
C336 C 0.70653 0.99117 0.93043 0.0
C337 C 0.73106 0.9914 0.92642 0.0
C338 C 0.62813 0.02314 0.93296 0.0
O339 O 0.6011 1.00387 0.92891 0.0
H340 H 0.68126 0.97128 0.91015 0.0
H341 H 0.7053 0.99634 0.93743 0.0
O342 O 0.62216 0.96644 0.91452 0.0
H343 H 0.59444 0.87244 0.94064 0.0
H344 H 0.75286 0.99729 0.92974 0.0
Cu345 Cu 0.63491 0.68749 0.42499 0.0
N346 N 0.61801 0.70293 0.4334 0.0
N347 N 0.59185 0.7064 0.44486 0.0
C348 C 0.59979 0.68759 0.44017 0.0
C349 C 0.60583 0.73465 0.44088 0.0
C350 C 0.62189 0.73243 0.43385 0.0
O351 O 0.63817 0.6527 0.43027 0.0
C352 C 0.58543 0.67523 0.41244 0.0
O353 O 0.57108 0.67643 0.41952 0.0
H354 H 0.59216 0.66302 0.44154 0.0
H355 H 0.6355 0.75102 0.42936 0.0
N356 N 0.67472 0.72056 0.42279 0.0
N357 N 0.71569 0.75727 0.41576 0.0
C358 C 0.68595 0.73307 0.41486 0.0
C359 C 0.69794 0.7374 0.4289 0.0
C360 C 0.72316 0.75997 0.42461 0.0
C361 C 0.61506 0.62554 0.4318 0.0
O362 O 0.58728 0.61886 0.42899 0.0
H363 H 0.67258 0.72442 0.40858 0.0
H364 H 0.69647 0.7337 0.436 0.0
O365 O 0.6115 0.67679 0.41349 0.0
H366 H 0.60491 0.75567 0.44296 0.0
H367 H 0.74509 0.77744 0.42784 0.0
Cu368 Cu 0.35862 0.97419 0.42604 0.0
N369 N 0.34122 0.94439 0.43484 0.0
N370 N 0.33699 0.91555 0.44669 0.0
C371 C 0.35641 0.93975 0.44167 0.0
C372 C 0.30852 0.90472 0.44285 0.0
C373 C 0.31122 0.92255 0.43555 0.0
O374 O 0.39747 0.00895 0.43159 0.0
C375 C 0.37087 0.96394 0.40804 0.0
O376 O 0.37839 0.99378 0.40708 0.0
H377 H 0.38129 0.95339 0.44279 0.0
H378 H 0.29266 0.9197 0.43105 0.0
N379 N 0.33118 0.9883 0.42275 0.0
N380 N 0.296 0.99532 0.41515 0.0
C381 C 0.31214 0.97981 0.41535 0.0
C382 C 0.32658 0.00946 0.42742 0.0
C383 C 0.30509 0.01394 0.42276 0.0
C384 C 0.40967 0.03857 0.43019 0.0
O385 O 0.39746 0.04766 0.42387 0.0
H386 H 0.31055 0.96302 0.41016 0.0
H387 H 0.33821 0.02095 0.43378 0.0
O388 O 0.36356 0.95216 0.41569 0.0
H389 H 0.28719 0.88538 0.44516 0.0
H390 H 0.29658 0.02948 0.42488 0.0
Cu391 Cu 0.07025 0.41052 0.42562 0.0
N392 N 0.08725 0.44328 0.41762 0.0
N393 N 0.1119 0.47115 0.40587 0.0
C394 C 0.10221 0.44386 0.41021 0.0
C395 C 0.10261 0.4883 0.41079 0.0
C396 C 0.08745 0.47106 0.41802 0.0
O397 O 0.0739 0.37549 0.42009 0.0
C398 C 0.12105 0.445 0.43842 0.0
O399 O 0.13849 0.45225 0.43148 0.0
H400 H 0.10566 0.42448 0.40804 0.0
H401 H 0.07744 0.47832 0.42323 0.0
N402 N 0.02903 0.39916 0.42731 0.0
N403 N 0.9868 0.39334 0.4338 0.0
C404 C 0.01764 0.40505 0.43474 0.0
C405 C 1.00468 0.38364 0.42144 0.0
C406 C 0.97862 0.37983 0.42544 0.0
C407 C 0.05299 0.34611 0.4196 0.0
O408 O 0.02759 0.33683 0.42391 0.0
H409 H 0.03165 0.4173 0.44075 0.0
H410 H 1.00582 0.37554 0.41474 0.0
O411 O 0.09201 0.42634 0.43727 0.0
H412 H 0.10693 0.51191 0.40939 0.0
H413 H 0.9555 0.3684 0.42237 0.0
Zn414 Zn 0.03413 0.04648 0.14391 0.0
Zn415 Zn 0.03287 0.04615 0.18321 0.0
Zn416 Zn 0.02878 0.03853 0.1603 0.0
C417 C 0.00771 0.98363 0.17083 0.0
C418 C 0.09126 0.07951 0.17457 0.0
O419 O 1.00709 0.06783 0.15696 0.0
O420 O 0.02315 0.08008 0.14326 0.0
C421 C 0.99242 0.98126 0.14506 0.0
O422 O 1.00703 0.98681 0.16242 0.0
O423 O 0.01765 0.00834 0.17571 0.0
O424 O 0.07663 0.074 0.18167 0.0
O425 O 0.07753 0.06769 0.16676 0.0
O426 O 1.00294 1.00271 0.13941 0.0
O427 O 1.00091 0.98904 0.15342 0.0
O428 O 0.07943 0.0607 0.15758 0.0
O429 O 0.07795 0.05968 0.1428 0.0
C430 C 0.09315 0.06509 0.15012 0.0
O431 O 0.99999 0.05775 0.1663 0.0
O432 O 1.00647 0.06454 0.18127 0.0
C433 C 0.00989 0.08348 0.14988 0.0
C434 C 0.994 0.06605 0.17397 0.0
Zn435 Zn 0.01378 0.02631 0.32438 0.0
Zn436 Zn 0.01701 0.0265 0.37088 0.0
Zn437 Zn 0.01599 0.02637 0.3554 0.0
C438 C 0.03213 0.08809 0.36718 0.0
C439 C 0.95637 0.98276 0.36606 0.0
O440 O 0.03682 0.99969 0.34937 0.0
O441 O 0.02472 0.01557 0.33728 0.0
C442 C 0.04146 0.07438 0.34175 0.0
O443 O 0.03623 0.07843 0.3595 0.0
O444 O 0.02141 0.06867 0.37333 0.0
O445 O 0.97543 0.98995 0.37262 0.0
O446 O 0.96605 0.99576 0.35853 0.0
O447 O 0.02478 0.04706 0.33772 0.0
O448 O 0.04154 0.07504 0.35031 0.0
O449 O 0.96833 1.00405 0.34932 0.0
O450 O 0.99436 0.01545 0.33726 0.0
C451 C 0.96823 1.00521 0.34077 0.0
O452 O 0.04649 0.00602 0.35864 0.0
O453 O 0.05408 0.02243 0.37282 0.0
C454 C 0.0351 0.99889 0.3408 0.0
C455 C 0.06114 0.01088 0.36626 0.0
Zn456 Zn 0.02902 0.02122 0.87395 0.0
Zn457 Zn 0.02017 0.01052 0.84042 0.0
Zn458 Zn 0.02401 0.01555 0.85702 0.0
C459 C 0.04573 0.07477 0.84393 0.0
C460 C 0.96021 0.97387 0.84469 0.0
O461 O 0.04704 0.98828 0.86174 0.0
O462 O 0.04573 0.99306 0.87642 0.0
C463 C 0.06412 0.08287 0.8688 0.0
O464 O 0.04341 0.06523 0.852 0.0
O465 O 0.03728 0.05485 0.8374 0.0
O466 O 0.97609 0.98294 0.83788 0.0
O467 O 0.97342 0.98379 0.85259 0.0
O468 O 0.05779 0.0674 0.87581 0.0
O469 O 0.05255 0.06815 0.86111 0.0
O470 O 0.97531 0.99357 0.86173 0.0
O471 O 0.98518 1.00494 0.87625 0.0
C472 C 0.96584 0.99352 0.86968 0.0
O473 O 0.05306 0.99459 0.85257 0.0
O474 O 0.04592 0.99204 0.83787 0.0
C475 C 0.05204 0.98158 0.86969 0.0
C476 C 0.05878 0.98812 0.84466 0.0
Zn477 Zn 0.02808 0.02221 0.6945 0.0
Zn478 Zn 0.03117 0.0279 0.64723 0.0
Zn479 Zn 0.03051 0.02526 0.66348 0.0
C480 C 1.00279 0.96256 0.65061 0.0
C481 C 0.09338 0.06265 0.65339 0.0
O482 O 0.01131 0.05344 0.66948 0.0
O483 O 0.02015 0.03548 0.68166 0.0
C484 C 1.00095 0.97613 0.67669 0.0
O485 O 1.00693 0.97381 0.65875 0.0
O486 O 0.01121 0.98135 0.64426 0.0
O487 O 0.0766 0.05465 0.64627 0.0
O488 O 0.08094 0.05324 0.66096 0.0
O489 O 0.01804 1.0029 0.68097 0.0
O490 O 1.00221 0.97627 0.66815 0.0
O491 O 0.07713 0.04461 0.67014 0.0
O492 O 0.04952 0.03291 0.68188 0.0
C493 C 0.07604 0.04265 0.67867 0.0
O494 O 1.00385 0.04966 0.66017 0.0
O495 O 1.00592 0.0485 0.64546 0.0
C496 C 0.01191 0.05378 0.67804 0.0
C497 C 0.99644 0.05544 0.65241 0.0
Zn498 Zn 0.68688 0.36653 0.50795 0.0
Zn499 Zn 0.68915 0.37074 0.47676 0.0
Zn500 Zn 0.68737 0.36801 0.49327 0.0
C501 C 0.75031 0.39516 0.4826 0.0
C502 C 0.65185 0.30578 0.47998 0.0
O503 O 0.65593 0.38511 0.49816 0.0
O504 O 0.64274 0.35251 0.50921 0.0
C505 C 0.73994 0.41858 0.5062 0.0
O506 O 0.73782 0.3915 0.49024 0.0
O507 O 0.73373 0.38758 0.47546 0.0
O508 O 0.66088 0.32478 0.47368 0.0
O509 O 0.66047 0.31679 0.48814 0.0
O510 O 0.7174 0.4118 0.51102 0.0
O511 O 0.73568 0.40064 0.49916 0.0
O512 O 0.66958 0.31754 0.49731 0.0
O513 O 0.69976 0.33455 0.50954 0.0
C514 C 0.68259 0.31194 0.50402 0.0
O515 O 0.66443 0.39604 0.48937 0.0
O516 O 0.67339 0.40026 0.47495 0.0
C517 C 0.63751 0.37043 0.50445 0.0
C518 C 0.66313 0.40714 0.48173 0.0
Zn519 Zn 0.68624 0.3649 0.70413 0.0
Zn520 Zn 0.68737 0.3656 0.67393 0.0
Zn521 Zn 0.68698 0.36477 0.68848 0.0
C522 C 0.6355 0.36458 0.67682 0.0
C523 C 0.73816 0.41902 0.67812 0.0
O524 O 0.71452 0.34164 0.69218 0.0
O525 O 0.72407 0.36172 0.70604 0.0
C526 C 0.62641 0.32163 0.69906 0.0
O527 O 0.63874 0.34889 0.68318 0.0
O528 O 0.65852 0.38184 0.67231 0.0
O529 O 0.73204 0.39573 0.67283 0.0
O530 O 0.71985 0.41481 0.68451 0.0
O531 O 0.64492 0.32737 0.70567 0.0
O532 O 0.63675 0.33617 0.69175 0.0
O533 O 0.7102 0.41674 0.69315 0.0
O534 O 0.68986 0.40702 0.70636 0.0
C535 C 0.70423 0.42669 0.7005 0.0
O536 O 0.70202 0.33078 0.68338 0.0
O537 O 0.67138 0.31961 0.67141 0.0
C538 C 0.72994 0.34807 0.69974 0.0
C539 C 0.68734 0.3124 0.67642 0.0
Zn540 Zn 0.68972 0.35118 0.20867 0.0
Zn541 Zn 0.68604 0.34944 0.16153 0.0
Zn542 Zn 0.69084 0.35227 0.19253 0.0
C543 C 0.7064 0.39886 0.17857 0.0
C544 C 0.64226 0.32134 0.17796 0.0
O545 O 0.71321 0.32346 0.19587 0.0
O546 O 0.70388 0.32004 0.21025 0.0
C547 C 0.72845 0.41591 0.2047 0.0
O548 O 0.71018 0.40084 0.18712 0.0
O549 O 0.69692 0.3713 0.17481 0.0
O550 O 0.66807 0.33879 0.17442 0.0
O551 O 0.64289 0.323 0.18652 0.0
O552 O 0.7195 0.39742 0.21112 0.0
O553 O 0.71902 0.4043 0.19662 0.0
O554 O 0.64056 0.32926 0.19559 0.0
O555 O 0.64529 0.33544 0.21032 0.0
C556 C 0.62836 0.32666 0.20323 0.0
O557 O 0.71793 0.33198 0.18664 0.0
O558 O 0.69984 0.34164 0.17452 0.0
C559 C 0.71374 0.31222 0.20355 0.0
C560 C 0.71811 0.33339 0.1781 0.0
Zn561 Zn 0.69966 0.35889 0.01419 0.0
Zn562 Zn 0.69481 0.35708 0.9807 0.0
Zn563 Zn 0.69736 0.35722 0.99759 0.0
C564 C 0.66713 0.29316 0.98438 0.0
C565 C 0.75755 0.39156 0.98547 0.0
O566 O 0.68051 0.39003 1.0026 0.0
O567 O 0.68804 0.39047 0.01724 0.0
C568 C 0.65814 0.29603 0.00945 0.0
O569 O 0.67238 0.3056 0.99244 0.0
O570 O 0.67473 0.31094 0.97783 0.0
O571 O 0.73921 0.3828 0.97869 0.0
O572 O 0.74677 0.38347 0.99332 0.0
O573 O 0.66943 0.31471 0.01627 0.0
O574 O 0.66638 0.30672 1.00159 0.0
O575 O 0.74694 0.37485 1.0023 0.0
O576 O 0.74243 0.37125 0.01693 0.0
C577 C 0.75884 0.37712 0.01025 0.0
O578 O 0.67105 0.38188 0.99348 0.0
O579 O 0.6697 0.37721 0.97872 0.0
C580 C 0.68006 0.40046 0.0106 0.0
C581 C 0.662 0.38598 0.98571 0.0
Zn582 Zn 0.35226 0.69604 0.84452 0.0
Zn583 Zn 0.36161 0.70722 0.81263 0.0
Zn584 Zn 0.35491 0.70063 0.82826 0.0
C585 C 0.41871 0.72255 0.81823 0.0
C586 C 0.31562 0.64406 0.81384 0.0
O587 O 0.32443 0.71995 0.83271 0.0
O588 O 0.32254 0.70942 0.84702 0.0
C589 C 0.41323 0.73833 0.84276 0.0
O590 O 0.40598 0.72353 0.82554 0.0
O591 O 0.40256 0.71238 0.81102 0.0
O592 O 0.32522 0.66623 0.80843 0.0
O593 O 0.32709 0.65069 0.82197 0.0
O594 O 0.39453 0.72564 0.84885 0.0
O595 O 0.40356 0.73114 0.83446 0.0
O596 O 0.33476 0.64827 0.83095 0.0
O597 O 0.33838 0.65118 0.84574 0.0
C598 C 0.33183 0.63488 0.8385 0.0
O599 O 0.3336 0.73005 0.82391 0.0
O600 O 0.35863 0.74592 0.81148 0.0
C601 C 0.31409 0.71969 0.84054 0.0
C602 C 0.34173 0.74826 0.81717 0.0
Zn603 Zn 0.35046 0.68841 0.03497 0.0
Zn604 Zn 0.34592 0.69313 1.00363 0.0
Zn605 Zn 0.34841 0.69304 0.01969 0.0
C606 C 0.28775 0.67773 1.00759 0.0
C607 C 0.3902 0.75474 0.00888 0.0
O608 O 0.37769 0.67079 0.0231 0.0
O609 O 0.39012 0.68975 0.03707 0.0
C610 C 0.29138 0.6443 0.03027 0.0
O611 O 0.29843 0.6751 0.01528 0.0
O612 O 0.3052 0.68755 1.00112 0.0
O613 O 0.38078 0.73587 1.00207 0.0
O614 O 0.37917 0.74445 0.01656 0.0
O615 O 0.31204 0.64663 0.03575 0.0
O616 O 0.29919 0.66373 0.02383 0.0
O617 O 0.3701 0.74354 0.02551 0.0
O618 O 0.34889 0.72714 0.0384 0.0
C619 C 0.36247 0.74962 0.03318 0.0
O620 O 0.36568 0.66094 0.01439 0.0
O621 O 0.35056 0.65676 1.00017 0.0
C622 C 0.39449 0.67647 0.03039 0.0
C623 C 0.36148 0.64803 1.00642 0.0
Zn624 Zn 0.34905 0.68378 0.54149 0.0
Zn625 Zn 0.35921 0.69205 0.49797 0.0
Zn626 Zn 0.35843 0.68819 0.52556 0.0
C627 C 0.37834 0.73847 0.51398 0.0
C628 C 0.30055 0.65367 0.50815 0.0
O629 O 0.37868 0.65869 0.53044 0.0
O630 O 0.35856 0.64949 0.54372 0.0
C631 C 0.39132 0.74824 0.53988 0.0
O632 O 0.38024 0.73945 0.5225 0.0
O633 O 0.37298 0.71249 0.51026 0.0
O634 O 0.31453 0.66378 0.50087 0.0
O635 O 0.31432 0.66133 0.51613 0.0
O636 O 0.37928 0.72825 0.54586 0.0
O637 O 0.38484 0.73861 0.53156 0.0
O638 O 0.30735 0.66483 0.52589 0.0
O639 O 0.305 0.67117 0.54046 0.0
C640 C 0.29169 0.66268 0.53278 0.0
O641 O 0.38762 0.66795 0.52157 0.0
O642 O 0.37327 0.68195 0.50978 0.0
C643 C 0.37325 0.64423 0.53785 0.0
C644 C 0.38871 0.6703 0.51311 0.0
Zn645 Zn 0.36219 0.69423 0.31576 0.0
Zn646 Zn 0.36391 0.69413 0.34757 0.0
Zn647 Zn 0.36252 0.69424 0.33123 0.0
C648 C 0.42415 0.7161 0.34398 0.0
C649 C 0.32401 0.63142 0.34262 0.0
O650 O 0.33433 0.71638 0.32695 0.0
O651 O 0.32145 0.69104 0.31374 0.0
C652 C 0.42006 0.74079 0.32033 0.0
O653 O 0.41238 0.71316 0.33597 0.0
O654 O 0.40726 0.70959 0.35057 0.0
O655 O 0.33563 0.64927 0.34957 0.0
O656 O 0.33164 0.64314 0.33483 0.0
O657 O 0.39979 0.73626 0.31438 0.0
O658 O 0.41197 0.72318 0.32719 0.0
O659 O 0.33994 0.64315 0.32586 0.0
O660 O 0.36449 0.65506 0.31331 0.0
C661 C 0.34819 0.63436 0.31873 0.0
O662 O 0.34404 0.72587 0.33603 0.0
O663 O 0.34908 0.72315 0.35063 0.0
C664 C 0.31693 0.70694 0.31969 0.0
C665 C 0.3418 0.73429 0.34411 0.0
H666 H 0.29884 0.3153 0.22288 0.0
H667 H 0.27128 0.28101 0.20962 0.0
H668 H 0.20436 0.21041 0.2263 0.0
H669 H 0.23172 0.24461 0.23963 0.0
H670 H 0.25886 0.21831 0.2055 0.0
H671 H 0.15075 0.22296 0.20735 0.0
H672 H 0.18604 0.25106 0.21355 0.0
H673 H 0.162 0.21168 0.21748 0.0
C674 C 0.27807 0.29263 0.22375 0.0
C675 C 0.26741 0.28287 0.23235 0.0
C676 C 0.26242 0.27299 0.21614 0.0
C677 C 0.23559 0.24328 0.21694 0.0
C678 C 0.22474 0.23347 0.2255 0.0
H679 H 0.13622 0.0746 0.18339 0.0
H680 H 0.17727 0.11868 0.19258 0.0
C681 C 0.24047 0.25304 0.23313 0.0
C682 C 0.21936 0.22227 0.20885 0.0
H683 H 0.14984 0.18427 0.19708 0.0
C684 C 0.2351 0.21106 0.20361 0.0
C685 C 0.18851 0.21315 0.2063 0.0
C686 C 0.17085 0.22553 0.21141 0.0
C687 C 0.22046 0.19013 0.19608 0.0
C688 C 0.18921 0.18 0.19375 0.0
C689 C 0.17382 0.19203 0.19883 0.0
C690 C 0.1711 0.1552 0.18652 0.0
C691 C 0.23854 0.17898 0.19071 0.0
C692 C 0.15504 0.1611 0.1797 0.0
C693 C 0.1319 0.13582 0.1743 0.0
C694 C 0.12408 0.10422 0.17576 0.0
C695 C 0.14243 0.0988 0.18192 0.0
C696 C 0.16568 0.12404 0.18727 0.0
H697 H 0.26382 0.19597 0.19157 0.0
H698 H 0.23395 0.15556 0.19305 0.0
H699 H 0.23159 0.17601 0.18348 0.0
H700 H 0.15869 0.1849 0.17902 0.0
H701 H 0.1175 0.1406 0.16982 0.0
H702 H 0.76744 0.97669 0.21996 0.0
H703 H 0.80233 0.99264 0.20761 0.0
H704 H 0.86124 0.08427 0.22117 0.0
H705 H 0.82709 0.06816 0.2337 0.0
H706 H 0.82372 0.04376 0.19611 0.0
H707 H 0.91974 0.04986 0.21714 0.0
H708 H 0.8806 0.03144 0.22074 0.0
H709 H 0.90485 0.07418 0.22138 0.0
C710 C 0.7879 1.00017 0.22037 0.0
C711 C 0.79458 0.02091 0.22793 0.0
C712 C 0.80768 0.00936 0.21325 0.0
C713 C 0.83464 0.03945 0.21353 0.0
C714 C 0.84082 0.06071 0.22088 0.0
H715 H 0.9969 0.11733 0.1824 0.0
H716 H 0.95493 0.11465 0.19094 0.0
C717 C 0.82107 0.05153 0.22802 0.0
C718 C 0.8569 0.04799 0.20631 0.0
H719 H 0.93073 0.06637 0.2024 0.0
C720 C 0.84717 0.04882 0.19747 0.0
C721 C 0.88741 0.05434 0.20808 0.0
C722 C 0.89878 0.05216 0.21733 0.0
C723 C 0.86731 0.05626 0.1904 0.0
C724 C 0.89781 0.06267 0.19219 0.0
C725 C 0.90747 0.06189 0.20103 0.0
C726 C 0.92004 0.06877 0.18506 0.0
C727 C 0.85589 0.05753 0.18109 0.0
C728 C 0.91399 0.04495 0.17845 0.0
C729 C 0.938 0.04685 0.17339 0.0
C730 C 0.96839 0.07233 0.175 0.0
C731 C 0.97357 0.0978 0.18088 0.0
C732 C 0.94965 0.09602 0.18587 0.0
H733 H 0.83582 0.06135 0.18122 0.0
H734 H 0.87449 0.07687 0.17739 0.0
H735 H 0.84834 0.03448 0.17738 0.0
H736 H 0.89152 0.02344 0.17779 0.0
H737 H 0.93352 0.02647 0.16911 0.0
H738 H 0.99957 0.77599 0.2256 0.0
H739 H 0.9875 0.79599 0.21217 0.0
H740 H 0.06395 0.89033 0.21911 0.0
H741 H 0.07612 0.87069 0.23251 0.0
H742 H 0.97135 0.84106 0.21045 0.0
H743 H 0.08013 0.87866 0.1934 0.0
H744 H 0.06926 0.8534 0.20283 0.0
H745 H 0.08714 0.89604 0.20455 0.0
C746 C 0.01381 0.80101 0.22429 0.0
C747 C 0.03903 0.82163 0.23014 0.0
C748 C 1.00696 0.81236 0.21657 0.0
C749 C 0.02526 0.84449 0.21451 0.0
C750 C 0.0501 0.86522 0.2204 0.0
H751 H 0.98916 0.97093 0.18754 0.0
H752 H 0.99017 0.93176 0.19688 0.0
C753 C 0.05699 0.85392 0.22809 0.0
C754 C 0.01765 0.85688 0.20645 0.0
H755 H 0.04974 0.90155 0.18836 0.0
C756 C 0.9883 0.85376 0.20553 0.0
C757 C 0.03951 0.87296 0.19991 0.0
C758 C 0.07065 0.87518 0.20016 0.0
C759 C 0.98087 0.86789 0.19856 0.0
C760 C 1.00358 0.88613 0.19244 0.0
C761 C 0.03231 0.88767 0.19305 0.0
C762 C 0.99956 0.90726 0.18622 0.0
C763 C 0.94891 0.86368 0.19798 0.0
C764 C 1.00486 0.90702 0.17703 0.0
C765 C 1.00487 0.93022 0.17157 0.0
C766 C 0.99976 0.9539 0.17532 0.0
C767 C 0.99291 0.95284 0.18441 0.0
C768 C 0.99328 0.93022 0.18979 0.0
H769 H 0.93161 0.84047 0.2006 0.0
H770 H 0.94873 0.88282 0.20216 0.0
H771 H 0.94168 0.86491 0.191 0.0
H772 H 0.01008 0.88965 0.17415 0.0
H773 H 0.01075 0.93083 0.16465 0.0
H774 H 0.20538 0.23318 0.27741 0.0
H775 H 0.16641 0.20763 0.28863 0.0
H776 H 0.23804 0.2238 0.30823 0.0
H777 H 0.27703 0.24938 0.29709 0.0
H778 H 0.16015 0.15158 0.29892 0.0
H779 H 0.18288 0.25745 0.3203 0.0
H780 H 0.19247 0.26033 0.30868 0.0
H781 H 0.21571 0.25468 0.31692 0.0
C782 C 0.21285 0.23163 0.28413 0.0
C783 C 0.2443 0.24316 0.28634 0.0
C784 C 0.19058 0.21698 0.29052 0.0
C785 C 0.19942 0.21411 0.29927 0.0
C786 C 0.23079 0.22607 0.30154 0.0
H787 H 0.10006 0.12282 0.34661 0.0
H788 H 0.1386 0.15917 0.33641 0.0
C789 C 0.253 0.24039 0.29514 0.0
C790 C 0.17572 0.1968 0.30587 0.0
H791 H 0.14661 0.20673 0.3253 0.0
C792 C 0.15702 0.16361 0.30466 0.0
C793 C 0.17213 0.21256 0.31342 0.0
C794 C 0.19168 0.24827 0.31495 0.0
C795 C 0.13496 0.14561 0.31085 0.0
C796 C 0.1307 0.16139 0.31831 0.0
C797 C 0.14965 0.19466 0.31956 0.0
C798 C 0.10669 0.14347 0.32484 0.0
C799 C 0.11713 0.10972 0.30945 0.0
C800 C 0.07566 0.12396 0.32186 0.0
C801 C 0.05387 0.10309 0.32762 0.0
C802 C 0.06244 0.10188 0.33655 0.0
C803 C 0.09281 0.12347 0.33978 0.0
C804 C 0.11485 0.14408 0.33394 0.0
H805 H 0.12943 0.10114 0.30514 0.0
H806 H 0.11312 0.09787 0.31591 0.0
H807 H 0.09436 0.10219 0.30606 0.0
H808 H 0.06856 0.12378 0.31495 0.0
H809 H 0.03055 0.08684 0.32498 0.0
H810 H 0.81398 0.02092 0.27413 0.0
H811 H 0.84398 0.01292 0.28588 0.0
H812 H 0.80163 0.04168 0.30594 0.0
H813 H 0.77132 0.04951 0.29425 0.0
H814 H 0.88619 0.057 0.29891 0.0
H815 H 0.78759 0.95624 0.31472 0.0
H816 H 0.78398 0.96904 0.30376 0.0
H817 H 0.78462 0.99138 0.31361 0.0
C818 C 0.81103 0.0256 0.28103 0.0
C819 C 0.79015 0.03584 0.28322 0.0
C820 C 0.82819 0.02096 0.28775 0.0
C821 C 0.82469 0.02616 0.29681 0.0
C822 C 0.80426 0.03685 0.29902 0.0
H823 H 0.91984 0.01333 0.34551 0.0
H824 H 0.88296 0.01735 0.33517 0.0
C825 C 0.78713 0.0416 0.2923 0.0
C826 C 0.84308 0.02113 0.3039 0.0
H827 H 0.83715 0.97643 0.32184 0.0
C828 C 0.87544 0.03936 0.30392 0.0
C829 C 0.82907 0.99829 0.31048 0.0
C830 C 0.79442 0.97738 0.31064 0.0
C831 C 0.89417 0.03546 0.31032 0.0
C832 C 0.88024 0.0121 0.31679 0.0
C833 C 0.84784 0.99423 0.31688 0.0
C834 C 0.89922 1.00539 0.32324 0.0
C835 C 0.9288 0.05679 0.31016 0.0
C836 C 0.91942 0.99569 0.32005 0.0
C837 C 0.94034 0.99344 0.3259 0.0
C838 C 0.94132 1.00037 0.33512 0.0
C839 C 0.91949 0.00765 0.33844 0.0
C840 C 0.89858 0.01016 0.33253 0.0
H841 H 0.93522 0.07901 0.30665 0.0
H842 H 0.93957 0.0634 0.31704 0.0
H843 H 0.93862 0.04393 0.30654 0.0
H844 H 0.91979 0.99099 0.31295 0.0
H845 H 0.95663 0.98741 0.32315 0.0
H846 H 0.03939 0.78851 0.28524 0.0
H847 H 0.04614 0.82102 0.29887 0.0
H848 H 0.9922 0.85711 0.28631 0.0
H849 H 0.98545 0.82492 0.27267 0.0
H850 H 0.07368 0.8903 0.29988 0.0
H851 H 0.95317 0.8268 0.31099 0.0
H852 H 0.96767 0.80859 0.30331 0.0
H853 H 0.95692 0.8365 0.29941 0.0
C854 C 0.02861 0.80304 0.28541 0.0
C855 C 0.01176 0.80399 0.27786 0.0
C856 C 0.03261 0.82169 0.2932 0.0
C857 C 0.01944 0.84125 0.29363 0.0
C858 C 1.00221 0.84185 0.28617 0.0
H859 H 0.05193 0.007 0.32361 0.0
H860 H 0.05134 0.96749 0.31304 0.0
C861 C 0.99846 0.82349 0.27836 0.0
C862 C 0.02476 0.86219 0.30171 0.0
H863 H 0.98713 0.87819 0.31793 0.0
C864 C 0.05484 0.88743 0.3039 0.0
C865 C 1.00022 0.85828 0.30699 0.0
C866 C 0.96768 0.83093 0.30513 0.0
C867 C 0.06075 0.90966 0.31099 0.0
C868 C 0.03597 0.90658 0.31602 0.0
C869 C 1.00612 0.88055 0.31407 0.0
C870 C 0.04001 0.93154 0.32277 0.0
C871 C 0.09339 0.93659 0.31299 0.0
C872 C 0.03426 0.92467 0.33182 0.0
C873 C 0.03492 0.94749 0.33794 0.0
C874 C 0.04069 0.97722 0.33503 0.0
C875 C 0.04745 0.98432 0.32605 0.0
C876 C 0.0472 0.96178 0.31999 0.0
H877 H 0.1106 0.93119 0.31015 0.0
H878 H 0.09629 0.95851 0.30997 0.0
H879 H 0.09835 0.9416 0.32031 0.0
H880 H 0.02847 0.90138 0.33408 0.0
H881 H 0.02921 0.94122 0.34479 0.0
H882 H 0.81544 0.80744 0.77998 0.0
H883 H 0.84367 0.84079 0.79335 0.0
H884 H 0.77455 0.77203 0.80993 0.0
H885 H 0.74609 0.73854 0.79661 0.0
H886 H 0.79014 0.83592 0.81407 0.0
H887 H 0.89462 0.82455 0.81234 0.0
H888 H 0.88452 0.8366 0.80216 0.0
H889 H 0.85886 0.7977 0.80614 0.0
C890 C 0.80637 0.7992 0.78647 0.0
C891 C 0.77856 0.77013 0.7872 0.0
C892 C 0.8226 0.81829 0.79412 0.0
C893 C 0.8114 0.80876 0.80266 0.0
C894 C 0.7837 0.7798 0.80342 0.0
H895 H 0.93329 0.91222 0.84933 0.0
H896 H 0.891 0.86762 0.84044 0.0
C897 C 0.76753 0.76061 0.79578 0.0
C898 C 0.82823 0.82941 0.81076 0.0
H899 H 0.89799 0.86512 0.8224 0.0
C900 C 0.81362 0.84206 0.81595 0.0
C901 C 0.85868 0.83708 0.8133 0.0
C902 C 0.87506 0.82307 0.80826 0.0
C903 C 0.82911 0.86317 0.82339 0.0
C904 C 0.86009 0.87202 0.82568 0.0
C905 C 0.87423 0.85838 0.82068 0.0
C906 C 0.87935 0.89738 0.83268 0.0
C907 C 0.81221 0.87593 0.8287 0.0
C908 C 0.88574 0.92875 0.83163 0.0
C909 C 0.90965 0.95413 0.83677 0.0
C910 C 0.92765 0.94868 0.84305 0.0
C911 C 0.91921 0.91705 0.84474 0.0
C912 C 0.89538 0.8916 0.83954 0.0
H913 H 0.78678 0.8596 0.82801 0.0
H914 H 0.81959 0.87951 0.83591 0.0
H915 H 0.81741 0.89929 0.82615 0.0
H916 H 0.87423 0.93403 0.82629 0.0
H917 H 0.91625 0.97831 0.83516 0.0
H918 H 0.25896 0.99448 0.79173 0.0
H919 H 0.22471 0.97843 0.8043 0.0
H920 H 0.20942 0.05709 0.80028 0.0
H921 H 0.24274 0.07275 0.78761 0.0
H922 H 0.22715 0.01286 0.82049 0.0
H923 H 0.12182 0.97843 0.7992 0.0
H924 H 0.15732 0.9846 0.79466 0.0
H925 H 0.15287 0.01819 0.79761 0.0
C926 C 0.24816 0.00825 0.79347 0.0
C927 C 0.25356 0.03486 0.78858 0.0
C928 C 0.22878 0.99918 0.80071 0.0
C929 C 0.21422 0.01633 0.80316 0.0
C930 C 0.22009 0.04324 0.79844 0.0
H931 H 0.11985 0.02711 0.84874 0.0
H932 H 0.16044 0.02973 0.83949 0.0
C933 C 0.23943 0.05235 0.79122 0.0
C934 C 0.19229 0.00586 0.8105 0.0
H935 H 0.11771 0.98316 0.81485 0.0
C936 C 0.20311 0.00602 0.81927 0.0
C937 C 0.16085 0.99647 0.80889 0.0
C938 C 0.14738 0.99407 0.79957 0.0
C939 C 0.18352 0.99813 0.82651 0.0
C940 C 0.15242 0.99024 0.82494 0.0
C941 C 0.1415 0.98917 0.81611 0.0
C942 C 0.13082 0.98452 0.83226 0.0
C943 C 0.19635 0.99823 0.83573 0.0
C944 C 0.10092 0.95761 0.83163 0.0
C945 C 0.07768 0.95627 0.83688 0.0
C946 C 0.08394 0.98163 0.84294 0.0
C947 C 0.1146 0.00677 0.84433 0.0
C948 C 0.13783 0.00838 0.83896 0.0
H949 H 0.21608 0.9939 0.83542 0.0
H950 H 0.20498 0.02198 0.83914 0.0
H951 H 0.17837 0.97984 0.83982 0.0
H952 H 0.09486 0.93888 0.82652 0.0
H953 H 0.05412 0.937 0.83554 0.0
H954 H 0.97815 0.19013 0.78647 0.0
H955 H 0.99136 0.17203 0.80002 0.0
H956 H 0.05497 0.26976 0.80887 0.0
H957 H 0.04245 0.28794 0.79508 0.0
H958 H 0.08056 0.23615 0.812 0.0
H959 H 0.96347 0.16949 0.82457 0.0
H960 H 0.96305 0.15481 0.81344 0.0
H961 H 0.97228 0.19561 0.8154 0.0
C962 C 0.99465 0.2078 0.79135 0.0
C963 C 0.00901 0.24048 0.78974 0.0
C964 C 1.00208 0.19743 0.79914 0.0
C965 C 0.02349 0.2195 0.80564 0.0
C966 C 0.03813 0.25222 0.80402 0.0
H967 H 0.02884 0.11509 0.85187 0.0
H968 H 0.02892 0.15994 0.84457 0.0
C969 C 0.03104 0.26261 0.79613 0.0
C970 C 0.03158 0.20806 0.81386 0.0
H971 H 0.99929 0.15258 0.82967 0.0
C972 C 0.06279 0.21834 0.81597 0.0
C973 C 0.00868 0.18565 0.8193 0.0
C974 C 0.97507 0.1761 0.81811 0.0
C975 C 0.07144 0.20502 0.8229 0.0
C976 C 0.04824 0.17988 0.82764 0.0
C977 C 0.01724 0.17144 0.82599 0.0
C978 C 0.05488 0.15906 0.83333 0.0
C979 C 0.10541 0.21781 0.82494 0.0
C980 C 0.07069 0.14465 0.82973 0.0
C981 C 0.07111 0.11965 0.83395 0.0
C982 C 0.05525 0.10793 0.84182 0.0
C983 C 0.04167 0.12398 0.8459 0.0
C984 C 0.04139 0.14933 0.84166 0.0
H985 H 0.11891 0.24389 0.82396 0.0
H986 H 0.11002 0.21344 0.8319 0.0
H987 H 0.11386 0.20616 0.82024 0.0
H988 H 0.08054 0.15079 0.82323 0.0
H989 H 0.08147 0.10749 0.83061 0.0
H990 H 0.79265 0.76953 0.72827 0.0
H991 H 0.82702 0.79015 0.71579 0.0
H992 H 0.84942 0.88585 0.72362 0.0
H993 H 0.81509 0.86548 0.73601 0.0
H994 H 0.83817 0.87443 0.70578 0.0
H995 H 0.92041 0.83618 0.71723 0.0
H996 H 0.8809 0.8046 0.71567 0.0
H997 H 0.89143 0.83533 0.72429 0.0
C998 C 0.80507 0.79498 0.72737 0.0
C999 C 0.80108 0.81582 0.73318 0.0
C1000 C 0.82477 0.80676 0.72024 0.0
C1001 C 0.8412 0.83964 0.71883 0.0
C1002 C 0.83701 0.86039 0.72456 0.0
H1003 H 1.00592 0.96485 0.69409 0.0
H1004 H 0.96519 0.92684 0.7032 0.0
C1005 C 0.81723 0.84866 0.73164 0.0
C1006 C 0.86279 0.85283 0.71141 0.0
H1007 H 0.93039 0.86238 0.70369 0.0
C1008 C 0.85819 0.87156 0.70526 0.0
C1009 C 0.88901 0.8492 0.71077 0.0
C1010 C 0.896 0.83048 0.71738 0.0
C1011 C 0.8795 0.88756 0.69869 0.0
C1012 C 0.90589 0.88419 0.6981 0.0
C1013 C 0.90999 0.86466 0.70407 0.0
C1014 C 0.93141 0.90397 0.69216 0.0
C1015 C 0.87436 0.90926 0.69275 0.0
C1016 C 0.92656 0.90295 0.68282 0.0
C1017 C 0.95001 0.92499 0.67756 0.0
C1018 C 0.97858 0.94826 0.68158 0.0
C1019 C 0.98399 0.94758 0.69081 0.0
C1020 C 0.96072 0.92572 0.69603 0.0
H1021 H 0.85625 0.91395 0.69523 0.0
H1022 H 0.89609 0.93246 0.69228 0.0
H1023 H 0.86683 0.89787 0.68593 0.0
H1024 H 0.90435 0.88589 0.67965 0.0
H1025 H 0.94518 0.92496 0.67046 0.0
H1026 H 0.20175 0.01157 0.74697 0.0
H1027 H 0.17822 0.01972 0.73358 0.0
H1028 H 0.25275 0.0275 0.71809 0.0
H1029 H 0.27677 0.01945 0.73154 0.0
H1030 H 0.21081 0.07694 0.72271 0.0
H1031 H 0.17001 0.96171 0.70347 0.0
H1032 H 0.17703 0.96543 0.71547 0.0
H1033 H 0.20896 0.98265 0.70828 0.0
C1034 C 0.21308 0.01463 0.74071 0.0
C1035 C 0.24121 0.0148 0.74036 0.0
C1036 C 0.19957 0.01937 0.73306 0.0
C1037 C 0.21365 0.02412 0.72483 0.0
C1038 C 0.24134 0.02357 0.72436 0.0
H1039 H 0.12854 0.0413 0.67426 0.0
H1040 H 0.16711 0.04088 0.68474 0.0
C1041 C 0.25503 0.01896 0.73205 0.0
C1042 C 0.19979 0.03113 0.71694 0.0
H1043 H 0.15723 0.99794 0.69736 0.0
C1044 C 0.19938 0.05983 0.71711 0.0
C1045 C 0.18527 0.009 0.70959 0.0
C1046 C 0.18507 0.97784 0.70913 0.0
C1047 C 0.18411 0.06662 0.71027 0.0
C1048 C 0.16792 0.04366 0.70317 0.0
C1049 C 0.16952 0.01554 0.70279 0.0
C1050 C 0.14669 0.04689 0.69666 0.0
C1051 C 0.18538 0.09834 0.71077 0.0
C1052 C 0.12262 0.05074 0.69983 0.0
C1053 C 0.10099 0.05134 0.6939 0.0
C1054 C 0.10241 0.04755 0.68462 0.0
C1055 C 0.12698 0.04459 0.68137 0.0
C1056 C 0.14886 0.04408 0.68736 0.0
H1057 H 0.20704 0.11696 0.71433 0.0
H1058 H 0.18391 0.10649 0.70401 0.0
H1059 H 0.16573 0.09602 0.71459 0.0
H1060 H 0.11987 0.05223 0.70695 0.0
H1061 H 0.08255 0.0539 0.69664 0.0
H1062 H 0.02362 0.2295 0.74427 0.0
H1063 H 0.01777 0.19075 0.73247 0.0
H1064 H 0.03236 0.25896 0.71257 0.0
H1065 H 0.03871 0.29804 0.72433 0.0
H1066 H 0.97425 0.16495 0.71832 0.0
H1067 H 0.09261 0.23 0.70564 0.0
H1068 H 0.08305 0.24092 0.71619 0.0
H1069 H 0.073 0.2524 0.70589 0.0
C1070 C 0.02594 0.23645 0.7374 0.0
C1071 C 0.03185 0.26705 0.73528 0.0
C1072 C 0.02247 0.21418 0.73065 0.0
C1073 C 0.02498 0.22201 0.72163 0.0
C1074 C 0.03094 0.25254 0.71948 0.0
H1075 H 0.01387 0.10899 0.67318 0.0
H1076 H 0.01399 0.15004 0.68321 0.0
C1077 C 0.03444 0.27485 0.72623 0.0
C1078 C 0.02042 0.19785 0.71448 0.0
H1079 H 0.05632 0.18249 0.69758 0.0
C1080 C 0.9922 0.16882 0.71379 0.0
C1081 C 0.04373 0.20294 0.7085 0.0
C1082 C 0.07491 0.23311 0.70911 0.0
C1083 C 0.9867 0.14478 0.70731 0.0
C1084 C 0.01024 0.14957 0.70146 0.0
C1085 C 0.03822 0.17885 0.70203 0.0
C1086 C 0.00722 0.12371 0.69519 0.0
C1087 C 0.95561 0.11449 0.70677 0.0
C1088 C 1.00303 0.09516 0.69855 0.0
C1089 C 1.00288 0.07181 0.69286 0.0
C1090 C 0.00713 0.07646 0.68366 0.0
C1091 C 0.01029 0.10458 0.68022 0.0
C1092 C 0.01057 0.12812 0.68595 0.0
H1093 H 0.93743 0.11841 0.70958 0.0
H1094 H 0.94851 0.10489 0.69976 0.0
H1095 H 0.95703 0.09623 0.71073 0.0
H1096 H 1.00094 0.09136 0.70565 0.0
H1097 H 1.00025 0.05041 0.69573 0.0
H1098 H 0.86507 0.56653 0.57501 0.0
H1099 H 0.84261 0.53825 0.5606 0.0
H1100 H 0.93146 0.59114 0.54899 0.0
H1101 H 0.95409 0.62019 0.56339 0.0
H1102 H 0.88529 0.58495 0.53768 0.0
H1103 H 0.85336 0.46689 0.55036 0.0
H1104 H 0.83715 0.48616 0.55677 0.0
H1105 H 0.87852 0.50367 0.55671 0.0
C1106 C 0.87987 0.57236 0.56939 0.0
C1107 C 0.91145 0.59554 0.57039 0.0
C1108 C 0.86702 0.55592 0.56116 0.0
C1109 C 0.8855 0.56187 0.55376 0.0
C1110 C 0.9168 0.58586 0.55463 0.0
H1111 H 0.79434 0.41889 0.50927 0.0
H1112 H 0.83727 0.45713 0.51951 0.0
C1113 C 0.92967 0.60252 0.56287 0.0
C1114 C 0.87191 0.54302 0.54516 0.0
H1115 H 0.82818 0.46656 0.53645 0.0
C1116 C 0.87318 0.55907 0.53738 0.0
C1117 C 0.85679 0.50924 0.54466 0.0
C1118 C 0.85665 0.4905 0.55255 0.0
C1119 C 0.85815 0.54223 0.52928 0.0
C1120 C 0.84086 0.50842 0.52899 0.0
C1121 C 0.84118 0.49244 0.53663 0.0
C1122 C 0.8194 0.48922 0.52127 0.0
C1123 C 0.86071 0.56093 0.52116 0.0
C1124 C 0.79569 0.49503 0.51859 0.0
C1125 C 0.77151 0.47346 0.51274 0.0
C1126 C 0.77031 0.44547 0.50944 0.0
C1127 C 0.7951 0.44067 0.51155 0.0
C1128 C 0.81941 0.46232 0.51748 0.0
H1129 H 0.88307 0.58385 0.5214 0.0
H1130 H 0.85874 0.54719 0.51488 0.0
H1131 H 0.84193 0.56671 0.52102 0.0
H1132 H 0.79452 0.51497 0.52156 0.0
H1133 H 0.75236 0.47738 0.51136 0.0
H1134 H 0.48647 0.40457 0.5668 0.0
H1135 H 0.51603 0.41781 0.55323 0.0
H1136 H 0.47249 0.3177 0.54552 0.0
H1137 H 0.44252 0.30438 0.55891 0.0
H1138 H 0.55769 0.39811 0.54851 0.0
H1139 H 0.46297 0.35635 0.52257 0.0
H1140 H 0.45819 0.3636 0.53415 0.0
H1141 H 0.45616 0.32687 0.53057 0.0
C1142 C 0.4828 0.38542 0.56214 0.0
C1143 C 0.4621 0.35338 0.56396 0.0
C1144 C 0.49982 0.39302 0.55441 0.0
C1145 C 0.49614 0.36879 0.54829 0.0
C1146 C 0.47529 0.33686 0.55005 0.0
H1147 H 0.57909 0.32508 0.50716 0.0
H1148 H 0.54367 0.33091 0.51681 0.0
C1149 C 0.45843 0.32924 0.55778 0.0
C1150 C 0.51545 0.37644 0.54036 0.0
H1151 H 0.51107 0.36275 0.51772 0.0
C1152 C 0.54763 0.39104 0.54175 0.0
C1153 C 0.50226 0.36722 0.53154 0.0
C1154 C 0.46801 0.35292 0.52959 0.0
C1155 C 0.56677 0.39474 0.53464 0.0
C1156 C 0.55341 0.3842 0.52585 0.0
C1157 C 0.52136 0.371 0.52442 0.0
C1158 C 0.57157 0.38235 0.51839 0.0
C1159 C 0.60083 0.40796 0.5367 0.0
C1160 C 0.59811 0.40954 0.51556 0.0
C1161 C 0.61837 0.40621 0.50992 0.0
C1162 C 0.6122 0.37567 0.50706 0.0
C1163 C 0.58417 0.34891 0.5092 0.0
C1164 C 0.56401 0.35221 0.51477 0.0
H1165 H 0.60643 0.40974 0.544 0.0
H1166 H 0.60874 0.39273 0.5334 0.0
H1167 H 0.61411 0.43223 0.53412 0.0
H1168 H 0.60411 0.43311 0.51815 0.0
H1169 H 0.64008 0.42715 0.50849 0.0
H1170 H 0.74503 0.17322 0.55921 0.0
H1171 H 0.73142 0.19183 0.54581 0.0
H1172 H 0.63566 0.14196 0.55248 0.0
H1173 H 0.64924 0.12384 0.56609 0.0
H1174 H 0.69011 0.15755 0.5311 0.0
H1175 H 0.6548 0.23411 0.54964 0.0
H1176 H 0.67643 0.2181 0.555 0.0
H1177 H 0.63575 0.19285 0.55237 0.0
C1178 C 0.72109 0.16637 0.55789 0.0
C1179 C 0.69831 0.14734 0.56382 0.0
C1180 C 0.7133 0.17681 0.55017 0.0
C1181 C 0.6826 0.16866 0.54819 0.0
C1182 C 0.65959 0.14895 0.55394 0.0
H1183 H 0.62725 0.26142 0.50817 0.0
H1184 H 0.62137 0.21856 0.51777 0.0
C1185 C 0.66736 0.13838 0.56168 0.0
C1186 C 0.67517 0.18161 0.54022 0.0
H1187 H 0.65297 0.23458 0.534 0.0
C1188 C 0.68165 0.17412 0.53172 0.0
C1189 C 0.66399 0.20311 0.54101 0.0
C1190 C 0.65751 0.21281 0.54999 0.0
C1191 C 0.67797 0.18814 0.52404 0.0
C1192 C 0.66807 0.21068 0.52488 0.0
C1193 C 0.66036 0.21714 0.53333 0.0
C1194 C 0.66928 0.23087 0.51741 0.0
C1195 C 0.6851 0.17894 0.5151 0.0
C1196 C 0.69777 0.25118 0.51372 0.0
C1197 C 0.70104 0.27542 0.50824 0.0
C1198 C 0.6759 0.27981 0.50629 0.0
C1199 C 0.64675 0.25792 0.50935 0.0
C1200 C 0.64351 0.23373 0.51493 0.0
H1201 H 0.68146 0.15438 0.51504 0.0
H1202 H 0.67052 0.18025 0.5096 0.0
H1203 H 0.70974 0.19553 0.51381 0.0
H1204 H 0.71817 0.25009 0.51568 0.0
H1205 H 0.72391 0.29256 0.50618 0.0
H1206 H 0.93403 0.54754 0.62415 0.0
H1207 H 0.903 0.53024 0.63731 0.0
H1208 H 0.86474 0.58987 0.63101 0.0
H1209 H 0.89516 0.6067 0.61763 0.0
H1210 H 0.90095 0.56601 0.65225 0.0
H1211 H 0.78775 0.50123 0.63305 0.0
H1212 H 0.82399 0.51392 0.62786 0.0
H1213 H 0.8124 0.54246 0.63067 0.0
C1214 C 0.91886 0.55682 0.62549 0.0
C1215 C 0.91689 0.57825 0.61973 0.0
C1216 C 0.90131 0.5471 0.63308 0.0
C1217 C 0.88123 0.55841 0.63509 0.0
C1218 C 0.87972 0.58044 0.62951 0.0
H1219 H 0.73665 0.47272 0.67404 0.0
H1220 H 0.77415 0.51489 0.66481 0.0
C1221 C 0.89736 0.59026 0.62191 0.0
C1222 C 0.86156 0.54641 0.64293 0.0
H1223 H 0.78678 0.4991 0.64865 0.0
C1224 C 0.87595 0.55168 0.65148 0.0
C1225 C 0.82893 0.5279 0.64194 0.0
C1226 C 0.81222 0.52075 0.63289 0.0
C1227 C 0.85866 0.53825 0.65903 0.0
C1228 C 0.82614 0.51848 0.65798 0.0
C1229 C 0.81167 0.51439 0.64949 0.0
C1230 C 0.8071 0.49846 0.66525 0.0
C1231 C 0.87551 0.5451 0.66803 0.0
C1232 C 0.81364 0.47601 0.66887 0.0
C1233 C 0.79243 0.45223 0.67416 0.0
C1234 C 0.76421 0.45033 0.67596 0.0
C1235 C 0.75863 0.47423 0.67297 0.0
C1236 C 0.77986 0.49803 0.66759 0.0
H1237 H 0.89707 0.56878 0.66833 0.0
H1238 H 0.86082 0.54456 0.67352 0.0
H1239 H 0.88215 0.5268 0.66915 0.0
H1240 H 0.83396 0.47518 0.66701 0.0
H1241 H 0.79688 0.4336 0.67619 0.0
H1242 H 0.42767 0.35568 0.62087 0.0
H1243 H 0.44909 0.34855 0.63493 0.0
H1244 H 0.53874 0.3884 0.62367 0.0
H1245 H 0.51731 0.39464 0.60954 0.0
H1246 H 0.52441 0.33487 0.63173 0.0
H1247 H 0.50217 0.4123 0.65458 0.0
H1248 H 0.46828 0.38132 0.6486 0.0
H1249 H 0.49837 0.41261 0.64258 0.0
C1250 C 0.45206 0.36335 0.62143 0.0
C1251 C 0.47082 0.37588 0.61407 0.0
C1252 C 0.4643 0.35934 0.6295 0.0
C1253 C 0.49566 0.36827 0.63043 0.0
C1254 C 0.51448 0.3813 0.62314 0.0
H1255 H 0.62538 0.41233 0.67299 0.0
H1256 H 0.58486 0.40848 0.66278 0.0
C1257 C 0.50221 0.38499 0.61505 0.0
C1258 C 0.50888 0.36299 0.63881 0.0
H1259 H 0.52331 0.38342 0.66118 0.0
C1260 C 0.52398 0.3453 0.63819 0.0
C1261 C 0.50837 0.37665 0.64724 0.0
C1262 C 0.49369 0.39702 0.64831 0.0
C1263 C 0.53945 0.34178 0.64565 0.0
C1264 C 0.53909 0.35554 0.65409 0.0
C1265 C 0.52317 0.37242 0.65477 0.0
C1266 C 0.55895 0.35683 0.66187 0.0
C1267 C 0.5575 0.32488 0.64429 0.0
C1268 C 0.55688 0.32908 0.66529 0.0
C1269 C 0.58022 0.33129 0.67121 0.0
C1270 C 0.6057 0.3613 0.67381 0.0
C1271 C 0.60586 0.3889 0.67113 0.0
C1272 C 0.58275 0.38671 0.66525 0.0
H1273 H 0.56034 0.32129 0.6371 0.0
H1274 H 0.58081 0.3386 0.64769 0.0
H1275 H 0.54505 0.30106 0.64719 0.0
H1276 H 0.53831 0.30573 0.66294 0.0
H1277 H 0.57976 0.30966 0.67308 0.0
H1278 H 0.69778 0.10761 0.62064 0.0
H1279 H 0.7041 0.13654 0.63492 0.0
H1280 H 0.66701 0.18998 0.62245 0.0
H1281 H 0.66138 0.16185 0.60814 0.0
H1282 H 0.71904 0.22855 0.63227 0.0
H1283 H 0.64055 0.12695 0.65243 0.0
H1284 H 0.67052 0.12283 0.64738 0.0
H1285 H 0.64101 0.12339 0.64042 0.0
C1286 C 0.69059 0.12523 0.62096 0.0
C1287 C 0.67895 0.1323 0.61323 0.0
C1288 C 0.69413 0.14171 0.62916 0.0
C1289 C 0.68573 0.16526 0.62981 0.0
C1290 C 0.67368 0.17194 0.62213 0.0
H1291 H 0.64088 0.25474 0.67065 0.0
H1292 H 0.64491 0.21699 0.66054 0.0
C1293 C 0.67036 0.15572 0.61394 0.0
C1294 C 0.6904 0.18396 0.63836 0.0
H1295 H 0.66814 0.1776 0.65995 0.0
C1296 C 0.70812 0.2174 0.63835 0.0
C1297 C 0.67608 0.16942 0.64629 0.0
C1298 C 0.65574 0.1337 0.64665 0.0
C1299 C 0.71109 0.23672 0.64591 0.0
C1300 C 0.69662 0.22223 0.65384 0.0
C1301 C 0.67965 0.18873 0.65394 0.0
C1302 C 0.69489 0.24131 0.66155 0.0
C1303 C 0.72826 0.27249 0.64515 0.0
C1304 C 0.72157 0.26652 0.666 0.0
C1305 C 0.71925 0.28826 0.67187 0.0
C1306 C 0.69021 0.28484 0.67338 0.0
C1307 C 0.66355 0.2578 0.66964 0.0
C1308 C 0.66584 0.23626 0.66381 0.0
H1309 H 0.73282 0.27941 0.6381 0.0
H1310 H 0.71498 0.283 0.64801 0.0
H1311 H 0.75086 0.28306 0.64893 0.0
H1312 H 0.74423 0.2705 0.66451 0.0
H1313 H 0.74017 0.30911 0.67458 0.0
H1314 H 0.43333 0.08018 0.12833 0.0
H1315 H 0.46394 0.11802 0.14073 0.0
H1316 H 0.51418 0.19044 0.12199 0.0
H1317 H 0.48351 0.15298 0.10957 0.0
H1318 H 0.52729 0.15172 0.14469 0.0
H1319 H 0.48425 0.23519 0.13897 0.0
H1320 H 0.4658 0.19551 0.13376 0.0
H1321 H 0.50003 0.22737 0.12926 0.0
C1322 C 0.45094 0.10412 0.12683 0.0
C1323 C 0.4558 0.11351 0.11793 0.0
C1324 C 0.46841 0.12575 0.13394 0.0
C1325 C 0.49094 0.15729 0.13232 0.0
C1326 C 0.49643 0.16648 0.12343 0.0
H1327 H 0.63108 0.32601 0.1604 0.0
H1328 H 0.59168 0.28489 0.15016 0.0
C1329 C 0.47901 0.1449 0.11632 0.0
C1330 C 0.50897 0.18053 0.13989 0.0
H1331 H 0.5283 0.25393 0.14902 0.0
C1332 C 0.52726 0.17391 0.14571 0.0
C1333 C 0.5088 0.20942 0.14125 0.0
C1334 C 0.48844 0.21723 0.13554 0.0
C1335 C 0.54643 0.19601 0.15259 0.0
C1336 C 0.54689 0.22531 0.1538 0.0
C1337 C 0.52794 0.2315 0.14812 0.0
C1338 C 0.56885 0.251 0.16035 0.0
C1339 C 0.56706 0.18839 0.15824 0.0
C1340 C 0.56855 0.24626 0.1696 0.0
C1341 C 0.59131 0.26994 0.17552 0.0
C1342 C 0.61469 0.29867 0.17226 0.0
C1343 C 0.61374 0.30396 0.1631 0.0
C1344 C 0.59111 0.28046 0.15723 0.0
H1345 H 0.56863 0.16805 0.15528 0.0
H1346 H 0.59074 0.20946 0.15911 0.0
H1347 H 0.55754 0.18188 0.16496 0.0
H1348 H 0.55116 0.224 0.1722 0.0
H1349 H 0.59144 0.26518 0.18254 0.0
H1350 H 0.92808 0.33825 0.12595 0.0
H1351 H 0.89443 0.32277 0.13874 0.0
H1352 H 0.84874 0.37042 0.12787 0.0
H1353 H 0.88184 0.38568 0.11513 0.0
H1354 H 0.88412 0.36863 0.15117 0.0
H1355 H 0.7796 0.27399 0.13227 0.0
H1356 H 0.81836 0.28733 0.12879 0.0
H1357 H 0.80066 0.31099 0.12677 0.0
C1358 C 0.91076 0.34527 0.12627 0.0
C1359 C 0.90771 0.36327 0.11951 0.0
C1360 C 0.89171 0.33657 0.1336 0.0
C1361 C 0.86903 0.34532 0.13421 0.0
C1362 C 0.86603 0.36332 0.1275 0.0
H1363 H 0.72909 0.34744 0.16071 0.0
H1364 H 0.76622 0.34484 0.15142 0.0
C1365 C 0.88514 0.37222 0.12025 0.0
C1366 C 0.8481 0.33579 0.14176 0.0
H1367 H 0.77156 0.29345 0.1461 0.0
C1368 C 0.85958 0.35166 0.15017 0.0
C1369 C 0.8162 0.31357 0.14042 0.0
C1370 C 0.80288 0.29522 0.1316 0.0
C1371 C 0.83952 0.34764 0.15707 0.0
C1372 C 0.80729 0.32681 0.15553 0.0
C1373 C 0.79624 0.30937 0.1473 0.0
C1374 C 0.78425 0.32693 0.16158 0.0
C1375 C 0.85268 0.3673 0.16571 0.0
C1376 C 0.78161 0.31748 0.17048 0.0
C1377 C 0.75978 0.31886 0.17594 0.0
C1378 C 0.74018 0.32942 0.17252 0.0
C1379 C 0.74296 0.33844 0.16359 0.0
C1380 C 0.76454 0.33717 0.15822 0.0
H1381 H 0.87769 0.38511 0.16542 0.0
H1382 H 0.8401 0.38004 0.16736 0.0
H1383 H 0.84974 0.35129 0.17121 0.0
H1384 H 0.79635 0.30909 0.17319 0.0
H1385 H 0.75839 0.31192 0.1828 0.0
H1386 H 0.73412 0.60007 0.11792 0.0
H1387 H 0.74772 0.57855 0.13073 0.0
H1388 H 0.65129 0.52143 0.13629 0.0
H1389 H 0.63762 0.54372 0.12379 0.0
H1390 H 0.6877 0.54778 0.15166 0.0
H1391 H 0.73545 0.48936 0.13013 0.0
H1392 H 0.75337 0.53182 0.12934 0.0
H1393 H 0.71363 0.50643 0.12557 0.0
C1394 C 0.7158 0.58326 0.12192 0.0
C1395 C 0.68466 0.57338 0.11969 0.0
C1396 C 0.72362 0.57072 0.12921 0.0
C1397 C 0.7005 0.54787 0.13439 0.0
C1398 C 0.66957 0.53885 0.13237 0.0
H1399 H 0.6786 0.39243 0.16235 0.0
H1400 H 0.68253 0.43316 0.15268 0.0
C1401 C 0.66175 0.55142 0.12513 0.0
C1402 C 0.708 0.53221 0.14168 0.0
H1403 H 0.73519 0.48141 0.14549 0.0
C1404 C 0.69847 0.53359 0.15035 0.0
C1405 C 0.7219 0.51354 0.13996 0.0
C1406 C 0.73148 0.50987 0.13074 0.0
C1407 C 0.70143 0.51596 0.15723 0.0
C1408 C 0.71465 0.49672 0.15544 0.0
C1409 C 0.72534 0.49642 0.14688 0.0
C1410 C 0.71306 0.4728 0.16176 0.0
C1411 C 0.68887 0.51663 0.16622 0.0
C1412 C 0.72884 0.48134 0.17022 0.0
C1413 C 0.72682 0.45761 0.17586 0.0
C1414 C 0.70928 0.42516 0.17305 0.0
C1415 C 0.69328 0.41706 0.16465 0.0
C1416 C 0.69524 0.44045 0.15909 0.0
H1417 H 0.67581 0.52953 0.16617 0.0
H1418 H 0.67342 0.49195 0.16831 0.0
H1419 H 0.70834 0.52876 0.17128 0.0
H1420 H 0.74293 0.50622 0.1724 0.0
H1421 H 0.73921 0.4646 0.18232 0.0
H1422 H 0.48671 0.19391 0.06684 0.0
H1423 H 0.51611 0.20993 0.05337 0.0
H1424 H 0.47051 0.11159 0.04355 0.0
H1425 H 0.44173 0.09535 0.05727 0.0
H1426 H 0.52847 0.13832 0.04034 0.0
H1427 H 0.48985 0.22023 0.02918 0.0
H1428 H 0.50649 0.23212 0.04033 0.0
H1429 H 0.47196 0.19377 0.03814 0.0
C1430 C 0.48267 0.17573 0.06177 0.0
C1431 C 0.46165 0.14341 0.06307 0.0
C1432 C 0.49938 0.18493 0.05402 0.0
C1433 C 0.49491 0.16213 0.04727 0.0
C1434 C 0.47417 0.12971 0.0486 0.0
H1435 H 0.59999 0.26235 1.00144 0.0
H1436 H 0.55495 0.21997 1.00857 0.0
C1437 C 0.45778 0.12043 0.05644 0.0
C1438 C 0.51302 0.17229 0.03905 0.0
H1439 H 0.53893 0.22999 0.02373 0.0
C1440 C 0.53027 0.15797 0.03659 0.0
C1441 C 0.51475 0.19717 0.03391 0.0
C1442 C 0.49444 0.21138 0.03547 0.0
C1443 C 0.55084 0.16943 0.02961 0.0
C1444 C 0.55517 0.19668 0.02516 0.0
C1445 C 0.53618 0.20941 0.02718 0.0
C1446 C 0.58174 0.21502 0.01936 0.0
C1447 C 0.56793 0.1523 0.02718 0.0
C1448 C 0.61187 0.22509 0.0227 0.0
C1449 C 0.63741 0.24862 0.01853 0.0
C1450 C 0.63352 0.26315 0.01101 0.0
C1451 C 0.60368 0.25111 1.00712 0.0
C1452 C 0.57792 0.22722 0.01129 0.0
H1453 H 0.55315 0.12622 0.02799 0.0
H1454 H 0.57541 0.15623 0.02019 0.0
H1455 H 0.58859 0.16097 0.03179 0.0
H1456 H 0.61577 0.21701 0.02901 0.0
H1457 H 0.66015 0.25783 0.02174 0.0
H1458 H 0.86325 0.31166 0.07417 0.0
H1459 H 0.84252 0.31962 0.06015 0.0
H1460 H 0.93522 0.37878 0.05148 0.0
H1461 H 0.95604 0.36977 0.06534 0.0
H1462 H 0.84882 0.37246 0.05467 0.0
H1463 H 0.89583 0.32664 0.02893 0.0
H1464 H 0.89739 0.31956 0.04065 0.0
H1465 H 0.92542 0.35702 0.03632 0.0
C1466 C 0.87922 0.32582 0.0692 0.0
C1467 C 0.91129 0.33991 0.07087 0.0
C1468 C 0.86734 0.33046 0.06118 0.0
C1469 C 0.88721 0.34957 0.05466 0.0
C1470 C 0.91928 0.36324 0.05625 0.0
H1471 H 0.80961 0.42946 0.0177 0.0
H1472 H 0.84766 0.42637 0.02759 0.0
C1473 C 0.93119 0.35818 0.06422 0.0
C1474 C 0.87423 0.35705 0.0466 0.0
H1475 H 0.87254 0.356 0.02371 0.0
C1476 C 0.85404 0.36879 0.0479 0.0
C1477 C 0.88075 0.3521 0.03774 0.0
C1478 C 0.90078 0.33784 0.0358 0.0
C1479 C 0.84001 0.37539 0.04068 0.0
C1480 C 0.84728 0.37145 0.03182 0.0
C1481 C 0.86748 0.35971 0.03048 0.0
C1482 C 0.83193 0.37691 0.02393 0.0
C1483 C 0.81652 0.38527 0.04266 0.0
C1484 C 0.81295 0.35143 0.01783 0.0
C1485 C 0.79212 0.35371 0.01189 0.0
C1486 C 0.78974 0.38136 0.01202 0.0
C1487 C 0.81136 0.40811 0.01733 0.0
C1488 C 0.83262 0.40606 0.02314 0.0
H1489 H 0.80779 0.37906 0.04948 0.0
H1490 H 0.82748 0.41152 0.04225 0.0
H1491 H 0.79646 0.37368 0.03776 0.0
H1492 H 0.81211 0.32876 0.01824 0.0
H1493 H 0.77522 0.33246 1.00804 0.0
H1494 H 0.74452 0.58673 0.07418 0.0
H1495 H 0.73709 0.55563 0.06027 0.0
H1496 H 0.66314 0.57128 0.05163 0.0
H1497 H 0.67123 0.60341 0.06537 0.0
H1498 H 0.68865 0.50165 0.05489 0.0
H1499 H 0.70854 0.5887 0.02907 0.0
H1500 H 0.71844 0.60042 0.04077 0.0
H1501 H 0.67916 0.58388 0.0365 0.0
C1502 C 0.72701 0.58401 0.06926 0.0
C1503 C 0.70856 0.59768 0.07089 0.0
C1504 C 0.72274 0.56616 0.0613 0.0
C1505 C 0.69979 0.56134 0.05481 0.0
C1506 C 0.68156 0.57529 0.05638 0.0
H1507 H 0.62945 0.39575 0.01804 0.0
H1508 H 0.63074 0.4376 0.02786 0.0
C1509 C 0.68609 0.59351 0.0643 0.0
C1510 C 0.69356 0.53973 0.04677 0.0
H1511 H 0.68654 0.53427 0.02389 0.0
C1512 C 0.68827 0.5089 0.04812 0.0
C1513 C 0.69328 0.54914 0.03791 0.0
C1514 C 0.70047 0.58245 0.03595 0.0
C1515 C 0.68273 0.4873 0.04092 0.0
C1516 C 0.68137 0.49626 0.03206 0.0
C1517 C 0.68691 0.52717 0.03067 0.0
C1518 C 0.67616 0.47423 0.02423 0.0
C1519 C 0.67934 0.45536 0.04288 0.0
C1520 C 0.69984 0.48174 0.01828 0.0
C1521 C 0.69861 0.45801 0.01244 0.0
C1522 C 0.67377 0.42649 0.01251 0.0
C1523 C 0.64852 0.42 0.01771 0.0
C1524 C 0.64955 0.44378 0.02345 0.0
H1525 H 0.6886 0.4554 0.04971 0.0
H1526 H 0.65447 0.4368 0.04243 0.0
H1527 H 0.69154 0.44859 0.03798 0.0
H1528 H 0.72055 0.50508 0.01874 0.0
H1529 H 0.71873 0.46343 1.00869 0.0
H1530 H 0.53442 0.89827 0.9089 0.0
H1531 H 0.51297 0.87122 0.89432 0.0
H1532 H 0.59985 0.93302 0.88259 0.0
H1533 H 0.62188 0.95988 0.89728 0.0
H1534 H 0.50458 0.89168 0.87842 0.0
H1535 H 0.58553 0.84555 0.87509 0.0
H1536 H 0.58239 0.86342 0.88543 0.0
H1537 H 0.60331 0.88816 0.87649 0.0
C1538 C 0.54902 0.90633 0.90323 0.0
C1539 C 0.57997 0.93119 0.9043 0.0
C1540 C 0.53666 0.8908 0.89488 0.0
C1541 C 0.5549 0.89965 0.88737 0.0
C1542 C 0.5855 0.92526 0.88832 0.0
H1543 H 0.44632 0.79982 0.83744 0.0
H1544 H 0.48761 0.84455 0.84666 0.0
C1545 C 0.59797 0.9408 0.89671 0.0
C1546 C 0.54161 0.88139 0.87867 0.0
H1547 H 0.54716 0.83042 0.86362 0.0
C1548 C 0.51412 0.87863 0.8751 0.0
C1549 C 0.55396 0.86418 0.87438 0.0
C1550 C 0.58277 0.86516 0.87805 0.0
C1551 C 0.49797 0.85822 0.86761 0.0
C1552 C 0.51001 0.84055 0.8634 0.0
C1553 C 0.53815 0.84427 0.86676 0.0
C1554 C 0.49139 0.81459 0.85648 0.0
C1555 C 0.46717 0.85432 0.86464 0.0
C1556 C 0.48183 0.78296 0.85848 0.0
C1557 C 0.45884 0.7576 0.85315 0.0
C1558 C 0.44498 0.76325 0.84568 0.0
C1559 C 0.45691 0.79477 0.84308 0.0
C1560 C 0.48007 0.82034 0.84845 0.0
H1561 H 0.45867 0.86521 0.8696 0.0
H1562 H 0.46955 0.86615 0.85824 0.0
H1563 H 0.44946 0.82867 0.86354 0.0
H1564 H 0.49027 0.7778 0.86458 0.0
H1565 H 0.44986 0.73353 0.85534 0.0
H1566 H 0.10317 0.70592 0.89055 0.0
H1567 H 0.13206 0.71815 0.87684 0.0
H1568 H 0.17617 0.6666 0.88598 0.0
H1569 H 0.14682 0.65364 0.89947 0.0
H1570 H 0.19059 0.75062 0.87369 0.0
H1571 H 0.14878 0.62686 0.86154 0.0
H1572 H 0.13144 0.63619 0.87066 0.0
H1573 H 0.16545 0.63302 0.87266 0.0
C1574 C 0.11892 0.69709 0.88959 0.0
C1575 C 0.12235 0.6784 0.89604 0.0
C1576 C 0.13539 0.70403 0.88174 0.0
C1577 C 0.15574 0.69257 0.88022 0.0
C1578 C 0.15976 0.67468 0.88679 0.0
H1579 H 0.31934 0.76247 0.85319 0.0
H1580 H 0.27654 0.75929 0.86121 0.0
C1581 C 0.14304 0.66738 0.89454 0.0
C1582 C 0.17377 0.70019 0.87197 0.0
H1583 H 0.19763 0.66687 0.856 0.0
C1584 C 0.19168 0.73222 0.86972 0.0
C1585 C 0.17464 0.67628 0.86655 0.0
C1586 C 0.15373 0.64117 0.86792 0.0
C1587 C 0.21191 0.74109 0.86264 0.0
C1588 C 0.21516 0.71746 0.85784 0.0
C1589 C 0.19567 0.68525 0.8597 0.0
C1590 C 0.24088 0.7255 0.85169 0.0
C1591 C 0.22969 0.7758 0.86046 0.0
C1592 C 0.23563 0.70844 0.84344 0.0
C1593 C 0.26046 0.71016 0.83883 0.0
C1594 C 0.29085 0.72893 0.84243 0.0
C1595 C 0.29619 0.74839 0.85016 0.0
C1596 C 0.27154 0.7465 0.85478 0.0
H1597 H 0.21574 0.78738 0.86167 0.0
H1598 H 0.25085 0.78839 0.86492 0.0
H1599 H 0.23646 0.77887 0.8534 0.0
H1600 H 0.21223 0.69197 0.84091 0.0
H1601 H 0.25562 0.69428 0.83302 0.0
H1602 H 0.41048 0.50142 0.891 0.0
H1603 H 0.39618 0.51992 0.87766 0.0
H1604 H 0.30012 0.46498 0.88379 0.0
H1605 H 0.31427 0.44679 0.89727 0.0
H1606 H 0.35316 0.4841 0.86242 0.0
H1607 H 0.31875 0.55864 0.88238 0.0
H1608 H 0.3421 0.54357 0.88715 0.0
H1609 H 0.30127 0.5174 0.88505 0.0
C1610 C 0.38631 0.4933 0.88954 0.0
C1611 C 0.36358 0.47286 0.89529 0.0
C1612 C 0.37815 0.5037 0.88186 0.0
C1613 C 0.34713 0.49408 0.87978 0.0
C1614 C 0.32425 0.47293 0.88532 0.0
H1615 H 0.27916 0.58464 0.84391 0.0
H1616 H 0.27826 0.54224 0.85259 0.0
C1617 C 0.33237 0.46238 0.893 0.0
C1618 C 0.33907 0.50747 0.87203 0.0
H1619 H 0.31416 0.55904 0.8668 0.0
C1620 C 0.34438 0.5003 0.86335 0.0
C1621 C 0.32757 0.52852 0.87325 0.0
C1622 C 0.32223 0.53778 0.88245 0.0
C1623 C 0.33855 0.5137 0.85584 0.0
C1624 C 0.32786 0.53551 0.85708 0.0
C1625 C 0.32205 0.54213 0.86578 0.0
C1626 C 0.32479 0.55391 0.84967 0.0
C1627 C 0.34368 0.50407 0.84668 0.0
C1628 C 0.35032 0.57321 0.84458 0.0
C1629 C 0.35034 0.59675 0.83936 0.0
C1630 C 0.32515 0.60189 0.83928 0.0
C1631 C 0.29852 0.5806 0.84364 0.0
C1632 C 0.29826 0.55672 0.84874 0.0
H1633 H 0.34021 0.47958 0.84654 0.0
H1634 H 0.32789 0.50496 0.8415 0.0
H1635 H 0.3679 0.52061 0.84496 0.0
H1636 H 0.3714 0.57228 0.84531 0.0
H1637 H 0.37158 0.61353 0.83633 0.0
H1638 H 0.60446 0.95373 0.96006 0.0
H1639 H 0.57594 0.9369 0.97382 0.0
H1640 H 0.52019 0.84149 0.96208 0.0
H1641 H 0.54883 0.85796 0.94848 0.0
H1642 H 0.51678 0.9133 0.97754 0.0
H1643 H 0.54868 0.82275 0.9851 0.0
H1644 H 0.56723 0.85141 0.97666 0.0
H1645 H 0.53092 0.81521 0.97408 0.0
C1646 C 0.5861 0.92919 0.96043 0.0
C1647 C 0.57925 0.90706 0.95322 0.0
C1648 C 0.56986 0.91957 0.9683 0.0
C1649 C 0.54646 0.88767 0.96911 0.0
C1650 C 0.53888 0.86593 0.96178 0.0
H1651 H 0.38621 0.79506 0.99779 0.0
H1652 H 0.42918 0.83534 0.98987 0.0
C1653 C 0.55524 0.87541 0.95398 0.0
C1654 C 0.52938 0.87691 0.97748 0.0
H1655 H 0.50319 0.81664 0.992 0.0
C1656 C 0.51423 0.89249 0.9808 0.0
C1657 C 0.52669 0.85035 0.98195 0.0
C1658 C 0.54457 0.83423 0.97932 0.0
C1659 C 0.49488 0.88093 0.98807 0.0
C1660 C 0.48982 0.85251 0.99198 0.0
C1661 C 0.50662 0.83823 0.98902 0.0
C1662 C 0.46478 0.83491 0.99831 0.0
C1663 C 0.47991 0.89927 0.9914 0.0
C1664 C 0.47006 0.82168 1.00596 0.0
C1665 C 0.44515 0.79826 0.0105 0.0
C1666 C 0.41464 0.78776 1.00746 0.0
C1667 C 0.40953 0.80333 1.00042 0.0
C1668 C 0.43425 0.82644 0.99585 0.0
H1669 H 0.49527 0.92528 0.99063 0.0
H1670 H 0.45827 0.89168 0.98734 0.0
H1671 H 0.47431 0.89519 0.99854 0.0
H1672 H 0.49335 0.82766 1.00799 0.0
H1673 H 0.44973 0.78603 0.01575 0.0
H1674 H 0.14368 0.6967 0.94341 0.0
H1675 H 0.17097 0.6895 0.95612 0.0
H1676 H 0.11629 0.70842 0.97433 0.0
H1677 H 0.08855 0.71514 0.96167 0.0
H1678 H 0.20603 0.73006 0.97019 0.0
H1679 H 0.10373 0.62403 0.98278 0.0
H1680 H 0.10341 0.639 0.97189 0.0
H1681 H 0.09929 0.65829 0.98175 0.0
C1682 C 0.13754 0.69951 0.95011 0.0
C1683 C 0.11379 0.70642 0.95149 0.0
C1684 C 0.15313 0.6953 0.95738 0.0
C1685 C 0.14529 0.69776 0.96619 0.0
C1686 C 0.12225 0.70559 0.9676 0.0
H1687 H 0.26631 0.71725 0.01199 0.0
H1688 H 0.22709 0.72124 1.00286 0.0
C1689 C 0.10659 0.70973 0.96034 0.0
C1690 C 0.16153 0.69252 0.97388 0.0
H1691 H 0.15038 0.6456 0.99168 0.0
C1692 C 0.19382 0.71168 0.9749 0.0
C1693 C 0.14564 0.6683 0.97999 0.0
C1694 C 0.11114 0.646 0.97903 0.0
C1695 C 0.2106 0.70739 0.98186 0.0
C1696 C 0.1947 0.68353 0.98805 0.0
C1697 C 0.16244 0.66422 0.98702 0.0
C1698 C 0.21183 0.67704 0.99518 0.0
C1699 C 0.2454 0.72787 0.98238 0.0
C1700 C 0.21461 0.64974 0.99434 0.0
C1701 C 0.23675 0.64729 0.99963 0.0
C1702 C 0.25621 0.67189 1.0059 0.0
C1703 C 0.25099 0.69746 1.00741 0.0
C1704 C 0.22897 0.70004 1.00208 0.0
H1705 H 0.25443 0.74133 0.97624 0.0
H1706 H 0.25269 0.74532 0.98816 0.0
H1707 H 0.25618 0.71297 0.98343 0.0
H1708 H 0.20168 0.63174 0.98906 0.0
H1709 H 0.24092 0.62784 0.99814 0.0
H1710 H 0.32213 0.48562 0.9399 0.0
H1711 H 0.32959 0.51612 0.95391 0.0
H1712 H 0.37761 0.47255 0.96592 0.0
H1713 H 0.36937 0.4411 0.95197 0.0
H1714 H 0.34073 0.47788 0.97764 0.0
H1715 H 0.40958 0.59378 0.96218 0.0
H1716 H 0.37216 0.57056 0.95663 0.0
H1717 H 0.3992 0.55638 0.95641 0.0
C1718 C 0.33411 0.48232 0.94553 0.0
C1719 C 0.34533 0.46106 0.94477 0.0
C1720 C 0.3386 0.50002 0.95353 0.0
C1721 C 0.35497 0.49739 0.96091 0.0
C1722 C 0.36518 0.47527 0.9603 0.0
H1723 H 0.41516 0.65166 1.00169 0.0
H1724 H 0.41796 0.61177 0.99196 0.0
C1725 C 0.3604 0.45725 0.95231 0.0
C1726 C 0.36156 0.51798 0.96919 0.0
H1727 H 0.39025 0.59547 0.97649 0.0
C1728 C 0.3519 0.50363 0.97741 0.0
C1729 C 0.37691 0.55169 0.969 0.0
C1730 C 0.39037 0.56902 0.96059 0.0
C1731 C 0.3558 0.52192 0.98532 0.0
C1732 C 0.36902 0.55544 0.98498 0.0
C1733 C 0.37993 0.56982 0.97682 0.0
C1734 C 0.36957 0.57595 0.99269 0.0
C1735 C 0.34575 0.50501 0.99395 0.0
C1736 C 0.34195 0.56867 0.99676 0.0
C1737 C 0.34066 0.59114 1.0025 0.0
C1738 C 0.36679 0.6215 1.00422 0.0
C1739 C 0.39497 0.62805 1.00072 0.0
C1740 C 0.39639 0.6054 0.99504 0.0
H1741 H 0.34802 0.48339 0.99385 0.0
H1742 H 0.35951 0.5208 0.99981 0.0
H1743 H 0.321 0.49709 0.99476 0.0
H1744 H 0.32068 0.54674 0.9949 0.0
H1745 H 0.3184 0.58596 1.00485 0.0
H1746 H 0.09051 0.44641 0.45321 0.0
H1747 H 0.11307 0.47802 0.46725 0.0
H1748 H 0.20454 0.51124 0.45791 0.0
H1749 H 0.18222 0.48053 0.44377 0.0
H1750 H 0.15219 0.4804 0.48064 0.0
H1751 H 0.20701 0.59419 0.4634 0.0
H1752 H 0.1791 0.55683 0.45779 0.0
H1753 H 0.21899 0.56733 0.45924 0.0
C1754 C 0.11545 0.46026 0.45416 0.0
C1755 C 0.13457 0.46122 0.44731 0.0
C1756 C 0.1283 0.47833 0.4622 0.0
C1757 C 0.1605 0.49764 0.46356 0.0
C1758 C 0.17962 0.49726 0.45692 0.0
H1759 H 0.27944 0.59103 0.50979 0.0
H1760 H 0.2384 0.54969 0.49996 0.0
C1761 C 0.16681 0.4795 0.44886 0.0
C1762 C 0.17419 0.51902 0.47174 0.0
H1763 H 0.22398 0.59658 0.47854 0.0
C1764 C 0.16766 0.50588 0.4802 0.0
C1765 C 0.19376 0.55239 0.47121 0.0
C1766 C 0.19987 0.56858 0.46243 0.0
C1767 C 0.18115 0.52502 0.48811 0.0
C1768 C 0.20225 0.55811 0.48753 0.0
C1769 C 0.20788 0.57127 0.47907 0.0
C1770 C 0.22053 0.57956 0.49542 0.0
C1771 C 0.17241 0.50954 0.49697 0.0
C1772 C 0.22352 0.60988 0.49654 0.0
C1773 C 0.24737 0.6337 0.5021 0.0
C1774 C 0.26836 0.62751 0.50674 0.0
C1775 C 0.263 0.59617 0.50651 0.0
C1776 C 0.23954 0.57248 0.50081 0.0
H1777 H 0.14864 0.48848 0.49651 0.0
H1778 H 0.18849 0.50103 0.49888 0.0
H1779 H 0.17369 0.52651 0.50232 0.0
H1780 H 0.20918 0.61603 0.4925 0.0
H1781 H 0.25147 0.65784 0.50198 0.0
H1782 H 0.57963 0.66 0.45663 0.0
H1783 H 0.54699 0.64709 0.46952 0.0
H1784 H 0.52726 0.72138 0.46325 0.0
H1785 H 0.55947 0.73426 0.45038 0.0
H1786 H 0.54339 0.72275 0.4812 0.0
H1787 H 0.45232 0.60067 0.46915 0.0
H1788 H 0.49133 0.60819 0.46954 0.0
H1789 H 0.48024 0.62884 0.46186 0.0
C1790 C 0.5681 0.67338 0.45793 0.0
C1791 C 0.57231 0.69824 0.45243 0.0
C1792 C 0.54944 0.66596 0.46531 0.0
C1793 C 0.53445 0.68308 0.46731 0.0
C1794 C 0.53866 0.70788 0.46186 0.0
H1795 H 0.38058 0.65639 0.49529 0.0
H1796 H 0.41751 0.6557 0.48518 0.0
C1797 C 0.55725 0.71532 0.4545 0.0
C1798 C 0.51455 0.67572 0.4751 0.0
H1799 H 0.44596 0.61933 0.48314 0.0
C1800 C 0.52227 0.7 0.4817 0.0
C1801 C 0.48692 0.64607 0.4757 0.0
C1802 C 0.47694 0.61945 0.46867 0.0
C1803 C 0.50269 0.69584 0.48871 0.0
C1804 C 0.4748 0.66638 0.48924 0.0
C1805 C 0.46752 0.64175 0.48279 0.0
C1806 C 0.45107 0.66229 0.49566 0.0
C1807 C 0.51124 0.72362 0.49523 0.0
C1808 C 0.45702 0.66487 0.50497 0.0
C1809 C 0.43572 0.66523 0.51083 0.0
C1810 C 0.4083 0.6631 0.50741 0.0
C1811 C 0.40165 0.65843 0.49812 0.0
C1812 C 0.42273 0.65794 0.49232 0.0
H1813 H 0.53088 0.74623 0.493 0.0
H1814 H 0.49117 0.72706 0.49613 0.0
H1815 H 0.51808 0.71861 0.50183 0.0
H1816 H 0.47855 0.66772 0.5077 0.0
H1817 H 0.44147 0.66892 0.51795 0.0
H1818 H 0.30552 0.85512 0.4523 0.0
H1819 H 0.31893 0.8337 0.46513 0.0
H1820 H 0.39996 0.92555 0.47129 0.0
H1821 H 0.38656 0.94745 0.45846 0.0
H1822 H 0.38745 0.84318 0.4679 0.0
H1823 H 0.3429 0.88742 0.49514 0.0
H1824 H 0.32502 0.8783 0.48399 0.0
H1825 H 0.36285 0.91235 0.48605 0.0
C1826 C 0.32599 0.87095 0.45642 0.0
C1827 C 0.3449 0.90307 0.45434 0.0
C1828 C 0.33369 0.8586 0.46374 0.0
C1829 C 0.3603 0.8781 0.46917 0.0
C1830 C 0.37924 0.91019 0.46718 0.0
H1831 H 0.41125 0.80435 0.51663 0.0
H1832 H 0.41125 0.84346 0.50635 0.0
C1833 C 0.37165 0.92257 0.45982 0.0
C1834 C 0.3686 0.86417 0.47668 0.0
H1835 H 0.35928 0.85122 0.499 0.0
C1836 C 0.3818 0.84536 0.47473 0.0
C1837 C 0.36138 0.86728 0.48558 0.0
C1838 C 0.34723 0.8874 0.4879 0.0
C1839 C 0.38692 0.82855 0.4814 0.0
C1840 C 0.37799 0.83005 0.49021 0.0
C1841 C 0.36616 0.85014 0.49226 0.0
C1842 C 0.37701 0.80764 0.49692 0.0
C1843 C 0.40108 0.80853 0.4789 0.0
C1844 C 0.35704 0.77488 0.4952 0.0
C1845 C 0.35707 0.75291 0.50096 0.0
C1846 C 0.37702 0.76302 0.50864 0.0
C1847 C 0.39587 0.79593 0.5107 0.0
C1848 C 0.39591 0.81819 0.50485 0.0
H1849 H 0.41494 0.81725 0.47287 0.0
H1850 H 0.41612 0.80853 0.48448 0.0
H1851 H 0.38235 0.78355 0.47736 0.0
H1852 H 0.34166 0.76622 0.48927 0.0
H1853 H 0.34134 0.72784 0.49936 0.0
H1854 H 0.115 0.51446 0.39421 0.0
H1855 H 0.14608 0.5323 0.38107 0.0
H1856 H 0.17904 0.46714 0.38594 0.0
H1857 H 0.14815 0.44924 0.39915 0.0
H1858 H 0.20879 0.56113 0.38101 0.0
H1859 H 0.15564 0.45038 0.35924 0.0
H1860 H 0.13693 0.45518 0.36882 0.0
H1861 H 0.16711 0.44575 0.37031 0.0
C1862 C 0.12879 0.50383 0.39252 0.0
C1863 C 0.12906 0.48045 0.39781 0.0
C1864 C 0.14641 0.51393 0.38494 0.0
C1865 C 0.16458 0.50077 0.38243 0.0
C1866 C 0.16463 0.4771 0.38761 0.0
H1867 H 0.32681 0.58697 0.35236 0.0
H1868 H 0.28397 0.54833 0.36087 0.0
C1869 C 0.14697 0.46695 0.3952 0.0
C1870 C 0.18526 0.51373 0.37483 0.0
H1871 H 0.20353 0.49369 0.35473 0.0
C1872 C 0.20741 0.54639 0.37524 0.0
C1873 C 0.18348 0.49449 0.36729 0.0
C1874 C 0.15933 0.45955 0.36632 0.0
C1875 C 0.22813 0.56021 0.36842 0.0
C1876 C 0.22677 0.54093 0.36097 0.0
C1877 C 0.20448 0.50834 0.36046 0.0
C1878 C 0.24939 0.55487 0.3539 0.0
C1879 C 0.25176 0.5954 0.36925 0.0
C1880 C 0.24368 0.56962 0.34674 0.0
C1881 C 0.26816 0.59138 0.34175 0.0
C1882 C 0.29858 0.59884 0.34395 0.0
C1883 C 0.3035 0.58115 0.3504 0.0
C1884 C 0.27908 0.55929 0.35533 0.0
H1885 H 0.24864 0.60744 0.37521 0.0
H1886 H 0.27535 0.5987 0.36976 0.0
H1887 H 0.25023 0.60728 0.36318 0.0
H1888 H 0.22093 0.5667 0.3456 0.0
H1889 H 0.26385 0.60525 0.33698 0.0
H1890 H 0.52912 0.66816 0.40791 0.0
H1891 H 0.51079 0.67553 0.39341 0.0
H1892 H 0.59561 0.69312 0.38191 0.0
H1893 H 0.61442 0.68611 0.39649 0.0
H1894 H 0.5796 0.73816 0.37752 0.0
H1895 H 0.47917 0.61682 0.37106 0.0
H1896 H 0.47859 0.63328 0.38187 0.0
H1897 H 0.50933 0.62562 0.37944 0.0
C1898 C 0.54378 0.67313 0.40228 0.0
C1899 C 0.57318 0.67631 0.40338 0.0
C1900 C 0.53317 0.67721 0.39397 0.0
C1901 C 0.5516 0.68441 0.38652 0.0
C1902 C 0.58089 0.68733 0.38754 0.0
H1903 H 0.45051 0.68251 0.33781 0.0
H1904 H 0.48968 0.6769 0.34647 0.0
C1905 C 0.59152 0.68313 0.39588 0.0
C1906 C 0.54064 0.69042 0.37785 0.0
H1907 H 0.47827 0.65868 0.36304 0.0
C1908 C 0.55771 0.72059 0.37425 0.0
C1909 C 0.51241 0.66737 0.37345 0.0
C1910 C 0.49398 0.63385 0.3766 0.0
C1911 C 0.54634 0.72895 0.36672 0.0
C1912 C 0.51687 0.70674 0.36277 0.0
C1913 C 0.50078 0.67591 0.36604 0.0
C1914 C 0.50049 0.71579 0.35603 0.0
C1915 C 0.56584 0.76169 0.36318 0.0
C1916 C 0.49481 0.74067 0.35817 0.0
C1917 C 0.47284 0.74413 0.35315 0.0
C1918 C 0.45587 0.72267 0.34593 0.0
C1919 C 0.4638 0.69991 0.34319 0.0
C1920 C 0.48584 0.69637 0.34824 0.0
H1921 H 0.59086 0.77034 0.36439 0.0
H1922 H 0.56105 0.76187 0.35591 0.0
H1923 H 0.56075 0.77872 0.36676 0.0
H1924 H 0.50509 0.75554 0.36422 0.0
H1925 H 0.46664 0.76136 0.35554 0.0
H1926 H 0.38984 0.98198 0.3911 0.0
H1927 H 0.38198 0.94735 0.37786 0.0
H1928 H 0.33647 0.86455 0.3937 0.0
H1929 H 0.34445 0.89885 0.40698 0.0
H1930 H 0.40103 0.89618 0.37654 0.0
H1931 H 0.27531 0.85137 0.37121 0.0
H1932 H 0.30135 0.88888 0.37717 0.0
H1933 H 0.28906 0.85196 0.38249 0.0
C1934 C 0.37831 0.95642 0.39179 0.0
C1935 C 0.36781 0.94324 0.40012 0.0
C1936 C 0.3738 0.93669 0.38421 0.0
C1937 C 0.35833 0.90342 0.38479 0.0
C1938 C 0.34818 0.89018 0.3931 0.0
H1939 H 0.30155 0.73042 0.35621 0.0
H1940 H 0.30428 0.77552 0.36458 0.0
C1941 C 0.35294 0.90986 0.40069 0.0
C1942 C 0.35305 0.88235 0.37677 0.0
H1943 H 0.2959 0.8249 0.36281 0.0
C1944 C 0.37817 0.88089 0.37342 0.0
C1945 C 0.32319 0.86249 0.37276 0.0
C1946 C 0.2956 0.86374 0.37602 0.0
C1947 C 0.37398 0.85879 0.36646 0.0
C1948 C 0.34388 0.83826 0.36255 0.0
C1949 C 0.31897 0.84073 0.36571 0.0
C1950 C 0.33721 0.81126 0.35613 0.0
C1951 C 0.40157 0.85637 0.36378 0.0
C1952 C 0.35295 0.81595 0.34815 0.0
C1953 C 0.3513 0.78988 0.3433 0.0
C1954 C 0.33365 0.75888 0.34634 0.0
C1955 C 0.31517 0.75406 0.35369 0.0
C1956 C 0.31693 0.77994 0.35853 0.0
H1957 H 0.42148 0.86914 0.3687 0.0
H1958 H 0.3956 0.83104 0.3631 0.0
H1959 H 0.4091 0.86723 0.35723 0.0
H1960 H 0.36805 0.83985 0.346 0.0
H1961 H 0.36606 0.7943 0.33772 0.0
H1962 H 0.26813 0.01678 0.10454 0.0
H1963 H 0.23387 0.02225 0.11476 0.0
H1964 H 0.30961 0.11229 0.12525 0.0
H1965 H 0.34429 0.10706 0.11494 0.0
H1966 H 0.27016 0.07252 0.13868 0.0
H1967 H 0.20287 0.08486 0.11066 0.0
H1968 H 0.20585 0.04959 0.10956 0.0
H1969 H 0.24007 0.08831 0.10926 0.0
C1970 C 0.27762 0.03789 0.10897 0.0
C1971 C 0.30899 0.06174 0.10877 0.0
C1972 C 0.25794 0.04092 0.11485 0.0
C1973 C 0.26895 0.06796 0.12067 0.0
C1974 C 0.30051 0.09126 0.12079 0.0
H1975 H 0.13779 0.11585 0.1421 0.0
H1976 H 0.18493 0.12039 0.13634 0.0
C1977 C 0.32035 0.08821 0.11489 0.0
C1978 C 0.24707 0.07223 0.12631 0.0
H1979 H 0.18133 0.07689 0.12489 0.0
C1980 C 0.25085 0.07375 0.13568 0.0
C1981 C 0.22207 0.07422 0.12242 0.0
C1982 C 0.21755 0.07447 0.11242 0.0
C1983 C 0.22984 0.07637 0.14124 0.0
C1984 C 0.20416 0.07714 0.13733 0.0
C1985 C 0.20088 0.07626 0.12795 0.0
C1986 C 0.18002 0.0786 0.14266 0.0
C1987 C 0.23559 0.07867 0.15123 0.0
C1988 C 0.16222 0.05463 0.14857 0.0
C1989 C 0.13553 0.05256 0.15207 0.0
C1990 C 0.12598 0.07411 0.14962 0.0
C1991 C 0.14495 0.09931 0.14424 0.0
C1992 C 0.17174 0.10166 0.14086 0.0
H1993 H 0.26033 0.08756 0.15306 0.0
H1994 H 0.22862 0.09471 0.15452 0.0
H1995 H 0.22178 0.05456 0.15389 0.0
H1996 H 0.16755 0.03609 0.14994 0.0
H1997 H 0.12085 0.03235 0.15598 0.0
H1998 H 0.00905 0.30372 0.10769 0.0
H1999 H 0.01474 0.2676 0.11769 0.0
H2000 H 0.91647 0.20208 0.1151 0.0
H2001 H 0.91059 0.2377 0.10505 0.0
H2002 H 0.98791 0.24549 0.13414 0.0
H2003 H 0.95137 0.14407 0.10947 0.0
H2004 H 0.96155 0.18356 0.10619 0.0
H2005 H 0.9242 0.15767 0.11047 0.0
C2006 C 0.98867 0.28146 0.10917 0.0
C2007 C 0.95937 0.27357 0.10548 0.0
C2008 C 0.99195 0.26089 0.11492 0.0
C2009 C 0.9661 0.23186 0.11707 0.0
C2010 C 0.93687 0.22398 0.11342 0.0
H2011 H 0.95102 0.07184 0.14686 0.0
H2012 H 0.93739 0.10905 0.14011 0.0
C2013 C 0.93355 0.2445 0.10768 0.0
C2014 C 0.96958 0.21009 0.12325 0.0
H2015 H 0.95904 0.13502 0.12448 0.0
C2016 C 0.98161 0.22133 0.13203 0.0
C2017 C 0.96112 0.17844 0.12054 0.0
C2018 C 0.94909 0.16521 0.11113 0.0
C2019 C 0.9853 0.20183 0.13815 0.0
C2020 C 0.97736 0.17034 0.1354 0.0
C2021 C 0.96491 0.159 0.12665 0.0
C2022 C 0.98402 0.14959 0.14115 0.0
C2023 C 0.99734 0.21511 0.14755 0.0
C2024 C 0.01447 0.16011 0.14429 0.0
C2025 C 0.02207 0.13902 0.14824 0.0
C2026 C 0.99948 0.1069 0.14915 0.0
C2027 C 0.96867 0.09672 0.14652 0.0
C2028 C 0.961 0.11789 0.14254 0.0
H2029 H 0.99186 0.23392 0.14948 0.0
H2030 H 0.98749 0.19612 0.15246 0.0
H2031 H 0.02287 0.22618 0.14793 0.0
H2032 H 0.03288 0.18403 0.1431 0.0
H2033 H 0.04617 0.14718 0.14993 0.0
H2034 H 0.7766 0.70381 0.10953 0.0
H2035 H 0.81936 0.7449 0.11914 0.0
H2036 H 0.80735 0.8176 0.10694 0.0
H2037 H 0.76438 0.77681 0.09746 0.0
H2038 H 0.87458 0.79602 0.11542 0.0
H2039 H 0.80582 0.8388 0.13309 0.0
H2040 H 0.78813 0.80227 0.12621 0.0
H2041 H 0.80237 0.84015 0.12117 0.0
C2042 C 0.78306 0.72855 0.10888 0.0
C2043 C 0.76682 0.73689 0.10273 0.0
C2044 C 0.80753 0.75205 0.1144 0.0
C2045 C 0.81625 0.7844 0.11394 0.0
C2046 C 0.8006 0.7928 0.10764 0.0
H2047 H 0.98461 0.95641 0.12811 0.0
H2048 H 0.94262 0.90614 0.12167 0.0
C2049 C 0.77612 0.76938 0.10214 0.0
C2050 C 0.84207 0.80949 0.11988 0.0
H2051 H 0.86093 0.87289 0.13446 0.0
C2052 C 0.87146 0.81257 0.11966 0.0
C2053 C 0.8381 0.83086 0.12557 0.0
C2054 C 0.80683 0.82769 0.12661 0.0
C2055 C 0.89712 0.83721 0.12461 0.0
C2056 C 0.89354 0.85979 0.12986 0.0
C2057 C 0.86387 0.85582 0.13041 0.0
C2058 C 0.92057 0.88912 0.13416 0.0
C2059 C 0.92794 0.83892 0.12413 0.0
C2060 C 0.92243 0.89671 0.14339 0.0
C2061 C 0.94678 0.92584 0.14716 0.0
C2062 C 0.96937 0.94811 0.14172 0.0
C2063 C 0.96773 0.9399 0.13253 0.0
C2064 C 0.94371 0.91094 0.12882 0.0
H2065 H 0.925 0.81508 0.12246 0.0
H2066 H 0.94115 0.85501 0.11878 0.0
H2067 H 0.94175 0.84843 0.13055 0.0
H2068 H 0.90473 0.88036 0.14765 0.0
H2069 H 0.94713 0.93149 0.15423 0.0
H2070 H 0.10078 0.35745 0.40878 0.0
H2071 H 0.10284 0.32021 0.39777 0.0
H2072 H 0.01356 0.2458 0.40534 0.0
H2073 H 0.01121 0.28263 0.41629 0.0
H2074 H 0.09821 0.25914 0.39988 0.0
H2075 H 1.00239 0.24909 0.37806 0.0
H2076 H 0.02256 0.28075 0.38656 0.0
H2077 H 0.99288 0.24183 0.38956 0.0
C2078 C 0.08167 0.33309 0.40815 0.0
C2079 C 0.05575 0.32313 0.41343 0.0
C2080 C 0.08288 0.31186 0.40184 0.0
C2081 C 0.05812 0.28037 0.40061 0.0
C2082 C 0.03269 0.27015 0.40604 0.0
H2083 H 0.99321 0.10146 0.37549 0.0
H2084 H 1.00356 0.15236 0.38207 0.0
C2085 C 0.03148 0.29125 0.41236 0.0
C2086 C 0.05844 0.25798 0.39367 0.0
H2087 H 0.01621 0.20905 0.37566 0.0
C2088 C 0.08065 0.24855 0.39448 0.0
C2089 C 0.03571 0.24441 0.38657 0.0
C2090 C 0.01219 0.25473 0.38506 0.0
C2091 C 0.07938 0.22428 0.38877 0.0
C2092 C 0.05559 0.2095 0.38195 0.0
C2093 C 0.03448 0.22031 0.38085 0.0
C2094 C 0.04911 0.1797 0.37687 0.0
C2095 C 0.1023 0.21329 0.39045 0.0
C2096 C 0.07077 0.17803 0.37139 0.0
C2097 C 0.06474 0.1485 0.36752 0.0
C2098 C 0.037 0.12043 0.36913 0.0
C2099 C 0.01482 0.1227 0.37415 0.0
C2100 C 0.02074 0.15185 0.37794 0.0
H2101 H 0.1161 0.22373 0.39684 0.0
H2102 H 0.09024 0.18687 0.39062 0.0
H2103 H 0.1185 0.22065 0.38493 0.0
H2104 H 0.09262 0.19932 0.37032 0.0
H2105 H 0.08231 0.14737 0.36374 0.0
H2106 H 0.77851 0.79158 0.41642 0.0
H2107 H 0.81178 0.82623 0.40519 0.0
H2108 H 0.73186 0.80084 0.38785 0.0
H2109 H 0.6981 0.76695 0.39925 0.0
H2110 H 0.82031 0.81347 0.388 0.0
H2111 H 0.77562 0.89762 0.38868 0.0
H2112 H 0.7666 0.86846 0.39703 0.0
H2113 H 0.74723 0.85646 0.38615 0.0
C2114 C 0.7678 0.79353 0.41029 0.0
C2115 C 0.73541 0.77661 0.40885 0.0
C2116 C 0.78698 0.81321 0.40381 0.0
C2117 C 0.77439 0.81659 0.3957 0.0
C2118 C 0.74214 0.79915 0.39411 0.0
H2119 H 0.91429 0.92821 0.35618 0.0
H2120 H 0.86501 0.88521 0.36152 0.0
C2121 C 0.72285 0.77945 0.40062 0.0
C2122 C 0.79536 0.83868 0.38906 0.0
H2123 H 0.81595 0.90885 0.37913 0.0
C2124 C 0.81912 0.8341 0.38595 0.0
C2125 C 0.79391 0.86572 0.38643 0.0
C2126 C 0.76966 0.87265 0.38978 0.0
C2127 C 0.84207 0.85634 0.38059 0.0
C2128 C 0.84099 0.88373 0.37811 0.0
C2129 C 0.81656 0.88767 0.38093 0.0
C2130 C 0.86746 0.91083 0.37388 0.0
C2131 C 0.86828 0.85125 0.37808 0.0
C2132 C 0.88418 0.94008 0.37876 0.0
C2133 C 0.91187 0.96443 0.37571 0.0
C2134 C 0.92346 0.96036 0.36765 0.0
C2135 C 0.90568 0.93208 0.36237 0.0
C2136 C 0.87779 0.9074 0.36548 0.0
H2137 H 0.86827 0.83161 0.38172 0.0
H2138 H 0.8661 0.84506 0.3708 0.0
H2139 H 0.89089 0.8734 0.3795 0.0
H2140 H 0.87676 0.94345 0.38523 0.0
H2141 H 0.92519 0.98595 0.37993 0.0
H2142 H 0.25899 0.94455 0.40373 0.0
H2143 H 0.22061 0.94098 0.39246 0.0
H2144 H 0.24433 0.03734 0.3999 0.0
H2145 H 0.28282 0.04127 0.41096 0.0
H2146 H 0.16875 0.94827 0.39519 0.0
H2147 H 0.24884 0.03883 0.37268 0.0
H2148 H 0.26163 0.02097 0.38093 0.0
H2149 H 0.25563 0.05338 0.38415 0.0
C2150 C 0.2563 0.9651 0.40287 0.0
C2151 C 0.27403 0.99319 0.40828 0.0
C2152 C 0.23424 0.96297 0.39646 0.0
C2153 C 0.22984 0.98904 0.39524 0.0
C2154 C 0.24762 0.01708 0.4006 0.0
H2155 H 0.1148 0.05153 0.375 0.0
H2156 H 0.15547 0.04169 0.38026 0.0
C2157 C 0.26944 0.01916 0.40701 0.0
C2158 C 0.20593 0.98696 0.38867 0.0
H2159 H 0.19592 0.02668 0.37159 0.0
C2160 C 0.17464 0.96489 0.38988 0.0
C2161 C 0.21362 0.00852 0.38171 0.0
C2162 C 0.24679 0.03155 0.37972 0.0
C2163 C 0.15087 0.9654 0.38477 0.0
C2164 C 0.15859 0.98828 0.37817 0.0
C2165 C 0.18992 0.00909 0.37662 0.0
C2166 C 0.13502 0.99448 0.37388 0.0
C2167 C 0.11769 0.94289 0.38686 0.0
C2168 C 0.1103 0.97163 0.36823 0.0
C2169 C 0.08685 0.97742 0.36509 0.0
C2170 C 0.08782 0.006 0.36767 0.0
C2171 C 0.11339 0.02925 0.37293 0.0
C2172 C 0.1367 0.02365 0.37595 0.0
H2173 H 0.11574 0.92929 0.3929 0.0
H2174 H 0.10538 0.9563 0.38793 0.0
H2175 H 0.10582 0.92557 0.38111 0.0
H2176 H 0.10873 0.94908 0.36644 0.0
H2177 H 0.0673 0.95903 0.36109 0.0
H2178 H 0.76877 0.96908 0.92054 0.0
H2179 H 0.80257 0.96606 0.90963 0.0
H2180 H 0.75567 0.98692 0.88866 0.0
H2181 H 0.72191 0.99062 0.89963 0.0
H2182 H 0.78608 0.92524 0.89382 0.0
H2183 H 0.84833 0.05385 0.88611 0.0
H2184 H 0.82601 0.03956 0.89594 0.0
H2185 H 0.80676 0.03282 0.88514 0.0
C2186 C 0.76571 0.97334 0.91363 0.0
C2187 C 0.74271 0.98042 0.91101 0.0
C2188 C 0.78498 0.97136 0.90738 0.0
C2189 C 0.78197 0.97662 0.89833 0.0
C2190 C 0.75874 0.9832 0.89562 0.0
H2191 H 0.92123 0.99789 0.85949 0.0
H2192 H 0.87164 0.98987 0.86476 0.0
C2193 C 0.73926 0.98502 0.9019 0.0
C2194 C 0.80334 0.97507 0.89186 0.0
H2195 H 0.86547 0.02155 0.87945 0.0
C2196 C 0.80317 0.94622 0.89058 0.0
C2197 C 0.82548 1.00231 0.88754 0.0
C2198 C 0.82698 0.03402 0.88875 0.0
C2199 C 0.82509 0.94411 0.88538 0.0
C2200 C 0.84843 0.9718 0.88151 0.0
C2201 C 0.84764 1.00029 0.8824 0.0
C2202 C 0.87601 0.97273 0.87761 0.0
C2203 C 0.82324 0.91223 0.88421 0.0
C2204 C 0.89469 0.96527 0.88297 0.0
C2205 C 0.92264 0.96968 0.87998 0.0
C2206 C 0.93297 0.9819 0.87155 0.0
C2207 C 0.91369 0.98798 0.86595 0.0
C2208 C 0.88552 0.9837 0.869 0.0
H2209 H 0.79901 0.8923 0.88451 0.0
H2210 H 0.83246 0.90991 0.87775 0.0
H2211 H 0.83698 0.90973 0.88973 0.0
H2212 H 0.88846 0.95753 0.8897 0.0
H2213 H 0.93701 0.96498 0.88449 0.0
H2214 H 0.04038 0.75013 0.91118 0.0
H2215 H 0.03425 0.78579 0.90115 0.0
H2216 H 0.13288 0.85014 0.90282 0.0
H2217 H 0.13927 0.81424 0.91263 0.0
H2218 H 0.0469 0.84564 0.90333 0.0
H2219 H 0.11766 0.84108 0.87623 0.0
H2220 H 0.106 0.81414 0.88528 0.0
H2221 H 0.13886 0.8539 0.88681 0.0
C2222 C 0.0608 0.77189 0.90943 0.0
C2223 C 0.09037 0.77918 0.91271 0.0
C2224 C 0.05725 0.79226 0.90366 0.0
C2225 C 0.08314 0.82039 0.90102 0.0
C2226 C 0.11258 0.82815 0.90449 0.0
H2227 H 0.09724 0.99068 0.88166 0.0
H2228 H 0.10518 0.94947 0.88811 0.0
C2229 C 0.11617 0.8077 0.9102 0.0
C2230 C 0.07926 0.8421 0.89489 0.0
H2231 H 0.10484 0.8825 0.87565 0.0
C2232 C 0.05933 0.85334 0.89723 0.0
C2233 C 0.09518 0.85207 0.88684 0.0
C2234 C 0.11537 0.83941 0.88358 0.0
C2235 C 0.05583 0.875 0.89198 0.0
C2236 C 0.07276 0.88599 0.88418 0.0
C2237 C 0.09198 0.87415 0.88165 0.0
C2238 C 0.07209 0.91143 0.87903 0.0
C2239 C 0.03442 0.88661 0.89486 0.0
C2240 C 0.05188 0.90401 0.87148 0.0
C2241 C 0.04762 0.92781 0.86767 0.0
C2242 C 0.06335 0.9592 0.87142 0.0
C2243 C 0.08507 0.96679 0.87857 0.0
C2244 C 0.08949 0.94322 0.8823 0.0
H2245 H 0.0204 0.8733 0.90052 0.0
H2246 H 0.04822 0.91232 0.89696 0.0
H2247 H 0.0186 0.88415 0.88916 0.0
H2248 H 0.0381 0.87954 0.86888 0.0
H2249 H 0.03025 0.92114 0.86229 0.0
H2250 H 0.29626 0.31124 0.91112 0.0
H2251 H 0.25787 0.26624 0.90148 0.0
H2252 H 0.20019 0.30862 0.90063 0.0
H2253 H 0.23858 0.35386 0.91013 0.0
H2254 H 0.19756 0.22243 0.90384 0.0
H2255 H 0.20461 0.29169 0.87428 0.0
H2256 H 0.23263 0.30821 0.8836 0.0
H2257 H 0.19589 0.30615 0.8843 0.0
C2258 C 0.2754 0.31101 0.9089 0.0
C2259 C 0.27065 0.33634 0.9114 0.0
C2260 C 0.25345 0.28523 0.90336 0.0
C2261 C 0.22634 0.28424 0.90015 0.0
C2262 C 0.22123 0.30913 0.90281 0.0
H2263 H 0.05591 0.13148 0.87462 0.0
H2264 H 0.09658 0.18297 0.88138 0.0
C2265 C 0.24315 0.33491 0.90833 0.0
C2266 C 0.20312 0.25685 0.89421 0.0
H2267 H 0.16337 0.23757 0.87387 0.0
C2268 C 0.19028 0.2258 0.89727 0.0
C2269 C 0.19355 0.26109 0.8856 0.0
C2270 C 0.20758 0.29354 0.8817 0.0
C2271 C 0.16784 0.19912 0.89207 0.0
C2272 C 0.15803 0.20343 0.88354 0.0
C2273 C 0.17087 0.23435 0.88042 0.0
C2274 C 0.13425 0.17575 0.87787 0.0
C2275 C 0.15439 0.16635 0.89574 0.0
C2276 C 0.14206 0.15534 0.8733 0.0
C2277 C 0.1189 0.1263 0.86926 0.0
C2278 C 0.08756 0.11713 0.86977 0.0
C2279 C 0.07992 0.13844 0.87389 0.0
C2280 C 0.10311 0.16767 0.87784 0.0
H2281 H 0.16189 0.1673 0.90285 0.0
H2282 H 0.12874 0.15379 0.89519 0.0
H2283 H 0.16183 0.15204 0.89173 0.0
H2284 H 0.16592 0.161 0.8733 0.0
H2285 H 0.12533 0.10982 0.86641 0.0
H2286 H 0.92531 0.72036 0.59897 0.0
H2287 H 0.93174 0.76359 0.60923 0.0
H2288 H 0.01126 0.76647 0.62209 0.0
H2289 H 1.00582 0.72437 0.61156 0.0
H2290 H 0.92802 0.76725 0.62641 0.0
H2291 H 0.04733 0.8587 0.61877 0.0
H2292 H 0.02551 0.822 0.61211 0.0
H2293 H 0.04506 0.82284 0.62249 0.0
C2294 C 0.94444 0.73051 0.60391 0.0
C2295 C 0.96526 0.71912 0.60436 0.0
C2296 C 0.94803 0.75519 0.60981 0.0
C2297 C 0.97235 0.76893 0.61639 0.0
C2298 C 0.99292 0.75721 0.61693 0.0
H2299 H 0.02088 0.92252 0.6576 0.0
H2300 H 0.0118 0.87204 0.6504 0.0
C2301 C 0.98967 0.73292 0.61091 0.0
C2302 C 0.97549 0.79478 0.62279 0.0
H2303 H 0.0259 0.87068 0.63117 0.0
C2304 C 0.94948 0.78984 0.62743 0.0
C2305 C 1.00345 0.82443 0.62418 0.0
C2306 C 0.03181 0.83248 0.61906 0.0
C2307 C 0.9506 0.81356 0.63331 0.0
C2308 C 0.97847 0.84305 0.63467 0.0
C2309 C 1.00465 0.84786 0.63021 0.0
C2310 C 0.9802 0.8704 0.63997 0.0
C2311 C 0.9219 0.80702 0.63801 0.0
C2312 C 0.96488 0.88575 0.63664 0.0
C2313 C 0.97017 0.91446 0.6407 0.0
C2314 C 0.9906 0.92834 0.64824 0.0
C2315 C 1.00445 0.91197 0.65193 0.0
C2316 C 0.99954 0.88336 0.64776 0.0
H2317 H 0.90467 0.78109 0.63792 0.0
H2318 H 0.92775 0.81655 0.64506 0.0
H2319 H 0.91106 0.81918 0.63458 0.0
H2320 H 0.95023 0.87652 0.63058 0.0
H2321 H 0.95962 0.92684 0.63762 0.0
H2322 H 0.34314 0.2686 0.61592 0.0
H2323 H 0.30973 0.22994 0.62659 0.0
H2324 H 0.23048 0.22908 0.61432 0.0
H2325 H 0.26348 0.26742 0.60368 0.0
H2326 H 0.26993 0.23021 0.63914 0.0
H2327 H 0.20436 0.1352 0.61285 0.0
H2328 H 0.23997 0.17119 0.61076 0.0
H2329 H 0.20404 0.17122 0.61071 0.0
C2330 C 0.31865 0.26037 0.61553 0.0
C2331 C 0.30601 0.27084 0.60882 0.0
C2332 C 0.29955 0.23819 0.62163 0.0
C2333 C 0.26745 0.22601 0.62114 0.0
C2334 C 0.25502 0.23739 0.61468 0.0
H2335 H 0.1239 0.12578 0.65808 0.0
H2336 H 0.17071 0.16621 0.65131 0.0
C2337 C 0.27398 0.25936 0.60858 0.0
C2338 C 0.24667 0.20102 0.62722 0.0
H2339 H 0.18221 0.12699 0.62708 0.0
C2340 C 0.25092 0.20747 0.63652 0.0
C2341 C 0.22219 0.17107 0.62385 0.0
C2342 C 0.21752 0.16157 0.614 0.0
C2343 C 0.2307 0.18526 0.64249 0.0
C2344 C 0.20515 0.15603 0.63907 0.0
C2345 C 0.2016 0.14932 0.62978 0.0
C2346 C 0.18095 0.13235 0.64482 0.0
C2347 C 0.23719 0.19334 0.65239 0.0
C2348 C 0.17117 0.0997 0.64367 0.0
C2349 C 0.14412 0.07659 0.64745 0.0
C2350 C 0.12659 0.08561 0.65262 0.0
C2351 C 0.13762 0.11824 0.6544 0.0
C2352 C 0.1644 0.1414 0.65048 0.0
H2353 H 0.26223 0.20996 0.65396 0.0
H2354 H 0.22458 0.20544 0.65463 0.0
H2355 H 0.22958 0.17161 0.65625 0.0
H2356 H 0.18333 0.09193 0.63934 0.0
H2357 H 0.13563 0.0516 0.64576 0.0
H2358 H 0.79215 0.11101 0.61477 0.0
H2359 H 0.8325 0.11485 0.62531 0.0
H2360 H 0.81635 0.02369 0.61497 0.0
H2361 H 0.77654 0.01992 0.60443 0.0
H2362 H 0.83413 0.077 0.63877 0.0
H2363 H 0.90773 0.08135 0.61132 0.0
H2364 H 0.8744 0.08579 0.60948 0.0
H2365 H 0.8698 0.04669 0.6103 0.0
C2366 C 0.79705 0.0917 0.6148 0.0
C2367 C 0.78148 0.06543 0.60864 0.0
C2368 C 0.82014 0.09393 0.62082 0.0
C2369 C 0.828 0.06991 0.62079 0.0
C2370 C 0.81137 0.04297 0.61495 0.0
H2371 H 0.93776 0.029 0.65817 0.0
H2372 H 0.89658 0.03623 0.6515 0.0
C2373 C 0.78858 0.04086 0.60891 0.0
C2374 C 0.8542 0.07321 0.6266 0.0
H2375 H 0.92169 0.0722 0.62575 0.0
C2376 C 0.85346 0.07627 0.63594 0.0
C2377 C 0.87973 0.0728 0.62292 0.0
C2378 C 0.8832 0.07181 0.61295 0.0
C2379 C 0.8771 0.07798 0.64168 0.0
C2380 C 0.90187 0.07597 0.638 0.0
C2381 C 0.9028 0.07365 0.62864 0.0
C2382 C 0.92702 0.07574 0.64355 0.0
C2383 C 0.87543 0.08231 0.65161 0.0
C2384 C 0.95805 0.09587 0.64152 0.0
C2385 C 0.9814 0.09131 0.6452 0.0
C2386 C 0.97442 0.06696 0.65115 0.0
C2387 C 0.94387 0.04853 0.6538 0.0
C2388 C 0.92029 0.05264 0.64995 0.0
H2389 H 0.86169 0.09393 0.6531 0.0
H2390 H 0.86383 0.05854 0.65457 0.0
H2391 H 0.89883 0.09689 0.6549 0.0
H2392 H 0.96401 0.11389 0.63663 0.0
H2393 H 1.00467 0.10548 0.64294 0.0
H2394 H 1.00112 0.44018 0.44659 0.0
H2395 H 0.96572 0.44405 0.45684 0.0
H2396 H 0.89139 0.35349 0.44604 0.0
H2397 H 0.92643 0.35004 0.43566 0.0
H2398 H 0.8726 0.39425 0.44689 0.0
H2399 H 0.93083 0.4024 0.47962 0.0
H2400 H 0.95537 0.43302 0.47238 0.0
H2401 H 0.94205 0.39184 0.46931 0.0
C2402 C 0.97733 0.42092 0.44649 0.0
C2403 C 0.96659 0.39485 0.44027 0.0
C2404 C 0.95709 0.42305 0.4524 0.0
C2405 C 0.92583 0.39884 0.45235 0.0
C2406 C 0.91532 0.37253 0.44625 0.0
H2407 H 0.78102 0.36601 0.48887 0.0
H2408 H 0.827 0.3695 0.48229 0.0
C2409 C 0.93538 0.37061 0.44028 0.0
C2410 C 0.90342 0.40162 0.45817 0.0
H2411 H 0.88935 0.41329 0.47981 0.0
C2412 C 0.87633 0.39833 0.45409 0.0
C2413 C 0.90789 0.40655 0.4676 0.0
C2414 C 0.93545 0.40833 0.4725 0.0
C2415 C 0.85384 0.39996 0.4591 0.0
C2416 C 0.85886 0.40622 0.46848 0.0
C2417 C 0.88572 0.4091 0.47262 0.0
C2418 C 0.83579 0.40882 0.47401 0.0
C2419 C 0.82444 0.39408 0.45427 0.0
C2420 C 0.82668 0.4311 0.47203 0.0
C2421 C 0.80041 0.42896 0.47573 0.0
C2422 C 0.78321 0.40512 0.48169 0.0
C2423 C 0.79424 0.38506 0.48444 0.0
C2424 C 0.82034 0.38684 0.48061 0.0
H2425 H 0.82046 0.38098 0.44771 0.0
H2426 H 0.80405 0.38015 0.45833 0.0
H2427 H 0.8262 0.41733 0.45298 0.0
H2428 H 0.83862 0.44877 0.46713 0.0
H2429 H 0.79217 0.44444 0.47341 0.0
H2430 H 0.66754 0.63515 0.44102 0.0
H2431 H 0.67297 0.59831 0.45078 0.0
H2432 H 0.57705 0.52789 0.4452 0.0
H2433 H 0.57137 0.56442 0.43545 0.0
H2434 H 0.63774 0.56814 0.4664 0.0
H2435 H 0.62417 0.47983 0.43966 0.0
H2436 H 0.63367 0.52001 0.43735 0.0
H2437 H 0.59465 0.49054 0.43959 0.0
C2438 C 0.64764 0.61173 0.4418 0.0
C2439 C 0.61904 0.60274 0.43737 0.0
C2440 C 0.65076 0.59075 0.44742 0.0
C2441 C 0.6255 0.56021 0.44867 0.0
C2442 C 0.59698 0.55115 0.44425 0.0
H2443 H 0.60724 0.39373 0.47469 0.0
H2444 H 0.59563 0.43192 0.46775 0.0
C2445 C 0.59377 0.57214 0.43868 0.0
C2446 C 0.62881 0.53786 0.45462 0.0
H2447 H 0.62604 0.46608 0.45453 0.0
C2448 C 0.63523 0.54582 0.46382 0.0
C2449 C 0.62535 0.50867 0.45127 0.0
C2450 C 0.61932 0.49922 0.44142 0.0
C2451 C 0.63782 0.52517 0.46977 0.0
C2452 C 0.63467 0.49603 0.4664 0.0
C2453 C 0.62823 0.48818 0.45718 0.0
C2454 C 0.63904 0.47373 0.47216 0.0
C2455 C 0.64316 0.53452 0.47962 0.0
C2456 C 0.66674 0.48437 0.47729 0.0
C2457 C 0.67294 0.46253 0.48146 0.0
C2458 C 0.65176 0.4296 0.48052 0.0
C2459 C 0.62348 0.41905 0.47578 0.0
C2460 C 0.61708 0.44088 0.4717 0.0
H2461 H 0.63449 0.55091 0.48139 0.0
H2462 H 0.63166 0.51328 0.48374 0.0
H2463 H 0.66836 0.54729 0.48134 0.0
H2464 H 0.68454 0.50932 0.47757 0.0
H2465 H 0.69544 0.47116 0.48477 0.0
H2466 H 0.43545 0.0289 0.44538 0.0
H2467 H 0.47565 0.06932 0.45575 0.0
H2468 H 0.48335 0.14351 0.43896 0.0
H2469 H 0.44281 0.10343 0.42868 0.0
H2470 H 0.53549 0.11383 0.45386 0.0
H2471 H 0.47118 0.17481 0.46285 0.0
H2472 H 0.45303 0.1366 0.45678 0.0
H2473 H 0.47498 0.1729 0.45101 0.0
C2474 C 0.44573 0.05382 0.44387 0.0
C2475 C 0.43567 0.06285 0.43619 0.0
C2476 C 0.46872 0.07694 0.44983 0.0
C2477 C 0.48212 0.1096 0.44828 0.0
C2478 C 0.4728 0.11858 0.44047 0.0
H2479 H 0.65257 0.27286 0.46526 0.0
H2480 H 0.61112 0.22175 0.45902 0.0
C2481 C 0.44974 0.09554 0.43454 0.0
C2482 C 0.50616 0.13431 0.4547 0.0
H2483 H 0.52558 0.20335 0.46672 0.0
C2484 C 0.53312 0.13317 0.45675 0.0
C2485 C 0.50298 0.1593 0.45867 0.0
C2486 C 0.47383 0.16084 0.45729 0.0
C2487 C 0.55748 0.1571 0.46225 0.0
C2488 C 0.55514 0.18321 0.46572 0.0
C2489 C 0.52758 0.18351 0.46404 0.0
C2490 C 0.58198 0.21192 0.47029 0.0
C2491 C 0.58566 0.1543 0.46424 0.0
C2492 C 0.57983 0.22355 0.47881 0.0
C2493 C 0.60389 0.25301 0.48246 0.0
C2494 C 0.63014 0.27153 0.47755 0.0
C2495 C 0.63273 0.25906 0.46924 0.0
C2496 C 0.60901 0.22971 0.46566 0.0
H2497 H 0.57987 0.12898 0.46382 0.0
H2498 H 0.60306 0.16724 0.45922 0.0
H2499 H 0.59623 0.1648 0.47099 0.0
H2500 H 0.55909 0.21036 0.48248 0.0
H2501 H 0.60103 0.26222 0.48881 0.0
H2502 H 0.70822 0.64923 0.74695 0.0
H2503 H 0.70238 0.60614 0.7367 0.0
H2504 H 0.80142 0.65259 0.73523 0.0
H2505 H 0.8075 0.69528 0.74561 0.0
H2506 H 0.71929 0.6082 0.71953 0.0
H2507 H 0.78122 0.56342 0.74043 0.0
H2508 H 0.76984 0.59072 0.74485 0.0
H2509 H 0.8038 0.60516 0.73842 0.0
C2510 C 0.7288 0.6501 0.74455 0.0
C2511 C 0.75836 0.67568 0.74721 0.0
C2512 C 0.72542 0.62547 0.73864 0.0
C2513 C 0.75146 0.62572 0.73527 0.0
C2514 C 0.78096 0.65129 0.73789 0.0
H2515 H 0.76151 0.48139 0.70033 0.0
H2516 H 0.77576 0.5336 0.7076 0.0
C2517 C 0.78438 0.67584 0.74382 0.0
C2518 C 0.74764 0.59973 0.72883 0.0
H2519 H 0.76588 0.54112 0.72567 0.0
C2520 C 0.72955 0.5936 0.72089 0.0
C2521 C 0.7612 0.58072 0.73051 0.0
C2522 C 0.77987 0.58507 0.73905 0.0
C2523 C 0.72444 0.56898 0.71466 0.0
C2524 C 0.7374 0.54952 0.71643 0.0
C2525 C 0.75616 0.55616 0.72425 0.0
C2526 C 0.72897 0.52009 0.71083 0.0
C2527 C 0.70512 0.56401 0.70622 0.0
C2528 C 0.69801 0.49541 0.71006 0.0
C2529 C 0.68999 0.46592 0.70595 0.0
C2530 C 0.71264 0.46026 0.70245 0.0
C2531 C 0.74351 0.48535 0.70278 0.0
C2532 C 0.75166 0.51501 0.70702 0.0
H2533 H 0.70571 0.58637 0.70443 0.0
H2534 H 0.71315 0.55546 0.70051 0.0
H2535 H 0.68072 0.54583 0.70729 0.0
H2536 H 0.68014 0.49829 0.71309 0.0
H2537 H 0.6661 0.44682 0.70592 0.0
H2538 H 0.37651 0.09268 0.73201 0.0
H2539 H 0.4103 0.12875 0.72091 0.0
H2540 H 0.48272 0.17857 0.74137 0.0
H2541 H 0.44929 0.14347 0.75248 0.0
H2542 H 0.44242 0.19821 0.72065 0.0
H2543 H 0.52357 0.15209 0.72179 0.0
H2544 H 0.48522 0.13045 0.72599 0.0
H2545 H 0.51606 0.16301 0.73259 0.0
C2546 C 0.39949 0.11144 0.73419 0.0
C2547 C 0.41009 0.11464 0.7432 0.0
C2548 C 0.41886 0.132 0.72781 0.0
C2549 C 0.44928 0.15601 0.73027 0.0
C2550 C 0.4596 0.15979 0.73926 0.0
H2551 H 0.58934 0.32933 0.71028 0.0
H2552 H 0.54187 0.28701 0.71623 0.0
C2553 C 0.44033 0.13947 0.74563 0.0
C2554 C 0.47055 0.17731 0.72354 0.0
H2555 H 0.54115 0.20177 0.71493 0.0
C2556 C 0.46382 0.19871 0.7193 0.0
C2557 C 0.4983 0.17776 0.72167 0.0
C2558 C 0.50618 0.15441 0.72568 0.0
C2559 C 0.48479 0.22152 0.7136 0.0
C2560 C 0.51338 0.22318 0.71214 0.0
C2561 C 0.51935 0.20071 0.71604 0.0
C2562 C 0.53856 0.24954 0.70728 0.0
C2563 C 0.47626 0.24386 0.70926 0.0
C2564 C 0.55243 0.24295 0.7001 0.0
C2565 C 0.57954 0.26741 0.6966 0.0
C2566 C 0.59337 0.29877 0.70029 0.0
C2567 C 0.57863 0.30555 0.70714 0.0
C2568 C 0.5515 0.28128 0.71057 0.0
H2569 H 0.45077 0.23328 0.70861 0.0
H2570 H 0.48589 0.26625 0.71348 0.0
H2571 H 0.48581 0.24998 0.70253 0.0
H2572 H 0.54313 0.21863 0.69751 0.0
H2573 H 0.59096 0.26135 0.69152 0.0
H2574 H 0.95098 0.37461 0.74415 0.0
H2575 H 0.91171 0.37038 0.73333 0.0
H2576 H 0.88437 0.27227 0.72696 0.0
H2577 H 0.92347 0.27615 0.738 0.0
H2578 H 0.90397 0.35467 0.71482 0.0
H2579 H 0.80222 0.26731 0.733 0.0
H2580 H 0.84051 0.28952 0.73829 0.0
H2581 H 0.83086 0.25658 0.73056 0.0
C2582 C 0.9365 0.35199 0.74053 0.0
C2583 C 0.94023 0.3256 0.74206 0.0
C2584 C 0.91415 0.34968 0.73428 0.0
C2585 C 0.89472 0.32089 0.7294 0.0
C2586 C 0.89873 0.29461 0.73074 0.0
H2587 H 0.73292 0.29352 0.69579 0.0
H2588 H 0.77356 0.28271 0.70136 0.0
C2589 C 0.92131 0.29695 0.73699 0.0
C2590 C 0.87038 0.31892 0.72301 0.0
H2591 H 0.7922 0.28735 0.72004 0.0
C2592 C 0.87952 0.33957 0.71589 0.0
C2593 C 0.83842 0.29912 0.72434 0.0
C2594 C 0.82721 0.27697 0.73198 0.0
C2595 C 0.85773 0.34181 0.71031 0.0
C2596 C 0.82587 0.32331 0.71194 0.0
C2597 C 0.81659 0.30142 0.71875 0.0
C2598 C 0.80261 0.32989 0.7076 0.0
C2599 C 0.8691 0.3646 0.70282 0.0
C2600 C 0.80555 0.35991 0.70918 0.0
C2601 C 0.78253 0.36591 0.7061 0.0
C2602 C 0.75593 0.34214 0.70131 0.0
C2603 C 0.75337 0.31238 0.69936 0.0
C2604 C 0.77644 0.30617 0.70259 0.0
H2605 H 0.89167 0.36859 0.70056 0.0
H2606 H 0.85217 0.35561 0.69701 0.0
H2607 H 0.87246 0.38799 0.70525 0.0
H2608 H 0.82511 0.37843 0.71315 0.0
H2609 H 0.78506 0.38901 0.70774 0.0
H2610 H 0.3731 0.27671 0.238 0.0
H2611 H 0.40812 0.27016 0.22813 0.0
H2612 H 0.48184 0.36439 0.23652 0.0
H2613 H 0.44728 0.37127 0.24624 0.0
H2614 H 0.44606 0.30776 0.21382 0.0
H2615 H 0.51621 0.30543 0.24273 0.0
H2616 H 0.47818 0.30023 0.24384 0.0
H2617 H 0.5112 0.33956 0.24306 0.0
C2618 C 0.39666 0.29616 0.23767 0.0
C2619 C 0.40742 0.32431 0.24307 0.0
C2620 C 0.41667 0.29235 0.23203 0.0
C2621 C 0.44777 0.31657 0.23171 0.0
C2622 C 0.45814 0.34511 0.2368 0.0
H2623 H 0.5961 0.35381 0.19671 0.0
H2624 H 0.54816 0.34729 0.20261 0.0
C2625 C 0.43829 0.34892 0.24241 0.0
C2626 C 0.47 0.31194 0.22639 0.0
H2627 H 0.53803 0.31206 0.22854 0.0
C2628 C 0.46603 0.30833 0.21702 0.0
C2629 C 0.49583 0.31227 0.23056 0.0
C2630 C 0.50055 0.31427 0.24061 0.0
C2631 C 0.48776 0.30606 0.21172 0.0
C2632 C 0.51441 0.30793 0.21589 0.0
C2633 C 0.51777 0.31068 0.22528 0.0
C2634 C 0.53964 0.30779 0.21081 0.0
C2635 C 0.48174 0.3014 0.20172 0.0
C2636 C 0.55075 0.28748 0.21326 0.0
C2637 C 0.57838 0.29162 0.21001 0.0
C2638 C 0.59525 0.31572 0.2041 0.0
C2639 C 0.58304 0.33444 0.20106 0.0
C2640 C 0.5556 0.33072 0.20446 0.0
H2641 H 0.45664 0.28996 0.1999 0.0
H2642 H 0.49355 0.32504 0.1987 0.0
H2643 H 0.49065 0.28652 0.19879 0.0
H2644 H 0.53903 0.26963 0.21813 0.0
H2645 H 0.58762 0.2773 0.21258 0.0
H2646 H 0.67816 0.08082 0.24557 0.0
H2647 H 0.68385 0.12345 0.23615 0.0
H2648 H 0.78273 0.16407 0.23734 0.0
H2649 H 0.77728 0.12115 0.24687 0.0
H2650 H 0.76116 0.20981 0.23947 0.0
H2651 H 0.70618 0.12808 0.20958 0.0
H2652 H 0.68414 0.11511 0.21942 0.0
H2653 H 0.72111 0.11752 0.2192 0.0
C2654 C 0.70123 0.09886 0.24391 0.0
C2655 C 0.72725 0.09733 0.24698 0.0
C2656 C 0.7044 0.12319 0.23846 0.0
C2657 C 0.73364 0.14665 0.23588 0.0
C2658 C 0.75988 0.14608 0.23919 0.0
H2659 H 0.77067 0.31757 0.20617 0.0
H2660 H 0.7802 0.27752 0.21298 0.0
C2661 C 0.75673 0.12158 0.24467 0.0
C2662 C 0.73632 0.17132 0.22964 0.0
H2663 H 0.71166 0.17964 0.20889 0.0
C2664 C 0.75078 0.20339 0.23273 0.0
C2665 C 0.72276 0.16292 0.22084 0.0
C2666 C 0.7079 0.12908 0.21701 0.0
C2667 C 0.75051 0.22693 0.22747 0.0
C2668 C 0.73612 0.21837 0.21874 0.0
C2669 C 0.72275 0.18643 0.21554 0.0
C2670 C 0.73177 0.2412 0.21319 0.0
C2671 C 0.7641 0.26035 0.23154 0.0
C2672 C 0.70172 0.23346 0.21036 0.0
C2673 C 0.69646 0.25589 0.20621 0.0
C2674 C 0.72107 0.28659 0.20475 0.0
C2675 C 0.75136 0.29382 0.20702 0.0
C2676 C 0.75671 0.27114 0.21111 0.0
H2677 H 0.76753 0.26114 0.23892 0.0
H2678 H 0.787 0.27589 0.22876 0.0
H2679 H 0.74899 0.27036 0.22996 0.0
H2680 H 0.68202 0.21065 0.21183 0.0
H2681 H 0.67282 0.25 0.20475 0.0
H2682 H 0.94558 0.61861 0.25377 0.0
H2683 H 0.90441 0.57875 0.24361 0.0
H2684 H 0.90642 0.65355 0.22825 0.0
H2685 H 0.94726 0.69376 0.23854 0.0
H2686 H 0.84806 0.60777 0.23046 0.0
H2687 H 0.91282 0.55009 0.219 0.0
H2688 H 0.91096 0.55055 0.23094 0.0
H2689 H 0.9312 0.58765 0.2254 0.0
C2690 C 0.93731 0.6267 0.24824 0.0
C2691 C 0.94994 0.65952 0.24698 0.0
C2692 C 0.91388 0.60377 0.24237 0.0
C2693 C 0.90272 0.61297 0.23499 0.0
C2694 C 0.91477 0.64573 0.23382 0.0
H2695 H 0.7784 0.45885 0.19534 0.0
H2696 H 0.82122 0.5109 0.20127 0.0
C2697 C 0.93813 0.66874 0.23974 0.0
C2698 C 0.87796 0.58834 0.22868 0.0
H2699 H 0.85771 0.52004 0.21614 0.0
C2700 C 0.85038 0.58885 0.22724 0.0
C2701 C 0.88101 0.56391 0.22426 0.0
C2702 C 0.91073 0.56317 0.22489 0.0
C2703 C 0.82535 0.56481 0.22195 0.0
C2704 C 0.82757 0.53907 0.21809 0.0
C2705 C 0.85572 0.53949 0.21913 0.0
C2706 C 0.80018 0.51004 0.21379 0.0
C2707 C 0.79666 0.56719 0.22059 0.0
C2708 C 0.77385 0.49249 0.21872 0.0
C2709 C 0.74958 0.46312 0.21534 0.0
C2710 C 0.75087 0.45021 0.20694 0.0
C2711 C 0.77648 0.46837 0.20176 0.0
C2712 C 0.80107 0.49795 0.20519 0.0
H2713 H 0.80233 0.59247 0.22099 0.0
H2714 H 0.78453 0.5561 0.21403 0.0
H2715 H 0.78066 0.55471 0.22597 0.0
H2716 H 0.77269 0.50066 0.22542 0.0
H2717 H 0.7303 0.44966 0.21954 0.0
H2718 H 0.6733 0.05643 0.94618 0.0
H2719 H 0.67731 0.09763 0.95686 0.0
H2720 H 0.59677 0.09249 0.94398 0.0
H2721 H 0.59188 0.05041 0.93357 0.0
H2722 H 0.68694 0.15506 0.95538 0.0
H2723 H 0.57129 0.08468 0.96899 0.0
H2724 H 0.58713 0.06682 0.96173 0.0
H2725 H 0.56845 0.08711 0.95712 0.0
C2726 C 0.65643 0.06407 0.94563 0.0
C2727 C 0.63212 0.04991 0.93904 0.0
C2728 C 0.65869 0.08762 0.95177 0.0
C2729 C 0.63684 0.09771 0.95144 0.0
C2730 C 0.61326 0.0844 0.94465 0.0
H2731 H 0.6242 0.25603 0.97148 0.0
H2732 H 0.61576 0.20554 0.96485 0.0
C2733 C 0.61069 0.06053 0.93861 0.0
C2734 C 0.63923 0.1228 0.958 0.0
H2735 H 0.59715 0.14146 0.97203 0.0
C2736 C 0.66742 0.1518 0.95913 0.0
C2737 C 0.61387 0.11872 0.96298 0.0
C2738 C 0.58362 0.08751 0.96272 0.0
C2739 C 0.67052 0.17711 0.96473 0.0
C2740 C 0.6448 0.17343 0.96939 0.0
C2741 C 0.61686 0.14426 0.96846 0.0
C2742 C 0.64582 0.20072 0.97452 0.0
C2743 C 0.70095 0.20815 0.96537 0.0
C2744 C 0.66427 0.21401 0.98246 0.0
C2745 C 0.66866 0.24275 0.98639 0.0
C2746 C 0.65494 0.25871 0.98236 0.0
C2747 C 0.63483 0.2441 0.97478 0.0
C2748 C 0.63014 0.21533 0.97095 0.0
H2749 H 0.71749 0.20845 0.96052 0.0
H2750 H 0.69721 0.22845 0.96414 0.0
H2751 H 0.7116 0.2119 0.97221 0.0
H2752 H 0.67642 0.20298 0.98536 0.0
H2753 H 0.6847 0.25373 0.99213 0.0
H2754 H 0.99715 0.58126 0.94308 0.0
H2755 H 0.96276 0.54124 0.9534 0.0
H2756 H 0.91439 0.59296 0.95698 0.0
H2757 H 0.94792 0.63217 0.94656 0.0
H2758 H 0.94672 0.54205 0.97106 0.0
H2759 H 0.84518 0.5066 0.94791 0.0
H2760 H 0.88427 0.53224 0.94468 0.0
H2761 H 0.86522 0.54818 0.95129 0.0
C2762 C 0.97932 0.58413 0.94615 0.0
C2763 C 0.97482 0.60948 0.94388 0.0
C2764 C 0.95969 0.5613 0.95204 0.0
C2765 C 0.93542 0.56359 0.95581 0.0
C2766 C 0.93227 0.59005 0.95397 0.0
H2767 H 0.79901 0.44808 0.99452 0.0
H2768 H 0.84672 0.49073 0.9884 0.0
C2769 C 0.95149 0.61249 0.94801 0.0
C2770 C 0.91233 0.53767 0.96127 0.0
H2771 H 0.83494 0.48436 0.96212 0.0
C2772 C 0.92228 0.52943 0.96911 0.0
C2773 C 0.88039 0.52089 0.9587 0.0
C2774 C 0.86811 0.52717 0.95014 0.0
C2775 C 0.90109 0.5052 0.97447 0.0
C2776 C 0.86923 0.48891 0.97194 0.0
C2777 C 0.85937 0.49708 0.9641 0.0
C2778 C 0.84548 0.46195 0.97692 0.0
C2779 C 0.91277 0.49659 0.98268 0.0
C2780 C 0.82971 0.43136 0.97272 0.0
C2781 C 0.80273 0.4072 0.97619 0.0
C2782 C 0.79079 0.41298 0.98396 0.0
C2783 C 0.80798 0.44276 0.98863 0.0
C2784 C 0.83512 0.46719 0.98509 0.0
H2785 H 0.93843 0.50943 0.98332 0.0
H2786 H 0.90399 0.50261 0.98872 0.0
H2787 H 0.90384 0.47048 0.98249 0.0
H2788 H 0.83715 0.42677 0.9664 0.0
H2789 H 0.78985 0.38458 0.97241 0.0
H2790 H 0.44051 0.34613 0.93721 0.0
H2791 H 0.47954 0.34976 0.94802 0.0
H2792 H 0.49816 0.44295 0.95731 0.0
H2793 H 0.45845 0.43907 0.94655 0.0
H2794 H 0.53903 0.38988 0.94869 0.0
H2795 H 0.4937 0.40341 0.98084 0.0
H2796 H 0.47082 0.39174 0.97044 0.0
H2797 H 0.49881 0.43304 0.97307 0.0
C2798 C 0.45279 0.36738 0.94157 0.0
C2799 C 0.44642 0.39239 0.94096 0.0
C2800 C 0.47508 0.36938 0.94779 0.0
C2801 C 0.49177 0.39649 0.95359 0.0
C2802 C 0.48519 0.42142 0.95309 0.0
H2803 H 0.66995 0.43587 0.97617 0.0
H2804 H 0.62864 0.44249 0.96942 0.0
C2805 C 0.46256 0.41926 0.9469 0.0
C2806 C 0.51729 0.39916 0.95965 0.0
H2807 H 0.54471 0.41132 0.98147 0.0
C2808 C 0.54016 0.39456 0.95585 0.0
C2809 C 0.51875 0.40486 0.96904 0.0
C2810 C 0.49406 0.40823 0.97362 0.0
C2811 C 0.56427 0.39549 0.96111 0.0
C2812 C 0.56643 0.40232 0.97046 0.0
C2813 C 0.54344 0.40665 0.9743 0.0
C2814 C 0.59194 0.40386 0.97626 0.0
C2815 C 0.58672 0.38816 0.95659 0.0
C2816 C 0.58552 0.38194 0.98299 0.0
C2817 C 0.60941 0.37888 0.9871 0.0
C2818 C 0.63999 0.39757 0.98449 0.0
C2819 C 0.64665 0.42144 0.97839 0.0
C2820 C 0.62295 0.42487 0.97442 0.0
H2821 H 0.57703 0.37496 0.95004 0.0
H2822 H 0.6081 0.41087 0.95534 0.0
H2823 H 0.59304 0.37375 0.96085 0.0
H2824 H 0.56182 0.36556 0.98457 0.0
H2825 H 0.60354 0.35983 0.99163 0.0
H2826 H 0.67303 0.77585 0.78242 0.0
H2827 H 0.63801 0.78008 0.79279 0.0
H2828 H 0.56357 0.68879 0.78254 0.0
H2829 H 0.59813 0.68429 0.77229 0.0
H2830 H 0.54705 0.73445 0.78299 0.0
H2831 H 0.60155 0.73412 0.81575 0.0
H2832 H 0.62683 0.76361 0.80831 0.0
H2833 H 0.61092 0.72198 0.80534 0.0
C2834 C 0.64933 0.75648 0.78246 0.0
C2835 C 0.63848 0.72986 0.77642 0.0
C2836 C 0.62931 0.7589 0.78842 0.0
C2837 C 0.59811 0.73464 0.78851 0.0
C2838 C 0.58746 0.70788 0.7826 0.0
H2839 H 0.44628 0.68858 0.82273 0.0
H2840 H 0.49378 0.6951 0.81641 0.0
C2841 C 0.60733 0.70546 0.77667 0.0
C2842 C 0.57583 0.73751 0.79434 0.0
H2843 H 0.55871 0.74228 0.81612 0.0
C2844 C 0.54973 0.73633 0.79023 0.0
C2845 C 0.57907 0.73958 0.8038 0.0
C2846 C 0.60594 0.73963 0.8086 0.0
C2847 C 0.52681 0.73701 0.79527 0.0
C2848 C 0.53023 0.73962 0.80474 0.0
C2849 C 0.55629 0.74074 0.80888 0.0
C2850 C 0.50599 0.73962 0.81032 0.0
C2851 C 0.49859 0.73393 0.79039 0.0
C2852 C 0.49803 0.76339 0.80947 0.0
C2853 C 0.47099 0.75969 0.8131 0.0
C2854 C 0.45174 0.73251 0.8178 0.0
C2855 C 0.46118 0.7102 0.81936 0.0
C2856 C 0.48816 0.71377 0.81567 0.0
H2857 H 0.49609 0.72465 0.78337 0.0
H2858 H 0.47725 0.71776 0.79384 0.0
H2859 H 0.50066 0.75777 0.79025 0.0
H2860 H 0.51158 0.78374 0.80548 0.0
H2861 H 0.46384 0.77681 0.81162 0.0
H2862 H 0.24256 0.90312 0.77138 0.0
H2863 H 0.24794 0.86722 0.78148 0.0
H2864 H 0.34663 0.93088 0.78355 0.0
H2865 H 0.34145 0.96716 0.77354 0.0
H2866 H 0.27988 0.83496 0.78023 0.0
H2867 H 0.3252 0.91997 0.80969 0.0
H2868 H 0.30787 0.92662 0.79987 0.0
H2869 H 0.34733 0.93544 0.79997 0.0
C2870 C 0.26547 0.90951 0.77395 0.0
C2871 C 0.29155 0.9382 0.77164 0.0
C2872 C 0.26848 0.88891 0.77974 0.0
C2873 C 0.2976 0.89655 0.78344 0.0
C2874 C 0.3238 0.92475 0.78097 0.0
H2875 H 0.37909 0.81032 0.8142 0.0
H2876 H 0.3648 0.8458 0.80696 0.0
C2877 C 0.32082 0.94536 0.77516 0.0
C2878 C 0.30059 0.87489 0.78979 0.0
H2879 H 0.32854 0.87283 0.81073 0.0
C2880 C 0.29018 0.84313 0.78694 0.0
C2881 C 0.31388 0.88541 0.79858 0.0
C2882 C 0.32394 0.91863 0.80226 0.0
C2883 C 0.29392 0.82212 0.79245 0.0
C2884 C 0.3079 0.83288 0.80116 0.0
C2885 C 0.31766 0.86444 0.80409 0.0
C2886 C 0.31552 0.81288 0.80693 0.0
C2887 C 0.28415 0.789 0.78875 0.0
C2888 C 0.29255 0.78305 0.8098 0.0
C2889 C 0.30077 0.76274 0.81411 0.0
C2890 C 0.33207 0.77203 0.81557 0.0
C2891 C 0.35478 0.80272 0.81326 0.0
C2892 C 0.34663 0.82296 0.80905 0.0
H2893 H 0.27931 0.78649 0.7814 0.0
H2894 H 0.30233 0.78289 0.79026 0.0
H2895 H 0.26276 0.77144 0.79192 0.0
H2896 H 0.26834 0.77492 0.80838 0.0
H2897 H 0.28281 0.73902 0.81567 0.0
H2898 H 0.10667 0.43551 0.76279 0.0
H2899 H 0.14689 0.47623 0.77301 0.0
H2900 H 0.14417 0.40288 0.78922 0.0
H2901 H 0.10403 0.36182 0.77895 0.0
H2902 H 0.14232 0.48671 0.79106 0.0
H2903 H 0.237 0.46038 0.78611 0.0
H2904 H 0.20363 0.44509 0.77846 0.0
H2905 H 0.20057 0.42729 0.78902 0.0
C2906 C 0.11481 0.42791 0.76846 0.0
C2907 C 0.10209 0.39526 0.76999 0.0
C2908 C 0.13781 0.4513 0.77433 0.0
C2909 C 0.14887 0.44274 0.78186 0.0
C2910 C 0.1365 0.41017 0.78338 0.0
H2911 H 0.29108 0.58523 0.82187 0.0
H2912 H 0.24949 0.53296 0.81552 0.0
C2913 C 0.11341 0.38668 0.7775 0.0
C2914 C 0.17237 0.46816 0.78824 0.0
H2915 H 0.24737 0.50251 0.79645 0.0
C2916 C 0.16515 0.48987 0.79231 0.0
C2917 C 0.20217 0.4723 0.78995 0.0
C2918 C 0.21156 0.45023 0.78562 0.0
C2919 C 0.18707 0.516 0.79777 0.0
C2920 C 0.21722 0.52091 0.79918 0.0
C2921 C 0.22416 0.49854 0.79544 0.0
C2922 C 0.24275 0.55166 0.80324 0.0
C2923 C 0.17812 0.53885 0.8018 0.0
C2924 C 0.2529 0.57922 0.79842 0.0
C2925 C 0.27642 0.60863 0.80196 0.0
C2926 C 0.2907 0.61164 0.81047 0.0
C2927 C 0.28065 0.58391 0.81533 0.0
C2928 C 0.25695 0.55405 0.8117 0.0
H2929 H 0.15263 0.52772 0.80208 0.0
H2930 H 0.18874 0.54727 0.80866 0.0
H2931 H 0.18666 0.55997 0.79763 0.0
H2932 H 0.24252 0.57798 0.79187 0.0
H2933 H 0.28322 0.62921 0.79796 0.0
H2934 H 0.35559 0.94832 0.08554 0.0
H2935 H 0.3558 0.90995 0.07469 0.0
H2936 H 0.43785 0.98513 0.0636 0.0
H2937 H 0.43796 0.02384 0.0745 0.0
H2938 H 0.35157 0.91183 0.05594 0.0
H2939 H 0.45995 0.91484 0.06702 0.0
H2940 H 0.44102 0.92988 0.07409 0.0
H2941 H 0.4629 0.95261 0.06498 0.0
C2942 C 0.37396 0.95676 0.08088 0.0
C2943 C 0.39684 0.98927 0.08096 0.0
C2944 C 0.37399 0.93473 0.07465 0.0
C2945 C 0.39697 0.9445 0.06835 0.0
C2946 C 0.42016 0.97684 0.06847 0.0
H2947 H 0.40888 0.8103 0.02879 0.0
H2948 H 0.41976 0.86179 0.03593 0.0
C2949 C 0.42012 0.99899 0.07471 0.0
C2950 C 0.39548 0.92084 0.06147 0.0
H2951 H 0.43133 0.8801 0.05472 0.0
C2952 C 0.3692 0.90517 0.05562 0.0
C2953 C 0.41864 0.91234 0.06094 0.0
C2954 C 0.44718 0.92806 0.06711 0.0
C2955 C 0.36496 0.88067 0.0495 0.0
C2956 C 0.38725 0.87091 0.0493 0.0
C2957 C 0.41428 0.88758 0.05484 0.0
C2958 C 0.38062 0.84073 0.04441 0.0
C2959 C 0.33621 0.865 0.0434 0.0
C2960 C 0.35517 0.81196 0.04677 0.0
C2961 C 0.34903 0.78301 0.04276 0.0
C2962 C 0.36825 0.78168 0.03628 0.0
C2963 C 0.39349 0.81052 0.0337 0.0
C2964 C 0.39981 0.83987 0.03782 0.0
H2965 H 0.32757 0.88164 0.04209 0.0
H2966 H 0.34051 0.85664 0.03691 0.0
H2967 H 0.31773 0.8441 0.04667 0.0
H2968 H 0.34034 0.81175 0.05193 0.0
H2969 H 0.32933 0.76137 0.04492 0.0
H2970 H 0.03642 0.44406 0.06818 0.0
H2971 H 0.06971 0.47994 0.05701 0.0
H2972 H 0.1504 0.49951 0.07317 0.0
H2973 H 0.11752 0.46373 0.08429 0.0
H2974 H 0.15341 0.5544 0.06711 0.0
H2975 H 0.12138 0.46413 0.03911 0.0
H2976 H 0.08984 0.46584 0.04399 0.0
H2977 H 0.11201 0.4532 0.05051 0.0
C2978 C 0.06123 0.45567 0.06933 0.0
C2979 C 0.07413 0.45088 0.0772 0.0
C2980 C 0.08028 0.47624 0.06291 0.0
C2981 C 0.11264 0.4923 0.06419 0.0
C2982 C 0.12552 0.48752 0.07202 0.0
H2983 H 0.27048 0.58272 0.03355 0.0
H2984 H 0.22249 0.54605 0.04049 0.0
C2985 C 0.10658 0.46705 0.07842 0.0
C2986 C 0.13339 0.51453 0.05753 0.0
H2987 H 0.15793 0.5174 0.03628 0.0
C2988 C 0.15413 0.54642 0.06033 0.0
C2989 C 0.13448 0.50407 0.04869 0.0
C2990 C 0.11345 0.46991 0.04537 0.0
C2991 C 0.17637 0.56785 0.05465 0.0
C2992 C 0.17776 0.55732 0.04585 0.0
C2993 C 0.15656 0.52562 0.04297 0.0
C2994 C 0.20372 0.57754 0.04007 0.0
C2995 C 0.19926 0.60119 0.05827 0.0
C2996 C 0.20857 0.60694 0.03709 0.0
C2997 C 0.23605 0.62792 0.03296 0.0
C2998 C 0.25904 0.61979 0.03185 0.0
C2999 C 0.25304 0.58948 0.03427 0.0
C3000 C 0.22565 0.56853 0.03827 0.0
H3001 H 0.19804 0.60403 0.06561 0.0
H3002 H 0.2232 0.60739 0.05679 0.0
H3003 H 0.19435 0.61848 0.05497 0.0
H3004 H 0.19181 0.61427 0.03832 0.0
H3005 H 0.24029 0.65131 0.03128 0.0
H3006 H 0.59793 0.7001 0.08311 0.0
H3007 H 0.55898 0.69667 0.07232 0.0
H3008 H 0.56264 0.62175 0.0573 0.0
H3009 H 0.60163 0.62477 0.06816 0.0
H3010 H 0.56159 0.66775 0.04643 0.0
H3011 H 0.46841 0.62529 0.0705 0.0
H3012 H 0.50276 0.66148 0.07431 0.0
H3013 H 0.50395 0.62523 0.07275 0.0
C3014 C 0.59036 0.68261 0.07759 0.0
C3015 C 0.60284 0.66244 0.07663 0.0
C3016 C 0.568 0.68072 0.07139 0.0
C3017 C 0.55735 0.65852 0.06408 0.0
C3018 C 0.57033 0.63895 0.06292 0.0
H3019 H 0.38723 0.61909 0.03464 0.0
H3020 H 0.42738 0.61069 0.0416 0.0
C3021 C 0.59276 0.64081 0.06914 0.0
C3022 C 0.53263 0.65587 0.0577 0.0
H3023 H 0.45908 0.64338 0.05677 0.0
C3024 C 0.53906 0.66211 0.04867 0.0
C3025 C 0.50301 0.64801 0.06056 0.0
C3026 C 0.49393 0.6393 0.07004 0.0
C3027 C 0.51714 0.66195 0.04252 0.0
C3028 C 0.48809 0.65571 0.04549 0.0
C3029 C 0.48132 0.6483 0.05446 0.0
C3030 C 0.46498 0.65851 0.03964 0.0
C3031 C 0.52533 0.66845 0.0329 0.0
C3032 C 0.47273 0.68778 0.03594 0.0
C3033 C 0.44983 0.69241 0.03189 0.0
C3034 C 0.41873 0.66787 0.03141 0.0
C3035 C 0.41117 0.63802 0.03464 0.0
C3036 C 0.43408 0.63339 0.03872 0.0
H3037 H 0.54329 0.6625 0.03111 0.0
H3038 H 0.5047 0.65457 0.02829 0.0
H3039 H 0.53477 0.69422 0.03187 0.0
H3040 H 0.49612 0.70783 0.03675 0.0
H3041 H 0.45608 0.71598 0.02975 0.0
H3042 H 0.11937 0.69508 0.58143 0.0
H3043 H 0.15259 0.69112 0.57051 0.0
H3044 H 0.07308 0.61139 0.55692 0.0
H3045 H 0.03949 0.61541 0.56787 0.0
H3046 H 0.16228 0.64247 0.56743 0.0
H3047 H 0.11653 0.66535 0.53608 0.0
H3048 H 0.10687 0.6733 0.54701 0.0
H3049 H 0.08805 0.6332 0.54222 0.0
C3050 C 0.10883 0.67666 0.57613 0.0
C3051 C 0.07668 0.65543 0.57559 0.0
C3052 C 0.1279 0.67453 0.56985 0.0
C3053 C 0.11544 0.65114 0.56282 0.0
C3054 C 0.08327 0.6301 0.56216 0.0
H3055 H 0.24336 0.60557 0.53683 0.0
H3056 H 0.19526 0.59831 0.54278 0.0
C3057 C 0.06406 0.63235 0.56845 0.0
C3058 C 0.13662 0.64802 0.55657 0.0
H3059 H 0.1549 0.65075 0.53461 0.0
C3060 C 0.16052 0.64413 0.56025 0.0
C3061 C 0.13461 0.65051 0.5472 0.0
C3062 C 0.11033 0.65611 0.54287 0.0
C3063 C 0.18256 0.64301 0.55489 0.0
C3064 C 0.18031 0.64492 0.54549 0.0
C3065 C 0.15636 0.64873 0.54178 0.0
C3066 C 0.20411 0.64534 0.53962 0.0
C3067 C 0.2088 0.64102 0.55942 0.0
C3068 C 0.22364 0.67295 0.53511 0.0
C3069 C 0.25071 0.67669 0.53146 0.0
C3070 C 0.25864 0.65288 0.53225 0.0
C3071 C 0.23745 0.62397 0.53592 0.0
C3072 C 0.21024 0.62007 0.53948 0.0
H3073 H 0.21127 0.64743 0.5667 0.0
H3074 H 0.20425 0.61621 0.55862 0.0
H3075 H 0.23108 0.65712 0.55637 0.0
H3076 H 0.21943 0.69276 0.5351 0.0
H3077 H 0.26705 0.69956 0.5289 0.0
H3078 H 0.37288 0.42251 0.58097 0.0
H3079 H 0.36684 0.45981 0.57161 0.0
H3080 H 0.46591 0.51866 0.57093 0.0
H3081 H 0.47219 0.4814 0.58019 0.0
H3082 H 0.38779 0.52426 0.57477 0.0
H3083 H 0.43954 0.50634 0.54444 0.0
H3084 H 0.42814 0.47959 0.55353 0.0
H3085 H 0.46374 0.51723 0.55449 0.0
C3086 C 0.39342 0.4434 0.57885 0.0
C3087 C 0.42305 0.44884 0.58135 0.0
C3088 C 0.38992 0.4647 0.57348 0.0
C3089 C 0.4159 0.49179 0.57041 0.0
C3090 C 0.44548 0.49759 0.57302 0.0
H3091 H 0.43117 0.65111 0.53968 0.0
H3092 H 0.44348 0.61384 0.54713 0.0
C3093 C 0.44902 0.47635 0.57841 0.0
C3094 C 0.41196 0.51433 0.56469 0.0
H3095 H 0.42676 0.54721 0.54416 0.0
C3096 C 0.39627 0.52919 0.56808 0.0
C3097 C 0.42324 0.52104 0.55596 0.0
C3098 C 0.43939 0.50504 0.55183 0.0
C3099 C 0.39163 0.55054 0.56303 0.0
C3100 C 0.40236 0.55681 0.55424 0.0
C3101 C 0.41851 0.5424 0.55088 0.0
C3102 C 0.39567 0.57725 0.5484 0.0
C3103 C 0.3755 0.56651 0.56721 0.0
C3104 C 0.3649 0.56839 0.54622 0.0
C3105 C 0.35796 0.58948 0.54199 0.0
C3106 C 0.38161 0.61969 0.5397 0.0
C3107 C 0.41254 0.62772 0.54123 0.0
C3108 C 0.41954 0.60656 0.54555 0.0
H3109 H 0.37655 0.5663 0.57462 0.0
H3110 H 0.38588 0.59163 0.56524 0.0
H3111 H 0.35078 0.55348 0.56488 0.0
H3112 H 0.34611 0.54573 0.54819 0.0
H3113 H 0.33393 0.58287 0.54097 0.0
H3114 H 0.56462 1.00338 0.5872 0.0
H3115 H 0.52587 0.95726 0.57799 0.0
H3116 H 0.59849 0.95436 0.56394 0.0
H3117 H 0.63728 0.99949 0.57338 0.0
H3118 H 0.51132 0.94822 0.56077 0.0
H3119 H 0.54992 0.86351 0.56998 0.0
H3120 H 0.5648 0.90182 0.57577 0.0
H3121 H 0.57983 0.89867 0.56524 0.0
C3122 C 0.57235 0.99273 0.5822 0.0
C3123 C 0.6041 1.00495 0.58111 0.0
C3124 C 0.55014 0.96638 0.57691 0.0
C3125 C 0.5591 0.95174 0.57034 0.0
C3126 C 0.59083 0.9644 0.56912 0.0
H3127 H 0.44158 0.79311 0.5311 0.0
H3128 H 0.48323 0.8451 0.53746 0.0
C3129 C 0.61305 0.99041 0.57451 0.0
C3130 C 0.5352 0.92364 0.56474 0.0
H3131 H 0.51125 0.84608 0.5583 0.0
C3132 C 0.51144 0.92596 0.56023 0.0
C3133 C 0.53508 0.89435 0.56401 0.0
C3134 C 0.55858 0.88926 0.56908 0.0
C3135 C 0.4877 0.89995 0.55511 0.0
C3136 C 0.48776 0.87093 0.55439 0.0
C3137 C 0.51162 0.86862 0.55875 0.0
C3138 C 0.46146 0.84164 0.54999 0.0
C3139 C 0.46226 0.90327 0.55061 0.0
C3140 C 0.43534 0.82293 0.55486 0.0
C3141 C 0.41185 0.7934 0.55129 0.0
C3142 C 0.41379 0.78192 0.54274 0.0
C3143 C 0.43928 0.80142 0.53766 0.0
C3144 C 0.46313 0.83098 0.54131 0.0
H3145 H 0.4672 0.92831 0.55097 0.0
H3146 H 0.45892 0.89479 0.54348 0.0
H3147 H 0.44025 0.88804 0.55389 0.0
H3148 H 0.43364 0.83067 0.56157 0.0
H3149 H 0.39251 0.77902 0.55538 0.0
H3150 H 0.34082 0.40537 0.2728 0.0
H3151 H 0.34878 0.44986 0.2828 0.0
H3152 H 0.25071 0.41467 0.28147 0.0
H3153 H 0.24245 0.36974 0.27163 0.0
H3154 H 0.3364 0.49743 0.28038 0.0
H3155 H 0.26806 0.42552 0.30816 0.0
H3156 H 0.27875 0.4086 0.29902 0.0
H3157 H 0.2467 0.41525 0.29761 0.0
C3158 C 0.3209 0.40708 0.27461 0.0
C3159 C 0.29095 0.38379 0.27141 0.0
C3160 C 0.3255 0.43255 0.28036 0.0
C3161 C 0.3003 0.43536 0.28308 0.0
C3162 C 0.27047 0.41263 0.2797 0.0
H3163 H 0.28979 0.58289 0.31558 0.0
H3164 H 0.27686 0.53275 0.30732 0.0
C3165 C 0.26582 0.38707 0.27398 0.0
C3166 C 0.30545 0.46253 0.28924 0.0
H3167 H 0.28624 0.48115 0.30941 0.0
C3168 C 0.32551 0.4938 0.28674 0.0
C3169 C 0.29108 0.45795 0.29754 0.0
C3170 C 0.27016 0.42503 0.3008 0.0
C3171 C 0.33139 0.52047 0.2922 0.0
C3172 C 0.31744 0.51594 0.30056 0.0
C3173 C 0.29705 0.4847 0.30304 0.0
C3174 C 0.3243 0.54352 0.30681 0.0
C3175 C 0.35209 0.55334 0.28885 0.0
C3176 C 0.35494 0.56537 0.30972 0.0
C3177 C 0.36226 0.59389 0.31435 0.0
C3178 C 0.33905 0.60084 0.31642 0.0
C3179 C 0.30805 0.57783 0.31421 0.0
C3180 C 0.30072 0.54934 0.30943 0.0
H3181 H 0.35328 0.55273 0.28145 0.0
H3182 H 0.34391 0.56997 0.29081 0.0
H3183 H 0.37588 0.56295 0.29177 0.0
H3184 H 0.37347 0.56111 0.30802 0.0
H3185 H 0.38636 0.61137 0.31591 0.0
H3186 H 0.598 0.92686 0.26801 0.0
H3187 H 0.5644 0.89108 0.27902 0.0
H3188 H 0.64417 0.9087 0.29532 0.0
H3189 H 0.67822 0.94459 0.28423 0.0
H3190 H 0.5613 0.83524 0.28471 0.0
H3191 H 0.59102 0.9233 0.3132 0.0
H3192 H 0.6007 0.9352 0.30187 0.0
H3193 H 0.62282 0.9222 0.30827 0.0
C3194 C 0.60857 0.92315 0.2739 0.0
C3195 C 0.64098 0.9386 0.27516 0.0
C3196 C 0.58923 0.90269 0.28023 0.0
C3197 C 0.60165 0.89721 0.28804 0.0
C3198 C 0.63398 0.91287 0.28942 0.0
H3199 H 0.47268 0.73628 0.32019 0.0
H3200 H 0.52161 0.77451 0.31355 0.0
C3201 C 0.65346 0.93344 0.28306 0.0
C3202 C 0.58037 0.87441 0.29452 0.0
H3203 H 0.55351 0.86987 0.31552 0.0
C3204 C 0.55991 0.8427 0.29149 0.0
C3205 C 0.57838 0.88418 0.30335 0.0
C3206 C 0.59919 0.91811 0.30689 0.0
C3207 C 0.5371 0.82078 0.29695 0.0
C3208 C 0.53474 0.83065 0.30573 0.0
C3209 C 0.55562 0.86218 0.30884 0.0
C3210 C 0.50819 0.80982 0.31124 0.0
C3211 C 0.51464 0.78761 0.29313 0.0
C3212 C 0.48509 0.81756 0.31253 0.0
C3213 C 0.45737 0.79588 0.31626 0.0
C3214 C 0.45225 0.76614 0.31895 0.0
C3215 C 0.47624 0.75925 0.31831 0.0
C3216 C 0.50401 0.78092 0.31444 0.0
H3217 H 0.5171 0.78501 0.28585 0.0
H3218 H 0.51874 0.77008 0.2966 0.0
H3219 H 0.49049 0.78156 0.29423 0.0
H3220 H 0.48768 0.83959 0.31012 0.0
H3221 H 0.43912 0.80162 0.31659 0.0
H3222 H 0.09497 0.74567 0.2857 0.0
H3223 H 0.13373 0.74978 0.29684 0.0
H3224 H 0.17828 0.72603 0.27626 0.0
H3225 H 0.14064 0.72307 0.26511 0.0
H3226 H 0.14663 0.7047 0.30207 0.0
H3227 H 0.25156 0.80307 0.28839 0.0
H3228 H 0.21314 0.79364 0.28472 0.0
H3229 H 0.22999 0.77154 0.28009 0.0
C3230 C 0.11329 0.74185 0.28351 0.0
C3231 C 0.11448 0.73404 0.27444 0.0
C3232 C 0.1354 0.74406 0.28991 0.0
C3233 C 0.15938 0.73883 0.28739 0.0
C3234 C 0.16056 0.73099 0.27837 0.0
H3235 H 0.26093 0.6657 0.31215 0.0
H3236 H 0.22219 0.67712 0.30609 0.0
C3237 C 0.13858 0.72882 0.27199 0.0
C3238 C 0.18224 0.73974 0.29419 0.0
H3239 H 0.25965 0.76927 0.29832 0.0
C3240 C 0.17135 0.71928 0.30133 0.0
C3241 C 0.2146 0.75914 0.29339 0.0
C3242 C 0.22801 0.78333 0.28628 0.0
C3243 C 0.19177 0.71621 0.30731 0.0
C3244 C 0.22399 0.73368 0.30606 0.0
C3245 C 0.23499 0.75565 0.29927 0.0
C3246 C 0.24606 0.72655 0.31092 0.0
C3247 C 0.17854 0.69372 0.31481 0.0
C3248 C 0.27259 0.75048 0.31576 0.0
C3249 C 0.29495 0.74383 0.31935 0.0
C3250 C 0.29133 0.71336 0.31794 0.0
C3251 C 0.26427 0.68936 0.31339 0.0
C3252 C 0.24197 0.69583 0.30994 0.0
H3253 H 0.15624 0.6912 0.31679 0.0
H3254 H 0.17402 0.66975 0.31253 0.0
H3255 H 0.19481 0.70203 0.32078 0.0
H3256 H 0.2764 0.77446 0.31654 0.0
H3257 H 0.31578 0.76289 0.32272 0.0
loop_
_geom_bond_atom_site_label_1
_geom_bond_atom_site_label_2
_geom_bond_distance
_geom_bond_site_symmetry_2
_ccdc_geom_bond_type
Cu0 N1 1.999 . S
Cu0 O6 1.974 . S
Cu0 N11 1.985 . S
Cu0 O20 1.959 1_545 S
N1 Cu0 1.999 . S
N1 C3 1.263 . S
N1 C5 1.389 . S
N2 C3 1.358 . S
N2 C4 1.400 . S
C3 N1 1.263 . S
C3 N2 1.358 . S
C3 H9 0.930 . S
C4 N2 1.400 . S
C4 C5 1.351 . S
C4 H21 0.930 . S
C5 N1 1.389 . S
C5 C4 1.351 . S
C5 H10 0.930 1_545 S
O6 Cu0 1.974 . S
O6 C16 1.282 . S
C7 O8 1.261 . S
C7 O20 1.251 1_545 S
O8 C7 1.261 . S
H9 C3 0.930 . S
H10 C5 0.930 1_565 S
N11 Cu0 1.985 . S
N11 C13 1.335 1_545 S
N11 C14 1.390 . S
N12 C13 1.345 . S
N12 C15 1.336 1_565 S
C13 N11 1.335 1_565 S
C13 N12 1.345 . S
C13 H18 0.930 . S
C14 N11 1.390 . S
C14 C15 1.346 . S
C14 H19 0.930 . S
C15 N12 1.336 1_545 S
C15 C14 1.346 . S
C15 H22 0.929 . S
C16 O6 1.282 . S
C16 O17 1.216 . S
O17 C16 1.216 . S
H18 C13 0.930 . S
H19 C14 0.930 . S
O20 Cu0 1.959 1_565 S
O20 C7 1.251 1_565 S
H21 C4 0.930 . S
H22 C15 0.929 . S
Cu23 N24 1.999 . S
Cu23 O29 1.974 . S
Cu23 N34 1.985 . S
Cu23 O43 1.959 . S
N24 Cu23 1.999 . S
N24 C26 1.263 1_455 S
N24 C28 1.389 . S
N25 C26 1.358 . S
N25 C27 1.400 1_655 S
C26 N24 1.263 1_655 S
C26 N25 1.358 . S
C26 H32 0.930 . S
C27 N25 1.400 1_455 S
C27 C28 1.351 . S
C27 H44 0.930 . S
C28 N24 1.389 . S
C28 C27 1.351 . S
C28 H33 0.930 . S
O29 Cu23 1.974 . S
O29 C39 1.282 1_455 S
C30 O31 1.261 1_455 S
C30 O43 1.251 . S
O31 C30 1.261 1_655 S
H32 C26 0.930 . S
H33 C28 0.930 . S
N34 Cu23 1.985 . S
N34 C36 1.335 . S
N34 C37 1.390 . S
N35 C36 1.345 . S
N35 C38 1.336 . S
C36 N34 1.335 . S
C36 N35 1.345 . S
C36 H41 0.930 . S
C37 N34 1.390 . S
C37 C38 1.346 . S
C37 H42 0.940 . S
C38 N35 1.336 . S
C38 C37 1.346 . S
C38 H45 0.929 . S
C39 O29 1.282 1_655 S
C39 O40 1.216 . S
O40 C39 1.216 . S
H41 C36 0.930 . S
H42 C37 0.940 . S
O43 Cu23 1.959 . S
O43 C30 1.251 . S
H44 C27 0.930 . S
H45 C38 0.929 . S
Cu46 N47 1.999 . S
Cu46 O52 1.974 . S
Cu46 N57 1.985 . S
Cu46 O66 1.959 . S
N47 Cu46 1.999 . S
N47 C49 1.263 . S
N47 C51 1.389 . S
N48 C49 1.358 . S
N48 C50 1.400 . S
C49 N47 1.263 . S
C49 N48 1.358 . S
C49 H55 0.930 . S
C50 N48 1.400 . S
C50 C51 1.351 . S
C50 H67 0.930 . S
C51 N47 1.389 . S
C51 C50 1.351 . S
C51 H56 0.930 . S
O52 Cu46 1.974 . S
O52 C62 1.282 . S
C53 O54 1.261 . S
C53 O66 1.251 . S
O54 C53 1.261 . S
H55 C49 0.930 . S
H56 C51 0.930 . S
N57 Cu46 1.985 . S
N57 C59 1.335 . S
N57 C60 1.390 . S
N58 C59 1.345 . S
N58 C61 1.336 . S
C59 N57 1.335 . S
C59 N58 1.345 . S
C59 H64 0.930 . S
C60 N57 1.390 . S
C60 C61 1.346 . S
C60 H65 0.930 . S
C61 N58 1.336 . S
C61 C60 1.346 . S
C61 H68 0.929 . S
C62 O52 1.282 . S
C62 O63 1.216 . S
O63 C62 1.216 . S
H64 C59 0.930 . S
H65 C60 0.930 . S
O66 Cu46 1.959 . S
O66 C53 1.251 . S
H67 C50 0.930 . S
H68 C61 0.929 . S
Cu69 N70 1.999 . S
Cu69 O75 1.974 . S
Cu69 N80 1.985 . S
Cu69 O89 1.959 . S
N70 Cu69 1.999 . S
N70 C72 1.263 1_545 S
N70 C74 1.389 . S
N71 C72 1.358 . S
N71 C73 1.400 1_565 S
C72 N70 1.263 1_565 S
C72 N71 1.358 . S
C72 H78 0.930 . S
C73 N71 1.400 1_545 S
C73 C74 1.351 . S
C73 H90 0.930 . S
C74 N70 1.389 . S
C74 C73 1.351 . S
C74 H79 0.930 . S
O75 Cu69 1.974 . S
O75 C85 1.282 1_545 S
C76 O77 1.261 1_545 S
C76 O89 1.251 . S
O77 C76 1.261 1_565 S
H78 C72 0.930 . S
H79 C74 0.930 . S
N80 Cu69 1.985 . S
N80 C82 1.335 . S
N80 C83 1.390 . S
N81 C82 1.345 . S
N81 C84 1.336 . S
C82 N80 1.335 . S
C82 N81 1.345 . S
C82 H87 0.930 . S
C83 N80 1.390 . S
C83 C84 1.346 . S
C83 H88 0.930 . S
C84 N81 1.336 . S
C84 C83 1.346 . S
C84 H91 0.929 . S
C85 O75 1.282 1_565 S
C85 O86 1.216 . S
O86 C85 1.216 . S
H87 C82 0.930 . S
H88 C83 0.930 . S
O89 Cu69 1.959 . S
O89 C76 1.251 . S
H90 C73 0.930 . S
H91 C84 0.929 . S
Cu92 N93 1.999 . S
Cu92 O98 1.974 . S
Cu92 N103 1.985 . S
Cu92 O112 1.959 1_455 S
N93 Cu92 1.999 . S
N93 C95 1.263 . S
N93 C97 1.389 . S
N94 C95 1.358 . S
N94 C96 1.400 . S
C95 N93 1.263 . S
C95 N94 1.358 . S
C95 H101 0.930 . S
C96 N94 1.400 . S
C96 C97 1.351 . S
C96 H113 0.930 . S
C97 N93 1.389 . S
C97 C96 1.351 . S
C97 H102 0.930 1_455 S
O98 Cu92 1.974 . S
O98 C108 1.282 . S
C99 O100 1.261 . S
C99 O112 1.251 1_455 S
O100 C99 1.261 . S
H101 C95 0.930 . S
H102 C97 0.930 1_655 S
N103 Cu92 1.985 . S
N103 C105 1.335 1_455 S
N103 C106 1.390 . S
N104 C105 1.345 . S
N104 C107 1.336 1_655 S
C105 N103 1.335 1_655 S
C105 N104 1.345 . S
C105 H110 0.930 . S
C106 N103 1.390 . S
C106 C107 1.346 . S
C106 H111 0.930 . S
C107 N104 1.336 1_455 S
C107 C106 1.346 . S
C107 H114 0.929 . S
C108 O98 1.282 . S
C108 O109 1.216 . S
O109 C108 1.216 . S
H110 C105 0.930 . S
H111 C106 0.930 . S
O112 Cu92 1.959 1_655 S
O112 C99 1.251 1_655 S
H113 C96 0.930 . S
H114 C107 0.929 . S
Cu115 N116 1.999 . S
Cu115 O121 1.974 . S
Cu115 N126 1.985 . S
Cu115 O135 1.959 . S
N116 Cu115 1.999 . S
N116 C118 1.263 . S
N116 C120 1.389 . S
N117 C118 1.358 . S
N117 C119 1.400 . S
C118 N116 1.263 . S
C118 N117 1.358 . S
C118 H124 0.930 . S
C119 N117 1.400 . S
C119 C120 1.351 . S
C119 H136 0.930 . S
C120 N116 1.389 . S
C120 C119 1.351 . S
C120 H125 0.930 . S
O121 Cu115 1.974 . S
O121 C131 1.282 . S
C122 O123 1.261 . S
C122 O135 1.251 . S
O123 C122 1.261 . S
H124 C118 0.930 . S
H125 C120 0.930 . S
N126 Cu115 1.985 . S
N126 C128 1.335 . S
N126 C129 1.390 . S
N127 C128 1.345 . S
N127 C130 1.336 . S
C128 N126 1.335 . S
C128 N127 1.345 . S
C128 H133 0.930 . S
C129 N126 1.390 . S
C129 C130 1.346 . S
C129 H134 0.930 . S
C130 N127 1.336 . S
C130 C129 1.346 . S
C130 H137 0.929 . S
C131 O121 1.282 . S
C131 O132 1.216 . S
O132 C131 1.216 . S
H133 C128 0.930 . S
H134 C129 0.930 . S
O135 Cu115 1.959 . S
O135 C122 1.251 . S
H136 C119 0.930 . S
H137 C130 0.929 . S
Cu138 N139 1.999 . S
Cu138 O144 1.974 . S
Cu138 N149 1.985 . S
Cu138 O158 1.959 . S
N139 Cu138 1.999 . S
N139 C141 1.263 . S
N139 C143 1.389 . S
N140 C141 1.358 . S
N140 C142 1.400 . S
C141 N139 1.263 . S
C141 N140 1.358 . S
C141 H147 0.930 . S
C142 N140 1.400 . S
C142 C143 1.351 . S
C142 H159 0.930 . S
C143 N139 1.389 . S
C143 C142 1.351 . S
C143 H148 0.930 . S
O144 Cu138 1.974 . S
O144 C154 1.282 . S
C145 O146 1.261 . S
C145 O158 1.251 . S
O146 C145 1.261 . S
H147 C141 0.930 . S
H148 C143 0.930 . S
N149 Cu138 1.985 . S
N149 C151 1.335 . S
N149 C152 1.390 . S
N150 C151 1.345 . S
N150 C153 1.336 . S
C151 N149 1.335 . S
C151 N150 1.345 . S
C151 H156 0.930 . S
C152 N149 1.390 . S
C152 C153 1.346 . S
C152 H157 0.930 . S
C153 N150 1.336 . S
C153 C152 1.346 . S
C153 H160 0.929 . S
C154 O144 1.282 . S
C154 O155 1.216 . S
O155 C154 1.216 . S
H156 C151 0.930 . S
H157 C152 0.930 . S
O158 Cu138 1.959 . S
O158 C145 1.251 . S
H159 C142 0.930 . S
H160 C153 0.929 . S
Cu161 N162 1.999 . S
Cu161 O167 1.974 . S
Cu161 N172 1.985 . S
Cu161 O181 1.959 . S
N162 Cu161 1.999 . S
N162 C164 1.263 . S
N162 C166 1.389 . S
N163 C164 1.358 . S
N163 C165 1.400 . S
C164 N162 1.263 . S
C164 N163 1.358 . S
C164 H170 0.930 . S
C165 N163 1.400 . S
C165 C166 1.351 . S
C165 H182 0.930 . S
C166 N162 1.389 . S
C166 C165 1.351 . S
C166 H171 0.930 . S
O167 Cu161 1.974 . S
O167 C177 1.282 . S
C168 O169 1.261 . S
C168 O181 1.251 . S
O169 C168 1.261 . S
H170 C164 0.930 . S
H171 C166 0.930 . S
N172 Cu161 1.985 . S
N172 C174 1.335 . S
N172 C175 1.390 . S
N173 C174 1.345 . S
N173 C176 1.336 . S
C174 N172 1.335 . S
C174 N173 1.345 . S
C174 H179 0.930 . S
C175 N172 1.390 . S
C175 C176 1.346 . S
C175 H180 0.930 . S
C176 N173 1.336 . S
C176 C175 1.346 . S
C176 H183 0.929 1_545 S
C177 O167 1.282 . S
C177 O178 1.216 . S
O178 C177 1.216 . S
H179 C174 0.930 . S
H180 C175 0.930 . S
O181 Cu161 1.959 . S
O181 C168 1.251 . S
H182 C165 0.930 . S
H183 C176 0.929 1_565 S
Cu184 N185 1.999 . S
Cu184 O190 1.974 . S
Cu184 N195 1.985 1_655 S
Cu184 O204 1.959 . S
N185 Cu184 1.999 . S
N185 C187 1.263 . S
N185 C189 1.389 . S
N186 C187 1.358 . S
N186 C188 1.400 . S
C187 N185 1.263 . S
C187 N186 1.358 . S
C187 H193 0.930 . S
C188 N186 1.400 . S
C188 C189 1.351 . S
C188 H205 0.930 . S
C189 N185 1.389 . S
C189 C188 1.351 . S
C189 H194 0.930 . S
O190 Cu184 1.974 . S
O190 C200 1.282 . S
C191 O192 1.261 . S
C191 O204 1.251 . S
O192 C191 1.261 . S
H193 C187 0.930 . S
H194 C189 0.930 . S
N195 Cu184 1.985 1_455 S
N195 C197 1.335 . S
N195 C198 1.390 . S
N196 C197 1.345 . S
N196 C199 1.336 . S
C197 N195 1.335 . S
C197 N196 1.345 . S
C197 H202 0.930 . S
C198 N195 1.390 . S
C198 C199 1.346 . S
C198 H203 0.930 . S
C199 N196 1.336 . S
C199 C198 1.346 . S
C199 H206 0.929 . S
C200 O190 1.282 . S
C200 O201 1.216 . S
O201 C200 1.216 . S
H202 C197 0.930 . S
H203 C198 0.930 . S
O204 Cu184 1.959 . S
O204 C191 1.251 . S
H205 C188 0.930 . S
H206 C199 0.929 . S
Cu207 N208 1.999 . S
Cu207 O213 1.974 . S
Cu207 N218 1.985 1_655 S
Cu207 O227 1.959 . S
N208 Cu207 1.999 . S
N208 C210 1.263 . S
N208 C212 1.389 . S
N209 C210 1.358 . S
N209 C211 1.400 . S
C210 N208 1.263 . S
C210 N209 1.358 . S
C210 H216 0.930 . S
C211 N209 1.400 . S
C211 C212 1.351 . S
C211 H228 0.930 . S
C212 N208 1.389 . S
C212 C211 1.351 . S
C212 H217 0.930 . S
O213 Cu207 1.974 . S
O213 C223 1.282 . S
C214 O215 1.261 . S
C214 O227 1.251 . S
O215 C214 1.261 . S
H216 C210 0.930 . S
H217 C212 0.930 . S
N218 Cu207 1.985 1_455 S
N218 C220 1.335 . S
N218 C221 1.390 . S
N219 C220 1.345 . S
N219 C222 1.336 . S
C220 N218 1.335 . S
C220 N219 1.345 . S
C220 H225 0.930 . S
C221 N218 1.390 . S
C221 C222 1.346 . S
C221 H226 0.930 . S
C222 N219 1.336 . S
C222 C221 1.346 . S
C222 H229 0.929 . S
C223 O213 1.282 . S
C223 O224 1.216 . S
O224 C223 1.216 . S
H225 C220 0.930 . S
H226 C221 0.930 . S
O227 Cu207 1.959 . S
O227 C214 1.251 . S
H228 C211 0.930 . S
H229 C222 0.929 . S
Cu230 N231 1.999 . S
Cu230 O236 1.974 . S
Cu230 N241 1.985 . S
Cu230 O250 1.959 . S
N231 Cu230 1.999 . S
N231 C233 1.263 . S
N231 C235 1.389 . S
N232 C233 1.358 . S
N232 C234 1.400 . S
C233 N231 1.263 . S
C233 N232 1.358 . S
C233 H239 0.930 . S
C234 N232 1.400 . S
C234 C235 1.351 . S
C234 H251 0.930 . S
C235 N231 1.389 . S
C235 C234 1.351 . S
C235 H240 0.930 . S
O236 Cu230 1.974 . S
O236 C246 1.282 . S
C237 O238 1.261 . S
C237 O250 1.251 . S
O238 C237 1.261 . S
H239 C233 0.930 . S
H240 C235 0.930 . S
N241 Cu230 1.985 . S
N241 C243 1.335 . S
N241 C244 1.390 . S
N242 C243 1.345 . S
N242 C245 1.336 . S
C243 N241 1.335 . S
C243 N242 1.345 . S
C243 H248 0.930 . S
C244 N241 1.390 . S
C244 C245 1.346 . S
C244 H249 0.930 . S
C245 N242 1.336 . S
C245 C244 1.346 . S
C245 H252 0.929 . S
C246 O236 1.282 . S
C246 O247 1.216 . S
O247 C246 1.216 . S
H248 C243 0.930 . S
H249 C244 0.930 . S
O250 Cu230 1.959 . S
O250 C237 1.251 . S
H251 C234 0.930 . S
H252 C245 0.929 . S
Cu253 N254 1.999 . S
Cu253 O259 1.974 . S
Cu253 N264 1.985 . S
Cu253 O273 1.959 . S
N254 Cu253 1.999 . S
N254 C256 1.263 . S
N254 C258 1.389 . S
N255 C256 1.358 . S
N255 C257 1.400 . S
C256 N254 1.263 . S
C256 N255 1.358 . S
C256 H262 0.930 . S
C257 N255 1.400 . S
C257 C258 1.351 . S
C257 H274 0.930 . S
C258 N254 1.389 . S
C258 C257 1.351 . S
C258 H263 0.930 . S
O259 Cu253 1.974 . S
O259 C269 1.282 . S
C260 O261 1.261 . S
C260 O273 1.251 . S
O261 C260 1.261 . S
H262 C256 0.930 . S
H263 C258 0.930 . S
N264 Cu253 1.985 . S
N264 C266 1.335 . S
N264 C267 1.390 . S
N265 C266 1.345 . S
N265 C268 1.336 . S
C266 N264 1.335 . S
C266 N265 1.345 . S
C266 H271 0.930 . S
C267 N264 1.390 . S
C267 C268 1.346 . S
C267 H272 0.930 1_545 S
C268 N265 1.336 . S
C268 C267 1.346 . S
C268 H275 0.929 1_545 S
C269 O259 1.282 . S
C269 O270 1.216 . S
O270 C269 1.216 . S
H271 C266 0.930 . S
H272 C267 0.930 1_565 S
O273 Cu253 1.959 . S
O273 C260 1.251 . S
H274 C257 0.930 . S
H275 C268 0.929 1_565 S
Cu276 N277 1.999 . S
Cu276 O282 1.974 . S
Cu276 N287 1.985 . S
Cu276 O296 1.959 . S
N277 Cu276 1.999 . S
N277 C279 1.263 . S
N277 C281 1.389 . S
N278 C279 1.358 . S
N278 C280 1.400 . S
C279 N277 1.263 . S
C279 N278 1.358 . S
C279 H285 0.930 . S
C280 N278 1.400 . S
C280 C281 1.351 . S
C280 H297 0.930 . S
C281 N277 1.389 . S
C281 C280 1.351 . S
C281 H286 0.930 . S
O282 Cu276 1.974 . S
O282 C292 1.282 . S
C283 O284 1.261 . S
C283 O296 1.251 . S
O284 C283 1.261 . S
H285 C279 0.930 . S
H286 C281 0.930 . S
N287 Cu276 1.985 . S
N287 C289 1.335 . S
N287 C290 1.390 . S
N288 C289 1.345 1_655 S
N288 C291 1.336 . S
C289 N287 1.335 . S
C289 N288 1.345 1_455 S
C289 H294 0.930 . S
C290 N287 1.390 . S
C290 C291 1.346 1_455 S
C290 H295 0.930 . S
C291 N288 1.336 . S
C291 C290 1.346 1_655 S
C291 H298 0.929 . S
C292 O282 1.282 . S
C292 O293 1.216 . S
O293 C292 1.216 . S
H294 C289 0.930 . S
H295 C290 0.930 . S
O296 Cu276 1.959 . S
O296 C283 1.251 . S
H297 C280 0.930 . S
H298 C291 0.929 . S
Cu299 N300 1.999 . S
Cu299 O305 1.974 . S
Cu299 N310 1.985 . S
Cu299 O319 1.959 . S
N300 Cu299 1.999 . S
N300 C302 1.263 . S
N300 C304 1.389 . S
N301 C302 1.358 . S
N301 C303 1.400 . S
C302 N300 1.263 . S
C302 N301 1.358 . S
C302 H308 0.930 . S
C303 N301 1.400 . S
C303 C304 1.351 . S
C303 H320 0.930 . S
C304 N300 1.389 . S
C304 C303 1.351 . S
C304 H309 0.930 . S
O305 Cu299 1.974 . S
O305 C315 1.282 . S
C306 O307 1.261 . S
C306 O319 1.251 . S
O307 C306 1.261 . S
H308 C302 0.930 . S
H309 C304 0.930 . S
N310 Cu299 1.985 . S
N310 C312 1.335 . S
N310 C313 1.390 . S
N311 C312 1.345 . S
N311 C314 1.336 . S
C312 N310 1.335 . S
C312 N311 1.345 . S
C312 H317 0.930 . S
C313 N310 1.390 . S
C313 C314 1.346 . S
C313 H318 0.930 . S
C314 N311 1.336 . S
C314 C313 1.346 . S
C314 H321 0.929 . S
C315 O305 1.282 . S
C315 O316 1.216 . S
O316 C315 1.216 . S
H317 C312 0.930 . S
H318 C313 0.930 . S
O319 Cu299 1.959 . S
O319 C306 1.251 . S
H320 C303 0.930 . S
H321 C314 0.929 . S
Cu322 N323 1.999 . S
Cu322 O328 1.974 1_565 S
Cu322 N333 1.985 . S
Cu322 O342 1.959 . S
N323 Cu322 1.999 . S
N323 C325 1.263 . S
N323 C327 1.389 . S
N324 C325 1.358 . S
N324 C326 1.400 . S
C325 N323 1.263 . S
C325 N324 1.358 . S
C325 H331 0.930 . S
C326 N324 1.400 . S
C326 C327 1.351 . S
C326 H343 0.930 . S
C327 N323 1.389 . S
C327 C326 1.351 . S
C327 H332 0.930 . S
O328 Cu322 1.974 1_545 S
O328 C338 1.282 . S
C329 O330 1.261 . S
C329 O342 1.251 . S
O330 C329 1.261 . S
H331 C325 0.930 . S
H332 C327 0.930 . S
N333 Cu322 1.985 . S
N333 C335 1.335 . S
N333 C336 1.390 1_565 S
N334 C335 1.345 1_545 S
N334 C337 1.336 . S
C335 N333 1.335 . S
C335 N334 1.345 1_565 S
C335 H340 0.930 . S
C336 N333 1.390 1_545 S
C336 C337 1.346 . S
C336 H341 0.930 . S
C337 N334 1.336 . S
C337 C336 1.346 . S
C337 H344 0.929 . S
C338 O328 1.282 . S
C338 O339 1.216 . S
O339 C338 1.216 . S
H340 C335 0.930 . S
H341 C336 0.930 . S
O342 Cu322 1.959 . S
O342 C329 1.251 . S
H343 C326 0.930 . S
H344 C337 0.929 . S
Cu345 N346 1.999 . S
Cu345 O351 1.974 . S
Cu345 N356 1.985 . S
Cu345 O365 1.959 . S
N346 Cu345 1.999 . S
N346 C348 1.263 . S
N346 C350 1.389 . S
N347 C348 1.358 . S
N347 C349 1.400 . S
C348 N346 1.263 . S
C348 N347 1.358 . S
C348 H354 0.930 . S
C349 N347 1.400 . S
C349 C350 1.351 . S
C349 H366 0.930 . S
C350 N346 1.389 . S
C350 C349 1.351 . S
C350 H355 0.930 . S
O351 Cu345 1.974 . S
O351 C361 1.282 . S
C352 O353 1.261 . S
C352 O365 1.251 . S
O353 C352 1.261 . S
H354 C348 0.930 . S
H355 C350 0.930 . S
N356 Cu345 1.985 . S
N356 C358 1.335 . S
N356 C359 1.390 . S
N357 C358 1.345 . S
N357 C360 1.336 . S
C358 N356 1.335 . S
C358 N357 1.345 . S
C358 H363 0.930 . S
C359 N356 1.390 . S
C359 C360 1.346 . S
C359 H364 0.930 . S
C360 N357 1.336 . S
C360 C359 1.346 . S
C360 H367 0.929 . S
C361 O351 1.282 . S
C361 O362 1.216 . S
O362 C361 1.216 . S
H363 C358 0.930 . S
H364 C359 0.930 . S
O365 Cu345 1.959 . S
O365 C352 1.251 . S
H366 C349 0.930 . S
H367 C360 0.929 . S
Cu368 N369 1.999 . S
Cu368 O374 1.974 1_565 S
Cu368 N379 1.985 . S
Cu368 O388 1.959 . S
N369 Cu368 1.999 . S
N369 C371 1.263 . S
N369 C373 1.389 . S
N370 C371 1.358 . S
N370 C372 1.400 . S
C371 N369 1.263 . S
C371 N370 1.358 . S
C371 H377 0.930 . S
C372 N370 1.400 . S
C372 C373 1.351 . S
C372 H389 0.930 . S
C373 N369 1.389 . S
C373 C372 1.351 . S
C373 H378 0.930 . S
O374 Cu368 1.974 1_545 S
O374 C384 1.282 . S
C375 O376 1.261 . S
C375 O388 1.251 . S
O376 C375 1.261 . S
H377 C371 0.930 . S
H378 C373 0.930 . S
N379 Cu368 1.985 . S
N379 C381 1.335 . S
N379 C382 1.390 1_565 S
N380 C381 1.345 1_545 S
N380 C383 1.336 . S
C381 N379 1.335 . S
C381 N380 1.345 1_565 S
C381 H386 0.930 . S
C382 N379 1.390 1_545 S
C382 C383 1.346 . S
C382 H387 0.930 . S
C383 N380 1.336 . S
C383 C382 1.346 . S
C383 H390 0.929 . S
C384 O374 1.282 . S
C384 O385 1.216 . S
O385 C384 1.216 . S
H386 C381 0.930 . S
H387 C382 0.930 . S
O388 Cu368 1.959 . S
O388 C375 1.251 . S
H389 C372 0.930 . S
H390 C383 0.929 . S
Cu391 N392 1.999 . S
Cu391 O397 1.974 . S
Cu391 N402 1.985 . S
Cu391 O411 1.959 . S
N392 Cu391 1.999 . S
N392 C394 1.263 . S
N392 C396 1.389 . S
N393 C394 1.358 . S
N393 C395 1.400 . S
C394 N392 1.263 . S
C394 N393 1.358 . S
C394 H400 0.930 . S
C395 N393 1.400 . S
C395 C396 1.351 . S
C395 H412 0.930 . S
C396 N392 1.389 . S
C396 C395 1.351 . S
C396 H401 0.930 . S
O397 Cu391 1.974 . S
O397 C407 1.282 . S
C398 O399 1.261 . S
C398 O411 1.251 . S
O399 C398 1.261 . S
H400 C394 0.930 . S
H401 C396 0.930 . S
N402 Cu391 1.985 . S
N402 C404 1.335 . S
N402 C405 1.390 . S
N403 C404 1.345 1_655 S
N403 C406 1.336 . S
C404 N402 1.335 . S
C404 N403 1.345 1_455 S
C404 H409 0.930 . S
C405 N402 1.390 . S
C405 C406 1.346 1_455 S
C405 H410 0.930 . S
C406 N403 1.336 . S
C406 C405 1.346 1_655 S
C406 H413 0.929 . S
C407 O397 1.282 . S
C407 O408 1.216 . S
O408 C407 1.216 . S
H409 C404 0.930 . S
H410 C405 0.930 . S
O411 Cu391 1.959 . S
O411 C398 1.251 . S
H412 C395 0.930 . S
H413 C406 0.929 . S
Zn414 O420 1.920 1_455 S
Zn414 O426 1.898 1_445 S
Zn414 O429 1.905 . S
Zn415 O423 1.905 1_545 S
Zn415 O424 1.898 . S
Zn415 O432 1.920 1_455 S
Zn416 O419 2.080 . S
Zn416 O422 2.114 1_545 S
Zn416 O425 2.120 . S
Zn416 O427 2.120 1_445 S
Zn416 O428 2.114 . S
Zn416 O431 2.080 1_455 S
C417 O422 1.166 . S
C417 O423 1.182 . S
C418 O424 1.167 . S
C418 O425 1.299 . S
O419 Zn416 2.080 . S
O419 C433 1.298 1_455 S
O420 Zn414 1.920 1_655 S
O420 C433 1.233 . S
C421 O426 1.167 . S
C421 O427 1.299 . S
O422 Zn416 2.114 1_565 S
O422 C417 1.166 . S
O423 Zn415 1.905 1_565 S
O423 C417 1.182 . S
O424 Zn415 1.898 . S
O424 C418 1.167 . S
O425 Zn416 2.120 . S
O425 C418 1.299 . S
O426 Zn414 1.898 1_665 S
O426 C421 1.167 . S
O427 Zn416 2.120 1_665 S
O427 C421 1.299 . S
O428 Zn416 2.114 . S
O428 C430 1.166 . S
O429 Zn414 1.905 . S
O429 C430 1.182 . S
C430 O428 1.166 . S
C430 O429 1.182 . S
O431 Zn416 2.080 1_655 S
O431 C434 1.305 . S
O432 Zn415 1.920 1_655 S
O432 C434 1.234 . S
C433 O419 1.298 1_655 S
C433 O420 1.233 . S
C434 O431 1.305 . S
C434 O432 1.234 . S
Zn435 O441 1.920 1_545 S
Zn435 O447 1.898 . S
Zn435 O450 1.905 1_455 S
Zn436 O444 1.905 . S
Zn436 O445 1.898 1_445 S
Zn436 O453 1.920 . S
Zn437 O440 2.080 1_545 S
Zn437 O443 2.114 . S
Zn437 O446 2.120 1_445 S
Zn437 O448 2.120 . S
Zn437 O449 2.114 1_455 S
Zn437 O452 2.080 . S
C438 O443 1.166 . S
C438 O444 1.182 . S
C439 O445 1.167 . S
C439 O446 1.299 . S
O440 Zn437 2.080 1_565 S
O440 C454 1.305 . S
O441 Zn435 1.920 1_565 S
O441 C454 1.234 . S
C442 O447 1.167 . S
C442 O448 1.299 . S
O443 Zn437 2.114 . S
O443 C438 1.166 . S
O444 Zn436 1.905 . S
O444 C438 1.182 . S
O445 Zn436 1.898 1_665 S
O445 C439 1.167 . S
O446 Zn437 2.120 1_665 S
O446 C439 1.299 . S
O447 Zn435 1.898 . S
O447 C442 1.167 . S
O448 Zn437 2.120 . S
O448 C442 1.299 . S
O449 Zn437 2.114 1_655 S
O449 C451 1.166 . S
O450 Zn435 1.905 1_655 S
O450 C451 1.182 . S
C451 O449 1.166 . S
C451 O450 1.182 . S
O452 Zn437 2.080 . S
O452 C455 1.305 . S
O453 Zn436 1.920 . S
O453 C455 1.234 . S
C454 O440 1.305 . S
C454 O441 1.234 . S
C455 O452 1.305 . S
C455 O453 1.234 . S
Zn456 O462 1.920 1_545 S
Zn456 O468 1.898 . S
Zn456 O471 1.905 1_455 S
Zn457 O465 1.905 . S
Zn457 O466 1.898 1_445 S
Zn457 O474 1.917 1_545 S
Zn458 O461 2.080 1_545 S
Zn458 O464 2.114 . S
Zn458 O467 2.120 1_445 S
Zn458 O469 2.120 . S
Zn458 O470 2.114 1_455 S
Zn458 O473 2.080 . S
C459 O464 1.166 . S
C459 O465 1.182 . S
C460 O466 1.167 . S
C460 O467 1.299 . S
O461 Zn458 2.080 1_565 S
O461 C475 1.305 . S
O462 Zn456 1.920 1_565 S
O462 C475 1.234 . S
C463 O468 1.167 . S
C463 O469 1.299 . S
O464 Zn458 2.114 . S
O464 C459 1.166 . S
O465 Zn457 1.905 . S
O465 C459 1.182 . S
O466 Zn457 1.898 1_665 S
O466 C460 1.167 . S
O467 Zn458 2.120 1_665 S
O467 C460 1.299 . S
O468 Zn456 1.898 . S
O468 C463 1.167 . S
O469 Zn458 2.120 . S
O469 C463 1.299 . S
O470 Zn458 2.114 1_655 S
O470 C472 1.166 . S
O471 Zn456 1.905 1_655 S
O471 C472 1.182 . S
C472 O470 1.166 . S
C472 O471 1.182 . S
O473 Zn458 2.080 . S
O473 C476 1.305 . S
O474 Zn457 1.917 1_565 S
O474 C476 1.235 1_565 S
C475 O461 1.305 . S
C475 O462 1.234 . S
C476 O473 1.305 . S
C476 O474 1.235 1_545 S
Zn477 O483 1.920 . S
Zn477 O489 1.898 1_445 S
Zn477 O492 1.905 . S
Zn478 O486 1.903 1_545 S
Zn478 O487 1.898 . S
Zn478 O495 1.920 1_455 S
Zn479 O482 2.080 . S
Zn479 O485 2.114 1_545 S
Zn479 O488 2.120 . S
Zn479 O490 2.120 1_445 S
Zn479 O491 2.114 . S
Zn479 O494 2.080 1_455 S
C480 O485 1.166 . S
C480 O486 1.187 . S
C481 O487 1.167 . S
C481 O488 1.299 . S
O482 Zn479 2.080 . S
O482 C496 1.305 . S
O483 Zn477 1.920 . S
O483 C496 1.234 . S
C484 O489 1.167 . S
C484 O490 1.299 . S
O485 Zn479 2.114 1_565 S
O485 C480 1.166 . S
O486 Zn478 1.903 1_565 S
O486 C480 1.187 . S
O487 Zn478 1.898 . S
O487 C481 1.167 . S
O488 Zn479 2.120 . S
O488 C481 1.299 . S
O489 Zn477 1.898 1_665 S
O489 C484 1.167 . S
O490 Zn479 2.120 1_665 S
O490 C484 1.299 . S
O491 Zn479 2.114 . S
O491 C493 1.166 . S
O492 Zn477 1.905 . S
O492 C493 1.182 . S
C493 O491 1.166 . S
C493 O492 1.182 . S
O494 Zn479 2.080 1_655 S
O494 C497 1.305 . S
O495 Zn478 1.920 1_655 S
O495 C497 1.234 . S
C496 O482 1.305 . S
C496 O483 1.234 . S
C497 O494 1.305 . S
C497 O495 1.234 . S
Zn498 O504 1.920 . S
Zn498 O510 1.898 . S
Zn498 O513 1.905 . S
Zn499 O507 1.905 . S
Zn499 O508 1.898 . S
Zn499 O516 1.920 . S
Zn500 O503 2.080 . S
Zn500 O506 2.114 . S
Zn500 O509 2.120 . S
Zn500 O511 2.120 . S
Zn500 O512 2.114 . S
Zn500 O515 2.080 . S
C501 O506 1.166 . S
C501 O507 1.182 . S
C502 O508 1.167 . S
C502 O509 1.299 . S
O503 Zn500 2.080 . S
O503 C517 1.305 . S
O504 Zn498 1.920 . S
O504 C517 1.234 . S
C505 O510 1.167 . S
C505 O511 1.299 . S
O506 Zn500 2.114 . S
O506 C501 1.166 . S
O507 Zn499 1.905 . S
O507 C501 1.182 . S
O508 Zn499 1.898 . S
O508 C502 1.167 . S
O509 Zn500 2.120 . S
O509 C502 1.299 . S
O510 Zn498 1.898 . S
O510 C505 1.167 . S
O511 Zn500 2.120 . S
O511 C505 1.299 . S
O512 Zn500 2.114 . S
O512 C514 1.166 . S
O513 Zn498 1.905 . S
O513 C514 1.182 . S
C514 O512 1.166 . S
C514 O513 1.182 . S
O515 Zn500 2.080 . S
O515 C518 1.305 . S
O516 Zn499 1.920 . S
O516 C518 1.234 . S
C517 O503 1.305 . S
C517 O504 1.234 . S
C518 O515 1.305 . S
C518 O516 1.234 . S
Zn519 O525 1.920 . S
Zn519 O531 1.898 . S
Zn519 O534 1.905 . S
Zn520 O528 1.905 . S
Zn520 O529 1.898 . S
Zn520 O537 1.920 . S
Zn521 O524 2.080 . S
Zn521 O527 2.114 . S
Zn521 O530 2.120 . S
Zn521 O532 2.120 . S
Zn521 O533 2.114 . S
Zn521 O536 2.080 . S
C522 O527 1.166 . S
C522 O528 1.182 . S
C523 O529 1.167 . S
C523 O530 1.299 . S
O524 Zn521 2.080 . S
O524 C538 1.305 . S
O525 Zn519 1.920 . S
O525 C538 1.234 . S
C526 O531 1.167 . S
C526 O532 1.299 . S
O527 Zn521 2.114 . S
O527 C522 1.166 . S
O528 Zn520 1.905 . S
O528 C522 1.182 . S
O529 Zn520 1.898 . S
O529 C523 1.167 . S
O530 Zn521 2.120 . S
O530 C523 1.299 . S
O531 Zn519 1.898 . S
O531 C526 1.167 . S
O532 Zn521 2.120 . S
O532 C526 1.299 . S
O533 Zn521 2.114 . S
O533 C535 1.166 . S
O534 Zn519 1.905 . S
O534 C535 1.182 . S
C535 O533 1.166 . S
C535 O534 1.182 . S
O536 Zn521 2.080 . S
O536 C539 1.305 . S
O537 Zn520 1.920 . S
O537 C539 1.234 . S
C538 O524 1.305 . S
C538 O525 1.234 . S
C539 O536 1.305 . S
C539 O537 1.234 . S
Zn540 O546 1.920 . S
Zn540 O552 1.898 . S
Zn540 O555 1.905 . S
Zn541 O549 1.905 . S
Zn541 O550 1.898 . S
Zn541 O558 1.920 . S
Zn542 O545 2.080 . S
Zn542 O548 2.114 . S
Zn542 O551 2.120 . S
Zn542 O553 2.120 . S
Zn542 O554 2.114 . S
Zn542 O557 2.080 . S
C543 O548 1.166 . S
C543 O549 1.182 . S
C544 O550 1.167 . S
C544 O551 1.299 . S
O545 Zn542 2.080 . S
O545 C559 1.305 . S
O546 Zn540 1.920 . S
O546 C559 1.234 . S
C547 O552 1.167 . S
C547 O553 1.299 . S
O548 Zn542 2.114 . S
O548 C543 1.166 . S
O549 Zn541 1.905 . S
O549 C543 1.182 . S
O550 Zn541 1.898 . S
O550 C544 1.167 . S
O551 Zn542 2.120 . S
O551 C544 1.299 . S
O552 Zn540 1.898 . S
O552 C547 1.167 . S
O553 Zn542 2.120 . S
O553 C547 1.299 . S
O554 Zn542 2.114 . S
O554 C556 1.166 . S
O555 Zn540 1.905 . S
O555 C556 1.182 . S
C556 O554 1.166 . S
C556 O555 1.182 . S
O557 Zn542 2.080 . S
O557 C560 1.305 . S
O558 Zn541 1.920 . S
O558 C560 1.234 . S
C559 O545 1.305 . S
C559 O546 1.234 . S
C560 O557 1.305 . S
C560 O558 1.234 . S
Zn561 O567 1.920 . S
Zn561 O573 1.898 . S
Zn561 O576 1.905 . S
Zn562 O570 1.905 . S
Zn562 O571 1.898 . S
Zn562 O579 1.920 . S
Zn563 O566 2.139 . S
Zn563 O569 2.114 . S
Zn563 O572 2.120 . S
Zn563 O574 2.120 . S
Zn563 O575 2.191 . S
Zn563 O578 2.080 . S
C564 O569 1.166 . S
C564 O570 1.182 . S
C565 O571 1.167 . S
C565 O572 1.299 . S
O566 Zn563 2.139 . S
O566 C580 1.229 1_556 S
O567 Zn561 1.920 . S
O567 C580 1.234 . S
C568 O573 1.167 . S
C568 O574 1.299 1_554 S
O569 Zn563 2.114 . S
O569 C564 1.166 . S
O570 Zn562 1.905 . S
O570 C564 1.182 . S
O571 Zn562 1.898 . S
O571 C565 1.167 . S
O572 Zn563 2.120 . S
O572 C565 1.299 . S
O573 Zn561 1.898 . S
O573 C568 1.167 . S
O574 Zn563 2.120 . S
O574 C568 1.299 1_556 S
O575 Zn563 2.191 . S
O575 C577 1.062 1_556 S
O576 Zn561 1.905 . S
O576 C577 1.182 . S
C577 O575 1.062 1_554 S
C577 O576 1.182 . S
O578 Zn563 2.080 . S
O578 C581 1.305 . S
O579 Zn562 1.920 . S
O579 C581 1.234 . S
C580 O566 1.229 1_554 S
C580 O567 1.234 . S
C581 O578 1.305 . S
C581 O579 1.234 . S
Zn582 O588 1.920 . S
Zn582 O594 1.898 . S
Zn582 O597 1.905 . S
Zn583 O591 1.905 . S
Zn583 O592 1.898 . S
Zn583 O600 1.920 . S
Zn584 O587 2.080 . S
Zn584 O590 2.114 . S
Zn584 O593 2.120 . S
Zn584 O595 2.120 . S
Zn584 O596 2.114 . S
Zn584 O599 2.080 . S
C585 O590 1.166 . S
C585 O591 1.182 . S
C586 O592 1.167 . S
C586 O593 1.299 . S
O587 Zn584 2.080 . S
O587 C601 1.305 . S
O588 Zn582 1.920 . S
O588 C601 1.234 . S
C589 O594 1.167 . S
C589 O595 1.299 . S
O590 Zn584 2.114 . S
O590 C585 1.166 . S
O591 Zn583 1.905 . S
O591 C585 1.182 . S
O592 Zn583 1.898 . S
O592 C586 1.167 . S
O593 Zn584 2.120 . S
O593 C586 1.299 . S
O594 Zn582 1.898 . S
O594 C589 1.167 . S
O595 Zn584 2.120 . S
O595 C589 1.299 . S
O596 Zn584 2.114 . S
O596 C598 1.166 . S
O597 Zn582 1.905 . S
O597 C598 1.182 . S
C598 O596 1.166 . S
C598 O597 1.182 . S
O599 Zn584 2.080 . S
O599 C602 1.305 . S
O600 Zn583 1.920 . S
O600 C602 1.234 . S
C601 O587 1.305 . S
C601 O588 1.234 . S
C602 O599 1.305 . S
C602 O600 1.234 . S
Zn603 O609 1.920 . S
Zn603 O615 1.898 . S
Zn603 O618 1.905 . S
Zn604 O612 1.905 . S
Zn604 O613 1.898 . S
Zn604 O621 1.920 . S
Zn605 O608 2.080 . S
Zn605 O611 2.191 . S
Zn605 O614 2.120 . S
Zn605 O616 2.120 . S
Zn605 O617 2.114 . S
Zn605 O620 2.139 . S
C606 O611 1.062 1_556 S
C606 O612 1.182 . S
C607 O613 1.167 . S
C607 O614 1.299 1_556 S
O608 Zn605 2.080 . S
O608 C622 1.305 . S
O609 Zn603 1.920 . S
O609 C622 1.234 . S
C610 O615 1.167 . S
C610 O616 1.299 . S
O611 Zn605 2.191 . S
O611 C606 1.062 1_554 S
O612 Zn604 1.905 . S
O612 C606 1.182 . S
O613 Zn604 1.898 . S
O613 C607 1.167 . S
O614 Zn605 2.120 . S
O614 C607 1.299 1_554 S
O615 Zn603 1.898 . S
O615 C610 1.167 . S
O616 Zn605 2.120 . S
O616 C610 1.299 . S
O617 Zn605 2.114 . S
O617 C619 1.166 . S
O618 Zn603 1.905 . S
O618 C619 1.182 . S
C619 O617 1.166 . S
C619 O618 1.182 . S
O620 Zn605 2.139 . S
O620 C623 1.229 1_554 S
O621 Zn604 1.920 . S
O621 C623 1.234 . S
C622 O608 1.305 . S
C622 O609 1.234 . S
C623 O620 1.229 1_556 S
C623 O621 1.234 . S
Zn624 O630 1.920 . S
Zn624 O636 1.898 . S
Zn624 O639 1.905 . S
Zn625 O633 1.905 . S
Zn625 O634 1.898 . S
Zn625 O642 1.920 . S
Zn626 O629 2.080 . S
Zn626 O632 2.114 . S
Zn626 O635 2.120 . S
Zn626 O637 2.120 . S
Zn626 O638 2.114 . S
Zn626 O641 2.080 . S
C627 O632 1.166 . S
C627 O633 1.182 . S
C628 O634 1.167 . S
C628 O635 1.299 . S
O629 Zn626 2.080 . S
O629 C643 1.305 . S
O630 Zn624 1.920 . S
O630 C643 1.234 . S
C631 O636 1.167 . S
C631 O637 1.299 . S
O632 Zn626 2.114 . S
O632 C627 1.166 . S
O633 Zn625 1.905 . S
O633 C627 1.182 . S
O634 Zn625 1.898 . S
O634 C628 1.167 . S
O635 Zn626 2.120 . S
O635 C628 1.299 . S
O636 Zn624 1.898 . S
O636 C631 1.167 . S
O637 Zn626 2.120 . S
O637 C631 1.299 . S
O638 Zn626 2.114 . S
O638 C640 1.166 . S
O639 Zn624 1.905 . S
O639 C640 1.182 . S
C640 O638 1.166 . S
C640 O639 1.182 . S
O641 Zn626 2.080 . S
O641 C644 1.305 . S
O642 Zn625 1.920 . S
O642 C644 1.234 . S
C643 O629 1.305 . S
C643 O630 1.234 . S
C644 O641 1.305 . S
C644 O642 1.234 . S
Zn645 O651 1.920 . S
Zn645 O657 1.898 . S
Zn645 O660 1.905 . S
Zn646 O654 1.905 . S
Zn646 O655 1.898 . S
Zn646 O663 1.920 . S
Zn647 O650 2.080 . S
Zn647 O653 2.114 . S
Zn647 O656 2.120 . S
Zn647 O658 2.120 . S
Zn647 O659 2.114 . S
Zn647 O662 2.080 . S
C648 O653 1.166 . S
C648 O654 1.182 . S
C649 O655 1.167 . S
C649 O656 1.299 . S
O650 Zn647 2.080 . S
O650 C664 1.305 . S
O651 Zn645 1.920 . S
O651 C664 1.234 . S
C652 O657 1.167 . S
C652 O658 1.299 . S
O653 Zn647 2.114 . S
O653 C648 1.166 . S
O654 Zn646 1.905 . S
O654 C648 1.182 . S
O655 Zn646 1.898 . S
O655 C649 1.167 . S
O656 Zn647 2.120 . S
O656 C649 1.299 . S
O657 Zn645 1.898 . S
O657 C652 1.167 . S
O658 Zn647 2.120 . S
O658 C652 1.299 . S
O659 Zn647 2.114 . S
O659 C661 1.166 . S
O660 Zn645 1.905 . S
O660 C661 1.182 . S
C661 O659 1.166 . S
C661 O660 1.182 . S
O662 Zn647 2.080 . S
O662 C665 1.305 . S
O663 Zn646 1.920 . S
O663 C665 1.234 . S
C664 O650 1.305 . S
C664 O651 1.234 . S
C665 O662 1.305 . S
C665 O663 1.234 . S
H666 C674 0.929 . S
H667 C676 0.930 . S
H668 C678 0.930 . S
H669 C681 0.929 . S
H670 C684 0.930 . S
H671 C686 0.960 . S
H672 C686 0.960 . S
H673 C686 0.960 . S
C674 H666 0.929 . S
C674 C675 1.377 . S
C674 C676 1.384 . S
C675 C674 1.377 . S
C675 C681 1.390 . S
C676 H667 0.930 . S
C676 C674 1.384 . S
C676 C677 1.372 . S
C677 C676 1.372 . S
C677 C678 1.400 . S
C677 C682 1.490 . S
C678 H668 0.930 . S
C678 C677 1.400 . S
C678 C681 1.386 . S
H679 C695 0.930 . S
H680 C696 0.931 . S
C681 H669 0.929 . S
C681 C675 1.390 . S
C681 C678 1.386 . S
C682 C677 1.490 . S
C682 C684 1.395 . S
C682 C685 1.403 . S
H683 C689 0.930 . S
C684 H670 0.930 . S
C684 C682 1.395 . S
C684 C687 1.403 . S
C685 C682 1.403 . S
C685 C686 1.524 . S
C685 C689 1.400 . S
C686 H671 0.960 . S
C686 H672 0.960 . S
C686 H673 0.960 . S
C686 C685 1.524 . S
C687 C684 1.403 . S
C687 C688 1.392 . S
C687 C691 1.495 . S
C688 C687 1.392 . S
C688 C689 1.385 . S
C688 C690 1.478 . S
C689 H683 0.930 . S
C689 C685 1.400 . S
C689 C688 1.385 . S
C690 C688 1.478 . S
C690 C692 1.381 . S
C690 C696 1.383 . S
C691 C687 1.495 . S
C691 H697 0.959 . S
C691 H698 0.961 . S
C691 H699 0.960 . S
C692 C690 1.381 . S
C692 C693 1.394 . S
C692 H700 0.930 . S
C693 C692 1.394 . S
C693 C694 1.383 . S
C693 H701 0.929 . S
C694 C693 1.383 . S
C694 C695 1.377 . S
C695 H679 0.930 . S
C695 C694 1.377 . S
C695 C696 1.379 . S
C696 H680 0.931 . S
C696 C690 1.383 . S
C696 C695 1.379 . S
H697 C691 0.959 . S
H698 C691 0.961 . S
H699 C691 0.960 . S
H700 C692 0.930 . S
H701 C693 0.929 . S
H702 C710 0.929 . S
H703 C712 0.930 . S
H704 C714 0.930 . S
H705 C717 0.929 . S
H706 C720 0.930 . S
H707 C722 0.960 . S
H708 C722 0.960 . S
H709 C722 0.960 . S
C710 H702 0.929 . S
C710 C711 1.377 . S
C710 C712 1.384 . S
C711 C710 1.377 . S
C711 C717 1.390 . S
C712 H703 0.930 . S
C712 C710 1.384 . S
C712 C713 1.372 . S
C713 C712 1.372 . S
C713 C714 1.400 . S
C713 C718 1.490 . S
C714 H704 0.930 . S
C714 C713 1.400 . S
C714 C717 1.386 . S
H715 C731 0.930 . S
H716 C732 0.931 . S
C717 H705 0.929 . S
C717 C711 1.390 . S
C717 C714 1.386 . S
C718 C713 1.490 . S
C718 C720 1.395 . S
C718 C721 1.403 . S
H719 C725 0.930 . S
C720 H706 0.930 . S
C720 C718 1.395 . S
C720 C723 1.403 . S
C721 C718 1.403 . S
C721 C722 1.524 . S
C721 C725 1.400 . S
C722 H707 0.960 . S
C722 H708 0.960 . S
C722 H709 0.960 . S
C722 C721 1.524 . S
C723 C720 1.403 . S
C723 C724 1.392 . S
C723 C727 1.495 . S
C724 C723 1.392 . S
C724 C725 1.385 . S
C724 C726 1.478 . S
C725 H719 0.930 . S
C725 C721 1.400 . S
C725 C724 1.385 . S
C726 C724 1.478 . S
C726 C728 1.381 . S
C726 C732 1.383 . S
C727 C723 1.495 . S
C727 H733 0.959 . S
C727 H734 0.961 . S
C727 H735 0.960 . S
C728 C726 1.381 . S
C728 C729 1.394 . S
C728 H736 0.930 . S
C729 C728 1.394 . S
C729 C730 1.383 . S
C729 H737 0.929 . S
C730 C729 1.383 . S
C730 C731 1.377 . S
C731 H715 0.930 . S
C731 C730 1.377 . S
C731 C732 1.379 . S
C732 H716 0.931 . S
C732 C726 1.383 . S
C732 C731 1.379 . S
H733 C727 0.959 . S
H734 C727 0.961 . S
H735 C727 0.960 . S
H736 C728 0.930 . S
H737 C729 0.929 . S
H738 C746 0.929 . S
H739 C748 0.930 . S
H740 C750 0.929 . S
H741 C753 0.929 1_455 S
H742 C756 0.930 . S
H743 C758 0.960 . S
H744 C758 0.960 . S
H745 C758 0.960 . S
C746 H738 0.929 . S
C746 C747 1.377 . S
C746 C748 1.384 . S
C747 C746 1.377 . S
C747 C753 1.390 . S
C748 H739 0.930 . S
C748 C746 1.384 . S
C748 C749 1.372 . S
C749 C748 1.372 . S
C749 C750 1.401 1_655 S
C749 C754 1.490 . S
C750 H740 0.929 . S
C750 C749 1.401 1_455 S
C750 C753 1.385 1_455 S
H751 C767 0.930 . S
H752 C768 0.931 . S
C753 H741 0.929 1_655 S
C753 C747 1.390 . S
C753 C750 1.385 1_655 S
C754 C749 1.490 . S
C754 C756 1.395 . S
C754 C757 1.403 1_655 S
H755 C761 0.930 . S
C756 H742 0.930 . S
C756 C754 1.395 . S
C756 C759 1.403 . S
C757 C754 1.403 1_455 S
C757 C758 1.524 . S
C757 C761 1.400 . S
C758 H743 0.960 . S
C758 H744 0.960 . S
C758 H745 0.960 . S
C758 C757 1.524 . S
C759 C756 1.403 . S
C759 C760 1.392 . S
C759 C763 1.495 . S
C760 C759 1.392 . S
C760 C761 1.385 1_655 S
C760 C762 1.478 . S
C761 H755 0.930 . S
C761 C757 1.400 . S
C761 C760 1.385 1_455 S
C762 C760 1.478 . S
C762 C764 1.381 . S
C762 C768 1.383 1_655 S
C763 C759 1.495 . S
C763 H769 0.959 . S
C763 H770 0.961 . S
C763 H771 0.960 . S
C764 C762 1.381 . S
C764 C765 1.394 . S
C764 H772 0.930 . S
C765 C764 1.394 . S
C765 C766 1.383 . S
C765 H773 0.929 . S
C766 C765 1.383 . S
C766 C767 1.377 1_655 S
C767 H751 0.930 . S
C767 C766 1.377 1_455 S
C767 C768 1.379 . S
C768 H752 0.931 . S
C768 C762 1.383 1_455 S
C768 C767 1.379 . S
H769 C763 0.959 . S
H770 C763 0.961 . S
H771 C763 0.960 . S
H772 C764 0.930 . S
H773 C765 0.929 . S
H774 C782 0.929 . S
H775 C784 0.930 . S
H776 C786 0.930 . S
H777 C789 0.929 . S
H778 C792 0.930 . S
H779 C794 0.960 . S
H780 C794 0.960 . S
H781 C794 0.960 . S
C782 H774 0.929 . S
C782 C783 1.377 . S
C782 C784 1.384 . S
C783 C782 1.377 . S
C783 C789 1.390 . S
C784 H775 0.930 . S
C784 C782 1.384 . S
C784 C785 1.372 . S
C785 C784 1.372 . S
C785 C786 1.400 . S
C785 C790 1.490 . S
C786 H776 0.930 . S
C786 C785 1.400 . S
C786 C789 1.386 . S
H787 C803 0.930 . S
H788 C804 0.931 . S
C789 H777 0.929 . S
C789 C783 1.390 . S
C789 C786 1.386 . S
C790 C785 1.490 . S
C790 C792 1.395 . S
C790 C793 1.403 . S
H791 C797 0.930 . S
C792 H778 0.930 . S
C792 C790 1.395 . S
C792 C795 1.403 . S
C793 C790 1.403 . S
C793 C794 1.524 . S
C793 C797 1.400 . S
C794 H779 0.960 . S
C794 H780 0.960 . S
C794 H781 0.960 . S
C794 C793 1.524 . S
C795 C792 1.403 . S
C795 C796 1.392 . S
C795 C799 1.495 . S
C796 C795 1.392 . S
C796 C797 1.385 . S
C796 C798 1.478 . S
C797 H791 0.930 . S
C797 C793 1.400 . S
C797 C796 1.385 . S
C798 C796 1.478 . S
C798 C800 1.381 . S
C798 C804 1.383 . S
C799 C795 1.495 . S
C799 H805 0.959 . S
C799 H806 0.961 . S
C799 H807 0.960 . S
C800 C798 1.381 . S
C800 C801 1.394 . S
C800 H808 0.930 . S
C801 C800 1.394 . S
C801 C802 1.383 . S
C801 H809 0.929 . S
C802 C801 1.383 . S
C802 C803 1.377 . S
C803 H787 0.930 . S
C803 C802 1.377 . S
C803 C804 1.379 . S
C804 H788 0.931 . S
C804 C798 1.383 . S
C804 C803 1.379 . S
H805 C799 0.959 . S
H806 C799 0.961 . S
H807 C799 0.960 . S
H808 C800 0.930 . S
H809 C801 0.929 . S
H810 C818 0.929 . S
H811 C820 0.930 . S
H812 C822 0.930 . S
H813 C825 0.929 . S
H814 C828 0.930 . S
H815 C830 0.960 . S
H816 C830 0.960 1_565 S
H817 C830 0.960 . S
C818 H810 0.929 . S
C818 C819 1.377 1_565 S
C818 C820 1.384 . S
C819 C818 1.377 1_545 S
C819 C825 1.390 . S
C820 H811 0.930 . S
C820 C818 1.384 . S
C820 C821 1.372 1_565 S
C821 C820 1.372 1_545 S
C821 C822 1.400 . S
C821 C826 1.490 . S
C822 H812 0.930 . S
C822 C821 1.400 . S
C822 C825 1.386 . S
H823 C839 0.930 . S
H824 C840 0.931 . S
C825 H813 0.929 . S
C825 C819 1.390 . S
C825 C822 1.386 . S
C826 C821 1.490 . S
C826 C828 1.395 . S
C826 C829 1.403 . S
H827 C833 0.930 . S
C828 H814 0.930 . S
C828 C826 1.395 . S
C828 C831 1.403 . S
C829 C826 1.403 . S
C829 C830 1.524 . S
C829 C833 1.400 . S
C830 H815 0.960 . S
C830 H816 0.960 1_545 S
C830 H817 0.960 . S
C830 C829 1.524 . S
C831 C828 1.403 . S
C831 C832 1.392 . S
C831 C835 1.495 . S
C832 C831 1.392 . S
C832 C833 1.385 . S
C832 C834 1.478 . S
C833 H827 0.930 . S
C833 C829 1.400 . S
C833 C832 1.385 . S
C834 C832 1.478 . S
C834 C836 1.381 1_545 S
C834 C840 1.383 . S
C835 C831 1.495 . S
C835 H841 0.959 . S
C835 H842 0.961 . S
C835 H843 0.960 1_545 S
C836 C834 1.381 1_565 S
C836 C837 1.394 . S
C836 H844 0.930 . S
C837 C836 1.394 . S
C837 C838 1.383 1_565 S
C837 H845 0.929 . S
C838 C837 1.383 1_545 S
C838 C839 1.377 . S
C839 H823 0.930 . S
C839 C838 1.377 . S
C839 C840 1.379 . S
C840 H824 0.931 . S
C840 C834 1.383 . S
C840 C839 1.379 . S
H841 C835 0.959 . S
H842 C835 0.961 . S
H843 C835 0.960 1_565 S
H844 C836 0.930 . S
H845 C837 0.929 . S
H846 C854 0.929 . S
H847 C856 0.930 . S
H848 C858 0.930 . S
H849 C861 0.929 . S
H850 C864 0.930 . S
H851 C866 0.960 . S
H852 C866 0.960 . S
H853 C866 0.960 . S
C854 H846 0.929 . S
C854 C855 1.377 . S
C854 C856 1.384 . S
C855 C854 1.377 . S
C855 C861 1.390 . S
C856 H847 0.930 . S
C856 C854 1.384 . S
C856 C857 1.372 . S
C857 C856 1.372 . S
C857 C858 1.400 . S
C857 C862 1.490 . S
C858 H848 0.930 . S
C858 C857 1.400 . S
C858 C861 1.386 . S
H859 C875 0.930 . S
H860 C876 0.931 . S
C861 H849 0.929 . S
C861 C855 1.390 . S
C861 C858 1.386 . S
C862 C857 1.490 . S
C862 C864 1.395 . S
C862 C865 1.440 . S
H863 C869 0.930 1_655 S
C864 H850 0.930 . S
C864 C862 1.395 . S
C864 C867 1.403 . S
C865 C862 1.440 . S
C865 C866 1.499 1_455 S
C865 C869 1.388 . S
C866 H851 0.960 . S
C866 H852 0.960 . S
C866 H853 0.960 . S
C866 C865 1.499 1_655 S
C867 C864 1.403 . S
C867 C868 1.392 . S
C867 C871 1.495 . S
C868 C867 1.392 . S
C868 C869 1.385 . S
C868 C870 1.478 . S
C869 H863 0.930 1_455 S
C869 C865 1.388 . S
C869 C868 1.385 . S
C870 C868 1.478 . S
C870 C872 1.381 . S
C870 C876 1.383 . S
C871 C867 1.495 . S
C871 H877 0.959 . S
C871 H878 0.961 . S
C871 H879 0.960 . S
C872 C870 1.381 . S
C872 C873 1.394 . S
C872 H880 0.930 . S
C873 C872 1.394 . S
C873 C874 1.383 . S
C873 H881 0.929 . S
C874 C873 1.383 . S
C874 C875 1.377 . S
C875 H859 0.930 . S
C875 C874 1.377 . S
C875 C876 1.379 . S
C876 H860 0.931 . S
C876 C870 1.383 . S
C876 C875 1.379 . S
H877 C871 0.959 . S
H878 C871 0.961 . S
H879 C871 0.960 . S
H880 C872 0.930 . S
H881 C873 0.929 . S
H882 C890 0.929 . S
H883 C892 0.930 . S
H884 C894 0.930 . S
H885 C897 0.929 . S
H886 C900 0.930 . S
H887 C902 0.960 . S
H888 C902 0.960 . S
H889 C902 0.960 . S
C890 H882 0.929 . S
C890 C891 1.377 . S
C890 C892 1.384 . S
C891 C890 1.377 . S
C891 C897 1.390 . S
C892 H883 0.930 . S
C892 C890 1.384 . S
C892 C893 1.372 . S
C893 C892 1.372 . S
C893 C894 1.400 . S
C893 C898 1.490 . S
C894 H884 0.930 . S
C894 C893 1.400 . S
C894 C897 1.386 . S
H895 C911 0.930 . S
H896 C912 0.931 . S
C897 H885 0.929 . S
C897 C891 1.390 . S
C897 C894 1.386 . S
C898 C893 1.490 . S
C898 C900 1.395 . S
C898 C901 1.403 . S
H899 C905 0.930 . S
C900 H886 0.930 . S
C900 C898 1.395 . S
C900 C903 1.403 . S
C901 C898 1.403 . S
C901 C902 1.524 . S
C901 C905 1.400 . S
C902 H887 0.960 . S
C902 H888 0.960 . S
C902 H889 0.960 . S
C902 C901 1.524 . S
C903 C900 1.403 . S
C903 C904 1.392 . S
C903 C907 1.495 . S
C904 C903 1.392 . S
C904 C905 1.385 . S
C904 C906 1.478 . S
C905 H899 0.930 . S
C905 C901 1.400 . S
C905 C904 1.385 . S
C906 C904 1.478 . S
C906 C908 1.381 . S
C906 C912 1.383 . S
C907 C903 1.495 . S
C907 H913 0.959 . S
C907 H914 0.961 . S
C907 H915 0.960 . S
C908 C906 1.381 . S
C908 C909 1.394 . S
C908 H916 0.930 . S
C909 C908 1.394 . S
C909 C910 1.383 . S
C909 H917 0.929 . S
C910 C909 1.383 . S
C910 C911 1.377 . S
C911 H895 0.930 . S
C911 C910 1.377 . S
C911 C912 1.379 . S
C912 H896 0.931 . S
C912 C906 1.383 . S
C912 C911 1.379 . S
H913 C907 0.959 . S
H914 C907 0.961 . S
H915 C907 0.960 . S
H916 C908 0.930 . S
H917 C909 0.929 . S
H918 C926 0.929 . S
H919 C928 0.930 . S
H920 C930 0.930 . S
H921 C933 0.932 . S
H922 C936 0.930 . S
H923 C938 0.960 . S
H924 C938 0.960 . S
H925 C938 0.960 . S
C926 H918 0.929 . S
C926 C927 1.377 . S
C926 C928 1.384 . S
C927 C926 1.377 . S
C927 C933 1.386 1_565 S
C928 H919 0.930 . S
C928 C926 1.384 . S
C928 C929 1.372 . S
C929 C928 1.372 . S
C929 C930 1.400 1_565 S
C929 C934 1.490 . S
C930 H920 0.930 . S
C930 C929 1.400 1_545 S
C930 C933 1.387 . S
H931 C947 0.930 . S
H932 C948 0.931 . S
C933 H921 0.932 . S
C933 C927 1.386 1_545 S
C933 C930 1.387 . S
C934 C929 1.490 . S
C934 C936 1.395 1_565 S
C934 C937 1.403 . S
H935 C941 0.930 . S
C936 H922 0.930 . S
C936 C934 1.395 1_545 S
C936 C939 1.403 . S
C937 C934 1.403 . S
C937 C938 1.524 . S
C937 C941 1.400 . S
C938 H923 0.960 . S
C938 H924 0.960 . S
C938 H925 0.960 . S
C938 C937 1.524 . S
C939 C936 1.403 . S
C939 C940 1.392 1_545 S
C939 C943 1.495 . S
C940 C939 1.392 1_565 S
C940 C941 1.385 . S
C940 C942 1.486 . S
C941 H935 0.930 . S
C941 C937 1.400 . S
C941 C940 1.385 . S
C942 C940 1.486 . S
C942 C944 1.393 . S
C942 C948 1.363 1_565 S
C943 C939 1.495 . S
C943 H949 0.959 . S
C943 H950 0.961 . S
C943 H951 0.960 . S
C944 C942 1.393 . S
C944 C945 1.394 . S
C944 H952 0.930 . S
C945 C944 1.394 . S
C945 C946 1.383 1_565 S
C945 H953 0.929 . S
C946 C945 1.383 1_545 S
C946 C947 1.377 . S
C947 H931 0.930 . S
C947 C946 1.377 . S
C947 C948 1.379 . S
C948 H932 0.931 . S
C948 C942 1.363 1_545 S
C948 C947 1.379 . S
H949 C943 0.959 . S
H950 C943 0.961 . S
H951 C943 0.960 . S
H952 C944 0.930 . S
H953 C945 0.929 . S
H954 C962 0.929 . S
H955 C964 0.930 . S
H956 C966 0.930 . S
H957 C969 0.929 . S
H958 C972 0.930 . S
H959 C974 0.946 1_655 S
H960 C974 0.945 1_655 S
H961 C974 0.961 . S
C962 H954 0.929 . S
C962 C963 1.377 . S
C962 C964 1.384 . S
C963 C962 1.377 . S
C963 C969 1.390 . S
C964 H955 0.930 . S
C964 C962 1.384 . S
C964 C965 1.372 . S
C965 C964 1.372 . S
C965 C966 1.400 . S
C965 C970 1.490 . S
C966 H956 0.930 . S
C966 C965 1.400 . S
C966 C969 1.386 . S
H967 C983 0.930 . S
H968 C984 0.931 . S
C969 H957 0.929 . S
C969 C963 1.390 . S
C969 C966 1.386 . S
C970 C965 1.490 . S
C970 C972 1.395 . S
C970 C973 1.403 . S
H971 C977 0.930 . S
C972 H958 0.930 . S
C972 C970 1.395 . S
C972 C975 1.403 . S
C973 C970 1.403 . S
C973 C974 1.554 . S
C973 C977 1.400 . S
C974 H959 0.946 1_455 S
C974 H960 0.945 1_455 S
C974 H961 0.961 . S
C974 C973 1.554 . S
C975 C972 1.403 . S
C975 C976 1.392 . S
C975 C979 1.495 . S
C976 C975 1.392 . S
C976 C977 1.385 . S
C976 C978 1.478 . S
C977 H971 0.930 . S
C977 C973 1.400 . S
C977 C976 1.385 . S
C978 C976 1.478 . S
C978 C980 1.381 . S
C978 C984 1.383 . S
C979 C975 1.495 . S
C979 H985 0.959 . S
C979 H986 0.961 . S
C979 H987 0.960 . S
C980 C978 1.381 . S
C980 C981 1.394 . S
C980 H988 0.930 . S
C981 C980 1.394 . S
C981 C982 1.383 . S
C981 H989 0.929 . S
C982 C981 1.383 . S
C982 C983 1.377 . S
C983 H967 0.930 . S
C983 C982 1.377 . S
C983 C984 1.379 . S
C984 H968 0.931 . S
C984 C978 1.383 . S
C984 C983 1.379 . S
H985 C979 0.959 . S
H986 C979 0.961 . S
H987 C979 0.960 . S
H988 C980 0.930 . S
H989 C981 0.929 . S
H990 C998 0.929 . S
H991 C1000 0.930 . S
H992 C1002 0.930 . S
H993 C1005 0.929 . S
H994 C1008 0.930 . S
H995 C1010 0.960 . S
H996 C1010 0.960 . S
H997 C1010 0.960 . S
C998 H990 0.929 . S
C998 C999 1.377 . S
C998 C1000 1.384 . S
C999 C998 1.377 . S
C999 C1005 1.390 . S
C1000 H991 0.930 . S
C1000 C998 1.384 . S
C1000 C1001 1.372 . S
C1001 C1000 1.372 . S
C1001 C1002 1.400 . S
C1001 C1006 1.490 . S
C1002 H992 0.930 . S
C1002 C1001 1.400 . S
C1002 C1005 1.386 . S
H1003 C1019 0.930 . S
H1004 C1020 0.931 . S
C1005 H993 0.929 . S
C1005 C999 1.390 . S
C1005 C1002 1.386 . S
C1006 C1001 1.490 . S
C1006 C1008 1.395 . S
C1006 C1009 1.403 . S
H1007 C1013 0.930 . S
C1008 H994 0.930 . S
C1008 C1006 1.395 . S
C1008 C1011 1.403 . S
C1009 C1006 1.403 . S
C1009 C1010 1.524 . S
C1009 C1013 1.400 . S
C1010 H995 0.960 . S
C1010 H996 0.960 . S
C1010 H997 0.960 . S
C1010 C1009 1.524 . S
C1011 C1008 1.403 . S
C1011 C1012 1.392 . S
C1011 C1015 1.495 . S
C1012 C1011 1.392 . S
C1012 C1013 1.385 . S
C1012 C1014 1.478 . S
C1013 H1007 0.930 . S
C1013 C1009 1.400 . S
C1013 C1012 1.385 . S
C1014 C1012 1.478 . S
C1014 C1016 1.381 . S
C1014 C1020 1.383 . S
C1015 C1011 1.495 . S
C1015 H1021 0.959 . S
C1015 H1022 0.961 . S
C1015 H1023 0.960 . S
C1016 C1014 1.381 . S
C1016 C1017 1.394 . S
C1016 H1024 0.930 . S
C1017 C1016 1.394 . S
C1017 C1018 1.383 . S
C1017 H1025 0.929 . S
C1018 C1017 1.383 . S
C1018 C1019 1.377 . S
C1019 H1003 0.930 . S
C1019 C1018 1.377 . S
C1019 C1020 1.379 . S
C1020 H1004 0.931 . S
C1020 C1014 1.383 . S
C1020 C1019 1.379 . S
H1021 C1015 0.959 . S
H1022 C1015 0.961 . S
H1023 C1015 0.960 . S
H1024 C1016 0.930 . S
H1025 C1017 0.929 . S
H1026 C1034 0.929 . S
H1027 C1036 0.930 . S
H1028 C1038 0.930 . S
H1029 C1041 0.929 . S
H1030 C1044 0.930 . S
H1031 C1046 0.960 . S
H1032 C1046 0.960 1_565 S
H1033 C1046 0.960 . S
C1034 H1026 0.929 . S
C1034 C1035 1.377 . S
C1034 C1036 1.384 . S
C1035 C1034 1.377 . S
C1035 C1041 1.390 . S
C1036 H1027 0.930 . S
C1036 C1034 1.384 . S
C1036 C1037 1.372 . S
C1037 C1036 1.372 . S
C1037 C1038 1.400 . S
C1037 C1042 1.490 . S
C1038 H1028 0.930 . S
C1038 C1037 1.400 . S
C1038 C1041 1.386 . S
H1039 C1055 0.930 . S
H1040 C1056 0.931 . S
C1041 H1029 0.929 . S
C1041 C1035 1.390 . S
C1041 C1038 1.386 . S
C1042 C1037 1.490 . S
C1042 C1044 1.395 . S
C1042 C1045 1.403 . S
H1043 C1049 0.930 . S
C1044 H1030 0.930 . S
C1044 C1042 1.395 . S
C1044 C1047 1.403 . S
C1045 C1042 1.403 . S
C1045 C1046 1.524 . S
C1045 C1049 1.400 . S
C1046 H1031 0.960 . S
C1046 H1032 0.960 1_545 S
C1046 H1033 0.960 . S
C1046 C1045 1.524 . S
C1047 C1044 1.403 . S
C1047 C1048 1.392 . S
C1047 C1051 1.495 . S
C1048 C1047 1.392 . S
C1048 C1049 1.385 . S
C1048 C1050 1.478 . S
C1049 H1043 0.930 . S
C1049 C1045 1.400 . S
C1049 C1048 1.385 . S
C1050 C1048 1.478 . S
C1050 C1052 1.381 . S
C1050 C1056 1.383 . S
C1051 C1047 1.495 . S
C1051 H1057 0.959 . S
C1051 H1058 0.961 . S
C1051 H1059 0.960 . S
C1052 C1050 1.381 . S
C1052 C1053 1.394 . S
C1052 H1060 0.930 . S
C1053 C1052 1.394 . S
C1053 C1054 1.383 . S
C1053 H1061 0.932 . S
C1054 C1053 1.383 . S
C1054 C1055 1.377 . S
C1055 H1039 0.930 . S
C1055 C1054 1.377 . S
C1055 C1056 1.379 . S
C1056 H1040 0.931 . S
C1056 C1050 1.383 . S
C1056 C1055 1.379 . S
H1057 C1051 0.959 . S
H1058 C1051 0.961 . S
H1059 C1051 0.960 . S
H1060 C1052 0.930 . S
H1061 C1053 0.932 . S
H1062 C1070 0.929 . S
H1063 C1072 0.930 . S
H1064 C1074 0.930 . S
H1065 C1077 0.929 . S
H1066 C1080 0.930 . S
H1067 C1082 0.960 . S
H1068 C1082 0.960 . S
H1069 C1082 0.960 . S
C1070 H1062 0.929 . S
C1070 C1071 1.377 1_655 S
C1070 C1072 1.384 . S
C1071 C1070 1.377 1_455 S
C1071 C1077 1.390 . S
C1072 H1063 0.930 . S
C1072 C1070 1.384 . S
C1072 C1073 1.372 1_655 S
C1073 C1072 1.372 1_455 S
C1073 C1074 1.400 . S
C1073 C1078 1.490 . S
C1074 H1064 0.930 . S
C1074 C1073 1.400 . S
C1074 C1077 1.386 . S
H1075 C1091 0.930 . S
H1076 C1092 0.931 . S
C1077 H1065 0.929 . S
C1077 C1071 1.390 . S
C1077 C1074 1.386 . S
C1078 C1073 1.490 . S
C1078 C1080 1.395 1_455 S
C1078 C1081 1.403 . S
H1079 C1085 0.930 . S
C1080 H1066 0.930 . S
C1080 C1078 1.395 1_655 S
C1080 C1083 1.403 . S
C1081 C1078 1.403 . S
C1081 C1082 1.524 . S
C1081 C1085 1.400 . S
C1082 H1067 0.960 . S
C1082 H1068 0.960 . S
C1082 H1069 0.960 . S
C1082 C1081 1.524 . S
C1083 C1080 1.403 . S
C1083 C1084 1.412 . S
C1083 C1087 1.495 . S
C1084 C1083 1.412 . S
C1084 C1085 1.373 1_655 S
C1084 C1086 1.465 1_655 S
C1085 H1079 0.930 . S
C1085 C1081 1.400 . S
C1085 C1084 1.373 1_455 S
C1086 C1084 1.465 1_455 S
C1086 C1088 1.383 1_455 S
C1086 C1092 1.386 . S
C1087 C1083 1.495 . S
C1087 H1093 0.959 . S
C1087 H1094 0.961 . S
C1087 H1095 0.960 . S
C1088 C1086 1.383 1_655 S
C1088 C1089 1.394 . S
C1088 H1096 0.930 . S
C1089 C1088 1.394 . S
C1089 C1090 1.383 1_655 S
C1089 H1097 0.929 . S
C1090 C1089 1.383 1_455 S
C1090 C1091 1.377 . S
C1091 H1075 0.930 . S
C1091 C1090 1.377 . S
C1091 C1092 1.379 . S
C1092 H1076 0.931 . S
C1092 C1086 1.386 . S
C1092 C1091 1.379 . S
H1093 C1087 0.959 . S
H1094 C1087 0.961 . S
H1095 C1087 0.960 . S
H1096 C1088 0.930 . S
H1097 C1089 0.929 . S
H1098 C1106 0.929 . S
H1099 C1108 0.930 . S
H1100 C1110 0.930 . S
H1101 C1113 0.929 . S
H1102 C1116 0.930 . S
H1103 C1118 0.960 . S
H1104 C1118 0.960 . S
H1105 C1118 0.960 . S
C1106 H1098 0.929 . S
C1106 C1107 1.377 . S
C1106 C1108 1.384 . S
C1107 C1106 1.377 . S
C1107 C1113 1.390 . S
C1108 H1099 0.930 . S
C1108 C1106 1.384 . S
C1108 C1109 1.372 . S
C1109 C1108 1.372 . S
C1109 C1110 1.400 . S
C1109 C1114 1.490 . S
C1110 H1100 0.930 . S
C1110 C1109 1.400 . S
C1110 C1113 1.386 . S
H1111 C1127 0.930 . S
H1112 C1128 0.931 . S
C1113 H1101 0.929 . S
C1113 C1107 1.390 . S
C1113 C1110 1.386 . S
C1114 C1109 1.490 . S
C1114 C1116 1.395 . S
C1114 C1117 1.403 . S
H1115 C1121 0.930 . S
C1116 H1102 0.930 . S
C1116 C1114 1.395 . S
C1116 C1119 1.403 . S
C1117 C1114 1.403 . S
C1117 C1118 1.524 . S
C1117 C1121 1.400 . S
C1118 H1103 0.960 . S
C1118 H1104 0.960 . S
C1118 H1105 0.960 . S
C1118 C1117 1.524 . S
C1119 C1116 1.403 . S
C1119 C1120 1.392 . S
C1119 C1123 1.495 . S
C1120 C1119 1.392 . S
C1120 C1121 1.385 . S
C1120 C1122 1.478 . S
C1121 H1115 0.930 . S
C1121 C1117 1.400 . S
C1121 C1120 1.385 . S
C1122 C1120 1.478 . S
C1122 C1124 1.381 . S
C1122 C1128 1.383 . S
C1123 C1119 1.495 . S
C1123 H1129 0.959 . S
C1123 H1130 0.961 . S
C1123 H1131 0.960 . S
C1124 C1122 1.381 . S
C1124 C1125 1.394 . S
C1124 H1132 0.930 . S
C1125 C1124 1.394 . S
C1125 C1126 1.383 . S
C1125 H1133 0.929 . S
C1126 C1125 1.383 . S
C1126 C1127 1.377 . S
C1127 H1111 0.930 . S
C1127 C1126 1.377 . S
C1127 C1128 1.379 . S
C1128 H1112 0.931 . S
C1128 C1122 1.383 . S
C1128 C1127 1.379 . S
H1129 C1123 0.959 . S
H1130 C1123 0.961 . S
H1131 C1123 0.960 . S
H1132 C1124 0.930 . S
H1133 C1125 0.929 . S
H1134 C1142 0.929 . S
H1135 C1144 0.930 . S
H1136 C1146 0.930 . S
H1137 C1149 0.929 . S
H1138 C1152 0.930 . S
H1139 C1154 0.960 . S
H1140 C1154 0.960 . S
H1141 C1154 0.960 . S
C1142 H1134 0.929 . S
C1142 C1143 1.377 . S
C1142 C1144 1.384 . S
C1143 C1142 1.377 . S
C1143 C1149 1.390 . S
C1144 H1135 0.930 . S
C1144 C1142 1.384 . S
C1144 C1145 1.372 . S
C1145 C1144 1.372 . S
C1145 C1146 1.400 . S
C1145 C1150 1.490 . S
C1146 H1136 0.930 . S
C1146 C1145 1.400 . S
C1146 C1149 1.386 . S
H1147 C1163 0.930 . S
H1148 C1164 0.931 . S
C1149 H1137 0.929 . S
C1149 C1143 1.390 . S
C1149 C1146 1.386 . S
C1150 C1145 1.490 . S
C1150 C1152 1.395 . S
C1150 C1153 1.403 . S
H1151 C1157 0.930 . S
C1152 H1138 0.930 . S
C1152 C1150 1.395 . S
C1152 C1155 1.403 . S
C1153 C1150 1.403 . S
C1153 C1154 1.524 . S
C1153 C1157 1.400 . S
C1154 H1139 0.960 . S
C1154 H1140 0.960 . S
C1154 H1141 0.960 . S
C1154 C1153 1.524 . S
C1155 C1152 1.403 . S
C1155 C1156 1.392 . S
C1155 C1159 1.495 . S
C1156 C1155 1.392 . S
C1156 C1157 1.385 . S
C1156 C1158 1.478 . S
C1157 H1151 0.930 . S
C1157 C1153 1.400 . S
C1157 C1156 1.385 . S
C1158 C1156 1.478 . S
C1158 C1160 1.381 . S
C1158 C1164 1.383 . S
C1159 C1155 1.495 . S
C1159 H1165 0.959 . S
C1159 H1166 0.961 . S
C1159 H1167 0.960 . S
C1160 C1158 1.381 . S
C1160 C1161 1.394 . S
C1160 H1168 0.930 . S
C1161 C1160 1.394 . S
C1161 C1162 1.383 . S
C1161 H1169 0.929 . S
C1162 C1161 1.383 . S
C1162 C1163 1.377 . S
C1163 H1147 0.930 . S
C1163 C1162 1.377 . S
C1163 C1164 1.379 . S
C1164 H1148 0.931 . S
C1164 C1158 1.383 . S
C1164 C1163 1.379 . S
H1165 C1159 0.959 . S
H1166 C1159 0.961 . S
H1167 C1159 0.960 . S
H1168 C1160 0.930 . S
H1169 C1161 0.929 . S
H1170 C1178 0.929 . S
H1171 C1180 0.930 . S
H1172 C1182 0.930 . S
H1173 C1185 0.929 . S
H1174 C1188 0.930 . S
H1175 C1190 0.960 . S
H1176 C1190 0.960 . S
H1177 C1190 0.960 . S
C1178 H1170 0.929 . S
C1178 C1179 1.377 . S
C1178 C1180 1.384 . S
C1179 C1178 1.377 . S
C1179 C1185 1.390 . S
C1180 H1171 0.930 . S
C1180 C1178 1.384 . S
C1180 C1181 1.372 . S
C1181 C1180 1.372 . S
C1181 C1182 1.400 . S
C1181 C1186 1.490 . S
C1182 H1172 0.930 . S
C1182 C1181 1.400 . S
C1182 C1185 1.386 . S
H1183 C1199 0.930 . S
H1184 C1200 0.931 . S
C1185 H1173 0.929 . S
C1185 C1179 1.390 . S
C1185 C1182 1.386 . S
C1186 C1181 1.490 . S
C1186 C1188 1.395 . S
C1186 C1189 1.403 . S
H1187 C1193 0.930 . S
C1188 H1174 0.930 . S
C1188 C1186 1.395 . S
C1188 C1191 1.403 . S
C1189 C1186 1.403 . S
C1189 C1190 1.524 . S
C1189 C1193 1.400 . S
C1190 H1175 0.960 . S
C1190 H1176 0.960 . S
C1190 H1177 0.960 . S
C1190 C1189 1.524 . S
C1191 C1188 1.403 . S
C1191 C1192 1.392 . S
C1191 C1195 1.495 . S
C1192 C1191 1.392 . S
C1192 C1193 1.385 . S
C1192 C1194 1.478 . S
C1193 H1187 0.930 . S
C1193 C1189 1.400 . S
C1193 C1192 1.385 . S
C1194 C1192 1.478 . S
C1194 C1196 1.381 . S
C1194 C1200 1.383 . S
C1195 C1191 1.495 . S
C1195 H1201 0.959 . S
C1195 H1202 0.961 . S
C1195 H1203 0.960 . S
C1196 C1194 1.381 . S
C1196 C1197 1.394 . S
C1196 H1204 0.930 . S
C1197 C1196 1.394 . S
C1197 C1198 1.383 . S
C1197 H1205 0.929 . S
C1198 C1197 1.383 . S
C1198 C1199 1.377 . S
C1199 H1183 0.930 . S
C1199 C1198 1.377 . S
C1199 C1200 1.379 . S
C1200 H1184 0.931 . S
C1200 C1194 1.383 . S
C1200 C1199 1.379 . S
H1201 C1195 0.959 . S
H1202 C1195 0.961 . S
H1203 C1195 0.960 . S
H1204 C1196 0.930 . S
H1205 C1197 0.929 . S
H1206 C1214 0.929 . S
H1207 C1216 0.930 . S
H1208 C1218 0.930 . S
H1209 C1221 0.929 . S
H1210 C1224 0.930 . S
H1211 C1226 0.960 . S
H1212 C1226 0.960 . S
H1213 C1226 0.960 . S
C1214 H1206 0.929 . S
C1214 C1215 1.377 . S
C1214 C1216 1.384 . S
C1215 C1214 1.377 . S
C1215 C1221 1.390 . S
C1216 H1207 0.930 . S
C1216 C1214 1.384 . S
C1216 C1217 1.372 . S
C1217 C1216 1.372 . S
C1217 C1218 1.400 . S
C1217 C1222 1.490 . S
C1218 H1208 0.930 . S
C1218 C1217 1.400 . S
C1218 C1221 1.386 . S
H1219 C1235 0.930 . S
H1220 C1236 0.931 . S
C1221 H1209 0.929 . S
C1221 C1215 1.390 . S
C1221 C1218 1.386 . S
C1222 C1217 1.490 . S
C1222 C1224 1.395 . S
C1222 C1225 1.403 . S
H1223 C1229 0.930 . S
C1224 H1210 0.930 . S
C1224 C1222 1.395 . S
C1224 C1227 1.403 . S
C1225 C1222 1.403 . S
C1225 C1226 1.524 . S
C1225 C1229 1.400 . S
C1226 H1211 0.960 . S
C1226 H1212 0.960 . S
C1226 H1213 0.960 . S
C1226 C1225 1.524 . S
C1227 C1224 1.403 . S
C1227 C1228 1.392 . S
C1227 C1231 1.495 . S
C1228 C1227 1.392 . S
C1228 C1229 1.385 . S
C1228 C1230 1.478 . S
C1229 H1223 0.930 . S
C1229 C1225 1.400 . S
C1229 C1228 1.385 . S
C1230 C1228 1.478 . S
C1230 C1232 1.381 . S
C1230 C1236 1.383 . S
C1231 C1227 1.495 . S
C1231 H1237 0.959 . S
C1231 H1238 0.961 . S
C1231 H1239 0.960 . S
C1232 C1230 1.381 . S
C1232 C1233 1.394 . S
C1232 H1240 0.930 . S
C1233 C1232 1.394 . S
C1233 C1234 1.383 . S
C1233 H1241 0.929 . S
C1234 C1233 1.383 . S
C1234 C1235 1.377 . S
C1235 H1219 0.930 . S
C1235 C1234 1.377 . S
C1235 C1236 1.379 . S
C1236 H1220 0.931 . S
C1236 C1230 1.383 . S
C1236 C1235 1.379 . S
H1237 C1231 0.959 . S
H1238 C1231 0.961 . S
H1239 C1231 0.960 . S
H1240 C1232 0.930 . S
H1241 C1233 0.929 . S
H1242 C1250 0.929 . S
H1243 C1252 0.930 . S
H1244 C1254 0.930 . S
H1245 C1257 0.929 . S
H1246 C1260 0.930 . S
H1247 C1262 0.960 . S
H1248 C1262 0.960 . S
H1249 C1262 0.960 . S
C1250 H1242 0.929 . S
C1250 C1251 1.377 . S
C1250 C1252 1.384 . S
C1251 C1250 1.377 . S
C1251 C1257 1.390 . S
C1252 H1243 0.930 . S
C1252 C1250 1.384 . S
C1252 C1253 1.372 . S
C1253 C1252 1.372 . S
C1253 C1254 1.400 . S
C1253 C1258 1.490 . S
C1254 H1244 0.930 . S
C1254 C1253 1.400 . S
C1254 C1257 1.386 . S
H1255 C1271 0.930 . S
H1256 C1272 0.931 . S
C1257 H1245 0.929 . S
C1257 C1251 1.390 . S
C1257 C1254 1.386 . S
C1258 C1253 1.490 . S
C1258 C1260 1.395 . S
C1258 C1261 1.403 . S
H1259 C1265 0.930 . S
C1260 H1246 0.930 . S
C1260 C1258 1.395 . S
C1260 C1263 1.403 . S
C1261 C1258 1.403 . S
C1261 C1262 1.524 . S
C1261 C1265 1.400 . S
C1262 H1247 0.960 . S
C1262 H1248 0.960 . S
C1262 H1249 0.960 . S
C1262 C1261 1.524 . S
C1263 C1260 1.403 . S
C1263 C1264 1.392 . S
C1263 C1267 1.495 . S
C1264 C1263 1.392 . S
C1264 C1265 1.385 . S
C1264 C1266 1.478 . S
C1265 H1259 0.930 . S
C1265 C1261 1.400 . S
C1265 C1264 1.385 . S
C1266 C1264 1.478 . S
C1266 C1268 1.381 . S
C1266 C1272 1.383 . S
C1267 C1263 1.495 . S
C1267 H1273 0.959 . S
C1267 H1274 0.961 . S
C1267 H1275 0.960 . S
C1268 C1266 1.381 . S
C1268 C1269 1.394 . S
C1268 H1276 0.930 . S
C1269 C1268 1.394 . S
C1269 C1270 1.383 . S
C1269 H1277 0.929 . S
C1270 C1269 1.383 . S
C1270 C1271 1.377 . S
C1271 H1255 0.930 . S
C1271 C1270 1.377 . S
C1271 C1272 1.379 . S
C1272 H1256 0.931 . S
C1272 C1266 1.383 . S
C1272 C1271 1.379 . S
H1273 C1267 0.959 . S
H1274 C1267 0.961 . S
H1275 C1267 0.960 . S
H1276 C1268 0.930 . S
H1277 C1269 0.929 . S
H1278 C1286 0.929 . S
H1279 C1288 0.930 . S
H1280 C1290 0.930 . S
H1281 C1293 0.929 . S
H1282 C1296 0.930 . S
H1283 C1298 0.960 . S
H1284 C1298 0.960 . S
H1285 C1298 0.960 . S
C1286 H1278 0.929 . S
C1286 C1287 1.377 . S
C1286 C1288 1.384 . S
C1287 C1286 1.377 . S
C1287 C1293 1.390 . S
C1288 H1279 0.930 . S
C1288 C1286 1.384 . S
C1288 C1289 1.372 . S
C1289 C1288 1.372 . S
C1289 C1290 1.400 . S
C1289 C1294 1.490 . S
C1290 H1280 0.930 . S
C1290 C1289 1.400 . S
C1290 C1293 1.386 . S
H1291 C1307 0.930 . S
H1292 C1308 0.931 . S
C1293 H1281 0.929 . S
C1293 C1287 1.390 . S
C1293 C1290 1.386 . S
C1294 C1289 1.490 . S
C1294 C1296 1.395 . S
C1294 C1297 1.403 . S
H1295 C1301 0.930 . S
C1296 H1282 0.930 . S
C1296 C1294 1.395 . S
C1296 C1299 1.403 . S
C1297 C1294 1.403 . S
C1297 C1298 1.524 . S
C1297 C1301 1.400 . S
C1298 H1283 0.960 . S
C1298 H1284 0.960 . S
C1298 H1285 0.960 . S
C1298 C1297 1.524 . S
C1299 C1296 1.403 . S
C1299 C1300 1.392 . S
C1299 C1303 1.495 . S
C1300 C1299 1.392 . S
C1300 C1301 1.385 . S
C1300 C1302 1.478 . S
C1301 H1295 0.930 . S
C1301 C1297 1.400 . S
C1301 C1300 1.385 . S
C1302 C1300 1.478 . S
C1302 C1304 1.381 . S
C1302 C1308 1.383 . S
C1303 C1299 1.495 . S
C1303 H1309 0.959 . S
C1303 H1310 0.961 . S
C1303 H1311 0.960 . S
C1304 C1302 1.381 . S
C1304 C1305 1.394 . S
C1304 H1312 0.930 . S
C1305 C1304 1.394 . S
C1305 C1306 1.383 . S
C1305 H1313 0.929 . S
C1306 C1305 1.383 . S
C1306 C1307 1.377 . S
C1307 H1291 0.930 . S
C1307 C1306 1.377 . S
C1307 C1308 1.379 . S
C1308 H1292 0.931 . S
C1308 C1302 1.383 . S
C1308 C1307 1.379 . S
H1309 C1303 0.959 . S
H1310 C1303 0.961 . S
H1311 C1303 0.960 . S
H1312 C1304 0.930 . S
H1313 C1305 0.929 . S
H1314 C1322 0.929 . S
H1315 C1324 0.930 . S
H1316 C1326 0.930 . S
H1317 C1329 0.929 . S
H1318 C1332 0.930 . S
H1319 C1334 0.960 . S
H1320 C1334 0.960 . S
H1321 C1334 0.960 . S
C1322 H1314 0.929 . S
C1322 C1323 1.377 . S
C1322 C1324 1.384 . S
C1323 C1322 1.377 . S
C1323 C1329 1.390 . S
C1324 H1315 0.930 . S
C1324 C1322 1.384 . S
C1324 C1325 1.372 . S
C1325 C1324 1.372 . S
C1325 C1326 1.400 . S
C1325 C1330 1.490 . S
C1326 H1316 0.930 . S
C1326 C1325 1.400 . S
C1326 C1329 1.386 . S
H1327 C1343 0.930 . S
H1328 C1344 0.931 . S
C1329 H1317 0.929 . S
C1329 C1323 1.390 . S
C1329 C1326 1.386 . S
C1330 C1325 1.490 . S
C1330 C1332 1.395 . S
C1330 C1333 1.403 . S
H1331 C1337 0.930 . S
C1332 H1318 0.930 . S
C1332 C1330 1.395 . S
C1332 C1335 1.403 . S
C1333 C1330 1.403 . S
C1333 C1334 1.524 . S
C1333 C1337 1.400 . S
C1334 H1319 0.960 . S
C1334 H1320 0.960 . S
C1334 H1321 0.960 . S
C1334 C1333 1.524 . S
C1335 C1332 1.403 . S
C1335 C1336 1.392 . S
C1335 C1339 1.495 . S
C1336 C1335 1.392 . S
C1336 C1337 1.385 . S
C1336 C1338 1.478 . S
C1337 H1331 0.930 . S
C1337 C1333 1.400 . S
C1337 C1336 1.385 . S
C1338 C1336 1.478 . S
C1338 C1340 1.381 . S
C1338 C1344 1.383 . S
C1339 C1335 1.495 . S
C1339 H1345 0.959 . S
C1339 H1346 0.961 . S
C1339 H1347 0.960 . S
C1340 C1338 1.381 . S
C1340 C1341 1.394 . S
C1340 H1348 0.930 . S
C1341 C1340 1.394 . S
C1341 C1342 1.383 . S
C1341 H1349 0.929 . S
C1342 C1341 1.383 . S
C1342 C1343 1.377 . S
C1343 H1327 0.930 . S
C1343 C1342 1.377 . S
C1343 C1344 1.379 . S
C1344 H1328 0.931 . S
C1344 C1338 1.383 . S
C1344 C1343 1.379 . S
H1345 C1339 0.959 . S
H1346 C1339 0.961 . S
H1347 C1339 0.960 . S
H1348 C1340 0.930 . S
H1349 C1341 0.929 . S
H1350 C1358 0.929 . S
H1351 C1360 0.930 . S
H1352 C1362 0.930 . S
H1353 C1365 0.929 . S
H1354 C1368 0.930 . S
H1355 C1370 0.960 . S
H1356 C1370 0.960 . S
H1357 C1370 0.960 . S
C1358 H1350 0.929 . S
C1358 C1359 1.377 . S
C1358 C1360 1.384 . S
C1359 C1358 1.377 . S
C1359 C1365 1.390 . S
C1360 H1351 0.930 . S
C1360 C1358 1.384 . S
C1360 C1361 1.372 . S
C1361 C1360 1.372 . S
C1361 C1362 1.400 . S
C1361 C1366 1.490 . S
C1362 H1352 0.930 . S
C1362 C1361 1.400 . S
C1362 C1365 1.386 . S
H1363 C1379 0.930 . S
H1364 C1380 0.931 . S
C1365 H1353 0.929 . S
C1365 C1359 1.390 . S
C1365 C1362 1.386 . S
C1366 C1361 1.490 . S
C1366 C1368 1.395 . S
C1366 C1369 1.403 . S
H1367 C1373 0.930 . S
C1368 H1354 0.930 . S
C1368 C1366 1.395 . S
C1368 C1371 1.403 . S
C1369 C1366 1.403 . S
C1369 C1370 1.524 . S
C1369 C1373 1.400 . S
C1370 H1355 0.960 . S
C1370 H1356 0.960 . S
C1370 H1357 0.960 . S
C1370 C1369 1.524 . S
C1371 C1368 1.403 . S
C1371 C1372 1.392 . S
C1371 C1375 1.495 . S
C1372 C1371 1.392 . S
C1372 C1373 1.385 . S
C1372 C1374 1.478 . S
C1373 H1367 0.930 . S
C1373 C1369 1.400 . S
C1373 C1372 1.385 . S
C1374 C1372 1.478 . S
C1374 C1376 1.381 . S
C1374 C1380 1.383 . S
C1375 C1371 1.495 . S
C1375 H1381 0.959 . S
C1375 H1382 0.961 . S
C1375 H1383 0.960 . S
C1376 C1374 1.381 . S
C1376 C1377 1.394 . S
C1376 H1384 0.930 . S
C1377 C1376 1.394 . S
C1377 C1378 1.383 . S
C1377 H1385 0.929 . S
C1378 C1377 1.383 . S
C1378 C1379 1.377 . S
C1379 H1363 0.930 . S
C1379 C1378 1.377 . S
C1379 C1380 1.379 . S
C1380 H1364 0.931 . S
C1380 C1374 1.383 . S
C1380 C1379 1.379 . S
H1381 C1375 0.959 . S
H1382 C1375 0.961 . S
H1383 C1375 0.960 . S
H1384 C1376 0.930 . S
H1385 C1377 0.929 . S
H1386 C1394 0.929 . S
H1387 C1396 0.930 . S
H1388 C1398 0.930 . S
H1389 C1401 0.929 . S
H1390 C1404 0.930 . S
H1391 C1406 0.960 . S
H1392 C1406 0.960 . S
H1393 C1406 0.960 . S
C1394 H1386 0.929 . S
C1394 C1395 1.377 . S
C1394 C1396 1.384 . S
C1395 C1394 1.377 . S
C1395 C1401 1.390 . S
C1396 H1387 0.930 . S
C1396 C1394 1.384 . S
C1396 C1397 1.372 . S
C1397 C1396 1.372 . S
C1397 C1398 1.400 . S
C1397 C1402 1.490 . S
C1398 H1388 0.930 . S
C1398 C1397 1.400 . S
C1398 C1401 1.386 . S
H1399 C1415 0.930 . S
H1400 C1416 0.931 . S
C1401 H1389 0.929 . S
C1401 C1395 1.390 . S
C1401 C1398 1.386 . S
C1402 C1397 1.490 . S
C1402 C1404 1.395 . S
C1402 C1405 1.403 . S
H1403 C1409 0.930 . S
C1404 H1390 0.930 . S
C1404 C1402 1.395 . S
C1404 C1407 1.403 . S
C1405 C1402 1.403 . S
C1405 C1406 1.524 . S
C1405 C1409 1.400 . S
C1406 H1391 0.960 . S
C1406 H1392 0.960 . S
C1406 H1393 0.960 . S
C1406 C1405 1.524 . S
C1407 C1404 1.403 . S
C1407 C1408 1.392 . S
C1407 C1411 1.495 . S
C1408 C1407 1.392 . S
C1408 C1409 1.385 . S
C1408 C1410 1.478 . S
C1409 H1403 0.930 . S
C1409 C1405 1.400 . S
C1409 C1408 1.385 . S
C1410 C1408 1.478 . S
C1410 C1412 1.381 . S
C1410 C1416 1.383 . S
C1411 C1407 1.495 . S
C1411 H1417 0.959 . S
C1411 H1418 0.961 . S
C1411 H1419 0.960 . S
C1412 C1410 1.381 . S
C1412 C1413 1.394 . S
C1412 H1420 0.930 . S
C1413 C1412 1.394 . S
C1413 C1414 1.383 . S
C1413 H1421 0.929 . S
C1414 C1413 1.383 . S
C1414 C1415 1.377 . S
C1415 H1399 0.930 . S
C1415 C1414 1.377 . S
C1415 C1416 1.379 . S
C1416 H1400 0.931 . S
C1416 C1410 1.383 . S
C1416 C1415 1.379 . S
H1417 C1411 0.959 . S
H1418 C1411 0.961 . S
H1419 C1411 0.960 . S
H1420 C1412 0.930 . S
H1421 C1413 0.929 . S
H1422 C1430 0.929 . S
H1423 C1432 0.930 . S
H1424 C1434 0.930 . S
H1425 C1437 0.929 . S
H1426 C1440 0.930 . S
H1427 C1442 0.960 . S
H1428 C1442 0.960 . S
H1429 C1442 0.960 . S
C1430 H1422 0.929 . S
C1430 C1431 1.377 . S
C1430 C1432 1.384 . S
C1431 C1430 1.377 . S
C1431 C1437 1.390 . S
C1432 H1423 0.930 . S
C1432 C1430 1.384 . S
C1432 C1433 1.372 . S
C1433 C1432 1.372 . S
C1433 C1434 1.400 . S
C1433 C1438 1.490 . S
C1434 H1424 0.930 . S
C1434 C1433 1.400 . S
C1434 C1437 1.386 . S
H1435 C1451 1.032 . S
H1436 C1452 0.931 . S
C1437 H1425 0.929 . S
C1437 C1431 1.390 . S
C1437 C1434 1.386 . S
C1438 C1433 1.490 . S
C1438 C1440 1.395 . S
C1438 C1441 1.403 . S
H1439 C1445 0.930 . S
C1440 H1426 0.930 . S
C1440 C1438 1.395 . S
C1440 C1443 1.403 . S
C1441 C1438 1.403 . S
C1441 C1442 1.524 . S
C1441 C1445 1.400 . S
C1442 H1427 0.960 . S
C1442 H1428 0.960 . S
C1442 H1429 0.960 . S
C1442 C1441 1.524 . S
C1443 C1440 1.403 . S
C1443 C1444 1.392 . S
C1443 C1447 1.495 . S
C1444 C1443 1.392 . S
C1444 C1445 1.385 . S
C1444 C1446 1.478 . S
C1445 H1439 0.930 . S
C1445 C1441 1.400 . S
C1445 C1444 1.385 . S
C1446 C1444 1.478 . S
C1446 C1448 1.381 . S
C1446 C1452 1.383 . S
C1447 C1443 1.495 . S
C1447 H1453 0.959 . S
C1447 H1454 0.961 . S
C1447 H1455 0.960 . S
C1448 C1446 1.381 . S
C1448 C1449 1.394 . S
C1448 H1456 0.930 . S
C1449 C1448 1.394 . S
C1449 C1450 1.383 . S
C1449 H1457 0.929 . S
C1450 C1449 1.383 . S
C1450 C1451 1.377 . S
C1451 H1435 1.032 . S
C1451 C1450 1.377 . S
C1451 C1452 1.379 . S
C1452 H1436 0.931 . S
C1452 C1446 1.383 . S
C1452 C1451 1.379 . S
H1453 C1447 0.959 . S
H1454 C1447 0.961 . S
H1455 C1447 0.960 . S
H1456 C1448 0.930 . S
H1457 C1449 0.929 . S
H1458 C1466 0.929 . S
H1459 C1468 0.930 . S
H1460 C1470 0.930 . S
H1461 C1473 0.929 . S
H1462 C1476 0.930 . S
H1463 C1478 0.960 . S
H1464 C1478 0.960 . S
H1465 C1478 0.960 . S
C1466 H1458 0.929 . S
C1466 C1467 1.377 . S
C1466 C1468 1.384 . S
C1467 C1466 1.377 . S
C1467 C1473 1.390 . S
C1468 H1459 0.930 . S
C1468 C1466 1.384 . S
C1468 C1469 1.372 . S
C1469 C1468 1.372 . S
C1469 C1470 1.400 . S
C1469 C1474 1.490 . S
C1470 H1460 0.930 . S
C1470 C1469 1.400 . S
C1470 C1473 1.386 . S
H1471 C1487 0.930 . S
H1472 C1488 0.931 . S
C1473 H1461 0.929 . S
C1473 C1467 1.390 . S
C1473 C1470 1.386 . S
C1474 C1469 1.490 . S
C1474 C1476 1.395 . S
C1474 C1477 1.403 . S
H1475 C1481 0.930 . S
C1476 H1462 0.930 . S
C1476 C1474 1.395 . S
C1476 C1479 1.403 . S
C1477 C1474 1.403 . S
C1477 C1478 1.524 . S
C1477 C1481 1.400 . S
C1478 H1463 0.960 . S
C1478 H1464 0.960 . S
C1478 H1465 0.960 . S
C1478 C1477 1.524 . S
C1479 C1476 1.403 . S
C1479 C1480 1.392 . S
C1479 C1483 1.495 . S
C1480 C1479 1.392 . S
C1480 C1481 1.385 . S
C1480 C1482 1.478 . S
C1481 H1475 0.930 . S
C1481 C1477 1.400 . S
C1481 C1480 1.385 . S
C1482 C1480 1.478 . S
C1482 C1484 1.381 . S
C1482 C1488 1.383 . S
C1483 C1479 1.495 . S
C1483 H1489 0.959 . S
C1483 H1490 0.961 . S
C1483 H1491 0.960 . S
C1484 C1482 1.381 . S
C1484 C1485 1.394 . S
C1484 H1492 0.930 . S
C1485 C1484 1.394 . S
C1485 C1486 1.383 . S
C1485 H1493 0.929 . S
C1486 C1485 1.383 . S
C1486 C1487 1.377 . S
C1487 H1471 0.930 . S
C1487 C1486 1.377 . S
C1487 C1488 1.379 . S
C1488 H1472 0.931 . S
C1488 C1482 1.383 . S
C1488 C1487 1.379 . S
H1489 C1483 0.959 . S
H1490 C1483 0.961 . S
H1491 C1483 0.960 . S
H1492 C1484 0.930 . S
H1493 C1485 0.929 . S
H1494 C1502 0.929 . S
H1495 C1504 0.930 . S
H1496 C1506 0.930 . S
H1497 C1509 0.929 . S
H1498 C1512 0.930 . S
H1499 C1514 0.960 . S
H1500 C1514 0.960 . S
H1501 C1514 0.960 . S
C1502 H1494 0.929 . S
C1502 C1503 1.377 . S
C1502 C1504 1.384 . S
C1503 C1502 1.377 . S
C1503 C1509 1.390 . S
C1504 H1495 0.930 . S
C1504 C1502 1.384 . S
C1504 C1505 1.372 . S
C1505 C1504 1.372 . S
C1505 C1506 1.400 . S
C1505 C1510 1.490 . S
C1506 H1496 0.930 . S
C1506 C1505 1.400 . S
C1506 C1509 1.386 . S
H1507 C1523 0.930 . S
H1508 C1524 0.931 . S
C1509 H1497 0.929 . S
C1509 C1503 1.390 . S
C1509 C1506 1.386 . S
C1510 C1505 1.490 . S
C1510 C1512 1.395 . S
C1510 C1513 1.403 . S
H1511 C1517 0.930 . S
C1512 H1498 0.930 . S
C1512 C1510 1.395 . S
C1512 C1515 1.403 . S
C1513 C1510 1.403 . S
C1513 C1514 1.524 . S
C1513 C1517 1.400 . S
C1514 H1499 0.960 . S
C1514 H1500 0.960 . S
C1514 H1501 0.960 . S
C1514 C1513 1.524 . S
C1515 C1512 1.403 . S
C1515 C1516 1.392 . S
C1515 C1519 1.495 . S
C1516 C1515 1.392 . S
C1516 C1517 1.385 . S
C1516 C1518 1.478 . S
C1517 H1511 0.930 . S
C1517 C1513 1.400 . S
C1517 C1516 1.385 . S
C1518 C1516 1.478 . S
C1518 C1520 1.381 . S
C1518 C1524 1.383 . S
C1519 C1515 1.495 . S
C1519 H1525 0.959 . S
C1519 H1526 0.961 . S
C1519 H1527 0.960 . S
C1520 C1518 1.381 . S
C1520 C1521 1.394 . S
C1520 H1528 0.930 . S
C1521 C1520 1.394 . S
C1521 C1522 1.383 . S
C1521 H1529 0.929 . S
C1522 C1521 1.383 . S
C1522 C1523 1.377 . S
C1523 H1507 0.930 . S
C1523 C1522 1.377 . S
C1523 C1524 1.379 . S
C1524 H1508 0.931 . S
C1524 C1518 1.383 . S
C1524 C1523 1.379 . S
H1525 C1519 0.959 . S
H1526 C1519 0.961 . S
H1527 C1519 0.960 . S
H1528 C1520 0.930 . S
H1529 C1521 0.929 . S
H1530 C1538 0.929 . S
H1531 C1540 0.930 . S
H1532 C1542 0.930 . S
H1533 C1545 0.929 . S
H1534 C1548 0.930 . S
H1535 C1550 0.960 . S
H1536 C1550 0.960 . S
H1537 C1550 0.960 . S
C1538 H1530 0.929 . S
C1538 C1539 1.377 . S
C1538 C1540 1.384 . S
C1539 C1538 1.377 . S
C1539 C1545 1.390 . S
C1540 H1531 0.930 . S
C1540 C1538 1.384 . S
C1540 C1541 1.372 . S
C1541 C1540 1.372 . S
C1541 C1542 1.400 . S
C1541 C1546 1.490 . S
C1542 H1532 0.930 . S
C1542 C1541 1.400 . S
C1542 C1545 1.386 . S
H1543 C1559 0.930 . S
H1544 C1560 0.931 . S
C1545 H1533 0.929 . S
C1545 C1539 1.390 . S
C1545 C1542 1.386 . S
C1546 C1541 1.490 . S
C1546 C1548 1.395 . S
C1546 C1549 1.403 . S
H1547 C1553 0.930 . S
C1548 H1534 0.930 . S
C1548 C1546 1.395 . S
C1548 C1551 1.403 . S
C1549 C1546 1.403 . S
C1549 C1550 1.524 . S
C1549 C1553 1.400 . S
C1550 H1535 0.960 . S
C1550 H1536 0.960 . S
C1550 H1537 0.960 . S
C1550 C1549 1.524 . S
C1551 C1548 1.403 . S
C1551 C1552 1.392 . S
C1551 C1555 1.495 . S
C1552 C1551 1.392 . S
C1552 C1553 1.385 . S
C1552 C1554 1.478 . S
C1553 H1547 0.930 . S
C1553 C1549 1.400 . S
C1553 C1552 1.385 . S
C1554 C1552 1.478 . S
C1554 C1556 1.381 . S
C1554 C1560 1.383 . S
C1555 C1551 1.495 . S
C1555 H1561 0.959 . S
C1555 H1562 0.961 . S
C1555 H1563 0.960 . S
C1556 C1554 1.381 . S
C1556 C1557 1.394 . S
C1556 H1564 0.930 . S
C1557 C1556 1.394 . S
C1557 C1558 1.383 . S
C1557 H1565 0.929 . S
C1558 C1557 1.383 . S
C1558 C1559 1.377 . S
C1559 H1543 0.930 . S
C1559 C1558 1.377 . S
C1559 C1560 1.379 . S
C1560 H1544 0.931 . S
C1560 C1554 1.383 . S
C1560 C1559 1.379 . S
H1561 C1555 0.959 . S
H1562 C1555 0.961 . S
H1563 C1555 0.960 . S
H1564 C1556 0.930 . S
H1565 C1557 0.929 . S
H1566 C1574 0.929 . S
H1567 C1576 0.930 . S
H1568 C1578 0.930 . S
H1569 C1581 0.929 . S
H1570 C1584 0.930 . S
H1571 C1586 0.960 . S
H1572 C1586 0.960 . S
H1573 C1586 0.960 . S
C1574 H1566 0.929 . S
C1574 C1575 1.377 . S
C1574 C1576 1.384 . S
C1575 C1574 1.377 . S
C1575 C1581 1.390 . S
C1576 H1567 0.930 . S
C1576 C1574 1.384 . S
C1576 C1577 1.372 . S
C1577 C1576 1.372 . S
C1577 C1578 1.400 . S
C1577 C1582 1.490 . S
C1578 H1568 0.930 . S
C1578 C1577 1.400 . S
C1578 C1581 1.386 . S
H1579 C1595 0.930 . S
H1580 C1596 0.931 . S
C1581 H1569 0.929 . S
C1581 C1575 1.390 . S
C1581 C1578 1.386 . S
C1582 C1577 1.490 . S
C1582 C1584 1.395 . S
C1582 C1585 1.403 . S
H1583 C1589 0.930 . S
C1584 H1570 0.930 . S
C1584 C1582 1.395 . S
C1584 C1587 1.403 . S
C1585 C1582 1.403 . S
C1585 C1586 1.524 . S
C1585 C1589 1.400 . S
C1586 H1571 0.960 . S
C1586 H1572 0.960 . S
C1586 H1573 0.960 . S
C1586 C1585 1.524 . S
C1587 C1584 1.403 . S
C1587 C1588 1.392 . S
C1587 C1591 1.495 . S
C1588 C1587 1.392 . S
C1588 C1589 1.385 . S
C1588 C1590 1.478 . S
C1589 H1583 0.930 . S
C1589 C1585 1.400 . S
C1589 C1588 1.385 . S
C1590 C1588 1.478 . S
C1590 C1592 1.381 . S
C1590 C1596 1.383 . S
C1591 C1587 1.495 . S
C1591 H1597 0.959 . S
C1591 H1598 0.961 . S
C1591 H1599 0.960 . S
C1592 C1590 1.381 . S
C1592 C1593 1.394 . S
C1592 H1600 0.930 . S
C1593 C1592 1.394 . S
C1593 C1594 1.383 . S
C1593 H1601 0.929 . S
C1594 C1593 1.383 . S
C1594 C1595 1.377 . S
C1595 H1579 0.930 . S
C1595 C1594 1.377 . S
C1595 C1596 1.379 . S
C1596 H1580 0.931 . S
C1596 C1590 1.383 . S
C1596 C1595 1.379 . S
H1597 C1591 0.959 . S
H1598 C1591 0.961 . S
H1599 C1591 0.960 . S
H1600 C1592 0.930 . S
H1601 C1593 0.929 . S
H1602 C1610 0.929 . S
H1603 C1612 0.930 . S
H1604 C1614 0.930 . S
H1605 C1617 0.929 . S
H1606 C1620 0.930 . S
H1607 C1622 0.960 . S
H1608 C1622 0.960 . S
H1609 C1622 0.960 . S
C1610 H1602 0.929 . S
C1610 C1611 1.377 . S
C1610 C1612 1.384 . S
C1611 C1610 1.377 . S
C1611 C1617 1.390 . S
C1612 H1603 0.930 . S
C1612 C1610 1.384 . S
C1612 C1613 1.372 . S
C1613 C1612 1.372 . S
C1613 C1614 1.400 . S
C1613 C1618 1.490 . S
C1614 H1604 0.930 . S
C1614 C1613 1.400 . S
C1614 C1617 1.386 . S
H1615 C1631 0.930 . S
H1616 C1632 0.931 . S
C1617 H1605 0.929 . S
C1617 C1611 1.390 . S
C1617 C1614 1.386 . S
C1618 C1613 1.490 . S
C1618 C1620 1.395 . S
C1618 C1621 1.403 . S
H1619 C1625 0.930 . S
C1620 H1606 0.930 . S
C1620 C1618 1.395 . S
C1620 C1623 1.403 . S
C1621 C1618 1.403 . S
C1621 C1622 1.524 . S
C1621 C1625 1.400 . S
C1622 H1607 0.960 . S
C1622 H1608 0.960 . S
C1622 H1609 0.960 . S
C1622 C1621 1.524 . S
C1623 C1620 1.403 . S
C1623 C1624 1.392 . S
C1623 C1627 1.495 . S
C1624 C1623 1.392 . S
C1624 C1625 1.385 . S
C1624 C1626 1.478 . S
C1625 H1619 0.930 . S
C1625 C1621 1.400 . S
C1625 C1624 1.385 . S
C1626 C1624 1.478 . S
C1626 C1628 1.381 . S
C1626 C1632 1.383 . S
C1627 C1623 1.495 . S
C1627 H1633 0.959 . S
C1627 H1634 0.961 . S
C1627 H1635 0.960 . S
C1628 C1626 1.381 . S
C1628 C1629 1.394 . S
C1628 H1636 0.930 . S
C1629 C1628 1.394 . S
C1629 C1630 1.383 . S
C1629 H1637 0.929 . S
C1630 C1629 1.383 . S
C1630 C1631 1.377 . S
C1631 H1615 0.930 . S
C1631 C1630 1.377 . S
C1631 C1632 1.379 . S
C1632 H1616 0.931 . S
C1632 C1626 1.383 . S
C1632 C1631 1.379 . S
H1633 C1627 0.959 . S
H1634 C1627 0.961 . S
H1635 C1627 0.960 . S
H1636 C1628 0.930 . S
H1637 C1629 0.929 . S
H1638 C1646 0.929 . S
H1639 C1648 0.930 . S
H1640 C1650 0.930 . S
H1641 C1653 0.929 . S
H1642 C1656 0.930 . S
H1643 C1658 0.960 . S
H1644 C1658 0.960 . S
H1645 C1658 0.960 . S
C1646 H1638 0.929 . S
C1646 C1647 1.377 . S
C1646 C1648 1.384 . S
C1647 C1646 1.377 . S
C1647 C1653 1.390 . S
C1648 H1639 0.930 . S
C1648 C1646 1.384 . S
C1648 C1649 1.372 . S
C1649 C1648 1.372 . S
C1649 C1650 1.400 . S
C1649 C1654 1.490 . S
C1650 H1640 0.930 . S
C1650 C1649 1.400 . S
C1650 C1653 1.386 . S
H1651 C1667 0.930 . S
H1652 C1668 0.931 . S
C1653 H1641 0.929 . S
C1653 C1647 1.390 . S
C1653 C1650 1.386 . S
C1654 C1649 1.490 . S
C1654 C1656 1.395 . S
C1654 C1657 1.403 . S
H1655 C1661 0.930 . S
C1656 H1642 0.930 . S
C1656 C1654 1.395 . S
C1656 C1659 1.403 . S
C1657 C1654 1.403 . S
C1657 C1658 1.524 . S
C1657 C1661 1.400 . S
C1658 H1643 0.960 . S
C1658 H1644 0.960 . S
C1658 H1645 0.960 . S
C1658 C1657 1.524 . S
C1659 C1656 1.403 . S
C1659 C1660 1.392 . S
C1659 C1663 1.495 . S
C1660 C1659 1.392 . S
C1660 C1661 1.385 . S
C1660 C1662 1.478 . S
C1661 H1655 0.930 . S
C1661 C1657 1.400 . S
C1661 C1660 1.385 . S
C1662 C1660 1.478 . S
C1662 C1664 1.381 . S
C1662 C1668 1.383 . S
C1663 C1659 1.495 . S
C1663 H1669 0.959 . S
C1663 H1670 0.961 . S
C1663 H1671 0.960 . S
C1664 C1662 1.381 . S
C1664 C1665 1.394 . S
C1664 H1672 0.930 . S
C1665 C1664 1.394 . S
C1665 C1666 1.383 . S
C1665 H1673 0.929 1_556 S
C1666 C1665 1.383 . S
C1666 C1667 1.377 . S
C1667 H1651 0.930 . S
C1667 C1666 1.377 . S
C1667 C1668 1.379 . S
C1668 H1652 0.931 . S
C1668 C1662 1.383 . S
C1668 C1667 1.379 . S
H1669 C1663 0.959 . S
H1670 C1663 0.961 . S
H1671 C1663 0.960 . S
H1672 C1664 0.930 . S
H1673 C1665 0.929 1_554 S
H1674 C1682 0.929 . S
H1675 C1684 0.930 . S
H1676 C1686 0.930 . S
H1677 C1689 0.929 . S
H1678 C1692 0.930 . S
H1679 C1694 0.960 . S
H1680 C1694 0.960 . S
H1681 C1694 0.960 . S
C1682 H1674 0.929 . S
C1682 C1683 1.377 . S
C1682 C1684 1.384 . S
C1683 C1682 1.377 . S
C1683 C1689 1.390 . S
C1684 H1675 0.930 . S
C1684 C1682 1.384 . S
C1684 C1685 1.372 . S
C1685 C1684 1.372 . S
C1685 C1686 1.400 . S
C1685 C1690 1.490 . S
C1686 H1676 0.930 . S
C1686 C1685 1.400 . S
C1686 C1689 1.386 . S
H1687 C1703 0.930 . S
H1688 C1704 0.931 . S
C1689 H1677 0.929 . S
C1689 C1683 1.390 . S
C1689 C1686 1.386 . S
C1690 C1685 1.490 . S
C1690 C1692 1.395 . S
C1690 C1693 1.403 . S
H1691 C1697 0.930 . S
C1692 H1678 0.930 . S
C1692 C1690 1.395 . S
C1692 C1695 1.403 . S
C1693 C1690 1.403 . S
C1693 C1694 1.524 . S
C1693 C1697 1.400 . S
C1694 H1679 0.960 . S
C1694 H1680 0.960 . S
C1694 H1681 0.960 . S
C1694 C1693 1.524 . S
C1695 C1692 1.403 . S
C1695 C1696 1.392 . S
C1695 C1699 1.495 . S
C1696 C1695 1.392 . S
C1696 C1697 1.385 . S
C1696 C1698 1.478 . S
C1697 H1691 0.930 . S
C1697 C1693 1.400 . S
C1697 C1696 1.385 . S
C1698 C1696 1.478 . S
C1698 C1700 1.381 . S
C1698 C1704 1.383 . S
C1699 C1695 1.495 . S
C1699 H1705 0.959 . S
C1699 H1706 0.961 . S
C1699 H1707 0.960 . S
C1700 C1698 1.381 . S
C1700 C1701 1.394 . S
C1700 H1708 0.930 . S
C1701 C1700 1.394 . S
C1701 C1702 1.383 . S
C1701 H1709 0.929 . S
C1702 C1701 1.383 . S
C1702 C1703 1.377 . S
C1703 H1687 0.930 . S
C1703 C1702 1.377 . S
C1703 C1704 1.379 . S
C1704 H1688 0.931 . S
C1704 C1698 1.383 . S
C1704 C1703 1.379 . S
H1705 C1699 0.959 . S
H1706 C1699 0.961 . S
H1707 C1699 0.960 . S
H1708 C1700 0.930 . S
H1709 C1701 0.929 . S
H1710 C1718 0.929 . S
H1711 C1720 0.930 . S
H1712 C1722 0.930 . S
H1713 C1725 0.929 . S
H1714 C1728 0.930 . S
H1715 C1730 0.960 . S
H1716 C1730 0.960 . S
H1717 C1730 0.960 . S
C1718 H1710 0.929 . S
C1718 C1719 1.377 . S
C1718 C1720 1.384 . S
C1719 C1718 1.377 . S
C1719 C1725 1.390 . S
C1720 H1711 0.930 . S
C1720 C1718 1.384 . S
C1720 C1721 1.372 . S
C1721 C1720 1.372 . S
C1721 C1722 1.400 . S
C1721 C1726 1.490 . S
C1722 H1712 0.930 . S
C1722 C1721 1.400 . S
C1722 C1725 1.386 . S
H1723 C1739 0.930 . S
H1724 C1740 0.931 . S
C1725 H1713 0.929 . S
C1725 C1719 1.390 . S
C1725 C1722 1.386 . S
C1726 C1721 1.490 . S
C1726 C1728 1.395 . S
C1726 C1729 1.403 . S
H1727 C1733 0.930 . S
C1728 H1714 0.930 . S
C1728 C1726 1.395 . S
C1728 C1731 1.403 . S
C1729 C1726 1.403 . S
C1729 C1730 1.524 . S
C1729 C1733 1.400 . S
C1730 H1715 0.960 . S
C1730 H1716 0.960 . S
C1730 H1717 0.960 . S
C1730 C1729 1.524 . S
C1731 C1728 1.403 . S
C1731 C1732 1.392 . S
C1731 C1735 1.495 . S
C1732 C1731 1.392 . S
C1732 C1733 1.385 . S
C1732 C1734 1.478 . S
C1733 H1727 0.930 . S
C1733 C1729 1.400 . S
C1733 C1732 1.385 . S
C1734 C1732 1.478 . S
C1734 C1736 1.381 . S
C1734 C1740 1.383 . S
C1735 C1731 1.495 . S
C1735 H1741 0.959 . S
C1735 H1742 0.961 . S
C1735 H1743 0.960 . S
C1736 C1734 1.381 . S
C1736 C1737 1.394 . S
C1736 H1744 0.930 . S
C1737 C1736 1.394 . S
C1737 C1738 1.383 . S
C1737 H1745 0.929 . S
C1738 C1737 1.383 . S
C1738 C1739 1.377 . S
C1739 H1723 0.930 . S
C1739 C1738 1.377 . S
C1739 C1740 1.379 . S
C1740 H1724 0.931 . S
C1740 C1734 1.383 . S
C1740 C1739 1.379 . S
H1741 C1735 0.959 . S
H1742 C1735 0.961 . S
H1743 C1735 0.960 . S
H1744 C1736 0.930 . S
H1745 C1737 0.929 . S
H1746 C1754 0.929 . S
H1747 C1756 0.930 . S
H1748 C1758 0.930 . S
H1749 C1761 0.929 . S
H1750 C1764 0.930 . S
H1751 C1766 0.960 . S
H1752 C1766 0.960 . S
H1753 C1766 0.960 . S
C1754 H1746 0.929 . S
C1754 C1755 1.377 . S
C1754 C1756 1.384 . S
C1755 C1754 1.377 . S
C1755 C1761 1.390 . S
C1756 H1747 0.930 . S
C1756 C1754 1.384 . S
C1756 C1757 1.372 . S
C1757 C1756 1.372 . S
C1757 C1758 1.400 . S
C1757 C1762 1.490 . S
C1758 H1748 0.930 . S
C1758 C1757 1.400 . S
C1758 C1761 1.386 . S
H1759 C1775 0.930 . S
H1760 C1776 0.931 . S
C1761 H1749 0.929 . S
C1761 C1755 1.390 . S
C1761 C1758 1.386 . S
C1762 C1757 1.490 . S
C1762 C1764 1.395 . S
C1762 C1765 1.403 . S
H1763 C1769 0.930 . S
C1764 H1750 0.930 . S
C1764 C1762 1.395 . S
C1764 C1767 1.403 . S
C1765 C1762 1.403 . S
C1765 C1766 1.524 . S
C1765 C1769 1.400 . S
C1766 H1751 0.960 . S
C1766 H1752 0.960 . S
C1766 H1753 0.960 . S
C1766 C1765 1.524 . S
C1767 C1764 1.403 . S
C1767 C1768 1.392 . S
C1767 C1771 1.495 . S
C1768 C1767 1.392 . S
C1768 C1769 1.385 . S
C1768 C1770 1.478 . S
C1769 H1763 0.930 . S
C1769 C1765 1.400 . S
C1769 C1768 1.385 . S
C1770 C1768 1.478 . S
C1770 C1772 1.381 . S
C1770 C1776 1.383 . S
C1771 C1767 1.495 . S
C1771 H1777 0.959 . S
C1771 H1778 0.961 . S
C1771 H1779 0.960 . S
C1772 C1770 1.381 . S
C1772 C1773 1.394 . S
C1772 H1780 0.930 . S
C1773 C1772 1.394 . S
C1773 C1774 1.383 . S
C1773 H1781 0.929 . S
C1774 C1773 1.383 . S
C1774 C1775 1.377 . S
C1775 H1759 0.930 . S
C1775 C1774 1.377 . S
C1775 C1776 1.379 . S
C1776 H1760 0.931 . S
C1776 C1770 1.383 . S
C1776 C1775 1.379 . S
H1777 C1771 0.959 . S
H1778 C1771 0.961 . S
H1779 C1771 0.960 . S
H1780 C1772 0.930 . S
H1781 C1773 0.929 . S
H1782 C1790 0.929 . S
H1783 C1792 0.930 . S
H1784 C1794 0.930 . S
H1785 C1797 0.929 . S
H1786 C1800 0.930 . S
H1787 C1802 0.960 . S
H1788 C1802 0.960 . S
H1789 C1802 0.960 . S
C1790 H1782 0.929 . S
C1790 C1791 1.377 . S
C1790 C1792 1.384 . S
C1791 C1790 1.377 . S
C1791 C1797 1.390 . S
C1792 H1783 0.930 . S
C1792 C1790 1.384 . S
C1792 C1793 1.372 . S
C1793 C1792 1.372 . S
C1793 C1794 1.400 . S
C1793 C1798 1.490 . S
C1794 H1784 0.930 . S
C1794 C1793 1.400 . S
C1794 C1797 1.386 . S
H1795 C1811 0.930 . S
H1796 C1812 0.931 . S
C1797 H1785 0.929 . S
C1797 C1791 1.390 . S
C1797 C1794 1.386 . S
C1798 C1793 1.490 . S
C1798 C1800 1.395 . S
C1798 C1801 1.403 . S
H1799 C1805 0.930 . S
C1800 H1786 0.930 . S
C1800 C1798 1.395 . S
C1800 C1803 1.403 . S
C1801 C1798 1.403 . S
C1801 C1802 1.524 . S
C1801 C1805 1.400 . S
C1802 H1787 0.960 . S
C1802 H1788 0.960 . S
C1802 H1789 0.960 . S
C1802 C1801 1.524 . S
C1803 C1800 1.403 . S
C1803 C1804 1.392 . S
C1803 C1807 1.495 . S
C1804 C1803 1.392 . S
C1804 C1805 1.385 . S
C1804 C1806 1.478 . S
C1805 H1799 0.930 . S
C1805 C1801 1.400 . S
C1805 C1804 1.385 . S
C1806 C1804 1.478 . S
C1806 C1808 1.381 . S
C1806 C1812 1.383 . S
C1807 C1803 1.495 . S
C1807 H1813 0.959 . S
C1807 H1814 0.961 . S
C1807 H1815 0.960 . S
C1808 C1806 1.381 . S
C1808 C1809 1.394 . S
C1808 H1816 0.930 . S
C1809 C1808 1.394 . S
C1809 C1810 1.383 . S
C1809 H1817 0.929 . S
C1810 C1809 1.383 . S
C1810 C1811 1.377 . S
C1811 H1795 0.930 . S
C1811 C1810 1.377 . S
C1811 C1812 1.379 . S
C1812 H1796 0.931 . S
C1812 C1806 1.383 . S
C1812 C1811 1.379 . S
H1813 C1807 0.959 . S
H1814 C1807 0.961 . S
H1815 C1807 0.960 . S
H1816 C1808 0.930 . S
H1817 C1809 0.929 . S
H1818 C1826 0.929 . S
H1819 C1828 0.930 . S
H1820 C1830 0.930 . S
H1821 C1833 0.929 . S
H1822 C1836 0.930 . S
H1823 C1838 0.960 . S
H1824 C1838 0.960 . S
H1825 C1838 0.960 . S
C1826 H1818 0.929 . S
C1826 C1827 1.377 . S
C1826 C1828 1.384 . S
C1827 C1826 1.377 . S
C1827 C1833 1.390 . S
C1828 H1819 0.930 . S
C1828 C1826 1.384 . S
C1828 C1829 1.372 . S
C1829 C1828 1.372 . S
C1829 C1830 1.400 . S
C1829 C1834 1.490 . S
C1830 H1820 0.930 . S
C1830 C1829 1.400 . S
C1830 C1833 1.386 . S
H1831 C1847 0.930 . S
H1832 C1848 0.931 . S
C1833 H1821 0.929 . S
C1833 C1827 1.390 . S
C1833 C1830 1.386 . S
C1834 C1829 1.490 . S
C1834 C1836 1.395 . S
C1834 C1837 1.403 . S
H1835 C1841 0.930 . S
C1836 H1822 0.930 . S
C1836 C1834 1.395 . S
C1836 C1839 1.403 . S
C1837 C1834 1.403 . S
C1837 C1838 1.524 . S
C1837 C1841 1.400 . S
C1838 H1823 0.960 . S
C1838 H1824 0.960 . S
C1838 H1825 0.960 . S
C1838 C1837 1.524 . S
C1839 C1836 1.403 . S
C1839 C1840 1.392 . S
C1839 C1843 1.495 . S
C1840 C1839 1.392 . S
C1840 C1841 1.385 . S
C1840 C1842 1.478 . S
C1841 H1835 0.930 . S
C1841 C1837 1.400 . S
C1841 C1840 1.385 . S
C1842 C1840 1.478 . S
C1842 C1844 1.381 . S
C1842 C1848 1.383 . S
C1843 C1839 1.495 . S
C1843 H1849 0.959 . S
C1843 H1850 0.961 . S
C1843 H1851 0.960 . S
C1844 C1842 1.381 . S
C1844 C1845 1.394 . S
C1844 H1852 0.930 . S
C1845 C1844 1.394 . S
C1845 C1846 1.383 . S
C1845 H1853 0.929 . S
C1846 C1845 1.383 . S
C1846 C1847 1.377 . S
C1847 H1831 0.930 . S
C1847 C1846 1.377 . S
C1847 C1848 1.379 . S
C1848 H1832 0.931 . S
C1848 C1842 1.383 . S
C1848 C1847 1.379 . S
H1849 C1843 0.959 . S
H1850 C1843 0.961 . S
H1851 C1843 0.960 . S
H1852 C1844 0.930 . S
H1853 C1845 0.929 . S
H1854 C1862 0.929 . S
H1855 C1864 0.930 . S
H1856 C1866 0.930 . S
H1857 C1869 0.929 . S
H1858 C1872 0.930 . S
H1859 C1874 0.960 . S
H1860 C1874 0.960 . S
H1861 C1874 0.960 . S
C1862 H1854 0.929 . S
C1862 C1863 1.377 . S
C1862 C1864 1.384 . S
C1863 C1862 1.377 . S
C1863 C1869 1.390 . S
C1864 H1855 0.930 . S
C1864 C1862 1.384 . S
C1864 C1865 1.372 . S
C1865 C1864 1.372 . S
C1865 C1866 1.400 . S
C1865 C1870 1.490 . S
C1866 H1856 0.930 . S
C1866 C1865 1.400 . S
C1866 C1869 1.386 . S
H1867 C1883 0.930 . S
H1868 C1884 0.931 . S
C1869 H1857 0.929 . S
C1869 C1863 1.390 . S
C1869 C1866 1.386 . S
C1870 C1865 1.490 . S
C1870 C1872 1.395 . S
C1870 C1873 1.403 . S
H1871 C1877 0.930 . S
C1872 H1858 0.930 . S
C1872 C1870 1.395 . S
C1872 C1875 1.403 . S
C1873 C1870 1.403 . S
C1873 C1874 1.524 . S
C1873 C1877 1.400 . S
C1874 H1859 0.960 . S
C1874 H1860 0.960 . S
C1874 H1861 0.960 . S
C1874 C1873 1.524 . S
C1875 C1872 1.403 . S
C1875 C1876 1.392 . S
C1875 C1879 1.495 . S
C1876 C1875 1.392 . S
C1876 C1877 1.385 . S
C1876 C1878 1.478 . S
C1877 H1871 0.930 . S
C1877 C1873 1.400 . S
C1877 C1876 1.385 . S
C1878 C1876 1.478 . S
C1878 C1880 1.381 . S
C1878 C1884 1.383 . S
C1879 C1875 1.495 . S
C1879 H1885 0.959 . S
C1879 H1886 0.961 . S
C1879 H1887 0.960 . S
C1880 C1878 1.381 . S
C1880 C1881 1.394 . S
C1880 H1888 0.930 . S
C1881 C1880 1.394 . S
C1881 C1882 1.383 . S
C1881 H1889 0.929 . S
C1882 C1881 1.383 . S
C1882 C1883 1.377 . S
C1883 H1867 0.930 . S
C1883 C1882 1.377 . S
C1883 C1884 1.379 . S
C1884 H1868 0.931 . S
C1884 C1878 1.383 . S
C1884 C1883 1.379 . S
H1885 C1879 0.959 . S
H1886 C1879 0.961 . S
H1887 C1879 0.960 . S
H1888 C1880 0.930 . S
H1889 C1881 0.929 . S
H1890 C1898 0.929 . S
H1891 C1900 0.930 . S
H1892 C1902 0.930 . S
H1893 C1905 0.929 . S
H1894 C1908 0.930 . S
H1895 C1910 0.960 . S
H1896 C1910 0.960 . S
H1897 C1910 0.960 . S
C1898 H1890 0.929 . S
C1898 C1899 1.377 . S
C1898 C1900 1.384 . S
C1899 C1898 1.377 . S
C1899 C1905 1.390 . S
C1900 H1891 0.930 . S
C1900 C1898 1.384 . S
C1900 C1901 1.372 . S
C1901 C1900 1.372 . S
C1901 C1902 1.400 . S
C1901 C1906 1.490 . S
C1902 H1892 0.930 . S
C1902 C1901 1.400 . S
C1902 C1905 1.386 . S
H1903 C1919 0.930 . S
H1904 C1920 0.931 . S
C1905 H1893 0.929 . S
C1905 C1899 1.390 . S
C1905 C1902 1.386 . S
C1906 C1901 1.490 . S
C1906 C1908 1.395 . S
C1906 C1909 1.403 . S
H1907 C1913 0.930 . S
C1908 H1894 0.930 . S
C1908 C1906 1.395 . S
C1908 C1911 1.403 . S
C1909 C1906 1.403 . S
C1909 C1910 1.524 . S
C1909 C1913 1.400 . S
C1910 H1895 0.960 . S
C1910 H1896 0.960 . S
C1910 H1897 0.960 . S
C1910 C1909 1.524 . S
C1911 C1908 1.403 . S
C1911 C1912 1.392 . S
C1911 C1915 1.495 . S
C1912 C1911 1.392 . S
C1912 C1913 1.385 . S
C1912 C1914 1.478 . S
C1913 H1907 0.930 . S
C1913 C1909 1.400 . S
C1913 C1912 1.385 . S
C1914 C1912 1.478 . S
C1914 C1916 1.381 . S
C1914 C1920 1.383 . S
C1915 C1911 1.495 . S
C1915 H1921 0.959 . S
C1915 H1922 0.961 . S
C1915 H1923 0.960 . S
C1916 C1914 1.381 . S
C1916 C1917 1.394 . S
C1916 H1924 0.930 . S
C1917 C1916 1.394 . S
C1917 C1918 1.383 . S
C1917 H1925 0.929 . S
C1918 C1917 1.383 . S
C1918 C1919 1.377 . S
C1919 H1903 0.930 . S
C1919 C1918 1.377 . S
C1919 C1920 1.379 . S
C1920 H1904 0.931 . S
C1920 C1914 1.383 . S
C1920 C1919 1.379 . S
H1921 C1915 0.959 . S
H1922 C1915 0.961 . S
H1923 C1915 0.960 . S
H1924 C1916 0.930 . S
H1925 C1917 0.929 . S
H1926 C1934 0.929 . S
H1927 C1936 0.930 . S
H1928 C1938 0.930 . S
H1929 C1941 0.929 . S
H1930 C1944 0.930 . S
H1931 C1946 0.960 . S
H1932 C1946 0.960 . S
H1933 C1946 0.960 . S
C1934 H1926 0.929 . S
C1934 C1935 1.377 . S
C1934 C1936 1.384 . S
C1935 C1934 1.377 . S
C1935 C1941 1.390 . S
C1936 H1927 0.930 . S
C1936 C1934 1.384 . S
C1936 C1937 1.372 . S
C1937 C1936 1.372 . S
C1937 C1938 1.400 . S
C1937 C1942 1.490 . S
C1938 H1928 0.930 . S
C1938 C1937 1.400 . S
C1938 C1941 1.386 . S
H1939 C1955 0.930 . S
H1940 C1956 0.931 . S
C1941 H1929 0.929 . S
C1941 C1935 1.390 . S
C1941 C1938 1.386 . S
C1942 C1937 1.490 . S
C1942 C1944 1.395 . S
C1942 C1945 1.403 . S
H1943 C1949 0.930 . S
C1944 H1930 0.930 . S
C1944 C1942 1.395 . S
C1944 C1947 1.403 . S
C1945 C1942 1.403 . S
C1945 C1946 1.524 . S
C1945 C1949 1.400 . S
C1946 H1931 0.960 . S
C1946 H1932 0.960 . S
C1946 H1933 0.960 . S
C1946 C1945 1.524 . S
C1947 C1944 1.403 . S
C1947 C1948 1.392 . S
C1947 C1951 1.495 . S
C1948 C1947 1.392 . S
C1948 C1949 1.385 . S
C1948 C1950 1.478 . S
C1949 H1943 0.930 . S
C1949 C1945 1.400 . S
C1949 C1948 1.385 . S
C1950 C1948 1.478 . S
C1950 C1952 1.381 . S
C1950 C1956 1.383 . S
C1951 C1947 1.495 . S
C1951 H1957 0.959 . S
C1951 H1958 0.961 . S
C1951 H1959 0.960 . S
C1952 C1950 1.381 . S
C1952 C1953 1.394 . S
C1952 H1960 0.930 . S
C1953 C1952 1.394 . S
C1953 C1954 1.383 . S
C1953 H1961 0.929 . S
C1954 C1953 1.383 . S
C1954 C1955 1.377 . S
C1955 H1939 0.930 . S
C1955 C1954 1.377 . S
C1955 C1956 1.379 . S
C1956 H1940 0.931 . S
C1956 C1950 1.383 . S
C1956 C1955 1.379 . S
H1957 C1951 0.959 . S
H1958 C1951 0.961 . S
H1959 C1951 0.960 . S
H1960 C1952 0.930 . S
H1961 C1953 0.929 . S
H1962 C1970 0.929 1_565 S
H1963 C1972 0.930 1_565 S
H1964 C1974 0.930 . S
H1965 C1977 0.929 . S
H1966 C1980 0.930 . S
H1967 C1982 0.960 . S
H1968 C1982 0.960 . S
H1969 C1982 0.960 . S
C1970 H1962 0.929 1_545 S
C1970 C1971 1.377 . S
C1970 C1972 1.384 . S
C1971 C1970 1.377 . S
C1971 C1977 1.390 . S
C1972 H1963 0.930 1_545 S
C1972 C1970 1.384 . S
C1972 C1973 1.372 . S
C1973 C1972 1.372 . S
C1973 C1974 1.400 . S
C1973 C1978 1.490 . S
C1974 H1964 0.930 . S
C1974 C1973 1.400 . S
C1974 C1977 1.386 . S
H1975 C1991 0.930 . S
H1976 C1992 0.931 . S
C1977 H1965 0.929 . S
C1977 C1971 1.390 . S
C1977 C1974 1.386 . S
C1978 C1973 1.490 . S
C1978 C1980 1.395 . S
C1978 C1981 1.403 . S
H1979 C1985 0.930 . S
C1980 H1966 0.930 . S
C1980 C1978 1.395 . S
C1980 C1983 1.403 . S
C1981 C1978 1.403 . S
C1981 C1982 1.524 . S
C1981 C1985 1.400 . S
C1982 H1967 0.960 . S
C1982 H1968 0.960 . S
C1982 H1969 0.960 . S
C1982 C1981 1.524 . S
C1983 C1980 1.403 . S
C1983 C1984 1.392 . S
C1983 C1987 1.495 . S
C1984 C1983 1.392 . S
C1984 C1985 1.385 . S
C1984 C1986 1.478 . S
C1985 H1979 0.930 . S
C1985 C1981 1.400 . S
C1985 C1984 1.385 . S
C1986 C1984 1.478 . S
C1986 C1988 1.381 . S
C1986 C1992 1.383 . S
C1987 C1983 1.495 . S
C1987 H1993 0.959 . S
C1987 H1994 0.961 . S
C1987 H1995 0.960 . S
C1988 C1986 1.381 . S
C1988 C1989 1.394 . S
C1988 H1996 0.930 1_545 S
C1989 C1988 1.394 . S
C1989 C1990 1.383 . S
C1989 H1997 0.914 1_545 S
C1990 C1989 1.383 . S
C1990 C1991 1.377 . S
C1991 H1975 0.930 . S
C1991 C1990 1.377 . S
C1991 C1992 1.379 . S
C1992 H1976 0.931 . S
C1992 C1986 1.383 . S
C1992 C1991 1.379 . S
H1993 C1987 0.959 . S
H1994 C1987 0.961 . S
H1995 C1987 0.960 . S
H1996 C1988 0.930 1_565 S
H1997 C1989 0.914 1_565 S
H1998 C2006 0.929 . S
H1999 C2008 0.930 . S
H2000 C2010 0.930 . S
H2001 C2013 0.929 . S
H2002 C2016 0.930 . S
H2003 C2018 0.960 . S
H2004 C2018 0.960 . S
H2005 C2018 0.960 . S
C2006 H1998 0.929 . S
C2006 C2007 1.377 1_455 S
C2006 C2008 1.384 . S
C2007 C2006 1.377 1_655 S
C2007 C2013 1.390 . S
C2008 H1999 0.930 . S
C2008 C2006 1.384 . S
C2008 C2009 1.372 1_455 S
C2009 C2008 1.372 1_655 S
C2009 C2010 1.400 . S
C2009 C2014 1.490 . S
C2010 H2000 0.930 . S
C2010 C2009 1.400 . S
C2010 C2013 1.386 . S
H2011 C2027 0.930 . S
H2012 C2028 0.931 . S
C2013 H2001 0.929 . S
C2013 C2007 1.390 . S
C2013 C2010 1.386 . S
C2014 C2009 1.490 . S
C2014 C2016 1.395 1_655 S
C2014 C2017 1.403 . S
H2015 C2021 0.930 . S
C2016 H2002 0.930 . S
C2016 C2014 1.395 1_455 S
C2016 C2019 1.403 . S
C2017 C2014 1.403 . S
C2017 C2018 1.524 . S
C2017 C2021 1.400 . S
C2018 H2003 0.960 . S
C2018 H2004 0.960 . S
C2018 H2005 0.960 . S
C2018 C2017 1.524 . S
C2019 C2016 1.403 . S
C2019 C2020 1.392 1_455 S
C2019 C2023 1.495 . S
C2020 C2019 1.392 1_655 S
C2020 C2021 1.385 . S
C2020 C2022 1.478 . S
C2021 H2015 0.930 . S
C2021 C2017 1.400 . S
C2021 C2020 1.385 . S
C2022 C2020 1.478 . S
C2022 C2024 1.381 1_655 S
C2022 C2028 1.383 . S
C2023 C2019 1.495 . S
C2023 H2029 0.959 . S
C2023 H2030 0.961 . S
C2023 H2031 0.960 . S
C2024 C2022 1.381 1_455 S
C2024 C2025 1.394 . S
C2024 H2032 0.930 . S
C2025 C2024 1.394 . S
C2025 C2026 1.383 1_455 S
C2025 H2033 0.929 . S
C2026 C2025 1.383 1_655 S
C2026 C2027 1.377 . S
C2027 H2011 0.930 . S
C2027 C2026 1.377 . S
C2027 C2028 1.379 . S
C2028 H2012 0.931 . S
C2028 C2022 1.383 . S
C2028 C2027 1.379 . S
H2029 C2023 0.959 . S
H2030 C2023 0.961 . S
H2031 C2023 0.960 . S
H2032 C2024 0.930 . S
H2033 C2025 0.929 . S
H2034 C2042 0.929 . S
H2035 C2044 0.930 . S
H2036 C2046 0.930 . S
H2037 C2049 0.929 . S
H2038 C2052 0.930 . S
H2039 C2054 0.960 . S
H2040 C2054 0.960 . S
H2041 C2054 0.960 . S
C2042 H2034 0.929 . S
C2042 C2043 1.377 . S
C2042 C2044 1.384 . S
C2043 C2042 1.377 . S
C2043 C2049 1.390 . S
C2044 H2035 0.930 . S
C2044 C2042 1.384 . S
C2044 C2045 1.372 . S
C2045 C2044 1.372 . S
C2045 C2046 1.400 . S
C2045 C2050 1.490 . S
C2046 H2036 0.930 . S
C2046 C2045 1.400 . S
C2046 C2049 1.386 . S
H2047 C2063 0.930 . S
H2048 C2064 0.931 . S
C2049 H2037 0.929 . S
C2049 C2043 1.390 . S
C2049 C2046 1.386 . S
C2050 C2045 1.490 . S
C2050 C2052 1.395 . S
C2050 C2053 1.403 . S
H2051 C2057 0.930 . S
C2052 H2038 0.930 . S
C2052 C2050 1.395 . S
C2052 C2055 1.403 . S
C2053 C2050 1.403 . S
C2053 C2054 1.524 . S
C2053 C2057 1.400 . S
C2054 H2039 0.960 . S
C2054 H2040 0.960 . S
C2054 H2041 0.960 . S
C2054 C2053 1.524 . S
C2055 C2052 1.403 . S
C2055 C2056 1.392 . S
C2055 C2059 1.495 . S
C2056 C2055 1.392 . S
C2056 C2057 1.385 . S
C2056 C2058 1.478 . S
C2057 H2051 0.930 . S
C2057 C2053 1.400 . S
C2057 C2056 1.385 . S
C2058 C2056 1.478 . S
C2058 C2060 1.381 . S
C2058 C2064 1.383 . S
C2059 C2055 1.495 . S
C2059 H2065 0.959 . S
C2059 H2066 0.961 . S
C2059 H2067 0.960 . S
C2060 C2058 1.381 . S
C2060 C2061 1.394 . S
C2060 H2068 0.930 . S
C2061 C2060 1.394 . S
C2061 C2062 1.383 . S
C2061 H2069 0.929 . S
C2062 C2061 1.383 . S
C2062 C2063 1.377 . S
C2063 H2047 0.930 . S
C2063 C2062 1.377 . S
C2063 C2064 1.379 . S
C2064 H2048 0.931 . S
C2064 C2058 1.383 . S
C2064 C2063 1.379 . S
H2065 C2059 0.959 . S
H2066 C2059 0.961 . S
H2067 C2059 0.960 . S
H2068 C2060 0.930 . S
H2069 C2061 0.929 . S
H2070 C2078 0.929 . S
H2071 C2080 0.930 . S
H2072 C2082 0.930 . S
H2073 C2085 0.929 . S
H2074 C2088 0.930 . S
H2075 C2090 0.960 . S
H2076 C2090 0.960 . S
H2077 C2090 0.960 . S
C2078 H2070 0.929 . S
C2078 C2079 1.377 . S
C2078 C2080 1.384 . S
C2079 C2078 1.377 . S
C2079 C2085 1.390 . S
C2080 H2071 0.930 . S
C2080 C2078 1.384 . S
C2080 C2081 1.372 . S
C2081 C2080 1.372 . S
C2081 C2082 1.400 . S
C2081 C2086 1.490 . S
C2082 H2072 0.930 . S
C2082 C2081 1.400 . S
C2082 C2085 1.386 . S
H2083 C2099 0.930 . S
H2084 C2100 0.931 . S
C2085 H2073 0.929 . S
C2085 C2079 1.390 . S
C2085 C2082 1.386 . S
C2086 C2081 1.490 . S
C2086 C2088 1.395 . S
C2086 C2089 1.403 . S
H2087 C2093 0.930 1_655 S
C2088 H2074 0.930 . S
C2088 C2086 1.395 . S
C2088 C2091 1.403 . S
C2089 C2086 1.403 . S
C2089 C2090 1.524 1_455 S
C2089 C2093 1.400 . S
C2090 H2075 0.960 . S
C2090 H2076 0.960 . S
C2090 H2077 0.960 . S
C2090 C2089 1.524 1_655 S
C2091 C2088 1.403 . S
C2091 C2092 1.392 . S
C2091 C2095 1.495 . S
C2092 C2091 1.392 . S
C2092 C2093 1.385 . S
C2092 C2094 1.478 . S
C2093 H2087 0.930 1_455 S
C2093 C2089 1.400 . S
C2093 C2092 1.385 . S
C2094 C2092 1.478 . S
C2094 C2096 1.381 . S
C2094 C2100 1.383 . S
C2095 C2091 1.495 . S
C2095 H2101 0.959 . S
C2095 H2102 0.961 . S
C2095 H2103 0.960 . S
C2096 C2094 1.381 . S
C2096 C2097 1.394 . S
C2096 H2104 0.930 . S
C2097 C2096 1.394 . S
C2097 C2098 1.383 . S
C2097 H2105 0.929 . S
C2098 C2097 1.383 . S
C2098 C2099 1.377 . S
C2099 H2083 0.930 . S
C2099 C2098 1.377 . S
C2099 C2100 1.379 . S
C2100 H2084 0.931 . S
C2100 C2094 1.383 . S
C2100 C2099 1.379 . S
H2101 C2095 0.959 . S
H2102 C2095 0.961 . S
H2103 C2095 0.960 . S
H2104 C2096 0.930 . S
H2105 C2097 0.929 . S
H2106 C2114 0.929 . S
H2107 C2116 0.930 . S
H2108 C2118 0.930 . S
H2109 C2121 0.929 . S
H2110 C2124 0.930 . S
H2111 C2126 0.960 . S
H2112 C2126 0.960 . S
H2113 C2126 0.960 . S
C2114 H2106 0.929 . S
C2114 C2115 1.377 . S
C2114 C2116 1.384 . S
C2115 C2114 1.377 . S
C2115 C2121 1.390 . S
C2116 H2107 0.930 . S
C2116 C2114 1.384 . S
C2116 C2117 1.372 . S
C2117 C2116 1.372 . S
C2117 C2118 1.400 . S
C2117 C2122 1.490 . S
C2118 H2108 0.930 . S
C2118 C2117 1.400 . S
C2118 C2121 1.386 . S
H2119 C2135 0.930 . S
H2120 C2136 0.931 . S
C2121 H2109 0.929 . S
C2121 C2115 1.390 . S
C2121 C2118 1.386 . S
C2122 C2117 1.490 . S
C2122 C2124 1.395 . S
C2122 C2125 1.403 . S
H2123 C2129 0.930 . S
C2124 H2110 0.930 . S
C2124 C2122 1.395 . S
C2124 C2127 1.403 . S
C2125 C2122 1.403 . S
C2125 C2126 1.524 . S
C2125 C2129 1.400 . S
C2126 H2111 0.960 . S
C2126 H2112 0.960 . S
C2126 H2113 0.960 . S
C2126 C2125 1.524 . S
C2127 C2124 1.403 . S
C2127 C2128 1.392 . S
C2127 C2131 1.495 . S
C2128 C2127 1.392 . S
C2128 C2129 1.385 . S
C2128 C2130 1.478 . S
C2129 H2123 0.930 . S
C2129 C2125 1.400 . S
C2129 C2128 1.385 . S
C2130 C2128 1.478 . S
C2130 C2132 1.381 . S
C2130 C2136 1.383 . S
C2131 C2127 1.495 . S
C2131 H2137 0.959 . S
C2131 H2138 0.961 . S
C2131 H2139 0.960 . S
C2132 C2130 1.381 . S
C2132 C2133 1.394 . S
C2132 H2140 0.930 . S
C2133 C2132 1.394 . S
C2133 C2134 1.383 . S
C2133 H2141 0.929 . S
C2134 C2133 1.383 . S
C2134 C2135 1.377 . S
C2135 H2119 0.930 . S
C2135 C2134 1.377 . S
C2135 C2136 1.379 . S
C2136 H2120 0.931 . S
C2136 C2130 1.383 . S
C2136 C2135 1.379 . S
H2137 C2131 0.959 . S
H2138 C2131 0.961 . S
H2139 C2131 0.960 . S
H2140 C2132 0.930 . S
H2141 C2133 0.929 . S
H2142 C2150 0.929 . S
H2143 C2152 0.930 . S
H2144 C2154 0.930 . S
H2145 C2157 0.929 . S
H2146 C2160 0.930 . S
H2147 C2162 0.960 . S
H2148 C2162 0.960 . S
H2149 C2162 0.960 . S
C2150 H2142 0.929 . S
C2150 C2151 1.377 1_565 S
C2150 C2152 1.384 . S
C2151 C2150 1.377 1_545 S
C2151 C2157 1.390 . S
C2152 H2143 0.930 . S
C2152 C2150 1.384 . S
C2152 C2153 1.372 1_565 S
C2153 C2152 1.372 1_545 S
C2153 C2154 1.400 . S
C2153 C2158 1.490 . S
C2154 H2144 0.930 . S
C2154 C2153 1.400 . S
C2154 C2157 1.386 . S
H2155 C2171 0.930 . S
H2156 C2172 0.931 . S
C2157 H2145 0.929 . S
C2157 C2151 1.390 . S
C2157 C2154 1.386 . S
C2158 C2153 1.490 . S
C2158 C2160 1.395 1_545 S
C2158 C2161 1.403 . S
H2159 C2165 0.930 . S
C2160 H2146 0.930 . S
C2160 C2158 1.395 1_565 S
C2160 C2163 1.403 . S
C2161 C2158 1.403 . S
C2161 C2162 1.524 . S
C2161 C2165 1.400 . S
C2162 H2147 0.960 . S
C2162 H2148 0.960 . S
C2162 H2149 0.960 . S
C2162 C2161 1.524 . S
C2163 C2160 1.403 . S
C2163 C2164 1.392 . S
C2163 C2167 1.495 . S
C2164 C2163 1.392 . S
C2164 C2165 1.385 1_565 S
C2164 C2166 1.478 . S
C2165 H2159 0.930 . S
C2165 C2161 1.400 . S
C2165 C2164 1.385 1_545 S
C2166 C2164 1.478 . S
C2166 C2168 1.381 . S
C2166 C2172 1.383 1_565 S
C2167 C2163 1.495 . S
C2167 H2173 0.959 . S
C2167 H2174 0.961 . S
C2167 H2175 0.960 . S
C2168 C2166 1.381 . S
C2168 C2169 1.394 . S
C2168 H2176 0.930 . S
C2169 C2168 1.394 . S
C2169 C2170 1.380 1_565 S
C2169 H2177 0.929 . S
C2170 C2169 1.380 1_545 S
C2170 C2171 1.378 . S
C2171 H2155 0.930 . S
C2171 C2170 1.378 . S
C2171 C2172 1.379 . S
C2172 H2156 0.931 . S
C2172 C2166 1.383 1_545 S
C2172 C2171 1.379 . S
H2173 C2167 0.959 . S
H2174 C2167 0.961 . S
H2175 C2167 0.960 . S
H2176 C2168 0.930 . S
H2177 C2169 0.929 . S
H2178 C2186 0.929 . S
H2179 C2188 0.930 . S
H2180 C2190 0.933 . S
H2181 C2193 0.929 . S
H2182 C2196 0.930 . S
H2183 C2198 0.960 . S
H2184 C2198 0.960 . S
H2185 C2198 0.960 . S
C2186 H2178 0.929 . S
C2186 C2187 1.377 . S
C2186 C2188 1.384 . S
C2187 C2186 1.377 . S
C2187 C2193 1.390 . S
C2188 H2179 0.930 . S
C2188 C2186 1.384 . S
C2188 C2189 1.372 . S
C2189 C2188 1.372 . S
C2189 C2190 1.400 . S
C2189 C2194 1.490 . S
C2190 H2180 0.933 . S
C2190 C2189 1.400 . S
C2190 C2193 1.386 . S
H2191 C2207 0.930 . S
H2192 C2208 0.931 . S
C2193 H2181 0.929 . S
C2193 C2187 1.390 . S
C2193 C2190 1.386 . S
C2194 C2189 1.490 . S
C2194 C2196 1.395 1_545 S
C2194 C2197 1.403 . S
H2195 C2201 0.930 . S
C2196 H2182 0.930 . S
C2196 C2194 1.395 1_565 S
C2196 C2199 1.403 . S
C2197 C2194 1.403 . S
C2197 C2198 1.524 . S
C2197 C2201 1.400 . S
C2198 H2183 0.960 . S
C2198 H2184 0.960 . S
C2198 H2185 0.960 . S
C2198 C2197 1.524 . S
C2199 C2196 1.403 . S
C2199 C2200 1.392 . S
C2199 C2203 1.495 . S
C2200 C2199 1.392 . S
C2200 C2201 1.385 1_565 S
C2200 C2202 1.478 . S
C2201 H2195 0.930 . S
C2201 C2197 1.400 . S
C2201 C2200 1.385 1_545 S
C2202 C2200 1.478 . S
C2202 C2204 1.381 1_565 S
C2202 C2208 1.383 . S
C2203 C2199 1.495 . S
C2203 H2209 0.959 . S
C2203 H2210 0.961 . S
C2203 H2211 0.960 . S
C2204 C2202 1.381 1_545 S
C2204 C2205 1.394 . S
C2204 H2212 0.930 . S
C2205 C2204 1.394 . S
C2205 C2206 1.383 1_545 S
C2205 H2213 0.929 . S
C2206 C2205 1.383 1_565 S
C2206 C2207 1.377 . S
C2207 H2191 0.930 . S
C2207 C2206 1.377 . S
C2207 C2208 1.379 . S
C2208 H2192 0.931 . S
C2208 C2202 1.383 . S
C2208 C2207 1.379 . S
H2209 C2203 0.959 . S
H2210 C2203 0.961 . S
H2211 C2203 0.960 . S
H2212 C2204 0.930 . S
H2213 C2205 0.929 . S
H2214 C2222 0.934 . S
H2215 C2224 0.930 1_655 S
H2216 C2226 0.930 . S
H2217 C2229 0.929 . S
H2218 C2232 0.930 . S
H2219 C2234 0.960 . S
H2220 C2234 0.960 . S
H2221 C2234 0.960 . S
C2222 H2214 0.934 . S
C2222 C2223 1.377 . S
C2222 C2224 1.384 . S
C2223 C2222 1.377 . S
C2223 C2229 1.390 . S
C2224 H2215 0.930 1_455 S
C2224 C2222 1.384 . S
C2224 C2225 1.372 . S
C2225 C2224 1.372 . S
C2225 C2226 1.400 . S
C2225 C2230 1.490 . S
C2226 H2216 0.930 . S
C2226 C2225 1.400 . S
C2226 C2229 1.386 . S
H2227 C2243 0.930 . S
H2228 C2244 0.931 . S
C2229 H2217 0.929 . S
C2229 C2223 1.390 . S
C2229 C2226 1.386 . S
C2230 C2225 1.490 . S
C2230 C2232 1.395 . S
C2230 C2233 1.403 . S
H2231 C2237 0.930 . S
C2232 H2218 0.930 . S
C2232 C2230 1.395 . S
C2232 C2235 1.403 . S
C2233 C2230 1.403 . S
C2233 C2234 1.524 . S
C2233 C2237 1.400 . S
C2234 H2219 0.960 . S
C2234 H2220 0.960 . S
C2234 H2221 0.960 . S
C2234 C2233 1.524 . S
C2235 C2232 1.403 . S
C2235 C2236 1.392 . S
C2235 C2239 1.495 1_455 S
C2236 C2235 1.392 . S
C2236 C2237 1.385 . S
C2236 C2238 1.478 . S
C2237 H2231 0.930 . S
C2237 C2233 1.400 . S
C2237 C2236 1.385 . S
C2238 C2236 1.478 . S
C2238 C2240 1.381 . S
C2238 C2244 1.383 . S
C2239 C2235 1.495 1_655 S
C2239 H2245 0.959 . S
C2239 H2246 0.961 . S
C2239 H2247 0.960 . S
C2240 C2238 1.381 . S
C2240 C2241 1.394 . S
C2240 H2248 0.930 1_455 S
C2241 C2240 1.394 . S
C2241 C2242 1.383 . S
C2241 H2249 0.929 1_455 S
C2242 C2241 1.383 . S
C2242 C2243 1.377 . S
C2243 H2227 0.930 . S
C2243 C2242 1.377 . S
C2243 C2244 1.379 . S
C2244 H2228 0.931 . S
C2244 C2238 1.383 . S
C2244 C2243 1.379 . S
H2245 C2239 0.959 . S
H2246 C2239 0.961 . S
H2247 C2239 0.960 . S
H2248 C2240 0.930 1_655 S
H2249 C2241 0.929 1_655 S
H2250 C2258 0.929 . S
H2251 C2260 0.930 . S
H2252 C2262 0.930 . S
H2253 C2265 0.929 . S
H2254 C2268 0.930 . S
H2255 C2270 0.960 . S
H2256 C2270 0.960 . S
H2257 C2270 0.960 . S
C2258 H2250 0.929 . S
C2258 C2259 1.377 . S
C2258 C2260 1.384 . S
C2259 C2258 1.377 . S
C2259 C2265 1.390 . S
C2260 H2251 0.930 . S
C2260 C2258 1.384 . S
C2260 C2261 1.372 . S
C2261 C2260 1.372 . S
C2261 C2262 1.400 . S
C2261 C2266 1.490 . S
C2262 H2252 0.930 . S
C2262 C2261 1.400 . S
C2262 C2265 1.386 . S
H2263 C2279 0.930 . S
H2264 C2280 0.931 . S
C2265 H2253 0.929 . S
C2265 C2259 1.390 . S
C2265 C2262 1.386 . S
C2266 C2261 1.490 . S
C2266 C2268 1.395 . S
C2266 C2269 1.403 . S
H2267 C2273 0.930 . S
C2268 H2254 0.930 . S
C2268 C2266 1.395 . S
C2268 C2271 1.403 . S
C2269 C2266 1.403 . S
C2269 C2270 1.524 . S
C2269 C2273 1.400 . S
C2270 H2255 0.960 . S
C2270 H2256 0.960 . S
C2270 H2257 0.960 . S
C2270 C2269 1.524 . S
C2271 C2268 1.403 . S
C2271 C2272 1.392 . S
C2271 C2275 1.495 . S
C2272 C2271 1.392 . S
C2272 C2273 1.385 . S
C2272 C2274 1.478 . S
C2273 H2267 0.930 . S
C2273 C2269 1.400 . S
C2273 C2272 1.385 . S
C2274 C2272 1.478 . S
C2274 C2276 1.381 . S
C2274 C2280 1.383 . S
C2275 C2271 1.495 . S
C2275 H2281 0.959 . S
C2275 H2282 0.961 . S
C2275 H2283 0.960 . S
C2276 C2274 1.381 . S
C2276 C2277 1.394 . S
C2276 H2284 0.930 . S
C2277 C2276 1.394 . S
C2277 C2278 1.383 . S
C2277 H2285 0.929 . S
C2278 C2277 1.383 . S
C2278 C2279 1.377 . S
C2279 H2263 0.930 . S
C2279 C2278 1.377 . S
C2279 C2280 1.379 . S
C2280 H2264 0.931 . S
C2280 C2274 1.383 . S
C2280 C2279 1.379 . S
H2281 C2275 0.959 . S
H2282 C2275 0.961 . S
H2283 C2275 0.960 . S
H2284 C2276 0.930 . S
H2285 C2277 0.929 . S
H2286 C2294 0.929 . S
H2287 C2296 0.930 . S
H2288 C2298 0.930 1_455 S
H2289 C2301 0.942 . S
H2290 C2304 0.930 . S
H2291 C2306 0.960 . S
H2292 C2306 0.960 . S
H2293 C2306 0.960 . S
C2294 H2286 0.929 . S
C2294 C2295 1.377 . S
C2294 C2296 1.384 . S
C2295 C2294 1.377 . S
C2295 C2301 1.390 . S
C2296 H2287 0.930 . S
C2296 C2294 1.384 . S
C2296 C2297 1.372 . S
C2297 C2296 1.372 . S
C2297 C2298 1.400 . S
C2297 C2302 1.490 . S
C2298 H2288 0.930 1_655 S
C2298 C2297 1.400 . S
C2298 C2301 1.386 . S
H2299 C2315 0.926 1_455 S
H2300 C2316 0.931 . S
C2301 H2289 0.942 . S
C2301 C2295 1.390 . S
C2301 C2298 1.386 . S
C2302 C2297 1.490 . S
C2302 C2304 1.395 . S
C2302 C2305 1.403 1_655 S
H2303 C2309 0.930 . S
C2304 H2290 0.930 . S
C2304 C2302 1.395 . S
C2304 C2307 1.403 . S
C2305 C2302 1.403 1_455 S
C2305 C2306 1.524 . S
C2305 C2309 1.400 . S
C2306 H2291 0.960 . S
C2306 H2292 0.960 . S
C2306 H2293 0.960 . S
C2306 C2305 1.524 . S
C2307 C2304 1.403 . S
C2307 C2308 1.392 . S
C2307 C2311 1.495 . S
C2308 C2307 1.392 . S
C2308 C2309 1.385 1_655 S
C2308 C2310 1.478 . S
C2309 H2303 0.930 . S
C2309 C2305 1.400 . S
C2309 C2308 1.385 1_455 S
C2310 C2308 1.478 . S
C2310 C2312 1.381 . S
C2310 C2316 1.383 . S
C2311 C2307 1.495 . S
C2311 H2317 0.959 . S
C2311 H2318 0.961 . S
C2311 H2319 0.960 . S
C2312 C2310 1.381 . S
C2312 C2313 1.394 . S
C2312 H2320 0.930 . S
C2313 C2312 1.394 . S
C2313 C2314 1.383 . S
C2313 H2321 0.929 . S
C2314 C2313 1.383 . S
C2314 C2315 1.377 . S
C2315 H2299 0.926 1_655 S
C2315 C2314 1.377 . S
C2315 C2316 1.379 . S
C2316 H2300 0.931 . S
C2316 C2310 1.383 . S
C2316 C2315 1.379 . S
H2317 C2311 0.959 . S
H2318 C2311 0.961 . S
H2319 C2311 0.960 . S
H2320 C2312 0.930 . S
H2321 C2313 0.929 . S
H2322 C2330 0.929 . S
H2323 C2332 0.930 . S
H2324 C2334 0.930 . S
H2325 C2337 0.929 . S
H2326 C2340 0.930 . S
H2327 C2342 0.960 . S
H2328 C2342 0.960 . S
H2329 C2342 0.960 . S
C2330 H2322 0.929 . S
C2330 C2331 1.377 . S
C2330 C2332 1.384 . S
C2331 C2330 1.377 . S
C2331 C2337 1.390 . S
C2332 H2323 0.930 . S
C2332 C2330 1.384 . S
C2332 C2333 1.372 . S
C2333 C2332 1.372 . S
C2333 C2334 1.400 . S
C2333 C2338 1.490 . S
C2334 H2324 0.930 . S
C2334 C2333 1.400 . S
C2334 C2337 1.386 . S
H2335 C2351 0.930 . S
H2336 C2352 0.931 . S
C2337 H2325 0.929 . S
C2337 C2331 1.390 . S
C2337 C2334 1.386 . S
C2338 C2333 1.490 . S
C2338 C2340 1.395 . S
C2338 C2341 1.403 . S
H2339 C2345 0.930 . S
C2340 H2326 0.930 . S
C2340 C2338 1.395 . S
C2340 C2343 1.403 . S
C2341 C2338 1.403 . S
C2341 C2342 1.524 . S
C2341 C2345 1.400 . S
C2342 H2327 0.960 . S
C2342 H2328 0.960 . S
C2342 H2329 0.960 . S
C2342 C2341 1.524 . S
C2343 C2340 1.403 . S
C2343 C2344 1.392 . S
C2343 C2347 1.495 . S
C2344 C2343 1.392 . S
C2344 C2345 1.385 . S
C2344 C2346 1.478 . S
C2345 H2339 0.930 . S
C2345 C2341 1.400 . S
C2345 C2344 1.385 . S
C2346 C2344 1.478 . S
C2346 C2348 1.381 . S
C2346 C2352 1.383 . S
C2347 C2343 1.495 . S
C2347 H2353 0.959 . S
C2347 H2354 0.961 . S
C2347 H2355 0.960 . S
C2348 C2346 1.381 . S
C2348 C2349 1.394 . S
C2348 H2356 0.930 . S
C2349 C2348 1.394 . S
C2349 C2350 1.383 . S
C2349 H2357 0.929 . S
C2350 C2349 1.383 . S
C2350 C2351 1.377 . S
C2351 H2335 0.930 . S
C2351 C2350 1.377 . S
C2351 C2352 1.379 . S
C2352 H2336 0.931 . S
C2352 C2346 1.383 . S
C2352 C2351 1.379 . S
H2353 C2347 0.959 . S
H2354 C2347 0.961 . S
H2355 C2347 0.960 . S
H2356 C2348 0.930 . S
H2357 C2349 0.929 . S
H2358 C2366 0.929 . S
H2359 C2368 0.930 . S
H2360 C2370 0.930 1_565 S
H2361 C2373 0.929 1_565 S
H2362 C2376 0.930 . S
H2363 C2378 0.960 . S
H2364 C2378 0.960 . S
H2365 C2378 0.960 . S
C2366 H2358 0.929 . S
C2366 C2367 1.377 . S
C2366 C2368 1.384 . S
C2367 C2366 1.377 . S
C2367 C2373 1.390 . S
C2368 H2359 0.930 . S
C2368 C2366 1.384 . S
C2368 C2369 1.372 . S
C2369 C2368 1.372 . S
C2369 C2370 1.400 . S
C2369 C2374 1.490 . S
C2370 H2360 0.930 1_545 S
C2370 C2369 1.400 . S
C2370 C2373 1.386 . S
H2371 C2387 0.930 1_565 S
H2372 C2388 0.931 1_565 S
C2373 H2361 0.929 1_545 S
C2373 C2367 1.390 . S
C2373 C2370 1.386 . S
C2374 C2369 1.490 . S
C2374 C2376 1.395 . S
C2374 C2377 1.403 . S
H2375 C2381 0.930 . S
C2376 H2362 0.930 . S
C2376 C2374 1.395 . S
C2376 C2379 1.403 . S
C2377 C2374 1.403 . S
C2377 C2378 1.524 . S
C2377 C2381 1.400 . S
C2378 H2363 0.960 . S
C2378 H2364 0.960 . S
C2378 H2365 0.960 . S
C2378 C2377 1.524 . S
C2379 C2376 1.403 . S
C2379 C2380 1.392 . S
C2379 C2383 1.495 . S
C2380 C2379 1.392 . S
C2380 C2381 1.385 . S
C2380 C2382 1.478 . S
C2381 H2375 0.930 . S
C2381 C2377 1.400 . S
C2381 C2380 1.385 . S
C2382 C2380 1.478 . S
C2382 C2384 1.381 . S
C2382 C2388 1.383 . S
C2383 C2379 1.495 . S
C2383 H2389 0.959 . S
C2383 H2390 0.961 . S
C2383 H2391 0.960 . S
C2384 C2382 1.381 . S
C2384 C2385 1.394 . S
C2384 H2392 0.930 . S
C2385 C2384 1.394 . S
C2385 C2386 1.383 . S
C2385 H2393 0.929 . S
C2386 C2385 1.383 . S
C2386 C2387 1.377 . S
C2387 H2371 0.930 1_545 S
C2387 C2386 1.377 . S
C2387 C2388 1.379 . S
C2388 H2372 0.931 1_545 S
C2388 C2382 1.383 . S
C2388 C2387 1.379 . S
H2389 C2383 0.959 . S
H2390 C2383 0.961 . S
H2391 C2383 0.960 . S
H2392 C2384 0.930 . S
H2393 C2385 0.929 . S
H2394 C2402 0.929 . S
H2395 C2404 0.930 . S
H2396 C2406 0.930 . S
H2397 C2409 0.929 . S
H2398 C2412 0.930 . S
H2399 C2414 0.960 . S
H2400 C2414 0.960 . S
H2401 C2414 0.960 . S
C2402 H2394 0.929 . S
C2402 C2403 1.377 . S
C2402 C2404 1.384 . S
C2403 C2402 1.377 . S
C2403 C2409 1.390 . S
C2404 H2395 0.930 . S
C2404 C2402 1.384 . S
C2404 C2405 1.372 . S
C2405 C2404 1.372 . S
C2405 C2406 1.400 . S
C2405 C2410 1.490 . S
C2406 H2396 0.930 . S
C2406 C2405 1.400 . S
C2406 C2409 1.386 . S
H2407 C2423 0.930 . S
H2408 C2424 0.931 . S
C2409 H2397 0.929 . S
C2409 C2403 1.390 . S
C2409 C2406 1.386 . S
C2410 C2405 1.490 . S
C2410 C2412 1.395 . S
C2410 C2413 1.403 . S
H2411 C2417 0.930 . S
C2412 H2398 0.930 . S
C2412 C2410 1.395 . S
C2412 C2415 1.403 . S
C2413 C2410 1.403 . S
C2413 C2414 1.524 . S
C2413 C2417 1.400 . S
C2414 H2399 0.960 . S
C2414 H2400 0.960 . S
C2414 H2401 0.960 . S
C2414 C2413 1.524 . S
C2415 C2412 1.403 . S
C2415 C2416 1.392 . S
C2415 C2419 1.495 . S
C2416 C2415 1.392 . S
C2416 C2417 1.385 . S
C2416 C2418 1.478 . S
C2417 H2411 0.930 . S
C2417 C2413 1.400 . S
C2417 C2416 1.385 . S
C2418 C2416 1.478 . S
C2418 C2420 1.381 . S
C2418 C2424 1.383 . S
C2419 C2415 1.495 . S
C2419 H2425 0.959 . S
C2419 H2426 0.961 . S
C2419 H2427 0.960 . S
C2420 C2418 1.381 . S
C2420 C2421 1.394 . S
C2420 H2428 0.930 . S
C2421 C2420 1.394 . S
C2421 C2422 1.383 . S
C2421 H2429 0.929 . S
C2422 C2421 1.383 . S
C2422 C2423 1.377 . S
C2423 H2407 0.930 . S
C2423 C2422 1.377 . S
C2423 C2424 1.379 . S
C2424 H2408 0.931 . S
C2424 C2418 1.383 . S
C2424 C2423 1.379 . S
H2425 C2419 0.959 . S
H2426 C2419 0.961 . S
H2427 C2419 0.960 . S
H2428 C2420 0.930 . S
H2429 C2421 0.929 . S
H2430 C2438 0.929 . S
H2431 C2440 0.930 . S
H2432 C2442 0.930 . S
H2433 C2445 0.929 . S
H2434 C2448 0.930 . S
H2435 C2450 0.960 . S
H2436 C2450 0.960 . S
H2437 C2450 0.960 . S
C2438 H2430 0.929 . S
C2438 C2439 1.377 . S
C2438 C2440 1.384 . S
C2439 C2438 1.377 . S
C2439 C2445 1.390 . S
C2440 H2431 0.930 . S
C2440 C2438 1.384 . S
C2440 C2441 1.372 . S
C2441 C2440 1.372 . S
C2441 C2442 1.400 . S
C2441 C2446 1.490 . S
C2442 H2432 0.930 . S
C2442 C2441 1.400 . S
C2442 C2445 1.386 . S
H2443 C2459 0.930 . S
H2444 C2460 0.931 . S
C2445 H2433 0.929 . S
C2445 C2439 1.390 . S
C2445 C2442 1.386 . S
C2446 C2441 1.490 . S
C2446 C2448 1.395 . S
C2446 C2449 1.403 . S
H2447 C2453 0.930 . S
C2448 H2434 0.930 . S
C2448 C2446 1.395 . S
C2448 C2451 1.403 . S
C2449 C2446 1.403 . S
C2449 C2450 1.524 . S
C2449 C2453 1.400 . S
C2450 H2435 0.960 . S
C2450 H2436 0.960 . S
C2450 H2437 0.960 . S
C2450 C2449 1.524 . S
C2451 C2448 1.403 . S
C2451 C2452 1.392 . S
C2451 C2455 1.495 . S
C2452 C2451 1.392 . S
C2452 C2453 1.385 . S
C2452 C2454 1.478 . S
C2453 H2447 0.930 . S
C2453 C2449 1.400 . S
C2453 C2452 1.385 . S
C2454 C2452 1.478 . S
C2454 C2456 1.381 . S
C2454 C2460 1.383 . S
C2455 C2451 1.495 . S
C2455 H2461 0.959 . S
C2455 H2462 0.961 . S
C2455 H2463 0.960 . S
C2456 C2454 1.381 . S
C2456 C2457 1.394 . S
C2456 H2464 0.930 . S
C2457 C2456 1.394 . S
C2457 C2458 1.383 . S
C2457 H2465 0.929 . S
C2458 C2457 1.383 . S
C2458 C2459 1.377 . S
C2459 H2443 0.930 . S
C2459 C2458 1.377 . S
C2459 C2460 1.379 . S
C2460 H2444 0.931 . S
C2460 C2454 1.383 . S
C2460 C2459 1.379 . S
H2461 C2455 0.959 . S
H2462 C2455 0.961 . S
H2463 C2455 0.960 . S
H2464 C2456 0.930 . S
H2465 C2457 0.929 . S
H2466 C2474 0.929 . S
H2467 C2476 0.930 . S
H2468 C2478 0.930 . S
H2469 C2481 0.929 . S
H2470 C2484 0.930 . S
H2471 C2486 0.960 . S
H2472 C2486 0.960 . S
H2473 C2486 0.960 . S
C2474 H2466 0.929 . S
C2474 C2475 1.377 . S
C2474 C2476 1.384 . S
C2475 C2474 1.377 . S
C2475 C2481 1.390 . S
C2476 H2467 0.930 . S
C2476 C2474 1.384 . S
C2476 C2477 1.372 . S
C2477 C2476 1.372 . S
C2477 C2478 1.400 . S
C2477 C2482 1.490 . S
C2478 H2468 0.930 . S
C2478 C2477 1.400 . S
C2478 C2481 1.386 . S
H2479 C2495 0.930 . S
H2480 C2496 0.931 . S
C2481 H2469 0.929 . S
C2481 C2475 1.390 . S
C2481 C2478 1.386 . S
C2482 C2477 1.490 . S
C2482 C2484 1.395 . S
C2482 C2485 1.403 . S
H2483 C2489 0.930 . S
C2484 H2470 0.930 . S
C2484 C2482 1.395 . S
C2484 C2487 1.403 . S
C2485 C2482 1.403 . S
C2485 C2486 1.524 . S
C2485 C2489 1.400 . S
C2486 H2471 0.960 . S
C2486 H2472 0.960 . S
C2486 H2473 0.960 . S
C2486 C2485 1.524 . S
C2487 C2484 1.403 . S
C2487 C2488 1.392 . S
C2487 C2491 1.495 . S
C2488 C2487 1.392 . S
C2488 C2489 1.385 . S
C2488 C2490 1.478 . S
C2489 H2483 0.930 . S
C2489 C2485 1.400 . S
C2489 C2488 1.385 . S
C2490 C2488 1.478 . S
C2490 C2492 1.381 . S
C2490 C2496 1.383 . S
C2491 C2487 1.495 . S
C2491 H2497 0.959 . S
C2491 H2498 0.961 . S
C2491 H2499 0.960 . S
C2492 C2490 1.381 . S
C2492 C2493 1.394 . S
C2492 H2500 0.930 . S
C2493 C2492 1.394 . S
C2493 C2494 1.383 . S
C2493 H2501 0.929 . S
C2494 C2493 1.383 . S
C2494 C2495 1.377 . S
C2495 H2479 0.930 . S
C2495 C2494 1.377 . S
C2495 C2496 1.379 . S
C2496 H2480 0.931 . S
C2496 C2490 1.383 . S
C2496 C2495 1.379 . S
H2497 C2491 0.959 . S
H2498 C2491 0.961 . S
H2499 C2491 0.960 . S
H2500 C2492 0.930 . S
H2501 C2493 0.929 . S
H2502 C2510 0.929 . S
H2503 C2512 0.930 . S
H2504 C2514 0.930 . S
H2505 C2517 0.929 . S
H2506 C2520 0.930 . S
H2507 C2522 0.960 . S
H2508 C2522 0.960 . S
H2509 C2522 0.960 . S
C2510 H2502 0.929 . S
C2510 C2511 1.377 . S
C2510 C2512 1.384 . S
C2511 C2510 1.377 . S
C2511 C2517 1.390 . S
C2512 H2503 0.930 . S
C2512 C2510 1.384 . S
C2512 C2513 1.372 . S
C2513 C2512 1.372 . S
C2513 C2514 1.400 . S
C2513 C2518 1.490 . S
C2514 H2504 0.930 . S
C2514 C2513 1.400 . S
C2514 C2517 1.386 . S
H2515 C2531 0.930 . S
H2516 C2532 0.931 . S
C2517 H2505 0.929 . S
C2517 C2511 1.390 . S
C2517 C2514 1.386 . S
C2518 C2513 1.490 . S
C2518 C2520 1.395 . S
C2518 C2521 1.403 . S
H2519 C2525 0.930 . S
C2520 H2506 0.930 . S
C2520 C2518 1.395 . S
C2520 C2523 1.403 . S
C2521 C2518 1.403 . S
C2521 C2522 1.524 . S
C2521 C2525 1.400 . S
C2522 H2507 0.960 . S
C2522 H2508 0.960 . S
C2522 H2509 0.960 . S
C2522 C2521 1.524 . S
C2523 C2520 1.403 . S
C2523 C2524 1.392 . S
C2523 C2527 1.495 . S
C2524 C2523 1.392 . S
C2524 C2525 1.385 . S
C2524 C2526 1.478 . S
C2525 H2519 0.930 . S
C2525 C2521 1.400 . S
C2525 C2524 1.385 . S
C2526 C2524 1.478 . S
C2526 C2528 1.381 . S
C2526 C2532 1.383 . S
C2527 C2523 1.495 . S
C2527 H2533 0.959 . S
C2527 H2534 0.961 . S
C2527 H2535 0.960 . S
C2528 C2526 1.381 . S
C2528 C2529 1.394 . S
C2528 H2536 0.930 . S
C2529 C2528 1.394 . S
C2529 C2530 1.383 . S
C2529 H2537 0.929 . S
C2530 C2529 1.383 . S
C2530 C2531 1.377 . S
C2531 H2515 0.930 . S
C2531 C2530 1.377 . S
C2531 C2532 1.379 . S
C2532 H2516 0.931 . S
C2532 C2526 1.383 . S
C2532 C2531 1.379 . S
H2533 C2527 0.959 . S
H2534 C2527 0.961 . S
H2535 C2527 0.960 . S
H2536 C2528 0.930 . S
H2537 C2529 0.929 . S
H2538 C2546 0.929 . S
H2539 C2548 0.930 . S
H2540 C2550 0.930 . S
H2541 C2553 0.929 . S
H2542 C2556 0.930 . S
H2543 C2558 0.960 . S
H2544 C2558 0.960 . S
H2545 C2558 0.960 . S
C2546 H2538 0.929 . S
C2546 C2547 1.377 . S
C2546 C2548 1.384 . S
C2547 C2546 1.377 . S
C2547 C2553 1.390 . S
C2548 H2539 0.930 . S
C2548 C2546 1.384 . S
C2548 C2549 1.372 . S
C2549 C2548 1.372 . S
C2549 C2550 1.400 . S
C2549 C2554 1.490 . S
C2550 H2540 0.930 . S
C2550 C2549 1.400 . S
C2550 C2553 1.386 . S
H2551 C2567 0.930 . S
H2552 C2568 0.931 . S
C2553 H2541 0.929 . S
C2553 C2547 1.390 . S
C2553 C2550 1.386 . S
C2554 C2549 1.490 . S
C2554 C2556 1.395 . S
C2554 C2557 1.403 . S
H2555 C2561 0.930 . S
C2556 H2542 0.930 . S
C2556 C2554 1.395 . S
C2556 C2559 1.403 . S
C2557 C2554 1.403 . S
C2557 C2558 1.524 . S
C2557 C2561 1.400 . S
C2558 H2543 0.960 . S
C2558 H2544 0.960 . S
C2558 H2545 0.960 . S
C2558 C2557 1.524 . S
C2559 C2556 1.403 . S
C2559 C2560 1.392 . S
C2559 C2563 1.495 . S
C2560 C2559 1.392 . S
C2560 C2561 1.385 . S
C2560 C2562 1.478 . S
C2561 H2555 0.930 . S
C2561 C2557 1.400 . S
C2561 C2560 1.385 . S
C2562 C2560 1.478 . S
C2562 C2564 1.381 . S
C2562 C2568 1.383 . S
C2563 C2559 1.495 . S
C2563 H2569 0.959 . S
C2563 H2570 0.961 . S
C2563 H2571 0.960 . S
C2564 C2562 1.381 . S
C2564 C2565 1.394 . S
C2564 H2572 0.930 . S
C2565 C2564 1.394 . S
C2565 C2566 1.383 . S
C2565 H2573 0.929 . S
C2566 C2565 1.383 . S
C2566 C2567 1.377 . S
C2567 H2551 0.930 . S
C2567 C2566 1.377 . S
C2567 C2568 1.379 . S
C2568 H2552 0.931 . S
C2568 C2562 1.383 . S
C2568 C2567 1.379 . S
H2569 C2563 0.959 . S
H2570 C2563 0.961 . S
H2571 C2563 0.960 . S
H2572 C2564 0.930 . S
H2573 C2565 0.929 . S
H2574 C2582 0.929 . S
H2575 C2584 0.930 . S
H2576 C2586 0.930 . S
H2577 C2589 0.929 . S
H2578 C2592 0.930 . S
H2579 C2594 0.960 . S
H2580 C2594 0.960 . S
H2581 C2594 0.960 . S
C2582 H2574 0.929 . S
C2582 C2583 1.377 . S
C2582 C2584 1.384 . S
C2583 C2582 1.377 . S
C2583 C2589 1.390 . S
C2584 H2575 0.930 . S
C2584 C2582 1.384 . S
C2584 C2585 1.372 . S
C2585 C2584 1.372 . S
C2585 C2586 1.400 . S
C2585 C2590 1.490 . S
C2586 H2576 0.930 . S
C2586 C2585 1.400 . S
C2586 C2589 1.386 . S
H2587 C2603 0.930 . S
H2588 C2604 0.931 . S
C2589 H2577 0.929 . S
C2589 C2583 1.390 . S
C2589 C2586 1.386 . S
C2590 C2585 1.490 . S
C2590 C2592 1.395 . S
C2590 C2593 1.403 . S
H2591 C2597 0.930 . S
C2592 H2578 0.930 . S
C2592 C2590 1.395 . S
C2592 C2595 1.403 . S
C2593 C2590 1.403 . S
C2593 C2594 1.524 . S
C2593 C2597 1.400 . S
C2594 H2579 0.960 . S
C2594 H2580 0.960 . S
C2594 H2581 0.960 . S
C2594 C2593 1.524 . S
C2595 C2592 1.403 . S
C2595 C2596 1.392 . S
C2595 C2599 1.495 . S
C2596 C2595 1.392 . S
C2596 C2597 1.385 . S
C2596 C2598 1.478 . S
C2597 H2591 0.930 . S
C2597 C2593 1.400 . S
C2597 C2596 1.385 . S
C2598 C2596 1.478 . S
C2598 C2600 1.381 . S
C2598 C2604 1.383 . S
C2599 C2595 1.495 . S
C2599 H2605 0.959 . S
C2599 H2606 0.961 . S
C2599 H2607 0.960 . S
C2600 C2598 1.381 . S
C2600 C2601 1.394 . S
C2600 H2608 0.930 . S
C2601 C2600 1.394 . S
C2601 C2602 1.383 . S
C2601 H2609 0.929 . S
C2602 C2601 1.383 . S
C2602 C2603 1.377 . S
C2603 H2587 0.930 . S
C2603 C2602 1.377 . S
C2603 C2604 1.379 . S
C2604 H2588 0.931 . S
C2604 C2598 1.383 . S
C2604 C2603 1.379 . S
H2605 C2599 0.959 . S
H2606 C2599 0.961 . S
H2607 C2599 0.960 . S
H2608 C2600 0.930 . S
H2609 C2601 0.929 . S
H2610 C2618 0.929 . S
H2611 C2620 0.930 . S
H2612 C2622 0.930 . S
H2613 C2625 0.929 . S
H2614 C2628 0.930 . S
H2615 C2630 0.960 . S
H2616 C2630 0.960 . S
H2617 C2630 0.960 . S
C2618 H2610 0.929 . S
C2618 C2619 1.377 . S
C2618 C2620 1.384 . S
C2619 C2618 1.377 . S
C2619 C2625 1.390 . S
C2620 H2611 0.930 . S
C2620 C2618 1.384 . S
C2620 C2621 1.372 . S
C2621 C2620 1.372 . S
C2621 C2622 1.400 . S
C2621 C2626 1.490 . S
C2622 H2612 0.930 . S
C2622 C2621 1.400 . S
C2622 C2625 1.386 . S
H2623 C2639 0.930 . S
H2624 C2640 0.931 . S
C2625 H2613 0.929 . S
C2625 C2619 1.390 . S
C2625 C2622 1.386 . S
C2626 C2621 1.490 . S
C2626 C2628 1.395 . S
C2626 C2629 1.403 . S
H2627 C2633 0.930 . S
C2628 H2614 0.930 . S
C2628 C2626 1.395 . S
C2628 C2631 1.403 . S
C2629 C2626 1.403 . S
C2629 C2630 1.524 . S
C2629 C2633 1.400 . S
C2630 H2615 0.960 . S
C2630 H2616 0.960 . S
C2630 H2617 0.960 . S
C2630 C2629 1.524 . S
C2631 C2628 1.403 . S
C2631 C2632 1.392 . S
C2631 C2635 1.495 . S
C2632 C2631 1.392 . S
C2632 C2633 1.385 . S
C2632 C2634 1.478 . S
C2633 H2627 0.930 . S
C2633 C2629 1.400 . S
C2633 C2632 1.385 . S
C2634 C2632 1.478 . S
C2634 C2636 1.381 . S
C2634 C2640 1.383 . S
C2635 C2631 1.495 . S
C2635 H2641 0.959 . S
C2635 H2642 0.961 . S
C2635 H2643 0.960 . S
C2636 C2634 1.381 . S
C2636 C2637 1.394 . S
C2636 H2644 0.930 . S
C2637 C2636 1.394 . S
C2637 C2638 1.383 . S
C2637 H2645 0.929 . S
C2638 C2637 1.383 . S
C2638 C2639 1.377 . S
C2639 H2623 0.930 . S
C2639 C2638 1.377 . S
C2639 C2640 1.379 . S
C2640 H2624 0.931 . S
C2640 C2634 1.383 . S
C2640 C2639 1.379 . S
H2641 C2635 0.959 . S
H2642 C2635 0.961 . S
H2643 C2635 0.960 . S
H2644 C2636 0.930 . S
H2645 C2637 0.929 . S
H2646 C2654 0.929 . S
H2647 C2656 0.930 . S
H2648 C2658 0.930 . S
H2649 C2661 0.929 . S
H2650 C2664 0.930 . S
H2651 C2666 0.960 . S
H2652 C2666 0.960 . S
H2653 C2666 0.960 . S
C2654 H2646 0.929 . S
C2654 C2655 1.377 . S
C2654 C2656 1.384 . S
C2655 C2654 1.377 . S
C2655 C2661 1.390 . S
C2656 H2647 0.930 . S
C2656 C2654 1.384 . S
C2656 C2657 1.372 . S
C2657 C2656 1.372 . S
C2657 C2658 1.400 . S
C2657 C2662 1.490 . S
C2658 H2648 0.930 . S
C2658 C2657 1.400 . S
C2658 C2661 1.386 . S
H2659 C2675 0.930 . S
H2660 C2676 0.931 . S
C2661 H2649 0.929 . S
C2661 C2655 1.390 . S
C2661 C2658 1.386 . S
C2662 C2657 1.490 . S
C2662 C2664 1.395 . S
C2662 C2665 1.403 . S
H2663 C2669 0.930 . S
C2664 H2650 0.930 . S
C2664 C2662 1.395 . S
C2664 C2667 1.403 . S
C2665 C2662 1.403 . S
C2665 C2666 1.524 . S
C2665 C2669 1.400 . S
C2666 H2651 0.960 . S
C2666 H2652 0.960 . S
C2666 H2653 0.960 . S
C2666 C2665 1.524 . S
C2667 C2664 1.403 . S
C2667 C2668 1.392 . S
C2667 C2671 1.495 . S
C2668 C2667 1.392 . S
C2668 C2669 1.385 . S
C2668 C2670 1.478 . S
C2669 H2663 0.930 . S
C2669 C2665 1.400 . S
C2669 C2668 1.385 . S
C2670 C2668 1.478 . S
C2670 C2672 1.381 . S
C2670 C2676 1.383 . S
C2671 C2667 1.495 . S
C2671 H2677 0.959 . S
C2671 H2678 0.961 . S
C2671 H2679 0.960 . S
C2672 C2670 1.381 . S
C2672 C2673 1.394 . S
C2672 H2680 0.930 . S
C2673 C2672 1.394 . S
C2673 C2674 1.383 . S
C2673 H2681 0.929 . S
C2674 C2673 1.383 . S
C2674 C2675 1.377 . S
C2675 H2659 0.930 . S
C2675 C2674 1.377 . S
C2675 C2676 1.379 . S
C2676 H2660 0.931 . S
C2676 C2670 1.383 . S
C2676 C2675 1.379 . S
H2677 C2671 0.959 . S
H2678 C2671 0.961 . S
H2679 C2671 0.960 . S
H2680 C2672 0.930 . S
H2681 C2673 0.929 . S
H2682 C2690 0.929 . S
H2683 C2692 0.930 . S
H2684 C2694 0.930 . S
H2685 C2697 0.929 . S
H2686 C2700 0.930 . S
H2687 C2702 0.960 . S
H2688 C2702 0.960 . S
H2689 C2702 0.960 . S
C2690 H2682 0.929 . S
C2690 C2691 1.377 . S
C2690 C2692 1.384 . S
C2691 C2690 1.377 . S
C2691 C2697 1.390 . S
C2692 H2683 0.930 . S
C2692 C2690 1.384 . S
C2692 C2693 1.372 . S
C2693 C2692 1.372 . S
C2693 C2694 1.400 . S
C2693 C2698 1.490 . S
C2694 H2684 0.930 . S
C2694 C2693 1.400 . S
C2694 C2697 1.386 . S
H2695 C2711 0.930 . S
H2696 C2712 0.931 . S
C2697 H2685 0.929 . S
C2697 C2691 1.390 . S
C2697 C2694 1.386 . S
C2698 C2693 1.490 . S
C2698 C2700 1.395 . S
C2698 C2701 1.403 . S
H2699 C2705 0.930 . S
C2700 H2686 0.930 . S
C2700 C2698 1.395 . S
C2700 C2703 1.403 . S
C2701 C2698 1.403 . S
C2701 C2702 1.524 . S
C2701 C2705 1.400 . S
C2702 H2687 0.960 . S
C2702 H2688 0.960 . S
C2702 H2689 0.960 . S
C2702 C2701 1.524 . S
C2703 C2700 1.403 . S
C2703 C2704 1.392 . S
C2703 C2707 1.495 . S
C2704 C2703 1.392 . S
C2704 C2705 1.385 . S
C2704 C2706 1.478 . S
C2705 H2699 0.930 . S
C2705 C2701 1.400 . S
C2705 C2704 1.385 . S
C2706 C2704 1.478 . S
C2706 C2708 1.381 . S
C2706 C2712 1.383 . S
C2707 C2703 1.495 . S
C2707 H2713 0.959 . S
C2707 H2714 0.961 . S
C2707 H2715 0.960 . S
C2708 C2706 1.381 . S
C2708 C2709 1.394 . S
C2708 H2716 0.930 . S
C2709 C2708 1.394 . S
C2709 C2710 1.383 . S
C2709 H2717 0.929 . S
C2710 C2709 1.383 . S
C2710 C2711 1.377 . S
C2711 H2695 0.930 . S
C2711 C2710 1.377 . S
C2711 C2712 1.379 . S
C2712 H2696 0.931 . S
C2712 C2706 1.383 . S
C2712 C2711 1.379 . S
H2713 C2707 0.959 . S
H2714 C2707 0.961 . S
H2715 C2707 0.960 . S
H2716 C2708 0.930 . S
H2717 C2709 0.929 . S
H2718 C2726 0.929 . S
H2719 C2728 0.930 . S
H2720 C2730 0.930 . S
H2721 C2733 0.929 . S
H2722 C2736 0.930 . S
H2723 C2738 0.960 . S
H2724 C2738 0.960 . S
H2725 C2738 0.960 . S
C2726 H2718 0.929 . S
C2726 C2727 1.377 . S
C2726 C2728 1.384 . S
C2727 C2726 1.377 . S
C2727 C2733 1.390 . S
C2728 H2719 0.930 . S
C2728 C2726 1.384 . S
C2728 C2729 1.372 . S
C2729 C2728 1.372 . S
C2729 C2730 1.400 . S
C2729 C2734 1.490 . S
C2730 H2720 0.930 . S
C2730 C2729 1.400 . S
C2730 C2733 1.386 . S
H2731 C2747 0.930 . S
H2732 C2748 0.931 . S
C2733 H2721 0.929 . S
C2733 C2727 1.390 . S
C2733 C2730 1.386 . S
C2734 C2729 1.490 . S
C2734 C2736 1.395 . S
C2734 C2737 1.403 . S
H2735 C2741 0.930 . S
C2736 H2722 0.930 . S
C2736 C2734 1.395 . S
C2736 C2739 1.403 . S
C2737 C2734 1.403 . S
C2737 C2738 1.524 . S
C2737 C2741 1.400 . S
C2738 H2723 0.960 . S
C2738 H2724 0.960 . S
C2738 H2725 0.960 . S
C2738 C2737 1.524 . S
C2739 C2736 1.403 . S
C2739 C2740 1.392 . S
C2739 C2743 1.495 . S
C2740 C2739 1.392 . S
C2740 C2741 1.385 . S
C2740 C2742 1.478 . S
C2741 H2735 0.930 . S
C2741 C2737 1.400 . S
C2741 C2740 1.385 . S
C2742 C2740 1.478 . S
C2742 C2744 1.381 . S
C2742 C2748 1.383 . S
C2743 C2739 1.495 . S
C2743 H2749 0.959 . S
C2743 H2750 0.961 . S
C2743 H2751 0.960 . S
C2744 C2742 1.381 . S
C2744 C2745 1.394 . S
C2744 H2752 0.930 . S
C2745 C2744 1.394 . S
C2745 C2746 1.383 . S
C2745 H2753 0.929 . S
C2746 C2745 1.383 . S
C2746 C2747 1.377 . S
C2747 H2731 0.930 . S
C2747 C2746 1.377 . S
C2747 C2748 1.379 . S
C2748 H2732 0.931 . S
C2748 C2742 1.383 . S
C2748 C2747 1.379 . S
H2749 C2743 0.959 . S
H2750 C2743 0.961 . S
H2751 C2743 0.960 . S
H2752 C2744 0.930 . S
H2753 C2745 0.929 . S
H2754 C2762 0.929 . S
H2755 C2764 0.930 . S
H2756 C2766 0.930 . S
H2757 C2769 0.929 . S
H2758 C2772 0.930 . S
H2759 C2774 0.960 . S
H2760 C2774 0.960 . S
H2761 C2774 0.960 . S
C2762 H2754 0.929 . S
C2762 C2763 1.377 . S
C2762 C2764 1.384 . S
C2763 C2762 1.377 . S
C2763 C2769 1.390 . S
C2764 H2755 0.930 . S
C2764 C2762 1.384 . S
C2764 C2765 1.372 . S
C2765 C2764 1.372 . S
C2765 C2766 1.400 . S
C2765 C2770 1.490 . S
C2766 H2756 0.930 . S
C2766 C2765 1.400 . S
C2766 C2769 1.386 . S
H2767 C2783 0.930 . S
H2768 C2784 0.931 . S
C2769 H2757 0.929 . S
C2769 C2763 1.390 . S
C2769 C2766 1.386 . S
C2770 C2765 1.490 . S
C2770 C2772 1.395 . S
C2770 C2773 1.403 . S
H2771 C2777 0.930 . S
C2772 H2758 0.930 . S
C2772 C2770 1.395 . S
C2772 C2775 1.403 . S
C2773 C2770 1.403 . S
C2773 C2774 1.524 . S
C2773 C2777 1.400 . S
C2774 H2759 0.960 . S
C2774 H2760 0.960 . S
C2774 H2761 0.960 . S
C2774 C2773 1.524 . S
C2775 C2772 1.403 . S
C2775 C2776 1.392 . S
C2775 C2779 1.495 . S
C2776 C2775 1.392 . S
C2776 C2777 1.385 . S
C2776 C2778 1.478 . S
C2777 H2771 0.930 . S
C2777 C2773 1.400 . S
C2777 C2776 1.385 . S
C2778 C2776 1.478 . S
C2778 C2780 1.381 . S
C2778 C2784 1.383 . S
C2779 C2775 1.495 . S
C2779 H2785 0.959 . S
C2779 H2786 0.961 . S
C2779 H2787 0.960 . S
C2780 C2778 1.381 . S
C2780 C2781 1.394 . S
C2780 H2788 0.930 . S
C2781 C2780 1.394 . S
C2781 C2782 1.383 . S
C2781 H2789 0.929 . S
C2782 C2781 1.383 . S
C2782 C2783 1.377 . S
C2783 H2767 0.930 . S
C2783 C2782 1.377 . S
C2783 C2784 1.379 . S
C2784 H2768 0.931 . S
C2784 C2778 1.383 . S
C2784 C2783 1.379 . S
H2785 C2779 0.959 . S
H2786 C2779 0.961 . S
H2787 C2779 0.960 . S
H2788 C2780 0.930 . S
H2789 C2781 0.929 . S
H2790 C2798 0.929 . S
H2791 C2800 0.930 . S
H2792 C2802 0.930 . S
H2793 C2805 0.929 . S
H2794 C2808 0.930 . S
H2795 C2810 0.960 . S
H2796 C2810 0.960 . S
H2797 C2810 0.960 . S
C2798 H2790 0.929 . S
C2798 C2799 1.377 . S
C2798 C2800 1.384 . S
C2799 C2798 1.377 . S
C2799 C2805 1.390 . S
C2800 H2791 0.930 . S
C2800 C2798 1.384 . S
C2800 C2801 1.372 . S
C2801 C2800 1.372 . S
C2801 C2802 1.400 . S
C2801 C2806 1.490 . S
C2802 H2792 0.930 . S
C2802 C2801 1.400 . S
C2802 C2805 1.386 . S
H2803 C2819 0.930 . S
H2804 C2820 0.931 . S
C2805 H2793 0.929 . S
C2805 C2799 1.390 . S
C2805 C2802 1.386 . S
C2806 C2801 1.490 . S
C2806 C2808 1.395 . S
C2806 C2809 1.403 . S
H2807 C2813 0.930 . S
C2808 H2794 0.930 . S
C2808 C2806 1.395 . S
C2808 C2811 1.403 . S
C2809 C2806 1.403 . S
C2809 C2810 1.524 . S
C2809 C2813 1.400 . S
C2810 H2795 0.960 . S
C2810 H2796 0.960 . S
C2810 H2797 0.960 . S
C2810 C2809 1.524 . S
C2811 C2808 1.403 . S
C2811 C2812 1.392 . S
C2811 C2815 1.495 . S
C2812 C2811 1.392 . S
C2812 C2813 1.385 . S
C2812 C2814 1.478 . S
C2813 H2807 0.930 . S
C2813 C2809 1.400 . S
C2813 C2812 1.385 . S
C2814 C2812 1.478 . S
C2814 C2816 1.381 . S
C2814 C2820 1.383 . S
C2815 C2811 1.495 . S
C2815 H2821 0.959 . S
C2815 H2822 0.961 . S
C2815 H2823 0.960 . S
C2816 C2814 1.381 . S
C2816 C2817 1.394 . S
C2816 H2824 0.930 . S
C2817 C2816 1.394 . S
C2817 C2818 1.383 . S
C2817 H2825 0.929 . S
C2818 C2817 1.383 . S
C2818 C2819 1.377 . S
C2819 H2803 0.930 . S
C2819 C2818 1.377 . S
C2819 C2820 1.379 . S
C2820 H2804 0.931 . S
C2820 C2814 1.383 . S
C2820 C2819 1.379 . S
H2821 C2815 0.959 . S
H2822 C2815 0.961 . S
H2823 C2815 0.960 . S
H2824 C2816 0.930 . S
H2825 C2817 0.929 . S
H2826 C2834 0.929 . S
H2827 C2836 0.930 . S
H2828 C2838 0.930 . S
H2829 C2841 0.929 . S
H2830 C2844 0.930 . S
H2831 C2846 0.960 . S
H2832 C2846 0.960 . S
H2833 C2846 0.960 . S
C2834 H2826 0.929 . S
C2834 C2835 1.377 . S
C2834 C2836 1.384 . S
C2835 C2834 1.377 . S
C2835 C2841 1.390 . S
C2836 H2827 0.930 . S
C2836 C2834 1.384 . S
C2836 C2837 1.372 . S
C2837 C2836 1.372 . S
C2837 C2838 1.400 . S
C2837 C2842 1.490 . S
C2838 H2828 0.930 . S
C2838 C2837 1.400 . S
C2838 C2841 1.386 . S
H2839 C2855 0.930 . S
H2840 C2856 0.931 . S
C2841 H2829 0.929 . S
C2841 C2835 1.390 . S
C2841 C2838 1.386 . S
C2842 C2837 1.490 . S
C2842 C2844 1.395 . S
C2842 C2845 1.403 . S
H2843 C2849 0.930 . S
C2844 H2830 0.930 . S
C2844 C2842 1.395 . S
C2844 C2847 1.403 . S
C2845 C2842 1.403 . S
C2845 C2846 1.524 . S
C2845 C2849 1.400 . S
C2846 H2831 0.960 . S
C2846 H2832 0.960 . S
C2846 H2833 0.960 . S
C2846 C2845 1.524 . S
C2847 C2844 1.403 . S
C2847 C2848 1.392 . S
C2847 C2851 1.495 . S
C2848 C2847 1.392 . S
C2848 C2849 1.385 . S
C2848 C2850 1.478 . S
C2849 H2843 0.930 . S
C2849 C2845 1.400 . S
C2849 C2848 1.385 . S
C2850 C2848 1.478 . S
C2850 C2852 1.381 . S
C2850 C2856 1.383 . S
C2851 C2847 1.495 . S
C2851 H2857 0.959 . S
C2851 H2858 0.961 . S
C2851 H2859 0.960 . S
C2852 C2850 1.381 . S
C2852 C2853 1.394 . S
C2852 H2860 0.930 . S
C2853 C2852 1.394 . S
C2853 C2854 1.383 . S
C2853 H2861 0.929 . S
C2854 C2853 1.383 . S
C2854 C2855 1.377 . S
C2855 H2839 0.930 . S
C2855 C2854 1.377 . S
C2855 C2856 1.379 . S
C2856 H2840 0.931 . S
C2856 C2850 1.383 . S
C2856 C2855 1.379 . S
H2857 C2851 0.959 . S
H2858 C2851 0.961 . S
H2859 C2851 0.960 . S
H2860 C2852 0.930 . S
H2861 C2853 0.929 . S
H2862 C2870 0.929 . S
H2863 C2872 0.930 . S
H2864 C2874 0.930 . S
H2865 C2877 0.929 . S
H2866 C2880 0.930 . S
H2867 C2882 0.960 . S
H2868 C2882 0.960 . S
H2869 C2882 0.960 . S
C2870 H2862 0.929 . S
C2870 C2871 1.377 . S
C2870 C2872 1.384 . S
C2871 C2870 1.377 . S
C2871 C2877 1.390 . S
C2872 H2863 0.930 . S
C2872 C2870 1.384 . S
C2872 C2873 1.372 . S
C2873 C2872 1.372 . S
C2873 C2874 1.400 . S
C2873 C2878 1.490 . S
C2874 H2864 0.930 . S
C2874 C2873 1.400 . S
C2874 C2877 1.386 . S
H2875 C2891 0.930 . S
H2876 C2892 0.931 . S
C2877 H2865 0.929 . S
C2877 C2871 1.390 . S
C2877 C2874 1.386 . S
C2878 C2873 1.490 . S
C2878 C2880 1.395 . S
C2878 C2881 1.403 . S
H2879 C2885 0.930 . S
C2880 H2866 0.930 . S
C2880 C2878 1.395 . S
C2880 C2883 1.403 . S
C2881 C2878 1.403 . S
C2881 C2882 1.524 . S
C2881 C2885 1.400 . S
C2882 H2867 0.960 . S
C2882 H2868 0.960 . S
C2882 H2869 0.960 . S
C2882 C2881 1.524 . S
C2883 C2880 1.403 . S
C2883 C2884 1.392 . S
C2883 C2887 1.495 . S
C2884 C2883 1.392 . S
C2884 C2885 1.385 . S
C2884 C2886 1.478 . S
C2885 H2879 0.930 . S
C2885 C2881 1.400 . S
C2885 C2884 1.385 . S
C2886 C2884 1.478 . S
C2886 C2888 1.381 . S
C2886 C2892 1.383 . S
C2887 C2883 1.495 . S
C2887 H2893 0.959 . S
C2887 H2894 0.961 . S
C2887 H2895 0.960 . S
C2888 C2886 1.381 . S
C2888 C2889 1.394 . S
C2888 H2896 0.930 . S
C2889 C2888 1.394 . S
C2889 C2890 1.383 . S
C2889 H2897 0.929 . S
C2890 C2889 1.383 . S
C2890 C2891 1.377 . S
C2891 H2875 0.930 . S
C2891 C2890 1.377 . S
C2891 C2892 1.379 . S
C2892 H2876 0.931 . S
C2892 C2886 1.383 . S
C2892 C2891 1.379 . S
H2893 C2887 0.959 . S
H2894 C2887 0.961 . S
H2895 C2887 0.960 . S
H2896 C2888 0.930 . S
H2897 C2889 0.929 . S
H2898 C2906 0.929 . S
H2899 C2908 0.930 . S
H2900 C2910 0.930 . S
H2901 C2913 0.929 . S
H2902 C2916 0.930 . S
H2903 C2918 0.960 . S
H2904 C2918 0.960 . S
H2905 C2918 0.960 . S
C2906 H2898 0.929 . S
C2906 C2907 1.377 . S
C2906 C2908 1.384 . S
C2907 C2906 1.377 . S
C2907 C2913 1.390 . S
C2908 H2899 0.930 . S
C2908 C2906 1.384 . S
C2908 C2909 1.372 . S
C2909 C2908 1.372 . S
C2909 C2910 1.400 . S
C2909 C2914 1.490 . S
C2910 H2900 0.930 . S
C2910 C2909 1.400 . S
C2910 C2913 1.386 . S
H2911 C2927 0.930 . S
H2912 C2928 0.931 . S
C2913 H2901 0.929 . S
C2913 C2907 1.390 . S
C2913 C2910 1.386 . S
C2914 C2909 1.490 . S
C2914 C2916 1.395 . S
C2914 C2917 1.403 . S
H2915 C2921 0.930 . S
C2916 H2902 0.930 . S
C2916 C2914 1.395 . S
C2916 C2919 1.403 . S
C2917 C2914 1.403 . S
C2917 C2918 1.524 . S
C2917 C2921 1.400 . S
C2918 H2903 0.960 . S
C2918 H2904 0.960 . S
C2918 H2905 0.960 . S
C2918 C2917 1.524 . S
C2919 C2916 1.403 . S
C2919 C2920 1.392 . S
C2919 C2923 1.495 . S
C2920 C2919 1.392 . S
C2920 C2921 1.385 . S
C2920 C2922 1.478 . S
C2921 H2915 0.930 . S
C2921 C2917 1.400 . S
C2921 C2920 1.385 . S
C2922 C2920 1.478 . S
C2922 C2924 1.381 . S
C2922 C2928 1.383 . S
C2923 C2919 1.495 . S
C2923 H2929 0.959 . S
C2923 H2930 0.961 . S
C2923 H2931 0.960 . S
C2924 C2922 1.381 . S
C2924 C2925 1.394 . S
C2924 H2932 0.930 . S
C2925 C2924 1.394 . S
C2925 C2926 1.383 . S
C2925 H2933 0.929 . S
C2926 C2925 1.383 . S
C2926 C2927 1.377 . S
C2927 H2911 0.930 . S
C2927 C2926 1.377 . S
C2927 C2928 1.379 . S
C2928 H2912 0.931 . S
C2928 C2922 1.383 . S
C2928 C2927 1.379 . S
H2929 C2923 0.959 . S
H2930 C2923 0.961 . S
H2931 C2923 0.960 . S
H2932 C2924 0.930 . S
H2933 C2925 0.929 . S
H2934 C2942 0.929 . S
H2935 C2944 0.930 . S
H2936 C2946 0.930 . S
H2937 C2949 0.929 1_545 S
H2938 C2952 0.930 . S
H2939 C2954 0.960 . S
H2940 C2954 0.960 . S
H2941 C2954 0.960 . S
C2942 H2934 0.929 . S
C2942 C2943 1.377 . S
C2942 C2944 1.384 . S
C2943 C2942 1.377 . S
C2943 C2949 1.390 . S
C2944 H2935 0.930 . S
C2944 C2942 1.384 . S
C2944 C2945 1.372 . S
C2945 C2944 1.372 . S
C2945 C2946 1.400 . S
C2945 C2950 1.490 . S
C2946 H2936 0.930 . S
C2946 C2945 1.400 . S
C2946 C2949 1.386 . S
H2947 C2963 0.930 . S
H2948 C2964 0.931 . S
C2949 H2937 0.929 1_565 S
C2949 C2943 1.390 . S
C2949 C2946 1.386 . S
C2950 C2945 1.490 . S
C2950 C2952 1.395 . S
C2950 C2953 1.403 . S
H2951 C2957 0.930 . S
C2952 H2938 0.930 . S
C2952 C2950 1.395 . S
C2952 C2955 1.403 . S
C2953 C2950 1.403 . S
C2953 C2954 1.524 . S
C2953 C2957 1.400 . S
C2954 H2939 0.960 . S
C2954 H2940 0.960 . S
C2954 H2941 0.960 . S
C2954 C2953 1.524 . S
C2955 C2952 1.403 . S
C2955 C2956 1.392 . S
C2955 C2959 1.495 . S
C2956 C2955 1.392 . S
C2956 C2957 1.385 . S
C2956 C2958 1.478 . S
C2957 H2951 0.930 . S
C2957 C2953 1.400 . S
C2957 C2956 1.385 . S
C2958 C2956 1.478 . S
C2958 C2960 1.381 . S
C2958 C2964 1.383 . S
C2959 C2955 1.495 . S
C2959 H2965 0.959 . S
C2959 H2966 0.961 . S
C2959 H2967 0.960 . S
C2960 C2958 1.381 . S
C2960 C2961 1.394 . S
C2960 H2968 0.930 . S
C2961 C2960 1.394 . S
C2961 C2962 1.383 . S
C2961 H2969 0.929 . S
C2962 C2961 1.383 . S
C2962 C2963 1.377 . S
C2963 H2947 0.930 . S
C2963 C2962 1.377 . S
C2963 C2964 1.379 . S
C2964 H2948 0.931 . S
C2964 C2958 1.383 . S
C2964 C2963 1.379 . S
H2965 C2959 0.959 . S
H2966 C2959 0.961 . S
H2967 C2959 0.960 . S
H2968 C2960 0.930 . S
H2969 C2961 0.929 . S
H2970 C2978 0.929 . S
H2971 C2980 0.930 . S
H2972 C2982 0.930 . S
H2973 C2985 0.929 . S
H2974 C2988 0.930 . S
H2975 C2990 0.960 . S
H2976 C2990 0.960 . S
H2977 C2990 0.960 . S
C2978 H2970 0.929 . S
C2978 C2979 1.377 . S
C2978 C2980 1.384 . S
C2979 C2978 1.377 . S
C2979 C2985 1.390 . S
C2980 H2971 0.930 . S
C2980 C2978 1.384 . S
C2980 C2981 1.372 . S
C2981 C2980 1.372 . S
C2981 C2982 1.400 . S
C2981 C2986 1.490 . S
C2982 H2972 0.930 . S
C2982 C2981 1.400 . S
C2982 C2985 1.386 . S
H2983 C2999 0.930 . S
H2984 C3000 0.931 . S
C2985 H2973 0.929 . S
C2985 C2979 1.390 . S
C2985 C2982 1.386 . S
C2986 C2981 1.490 . S
C2986 C2988 1.395 . S
C2986 C2989 1.403 . S
H2987 C2993 0.930 . S
C2988 H2974 0.930 . S
C2988 C2986 1.395 . S
C2988 C2991 1.403 . S
C2989 C2986 1.403 . S
C2989 C2990 1.524 . S
C2989 C2993 1.400 . S
C2990 H2975 0.960 . S
C2990 H2976 0.960 . S
C2990 H2977 0.960 . S
C2990 C2989 1.524 . S
C2991 C2988 1.403 . S
C2991 C2992 1.392 . S
C2991 C2995 1.495 . S
C2992 C2991 1.392 . S
C2992 C2993 1.385 . S
C2992 C2994 1.478 . S
C2993 H2987 0.930 . S
C2993 C2989 1.400 . S
C2993 C2992 1.385 . S
C2994 C2992 1.478 . S
C2994 C2996 1.381 . S
C2994 C3000 1.383 . S
C2995 C2991 1.495 . S
C2995 H3001 0.959 . S
C2995 H3002 0.961 . S
C2995 H3003 0.960 . S
C2996 C2994 1.381 . S
C2996 C2997 1.394 . S
C2996 H3004 0.930 . S
C2997 C2996 1.394 . S
C2997 C2998 1.383 . S
C2997 H3005 0.929 . S
C2998 C2997 1.383 . S
C2998 C2999 1.377 . S
C2999 H2983 0.930 . S
C2999 C2998 1.377 . S
C2999 C3000 1.379 . S
C3000 H2984 0.931 . S
C3000 C2994 1.383 . S
C3000 C2999 1.379 . S
H3001 C2995 0.959 . S
H3002 C2995 0.961 . S
H3003 C2995 0.960 . S
H3004 C2996 0.930 . S
H3005 C2997 0.929 . S
H3006 C3014 0.929 . S
H3007 C3016 0.930 . S
H3008 C3018 0.930 . S
H3009 C3021 0.929 . S
H3010 C3024 0.930 . S
H3011 C3026 0.960 . S
H3012 C3026 0.960 . S
H3013 C3026 0.960 . S
C3014 H3006 0.929 . S
C3014 C3015 1.377 . S
C3014 C3016 1.384 . S
C3015 C3014 1.377 . S
C3015 C3021 1.390 . S
C3016 H3007 0.930 . S
C3016 C3014 1.384 . S
C3016 C3017 1.372 . S
C3017 C3016 1.372 . S
C3017 C3018 1.400 . S
C3017 C3022 1.490 . S
C3018 H3008 0.930 . S
C3018 C3017 1.400 . S
C3018 C3021 1.386 . S
H3019 C3035 0.930 . S
H3020 C3036 0.931 . S
C3021 H3009 0.929 . S
C3021 C3015 1.390 . S
C3021 C3018 1.386 . S
C3022 C3017 1.490 . S
C3022 C3024 1.395 . S
C3022 C3025 1.403 . S
H3023 C3029 0.930 . S
C3024 H3010 0.930 . S
C3024 C3022 1.395 . S
C3024 C3027 1.403 . S
C3025 C3022 1.403 . S
C3025 C3026 1.524 . S
C3025 C3029 1.400 . S
C3026 H3011 0.960 . S
C3026 H3012 0.960 . S
C3026 H3013 0.960 . S
C3026 C3025 1.524 . S
C3027 C3024 1.403 . S
C3027 C3028 1.392 . S
C3027 C3031 1.495 . S
C3028 C3027 1.392 . S
C3028 C3029 1.385 . S
C3028 C3030 1.478 . S
C3029 H3023 0.930 . S
C3029 C3025 1.400 . S
C3029 C3028 1.385 . S
C3030 C3028 1.478 . S
C3030 C3032 1.381 . S
C3030 C3036 1.383 . S
C3031 C3027 1.495 . S
C3031 H3037 0.959 . S
C3031 H3038 0.961 . S
C3031 H3039 0.960 . S
C3032 C3030 1.381 . S
C3032 C3033 1.394 . S
C3032 H3040 0.930 . S
C3033 C3032 1.394 . S
C3033 C3034 1.383 . S
C3033 H3041 0.929 . S
C3034 C3033 1.383 . S
C3034 C3035 1.377 . S
C3035 H3019 0.930 . S
C3035 C3034 1.377 . S
C3035 C3036 1.379 . S
C3036 H3020 0.931 . S
C3036 C3030 1.383 . S
C3036 C3035 1.379 . S
H3037 C3031 0.959 . S
H3038 C3031 0.961 . S
H3039 C3031 0.960 . S
H3040 C3032 0.930 . S
H3041 C3033 0.929 . S
H3042 C3050 0.929 . S
H3043 C3052 0.930 . S
H3044 C3054 0.930 . S
H3045 C3057 0.929 . S
H3046 C3060 0.930 . S
H3047 C3062 0.960 . S
H3048 C3062 0.960 . S
H3049 C3062 0.960 . S
C3050 H3042 0.929 . S
C3050 C3051 1.377 . S
C3050 C3052 1.384 . S
C3051 C3050 1.377 . S
C3051 C3057 1.390 . S
C3052 H3043 0.930 . S
C3052 C3050 1.384 . S
C3052 C3053 1.372 . S
C3053 C3052 1.372 . S
C3053 C3054 1.400 . S
C3053 C3058 1.490 . S
C3054 H3044 0.930 . S
C3054 C3053 1.400 . S
C3054 C3057 1.386 . S
H3055 C3071 0.930 . S
H3056 C3072 0.931 . S
C3057 H3045 0.929 . S
C3057 C3051 1.390 . S
C3057 C3054 1.386 . S
C3058 C3053 1.490 . S
C3058 C3060 1.395 . S
C3058 C3061 1.403 . S
H3059 C3065 0.930 . S
C3060 H3046 0.930 . S
C3060 C3058 1.395 . S
C3060 C3063 1.403 . S
C3061 C3058 1.403 . S
C3061 C3062 1.524 . S
C3061 C3065 1.400 . S
C3062 H3047 0.960 . S
C3062 H3048 0.960 . S
C3062 H3049 0.960 . S
C3062 C3061 1.524 . S
C3063 C3060 1.403 . S
C3063 C3064 1.392 . S
C3063 C3067 1.495 . S
C3064 C3063 1.392 . S
C3064 C3065 1.385 . S
C3064 C3066 1.478 . S
C3065 H3059 0.930 . S
C3065 C3061 1.400 . S
C3065 C3064 1.385 . S
C3066 C3064 1.478 . S
C3066 C3068 1.381 . S
C3066 C3072 1.383 . S
C3067 C3063 1.495 . S
C3067 H3073 0.959 . S
C3067 H3074 0.961 . S
C3067 H3075 0.960 . S
C3068 C3066 1.381 . S
C3068 C3069 1.394 . S
C3068 H3076 0.930 . S
C3069 C3068 1.394 . S
C3069 C3070 1.383 . S
C3069 H3077 0.929 . S
C3070 C3069 1.383 . S
C3070 C3071 1.377 . S
C3071 H3055 0.930 . S
C3071 C3070 1.377 . S
C3071 C3072 1.379 . S
C3072 H3056 0.931 . S
C3072 C3066 1.383 . S
C3072 C3071 1.379 . S
H3073 C3067 0.959 . S
H3074 C3067 0.961 . S
H3075 C3067 0.960 . S
H3076 C3068 0.930 . S
H3077 C3069 0.929 . S
H3078 C3086 0.929 . S
H3079 C3088 0.930 . S
H3080 C3090 0.930 . S
H3081 C3093 0.929 . S
H3082 C3096 0.930 . S
H3083 C3098 0.960 . S
H3084 C3098 0.960 . S
H3085 C3098 0.960 . S
C3086 H3078 0.929 . S
C3086 C3087 1.377 . S
C3086 C3088 1.384 . S
C3087 C3086 1.377 . S
C3087 C3093 1.390 . S
C3088 H3079 0.930 . S
C3088 C3086 1.384 . S
C3088 C3089 1.372 . S
C3089 C3088 1.372 . S
C3089 C3090 1.400 . S
C3089 C3094 1.490 . S
C3090 H3080 0.930 . S
C3090 C3089 1.400 . S
C3090 C3093 1.386 . S
H3091 C3107 0.930 . S
H3092 C3108 0.931 . S
C3093 H3081 0.929 . S
C3093 C3087 1.390 . S
C3093 C3090 1.386 . S
C3094 C3089 1.490 . S
C3094 C3096 1.395 . S
C3094 C3097 1.403 . S
H3095 C3101 0.930 . S
C3096 H3082 0.930 . S
C3096 C3094 1.395 . S
C3096 C3099 1.403 . S
C3097 C3094 1.403 . S
C3097 C3098 1.524 . S
C3097 C3101 1.400 . S
C3098 H3083 0.960 . S
C3098 H3084 0.960 . S
C3098 H3085 0.960 . S
C3098 C3097 1.524 . S
C3099 C3096 1.403 . S
C3099 C3100 1.392 . S
C3099 C3103 1.495 . S
C3100 C3099 1.392 . S
C3100 C3101 1.385 . S
C3100 C3102 1.478 . S
C3101 H3095 0.930 . S
C3101 C3097 1.400 . S
C3101 C3100 1.385 . S
C3102 C3100 1.478 . S
C3102 C3104 1.381 . S
C3102 C3108 1.383 . S
C3103 C3099 1.495 . S
C3103 H3109 0.959 . S
C3103 H3110 0.961 . S
C3103 H3111 0.960 . S
C3104 C3102 1.381 . S
C3104 C3105 1.394 . S
C3104 H3112 0.930 . S
C3105 C3104 1.394 . S
C3105 C3106 1.383 . S
C3105 H3113 0.929 . S
C3106 C3105 1.383 . S
C3106 C3107 1.377 . S
C3107 H3091 0.930 . S
C3107 C3106 1.377 . S
C3107 C3108 1.379 . S
C3108 H3092 0.931 . S
C3108 C3102 1.383 . S
C3108 C3107 1.379 . S
H3109 C3103 0.959 . S
H3110 C3103 0.961 . S
H3111 C3103 0.960 . S
H3112 C3104 0.930 . S
H3113 C3105 0.929 . S
H3114 C3122 0.929 . S
H3115 C3124 0.930 . S
H3116 C3126 0.930 . S
H3117 C3129 0.929 . S
H3118 C3132 0.930 . S
H3119 C3134 0.960 . S
H3120 C3134 0.960 . S
H3121 C3134 0.960 . S
C3122 H3114 0.929 . S
C3122 C3123 1.377 . S
C3122 C3124 1.384 . S
C3123 C3122 1.377 . S
C3123 C3129 1.390 . S
C3124 H3115 0.930 . S
C3124 C3122 1.384 . S
C3124 C3125 1.372 . S
C3125 C3124 1.372 . S
C3125 C3126 1.400 . S
C3125 C3130 1.490 . S
C3126 H3116 0.930 . S
C3126 C3125 1.400 . S
C3126 C3129 1.386 . S
H3127 C3143 0.930 . S
H3128 C3144 0.931 . S
C3129 H3117 0.929 . S
C3129 C3123 1.390 . S
C3129 C3126 1.386 . S
C3130 C3125 1.490 . S
C3130 C3132 1.395 . S
C3130 C3133 1.403 . S
H3131 C3137 0.930 . S
C3132 H3118 0.930 . S
C3132 C3130 1.395 . S
C3132 C3135 1.403 . S
C3133 C3130 1.403 . S
C3133 C3134 1.524 . S
C3133 C3137 1.400 . S
C3134 H3119 0.960 . S
C3134 H3120 0.960 . S
C3134 H3121 0.960 . S
C3134 C3133 1.524 . S
C3135 C3132 1.403 . S
C3135 C3136 1.392 . S
C3135 C3139 1.495 . S
C3136 C3135 1.392 . S
C3136 C3137 1.385 . S
C3136 C3138 1.478 . S
C3137 H3131 0.930 . S
C3137 C3133 1.400 . S
C3137 C3136 1.385 . S
C3138 C3136 1.478 . S
C3138 C3140 1.381 . S
C3138 C3144 1.383 . S
C3139 C3135 1.495 . S
C3139 H3145 0.959 . S
C3139 H3146 0.961 . S
C3139 H3147 0.960 . S
C3140 C3138 1.381 . S
C3140 C3141 1.394 . S
C3140 H3148 0.930 . S
C3141 C3140 1.394 . S
C3141 C3142 1.383 . S
C3141 H3149 0.929 . S
C3142 C3141 1.383 . S
C3142 C3143 1.377 . S
C3143 H3127 0.930 . S
C3143 C3142 1.377 . S
C3143 C3144 1.379 . S
C3144 H3128 0.931 . S
C3144 C3138 1.383 . S
C3144 C3143 1.379 . S
H3145 C3139 0.959 . S
H3146 C3139 0.961 . S
H3147 C3139 0.960 . S
H3148 C3140 0.930 . S
H3149 C3141 0.929 . S
H3150 C3158 0.929 . S
H3151 C3160 0.930 . S
H3152 C3162 0.930 . S
H3153 C3165 0.929 . S
H3154 C3168 0.930 . S
H3155 C3170 0.960 . S
H3156 C3170 0.960 . S
H3157 C3170 0.960 . S
C3158 H3150 0.929 . S
C3158 C3159 1.377 . S
C3158 C3160 1.384 . S
C3159 C3158 1.377 . S
C3159 C3165 1.390 . S
C3160 H3151 0.930 . S
C3160 C3158 1.384 . S
C3160 C3161 1.372 . S
C3161 C3160 1.372 . S
C3161 C3162 1.400 . S
C3161 C3166 1.490 . S
C3162 H3152 0.930 . S
C3162 C3161 1.400 . S
C3162 C3165 1.386 . S
H3163 C3179 0.930 . S
H3164 C3180 0.931 . S
C3165 H3153 0.929 . S
C3165 C3159 1.390 . S
C3165 C3162 1.386 . S
C3166 C3161 1.490 . S
C3166 C3168 1.395 . S
C3166 C3169 1.403 . S
H3167 C3173 0.930 . S
C3168 H3154 0.930 . S
C3168 C3166 1.395 . S
C3168 C3171 1.403 . S
C3169 C3166 1.403 . S
C3169 C3170 1.524 . S
C3169 C3173 1.400 . S
C3170 H3155 0.960 . S
C3170 H3156 0.960 . S
C3170 H3157 0.960 . S
C3170 C3169 1.524 . S
C3171 C3168 1.403 . S
C3171 C3172 1.392 . S
C3171 C3175 1.495 . S
C3172 C3171 1.392 . S
C3172 C3173 1.385 . S
C3172 C3174 1.478 . S
C3173 H3167 0.930 . S
C3173 C3169 1.400 . S
C3173 C3172 1.385 . S
C3174 C3172 1.478 . S
C3174 C3176 1.381 . S
C3174 C3180 1.383 . S
C3175 C3171 1.495 . S
C3175 H3181 0.959 . S
C3175 H3182 0.961 . S
C3175 H3183 0.960 . S
C3176 C3174 1.381 . S
C3176 C3177 1.394 . S
C3176 H3184 0.930 . S
C3177 C3176 1.394 . S
C3177 C3178 1.383 . S
C3177 H3185 0.929 . S
C3178 C3177 1.383 . S
C3178 C3179 1.377 . S
C3179 H3163 0.930 . S
C3179 C3178 1.377 . S
C3179 C3180 1.379 . S
C3180 H3164 0.931 . S
C3180 C3174 1.383 . S
C3180 C3179 1.379 . S
H3181 C3175 0.959 . S
H3182 C3175 0.961 . S
H3183 C3175 0.960 . S
H3184 C3176 0.930 . S
H3185 C3177 0.929 . S
H3186 C3194 0.929 . S
H3187 C3196 0.930 . S
H3188 C3198 0.930 . S
H3189 C3201 0.929 . S
H3190 C3204 0.930 . S
H3191 C3206 0.960 . S
H3192 C3206 0.960 . S
H3193 C3206 0.960 . S
C3194 H3186 0.929 . S
C3194 C3195 1.377 . S
C3194 C3196 1.384 . S
C3195 C3194 1.377 . S
C3195 C3201 1.390 . S
C3196 H3187 0.930 . S
C3196 C3194 1.384 . S
C3196 C3197 1.372 . S
C3197 C3196 1.372 . S
C3197 C3198 1.400 . S
C3197 C3202 1.490 . S
C3198 H3188 0.930 . S
C3198 C3197 1.400 . S
C3198 C3201 1.386 . S
H3199 C3215 0.930 . S
H3200 C3216 0.931 . S
C3201 H3189 0.929 . S
C3201 C3195 1.390 . S
C3201 C3198 1.386 . S
C3202 C3197 1.490 . S
C3202 C3204 1.395 . S
C3202 C3205 1.403 . S
H3203 C3209 0.930 . S
C3204 H3190 0.930 . S
C3204 C3202 1.395 . S
C3204 C3207 1.403 . S
C3205 C3202 1.403 . S
C3205 C3206 1.524 . S
C3205 C3209 1.400 . S
C3206 H3191 0.960 . S
C3206 H3192 0.960 . S
C3206 H3193 0.960 . S
C3206 C3205 1.524 . S
C3207 C3204 1.403 . S
C3207 C3208 1.392 . S
C3207 C3211 1.495 . S
C3208 C3207 1.392 . S
C3208 C3209 1.385 . S
C3208 C3210 1.478 . S
C3209 H3203 0.930 . S
C3209 C3205 1.400 . S
C3209 C3208 1.385 . S
C3210 C3208 1.478 . S
C3210 C3212 1.381 . S
C3210 C3216 1.383 . S
C3211 C3207 1.495 . S
C3211 H3217 0.959 . S
C3211 H3218 0.961 . S
C3211 H3219 0.960 . S
C3212 C3210 1.381 . S
C3212 C3213 1.394 . S
C3212 H3220 0.930 . S
C3213 C3212 1.394 . S
C3213 C3214 1.383 . S
C3213 H3221 0.929 . S
C3214 C3213 1.383 . S
C3214 C3215 1.377 . S
C3215 H3199 0.930 . S
C3215 C3214 1.377 . S
C3215 C3216 1.379 . S
C3216 H3200 0.931 . S
C3216 C3210 1.383 . S
C3216 C3215 1.379 . S
H3217 C3211 0.959 . S
H3218 C3211 0.961 . S
H3219 C3211 0.960 . S
H3220 C3212 0.930 . S
H3221 C3213 0.929 . S
H3222 C3230 0.929 . S
H3223 C3232 0.930 . S
H3224 C3234 0.930 . S
H3225 C3237 0.929 . S
H3226 C3240 0.930 . S
H3227 C3242 0.960 . S
H3228 C3242 0.960 . S
H3229 C3242 0.960 . S
C3230 H3222 0.929 . S
C3230 C3231 1.377 . S
C3230 C3232 1.384 . S
C3231 C3230 1.377 . S
C3231 C3237 1.390 . S
C3232 H3223 0.930 . S
C3232 C3230 1.384 . S
C3232 C3233 1.372 . S
C3233 C3232 1.372 . S
C3233 C3234 1.400 . S
C3233 C3238 1.490 . S
C3234 H3224 0.930 . S
C3234 C3233 1.400 . S
C3234 C3237 1.386 . S
H3235 C3251 0.930 . S
H3236 C3252 0.931 . S
C3237 H3225 0.929 . S
C3237 C3231 1.390 . S
C3237 C3234 1.386 . S
C3238 C3233 1.490 . S
C3238 C3240 1.395 . S
C3238 C3241 1.403 . S
H3239 C3245 0.930 . S
C3240 H3226 0.930 . S
C3240 C3238 1.395 . S
C3240 C3243 1.403 . S
C3241 C3238 1.403 . S
C3241 C3242 1.524 . S
C3241 C3245 1.400 . S
C3242 H3227 0.960 . S
C3242 H3228 0.960 . S
C3242 H3229 0.960 . S
C3242 C3241 1.524 . S
C3243 C3240 1.403 . S
C3243 C3244 1.392 . S
C3243 C3247 1.495 . S
C3244 C3243 1.392 . S
C3244 C3245 1.385 . S
C3244 C3246 1.478 . S
C3245 H3239 0.930 . S
C3245 C3241 1.400 . S
C3245 C3244 1.385 . S
C3246 C3244 1.478 . S
C3246 C3248 1.381 . S
C3246 C3252 1.383 . S
C3247 C3243 1.495 . S
C3247 H3253 0.959 . S
C3247 H3254 0.961 . S
C3247 H3255 0.960 . S
C3248 C3246 1.381 . S
C3248 C3249 1.394 . S
C3248 H3256 0.930 . S
C3249 C3248 1.394 . S
C3249 C3250 1.383 . S
C3249 H3257 0.929 . S
C3250 C3249 1.383 . S
C3250 C3251 1.377 . S
C3251 H3235 0.930 . S
C3251 C3250 1.377 . S
C3251 C3252 1.379 . S
C3252 H3236 0.931 . S
C3252 C3246 1.383 . S
C3252 C3251 1.379 . S
H3253 C3247 0.959 . S
H3254 C3247 0.961 . S
H3255 C3247 0.960 . S
H3256 C3248 0.930 . S
H3257 C3249 0.929 . S
C675 C53 1.457 . S
C694 C418 1.317 . S
C711 N2 1.257 . S
C730 C434 1.231 . S
C766 C417 1.194 1_655 S
C747 N25 1.253 . S
C802 C442 1.128 . S
C783 N48 1.266 . S
C819 C7 1.519 . S
C838 C451 1.274 . S
C874 C454 1.254 . S
C855 C30 1.406 . S
C891 C122 1.461 . S
C910 C460 1.312 . S
C946 C476 1.218 . S
C927 N71 1.275 . S
C982 C459 1.176 . S
C963 N94 1.243 . S
C999 N117 1.264 . S
C1018 C484 1.167 . S
C1054 C493 1.287 . S
C1035 C76 1.511 . S
C1090 C496 1.263 . S
C1071 C99 1.405 . S
C1126 C505 1.310 . S
C1107 C191 1.457 . S
C1162 C517 1.141 . S
C1143 N140 1.272 . S
C1198 C514 1.250 . S
C1179 N163 1.243 . S
C1215 N186 1.250 . S
C1234 C523 1.223 . S
C1270 C522 1.290 . S
C1251 C145 1.517 . S
C1287 C168 1.409 . S
C1306 C539 1.221 . S
C1342 C544 1.247 . S
C1323 C260 1.464 . S
C1378 C560 1.218 . S
C1359 N209 1.275 . S
C1395 N232 1.258 . S
C1414 C543 1.253 . S
C1450 C568 1.214 . S
C1431 N255 1.254 . S
C1486 C577 1.275 . S
C1467 C214 1.512 . S
C1503 C237 1.406 . S
C1522 C580 1.190 . S
C1539 C329 1.463 . S
C1558 C589 1.250 . S
C1594 C601 1.224 . S
C1575 N278 1.258 . S
C1630 C598 1.227 . S
C1611 N301 1.247 . S
C1647 N324 1.252 . S
C1666 C607 1.216 . S
C1702 C606 1.274 . S
C1683 C283 1.519 . S
C1719 C306 1.405 . S
C1738 C623 1.276 . S
C1774 C628 1.319 . S
C1755 C398 1.464 . S
C1810 C644 1.165 . S
C1791 N347 1.272 . S
C1827 N370 1.243 . S
C1846 C627 1.165 . S
C1882 C649 1.124 . S
C1863 N393 1.251 . S
C1918 C648 1.296 . S
C1899 C352 1.511 . S
C1954 C665 1.215 . S
C1935 C375 1.409 . S
C1990 C430 1.883 . S
C1971 N265 1.942 . S
C2007 C223 1.832 . S
C2026 C433 1.794 . S
C2062 C421 1.701 . S
C2043 C246 1.747 . S
C2079 C407 1.777 . S
C2098 C438 1.718 . S
C2115 N357 1.881 . S
C2134 C439 1.747 . S
C2170 C455 1.748 . S
C2151 N380 1.835 . S
C2206 C472 1.856 1_565 S
C2187 N334 1.942 . S
C2242 C475 1.738 . S
C2223 C292 1.838 . S
C2259 C315 1.746 . S
C2278 C463 1.665 . S
C2314 C480 1.717 1_655 S
C2295 C200 1.770 . S
C2331 N150 1.883 . S
C2350 C481 1.786 . S
C2367 N173 1.829 . S
C2386 C497 1.773 . S
C2403 N403 1.945 . S
C2422 C501 1.830 . S
C2439 C361 1.833 . S
C2458 C518 1.793 . S
C2494 C502 1.723 . S
C2475 C384 1.746 . S
C2530 C535 1.715 . S
C2511 C131 1.768 . S
C2566 C526 1.785 . S
C2547 N81 1.885 . S
C2583 N104 1.828 . S
C2602 C538 1.769 . S
C2638 C556 1.880 . S
C2619 N58 1.944 . S
C2674 C559 1.757 . S
C2655 C16 1.835 . S
C2691 C39 1.740 . S
C2710 C547 1.697 . S
C2746 C564 1.699 . S
C2727 C338 1.774 . S
C2782 C565 1.785 . S
C2763 N288 1.880 . S
C2818 C581 1.719 . S
C2799 N311 1.833 . S
C2854 C585 1.832 . S
C2835 N127 1.946 . S
C2890 C602 1.736 . S
C2871 C85 1.831 . S
C2907 C108 1.736 . S
C2926 C586 1.691 . S
C2943 C269 1.767 1_565 S
C2962 C619 1.708 . S
C2979 N219 1.885 . S
C2998 C610 1.731 . S
C3034 C622 1.770 . S
C3015 N242 1.828 . S
C3051 N196 1.946 . S
C3070 C640 1.834 . S
C3087 C154 1.839 . S
C3106 C643 1.736 . S
C3142 C631 1.712 . S
C3123 C177 1.737 1_565 S
C3178 C661 1.682 . S
C3159 C62 1.777 . S
C3214 C652 1.735 . S
C3195 N12 1.884 . S
C3231 N35 1.832 . S
C3250 C664 1.764 . S
