# Generated by pormake.
# Topology cor, (4,6)-cn, num edge types: 1
# Building blocks:
#     Node 0, Type 0, BuildingBlock: GALJAG_clean_sbu_0, # of connection points: 4
#     Node 1, Type 0, BuildingBlock: GALJAG_clean_sbu_0, # of connection points: 4
#     Node 2, Type 0, BuildingBlock: GALJAG_clean_sbu_0, # of connection points: 4
#     Node 3, Type 0, BuildingBlock: GALJAG_clean_sbu_0, # of connection points: 4
#     Node 4, Type 0, BuildingBlock: GALJAG_clean_sbu_0, # of connection points: 4
#     Node 5, Type 0, BuildingBlock: GALJAG_clean_sbu_0, # of connection points: 4
#     Node 6, Type 0, BuildingBlock: GALJAG_clean_sbu_0, # of connection points: 4
#     Node 7, Type 0, BuildingBlock: GALJAG_clean_sbu_0, # of connection points: 4
#     Node 8, Type 0, BuildingBlock: GALJAG_clean_sbu_0, # of connection points: 4
#     Node 9, Type 0, BuildingBlock: GALJAG_clean_sbu_0, # of connection points: 4
#     Node 10, Type 0, BuildingBlock: GALJAG_clean_sbu_0, # of connection points: 4
#     Node 11, Type 0, BuildingBlock: GALJAG_clean_sbu_0, # of connection points: 4
#     Node 12, Type 0, BuildingBlock: GALJAG_clean_sbu_0, # of connection points: 4
#     Node 13, Type 0, BuildingBlock: GALJAG_clean_sbu_0, # of connection points: 4
#     Node 14, Type 0, BuildingBlock: GALJAG_clean_sbu_0, # of connection points: 4
#     Node 15, Type 0, BuildingBlock: GALJAG_clean_sbu_0, # of connection points: 4
#     Node 16, Type 0, BuildingBlock: GALJAG_clean_sbu_0, # of connection points: 4
#     Node 17, Type 0, BuildingBlock: GALJAG_clean_sbu_0, # of connection points: 4
#     Node 18, Type 1, BuildingBlock: MIDCAF_clean_sbu_0, # of connection points: 6
#     Node 19, Type 1, BuildingBlock: MIDCAF_clean_sbu_0, # of connection points: 6
#     Node 20, Type 1, BuildingBlock: MIDCAF_clean_sbu_0, # of connection points: 6
#     Node 21, Type 1, BuildingBlock: MIDCAF_clean_sbu_0, # of connection points: 6
#     Node 22, Type 1, BuildingBlock: MIDCAF_clean_sbu_0, # of connection points: 6
#     Node 23, Type 1, BuildingBlock: MIDCAF_clean_sbu_0, # of connection points: 6
#     Node 24, Type 1, BuildingBlock: MIDCAF_clean_sbu_0, # of connection points: 6
#     Node 25, Type 1, BuildingBlock: MIDCAF_clean_sbu_0, # of connection points: 6
#     Node 26, Type 1, BuildingBlock: MIDCAF_clean_sbu_0, # of connection points: 6
#     Node 27, Type 1, BuildingBlock: MIDCAF_clean_sbu_0, # of connection points: 6
#     Node 28, Type 1, BuildingBlock: MIDCAF_clean_sbu_0, # of connection points: 6
#     Node 29, Type 1, BuildingBlock: MIDCAF_clean_sbu_0, # of connection points: 6
#     Edge 30, Type (0, 1), None
#     Edge 31, Type (0, 1), None
#     Edge 32, Type (0, 1), None
#     Edge 33, Type (0, 1), None
#     Edge 34, Type (0, 1), None
#     Edge 35, Type (0, 1), None
#     Edge 36, Type (0, 1), None
#     Edge 37, Type (0, 1), None
#     Edge 38, Type (0, 1), None
#     Edge 39, Type (0, 1), None
#     Edge 40, Type (0, 1), None
#     Edge 41, Type (0, 1), None
#     Edge 42, Type (0, 1), None
#     Edge 43, Type (0, 1), None
#     Edge 44, Type (0, 1), None
#     Edge 45, Type (0, 1), None
#     Edge 46, Type (0, 1), None
#     Edge 47, Type (0, 1), None
#     Edge 48, Type (0, 1), None
#     Edge 49, Type (0, 1), None
#     Edge 50, Type (0, 1), None
#     Edge 51, Type (0, 1), None
#     Edge 52, Type (0, 1), None
#     Edge 53, Type (0, 1), None
#     Edge 54, Type (0, 1), None
#     Edge 55, Type (0, 1), None
#     Edge 56, Type (0, 1), None
#     Edge 57, Type (0, 1), None
#     Edge 58, Type (0, 1), None
#     Edge 59, Type (0, 1), None
#     Edge 60, Type (0, 1), None
#     Edge 61, Type (0, 1), None
#     Edge 62, Type (0, 1), None
#     Edge 63, Type (0, 1), None
#     Edge 64, Type (0, 1), None
#     Edge 65, Type (0, 1), None
#     Edge 66, Type (0, 1), None
#     Edge 67, Type (0, 1), None
#     Edge 68, Type (0, 1), None
#     Edge 69, Type (0, 1), None
#     Edge 70, Type (0, 1), None
#     Edge 71, Type (0, 1), None
#     Edge 72, Type (0, 1), None
#     Edge 73, Type (0, 1), None
#     Edge 74, Type (0, 1), None
#     Edge 75, Type (0, 1), None
#     Edge 76, Type (0, 1), None
#     Edge 77, Type (0, 1), None
#     Edge 78, Type (0, 1), None
#     Edge 79, Type (0, 1), None
#     Edge 80, Type (0, 1), None
#     Edge 81, Type (0, 1), None
#     Edge 82, Type (0, 1), None
#     Edge 83, Type (0, 1), None
#     Edge 84, Type (0, 1), None
#     Edge 85, Type (0, 1), None
#     Edge 86, Type (0, 1), None
#     Edge 87, Type (0, 1), None
#     Edge 88, Type (0, 1), None
#     Edge 89, Type (0, 1), None
#     Edge 90, Type (0, 1), None
#     Edge 91, Type (0, 1), None
#     Edge 92, Type (0, 1), None
#     Edge 93, Type (0, 1), None
#     Edge 94, Type (0, 1), None
#     Edge 95, Type (0, 1), None
#     Edge 96, Type (0, 1), None
#     Edge 97, Type (0, 1), None
#     Edge 98, Type (0, 1), None
#     Edge 99, Type (0, 1), None
#     Edge 100, Type (0, 1), None
#     Edge 101, Type (0, 1), None
# Relax obj value: 0.120
# Max RMSD: 0.171
# Mean RMSD: 0.112
data_MOF--net-cor--node1-GALJAG_clean_sbu_0--node2-MIDCAF_clean_sbu_0--edge1-none
_symmetry_space_group_name_H-M    P1
_symmetry_Int_Tables_number       1
_symmetry_cell_setting            triclinic
loop_
_symmetry_equiv_pos_as_xyz
'x, y, z'
_cell_length_a     19.274436
_cell_length_b     19.194216
_cell_length_c     35.32588
_cell_angle_alpha  90.554326
_cell_angle_beta   88.793812
_cell_angle_gamma 120.10756
loop_
_atom_site_label
_atom_site_type_symbol
_atom_site_fract_x
_atom_site_fract_y
_atom_site_fract_z
_atom_type_partial_charge
In0 In 0.62472 -0.03465 0.45151 0.0
O1 O 0.61431 0.07028 0.4734 0.0
O2 O 0.58625 0.03918 0.41543 0.0
C3 C 0.72158 -0.0358 0.50656 0.0
C4 C 0.72492 -0.03476 0.39622 0.0
C5 C 0.47323 0.84401 0.45879 0.0
O6 O 0.72937 0.02908 0.49394 0.0
O7 O 0.66166 0.90206 0.49375 0.0
O8 O 0.51449 0.85927 0.42858 0.0
O9 O 0.50855 0.88959 0.48639 0.0
C10 C 0.59143 0.08447 0.44263 0.0
O11 O 0.66521 0.90072 0.40798 0.0
O12 O 0.72937 0.02802 0.41023 0.0
In13 In -0.07186 0.65831 0.44761 0.0
O14 O 0.03425 0.65032 0.42557 0.0
O15 O 0.00142 0.61923 0.48356 0.0
C16 C -0.07383 0.75663 0.39296 0.0
C17 C -0.07101 0.75948 0.50227 0.0
C18 C 0.80668 0.50682 0.43962 0.0
O19 O -0.00907 0.76232 0.40357 0.0
O20 O 0.86436 0.69789 0.40742 0.0
O21 O 0.82128 0.54612 0.47015 0.0
O22 O 0.85363 0.54382 0.4122 0.0
C23 C 0.0481 0.62685 0.45632 0.0
O24 O 0.86467 0.69827 0.49226 0.0
O25 O -0.00881 0.76454 0.48713 0.0
In26 In 0.22855 0.26572 0.44728 0.0
O27 O 0.23858 0.37951 0.42467 0.0
O28 O 0.26726 0.38013 0.48269 0.0
C29 C 0.13087 0.16808 0.39177 0.0
C30 C 0.12952 0.16656 0.50302 0.0
C31 C 0.38025 0.29709 0.44017 0.0
O32 O 0.12297 0.22452 0.40571 0.0
O33 O 0.19089 0.16587 0.40381 0.0
O34 O 0.33909 0.27209 0.47041 0.0
O35 O 0.34467 0.30545 0.41252 0.0
C36 C 0.26167 0.41845 0.45525 0.0
O37 O 0.18648 0.15915 0.48938 0.0
O38 O 0.12709 0.22655 0.49042 0.0
In39 In 0.22772 -0.04072 0.94609 0.0
O40 O 0.18724 0.02393 0.98961 0.0
O41 O 0.12309 0.89663 0.98738 0.0
C42 C 0.3792 0.08063 0.93881 0.0
C43 C 0.26102 0.84018 0.95498 0.0
C44 C 0.13086 -0.03958 0.89104 0.0
O45 O 0.33794 0.06537 0.96902 0.0
O46 O 0.34389 0.03504 0.91121 0.0
O47 O 0.12305 0.89554 0.90367 0.0
O48 O 0.19079 0.02256 0.90384 0.0
C49 C 0.12754 -0.04058 1.00139 0.0
O50 O 0.23814 0.85436 0.9242 0.0
O51 O 0.2662 0.88547 0.98218 0.0
In52 In -0.07568 0.26636 0.95 0.0
O53 O -0.01222 0.22638 0.90534 0.0
O54 O 0.86126 0.16011 0.91048 0.0
C55 C 0.04579 0.41785 0.95799 0.0
C56 C 0.80435 0.29779 0.94128 0.0
C57 C -0.07369 0.16803 1.00464 0.0
O58 O 0.03119 0.37855 0.92746 0.0
O59 O -0.00117 0.38084 0.98541 0.0
O60 O 0.86154 0.16237 0.99404 0.0
O61 O -0.01189 0.22676 0.99017 0.0
C62 C -0.07655 0.16517 0.89534 0.0
O63 O 0.81821 0.27433 0.97203 0.0
O64 O 0.85104 0.30543 0.91404 0.0
In65 In 0.62392 0.65892 0.95036 0.0
O66 O 0.66597 0.76548 0.90826 0.0
O67 O 0.72538 0.6981 0.90722 0.0
C68 C 0.47223 0.62757 0.95746 0.0
C69 C 0.59078 0.50618 0.94237 0.0
C70 C 0.7216 0.75656 1.00587 0.0
O71 O 0.51339 0.65257 0.92722 0.0
O72 O 0.50779 0.61918 0.98512 0.0
O73 O 0.72951 0.70013 0.99192 0.0
O74 O 0.66156 0.75875 0.99383 0.0
C75 C 0.72293 0.75808 0.89462 0.0
O76 O 0.61387 0.54511 0.97296 0.0
O77 O 0.5852 0.54451 0.91493 0.0
In78 In 0.29144 0.29873 0.78487 0.0
O79 O 0.33191 0.23408 0.74134 0.0
O80 O 0.39607 0.36137 0.74358 0.0
C81 C 0.13996 0.17738 0.79215 0.0
C82 C 0.25814 0.41783 0.77598 0.0
C83 C 0.3883 0.29759 0.83991 0.0
O84 O 0.18122 0.19264 0.76194 0.0
O85 O 0.17527 0.22297 0.81974 0.0
O86 O 0.39612 0.36246 0.82728 0.0
O87 O 0.32837 0.23544 0.82712 0.0
C88 C 0.39161 0.29859 0.72957 0.0
O89 O 0.28102 0.40365 0.80675 0.0
O90 O 0.25296 0.37254 0.74878 0.0
In91 In 0.59483 -0.00836 0.78096 0.0
O92 O 0.53138 0.03161 0.82562 0.0
O93 O 0.6579 0.09789 0.82048 0.0
C94 C 0.47337 0.84015 0.77296 0.0
C95 C 0.71481 -0.03979 0.78967 0.0
C96 C 0.59284 0.08997 0.72632 0.0
O97 O 0.48796 0.87944 0.80349 0.0
O98 O 0.52032 0.87716 0.74554 0.0
O99 O 0.6576 0.09563 0.73691 0.0
O100 O 0.53103 0.03125 0.74079 0.0
C101 C 0.5957 0.09282 0.83562 0.0
O102 O 0.70095 -0.01632 0.75892 0.0
O103 O 0.66811 -0.04743 0.81691 0.0
In104 In 0.89523 0.59909 0.78059 0.0
O105 O 0.90528 0.7129 0.75799 0.0
O106 O -0.06605 0.71349 0.81601 0.0
C107 C 0.79755 0.50145 0.72508 0.0
C108 C 0.79622 0.49991 0.83632 0.0
C109 C 0.04692 0.63043 0.77348 0.0
O110 O 0.78963 0.55787 0.73903 0.0
O111 O 0.85759 0.49927 0.7371 0.0
O112 O 0.00576 0.60543 0.80372 0.0
O113 O 0.01136 0.63882 0.74583 0.0
C114 C -0.07162 0.75183 0.78857 0.0
O115 O 0.85318 0.49252 0.82268 0.0
O116 O 0.79377 0.5599 0.82372 0.0
In117 In 0.89438 0.29262 0.27944 0.0
O118 O 0.90478 0.18769 0.25754 0.0
O119 O -0.06716 0.21878 0.31552 0.0
C120 C 0.79752 0.29379 0.2244 0.0
C121 C 0.79417 0.29272 0.33473 0.0
C122 C 0.04586 0.41396 0.27216 0.0
O123 O 0.78974 0.2289 0.23701 0.0
O124 O 0.85743 0.35593 0.23721 0.0
O125 O 0.00461 0.39869 0.30237 0.0
O126 O 0.01054 0.36838 0.24456 0.0
C127 C -0.07235 0.1735 0.28831 0.0
O128 O 0.85388 0.35724 0.32298 0.0
O129 O 0.78973 0.22994 0.32072 0.0
In130 In 0.59094 0.59965 0.28333 0.0
O131 O 0.65442 0.55969 0.23868 0.0
O132 O 0.5279 0.49343 0.2438 0.0
C133 C 0.7124 0.75114 0.29132 0.0
C134 C 0.47098 0.63111 0.27463 0.0
C135 C 0.59291 0.50132 0.33797 0.0
O136 O 0.6978 0.71184 0.26079 0.0
O137 O 0.66546 0.71414 0.31874 0.0
O138 O 0.52815 0.49563 0.32737 0.0
O139 O 0.65472 0.56006 0.32352 0.0
C140 C 0.5901 0.49849 0.22867 0.0
O141 O 0.48484 0.60763 0.30538 0.0
O142 O 0.51767 0.63873 0.24738 0.0
In143 In 0.29053 -0.00775 0.28365 0.0
O144 O 0.28051 0.87846 0.30626 0.0
O145 O 0.25183 0.87783 0.24824 0.0
C146 C 0.38821 0.08988 0.33916 0.0
C147 C 0.38956 0.09141 0.22792 0.0
C148 C 0.13884 -0.03911 0.29075 0.0
O149 O 0.39611 0.03344 0.32523 0.0
O150 O 0.32819 0.0921 0.32713 0.0
O151 O 0.17998 -0.01413 0.26053 0.0
O152 O 0.17441 -0.04749 0.31842 0.0
C153 C 0.25741 0.83951 0.27568 0.0
O154 O 0.33261 0.09882 0.24156 0.0
O155 O 0.39199 0.03141 0.24051 0.0
In156 In -0.04187 0.63208 1.11819 0.0
O157 O -0.05227 0.73701 1.14008 0.0
O158 O -0.08034 0.70591 1.08211 0.0
C159 C 0.05499 0.63091 1.17323 0.0
C160 C 0.05832 0.63197 1.06289 0.0
C161 C 0.80664 0.51074 1.12547 0.0
O162 O 0.06278 0.6958 1.16062 0.0
O163 O -0.00492 0.56877 1.16041 0.0
O164 O 0.84789 0.52601 1.09526 0.0
O165 O 0.84197 0.55632 1.15307 0.0
C166 C -0.07515 0.7512 1.10931 0.0
O167 O -0.00139 0.56745 1.07465 0.0
O168 O 0.06277 0.69475 1.0769 0.0
In169 In 0.26155 0.32503 1.11429 0.0
O170 O 0.36767 0.31707 1.09225 0.0
O171 O 0.33483 0.28595 1.15024 0.0
C172 C 0.25956 0.42336 1.05966 0.0
C173 C 0.2624 0.42619 1.16896 0.0
C174 C 0.14009 0.17354 1.1063 0.0
O175 O 0.32433 0.42904 1.07026 0.0
O176 O 0.19776 0.36463 1.07412 0.0
O177 O 0.15469 0.21283 1.13683 0.0
O178 O 0.18704 0.21055 1.07888 0.0
C179 C 0.38152 0.29359 1.123 0.0
O180 O 0.19808 0.36498 1.15895 0.0
O181 O 0.3246 0.43125 1.15383 0.0
In182 In 0.56195 0.93244 1.11395 0.0
O183 O 0.51989 0.82586 1.15605 0.0
O184 O 0.4605 0.89327 1.1571 0.0
C185 C 0.71365 -0.03619 1.10684 0.0
C186 C 0.59508 0.08518 1.12193 0.0
C187 C 0.46427 0.83482 1.05844 0.0
O188 O 0.6725 0.93881 1.13709 0.0
O189 O 0.67808 -0.02782 1.07919 0.0
O190 O 0.45637 0.89124 1.07239 0.0
O191 O 0.5243 0.83261 1.07047 0.0
C192 C 0.46294 0.83327 1.16969 0.0
O193 O 0.57199 0.04624 1.09135 0.0
O194 O 0.60067 0.04686 1.14937 0.0
In195 In 0.56098 0.62589 0.61275 0.0
O196 O 0.52051 0.69053 0.65628 0.0
O197 O 0.45635 0.56323 0.65404 0.0
C198 C 0.71246 0.74723 0.60547 0.0
C199 C 0.59427 0.50678 0.62163 0.0
C200 C 0.46412 0.62705 0.55771 0.0
O201 O 0.67121 0.73196 0.63568 0.0
O202 O 0.67714 0.70165 0.57787 0.0
O203 O 0.45632 0.56217 0.57033 0.0
O204 O 0.52404 0.68919 0.57051 0.0
C205 C 0.4608 0.62601 0.66805 0.0
O206 O 0.57139 0.52096 0.59086 0.0
O207 O 0.59946 0.55207 0.64883 0.0
In208 In 0.25758 0.93296 0.61665 0.0
O209 O 0.32103 0.893 0.57199 0.0
O210 O 0.19451 0.82673 0.57713 0.0
C211 C 0.37903 0.08445 0.62465 0.0
C212 C 0.1376 -0.03561 0.60794 0.0
C213 C 0.25957 0.83463 0.67128 0.0
O214 O 0.36443 0.04516 0.59412 0.0
O215 O 0.33209 0.04744 0.65207 0.0
O216 O 0.19481 0.82896 0.6607 0.0
O217 O 0.32138 0.89335 0.65681 0.0
C218 C 0.25671 0.83179 0.56198 0.0
O219 O 0.15145 0.94091 0.63869 0.0
O220 O 0.18429 -0.02796 0.5807 0.0
In221 In -0.04282 0.32553 0.61701 0.0
O222 O -0.00077 0.43211 0.57492 0.0
O223 O 0.05863 0.36471 0.57386 0.0
C224 C 0.80549 0.29418 0.62412 0.0
C225 C -0.07596 0.17279 0.60903 0.0
C226 C 0.05487 0.42316 0.67252 0.0
O227 O 0.84664 0.31918 0.59388 0.0
O228 O 0.84105 0.28579 0.65177 0.0
O229 O 0.06278 0.36674 0.65857 0.0
O230 O -0.00518 0.42535 0.6605 0.0
C231 C 0.05619 0.42471 0.56127 0.0
O232 O -0.05287 0.21172 0.63961 0.0
O233 O -0.08154 0.21112 0.58159 0.0
Zn234 Zn -0.07191 -0.03961 0.26978 0.0
Zn235 Zn -0.07197 -0.03726 0.39778 0.0
Zn236 Zn -0.07376 -0.03774 0.33689 0.0
C237 C -0.07833 0.82697 0.38021 0.0
C238 C 0.0617 0.09315 0.37832 0.0
O239 O -0.0368 0.08726 0.32226 0.0
O240 O -0.09129 0.05127 0.26588 0.0
C241 C 0.78541 0.82946 0.2947 0.0
O242 O -0.03007 0.87956 0.35585 0.0
O243 O 0.87478 0.84255 0.39901 0.0
O244 O 0.04768 0.03007 0.39557 0.0
O245 O 0.00798 0.08911 0.35576 0.0
O246 O 0.83639 0.84975 0.26798 0.0
O247 O 0.80116 0.87449 0.32422 0.0
O248 O 0.01426 0.92505 0.32346 0.0
O249 O 0.03873 -0.01959 0.26664 0.0
C250 C 0.05958 -0.04703 0.29372 0.0
O251 O 0.8011 0.91838 0.35813 0.0
O252 O 0.86174 0.01605 0.39907 0.0
C253 C -0.06424 0.10216 0.29232 0.0
C254 C 0.79853 -0.03158 0.38196 0.0
Zn255 Zn -0.07516 -0.03684 0.49984 0.0
Zn256 Zn -0.07726 -0.04022 0.62784 0.0
Zn257 Zn -0.07403 -0.03808 0.56073 0.0
C258 C -0.08409 0.09323 0.6054 0.0
C259 C 0.79163 0.81927 0.60262 0.0
O260 O 0.88258 0.8361 0.54031 0.0
O261 O -0.02206 0.8966 0.49749 0.0
C262 C 0.05519 0.09717 0.51746 0.0
O263 O 0.88892 0.04974 0.57542 0.0
O264 O -0.05744 0.07051 0.632 0.0
O265 O 0.81196 0.86847 0.62975 0.0
O266 O 0.83751 0.83615 0.57305 0.0
O267 O -0.00793 0.08321 0.50101 0.0
O268 O 0.05162 0.04321 0.54019 0.0
O269 O 0.84399 0.00683 0.5426 0.0
O270 O 0.80513 0.91024 0.50069 0.0
C271 C 0.79082 -0.04166 0.51914 0.0
O272 O 0.05064 -0.00091 0.57442 0.0
O273 O 0.01374 0.94077 0.63059 0.0
C274 C -0.06837 0.8334 0.51573 0.0
C275 C 0.06532 -0.02957 0.6041 0.0
Zn276 Zn -0.07561 -0.0357 1.12783 0.0
Zn277 Zn -0.07558 -0.0381 0.99983 0.0
Zn278 Zn -0.07375 -0.03757 1.06073 0.0
C279 C -0.0692 0.09769 1.01739 0.0
C280 C 0.79076 0.8315 1.01931 0.0
O281 O 0.88929 0.83743 1.07536 0.0
O282 O -0.05622 0.87342 1.13174 0.0
C283 C 0.06708 0.09522 1.10291 0.0
O284 O 0.88255 0.04512 1.04176 0.0
O285 O -0.02233 0.0821 0.99858 0.0
O286 O 0.80477 0.89457 1.00206 0.0
O287 O 0.8445 0.83556 1.04187 0.0
O288 O 0.01609 0.07494 1.12963 0.0
O289 O 0.05132 0.0502 1.07339 0.0
O290 O 0.83823 -0.00036 1.07414 0.0
O291 O 0.81375 -0.05572 1.13097 0.0
C292 C 0.7929 -0.0283 1.10391 0.0
O293 O 0.05138 0.0063 1.03947 0.0
O294 O -0.00929 0.9086 0.99855 0.0
C295 C -0.08327 0.82254 1.10531 0.0
C296 C 0.05393 -0.04375 1.01565 0.0
Zn297 Zn -0.07238 -0.03851 0.89777 0.0
Zn298 Zn -0.07032 -0.03516 0.76977 0.0
Zn299 Zn -0.07355 -0.0373 0.83688 0.0
C300 C -0.0635 0.83139 0.7922 0.0
C301 C 0.06079 0.10535 0.79499 0.0
O302 O -0.03016 0.08853 0.8573 0.0
O303 O 0.87452 0.02805 0.90013 0.0
C304 C 0.79726 0.82748 0.88017 0.0
O305 O -0.03651 0.87488 0.82219 0.0
O306 O -0.09015 0.85411 0.76561 0.0
O307 O 0.04045 0.05615 0.76786 0.0
O308 O 0.01491 0.08847 0.82456 0.0
O309 O 0.86038 0.84144 0.89661 0.0
O310 O 0.80081 0.88142 0.85744 0.0
O311 O 0.00844 0.91779 0.855 0.0
O312 O 0.04733 0.01441 0.8969 0.0
C313 C 0.06162 -0.03371 0.87846 0.0
O314 O 0.80177 0.92553 0.8232 0.0
O315 O 0.83868 -0.01615 0.76703 0.0
C316 C -0.07919 0.09125 0.88188 0.0
C317 C 0.7871 -0.04582 0.79352 0.0
Zn318 Zn 0.59473 0.29611 0.73112 0.0
Zn319 Zn 0.59475 0.29368 0.60312 0.0
Zn320 Zn 0.59289 0.29557 0.67022 0.0
C321 C 0.72624 0.28629 0.62705 0.0
C322 C 0.45206 0.16276 0.62804 0.0
O323 O 0.46777 0.2517 0.69148 0.0
O324 O 0.52844 0.34941 0.7324 0.0
C325 C 0.72838 0.42651 0.71163 0.0
O326 O 0.6809 0.25835 0.65681 0.0
O327 O 0.70539 0.3137 0.59999 0.0
O328 O 0.50304 0.18304 0.60133 0.0
O329 O 0.46781 0.20779 0.65756 0.0
O330 O 0.71438 0.36344 0.72888 0.0
O331 O 0.67464 0.42244 0.68908 0.0
O332 O 0.63659 0.21288 0.6892 0.0
O333 O 0.54149 0.17592 0.73238 0.0
C334 C 0.58835 0.16032 0.71357 0.0
O335 O 0.62984 0.42056 0.65558 0.0
O336 O 0.57535 0.38455 0.5992 0.0
C337 C 0.46522 0.30176 0.7153 0.0
C338 C 0.6024 0.43545 0.62564 0.0
Zn339 Zn 0.58948 0.29318 0.96118 0.0
Zn340 Zn 0.59154 0.2965 0.83318 0.0
Zn341 Zn 0.59271 0.2953 0.89407 0.0
C342 C 0.45754 0.29171 0.85249 0.0
C343 C 0.7219 0.43052 0.85078 0.0
O344 O 0.71739 0.33248 0.90775 0.0
O345 O 0.68049 0.27416 0.96392 0.0
C346 C 0.45837 0.15266 0.93596 0.0
O347 O 0.51073 0.34021 0.87595 0.0
O348 O 0.47182 0.24359 0.83405 0.0
O349 O 0.65877 0.41655 0.83434 0.0
O350 O 0.71835 0.37658 0.87351 0.0
O351 O 0.47871 0.20186 0.96309 0.0
O352 O 0.50425 0.16954 0.90639 0.0
O353 O 0.55567 0.38313 0.90876 0.0
O354 O 0.60931 0.4039 0.96535 0.0
C355 C 0.58266 0.42662 0.93875 0.0
O356 O 0.54932 0.16947 0.87366 0.0
O357 O 0.64464 0.22994 0.83082 0.0
C358 C 0.73207 0.30382 0.93743 0.0
C359 C 0.59835 0.16675 0.84907 0.0
Zn360 Zn 0.59098 0.29757 0.46116 0.0
Zn361 Zn 0.59107 0.29521 0.33316 0.0
Zn362 Zn 0.59284 0.2957 0.39406 0.0
C363 C 0.59741 0.43098 0.35073 0.0
C364 C 0.45738 0.16481 0.35262 0.0
O365 O 0.55588 0.1707 0.40868 0.0
O366 O 0.61037 0.20669 0.46506 0.0
C367 C 0.73367 0.4285 0.43624 0.0
O368 O 0.54915 0.37839 0.37509 0.0
O369 O 0.64431 0.41541 0.33193 0.0
O370 O 0.47141 0.22789 0.33537 0.0
O371 O 0.5111 0.16885 0.37518 0.0
O372 O 0.68268 0.40822 0.46296 0.0
O373 O 0.71792 0.38347 0.40672 0.0
O374 O 0.50483 0.33291 0.40747 0.0
O375 O 0.48034 0.27755 0.4643 0.0
C376 C 0.45949 0.30497 0.43724 0.0
O377 O 0.71798 0.33957 0.37282 0.0
O378 O 0.65735 0.2419 0.33187 0.0
C379 C 0.58332 0.1558 0.43862 0.0
C380 C 0.72055 0.28954 0.34899 0.0
Zn381 Zn 0.59424 0.29481 0.2311 0.0
Zn382 Zn 0.59637 0.29818 1.1031 0.0
Zn383 Zn 0.59313 0.29606 1.17021 0.0
C384 C 0.6032 0.16474 1.12555 0.0
C385 C 0.72748 0.4387 1.12832 0.0
O386 O 0.63652 0.42187 1.19064 0.0
O387 O 0.54114 0.36137 0.23345 0.0
C388 C 0.4639 0.16081 0.21348 0.0
O389 O 0.63019 0.20824 1.15553 0.0
O390 O 0.57655 0.18745 1.09895 0.0
O391 O 0.70715 0.3895 1.10119 0.0
O392 O 0.6816 0.42182 1.15789 0.0
O393 O 0.52701 0.17476 0.22993 0.0
O394 O 0.46748 0.21476 1.19075 0.0
O395 O 0.67512 0.25115 1.18835 0.0
O396 O 0.71396 0.34773 0.23026 0.0
C397 C 0.72828 0.29964 0.21182 0.0
O398 O 0.46847 0.25889 1.15652 0.0
O399 O 0.50537 0.3172 1.10035 0.0
C400 C 0.58746 0.42458 0.21521 0.0
C401 C 0.4538 0.28754 1.12684 0.0
Zn402 Zn 0.26143 0.62948 1.06446 0.0
Zn403 Zn 0.2615 0.62709 0.93647 0.0
Zn404 Zn 0.25963 0.62897 1.00356 0.0
C405 C 0.39298 0.61969 0.9604 0.0
C406 C 0.11881 0.49616 0.96138 0.0
O407 O 0.13449 0.5851 1.02481 0.0
O408 O 0.19514 0.6828 1.06573 0.0
C409 C 0.3951 0.75988 1.04499 0.0
O410 O 0.34764 0.59175 0.99016 0.0
O411 O 0.37214 0.6471 0.93333 0.0
O412 O 0.1698 0.51644 0.93466 0.0
O413 O 0.13455 0.54119 0.9909 0.0
O414 O 0.38108 0.69681 1.06225 0.0
O415 O 0.34137 0.75583 1.02243 0.0
O416 O 0.30332 0.54628 1.02254 0.0
O417 O 0.20818 0.50929 1.06571 0.0
C418 C 0.25507 0.49371 1.04691 0.0
O419 O 0.29659 0.75397 0.98893 0.0
O420 O 0.24211 0.71796 0.93255 0.0
C421 C 0.13193 0.63515 1.04863 0.0
C422 C 0.26915 0.76885 0.95899 0.0
Zn423 Zn 0.25613 0.62653 0.29452 0.0
Zn424 Zn 0.25826 0.62987 1.16652 0.0
Zn425 Zn 0.25938 0.62864 0.22741 0.0
C426 C 0.12423 0.62505 1.18581 0.0
C427 C 0.3886 0.76388 1.18414 0.0
O428 O 0.38404 0.66581 0.2411 0.0
O429 O 0.34713 0.60751 0.29727 0.0
C430 C 0.12503 0.486 0.26931 0.0
O431 O 0.1774 0.67355 0.20927 0.0
O432 O 0.13854 0.57695 1.16736 0.0
O433 O 0.32548 0.74992 1.16768 0.0
O434 O 0.38503 0.70993 0.20687 0.0
O435 O 0.14536 0.53521 0.29643 0.0
O436 O 0.17091 0.50287 0.23974 0.0
O437 O 0.22232 0.71646 0.24209 0.0
O438 O 0.27596 0.73726 0.29867 0.0
C439 C 0.24931 0.75996 0.27207 0.0
O440 O 0.21599 0.50282 0.207 0.0
O441 O 0.31136 0.56331 1.16418 0.0
C442 C 0.39871 0.63716 0.27078 0.0
C443 C 0.26504 0.50011 1.18242 0.0
Zn444 Zn 0.25765 0.63092 0.79448 0.0
Zn445 Zn 0.25769 0.6285 0.66649 0.0
Zn446 Zn 0.25952 0.62903 0.72738 0.0
C447 C 0.26407 0.76428 0.68403 0.0
C448 C 0.12403 0.4981 0.68597 0.0
O449 O 0.22256 0.50404 0.74202 0.0
O450 O 0.27705 0.54005 0.7984 0.0
C451 C 0.40034 0.76184 0.76957 0.0
O452 O 0.21582 0.71172 0.7084 0.0
O453 O 0.31094 0.74869 0.66523 0.0
O454 O 0.13804 0.56117 0.66871 0.0
O455 O 0.17777 0.50216 0.70853 0.0
O456 O 0.34935 0.74156 0.79628 0.0
O457 O 0.3846 0.71681 0.74005 0.0
O458 O 0.1715 0.66625 0.74079 0.0
O459 O 0.14701 0.6109 0.79761 0.0
C460 C 0.12616 0.63831 0.77055 0.0
O461 O 0.38465 0.6729 0.70613 0.0
O462 O 0.32398 0.57519 0.66521 0.0
C463 C 0.25 0.48916 0.77197 0.0
C464 C 0.3872 0.62284 0.68231 0.0
Zn465 Zn 0.26296 0.63145 0.43643 0.0
Zn466 Zn 0.26087 0.62811 0.56442 0.0
Zn467 Zn 0.25972 0.62933 0.50353 0.0
C468 C 0.39488 0.63292 0.54513 0.0
C469 C 0.13052 0.4941 0.54682 0.0
O470 O 0.13505 0.59216 0.48985 0.0
O471 O 0.17196 0.65046 0.43368 0.0
C472 C 0.39407 0.77197 0.46164 0.0
O473 O 0.3417 0.58442 0.52167 0.0
O474 O 0.38058 0.68103 0.56357 0.0
O475 O 0.19364 0.50807 0.56327 0.0
O476 O 0.13407 0.54805 0.52409 0.0
O477 O 0.37373 0.72276 0.43451 0.0
O478 O 0.34819 0.7551 0.49121 0.0
O479 O 0.29677 0.54151 0.48885 0.0
O480 O 0.24313 0.52072 0.43227 0.0
C481 C 0.26978 0.49801 0.45887 0.0
O482 O 0.30311 0.75516 0.52395 0.0
O483 O 0.20777 0.69468 0.56677 0.0
C484 C 0.12038 0.62081 0.46017 0.0
C485 C 0.25407 0.75787 0.54853 0.0
loop_
_geom_bond_atom_site_label_1
_geom_bond_atom_site_label_2
_geom_bond_distance
_geom_bond_site_symmetry_2
_ccdc_geom_bond_type
In0 O1 2.294 . S
In0 O2 2.326 . S
In0 O6 2.266 . S
In0 O7 2.326 1_545 S
In0 O8 2.266 1_545 S
In0 O9 2.326 1_545 S
In0 O11 2.294 1_545 S
In0 O12 2.326 . S
O1 In0 2.294 . S
O1 C10 1.240 . S
O2 In0 2.326 . S
O2 C10 1.252 . S
C3 O6 1.252 . S
C3 O7 1.260 1_545 S
C4 O11 1.240 1_545 S
C4 O12 1.252 . S
C5 O8 1.252 . S
C5 O9 1.260 . S
O6 In0 2.266 . S
O6 C3 1.252 . S
O7 In0 2.326 1_565 S
O7 C3 1.260 1_565 S
O8 In0 2.266 1_565 S
O8 C5 1.252 . S
O9 In0 2.326 1_565 S
O9 C5 1.260 . S
C10 O1 1.240 . S
C10 O2 1.252 . S
O11 In0 2.294 1_565 S
O11 C4 1.240 1_565 S
O12 In0 2.326 . S
O12 C4 1.252 . S
In13 O14 2.294 . S
In13 O15 2.326 . S
In13 O19 2.266 . S
In13 O20 2.326 1_455 S
In13 O21 2.266 1_455 S
In13 O22 2.326 1_455 S
In13 O24 2.294 1_455 S
In13 O25 2.326 . S
O14 In13 2.294 . S
O14 C23 1.240 . S
O15 In13 2.326 . S
O15 C23 1.252 . S
C16 O19 1.252 . S
C16 O20 1.260 1_455 S
C17 O24 1.240 1_455 S
C17 O25 1.252 . S
C18 O21 1.252 . S
C18 O22 1.260 . S
O19 In13 2.266 . S
O19 C16 1.252 . S
O20 In13 2.326 1_655 S
O20 C16 1.260 1_655 S
O21 In13 2.266 1_655 S
O21 C18 1.252 . S
O22 In13 2.326 1_655 S
O22 C18 1.260 . S
C23 O14 1.240 . S
C23 O15 1.252 . S
O24 In13 2.294 1_655 S
O24 C17 1.240 1_655 S
O25 In13 2.326 . S
O25 C17 1.252 . S
In26 O27 2.294 . S
In26 O28 2.326 . S
In26 O32 2.266 . S
In26 O33 2.326 . S
In26 O34 2.266 . S
In26 O35 2.326 . S
In26 O37 2.294 . S
In26 O38 2.326 . S
O27 In26 2.294 . S
O27 C36 1.240 . S
O28 In26 2.326 . S
O28 C36 1.252 . S
C29 O32 1.252 . S
C29 O33 1.260 . S
C30 O37 1.240 . S
C30 O38 1.252 . S
C31 O34 1.252 . S
C31 O35 1.260 . S
O32 In26 2.266 . S
O32 C29 1.252 . S
O33 In26 2.326 . S
O33 C29 1.260 . S
O34 In26 2.266 . S
O34 C31 1.252 . S
O35 In26 2.326 . S
O35 C31 1.260 . S
C36 O27 1.240 . S
C36 O28 1.252 . S
O37 In26 2.294 . S
O37 C30 1.240 . S
O38 In26 2.326 . S
O38 C30 1.252 . S
In39 O40 2.294 . S
In39 O41 2.326 1_545 S
In39 O45 2.266 . S
In39 O46 2.326 . S
In39 O47 2.266 1_545 S
In39 O48 2.326 . S
In39 O50 2.294 1_545 S
In39 O51 2.326 1_545 S
O40 In39 2.294 . S
O40 C49 1.240 . S
O41 In39 2.326 1_565 S
O41 C49 1.252 1_565 S
C42 O45 1.252 . S
C42 O46 1.260 . S
C43 O50 1.240 . S
C43 O51 1.252 . S
C44 O47 1.252 1_545 S
C44 O48 1.260 . S
O45 In39 2.266 . S
O45 C42 1.252 . S
O46 In39 2.326 . S
O46 C42 1.260 . S
O47 In39 2.266 1_565 S
O47 C44 1.252 1_565 S
O48 In39 2.326 . S
O48 C44 1.260 . S
C49 O40 1.240 . S
C49 O41 1.252 1_545 S
O50 In39 2.294 1_565 S
O50 C43 1.240 . S
O51 In39 2.326 1_565 S
O51 C43 1.252 . S
In52 O53 2.294 . S
In52 O54 2.326 1_455 S
In52 O58 2.266 . S
In52 O59 2.326 . S
In52 O60 2.266 1_455 S
In52 O61 2.326 . S
In52 O63 2.294 1_455 S
In52 O64 2.326 1_455 S
O53 In52 2.294 . S
O53 C62 1.240 . S
O54 In52 2.326 1_655 S
O54 C62 1.252 1_655 S
C55 O58 1.252 . S
C55 O59 1.260 . S
C56 O63 1.240 . S
C56 O64 1.252 . S
C57 O60 1.252 1_455 S
C57 O61 1.260 . S
O58 In52 2.266 . S
O58 C55 1.252 . S
O59 In52 2.326 . S
O59 C55 1.260 . S
O60 In52 2.266 1_655 S
O60 C57 1.252 1_655 S
O61 In52 2.326 . S
O61 C57 1.260 . S
C62 O53 1.240 . S
C62 O54 1.252 1_455 S
O63 In52 2.294 1_655 S
O63 C56 1.240 . S
O64 In52 2.326 1_655 S
O64 C56 1.252 . S
In65 O66 2.294 . S
In65 O67 2.326 . S
In65 O71 2.266 . S
In65 O72 2.326 . S
In65 O73 2.266 . S
In65 O74 2.326 . S
In65 O76 2.294 . S
In65 O77 2.326 . S
O66 In65 2.294 . S
O66 C75 1.240 . S
O67 In65 2.326 . S
O67 C75 1.252 . S
C68 O71 1.252 . S
C68 O72 1.260 . S
C69 O76 1.240 . S
C69 O77 1.252 . S
C70 O73 1.252 . S
C70 O74 1.260 . S
O71 In65 2.266 . S
O71 C68 1.252 . S
O72 In65 2.326 . S
O72 C68 1.260 . S
O73 In65 2.266 . S
O73 C70 1.252 . S
O74 In65 2.326 . S
O74 C70 1.260 . S
C75 O66 1.240 . S
C75 O67 1.252 . S
O76 In65 2.294 . S
O76 C69 1.240 . S
O77 In65 2.326 . S
O77 C69 1.252 . S
In78 O79 2.294 . S
In78 O80 2.326 . S
In78 O84 2.266 . S
In78 O85 2.326 . S
In78 O86 2.266 . S
In78 O87 2.326 . S
In78 O89 2.294 . S
In78 O90 2.326 . S
O79 In78 2.294 . S
O79 C88 1.240 . S
O80 In78 2.326 . S
O80 C88 1.252 . S
C81 O84 1.252 . S
C81 O85 1.260 . S
C82 O89 1.240 . S
C82 O90 1.252 . S
C83 O86 1.252 . S
C83 O87 1.260 . S
O84 In78 2.266 . S
O84 C81 1.252 . S
O85 In78 2.326 . S
O85 C81 1.260 . S
O86 In78 2.266 . S
O86 C83 1.252 . S
O87 In78 2.326 . S
O87 C83 1.260 . S
C88 O79 1.240 . S
C88 O80 1.252 . S
O89 In78 2.294 . S
O89 C82 1.240 . S
O90 In78 2.326 . S
O90 C82 1.252 . S
In91 O92 2.294 . S
In91 O93 2.326 . S
In91 O97 2.266 1_545 S
In91 O98 2.326 1_545 S
In91 O99 2.266 . S
In91 O100 2.326 . S
In91 O102 2.294 . S
In91 O103 2.326 . S
O92 In91 2.294 . S
O92 C101 1.240 . S
O93 In91 2.326 . S
O93 C101 1.252 . S
C94 O97 1.252 . S
C94 O98 1.260 . S
C95 O102 1.240 . S
C95 O103 1.252 . S
C96 O99 1.252 . S
C96 O100 1.260 . S
O97 In91 2.266 1_565 S
O97 C94 1.252 . S
O98 In91 2.326 1_565 S
O98 C94 1.260 . S
O99 In91 2.266 . S
O99 C96 1.252 . S
O100 In91 2.326 . S
O100 C96 1.260 . S
C101 O92 1.240 . S
C101 O93 1.252 . S
O102 In91 2.294 . S
O102 C95 1.240 . S
O103 In91 2.326 . S
O103 C95 1.252 . S
In104 O105 2.294 . S
In104 O106 2.326 1_655 S
In104 O110 2.266 . S
In104 O111 2.326 . S
In104 O112 2.266 1_655 S
In104 O113 2.326 1_655 S
In104 O115 2.294 . S
In104 O116 2.326 . S
O105 In104 2.294 . S
O105 C114 1.236 1_655 S
O106 In104 2.326 1_455 S
O106 C114 1.258 . S
C107 O110 1.252 . S
C107 O111 1.260 . S
C108 O115 1.240 . S
C108 O116 1.252 . S
C109 O112 1.252 . S
C109 O113 1.260 . S
O110 In104 2.266 . S
O110 C107 1.252 . S
O111 In104 2.326 . S
O111 C107 1.260 . S
O112 In104 2.266 1_455 S
O112 C109 1.252 . S
O113 In104 2.326 1_455 S
O113 C109 1.260 . S
C114 O105 1.236 1_455 S
C114 O106 1.258 . S
O115 In104 2.294 . S
O115 C108 1.240 . S
O116 In104 2.326 . S
O116 C108 1.252 . S
In117 O118 2.294 . S
In117 O119 2.326 1_655 S
In117 O123 2.266 . S
In117 O124 2.326 . S
In117 O125 2.266 1_655 S
In117 O126 2.326 1_655 S
In117 O128 2.294 . S
In117 O129 2.326 . S
O118 In117 2.294 . S
O118 C127 1.240 . S
O119 In117 2.326 1_455 S
O119 C127 1.252 1_455 S
C120 O123 1.252 . S
C120 O124 1.260 . S
C121 O128 1.240 . S
C121 O129 1.252 . S
C122 O125 1.252 . S
C122 O126 1.260 . S
O123 In117 2.266 . S
O123 C120 1.252 . S
O124 In117 2.326 . S
O124 C120 1.260 . S
O125 In117 2.266 1_455 S
O125 C122 1.252 . S
O126 In117 2.326 1_455 S
O126 C122 1.260 . S
C127 O118 1.240 . S
C127 O119 1.252 1_655 S
O128 In117 2.294 . S
O128 C121 1.240 . S
O129 In117 2.326 . S
O129 C121 1.252 . S
In130 O131 2.294 . S
In130 O132 2.326 . S
In130 O136 2.266 . S
In130 O137 2.326 . S
In130 O138 2.266 . S
In130 O139 2.326 . S
In130 O141 2.294 . S
In130 O142 2.326 . S
O131 In130 2.294 . S
O131 C140 1.240 . S
O132 In130 2.326 . S
O132 C140 1.252 . S
C133 O136 1.252 . S
C133 O137 1.260 . S
C134 O141 1.240 . S
C134 O142 1.252 . S
C135 O138 1.252 . S
C135 O139 1.260 . S
O136 In130 2.266 . S
O136 C133 1.252 . S
O137 In130 2.326 . S
O137 C133 1.260 . S
O138 In130 2.266 . S
O138 C135 1.252 . S
O139 In130 2.326 . S
O139 C135 1.260 . S
C140 O131 1.240 . S
C140 O132 1.252 . S
O141 In130 2.294 . S
O141 C134 1.240 . S
O142 In130 2.326 . S
O142 C134 1.252 . S
In143 O144 2.294 1_545 S
In143 O145 2.326 1_545 S
In143 O149 2.266 . S
In143 O150 2.326 . S
In143 O151 2.266 . S
In143 O152 2.326 1_545 S
In143 O154 2.294 . S
In143 O155 2.326 . S
O144 In143 2.294 1_565 S
O144 C153 1.240 . S
O145 In143 2.326 1_565 S
O145 C153 1.252 . S
C146 O149 1.252 . S
C146 O150 1.260 . S
C147 O154 1.240 . S
C147 O155 1.252 . S
C148 O151 1.252 . S
C148 O152 1.260 1_545 S
O149 In143 2.266 . S
O149 C146 1.252 . S
O150 In143 2.326 . S
O150 C146 1.260 . S
O151 In143 2.266 . S
O151 C148 1.252 . S
O152 In143 2.326 1_565 S
O152 C148 1.260 1_565 S
C153 O144 1.240 . S
C153 O145 1.252 . S
O154 In143 2.294 . S
O154 C147 1.240 . S
O155 In143 2.326 . S
O155 C147 1.252 . S
In156 O157 2.294 . S
In156 O158 2.326 . S
In156 O162 2.266 . S
In156 O163 2.326 . S
In156 O164 2.266 1_455 S
In156 O165 2.326 1_455 S
In156 O167 2.294 . S
In156 O168 2.326 . S
O157 In156 2.294 . S
O157 C166 1.240 . S
O158 In156 2.326 . S
O158 C166 1.252 . S
C159 O162 1.252 . S
C159 O163 1.260 . S
C160 O167 1.240 . S
C160 O168 1.252 . S
C161 O164 1.252 . S
C161 O165 1.260 . S
O162 In156 2.266 . S
O162 C159 1.252 . S
O163 In156 2.326 . S
O163 C159 1.260 . S
O164 In156 2.266 1_655 S
O164 C161 1.252 . S
O165 In156 2.326 1_655 S
O165 C161 1.260 . S
C166 O157 1.240 . S
C166 O158 1.252 . S
O167 In156 2.294 . S
O167 C160 1.240 . S
O168 In156 2.326 . S
O168 C160 1.252 . S
In169 O170 2.294 . S
In169 O171 2.326 . S
In169 O175 2.266 . S
In169 O176 2.326 . S
In169 O177 2.266 . S
In169 O178 2.326 . S
In169 O180 2.294 . S
In169 O181 2.326 . S
O170 In169 2.294 . S
O170 C179 1.240 . S
O171 In169 2.326 . S
O171 C179 1.252 . S
C172 O175 1.252 . S
C172 O176 1.260 . S
C173 O180 1.240 . S
C173 O181 1.252 . S
C174 O177 1.252 . S
C174 O178 1.260 . S
O175 In169 2.266 . S
O175 C172 1.252 . S
O176 In169 2.326 . S
O176 C172 1.260 . S
O177 In169 2.266 . S
O177 C174 1.252 . S
O178 In169 2.326 . S
O178 C174 1.260 . S
C179 O170 1.240 . S
C179 O171 1.252 . S
O180 In169 2.294 . S
O180 C173 1.240 . S
O181 In169 2.326 . S
O181 C173 1.252 . S
In182 O183 2.294 . S
In182 O184 2.326 . S
In182 O188 2.266 . S
In182 O189 2.326 1_565 S
In182 O190 2.266 . S
In182 O191 2.326 . S
In182 O193 2.294 1_565 S
In182 O194 2.326 1_565 S
O183 In182 2.294 . S
O183 C192 1.240 . S
O184 In182 2.326 . S
O184 C192 1.252 . S
C185 O188 1.252 1_545 S
C185 O189 1.260 . S
C186 O193 1.240 . S
C186 O194 1.252 . S
C187 O190 1.252 . S
C187 O191 1.260 . S
O188 In182 2.266 . S
O188 C185 1.252 1_565 S
O189 In182 2.326 1_545 S
O189 C185 1.260 . S
O190 In182 2.266 . S
O190 C187 1.252 . S
O191 In182 2.326 . S
O191 C187 1.260 . S
C192 O183 1.240 . S
C192 O184 1.252 . S
O193 In182 2.294 1_545 S
O193 C186 1.240 . S
O194 In182 2.326 1_545 S
O194 C186 1.252 . S
In195 O196 2.294 . S
In195 O197 2.326 . S
In195 O201 2.266 . S
In195 O202 2.326 . S
In195 O203 2.266 . S
In195 O204 2.326 . S
In195 O206 2.294 . S
In195 O207 2.326 . S
O196 In195 2.294 . S
O196 C205 1.240 . S
O197 In195 2.326 . S
O197 C205 1.252 . S
C198 O201 1.252 . S
C198 O202 1.260 . S
C199 O206 1.240 . S
C199 O207 1.252 . S
C200 O203 1.252 . S
C200 O204 1.260 . S
O201 In195 2.266 . S
O201 C198 1.252 . S
O202 In195 2.326 . S
O202 C198 1.260 . S
O203 In195 2.266 . S
O203 C200 1.252 . S
O204 In195 2.326 . S
O204 C200 1.260 . S
C205 O196 1.240 . S
C205 O197 1.252 . S
O206 In195 2.294 . S
O206 C199 1.240 . S
O207 In195 2.326 . S
O207 C199 1.252 . S
In208 O209 2.294 . S
In208 O210 2.326 . S
In208 O214 2.266 1_565 S
In208 O215 2.326 1_565 S
In208 O216 2.266 . S
In208 O217 2.326 . S
In208 O219 2.294 . S
In208 O220 2.326 1_565 S
O209 In208 2.294 . S
O209 C218 1.240 . S
O210 In208 2.326 . S
O210 C218 1.252 . S
C211 O214 1.252 . S
C211 O215 1.260 . S
C212 O219 1.240 . S
C212 O220 1.252 1_565 S
C213 O216 1.252 . S
C213 O217 1.260 . S
O214 In208 2.266 1_545 S
O214 C211 1.252 . S
O215 In208 2.326 1_545 S
O215 C211 1.260 . S
O216 In208 2.266 . S
O216 C213 1.252 . S
O217 In208 2.326 . S
O217 C213 1.260 . S
C218 O209 1.240 . S
C218 O210 1.252 . S
O219 In208 2.294 . S
O219 C212 1.240 . S
O220 In208 2.326 1_545 S
O220 C212 1.252 1_545 S
In221 O222 2.294 . S
In221 O223 2.326 . S
In221 O227 2.266 1_455 S
In221 O228 2.326 1_455 S
In221 O229 2.266 . S
In221 O230 2.326 . S
In221 O232 2.294 . S
In221 O233 2.328 . S
O222 In221 2.294 . S
O222 C231 1.240 . S
O223 In221 2.326 . S
O223 C231 1.252 . S
C224 O227 1.252 . S
C224 O228 1.260 . S
C225 O232 1.240 . S
C225 O233 1.263 . S
C226 O229 1.252 . S
C226 O230 1.260 . S
O227 In221 2.266 1_655 S
O227 C224 1.252 . S
O228 In221 2.326 1_655 S
O228 C224 1.260 . S
O229 In221 2.266 . S
O229 C226 1.252 . S
O230 In221 2.326 . S
O230 C226 1.260 . S
C231 O222 1.240 . S
C231 O223 1.252 . S
O232 In221 2.294 . S
O232 C225 1.240 . S
O233 In221 2.328 . S
O233 C225 1.263 . S
Zn234 O240 1.920 1_455 S
Zn234 O246 1.898 1_445 S
Zn234 O249 1.905 . S
Zn235 O243 1.905 1_445 S
Zn235 O244 1.898 . S
Zn235 O252 1.920 1_455 S
Zn236 O239 2.080 . S
Zn236 O242 2.114 1_545 S
Zn236 O245 2.120 . S
Zn236 O247 2.120 1_445 S
Zn236 O248 2.114 . S
Zn236 O251 2.080 1_455 S
C237 O242 1.166 1_655 S
C237 O243 1.182 . S
C238 O244 1.167 . S
C238 O245 1.299 . S
O239 Zn236 2.080 . S
O239 C253 1.305 1_455 S
O240 Zn234 1.920 1_655 S
O240 C253 1.234 . S
C241 O246 1.167 . S
C241 O247 1.299 . S
O242 Zn236 2.114 1_565 S
O242 C237 1.166 1_455 S
O243 Zn235 1.905 1_665 S
O243 C237 1.182 . S
O244 Zn235 1.898 . S
O244 C238 1.167 . S
O245 Zn236 2.120 . S
O245 C238 1.299 . S
O246 Zn234 1.898 1_665 S
O246 C241 1.167 . S
O247 Zn236 2.120 1_665 S
O247 C241 1.299 . S
O248 Zn236 2.114 . S
O248 C250 1.166 . S
O249 Zn234 1.905 . S
O249 C250 1.182 . S
C250 O248 1.166 . S
C250 O249 1.182 . S
O251 Zn236 2.080 1_655 S
O251 C254 1.305 . S
O252 Zn235 1.920 1_655 S
O252 C254 1.234 . S
C253 O239 1.305 1_655 S
C253 O240 1.234 . S
C254 O251 1.305 . S
C254 O252 1.234 . S
Zn255 O261 1.920 1_545 S
Zn255 O267 1.898 . S
Zn255 O270 1.905 1_445 S
Zn256 O264 1.905 . S
Zn256 O265 1.898 1_445 S
Zn256 O273 1.920 1_545 S
Zn257 O260 2.080 1_545 S
Zn257 O263 2.114 . S
Zn257 O266 2.120 1_445 S
Zn257 O268 2.120 . S
Zn257 O269 2.114 1_455 S
Zn257 O272 2.080 . S
C258 O263 1.166 . S
C258 O264 1.182 . S
C259 O265 1.167 . S
C259 O266 1.299 . S
O260 Zn257 2.080 1_565 S
O260 C274 1.305 . S
O261 Zn255 1.920 1_565 S
O261 C274 1.234 . S
C262 O267 1.167 . S
C262 O268 1.299 . S
O263 Zn257 2.114 . S
O263 C258 1.166 . S
O264 Zn256 1.905 . S
O264 C258 1.182 . S
O265 Zn256 1.898 1_665 S
O265 C259 1.167 . S
O266 Zn257 2.120 1_665 S
O266 C259 1.299 . S
O267 Zn255 1.898 . S
O267 C262 1.167 . S
O268 Zn257 2.120 . S
O268 C262 1.299 . S
O269 Zn257 2.114 1_655 S
O269 C271 1.166 1_545 S
O270 Zn255 1.905 1_665 S
O270 C271 1.182 . S
C271 O269 1.166 1_565 S
C271 O270 1.182 . S
O272 Zn257 2.080 . S
O272 C275 1.305 1_545 S
O273 Zn256 1.920 1_565 S
O273 C275 1.234 . S
C274 O260 1.305 . S
C274 O261 1.234 . S
C275 O272 1.305 1_565 S
C275 O273 1.234 . S
Zn276 O282 1.920 1_545 S
Zn276 O288 1.898 . S
Zn276 O291 1.905 1_445 S
Zn277 O285 1.905 . S
Zn277 O286 1.898 1_445 S
Zn277 O294 1.920 1_545 S
Zn278 O281 2.080 1_545 S
Zn278 O284 2.114 . S
Zn278 O287 2.120 1_445 S
Zn278 O289 2.120 . S
Zn278 O290 2.114 1_455 S
Zn278 O293 2.080 . S
C279 O284 1.166 . S
C279 O285 1.182 . S
C280 O286 1.167 . S
C280 O287 1.299 . S
O281 Zn278 2.080 1_565 S
O281 C295 1.305 . S
O282 Zn276 1.920 1_565 S
O282 C295 1.234 . S
C283 O288 1.167 . S
C283 O289 1.299 . S
O284 Zn278 2.114 . S
O284 C279 1.166 . S
O285 Zn277 1.905 . S
O285 C279 1.182 . S
O286 Zn277 1.898 1_665 S
O286 C280 1.167 . S
O287 Zn278 2.120 1_665 S
O287 C280 1.299 . S
O288 Zn276 1.898 . S
O288 C283 1.167 . S
O289 Zn278 2.120 . S
O289 C283 1.299 . S
O290 Zn278 2.114 1_655 S
O290 C292 1.166 1_545 S
O291 Zn276 1.905 1_665 S
O291 C292 1.182 . S
C292 O290 1.166 1_565 S
C292 O291 1.182 . S
O293 Zn278 2.080 . S
O293 C296 1.305 1_545 S
O294 Zn277 1.920 1_565 S
O294 C296 1.234 . S
C295 O281 1.305 . S
C295 O282 1.234 . S
C296 O293 1.305 1_565 S
C296 O294 1.234 . S
Zn297 O303 1.920 1_455 S
Zn297 O309 1.898 1_445 S
Zn297 O312 1.905 . S
Zn298 O306 1.905 1_445 S
Zn298 O307 1.898 . S
Zn298 O315 1.920 1_455 S
Zn299 O302 2.080 . S
Zn299 O305 2.114 1_545 S
Zn299 O308 2.120 . S
Zn299 O310 2.120 1_445 S
Zn299 O311 2.114 . S
Zn299 O314 2.080 1_455 S
C300 O305 1.166 1_655 S
C300 O306 1.182 . S
C301 O307 1.167 . S
C301 O308 1.299 . S
O302 Zn299 2.080 . S
O302 C316 1.305 1_455 S
O303 Zn297 1.920 1_655 S
O303 C316 1.234 . S
C304 O309 1.167 . S
C304 O310 1.299 . S
O305 Zn299 2.114 1_565 S
O305 C300 1.166 1_455 S
O306 Zn298 1.905 1_665 S
O306 C300 1.182 . S
O307 Zn298 1.898 . S
O307 C301 1.167 . S
O308 Zn299 2.120 . S
O308 C301 1.299 . S
O309 Zn297 1.898 1_665 S
O309 C304 1.167 . S
O310 Zn299 2.120 1_665 S
O310 C304 1.299 . S
O311 Zn299 2.114 . S
O311 C313 1.166 . S
O312 Zn297 1.905 . S
O312 C313 1.182 . S
C313 O311 1.166 . S
C313 O312 1.182 . S
O314 Zn299 2.080 1_655 S
O314 C317 1.305 . S
O315 Zn298 1.920 1_655 S
O315 C317 1.234 . S
C316 O302 1.305 1_655 S
C316 O303 1.234 . S
C317 O314 1.305 . S
C317 O315 1.234 . S
Zn318 O324 1.920 . S
Zn318 O330 1.898 . S
Zn318 O333 1.905 . S
Zn319 O327 1.905 . S
Zn319 O328 1.898 . S
Zn319 O336 1.920 . S
Zn320 O323 2.080 . S
Zn320 O326 2.114 . S
Zn320 O329 2.120 . S
Zn320 O331 2.120 . S
Zn320 O332 2.114 . S
Zn320 O335 2.080 . S
C321 O326 1.166 . S
C321 O327 1.182 . S
C322 O328 1.167 . S
C322 O329 1.299 . S
O323 Zn320 2.080 . S
O323 C337 1.305 . S
O324 Zn318 1.920 . S
O324 C337 1.234 . S
C325 O330 1.167 . S
C325 O331 1.299 . S
O326 Zn320 2.114 . S
O326 C321 1.166 . S
O327 Zn319 1.905 . S
O327 C321 1.182 . S
O328 Zn319 1.898 . S
O328 C322 1.167 . S
O329 Zn320 2.120 . S
O329 C322 1.299 . S
O330 Zn318 1.898 . S
O330 C325 1.167 . S
O331 Zn320 2.120 . S
O331 C325 1.299 . S
O332 Zn320 2.114 . S
O332 C334 1.166 . S
O333 Zn318 1.905 . S
O333 C334 1.182 . S
C334 O332 1.166 . S
C334 O333 1.182 . S
O335 Zn320 2.080 . S
O335 C338 1.305 . S
O336 Zn319 1.920 . S
O336 C338 1.234 . S
C337 O323 1.305 . S
C337 O324 1.234 . S
C338 O335 1.305 . S
C338 O336 1.234 . S
Zn339 O345 1.920 . S
Zn339 O351 1.898 . S
Zn339 O354 1.905 . S
Zn340 O348 1.905 . S
Zn340 O349 1.898 . S
Zn340 O357 1.920 . S
Zn341 O344 2.080 . S
Zn341 O347 2.114 . S
Zn341 O350 2.120 . S
Zn341 O352 2.120 . S
Zn341 O353 2.114 . S
Zn341 O356 2.080 . S
C342 O347 1.166 . S
C342 O348 1.182 . S
C343 O349 1.167 . S
C343 O350 1.299 . S
O344 Zn341 2.080 . S
O344 C358 1.305 . S
O345 Zn339 1.920 . S
O345 C358 1.234 . S
C346 O351 1.167 . S
C346 O352 1.299 . S
O347 Zn341 2.114 . S
O347 C342 1.166 . S
O348 Zn340 1.905 . S
O348 C342 1.182 . S
O349 Zn340 1.898 . S
O349 C343 1.167 . S
O350 Zn341 2.120 . S
O350 C343 1.299 . S
O351 Zn339 1.898 . S
O351 C346 1.167 . S
O352 Zn341 2.120 . S
O352 C346 1.299 . S
O353 Zn341 2.114 . S
O353 C355 1.166 . S
O354 Zn339 1.905 . S
O354 C355 1.182 . S
C355 O353 1.166 . S
C355 O354 1.182 . S
O356 Zn341 2.080 . S
O356 C359 1.305 . S
O357 Zn340 1.920 . S
O357 C359 1.234 . S
C358 O344 1.305 . S
C358 O345 1.234 . S
C359 O356 1.305 . S
C359 O357 1.234 . S
Zn360 O366 1.920 . S
Zn360 O372 1.898 . S
Zn360 O375 1.905 . S
Zn361 O369 1.905 . S
Zn361 O370 1.898 . S
Zn361 O378 1.920 . S
Zn362 O365 2.080 . S
Zn362 O368 2.114 . S
Zn362 O371 2.120 . S
Zn362 O373 2.120 . S
Zn362 O374 2.114 . S
Zn362 O377 2.080 . S
C363 O368 1.166 . S
C363 O369 1.182 . S
C364 O370 1.167 . S
C364 O371 1.299 . S
O365 Zn362 2.080 . S
O365 C379 1.305 . S
O366 Zn360 1.920 . S
O366 C379 1.234 . S
C367 O372 1.167 . S
C367 O373 1.299 . S
O368 Zn362 2.114 . S
O368 C363 1.166 . S
O369 Zn361 1.905 . S
O369 C363 1.182 . S
O370 Zn361 1.898 . S
O370 C364 1.167 . S
O371 Zn362 2.120 . S
O371 C364 1.299 . S
O372 Zn360 1.898 . S
O372 C367 1.167 . S
O373 Zn362 2.120 . S
O373 C367 1.299 . S
O374 Zn362 2.114 . S
O374 C376 1.166 . S
O375 Zn360 1.905 . S
O375 C376 1.182 . S
C376 O374 1.166 . S
C376 O375 1.182 . S
O377 Zn362 2.080 . S
O377 C380 1.305 . S
O378 Zn361 1.920 . S
O378 C380 1.234 . S
C379 O365 1.305 . S
C379 O366 1.234 . S
C380 O377 1.305 . S
C380 O378 1.234 . S
Zn381 O387 1.920 . S
Zn381 O393 1.898 . S
Zn381 O396 1.905 . S
Zn382 O390 1.905 . S
Zn382 O391 1.898 . S
Zn382 O399 1.920 . S
Zn383 O386 2.080 1_556 S
Zn383 O389 2.114 . S
Zn383 O392 2.120 . S
Zn383 O394 2.120 1_556 S
Zn383 O395 2.114 1_556 S
Zn383 O398 2.080 . S
C384 O389 1.166 . S
C384 O390 1.182 . S
C385 O391 1.167 . S
C385 O392 1.299 . S
O386 Zn383 2.080 1_554 S
O386 C400 1.305 . S
O387 Zn381 1.920 . S
O387 C400 1.234 . S
C388 O393 1.167 . S
C388 O394 1.299 . S
O389 Zn383 2.114 . S
O389 C384 1.166 . S
O390 Zn382 1.905 . S
O390 C384 1.182 . S
O391 Zn382 1.898 . S
O391 C385 1.167 . S
O392 Zn383 2.120 . S
O392 C385 1.299 . S
O393 Zn381 1.898 . S
O393 C388 1.167 . S
O394 Zn383 2.120 1_554 S
O394 C388 1.299 . S
O395 Zn383 2.114 1_554 S
O395 C397 1.166 . S
O396 Zn381 1.905 . S
O396 C397 1.182 . S
C397 O395 1.166 . S
C397 O396 1.182 . S
O398 Zn383 2.080 . S
O398 C401 1.305 . S
O399 Zn382 1.920 . S
O399 C401 1.234 . S
C400 O386 1.305 . S
C400 O387 1.234 . S
C401 O398 1.305 . S
C401 O399 1.234 . S
Zn402 O408 1.920 . S
Zn402 O414 1.898 . S
Zn402 O417 1.905 . S
Zn403 O411 1.905 . S
Zn403 O412 1.898 . S
Zn403 O420 1.920 . S
Zn404 O407 2.080 . S
Zn404 O410 2.114 . S
Zn404 O413 2.120 . S
Zn404 O415 2.120 . S
Zn404 O416 2.114 . S
Zn404 O419 2.080 . S
C405 O410 1.166 . S
C405 O411 1.182 . S
C406 O412 1.167 . S
C406 O413 1.299 . S
O407 Zn404 2.080 . S
O407 C421 1.305 . S
O408 Zn402 1.920 . S
O408 C421 1.234 . S
C409 O414 1.167 . S
C409 O415 1.299 . S
O410 Zn404 2.114 . S
O410 C405 1.166 . S
O411 Zn403 1.905 . S
O411 C405 1.182 . S
O412 Zn403 1.898 . S
O412 C406 1.167 . S
O413 Zn404 2.120 . S
O413 C406 1.299 . S
O414 Zn402 1.898 . S
O414 C409 1.167 . S
O415 Zn404 2.120 . S
O415 C409 1.299 . S
O416 Zn404 2.114 . S
O416 C418 1.166 . S
O417 Zn402 1.905 . S
O417 C418 1.182 . S
C418 O416 1.166 . S
C418 O417 1.182 . S
O419 Zn404 2.080 . S
O419 C422 1.305 . S
O420 Zn403 1.920 . S
O420 C422 1.234 . S
C421 O407 1.305 . S
C421 O408 1.234 . S
C422 O419 1.305 . S
C422 O420 1.234 . S
Zn423 O429 1.920 . S
Zn423 O435 1.898 . S
Zn423 O438 1.905 . S
Zn424 O432 1.905 . S
Zn424 O433 1.898 . S
Zn424 O441 1.920 . S
Zn425 O428 2.080 . S
Zn425 O431 2.114 1_554 S
Zn425 O434 2.120 1_554 S
Zn425 O436 2.120 . S
Zn425 O437 2.114 . S
Zn425 O440 2.080 1_554 S
C426 O431 1.166 . S
C426 O432 1.182 . S
C427 O433 1.167 . S
C427 O434 1.299 . S
O428 Zn425 2.080 . S
O428 C442 1.305 . S
O429 Zn423 1.920 . S
O429 C442 1.234 . S
C430 O435 1.167 . S
C430 O436 1.299 . S
O431 Zn425 2.114 1_556 S
O431 C426 1.166 . S
O432 Zn424 1.905 . S
O432 C426 1.182 . S
O433 Zn424 1.898 . S
O433 C427 1.167 . S
O434 Zn425 2.120 1_556 S
O434 C427 1.299 . S
O435 Zn423 1.898 . S
O435 C430 1.167 . S
O436 Zn425 2.120 . S
O436 C430 1.299 . S
O437 Zn425 2.114 . S
O437 C439 1.166 . S
O438 Zn423 1.905 . S
O438 C439 1.182 . S
C439 O437 1.166 . S
C439 O438 1.182 . S
O440 Zn425 2.080 1_556 S
O440 C443 1.305 . S
O441 Zn424 1.920 . S
O441 C443 1.234 . S
C442 O428 1.305 . S
C442 O429 1.234 . S
C443 O440 1.305 . S
C443 O441 1.234 . S
Zn444 O450 1.920 . S
Zn444 O456 1.898 . S
Zn444 O459 1.905 . S
Zn445 O453 1.905 . S
Zn445 O454 1.898 . S
Zn445 O462 1.920 . S
Zn446 O449 2.080 . S
Zn446 O452 2.114 . S
Zn446 O455 2.120 . S
Zn446 O457 2.120 . S
Zn446 O458 2.114 . S
Zn446 O461 2.080 . S
C447 O452 1.166 . S
C447 O453 1.182 . S
C448 O454 1.167 . S
C448 O455 1.299 . S
O449 Zn446 2.080 . S
O449 C463 1.305 . S
O450 Zn444 1.920 . S
O450 C463 1.234 . S
C451 O456 1.167 . S
C451 O457 1.299 . S
O452 Zn446 2.114 . S
O452 C447 1.166 . S
O453 Zn445 1.905 . S
O453 C447 1.182 . S
O454 Zn445 1.898 . S
O454 C448 1.167 . S
O455 Zn446 2.120 . S
O455 C448 1.299 . S
O456 Zn444 1.898 . S
O456 C451 1.167 . S
O457 Zn446 2.120 . S
O457 C451 1.299 . S
O458 Zn446 2.114 . S
O458 C460 1.166 . S
O459 Zn444 1.905 . S
O459 C460 1.182 . S
C460 O458 1.166 . S
C460 O459 1.182 . S
O461 Zn446 2.080 . S
O461 C464 1.305 . S
O462 Zn445 1.920 . S
O462 C464 1.234 . S
C463 O449 1.305 . S
C463 O450 1.234 . S
C464 O461 1.305 . S
C464 O462 1.234 . S
Zn465 O471 1.920 . S
Zn465 O477 1.898 . S
Zn465 O480 1.905 . S
Zn466 O474 1.905 . S
Zn466 O475 1.898 . S
Zn466 O483 1.920 . S
Zn467 O470 2.080 . S
Zn467 O473 2.114 . S
Zn467 O476 2.120 . S
Zn467 O478 2.120 . S
Zn467 O479 2.114 . S
Zn467 O482 2.080 . S
C468 O473 1.166 . S
C468 O474 1.182 . S
C469 O475 1.167 . S
C469 O476 1.299 . S
O470 Zn467 2.080 . S
O470 C484 1.305 . S
O471 Zn465 1.920 . S
O471 C484 1.234 . S
C472 O477 1.167 . S
C472 O478 1.299 . S
O473 Zn467 2.114 . S
O473 C468 1.166 . S
O474 Zn466 1.905 . S
O474 C468 1.182 . S
O475 Zn466 1.898 . S
O475 C469 1.167 . S
O476 Zn467 2.120 . S
O476 C469 1.299 . S
O477 Zn465 1.898 . S
O477 C472 1.167 . S
O478 Zn467 2.120 . S
O478 C472 1.299 . S
O479 Zn467 2.114 . S
O479 C481 1.166 . S
O480 Zn465 1.905 . S
O480 C481 1.182 . S
C481 O479 1.166 . S
C481 O480 1.182 . S
O482 Zn467 2.080 . S
O482 C485 1.305 . S
O483 Zn466 1.920 . S
O483 C485 1.234 . S
C484 O470 1.305 . S
C484 O471 1.234 . S
C485 O482 1.305 . S
C485 O483 1.234 . S
C29 C238 1.183 . S
C4 C254 1.148 . S
C237 C16 1.182 1_655 S
C262 C30 1.191 . S
C3 C271 1.181 1_545 S
C274 C17 1.144 . S
C70 C280 1.183 . S
C296 C49 1.148 1_565 S
C279 C57 1.182 . S
C75 C304 1.191 . S
C313 C44 1.181 . S
C316 C62 1.144 1_655 S
C325 C107 1.184 . S
C337 C88 1.148 . S
C334 C96 1.182 . S
C108 C343 1.191 . S
C342 C83 1.181 . S
C101 C359 1.145 . S
C364 C146 1.183 . S
C380 C121 1.148 . S
C135 C363 1.182 . S
C388 C147 1.191 . S
C397 C120 1.181 . S
C140 C400 1.144 . S
C187 C409 1.184 . S
C421 C160 1.148 . S
C418 C172 1.182 . S
C192 C427 1.191 . S
C426 C159 1.181 . S
C173 C443 1.144 . S
C448 C226 1.184 . S
C464 C205 1.148 . S
C213 C447 1.182 . S
C469 C231 1.191 . S
C468 C200 1.181 . S
C485 C218 1.144 . S
C250 C148 1.689 . S
C127 C253 1.651 . S
C241 C133 1.687 . S
C225 C258 1.674 . S
C198 C259 1.679 . S
C275 C212 1.648 . S
C292 C185 1.689 1_565 S
C295 C166 1.651 . S
C174 C283 1.686 . S
C300 C114 1.670 1_655 S
C81 C301 1.678 . S
C95 C317 1.648 . S
C224 C321 1.690 . S
C199 C338 1.650 . S
C322 C211 1.687 . S
C355 C69 1.674 . S
C346 C42 1.678 . S
C56 C358 1.649 . S
C376 C31 1.689 . S
C379 C10 1.651 . S
C18 C367 1.686 . S
C384 C186 1.675 . S
C385 C161 1.678 . S
C401 C179 1.648 . S
C405 C68 1.689 . S
C422 C43 1.651 . S
C55 C406 1.686 . S
C153 C439 1.675 . S
C122 C430 1.678 . S
C442 C134 1.648 . S
C109 C460 1.689 . S
C82 C463 1.650 . S
C451 C94 1.687 . S
C481 C36 1.674 . S
C472 C5 1.678 . S
C23 C484 1.649 . S
