# Generated by pormake.
# Topology pts, (4,4)-cn, num edge types: 1
# Building blocks:
#     Node 0, Type 0, BuildingBlock: KOZSID_clean_sbu_0, # of connection points: 4
#     Node 1, Type 0, BuildingBlock: KOZSID_clean_sbu_0, # of connection points: 4
#     Node 2, Type 1, BuildingBlock: AZAVOO_clean_sbu_0, # of connection points: 4
#     Node 3, Type 1, BuildingBlock: AZAVOO_clean_sbu_0, # of connection points: 4
#     Edge 4, Type (0, 1), BuildingBlock: CIFDUS_clean_linker_0, # of connection points: 2
#     Edge 5, Type (0, 1), BuildingBlock: CIFDUS_clean_linker_0, # of connection points: 2
#     Edge 6, Type (0, 1), BuildingBlock: CIFDUS_clean_linker_0, # of connection points: 2
#     Edge 7, Type (0, 1), BuildingBlock: CIFDUS_clean_linker_0, # of connection points: 2
#     Edge 8, Type (0, 1), BuildingBlock: CIFDUS_clean_linker_0, # of connection points: 2
#     Edge 9, Type (0, 1), BuildingBlock: CIFDUS_clean_linker_0, # of connection points: 2
#     Edge 10, Type (0, 1), BuildingBlock: CIFDUS_clean_linker_0, # of connection points: 2
#     Edge 11, Type (0, 1), BuildingBlock: CIFDUS_clean_linker_0, # of connection points: 2
# Relax obj value: 0.000
# Max RMSD: 0.031
# Mean RMSD: 0.015
data_MOF--net-pts--node1-KOZSID_clean_sbu_0--node2-AZAVOO_clean_sbu_0--edge1-CIFDUS_clean_linker_0
_symmetry_space_group_name_H-M    P1
_symmetry_Int_Tables_number       1
_symmetry_cell_setting            triclinic
loop_
_symmetry_equiv_pos_as_xyz
'x, y, z'
_cell_length_a     23.678842
_cell_length_b     24.334004
_cell_length_c     35.41919
_cell_angle_alpha  85.485018
_cell_angle_beta   101.03831
_cell_angle_gamma 90.488158
loop_
_atom_site_label
_atom_site_type_symbol
_atom_site_fract_x
_atom_site_fract_y
_atom_site_fract_z
_atom_type_partial_charge
C0 C 0.67453 0.11087 0.07174 0.0
C1 C 0.69605 0.16018 0.08559 0.0
C2 C 0.6626 0.20123 0.06422 0.0
C3 C 0.62264 0.17473 0.03876 0.0
N4 N 0.6287 0.11925 0.04236 0.0
Co5 Co 0.57837 0.06488 0.01209 0.0
N6 N 0.52896 0.12522 0.9809 0.0
C7 C 0.5379 0.18007 0.98194 0.0
C8 C 0.49686 0.21147 0.95715 0.0
C9 C 0.45924 0.17448 0.93932 0.0
C10 C 0.47954 0.12246 0.95444 0.0
N11 N 0.52624 0.01031 0.9832 0.0
C12 C 0.4759 0.01837 0.95768 0.0
C13 C 0.45142 0.96883 0.94625 0.0
C14 C 0.48724 0.92795 0.96549 0.0
C15 C 0.53123 0.9547 0.98757 0.0
N16 N 0.62908 0.00448 0.04213 0.0
C17 C 0.62469 0.94989 0.03736 0.0
C18 C 0.66672 0.91856 0.06128 0.0
C19 C 0.70017 0.9553 0.08256 0.0
C20 C 0.67637 0.00712 0.07038 0.0
N21 N 0.52859 0.06142 0.05142 0.0
C22 C 0.45657 0.05549 0.10654 0.0
C23 C 0.48127 0.00801 0.09665 0.0
C24 C 0.51663 0.01184 0.06923 0.0
C25 C 0.46835 0.10608 0.08819 0.0
C26 C 0.50454 0.10816 0.06111 0.0
N27 N 0.62861 0.06832 0.97261 0.0
C28 C 0.67383 0.0231 0.92746 0.0
C29 C 0.70283 0.07119 0.91865 0.0
C30 C 0.69408 0.11797 0.93728 0.0
C31 C 0.65669 0.11581 0.96365 0.0
C32 C 0.63754 0.02252 0.95426 0.0
H33 H 0.65129 0.1532 0.97629 0.0
H34 H 0.6175 0.98425 0.95964 0.0
H35 H 0.53372 0.97404 0.06281 0.0
H36 H 0.51264 0.148 0.04843 0.0
C37 C 0.58096 0.20074 0.00976 0.0
C38 C 0.69964 0.05732 0.0871 0.0
C39 C 0.44936 0.07185 0.94371 0.0
C40 C 0.57814 0.92894 0.01234 0.0
H41 H 0.73248 0.16587 0.10855 0.0
H42 H 0.66728 0.24516 0.06665 0.0
H43 H 0.49348 0.25598 0.95354 0.0
H44 H 0.42051 0.18461 0.91825 0.0
H45 H 0.41154 0.96287 0.92626 0.0
H46 H 0.48166 0.88395 0.96382 0.0
H47 H 0.67177 0.87418 0.0635 0.0
H48 H 0.73752 0.94508 0.10483 0.0
H49 H 0.47291 0.96778 0.10976 0.0
H50 H 0.45065 0.14404 0.09522 0.0
H51 H 0.67956 0.9856 0.91399 0.0
H52 H 0.71509 0.15641 0.93101 0.0
C53 C 0.12171 0.48165 0.58493 0.0
C54 C 0.17305 0.4597 0.6062 0.0
C55 C 0.21614 0.48384 0.59032 0.0
C56 C 0.18882 0.519 0.56042 0.0
N57 N 0.13082 0.5189 0.55619 0.0
Co58 Co 0.07459 0.56493 0.51698 0.0
N59 N 0.1378 0.59747 0.49192 0.0
C60 C 0.1946 0.58512 0.50183 0.0
C61 C 0.22764 0.61349 0.47922 0.0
C62 C 0.18977 0.64582 0.45312 0.0
C63 C 0.13545 0.63511 0.46128 0.0
N64 N 0.01849 0.61248 0.47875 0.0
C65 C 0.02748 0.64948 0.44986 0.0
C66 C 0.9763 0.67366 0.43001 0.0
C67 C 0.93359 0.65184 0.44731 0.0
C68 C 0.96087 0.61557 0.4765 0.0
N69 N 0.01114 0.53067 0.54103 0.0
C70 C 0.95403 0.54089 0.53002 0.0
C71 C 0.92082 0.51001 0.55128 0.0
C72 C 0.95888 0.47761 0.57722 0.0
C73 C 0.01329 0.49077 0.57023 0.0
N74 N 0.08282 0.62454 0.55289 0.0
C75 C 0.09415 0.71072 0.60242 0.0
C76 C 0.04037 0.68851 0.58858 0.0
C77 C 0.03566 0.64606 0.56386 0.0
C78 C 0.1423 0.68863 0.59159 0.0
C79 C 0.13577 0.64565 0.56724 0.0
N80 N 0.06644 0.5055 0.48106 0.0
C81 C 0.00719 0.45322 0.43338 0.0
C82 C 0.05414 0.42056 0.43037 0.0
C83 C 0.10768 0.43194 0.45268 0.0
C84 C 0.11285 0.47431 0.47756 0.0
C85 C 0.01415 0.49477 0.4588 0.0
H86 H 0.15468 0.48062 0.49401 0.0
H87 H 0.9764 0.51737 0.4601 0.0
H88 H 0.99328 0.63192 0.55369 0.0
H89 H 0.17422 0.63055 0.56027 0.0
C90 C 0.21603 0.54945 0.53412 0.0
C91 C 0.06546 0.46369 0.5919 0.0
C92 C 0.08336 0.66328 0.44011 0.0
C93 C 0.93313 0.58111 0.50047 0.0
H94 H 0.17877 0.42868 0.63026 0.0
H95 H 0.26186 0.47573 0.59896 0.0
H96 H 0.27392 0.61174 0.4819 0.0
H97 H 0.20122 0.67464 0.43102 0.0
H98 H 0.97038 0.70374 0.40537 0.0
H99 H 0.88795 0.66066 0.43917 0.0
H100 H 0.87448 0.51106 0.54833 0.0
H101 H 0.94795 0.44764 0.59888 0.0
H102 H 1.00175 0.70494 0.59583 0.0
H103 H 0.18492 0.70448 0.60185 0.0
H104 H 0.9649 0.44661 0.41636 0.0
H105 H 0.14526 0.40733 0.45186 0.0
Mg106 Mg 0.12629 0.04509 0.28795 0.0
O107 O 0.03806 0.04251 0.24635 0.0
O108 O 0.97113 0.03283 0.28309 0.0
Mg109 Mg 0.01391 0.02776 0.34666 0.0
C110 C 0.98542 0.03822 0.25003 0.0
C111 C 0.22341 0.05087 0.24352 0.0
O112 O 0.24175 0.01912 0.27521 0.0
O113 O 0.10814 0.13411 0.30065 0.0
O114 O 0.04313 0.11659 0.33827 0.0
O115 O 0.13374 0.95196 0.29408 0.0
O116 O 0.09373 0.00104 0.33155 0.0
C117 C 0.07456 0.15018 0.32204 0.0
C118 C 0.10765 0.95347 0.32293 0.0
O119 O 0.17313 0.07171 0.23848 0.0
Mg120 Mg 0.03772 0.05685 0.74575 0.0
O121 O 0.13211 0.06301 0.77911 0.0
O122 O 0.18532 0.05285 0.7342 0.0
Mg123 Mg 0.13055 0.03492 0.67619 0.0
C124 C 0.18102 0.06124 0.76871 0.0
C125 C 0.94378 0.07455 0.78771 0.0
O126 O 0.9239 0.04864 0.75675 0.0
O127 O 0.04383 0.14333 0.71486 0.0
O128 O 0.0916 0.12123 0.66929 0.0
O129 O 0.0363 0.96451 0.75836 0.0
O130 O 0.06448 0.00591 0.7078 0.0
C131 C 0.06387 0.15575 0.68421 0.0
C132 C 0.0565 0.96065 0.72723 0.0
O133 O 0.99646 0.08878 0.79359 0.0
H134 H 0.35311 0.10646 0.10424 0.0
H135 H 0.47803 0.99604 0.17609 0.0
H136 H 0.41747 0.98595 0.22463 0.0
H137 H 0.32878 0.00663 0.24625 0.0
H138 H 0.20194 0.11578 0.17501 0.0
H139 H 0.26363 0.12853 0.12682 0.0
C140 C 0.36719 0.08062 0.1307 0.0
C141 C 0.41993 0.0518 0.13642 0.0
C142 C 0.33181 0.07466 0.15855 0.0
C143 C 0.43735 0.01805 0.1707 0.0
C144 C 0.40284 0.01242 0.19856 0.0
C145 C 0.31448 0.0334 0.22026 0.0
C146 C 0.26067 0.06016 0.21432 0.0
C147 C 0.34986 0.04017 0.19267 0.0
C148 C 0.24308 0.09461 0.18036 0.0
C149 C 0.27837 0.10191 0.15278 0.0
H150 H 0.03786 0.36458 0.56628 0.0
H151 H 0.08337 0.44754 0.67059 0.0
H152 H 0.08132 0.35951 0.70957 0.0
H153 H 0.07273 0.25732 0.71326 0.0
H154 H 0.03184 0.17607 0.60757 0.0
H155 H 0.0249 0.26466 0.56979 0.0
C156 C 0.04675 0.36311 0.59757 0.0
C157 C 0.0609 0.41166 0.61582 0.0
C158 C 0.04621 0.31266 0.61944 0.0
C159 C 0.07252 0.41009 0.65625 0.0
C160 C 0.07135 0.35993 0.67839 0.0
C161 C 0.06137 0.25939 0.68202 0.0
C162 C 0.05291 0.21047 0.66314 0.0
C163 C 0.05902 0.3107 0.66028 0.0
C164 C 0.03887 0.21334 0.62264 0.0
C165 C 0.03497 0.2639 0.60101 0.0
H166 H 0.81449 0.05703 0.08787 0.0
H167 H 0.68995 0.04875 0.16213 0.0
H168 H 0.7674 0.04117 0.2192 0.0
H169 H 0.86993 0.03725 0.24761 0.0
H170 H 0.99581 0.04616 0.17378 0.0
H171 H 0.91855 0.05299 0.11682 0.0
C172 C 0.80477 0.05363 0.11666 0.0
C173 C 0.74714 0.0535 0.12124 0.0
C174 C 0.84956 0.0493 0.14922 0.0
C175 C 0.73429 0.04901 0.15834 0.0
C176 C 0.77845 0.04463 0.1908 0.0
C177 C 0.88075 0.04052 0.21912 0.0
C178 C 0.93886 0.0411 0.21515 0.0
C179 C 0.83621 0.04472 0.18657 0.0
C180 C 0.95161 0.04556 0.17783 0.0
C181 C 0.90742 0.04953 0.1452 0.0
H182 H 0.04653 0.72423 0.66531 0.0
H183 H 0.15325 0.80506 0.59204 0.0
H184 H 0.15539 0.88807 0.62673 0.0
H185 H 0.1209 0.93954 0.67418 0.0
H186 H 0.01423 0.86028 0.748 0.0
H187 H 0.0188 0.77424 0.7172 0.0
C188 C 0.07047 0.76 0.65718 0.0
C189 C 0.09937 0.75877 0.62604 0.0
C190 C 0.07149 0.80767 0.67727 0.0
C191 C 0.13095 0.80497 0.61605 0.0
C192 C 0.13196 0.8525 0.63574 0.0
C193 C 0.09899 0.90357 0.68385 0.0
C194 C 0.06666 0.9067 0.71301 0.0
C195 C 0.10152 0.85461 0.66589 0.0
C196 C 0.03942 0.85903 0.72557 0.0
C197 C 0.0417 0.80993 0.7078 0.0
H198 H 0.43357 0.07384 0.86628 0.0
H199 H 0.34151 0.0747 0.95978 0.0
H200 H 0.24927 0.07359 0.91403 0.0
H201 H 0.19531 0.0689 0.84715 0.0
H202 H 0.2899 0.06727 0.75427 0.0
H203 H 0.38013 0.07231 0.79979 0.0
C204 C 0.39312 0.07421 0.87638 0.0
C205 C 0.39367 0.07445 0.91597 0.0
C206 C 0.34072 0.0732 0.85002 0.0
C207 C 0.34151 0.07466 0.9292 0.0
C208 C 0.28901 0.07391 0.90309 0.0
C209 C 0.2356 0.07 0.83684 0.0
C210 C 0.23534 0.06739 0.79719 0.0
C211 C 0.28804 0.07268 0.86337 0.0
C212 C 0.28829 0.06889 0.78452 0.0
C213 C 0.34023 0.0718 0.81056 0.0
H214 H 0.12618 0.38391 0.38534 0.0
H215 H 0.96448 0.34896 0.4215 0.0
H216 H 0.95317 0.26692 0.38601 0.0
H217 H 0.99262 0.20062 0.35029 0.0
H218 H 0.15685 0.2298 0.31683 0.0
H219 H 0.16329 0.31898 0.34518 0.0
C220 C 0.08848 0.35833 0.38541 0.0
C221 C 0.04632 0.37275 0.4062 0.0
C222 C 0.08265 0.31018 0.36545 0.0
C223 C 0.99726 0.33955 0.40541 0.0
C224 C 0.99087 0.29228 0.38531 0.0
C225 C 0.02969 0.22663 0.34877 0.0
C226 C 0.07457 0.20821 0.33193 0.0
C227 C 0.03377 0.27668 0.36596 0.0
C228 C 0.1217 0.24296 0.32964 0.0
C229 C 0.12561 0.29372 0.34616 0.0
H230 H 0.81161 0.11341 0.92352 0.0
H231 H 0.67834 0.03111 0.84803 0.0
H232 H 0.74036 0.02716 0.80076 0.0
H233 H 0.83272 0.04379 0.78167 0.0
H234 H 0.96859 0.12386 0.85652 0.0
H235 H 0.90515 0.13248 0.90306 0.0
C236 C 0.7961 0.09515 0.89653 0.0
C237 C 0.74049 0.07223 0.88943 0.0
C238 C 0.83244 0.09249 0.86944 0.0
C239 C 0.72113 0.04833 0.85445 0.0
C240 C 0.75652 0.04622 0.82733 0.0
C241 C 0.84867 0.06343 0.80805 0.0
C242 C 0.90553 0.08304 0.81555 0.0
C243 C 0.81236 0.06759 0.83469 0.0
C244 C 0.92509 0.10836 0.84997 0.0
C245 C 0.88881 0.11321 0.87662 0.0
H246 H 0.06303 0.76946 0.44894 0.0
H247 H 0.11356 0.66359 0.36929 0.0
H248 H 0.12405 0.74399 0.32466 0.0
H249 H 0.12141 0.84529 0.30968 0.0
H250 H 0.06831 0.94927 0.39012 0.0
H251 H 0.05525 0.86895 0.4326 0.0
C252 C 0.07597 0.76423 0.42164 0.0
C253 C 0.088 0.71129 0.41229 0.0
C254 C 0.08113 0.81027 0.39622 0.0
C255 C 0.10457 0.7044 0.37695 0.0
C256 C 0.11043 0.75022 0.35154 0.0
C257 C 0.10651 0.85022 0.33633 0.0
C258 C 0.09569 0.90333 0.3465 0.0
C259 C 0.0992 0.80352 0.36101 0.0
C260 C 0.07644 0.90901 0.38121 0.0
C261 C 0.06926 0.86305 0.40579 0.0
loop_
_geom_bond_atom_site_label_1
_geom_bond_atom_site_label_2
_geom_bond_distance
_geom_bond_site_symmetry_2
_ccdc_geom_bond_type
C0 C1 1.443 . S
C0 N4 1.376 . S
C0 C38 1.389 . S
C1 C0 1.443 . S
C1 C2 1.340 . S
C1 H41 0.951 . S
C2 C1 1.340 . S
C2 C3 1.439 . S
C2 H42 0.950 . S
C3 C2 1.439 . S
C3 N4 1.374 . S
C3 C37 1.395 . S
N4 C0 1.376 . S
N4 C3 1.374 . S
N4 Co5 2.008 . S
Co5 N4 2.008 . S
Co5 N6 1.995 1_554 S
Co5 N11 2.008 1_544 S
Co5 N16 1.995 1_545 S
Co5 N21 2.282 . S
Co5 N27 2.282 1_554 S
N6 Co5 1.995 1_556 S
N6 C7 1.376 . S
N6 C10 1.383 . S
C7 N6 1.376 . S
C7 C8 1.446 . S
C7 C37 1.391 1_556 S
C8 C7 1.446 . S
C8 C9 1.339 . S
C8 H43 0.949 . S
C9 C8 1.339 . S
C9 C10 1.439 . S
C9 H44 0.950 . S
C10 N6 1.383 . S
C10 C9 1.439 . S
C10 C39 1.392 . S
N11 Co5 2.008 1_566 S
N11 C12 1.376 1_565 S
N11 C15 1.374 . S
C12 N11 1.376 1_545 S
C12 C13 1.443 1_545 S
C12 C39 1.389 . S
C13 C12 1.443 1_565 S
C13 C14 1.340 . S
C13 H45 0.951 . S
C14 C13 1.340 . S
C14 C15 1.439 . S
C14 H46 0.950 . S
C15 N11 1.374 . S
C15 C14 1.439 . S
C15 C40 1.395 1_556 S
N16 Co5 1.995 1_565 S
N16 C17 1.376 . S
N16 C20 1.383 1_565 S
C17 N16 1.376 . S
C17 C18 1.446 . S
C17 C40 1.391 . S
C18 C17 1.446 . S
C18 C19 1.339 . S
C18 H47 0.949 . S
C19 C18 1.339 . S
C19 C20 1.439 1_565 S
C19 H48 0.950 . S
C20 N16 1.383 1_545 S
C20 C19 1.439 1_545 S
C20 C38 1.392 . S
N21 Co5 2.282 . S
N21 C24 1.332 . S
N21 C26 1.332 . S
C22 C23 1.386 . S
C22 C25 1.388 . S
C23 C22 1.386 . S
C23 C24 1.382 . S
C23 H49 0.950 1_545 S
C24 N21 1.332 . S
C24 C23 1.382 . S
C24 H35 0.952 1_545 S
C25 C22 1.388 . S
C25 C26 1.382 . S
C25 H50 0.950 . S
C26 N21 1.332 . S
C26 C25 1.382 . S
C26 H36 0.948 . S
N27 Co5 2.282 1_556 S
N27 C31 1.332 . S
N27 C32 1.332 . S
C28 C29 1.388 . S
C28 C32 1.382 . S
C28 H51 0.950 1_545 S
C29 C28 1.388 . S
C29 C30 1.386 . S
C30 C29 1.386 . S
C30 C31 1.382 . S
C30 H52 0.950 . S
C31 N27 1.332 . S
C31 C30 1.382 . S
C31 H33 0.952 . S
C32 N27 1.332 . S
C32 C28 1.382 . S
C32 H34 0.948 1_545 S
H33 C31 0.952 . S
H34 C32 0.948 1_565 S
H35 C24 0.952 1_565 S
H36 C26 0.948 . S
C37 C3 1.395 . S
C37 C7 1.391 1_554 S
C38 C0 1.389 . S
C38 C20 1.392 . S
C39 C10 1.392 . S
C39 C12 1.389 . S
C40 C15 1.395 1_554 S
C40 C17 1.391 . S
H41 C1 0.951 . S
H42 C2 0.950 . S
H43 C8 0.949 . S
H44 C9 0.950 . S
H45 C13 0.951 . S
H46 C14 0.950 . S
H47 C18 0.949 . S
H48 C19 0.950 . S
H49 C23 0.950 1_565 S
H50 C25 0.950 . S
H51 C28 0.950 1_565 S
H52 C30 0.950 . S
C53 C54 1.443 . S
C53 N57 1.376 . S
C53 C91 1.389 . S
C54 C53 1.443 . S
C54 C55 1.340 . S
C54 H94 0.951 . S
C55 C54 1.340 . S
C55 C56 1.439 . S
C55 H95 0.950 . S
C56 C55 1.439 . S
C56 N57 1.374 . S
C56 C90 1.395 . S
N57 C53 1.376 . S
N57 C56 1.374 . S
N57 Co58 2.008 . S
Co58 N57 2.008 . S
Co58 N59 1.995 . S
Co58 N64 2.008 . S
Co58 N69 1.995 . S
Co58 N74 2.282 . S
Co58 N80 2.282 . S
N59 Co58 1.995 . S
N59 C60 1.376 . S
N59 C63 1.383 . S
C60 N59 1.376 . S
C60 C61 1.446 . S
C60 C90 1.391 . S
C61 C60 1.446 . S
C61 C62 1.339 . S
C61 H96 0.949 . S
C62 C61 1.339 . S
C62 C63 1.439 . S
C62 H97 0.950 . S
C63 N59 1.383 . S
C63 C62 1.439 . S
C63 C92 1.392 . S
N64 Co58 2.008 . S
N64 C65 1.376 . S
N64 C68 1.374 1_455 S
C65 N64 1.376 . S
C65 C66 1.443 1_455 S
C65 C92 1.389 . S
C66 C65 1.443 1_655 S
C66 C67 1.340 . S
C66 H98 0.951 . S
C67 C66 1.340 . S
C67 C68 1.439 . S
C67 H99 0.950 . S
C68 N64 1.374 1_655 S
C68 C67 1.439 . S
C68 C93 1.395 . S
N69 Co58 1.995 . S
N69 C70 1.376 1_455 S
N69 C73 1.383 . S
C70 N69 1.376 1_655 S
C70 C71 1.446 . S
C70 C93 1.391 . S
C71 C70 1.446 . S
C71 C72 1.339 . S
C71 H100 0.949 . S
C72 C71 1.339 . S
C72 C73 1.439 1_655 S
C72 H101 0.950 . S
C73 N69 1.383 . S
C73 C72 1.439 1_455 S
C73 C91 1.392 . S
N74 Co58 2.282 . S
N74 C77 1.332 . S
N74 C79 1.332 . S
C75 C76 1.386 . S
C75 C78 1.388 . S
C76 C75 1.386 . S
C76 C77 1.382 . S
C76 H102 0.950 1_455 S
C77 N74 1.332 . S
C77 C76 1.382 . S
C77 H88 0.952 1_455 S
C78 C75 1.388 . S
C78 C79 1.382 . S
C78 H103 0.950 . S
C79 N74 1.332 . S
C79 C78 1.382 . S
C79 H89 0.948 . S
N80 Co58 2.282 . S
N80 C84 1.332 . S
N80 C85 1.332 . S
C81 C82 1.388 . S
C81 C85 1.382 . S
C81 H104 0.950 1_455 S
C82 C81 1.388 . S
C82 C83 1.386 . S
C83 C82 1.386 . S
C83 C84 1.382 . S
C83 H105 0.950 . S
C84 N80 1.332 . S
C84 C83 1.382 . S
C84 H86 0.952 . S
C85 N80 1.332 . S
C85 C81 1.382 . S
C85 H87 0.948 1_455 S
H86 C84 0.952 . S
H87 C85 0.948 1_655 S
H88 C77 0.952 1_655 S
H89 C79 0.948 . S
C90 C56 1.395 . S
C90 C60 1.391 . S
C91 C53 1.389 . S
C91 C73 1.392 . S
C92 C63 1.392 . S
C92 C65 1.389 . S
C93 C68 1.395 . S
C93 C70 1.391 . S
H94 C54 0.951 . S
H95 C55 0.950 . S
H96 C61 0.949 . S
H97 C62 0.950 . S
H98 C66 0.951 . S
H99 C67 0.950 . S
H100 C71 0.949 . S
H101 C72 0.950 . S
H102 C76 0.950 1_655 S
H103 C78 0.950 . S
H104 C81 0.950 1_655 S
H105 C83 0.950 . S
Mg106 O107 2.028 . S
Mg106 O113 1.986 . S
Mg106 O115 2.114 1_545 S
Mg106 O116 2.251 . S
Mg106 O119 2.010 . S
O107 Mg106 2.028 . S
O107 C110 1.250 1_455 S
O108 Mg109 2.028 . S
O108 C110 1.248 . S
Mg109 O108 2.028 . S
Mg109 O114 2.032 1_655 S
Mg109 O116 2.079 1_655 S
C110 O107 1.250 1_655 S
C110 O108 1.248 . S
C111 O112 1.264 . S
C111 O119 1.249 . S
O112 C111 1.264 . S
O113 Mg106 1.986 . S
O113 C117 1.246 . S
O114 Mg109 2.032 1_455 S
O114 C117 1.259 . S
O115 Mg106 2.114 1_565 S
O115 C118 1.252 . S
O116 Mg106 2.251 . S
O116 Mg109 2.079 1_455 S
O116 C118 1.273 1_545 S
C117 O113 1.246 . S
C117 O114 1.259 . S
C118 O115 1.252 . S
C118 O116 1.273 1_565 S
O119 Mg106 2.010 . S
O119 C111 1.249 . S
Mg120 O121 2.028 . S
Mg120 O127 1.986 . S
Mg120 O129 2.114 1_545 S
Mg120 O130 2.251 . S
Mg120 O133 2.010 1_455 S
O121 Mg120 2.028 . S
O121 C124 1.250 . S
O122 Mg123 2.028 . S
O122 C124 1.248 . S
Mg123 O122 2.028 . S
Mg123 O128 2.032 . S
Mg123 O130 2.079 . S
C124 O121 1.250 . S
C124 O122 1.248 . S
C125 O126 1.264 . S
C125 O133 1.249 . S
O126 C125 1.264 . S
O127 Mg120 1.986 . S
O127 C131 1.246 . S
O128 Mg123 2.032 . S
O128 C131 1.259 . S
O129 Mg120 2.114 1_565 S
O129 C132 1.252 . S
O130 Mg120 2.251 . S
O130 Mg123 2.079 . S
O130 C132 1.273 1_545 S
C131 O127 1.246 . S
C131 O128 1.259 . S
C132 O129 1.252 . S
C132 O130 1.273 1_565 S
O133 Mg120 2.010 1_655 S
O133 C125 1.249 . S
H134 C140 0.930 . S
H135 C143 0.930 . S
H136 C144 0.930 . S
H137 C145 0.930 . S
H138 C148 0.930 . S
H139 C149 0.930 . S
C140 H134 0.930 . S
C140 C141 1.355 . S
C140 C142 1.415 . S
C141 C140 1.355 . S
C141 C143 1.419 . S
C142 C140 1.415 . S
C142 C147 1.425 . S
C142 C149 1.409 . S
C143 H135 0.930 . S
C143 C141 1.419 . S
C143 C144 1.362 . S
C144 H136 0.930 . S
C144 C143 1.362 . S
C144 C147 1.409 . S
C145 H137 0.930 . S
C145 C146 1.355 . S
C145 C147 1.415 . S
C146 C145 1.355 . S
C146 C148 1.419 . S
C147 C142 1.425 . S
C147 C144 1.409 . S
C147 C145 1.415 . S
C148 H138 0.930 . S
C148 C146 1.419 . S
C148 C149 1.362 . S
C149 H139 0.930 . S
C149 C142 1.409 . S
C149 C148 1.362 . S
H150 C156 0.930 1_655 S
H151 C159 0.930 . S
H152 C160 0.930 . S
H153 C161 0.930 . S
H154 C164 0.930 1_655 S
H155 C165 0.930 . S
C156 H150 0.930 1_455 S
C156 C157 1.355 . S
C156 C158 1.415 . S
C157 C156 1.355 . S
C157 C159 1.419 . S
C158 C156 1.415 . S
C158 C163 1.425 . S
C158 C165 1.409 1_455 S
C159 H151 0.930 . S
C159 C157 1.419 . S
C159 C160 1.362 . S
C160 H152 0.930 . S
C160 C159 1.362 . S
C160 C163 1.409 . S
C161 H153 0.930 . S
C161 C162 1.355 . S
C161 C163 1.415 . S
C162 C161 1.355 . S
C162 C164 1.419 . S
C163 C158 1.425 . S
C163 C160 1.409 . S
C163 C161 1.415 . S
C164 H154 0.930 1_455 S
C164 C162 1.419 . S
C164 C165 1.362 1_455 S
C165 H155 0.930 . S
C165 C158 1.409 1_655 S
C165 C164 1.362 1_655 S
H166 C172 0.930 . S
H167 C175 0.930 . S
H168 C176 0.930 . S
H169 C177 0.930 . S
H170 C180 0.930 . S
H171 C181 0.930 . S
C172 H166 0.930 . S
C172 C173 1.355 . S
C172 C174 1.415 . S
C173 C172 1.355 . S
C173 C175 1.419 . S
C174 C172 1.415 . S
C174 C179 1.425 . S
C174 C181 1.409 . S
C175 H167 0.930 . S
C175 C173 1.419 . S
C175 C176 1.362 . S
C176 H168 0.930 . S
C176 C175 1.362 . S
C176 C179 1.409 . S
C177 H169 0.930 . S
C177 C178 1.355 . S
C177 C179 1.415 . S
C178 C177 1.355 . S
C178 C180 1.419 . S
C179 C174 1.425 . S
C179 C176 1.409 . S
C179 C177 1.415 . S
C180 H170 0.930 . S
C180 C178 1.419 . S
C180 C181 1.362 . S
C181 H171 0.930 . S
C181 C174 1.409 . S
C181 C180 1.362 . S
H182 C188 0.930 . S
H183 C191 0.930 1_655 S
H184 C192 0.930 1_655 S
H185 C193 0.930 . S
H186 C196 0.930 . S
H187 C197 0.930 . S
C188 H182 0.930 . S
C188 C189 1.355 . S
C188 C190 1.415 . S
C189 C188 1.355 . S
C189 C191 1.419 . S
C190 C188 1.415 . S
C190 C195 1.425 . S
C190 C197 1.409 . S
C191 H183 0.930 1_455 S
C191 C189 1.419 . S
C191 C192 1.362 . S
C192 H184 0.930 1_455 S
C192 C191 1.362 . S
C192 C195 1.409 . S
C193 H185 0.930 . S
C193 C194 1.355 . S
C193 C195 1.415 . S
C194 C193 1.355 . S
C194 C196 1.419 . S
C195 C190 1.425 . S
C195 C192 1.409 . S
C195 C193 1.415 . S
C196 H186 0.930 . S
C196 C194 1.419 . S
C196 C197 1.362 . S
C197 H187 0.930 . S
C197 C190 1.409 . S
C197 C196 1.362 . S
H198 C204 0.930 1_565 S
H199 C207 0.930 . S
H200 C208 0.930 . S
H201 C209 0.930 . S
H202 C212 0.930 1_565 S
H203 C213 0.930 1_565 S
C204 H198 0.930 1_545 S
C204 C205 1.355 . S
C204 C206 1.415 . S
C205 C204 1.355 . S
C205 C207 1.419 . S
C206 C204 1.415 . S
C206 C211 1.425 . S
C206 C213 1.409 . S
C207 H199 0.930 . S
C207 C205 1.419 . S
C207 C208 1.362 . S
C208 H200 0.930 . S
C208 C207 1.362 . S
C208 C211 1.409 . S
C209 H201 0.930 . S
C209 C210 1.355 . S
C209 C211 1.415 . S
C210 C209 1.355 . S
C210 C212 1.419 . S
C211 C206 1.425 . S
C211 C208 1.409 . S
C211 C209 1.415 . S
C212 H202 0.930 1_545 S
C212 C210 1.419 . S
C212 C213 1.362 . S
C213 H203 0.930 1_545 S
C213 C206 1.409 . S
C213 C212 1.362 . S
H214 C220 0.930 . S
H215 C223 0.930 . S
H216 C224 0.943 . S
H217 C225 0.930 . S
H218 C228 0.930 . S
H219 C229 0.930 . S
C220 H214 0.930 . S
C220 C221 1.355 . S
C220 C222 1.415 . S
C221 C220 1.355 . S
C221 C223 1.419 . S
C222 C220 1.415 . S
C222 C227 1.425 . S
C222 C229 1.409 . S
C223 H215 0.930 . S
C223 C221 1.419 . S
C223 C224 1.362 . S
C224 H216 0.943 . S
C224 C223 1.362 . S
C224 C227 1.409 . S
C225 H217 0.930 . S
C225 C226 1.355 . S
C225 C227 1.415 . S
C226 C225 1.355 . S
C226 C228 1.419 . S
C227 C222 1.425 . S
C227 C224 1.409 . S
C227 C225 1.415 . S
C228 H218 0.930 . S
C228 C226 1.419 . S
C228 C229 1.362 . S
C229 H219 0.930 . S
C229 C222 1.409 . S
C229 C228 1.362 . S
H230 C236 0.930 . S
H231 C239 0.930 . S
H232 C240 0.930 . S
H233 C241 0.930 . S
H234 C244 0.930 . S
H235 C245 0.930 . S
C236 H230 0.930 . S
C236 C237 1.355 . S
C236 C238 1.415 . S
C237 C236 1.355 . S
C237 C239 1.419 . S
C238 C236 1.415 . S
C238 C243 1.425 . S
C238 C245 1.409 . S
C239 H231 0.930 . S
C239 C237 1.419 . S
C239 C240 1.362 . S
C240 H232 0.930 . S
C240 C239 1.362 . S
C240 C243 1.409 . S
C241 H233 0.930 . S
C241 C242 1.355 . S
C241 C243 1.415 . S
C242 C241 1.355 . S
C242 C244 1.419 . S
C243 C238 1.425 . S
C243 C240 1.409 . S
C243 C241 1.415 . S
C244 H234 0.930 . S
C244 C242 1.419 . S
C244 C245 1.362 . S
C245 H235 0.930 . S
C245 C238 1.409 . S
C245 C244 1.362 . S
H246 C252 0.930 . S
H247 C255 0.930 . S
H248 C256 0.930 . S
H249 C257 0.930 . S
H250 C260 0.930 . S
H251 C261 0.930 . S
C252 H246 0.930 . S
C252 C253 1.355 . S
C252 C254 1.415 . S
C253 C252 1.355 . S
C253 C255 1.419 . S
C254 C252 1.415 . S
C254 C259 1.425 . S
C254 C261 1.409 . S
C255 H247 0.930 . S
C255 C253 1.419 . S
C255 C256 1.362 . S
C256 H248 0.930 . S
C256 C255 1.362 . S
C256 C259 1.409 . S
C257 H249 0.930 . S
C257 C258 1.355 . S
C257 C259 1.415 . S
C258 C257 1.355 . S
C258 C260 1.419 . S
C259 C254 1.425 . S
C259 C256 1.409 . S
C259 C257 1.415 . S
C260 H250 0.930 . S
C260 C258 1.419 . S
C260 C261 1.362 . S
C261 H251 0.930 . S
C261 C254 1.409 . S
C261 C260 1.362 . S
C146 C111 1.327 . S
C141 C22 1.491 . S
C162 C131 1.474 . S
C157 C91 1.487 . S
C178 C110 1.484 . S
C173 C38 1.492 . S
C194 C132 1.502 . S
C189 C75 1.501 . S
C210 C124 1.455 . S
C205 C39 1.494 . S
C226 C117 1.488 . S
C221 C82 1.488 . S
C242 C125 1.328 . S
C237 C29 1.492 . S
C253 C92 1.494 . S
C258 C118 1.498 . S
