# Generated by pormake.
# Topology soc, (4,6)-cn, num edge types: 1
# Building blocks:
#     Node 0, Type 0, BuildingBlock: ESEHIV_clean_sbu_0, # of connection points: 4
#     Node 1, Type 0, BuildingBlock: ESEHIV_clean_sbu_0, # of connection points: 4
#     Node 2, Type 0, BuildingBlock: ESEHIV_clean_sbu_0, # of connection points: 4
#     Node 3, Type 0, BuildingBlock: ESEHIV_clean_sbu_0, # of connection points: 4
#     Node 4, Type 0, BuildingBlock: ESEHIV_clean_sbu_0, # of connection points: 4
#     Node 5, Type 0, BuildingBlock: ESEHIV_clean_sbu_0, # of connection points: 4
#     Node 6, Type 0, BuildingBlock: ESEHIV_clean_sbu_0, # of connection points: 4
#     Node 7, Type 0, BuildingBlock: ESEHIV_clean_sbu_0, # of connection points: 4
#     Node 8, Type 0, BuildingBlock: ESEHIV_clean_sbu_0, # of connection points: 4
#     Node 9, Type 0, BuildingBlock: ESEHIV_clean_sbu_0, # of connection points: 4
#     Node 10, Type 0, BuildingBlock: ESEHIV_clean_sbu_0, # of connection points: 4
#     Node 11, Type 0, BuildingBlock: ESEHIV_clean_sbu_0, # of connection points: 4
#     Node 12, Type 1, BuildingBlock: BETDAH_clean_sbu_0, # of connection points: 6
#     Node 13, Type 1, BuildingBlock: BETDAH_clean_sbu_0, # of connection points: 6
#     Node 14, Type 1, BuildingBlock: BETDAH_clean_sbu_0, # of connection points: 6
#     Node 15, Type 1, BuildingBlock: BETDAH_clean_sbu_0, # of connection points: 6
#     Node 16, Type 1, BuildingBlock: BETDAH_clean_sbu_0, # of connection points: 6
#     Node 17, Type 1, BuildingBlock: BETDAH_clean_sbu_0, # of connection points: 6
#     Node 18, Type 1, BuildingBlock: BETDAH_clean_sbu_0, # of connection points: 6
#     Node 19, Type 1, BuildingBlock: BETDAH_clean_sbu_0, # of connection points: 6
#     Edge 20, Type (0, 1), BuildingBlock: OJICUG_clean_linker_0, # of connection points: 2
#     Edge 21, Type (0, 1), BuildingBlock: OJICUG_clean_linker_0, # of connection points: 2
#     Edge 22, Type (0, 1), BuildingBlock: OJICUG_clean_linker_0, # of connection points: 2
#     Edge 23, Type (0, 1), BuildingBlock: OJICUG_clean_linker_0, # of connection points: 2
#     Edge 24, Type (0, 1), BuildingBlock: OJICUG_clean_linker_0, # of connection points: 2
#     Edge 25, Type (0, 1), BuildingBlock: OJICUG_clean_linker_0, # of connection points: 2
#     Edge 26, Type (0, 1), BuildingBlock: OJICUG_clean_linker_0, # of connection points: 2
#     Edge 27, Type (0, 1), BuildingBlock: OJICUG_clean_linker_0, # of connection points: 2
#     Edge 28, Type (0, 1), BuildingBlock: OJICUG_clean_linker_0, # of connection points: 2
#     Edge 29, Type (0, 1), BuildingBlock: OJICUG_clean_linker_0, # of connection points: 2
#     Edge 30, Type (0, 1), BuildingBlock: OJICUG_clean_linker_0, # of connection points: 2
#     Edge 31, Type (0, 1), BuildingBlock: OJICUG_clean_linker_0, # of connection points: 2
#     Edge 32, Type (0, 1), BuildingBlock: OJICUG_clean_linker_0, # of connection points: 2
#     Edge 33, Type (0, 1), BuildingBlock: OJICUG_clean_linker_0, # of connection points: 2
#     Edge 34, Type (0, 1), BuildingBlock: OJICUG_clean_linker_0, # of connection points: 2
#     Edge 35, Type (0, 1), BuildingBlock: OJICUG_clean_linker_0, # of connection points: 2
#     Edge 36, Type (0, 1), BuildingBlock: OJICUG_clean_linker_0, # of connection points: 2
#     Edge 37, Type (0, 1), BuildingBlock: OJICUG_clean_linker_0, # of connection points: 2
#     Edge 38, Type (0, 1), BuildingBlock: OJICUG_clean_linker_0, # of connection points: 2
#     Edge 39, Type (0, 1), BuildingBlock: OJICUG_clean_linker_0, # of connection points: 2
#     Edge 40, Type (0, 1), BuildingBlock: OJICUG_clean_linker_0, # of connection points: 2
#     Edge 41, Type (0, 1), BuildingBlock: OJICUG_clean_linker_0, # of connection points: 2
#     Edge 42, Type (0, 1), BuildingBlock: OJICUG_clean_linker_0, # of connection points: 2
#     Edge 43, Type (0, 1), BuildingBlock: OJICUG_clean_linker_0, # of connection points: 2
#     Edge 44, Type (0, 1), BuildingBlock: OJICUG_clean_linker_0, # of connection points: 2
#     Edge 45, Type (0, 1), BuildingBlock: OJICUG_clean_linker_0, # of connection points: 2
#     Edge 46, Type (0, 1), BuildingBlock: OJICUG_clean_linker_0, # of connection points: 2
#     Edge 47, Type (0, 1), BuildingBlock: OJICUG_clean_linker_0, # of connection points: 2
#     Edge 48, Type (0, 1), BuildingBlock: OJICUG_clean_linker_0, # of connection points: 2
#     Edge 49, Type (0, 1), BuildingBlock: OJICUG_clean_linker_0, # of connection points: 2
#     Edge 50, Type (0, 1), BuildingBlock: OJICUG_clean_linker_0, # of connection points: 2
#     Edge 51, Type (0, 1), BuildingBlock: OJICUG_clean_linker_0, # of connection points: 2
#     Edge 52, Type (0, 1), BuildingBlock: OJICUG_clean_linker_0, # of connection points: 2
#     Edge 53, Type (0, 1), BuildingBlock: OJICUG_clean_linker_0, # of connection points: 2
#     Edge 54, Type (0, 1), BuildingBlock: OJICUG_clean_linker_0, # of connection points: 2
#     Edge 55, Type (0, 1), BuildingBlock: OJICUG_clean_linker_0, # of connection points: 2
#     Edge 56, Type (0, 1), BuildingBlock: OJICUG_clean_linker_0, # of connection points: 2
#     Edge 57, Type (0, 1), BuildingBlock: OJICUG_clean_linker_0, # of connection points: 2
#     Edge 58, Type (0, 1), BuildingBlock: OJICUG_clean_linker_0, # of connection points: 2
#     Edge 59, Type (0, 1), BuildingBlock: OJICUG_clean_linker_0, # of connection points: 2
#     Edge 60, Type (0, 1), BuildingBlock: OJICUG_clean_linker_0, # of connection points: 2
#     Edge 61, Type (0, 1), BuildingBlock: OJICUG_clean_linker_0, # of connection points: 2
#     Edge 62, Type (0, 1), BuildingBlock: OJICUG_clean_linker_0, # of connection points: 2
#     Edge 63, Type (0, 1), BuildingBlock: OJICUG_clean_linker_0, # of connection points: 2
#     Edge 64, Type (0, 1), BuildingBlock: OJICUG_clean_linker_0, # of connection points: 2
#     Edge 65, Type (0, 1), BuildingBlock: OJICUG_clean_linker_0, # of connection points: 2
#     Edge 66, Type (0, 1), BuildingBlock: OJICUG_clean_linker_0, # of connection points: 2
#     Edge 67, Type (0, 1), BuildingBlock: OJICUG_clean_linker_0, # of connection points: 2
# Relax obj value: 0.228
# Max RMSD: 0.368
# Mean RMSD: 0.196
data_MOF--net-soc--node1-ESEHIV_clean_sbu_0--node2-BETDAH_clean_sbu_0--edge1-OJICUG_clean_linker_0
_symmetry_space_group_name_H-M    P1
_symmetry_Int_Tables_number       1
_symmetry_cell_setting            triclinic
loop_
_symmetry_equiv_pos_as_xyz
'x, y, z'
_cell_length_a     39.760667
_cell_length_b     38.838606
_cell_length_c     32.270658
_cell_angle_alpha  79.898263
_cell_angle_beta   80.051531
_cell_angle_gamma 64.034745
loop_
_atom_site_label
_atom_site_type_symbol
_atom_site_fract_x
_atom_site_fract_y
_atom_site_fract_z
_atom_type_partial_charge
Cu0 Cu 0.06831 0.05942 0.41135 0.0
N1 N 0.08906 0.0772 0.44528 0.0
N2 N 0.11528 0.11213 0.4629 0.0
C3 C 0.10226 0.10411 0.43165 0.0
C4 C 0.10874 0.09028 0.49798 0.0
C5 C 0.0923 0.06895 0.48705 0.0
O6 O 0.10861 0.02092 0.37713 0.0
C7 C 1.00384 0.11498 0.36337 0.0
O8 O 1.00243 0.08751 0.34612 0.0
H9 H 0.10218 0.11748 0.39927 0.0
H10 H 0.08316 0.04916 0.50824 0.0
N11 N 0.04506 0.0309 0.44534 0.0
N12 N 1.01543 0.99275 0.45288 0.0
C13 C 1.01691 0.02582 0.43383 0.0
C14 C 0.06148 1.00039 0.47363 0.0
C15 C 0.0429 0.97697 0.47876 0.0
C16 C 0.14205 0.01852 0.36918 0.0
O17 O 0.1485 0.0474 0.37561 0.0
H18 H 1.00056 0.04361 0.40857 0.0
H19 H 0.08805 0.9929 0.48515 0.0
O20 O 0.03023 0.10728 0.38579 0.0
H21 H 0.11594 0.08911 0.52918 0.0
H22 H 0.0519 0.94839 0.49593 0.0
Cu23 Cu 0.06285 0.06646 0.77201 0.0
N24 N 0.04539 0.04424 0.73891 0.0
N25 N 1.01187 0.01643 0.72187 0.0
C26 C 1.01879 0.03118 0.75262 0.0
C27 C 0.03516 0.02054 0.68747 0.0
C28 C 0.05565 0.03789 0.69803 0.0
O29 O 1.01882 0.10778 0.79837 0.0
C30 C 0.12699 1.00355 0.77897 0.0
O31 O 0.12405 0.01416 0.73836 0.0
H32 H 1.00465 0.03301 0.78449 0.0
H33 H 0.0768 0.04497 0.67749 0.0
N34 N 0.08973 0.09218 0.73921 0.0
N35 N 0.12611 0.12338 0.72929 0.0
C36 C 0.11469 0.09891 0.75562 0.0
C37 C 0.08556 0.11278 0.7007 0.0
C38 C 0.10779 0.13268 0.69475 0.0
C39 C 0.99849 0.13031 0.76961 0.0
O40 O 1.00839 0.121 0.73079 0.0
H41 H 0.1222 0.08828 0.7876 0.0
H42 H 0.06633 0.11492 0.67944 0.0
O43 O 0.10032 0.02366 0.80497 0.0
H44 H 0.03787 0.01109 0.65699 0.0
H45 H 0.10928 0.15342 0.66814 0.0
Cu46 Cu 0.31946 0.08962 0.12589 0.0
N47 N 0.27596 0.09286 0.10774 0.0
N48 N 0.24095 0.07034 0.08363 0.0
C49 C 0.26955 0.06195 0.10628 0.0
C50 C 0.22893 0.1082 0.06977 0.0
C51 C 0.25044 0.12212 0.08496 0.0
O52 O 0.34375 0.03558 0.15363 0.0
C53 C 0.33066 0.1437 0.0633 0.0
O54 O 0.30293 0.1658 0.08854 0.0
H55 H 0.28817 0.03296 0.11757 0.0
H56 H 0.24929 0.15078 0.07711 0.0
N57 N 0.30624 0.12398 0.16644 0.0
N58 N 0.30752 0.16302 0.20888 0.0
C59 C 0.32717 0.13921 0.17883 0.0
C60 C 0.27234 0.13915 0.18899 0.0
C61 C 0.27316 0.1629 0.21545 0.0
C62 C 0.32435 0.02595 0.18578 0.0
O63 O 0.2917 0.05245 0.19916 0.0
H64 H 0.35619 0.13258 0.1666 0.0
H65 H 0.24871 0.13313 0.18646 0.0
O66 O 0.34528 0.10724 0.07407 0.0
H67 H 0.2079 0.12404 0.048 0.0
H68 H 0.25029 0.1789 0.23789 0.0
Cu69 Cu 0.10818 0.31839 0.14864 0.0
N70 N 0.11642 0.35026 0.10174 0.0
N71 N 0.14541 0.36198 0.03867 0.0
C72 C 0.14373 0.33512 0.07057 0.0
C73 C 0.11804 0.3957 0.05039 0.0
C74 C 0.09998 0.38834 0.08942 0.0
O75 O 0.15104 0.30847 0.18097 0.0
C76 C 0.07935 0.26686 0.12528 0.0
O77 O 0.06765 0.25889 0.16484 0.0
H78 H 0.16227 0.30471 0.07163 0.0
H79 H 0.07649 0.4091 0.10721 0.0
N80 N 0.06253 0.34297 0.1819 0.0
N81 N 1.0057 0.35353 0.21723 0.0
C82 C 0.02921 0.34138 0.1819 0.0
C83 C 0.05944 0.35771 0.21778 0.0
C84 C 0.02465 0.36416 0.23958 0.0
C85 C 0.15765 0.2962 0.21967 0.0
O86 O 0.13755 0.27967 0.24402 0.0
H87 H 1.02275 0.33025 0.1574 0.0
H88 H 0.08197 0.36091 0.22884 0.0
O89 O 0.10329 0.28153 0.11724 0.0
H90 H 0.11111 0.42349 0.03177 0.0
H91 H 1.01521 0.37339 0.27093 0.0
Cu92 Cu 0.80942 0.02114 1.02506 0.0
N93 N 0.8352 0.04161 0.98148 0.0
N94 N 0.84344 0.09084 0.94077 0.0
C95 C 0.82102 0.08 0.97099 0.0
C96 C 0.87314 0.0576 0.93142 0.0
C97 C 0.86791 0.02709 0.95663 0.0
O98 O 0.78922 0.06133 0.06364 0.0
C99 C 0.79629 0.97597 0.97994 0.0
O100 O 0.83286 0.95831 0.98119 0.0
H101 H 0.79514 0.0998 0.98669 0.0
H102 H 0.88674 0.99681 0.9572 0.0
N103 N 0.83675 0.97676 0.05916 0.0
N104 N 0.84052 0.93546 0.11741 0.0
C105 C 0.81797 0.9615 0.08957 0.0
C106 C 0.87293 0.95914 0.0674 0.0
C107 C 0.87527 0.93367 0.10381 0.0
C108 C 0.81676 0.06552 0.07418 0.0
O109 O 0.85115 0.04196 0.06116 0.0
H110 H 0.78764 0.97183 0.09321 0.0
H111 H 0.89533 0.96628 0.05019 0.0
O112 O 0.77754 0.00681 0.99793 0.0
H113 H 0.89692 0.05544 0.90818 0.0
H114 H 0.9001 0.91652 0.12003 0.0
Cu115 Cu 0.03987 0.79848 1.02449 0.0
N116 N 1.00883 0.8128 0.98019 0.0
N117 N 0.96724 0.81635 0.93842 0.0
C118 C 0.97998 0.80395 0.97721 0.0
C119 C 0.98912 0.83316 0.9163 0.0
C120 C 1.01447 0.83088 0.94181 0.0
O121 O 1.0204 0.77276 0.07646 0.0
C122 C 0.10699 0.79958 0.97746 0.0
O123 O 0.0835 0.83608 0.97225 0.0
H124 H 0.96902 0.78823 1.00268 0.0
H125 H 0.03633 0.84074 0.93194 0.0
N126 N 0.03783 0.84056 0.04656 0.0
N127 N 0.06029 0.86772 0.08324 0.0
C128 C 0.06732 0.83661 0.06482 0.0
C129 C 1.01059 0.87557 0.05426 0.0
C130 C 0.02444 0.89236 0.07754 0.0
C131 C 0.98748 0.79352 0.09385 0.0
O132 O 0.96764 0.82702 0.07367 0.0
H133 H 0.0932 0.81055 0.06603 0.0
H134 H 0.98243 0.88744 0.04507 0.0
O135 O 0.09446 0.77552 0.99917 0.0
H136 H 0.98799 0.8449 0.88332 0.0
H137 H 1.0094 0.92001 0.08976 0.0
Cu138 Cu 0.56433 0.54767 0.91586 0.0
N139 N 0.58592 0.56591 0.94772 0.0
N140 N 0.61253 0.60148 0.96227 0.0
C141 C 0.60205 0.58996 0.93174 0.0
C142 C 0.60152 0.58492 0.99916 0.0
C143 C 0.58478 0.56315 0.99004 0.0
O144 O 0.60362 0.50817 0.88248 0.0
C145 C 0.50124 0.60027 0.86592 0.0
O146 O 0.505 0.57256 0.84483 0.0
H147 H 0.60433 0.60026 0.89846 0.0
H148 H 0.57159 0.54761 1.01277 0.0
N149 N 0.54106 0.52061 0.95184 0.0
N150 N 0.51035 0.48344 0.96316 0.0
C151 C 0.51322 0.51482 0.94081 0.0
C152 C 0.55596 0.49247 0.98299 0.0
C153 C 0.53664 0.46963 0.99046 0.0
C154 C 0.635 0.50831 0.86577 0.0
O155 O 0.63902 0.5406 0.86079 0.0
H156 H 0.49827 0.53069 0.91378 0.0
H157 H 0.58184 0.48609 0.99552 0.0
O158 O 0.52502 0.59425 0.89117 0.0
H159 H 0.60506 0.58842 0.03043 0.0
H160 H 0.54431 0.44252 1.01062 0.0
Cu161 Cu 0.5743 0.56851 0.26874 0.0
N162 N 0.55589 0.54489 0.23872 0.0
N163 N 0.52125 0.51658 0.22552 0.0
C164 C 0.52747 0.53465 0.25354 0.0
C165 C 0.547 0.51559 0.19177 0.0
C166 C 0.56819 0.53317 0.19997 0.0
O167 O 0.53066 0.60897 0.29694 0.0
C168 C 0.64098 0.50649 0.27433 0.0
O169 O 0.64072 0.51872 0.23376 0.0
H170 H 0.51189 0.54048 0.28437 0.0
H171 H 0.59128 0.53661 0.17936 0.0
N172 N 0.59821 0.59566 0.23268 0.0
N173 N 0.63122 0.63045 0.21615 0.0
C174 C 0.62133 0.60702 0.24616 0.0
C175 C 0.59365 0.6122 0.19242 0.0
C176 C 0.61397 0.63419 0.18219 0.0
C177 C 0.50909 0.63126 0.26908 0.0
O178 O 0.51813 0.62234 0.23008 0.0
H179 H 0.62964 0.59938 0.27794 0.0
H180 H 0.57589 0.60956 0.17244 0.0
O181 O 0.61329 0.52582 0.29992 0.0
H182 H 0.55109 0.5024 0.16339 0.0
H183 H 0.61576 0.65168 0.15257 0.0
Cu184 Cu 0.79012 0.61409 0.63027 0.0
N185 N 0.79933 0.63386 0.57421 0.0
N186 N 0.82042 0.65179 0.50925 0.0
C187 C 0.82972 0.63454 0.54847 0.0
C188 C 0.78323 0.66249 0.51058 0.0
C189 C 0.77039 0.6518 0.55044 0.0
O190 O 0.78179 0.65276 0.6678 0.0
C191 C 0.76126 0.57692 0.59526 0.0
O192 O 0.79609 0.56594 0.57734 0.0
H193 H 0.85758 0.62369 0.55831 0.0
H194 H 0.74148 0.65718 0.56173 0.0
N195 N 0.82717 0.56743 0.652 0.0
N196 N 0.84552 0.50993 0.69141 0.0
C197 C 0.82081 0.53562 0.6652 0.0
C198 C 0.85695 0.56178 0.67119 0.0
C199 C 0.86839 0.52628 0.69546 0.0
C200 C 0.80511 0.66825 0.6614 0.0
O201 O 0.83132 0.65938 0.62921 0.0
H202 H 0.79609 0.53298 0.65969 0.0
H203 H 0.86744 0.58327 0.6707 0.0
O204 O 0.74979 0.59955 0.62424 0.0
H205 H 0.76611 0.67919 0.48522 0.0
H206 H 0.89045 0.51447 0.7162 0.0
Cu207 Cu 0.60623 0.81242 0.63063 0.0
N208 N 0.61804 0.83889 0.5784 0.0
N209 N 0.65266 0.85009 0.51858 0.0
C210 C 0.65166 0.82579 0.55398 0.0
C211 C 0.61863 0.88034 0.52137 0.0
C212 C 0.59742 0.87339 0.55807 0.0
O213 O 0.64561 0.80688 0.66459 0.0
C214 C 0.60931 0.75721 0.58017 0.0
O215 O 0.63805 0.76044 0.5559 0.0
H216 H 0.67513 0.79872 0.56204 0.0
H217 H 0.56889 0.89215 0.56899 0.0
N218 N 0.55854 0.83825 0.66183 0.0
N219 N 0.50421 0.84448 0.70338 0.0
C220 C 0.52953 0.8274 0.6707 0.0
C221 C 0.55137 0.86289 0.69001 0.0
C222 C 0.51835 0.86689 0.71518 0.0
C223 C 0.65008 0.79671 0.70386 0.0
O224 O 0.62921 0.78099 0.72805 0.0
H225 H 0.52838 0.80555 0.65524 0.0
H226 H 0.57039 0.87484 0.69419 0.0
O227 O 0.60161 0.76738 0.61739 0.0
H228 H 0.60935 0.90528 0.49797 0.0
H229 H 0.50702 0.88377 0.74163 0.0
Cu230 Cu 0.31904 0.52266 0.5396 0.0
N231 N 0.34661 0.54396 0.49734 0.0
N232 N 0.35383 0.59378 0.4549 0.0
C233 C 0.34142 0.58131 0.49368 0.0
C234 C 0.36758 0.5629 0.43301 0.0
C235 C 0.36311 0.53242 0.45908 0.0
O236 O 0.29684 0.56203 0.57721 0.0
C237 C 0.30269 0.47897 0.49523 0.0
O238 O 0.33851 0.45772 0.49916 0.0
H239 H 0.32528 0.60035 0.51735 0.0
H240 H 0.36846 0.50501 0.4495 0.0
N241 N 0.34409 0.47791 0.57631 0.0
N242 N 0.35089 0.43515 0.6344 0.0
C243 C 0.32708 0.46743 0.61322 0.0
C244 C 0.37999 0.45128 0.57414 0.0
C245 C 0.38408 0.4246 0.60964 0.0
C246 C 0.3224 0.56142 0.59683 0.0
O247 O 0.35697 0.53503 0.59057 0.0
H248 H 0.29743 0.48251 0.6236 0.0
H249 H 0.40142 0.45095 0.54832 0.0
O250 O 0.28624 0.51097 0.51112 0.0
H251 H 0.37827 0.56289 0.39981 0.0
H252 H 0.40923 0.39875 0.61624 0.0
Cu253 Cu 0.52109 0.31701 0.53084 0.0
N254 N 0.56445 0.29717 0.49232 0.0
N255 N 0.62038 0.29001 0.45703 0.0
C256 C 0.59892 0.29525 0.49463 0.0
C257 C 0.59884 0.2889 0.42989 0.0
C258 C 0.56444 0.29371 0.45147 0.0
O259 O 0.53246 0.3506 0.56095 0.0
C260 C 0.47405 0.3084 0.48248 0.0
O261 O 0.49829 0.27281 0.49244 0.0
H262 H 0.60769 0.29948 0.52241 0.0
H263 H 0.54024 0.29779 0.43706 0.0
N264 N 0.51373 0.28084 0.57385 0.0
N265 N 0.48986 0.26018 0.63604 0.0
C266 C 0.48827 0.29095 0.60803 0.0
C267 C 0.53218 0.24222 0.58021 0.0
C268 C 0.51739 0.22938 0.61854 0.0
C269 C 0.55663 0.33202 0.58779 0.0
O270 O 0.56944 0.29436 0.59445 0.0
H271 H 0.46921 0.32055 0.61232 0.0
H272 H 0.55533 0.22481 0.55907 0.0
O273 O 0.47721 0.33555 0.49703 0.0
H274 H 0.60656 0.28744 0.39618 0.0
H275 H 0.52701 0.19983 0.63302 0.0
Ho276 Ho 0.29177 0.3052 0.38824 0.0
Ho277 Ho 0.32036 0.34695 0.30437 0.0
C278 C 0.33084 0.25981 0.30423 0.0
C279 C 0.25483 0.27544 0.4437 0.0
C280 C 0.23424 0.25204 0.44451 0.0
C281 C 0.20975 0.25969 0.41418 0.0
C282 C 0.19082 0.23651 0.41575 0.0
C283 C 0.1959 0.20573 0.44793 0.0
C284 C 0.22097 0.19783 0.47771 0.0
C285 C 0.24005 0.22081 0.47592 0.0
C286 C 0.35737 0.30857 0.39856 0.0
C287 C 0.27889 0.39277 0.38787 0.0
C288 C 0.35852 0.37665 0.25075 0.0
C289 C 0.37832 0.40068 0.25102 0.0
C290 C 0.39871 0.39629 0.2845 0.0
C291 C 0.4187 0.41863 0.28244 0.0
C292 C 0.41818 0.4458 0.24707 0.0
C293 C 0.39579 0.45151 0.21503 0.0
C294 C 0.37623 0.42899 0.21692 0.0
C295 C 0.25595 0.34225 0.2919 0.0
O296 O 0.31053 0.26211 0.34164 0.0
O297 O 0.34283 0.28652 0.28617 0.0
O298 O 0.29128 0.25778 0.43362 0.0
O299 O 0.23972 0.31131 0.42612 0.0
O300 O 0.33982 0.29234 0.42654 0.0
O301 O 0.33965 0.31987 0.36627 0.0
O302 O 0.30044 0.39037 0.35127 0.0
O303 O 0.26687 0.36597 0.40486 0.0
O304 O 0.32183 0.39397 0.25893 0.0
O305 O 0.37344 0.34099 0.269 0.0
O306 O 0.27301 0.36021 0.26561 0.0
O307 O 0.27246 0.33133 0.32539 0.0
H308 H 0.20485 0.2838 0.38977 0.0
H309 H 0.17151 0.24324 0.39252 0.0
H310 H 0.22587 0.17384 0.50236 0.0
H311 H 0.25928 0.21429 0.49919 0.0
H312 H 0.39986 0.37511 0.31166 0.0
H313 H 0.43566 0.41356 0.30765 0.0
H314 H 0.39395 0.47293 0.18799 0.0
H315 H 0.35985 0.4333 0.19135 0.0
Ho316 Ho 0.81969 0.33604 0.37767 0.0
Ho317 Ho 0.8202 0.28503 0.30987 0.0
C318 C 0.76064 0.29803 0.39317 0.0
C319 C 0.811 0.3822 0.43093 0.0
C320 C 0.78649 0.41042 0.46041 0.0
C321 C 0.75606 0.44462 0.44753 0.0
C322 C 0.73836 0.47409 0.47402 0.0
C323 C 0.75098 0.46995 0.51362 0.0
C324 C 0.78014 0.43468 0.52702 0.0
C325 C 0.79757 0.40533 0.50075 0.0
C326 C 0.87741 0.26466 0.37457 0.0
C327 C 0.87282 0.33182 0.29113 0.0
C328 C 0.83449 0.22586 0.27227 0.0
C329 C 0.82902 0.21059 0.23659 0.0
C330 C 0.85913 0.17823 0.22121 0.0
C331 C 0.85419 0.15888 0.19191 0.0
C332 C 0.81893 0.17151 0.17712 0.0
C333 C 0.7888 0.20457 0.19186 0.0
C334 C 0.79381 0.22405 0.2214 0.0
C335 C 0.76676 0.35867 0.29693 0.0
O336 O 0.76704 0.32706 0.40033 0.0
O337 O 0.78255 0.2739 0.36541 0.0
O338 O 0.81758 0.34586 0.44218 0.0
O339 O 0.80939 0.39272 0.3901 0.0
O340 O 0.88011 0.29405 0.38461 0.0
O341 O 0.84367 0.27385 0.36989 0.0
O342 O 0.86905 0.30087 0.28466 0.0
O343 O 0.85102 0.35424 0.3205 0.0
O344 O 0.80555 0.24008 0.30032 0.0
O345 O 0.85617 0.24424 0.26533 0.0
O346 O 0.77402 0.33196 0.27312 0.0
O347 O 0.78981 0.34445 0.32396 0.0
H348 H 0.74707 0.44929 0.4164 0.0
H349 H 0.71584 0.50068 0.46275 0.0
H350 H 0.79144 0.43049 0.55664 0.0
H351 H 0.82136 0.37942 0.51103 0.0
H352 H 0.88628 0.167 0.2331 0.0
H353 H 0.87786 0.13316 0.18187 0.0
H354 H 0.76143 0.21516 0.18076 0.0
H355 H 0.77005 0.2489 0.23313 0.0
Ho356 Ho 0.82247 0.78022 0.29826 0.0
Ho357 Ho 0.85188 0.82033 0.34323 0.0
C358 C 0.76992 0.82436 0.37648 0.0
C359 C 0.80787 0.7338 0.26382 0.0
C360 C 0.77626 0.7242 0.2621 0.0
C361 C 0.77428 0.69167 0.28734 0.0
C362 C 0.74778 0.67897 0.28184 0.0
C363 C 0.7231 0.69825 0.25062 0.0
C364 C 0.72366 0.73201 0.22697 0.0
C365 C 0.7501 0.74486 0.23261 0.0
C366 C 0.80238 0.85621 0.2697 0.0
C367 C 0.90175 0.78241 0.25732 0.0
C368 C 0.88038 0.85551 0.37588 0.0
C369 C 0.90569 0.87379 0.37558 0.0
C370 C 0.89525 0.91292 0.36102 0.0
C371 C 0.91535 0.93181 0.37046 0.0
C372 C 0.94568 0.91184 0.39495 0.0
C373 C 0.95726 0.87231 0.40739 0.0
C374 C 0.93743 0.85345 0.39777 0.0
C375 C 0.85389 0.75394 0.3863 0.0
O376 O 0.77985 0.79401 0.35608 0.0
O377 O 0.78978 0.84525 0.36835 0.0
O378 O 0.80595 0.76706 0.24478 0.0
O379 O 0.82173 0.7249 0.30001 0.0
O380 O 0.78004 0.83917 0.27357 0.0
O381 O 0.83304 0.83184 0.28161 0.0
O382 O 0.896 0.80605 0.28566 0.0
O383 O 0.87892 0.76555 0.25873 0.0
O384 O 0.89586 0.81814 0.37466 0.0
O385 O 0.84915 0.87401 0.35755 0.0
O386 O 0.84503 0.78492 0.40285 0.0
O387 O 0.86231 0.75871 0.34671 0.0
H388 H 0.79408 0.67517 0.31033 0.0
H389 H 0.7474 0.65333 0.30118 0.0
H390 H 0.70503 0.74737 0.2026 0.0
H391 H 0.75097 0.77004 0.21266 0.0
H392 H 0.87056 0.92934 0.34436 0.0
H393 H 0.90591 0.96244 0.36068 0.0
H394 H 0.98088 0.85627 0.42581 0.0
H395 H 0.94569 0.82337 0.40995 0.0
Ho396 Ho 0.29973 0.8175 0.31034 0.0
Ho397 Ho 0.35049 0.82522 0.36921 0.0
C398 C 0.33654 0.87903 0.27887 0.0
C399 C 0.24026 0.82468 0.28168 0.0
C400 C 0.21933 0.83755 0.24457 0.0
C401 C 0.18668 0.87218 0.24419 0.0
C402 C 0.16192 0.88158 0.21421 0.0
C403 C 0.16922 0.85637 0.18426 0.0
C404 C 0.20301 0.82268 0.18303 0.0
C405 C 0.22792 0.81328 0.21305 0.0
C406 C 0.37269 0.77012 0.28963 0.0
C407 C 0.3284 0.75142 0.38816 0.0
C408 C 0.39447 0.82539 0.41869 0.0
C409 C 0.42391 0.80451 0.44707 0.0
C410 C 0.45775 0.77388 0.43464 0.0
C411 C 0.48788 0.75963 0.45905 0.0
C412 C 0.48459 0.77582 0.49614 0.0
C413 C 0.44988 0.80509 0.50953 0.0
C414 C 0.41986 0.81929 0.48515 0.0
C415 C 0.27884 0.87988 0.36988 0.0
O416 O 0.31009 0.868 0.2748 0.0
O417 O 0.3595 0.86238 0.30921 0.0
O418 O 0.27157 0.79324 0.28096 0.0
O419 O 0.24166 0.85136 0.3002 0.0
O420 O 0.34541 0.77596 0.26835 0.0
O421 O 0.3597 0.7929 0.31749 0.0
O422 O 0.35114 0.76627 0.39505 0.0
O423 O 0.30237 0.7696 0.3618 0.0
O424 O 0.36061 0.82748 0.43212 0.0
O425 O 0.40388 0.82283 0.37787 0.0
O426 O 0.30756 0.88569 0.37382 0.0
O427 O 0.28917 0.8442 0.36863 0.0
H428 H 0.17926 0.89118 0.26841 0.0
H429 H 0.13638 0.90799 0.21541 0.0
H430 H 0.20921 0.80252 0.16045 0.0
H431 H 0.25277 0.78618 0.21282 0.0
H432 H 0.46146 0.76206 0.4053 0.0
H433 H 0.51415 0.73677 0.44819 0.0
H434 H 0.44652 0.81859 0.53754 0.0
H435 H 0.39403 0.84327 0.49495 0.0
Ho436 Ho 0.32039 0.81671 0.87949 0.0
Ho437 Ho 0.30667 0.7945 0.81115 0.0
C438 C 0.25282 0.79257 0.89802 0.0
C439 C 0.33038 0.85274 0.93267 0.0
C440 C 0.30584 0.88152 0.96086 0.0
C441 C 0.26892 0.90677 0.95245 0.0
C442 C 0.24752 0.93683 0.97727 0.0
C443 C 0.26274 0.94146 1.01097 0.0
C444 C 0.29894 0.91465 1.02052 0.0
C445 C 0.32033 0.88497 0.99554 0.0
C446 C 0.3633 0.73995 0.87372 0.0
C447 C 0.3738 0.81897 0.79143 0.0
C448 C 0.28992 0.76387 0.75823 0.0
C449 C 0.3044 0.74104 0.72298 0.0
C450 C 0.33934 0.70903 0.72172 0.0
C451 C 0.34754 0.68224 0.69364 0.0
C452 C 0.32044 0.68703 0.66756 0.0
C453 C 0.28737 0.72142 0.66617 0.0
C454 C 0.27959 0.74827 0.69359 0.0
C455 C 0.26595 0.87123 0.81471 0.0
O456 O 0.26477 0.81632 0.90835 0.0
O457 O 0.26928 0.77558 0.86343 0.0
O458 O 0.33053 0.81864 0.94253 0.0
O459 O 0.32931 0.86447 0.89223 0.0
O460 O 0.34666 0.75484 0.9085 0.0
O461 O 0.35712 0.7665 0.84381 0.0
O462 O 0.3621 0.79526 0.78019 0.0
O463 O 0.35743 0.83517 0.82668 0.0
O464 O 0.28757 0.79888 0.75099 0.0
O465 O 0.30069 0.74627 0.79518 0.0
O466 O 0.2874 0.85541 0.7822 0.0
O467 O 0.26963 0.84548 0.84563 0.0
H468 H 0.25726 0.90406 0.92586 0.0
H469 H 0.2197 0.95713 0.96935 0.0
H470 H 0.31168 0.91792 0.04579 0.0
H471 H 0.34876 0.86559 1.00233 0.0
H472 H 0.35903 0.70351 0.74409 0.0
H473 H 0.37388 0.65667 0.69443 0.0
H474 H 0.26563 0.72628 0.64693 0.0
H475 H 0.25259 0.77311 0.69429 0.0
Ho476 Ho 0.31553 0.27328 0.82643 0.0
Ho477 Ho 0.33987 0.3126 0.86816 0.0
C478 C 0.25616 0.32893 0.8935 0.0
C479 C 0.28834 0.23505 0.79581 0.0
C480 C 0.25791 0.22325 0.79665 0.0
C481 C 0.2579 0.18965 0.8211 0.0
C482 C 0.23329 0.1748 0.81429 0.0
C483 C 0.2089 0.19305 0.78246 0.0
C484 C 0.20794 0.22763 0.75956 0.0
C485 C 0.23203 0.2426 0.76671 0.0
C486 C 0.32092 0.33282 0.77272 0.0
C487 C 0.39712 0.26578 0.79501 0.0
C488 C 0.36915 0.34582 0.90356 0.0
C489 C 0.39593 0.36263 0.90136 0.0
C490 C 0.38787 0.40044 0.88268 0.0
C491 C 0.4092 0.4189 0.88966 0.0
C492 C 0.43854 0.3998 0.91559 0.0
C493 C 0.44791 0.3613 0.93212 0.0
C494 C 0.42671 0.34286 0.9251 0.0
C495 C 0.33599 0.24983 0.91825 0.0
O496 O 0.26622 0.29716 0.876 0.0
O497 O 0.27893 0.34599 0.88781 0.0
O498 O 0.27975 0.27164 0.78546 0.0
O499 O 0.31249 0.21902 0.82394 0.0
O500 O 0.32922 0.299 0.76345 0.0
O501 O 0.30807 0.33545 0.81174 0.0
O502 O 0.38613 0.29628 0.81493 0.0
O503 O 0.37683 0.24568 0.80176 0.0
O504 O 0.38302 0.3086 0.90303 0.0
O505 O 0.33896 0.36483 0.88393 0.0
O506 O 0.32279 0.28413 0.9287 0.0
O507 O 0.35009 0.24983 0.87988 0.0
H508 H 0.27787 0.174 0.8441 0.0
H509 H 0.23423 0.14842 0.83298 0.0
H510 H 0.19019 0.24211 0.73424 0.0
H511 H 0.2319 0.2682 0.74677 0.0
H512 H 0.364 0.41643 0.86464 0.0
H513 H 0.40143 0.44874 0.87676 0.0
H514 H 0.47077 0.34591 0.95172 0.0
H515 H 0.43313 0.31382 0.94026 0.0
Ho516 Ho 0.78982 0.31738 0.80867 0.0
Ho517 Ho 0.84553 0.3174 0.87222 0.0
C518 C 0.83147 0.37591 0.78641 0.0
C519 C 0.72935 0.32996 0.77689 0.0
C520 C 0.70655 0.33953 0.74109 0.0
C521 C 0.66964 0.36837 0.74472 0.0
C522 C 0.64437 0.3738 0.71629 0.0
C523 C 0.65533 0.3506 0.68317 0.0
C524 C 0.69296 0.32281 0.67823 0.0
C525 C 0.71825 0.31714 0.70705 0.0
C526 C 0.86322 0.27037 0.78761 0.0
C527 C 0.81868 0.24817 0.883 0.0
C528 C 0.89484 0.30655 0.92094 0.0
C529 C 0.92326 0.30027 0.94902 0.0
C530 C 0.95538 0.26519 0.95194 0.0
C531 C 0.98213 0.25881 0.97906 0.0
C532 C 0.9778 0.2878 1.00295 0.0
C533 C 0.94591 0.32325 0.99928 0.0
C534 C 0.91867 0.32925 0.97297 0.0
C535 C 0.77311 0.37113 0.87733 0.0
O536 O 0.80384 0.36763 0.77942 0.0
O537 O 0.85429 0.35681 0.81631 0.0
O538 O 0.75771 0.29605 0.78131 0.0
O539 O 0.73455 0.35722 0.79003 0.0
O540 O 0.83612 0.27642 0.76578 0.0
O541 O 0.84917 0.29227 0.81619 0.0
O542 O 0.84459 0.25913 0.88875 0.0
O543 O 0.79008 0.27025 0.86068 0.0
O544 O 0.85977 0.31343 0.93549 0.0
O545 O 0.90312 0.3049 0.87991 0.0
O546 O 0.80143 0.37642 0.88463 0.0
O547 O 0.78429 0.33654 0.87066 0.0
H548 H 0.6597 0.3857 0.77091 0.0
H549 H 0.61583 0.39565 0.72092 0.0
H550 H 0.70235 0.30412 0.65337 0.0
H551 H 0.74639 0.2943 0.70362 0.0
H552 H 0.95952 0.2425 0.93366 0.0
H553 H 1.00641 0.23128 0.9811 0.0
H554 H 0.94168 0.34605 1.01744 0.0
H555 H 0.89416 0.35662 0.97109 0.0
Ho556 Ho 0.78227 0.79993 0.86657 0.0
Ho557 Ho 0.81201 0.84589 0.78594 0.0
C558 C 0.81383 0.76262 0.77736 0.0
C559 C 0.74411 0.77283 0.92339 0.0
C560 C 0.72299 0.74968 0.92815 0.0
C561 C 0.70019 0.75316 0.89768 0.0
C562 C 0.6825 0.72851 0.90219 0.0
C563 C 0.68698 0.70085 0.93768 0.0
C564 C 0.70972 0.69761 0.96813 0.0
C565 C 0.72778 0.72181 0.96323 0.0
C566 C 0.85132 0.79477 0.87585 0.0
C567 C 0.77566 0.88514 0.87409 0.0
C568 C 0.85232 0.87434 0.73387 0.0
C569 C 0.87379 0.89672 0.735 0.0
C570 C 0.90198 0.88448 0.76206 0.0
C571 C 0.92185 0.90651 0.76207 0.0
C572 C 0.91421 0.94079 0.73457 0.0
C573 C 0.88561 0.95319 0.70802 0.0
C574 C 0.86557 0.93135 0.7083 0.0
C575 C 0.74473 0.84688 0.77477 0.0
O576 O 0.79485 0.76236 0.81542 0.0
O577 O 0.82835 0.78814 0.76255 0.0
O578 O 0.78027 0.75392 0.91272 0.0
O579 O 0.72938 0.80799 0.90382 0.0
O580 O 0.83379 0.77709 0.90152 0.0
O581 O 0.83202 0.81134 0.8451 0.0
O582 O 0.79491 0.88574 0.83625 0.0
O583 O 0.76415 0.85766 0.88978 0.0
O584 O 0.81576 0.89294 0.74221 0.0
O585 O 0.86579 0.83821 0.75103 0.0
O586 O 0.76231 0.86444 0.74854 0.0
O587 O 0.76268 0.83387 0.80698 0.0
H588 H 0.6958 0.77492 0.87081 0.0
H589 H 0.6648 0.73151 0.87853 0.0
H590 H 0.7138 0.6761 0.99545 0.0
H591 H 0.74574 0.71861 0.98671 0.0
H592 H 0.90923 0.85762 0.78252 0.0
H593 H 0.94405 0.89603 0.78254 0.0
H594 H 0.87884 0.97971 0.68685 0.0
H595 H 0.84379 0.94137 0.68733 0.0
C596 C 0.13736 0.15088 0.4946 0.0
C597 C 0.13439 0.13679 0.45882 0.0
H598 H 0.15897 0.18397 0.51903 0.0
C599 C 0.15136 0.14624 0.41912 0.0
H600 H 0.12421 0.14474 0.52548 0.0
C601 C 0.17105 0.16897 0.41542 0.0
C602 C 0.17441 0.18243 0.45137 0.0
H603 H 0.15029 0.13542 0.39093 0.0
H604 H 0.18436 0.17528 0.38462 0.0
C605 C 0.15726 0.17337 0.49092 0.0
C606 C 0.93711 0.16118 0.34977 0.0
C607 C 0.97195 0.15406 0.36254 0.0
H608 H 0.87946 0.20147 0.34439 0.0
C609 C 0.97514 0.18394 0.37831 0.0
H610 H 0.93345 0.13873 0.33798 0.0
C611 C 0.94447 0.21973 0.38151 0.0
C612 C 0.90954 0.22661 0.36963 0.0
H613 H 1.00131 0.17956 0.38882 0.0
H614 H 0.948 0.2419 0.39409 0.0
C615 C 0.90611 0.19704 0.35358 0.0
C616 C 0.99094 0.97876 0.39582 0.0
C617 C 0.997 0.97315 0.43869 0.0
H618 H 0.97025 0.96329 0.34836 0.0
C619 C 0.98658 0.94679 0.46687 0.0
H620 H 0.99981 0.99792 0.37294 0.0
C621 C 0.97002 0.92667 0.45256 0.0
C622 C 0.96376 0.93258 0.4098 0.0
H623 H 0.99106 0.94201 0.49994 0.0
H624 H 0.96165 0.90685 0.47503 0.0
C625 C 0.97432 0.95876 0.38156 0.0
C626 C 0.20961 0.98222 0.34425 0.0
C627 C 0.17485 0.98145 0.36047 0.0
H628 H 0.26908 0.95068 0.33363 0.0
C629 C 0.17374 0.94527 0.37394 0.0
H630 H 0.2116 0.00935 0.3333 0.0
C631 C 0.20731 0.911 0.37425 0.0
C632 C 0.24225 0.91263 0.3612 0.0
H633 H 0.14738 0.94367 0.38686 0.0
H634 H 0.20614 0.88382 0.38723 0.0
C635 C 0.24269 0.94842 0.34455 0.0
C636 C 0.18821 0.95111 0.75832 0.0
C637 C 0.16178 0.96983 0.79123 0.0
H638 H 0.24102 0.90694 0.7399 0.0
C639 C 0.17004 0.95612 0.83333 0.0
H640 H 0.18312 0.96023 0.72541 0.0
C641 C 0.2042 0.92409 0.84185 0.0
C642 C 0.23054 0.90612 0.8083 0.0
H643 H 0.15027 0.96992 0.85938 0.0
H644 H 0.20999 0.91345 0.87436 0.0
C645 C 0.22194 0.92024 0.76664 0.0
C646 C 0.13205 0.18093 0.74059 0.0
C647 C 0.14752 0.14095 0.74055 0.0
H648 H 0.13827 0.22871 0.75644 0.0
C649 C 0.1823 0.11785 0.7559 0.0
H650 H 0.1046 0.19889 0.73001 0.0
C651 C 0.20208 0.13467 0.77019 0.0
C652 C 0.18676 0.17487 0.77035 0.0
H653 H 0.19415 0.08681 0.7565 0.0
H654 H 0.2296 0.1162 0.78028 0.0
C655 C 0.15128 0.19777 0.75588 0.0
C656 C 0.94265 0.18538 0.74294 0.0
C657 C 0.96477 0.1668 0.77669 0.0
H658 H 0.89441 0.23256 0.72003 0.0
C659 C 0.95473 0.18448 0.81423 0.0
H660 H 0.9493 0.17305 0.71335 0.0
C661 C 0.92267 0.2198 0.81772 0.0
C662 C 0.90033 0.23729 0.7839 0.0
H663 H 0.97142 0.17111 0.8406 0.0
H664 H 0.91477 0.23262 0.8471 0.0
C665 C 0.91106 0.21988 0.74653 0.0
C666 C 0.97181 0.98639 0.76524 0.0
C667 C 0.98583 0.99914 0.72534 0.0
H668 H 0.93767 0.9585 0.79947 0.0
C669 C 0.97455 0.99402 0.68879 0.0
H670 H 0.97987 0.98957 0.79417 0.0
C671 C 0.95077 0.97572 0.69194 0.0
C672 C 0.9375 0.96229 0.73172 0.0
H673 H 0.98414 1.00395 0.65757 0.0
H674 H 0.94353 0.97124 0.66309 0.0
C675 C 0.94786 0.9682 0.76837 0.0
C676 C 0.31526 0.17786 0.27638 0.0
C677 C 0.32029 0.18265 0.23207 0.0
H678 H 0.3164 0.197 0.33387 0.0
C679 C 0.33412 0.20959 0.21134 0.0
H680 H 0.30471 0.15717 0.2929 0.0
C681 C 0.34048 0.23312 0.23479 0.0
C682 C 0.33349 0.22966 0.27933 0.0
H683 H 0.33778 0.21398 0.17708 0.0
H684 H 0.34864 0.25545 0.21796 0.0
C685 C 0.32211 0.2007 0.29972 0.0
C686 C 0.94474 0.37392 0.26195 0.0
C687 C 0.97047 0.3505 0.2318 0.0
H688 H 0.89411 0.38677 0.30379 0.0
C689 C 0.96225 0.32249 0.21872 0.0
H690 H 0.94982 0.39607 0.27237 0.0
C691 C 0.92986 0.31712 0.23678 0.0
C692 C 0.90491 0.33979 0.26808 0.0
H693 H 0.9815 0.30366 0.19581 0.0
H694 H 0.92496 0.29455 0.22704 0.0
C695 C 0.9125 0.3687 0.27979 0.0
C696 C 0.84186 0.91733 0.1943 0.0
C697 C 0.82803 0.91859 0.15672 0.0
H698 H 0.84248 0.89821 0.2606 0.0
C699 C 0.8007 0.9045 0.15815 0.0
H700 H 0.86225 0.92886 0.19405 0.0
C701 C 0.78899 0.88733 0.19624 0.0
C702 C 0.80415 0.8845 0.23353 0.0
H703 H 0.78964 0.90534 0.1294 0.0
H704 H 0.77013 0.87404 0.19587 0.0
C705 C 0.82986 0.90065 0.23239 0.0
C706 C 0.12381 0.85933 0.08979 0.0
C707 C 0.08604 0.87081 0.10666 0.0
H708 H 0.17976 0.84666 0.10067 0.0
C709 C 0.0752 0.87993 0.14835 0.0
H710 H 0.13258 0.85195 0.05781 0.0
C711 C 0.10221 0.87615 0.17337 0.0
C712 C 0.1403 0.86365 0.15672 0.0
H713 H 0.04634 0.8878 0.16216 0.0
H714 H 0.09352 0.8814 0.20623 0.0
C715 C 0.15073 0.85599 0.11444 0.0
C716 C 0.22766 0.0454 1.02612 0.0
C717 C 0.23364 0.04185 0.0686 0.0
H718 H 0.23189 0.0156 0.9743 0.0
C719 C 0.23975 0.00679 0.09403 0.0
H720 H 0.22279 0.07208 1.00579 0.0
C721 C 0.24512 0.97445 0.07606 0.0
C722 C 0.24416 0.97681 0.03238 0.0
H723 H 0.2435 1.00364 0.12711 0.0
H724 H 0.25317 0.94695 0.09557 0.0
C725 C 0.23285 0.01301 1.0081 0.0
C726 C 0.18369 0.38302 0.97968 0.0
C727 C 0.17106 0.35514 1.0003 0.0
H728 H 0.22059 0.3967 0.92961 0.0
C729 C 0.18493 0.31969 0.98369 0.0
H730 H 0.17388 0.41038 0.99202 0.0
C731 C 0.21112 0.31208 0.94774 0.0
C732 C 0.22444 0.33957 0.92764 0.0
H733 H 0.17566 0.29764 0.99861 0.0
H734 H 0.22192 0.28401 0.93667 0.0
C735 C 0.2104 0.37518 0.94395 0.0
C736 C 0.80034 0.15972 0.92524 0.0
C737 C 0.83718 0.13012 0.92484 0.0
H738 H 0.76551 0.2202 0.91218 0.0
C739 C 0.86759 0.13995 0.91057 0.0
H740 H 0.77619 0.15321 0.93569 0.0
C741 C 0.86137 0.17843 0.89789 0.0
C742 C 0.82459 0.20792 0.89838 0.0
H743 H 0.89623 0.11804 0.91008 0.0
H744 H 0.88545 0.18502 0.88713 0.0
C745 C 0.79411 0.19813 0.91171 0.0
C746 C 0.92995 0.77935 0.93806 0.0
C747 C 0.93837 0.81098 0.92201 0.0
H748 H 0.89689 0.74906 0.93476 0.0
C749 C 0.91882 0.83678 0.88859 0.0
H750 H 0.94446 0.7588 0.96343 0.0
C751 C 0.89136 0.83116 0.87199 0.0
C752 C 0.88339 0.79928 0.88792 0.0
H753 H 0.92406 0.8619 0.87594 0.0
H754 H 0.87537 0.85244 0.84806 0.0
C755 C 0.90296 0.77356 0.92115 0.0
C756 C 0.18978 0.33934 0.22154 0.0
C757 C 0.18359 0.30652 0.23896 0.0
H758 H 0.21555 0.37662 0.22561 0.0
C759 C 0.20041 0.28579 0.27619 0.0
H760 H 0.17717 0.35646 0.19337 0.0
C761 C 0.22317 0.29733 0.2948 0.0
C762 C 0.22868 0.33063 0.27744 0.0
H763 H 0.19654 0.26021 0.29053 0.0
H764 H 0.23729 0.27961 0.3218 0.0
C765 C 0.21159 0.35121 0.24052 0.0
C766 C 0.17033 0.76305 0.93524 0.0
C767 C 0.14767 0.79058 0.96324 0.0
H768 H 0.22113 0.74216 0.89197 0.0
C769 C 0.1614 0.8164 0.97104 0.0
H770 H 0.16022 0.74351 0.92734 0.0
C771 C 0.19602 0.81547 0.95152 0.0
C772 C 0.21813 0.78932 0.92212 0.0
H773 H 0.14421 0.83904 0.99078 0.0
H774 H 0.20448 0.83681 0.95801 0.0
C775 C 0.20507 0.76262 0.91463 0.0
C776 C 0.3431 0.15482 0.9832 0.0
C777 C 0.3433 0.16314 1.02401 0.0
H778 H 0.34091 0.17586 0.91651 0.0
C779 C 0.34674 0.19681 0.02771 0.0
H780 H 0.33954 0.12946 0.97955 0.0
C781 C 0.34738 0.2229 0.99238 0.0
C782 C 0.34432 0.21652 0.95191 0.0
H783 H 0.34644 0.20432 0.05863 0.0
H784 H 0.34813 0.24942 0.99734 0.0
C785 C 0.34367 0.18143 0.9472 0.0
C786 C 0.0395 0.24424 0.09375 0.0
C787 C 0.05692 0.26939 0.09108 0.0
H788 H 1.00171 0.22982 0.06749 0.0
C789 C 0.04891 0.30001 0.05809 0.0
H790 H 0.04458 0.22072 0.11898 0.0
C791 C 1.02339 0.30594 0.02948 0.0
C792 C 1.00598 0.28082 0.03234 0.0
H793 H 0.06113 0.32046 0.05546 0.0
H794 H 1.0171 0.33033 1.00519 0.0
C795 C 1.01487 0.24951 0.06434 0.0
C796 C 0.77955 0.97072 0.9114 0.0
C797 C 0.77938 0.96017 0.95528 0.0
H798 H 0.7781 0.95554 0.85118 0.0
C799 C 0.77341 0.92728 0.97269 0.0
H800 H 0.78546 0.99517 0.8971 0.0
C801 C 0.76901 0.90456 0.94651 0.0
C802 C 0.7715 0.91373 0.9022 0.0
H803 H 0.77468 0.91768 1.00624 0.0
H804 H 0.76654 0.87824 0.96077 0.0
C805 C 0.77573 0.94774 0.88511 0.0
C806 C 0.96319 0.75377 0.15206 0.0
C807 C 0.97278 0.78513 0.1387 0.0
H808 H 0.93308 0.72824 0.19979 0.0
C809 C 0.96139 0.8135 0.16639 0.0
H810 H 0.97052 0.73199 0.13113 0.0
C811 C 0.94051 0.81119 0.20579 0.0
C812 C 0.92944 0.78079 0.21864 0.0
H813 H 0.96745 0.83856 0.15676 0.0
H814 H 0.93121 0.83455 0.22511 0.0
C815 C 0.94148 0.75182 0.19137 0.0
C816 C 0.36316 0.96231 0.22696 0.0
C817 C 0.3328 0.98507 0.20308 0.0
H818 H 0.38833 0.9111 0.27001 0.0
C819 C 0.30569 0.97122 0.20221 0.0
H820 H 0.38397 0.97265 0.22919 0.0
C821 C 0.30823 0.93613 0.22501 0.0
C822 C 0.3376 0.91381 0.25046 0.0
H823 H 0.28147 0.98842 0.18504 0.0
H824 H 0.28594 0.92747 0.22407 0.0
C825 C 0.36543 0.92716 0.25062 0.0
C826 C 0.78245 0.11387 0.1275 0.0
C827 C 0.8126 0.09745 0.09675 0.0
H828 H 0.76081 0.15041 0.17769 0.0
C829 C 0.84219 0.10913 0.0897 0.0
H830 H 0.75937 0.10534 0.1336 0.0
C831 C 0.84296 0.13471 0.11433 0.0
C832 C 0.81429 0.14929 0.14706 0.0
H833 H 0.86561 0.09759 0.06571 0.0
H834 H 0.86675 0.1422 0.1085 0.0
C835 C 0.78333 0.13963 0.15262 0.0
C836 C 0.65259 0.6301 0.91737 0.0
C837 C 0.63112 0.62663 0.95609 0.0
H838 H 0.68716 0.65668 0.88121 0.0
C839 C 0.62808 0.64801 0.98845 0.0
H840 H 0.65613 0.61343 0.8921 0.0
C841 C 0.64625 0.67229 0.9823 0.0
C842 C 0.66746 0.67574 0.94362 0.0
H843 H 0.61134 0.64639 1.01832 0.0
H844 H 0.64344 0.68871 1.0076 0.0
C845 C 0.67045 0.65468 0.9111 0.0
C846 C 0.44227 0.64917 0.83443 0.0
C847 C 0.46617 0.63656 0.86662 0.0
H848 H 0.39091 0.69242 0.81127 0.0
C849 C 0.45533 0.65801 0.90141 0.0
H850 H 0.44973 0.63327 0.80734 0.0
C851 C 0.42129 0.69081 0.9043 0.0
C852 C 0.39764 0.70353 0.87205 0.0
H853 H 0.47285 0.64912 0.92697 0.0
H854 H 0.41389 0.70671 0.9314 0.0
C855 C 0.40858 0.68278 0.83679 0.0
C856 C 0.4867 0.46524 0.90877 0.0
C857 C 0.49169 0.46293 0.95146 0.0
H858 H 0.46635 0.44649 0.86395 0.0
C859 C 0.47986 0.43903 0.9821 0.0
H860 H 0.49663 0.48243 0.88414 0.0
C861 C 0.46288 0.41811 0.97033 0.0
C862 C 0.45764 0.42079 0.92772 0.0
H863 H 0.48348 0.43686 1.01509 0.0
H864 H 0.45329 0.40034 0.99463 0.0
C865 C 0.46969 0.44444 0.89704 0.0
C866 C 0.70369 0.47191 0.84379 0.0
C867 C 0.669 0.47124 0.86106 0.0
H868 H 0.76357 0.44067 0.83534 0.0
C869 C 0.66853 0.43549 0.87882 0.0
H870 H 0.70523 0.49867 0.82955 0.0
C871 C 0.7023 0.40185 0.8816 0.0
C872 C 0.73698 0.40361 0.86727 0.0
H873 H 0.64237 0.43386 0.89267 0.0
H874 H 0.70145 0.37516 0.89735 0.0
C875 C 0.73721 0.43864 0.84716 0.0
C876 C 0.67836 0.43931 0.25978 0.0
C877 C 0.66993 0.46764 0.28637 0.0
H878 H 0.71534 0.38354 0.24228 0.0
C879 C 0.69294 0.45961 0.31857 0.0
H880 H 0.66116 0.44472 0.23465 0.0
C881 C 0.72478 0.424 0.32281 0.0
C882 C 0.73365 0.39638 0.29483 0.0
H883 H 0.68733 0.48129 0.33901 0.0
H884 H 0.74269 0.41841 0.34721 0.0
C885 C 0.70965 0.40429 0.26395 0.0
C886 C 0.63985 0.68809 0.22156 0.0
C887 C 0.6547 0.64815 0.22106 0.0
H888 H 0.64974 0.73549 0.23274 0.0
C889 C 0.6917 0.62489 0.22985 0.0
H890 H 0.6109 0.70609 0.21575 0.0
C891 C 0.71392 0.64134 0.23907 0.0
C892 C 0.69913 0.68133 0.24053 0.0
H893 H 0.70315 0.59394 0.22981 0.0
H894 H 0.74273 0.62271 0.24498 0.0
C895 C 0.66193 0.70467 0.23142 0.0
C896 C 0.45066 0.68397 0.24516 0.0
C897 C 0.47471 0.66695 0.27732 0.0
H898 H 0.40102 0.72983 0.22369 0.0
C899 C 0.46603 0.68563 0.31398 0.0
H900 H 0.45605 0.67069 0.21644 0.0
C901 C 0.43356 0.72062 0.31802 0.0
C902 C 0.40974 0.73696 0.28543 0.0
H903 H 0.48417 0.6734 0.33915 0.0
H904 H 0.42664 0.73424 0.34678 0.0
C905 C 0.41893 0.71828 0.24912 0.0
C906 C 0.48701 0.48789 0.19643 0.0
C907 C 0.49394 0.50052 0.23097 0.0
H908 H 0.45866 0.46011 0.17464 0.0
C909 C 0.47428 0.49638 0.27094 0.0
H910 H 0.50089 0.49092 0.16504 0.0
C911 C 0.44905 0.47937 0.27622 0.0
C912 C 0.44303 0.46599 0.24173 0.0
H913 H 0.47865 0.50554 0.29851 0.0
H914 H 0.4344 0.47658 0.30732 0.0
C915 C 0.46216 0.47064 0.2018 0.0
C916 C 0.78958 0.69233 0.7331 0.0
C917 C 0.80586 0.69329 0.69099 0.0
H918 H 0.78033 0.71222 0.79358 0.0
C919 C 0.82578 0.71644 0.67779 0.0
H920 H 0.77439 0.67458 0.74442 0.0
C921 C 0.82937 0.73805 0.70593 0.0
C922 C 0.81349 0.73682 0.74826 0.0
H923 H 0.83863 0.71799 0.64547 0.0
H924 H 0.84428 0.75602 0.69429 0.0
C925 C 0.79352 0.71361 0.76141 0.0
C926 C 0.44944 0.8573 0.75964 0.0
C927 C 0.47111 0.83815 0.72423 0.0
H928 H 0.40292 0.86655 0.80769 0.0
C929 C 0.4595 0.81277 0.71043 0.0
H930 H 0.4564 0.8772 0.77192 0.0
C931 C 0.42784 0.80672 0.73153 0.0
C932 C 0.40674 0.82579 0.76711 0.0
H933 H 0.4748 0.79733 0.68344 0.0
H934 H 0.42011 0.78683 0.72014 0.0
C935 C 0.41814 0.85121 0.78054 0.0
C936 C 0.32489 0.42516 0.70972 0.0
C937 C 0.34122 0.41165 0.66989 0.0
H938 H 0.30595 0.41081 0.77487 0.0
C939 C 0.34897 0.3739 0.66483 0.0
H940 H 0.31873 0.45439 0.71425 0.0
C941 C 0.34125 0.34978 0.69839 0.0
C942 C 0.32587 0.3622 0.73876 0.0
H943 H 0.36111 0.36299 0.63451 0.0
H944 H 0.34812 0.32073 0.69241 0.0
C945 C 0.31759 0.40037 0.74426 0.0
C946 C 0.56593 0.35376 0.65114 0.0
C947 C 0.57537 0.34949 0.60781 0.0
H948 H 0.5835 0.35747 0.70872 0.0
C949 C 0.61018 0.3489 0.58853 0.0
H950 H 0.54015 0.35254 0.66729 0.0
C951 C 0.63564 0.3507 0.61244 0.0
C952 C 0.62683 0.35334 0.65626 0.0
H953 H 0.61889 0.34426 0.55555 0.0
H954 H 0.66276 0.34869 0.5969 0.0
C955 C 0.59111 0.35609 0.67497 0.0
C956 C 0.73843 0.52625 0.604 0.0
C957 C 0.73885 0.56037 0.58142 0.0
H958 H 0.74058 0.47081 0.60027 0.0
C959 C 0.7338 0.56804 0.53823 0.0
H960 H 0.7432 0.51924 0.6371 0.0
C961 C 0.73371 0.53988 0.51669 0.0
C962 C 0.73837 0.50352 0.53813 0.0
H963 H 0.73505 0.59377 0.51995 0.0
H964 H 0.73424 0.54526 0.48256 0.0
C965 C 0.73789 0.49812 0.58256 0.0
C966 C 0.70223 0.80731 0.46881 0.0
C967 C 0.68243 0.84376 0.48354 0.0
H968 H 0.74425 0.773 0.42335 0.0
C969 C 0.69154 0.87409 0.46251 0.0
H970 H 0.69586 0.78337 0.48402 0.0
C971 C 0.71988 0.86804 0.42796 0.0
C972 C 0.73907 0.83177 0.41261 0.0
H973 H 0.67702 0.90243 0.47319 0.0
H974 H 0.72648 0.89189 0.41301 0.0
C975 C 0.72976 0.80152 0.43364 0.0
C976 C 0.33837 0.64815 0.39709 0.0
C977 C 0.34763 0.6333 0.43864 0.0
H978 H 0.32442 0.69673 0.34932 0.0
C979 C 0.34996 0.65812 0.4641 0.0
H980 H 0.3358 0.63022 0.37675 0.0
C981 C 0.34419 0.69632 0.44798 0.0
C982 C 0.33455 0.71113 0.40654 0.0
H983 H 0.35684 0.64775 0.49631 0.0
H984 H 0.34673 0.71444 0.46811 0.0
C985 C 0.33149 0.68651 0.38151 0.0
C986 C 0.45296 0.28506 0.42832 0.0
C987 C 0.44555 0.31443 0.45353 0.0
H988 H 0.43133 0.26104 0.39003 0.0
C989 C 0.40997 0.34593 0.4535 0.0
H990 H 0.47997 0.2603 0.4272 0.0
C991 C 0.38188 0.34629 0.43151 0.0
C992 C 0.38902 0.31569 0.40824 0.0
H993 H 0.403 0.36889 0.47269 0.0
H994 H 0.35383 0.36922 0.43506 0.0
C995 C 0.42521 0.28564 0.40625 0.0
C996 C 0.68956 0.78992 0.76177 0.0
C997 C 0.67473 0.80838 0.72305 0.0
H998 H 0.72416 0.78681 0.80817 0.0
C999 C 0.6821 0.84 0.70331 0.0
H1000 H 0.68475 0.76526 0.77774 0.0
C1001 C 0.70324 0.853 0.72166 0.0
C1002 C 0.71835 0.83461 0.76011 0.0
H1003 H 0.67101 0.85528 0.67376 0.0
H1004 H 0.70828 0.87738 0.70512 0.0
C1005 C 0.71156 0.80262 0.77976 0.0
C1006 C 0.66631 0.31682 0.45884 0.0
C1007 C 0.65715 0.28956 0.44584 0.0
H1008 H 0.70638 0.34124 0.45209 0.0
C1009 C 0.68324 0.26363 0.41834 0.0
H1010 H 0.64631 0.33752 0.47957 0.0
C1011 C 0.71744 0.26543 0.40292 0.0
C1012 C 0.72628 0.29363 0.41424 0.0
H1013 H 0.67669 0.24238 0.40807 0.0
H1014 H 0.73635 0.24539 0.38091 0.0
C1015 C 0.70058 0.31901 0.44293 0.0
C1016 C 0.85871 0.6879 0.48584 0.0
C1017 C 0.84132 0.66632 0.47607 0.0
H1018 H 0.87679 0.73281 0.46379 0.0
C1019 C 0.83624 0.66754 0.43369 0.0
H1020 H 0.86224 0.68796 0.51836 0.0
C1021 C 0.84464 0.69318 0.40226 0.0
C1022 C 0.85778 0.71807 0.41314 0.0
H1023 H 0.82257 0.65118 0.42573 0.0
H1024 H 0.8373 0.69603 0.37087 0.0
C1025 C 0.86668 0.71376 0.45461 0.0
C1026 C 0.58287 0.75625 0.51553 0.0
C1027 C 0.57961 0.75484 0.55987 0.0
H1028 H 0.55547 0.7644 0.46084 0.0
C1029 C 0.54577 0.75644 0.5834 0.0
H1030 H 0.60832 0.75532 0.49619 0.0
C1031 C 0.51522 0.76185 0.56292 0.0
C1032 C 0.51804 0.76517 0.51849 0.0
H1033 H 0.54245 0.75471 0.61756 0.0
H1034 H 0.48913 0.76422 0.58182 0.0
C1035 C 0.5525 0.76139 0.49513 0.0
C1036 C 0.29382 0.47218 0.42377 0.0
C1037 C 0.28482 0.46701 0.46766 0.0
H1038 H 0.2981 0.45358 0.36383 0.0
C1039 C 0.26815 0.44158 0.48444 0.0
H1040 H 0.30775 0.4908 0.41033 0.0
C1041 C 0.26267 0.4199 0.45784 0.0
C1042 C 0.27438 0.42286 0.41408 0.0
H1043 H 0.26206 0.43627 0.51838 0.0
H1044 H 0.25209 0.39867 0.47211 0.0
C1045 C 0.2885 0.45054 0.39721 0.0
C1046 C 0.45354 0.29317 0.69892 0.0
C1047 C 0.46804 0.26058 0.67687 0.0
H1048 H 0.42079 0.31992 0.75354 0.0
C1049 C 0.46067 0.2286 0.69531 0.0
H1050 H 0.45873 0.31826 0.68593 0.0
C1051 C 0.43874 0.22947 0.73449 0.0
C1052 C 0.42434 0.26206 0.75644 0.0
H1053 H 0.47101 0.20326 0.67891 0.0
H1054 H 0.43253 0.20492 0.74722 0.0
C1055 C 0.43221 0.29382 0.73821 0.0
C1056 C 0.85504 0.46228 0.75534 0.0
C1057 C 0.84333 0.47545 0.71463 0.0
H1058 H 0.86024 0.42077 0.80989 0.0
C1059 C 0.82775 0.45536 0.69755 0.0
H1060 H 0.86613 0.47763 0.76991 0.0
C1061 C 0.82397 0.42295 0.72065 0.0
C1062 C 0.83602 0.40966 0.76117 0.0
H1063 H 0.81858 0.46464 0.66619 0.0
H1064 H 0.81188 0.40815 0.70665 0.0
C1065 C 0.85153 0.42972 0.77828 0.0
C1066 C 0.33631 0.58675 0.65298 0.0
C1067 C 0.31748 0.59396 0.61738 0.0
H1068 H 0.35155 0.61045 0.69733 0.0
C1069 C 0.30152 0.63137 0.59677 0.0
H1070 H 0.34957 0.55773 0.66863 0.0
C1071 C 0.30527 0.66115 0.61101 0.0
C1072 C 0.32299 0.65442 0.64764 0.0
H1073 H 0.28757 0.63741 0.56867 0.0
H1074 H 0.29389 0.68951 0.59348 0.0
C1075 C 0.33848 0.61679 0.6685 0.0
loop_
_geom_bond_atom_site_label_1
_geom_bond_atom_site_label_2
_geom_bond_distance
_geom_bond_site_symmetry_2
_ccdc_geom_bond_type
Cu0 N1 1.999 . S
Cu0 O6 1.974 1_545 S
Cu0 N11 2.008 . S
Cu0 O20 1.959 1_455 S
N1 Cu0 1.999 . S
N1 C3 1.263 . S
N1 C5 1.389 . S
N2 C3 1.358 . S
N2 C4 1.400 . S
C3 N1 1.263 . S
C3 N2 1.358 . S
C3 H9 0.930 . S
C4 N2 1.400 . S
C4 C5 1.351 . S
C4 H21 0.930 . S
C5 N1 1.389 . S
C5 C4 1.351 . S
C5 H10 0.930 . S
O6 Cu0 1.974 1_565 S
O6 C16 1.282 . S
C7 O8 1.261 1_655 S
C7 O20 1.251 . S
O8 C7 1.261 1_455 S
H9 C3 0.930 . S
H10 C5 0.930 . S
N11 Cu0 2.008 . S
N11 C13 1.328 1_455 S
N11 C14 1.368 1_545 S
N12 C13 1.345 1_565 S
N12 C15 1.336 1_655 S
C13 N11 1.328 1_655 S
C13 N12 1.345 1_545 S
C13 H18 0.930 . S
C14 N11 1.368 1_565 S
C14 C15 1.346 . S
C14 H19 0.930 . S
C15 N12 1.336 1_455 S
C15 C14 1.346 . S
C15 H22 0.929 . S
C16 O6 1.282 . S
C16 O17 1.216 . S
O17 C16 1.216 . S
H18 C13 0.930 . S
H19 C14 0.930 . S
O20 Cu0 1.959 1_655 S
O20 C7 1.251 . S
H21 C4 0.930 . S
H22 C15 0.929 . S
Cu23 N24 1.999 . S
Cu23 O29 1.974 1_455 S
Cu23 N34 1.985 . S
Cu23 O43 1.959 . S
N24 Cu23 1.999 . S
N24 C26 1.263 1_455 S
N24 C28 1.389 . S
N25 C26 1.358 . S
N25 C27 1.400 1_545 S
C26 N24 1.263 1_655 S
C26 N25 1.358 . S
C26 H32 0.930 . S
C27 N25 1.400 1_565 S
C27 C28 1.351 1_665 S
C27 H44 0.930 . S
C28 N24 1.389 . S
C28 C27 1.351 1_445 S
C28 H33 0.930 1_545 S
O29 Cu23 1.974 1_655 S
O29 C39 1.282 . S
C30 O31 1.261 . S
C30 O43 1.251 . S
O31 C30 1.261 . S
H32 C26 0.930 . S
H33 C28 0.930 1_565 S
N34 Cu23 1.985 . S
N34 C36 1.335 . S
N34 C37 1.390 . S
N35 C36 1.345 . S
N35 C38 1.336 . S
C36 N34 1.335 . S
C36 N35 1.345 . S
C36 H41 0.930 . S
C37 N34 1.390 . S
C37 C38 1.346 . S
C37 H42 0.930 . S
C38 N35 1.336 . S
C38 C37 1.346 . S
C38 H45 0.929 . S
C39 O29 1.282 . S
C39 O40 1.216 . S
O40 C39 1.216 . S
H41 C36 0.930 . S
H42 C37 0.930 . S
O43 Cu23 1.959 . S
O43 C30 1.251 . S
H44 C27 0.930 . S
H45 C38 0.929 . S
Cu46 N47 1.999 . S
Cu46 O52 1.974 . S
Cu46 N57 1.985 . S
Cu46 O66 1.959 . S
N47 Cu46 1.999 . S
N47 C49 1.263 . S
N47 C51 1.389 . S
N48 C49 1.358 . S
N48 C50 1.400 . S
C49 N47 1.263 . S
C49 N48 1.358 . S
C49 H55 0.930 . S
C50 N48 1.400 . S
C50 C51 1.351 . S
C50 H67 0.930 1_554 S
C51 N47 1.389 . S
C51 C50 1.351 . S
C51 H56 0.930 . S
O52 Cu46 1.974 . S
O52 C62 1.282 . S
C53 O54 1.261 . S
C53 O66 1.251 . S
O54 C53 1.261 . S
H55 C49 0.930 . S
H56 C51 0.930 . S
N57 Cu46 1.985 . S
N57 C59 1.335 . S
N57 C60 1.390 . S
N58 C59 1.345 . S
N58 C61 1.336 . S
C59 N57 1.335 . S
C59 N58 1.345 . S
C59 H64 0.930 . S
C60 N57 1.390 . S
C60 C61 1.346 . S
C60 H65 0.930 . S
C61 N58 1.336 . S
C61 C60 1.346 . S
C61 H68 0.929 . S
C62 O52 1.282 . S
C62 O63 1.216 . S
O63 C62 1.216 . S
H64 C59 0.930 . S
H65 C60 0.930 . S
O66 Cu46 1.959 . S
O66 C53 1.251 . S
H67 C50 0.930 1_556 S
H68 C61 0.929 . S
Cu69 N70 1.999 . S
Cu69 O75 1.974 . S
Cu69 N80 1.985 . S
Cu69 O89 1.959 . S
N70 Cu69 1.999 . S
N70 C72 1.263 . S
N70 C74 1.389 . S
N71 C72 1.358 . S
N71 C73 1.400 1_554 S
C72 N70 1.263 . S
C72 N71 1.358 . S
C72 H78 0.930 . S
C73 N71 1.400 1_556 S
C73 C74 1.351 1_556 S
C73 H90 0.930 . S
C74 N70 1.389 . S
C74 C73 1.351 1_554 S
C74 H79 0.930 1_554 S
O75 Cu69 1.974 . S
O75 C85 1.282 . S
C76 O77 1.261 . S
C76 O89 1.251 . S
O77 C76 1.261 . S
H78 C72 0.930 . S
H79 C74 0.930 1_556 S
N80 Cu69 1.985 . S
N80 C82 1.335 . S
N80 C83 1.390 . S
N81 C82 1.331 1_655 S
N81 C84 1.309 1_655 S
C82 N80 1.335 . S
C82 N81 1.331 1_455 S
C82 H87 0.930 1_455 S
C83 N80 1.390 . S
C83 C84 1.346 . S
C83 H88 0.930 . S
C84 N81 1.309 1_455 S
C84 C83 1.346 . S
C84 H91 0.929 . S
C85 O75 1.282 . S
C85 O86 1.216 . S
O86 C85 1.216 . S
H87 C82 0.930 1_655 S
H88 C83 0.930 . S
O89 Cu69 1.959 . S
O89 C76 1.251 . S
H90 C73 0.930 . S
H91 C84 0.929 . S
Cu92 N93 1.999 1_554 S
Cu92 O98 1.974 . S
Cu92 N103 1.985 1_545 S
Cu92 O112 1.959 1_544 S
N93 Cu92 1.999 1_556 S
N93 C95 1.263 . S
N93 C97 1.389 . S
N94 C95 1.358 . S
N94 C96 1.400 . S
C95 N93 1.263 . S
C95 N94 1.358 . S
C95 H101 0.930 . S
C96 N94 1.400 . S
C96 C97 1.351 . S
C96 H113 0.930 . S
C97 N93 1.389 . S
C97 C96 1.351 . S
C97 H102 0.930 . S
O98 Cu92 1.974 . S
O98 C108 1.282 . S
C99 O100 1.261 . S
C99 O112 1.251 . S
O100 C99 1.261 . S
H101 C95 0.930 . S
H102 C97 0.930 . S
N103 Cu92 1.985 1_565 S
N103 C105 1.335 . S
N103 C106 1.390 . S
N104 C105 1.345 . S
N104 C107 1.336 . S
C105 N103 1.335 . S
C105 N104 1.345 . S
C105 H110 0.930 . S
C106 N103 1.390 . S
C106 C107 1.346 . S
C106 H111 0.930 . S
C107 N104 1.336 . S
C107 C106 1.346 . S
C107 H114 0.929 . S
C108 O98 1.282 . S
C108 O109 1.216 . S
O109 C108 1.216 . S
H110 C105 0.930 . S
H111 C106 0.930 . S
O112 Cu92 1.959 1_566 S
O112 C99 1.251 . S
H113 C96 0.930 . S
H114 C107 0.929 . S
Cu115 N116 1.999 1_454 S
Cu115 O121 1.974 1_455 S
Cu115 N126 1.985 . S
Cu115 O135 1.959 1_554 S
N116 Cu115 1.999 1_656 S
N116 C118 1.263 . S
N116 C120 1.389 . S
N117 C118 1.358 . S
N117 C119 1.400 . S
C118 N116 1.263 . S
C118 N117 1.358 . S
C118 H124 0.930 . S
C119 N117 1.400 . S
C119 C120 1.351 . S
C119 H136 0.930 . S
C120 N116 1.389 . S
C120 C119 1.351 . S
C120 H125 0.930 1_655 S
O121 Cu115 1.974 1_655 S
O121 C131 1.282 . S
C122 O123 1.261 . S
C122 O135 1.251 . S
O123 C122 1.261 . S
H124 C118 0.930 . S
H125 C120 0.930 1_455 S
N126 Cu115 1.985 . S
N126 C128 1.335 . S
N126 C129 1.390 . S
N127 C128 1.345 . S
N127 C130 1.336 . S
C128 N126 1.335 . S
C128 N127 1.345 . S
C128 H133 0.930 . S
C129 N126 1.390 . S
C129 C130 1.346 . S
C129 H134 0.930 1_455 S
C130 N127 1.336 . S
C130 C129 1.346 . S
C130 H137 0.929 . S
C131 O121 1.282 . S
C131 O132 1.216 . S
O132 C131 1.216 . S
H133 C128 0.930 . S
H134 C129 0.930 1_655 S
O135 Cu115 1.959 1_556 S
O135 C122 1.251 . S
H136 C119 0.930 . S
H137 C130 0.929 . S
Cu138 N139 1.999 . S
Cu138 O144 1.974 . S
Cu138 N149 1.985 . S
Cu138 O158 1.959 . S
N139 Cu138 1.999 . S
N139 C141 1.263 . S
N139 C143 1.389 . S
N140 C141 1.358 . S
N140 C142 1.400 . S
C141 N139 1.263 . S
C141 N140 1.358 . S
C141 H147 0.930 . S
C142 N140 1.400 . S
C142 C143 1.351 . S
C142 H159 0.930 1_556 S
C143 N139 1.389 . S
C143 C142 1.351 . S
C143 H148 0.930 1_556 S
O144 Cu138 1.974 . S
O144 C154 1.282 . S
C145 O146 1.261 . S
C145 O158 1.251 . S
O146 C145 1.261 . S
H147 C141 0.930 . S
H148 C143 0.930 1_554 S
N149 Cu138 1.985 . S
N149 C151 1.335 . S
N149 C152 1.390 . S
N150 C151 1.345 . S
N150 C153 1.336 . S
C151 N149 1.335 . S
C151 N150 1.345 . S
C151 H156 0.930 . S
C152 N149 1.390 . S
C152 C153 1.346 . S
C152 H157 0.930 . S
C153 N150 1.336 . S
C153 C152 1.346 . S
C153 H160 0.929 . S
C154 O144 1.282 . S
C154 O155 1.216 . S
O155 C154 1.216 . S
H156 C151 0.930 . S
H157 C152 0.930 . S
O158 Cu138 1.959 . S
O158 C145 1.251 . S
H159 C142 0.930 1_554 S
H160 C153 0.929 . S
Cu161 N162 1.999 . S
Cu161 O167 1.974 . S
Cu161 N172 1.985 . S
Cu161 O181 1.959 . S
N162 Cu161 1.999 . S
N162 C164 1.263 . S
N162 C166 1.389 . S
N163 C164 1.358 . S
N163 C165 1.400 . S
C164 N162 1.263 . S
C164 N163 1.358 . S
C164 H170 0.930 . S
C165 N163 1.400 . S
C165 C166 1.351 . S
C165 H182 0.930 . S
C166 N162 1.389 . S
C166 C165 1.351 . S
C166 H171 0.930 . S
O167 Cu161 1.974 . S
O167 C177 1.282 . S
C168 O169 1.261 . S
C168 O181 1.251 . S
O169 C168 1.261 . S
H170 C164 0.930 . S
H171 C166 0.930 . S
N172 Cu161 1.985 . S
N172 C174 1.335 . S
N172 C175 1.390 . S
N173 C174 1.345 . S
N173 C176 1.336 . S
C174 N172 1.335 . S
C174 N173 1.345 . S
C174 H179 0.930 . S
C175 N172 1.390 . S
C175 C176 1.346 . S
C175 H180 0.930 . S
C176 N173 1.336 . S
C176 C175 1.346 . S
C176 H183 0.929 . S
C177 O167 1.282 . S
C177 O178 1.216 . S
O178 C177 1.216 . S
H179 C174 0.930 . S
H180 C175 0.930 . S
O181 Cu161 1.959 . S
O181 C168 1.251 . S
H182 C165 0.930 . S
H183 C176 0.929 . S
Cu184 N185 1.999 . S
Cu184 O190 1.974 . S
Cu184 N195 1.985 . S
Cu184 O204 1.959 . S
N185 Cu184 1.999 . S
N185 C187 1.263 . S
N185 C189 1.389 . S
N186 C187 1.358 . S
N186 C188 1.400 . S
C187 N185 1.263 . S
C187 N186 1.358 . S
C187 H193 0.930 . S
C188 N186 1.400 . S
C188 C189 1.351 . S
C188 H205 0.930 . S
C189 N185 1.389 . S
C189 C188 1.351 . S
C189 H194 0.930 . S
O190 Cu184 1.974 . S
O190 C200 1.282 . S
C191 O192 1.261 . S
C191 O204 1.251 . S
O192 C191 1.261 . S
H193 C187 0.930 . S
H194 C189 0.930 . S
N195 Cu184 1.985 . S
N195 C197 1.335 . S
N195 C198 1.390 . S
N196 C197 1.345 . S
N196 C199 1.336 . S
C197 N195 1.335 . S
C197 N196 1.345 . S
C197 H202 0.930 . S
C198 N195 1.390 . S
C198 C199 1.346 . S
C198 H203 0.930 . S
C199 N196 1.336 . S
C199 C198 1.346 . S
C199 H206 0.929 . S
C200 O190 1.282 . S
C200 O201 1.216 . S
O201 C200 1.216 . S
H202 C197 0.930 . S
H203 C198 0.930 . S
O204 Cu184 1.959 . S
O204 C191 1.251 . S
H205 C188 0.930 . S
H206 C199 0.929 . S
Cu207 N208 1.999 . S
Cu207 O213 1.974 . S
Cu207 N218 1.985 . S
Cu207 O227 1.959 . S
N208 Cu207 1.999 . S
N208 C210 1.263 . S
N208 C212 1.389 . S
N209 C210 1.358 . S
N209 C211 1.400 . S
C210 N208 1.263 . S
C210 N209 1.358 . S
C210 H216 0.930 . S
C211 N209 1.400 . S
C211 C212 1.351 . S
C211 H228 0.930 . S
C212 N208 1.389 . S
C212 C211 1.351 . S
C212 H217 0.930 . S
O213 Cu207 1.974 . S
O213 C223 1.282 . S
C214 O215 1.261 . S
C214 O227 1.251 . S
O215 C214 1.261 . S
H216 C210 0.930 . S
H217 C212 0.930 . S
N218 Cu207 1.985 . S
N218 C220 1.335 . S
N218 C221 1.390 . S
N219 C220 1.345 . S
N219 C222 1.336 . S
C220 N218 1.335 . S
C220 N219 1.345 . S
C220 H225 0.930 . S
C221 N218 1.390 . S
C221 C222 1.346 . S
C221 H226 0.930 . S
C222 N219 1.336 . S
C222 C221 1.346 . S
C222 H229 0.929 . S
C223 O213 1.282 . S
C223 O224 1.216 . S
O224 C223 1.216 . S
H225 C220 0.930 . S
H226 C221 0.930 . S
O227 Cu207 1.959 . S
O227 C214 1.251 . S
H228 C211 0.930 . S
H229 C222 0.929 . S
Cu230 N231 1.999 . S
Cu230 O236 1.974 . S
Cu230 N241 1.985 . S
Cu230 O250 1.959 . S
N231 Cu230 1.999 . S
N231 C233 1.263 . S
N231 C235 1.389 . S
N232 C233 1.358 . S
N232 C234 1.400 . S
C233 N231 1.263 . S
C233 N232 1.358 . S
C233 H239 0.930 . S
C234 N232 1.400 . S
C234 C235 1.351 . S
C234 H251 0.930 . S
C235 N231 1.389 . S
C235 C234 1.351 . S
C235 H240 0.930 . S
O236 Cu230 1.974 . S
O236 C246 1.282 . S
C237 O238 1.261 . S
C237 O250 1.251 . S
O238 C237 1.261 . S
H239 C233 0.930 . S
H240 C235 0.930 . S
N241 Cu230 1.985 . S
N241 C243 1.335 . S
N241 C244 1.390 . S
N242 C243 1.345 . S
N242 C245 1.336 . S
C243 N241 1.335 . S
C243 N242 1.345 . S
C243 H248 0.930 . S
C244 N241 1.390 . S
C244 C245 1.346 . S
C244 H249 0.930 . S
C245 N242 1.336 . S
C245 C244 1.346 . S
C245 H252 0.929 . S
C246 O236 1.282 . S
C246 O247 1.216 . S
O247 C246 1.216 . S
H248 C243 0.930 . S
H249 C244 0.930 . S
O250 Cu230 1.959 . S
O250 C237 1.251 . S
H251 C234 0.930 . S
H252 C245 0.929 . S
Cu253 N254 1.999 . S
Cu253 O259 1.974 . S
Cu253 N264 1.985 . S
Cu253 O273 1.959 . S
N254 Cu253 1.999 . S
N254 C256 1.263 . S
N254 C258 1.389 . S
N255 C256 1.358 . S
N255 C257 1.400 . S
C256 N254 1.263 . S
C256 N255 1.358 . S
C256 H262 0.930 . S
C257 N255 1.400 . S
C257 C258 1.351 . S
C257 H274 0.930 . S
C258 N254 1.389 . S
C258 C257 1.351 . S
C258 H263 0.930 . S
O259 Cu253 1.974 . S
O259 C269 1.282 . S
C260 O261 1.261 . S
C260 O273 1.251 . S
O261 C260 1.261 . S
H262 C256 0.930 . S
H263 C258 0.930 . S
N264 Cu253 1.985 . S
N264 C266 1.335 . S
N264 C267 1.390 . S
N265 C266 1.345 . S
N265 C268 1.336 . S
C266 N264 1.335 . S
C266 N265 1.345 . S
C266 H271 0.930 . S
C267 N264 1.390 . S
C267 C268 1.346 . S
C267 H272 0.930 . S
C268 N265 1.336 . S
C268 C267 1.346 . S
C268 H275 0.929 . S
C269 O259 1.282 . S
C269 O270 1.216 . S
O270 C269 1.216 . S
H271 C266 0.930 . S
H272 C267 0.930 . S
O273 Cu253 1.959 . S
O273 C260 1.251 . S
H274 C257 0.930 . S
H275 C268 0.929 . S
Ho276 C279 2.811 . S
Ho276 O296 2.322 . S
Ho276 O298 2.378 . S
Ho276 O299 2.524 . S
Ho276 O300 2.381 . S
Ho276 O301 2.669 . S
Ho276 O303 2.346 . S
Ho276 O307 2.305 . S
Ho277 C288 2.811 . S
Ho277 O297 2.346 . S
Ho277 O301 2.305 . S
Ho277 O302 2.322 . S
Ho277 O304 2.378 . S
Ho277 O305 2.524 . S
Ho277 O306 2.381 . S
Ho277 O307 2.669 . S
C278 O296 1.259 . S
C278 O297 1.268 . S
C279 Ho276 2.811 . S
C279 C280 1.488 . S
C279 O298 1.215 . S
C279 O299 1.289 . S
C280 C279 1.488 . S
C280 C281 1.348 . S
C280 C285 1.413 . S
C281 C280 1.348 . S
C281 C282 1.442 . S
C281 H308 0.930 . S
C282 C281 1.442 . S
C282 C283 1.381 . S
C282 H309 0.931 . S
C283 C282 1.381 . S
C283 C284 1.321 . S
C284 C283 1.321 . S
C284 C285 1.403 . S
C284 H310 0.934 . S
C285 C280 1.413 . S
C285 C284 1.403 . S
C285 H311 0.930 . S
C286 O300 1.275 . S
C286 O301 1.256 . S
C287 O302 1.259 . S
C287 O303 1.268 . S
C288 Ho277 2.811 . S
C288 C289 1.488 . S
C288 O304 1.215 . S
C288 O305 1.289 . S
C289 C288 1.488 . S
C289 C290 1.348 . S
C289 C294 1.413 . S
C290 C289 1.348 . S
C290 C291 1.442 . S
C290 H312 0.930 . S
C291 C290 1.442 . S
C291 C292 1.381 . S
C291 H313 0.931 . S
C292 C291 1.381 . S
C292 C293 1.321 . S
C293 C292 1.321 . S
C293 C294 1.403 . S
C293 H314 0.934 . S
C294 C289 1.413 . S
C294 C293 1.403 . S
C294 H315 0.930 . S
C295 O306 1.275 . S
C295 O307 1.256 . S
O296 Ho276 2.322 . S
O296 C278 1.259 . S
O297 Ho277 2.346 . S
O297 C278 1.268 . S
O298 Ho276 2.378 . S
O298 C279 1.215 . S
O299 Ho276 2.524 . S
O299 C279 1.289 . S
O300 Ho276 2.381 . S
O300 C286 1.275 . S
O301 Ho276 2.669 . S
O301 Ho277 2.305 . S
O301 C286 1.256 . S
O302 Ho277 2.322 . S
O302 C287 1.259 . S
O303 Ho276 2.346 . S
O303 C287 1.268 . S
O304 Ho277 2.378 . S
O304 C288 1.215 . S
O305 Ho277 2.524 . S
O305 C288 1.289 . S
O306 Ho277 2.381 . S
O306 C295 1.275 . S
O307 Ho276 2.305 . S
O307 Ho277 2.669 . S
O307 C295 1.256 . S
H308 C281 0.930 . S
H309 C282 0.931 . S
H310 C284 0.934 . S
H311 C285 0.930 . S
H312 C290 0.930 . S
H313 C291 0.931 . S
H314 C293 0.934 . S
H315 C294 0.930 . S
Ho316 C319 2.811 . S
Ho316 O336 2.322 . S
Ho316 O338 2.378 . S
Ho316 O339 2.524 . S
Ho316 O340 2.381 . S
Ho316 O341 2.669 . S
Ho316 O343 2.346 . S
Ho316 O347 2.305 . S
Ho317 C328 2.811 . S
Ho317 O337 2.346 . S
Ho317 O341 2.305 . S
Ho317 O342 2.322 . S
Ho317 O344 2.378 . S
Ho317 O345 2.524 . S
Ho317 O346 2.381 . S
Ho317 O347 2.669 . S
C318 O336 1.259 . S
C318 O337 1.268 . S
C319 Ho316 2.811 . S
C319 C320 1.488 . S
C319 O338 1.215 . S
C319 O339 1.289 . S
C320 C319 1.488 . S
C320 C321 1.348 . S
C320 C325 1.413 . S
C321 C320 1.348 . S
C321 C322 1.442 . S
C321 H348 0.930 . S
C322 C321 1.442 . S
C322 C323 1.381 . S
C322 H349 0.931 . S
C323 C322 1.381 . S
C323 C324 1.321 . S
C324 C323 1.321 . S
C324 C325 1.403 . S
C324 H350 0.934 . S
C325 C320 1.413 . S
C325 C324 1.403 . S
C325 H351 0.930 . S
C326 O340 1.275 . S
C326 O341 1.256 . S
C327 O342 1.259 . S
C327 O343 1.268 . S
C328 Ho317 2.811 . S
C328 C329 1.488 . S
C328 O344 1.215 . S
C328 O345 1.289 . S
C329 C328 1.488 . S
C329 C330 1.348 . S
C329 C334 1.413 . S
C330 C329 1.348 . S
C330 C331 1.442 . S
C330 H352 0.930 . S
C331 C330 1.442 . S
C331 C332 1.381 . S
C331 H353 0.931 . S
C332 C331 1.381 . S
C332 C333 1.321 . S
C333 C332 1.321 . S
C333 C334 1.403 . S
C333 H354 0.934 . S
C334 C329 1.413 . S
C334 C333 1.403 . S
C334 H355 0.930 . S
C335 O346 1.275 . S
C335 O347 1.256 . S
O336 Ho316 2.322 . S
O336 C318 1.259 . S
O337 Ho317 2.346 . S
O337 C318 1.268 . S
O338 Ho316 2.378 . S
O338 C319 1.215 . S
O339 Ho316 2.524 . S
O339 C319 1.289 . S
O340 Ho316 2.381 . S
O340 C326 1.275 . S
O341 Ho316 2.669 . S
O341 Ho317 2.305 . S
O341 C326 1.256 . S
O342 Ho317 2.322 . S
O342 C327 1.259 . S
O343 Ho316 2.346 . S
O343 C327 1.268 . S
O344 Ho317 2.378 . S
O344 C328 1.215 . S
O345 Ho317 2.524 . S
O345 C328 1.289 . S
O346 Ho317 2.381 . S
O346 C335 1.275 . S
O347 Ho316 2.305 . S
O347 Ho317 2.669 . S
O347 C335 1.256 . S
H348 C321 0.930 . S
H349 C322 0.931 . S
H350 C324 0.934 . S
H351 C325 0.930 . S
H352 C330 0.930 . S
H353 C331 0.931 . S
H354 C333 0.934 . S
H355 C334 0.930 . S
Ho356 C359 2.811 . S
Ho356 O376 2.322 . S
Ho356 O378 2.378 . S
Ho356 O379 2.524 . S
Ho356 O380 2.381 . S
Ho356 O381 2.669 . S
Ho356 O383 2.346 . S
Ho356 O387 2.305 . S
Ho357 C368 2.811 . S
Ho357 O377 2.346 . S
Ho357 O381 2.305 . S
Ho357 O382 2.322 . S
Ho357 O384 2.378 . S
Ho357 O385 2.524 . S
Ho357 O386 2.381 . S
Ho357 O387 2.669 . S
C358 O376 1.259 . S
C358 O377 1.268 . S
C359 Ho356 2.811 . S
C359 C360 1.488 . S
C359 O378 1.215 . S
C359 O379 1.289 . S
C360 C359 1.488 . S
C360 C361 1.348 . S
C360 C365 1.413 . S
C361 C360 1.348 . S
C361 C362 1.442 . S
C361 H388 0.930 . S
C362 C361 1.442 . S
C362 C363 1.381 . S
C362 H389 0.931 . S
C363 C362 1.381 . S
C363 C364 1.321 . S
C364 C363 1.321 . S
C364 C365 1.403 . S
C364 H390 0.934 . S
C365 C360 1.413 . S
C365 C364 1.403 . S
C365 H391 0.930 . S
C366 O380 1.275 . S
C366 O381 1.256 . S
C367 O382 1.259 . S
C367 O383 1.268 . S
C368 Ho357 2.811 . S
C368 C369 1.488 . S
C368 O384 1.215 . S
C368 O385 1.289 . S
C369 C368 1.488 . S
C369 C370 1.348 . S
C369 C374 1.413 . S
C370 C369 1.348 . S
C370 C371 1.442 . S
C370 H392 0.930 . S
C371 C370 1.442 . S
C371 C372 1.381 . S
C371 H393 0.931 . S
C372 C371 1.381 . S
C372 C373 1.321 . S
C373 C372 1.321 . S
C373 C374 1.403 . S
C373 H394 0.934 . S
C374 C369 1.413 . S
C374 C373 1.403 . S
C374 H395 0.930 . S
C375 O386 1.275 . S
C375 O387 1.256 . S
O376 Ho356 2.322 . S
O376 C358 1.259 . S
O377 Ho357 2.346 . S
O377 C358 1.268 . S
O378 Ho356 2.378 . S
O378 C359 1.215 . S
O379 Ho356 2.524 . S
O379 C359 1.289 . S
O380 Ho356 2.381 . S
O380 C366 1.275 . S
O381 Ho356 2.669 . S
O381 Ho357 2.305 . S
O381 C366 1.256 . S
O382 Ho357 2.322 . S
O382 C367 1.259 . S
O383 Ho356 2.346 . S
O383 C367 1.268 . S
O384 Ho357 2.378 . S
O384 C368 1.215 . S
O385 Ho357 2.524 . S
O385 C368 1.289 . S
O386 Ho357 2.381 . S
O386 C375 1.275 . S
O387 Ho356 2.305 . S
O387 Ho357 2.669 . S
O387 C375 1.256 . S
H388 C361 0.930 . S
H389 C362 0.931 . S
H390 C364 0.934 . S
H391 C365 0.930 . S
H392 C370 0.930 . S
H393 C371 0.931 . S
H394 C373 0.934 . S
H395 C374 0.930 . S
Ho396 C399 2.811 . S
Ho396 O416 2.322 . S
Ho396 O418 2.378 . S
Ho396 O419 2.524 . S
Ho396 O420 2.381 . S
Ho396 O421 2.669 . S
Ho396 O423 2.346 . S
Ho396 O427 2.305 . S
Ho397 C408 2.811 . S
Ho397 O417 2.346 . S
Ho397 O421 2.305 . S
Ho397 O422 2.322 . S
Ho397 O424 2.378 . S
Ho397 O425 2.524 . S
Ho397 O426 2.381 . S
Ho397 O427 2.669 . S
C398 O416 1.259 . S
C398 O417 1.268 . S
C399 Ho396 2.811 . S
C399 C400 1.488 . S
C399 O418 1.215 . S
C399 O419 1.289 . S
C400 C399 1.488 . S
C400 C401 1.348 . S
C400 C405 1.413 . S
C401 C400 1.348 . S
C401 C402 1.442 . S
C401 H428 0.930 . S
C402 C401 1.442 . S
C402 C403 1.381 . S
C402 H429 0.931 . S
C403 C402 1.381 . S
C403 C404 1.321 . S
C404 C403 1.321 . S
C404 C405 1.403 . S
C404 H430 0.934 . S
C405 C400 1.413 . S
C405 C404 1.403 . S
C405 H431 0.930 . S
C406 O420 1.275 . S
C406 O421 1.256 . S
C407 O422 1.259 . S
C407 O423 1.268 . S
C408 Ho397 2.811 . S
C408 C409 1.488 . S
C408 O424 1.215 . S
C408 O425 1.289 . S
C409 C408 1.488 . S
C409 C410 1.348 . S
C409 C414 1.413 . S
C410 C409 1.348 . S
C410 C411 1.442 . S
C410 H432 0.930 . S
C411 C410 1.442 . S
C411 C412 1.381 . S
C411 H433 0.931 . S
C412 C411 1.381 . S
C412 C413 1.321 . S
C413 C412 1.321 . S
C413 C414 1.403 . S
C413 H434 0.934 . S
C414 C409 1.413 . S
C414 C413 1.403 . S
C414 H435 0.930 . S
C415 O426 1.275 . S
C415 O427 1.256 . S
O416 Ho396 2.322 . S
O416 C398 1.259 . S
O417 Ho397 2.346 . S
O417 C398 1.268 . S
O418 Ho396 2.378 . S
O418 C399 1.215 . S
O419 Ho396 2.524 . S
O419 C399 1.289 . S
O420 Ho396 2.381 . S
O420 C406 1.275 . S
O421 Ho396 2.669 . S
O421 Ho397 2.305 . S
O421 C406 1.256 . S
O422 Ho397 2.322 . S
O422 C407 1.259 . S
O423 Ho396 2.346 . S
O423 C407 1.268 . S
O424 Ho397 2.378 . S
O424 C408 1.215 . S
O425 Ho397 2.524 . S
O425 C408 1.289 . S
O426 Ho397 2.381 . S
O426 C415 1.275 . S
O427 Ho396 2.305 . S
O427 Ho397 2.669 . S
O427 C415 1.256 . S
H428 C401 0.930 . S
H429 C402 0.931 . S
H430 C404 0.934 . S
H431 C405 0.930 . S
H432 C410 0.930 . S
H433 C411 0.931 . S
H434 C413 0.934 . S
H435 C414 0.930 . S
Ho436 C439 2.811 . S
Ho436 O456 2.322 . S
Ho436 O458 2.378 . S
Ho436 O459 2.524 . S
Ho436 O460 2.381 . S
Ho436 O461 2.669 . S
Ho436 O463 2.346 . S
Ho436 O467 2.305 . S
Ho437 C448 2.811 . S
Ho437 O457 2.346 . S
Ho437 O461 2.305 . S
Ho437 O462 2.322 . S
Ho437 O464 2.378 . S
Ho437 O465 2.524 . S
Ho437 O466 2.381 . S
Ho437 O467 2.669 . S
C438 O456 1.259 . S
C438 O457 1.268 . S
C439 Ho436 2.811 . S
C439 C440 1.488 . S
C439 O458 1.215 . S
C439 O459 1.289 . S
C440 C439 1.488 . S
C440 C441 1.348 . S
C440 C445 1.413 . S
C441 C440 1.348 . S
C441 C442 1.442 . S
C441 H468 0.930 . S
C442 C441 1.442 . S
C442 C443 1.381 . S
C442 H469 0.931 . S
C443 C442 1.381 . S
C443 C444 1.321 . S
C444 C443 1.321 . S
C444 C445 1.403 . S
C444 H470 0.934 1_556 S
C445 C440 1.413 . S
C445 C444 1.403 . S
C445 H471 0.930 . S
C446 O460 1.275 . S
C446 O461 1.256 . S
C447 O462 1.259 . S
C447 O463 1.268 . S
C448 Ho437 2.811 . S
C448 C449 1.488 . S
C448 O464 1.215 . S
C448 O465 1.289 . S
C449 C448 1.488 . S
C449 C450 1.348 . S
C449 C454 1.413 . S
C450 C449 1.348 . S
C450 C451 1.442 . S
C450 H472 0.930 . S
C451 C450 1.442 . S
C451 C452 1.381 . S
C451 H473 0.931 . S
C452 C451 1.381 . S
C452 C453 1.321 . S
C453 C452 1.321 . S
C453 C454 1.403 . S
C453 H474 0.934 . S
C454 C449 1.413 . S
C454 C453 1.403 . S
C454 H475 0.930 . S
C455 O466 1.275 . S
C455 O467 1.256 . S
O456 Ho436 2.322 . S
O456 C438 1.259 . S
O457 Ho437 2.346 . S
O457 C438 1.268 . S
O458 Ho436 2.378 . S
O458 C439 1.215 . S
O459 Ho436 2.524 . S
O459 C439 1.289 . S
O460 Ho436 2.381 . S
O460 C446 1.275 . S
O461 Ho436 2.669 . S
O461 Ho437 2.305 . S
O461 C446 1.256 . S
O462 Ho437 2.322 . S
O462 C447 1.259 . S
O463 Ho436 2.346 . S
O463 C447 1.268 . S
O464 Ho437 2.378 . S
O464 C448 1.215 . S
O465 Ho437 2.524 . S
O465 C448 1.289 . S
O466 Ho437 2.381 . S
O466 C455 1.275 . S
O467 Ho436 2.305 . S
O467 Ho437 2.669 . S
O467 C455 1.256 . S
H468 C441 0.930 . S
H469 C442 0.931 . S
H470 C444 0.934 1_554 S
H471 C445 0.930 . S
H472 C450 0.930 . S
H473 C451 0.931 . S
H474 C453 0.934 . S
H475 C454 0.930 . S
Ho476 C479 2.811 . S
Ho476 O496 2.322 . S
Ho476 O498 2.378 . S
Ho476 O499 2.524 . S
Ho476 O500 2.381 . S
Ho476 O501 2.669 . S
Ho476 O503 2.346 . S
Ho476 O507 2.305 . S
Ho477 C488 2.811 . S
Ho477 O497 2.346 . S
Ho477 O501 2.305 . S
Ho477 O502 2.322 . S
Ho477 O504 2.378 . S
Ho477 O505 2.524 . S
Ho477 O506 2.381 . S
Ho477 O507 2.669 . S
C478 O496 1.259 . S
C478 O497 1.268 . S
C479 Ho476 2.811 . S
C479 C480 1.488 . S
C479 O498 1.215 . S
C479 O499 1.289 . S
C480 C479 1.488 . S
C480 C481 1.348 . S
C480 C485 1.413 . S
C481 C480 1.348 . S
C481 C482 1.442 . S
C481 H508 0.930 . S
C482 C481 1.442 . S
C482 C483 1.381 . S
C482 H509 0.931 . S
C483 C482 1.381 . S
C483 C484 1.321 . S
C484 C483 1.321 . S
C484 C485 1.403 . S
C484 H510 0.934 . S
C485 C480 1.413 . S
C485 C484 1.403 . S
C485 H511 0.930 . S
C486 O500 1.275 . S
C486 O501 1.256 . S
C487 O502 1.259 . S
C487 O503 1.268 . S
C488 Ho477 2.811 . S
C488 C489 1.488 . S
C488 O504 1.215 . S
C488 O505 1.289 . S
C489 C488 1.488 . S
C489 C490 1.348 . S
C489 C494 1.413 . S
C490 C489 1.348 . S
C490 C491 1.442 . S
C490 H512 0.930 . S
C491 C490 1.442 . S
C491 C492 1.381 . S
C491 H513 0.931 . S
C492 C491 1.381 . S
C492 C493 1.321 . S
C493 C492 1.321 . S
C493 C494 1.403 . S
C493 H514 0.934 . S
C494 C489 1.413 . S
C494 C493 1.403 . S
C494 H515 0.930 . S
C495 O506 1.275 . S
C495 O507 1.256 . S
O496 Ho476 2.322 . S
O496 C478 1.259 . S
O497 Ho477 2.346 . S
O497 C478 1.268 . S
O498 Ho476 2.378 . S
O498 C479 1.215 . S
O499 Ho476 2.524 . S
O499 C479 1.289 . S
O500 Ho476 2.381 . S
O500 C486 1.275 . S
O501 Ho476 2.669 . S
O501 Ho477 2.305 . S
O501 C486 1.256 . S
O502 Ho477 2.322 . S
O502 C487 1.259 . S
O503 Ho476 2.346 . S
O503 C487 1.268 . S
O504 Ho477 2.378 . S
O504 C488 1.215 . S
O505 Ho477 2.524 . S
O505 C488 1.289 . S
O506 Ho477 2.381 . S
O506 C495 1.275 . S
O507 Ho476 2.305 . S
O507 Ho477 2.669 . S
O507 C495 1.256 . S
H508 C481 0.930 . S
H509 C482 0.931 . S
H510 C484 0.934 . S
H511 C485 0.930 . S
H512 C490 0.930 . S
H513 C491 0.931 . S
H514 C493 0.934 . S
H515 C494 0.930 . S
Ho516 C519 2.811 . S
Ho516 O536 2.322 . S
Ho516 O538 2.378 . S
Ho516 O539 2.524 . S
Ho516 O540 2.381 . S
Ho516 O541 2.669 . S
Ho516 O543 2.346 . S
Ho516 O547 2.305 . S
Ho517 C528 2.811 . S
Ho517 O537 2.346 . S
Ho517 O541 2.305 . S
Ho517 O542 2.322 . S
Ho517 O544 2.378 . S
Ho517 O545 2.524 . S
Ho517 O546 2.381 . S
Ho517 O547 2.669 . S
C518 O536 1.259 . S
C518 O537 1.268 . S
C519 Ho516 2.811 . S
C519 C520 1.488 . S
C519 O538 1.215 . S
C519 O539 1.289 . S
C520 C519 1.488 . S
C520 C521 1.348 . S
C520 C525 1.413 . S
C521 C520 1.348 . S
C521 C522 1.442 . S
C521 H548 0.930 . S
C522 C521 1.442 . S
C522 C523 1.381 . S
C522 H549 0.931 . S
C523 C522 1.381 . S
C523 C524 1.321 . S
C524 C523 1.321 . S
C524 C525 1.403 . S
C524 H550 0.934 . S
C525 C520 1.413 . S
C525 C524 1.403 . S
C525 H551 0.930 . S
C526 O540 1.275 . S
C526 O541 1.256 . S
C527 O542 1.259 . S
C527 O543 1.268 . S
C528 Ho517 2.811 . S
C528 C529 1.488 . S
C528 O544 1.215 . S
C528 O545 1.289 . S
C529 C528 1.488 . S
C529 C530 1.348 . S
C529 C534 1.413 . S
C530 C529 1.348 . S
C530 C531 1.442 . S
C530 H552 0.930 . S
C531 C530 1.442 . S
C531 C532 1.381 . S
C531 H553 0.931 . S
C532 C531 1.381 . S
C532 C533 1.321 . S
C533 C532 1.321 . S
C533 C534 1.403 . S
C533 H554 0.934 1_556 S
C534 C529 1.413 . S
C534 C533 1.403 . S
C534 H555 0.930 . S
C535 O546 1.275 . S
C535 O547 1.256 . S
O536 Ho516 2.322 . S
O536 C518 1.259 . S
O537 Ho517 2.346 . S
O537 C518 1.268 . S
O538 Ho516 2.378 . S
O538 C519 1.215 . S
O539 Ho516 2.524 . S
O539 C519 1.289 . S
O540 Ho516 2.381 . S
O540 C526 1.275 . S
O541 Ho516 2.669 . S
O541 Ho517 2.305 . S
O541 C526 1.256 . S
O542 Ho517 2.322 . S
O542 C527 1.259 . S
O543 Ho516 2.346 . S
O543 C527 1.268 . S
O544 Ho517 2.378 . S
O544 C528 1.215 . S
O545 Ho517 2.524 . S
O545 C528 1.289 . S
O546 Ho517 2.381 . S
O546 C535 1.275 . S
O547 Ho516 2.305 . S
O547 Ho517 2.669 . S
O547 C535 1.256 . S
H548 C521 0.930 . S
H549 C522 0.931 . S
H550 C524 0.934 . S
H551 C525 0.930 . S
H552 C530 0.930 . S
H553 C531 0.931 . S
H554 C533 0.934 1_554 S
H555 C534 0.930 . S
Ho556 C559 2.811 . S
Ho556 O576 2.322 . S
Ho556 O578 2.378 . S
Ho556 O579 2.524 . S
Ho556 O580 2.381 . S
Ho556 O581 2.669 . S
Ho556 O583 2.346 . S
Ho556 O587 2.305 . S
Ho557 C568 2.811 . S
Ho557 O577 2.346 . S
Ho557 O581 2.305 . S
Ho557 O582 2.322 . S
Ho557 O584 2.378 . S
Ho557 O585 2.524 . S
Ho557 O586 2.381 . S
Ho557 O587 2.669 . S
C558 O576 1.259 . S
C558 O577 1.268 . S
C559 Ho556 2.811 . S
C559 C560 1.488 . S
C559 O578 1.215 . S
C559 O579 1.289 . S
C560 C559 1.488 . S
C560 C561 1.348 . S
C560 C565 1.413 . S
C561 C560 1.348 . S
C561 C562 1.442 . S
C561 H588 0.930 . S
C562 C561 1.442 . S
C562 C563 1.381 . S
C562 H589 0.931 . S
C563 C562 1.381 . S
C563 C564 1.321 . S
C564 C563 1.321 . S
C564 C565 1.403 . S
C564 H590 0.934 . S
C565 C560 1.413 . S
C565 C564 1.403 . S
C565 H591 0.930 . S
C566 O580 1.275 . S
C566 O581 1.256 . S
C567 O582 1.259 . S
C567 O583 1.268 . S
C568 Ho557 2.811 . S
C568 C569 1.488 . S
C568 O584 1.215 . S
C568 O585 1.289 . S
C569 C568 1.488 . S
C569 C570 1.348 . S
C569 C574 1.413 . S
C570 C569 1.348 . S
C570 C571 1.442 . S
C570 H592 0.930 . S
C571 C570 1.442 . S
C571 C572 1.381 . S
C571 H593 0.931 . S
C572 C571 1.381 . S
C572 C573 1.321 . S
C573 C572 1.321 . S
C573 C574 1.403 . S
C573 H594 0.934 . S
C574 C569 1.413 . S
C574 C573 1.403 . S
C574 H595 0.930 . S
C575 O586 1.275 . S
C575 O587 1.256 . S
O576 Ho556 2.322 . S
O576 C558 1.259 . S
O577 Ho557 2.346 . S
O577 C558 1.268 . S
O578 Ho556 2.378 . S
O578 C559 1.215 . S
O579 Ho556 2.524 . S
O579 C559 1.289 . S
O580 Ho556 2.381 . S
O580 C566 1.275 . S
O581 Ho556 2.669 . S
O581 Ho557 2.305 . S
O581 C566 1.256 . S
O582 Ho557 2.322 . S
O582 C567 1.259 . S
O583 Ho556 2.346 . S
O583 C567 1.268 . S
O584 Ho557 2.378 . S
O584 C568 1.215 . S
O585 Ho557 2.524 . S
O585 C568 1.289 . S
O586 Ho557 2.381 . S
O586 C575 1.275 . S
O587 Ho556 2.305 . S
O587 Ho557 2.669 . S
O587 C575 1.256 . S
H588 C561 0.930 . S
H589 C562 0.931 . S
H590 C564 0.934 . S
H591 C565 0.930 . S
H592 C570 0.930 . S
H593 C571 0.931 . S
H594 C573 0.934 . S
H595 C574 0.930 . S
C596 C597 1.387 . S
C596 H600 0.950 . S
C596 C605 1.390 . S
C597 C596 1.387 . S
C597 C599 1.387 . S
H598 C605 0.950 . S
C599 C597 1.387 . S
C599 C601 1.390 . S
C599 H603 0.950 . S
H600 C596 0.950 . S
C601 C599 1.390 . S
C601 C602 1.387 . S
C601 H604 0.950 . S
C602 C601 1.387 . S
C602 C605 1.387 . S
H603 C599 0.950 . S
H604 C601 0.950 . S
C605 C596 1.390 . S
C605 H598 0.950 . S
C605 C602 1.387 . S
C606 C607 1.387 . S
C606 H610 0.950 . S
C606 C615 1.390 . S
C607 C606 1.387 . S
C607 C609 1.387 . S
H608 C615 0.950 . S
C609 C607 1.387 . S
C609 C611 1.390 . S
C609 H613 0.950 . S
H610 C606 0.950 . S
C611 C609 1.390 . S
C611 C612 1.387 . S
C611 H614 0.950 . S
C612 C611 1.387 . S
C612 C615 1.387 . S
H613 C609 0.950 . S
H614 C611 0.950 . S
C615 C606 1.390 . S
C615 H608 0.950 . S
C615 C612 1.387 . S
C616 C617 1.387 . S
C616 H620 0.950 . S
C616 C625 1.390 . S
C617 C616 1.387 . S
C617 C619 1.387 . S
H618 C625 0.950 . S
C619 C617 1.387 . S
C619 C621 1.390 . S
C619 H623 0.950 . S
H620 C616 0.950 . S
C621 C619 1.390 . S
C621 C622 1.387 . S
C621 H624 0.950 . S
C622 C621 1.387 . S
C622 C625 1.387 . S
H623 C619 0.950 . S
H624 C621 0.950 . S
C625 C616 1.390 . S
C625 H618 0.950 . S
C625 C622 1.387 . S
C626 C627 1.387 . S
C626 H630 0.950 . S
C626 C635 1.390 . S
C627 C626 1.387 . S
C627 C629 1.387 . S
H628 C635 0.950 . S
C629 C627 1.387 . S
C629 C631 1.390 . S
C629 H633 0.950 . S
H630 C626 0.950 . S
C631 C629 1.390 . S
C631 C632 1.387 . S
C631 H634 0.950 . S
C632 C631 1.387 . S
C632 C635 1.387 . S
H633 C629 0.950 . S
H634 C631 0.950 . S
C635 C626 1.390 . S
C635 H628 0.950 . S
C635 C632 1.387 . S
C636 C637 1.387 . S
C636 H640 0.950 . S
C636 C645 1.390 . S
C637 C636 1.387 . S
C637 C639 1.387 . S
H638 C645 0.950 . S
C639 C637 1.387 . S
C639 C641 1.390 . S
C639 H643 0.950 . S
H640 C636 0.950 . S
C641 C639 1.390 . S
C641 C642 1.387 . S
C641 H644 0.950 . S
C642 C641 1.387 . S
C642 C645 1.387 . S
H643 C639 0.950 . S
H644 C641 0.950 . S
C645 C636 1.390 . S
C645 H638 0.950 . S
C645 C642 1.387 . S
C646 C647 1.387 . S
C646 H650 0.950 . S
C646 C655 1.390 . S
C647 C646 1.387 . S
C647 C649 1.387 . S
H648 C655 0.950 . S
C649 C647 1.387 . S
C649 C651 1.390 . S
C649 H653 0.950 . S
H650 C646 0.950 . S
C651 C649 1.390 . S
C651 C652 1.387 . S
C651 H654 0.950 . S
C652 C651 1.387 . S
C652 C655 1.387 . S
H653 C649 0.950 . S
H654 C651 0.950 . S
C655 C646 1.390 . S
C655 H648 0.950 . S
C655 C652 1.387 . S
C656 C657 1.387 . S
C656 H660 0.950 . S
C656 C665 1.390 . S
C657 C656 1.387 . S
C657 C659 1.387 . S
H658 C665 0.950 . S
C659 C657 1.387 . S
C659 C661 1.390 . S
C659 H663 0.950 . S
H660 C656 0.950 . S
C661 C659 1.390 . S
C661 C662 1.387 . S
C661 H664 0.950 . S
C662 C661 1.387 . S
C662 C665 1.387 . S
H663 C659 0.950 . S
H664 C661 0.950 . S
C665 C656 1.390 . S
C665 H658 0.950 . S
C665 C662 1.387 . S
C666 C667 1.387 1_565 S
C666 H670 0.950 . S
C666 C675 1.390 . S
C667 C666 1.387 1_545 S
C667 C669 1.387 . S
H668 C675 0.950 . S
C669 C667 1.387 . S
C669 C671 1.390 . S
C669 H673 0.950 . S
H670 C666 0.950 . S
C671 C669 1.390 . S
C671 C672 1.387 1_545 S
C671 H674 0.950 . S
C672 C671 1.387 1_565 S
C672 C675 1.387 . S
H673 C669 0.950 . S
H674 C671 0.950 . S
C675 C666 1.390 . S
C675 H668 0.950 . S
C675 C672 1.387 . S
C676 C677 1.387 . S
C676 H680 0.950 . S
C676 C685 1.390 . S
C677 C676 1.387 . S
C677 C679 1.387 . S
H678 C685 0.950 . S
C679 C677 1.387 . S
C679 C681 1.390 . S
C679 H683 0.950 . S
H680 C676 0.950 . S
C681 C679 1.390 . S
C681 C682 1.387 . S
C681 H684 0.950 . S
C682 C681 1.387 . S
C682 C685 1.387 . S
H683 C679 0.950 . S
H684 C681 0.950 . S
C685 C676 1.390 . S
C685 H678 0.950 . S
C685 C682 1.387 . S
C686 C687 1.387 . S
C686 H690 0.950 . S
C686 C695 1.390 . S
C687 C686 1.387 . S
C687 C689 1.387 . S
H688 C695 0.950 . S
C689 C687 1.387 . S
C689 C691 1.390 . S
C689 H693 0.950 . S
H690 C686 0.950 . S
C691 C689 1.390 . S
C691 C692 1.387 . S
C691 H694 0.950 . S
C692 C691 1.387 . S
C692 C695 1.387 . S
H693 C689 0.950 . S
H694 C691 0.950 . S
C695 C686 1.390 . S
C695 H688 0.950 . S
C695 C692 1.387 . S
C696 C697 1.387 . S
C696 H700 0.950 . S
C696 C705 1.390 . S
C697 C696 1.387 . S
C697 C699 1.387 . S
H698 C705 0.950 . S
C699 C697 1.387 . S
C699 C701 1.390 . S
C699 H703 0.950 . S
H700 C696 0.950 . S
C701 C699 1.390 . S
C701 C702 1.387 . S
C701 H704 0.950 . S
C702 C701 1.387 . S
C702 C705 1.387 . S
H703 C699 0.950 . S
H704 C701 0.950 . S
C705 C696 1.390 . S
C705 H698 0.950 . S
C705 C702 1.387 . S
C706 C707 1.387 . S
C706 H710 0.950 . S
C706 C715 1.390 . S
C707 C706 1.387 . S
C707 C709 1.387 . S
H708 C715 0.950 . S
C709 C707 1.387 . S
C709 C711 1.390 . S
C709 H713 0.950 . S
H710 C706 0.950 . S
C711 C709 1.390 . S
C711 C712 1.387 . S
C711 H714 0.950 . S
C712 C711 1.387 . S
C712 C715 1.387 . S
H713 C709 0.950 . S
H714 C711 0.950 . S
C715 C706 1.390 . S
C715 H708 0.950 . S
C715 C712 1.387 . S
C716 C717 1.387 1_556 S
C716 H720 0.950 . S
C716 C725 1.390 1_545 S
C717 C716 1.387 1_554 S
C717 C719 1.387 1_545 S
H718 C725 0.950 1_545 S
C719 C717 1.387 1_565 S
C719 C721 1.390 . S
C719 H723 0.950 . S
H720 C716 0.950 . S
C721 C719 1.390 . S
C721 C722 1.387 . S
C721 H724 0.950 . S
C722 C721 1.387 . S
C722 C725 1.387 1_554 S
H723 C719 0.950 . S
H724 C721 0.950 . S
C725 C716 1.390 1_565 S
C725 H718 0.950 1_565 S
C725 C722 1.387 1_556 S
C726 C727 1.387 . S
C726 H730 0.950 . S
C726 C735 1.390 . S
C727 C726 1.387 . S
C727 C729 1.387 . S
H728 C735 0.950 . S
C729 C727 1.387 . S
C729 C731 1.390 . S
C729 H733 0.950 . S
H730 C726 0.950 . S
C731 C729 1.390 . S
C731 C732 1.387 . S
C731 H734 0.950 . S
C732 C731 1.387 . S
C732 C735 1.387 . S
H733 C729 0.950 . S
H734 C731 0.950 . S
C735 C726 1.390 . S
C735 H728 0.950 . S
C735 C732 1.387 . S
C736 C737 1.387 . S
C736 H740 0.950 . S
C736 C745 1.390 . S
C737 C736 1.387 . S
C737 C739 1.387 . S
H738 C745 0.950 . S
C739 C737 1.387 . S
C739 C741 1.390 . S
C739 H743 0.950 . S
H740 C736 0.950 . S
C741 C739 1.390 . S
C741 C742 1.387 . S
C741 H744 0.950 . S
C742 C741 1.387 . S
C742 C745 1.387 . S
H743 C739 0.950 . S
H744 C741 0.950 . S
C745 C736 1.390 . S
C745 H738 0.950 . S
C745 C742 1.387 . S
C746 C747 1.387 . S
C746 H750 0.950 . S
C746 C755 1.390 . S
C747 C746 1.387 . S
C747 C749 1.387 . S
H748 C755 0.950 . S
C749 C747 1.387 . S
C749 C751 1.390 . S
C749 H753 0.950 . S
H750 C746 0.950 . S
C751 C749 1.390 . S
C751 C752 1.387 . S
C751 H754 0.950 . S
C752 C751 1.387 . S
C752 C755 1.387 . S
H753 C749 0.950 . S
H754 C751 0.950 . S
C755 C746 1.390 . S
C755 H748 0.950 . S
C755 C752 1.387 . S
C756 C757 1.387 . S
C756 H760 0.950 . S
C756 C765 1.390 . S
C757 C756 1.387 . S
C757 C759 1.387 . S
H758 C765 0.950 . S
C759 C757 1.387 . S
C759 C761 1.390 . S
C759 H763 0.950 . S
H760 C756 0.950 . S
C761 C759 1.390 . S
C761 C762 1.387 . S
C761 H764 0.950 . S
C762 C761 1.387 . S
C762 C765 1.387 . S
H763 C759 0.950 . S
H764 C761 0.950 . S
C765 C756 1.390 . S
C765 H758 0.950 . S
C765 C762 1.387 . S
C766 C767 1.387 . S
C766 H770 0.950 . S
C766 C775 1.390 . S
C767 C766 1.387 . S
C767 C769 1.387 . S
H768 C775 0.950 . S
C769 C767 1.387 . S
C769 C771 1.390 . S
C769 H773 0.950 . S
H770 C766 0.950 . S
C771 C769 1.390 . S
C771 C772 1.387 . S
C771 H774 0.950 . S
C772 C771 1.387 . S
C772 C775 1.387 . S
H773 C769 0.950 . S
H774 C771 0.950 . S
C775 C766 1.390 . S
C775 H768 0.950 . S
C775 C772 1.387 . S
C776 C777 1.387 1_556 S
C776 H780 0.950 . S
C776 C785 1.390 . S
C777 C776 1.387 1_554 S
C777 C779 1.387 . S
H778 C785 0.950 . S
C779 C777 1.387 . S
C779 C781 1.390 1_554 S
C779 H783 0.950 . S
H780 C776 0.950 . S
C781 C779 1.390 1_556 S
C781 C782 1.387 . S
C781 H784 0.950 . S
C782 C781 1.387 . S
C782 C785 1.387 . S
H783 C779 0.950 . S
H784 C781 0.950 . S
C785 C776 1.390 . S
C785 H778 0.950 . S
C785 C782 1.387 . S
C786 C787 1.387 . S
C786 H790 0.950 . S
C786 C795 1.390 1_455 S
C787 C786 1.387 . S
C787 C789 1.399 1_554 S
H788 C795 0.950 . S
C789 C787 1.399 1_556 S
C789 C791 1.366 1_455 S
C789 H793 0.963 . S
H790 C786 0.950 . S
C791 C789 1.366 1_655 S
C791 C792 1.387 1_556 S
C791 H794 0.950 . S
C792 C791 1.387 1_554 S
C792 C795 1.387 . S
H793 C789 0.963 . S
H794 C791 0.950 . S
C795 C786 1.390 1_655 S
C795 H788 0.950 . S
C795 C792 1.387 . S
C796 C797 1.387 . S
C796 H800 0.950 . S
C796 C805 1.390 . S
C797 C796 1.387 . S
C797 C799 1.387 . S
H798 C805 0.950 . S
C799 C797 1.387 . S
C799 C801 1.390 . S
C799 H803 0.950 . S
H800 C796 0.950 . S
C801 C799 1.390 . S
C801 C802 1.387 . S
C801 H804 0.950 . S
C802 C801 1.387 . S
C802 C805 1.387 . S
H803 C799 0.950 . S
H804 C801 0.950 . S
C805 C796 1.390 . S
C805 H798 0.950 . S
C805 C802 1.387 . S
C806 C807 1.387 . S
C806 H810 0.950 . S
C806 C815 1.390 . S
C807 C806 1.387 . S
C807 C809 1.387 . S
H808 C815 0.950 . S
C809 C807 1.387 . S
C809 C811 1.390 . S
C809 H813 0.950 . S
H810 C806 0.950 . S
C811 C809 1.390 . S
C811 C812 1.387 . S
C811 H814 0.950 . S
C812 C811 1.387 . S
C812 C815 1.387 . S
H813 C809 0.950 . S
H814 C811 0.950 . S
C815 C806 1.390 . S
C815 H808 0.950 . S
C815 C812 1.387 . S
C816 C817 1.387 1_565 S
C816 H820 0.950 . S
C816 C825 1.390 . S
C817 C816 1.387 1_545 S
C817 C819 1.387 1_545 S
H818 C825 0.950 . S
C819 C817 1.387 1_565 S
C819 C821 1.390 . S
C819 H823 0.950 1_565 S
H820 C816 0.950 . S
C821 C819 1.390 . S
C821 C822 1.387 . S
C821 H824 0.950 . S
C822 C821 1.387 . S
C822 C825 1.387 . S
H823 C819 0.950 1_545 S
H824 C821 0.950 . S
C825 C816 1.390 . S
C825 H818 0.950 . S
C825 C822 1.387 . S
C826 C827 1.387 . S
C826 H830 0.950 . S
C826 C835 1.390 . S
C827 C826 1.387 . S
C827 C829 1.387 . S
H828 C835 0.950 . S
C829 C827 1.387 . S
C829 C831 1.390 . S
C829 H833 0.950 . S
H830 C826 0.950 . S
C831 C829 1.390 . S
C831 C832 1.387 . S
C831 H834 0.950 . S
C832 C831 1.387 . S
C832 C835 1.387 . S
H833 C829 0.950 . S
H834 C831 0.950 . S
C835 C826 1.390 . S
C835 H828 0.950 . S
C835 C832 1.387 . S
C836 C837 1.387 . S
C836 H840 0.950 . S
C836 C845 1.390 . S
C837 C836 1.387 . S
C837 C839 1.387 . S
H838 C845 0.950 . S
C839 C837 1.387 . S
C839 C841 1.390 . S
C839 H843 0.950 . S
H840 C836 0.950 . S
C841 C839 1.390 . S
C841 C842 1.387 . S
C841 H844 0.950 . S
C842 C841 1.387 . S
C842 C845 1.387 . S
H843 C839 0.950 . S
H844 C841 0.950 . S
C845 C836 1.390 . S
C845 H838 0.950 . S
C845 C842 1.387 . S
C846 C847 1.387 . S
C846 H850 0.950 . S
C846 C855 1.390 . S
C847 C846 1.387 . S
C847 C849 1.387 . S
H848 C855 0.950 . S
C849 C847 1.387 . S
C849 C851 1.390 . S
C849 H853 0.950 . S
H850 C846 0.950 . S
C851 C849 1.390 . S
C851 C852 1.387 . S
C851 H854 0.950 . S
C852 C851 1.387 . S
C852 C855 1.387 . S
H853 C849 0.950 . S
H854 C851 0.950 . S
C855 C846 1.390 . S
C855 H848 0.950 . S
C855 C852 1.387 . S
C856 C857 1.387 . S
C856 H860 0.950 . S
C856 C865 1.390 . S
C857 C856 1.387 . S
C857 C859 1.387 . S
H858 C865 0.950 . S
C859 C857 1.387 . S
C859 C861 1.390 . S
C859 H863 0.950 . S
H860 C856 0.950 . S
C861 C859 1.390 . S
C861 C862 1.387 . S
C861 H864 0.950 . S
C862 C861 1.387 . S
C862 C865 1.387 . S
H863 C859 0.950 . S
H864 C861 0.950 . S
C865 C856 1.390 . S
C865 H858 0.950 . S
C865 C862 1.387 . S
C866 C867 1.387 . S
C866 H870 0.950 . S
C866 C875 1.390 . S
C867 C866 1.387 . S
C867 C869 1.387 . S
H868 C875 0.950 . S
C869 C867 1.387 . S
C869 C871 1.390 . S
C869 H873 0.950 . S
H870 C866 0.950 . S
C871 C869 1.390 . S
C871 C872 1.387 . S
C871 H874 0.950 . S
C872 C871 1.387 . S
C872 C875 1.387 . S
H873 C869 0.950 . S
H874 C871 0.950 . S
C875 C866 1.390 . S
C875 H868 0.950 . S
C875 C872 1.387 . S
C876 C877 1.387 . S
C876 H880 0.950 . S
C876 C885 1.390 . S
C877 C876 1.387 . S
C877 C879 1.387 . S
H878 C885 0.950 . S
C879 C877 1.387 . S
C879 C881 1.390 . S
C879 H883 0.950 . S
H880 C876 0.950 . S
C881 C879 1.390 . S
C881 C882 1.387 . S
C881 H884 0.950 . S
C882 C881 1.387 . S
C882 C885 1.387 . S
H883 C879 0.950 . S
H884 C881 0.950 . S
C885 C876 1.390 . S
C885 H878 0.950 . S
C885 C882 1.387 . S
C886 C887 1.387 . S
C886 H890 0.950 . S
C886 C895 1.390 . S
C887 C886 1.387 . S
C887 C889 1.387 . S
H888 C895 0.950 . S
C889 C887 1.387 . S
C889 C891 1.390 . S
C889 H893 0.950 . S
H890 C886 0.950 . S
C891 C889 1.390 . S
C891 C892 1.387 . S
C891 H894 0.950 . S
C892 C891 1.387 . S
C892 C895 1.387 . S
H893 C889 0.950 . S
H894 C891 0.950 . S
C895 C886 1.390 . S
C895 H888 0.950 . S
C895 C892 1.387 . S
C896 C897 1.387 . S
C896 H900 0.950 . S
C896 C905 1.390 . S
C897 C896 1.387 . S
C897 C899 1.387 . S
H898 C905 0.950 . S
C899 C897 1.387 . S
C899 C901 1.390 . S
C899 H903 0.950 . S
H900 C896 0.950 . S
C901 C899 1.390 . S
C901 C902 1.387 . S
C901 H904 0.950 . S
C902 C901 1.387 . S
C902 C905 1.387 . S
H903 C899 0.950 . S
H904 C901 0.950 . S
C905 C896 1.390 . S
C905 H898 0.950 . S
C905 C902 1.387 . S
C906 C907 1.387 . S
C906 H910 0.950 . S
C906 C915 1.390 . S
C907 C906 1.387 . S
C907 C909 1.387 . S
H908 C915 0.950 . S
C909 C907 1.387 . S
C909 C911 1.390 . S
C909 H913 0.950 . S
H910 C906 0.950 . S
C911 C909 1.390 . S
C911 C912 1.387 . S
C911 H914 0.950 . S
C912 C911 1.387 . S
C912 C915 1.387 . S
H913 C909 0.950 . S
H914 C911 0.950 . S
C915 C906 1.390 . S
C915 H908 0.950 . S
C915 C912 1.387 . S
C916 C917 1.387 . S
C916 H920 0.950 . S
C916 C925 1.390 . S
C917 C916 1.387 . S
C917 C919 1.387 . S
H918 C925 0.950 . S
C919 C917 1.387 . S
C919 C921 1.390 . S
C919 H923 0.950 . S
H920 C916 0.950 . S
C921 C919 1.390 . S
C921 C922 1.387 . S
C921 H924 0.950 . S
C922 C921 1.387 . S
C922 C925 1.387 . S
H923 C919 0.950 . S
H924 C921 0.950 . S
C925 C916 1.390 . S
C925 H918 0.950 . S
C925 C922 1.387 . S
C926 C927 1.387 . S
C926 H930 0.950 . S
C926 C935 1.390 . S
C927 C926 1.387 . S
C927 C929 1.387 . S
H928 C935 0.950 . S
C929 C927 1.387 . S
C929 C931 1.390 . S
C929 H933 0.950 . S
H930 C926 0.950 . S
C931 C929 1.390 . S
C931 C932 1.387 . S
C931 H934 0.950 . S
C932 C931 1.387 . S
C932 C935 1.387 . S
H933 C929 0.950 . S
H934 C931 0.950 . S
C935 C926 1.390 . S
C935 H928 0.950 . S
C935 C932 1.387 . S
C936 C937 1.387 . S
C936 H940 0.950 . S
C936 C945 1.390 . S
C937 C936 1.387 . S
C937 C939 1.387 . S
H938 C945 0.950 . S
C939 C937 1.387 . S
C939 C941 1.390 . S
C939 H943 0.950 . S
H940 C936 0.950 . S
C941 C939 1.390 . S
C941 C942 1.387 . S
C941 H944 0.950 . S
C942 C941 1.387 . S
C942 C945 1.387 . S
H943 C939 0.950 . S
H944 C941 0.950 . S
C945 C936 1.390 . S
C945 H938 0.950 . S
C945 C942 1.387 . S
C946 C947 1.387 . S
C946 H950 0.950 . S
C946 C955 1.390 . S
C947 C946 1.387 . S
C947 C949 1.387 . S
H948 C955 0.950 . S
C949 C947 1.387 . S
C949 C951 1.390 . S
C949 H953 0.950 . S
H950 C946 0.950 . S
C951 C949 1.390 . S
C951 C952 1.387 . S
C951 H954 0.950 . S
C952 C951 1.387 . S
C952 C955 1.387 . S
H953 C949 0.950 . S
H954 C951 0.950 . S
C955 C946 1.390 . S
C955 H948 0.950 . S
C955 C952 1.387 . S
C956 C957 1.387 . S
C956 H960 0.950 . S
C956 C965 1.390 . S
C957 C956 1.387 . S
C957 C959 1.387 . S
H958 C965 0.950 . S
C959 C957 1.387 . S
C959 C961 1.390 . S
C959 H963 0.950 . S
H960 C956 0.950 . S
C961 C959 1.390 . S
C961 C962 1.387 . S
C961 H964 0.950 . S
C962 C961 1.387 . S
C962 C965 1.387 . S
H963 C959 0.950 . S
H964 C961 0.950 . S
C965 C956 1.390 . S
C965 H958 0.950 . S
C965 C962 1.387 . S
C966 C967 1.387 . S
C966 H970 0.950 . S
C966 C975 1.390 . S
C967 C966 1.387 . S
C967 C969 1.387 . S
H968 C975 0.950 . S
C969 C967 1.387 . S
C969 C971 1.390 . S
C969 H973 0.950 . S
H970 C966 0.950 . S
C971 C969 1.390 . S
C971 C972 1.387 . S
C971 H974 0.950 . S
C972 C971 1.387 . S
C972 C975 1.387 . S
H973 C969 0.950 . S
H974 C971 0.950 . S
C975 C966 1.390 . S
C975 H968 0.950 . S
C975 C972 1.387 . S
C976 C977 1.387 . S
C976 H980 0.950 . S
C976 C985 1.390 . S
C977 C976 1.387 . S
C977 C979 1.387 . S
H978 C985 0.950 . S
C979 C977 1.387 . S
C979 C981 1.390 . S
C979 H983 0.950 . S
H980 C976 0.950 . S
C981 C979 1.390 . S
C981 C982 1.387 . S
C981 H984 0.950 . S
C982 C981 1.387 . S
C982 C985 1.387 . S
H983 C979 0.950 . S
H984 C981 0.950 . S
C985 C976 1.390 . S
C985 H978 0.950 . S
C985 C982 1.387 . S
C986 C987 1.387 . S
C986 H990 0.950 . S
C986 C995 1.390 . S
C987 C986 1.387 . S
C987 C989 1.387 . S
H988 C995 0.950 . S
C989 C987 1.387 . S
C989 C991 1.390 . S
C989 H993 0.950 . S
H990 C986 0.950 . S
C991 C989 1.390 . S
C991 C992 1.387 . S
C991 H994 0.950 . S
C992 C991 1.387 . S
C992 C995 1.387 . S
H993 C989 0.950 . S
H994 C991 0.950 . S
C995 C986 1.390 . S
C995 H988 0.950 . S
C995 C992 1.387 . S
C996 C997 1.387 . S
C996 H1000 0.950 . S
C996 C1005 1.390 . S
C997 C996 1.387 . S
C997 C999 1.387 . S
H998 C1005 0.950 . S
C999 C997 1.387 . S
C999 C1001 1.390 . S
C999 H1003 0.950 . S
H1000 C996 0.950 . S
C1001 C999 1.390 . S
C1001 C1002 1.387 . S
C1001 H1004 0.950 . S
C1002 C1001 1.387 . S
C1002 C1005 1.387 . S
H1003 C999 0.950 . S
H1004 C1001 0.950 . S
C1005 C996 1.390 . S
C1005 H998 0.950 . S
C1005 C1002 1.387 . S
C1006 C1007 1.387 . S
C1006 H1010 0.950 . S
C1006 C1015 1.390 . S
C1007 C1006 1.387 . S
C1007 C1009 1.387 . S
H1008 C1015 0.950 . S
C1009 C1007 1.387 . S
C1009 C1011 1.390 . S
C1009 H1013 0.950 . S
H1010 C1006 0.950 . S
C1011 C1009 1.390 . S
C1011 C1012 1.387 . S
C1011 H1014 0.950 . S
C1012 C1011 1.387 . S
C1012 C1015 1.387 . S
H1013 C1009 0.950 . S
H1014 C1011 0.950 . S
C1015 C1006 1.390 . S
C1015 H1008 0.950 . S
C1015 C1012 1.387 . S
C1016 C1017 1.387 . S
C1016 H1020 0.950 . S
C1016 C1025 1.390 . S
C1017 C1016 1.387 . S
C1017 C1019 1.387 . S
H1018 C1025 0.950 . S
C1019 C1017 1.387 . S
C1019 C1021 1.390 . S
C1019 H1023 0.950 . S
H1020 C1016 0.950 . S
C1021 C1019 1.390 . S
C1021 C1022 1.387 . S
C1021 H1024 0.950 . S
C1022 C1021 1.387 . S
C1022 C1025 1.387 . S
H1023 C1019 0.950 . S
H1024 C1021 0.950 . S
C1025 C1016 1.390 . S
C1025 H1018 0.950 . S
C1025 C1022 1.387 . S
C1026 C1027 1.387 . S
C1026 H1030 0.950 . S
C1026 C1035 1.390 . S
C1027 C1026 1.387 . S
C1027 C1029 1.387 . S
H1028 C1035 0.950 . S
C1029 C1027 1.387 . S
C1029 C1031 1.390 . S
C1029 H1033 0.950 . S
H1030 C1026 0.950 . S
C1031 C1029 1.390 . S
C1031 C1032 1.387 . S
C1031 H1034 0.950 . S
C1032 C1031 1.387 . S
C1032 C1035 1.387 . S
H1033 C1029 0.950 . S
H1034 C1031 0.950 . S
C1035 C1026 1.390 . S
C1035 H1028 0.950 . S
C1035 C1032 1.387 . S
C1036 C1037 1.387 . S
C1036 H1040 0.950 . S
C1036 C1045 1.390 . S
C1037 C1036 1.387 . S
C1037 C1039 1.387 . S
H1038 C1045 0.950 . S
C1039 C1037 1.387 . S
C1039 C1041 1.390 . S
C1039 H1043 0.950 . S
H1040 C1036 0.950 . S
C1041 C1039 1.390 . S
C1041 C1042 1.387 . S
C1041 H1044 0.950 . S
C1042 C1041 1.387 . S
C1042 C1045 1.387 . S
H1043 C1039 0.950 . S
H1044 C1041 0.950 . S
C1045 C1036 1.390 . S
C1045 H1038 0.950 . S
C1045 C1042 1.387 . S
C1046 C1047 1.387 . S
C1046 H1050 0.950 . S
C1046 C1055 1.390 . S
C1047 C1046 1.387 . S
C1047 C1049 1.387 . S
H1048 C1055 0.950 . S
C1049 C1047 1.387 . S
C1049 C1051 1.390 . S
C1049 H1053 0.950 . S
H1050 C1046 0.950 . S
C1051 C1049 1.390 . S
C1051 C1052 1.387 . S
C1051 H1054 0.950 . S
C1052 C1051 1.387 . S
C1052 C1055 1.387 . S
H1053 C1049 0.950 . S
H1054 C1051 0.950 . S
C1055 C1046 1.390 . S
C1055 H1048 0.950 . S
C1055 C1052 1.387 . S
C1056 C1057 1.387 . S
C1056 H1060 0.950 . S
C1056 C1065 1.390 . S
C1057 C1056 1.387 . S
C1057 C1059 1.387 . S
H1058 C1065 0.950 . S
C1059 C1057 1.387 . S
C1059 C1061 1.390 . S
C1059 H1063 0.950 . S
H1060 C1056 0.950 . S
C1061 C1059 1.390 . S
C1061 C1062 1.387 . S
C1061 H1064 0.950 . S
C1062 C1061 1.387 . S
C1062 C1065 1.387 . S
H1063 C1059 0.950 . S
H1064 C1061 0.950 . S
C1065 C1056 1.390 . S
C1065 H1058 0.950 . S
C1065 C1062 1.387 . S
C1066 C1067 1.387 . S
C1066 H1070 0.950 . S
C1066 C1075 1.390 . S
C1067 C1066 1.387 . S
C1067 C1069 1.387 . S
H1068 C1075 0.950 . S
C1069 C1067 1.387 . S
C1069 C1071 1.390 . S
C1069 H1073 0.950 . S
H1070 C1066 0.950 . S
C1071 C1069 1.390 . S
C1071 C1072 1.387 . S
C1071 H1074 0.950 . S
C1072 C1071 1.387 . S
C1072 C1075 1.387 . S
H1073 C1069 0.950 . S
H1074 C1071 0.950 . S
C1075 C1066 1.390 . S
C1075 H1068 0.950 . S
C1075 C1072 1.387 . S
C602 C283 1.303 . S
C597 N2 1.278 . S
C612 C326 2.399 . S
C607 C7 2.401 . S
C622 C372 1.894 . S
C617 N12 1.729 . S
C627 C16 1.826 . S
C632 C415 1.902 . S
C642 C455 2.544 . S
C637 C30 2.509 1_565 S
C652 C483 1.577 . S
C647 N35 1.534 . S
C657 C39 2.118 . S
C662 C526 2.094 . S
C672 C572 1.188 . S
C667 N25 1.147 . S
C682 C278 1.341 . S
C677 N58 1.296 . S
C687 N81 2.179 . S
C692 C327 2.067 . S
C702 C366 1.509 . S
C697 N104 1.501 . S
C707 N127 1.502 . S
C712 C403 1.394 . S
C722 C443 1.146 1_554 S
C717 N48 1.287 . S
C732 C478 1.486 . S
C727 N71 1.409 1_556 S
C737 N94 1.753 . S
C742 C527 1.693 . S
C752 C566 1.816 . S
C747 N117 1.830 . S
C757 C85 2.689 . S
C762 C295 2.515 . S
C767 C122 2.622 . S
C772 C438 2.584 . S
C777 C53 2.328 . S
C782 C495 2.210 . S
C792 C532 1.502 1_554 S
C787 C76 1.586 . S
C802 C567 2.126 . S
C797 C99 2.130 . S
C812 C367 2.049 . S
C807 C131 2.090 . S
C822 C398 2.162 . S
C817 C62 2.192 . S
C827 C108 1.382 . S
C832 C332 1.327 . S
C842 C563 1.380 . S
C837 N140 1.367 . S
C847 C145 2.394 . S
C852 C446 2.386 . S
C862 C492 1.731 . S
C857 N150 1.557 . S
C867 C154 1.832 . S
C872 C535 1.910 . S
C882 C335 2.552 . S
C877 C168 2.520 . S
C887 N173 1.367 . S
C892 C363 1.426 . S
C902 C406 2.096 . S
C897 C177 2.126 . S
C912 C292 1.234 . S
C907 N163 1.168 . S
C922 C558 1.764 . S
C917 C200 1.734 . S
C932 C447 2.329 . S
C927 N219 2.401 . S
C937 N242 1.768 . S
C942 C486 1.774 . S
C952 C523 1.580 . S
C947 C269 1.737 . S
C962 C323 1.402 . S
C957 C191 1.516 . S
C967 N209 1.661 . S
C972 C358 1.750 . S
C977 N232 2.027 . S
C982 C407 1.965 . S
C987 C260 2.436 . S
C992 C286 2.350 . S
C997 C223 2.402 . S
C1002 C575 2.225 . S
C1007 N255 2.215 . S
C1012 C318 2.174 . S
C1017 N186 1.942 . S
C1022 C375 1.804 . S
C1032 C412 1.251 . S
C1027 C214 1.327 . S
C1042 C287 1.834 . S
C1037 C237 1.833 . S
C1052 C487 1.726 . S
C1047 N265 1.612 . S
C1062 C518 1.784 . S
C1057 N196 1.793 . S
C1072 C452 1.085 . S
C1067 C246 1.132 . S
