# Generated by pormake.
# Topology pth, (4,4)-cn, num edge types: 1
# Building blocks:
#     Node 0, Type 0, BuildingBlock: QUQFOY_clean_sbu_1, # of connection points: 4
#     Node 1, Type 0, BuildingBlock: QUQFOY_clean_sbu_1, # of connection points: 4
#     Node 2, Type 0, BuildingBlock: QUQFOY_clean_sbu_1, # of connection points: 4
#     Node 3, Type 1, BuildingBlock: MUDLON_clean_sbu_0, # of connection points: 4
#     Node 4, Type 1, BuildingBlock: MUDLON_clean_sbu_0, # of connection points: 4
#     Node 5, Type 1, BuildingBlock: MUDLON_clean_sbu_0, # of connection points: 4
#     Edge 6, Type (0, 1), BuildingBlock: MIFKUJ_clean_linker_0, # of connection points: 2
#     Edge 7, Type (0, 1), BuildingBlock: MIFKUJ_clean_linker_0, # of connection points: 2
#     Edge 8, Type (0, 1), BuildingBlock: MIFKUJ_clean_linker_0, # of connection points: 2
#     Edge 9, Type (0, 1), BuildingBlock: MIFKUJ_clean_linker_0, # of connection points: 2
#     Edge 10, Type (0, 1), BuildingBlock: MIFKUJ_clean_linker_0, # of connection points: 2
#     Edge 11, Type (0, 1), BuildingBlock: MIFKUJ_clean_linker_0, # of connection points: 2
#     Edge 12, Type (0, 1), BuildingBlock: MIFKUJ_clean_linker_0, # of connection points: 2
#     Edge 13, Type (0, 1), BuildingBlock: MIFKUJ_clean_linker_0, # of connection points: 2
#     Edge 14, Type (0, 1), BuildingBlock: MIFKUJ_clean_linker_0, # of connection points: 2
#     Edge 15, Type (0, 1), BuildingBlock: MIFKUJ_clean_linker_0, # of connection points: 2
#     Edge 16, Type (0, 1), BuildingBlock: MIFKUJ_clean_linker_0, # of connection points: 2
#     Edge 17, Type (0, 1), BuildingBlock: MIFKUJ_clean_linker_0, # of connection points: 2
# Relax obj value: 0.036
# Max RMSD: 0.128
# Mean RMSD: 0.077
data_MOF--net-pth--node1-QUQFOY_clean_sbu_1--node2-MUDLON_clean_sbu_0--edge1-MIFKUJ_clean_linker_0
_symmetry_space_group_name_H-M    P1
_symmetry_Int_Tables_number       1
_symmetry_cell_setting            triclinic
loop_
_symmetry_equiv_pos_as_xyz
'x, y, z'
_cell_length_a     28.327856
_cell_length_b     30.863787
_cell_length_c     80.272219
_cell_angle_alpha  90.067753
_cell_angle_beta   90.029478
_cell_angle_gamma 120.07196
loop_
_atom_site_label
_atom_site_type_symbol
_atom_site_fract_x
_atom_site_fract_y
_atom_site_fract_z
_atom_type_partial_charge
O0 O 0.03053 0.07586 0.11807 0.0
Cd1 Cd 0.96961 0.02505 0.13345 0.0
Cd2 Cd 0.0343 0.9872 0.13379 0.0
O3 O 0.09369 0.05772 0.12528 0.0
O4 O 0.93438 0.06242 0.14271 0.0
O5 O 0.984 0.0405 0.15796 0.0
C6 C 0.95797 0.0648 0.15674 0.0
C7 C 0.03868 0.94301 0.15702 0.0
C8 C 0.07987 0.0859 0.11764 0.0
C9 C 0.93056 0.93178 0.11418 0.0
O10 O 0.97965 0.94184 0.11588 0.0
O11 O 0.91345 0.95673 0.12233 0.0
O12 O 0.06628 0.94773 0.14366 0.0
O13 O 0.01173 0.96656 0.15762 0.0
O14 O 0.98246 0.05449 0.47397 0.0
Cd15 Cd 0.04307 0.06432 0.45768 0.0
Cd16 Cd 0.98329 0.9655 0.45667 0.0
O17 O 0.92261 0.97653 0.46733 0.0
O18 O 0.07151 0.13325 0.44828 0.0
O19 O 0.02634 0.06421 0.43327 0.0
C20 C 0.04852 0.11232 0.43434 0.0
C21 C 0.9747 0.91461 0.43371 0.0
C22 C 0.93482 0.01672 0.47524 0.0
C23 C 0.09116 0.01136 0.47495 0.0
O24 O 0.04379 0.97369 0.47284 0.0
O25 O 0.10371 0.053 0.46805 0.0
O26 O 0.95181 0.89552 0.4478 0.0
O27 O 0.99876 0.96272 0.43223 0.0
O28 O 0.93051 0.96865 0.78402 0.0
Cd29 Cd 0.98193 0.96067 0.80034 0.0
Cd30 Cd 0.03147 0.06041 0.7995 0.0
O31 O 0.96001 0.04898 0.7879 0.0
O32 O 0.93745 0.89125 0.80967 0.0
O33 O 0.96518 0.95947 0.82487 0.0
C34 C 0.93697 0.91126 0.82376 0.0
C35 C 0.07336 0.10903 0.82327 0.0
C36 C 0.92616 0.00709 0.78129 0.0
C37 C 0.08908 0.01206 0.78293 0.0
O38 O 0.08447 0.05077 0.78447 0.0
O39 O 0.05457 0.97116 0.78991 0.0
O40 O 0.07572 0.12961 0.80906 0.0
O41 O 0.04373 0.06087 0.82423 0.0
Mg42 Mg 1.00027 0.50305 0.2962 0.0
C43 C 0.95109 0.39588 0.31004 0.0
O44 O 0.95722 0.38565 0.29459 0.0
C45 C 0.99943 0.56806 0.27078 0.0
O46 O 0.04887 0.57455 0.27184 0.0
C47 C 0.01046 0.45521 0.26575 0.0
O48 O 0.96531 0.45684 0.2639 0.0
O49 O 0.03971 0.47585 0.27864 0.0
O50 O 0.95834 0.43918 0.31347 0.0
O51 O 0.04364 0.56696 0.31327 0.0
C52 C 0.01115 0.56461 0.32472 0.0
O53 O 0.96209 0.525 0.32523 0.0
O54 O 0.96249 0.53543 0.28024 0.0
Mg55 Mg 0.50278 0.99922 0.62868 0.0
C56 C 0.39713 0.97561 0.61164 0.0
O57 O 0.40004 0.00764 0.62294 0.0
C58 C 0.58002 0.96981 0.64471 0.0
O59 O 0.61163 0.99808 0.63263 0.0
C60 C 0.44345 1.00008 0.65719 0.0
O61 O 0.43062 0.95383 0.65369 0.0
O62 O 0.47812 0.03496 0.64782 0.0
O63 O 0.43152 0.96046 0.61211 0.0
O64 O 0.56768 0.03728 0.61006 0.0
C65 C 0.56237 1.00471 0.59925 0.0
O66 O 0.52239 0.95845 0.60122 0.0
O67 O 0.53019 0.95869 0.64492 0.0
Mg68 Mg 0.51124 0.50334 0.97184 0.0
C69 C 0.43866 0.39798 0.95639 0.0
O70 O 0.41365 0.38854 0.97081 0.0
C71 C 0.62708 0.57072 0.98608 0.0
O72 O 0.63668 0.59308 0.97156 0.0
C73 C 0.45407 0.44914 1.00122 0.0
O74 O 0.49599 0.44268 0.99878 0.0
O75 O 0.44682 0.47693 0.99096 0.0
O76 O 0.4826 0.43963 0.95429 0.0
O77 O 0.5349 0.56805 0.95523 0.0
C78 C 0.55765 0.56443 0.94197 0.0
O79 O 0.56017 0.52351 0.93968 0.0
O80 O 0.58268 0.52964 0.98825 0.0
H81 H 0.91001 0.1228 0.15731 0.0
H82 H 0.92658 0.18922 0.17707 0.0
H83 H 0.03069 0.15351 0.20606 0.0
H84 H 0.01382 0.0864 0.1864 0.0
H85 H 0.96913 0.17791 0.22615 0.0
H86 H 0.08673 0.24965 0.17917 0.0
H87 H 0.1096 0.26542 0.14934 0.0
H88 H 0.00747 0.33082 0.14468 0.0
H89 H 0.9833 0.31473 0.17445 0.0
H90 H 0.07146 0.40918 0.27112 0.0
H91 H 0.07266 0.34423 0.25361 0.0
H92 H 0.97018 0.36126 0.21753 0.0
H93 H 0.96981 0.42616 0.23464 0.0
H94 H 0.04313 0.34757 0.20195 0.0
H95 H 0.92113 0.27066 0.24872 0.0
H96 H 0.89837 0.25451 0.27854 0.0
H97 H 0.00825 0.19753 0.28357 0.0
H98 H 0.03307 0.21492 0.25392 0.0
C99 C 0.9357 0.12839 0.16803 0.0
C100 C 0.96082 0.09933 0.17018 0.0
C101 C 0.94545 0.16669 0.17928 0.0
C102 C 0.98085 0.17718 0.19289 0.0
C103 C 1.00352 0.14641 0.19562 0.0
C104 C 0.99374 0.10796 0.18435 0.0
C105 C 0.99605 0.22172 0.20369 0.0
C106 C 0.98611 0.21514 0.22091 0.0
C107 C 0.01799 0.2704 0.19689 0.0
C108 C 0.03288 0.28062 0.17902 0.0
C109 C 0.06886 0.26709 0.17176 0.0
C110 C 0.08209 0.27612 0.15487 0.0
C111 C 0.05992 0.29902 0.14512 0.0
C112 C 0.02458 0.31305 0.15225 0.0
C113 C 0.01114 0.30403 0.16914 0.0
C114 C 0.05037 0.39986 0.25926 0.0
C115 C 0.02035 0.42271 0.25431 0.0
C116 C 0.05057 0.36235 0.24933 0.0
C117 C 0.02066 0.34706 0.23433 0.0
C118 C 0.99341 0.37203 0.22902 0.0
C119 C 0.99315 0.4092 0.23887 0.0
C120 C 0.01487 0.3037 0.22438 0.0
C121 C 0.02671 0.31047 0.20727 0.0
C122 C 0.99466 0.2553 0.23131 0.0
C123 C 0.97961 0.24483 0.24915 0.0
C124 C 0.94099 0.2553 0.25624 0.0
C125 C 0.9278 0.24602 0.27313 0.0
C126 C 0.95233 0.22554 0.28302 0.0
C127 C 0.98982 0.21401 0.27598 0.0
C128 C 1.00352 0.22363 0.25914 0.0
H129 H 0.94204 0.2183 0.29609 0.0
H130 H 0.07021 0.30597 0.13204 0.0
H131 H 0.82665 0.94663 0.48082 0.0
H132 H 0.76442 0.95214 0.50088 0.0
H133 H 0.89181 0.09893 0.51584 0.0
H134 H 0.95382 0.09394 0.49596 0.0
H135 H 0.84061 0.03989 0.54273 0.0
H136 H 0.79011 0.08802 0.49201 0.0
H137 H 0.76115 0.07891 0.46263 0.0
H138 H 0.61338 0.9429 0.47441 0.0
H139 H 0.64185 0.95082 0.50383 0.0
H140 H 0.66507 0.08726 0.5944 0.0
H141 H 0.73011 0.09832 0.57218 0.0
H142 H 0.61144 0.95691 0.55064 0.0
H143 H 0.54678 0.94629 0.57229 0.0
H144 H 0.66229 0.02136 0.52667 0.0
H145 H 0.7153 0.96887 0.57656 0.0
H146 H 0.74357 0.97615 0.60598 0.0
H147 H 0.88597 0.11811 0.59578 0.0
H148 H 0.85807 0.11199 0.56633 0.0
C149 C 0.84127 0.98019 0.4883 0.0
C150 C 0.8953 0.01981 0.48671 0.0
C151 C 0.80565 0.98334 0.49975 0.0
C152 C 0.82341 0.02607 0.50985 0.0
C153 C 0.87718 0.06558 0.50823 0.0
C154 C 0.91255 0.06266 0.49676 0.0
C155 C 0.78646 0.02948 0.52232 0.0
C156 C 0.80196 0.03656 0.53918 0.0
C157 C 0.73573 0.02453 0.51777 0.0
C158 C 0.71836 0.01977 0.5001 0.0
C159 C 0.75164 0.05595 0.48832 0.0
C160 C 0.73528 0.05105 0.47166 0.0
C161 C 0.68552 0.01029 0.46665 0.0
C162 C 0.65195 0.97442 0.4783 0.0
C163 C 0.66816 0.97912 0.49498 0.0
C164 C 0.65276 0.05902 0.58477 0.0
C165 C 0.60092 0.01573 0.58522 0.0
C166 C 0.69001 0.06515 0.57214 0.0
C167 C 0.67599 0.02806 0.55981 0.0
C168 C 0.62343 0.98604 0.55994 0.0
C169 C 0.5865 0.97993 0.57246 0.0
C170 C 0.71602 0.03104 0.54714 0.0
C171 C 0.70115 0.02514 0.53022 0.0
C172 C 0.7672 0.03676 0.55165 0.0
C173 C 0.78427 0.04026 0.5693 0.0
C174 C 0.75244 1.0018 0.58062 0.0
C175 C 0.76841 0.00569 0.59729 0.0
C176 C 0.81645 0.04764 0.60275 0.0
C177 C 0.84871 0.0857 0.59154 0.0
C178 C 0.83284 0.08204 0.57485 0.0
H179 H 0.82874 0.05061 0.61567 0.0
H180 H 0.67291 0.00655 0.45375 0.0
H181 H 0.91882 0.94242 0.85396 0.0
H182 H 0.85218 0.89126 0.87527 0.0
H183 H 0.80712 0.75851 0.84618 0.0
H184 H 0.87291 0.80934 0.8248 0.0
H185 H 0.71849 0.76044 0.85614 0.0
H186 H 0.88484 0.78729 0.88243 0.0
H187 H 0.97778 0.83842 0.89378 0.0
H188 H 0.91992 0.90746 0.9284 0.0
H189 H 0.82672 0.85716 0.9171 0.0
H190 H 0.58325 0.55748 0.91003 0.0
H191 H 0.64393 0.62444 0.89147 0.0
H192 H 0.6621 0.73408 0.92814 0.0
H193 H 0.60124 0.66617 0.94714 0.0
H194 H 0.76033 0.75465 0.91582 0.0
H195 H 0.59202 0.72082 0.89178 0.0
H196 H 0.49887 0.66919 0.88067 0.0
H197 H 0.55956 0.61418 0.84192 0.0
H198 H 0.65301 0.66493 0.85292 0.0
C199 C 0.89525 0.90225 0.85221 0.0
C200 C 0.90135 0.88005 0.83764 0.0
C201 C 0.85711 0.87299 0.86443 0.0
C202 C 0.82448 0.82087 0.8624 0.0
C203 C 0.83151 0.79861 0.84804 0.0
C204 C 0.86947 0.82777 0.83584 0.0
C205 C 0.78159 0.78936 0.87481 0.0
C206 C 0.72781 0.75892 0.86916 0.0
C207 C 0.79299 0.78876 0.89198 0.0
C208 C 0.84897 0.81892 0.89878 0.0
C209 C 0.89203 0.81369 0.89237 0.0
C210 C 0.94474 0.84245 0.89881 0.0
C211 C 0.95479 0.87629 0.91177 0.0
C212 C 0.91211 0.88132 0.91834 0.0
C213 C 0.85934 0.85267 0.91193 0.0
C214 C 0.59932 0.59582 0.91412 0.0
C215 C 0.58718 0.60642 0.93007 0.0
C216 C 0.634 0.63423 0.90341 0.0
C217 C 0.6574 0.68454 0.90826 0.0
C218 C 0.6444 0.69557 0.92406 0.0
C219 C 0.60922 0.6568 0.93485 0.0
C220 C 0.6976 0.7246 0.89702 0.0
C221 C 0.75082 0.75671 0.90286 0.0
C222 C 0.68571 0.72693 0.88 0.0
C223 C 0.62956 0.69654 0.87324 0.0
C224 C 0.58549 0.69748 0.88095 0.0
C225 C 0.53262 0.66839 0.87466 0.0
C226 C 0.52329 0.63837 0.86061 0.0
C227 C 0.56685 0.63746 0.8528 0.0
C228 C 0.6198 0.66645 0.85904 0.0
H229 H 0.48233 0.61586 0.85577 0.0
H230 H 0.99562 0.89852 0.91674 0.0
H231 H 0.97657 0.91816 0.18546 0.0
H232 H 0.96067 0.85291 0.20571 0.0
H233 H 0.07331 0.82242 0.17922 0.0
H234 H 0.08878 0.88697 0.15885 0.0
H235 H 0.9819 0.73767 0.18559 0.0
H236 H 0.10429 0.88409 0.21738 0.0
H237 H 0.1358 0.96601 0.23079 0.0
H238 H 0.99117 0.90255 0.26089 0.0
H239 H 0.95841 0.82035 0.24748 0.0
H240 H 0.05306 0.60692 0.24197 0.0
H241 H 0.04773 0.66714 0.22368 0.0
H242 H 0.92056 0.66308 0.25431 0.0
H243 H 0.92566 0.60179 0.27287 0.0
H244 H 1.00452 0.76112 0.24681 0.0
H245 H 0.88718 0.61226 0.21681 0.0
H246 H 0.85808 0.53029 0.20378 0.0
H247 H 0.99479 0.59845 0.17046 0.0
H248 H 0.02522 0.68075 0.18346 0.0
C249 C 0.99858 0.89807 0.18408 0.0
C250 C 0.03403 0.90795 0.1705 0.0
C251 C 0.98944 0.86071 0.19569 0.0
C252 C 0.0158 0.83258 0.19406 0.0
C253 C 0.05223 0.84332 0.18075 0.0
C254 C 0.06132 0.88055 0.16914 0.0
C255 C 1.00407 0.7906 0.20572 0.0
C256 C 0.98733 0.74303 0.19896 0.0
C257 C 0.00905 0.7968 0.22326 0.0
C258 C 0.02856 0.84623 0.23127 0.0
C259 C 0.07894 0.88771 0.22674 0.0
C260 C 0.09708 0.93417 0.23437 0.0
C261 C 0.06541 0.93953 0.24664 0.0
C262 C 0.01559 0.89838 0.25135 0.0
C263 C 0.99723 0.85185 0.24374 0.0
C264 C 0.02332 0.61819 0.24474 0.0
C265 C 0.98961 0.59941 0.25884 0.0
C266 C 0.02026 0.65264 0.23422 0.0
C267 C 0.98357 0.66957 0.23752 0.0
C268 C 0.94908 0.65043 0.25148 0.0
C269 C 0.95165 0.61514 0.26198 0.0
C270 C 0.98377 0.70874 0.22659 0.0
C271 C 0.99832 0.75569 0.23346 0.0
C272 C 0.97692 0.7021 0.20912 0.0
C273 C 0.95866 0.65268 0.20119 0.0
C274 C 0.91128 0.60974 0.20679 0.0
C275 C 0.89451 0.56321 0.19939 0.0
C276 C 0.92462 0.55915 0.18632 0.0
C277 C 0.97151 0.60165 0.18059 0.0
C278 C 0.9885 0.64827 0.18795 0.0
H279 H 0.91157 0.52309 0.18061 0.0
H280 H 0.07955 0.97552 0.25254 0.0
H281 H 0.07505 0.92698 0.49081 0.0
H282 H 0.13124 0.91927 0.51214 0.0
H283 H 0.25101 0.07571 0.50661 0.0
H284 H 0.19368 0.08419 0.48541 0.0
H285 H 0.22664 0.92855 0.51464 0.0
H286 H 0.30841 0.12355 0.54443 0.0
H287 H 0.28293 0.18889 0.54717 0.0
H288 H 0.11379 0.07785 0.5416 0.0
H289 H 0.13823 0.01184 0.53904 0.0
H290 H 0.41731 0.96154 0.57931 0.0
H291 H 0.36929 0.96526 0.55447 0.0
H292 H 0.25034 0.97407 0.58571 0.0
H293 H 0.29994 0.97304 0.61046 0.0
H294 H 0.27855 0.0406 0.56383 0.0
H295 H 0.2245 0.86625 0.56085 0.0
H296 H 0.23837 0.79351 0.55984 0.0
H297 H 0.33174 0.8498 0.51492 0.0
H298 H 0.31895 0.9232 0.51577 0.0
C299 C 0.11351 0.95988 0.49398 0.0
C300 C 0.12944 0.00644 0.48647 0.0
C301 C 0.14585 0.95525 0.50618 0.0
C302 C 0.19514 0.99696 0.51122 0.0
C303 C 0.21266 0.04308 0.50317 0.0
C304 C 0.17999 0.04786 0.49098 0.0
C305 C 0.22602 0.99213 0.5255 0.0
C306 C 0.2383 0.95327 0.52535 0.0
C307 C 0.24042 0.0236 0.53968 0.0
C308 C 0.22525 0.06293 0.54133 0.0
C309 C 0.2658 0.11312 0.54382 0.0
C310 C 0.25153 0.15025 0.54534 0.0
C311 C 0.1968 0.13755 0.54449 0.0
C312 C 0.15618 0.08766 0.54219 0.0
C313 C 0.17022 0.05039 0.54068 0.0
C314 C 0.38015 0.96302 0.58085 0.0
C315 C 0.36219 0.96675 0.59683 0.0
C316 C 0.35268 0.96524 0.56661 0.0
C317 C 0.30587 0.96989 0.56809 0.0
C318 C 0.28654 0.97101 0.58413 0.0
C319 C 0.31461 0.96991 0.59831 0.0
C320 C 0.27864 0.97649 0.55312 0.0
C321 C 0.26733 0.01598 0.55309 0.0
C322 C 0.26359 0.94457 0.53902 0.0
C323 C 0.27123 0.90045 0.53847 0.0
C324 C 0.24831 0.86328 0.55082 0.0
C325 C 0.25593 0.82191 0.55027 0.0
C326 C 0.28605 0.81711 0.53735 0.0
C327 C 0.30849 0.85361 0.52493 0.0
C328 C 0.30103 0.89507 0.52543 0.0
H329 H 0.2919 0.78506 0.53695 0.0
H330 H 0.18585 0.16636 0.54566 0.0
H331 H 0.0776 0.07704 0.85483 0.0
H332 H 0.14108 0.1252 0.87724 0.0
H333 H 0.21132 0.25721 0.8464 0.0
H334 H 0.14818 0.2093 0.82391 0.0
H335 H 0.28989 0.24334 0.86092 0.0
H336 H 0.12886 0.24549 0.87884 0.0
H337 H 0.0317 0.20775 0.88631 0.0
H338 H 0.05268 0.12422 0.92548 0.0
H339 H 0.14985 0.161 0.9181 0.0
H340 H 0.4484 0.42304 0.92332 0.0
H341 H 0.3882 0.37299 0.9006 0.0
H342 H 0.30255 0.24815 0.93412 0.0
H343 H 0.36098 0.29903 0.95703 0.0
H344 H 0.23161 0.25739 0.91793 0.0
H345 H 0.39135 0.25351 0.90065 0.0
H346 H 0.48822 0.28855 0.89324 0.0
H347 H 0.47025 0.37121 0.85316 0.0
H348 H 0.37342 0.33714 0.86046 0.0
C349 C 0.10605 0.11648 0.85288 0.0
C350 C 0.10756 0.13928 0.83756 0.0
C351 C 0.14239 0.144 0.86572 0.0
C352 C 0.18103 0.19496 0.86356 0.0
C353 C 0.18204 0.21796 0.84837 0.0
C354 C 0.14558 0.19054 0.83555 0.0
C355 C 0.22123 0.22395 0.87694 0.0
C356 C 0.2772 0.24696 0.87335 0.0
C357 C 0.20483 0.22753 0.89329 0.0
C358 C 0.1465 0.20564 0.89781 0.0
C359 C 0.11266 0.21879 0.88896 0.0
C360 C 0.0576 0.19762 0.8932 0.0
C361 C 0.036 0.16351 0.90633 0.0
C362 C 0.06945 0.1506 0.9153 0.0
C363 C 0.12453 0.17164 0.9111 0.0
C364 C 0.41753 0.38456 0.92576 0.0
C365 C 0.4096 0.36497 0.94199 0.0
C366 C 0.38301 0.35581 0.91272 0.0
C367 C 0.34069 0.30636 0.91549 0.0
C368 C 0.33449 0.28617 0.93157 0.0
C369 C 0.36824 0.31519 0.94467 0.0
C370 C 0.30073 0.27678 0.90202 0.0
C371 C 0.24462 0.25371 0.90557 0.0
C372 C 0.31709 0.27272 0.88567 0.0
C373 C 0.37525 0.29311 0.88121 0.0
C374 C 0.40815 0.27943 0.89033 0.0
C375 C 0.46304 0.29907 0.88613 0.0
C376 C 0.48541 0.33219 0.87276 0.0
C377 C 0.45289 0.34561 0.86352 0.0
C378 C 0.39799 0.32609 0.86767 0.0
H379 H 0.52791 0.34736 0.86954 0.0
H380 H 0.99336 0.14716 0.90959 0.0
H381 H 0.90341 0.08022 0.7712 0.0
H382 H 0.83654 0.07251 0.75023 0.0
H383 H 0.78739 0.91694 0.74316 0.0
H384 H 0.85235 0.92388 0.76425 0.0
H385 H 0.83016 0.05393 0.71861 0.0
H386 H 0.65782 0.84831 0.73086 0.0
H387 H 0.61571 0.79144 0.75472 0.0
H388 H 0.66779 0.91756 0.78742 0.0
H389 H 0.70954 0.97517 0.76374 0.0
H390 H 0.67475 0.96738 0.64607 0.0
H391 H 0.72616 0.97049 0.67092 0.0
H392 H 0.5973 0.96151 0.70199 0.0
H393 H 0.54461 0.95619 0.67709 0.0
H394 H 0.63867 0.91394 0.71667 0.0
H395 H 0.71522 0.07627 0.69256 0.0
H396 H 0.75348 0.13927 0.67017 0.0
H397 H 0.88665 0.11144 0.66433 0.0
H398 H 0.84881 0.04779 0.68655 0.0
C399 C 0.87777 0.04421 0.76535 0.0
C400 C 0.88332 1.0027 0.7695 0.0
C401 C 0.83967 0.03988 0.7533 0.0
C402 C 0.80626 0.99396 0.74517 0.0
C403 C 0.81157 0.95251 0.74944 0.0
C404 C 0.8492 0.95669 0.7615 0.0
C405 C 0.76793 0.9896 0.73162 0.0
C406 C 0.78824 0.02342 0.71826 0.0
C407 C 0.71271 0.95049 0.73122 0.0
C408 C 0.68721 0.91606 0.74552 0.0
C409 C 0.66007 0.86391 0.74312 0.0
C410 C 0.63631 0.83154 0.75663 0.0
C411 C 0.63921 0.85088 0.77258 0.0
C412 C 0.66574 0.90263 0.77507 0.0
C413 C 0.68953 0.93516 0.76161 0.0
C414 C 0.65682 0.96494 0.6582 0.0
C415 C 0.6057 0.96174 0.6596 0.0
C416 C 0.68653 0.96727 0.67243 0.0
C417 C 0.66654 0.96787 0.68841 0.0
C418 C 0.61396 0.96155 0.68985 0.0
C419 C 0.58371 0.95829 0.67558 0.0
C420 C 0.70148 0.97732 0.70346 0.0
C421 C 0.68052 0.94454 0.71708 0.0
C422 C 0.75564 0.0183 0.70435 0.0
C423 C 0.77895 0.057 0.69113 0.0
C424 C 0.75252 0.08342 0.68644 0.0
C425 C 0.77414 0.11925 0.67379 0.0
C426 C 0.82241 0.12928 0.66581 0.0
C427 C 0.84925 0.1036 0.67051 0.0
C428 C 0.82777 0.06769 0.68315 0.0
H429 H 0.83906 0.157 0.65601 0.0
H430 H 0.62082 0.82575 0.78302 0.0
H431 H 0.81802 0.87449 0.11317 0.0
H432 H 0.7622 0.80891 0.09266 0.0
H433 H 0.90811 0.8369 0.06682 0.0
H434 H 0.96374 0.90081 0.08728 0.0
H435 H 0.81713 0.83355 0.04642 0.0
H436 H 0.85836 0.74249 0.08831 0.0
H437 H 0.85703 0.71309 0.11695 0.0
H438 H 0.68219 0.64107 0.11766 0.0
H439 H 0.6826 0.67074 0.08909 0.0
H440 H 0.73411 0.64466 0.98667 0.0
H441 H 0.78334 0.70164 0.00967 0.0
H442 H 0.64181 0.62216 0.04111 0.0
H443 H 0.59385 0.56328 0.01846 0.0
H444 H 0.72365 0.65236 0.05982 0.0
H445 H 0.67597 0.7362 0.01927 0.0
H446 H 0.66992 0.76665 0.9914 0.0
H447 H 0.84462 0.8544 0.98893 0.0
H448 H 0.85176 0.82393 0.0167 0.0
C449 C 0.83805 0.86655 0.10311 0.0
C450 C 0.89531 0.8927 0.10191 0.0
C451 C 0.80619 0.82908 0.09145 0.0
C452 C 0.83112 0.81807 0.07824 0.0
C453 C 0.88808 0.84477 0.0769 0.0
C454 C 0.91979 0.88119 0.08868 0.0
C455 C 0.79856 0.77893 0.06565 0.0
C456 C 0.79692 0.79389 0.04928 0.0
C457 C 0.77073 0.72733 0.06954 0.0
C458 C 0.77057 0.70936 0.08666 0.0
C459 C 0.81969 0.72084 0.09464 0.0
C460 C 0.81909 0.70402 0.11085 0.0
C461 C 0.76957 0.67538 0.11915 0.0
C462 C 0.72053 0.66336 0.11123 0.0
C463 C 0.72092 0.68014 0.09503 0.0
C464 C 0.71399 0.6387 0.99861 0.0
C465 C 0.66006 0.59954 1.0007 0.0
C466 C 0.74189 0.67172 0.01173 0.0
C467 C 0.71581 0.66756 0.02706 0.0
C468 C 0.66294 0.6267 0.02944 0.0
C469 C 0.63552 0.59286 0.01645 0.0
C470 C 0.74277 0.70671 0.0403 0.0
C471 C 0.74335 0.69191 0.05684 0.0
C472 C 0.76846 0.75866 0.03666 0.0
C473 C 0.76439 0.77741 0.02 0.0
C474 C 0.71311 0.76176 0.01274 0.0
C475 C 0.70948 0.77904 0.99697 0.0
C476 C 0.75686 0.81234 0.98839 0.0
C477 C 0.80796 0.82856 0.99559 0.0
C478 C 0.81182 0.81133 0.01135 0.0
H479 H 0.75397 0.82566 0.97617 0.0
H480 H 0.76919 0.66238 0.13169 0.0
H481 H 0.92631 0.81252 0.43315 0.0
H482 H 0.9423 0.76083 0.41349 0.0
H483 H 0.04886 0.89205 0.38481 0.0
H484 H 0.03234 0.94416 0.40437 0.0
H485 H 0.98801 0.81298 0.36444 0.0
H486 H 0.10231 0.84361 0.41176 0.0
H487 H 0.12477 0.84754 0.44161 0.0
H488 H 0.01754 0.6888 0.44586 0.0
H489 H 0.99378 0.68402 0.41609 0.0
H490 H 0.08052 0.66613 0.32014 0.0
H491 H 0.08616 0.73417 0.33768 0.0
H492 H 0.97348 0.62506 0.37251 0.0
H493 H 0.96808 0.5578 0.35527 0.0
H494 H 0.05244 0.70398 0.38875 0.0
H495 H 0.93141 0.67627 0.34193 0.0
H496 H 0.90991 0.6728 0.31201 0.0
H497 H 0.03271 0.8275 0.30671 0.0
H498 H 0.05548 0.83165 0.33658 0.0
C499 C 0.95254 0.83044 0.42254 0.0
C500 C 0.97827 0.88263 0.42043 0.0
C501 C 0.96197 0.8008 0.41134 0.0
C502 C 0.9978 0.82258 0.39784 0.0
C503 C 0.02135 0.87434 0.39518 0.0
C504 C 0.01179 0.9041 0.40638 0.0
C505 C 0.012 0.79137 0.38699 0.0
C506 C 1.003 0.78981 0.36972 0.0
C507 C 0.03151 0.76092 0.39381 0.0
C508 C 0.04597 0.76354 0.41171 0.0
C509 C 0.08324 0.80959 0.41909 0.0
C510 C 0.09624 0.81196 0.43599 0.0
C511 C 0.07252 0.76846 0.44563 0.0
C512 C 0.03585 0.72247 0.43838 0.0
C513 C 0.02264 0.7199 0.42148 0.0
C514 C 0.05811 0.65691 0.33175 0.0
C515 C 0.02377 0.6066 0.3363 0.0
C516 C 0.06088 0.69574 0.34168 0.0
C517 C 0.02958 0.68478 0.35634 0.0
C518 C 0.9979 0.63465 0.36129 0.0
C519 C 0.99481 0.59613 0.35138 0.0
C520 C 0.02691 0.72443 0.36629 0.0
C521 C 0.03819 0.72768 0.38342 0.0
C522 C 0.00972 0.75646 0.35932 0.0
C523 C 0.9956 0.7541 0.34143 0.0
C524 C 0.95409 0.70944 0.33436 0.0
C525 C 0.94164 0.70736 0.31741 0.0
C526 C 0.97005 0.74986 0.30745 0.0
C527 C 0.01083 0.79458 0.31443 0.0
C528 C 0.02352 0.79682 0.33137 0.0
H529 H 0.96038 0.74817 0.29433 0.0
H530 H 0.08264 0.77037 0.45872 0.0
H531 H 0.17099 0.09487 0.76778 0.0
H532 H 0.23852 0.09929 0.74802 0.0
H533 H 0.17489 0.94052 0.75323 0.0
H534 H 0.107 0.93571 0.77326 0.0
H535 H 0.28655 0.99244 0.7522 0.0
H536 H 0.1399 0.98657 0.72002 0.0
H537 H 0.07538 0.01419 0.71164 0.0
H538 H 0.20918 0.159 0.69881 0.0
H539 H 0.27454 0.13243 0.70735 0.0
H540 H 0.37395 0.93108 0.6792 0.0
H541 H 0.32355 0.94161 0.70168 0.0
H542 H 0.39767 0.09888 0.69032 0.0
H543 H 0.44838 0.08834 0.66721 0.0
H544 H 0.28859 0.05669 0.69539 0.0
H545 H 0.43555 0.05981 0.7252 0.0
H546 H 0.49959 0.03131 0.73321 0.0
H547 H 0.36604 0.89191 0.75041 0.0
H548 H 0.30107 0.91925 0.74227 0.0
C549 C 0.17139 0.06079 0.76487 0.0
C550 C 0.13309 0.01478 0.77207 0.0
C551 C 0.21006 0.06343 0.75348 0.0
C552 C 0.2113 0.02014 0.7489 0.0
C553 C 0.17459 0.97442 0.75652 0.0
C554 C 0.13575 0.97172 0.76797 0.0
C555 C 0.24989 0.02245 0.73583 0.0
C556 C 0.28666 0.00604 0.73974 0.0
C557 C 0.25133 0.04173 0.7197 0.0
C558 C 0.2121 0.05769 0.7145 0.0
C559 C 0.15556 0.02443 0.71554 0.0
C560 C 0.11884 0.03987 0.71074 0.0
C561 C 0.13817 0.08836 0.70474 0.0
C562 C 0.19427 0.12147 0.70349 0.0
C563 C 0.23117 0.10624 0.7083 0.0
C564 C 0.38008 0.96817 0.68143 0.0
C565 C 0.41548 0.00896 0.67135 0.0
C566 C 0.35128 0.97413 0.69444 0.0
C567 C 0.35733 0.02116 0.69794 0.0
C568 C 0.39259 0.06224 0.68793 0.0
C569 C 0.42168 0.05625 0.67478 0.0
C570 C 0.32486 0.02604 0.71168 0.0
C571 C 0.28908 0.04371 0.70791 0.0
C572 C 0.32439 0.00795 0.72795 0.0
C573 C 0.36338 0.9915 0.73302 0.0
C574 C 0.41978 0.02295 0.73059 0.0
C575 C 0.45626 0.00701 0.73517 0.0
C576 C 0.43689 0.9598 0.74229 0.0
C577 C 0.38099 0.92847 0.74489 0.0
C578 C 0.34432 0.9442 0.74032 0.0
H579 H 0.4652 0.94752 0.74582 0.0
H580 H 0.10968 0.10024 0.70103 0.0
H581 H 0.0639 0.15645 0.10228 0.0
H582 H 0.12621 0.22444 0.08415 0.0
H583 H 0.2486 0.18226 0.09158 0.0
H584 H 0.18637 0.11404 0.11003 0.0
H585 H 0.29283 0.28348 0.09232 0.0
H586 H 0.17044 0.14862 0.05617 0.0
H587 H 0.08046 0.08497 0.04537 0.0
H588 H 0.04335 0.20007 0.03314 0.0
H589 H 0.13288 0.26437 0.04408 0.0
H590 H 0.46449 0.3897 0.02397 0.0
H591 H 0.39988 0.33632 0.04481 0.0
H592 H 0.28957 0.38792 0.03051 0.0
H593 H 0.35446 0.44128 0.0089 0.0
H594 H 0.2357 0.28856 0.03424 0.0
H595 H 0.36168 0.4245 0.06804 0.0
H596 H 0.45197 0.48815 0.07861 0.0
H597 H 0.48246 0.37235 0.09537 0.0
H598 H 0.39267 0.30797 0.0847 0.0
C599 C 0.10412 0.16158 0.10017 0.0
C600 C 0.11987 0.12934 0.10756 0.0
C601 C 0.13971 0.20052 0.08971 0.0
C602 C 0.19183 0.20805 0.08623 0.0
C603 C 0.20848 0.17707 0.09401 0.0
C604 C 0.17283 0.13804 0.10455 0.0
C605 C 0.22843 0.24759 0.07425 0.0
C606 C 0.28055 0.28432 0.07958 0.0
C607 C 0.2118 0.24984 0.05776 0.0
C608 C 0.15811 0.21124 0.0511 0.0
C609 C 0.14292 0.16031 0.05129 0.0
C610 C 0.09204 0.12413 0.04513 0.0
C611 C 0.05615 0.13846 0.03862 0.0
C612 C 0.07115 0.18902 0.03821 0.0
C613 C 0.12197 0.22535 0.04438 0.0
C614 C 0.42675 0.3903 0.02523 0.0
C615 C 0.41486 0.42007 0.0147 0.0
C616 C 0.38982 0.35978 0.03733 0.0
C617 C 0.3401 0.35858 0.03953 0.0
C618 C 0.32788 0.38844 0.02914 0.0
C619 C 0.36504 0.41908 0.01685 0.0
C620 C 0.30058 0.32414 0.05221 0.0
C621 C 0.24785 0.28824 0.04704 0.0
C622 C 0.31662 0.32276 0.06887 0.0
C623 C 0.3705 0.36139 0.07547 0.0
C624 C 0.38776 0.41259 0.07389 0.0
C625 C 0.43885 0.44881 0.07992 0.0
C626 C 0.47296 0.4343 0.08764 0.0
C627 C 0.45599 0.38353 0.08939 0.0
C628 C 0.40496 0.34715 0.08338 0.0
H629 H 0.51251 0.4624 0.09228 0.0
H630 H 0.01677 0.11039 0.03386 0.0
H631 H 0.07382 0.2103 0.43517 0.0
H632 H 0.05384 0.25596 0.41406 0.0
H633 H 0.98912 0.12741 0.38158 0.0
H634 H 0.00864 0.0812 0.40272 0.0
H635 H 0.05488 0.218 0.36492 0.0
H636 H 0.90306 0.1486 0.40276 0.0
H637 H 0.859 0.1325 0.43031 0.0
H638 H 0.925 0.29031 0.43769 0.0
H639 H 0.97013 0.30741 0.41026 0.0
H640 H 0.92779 0.29881 0.30723 0.0
H641 H 0.93992 0.24817 0.32831 0.0
H642 H 0.98455 0.3661 0.36441 0.0
H643 H 0.97093 0.41638 0.34348 0.0
H644 H 0.92817 0.2794 0.37931 0.0
H645 H 0.07857 0.34975 0.34145 0.0
H646 H 0.12503 0.36716 0.31428 0.0
H647 H 0.06791 0.21053 0.30759 0.0
H648 H 0.01907 0.19187 0.33436 0.0
C649 C 0.056 0.19185 0.42346 0.0
C650 C 0.04281 0.14196 0.42067 0.0
C651 C 0.04425 0.21796 0.41144 0.0
C652 C 0.01928 0.19494 0.39631 0.0
C653 C 0.00818 0.14591 0.39318 0.0
C654 C 0.01944 0.11954 0.40528 0.0
C655 C 1.00362 0.22164 0.38395 0.0
C656 C 0.02656 0.23081 0.36796 0.0
C657 C 0.96775 0.2395 0.38806 0.0
C658 C 0.94042 0.22931 0.40452 0.0
C659 C 0.90855 0.1799 0.41031 0.0
C660 C 0.88332 0.17058 0.4259 0.0
C661 C 0.88931 0.21036 0.43576 0.0
C662 C 0.92045 0.25954 0.43004 0.0
C663 C 0.94583 0.26906 0.41447 0.0
C664 C 0.93918 0.31364 0.31973 0.0
C665 C 0.94873 0.36189 0.32359 0.0
C666 C 0.94656 0.28474 0.33177 0.0
C667 C 0.96465 0.30371 0.34789 0.0
C668 C 0.971 0.35063 0.35206 0.0
C669 C 0.96305 0.37938 0.34005 0.0
C670 C 0.97932 0.27583 0.36014 0.0
C671 C 0.95635 0.26652 0.37617 0.0
C672 C 0.01556 0.25815 0.35608 0.0
C673 C 0.04445 0.26933 0.33984 0.0
C674 C 0.07518 0.3189 0.33408 0.0
C675 C 0.10188 0.329 0.31872 0.0
C676 C 0.09902 0.28993 0.30914 0.0
C677 C 0.06959 0.24071 0.31493 0.0
C678 C 0.04223 0.23033 0.33017 0.0
H679 H 0.11983 0.29781 0.29727 0.0
H680 H 0.86974 0.20307 0.44783 0.0
loop_
_geom_bond_atom_site_label_1
_geom_bond_atom_site_label_2
_geom_bond_distance
_geom_bond_site_symmetry_2
_ccdc_geom_bond_type
O0 Cd1 2.223 1_455 S
O0 C8 1.315 . S
Cd1 O0 2.223 1_655 S
Cd1 O4 2.297 . S
Cd1 O5 2.439 . S
Cd1 O11 2.240 1_545 S
Cd2 O3 2.240 1_565 S
Cd2 O10 2.223 1_455 S
Cd2 O12 2.297 . S
Cd2 O13 2.439 . S
O3 Cd2 2.240 1_545 S
O3 C8 1.279 . S
O4 Cd1 2.297 . S
O4 C6 1.247 . S
O5 Cd1 2.439 . S
O5 C6 1.208 . S
C6 O4 1.247 . S
C6 O5 1.208 . S
C7 O12 1.247 . S
C7 O13 1.208 . S
C8 O0 1.315 . S
C8 O3 1.279 . S
C9 O10 1.315 . S
C9 O11 1.279 . S
O10 Cd2 2.223 1_655 S
O10 C9 1.315 . S
O11 Cd1 2.240 1_565 S
O11 C9 1.279 . S
O12 Cd2 2.297 . S
O12 C7 1.247 . S
O13 Cd2 2.439 . S
O13 C7 1.208 . S
O14 Cd15 2.223 1_655 S
O14 C22 1.315 . S
Cd15 O14 2.223 1_455 S
Cd15 O18 2.297 . S
Cd15 O19 2.439 . S
Cd15 O25 2.240 . S
Cd16 O17 2.240 . S
Cd16 O24 2.223 1_655 S
Cd16 O26 2.297 . S
Cd16 O27 2.439 . S
O17 Cd16 2.240 . S
O17 C22 1.279 1_565 S
O18 Cd15 2.297 . S
O18 C20 1.247 . S
O19 Cd15 2.439 . S
O19 C20 1.208 . S
C20 O18 1.247 . S
C20 O19 1.208 . S
C21 O26 1.247 . S
C21 O27 1.208 . S
C22 O14 1.315 . S
C22 O17 1.279 1_545 S
C23 O24 1.315 . S
C23 O25 1.279 1_565 S
O24 Cd16 2.223 1_455 S
O24 C23 1.315 . S
O25 Cd15 2.240 . S
O25 C23 1.279 1_545 S
O26 Cd16 2.297 . S
O26 C21 1.247 . S
O27 Cd16 2.439 . S
O27 C21 1.208 . S
O28 Cd29 2.223 . S
O28 C36 1.315 . S
Cd29 O28 2.223 . S
Cd29 O32 2.297 . S
Cd29 O33 2.439 . S
Cd29 O39 2.240 1_655 S
Cd30 O31 2.240 1_455 S
Cd30 O38 2.223 . S
Cd30 O40 2.297 . S
Cd30 O41 2.439 . S
O31 Cd30 2.240 1_655 S
O31 C36 1.279 1_545 S
O32 Cd29 2.297 . S
O32 C34 1.247 . S
O33 Cd29 2.439 . S
O33 C34 1.208 . S
C34 O32 1.247 . S
C34 O33 1.208 . S
C35 O40 1.247 . S
C35 O41 1.208 . S
C36 O28 1.315 . S
C36 O31 1.279 1_565 S
C37 O38 1.315 . S
C37 O39 1.279 1_545 S
O38 Cd30 2.223 . S
O38 C37 1.315 . S
O39 Cd29 2.240 1_455 S
O39 C37 1.279 1_565 S
O40 Cd30 2.297 . S
O40 C35 1.247 . S
O41 Cd30 2.439 . S
O41 C35 1.208 . S
Mg42 O49 2.141 . S
Mg42 O50 2.048 . S
Mg42 O51 2.048 . S
Mg42 O54 2.141 . S
C43 O44 1.313 . S
C43 O50 1.195 1_655 S
O44 C43 1.313 . S
C45 O46 1.245 . S
C45 O54 1.289 1_655 S
O46 C45 1.245 . S
C47 O48 1.245 . S
C47 O49 1.289 1_655 S
O48 C47 1.245 . S
O49 Mg42 2.141 . S
O49 C47 1.289 1_455 S
O50 Mg42 2.048 . S
O50 C43 1.195 1_455 S
O51 Mg42 2.048 . S
O51 C52 1.195 1_455 S
C52 O51 1.195 1_655 S
C52 O53 1.313 . S
O53 C52 1.313 . S
O54 Mg42 2.141 . S
O54 C45 1.289 1_455 S
Mg55 O62 2.141 . S
Mg55 O63 2.048 . S
Mg55 O64 2.048 . S
Mg55 O67 2.141 . S
C56 O57 1.313 . S
C56 O63 1.195 1_565 S
O57 C56 1.313 . S
C58 O59 1.245 . S
C58 O67 1.289 1_565 S
O59 C58 1.245 . S
C60 O61 1.245 . S
C60 O62 1.289 1_565 S
O61 C60 1.245 . S
O62 Mg55 2.141 . S
O62 C60 1.289 1_545 S
O63 Mg55 2.048 . S
O63 C56 1.195 1_545 S
O64 Mg55 2.048 . S
O64 C65 1.195 1_545 S
C65 O64 1.195 1_565 S
C65 O66 1.313 . S
O66 C65 1.313 . S
O67 Mg55 2.141 . S
O67 C58 1.289 1_545 S
Mg68 O75 2.141 . S
Mg68 O76 2.048 . S
Mg68 O77 2.048 . S
Mg68 O80 2.141 . S
C69 O70 1.313 . S
C69 O76 1.195 . S
O70 C69 1.313 . S
C71 O72 1.245 . S
C71 O80 1.289 . S
O72 C71 1.245 . S
C73 O74 1.245 . S
C73 O75 1.289 . S
O74 C73 1.245 . S
O75 Mg68 2.141 . S
O75 C73 1.289 . S
O76 Mg68 2.048 . S
O76 C69 1.195 . S
O77 Mg68 2.048 . S
O77 C78 1.195 . S
C78 O77 1.195 . S
C78 O79 1.313 . S
O79 C78 1.313 . S
O80 Mg68 2.141 . S
O80 C71 1.289 . S
H81 C99 0.951 . S
H82 C101 0.951 . S
H83 C103 0.950 . S
H84 C104 0.950 . S
H85 C106 0.950 . S
H86 C109 0.950 . S
H87 C110 0.950 . S
H88 C112 0.950 . S
H89 C113 0.950 . S
H90 C114 0.951 . S
H91 C116 0.951 . S
H92 C118 0.950 . S
H93 C119 0.950 . S
H94 C121 0.950 . S
H95 C124 0.950 . S
H96 C125 0.950 . S
H97 C127 0.950 . S
H98 C128 0.950 . S
C99 H81 0.951 . S
C99 C100 1.354 1_655 S
C99 C101 1.388 . S
C100 C99 1.354 1_455 S
C100 C104 1.391 . S
C101 H82 0.951 . S
C101 C99 1.388 . S
C101 C102 1.365 . S
C102 C101 1.365 . S
C102 C103 1.414 1_655 S
C102 C105 1.498 1_655 S
C103 H83 0.950 . S
C103 C102 1.414 1_455 S
C103 C104 1.374 . S
C104 H84 0.950 . S
C104 C100 1.391 . S
C104 C103 1.374 . S
C105 C102 1.498 1_455 S
C105 C106 1.373 . S
C105 C107 1.389 1_455 S
C106 H85 0.950 . S
C106 C105 1.373 . S
C106 C122 1.377 . S
C107 C105 1.389 1_655 S
C107 C108 1.524 . S
C107 C121 1.377 . S
C108 C107 1.524 . S
C108 C109 1.397 . S
C108 C113 1.363 . S
C109 H86 0.950 . S
C109 C108 1.397 . S
C109 C110 1.334 . S
C110 H87 0.950 . S
C110 C109 1.334 . S
C110 C111 1.287 . S
C111 C110 1.287 . S
C111 C112 1.524 . S
C111 H130 0.913 . S
C112 H88 0.950 . S
C112 C111 1.524 . S
C112 C113 1.415 . S
C113 H89 0.950 . S
C113 C108 1.363 . S
C113 C112 1.415 . S
C114 H90 0.951 . S
C114 C115 1.365 . S
C114 C116 1.388 . S
C115 C114 1.365 . S
C115 C119 1.385 1_455 S
C116 H91 0.951 . S
C116 C114 1.388 . S
C116 C117 1.374 . S
C117 C116 1.374 . S
C117 C118 1.398 1_455 S
C117 C120 1.512 1_455 S
C118 H92 0.950 . S
C118 C117 1.398 1_655 S
C118 C119 1.374 . S
C119 H93 0.950 . S
C119 C115 1.385 1_655 S
C119 C118 1.374 . S
C120 C117 1.512 1_655 S
C120 C121 1.384 . S
C120 C122 1.372 1_655 S
C121 H94 0.950 . S
C121 C107 1.377 . S
C121 C120 1.384 . S
C122 C106 1.377 . S
C122 C120 1.372 1_455 S
C122 C123 1.524 . S
C123 C122 1.524 . S
C123 C124 1.397 . S
C123 C128 1.363 . S
C124 H95 0.950 . S
C124 C123 1.397 . S
C124 C125 1.334 . S
C125 H96 0.950 . S
C125 C124 1.334 . S
C125 C126 1.287 . S
C126 C125 1.287 . S
C126 C127 1.524 . S
C126 H129 0.999 . S
C127 H97 0.950 . S
C127 C126 1.524 . S
C127 C128 1.415 . S
C128 H98 0.950 . S
C128 C123 1.363 . S
C128 C127 1.415 . S
H129 C126 0.999 . S
H130 C111 0.913 . S
H131 C149 0.951 . S
H132 C151 0.951 . S
H133 C153 0.950 . S
H134 C154 0.950 . S
H135 C156 0.950 . S
H136 C159 0.950 . S
H137 C160 0.950 . S
H138 C162 0.950 . S
H139 C163 0.950 1_565 S
H140 C164 0.951 . S
H141 C166 0.951 . S
H142 C168 0.950 . S
H143 C169 0.950 . S
H144 C171 0.950 . S
H145 C174 0.950 . S
H146 C175 0.950 . S
H147 C177 0.950 . S
H148 C178 0.950 1_545 S
C149 H131 0.951 . S
C149 C150 1.366 1_565 S
C149 C151 1.388 . S
C150 C149 1.366 1_545 S
C150 C154 1.385 . S
C151 H132 0.951 . S
C151 C149 1.388 . S
C151 C152 1.366 1_565 S
C152 C151 1.366 1_545 S
C152 C153 1.414 . S
C152 C155 1.499 . S
C153 H133 0.950 . S
C153 C152 1.414 . S
C153 C154 1.374 . S
C154 H134 0.950 . S
C154 C150 1.385 . S
C154 C153 1.374 . S
C155 C152 1.499 . S
C155 C156 1.373 1_545 S
C155 C157 1.389 . S
C156 H135 0.950 . S
C156 C155 1.373 1_565 S
C156 C172 1.377 . S
C157 C155 1.389 . S
C157 C158 1.524 . S
C157 C171 1.377 . S
C158 C157 1.524 . S
C158 C159 1.397 . S
C158 C163 1.363 . S
C159 H136 0.950 . S
C159 C158 1.397 . S
C159 C160 1.334 . S
C160 H137 0.950 . S
C160 C159 1.334 . S
C160 C161 1.287 . S
C161 C160 1.287 . S
C161 C162 1.524 . S
C161 H180 0.913 . S
C162 H138 0.950 . S
C162 C161 1.524 . S
C162 C163 1.415 . S
C163 H139 0.950 1_545 S
C163 C158 1.363 . S
C163 C162 1.415 . S
C164 H140 0.951 . S
C164 C165 1.365 . S
C164 C166 1.388 . S
C165 C164 1.365 . S
C165 C169 1.382 1_545 S
C166 H141 0.951 . S
C166 C164 1.388 . S
C166 C167 1.366 1_545 S
C167 C166 1.366 1_565 S
C167 C168 1.414 . S
C167 C170 1.499 . S
C168 H142 0.950 . S
C168 C167 1.414 . S
C168 C169 1.374 . S
C169 H143 0.950 . S
C169 C165 1.382 1_565 S
C169 C168 1.374 . S
C170 C167 1.499 . S
C170 C171 1.373 1_565 S
C170 C172 1.389 . S
C171 H144 0.950 . S
C171 C157 1.377 . S
C171 C170 1.373 1_545 S
C172 C156 1.377 . S
C172 C170 1.389 . S
C172 C173 1.524 . S
C173 C172 1.524 . S
C173 C174 1.397 . S
C173 C178 1.363 . S
C174 H145 0.950 . S
C174 C173 1.397 . S
C174 C175 1.334 . S
C175 H146 0.950 . S
C175 C174 1.334 . S
C175 C176 1.287 . S
C176 C175 1.287 . S
C176 C177 1.524 . S
C176 H179 0.999 . S
C177 H147 0.950 . S
C177 C176 1.524 . S
C177 C178 1.415 . S
C178 H148 0.950 1_565 S
C178 C173 1.363 . S
C178 C177 1.415 . S
H179 C176 0.999 . S
H180 C161 0.913 . S
H181 C199 0.951 . S
H182 C201 0.951 . S
H183 C203 0.950 . S
H184 C204 0.950 . S
H185 C206 0.950 . S
H186 C209 0.950 . S
H187 C210 0.950 . S
H188 C212 0.950 . S
H189 C213 0.950 . S
H190 C214 0.951 . S
H191 C216 0.951 . S
H192 C218 0.950 . S
H193 C219 0.950 . S
H194 C221 0.950 . S
H195 C224 0.950 . S
H196 C225 0.950 . S
H197 C227 0.950 . S
H198 C228 0.950 . S
C199 H181 0.951 . S
C199 C200 1.366 . S
C199 C201 1.388 . S
C200 C199 1.366 . S
C200 C204 1.385 . S
C201 H182 0.951 . S
C201 C199 1.388 . S
C201 C202 1.366 . S
C202 C201 1.366 . S
C202 C203 1.414 . S
C202 C205 1.499 . S
C203 H183 0.950 . S
C203 C202 1.414 . S
C203 C204 1.374 . S
C204 H184 0.950 . S
C204 C200 1.385 . S
C204 C203 1.374 . S
C205 C202 1.499 . S
C205 C206 1.373 . S
C205 C207 1.389 . S
C206 H185 0.950 . S
C206 C205 1.373 . S
C206 C222 1.377 . S
C207 C205 1.389 . S
C207 C208 1.524 . S
C207 C221 1.377 . S
C208 C207 1.524 . S
C208 C209 1.397 . S
C208 C213 1.363 . S
C209 H186 0.950 . S
C209 C208 1.397 . S
C209 C210 1.334 . S
C210 H187 0.950 . S
C210 C209 1.334 . S
C210 C211 1.287 . S
C211 C210 1.287 . S
C211 C212 1.524 . S
C211 H230 0.913 . S
C212 H188 0.950 . S
C212 C211 1.524 . S
C212 C213 1.415 . S
C213 H189 0.950 . S
C213 C208 1.363 . S
C213 C212 1.415 . S
C214 H190 0.951 . S
C214 C215 1.366 . S
C214 C216 1.388 . S
C215 C214 1.366 . S
C215 C219 1.385 . S
C216 H191 0.951 . S
C216 C214 1.388 . S
C216 C217 1.366 . S
C217 C216 1.366 . S
C217 C218 1.414 . S
C217 C220 1.499 . S
C218 H192 0.950 . S
C218 C217 1.414 . S
C218 C219 1.374 . S
C219 H193 0.950 . S
C219 C215 1.385 . S
C219 C218 1.374 . S
C220 C217 1.499 . S
C220 C221 1.373 . S
C220 C222 1.389 . S
C221 H194 0.950 . S
C221 C207 1.377 . S
C221 C220 1.373 . S
C222 C206 1.377 . S
C222 C220 1.389 . S
C222 C223 1.524 . S
C223 C222 1.524 . S
C223 C224 1.397 . S
C223 C228 1.363 . S
C224 H195 0.950 . S
C224 C223 1.397 . S
C224 C225 1.334 . S
C225 H196 0.950 . S
C225 C224 1.334 . S
C225 C226 1.287 . S
C226 C225 1.287 . S
C226 C227 1.524 . S
C226 H229 0.999 . S
C227 H197 0.950 . S
C227 C226 1.524 . S
C227 C228 1.415 . S
C228 H198 0.950 . S
C228 C223 1.363 . S
C228 C227 1.415 . S
H229 C226 0.999 . S
H230 C211 0.913 . S
H231 C249 0.951 . S
H232 C251 0.951 . S
H233 C253 0.950 . S
H234 C254 0.950 . S
H235 C256 0.950 . S
H236 C259 0.950 . S
H237 C260 0.950 . S
H238 C262 0.950 . S
H239 C263 0.950 . S
H240 C264 0.951 . S
H241 C266 0.951 . S
H242 C268 0.950 . S
H243 C269 0.950 . S
H244 C271 0.950 . S
H245 C274 0.950 . S
H246 C275 0.950 . S
H247 C277 0.950 . S
H248 C278 0.950 . S
C249 H231 0.951 . S
C249 C250 1.365 1_455 S
C249 C251 1.388 . S
C250 C249 1.365 1_655 S
C250 C254 1.381 . S
C251 H232 0.951 . S
C251 C249 1.388 . S
C251 C252 1.366 . S
C252 C251 1.366 . S
C252 C253 1.414 1_455 S
C252 C255 1.499 . S
C253 H233 0.950 . S
C253 C252 1.414 1_655 S
C253 C254 1.374 . S
C254 H234 0.950 . S
C254 C250 1.381 . S
C254 C253 1.374 . S
C255 C252 1.499 . S
C255 C256 1.373 1_455 S
C255 C257 1.389 . S
C256 H235 0.950 . S
C256 C255 1.373 1_655 S
C256 C272 1.377 . S
C257 C255 1.389 . S
C257 C258 1.524 . S
C257 C271 1.377 . S
C258 C257 1.524 . S
C258 C259 1.397 . S
C258 C263 1.363 . S
C259 H236 0.950 . S
C259 C258 1.397 . S
C259 C260 1.334 . S
C260 H237 0.950 . S
C260 C259 1.334 . S
C260 C261 1.287 . S
C261 C260 1.287 . S
C261 C262 1.524 . S
C261 H280 0.913 . S
C262 H238 0.950 . S
C262 C261 1.524 . S
C262 C263 1.415 . S
C263 H239 0.950 . S
C263 C258 1.363 . S
C263 C262 1.415 . S
C264 H240 0.951 . S
C264 C265 1.366 1_655 S
C264 C266 1.388 . S
C265 C264 1.366 1_455 S
C265 C269 1.384 . S
C266 H241 0.951 . S
C266 C264 1.388 . S
C266 C267 1.366 . S
C267 C266 1.366 . S
C267 C268 1.414 1_655 S
C267 C270 1.499 . S
C268 H242 0.950 . S
C268 C267 1.414 1_455 S
C268 C269 1.374 . S
C269 H243 0.950 . S
C269 C265 1.384 . S
C269 C268 1.374 . S
C270 C267 1.499 . S
C270 C271 1.373 1_655 S
C270 C272 1.389 . S
C271 H244 0.950 . S
C271 C257 1.377 . S
C271 C270 1.373 1_455 S
C272 C256 1.377 . S
C272 C270 1.389 . S
C272 C273 1.524 . S
C273 C272 1.524 . S
C273 C274 1.397 . S
C273 C278 1.363 . S
C274 H245 0.950 . S
C274 C273 1.397 . S
C274 C275 1.334 . S
C275 H246 0.950 . S
C275 C274 1.334 . S
C275 C276 1.287 . S
C276 C275 1.287 . S
C276 C277 1.524 . S
C276 H279 0.999 . S
C277 H247 0.950 . S
C277 C276 1.524 . S
C277 C278 1.415 . S
C278 H248 0.950 . S
C278 C273 1.363 . S
C278 C277 1.415 . S
H279 C276 0.999 . S
H280 C261 0.913 . S
H281 C299 0.951 . S
H282 C301 0.951 . S
H283 C303 0.950 . S
H284 C304 0.950 . S
H285 C306 0.950 . S
H286 C309 0.950 . S
H287 C310 0.950 . S
H288 C312 0.950 1_565 S
H289 C313 0.950 . S
H290 C314 0.951 . S
H291 C316 0.951 . S
H292 C318 0.950 . S
H293 C319 0.950 . S
H294 C321 0.950 . S
H295 C324 0.950 . S
H296 C325 0.950 . S
H297 C327 0.950 1_545 S
H298 C328 0.950 . S
C299 H281 0.951 . S
C299 C300 1.366 . S
C299 C301 1.388 . S
C300 C299 1.366 . S
C300 C304 1.385 1_565 S
C301 H282 0.951 . S
C301 C299 1.388 . S
C301 C302 1.367 . S
C302 C301 1.367 . S
C302 C303 1.408 1_565 S
C302 C305 1.504 1_565 S
C303 H283 0.950 . S
C303 C302 1.408 1_545 S
C303 C304 1.374 . S
C304 H284 0.950 . S
C304 C300 1.385 1_545 S
C304 C303 1.374 . S
C305 C302 1.504 1_545 S
C305 C306 1.373 1_545 S
C305 C307 1.389 . S
C306 H285 0.950 . S
C306 C305 1.373 1_565 S
C306 C322 1.377 . S
C307 C305 1.389 . S
C307 C308 1.524 . S
C307 C321 1.377 . S
C308 C307 1.524 . S
C308 C309 1.397 . S
C308 C313 1.363 1_545 S
C309 H286 0.950 . S
C309 C308 1.397 . S
C309 C310 1.334 . S
C310 H287 0.950 . S
C310 C309 1.334 . S
C310 C311 1.287 . S
C311 C310 1.287 . S
C311 C312 1.524 . S
C311 H330 0.913 . S
C312 H288 0.950 1_545 S
C312 C311 1.524 . S
C312 C313 1.415 1_545 S
C313 H289 0.950 . S
C313 C308 1.363 1_565 S
C313 C312 1.415 1_565 S
C314 H290 0.951 . S
C314 C315 1.366 1_545 S
C314 C316 1.388 . S
C315 C314 1.366 1_565 S
C315 C319 1.385 . S
C316 H291 0.951 . S
C316 C314 1.388 . S
C316 C317 1.366 1_545 S
C317 C316 1.366 1_565 S
C317 C318 1.414 . S
C317 C320 1.499 . S
C318 H292 0.950 . S
C318 C317 1.414 . S
C318 C319 1.374 . S
C319 H293 0.950 . S
C319 C315 1.385 . S
C319 C318 1.374 . S
C320 C317 1.499 . S
C320 C321 1.373 1_565 S
C320 C322 1.389 . S
C321 H294 0.950 . S
C321 C307 1.377 . S
C321 C320 1.373 1_545 S
C322 C306 1.377 . S
C322 C320 1.389 . S
C322 C323 1.524 . S
C323 C322 1.524 . S
C323 C324 1.397 . S
C323 C328 1.363 1_565 S
C324 H295 0.950 . S
C324 C323 1.397 . S
C324 C325 1.334 . S
C325 H296 0.950 . S
C325 C324 1.334 . S
C325 C326 1.287 . S
C326 C325 1.287 . S
C326 C327 1.524 . S
C326 H329 0.999 . S
C327 H297 0.950 1_565 S
C327 C326 1.524 . S
C327 C328 1.415 1_565 S
C328 H298 0.950 . S
C328 C323 1.363 1_545 S
C328 C327 1.415 1_545 S
H329 C326 0.999 . S
H330 C311 0.913 . S
H331 C349 0.951 . S
H332 C351 0.951 . S
H333 C353 0.950 . S
H334 C354 0.950 . S
H335 C356 0.950 . S
H336 C359 0.950 . S
H337 C360 0.950 . S
H338 C362 0.950 . S
H339 C363 0.950 . S
H340 C364 0.951 . S
H341 C366 0.951 . S
H342 C368 0.950 . S
H343 C369 0.950 . S
H344 C371 0.950 . S
H345 C374 0.950 . S
H346 C375 0.950 . S
H347 C377 0.950 . S
H348 C378 0.950 . S
C349 H331 0.951 . S
C349 C350 1.366 . S
C349 C351 1.388 . S
C350 C349 1.366 . S
C350 C354 1.385 . S
C351 H332 0.951 . S
C351 C349 1.388 . S
C351 C352 1.366 . S
C352 C351 1.366 . S
C352 C353 1.414 . S
C352 C355 1.499 . S
C353 H333 0.950 . S
C353 C352 1.414 . S
C353 C354 1.374 . S
C354 H334 0.950 . S
C354 C350 1.385 . S
C354 C353 1.374 . S
C355 C352 1.499 . S
C355 C356 1.373 . S
C355 C357 1.389 . S
C356 H335 0.950 . S
C356 C355 1.373 . S
C356 C372 1.377 . S
C357 C355 1.389 . S
C357 C358 1.524 . S
C357 C371 1.377 . S
C358 C357 1.524 . S
C358 C359 1.397 . S
C358 C363 1.363 . S
C359 H336 0.950 . S
C359 C358 1.397 . S
C359 C360 1.334 . S
C360 H337 0.950 . S
C360 C359 1.334 . S
C360 C361 1.287 . S
C361 C360 1.287 . S
C361 C362 1.524 . S
C361 H380 0.913 . S
C362 H338 0.950 . S
C362 C361 1.524 . S
C362 C363 1.415 . S
C363 H339 0.950 . S
C363 C358 1.363 . S
C363 C362 1.415 . S
C364 H340 0.951 . S
C364 C365 1.366 . S
C364 C366 1.388 . S
C365 C364 1.366 . S
C365 C369 1.385 . S
C366 H341 0.951 . S
C366 C364 1.388 . S
C366 C367 1.366 . S
C367 C366 1.366 . S
C367 C368 1.414 . S
C367 C370 1.499 . S
C368 H342 0.950 . S
C368 C367 1.414 . S
C368 C369 1.374 . S
C369 H343 0.950 . S
C369 C365 1.385 . S
C369 C368 1.374 . S
C370 C367 1.499 . S
C370 C371 1.373 . S
C370 C372 1.389 . S
C371 H344 0.950 . S
C371 C357 1.377 . S
C371 C370 1.373 . S
C372 C356 1.377 . S
C372 C370 1.389 . S
C372 C373 1.524 . S
C373 C372 1.524 . S
C373 C374 1.397 . S
C373 C378 1.363 . S
C374 H345 0.950 . S
C374 C373 1.397 . S
C374 C375 1.334 . S
C375 H346 0.950 . S
C375 C374 1.334 . S
C375 C376 1.287 . S
C376 C375 1.287 . S
C376 C377 1.524 . S
C376 H379 0.999 . S
C377 H347 0.950 . S
C377 C376 1.524 . S
C377 C378 1.415 . S
C378 H348 0.950 . S
C378 C373 1.363 . S
C378 C377 1.415 . S
H379 C376 0.999 . S
H380 C361 0.913 . S
H381 C399 0.951 . S
H382 C401 0.951 . S
H383 C403 0.950 . S
H384 C404 0.950 . S
H385 C406 0.950 . S
H386 C409 0.950 . S
H387 C410 0.950 . S
H388 C412 0.950 . S
H389 C413 0.950 . S
H390 C414 0.951 . S
H391 C416 0.951 . S
H392 C418 0.950 . S
H393 C419 0.950 . S
H394 C421 0.950 . S
H395 C424 0.950 . S
H396 C425 0.950 . S
H397 C427 0.950 . S
H398 C428 0.950 . S
C399 H381 0.951 . S
C399 C400 1.366 1_545 S
C399 C401 1.388 . S
C400 C399 1.366 1_565 S
C400 C404 1.385 . S
C401 H382 0.951 . S
C401 C399 1.388 . S
C401 C402 1.366 1_545 S
C402 C401 1.366 1_565 S
C402 C403 1.414 . S
C402 C405 1.499 . S
C403 H383 0.950 . S
C403 C402 1.414 . S
C403 C404 1.374 . S
C404 H384 0.950 . S
C404 C400 1.385 . S
C404 C403 1.374 . S
C405 C402 1.499 . S
C405 C406 1.373 1_565 S
C405 C407 1.389 . S
C406 H385 0.950 . S
C406 C405 1.373 1_545 S
C406 C422 1.377 . S
C407 C405 1.389 . S
C407 C408 1.524 . S
C407 C421 1.377 . S
C408 C407 1.524 . S
C408 C409 1.397 . S
C408 C413 1.363 . S
C409 H386 0.950 . S
C409 C408 1.397 . S
C409 C410 1.334 . S
C410 H387 0.950 . S
C410 C409 1.334 . S
C410 C411 1.287 . S
C411 C410 1.287 . S
C411 C412 1.524 . S
C411 H430 0.913 . S
C412 H388 0.950 . S
C412 C411 1.524 . S
C412 C413 1.415 . S
C413 H389 0.950 . S
C413 C408 1.363 . S
C413 C412 1.415 . S
C414 H390 0.951 . S
C414 C415 1.373 . S
C414 C416 1.388 . S
C415 C414 1.373 . S
C415 C419 1.381 1_565 S
C416 H391 0.951 . S
C416 C414 1.388 . S
C416 C417 1.360 1_565 S
C417 C416 1.360 1_545 S
C417 C418 1.424 . S
C417 C420 1.498 . S
C418 H392 0.950 . S
C418 C417 1.424 . S
C418 C419 1.374 . S
C419 H393 0.950 . S
C419 C415 1.381 1_545 S
C419 C418 1.374 . S
C420 C417 1.498 . S
C420 C421 1.370 1_545 S
C420 C422 1.387 . S
C421 H394 0.950 . S
C421 C407 1.377 . S
C421 C420 1.370 1_565 S
C422 C406 1.377 . S
C422 C420 1.387 . S
C422 C423 1.524 . S
C423 C422 1.524 . S
C423 C424 1.397 . S
C423 C428 1.363 . S
C424 H395 0.950 . S
C424 C423 1.397 . S
C424 C425 1.334 . S
C425 H396 0.950 . S
C425 C424 1.334 . S
C425 C426 1.287 . S
C426 C425 1.287 . S
C426 C427 1.524 . S
C426 H429 0.999 . S
C427 H397 0.950 . S
C427 C426 1.524 . S
C427 C428 1.415 . S
C428 H398 0.950 . S
C428 C423 1.363 . S
C428 C427 1.415 . S
H429 C426 0.999 . S
H430 C411 0.913 . S
H431 C449 0.951 . S
H432 C451 0.951 . S
H433 C453 0.950 . S
H434 C454 0.950 . S
H435 C456 0.950 . S
H436 C459 0.950 . S
H437 C460 0.950 . S
H438 C462 0.950 . S
H439 C463 0.950 . S
H440 C464 0.951 . S
H441 C466 0.951 . S
H442 C468 0.950 . S
H443 C469 0.950 . S
H444 C471 0.950 . S
H445 C474 0.950 . S
H446 C475 0.950 . S
H447 C477 0.950 . S
H448 C478 0.950 . S
C449 H431 0.951 . S
C449 C450 1.366 . S
C449 C451 1.388 . S
C450 C449 1.366 . S
C450 C454 1.385 . S
C451 H432 0.951 . S
C451 C449 1.388 . S
C451 C452 1.366 . S
C452 C451 1.366 . S
C452 C453 1.414 . S
C452 C455 1.499 . S
C453 H433 0.950 . S
C453 C452 1.414 . S
C453 C454 1.374 . S
C454 H434 0.950 . S
C454 C450 1.385 . S
C454 C453 1.374 . S
C455 C452 1.499 . S
C455 C456 1.373 . S
C455 C457 1.389 . S
C456 H435 0.950 . S
C456 C455 1.373 . S
C456 C472 1.377 . S
C457 C455 1.389 . S
C457 C458 1.524 . S
C457 C471 1.377 . S
C458 C457 1.524 . S
C458 C459 1.397 . S
C458 C463 1.363 . S
C459 H436 0.950 . S
C459 C458 1.397 . S
C459 C460 1.334 . S
C460 H437 0.950 . S
C460 C459 1.334 . S
C460 C461 1.287 . S
C461 C460 1.287 . S
C461 C462 1.524 . S
C461 H480 0.913 . S
C462 H438 0.950 . S
C462 C461 1.524 . S
C462 C463 1.415 . S
C463 H439 0.950 . S
C463 C458 1.363 . S
C463 C462 1.415 . S
C464 H440 0.951 . S
C464 C465 1.366 . S
C464 C466 1.388 1_556 S
C465 C464 1.366 . S
C465 C469 1.385 1_556 S
C466 H441 0.951 . S
C466 C464 1.388 1_554 S
C466 C467 1.366 . S
C467 C466 1.366 . S
C467 C468 1.414 . S
C467 C470 1.499 . S
C468 H442 0.950 . S
C468 C467 1.414 . S
C468 C469 1.374 . S
C469 H443 0.950 . S
C469 C465 1.385 1_554 S
C469 C468 1.374 . S
C470 C467 1.499 . S
C470 C471 1.373 . S
C470 C472 1.389 . S
C471 H444 0.950 . S
C471 C457 1.377 . S
C471 C470 1.373 . S
C472 C456 1.377 . S
C472 C470 1.389 . S
C472 C473 1.524 . S
C473 C472 1.524 . S
C473 C474 1.397 . S
C473 C478 1.363 . S
C474 H445 0.950 . S
C474 C473 1.397 . S
C474 C475 1.334 1_554 S
C475 H446 0.950 . S
C475 C474 1.334 1_556 S
C475 C476 1.287 . S
C476 C475 1.287 . S
C476 C477 1.524 . S
C476 H479 0.999 . S
C477 H447 0.950 . S
C477 C476 1.524 . S
C477 C478 1.415 1_556 S
C478 H448 0.950 . S
C478 C473 1.363 . S
C478 C477 1.415 1_554 S
H479 C476 0.999 . S
H480 C461 0.913 . S
H481 C499 0.951 . S
H482 C501 0.951 . S
H483 C503 0.950 . S
H484 C504 0.950 . S
H485 C506 0.950 . S
H486 C509 0.950 . S
H487 C510 0.950 . S
H488 C512 0.950 . S
H489 C513 0.950 . S
H490 C514 0.951 . S
H491 C516 0.951 . S
H492 C518 0.950 . S
H493 C519 0.950 . S
H494 C521 0.950 . S
H495 C524 0.950 . S
H496 C525 0.950 . S
H497 C527 0.950 . S
H498 C528 0.950 . S
C499 H481 0.951 . S
C499 C500 1.366 1_655 S
C499 C501 1.388 . S
C500 C499 1.366 1_455 S
C500 C504 1.385 . S
C501 H482 0.951 . S
C501 C499 1.388 . S
C501 C502 1.366 1_655 S
C502 C501 1.366 1_455 S
C502 C503 1.414 . S
C502 C505 1.499 . S
C503 H483 0.950 . S
C503 C502 1.414 . S
C503 C504 1.374 . S
C504 H484 0.950 . S
C504 C500 1.385 . S
C504 C503 1.374 . S
C505 C502 1.499 . S
C505 C506 1.373 . S
C505 C507 1.389 1_455 S
C506 H485 0.950 . S
C506 C505 1.373 . S
C506 C522 1.377 . S
C507 C505 1.389 1_655 S
C507 C508 1.524 . S
C507 C521 1.377 . S
C508 C507 1.524 . S
C508 C509 1.397 1_655 S
C508 C513 1.363 . S
C509 H486 0.950 . S
C509 C508 1.397 1_455 S
C509 C510 1.334 . S
C510 H487 0.950 . S
C510 C509 1.334 . S
C510 C511 1.287 . S
C511 C510 1.287 . S
C511 C512 1.524 1_455 S
C511 H530 0.913 . S
C512 H488 0.950 . S
C512 C511 1.524 1_655 S
C512 C513 1.415 . S
C513 H489 0.950 . S
C513 C508 1.363 . S
C513 C512 1.415 . S
C514 H490 0.951 . S
C514 C515 1.368 . S
C514 C516 1.388 . S
C515 C514 1.368 . S
C515 C519 1.378 1_455 S
C516 H491 0.951 . S
C516 C514 1.388 . S
C516 C517 1.364 1_455 S
C517 C516 1.364 1_655 S
C517 C518 1.414 . S
C517 C520 1.499 . S
C518 H492 0.950 . S
C518 C517 1.414 . S
C518 C519 1.374 . S
C519 H493 0.950 . S
C519 C515 1.378 1_655 S
C519 C518 1.374 . S
C520 C517 1.499 . S
C520 C521 1.373 . S
C520 C522 1.389 1_655 S
C521 H494 0.950 . S
C521 C507 1.377 . S
C521 C520 1.373 . S
C522 C506 1.377 . S
C522 C520 1.389 1_455 S
C522 C523 1.524 . S
C523 C522 1.524 . S
C523 C524 1.397 1_455 S
C523 C528 1.363 . S
C524 H495 0.950 . S
C524 C523 1.397 1_655 S
C524 C525 1.334 . S
C525 H496 0.950 . S
C525 C524 1.334 . S
C525 C526 1.287 . S
C526 C525 1.287 . S
C526 C527 1.524 1_655 S
C526 H529 0.999 . S
C527 H497 0.950 . S
C527 C526 1.524 1_455 S
C527 C528 1.415 . S
C528 H498 0.950 . S
C528 C523 1.363 . S
C528 C527 1.415 . S
H529 C526 0.999 . S
H530 C511 0.913 . S
H531 C549 0.951 . S
H532 C551 0.951 . S
H533 C553 0.950 . S
H534 C554 0.950 . S
H535 C556 0.950 . S
H536 C559 0.950 . S
H537 C560 0.950 . S
H538 C562 0.950 . S
H539 C563 0.950 . S
H540 C564 0.951 . S
H541 C566 0.951 . S
H542 C568 0.950 . S
H543 C569 0.950 . S
H544 C571 0.950 . S
H545 C574 0.950 . S
H546 C575 0.950 . S
H547 C577 0.950 . S
H548 C578 0.950 . S
C549 H531 0.951 . S
C549 C550 1.366 . S
C549 C551 1.388 . S
C550 C549 1.366 . S
C550 C554 1.385 1_545 S
C551 H532 0.951 . S
C551 C549 1.388 . S
C551 C552 1.366 . S
C552 C551 1.366 . S
C552 C553 1.414 1_545 S
C552 C555 1.499 . S
C553 H533 0.950 . S
C553 C552 1.414 1_565 S
C553 C554 1.374 . S
C554 H534 0.950 . S
C554 C550 1.385 1_565 S
C554 C553 1.374 . S
C555 C552 1.499 . S
C555 C556 1.373 1_545 S
C555 C557 1.389 . S
C556 H535 0.950 . S
C556 C555 1.373 1_565 S
C556 C572 1.377 . S
C557 C555 1.389 . S
C557 C558 1.524 . S
C557 C571 1.377 . S
C558 C557 1.524 . S
C558 C559 1.397 . S
C558 C563 1.363 . S
C559 H536 0.950 . S
C559 C558 1.397 . S
C559 C560 1.334 . S
C560 H537 0.950 . S
C560 C559 1.334 . S
C560 C561 1.287 . S
C561 C560 1.287 . S
C561 C562 1.524 . S
C561 H580 0.913 . S
C562 H538 0.950 . S
C562 C561 1.524 . S
C562 C563 1.415 . S
C563 H539 0.950 . S
C563 C558 1.363 . S
C563 C562 1.415 . S
C564 H540 0.951 . S
C564 C565 1.359 1_565 S
C564 C566 1.388 . S
C565 C564 1.359 1_545 S
C565 C569 1.397 . S
C566 H541 0.951 . S
C566 C564 1.388 . S
C566 C567 1.366 1_565 S
C567 C566 1.366 1_545 S
C567 C568 1.414 . S
C567 C570 1.499 . S
C568 H542 0.950 . S
C568 C567 1.414 . S
C568 C569 1.374 . S
C569 H543 0.950 . S
C569 C565 1.397 . S
C569 C568 1.374 . S
C570 C567 1.499 . S
C570 C571 1.373 . S
C570 C572 1.389 1_545 S
C571 H544 0.950 . S
C571 C557 1.377 . S
C571 C570 1.373 . S
C572 C556 1.377 . S
C572 C570 1.389 1_565 S
C572 C573 1.524 . S
C573 C572 1.524 . S
C573 C574 1.397 . S
C573 C578 1.363 . S
C574 H545 0.950 . S
C574 C573 1.397 . S
C574 C575 1.334 . S
C575 H546 0.950 . S
C575 C574 1.334 . S
C575 C576 1.287 . S
C576 C575 1.287 . S
C576 C577 1.524 . S
C576 H579 0.999 . S
C577 H547 0.950 . S
C577 C576 1.524 . S
C577 C578 1.415 . S
C578 H548 0.950 . S
C578 C573 1.363 . S
C578 C577 1.415 . S
H579 C576 0.999 . S
H580 C561 0.913 . S
H581 C599 0.951 . S
H582 C601 0.951 . S
H583 C603 0.950 . S
H584 C604 0.950 . S
H585 C606 0.950 . S
H586 C609 0.950 . S
H587 C610 0.950 . S
H588 C612 0.950 . S
H589 C613 0.950 . S
H590 C614 0.951 . S
H591 C616 0.951 . S
H592 C618 0.950 . S
H593 C619 0.950 . S
H594 C621 0.950 . S
H595 C624 0.950 . S
H596 C625 0.950 . S
H597 C627 0.950 . S
H598 C628 0.950 . S
C599 H581 0.951 . S
C599 C600 1.366 . S
C599 C601 1.388 . S
C600 C599 1.366 . S
C600 C604 1.385 . S
C601 H582 0.951 . S
C601 C599 1.388 . S
C601 C602 1.366 . S
C602 C601 1.366 . S
C602 C603 1.414 . S
C602 C605 1.499 . S
C603 H583 0.950 . S
C603 C602 1.414 . S
C603 C604 1.374 . S
C604 H584 0.950 . S
C604 C600 1.385 . S
C604 C603 1.374 . S
C605 C602 1.499 . S
C605 C606 1.373 . S
C605 C607 1.389 . S
C606 H585 0.950 . S
C606 C605 1.373 . S
C606 C622 1.377 . S
C607 C605 1.389 . S
C607 C608 1.524 . S
C607 C621 1.377 . S
C608 C607 1.524 . S
C608 C609 1.397 . S
C608 C613 1.363 . S
C609 H586 0.950 . S
C609 C608 1.397 . S
C609 C610 1.334 . S
C610 H587 0.950 . S
C610 C609 1.334 . S
C610 C611 1.287 . S
C611 C610 1.287 . S
C611 C612 1.524 . S
C611 H630 0.913 . S
C612 H588 0.950 . S
C612 C611 1.524 . S
C612 C613 1.415 . S
C613 H589 0.950 . S
C613 C608 1.363 . S
C613 C612 1.415 . S
C614 H590 0.951 . S
C614 C615 1.366 . S
C614 C616 1.388 1_556 S
C615 C614 1.366 . S
C615 C619 1.385 1_556 S
C616 H591 0.951 . S
C616 C614 1.388 1_554 S
C616 C617 1.366 . S
C617 C616 1.366 . S
C617 C618 1.414 . S
C617 C620 1.499 . S
C618 H592 0.950 . S
C618 C617 1.414 . S
C618 C619 1.374 . S
C619 H593 0.950 . S
C619 C615 1.385 1_554 S
C619 C618 1.374 . S
C620 C617 1.499 . S
C620 C621 1.373 . S
C620 C622 1.389 . S
C621 H594 0.950 . S
C621 C607 1.377 . S
C621 C620 1.373 . S
C622 C606 1.377 . S
C622 C620 1.389 . S
C622 C623 1.524 . S
C623 C622 1.524 . S
C623 C624 1.397 . S
C623 C628 1.363 . S
C624 H595 0.950 . S
C624 C623 1.397 . S
C624 C625 1.334 . S
C625 H596 0.950 . S
C625 C624 1.334 . S
C625 C626 1.287 . S
C626 C625 1.287 . S
C626 C627 1.524 . S
C626 H629 0.999 . S
C627 H597 0.950 . S
C627 C626 1.524 . S
C627 C628 1.415 . S
C628 H598 0.950 . S
C628 C623 1.363 . S
C628 C627 1.415 . S
H629 C626 0.999 . S
H630 C611 0.913 . S
H631 C649 0.951 . S
H632 C651 0.951 . S
H633 C653 0.950 . S
H634 C654 0.950 . S
H635 C656 0.950 . S
H636 C659 0.950 . S
H637 C660 0.950 . S
H638 C662 0.950 . S
H639 C663 0.950 . S
H640 C664 0.951 . S
H641 C666 0.951 . S
H642 C668 0.950 . S
H643 C669 0.950 . S
H644 C671 0.950 . S
H645 C674 0.950 . S
H646 C675 0.950 . S
H647 C677 0.950 . S
H648 C678 0.950 . S
C649 H631 0.951 . S
C649 C650 1.366 1_455 S
C649 C651 1.388 . S
C650 C649 1.366 1_655 S
C650 C654 1.385 . S
C651 H632 0.951 . S
C651 C649 1.388 . S
C651 C652 1.366 1_455 S
C652 C651 1.366 1_655 S
C652 C653 1.414 . S
C652 C655 1.499 . S
C653 H633 0.950 . S
C653 C652 1.414 . S
C653 C654 1.374 . S
C654 H634 0.950 . S
C654 C650 1.385 . S
C654 C653 1.374 . S
C655 C652 1.499 . S
C655 C656 1.373 1_655 S
C655 C657 1.389 . S
C656 H635 0.950 . S
C656 C655 1.373 1_455 S
C656 C672 1.377 . S
C657 C655 1.389 . S
C657 C658 1.524 . S
C657 C671 1.377 . S
C658 C657 1.524 . S
C658 C659 1.397 . S
C658 C663 1.363 . S
C659 H636 0.950 . S
C659 C658 1.397 . S
C659 C660 1.334 . S
C660 H637 0.950 . S
C660 C659 1.334 . S
C660 C661 1.287 . S
C661 C660 1.287 . S
C661 C662 1.524 . S
C661 H680 0.913 . S
C662 H638 0.950 . S
C662 C661 1.524 . S
C662 C663 1.415 . S
C663 H639 0.950 . S
C663 C658 1.363 . S
C663 C662 1.415 . S
C664 H640 0.951 . S
C664 C665 1.365 . S
C664 C666 1.388 . S
C665 C664 1.365 . S
C665 C669 1.384 1_655 S
C666 H641 0.951 . S
C666 C664 1.388 . S
C666 C667 1.366 1_655 S
C667 C666 1.366 1_455 S
C667 C668 1.414 . S
C667 C670 1.499 . S
C668 H642 0.950 . S
C668 C667 1.414 . S
C668 C669 1.374 . S
C669 H643 0.950 . S
C669 C665 1.384 1_455 S
C669 C668 1.374 . S
C670 C667 1.499 . S
C670 C671 1.373 1_455 S
C670 C672 1.389 . S
C671 H644 0.950 . S
C671 C657 1.377 . S
C671 C670 1.373 1_655 S
C672 C656 1.377 . S
C672 C670 1.389 . S
C672 C673 1.524 . S
C673 C672 1.524 . S
C673 C674 1.397 . S
C673 C678 1.363 . S
C674 H645 0.950 . S
C674 C673 1.397 . S
C674 C675 1.334 . S
C675 H646 0.950 . S
C675 C674 1.334 . S
C675 C676 1.287 . S
C676 C675 1.287 . S
C676 C677 1.524 . S
C676 H679 0.999 . S
C677 H647 0.950 . S
C677 C676 1.524 . S
C677 C678 1.415 . S
C678 H648 0.950 . S
C678 C673 1.363 . S
C678 C677 1.415 . S
H679 C676 0.999 . S
H680 C661 0.913 . S
C115 C47 1.405 1_455 S
C100 C6 1.402 1_455 S
C150 C22 1.549 . S
C165 C65 1.569 1_545 S
C200 C34 1.259 . S
C215 C78 1.273 . S
C250 C7 1.403 1_655 S
C265 C45 1.407 1_455 S
C315 C56 1.563 . S
C300 C23 1.546 . S
C350 C35 1.258 . S
C365 C69 1.267 . S
C415 C58 1.480 . S
C400 C36 1.482 . S
C450 C9 1.703 . S
C465 C71 1.723 . S
C515 C52 1.487 1_455 S
C500 C21 1.473 1_455 S
C565 C60 1.479 1_545 S
C550 C37 1.477 . S
C615 C73 1.722 . S
C600 C8 1.701 . S
C650 C20 1.471 1_655 S
C665 C43 1.482 . S
