# Generated by pormake.
# Topology cml, (3,6)-cn, num edge types: 1
# Building blocks:
#     Node 0, Type 0, BuildingBlock: OLANEW_clean_sbu_2, # of connection points: 3
#     Node 1, Type 0, BuildingBlock: OLANEW_clean_sbu_2, # of connection points: 3
#     Node 2, Type 0, BuildingBlock: OLANEW_clean_sbu_2, # of connection points: 3
#     Node 3, Type 0, BuildingBlock: OLANEW_clean_sbu_2, # of connection points: 3
#     Node 4, Type 0, BuildingBlock: OLANEW_clean_sbu_2, # of connection points: 3
#     Node 5, Type 0, BuildingBlock: OLANEW_clean_sbu_2, # of connection points: 3
#     Node 6, Type 0, BuildingBlock: OLANEW_clean_sbu_2, # of connection points: 3
#     Node 7, Type 0, BuildingBlock: OLANEW_clean_sbu_2, # of connection points: 3
#     Node 8, Type 1, BuildingBlock: IZENUY_clean_sbu_0, # of connection points: 6
#     Node 9, Type 1, BuildingBlock: IZENUY_clean_sbu_0, # of connection points: 6
#     Node 10, Type 1, BuildingBlock: IZENUY_clean_sbu_0, # of connection points: 6
#     Node 11, Type 1, BuildingBlock: IZENUY_clean_sbu_0, # of connection points: 6
#     Edge 12, Type (0, 1), BuildingBlock: MIFKUJ_clean_linker_0, # of connection points: 2
#     Edge 13, Type (0, 1), BuildingBlock: MIFKUJ_clean_linker_0, # of connection points: 2
#     Edge 14, Type (0, 1), BuildingBlock: MIFKUJ_clean_linker_0, # of connection points: 2
#     Edge 15, Type (0, 1), BuildingBlock: MIFKUJ_clean_linker_0, # of connection points: 2
#     Edge 16, Type (0, 1), BuildingBlock: MIFKUJ_clean_linker_0, # of connection points: 2
#     Edge 17, Type (0, 1), BuildingBlock: MIFKUJ_clean_linker_0, # of connection points: 2
#     Edge 18, Type (0, 1), BuildingBlock: MIFKUJ_clean_linker_0, # of connection points: 2
#     Edge 19, Type (0, 1), BuildingBlock: MIFKUJ_clean_linker_0, # of connection points: 2
#     Edge 20, Type (0, 1), BuildingBlock: MIFKUJ_clean_linker_0, # of connection points: 2
#     Edge 21, Type (0, 1), BuildingBlock: MIFKUJ_clean_linker_0, # of connection points: 2
#     Edge 22, Type (0, 1), BuildingBlock: MIFKUJ_clean_linker_0, # of connection points: 2
#     Edge 23, Type (0, 1), BuildingBlock: MIFKUJ_clean_linker_0, # of connection points: 2
#     Edge 24, Type (0, 1), BuildingBlock: MIFKUJ_clean_linker_0, # of connection points: 2
#     Edge 25, Type (0, 1), BuildingBlock: MIFKUJ_clean_linker_0, # of connection points: 2
#     Edge 26, Type (0, 1), BuildingBlock: MIFKUJ_clean_linker_0, # of connection points: 2
#     Edge 27, Type (0, 1), BuildingBlock: MIFKUJ_clean_linker_0, # of connection points: 2
#     Edge 28, Type (0, 1), BuildingBlock: MIFKUJ_clean_linker_0, # of connection points: 2
#     Edge 29, Type (0, 1), BuildingBlock: MIFKUJ_clean_linker_0, # of connection points: 2
#     Edge 30, Type (0, 1), BuildingBlock: MIFKUJ_clean_linker_0, # of connection points: 2
#     Edge 31, Type (0, 1), BuildingBlock: MIFKUJ_clean_linker_0, # of connection points: 2
#     Edge 32, Type (0, 1), BuildingBlock: MIFKUJ_clean_linker_0, # of connection points: 2
#     Edge 33, Type (0, 1), BuildingBlock: MIFKUJ_clean_linker_0, # of connection points: 2
#     Edge 34, Type (0, 1), BuildingBlock: MIFKUJ_clean_linker_0, # of connection points: 2
#     Edge 35, Type (0, 1), BuildingBlock: MIFKUJ_clean_linker_0, # of connection points: 2
# Relax obj value: 0.015
# Max RMSD: 0.079
# Mean RMSD: 0.063
data_MOF--net-cml--node1-OLANEW_clean_sbu_2--node2-IZENUY_clean_sbu_0--edge1-MIFKUJ_clean_linker_0
_symmetry_space_group_name_H-M    P1
_symmetry_Int_Tables_number       1
_symmetry_cell_setting            triclinic
loop_
_symmetry_equiv_pos_as_xyz
'x, y, z'
_cell_length_a     50.310523
_cell_length_b     55.679448
_cell_length_c     50.534635
_cell_angle_alpha  88.625719
_cell_angle_beta   87.963394
_cell_angle_gamma 88.830423
loop_
_atom_site_label
_atom_site_type_symbol
_atom_site_fract_x
_atom_site_fract_y
_atom_site_fract_z
_atom_type_partial_charge
O0 O 0.27053 0.42591 0.95001 0.0
Cd1 Cd 0.24505 0.39496 0.9744 0.0
O2 O 0.29779 0.41789 0.98187 0.0
Cd3 Cd 0.33192 0.42344 0.0065 0.0
O4 O 0.35658 0.42166 0.04122 0.0
C5 C 0.34888 0.43287 0.06183 0.0
O6 O 0.3271 0.44625 0.06106 0.0
C7 C 0.2923 0.42987 0.96098 0.0
C8 C 0.21709 0.3626 0.94522 0.0
O9 O 0.20558 0.38142 0.95472 0.0
O10 O 0.24205 0.3595 0.94873 0.0
O11 O 0.70753 0.63157 0.54637 0.0
Cd12 Cd 0.72471 0.61858 0.50295 0.0
O13 O 0.73882 0.61231 0.5682 0.0
Cd14 Cd 0.75008 0.59201 0.53299 0.0
O15 O 0.73723 0.5655 0.50515 0.0
C16 C 0.72167 0.54982 0.5153 0.0
O17 O 0.71593 0.55036 0.54085 0.0
C18 C 0.71872 0.62656 0.56808 0.0
C19 C 0.76177 0.65052 0.4807 0.0
O20 O 0.7373 0.6519 0.47449 0.0
O21 O 0.76869 0.63405 0.49737 0.0
O22 O 0.74045 0.41412 0.95314 0.0
Cd23 Cd 0.76576 0.38419 0.97897 0.0
O24 O 0.72084 0.42637 0.99019 0.0
Cd25 Cd 0.73579 0.39934 0.01825 0.0
O26 O 0.72724 0.3847 0.05809 0.0
C27 C 0.71988 0.40037 0.07485 0.0
O28 O 0.71973 0.42312 0.06729 0.0
C29 C 0.7246 0.42857 0.96523 0.0
C30 C 0.79513 0.34973 0.95038 0.0
O31 O 0.77162 0.34533 0.95962 0.0
O32 O 0.80444 0.37061 0.95404 0.0
O33 O 0.31289 0.60805 0.46172 0.0
Cd34 Cd 0.30333 0.64641 0.48322 0.0
O35 O 0.29424 0.58488 0.49265 0.0
Cd36 Cd 0.28792 0.61422 0.52022 0.0
O37 O 0.30103 0.62856 0.55735 0.0
C38 C 0.3259 0.63173 0.55863 0.0
O39 O 0.34115 0.62794 0.53743 0.0
C40 C 0.30634 0.58725 0.47026 0.0
C41 C 0.25777 0.6705 0.46563 0.0
O42 O 0.27959 0.67077 0.45177 0.0
O43 O 0.2573 0.65862 0.48768 0.0
O44 O 0.80276 0.90256 0.94334 0.0
Cd45 Cd 0.77835 0.87257 0.97056 0.0
O46 O 0.82539 0.91073 0.97841 0.0
Cd47 Cd 0.8102 0.88414 0.00721 0.0
O48 O 0.81973 0.87247 0.0474 0.0
C49 C 0.83863 0.88433 0.05637 0.0
O50 O 0.84938 0.90128 0.0412 0.0
C51 C 0.8202 0.91486 0.95426 0.0
C52 C 0.74551 0.8413 0.94486 0.0
O53 O 0.73766 0.8627 0.9504 0.0
O54 O 0.76925 0.83487 0.95067 0.0
O55 O 0.22961 0.13306 0.53147 0.0
Cd56 Cd 0.24765 0.12489 0.48682 0.0
O57 O 0.23871 0.09607 0.54512 0.0
Cd58 Cd 0.24543 0.08153 0.50565 0.0
O59 O 0.22918 0.05541 0.47923 0.0
C60 C 0.21504 0.03957 0.49116 0.0
O61 O 0.21251 0.04003 0.51712 0.0
C62 C 0.23062 0.11734 0.55011 0.0
C63 C 0.28095 0.16102 0.46657 0.0
O64 O 0.25643 0.16066 0.46055 0.0
O65 O 0.28965 0.14444 0.4822 0.0
O66 O 0.22411 0.90823 0.97915 0.0
Cd67 Cd 0.24243 0.87523 0.00636 0.0
O68 O 0.22737 0.9338 0.01135 0.0
Cd69 Cd 0.23827 0.90701 0.04157 0.0
O70 O 0.22875 0.88972 0.07993 0.0
C71 C 0.219 0.90378 0.09735 0.0
O72 O 0.21697 0.92683 0.09138 0.0
C73 C 0.22147 0.9295 0.98768 0.0
C74 C 0.2786 0.84501 0.97935 0.0
O75 O 0.25379 0.84016 0.98128 0.0
O76 O 0.28622 0.86432 0.98986 0.0
O77 O 0.7851 0.08257 0.47117 0.0
Cd78 Cd 0.77422 0.12048 0.49311 0.0
O79 O 0.77989 0.06192 0.50859 0.0
Cd80 Cd 0.77201 0.0927 0.53379 0.0
O81 O 0.78841 0.1081 0.56883 0.0
C82 C 0.80621 0.09445 0.57871 0.0
O83 O 0.81182 0.07387 0.56737 0.0
C84 C 0.78555 0.06256 0.48387 0.0
C85 C 0.73546 0.14963 0.4696 0.0
O86 O 0.75998 0.15081 0.46196 0.0
O87 O 0.72918 0.13424 0.48793 0.0
Fe88 Fe 0.99973 0.81995 0.33454 0.0
Fe89 Fe 0.99619 0.84734 0.38663 0.0
O90 O 0.99793 0.8474 0.35156 0.0
Fe91 Fe 0.99789 0.875 0.33346 0.0
O92 O 0.96765 0.86762 0.31727 0.0
O93 O 0.98105 0.83133 0.30607 0.0
O94 O 0.96815 0.81057 0.34939 0.0
C95 C 0.96305 0.80902 0.37397 0.0
C96 C 0.03545 0.84649 0.30494 0.0
O97 O 0.97732 0.81945 0.39019 0.0
C98 C 0.0312 0.88524 0.37295 0.0
O99 O 0.01888 0.8037 0.35988 0.0
O100 O 0.0277 0.83124 0.38861 0.0
O101 O 0.0189 0.8639 0.30584 0.0
O102 O 0.03144 0.82759 0.3186 0.0
C103 C 0.96068 0.88366 0.37561 0.0
O104 O 0.01502 0.87517 0.38933 0.0
O105 O 0.02817 0.88397 0.34839 0.0
C106 C 0.03318 0.81148 0.37783 0.0
O107 O 0.96443 0.8635 0.38692 0.0
O108 O 0.97697 0.89128 0.35783 0.0
C109 C 0.96521 0.84919 0.30358 0.0
Fe110 Fe 0.01916 0.13928 0.86122 0.0
Fe111 Fe 0.02447 0.11171 0.80941 0.0
O112 O 0.0222 0.13918 0.82622 0.0
Fe113 Fe 0.02287 0.16664 0.80788 0.0
O114 O 0.05277 0.17547 0.8237 0.0
O115 O 0.03796 0.16713 0.86434 0.0
O116 O 0.05047 0.12288 0.86448 0.0
C117 C 0.05583 0.10281 0.85429 0.0
C118 C 0.98449 0.17586 0.84894 0.0
O119 O 0.04233 0.09536 0.83556 0.0
C120 C 0.99042 0.14045 0.7781 0.0
O121 O 0.99987 0.11147 0.8642 0.0
O122 O 0.9924 0.10254 0.82302 0.0
O123 O 0.00139 0.18326 0.8316 0.0
O124 O 0.9876 0.15563 0.8603 0.0
C125 C 0.06086 0.13759 0.78022 0.0
O126 O 0.00691 0.12307 0.78031 0.0
O127 O 0.99291 0.15926 0.79113 0.0
C128 C 0.98629 0.10098 0.84738 0.0
O129 O 0.0567 0.11917 0.79465 0.0
O130 O 0.04454 0.15522 0.78073 0.0
C131 C 0.05452 0.17729 0.8484 0.0
Fe132 Fe 0.51414 0.33978 0.33017 0.0
Fe133 Fe 0.51187 0.36291 0.38479 0.0
O134 O 0.51461 0.36569 0.34982 0.0
Fe135 Fe 0.51768 0.39447 0.33459 0.0
O136 O 0.48739 0.391 0.31686 0.0
O137 O 0.49733 0.35489 0.30239 0.0
O138 O 0.4814 0.33178 0.34355 0.0
C139 C 0.47593 0.32835 0.36789 0.0
C140 C 0.55285 0.36534 0.3035 0.0
O141 O 0.49077 0.33639 0.38521 0.0
C142 C 0.55012 0.39919 0.37613 0.0
O143 O 0.53112 0.32017 0.35438 0.0
O144 O 0.5419 0.34448 0.38582 0.0
O145 O 0.53857 0.38414 0.30645 0.0
O146 O 0.54677 0.34596 0.31543 0.0
C147 C 0.47959 0.40214 0.37606 0.0
O148 O 0.53267 0.38889 0.39085 0.0
O149 O 0.54816 0.39981 0.35133 0.0
C150 C 0.54557 0.32518 0.3735 0.0
O151 O 0.48149 0.38113 0.38581 0.0
O152 O 0.49733 0.41006 0.35992 0.0
C153 C 0.48357 0.37419 0.30127 0.0
Fe154 Fe 0.51042 0.6441 0.87397 0.0
Fe155 Fe 0.51241 0.61928 0.82045 0.0
O156 O 0.51058 0.64587 0.83896 0.0
Fe157 Fe 0.50912 0.67422 0.82238 0.0
O158 O 0.52741 0.69 0.84733 0.0
O159 O 0.5406 0.66133 0.87473 0.0
O160 O 0.53186 0.61689 0.87555 0.0
C161 C 0.54793 0.60779 0.85846 0.0
C162 C 0.4732 0.68188 0.86311 0.0
O163 O 0.54405 0.61059 0.83408 0.0
C164 C 0.47614 0.64529 0.79231 0.0
O165 O 0.48028 0.62669 0.87542 0.0
O166 O 0.49387 0.60094 0.84532 0.0
O167 O 0.47738 0.68161 0.83837 0.0
O168 O 0.4889 0.67097 0.87864 0.0
C169 C 0.54618 0.65089 0.79114 0.0
O170 O 0.48089 0.62631 0.80557 0.0
O171 O 0.4905 0.66358 0.79435 0.0
C172 C 0.47793 0.60695 0.8641 0.0
O173 O 0.53141 0.6327 0.79228 0.0
O174 O 0.54092 0.6687 0.80546 0.0
C175 C 0.54345 0.68196 0.8643 0.0
H176 H 0.16341 0.35664 0.94814 0.0
H177 H 0.13835 0.32395 0.93008 0.0
H178 H 0.21059 0.2944 0.89452 0.0
H179 H 0.23602 0.32677 0.9131 0.0
H180 H 0.16063 0.2982 0.86123 0.0
H181 H 0.19473 0.26714 0.94402 0.0
H182 H 0.20256 0.26892 0.99182 0.0
H183 H 0.11835 0.27335 0.00854 0.0
H184 H 0.11003 0.27197 0.96077 0.0
H185 H 0.10366 0.18813 0.82759 0.0
H186 H 0.13416 0.21803 0.84305 0.0
H187 H 0.07765 0.23615 0.90615 0.0
H188 H 0.04804 0.20518 0.89175 0.0
H189 H 0.12301 0.2375 0.92478 0.0
H190 H 0.08717 0.27011 0.84424 0.0
H191 H 0.07693 0.27064 0.79686 0.0
H192 H 0.16032 0.26666 0.77584 0.0
H193 H 0.17104 0.26562 0.82312 0.0
C194 C 0.17395 0.34335 0.93624 0.0
C195 C 0.2017 0.34422 0.93209 0.0
C196 C 0.15961 0.32468 0.92601 0.0
C197 C 0.1727 0.3068 0.91111 0.0
C198 C 0.20021 0.3081 0.90599 0.0
C199 C 0.21467 0.32653 0.91666 0.0
C200 C 0.15767 0.28619 0.90195 0.0
C201 C 0.15267 0.28466 0.87496 0.0
C202 C 0.14682 0.26903 0.92009 0.0
C203 C 0.15178 0.26971 0.94881 0.0
C204 C 0.17789 0.26873 0.95787 0.0
C205 C 0.18242 0.26962 0.98496 0.0
C206 C 0.16097 0.27132 0.0032 0.0
C207 C 0.13494 0.27207 0.99439 0.0
C208 C 0.13031 0.27121 0.96731 0.0
C209 C 0.09793 0.1984 0.84489 0.0
C210 C 0.0735 0.19443 0.85846 0.0
C211 C 0.11525 0.21563 0.8536 0.0
C212 C 0.10801 0.22987 0.87542 0.0
C213 C 0.08378 0.22549 0.88926 0.0
C214 C 0.06682 0.2078 0.88102 0.0
C215 C 0.1254 0.24944 0.88383 0.0
C216 C 0.13094 0.25085 0.91081 0.0
C217 C 0.1363 0.26676 0.86568 0.0
C218 C 0.12989 0.26752 0.83723 0.0
C219 C 0.10331 0.26916 0.82952 0.0
C220 C 0.09742 0.26954 0.80268 0.0
C221 C 0.11796 0.26855 0.78335 0.0
C222 C 0.14443 0.26729 0.79083 0.0
C223 C 0.15043 0.26681 0.81765 0.0
H224 H 0.11337 0.26886 0.76258 0.0
H225 H 0.16451 0.27199 0.02417 0.0
H226 H 0.81101 0.65984 0.49851 0.0
H227 H 0.84354 0.688 0.47934 0.0
H228 H 0.79004 0.70718 0.41714 0.0
H229 H 0.75711 0.67936 0.43648 0.0
H230 H 0.84535 0.69603 0.40035 0.0
H231 H 0.79395 0.74545 0.4611 0.0
H232 H 0.77315 0.75543 0.50447 0.0
H233 H 0.8498 0.75322 0.53932 0.0
H234 H 0.87102 0.74287 0.4962 0.0
H235 H 0.91992 0.79416 0.34778 0.0
H236 H 0.8842 0.76837 0.36498 0.0
H237 H 0.92243 0.76176 0.44002 0.0
H238 H 0.95744 0.7884 0.42332 0.0
H239 H 0.87264 0.76712 0.44934 0.0
H240 H 0.92465 0.71605 0.39156 0.0
H241 H 0.94722 0.70407 0.34967 0.0
H242 H 0.87254 0.70664 0.31101 0.0
H243 H 0.84956 0.71894 0.35262 0.0
C244 C 0.80615 0.67005 0.48076 0.0
C245 C 0.78149 0.66743 0.46902 0.0
C246 C 0.82472 0.68615 0.46989 0.0
C247 C 0.81911 0.69967 0.44691 0.0
C248 C 0.79469 0.69688 0.4349 0.0
C249 C 0.7759 0.68107 0.44602 0.0
C250 C 0.83884 0.71672 0.43548 0.0
C251 C 0.8511 0.7118 0.41081 0.0
C252 C 0.84675 0.73684 0.44956 0.0
C253 C 0.83404 0.74315 0.47548 0.0
C254 C 0.80635 0.74688 0.47806 0.0
C255 C 0.79448 0.75264 0.50259 0.0
C256 C 0.81014 0.75489 0.52465 0.0
C257 C 0.83769 0.75144 0.52222 0.0
C258 C 0.84965 0.74564 0.49773 0.0
C259 C 0.9207 0.78716 0.36793 0.0
C260 C 0.94155 0.79321 0.38416 0.0
C261 C 0.90033 0.77232 0.37772 0.0
C262 C 0.90078 0.76272 0.4037 0.0
C263 C 0.92156 0.7689 0.41994 0.0
C264 C 0.94163 0.7841 0.41034 0.0
C265 C 0.87959 0.74641 0.41415 0.0
C266 C 0.86696 0.75144 0.4387 0.0
C267 C 0.87168 0.72613 0.40014 0.0
C268 C 0.88543 0.71866 0.37513 0.0
C269 C 0.91307 0.71422 0.37407 0.0
C270 C 0.92593 0.70735 0.35039 0.0
C271 C 0.91133 0.70466 0.32767 0.0
C272 C 0.88383 0.70877 0.32861 0.0
C273 C 0.87087 0.71567 0.35224 0.0
H274 H 0.92133 0.69934 0.30936 0.0
H275 H 0.80092 0.75936 0.54363 0.0
H276 H 0.78666 0.30137 0.95038 0.0
H277 H 0.81582 0.27005 0.93124 0.0
H278 H 0.86976 0.32415 0.90103 0.0
H279 H 0.84094 0.35556 0.92041 0.0
H280 H 0.8588 0.28686 0.86424 0.0
H281 H 0.88524 0.29658 0.95471 0.0
H282 H 0.87724 0.29779 0.00309 0.0
H283 H 0.85006 0.22515 0.0039 0.0
H284 H 0.85756 0.22364 0.95543 0.0
H285 H 0.97881 0.22387 0.83783 0.0
H286 H 0.94353 0.25121 0.85331 0.0
H287 H 0.90474 0.19249 0.89526 0.0
H288 H 0.94061 0.16504 0.88044 0.0
H289 H 0.90419 0.2297 0.9254 0.0
H290 H 0.8806 0.21754 0.83666 0.0
H291 H 0.88738 0.21504 0.78824 0.0
H292 H 0.9063 0.2899 0.78327 0.0
H293 H 0.90006 0.29277 0.83174 0.0
C294 C 0.8046 0.30663 0.93944 0.0
C295 C 0.81156 0.33094 0.93699 0.0
C296 C 0.82125 0.28871 0.92859 0.0
C297 C 0.84498 0.29481 0.91486 0.0
C298 C 0.85151 0.3191 0.91155 0.0
C299 C 0.83507 0.337 0.92271 0.0
C300 C 0.86363 0.27586 0.90491 0.0
C301 C 0.86892 0.27445 0.87755 0.0
C302 C 0.87609 0.25922 0.92229 0.0
C303 C 0.87166 0.2601 0.95142 0.0
C304 C 0.87732 0.28094 0.96517 0.0
C305 C 0.87293 0.28167 0.99262 0.0
C306 C 0.86307 0.26159 0.00655 0.0
C307 C 0.85765 0.24071 0.99308 0.0
C308 C 0.86198 0.23991 0.96563 0.0
C309 C 0.96273 0.21668 0.85024 0.0
C310 C 0.96253 0.19223 0.85785 0.0
C311 C 0.94244 0.23236 0.85898 0.0
C312 C 0.92116 0.22389 0.8751 0.0
C313 C 0.92088 0.19946 0.88277 0.0
C314 C 0.94138 0.18378 0.87426 0.0
C315 C 0.89978 0.24077 0.88459 0.0
C316 C 0.89393 0.24185 0.91192 0.0
C317 C 0.88651 0.25689 0.86711 0.0
C318 C 0.89005 0.25532 0.83789 0.0
C319 C 0.88638 0.23344 0.82528 0.0
C320 C 0.89011 0.23195 0.79781 0.0
C321 C 0.89731 0.25228 0.7827 0.0
C322 C 0.90073 0.27416 0.79501 0.0
C323 C 0.89708 0.27573 0.82248 0.0
H324 H 0.90019 0.2511 0.76144 0.0
H325 H 0.85969 0.26218 0.0278 0.0
H326 H 0.219 0.69201 0.49624 0.0
H327 H 0.18092 0.71604 0.48147 0.0
H328 H 0.20417 0.70225 0.40004 0.0
H329 H 0.2434 0.67976 0.41487 0.0
H330 H 0.18907 0.74469 0.40098 0.0
H331 H 0.14891 0.67377 0.43694 0.0
H332 H 0.13869 0.64162 0.46993 0.0
H333 H 0.1058 0.69385 0.52369 0.0
H334 H 0.11613 0.72636 0.49114 0.0
H335 H 0.05981 0.77548 0.3517 0.0
H336 H 0.09795 0.75145 0.36678 0.0
H337 H 0.09572 0.78951 0.44013 0.0
H338 H 0.0579 0.814 0.42504 0.0
H339 H 0.09902 0.73493 0.44259 0.0
H340 H 0.13955 0.80558 0.40073 0.0
H341 H 0.14683 0.834 0.36307 0.0
H342 H 0.17625 0.77633 0.31466 0.0
H343 H 0.16857 0.74745 0.35179 0.0
C344 C 0.21587 0.69407 0.4752 0.0
C345 C 0.23403 0.68397 0.45668 0.0
C346 C 0.19397 0.70767 0.46673 0.0
C347 C 0.18915 0.71063 0.43957 0.0
C348 C 0.20731 0.70034 0.42108 0.0
C349 C 0.22968 0.68739 0.42955 0.0
C350 C 0.16563 0.7249 0.43041 0.0
C351 C 0.16937 0.74221 0.40993 0.0
C352 C 0.13976 0.72201 0.44204 0.0
C353 C 0.13354 0.70252 0.46169 0.0
C354 C 0.13967 0.67841 0.45587 0.0
C355 C 0.13383 0.66012 0.47448 0.0
C356 C 0.12167 0.66569 0.49892 0.0
C357 C 0.11526 0.68956 0.50477 0.0
C358 C 0.12108 0.70793 0.48624 0.0
C359 C 0.06736 0.77868 0.37109 0.0
C360 C 0.0558 0.79658 0.38722 0.0
C361 C 0.08917 0.76499 0.37961 0.0
C362 C 0.09955 0.76876 0.40452 0.0
C363 C 0.08788 0.78636 0.42085 0.0
C364 C 0.06636 0.80035 0.41216 0.0
C365 C 0.12275 0.75441 0.41346 0.0
C366 C 0.11884 0.73719 0.43381 0.0
C367 C 0.14823 0.75681 0.40114 0.0
C368 C 0.15324 0.77431 0.37899 0.0
C369 C 0.14734 0.79892 0.38199 0.0
C370 C 0.15157 0.81512 0.36075 0.0
C371 C 0.16197 0.80698 0.33651 0.0
C372 C 0.16818 0.78261 0.33345 0.0
C373 C 0.16389 0.76632 0.35457 0.0
H374 H 0.1653 0.81955 0.32013 0.0
H375 H 0.11716 0.65151 0.5133 0.0
H376 H 0.69959 0.85161 0.91937 0.0
H377 H 0.6672 0.82333 0.90434 0.0
H378 H 0.71665 0.76395 0.93103 0.0
H379 H 0.74974 0.79224 0.945 0.0
H380 H 0.69477 0.75177 0.88783 0.0
H381 H 0.66146 0.78538 0.96859 0.0
H382 H 0.64843 0.81724 0.99983 0.0
H383 H 0.58991 0.84435 0.94636 0.0
H384 H 0.60284 0.81284 0.91462 0.0
H385 H 0.58658 0.66914 0.89357 0.0
H386 H 0.6224 0.69502 0.90675 0.0
H387 H 0.58459 0.75574 0.86785 0.0
H388 H 0.54882 0.7301 0.85454 0.0
H389 H 0.6011 0.76517 0.91899 0.0
H390 H 0.63663 0.72935 0.83817 0.0
H391 H 0.64834 0.6944 0.8107 0.0
H392 H 0.70201 0.66799 0.86935 0.0
H393 H 0.69038 0.70267 0.89733 0.0
C394 C 0.7037 0.83253 0.92178 0.0
C395 C 0.7271 0.82416 0.93358 0.0
C396 C 0.68509 0.81634 0.91332 0.0
C397 C 0.68909 0.79146 0.91717 0.0
C398 C 0.71299 0.78304 0.92796 0.0
C399 C 0.73188 0.79924 0.93597 0.0
C400 C 0.6679 0.77439 0.91088 0.0
C401 C 0.67437 0.75459 0.89493 0.0
C402 C 0.64118 0.77791 0.92008 0.0
C403 C 0.63331 0.79689 0.93912 0.0
C404 C 0.64595 0.79824 0.96341 0.0
C405 C 0.63856 0.81622 0.98122 0.0
C406 C 0.6184 0.83284 0.97505 0.0
C407 C 0.60554 0.83148 0.95109 0.0
C408 C 0.61288 0.81356 0.93319 0.0
C409 C 0.58583 0.68802 0.88791 0.0
C410 C 0.56483 0.69756 0.87301 0.0
C411 C 0.60637 0.70274 0.89535 0.0
C412 C 0.6062 0.72724 0.88811 0.0
C413 C 0.58509 0.73686 0.8736 0.0
C414 C 0.5647 0.72216 0.86596 0.0
C415 C 0.62793 0.74302 0.89565 0.0
C416 C 0.62154 0.76246 0.91194 0.0
C417 C 0.65471 0.73886 0.8872 0.0
C418 C 0.66249 0.71852 0.86992 0.0
C419 C 0.65088 0.71606 0.84524 0.0
C420 C 0.6575 0.6963 0.82958 0.0
C421 C 0.67587 0.67896 0.8383 0.0
C422 C 0.68778 0.68143 0.86263 0.0
C423 C 0.68122 0.70116 0.87837 0.0
H424 H 0.6809 0.66362 0.8262 0.0
H425 H 0.6127 0.84674 0.98887 0.0
H426 H 0.27381 0.19024 0.423 0.0
H427 H 0.30424 0.2206 0.40428 0.0
H428 H 0.35842 0.20508 0.46692 0.0
H429 H 0.32847 0.17436 0.4854 0.0
H430 H 0.3459 0.2565 0.45549 0.0
H431 H 0.37448 0.1825 0.41266 0.0
H432 H 0.36725 0.14671 0.38621 0.0
H433 H 0.34189 0.1918 0.32137 0.0
H434 H 0.34861 0.22786 0.34761 0.0
H435 H 0.4673 0.30714 0.41648 0.0
H436 H 0.43125 0.28096 0.43095 0.0
H437 H 0.39742 0.28816 0.35381 0.0
H438 H 0.43425 0.31389 0.3388 0.0
H439 H 0.39497 0.24352 0.36993 0.0
H440 H 0.36974 0.31746 0.40881 0.0
H441 H 0.37506 0.35442 0.43384 0.0
H442 H 0.39021 0.31223 0.50413 0.0
H443 H 0.38543 0.27499 0.47942 0.0
C444 C 0.29217 0.19335 0.43282 0.0
C445 C 0.2988 0.17988 0.45563 0.0
C446 C 0.30951 0.21065 0.42208 0.0
C447 C 0.33353 0.21501 0.43424 0.0
C448 C 0.33994 0.20196 0.4573 0.0
C449 C 0.32287 0.18437 0.46776 0.0
C450 C 0.35231 0.23288 0.42273 0.0
C451 C 0.35682 0.25366 0.43689 0.0
C452 C 0.36568 0.22951 0.39798 0.0
C453 C 0.36172 0.20785 0.38221 0.0
C454 C 0.3671 0.18477 0.39286 0.0
C455 C 0.36316 0.16444 0.37789 0.0
C456 C 0.35403 0.16697 0.35216 0.0
C457 C 0.34891 0.18986 0.34132 0.0
C458 C 0.35279 0.21025 0.35623 0.0
C459 C 0.45217 0.30329 0.40256 0.0
C460 C 0.4536 0.31272 0.37649 0.0
C461 C 0.43142 0.28837 0.41093 0.0
C462 C 0.41124 0.28294 0.39368 0.0
C463 C 0.41268 0.29218 0.36754 0.0
C464 C 0.4337 0.3069 0.359 0.0
C465 C 0.38915 0.26711 0.40295 0.0
C466 C 0.38391 0.24667 0.38838 0.0
C467 C 0.37471 0.27105 0.42713 0.0
C468 C 0.3774 0.29341 0.44218 0.0
C469 C 0.37438 0.31605 0.42956 0.0
C470 C 0.37728 0.33706 0.4437 0.0
C471 C 0.38301 0.33567 0.47055 0.0
C472 C 0.38579 0.31328 0.48333 0.0
C473 C 0.38296 0.29221 0.46927 0.0
H474 H 0.38525 0.35196 0.48146 0.0
H475 H 0.351 0.15121 0.34059 0.0
H476 H 0.33108 0.85284 0.96692 0.0
H477 H 0.36324 0.82538 0.94559 0.0
H478 H 0.30246 0.77219 0.94111 0.0
H479 H 0.27003 0.79984 0.96171 0.0
H480 H 0.38284 0.78416 0.96007 0.0
H481 H 0.31417 0.7372 0.88792 0.0
H482 H 0.27466 0.74674 0.86178 0.0
H483 H 0.29376 0.82158 0.86052 0.0
H484 H 0.33357 0.81245 0.88632 0.0
H485 H 0.45104 0.68071 0.91333 0.0
H486 H 0.41682 0.70782 0.932 0.0
H487 H 0.41308 0.74606 0.85687 0.0
H488 H 0.44644 0.71845 0.83784 0.0
H489 H 0.36573 0.74294 0.87659 0.0
H490 H 0.44843 0.76708 0.91049 0.0
H491 H 0.49087 0.76164 0.93307 0.0
H492 H 0.44862 0.74024 0.00484 0.0
H493 H 0.40593 0.74525 0.98257 0.0
C494 C 0.32451 0.83536 0.96123 0.0
C495 C 0.29797 0.82857 0.96591 0.0
C496 C 0.34295 0.81963 0.94912 0.0
C497 C 0.33528 0.79676 0.9415 0.0
C498 C 0.30879 0.78989 0.94632 0.0
C499 C 0.29027 0.8057 0.9582 0.0
C500 C 0.35513 0.77996 0.92903 0.0
C501 C 0.37907 0.77516 0.94181 0.0
C502 C 0.35052 0.76849 0.90495 0.0
C503 C 0.32668 0.77415 0.88931 0.0
C504 C 0.30997 0.75568 0.882 0.0
C505 C 0.28753 0.76102 0.86725 0.0
C506 C 0.28165 0.78476 0.85958 0.0
C507 C 0.29827 0.80321 0.86657 0.0
C508 C 0.32075 0.79796 0.88129 0.0
C509 C 0.44283 0.69484 0.90077 0.0
C510 C 0.45161 0.69754 0.87417 0.0
C511 C 0.42334 0.7104 0.91149 0.0
C512 C 0.4127 0.72933 0.89602 0.0
C513 C 0.42098 0.73165 0.86926 0.0
C514 C 0.44012 0.71586 0.85841 0.0
C515 C 0.39334 0.747 0.90774 0.0
C516 C 0.36947 0.75191 0.89487 0.0
C517 C 0.39839 0.75919 0.93128 0.0
C518 C 0.42401 0.75633 0.94479 0.0
C519 C 0.4482 0.76107 0.93104 0.0
C520 C 0.4723 0.75808 0.94379 0.0
C521 C 0.47244 0.75055 0.97036 0.0
C522 C 0.44848 0.74605 0.98425 0.0
C523 C 0.42433 0.74898 0.97159 0.0
H524 H 0.49112 0.74824 0.98019 0.0
H525 H 0.26426 0.78885 0.84817 0.0
H526 H 0.7415 0.18103 0.42745 0.0
H527 H 0.70877 0.21009 0.41068 0.0
H528 H 0.6512 0.1855 0.47008 0.0
H529 H 0.6836 0.15594 0.48647 0.0
H530 H 0.62755 0.19332 0.4255 0.0
H531 H 0.68634 0.23768 0.47731 0.0
H532 H 0.72949 0.25222 0.49138 0.0
H533 H 0.74413 0.28454 0.41437 0.0
H534 H 0.7012 0.26992 0.39974 0.0
H535 H 0.57379 0.32596 0.41884 0.0
H536 H 0.60528 0.29556 0.4351 0.0
H537 H 0.59434 0.25368 0.36572 0.0
H538 H 0.56232 0.28368 0.34964 0.0
H539 H 0.65133 0.2793 0.41743 0.0
H540 H 0.60002 0.19431 0.38115 0.0
H541 H 0.55483 0.18079 0.37239 0.0
H542 H 0.52159 0.2313 0.42793 0.0
H543 H 0.56658 0.24487 0.4373 0.0
C544 C 0.72182 0.18169 0.43683 0.0
C545 C 0.7152 0.16626 0.45839 0.0
C546 C 0.70316 0.19841 0.42731 0.0
C547 C 0.67764 0.20029 0.4394 0.0
C548 C 0.67076 0.18443 0.46045 0.0
C549 C 0.68934 0.16756 0.46984 0.0
C550 C 0.65829 0.21905 0.43046 0.0
C551 C 0.63278 0.21211 0.42369 0.0
C552 C 0.66486 0.24367 0.42863 0.0
C553 C 0.69068 0.2525 0.43735 0.0
C554 C 0.69885 0.24773 0.46332 0.0
C555 C 0.72325 0.25601 0.4714 0.0
C556 C 0.73957 0.26924 0.45376 0.0
C557 C 0.73149 0.27426 0.42801 0.0
C558 C 0.70712 0.266 0.41981 0.0
C559 C 0.57804 0.31027 0.40703 0.0
C560 C 0.56533 0.30716 0.38303 0.0
C561 C 0.59612 0.29293 0.41633 0.0
C562 C 0.60194 0.27216 0.40183 0.0
C563 C 0.58977 0.2693 0.37755 0.0
C564 C 0.57152 0.28653 0.36833 0.0
C565 C 0.62072 0.25353 0.41213 0.0
C566 C 0.64613 0.2605 0.41914 0.0
C567 C 0.6138 0.22905 0.41491 0.0
C568 C 0.58667 0.22077 0.4097 0.0
C569 C 0.58307 0.20246 0.39157 0.0
C570 C 0.55749 0.19479 0.38649 0.0
C571 C 0.53535 0.20523 0.39953 0.0
C572 C 0.53875 0.22329 0.41777 0.0
C573 C 0.56428 0.23099 0.42295 0.0
H574 H 0.51557 0.1993 0.39554 0.0
H575 H 0.75845 0.27564 0.46006 0.0
H576 H 0.34629 0.42761 0.95788 0.0
H577 H 0.37662 0.45865 0.94131 0.0
H578 H 0.30957 0.50531 0.92389 0.0
H579 H 0.27915 0.47363 0.93929 0.0
H580 H 0.34449 0.51077 0.88658 0.0
H581 H 0.34867 0.51099 0.98067 0.0
H582 H 0.3537 0.49294 0.02531 0.0
H583 H 0.43385 0.47095 0.00443 0.0
H584 H 0.42916 0.48848 0.9595 0.0
H585 H 0.43318 0.61593 0.89504 0.0
H586 H 0.40038 0.58677 0.912 0.0
H587 H 0.44551 0.52959 0.87454 0.0
H588 H 0.47797 0.55851 0.85696 0.0
H589 H 0.42003 0.53279 0.94116 0.0
H590 H 0.40712 0.52602 0.84257 0.0
H591 H 0.40025 0.54694 0.79965 0.0
H592 H 0.33379 0.58635 0.83381 0.0
H593 H 0.34058 0.56585 0.87702 0.0
C594 C 0.33807 0.44454 0.95062 0.0
C595 C 0.31045 0.44845 0.95026 0.0
C596 C 0.3554 0.46232 0.9412 0.0
C597 C 0.34546 0.48466 0.93202 0.0
C598 C 0.31777 0.48832 0.93102 0.0
C599 C 0.30041 0.47027 0.93986 0.0
C600 C 0.36399 0.50412 0.92353 0.0
C601 C 0.36081 0.51562 0.89873 0.0
C602 C 0.38529 0.51082 0.93934 0.0
C603 C 0.38849 0.50091 0.96663 0.0
C604 C 0.36734 0.50223 0.98556 0.0
C605 C 0.37012 0.49207 0.01091 0.0
C606 C 0.39406 0.48076 0.01768 0.0
C607 C 0.41531 0.47969 0.99915 0.0
C608 C 0.41261 0.48976 0.97374 0.0
C609 C 0.4361 0.59715 0.89041 0.0
C610 C 0.45811 0.58954 0.87457 0.0
C611 C 0.41738 0.58056 0.90011 0.0
C612 C 0.42059 0.55614 0.89438 0.0
C613 C 0.44269 0.54843 0.87898 0.0
C614 C 0.46115 0.56499 0.86892 0.0
C615 C 0.40072 0.53859 0.90421 0.0
C616 C 0.4036 0.52774 0.92926 0.0
C617 C 0.37891 0.53277 0.88898 0.0
C618 C 0.37451 0.54463 0.86297 0.0
C619 C 0.39118 0.53927 0.84093 0.0
C620 C 0.38728 0.55102 0.81657 0.0
C621 C 0.36664 0.56802 0.81402 0.0
C622 C 0.34979 0.57322 0.83581 0.0
C623 C 0.35366 0.56155 0.86023 0.0
H624 H 0.36367 0.57711 0.79515 0.0
H625 H 0.39614 0.47285 0.0373 0.0
H626 H 0.68858 0.51392 0.53183 0.0
H627 H 0.66467 0.48662 0.5047 0.0
H628 H 0.70115 0.51834 0.43402 0.0
H629 H 0.72504 0.54612 0.46116 0.0
H630 H 0.64833 0.51415 0.42939 0.0
H631 H 0.71967 0.46202 0.45483 0.0
H632 H 0.75051 0.44175 0.48537 0.0
H633 H 0.68485 0.40774 0.5267 0.0
H634 H 0.65355 0.42807 0.49665 0.0
H635 H 0.58877 0.42636 0.35105 0.0
H636 H 0.62255 0.45009 0.37149 0.0
H637 H 0.59331 0.42677 0.44897 0.0
H638 H 0.55972 0.40281 0.42879 0.0
H639 H 0.64717 0.42592 0.44563 0.0
H640 H 0.57596 0.48158 0.42345 0.0
H641 H 0.54481 0.50208 0.39338 0.0
H642 H 0.61053 0.52951 0.3461 0.0
H643 H 0.64208 0.50887 0.37572 0.0
C644 C 0.69176 0.51501 0.51053 0.0
C645 C 0.70874 0.53222 0.49867 0.0
C646 C 0.67815 0.49927 0.49503 0.0
C647 C 0.68134 0.50023 0.46733 0.0
C648 C 0.69848 0.51723 0.45537 0.0
C649 C 0.71216 0.53303 0.47091 0.0
C650 C 0.66562 0.48426 0.45103 0.0
C651 C 0.64851 0.4948 0.43252 0.0
C652 C 0.66547 0.45906 0.45548 0.0
C653 C 0.68424 0.44671 0.47357 0.0
C654 C 0.71178 0.45035 0.47055 0.0
C655 C 0.72935 0.43883 0.48776 0.0
C656 C 0.71964 0.4235 0.50799 0.0
C657 C 0.69234 0.41962 0.51102 0.0
C658 C 0.67468 0.43112 0.49388 0.0
C659 C 0.58957 0.42619 0.37245 0.0
C660 C 0.57135 0.41283 0.38829 0.0
C661 C 0.60887 0.43981 0.38409 0.0
C662 C 0.61025 0.44041 0.41176 0.0
C663 C 0.59258 0.42659 0.42758 0.0
C664 C 0.5733 0.41298 0.41598 0.0
C665 C 0.62958 0.45587 0.42442 0.0
C666 C 0.64733 0.44523 0.44223 0.0
C667 C 0.63031 0.48097 0.41935 0.0
C668 C 0.61137 0.49346 0.40161 0.0
C669 C 0.58376 0.49182 0.40652 0.0
C670 C 0.56603 0.50349 0.38958 0.0
C671 C 0.57568 0.51703 0.36779 0.0
C672 C 0.60308 0.51898 0.36295 0.0
C673 C 0.6209 0.50731 0.37981 0.0
H674 H 0.56193 0.52605 0.3547 0.0
H675 H 0.73328 0.41459 0.52129 0.0
H676 H 0.69044 0.46202 0.98638 0.0
H677 H 0.66392 0.4923 0.96338 0.0
H678 H 0.69804 0.46957 0.88839 0.0
H679 H 0.7251 0.43886 0.91146 0.0
H680 H 0.69256 0.52105 0.89325 0.0
H681 H 0.63933 0.45121 0.9031 0.0
H682 H 0.61911 0.41649 0.9267 0.0
H683 H 0.57755 0.46389 0.98048 0.0
H684 H 0.59785 0.4989 0.95744 0.0
H685 H 0.5863 0.58522 0.82753 0.0
H686 H 0.61944 0.55527 0.84164 0.0
H687 H 0.59157 0.56269 0.9228 0.0
H688 H 0.55826 0.59243 0.90892 0.0
H689 H 0.59481 0.51619 0.9087 0.0
H690 H 0.6508 0.5857 0.90088 0.0
H691 H 0.67086 0.62055 0.8773 0.0
H692 H 0.70647 0.5739 0.81901 0.0
H693 H 0.68636 0.53879 0.84208 0.0
C694 C 0.69254 0.4634 0.965 0.0
C695 C 0.70976 0.44778 0.95076 0.0
C696 C 0.67731 0.48078 0.95188 0.0
C697 C 0.67878 0.48298 0.92419 0.0
C698 C 0.6966 0.46809 0.9098 0.0
C699 C 0.71194 0.45052 0.92299 0.0
C700 C 0.66057 0.50021 0.91071 0.0
C701 C 0.67116 0.51979 0.89614 0.0
C702 C 0.63268 0.49868 0.91479 0.0
C703 C 0.62028 0.47768 0.92864 0.0
C704 C 0.62604 0.45423 0.92008 0.0
C705 C 0.61454 0.43449 0.93334 0.0
C706 C 0.59709 0.43798 0.9551 0.0
C707 C 0.59108 0.46122 0.96362 0.0
C708 C 0.60255 0.48102 0.95045 0.0
C709 C 0.58732 0.58061 0.84842 0.0
C710 C 0.56944 0.5911 0.86709 0.0
C711 C 0.60638 0.56356 0.85645 0.0
C712 C 0.60798 0.55676 0.88327 0.0
C713 C 0.5906 0.56762 0.90198 0.0
C714 C 0.57161 0.58468 0.89401 0.0
C715 C 0.62675 0.53746 0.89191 0.0
C716 C 0.61619 0.51738 0.90551 0.0
C717 C 0.65457 0.53858 0.88682 0.0
C718 C 0.6669 0.55964 0.87309 0.0
C719 C 0.66278 0.58289 0.88294 0.0
C720 C 0.67419 0.60268 0.8697 0.0
C721 C 0.68994 0.59943 0.84669 0.0
C722 C 0.69432 0.57638 0.83688 0.0
C723 C 0.68293 0.55652 0.85003 0.0
H724 H 0.69872 0.61478 0.83644 0.0
H725 H 0.58821 0.42268 0.96534 0.0
H726 H 0.29574 0.54006 0.48235 0.0
H727 H 0.31772 0.50462 0.46327 0.0
H728 H 0.36097 0.54996 0.40711 0.0
H729 H 0.33868 0.58542 0.42562 0.0
H730 H 0.34896 0.50831 0.38484 0.0
H731 H 0.38758 0.53274 0.46602 0.0
H732 H 0.38691 0.54252 0.5134 0.0
H733 H 0.36006 0.47157 0.53405 0.0
H734 H 0.36024 0.46148 0.48673 0.0
H735 H 0.47125 0.44884 0.36051 0.0
H736 H 0.43514 0.47596 0.37431 0.0
H737 H 0.40121 0.41986 0.4244 0.0
H738 H 0.43773 0.39246 0.41093 0.0
H739 H 0.40292 0.46218 0.44966 0.0
H740 H 0.37234 0.43627 0.36697 0.0
H741 H 0.37696 0.42732 0.31946 0.0
H742 H 0.39139 0.50168 0.30101 0.0
H743 H 0.38731 0.51105 0.34847 0.0
C744 C 0.3095 0.54248 0.46557 0.0
C745 C 0.31574 0.56564 0.45579 0.0
C746 C 0.32211 0.52218 0.45474 0.0
C747 C 0.34143 0.52467 0.43415 0.0
C748 C 0.34623 0.5476 0.42307 0.0
C749 C 0.3335 0.56789 0.43376 0.0
C750 C 0.35854 0.50392 0.4259 0.0
C751 C 0.36078 0.49823 0.39897 0.0
C752 C 0.37365 0.49045 0.44442 0.0
C753 C 0.37361 0.49646 0.47286 0.0
C754 C 0.38134 0.51929 0.48067 0.0
C755 C 0.38108 0.52488 0.5075 0.0
C756 C 0.37336 0.5077 0.52672 0.0
C757 C 0.36597 0.48487 0.51914 0.0
C758 C 0.36615 0.47921 0.49232 0.0
C759 C 0.45615 0.44215 0.37445 0.0
C760 C 0.45746 0.41844 0.38466 0.0
C761 C 0.43536 0.45768 0.38216 0.0
C762 C 0.41524 0.44983 0.40004 0.0
C763 C 0.41648 0.42623 0.41045 0.0
C764 C 0.43736 0.41062 0.40274 0.0
C765 C 0.39362 0.46677 0.40857 0.0
C766 C 0.39064 0.47184 0.43556 0.0
C767 C 0.37805 0.47974 0.39005 0.0
C768 C 0.37963 0.47435 0.36136 0.0
C769 C 0.37659 0.45072 0.35281 0.0
C770 C 0.37912 0.44556 0.32588 0.0
C771 C 0.38449 0.46391 0.30724 0.0
C772 C 0.38722 0.48748 0.31548 0.0
C773 C 0.38475 0.49274 0.3424 0.0
H774 H 0.3865 0.45986 0.28641 0.0
H775 H 0.37318 0.51206 0.54748 0.0
H776 H 0.86014 0.94165 0.97209 0.0
H777 H 0.88263 0.97499 0.94983 0.0
H778 H 0.83544 0.96659 0.88119 0.0
H779 H 0.81267 0.9326 0.90346 0.0
H780 H 0.88836 0.9745 0.8679 0.0
H781 H 0.82075 0.01222 0.9211 0.0
H782 H 0.79319 0.01985 0.96145 0.0
H783 H 0.86241 0.04068 0.00189 0.0
H784 H 0.89047 0.03283 0.9619 0.0
H785 H 0.94656 0.08322 0.81833 0.0
H786 H 0.91287 0.05422 0.83289 0.0
H787 H 0.94467 0.05176 0.91106 0.0
H788 H 0.97777 0.08135 0.89698 0.0
H789 H 0.89227 0.05179 0.91441 0.0
H790 H 0.96011 0.008 0.86266 0.0
H791 H 0.98742 1.00056 0.82205 0.0
H792 H 0.9167 0.99183 0.77839 0.0
H793 H 0.88898 0.99942 0.81872 0.0
C794 C 0.85442 0.94675 0.95225 0.0
C795 C 0.83439 0.93449 0.93966 0.0
C796 C 0.86728 0.96596 0.93958 0.0
C797 C 0.86037 0.97361 0.91406 0.0
C798 C 0.84092 0.96108 0.90099 0.0
C799 C 0.82794 0.94169 0.91373 0.0
C800 C 0.87384 0.99466 0.90144 0.0
C801 C 0.88877 0.99158 0.87775 0.0
C802 C 0.87456 0.01689 0.91441 0.0
C803 C 0.85774 0.0218 0.93851 0.0
C804 C 0.83013 0.01827 0.93864 0.0
C805 C 0.81441 0.02266 0.96145 0.0
C806 C 0.82605 0.03071 0.98423 0.0
C807 C 0.85343 0.03444 0.98423 0.0
C808 C 0.86924 0.03006 0.96148 0.0
C809 C 0.9463 0.07657 0.83867 0.0
C810 C 0.965 0.08442 0.85647 0.0
C811 C 0.92708 0.05993 0.8469 0.0
C812 C 0.92654 0.05042 0.8729 0.0
C813 C 0.94471 0.05878 0.89087 0.0
C814 C 0.96367 0.07568 0.88279 0.0
C815 C 0.9076 0.03134 0.88142 0.0
C816 C 0.89155 0.03484 0.90433 0.0
C817 C 0.90581 0.00956 0.86767 0.0
C818 C 0.92249 0.00449 0.84361 0.0
C819 C 0.9504 0.00457 0.84437 0.0
C820 C 0.96595 1.00032 0.82141 0.0
C821 C 0.9538 0.99578 0.79764 0.0
C822 C 0.92608 0.99535 0.79682 0.0
C823 C 0.91045 0.99958 0.81972 0.0
H824 H 0.96587 0.99254 0.77988 0.0
H825 H 0.81384 0.03409 0.00187 0.0
H826 H 0.21412 0.03407 0.43729 0.0
H827 H 0.1874 0.00596 0.41338 0.0
H828 H 0.1556 0.97723 0.4877 0.0
H829 H 0.18247 0.00479 0.51162 0.0
H830 H 0.16639 0.94188 0.45424 0.0
H831 H 0.12097 0.0193 0.45066 0.0
H832 H 0.11693 0.06266 0.44003 0.0
H833 H 0.13359 0.049 0.35777 0.0
H834 H 0.13806 0.00556 0.36798 0.0
H835 H 0.0431 0.8932 0.42437 0.0
H836 H 0.07865 0.91763 0.44039 0.0
H837 H 0.10406 0.93498 0.3599 0.0
H838 H 0.0684 0.91068 0.3436 0.0
H839 H 0.10074 0.97476 0.39123 0.0
H840 H 0.14024 0.89619 0.39484 0.0
H841 H 0.14207 0.85292 0.40621 0.0
H842 H 0.13531 0.86855 0.48895 0.0
H843 H 0.13299 0.91196 0.47812 0.0
C844 C 0.20159 0.02163 0.44851 0.0
C845 C 0.2003 0.02179 0.47636 0.0
C846 C 0.18627 0.00563 0.43483 0.0
C847 C 0.16925 0.98967 0.44875 0.0
C848 C 0.16858 0.98935 0.47653 0.0
C849 C 0.18391 0.00522 0.49018 0.0
C850 C 0.15128 0.97387 0.43466 0.0
C851 C 0.15196 0.94909 0.44056 0.0
C852 C 0.13287 0.98316 0.41628 0.0
C853 C 0.13017 0.00924 0.41013 0.0
C854 C 0.12398 0.02558 0.43034 0.0
C855 C 0.12158 0.05016 0.42439 0.0
C856 C 0.12509 0.05859 0.39825 0.0
C857 C 0.13094 0.04245 0.37801 0.0
C858 C 0.1334 0.01785 0.38387 0.0
C859 C 0.05622 0.90218 0.41003 0.0
C860 C 0.0528 0.90003 0.3827 0.0
C861 C 0.07662 0.91605 0.41923 0.0
C862 C 0.09412 0.92794 0.40132 0.0
C863 C 0.09076 0.92594 0.37404 0.0
C864 C 0.07037 0.91202 0.36479 0.0
C865 C 0.1155 0.94291 0.41128 0.0
C866 C 0.11546 0.9675 0.40459 0.0
C867 C 0.1344 0.93346 0.42901 0.0
C868 C 0.13625 0.90736 0.43564 0.0
C869 C 0.13898 0.89042 0.41546 0.0
C870 C 0.14011 0.86585 0.4218 0.0
C871 C 0.13875 0.85797 0.44826 0.0
C872 C 0.13634 0.87467 0.46845 0.0
C873 C 0.13515 0.89927 0.46223 0.0
H874 H 0.13961 0.83894 0.4531 0.0
H875 H 0.12322 0.07763 0.39368 0.0
H876 H 0.20171 0.92637 0.93793 0.0
H877 H 0.17749 0.95761 0.91319 0.0
H878 H 0.18986 0.00774 0.97513 0.0
H879 H 0.21379 0.97668 6e-05 0.0
H880 H 0.13871 0.00712 0.96276 0.0
H881 H 0.22238 0.01328 0.91486 0.0
H882 H 0.2617 0.99841 0.88922 0.0
H883 H 0.2114 0.97455 0.8286 0.0
H884 H 0.17173 0.98899 0.85405 0.0
H885 H 0.08533 0.11028 0.8979 0.0
H886 H 0.1171 0.0824 0.91845 0.0
H887 H 0.10426 0.03082 0.8581 0.0
H888 H 0.07271 0.05861 0.83726 0.0
H889 H 0.15669 0.03296 0.86931 0.0
H890 H 0.07333 0.02481 0.91758 0.0
H891 H 0.03354 0.03905 0.94294 0.0
H892 H 0.08299 0.06572 0.00278 0.0
H893 H 0.12312 0.05194 0.97755 0.0
C894 C 0.19962 0.94414 0.94611 0.0
C895 C 0.2096 0.94896 0.97106 0.0
C896 C 0.18582 0.96201 0.9319 0.0
C897 C 0.18189 0.98505 0.94229 0.0
C898 C 0.19257 0.99009 0.96677 0.0
C899 C 0.20633 0.97228 0.98096 0.0
C900 C 0.16519 0.00345 0.92858 0.0
C901 C 0.14293 0.01307 0.94247 0.0
C902 C 0.17024 0.0107 0.90186 0.0
C903 C 0.19406 0.00202 0.8865 0.0
C904 C 0.21968 0.00468 0.89617 0.0
C905 C 0.24204 0.99636 0.88164 0.0
C906 C 0.23904 0.98548 0.85733 0.0
C907 C 0.21368 0.98295 0.84745 0.0
C908 C 0.19126 0.99122 0.86191 0.0
C909 C 0.08936 0.09307 0.88888 0.0
C910 C 0.07623 0.08661 0.86607 0.0
C911 C 0.1075 0.07713 0.90069 0.0
C912 C 0.1128 0.05441 0.88998 0.0
C913 C 0.10044 0.04824 0.86672 0.0
C914 C 0.08229 0.06413 0.85492 0.0
C915 C 0.13039 0.03669 0.90359 0.0
C916 C 0.15266 0.02712 0.88967 0.0
C917 C 0.12533 0.02936 0.93027 0.0
C918 C 0.10123 0.03758 0.94554 0.0
C919 C 0.07573 0.03389 0.93604 0.0
C920 C 0.05311 0.04184 0.95041 0.0
C921 C 0.05574 0.05334 0.97442 0.0
C922 C 0.08099 0.05685 0.98415 0.0
C923 C 0.10368 0.04896 0.96984 0.0
H924 H 0.03821 0.05948 0.98553 0.0
H925 H 0.25637 0.97906 0.84611 0.0
H926 H 0.7971 0.05561 0.43096 0.0
H927 H 0.82132 0.02126 0.41142 0.0
H928 H 0.82304 0.98593 0.48818 0.0
H929 H 0.79854 0.0197 0.50777 0.0
H930 H 0.87434 0.99384 0.46098 0.0
H931 H 0.78781 0.96139 0.44801 0.0
H932 H 0.74219 0.96219 0.43168 0.0
H933 H 0.77293 0.97077 0.35173 0.0
H934 H 0.81875 0.97038 0.36763 0.0
H935 H 0.91634 0.87194 0.40601 0.0
H936 H 0.88131 0.89944 0.42302 0.0
H937 H 0.92086 0.95918 0.38406 0.0
H938 H 0.95558 0.932 0.36667 0.0
H939 H 0.84697 0.93647 0.39384 0.0
H940 H 0.92163 0.00138 0.43396 0.0
H941 H 0.96763 0.00103 0.4494 0.0
H942 H 0.96003 0.92746 0.47555 0.0
H943 H 0.91388 0.9275 0.46065 0.0
C944 C 0.80211 0.04029 0.44356 0.0
C945 C 0.79603 0.0405 0.47096 0.0
C946 C 0.81591 0.0207 0.43237 0.0
C947 C 0.82403 0.00119 0.44844 0.0
C948 C 0.81695 0.00087 0.4755 0.0
C949 C 0.80286 0.0202 0.48661 0.0
C950 C 0.84213 0.98225 0.4377 0.0
C951 C 0.86831 0.98125 0.44637 0.0
C952 C 0.83421 0.96591 0.41864 0.0
C953 C 0.8067 0.9661 0.40904 0.0
C954 C 0.78484 0.96369 0.42697 0.0
C955 C 0.75894 0.96401 0.41779 0.0
C956 C 0.75466 0.9666 0.39069 0.0
C957 C 0.77627 0.9688 0.37272 0.0
C958 C 0.80221 0.96851 0.3818 0.0
C959 C 0.91745 0.89092 0.40092 0.0
C960 C 0.93883 0.89981 0.38514 0.0
C961 C 0.89736 0.90653 0.41048 0.0
C962 C 0.89861 0.93127 0.40477 0.0
C963 C 0.91959 0.94012 0.38863 0.0
C964 C 0.93943 0.92454 0.37877 0.0
C965 C 0.87911 0.94821 0.41709 0.0
C966 C 0.85285 0.94898 0.40858 0.0
C967 C 0.8869 0.96446 0.43629 0.0
C968 C 0.9144 0.96439 0.44595 0.0
C969 C 0.92974 0.98517 0.44313 0.0
C970 C 0.95585 0.98502 0.45177 0.0
C971 C 0.96678 0.96421 0.46337 0.0
C972 C 0.95158 0.94354 0.46647 0.0
C973 C 0.92546 0.94361 0.4579 0.0
H974 H 0.987 0.96412 0.47 0.0
H975 H 0.7346 0.96684 0.38362 0.0
H976 H 0.39295 0.40462 0.07079 0.0
H977 H 0.41317 0.39544 0.11318 0.0
H978 H 0.35608 0.44255 0.15244 0.0
H979 H 0.33588 0.45207 0.11004 0.0
H980 H 0.40551 0.44752 0.17116 0.0
H981 H 0.34739 0.38282 0.15556 0.0
H982 H 0.32856 0.35035 0.13017 0.0
H983 H 0.40451 0.31372 0.12724 0.0
H984 H 0.4239 0.34615 0.15231 0.0
H985 H 0.44074 0.40507 0.29895 0.0
H986 H 0.41414 0.41496 0.26041 0.0
H987 H 0.46146 0.36469 0.21398 0.0
H988 H 0.48707 0.35388 0.25275 0.0
H989 H 0.41278 0.3621 0.20081 0.0
H990 H 0.47164 0.42893 0.21311 0.0
H991 H 0.49008 0.46123 0.23911 0.0
H992 H 0.41224 0.4936 0.24882 0.0
H993 H 0.39332 0.46137 0.22306 0.0
C994 C 0.3848 0.41319 0.08838 0.0
C995 C 0.36264 0.42893 0.08705 0.0
C996 C 0.39631 0.40783 0.11263 0.0
C997 C 0.38583 0.41798 0.13604 0.0
C998 C 0.36439 0.43442 0.13464 0.0
C999 C 0.35285 0.43981 0.11037 0.0
C1000 C 0.39691 0.41097 0.162 0.0
C1001 C 0.4068 0.42887 0.17783 0.0
C1002 C 0.39877 0.38663 0.1706 0.0
C1003 C 0.38715 0.36703 0.15562 0.0
C1004 C 0.36013 0.36793 0.14934 0.0
C1005 C 0.34934 0.34952 0.13503 0.0
C1006 C 0.36534 0.33001 0.12705 0.0
C1007 C 0.39215 0.32885 0.13342 0.0
C1008 C 0.40304 0.34723 0.14769 0.0
C1009 C 0.44523 0.39597 0.28056 0.0
C1010 C 0.46605 0.37879 0.27879 0.0
C1011 C 0.43015 0.40175 0.25849 0.0
C1012 C 0.43618 0.39102 0.23404 0.0
C1013 C 0.45642 0.37328 0.23256 0.0
C1014 C 0.47108 0.36711 0.25475 0.0
C1015 C 0.4221 0.39856 0.20973 0.0
C1016 C 0.41147 0.38076 0.19422 0.0
C1017 C 0.41958 0.42299 0.20144 0.0
C1018 C 0.43106 0.44267 0.21634 0.0
C1019 C 0.45847 0.44292 0.22085 0.0
C1020 C 0.469 0.46121 0.23554 0.0
C1021 C 0.45234 0.47943 0.24565 0.0
C1022 C 0.42513 0.47948 0.24097 0.0
C1023 C 0.41449 0.46123 0.2263 0.0
H1024 H 0.46051 0.49354 0.25708 0.0
H1025 H 0.35695 0.31577 0.11598 0.0
H1026 H 0.66936 0.64653 0.57662 0.0
H1027 H 0.64767 0.65642 0.61882 0.0
H1028 H 0.71958 0.63721 0.65912 0.0
H1029 H 0.74109 0.62616 0.6168 0.0
H1030 H 0.68163 0.61828 0.68496 0.0
H1031 H 0.69485 0.69743 0.65411 0.0
H1032 H 0.69574 0.73227 0.62307 0.0
H1033 H 0.61072 0.73079 0.61869 0.0
H1034 H 0.60932 0.69573 0.6494 0.0
H1035 H 0.58255 0.68666 0.78296 0.0
H1036 H 0.61955 0.6879 0.75013 0.0
H1037 H 0.5973 0.6189 0.72184 0.0
H1038 H 0.5607 0.61733 0.75462 0.0
H1039 H 0.62051 0.68845 0.69759 0.0
H1040 H 0.65123 0.58605 0.7043 0.0
H1041 H 0.65401 0.55439 0.73913 0.0
H1042 H 0.65937 0.60804 0.79823 0.0
H1043 H 0.65741 0.63996 0.76377 0.0
C1044 C 0.68075 0.64476 0.59438 0.0
C1045 C 0.70695 0.63552 0.59334 0.0
C1046 C 0.66835 0.6506 0.61858 0.0
C1047 C 0.68204 0.64792 0.64226 0.0
C1048 C 0.70855 0.63945 0.64117 0.0
C1049 C 0.72086 0.63321 0.61695 0.0
C1050 C 0.66777 0.65204 0.66813 0.0
C1051 C 0.66851 0.63376 0.68779 0.0
C1052 C 0.65138 0.67268 0.67248 0.0
C1053 C 0.65201 0.69385 0.65401 0.0
C1054 C 0.67635 0.70443 0.64641 0.0
C1055 C 0.67694 0.72424 0.62888 0.0
C1056 C 0.6533 0.73372 0.6189 0.0
C1057 C 0.62902 0.72344 0.62645 0.0
C1058 C 0.62831 0.70361 0.64397 0.0
C1059 C 0.58557 0.67174 0.76976 0.0
C1060 C 0.56861 0.6519 0.77139 0.0
C1061 C 0.60671 0.6725 0.75102 0.0
C1062 C 0.61136 0.65338 0.73374 0.0
C1063 C 0.59439 0.63366 0.73529 0.0
C1064 C 0.57335 0.63286 0.75397 0.0
C1065 C 0.63332 0.65407 0.71338 0.0
C1066 C 0.63406 0.67324 0.69488 0.0
C1067 C 0.65183 0.63473 0.71063 0.0
C1068 C 0.65398 0.61545 0.73138 0.0
C1069 C 0.65328 0.5911 0.72468 0.0
C1070 C 0.65471 0.57309 0.74439 0.0
C1071 C 0.65686 0.57918 0.77089 0.0
C1072 C 0.65774 0.6033 0.77772 0.0
C1073 C 0.65647 0.62137 0.7581 0.0
H1074 H 0.65784 0.56522 0.78613 0.0
H1075 H 0.65381 0.74905 0.60533 0.0
H1076 H 0.70161 0.42997 0.11388 0.0
H1077 H 0.67983 0.41882 0.156 0.0
H1078 H 0.6918 0.34378 0.13877 0.0
H1079 H 0.71329 0.35486 0.09602 0.0
H1080 H 0.64185 0.35251 0.1551 0.0
H1081 H 0.72654 0.37013 0.18772 0.0
H1082 H 0.76715 0.39336 0.19296 0.0
H1083 H 0.72037 0.45142 0.22592 0.0
H1084 H 0.67943 0.4287 0.22055 0.0
H1085 H 0.58089 0.32695 0.28259 0.0
H1086 H 0.61554 0.32802 0.24726 0.0
H1087 H 0.60981 0.40543 0.24415 0.0
H1088 H 0.57537 0.40457 0.27933 0.0
H1089 H 0.66183 0.38872 0.24076 0.0
H1090 H 0.57751 0.37366 0.20106 0.0
H1091 H 0.53656 0.35096 0.19558 0.0
H1092 H 0.58326 0.28806 0.17586 0.0
H1093 H 0.62452 0.31033 0.18163 0.0
C1094 C 0.69995 0.41106 0.1191 0.0
C1095 C 0.70916 0.3933 0.10153 0.0
C1096 C 0.6876 0.40471 0.14334 0.0
C1097 C 0.68444 0.38045 0.15075 0.0
C1098 C 0.69411 0.36261 0.13351 0.0
C1099 C 0.70645 0.36897 0.10913 0.0
C1100 C 0.66932 0.37403 0.17561 0.0
C1101 C 0.64663 0.35993 0.17397 0.0
C1102 C 0.67527 0.38401 0.20018 0.0
C1103 C 0.69988 0.39773 0.2036 0.0
C1104 C 0.72488 0.38791 0.19593 0.0
C1105 C 0.74797 0.40099 0.19895 0.0
C1106 C 0.74634 0.42386 0.20973 0.0
C1107 C 0.72161 0.4337 0.21758 0.0
C1108 C 0.69846 0.42071 0.21459 0.0
C1109 C 0.58719 0.3442 0.27455 0.0
C1110 C 0.57517 0.36567 0.28359 0.0
C1111 C 0.60695 0.34477 0.25435 0.0
C1112 C 0.61507 0.3668 0.24297 0.0
C1113 C 0.60384 0.38824 0.25268 0.0
C1114 C 0.58402 0.3877 0.27269 0.0
C1115 C 0.63418 0.36775 0.21997 0.0
C1116 C 0.65751 0.38085 0.22199 0.0
C1117 C 0.62885 0.35687 0.19576 0.0
C1118 C 0.60407 0.34356 0.1921 0.0
C1119 C 0.57904 0.35493 0.19577 0.0
C1120 C 0.55578 0.34216 0.19258 0.0
C1121 C 0.55731 0.31806 0.18546 0.0
C1122 C 0.58211 0.30671 0.18143 0.0
C1123 C 0.60543 0.3194 0.18466 0.0
H1124 H 0.53928 0.3082 0.18299 0.0
H1125 H 0.76423 0.43396 0.21204 0.0
H1126 H 0.37834 0.63838 0.56759 0.0
H1127 H 0.39914 0.64192 0.61015 0.0
H1128 H 0.32212 0.63941 0.65027 0.0
H1129 H 0.30099 0.63604 0.60759 0.0
H1130 H 0.3548 0.67205 0.67242 0.0
H1131 H 0.35869 0.58963 0.64827 0.0
H1132 H 0.36807 0.55562 0.61877 0.0
H1133 H 0.45103 0.5725 0.61522 0.0
H1134 H 0.44209 0.60686 0.6444 0.0
H1135 H 0.44249 0.60901 0.78135 0.0
H1136 H 0.41156 0.60774 0.74522 0.0
H1137 H 0.4334 0.67949 0.72013 0.0
H1138 H 0.46406 0.68108 0.75637 0.0
H1139 H 0.42284 0.60944 0.69383 0.0
H1140 H 0.38152 0.70781 0.69051 0.0
H1141 H 0.36968 0.74007 0.72168 0.0
H1142 H 0.35665 0.68761 0.78422 0.0
H1143 H 0.36801 0.65504 0.75336 0.0
C1144 C 0.36573 0.63885 0.58539 0.0
C1145 C 0.33801 0.63667 0.58419 0.0
C1146 C 0.37768 0.64081 0.60973 0.0
C1147 C 0.36221 0.64052 0.63339 0.0
C1148 C 0.33442 0.63957 0.63224 0.0
C1149 C 0.3224 0.6376 0.60783 0.0
C1150 C 0.37531 0.63996 0.65924 0.0
C1151 C 0.36965 0.65837 0.67718 0.0
C1152 C 0.39415 0.62172 0.66571 0.0
C1153 C 0.39967 0.60093 0.64835 0.0
C1154 C 0.37891 0.58619 0.64105 0.0
C1155 C 0.38415 0.56684 0.62441 0.0
C1156 C 0.41012 0.56193 0.61508 0.0
C1157 C 0.43092 0.57634 0.62244 0.0
C1158 C 0.42578 0.59574 0.63906 0.0
C1159 C 0.44054 0.62463 0.76832 0.0
C1160 C 0.45591 0.6451 0.77168 0.0
C1161 C 0.42286 0.62385 0.74765 0.0
C1162 C 0.42006 0.64355 0.73003 0.0
C1163 C 0.43492 0.6642 0.7337 0.0
C1164 C 0.45257 0.66503 0.75438 0.0
C1165 C 0.40297 0.64196 0.70679 0.0
C1166 C 0.40789 0.62309 0.68926 0.0
C1167 C 0.38312 0.65952 0.70101 0.0
C1168 C 0.37585 0.67899 0.71964 0.0
C1169 C 0.37599 0.70315 0.71088 0.0
C1170 C 0.36939 0.72149 0.7285 0.0
C1171 C 0.36249 0.7159 0.75493 0.0
C1172 C 0.36209 0.69193 0.76377 0.0
C1173 C 0.36864 0.67352 0.74622 0.0
H1174 H 0.35741 0.73012 0.76854 0.0
H1175 H 0.41414 0.54695 0.60219 0.0
H1176 H 0.82094 0.85113 0.09381 0.0
H1177 H 0.83892 0.84288 0.13769 0.0
H1178 H 0.89711 0.8979 0.12303 0.0
H1179 H 0.87957 0.90607 0.07937 0.0
H1180 H 0.91976 0.85801 0.14287 0.0
H1181 H 0.84287 0.90804 0.16302 0.0
H1182 H 0.79526 0.91952 0.16321 0.0
H1183 H 0.7758 0.8542 0.2058 0.0
H1184 H 0.8233 0.84218 0.20556 0.0
H1185 H 0.93146 0.88607 0.28894 0.0
H1186 H 0.90568 0.88924 0.24885 0.0
H1187 H 0.93096 0.81744 0.2281 0.0
H1188 H 0.95698 0.81413 0.26794 0.0
H1189 H 0.86552 0.86427 0.22649 0.0
H1190 H 0.94801 0.81895 0.16194 0.0
H1191 H 0.99648 0.81119 0.16225 0.0
H1192 H 0.00608 0.87389 0.20856 0.0
H1193 H 0.95776 0.88223 0.20815 0.0
C1194 C 0.83754 0.86147 0.09999 0.0
C1195 C 0.84883 0.87924 0.08309 0.0
C1196 C 0.84773 0.85679 0.12507 0.0
C1197 C 0.8693 0.86984 0.13364 0.0
C1198 C 0.88053 0.88755 0.11678 0.0
C1199 C 0.87039 0.89225 0.09183 0.0
C1200 C 0.88061 0.86504 0.15999 0.0
C1201 C 0.90783 0.85922 0.16112 0.0
C1202 C 0.86514 0.8669 0.18383 0.0
C1203 C 0.8366 0.87409 0.184 0.0
C1204 C 0.82841 0.89603 0.17222 0.0
C1205 C 0.80146 0.90265 0.17238 0.0
C1206 C 0.78251 0.88756 0.18444 0.0
C1207 C 0.7905 0.86585 0.19643 0.0
C1208 C 0.81743 0.85913 0.1963 0.0
C1209 C 0.93126 0.87081 0.27606 0.0
C1210 C 0.94667 0.85 0.28143 0.0
C1211 C 0.91639 0.87262 0.25322 0.0
C1212 C 0.91673 0.85371 0.23536 0.0
C1213 C 0.93072 0.83236 0.24149 0.0
C1214 C 0.94559 0.83052 0.26428 0.0
C1215 C 0.90456 0.85716 0.20924 0.0
C1216 C 0.87728 0.86273 0.20817 0.0
C1217 C 0.92006 0.85555 0.1854 0.0
C1218 C 0.94924 0.85103 0.18527 0.0
C1219 C 0.96049 0.83113 0.17209 0.0
C1220 C 0.98794 0.82663 0.17228 0.0
C1221 C 0.00434 0.84199 0.18549 0.0
C1222 C 0.99335 0.86196 0.19841 0.0
C1223 C 0.96593 0.86657 0.19822 0.0
H1224 H 0.02557 0.83845 0.18567 0.0
H1225 H 0.76165 0.89272 0.18455 0.0
H1226 H 0.2342 0.08925 0.59492 0.0
H1227 H 0.21096 0.09511 0.63753 0.0
H1228 H 0.17923 0.16311 0.60917 0.0
H1229 H 0.20279 0.15758 0.56642 0.0
H1230 H 0.19166 0.16404 0.66238 0.0
H1231 H 0.14291 0.11436 0.60497 0.0
H1232 H 0.13712 0.08014 0.57576 0.0
H1233 H 0.15469 0.03084 0.63971 0.0
H1234 H 0.16098 0.06481 0.66921 0.0
H1235 H 0.07322 0.17246 0.74301 0.0
H1236 H 0.10741 0.17075 0.70763 0.0
H1237 H 0.13303 0.10075 0.73631 0.0
H1238 H 0.09853 0.1021 0.77158 0.0
H1239 H 0.12602 0.10065 0.68451 0.0
H1240 H 0.17121 0.15046 0.74324 0.0
H1241 H 0.17613 0.18478 0.77249 0.0
H1242 H 0.1647 0.23388 0.70689 0.0
H1243 H 0.15931 0.19985 0.67728 0.0
C1244 C 0.22266 0.10567 0.59783 0.0
C1245 C 0.22004 0.12279 0.57711 0.0
C1246 C 0.20937 0.10897 0.62222 0.0
C1247 C 0.19297 0.12932 0.62632 0.0
C1248 C 0.19171 0.14723 0.60636 0.0
C1249 C 0.20515 0.144 0.58192 0.0
C1250 C 0.17528 0.13074 0.65038 0.0
C1251 C 0.17715 0.15032 0.66716 0.0
C1252 C 0.1567 0.11257 0.65684 0.0
C1253 C 0.15269 0.09212 0.63921 0.0
C1254 C 0.14573 0.09623 0.61275 0.0
C1255 C 0.14233 0.07688 0.59615 0.0
C1256 C 0.14561 0.05333 0.60586 0.0
C1257 C 0.15221 0.04909 0.63221 0.0
C1258 C 0.15568 0.06838 0.64888 0.0
C1259 C 0.08625 0.15677 0.74198 0.0
C1260 C 0.08298 0.13734 0.76005 0.0
C1261 C 0.10593 0.15589 0.7218 0.0
C1262 C 0.12293 0.1357 0.71942 0.0
C1263 C 0.12013 0.11651 0.73778 0.0
C1264 C 0.1004 0.11733 0.75795 0.0
C1265 C 0.14237 0.13392 0.69672 0.0
C1266 C 0.14072 0.11429 0.68001 0.0
C1267 C 0.16107 0.15205 0.69041 0.0
C1268 C 0.16465 0.17258 0.70807 0.0
C1269 C 0.16957 0.16857 0.73507 0.0
C1270 C 0.17246 0.18798 0.75172 0.0
C1271 C 0.17067 0.21149 0.74157 0.0
C1272 C 0.16606 0.21565 0.71472 0.0
C1273 C 0.16312 0.19631 0.69799 0.0
H1274 H 0.17293 0.22647 0.75449 0.0
H1275 H 0.14297 0.03838 0.59297 0.0
H1276 H 0.21896 0.85709 0.11633 0.0
H1277 H 0.19561 0.84152 0.15633 0.0
H1278 H 0.1689 0.91344 0.17518 0.0
H1279 H 0.19268 0.92912 0.13592 0.0
H1280 H 0.18028 0.88979 0.21907 0.0
H1281 H 0.13011 0.8737 0.14113 0.0
H1282 H 0.12337 0.85617 0.09756 0.0
H1283 H 0.13852 0.7855 0.13022 0.0
H1284 H 0.14565 0.80269 0.17393 0.0
H1285 H 0.05348 0.88645 0.27872 0.0
H1286 H 0.09181 0.88983 0.24821 0.0
H1287 H 0.10908 0.81408 0.25854 0.0
H1288 H 0.07048 0.81044 0.28949 0.0
H1289 H 0.10926 0.83145 0.20452 0.0
H1290 H 0.14853 0.84935 0.28573 0.0
H1291 H 0.15051 0.86888 0.32888 0.0
H1292 H 0.15254 0.93814 0.28976 0.0
H1293 H 0.15016 0.91906 0.24638 0.0
C1294 C 0.20842 0.8696 0.12922 0.0
C1295 C 0.20743 0.89432 0.12278 0.0
C1296 C 0.19502 0.86067 0.15203 0.0
C1297 C 0.18013 0.87626 0.16856 0.0
C1298 C 0.18023 0.90103 0.16277 0.0
C1299 C 0.19376 0.90997 0.14018 0.0
C1300 C 0.16283 0.86698 0.19079 0.0
C1301 C 0.16481 0.87698 0.2159 0.0
C1302 C 0.14301 0.8498 0.1869 0.0
C1303 C 0.13877 0.83949 0.16066 0.0
C1304 C 0.13221 0.85444 0.13895 0.0
C1305 C 0.12828 0.84457 0.11425 0.0
C1306 C 0.13061 0.81974 0.1111 0.0
C1307 C 0.13679 0.80473 0.13267 0.0
C1308 C 0.14078 0.81452 0.15741 0.0
C1309 C 0.06535 0.87044 0.27457 0.0
C1310 C 0.05885 0.84814 0.28646 0.0
C1311 C 0.08736 0.87246 0.25723 0.0
C1312 C 0.10337 0.85225 0.25135 0.0
C1313 C 0.09696 0.82987 0.26297 0.0
C1314 C 0.07496 0.82785 0.28062 0.0
C1315 C 0.12625 0.85485 0.23237 0.0
C1316 C 0.12527 0.84366 0.2079 0.0
C1317 C 0.14675 0.87115 0.23676 0.0
C1318 C 0.14909 0.88273 0.26277 0.0
C1319 C 0.14932 0.86875 0.28632 0.0
C1320 C 0.1505 0.87974 0.31083 0.0
C1321 C 0.15161 0.90473 0.31207 0.0
C1322 C 0.15169 0.91877 0.28877 0.0
C1323 C 0.15049 0.90787 0.2642 0.0
H1324 H 0.15242 0.91321 0.33107 0.0
H1325 H 0.12755 0.81213 0.09196 0.0
H1326 H 0.8002 0.1356 0.6076 0.0
H1327 H 0.82612 0.14702 0.6454 0.0
H1328 H 0.87182 0.08081 0.63961 0.0
H1329 H 0.84591 0.06916 0.60245 0.0
H1330 H 0.85885 0.08951 0.68978 0.0
H1331 H 0.89518 0.13498 0.6141 0.0
H1332 H 0.89298 0.16408 0.57663 0.0
H1333 H 0.86652 0.21942 0.62973 0.0
H1334 H 0.86827 0.19053 0.66748 0.0
H1335 H 0.98216 0.10413 0.74434 0.0
H1336 H 0.94576 0.10023 0.71443 0.0
H1337 H 0.91286 0.16863 0.73901 0.0
H1338 H 0.94966 0.17291 0.76901 0.0
H1339 H 0.91232 0.16349 0.68508 0.0
H1340 H 0.88463 0.118 0.76202 0.0
H1341 H 0.8894 0.08822 0.79853 0.0
H1342 H 0.90128 0.03197 0.74245 0.0
H1343 H 0.89707 0.06145 0.70555 0.0
C1344 C 0.8157 0.12346 0.6145 0.0
C1345 C 0.82106 0.10151 0.60196 0.0
C1346 C 0.83053 0.13004 0.63603 0.0
C1347 C 0.85103 0.11484 0.64521 0.0
C1348 C 0.85604 0.09279 0.63295 0.0
C1349 C 0.84125 0.0862 0.61159 0.0
C1350 C 0.86792 0.12176 0.66715 0.0
C1351 C 0.87058 0.10566 0.68874 0.0
C1352 C 0.8826 0.14321 0.66621 0.0
C1353 C 0.88151 0.16054 0.64353 0.0
C1354 C 0.88868 0.1533 0.61774 0.0
C1355 C 0.88756 0.16977 0.59646 0.0
C1356 C 0.87952 0.19357 0.60078 0.0
C1357 C 0.87267 0.20097 0.6264 0.0
C1358 C 0.87373 0.18456 0.64774 0.0
C1359 C 0.96729 0.11844 0.74341 0.0
C1360 C 0.96882 0.13883 0.75914 0.0
C1361 C 0.94638 0.1161 0.72638 0.0
C1362 C 0.92636 0.13393 0.72487 0.0
C1363 C 0.92805 0.1546 0.74004 0.0
C1364 C 0.94908 0.15701 0.75713 0.0
C1365 C 0.90395 0.13077 0.70713 0.0
C1366 C 0.90017 0.14759 0.68643 0.0
C1367 C 0.88837 0.10987 0.70878 0.0
C1368 C 0.89061 0.092 0.73098 0.0
C1369 C 0.88841 0.09931 0.75744 0.0
C1370 C 0.89101 0.08247 0.77822 0.0
C1371 C 0.89562 0.05823 0.77279 0.0
C1372 C 0.89767 0.05076 0.7466 0.0
C1373 C 0.89514 0.06753 0.72575 0.0
H1374 H 0.89752 0.0452 0.78885 0.0
H1375 H 0.87868 0.20629 0.58429 0.0
loop_
_geom_bond_atom_site_label_1
_geom_bond_atom_site_label_2
_geom_bond_distance
_geom_bond_site_symmetry_2
_ccdc_geom_bond_type
O0 Cd1 2.300 . S
O0 C7 1.275 . S
Cd1 O0 2.300 . S
Cd1 O9 2.381 . S
Cd1 O10 2.378 . S
O2 Cd3 2.385 1_556 S
O2 C7 1.255 . S
Cd3 O2 2.385 1_554 S
Cd3 O4 2.317 . S
O4 Cd3 2.317 . S
O4 C5 1.232 . S
C5 O4 1.232 . S
C5 O6 1.218 . S
O6 C5 1.218 . S
C7 O0 1.275 . S
C7 O2 1.255 . S
C8 O9 1.258 . S
C8 O10 1.256 . S
O9 Cd1 2.381 . S
O9 C8 1.258 . S
O10 Cd1 2.378 . S
O10 C8 1.256 . S
O11 Cd12 2.300 . S
O11 C18 1.275 . S
Cd12 O11 2.300 . S
Cd12 O20 2.381 . S
Cd12 O21 2.378 . S
O13 Cd14 2.385 . S
O13 C18 1.255 . S
Cd14 O13 2.385 . S
Cd14 O15 2.317 . S
O15 Cd14 2.317 . S
O15 C16 1.232 . S
C16 O15 1.232 . S
C16 O17 1.218 . S
O17 C16 1.218 . S
C18 O11 1.275 . S
C18 O13 1.255 . S
C19 O20 1.258 . S
C19 O21 1.256 . S
O20 Cd12 2.381 . S
O20 C19 1.258 . S
O21 Cd12 2.378 . S
O21 C19 1.256 . S
O22 Cd23 2.300 . S
O22 C29 1.275 . S
Cd23 O22 2.300 . S
Cd23 O31 2.381 . S
Cd23 O32 2.378 . S
O24 Cd25 2.385 . S
O24 C29 1.255 1_554 S
Cd25 O24 2.385 . S
Cd25 O26 2.317 . S
O26 Cd25 2.317 . S
O26 C27 1.232 . S
C27 O26 1.232 . S
C27 O28 1.218 . S
O28 C27 1.218 . S
C29 O22 1.275 . S
C29 O24 1.255 1_556 S
C30 O31 1.258 . S
C30 O32 1.256 . S
O31 Cd23 2.381 . S
O31 C30 1.258 . S
O32 Cd23 2.378 . S
O32 C30 1.256 . S
O33 Cd34 2.300 . S
O33 C40 1.275 . S
Cd34 O33 2.300 . S
Cd34 O42 2.381 . S
Cd34 O43 2.378 . S
O35 Cd36 2.385 . S
O35 C40 1.255 . S
Cd36 O35 2.385 . S
Cd36 O37 2.317 . S
O37 Cd36 2.317 . S
O37 C38 1.232 . S
C38 O37 1.232 . S
C38 O39 1.218 . S
O39 C38 1.218 . S
C40 O33 1.275 . S
C40 O35 1.255 . S
C41 O42 1.258 . S
C41 O43 1.256 . S
O42 Cd34 2.381 . S
O42 C41 1.258 . S
O43 Cd34 2.378 . S
O43 C41 1.256 . S
O44 Cd45 2.300 . S
O44 C51 1.275 . S
Cd45 O44 2.300 . S
Cd45 O53 2.381 . S
Cd45 O54 2.378 . S
O46 Cd47 2.385 1_556 S
O46 C51 1.255 . S
Cd47 O46 2.385 1_554 S
Cd47 O48 2.317 . S
O48 Cd47 2.317 . S
O48 C49 1.232 . S
C49 O48 1.232 . S
C49 O50 1.218 . S
O50 C49 1.218 . S
C51 O44 1.275 . S
C51 O46 1.255 . S
C52 O53 1.258 . S
C52 O54 1.256 . S
O53 Cd45 2.381 . S
O53 C52 1.258 . S
O54 Cd45 2.378 . S
O54 C52 1.256 . S
O55 Cd56 2.300 . S
O55 C62 1.275 . S
Cd56 O55 2.300 . S
Cd56 O64 2.381 . S
Cd56 O65 2.378 . S
O57 Cd58 2.385 . S
O57 C62 1.255 . S
Cd58 O57 2.385 . S
Cd58 O59 2.317 . S
O59 Cd58 2.317 . S
O59 C60 1.232 . S
C60 O59 1.232 . S
C60 O61 1.218 . S
O61 C60 1.218 . S
C62 O55 1.275 . S
C62 O57 1.255 . S
C63 O64 1.258 . S
C63 O65 1.256 . S
O64 Cd56 2.381 . S
O64 C63 1.258 . S
O65 Cd56 2.378 . S
O65 C63 1.256 . S
O66 Cd67 2.300 . S
O66 C73 1.275 . S
Cd67 O66 2.300 . S
Cd67 O75 2.381 . S
Cd67 O76 2.378 . S
O68 Cd69 2.385 . S
O68 C73 1.255 1_554 S
Cd69 O68 2.385 . S
Cd69 O70 2.317 . S
O70 Cd69 2.317 . S
O70 C71 1.232 . S
C71 O70 1.232 . S
C71 O72 1.218 . S
O72 C71 1.218 . S
C73 O66 1.275 . S
C73 O68 1.255 1_556 S
C74 O75 1.258 . S
C74 O76 1.256 . S
O75 Cd67 2.381 . S
O75 C74 1.258 . S
O76 Cd67 2.378 . S
O76 C74 1.256 . S
O77 Cd78 2.300 . S
O77 C84 1.275 . S
Cd78 O77 2.300 . S
Cd78 O86 2.381 . S
Cd78 O87 2.378 . S
O79 Cd80 2.385 . S
O79 C84 1.255 . S
Cd80 O79 2.385 . S
Cd80 O81 2.317 . S
O81 Cd80 2.317 . S
O81 C82 1.232 . S
C82 O81 1.232 . S
C82 O83 1.218 . S
O83 C82 1.218 . S
C84 O77 1.275 . S
C84 O79 1.255 . S
C85 O86 1.258 . S
C85 O87 1.256 . S
O86 Cd78 2.381 . S
O86 C85 1.258 . S
O87 Cd78 2.378 . S
O87 C85 1.256 . S
Fe88 O90 1.918 . S
Fe88 O93 1.997 1_455 S
Fe88 O94 2.002 1_455 S
Fe88 O99 1.976 . S
Fe88 O102 1.996 . S
Fe89 O90 1.918 . S
Fe89 O97 1.997 1_455 S
Fe89 O100 1.996 . S
Fe89 O104 1.976 . S
Fe89 O107 2.002 1_455 S
O90 Fe88 1.918 . S
O90 Fe89 1.918 . S
O90 Fe91 1.918 . S
Fe91 O90 1.918 . S
Fe91 O92 2.002 1_455 S
Fe91 O101 1.976 . S
Fe91 O105 1.996 . S
Fe91 O108 1.997 1_455 S
O92 Fe91 2.002 1_655 S
O92 C109 1.295 . S
O93 Fe88 1.997 1_655 S
O93 C109 1.235 . S
O94 Fe88 2.002 1_655 S
O94 C95 1.295 . S
C95 O94 1.295 . S
C95 O97 1.235 . S
C96 O101 1.287 . S
C96 O102 1.255 . S
O97 Fe89 1.997 1_655 S
O97 C95 1.235 . S
C98 O104 1.287 . S
C98 O105 1.255 . S
O99 Fe88 1.976 . S
O99 C106 1.287 . S
O100 Fe89 1.996 . S
O100 C106 1.255 . S
O101 Fe91 1.976 . S
O101 C96 1.287 . S
O102 Fe88 1.996 . S
O102 C96 1.255 . S
C103 O107 1.295 . S
C103 O108 1.235 . S
O104 Fe89 1.976 . S
O104 C98 1.287 . S
O105 Fe91 1.996 . S
O105 C98 1.255 . S
C106 O99 1.287 . S
C106 O100 1.255 . S
O107 Fe89 2.002 1_655 S
O107 C103 1.295 . S
O108 Fe91 1.997 1_655 S
O108 C103 1.235 . S
C109 O92 1.295 . S
C109 O93 1.235 . S
Fe110 O112 1.918 . S
Fe110 O115 1.997 . S
Fe110 O116 2.002 . S
Fe110 O121 1.976 1_455 S
Fe110 O124 1.996 1_455 S
Fe111 O112 1.918 . S
Fe111 O119 1.997 . S
Fe111 O122 1.996 1_455 S
Fe111 O126 1.976 1_455 S
Fe111 O129 2.002 . S
O112 Fe110 1.918 . S
O112 Fe111 1.918 . S
O112 Fe113 1.918 . S
Fe113 O112 1.918 . S
Fe113 O114 2.002 . S
Fe113 O123 1.976 1_455 S
Fe113 O127 1.996 1_455 S
Fe113 O130 1.997 . S
O114 Fe113 2.002 . S
O114 C131 1.295 . S
O115 Fe110 1.997 . S
O115 C131 1.235 . S
O116 Fe110 2.002 . S
O116 C117 1.295 . S
C117 O116 1.295 . S
C117 O119 1.235 . S
C118 O123 1.287 . S
C118 O124 1.255 . S
O119 Fe111 1.997 . S
O119 C117 1.235 . S
C120 O126 1.287 . S
C120 O127 1.255 . S
O121 Fe110 1.976 1_655 S
O121 C128 1.287 . S
O122 Fe111 1.996 1_655 S
O122 C128 1.255 . S
O123 Fe113 1.976 1_655 S
O123 C118 1.287 . S
O124 Fe110 1.996 1_655 S
O124 C118 1.255 . S
C125 O129 1.295 . S
C125 O130 1.235 . S
O126 Fe111 1.976 1_655 S
O126 C120 1.287 . S
O127 Fe113 1.996 1_655 S
O127 C120 1.255 . S
C128 O121 1.287 . S
C128 O122 1.255 . S
O129 Fe111 2.002 . S
O129 C125 1.295 . S
O130 Fe113 1.997 . S
O130 C125 1.235 . S
C131 O114 1.295 . S
C131 O115 1.235 . S
Fe132 O134 1.918 . S
Fe132 O137 1.997 . S
Fe132 O138 2.002 . S
Fe132 O143 1.976 . S
Fe132 O146 1.996 . S
Fe133 O134 1.918 . S
Fe133 O141 1.997 . S
Fe133 O144 1.996 . S
Fe133 O148 1.976 . S
Fe133 O151 2.002 . S
O134 Fe132 1.918 . S
O134 Fe133 1.918 . S
O134 Fe135 1.918 . S
Fe135 O134 1.918 . S
Fe135 O136 2.002 . S
Fe135 O145 1.976 . S
Fe135 O149 1.996 . S
Fe135 O152 1.997 . S
O136 Fe135 2.002 . S
O136 C153 1.295 . S
O137 Fe132 1.997 . S
O137 C153 1.235 . S
O138 Fe132 2.002 . S
O138 C139 1.295 . S
C139 O138 1.295 . S
C139 O141 1.235 . S
C140 O145 1.287 . S
C140 O146 1.255 . S
O141 Fe133 1.997 . S
O141 C139 1.235 . S
C142 O148 1.287 . S
C142 O149 1.255 . S
O143 Fe132 1.976 . S
O143 C150 1.287 . S
O144 Fe133 1.996 . S
O144 C150 1.255 . S
O145 Fe135 1.976 . S
O145 C140 1.287 . S
O146 Fe132 1.996 . S
O146 C140 1.255 . S
C147 O151 1.295 . S
C147 O152 1.235 . S
O148 Fe133 1.976 . S
O148 C142 1.287 . S
O149 Fe135 1.996 . S
O149 C142 1.255 . S
C150 O143 1.287 . S
C150 O144 1.255 . S
O151 Fe133 2.002 . S
O151 C147 1.295 . S
O152 Fe135 1.997 . S
O152 C147 1.235 . S
C153 O136 1.295 . S
C153 O137 1.235 . S
Fe154 O156 1.918 . S
Fe154 O159 1.997 . S
Fe154 O160 2.002 . S
Fe154 O165 1.976 . S
Fe154 O168 1.996 . S
Fe155 O156 1.918 . S
Fe155 O163 1.997 . S
Fe155 O166 1.996 . S
Fe155 O170 1.976 . S
Fe155 O173 2.002 . S
O156 Fe154 1.918 . S
O156 Fe155 1.918 . S
O156 Fe157 1.918 . S
Fe157 O156 1.918 . S
Fe157 O158 2.002 . S
Fe157 O167 1.976 . S
Fe157 O171 1.996 . S
Fe157 O174 1.997 . S
O158 Fe157 2.002 . S
O158 C175 1.295 . S
O159 Fe154 1.997 . S
O159 C175 1.235 . S
O160 Fe154 2.002 . S
O160 C161 1.295 . S
C161 O160 1.295 . S
C161 O163 1.235 . S
C162 O167 1.287 . S
C162 O168 1.255 . S
O163 Fe155 1.997 . S
O163 C161 1.235 . S
C164 O170 1.287 . S
C164 O171 1.255 . S
O165 Fe154 1.976 . S
O165 C172 1.287 . S
O166 Fe155 1.996 . S
O166 C172 1.255 . S
O167 Fe157 1.976 . S
O167 C162 1.287 . S
O168 Fe154 1.996 . S
O168 C162 1.255 . S
C169 O173 1.295 . S
C169 O174 1.235 . S
O170 Fe155 1.976 . S
O170 C164 1.287 . S
O171 Fe157 1.996 . S
O171 C164 1.255 . S
C172 O165 1.287 . S
C172 O166 1.255 . S
O173 Fe155 2.002 . S
O173 C169 1.295 . S
O174 Fe157 1.997 . S
O174 C169 1.235 . S
C175 O158 1.295 . S
C175 O159 1.235 . S
H176 C194 0.951 . S
H177 C196 0.951 . S
H178 C198 0.950 . S
H179 C199 0.950 . S
H180 C201 0.950 . S
H181 C204 0.950 . S
H182 C205 0.950 . S
H183 C207 0.950 . S
H184 C208 0.950 . S
H185 C209 0.951 . S
H186 C211 0.951 . S
H187 C213 0.950 . S
H188 C214 0.950 . S
H189 C216 0.950 . S
H190 C219 0.950 . S
H191 C220 0.950 . S
H192 C222 0.950 . S
H193 C223 0.950 . S
C194 H176 0.951 . S
C194 C195 1.366 . S
C194 C196 1.388 . S
C195 C194 1.366 . S
C195 C199 1.385 . S
C196 H177 0.951 . S
C196 C194 1.388 . S
C196 C197 1.366 . S
C197 C196 1.366 . S
C197 C198 1.414 . S
C197 C200 1.499 . S
C198 H178 0.950 . S
C198 C197 1.414 . S
C198 C199 1.374 . S
C199 H179 0.950 . S
C199 C195 1.385 . S
C199 C198 1.374 . S
C200 C197 1.499 . S
C200 C201 1.373 . S
C200 C202 1.389 . S
C201 H180 0.950 . S
C201 C200 1.373 . S
C201 C217 1.377 . S
C202 C200 1.389 . S
C202 C203 1.524 . S
C202 C216 1.377 . S
C203 C202 1.524 . S
C203 C204 1.397 . S
C203 C208 1.363 . S
C204 H181 0.950 . S
C204 C203 1.397 . S
C204 C205 1.334 1_556 S
C205 H182 0.950 . S
C205 C204 1.334 1_554 S
C205 C206 1.287 . S
C206 C205 1.287 . S
C206 C207 1.524 . S
C206 H225 0.913 . S
C207 H183 0.950 . S
C207 C206 1.524 . S
C207 C208 1.415 1_554 S
C208 H184 0.950 . S
C208 C203 1.363 . S
C208 C207 1.415 1_556 S
C209 H185 0.951 . S
C209 C210 1.366 . S
C209 C211 1.388 . S
C210 C209 1.366 . S
C210 C214 1.385 . S
C211 H186 0.951 . S
C211 C209 1.388 . S
C211 C212 1.366 . S
C212 C211 1.366 . S
C212 C213 1.414 . S
C212 C215 1.499 . S
C213 H187 0.950 . S
C213 C212 1.414 . S
C213 C214 1.374 . S
C214 H188 0.950 . S
C214 C210 1.385 . S
C214 C213 1.374 . S
C215 C212 1.499 . S
C215 C216 1.373 . S
C215 C217 1.389 . S
C216 H189 0.950 . S
C216 C202 1.377 . S
C216 C215 1.373 . S
C217 C201 1.377 . S
C217 C215 1.389 . S
C217 C218 1.524 . S
C218 C217 1.524 . S
C218 C219 1.397 . S
C218 C223 1.363 . S
C219 H190 0.950 . S
C219 C218 1.397 . S
C219 C220 1.334 . S
C220 H191 0.950 . S
C220 C219 1.334 . S
C220 C221 1.287 . S
C221 C220 1.287 . S
C221 C222 1.524 . S
C221 H224 0.999 . S
C222 H192 0.950 . S
C222 C221 1.524 . S
C222 C223 1.415 . S
C223 H193 0.950 . S
C223 C218 1.363 . S
C223 C222 1.415 . S
H224 C221 0.999 . S
H225 C206 0.913 . S
H226 C244 0.951 . S
H227 C246 0.951 . S
H228 C248 0.950 . S
H229 C249 0.950 . S
H230 C251 0.950 . S
H231 C254 0.950 . S
H232 C255 0.950 . S
H233 C257 0.950 . S
H234 C258 0.950 . S
H235 C259 0.951 . S
H236 C261 0.951 . S
H237 C263 0.950 . S
H238 C264 0.950 . S
H239 C266 0.950 . S
H240 C269 0.950 . S
H241 C270 0.950 . S
H242 C272 0.950 . S
H243 C273 0.950 . S
C244 H226 0.951 . S
C244 C245 1.366 . S
C244 C246 1.388 . S
C245 C244 1.366 . S
C245 C249 1.385 . S
C246 H227 0.951 . S
C246 C244 1.388 . S
C246 C247 1.366 . S
C247 C246 1.366 . S
C247 C248 1.414 . S
C247 C250 1.499 . S
C248 H228 0.950 . S
C248 C247 1.414 . S
C248 C249 1.374 . S
C249 H229 0.950 . S
C249 C245 1.385 . S
C249 C248 1.374 . S
C250 C247 1.499 . S
C250 C251 1.373 . S
C250 C252 1.389 . S
C251 H230 0.950 . S
C251 C250 1.373 . S
C251 C267 1.377 . S
C252 C250 1.389 . S
C252 C253 1.524 . S
C252 C266 1.377 . S
C253 C252 1.524 . S
C253 C254 1.397 . S
C253 C258 1.363 . S
C254 H231 0.950 . S
C254 C253 1.397 . S
C254 C255 1.334 . S
C255 H232 0.950 . S
C255 C254 1.334 . S
C255 C256 1.287 . S
C256 C255 1.287 . S
C256 C257 1.524 . S
C256 H275 0.913 . S
C257 H233 0.950 . S
C257 C256 1.524 . S
C257 C258 1.415 . S
C258 H234 0.950 . S
C258 C253 1.363 . S
C258 C257 1.415 . S
C259 H235 0.951 . S
C259 C260 1.366 . S
C259 C261 1.388 . S
C260 C259 1.366 . S
C260 C264 1.385 . S
C261 H236 0.951 . S
C261 C259 1.388 . S
C261 C262 1.366 . S
C262 C261 1.366 . S
C262 C263 1.414 . S
C262 C265 1.499 . S
C263 H237 0.950 . S
C263 C262 1.414 . S
C263 C264 1.374 . S
C264 H238 0.950 . S
C264 C260 1.385 . S
C264 C263 1.374 . S
C265 C262 1.499 . S
C265 C266 1.373 . S
C265 C267 1.389 . S
C266 H239 0.950 . S
C266 C252 1.377 . S
C266 C265 1.373 . S
C267 C251 1.377 . S
C267 C265 1.389 . S
C267 C268 1.524 . S
C268 C267 1.524 . S
C268 C269 1.397 . S
C268 C273 1.363 . S
C269 H240 0.950 . S
C269 C268 1.397 . S
C269 C270 1.334 . S
C270 H241 0.950 . S
C270 C269 1.334 . S
C270 C271 1.287 . S
C271 C270 1.287 . S
C271 C272 1.524 . S
C271 H274 0.999 . S
C272 H242 0.950 . S
C272 C271 1.524 . S
C272 C273 1.415 . S
C273 H243 0.950 . S
C273 C268 1.363 . S
C273 C272 1.415 . S
H274 C271 0.999 . S
H275 C256 0.913 . S
H276 C294 0.951 . S
H277 C296 0.951 . S
H278 C298 0.950 . S
H279 C299 0.950 . S
H280 C301 0.950 . S
H281 C304 0.950 . S
H282 C305 0.950 . S
H283 C307 0.950 . S
H284 C308 0.950 . S
H285 C309 0.951 . S
H286 C311 0.951 . S
H287 C313 0.950 . S
H288 C314 0.950 . S
H289 C316 0.950 . S
H290 C319 0.950 . S
H291 C320 0.950 . S
H292 C322 0.950 . S
H293 C323 0.950 . S
C294 H276 0.951 . S
C294 C295 1.366 . S
C294 C296 1.388 . S
C295 C294 1.366 . S
C295 C299 1.385 . S
C296 H277 0.951 . S
C296 C294 1.388 . S
C296 C297 1.366 . S
C297 C296 1.366 . S
C297 C298 1.414 . S
C297 C300 1.499 . S
C298 H278 0.950 . S
C298 C297 1.414 . S
C298 C299 1.374 . S
C299 H279 0.950 . S
C299 C295 1.385 . S
C299 C298 1.374 . S
C300 C297 1.499 . S
C300 C301 1.373 . S
C300 C302 1.389 . S
C301 H280 0.950 . S
C301 C300 1.373 . S
C301 C317 1.377 . S
C302 C300 1.389 . S
C302 C303 1.524 . S
C302 C316 1.377 . S
C303 C302 1.524 . S
C303 C304 1.397 . S
C303 C308 1.363 . S
C304 H281 0.950 . S
C304 C303 1.397 . S
C304 C305 1.334 1_556 S
C305 H282 0.950 . S
C305 C304 1.334 1_554 S
C305 C306 1.287 . S
C306 C305 1.287 . S
C306 C307 1.524 1_554 S
C306 H325 0.913 . S
C307 H283 0.950 . S
C307 C306 1.524 1_556 S
C307 C308 1.415 . S
C308 H284 0.950 . S
C308 C303 1.363 . S
C308 C307 1.415 . S
C309 H285 0.951 . S
C309 C310 1.366 . S
C309 C311 1.388 . S
C310 C309 1.366 . S
C310 C314 1.385 . S
C311 H286 0.951 . S
C311 C309 1.388 . S
C311 C312 1.366 . S
C312 C311 1.366 . S
C312 C313 1.414 . S
C312 C315 1.499 . S
C313 H287 0.950 . S
C313 C312 1.414 . S
C313 C314 1.374 . S
C314 H288 0.950 . S
C314 C310 1.385 . S
C314 C313 1.374 . S
C315 C312 1.499 . S
C315 C316 1.373 . S
C315 C317 1.389 . S
C316 H289 0.950 . S
C316 C302 1.377 . S
C316 C315 1.373 . S
C317 C301 1.377 . S
C317 C315 1.389 . S
C317 C318 1.524 . S
C318 C317 1.524 . S
C318 C319 1.397 . S
C318 C323 1.363 . S
C319 H290 0.950 . S
C319 C318 1.397 . S
C319 C320 1.334 . S
C320 H291 0.950 . S
C320 C319 1.334 . S
C320 C321 1.287 . S
C321 C320 1.287 . S
C321 C322 1.524 . S
C321 H324 0.999 . S
C322 H292 0.950 . S
C322 C321 1.524 . S
C322 C323 1.415 . S
C323 H293 0.950 . S
C323 C318 1.363 . S
C323 C322 1.415 . S
H324 C321 0.999 . S
H325 C306 0.913 . S
H326 C344 0.951 . S
H327 C346 0.951 . S
H328 C348 0.950 . S
H329 C349 0.950 . S
H330 C351 0.950 . S
H331 C354 0.950 . S
H332 C355 0.950 . S
H333 C357 0.950 . S
H334 C358 0.950 . S
H335 C359 0.951 . S
H336 C361 0.951 . S
H337 C363 0.950 . S
H338 C364 0.950 . S
H339 C366 0.950 . S
H340 C369 0.950 . S
H341 C370 0.950 . S
H342 C372 0.950 . S
H343 C373 0.950 . S
C344 H326 0.951 . S
C344 C345 1.366 . S
C344 C346 1.388 . S
C345 C344 1.366 . S
C345 C349 1.385 . S
C346 H327 0.951 . S
C346 C344 1.388 . S
C346 C347 1.366 . S
C347 C346 1.366 . S
C347 C348 1.414 . S
C347 C350 1.499 . S
C348 H328 0.950 . S
C348 C347 1.414 . S
C348 C349 1.374 . S
C349 H329 0.950 . S
C349 C345 1.385 . S
C349 C348 1.374 . S
C350 C347 1.499 . S
C350 C351 1.373 . S
C350 C352 1.389 . S
C351 H330 0.950 . S
C351 C350 1.373 . S
C351 C367 1.377 . S
C352 C350 1.389 . S
C352 C353 1.524 . S
C352 C366 1.377 . S
C353 C352 1.524 . S
C353 C354 1.397 . S
C353 C358 1.363 . S
C354 H331 0.950 . S
C354 C353 1.397 . S
C354 C355 1.334 . S
C355 H332 0.950 . S
C355 C354 1.334 . S
C355 C356 1.287 . S
C356 C355 1.287 . S
C356 C357 1.524 . S
C356 H375 0.913 . S
C357 H333 0.950 . S
C357 C356 1.524 . S
C357 C358 1.415 . S
C358 H334 0.950 . S
C358 C353 1.363 . S
C358 C357 1.415 . S
C359 H335 0.951 . S
C359 C360 1.366 . S
C359 C361 1.388 . S
C360 C359 1.366 . S
C360 C364 1.385 . S
C361 H336 0.951 . S
C361 C359 1.388 . S
C361 C362 1.366 . S
C362 C361 1.366 . S
C362 C363 1.414 . S
C362 C365 1.499 . S
C363 H337 0.950 . S
C363 C362 1.414 . S
C363 C364 1.374 . S
C364 H338 0.950 . S
C364 C360 1.385 . S
C364 C363 1.374 . S
C365 C362 1.499 . S
C365 C366 1.373 . S
C365 C367 1.389 . S
C366 H339 0.950 . S
C366 C352 1.377 . S
C366 C365 1.373 . S
C367 C351 1.377 . S
C367 C365 1.389 . S
C367 C368 1.524 . S
C368 C367 1.524 . S
C368 C369 1.397 . S
C368 C373 1.363 . S
C369 H340 0.950 . S
C369 C368 1.397 . S
C369 C370 1.334 . S
C370 H341 0.950 . S
C370 C369 1.334 . S
C370 C371 1.287 . S
C371 C370 1.287 . S
C371 C372 1.524 . S
C371 H374 0.999 . S
C372 H342 0.950 . S
C372 C371 1.524 . S
C372 C373 1.415 . S
C373 H343 0.950 . S
C373 C368 1.363 . S
C373 C372 1.415 . S
H374 C371 0.999 . S
H375 C356 0.913 . S
H376 C394 0.951 . S
H377 C396 0.951 . S
H378 C398 0.950 . S
H379 C399 0.950 . S
H380 C401 0.950 . S
H381 C404 0.950 . S
H382 C405 0.950 . S
H383 C407 0.950 . S
H384 C408 0.950 . S
H385 C409 0.951 . S
H386 C411 0.951 . S
H387 C413 0.950 . S
H388 C414 0.950 . S
H389 C416 0.950 . S
H390 C419 0.950 . S
H391 C420 0.950 . S
H392 C422 0.950 . S
H393 C423 0.950 . S
C394 H376 0.951 . S
C394 C395 1.366 . S
C394 C396 1.388 . S
C395 C394 1.366 . S
C395 C399 1.385 . S
C396 H377 0.951 . S
C396 C394 1.388 . S
C396 C397 1.366 . S
C397 C396 1.366 . S
C397 C398 1.414 . S
C397 C400 1.499 . S
C398 H378 0.950 . S
C398 C397 1.414 . S
C398 C399 1.374 . S
C399 H379 0.950 . S
C399 C395 1.385 . S
C399 C398 1.374 . S
C400 C397 1.499 . S
C400 C401 1.373 . S
C400 C402 1.389 . S
C401 H380 0.950 . S
C401 C400 1.373 . S
C401 C417 1.377 . S
C402 C400 1.389 . S
C402 C403 1.524 . S
C402 C416 1.377 . S
C403 C402 1.524 . S
C403 C404 1.397 . S
C403 C408 1.363 . S
C404 H381 0.950 . S
C404 C403 1.397 . S
C404 C405 1.334 1_556 S
C405 H382 0.950 . S
C405 C404 1.334 1_554 S
C405 C406 1.287 . S
C406 C405 1.287 . S
C406 C407 1.525 . S
C406 H425 0.913 . S
C407 H383 0.950 . S
C407 C406 1.525 . S
C407 C408 1.413 1_554 S
C408 H384 0.950 . S
C408 C403 1.363 . S
C408 C407 1.413 1_556 S
C409 H385 0.951 . S
C409 C410 1.366 . S
C409 C411 1.388 . S
C410 C409 1.366 . S
C410 C414 1.385 . S
C411 H386 0.951 . S
C411 C409 1.388 . S
C411 C412 1.366 . S
C412 C411 1.366 . S
C412 C413 1.414 . S
C412 C415 1.499 . S
C413 H387 0.950 . S
C413 C412 1.414 . S
C413 C414 1.374 . S
C414 H388 0.950 . S
C414 C410 1.385 . S
C414 C413 1.374 . S
C415 C412 1.499 . S
C415 C416 1.373 . S
C415 C417 1.389 . S
C416 H389 0.950 . S
C416 C402 1.377 . S
C416 C415 1.373 . S
C417 C401 1.377 . S
C417 C415 1.389 . S
C417 C418 1.524 . S
C418 C417 1.524 . S
C418 C419 1.397 . S
C418 C423 1.363 . S
C419 H390 0.950 . S
C419 C418 1.397 . S
C419 C420 1.334 . S
C420 H391 0.950 . S
C420 C419 1.334 . S
C420 C421 1.287 . S
C421 C420 1.287 . S
C421 C422 1.524 . S
C421 H424 0.999 . S
C422 H392 0.950 . S
C422 C421 1.524 . S
C422 C423 1.415 . S
C423 H393 0.950 . S
C423 C418 1.363 . S
C423 C422 1.415 . S
H424 C421 0.999 . S
H425 C406 0.913 . S
H426 C444 0.951 . S
H427 C446 0.951 . S
H428 C448 0.950 . S
H429 C449 0.950 . S
H430 C451 0.950 . S
H431 C454 0.950 . S
H432 C455 0.950 . S
H433 C457 0.950 . S
H434 C458 0.950 . S
H435 C459 0.951 . S
H436 C461 0.951 . S
H437 C463 0.950 . S
H438 C464 0.950 . S
H439 C466 0.950 . S
H440 C469 0.950 . S
H441 C470 0.950 . S
H442 C472 0.950 . S
H443 C473 0.950 . S
C444 H426 0.951 . S
C444 C445 1.366 . S
C444 C446 1.388 . S
C445 C444 1.366 . S
C445 C449 1.385 . S
C446 H427 0.951 . S
C446 C444 1.388 . S
C446 C447 1.366 . S
C447 C446 1.366 . S
C447 C448 1.414 . S
C447 C450 1.499 . S
C448 H428 0.950 . S
C448 C447 1.414 . S
C448 C449 1.374 . S
C449 H429 0.950 . S
C449 C445 1.385 . S
C449 C448 1.374 . S
C450 C447 1.499 . S
C450 C451 1.373 . S
C450 C452 1.389 . S
C451 H430 0.950 . S
C451 C450 1.373 . S
C451 C467 1.377 . S
C452 C450 1.389 . S
C452 C453 1.524 . S
C452 C466 1.377 . S
C453 C452 1.524 . S
C453 C454 1.397 . S
C453 C458 1.363 . S
C454 H431 0.950 . S
C454 C453 1.397 . S
C454 C455 1.334 . S
C455 H432 0.950 . S
C455 C454 1.334 . S
C455 C456 1.287 . S
C456 C455 1.287 . S
C456 C457 1.524 . S
C456 H475 0.913 . S
C457 H433 0.950 . S
C457 C456 1.524 . S
C457 C458 1.415 . S
C458 H434 0.950 . S
C458 C453 1.363 . S
C458 C457 1.415 . S
C459 H435 0.951 . S
C459 C460 1.366 . S
C459 C461 1.388 . S
C460 C459 1.366 . S
C460 C464 1.385 . S
C461 H436 0.951 . S
C461 C459 1.388 . S
C461 C462 1.366 . S
C462 C461 1.366 . S
C462 C463 1.414 . S
C462 C465 1.499 . S
C463 H437 0.950 . S
C463 C462 1.414 . S
C463 C464 1.374 . S
C464 H438 0.950 . S
C464 C460 1.385 . S
C464 C463 1.374 . S
C465 C462 1.499 . S
C465 C466 1.373 . S
C465 C467 1.389 . S
C466 H439 0.950 . S
C466 C452 1.377 . S
C466 C465 1.373 . S
C467 C451 1.377 . S
C467 C465 1.389 . S
C467 C468 1.524 . S
C468 C467 1.524 . S
C468 C469 1.397 . S
C468 C473 1.363 . S
C469 H440 0.950 . S
C469 C468 1.397 . S
C469 C470 1.334 . S
C470 H441 0.950 . S
C470 C469 1.334 . S
C470 C471 1.287 . S
C471 C470 1.287 . S
C471 C472 1.524 . S
C471 H474 0.999 . S
C472 H442 0.950 . S
C472 C471 1.524 . S
C472 C473 1.415 . S
C473 H443 0.950 . S
C473 C468 1.363 . S
C473 C472 1.415 . S
H474 C471 0.999 . S
H475 C456 0.913 . S
H476 C494 0.951 . S
H477 C496 0.951 . S
H478 C498 0.950 . S
H479 C499 0.950 . S
H480 C501 0.950 . S
H481 C504 0.950 . S
H482 C505 0.950 . S
H483 C507 0.950 . S
H484 C508 0.950 . S
H485 C509 0.951 . S
H486 C511 0.951 . S
H487 C513 0.950 . S
H488 C514 0.950 . S
H489 C516 0.950 . S
H490 C519 0.950 . S
H491 C520 0.950 . S
H492 C522 0.950 . S
H493 C523 0.950 . S
C494 H476 0.951 . S
C494 C495 1.366 . S
C494 C496 1.388 . S
C495 C494 1.366 . S
C495 C499 1.385 . S
C496 H477 0.951 . S
C496 C494 1.388 . S
C496 C497 1.366 . S
C497 C496 1.366 . S
C497 C498 1.414 . S
C497 C500 1.499 . S
C498 H478 0.950 . S
C498 C497 1.414 . S
C498 C499 1.374 . S
C499 H479 0.950 . S
C499 C495 1.385 . S
C499 C498 1.374 . S
C500 C497 1.499 . S
C500 C501 1.373 . S
C500 C502 1.389 . S
C501 H480 0.950 . S
C501 C500 1.373 . S
C501 C517 1.377 . S
C502 C500 1.389 . S
C502 C503 1.524 . S
C502 C516 1.377 . S
C503 C502 1.524 . S
C503 C504 1.397 . S
C503 C508 1.363 . S
C504 H481 0.950 . S
C504 C503 1.397 . S
C504 C505 1.334 . S
C505 H482 0.950 . S
C505 C504 1.334 . S
C505 C506 1.287 . S
C506 C505 1.287 . S
C506 C507 1.524 . S
C506 H525 0.913 . S
C507 H483 0.950 . S
C507 C506 1.524 . S
C507 C508 1.415 . S
C508 H484 0.950 . S
C508 C503 1.363 . S
C508 C507 1.415 . S
C509 H485 0.951 . S
C509 C510 1.366 . S
C509 C511 1.388 . S
C510 C509 1.366 . S
C510 C514 1.385 . S
C511 H486 0.951 . S
C511 C509 1.388 . S
C511 C512 1.366 . S
C512 C511 1.366 . S
C512 C513 1.414 . S
C512 C515 1.499 . S
C513 H487 0.950 . S
C513 C512 1.414 . S
C513 C514 1.374 . S
C514 H488 0.950 . S
C514 C510 1.385 . S
C514 C513 1.374 . S
C515 C512 1.499 . S
C515 C516 1.373 . S
C515 C517 1.389 . S
C516 H489 0.950 . S
C516 C502 1.377 . S
C516 C515 1.373 . S
C517 C501 1.377 . S
C517 C515 1.389 . S
C517 C518 1.524 . S
C518 C517 1.524 . S
C518 C519 1.397 . S
C518 C523 1.363 . S
C519 H490 0.950 . S
C519 C518 1.397 . S
C519 C520 1.334 . S
C520 H491 0.950 . S
C520 C519 1.334 . S
C520 C521 1.287 . S
C521 C520 1.287 . S
C521 C522 1.524 . S
C521 H524 0.999 . S
C522 H492 0.950 . S
C522 C521 1.524 . S
C522 C523 1.415 . S
C523 H493 0.950 . S
C523 C518 1.363 . S
C523 C522 1.415 . S
H524 C521 0.999 . S
H525 C506 0.913 . S
H526 C544 0.951 . S
H527 C546 0.951 . S
H528 C548 0.950 . S
H529 C549 0.950 . S
H530 C551 0.950 . S
H531 C554 0.950 . S
H532 C555 0.950 . S
H533 C557 0.950 . S
H534 C558 0.950 . S
H535 C559 0.951 . S
H536 C561 0.951 . S
H537 C563 0.950 . S
H538 C564 0.950 . S
H539 C566 0.950 . S
H540 C569 0.950 . S
H541 C570 0.950 . S
H542 C572 0.950 . S
H543 C573 0.950 . S
C544 H526 0.951 . S
C544 C545 1.366 . S
C544 C546 1.388 . S
C545 C544 1.366 . S
C545 C549 1.385 . S
C546 H527 0.951 . S
C546 C544 1.388 . S
C546 C547 1.366 . S
C547 C546 1.366 . S
C547 C548 1.414 . S
C547 C550 1.499 . S
C548 H528 0.950 . S
C548 C547 1.414 . S
C548 C549 1.374 . S
C549 H529 0.950 . S
C549 C545 1.385 . S
C549 C548 1.374 . S
C550 C547 1.499 . S
C550 C551 1.373 . S
C550 C552 1.389 . S
C551 H530 0.950 . S
C551 C550 1.373 . S
C551 C567 1.377 . S
C552 C550 1.389 . S
C552 C553 1.524 . S
C552 C566 1.377 . S
C553 C552 1.524 . S
C553 C554 1.397 . S
C553 C558 1.363 . S
C554 H531 0.950 . S
C554 C553 1.397 . S
C554 C555 1.334 . S
C555 H532 0.950 . S
C555 C554 1.334 . S
C555 C556 1.287 . S
C556 C555 1.287 . S
C556 C557 1.524 . S
C556 H575 0.913 . S
C557 H533 0.950 . S
C557 C556 1.524 . S
C557 C558 1.415 . S
C558 H534 0.950 . S
C558 C553 1.363 . S
C558 C557 1.415 . S
C559 H535 0.951 . S
C559 C560 1.366 . S
C559 C561 1.388 . S
C560 C559 1.366 . S
C560 C564 1.385 . S
C561 H536 0.951 . S
C561 C559 1.388 . S
C561 C562 1.366 . S
C562 C561 1.366 . S
C562 C563 1.414 . S
C562 C565 1.499 . S
C563 H537 0.950 . S
C563 C562 1.414 . S
C563 C564 1.374 . S
C564 H538 0.950 . S
C564 C560 1.385 . S
C564 C563 1.374 . S
C565 C562 1.499 . S
C565 C566 1.373 . S
C565 C567 1.389 . S
C566 H539 0.950 . S
C566 C552 1.377 . S
C566 C565 1.373 . S
C567 C551 1.377 . S
C567 C565 1.389 . S
C567 C568 1.524 . S
C568 C567 1.524 . S
C568 C569 1.397 . S
C568 C573 1.363 . S
C569 H540 0.950 . S
C569 C568 1.397 . S
C569 C570 1.334 . S
C570 H541 0.950 . S
C570 C569 1.334 . S
C570 C571 1.287 . S
C571 C570 1.287 . S
C571 C572 1.524 . S
C571 H574 0.999 . S
C572 H542 0.950 . S
C572 C571 1.524 . S
C572 C573 1.415 . S
C573 H543 0.950 . S
C573 C568 1.363 . S
C573 C572 1.415 . S
H574 C571 0.999 . S
H575 C556 0.913 . S
H576 C594 0.951 . S
H577 C596 0.951 . S
H578 C598 0.950 . S
H579 C599 0.950 . S
H580 C601 0.950 . S
H581 C604 0.950 . S
H582 C605 0.950 . S
H583 C607 0.950 . S
H584 C608 0.950 . S
H585 C609 0.951 . S
H586 C611 0.951 . S
H587 C613 0.950 . S
H588 C614 0.950 . S
H589 C616 0.950 . S
H590 C619 0.950 . S
H591 C620 0.950 . S
H592 C622 0.950 . S
H593 C623 0.950 . S
C594 H576 0.951 . S
C594 C595 1.366 . S
C594 C596 1.388 . S
C595 C594 1.366 . S
C595 C599 1.385 . S
C596 H577 0.951 . S
C596 C594 1.388 . S
C596 C597 1.366 . S
C597 C596 1.366 . S
C597 C598 1.414 . S
C597 C600 1.499 . S
C598 H578 0.950 . S
C598 C597 1.414 . S
C598 C599 1.374 . S
C599 H579 0.950 . S
C599 C595 1.385 . S
C599 C598 1.374 . S
C600 C597 1.499 . S
C600 C601 1.373 . S
C600 C602 1.389 . S
C601 H580 0.950 . S
C601 C600 1.373 . S
C601 C617 1.377 . S
C602 C600 1.389 . S
C602 C603 1.524 . S
C602 C616 1.377 . S
C603 C602 1.524 . S
C603 C604 1.397 . S
C603 C608 1.363 . S
C604 H581 0.950 . S
C604 C603 1.397 . S
C604 C605 1.334 1_556 S
C605 H582 0.950 . S
C605 C604 1.334 1_554 S
C605 C606 1.287 . S
C606 C605 1.287 . S
C606 C607 1.524 1_554 S
C606 H625 0.913 . S
C607 H583 0.950 . S
C607 C606 1.524 1_556 S
C607 C608 1.415 . S
C608 H584 0.950 . S
C608 C603 1.363 . S
C608 C607 1.415 . S
C609 H585 0.951 . S
C609 C610 1.366 . S
C609 C611 1.388 . S
C610 C609 1.366 . S
C610 C614 1.385 . S
C611 H586 0.951 . S
C611 C609 1.388 . S
C611 C612 1.366 . S
C612 C611 1.366 . S
C612 C613 1.414 . S
C612 C615 1.499 . S
C613 H587 0.950 . S
C613 C612 1.414 . S
C613 C614 1.374 . S
C614 H588 0.950 . S
C614 C610 1.385 . S
C614 C613 1.374 . S
C615 C612 1.499 . S
C615 C616 1.373 . S
C615 C617 1.389 . S
C616 H589 0.950 . S
C616 C602 1.377 . S
C616 C615 1.373 . S
C617 C601 1.377 . S
C617 C615 1.389 . S
C617 C618 1.524 . S
C618 C617 1.524 . S
C618 C619 1.397 . S
C618 C623 1.363 . S
C619 H590 0.950 . S
C619 C618 1.397 . S
C619 C620 1.334 . S
C620 H591 0.950 . S
C620 C619 1.334 . S
C620 C621 1.287 . S
C621 C620 1.287 . S
C621 C622 1.524 . S
C621 H624 0.999 . S
C622 H592 0.950 . S
C622 C621 1.524 . S
C622 C623 1.415 . S
C623 H593 0.950 . S
C623 C618 1.363 . S
C623 C622 1.415 . S
H624 C621 0.999 . S
H625 C606 0.913 . S
H626 C644 0.951 . S
H627 C646 0.951 . S
H628 C648 0.950 . S
H629 C649 0.950 . S
H630 C651 0.950 . S
H631 C654 0.950 . S
H632 C655 0.950 . S
H633 C657 0.950 . S
H634 C658 0.950 . S
H635 C659 0.951 . S
H636 C661 0.951 . S
H637 C663 0.950 . S
H638 C664 0.950 . S
H639 C666 0.950 . S
H640 C669 0.950 . S
H641 C670 0.950 . S
H642 C672 0.950 . S
H643 C673 0.950 . S
C644 H626 0.951 . S
C644 C645 1.366 . S
C644 C646 1.388 . S
C645 C644 1.366 . S
C645 C649 1.385 . S
C646 H627 0.951 . S
C646 C644 1.388 . S
C646 C647 1.366 . S
C647 C646 1.366 . S
C647 C648 1.414 . S
C647 C650 1.499 . S
C648 H628 0.950 . S
C648 C647 1.414 . S
C648 C649 1.374 . S
C649 H629 0.950 . S
C649 C645 1.385 . S
C649 C648 1.374 . S
C650 C647 1.499 . S
C650 C651 1.373 . S
C650 C652 1.389 . S
C651 H630 0.950 . S
C651 C650 1.373 . S
C651 C667 1.377 . S
C652 C650 1.389 . S
C652 C653 1.524 . S
C652 C666 1.377 . S
C653 C652 1.524 . S
C653 C654 1.397 . S
C653 C658 1.363 . S
C654 H631 0.950 . S
C654 C653 1.397 . S
C654 C655 1.334 . S
C655 H632 0.950 . S
C655 C654 1.334 . S
C655 C656 1.287 . S
C656 C655 1.287 . S
C656 C657 1.524 . S
C656 H675 0.913 . S
C657 H633 0.950 . S
C657 C656 1.524 . S
C657 C658 1.415 . S
C658 H634 0.950 . S
C658 C653 1.363 . S
C658 C657 1.415 . S
C659 H635 0.951 . S
C659 C660 1.366 . S
C659 C661 1.388 . S
C660 C659 1.366 . S
C660 C664 1.385 . S
C661 H636 0.951 . S
C661 C659 1.388 . S
C661 C662 1.366 . S
C662 C661 1.366 . S
C662 C663 1.414 . S
C662 C665 1.499 . S
C663 H637 0.950 . S
C663 C662 1.414 . S
C663 C664 1.374 . S
C664 H638 0.950 . S
C664 C660 1.385 . S
C664 C663 1.374 . S
C665 C662 1.499 . S
C665 C666 1.373 . S
C665 C667 1.389 . S
C666 H639 0.950 . S
C666 C652 1.377 . S
C666 C665 1.373 . S
C667 C651 1.377 . S
C667 C665 1.389 . S
C667 C668 1.524 . S
C668 C667 1.524 . S
C668 C669 1.397 . S
C668 C673 1.363 . S
C669 H640 0.950 . S
C669 C668 1.397 . S
C669 C670 1.334 . S
C670 H641 0.950 . S
C670 C669 1.334 . S
C670 C671 1.287 . S
C671 C670 1.287 . S
C671 C672 1.524 . S
C671 H674 0.999 . S
C672 H642 0.950 . S
C672 C671 1.524 . S
C672 C673 1.415 . S
C673 H643 0.950 . S
C673 C668 1.363 . S
C673 C672 1.415 . S
H674 C671 0.999 . S
H675 C656 0.913 . S
H676 C694 0.951 . S
H677 C696 0.951 . S
H678 C698 0.950 . S
H679 C699 0.950 . S
H680 C701 0.950 . S
H681 C704 0.950 . S
H682 C705 0.950 . S
H683 C707 0.950 . S
H684 C708 0.950 . S
H685 C709 0.951 . S
H686 C711 0.951 . S
H687 C713 0.950 . S
H688 C714 0.950 . S
H689 C716 0.950 . S
H690 C719 0.950 . S
H691 C720 0.950 . S
H692 C722 0.950 . S
H693 C723 0.950 . S
C694 H676 0.951 . S
C694 C695 1.366 . S
C694 C696 1.388 . S
C695 C694 1.366 . S
C695 C699 1.385 . S
C696 H677 0.951 . S
C696 C694 1.388 . S
C696 C697 1.366 . S
C697 C696 1.366 . S
C697 C698 1.414 . S
C697 C700 1.499 . S
C698 H678 0.950 . S
C698 C697 1.414 . S
C698 C699 1.374 . S
C699 H679 0.950 . S
C699 C695 1.385 . S
C699 C698 1.374 . S
C700 C697 1.499 . S
C700 C701 1.373 . S
C700 C702 1.389 . S
C701 H680 0.950 . S
C701 C700 1.373 . S
C701 C717 1.377 . S
C702 C700 1.389 . S
C702 C703 1.524 . S
C702 C716 1.377 . S
C703 C702 1.524 . S
C703 C704 1.397 . S
C703 C708 1.363 . S
C704 H681 0.950 . S
C704 C703 1.397 . S
C704 C705 1.334 . S
C705 H682 0.950 . S
C705 C704 1.334 . S
C705 C706 1.287 . S
C706 C705 1.287 . S
C706 C707 1.524 . S
C706 H725 0.913 . S
C707 H683 0.950 . S
C707 C706 1.524 . S
C707 C708 1.415 . S
C708 H684 0.950 . S
C708 C703 1.363 . S
C708 C707 1.415 . S
C709 H685 0.951 . S
C709 C710 1.366 . S
C709 C711 1.388 . S
C710 C709 1.366 . S
C710 C714 1.385 . S
C711 H686 0.951 . S
C711 C709 1.388 . S
C711 C712 1.366 . S
C712 C711 1.366 . S
C712 C713 1.414 . S
C712 C715 1.499 . S
C713 H687 0.950 . S
C713 C712 1.414 . S
C713 C714 1.374 . S
C714 H688 0.950 . S
C714 C710 1.385 . S
C714 C713 1.374 . S
C715 C712 1.499 . S
C715 C716 1.373 . S
C715 C717 1.389 . S
C716 H689 0.950 . S
C716 C702 1.377 . S
C716 C715 1.373 . S
C717 C701 1.377 . S
C717 C715 1.389 . S
C717 C718 1.524 . S
C718 C717 1.524 . S
C718 C719 1.397 . S
C718 C723 1.363 . S
C719 H690 0.950 . S
C719 C718 1.397 . S
C719 C720 1.334 . S
C720 H691 0.950 . S
C720 C719 1.334 . S
C720 C721 1.287 . S
C721 C720 1.287 . S
C721 C722 1.524 . S
C721 H724 0.999 . S
C722 H692 0.950 . S
C722 C721 1.524 . S
C722 C723 1.415 . S
C723 H693 0.950 . S
C723 C718 1.363 . S
C723 C722 1.415 . S
H724 C721 0.999 . S
H725 C706 0.913 . S
H726 C744 0.951 . S
H727 C746 0.951 . S
H728 C748 0.950 . S
H729 C749 0.950 . S
H730 C751 0.950 . S
H731 C754 0.950 . S
H732 C755 0.950 . S
H733 C757 0.950 . S
H734 C758 0.950 . S
H735 C759 0.951 . S
H736 C761 0.951 . S
H737 C763 0.950 . S
H738 C764 0.950 . S
H739 C766 0.950 . S
H740 C769 0.950 . S
H741 C770 0.950 . S
H742 C772 0.950 . S
H743 C773 0.950 . S
C744 H726 0.951 . S
C744 C745 1.366 . S
C744 C746 1.388 . S
C745 C744 1.366 . S
C745 C749 1.385 . S
C746 H727 0.951 . S
C746 C744 1.388 . S
C746 C747 1.366 . S
C747 C746 1.366 . S
C747 C748 1.414 . S
C747 C750 1.499 . S
C748 H728 0.950 . S
C748 C747 1.414 . S
C748 C749 1.374 . S
C749 H729 0.950 . S
C749 C745 1.385 . S
C749 C748 1.374 . S
C750 C747 1.499 . S
C750 C751 1.373 . S
C750 C752 1.389 . S
C751 H730 0.950 . S
C751 C750 1.373 . S
C751 C767 1.377 . S
C752 C750 1.389 . S
C752 C753 1.524 . S
C752 C766 1.377 . S
C753 C752 1.524 . S
C753 C754 1.397 . S
C753 C758 1.363 . S
C754 H731 0.950 . S
C754 C753 1.397 . S
C754 C755 1.334 . S
C755 H732 0.950 . S
C755 C754 1.334 . S
C755 C756 1.287 . S
C756 C755 1.287 . S
C756 C757 1.524 . S
C756 H775 0.913 . S
C757 H733 0.950 . S
C757 C756 1.524 . S
C757 C758 1.415 . S
C758 H734 0.950 . S
C758 C753 1.363 . S
C758 C757 1.415 . S
C759 H735 0.951 . S
C759 C760 1.366 . S
C759 C761 1.388 . S
C760 C759 1.366 . S
C760 C764 1.385 . S
C761 H736 0.951 . S
C761 C759 1.388 . S
C761 C762 1.366 . S
C762 C761 1.366 . S
C762 C763 1.414 . S
C762 C765 1.499 . S
C763 H737 0.950 . S
C763 C762 1.414 . S
C763 C764 1.374 . S
C764 H738 0.950 . S
C764 C760 1.385 . S
C764 C763 1.374 . S
C765 C762 1.499 . S
C765 C766 1.373 . S
C765 C767 1.389 . S
C766 H739 0.950 . S
C766 C752 1.377 . S
C766 C765 1.373 . S
C767 C751 1.377 . S
C767 C765 1.389 . S
C767 C768 1.524 . S
C768 C767 1.524 . S
C768 C769 1.397 . S
C768 C773 1.363 . S
C769 H740 0.950 . S
C769 C768 1.397 . S
C769 C770 1.334 . S
C770 H741 0.950 . S
C770 C769 1.334 . S
C770 C771 1.287 . S
C771 C770 1.287 . S
C771 C772 1.524 . S
C771 H774 0.999 . S
C772 H742 0.950 . S
C772 C771 1.524 . S
C772 C773 1.415 . S
C773 H743 0.950 . S
C773 C768 1.363 . S
C773 C772 1.415 . S
H774 C771 0.999 . S
H775 C756 0.913 . S
H776 C794 0.951 . S
H777 C796 0.951 . S
H778 C798 0.950 . S
H779 C799 0.950 . S
H780 C801 0.950 . S
H781 C804 0.944 1_545 S
H782 C805 0.950 1_545 S
H783 C807 0.950 . S
H784 C808 0.950 . S
H785 C809 0.951 . S
H786 C811 0.951 . S
H787 C813 0.950 . S
H788 C814 0.950 . S
H789 C816 0.950 . S
H790 C819 0.945 1_565 S
H791 C820 0.950 1_565 S
H792 C822 0.950 . S
H793 C823 0.950 . S
C794 H776 0.951 . S
C794 C795 1.366 . S
C794 C796 1.388 . S
C795 C794 1.366 . S
C795 C799 1.385 . S
C796 H777 0.951 . S
C796 C794 1.388 . S
C796 C797 1.366 . S
C797 C796 1.366 . S
C797 C798 1.414 . S
C797 C800 1.499 . S
C798 H778 0.950 . S
C798 C797 1.414 . S
C798 C799 1.374 . S
C799 H779 0.950 . S
C799 C795 1.385 . S
C799 C798 1.374 . S
C800 C797 1.499 . S
C800 C801 1.373 . S
C800 C802 1.389 . S
C801 H780 0.950 . S
C801 C800 1.373 . S
C801 C817 1.377 1_565 S
C802 C800 1.389 . S
C802 C803 1.524 . S
C802 C816 1.377 1_565 S
C803 C802 1.524 . S
C803 C804 1.402 . S
C803 C808 1.363 . S
C804 H781 0.944 1_565 S
C804 C803 1.402 . S
C804 C805 1.334 1_556 S
C805 H782 0.950 1_565 S
C805 C804 1.334 1_554 S
C805 C806 1.287 . S
C806 C805 1.287 . S
C806 C807 1.524 . S
C806 H825 0.913 . S
C807 H783 0.950 . S
C807 C806 1.524 . S
C807 C808 1.415 1_554 S
C808 H784 0.950 . S
C808 C803 1.363 . S
C808 C807 1.415 1_556 S
C809 H785 0.951 . S
C809 C810 1.366 . S
C809 C811 1.388 . S
C810 C809 1.366 . S
C810 C814 1.385 . S
C811 H786 0.951 . S
C811 C809 1.388 . S
C811 C812 1.366 . S
C812 C811 1.366 . S
C812 C813 1.414 . S
C812 C815 1.499 . S
C813 H787 0.950 . S
C813 C812 1.414 . S
C813 C814 1.374 . S
C814 H788 0.950 . S
C814 C810 1.385 . S
C814 C813 1.374 . S
C815 C812 1.499 . S
C815 C816 1.373 . S
C815 C817 1.389 . S
C816 H789 0.950 . S
C816 C802 1.377 1_545 S
C816 C815 1.373 . S
C817 C801 1.377 1_545 S
C817 C815 1.389 . S
C817 C818 1.524 . S
C818 C817 1.524 . S
C818 C819 1.402 . S
C818 C823 1.363 . S
C819 H790 0.945 1_545 S
C819 C818 1.402 . S
C819 C820 1.334 . S
C820 H791 0.950 1_545 S
C820 C819 1.334 . S
C820 C821 1.287 . S
C821 C820 1.287 . S
C821 C822 1.524 . S
C821 H824 0.999 . S
C822 H792 0.950 . S
C822 C821 1.524 . S
C822 C823 1.415 . S
C823 H793 0.950 . S
C823 C818 1.363 . S
C823 C822 1.415 . S
H824 C821 0.999 . S
H825 C806 0.913 . S
H826 C844 0.951 . S
H827 C846 0.951 . S
H828 C848 0.950 . S
H829 C849 0.950 . S
H830 C851 0.950 . S
H831 C854 0.950 . S
H832 C855 0.950 . S
H833 C857 0.950 . S
H834 C858 0.950 . S
H835 C859 0.951 . S
H836 C861 0.951 . S
H837 C863 0.950 . S
H838 C864 0.950 . S
H839 C866 0.951 . S
H840 C869 0.950 . S
H841 C870 0.950 . S
H842 C872 0.950 . S
H843 C873 0.950 . S
C844 H826 0.951 . S
C844 C845 1.366 . S
C844 C846 1.388 . S
C845 C844 1.366 . S
C845 C849 1.385 . S
C846 H827 0.951 . S
C846 C844 1.388 . S
C846 C847 1.366 . S
C847 C846 1.366 . S
C847 C848 1.414 . S
C847 C850 1.499 . S
C848 H828 0.950 . S
C848 C847 1.414 . S
C848 C849 1.374 . S
C849 H829 0.950 . S
C849 C845 1.385 . S
C849 C848 1.374 . S
C850 C847 1.499 . S
C850 C851 1.373 1_545 S
C850 C852 1.389 . S
C851 H830 0.950 . S
C851 C850 1.373 1_565 S
C851 C867 1.377 . S
C852 C850 1.389 . S
C852 C853 1.524 . S
C852 C866 1.378 . S
C853 C852 1.524 . S
C853 C854 1.397 . S
C853 C858 1.363 . S
C854 H831 0.950 . S
C854 C853 1.397 . S
C854 C855 1.334 . S
C855 H832 0.950 . S
C855 C854 1.334 . S
C855 C856 1.287 . S
C856 C855 1.287 . S
C856 C857 1.524 . S
C856 H875 0.913 . S
C857 H833 0.950 . S
C857 C856 1.524 . S
C857 C858 1.415 . S
C858 H834 0.950 . S
C858 C853 1.363 . S
C858 C857 1.415 . S
C859 H835 0.951 . S
C859 C860 1.366 . S
C859 C861 1.388 . S
C860 C859 1.366 . S
C860 C864 1.385 . S
C861 H836 0.951 . S
C861 C859 1.388 . S
C861 C862 1.366 . S
C862 C861 1.366 . S
C862 C863 1.414 . S
C862 C865 1.499 . S
C863 H837 0.950 . S
C863 C862 1.414 . S
C863 C864 1.374 . S
C864 H838 0.950 . S
C864 C860 1.385 . S
C864 C863 1.374 . S
C865 C862 1.499 . S
C865 C866 1.371 1_565 S
C865 C867 1.389 . S
C866 H839 0.951 . S
C866 C852 1.378 . S
C866 C865 1.371 1_545 S
C867 C851 1.377 . S
C867 C865 1.389 . S
C867 C868 1.524 . S
C868 C867 1.524 . S
C868 C869 1.397 . S
C868 C873 1.363 . S
C869 H840 0.950 . S
C869 C868 1.397 . S
C869 C870 1.334 . S
C870 H841 0.950 . S
C870 C869 1.334 . S
C870 C871 1.287 . S
C871 C870 1.287 . S
C871 C872 1.524 . S
C871 H874 0.999 . S
C872 H842 0.950 . S
C872 C871 1.524 . S
C872 C873 1.415 . S
C873 H843 0.950 . S
C873 C868 1.363 . S
C873 C872 1.415 . S
H874 C871 0.999 . S
H875 C856 0.913 . S
H876 C894 0.951 . S
H877 C896 0.951 . S
H878 C898 0.950 . S
H879 C899 0.950 1_554 S
H880 C901 0.950 . S
H881 C904 0.950 . S
H882 C905 0.950 . S
H883 C907 0.950 . S
H884 C908 0.950 . S
H885 C909 0.951 . S
H886 C911 0.951 . S
H887 C913 0.950 . S
H888 C914 0.950 . S
H889 C916 0.950 . S
H890 C919 0.950 1_565 S
H891 C920 0.943 1_565 S
H892 C922 0.944 1_554 S
H893 C923 0.950 . S
C894 H876 0.951 . S
C894 C895 1.366 . S
C894 C896 1.388 . S
C895 C894 1.366 . S
C895 C899 1.385 . S
C896 H877 0.951 . S
C896 C894 1.388 . S
C896 C897 1.366 . S
C897 C896 1.366 . S
C897 C898 1.414 . S
C897 C900 1.499 . S
C898 H878 0.950 . S
C898 C897 1.414 . S
C898 C899 1.374 . S
C899 H879 0.950 1_556 S
C899 C895 1.385 . S
C899 C898 1.374 . S
C900 C897 1.499 . S
C900 C901 1.373 . S
C900 C902 1.409 . S
C901 H880 0.950 . S
C901 C900 1.373 . S
C901 C917 1.377 1_565 S
C902 C900 1.409 . S
C902 C903 1.527 . S
C902 C916 1.352 1_565 S
C903 C902 1.527 . S
C903 C904 1.397 1_565 S
C903 C908 1.363 . S
C904 H881 0.950 . S
C904 C903 1.397 1_545 S
C904 C905 1.334 . S
C905 H882 0.950 . S
C905 C904 1.334 . S
C905 C906 1.279 1_545 S
C906 C905 1.279 1_565 S
C906 C907 1.536 . S
C906 H925 0.916 . S
C907 H883 0.950 . S
C907 C906 1.536 . S
C907 C908 1.415 . S
C908 H884 0.950 . S
C908 C903 1.363 . S
C908 C907 1.415 . S
C909 H885 0.951 . S
C909 C910 1.366 . S
C909 C911 1.388 . S
C910 C909 1.366 . S
C910 C914 1.385 . S
C911 H886 0.951 . S
C911 C909 1.388 . S
C911 C912 1.366 . S
C912 C911 1.366 . S
C912 C913 1.414 . S
C912 C915 1.499 . S
C913 H887 0.950 . S
C913 C912 1.414 . S
C913 C914 1.374 . S
C914 H888 0.950 . S
C914 C910 1.385 . S
C914 C913 1.374 . S
C915 C912 1.499 . S
C915 C916 1.373 . S
C915 C917 1.389 . S
C916 H889 0.950 . S
C916 C902 1.352 1_545 S
C916 C915 1.373 . S
C917 C901 1.377 1_545 S
C917 C915 1.389 . S
C917 C918 1.524 . S
C918 C917 1.524 . S
C918 C919 1.397 . S
C918 C923 1.363 . S
C919 H890 0.950 1_545 S
C919 C918 1.397 . S
C919 C920 1.334 . S
C920 H891 0.943 1_545 S
C920 C919 1.334 . S
C920 C921 1.287 . S
C921 C920 1.287 . S
C921 C922 1.524 . S
C921 H924 0.999 . S
C922 H892 0.944 1_556 S
C922 C921 1.524 . S
C922 C923 1.415 . S
C923 H893 0.950 . S
C923 C918 1.363 . S
C923 C922 1.415 . S
H924 C921 0.999 . S
H925 C906 0.916 . S
H926 C944 0.951 . S
H927 C946 0.951 . S
H928 C948 0.950 . S
H929 C949 0.950 . S
H930 C951 0.950 . S
H931 C954 0.950 . S
H932 C955 0.950 . S
H933 C957 0.950 . S
H934 C958 0.950 . S
H935 C959 0.951 . S
H936 C961 0.951 . S
H937 C963 0.950 . S
H938 C964 0.950 . S
H939 C966 0.950 . S
H940 C969 0.950 . S
H941 C970 0.950 . S
H942 C972 0.950 . S
H943 C973 0.950 . S
C944 H926 0.951 . S
C944 C945 1.366 . S
C944 C946 1.388 . S
C945 C944 1.366 . S
C945 C949 1.385 . S
C946 H927 0.951 . S
C946 C944 1.388 . S
C946 C947 1.366 . S
C947 C946 1.366 . S
C947 C948 1.414 . S
C947 C950 1.499 . S
C948 H928 0.950 . S
C948 C947 1.414 . S
C948 C949 1.374 . S
C949 H929 0.950 . S
C949 C945 1.385 . S
C949 C948 1.374 . S
C950 C947 1.499 . S
C950 C951 1.373 . S
C950 C952 1.389 1_545 S
C951 H930 0.950 . S
C951 C950 1.373 . S
C951 C967 1.377 . S
C952 C950 1.389 1_565 S
C952 C953 1.524 . S
C952 C966 1.377 . S
C953 C952 1.524 . S
C953 C954 1.397 . S
C953 C958 1.363 . S
C954 H931 0.950 . S
C954 C953 1.397 . S
C954 C955 1.334 . S
C955 H932 0.950 . S
C955 C954 1.334 . S
C955 C956 1.287 . S
C956 C955 1.287 . S
C956 C957 1.524 . S
C956 H975 0.913 . S
C957 H933 0.950 . S
C957 C956 1.524 . S
C957 C958 1.415 . S
C958 H934 0.950 . S
C958 C953 1.363 . S
C958 C957 1.415 . S
C959 H935 0.951 . S
C959 C960 1.366 . S
C959 C961 1.388 . S
C960 C959 1.366 . S
C960 C964 1.385 . S
C961 H936 0.951 . S
C961 C959 1.388 . S
C961 C962 1.366 . S
C962 C961 1.366 . S
C962 C963 1.414 . S
C962 C965 1.499 . S
C963 H937 0.950 . S
C963 C962 1.414 . S
C963 C964 1.374 . S
C964 H938 0.950 . S
C964 C960 1.385 . S
C964 C963 1.374 . S
C965 C962 1.499 . S
C965 C966 1.373 . S
C965 C967 1.389 1_565 S
C966 H939 0.950 . S
C966 C952 1.377 . S
C966 C965 1.373 . S
C967 C951 1.377 . S
C967 C965 1.389 1_545 S
C967 C968 1.524 . S
C968 C967 1.524 . S
C968 C969 1.397 . S
C968 C973 1.363 . S
C969 H940 0.950 . S
C969 C968 1.397 . S
C969 C970 1.334 . S
C970 H941 0.950 . S
C970 C969 1.334 . S
C970 C971 1.287 . S
C971 C970 1.287 . S
C971 C972 1.524 . S
C971 H974 0.999 . S
C972 H942 0.950 . S
C972 C971 1.524 . S
C972 C973 1.415 . S
C973 H943 0.950 . S
C973 C968 1.363 . S
C973 C972 1.415 . S
H974 C971 0.999 . S
H975 C956 0.913 . S
H976 C994 0.951 . S
H977 C996 0.951 . S
H978 C998 0.950 . S
H979 C999 0.950 . S
H980 C1001 0.950 . S
H981 C1004 0.950 . S
H982 C1005 0.950 . S
H983 C1007 0.950 . S
H984 C1008 0.950 . S
H985 C1009 0.951 . S
H986 C1011 0.951 . S
H987 C1013 0.950 . S
H988 C1014 0.950 . S
H989 C1016 0.950 . S
H990 C1019 0.950 . S
H991 C1020 0.950 . S
H992 C1022 0.950 . S
H993 C1023 0.950 . S
C994 H976 0.951 . S
C994 C995 1.366 . S
C994 C996 1.388 . S
C995 C994 1.366 . S
C995 C999 1.385 . S
C996 H977 0.951 . S
C996 C994 1.388 . S
C996 C997 1.366 . S
C997 C996 1.366 . S
C997 C998 1.414 . S
C997 C1000 1.499 . S
C998 H978 0.950 . S
C998 C997 1.414 . S
C998 C999 1.374 . S
C999 H979 0.950 . S
C999 C995 1.385 . S
C999 C998 1.374 . S
C1000 C997 1.499 . S
C1000 C1001 1.373 . S
C1000 C1002 1.389 . S
C1001 H980 0.950 . S
C1001 C1000 1.373 . S
C1001 C1017 1.377 . S
C1002 C1000 1.389 . S
C1002 C1003 1.524 . S
C1002 C1016 1.377 . S
C1003 C1002 1.524 . S
C1003 C1004 1.397 . S
C1003 C1008 1.363 . S
C1004 H981 0.950 . S
C1004 C1003 1.397 . S
C1004 C1005 1.334 . S
C1005 H982 0.950 . S
C1005 C1004 1.334 . S
C1005 C1006 1.287 . S
C1006 C1005 1.287 . S
C1006 C1007 1.524 . S
C1006 H1025 0.913 . S
C1007 H983 0.950 . S
C1007 C1006 1.524 . S
C1007 C1008 1.415 . S
C1008 H984 0.950 . S
C1008 C1003 1.363 . S
C1008 C1007 1.415 . S
C1009 H985 0.951 . S
C1009 C1010 1.366 . S
C1009 C1011 1.388 . S
C1010 C1009 1.366 . S
C1010 C1014 1.385 . S
C1011 H986 0.951 . S
C1011 C1009 1.388 . S
C1011 C1012 1.366 . S
C1012 C1011 1.366 . S
C1012 C1013 1.414 . S
C1012 C1015 1.499 . S
C1013 H987 0.950 . S
C1013 C1012 1.414 . S
C1013 C1014 1.374 . S
C1014 H988 0.950 . S
C1014 C1010 1.385 . S
C1014 C1013 1.374 . S
C1015 C1012 1.499 . S
C1015 C1016 1.373 . S
C1015 C1017 1.389 . S
C1016 H989 0.950 . S
C1016 C1002 1.377 . S
C1016 C1015 1.373 . S
C1017 C1001 1.377 . S
C1017 C1015 1.389 . S
C1017 C1018 1.524 . S
C1018 C1017 1.524 . S
C1018 C1019 1.397 . S
C1018 C1023 1.363 . S
C1019 H990 0.950 . S
C1019 C1018 1.397 . S
C1019 C1020 1.334 . S
C1020 H991 0.950 . S
C1020 C1019 1.334 . S
C1020 C1021 1.287 . S
C1021 C1020 1.287 . S
C1021 C1022 1.524 . S
C1021 H1024 0.999 . S
C1022 H992 0.950 . S
C1022 C1021 1.524 . S
C1022 C1023 1.415 . S
C1023 H993 0.950 . S
C1023 C1018 1.363 . S
C1023 C1022 1.415 . S
H1024 C1021 0.999 . S
H1025 C1006 0.913 . S
H1026 C1044 0.951 . S
H1027 C1046 0.951 . S
H1028 C1048 0.950 . S
H1029 C1049 0.950 . S
H1030 C1051 0.950 . S
H1031 C1054 0.950 . S
H1032 C1055 0.950 . S
H1033 C1057 0.950 . S
H1034 C1058 0.950 . S
H1035 C1059 0.951 . S
H1036 C1061 0.951 . S
H1037 C1063 0.950 . S
H1038 C1064 0.950 . S
H1039 C1066 0.950 . S
H1040 C1069 0.950 . S
H1041 C1070 0.950 . S
H1042 C1072 0.950 . S
H1043 C1073 0.950 . S
C1044 H1026 0.951 . S
C1044 C1045 1.366 . S
C1044 C1046 1.388 . S
C1045 C1044 1.366 . S
C1045 C1049 1.385 . S
C1046 H1027 0.951 . S
C1046 C1044 1.388 . S
C1046 C1047 1.366 . S
C1047 C1046 1.366 . S
C1047 C1048 1.414 . S
C1047 C1050 1.499 . S
C1048 H1028 0.950 . S
C1048 C1047 1.414 . S
C1048 C1049 1.374 . S
C1049 H1029 0.950 . S
C1049 C1045 1.385 . S
C1049 C1048 1.374 . S
C1050 C1047 1.499 . S
C1050 C1051 1.373 . S
C1050 C1052 1.389 . S
C1051 H1030 0.950 . S
C1051 C1050 1.373 . S
C1051 C1067 1.377 . S
C1052 C1050 1.389 . S
C1052 C1053 1.524 . S
C1052 C1066 1.377 . S
C1053 C1052 1.524 . S
C1053 C1054 1.397 . S
C1053 C1058 1.363 . S
C1054 H1031 0.950 . S
C1054 C1053 1.397 . S
C1054 C1055 1.334 . S
C1055 H1032 0.950 . S
C1055 C1054 1.334 . S
C1055 C1056 1.287 . S
C1056 C1055 1.287 . S
C1056 C1057 1.524 . S
C1056 H1075 0.913 . S
C1057 H1033 0.950 . S
C1057 C1056 1.524 . S
C1057 C1058 1.415 . S
C1058 H1034 0.950 . S
C1058 C1053 1.363 . S
C1058 C1057 1.415 . S
C1059 H1035 0.951 . S
C1059 C1060 1.366 . S
C1059 C1061 1.388 . S
C1060 C1059 1.366 . S
C1060 C1064 1.385 . S
C1061 H1036 0.951 . S
C1061 C1059 1.388 . S
C1061 C1062 1.366 . S
C1062 C1061 1.366 . S
C1062 C1063 1.414 . S
C1062 C1065 1.499 . S
C1063 H1037 0.950 . S
C1063 C1062 1.414 . S
C1063 C1064 1.374 . S
C1064 H1038 0.950 . S
C1064 C1060 1.385 . S
C1064 C1063 1.374 . S
C1065 C1062 1.499 . S
C1065 C1066 1.373 . S
C1065 C1067 1.389 . S
C1066 H1039 0.950 . S
C1066 C1052 1.377 . S
C1066 C1065 1.373 . S
C1067 C1051 1.377 . S
C1067 C1065 1.389 . S
C1067 C1068 1.524 . S
C1068 C1067 1.524 . S
C1068 C1069 1.397 . S
C1068 C1073 1.363 . S
C1069 H1040 0.950 . S
C1069 C1068 1.397 . S
C1069 C1070 1.334 . S
C1070 H1041 0.950 . S
C1070 C1069 1.334 . S
C1070 C1071 1.287 . S
C1071 C1070 1.287 . S
C1071 C1072 1.524 . S
C1071 H1074 0.999 . S
C1072 H1042 0.950 . S
C1072 C1071 1.524 . S
C1072 C1073 1.415 . S
C1073 H1043 0.950 . S
C1073 C1068 1.363 . S
C1073 C1072 1.415 . S
H1074 C1071 0.999 . S
H1075 C1056 0.913 . S
H1076 C1094 0.951 . S
H1077 C1096 0.951 . S
H1078 C1098 0.950 . S
H1079 C1099 0.950 . S
H1080 C1101 0.950 . S
H1081 C1104 0.950 . S
H1082 C1105 0.950 . S
H1083 C1107 0.950 . S
H1084 C1108 0.950 . S
H1085 C1109 0.951 . S
H1086 C1111 0.951 . S
H1087 C1113 0.950 . S
H1088 C1114 0.950 . S
H1089 C1116 0.950 . S
H1090 C1119 0.950 . S
H1091 C1120 0.950 . S
H1092 C1122 0.950 . S
H1093 C1123 0.950 . S
C1094 H1076 0.951 . S
C1094 C1095 1.366 . S
C1094 C1096 1.388 . S
C1095 C1094 1.366 . S
C1095 C1099 1.385 . S
C1096 H1077 0.951 . S
C1096 C1094 1.388 . S
C1096 C1097 1.366 . S
C1097 C1096 1.366 . S
C1097 C1098 1.414 . S
C1097 C1100 1.499 . S
C1098 H1078 0.950 . S
C1098 C1097 1.414 . S
C1098 C1099 1.374 . S
C1099 H1079 0.950 . S
C1099 C1095 1.385 . S
C1099 C1098 1.374 . S
C1100 C1097 1.499 . S
C1100 C1101 1.373 . S
C1100 C1102 1.389 . S
C1101 H1080 0.950 . S
C1101 C1100 1.373 . S
C1101 C1117 1.377 . S
C1102 C1100 1.389 . S
C1102 C1103 1.524 . S
C1102 C1116 1.377 . S
C1103 C1102 1.524 . S
C1103 C1104 1.397 . S
C1103 C1108 1.363 . S
C1104 H1081 0.950 . S
C1104 C1103 1.397 . S
C1104 C1105 1.334 . S
C1105 H1082 0.950 . S
C1105 C1104 1.334 . S
C1105 C1106 1.287 . S
C1106 C1105 1.287 . S
C1106 C1107 1.524 . S
C1106 H1125 0.913 . S
C1107 H1083 0.950 . S
C1107 C1106 1.524 . S
C1107 C1108 1.415 . S
C1108 H1084 0.950 . S
C1108 C1103 1.363 . S
C1108 C1107 1.415 . S
C1109 H1085 0.951 . S
C1109 C1110 1.366 . S
C1109 C1111 1.388 . S
C1110 C1109 1.366 . S
C1110 C1114 1.385 . S
C1111 H1086 0.951 . S
C1111 C1109 1.388 . S
C1111 C1112 1.366 . S
C1112 C1111 1.366 . S
C1112 C1113 1.414 . S
C1112 C1115 1.499 . S
C1113 H1087 0.950 . S
C1113 C1112 1.414 . S
C1113 C1114 1.374 . S
C1114 H1088 0.950 . S
C1114 C1110 1.385 . S
C1114 C1113 1.374 . S
C1115 C1112 1.499 . S
C1115 C1116 1.373 . S
C1115 C1117 1.389 . S
C1116 H1089 0.950 . S
C1116 C1102 1.377 . S
C1116 C1115 1.373 . S
C1117 C1101 1.377 . S
C1117 C1115 1.389 . S
C1117 C1118 1.524 . S
C1118 C1117 1.524 . S
C1118 C1119 1.397 . S
C1118 C1123 1.363 . S
C1119 H1090 0.950 . S
C1119 C1118 1.397 . S
C1119 C1120 1.334 . S
C1120 H1091 0.950 . S
C1120 C1119 1.334 . S
C1120 C1121 1.287 . S
C1121 C1120 1.287 . S
C1121 C1122 1.524 . S
C1121 H1124 0.999 . S
C1122 H1092 0.950 . S
C1122 C1121 1.524 . S
C1122 C1123 1.415 . S
C1123 H1093 0.950 . S
C1123 C1118 1.363 . S
C1123 C1122 1.415 . S
H1124 C1121 0.999 . S
H1125 C1106 0.913 . S
H1126 C1144 0.951 . S
H1127 C1146 0.951 . S
H1128 C1148 0.950 . S
H1129 C1149 0.950 . S
H1130 C1151 0.950 . S
H1131 C1154 0.950 . S
H1132 C1155 0.950 . S
H1133 C1157 0.950 . S
H1134 C1158 0.950 . S
H1135 C1159 0.951 . S
H1136 C1161 0.951 . S
H1137 C1163 0.950 . S
H1138 C1164 0.950 . S
H1139 C1166 0.950 . S
H1140 C1169 0.950 . S
H1141 C1170 0.950 . S
H1142 C1172 0.950 . S
H1143 C1173 0.950 . S
C1144 H1126 0.951 . S
C1144 C1145 1.366 . S
C1144 C1146 1.388 . S
C1145 C1144 1.366 . S
C1145 C1149 1.385 . S
C1146 H1127 0.951 . S
C1146 C1144 1.388 . S
C1146 C1147 1.366 . S
C1147 C1146 1.366 . S
C1147 C1148 1.414 . S
C1147 C1150 1.499 . S
C1148 H1128 0.950 . S
C1148 C1147 1.414 . S
C1148 C1149 1.374 . S
C1149 H1129 0.950 . S
C1149 C1145 1.385 . S
C1149 C1148 1.374 . S
C1150 C1147 1.499 . S
C1150 C1151 1.373 . S
C1150 C1152 1.389 . S
C1151 H1130 0.950 . S
C1151 C1150 1.373 . S
C1151 C1167 1.377 . S
C1152 C1150 1.389 . S
C1152 C1153 1.524 . S
C1152 C1166 1.377 . S
C1153 C1152 1.524 . S
C1153 C1154 1.397 . S
C1153 C1158 1.363 . S
C1154 H1131 0.950 . S
C1154 C1153 1.397 . S
C1154 C1155 1.334 . S
C1155 H1132 0.950 . S
C1155 C1154 1.334 . S
C1155 C1156 1.287 . S
C1156 C1155 1.287 . S
C1156 C1157 1.524 . S
C1156 H1175 0.913 . S
C1157 H1133 0.950 . S
C1157 C1156 1.524 . S
C1157 C1158 1.415 . S
C1158 H1134 0.950 . S
C1158 C1153 1.363 . S
C1158 C1157 1.415 . S
C1159 H1135 0.951 . S
C1159 C1160 1.366 . S
C1159 C1161 1.388 . S
C1160 C1159 1.366 . S
C1160 C1164 1.385 . S
C1161 H1136 0.951 . S
C1161 C1159 1.388 . S
C1161 C1162 1.366 . S
C1162 C1161 1.366 . S
C1162 C1163 1.414 . S
C1162 C1165 1.499 . S
C1163 H1137 0.950 . S
C1163 C1162 1.414 . S
C1163 C1164 1.374 . S
C1164 H1138 0.950 . S
C1164 C1160 1.385 . S
C1164 C1163 1.374 . S
C1165 C1162 1.499 . S
C1165 C1166 1.373 . S
C1165 C1167 1.389 . S
C1166 H1139 0.950 . S
C1166 C1152 1.377 . S
C1166 C1165 1.373 . S
C1167 C1151 1.377 . S
C1167 C1165 1.389 . S
C1167 C1168 1.524 . S
C1168 C1167 1.524 . S
C1168 C1169 1.397 . S
C1168 C1173 1.363 . S
C1169 H1140 0.950 . S
C1169 C1168 1.397 . S
C1169 C1170 1.334 . S
C1170 H1141 0.950 . S
C1170 C1169 1.334 . S
C1170 C1171 1.287 . S
C1171 C1170 1.287 . S
C1171 C1172 1.524 . S
C1171 H1174 0.999 . S
C1172 H1142 0.950 . S
C1172 C1171 1.524 . S
C1172 C1173 1.415 . S
C1173 H1143 0.950 . S
C1173 C1168 1.363 . S
C1173 C1172 1.415 . S
H1174 C1171 0.999 . S
H1175 C1156 0.913 . S
H1176 C1194 0.951 . S
H1177 C1196 0.951 . S
H1178 C1198 0.950 . S
H1179 C1199 0.950 . S
H1180 C1201 0.950 . S
H1181 C1204 0.950 . S
H1182 C1205 0.950 . S
H1183 C1207 0.950 . S
H1184 C1208 0.950 . S
H1185 C1209 0.951 . S
H1186 C1211 0.951 . S
H1187 C1213 0.950 . S
H1188 C1214 0.950 . S
H1189 C1216 0.950 . S
H1190 C1219 0.950 . S
H1191 C1220 0.950 . S
H1192 C1222 0.950 . S
H1193 C1223 0.950 . S
C1194 H1176 0.951 . S
C1194 C1195 1.366 . S
C1194 C1196 1.388 . S
C1195 C1194 1.366 . S
C1195 C1199 1.385 . S
C1196 H1177 0.951 . S
C1196 C1194 1.388 . S
C1196 C1197 1.366 . S
C1197 C1196 1.366 . S
C1197 C1198 1.414 . S
C1197 C1200 1.499 . S
C1198 H1178 0.950 . S
C1198 C1197 1.414 . S
C1198 C1199 1.374 . S
C1199 H1179 0.950 . S
C1199 C1195 1.385 . S
C1199 C1198 1.374 . S
C1200 C1197 1.499 . S
C1200 C1201 1.373 . S
C1200 C1202 1.389 . S
C1201 H1180 0.950 . S
C1201 C1200 1.373 . S
C1201 C1217 1.377 . S
C1202 C1200 1.389 . S
C1202 C1203 1.524 . S
C1202 C1216 1.377 . S
C1203 C1202 1.524 . S
C1203 C1204 1.397 . S
C1203 C1208 1.363 . S
C1204 H1181 0.950 . S
C1204 C1203 1.397 . S
C1204 C1205 1.334 . S
C1205 H1182 0.950 . S
C1205 C1204 1.334 . S
C1205 C1206 1.287 . S
C1206 C1205 1.287 . S
C1206 C1207 1.524 . S
C1206 H1225 0.913 . S
C1207 H1183 0.950 . S
C1207 C1206 1.524 . S
C1207 C1208 1.415 . S
C1208 H1184 0.950 . S
C1208 C1203 1.363 . S
C1208 C1207 1.415 . S
C1209 H1185 0.951 . S
C1209 C1210 1.366 . S
C1209 C1211 1.388 . S
C1210 C1209 1.366 . S
C1210 C1214 1.385 . S
C1211 H1186 0.951 . S
C1211 C1209 1.388 . S
C1211 C1212 1.366 . S
C1212 C1211 1.366 . S
C1212 C1213 1.414 . S
C1212 C1215 1.499 . S
C1213 H1187 0.950 . S
C1213 C1212 1.414 . S
C1213 C1214 1.374 . S
C1214 H1188 0.950 . S
C1214 C1210 1.385 . S
C1214 C1213 1.374 . S
C1215 C1212 1.499 . S
C1215 C1216 1.373 . S
C1215 C1217 1.389 . S
C1216 H1189 0.950 . S
C1216 C1202 1.377 . S
C1216 C1215 1.373 . S
C1217 C1201 1.377 . S
C1217 C1215 1.389 . S
C1217 C1218 1.524 . S
C1218 C1217 1.524 . S
C1218 C1219 1.397 . S
C1218 C1223 1.363 . S
C1219 H1190 0.950 . S
C1219 C1218 1.397 . S
C1219 C1220 1.334 . S
C1220 H1191 0.950 . S
C1220 C1219 1.334 . S
C1220 C1221 1.287 . S
C1221 C1220 1.287 . S
C1221 C1222 1.524 . S
C1221 H1224 0.999 . S
C1222 H1192 0.950 . S
C1222 C1221 1.524 . S
C1222 C1223 1.415 . S
C1223 H1193 0.950 . S
C1223 C1218 1.363 . S
C1223 C1222 1.415 . S
H1224 C1221 0.999 . S
H1225 C1206 0.913 . S
H1226 C1244 0.951 . S
H1227 C1246 0.951 . S
H1228 C1248 0.950 . S
H1229 C1249 0.950 . S
H1230 C1251 0.950 . S
H1231 C1254 0.950 . S
H1232 C1255 0.950 . S
H1233 C1257 0.950 . S
H1234 C1258 0.950 . S
H1235 C1259 0.951 . S
H1236 C1261 0.951 . S
H1237 C1263 0.950 . S
H1238 C1264 0.950 . S
H1239 C1266 0.950 . S
H1240 C1269 0.950 . S
H1241 C1270 0.950 . S
H1242 C1272 0.950 . S
H1243 C1273 0.950 . S
C1244 H1226 0.951 . S
C1244 C1245 1.366 . S
C1244 C1246 1.388 . S
C1245 C1244 1.366 . S
C1245 C1249 1.385 . S
C1246 H1227 0.951 . S
C1246 C1244 1.388 . S
C1246 C1247 1.366 . S
C1247 C1246 1.366 . S
C1247 C1248 1.414 . S
C1247 C1250 1.499 . S
C1248 H1228 0.950 . S
C1248 C1247 1.414 . S
C1248 C1249 1.374 . S
C1249 H1229 0.950 . S
C1249 C1245 1.385 . S
C1249 C1248 1.374 . S
C1250 C1247 1.499 . S
C1250 C1251 1.373 . S
C1250 C1252 1.389 . S
C1251 H1230 0.950 . S
C1251 C1250 1.373 . S
C1251 C1267 1.377 . S
C1252 C1250 1.389 . S
C1252 C1253 1.524 . S
C1252 C1266 1.377 . S
C1253 C1252 1.524 . S
C1253 C1254 1.397 . S
C1253 C1258 1.363 . S
C1254 H1231 0.950 . S
C1254 C1253 1.397 . S
C1254 C1255 1.334 . S
C1255 H1232 0.950 . S
C1255 C1254 1.334 . S
C1255 C1256 1.287 . S
C1256 C1255 1.287 . S
C1256 C1257 1.524 . S
C1256 H1275 0.913 . S
C1257 H1233 0.950 . S
C1257 C1256 1.524 . S
C1257 C1258 1.415 . S
C1258 H1234 0.950 . S
C1258 C1253 1.363 . S
C1258 C1257 1.415 . S
C1259 H1235 0.951 . S
C1259 C1260 1.366 . S
C1259 C1261 1.388 . S
C1260 C1259 1.366 . S
C1260 C1264 1.385 . S
C1261 H1236 0.951 . S
C1261 C1259 1.388 . S
C1261 C1262 1.366 . S
C1262 C1261 1.366 . S
C1262 C1263 1.414 . S
C1262 C1265 1.499 . S
C1263 H1237 0.950 . S
C1263 C1262 1.414 . S
C1263 C1264 1.374 . S
C1264 H1238 0.950 . S
C1264 C1260 1.385 . S
C1264 C1263 1.374 . S
C1265 C1262 1.499 . S
C1265 C1266 1.373 . S
C1265 C1267 1.389 . S
C1266 H1239 0.950 . S
C1266 C1252 1.377 . S
C1266 C1265 1.373 . S
C1267 C1251 1.377 . S
C1267 C1265 1.389 . S
C1267 C1268 1.524 . S
C1268 C1267 1.524 . S
C1268 C1269 1.397 . S
C1268 C1273 1.363 . S
C1269 H1240 0.950 . S
C1269 C1268 1.397 . S
C1269 C1270 1.334 . S
C1270 H1241 0.950 . S
C1270 C1269 1.334 . S
C1270 C1271 1.287 . S
C1271 C1270 1.287 . S
C1271 C1272 1.524 . S
C1271 H1274 0.999 . S
C1272 H1242 0.950 . S
C1272 C1271 1.524 . S
C1272 C1273 1.415 . S
C1273 H1243 0.950 . S
C1273 C1268 1.363 . S
C1273 C1272 1.415 . S
H1274 C1271 0.999 . S
H1275 C1256 0.913 . S
H1276 C1294 0.951 . S
H1277 C1296 0.951 . S
H1278 C1298 0.950 . S
H1279 C1299 0.950 . S
H1280 C1301 0.950 . S
H1281 C1304 0.950 . S
H1282 C1305 0.950 . S
H1283 C1307 0.950 . S
H1284 C1308 0.950 . S
H1285 C1309 0.951 . S
H1286 C1311 0.951 . S
H1287 C1313 0.950 . S
H1288 C1314 0.950 . S
H1289 C1316 0.950 . S
H1290 C1319 0.950 . S
H1291 C1320 0.950 . S
H1292 C1322 0.950 . S
H1293 C1323 0.950 . S
C1294 H1276 0.951 . S
C1294 C1295 1.366 . S
C1294 C1296 1.388 . S
C1295 C1294 1.366 . S
C1295 C1299 1.385 . S
C1296 H1277 0.951 . S
C1296 C1294 1.388 . S
C1296 C1297 1.366 . S
C1297 C1296 1.366 . S
C1297 C1298 1.414 . S
C1297 C1300 1.499 . S
C1298 H1278 0.950 . S
C1298 C1297 1.414 . S
C1298 C1299 1.374 . S
C1299 H1279 0.950 . S
C1299 C1295 1.385 . S
C1299 C1298 1.374 . S
C1300 C1297 1.499 . S
C1300 C1301 1.373 . S
C1300 C1302 1.389 . S
C1301 H1280 0.950 . S
C1301 C1300 1.373 . S
C1301 C1317 1.377 . S
C1302 C1300 1.389 . S
C1302 C1303 1.524 . S
C1302 C1316 1.377 . S
C1303 C1302 1.524 . S
C1303 C1304 1.397 . S
C1303 C1308 1.363 . S
C1304 H1281 0.950 . S
C1304 C1303 1.397 . S
C1304 C1305 1.334 . S
C1305 H1282 0.950 . S
C1305 C1304 1.334 . S
C1305 C1306 1.287 . S
C1306 C1305 1.287 . S
C1306 C1307 1.524 . S
C1306 H1325 0.913 . S
C1307 H1283 0.950 . S
C1307 C1306 1.524 . S
C1307 C1308 1.415 . S
C1308 H1284 0.950 . S
C1308 C1303 1.363 . S
C1308 C1307 1.415 . S
C1309 H1285 0.951 . S
C1309 C1310 1.366 . S
C1309 C1311 1.388 . S
C1310 C1309 1.366 . S
C1310 C1314 1.385 . S
C1311 H1286 0.951 . S
C1311 C1309 1.388 . S
C1311 C1312 1.366 . S
C1312 C1311 1.366 . S
C1312 C1313 1.414 . S
C1312 C1315 1.499 . S
C1313 H1287 0.950 . S
C1313 C1312 1.414 . S
C1313 C1314 1.374 . S
C1314 H1288 0.950 . S
C1314 C1310 1.385 . S
C1314 C1313 1.374 . S
C1315 C1312 1.499 . S
C1315 C1316 1.373 . S
C1315 C1317 1.389 . S
C1316 H1289 0.950 . S
C1316 C1302 1.377 . S
C1316 C1315 1.373 . S
C1317 C1301 1.377 . S
C1317 C1315 1.389 . S
C1317 C1318 1.524 . S
C1318 C1317 1.524 . S
C1318 C1319 1.397 . S
C1318 C1323 1.363 . S
C1319 H1290 0.950 . S
C1319 C1318 1.397 . S
C1319 C1320 1.334 . S
C1320 H1291 0.950 . S
C1320 C1319 1.334 . S
C1320 C1321 1.287 . S
C1321 C1320 1.287 . S
C1321 C1322 1.524 . S
C1321 H1324 0.999 . S
C1322 H1292 0.950 . S
C1322 C1321 1.524 . S
C1322 C1323 1.415 . S
C1323 H1293 0.950 . S
C1323 C1318 1.363 . S
C1323 C1322 1.415 . S
H1324 C1321 0.999 . S
H1325 C1306 0.913 . S
H1326 C1344 0.951 . S
H1327 C1346 0.951 . S
H1328 C1348 0.950 . S
H1329 C1349 0.950 . S
H1330 C1351 0.950 . S
H1331 C1354 0.950 . S
H1332 C1355 0.950 . S
H1333 C1357 0.950 . S
H1334 C1358 0.950 . S
H1335 C1359 0.951 . S
H1336 C1361 0.951 . S
H1337 C1363 0.950 . S
H1338 C1364 0.950 . S
H1339 C1366 0.950 . S
H1340 C1369 0.950 . S
H1341 C1370 0.950 . S
H1342 C1372 0.950 . S
H1343 C1373 0.950 . S
C1344 H1326 0.951 . S
C1344 C1345 1.366 . S
C1344 C1346 1.388 . S
C1345 C1344 1.366 . S
C1345 C1349 1.385 . S
C1346 H1327 0.951 . S
C1346 C1344 1.388 . S
C1346 C1347 1.366 . S
C1347 C1346 1.366 . S
C1347 C1348 1.414 . S
C1347 C1350 1.499 . S
C1348 H1328 0.950 . S
C1348 C1347 1.414 . S
C1348 C1349 1.374 . S
C1349 H1329 0.950 . S
C1349 C1345 1.385 . S
C1349 C1348 1.374 . S
C1350 C1347 1.499 . S
C1350 C1351 1.373 . S
C1350 C1352 1.389 . S
C1351 H1330 0.950 . S
C1351 C1350 1.373 . S
C1351 C1367 1.377 . S
C1352 C1350 1.389 . S
C1352 C1353 1.524 . S
C1352 C1366 1.377 . S
C1353 C1352 1.524 . S
C1353 C1354 1.397 . S
C1353 C1358 1.363 . S
C1354 H1331 0.950 . S
C1354 C1353 1.397 . S
C1354 C1355 1.334 . S
C1355 H1332 0.950 . S
C1355 C1354 1.334 . S
C1355 C1356 1.287 . S
C1356 C1355 1.287 . S
C1356 C1357 1.524 . S
C1356 H1375 0.913 . S
C1357 H1333 0.950 . S
C1357 C1356 1.524 . S
C1357 C1358 1.415 . S
C1358 H1334 0.950 . S
C1358 C1353 1.363 . S
C1358 C1357 1.415 . S
C1359 H1335 0.951 . S
C1359 C1360 1.366 . S
C1359 C1361 1.388 . S
C1360 C1359 1.366 . S
C1360 C1364 1.385 . S
C1361 H1336 0.951 . S
C1361 C1359 1.388 . S
C1361 C1362 1.366 . S
C1362 C1361 1.366 . S
C1362 C1363 1.414 . S
C1362 C1365 1.499 . S
C1363 H1337 0.950 . S
C1363 C1362 1.414 . S
C1363 C1364 1.374 . S
C1364 H1338 0.950 . S
C1364 C1360 1.385 . S
C1364 C1363 1.374 . S
C1365 C1362 1.499 . S
C1365 C1366 1.373 . S
C1365 C1367 1.389 . S
C1366 H1339 0.950 . S
C1366 C1352 1.377 . S
C1366 C1365 1.373 . S
C1367 C1351 1.377 . S
C1367 C1365 1.389 . S
C1367 C1368 1.524 . S
C1368 C1367 1.524 . S
C1368 C1369 1.397 . S
C1368 C1373 1.363 . S
C1369 H1340 0.950 . S
C1369 C1368 1.397 . S
C1369 C1370 1.334 . S
C1370 H1341 0.950 . S
C1370 C1369 1.334 . S
C1370 C1371 1.287 . S
C1371 C1370 1.287 . S
C1371 C1372 1.524 . S
C1371 H1374 0.999 . S
C1372 H1342 0.950 . S
C1372 C1371 1.524 . S
C1372 C1373 1.415 . S
C1373 H1343 0.950 . S
C1373 C1368 1.363 . S
C1373 C1372 1.415 . S
H1374 C1371 0.999 . S
H1375 C1356 0.913 . S
C195 C8 1.733 . S
C210 C131 1.746 . S
C260 C95 1.402 . S
C245 C19 1.418 . S
C310 C118 1.539 . S
C295 C30 1.543 . S
C360 C106 1.543 . S
C345 C41 1.546 . S
C410 C175 1.745 . S
C395 C52 1.733 . S
C460 C139 1.401 . S
C445 C63 1.418 . S
C495 C74 1.543 . S
C510 C162 1.539 . S
C560 C150 1.543 . S
C545 C85 1.546 . S
C595 C7 1.648 . S
C610 C172 1.711 . S
C660 C142 1.304 . S
C645 C16 1.190 . S
C695 C29 1.585 . S
C710 C161 1.587 . S
C745 C40 1.527 . S
C760 C147 1.527 . S
C810 C128 1.711 . S
C795 C51 1.647 . S
C845 C60 1.188 . S
C860 C98 1.304 . S
C910 C117 1.587 . S
C895 C73 1.586 . S
C960 C103 1.527 . S
C945 C84 1.527 . S
C1010 C153 1.517 . S
C995 C5 1.266 . S
C1060 C169 1.487 . S
C1045 C18 1.487 . S
C1095 C27 1.351 . S
C1110 C140 1.483 . S
C1160 C164 1.446 . S
C1145 C38 1.317 . S
C1210 C109 1.518 . S
C1195 C49 1.264 . S
C1245 C62 1.487 . S
C1260 C125 1.487 . S
C1295 C71 1.349 . S
C1310 C96 1.483 . S
C1345 C82 1.315 . S
C1360 C120 1.446 . S
