# Generated by pormake.
# Topology iac, (4,6)-cn, num edge types: 1
# Building blocks:
#     Node 0, Type 0, BuildingBlock: QUQFOY_clean_sbu_3, # of connection points: 4
#     Node 1, Type 0, BuildingBlock: QUQFOY_clean_sbu_3, # of connection points: 4
#     Node 2, Type 0, BuildingBlock: QUQFOY_clean_sbu_3, # of connection points: 4
#     Node 3, Type 0, BuildingBlock: QUQFOY_clean_sbu_3, # of connection points: 4
#     Node 4, Type 0, BuildingBlock: QUQFOY_clean_sbu_3, # of connection points: 4
#     Node 5, Type 0, BuildingBlock: QUQFOY_clean_sbu_3, # of connection points: 4
#     Node 6, Type 0, BuildingBlock: QUQFOY_clean_sbu_3, # of connection points: 4
#     Node 7, Type 0, BuildingBlock: QUQFOY_clean_sbu_3, # of connection points: 4
#     Node 8, Type 0, BuildingBlock: QUQFOY_clean_sbu_3, # of connection points: 4
#     Node 9, Type 0, BuildingBlock: QUQFOY_clean_sbu_3, # of connection points: 4
#     Node 10, Type 0, BuildingBlock: QUQFOY_clean_sbu_3, # of connection points: 4
#     Node 11, Type 0, BuildingBlock: QUQFOY_clean_sbu_3, # of connection points: 4
#     Node 12, Type 0, BuildingBlock: QUQFOY_clean_sbu_3, # of connection points: 4
#     Node 13, Type 0, BuildingBlock: QUQFOY_clean_sbu_3, # of connection points: 4
#     Node 14, Type 0, BuildingBlock: QUQFOY_clean_sbu_3, # of connection points: 4
#     Node 15, Type 0, BuildingBlock: QUQFOY_clean_sbu_3, # of connection points: 4
#     Node 16, Type 0, BuildingBlock: QUQFOY_clean_sbu_3, # of connection points: 4
#     Node 17, Type 0, BuildingBlock: QUQFOY_clean_sbu_3, # of connection points: 4
#     Node 18, Type 0, BuildingBlock: QUQFOY_clean_sbu_3, # of connection points: 4
#     Node 19, Type 0, BuildingBlock: QUQFOY_clean_sbu_3, # of connection points: 4
#     Node 20, Type 0, BuildingBlock: QUQFOY_clean_sbu_3, # of connection points: 4
#     Node 21, Type 0, BuildingBlock: QUQFOY_clean_sbu_3, # of connection points: 4
#     Node 22, Type 0, BuildingBlock: QUQFOY_clean_sbu_3, # of connection points: 4
#     Node 23, Type 0, BuildingBlock: QUQFOY_clean_sbu_3, # of connection points: 4
#     Node 24, Type 1, BuildingBlock: VOLQOD_clean_sbu_1, # of connection points: 6
#     Node 25, Type 1, BuildingBlock: VOLQOD_clean_sbu_1, # of connection points: 6
#     Node 26, Type 1, BuildingBlock: VOLQOD_clean_sbu_1, # of connection points: 6
#     Node 27, Type 1, BuildingBlock: VOLQOD_clean_sbu_1, # of connection points: 6
#     Node 28, Type 1, BuildingBlock: VOLQOD_clean_sbu_1, # of connection points: 6
#     Node 29, Type 1, BuildingBlock: VOLQOD_clean_sbu_1, # of connection points: 6
#     Node 30, Type 1, BuildingBlock: VOLQOD_clean_sbu_1, # of connection points: 6
#     Node 31, Type 1, BuildingBlock: VOLQOD_clean_sbu_1, # of connection points: 6
#     Node 32, Type 1, BuildingBlock: VOLQOD_clean_sbu_1, # of connection points: 6
#     Node 33, Type 1, BuildingBlock: VOLQOD_clean_sbu_1, # of connection points: 6
#     Node 34, Type 1, BuildingBlock: VOLQOD_clean_sbu_1, # of connection points: 6
#     Node 35, Type 1, BuildingBlock: VOLQOD_clean_sbu_1, # of connection points: 6
#     Node 36, Type 1, BuildingBlock: VOLQOD_clean_sbu_1, # of connection points: 6
#     Node 37, Type 1, BuildingBlock: VOLQOD_clean_sbu_1, # of connection points: 6
#     Node 38, Type 1, BuildingBlock: VOLQOD_clean_sbu_1, # of connection points: 6
#     Node 39, Type 1, BuildingBlock: VOLQOD_clean_sbu_1, # of connection points: 6
#     Edge 40, Type (0, 1), BuildingBlock: XUDNAN_clean_linker_2, # of connection points: 2
#     Edge 41, Type (0, 1), BuildingBlock: XUDNAN_clean_linker_2, # of connection points: 2
#     Edge 42, Type (0, 1), BuildingBlock: XUDNAN_clean_linker_2, # of connection points: 2
#     Edge 43, Type (0, 1), BuildingBlock: XUDNAN_clean_linker_2, # of connection points: 2
#     Edge 44, Type (0, 1), BuildingBlock: XUDNAN_clean_linker_2, # of connection points: 2
#     Edge 45, Type (0, 1), BuildingBlock: XUDNAN_clean_linker_2, # of connection points: 2
#     Edge 46, Type (0, 1), BuildingBlock: XUDNAN_clean_linker_2, # of connection points: 2
#     Edge 47, Type (0, 1), BuildingBlock: XUDNAN_clean_linker_2, # of connection points: 2
#     Edge 48, Type (0, 1), BuildingBlock: XUDNAN_clean_linker_2, # of connection points: 2
#     Edge 49, Type (0, 1), BuildingBlock: XUDNAN_clean_linker_2, # of connection points: 2
#     Edge 50, Type (0, 1), BuildingBlock: XUDNAN_clean_linker_2, # of connection points: 2
#     Edge 51, Type (0, 1), BuildingBlock: XUDNAN_clean_linker_2, # of connection points: 2
#     Edge 52, Type (0, 1), BuildingBlock: XUDNAN_clean_linker_2, # of connection points: 2
#     Edge 53, Type (0, 1), BuildingBlock: XUDNAN_clean_linker_2, # of connection points: 2
#     Edge 54, Type (0, 1), BuildingBlock: XUDNAN_clean_linker_2, # of connection points: 2
#     Edge 55, Type (0, 1), BuildingBlock: XUDNAN_clean_linker_2, # of connection points: 2
#     Edge 56, Type (0, 1), BuildingBlock: XUDNAN_clean_linker_2, # of connection points: 2
#     Edge 57, Type (0, 1), BuildingBlock: XUDNAN_clean_linker_2, # of connection points: 2
#     Edge 58, Type (0, 1), BuildingBlock: XUDNAN_clean_linker_2, # of connection points: 2
#     Edge 59, Type (0, 1), BuildingBlock: XUDNAN_clean_linker_2, # of connection points: 2
#     Edge 60, Type (0, 1), BuildingBlock: XUDNAN_clean_linker_2, # of connection points: 2
#     Edge 61, Type (0, 1), BuildingBlock: XUDNAN_clean_linker_2, # of connection points: 2
#     Edge 62, Type (0, 1), BuildingBlock: XUDNAN_clean_linker_2, # of connection points: 2
#     Edge 63, Type (0, 1), BuildingBlock: XUDNAN_clean_linker_2, # of connection points: 2
#     Edge 64, Type (0, 1), BuildingBlock: XUDNAN_clean_linker_2, # of connection points: 2
#     Edge 65, Type (0, 1), BuildingBlock: XUDNAN_clean_linker_2, # of connection points: 2
#     Edge 66, Type (0, 1), BuildingBlock: XUDNAN_clean_linker_2, # of connection points: 2
#     Edge 67, Type (0, 1), BuildingBlock: XUDNAN_clean_linker_2, # of connection points: 2
#     Edge 68, Type (0, 1), BuildingBlock: XUDNAN_clean_linker_2, # of connection points: 2
#     Edge 69, Type (0, 1), BuildingBlock: XUDNAN_clean_linker_2, # of connection points: 2
#     Edge 70, Type (0, 1), BuildingBlock: XUDNAN_clean_linker_2, # of connection points: 2
#     Edge 71, Type (0, 1), BuildingBlock: XUDNAN_clean_linker_2, # of connection points: 2
#     Edge 72, Type (0, 1), BuildingBlock: XUDNAN_clean_linker_2, # of connection points: 2
#     Edge 73, Type (0, 1), BuildingBlock: XUDNAN_clean_linker_2, # of connection points: 2
#     Edge 74, Type (0, 1), BuildingBlock: XUDNAN_clean_linker_2, # of connection points: 2
#     Edge 75, Type (0, 1), BuildingBlock: XUDNAN_clean_linker_2, # of connection points: 2
#     Edge 76, Type (0, 1), BuildingBlock: XUDNAN_clean_linker_2, # of connection points: 2
#     Edge 77, Type (0, 1), BuildingBlock: XUDNAN_clean_linker_2, # of connection points: 2
#     Edge 78, Type (0, 1), BuildingBlock: XUDNAN_clean_linker_2, # of connection points: 2
#     Edge 79, Type (0, 1), BuildingBlock: XUDNAN_clean_linker_2, # of connection points: 2
#     Edge 80, Type (0, 1), BuildingBlock: XUDNAN_clean_linker_2, # of connection points: 2
#     Edge 81, Type (0, 1), BuildingBlock: XUDNAN_clean_linker_2, # of connection points: 2
#     Edge 82, Type (0, 1), BuildingBlock: XUDNAN_clean_linker_2, # of connection points: 2
#     Edge 83, Type (0, 1), BuildingBlock: XUDNAN_clean_linker_2, # of connection points: 2
#     Edge 84, Type (0, 1), BuildingBlock: XUDNAN_clean_linker_2, # of connection points: 2
#     Edge 85, Type (0, 1), BuildingBlock: XUDNAN_clean_linker_2, # of connection points: 2
#     Edge 86, Type (0, 1), BuildingBlock: XUDNAN_clean_linker_2, # of connection points: 2
#     Edge 87, Type (0, 1), BuildingBlock: XUDNAN_clean_linker_2, # of connection points: 2
#     Edge 88, Type (0, 1), BuildingBlock: XUDNAN_clean_linker_2, # of connection points: 2
#     Edge 89, Type (0, 1), BuildingBlock: XUDNAN_clean_linker_2, # of connection points: 2
#     Edge 90, Type (0, 1), BuildingBlock: XUDNAN_clean_linker_2, # of connection points: 2
#     Edge 91, Type (0, 1), BuildingBlock: XUDNAN_clean_linker_2, # of connection points: 2
#     Edge 92, Type (0, 1), BuildingBlock: XUDNAN_clean_linker_2, # of connection points: 2
#     Edge 93, Type (0, 1), BuildingBlock: XUDNAN_clean_linker_2, # of connection points: 2
#     Edge 94, Type (0, 1), BuildingBlock: XUDNAN_clean_linker_2, # of connection points: 2
#     Edge 95, Type (0, 1), BuildingBlock: XUDNAN_clean_linker_2, # of connection points: 2
#     Edge 96, Type (0, 1), BuildingBlock: XUDNAN_clean_linker_2, # of connection points: 2
#     Edge 97, Type (0, 1), BuildingBlock: XUDNAN_clean_linker_2, # of connection points: 2
#     Edge 98, Type (0, 1), BuildingBlock: XUDNAN_clean_linker_2, # of connection points: 2
#     Edge 99, Type (0, 1), BuildingBlock: XUDNAN_clean_linker_2, # of connection points: 2
#     Edge 100, Type (0, 1), BuildingBlock: XUDNAN_clean_linker_2, # of connection points: 2
#     Edge 101, Type (0, 1), BuildingBlock: XUDNAN_clean_linker_2, # of connection points: 2
#     Edge 102, Type (0, 1), BuildingBlock: XUDNAN_clean_linker_2, # of connection points: 2
#     Edge 103, Type (0, 1), BuildingBlock: XUDNAN_clean_linker_2, # of connection points: 2
#     Edge 104, Type (0, 1), BuildingBlock: XUDNAN_clean_linker_2, # of connection points: 2
#     Edge 105, Type (0, 1), BuildingBlock: XUDNAN_clean_linker_2, # of connection points: 2
#     Edge 106, Type (0, 1), BuildingBlock: XUDNAN_clean_linker_2, # of connection points: 2
#     Edge 107, Type (0, 1), BuildingBlock: XUDNAN_clean_linker_2, # of connection points: 2
#     Edge 108, Type (0, 1), BuildingBlock: XUDNAN_clean_linker_2, # of connection points: 2
#     Edge 109, Type (0, 1), BuildingBlock: XUDNAN_clean_linker_2, # of connection points: 2
#     Edge 110, Type (0, 1), BuildingBlock: XUDNAN_clean_linker_2, # of connection points: 2
#     Edge 111, Type (0, 1), BuildingBlock: XUDNAN_clean_linker_2, # of connection points: 2
#     Edge 112, Type (0, 1), BuildingBlock: XUDNAN_clean_linker_2, # of connection points: 2
#     Edge 113, Type (0, 1), BuildingBlock: XUDNAN_clean_linker_2, # of connection points: 2
#     Edge 114, Type (0, 1), BuildingBlock: XUDNAN_clean_linker_2, # of connection points: 2
#     Edge 115, Type (0, 1), BuildingBlock: XUDNAN_clean_linker_2, # of connection points: 2
#     Edge 116, Type (0, 1), BuildingBlock: XUDNAN_clean_linker_2, # of connection points: 2
#     Edge 117, Type (0, 1), BuildingBlock: XUDNAN_clean_linker_2, # of connection points: 2
#     Edge 118, Type (0, 1), BuildingBlock: XUDNAN_clean_linker_2, # of connection points: 2
#     Edge 119, Type (0, 1), BuildingBlock: XUDNAN_clean_linker_2, # of connection points: 2
#     Edge 120, Type (0, 1), BuildingBlock: XUDNAN_clean_linker_2, # of connection points: 2
#     Edge 121, Type (0, 1), BuildingBlock: XUDNAN_clean_linker_2, # of connection points: 2
#     Edge 122, Type (0, 1), BuildingBlock: XUDNAN_clean_linker_2, # of connection points: 2
#     Edge 123, Type (0, 1), BuildingBlock: XUDNAN_clean_linker_2, # of connection points: 2
#     Edge 124, Type (0, 1), BuildingBlock: XUDNAN_clean_linker_2, # of connection points: 2
#     Edge 125, Type (0, 1), BuildingBlock: XUDNAN_clean_linker_2, # of connection points: 2
#     Edge 126, Type (0, 1), BuildingBlock: XUDNAN_clean_linker_2, # of connection points: 2
#     Edge 127, Type (0, 1), BuildingBlock: XUDNAN_clean_linker_2, # of connection points: 2
#     Edge 128, Type (0, 1), BuildingBlock: XUDNAN_clean_linker_2, # of connection points: 2
#     Edge 129, Type (0, 1), BuildingBlock: XUDNAN_clean_linker_2, # of connection points: 2
#     Edge 130, Type (0, 1), BuildingBlock: XUDNAN_clean_linker_2, # of connection points: 2
#     Edge 131, Type (0, 1), BuildingBlock: XUDNAN_clean_linker_2, # of connection points: 2
#     Edge 132, Type (0, 1), BuildingBlock: XUDNAN_clean_linker_2, # of connection points: 2
#     Edge 133, Type (0, 1), BuildingBlock: XUDNAN_clean_linker_2, # of connection points: 2
#     Edge 134, Type (0, 1), BuildingBlock: XUDNAN_clean_linker_2, # of connection points: 2
#     Edge 135, Type (0, 1), BuildingBlock: XUDNAN_clean_linker_2, # of connection points: 2
# Relax obj value: 0.303
# Max RMSD: 0.292
# Mean RMSD: 0.139
data_MOF--net-iac--node1-QUQFOY_clean_sbu_3--node2-VOLQOD_clean_sbu_1--edge1-XUDNAN_clean_linker_2
_symmetry_space_group_name_H-M    P1
_symmetry_Int_Tables_number       1
_symmetry_cell_setting            triclinic
loop_
_symmetry_equiv_pos_as_xyz
'x, y, z'
_cell_length_a     54.911521
_cell_length_b     55.978568
_cell_length_c     55.318963
_cell_angle_alpha  90.980529
_cell_angle_beta   90.099419
_cell_angle_gamma 90.751476
loop_
_atom_site_label
_atom_site_type_symbol
_atom_site_fract_x
_atom_site_fract_y
_atom_site_fract_z
_atom_type_partial_charge
C0 C 0.98233 0.19348 0.13361 0.0
O1 O -0.00207 0.17737 0.12952 0.0
Cd2 Cd 0.03673 0.18429 0.11088 0.0
O3 O 0.98619 0.21485 0.1268 0.0
Cd4 Cd 0.01877 0.23252 0.10163 0.0
C5 C 0.01216 0.1904 0.05719 0.0
O6 O 0.0525 0.22161 0.12753 0.0
O7 O 0.06251 0.23695 0.09343 0.0
O8 O 0.01024 0.27361 0.1155 0.0
C9 C 0.06844 0.23215 0.11495 0.0
O10 O 0.02838 0.17841 0.06777 0.0
C11 C 0.00983 0.28168 0.09415 0.0
O12 O 0.00453 0.20958 0.06686 0.0
O13 O 0.01195 0.26663 0.07692 0.0
C14 C 0.9904 0.7525 0.35693 0.0
O15 O 0.00334 0.77146 0.35834 0.0
Cd16 Cd 0.03472 0.77661 0.38775 0.0
O17 O -0.00685 0.73532 0.37152 0.0
Cd18 Cd 0.01689 0.72174 0.40684 0.0
C19 C -0.00332 0.77012 0.4377 0.0
O20 O 0.05058 0.73749 0.38598 0.0
O21 O 0.06092 0.71843 0.41773 0.0
O22 O 0.00248 0.68435 0.38844 0.0
C23 C 0.06737 0.73042 0.39956 0.0
O24 O 0.00875 0.78249 0.42267 0.0
C25 C 0.00471 0.6723 0.40752 0.0
O26 O -0.00332 0.74739 0.43684 0.0
O27 O 0.01217 0.68338 0.4264 0.0
C28 C 0.45301 0.78199 0.67454 0.0
O29 O 0.46935 0.77754 0.69004 0.0
Cd30 Cd 0.51007 0.77185 0.67908 0.0
O31 O 0.45862 0.78862 0.65324 0.0
Cd32 Cd 0.49558 0.79977 0.62913 0.0
C33 C 0.49369 0.74051 0.62565 0.0
O34 O 0.52021 0.80885 0.66281 0.0
O35 O 0.54118 0.80078 0.63105 0.0
O36 O 0.48176 0.84002 0.62649 0.0
C37 C 0.54085 0.80785 0.65299 0.0
O38 O 0.5005 0.74212 0.64766 0.0
C39 C 0.48563 0.84226 0.60404 0.0
O40 O 0.49106 0.75909 0.61293 0.0
O41 O 0.49232 0.82375 0.59225 0.0
C42 C 0.49319 0.27855 0.86241 0.0
O43 O 0.50658 0.29681 0.85879 0.0
Cd44 Cd 0.55014 0.29373 0.8561 0.0
O45 O 0.50249 0.25895 0.86898 0.0
Cd46 Cd 0.54447 0.25073 0.88193 0.0
C47 C 0.5592 0.30164 0.91244 0.0
O48 O 0.55638 0.25409 0.83983 0.0
O49 O 0.58493 0.2438 0.8641 0.0
O50 O 0.52991 0.21014 0.88931 0.0
C51 C 0.57722 0.24531 0.84259 0.0
O52 O 0.56924 0.30867 0.89318 0.0
C53 C 0.54449 0.20688 0.90681 0.0
O54 O 0.54622 0.28276 0.91212 0.0
O55 O 0.55834 0.22424 0.91295 0.0
C56 C 0.0707 0.02578 0.3141 0.0
O57 O 0.06238 0.04651 0.31067 0.0
Cd58 Cd 0.06597 0.06717 0.2734 0.0
O59 O 0.0841 0.01559 0.29829 0.0
Cd60 Cd 0.10237 0.02658 0.25875 0.0
C61 C 0.12581 0.08175 0.27407 0.0
O62 O 0.06139 0.03514 0.24414 0.0
O63 O 0.0899 0.03718 0.21758 0.0
O64 O 0.11089 0.98357 0.25717 0.0
C65 C 0.06737 0.03795 0.22232 0.0
O66 O 0.10415 0.08948 0.27425 0.0
C67 C 0.13058 0.98577 0.24535 0.0
O68 O 0.12979 0.05965 0.27056 0.0
O69 O 0.13692 0.00679 0.23966 0.0
C70 C 0.23879 0.95358 0.53076 0.0
O71 O 0.21853 0.9583 0.52098 0.0
Cd72 Cd 0.18625 0.93016 0.51715 0.0
O73 O 0.24175 0.93412 0.5421 0.0
Cd74 Cd 0.21642 0.89879 0.55414 0.0
C75 C 0.2221 0.88398 0.49543 0.0
O76 O 0.17836 0.91873 0.55734 0.0
O77 O 0.17499 0.88052 0.5535 0.0
O78 O 0.2282 0.90266 0.5965 0.0
C79 C 0.16481 0.90034 0.55782 0.0
O80 O 0.20588 0.89965 0.492 0.0
C81 C 0.23174 0.88048 0.59921 0.0
O82 O 0.23001 0.87996 0.5166 0.0
O83 O 0.23044 0.86725 0.58034 0.0
C84 C 0.45706 0.95973 0.77136 0.0
O85 O 0.46131 0.9408 0.75928 0.0
Cd86 Cd 0.4322 0.9304 0.72812 0.0
O87 O 0.43826 0.97195 0.76716 0.0
Cd88 Cd 0.40275 0.97371 0.74102 0.0
C89 C 0.38167 0.92238 0.7632 0.0
O90 O 0.42447 0.96539 0.7037 0.0
O91 O 0.38509 0.9649 0.70183 0.0
O92 O 0.41157 0.01605 0.74268 0.0
C93 C 0.4053 0.96746 0.69104 0.0
O94 O 0.39836 0.91287 0.75052 0.0
C95 C 0.38981 0.02268 0.74584 0.0
O96 O 0.37926 0.94492 0.76385 0.0
O97 O 0.37372 0.00631 0.74779 0.0
C98 C 0.25248 0.09877 0.01855 0.0
O99 O 0.24023 0.08815 0.03468 0.0
Cd100 Cd 0.19953 0.10046 0.04415 0.0
O101 O 0.24291 0.11519 0.00619 0.0
Cd102 Cd 0.20433 0.13638 0.00141 0.0
C103 C 0.2123 0.15897 0.05787 0.0
O104 O 0.17761 0.10152 0.00619 0.0
O105 O 0.16028 0.13589 0.00339 0.0
O106 O 0.21319 0.13851 0.95813 0.0
C107 C 0.1582 0.11335 0.00414 0.0
O108 O 0.20673 0.1384 0.06579 0.0
C109 C 0.20956 0.16085 0.95709 0.0
O110 O 0.213 0.16267 0.03532 0.0
O111 O 0.20351 0.17146 0.97658 0.0
C112 C 0.77398 0.39518 0.99241 0.0
O113 O 0.76268 0.41378 0.98617 0.0
Cd114 Cd 0.72029 0.42084 0.98516 0.0
O115 O 0.76279 0.37677 0.00031 0.0
Cd116 Cd 0.71939 0.36622 0.00911 0.0
C117 C 0.70385 0.37255 0.9496 0.0
O118 O 0.71178 0.4055 0.02393 0.0
O119 O 0.68063 0.38209 0.02597 0.0
O120 O 0.72966 0.34385 0.04474 0.0
C121 C 0.68991 0.40262 0.03016 0.0
O122 O 0.70751 0.39501 0.95132 0.0
C123 C 0.72063 0.32419 0.0369 0.0
O124 O 0.70671 0.35907 0.96761 0.0
O125 O 0.71146 0.32391 0.01583 0.0
C126 C 0.88985 0.43916 0.26509 0.0
O127 O 0.90145 0.43259 0.24633 0.0
Cd128 Cd 0.89212 0.44406 0.20604 0.0
O129 O 0.87215 0.45363 0.26359 0.0
Cd130 Cd 0.85039 0.47504 0.23114 0.0
C131 C 0.83376 0.42184 0.20593 0.0
O132 O 0.88625 0.48623 0.20817 0.0
O133 O 0.85164 0.49169 0.19068 0.0
O134 O 0.84573 0.51168 0.25479 0.0
C135 C 0.87452 0.49495 0.19077 0.0
O136 O 0.85545 0.4204 0.198 0.0
C137 C 0.82293 0.51312 0.25127 0.0
O138 O 0.8273 0.43952 0.21904 0.0
O139 O 0.81259 0.4957 0.2402 0.0
C140 C 0.77552 0.58682 0.54386 0.0
O141 O 0.76175 0.58725 0.56226 0.0
Cd142 Cd 0.73231 0.61671 0.57043 0.0
O143 O 0.77401 0.60282 0.52774 0.0
Cd144 Cd 0.74857 0.63878 0.52044 0.0
C145 C 0.76945 0.66632 0.57114 0.0
O146 O 0.71144 0.61941 0.5328 0.0
O147 O 0.70795 0.65696 0.52592 0.0
O148 O 0.74611 0.62896 0.47741 0.0
C149 C 0.69767 0.63709 0.53015 0.0
O150 O 0.75657 0.65134 0.58266 0.0
C151 C 0.75259 0.64953 0.47038 0.0
O152 O 0.77042 0.66585 0.54819 0.0
O153 O 0.75872 0.66473 0.48665 0.0
C154 C 0.62575 0.52779 0.7979 0.0
O155 O 0.61457 0.54571 0.78981 0.0
Cd156 Cd 0.6158 0.55906 0.7496 0.0
O157 O 0.64115 0.51641 0.78494 0.0
Cd158 Cd 0.65929 0.52077 0.7435 0.0
C159 C 0.67427 0.58032 0.75068 0.0
O160 O 0.61795 0.52085 0.73031 0.0
O161 O 0.64325 0.52197 0.70088 0.0
O162 O 0.69537 0.49961 0.72809 0.0
C163 C 0.62133 0.5201 0.70783 0.0
O164 O 0.65161 0.58444 0.74932 0.0
C165 C 0.689 0.47946 0.73634 0.0
O166 O 0.68201 0.55896 0.7499 0.0
O167 O 0.66949 0.47886 0.7486 0.0
C168 C 0.97086 0.79132 0.8799 0.0
O169 O -0.00912 0.80288 0.87919 0.0
Cd170 Cd 0.02603 0.78979 0.90086 0.0
O171 O 0.96874 0.77262 0.89254 0.0
Cd172 Cd -0.00762 0.7474 0.91951 0.0
C173 C 0.00366 0.79213 0.95896 0.0
O174 O 0.02833 0.74747 0.89517 0.0
O175 O 0.03368 0.73562 0.93164 0.0
O176 O 0.97263 0.71336 0.90002 0.0
C177 C 0.04227 0.73841 0.91061 0.0
O178 O 0.01871 0.79971 0.94325 0.0
C179 C 0.96564 0.70361 0.91937 0.0
O180 O 0.98979 0.77422 0.95435 0.0
O181 O 0.97069 0.71457 0.93909 0.0
C182 C 0.98526 0.21961 0.6983 0.0
O183 O -0.00329 0.20191 0.70651 0.0
Cd184 Cd 0.02882 0.18393 0.68249 0.0
O185 O 0.99075 0.22806 0.67783 0.0
Cd186 Cd 0.01832 0.22461 0.64355 0.0
C187 C -0.00048 0.16831 0.62952 0.0
O188 O 0.0534 0.2171 0.66897 0.0
O189 O 0.05994 0.21645 0.63048 0.0
O190 O 0.01077 0.26718 0.64317 0.0
C191 C 0.06831 0.21435 0.65171 0.0
O192 O 0.01064 0.16116 0.64824 0.0
C193 C 0.00637 0.26791 0.62066 0.0
O194 O -0.00166 0.19042 0.62494 0.0
O195 O 0.00922 0.24875 0.60843 0.0
C196 C 0.48642 0.30127 0.31662 0.0
O197 O 0.50454 0.31038 0.30572 0.0
Cd198 Cd 0.54377 0.31275 0.3257 0.0
O199 O 0.48878 0.29282 0.33766 0.0
Cd200 Cd 0.51865 0.2849 0.36912 0.0
C201 C 0.53256 0.34339 0.37857 0.0
O202 O 0.54865 0.27276 0.33991 0.0
O203 O 0.56061 0.27138 0.37703 0.0
O204 O 0.49428 0.24912 0.37343 0.0
C205 C 0.56518 0.26761 0.35483 0.0
O206 O 0.54351 0.34323 0.35829 0.0
C207 C 0.491 0.25141 0.39603 0.0
O208 O 0.52106 0.32503 0.38582 0.0
O209 O 0.50107 0.26934 0.40653 0.0
C210 C 0.47117 0.76897 0.16884 0.0
O211 O 0.48147 0.75176 0.17931 0.0
Cd212 Cd 0.51872 0.73498 0.16268 0.0
O213 O 0.47978 0.77695 0.14922 0.0
Cd214 Cd 0.5127 0.77195 0.12019 0.0
C215 C 0.50632 0.71261 0.10654 0.0
O216 O 0.5437 0.76918 0.15142 0.0
O217 O 0.5563 0.77083 0.11438 0.0
O218 O 0.50735 0.81357 0.11056 0.0
C219 C 0.56137 0.76894 0.13664 0.0
O220 O 0.51095 0.70738 0.12835 0.0
C221 C 0.49982 0.80931 0.08916 0.0
O222 O 0.50521 0.7342 0.10013 0.0
O223 O 0.49992 0.78773 0.08177 0.0
C224 C 0.92232 0.98581 0.78968 0.0
O225 O 0.93303 0.9804 0.77002 0.0
Cd226 Cd 0.92896 0.00083 0.73186 0.0
O227 O 0.90876 0.00402 0.79163 0.0
Cd228 Cd 0.8927 0.03706 0.76827 0.0
C229 C 0.86668 -0.00353 0.72765 0.0
O230 O 0.92633 0.04195 0.74143 0.0
O231 O 0.89708 0.06613 0.73607 0.0
O232 O 0.89345 0.06715 0.80094 0.0
C233 C 0.91601 0.05649 0.72751 0.0
O234 O 0.88757 0.9912 0.71921 0.0
C235 C 0.87053 0.07028 0.80017 0.0
O236 O 0.8643 0.01091 0.7456 0.0
O237 O 0.85832 0.05703 0.78557 0.0
C238 C 0.74788 0.07502 0.48545 0.0
O239 O 0.73242 0.06906 0.50143 0.0
Cd240 Cd 0.70445 0.09762 0.51793 0.0
O241 O 0.74975 0.09659 0.47857 0.0
Cd242 Cd 0.73511 0.13816 0.48186 0.0
C243 C 0.74414 0.14089 0.5428 0.0
O244 O 0.69713 0.11877 0.48188 0.0
O245 O 0.69417 0.15606 0.47416 0.0
O246 O 0.76065 0.13275 0.44722 0.0
C247 C 0.68349 0.13636 0.47851 0.0
O248 O 0.72976 0.12296 0.54482 0.0
C249 C 0.76376 0.1547 0.44274 0.0
O250 O 0.74876 0.15004 0.52237 0.0
O251 O 0.7528 0.16967 0.45628 0.0
C252 C 0.55338 0.97349 0.27823 0.0
O253 O 0.5441 0.98434 0.2605 0.0
Cd254 Cd 0.55589 0.98281 0.21884 0.0
O255 O 0.57263 0.96117 0.27581 0.0
Cd256 Cd 0.60256 0.95209 0.24351 0.0
C257 C 0.61225 0.00927 0.22484 0.0
O258 O 0.57126 0.94394 0.21422 0.0
O259 O 0.60726 0.94121 0.20015 0.0
O260 O 0.61567 0.91711 0.26636 0.0
C261 C 0.58466 0.94223 0.19578 0.0
O262 O 0.59153 0.00873 0.2144 0.0
C263 C 0.63824 0.92158 0.26345 0.0
O264 O 0.61891 0.99258 0.23869 0.0
O265 O 0.64386 0.93985 0.25131 0.0
C266 C 0.71973 0.92101 0.03601 0.0
O267 O 0.69943 0.93106 0.03258 0.0
Cd268 Cd 0.66393 0.90701 0.02481 0.0
O269 O 0.72106 0.89829 0.03678 0.0
Cd270 Cd 0.69978 0.85893 0.03593 0.0
C271 C 0.68637 0.87076 0.97759 0.0
O272 O 0.66705 0.87779 0.05536 0.0
O273 O 0.65908 0.8412 0.04632 0.0
O274 O 0.73266 0.8541 0.06408 0.0
C275 C 0.65148 0.86101 0.05462 0.0
O276 O 0.67367 0.8882 0.98539 0.0
C277 C 0.7357 0.83197 0.06012 0.0
O278 O 0.69785 0.8574 0.99203 0.0
O279 O 0.72128 0.8216 0.04516 0.0
C280 C 0.29621 0.55916 0.04959 0.0
O281 O 0.28439 0.553 0.06823 0.0
Cd282 Cd 0.24905 0.57675 0.07951 0.0
O283 O 0.29003 0.57762 0.03819 0.0
Cd284 Cd 0.26036 0.60945 0.0382 0.0
C285 C 0.26585 0.6333 0.09495 0.0
O286 O 0.22484 0.58271 0.04322 0.0
O287 O 0.21803 0.62054 0.03947 0.0
O288 O 0.26205 0.61087 -0.00582 0.0
C289 C 0.2096 0.59941 0.0408 0.0
O290 O 0.25733 0.61372 0.10293 0.0
C291 C 0.2734 0.63072 -0.00651 0.0
O292 O 0.27008 0.63547 0.07252 0.0
O293 O 0.27826 0.64095 0.0136 0.0
C294 C 0.07904 0.47929 0.76693 0.0
O295 O 0.06554 0.49257 0.75438 0.0
Cd296 Cd 0.07367 0.50499 0.71373 0.0
O297 O 0.09959 0.47243 0.75903 0.0
Cd298 Cd 0.12522 0.47855 0.72316 0.0
C299 C 0.12487 0.53922 0.72342 0.0
O300 O 0.09324 0.47254 0.69405 0.0
O301 O 0.12744 0.48491 0.67947 0.0
O302 O 0.14052 0.43823 0.7231 0.0
C303 C 0.10548 0.47854 0.67571 0.0
O304 O 0.10307 0.53785 0.71559 0.0
C305 C 0.16223 0.44408 0.7287 0.0
O306 O 0.13626 0.52067 0.72987 0.0
O307 O 0.16692 0.46622 0.73166 0.0
C308 C 0.25357 0.43862 0.52233 0.0
O309 O 0.23309 0.44801 0.51803 0.0
Cd310 Cd 0.19598 0.42481 0.51162 0.0
O311 O 0.25542 0.41622 0.5252 0.0
Cd312 Cd 0.2329 0.37827 0.52773 0.0
C313 C 0.21545 0.38283 0.46895 0.0
O314 O 0.19628 0.39591 0.54224 0.0
O315 O 0.19393 0.35796 0.53679 0.0
O316 O 0.26147 0.3722 0.56042 0.0
C317 C 0.18281 0.3774 0.5404 0.0
O318 O 0.20181 0.4002 0.47507 0.0
C319 C 0.26659 0.35088 0.55431 0.0
O320 O 0.22969 0.37311 0.48406 0.0
O321 O 0.2556 0.34192 0.53596 0.0
C322 C 0.44164 0.52975 0.28388 0.0
O323 O 0.44927 0.51398 0.26907 0.0
Cd324 Cd 0.42706 0.50693 0.23169 0.0
O325 O 0.42231 0.5412 0.27983 0.0
Cd326 Cd 0.38806 0.54961 0.25401 0.0
C327 C 0.36976 0.49139 0.25374 0.0
O328 O 0.41287 0.54519 0.21986 0.0
O329 O 0.37599 0.55527 0.21182 0.0
O330 O 0.39588 0.58911 0.27014 0.0
C331 C 0.39649 0.54828 0.2041 0.0
O332 O 0.38991 0.48597 0.24374 0.0
C333 C 0.37406 0.59281 0.27655 0.0
O334 O 0.36481 0.51282 0.25992 0.0
O335 O 0.35837 0.57649 0.2717 0.0
O336 O 0.93827 0.04168 0.9838 0.0
Zn337 Zn 0.95543 0.01074 0.98668 0.0
O338 O 0.94906 -0.00487 0.01678 0.0
Zn339 Zn 0.98018 0.98694 0.03099 0.0
Zn340 Zn 0.93067 0.01679 0.0377 0.0
Zn341 Zn 0.93059 0.96615 0.01017 0.0
O342 O 0.98402 0.95128 0.03332 0.0
O343 O 0.94616 0.93843 0.02608 0.0
O344 O 0.99004 0.02067 0.98449 0.0
O345 O 0.00884 0.0024 0.01419 0.0
O346 O 0.98147 0.00062 0.06418 0.0
O347 O 0.94723 0.02055 0.07058 0.0
O348 O 0.89577 0.00503 0.04149 0.0
O349 O 0.94845 0.98935 0.95872 0.0
O350 O 0.89692 0.96948 0.02289 0.0
O351 O 0.929 0.95813 0.97416 0.0
C352 C 0.93279 0.05616 0.0008 0.0
C353 C 0.96793 0.93465 0.03281 0.0
C354 C 0.96797 0.01338 0.0777 0.0
C355 C 0.0093 0.01626 -0.00381 0.0
C356 C 0.88546 0.98549 0.03468 0.0
C357 C 0.93788 0.96914 0.95618 0.0
O358 O 0.93089 0.04935 0.02259 0.0
O359 O 0.25395 0.74909 0.24081 0.0
Zn360 Zn 0.25634 0.76043 0.27531 0.0
O361 O 0.26633 0.79392 0.27775 0.0
Zn362 Zn 0.2966 0.79688 0.29684 0.0
Zn363 Zn 0.27058 0.80698 0.24542 0.0
Zn364 Zn 0.24075 0.81121 0.29387 0.0
O365 O 0.29198 0.81665 0.32757 0.0
O366 O 0.25328 0.82696 0.32395 0.0
O367 O 0.28101 0.74011 0.29055 0.0
O368 O 0.30844 0.76474 0.30711 0.0
O369 O 0.32373 0.80943 0.27598 0.0
O370 O 0.30561 0.81667 0.24088 0.0
O371 O 0.24846 0.83531 0.2394 0.0
O372 O 0.22558 0.75336 0.29334 0.0
O373 O 0.22643 0.83598 0.27302 0.0
O374 O 0.21418 0.78955 0.30515 0.0
C375 C 0.25825 0.75912 0.22076 0.0
C376 C 0.27324 0.82734 0.33563 0.0
C377 C 0.32462 0.81612 0.25409 0.0
C378 C 0.3003 0.74373 0.30281 0.0
C379 C 0.23135 0.84406 0.25222 0.0
C380 C 0.21087 0.76705 0.30437 0.0
O381 O 0.2644 0.78115 0.21993 0.0
O382 O 0.46121 0.98951 0.50006 0.0
Zn383 Zn 0.44662 0.01303 0.47724 0.0
O384 O 0.45716 0.04523 0.48567 0.0
Zn385 Zn 0.43016 0.06376 0.49708 0.0
Zn386 Zn 0.48181 0.04409 0.51072 0.0
Zn387 Zn 0.46918 0.06159 0.45787 0.0
O388 O 0.43104 0.09713 0.48437 0.0
O389 O 0.44832 0.08926 0.44898 0.0
O390 O 0.40994 0.01032 0.4794 0.0
O391 O 0.39889 0.0477 0.48766 0.0
O392 O 0.42976 0.06381 0.53305 0.0
O393 O 0.46708 0.05279 0.54281 0.0
O394 O 0.5109 0.06496 0.50292 0.0
O395 O 0.45861 0.00423 0.44391 0.0
O396 O 0.50169 0.07656 0.46575 0.0
O397 O 0.47322 0.03864 0.43002 0.0
C398 C 0.48018 0.99078 0.51332 0.0
C399 C 0.43704 0.10343 0.46318 0.0
C400 C 0.44563 0.05882 0.54888 0.0
C401 C 0.39353 0.02594 0.48282 0.0
C402 C 0.51587 0.07673 0.48398 0.0
C403 C 0.4687 0.01637 0.42733 0.0
O404 O 0.49194 0.01036 0.51647 0.0
O405 O 0.26499 0.24556 0.79655 0.0
Zn406 Zn 0.28429 0.26061 0.77008 0.0
O407 O 0.28591 0.23902 0.74218 0.0
Zn408 Zn 0.31991 0.23619 0.73217 0.0
Zn409 Zn 0.27162 0.2077 0.74996 0.0
Zn410 Zn 0.26756 0.25267 0.71617 0.0
O411 O 0.32654 0.25102 0.69934 0.0
O412 O 0.28853 0.25762 0.68765 0.0
O413 O 0.31737 0.26804 0.78367 0.0
O414 O 0.34235 0.25091 0.75723 0.0
O415 O 0.32876 0.20167 0.73095 0.0
O416 O 0.29678 0.18186 0.74553 0.0
O417 O 0.24212 0.19963 0.7288 0.0
O418 O 0.26913 0.29175 0.76197 0.0
O419 O 0.24052 0.23138 0.70527 0.0
O420 O 0.25403 0.28483 0.72524 0.0
C421 C 0.25748 0.22434 0.80033 0.0
C422 C 0.31123 0.25729 0.6834 0.0
C423 C 0.31852 0.18227 0.73744 0.0
C424 C 0.3387 0.26284 0.77665 0.0
C425 C 0.23247 0.2111 0.71163 0.0
C426 C 0.25713 0.29844 0.74368 0.0
O427 O 0.25993 0.2077 0.78454 0.0
O428 O 0.95941 0.96037 0.45432 0.0
Zn429 Zn 0.93327 0.95455 0.47959 0.0
O430 O 0.94236 0.97032 0.50976 0.0
Zn431 Zn 0.94197 0.94803 0.53654 0.0
Zn432 Zn 0.9741 0.98497 0.50776 0.0
Zn433 Zn 0.92047 -0.00401 0.51602 0.0
O434 O 0.9264 0.96318 0.56624 0.0
O435 O 0.90954 -0.00505 0.54989 0.0
O436 O 0.92996 0.91952 0.48609 0.0
O437 O 0.9274 0.91619 0.5261 0.0
O438 O 0.97614 0.93969 0.5457 0.0
O439 O -0.00148 0.96598 0.52563 0.0
O440 O 0.97406 0.01799 0.52221 0.0
O441 O 0.90046 0.96594 0.46705 0.0
O442 O 0.93621 0.02858 0.51416 0.0
O443 O 0.8916 -0.00643 0.49496 0.0
C444 C 0.97807 0.97422 0.45437 0.0
C445 C 0.91379 0.9821 0.56807 0.0
C446 C -0.00327 0.94847 0.53989 0.0
C447 C 0.92648 0.90696 0.50486 0.0
C448 C 0.95767 0.0338 0.52137 0.0
C449 C 0.88608 0.98131 0.47618 0.0
O450 O 0.98478 0.98591 0.47324 0.0
O451 O 0.30459 0.7316 0.7693 0.0
Zn452 Zn 0.2828 0.73913 0.79723 0.0
O453 O 0.24892 0.7383 0.78688 0.0
Zn454 Zn 0.23391 0.769 0.79509 0.0
Zn455 Zn 0.2464 0.732 0.75219 0.0
Zn456 Zn 0.23257 0.71244 0.80316 0.0
O457 O 0.20604 0.76459 0.81824 0.0
O458 O 0.20394 0.72497 0.82118 0.0
O459 O 0.29259 0.77227 0.80773 0.0
O460 O 0.25803 0.79215 0.80995 0.0
O461 O 0.22334 0.78591 0.76483 0.0
O462 O 0.23299 0.76026 0.73548 0.0
O463 O 0.22596 0.70272 0.74406 0.0
O464 O 0.28916 0.71735 0.82512 0.0
O465 O 0.22044 0.68701 0.78025 0.0
O466 O 0.254 0.69764 0.82784 0.0
C467 C 0.30096 0.72865 0.74669 0.0
C468 C 0.19609 0.7457 0.82639 0.0
C469 C 0.22495 0.78044 0.74243 0.0
C470 C 0.28101 0.7913 0.81253 0.0
C471 C 0.218 0.68605 0.7574 0.0
C472 C 0.27572 0.70162 0.83502 0.0
O473 O 0.27957 0.72825 0.73782 0.0
O474 O 0.51215 0.01882 0.04557 0.0
Zn475 Zn 0.50844 0.01023 0.011 0.0
O476 O 0.47445 0.00449 0.00421 0.0
Zn477 Zn 0.4705 0.97369 0.98839 0.0
Zn478 Zn 0.45475 0.00476 0.03318 0.0
Zn479 Zn 0.46409 0.02765 0.98225 0.0
O480 O 0.47174 0.97623 0.95232 0.0
O481 O 0.46362 0.01469 0.94847 0.0
O482 O 0.52664 0.97917 0.00909 0.0
O483 O 0.49756 0.95289 -0.00114 0.0
O484 O 0.44021 0.95714 -0.00041 0.0
O485 O 0.44272 0.97118 0.03711 0.0
O486 O 0.42596 0.02721 0.02953 0.0
O487 O 0.52297 0.03746 0.9916 0.0
O488 O 0.43235 0.04076 0.99238 0.0
O489 O 0.48815 0.05387 0.98042 0.0
C490 C 0.49896 0.01692 0.06431 0.0
C491 C 0.46835 -0.00566 0.9392 0.0
C492 C 0.4369 0.9545 0.02215 0.0
C493 C 0.51906 0.95767 0.00616 0.0
C494 C 0.41962 0.03981 0.01156 0.0
C495 C 0.51122 0.05446 0.98215 0.0
O496 O 0.47634 0.01142 0.06277 0.0
O497 O 0.19771 0.28006 0.24086 0.0
Zn498 Zn 0.22318 0.27389 0.26611 0.0
O499 O 0.25531 0.28031 0.25347 0.0
Zn500 Zn 0.27192 0.25088 0.2462 0.0
Zn501 Zn 0.25274 0.29914 0.22427 0.0
Zn502 Zn 0.27396 0.29717 0.27771 0.0
O503 O 0.30745 0.25338 0.25564 0.0
O504 O 0.30621 0.28236 0.2835 0.0
O505 O 0.22019 0.23917 0.27363 0.0
O506 O 0.25487 0.22273 0.26167 0.0
O507 O 0.27008 0.24532 0.21068 0.0
O508 O 0.26691 0.2816 0.19546 0.0
O509 O 0.26695 0.3323 0.22892 0.0
O510 O 0.21712 0.29306 0.29677 0.0
O511 O 0.28183 0.32989 0.26625 0.0
O512 O 0.25519 0.30134 0.30827 0.0
C513 C 0.19838 0.29175 0.22131 0.0
C514 C 0.31781 0.2664 0.27184 0.0
C515 C 0.26944 0.25911 0.19265 0.0
C516 C 0.23375 0.22101 0.27113 0.0
C517 C 0.27809 0.34152 0.24708 0.0
C518 C 0.23239 0.30109 0.3124 0.0
O519 O 0.21798 0.3016 0.21409 0.0
O520 O 0.50829 0.48793 0.94344 0.0
Zn521 Zn 0.48959 0.47927 0.97374 0.0
O522 O 0.49925 0.50132 -0.00056 0.0
Zn523 Zn 0.50536 0.48418 0.02851 0.0
Zn524 Zn 0.52634 0.52162 0.99176 0.0
Zn525 Zn 0.47153 0.52101 0.00311 0.0
O526 O 0.47695 0.48715 0.05114 0.0
O527 O 0.45142 0.50977 0.03061 0.0
O528 O 0.50004 0.44628 0.98208 0.0
O529 O 0.51204 0.44983 0.02039 0.0
O530 O 0.53654 0.49531 0.0439 0.0
O531 O 0.55467 0.51233 0.0125 0.0
O532 O 0.51971 0.55646 -0.00072 0.0
O533 O 0.45249 0.47982 0.97147 0.0
O534 O 0.48109 0.55451 0.01103 0.0
O535 O 0.45169 0.51889 0.97308 0.0
C536 C 0.52611 0.50242 0.94008 0.0
C537 C 0.45639 0.49723 0.04888 0.0
C538 C 0.55553 0.50352 0.03359 0.0
C539 C 0.50893 0.43745 0.00114 0.0
C540 C 0.50076 0.56623 0.00799 0.0
C541 C 0.44042 0.49907 0.97058 0.0
O542 O 0.53447 0.5161 0.95691 0.0
O543 O 0.81428 0.20171 0.21401 0.0
Zn544 Zn 0.78668 0.21411 0.23377 0.0
O545 O 0.75716 0.19749 0.22448 0.0
Zn546 Zn 0.73155 0.22021 0.2195 0.0
Zn547 Zn 0.76199 0.1788 0.19523 0.0
Zn548 Zn 0.74827 0.17655 0.25023 0.0
O549 O 0.70544 0.21752 0.24459 0.0
O550 O 0.72053 0.19057 0.26934 0.0
O551 O 0.78421 0.24912 0.22757 0.0
O552 O 0.74464 0.2538 0.22127 0.0
O553 O 0.71878 0.21774 0.18573 0.0
O554 O 0.74727 0.19616 0.16731 0.0
O555 O 0.74419 0.14735 0.19767 0.0
O556 O 0.79439 0.20854 0.26891 0.0
O557 O 0.73647 0.14481 0.23698 0.0
O558 O 0.77588 0.17328 0.27352 0.0
C559 C 0.81644 0.18575 0.19751 0.0
C560 C 0.70454 0.20597 0.26421 0.0
C561 C 0.72899 0.20993 0.16656 0.0
C562 C 0.7661 0.26239 0.22336 0.0
C563 C 0.73526 0.13618 0.21554 0.0
C564 C 0.79078 0.18951 0.28075 0.0
O565 O 0.79803 0.17427 0.18897 0.0
O566 O 0.00865 0.48431 0.51266 0.0
Zn567 Zn -0.00168 0.46951 0.48134 0.0
O568 O 0.96735 0.45256 0.48461 0.0
Zn569 Zn 0.97121 0.41909 0.47455 0.0
Zn570 Zn 0.95664 0.45433 0.51803 0.0
Zn571 Zn 0.94351 0.46771 0.46442 0.0
O572 O 0.95414 0.41217 0.44251 0.0
O573 O 0.93217 0.44501 0.43872 0.0
O574 O 0.02543 0.44683 0.47469 0.0
O575 O 0.0069 0.41142 0.47245 0.0
O576 O 0.95933 0.39672 0.50043 0.0
O577 O 0.95299 0.42167 0.53133 0.0
O578 O 0.92465 0.4708 0.52132 0.0
O579 O -0.00297 0.49604 0.45759 0.0
O580 O 0.91496 0.4796 0.48354 0.0
O581 O 0.95789 0.49598 0.44742 0.0
C582 C 0.001 0.4827 0.53422 0.0
C583 C 0.93832 0.42432 0.43129 0.0
C584 C 0.95412 0.40056 0.52259 0.0
C585 C 0.02628 0.42416 0.47311 0.0
C586 C 0.91019 0.47977 0.50605 0.0
C587 C 0.97928 0.50484 0.44609 0.0
O588 O 0.98143 0.47134 0.53904 0.0
O589 O 0.77107 0.73525 0.30971 0.0
Zn590 Zn 0.7843 0.75631 0.28384 0.0
O591 O 0.77346 0.74361 0.25315 0.0
Zn592 Zn 0.79829 0.72674 0.23586 0.0
Zn593 Zn 0.74511 0.72311 0.25725 0.0
Zn594 Zn 0.767 0.77016 0.23333 0.0
O595 O 0.79978 0.73689 0.20076 0.0
O596 O 0.79238 0.77514 0.20804 0.0
O597 O 0.82116 0.75638 0.28458 0.0
O598 O 0.83009 0.73439 0.25184 0.0
O599 O 0.79242 0.69149 0.2381 0.0
O600 O 0.75337 0.68906 0.24829 0.0
O601 O 0.71718 0.73411 0.23609 0.0
O602 O 0.77017 0.78914 0.29012 0.0
O603 O 0.73593 0.76325 0.21607 0.0
O604 O 0.76154 0.7999 0.25271 0.0
C605 C 0.75113 0.72343 0.31112 0.0
C606 C 0.80001 0.75857 0.19413 0.0
C607 C 0.77338 0.67917 0.24264 0.0
C608 C 0.83662 0.74629 0.27065 0.0
C609 C 0.71756 0.74962 0.2194 0.0
C610 C 0.76232 0.80443 0.27529 0.0
O611 O 0.73716 0.72031 0.29281 0.0
O612 O 0.77436 0.2171 0.71021 0.0
Zn613 Zn 0.76294 0.22673 0.74292 0.0
O614 O 0.76817 0.26038 0.74705 0.0
Zn615 Zn 0.78582 0.26708 0.77686 0.0
Zn616 Zn 0.78441 0.27441 0.71951 0.0
Zn617 Zn 0.73664 0.27366 0.74911 0.0
O618 O 0.76588 0.28822 0.79922 0.0
O619 O 0.72896 0.28116 0.78363 0.0
O620 O 0.78018 0.20857 0.76821 0.0
O621 O 0.79295 0.23646 0.79447 0.0
O622 O 0.81938 0.27974 0.76924 0.0
O623 O 0.8196 0.2783 0.72898 0.0
O624 O 0.77059 0.30757 0.71241 0.0
O625 O 0.72751 0.21786 0.74566 0.0
O626 O 0.73604 0.30472 0.73288 0.0
O627 O 0.71046 0.25201 0.73609 0.0
C628 C 0.78039 0.22803 0.69108 0.0
C629 C 0.7427 0.28919 0.80053 0.0
C630 C 0.8307 0.28086 0.74916 0.0
C631 C 0.79035 0.21461 0.78811 0.0
C632 C 0.75054 0.31654 0.71964 0.0
C633 C 0.70887 0.22974 0.73989 0.0
O634 O 0.78284 0.25079 0.69074 0.0
O635 O 0.70363 0.79468 0.75452 0.0
Zn636 Zn 0.73364 0.78781 0.77346 0.0
O637 O 0.76159 0.80061 0.75637 0.0
Zn638 Zn 0.78685 0.77649 0.75521 0.0
Zn639 Zn 0.75289 0.80947 0.72351 0.0
Zn640 Zn 0.77245 0.82893 0.77385 0.0
O641 O 0.81538 0.78689 0.77594 0.0
O642 O 0.80637 0.82439 0.7862 0.0
O643 O 0.73562 0.75217 0.77578 0.0
O644 O 0.7737 0.7442 0.76536 0.0
O645 O 0.79811 0.7707 0.72093 0.0
O646 O 0.7701 0.78898 0.69924 0.0
O647 O 0.76205 0.84366 0.7165 0.0
O648 O 0.72899 0.80306 0.80654 0.0
O649 O 0.77273 0.85748 0.75287 0.0
O650 O 0.75107 0.83625 0.80227 0.0
C651 C 0.69959 0.80115 0.73295 0.0
C652 C 0.82081 0.80678 0.78631 0.0
C653 C 0.78854 0.77552 0.70062 0.0
C654 C 0.75263 0.73728 0.77216 0.0
C655 C 0.76877 0.86075 0.73053 0.0
C656 C 0.73583 0.82371 0.81402 0.0
O657 O 0.71683 0.8063 0.71852 0.0
O658 O 0.46183 0.58865 0.52391 0.0
Zn659 Zn 0.48031 0.56436 0.50433 0.0
O660 O 0.4789 0.53263 0.5185 0.0
Zn661 Zn 0.51153 0.5209 0.52196 0.0
Zn662 Zn 0.46247 0.53461 0.54934 0.0
Zn663 Zn 0.4618 0.5101 0.49765 0.0
O664 O 0.51842 0.49354 0.49916 0.0
O665 O 0.48104 0.48042 0.49062 0.0
O666 O 0.51441 0.57764 0.50524 0.0
O667 O 0.53608 0.54685 0.51706 0.0
O668 O 0.51682 0.51066 0.5557 0.0
O669 O 0.48312 0.52023 0.57563 0.0
O670 O 0.42896 0.51943 0.54723 0.0
O671 O 0.47028 0.56269 0.46949 0.0
O672 O 0.4288 0.50175 0.51088 0.0
O673 O 0.4582 0.52478 0.46527 0.0
C674 C 0.4566 0.58825 0.54632 0.0
C675 C 0.50405 0.47804 0.48961 0.0
C676 C 0.50461 0.51182 0.57518 0.0
C677 C 0.53468 0.56855 0.51087 0.0
C678 C 0.41828 0.50704 0.53073 0.0
C679 C 0.46245 0.54526 0.45643 0.0
O680 O 0.45767 0.56904 0.55826 0.0
O681 O 0.00986 0.43807 0.00287 0.0
Zn682 Zn -0.00531 0.45958 0.97865 0.0
O683 O -0.00543 0.49264 0.99135 0.0
Zn684 Zn 0.96144 0.50356 -0.00516 0.0
Zn685 Zn 0.01101 0.49451 0.02284 0.0
Zn686 Zn 0.01055 0.51358 0.96884 0.0
O687 O 0.95266 0.53012 0.97294 0.0
O688 O 0.98807 0.53785 0.95532 0.0
O689 O 0.96035 0.44621 0.97514 0.0
O690 O 0.93856 0.47649 0.98923 0.0
O691 O 0.95532 0.51576 0.028 0.0
O692 O 0.98935 0.50939 0.0484 0.0
O693 O 0.0418 0.51454 0.02096 0.0
O694 O 0.01201 0.45694 0.94633 0.0
O695 O 0.0388 0.53075 0.98461 0.0
O696 O 0.0221 0.495 0.94036 0.0
C697 C 0.01728 0.44092 0.02457 0.0
C698 C 0.96557 0.54195 0.95827 0.0
C699 C 0.96763 0.51702 0.04743 0.0
C700 C 0.94002 0.4551 0.98132 0.0
C701 C 0.04955 0.52878 0.00488 0.0
C702 C 0.02155 0.47322 0.93344 0.0
O703 O 0.01848 0.46156 0.03459 0.0
H704 H 0.02616 0.15427 0.02642 0.0
H705 H 0.96582 0.20065 0.04377 0.0
H706 H 0.93813 0.17421 0.0206 0.0
H707 H -0.00042 0.13404 0.96308 0.0
H708 H 0.01098 0.10433 0.96689 0.0
H709 H 0.02819 0.12978 0.97837 0.0
H710 H 0.02894 0.11221 0.02096 0.0
H711 H 0.01241 0.08638 0.01029 0.0
H712 H 0.00069 0.10376 0.03529 0.0
H713 H 0.91598 0.13684 0.01049 0.0
H714 H 0.90249 0.0945 0.00683 0.0
H715 H 0.97619 0.07404 0.98972 0.0
C716 C 0.00738 0.15947 0.02418 0.0
C717 C -0.00186 0.17935 0.03701 0.0
C718 C 0.9734 0.18556 0.03401 0.0
C719 C 0.95745 0.17061 0.02083 0.0
C720 C 0.96669 0.15006 0.00993 0.0
C721 C -0.00867 0.14501 0.0105 0.0
C722 C -0.00385 0.12042 -0.0001 0.0
C723 C 0.00953 0.12227 0.97562 0.0
C724 C 0.01034 0.1048 0.01768 0.0
C725 C 0.97026 0.11144 -0.00384 0.0
C726 C 0.95345 0.12891 0.00164 0.0
C727 C 0.92875 0.12333 0.00474 0.0
C728 C 0.92118 0.09931 0.00272 0.0
C729 C 0.93821 0.08147 -0.00297 0.0
C730 C 0.96274 0.08774 0.9928 0.0
H731 H 0.087 0.76864 0.37754 0.0
H732 H 0.10407 0.69818 0.40347 0.0
H733 H 0.14366 0.69988 0.382 0.0
H734 H 0.10932 0.76206 0.32025 0.0
H735 H 0.12199 0.79178 0.31777 0.0
H736 H 0.09662 0.78645 0.33757 0.0
H737 H 0.12086 0.80438 0.37399 0.0
H738 H 0.14611 0.81044 0.35415 0.0
H739 H 0.15061 0.79303 0.38086 0.0
H740 H 0.17818 0.70718 0.35263 0.0
H741 H 0.20867 0.72234 0.3236 0.0
H742 H 0.1691 0.78871 0.31876 0.0
C743 C 0.09946 0.7539 0.37929 0.0
C744 C 0.09278 0.73333 0.3921 0.0
C745 C 0.10921 0.71422 0.39395 0.0
C746 C 0.13155 0.71497 0.38167 0.0
C747 C 0.13714 0.73516 0.3682 0.0
C748 C 0.12185 0.75457 0.36756 0.0
C749 C 0.13161 0.77385 0.35131 0.0
C750 C 0.11382 0.7788 0.3305 0.0
C751 C 0.13767 0.79678 0.36595 0.0
C752 C 0.15438 0.76195 0.34218 0.0
C753 C 0.15726 0.73961 0.35199 0.0
C754 C 0.17635 0.72482 0.34517 0.0
C755 C 0.19338 0.73345 0.32847 0.0
C756 C 0.1912 0.7567 0.31904 0.0
C757 C 0.17129 0.77093 0.32582 0.0
H758 H 0.47274 0.85548 0.55784 0.0
H759 H 0.5004 0.88289 0.62657 0.0
H760 H 0.50517 0.92293 0.60935 0.0
H761 H 0.50966 0.89194 0.51852 0.0
H762 H 0.48549 0.89745 0.49733 0.0
H763 H 0.48538 0.87026 0.51432 0.0
H764 H 0.44229 0.87969 0.53065 0.0
H765 H 0.44215 0.90671 0.51346 0.0
H766 H 0.43703 0.90801 0.54563 0.0
H767 H 0.50885 0.95915 0.58483 0.0
H768 H 0.50382 0.99215 0.55651 0.0
H769 H 0.46996 0.94312 0.50442 0.0
C770 C 0.47977 0.86998 0.56915 0.0
C771 C 0.48632 0.86619 0.59346 0.0
C772 C 0.49516 0.88553 0.60792 0.0
C773 C 0.49817 0.90826 0.59826 0.0
C774 C 0.49181 0.91146 0.57422 0.0
C775 C 0.48221 0.8931 0.55996 0.0
C776 C 0.47505 0.9021 0.53527 0.0
C777 C 0.48978 0.88969 0.51517 0.0
C778 C 0.44749 0.89894 0.53101 0.0
C779 C 0.48224 0.92827 0.53797 0.0
C780 C 0.49239 0.93305 0.56042 0.0
C781 C 0.5008 0.95574 0.56721 0.0
C782 C 0.49803 0.97432 0.55091 0.0
C783 C 0.48651 0.97018 0.52828 0.0
C784 C 0.47883 0.94676 0.52161 0.0
H785 H 0.46736 0.24397 0.83864 0.0
H786 H 0.46174 0.31544 0.8693 0.0
H787 H 0.41996 0.3184 0.85266 0.0
H788 H 0.44062 0.25775 0.78369 0.0
H789 H 0.42524 0.22936 0.77929 0.0
H790 H 0.4528 0.2312 0.7969 0.0
H791 H 0.43063 0.21212 0.83328 0.0
H792 H 0.40305 0.20988 0.81565 0.0
H793 H 0.40299 0.22525 0.84455 0.0
H794 H 0.37949 0.3139 0.83112 0.0
H795 H 0.34459 0.30339 0.80434 0.0
H796 H 0.37925 0.23674 0.78446 0.0
C797 C 0.45699 0.25992 0.84249 0.0
C798 C 0.46735 0.27929 0.85565 0.0
C799 C 0.4538 0.30031 0.85952 0.0
C800 C 0.43014 0.30212 0.85016 0.0
C801 C 0.42064 0.2829 0.83666 0.0
C802 C 0.43372 0.26225 0.83271 0.0
C803 C 0.4206 0.24523 0.81546 0.0
C804 C 0.43572 0.24063 0.79248 0.0
C805 C 0.41392 0.22173 0.82799 0.0
C806 C 0.39821 0.25962 0.81008 0.0
C807 C 0.39829 0.28107 0.82283 0.0
C808 C 0.37926 0.29718 0.821 0.0
C809 C 0.35959 0.29112 0.80577 0.0
C810 C 0.35953 0.26946 0.79219 0.0
C811 C 0.37911 0.25361 0.79436 0.0
H812 H 0.96388 0.8016 0.42326 0.0
H813 H -0.00835 0.76766 0.48715 0.0
H814 H 0.96696 0.79491 0.51293 0.0
H815 H 0.96877 0.85752 0.44267 0.0
H816 H 0.9415 0.86855 0.42878 0.0
H817 H 0.95615 0.84287 0.4161 0.0
H818 H 0.91597 0.81834 0.41976 0.0
H819 H 0.90112 0.84413 0.43262 0.0
H820 H 0.90099 0.81636 0.44864 0.0
H821 H 0.94699 0.83142 0.53091 0.0
H822 H 0.93504 0.87309 0.53919 0.0
H823 H 0.91872 0.88174 0.46316 0.0
C824 C 0.96406 0.79945 0.44269 0.0
C825 C 0.97949 0.78278 0.45342 0.0
C826 C 0.97967 0.78033 0.47877 0.0
C827 C 0.96564 0.79563 0.49344 0.0
C828 C 0.95117 0.81265 0.48227 0.0
C829 C 0.95001 0.81426 0.45736 0.0
C830 C 0.93594 0.83581 0.44959 0.0
C831 C 0.95153 0.85213 0.43337 0.0
C832 C 0.91208 0.8282 0.43691 0.0
C833 C 0.93102 0.84731 0.47394 0.0
C834 C 0.93928 0.83344 0.49267 0.0
C835 C 0.93981 0.84209 0.51647 0.0
C836 C 0.93292 0.86582 0.52103 0.0
C837 C 0.92597 0.88066 0.50177 0.0
C838 C 0.92371 0.87075 0.47827 0.0
H839 H 0.43536 0.76937 0.71849 0.0
H840 H 0.41339 0.77952 0.64394 0.0
H841 H 0.37257 0.76284 0.65333 0.0
H842 H 0.40465 0.71358 0.72688 0.0
H843 H 0.39633 0.72045 0.75771 0.0
H844 H 0.42357 0.7334 0.74506 0.0
H845 H 0.40839 0.77568 0.75609 0.0
H846 H 0.38087 0.76339 0.7687 0.0
H847 H 0.37925 0.78511 0.74505 0.0
H848 H 0.33432 0.74442 0.67123 0.0
H849 H 0.30038 0.73106 0.69711 0.0
H850 H 0.34896 0.73221 0.75919 0.0
C851 C 0.42198 0.7683 0.70408 0.0
C852 C 0.42757 0.77574 0.68047 0.0
C853 C 0.40944 0.77408 0.66223 0.0
C854 C 0.38634 0.76438 0.66731 0.0
C855 C 0.38182 0.75639 0.69064 0.0
C856 C 0.3991 0.75854 0.70875 0.0
C857 C 0.38969 0.7494 0.73251 0.0
C858 C 0.40444 0.72793 0.74103 0.0
C859 C 0.38953 0.76958 0.75175 0.0
C860 C 0.36424 0.74191 0.72509 0.0
C861 C 0.36006 0.74581 0.70083 0.0
C862 C 0.33743 0.7412 0.69021 0.0
C863 C 0.31831 0.73344 0.70505 0.0
C864 C 0.32199 0.73059 0.73022 0.0
C865 C 0.34553 0.73402 0.74003 0.0
H866 H 0.51448 0.16809 0.90028 0.0
H867 H 0.57689 0.19393 0.94178 0.0
H868 H 0.57821 0.15555 0.96317 0.0
H869 H 0.48526 0.13941 0.94799 0.0
H870 H 0.47372 0.1148 0.9297 0.0
H871 H 0.47944 0.14332 0.91622 0.0
H872 H 0.50779 0.12318 0.88465 0.0
H873 H 0.50227 0.09457 0.89819 0.0
H874 H 0.53302 0.10565 0.89483 0.0
H875 H 0.57104 0.11473 0.98165 0.0
H876 H 0.55399 0.07658 -0.00285 0.0
H877 H 0.49645 0.07892 0.94347 0.0
C878 C 0.52861 0.1656 0.91366 0.0
C879 C 0.54559 0.1839 0.91934 0.0
C880 C 0.56366 0.18007 0.93715 0.0
C881 C 0.56466 0.1583 0.9493 0.0
C882 C 0.54752 0.14061 0.94333 0.0
C883 C 0.5298 0.14411 0.92596 0.0
C884 C 0.51242 0.12309 0.92399 0.0
C885 C 0.48617 0.13061 0.92984 0.0
C886 C 0.51398 0.1109 0.89893 0.0
C887 C 0.52272 0.10748 0.94338 0.0
C888 C 0.5432 0.11756 0.95414 0.0
C889 C 0.55512 0.10656 0.97323 0.0
C890 C 0.54543 0.08494 0.98186 0.0
C891 C 0.5239 0.07505 0.97157 0.0
C892 C 0.51288 0.08622 0.95177 0.0
H893 H 0.08563 0.22418 0.16041 0.0
H894 H 0.10036 0.26462 0.09565 0.0
H895 H 0.13332 0.28673 0.11715 0.0
H896 H 0.095 0.27164 0.20283 0.0
H897 H 0.10963 0.25354 0.22509 0.0
H898 H 0.08769 0.24022 0.20452 0.0
H899 H 0.11938 0.2091 0.19014 0.0
H900 H 0.14114 0.22194 0.21115 0.0
H901 H 0.14869 0.21929 0.17953 0.0
H902 H 0.16353 0.30537 0.14615 0.0
H903 H 0.19277 0.3154 0.17875 0.0
H904 H 0.15794 0.26275 0.22452 0.0
C905 C 0.09599 0.23747 0.15063 0.0
C906 C 0.09045 0.24271 0.12637 0.0
C907 C 0.1044 0.26023 0.11421 0.0
C908 C 0.12299 0.27302 0.12632 0.0
C909 C 0.12741 0.26797 0.1505 0.0
C910 C 0.11461 0.25032 0.1624 0.0
C911 C 0.12321 0.24806 0.18825 0.0
C912 C 0.10265 0.25371 0.20622 0.0
C913 C 0.13374 0.22313 0.19251 0.0
C914 C 0.14286 0.26723 0.18906 0.0
C915 C 0.14485 0.27865 0.16718 0.0
C916 C 0.16217 0.29656 0.16337 0.0
C917 C 0.1786 0.30222 0.18207 0.0
C918 C 0.17766 0.2899 0.20425 0.0
C919 C 0.159 0.27274 0.20795 0.0
H920 H 0.07388 0.03186 0.17372 0.0
H921 H 0.01875 0.0465 0.22787 0.0
H922 H 0.98697 0.04507 0.19612 0.0
H923 H 0.0458 0.06474 0.12378 0.0
H924 H 0.05467 0.04251 0.10166 0.0
H925 H 0.07315 0.04787 0.1282 0.0
H926 H 0.06976 0.00293 0.13854 0.0
H927 H 0.05115 -0.00249 0.11219 0.0
H928 H 0.04006 0.9892 0.14156 0.0
H929 H 0.96085 0.03926 0.15841 0.0
H930 H 0.94296 0.02825 0.11841 0.0
H931 H 0.01559 0.01598 0.09039 0.0
C932 C 0.0552 0.03531 0.17883 0.0
C933 C 0.04876 0.03945 0.20317 0.0
C934 C 0.02405 0.04337 0.20924 0.0
C935 C 0.0059 0.04266 0.19135 0.0
C936 C 0.0128 0.03798 0.16753 0.0
C937 C 0.03689 0.03441 0.16129 0.0
C938 C 0.03941 0.02773 0.13486 0.0
C939 C 0.05412 0.04686 0.12133 0.0
C940 C 0.05075 0.00287 0.13161 0.0
C941 C 0.01296 0.02756 0.12734 0.0
C942 C -0.00217 0.03388 0.14623 0.0
C943 C 0.97255 0.0344 0.14344 0.0
C944 C 0.96254 0.02812 0.12075 0.0
C945 C 0.97786 0.02103 0.10144 0.0
C946 C 0.00334 0.02104 0.10487 0.0
H947 H 0.20684 0.88531 0.44846 0.0
H948 H 0.26377 0.85721 0.49408 0.0
H949 H 0.28518 0.84216 0.45768 0.0
H950 H 0.20592 0.83686 0.40497 0.0
H951 H 0.2001 0.85618 0.37994 0.0
H952 H 0.18965 0.8643 0.40974 0.0
H953 H 0.21289 0.9048 0.40677 0.0
H954 H 0.22383 0.89656 0.37715 0.0
H955 H 0.24514 0.90499 0.4007 0.0
H956 H 0.30063 0.8308 0.41564 0.0
H957 H 0.30613 0.82018 0.37237 0.0
H958 H 0.23906 0.85654 0.35536 0.0
C959 C 0.22372 0.87585 0.4509 0.0
C960 C 0.23362 0.87246 0.47414 0.0
C961 C 0.25574 0.85991 0.47646 0.0
C962 C 0.26814 0.85148 0.45588 0.0
C963 C 0.25814 0.85571 0.4332 0.0
C964 C 0.23625 0.86733 0.43068 0.0
C965 C 0.22896 0.8692 0.40445 0.0
C966 C 0.20473 0.85583 0.39949 0.0
C967 C 0.22764 0.89545 0.39683 0.0
C968 C 0.25011 0.85672 0.39253 0.0
C969 C 0.26691 0.84921 0.40929 0.0
C970 C 0.28761 0.83665 0.40236 0.0
C971 C 0.29069 0.83087 0.37773 0.0
C972 C 0.27305 0.83754 0.36047 0.0
C973 C 0.25294 0.85122 0.36804 0.0
H974 H 0.44553 0.97705 0.66355 0.0
H975 H 0.36757 0.9886 0.66757 0.0
H976 H 0.37073 0.0176 0.63467 0.0
H977 H 0.46329 0.03697 0.65221 0.0
H978 H 0.48695 0.0294 0.63099 0.0
H979 H 0.47885 0.00894 0.65454 0.0
H980 H 0.47014 0.97517 0.62276 0.0
H981 H 0.47925 -0.0046 0.59944 0.0
H982 H 0.44982 0.98082 0.59792 0.0
H983 H 0.38254 0.04669 0.60286 0.0
H984 H 0.4006 0.06738 0.56816 0.0
H985 H 0.47082 0.03663 0.58472 0.0
C986 C 0.42906 0.98537 0.65723 0.0
C987 C 0.40634 0.98064 0.6682 0.0
C988 C 0.38518 0.99186 0.6594 0.0
C989 C 0.38682 0.0086 0.64092 0.0
C990 C 0.40968 0.01371 0.63134 0.0
C991 C 0.43032 0.00198 0.63871 0.0
C992 C 0.45253 0.0101 0.62478 0.0
C993 C 0.47152 0.02206 0.64165 0.0
C994 C 0.46356 0.98912 0.61036 0.0
C995 C 0.44109 0.02812 0.60829 0.0
C996 C 0.41645 0.03025 0.61268 0.0
C997 C 0.40181 0.04515 0.59918 0.0
C998 C 0.41231 0.05701 0.57962 0.0
C999 C 0.43713 0.05358 0.57359 0.0
C1000 C 0.45189 0.03988 0.58892 0.0
H1001 H 0.22369 0.1433 0.91271 0.0
H1002 H 0.20306 0.20854 0.95059 0.0
H1003 H 0.21048 0.2314 0.91359 0.0
H1004 H 0.27209 0.16836 0.87965 0.0
H1005 H 0.26646 0.15094 0.85247 0.0
H1006 H 0.25773 0.13929 0.88136 0.0
H1007 H 0.21335 0.13349 0.86611 0.0
H1008 H 0.22196 0.14511 0.83713 0.0
H1009 H 0.19741 0.15854 0.8539 0.0
H1010 H 0.22302 0.24762 0.87387 0.0
H1011 H 0.23927 0.25617 0.83337 0.0
H1012 H 0.25107 0.1804 0.82082 0.0
C1013 C 0.22044 0.16235 0.91312 0.0
C1014 C 0.21278 0.17415 0.9345 0.0
C1015 C 0.2089 0.19912 0.93439 0.0
C1016 C 0.21301 0.21226 0.91346 0.0
C1017 C 0.22084 0.20015 0.89278 0.0
C1018 C 0.2244 0.17575 0.89236 0.0
C1019 C 0.23386 0.16729 0.86802 0.0
C1020 C 0.25903 0.1558 0.87054 0.0
C1021 C 0.21555 0.15009 0.85556 0.0
C1022 C 0.23554 0.19084 0.85504 0.0
C1023 C 0.22783 0.20953 0.86963 0.0
C1024 C 0.22885 0.23313 0.86214 0.0
C1025 C 0.23819 0.2378 0.83915 0.0
C1026 C 0.24633 0.21894 0.82391 0.0
C1027 C 0.24468 0.19515 0.83192 0.0
H1028 H 0.05739 0.0441 0.35804 0.0
H1029 H 0.0634 0.97757 0.31728 0.0
H1030 H 0.04144 0.95636 0.34969 0.0
H1031 H 0.06484 0.01713 0.41872 0.0
H1032 H 0.04368 0.03768 0.43233 0.0
H1033 H 0.06194 0.04682 0.40699 0.0
H1034 H 0.02267 0.05802 0.38397 0.0
H1035 H 0.00428 0.04852 0.40898 0.0
H1036 H -0.00095 0.03574 0.37927 0.0
H1037 H 0.01329 0.94398 0.38357 0.0
H1038 H 0.98692 0.93999 0.41965 0.0
H1039 H 0.00215 0.01401 0.43933 0.0
C1040 C 0.05461 0.02496 0.35624 0.0
C1041 C 0.06204 0.01243 0.33523 0.0
C1042 C 0.05805 0.98743 0.33339 0.0
C1043 C 0.04547 0.97527 0.35162 0.0
C1044 C 0.03756 0.98834 0.37173 0.0
C1045 C 0.04256 0.01251 0.37444 0.0
C1046 C 0.03166 0.02257 0.39747 0.0
C1047 C 0.05173 0.03157 0.41492 0.0
C1048 C 0.01333 0.04237 0.39208 0.0
C1049 C 0.01901 0.00048 0.4069 0.0
C1050 C 0.02245 0.98093 0.39176 0.0
C1051 C 0.01091 0.95902 0.39584 0.0
C1052 C -0.00417 0.95697 0.4162 0.0
C1053 C -0.00723 0.97663 0.43228 0.0
C1054 C 0.00453 -0.0014 0.42751 0.0
H1055 H 0.23603 0.83329 0.61043 0.0
H1056 H 0.23008 0.9041 0.64295 0.0
H1057 H 0.22558 0.88612 0.68319 0.0
H1058 H 0.19187 0.805 0.64643 0.0
H1059 H 0.20798 0.7773 0.64891 0.0
H1060 H 0.21239 0.79562 0.6228 0.0
H1061 H 0.25897 0.79725 0.6306 0.0
H1062 H 0.25476 0.77843 0.65638 0.0
H1063 H 0.27022 0.80689 0.65986 0.0
H1064 H 0.21921 0.86011 0.71963 0.0
H1065 H 0.21688 0.82836 0.75005 0.0
H1066 H 0.22659 0.77485 0.69321 0.0
C1067 C 0.23428 0.84506 0.62605 0.0
C1068 C 0.23347 0.87011 0.62354 0.0
C1069 C 0.23091 0.88486 0.64444 0.0
C1070 C 0.22815 0.87481 0.66736 0.0
C1071 C 0.22808 0.85001 0.66905 0.0
C1072 C 0.2315 0.83536 0.64901 0.0
C1073 C 0.23058 0.80926 0.65564 0.0
C1074 C 0.20945 0.79603 0.64267 0.0
C1075 C 0.25509 0.79726 0.65031 0.0
C1076 C 0.22598 0.8115 0.68253 0.0
C1077 C 0.22444 0.83512 0.68993 0.0
C1078 C 0.22047 0.84154 0.71405 0.0
C1079 C 0.21895 0.82336 0.73117 0.0
C1080 C 0.22152 0.79906 0.72407 0.0
C1081 C 0.22445 0.79319 0.6993 0.0
H1082 H 0.46691 0.93227 0.80979 0.0
H1083 H 0.47661 0.00323 0.78122 0.0
H1084 H 0.48747 0.01871 0.82185 0.0
H1085 H 0.43527 0.94859 0.85708 0.0
H1086 H 0.44699 0.92832 0.87911 0.0
H1087 H 0.44822 0.92054 0.84752 0.0
H1088 H 0.4949 0.91514 0.84987 0.0
H1089 H 0.49382 0.9221 0.8818 0.0
H1090 H 0.51382 0.93884 0.86239 0.0
H1091 H 0.48618 0.02829 0.86503 0.0
H1092 H 0.47803 0.03088 0.90867 0.0
H1093 H 0.46833 0.9538 0.91049 0.0
C1094 C 0.47295 0.95068 0.81198 0.0
C1095 C 0.47165 0.96654 0.79254 0.0
C1096 C 0.47817 0.99084 0.79597 0.0
C1097 C 0.48426 -0.00025 0.81897 0.0
C1098 C 0.48364 0.98407 0.83823 0.0
C1099 C 0.47868 0.9599 0.835 0.0
C1100 C 0.47519 0.94776 0.85907 0.0
C1101 C 0.44992 0.93561 0.86077 0.0
C1102 C 0.49566 0.92991 0.86355 0.0
C1103 C 0.47729 0.96913 0.87611 0.0
C1104 C 0.48258 0.98978 0.86372 0.0
C1105 C 0.48276 0.01216 0.87506 0.0
C1106 C 0.47773 0.01347 0.8998 0.0
C1107 C 0.47255 0.99251 0.91294 0.0
C1108 C 0.47253 0.97006 0.90093 0.0
H1109 H 0.22579 0.15436 0.10509 0.0
H1110 H 0.21813 0.20665 0.04859 0.0
H1111 H 0.23552 0.23786 0.07591 0.0
H1112 H 0.21042 0.19299 0.15488 0.0
H1113 H 0.23223 0.1799 0.17494 0.0
H1114 H 0.21894 0.1622 0.15077 0.0
H1115 H 0.26228 0.15234 0.13517 0.0
H1116 H 0.27566 0.17048 0.15903 0.0
H1117 H 0.28304 0.17638 0.12794 0.0
H1118 H 0.25284 0.26354 0.11007 0.0
H1119 H 0.26634 0.28179 0.14895 0.0
H1120 H 0.26462 0.21172 0.18149 0.0
C1121 C 0.22751 0.17241 0.0985 0.0
C1122 C 0.2205 0.17811 0.07478 0.0
C1123 C 0.22335 0.2019 0.06676 0.0
C1124 C 0.23332 0.21972 0.08208 0.0
C1125 C 0.24056 0.21335 0.1052 0.0
C1126 C 0.23768 0.19029 0.11338 0.0
C1127 C 0.24667 0.18803 0.13903 0.0
C1128 C 0.22582 0.18034 0.15589 0.0
C1129 C 0.26819 0.17079 0.14035 0.0
C1130 C 0.25478 0.21351 0.14415 0.0
C1131 C 0.25121 0.22789 0.12446 0.0
C1132 C 0.25597 0.25241 0.12555 0.0
C1133 C 0.26376 0.2626 0.14766 0.0
C1134 C 0.26671 0.24821 0.16826 0.0
C1135 C 0.26292 0.22325 0.16608 0.0
H1136 H 0.14151 0.0714 0.02299 0.0
H1137 H 0.12217 0.12842 0.9747 0.0
H1138 H 0.08357 0.10734 0.96462 0.0
H1139 H 0.11505 0.02188 0.98903 0.0
H1140 H 0.10344 0.0069 0.01528 0.0
H1141 H 0.13034 0.02557 0.01775 0.0
H1142 H 0.11011 0.05067 0.05188 0.0
H1143 H 0.08333 0.03187 0.04973 0.0
H1144 H 0.08078 0.06373 0.04659 0.0
H1145 H 0.04825 0.07989 0.95884 0.0
H1146 H 0.01403 0.05162 0.96311 0.0
H1147 H 0.05453 0.01353 0.01763 0.0
C1148 C 0.12913 0.07931 0.01023 0.0
C1149 C 0.13473 0.10133 -0.00061 0.0
C1150 C 0.11805 0.11152 0.98316 0.0
C1151 C 0.09625 0.09961 0.97718 0.0
C1152 C 0.09134 0.07777 0.98794 0.0
C1153 C 0.10697 0.06795 0.00455 0.0
C1154 C 0.09627 0.04527 0.01496 0.0
C1155 C 0.11223 0.02363 0.00889 0.0
C1156 C 0.09239 0.04806 0.04241 0.0
C1157 C 0.07225 0.04386 0.0015 0.0
C1158 C 0.07006 0.06256 0.98569 0.0
C1159 C 0.04958 0.06526 0.97128 0.0
C1160 C 0.0303 0.04896 0.97376 0.0
C1161 C 0.03152 0.03033 0.99079 0.0
C1162 C 0.05305 0.02749 0.00441 0.0
H1163 H 0.64528 0.4016 0.05186 0.0
H1164 H 0.70149 0.4498 0.0259 0.0
H1165 H 0.6749 0.48408 0.03399 0.0
H1166 H 0.59837 0.42631 0.0254 0.0
H1167 H 0.57636 0.42298 0.04936 0.0
H1168 H 0.60165 0.40317 0.04738 0.0
H1169 H 0.6144 0.41476 0.09116 0.0
H1170 H 0.58896 0.43473 0.09336 0.0
H1171 H 0.61941 0.44575 0.09933 0.0
H1172 H 0.63964 0.51082 0.03445 0.0
H1173 H 0.59878 0.52778 0.02869 0.0
H1174 H 0.56609 0.46371 0.05806 0.0
C1175 C 0.65219 0.41946 0.04864 0.0
C1176 C 0.67528 0.4231 0.03819 0.0
C1177 C 0.68381 0.44665 0.03399 0.0
C1178 C 0.66891 0.46626 0.03869 0.0
C1179 C 0.64583 0.46208 0.04824 0.0
C1180 C 0.63769 0.43928 0.05367 0.0
C1181 C 0.61118 0.43925 0.06094 0.0
C1182 C 0.59601 0.42193 0.04479 0.0
C1183 C 0.60833 0.43327 0.0878 0.0
C1184 C 0.6051 0.46511 0.05649 0.0
C1185 C 0.62548 0.47816 0.04975 0.0
C1186 C 0.62368 0.50118 0.04064 0.0
C1187 C 0.60045 0.51069 0.03739 0.0
C1188 C 0.57944 0.49724 0.04345 0.0
C1189 C 0.58193 0.47474 0.05422 0.0
H1190 H 0.84622 0.37642 0.19362 0.0
H1191 H 0.78432 0.41995 0.21343 0.0
H1192 H 0.75866 0.38345 0.21616 0.0
H1193 H 0.812 0.32795 0.16011 0.0
H1194 H 0.83168 0.30547 0.17205 0.0
H1195 H 0.84344 0.33512 0.16674 0.0
H1196 H 0.85786 0.33803 0.21138 0.0
H1197 H 0.84571 0.30868 0.21696 0.0
H1198 H 0.83602 0.33373 0.23528 0.0
H1199 H 0.74115 0.34184 0.22116 0.0
H1200 H 0.73353 0.29886 0.22844 0.0
H1201 H 0.80809 0.28355 0.20819 0.0
C1202 C 0.82706 0.37842 0.19766 0.0
C1203 C 0.81718 0.40102 0.20306 0.0
C1204 C 0.79219 0.40278 0.20902 0.0
C1205 C 0.77748 0.38217 0.21059 0.0
C1206 C 0.78812 0.36004 0.20619 0.0
C1207 C 0.81233 0.35809 0.19971 0.0
C1208 C 0.82026 0.33235 0.19877 0.0
C1209 C 0.82725 0.32478 0.17287 0.0
C1210 C 0.84119 0.32796 0.21666 0.0
C1211 C 0.79699 0.32013 0.2066 0.0
C1212 C 0.77847 0.33626 0.21026 0.0
C1213 C 0.75547 0.32904 0.21815 0.0
C1214 C 0.75135 0.30466 0.22234 0.0
C1215 C 0.77032 0.28801 0.21914 0.0
C1216 C 0.79333 0.29593 0.21108 0.0
H1217 H 0.80558 0.57689 0.5053 0.0
H1218 H 0.78649 0.55337 0.57738 0.0
H1219 H 0.81729 0.52196 0.57445 0.0
H1220 H 0.81677 0.51737 0.47981 0.0
H1221 H 0.84202 0.5274 0.46167 0.0
H1222 H 0.81763 0.54752 0.46885 0.0
H1223 H 0.84875 0.57802 0.48716 0.0
H1224 H 0.87321 0.55803 0.48 0.0
H1225 H 0.86917 0.5687 0.51064 0.0
H1226 H 0.85172 0.49499 0.56512 0.0
H1227 H 0.88733 0.47334 0.5493 0.0
H1228 H 0.88333 0.51329 0.48284 0.0
C1229 C 0.80776 0.56504 0.5204 0.0
C1230 C 0.79361 0.56763 0.54156 0.0
C1231 C 0.79706 0.55175 0.56094 0.0
C1232 C 0.81449 0.5338 0.55947 0.0
C1233 C 0.8282 0.53182 0.53844 0.0
C1234 C 0.82499 0.54688 0.51919 0.0
C1235 C 0.84261 0.54123 0.49893 0.0
C1236 C 0.82893 0.53288 0.47596 0.0
C1237 C 0.85943 0.56278 0.4939 0.0
C1238 C 0.85648 0.52096 0.51004 0.0
C1239 C 0.84783 0.5158 0.53282 0.0
C1240 C 0.85851 0.49863 0.54719 0.0
C1241 C 0.87874 0.4865 0.53809 0.0
C1242 C 0.88795 0.49153 0.51481 0.0
C1243 C 0.87644 0.50879 0.50055 0.0
H1244 H 0.12367 0.12985 0.28326 0.0
H1245 H 0.17474 0.07229 0.2713 0.0
H1246 H 0.20892 0.10141 0.27366 0.0
H1247 H 0.15309 0.17152 0.24703 0.0
H1248 H 0.14645 0.19691 0.26624 0.0
H1249 H 0.12647 0.17121 0.26605 0.0
H1250 H 0.13173 0.16774 0.31248 0.0
H1251 H 0.15185 0.19344 0.31278 0.0
H1252 H 0.16189 0.16565 0.32514 0.0
H1253 H 0.23716 0.13758 0.2732 0.0
H1254 H 0.25668 0.17748 0.26996 0.0
H1255 H 0.18678 0.21054 0.28339 0.0
C1256 C 0.14204 0.12324 0.2815 0.0
C1257 C 0.1465 0.09877 0.27713 0.0
C1258 C 0.17085 0.09096 0.27475 0.0
C1259 C 0.1904 0.10735 0.27611 0.0
C1260 C 0.1853 0.13142 0.2801 0.0
C1261 C 0.16169 0.13929 0.28289 0.0
C1262 C 0.16085 0.16618 0.28551 0.0
C1263 C 0.14584 0.17708 0.26499 0.0
C1264 C 0.151 0.17369 0.31047 0.0
C1265 C 0.18761 0.1723 0.28319 0.0
C1266 C 0.20151 0.15208 0.28023 0.0
C1267 C 0.22651 0.15353 0.27591 0.0
C1268 C 0.23744 0.17627 0.2741 0.0
C1269 C 0.22334 0.19718 0.27661 0.0
C1270 C 0.19823 0.19499 0.28177 0.0
H1271 H 0.28688 0.94153 0.52956 0.0
H1272 H 0.23786 0.00073 0.51924 0.0
H1273 H 0.27205 0.02523 0.50399 0.0
H1274 H 0.34036 0.9772 0.54791 0.0
H1275 H 0.36107 0.95785 0.53195 0.0
H1276 H 0.33302 0.9459 0.54382 0.0
H1277 H 0.32181 0.92952 0.50105 0.0
H1278 H 0.34954 0.94196 0.48894 0.0
H1279 H 0.32058 0.94978 0.47611 0.0
H1280 H 0.31101 0.04274 0.48868 0.0
H1281 H 0.35318 0.05325 0.47713 0.0
H1282 H 0.37627 0.98195 0.49554 0.0
C1283 C 0.28347 0.95985 0.52469 0.0
C1284 C 0.2598 0.96935 0.52577 0.0
C1285 C 0.25592 0.99319 0.51865 0.0
C1286 C 0.27517 0.00718 0.50987 0.0
C1287 C 0.2981 -0.00302 0.50817 0.0
C1288 C 0.30241 0.97396 0.51558 0.0
C1289 C 0.3286 0.96705 0.51117 0.0
C1290 C 0.34153 0.96169 0.53514 0.0
C1291 C 0.33021 0.94582 0.49325 0.0
C1292 C 0.33832 0.9898 0.50014 0.0
C1293 C 0.32042 0.00683 0.49858 0.0
C1294 C 0.32519 0.02955 0.48974 0.0
C1295 C 0.34913 0.03531 0.48311 0.0
C1296 C 0.36788 0.01833 0.4852 0.0
C1297 C 0.36222 -0.00488 0.49326 0.0
H1298 H 0.8432 0.5572 0.25858 0.0
H1299 H 0.77359 0.52009 0.25218 0.0
H1300 H 0.75267 0.55895 0.2512 0.0
H1301 H 0.82223 0.60971 0.29443 0.0
H1302 H 0.84209 0.62966 0.27819 0.0
H1303 H 0.85075 0.5991 0.28258 0.0
H1304 H 0.85606 0.59376 0.23625 0.0
H1305 H 0.84686 0.62407 0.23165 0.0
H1306 H 0.83082 0.59982 0.21649 0.0
H1307 H 0.73988 0.60208 0.24726 0.0
H1308 H 0.7363 0.6457 0.24174 0.0
H1309 H 0.81483 0.65349 0.24786 0.0
C1310 C 0.82349 0.55721 0.25786 0.0
C1311 C 0.80996 0.53567 0.25581 0.0
C1312 C 0.78425 0.53643 0.25407 0.0
C1313 C 0.77223 0.55841 0.25342 0.0
C1314 C 0.78625 0.57935 0.25439 0.0
C1315 C 0.81132 0.57889 0.25675 0.0
C1316 C 0.82246 0.60366 0.25514 0.0
C1317 C 0.83512 0.61096 0.27901 0.0
C1318 C 0.84008 0.60541 0.2336 0.0
C1319 C 0.79983 0.61809 0.25103 0.0
C1320 C 0.77907 0.60388 0.25098 0.0
C1321 C 0.75602 0.61338 0.24738 0.0
C1322 C 0.75417 0.63812 0.24413 0.0
C1323 C 0.77529 0.65294 0.24411 0.0
C1324 C 0.79836 0.64263 0.24744 0.0
H1325 H 0.67635 0.43389 0.74811 0.0
H1326 H 0.73241 0.47513 0.71186 0.0
H1327 H 0.75391 0.43772 0.70132 0.0
H1328 H 0.71565 0.39015 0.77317 0.0
H1329 H 0.6938 0.36614 0.76894 0.0
H1330 H 0.6835 0.39626 0.7735 0.0
H1331 H 0.65885 0.39295 0.73348 0.0
H1332 H 0.66935 0.3629 0.72866 0.0
H1333 H 0.67425 0.385 0.70579 0.0
H1334 H 0.76961 0.39472 0.69564 0.0
H1335 H 0.77804 0.35126 0.6965 0.0
H1336 H 0.71007 0.3398 0.73487 0.0
C1337 C 0.69321 0.43514 0.73805 0.0
C1338 C 0.70275 0.45743 0.73089 0.0
C1339 C 0.7248 0.45822 0.71761 0.0
C1340 C 0.73709 0.43706 0.71148 0.0
C1341 C 0.72698 0.41531 0.71862 0.0
C1342 C 0.70553 0.41432 0.73166 0.0
C1343 C 0.69831 0.38894 0.73736 0.0
C1344 C 0.6978 0.38516 0.76487 0.0
C1345 C 0.67374 0.38205 0.72561 0.0
C1346 C 0.71905 0.3757 0.72556 0.0
C1347 C 0.73552 0.39103 0.71486 0.0
C1348 C 0.75668 0.38256 0.70382 0.0
C1349 C 0.76128 0.35784 0.70427 0.0
C1350 C 0.74471 0.34199 0.71561 0.0
C1351 C 0.72313 0.35122 0.72584 0.0
H1352 H 0.03252 0.82865 0.97579 0.0
H1353 H 0.96735 0.78771 0.99264 0.0
H1354 H 0.95726 0.81705 0.02458 0.0
H1355 H 0.04282 0.85562 0.04079 0.0
H1356 H 0.05276 0.88336 0.02773 0.0
H1357 H 0.05952 0.85535 0.01276 0.0
H1358 H 0.03906 0.87029 0.97368 0.0
H1359 H 0.03221 0.89806 0.98843 0.0
H1360 H 0.00799 0.88032 0.9749 0.0
H1361 H 0.94756 0.85524 0.04404 0.0
H1362 H 0.93969 0.89818 0.04963 0.0
H1363 H 0.01145 0.915 0.0219 0.0
C1364 C 0.01668 0.82534 0.98692 0.0
C1365 C 0.00064 0.80604 0.98165 0.0
C1366 C 0.97996 0.80235 -0.00361 0.0
C1367 C 0.97416 0.81889 0.01471 0.0
C1368 C 0.98948 0.83871 0.01836 0.0
C1369 C 0.01067 0.84174 0.00518 0.0
C1370 C 0.02164 0.86644 0.00923 0.0
C1371 C 0.0456 0.8651 0.02348 0.0
C1372 C 0.02539 0.87952 0.98515 0.0
C1373 C 0.00189 0.87773 0.02447 0.0
C1374 C 0.98396 0.86119 0.03034 0.0
C1375 C 0.96185 0.86817 0.04041 0.0
C1376 C 0.95747 0.89261 0.04342 0.0
C1377 C 0.97512 0.90974 0.03638 0.0
C1378 C -0.00197 0.90216 0.0281 0.0
H1379 H 0.95083 0.24933 0.68105 0.0
H1380 H 0.97458 0.21518 0.74671 0.0
H1381 H 0.94082 0.23437 0.76911 0.0
H1382 H 0.92879 0.30548 0.70895 0.0
H1383 H 0.90319 0.30655 0.68857 0.0
H1384 H 0.93125 0.29316 0.67874 0.0
H1385 H 0.90804 0.25387 0.66743 0.0
H1386 H 0.87999 0.26725 0.67686 0.0
H1387 H 0.8894 0.23955 0.6899 0.0
H1388 H 0.90253 0.25459 0.78327 0.0
H1389 H 0.86033 0.26862 0.78674 0.0
H1390 H 0.86149 0.28847 0.71126 0.0
C1391 C 0.94927 0.2462 0.70026 0.0
C1392 C 0.96545 0.23093 0.71222 0.0
C1393 C 0.9624 0.22687 0.73722 0.0
C1394 C 0.94345 0.23789 0.75011 0.0
C1395 C 0.92781 0.25287 0.73769 0.0
C1396 C 0.93044 0.2568 0.71324 0.0
C1397 C 0.90966 0.27117 0.70334 0.0
C1398 C 0.91878 0.29554 0.69437 0.0
C1399 C 0.89597 0.25711 0.68322 0.0
C1400 C 0.89433 0.27397 0.72584 0.0
C1401 C 0.90541 0.26392 0.74564 0.0
C1402 C 0.89383 0.26277 0.76798 0.0
C1403 C 0.86986 0.27096 0.7698 0.0
C1404 C 0.85759 0.27966 0.74923 0.0
C1405 C 0.87045 0.28214 0.72734 0.0
H1406 H 0.47485 0.20818 0.37912 0.0
H1407 H 0.47528 0.2541 0.44309 0.0
H1408 H 0.45344 0.22265 0.46569 0.0
H1409 H 0.4153 0.17723 0.39011 0.0
H1410 H 0.42689 0.14913 0.37904 0.0
H1411 H 0.43822 0.17678 0.36683 0.0
H1412 H 0.48242 0.1649 0.37753 0.0
H1413 H 0.47125 0.13727 0.38953 0.0
H1414 H 0.48961 0.15714 0.40821 0.0
H1415 H 0.43632 0.18456 0.4824 0.0
H1416 H 0.42943 0.14233 0.49284 0.0
H1417 H 0.44118 0.12143 0.41792 0.0
C1418 C 0.46982 0.21189 0.39772 0.0
C1419 C 0.47657 0.23359 0.40935 0.0
C1420 C 0.47017 0.23757 0.43384 0.0
C1421 C 0.45759 0.21991 0.44673 0.0
C1422 C 0.45154 0.1985 0.43479 0.0
C1423 C 0.45753 0.19444 0.41082 0.0
C1424 C 0.45201 0.16896 0.40296 0.0
C1425 C 0.4319 0.16798 0.38359 0.0
C1426 C 0.4752 0.15634 0.39406 0.0
C1427 C 0.44303 0.15894 0.42655 0.0
C1428 C 0.4422 0.17636 0.44455 0.0
C1429 C 0.43648 0.17085 0.46837 0.0
C1430 C 0.43252 0.14681 0.47412 0.0
C1431 C 0.4348 0.12862 0.45617 0.0
C1432 C 0.43913 0.13496 0.43197 0.0
H1433 H 0.57756 0.75409 0.18071 0.0
H1434 H 0.60243 0.77937 0.11108 0.0
H1435 H 0.64507 0.77594 0.12456 0.0
H1436 H 0.62336 0.78364 0.21698 0.0
H1437 H 0.6266 0.75924 0.23754 0.0
H1438 H 0.59797 0.76372 0.22247 0.0
H1439 H 0.59901 0.72031 0.20547 0.0
H1440 H 0.62771 0.71573 0.22041 0.0
H1441 H 0.62503 0.7106 0.18825 0.0
H1442 H 0.6845 0.77146 0.1458 0.0
H1443 H 0.71898 0.76498 0.17335 0.0
H1444 H 0.66908 0.74042 0.22863 0.0
C1445 C 0.59201 0.75897 0.16836 0.0
C1446 C 0.58677 0.76711 0.14491 0.0
C1447 C 0.60609 0.77309 0.12912 0.0
C1448 C 0.63033 0.7712 0.1366 0.0
C1449 C 0.63489 0.76304 0.15978 0.0
C1450 C 0.61634 0.75688 0.17541 0.0
C1451 C 0.62632 0.74842 0.1993 0.0
C1452 C 0.61807 0.76473 0.22031 0.0
C1453 C 0.61908 0.7222 0.2036 0.0
C1454 C 0.65339 0.75106 0.19473 0.0
C1455 C 0.65785 0.75961 0.17183 0.0
C1456 C 0.68128 0.76456 0.16368 0.0
C1457 C 0.70071 0.76084 0.17945 0.0
C1458 C 0.69665 0.75203 0.20297 0.0
C1459 C 0.67269 0.74681 0.2106 0.0
H1460 H 0.01096 0.12105 0.62365 0.0
H1461 H 0.96509 0.17652 0.59506 0.0
H1462 H 0.95006 0.14848 0.56333 0.0
H1463 H 0.0287 0.09662 0.56681 0.0
H1464 H 0.02844 0.06607 0.57659 0.0
H1465 H 0.03457 0.08996 0.59804 0.0
H1466 H -0.00095 0.07522 0.6251 0.0
H1467 H -0.00685 0.05106 0.60391 0.0
H1468 H 0.9691 0.0712 0.61215 0.0
H1469 H 0.93977 0.11422 0.53489 0.0
H1470 H 0.93511 0.07605 0.51193 0.0
H1471 H 0.98976 0.04423 0.55761 0.0
C1472 C -0.0025 0.12719 0.61093 0.0
C1473 C 0.98909 0.1509 0.61188 0.0
C1474 C 0.97177 0.1584 0.59466 0.0
C1475 C 0.96313 0.14263 0.57656 0.0
C1476 C 0.97217 0.11952 0.57582 0.0
C1477 C 0.98894 0.1118 0.59256 0.0
C1478 C -0.00377 0.08626 0.58738 0.0
C1479 C 0.02361 0.08465 0.58187 0.0
C1480 C 0.98894 0.06998 0.60838 0.0
C1481 C 0.98103 0.08089 0.56507 0.0
C1482 C 0.9671 0.1002 0.55879 0.0
C1483 C 0.95075 0.09903 0.53948 0.0
C1484 C 0.94828 0.07737 0.5265 0.0
C1485 C 0.96239 0.05741 0.53273 0.0
C1486 C 0.9792 0.0594 0.55202 0.0
H1487 H 0.58197 0.26588 0.30871 0.0
H1488 H 0.60006 0.24531 0.38178 0.0
H1489 H 0.6375 0.22594 0.36649 0.0
H1490 H 0.60242 0.21309 0.27846 0.0
H1491 H 0.61427 0.22885 0.25279 0.0
H1492 H 0.58907 0.24087 0.26962 0.0
H1493 H 0.6131 0.28056 0.27677 0.0
H1494 H 0.6383 0.26874 0.25981 0.0
H1495 H 0.64299 0.27986 0.29025 0.0
H1496 H 0.67252 0.208 0.3425 0.0
H1497 H 0.70357 0.19573 0.31258 0.0
H1498 H 0.66214 0.22936 0.25587 0.0
C1499 C 0.59378 0.25731 0.32155 0.0
C1500 C 0.58812 0.25695 0.3464 0.0
C1501 C 0.60414 0.24577 0.36265 0.0
C1502 C 0.62534 0.23467 0.35412 0.0
C1503 C 0.63022 0.23514 0.32939 0.0
C1504 C 0.61497 0.2464 0.31342 0.0
C1505 C 0.62441 0.24495 0.28781 0.0
C1506 C 0.60647 0.23111 0.2712 0.0
C1507 C 0.63004 0.27002 0.2781 0.0
C1508 C 0.6474 0.23105 0.29177 0.0
C1509 C 0.65041 0.22536 0.3158 0.0
C1510 C 0.67035 0.21241 0.32366 0.0
C1511 C 0.68781 0.20542 0.30652 0.0
C1512 C 0.68526 0.21161 0.2819 0.0
C1513 C 0.66466 0.22443 0.27455 0.0
H1514 H 0.49858 0.85694 0.09993 0.0
H1515 H 0.47559 0.80405 0.046 0.0
H1516 H 0.4524 0.83495 0.02477 0.0
H1517 H 0.44428 0.88873 0.10449 0.0
H1518 H 0.45842 0.91792 0.10655 0.0
H1519 H 0.4744 0.89225 0.11722 0.0
H1520 H 0.51081 0.90142 0.08941 0.0
H1521 H 0.49583 0.92745 0.07813 0.0
H1522 H 0.50595 0.9046 0.05742 0.0
H1523 H 0.43236 0.87233 0.00914 0.0
H1524 H 0.42073 0.9135 -0.00132 0.0
H1525 H 0.45451 0.93995 0.06509 0.0
C1526 C 0.48882 0.85185 0.08356 0.0
C1527 C 0.48878 0.82813 0.07465 0.0
C1528 C 0.47591 0.82221 0.05309 0.0
C1529 C 0.46253 0.83956 0.04103 0.0
C1530 C 0.46227 0.86264 0.05081 0.0
C1531 C 0.4754 0.86883 0.07139 0.0
C1532 C 0.47302 0.89497 0.07776 0.0
C1533 C 0.46187 0.89866 0.10301 0.0
C1534 C 0.49786 0.90786 0.07557 0.0
C1535 C 0.45577 0.9024 0.0581 0.0
C1536 C 0.45001 0.88368 0.04245 0.0
C1537 C 0.43643 0.88706 0.02147 0.0
C1538 C 0.42969 0.91043 0.01579 0.0
C1539 C 0.43632 0.9299 0.03123 0.0
C1540 C 0.44846 0.92548 0.05319 0.0
H1541 H 0.93386 0.76315 0.86272 0.0
H1542 H 0.96106 0.8363 0.8639 0.0
H1543 H 0.92547 0.84846 0.83964 0.0
H1544 H 0.91238 0.76335 0.80126 0.0
H1545 H 0.88629 0.74455 0.8074 0.0
H1546 H 0.9136 0.74192 0.82518 0.0
H1547 H 0.88878 0.74932 0.86437 0.0
H1548 H 0.8614 0.75194 0.84673 0.0
H1549 H 0.87058 0.77579 0.86722 0.0
H1550 H 0.88582 0.85261 0.81693 0.0
H1551 H 0.8467 0.84808 0.79497 0.0
H1552 H 0.8475 0.77164 0.80674 0.0
C1553 C 0.93229 0.78176 0.85797 0.0
C1554 C 0.95 0.79887 0.86531 0.0
C1555 C 0.94759 0.82296 0.85842 0.0
C1556 C 0.92747 0.83001 0.84472 0.0
C1557 C 0.91028 0.81263 0.83782 0.0
C1558 C 0.91267 0.78897 0.844 0.0
C1559 C 0.89209 0.77363 0.83387 0.0
C1560 C 0.90167 0.75475 0.81585 0.0
C1561 C 0.87734 0.762 0.85427 0.0
C1562 C 0.87752 0.7924 0.82122 0.0
C1563 C 0.88818 0.81482 0.82385 0.0
C1564 C 0.87744 0.83512 0.81454 0.0
C1565 C 0.85524 0.83238 0.80219 0.0
C1566 C 0.84427 0.80948 0.79903 0.0
C1567 C 0.85568 0.78929 0.80858 0.0
H1568 H 0.96124 0.98429 0.81935 0.0
H1569 H 0.88831 0.95618 0.80841 0.0
H1570 H 0.88884 0.93895 0.84927 0.0
H1571 H 0.98349 0.93605 0.86358 0.0
H1572 H -0.00038 0.95869 0.88104 0.0
H1573 H -0.0031 0.96142 0.8487 0.0
H1574 H 0.97815 0.00333 0.85479 0.0
H1575 H 0.9806 0.00068 0.88691 0.0
H1576 H 0.95141 0.00651 0.87341 0.0
H1577 H 0.89333 0.93333 0.89345 0.0
H1578 H 0.90051 0.94179 0.93699 0.0
H1579 H 0.96984 0.97507 0.91973 0.0
C1580 C 0.94604 0.97332 0.82523 0.0
C1581 C 0.92504 0.97082 0.81085 0.0
C1582 C 0.90476 0.95761 0.81921 0.0
C1583 C 0.90497 0.94774 0.84231 0.0
C1584 C 0.92558 0.95141 0.85674 0.0
C1585 C 0.94588 0.96377 0.84842 0.0
C1586 C 0.96359 0.96948 0.86872 0.0
C1587 C 0.98731 0.95557 0.8653 0.0
C1588 C 0.96869 -0.00341 0.87109 0.0
C1589 C 0.94922 0.96021 0.88997 0.0
C1590 C 0.9278 0.94899 0.88268 0.0
C1591 C 0.91033 0.9415 0.89937 0.0
C1592 C 0.9145 0.94638 0.92403 0.0
C1593 C 0.93566 0.95911 0.93151 0.0
C1594 C 0.95356 0.9652 0.91436 0.0
H1595 H 0.74994 0.18803 0.55588 0.0
H1596 H 0.76393 0.11595 0.57922 0.0
H1597 H 0.78151 0.13193 0.61737 0.0
H1598 H 0.80327 0.21836 0.58648 0.0
H1599 H 0.7856 0.24404 0.59506 0.0
H1600 H 0.77834 0.22751 0.56767 0.0
H1601 H 0.73398 0.22147 0.58246 0.0
H1602 H 0.74107 0.238 0.60978 0.0
H1603 H 0.72859 0.20813 0.61144 0.0
H1604 H 0.7933 0.15456 0.65391 0.0
H1605 H 0.7951 0.18215 0.68889 0.0
H1606 H 0.77176 0.24022 0.64368 0.0
C1607 C 0.75735 0.17576 0.56883 0.0
C1608 C 0.75599 0.15082 0.56466 0.0
C1609 C 0.76501 0.13512 0.58218 0.0
C1610 C 0.77518 0.14404 0.60375 0.0
C1611 C 0.77594 0.1687 0.60758 0.0
C1612 C 0.76709 0.1844 0.59077 0.0
C1613 C 0.76707 0.20979 0.60087 0.0
C1614 C 0.78462 0.22587 0.58667 0.0
C1615 C 0.74114 0.21993 0.60116 0.0
C1616 C 0.77645 0.20573 0.62626 0.0
C1617 C 0.78201 0.18195 0.62941 0.0
C1618 C 0.78931 0.17327 0.65163 0.0
C1619 C 0.79018 0.18908 0.6714 0.0
C1620 C 0.78358 0.21331 0.66895 0.0
C1621 C 0.77734 0.22191 0.64593 0.0
H1622 H 0.52727 0.01064 0.2964 0.0
H1623 H 0.55197 0.93951 0.31315 0.0
H1624 H 0.52951 0.94132 0.35192 0.0
H1625 H 0.53437 0.03428 0.35628 0.0
H1626 H 0.50826 0.05334 0.35441 0.0
H1627 H 0.52484 0.04551 0.32746 0.0
H1628 H 0.48494 0.02912 0.30783 0.0
H1629 H 0.46828 0.03665 0.33487 0.0
H1630 H 0.46742 0.00645 0.32304 0.0
H1631 H 0.50386 0.95093 0.38852 0.0
H1632 H 0.48224 0.96971 0.42293 0.0
H1633 H 0.47685 0.03547 0.38296 0.0
C1634 C 0.52782 -0.00461 0.30818 0.0
C1635 C 0.5411 0.97485 0.30182 0.0
C1636 C 0.54186 0.95541 0.31782 0.0
C1637 C 0.52902 0.95621 0.33972 0.0
C1638 C 0.51587 0.97669 0.34536 0.0
C1639 C 0.51556 -0.00391 0.33024 0.0
C1640 C 0.50161 0.01666 0.34126 0.0
C1641 C 0.51827 0.03874 0.34508 0.0
C1642 C 0.47923 0.02256 0.32583 0.0
C1643 C 0.4942 0.00587 0.36504 0.0
C1644 C 0.50215 0.98264 0.36687 0.0
C1645 C 0.49756 0.9691 0.38731 0.0
C1646 C 0.48514 0.97986 0.40667 0.0
C1647 C 0.47793 0.00402 0.40554 0.0
C1648 C 0.48217 0.01697 0.38428 0.0
H1649 H 0.73477 0.7857 0.07525 0.0
H1650 H 0.77912 0.85026 0.07519 0.0
H1651 H 0.80832 0.83188 0.10284 0.0
H1652 H 0.73658 0.77817 0.13396 0.0
H1653 H 0.73789 0.74598 0.13444 0.0
H1654 H 0.7249 0.76045 0.10892 0.0
H1655 H 0.75509 0.73896 0.08034 0.0
H1656 H 0.76823 0.72415 0.10586 0.0
H1657 H 0.78737 0.74137 0.08605 0.0
H1658 H 0.8262 0.81199 0.13719 0.0
H1659 H 0.83026 0.79272 0.17671 0.0
H1660 H 0.77554 0.74009 0.15566 0.0
C1661 C 0.75125 0.79542 0.08025 0.0
C1662 C 0.75492 0.81922 0.07301 0.0
C1663 C 0.77611 0.83192 0.08053 0.0
C1664 C 0.79291 0.82153 0.09604 0.0
C1665 C 0.7883 0.79839 0.10388 0.0
C1666 C 0.76806 0.78535 0.09612 0.0
C1667 C 0.76487 0.76282 0.11066 0.0
C1668 C 0.73959 0.76183 0.12272 0.0
C1669 C 0.76915 0.7405 0.09478 0.0
C1670 C 0.78516 0.76631 0.12909 0.0
C1671 C 0.79901 0.78651 0.12426 0.0
C1672 C 0.81618 0.79564 0.14071 0.0
C1673 C 0.81845 0.7846 0.16309 0.0
C1674 C 0.80377 0.76457 0.16871 0.0
C1675 C 0.78776 0.75469 0.15115 0.0
H1676 H 0.94609 0.02663 0.70148 0.0
H1677 H 0.88869 0.07857 0.69344 0.0
H1678 H 0.88101 0.06366 0.65204 0.0
H1679 H 0.96678 0.02698 0.63718 0.0
H1680 H 0.97246 -0.00466 0.63718 0.0
H1681 H 0.97596 0.01277 0.66467 0.0
H1682 H 0.94586 0.9839 0.68592 0.0
H1683 H 0.94153 0.96689 0.6583 0.0
H1684 H 0.91565 0.97947 0.67369 0.0
H1685 H 0.87505 0.03949 0.61455 0.0
H1686 H 0.87759 0.01319 0.57852 0.0
H1687 H 0.93818 0.97611 0.61082 0.0
C1688 C 0.93228 0.03522 0.69086 0.0
C1689 C 0.91752 0.05329 0.70098 0.0
C1690 C 0.90005 0.06449 0.68622 0.0
C1691 C 0.89538 0.05601 0.66272 0.0
C1692 C 0.90861 0.03662 0.65418 0.0
C1693 C 0.92722 0.02683 0.66741 0.0
C1694 C 0.93805 0.00554 0.65422 0.0
C1695 C 0.9649 0.01045 0.64793 0.0
C1696 C 0.93509 0.9826 0.66892 0.0
C1697 C 0.92221 0.00463 0.63178 0.0
C1698 C 0.90528 0.02268 0.63226 0.0
C1699 C 0.88843 0.02548 0.61377 0.0
C1700 C 0.88984 0.01028 0.59353 0.0
C1701 C 0.90802 0.99259 0.59193 0.0
C1702 C 0.92384 0.9892 0.6117 0.0
H1703 H 0.76028 0.19547 0.41641 0.0
H1704 H 0.79996 0.12933 0.42173 0.0
H1705 H 0.82016 0.13736 0.38301 0.0
H1706 H 0.74505 0.1886 0.3586 0.0
H1707 H 0.74772 0.21938 0.34982 0.0
H1708 H 0.74186 0.21234 0.38078 0.0
H1709 H 0.78005 0.23698 0.39405 0.0
H1710 H 0.78606 0.24408 0.36292 0.0
H1711 H 0.80924 0.2303 0.38087 0.0
H1712 H 0.82738 0.14624 0.34065 0.0
H1713 H 0.82121 0.15591 0.29768 0.0
H1714 H 0.7787 0.21727 0.31882 0.0
C1715 C 0.77403 0.1833 0.40985 0.0
C1716 C 0.77872 0.16191 0.422 0.0
C1717 C 0.79618 0.14587 0.41264 0.0
C1718 C 0.80791 0.15039 0.39076 0.0
C1719 C 0.8021 0.17108 0.37852 0.0
C1720 C 0.78574 0.18746 0.38781 0.0
C1721 C 0.77958 0.20607 0.36929 0.0
C1722 C 0.75194 0.20659 0.36433 0.0
C1723 C 0.78933 0.23083 0.37726 0.0
C1724 C 0.79354 0.19652 0.34766 0.0
C1725 C 0.80693 0.17667 0.35357 0.0
C1726 C 0.81788 0.16232 0.33591 0.0
C1727 C 0.81432 0.16787 0.3116 0.0
C1728 C 0.80025 0.18773 0.30532 0.0
C1729 C 0.79053 0.20271 0.32348 0.0
H1730 H 0.5386 0.94129 0.17692 0.0
H1731 H 0.61148 0.96961 0.16497 0.0
H1732 H 0.59553 -0.00392 0.1337 0.0
H1733 H 0.52131 0.9413 0.11337 0.0
H1734 H 0.49007 0.94895 0.11952 0.0
H1735 H 0.50711 0.93224 0.14115 0.0
H1736 H 0.49787 0.96409 0.17415 0.0
H1737 H 0.481 0.98125 0.1527 0.0
H1738 H 0.50604 -0.00509 0.16917 0.0
H1739 H 0.57149 0.02151 0.1062 0.0
H1740 H 0.54297 0.03679 0.07596 0.0
H1741 H 0.48584 0.99054 0.10376 0.0
C1742 C 0.55125 0.9527 0.16731 0.0
C1743 C 0.57626 0.95334 0.17331 0.0
C1744 C 0.59229 0.96856 0.16047 0.0
C1745 C 0.58334 0.98396 0.14295 0.0
C1746 C 0.55841 0.9837 0.1383 0.0
C1747 C 0.54269 0.96794 0.14949 0.0
C1748 C 0.51695 0.97029 0.14002 0.0
C1749 C 0.50834 0.94679 0.12778 0.0
C1750 C 0.49944 0.9781 0.16023 0.0
C1751 C 0.52063 0.98992 0.12179 0.0
C1752 C 0.54461 -0.00226 0.12158 0.0
C1753 C 0.5527 0.01543 0.10605 0.0
C1754 C 0.53627 0.02418 0.08911 0.0
C1755 C 0.51216 0.01487 0.08747 0.0
C1756 C 0.50396 -0.00163 0.10483 0.0
H1757 H 0.69968 0.8297 0.95343 0.0
H1758 H 0.67996 0.90357 0.94232 0.0
H1759 H 0.68853 0.89876 0.89877 0.0
H1760 H 0.74849 0.82746 0.91281 0.0
H1761 H 0.7421 0.7976 0.9016 0.0
H1762 H 0.73295 0.80622 0.93169 0.0
H1763 H 0.68834 0.79393 0.92175 0.0
H1764 H 0.69739 0.78511 0.89163 0.0
H1765 H 0.67347 0.80651 0.89592 0.0
H1766 H 0.70392 0.88757 0.85784 0.0
H1767 H 0.72091 0.86924 0.82069 0.0
H1768 H 0.72748 0.80167 0.85717 0.0
C1769 C 0.69687 0.84475 0.94176 0.0
C1770 C 0.68922 0.86703 0.95125 0.0
C1771 C 0.68567 0.88631 0.93542 0.0
C1772 C 0.69055 0.88378 0.91068 0.0
C1773 C 0.69848 0.86173 0.90198 0.0
C1774 C 0.70119 0.8424 0.91692 0.0
C1775 C 0.71025 0.82076 0.90294 0.0
C1776 C 0.73491 0.81254 0.91285 0.0
C1777 C 0.69122 0.80037 0.90307 0.0
C1778 C 0.7129 0.83117 0.87797 0.0
C1779 C 0.70613 0.85488 0.8779 0.0
C1780 C 0.70879 0.8689 0.85751 0.0
C1781 C 0.71856 0.8584 0.83659 0.0
C1782 C 0.72516 0.83406 0.83613 0.0
C1783 C 0.72207 0.8202 0.857 0.0
H1784 H 0.76634 0.90501 0.03664 0.0
H1785 H 0.72398 0.96983 0.04197 0.0
H1786 H 0.76211 -0.00632 0.04601 0.0
H1787 H 0.81464 0.92299 0.0786 0.0
H1788 H 0.83783 0.90872 0.06067 0.0
H1789 H 0.80716 0.89688 0.06041 0.0
H1790 H 0.80577 0.90011 0.01372 0.0
H1791 H 0.83639 0.91188 0.01381 0.0
H1792 H 0.8123 0.92846 0.0 0.0
H1793 H 0.80547 0.01043 0.04763 0.0
H1794 H 0.8498 0.01854 0.04386 0.0
H1795 H 0.86239 0.9424 0.03644 0.0
C1796 C 0.76496 0.92419 0.03897 0.0
C1797 C 0.74219 0.93555 0.03911 0.0
C1798 C 0.74127 0.96075 0.04184 0.0
C1799 C 0.7628 0.97442 0.04427 0.0
C1800 C 0.78499 0.96259 0.0439 0.0
C1801 C 0.78614 0.93803 0.04122 0.0
C1802 C 0.81209 0.92961 0.0397 0.0
C1803 C 0.81829 0.91361 0.06112 0.0
C1804 C 0.81691 0.91677 0.01536 0.0
C1805 C 0.82545 0.9533 0.04146 0.0
C1806 C 0.80964 0.97215 0.04426 0.0
C1807 C 0.81802 -0.00421 0.04558 0.0
C1808 C 0.84318 0.00023 0.04349 0.0
C1809 C 0.85945 0.9811 0.03976 0.0
C1810 C 0.85039 0.95741 0.03919 0.0
H1811 H 0.32705 0.5711 0.01325 0.0
H1812 H 0.31069 0.51413 0.06318 0.0
H1813 H 0.34267 0.48942 0.04384 0.0
H1814 H 0.33928 0.53425 0.96069 0.0
H1815 H 0.36379 0.55334 0.9506 0.0
H1816 H 0.33894 0.56582 0.96765 0.0
H1817 H 0.36924 0.58358 -0.00053 0.0
H1818 H 0.39412 0.5717 0.98218 0.0
H1819 H 0.39083 0.56419 0.01357 0.0
H1820 H 0.3776 0.47164 0.01916 0.0
H1821 H 0.41557 0.46502 -0.00376 0.0
H1822 H 0.40773 0.53394 0.96274 0.0
C1823 C 0.33 0.55337 0.02014 0.0
C1824 C 0.31623 0.54449 0.03965 0.0
C1825 C 0.32101 0.52131 0.04824 0.0
C1826 C 0.33896 0.50709 0.03721 0.0
C1827 C 0.3518 0.51631 0.01761 0.0
C1828 C 0.34767 0.53907 0.00943 0.0
C1829 C 0.36484 0.54571 0.98926 0.0
C1830 C 0.35087 0.55003 0.96566 0.0
C1831 C 0.3807 0.56757 -0.00343 0.0
C1832 C 0.37967 0.52324 0.98748 0.0
C1833 C 0.37171 0.50627 0.00366 0.0
C1834 C 0.38376 0.48468 0.00623 0.0
C1835 C 0.40519 0.48095 -0.0071 0.0
C1836 C 0.41445 0.4989 0.97749 0.0
C1837 C 0.40085 0.51976 0.97404 0.0
H1838 H 0.16 0.55503 0.75518 0.0
H1839 H 0.11786 0.57609 0.69283 0.0
H1840 H 0.1394 0.61514 0.6929 0.0
H1841 H 0.15787 0.6119 0.78516 0.0
H1842 H 0.18813 0.61008 0.79762 0.0
H1843 H 0.17074 0.58319 0.79144 0.0
H1844 H 0.20577 0.56721 0.76453 0.0
H1845 H 0.22321 0.59415 0.77053 0.0
H1846 H 0.21671 0.58491 0.73979 0.0
H1847 H 0.16578 0.6517 0.69959 0.0
H1848 H 0.19152 0.68505 0.71546 0.0
H1849 H 0.21408 0.64101 0.77507 0.0
C1850 C 0.15549 0.56782 0.74145 0.0
C1851 C 0.13746 0.5626 0.7239 0.0
C1852 C 0.13163 0.57986 0.70647 0.0
C1853 C 0.14386 0.60198 0.70625 0.0
C1854 C 0.16158 0.60661 0.72381 0.0
C1855 C 0.16713 0.59017 0.7413 0.0
C1856 C 0.18562 0.60023 0.75917 0.0
C1857 C 0.17494 0.60143 0.78486 0.0
C1858 C 0.20923 0.58576 0.75845 0.0
C1859 C 0.18951 0.62491 0.74904 0.0
C1860 C 0.17584 0.6281 0.72839 0.0
C1861 C 0.17653 0.64945 0.71578 0.0
C1862 C 0.19125 0.66823 0.72484 0.0
C1863 C 0.20463 0.66557 0.7465 0.0
C1864 C 0.2039 0.64354 0.75853 0.0
H1865 H 0.15636 0.41814 0.53492 0.0
H1866 H 0.15115 0.34085 0.52832 0.0
H1867 H 0.11118 0.34433 0.50824 0.0
H1868 H 0.09153 0.42895 0.54512 0.0
H1869 H 0.09211 0.45582 0.52764 0.0
H1870 H 0.11905 0.44674 0.54343 0.0
H1871 H 0.14308 0.44795 0.50312 0.0
H1872 H 0.11604 0.45639 0.48708 0.0
H1873 H 0.13251 0.43022 0.47759 0.0
H1874 H 0.07265 0.35647 0.48687 0.0
H1875 H 0.03659 0.37626 0.46998 0.0
H1876 H 0.06867 0.44547 0.48875 0.0
C1877 C 0.14667 0.4019 0.52966 0.0
C1878 C 0.15698 0.37923 0.53309 0.0
C1879 C 0.14362 0.35843 0.52591 0.0
C1880 C 0.12098 0.36023 0.51434 0.0
C1881 C 0.11196 0.38292 0.51009 0.0
C1882 C 0.12422 0.40337 0.51786 0.0
C1883 C 0.11094 0.42564 0.51058 0.0
C1884 C 0.10293 0.44013 0.53302 0.0
C1885 C 0.12658 0.44094 0.49358 0.0
C1886 C 0.08934 0.41453 0.49739 0.0
C1887 C 0.09021 0.38988 0.49729 0.0
C1888 C 0.07179 0.37577 0.48681 0.0
C1889 C 0.05147 0.38718 0.47707 0.0
C1890 C 0.04981 0.41243 0.47781 0.0
C1891 C 0.06944 0.42616 0.48747 0.0
H1892 H 0.82558 0.98568 0.75239 0.0
H1893 H 0.86069 0.97548 0.683 0.0
H1894 H 0.82976 0.94493 0.6717 0.0
H1895 H 0.82029 0.92951 0.76435 0.0
H1896 H 0.79131 0.92987 0.77961 0.0
H1897 H 0.80964 0.95651 0.77887 0.0
H1898 H 0.77406 0.97943 0.75952 0.0
H1899 H 0.75537 0.95272 0.76042 0.0
H1900 H 0.75987 0.96788 0.73226 0.0
H1901 H 0.80258 0.90942 0.67199 0.0
H1902 H 0.78369 0.8714 0.68472 0.0
H1903 H 0.76758 0.90318 0.75475 0.0
C1904 C 0.82593 0.97791 0.73434 0.0
C1905 C 0.84528 0.98301 0.71848 0.0
C1906 C 0.84584 0.97187 0.69534 0.0
C1907 C 0.82823 0.95462 0.68872 0.0
C1908 C 0.81022 0.94878 0.70543 0.0
C1909 C 0.80883 0.96028 0.72775 0.0
C1910 C 0.79135 0.94752 0.74441 0.0
C1911 C 0.80392 0.94042 0.76817 0.0
C1912 C 0.76882 0.9628 0.74943 0.0
C1913 C 0.78487 0.92593 0.72881 0.0
C1914 C 0.79499 0.92746 0.706 0.0
C1915 C 0.79398 0.90829 0.68953 0.0
C1916 C 0.78326 0.88674 0.69691 0.0
C1917 C 0.77431 0.88448 0.72072 0.0
C1918 C 0.77419 0.90459 0.73639 0.0
H1919 H 0.65762 0.1013 0.50065 0.0
H1920 H 0.64934 0.16508 0.4581 0.0
H1921 H 0.60469 0.15806 0.45682 0.0
H1922 H 0.61395 0.06569 0.47099 0.0
H1923 H 0.60285 0.05137 0.49782 0.0
H1924 H 0.63374 0.06238 0.49673 0.0
H1925 H 0.62648 0.08808 0.53539 0.0
H1926 H 0.59554 0.07704 0.5367 0.0
H1927 H 0.60158 0.10876 0.53621 0.0
H1928 H 0.56185 0.14132 0.4564 0.0
H1929 H 0.52337 0.1182 0.45984 0.0
H1930 H 0.55959 0.06697 0.50506 0.0
C1931 C 0.64637 0.11396 0.4913 0.0
C1932 C 0.6568 0.13367 0.47936 0.0
C1933 C 0.64159 0.14991 0.46741 0.0
C1934 C 0.61628 0.14604 0.46658 0.0
C1935 C 0.60661 0.12615 0.4782 0.0
C1936 C 0.62116 0.11061 0.49068 0.0
C1937 C 0.60641 0.09032 0.50127 0.0
C1938 C 0.61474 0.06601 0.49108 0.0
C1939 C 0.60757 0.09111 0.52905 0.0
C1940 C 0.58131 0.09646 0.49223 0.0
C1941 C 0.5818 0.11715 0.4789 0.0
C1942 C 0.56115 0.12537 0.46717 0.0
C1943 C 0.53945 0.11207 0.46912 0.0
C1944 C 0.53856 0.091 0.48291 0.0
C1945 C 0.5597 0.08329 0.49481 0.0
H1946 H 0.16169 0.39848 0.71073 0.0
H1947 H 0.20454 0.44842 0.75464 0.0
H1948 H 0.23421 0.4166 0.76275 0.0
H1949 H 0.16969 0.34751 0.74631 0.0
H1950 H 0.17213 0.32694 0.72103 0.0
H1951 H 0.15479 0.3538 0.7181 0.0
H1952 H 0.18082 0.36592 0.68111 0.0
H1953 H 0.19816 0.339 0.68384 0.0
H1954 H 0.21351 0.36766 0.68396 0.0
H1955 H 0.25709 0.37846 0.76867 0.0
H1956 H 0.27391 0.33771 0.76882 0.0
H1957 H 0.21732 0.31366 0.71888 0.0
C1958 C 0.17741 0.40275 0.72192 0.0
C1959 C 0.18085 0.42579 0.7322 0.0
C1960 C 0.20169 0.43084 0.74658 0.0
C1961 C 0.21855 0.4129 0.75132 0.0
C1962 C 0.21443 0.39023 0.74117 0.0
C1963 C 0.19458 0.38523 0.72646 0.0
C1964 C 0.19437 0.35949 0.71767 0.0
C1965 C 0.17138 0.34616 0.7263 0.0
C1966 C 0.19688 0.35794 0.69001 0.0
C1967 C 0.21696 0.35064 0.73013 0.0
C1968 C 0.22819 0.36859 0.74372 0.0
C1969 C 0.24866 0.36434 0.75784 0.0
C1970 C 0.25798 0.34116 0.75791 0.0
C1971 C 0.24699 0.32267 0.74372 0.0
C1972 C 0.22628 0.32756 0.72962 0.0
H1973 H 0.32827 0.60864 0.28591 0.0
H1974 H 0.40465 0.62811 0.29366 0.0
H1975 H 0.39318 0.66763 0.31004 0.0
H1976 H 0.31044 0.66095 0.26299 0.0
H1977 H 0.28117 0.66202 0.27765 0.0
H1978 H 0.29523 0.63376 0.27192 0.0
H1979 H 0.29224 0.62392 0.3175 0.0
H1980 H 0.27818 0.65237 0.32338 0.0
H1981 H 0.30525 0.64435 0.33967 0.0
H1982 H 0.37386 0.70679 0.31863 0.0
H1983 H 0.34837 0.7427 0.31646 0.0
H1984 H 0.28468 0.69756 0.3034 0.0
C1985 C 0.34256 0.62096 0.29174 0.0
C1986 C 0.36729 0.61538 0.2886 0.0
C1987 C 0.38554 0.63209 0.29594 0.0
C1988 C 0.37921 0.65449 0.30548 0.0
C1989 C 0.35459 0.65974 0.30774 0.0
C1990 C 0.33654 0.64339 0.30116 0.0
C1991 C 0.31163 0.65446 0.30204 0.0
C1992 C 0.2989 0.6527 0.27718 0.0
C1993 C 0.2959 0.6431 0.32183 0.0
C1994 C 0.31861 0.67992 0.30869 0.0
C1995 C 0.34338 0.68253 0.31258 0.0
C1996 C 0.35436 0.70492 0.31623 0.0
C1997 C 0.33975 0.72522 0.31498 0.0
C1998 C 0.31459 0.72285 0.30973 0.0
C1999 C 0.30385 0.69989 0.3076 0.0
H2000 H 0.49286 0.72275 0.57865 0.0
H2001 H 0.47367 0.70555 0.65252 0.0
H2002 H 0.45624 0.66709 0.63863 0.0
H2003 H 0.44041 0.69296 0.5488 0.0
H2004 H 0.45827 0.68156 0.52395 0.0
H2005 H 0.46708 0.70919 0.53897 0.0
H2006 H 0.50993 0.69233 0.54764 0.0
H2007 H 0.50135 0.66489 0.53232 0.0
H2008 H 0.51246 0.66431 0.56298 0.0
H2009 H 0.44263 0.63015 0.61789 0.0
H2010 H 0.43899 0.59405 0.59208 0.0
H2011 H 0.46808 0.63359 0.53147 0.0
C2012 C 0.48483 0.7109 0.59179 0.0
C2013 C 0.48463 0.7171 0.61663 0.0
C2014 C 0.47425 0.70106 0.63341 0.0
C2015 C 0.464 0.67929 0.62569 0.0
C2016 C 0.46439 0.67366 0.60113 0.0
C2017 C 0.47486 0.68873 0.58442 0.0
C2018 C 0.47503 0.67709 0.55948 0.0
C2019 C 0.45925 0.69104 0.54175 0.0
C2020 C 0.50124 0.6745 0.55006 0.0
C2021 C 0.46354 0.653 0.56502 0.0
C2022 C 0.45704 0.65171 0.58906 0.0
C2023 C 0.44745 0.63093 0.59896 0.0
C2024 C 0.44542 0.61052 0.58414 0.0
C2025 C 0.45321 0.61099 0.55976 0.0
C2026 C 0.46156 0.63276 0.5499 0.0
H2027 H 0.61934 0.21986 0.8429 0.0
H2028 H 0.56692 0.252 0.79499 0.0
H2029 H 0.59173 0.24021 0.75985 0.0
H2030 H 0.66944 0.24026 0.8157 0.0
H2031 H 0.68786 0.21418 0.81968 0.0
H2032 H 0.66327 0.22008 0.84005 0.0
H2033 H 0.64484 0.17811 0.83013 0.0
H2034 H 0.66936 0.17227 0.80928 0.0
H2035 H 0.63819 0.16973 0.79918 0.0
H2036 H 0.6258 0.23446 0.73201 0.0
H2037 H 0.66702 0.2365 0.71447 0.0
H2038 H 0.6964 0.2043 0.77861 0.0
C2039 C 0.61284 0.22387 0.82494 0.0
C2040 C 0.59135 0.23689 0.82162 0.0
C2041 C 0.5834 0.24201 0.79793 0.0
C2042 C 0.59722 0.23515 0.77783 0.0
C2043 C 0.61864 0.22272 0.78169 0.0
C2044 C 0.62631 0.2169 0.80467 0.0
C2045 C 0.65159 0.20657 0.80425 0.0
C2046 C 0.66905 0.22115 0.82087 0.0
C2047 C 0.65094 0.18009 0.81111 0.0
C2048 C 0.65776 0.20941 0.77778 0.0
C2049 C 0.63825 0.21817 0.76491 0.0
C2050 C 0.64094 0.22669 0.74149 0.0
C2051 C 0.66437 0.22773 0.73159 0.0
C2052 C 0.68458 0.22002 0.74504 0.0
C2053 C 0.68099 0.2093 0.76763 0.0
H2054 H 0.00632 0.30243 0.05021 0.0
H2055 H 0.01372 0.31918 0.12679 0.0
H2056 H 0.01882 0.36206 0.11731 0.0
H2057 H 0.05091 0.34342 0.02961 0.0
H2058 H 0.03427 0.35112 0.00279 0.0
H2059 H 0.03019 0.32203 0.01568 0.0
H2060 H 0.98363 0.32863 0.01892 0.0
H2061 H 0.98751 0.35752 0.00555 0.0
H2062 H 0.97258 0.35493 0.0344 0.0
H2063 H 0.02451 0.40308 0.09883 0.0
H2064 H 0.02597 0.43901 0.0735 0.0
H2065 H 0.01548 0.39423 0.00933 0.0
C2066 C 0.00872 0.3151 0.06507 0.0
C2067 C 0.00959 0.30751 0.08924 0.0
C2068 C 0.01282 0.32467 0.10813 0.0
C2069 C 0.01592 0.349 0.10291 0.0
C2070 C 0.01569 0.35575 0.07875 0.0
C2071 C 0.01185 0.33929 0.0602 0.0
C2072 C 0.01227 0.35094 0.03577 0.0
C2073 C 0.03316 0.3413 0.02005 0.0
C2074 C 0.98753 0.34783 0.02291 0.0
C2075 C 0.01695 0.37662 0.0434 0.0
C2076 C 0.01901 0.37909 0.06822 0.0
C2077 C 0.02291 0.40133 0.07938 0.0
C2078 C 0.02388 0.42162 0.06481 0.0
C2079 C 0.02087 0.41948 0.03939 0.0
C2080 C 0.01797 0.39655 0.02866 0.0
H2081 H 0.95191 0.7817 0.35138 0.0
H2082 H 0.98573 0.71791 0.32239 0.0
H2083 H 0.95186 0.71261 0.29307 0.0
H2084 H 0.89328 0.75753 0.35133 0.0
H2085 H 0.878 0.78476 0.34389 0.0
H2086 H 0.9068 0.7861 0.35942 0.0
H2087 H 0.92468 0.81277 0.3258 0.0
H2088 H 0.89586 0.81156 0.31014 0.0
H2089 H 0.92323 0.80257 0.29473 0.0
H2090 H 0.91367 0.71282 0.26914 0.0
H2091 H 0.87136 0.7155 0.25485 0.0
H2092 H 0.86043 0.77731 0.30194 0.0
C2093 C 0.95237 0.76705 0.33835 0.0
C2094 C 0.97139 0.75044 0.33852 0.0
C2095 C 0.97127 0.73089 0.32207 0.0
C2096 C 0.95226 0.72786 0.30537 0.0
C2097 C 0.93347 0.74436 0.30579 0.0
C2098 C 0.9332 0.76343 0.32202 0.0
C2099 C 0.90939 0.77669 0.32085 0.0
C2100 C 0.89609 0.77622 0.34532 0.0
C2101 C 0.91355 0.80243 0.31237 0.0
C2102 C 0.89609 0.76174 0.30185 0.0
C2103 C 0.91059 0.7436 0.29297 0.0
C2104 C 0.90218 0.72703 0.2758 0.0
C2105 C 0.87811 0.72874 0.26779 0.0
C2106 C 0.86261 0.74661 0.27734 0.0
C2107 C 0.87188 0.7635 0.29434 0.0
H2108 H 0.51868 0.31338 0.93655 0.0
H2109 H 0.59626 0.32774 0.93386 0.0
H2110 H 0.59178 0.35924 0.96557 0.0
H2111 H 0.50348 0.37104 0.93513 0.0
H2112 H 0.47677 0.3689 0.95392 0.0
H2113 H 0.48689 0.34314 0.93725 0.0
H2114 H 0.48913 0.31926 0.97693 0.0
H2115 H 0.47898 0.34511 -0.0062 0.0
H2116 H 0.50699 0.33086 0.00197 0.0
H2117 H 0.57809 0.39244 0.99282 0.0
H2118 H 0.55642 0.42839 0.00726 0.0
H2119 H 0.48742 0.39521 0.98783 0.0
C2120 C 0.53484 0.32247 0.94349 0.0
C2121 C 0.5579 0.31784 0.93349 0.0
C2122 C 0.57855 0.33085 0.94181 0.0
C2123 C 0.57614 0.34858 0.95989 0.0
C2124 C 0.55292 0.35324 0.96897 0.0
C2125 C 0.53256 0.34072 0.96075 0.0
C2126 C 0.50924 0.35226 0.96918 0.0
C2127 C 0.49319 0.35926 0.94759 0.0
C2128 C 0.49527 0.33589 0.98651 0.0
C2129 C 0.51954 0.37396 0.9824 0.0
C2130 C 0.54475 0.37363 0.98308 0.0
C2131 C 0.55839 0.39265 0.99281 0.0
C2132 C 0.54598 0.41289 0.00112 0.0
C2133 C 0.52039 0.41408 -0.001 0.0
C2134 C 0.50698 0.39426 0.99011 0.0
H2135 H 0.95018 0.22295 0.15683 0.0
H2136 H 0.96095 0.14919 0.13433 0.0
H2137 H 0.91972 0.13871 0.14882 0.0
H2138 H 0.91615 0.20913 0.2118 0.0
H2139 H 0.89645 0.23441 0.20874 0.0
H2140 H 0.92711 0.23576 0.19728 0.0
H2141 H 0.91046 0.24638 0.15497 0.0
H2142 H 0.87977 0.24487 0.16625 0.0
H2143 H 0.88836 0.22681 0.14043 0.0
H2144 H 0.87579 0.1372 0.16231 0.0
H2145 H 0.83419 0.14398 0.1782 0.0
H2146 H 0.85363 0.21795 0.19418 0.0
C2147 C 0.94395 0.20455 0.15519 0.0
C2148 C 0.9587 0.18689 0.14444 0.0
C2149 C 0.94997 0.16298 0.14267 0.0
C2150 C 0.92656 0.15687 0.15074 0.0
C2151 C 0.9123 0.1748 0.16088 0.0
C2152 C 0.92082 0.19806 0.16353 0.0
C2153 C 0.90194 0.21395 0.17514 0.0
C2154 C 0.91095 0.22389 0.1997 0.0
C2155 C 0.89471 0.23419 0.15818 0.0
C2156 C 0.88132 0.1961 0.17818 0.0
C2157 C 0.88751 0.17365 0.16967 0.0
C2158 C 0.87084 0.15461 0.16939 0.0
C2159 C 0.84729 0.15862 0.1783 0.0
C2160 C 0.8409 0.18136 0.18765 0.0
C2161 C 0.85819 0.20025 0.18755 0.0
H2162 H 0.02288 0.63956 0.43834 0.0
H2163 H 0.97463 0.64696 0.37682 0.0
H2164 H 0.96502 0.60365 0.37776 0.0
H2165 H 0.04664 0.58128 0.41984 0.0
H2166 H 0.04843 0.57099 0.45048 0.0
H2167 H 0.05203 0.60235 0.44434 0.0
H2168 H 0.01705 0.61215 0.4742 0.0
H2169 H 0.01347 0.58089 0.48052 0.0
H2170 H 0.98778 0.59765 0.47015 0.0
H2171 H 0.95766 0.56048 0.3883 0.0
H2172 H 0.95489 0.52028 0.40623 0.0
H2173 H 0.01069 0.54085 0.4584 0.0
C2174 C 0.01035 0.63203 0.42503 0.0
C2175 C -0.00069 0.6465 0.40763 0.0
C2176 C 0.98324 0.63606 0.39031 0.0
C2177 C 0.97771 0.61154 0.39068 0.0
C2178 C 0.98887 0.59774 0.40816 0.0
C2179 C 0.00508 0.60757 0.42481 0.0
C2180 C 0.01442 0.58899 0.44189 0.0
C2181 C 0.04202 0.58571 0.43895 0.0
C2182 C 0.00777 0.5953 0.46824 0.0
C2183 C 0.00038 0.56727 0.43272 0.0
C2184 C 0.9857 0.57264 0.41328 0.0
C2185 C 0.96946 0.5559 0.40317 0.0
C2186 C 0.96798 0.53319 0.41344 0.0
C2187 C 0.98292 0.52744 0.43333 0.0
C2188 C -0.0004 0.54457 0.44272 0.0
H2189 H 0.58889 0.80305 0.63916 0.0
H2190 H 0.54243 0.81709 0.70121 0.0
H2191 H 0.57816 0.81766 0.72786 0.0
H2192 H 0.62952 0.76419 0.66842 0.0
H2193 H 0.65658 0.77518 0.65368 0.0
H2194 H 0.6275 0.77691 0.63877 0.0
H2195 H 0.63355 0.82258 0.63398 0.0
H2196 H 0.66275 0.82096 0.64873 0.0
H2197 H 0.63999 0.84104 0.6603 0.0
H2198 H 0.61752 0.81367 0.74833 0.0
H2199 H 0.66003 0.80872 0.76138 0.0
H2200 H 0.68204 0.79909 0.68649 0.0
C2201 C 0.58634 0.8065 0.6583 0.0
C2202 C 0.56289 0.8099 0.6681 0.0
C2203 C 0.56022 0.81436 0.69326 0.0
C2204 C 0.58038 0.81472 0.70861 0.0
C2205 C 0.60315 0.81087 0.69852 0.0
C2206 C 0.6064 0.80715 0.67398 0.0
C2207 C 0.633 0.80328 0.66808 0.0
C2208 C 0.63687 0.77841 0.65656 0.0
C2209 C 0.64291 0.82315 0.65181 0.0
C2210 C 0.64397 0.80503 0.69322 0.0
C2211 C 0.62633 0.80931 0.71045 0.0
C2212 C 0.63163 0.8106 0.73504 0.0
C2213 C 0.65576 0.80762 0.74227 0.0
C2214 C 0.67425 0.80364 0.72492 0.0
C2215 C 0.66826 0.80239 0.70009 0.0
H2216 H 0.62209 0.51387 0.65833 0.0
H2217 H 0.57338 0.51885 0.71992 0.0
H2218 H 0.5381 0.51262 0.69298 0.0
H2219 H 0.58496 0.54547 0.61769 0.0
H2220 H 0.59231 0.52708 0.59172 0.0
H2221 H 0.61382 0.53053 0.61612 0.0
H2222 H 0.61496 0.48445 0.62023 0.0
H2223 H 0.59317 0.48097 0.59598 0.0
H2224 H 0.58698 0.468 0.62497 0.0
H2225 H 0.50792 0.50873 0.65935 0.0
H2226 H 0.48508 0.50913 0.62082 0.0
H2227 H 0.55331 0.50515 0.58141 0.0
C2228 C 0.60401 0.51355 0.66611 0.0
C2229 C 0.60049 0.51683 0.69119 0.0
C2230 C 0.57653 0.51634 0.70073 0.0
C2231 C 0.55634 0.51269 0.68561 0.0
C2232 C 0.56039 0.50939 0.661 0.0
C2233 C 0.58359 0.50981 0.65127 0.0
C2234 C 0.58276 0.50689 0.62405 0.0
C2235 C 0.59412 0.5288 0.61169 0.0
C2236 C 0.5952 0.48369 0.61583 0.0
C2237 C 0.5555 0.50539 0.62005 0.0
C2238 C 0.5429 0.50665 0.64159 0.0
C2239 C 0.51753 0.50738 0.64233 0.0
C2240 C 0.50471 0.50756 0.62038 0.0
C2241 C 0.51734 0.50698 0.5981 0.0
C2242 C 0.54301 0.50516 0.59809 0.0
H2243 H 0.72962 0.38215 0.90937 0.0
H2244 H 0.6725 0.33618 0.93713 0.0
H2245 H 0.67322 0.31208 0.89917 0.0
H2246 H 0.71363 0.37722 0.84323 0.0
H2247 H 0.74531 0.37619 0.83489 0.0
H2248 H 0.73615 0.39295 0.86139 0.0
H2249 H 0.76644 0.36894 0.88715 0.0
H2250 H 0.77533 0.35179 0.86093 0.0
H2251 H 0.76403 0.33679 0.8873 0.0
H2252 H 0.68303 0.29091 0.86013 0.0
H2253 H 0.70263 0.27287 0.82405 0.0
H2254 H 0.7566 0.33007 0.82451 0.0
C2255 C 0.71653 0.36765 0.90692 0.0
C2256 C 0.7005 0.3613 0.92568 0.0
C2257 C 0.6845 0.3415 0.9226 0.0
C2258 C 0.68481 0.32778 0.90116 0.0
C2259 C 0.70154 0.33394 0.8833 0.0
C2260 C 0.71716 0.3534 0.88599 0.0
C2261 C 0.73582 0.35416 0.8659 0.0
C2262 C 0.73252 0.37645 0.85044 0.0
C2263 C 0.76193 0.35283 0.87593 0.0
C2264 C 0.7288 0.33167 0.85195 0.0
C2265 C 0.70855 0.32064 0.86185 0.0
C2266 C 0.69881 0.29945 0.85217 0.0
C2267 C 0.71007 0.28931 0.83181 0.0
C2268 C 0.73119 0.30003 0.82188 0.0
C2269 C 0.74064 0.32144 0.83205 0.0
H2270 H 0.92225 0.49081 0.17825 0.0
H2271 H 0.85487 0.52449 0.15747 0.0
H2272 H 0.8753 0.5414 0.12178 0.0
H2273 H 0.96546 0.53764 0.15408 0.0
H2274 H 0.98641 0.51518 0.1437 0.0
H2275 H 0.96823 0.51014 0.17029 0.0
H2276 H 0.95138 0.47063 0.15119 0.0
H2277 H 0.96956 0.47549 0.12475 0.0
H2278 H 0.93709 0.4712 0.12184 0.0
H2279 H 0.90051 0.54931 0.08592 0.0
H2280 H 0.92738 0.54478 0.05062 0.0
H2281 H 0.97849 0.50532 0.09395 0.0
C2282 C 0.91204 0.50235 0.16655 0.0
C2283 C 0.8871 0.50656 0.1706 0.0
C2284 C 0.87404 0.52114 0.15462 0.0
C2285 C 0.88555 0.531 0.13448 0.0
C2286 C 0.91009 0.52611 0.13067 0.0
C2287 C 0.92318 0.51206 0.14622 0.0
C2288 C 0.94815 0.50653 0.13618 0.0
C2289 C 0.96825 0.51807 0.15201 0.0
C2290 C 0.95173 0.47936 0.13331 0.0
C2291 C 0.94654 0.51855 0.11195 0.0
C2292 C 0.92471 0.53034 0.10947 0.0
C2293 C 0.91786 0.54059 0.08779 0.0
C2294 C 0.93322 0.53785 0.06782 0.0
C2295 C 0.95503 0.52476 0.06964 0.0
C2296 C 0.96222 0.51588 0.09223 0.0
H2297 H 0.77242 0.68888 0.44862 0.0
H2298 H 0.72795 0.62549 0.43444 0.0
H2299 H 0.72082 0.63875 0.39271 0.0
H2300 H 0.7376 0.7296 0.41434 0.0
H2301 H 0.76364 0.74568 0.40283 0.0
H2302 H 0.76545 0.73128 0.43163 0.0
H2303 H 0.80295 0.70739 0.41704 0.0
H2304 H 0.8015 0.72202 0.38834 0.0
H2305 H 0.8009 0.68985 0.38945 0.0
H2306 H 0.71686 0.65989 0.35323 0.0
H2307 H 0.72111 0.68453 0.31684 0.0
H2308 H 0.76959 0.7332 0.35629 0.0
C2309 C 0.76136 0.6777 0.43666 0.0
C2310 C 0.75069 0.6562 0.44475 0.0
C2311 C 0.7364 0.64199 0.42856 0.0
C2312 C 0.73209 0.64945 0.4049 0.0
C2313 C 0.74243 0.67101 0.39765 0.0
C2314 C 0.75715 0.68471 0.41289 0.0
C2315 C 0.76671 0.70675 0.40036 0.0
C2316 C 0.75781 0.72968 0.41305 0.0
C2317 C 0.79467 0.70647 0.3987 0.0
C2318 C 0.75499 0.70334 0.37574 0.0
C2319 C 0.74079 0.68279 0.37465 0.0
C2320 C 0.72801 0.67597 0.35382 0.0
C2321 C 0.73039 0.69019 0.3333 0.0
C2322 C 0.74568 0.71077 0.33373 0.0
C2323 C 0.75778 0.71756 0.3554 0.0
H2324 H 0.61242 0.55331 0.83771 0.0
H2325 H 0.61835 0.48103 0.8092 0.0
H2326 H 0.59323 0.46619 0.84306 0.0
H2327 H 0.61337 0.53676 0.90316 0.0
H2328 H 0.59225 0.56007 0.9108 0.0
H2329 H 0.61328 0.56396 0.88618 0.0
H2330 H 0.57692 0.57256 0.85784 0.0
H2331 H 0.5557 0.56789 0.8821 0.0
H2332 H 0.55277 0.55062 0.85442 0.0
H2333 H 0.56176 0.46067 0.87602 0.0
H2334 H 0.53343 0.46342 0.91072 0.0
H2335 H 0.55013 0.53911 0.91844 0.0
C2336 C 0.60917 0.53425 0.83915 0.0
C2337 C 0.61736 0.51824 0.82106 0.0
C2338 C 0.61255 0.49347 0.82319 0.0
C2339 C 0.59809 0.48496 0.84217 0.0
C2340 C 0.58913 0.50145 0.85902 0.0
C2341 C 0.59517 0.52547 0.85812 0.0
C2342 C 0.58271 0.53965 0.87793 0.0
C2343 C 0.60152 0.55075 0.89557 0.0
C2344 C 0.56604 0.5588 0.86743 0.0
C2345 C 0.56806 0.52 0.88965 0.0
C2346 C 0.57179 0.49812 0.8784 0.0
C2347 C 0.55906 0.47762 0.88526 0.0
C2348 C 0.54278 0.47941 0.90473 0.0
C2349 C 0.53968 0.50147 0.91717 0.0
C2350 C 0.55227 0.52201 0.90928 0.0
H2351 H 0.71743 0.3234 0.08574 0.0
H2352 H 0.72178 0.27729 0.02217 0.0
H2353 H 0.72122 0.24172 0.04834 0.0
H2354 H 0.75481 0.29039 0.12431 0.0
H2355 H 0.73661 0.29585 0.15087 0.0
H2356 H 0.73698 0.31712 0.12688 0.0
H2357 H 0.68988 0.3139 0.1238 0.0
H2358 H 0.68943 0.2924 0.14766 0.0
H2359 H 0.67558 0.28505 0.11887 0.0
H2360 H 0.72485 0.21176 0.08226 0.0
H2361 H 0.72912 0.18999 0.12077 0.0
H2362 H 0.71747 0.25605 0.16087 0.0
C2363 C 0.71825 0.3058 0.07735 0.0
C2364 C 0.71993 0.30293 0.05208 0.0
C2365 C 0.72056 0.27971 0.0416 0.0
C2366 C 0.72022 0.25949 0.05628 0.0
C2367 C 0.7186 0.26294 0.08125 0.0
C2368 C 0.71726 0.28554 0.09162 0.0
C2369 C 0.71553 0.28459 0.11881 0.0
C2370 C 0.73728 0.29775 0.13092 0.0
C2371 C 0.69115 0.29457 0.1278 0.0
C2372 C 0.71675 0.25794 0.12222 0.0
C2373 C 0.7187 0.24566 0.10044 0.0
C2374 C 0.72267 0.22108 0.0994 0.0
C2375 C 0.72504 0.20887 0.12126 0.0
C2376 C 0.72289 0.22128 0.14363 0.0
C2377 C 0.71822 0.24597 0.14399 0.0
H2378 H 0.87261 0.45253 0.30965 0.0
H2379 H 0.92326 0.40445 0.27423 0.0
H2380 H 0.93626 0.38988 0.31398 0.0
H2381 H 0.91104 0.47046 0.35576 0.0
H2382 H 0.88781 0.47245 0.37867 0.0
H2383 H 0.87991 0.47614 0.34745 0.0
H2384 H 0.84765 0.44208 0.35073 0.0
H2385 H 0.85569 0.43814 0.382 0.0
H2386 H 0.85673 0.41315 0.36107 0.0
H2387 H 0.94725 0.38408 0.35753 0.0
H2388 H 0.95728 0.38999 0.40083 0.0
H2389 H 0.89911 0.44142 0.40742 0.0
C2390 C 0.88609 0.4386 0.31019 0.0
C2391 C 0.89686 0.42962 0.28883 0.0
C2392 C 0.91472 0.41164 0.29037 0.0
C2393 C 0.9221 0.40308 0.31286 0.0
C2394 C 0.91131 0.41253 0.33362 0.0
C2395 C 0.89368 0.42991 0.33245 0.0
C2396 C 0.8868 0.43901 0.35735 0.0
C2397 C 0.8917 0.4661 0.35995 0.0
C2398 C 0.86013 0.43271 0.36312 0.0
C2399 C 0.90409 0.42484 0.37263 0.0
C2400 C 0.91771 0.40925 0.35873 0.0
C2401 C 0.9364 0.39589 0.36869 0.0
C2402 C 0.94192 0.39929 0.39332 0.0
C2403 C 0.92899 0.41616 0.40747 0.0
C2404 C 0.90924 0.42828 0.39711 0.0
H2405 H 0.75818 0.71284 0.57727 0.0
H2406 H 0.80985 0.65919 0.59782 0.0
H2407 H 0.82762 0.68703 0.62843 0.0
H2408 H 0.79826 0.76833 0.59269 0.0
H2409 H 0.77211 0.7838 0.60441 0.0
H2410 H 0.76865 0.76293 0.5794 0.0
H2411 H 0.73575 0.73971 0.60336 0.0
H2412 H 0.73918 0.7603 0.62834 0.0
H2413 H 0.74308 0.72877 0.63294 0.0
H2414 H 0.83336 0.71618 0.66193 0.0
H2415 H 0.82567 0.74335 0.69648 0.0
H2416 H 0.76951 0.77821 0.65509 0.0
C2417 C 0.77407 0.70761 0.58742 0.0
C2418 C 0.78325 0.68437 0.58499 0.0
C2419 C 0.80313 0.67727 0.59924 0.0
C2420 C 0.81333 0.69298 0.61655 0.0
C2421 C 0.80329 0.71562 0.61935 0.0
C2422 C 0.78417 0.72301 0.60504 0.0
C2423 C 0.77373 0.74624 0.61451 0.0
C2424 C 0.77849 0.76653 0.59669 0.0
C2425 C 0.74634 0.74356 0.62013 0.0
C2426 C 0.78871 0.74979 0.6373 0.0
C2427 C 0.8062 0.7324 0.63936 0.0
C2428 C 0.82019 0.73027 0.66025 0.0
C2429 C 0.81561 0.74575 0.67985 0.0
C2430 C 0.79696 0.76291 0.67852 0.0
C2431 C 0.78411 0.7655 0.65659 0.0
H2432 H 0.6726 0.5972 0.54252 0.0
H2433 H 0.66291 0.66866 0.51519 0.0
H2434 H 0.61904 0.65964 0.50857 0.0
H2435 H 0.63617 0.56781 0.50041 0.0
H2436 H 0.62393 0.54614 0.52099 0.0
H2437 H 0.65355 0.55923 0.52647 0.0
H2438 H 0.64004 0.57353 0.56917 0.0
H2439 H 0.61046 0.56012 0.56397 0.0
H2440 H 0.61305 0.5913 0.57236 0.0
H2441 H 0.57688 0.64108 0.50176 0.0
H2442 H 0.54003 0.61543 0.49722 0.0
H2443 H 0.57919 0.55633 0.52816 0.0
C2444 C 0.66122 0.61116 0.5356 0.0
C2445 C 0.67106 0.6336 0.52938 0.0
C2446 C 0.65559 0.65136 0.52023 0.0
C2447 C 0.63073 0.64639 0.51634 0.0
C2448 C 0.6218 0.62369 0.5219 0.0
C2449 C 0.63659 0.6065 0.5316 0.0
C2450 C 0.62318 0.58307 0.53479 0.0
C2451 C 0.63491 0.56289 0.51976 0.0
C2452 C 0.62158 0.57664 0.56167 0.0
C2453 C 0.59861 0.58951 0.52482 0.0
C2454 C 0.59797 0.61302 0.51766 0.0
C2455 C 0.57714 0.6227 0.50748 0.0
C2456 C 0.55637 0.60796 0.50486 0.0
C2457 C 0.55677 0.58383 0.51221 0.0
C2458 C 0.57826 0.57462 0.52221 0.0
H2459 H 0.13914 0.94117 0.55468 0.0
H2460 H 0.13054 0.86476 0.56431 0.0
H2461 H 0.0857 0.86939 0.56547 0.0
H2462 H 0.08775 0.96042 0.59201 0.0
H2463 H 0.08007 0.9839 0.57156 0.0
H2464 H 0.11126 0.97475 0.57452 0.0
H2465 H 0.1134 0.96667 0.52825 0.0
H2466 H 0.08232 0.97583 0.52515 0.0
H2467 H 0.09132 0.94677 0.51416 0.0
H2468 H 0.04169 0.88254 0.56314 0.0
H2469 H 0.0027 0.90225 0.55409 0.0
H2470 H 0.04141 0.96945 0.54439 0.0
C2471 C 0.1279 0.92541 0.55747 0.0
C2472 C 0.13821 0.90262 0.55958 0.0
C2473 C 0.12289 0.88239 0.56272 0.0
C2474 C 0.09748 0.88489 0.56354 0.0
C2475 C 0.08789 0.90769 0.56115 0.0
C2476 C 0.1027 0.92755 0.55805 0.0
C2477 C 0.08813 0.94973 0.55366 0.0
C2478 C 0.09204 0.96829 0.57416 0.0
C2479 C 0.09415 0.96036 0.52884 0.0
C2480 C 0.06273 0.93923 0.55419 0.0
C2481 C 0.06283 0.91507 0.55902 0.0
C2482 C 0.04139 0.90148 0.55954 0.0
C2483 C 0.01937 0.91281 0.55445 0.0
C2484 C 0.01916 0.93732 0.54851 0.0
C2485 C 0.04107 0.95068 0.54886 0.0
H2486 H 0.38718 0.87514 0.77288 0.0
H2487 H 0.339 0.93487 0.78565 0.0
H2488 H 0.31058 0.90827 0.80741 0.0
H2489 H 0.3432 0.83397 0.75916 0.0
H2490 H 0.35707 0.809 0.77366 0.0
H2491 H 0.37582 0.83306 0.76284 0.0
H2492 H 0.3946 0.83967 0.80534 0.0
H2493 H 0.37642 0.81514 0.81639 0.0
H2494 H 0.37496 0.8441 0.83106 0.0
H2495 H 0.2847 0.87404 0.82168 0.0
H2496 H 0.26337 0.83527 0.82607 0.0
H2497 H 0.32962 0.79853 0.80597 0.0
C2498 C 0.37088 0.88277 0.78063 0.0
C2499 C 0.36526 0.90705 0.77753 0.0
C2500 C 0.34369 0.91631 0.78786 0.0
C2501 C 0.32752 0.90138 0.80039 0.0
C2502 C 0.33346 0.87739 0.80281 0.0
C2503 C 0.35475 0.86823 0.79337 0.0
C2504 C 0.35586 0.84148 0.79624 0.0
C2505 C 0.35812 0.82866 0.77149 0.0
C2506 C 0.3767 0.83471 0.81328 0.0
C2507 C 0.33132 0.83679 0.80765 0.0
C2508 C 0.31878 0.85773 0.81168 0.0
C2509 C 0.29455 0.85757 0.81919 0.0
C2510 C 0.28258 0.83544 0.82164 0.0
C2511 C 0.29487 0.81385 0.81648 0.0
C2512 C 0.31984 0.81466 0.81054 0.0
H2513 H 0.27995 0.06508 0.04163 0.0
H2514 H 0.28384 0.11999 0.98708 0.0
H2515 H 0.32748 0.11234 0.98174 0.0
H2516 H 0.33928 0.07715 0.06831 0.0
H2517 H 0.34584 0.04612 0.0731 0.0
H2518 H 0.31477 0.05609 0.07336 0.0
H2519 H 0.30356 0.02487 0.03991 0.0
H2520 H 0.33452 0.01467 0.0397 0.0
H2521 H 0.32061 0.02441 0.01209 0.0
H2522 H 0.36987 0.09882 0.98149 0.0
H2523 H 0.409 0.07831 0.98459 0.0
H2524 H 0.37864 0.03183 0.03929 0.0
C2525 C 0.28998 0.07548 0.02856 0.0
C2526 C 0.27843 0.09317 0.0148 0.0
C2527 C 0.29221 0.10635 -0.00216 0.0
C2528 C 0.31706 0.10222 -0.00527 0.0
C2529 C 0.32789 0.08488 0.0087 0.0
C2530 C 0.31487 0.07158 0.02517 0.0
C2531 C 0.331 0.0535 0.03728 0.0
C2532 C 0.33282 0.05853 0.06464 0.0
C2533 C 0.32188 0.02785 0.03191 0.0
C2534 C 0.35501 0.0586 0.02479 0.0
C2535 C 0.35272 0.07692 0.00853 0.0
C2536 C 0.37197 0.0845 -0.00581 0.0
C2537 C 0.3941 0.07269 -0.00392 0.0
C2538 C 0.39684 0.05347 0.01218 0.0
C2539 C 0.37714 0.04664 0.02706 0.0
H2540 H 0.6624 0.62625 0.76205 0.0
H2541 H 0.72456 0.58082 0.74858 0.0
H2542 H 0.75222 0.61564 0.75568 0.0
H2543 H 0.685 0.67752 0.73293 0.0
H2544 H 0.67207 0.69813 0.75459 0.0
H2545 H 0.65779 0.66943 0.74921 0.0
H2546 H 0.66071 0.66048 0.79497 0.0
H2547 H 0.67522 0.68912 0.80045 0.0
H2548 H 0.68992 0.66221 0.80988 0.0
H2549 H 0.77274 0.65663 0.76222 0.0
H2550 H 0.78395 0.69942 0.76697 0.0
H2551 H 0.70777 0.71646 0.77757 0.0
C2552 C 0.68183 0.62348 0.76056 0.0
C2553 C 0.6913 0.60079 0.75461 0.0
C2554 C 0.71688 0.59805 0.75307 0.0
C2555 C 0.73271 0.6177 0.75714 0.0
C2556 C 0.72265 0.63983 0.76301 0.0
C2557 C 0.69777 0.64271 0.76478 0.0
C2558 C 0.69128 0.66826 0.77081 0.0
C2559 C 0.67562 0.67896 0.75068 0.0
C2560 C 0.67853 0.67012 0.7955 0.0
C2561 C 0.71639 0.67957 0.77175 0.0
C2562 C 0.73433 0.66297 0.76731 0.0
C2563 C 0.75883 0.6697 0.76598 0.0
C2564 C 0.76503 0.69405 0.76875 0.0
C2565 C 0.74679 0.71136 0.77283 0.0
C2566 C 0.72225 0.70376 0.77484 0.0
H2567 H 0.80153 0.43104 0.01012 0.0
H2568 H 0.80591 0.36232 0.97338 0.0
H2569 H 0.85054 0.36863 0.96788 0.0
H2570 H 0.84004 0.46229 0.97372 0.0
H2571 H 0.85382 0.48027 -0.00248 0.0
H2572 H 0.82338 0.46871 0.00109 0.0
H2573 H 0.83585 0.44816 0.04087 0.0
H2574 H 0.8663 0.46004 0.03767 0.0
H2575 H 0.86146 0.42835 0.04086 0.0
H2576 H 0.89434 0.38554 0.96299 0.0
H2577 H 0.93252 0.40979 0.96144 0.0
H2578 H 0.89693 0.46662 0.00178 0.0
C2579 C 0.81202 0.4171 0.00136 0.0
C2580 C 0.80062 0.39628 0.99212 0.0
C2581 C 0.81463 0.37832 0.98074 0.0
C2582 C 0.83986 0.38182 0.9775 0.0
C2583 C 0.85049 0.4031 0.98621 0.0
C2584 C 0.83694 0.42017 -0.00168 0.0
C2585 C 0.85193 0.44196 0.00512 0.0
C2586 C 0.84168 0.46462 -0.00633 0.0
C2587 C 0.85401 0.44478 0.03277 0.0
C2588 C 0.87589 0.4351 -0.00597 0.0
C2589 C 0.87505 0.41257 0.98344 0.0
C2590 C 0.89521 0.40309 0.97148 0.0
C2591 C 0.91674 0.417 0.97057 0.0
C2592 C 0.91766 0.44017 0.98132 0.0
C2593 C 0.8969 0.44909 -0.00682 0.0
H2594 H 0.34478 0.04294 0.75217 0.0
H2595 H 0.42082 0.06016 0.73838 0.0
H2596 H 0.41052 0.10257 0.73446 0.0
H2597 H 0.31954 0.08368 0.71057 0.0
H2598 H 0.29429 0.09202 0.72955 0.0
H2599 H 0.30748 0.06289 0.73217 0.0
H2600 H 0.31504 0.07065 0.7779 0.0
H2601 H 0.30165 0.09973 0.77548 0.0
H2602 H 0.33196 0.09694 0.78759 0.0
H2603 H 0.39218 0.14241 0.73 0.0
H2604 H 0.36717 0.17844 0.72834 0.0
H2605 H 0.30285 0.13613 0.74593 0.0
C2606 C 0.35928 0.05568 0.74858 0.0
C2607 C 0.3836 0.04825 0.74558 0.0
C2608 C 0.40206 0.06543 0.74081 0.0
C2609 C 0.39641 0.08957 0.73847 0.0
C2610 C 0.37224 0.09626 0.74112 0.0
C2611 C 0.35398 0.07994 0.74632 0.0
C2612 C 0.32948 0.09202 0.74823 0.0
C2613 C 0.31165 0.08205 0.72898 0.0
C2614 C 0.31892 0.0897 0.77382 0.0
C2615 C 0.33688 0.1176 0.74308 0.0
C2616 C 0.36162 0.11955 0.73892 0.0
C2617 C 0.3728 0.14119 0.73336 0.0
C2618 C 0.35837 0.16154 0.73236 0.0
C2619 C 0.333 0.16017 0.73703 0.0
C2620 C 0.32217 0.13781 0.74232 0.0
H2621 H 0.1284 0.94133 0.265 0.0
H2622 H 0.16824 0.9838 0.21305 0.0
H2623 H 0.19617 0.95019 0.20565 0.0
H2624 H 0.17943 0.91664 0.29166 0.0
H2625 H 0.16561 0.8878 0.29682 0.0
H2626 H 0.14691 0.91387 0.29547 0.0
H2627 H 0.12093 0.89374 0.26144 0.0
H2628 H 0.13959 0.86754 0.26272 0.0
H2629 H 0.13567 0.88263 0.23448 0.0
H2630 H 0.22165 0.91277 0.20627 0.0
H2631 H 0.24353 0.87587 0.21662 0.0
H2632 H 0.18744 0.85902 0.26905 0.0
C2633 C 0.14266 0.94337 0.25167 0.0
C2634 C 0.14604 0.96507 0.23944 0.0
C2635 C 0.16527 0.96726 0.22255 0.0
C2636 C 0.18117 0.94824 0.21815 0.0
C2637 C 0.1776 0.92719 0.23084 0.0
C2638 C 0.15882 0.9247 0.24729 0.0
C2639 C 0.16017 0.90116 0.26019 0.0
C2640 C 0.16322 0.90512 0.28765 0.0
C2641 C 0.13776 0.88533 0.25435 0.0
C2642 C 0.18295 0.89105 0.24888 0.0
C2643 C 0.19256 0.90606 0.23169 0.0
C2644 C 0.21416 0.90076 0.21956 0.0
C2645 C 0.22644 0.87977 0.22551 0.0
C2646 C 0.21724 0.86462 0.24367 0.0
C2647 C 0.19499 0.87024 0.2551 0.0
H2648 H 0.49788 0.35805 0.41047 0.0
H2649 H 0.56875 0.37739 0.38171 0.0
H2650 H 0.57044 0.41268 0.40932 0.0
H2651 H 0.47598 0.418 0.41466 0.0
H2652 H 0.4588 0.41282 0.44184 0.0
H2653 H 0.464 0.38858 0.42077 0.0
H2654 H 0.48308 0.36401 0.45516 0.0
H2655 H 0.47815 0.38831 0.47628 0.0
H2656 H 0.50828 0.3765 0.47229 0.0
H2657 H 0.56454 0.44528 0.44069 0.0
H2658 H 0.54944 0.47574 0.46957 0.0
H2659 H 0.48128 0.43615 0.47575 0.0
C2660 C 0.51381 0.36966 0.41009 0.0
C2661 C 0.53331 0.36497 0.39419 0.0
C2662 C 0.55365 0.38075 0.3938 0.0
C2663 C 0.55482 0.4007 0.4095 0.0
C2664 C 0.53534 0.4047 0.42513 0.0
C2665 C 0.51505 0.38984 0.42524 0.0
C2666 C 0.4959 0.39889 0.44263 0.0
C2667 C 0.47228 0.40494 0.42917 0.0
C2668 C 0.49108 0.38085 0.46278 0.0
C2669 C 0.5086 0.42118 0.45238 0.0
C2670 C 0.53148 0.42402 0.44235 0.0
C2671 C 0.54664 0.44328 0.44861 0.0
C2672 C 0.53795 0.4604 0.46514 0.0
C2673 C 0.51417 0.45831 0.47487 0.0
C2674 C 0.49951 0.43825 0.46859 0.0
H2675 H 0.44978 0.76105 0.2132 0.0
H2676 H 0.44411 0.80411 0.14886 0.0
H2677 H 0.40913 0.82498 0.16656 0.0
H2678 H 0.38661 0.75311 0.2222 0.0
H2679 H 0.38823 0.75491 0.25473 0.0
H2680 H 0.41401 0.74462 0.23768 0.0
H2681 H 0.441 0.7774 0.25838 0.0
H2682 H 0.4151 0.78801 0.27521 0.0
H2683 H 0.43232 0.80827 0.25664 0.0
H2684 H 0.37274 0.83872 0.18919 0.0
H2685 H 0.33614 0.84285 0.21476 0.0
H2686 H 0.36609 0.79255 0.26527 0.0
C2687 C 0.44127 0.77495 0.2029 0.0
C2688 C 0.44977 0.78089 0.17964 0.0
C2689 C 0.43803 0.79918 0.16673 0.0
C2690 C 0.41819 0.8113 0.17668 0.0
C2691 C 0.41037 0.80513 0.19966 0.0
C2692 C 0.42146 0.78737 0.21263 0.0
C2693 C 0.4085 0.78332 0.23639 0.0
C2694 C 0.39875 0.75746 0.23782 0.0
C2695 C 0.42524 0.78963 0.25793 0.0
C2696 C 0.38799 0.80104 0.23434 0.0
C2697 C 0.38957 0.81362 0.21312 0.0
C2698 C 0.37152 0.82936 0.20611 0.0
C2699 C 0.35084 0.83166 0.22075 0.0
C2700 C 0.34852 0.8184 0.24218 0.0
C2701 C 0.36774 0.80354 0.24941 0.0
H2702 H 0.94843 0.67832 0.95769 0.0
H2703 H 0.95953 0.67393 0.88015 0.0
H2704 H 0.95072 0.63077 0.88068 0.0
H2705 H 0.97871 0.63082 0.97214 0.0
H2706 H 0.95926 0.6198 -0.00419 0.0
H2707 H 0.95919 0.65091 0.98871 0.0
H2708 H 0.91261 0.64886 0.98126 0.0
H2709 H 0.91247 0.61759 0.98861 0.0
H2710 H 0.90013 0.62705 0.96017 0.0
H2711 H 0.95364 0.58845 0.89095 0.0
H2712 H 0.96348 0.55014 0.91008 0.0
H2713 H 0.94692 0.58072 0.98038 0.0
C2714 C 0.94795 0.66842 0.94071 0.0
C2715 C 0.95477 0.67938 0.91894 0.0
C2716 C 0.95431 0.66588 0.89707 0.0
C2717 C 0.94921 0.64134 0.89716 0.0
C2718 C 0.944 0.63071 0.91917 0.0
C2719 C 0.94264 0.64391 0.9405 0.0
C2720 C 0.94005 0.62783 0.9621 0.0
C2721 C 0.96053 0.63262 0.98075 0.0
C2722 C 0.91481 0.63049 0.97371 0.0
C2723 C 0.9425 0.60363 0.94981 0.0
C2724 C 0.94428 0.60563 0.92496 0.0
C2725 C 0.95114 0.58641 0.91021 0.0
C2726 C 0.95681 0.56479 0.92115 0.0
C2727 C 0.95517 0.56261 0.94646 0.0
C2728 C 0.94719 0.58192 0.96085 0.0
H2729 H 0.09083 0.2087 0.6954 0.0
H2730 H 0.1039 0.20674 0.61802 0.0
H2731 H 0.14726 0.19842 0.62549 0.0
H2732 H 0.14351 0.23956 0.71126 0.0
H2733 H 0.14884 0.22385 0.7389 0.0
H2734 H 0.11839 0.22622 0.72734 0.0
H2735 H 0.1137 0.18008 0.72759 0.0
H2736 H 0.14434 0.17758 0.73897 0.0
H2737 H 0.13543 0.1619 0.71156 0.0
H2738 H 0.18951 0.1962 0.64107 0.0
H2739 H 0.22801 0.20139 0.66388 0.0
H2740 H 0.18787 0.20303 0.73114 0.0
C2741 C 0.10273 0.2061 0.68001 0.0
C2742 C 0.09402 0.20833 0.65612 0.0
C2743 C 0.11019 0.20507 0.63648 0.0
C2744 C 0.13481 0.20017 0.64053 0.0
C2745 C 0.14288 0.19832 0.66432 0.0
C2746 C 0.12733 0.20112 0.68374 0.0
C2747 C 0.14101 0.20049 0.70751 0.0
C2748 C 0.13775 0.22392 0.72209 0.0
C2749 C 0.13315 0.17871 0.72228 0.0
C2750 C 0.16685 0.19795 0.6984 0.0
C2751 C 0.16746 0.19635 0.67341 0.0
C2752 C 0.1893 0.19671 0.66064 0.0
C2753 C 0.21104 0.19959 0.67368 0.0
C2754 C 0.21072 0.2018 0.69916 0.0
C2755 C 0.18848 0.20028 0.71172 0.0
H2756 H 0.48892 0.66656 0.11035 0.0
H2757 H 0.52153 0.71634 0.06017 0.0
H2758 H 0.52284 0.68457 0.02879 0.0
H2759 H 0.52161 0.61527 0.09241 0.0
H2760 H 0.49617 0.5948 0.09493 0.0
H2761 H 0.49735 0.62157 0.1134 0.0
H2762 H 0.45515 0.63389 0.09701 0.0
H2763 H 0.45383 0.60707 0.07854 0.0
H2764 H 0.45053 0.63584 0.06483 0.0
H2765 H 0.52465 0.64641 0.00438 0.0
H2766 H 0.52172 0.60531 0.9869 0.0
H2767 H 0.48406 0.58179 0.05124 0.0
C2768 C 0.49612 0.67074 0.09269 0.0
C2769 C 0.50516 0.69379 0.08764 0.0
C2770 C 0.51435 0.69876 0.06431 0.0
C2771 C 0.51528 0.68085 0.0464 0.0
C2772 C 0.50645 0.65822 0.05197 0.0
C2773 C 0.49658 0.65321 0.07435 0.0
C2774 C 0.48794 0.6275 0.07546 0.0
C2775 C 0.50159 0.614 0.09522 0.0
C2776 C 0.46021 0.626 0.07917 0.0
C2777 C 0.49501 0.61877 0.05043 0.0
C2778 C 0.50592 0.63667 0.03723 0.0
C2779 C 0.51566 0.63234 0.0143 0.0
C2780 C 0.51402 0.60906 0.00455 0.0
C2781 C 0.50226 0.59077 0.01759 0.0
C2782 C 0.49257 0.59574 0.0407 0.0
H2783 H 0.06587 0.71162 0.87739 0.0
H2784 H 0.07637 0.76674 0.9324 0.0
H2785 H 0.11852 0.77372 0.91794 0.0
H2786 H 0.13008 0.68869 0.87974 0.0
H2787 H 0.13006 0.68263 0.84763 0.0
H2788 H 0.10213 0.6802 0.86454 0.0
H2789 H 0.08194 0.70981 0.83535 0.0
H2790 H 0.10989 0.71284 0.81874 0.0
H2791 H 0.09554 0.73898 0.8314 0.0
H2792 H 0.15614 0.77938 0.89265 0.0
H2793 H 0.18994 0.77833 0.86301 0.0
H2794 H 0.15591 0.71714 0.82691 0.0
C2795 C 0.07747 0.72447 0.8869 0.0
C2796 C 0.06839 0.73843 0.90612 0.0
C2797 C 0.08351 0.75559 0.91795 0.0
C2798 C 0.1073 0.75975 0.90975 0.0
C2799 C 0.11557 0.74621 0.89012 0.0
C2800 C 0.10138 0.72839 0.87933 0.0
C2801 C 0.11416 0.71698 0.85801 0.0
C2802 C 0.11943 0.69056 0.86278 0.0
C2803 C 0.0995 0.71984 0.8345 0.0
C2804 C 0.13731 0.73182 0.85783 0.0
C2805 C 0.13775 0.7487 0.87636 0.0
C2806 C 0.15632 0.76585 0.87845 0.0
C2807 C 0.17523 0.7653 0.86146 0.0
C2808 C 0.17543 0.74754 0.84298 0.0
C2809 C 0.15626 0.73065 0.84118 0.0
H2810 H 0.00378 0.27857 0.57252 0.0
H2811 H 0.98536 0.30548 0.64416 0.0
H2812 H 0.96506 0.33992 0.62602 0.0
H2813 H 0.01819 0.33562 0.548 0.0
H2814 H 0.00619 0.32829 0.51841 0.0
H2815 H 0.01782 0.30507 0.53713 0.0
H2816 H 0.97654 0.28227 0.53308 0.0
H2817 H 0.96464 0.30573 0.51472 0.0
H2818 H 0.94883 0.29703 0.54177 0.0
H2819 H 0.94754 0.37157 0.60049 0.0
H2820 H 0.93903 0.40153 0.56963 0.0
H2821 H 0.9696 0.3547 0.51444 0.0
C2822 C -0.00456 0.29172 0.58435 0.0
C2823 C -0.00392 0.28939 0.60972 0.0
C2824 C 0.9852 0.30703 0.62467 0.0
C2825 C 0.9734 0.3265 0.61454 0.0
C2826 C 0.97278 0.32811 0.58946 0.0
C2827 C 0.98384 0.31144 0.57455 0.0
C2828 C 0.98207 0.31834 0.54826 0.0
C2829 C 0.00758 0.32206 0.53732 0.0
C2830 C 0.96713 0.29973 0.5336 0.0
C2831 C 0.9686 0.34168 0.55077 0.0
C2832 C 0.96304 0.34673 0.57466 0.0
C2833 C 0.95168 0.3678 0.5817 0.0
C2834 C 0.94686 0.38467 0.564 0.0
C2835 C 0.95362 0.38048 0.53959 0.0
C2836 C 0.96384 0.35831 0.53284 0.0
H2837 H 0.44173 0.30208 0.33736 0.0
H2838 H 0.47817 0.29157 0.2686 0.0
H2839 H 0.43898 0.27854 0.24996 0.0
H2840 H 0.40158 0.25272 0.33365 0.0
H2841 H 0.3761 0.2679 0.34712 0.0
H2842 H 0.40673 0.27711 0.35482 0.0
H2843 H 0.3978 0.32044 0.34178 0.0
H2844 H 0.36696 0.3115 0.3347 0.0
H2845 H 0.38561 0.32551 0.31205 0.0
H2846 H 0.39613 0.26362 0.24004 0.0
H2847 H 0.35177 0.25553 0.23741 0.0
H2848 H 0.34381 0.27785 0.31242 0.0
C2849 C 0.44136 0.2974 0.31827 0.0
C2850 C 0.46283 0.29778 0.30434 0.0
C2851 C 0.46177 0.29161 0.27945 0.0
C2852 C 0.4397 0.28394 0.26883 0.0
C2853 C 0.41896 0.28296 0.28334 0.0
C2854 C 0.41953 0.29014 0.30737 0.0
C2855 C 0.3947 0.28816 0.31893 0.0
C2856 C 0.3948 0.27041 0.33987 0.0
C2857 C 0.38574 0.31287 0.32735 0.0
C2858 C 0.38002 0.27851 0.29774 0.0
C2859 C 0.39435 0.27525 0.27745 0.0
C2860 C 0.38471 0.26626 0.25576 0.0
C2861 C 0.35958 0.26145 0.25452 0.0
C2862 C 0.34446 0.26603 0.27474 0.0
C2863 C 0.35498 0.27413 0.29672 0.0
H2864 H 0.44933 0.49911 0.32042 0.0
H2865 H 0.459 0.57263 0.299 0.0
H2866 H 0.46869 0.58443 0.34119 0.0
H2867 H 0.41718 0.51162 0.37081 0.0
H2868 H 0.42934 0.48879 0.3898 0.0
H2869 H 0.42917 0.48459 0.35752 0.0
H2870 H 0.47581 0.47812 0.35739 0.0
H2871 H 0.47605 0.48152 0.38985 0.0
H2872 H 0.49563 0.50006 0.37172 0.0
H2873 H 0.47065 0.58925 0.38589 0.0
H2874 H 0.46826 0.58621 0.43031 0.0
H2875 H 0.45509 0.50973 0.42264 0.0
C2876 C 0.45484 0.51738 0.32454 0.0
C2877 C 0.45421 0.53492 0.30666 0.0
C2878 C 0.46009 0.55897 0.3126 0.0
C2879 C 0.46547 0.56581 0.33645 0.0
C2880 C 0.46467 0.54835 0.35404 0.0
C2881 C 0.45986 0.52455 0.34838 0.0
C2882 C 0.4571 0.50992 0.37097 0.0
C2883 C 0.43169 0.49805 0.37234 0.0
C2884 C 0.47736 0.49131 0.37258 0.0
C2885 C 0.46022 0.52934 0.39009 0.0
C2886 C 0.46488 0.55131 0.38 0.0
C2887 C 0.46741 0.57208 0.39407 0.0
C2888 C 0.46579 0.57021 0.41925 0.0
C2889 C 0.46142 0.54777 0.42996 0.0
C2890 C 0.45835 0.52719 0.41506 0.0
H2891 H 0.2551 0.63715 0.14355 0.0
H2892 H 0.28178 0.67798 0.08274 0.0
H2893 H 0.28156 0.71463 0.10796 0.0
H2894 H 0.21484 0.68085 0.16673 0.0
H2895 H 0.22101 0.67506 0.19809 0.0
H2896 H 0.22421 0.65156 0.17573 0.0
H2897 H 0.26886 0.64516 0.1892 0.0
H2898 H 0.26567 0.6684 0.21186 0.0
H2899 H 0.28985 0.6702 0.18994 0.0
H2900 H 0.27655 0.74727 0.13899 0.0
H2901 H 0.27084 0.77308 0.17508 0.0
H2902 H 0.24775 0.71112 0.21584 0.0
C2903 C 0.26123 0.65372 0.13562 0.0
C2904 C 0.26843 0.6546 0.11111 0.0
C2905 C 0.27619 0.67675 0.10145 0.0
C2906 C 0.27605 0.69774 0.1156 0.0
C2907 C 0.26824 0.69634 0.13945 0.0
C2908 C 0.26129 0.67488 0.14952 0.0
C2909 C 0.25366 0.67838 0.17565 0.0
C2910 C 0.22684 0.67103 0.17925 0.0
C2911 C 0.27052 0.66473 0.19266 0.0
C2912 C 0.25722 0.70516 0.17856 0.0
C2913 C 0.26554 0.71518 0.15745 0.0
C2914 C 0.27013 0.73963 0.15569 0.0
C2915 C 0.2667 0.75417 0.17627 0.0
C2916 C 0.25882 0.74421 0.19835 0.0
C2917 C 0.2537 0.71938 0.19927 0.0
H2918 H 0.04925 0.50406 0.79717 0.0
H2919 H 0.09182 0.43948 0.79188 0.0
H2920 H 0.07952 0.42895 0.83348 0.0
H2921 H 0.06607 0.51827 0.85723 0.0
H2922 H 0.0369 0.5304 0.86536 0.0
H2923 H 0.04708 0.53134 0.83449 0.0
H2924 H 0.00768 0.50902 0.82053 0.0
H2925 H -0.00263 0.50803 0.85139 0.0
H2926 H -0.00029 0.48078 0.83377 0.0
H2927 H 0.06247 0.426 0.87629 0.0
H2928 H 0.04556 0.43305 0.91745 0.0
H2929 H 0.01729 0.50094 0.89437 0.0
C2930 C 0.05566 0.4875 0.80462 0.0
C2931 C 0.07121 0.47242 0.79132 0.0
C2932 C 0.07979 0.45122 0.80185 0.0
C2933 C 0.07282 0.44505 0.82537 0.0
C2934 C 0.05756 0.46046 0.83811 0.0
C2935 C 0.04932 0.48137 0.82812 0.0
C2936 C 0.03476 0.4959 0.84605 0.0
C2937 C 0.04694 0.52042 0.85108 0.0
C2938 C 0.00831 0.49858 0.83742 0.0
C2939 C 0.03621 0.48002 0.86776 0.0
C2940 C 0.04901 0.45943 0.86284 0.0
C2941 C 0.05246 0.4421 0.88036 0.0
C2942 C 0.04281 0.44618 0.90359 0.0
C2943 C 0.03046 0.46762 0.90899 0.0
C2944 C 0.02698 0.48452 0.89076 0.0
H2945 H 0.26475 0.30313 0.56232 0.0
H2946 H 0.30586 0.36765 0.57987 0.0
H2947 H 0.331 0.34528 0.60859 0.0
H2948 H 0.25731 0.28672 0.61938 0.0
H2949 H 0.25897 0.25488 0.61431 0.0
H2950 H 0.24974 0.27374 0.59022 0.0
H2951 H 0.28426 0.25667 0.56331 0.0
H2952 H 0.29376 0.23787 0.58765 0.0
H2953 H 0.31531 0.25805 0.57394 0.0
H2954 H 0.34601 0.31859 0.64052 0.0
H2955 H 0.34512 0.29237 0.67603 0.0
H2956 H 0.29284 0.24582 0.63956 0.0
C2957 C 0.27975 0.31221 0.57149 0.0
C2958 C 0.28371 0.33692 0.56871 0.0
C2959 C 0.30275 0.34861 0.58168 0.0
C2960 C 0.31726 0.33599 0.59783 0.0
C2961 C 0.31239 0.31171 0.60089 0.0
C2962 C 0.29396 0.29996 0.58812 0.0
C2963 C 0.289 0.27538 0.59809 0.0
C2964 C 0.26219 0.27255 0.60598 0.0
C2965 C 0.29601 0.25584 0.57964 0.0
C2966 C 0.30623 0.27582 0.6195 0.0
C2967 C 0.32039 0.29644 0.62019 0.0
C2968 C 0.33552 0.30209 0.63987 0.0
C2969 C 0.33507 0.28704 0.65991 0.0
C2970 C 0.31916 0.26703 0.66019 0.0
C2971 C 0.30558 0.26075 0.63934 0.0
H2972 H 0.43444 0.52302 0.18592 0.0
H2973 H 0.36505 0.55345 0.1661 0.0
H2974 H 0.36973 0.5372 0.12453 0.0
H2975 H 0.46504 0.53605 0.13291 0.0
H2976 H 0.48236 0.50891 0.13225 0.0
H2977 H 0.47196 0.52102 0.16062 0.0
H2978 H 0.45044 0.48058 0.16963 0.0
H2979 H 0.46046 0.46852 0.14096 0.0
H2980 H 0.42851 0.46828 0.14839 0.0
H2981 H 0.38413 0.52143 0.08449 0.0
H2982 H 0.40841 0.51001 0.04876 0.0
H2983 H 0.46715 0.48808 0.09571 0.0
C2984 C 0.42012 0.52614 0.17291 0.0
C2985 C 0.39941 0.53949 0.17912 0.0
C2986 C 0.38109 0.54324 0.16161 0.0
C2987 C 0.38347 0.53391 0.13808 0.0
C2988 C 0.40408 0.52061 0.1326 0.0
C2989 C 0.42206 0.51676 0.14954 0.0
C2990 C 0.44327 0.50346 0.13876 0.0
C2991 C 0.46705 0.51825 0.14127 0.0
C2992 C 0.44581 0.47874 0.15011 0.0
C2993 C 0.43493 0.50134 0.11279 0.0
C2994 C 0.41209 0.51097 0.10963 0.0
C2995 C 0.4018 0.51341 0.08679 0.0
C2996 C 0.4157 0.50684 0.06661 0.0
C2997 C 0.43959 0.49802 0.06953 0.0
C2998 C 0.44876 0.49425 0.09293 0.0
H2999 H 0.25398 0.62108 0.94893 0.0
H3000 H 0.30845 0.66492 0.98612 0.0
H3001 H 0.31936 0.68385 0.94748 0.0
H3002 H 0.2865 0.61379 0.89078 0.0
H3003 H 0.25888 0.61632 0.8734 0.0
H3004 H 0.25787 0.60377 0.90319 0.0
H3005 H 0.22576 0.63496 0.91631 0.0
H3006 H 0.22655 0.64744 0.8866 0.0
H3007 H 0.23245 0.66632 0.91273 0.0
H3008 H 0.32214 0.70002 0.90552 0.0
H3009 H 0.31355 0.71525 0.8648 0.0
H3010 H 0.2561 0.66183 0.85566 0.0
C3011 C 0.26854 0.63432 0.94883 0.0
C3012 C 0.28054 0.64144 0.97038 0.0
C3013 C 0.29908 0.65922 0.96973 0.0
C3014 C 0.30553 0.66991 0.94786 0.0
C3015 C 0.29317 0.66265 0.92691 0.0
C3016 C 0.27493 0.64539 0.92727 0.0
C3017 C 0.26258 0.64268 0.90291 0.0
C3018 C 0.26671 0.61765 0.89192 0.0
C3019 C 0.23523 0.64819 0.90476 0.0
C3020 C 0.27622 0.66161 0.88898 0.0
C3021 C 0.29419 0.67253 0.90293 0.0
C3022 C 0.30829 0.69143 0.89433 0.0
C3023 C 0.30333 0.69991 0.87114 0.0
C3024 C 0.28414 0.68973 0.85708 0.0
C3025 C 0.27095 0.66991 0.86593 0.0
H3026 H 0.0584 0.4679 0.66371 0.0
H3027 H 0.1251 0.49905 0.63539 0.0
H3028 H 0.1037 0.50821 0.59738 0.0
H3029 H 0.0392 0.43974 0.60915 0.0
H3030 H 0.00731 0.445 0.61436 0.0
H3031 H 0.02774 0.44239 0.63959 0.0
H3032 H 0.01394 0.4838 0.65584 0.0
H3033 H -0.00623 0.4867 0.63036 0.0
H3034 H 0.0165 0.50948 0.63673 0.0
H3035 H 0.07551 0.51246 0.56212 0.0
H3036 H 0.04397 0.50777 0.53061 0.0
H3037 H -0.00423 0.47405 0.58245 0.0
C3038 C 0.06851 0.47673 0.64956 0.0
C3039 C 0.09336 0.48285 0.65247 0.0
C3040 C 0.10602 0.4942 0.63348 0.0
C3041 C 0.09399 0.49965 0.61194 0.0
C3042 C 0.06936 0.49368 0.60982 0.0
C3043 C 0.05683 0.48228 0.62803 0.0
C3044 C 0.03087 0.47644 0.62072 0.0
C3045 C 0.02601 0.44929 0.62096 0.0
C3046 C 0.0127 0.48992 0.63688 0.0
C3047 C 0.03087 0.48589 0.59531 0.0
C3048 C 0.05312 0.49608 0.58948 0.0
C3049 C 0.05794 0.50474 0.56652 0.0
C3050 C 0.03986 0.50204 0.54877 0.0
C3051 C 0.01736 0.49056 0.55407 0.0
C3052 C 0.0126 0.4832 0.57789 0.0
H3053 H 0.24895 0.35577 0.44483 0.0
H3054 H 0.17719 0.38653 0.43758 0.0
H3055 H 0.17256 0.36692 0.39745 0.0
H3056 H 0.26636 0.36316 0.38279 0.0
H3057 H 0.2831 0.33569 0.3814 0.0
H3058 H 0.28026 0.35173 0.40971 0.0
H3059 H 0.26213 0.31367 0.42927 0.0
H3060 H 0.26464 0.2976 0.40092 0.0
H3061 H 0.23561 0.29935 0.41596 0.0
H3062 H 0.17541 0.34287 0.35854 0.0
H3063 H 0.18762 0.32028 0.32175 0.0
H3064 H 0.25802 0.30693 0.35429 0.0
C3065 C 0.23227 0.35841 0.43479 0.0
C3066 C 0.21341 0.37259 0.44429 0.0
C3067 C 0.19195 0.37582 0.43053 0.0
C3068 C 0.18906 0.36462 0.40783 0.0
C3069 C 0.2079 0.35048 0.39912 0.0
C3070 C 0.22923 0.34766 0.41202 0.0
C3071 C 0.24713 0.33238 0.39823 0.0
C3072 C 0.27059 0.34659 0.3927 0.0
C3073 C 0.25269 0.30939 0.41191 0.0
C3074 C 0.23256 0.32706 0.37553 0.0
C3075 C 0.20984 0.33735 0.37648 0.0
C3076 C 0.19318 0.33478 0.35754 0.0
C3077 C 0.2002 0.32182 0.33682 0.0
C3078 C 0.22376 0.31197 0.3352 0.0
C3079 C 0.23991 0.31436 0.35499 0.0
H3080 H 0.29938 0.42695 0.50863 0.0
H3081 H 0.25752 0.48377 0.54192 0.0
H3082 H 0.29564 0.50704 0.5494 0.0
H3083 H 0.35127 0.43068 0.54705 0.0
H3084 H 0.3729 0.42535 0.52315 0.0
H3085 H 0.34244 0.41321 0.52072 0.0
H3086 H 0.33659 0.43424 0.47976 0.0
H3087 H 0.36713 0.4462 0.4819 0.0
H3088 H 0.34187 0.46601 0.478 0.0
H3089 H 0.33885 0.52258 0.55552 0.0
H3090 H 0.38297 0.53222 0.55416 0.0
H3091 H 0.39558 0.46648 0.51376 0.0
C3092 C 0.29826 0.44435 0.5174 0.0
C3093 C 0.27567 0.4536 0.52487 0.0
C3094 C 0.27474 0.4765 0.53602 0.0
C3095 C 0.29626 0.48971 0.54047 0.0
C3096 C 0.31835 0.47986 0.53322 0.0
C3097 C 0.3194 0.45793 0.52145 0.0
C3098 C 0.34521 0.45172 0.51453 0.0
C3099 C 0.35343 0.42889 0.52712 0.0
C3100 C 0.34785 0.44942 0.48691 0.0
C3101 C 0.35863 0.47353 0.52441 0.0
C3102 C 0.34291 0.48938 0.5355 0.0
C3103 C 0.35129 0.51043 0.54667 0.0
C3104 C 0.37634 0.51566 0.54596 0.0
C3105 C 0.39252 0.50011 0.53377 0.0
C3106 C 0.38353 0.47873 0.52305 0.0
H3107 H 0.76109 0.03262 0.50491 0.0
H3108 H 0.77254 0.07741 0.44267 0.0
H3109 H 0.80363 0.04965 0.42734 0.0
H3110 H 0.81997 0.02425 0.5164 0.0
H3111 H 0.81732 -0.00615 0.52642 0.0
H3112 H 0.79169 0.01321 0.52873 0.0
H3113 H 0.76576 0.98261 0.50364 0.0
H3114 H 0.79165 0.96325 0.50101 0.0
H3115 H 0.77614 0.97291 0.47422 0.0
H3116 H 0.8385 0.02224 0.42293 0.0
H3117 H 0.87635 0.00083 0.43255 0.0
H3118 H 0.84313 0.9743 0.49776 0.0
C3119 C 0.76952 0.03607 0.48761 0.0
C3120 C 0.76432 0.057 0.47489 0.0
C3121 C 0.77624 0.06139 0.45269 0.0
C3122 C 0.79373 0.04558 0.44369 0.0
C3123 C 0.79906 0.02541 0.45704 0.0
C3124 C 0.78728 0.02064 0.47858 0.0
C3125 C 0.79924 0.00043 0.49172 0.0
C3126 C 0.80756 0.00844 0.51729 0.0
C3127 C 0.78218 0.9785 0.4927 0.0
C3128 C 0.82061 -0.00423 0.47514 0.0
C3129 C 0.81969 0.00964 0.45471 0.0
C3130 C 0.83909 0.01073 0.43843 0.0
C3131 C 0.86046 -0.00159 0.44388 0.0
C3132 C 0.86217 0.98561 0.46555 0.0
C3133 C 0.84171 0.98337 0.48068 0.0
H3134 H 0.64752 0.02929 0.25411 0.0
H3135 H 0.61679 0.03175 0.18189 0.0
H3136 H 0.64812 0.06154 0.17048 0.0
H3137 H 0.6594 0.09219 0.25927 0.0
H3138 H 0.68706 0.08897 0.27643 0.0
H3139 H 0.6633 0.06663 0.27822 0.0
H3140 H 0.69417 0.03406 0.26561 0.0
H3141 H 0.71795 0.05641 0.26343 0.0
H3142 H 0.71098 0.03713 0.23785 0.0
H3143 H 0.68285 0.09052 0.1668 0.0
H3144 H 0.71437 0.12182 0.17279 0.0
H3145 H 0.72089 0.10249 0.2482 0.0
C3146 C 0.64747 0.0361 0.2359 0.0
C3147 C 0.62987 0.02826 0.21883 0.0
C3148 C 0.63008 0.03772 0.19526 0.0
C3149 C 0.64793 0.05442 0.18855 0.0
C3150 C 0.6652 0.06164 0.20572 0.0
C3151 C 0.66484 0.05317 0.22905 0.0
C3152 C 0.68428 0.06528 0.24455 0.0
C3153 C 0.67282 0.07909 0.26586 0.0
C3154 C 0.70295 0.04713 0.25337 0.0
C3155 C 0.69547 0.08203 0.22633 0.0
C3156 C 0.68456 0.07924 0.20392 0.0
C3157 C 0.69155 0.09291 0.18426 0.0
C3158 C 0.70959 0.11054 0.18782 0.0
C3159 C 0.72007 0.11461 0.21098 0.0
C3160 C 0.71326 0.09976 0.23029 0.0
H3161 H 0.63123 0.90153 0.0721 0.0
H3162 H 0.61346 0.83479 0.03487 0.0
H3163 H 0.57357 0.85094 0.02322 0.0
H3164 H 0.56514 0.91838 0.08932 0.0
H3165 H 0.57224 0.94934 0.08391 0.0
H3166 H 0.59524 0.93006 0.09582 0.0
H3167 H 0.62368 0.94191 0.0605 0.0
H3168 H 0.60062 0.96044 0.04796 0.0
H3169 H 0.61361 0.93683 0.02977 0.0
H3170 H 0.54035 0.87715 0.00803 0.0
H3171 H 0.51539 0.91028 -0.00695 0.0
H3172 H 0.55659 0.96033 0.03837 0.0
C3173 C 0.61844 0.88991 0.06251 0.0
C3174 C 0.62538 0.86697 0.05436 0.0
C3175 C 0.60841 0.85236 0.04148 0.0
C3176 C 0.58572 0.86142 0.03474 0.0
C3177 C 0.58025 0.88491 0.04139 0.0
C3178 C 0.59592 0.89878 0.05554 0.0
C3179 C 0.58771 0.92447 0.05721 0.0
C3180 C 0.5796 0.93093 0.0831 0.0
C3181 C 0.60758 0.94191 0.04831 0.0
C3182 C 0.56622 0.92333 0.04018 0.0
C3183 C 0.56164 0.90028 0.03185 0.0
C3184 C 0.54352 0.89519 0.01477 0.0
C3185 C 0.52964 0.91413 0.00617 0.0
C3186 C 0.53439 0.93789 0.01424 0.0
C3187 C 0.5528 0.9424 0.03158 0.0
H3188 H 0.37629 0.44514 0.26608 0.0
H3189 H 0.3213 0.49544 0.24456 0.0
H3190 H 0.29112 0.46234 0.24059 0.0
H3191 H 0.3599 0.39824 0.22736 0.0
H3192 H 0.36504 0.37476 0.24859 0.0
H3193 H 0.38182 0.4025 0.2514 0.0
H3194 H 0.36667 0.40817 0.29547 0.0
H3195 H 0.35024 0.38017 0.29296 0.0
H3196 H 0.33446 0.407 0.30166 0.0
H3197 H 0.26892 0.42289 0.23359 0.0
H3198 H 0.25406 0.3808 0.23141 0.0
H3199 H 0.32266 0.35739 0.2611 0.0
C3200 C 0.35774 0.44918 0.26105 0.0
C3201 C 0.35096 0.47267 0.25562 0.0
C3202 C 0.32663 0.47749 0.24904 0.0
C3203 C 0.30948 0.45882 0.24656 0.0
C3204 C 0.31694 0.43567 0.25133 0.0
C3205 C 0.3403 0.43091 0.25912 0.0
C3206 C 0.34375 0.40454 0.26313 0.0
C3207 C 0.36381 0.39443 0.24663 0.0
C3208 C 0.34909 0.39969 0.2899 0.0
C3209 C 0.3189 0.39512 0.25574 0.0
C3210 C 0.30374 0.41326 0.24869 0.0
C3211 C 0.28043 0.40858 0.23954 0.0
C3212 C 0.27224 0.38473 0.23814 0.0
C3213 C 0.28723 0.36617 0.24628 0.0
C3214 C 0.31081 0.37144 0.25507 0.0
H3215 H 0.18427 0.55835 0.05105 0.0
H3216 H 0.17639 0.62855 0.02006 0.0
H3217 H 0.13384 0.61862 0.00908 0.0
H3218 H 0.15003 0.52598 0.00772 0.0
H3219 H 0.1358 0.506 0.02882 0.0
H3220 H 0.16522 0.51902 0.0356 0.0
H3221 H 0.1487 0.53624 0.07605 0.0
H3222 H 0.11923 0.52312 0.06947 0.0
H3223 H 0.12206 0.55472 0.07588 0.0
H3224 H 0.09406 0.59962 -0.0025 0.0
H3225 H 0.05772 0.57411 0.98978 0.0
H3226 H 0.09011 0.5173 0.03084 0.0
C3227 C 0.17347 0.57171 0.04222 0.0
C3228 C 0.18359 0.59418 0.03632 0.0
C3229 C 0.16894 0.61126 0.02482 0.0
C3230 C 0.14478 0.60577 0.01847 0.0
C3231 C 0.13547 0.58331 0.02415 0.0
C3232 C 0.14918 0.56668 0.03614 0.0
C3233 C 0.13483 0.54375 0.03986 0.0
C3234 C 0.14721 0.52243 0.02724 0.0
C3235 C 0.13098 0.5392 0.06693 0.0
C3236 C 0.11114 0.54987 0.02752 0.0
C3237 C 0.11198 0.57274 0.01848 0.0
C3238 C 0.09299 0.58185 0.00487 0.0
C3239 C 0.07253 0.56722 0.00046 0.0
C3240 C 0.07113 0.54391 0.00993 0.0
C3241 C 0.0906 0.53523 0.02379 0.0
H3242 H 0.68346 0.91492 0.24502 0.0
H3243 H 0.63564 0.89263 0.30289 0.0
H3244 H 0.66755 0.86558 0.3177 0.0
H3245 H 0.70325 0.85843 0.23083 0.0
H3246 H 0.73379 0.86741 0.22283 0.0
H3247 H 0.70933 0.88816 0.22014 0.0
H3248 H 0.73298 0.91839 0.24776 0.0
H3249 H 0.75742 0.89744 0.2508 0.0
H3250 H 0.74272 0.90947 0.27737 0.0
H3251 H 0.7031 0.83837 0.32375 0.0
H3252 H 0.73521 0.80863 0.31639 0.0
H3253 H 0.75833 0.84706 0.2529 0.0
C3254 C 0.67997 0.90479 0.26119 0.0
C3255 C 0.65731 0.90604 0.27307 0.0
C3256 C 0.653 0.89196 0.29366 0.0
C3257 C 0.6711 0.87677 0.30231 0.0
C3258 C 0.69326 0.87579 0.29003 0.0
C3259 C 0.69758 0.88922 0.26968 0.0
C3260 C 0.72116 0.88232 0.25749 0.0
C3261 C 0.71659 0.87355 0.23129 0.0
C3262 C 0.73966 0.90315 0.25842 0.0
C3263 C 0.72901 0.86222 0.27356 0.0
C3264 C 0.71318 0.85928 0.29275 0.0
C3265 C 0.71579 0.84071 0.30901 0.0
C3266 C 0.73422 0.824 0.3048 0.0
C3267 C 0.74928 0.8257 0.28415 0.0
C3268 C 0.74726 0.8456 0.269 0.0
H3269 H 0.82269 0.08161 0.79911 0.0
H3270 H 0.8925 0.10603 0.82739 0.0
H3271 H 0.87479 0.14526 0.8374 0.0
H3272 H 0.8121 0.12826 0.76721 0.0
H3273 H 0.77961 0.12996 0.77141 0.0
H3274 H 0.79451 0.10194 0.77457 0.0
H3275 H 0.77717 0.09778 0.81784 0.0
H3276 H 0.76182 0.12585 0.81471 0.0
H3277 H 0.78209 0.12147 0.83986 0.0
H3278 H 0.85314 0.184 0.83434 0.0
H3279 H 0.83024 0.21786 0.81794 0.0
H3280 H 0.77517 0.16846 0.79019 0.0
C3281 C 0.83395 0.09482 0.80848 0.0
C3282 C 0.85892 0.09079 0.81251 0.0
C3283 C 0.87324 0.10866 0.82433 0.0
C3284 C 0.86329 0.13101 0.83014 0.0
C3285 C 0.83897 0.13504 0.82427 0.0
C3286 C 0.82437 0.11722 0.81402 0.0
C3287 C 0.80046 0.12699 0.80517 0.0
C3288 C 0.79648 0.12148 0.778 0.0
C3289 C 0.77912 0.11746 0.82031 0.0
C3290 C 0.80474 0.15335 0.81002 0.0
C3291 C 0.82659 0.15764 0.82192 0.0
C3292 C 0.83569 0.18083 0.82566 0.0
C3293 C 0.82259 0.19997 0.81627 0.0
C3294 C 0.80099 0.19566 0.80283 0.0
C3295 C 0.79156 0.17219 0.80057 0.0
loop_
_geom_bond_atom_site_label_1
_geom_bond_atom_site_label_2
_geom_bond_distance
_geom_bond_site_symmetry_2
_ccdc_geom_bond_type
C0 O1 1.306 . S
C0 O3 1.160 . S
O1 C0 1.306 . S
O1 Cd2 2.228 1_655 S
Cd2 O1 2.228 1_455 S
Cd2 O6 2.273 . S
Cd2 O10 2.277 . S
O3 C0 1.160 . S
O3 Cd4 2.203 1_655 S
Cd4 O3 2.203 1_455 S
Cd4 O6 2.411 . S
Cd4 O7 2.333 . S
Cd4 O8 2.352 . S
Cd4 O12 2.277 . S
Cd4 O13 2.356 . S
C5 O10 1.209 . S
C5 O12 1.226 . S
O6 Cd2 2.273 . S
O6 Cd4 2.411 . S
O6 C9 1.320 . S
O7 Cd4 2.333 . S
O7 C9 1.214 . S
O8 Cd4 2.352 . S
O8 C11 1.258 . S
C9 O6 1.320 . S
C9 O7 1.214 . S
O10 Cd2 2.277 . S
O10 C5 1.209 . S
C11 O8 1.258 . S
C11 O13 1.282 . S
O12 Cd4 2.277 . S
O12 C5 1.226 . S
O13 Cd4 2.356 . S
O13 C11 1.282 . S
C14 O15 1.306 . S
C14 O17 1.160 . S
O15 C14 1.306 . S
O15 Cd16 2.228 1_655 S
Cd16 O15 2.228 1_455 S
Cd16 O20 2.273 . S
Cd16 O24 2.277 . S
O17 C14 1.160 . S
O17 Cd18 2.203 1_655 S
Cd18 O17 2.203 1_455 S
Cd18 O20 2.411 . S
Cd18 O21 2.333 . S
Cd18 O22 2.352 . S
Cd18 O26 2.277 . S
Cd18 O27 2.356 . S
C19 O24 1.209 . S
C19 O26 1.226 . S
O20 Cd16 2.273 . S
O20 Cd18 2.411 . S
O20 C23 1.320 . S
O21 Cd18 2.333 . S
O21 C23 1.214 . S
O22 Cd18 2.352 . S
O22 C25 1.258 . S
C23 O20 1.320 . S
C23 O21 1.214 . S
O24 Cd16 2.277 . S
O24 C19 1.209 . S
C25 O22 1.258 . S
C25 O27 1.282 . S
O26 Cd18 2.277 . S
O26 C19 1.226 . S
O27 Cd18 2.356 . S
O27 C25 1.282 . S
C28 O29 1.306 . S
C28 O31 1.160 . S
O29 C28 1.306 . S
O29 Cd30 2.228 . S
Cd30 O29 2.228 . S
Cd30 O34 2.273 . S
Cd30 O38 2.277 . S
O31 C28 1.160 . S
O31 Cd32 2.203 . S
Cd32 O31 2.203 . S
Cd32 O34 2.411 . S
Cd32 O35 2.333 . S
Cd32 O36 2.352 . S
Cd32 O40 2.277 . S
Cd32 O41 2.356 . S
C33 O38 1.209 . S
C33 O40 1.226 . S
O34 Cd30 2.273 . S
O34 Cd32 2.411 . S
O34 C37 1.320 . S
O35 Cd32 2.333 . S
O35 C37 1.214 . S
O36 Cd32 2.352 . S
O36 C39 1.258 . S
C37 O34 1.320 . S
C37 O35 1.214 . S
O38 Cd30 2.277 . S
O38 C33 1.209 . S
C39 O36 1.258 . S
C39 O41 1.282 . S
O40 Cd32 2.277 . S
O40 C33 1.226 . S
O41 Cd32 2.356 . S
O41 C39 1.282 . S
C42 O43 1.306 . S
C42 O45 1.160 . S
O43 C42 1.306 . S
O43 Cd44 2.228 . S
Cd44 O43 2.228 . S
Cd44 O48 2.273 . S
Cd44 O52 2.277 . S
O45 C42 1.160 . S
O45 Cd46 2.203 . S
Cd46 O45 2.203 . S
Cd46 O48 2.411 . S
Cd46 O49 2.333 . S
Cd46 O50 2.352 . S
Cd46 O54 2.277 . S
Cd46 O55 2.356 . S
C47 O52 1.209 . S
C47 O54 1.226 . S
O48 Cd44 2.273 . S
O48 Cd46 2.411 . S
O48 C51 1.320 . S
O49 Cd46 2.333 . S
O49 C51 1.214 . S
O50 Cd46 2.352 . S
O50 C53 1.258 . S
C51 O48 1.320 . S
C51 O49 1.214 . S
O52 Cd44 2.277 . S
O52 C47 1.209 . S
C53 O50 1.258 . S
C53 O55 1.282 . S
O54 Cd46 2.277 . S
O54 C47 1.226 . S
O55 Cd46 2.356 . S
O55 C53 1.282 . S
C56 O57 1.306 . S
C56 O59 1.160 . S
O57 C56 1.306 . S
O57 Cd58 2.228 . S
Cd58 O57 2.228 . S
Cd58 O62 2.273 . S
Cd58 O66 2.277 . S
O59 C56 1.160 . S
O59 Cd60 2.203 . S
Cd60 O59 2.203 . S
Cd60 O62 2.411 . S
Cd60 O63 2.333 . S
Cd60 O64 2.352 1_545 S
Cd60 O68 2.277 . S
Cd60 O69 2.356 1_545 S
C61 O66 1.209 . S
C61 O68 1.226 . S
O62 Cd58 2.273 . S
O62 Cd60 2.411 . S
O62 C65 1.320 . S
O63 Cd60 2.333 . S
O63 C65 1.214 . S
O64 Cd60 2.352 1_565 S
O64 C67 1.258 . S
C65 O62 1.320 . S
C65 O63 1.214 . S
O66 Cd58 2.277 . S
O66 C61 1.209 . S
C67 O64 1.258 . S
C67 O69 1.282 . S
O68 Cd60 2.277 . S
O68 C61 1.226 . S
O69 Cd60 2.356 1_565 S
O69 C67 1.282 . S
C70 O71 1.306 . S
C70 O73 1.160 . S
O71 C70 1.306 . S
O71 Cd72 2.228 . S
Cd72 O71 2.228 . S
Cd72 O76 2.273 . S
Cd72 O80 2.277 . S
O73 C70 1.160 . S
O73 Cd74 2.203 . S
Cd74 O73 2.203 . S
Cd74 O76 2.411 . S
Cd74 O77 2.333 . S
Cd74 O78 2.352 . S
Cd74 O82 2.277 . S
Cd74 O83 2.356 . S
C75 O80 1.209 . S
C75 O82 1.226 . S
O76 Cd72 2.273 . S
O76 Cd74 2.411 . S
O76 C79 1.320 . S
O77 Cd74 2.333 . S
O77 C79 1.214 . S
O78 Cd74 2.352 . S
O78 C81 1.258 . S
C79 O76 1.320 . S
C79 O77 1.214 . S
O80 Cd72 2.277 . S
O80 C75 1.209 . S
C81 O78 1.258 . S
C81 O83 1.282 . S
O82 Cd74 2.277 . S
O82 C75 1.226 . S
O83 Cd74 2.356 . S
O83 C81 1.282 . S
C84 O85 1.306 . S
C84 O87 1.160 1_565 S
O85 C84 1.306 . S
O85 Cd86 2.228 . S
Cd86 O85 2.228 . S
Cd86 O90 2.307 . S
Cd86 O94 2.277 . S
O87 C84 1.160 1_545 S
O87 Cd88 2.203 . S
Cd88 O87 2.203 . S
Cd88 O90 2.407 1_545 S
Cd88 O91 2.333 . S
Cd88 O92 2.352 . S
Cd88 O96 2.277 1_545 S
Cd88 O97 2.356 . S
C89 O94 1.209 . S
C89 O96 1.226 . S
O90 Cd86 2.307 . S
O90 Cd88 2.407 1_565 S
O90 C93 1.317 1_565 S
O91 Cd88 2.333 . S
O91 C93 1.214 . S
O92 Cd88 2.352 . S
O92 C95 1.258 . S
C93 O90 1.317 1_545 S
C93 O91 1.214 . S
O94 Cd86 2.277 . S
O94 C89 1.209 . S
C95 O92 1.258 . S
C95 O97 1.282 . S
O96 Cd88 2.277 1_565 S
O96 C89 1.226 . S
O97 Cd88 2.356 . S
O97 C95 1.282 . S
C98 O99 1.306 . S
C98 O101 1.160 . S
O99 C98 1.306 . S
O99 Cd100 2.228 . S
Cd100 O99 2.228 . S
Cd100 O104 2.273 . S
Cd100 O108 2.277 . S
O101 C98 1.160 . S
O101 Cd102 2.203 . S
Cd102 O101 2.203 . S
Cd102 O104 2.411 . S
Cd102 O105 2.333 . S
Cd102 O106 2.352 1_554 S
Cd102 O110 2.277 . S
Cd102 O111 2.356 1_554 S
C103 O108 1.209 . S
C103 O110 1.226 . S
O104 Cd100 2.273 . S
O104 Cd102 2.411 . S
O104 C107 1.320 . S
O105 Cd102 2.333 . S
O105 C107 1.214 . S
O106 Cd102 2.352 1_556 S
O106 C109 1.258 . S
C107 O104 1.320 . S
C107 O105 1.214 . S
O108 Cd100 2.277 . S
O108 C103 1.209 . S
C109 O106 1.258 . S
C109 O111 1.282 . S
O110 Cd102 2.277 . S
O110 C103 1.226 . S
O111 Cd102 2.356 1_556 S
O111 C109 1.282 . S
C112 O113 1.306 1_554 S
C112 O115 1.160 . S
O113 C112 1.306 1_556 S
O113 Cd114 2.228 . S
Cd114 O113 2.228 . S
Cd114 O118 2.273 1_556 S
Cd114 O122 2.277 . S
O115 C112 1.160 . S
O115 Cd116 2.203 . S
Cd116 O115 2.203 . S
Cd116 O118 2.411 . S
Cd116 O119 2.333 . S
Cd116 O120 2.352 . S
Cd116 O124 2.277 1_554 S
Cd116 O125 2.356 . S
C117 O122 1.209 . S
C117 O124 1.226 . S
O118 Cd114 2.273 1_554 S
O118 Cd116 2.411 . S
O118 C121 1.320 . S
O119 Cd116 2.333 . S
O119 C121 1.214 . S
O120 Cd116 2.352 . S
O120 C123 1.258 . S
C121 O118 1.320 . S
C121 O119 1.214 . S
O122 Cd114 2.277 . S
O122 C117 1.209 . S
C123 O120 1.258 . S
C123 O125 1.282 . S
O124 Cd116 2.277 1_556 S
O124 C117 1.226 . S
O125 Cd116 2.356 . S
O125 C123 1.282 . S
C126 O127 1.306 . S
C126 O129 1.160 . S
O127 C126 1.306 . S
O127 Cd128 2.228 . S
Cd128 O127 2.228 . S
Cd128 O132 2.273 . S
Cd128 O136 2.277 . S
O129 C126 1.160 . S
O129 Cd130 2.203 . S
Cd130 O129 2.203 . S
Cd130 O132 2.411 . S
Cd130 O133 2.333 . S
Cd130 O134 2.352 . S
Cd130 O138 2.277 . S
Cd130 O139 2.356 . S
C131 O136 1.209 . S
C131 O138 1.226 . S
O132 Cd128 2.273 . S
O132 Cd130 2.411 . S
O132 C135 1.320 . S
O133 Cd130 2.333 . S
O133 C135 1.214 . S
O134 Cd130 2.352 . S
O134 C137 1.258 . S
C135 O132 1.320 . S
C135 O133 1.214 . S
O136 Cd128 2.277 . S
O136 C131 1.209 . S
C137 O134 1.258 . S
C137 O139 1.282 . S
O138 Cd130 2.277 . S
O138 C131 1.226 . S
O139 Cd130 2.356 . S
O139 C137 1.282 . S
C140 O141 1.306 . S
C140 O143 1.160 . S
O141 C140 1.306 . S
O141 Cd142 2.228 . S
Cd142 O141 2.228 . S
Cd142 O146 2.273 . S
Cd142 O150 2.277 . S
O143 C140 1.160 . S
O143 Cd144 2.203 . S
Cd144 O143 2.203 . S
Cd144 O146 2.411 . S
Cd144 O147 2.333 . S
Cd144 O148 2.352 . S
Cd144 O152 2.277 . S
Cd144 O153 2.356 . S
C145 O150 1.209 . S
C145 O152 1.226 . S
O146 Cd142 2.273 . S
O146 Cd144 2.411 . S
O146 C149 1.320 . S
O147 Cd144 2.333 . S
O147 C149 1.214 . S
O148 Cd144 2.352 . S
O148 C151 1.258 . S
C149 O146 1.320 . S
C149 O147 1.214 . S
O150 Cd142 2.277 . S
O150 C145 1.209 . S
C151 O148 1.258 . S
C151 O153 1.282 . S
O152 Cd144 2.277 . S
O152 C145 1.226 . S
O153 Cd144 2.356 . S
O153 C151 1.282 . S
C154 O155 1.306 . S
C154 O157 1.160 . S
O155 C154 1.306 . S
O155 Cd156 2.228 . S
Cd156 O155 2.228 . S
Cd156 O160 2.273 . S
Cd156 O164 2.277 . S
O157 C154 1.160 . S
O157 Cd158 2.203 . S
Cd158 O157 2.203 . S
Cd158 O160 2.411 . S
Cd158 O161 2.333 . S
Cd158 O162 2.352 . S
Cd158 O166 2.277 . S
Cd158 O167 2.356 . S
C159 O164 1.209 . S
C159 O166 1.226 . S
O160 Cd156 2.273 . S
O160 Cd158 2.411 . S
O160 C163 1.320 . S
O161 Cd158 2.333 . S
O161 C163 1.214 . S
O162 Cd158 2.352 . S
O162 C165 1.258 . S
C163 O160 1.320 . S
C163 O161 1.214 . S
O164 Cd156 2.277 . S
O164 C159 1.209 . S
C165 O162 1.258 . S
C165 O167 1.282 . S
O166 Cd158 2.277 . S
O166 C159 1.226 . S
O167 Cd158 2.356 . S
O167 C165 1.282 . S
C168 O169 1.306 . S
C168 O171 1.160 . S
O169 C168 1.306 . S
O169 Cd170 2.228 1_655 S
Cd170 O169 2.228 1_455 S
Cd170 O174 2.273 . S
Cd170 O178 2.277 . S
O171 C168 1.160 . S
O171 Cd172 2.203 1_655 S
Cd172 O171 2.203 1_455 S
Cd172 O174 2.411 . S
Cd172 O175 2.333 . S
Cd172 O176 2.352 . S
Cd172 O180 2.277 . S
Cd172 O181 2.356 . S
C173 O178 1.209 . S
C173 O180 1.226 . S
O174 Cd170 2.273 . S
O174 Cd172 2.411 . S
O174 C177 1.320 . S
O175 Cd172 2.333 . S
O175 C177 1.214 . S
O176 Cd172 2.352 . S
O176 C179 1.258 . S
C177 O174 1.320 . S
C177 O175 1.214 . S
O178 Cd170 2.277 . S
O178 C173 1.209 . S
C179 O176 1.258 . S
C179 O181 1.282 . S
O180 Cd172 2.277 . S
O180 C173 1.226 . S
O181 Cd172 2.356 . S
O181 C179 1.282 . S
C182 O183 1.306 . S
C182 O185 1.160 . S
O183 C182 1.306 . S
O183 Cd184 2.228 1_655 S
Cd184 O183 2.228 1_455 S
Cd184 O188 2.273 . S
Cd184 O192 2.277 . S
O185 C182 1.160 . S
O185 Cd186 2.203 1_655 S
Cd186 O185 2.203 1_455 S
Cd186 O188 2.411 . S
Cd186 O189 2.333 . S
Cd186 O190 2.352 . S
Cd186 O194 2.277 . S
Cd186 O195 2.356 . S
C187 O192 1.209 . S
C187 O194 1.226 . S
O188 Cd184 2.273 . S
O188 Cd186 2.411 . S
O188 C191 1.320 . S
O189 Cd186 2.333 . S
O189 C191 1.214 . S
O190 Cd186 2.352 . S
O190 C193 1.258 . S
C191 O188 1.320 . S
C191 O189 1.214 . S
O192 Cd184 2.277 . S
O192 C187 1.209 . S
C193 O190 1.258 . S
C193 O195 1.282 . S
O194 Cd186 2.277 . S
O194 C187 1.226 . S
O195 Cd186 2.356 . S
O195 C193 1.282 . S
C196 O197 1.306 . S
C196 O199 1.160 . S
O197 C196 1.306 . S
O197 Cd198 2.228 . S
Cd198 O197 2.228 . S
Cd198 O202 2.273 . S
Cd198 O206 2.277 . S
O199 C196 1.160 . S
O199 Cd200 2.203 . S
Cd200 O199 2.203 . S
Cd200 O202 2.411 . S
Cd200 O203 2.333 . S
Cd200 O204 2.352 . S
Cd200 O208 2.277 . S
Cd200 O209 2.356 . S
C201 O206 1.209 . S
C201 O208 1.226 . S
O202 Cd198 2.273 . S
O202 Cd200 2.411 . S
O202 C205 1.320 . S
O203 Cd200 2.333 . S
O203 C205 1.214 . S
O204 Cd200 2.352 . S
O204 C207 1.258 . S
C205 O202 1.320 . S
C205 O203 1.214 . S
O206 Cd198 2.277 . S
O206 C201 1.209 . S
C207 O204 1.258 . S
C207 O209 1.282 . S
O208 Cd200 2.277 . S
O208 C201 1.226 . S
O209 Cd200 2.356 . S
O209 C207 1.282 . S
C210 O211 1.306 . S
C210 O213 1.160 . S
O211 C210 1.306 . S
O211 Cd212 2.228 . S
Cd212 O211 2.228 . S
Cd212 O216 2.273 . S
Cd212 O220 2.277 . S
O213 C210 1.160 . S
O213 Cd214 2.203 . S
Cd214 O213 2.203 . S
Cd214 O216 2.411 . S
Cd214 O217 2.333 . S
Cd214 O218 2.352 . S
Cd214 O222 2.277 . S
Cd214 O223 2.356 . S
C215 O220 1.209 . S
C215 O222 1.226 . S
O216 Cd212 2.273 . S
O216 Cd214 2.411 . S
O216 C219 1.320 . S
O217 Cd214 2.333 . S
O217 C219 1.214 . S
O218 Cd214 2.352 . S
O218 C221 1.258 . S
C219 O216 1.320 . S
C219 O217 1.214 . S
O220 Cd212 2.277 . S
O220 C215 1.209 . S
C221 O218 1.258 . S
C221 O223 1.282 . S
O222 Cd214 2.277 . S
O222 C215 1.226 . S
O223 Cd214 2.356 . S
O223 C221 1.282 . S
C224 O225 1.306 . S
C224 O227 1.160 . S
O225 C224 1.306 . S
O225 Cd226 2.228 1_545 S
Cd226 O225 2.228 1_565 S
Cd226 O230 2.273 1_565 S
Cd226 O234 2.277 . S
O227 C224 1.160 . S
O227 Cd228 2.203 . S
Cd228 O227 2.203 . S
Cd228 O230 2.411 . S
Cd228 O231 2.333 . S
Cd228 O232 2.352 . S
Cd228 O236 2.277 1_545 S
Cd228 O237 2.356 . S
C229 O234 1.209 . S
C229 O236 1.226 . S
O230 Cd226 2.273 1_545 S
O230 Cd228 2.411 . S
O230 C233 1.320 . S
O231 Cd228 2.333 . S
O231 C233 1.214 . S
O232 Cd228 2.352 . S
O232 C235 1.258 . S
C233 O230 1.320 . S
C233 O231 1.214 . S
O234 Cd226 2.277 . S
O234 C229 1.209 . S
C235 O232 1.258 . S
C235 O237 1.282 . S
O236 Cd228 2.277 1_565 S
O236 C229 1.226 . S
O237 Cd228 2.356 . S
O237 C235 1.282 . S
C238 O239 1.306 . S
C238 O241 1.160 . S
O239 C238 1.306 . S
O239 Cd240 2.228 . S
Cd240 O239 2.228 . S
Cd240 O244 2.273 . S
Cd240 O248 2.277 . S
O241 C238 1.160 . S
O241 Cd242 2.203 . S
Cd242 O241 2.203 . S
Cd242 O244 2.411 . S
Cd242 O245 2.333 . S
Cd242 O246 2.352 . S
Cd242 O250 2.277 . S
Cd242 O251 2.356 . S
C243 O248 1.209 . S
C243 O250 1.226 . S
O244 Cd240 2.273 . S
O244 Cd242 2.411 . S
O244 C247 1.320 . S
O245 Cd242 2.333 . S
O245 C247 1.214 . S
O246 Cd242 2.352 . S
O246 C249 1.258 . S
C247 O244 1.320 . S
C247 O245 1.214 . S
O248 Cd240 2.277 . S
O248 C243 1.209 . S
C249 O246 1.258 . S
C249 O251 1.282 . S
O250 Cd242 2.277 . S
O250 C243 1.226 . S
O251 Cd242 2.356 . S
O251 C249 1.282 . S
C252 O253 1.306 . S
C252 O255 1.160 1_545 S
O253 C252 1.306 . S
O253 Cd254 2.228 . S
Cd254 O253 2.228 . S
Cd254 O258 2.273 . S
Cd254 O262 2.277 . S
O255 C252 1.160 1_565 S
O255 Cd256 2.203 . S
Cd256 O255 2.203 . S
Cd256 O258 2.411 1_565 S
Cd256 O259 2.333 . S
Cd256 O260 2.352 . S
Cd256 O264 2.277 1_565 S
Cd256 O265 2.356 . S
C257 O262 1.209 . S
C257 O264 1.226 . S
O258 Cd254 2.273 . S
O258 Cd256 2.411 1_545 S
O258 C261 1.317 1_545 S
O259 Cd256 2.333 . S
O259 C261 1.222 . S
O260 Cd256 2.352 . S
O260 C263 1.258 . S
C261 O258 1.317 1_565 S
C261 O259 1.222 . S
O262 Cd254 2.277 . S
O262 C257 1.209 . S
C263 O260 1.258 . S
C263 O265 1.282 . S
O264 Cd256 2.277 1_545 S
O264 C257 1.226 . S
O265 Cd256 2.356 . S
O265 C263 1.282 . S
C266 O267 1.287 1_554 S
C266 O269 1.174 . S
O267 C266 1.287 1_556 S
O267 Cd268 2.228 . S
Cd268 O267 2.228 . S
Cd268 O272 2.273 1_556 S
Cd268 O276 2.277 . S
O269 C266 1.174 . S
O269 Cd270 2.203 . S
Cd270 O269 2.203 . S
Cd270 O272 2.411 . S
Cd270 O273 2.333 . S
Cd270 O274 2.352 . S
Cd270 O278 2.277 1_554 S
Cd270 O279 2.356 . S
C271 O276 1.209 . S
C271 O278 1.226 . S
O272 Cd268 2.273 1_554 S
O272 Cd270 2.411 . S
O272 C275 1.320 . S
O273 Cd270 2.333 . S
O273 C275 1.214 . S
O274 Cd270 2.352 . S
O274 C277 1.258 . S
C275 O272 1.320 . S
C275 O273 1.214 . S
O276 Cd268 2.277 . S
O276 C271 1.209 . S
C277 O274 1.258 . S
C277 O279 1.282 . S
O278 Cd270 2.277 1_556 S
O278 C271 1.226 . S
O279 Cd270 2.356 . S
O279 C277 1.282 . S
C280 O281 1.306 . S
C280 O283 1.158 . S
O281 C280 1.306 . S
O281 Cd282 2.228 . S
Cd282 O281 2.228 . S
Cd282 O286 2.273 . S
Cd282 O290 2.277 . S
O283 C280 1.158 . S
O283 Cd284 2.203 1_554 S
Cd284 O283 2.203 1_556 S
Cd284 O286 2.411 1_556 S
Cd284 O287 2.333 . S
Cd284 O288 2.352 . S
Cd284 O292 2.277 1_556 S
Cd284 O293 2.356 . S
C285 O290 1.209 . S
C285 O292 1.226 . S
O286 Cd282 2.273 . S
O286 Cd284 2.411 1_554 S
O286 C289 1.320 . S
O287 Cd284 2.333 . S
O287 C289 1.209 1_556 S
O288 Cd284 2.352 . S
O288 C291 1.258 . S
C289 O286 1.320 . S
C289 O287 1.209 1_554 S
O290 Cd282 2.277 . S
O290 C285 1.209 . S
C291 O288 1.258 . S
C291 O293 1.282 . S
O292 Cd284 2.277 1_554 S
O292 C285 1.226 . S
O293 Cd284 2.356 . S
O293 C291 1.282 . S
C294 O295 1.306 . S
C294 O297 1.160 . S
O295 C294 1.306 . S
O295 Cd296 2.228 . S
Cd296 O295 2.228 . S
Cd296 O300 2.273 . S
Cd296 O304 2.277 . S
O297 C294 1.160 . S
O297 Cd298 2.203 . S
Cd298 O297 2.203 . S
Cd298 O300 2.411 . S
Cd298 O301 2.333 . S
Cd298 O302 2.352 . S
Cd298 O306 2.277 . S
Cd298 O307 2.356 . S
C299 O304 1.209 . S
C299 O306 1.226 . S
O300 Cd296 2.273 . S
O300 Cd298 2.411 . S
O300 C303 1.320 . S
O301 Cd298 2.333 . S
O301 C303 1.214 . S
O302 Cd298 2.352 . S
O302 C305 1.258 . S
C303 O300 1.320 . S
C303 O301 1.214 . S
O304 Cd296 2.277 . S
O304 C299 1.209 . S
C305 O302 1.258 . S
C305 O307 1.282 . S
O306 Cd298 2.277 . S
O306 C299 1.226 . S
O307 Cd298 2.356 . S
O307 C305 1.282 . S
C308 O309 1.306 . S
C308 O311 1.160 . S
O309 C308 1.306 . S
O309 Cd310 2.228 . S
Cd310 O309 2.228 . S
Cd310 O314 2.273 . S
Cd310 O318 2.277 . S
O311 C308 1.160 . S
O311 Cd312 2.203 . S
Cd312 O311 2.203 . S
Cd312 O314 2.411 . S
Cd312 O315 2.333 . S
Cd312 O316 2.352 . S
Cd312 O320 2.277 . S
Cd312 O321 2.356 . S
C313 O318 1.209 . S
C313 O320 1.226 . S
O314 Cd310 2.273 . S
O314 Cd312 2.411 . S
O314 C317 1.320 . S
O315 Cd312 2.333 . S
O315 C317 1.214 . S
O316 Cd312 2.352 . S
O316 C319 1.258 . S
C317 O314 1.320 . S
C317 O315 1.214 . S
O318 Cd310 2.277 . S
O318 C313 1.209 . S
C319 O316 1.258 . S
C319 O321 1.282 . S
O320 Cd312 2.277 . S
O320 C313 1.226 . S
O321 Cd312 2.356 . S
O321 C319 1.282 . S
C322 O323 1.306 . S
C322 O325 1.160 . S
O323 C322 1.306 . S
O323 Cd324 2.228 . S
Cd324 O323 2.228 . S
Cd324 O328 2.273 . S
Cd324 O332 2.277 . S
O325 C322 1.160 . S
O325 Cd326 2.203 . S
Cd326 O325 2.203 . S
Cd326 O328 2.411 . S
Cd326 O329 2.333 . S
Cd326 O330 2.352 . S
Cd326 O334 2.277 . S
Cd326 O335 2.356 . S
C327 O332 1.209 . S
C327 O334 1.226 . S
O328 Cd324 2.273 . S
O328 Cd326 2.411 . S
O328 C331 1.320 . S
O329 Cd326 2.333 . S
O329 C331 1.214 . S
O330 Cd326 2.352 . S
O330 C333 1.258 . S
C331 O328 1.320 . S
C331 O329 1.214 . S
O332 Cd324 2.277 . S
O332 C327 1.209 . S
C333 O330 1.258 . S
C333 O335 1.282 . S
O334 Cd326 2.277 . S
O334 C327 1.226 . S
O335 Cd326 2.356 . S
O335 C333 1.282 . S
O336 Zn337 1.953 . S
O336 C352 1.225 1_455 S
Zn337 O336 1.953 . S
Zn337 O338 1.964 . S
Zn337 O344 1.919 1_554 S
Zn337 O349 1.924 1_454 S
O338 Zn337 1.964 . S
O338 Zn339 1.957 1_545 S
O338 Zn340 1.924 1_455 S
O338 Zn341 1.924 1_444 S
Zn339 O338 1.957 1_565 S
Zn339 O342 1.933 . S
Zn339 O345 1.941 1_565 S
Zn339 O346 1.965 . S
Zn340 O338 1.924 1_655 S
Zn340 O347 1.938 . S
Zn340 O348 1.906 1_545 S
Zn340 O358 1.953 . S
Zn341 O338 1.924 1_666 S
Zn341 O343 1.932 . S
Zn341 O350 1.977 1_556 S
Zn341 O351 1.910 1_565 S
O342 Zn339 1.933 . S
O342 C353 1.226 1_554 S
O343 Zn341 1.932 . S
O343 C353 1.307 1_655 S
O344 Zn337 1.919 1_556 S
O344 C355 1.253 1_556 S
O345 Zn339 1.941 1_545 S
O345 C355 1.283 . S
O346 Zn339 1.965 . S
O346 C354 1.303 1_565 S
O347 Zn340 1.938 . S
O347 C354 1.247 1_655 S
O348 Zn340 1.906 1_565 S
O348 C356 1.304 . S
O349 Zn337 1.924 1_656 S
O349 C357 1.311 . S
O350 Zn341 1.977 1_554 S
O350 C356 1.272 . S
O351 Zn341 1.910 1_545 S
O351 C357 1.231 . S
C352 O336 1.225 1_655 S
C352 O358 1.298 . S
C353 O342 1.226 1_556 S
C353 O343 1.307 1_455 S
C354 O346 1.303 1_545 S
C354 O347 1.247 1_455 S
C355 O344 1.253 1_554 S
C355 O345 1.283 . S
C356 O348 1.304 . S
C356 O350 1.272 . S
C357 O349 1.311 . S
C357 O351 1.231 . S
O358 Zn340 1.953 . S
O358 C352 1.298 . S
O359 Zn360 1.953 . S
O359 C375 1.225 . S
Zn360 O359 1.953 . S
Zn360 O361 1.949 . S
Zn360 O367 1.919 . S
Zn360 O372 1.924 . S
O361 Zn360 1.949 . S
O361 Zn362 1.923 . S
O361 Zn363 1.950 . S
O361 Zn364 1.945 . S
Zn362 O361 1.923 . S
Zn362 O365 1.933 . S
Zn362 O368 1.941 . S
Zn362 O369 1.965 . S
Zn363 O361 1.950 . S
Zn363 O370 1.938 . S
Zn363 O371 1.906 . S
Zn363 O381 1.953 . S
Zn364 O361 1.945 . S
Zn364 O366 1.932 . S
Zn364 O373 1.977 . S
Zn364 O374 1.910 . S
O365 Zn362 1.933 . S
O365 C376 1.226 . S
O366 Zn364 1.932 . S
O366 C376 1.307 . S
O367 Zn360 1.919 . S
O367 C378 1.253 . S
O368 Zn362 1.941 . S
O368 C378 1.283 . S
O369 Zn362 1.965 . S
O369 C377 1.303 . S
O370 Zn363 1.938 . S
O370 C377 1.247 . S
O371 Zn363 1.906 . S
O371 C379 1.304 . S
O372 Zn360 1.924 . S
O372 C380 1.311 . S
O373 Zn364 1.977 . S
O373 C379 1.272 . S
O374 Zn364 1.910 . S
O374 C380 1.231 . S
C375 O359 1.225 . S
C375 O381 1.298 . S
C376 O365 1.226 . S
C376 O366 1.307 . S
C377 O369 1.303 . S
C377 O370 1.247 . S
C378 O367 1.253 . S
C378 O368 1.283 . S
C379 O371 1.304 . S
C379 O373 1.272 . S
C380 O372 1.311 . S
C380 O374 1.231 . S
O381 Zn363 1.953 . S
O381 C375 1.298 . S
O382 Zn383 1.953 . S
O382 C398 1.225 . S
Zn383 O382 1.953 . S
Zn383 O384 1.949 1_565 S
Zn383 O390 1.919 . S
Zn383 O395 1.924 . S
O384 Zn383 1.949 1_545 S
O384 Zn385 1.923 . S
O384 Zn386 1.950 . S
O384 Zn387 1.945 . S
Zn385 O384 1.923 . S
Zn385 O388 1.933 . S
Zn385 O391 1.941 . S
Zn385 O392 1.965 . S
Zn386 O384 1.950 . S
Zn386 O393 1.938 . S
Zn386 O394 1.906 . S
Zn386 O404 1.953 1_545 S
Zn387 O384 1.945 . S
Zn387 O389 1.932 . S
Zn387 O396 1.977 . S
Zn387 O397 1.910 . S
O388 Zn385 1.933 . S
O388 C399 1.226 . S
O389 Zn387 1.932 . S
O389 C399 1.307 . S
O390 Zn383 1.919 . S
O390 C401 1.253 . S
O391 Zn385 1.941 . S
O391 C401 1.283 1_545 S
O392 Zn385 1.965 . S
O392 C400 1.303 . S
O393 Zn386 1.938 . S
O393 C400 1.247 . S
O394 Zn386 1.906 . S
O394 C402 1.304 . S
O395 Zn383 1.924 . S
O395 C403 1.311 . S
O396 Zn387 1.977 . S
O396 C402 1.272 . S
O397 Zn387 1.910 . S
O397 C403 1.231 1_545 S
C398 O382 1.225 . S
C398 O404 1.298 . S
C399 O388 1.226 . S
C399 O389 1.307 . S
C400 O392 1.303 . S
C400 O393 1.247 . S
C401 O390 1.253 . S
C401 O391 1.283 1_565 S
C402 O394 1.304 . S
C402 O396 1.272 . S
C403 O395 1.311 . S
C403 O397 1.231 1_565 S
O404 Zn386 1.953 1_565 S
O404 C398 1.298 . S
O405 Zn406 1.953 . S
O405 C421 1.225 . S
Zn406 O405 1.953 . S
Zn406 O407 1.949 . S
Zn406 O413 1.919 . S
Zn406 O418 1.924 . S
O407 Zn406 1.949 . S
O407 Zn408 1.923 . S
O407 Zn409 1.950 . S
O407 Zn410 1.945 . S
Zn408 O407 1.923 . S
Zn408 O411 1.933 . S
Zn408 O414 1.941 . S
Zn408 O415 1.965 . S
Zn409 O407 1.950 . S
Zn409 O416 1.938 . S
Zn409 O417 1.906 . S
Zn409 O427 1.953 . S
Zn410 O407 1.945 . S
Zn410 O412 1.932 . S
Zn410 O419 1.977 . S
Zn410 O420 1.910 . S
O411 Zn408 1.933 . S
O411 C422 1.226 . S
O412 Zn410 1.932 . S
O412 C422 1.307 . S
O413 Zn406 1.919 . S
O413 C424 1.253 . S
O414 Zn408 1.941 . S
O414 C424 1.283 . S
O415 Zn408 1.965 . S
O415 C423 1.303 . S
O416 Zn409 1.938 . S
O416 C423 1.247 . S
O417 Zn409 1.906 . S
O417 C425 1.304 . S
O418 Zn406 1.924 . S
O418 C426 1.311 . S
O419 Zn410 1.977 . S
O419 C425 1.272 . S
O420 Zn410 1.910 . S
O420 C426 1.231 . S
C421 O405 1.225 . S
C421 O427 1.298 . S
C422 O411 1.226 . S
C422 O412 1.307 . S
C423 O415 1.303 . S
C423 O416 1.247 . S
C424 O413 1.253 . S
C424 O414 1.283 . S
C425 O417 1.304 . S
C425 O419 1.272 . S
C426 O418 1.311 . S
C426 O420 1.231 . S
O427 Zn409 1.953 . S
O427 C421 1.298 . S
O428 Zn429 1.963 1_455 S
O428 C444 1.225 . S
Zn429 O428 1.963 1_655 S
Zn429 O430 1.961 1_655 S
Zn429 O436 1.884 1_545 S
Zn429 O441 1.942 . S
O430 Zn429 1.961 1_455 S
O430 Zn431 1.923 1_545 S
O430 Zn432 1.950 . S
O430 Zn433 1.945 1_455 S
Zn431 O430 1.923 1_565 S
Zn431 O434 1.933 . S
Zn431 O437 1.941 . S
Zn431 O438 1.965 . S
Zn432 O430 1.950 . S
Zn432 O439 1.938 . S
Zn432 O440 1.906 . S
Zn432 O450 1.953 . S
Zn433 O430 1.945 1_655 S
Zn433 O435 1.932 . S
Zn433 O442 1.977 . S
Zn433 O443 1.910 . S
O434 Zn431 1.933 . S
O434 C445 1.226 1_455 S
O435 Zn433 1.932 . S
O435 C445 1.307 1_545 S
O436 Zn429 1.884 1_565 S
O436 C447 1.253 . S
O437 Zn431 1.941 . S
O437 C447 1.283 1_455 S
O438 Zn431 1.965 . S
O438 C446 1.303 . S
O439 Zn432 1.938 . S
O439 C446 1.247 1_545 S
O440 Zn432 1.906 . S
O440 C448 1.304 . S
O441 Zn429 1.942 . S
O441 C449 1.311 . S
O442 Zn433 1.977 . S
O442 C448 1.272 1_655 S
O443 Zn433 1.910 . S
O443 C449 1.231 . S
C444 O428 1.225 . S
C444 O450 1.298 . S
C445 O434 1.226 1_655 S
C445 O435 1.307 1_565 S
C446 O438 1.303 . S
C446 O439 1.247 1_565 S
C447 O436 1.253 . S
C447 O437 1.283 1_655 S
C448 O440 1.304 . S
C448 O442 1.272 1_455 S
C449 O441 1.311 . S
C449 O443 1.231 . S
O450 Zn432 1.953 . S
O450 C444 1.298 . S
O451 Zn452 1.953 . S
O451 C467 1.225 . S
Zn452 O451 1.953 . S
Zn452 O453 1.949 . S
Zn452 O459 1.919 . S
Zn452 O464 1.924 . S
O453 Zn452 1.949 . S
O453 Zn454 1.923 . S
O453 Zn455 1.950 . S
O453 Zn456 1.945 . S
Zn454 O453 1.923 . S
Zn454 O457 1.933 . S
Zn454 O460 1.941 . S
Zn454 O461 1.965 . S
Zn455 O453 1.950 . S
Zn455 O462 1.938 . S
Zn455 O463 1.906 . S
Zn455 O473 1.953 . S
Zn456 O453 1.945 . S
Zn456 O458 1.932 . S
Zn456 O465 1.977 . S
Zn456 O466 1.910 . S
O457 Zn454 1.933 . S
O457 C468 1.226 . S
O458 Zn456 1.932 . S
O458 C468 1.307 . S
O459 Zn452 1.919 . S
O459 C470 1.253 . S
O460 Zn454 1.941 . S
O460 C470 1.283 . S
O461 Zn454 1.965 . S
O461 C469 1.303 . S
O462 Zn455 1.938 . S
O462 C469 1.247 . S
O463 Zn455 1.906 . S
O463 C471 1.304 . S
O464 Zn452 1.924 . S
O464 C472 1.311 . S
O465 Zn456 1.977 . S
O465 C471 1.272 . S
O466 Zn456 1.910 . S
O466 C472 1.231 . S
C467 O451 1.225 . S
C467 O473 1.298 . S
C468 O457 1.226 . S
C468 O458 1.307 . S
C469 O461 1.303 . S
C469 O462 1.247 . S
C470 O459 1.253 . S
C470 O460 1.283 . S
C471 O463 1.304 . S
C471 O465 1.272 . S
C472 O464 1.311 . S
C472 O466 1.231 . S
O473 Zn455 1.953 . S
O473 C467 1.298 . S
O474 Zn475 1.953 . S
O474 C490 1.225 . S
Zn475 O474 1.953 . S
Zn475 O476 1.949 . S
Zn475 O482 1.919 1_545 S
Zn475 O487 1.924 . S
O476 Zn475 1.949 . S
O476 Zn477 1.933 1_545 S
O476 Zn478 1.950 . S
O476 Zn479 1.945 1_554 S
Zn477 O476 1.933 1_565 S
Zn477 O480 1.913 1_554 S
Zn477 O483 1.939 1_554 S
Zn477 O484 1.979 . S
Zn478 O476 1.950 . S
Zn478 O485 1.938 1_545 S
Zn478 O486 1.906 . S
Zn478 O496 1.953 . S
Zn479 O476 1.945 1_556 S
Zn479 O481 1.932 . S
Zn479 O488 1.977 1_556 S
Zn479 O489 1.910 . S
O480 Zn477 1.913 1_556 S
O480 C491 1.226 . S
O481 Zn479 1.932 . S
O481 C491 1.307 1_545 S
O482 Zn475 1.919 1_565 S
O482 C493 1.253 1_554 S
O483 Zn477 1.939 1_556 S
O483 C493 1.283 . S
O484 Zn477 1.979 . S
O484 C492 1.303 . S
O485 Zn478 1.938 1_565 S
O485 C492 1.247 . S
O486 Zn478 1.906 . S
O486 C494 1.304 . S
O487 Zn475 1.924 . S
O487 C495 1.311 . S
O488 Zn479 1.977 1_554 S
O488 C494 1.272 . S
O489 Zn479 1.910 . S
O489 C495 1.231 1_556 S
C490 O474 1.225 . S
C490 O496 1.298 . S
C491 O480 1.226 . S
C491 O481 1.307 1_565 S
C492 O484 1.303 . S
C492 O485 1.247 . S
C493 O482 1.253 1_556 S
C493 O483 1.283 . S
C494 O486 1.304 . S
C494 O488 1.272 . S
C495 O487 1.311 . S
C495 O489 1.231 1_554 S
O496 Zn478 1.953 . S
O496 C490 1.298 . S
O497 Zn498 1.953 . S
O497 C513 1.225 . S
Zn498 O497 1.953 . S
Zn498 O499 1.949 . S
Zn498 O505 1.919 . S
Zn498 O510 1.924 . S
O499 Zn498 1.949 . S
O499 Zn500 1.923 . S
O499 Zn501 1.950 . S
O499 Zn502 1.945 . S
Zn500 O499 1.923 . S
Zn500 O503 1.933 . S
Zn500 O506 1.941 . S
Zn500 O507 1.965 . S
Zn501 O499 1.950 . S
Zn501 O508 1.938 . S
Zn501 O509 1.906 . S
Zn501 O519 1.953 . S
Zn502 O499 1.945 . S
Zn502 O504 1.932 . S
Zn502 O511 1.977 . S
Zn502 O512 1.910 . S
O503 Zn500 1.933 . S
O503 C514 1.226 . S
O504 Zn502 1.932 . S
O504 C514 1.307 . S
O505 Zn498 1.919 . S
O505 C516 1.253 . S
O506 Zn500 1.941 . S
O506 C516 1.283 . S
O507 Zn500 1.965 . S
O507 C515 1.303 . S
O508 Zn501 1.938 . S
O508 C515 1.247 . S
O509 Zn501 1.906 . S
O509 C517 1.304 . S
O510 Zn498 1.924 . S
O510 C518 1.311 . S
O511 Zn502 1.977 . S
O511 C517 1.272 . S
O512 Zn502 1.910 . S
O512 C518 1.231 . S
C513 O497 1.225 . S
C513 O519 1.298 . S
C514 O503 1.226 . S
C514 O504 1.307 . S
C515 O507 1.303 . S
C515 O508 1.247 . S
C516 O505 1.253 . S
C516 O506 1.283 . S
C517 O509 1.304 . S
C517 O511 1.272 . S
C518 O510 1.311 . S
C518 O512 1.231 . S
O519 Zn501 1.953 . S
O519 C513 1.298 . S
O520 Zn521 1.953 . S
O520 C536 1.225 . S
Zn521 O520 1.953 . S
Zn521 O522 1.949 1_556 S
Zn521 O528 1.919 . S
Zn521 O533 1.924 . S
O522 Zn521 1.949 1_554 S
O522 Zn523 1.923 . S
O522 Zn524 1.950 . S
O522 Zn525 1.945 . S
Zn523 O522 1.923 . S
Zn523 O526 1.933 . S
Zn523 O529 1.941 . S
Zn523 O530 1.965 . S
Zn524 O522 1.950 . S
Zn524 O531 1.938 . S
Zn524 O532 1.906 . S
Zn524 O542 1.953 1_554 S
Zn525 O522 1.945 . S
Zn525 O527 1.932 . S
Zn525 O534 1.977 . S
Zn525 O535 1.910 . S
O526 Zn523 1.933 . S
O526 C537 1.226 . S
O527 Zn525 1.932 . S
O527 C537 1.307 . S
O528 Zn521 1.919 . S
O528 C539 1.253 1_556 S
O529 Zn523 1.941 . S
O529 C539 1.283 . S
O530 Zn523 1.965 . S
O530 C538 1.303 . S
O531 Zn524 1.938 . S
O531 C538 1.247 . S
O532 Zn524 1.906 . S
O532 C540 1.304 . S
O533 Zn521 1.924 . S
O533 C541 1.311 . S
O534 Zn525 1.977 . S
O534 C540 1.272 . S
O535 Zn525 1.910 . S
O535 C541 1.231 1_554 S
C536 O520 1.225 . S
C536 O542 1.298 . S
C537 O526 1.226 . S
C537 O527 1.307 . S
C538 O530 1.303 . S
C538 O531 1.247 . S
C539 O528 1.253 1_554 S
C539 O529 1.283 . S
C540 O532 1.304 . S
C540 O534 1.272 . S
C541 O533 1.311 . S
C541 O535 1.231 1_556 S
O542 Zn524 1.953 1_556 S
O542 C536 1.298 . S
O543 Zn544 1.953 . S
O543 C559 1.225 . S
Zn544 O543 1.953 . S
Zn544 O545 1.949 . S
Zn544 O551 1.919 . S
Zn544 O556 1.924 . S
O545 Zn544 1.949 . S
O545 Zn546 1.923 . S
O545 Zn547 1.950 . S
O545 Zn548 1.945 . S
Zn546 O545 1.923 . S
Zn546 O549 1.933 . S
Zn546 O552 1.941 . S
Zn546 O553 1.965 . S
Zn547 O545 1.950 . S
Zn547 O554 1.938 . S
Zn547 O555 1.906 . S
Zn547 O565 1.953 . S
Zn548 O545 1.945 . S
Zn548 O550 1.932 . S
Zn548 O557 1.977 . S
Zn548 O558 1.910 . S
O549 Zn546 1.933 . S
O549 C560 1.226 . S
O550 Zn548 1.932 . S
O550 C560 1.307 . S
O551 Zn544 1.919 . S
O551 C562 1.253 . S
O552 Zn546 1.941 . S
O552 C562 1.283 . S
O553 Zn546 1.965 . S
O553 C561 1.303 . S
O554 Zn547 1.938 . S
O554 C561 1.247 . S
O555 Zn547 1.906 . S
O555 C563 1.304 . S
O556 Zn544 1.924 . S
O556 C564 1.311 . S
O557 Zn548 1.977 . S
O557 C563 1.272 . S
O558 Zn548 1.910 . S
O558 C564 1.231 . S
C559 O543 1.225 . S
C559 O565 1.298 . S
C560 O549 1.226 . S
C560 O550 1.307 . S
C561 O553 1.303 . S
C561 O554 1.247 . S
C562 O551 1.253 . S
C562 O552 1.283 . S
C563 O555 1.304 . S
C563 O557 1.272 . S
C564 O556 1.311 . S
C564 O558 1.231 . S
O565 Zn547 1.953 . S
O565 C559 1.298 . S
O566 Zn567 1.953 . S
O566 C582 1.225 . S
Zn567 O566 1.953 . S
Zn567 O568 1.965 . S
Zn567 O574 1.919 . S
Zn567 O579 1.924 . S
O568 Zn567 1.965 . S
O568 Zn569 1.924 . S
O568 Zn570 1.941 1_455 S
O568 Zn571 1.937 1_455 S
Zn569 O568 1.924 . S
Zn569 O572 1.933 1_455 S
Zn569 O575 1.941 . S
Zn569 O576 1.965 1_455 S
Zn570 O568 1.941 1_655 S
Zn570 O577 1.938 . S
Zn570 O578 1.906 . S
Zn570 O588 1.941 1_655 S
Zn571 O568 1.937 1_655 S
Zn571 O573 1.932 . S
Zn571 O580 1.977 . S
Zn571 O581 1.910 1_655 S
O572 Zn569 1.933 1_655 S
O572 C583 1.226 . S
O573 Zn571 1.932 . S
O573 C583 1.307 . S
O574 Zn567 1.919 . S
O574 C585 1.253 . S
O575 Zn569 1.941 . S
O575 C585 1.283 . S
O576 Zn569 1.965 1_655 S
O576 C584 1.303 . S
O577 Zn570 1.938 . S
O577 C584 1.247 . S
O578 Zn570 1.906 . S
O578 C586 1.304 . S
O579 Zn567 1.924 . S
O579 C587 1.311 . S
O580 Zn571 1.977 . S
O580 C586 1.272 . S
O581 Zn571 1.910 1_455 S
O581 C587 1.231 . S
C582 O566 1.225 . S
C582 O588 1.321 . S
C583 O572 1.226 . S
C583 O573 1.307 . S
C584 O576 1.303 . S
C584 O577 1.247 . S
C585 O574 1.253 . S
C585 O575 1.283 . S
C586 O578 1.304 . S
C586 O580 1.272 . S
C587 O579 1.311 . S
C587 O581 1.231 . S
O588 Zn570 1.941 1_455 S
O588 C582 1.321 . S
O589 Zn590 1.953 . S
O589 C605 1.225 . S
Zn590 O589 1.953 . S
Zn590 O591 1.949 . S
Zn590 O597 1.919 . S
Zn590 O602 1.924 . S
O591 Zn590 1.949 . S
O591 Zn592 1.923 . S
O591 Zn593 1.950 . S
O591 Zn594 1.945 . S
Zn592 O591 1.923 . S
Zn592 O595 1.933 . S
Zn592 O598 1.941 . S
Zn592 O599 1.965 . S
Zn593 O591 1.950 . S
Zn593 O600 1.938 . S
Zn593 O601 1.906 . S
Zn593 O611 1.953 . S
Zn594 O591 1.945 . S
Zn594 O596 1.932 . S
Zn594 O603 1.977 . S
Zn594 O604 1.910 . S
O595 Zn592 1.933 . S
O595 C606 1.226 . S
O596 Zn594 1.932 . S
O596 C606 1.307 . S
O597 Zn590 1.919 . S
O597 C608 1.253 . S
O598 Zn592 1.941 . S
O598 C608 1.283 . S
O599 Zn592 1.965 . S
O599 C607 1.303 . S
O600 Zn593 1.938 . S
O600 C607 1.247 . S
O601 Zn593 1.906 . S
O601 C609 1.304 . S
O602 Zn590 1.924 . S
O602 C610 1.311 . S
O603 Zn594 1.977 . S
O603 C609 1.272 . S
O604 Zn594 1.910 . S
O604 C610 1.231 . S
C605 O589 1.225 . S
C605 O611 1.298 . S
C606 O595 1.226 . S
C606 O596 1.307 . S
C607 O599 1.303 . S
C607 O600 1.247 . S
C608 O597 1.253 . S
C608 O598 1.283 . S
C609 O601 1.304 . S
C609 O603 1.272 . S
C610 O602 1.311 . S
C610 O604 1.231 . S
O611 Zn593 1.953 . S
O611 C605 1.298 . S
O612 Zn613 1.953 . S
O612 C628 1.225 . S
Zn613 O612 1.953 . S
Zn613 O614 1.949 . S
Zn613 O620 1.919 . S
Zn613 O625 1.924 . S
O614 Zn613 1.949 . S
O614 Zn615 1.923 . S
O614 Zn616 1.950 . S
O614 Zn617 1.945 . S
Zn615 O614 1.923 . S
Zn615 O618 1.933 . S
Zn615 O621 1.941 . S
Zn615 O622 1.965 . S
Zn616 O614 1.950 . S
Zn616 O623 1.938 . S
Zn616 O624 1.906 . S
Zn616 O634 1.953 . S
Zn617 O614 1.945 . S
Zn617 O619 1.932 . S
Zn617 O626 1.977 . S
Zn617 O627 1.910 . S
O618 Zn615 1.933 . S
O618 C629 1.226 . S
O619 Zn617 1.932 . S
O619 C629 1.307 . S
O620 Zn613 1.919 . S
O620 C631 1.253 . S
O621 Zn615 1.941 . S
O621 C631 1.283 . S
O622 Zn615 1.965 . S
O622 C630 1.303 . S
O623 Zn616 1.938 . S
O623 C630 1.247 . S
O624 Zn616 1.906 . S
O624 C632 1.304 . S
O625 Zn613 1.924 . S
O625 C633 1.311 . S
O626 Zn617 1.977 . S
O626 C632 1.272 . S
O627 Zn617 1.910 . S
O627 C633 1.231 . S
C628 O612 1.225 . S
C628 O634 1.298 . S
C629 O618 1.226 . S
C629 O619 1.307 . S
C630 O622 1.303 . S
C630 O623 1.247 . S
C631 O620 1.253 . S
C631 O621 1.283 . S
C632 O624 1.304 . S
C632 O626 1.272 . S
C633 O625 1.311 . S
C633 O627 1.231 . S
O634 Zn616 1.953 . S
O634 C628 1.298 . S
O635 Zn636 1.953 . S
O635 C651 1.225 . S
Zn636 O635 1.953 . S
Zn636 O637 1.949 . S
Zn636 O643 1.919 . S
Zn636 O648 1.924 . S
O637 Zn636 1.949 . S
O637 Zn638 1.923 . S
O637 Zn639 1.950 . S
O637 Zn640 1.945 . S
Zn638 O637 1.923 . S
Zn638 O641 1.933 . S
Zn638 O644 1.941 . S
Zn638 O645 1.965 . S
Zn639 O637 1.950 . S
Zn639 O646 1.938 . S
Zn639 O647 1.906 . S
Zn639 O657 1.953 . S
Zn640 O637 1.945 . S
Zn640 O642 1.932 . S
Zn640 O649 1.977 . S
Zn640 O650 1.910 . S
O641 Zn638 1.933 . S
O641 C652 1.226 . S
O642 Zn640 1.932 . S
O642 C652 1.307 . S
O643 Zn636 1.919 . S
O643 C654 1.253 . S
O644 Zn638 1.941 . S
O644 C654 1.283 . S
O645 Zn638 1.965 . S
O645 C653 1.303 . S
O646 Zn639 1.938 . S
O646 C653 1.247 . S
O647 Zn639 1.906 . S
O647 C655 1.304 . S
O648 Zn636 1.924 . S
O648 C656 1.311 . S
O649 Zn640 1.977 . S
O649 C655 1.272 . S
O650 Zn640 1.910 . S
O650 C656 1.231 . S
C651 O635 1.225 . S
C651 O657 1.298 . S
C652 O641 1.226 . S
C652 O642 1.307 . S
C653 O645 1.303 . S
C653 O646 1.247 . S
C654 O643 1.253 . S
C654 O644 1.283 . S
C655 O647 1.304 . S
C655 O649 1.272 . S
C656 O648 1.311 . S
C656 O650 1.231 . S
O657 Zn639 1.953 . S
O657 C651 1.298 . S
O658 Zn659 1.953 . S
O658 C674 1.225 . S
Zn659 O658 1.953 . S
Zn659 O660 1.949 . S
Zn659 O666 1.919 . S
Zn659 O671 1.924 . S
O660 Zn659 1.949 . S
O660 Zn661 1.923 . S
O660 Zn662 1.950 . S
O660 Zn663 1.945 . S
Zn661 O660 1.923 . S
Zn661 O664 1.933 . S
Zn661 O667 1.941 . S
Zn661 O668 1.965 . S
Zn662 O660 1.950 . S
Zn662 O669 1.938 . S
Zn662 O670 1.906 . S
Zn662 O680 1.953 . S
Zn663 O660 1.945 . S
Zn663 O665 1.932 . S
Zn663 O672 1.977 . S
Zn663 O673 1.910 . S
O664 Zn661 1.933 . S
O664 C675 1.226 . S
O665 Zn663 1.932 . S
O665 C675 1.307 . S
O666 Zn659 1.919 . S
O666 C677 1.253 . S
O667 Zn661 1.941 . S
O667 C677 1.283 . S
O668 Zn661 1.965 . S
O668 C676 1.303 . S
O669 Zn662 1.938 . S
O669 C676 1.247 . S
O670 Zn662 1.906 . S
O670 C678 1.304 . S
O671 Zn659 1.924 . S
O671 C679 1.311 . S
O672 Zn663 1.977 . S
O672 C678 1.272 . S
O673 Zn663 1.910 . S
O673 C679 1.231 . S
C674 O658 1.225 . S
C674 O680 1.298 . S
C675 O664 1.226 . S
C675 O665 1.307 . S
C676 O668 1.303 . S
C676 O669 1.247 . S
C677 O666 1.253 . S
C677 O667 1.283 . S
C678 O670 1.304 . S
C678 O672 1.272 . S
C679 O671 1.311 . S
C679 O673 1.231 . S
O680 Zn662 1.953 . S
O680 C674 1.298 . S
O681 Zn682 1.953 1_455 S
O681 C697 1.225 . S
Zn682 O681 1.953 1_655 S
Zn682 O683 1.949 1_655 S
Zn682 O689 1.914 1_554 S
Zn682 O694 1.924 1_654 S
O683 Zn682 1.949 1_455 S
O683 Zn684 1.923 1_455 S
O683 Zn685 1.950 . S
O683 Zn686 1.945 1_554 S
Zn684 O683 1.923 1_655 S
Zn684 O687 1.933 . S
Zn684 O690 1.941 . S
Zn684 O691 1.965 . S
Zn685 O683 1.950 . S
Zn685 O692 1.938 . S
Zn685 O693 1.906 . S
Zn685 O703 1.953 . S
Zn686 O683 1.945 1_556 S
Zn686 O688 1.932 . S
Zn686 O695 1.977 1_556 S
Zn686 O696 1.910 . S
O687 Zn684 1.933 . S
O687 C698 1.226 1_554 S
O688 Zn686 1.932 . S
O688 C698 1.307 1_455 S
O689 Zn682 1.914 1_556 S
O689 C700 1.245 1_556 S
O690 Zn684 1.941 . S
O690 C700 1.283 . S
O691 Zn684 1.965 . S
O691 C699 1.303 . S
O692 Zn685 1.938 . S
O692 C699 1.247 1_455 S
O693 Zn685 1.906 . S
O693 C701 1.304 . S
O694 Zn682 1.924 1_456 S
O694 C702 1.311 . S
O695 Zn686 1.977 1_554 S
O695 C701 1.272 . S
O696 Zn686 1.910 . S
O696 C702 1.231 . S
C697 O681 1.225 . S
C697 O703 1.298 . S
C698 O687 1.226 1_556 S
C698 O688 1.307 1_655 S
C699 O691 1.303 . S
C699 O692 1.247 1_655 S
C700 O689 1.245 1_554 S
C700 O690 1.283 . S
C701 O693 1.304 . S
C701 O695 1.272 . S
C702 O694 1.311 . S
C702 O696 1.231 . S
O703 Zn685 1.953 . S
O703 C697 1.298 . S
H704 C716 0.930 . S
H705 C718 0.930 . S
H706 C719 0.930 . S
H707 C723 0.959 . S
H708 C723 0.959 . S
H709 C723 0.961 . S
H710 C724 0.960 . S
H711 C724 0.961 . S
H712 C724 0.959 . S
H713 C727 0.945 . S
H714 C728 0.931 . S
H715 C730 0.930 . S
C716 H704 0.930 . S
C716 C717 1.399 1_655 S
C716 C721 1.399 . S
C717 C716 1.399 1_455 S
C717 C718 1.376 . S
C718 H705 0.930 . S
C718 C717 1.376 . S
C718 C719 1.388 . S
C719 H706 0.930 . S
C719 C718 1.388 . S
C719 C720 1.390 . S
C720 C719 1.390 . S
C720 C721 1.394 1_455 S
C720 C726 1.465 1_455 S
C721 C716 1.399 . S
C721 C720 1.394 1_655 S
C721 C722 1.516 . S
C722 C721 1.516 . S
C722 C723 1.502 . S
C722 C724 1.561 1_655 S
C722 C725 1.526 . S
C723 H707 0.959 . S
C723 H708 0.959 . S
C723 H709 0.961 . S
C723 C722 1.502 . S
C724 H710 0.960 . S
C724 H711 0.961 . S
C724 H712 0.959 . S
C724 C722 1.561 1_455 S
C725 C722 1.526 . S
C725 C726 1.396 . S
C725 C730 1.390 . S
C726 C720 1.465 1_655 S
C726 C725 1.396 . S
C726 C727 1.394 1_655 S
C727 H713 0.945 . S
C727 C726 1.394 1_455 S
C727 C728 1.376 1_455 S
C728 H714 0.931 . S
C728 C727 1.376 1_655 S
C728 C729 1.389 . S
C729 C728 1.389 . S
C729 C730 1.387 . S
C730 H715 0.930 . S
C730 C725 1.390 . S
C730 C729 1.387 . S
H731 C743 0.930 . S
H732 C745 0.930 . S
H733 C746 0.930 . S
H734 C750 0.959 . S
H735 C750 0.959 . S
H736 C750 0.961 . S
H737 C751 0.960 . S
H738 C751 0.961 . S
H739 C751 0.959 . S
H740 C754 0.929 . S
H741 C755 0.931 . S
H742 C757 0.930 . S
C743 H731 0.930 . S
C743 C744 1.399 . S
C743 C748 1.399 . S
C744 C743 1.399 . S
C744 C745 1.376 . S
C745 H732 0.930 . S
C745 C744 1.376 . S
C745 C746 1.388 . S
C746 H733 0.930 . S
C746 C745 1.388 . S
C746 C747 1.390 . S
C747 C746 1.390 . S
C747 C748 1.394 . S
C747 C753 1.465 . S
C748 C743 1.399 . S
C748 C747 1.394 . S
C748 C749 1.516 . S
C749 C748 1.516 . S
C749 C750 1.502 . S
C749 C751 1.561 . S
C749 C752 1.526 . S
C750 H734 0.959 . S
C750 H735 0.959 . S
C750 H736 0.961 . S
C750 C749 1.502 . S
C751 H737 0.960 . S
C751 H738 0.961 . S
C751 H739 0.959 . S
C751 C749 1.561 . S
C752 C749 1.526 . S
C752 C753 1.396 . S
C752 C757 1.390 . S
C753 C747 1.465 . S
C753 C752 1.396 . S
C753 C754 1.399 . S
C754 H740 0.929 . S
C754 C753 1.399 . S
C754 C755 1.385 . S
C755 H741 0.931 . S
C755 C754 1.385 . S
C755 C756 1.389 . S
C756 C755 1.389 . S
C756 C757 1.387 . S
C757 H742 0.930 . S
C757 C752 1.390 . S
C757 C756 1.387 . S
H758 C770 0.930 . S
H759 C772 0.930 . S
H760 C773 0.930 . S
H761 C777 0.959 . S
H762 C777 0.959 . S
H763 C777 0.961 . S
H764 C778 0.960 . S
H765 C778 0.961 . S
H766 C778 0.959 . S
H767 C781 0.929 . S
H768 C782 0.931 . S
H769 C784 0.930 . S
C770 H758 0.930 . S
C770 C771 1.399 . S
C770 C775 1.399 . S
C771 C770 1.399 . S
C771 C772 1.376 . S
C772 H759 0.930 . S
C772 C771 1.376 . S
C772 C773 1.388 . S
C773 H760 0.930 . S
C773 C772 1.388 . S
C773 C774 1.390 . S
C774 C773 1.390 . S
C774 C775 1.394 . S
C774 C780 1.465 . S
C775 C770 1.399 . S
C775 C774 1.394 . S
C775 C776 1.516 . S
C776 C775 1.516 . S
C776 C777 1.502 . S
C776 C778 1.561 . S
C776 C779 1.526 . S
C777 H761 0.959 . S
C777 H762 0.959 . S
C777 H763 0.961 . S
C777 C776 1.502 . S
C778 H764 0.960 . S
C778 H765 0.961 . S
C778 H766 0.959 . S
C778 C776 1.561 . S
C779 C776 1.526 . S
C779 C780 1.396 . S
C779 C784 1.390 . S
C780 C774 1.465 . S
C780 C779 1.396 . S
C780 C781 1.399 . S
C781 H767 0.929 . S
C781 C780 1.399 . S
C781 C782 1.385 . S
C782 H768 0.931 . S
C782 C781 1.385 . S
C782 C783 1.389 . S
C783 C782 1.389 . S
C783 C784 1.387 . S
C784 H769 0.930 . S
C784 C779 1.390 . S
C784 C783 1.387 . S
H785 C797 0.930 . S
H786 C799 0.930 . S
H787 C800 0.930 . S
H788 C804 0.959 . S
H789 C804 0.959 . S
H790 C804 0.961 . S
H791 C805 0.960 . S
H792 C805 0.961 . S
H793 C805 0.959 . S
H794 C808 0.929 . S
H795 C809 0.931 . S
H796 C811 0.930 . S
C797 H785 0.930 . S
C797 C798 1.399 . S
C797 C802 1.399 . S
C798 C797 1.399 . S
C798 C799 1.376 . S
C799 H786 0.930 . S
C799 C798 1.376 . S
C799 C800 1.388 . S
C800 H787 0.930 . S
C800 C799 1.388 . S
C800 C801 1.390 . S
C801 C800 1.390 . S
C801 C802 1.394 . S
C801 C807 1.465 . S
C802 C797 1.399 . S
C802 C801 1.394 . S
C802 C803 1.516 . S
C803 C802 1.516 . S
C803 C804 1.502 . S
C803 C805 1.561 . S
C803 C806 1.526 . S
C804 H788 0.959 . S
C804 H789 0.959 . S
C804 H790 0.961 . S
C804 C803 1.502 . S
C805 H791 0.960 . S
C805 H792 0.961 . S
C805 H793 0.959 . S
C805 C803 1.561 . S
C806 C803 1.526 . S
C806 C807 1.396 . S
C806 C811 1.390 . S
C807 C801 1.465 . S
C807 C806 1.396 . S
C807 C808 1.399 . S
C808 H794 0.929 . S
C808 C807 1.399 . S
C808 C809 1.385 . S
C809 H795 0.931 . S
C809 C808 1.385 . S
C809 C810 1.389 . S
C810 C809 1.389 . S
C810 C811 1.387 . S
C811 H796 0.930 . S
C811 C806 1.390 . S
C811 C810 1.387 . S
H812 C824 0.930 . S
H813 C826 0.930 . S
H814 C827 0.930 . S
H815 C831 0.959 . S
H816 C831 0.959 . S
H817 C831 0.961 . S
H818 C832 0.960 . S
H819 C832 0.961 . S
H820 C832 0.959 . S
H821 C835 0.929 . S
H822 C836 0.931 . S
H823 C838 0.930 . S
C824 H812 0.930 . S
C824 C825 1.399 . S
C824 C829 1.399 1_455 S
C825 C824 1.399 . S
C825 C826 1.376 1_455 S
C826 H813 0.930 . S
C826 C825 1.376 1_655 S
C826 C827 1.388 . S
C827 H814 0.930 . S
C827 C826 1.388 . S
C827 C828 1.390 . S
C828 C827 1.390 . S
C828 C829 1.394 . S
C828 C834 1.465 . S
C829 C824 1.399 1_655 S
C829 C828 1.394 . S
C829 C830 1.516 . S
C830 C829 1.516 . S
C830 C831 1.502 1_655 S
C830 C832 1.561 . S
C830 C833 1.526 . S
C831 H815 0.959 . S
C831 H816 0.959 . S
C831 H817 0.961 . S
C831 C830 1.502 1_455 S
C832 H818 0.960 . S
C832 H819 0.961 . S
C832 H820 0.959 . S
C832 C830 1.561 . S
C833 C830 1.526 . S
C833 C834 1.396 . S
C833 C838 1.390 . S
C834 C828 1.465 . S
C834 C833 1.396 . S
C834 C835 1.399 . S
C835 H821 0.929 . S
C835 C834 1.399 . S
C835 C836 1.385 . S
C836 H822 0.931 . S
C836 C835 1.385 . S
C836 C837 1.389 . S
C837 C836 1.389 . S
C837 C838 1.387 . S
C838 H823 0.930 . S
C838 C833 1.390 . S
C838 C837 1.387 . S
H839 C851 0.930 . S
H840 C853 0.930 . S
H841 C854 0.930 . S
H842 C858 0.959 . S
H843 C858 0.959 . S
H844 C858 0.961 . S
H845 C859 0.960 . S
H846 C859 0.961 . S
H847 C859 0.959 . S
H848 C862 0.929 . S
H849 C863 0.931 . S
H850 C865 0.930 . S
C851 H839 0.930 . S
C851 C852 1.399 . S
C851 C856 1.399 . S
C852 C851 1.399 . S
C852 C853 1.376 . S
C853 H840 0.930 . S
C853 C852 1.376 . S
C853 C854 1.388 . S
C854 H841 0.930 . S
C854 C853 1.388 . S
C854 C855 1.390 . S
C855 C854 1.390 . S
C855 C856 1.394 . S
C855 C861 1.465 . S
C856 C851 1.399 . S
C856 C855 1.394 . S
C856 C857 1.516 . S
C857 C856 1.516 . S
C857 C858 1.502 . S
C857 C859 1.561 . S
C857 C860 1.526 . S
C858 H842 0.959 . S
C858 H843 0.959 . S
C858 H844 0.961 . S
C858 C857 1.502 . S
C859 H845 0.960 . S
C859 H846 0.961 . S
C859 H847 0.959 . S
C859 C857 1.561 . S
C860 C857 1.526 . S
C860 C861 1.396 . S
C860 C865 1.390 . S
C861 C855 1.465 . S
C861 C860 1.396 . S
C861 C862 1.399 . S
C862 H848 0.929 . S
C862 C861 1.399 . S
C862 C863 1.385 . S
C863 H849 0.931 . S
C863 C862 1.385 . S
C863 C864 1.389 . S
C864 C863 1.389 . S
C864 C865 1.387 . S
C865 H850 0.930 . S
C865 C860 1.390 . S
C865 C864 1.387 . S
H866 C878 0.930 . S
H867 C880 0.930 . S
H868 C881 0.930 . S
H869 C885 0.959 . S
H870 C885 0.959 . S
H871 C885 0.961 . S
H872 C886 0.960 . S
H873 C886 0.961 . S
H874 C886 0.959 . S
H875 C889 0.929 . S
H876 C890 0.931 . S
H877 C892 0.930 . S
C878 H866 0.930 . S
C878 C879 1.399 . S
C878 C883 1.399 . S
C879 C878 1.399 . S
C879 C880 1.376 . S
C880 H867 0.930 . S
C880 C879 1.376 . S
C880 C881 1.388 . S
C881 H868 0.930 . S
C881 C880 1.388 . S
C881 C882 1.390 . S
C882 C881 1.390 . S
C882 C883 1.394 . S
C882 C888 1.465 . S
C883 C878 1.399 . S
C883 C882 1.394 . S
C883 C884 1.516 . S
C884 C883 1.516 . S
C884 C885 1.502 . S
C884 C886 1.561 . S
C884 C887 1.526 . S
C885 H869 0.959 . S
C885 H870 0.959 . S
C885 H871 0.961 . S
C885 C884 1.502 . S
C886 H872 0.960 . S
C886 H873 0.961 . S
C886 H874 0.959 . S
C886 C884 1.561 . S
C887 C884 1.526 . S
C887 C888 1.396 . S
C887 C892 1.390 . S
C888 C882 1.465 . S
C888 C887 1.396 . S
C888 C889 1.399 1_556 S
C889 H875 0.929 . S
C889 C888 1.399 1_554 S
C889 C890 1.385 . S
C890 H876 0.931 . S
C890 C889 1.385 . S
C890 C891 1.369 1_554 S
C891 C890 1.369 1_556 S
C891 C892 1.423 . S
C892 H877 0.930 . S
C892 C887 1.390 . S
C892 C891 1.423 . S
H893 C905 0.930 . S
H894 C907 0.930 . S
H895 C908 0.930 . S
H896 C912 0.959 . S
H897 C912 0.959 . S
H898 C912 0.961 . S
H899 C913 0.960 . S
H900 C913 0.961 . S
H901 C913 0.959 . S
H902 C916 0.929 . S
H903 C917 0.931 . S
H904 C919 0.930 . S
C905 H893 0.930 . S
C905 C906 1.399 . S
C905 C910 1.399 . S
C906 C905 1.399 . S
C906 C907 1.376 . S
C907 H894 0.930 . S
C907 C906 1.376 . S
C907 C908 1.388 . S
C908 H895 0.930 . S
C908 C907 1.388 . S
C908 C909 1.390 . S
C909 C908 1.390 . S
C909 C910 1.394 . S
C909 C915 1.465 . S
C910 C905 1.399 . S
C910 C909 1.394 . S
C910 C911 1.516 . S
C911 C910 1.516 . S
C911 C912 1.502 . S
C911 C913 1.561 . S
C911 C914 1.526 . S
C912 H896 0.959 . S
C912 H897 0.959 . S
C912 H898 0.961 . S
C912 C911 1.502 . S
C913 H899 0.960 . S
C913 H900 0.961 . S
C913 H901 0.959 . S
C913 C911 1.561 . S
C914 C911 1.526 . S
C914 C915 1.396 . S
C914 C919 1.390 . S
C915 C909 1.465 . S
C915 C914 1.396 . S
C915 C916 1.399 . S
C916 H902 0.929 . S
C916 C915 1.399 . S
C916 C917 1.385 . S
C917 H903 0.931 . S
C917 C916 1.385 . S
C917 C918 1.389 . S
C918 C917 1.389 . S
C918 C919 1.387 . S
C919 H904 0.930 . S
C919 C914 1.390 . S
C919 C918 1.387 . S
H920 C932 0.930 1_565 S
H921 C934 0.930 . S
H922 C935 0.930 . S
H923 C939 0.959 . S
H924 C939 0.959 . S
H925 C939 0.961 . S
H926 C940 0.960 . S
H927 C940 0.961 . S
H928 C940 0.959 . S
H929 C943 0.929 . S
H930 C944 0.931 . S
H931 C946 0.930 . S
C932 H920 0.930 1_545 S
C932 C933 1.399 . S
C932 C937 1.399 . S
C933 C932 1.399 . S
C933 C934 1.376 . S
C934 H921 0.930 . S
C934 C933 1.376 . S
C934 C935 1.388 . S
C935 H922 0.930 . S
C935 C934 1.388 . S
C935 C936 1.390 . S
C936 C935 1.390 . S
C936 C937 1.394 . S
C936 C942 1.465 . S
C937 C932 1.399 . S
C937 C936 1.394 . S
C937 C938 1.516 1_545 S
C938 C937 1.516 1_565 S
C938 C939 1.502 . S
C938 C940 1.561 . S
C938 C941 1.546 . S
C939 H923 0.959 . S
C939 H924 0.959 . S
C939 H925 0.961 . S
C939 C938 1.502 . S
C940 H926 0.960 . S
C940 H927 0.961 . S
C940 H928 0.959 . S
C940 C938 1.561 . S
C941 C938 1.546 . S
C941 C942 1.363 1_565 S
C941 C946 1.399 . S
C942 C936 1.465 . S
C942 C941 1.363 1_545 S
C942 C943 1.399 . S
C943 H929 0.929 . S
C943 C942 1.399 . S
C943 C944 1.385 . S
C944 H930 0.931 . S
C944 C943 1.385 . S
C944 C945 1.389 . S
C945 C944 1.389 . S
C945 C946 1.387 1_545 S
C946 H931 0.930 . S
C946 C941 1.399 . S
C946 C945 1.387 1_565 S
H947 C959 0.930 . S
H948 C961 0.930 . S
H949 C962 0.930 . S
H950 C966 0.959 . S
H951 C966 0.959 . S
H952 C966 0.961 . S
H953 C967 0.960 . S
H954 C967 0.961 . S
H955 C967 0.959 . S
H956 C970 0.929 . S
H957 C971 0.931 . S
H958 C973 0.930 . S
C959 H947 0.930 . S
C959 C960 1.399 . S
C959 C964 1.399 . S
C960 C959 1.399 . S
C960 C961 1.376 . S
C961 H948 0.930 . S
C961 C960 1.376 . S
C961 C962 1.388 . S
C962 H949 0.930 . S
C962 C961 1.388 . S
C962 C963 1.390 . S
C963 C962 1.390 . S
C963 C964 1.394 . S
C963 C969 1.465 . S
C964 C959 1.399 . S
C964 C963 1.394 . S
C964 C965 1.516 . S
C965 C964 1.516 . S
C965 C966 1.502 . S
C965 C967 1.561 . S
C965 C968 1.526 . S
C966 H950 0.959 . S
C966 H951 0.959 . S
C966 H952 0.961 . S
C966 C965 1.502 . S
C967 H953 0.960 . S
C967 H954 0.961 . S
C967 H955 0.959 . S
C967 C965 1.561 . S
C968 C965 1.526 . S
C968 C969 1.396 . S
C968 C973 1.390 . S
C969 C963 1.465 . S
C969 C968 1.396 . S
C969 C970 1.399 . S
C970 H956 0.929 . S
C970 C969 1.399 . S
C970 C971 1.385 . S
C971 H957 0.931 . S
C971 C970 1.385 . S
C971 C972 1.389 . S
C972 C971 1.389 . S
C972 C973 1.387 . S
C973 H958 0.930 . S
C973 C968 1.390 . S
C973 C972 1.387 . S
H974 C986 0.930 . S
H975 C988 0.930 . S
H976 C989 0.930 . S
H977 C993 0.959 . S
H978 C993 0.959 . S
H979 C993 0.961 . S
H980 C994 0.960 . S
H981 C994 0.961 . S
H982 C994 0.959 . S
H983 C997 0.929 . S
H984 C998 0.931 . S
H985 C1000 0.930 . S
C986 H974 0.930 . S
C986 C987 1.399 1_565 S
C986 C991 1.399 . S
C987 C986 1.399 1_545 S
C987 C988 1.376 . S
C988 H975 0.930 . S
C988 C987 1.376 . S
C988 C989 1.388 . S
C989 H976 0.930 . S
C989 C988 1.388 . S
C989 C990 1.390 . S
C990 C989 1.390 . S
C990 C991 1.394 1_545 S
C990 C996 1.465 . S
C991 C986 1.399 . S
C991 C990 1.394 1_565 S
C991 C992 1.516 . S
C992 C991 1.516 . S
C992 C993 1.502 . S
C992 C994 1.561 . S
C992 C995 1.550 . S
C993 H977 0.959 . S
C993 H978 0.959 . S
C993 H979 0.961 . S
C993 C992 1.502 . S
C994 H980 0.960 . S
C994 H981 0.961 . S
C994 H982 0.959 . S
C994 C992 1.561 . S
C995 C992 1.550 . S
C995 C996 1.366 1_565 S
C995 C1000 1.392 . S
C996 C990 1.465 . S
C996 C995 1.366 1_545 S
C996 C997 1.399 . S
C997 H983 0.929 . S
C997 C996 1.399 . S
C997 C998 1.385 . S
C998 H984 0.931 . S
C998 C997 1.385 . S
C998 C999 1.389 . S
C999 C998 1.389 . S
C999 C1000 1.387 1_545 S
C1000 H985 0.930 . S
C1000 C995 1.392 . S
C1000 C999 1.387 1_565 S
H1001 C1013 0.930 . S
H1002 C1015 0.930 . S
H1003 C1016 0.930 . S
H1004 C1020 0.959 . S
H1005 C1020 0.959 . S
H1006 C1020 0.961 . S
H1007 C1021 0.960 . S
H1008 C1021 0.961 . S
H1009 C1021 0.959 . S
H1010 C1024 0.929 . S
H1011 C1025 0.931 . S
H1012 C1027 0.930 . S
C1013 H1001 0.930 . S
C1013 C1014 1.399 . S
C1013 C1018 1.399 . S
C1014 C1013 1.399 . S
C1014 C1015 1.376 . S
C1015 H1002 0.930 . S
C1015 C1014 1.376 . S
C1015 C1016 1.388 . S
C1016 H1003 0.930 . S
C1016 C1015 1.388 . S
C1016 C1017 1.390 . S
C1017 C1016 1.390 . S
C1017 C1018 1.394 . S
C1017 C1023 1.465 . S
C1018 C1013 1.399 . S
C1018 C1017 1.394 . S
C1018 C1019 1.516 . S
C1019 C1018 1.516 . S
C1019 C1020 1.502 . S
C1019 C1021 1.561 . S
C1019 C1022 1.526 . S
C1020 H1004 0.959 . S
C1020 H1005 0.959 . S
C1020 H1006 0.961 . S
C1020 C1019 1.502 . S
C1021 H1007 0.960 . S
C1021 H1008 0.961 . S
C1021 H1009 0.959 . S
C1021 C1019 1.561 . S
C1022 C1019 1.526 . S
C1022 C1023 1.396 . S
C1022 C1027 1.390 . S
C1023 C1017 1.465 . S
C1023 C1022 1.396 . S
C1023 C1024 1.399 . S
C1024 H1010 0.929 . S
C1024 C1023 1.399 . S
C1024 C1025 1.385 . S
C1025 H1011 0.931 . S
C1025 C1024 1.385 . S
C1025 C1026 1.389 . S
C1026 C1025 1.389 . S
C1026 C1027 1.387 . S
C1027 H1012 0.930 . S
C1027 C1022 1.390 . S
C1027 C1026 1.387 . S
H1028 C1040 0.930 . S
H1029 C1042 0.930 . S
H1030 C1043 0.930 . S
H1031 C1047 0.959 . S
H1032 C1047 0.959 . S
H1033 C1047 0.961 . S
H1034 C1048 0.960 . S
H1035 C1048 0.961 . S
H1036 C1048 0.959 . S
H1037 C1051 0.929 . S
H1038 C1052 0.931 1_565 S
H1039 C1054 0.930 . S
C1040 H1028 0.930 . S
C1040 C1041 1.399 . S
C1040 C1045 1.399 . S
C1041 C1040 1.399 . S
C1041 C1042 1.376 1_545 S
C1042 H1029 0.930 . S
C1042 C1041 1.376 1_565 S
C1042 C1043 1.388 . S
C1043 H1030 0.930 . S
C1043 C1042 1.388 . S
C1043 C1044 1.390 1_565 S
C1044 C1043 1.390 1_545 S
C1044 C1045 1.394 . S
C1044 C1050 1.465 . S
C1045 C1040 1.399 . S
C1045 C1044 1.394 . S
C1045 C1046 1.516 . S
C1046 C1045 1.516 . S
C1046 C1047 1.502 . S
C1046 C1048 1.561 . S
C1046 C1049 1.526 . S
C1047 H1031 0.959 . S
C1047 H1032 0.959 . S
C1047 H1033 0.961 . S
C1047 C1046 1.502 . S
C1048 H1034 0.960 . S
C1048 H1035 0.961 . S
C1048 H1036 0.959 . S
C1048 C1046 1.561 . S
C1049 C1046 1.526 . S
C1049 C1050 1.396 . S
C1049 C1054 1.390 . S
C1050 C1044 1.465 . S
C1050 C1049 1.396 . S
C1050 C1051 1.399 1_545 S
C1051 H1037 0.929 . S
C1051 C1050 1.399 1_565 S
C1051 C1052 1.385 1_565 S
C1052 H1038 0.931 1_545 S
C1052 C1051 1.385 1_545 S
C1052 C1053 1.389 . S
C1053 C1052 1.389 . S
C1053 C1054 1.387 . S
C1054 H1039 0.930 . S
C1054 C1049 1.390 . S
C1054 C1053 1.387 . S
H1055 C1067 0.930 . S
H1056 C1069 0.930 . S
H1057 C1070 0.930 . S
H1058 C1074 0.959 . S
H1059 C1074 0.959 . S
H1060 C1074 0.961 . S
H1061 C1075 0.960 . S
H1062 C1075 0.961 . S
H1063 C1075 0.959 . S
H1064 C1078 0.929 . S
H1065 C1079 0.931 . S
H1066 C1081 0.930 . S
C1067 H1055 0.930 . S
C1067 C1068 1.399 . S
C1067 C1072 1.399 . S
C1068 C1067 1.399 . S
C1068 C1069 1.376 . S
C1069 H1056 0.930 . S
C1069 C1068 1.376 . S
C1069 C1070 1.388 . S
C1070 H1057 0.930 . S
C1070 C1069 1.388 . S
C1070 C1071 1.390 . S
C1071 C1070 1.390 . S
C1071 C1072 1.394 . S
C1071 C1077 1.465 . S
C1072 C1067 1.399 . S
C1072 C1071 1.394 . S
C1072 C1073 1.516 . S
C1073 C1072 1.516 . S
C1073 C1074 1.502 . S
C1073 C1075 1.561 . S
C1073 C1076 1.526 . S
C1074 H1058 0.959 . S
C1074 H1059 0.959 . S
C1074 H1060 0.961 . S
C1074 C1073 1.502 . S
C1075 H1061 0.960 . S
C1075 H1062 0.961 . S
C1075 H1063 0.959 . S
C1075 C1073 1.561 . S
C1076 C1073 1.526 . S
C1076 C1077 1.396 . S
C1076 C1081 1.390 . S
C1077 C1071 1.465 . S
C1077 C1076 1.396 . S
C1077 C1078 1.399 . S
C1078 H1064 0.929 . S
C1078 C1077 1.399 . S
C1078 C1079 1.385 . S
C1079 H1065 0.931 . S
C1079 C1078 1.385 . S
C1079 C1080 1.389 . S
C1080 C1079 1.389 . S
C1080 C1081 1.387 . S
C1081 H1066 0.930 . S
C1081 C1076 1.390 . S
C1081 C1080 1.387 . S
H1082 C1094 0.930 . S
H1083 C1096 0.930 . S
H1084 C1097 0.930 . S
H1085 C1101 0.959 . S
H1086 C1101 0.959 . S
H1087 C1101 0.961 . S
H1088 C1102 0.960 . S
H1089 C1102 0.961 . S
H1090 C1102 0.959 . S
H1091 C1105 0.929 . S
H1092 C1106 0.931 . S
H1093 C1108 0.930 . S
C1094 H1082 0.930 . S
C1094 C1095 1.395 . S
C1094 C1099 1.399 . S
C1095 C1094 1.395 . S
C1095 C1096 1.381 1_565 S
C1096 H1083 0.930 . S
C1096 C1095 1.381 1_545 S
C1096 C1097 1.388 . S
C1097 H1084 0.930 . S
C1097 C1096 1.388 . S
C1097 C1098 1.390 . S
C1098 C1097 1.390 . S
C1098 C1099 1.394 1_545 S
C1098 C1104 1.465 . S
C1099 C1094 1.399 . S
C1099 C1098 1.394 1_565 S
C1099 C1100 1.516 . S
C1100 C1099 1.516 . S
C1100 C1101 1.502 . S
C1100 C1102 1.561 . S
C1100 C1103 1.526 . S
C1101 H1085 0.959 . S
C1101 H1086 0.959 . S
C1101 H1087 0.961 . S
C1101 C1100 1.502 . S
C1102 H1088 0.960 . S
C1102 H1089 0.961 . S
C1102 H1090 0.959 . S
C1102 C1100 1.561 . S
C1103 C1100 1.526 . S
C1103 C1104 1.396 1_565 S
C1103 C1108 1.390 . S
C1104 C1098 1.465 . S
C1104 C1103 1.396 1_545 S
C1104 C1105 1.399 . S
C1105 H1091 0.929 . S
C1105 C1104 1.399 . S
C1105 C1106 1.385 . S
C1106 H1092 0.931 . S
C1106 C1105 1.385 . S
C1106 C1107 1.389 1_545 S
C1107 C1106 1.389 1_565 S
C1107 C1108 1.387 . S
C1108 H1093 0.930 . S
C1108 C1103 1.390 . S
C1108 C1107 1.387 . S
H1109 C1121 0.930 . S
H1110 C1123 0.930 . S
H1111 C1124 0.930 . S
H1112 C1128 0.959 . S
H1113 C1128 0.959 . S
H1114 C1128 0.961 . S
H1115 C1129 0.960 . S
H1116 C1129 0.961 . S
H1117 C1129 0.959 . S
H1118 C1132 0.929 . S
H1119 C1133 0.931 . S
H1120 C1135 0.930 . S
C1121 H1109 0.930 . S
C1121 C1122 1.399 . S
C1121 C1126 1.399 . S
C1122 C1121 1.399 . S
C1122 C1123 1.376 . S
C1123 H1110 0.930 . S
C1123 C1122 1.376 . S
C1123 C1124 1.388 . S
C1124 H1111 0.930 . S
C1124 C1123 1.388 . S
C1124 C1125 1.390 . S
C1125 C1124 1.390 . S
C1125 C1126 1.394 . S
C1125 C1131 1.465 . S
C1126 C1121 1.399 . S
C1126 C1125 1.394 . S
C1126 C1127 1.516 . S
C1127 C1126 1.516 . S
C1127 C1128 1.502 . S
C1127 C1129 1.561 . S
C1127 C1130 1.526 . S
C1128 H1112 0.959 . S
C1128 H1113 0.959 . S
C1128 H1114 0.961 . S
C1128 C1127 1.502 . S
C1129 H1115 0.960 . S
C1129 H1116 0.961 . S
C1129 H1117 0.959 . S
C1129 C1127 1.561 . S
C1130 C1127 1.526 . S
C1130 C1131 1.396 . S
C1130 C1135 1.390 . S
C1131 C1125 1.465 . S
C1131 C1130 1.396 . S
C1131 C1132 1.399 . S
C1132 H1118 0.929 . S
C1132 C1131 1.399 . S
C1132 C1133 1.385 . S
C1133 H1119 0.931 . S
C1133 C1132 1.385 . S
C1133 C1134 1.389 . S
C1134 C1133 1.389 . S
C1134 C1135 1.387 . S
C1135 H1120 0.930 . S
C1135 C1130 1.390 . S
C1135 C1134 1.387 . S
H1136 C1148 0.930 . S
H1137 C1150 0.930 . S
H1138 C1151 0.930 . S
H1139 C1155 0.959 . S
H1140 C1155 0.959 . S
H1141 C1155 0.961 . S
H1142 C1156 0.960 . S
H1143 C1156 0.961 . S
H1144 C1156 0.959 . S
H1145 C1159 0.929 . S
H1146 C1160 0.931 . S
H1147 C1162 0.930 . S
C1148 H1136 0.930 . S
C1148 C1149 1.399 . S
C1148 C1153 1.399 . S
C1149 C1148 1.399 . S
C1149 C1150 1.376 1_554 S
C1150 H1137 0.930 . S
C1150 C1149 1.376 1_556 S
C1150 C1151 1.388 . S
C1151 H1138 0.930 . S
C1151 C1150 1.388 . S
C1151 C1152 1.390 . S
C1152 C1151 1.390 . S
C1152 C1153 1.394 1_556 S
C1152 C1158 1.465 . S
C1153 C1148 1.399 . S
C1153 C1152 1.394 1_554 S
C1153 C1154 1.516 . S
C1154 C1153 1.516 . S
C1154 C1155 1.502 . S
C1154 C1156 1.561 . S
C1154 C1157 1.526 . S
C1155 H1139 0.959 . S
C1155 H1140 0.959 . S
C1155 H1141 0.961 . S
C1155 C1154 1.502 . S
C1156 H1142 0.960 . S
C1156 H1143 0.961 . S
C1156 H1144 0.959 . S
C1156 C1154 1.561 . S
C1157 C1154 1.526 . S
C1157 C1158 1.396 1_554 S
C1157 C1162 1.390 . S
C1158 C1152 1.465 . S
C1158 C1157 1.396 1_556 S
C1158 C1159 1.399 . S
C1159 H1145 0.929 . S
C1159 C1158 1.399 . S
C1159 C1160 1.385 . S
C1160 H1146 0.931 . S
C1160 C1159 1.385 . S
C1160 C1161 1.389 . S
C1161 C1160 1.389 . S
C1161 C1162 1.387 1_556 S
C1162 H1147 0.930 . S
C1162 C1157 1.390 . S
C1162 C1161 1.387 1_554 S
H1163 C1175 0.930 . S
H1164 C1177 0.930 . S
H1165 C1178 0.930 . S
H1166 C1182 0.959 . S
H1167 C1182 0.959 . S
H1168 C1182 0.961 . S
H1169 C1183 0.960 . S
H1170 C1183 0.961 . S
H1171 C1183 0.959 . S
H1172 C1186 0.929 . S
H1173 C1187 0.931 . S
H1174 C1189 0.930 . S
C1175 H1163 0.930 . S
C1175 C1176 1.399 . S
C1175 C1180 1.399 . S
C1176 C1175 1.399 . S
C1176 C1177 1.376 1_554 S
C1177 H1164 0.930 . S
C1177 C1176 1.376 1_556 S
C1177 C1178 1.388 . S
C1178 H1165 0.930 . S
C1178 C1177 1.388 . S
C1178 C1179 1.390 1_556 S
C1179 C1178 1.390 1_554 S
C1179 C1180 1.394 . S
C1179 C1185 1.465 . S
C1180 C1175 1.399 . S
C1180 C1179 1.394 . S
C1180 C1181 1.516 . S
C1181 C1180 1.516 . S
C1181 C1182 1.502 . S
C1181 C1183 1.561 . S
C1181 C1184 1.526 . S
C1182 H1166 0.959 . S
C1182 H1167 0.959 . S
C1182 H1168 0.961 . S
C1182 C1181 1.502 . S
C1183 H1169 0.960 . S
C1183 H1170 0.961 . S
C1183 H1171 0.959 . S
C1183 C1181 1.561 . S
C1184 C1181 1.526 . S
C1184 C1185 1.396 . S
C1184 C1189 1.390 . S
C1185 C1179 1.465 . S
C1185 C1184 1.396 . S
C1185 C1186 1.399 1_554 S
C1186 H1172 0.929 . S
C1186 C1185 1.399 1_556 S
C1186 C1187 1.385 . S
C1187 H1173 0.931 . S
C1187 C1186 1.385 . S
C1187 C1188 1.389 1_556 S
C1188 C1187 1.389 1_554 S
C1188 C1189 1.387 . S
C1189 H1174 0.930 . S
C1189 C1184 1.390 . S
C1189 C1188 1.387 . S
H1190 C1202 0.930 . S
H1191 C1204 0.930 . S
H1192 C1205 0.930 . S
H1193 C1209 0.959 . S
H1194 C1209 0.959 . S
H1195 C1209 0.961 . S
H1196 C1210 0.960 . S
H1197 C1210 0.961 . S
H1198 C1210 0.959 . S
H1199 C1213 0.929 . S
H1200 C1214 0.931 . S
H1201 C1216 0.930 . S
C1202 H1190 0.930 . S
C1202 C1203 1.399 . S
C1202 C1207 1.399 . S
C1203 C1202 1.399 . S
C1203 C1204 1.376 . S
C1204 H1191 0.930 . S
C1204 C1203 1.376 . S
C1204 C1205 1.388 . S
C1205 H1192 0.930 . S
C1205 C1204 1.388 . S
C1205 C1206 1.390 . S
C1206 C1205 1.390 . S
C1206 C1207 1.394 . S
C1206 C1212 1.465 . S
C1207 C1202 1.399 . S
C1207 C1206 1.394 . S
C1207 C1208 1.516 . S
C1208 C1207 1.516 . S
C1208 C1209 1.502 . S
C1208 C1210 1.561 . S
C1208 C1211 1.526 . S
C1209 H1193 0.959 . S
C1209 H1194 0.959 . S
C1209 H1195 0.961 . S
C1209 C1208 1.502 . S
C1210 H1196 0.960 . S
C1210 H1197 0.961 . S
C1210 H1198 0.959 . S
C1210 C1208 1.561 . S
C1211 C1208 1.526 . S
C1211 C1212 1.396 . S
C1211 C1216 1.390 . S
C1212 C1206 1.465 . S
C1212 C1211 1.396 . S
C1212 C1213 1.399 . S
C1213 H1199 0.929 . S
C1213 C1212 1.399 . S
C1213 C1214 1.385 . S
C1214 H1200 0.931 . S
C1214 C1213 1.385 . S
C1214 C1215 1.389 . S
C1215 C1214 1.389 . S
C1215 C1216 1.387 . S
C1216 H1201 0.930 . S
C1216 C1211 1.390 . S
C1216 C1215 1.387 . S
H1217 C1229 0.930 . S
H1218 C1231 0.930 . S
H1219 C1232 0.930 . S
H1220 C1236 0.959 . S
H1221 C1236 0.959 . S
H1222 C1236 0.961 . S
H1223 C1237 0.960 . S
H1224 C1237 0.961 . S
H1225 C1237 0.959 . S
H1226 C1240 0.929 . S
H1227 C1241 0.931 . S
H1228 C1243 0.930 . S
C1229 H1217 0.930 . S
C1229 C1230 1.399 . S
C1229 C1234 1.399 . S
C1230 C1229 1.399 . S
C1230 C1231 1.376 . S
C1231 H1218 0.930 . S
C1231 C1230 1.376 . S
C1231 C1232 1.388 . S
C1232 H1219 0.930 . S
C1232 C1231 1.388 . S
C1232 C1233 1.390 . S
C1233 C1232 1.390 . S
C1233 C1234 1.394 . S
C1233 C1239 1.465 . S
C1234 C1229 1.399 . S
C1234 C1233 1.394 . S
C1234 C1235 1.516 . S
C1235 C1234 1.516 . S
C1235 C1236 1.502 . S
C1235 C1237 1.561 . S
C1235 C1238 1.526 . S
C1236 H1220 0.959 . S
C1236 H1221 0.959 . S
C1236 H1222 0.961 . S
C1236 C1235 1.502 . S
C1237 H1223 0.960 . S
C1237 H1224 0.961 . S
C1237 H1225 0.959 . S
C1237 C1235 1.561 . S
C1238 C1235 1.526 . S
C1238 C1239 1.396 . S
C1238 C1243 1.390 . S
C1239 C1233 1.465 . S
C1239 C1238 1.396 . S
C1239 C1240 1.399 . S
C1240 H1226 0.929 . S
C1240 C1239 1.399 . S
C1240 C1241 1.385 . S
C1241 H1227 0.931 . S
C1241 C1240 1.385 . S
C1241 C1242 1.389 . S
C1242 C1241 1.389 . S
C1242 C1243 1.387 . S
C1243 H1228 0.930 . S
C1243 C1238 1.390 . S
C1243 C1242 1.387 . S
H1244 C1256 0.930 . S
H1245 C1258 0.930 . S
H1246 C1259 0.930 . S
H1247 C1263 0.959 . S
H1248 C1263 0.959 . S
H1249 C1263 0.961 . S
H1250 C1264 0.960 . S
H1251 C1264 0.961 . S
H1252 C1264 0.959 . S
H1253 C1267 0.929 . S
H1254 C1268 0.931 . S
H1255 C1270 0.930 . S
C1256 H1244 0.930 . S
C1256 C1257 1.399 . S
C1256 C1261 1.399 . S
C1257 C1256 1.399 . S
C1257 C1258 1.376 . S
C1258 H1245 0.930 . S
C1258 C1257 1.376 . S
C1258 C1259 1.388 . S
C1259 H1246 0.930 . S
C1259 C1258 1.388 . S
C1259 C1260 1.390 . S
C1260 C1259 1.390 . S
C1260 C1261 1.394 . S
C1260 C1266 1.465 . S
C1261 C1256 1.399 . S
C1261 C1260 1.394 . S
C1261 C1262 1.516 . S
C1262 C1261 1.516 . S
C1262 C1263 1.502 . S
C1262 C1264 1.561 . S
C1262 C1265 1.526 . S
C1263 H1247 0.959 . S
C1263 H1248 0.959 . S
C1263 H1249 0.961 . S
C1263 C1262 1.502 . S
C1264 H1250 0.960 . S
C1264 H1251 0.961 . S
C1264 H1252 0.959 . S
C1264 C1262 1.561 . S
C1265 C1262 1.526 . S
C1265 C1266 1.396 . S
C1265 C1270 1.390 . S
C1266 C1260 1.465 . S
C1266 C1265 1.396 . S
C1266 C1267 1.399 . S
C1267 H1253 0.929 . S
C1267 C1266 1.399 . S
C1267 C1268 1.385 . S
C1268 H1254 0.931 . S
C1268 C1267 1.385 . S
C1268 C1269 1.389 . S
C1269 C1268 1.389 . S
C1269 C1270 1.387 . S
C1270 H1255 0.930 . S
C1270 C1265 1.390 . S
C1270 C1269 1.387 . S
H1271 C1283 0.930 . S
H1272 C1285 0.930 . S
H1273 C1286 0.930 . S
H1274 C1290 0.959 . S
H1275 C1290 0.959 . S
H1276 C1290 0.961 . S
H1277 C1291 0.960 . S
H1278 C1291 0.961 . S
H1279 C1291 0.959 . S
H1280 C1294 0.956 . S
H1281 C1295 0.931 . S
H1282 C1297 0.930 . S
C1283 H1271 0.930 . S
C1283 C1284 1.399 . S
C1283 C1288 1.399 . S
C1284 C1283 1.399 . S
C1284 C1285 1.376 . S
C1285 H1272 0.930 . S
C1285 C1284 1.376 . S
C1285 C1286 1.388 . S
C1286 H1273 0.930 . S
C1286 C1285 1.388 . S
C1286 C1287 1.390 . S
C1287 C1286 1.390 . S
C1287 C1288 1.394 . S
C1287 C1293 1.465 . S
C1288 C1283 1.399 . S
C1288 C1287 1.394 . S
C1288 C1289 1.516 . S
C1289 C1288 1.516 . S
C1289 C1290 1.502 . S
C1289 C1291 1.561 . S
C1289 C1292 1.526 . S
C1290 H1274 0.959 . S
C1290 H1275 0.959 . S
C1290 H1276 0.961 . S
C1290 C1289 1.502 . S
C1291 H1277 0.960 . S
C1291 H1278 0.961 . S
C1291 H1279 0.959 . S
C1291 C1289 1.561 . S
C1292 C1289 1.526 . S
C1292 C1293 1.396 . S
C1292 C1297 1.390 . S
C1293 C1287 1.465 . S
C1293 C1292 1.396 . S
C1293 C1294 1.354 1_565 S
C1294 H1280 0.956 . S
C1294 C1293 1.354 1_545 S
C1294 C1295 1.404 . S
C1295 H1281 0.931 . S
C1295 C1294 1.404 . S
C1295 C1296 1.389 1_545 S
C1296 C1295 1.389 1_565 S
C1296 C1297 1.387 . S
C1297 H1282 0.930 . S
C1297 C1292 1.390 . S
C1297 C1296 1.387 . S
H1298 C1310 0.930 . S
H1299 C1312 0.930 . S
H1300 C1313 0.930 . S
H1301 C1317 0.959 . S
H1302 C1317 0.959 . S
H1303 C1317 0.961 . S
H1304 C1318 0.960 . S
H1305 C1318 0.961 . S
H1306 C1318 0.959 . S
H1307 C1321 0.929 . S
H1308 C1322 0.931 . S
H1309 C1324 0.930 . S
C1310 H1298 0.930 . S
C1310 C1311 1.399 . S
C1310 C1315 1.399 . S
C1311 C1310 1.399 . S
C1311 C1312 1.376 . S
C1312 H1299 0.930 . S
C1312 C1311 1.376 . S
C1312 C1313 1.388 . S
C1313 H1300 0.930 . S
C1313 C1312 1.388 . S
C1313 C1314 1.390 . S
C1314 C1313 1.390 . S
C1314 C1315 1.394 . S
C1314 C1320 1.465 . S
C1315 C1310 1.399 . S
C1315 C1314 1.394 . S
C1315 C1316 1.516 . S
C1316 C1315 1.516 . S
C1316 C1317 1.502 . S
C1316 C1318 1.561 . S
C1316 C1319 1.526 . S
C1317 H1301 0.959 . S
C1317 H1302 0.959 . S
C1317 H1303 0.961 . S
C1317 C1316 1.502 . S
C1318 H1304 0.960 . S
C1318 H1305 0.961 . S
C1318 H1306 0.959 . S
C1318 C1316 1.561 . S
C1319 C1316 1.526 . S
C1319 C1320 1.396 . S
C1319 C1324 1.390 . S
C1320 C1314 1.465 . S
C1320 C1319 1.396 . S
C1320 C1321 1.399 . S
C1321 H1307 0.929 . S
C1321 C1320 1.399 . S
C1321 C1322 1.385 . S
C1322 H1308 0.931 . S
C1322 C1321 1.385 . S
C1322 C1323 1.389 . S
C1323 C1322 1.389 . S
C1323 C1324 1.387 . S
C1324 H1309 0.930 . S
C1324 C1319 1.390 . S
C1324 C1323 1.387 . S
H1325 C1337 0.930 . S
H1326 C1339 0.930 . S
H1327 C1340 0.930 . S
H1328 C1344 0.959 . S
H1329 C1344 0.959 . S
H1330 C1344 0.961 . S
H1331 C1345 0.960 . S
H1332 C1345 0.961 . S
H1333 C1345 0.959 . S
H1334 C1348 0.929 . S
H1335 C1349 0.931 . S
H1336 C1351 0.930 . S
C1337 H1325 0.930 . S
C1337 C1338 1.399 . S
C1337 C1342 1.399 . S
C1338 C1337 1.399 . S
C1338 C1339 1.376 . S
C1339 H1326 0.930 . S
C1339 C1338 1.376 . S
C1339 C1340 1.388 . S
C1340 H1327 0.930 . S
C1340 C1339 1.388 . S
C1340 C1341 1.390 . S
C1341 C1340 1.390 . S
C1341 C1342 1.394 . S
C1341 C1347 1.465 . S
C1342 C1337 1.399 . S
C1342 C1341 1.394 . S
C1342 C1343 1.516 . S
C1343 C1342 1.516 . S
C1343 C1344 1.502 . S
C1343 C1345 1.561 . S
C1343 C1346 1.526 . S
C1344 H1328 0.959 . S
C1344 H1329 0.959 . S
C1344 H1330 0.961 . S
C1344 C1343 1.502 . S
C1345 H1331 0.960 . S
C1345 H1332 0.961 . S
C1345 H1333 0.959 . S
C1345 C1343 1.561 . S
C1346 C1343 1.526 . S
C1346 C1347 1.396 . S
C1346 C1351 1.390 . S
C1347 C1341 1.465 . S
C1347 C1346 1.396 . S
C1347 C1348 1.399 . S
C1348 H1334 0.929 . S
C1348 C1347 1.399 . S
C1348 C1349 1.385 . S
C1349 H1335 0.931 . S
C1349 C1348 1.385 . S
C1349 C1350 1.389 . S
C1350 C1349 1.389 . S
C1350 C1351 1.387 . S
C1351 H1336 0.930 . S
C1351 C1346 1.390 . S
C1351 C1350 1.387 . S
H1352 C1364 0.930 . S
H1353 C1366 0.930 . S
H1354 C1367 0.930 . S
H1355 C1371 0.959 . S
H1356 C1371 0.959 . S
H1357 C1371 0.961 . S
H1358 C1372 0.960 . S
H1359 C1372 0.961 . S
H1360 C1372 0.959 1_655 S
H1361 C1375 0.929 1_654 S
H1362 C1376 0.931 . S
H1363 C1378 0.930 . S
C1364 H1352 0.930 . S
C1364 C1365 1.399 . S
C1364 C1369 1.399 . S
C1365 C1364 1.399 . S
C1365 C1366 1.376 1_455 S
C1366 H1353 0.930 . S
C1366 C1365 1.376 1_655 S
C1366 C1367 1.388 . S
C1367 H1354 0.930 . S
C1367 C1366 1.388 . S
C1367 C1368 1.390 1_655 S
C1368 C1367 1.390 1_455 S
C1368 C1369 1.394 . S
C1368 C1374 1.465 . S
C1369 C1364 1.399 . S
C1369 C1368 1.394 . S
C1369 C1370 1.516 . S
C1370 C1369 1.516 . S
C1370 C1371 1.502 . S
C1370 C1372 1.561 . S
C1370 C1373 1.526 . S
C1371 H1355 0.959 . S
C1371 H1356 0.959 . S
C1371 H1357 0.961 . S
C1371 C1370 1.502 . S
C1372 H1358 0.960 . S
C1372 H1359 0.961 . S
C1372 H1360 0.959 1_455 S
C1372 C1370 1.561 . S
C1373 C1370 1.526 . S
C1373 C1374 1.396 . S
C1373 C1378 1.390 . S
C1374 C1368 1.465 . S
C1374 C1373 1.396 . S
C1374 C1375 1.399 . S
C1375 H1361 0.929 1_456 S
C1375 C1374 1.399 . S
C1375 C1376 1.385 1_556 S
C1376 H1362 0.931 . S
C1376 C1375 1.385 1_554 S
C1376 C1377 1.389 1_554 S
C1377 C1376 1.389 1_556 S
C1377 C1378 1.387 . S
C1378 H1363 0.930 . S
C1378 C1373 1.390 . S
C1378 C1377 1.387 . S
H1379 C1391 0.930 . S
H1380 C1393 0.930 . S
H1381 C1394 0.930 . S
H1382 C1398 0.959 . S
H1383 C1398 0.959 . S
H1384 C1398 0.961 . S
H1385 C1399 0.960 . S
H1386 C1399 0.961 . S
H1387 C1399 0.959 . S
H1388 C1402 0.929 . S
H1389 C1403 0.931 . S
H1390 C1405 0.930 . S
C1391 H1379 0.930 . S
C1391 C1392 1.399 . S
C1391 C1396 1.399 . S
C1392 C1391 1.399 . S
C1392 C1393 1.376 . S
C1393 H1380 0.930 . S
C1393 C1392 1.376 . S
C1393 C1394 1.388 . S
C1394 H1381 0.930 . S
C1394 C1393 1.388 . S
C1394 C1395 1.390 . S
C1395 C1394 1.390 . S
C1395 C1396 1.394 . S
C1395 C1401 1.465 . S
C1396 C1391 1.399 . S
C1396 C1395 1.394 . S
C1396 C1397 1.516 . S
C1397 C1396 1.516 . S
C1397 C1398 1.502 . S
C1397 C1399 1.561 . S
C1397 C1400 1.526 . S
C1398 H1382 0.959 . S
C1398 H1383 0.959 . S
C1398 H1384 0.961 . S
C1398 C1397 1.502 . S
C1399 H1385 0.960 . S
C1399 H1386 0.961 . S
C1399 H1387 0.959 . S
C1399 C1397 1.561 . S
C1400 C1397 1.526 . S
C1400 C1401 1.396 . S
C1400 C1405 1.390 . S
C1401 C1395 1.465 . S
C1401 C1400 1.396 . S
C1401 C1402 1.399 . S
C1402 H1388 0.929 . S
C1402 C1401 1.399 . S
C1402 C1403 1.385 . S
C1403 H1389 0.931 . S
C1403 C1402 1.385 . S
C1403 C1404 1.389 . S
C1404 C1403 1.389 . S
C1404 C1405 1.387 . S
C1405 H1390 0.930 . S
C1405 C1400 1.390 . S
C1405 C1404 1.387 . S
H1406 C1418 0.930 . S
H1407 C1420 0.930 . S
H1408 C1421 0.930 . S
H1409 C1425 0.959 . S
H1410 C1425 0.959 . S
H1411 C1425 0.961 . S
H1412 C1426 0.960 . S
H1413 C1426 0.961 . S
H1414 C1426 0.959 . S
H1415 C1429 0.929 . S
H1416 C1430 0.931 . S
H1417 C1432 0.930 . S
C1418 H1406 0.930 . S
C1418 C1419 1.399 . S
C1418 C1423 1.399 . S
C1419 C1418 1.399 . S
C1419 C1420 1.376 . S
C1420 H1407 0.930 . S
C1420 C1419 1.376 . S
C1420 C1421 1.388 . S
C1421 H1408 0.930 . S
C1421 C1420 1.388 . S
C1421 C1422 1.390 . S
C1422 C1421 1.390 . S
C1422 C1423 1.394 . S
C1422 C1428 1.465 . S
C1423 C1418 1.399 . S
C1423 C1422 1.394 . S
C1423 C1424 1.516 . S
C1424 C1423 1.516 . S
C1424 C1425 1.502 . S
C1424 C1426 1.561 . S
C1424 C1427 1.526 . S
C1425 H1409 0.959 . S
C1425 H1410 0.959 . S
C1425 H1411 0.961 . S
C1425 C1424 1.502 . S
C1426 H1412 0.960 . S
C1426 H1413 0.961 . S
C1426 H1414 0.959 . S
C1426 C1424 1.561 . S
C1427 C1424 1.526 . S
C1427 C1428 1.396 . S
C1427 C1432 1.390 . S
C1428 C1422 1.465 . S
C1428 C1427 1.396 . S
C1428 C1429 1.399 . S
C1429 H1415 0.929 . S
C1429 C1428 1.399 . S
C1429 C1430 1.385 . S
C1430 H1416 0.931 . S
C1430 C1429 1.385 . S
C1430 C1431 1.389 . S
C1431 C1430 1.389 . S
C1431 C1432 1.387 . S
C1432 H1417 0.930 . S
C1432 C1427 1.390 . S
C1432 C1431 1.387 . S
H1433 C1445 0.930 . S
H1434 C1447 0.930 . S
H1435 C1448 0.930 . S
H1436 C1452 0.959 . S
H1437 C1452 0.959 . S
H1438 C1452 0.961 . S
H1439 C1453 0.960 . S
H1440 C1453 0.961 . S
H1441 C1453 0.959 . S
H1442 C1456 0.929 . S
H1443 C1457 0.931 . S
H1444 C1459 0.930 . S
C1445 H1433 0.930 . S
C1445 C1446 1.399 . S
C1445 C1450 1.399 . S
C1446 C1445 1.399 . S
C1446 C1447 1.376 . S
C1447 H1434 0.930 . S
C1447 C1446 1.376 . S
C1447 C1448 1.388 . S
C1448 H1435 0.930 . S
C1448 C1447 1.388 . S
C1448 C1449 1.390 . S
C1449 C1448 1.390 . S
C1449 C1450 1.394 . S
C1449 C1455 1.465 . S
C1450 C1445 1.399 . S
C1450 C1449 1.394 . S
C1450 C1451 1.516 . S
C1451 C1450 1.516 . S
C1451 C1452 1.502 . S
C1451 C1453 1.561 . S
C1451 C1454 1.526 . S
C1452 H1436 0.959 . S
C1452 H1437 0.959 . S
C1452 H1438 0.961 . S
C1452 C1451 1.502 . S
C1453 H1439 0.960 . S
C1453 H1440 0.961 . S
C1453 H1441 0.959 . S
C1453 C1451 1.561 . S
C1454 C1451 1.526 . S
C1454 C1455 1.396 . S
C1454 C1459 1.390 . S
C1455 C1449 1.465 . S
C1455 C1454 1.396 . S
C1455 C1456 1.399 . S
C1456 H1442 0.929 . S
C1456 C1455 1.399 . S
C1456 C1457 1.385 . S
C1457 H1443 0.931 . S
C1457 C1456 1.385 . S
C1457 C1458 1.389 . S
C1458 C1457 1.389 . S
C1458 C1459 1.387 . S
C1459 H1444 0.930 . S
C1459 C1454 1.390 . S
C1459 C1458 1.387 . S
H1460 C1472 0.930 . S
H1461 C1474 0.930 . S
H1462 C1475 0.930 . S
H1463 C1479 0.959 . S
H1464 C1479 0.959 . S
H1465 C1479 0.961 . S
H1466 C1480 0.960 . S
H1467 C1480 0.961 . S
H1468 C1480 0.959 . S
H1469 C1483 0.929 . S
H1470 C1484 0.931 1_655 S
H1471 C1486 0.930 . S
C1472 H1460 0.930 . S
C1472 C1473 1.399 . S
C1472 C1477 1.399 . S
C1473 C1472 1.399 . S
C1473 C1474 1.376 1_455 S
C1474 H1461 0.930 . S
C1474 C1473 1.376 1_655 S
C1474 C1475 1.388 . S
C1475 H1462 0.930 . S
C1475 C1474 1.388 . S
C1475 C1476 1.390 1_655 S
C1476 C1475 1.390 1_455 S
C1476 C1477 1.394 . S
C1476 C1482 1.465 . S
C1477 C1472 1.399 . S
C1477 C1476 1.394 . S
C1477 C1478 1.516 . S
C1478 C1477 1.516 . S
C1478 C1479 1.502 . S
C1478 C1480 1.561 . S
C1478 C1481 1.526 . S
C1479 H1463 0.959 . S
C1479 H1464 0.959 . S
C1479 H1465 0.961 . S
C1479 C1478 1.502 . S
C1480 H1466 0.960 . S
C1480 H1467 0.961 . S
C1480 H1468 0.959 . S
C1480 C1478 1.561 . S
C1481 C1478 1.526 . S
C1481 C1482 1.396 . S
C1481 C1486 1.390 . S
C1482 C1476 1.465 . S
C1482 C1481 1.396 . S
C1482 C1483 1.399 1_455 S
C1483 H1469 0.929 . S
C1483 C1482 1.399 1_655 S
C1483 C1484 1.385 1_655 S
C1484 H1470 0.931 1_455 S
C1484 C1483 1.385 1_455 S
C1484 C1485 1.389 . S
C1485 C1484 1.389 . S
C1485 C1486 1.387 . S
C1486 H1471 0.930 . S
C1486 C1481 1.390 . S
C1486 C1485 1.387 . S
H1487 C1499 0.930 . S
H1488 C1501 0.930 . S
H1489 C1502 0.930 . S
H1490 C1506 0.959 . S
H1491 C1506 0.959 . S
H1492 C1506 0.961 . S
H1493 C1507 0.960 . S
H1494 C1507 0.961 . S
H1495 C1507 0.959 . S
H1496 C1510 0.929 . S
H1497 C1511 0.931 . S
H1498 C1513 0.930 . S
C1499 H1487 0.930 . S
C1499 C1500 1.399 . S
C1499 C1504 1.399 . S
C1500 C1499 1.399 . S
C1500 C1501 1.376 . S
C1501 H1488 0.930 . S
C1501 C1500 1.376 . S
C1501 C1502 1.388 . S
C1502 H1489 0.930 . S
C1502 C1501 1.388 . S
C1502 C1503 1.390 . S
C1503 C1502 1.390 . S
C1503 C1504 1.394 . S
C1503 C1509 1.465 . S
C1504 C1499 1.399 . S
C1504 C1503 1.394 . S
C1504 C1505 1.516 . S
C1505 C1504 1.516 . S
C1505 C1506 1.502 . S
C1505 C1507 1.561 . S
C1505 C1508 1.526 . S
C1506 H1490 0.959 . S
C1506 H1491 0.959 . S
C1506 H1492 0.961 . S
C1506 C1505 1.502 . S
C1507 H1493 0.960 . S
C1507 H1494 0.961 . S
C1507 H1495 0.959 . S
C1507 C1505 1.561 . S
C1508 C1505 1.526 . S
C1508 C1509 1.396 . S
C1508 C1513 1.390 . S
C1509 C1503 1.465 . S
C1509 C1508 1.396 . S
C1509 C1510 1.399 . S
C1510 H1496 0.929 . S
C1510 C1509 1.399 . S
C1510 C1511 1.385 . S
C1511 H1497 0.931 . S
C1511 C1510 1.385 . S
C1511 C1512 1.389 . S
C1512 C1511 1.389 . S
C1512 C1513 1.387 . S
C1513 H1498 0.930 . S
C1513 C1508 1.390 . S
C1513 C1512 1.387 . S
H1514 C1526 0.930 . S
H1515 C1528 0.930 . S
H1516 C1529 0.930 . S
H1517 C1533 0.959 . S
H1518 C1533 0.959 . S
H1519 C1533 0.961 . S
H1520 C1534 0.960 . S
H1521 C1534 0.961 . S
H1522 C1534 0.959 . S
H1523 C1537 0.929 . S
H1524 C1538 0.931 . S
H1525 C1540 0.930 . S
C1526 H1514 0.930 . S
C1526 C1527 1.399 . S
C1526 C1531 1.399 . S
C1527 C1526 1.399 . S
C1527 C1528 1.376 . S
C1528 H1515 0.930 . S
C1528 C1527 1.376 . S
C1528 C1529 1.388 . S
C1529 H1516 0.930 . S
C1529 C1528 1.388 . S
C1529 C1530 1.390 . S
C1530 C1529 1.390 . S
C1530 C1531 1.394 . S
C1530 C1536 1.465 . S
C1531 C1526 1.399 . S
C1531 C1530 1.394 . S
C1531 C1532 1.516 . S
C1532 C1531 1.516 . S
C1532 C1533 1.502 . S
C1532 C1534 1.561 . S
C1532 C1535 1.526 . S
C1533 H1517 0.959 . S
C1533 H1518 0.959 . S
C1533 H1519 0.961 . S
C1533 C1532 1.502 . S
C1534 H1520 0.960 . S
C1534 H1521 0.961 . S
C1534 H1522 0.959 . S
C1534 C1532 1.561 . S
C1535 C1532 1.526 . S
C1535 C1536 1.396 . S
C1535 C1540 1.390 . S
C1536 C1530 1.465 . S
C1536 C1535 1.396 . S
C1536 C1537 1.399 . S
C1537 H1523 0.929 . S
C1537 C1536 1.399 . S
C1537 C1538 1.385 . S
C1538 H1524 0.931 . S
C1538 C1537 1.385 . S
C1538 C1539 1.389 . S
C1539 C1538 1.389 . S
C1539 C1540 1.387 . S
C1540 H1525 0.930 . S
C1540 C1535 1.390 . S
C1540 C1539 1.387 . S
H1541 C1553 0.930 . S
H1542 C1555 0.930 . S
H1543 C1556 0.930 . S
H1544 C1560 0.959 . S
H1545 C1560 0.959 . S
H1546 C1560 0.961 . S
H1547 C1561 0.960 . S
H1548 C1561 0.961 . S
H1549 C1561 0.959 . S
H1550 C1564 0.929 . S
H1551 C1565 0.931 . S
H1552 C1567 0.930 . S
C1553 H1541 0.930 . S
C1553 C1554 1.399 . S
C1553 C1558 1.399 . S
C1554 C1553 1.399 . S
C1554 C1555 1.376 . S
C1555 H1542 0.930 . S
C1555 C1554 1.376 . S
C1555 C1556 1.388 . S
C1556 H1543 0.930 . S
C1556 C1555 1.388 . S
C1556 C1557 1.390 . S
C1557 C1556 1.390 . S
C1557 C1558 1.394 . S
C1557 C1563 1.465 . S
C1558 C1553 1.399 . S
C1558 C1557 1.394 . S
C1558 C1559 1.516 . S
C1559 C1558 1.516 . S
C1559 C1560 1.502 . S
C1559 C1561 1.561 . S
C1559 C1562 1.526 . S
C1560 H1544 0.959 . S
C1560 H1545 0.959 . S
C1560 H1546 0.961 . S
C1560 C1559 1.502 . S
C1561 H1547 0.960 . S
C1561 H1548 0.961 . S
C1561 H1549 0.959 . S
C1561 C1559 1.561 . S
C1562 C1559 1.526 . S
C1562 C1563 1.396 . S
C1562 C1567 1.390 . S
C1563 C1557 1.465 . S
C1563 C1562 1.396 . S
C1563 C1564 1.399 . S
C1564 H1550 0.929 . S
C1564 C1563 1.399 . S
C1564 C1565 1.385 . S
C1565 H1551 0.931 . S
C1565 C1564 1.385 . S
C1565 C1566 1.389 . S
C1566 C1565 1.389 . S
C1566 C1567 1.387 . S
C1567 H1552 0.930 . S
C1567 C1562 1.390 . S
C1567 C1566 1.387 . S
H1568 C1580 0.930 . S
H1569 C1582 0.930 . S
H1570 C1583 0.930 . S
H1571 C1587 0.959 . S
H1572 C1587 0.959 . S
H1573 C1587 0.961 . S
H1574 C1588 0.960 . S
H1575 C1588 0.961 . S
H1576 C1588 0.959 . S
H1577 C1591 0.929 1_565 S
H1578 C1592 0.931 . S
H1579 C1594 0.930 . S
C1580 H1568 0.930 . S
C1580 C1581 1.399 . S
C1580 C1585 1.399 . S
C1581 C1580 1.399 . S
C1581 C1582 1.376 1_545 S
C1582 H1569 0.930 . S
C1582 C1581 1.376 1_565 S
C1582 C1583 1.388 . S
C1583 H1570 0.930 . S
C1583 C1582 1.388 . S
C1583 C1584 1.390 1_565 S
C1584 C1583 1.390 1_545 S
C1584 C1585 1.394 . S
C1584 C1590 1.465 . S
C1585 C1580 1.399 . S
C1585 C1584 1.394 . S
C1585 C1586 1.516 . S
C1586 C1585 1.516 . S
C1586 C1587 1.502 . S
C1586 C1588 1.561 . S
C1586 C1589 1.526 . S
C1587 H1571 0.959 . S
C1587 H1572 0.959 . S
C1587 H1573 0.961 . S
C1587 C1586 1.502 . S
C1588 H1574 0.960 . S
C1588 H1575 0.961 . S
C1588 H1576 0.959 . S
C1588 C1586 1.561 . S
C1589 C1586 1.526 . S
C1589 C1590 1.396 . S
C1589 C1594 1.390 . S
C1590 C1584 1.465 . S
C1590 C1589 1.396 . S
C1590 C1591 1.399 . S
C1591 H1577 0.929 1_545 S
C1591 C1590 1.399 . S
C1591 C1592 1.385 . S
C1592 H1578 0.931 . S
C1592 C1591 1.385 . S
C1592 C1593 1.389 . S
C1593 C1592 1.389 . S
C1593 C1594 1.387 . S
C1594 H1579 0.930 . S
C1594 C1589 1.390 . S
C1594 C1593 1.387 . S
H1595 C1607 0.930 . S
H1596 C1609 0.930 . S
H1597 C1610 0.930 . S
H1598 C1614 0.959 . S
H1599 C1614 0.959 . S
H1600 C1614 0.961 . S
H1601 C1615 0.960 . S
H1602 C1615 0.961 . S
H1603 C1615 0.959 . S
H1604 C1618 0.929 . S
H1605 C1619 0.931 . S
H1606 C1621 0.930 . S
C1607 H1595 0.930 . S
C1607 C1608 1.399 . S
C1607 C1612 1.399 . S
C1608 C1607 1.399 . S
C1608 C1609 1.376 . S
C1609 H1596 0.930 . S
C1609 C1608 1.376 . S
C1609 C1610 1.388 . S
C1610 H1597 0.930 . S
C1610 C1609 1.388 . S
C1610 C1611 1.390 . S
C1611 C1610 1.390 . S
C1611 C1612 1.394 . S
C1611 C1617 1.465 . S
C1612 C1607 1.399 . S
C1612 C1611 1.394 . S
C1612 C1613 1.516 . S
C1613 C1612 1.516 . S
C1613 C1614 1.502 . S
C1613 C1615 1.561 . S
C1613 C1616 1.526 . S
C1614 H1598 0.959 . S
C1614 H1599 0.959 . S
C1614 H1600 0.961 . S
C1614 C1613 1.502 . S
C1615 H1601 0.960 . S
C1615 H1602 0.961 . S
C1615 H1603 0.959 . S
C1615 C1613 1.561 . S
C1616 C1613 1.526 . S
C1616 C1617 1.396 . S
C1616 C1621 1.390 . S
C1617 C1611 1.465 . S
C1617 C1616 1.396 . S
C1617 C1618 1.399 . S
C1618 H1604 0.929 . S
C1618 C1617 1.399 . S
C1618 C1619 1.385 . S
C1619 H1605 0.931 . S
C1619 C1618 1.385 . S
C1619 C1620 1.389 . S
C1620 C1619 1.389 . S
C1620 C1621 1.387 . S
C1621 H1606 0.930 . S
C1621 C1616 1.390 . S
C1621 C1620 1.387 . S
H1622 C1634 0.930 . S
H1623 C1636 0.930 . S
H1624 C1637 0.930 . S
H1625 C1641 0.959 . S
H1626 C1641 0.959 . S
H1627 C1641 0.961 . S
H1628 C1642 0.960 . S
H1629 C1642 0.961 . S
H1630 C1642 0.959 . S
H1631 C1645 0.929 . S
H1632 C1646 0.931 . S
H1633 C1648 0.930 . S
C1634 H1622 0.930 . S
C1634 C1635 1.399 1_565 S
C1634 C1639 1.399 . S
C1635 C1634 1.399 1_545 S
C1635 C1636 1.376 . S
C1636 H1623 0.930 . S
C1636 C1635 1.376 . S
C1636 C1637 1.388 . S
C1637 H1624 0.930 . S
C1637 C1636 1.388 . S
C1637 C1638 1.390 . S
C1638 C1637 1.390 . S
C1638 C1639 1.394 1_545 S
C1638 C1644 1.461 1_545 S
C1639 C1634 1.399 . S
C1639 C1638 1.394 1_565 S
C1639 C1640 1.516 . S
C1640 C1639 1.516 . S
C1640 C1641 1.502 . S
C1640 C1642 1.561 . S
C1640 C1643 1.526 . S
C1641 H1625 0.959 . S
C1641 H1626 0.959 . S
C1641 H1627 0.961 . S
C1641 C1640 1.502 . S
C1642 H1628 0.960 . S
C1642 H1629 0.961 . S
C1642 H1630 0.959 . S
C1642 C1640 1.561 . S
C1643 C1640 1.526 . S
C1643 C1644 1.417 . S
C1643 C1648 1.390 . S
C1644 C1638 1.461 1_565 S
C1644 C1643 1.417 . S
C1644 C1645 1.386 1_565 S
C1645 H1631 0.929 . S
C1645 C1644 1.386 1_545 S
C1645 C1646 1.385 . S
C1646 H1632 0.931 . S
C1646 C1645 1.385 . S
C1646 C1647 1.389 1_545 S
C1647 C1646 1.389 1_565 S
C1647 C1648 1.387 . S
C1648 H1633 0.930 . S
C1648 C1643 1.390 . S
C1648 C1647 1.387 . S
H1649 C1661 0.930 . S
H1650 C1663 0.930 . S
H1651 C1664 0.930 . S
H1652 C1668 0.959 . S
H1653 C1668 0.959 . S
H1654 C1668 0.961 . S
H1655 C1669 0.960 . S
H1656 C1669 0.961 . S
H1657 C1669 0.959 . S
H1658 C1672 0.929 . S
H1659 C1673 0.931 . S
H1660 C1675 0.930 . S
C1661 H1649 0.930 . S
C1661 C1662 1.399 . S
C1661 C1666 1.399 . S
C1662 C1661 1.399 . S
C1662 C1663 1.376 . S
C1663 H1650 0.930 . S
C1663 C1662 1.376 . S
C1663 C1664 1.388 . S
C1664 H1651 0.930 . S
C1664 C1663 1.388 . S
C1664 C1665 1.390 . S
C1665 C1664 1.390 . S
C1665 C1666 1.394 . S
C1665 C1671 1.465 . S
C1666 C1661 1.399 . S
C1666 C1665 1.394 . S
C1666 C1667 1.516 . S
C1667 C1666 1.516 . S
C1667 C1668 1.502 . S
C1667 C1669 1.561 . S
C1667 C1670 1.526 . S
C1668 H1652 0.959 . S
C1668 H1653 0.959 . S
C1668 H1654 0.961 . S
C1668 C1667 1.502 . S
C1669 H1655 0.960 . S
C1669 H1656 0.961 . S
C1669 H1657 0.959 . S
C1669 C1667 1.561 . S
C1670 C1667 1.526 . S
C1670 C1671 1.396 . S
C1670 C1675 1.390 . S
C1671 C1665 1.465 . S
C1671 C1670 1.396 . S
C1671 C1672 1.399 . S
C1672 H1658 0.929 . S
C1672 C1671 1.399 . S
C1672 C1673 1.385 . S
C1673 H1659 0.931 . S
C1673 C1672 1.385 . S
C1673 C1674 1.389 . S
C1674 C1673 1.389 . S
C1674 C1675 1.387 . S
C1675 H1660 0.930 . S
C1675 C1670 1.390 . S
C1675 C1674 1.387 . S
H1676 C1688 0.930 1_565 S
H1677 C1690 0.930 . S
H1678 C1691 0.930 . S
H1679 C1695 0.959 1_545 S
H1680 C1695 0.959 1_455 S
H1681 C1695 0.961 . S
H1682 C1696 0.960 . S
H1683 C1696 0.961 . S
H1684 C1696 0.959 . S
H1685 C1699 0.929 . S
H1686 C1700 0.931 . S
H1687 C1702 0.930 . S
C1688 H1676 0.930 1_545 S
C1688 C1689 1.399 . S
C1688 C1693 1.400 . S
C1689 C1688 1.399 . S
C1689 C1690 1.376 . S
C1690 H1677 0.930 . S
C1690 C1689 1.376 . S
C1690 C1691 1.388 . S
C1691 H1678 0.930 . S
C1691 C1690 1.388 . S
C1691 C1692 1.390 . S
C1692 C1691 1.390 . S
C1692 C1693 1.406 . S
C1692 C1698 1.465 . S
C1693 C1688 1.400 . S
C1693 C1692 1.406 . S
C1693 C1694 1.504 1_545 S
C1694 C1693 1.504 1_565 S
C1694 C1695 1.502 . S
C1694 C1696 1.561 . S
C1694 C1697 1.526 . S
C1695 H1679 0.959 1_565 S
C1695 H1680 0.959 1_655 S
C1695 H1681 0.961 . S
C1695 C1694 1.502 . S
C1696 H1682 0.960 . S
C1696 H1683 0.961 . S
C1696 H1684 0.959 . S
C1696 C1694 1.561 . S
C1697 C1694 1.526 . S
C1697 C1698 1.396 1_565 S
C1697 C1702 1.390 . S
C1698 C1692 1.465 . S
C1698 C1697 1.396 1_545 S
C1698 C1699 1.399 . S
C1699 H1685 0.929 . S
C1699 C1698 1.399 . S
C1699 C1700 1.385 . S
C1700 H1686 0.931 . S
C1700 C1699 1.385 . S
C1700 C1701 1.389 1_545 S
C1701 C1700 1.389 1_565 S
C1701 C1702 1.387 . S
C1702 H1687 0.930 . S
C1702 C1697 1.390 . S
C1702 C1701 1.387 . S
H1703 C1715 0.930 . S
H1704 C1717 0.930 . S
H1705 C1718 0.930 . S
H1706 C1722 0.959 . S
H1707 C1722 0.959 . S
H1708 C1722 0.961 . S
H1709 C1723 0.960 . S
H1710 C1723 0.961 . S
H1711 C1723 0.959 . S
H1712 C1726 0.929 . S
H1713 C1727 0.931 . S
H1714 C1729 0.930 . S
C1715 H1703 0.930 . S
C1715 C1716 1.399 . S
C1715 C1720 1.399 . S
C1716 C1715 1.399 . S
C1716 C1717 1.376 . S
C1717 H1704 0.930 . S
C1717 C1716 1.376 . S
C1717 C1718 1.388 . S
C1718 H1705 0.930 . S
C1718 C1717 1.388 . S
C1718 C1719 1.390 . S
C1719 C1718 1.390 . S
C1719 C1720 1.394 . S
C1719 C1725 1.465 . S
C1720 C1715 1.399 . S
C1720 C1719 1.394 . S
C1720 C1721 1.516 . S
C1721 C1720 1.516 . S
C1721 C1722 1.502 . S
C1721 C1723 1.561 . S
C1721 C1724 1.526 . S
C1722 H1706 0.959 . S
C1722 H1707 0.959 . S
C1722 H1708 0.961 . S
C1722 C1721 1.502 . S
C1723 H1709 0.960 . S
C1723 H1710 0.961 . S
C1723 H1711 0.959 . S
C1723 C1721 1.561 . S
C1724 C1721 1.526 . S
C1724 C1725 1.396 . S
C1724 C1729 1.390 . S
C1725 C1719 1.465 . S
C1725 C1724 1.396 . S
C1725 C1726 1.399 . S
C1726 H1712 0.929 . S
C1726 C1725 1.399 . S
C1726 C1727 1.385 . S
C1727 H1713 0.931 . S
C1727 C1726 1.385 . S
C1727 C1728 1.389 . S
C1728 C1727 1.389 . S
C1728 C1729 1.387 . S
C1729 H1714 0.930 . S
C1729 C1724 1.390 . S
C1729 C1728 1.387 . S
H1730 C1742 0.930 . S
H1731 C1744 0.930 . S
H1732 C1745 0.930 . S
H1733 C1749 0.959 . S
H1734 C1749 0.959 . S
H1735 C1749 0.961 . S
H1736 C1750 0.960 . S
H1737 C1750 0.961 . S
H1738 C1750 0.959 . S
H1739 C1753 0.929 . S
H1740 C1754 0.931 . S
H1741 C1756 0.930 1_565 S
C1742 H1730 0.930 . S
C1742 C1743 1.399 1_565 S
C1742 C1747 1.399 . S
C1743 C1742 1.399 1_545 S
C1743 C1744 1.376 . S
C1744 H1731 0.930 . S
C1744 C1743 1.376 . S
C1744 C1745 1.388 . S
C1745 H1732 0.930 . S
C1745 C1744 1.388 . S
C1745 C1746 1.390 . S
C1746 C1745 1.390 . S
C1746 C1747 1.394 1_545 S
C1746 C1752 1.465 . S
C1747 C1742 1.399 . S
C1747 C1746 1.394 1_565 S
C1747 C1748 1.516 . S
C1748 C1747 1.516 . S
C1748 C1749 1.502 . S
C1748 C1750 1.561 . S
C1748 C1751 1.526 1_565 S
C1749 H1733 0.959 . S
C1749 H1734 0.959 . S
C1749 H1735 0.961 . S
C1749 C1748 1.502 . S
C1750 H1736 0.960 . S
C1750 H1737 0.961 . S
C1750 H1738 0.959 . S
C1750 C1748 1.561 . S
C1751 C1748 1.526 1_545 S
C1751 C1752 1.396 . S
C1751 C1756 1.390 . S
C1752 C1746 1.465 . S
C1752 C1751 1.396 . S
C1752 C1753 1.399 . S
C1753 H1739 0.929 . S
C1753 C1752 1.399 . S
C1753 C1754 1.385 . S
C1754 H1740 0.931 . S
C1754 C1753 1.385 . S
C1754 C1755 1.389 . S
C1755 C1754 1.389 . S
C1755 C1756 1.387 . S
C1756 H1741 0.930 1_545 S
C1756 C1751 1.390 . S
C1756 C1755 1.387 . S
H1757 C1769 0.930 . S
H1758 C1771 0.930 . S
H1759 C1772 0.930 . S
H1760 C1776 0.959 . S
H1761 C1776 0.959 . S
H1762 C1776 0.961 . S
H1763 C1777 0.960 . S
H1764 C1777 0.961 . S
H1765 C1777 0.959 . S
H1766 C1780 0.929 . S
H1767 C1781 0.931 . S
H1768 C1783 0.930 . S
C1769 H1757 0.930 . S
C1769 C1770 1.399 . S
C1769 C1774 1.399 . S
C1770 C1769 1.399 . S
C1770 C1771 1.376 . S
C1771 H1758 0.930 . S
C1771 C1770 1.376 . S
C1771 C1772 1.388 . S
C1772 H1759 0.930 . S
C1772 C1771 1.388 . S
C1772 C1773 1.390 . S
C1773 C1772 1.390 . S
C1773 C1774 1.394 . S
C1773 C1779 1.465 . S
C1774 C1769 1.399 . S
C1774 C1773 1.394 . S
C1774 C1775 1.516 . S
C1775 C1774 1.516 . S
C1775 C1776 1.502 . S
C1775 C1777 1.561 . S
C1775 C1778 1.526 . S
C1776 H1760 0.959 . S
C1776 H1761 0.959 . S
C1776 H1762 0.961 . S
C1776 C1775 1.502 . S
C1777 H1763 0.960 . S
C1777 H1764 0.961 . S
C1777 H1765 0.959 . S
C1777 C1775 1.561 . S
C1778 C1775 1.526 . S
C1778 C1779 1.396 . S
C1778 C1783 1.390 . S
C1779 C1773 1.465 . S
C1779 C1778 1.396 . S
C1779 C1780 1.399 . S
C1780 H1766 0.929 . S
C1780 C1779 1.399 . S
C1780 C1781 1.385 . S
C1781 H1767 0.931 . S
C1781 C1780 1.385 . S
C1781 C1782 1.389 . S
C1782 C1781 1.389 . S
C1782 C1783 1.387 . S
C1783 H1768 0.930 . S
C1783 C1778 1.390 . S
C1783 C1782 1.387 . S
H1784 C1796 0.930 . S
H1785 C1798 0.930 . S
H1786 C1799 0.930 . S
H1787 C1803 0.959 . S
H1788 C1803 0.959 . S
H1789 C1803 0.961 . S
H1790 C1804 0.960 . S
H1791 C1804 0.961 . S
H1792 C1804 0.959 . S
H1793 C1807 0.929 . S
H1794 C1808 0.931 . S
H1795 C1810 0.930 1_556 S
C1796 H1784 0.930 . S
C1796 C1797 1.399 1_556 S
C1796 C1801 1.399 1_556 S
C1797 C1796 1.399 1_554 S
C1797 C1798 1.376 . S
C1798 H1785 0.930 . S
C1798 C1797 1.376 . S
C1798 C1799 1.388 . S
C1799 H1786 0.930 . S
C1799 C1798 1.388 . S
C1799 C1800 1.390 . S
C1800 C1799 1.390 . S
C1800 C1801 1.394 . S
C1800 C1806 1.465 . S
C1801 C1796 1.399 1_554 S
C1801 C1800 1.394 . S
C1801 C1802 1.516 1_554 S
C1802 C1801 1.516 1_556 S
C1802 C1803 1.502 . S
C1802 C1804 1.561 . S
C1802 C1805 1.526 1_556 S
C1803 H1787 0.959 . S
C1803 H1788 0.959 . S
C1803 H1789 0.961 . S
C1803 C1802 1.502 . S
C1804 H1790 0.960 . S
C1804 H1791 0.961 . S
C1804 H1792 0.959 . S
C1804 C1802 1.561 . S
C1805 C1802 1.526 1_554 S
C1805 C1806 1.396 . S
C1805 C1810 1.390 . S
C1806 C1800 1.465 . S
C1806 C1805 1.396 . S
C1806 C1807 1.399 . S
C1807 H1793 0.929 . S
C1807 C1806 1.399 . S
C1807 C1808 1.385 . S
C1808 H1794 0.931 . S
C1808 C1807 1.385 . S
C1808 C1809 1.389 . S
C1809 C1808 1.389 . S
C1809 C1810 1.387 . S
C1810 H1795 0.930 1_554 S
C1810 C1805 1.390 . S
C1810 C1809 1.387 . S
H1811 C1823 0.930 . S
H1812 C1825 0.930 . S
H1813 C1826 0.930 . S
H1814 C1830 0.959 1_556 S
H1815 C1830 0.959 . S
H1816 C1830 0.961 . S
H1817 C1831 0.960 . S
H1818 C1831 0.961 . S
H1819 C1831 0.959 . S
H1820 C1834 0.929 . S
H1821 C1835 0.931 . S
H1822 C1837 0.927 1_554 S
C1823 H1811 0.930 . S
C1823 C1824 1.399 . S
C1823 C1828 1.399 . S
C1824 C1823 1.399 . S
C1824 C1825 1.376 1_554 S
C1825 H1812 0.930 . S
C1825 C1824 1.376 1_556 S
C1825 C1826 1.388 . S
C1826 H1813 0.930 . S
C1826 C1825 1.388 . S
C1826 C1827 1.390 . S
C1827 C1826 1.390 . S
C1827 C1828 1.394 1_556 S
C1827 C1833 1.465 . S
C1828 C1823 1.399 . S
C1828 C1827 1.394 1_554 S
C1828 C1829 1.516 . S
C1829 C1828 1.516 . S
C1829 C1830 1.502 . S
C1829 C1831 1.561 . S
C1829 C1832 1.548 . S
C1830 H1814 0.959 1_554 S
C1830 H1815 0.959 . S
C1830 H1816 0.961 . S
C1830 C1829 1.502 . S
C1831 H1817 0.960 . S
C1831 H1818 0.961 . S
C1831 H1819 0.959 . S
C1831 C1829 1.561 . S
C1832 C1829 1.548 . S
C1832 C1833 1.375 1_554 S
C1832 C1837 1.389 1_554 S
C1833 C1827 1.465 . S
C1833 C1832 1.375 1_556 S
C1833 C1834 1.399 . S
C1834 H1820 0.929 . S
C1834 C1833 1.399 . S
C1834 C1835 1.385 . S
C1835 H1821 0.931 . S
C1835 C1834 1.385 . S
C1835 C1836 1.389 . S
C1836 C1835 1.389 . S
C1836 C1837 1.389 . S
C1837 H1822 0.927 1_556 S
C1837 C1832 1.389 1_556 S
C1837 C1836 1.389 . S
H1838 C1850 0.930 . S
H1839 C1852 0.930 . S
H1840 C1853 0.930 . S
H1841 C1857 0.959 . S
H1842 C1857 0.959 . S
H1843 C1857 0.961 . S
H1844 C1858 0.960 . S
H1845 C1858 0.961 . S
H1846 C1858 0.959 . S
H1847 C1861 0.929 . S
H1848 C1862 0.931 . S
H1849 C1864 0.930 . S
C1850 H1838 0.930 . S
C1850 C1851 1.399 . S
C1850 C1855 1.399 . S
C1851 C1850 1.399 . S
C1851 C1852 1.376 . S
C1852 H1839 0.930 . S
C1852 C1851 1.376 . S
C1852 C1853 1.388 . S
C1853 H1840 0.930 . S
C1853 C1852 1.388 . S
C1853 C1854 1.390 . S
C1854 C1853 1.390 . S
C1854 C1855 1.394 . S
C1854 C1860 1.465 . S
C1855 C1850 1.399 . S
C1855 C1854 1.394 . S
C1855 C1856 1.516 . S
C1856 C1855 1.516 . S
C1856 C1857 1.502 . S
C1856 C1858 1.561 . S
C1856 C1859 1.526 . S
C1857 H1841 0.959 . S
C1857 H1842 0.959 . S
C1857 H1843 0.961 . S
C1857 C1856 1.502 . S
C1858 H1844 0.960 . S
C1858 H1845 0.961 . S
C1858 H1846 0.959 . S
C1858 C1856 1.561 . S
C1859 C1856 1.526 . S
C1859 C1860 1.396 . S
C1859 C1864 1.390 . S
C1860 C1854 1.465 . S
C1860 C1859 1.396 . S
C1860 C1861 1.399 . S
C1861 H1847 0.929 . S
C1861 C1860 1.399 . S
C1861 C1862 1.385 . S
C1862 H1848 0.931 . S
C1862 C1861 1.385 . S
C1862 C1863 1.389 . S
C1863 C1862 1.389 . S
C1863 C1864 1.387 . S
C1864 H1849 0.930 . S
C1864 C1859 1.390 . S
C1864 C1863 1.387 . S
H1865 C1877 0.930 . S
H1866 C1879 0.930 . S
H1867 C1880 0.930 . S
H1868 C1884 0.959 . S
H1869 C1884 0.959 . S
H1870 C1884 0.961 . S
H1871 C1885 0.960 . S
H1872 C1885 0.961 . S
H1873 C1885 0.959 . S
H1874 C1888 0.929 . S
H1875 C1889 0.931 . S
H1876 C1891 0.930 . S
C1877 H1865 0.930 . S
C1877 C1878 1.399 . S
C1877 C1882 1.399 . S
C1878 C1877 1.399 . S
C1878 C1879 1.376 . S
C1879 H1866 0.930 . S
C1879 C1878 1.376 . S
C1879 C1880 1.388 . S
C1880 H1867 0.930 . S
C1880 C1879 1.388 . S
C1880 C1881 1.390 . S
C1881 C1880 1.390 . S
C1881 C1882 1.394 . S
C1881 C1887 1.465 . S
C1882 C1877 1.399 . S
C1882 C1881 1.394 . S
C1882 C1883 1.516 . S
C1883 C1882 1.516 . S
C1883 C1884 1.502 . S
C1883 C1885 1.561 . S
C1883 C1886 1.526 . S
C1884 H1868 0.959 . S
C1884 H1869 0.959 . S
C1884 H1870 0.961 . S
C1884 C1883 1.502 . S
C1885 H1871 0.960 . S
C1885 H1872 0.961 . S
C1885 H1873 0.959 . S
C1885 C1883 1.561 . S
C1886 C1883 1.526 . S
C1886 C1887 1.396 . S
C1886 C1891 1.390 . S
C1887 C1881 1.465 . S
C1887 C1886 1.396 . S
C1887 C1888 1.399 . S
C1888 H1874 0.929 . S
C1888 C1887 1.399 . S
C1888 C1889 1.385 . S
C1889 H1875 0.931 . S
C1889 C1888 1.385 . S
C1889 C1890 1.389 . S
C1890 C1889 1.389 . S
C1890 C1891 1.387 . S
C1891 H1876 0.930 . S
C1891 C1886 1.390 . S
C1891 C1890 1.387 . S
H1892 C1904 0.930 . S
H1893 C1906 0.930 . S
H1894 C1907 0.930 . S
H1895 C1911 0.959 . S
H1896 C1911 0.959 . S
H1897 C1911 0.961 . S
H1898 C1912 0.960 . S
H1899 C1912 0.961 . S
H1900 C1912 0.959 . S
H1901 C1915 0.929 . S
H1902 C1916 0.931 . S
H1903 C1918 0.930 . S
C1904 H1892 0.930 . S
C1904 C1905 1.399 . S
C1904 C1909 1.399 . S
C1905 C1904 1.399 . S
C1905 C1906 1.376 . S
C1906 H1893 0.930 . S
C1906 C1905 1.376 . S
C1906 C1907 1.388 . S
C1907 H1894 0.930 . S
C1907 C1906 1.388 . S
C1907 C1908 1.390 . S
C1908 C1907 1.390 . S
C1908 C1909 1.394 . S
C1908 C1914 1.465 . S
C1909 C1904 1.399 . S
C1909 C1908 1.394 . S
C1909 C1910 1.516 . S
C1910 C1909 1.516 . S
C1910 C1911 1.502 . S
C1910 C1912 1.561 . S
C1910 C1913 1.526 . S
C1911 H1895 0.959 . S
C1911 H1896 0.959 . S
C1911 H1897 0.961 . S
C1911 C1910 1.502 . S
C1912 H1898 0.960 . S
C1912 H1899 0.961 . S
C1912 H1900 0.959 . S
C1912 C1910 1.561 . S
C1913 C1910 1.526 . S
C1913 C1914 1.396 . S
C1913 C1918 1.390 . S
C1914 C1908 1.465 . S
C1914 C1913 1.396 . S
C1914 C1915 1.399 . S
C1915 H1901 0.929 . S
C1915 C1914 1.399 . S
C1915 C1916 1.385 . S
C1916 H1902 0.931 . S
C1916 C1915 1.385 . S
C1916 C1917 1.389 . S
C1917 C1916 1.389 . S
C1917 C1918 1.387 . S
C1918 H1903 0.930 . S
C1918 C1913 1.390 . S
C1918 C1917 1.387 . S
H1919 C1931 0.930 . S
H1920 C1933 0.930 . S
H1921 C1934 0.930 . S
H1922 C1938 0.959 . S
H1923 C1938 0.959 . S
H1924 C1938 0.961 . S
H1925 C1939 0.960 . S
H1926 C1939 0.961 . S
H1927 C1939 0.959 . S
H1928 C1942 0.929 . S
H1929 C1943 0.931 . S
H1930 C1945 0.930 . S
C1931 H1919 0.930 . S
C1931 C1932 1.399 . S
C1931 C1936 1.399 . S
C1932 C1931 1.399 . S
C1932 C1933 1.376 . S
C1933 H1920 0.930 . S
C1933 C1932 1.376 . S
C1933 C1934 1.388 . S
C1934 H1921 0.930 . S
C1934 C1933 1.388 . S
C1934 C1935 1.390 . S
C1935 C1934 1.390 . S
C1935 C1936 1.394 . S
C1935 C1941 1.465 . S
C1936 C1931 1.399 . S
C1936 C1935 1.394 . S
C1936 C1937 1.516 . S
C1937 C1936 1.516 . S
C1937 C1938 1.502 . S
C1937 C1939 1.561 . S
C1937 C1940 1.526 . S
C1938 H1922 0.959 . S
C1938 H1923 0.959 . S
C1938 H1924 0.961 . S
C1938 C1937 1.502 . S
C1939 H1925 0.960 . S
C1939 H1926 0.961 . S
C1939 H1927 0.959 . S
C1939 C1937 1.561 . S
C1940 C1937 1.526 . S
C1940 C1941 1.396 . S
C1940 C1945 1.390 . S
C1941 C1935 1.465 . S
C1941 C1940 1.396 . S
C1941 C1942 1.399 . S
C1942 H1928 0.929 . S
C1942 C1941 1.399 . S
C1942 C1943 1.385 . S
C1943 H1929 0.931 . S
C1943 C1942 1.385 . S
C1943 C1944 1.389 . S
C1944 C1943 1.389 . S
C1944 C1945 1.387 . S
C1945 H1930 0.930 . S
C1945 C1940 1.390 . S
C1945 C1944 1.387 . S
H1946 C1958 0.930 . S
H1947 C1960 0.930 . S
H1948 C1961 0.930 . S
H1949 C1965 0.959 . S
H1950 C1965 0.959 . S
H1951 C1965 0.961 . S
H1952 C1966 0.960 . S
H1953 C1966 0.961 . S
H1954 C1966 0.959 . S
H1955 C1969 0.929 . S
H1956 C1970 0.931 . S
H1957 C1972 0.930 . S
C1958 H1946 0.930 . S
C1958 C1959 1.399 . S
C1958 C1963 1.399 . S
C1959 C1958 1.399 . S
C1959 C1960 1.376 . S
C1960 H1947 0.930 . S
C1960 C1959 1.376 . S
C1960 C1961 1.388 . S
C1961 H1948 0.930 . S
C1961 C1960 1.388 . S
C1961 C1962 1.390 . S
C1962 C1961 1.390 . S
C1962 C1963 1.394 . S
C1962 C1968 1.465 . S
C1963 C1958 1.399 . S
C1963 C1962 1.394 . S
C1963 C1964 1.516 . S
C1964 C1963 1.516 . S
C1964 C1965 1.502 . S
C1964 C1966 1.561 . S
C1964 C1967 1.526 . S
C1965 H1949 0.959 . S
C1965 H1950 0.959 . S
C1965 H1951 0.961 . S
C1965 C1964 1.502 . S
C1966 H1952 0.960 . S
C1966 H1953 0.961 . S
C1966 H1954 0.959 . S
C1966 C1964 1.561 . S
C1967 C1964 1.526 . S
C1967 C1968 1.396 . S
C1967 C1972 1.390 . S
C1968 C1962 1.465 . S
C1968 C1967 1.396 . S
C1968 C1969 1.399 . S
C1969 H1955 0.929 . S
C1969 C1968 1.399 . S
C1969 C1970 1.385 . S
C1970 H1956 0.931 . S
C1970 C1969 1.385 . S
C1970 C1971 1.389 . S
C1971 C1970 1.389 . S
C1971 C1972 1.387 . S
C1972 H1957 0.930 . S
C1972 C1967 1.390 . S
C1972 C1971 1.387 . S
H1973 C1985 0.930 . S
H1974 C1987 0.930 . S
H1975 C1988 0.930 . S
H1976 C1992 0.959 . S
H1977 C1992 0.959 . S
H1978 C1992 0.961 . S
H1979 C1993 0.960 . S
H1980 C1993 0.961 . S
H1981 C1993 0.959 . S
H1982 C1996 0.929 . S
H1983 C1997 0.931 . S
H1984 C1999 0.930 . S
C1985 H1973 0.930 . S
C1985 C1986 1.399 . S
C1985 C1990 1.399 . S
C1986 C1985 1.399 . S
C1986 C1987 1.376 . S
C1987 H1974 0.930 . S
C1987 C1986 1.376 . S
C1987 C1988 1.388 . S
C1988 H1975 0.930 . S
C1988 C1987 1.388 . S
C1988 C1989 1.390 . S
C1989 C1988 1.390 . S
C1989 C1990 1.394 . S
C1989 C1995 1.465 . S
C1990 C1985 1.399 . S
C1990 C1989 1.394 . S
C1990 C1991 1.516 . S
C1991 C1990 1.516 . S
C1991 C1992 1.502 . S
C1991 C1993 1.561 . S
C1991 C1994 1.526 . S
C1992 H1976 0.959 . S
C1992 H1977 0.959 . S
C1992 H1978 0.961 . S
C1992 C1991 1.502 . S
C1993 H1979 0.960 . S
C1993 H1980 0.961 . S
C1993 H1981 0.959 . S
C1993 C1991 1.561 . S
C1994 C1991 1.526 . S
C1994 C1995 1.396 . S
C1994 C1999 1.390 . S
C1995 C1989 1.465 . S
C1995 C1994 1.396 . S
C1995 C1996 1.399 . S
C1996 H1982 0.929 . S
C1996 C1995 1.399 . S
C1996 C1997 1.385 . S
C1997 H1983 0.931 . S
C1997 C1996 1.385 . S
C1997 C1998 1.389 . S
C1998 C1997 1.389 . S
C1998 C1999 1.387 . S
C1999 H1984 0.930 . S
C1999 C1994 1.390 . S
C1999 C1998 1.387 . S
H2000 C2012 0.930 . S
H2001 C2014 0.930 . S
H2002 C2015 0.930 . S
H2003 C2019 0.959 . S
H2004 C2019 0.959 . S
H2005 C2019 0.961 . S
H2006 C2020 0.960 . S
H2007 C2020 0.961 . S
H2008 C2020 0.959 . S
H2009 C2023 0.929 . S
H2010 C2024 0.931 . S
H2011 C2026 0.930 . S
C2012 H2000 0.930 . S
C2012 C2013 1.399 . S
C2012 C2017 1.399 . S
C2013 C2012 1.399 . S
C2013 C2014 1.376 . S
C2014 H2001 0.930 . S
C2014 C2013 1.376 . S
C2014 C2015 1.388 . S
C2015 H2002 0.930 . S
C2015 C2014 1.388 . S
C2015 C2016 1.390 . S
C2016 C2015 1.390 . S
C2016 C2017 1.394 . S
C2016 C2022 1.465 . S
C2017 C2012 1.399 . S
C2017 C2016 1.394 . S
C2017 C2018 1.516 . S
C2018 C2017 1.516 . S
C2018 C2019 1.502 . S
C2018 C2020 1.561 . S
C2018 C2021 1.526 . S
C2019 H2003 0.959 . S
C2019 H2004 0.959 . S
C2019 H2005 0.961 . S
C2019 C2018 1.502 . S
C2020 H2006 0.960 . S
C2020 H2007 0.961 . S
C2020 H2008 0.959 . S
C2020 C2018 1.561 . S
C2021 C2018 1.526 . S
C2021 C2022 1.396 . S
C2021 C2026 1.390 . S
C2022 C2016 1.465 . S
C2022 C2021 1.396 . S
C2022 C2023 1.399 . S
C2023 H2009 0.929 . S
C2023 C2022 1.399 . S
C2023 C2024 1.385 . S
C2024 H2010 0.931 . S
C2024 C2023 1.385 . S
C2024 C2025 1.389 . S
C2025 C2024 1.389 . S
C2025 C2026 1.387 . S
C2026 H2011 0.930 . S
C2026 C2021 1.390 . S
C2026 C2025 1.387 . S
H2027 C2039 0.930 . S
H2028 C2041 0.930 . S
H2029 C2042 0.930 . S
H2030 C2046 0.959 . S
H2031 C2046 0.959 . S
H2032 C2046 0.961 . S
H2033 C2047 0.960 . S
H2034 C2047 0.961 . S
H2035 C2047 0.959 . S
H2036 C2050 0.929 . S
H2037 C2051 0.931 . S
H2038 C2053 0.930 . S
C2039 H2027 0.930 . S
C2039 C2040 1.399 . S
C2039 C2044 1.399 . S
C2040 C2039 1.399 . S
C2040 C2041 1.376 . S
C2041 H2028 0.930 . S
C2041 C2040 1.376 . S
C2041 C2042 1.388 . S
C2042 H2029 0.930 . S
C2042 C2041 1.388 . S
C2042 C2043 1.390 . S
C2043 C2042 1.390 . S
C2043 C2044 1.394 . S
C2043 C2049 1.465 . S
C2044 C2039 1.399 . S
C2044 C2043 1.394 . S
C2044 C2045 1.516 . S
C2045 C2044 1.516 . S
C2045 C2046 1.502 . S
C2045 C2047 1.561 . S
C2045 C2048 1.526 . S
C2046 H2030 0.959 . S
C2046 H2031 0.959 . S
C2046 H2032 0.961 . S
C2046 C2045 1.502 . S
C2047 H2033 0.960 . S
C2047 H2034 0.961 . S
C2047 H2035 0.959 . S
C2047 C2045 1.561 . S
C2048 C2045 1.526 . S
C2048 C2049 1.396 . S
C2048 C2053 1.390 . S
C2049 C2043 1.465 . S
C2049 C2048 1.396 . S
C2049 C2050 1.399 . S
C2050 H2036 0.929 . S
C2050 C2049 1.399 . S
C2050 C2051 1.385 . S
C2051 H2037 0.931 . S
C2051 C2050 1.385 . S
C2051 C2052 1.389 . S
C2052 C2051 1.389 . S
C2052 C2053 1.387 . S
C2053 H2038 0.930 . S
C2053 C2048 1.390 . S
C2053 C2052 1.387 . S
H2054 C2066 0.930 1_655 S
H2055 C2068 0.930 . S
H2056 C2069 0.930 . S
H2057 C2073 0.959 . S
H2058 C2073 0.959 . S
H2059 C2073 0.961 . S
H2060 C2074 0.960 . S
H2061 C2074 0.961 . S
H2062 C2074 0.959 . S
H2063 C2077 0.929 . S
H2064 C2078 0.931 . S
H2065 C2080 0.930 . S
C2066 H2054 0.930 1_455 S
C2066 C2067 1.399 . S
C2066 C2071 1.399 . S
C2067 C2066 1.399 . S
C2067 C2068 1.376 . S
C2068 H2055 0.930 . S
C2068 C2067 1.376 . S
C2068 C2069 1.388 . S
C2069 H2056 0.930 . S
C2069 C2068 1.388 . S
C2069 C2070 1.390 . S
C2070 C2069 1.390 . S
C2070 C2071 1.394 . S
C2070 C2076 1.465 . S
C2071 C2066 1.399 . S
C2071 C2070 1.394 . S
C2071 C2072 1.516 . S
C2072 C2071 1.516 . S
C2072 C2073 1.502 . S
C2072 C2074 1.561 1_455 S
C2072 C2075 1.526 . S
C2073 H2057 0.959 . S
C2073 H2058 0.959 . S
C2073 H2059 0.961 . S
C2073 C2072 1.502 . S
C2074 H2060 0.960 . S
C2074 H2061 0.961 . S
C2074 H2062 0.959 . S
C2074 C2072 1.561 1_655 S
C2075 C2072 1.526 . S
C2075 C2076 1.396 . S
C2075 C2080 1.390 . S
C2076 C2070 1.465 . S
C2076 C2075 1.396 . S
C2076 C2077 1.399 . S
C2077 H2063 0.929 . S
C2077 C2076 1.399 . S
C2077 C2078 1.385 . S
C2078 H2064 0.931 . S
C2078 C2077 1.385 . S
C2078 C2079 1.389 . S
C2079 C2078 1.389 . S
C2079 C2080 1.387 . S
C2080 H2065 0.930 . S
C2080 C2075 1.390 . S
C2080 C2079 1.387 . S
H2081 C2093 0.930 . S
H2082 C2095 0.930 . S
H2083 C2096 0.930 . S
H2084 C2100 0.959 . S
H2085 C2100 0.959 . S
H2086 C2100 0.961 . S
H2087 C2101 0.960 . S
H2088 C2101 0.961 . S
H2089 C2101 0.959 . S
H2090 C2104 0.929 . S
H2091 C2105 0.931 . S
H2092 C2107 0.930 . S
C2093 H2081 0.930 . S
C2093 C2094 1.399 . S
C2093 C2098 1.399 . S
C2094 C2093 1.399 . S
C2094 C2095 1.376 . S
C2095 H2082 0.930 . S
C2095 C2094 1.376 . S
C2095 C2096 1.388 . S
C2096 H2083 0.930 . S
C2096 C2095 1.388 . S
C2096 C2097 1.390 . S
C2097 C2096 1.390 . S
C2097 C2098 1.394 . S
C2097 C2103 1.465 . S
C2098 C2093 1.399 . S
C2098 C2097 1.394 . S
C2098 C2099 1.516 . S
C2099 C2098 1.516 . S
C2099 C2100 1.502 . S
C2099 C2101 1.561 . S
C2099 C2102 1.526 . S
C2100 H2084 0.959 . S
C2100 H2085 0.959 . S
C2100 H2086 0.961 . S
C2100 C2099 1.502 . S
C2101 H2087 0.960 . S
C2101 H2088 0.961 . S
C2101 H2089 0.959 . S
C2101 C2099 1.561 . S
C2102 C2099 1.526 . S
C2102 C2103 1.396 . S
C2102 C2107 1.390 . S
C2103 C2097 1.465 . S
C2103 C2102 1.396 . S
C2103 C2104 1.399 . S
C2104 H2090 0.929 . S
C2104 C2103 1.399 . S
C2104 C2105 1.385 . S
C2105 H2091 0.931 . S
C2105 C2104 1.385 . S
C2105 C2106 1.389 . S
C2106 C2105 1.389 . S
C2106 C2107 1.387 . S
C2107 H2092 0.930 . S
C2107 C2102 1.390 . S
C2107 C2106 1.387 . S
H2108 C2120 0.930 . S
H2109 C2122 0.930 . S
H2110 C2123 0.930 . S
H2111 C2127 0.978 . S
H2112 C2127 0.915 1_554 S
H2113 C2127 0.964 . S
H2114 C2128 0.960 . S
H2115 C2128 0.961 1_554 S
H2116 C2128 0.959 . S
H2117 C2131 0.929 . S
H2118 C2132 0.931 . S
H2119 C2134 0.914 1_554 S
C2120 H2108 0.930 . S
C2120 C2121 1.399 . S
C2120 C2125 1.399 . S
C2121 C2120 1.399 . S
C2121 C2122 1.376 . S
C2122 H2109 0.930 . S
C2122 C2121 1.376 . S
C2122 C2123 1.388 . S
C2123 H2110 0.930 . S
C2123 C2122 1.388 . S
C2123 C2124 1.390 . S
C2124 C2123 1.390 . S
C2124 C2125 1.394 . S
C2124 C2130 1.465 . S
C2125 C2120 1.399 . S
C2125 C2124 1.394 . S
C2125 C2126 1.516 . S
C2126 C2125 1.516 . S
C2126 C2127 1.529 . S
C2126 C2128 1.561 . S
C2126 C2129 1.526 . S
C2127 H2111 0.978 . S
C2127 H2112 0.915 1_556 S
C2127 H2113 0.964 . S
C2127 C2126 1.529 . S
C2128 H2114 0.960 . S
C2128 H2115 0.961 1_556 S
C2128 H2116 0.959 . S
C2128 C2126 1.561 . S
C2129 C2126 1.526 . S
C2129 C2130 1.396 . S
C2129 C2134 1.401 . S
C2130 C2124 1.465 . S
C2130 C2129 1.396 . S
C2130 C2131 1.399 . S
C2131 H2117 0.929 . S
C2131 C2130 1.399 . S
C2131 C2132 1.385 . S
C2132 H2118 0.931 . S
C2132 C2131 1.385 . S
C2132 C2133 1.389 . S
C2133 C2132 1.389 . S
C2133 C2134 1.391 . S
C2134 H2119 0.914 1_556 S
C2134 C2129 1.401 . S
C2134 C2133 1.391 . S
H2135 C2147 0.930 . S
H2136 C2149 0.930 . S
H2137 C2150 0.930 . S
H2138 C2154 0.959 . S
H2139 C2154 0.959 . S
H2140 C2154 0.961 . S
H2141 C2155 0.960 . S
H2142 C2155 0.961 . S
H2143 C2155 0.959 . S
H2144 C2158 0.929 . S
H2145 C2159 0.931 . S
H2146 C2161 0.930 . S
C2147 H2135 0.930 . S
C2147 C2148 1.399 . S
C2147 C2152 1.399 . S
C2148 C2147 1.399 . S
C2148 C2149 1.376 . S
C2149 H2136 0.930 . S
C2149 C2148 1.376 . S
C2149 C2150 1.388 . S
C2150 H2137 0.930 . S
C2150 C2149 1.388 . S
C2150 C2151 1.390 . S
C2151 C2150 1.390 . S
C2151 C2152 1.394 . S
C2151 C2157 1.465 . S
C2152 C2147 1.399 . S
C2152 C2151 1.394 . S
C2152 C2153 1.516 . S
C2153 C2152 1.516 . S
C2153 C2154 1.502 . S
C2153 C2155 1.561 . S
C2153 C2156 1.526 . S
C2154 H2138 0.959 . S
C2154 H2139 0.959 . S
C2154 H2140 0.961 . S
C2154 C2153 1.502 . S
C2155 H2141 0.960 . S
C2155 H2142 0.961 . S
C2155 H2143 0.959 . S
C2155 C2153 1.561 . S
C2156 C2153 1.526 . S
C2156 C2157 1.396 . S
C2156 C2161 1.390 . S
C2157 C2151 1.465 . S
C2157 C2156 1.396 . S
C2157 C2158 1.399 . S
C2158 H2144 0.929 . S
C2158 C2157 1.399 . S
C2158 C2159 1.385 . S
C2159 H2145 0.931 . S
C2159 C2158 1.385 . S
C2159 C2160 1.389 . S
C2160 C2159 1.389 . S
C2160 C2161 1.387 . S
C2161 H2146 0.930 . S
C2161 C2156 1.390 . S
C2161 C2160 1.387 . S
H2162 C2174 0.930 . S
H2163 C2176 0.930 . S
H2164 C2177 0.930 . S
H2165 C2181 0.959 . S
H2166 C2181 0.959 . S
H2167 C2181 0.961 . S
H2168 C2182 0.960 . S
H2169 C2182 0.961 . S
H2170 C2182 0.959 . S
H2171 C2185 0.929 . S
H2172 C2186 0.931 1_655 S
H2173 C2188 0.930 . S
C2174 H2162 0.930 . S
C2174 C2175 1.399 . S
C2174 C2179 1.399 . S
C2175 C2174 1.399 . S
C2175 C2176 1.376 1_455 S
C2176 H2163 0.930 . S
C2176 C2175 1.376 1_655 S
C2176 C2177 1.388 . S
C2177 H2164 0.930 . S
C2177 C2176 1.388 . S
C2177 C2178 1.390 1_655 S
C2178 C2177 1.390 1_455 S
C2178 C2179 1.394 . S
C2178 C2184 1.465 . S
C2179 C2174 1.399 . S
C2179 C2178 1.394 . S
C2179 C2180 1.516 . S
C2180 C2179 1.516 . S
C2180 C2181 1.502 . S
C2180 C2182 1.561 . S
C2180 C2183 1.526 . S
C2181 H2165 0.959 . S
C2181 H2166 0.959 . S
C2181 H2167 0.961 . S
C2181 C2180 1.502 . S
C2182 H2168 0.960 . S
C2182 H2169 0.961 . S
C2182 H2170 0.959 . S
C2182 C2180 1.561 . S
C2183 C2180 1.526 . S
C2183 C2184 1.396 . S
C2183 C2188 1.390 . S
C2184 C2178 1.465 . S
C2184 C2183 1.396 . S
C2184 C2185 1.399 1_455 S
C2185 H2171 0.929 . S
C2185 C2184 1.399 1_655 S
C2185 C2186 1.385 1_655 S
C2186 H2172 0.931 1_455 S
C2186 C2185 1.385 1_455 S
C2186 C2187 1.389 . S
C2187 C2186 1.389 . S
C2187 C2188 1.387 . S
C2188 H2173 0.930 . S
C2188 C2183 1.390 . S
C2188 C2187 1.387 . S
H2189 C2201 0.930 . S
H2190 C2203 0.930 . S
H2191 C2204 0.930 . S
H2192 C2208 0.959 . S
H2193 C2208 0.959 . S
H2194 C2208 0.961 . S
H2195 C2209 0.960 . S
H2196 C2209 0.961 . S
H2197 C2209 0.959 . S
H2198 C2212 0.929 . S
H2199 C2213 0.931 . S
H2200 C2215 0.930 . S
C2201 H2189 0.930 . S
C2201 C2202 1.399 . S
C2201 C2206 1.399 . S
C2202 C2201 1.399 . S
C2202 C2203 1.376 . S
C2203 H2190 0.930 . S
C2203 C2202 1.376 . S
C2203 C2204 1.388 . S
C2204 H2191 0.930 . S
C2204 C2203 1.388 . S
C2204 C2205 1.390 . S
C2205 C2204 1.390 . S
C2205 C2206 1.394 . S
C2205 C2211 1.465 . S
C2206 C2201 1.399 . S
C2206 C2205 1.394 . S
C2206 C2207 1.516 . S
C2207 C2206 1.516 . S
C2207 C2208 1.502 . S
C2207 C2209 1.561 . S
C2207 C2210 1.526 . S
C2208 H2192 0.959 . S
C2208 H2193 0.959 . S
C2208 H2194 0.961 . S
C2208 C2207 1.502 . S
C2209 H2195 0.960 . S
C2209 H2196 0.961 . S
C2209 H2197 0.959 . S
C2209 C2207 1.561 . S
C2210 C2207 1.526 . S
C2210 C2211 1.396 . S
C2210 C2215 1.390 . S
C2211 C2205 1.465 . S
C2211 C2210 1.396 . S
C2211 C2212 1.399 . S
C2212 H2198 0.929 . S
C2212 C2211 1.399 . S
C2212 C2213 1.385 . S
C2213 H2199 0.931 . S
C2213 C2212 1.385 . S
C2213 C2214 1.389 . S
C2214 C2213 1.389 . S
C2214 C2215 1.387 . S
C2215 H2200 0.930 . S
C2215 C2210 1.390 . S
C2215 C2214 1.387 . S
H2216 C2228 0.930 . S
H2217 C2230 0.930 . S
H2218 C2231 0.930 . S
H2219 C2235 0.959 . S
H2220 C2235 0.959 . S
H2221 C2235 0.961 . S
H2222 C2236 0.960 . S
H2223 C2236 0.961 . S
H2224 C2236 0.959 . S
H2225 C2239 0.929 . S
H2226 C2240 0.931 . S
H2227 C2242 0.930 . S
C2228 H2216 0.930 . S
C2228 C2229 1.399 . S
C2228 C2233 1.399 . S
C2229 C2228 1.399 . S
C2229 C2230 1.376 . S
C2230 H2217 0.930 . S
C2230 C2229 1.376 . S
C2230 C2231 1.388 . S
C2231 H2218 0.930 . S
C2231 C2230 1.388 . S
C2231 C2232 1.390 . S
C2232 C2231 1.390 . S
C2232 C2233 1.394 . S
C2232 C2238 1.465 . S
C2233 C2228 1.399 . S
C2233 C2232 1.394 . S
C2233 C2234 1.516 . S
C2234 C2233 1.516 . S
C2234 C2235 1.502 . S
C2234 C2236 1.561 . S
C2234 C2237 1.526 . S
C2235 H2219 0.959 . S
C2235 H2220 0.959 . S
C2235 H2221 0.961 . S
C2235 C2234 1.502 . S
C2236 H2222 0.960 . S
C2236 H2223 0.961 . S
C2236 H2224 0.959 . S
C2236 C2234 1.561 . S
C2237 C2234 1.526 . S
C2237 C2238 1.396 . S
C2237 C2242 1.390 . S
C2238 C2232 1.465 . S
C2238 C2237 1.396 . S
C2238 C2239 1.399 . S
C2239 H2225 0.929 . S
C2239 C2238 1.399 . S
C2239 C2240 1.385 . S
C2240 H2226 0.931 . S
C2240 C2239 1.385 . S
C2240 C2241 1.389 . S
C2241 C2240 1.389 . S
C2241 C2242 1.387 . S
C2242 H2227 0.930 . S
C2242 C2237 1.390 . S
C2242 C2241 1.387 . S
H2243 C2255 0.930 . S
H2244 C2257 0.930 . S
H2245 C2258 0.930 . S
H2246 C2262 0.959 . S
H2247 C2262 0.959 . S
H2248 C2262 0.961 . S
H2249 C2263 0.960 . S
H2250 C2263 0.961 . S
H2251 C2263 0.959 . S
H2252 C2266 0.929 . S
H2253 C2267 0.931 . S
H2254 C2269 0.930 . S
C2255 H2243 0.930 . S
C2255 C2256 1.399 . S
C2255 C2260 1.399 . S
C2256 C2255 1.399 . S
C2256 C2257 1.376 . S
C2257 H2244 0.930 . S
C2257 C2256 1.376 . S
C2257 C2258 1.388 . S
C2258 H2245 0.930 . S
C2258 C2257 1.388 . S
C2258 C2259 1.390 . S
C2259 C2258 1.390 . S
C2259 C2260 1.394 . S
C2259 C2265 1.465 . S
C2260 C2255 1.399 . S
C2260 C2259 1.394 . S
C2260 C2261 1.516 . S
C2261 C2260 1.516 . S
C2261 C2262 1.502 . S
C2261 C2263 1.561 . S
C2261 C2264 1.526 . S
C2262 H2246 0.959 . S
C2262 H2247 0.959 . S
C2262 H2248 0.961 . S
C2262 C2261 1.502 . S
C2263 H2249 0.960 . S
C2263 H2250 0.961 . S
C2263 H2251 0.959 . S
C2263 C2261 1.561 . S
C2264 C2261 1.526 . S
C2264 C2265 1.396 . S
C2264 C2269 1.390 . S
C2265 C2259 1.465 . S
C2265 C2264 1.396 . S
C2265 C2266 1.399 . S
C2266 H2252 0.929 . S
C2266 C2265 1.399 . S
C2266 C2267 1.385 . S
C2267 H2253 0.931 . S
C2267 C2266 1.385 . S
C2267 C2268 1.389 . S
C2268 C2267 1.389 . S
C2268 C2269 1.387 . S
C2269 H2254 0.930 . S
C2269 C2264 1.390 . S
C2269 C2268 1.387 . S
H2270 C2282 0.930 . S
H2271 C2284 0.930 . S
H2272 C2285 0.930 . S
H2273 C2289 0.959 . S
H2274 C2289 0.959 . S
H2275 C2289 0.961 . S
H2276 C2290 0.960 . S
H2277 C2290 0.961 . S
H2278 C2290 0.959 . S
H2279 C2293 0.929 . S
H2280 C2294 0.931 . S
H2281 C2296 0.930 . S
C2282 H2270 0.930 . S
C2282 C2283 1.399 . S
C2282 C2287 1.399 . S
C2283 C2282 1.399 . S
C2283 C2284 1.376 . S
C2284 H2271 0.930 . S
C2284 C2283 1.376 . S
C2284 C2285 1.388 . S
C2285 H2272 0.930 . S
C2285 C2284 1.388 . S
C2285 C2286 1.390 . S
C2286 C2285 1.390 . S
C2286 C2287 1.394 . S
C2286 C2292 1.465 . S
C2287 C2282 1.399 . S
C2287 C2286 1.394 . S
C2287 C2288 1.516 . S
C2288 C2287 1.516 . S
C2288 C2289 1.502 . S
C2288 C2290 1.561 . S
C2288 C2291 1.526 . S
C2289 H2273 0.959 . S
C2289 H2274 0.959 . S
C2289 H2275 0.961 . S
C2289 C2288 1.502 . S
C2290 H2276 0.960 . S
C2290 H2277 0.961 . S
C2290 H2278 0.959 . S
C2290 C2288 1.561 . S
C2291 C2288 1.526 . S
C2291 C2292 1.396 . S
C2291 C2296 1.390 . S
C2292 C2286 1.465 . S
C2292 C2291 1.396 . S
C2292 C2293 1.399 . S
C2293 H2279 0.929 . S
C2293 C2292 1.399 . S
C2293 C2294 1.385 . S
C2294 H2280 0.931 . S
C2294 C2293 1.385 . S
C2294 C2295 1.389 . S
C2295 C2294 1.389 . S
C2295 C2296 1.387 . S
C2296 H2281 0.930 . S
C2296 C2291 1.390 . S
C2296 C2295 1.387 . S
H2297 C2309 0.930 . S
H2298 C2311 0.930 . S
H2299 C2312 0.930 . S
H2300 C2316 0.959 . S
H2301 C2316 0.959 . S
H2302 C2316 0.961 . S
H2303 C2317 0.960 . S
H2304 C2317 0.961 . S
H2305 C2317 0.959 . S
H2306 C2320 0.929 . S
H2307 C2321 0.931 . S
H2308 C2323 0.930 . S
C2309 H2297 0.930 . S
C2309 C2310 1.399 . S
C2309 C2314 1.399 . S
C2310 C2309 1.399 . S
C2310 C2311 1.376 . S
C2311 H2298 0.930 . S
C2311 C2310 1.376 . S
C2311 C2312 1.388 . S
C2312 H2299 0.930 . S
C2312 C2311 1.388 . S
C2312 C2313 1.390 . S
C2313 C2312 1.390 . S
C2313 C2314 1.394 . S
C2313 C2319 1.465 . S
C2314 C2309 1.399 . S
C2314 C2313 1.394 . S
C2314 C2315 1.516 . S
C2315 C2314 1.516 . S
C2315 C2316 1.502 . S
C2315 C2317 1.561 . S
C2315 C2318 1.526 . S
C2316 H2300 0.959 . S
C2316 H2301 0.959 . S
C2316 H2302 0.961 . S
C2316 C2315 1.502 . S
C2317 H2303 0.960 . S
C2317 H2304 0.961 . S
C2317 H2305 0.959 . S
C2317 C2315 1.561 . S
C2318 C2315 1.526 . S
C2318 C2319 1.396 . S
C2318 C2323 1.390 . S
C2319 C2313 1.465 . S
C2319 C2318 1.396 . S
C2319 C2320 1.399 . S
C2320 H2306 0.929 . S
C2320 C2319 1.399 . S
C2320 C2321 1.385 . S
C2321 H2307 0.931 . S
C2321 C2320 1.385 . S
C2321 C2322 1.389 . S
C2322 C2321 1.389 . S
C2322 C2323 1.387 . S
C2323 H2308 0.930 . S
C2323 C2318 1.390 . S
C2323 C2322 1.387 . S
H2324 C2336 0.930 . S
H2325 C2338 0.930 . S
H2326 C2339 0.930 . S
H2327 C2343 0.959 . S
H2328 C2343 0.959 . S
H2329 C2343 0.961 . S
H2330 C2344 0.960 . S
H2331 C2344 0.961 . S
H2332 C2344 0.959 . S
H2333 C2347 0.929 . S
H2334 C2348 0.931 . S
H2335 C2350 0.930 . S
C2336 H2324 0.930 . S
C2336 C2337 1.399 . S
C2336 C2341 1.399 . S
C2337 C2336 1.399 . S
C2337 C2338 1.376 . S
C2338 H2325 0.930 . S
C2338 C2337 1.376 . S
C2338 C2339 1.388 . S
C2339 H2326 0.930 . S
C2339 C2338 1.388 . S
C2339 C2340 1.390 . S
C2340 C2339 1.390 . S
C2340 C2341 1.394 . S
C2340 C2346 1.465 . S
C2341 C2336 1.399 . S
C2341 C2340 1.394 . S
C2341 C2342 1.516 . S
C2342 C2341 1.516 . S
C2342 C2343 1.502 . S
C2342 C2344 1.561 . S
C2342 C2345 1.526 . S
C2343 H2327 0.959 . S
C2343 H2328 0.959 . S
C2343 H2329 0.961 . S
C2343 C2342 1.502 . S
C2344 H2330 0.960 . S
C2344 H2331 0.961 . S
C2344 H2332 0.959 . S
C2344 C2342 1.561 . S
C2345 C2342 1.526 . S
C2345 C2346 1.396 . S
C2345 C2350 1.390 . S
C2346 C2340 1.465 . S
C2346 C2345 1.396 . S
C2346 C2347 1.399 . S
C2347 H2333 0.929 . S
C2347 C2346 1.399 . S
C2347 C2348 1.385 . S
C2348 H2334 0.931 . S
C2348 C2347 1.385 . S
C2348 C2349 1.389 . S
C2349 C2348 1.389 . S
C2349 C2350 1.387 . S
C2350 H2335 0.930 . S
C2350 C2345 1.390 . S
C2350 C2349 1.387 . S
H2351 C2363 0.930 . S
H2352 C2365 0.930 . S
H2353 C2366 0.930 . S
H2354 C2370 0.959 . S
H2355 C2370 0.959 . S
H2356 C2370 0.961 . S
H2357 C2371 0.960 . S
H2358 C2371 0.961 . S
H2359 C2371 0.959 . S
H2360 C2374 0.929 . S
H2361 C2375 0.931 . S
H2362 C2377 0.930 . S
C2363 H2351 0.930 . S
C2363 C2364 1.399 . S
C2363 C2368 1.399 . S
C2364 C2363 1.399 . S
C2364 C2365 1.376 . S
C2365 H2352 0.930 . S
C2365 C2364 1.376 . S
C2365 C2366 1.388 . S
C2366 H2353 0.930 . S
C2366 C2365 1.388 . S
C2366 C2367 1.390 . S
C2367 C2366 1.390 . S
C2367 C2368 1.394 . S
C2367 C2373 1.465 . S
C2368 C2363 1.399 . S
C2368 C2367 1.394 . S
C2368 C2369 1.516 . S
C2369 C2368 1.516 . S
C2369 C2370 1.502 . S
C2369 C2371 1.561 . S
C2369 C2372 1.526 . S
C2370 H2354 0.959 . S
C2370 H2355 0.959 . S
C2370 H2356 0.961 . S
C2370 C2369 1.502 . S
C2371 H2357 0.960 . S
C2371 H2358 0.961 . S
C2371 H2359 0.959 . S
C2371 C2369 1.561 . S
C2372 C2369 1.526 . S
C2372 C2373 1.396 . S
C2372 C2377 1.390 . S
C2373 C2367 1.465 . S
C2373 C2372 1.396 . S
C2373 C2374 1.399 . S
C2374 H2360 0.929 . S
C2374 C2373 1.399 . S
C2374 C2375 1.385 . S
C2375 H2361 0.931 . S
C2375 C2374 1.385 . S
C2375 C2376 1.389 . S
C2376 C2375 1.389 . S
C2376 C2377 1.387 . S
C2377 H2362 0.930 . S
C2377 C2372 1.390 . S
C2377 C2376 1.387 . S
H2378 C2390 0.930 . S
H2379 C2392 0.930 . S
H2380 C2393 0.930 . S
H2381 C2397 0.959 . S
H2382 C2397 0.959 . S
H2383 C2397 0.961 . S
H2384 C2398 0.960 . S
H2385 C2398 0.961 . S
H2386 C2398 0.959 . S
H2387 C2401 0.929 . S
H2388 C2402 0.931 . S
H2389 C2404 0.930 . S
C2390 H2378 0.930 . S
C2390 C2391 1.399 . S
C2390 C2395 1.399 . S
C2391 C2390 1.399 . S
C2391 C2392 1.376 . S
C2392 H2379 0.930 . S
C2392 C2391 1.376 . S
C2392 C2393 1.388 . S
C2393 H2380 0.930 . S
C2393 C2392 1.388 . S
C2393 C2394 1.390 . S
C2394 C2393 1.390 . S
C2394 C2395 1.394 . S
C2394 C2400 1.465 . S
C2395 C2390 1.399 . S
C2395 C2394 1.394 . S
C2395 C2396 1.516 . S
C2396 C2395 1.516 . S
C2396 C2397 1.502 . S
C2396 C2398 1.561 . S
C2396 C2399 1.526 . S
C2397 H2381 0.959 . S
C2397 H2382 0.959 . S
C2397 H2383 0.961 . S
C2397 C2396 1.502 . S
C2398 H2384 0.960 . S
C2398 H2385 0.961 . S
C2398 H2386 0.959 . S
C2398 C2396 1.561 . S
C2399 C2396 1.526 . S
C2399 C2400 1.396 . S
C2399 C2404 1.390 . S
C2400 C2394 1.465 . S
C2400 C2399 1.396 . S
C2400 C2401 1.399 . S
C2401 H2387 0.929 . S
C2401 C2400 1.399 . S
C2401 C2402 1.385 . S
C2402 H2388 0.931 . S
C2402 C2401 1.385 . S
C2402 C2403 1.389 . S
C2403 C2402 1.389 . S
C2403 C2404 1.387 . S
C2404 H2389 0.930 . S
C2404 C2399 1.390 . S
C2404 C2403 1.387 . S
H2405 C2417 0.930 . S
H2406 C2419 0.930 . S
H2407 C2420 0.930 . S
H2408 C2424 0.959 . S
H2409 C2424 0.959 . S
H2410 C2424 0.961 . S
H2411 C2425 0.960 . S
H2412 C2425 0.961 . S
H2413 C2425 0.959 . S
H2414 C2428 0.929 . S
H2415 C2429 0.931 . S
H2416 C2431 0.930 . S
C2417 H2405 0.930 . S
C2417 C2418 1.399 . S
C2417 C2422 1.399 . S
C2418 C2417 1.399 . S
C2418 C2419 1.376 . S
C2419 H2406 0.930 . S
C2419 C2418 1.376 . S
C2419 C2420 1.388 . S
C2420 H2407 0.930 . S
C2420 C2419 1.388 . S
C2420 C2421 1.390 . S
C2421 C2420 1.390 . S
C2421 C2422 1.394 . S
C2421 C2427 1.465 . S
C2422 C2417 1.399 . S
C2422 C2421 1.394 . S
C2422 C2423 1.516 . S
C2423 C2422 1.516 . S
C2423 C2424 1.502 . S
C2423 C2425 1.561 . S
C2423 C2426 1.526 . S
C2424 H2408 0.959 . S
C2424 H2409 0.959 . S
C2424 H2410 0.961 . S
C2424 C2423 1.502 . S
C2425 H2411 0.960 . S
C2425 H2412 0.961 . S
C2425 H2413 0.959 . S
C2425 C2423 1.561 . S
C2426 C2423 1.526 . S
C2426 C2427 1.396 . S
C2426 C2431 1.390 . S
C2427 C2421 1.465 . S
C2427 C2426 1.396 . S
C2427 C2428 1.399 . S
C2428 H2414 0.929 . S
C2428 C2427 1.399 . S
C2428 C2429 1.385 . S
C2429 H2415 0.931 . S
C2429 C2428 1.385 . S
C2429 C2430 1.389 . S
C2430 C2429 1.389 . S
C2430 C2431 1.387 . S
C2431 H2416 0.930 . S
C2431 C2426 1.390 . S
C2431 C2430 1.387 . S
H2432 C2444 0.930 . S
H2433 C2446 0.930 . S
H2434 C2447 0.930 . S
H2435 C2451 0.959 . S
H2436 C2451 0.959 . S
H2437 C2451 0.961 . S
H2438 C2452 0.960 . S
H2439 C2452 0.961 . S
H2440 C2452 0.959 . S
H2441 C2455 0.929 . S
H2442 C2456 0.931 . S
H2443 C2458 0.930 . S
C2444 H2432 0.930 . S
C2444 C2445 1.399 . S
C2444 C2449 1.399 . S
C2445 C2444 1.399 . S
C2445 C2446 1.376 . S
C2446 H2433 0.930 . S
C2446 C2445 1.376 . S
C2446 C2447 1.388 . S
C2447 H2434 0.930 . S
C2447 C2446 1.388 . S
C2447 C2448 1.390 . S
C2448 C2447 1.390 . S
C2448 C2449 1.394 . S
C2448 C2454 1.465 . S
C2449 C2444 1.399 . S
C2449 C2448 1.394 . S
C2449 C2450 1.516 . S
C2450 C2449 1.516 . S
C2450 C2451 1.502 . S
C2450 C2452 1.561 . S
C2450 C2453 1.526 . S
C2451 H2435 0.959 . S
C2451 H2436 0.959 . S
C2451 H2437 0.961 . S
C2451 C2450 1.502 . S
C2452 H2438 0.960 . S
C2452 H2439 0.961 . S
C2452 H2440 0.959 . S
C2452 C2450 1.561 . S
C2453 C2450 1.526 . S
C2453 C2454 1.396 . S
C2453 C2458 1.390 . S
C2454 C2448 1.465 . S
C2454 C2453 1.396 . S
C2454 C2455 1.399 . S
C2455 H2441 0.929 . S
C2455 C2454 1.399 . S
C2455 C2456 1.385 . S
C2456 H2442 0.931 . S
C2456 C2455 1.385 . S
C2456 C2457 1.389 . S
C2457 C2456 1.389 . S
C2457 C2458 1.387 . S
C2458 H2443 0.930 . S
C2458 C2453 1.390 . S
C2458 C2457 1.387 . S
H2459 C2471 0.930 . S
H2460 C2473 0.930 . S
H2461 C2474 0.930 . S
H2462 C2478 0.959 . S
H2463 C2478 0.959 . S
H2464 C2478 0.961 . S
H2465 C2479 0.960 . S
H2466 C2479 0.961 . S
H2467 C2479 0.959 . S
H2468 C2482 0.929 . S
H2469 C2483 0.931 . S
H2470 C2485 0.930 . S
C2471 H2459 0.930 . S
C2471 C2472 1.399 . S
C2471 C2476 1.399 . S
C2472 C2471 1.399 . S
C2472 C2473 1.376 . S
C2473 H2460 0.930 . S
C2473 C2472 1.376 . S
C2473 C2474 1.388 . S
C2474 H2461 0.930 . S
C2474 C2473 1.388 . S
C2474 C2475 1.390 . S
C2475 C2474 1.390 . S
C2475 C2476 1.394 . S
C2475 C2481 1.465 . S
C2476 C2471 1.399 . S
C2476 C2475 1.394 . S
C2476 C2477 1.516 . S
C2477 C2476 1.516 . S
C2477 C2478 1.502 . S
C2477 C2479 1.561 . S
C2477 C2480 1.526 . S
C2478 H2462 0.959 . S
C2478 H2463 0.959 . S
C2478 H2464 0.961 . S
C2478 C2477 1.502 . S
C2479 H2465 0.960 . S
C2479 H2466 0.961 . S
C2479 H2467 0.959 . S
C2479 C2477 1.561 . S
C2480 C2477 1.526 . S
C2480 C2481 1.396 . S
C2480 C2485 1.390 . S
C2481 C2475 1.465 . S
C2481 C2480 1.396 . S
C2481 C2482 1.399 . S
C2482 H2468 0.929 . S
C2482 C2481 1.399 . S
C2482 C2483 1.385 . S
C2483 H2469 0.931 . S
C2483 C2482 1.385 . S
C2483 C2484 1.389 . S
C2484 C2483 1.389 . S
C2484 C2485 1.387 . S
C2485 H2470 0.930 . S
C2485 C2480 1.390 . S
C2485 C2484 1.387 . S
H2486 C2498 0.930 . S
H2487 C2500 0.930 . S
H2488 C2501 0.930 . S
H2489 C2505 0.959 . S
H2490 C2505 0.959 . S
H2491 C2505 0.961 . S
H2492 C2506 0.960 . S
H2493 C2506 0.961 . S
H2494 C2506 0.959 . S
H2495 C2509 0.929 . S
H2496 C2510 0.931 . S
H2497 C2512 0.930 . S
C2498 H2486 0.930 . S
C2498 C2499 1.399 . S
C2498 C2503 1.399 . S
C2499 C2498 1.399 . S
C2499 C2500 1.376 . S
C2500 H2487 0.930 . S
C2500 C2499 1.376 . S
C2500 C2501 1.388 . S
C2501 H2488 0.930 . S
C2501 C2500 1.388 . S
C2501 C2502 1.390 . S
C2502 C2501 1.390 . S
C2502 C2503 1.394 . S
C2502 C2508 1.465 . S
C2503 C2498 1.399 . S
C2503 C2502 1.394 . S
C2503 C2504 1.516 . S
C2504 C2503 1.516 . S
C2504 C2505 1.502 . S
C2504 C2506 1.561 . S
C2504 C2507 1.526 . S
C2505 H2489 0.959 . S
C2505 H2490 0.959 . S
C2505 H2491 0.961 . S
C2505 C2504 1.502 . S
C2506 H2492 0.960 . S
C2506 H2493 0.961 . S
C2506 H2494 0.959 . S
C2506 C2504 1.561 . S
C2507 C2504 1.526 . S
C2507 C2508 1.396 . S
C2507 C2512 1.390 . S
C2508 C2502 1.465 . S
C2508 C2507 1.396 . S
C2508 C2509 1.399 . S
C2509 H2495 0.929 . S
C2509 C2508 1.399 . S
C2509 C2510 1.385 . S
C2510 H2496 0.931 . S
C2510 C2509 1.385 . S
C2510 C2511 1.389 . S
C2511 C2510 1.389 . S
C2511 C2512 1.387 . S
C2512 H2497 0.930 . S
C2512 C2507 1.390 . S
C2512 C2511 1.387 . S
H2513 C2525 0.930 . S
H2514 C2527 0.930 . S
H2515 C2528 0.930 . S
H2516 C2532 0.959 . S
H2517 C2532 0.959 . S
H2518 C2532 0.961 . S
H2519 C2533 0.960 . S
H2520 C2533 0.961 . S
H2521 C2533 0.959 . S
H2522 C2536 0.929 . S
H2523 C2537 0.931 . S
H2524 C2539 0.930 . S
C2525 H2513 0.930 . S
C2525 C2526 1.399 . S
C2525 C2530 1.399 . S
C2526 C2525 1.399 . S
C2526 C2527 1.376 1_554 S
C2527 H2514 0.930 . S
C2527 C2526 1.376 1_556 S
C2527 C2528 1.388 . S
C2528 H2515 0.930 . S
C2528 C2527 1.388 . S
C2528 C2529 1.390 1_556 S
C2529 C2528 1.390 1_554 S
C2529 C2530 1.394 . S
C2529 C2535 1.465 . S
C2530 C2525 1.399 . S
C2530 C2529 1.394 . S
C2530 C2531 1.516 . S
C2531 C2530 1.516 . S
C2531 C2532 1.502 . S
C2531 C2533 1.561 . S
C2531 C2534 1.526 . S
C2532 H2516 0.959 . S
C2532 H2517 0.959 . S
C2532 H2518 0.961 . S
C2532 C2531 1.502 . S
C2533 H2519 0.960 . S
C2533 H2520 0.961 . S
C2533 H2521 0.959 . S
C2533 C2531 1.561 . S
C2534 C2531 1.526 . S
C2534 C2535 1.396 . S
C2534 C2539 1.390 . S
C2535 C2529 1.465 . S
C2535 C2534 1.396 . S
C2535 C2536 1.399 1_554 S
C2536 H2522 0.929 . S
C2536 C2535 1.399 1_556 S
C2536 C2537 1.385 . S
C2537 H2523 0.931 . S
C2537 C2536 1.385 . S
C2537 C2538 1.389 1_556 S
C2538 C2537 1.389 1_554 S
C2538 C2539 1.387 . S
C2539 H2524 0.930 . S
C2539 C2534 1.390 . S
C2539 C2538 1.387 . S
H2540 C2552 0.930 . S
H2541 C2554 0.930 . S
H2542 C2555 0.930 . S
H2543 C2559 0.959 . S
H2544 C2559 0.959 . S
H2545 C2559 0.961 . S
H2546 C2560 0.960 . S
H2547 C2560 0.961 . S
H2548 C2560 0.959 . S
H2549 C2563 0.929 . S
H2550 C2564 0.931 . S
H2551 C2566 0.930 . S
C2552 H2540 0.930 . S
C2552 C2553 1.399 . S
C2552 C2557 1.399 . S
C2553 C2552 1.399 . S
C2553 C2554 1.376 . S
C2554 H2541 0.930 . S
C2554 C2553 1.376 . S
C2554 C2555 1.388 . S
C2555 H2542 0.930 . S
C2555 C2554 1.388 . S
C2555 C2556 1.390 . S
C2556 C2555 1.390 . S
C2556 C2557 1.394 . S
C2556 C2562 1.465 . S
C2557 C2552 1.399 . S
C2557 C2556 1.394 . S
C2557 C2558 1.516 . S
C2558 C2557 1.516 . S
C2558 C2559 1.502 . S
C2558 C2560 1.561 . S
C2558 C2561 1.526 . S
C2559 H2543 0.959 . S
C2559 H2544 0.959 . S
C2559 H2545 0.961 . S
C2559 C2558 1.502 . S
C2560 H2546 0.960 . S
C2560 H2547 0.961 . S
C2560 H2548 0.959 . S
C2560 C2558 1.561 . S
C2561 C2558 1.526 . S
C2561 C2562 1.396 . S
C2561 C2566 1.390 . S
C2562 C2556 1.465 . S
C2562 C2561 1.396 . S
C2562 C2563 1.399 . S
C2563 H2549 0.929 . S
C2563 C2562 1.399 . S
C2563 C2564 1.385 . S
C2564 H2550 0.931 . S
C2564 C2563 1.385 . S
C2564 C2565 1.389 . S
C2565 C2564 1.389 . S
C2565 C2566 1.387 . S
C2566 H2551 0.930 . S
C2566 C2561 1.390 . S
C2566 C2565 1.387 . S
H2567 C2579 0.930 . S
H2568 C2581 0.930 . S
H2569 C2582 0.930 . S
H2570 C2586 0.959 . S
H2571 C2586 0.959 . S
H2572 C2586 0.961 . S
H2573 C2587 0.960 . S
H2574 C2587 0.961 . S
H2575 C2587 0.959 . S
H2576 C2590 0.929 . S
H2577 C2591 0.931 . S
H2578 C2593 0.930 . S
C2579 H2567 0.930 . S
C2579 C2580 1.399 . S
C2579 C2584 1.399 . S
C2580 C2579 1.399 . S
C2580 C2581 1.376 1_554 S
C2581 H2568 0.930 . S
C2581 C2580 1.376 1_556 S
C2581 C2582 1.388 . S
C2582 H2569 0.930 . S
C2582 C2581 1.388 . S
C2582 C2583 1.390 . S
C2583 C2582 1.390 . S
C2583 C2584 1.394 1_556 S
C2583 C2589 1.465 . S
C2584 C2579 1.399 . S
C2584 C2583 1.394 1_554 S
C2584 C2585 1.516 . S
C2585 C2584 1.516 . S
C2585 C2586 1.502 . S
C2585 C2587 1.561 . S
C2585 C2588 1.526 . S
C2586 H2570 0.959 . S
C2586 H2571 0.959 . S
C2586 H2572 0.961 . S
C2586 C2585 1.502 . S
C2587 H2573 0.960 . S
C2587 H2574 0.961 . S
C2587 H2575 0.959 . S
C2587 C2585 1.561 . S
C2588 C2585 1.526 . S
C2588 C2589 1.396 1_554 S
C2588 C2593 1.390 . S
C2589 C2583 1.465 . S
C2589 C2588 1.396 1_556 S
C2589 C2590 1.399 . S
C2590 H2576 0.929 . S
C2590 C2589 1.399 . S
C2590 C2591 1.385 . S
C2591 H2577 0.931 . S
C2591 C2590 1.385 . S
C2591 C2592 1.389 . S
C2592 C2591 1.389 . S
C2592 C2593 1.387 1_556 S
C2593 H2578 0.930 . S
C2593 C2588 1.390 . S
C2593 C2592 1.387 1_554 S
H2594 C2606 0.930 . S
H2595 C2608 0.930 . S
H2596 C2609 0.930 . S
H2597 C2613 0.959 . S
H2598 C2613 0.959 . S
H2599 C2613 0.961 . S
H2600 C2614 0.960 . S
H2601 C2614 0.961 . S
H2602 C2614 0.959 . S
H2603 C2617 0.929 . S
H2604 C2618 0.931 . S
H2605 C2620 0.930 . S
C2606 H2594 0.930 . S
C2606 C2607 1.399 . S
C2606 C2611 1.399 . S
C2607 C2606 1.399 . S
C2607 C2608 1.376 . S
C2608 H2595 0.930 . S
C2608 C2607 1.376 . S
C2608 C2609 1.388 . S
C2609 H2596 0.930 . S
C2609 C2608 1.388 . S
C2609 C2610 1.390 . S
C2610 C2609 1.390 . S
C2610 C2611 1.394 . S
C2610 C2616 1.465 . S
C2611 C2606 1.399 . S
C2611 C2610 1.394 . S
C2611 C2612 1.516 . S
C2612 C2611 1.516 . S
C2612 C2613 1.502 . S
C2612 C2614 1.561 . S
C2612 C2615 1.526 . S
C2613 H2597 0.959 . S
C2613 H2598 0.959 . S
C2613 H2599 0.961 . S
C2613 C2612 1.502 . S
C2614 H2600 0.960 . S
C2614 H2601 0.961 . S
C2614 H2602 0.959 . S
C2614 C2612 1.561 . S
C2615 C2612 1.526 . S
C2615 C2616 1.396 . S
C2615 C2620 1.390 . S
C2616 C2610 1.465 . S
C2616 C2615 1.396 . S
C2616 C2617 1.399 . S
C2617 H2603 0.929 . S
C2617 C2616 1.399 . S
C2617 C2618 1.385 . S
C2618 H2604 0.931 . S
C2618 C2617 1.385 . S
C2618 C2619 1.389 . S
C2619 C2618 1.389 . S
C2619 C2620 1.387 . S
C2620 H2605 0.930 . S
C2620 C2615 1.390 . S
C2620 C2619 1.387 . S
H2621 C2633 0.930 . S
H2622 C2635 0.930 . S
H2623 C2636 0.930 . S
H2624 C2640 0.959 . S
H2625 C2640 0.959 . S
H2626 C2640 0.961 . S
H2627 C2641 0.960 . S
H2628 C2641 0.961 . S
H2629 C2641 0.959 . S
H2630 C2644 0.929 . S
H2631 C2645 0.931 . S
H2632 C2647 0.930 . S
C2633 H2621 0.930 . S
C2633 C2634 1.399 . S
C2633 C2638 1.399 . S
C2634 C2633 1.399 . S
C2634 C2635 1.376 . S
C2635 H2622 0.930 . S
C2635 C2634 1.376 . S
C2635 C2636 1.388 . S
C2636 H2623 0.930 . S
C2636 C2635 1.388 . S
C2636 C2637 1.390 . S
C2637 C2636 1.390 . S
C2637 C2638 1.394 . S
C2637 C2643 1.465 . S
C2638 C2633 1.399 . S
C2638 C2637 1.394 . S
C2638 C2639 1.516 . S
C2639 C2638 1.516 . S
C2639 C2640 1.502 . S
C2639 C2641 1.561 . S
C2639 C2642 1.526 . S
C2640 H2624 0.959 . S
C2640 H2625 0.959 . S
C2640 H2626 0.961 . S
C2640 C2639 1.502 . S
C2641 H2627 0.960 . S
C2641 H2628 0.961 . S
C2641 H2629 0.959 . S
C2641 C2639 1.561 . S
C2642 C2639 1.526 . S
C2642 C2643 1.396 . S
C2642 C2647 1.390 . S
C2643 C2637 1.465 . S
C2643 C2642 1.396 . S
C2643 C2644 1.399 . S
C2644 H2630 0.929 . S
C2644 C2643 1.399 . S
C2644 C2645 1.385 . S
C2645 H2631 0.931 . S
C2645 C2644 1.385 . S
C2645 C2646 1.389 . S
C2646 C2645 1.389 . S
C2646 C2647 1.387 . S
C2647 H2632 0.930 . S
C2647 C2642 1.390 . S
C2647 C2646 1.387 . S
H2648 C2660 0.930 . S
H2649 C2662 0.930 . S
H2650 C2663 0.930 . S
H2651 C2667 0.959 . S
H2652 C2667 0.959 . S
H2653 C2667 0.961 . S
H2654 C2668 0.960 . S
H2655 C2668 0.961 . S
H2656 C2668 0.959 . S
H2657 C2671 0.929 . S
H2658 C2672 0.931 . S
H2659 C2674 0.930 . S
C2660 H2648 0.930 . S
C2660 C2661 1.399 . S
C2660 C2665 1.399 . S
C2661 C2660 1.399 . S
C2661 C2662 1.376 . S
C2662 H2649 0.930 . S
C2662 C2661 1.376 . S
C2662 C2663 1.388 . S
C2663 H2650 0.930 . S
C2663 C2662 1.388 . S
C2663 C2664 1.390 . S
C2664 C2663 1.390 . S
C2664 C2665 1.394 . S
C2664 C2670 1.465 . S
C2665 C2660 1.399 . S
C2665 C2664 1.394 . S
C2665 C2666 1.516 . S
C2666 C2665 1.516 . S
C2666 C2667 1.502 . S
C2666 C2668 1.561 . S
C2666 C2669 1.526 . S
C2667 H2651 0.959 . S
C2667 H2652 0.959 . S
C2667 H2653 0.961 . S
C2667 C2666 1.502 . S
C2668 H2654 0.960 . S
C2668 H2655 0.961 . S
C2668 H2656 0.959 . S
C2668 C2666 1.561 . S
C2669 C2666 1.526 . S
C2669 C2670 1.396 . S
C2669 C2674 1.390 . S
C2670 C2664 1.465 . S
C2670 C2669 1.396 . S
C2670 C2671 1.399 . S
C2671 H2657 0.929 . S
C2671 C2670 1.399 . S
C2671 C2672 1.385 . S
C2672 H2658 0.931 . S
C2672 C2671 1.385 . S
C2672 C2673 1.389 . S
C2673 C2672 1.389 . S
C2673 C2674 1.387 . S
C2674 H2659 0.930 . S
C2674 C2669 1.390 . S
C2674 C2673 1.387 . S
H2675 C2687 0.930 . S
H2676 C2689 0.930 . S
H2677 C2690 0.930 . S
H2678 C2694 0.959 . S
H2679 C2694 0.959 . S
H2680 C2694 0.961 . S
H2681 C2695 0.960 . S
H2682 C2695 0.961 . S
H2683 C2695 0.959 . S
H2684 C2698 0.929 . S
H2685 C2699 0.931 . S
H2686 C2701 0.930 . S
C2687 H2675 0.930 . S
C2687 C2688 1.399 . S
C2687 C2692 1.399 . S
C2688 C2687 1.399 . S
C2688 C2689 1.376 . S
C2689 H2676 0.930 . S
C2689 C2688 1.376 . S
C2689 C2690 1.388 . S
C2690 H2677 0.930 . S
C2690 C2689 1.388 . S
C2690 C2691 1.390 . S
C2691 C2690 1.390 . S
C2691 C2692 1.394 . S
C2691 C2697 1.465 . S
C2692 C2687 1.399 . S
C2692 C2691 1.394 . S
C2692 C2693 1.516 . S
C2693 C2692 1.516 . S
C2693 C2694 1.502 . S
C2693 C2695 1.561 . S
C2693 C2696 1.526 . S
C2694 H2678 0.959 . S
C2694 H2679 0.959 . S
C2694 H2680 0.961 . S
C2694 C2693 1.502 . S
C2695 H2681 0.960 . S
C2695 H2682 0.961 . S
C2695 H2683 0.959 . S
C2695 C2693 1.561 . S
C2696 C2693 1.526 . S
C2696 C2697 1.396 . S
C2696 C2701 1.390 . S
C2697 C2691 1.465 . S
C2697 C2696 1.396 . S
C2697 C2698 1.399 . S
C2698 H2684 0.929 . S
C2698 C2697 1.399 . S
C2698 C2699 1.385 . S
C2699 H2685 0.931 . S
C2699 C2698 1.385 . S
C2699 C2700 1.389 . S
C2700 C2699 1.389 . S
C2700 C2701 1.387 . S
C2701 H2686 0.930 . S
C2701 C2696 1.390 . S
C2701 C2700 1.387 . S
H2702 C2714 0.930 . S
H2703 C2716 0.930 . S
H2704 C2717 0.930 . S
H2705 C2721 0.959 . S
H2706 C2721 0.959 . S
H2707 C2721 0.961 . S
H2708 C2722 0.963 1_455 S
H2709 C2722 0.934 1_454 S
H2710 C2722 0.961 . S
H2711 C2725 0.929 . S
H2712 C2726 0.931 . S
H2713 C2728 0.947 1_554 S
C2714 H2702 0.930 . S
C2714 C2715 1.399 . S
C2714 C2719 1.399 . S
C2715 C2714 1.399 . S
C2715 C2716 1.376 1_455 S
C2716 H2703 0.930 . S
C2716 C2715 1.376 1_655 S
C2716 C2717 1.388 . S
C2717 H2704 0.930 . S
C2717 C2716 1.388 . S
C2717 C2718 1.390 . S
C2718 C2717 1.390 . S
C2718 C2719 1.394 1_655 S
C2718 C2724 1.465 . S
C2719 C2714 1.399 . S
C2719 C2718 1.394 1_455 S
C2719 C2720 1.516 . S
C2720 C2719 1.516 . S
C2720 C2721 1.502 . S
C2720 C2722 1.585 1_455 S
C2720 C2723 1.519 1_455 S
C2721 H2705 0.959 . S
C2721 H2706 0.959 . S
C2721 H2707 0.961 . S
C2721 C2720 1.502 . S
C2722 H2708 0.963 1_655 S
C2722 H2709 0.934 1_656 S
C2722 H2710 0.961 . S
C2722 C2720 1.585 1_655 S
C2723 C2720 1.519 1_655 S
C2723 C2724 1.405 . S
C2723 C2728 1.388 1_655 S
C2724 C2718 1.465 . S
C2724 C2723 1.405 . S
C2724 C2725 1.399 . S
C2725 H2711 0.929 . S
C2725 C2724 1.399 . S
C2725 C2726 1.385 . S
C2726 H2712 0.931 . S
C2726 C2725 1.385 . S
C2726 C2727 1.389 . S
C2727 C2726 1.389 . S
C2727 C2728 1.371 1_655 S
C2728 H2713 0.947 1_556 S
C2728 C2723 1.388 1_455 S
C2728 C2727 1.371 1_455 S
H2729 C2741 0.930 . S
H2730 C2743 0.930 . S
H2731 C2744 0.930 . S
H2732 C2748 0.959 . S
H2733 C2748 0.959 . S
H2734 C2748 0.961 . S
H2735 C2749 0.960 . S
H2736 C2749 0.961 . S
H2737 C2749 0.959 . S
H2738 C2752 0.929 . S
H2739 C2753 0.931 . S
H2740 C2755 0.930 . S
C2741 H2729 0.930 . S
C2741 C2742 1.399 . S
C2741 C2746 1.399 . S
C2742 C2741 1.399 . S
C2742 C2743 1.376 . S
C2743 H2730 0.930 . S
C2743 C2742 1.376 . S
C2743 C2744 1.388 . S
C2744 H2731 0.930 . S
C2744 C2743 1.388 . S
C2744 C2745 1.390 . S
C2745 C2744 1.390 . S
C2745 C2746 1.394 . S
C2745 C2751 1.465 . S
C2746 C2741 1.399 . S
C2746 C2745 1.394 . S
C2746 C2747 1.516 . S
C2747 C2746 1.516 . S
C2747 C2748 1.502 . S
C2747 C2749 1.561 . S
C2747 C2750 1.526 . S
C2748 H2732 0.959 . S
C2748 H2733 0.959 . S
C2748 H2734 0.961 . S
C2748 C2747 1.502 . S
C2749 H2735 0.960 . S
C2749 H2736 0.961 . S
C2749 H2737 0.959 . S
C2749 C2747 1.561 . S
C2750 C2747 1.526 . S
C2750 C2751 1.396 . S
C2750 C2755 1.390 . S
C2751 C2745 1.465 . S
C2751 C2750 1.396 . S
C2751 C2752 1.399 . S
C2752 H2738 0.929 . S
C2752 C2751 1.399 . S
C2752 C2753 1.385 . S
C2753 H2739 0.931 . S
C2753 C2752 1.385 . S
C2753 C2754 1.389 . S
C2754 C2753 1.389 . S
C2754 C2755 1.387 . S
C2755 H2740 0.930 . S
C2755 C2750 1.390 . S
C2755 C2754 1.387 . S
H2756 C2768 0.930 . S
H2757 C2770 0.930 . S
H2758 C2771 0.930 . S
H2759 C2775 0.959 . S
H2760 C2775 0.959 . S
H2761 C2775 0.961 . S
H2762 C2776 0.960 . S
H2763 C2776 0.961 . S
H2764 C2776 0.959 . S
H2765 C2779 0.929 . S
H2766 C2780 0.931 . S
H2767 C2782 0.930 . S
C2768 H2756 0.930 . S
C2768 C2769 1.399 . S
C2768 C2773 1.399 . S
C2769 C2768 1.399 . S
C2769 C2770 1.376 . S
C2770 H2757 0.930 . S
C2770 C2769 1.376 . S
C2770 C2771 1.388 . S
C2771 H2758 0.930 . S
C2771 C2770 1.388 . S
C2771 C2772 1.390 . S
C2772 C2771 1.390 . S
C2772 C2773 1.394 . S
C2772 C2778 1.465 . S
C2773 C2768 1.399 . S
C2773 C2772 1.394 . S
C2773 C2774 1.516 . S
C2774 C2773 1.516 . S
C2774 C2775 1.502 . S
C2774 C2776 1.561 . S
C2774 C2777 1.526 . S
C2775 H2759 0.959 . S
C2775 H2760 0.959 . S
C2775 H2761 0.961 . S
C2775 C2774 1.502 . S
C2776 H2762 0.960 . S
C2776 H2763 0.961 . S
C2776 H2764 0.959 . S
C2776 C2774 1.561 . S
C2777 C2774 1.526 . S
C2777 C2778 1.396 . S
C2777 C2782 1.390 . S
C2778 C2772 1.465 . S
C2778 C2777 1.396 . S
C2778 C2779 1.399 . S
C2779 H2765 0.929 . S
C2779 C2778 1.399 . S
C2779 C2780 1.385 . S
C2780 H2766 0.931 . S
C2780 C2779 1.385 . S
C2780 C2781 1.389 . S
C2781 C2780 1.389 . S
C2781 C2782 1.387 . S
C2782 H2767 0.930 . S
C2782 C2777 1.390 . S
C2782 C2781 1.387 . S
H2783 C2795 0.930 . S
H2784 C2797 0.930 . S
H2785 C2798 0.930 . S
H2786 C2802 0.959 . S
H2787 C2802 0.959 . S
H2788 C2802 0.961 . S
H2789 C2803 0.960 . S
H2790 C2803 0.961 . S
H2791 C2803 0.959 . S
H2792 C2806 0.929 . S
H2793 C2807 0.931 . S
H2794 C2809 0.930 . S
C2795 H2783 0.930 . S
C2795 C2796 1.399 . S
C2795 C2800 1.399 . S
C2796 C2795 1.399 . S
C2796 C2797 1.376 . S
C2797 H2784 0.930 . S
C2797 C2796 1.376 . S
C2797 C2798 1.388 . S
C2798 H2785 0.930 . S
C2798 C2797 1.388 . S
C2798 C2799 1.390 . S
C2799 C2798 1.390 . S
C2799 C2800 1.394 . S
C2799 C2805 1.465 . S
C2800 C2795 1.399 . S
C2800 C2799 1.394 . S
C2800 C2801 1.516 . S
C2801 C2800 1.516 . S
C2801 C2802 1.502 . S
C2801 C2803 1.561 . S
C2801 C2804 1.526 . S
C2802 H2786 0.959 . S
C2802 H2787 0.959 . S
C2802 H2788 0.961 . S
C2802 C2801 1.502 . S
C2803 H2789 0.960 . S
C2803 H2790 0.961 . S
C2803 H2791 0.959 . S
C2803 C2801 1.561 . S
C2804 C2801 1.526 . S
C2804 C2805 1.396 . S
C2804 C2809 1.390 . S
C2805 C2799 1.465 . S
C2805 C2804 1.396 . S
C2805 C2806 1.399 . S
C2806 H2792 0.929 . S
C2806 C2805 1.399 . S
C2806 C2807 1.385 . S
C2807 H2793 0.931 . S
C2807 C2806 1.385 . S
C2807 C2808 1.389 . S
C2808 C2807 1.389 . S
C2808 C2809 1.387 . S
C2809 H2794 0.930 . S
C2809 C2804 1.390 . S
C2809 C2808 1.387 . S
H2810 C2822 0.930 . S
H2811 C2824 0.930 . S
H2812 C2825 0.930 . S
H2813 C2829 0.959 . S
H2814 C2829 0.959 . S
H2815 C2829 0.961 . S
H2816 C2830 0.960 . S
H2817 C2830 0.961 . S
H2818 C2830 0.959 1_655 S
H2819 C2833 0.929 . S
H2820 C2834 0.931 . S
H2821 C2836 0.930 . S
C2822 H2810 0.930 . S
C2822 C2823 1.399 . S
C2822 C2827 1.399 . S
C2823 C2822 1.399 . S
C2823 C2824 1.376 1_455 S
C2824 H2811 0.930 . S
C2824 C2823 1.376 1_655 S
C2824 C2825 1.388 . S
C2825 H2812 0.930 . S
C2825 C2824 1.388 . S
C2825 C2826 1.390 . S
C2826 C2825 1.390 . S
C2826 C2827 1.394 1_655 S
C2826 C2832 1.465 . S
C2827 C2822 1.399 . S
C2827 C2826 1.394 1_455 S
C2827 C2828 1.516 . S
C2828 C2827 1.516 . S
C2828 C2829 1.502 . S
C2828 C2830 1.561 . S
C2828 C2831 1.526 . S
C2829 H2813 0.959 . S
C2829 H2814 0.959 . S
C2829 H2815 0.961 . S
C2829 C2828 1.502 . S
C2830 H2816 0.960 . S
C2830 H2817 0.961 . S
C2830 H2818 0.959 1_455 S
C2830 C2828 1.561 . S
C2831 C2828 1.526 . S
C2831 C2832 1.396 1_455 S
C2831 C2836 1.390 . S
C2832 C2826 1.465 . S
C2832 C2831 1.396 1_655 S
C2832 C2833 1.399 . S
C2833 H2819 0.929 . S
C2833 C2832 1.399 . S
C2833 C2834 1.385 . S
C2834 H2820 0.931 . S
C2834 C2833 1.385 . S
C2834 C2835 1.389 . S
C2835 C2834 1.389 . S
C2835 C2836 1.387 1_655 S
C2836 H2821 0.930 . S
C2836 C2831 1.390 . S
C2836 C2835 1.387 1_455 S
H2837 C2849 0.930 . S
H2838 C2851 0.930 . S
H2839 C2852 0.930 . S
H2840 C2856 0.959 . S
H2841 C2856 0.959 . S
H2842 C2856 0.961 . S
H2843 C2857 0.960 . S
H2844 C2857 0.961 . S
H2845 C2857 0.959 . S
H2846 C2860 0.929 . S
H2847 C2861 0.931 . S
H2848 C2863 0.930 . S
C2849 H2837 0.930 . S
C2849 C2850 1.399 . S
C2849 C2854 1.399 . S
C2850 C2849 1.399 . S
C2850 C2851 1.376 . S
C2851 H2838 0.930 . S
C2851 C2850 1.376 . S
C2851 C2852 1.388 . S
C2852 H2839 0.930 . S
C2852 C2851 1.388 . S
C2852 C2853 1.390 . S
C2853 C2852 1.390 . S
C2853 C2854 1.394 . S
C2853 C2859 1.465 . S
C2854 C2849 1.399 . S
C2854 C2853 1.394 . S
C2854 C2855 1.516 . S
C2855 C2854 1.516 . S
C2855 C2856 1.502 . S
C2855 C2857 1.561 . S
C2855 C2858 1.526 . S
C2856 H2840 0.959 . S
C2856 H2841 0.959 . S
C2856 H2842 0.961 . S
C2856 C2855 1.502 . S
C2857 H2843 0.960 . S
C2857 H2844 0.961 . S
C2857 H2845 0.959 . S
C2857 C2855 1.561 . S
C2858 C2855 1.526 . S
C2858 C2859 1.396 . S
C2858 C2863 1.390 . S
C2859 C2853 1.465 . S
C2859 C2858 1.396 . S
C2859 C2860 1.399 . S
C2860 H2846 0.929 . S
C2860 C2859 1.399 . S
C2860 C2861 1.385 . S
C2861 H2847 0.931 . S
C2861 C2860 1.385 . S
C2861 C2862 1.389 . S
C2862 C2861 1.389 . S
C2862 C2863 1.387 . S
C2863 H2848 0.930 . S
C2863 C2858 1.390 . S
C2863 C2862 1.387 . S
H2864 C2876 0.930 . S
H2865 C2878 0.930 . S
H2866 C2879 0.930 . S
H2867 C2883 0.959 . S
H2868 C2883 0.959 . S
H2869 C2883 0.961 . S
H2870 C2884 0.960 . S
H2871 C2884 0.961 . S
H2872 C2884 0.959 . S
H2873 C2887 0.929 . S
H2874 C2888 0.931 . S
H2875 C2890 0.930 . S
C2876 H2864 0.930 . S
C2876 C2877 1.399 . S
C2876 C2881 1.399 . S
C2877 C2876 1.399 . S
C2877 C2878 1.376 . S
C2878 H2865 0.930 . S
C2878 C2877 1.376 . S
C2878 C2879 1.388 . S
C2879 H2866 0.930 . S
C2879 C2878 1.388 . S
C2879 C2880 1.390 . S
C2880 C2879 1.390 . S
C2880 C2881 1.394 . S
C2880 C2886 1.465 . S
C2881 C2876 1.399 . S
C2881 C2880 1.394 . S
C2881 C2882 1.516 . S
C2882 C2881 1.516 . S
C2882 C2883 1.502 . S
C2882 C2884 1.561 . S
C2882 C2885 1.526 . S
C2883 H2867 0.959 . S
C2883 H2868 0.959 . S
C2883 H2869 0.961 . S
C2883 C2882 1.502 . S
C2884 H2870 0.960 . S
C2884 H2871 0.961 . S
C2884 H2872 0.959 . S
C2884 C2882 1.561 . S
C2885 C2882 1.526 . S
C2885 C2886 1.396 . S
C2885 C2890 1.390 . S
C2886 C2880 1.465 . S
C2886 C2885 1.396 . S
C2886 C2887 1.399 . S
C2887 H2873 0.929 . S
C2887 C2886 1.399 . S
C2887 C2888 1.385 . S
C2888 H2874 0.931 . S
C2888 C2887 1.385 . S
C2888 C2889 1.389 . S
C2889 C2888 1.389 . S
C2889 C2890 1.387 . S
C2890 H2875 0.930 . S
C2890 C2885 1.390 . S
C2890 C2889 1.387 . S
H2891 C2903 0.930 . S
H2892 C2905 0.930 . S
H2893 C2906 0.930 . S
H2894 C2910 0.959 . S
H2895 C2910 0.959 . S
H2896 C2910 0.961 . S
H2897 C2911 0.960 . S
H2898 C2911 0.961 . S
H2899 C2911 0.959 . S
H2900 C2914 0.929 . S
H2901 C2915 0.931 . S
H2902 C2917 0.930 . S
C2903 H2891 0.930 . S
C2903 C2904 1.399 . S
C2903 C2908 1.399 . S
C2904 C2903 1.399 . S
C2904 C2905 1.376 . S
C2905 H2892 0.930 . S
C2905 C2904 1.376 . S
C2905 C2906 1.388 . S
C2906 H2893 0.930 . S
C2906 C2905 1.388 . S
C2906 C2907 1.390 . S
C2907 C2906 1.390 . S
C2907 C2908 1.394 . S
C2907 C2913 1.465 . S
C2908 C2903 1.399 . S
C2908 C2907 1.394 . S
C2908 C2909 1.516 . S
C2909 C2908 1.516 . S
C2909 C2910 1.502 . S
C2909 C2911 1.561 . S
C2909 C2912 1.526 . S
C2910 H2894 0.959 . S
C2910 H2895 0.959 . S
C2910 H2896 0.961 . S
C2910 C2909 1.502 . S
C2911 H2897 0.960 . S
C2911 H2898 0.961 . S
C2911 H2899 0.959 . S
C2911 C2909 1.561 . S
C2912 C2909 1.526 . S
C2912 C2913 1.396 . S
C2912 C2917 1.390 . S
C2913 C2907 1.465 . S
C2913 C2912 1.396 . S
C2913 C2914 1.399 . S
C2914 H2900 0.929 . S
C2914 C2913 1.399 . S
C2914 C2915 1.385 . S
C2915 H2901 0.931 . S
C2915 C2914 1.385 . S
C2915 C2916 1.389 . S
C2916 C2915 1.389 . S
C2916 C2917 1.387 . S
C2917 H2902 0.930 . S
C2917 C2912 1.390 . S
C2917 C2916 1.387 . S
H2918 C2930 0.930 . S
H2919 C2932 0.930 . S
H2920 C2933 0.930 . S
H2921 C2937 0.959 . S
H2922 C2937 0.959 . S
H2923 C2937 0.961 . S
H2924 C2938 0.960 . S
H2925 C2938 0.961 . S
H2926 C2938 0.959 . S
H2927 C2941 0.929 . S
H2928 C2942 0.931 . S
H2929 C2944 0.930 . S
C2930 H2918 0.930 . S
C2930 C2931 1.399 . S
C2930 C2935 1.399 . S
C2931 C2930 1.399 . S
C2931 C2932 1.376 . S
C2932 H2919 0.930 . S
C2932 C2931 1.376 . S
C2932 C2933 1.388 . S
C2933 H2920 0.930 . S
C2933 C2932 1.388 . S
C2933 C2934 1.390 . S
C2934 C2933 1.390 . S
C2934 C2935 1.394 . S
C2934 C2940 1.465 . S
C2935 C2930 1.399 . S
C2935 C2934 1.394 . S
C2935 C2936 1.516 . S
C2936 C2935 1.516 . S
C2936 C2937 1.502 . S
C2936 C2938 1.561 . S
C2936 C2939 1.526 . S
C2937 H2921 0.959 . S
C2937 H2922 0.959 . S
C2937 H2923 0.961 . S
C2937 C2936 1.502 . S
C2938 H2924 0.960 . S
C2938 H2925 0.961 . S
C2938 H2926 0.959 . S
C2938 C2936 1.561 . S
C2939 C2936 1.526 . S
C2939 C2940 1.396 . S
C2939 C2944 1.390 . S
C2940 C2934 1.465 . S
C2940 C2939 1.396 . S
C2940 C2941 1.399 . S
C2941 H2927 0.929 . S
C2941 C2940 1.399 . S
C2941 C2942 1.385 . S
C2942 H2928 0.931 . S
C2942 C2941 1.385 . S
C2942 C2943 1.389 . S
C2943 C2942 1.389 . S
C2943 C2944 1.387 . S
C2944 H2929 0.930 . S
C2944 C2939 1.390 . S
C2944 C2943 1.387 . S
H2945 C2957 0.930 . S
H2946 C2959 0.930 . S
H2947 C2960 0.930 . S
H2948 C2964 0.959 . S
H2949 C2964 0.959 . S
H2950 C2964 0.961 . S
H2951 C2965 0.960 . S
H2952 C2965 0.961 . S
H2953 C2965 0.959 . S
H2954 C2968 0.929 . S
H2955 C2969 0.931 . S
H2956 C2971 0.930 . S
C2957 H2945 0.930 . S
C2957 C2958 1.399 . S
C2957 C2962 1.399 . S
C2958 C2957 1.399 . S
C2958 C2959 1.376 . S
C2959 H2946 0.930 . S
C2959 C2958 1.376 . S
C2959 C2960 1.388 . S
C2960 H2947 0.930 . S
C2960 C2959 1.388 . S
C2960 C2961 1.390 . S
C2961 C2960 1.390 . S
C2961 C2962 1.394 . S
C2961 C2967 1.465 . S
C2962 C2957 1.399 . S
C2962 C2961 1.394 . S
C2962 C2963 1.516 . S
C2963 C2962 1.516 . S
C2963 C2964 1.502 . S
C2963 C2965 1.561 . S
C2963 C2966 1.526 . S
C2964 H2948 0.959 . S
C2964 H2949 0.959 . S
C2964 H2950 0.961 . S
C2964 C2963 1.502 . S
C2965 H2951 0.960 . S
C2965 H2952 0.961 . S
C2965 H2953 0.959 . S
C2965 C2963 1.561 . S
C2966 C2963 1.526 . S
C2966 C2967 1.396 . S
C2966 C2971 1.390 . S
C2967 C2961 1.465 . S
C2967 C2966 1.396 . S
C2967 C2968 1.399 . S
C2968 H2954 0.929 . S
C2968 C2967 1.399 . S
C2968 C2969 1.385 . S
C2969 H2955 0.931 . S
C2969 C2968 1.385 . S
C2969 C2970 1.389 . S
C2970 C2969 1.389 . S
C2970 C2971 1.387 . S
C2971 H2956 0.930 . S
C2971 C2966 1.390 . S
C2971 C2970 1.387 . S
H2972 C2984 0.930 . S
H2973 C2986 0.930 . S
H2974 C2987 0.930 . S
H2975 C2991 0.959 . S
H2976 C2991 0.959 . S
H2977 C2991 0.961 . S
H2978 C2992 0.960 . S
H2979 C2992 0.961 . S
H2980 C2992 0.959 . S
H2981 C2995 0.929 . S
H2982 C2996 0.931 . S
H2983 C2998 0.930 . S
C2984 H2972 0.930 . S
C2984 C2985 1.399 . S
C2984 C2989 1.399 . S
C2985 C2984 1.399 . S
C2985 C2986 1.376 . S
C2986 H2973 0.930 . S
C2986 C2985 1.376 . S
C2986 C2987 1.388 . S
C2987 H2974 0.930 . S
C2987 C2986 1.388 . S
C2987 C2988 1.390 . S
C2988 C2987 1.390 . S
C2988 C2989 1.394 . S
C2988 C2994 1.465 . S
C2989 C2984 1.399 . S
C2989 C2988 1.394 . S
C2989 C2990 1.516 . S
C2990 C2989 1.516 . S
C2990 C2991 1.502 . S
C2990 C2992 1.561 . S
C2990 C2993 1.526 . S
C2991 H2975 0.959 . S
C2991 H2976 0.959 . S
C2991 H2977 0.961 . S
C2991 C2990 1.502 . S
C2992 H2978 0.960 . S
C2992 H2979 0.961 . S
C2992 H2980 0.959 . S
C2992 C2990 1.561 . S
C2993 C2990 1.526 . S
C2993 C2994 1.396 . S
C2993 C2998 1.390 . S
C2994 C2988 1.465 . S
C2994 C2993 1.396 . S
C2994 C2995 1.399 . S
C2995 H2981 0.929 . S
C2995 C2994 1.399 . S
C2995 C2996 1.385 . S
C2996 H2982 0.931 . S
C2996 C2995 1.385 . S
C2996 C2997 1.389 . S
C2997 C2996 1.389 . S
C2997 C2998 1.387 . S
C2998 H2983 0.930 . S
C2998 C2993 1.390 . S
C2998 C2997 1.387 . S
H2999 C3011 0.930 . S
H3000 C3013 0.930 . S
H3001 C3014 0.930 . S
H3002 C3018 0.959 . S
H3003 C3018 0.959 . S
H3004 C3018 0.961 . S
H3005 C3019 0.960 . S
H3006 C3019 0.961 . S
H3007 C3019 0.959 . S
H3008 C3022 0.929 . S
H3009 C3023 0.931 . S
H3010 C3025 0.930 . S
C3011 H2999 0.930 . S
C3011 C3012 1.399 . S
C3011 C3016 1.399 . S
C3012 C3011 1.399 . S
C3012 C3013 1.376 . S
C3013 H3000 0.930 . S
C3013 C3012 1.376 . S
C3013 C3014 1.388 . S
C3014 H3001 0.930 . S
C3014 C3013 1.388 . S
C3014 C3015 1.390 . S
C3015 C3014 1.390 . S
C3015 C3016 1.394 . S
C3015 C3021 1.465 . S
C3016 C3011 1.399 . S
C3016 C3015 1.394 . S
C3016 C3017 1.516 . S
C3017 C3016 1.516 . S
C3017 C3018 1.502 . S
C3017 C3019 1.561 . S
C3017 C3020 1.526 . S
C3018 H3002 0.959 . S
C3018 H3003 0.959 . S
C3018 H3004 0.961 . S
C3018 C3017 1.502 . S
C3019 H3005 0.960 . S
C3019 H3006 0.961 . S
C3019 H3007 0.959 . S
C3019 C3017 1.561 . S
C3020 C3017 1.526 . S
C3020 C3021 1.396 . S
C3020 C3025 1.390 . S
C3021 C3015 1.465 . S
C3021 C3020 1.396 . S
C3021 C3022 1.399 . S
C3022 H3008 0.929 . S
C3022 C3021 1.399 . S
C3022 C3023 1.385 . S
C3023 H3009 0.931 . S
C3023 C3022 1.385 . S
C3023 C3024 1.389 . S
C3024 C3023 1.389 . S
C3024 C3025 1.387 . S
C3025 H3010 0.930 . S
C3025 C3020 1.390 . S
C3025 C3024 1.387 . S
H3026 C3038 0.930 . S
H3027 C3040 0.930 . S
H3028 C3041 0.930 . S
H3029 C3045 0.959 . S
H3030 C3045 0.959 . S
H3031 C3045 0.961 . S
H3032 C3046 0.960 . S
H3033 C3046 0.961 . S
H3034 C3046 0.959 . S
H3035 C3049 0.929 . S
H3036 C3050 0.931 . S
H3037 C3052 0.930 . S
C3038 H3026 0.930 . S
C3038 C3039 1.399 . S
C3038 C3043 1.399 . S
C3039 C3038 1.399 . S
C3039 C3040 1.376 . S
C3040 H3027 0.930 . S
C3040 C3039 1.376 . S
C3040 C3041 1.388 . S
C3041 H3028 0.930 . S
C3041 C3040 1.388 . S
C3041 C3042 1.390 . S
C3042 C3041 1.390 . S
C3042 C3043 1.394 . S
C3042 C3048 1.465 . S
C3043 C3038 1.399 . S
C3043 C3042 1.394 . S
C3043 C3044 1.516 . S
C3044 C3043 1.516 . S
C3044 C3045 1.502 . S
C3044 C3046 1.561 . S
C3044 C3047 1.526 . S
C3045 H3029 0.959 . S
C3045 H3030 0.959 . S
C3045 H3031 0.961 . S
C3045 C3044 1.502 . S
C3046 H3032 0.960 . S
C3046 H3033 0.961 . S
C3046 H3034 0.959 . S
C3046 C3044 1.561 . S
C3047 C3044 1.526 . S
C3047 C3048 1.396 . S
C3047 C3052 1.390 . S
C3048 C3042 1.465 . S
C3048 C3047 1.396 . S
C3048 C3049 1.399 . S
C3049 H3035 0.929 . S
C3049 C3048 1.399 . S
C3049 C3050 1.385 . S
C3050 H3036 0.931 . S
C3050 C3049 1.385 . S
C3050 C3051 1.389 . S
C3051 C3050 1.389 . S
C3051 C3052 1.387 . S
C3052 H3037 0.930 . S
C3052 C3047 1.390 . S
C3052 C3051 1.387 . S
H3053 C3065 0.930 . S
H3054 C3067 0.930 . S
H3055 C3068 0.930 . S
H3056 C3072 0.959 . S
H3057 C3072 0.959 . S
H3058 C3072 0.961 . S
H3059 C3073 0.960 . S
H3060 C3073 0.961 . S
H3061 C3073 0.959 . S
H3062 C3076 0.929 . S
H3063 C3077 0.931 . S
H3064 C3079 0.930 . S
C3065 H3053 0.930 . S
C3065 C3066 1.399 . S
C3065 C3070 1.399 . S
C3066 C3065 1.399 . S
C3066 C3067 1.376 . S
C3067 H3054 0.930 . S
C3067 C3066 1.376 . S
C3067 C3068 1.388 . S
C3068 H3055 0.930 . S
C3068 C3067 1.388 . S
C3068 C3069 1.390 . S
C3069 C3068 1.390 . S
C3069 C3070 1.394 . S
C3069 C3075 1.465 . S
C3070 C3065 1.399 . S
C3070 C3069 1.394 . S
C3070 C3071 1.516 . S
C3071 C3070 1.516 . S
C3071 C3072 1.502 . S
C3071 C3073 1.561 . S
C3071 C3074 1.526 . S
C3072 H3056 0.959 . S
C3072 H3057 0.959 . S
C3072 H3058 0.961 . S
C3072 C3071 1.502 . S
C3073 H3059 0.960 . S
C3073 H3060 0.961 . S
C3073 H3061 0.959 . S
C3073 C3071 1.561 . S
C3074 C3071 1.526 . S
C3074 C3075 1.396 . S
C3074 C3079 1.390 . S
C3075 C3069 1.465 . S
C3075 C3074 1.396 . S
C3075 C3076 1.399 . S
C3076 H3062 0.929 . S
C3076 C3075 1.399 . S
C3076 C3077 1.385 . S
C3077 H3063 0.931 . S
C3077 C3076 1.385 . S
C3077 C3078 1.389 . S
C3078 C3077 1.389 . S
C3078 C3079 1.387 . S
C3079 H3064 0.930 . S
C3079 C3074 1.390 . S
C3079 C3078 1.387 . S
H3080 C3092 0.930 . S
H3081 C3094 0.930 . S
H3082 C3095 0.930 . S
H3083 C3099 0.959 . S
H3084 C3099 0.959 . S
H3085 C3099 0.961 . S
H3086 C3100 0.960 . S
H3087 C3100 0.961 . S
H3088 C3100 0.959 . S
H3089 C3103 0.929 . S
H3090 C3104 0.931 . S
H3091 C3106 0.930 . S
C3092 H3080 0.930 . S
C3092 C3093 1.399 . S
C3092 C3097 1.399 . S
C3093 C3092 1.399 . S
C3093 C3094 1.376 . S
C3094 H3081 0.930 . S
C3094 C3093 1.376 . S
C3094 C3095 1.388 . S
C3095 H3082 0.930 . S
C3095 C3094 1.388 . S
C3095 C3096 1.390 . S
C3096 C3095 1.390 . S
C3096 C3097 1.394 . S
C3096 C3102 1.465 . S
C3097 C3092 1.399 . S
C3097 C3096 1.394 . S
C3097 C3098 1.516 . S
C3098 C3097 1.516 . S
C3098 C3099 1.502 . S
C3098 C3100 1.561 . S
C3098 C3101 1.526 . S
C3099 H3083 0.959 . S
C3099 H3084 0.959 . S
C3099 H3085 0.961 . S
C3099 C3098 1.502 . S
C3100 H3086 0.960 . S
C3100 H3087 0.961 . S
C3100 H3088 0.959 . S
C3100 C3098 1.561 . S
C3101 C3098 1.526 . S
C3101 C3102 1.396 . S
C3101 C3106 1.390 . S
C3102 C3096 1.465 . S
C3102 C3101 1.396 . S
C3102 C3103 1.399 . S
C3103 H3089 0.929 . S
C3103 C3102 1.399 . S
C3103 C3104 1.385 . S
C3104 H3090 0.931 . S
C3104 C3103 1.385 . S
C3104 C3105 1.389 . S
C3105 C3104 1.389 . S
C3105 C3106 1.387 . S
C3106 H3091 0.930 . S
C3106 C3101 1.390 . S
C3106 C3105 1.387 . S
H3107 C3119 0.930 . S
H3108 C3121 0.930 . S
H3109 C3122 0.930 . S
H3110 C3126 0.959 . S
H3111 C3126 0.959 . S
H3112 C3126 0.961 . S
H3113 C3127 0.960 . S
H3114 C3127 0.961 . S
H3115 C3127 0.959 . S
H3116 C3130 0.929 . S
H3117 C3131 0.931 . S
H3118 C3133 0.930 . S
C3119 H3107 0.930 . S
C3119 C3120 1.399 . S
C3119 C3124 1.399 . S
C3120 C3119 1.399 . S
C3120 C3121 1.376 . S
C3121 H3108 0.930 . S
C3121 C3120 1.376 . S
C3121 C3122 1.388 . S
C3122 H3109 0.930 . S
C3122 C3121 1.388 . S
C3122 C3123 1.390 . S
C3123 C3122 1.390 . S
C3123 C3124 1.394 . S
C3123 C3129 1.465 . S
C3124 C3119 1.399 . S
C3124 C3123 1.394 . S
C3124 C3125 1.516 . S
C3125 C3124 1.516 . S
C3125 C3126 1.502 . S
C3125 C3127 1.561 . S
C3125 C3128 1.526 . S
C3126 H3110 0.959 . S
C3126 H3111 0.959 . S
C3126 H3112 0.961 . S
C3126 C3125 1.502 . S
C3127 H3113 0.960 . S
C3127 H3114 0.961 . S
C3127 H3115 0.959 . S
C3127 C3125 1.561 . S
C3128 C3125 1.526 . S
C3128 C3129 1.396 . S
C3128 C3133 1.390 . S
C3129 C3123 1.465 . S
C3129 C3128 1.396 . S
C3129 C3130 1.399 . S
C3130 H3116 0.929 . S
C3130 C3129 1.399 . S
C3130 C3131 1.385 . S
C3131 H3117 0.931 . S
C3131 C3130 1.385 . S
C3131 C3132 1.389 . S
C3132 C3131 1.389 . S
C3132 C3133 1.387 . S
C3133 H3118 0.930 . S
C3133 C3128 1.390 . S
C3133 C3132 1.387 . S
H3134 C3146 0.930 . S
H3135 C3148 0.930 . S
H3136 C3149 0.930 . S
H3137 C3153 0.959 . S
H3138 C3153 0.959 . S
H3139 C3153 0.961 . S
H3140 C3154 0.960 . S
H3141 C3154 0.961 . S
H3142 C3154 0.959 . S
H3143 C3157 0.929 . S
H3144 C3158 0.931 . S
H3145 C3160 0.930 . S
C3146 H3134 0.930 . S
C3146 C3147 1.399 . S
C3146 C3151 1.399 . S
C3147 C3146 1.399 . S
C3147 C3148 1.376 . S
C3148 H3135 0.930 . S
C3148 C3147 1.376 . S
C3148 C3149 1.388 . S
C3149 H3136 0.930 . S
C3149 C3148 1.388 . S
C3149 C3150 1.390 . S
C3150 C3149 1.390 . S
C3150 C3151 1.394 . S
C3150 C3156 1.465 . S
C3151 C3146 1.399 . S
C3151 C3150 1.394 . S
C3151 C3152 1.516 . S
C3152 C3151 1.516 . S
C3152 C3153 1.502 . S
C3152 C3154 1.561 . S
C3152 C3155 1.526 . S
C3153 H3137 0.959 . S
C3153 H3138 0.959 . S
C3153 H3139 0.961 . S
C3153 C3152 1.502 . S
C3154 H3140 0.960 . S
C3154 H3141 0.961 . S
C3154 H3142 0.959 . S
C3154 C3152 1.561 . S
C3155 C3152 1.526 . S
C3155 C3156 1.396 . S
C3155 C3160 1.390 . S
C3156 C3150 1.465 . S
C3156 C3155 1.396 . S
C3156 C3157 1.399 . S
C3157 H3143 0.929 . S
C3157 C3156 1.399 . S
C3157 C3158 1.385 . S
C3158 H3144 0.931 . S
C3158 C3157 1.385 . S
C3158 C3159 1.389 . S
C3159 C3158 1.389 . S
C3159 C3160 1.387 . S
C3160 H3145 0.930 . S
C3160 C3155 1.390 . S
C3160 C3159 1.387 . S
H3161 C3173 0.930 . S
H3162 C3175 0.930 . S
H3163 C3176 0.930 . S
H3164 C3180 0.959 . S
H3165 C3180 0.959 . S
H3166 C3180 0.961 . S
H3167 C3181 0.960 . S
H3168 C3181 0.961 . S
H3169 C3181 0.959 . S
H3170 C3184 0.929 . S
H3171 C3185 0.931 . S
H3172 C3187 0.930 . S
C3173 H3161 0.930 . S
C3173 C3174 1.397 . S
C3173 C3178 1.399 . S
C3174 C3173 1.397 . S
C3174 C3175 1.380 1_554 S
C3175 H3162 0.930 . S
C3175 C3174 1.380 1_556 S
C3175 C3176 1.388 . S
C3176 H3163 0.930 . S
C3176 C3175 1.388 . S
C3176 C3177 1.390 . S
C3177 C3176 1.390 . S
C3177 C3178 1.394 1_556 S
C3177 C3183 1.465 . S
C3178 C3173 1.399 . S
C3178 C3177 1.394 1_554 S
C3178 C3179 1.516 . S
C3179 C3178 1.516 . S
C3179 C3180 1.502 . S
C3179 C3181 1.561 . S
C3179 C3182 1.526 . S
C3180 H3164 0.959 . S
C3180 H3165 0.959 . S
C3180 H3166 0.961 . S
C3180 C3179 1.502 . S
C3181 H3167 0.960 . S
C3181 H3168 0.961 . S
C3181 H3169 0.959 . S
C3181 C3179 1.561 . S
C3182 C3179 1.526 . S
C3182 C3183 1.396 1_554 S
C3182 C3187 1.390 . S
C3183 C3177 1.465 . S
C3183 C3182 1.396 1_556 S
C3183 C3184 1.399 . S
C3184 H3170 0.929 . S
C3184 C3183 1.399 . S
C3184 C3185 1.385 . S
C3185 H3171 0.931 . S
C3185 C3184 1.385 . S
C3185 C3186 1.389 . S
C3186 C3185 1.389 . S
C3186 C3187 1.387 1_556 S
C3187 H3172 0.930 . S
C3187 C3182 1.390 . S
C3187 C3186 1.387 1_554 S
H3188 C3200 0.930 . S
H3189 C3202 0.930 . S
H3190 C3203 0.930 . S
H3191 C3207 0.959 . S
H3192 C3207 0.959 . S
H3193 C3207 0.961 . S
H3194 C3208 0.960 . S
H3195 C3208 0.961 . S
H3196 C3208 0.959 . S
H3197 C3211 0.929 . S
H3198 C3212 0.931 . S
H3199 C3214 0.930 . S
C3200 H3188 0.930 . S
C3200 C3201 1.399 . S
C3200 C3205 1.399 . S
C3201 C3200 1.399 . S
C3201 C3202 1.376 . S
C3202 H3189 0.930 . S
C3202 C3201 1.376 . S
C3202 C3203 1.388 . S
C3203 H3190 0.930 . S
C3203 C3202 1.388 . S
C3203 C3204 1.390 . S
C3204 C3203 1.390 . S
C3204 C3205 1.394 . S
C3204 C3210 1.465 . S
C3205 C3200 1.399 . S
C3205 C3204 1.394 . S
C3205 C3206 1.516 . S
C3206 C3205 1.516 . S
C3206 C3207 1.502 . S
C3206 C3208 1.561 . S
C3206 C3209 1.526 . S
C3207 H3191 0.959 . S
C3207 H3192 0.959 . S
C3207 H3193 0.961 . S
C3207 C3206 1.502 . S
C3208 H3194 0.960 . S
C3208 H3195 0.961 . S
C3208 H3196 0.959 . S
C3208 C3206 1.561 . S
C3209 C3206 1.526 . S
C3209 C3210 1.396 . S
C3209 C3214 1.390 . S
C3210 C3204 1.465 . S
C3210 C3209 1.396 . S
C3210 C3211 1.399 . S
C3211 H3197 0.929 . S
C3211 C3210 1.399 . S
C3211 C3212 1.385 . S
C3212 H3198 0.931 . S
C3212 C3211 1.385 . S
C3212 C3213 1.389 . S
C3213 C3212 1.389 . S
C3213 C3214 1.387 . S
C3214 H3199 0.930 . S
C3214 C3209 1.390 . S
C3214 C3213 1.387 . S
H3215 C3227 0.930 . S
H3216 C3229 0.930 . S
H3217 C3230 0.930 . S
H3218 C3234 0.959 . S
H3219 C3234 0.959 . S
H3220 C3234 0.961 . S
H3221 C3235 0.960 . S
H3222 C3235 0.961 . S
H3223 C3235 0.959 . S
H3224 C3238 0.929 . S
H3225 C3239 0.931 1_556 S
H3226 C3241 0.930 . S
C3227 H3215 0.930 . S
C3227 C3228 1.399 . S
C3227 C3232 1.399 . S
C3228 C3227 1.399 . S
C3228 C3229 1.376 1_554 S
C3229 H3216 0.930 . S
C3229 C3228 1.376 1_556 S
C3229 C3230 1.388 . S
C3230 H3217 0.930 . S
C3230 C3229 1.388 . S
C3230 C3231 1.390 1_556 S
C3231 C3230 1.390 1_554 S
C3231 C3232 1.394 . S
C3231 C3237 1.465 . S
C3232 C3227 1.399 . S
C3232 C3231 1.394 . S
C3232 C3233 1.516 . S
C3233 C3232 1.516 . S
C3233 C3234 1.502 . S
C3233 C3235 1.561 . S
C3233 C3236 1.526 . S
C3234 H3218 0.959 . S
C3234 H3219 0.959 . S
C3234 H3220 0.961 . S
C3234 C3233 1.502 . S
C3235 H3221 0.960 . S
C3235 H3222 0.961 . S
C3235 H3223 0.959 . S
C3235 C3233 1.561 . S
C3236 C3233 1.526 . S
C3236 C3237 1.396 . S
C3236 C3241 1.390 . S
C3237 C3231 1.465 . S
C3237 C3236 1.396 . S
C3237 C3238 1.399 1_554 S
C3238 H3224 0.929 . S
C3238 C3237 1.399 1_556 S
C3238 C3239 1.385 1_556 S
C3239 H3225 0.931 1_554 S
C3239 C3238 1.385 1_554 S
C3239 C3240 1.389 . S
C3240 C3239 1.389 . S
C3240 C3241 1.387 . S
C3241 H3226 0.930 . S
C3241 C3236 1.390 . S
C3241 C3240 1.387 . S
H3242 C3254 0.930 . S
H3243 C3256 0.930 . S
H3244 C3257 0.930 . S
H3245 C3261 0.959 . S
H3246 C3261 0.959 . S
H3247 C3261 0.961 . S
H3248 C3262 0.960 . S
H3249 C3262 0.961 . S
H3250 C3262 0.959 . S
H3251 C3265 0.929 . S
H3252 C3266 0.931 . S
H3253 C3268 0.930 . S
C3254 H3242 0.930 . S
C3254 C3255 1.399 . S
C3254 C3259 1.399 . S
C3255 C3254 1.399 . S
C3255 C3256 1.376 . S
C3256 H3243 0.930 . S
C3256 C3255 1.376 . S
C3256 C3257 1.388 . S
C3257 H3244 0.930 . S
C3257 C3256 1.388 . S
C3257 C3258 1.390 . S
C3258 C3257 1.390 . S
C3258 C3259 1.394 . S
C3258 C3264 1.465 . S
C3259 C3254 1.399 . S
C3259 C3258 1.394 . S
C3259 C3260 1.516 . S
C3260 C3259 1.516 . S
C3260 C3261 1.502 . S
C3260 C3262 1.561 . S
C3260 C3263 1.526 . S
C3261 H3245 0.959 . S
C3261 H3246 0.959 . S
C3261 H3247 0.961 . S
C3261 C3260 1.502 . S
C3262 H3248 0.960 . S
C3262 H3249 0.961 . S
C3262 H3250 0.959 . S
C3262 C3260 1.561 . S
C3263 C3260 1.526 . S
C3263 C3264 1.396 . S
C3263 C3268 1.390 . S
C3264 C3258 1.465 . S
C3264 C3263 1.396 . S
C3264 C3265 1.399 . S
C3265 H3251 0.929 . S
C3265 C3264 1.399 . S
C3265 C3266 1.385 . S
C3266 H3252 0.931 . S
C3266 C3265 1.385 . S
C3266 C3267 1.389 . S
C3267 C3266 1.389 . S
C3267 C3268 1.387 . S
C3268 H3253 0.930 . S
C3268 C3263 1.390 . S
C3268 C3267 1.387 . S
H3269 C3281 0.930 . S
H3270 C3283 0.930 . S
H3271 C3284 0.930 . S
H3272 C3288 0.959 . S
H3273 C3288 0.959 . S
H3274 C3288 0.961 . S
H3275 C3289 0.960 . S
H3276 C3289 0.961 . S
H3277 C3289 0.959 . S
H3278 C3292 0.929 . S
H3279 C3293 0.931 . S
H3280 C3295 0.930 . S
C3281 H3269 0.930 . S
C3281 C3282 1.399 . S
C3281 C3286 1.399 . S
C3282 C3281 1.399 . S
C3282 C3283 1.376 . S
C3283 H3270 0.930 . S
C3283 C3282 1.376 . S
C3283 C3284 1.388 . S
C3284 H3271 0.930 . S
C3284 C3283 1.388 . S
C3284 C3285 1.390 . S
C3285 C3284 1.390 . S
C3285 C3286 1.394 . S
C3285 C3291 1.465 . S
C3286 C3281 1.399 . S
C3286 C3285 1.394 . S
C3286 C3287 1.516 . S
C3287 C3286 1.516 . S
C3287 C3288 1.502 . S
C3287 C3289 1.561 . S
C3287 C3290 1.526 . S
C3288 H3272 0.959 . S
C3288 H3273 0.959 . S
C3288 H3274 0.961 . S
C3288 C3287 1.502 . S
C3289 H3275 0.960 . S
C3289 H3276 0.961 . S
C3289 H3277 0.959 . S
C3289 C3287 1.561 . S
C3290 C3287 1.526 . S
C3290 C3291 1.396 . S
C3290 C3295 1.390 . S
C3291 C3285 1.465 . S
C3291 C3290 1.396 . S
C3291 C3292 1.399 . S
C3292 H3278 0.929 . S
C3292 C3291 1.399 . S
C3292 C3293 1.385 . S
C3293 H3279 0.931 . S
C3293 C3292 1.385 . S
C3293 C3294 1.389 . S
C3294 C3293 1.389 . S
C3294 C3295 1.387 . S
C3295 H3280 0.930 . S
C3295 C3290 1.390 . S
C3295 C3294 1.387 . S
C729 C352 1.114 . S
C717 C5 1.171 . S
C744 C23 1.418 . S
C756 C380 1.306 . S
C771 C39 1.130 . S
C783 C398 1.059 . S
C810 C424 1.329 . S
C798 C42 1.439 . S
C825 C19 1.465 . S
C837 C447 1.390 . S
C864 C467 1.082 . S
C852 C28 1.148 . S
C891 C495 1.351 1_556 S
C879 C53 1.368 . S
C906 C9 1.109 . S
C918 C513 1.136 . S
C933 C65 1.426 . S
C945 C354 1.434 . S
C960 C75 1.096 . S
C972 C376 1.136 . S
C999 C400 1.432 . S
C987 C93 1.425 . S
C1026 C421 1.047 . S
C1014 C109 1.087 . S
C1041 C56 1.139 . S
C1053 C444 1.113 . S
C1080 C469 1.327 . S
C1068 C81 1.339 . S
C1107 C491 1.098 . S
C1095 C84 1.119 . S
C1134 C515 1.385 . S
C1122 C103 1.400 . S
C1161 C355 0.937 1_556 S
C1149 C107 1.020 . S
C1188 C538 1.215 . S
C1176 C121 1.218 . S
C1203 C131 1.111 . S
C1215 C562 1.076 . S
C1242 C586 1.144 . S
C1230 C140 1.173 . S
C1257 C61 1.057 . S
C1269 C516 1.052 . S
C1296 C401 1.014 . S
C1284 C70 1.020 . S
C1311 C137 1.127 . S
C1323 C607 1.148 . S
C1350 C632 1.071 . S
C1338 C165 1.104 . S
C1365 C173 1.161 . S
C1377 C353 1.135 . S
C1404 C630 1.038 . S
C1392 C182 1.037 . S
C1419 C207 1.100 . S
C1431 C399 1.097 . S
C1446 C219 0.993 . S
C1458 C609 1.021 . S
C1485 C448 0.942 . S
C1473 C187 1.042 . S
C1512 C560 1.157 . S
C1500 C205 1.149 . S
C1539 C492 1.012 . S
C1527 C221 1.010 . S
C1566 C652 1.071 . S
C1554 C168 1.133 . S
C1593 C357 0.914 . S
C1581 C224 1.030 . S
C1608 C243 1.337 . S
C1620 C628 1.257 . S
C1647 C403 0.929 . S
C1635 C252 1.043 . S
C1662 C277 1.258 . S
C1674 C606 1.235 . S
C1689 C233 1.344 . S
C1701 C445 1.308 . S
C1716 C249 0.962 . S
C1728 C564 0.839 . S
C1755 C490 1.379 . S
C1743 C261 1.361 1_545 S
C1770 C271 0.978 . S
C1782 C656 1.001 . S
C1797 C266 1.314 . S
C1809 C356 1.291 . S
C1824 C280 1.228 . S
C1836 C541 1.196 . S
C1851 C299 1.380 . S
C1863 C471 1.319 . S
C1878 C317 1.275 . S
C1890 C585 1.115 . S
C1917 C655 1.309 . S
C1905 C229 1.367 . S
C1944 C402 1.254 . S
C1932 C247 1.337 . S
C1971 C426 1.183 . S
C1959 C305 1.190 . S
C1998 C378 1.034 . S
C1986 C333 1.217 . S
C2013 C33 1.173 . S
C2025 C674 1.102 . S
C2052 C633 1.341 . S
C2040 C51 1.428 . S
C2079 C697 1.088 . S
C2067 C11 1.123 . S
C2094 C14 1.443 . S
C2106 C608 1.273 . S
C2121 C47 1.493 . S
C2133 C539 1.288 1_556 S
C2160 C559 1.158 . S
C2148 C0 1.105 . S
C2187 C587 1.240 . S
C2175 C25 1.414 . S
C2214 C651 1.123 . S
C2202 C37 1.127 . S
C2241 C676 1.434 . S
C2229 C163 1.429 . S
C2256 C117 1.095 . S
C2268 C629 1.133 . S
C2283 C135 1.427 . S
C2295 C699 1.432 . S
C2322 C605 1.043 . S
C2310 C151 1.092 . S
C2349 C536 1.113 . S
C2337 C154 1.139 . S
C2364 C123 1.295 . S
C2376 C561 1.330 . S
C2403 C583 1.127 . S
C2391 C126 1.120 . S
C2418 C145 1.397 . S
C2430 C653 1.389 . S
C2457 C677 0.901 . S
C2445 C149 1.041 . S
C2484 C446 1.216 . S
C2472 C79 1.219 . S
C2511 C470 1.026 . S
C2499 C89 1.119 . S
C2526 C98 1.178 . S
C2538 C494 1.178 . S
C2565 C654 0.970 . S
C2553 C159 1.068 . S
C2580 C112 1.047 . S
C2592 C700 1.005 1_556 S
C2619 C423 1.137 . S
C2607 C95 1.145 . S
C2646 C379 1.098 . S
C2634 C67 1.103 . S
C2661 C201 1.145 . S
C2673 C675 1.177 . S
C2700 C377 1.042 . S
C2688 C210 1.039 . S
C2727 C698 1.115 . S
C2715 C179 1.117 . S
C2742 C191 0.999 . S
C2754 C425 1.007 . S
C2769 C215 1.037 . S
C2781 C540 0.951 . S
C2796 C177 1.149 . S
C2808 C468 1.164 . S
C2823 C193 1.018 . S
C2835 C584 1.028 . S
C2850 C196 1.110 . S
C2862 C514 1.144 . S
C2889 C679 1.031 . S
C2877 C322 1.012 . S
C2904 C285 1.335 . S
C2916 C375 1.283 . S
C2943 C702 1.022 . S
C2931 C294 1.020 . S
C2958 C319 1.262 . S
C2970 C422 1.225 . S
C2985 C331 1.342 . S
C2997 C537 1.320 . S
C3024 C472 0.899 . S
C3012 C291 0.923 . S
C3039 C303 1.372 . S
C3051 C582 1.317 . S
C3078 C518 0.963 . S
C3066 C313 0.989 . S
C3105 C678 1.307 . S
C3093 C308 1.306 . S
C3132 C449 1.139 . S
C3120 C238 1.261 . S
C3147 C257 1.384 . S
C3159 C563 1.302 . S
C3186 C493 1.233 . S
C3174 C275 1.276 . S
C3213 C517 1.325 . S
C3201 C327 1.353 . S
C3228 C289 1.334 . S
C3240 C701 1.265 . S
C3267 C610 1.093 . S
C3255 C263 1.234 . S
C3294 C631 1.152 . S
C3282 C235 1.207 . S
