# Generated by pormake.
# Topology iac, (4,6)-cn, num edge types: 1
# Building blocks:
#     Node 0, Type 0, BuildingBlock: NAHDIM_clean_sbu_0, # of connection points: 4
#     Node 1, Type 0, BuildingBlock: NAHDIM_clean_sbu_0, # of connection points: 4
#     Node 2, Type 0, BuildingBlock: NAHDIM_clean_sbu_0, # of connection points: 4
#     Node 3, Type 0, BuildingBlock: NAHDIM_clean_sbu_0, # of connection points: 4
#     Node 4, Type 0, BuildingBlock: NAHDIM_clean_sbu_0, # of connection points: 4
#     Node 5, Type 0, BuildingBlock: NAHDIM_clean_sbu_0, # of connection points: 4
#     Node 6, Type 0, BuildingBlock: NAHDIM_clean_sbu_0, # of connection points: 4
#     Node 7, Type 0, BuildingBlock: NAHDIM_clean_sbu_0, # of connection points: 4
#     Node 8, Type 0, BuildingBlock: NAHDIM_clean_sbu_0, # of connection points: 4
#     Node 9, Type 0, BuildingBlock: NAHDIM_clean_sbu_0, # of connection points: 4
#     Node 10, Type 0, BuildingBlock: NAHDIM_clean_sbu_0, # of connection points: 4
#     Node 11, Type 0, BuildingBlock: NAHDIM_clean_sbu_0, # of connection points: 4
#     Node 12, Type 0, BuildingBlock: NAHDIM_clean_sbu_0, # of connection points: 4
#     Node 13, Type 0, BuildingBlock: NAHDIM_clean_sbu_0, # of connection points: 4
#     Node 14, Type 0, BuildingBlock: NAHDIM_clean_sbu_0, # of connection points: 4
#     Node 15, Type 0, BuildingBlock: NAHDIM_clean_sbu_0, # of connection points: 4
#     Node 16, Type 0, BuildingBlock: NAHDIM_clean_sbu_0, # of connection points: 4
#     Node 17, Type 0, BuildingBlock: NAHDIM_clean_sbu_0, # of connection points: 4
#     Node 18, Type 0, BuildingBlock: NAHDIM_clean_sbu_0, # of connection points: 4
#     Node 19, Type 0, BuildingBlock: NAHDIM_clean_sbu_0, # of connection points: 4
#     Node 20, Type 0, BuildingBlock: NAHDIM_clean_sbu_0, # of connection points: 4
#     Node 21, Type 0, BuildingBlock: NAHDIM_clean_sbu_0, # of connection points: 4
#     Node 22, Type 0, BuildingBlock: NAHDIM_clean_sbu_0, # of connection points: 4
#     Node 23, Type 0, BuildingBlock: NAHDIM_clean_sbu_0, # of connection points: 4
#     Node 24, Type 1, BuildingBlock: JUFBIX_clean_sbu_0, # of connection points: 6
#     Node 25, Type 1, BuildingBlock: JUFBIX_clean_sbu_0, # of connection points: 6
#     Node 26, Type 1, BuildingBlock: JUFBIX_clean_sbu_0, # of connection points: 6
#     Node 27, Type 1, BuildingBlock: JUFBIX_clean_sbu_0, # of connection points: 6
#     Node 28, Type 1, BuildingBlock: JUFBIX_clean_sbu_0, # of connection points: 6
#     Node 29, Type 1, BuildingBlock: JUFBIX_clean_sbu_0, # of connection points: 6
#     Node 30, Type 1, BuildingBlock: JUFBIX_clean_sbu_0, # of connection points: 6
#     Node 31, Type 1, BuildingBlock: JUFBIX_clean_sbu_0, # of connection points: 6
#     Node 32, Type 1, BuildingBlock: JUFBIX_clean_sbu_0, # of connection points: 6
#     Node 33, Type 1, BuildingBlock: JUFBIX_clean_sbu_0, # of connection points: 6
#     Node 34, Type 1, BuildingBlock: JUFBIX_clean_sbu_0, # of connection points: 6
#     Node 35, Type 1, BuildingBlock: JUFBIX_clean_sbu_0, # of connection points: 6
#     Node 36, Type 1, BuildingBlock: JUFBIX_clean_sbu_0, # of connection points: 6
#     Node 37, Type 1, BuildingBlock: JUFBIX_clean_sbu_0, # of connection points: 6
#     Node 38, Type 1, BuildingBlock: JUFBIX_clean_sbu_0, # of connection points: 6
#     Node 39, Type 1, BuildingBlock: JUFBIX_clean_sbu_0, # of connection points: 6
#     Edge 40, Type (0, 1), BuildingBlock: KIFKEQ_clean_linker_1, # of connection points: 2
#     Edge 41, Type (0, 1), BuildingBlock: KIFKEQ_clean_linker_1, # of connection points: 2
#     Edge 42, Type (0, 1), BuildingBlock: KIFKEQ_clean_linker_1, # of connection points: 2
#     Edge 43, Type (0, 1), BuildingBlock: KIFKEQ_clean_linker_1, # of connection points: 2
#     Edge 44, Type (0, 1), BuildingBlock: KIFKEQ_clean_linker_1, # of connection points: 2
#     Edge 45, Type (0, 1), BuildingBlock: KIFKEQ_clean_linker_1, # of connection points: 2
#     Edge 46, Type (0, 1), BuildingBlock: KIFKEQ_clean_linker_1, # of connection points: 2
#     Edge 47, Type (0, 1), BuildingBlock: KIFKEQ_clean_linker_1, # of connection points: 2
#     Edge 48, Type (0, 1), BuildingBlock: KIFKEQ_clean_linker_1, # of connection points: 2
#     Edge 49, Type (0, 1), BuildingBlock: KIFKEQ_clean_linker_1, # of connection points: 2
#     Edge 50, Type (0, 1), BuildingBlock: KIFKEQ_clean_linker_1, # of connection points: 2
#     Edge 51, Type (0, 1), BuildingBlock: KIFKEQ_clean_linker_1, # of connection points: 2
#     Edge 52, Type (0, 1), BuildingBlock: KIFKEQ_clean_linker_1, # of connection points: 2
#     Edge 53, Type (0, 1), BuildingBlock: KIFKEQ_clean_linker_1, # of connection points: 2
#     Edge 54, Type (0, 1), BuildingBlock: KIFKEQ_clean_linker_1, # of connection points: 2
#     Edge 55, Type (0, 1), BuildingBlock: KIFKEQ_clean_linker_1, # of connection points: 2
#     Edge 56, Type (0, 1), BuildingBlock: KIFKEQ_clean_linker_1, # of connection points: 2
#     Edge 57, Type (0, 1), BuildingBlock: KIFKEQ_clean_linker_1, # of connection points: 2
#     Edge 58, Type (0, 1), BuildingBlock: KIFKEQ_clean_linker_1, # of connection points: 2
#     Edge 59, Type (0, 1), BuildingBlock: KIFKEQ_clean_linker_1, # of connection points: 2
#     Edge 60, Type (0, 1), BuildingBlock: KIFKEQ_clean_linker_1, # of connection points: 2
#     Edge 61, Type (0, 1), BuildingBlock: KIFKEQ_clean_linker_1, # of connection points: 2
#     Edge 62, Type (0, 1), BuildingBlock: KIFKEQ_clean_linker_1, # of connection points: 2
#     Edge 63, Type (0, 1), BuildingBlock: KIFKEQ_clean_linker_1, # of connection points: 2
#     Edge 64, Type (0, 1), BuildingBlock: KIFKEQ_clean_linker_1, # of connection points: 2
#     Edge 65, Type (0, 1), BuildingBlock: KIFKEQ_clean_linker_1, # of connection points: 2
#     Edge 66, Type (0, 1), BuildingBlock: KIFKEQ_clean_linker_1, # of connection points: 2
#     Edge 67, Type (0, 1), BuildingBlock: KIFKEQ_clean_linker_1, # of connection points: 2
#     Edge 68, Type (0, 1), BuildingBlock: KIFKEQ_clean_linker_1, # of connection points: 2
#     Edge 69, Type (0, 1), BuildingBlock: KIFKEQ_clean_linker_1, # of connection points: 2
#     Edge 70, Type (0, 1), BuildingBlock: KIFKEQ_clean_linker_1, # of connection points: 2
#     Edge 71, Type (0, 1), BuildingBlock: KIFKEQ_clean_linker_1, # of connection points: 2
#     Edge 72, Type (0, 1), BuildingBlock: KIFKEQ_clean_linker_1, # of connection points: 2
#     Edge 73, Type (0, 1), BuildingBlock: KIFKEQ_clean_linker_1, # of connection points: 2
#     Edge 74, Type (0, 1), BuildingBlock: KIFKEQ_clean_linker_1, # of connection points: 2
#     Edge 75, Type (0, 1), BuildingBlock: KIFKEQ_clean_linker_1, # of connection points: 2
#     Edge 76, Type (0, 1), BuildingBlock: KIFKEQ_clean_linker_1, # of connection points: 2
#     Edge 77, Type (0, 1), BuildingBlock: KIFKEQ_clean_linker_1, # of connection points: 2
#     Edge 78, Type (0, 1), BuildingBlock: KIFKEQ_clean_linker_1, # of connection points: 2
#     Edge 79, Type (0, 1), BuildingBlock: KIFKEQ_clean_linker_1, # of connection points: 2
#     Edge 80, Type (0, 1), BuildingBlock: KIFKEQ_clean_linker_1, # of connection points: 2
#     Edge 81, Type (0, 1), BuildingBlock: KIFKEQ_clean_linker_1, # of connection points: 2
#     Edge 82, Type (0, 1), BuildingBlock: KIFKEQ_clean_linker_1, # of connection points: 2
#     Edge 83, Type (0, 1), BuildingBlock: KIFKEQ_clean_linker_1, # of connection points: 2
#     Edge 84, Type (0, 1), BuildingBlock: KIFKEQ_clean_linker_1, # of connection points: 2
#     Edge 85, Type (0, 1), BuildingBlock: KIFKEQ_clean_linker_1, # of connection points: 2
#     Edge 86, Type (0, 1), BuildingBlock: KIFKEQ_clean_linker_1, # of connection points: 2
#     Edge 87, Type (0, 1), BuildingBlock: KIFKEQ_clean_linker_1, # of connection points: 2
#     Edge 88, Type (0, 1), BuildingBlock: KIFKEQ_clean_linker_1, # of connection points: 2
#     Edge 89, Type (0, 1), BuildingBlock: KIFKEQ_clean_linker_1, # of connection points: 2
#     Edge 90, Type (0, 1), BuildingBlock: KIFKEQ_clean_linker_1, # of connection points: 2
#     Edge 91, Type (0, 1), BuildingBlock: KIFKEQ_clean_linker_1, # of connection points: 2
#     Edge 92, Type (0, 1), BuildingBlock: KIFKEQ_clean_linker_1, # of connection points: 2
#     Edge 93, Type (0, 1), BuildingBlock: KIFKEQ_clean_linker_1, # of connection points: 2
#     Edge 94, Type (0, 1), BuildingBlock: KIFKEQ_clean_linker_1, # of connection points: 2
#     Edge 95, Type (0, 1), BuildingBlock: KIFKEQ_clean_linker_1, # of connection points: 2
#     Edge 96, Type (0, 1), BuildingBlock: KIFKEQ_clean_linker_1, # of connection points: 2
#     Edge 97, Type (0, 1), BuildingBlock: KIFKEQ_clean_linker_1, # of connection points: 2
#     Edge 98, Type (0, 1), BuildingBlock: KIFKEQ_clean_linker_1, # of connection points: 2
#     Edge 99, Type (0, 1), BuildingBlock: KIFKEQ_clean_linker_1, # of connection points: 2
#     Edge 100, Type (0, 1), BuildingBlock: KIFKEQ_clean_linker_1, # of connection points: 2
#     Edge 101, Type (0, 1), BuildingBlock: KIFKEQ_clean_linker_1, # of connection points: 2
#     Edge 102, Type (0, 1), BuildingBlock: KIFKEQ_clean_linker_1, # of connection points: 2
#     Edge 103, Type (0, 1), BuildingBlock: KIFKEQ_clean_linker_1, # of connection points: 2
#     Edge 104, Type (0, 1), BuildingBlock: KIFKEQ_clean_linker_1, # of connection points: 2
#     Edge 105, Type (0, 1), BuildingBlock: KIFKEQ_clean_linker_1, # of connection points: 2
#     Edge 106, Type (0, 1), BuildingBlock: KIFKEQ_clean_linker_1, # of connection points: 2
#     Edge 107, Type (0, 1), BuildingBlock: KIFKEQ_clean_linker_1, # of connection points: 2
#     Edge 108, Type (0, 1), BuildingBlock: KIFKEQ_clean_linker_1, # of connection points: 2
#     Edge 109, Type (0, 1), BuildingBlock: KIFKEQ_clean_linker_1, # of connection points: 2
#     Edge 110, Type (0, 1), BuildingBlock: KIFKEQ_clean_linker_1, # of connection points: 2
#     Edge 111, Type (0, 1), BuildingBlock: KIFKEQ_clean_linker_1, # of connection points: 2
#     Edge 112, Type (0, 1), BuildingBlock: KIFKEQ_clean_linker_1, # of connection points: 2
#     Edge 113, Type (0, 1), BuildingBlock: KIFKEQ_clean_linker_1, # of connection points: 2
#     Edge 114, Type (0, 1), BuildingBlock: KIFKEQ_clean_linker_1, # of connection points: 2
#     Edge 115, Type (0, 1), BuildingBlock: KIFKEQ_clean_linker_1, # of connection points: 2
#     Edge 116, Type (0, 1), BuildingBlock: KIFKEQ_clean_linker_1, # of connection points: 2
#     Edge 117, Type (0, 1), BuildingBlock: KIFKEQ_clean_linker_1, # of connection points: 2
#     Edge 118, Type (0, 1), BuildingBlock: KIFKEQ_clean_linker_1, # of connection points: 2
#     Edge 119, Type (0, 1), BuildingBlock: KIFKEQ_clean_linker_1, # of connection points: 2
#     Edge 120, Type (0, 1), BuildingBlock: KIFKEQ_clean_linker_1, # of connection points: 2
#     Edge 121, Type (0, 1), BuildingBlock: KIFKEQ_clean_linker_1, # of connection points: 2
#     Edge 122, Type (0, 1), BuildingBlock: KIFKEQ_clean_linker_1, # of connection points: 2
#     Edge 123, Type (0, 1), BuildingBlock: KIFKEQ_clean_linker_1, # of connection points: 2
#     Edge 124, Type (0, 1), BuildingBlock: KIFKEQ_clean_linker_1, # of connection points: 2
#     Edge 125, Type (0, 1), BuildingBlock: KIFKEQ_clean_linker_1, # of connection points: 2
#     Edge 126, Type (0, 1), BuildingBlock: KIFKEQ_clean_linker_1, # of connection points: 2
#     Edge 127, Type (0, 1), BuildingBlock: KIFKEQ_clean_linker_1, # of connection points: 2
#     Edge 128, Type (0, 1), BuildingBlock: KIFKEQ_clean_linker_1, # of connection points: 2
#     Edge 129, Type (0, 1), BuildingBlock: KIFKEQ_clean_linker_1, # of connection points: 2
#     Edge 130, Type (0, 1), BuildingBlock: KIFKEQ_clean_linker_1, # of connection points: 2
#     Edge 131, Type (0, 1), BuildingBlock: KIFKEQ_clean_linker_1, # of connection points: 2
#     Edge 132, Type (0, 1), BuildingBlock: KIFKEQ_clean_linker_1, # of connection points: 2
#     Edge 133, Type (0, 1), BuildingBlock: KIFKEQ_clean_linker_1, # of connection points: 2
#     Edge 134, Type (0, 1), BuildingBlock: KIFKEQ_clean_linker_1, # of connection points: 2
#     Edge 135, Type (0, 1), BuildingBlock: KIFKEQ_clean_linker_1, # of connection points: 2
# Relax obj value: 0.246
# Max RMSD: 0.238
# Mean RMSD: 0.154
data_MOF--net-iac--node1-NAHDIM_clean_sbu_0--node2-JUFBIX_clean_sbu_0--edge1-KIFKEQ_clean_linker_1
_symmetry_space_group_name_H-M    P1
_symmetry_Int_Tables_number       1
_symmetry_cell_setting            triclinic
loop_
_symmetry_equiv_pos_as_xyz
'x, y, z'
_cell_length_a     56.293759
_cell_length_b     56.297676
_cell_length_c     54.569911
_cell_angle_alpha  89.096987
_cell_angle_beta   88.31195
_cell_angle_gamma 89.185671
loop_
_atom_site_label
_atom_site_type_symbol
_atom_site_fract_x
_atom_site_fract_y
_atom_site_fract_z
_atom_type_partial_charge
C0 C 0.97326 0.29157 0.16758 0.0
O1 O 0.97364 0.29879 0.14456 0.0
O2 O 0.02675 0.25203 0.13743 0.0
Zn3 Zn 0.02446 0.28473 0.15595 0.0
O4 O 0.02325 0.31498 0.1325 0.0
C5 C 0.07508 0.28302 0.17053 0.0
O6 O 0.07822 0.27843 0.14711 0.0
O7 O 0.99284 0.28497 0.17706 0.0
C8 C 0.03892 0.33128 0.13169 0.0
O9 O 0.05761 0.32869 0.14535 0.0
C10 C 0.00955 0.24243 0.12656 0.0
O11 O 0.98927 0.25414 0.12549 0.0
O12 O 0.05383 0.28641 0.17886 0.0
C13 C 0.07874 0.78157 0.4076 0.0
O14 O 0.07958 0.79234 0.42873 0.0
O15 O 0.0271 0.74031 0.4379 0.0
Zn16 Zn 0.03041 0.77264 0.4231 0.0
O17 O 0.034 0.79676 0.44903 0.0
C18 C 0.98645 0.79573 0.40917 0.0
O19 O 0.98743 0.80561 0.43075 0.0
O20 O 0.05948 0.77222 0.40137 0.0
C21 C 0.02464 0.79579 0.47046 0.0
O22 O 0.01135 0.77764 0.47701 0.0
C23 C 0.04377 0.73255 0.45114 0.0
O24 O 0.06174 0.7464 0.45535 0.0
O25 O 0.00256 0.78097 0.4025 0.0
C26 C 0.48201 0.80502 0.67537 0.0
O27 O 0.48656 0.8228 0.66015 0.0
O28 O 0.52656 0.75189 0.6387 0.0
Zn29 Zn 0.5283 0.78548 0.65506 0.0
O30 O 0.52829 0.81452 0.6302 0.0
C31 C 0.57969 0.78643 0.66713 0.0
O32 O 0.58207 0.78574 0.64312 0.0
O33 O 0.49725 0.78802 0.6769 0.0
C34 C 0.54062 0.83303 0.63375 0.0
O35 O 0.55433 0.83323 0.6528 0.0
C36 C 0.5324 0.74558 0.6169 0.0
O37 O 0.54109 0.76162 0.6015 0.0
O38 O 0.55865 0.78633 0.6767 0.0
C39 C 0.58784 0.28053 0.90373 0.0
O40 O 0.59008 0.27848 0.92757 0.0
O41 O 0.5352 0.25454 0.931 0.0
Zn42 Zn 0.53967 0.28761 0.91799 0.0
O43 O 0.54409 0.31092 0.94457 0.0
C44 C 0.5023 0.28322 0.88484 0.0
O45 O 0.51098 0.26147 0.8835 0.0
O46 O 0.56772 0.28593 0.89525 0.0
C47 C 0.52788 0.31279 0.96114 0.0
O48 O 0.50957 0.29859 0.96081 0.0
C49 C 0.54321 0.24744 0.95137 0.0
O50 O 0.55336 0.26263 0.96564 0.0
O51 O 0.51176 0.29789 0.89886 0.0
C52 C 0.21525 0.96137 0.30995 0.0
O53 O 0.2029 0.96658 0.33 0.0
O54 O 0.17351 0.99677 0.25279 0.0
Zn55 Zn 0.18514 0.99687 0.28702 0.0
O56 O 0.15757 0.99038 0.31061 0.0
C57 C 0.18389 0.04649 0.29544 0.0
O58 O 0.16118 0.04334 0.29195 0.0
O59 O 0.2107 0.97219 0.29002 0.0
C60 C 0.13626 0.99482 0.30462 0.0
O61 O 0.13212 0.00288 0.28242 0.0
C62 C 0.16401 0.97799 0.24533 0.0
O63 O 0.16339 0.95913 0.25982 0.0
O64 O 0.1981 0.02882 0.29406 0.0
C65 C 0.21808 0.93061 0.53567 0.0
O66 O 0.22578 0.92655 0.55785 0.0
O67 O 0.25335 0.88586 0.55814 0.0
Zn68 Zn 0.2555 0.89816 0.52395 0.0
O69 O 0.25695 0.8708 0.50138 0.0
C70 C 0.28903 0.93549 0.52928 0.0
O71 O 0.27275 0.94405 0.54458 0.0
O72 O 0.22793 0.91995 0.51762 0.0
C73 C 0.27143 0.85396 0.50618 0.0
O74 O 0.28389 0.85485 0.52612 0.0
C75 C 0.23746 0.87102 0.56445 0.0
O76 O 0.22281 0.86353 0.54803 0.0
O77 O 0.28543 0.91603 0.51868 0.0
C78 C 0.38444 0.09921 0.77084 0.0
O79 O 0.39818 0.09219 0.78866 0.0
O80 O 0.39158 0.0374 0.73675 0.0
Zn81 Zn 0.37355 0.04958 0.76595 0.0
O82 O 0.39106 0.04223 0.79636 0.0
C83 C 0.32726 0.03508 0.75104 0.0
O84 O 0.33383 0.04395 0.72952 0.0
O85 O 0.37168 0.08435 0.76019 0.0
C86 C 0.40293 0.02307 0.79888 0.0
O87 O 0.40327 0.00739 0.78129 0.0
C88 C 0.41214 0.04626 0.73445 0.0
O89 O 0.4199 0.05938 0.75215 0.0
O90 O 0.34131 0.03598 0.76875 0.0
C91 C 0.32364 0.13933 0.03466 0.0
O92 O 0.32333 0.16212 0.03953 0.0
O93 O 0.27418 0.16693 0.06652 0.0
Zn94 Zn 0.2735 0.15008 0.03293 0.0
O95 O 0.27465 0.17329 0.00279 0.0
C96 C 0.22271 0.13834 0.0306 0.0
O97 O 0.22074 0.16161 0.02948 0.0
O98 O 0.30393 0.12931 0.0308 0.0
C99 C 0.2645 0.16796 0.98301 0.0
O100 O 0.25273 0.14801 0.98242 0.0
C101 C 0.26994 0.18882 0.0708 0.0
O102 O 0.2641 0.20296 0.05249 0.0
O103 O 0.24344 0.12904 0.03224 0.0
C104 C 0.71682 0.42026 0.04721 0.0
O105 O 0.72787 0.41168 0.06633 0.0
O106 O 0.75455 0.37404 0.05524 0.0
Zn107 Zn 0.75201 0.39142 0.02344 0.0
O108 O 0.75128 0.36645 0.99766 0.0
C109 C 0.78647 0.42736 0.03147 0.0
O110 O 0.77215 0.43264 0.05007 0.0
O111 O 0.7235 0.41371 0.02581 0.0
C112 C 0.76867 0.35189 0.99955 0.0
O113 O 0.78421 0.35534 0.0166 0.0
C114 C 0.73956 0.35812 0.06094 0.0
O115 O 0.72327 0.35273 0.04527 0.0
O116 O 0.78132 0.41045 0.01756 0.0
C117 C 0.88089 0.59789 0.27193 0.0
O118 O 0.89625 0.59249 0.28887 0.0
O119 O 0.89789 0.53921 0.23496 0.0
Zn120 Zn 0.8788 0.54743 0.26478 0.0
O121 O 0.89844 0.54192 0.29393 0.0
C122 C 0.83702 0.52375 0.24958 0.0
O123 O 0.84312 0.5324 0.22782 0.0
O124 O 0.87064 0.58152 0.26073 0.0
C125 C 0.9103 0.52273 0.29619 0.0
O126 O 0.90893 0.50635 0.27942 0.0
C127 C 0.91685 0.55099 0.23213 0.0
O128 O 0.92291 0.56548 0.24945 0.0
O129 O 0.84962 0.5282 0.2678 0.0
C130 C 0.82166 0.63527 0.53105 0.0
O131 O 0.82339 0.65788 0.53619 0.0
O132 O 0.77281 0.66861 0.56051 0.0
Zn133 Zn 0.77167 0.64933 0.52815 0.0
O134 O 0.77223 0.66898 0.49541 0.0
C135 C 0.72148 0.63617 0.52244 0.0
O136 O 0.72005 0.65799 0.51367 0.0
O137 O 0.80118 0.62711 0.52687 0.0
C138 C 0.76381 0.68969 0.49069 0.0
O139 O 0.75319 0.70171 0.50841 0.0
C140 C 0.78079 0.68942 0.56379 0.0
O141 O 0.78915 0.70161 0.54479 0.0
O142 O 0.74153 0.62848 0.52977 0.0
C143 C 0.69517 0.45386 0.81915 0.0
O144 O 0.67392 0.45575 0.82956 0.0
O145 O 0.66107 0.49331 0.76787 0.0
Zn146 Zn 0.68067 0.49775 0.79764 0.0
O147 O 0.65931 0.50188 0.82708 0.0
C148 C 0.69291 0.54469 0.78105 0.0
O149 O 0.67376 0.54257 0.76813 0.0
O150 O 0.70205 0.46967 0.80375 0.0
C151 C 0.6684 0.50704 0.84726 0.0
O152 O 0.69148 0.50996 0.84808 0.0
C153 C 0.63931 0.4997 0.7686 0.0
O154 O 0.63005 0.5085 0.78894 0.0
O155 O 0.69982 0.52729 0.79424 0.0
C156 C 0.06826 0.77352 0.87842 0.0
O157 O 0.06469 0.75449 0.8922 0.0
O158 O 0.02336 0.75722 0.92253 0.0
Zn159 Zn 0.02219 0.78915 0.90193 0.0
O160 O 0.02387 0.81935 0.9241 0.0
C161 C 0.98254 0.774 0.86981 0.0
O162 O 0.99422 0.75363 0.86974 0.0
O163 O 0.05249 0.79011 0.87886 0.0
C164 C 0.01708 0.83974 0.916 0.0
O165 O 0.00828 0.84101 0.89397 0.0
C166 C 0.0055 0.74578 0.93132 0.0
O167 O 0.98412 0.75486 0.9284 0.0
O168 O 0.99098 0.7912 0.88172 0.0
C169 C 0.95997 0.27214 0.65611 0.0
O170 O 0.95776 0.2783 0.63296 0.0
O171 O 0.01202 0.25419 0.61448 0.0
Zn172 Zn 0.00909 0.27591 0.64323 0.0
O173 O 0.00679 0.30981 0.63213 0.0
C174 C 0.057 0.26268 0.65321 0.0
O175 O 0.05781 0.25891 0.62951 0.0
O176 O 0.98059 0.26906 0.66446 0.0
C177 C 0.02125 0.31863 0.61634 0.0
O178 O 0.03854 0.30527 0.60717 0.0
C179 C 0.00624 0.25874 0.59256 0.0
O180 O 0.99489 0.27865 0.58738 0.0
O181 O 0.03795 0.27072 0.66324 0.0
C182 C 0.5633 0.26938 0.37968 0.0
O183 O 0.55873 0.25049 0.39336 0.0
O184 O 0.52102 0.25926 0.42835 0.0
Zn185 Zn 0.51851 0.28817 0.40374 0.0
O186 O 0.51935 0.32161 0.4205 0.0
C187 C 0.47373 0.30194 0.37746 0.0
O188 O 0.4793 0.32353 0.38383 0.0
O189 O 0.54862 0.28692 0.38047 0.0
C190 C 0.51445 0.32693 0.4428 0.0
O191 O 0.50744 0.30998 0.45806 0.0
C192 C 0.50348 0.24606 0.43455 0.0
O193 O 0.48235 0.25188 0.42657 0.0
O194 O 0.48751 0.28471 0.38354 0.0
C195 C 0.45803 0.77576 0.16069 0.0
O196 O 0.46204 0.76799 0.13836 0.0
O197 O 0.50786 0.78165 0.1216 0.0
Zn198 Zn 0.50225 0.80025 0.15218 0.0
O199 O 0.49947 0.83471 0.14348 0.0
C200 C 0.53542 0.77273 0.17903 0.0
O201 O 0.52183 0.75548 0.17199 0.0
O202 O 0.47275 0.78964 0.17001 0.0
C203 C 0.51767 0.84778 0.14307 0.0
O204 O 0.53826 0.83869 0.1494 0.0
C205 C 0.52604 0.78537 0.1078 0.0
O206 O 0.54064 0.80238 0.1132 0.0
O207 O 0.53008 0.79404 0.17323 0.0
C208 C 0.86965 0.07713 0.72168 0.0
O209 O 0.86432 0.05464 0.72487 0.0
O210 O 0.94448 0.06406 0.70862 0.0
Zn211 Zn 0.91719 0.06075 0.73247 0.0
O212 O 0.92855 0.06749 0.7659 0.0
C213 C 0.90908 0.01146 0.71786 0.0
O214 O 0.92423 0.01542 0.69953 0.0
O215 O 0.89101 0.08365 0.72388 0.0
C216 C 0.93875 0.05062 0.7774 0.0
O217 O 0.94155 0.02992 0.76683 0.0
C218 C 0.94958 0.08409 0.69897 0.0
O219 O 0.93649 0.10287 0.7045 0.0
O220 O 0.90434 0.0278 0.73306 0.0
C221 C 0.84532 0.15992 0.5212 0.0
O222 O 0.84674 0.18308 0.51845 0.0
O223 O 0.79505 0.19673 0.5482 0.0
Zn224 Zn 0.79655 0.17126 0.52326 0.0
O225 O 0.79733 0.18554 0.48977 0.0
C226 C 0.74845 0.16197 0.53548 0.0
O227 O 0.74825 0.1851 0.5382 0.0
O228 O 0.8252 0.15064 0.52537 0.0
C229 C 0.78487 0.20347 0.4836 0.0
O230 O 0.76994 0.21306 0.49966 0.0
C231 C 0.80232 0.21794 0.54616 0.0
O232 O 0.81504 0.22462 0.52677 0.0
O233 O 0.76757 0.15158 0.52842 0.0
C234 C 0.66008 0.96683 0.2904 0.0
O235 O 0.64437 0.97427 0.2746 0.0
O236 O 0.65071 0.02727 0.27059 0.0
Zn237 Zn 0.6697 0.01662 0.29914 0.0
O238 O 0.65413 0.02574 0.33061 0.0
C239 C 0.71228 0.03946 0.31406 0.0
O240 O 0.70298 0.03651 0.33624 0.0
O241 O 0.67285 0.98161 0.30115 0.0
C242 C 0.64104 0.04366 0.33541 0.0
O243 O 0.63635 0.0594 0.31813 0.0
C244 C 0.62818 0.02752 0.27005 0.0
O245 O 0.61569 0.0199 0.28924 0.0
O246 O 0.70156 0.03147 0.29585 0.0
C247 C 0.72702 0.93031 0.01922 0.0
O248 O 0.72558 0.90757 0.01451 0.0
O249 O 0.77392 0.89685 0.05622 0.0
Zn250 Zn 0.77672 0.91644 0.02361 0.0
O251 O 0.77553 0.89526 0.99266 0.0
C252 C 0.82639 0.93083 0.03351 0.0
O253 O 0.82695 0.91035 0.04534 0.0
O254 O 0.74736 0.93876 0.02348 0.0
C255 C 0.78347 0.90271 0.97178 0.0
O256 O 0.79337 0.9237 0.97043 0.0
C257 C 0.78476 0.87749 0.06166 0.0
O258 O 0.79926 0.8678 0.04524 0.0
O259 O 0.80732 0.93704 0.02285 0.0
C260 C 0.35223 0.64999 0.0028 0.0
O261 O 0.35013 0.67323 0.00162 0.0
O262 O 0.2948 0.672 0.0348 0.0
Zn263 Zn 0.3027 0.65494 0.00377 0.0
O264 O 0.3052 0.67793 0.97566 0.0
C265 C 0.25542 0.64344 0.00081 0.0
O266 O 0.25482 0.66674 0.00133 0.0
O267 O 0.33367 0.63746 0.0048 0.0
C268 C 0.29663 0.69891 0.97511 0.0
O269 O 0.28356 0.70674 0.99368 0.0
C270 C 0.30259 0.69141 0.04267 0.0
O271 O 0.31998 0.70227 0.03072 0.0
O272 O 0.2755 0.63284 0.0 0.0
C273 C 0.16899 0.4609 0.77783 0.0
O274 O 0.15625 0.46631 0.75871 0.0
O275 O 0.13738 0.51299 0.76596 0.0
Zn276 Zn 0.16269 0.50997 0.79046 0.0
O277 O 0.14815 0.51554 0.82334 0.0
C278 C 0.17877 0.55415 0.77578 0.0
O279 O 0.15572 0.55615 0.77316 0.0
O280 O 0.17526 0.47708 0.79209 0.0
C281 C 0.13018 0.52891 0.82728 0.0
O282 O 0.12112 0.54126 0.80911 0.0
C283 C 0.11681 0.50414 0.7682 0.0
O284 O 0.11151 0.49019 0.78704 0.0
O285 O 0.18742 0.53446 0.7832 0.0
C286 C 0.22853 0.43733 0.54527 0.0
O287 O 0.23313 0.42447 0.56489 0.0
O288 O 0.27655 0.39887 0.56052 0.0
Zn289 Zn 0.27502 0.41772 0.52754 0.0
O290 O 0.27416 0.39595 0.49708 0.0
C291 C 0.32423 0.43242 0.53366 0.0
O292 O 0.32548 0.41075 0.54288 0.0
O293 O 0.24382 0.4377 0.52752 0.0
C294 C 0.2811 0.40362 0.47593 0.0
O295 O 0.28999 0.42505 0.47413 0.0
C296 C 0.27246 0.37684 0.56421 0.0
O297 O 0.26688 0.3638 0.54554 0.0
O298 O 0.30441 0.43974 0.52533 0.0
C299 C 0.34841 0.57257 0.23029 0.0
O300 O 0.35686 0.56798 0.20817 0.0
O301 O 0.41658 0.57037 0.2243 0.0
Zn302 Zn 0.39405 0.55485 0.24823 0.0
O303 O 0.40743 0.5577 0.2812 0.0
C304 C 0.38927 0.51255 0.21987 0.0
O305 O 0.38841 0.5274 0.2011 0.0
O306 O 0.36128 0.56894 0.24875 0.0
C307 C 0.429 0.55149 0.28355 0.0
O308 O 0.44121 0.54363 0.26437 0.0
C309 C 0.41455 0.59021 0.21315 0.0
O310 O 0.39506 0.6031 0.2159 0.0
O311 O 0.39203 0.52047 0.24122 0.0
Co312 Co 0.0197 0.04585 0.01162 0.0
C313 C 0.01634 0.07602 0.05269 0.0
Co314 Co 0.02708 0.02789 0.04652 0.0
C315 C 0.0026 0.05476 0.96328 0.0
C316 C 0.02058 0.0847 0.97721 0.0
N317 N 0.01403 0.06231 0.98297 0.0
N318 N 1.00172 0.07154 0.94536 0.0
C319 C 0.01302 0.09044 0.95413 0.0
H320 H 0.99546 0.03709 0.96205 0.0
H321 H 0.03028 0.0961 0.98904 0.0
C322 C 0.03027 0.99776 0.00528 0.0
N323 N 0.03277 0.01117 0.07512 0.0
C324 C 0.04959 0.01483 0.09168 0.0
C325 C 0.02272 0.99041 0.08205 0.0
N326 N 0.05069 0.99696 0.10839 0.0
C327 C 0.03374 0.98161 0.10247 0.0
C328 C 0.9793 0.02541 0.03315 0.0
O329 O 0.0261 0.01705 0.99357 0.0
O330 O 0.03195 0.99868 0.02847 0.0
O331 O 0.99382 0.02061 0.05002 0.0
O332 O 0.98676 0.03714 0.01441 0.0
O333 O 0.0222 0.05722 0.06453 0.0
H334 H 0.009 0.98166 0.07222 0.0
H335 H 0.06172 0.02959 0.09067 0.0
O336 O 0.01327 0.07447 0.02975 0.0
O337 O 0.05257 0.0545 0.00876 0.0
O338 O 0.06037 0.03536 0.04279 0.0
C339 C 0.06748 0.04836 0.02483 0.0
H340 H 0.01553 0.1073 0.94469 0.0
H341 H 0.03 0.96493 0.11186 0.0
Co342 Co 0.27615 0.75094 0.29688 0.0
C343 C 0.26104 0.70999 0.27552 0.0
Co344 Co 0.25648 0.75768 0.26318 0.0
C345 C 0.29085 0.76032 0.34478 0.0
C346 C 0.30604 0.72735 0.33281 0.0
N347 N 0.29186 0.7456 0.32565 0.0
N348 N 0.30388 0.75231 0.36347 0.0
C349 C 0.31333 0.73137 0.35634 0.0
H350 H 0.28027 0.77654 0.34527 0.0
H351 H 0.31069 0.71214 0.3217 0.0
C352 C 0.27163 0.7987 0.28432 0.0
N353 N 0.24092 0.76311 0.23443 0.0
C354 C 0.244 0.74987 0.2143 0.0
C355 C 0.227 0.78159 0.22745 0.0
N356 N 0.23287 0.75933 0.19493 0.0
C357 C 0.22224 0.77944 0.20291 0.0
C358 C 0.22753 0.75744 0.3043 0.0
O359 O 0.28021 0.7843 0.29993 0.0
O360 O 0.2606 0.79061 0.2664 0.0
O361 O 0.22748 0.75987 0.28113 0.0
O362 O 0.247 0.75316 0.3148 0.0
O363 O 0.25244 0.72449 0.25999 0.0
H364 H 0.22164 0.79622 0.23908 0.0
H365 H 0.2556 0.73438 0.21339 0.0
O366 O 0.272 0.71798 0.29357 0.0
O367 O 0.30519 0.7488 0.27894 0.0
O368 O 0.28579 0.75561 0.24526 0.0
C369 C 0.30527 0.7515 0.2558 0.0
H370 H 0.32478 0.72004 0.3672 0.0
H371 H 0.21248 0.79198 0.19167 0.0
Co372 Co 0.50839 0.03429 0.5232 0.0
C373 C 0.51971 0.08281 0.5181 0.0
Co374 Co 0.54014 0.04395 0.54283 0.0
C375 C 0.4625 0.01558 0.51527 0.0
C376 C 0.47649 0.03348 0.48323 0.0
N377 N 0.48175 0.02709 0.50639 0.0
N378 N 0.44527 0.0147 0.4987 0.0
C379 C 0.45403 0.02581 0.47841 0.0
H380 H 0.46114 0.00815 0.53366 0.0
H381 H 0.48801 0.04359 0.47088 0.0
C382 C 0.52867 0.99541 0.54785 0.0
N383 N 0.56675 0.05141 0.55958 0.0
C384 C 0.58406 0.0661 0.55169 0.0
C385 C 0.57336 0.04365 0.58192 0.0
N386 N 0.60126 0.06792 0.56815 0.0
C387 C 0.59472 0.05374 0.58721 0.0
C388 C 0.49922 0.04707 0.57121 0.0
O389 O 0.51189 0.00135 0.53372 0.0
O390 O 0.54325 0.01129 0.55374 0.0
O391 O 0.52144 0.05034 0.57079 0.0
O392 O 0.48938 0.04038 0.55191 0.0
O393 O 0.53679 0.0768 0.53179 0.0
H394 H 0.56328 0.03149 0.59357 0.0
H395 H 0.58421 0.075 0.53395 0.0
O396 O 0.5049 0.06699 0.5127 0.0
O397 O 0.52744 0.02841 0.49481 0.0
O398 O 0.55912 0.03759 0.51475 0.0
C399 C 0.5497 0.03151 0.49504 0.0
H400 H 0.44463 0.02886 0.46161 0.0
H401 H 0.60449 0.05111 0.60385 0.0
Co402 Co 0.29077 0.29031 0.78259 0.0
C403 C 0.27593 0.29985 0.73478 0.0
Co404 Co 0.26294 0.26633 0.77099 0.0
C405 C 0.33599 0.30315 0.79943 0.0
C406 C 0.31456 0.33417 0.79303 0.0
N407 N 0.31437 0.31021 0.79212 0.0
N408 N 0.34974 0.3216 0.80466 0.0
C409 C 0.33637 0.34125 0.80099 0.0
H410 H 0.34155 0.28473 0.80117 0.0
H411 H 0.29989 0.34572 0.78809 0.0
C412 C 0.27749 0.25669 0.81876 0.0
N413 N 0.23939 0.2465 0.76146 0.0
C414 C 0.2189 0.25355 0.75141 0.0
C415 C 0.23829 0.22259 0.76294 0.0
N416 N 0.2049 0.23511 0.74661 0.0
C417 C 0.21705 0.2155 0.75366 0.0
C418 C 0.30798 0.2499 0.75978 0.0
O419 O 0.29119 0.27415 0.81422 0.0
O420 O 0.26371 0.25019 0.80212 0.0
O421 O 0.28612 0.24518 0.75828 0.0
O422 O 0.31395 0.26888 0.76997 0.0
O423 O 0.26226 0.28252 0.73981 0.0
H424 H 0.25199 0.21113 0.77034 0.0
H425 H 0.21449 0.27194 0.74735 0.0
O426 O 0.29013 0.30642 0.75104 0.0
O427 O 0.26765 0.31143 0.795 0.0
O428 O 0.23964 0.28774 0.78368 0.0
C429 C 0.24577 0.30684 0.79356 0.0
H430 H 0.3421 0.35931 0.80347 0.0
H431 H 0.2109 0.19743 0.75247 0.0
Co432 Co 0.02267 0.02774 0.49907 0.0
C433 C 0.02565 0.05746 0.53869 0.0
Co434 Co 0.04019 0.06171 0.49017 0.0
C435 C 0.0179 0.97731 0.50631 0.0
C436 C 0.98736 0.99661 0.5198 0.0
N437 N 0.00856 0.9994 0.50797 0.0
N438 N 0.00345 0.96088 0.51673 0.0
C439 C 0.9841 0.9729 0.52507 0.0
H440 H 0.03505 0.97336 0.4977 0.0
H441 H 0.97533 0.01097 0.52489 0.0
C442 C 0.03778 0.03142 0.45082 0.0
N443 N 0.05355 0.09073 0.48237 0.0
C444 C 0.04327 0.11169 0.48823 0.0
C445 C 0.075 0.09637 0.4724 0.0
N446 N 0.05727 0.13022 0.48252 0.0
C447 C 0.07745 0.12077 0.47274 0.0
C448 C 0.07146 0.02709 0.50499 0.0
O449 O 0.02755 0.0176 0.46636 0.0
O450 O 0.0443 0.05186 0.45738 0.0
O451 O 0.07044 0.04854 0.49745 0.0
O452 O 0.05257 0.01512 0.50701 0.0
O453 O 0.03601 0.07138 0.52344 0.0
H454 H 0.0883 0.08358 0.46623 0.0
H455 H 0.02633 0.11326 0.49804 0.0
O456 O 0.01827 0.0377 0.53144 0.0
O457 O 0.99272 0.04068 0.4914 0.0
O458 O 0.00992 0.07452 0.48299 0.0
C459 C 0.99118 0.06238 0.4851 0.0
H460 H 0.96898 0.96517 0.5348 0.0
H461 H 0.09305 0.13068 0.46704 0.0
Co462 Co 0.27384 0.81146 0.7802 0.0
C463 C 0.23082 0.7882 0.79179 0.0
Co464 Co 0.2728 0.77501 0.76677 0.0
C465 C 0.27516 0.86209 0.7773 0.0
C466 C 0.26643 0.84975 0.81369 0.0
N467 N 0.27297 0.8422 0.79112 0.0
N468 N 0.26989 0.88181 0.79017 0.0
C469 C 0.26455 0.87415 0.81317 0.0
H470 H 0.27944 0.86199 0.75784 0.0
H471 H 0.26237 0.83823 0.82926 0.0
C472 C 0.3159 0.7982 0.75541 0.0
N473 N 0.27337 0.74441 0.75573 0.0
C474 C 0.26437 0.72517 0.76733 0.0
C475 C 0.28241 0.73642 0.73418 0.0
N476 N 0.26717 0.70543 0.75382 0.0
C477 C 0.27862 0.7124 0.73295 0.0
C478 C 0.2561 0.80743 0.73353 0.0
O479 O 0.30575 0.81561 0.76638 0.0
O480 O 0.30448 0.77901 0.75366 0.0
O481 O 0.26031 0.78547 0.73678 0.0
O482 O 0.26077 0.82179 0.75031 0.0
O483 O 0.2408 0.77111 0.7802 0.0
H484 H 0.29073 0.74745 0.72007 0.0
H485 H 0.25569 0.72575 0.78527 0.0
O486 O 0.24228 0.80732 0.79388 0.0
O487 O 0.28672 0.80091 0.81001 0.0
O488 O 0.28527 0.76445 0.79672 0.0
C489 C 0.29023 0.77882 0.81345 0.0
H490 H 0.25943 0.88529 0.82847 0.0
H491 H 0.28299 0.70119 0.71748 0.0
Co492 Co 0.52409 0.03119 0.01128 0.0
C493 C 0.57107 0.02365 0.02578 0.0
Co494 Co 0.53219 0.04842 0.04576 0.0
C495 C 0.50498 0.02312 0.96398 0.0
C496 C 0.52544 0.99339 0.9769 0.0
N497 N 0.51813 0.01554 0.98284 0.0
N498 N 0.50366 0.00652 0.94654 0.0
C499 C 0.51651 0.98776 0.95459 0.0
H500 H 0.496 0.04024 0.96344 0.0
H501 H 0.53632 0.98196 0.98824 0.0
C502 C 0.48513 0.05573 0.03105 0.0
N503 N 0.5383 0.06365 0.07439 0.0
C504 C 0.55037 0.05454 0.09334 0.0
C505 C 0.53123 0.08555 0.08149 0.0
N506 N 0.55114 0.06979 0.11206 0.0
C507 C 0.53905 0.08935 0.10477 0.0
C508 C 0.5401 0.07678 0.00466 0.0
O509 O 0.49167 0.04216 0.01362 0.0
O510 O 0.50017 0.06083 0.04705 0.0
O511 O 0.54207 0.0753 0.02772 0.0
O512 O 0.53216 0.05926 0.99314 0.0
O513 O 0.56428 0.03578 0.04425 0.0
H514 H 0.52092 0.09784 0.07052 0.0
H515 H 0.55798 0.03677 0.09359 0.0
O516 O 0.55639 0.02028 0.00898 0.0
O517 O 0.51602 0.00338 0.02955 0.0
O518 O 0.52231 0.02146 0.06393 0.0
C519 C 0.51633 0.003 0.05279 0.0
H520 H 0.51924 0.97118 0.94506 0.0
H521 H 0.53624 0.10527 0.1154 0.0
Co522 Co 0.26834 0.27165 0.2883 0.0
C523 C 0.31633 0.2852 0.29056 0.0
Co524 Co 0.27636 0.30439 0.26772 0.0
C525 C 0.24971 0.22575 0.30041 0.0
C526 C 0.26908 0.23997 0.32985 0.0
N527 N 0.26202 0.24486 0.30689 0.0
N528 N 0.24883 0.20901 0.31836 0.0
C529 C 0.26102 0.2179 0.33695 0.0
H530 H 0.24206 0.22396 0.28258 0.0
H531 H 0.27956 0.25164 0.34064 0.0
C532 C 0.22839 0.29099 0.2654 0.0
N533 N 0.2827 0.3309 0.24861 0.0
C534 C 0.29888 0.34785 0.25191 0.0
C535 C 0.27385 0.33567 0.22632 0.0
N536 N 0.30069 0.36281 0.23242 0.0
C537 C 0.28489 0.35528 0.21631 0.0
C538 C 0.28017 0.26298 0.23939 0.0
O539 O 0.23512 0.27407 0.27946 0.0
O540 O 0.24352 0.30661 0.25891 0.0
O541 O 0.28273 0.28535 0.23948 0.0
O542 O 0.27445 0.25249 0.2595 0.0
O543 O 0.30924 0.30206 0.27665 0.0
H544 H 0.26083 0.32502 0.2175 0.0
H545 H 0.30991 0.34854 0.26781 0.0
O546 O 0.30148 0.26928 0.29712 0.0
O547 O 0.26231 0.29086 0.3168 0.0
O548 O 0.27011 0.32362 0.29616 0.0
C549 C 0.26483 0.3133 0.31651 0.0
H550 H 0.26387 0.20915 0.35444 0.0
H551 H 0.28176 0.36319 0.19847 0.0
Co552 Co 0.53755 0.53657 0.03716 0.0
C553 C 0.52747 0.56656 0.07634 0.0
Co554 Co 0.55573 0.57089 0.03509 0.0
C555 C 0.53047 0.4862 0.0356 0.0
C556 C 0.49913 0.50491 0.04801 0.0
N557 N 0.52189 0.50814 0.04043 0.0
N558 N 0.51394 0.46937 0.03974 0.0
C559 C 0.49416 0.48109 0.04755 0.0
H560 H 0.54831 0.48277 0.02846 0.0
H561 H 0.48686 0.51902 0.05326 0.0
C562 C 0.5655 0.54164 0.99557 0.0
N563 N 0.57108 0.59948 0.03174 0.0
C564 C 0.5608 0.62113 0.03338 0.0
C565 C 0.59428 0.60363 0.02666 0.0
N566 N 0.57653 0.63867 0.02952 0.0
C567 C 0.59773 0.62783 0.02551 0.0
C568 C 0.58207 0.5353 0.05705 0.0
O569 O 0.55204 0.5269 0.00686 0.0
O570 O 0.56868 0.56186 0.00471 0.0
O571 O 0.5826 0.55704 0.05044 0.0
O572 O 0.56343 0.52347 0.05389 0.0
O573 O 0.54253 0.58018 0.06586 0.0
H574 H 0.60778 0.58997 0.02398 0.0
H575 H 0.54214 0.624 0.03795 0.0
O576 O 0.52323 0.54661 0.067 0.0
O577 O 0.51173 0.54949 0.02049 0.0
O578 O 0.52869 0.58425 0.01943 0.0
C579 C 0.51107 0.57139 0.01482 0.0
H580 H 0.47728 0.47307 0.05241 0.0
H581 H 0.61443 0.63675 0.02203 0.0
Co582 Co 0.76866 0.29886 0.27815 0.0
C583 C 0.72509 0.27654 0.29033 0.0
Co584 Co 0.76656 0.26213 0.2656 0.0
C585 C 0.77327 0.34928 0.27489 0.0
C586 C 0.76145 0.33787 0.31074 0.0
N587 N 0.7685 0.32973 0.28855 0.0
N588 N 0.76931 0.36939 0.28755 0.0
C589 C 0.76197 0.36229 0.31019 0.0
H590 H 0.77883 0.34871 0.25575 0.0
H591 H 0.75583 0.32678 0.32615 0.0
C592 C 0.81017 0.28445 0.25349 0.0
N593 N 0.76683 0.23125 0.25496 0.0
C594 C 0.76476 0.21126 0.2687 0.0
C595 C 0.7718 0.22373 0.23199 0.0
N596 N 0.76843 0.19159 0.25528 0.0
C597 C 0.77264 0.1993 0.2321 0.0
C598 C 0.75092 0.2945 0.2316 0.0
O599 O 0.80079 0.30198 0.2649 0.0
O600 O 0.79811 0.26565 0.25168 0.0
O601 O 0.7537 0.27244 0.2357 0.0
O602 O 0.75646 0.3091 0.24786 0.0
O603 O 0.73477 0.25873 0.27965 0.0
H604 H 0.77536 0.23526 0.21631 0.0
H605 H 0.76085 0.21113 0.28824 0.0
O606 O 0.73682 0.29564 0.29134 0.0
O607 O 0.78069 0.28862 0.30831 0.0
O608 O 0.77941 0.25197 0.29573 0.0
C609 C 0.78404 0.26662 0.3123 0.0
H610 H 0.75739 0.37384 0.32533 0.0
H611 H 0.77675 0.18813 0.21654 0.0
Co612 Co 0.01828 0.51893 0.51587 0.0
C613 C 0.06341 0.51234 0.53633 0.0
Co614 Co 0.02101 0.53272 0.55298 0.0
C615 C 0.00425 0.51487 0.46636 0.0
C616 C 0.02719 0.48608 0.47683 0.0
N617 N 0.01701 0.50639 0.48509 0.0
N618 N 0.00574 0.50055 0.44681 0.0
C619 C 0.02032 0.48247 0.4532 0.0
H620 H 0.99377 0.53112 0.46722 0.0
H621 H 0.03829 0.47431 0.48757 0.0
C622 C 0.97604 0.53986 0.53286 0.0
N623 N 0.02163 0.54521 0.58378 0.0
C624 C 0.02864 0.53428 0.60447 0.0
C625 C 0.01288 0.56652 0.59093 0.0
N626 N 0.02443 0.54779 0.62436 0.0
C627 C 0.01466 0.56819 0.6159 0.0
C628 C 0.03209 0.56552 0.51628 0.0
O629 O 0.98521 0.52903 0.51453 0.0
O630 O 0.98869 0.54272 0.55141 0.0
O631 O 0.03058 0.56223 0.53933 0.0
O632 O 0.02751 0.54854 0.50221 0.0
O633 O 0.05366 0.52272 0.55467 0.0
H634 H 0.00518 0.57973 0.57882 0.0
H635 H 0.03671 0.51672 0.60484 0.0
O636 O 0.05114 0.50918 0.51745 0.0
O637 O 0.00916 0.4893 0.52942 0.0
O638 O 0.01156 0.50298 0.56655 0.0
C639 C 0.00763 0.48587 0.55243 0.0
H640 H 0.02487 0.46726 0.44202 0.0
H641 H 0.00884 0.58308 0.62697 0.0
Co642 Co 0.78542 0.79394 0.28081 0.0
C643 C 0.77185 0.80239 0.23252 0.0
Co644 Co 0.75608 0.77135 0.27011 0.0
C645 C 0.82932 0.80511 0.30189 0.0
C646 C 0.81325 0.83617 0.28607 0.0
N647 N 0.81009 0.81267 0.28981 0.0
N648 N 0.84449 0.82284 0.30587 0.0
C649 C 0.83443 0.84251 0.29605 0.0
H650 H 0.83191 0.7869 0.30802 0.0
H651 H 0.80098 0.84787 0.27671 0.0
C652 C 0.76983 0.76291 0.31847 0.0
N653 N 0.73132 0.75253 0.26121 0.0
C654 C 0.71021 0.76039 0.25315 0.0
C655 C 0.72953 0.72865 0.2623 0.0
N656 N 0.69519 0.7425 0.24942 0.0
C657 C 0.70728 0.7224 0.2549 0.0
C658 C 0.80022 0.75155 0.26059 0.0
O659 O 0.78409 0.77968 0.31312 0.0
O660 O 0.75593 0.75605 0.30207 0.0
O661 O 0.7781 0.74855 0.25834 0.0
O662 O 0.80738 0.77035 0.2703 0.0
O663 O 0.75638 0.78677 0.23815 0.0
H664 H 0.74333 0.71662 0.26853 0.0
H665 H 0.70587 0.77898 0.25012 0.0
O666 O 0.78665 0.80804 0.24856 0.0
O667 O 0.76348 0.81739 0.29131 0.0
O668 O 0.73415 0.79439 0.282 0.0
C669 C 0.74133 0.81376 0.29043 0.0
H670 H 0.84193 0.86011 0.29583 0.0
H671 H 0.7003 0.70461 0.25431 0.0
Co672 Co 0.77968 0.25033 0.79679 0.0
C673 C 0.77567 0.2166 0.76121 0.0
Co674 Co 0.76284 0.26398 0.76341 0.0
C675 C 0.782 0.24412 0.84792 0.0
C676 C 0.81268 0.22811 0.83067 0.0
N677 N 0.79178 0.23895 0.82582 0.0
N678 N 0.79598 0.23753 0.86645 0.0
C679 C 0.81545 0.22747 0.85576 0.0
H680 H 0.76589 0.25469 0.85029 0.0
H681 H 0.82573 0.22258 0.81689 0.0
C682 C 0.76646 0.29757 0.79897 0.0
N683 N 0.75058 0.27651 0.73501 0.0
C684 C 0.76163 0.27645 0.71284 0.0
C685 C 0.73045 0.28938 0.73187 0.0
N686 N 0.74948 0.28895 0.69599 0.0
C687 C 0.72961 0.29688 0.70771 0.0
C688 C 0.73009 0.24734 0.79654 0.0
O689 O 0.77738 0.28127 0.81049 0.0
O690 O 0.75851 0.29357 0.77801 0.0
O691 O 0.7322 0.25556 0.77483 0.0
O692 O 0.74856 0.24373 0.80891 0.0
O693 O 0.76718 0.23382 0.74874 0.0
H694 H 0.71746 0.29338 0.74628 0.0
H695 H 0.77827 0.26715 0.70904 0.0
O696 O 0.78178 0.21988 0.78314 0.0
O697 O 0.81073 0.25689 0.78428 0.0
O698 O 0.79363 0.27262 0.75224 0.0
C699 C 0.81239 0.26735 0.76354 0.0
H700 H 0.83109 0.22145 0.86526 0.0
H701 H 0.71567 0.30747 0.69948 0.0
Co702 Co 0.77426 0.77254 0.78188 0.0
C703 C 0.8226 0.78455 0.78513 0.0
Co704 Co 0.78355 0.80544 0.76211 0.0
C705 C 0.75643 0.72586 0.79001 0.0
C706 C 0.77419 0.73824 0.8214 0.0
N707 N 0.76743 0.74487 0.79878 0.0
N708 N 0.75636 0.70739 0.80604 0.0
C709 C 0.76737 0.71516 0.82594 0.0
H710 H 0.74902 0.7255 0.77195 0.0
H711 H 0.78421 0.74916 0.83342 0.0
C712 C 0.73511 0.79306 0.75904 0.0
N713 N 0.79062 0.83288 0.74463 0.0
C714 C 0.80704 0.84929 0.74927 0.0
C715 C 0.78149 0.83972 0.72303 0.0
N716 N 0.80867 0.86602 0.73131 0.0
C717 C 0.79249 0.86009 0.71483 0.0
C718 C 0.78677 0.76528 0.73242 0.0
O719 O 0.74135 0.77598 0.77312 0.0
O720 O 0.75067 0.80835 0.75262 0.0
O721 O 0.79037 0.7875 0.73295 0.0
O722 O 0.78014 0.75476 0.75221 0.0
O723 O 0.81634 0.80222 0.77183 0.0
H724 H 0.76808 0.83019 0.71353 0.0
H725 H 0.81814 0.84846 0.76513 0.0
O726 O 0.80712 0.76895 0.79068 0.0
O727 O 0.76842 0.79047 0.8113 0.0
O728 O 0.77683 0.82349 0.79135 0.0
C729 C 0.77117 0.81288 0.81145 0.0
H730 H 0.77118 0.70465 0.84216 0.0
H731 H 0.78887 0.86967 0.69798 0.0
Co732 Co 0.51903 0.54353 0.51435 0.0
C733 C 0.51636 0.57617 0.55339 0.0
Co734 Co 0.52542 0.52735 0.55031 0.0
C735 C 0.50261 0.5511 0.46561 0.0
C736 C 0.52471 0.57926 0.47705 0.0
N737 N 0.51506 0.55852 0.48464 0.0
N738 N 0.50418 0.56635 0.44635 0.0
C739 C 0.51808 0.5841 0.45345 0.0
H740 H 0.49301 0.53457 0.46573 0.0
H741 H 0.53596 0.59008 0.48795 0.0
C742 C 0.52815 0.49477 0.51116 0.0
N743 N 0.52952 0.51224 0.58009 0.0
C744 C 0.54418 0.51788 0.59812 0.0
C745 C 0.51867 0.49223 0.58803 0.0
N746 N 0.54291 0.50214 0.61701 0.0
C747 C 0.52681 0.48601 0.61075 0.0
C748 C 0.47764 0.52577 0.5358 0.0
O749 O 0.52394 0.51334 0.49828 0.0
O750 O 0.53031 0.49712 0.53417 0.0
O751 O 0.49187 0.52088 0.55293 0.0
O752 O 0.48563 0.53691 0.51692 0.0
O753 O 0.52063 0.55768 0.56642 0.0
H754 H 0.50594 0.48253 0.57775 0.0
H755 H 0.55555 0.53323 0.59736 0.0
O756 O 0.51408 0.57363 0.53043 0.0
O757 O 0.55232 0.55 0.51162 0.0
O758 O 0.55898 0.53396 0.54752 0.0
C759 C 0.56676 0.54502 0.52848 0.0
H760 H 0.52293 0.59956 0.44247 0.0
H761 H 0.52178 0.47046 0.62149 0.0
Co762 Co 0.00481 0.53273 0.02006 0.0
C763 C 0.01876 0.58006 0.01099 0.0
Co764 Co 0.03847 0.54131 0.03692 0.0
C765 C 0.95783 0.51425 0.01611 0.0
C766 C 0.96939 0.53314 0.98366 0.0
N767 N 0.97632 0.52628 0.00615 0.0
N768 N 0.93954 0.51333 0.00072 0.0
C769 C 0.94678 0.5252 0.98026 0.0
H770 H 0.95796 0.50616 0.03422 0.0
H771 H 0.98005 0.54339 0.97064 0.0
C772 C 0.02454 0.49406 0.04609 0.0
N773 N 0.06727 0.54818 0.04998 0.0
C774 C 0.08488 0.5595 0.03764 0.0
C775 C 0.07601 0.54301 0.07221 0.0
N776 N 0.10437 0.56172 0.05108 0.0
C777 C 0.09894 0.55131 0.07293 0.0
C778 C 1.0001 0.54928 0.06752 0.0
O779 O 0.0072 0.5003 0.03277 0.0
O780 O 0.04042 0.50934 0.05007 0.0
O781 O 0.02254 0.55094 0.06578 0.0
O782 O 0.98876 0.54192 0.0494 0.0
O783 O 0.03635 0.57351 0.02371 0.0
H784 H 0.06641 0.53372 0.08681 0.0
H785 H 0.08352 0.56551 0.0188 0.0
O786 O 0.00259 0.56501 0.0075 0.0
O787 O 0.02087 0.52362 0.99087 0.0
O788 O 0.0544 0.53153 0.008 0.0
C789 C 0.04333 0.52472 0.98958 0.0
H790 H 0.9364 0.52828 0.96411 0.0
H791 H 0.11055 0.54995 0.08835 0.0
H792 H 0.97751 0.2204 0.09822 0.0
H793 H 0.04569 0.20853 0.13074 0.0
H794 H 0.979 0.18056 0.08174 0.0
H795 H 0.04729 0.16827 0.11391 0.0
H796 H 0.02959 0.08867 0.09918 0.0
H797 H 0.02885 0.12841 0.11713 0.0
H798 H 0.9994 0.15741 0.05076 0.0
H799 H 0.99999 0.11801 0.03304 0.0
C800 C 0.99296 0.20936 0.1018 0.0
C801 C 0.01153 0.21797 0.11584 0.0
C802 C 0.99386 0.18637 0.09218 0.0
C803 C 0.0133 0.17094 0.0963 0.0
C804 C 0.0319 0.17945 0.11045 0.0
C805 C 0.03109 0.20267 0.11997 0.0
C806 C 0.02275 0.1035 0.08851 0.0
C807 C 0.01466 0.0999 0.06465 0.0
C808 C 0.02255 0.1264 0.09873 0.0
C809 C 0.01403 0.14636 0.08552 0.0
C810 C 0.00581 0.14261 0.06175 0.0
C811 C 0.00619 0.11987 0.0515 0.0
H812 H 0.12298 0.79857 0.41561 0.0
H813 H 0.0831 0.75899 0.36383 0.0
H814 H 0.15886 0.7931 0.39009 0.0
H815 H 0.11903 0.75316 0.33865 0.0
H816 H 0.18335 0.7687 0.28797 0.0
H817 H 0.14719 0.77565 0.31264 0.0
H818 H 0.18561 0.76008 0.37852 0.0
H819 H 0.22186 0.75358 0.35397 0.0
C820 C 0.12186 0.78874 0.3988 0.0
C821 C 0.10025 0.77916 0.39176 0.0
C822 C 0.14242 0.78549 0.38427 0.0
C823 C 0.14173 0.77261 0.36246 0.0
C824 C 0.12004 0.76337 0.35524 0.0
C825 C 0.09949 0.76662 0.36974 0.0
C826 C 0.18405 0.76667 0.30771 0.0
C827 C 0.20542 0.76057 0.31904 0.0
C828 C 0.16335 0.77059 0.32181 0.0
C829 C 0.16364 0.76848 0.34748 0.0
C830 C 0.18496 0.76219 0.35878 0.0
C831 C 0.20566 0.75828 0.34471 0.0
H832 H 0.50312 0.85001 0.60636 0.0
H833 H 0.57488 0.86594 0.6253 0.0
H834 H 0.50001 0.88843 0.58485 0.0
H835 H 0.57251 0.90337 0.60288 0.0
H836 H 0.55559 0.98021 0.58609 0.0
H837 H 0.55787 0.94109 0.60508 0.0
H838 H 0.50903 0.91472 0.55257 0.0
H839 H 0.50585 0.9546 0.53436 0.0
C840 C 0.51841 0.86149 0.60549 0.0
C841 C 0.53919 0.85487 0.61776 0.0
C842 C 0.51669 0.88363 0.59307 0.0
C843 C 0.53585 0.89966 0.59224 0.0
C844 C 0.55696 0.89228 0.60361 0.0
C845 C 0.55848 0.87049 0.61634 0.0
C846 C 0.54539 0.96609 0.57845 0.0
C847 C 0.53064 0.97073 0.55851 0.0
C848 C 0.54682 0.94335 0.5893 0.0
C849 C 0.53389 0.92414 0.5804 0.0
C850 C 0.51914 0.92881 0.56032 0.0
C851 C 0.51744 0.95176 0.54966 0.0
H852 H 0.48536 0.32822 0.87672 0.0
H853 H 0.47227 0.25462 0.86105 0.0
H854 H 0.45029 0.34012 0.85418 0.0
H855 H 0.43677 0.26635 0.83942 0.0
H856 H 0.38398 0.29268 0.78667 0.0
H857 H 0.42308 0.28545 0.80349 0.0
H858 H 0.40801 0.33859 0.85844 0.0
H859 H 0.36921 0.34636 0.84067 0.0
C860 C 0.47494 0.31459 0.8685 0.0
C861 C 0.48149 0.29048 0.87066 0.0
C862 C 0.4548 0.3214 0.85568 0.0
C863 C 0.44072 0.30422 0.84498 0.0
C864 C 0.44747 0.28012 0.847 0.0
C865 C 0.46773 0.27334 0.85956 0.0
C866 C 0.38929 0.30299 0.80212 0.0
C867 C 0.3737 0.31987 0.81262 0.0
C868 C 0.41156 0.29878 0.81186 0.0
C869 C 0.4185 0.3111 0.83261 0.0
C870 C 0.4033 0.3289 0.84234 0.0
C871 C 0.38111 0.33336 0.83228 0.0
H872 H 0.99584 0.80743 0.50996 0.0
H873 H 0.05558 0.83211 0.46549 0.0
H874 H 0.99267 0.84627 0.52934 0.0
H875 H 0.05211 0.87074 0.48421 0.0
H876 H 0.04587 0.93859 0.5217 0.0
H877 H 0.05379 0.89597 0.51909 0.0
H878 H 0.97862 0.88386 0.51224 0.0
H879 H 0.97081 0.92635 0.51536 0.0
C880 C 0.00862 0.82094 0.50475 0.0
C881 C 0.02565 0.81696 0.48589 0.0
C882 C 0.00672 0.84319 0.51572 0.0
C883 C 0.02191 0.86167 0.50807 0.0
C884 C 0.04021 0.8569 0.49071 0.0
C885 C 0.04206 0.83478 0.47976 0.0
C886 C 0.03107 0.92673 0.5199 0.0
C887 C 0.00778 0.93572 0.51822 0.0
C888 C 0.03557 0.90236 0.51853 0.0
C889 C 0.01687 0.88656 0.51519 0.0
C890 C 0.99342 0.89548 0.51512 0.0
C891 C 0.98892 0.91984 0.51672 0.0
H892 H 0.44745 0.83974 0.67747 0.0
H893 H 0.46321 0.76902 0.70467 0.0
H894 H 0.40833 0.8384 0.69761 0.0
H895 H 0.42401 0.7678 0.72524 0.0
H896 H 0.34244 0.76304 0.73325 0.0
H897 H 0.38262 0.76494 0.7157 0.0
H898 H 0.38651 0.83848 0.73632 0.0
H899 H 0.34594 0.83665 0.75366 0.0
C900 C 0.4427 0.82392 0.68794 0.0
C901 C 0.45865 0.80445 0.68929 0.0
C902 C 0.42018 0.82322 0.69968 0.0
C903 C 0.41274 0.80297 0.71311 0.0
C904 C 0.42886 0.78361 0.71482 0.0
C905 C 0.45148 0.78435 0.70314 0.0
C906 C 0.3518 0.77967 0.73412 0.0
C907 C 0.34075 0.79972 0.7449 0.0
C908 C 0.37504 0.78069 0.72417 0.0
C909 C 0.38808 0.80183 0.72455 0.0
C910 C 0.37705 0.82192 0.7354 0.0
C911 C 0.35376 0.82086 0.74548 0.0
H912 H 0.53729 0.2104 0.92066 0.0
H913 H 0.5493 0.22693 0.9963 0.0
H914 H 0.53964 0.16814 0.93061 0.0
H915 H 0.5505 0.18475 0.00657 0.0
H916 H 0.57199 0.10969 0.01706 0.0
H917 H 0.57442 0.15052 0.00205 0.0
H918 H 0.51905 0.13698 0.95094 0.0
H919 H 0.51766 0.09572 0.9652 0.0
C920 C 0.54012 0.20497 0.9395 0.0
C921 C 0.54314 0.22192 0.95774 0.0
C922 C 0.54143 0.18074 0.94521 0.0
C923 C 0.54546 0.17297 0.96935 0.0
C924 C 0.54801 0.19004 0.98765 0.0
C925 C 0.54707 0.21425 0.98186 0.0
C926 C 0.56076 0.11537 0.00222 0.0
C927 C 0.54457 0.09971 0.99232 0.0
C928 C 0.56192 0.13882 0.99381 0.0
C929 C 0.54652 0.14724 0.97571 0.0
C930 C 0.53126 0.13111 0.96482 0.0
C931 C 0.53045 0.10746 0.97294 0.0
H932 H 0.07755 0.28196 0.22135 0.0
H933 H 0.12132 0.28842 0.15539 0.0
H934 H 0.11331 0.28442 0.24609 0.0
H935 H 0.15658 0.29113 0.17986 0.0
H936 H 0.21181 0.32094 0.22957 0.0
H937 H 0.17431 0.31961 0.20852 0.0
H938 H 0.15209 0.26068 0.25473 0.0
H939 H 0.19002 0.2618 0.27586 0.0
C940 C 0.0947 0.28401 0.2121 0.0
C941 C 0.0964 0.28501 0.18628 0.0
C942 C 0.11524 0.28529 0.22629 0.0
C943 C 0.13794 0.2881 0.21504 0.0
C944 C 0.13948 0.28925 0.18926 0.0
C945 C 0.11915 0.28757 0.17517 0.0
C946 C 0.19892 0.3078 0.23554 0.0
C947 C 0.20416 0.29146 0.25452 0.0
C948 C 0.17737 0.30696 0.22329 0.0
C949 C 0.1601 0.28993 0.22971 0.0
C950 C 0.16487 0.27412 0.24932 0.0
C951 C 0.18667 0.27474 0.26142 0.0
H952 H 0.16593 0.01144 0.20863 0.0
H953 H 0.13071 0.94669 0.23131 0.0
H954 H 0.14002 0.01527 0.17377 0.0
H955 H 0.10417 0.95099 0.19715 0.0
H956 H 0.07034 0.03103 0.13511 0.0
H957 H 0.09967 0.02544 0.16679 0.0
H958 H 0.10044 0.94977 0.15417 0.0
H959 H 0.07058 0.95547 0.12314 0.0
C960 C 0.15273 0.99796 0.20608 0.0
C961 C 0.15028 0.97882 0.22273 0.0
C962 C 0.13774 1.00026 0.18623 0.0
C963 C 0.1198 0.9836 0.1828 0.0
C964 C 0.11795 0.96401 0.19903 0.0
C965 C 0.13313 0.96157 0.21869 0.0
C966 C 0.07689 0.01326 0.13914 0.0
C967 C 0.06808 0.99367 0.1269 0.0
C968 C 0.09379 0.01002 0.15715 0.0
C969 C 0.10246 0.98713 0.16304 0.0
C970 C 0.09385 0.96759 0.15044 0.0
C971 C 0.07675 0.97082 0.13268 0.0
H972 H 0.30313 0.81663 0.50905 0.0
H973 H 0.25092 0.84924 0.46209 0.0
H974 H 0.31478 0.78922 0.47617 0.0
H975 H 0.26266 0.82208 0.42961 0.0
H976 H 0.31121 0.79863 0.3688 0.0
H977 H 0.3048 0.82098 0.40635 0.0
H978 H 0.29411 0.75552 0.4472 0.0
H979 H 0.30056 0.73298 0.40916 0.0
C980 C 0.29395 0.81775 0.4919 0.0
C981 C 0.27636 0.83532 0.48799 0.0
C982 C 0.3006 0.80206 0.47321 0.0
C983 C 0.28987 0.80396 0.4504 0.0
C984 C 0.27145 0.82063 0.44699 0.0
C985 C 0.2647 0.8361 0.46561 0.0
C986 C 0.30805 0.78903 0.38592 0.0
C987 C 0.30599 0.76424 0.38623 0.0
C988 C 0.30433 0.80175 0.4073 0.0
C989 C 0.29848 0.78989 0.42938 0.0
C990 C 0.29853 0.76494 0.43026 0.0
C991 C 0.3023 0.75211 0.40866 0.0
H992 H 0.40386 0.01798 0.69535 0.0
H993 H 0.45007 0.07278 0.72022 0.0
H994 H 0.42454 0.01873 0.65536 0.0
H995 H 0.46989 0.07428 0.68025 0.0
H996 H 0.51722 0.05315 0.61616 0.0
H997 H 0.49627 0.05171 0.65545 0.0
H998 H 0.42975 0.04334 0.61904 0.0
H999 H 0.45108 0.04372 0.57935 0.0
C1000 C 0.41845 0.03012 0.69227 0.0
C1001 C 0.42548 0.04519 0.71092 0.0
C1002 C 0.4301 0.03075 0.66933 0.0
C1003 C 0.44881 0.04661 0.66461 0.0
C1004 C 0.45583 0.06156 0.68338 0.0
C1005 C 0.44443 0.06072 0.70632 0.0
C1006 C 0.49809 0.05122 0.61643 0.0
C1007 C 0.48576 0.04865 0.59466 0.0
C1008 C 0.48605 0.05046 0.63902 0.0
C1009 C 0.46133 0.04747 0.64039 0.0
C1010 C 0.44887 0.04533 0.61858 0.0
C1011 C 0.46101 0.04581 0.59587 0.0
H1012 H 0.29881 0.20068 0.96932 0.0
H1013 H 0.23418 0.16952 0.94514 0.0
H1014 H 0.30308 0.22217 0.93008 0.0
H1015 H 0.23754 0.19169 0.9068 0.0
H1016 H 0.2596 0.21295 0.83014 0.0
H1017 H 0.25743 0.19266 0.86967 0.0
H1018 H 0.291 0.25227 0.9029 0.0
H1019 H 0.29427 0.27202 0.86272 0.0
C1020 C 0.2853 0.19873 0.9558 0.0
C1021 C 0.26627 0.18318 0.96036 0.0
C1022 C 0.28768 0.21112 0.93322 0.0
C1023 C 0.27089 0.20856 0.91472 0.0
C1024 C 0.25137 0.1937 0.91993 0.0
C1025 C 0.24926 0.18107 0.9422 0.0
C1026 C 0.26661 0.22173 0.84585 0.0
C1027 C 0.27702 0.24421 0.84315 0.0
C1028 C 0.26517 0.21015 0.86876 0.0
C1029 C 0.27364 0.2208 0.88999 0.0
C1030 C 0.28441 0.24322 0.88718 0.0
C1031 C 0.28621 0.25468 0.86407 0.0
H1032 H 0.0916 0.01369 0.30091 0.0
H1033 H 0.13714 0.97548 0.35085 0.0
H1034 H 0.06195 0.01901 0.33395 0.0
H1035 H 0.10732 0.98071 0.38378 0.0
H1036 H 0.04444 0.98556 0.43647 0.0
H1037 H 0.06387 0.97221 0.39828 0.0
H1038 H 0.06676 0.04487 0.37194 0.0
H1039 H 0.0477 0.05823 0.41007 0.0
C1040 C 0.09508 0.00597 0.31878 0.0
C1041 C 0.11686 0.99447 0.32341 0.0
C1042 C 0.07809 0.00905 0.33765 0.0
C1043 C 0.08244 0.00038 0.36136 0.0
C1044 C 0.10346 0.98741 0.36558 0.0
C1045 C 0.1206 0.98457 0.34679 0.0
C1046 C 0.04866 0.99858 0.42223 0.0
C1047 C 0.04477 0.02294 0.42623 0.0
C1048 C 0.05986 0.99095 0.40049 0.0
C1049 C 0.06686 0.00753 0.3823 0.0
C1050 C 0.06135 0.0317 0.3856 0.0
C1051 C 0.05057 0.03936 0.40745 0.0
H1052 H 0.21051 0.83463 0.58341 0.0
H1053 H 0.2606 0.88811 0.60321 0.0
H1054 H 0.20966 0.81945 0.62572 0.0
H1055 H 0.25992 0.87287 0.64502 0.0
H1056 H 0.24327 0.85295 0.72196 0.0
H1057 H 0.23355 0.86885 0.68169 0.0
H1058 H 0.23958 0.79839 0.65167 0.0
H1059 H 0.2489 0.78232 0.69206 0.0
C1060 C 0.22117 0.84323 0.5968 0.0
C1061 C 0.23575 0.86242 0.59001 0.0
C1062 C 0.22071 0.83452 0.62092 0.0
C1063 C 0.23464 0.84507 0.63859 0.0
C1064 C 0.24869 0.86464 0.63188 0.0
C1065 C 0.24927 0.87321 0.60785 0.0
C1066 C 0.24217 0.84078 0.70685 0.0
C1067 C 0.24723 0.81645 0.71002 0.0
C1068 C 0.23663 0.8499 0.68383 0.0
C1069 C 0.23612 0.83488 0.66357 0.0
C1070 C 0.23971 0.81034 0.66703 0.0
C1071 C 0.24522 0.80118 0.6901 0.0
H1072 H 0.43503 0.98726 0.80784 0.0
H1073 H 0.40328 0.05058 0.8394 0.0
H1074 H 0.46038 0.98277 0.84321 0.0
H1075 H 0.42811 0.04576 0.87484 0.0
H1076 H 0.49403 0.04625 0.92014 0.0
H1077 H 0.46976 0.04944 0.884 0.0
H1078 H 0.45845 0.97367 0.8872 0.0
H1079 H 0.48294 0.9705 0.92327 0.0
C1080 C 0.43331 1.00007 0.82241 0.0
C1081 C 0.41727 0.01934 0.82079 0.0
C1082 C 0.44776 0.99746 0.84268 0.0
C1083 C 0.44636 0.01404 0.86167 0.0
C1084 C 0.42994 0.03298 0.86025 0.0
C1085 C 0.41559 0.03563 0.84002 0.0
C1086 C 0.48629 0.03031 0.91316 0.0
C1087 C 0.49025 0.00816 0.92458 0.0
C1088 C 0.47238 0.03212 0.89249 0.0
C1089 C 0.46204 0.01182 0.8829 0.0
C1090 C 0.46639 0.98958 0.89403 0.0
C1091 C 0.4804 0.98777 0.91467 0.0
H1092 H 0.283 0.16539 0.11331 0.0
H1093 H 0.2614 0.23443 0.08577 0.0
H1094 H 0.28704 0.18195 0.15418 0.0
H1095 H 0.26494 0.25078 0.12644 0.0
H1096 H 0.29533 0.28033 0.19467 0.0
H1097 H 0.29379 0.26165 0.15492 0.0
H1098 H 0.26561 0.19813 0.18956 0.0
H1099 H 0.26766 0.21682 0.22969 0.0
C1100 C 0.27901 0.18407 0.11594 0.0
C1101 C 0.27196 0.19854 0.09605 0.0
C1102 C 0.28122 0.19357 0.13948 0.0
C1103 C 0.27652 0.21784 0.1438 0.0
C1104 C 0.26922 0.23216 0.12391 0.0
C1105 C 0.26701 0.22269 0.10047 0.0
C1106 C 0.28904 0.26227 0.19395 0.0
C1107 C 0.2816 0.25016 0.21555 0.0
C1108 C 0.28793 0.25157 0.171 0.0
C1109 C 0.27922 0.2284 0.16874 0.0
C1110 C 0.27254 0.21592 0.19044 0.0
C1111 C 0.2737 0.22666 0.21353 0.0
H1112 H 0.17775 0.15322 0.01998 0.0
H1113 H 0.21803 0.08984 0.03809 0.0
H1114 H 0.1419 0.12989 0.01772 0.0
H1115 H 0.1818 0.06629 0.03576 0.0
H1116 H 0.10406 0.04015 0.0566 0.0
H1117 H 0.1423 0.06036 0.05736 0.0
H1118 H 0.12442 0.09998 0.99195 0.0
H1119 H 0.08637 0.07998 0.99121 0.0
C1120 C 0.17903 0.13426 0.02346 0.0
C1121 C 0.20094 0.1235 0.02921 0.0
C1122 C 0.15838 0.1208 0.02198 0.0
C1123 C 0.15884 0.0961 0.02639 0.0
C1124 C 0.1807 0.08527 0.03236 0.0
C1125 C 0.20152 0.09877 0.03359 0.0
C1126 C 0.10842 0.05293 0.04218 0.0
C1127 C 0.09198 0.05841 0.02388 0.0
C1128 C 0.13041 0.06451 0.04259 0.0
C1129 C 0.13645 0.08204 0.02487 0.0
C1130 C 0.12029 0.0869 0.00615 0.0
C1131 C 0.09846 0.07525 0.00563 0.0
H1132 H 0.69327 0.43085 0.08992 0.0
H1133 H 0.69796 0.4507 0.0131 0.0
H1134 H 0.66288 0.4615 0.09683 0.0
H1135 H 0.66751 0.48149 0.02014 0.0
H1136 H 0.62757 0.54733 0.0446 0.0
H1137 H 0.66213 0.52053 0.04443 0.0
H1138 H 0.62034 0.46684 0.08222 0.0
H1139 H 0.58578 0.49345 0.08223 0.0
C1140 C 0.68784 0.44179 0.07451 0.0
C1141 C 0.69791 0.43833 0.05092 0.0
C1142 C 0.67048 0.45932 0.07852 0.0
C1143 C 0.66308 0.47394 0.05908 0.0
C1144 C 0.67323 0.47065 0.03551 0.0
C1145 C 0.69041 0.45288 0.03142 0.0
C1146 C 0.626 0.53012 0.05362 0.0
C1147 C 0.604 0.52238 0.06334 0.0
C1148 C 0.64567 0.51472 0.05324 0.0
C1149 C 0.64371 0.49156 0.06296 0.0
C1150 C 0.6223 0.48462 0.07461 0.0
C1151 C 0.60256 0.49985 0.07466 0.0
H1152 H 0.81551 0.50869 0.29207 0.0
H1153 H 0.81656 0.49822 0.21375 0.0
H1154 H 0.79212 0.47312 0.29824 0.0
H1155 H 0.79271 0.46255 0.21995 0.0
H1156 H 0.79872 0.38395 0.25035 0.0
H1157 H 0.8071 0.42453 0.23785 0.0
H1158 H 0.75592 0.45018 0.29211 0.0
H1159 H 0.7473 0.4093 0.30457 0.0
C1160 C 0.81017 0.49912 0.27612 0.0
C1161 C 0.8183 0.50586 0.25248 0.0
C1162 C 0.79656 0.47883 0.27964 0.0
C1163 C 0.7909 0.46489 0.25958 0.0
C1164 C 0.79716 0.47285 0.23574 0.0
C1165 C 0.8107 0.49328 0.2322 0.0
C1166 C 0.78878 0.39813 0.25924 0.0
C1167 C 0.77259 0.39336 0.27872 0.0
C1168 C 0.79349 0.42145 0.25196 0.0
C1169 C 0.78216 0.44052 0.26403 0.0
C1170 C 0.76506 0.43578 0.28265 0.0
C1171 C 0.7603 0.4124 0.28992 0.0
H1172 H 0.82704 0.58906 0.515 0.0
H1173 H 0.86588 0.64647 0.54586 0.0
H1174 H 0.86332 0.56424 0.51478 0.0
H1175 H 0.90171 0.62188 0.54564 0.0
H1176 H 0.95342 0.56474 0.56926 0.0
H1177 H 0.91568 0.58606 0.56821 0.0
H1178 H 0.90534 0.5619 0.49469 0.0
H1179 H 0.94357 0.54027 0.49565 0.0
C1180 C 0.84324 0.5964 0.52173 0.0
C1181 C 0.84343 0.61978 0.53056 0.0
C1182 C 0.86406 0.58221 0.52147 0.0
C1183 C 0.88542 0.59098 0.53036 0.0
C1184 C 0.88554 0.61439 0.53899 0.0
C1185 C 0.86493 0.62857 0.539 0.0
C1186 C 0.94313 0.5637 0.55286 0.0
C1187 C 0.95173 0.5508 0.53247 0.0
C1188 C 0.92146 0.5761 0.55224 0.0
C1189 C 0.90755 0.57597 0.53127 0.0
C1190 C 0.91559 0.56233 0.51116 0.0
C1191 C 0.93752 0.54997 0.51169 0.0
H1192 H 0.22989 0.05941 0.30145 0.0
H1193 H 0.15799 0.08746 0.30124 0.0
H1194 H 0.24466 0.09905 0.3087 0.0
H1195 H 0.17277 0.12703 0.30903 0.0
H1196 H 0.21182 0.19673 0.29089 0.0
H1197 H 0.19564 0.15721 0.28668 0.0
H1198 H 0.24478 0.12969 0.33983 0.0
H1199 H 0.26165 0.16906 0.34327 0.0
C1200 C 0.21722 0.074 0.30314 0.0
C1201 C 0.19279 0.07035 0.30064 0.0
C1202 C 0.22568 0.09668 0.30746 0.0
C1203 C 0.20987 0.11614 0.30943 0.0
C1204 C 0.1854 0.11241 0.30729 0.0
C1205 C 0.17694 0.08974 0.30292 0.0
C1206 C 0.21926 0.18224 0.30158 0.0
C1207 C 0.23817 0.18601 0.31724 0.0
C1208 C 0.20979 0.15965 0.2994 0.0
C1209 C 0.219 0.14034 0.31288 0.0
C1210 C 0.23751 0.14419 0.32899 0.0
C1211 C 0.24699 0.1668 0.33117 0.0
H1212 H 0.32591 0.92208 0.49892 0.0
H1213 H 0.30248 0.9778 0.54806 0.0
H1214 H 0.36304 0.9427 0.49089 0.0
H1215 H 0.3396 0.99867 0.5396 0.0
H1216 H 0.42032 0.01085 0.54166 0.0
H1217 H 0.38177 0.99254 0.54844 0.0
H1218 H 0.37835 0.97894 0.47092 0.0
H1219 H 0.41745 0.99648 0.46427 0.0
C1220 C 0.32862 0.93881 0.5079 0.0
C1221 C 0.31131 0.94829 0.5242 0.0
C1222 C 0.34982 0.95069 0.50314 0.0
C1223 C 0.35416 0.9723 0.51457 0.0
C1224 C 0.33679 0.98191 0.53073 0.0
C1225 C 0.31554 0.97001 0.5355 0.0
C1226 C 0.41145 0.00378 0.52609 0.0
C1227 C 0.42203 0.00485 0.50246 0.0
C1228 C 0.38922 0.9936 0.52993 0.0
C1229 C 0.3771 0.9843 0.51021 0.0
C1230 C 0.38744 0.98576 0.4865 0.0
C1231 C 0.40969 0.99598 0.48265 0.0
H1232 H 0.864 0.61468 0.22894 0.0
H1233 H 0.88622 0.63699 0.30002 0.0
H1234 H 0.85057 0.65498 0.21956 0.0
H1235 H 0.87192 0.67721 0.29104 0.0
H1236 H 0.84771 0.74918 0.2696 0.0
H1237 H 0.87339 0.71396 0.26681 0.0
H1238 H 0.81596 0.67512 0.23599 0.0
H1239 H 0.79067 0.71018 0.2382 0.0
C1240 C 0.86612 0.62829 0.2425 0.0
C1241 C 0.87556 0.62273 0.26545 0.0
C1242 C 0.85851 0.65133 0.23709 0.0
C1243 C 0.85984 0.66913 0.25469 0.0
C1244 C 0.87084 0.66391 0.27701 0.0
C1245 C 0.87879 0.64086 0.28228 0.0
C1246 C 0.84083 0.73326 0.26163 0.0
C1247 C 0.81708 0.73223 0.25451 0.0
C1248 C 0.85549 0.71312 0.26015 0.0
C1249 C 0.84661 0.69174 0.25148 0.0
C1250 C 0.82345 0.69136 0.24256 0.0
C1251 C 0.80884 0.71143 0.24402 0.0
H1252 H 0.68617 0.41818 0.85225 0.0
H1253 H 0.73803 0.4419 0.7975 0.0
H1254 H 0.70751 0.38042 0.856 0.0
H1255 H 0.75913 0.40396 0.80109 0.0
H1256 H 0.79485 0.33321 0.81394 0.0
H1257 H 0.78111 0.37298 0.82687 0.0
H1258 H 0.70829 0.35025 0.82296 0.0
H1259 H 0.72202 0.31118 0.80997 0.0
C1260 C 0.70232 0.41549 0.8413 0.0
C1261 C 0.7101 0.43272 0.82409 0.0
C1262 C 0.71458 0.39394 0.84357 0.0
C1263 C 0.73478 0.38923 0.82865 0.0
C1264 C 0.7437 0.40721 0.81295 0.0
C1265 C 0.73144 0.42881 0.81069 0.0
C1266 C 0.77599 0.33678 0.81657 0.0
C1267 C 0.75935 0.31957 0.81097 0.0
C1268 C 0.76816 0.35937 0.82384 0.0
C1269 C 0.74367 0.36461 0.82594 0.0
C1270 C 0.72724 0.34665 0.82189 0.0
C1271 C 0.73504 0.32438 0.81429 0.0
H1272 H 0.99841 0.88365 0.90551 0.0
H1273 H 0.04117 0.84713 0.95894 0.0
H1274 H 0.00263 0.92063 0.92701 0.0
H1275 H 0.04618 0.88465 0.98029 0.0
H1276 H 0.0317 0.95268 0.02566 0.0
H1277 H 0.02894 0.91465 0.00513 0.0
H1278 H 0.02805 0.95142 0.93507 0.0
H1279 H 0.0299 0.98936 0.95573 0.0
C1280 C 0.00889 0.88347 0.92184 0.0
C1281 C 0.01946 0.86217 0.93033 0.0
C1282 C 0.01152 0.90494 0.93417 0.0
C1283 C 0.02505 0.90612 0.95543 0.0
C1284 C 0.03545 0.8847 0.96416 0.0
C1285 C 0.03265 0.86306 0.95184 0.0
C1286 C 0.03111 0.95266 0.00584 0.0
C1287 C 0.031 0.9743 0.99245 0.0
C1288 C 0.0296 0.9307 0.99397 0.0
C1289 C 0.02802 0.92956 0.96825 0.0
C1290 C 0.02864 0.95126 0.95488 0.0
C1291 C 0.02997 0.9732 0.96676 0.0
H1292 H 0.91332 0.27301 0.64395 0.0
H1293 H 0.95916 0.26894 0.70609 0.0
H1294 H 0.87865 0.27311 0.67166 0.0
H1295 H 0.92451 0.2699 0.73384 0.0
H1296 H 0.85486 0.24573 0.77352 0.0
H1297 H 0.89124 0.24687 0.7481 0.0
H1298 H 0.85851 0.29877 0.70004 0.0
H1299 H 0.82203 0.29695 0.72489 0.0
C1300 C 0.91598 0.27219 0.66353 0.0
C1301 C 0.93894 0.27098 0.67283 0.0
C1302 C 0.89613 0.27247 0.67944 0.0
C1303 C 0.89882 0.2718 0.705 0.0
C1304 C 0.9218 0.27024 0.71428 0.0
C1305 C 0.94166 0.26975 0.69835 0.0
C1306 C 0.85564 0.25767 0.75777 0.0
C1307 C 0.8356 0.27111 0.75106 0.0
C1308 C 0.87646 0.25833 0.74318 0.0
C1309 C 0.87763 0.27261 0.72179 0.0
C1310 C 0.85798 0.28709 0.716 0.0
C1311 C 0.83716 0.28624 0.73039 0.0
H1312 H 0.54513 0.22304 0.4479 0.0
H1313 H 0.46884 0.21733 0.45417 0.0
H1314 H 0.5494 0.18442 0.46881 0.0
H1315 H 0.473 0.17938 0.47547 0.0
H1316 H 0.48612 0.10025 0.48699 0.0
H1317 H 0.48311 0.1395 0.4681 0.0
H1318 H 0.54526 0.16123 0.50604 0.0
H1319 H 0.54861 0.12144 0.52456 0.0
C1320 C 0.52926 0.21374 0.45398 0.0
C1321 C 0.50663 0.22342 0.44912 0.0
C1322 C 0.53169 0.19153 0.4661 0.0
C1323 C 0.51157 0.17834 0.47375 0.0
C1324 C 0.489 0.18848 0.46945 0.0
C1325 C 0.48659 0.21051 0.45732 0.0
C1326 C 0.49912 0.11337 0.49148 0.0
C1327 C 0.51753 0.10751 0.50751 0.0
C1328 C 0.49732 0.1361 0.48068 0.0
C1329 C 0.51382 0.15394 0.48552 0.0
C1330 C 0.53229 0.14808 0.50158 0.0
C1331 C 0.53411 0.12523 0.51241 0.0
H1332 H 0.56964 0.80388 0.19089 0.0
H1333 H 0.55149 0.72958 0.19599 0.0
H1334 H 0.60735 0.79509 0.20965 0.0
H1335 H 0.58916 0.72083 0.21555 0.0
H1336 H 0.67144 0.71311 0.22037 0.0
H1337 H 0.63134 0.71942 0.20514 0.0
H1338 H 0.62413 0.78339 0.24771 0.0
H1339 H 0.66423 0.77729 0.26226 0.0
C1340 C 0.57356 0.78569 0.19633 0.0
C1341 C 0.55759 0.76742 0.19193 0.0
C1342 C 0.59516 0.78066 0.20724 0.0
C1343 C 0.60124 0.75726 0.2142 0.0
C1344 C 0.5851 0.739 0.21015 0.0
C1345 C 0.56348 0.74403 0.19909 0.0
C1346 C 0.66109 0.72833 0.22659 0.0
C1347 C 0.67097 0.74492 0.24213 0.0
C1348 C 0.63814 0.73193 0.21798 0.0
C1349 C 0.62466 0.75208 0.22499 0.0
C1350 C 0.63426 0.76802 0.24146 0.0
C1351 C 0.65719 0.76454 0.24982 0.0
H1352 H 0.99442 0.2596 0.54407 0.0
H1353 H 0.03777 0.22195 0.59647 0.0
H1354 H 0.00942 0.23303 0.51178 0.0
H1355 H 0.05258 0.19576 0.56447 0.0
H1356 H 0.08822 0.16008 0.50245 0.0
H1357 H 0.07744 0.19579 0.52551 0.0
H1358 H 0.00456 0.18919 0.50423 0.0
H1359 H 0.01549 0.15376 0.48104 0.0
C1360 C 0.00716 0.24576 0.54868 0.0
C1361 C 0.01475 0.24276 0.57286 0.0
C1362 C 0.01578 0.23065 0.53021 0.0
C1363 C 0.03239 0.21256 0.53558 0.0
C1364 C 0.04019 0.20985 0.55966 0.0
C1365 C 0.03141 0.22469 0.57809 0.0
C1366 C 0.07014 0.16684 0.50197 0.0
C1367 C 0.05259 0.15411 0.49029 0.0
C1368 C 0.06391 0.1871 0.51532 0.0
C1369 C 0.04009 0.19499 0.51697 0.0
C1370 C 0.02304 0.18357 0.50326 0.0
C1371 C 0.02925 0.16326 0.49011 0.0
H1372 H 0.58107 0.30641 0.35107 0.0
H1373 H 0.59738 0.23451 0.37429 0.0
H1374 H 0.61905 0.30796 0.32814 0.0
H1375 H 0.63534 0.2362 0.35194 0.0
H1376 H 0.69446 0.23865 0.29286 0.0
H1377 H 0.65488 0.237 0.31248 0.0
H1378 H 0.66092 0.31007 0.33414 0.0
H1379 H 0.70011 0.31182 0.31417 0.0
C1380 C 0.59268 0.29091 0.35127 0.0
C1381 C 0.586 0.27036 0.36464 0.0
C1382 C 0.61461 0.29183 0.33822 0.0
C1383 C 0.63053 0.27221 0.3381 0.0
C1384 C 0.6236 0.25158 0.35119 0.0
C1385 C 0.60176 0.25067 0.36422 0.0
C1386 C 0.68731 0.2544 0.30171 0.0
C1387 C 0.70064 0.27535 0.30186 0.0
C1388 C 0.66458 0.25343 0.31313 0.0
C1389 C 0.65446 0.2734 0.32504 0.0
C1390 C 0.66778 0.2944 0.32493 0.0
C1391 C 0.69045 0.29535 0.31356 0.0
H1392 H 0.47814 0.87601 0.13915 0.0
H1393 H 0.55379 0.87381 0.12295 0.0
H1394 H 0.47528 0.91472 0.11806 0.0
H1395 H 0.55064 0.91213 0.10146 0.0
H1396 H 0.51867 0.95811 0.03518 0.0
H1397 H 0.5177 0.92101 0.05908 0.0
H1398 H 0.50405 0.96034 0.12531 0.0
H1399 H 0.50555 0.9977 0.10161 0.0
C1400 C 0.49412 0.88388 0.13127 0.0
C1401 C 0.51618 0.87196 0.13262 0.0
C1402 C 0.49245 0.90591 0.1193 0.0
C1403 C 0.51273 0.916 0.10819 0.0
C1404 C 0.53483 0.90443 0.10995 0.0
C1405 C 0.5366 0.88266 0.1223 0.0
C1406 C 0.51506 0.95885 0.05476 0.0
C1407 C 0.51226 0.98073 0.0666 0.0
C1408 C 0.51462 0.9377 0.06836 0.0
C1409 C 0.5109 0.93813 0.09385 0.0
C1410 C 0.50691 0.95981 0.10561 0.0
C1411 C 0.50779 0.98105 0.09208 0.0
H1412 H 0.95333 0.81366 0.86383 0.0
H1413 H 0.95937 0.73951 0.84542 0.0
H1414 H 0.91554 0.81645 0.84264 0.0
H1415 H 0.92204 0.74233 0.82417 0.0
H1416 H 0.84191 0.74801 0.81222 0.0
H1417 H 0.88009 0.74623 0.83208 0.0
H1418 H 0.89689 0.81581 0.80267 0.0
H1419 H 0.85837 0.81769 0.78292 0.0
C1420 C 0.94671 0.79797 0.85523 0.0
C1421 C 0.95956 0.77634 0.85652 0.0
C1422 C 0.92503 0.79959 0.84291 0.0
C1423 C 0.91544 0.77959 0.83165 0.0
C1424 C 0.92846 0.75807 0.83285 0.0
C1425 C 0.95009 0.75649 0.845 0.0
C1426 C 0.85377 0.7629 0.80975 0.0
C1427 C 0.84692 0.78294 0.79573 0.0
C1428 C 0.87584 0.76185 0.82115 0.0
C1429 C 0.89187 0.78085 0.8191 0.0
C1430 C 0.88506 0.80089 0.80497 0.0
C1431 C 0.86299 0.80188 0.7934 0.0
H1432 H 0.95442 0.01671 0.80946 0.0
H1433 H 0.94218 0.09242 0.80171 0.0
H1434 H 0.96872 0.02243 0.85067 0.0
H1435 H 0.9565 0.09805 0.84301 0.0
H1436 H 0.01245 0.0974 0.9042 0.0
H1437 H 0.99603 0.09292 0.86381 0.0
H1438 H 0.95184 0.036 0.89177 0.0
H1439 H 0.96773 0.04077 0.93238 0.0
C1440 C 0.95476 0.03456 0.81655 0.0
C1441 C 0.94723 0.05412 0.80236 0.0
C1442 C 0.9628 0.03779 0.84018 0.0
C1443 C 0.96366 0.06067 0.84995 0.0
C1444 C 0.95615 0.08025 0.83578 0.0
C1445 C 0.94788 0.077 0.81223 0.0
C1446 C 0.99898 0.08417 0.90193 0.0
C1447 C 0.99152 0.06938 0.92161 0.0
C1448 C 0.98963 0.08159 0.87875 0.0
C1449 C 0.97277 0.06407 0.87473 0.0
C1450 C 0.96508 0.04945 0.89436 0.0
C1451 C 0.97427 0.05215 0.9176 0.0
H1452 H 0.76368 0.21364 0.57635 0.0
H1453 H 0.82035 0.26178 0.55609 0.0
H1454 H 0.74917 0.2408 0.6073 0.0
H1455 H 0.80568 0.28933 0.58783 0.0
H1456 H 0.79374 0.29266 0.67632 0.0
H1457 H 0.80544 0.28358 0.63416 0.0
H1458 H 0.7315 0.28106 0.61545 0.0
H1459 H 0.71984 0.28953 0.65794 0.0
C1460 C 0.77296 0.23018 0.57839 0.0
C1461 C 0.7934 0.23543 0.56409 0.0
C1462 C 0.76436 0.24597 0.59589 0.0
C1463 C 0.77612 0.26732 0.59977 0.0
C1464 C 0.79622 0.27302 0.58502 0.0
C1465 C 0.80466 0.25726 0.56706 0.0
C1466 C 0.78003 0.2908 0.663 0.0
C1467 C 0.75592 0.29092 0.67043 0.0
C1468 C 0.78672 0.28594 0.6388 0.0
C1469 C 0.76935 0.2811 0.62174 0.0
C1470 C 0.74522 0.28439 0.62844 0.0
C1471 C 0.73853 0.28928 0.65269 0.0
H1472 H 0.60057 0.06827 0.34886 0.0
H1473 H 0.65502 0.02108 0.37679 0.0
H1474 H 0.57875 0.06524 0.38828 0.0
H1475 H 0.6332 0.01786 0.41574 0.0
H1476 H 0.59759 0.03674 0.48957 0.0
H1477 H 0.62045 0.04205 0.45135 0.0
H1478 H 0.55699 0.03193 0.41033 0.0
H1479 H 0.53395 0.02686 0.44857 0.0
C1480 C 0.60801 0.05758 0.3635 0.0
C1481 C 0.62935 0.0448 0.35979 0.0
C1482 C 0.59545 0.05565 0.38589 0.0
C1483 C 0.60423 0.04112 0.40487 0.0
C1484 C 0.62609 0.02924 0.40145 0.0
C1485 C 0.63851 0.03103 0.37912 0.0
C1486 C 0.58855 0.03535 0.4724 0.0
C1487 C 0.56399 0.03134 0.47205 0.0
C1488 C 0.60163 0.03846 0.45056 0.0
C1489 C 0.59038 0.03768 0.42798 0.0
C1490 C 0.56597 0.03305 0.42756 0.0
C1491 C 0.55288 0.02983 0.44942 0.0
H1492 H 0.74879 0.88426 0.09634 0.0
H1493 H 0.81472 0.84565 0.08381 0.0
H1494 H 0.74493 0.86604 0.13743 0.0
H1495 H 0.81108 0.82795 0.1249 0.0
H1496 H 0.80927 0.82563 0.21036 0.0
H1497 H 0.81175 0.84357 0.16928 0.0
H1498 H 0.73955 0.82324 0.15694 0.0
H1499 H 0.73717 0.80474 0.19798 0.0
C1500 C 0.76247 0.87195 0.10233 0.0
C1501 C 0.78206 0.86645 0.08668 0.0
C1502 C 0.7602 0.86143 0.12583 0.0
C1503 C 0.77773 0.84557 0.1345 0.0
C1504 C 0.79734 0.8402 0.11889 0.0
C1505 C 0.79935 0.85029 0.09526 0.0
C1506 C 0.79388 0.82495 0.19894 0.0
C1507 C 0.77303 0.81365 0.20753 0.0
C1508 C 0.79536 0.83517 0.17532 0.0
C1509 C 0.77587 0.83484 0.15978 0.0
C1510 C 0.75485 0.82391 0.16849 0.0
C1511 C 0.75353 0.81321 0.19196 0.0
H1512 H 0.95316 0.11634 0.66123 0.0
H1513 H 0.98781 0.05465 0.69282 0.0
H1514 H 0.97854 0.11283 0.62443 0.0
H1515 H 0.0139 0.05173 0.65656 0.0
H1516 H 0.01353 0.02776 0.57619 0.0
H1517 H 1.00182 0.03793 0.61764 0.0
H1518 H 0.0169 0.11178 0.60179 0.0
H1519 H 0.02836 0.10148 0.55949 0.0
C1520 C 0.96675 0.10252 0.66062 0.0
C1521 C 0.96815 0.08536 0.67949 0.0
C1522 C 0.98141 0.1006 0.63961 0.0
C1523 C 0.99786 0.08168 0.63739 0.0
C1524 C 1.00095 0.06613 0.65749 0.0
C1525 C 0.98604 0.06779 0.67824 0.0
C1526 C 0.01466 0.04616 0.58153 0.0
C1527 C 0.02155 0.06388 0.56453 0.0
C1528 C 0.00823 0.05197 0.60547 0.0
C1529 C 0.00851 0.07568 0.61308 0.0
C1530 C 0.01641 0.09338 0.59639 0.0
C1531 C 0.02302 0.08749 0.57226 0.0
H1532 H 0.81482 0.18802 0.4469 0.0
H1533 H 0.76184 0.24206 0.46421 0.0
H1534 H 0.81938 0.20442 0.40551 0.0
H1535 H 0.76619 0.25819 0.42264 0.0
H1536 H 0.79055 0.22067 0.32745 0.0
H1537 H 0.7939 0.20626 0.36949 0.0
H1538 H 0.79518 0.27858 0.39473 0.0
H1539 H 0.79146 0.29311 0.3527 0.0
C1540 C 0.80416 0.20341 0.44188 0.0
C1541 C 0.78783 0.21368 0.45874 0.0
C1542 C 0.80679 0.21275 0.41819 0.0
C1543 C 0.79318 0.23256 0.41094 0.0
C1544 C 0.77717 0.2431 0.4279 0.0
C1545 C 0.77451 0.23374 0.45161 0.0
C1546 C 0.79199 0.23351 0.3419 0.0
C1547 C 0.79044 0.25801 0.33685 0.0
C1548 C 0.794 0.22525 0.36596 0.0
C1549 C 0.7945 0.24134 0.38533 0.0
C1550 C 0.79442 0.26583 0.38012 0.0
C1551 C 0.79245 0.27411 0.35606 0.0
H1552 H 0.58043 0.03053 0.26178 0.0
H1553 H 0.64944 0.04331 0.22756 0.0
H1554 H 0.56151 0.04258 0.22367 0.0
H1555 H 0.63055 0.05551 0.18985 0.0
H1556 H 0.59033 0.043 0.1197 0.0
H1557 H 0.60841 0.03404 0.15878 0.0
H1558 H 0.55574 0.07833 0.19569 0.0
H1559 H 0.53722 0.0869 0.15639 0.0
C1560 C 0.59153 0.03604 0.24623 0.0
C1561 C 0.61641 0.03576 0.2476 0.0
C1562 C 0.5807 0.04307 0.2245 0.0
C1563 C 0.59461 0.04981 0.20382 0.0
C1564 C 0.61943 0.05006 0.20542 0.0
C1565 C 0.63022 0.04314 0.22707 0.0
C1566 C 0.58254 0.05074 0.13616 0.0
C1567 C 0.56233 0.06556 0.13506 0.0
C1568 C 0.59302 0.0458 0.15848 0.0
C1569 C 0.58348 0.05554 0.18022 0.0
C1570 C 0.56333 0.07049 0.17919 0.0
C1571 C 0.55291 0.07557 0.15673 0.0
H1572 H 0.80411 0.91138 0.92664 0.0
H1573 H 0.75731 0.86224 0.96471 0.0
H1574 H 0.79988 0.88986 0.88888 0.0
H1575 H 0.7523 0.84096 0.92647 0.0
H1576 H 0.76734 0.79455 0.85838 0.0
H1577 H 0.76982 0.81549 0.89696 0.0
H1578 H 0.77464 0.88219 0.85698 0.0
H1579 H 0.77308 0.86108 0.81844 0.0
C1580 C 0.79276 0.896 0.92697 0.0
C1581 C 0.78106 0.88864 0.9489 0.0
C1582 C 0.79013 0.88369 0.90509 0.0
C1583 C 0.7755 0.86363 0.90419 0.0
C1584 C 0.76392 0.85611 0.92624 0.0
C1585 C 0.76671 0.86839 0.94827 0.0
C1586 C 0.76871 0.81372 0.8578 0.0
C1587 C 0.77005 0.82605 0.83513 0.0
C1588 C 0.77006 0.82582 0.88006 0.0
C1589 C 0.77267 0.85069 0.88043 0.0
C1590 C 0.77322 0.86304 0.8577 0.0
C1591 C 0.77207 0.85092 0.83545 0.0
H1592 H 0.86921 0.92122 0.05396 0.0
H1593 H 0.83253 0.97547 0.0123 0.0
H1594 H 0.90436 0.94561 0.05408 0.0
H1595 H 0.86791 0.00038 0.01288 0.0
H1596 H 0.94589 0.02579 0.99722 0.0
H1597 H 0.9084 0.00438 0.99725 0.0
H1598 H 0.91997 0.98014 0.07148 0.0
H1599 H 0.95757 0.00097 0.0712 0.0
C1600 C 0.86854 0.93846 0.04489 0.0
C1601 C 0.84785 0.94629 0.03316 0.0
C1602 C 0.88879 0.95263 0.04515 0.0
C1603 C 0.88913 0.97523 0.03373 0.0
C1604 C 0.86848 0.98306 0.02177 0.0
C1605 C 0.8481 0.9688 0.02151 0.0
C1606 C 0.94028 0.01615 0.01368 0.0
C1607 C 0.95492 0.0151 0.03418 0.0
C1608 C 0.91868 0.00385 0.01371 0.0
C1609 C 0.91109 0.99015 0.03425 0.0
C1610 C 0.92534 0.98997 0.05508 0.0
C1611 C 0.9469 0.00216 0.05502 0.0
H1612 H 0.39445 0.6689 0.01451 0.0
H1613 H 0.36314 0.60582 0.98605 0.0
H1614 H 0.43345 0.64978 0.01251 0.0
H1615 H 0.40231 0.5871 0.98249 0.0
H1616 H 0.46783 0.55078 0.01464 0.0
H1617 H 0.42989 0.57006 0.00828 0.0
H1618 H 0.46555 0.63552 0.98852 0.0
H1619 H 0.50378 0.61634 0.9964 0.0
C1620 C 0.39603 0.65103 0.00749 0.0
C1621 C 0.37584 0.63866 0.00079 0.0
C1622 C 0.41842 0.64015 0.00604 0.0
C1623 C 0.42111 0.61683 0.99736 0.0
C1624 C 0.40088 0.60485 0.98978 0.0
C1625 C 0.37844 0.61556 0.99177 0.0
C1626 C 0.46766 0.56919 0.00853 0.0
C1627 C 0.48876 0.58214 0.00626 0.0
C1628 C 0.44581 0.58027 0.00471 0.0
C1629 C 0.44455 0.60447 0.99809 0.0
C1630 C 0.46583 0.61701 0.99419 0.0
C1631 C 0.48774 0.60599 0.99845 0.0
H1632 H 0.22699 0.55755 0.7809 0.0
H1633 H 0.16434 0.59818 0.7614 0.0
H1634 H 0.25077 0.59364 0.77671 0.0
H1635 H 0.18796 0.63376 0.75722 0.0
H1636 H 0.22809 0.69621 0.7821 0.0
H1637 H 0.20892 0.65818 0.78815 0.0
H1638 H 0.26351 0.62452 0.74299 0.0
H1639 H 0.28332 0.66278 0.73741 0.0
C1640 C 0.21836 0.57407 0.77558 0.0
C1641 C 0.19378 0.57511 0.7717 0.0
C1642 C 0.23195 0.59463 0.77315 0.0
C1643 C 0.22104 0.61642 0.76702 0.0
C1644 C 0.19667 0.61723 0.76245 0.0
C1645 C 0.18319 0.5968 0.76473 0.0
C1646 C 0.23638 0.6807 0.77389 0.0
C1647 C 0.25716 0.68253 0.75914 0.0
C1648 C 0.22524 0.65896 0.77716 0.0
C1649 C 0.23462 0.63859 0.76575 0.0
C1650 C 0.25598 0.64005 0.75195 0.0
C1651 C 0.26714 0.66192 0.74859 0.0
H1652 H 0.21044 0.46276 0.5062 0.0
H1653 H 0.19352 0.44104 0.58085 0.0
H1654 H 0.17149 0.48241 0.50375 0.0
H1655 H 0.15469 0.46021 0.57829 0.0
H1656 H 0.09423 0.51433 0.57433 0.0
H1657 H 0.1346 0.49813 0.57609 0.0
H1658 H 0.12962 0.47307 0.50205 0.0
H1659 H 0.08942 0.48963 0.50015 0.0
C1660 C 0.19849 0.46222 0.52211 0.0
C1661 C 0.20523 0.45026 0.54371 0.0
C1662 C 0.17605 0.47337 0.52067 0.0
C1663 C 0.15979 0.47297 0.54083 0.0
C1664 C 0.16674 0.46126 0.56249 0.0
C1665 C 0.18906 0.45008 0.5639 0.0
C1666 C 0.10177 0.5055 0.55836 0.0
C1667 C 0.08845 0.5033 0.53712 0.0
C1668 C 0.12494 0.49605 0.55941 0.0
C1669 C 0.1355 0.48414 0.53924 0.0
C1670 C 0.12229 0.48233 0.51785 0.0
C1671 C 0.09911 0.49173 0.51682 0.0
H1672 H 0.87599 0.99912 0.75294 0.0
H1673 H 0.91362 0.97231 0.68868 0.0
H1674 H 0.85342 0.9628 0.75629 0.0
H1675 H 0.89125 0.93546 0.69245 0.0
H1676 H 0.82998 0.8876 0.76876 0.0
H1677 H 0.85697 0.92097 0.76585 0.0
H1678 H 0.85056 0.92283 0.68713 0.0
H1679 H 0.82451 0.88876 0.68991 0.0
C1680 C 0.87965 0.98535 0.73965 0.0
C1681 C 0.89654 0.98865 0.72045 0.0
C1682 C 0.8668 0.96442 0.7417 0.0
C1683 C 0.87056 0.94623 0.72467 0.0
C1684 C 0.88777 0.9493 0.7057 0.0
C1685 C 0.90065 0.97033 0.70361 0.0
C1686 C 0.83459 0.89487 0.7508 0.0
C1687 C 0.82491 0.88556 0.72959 0.0
C1688 C 0.84989 0.91415 0.74915 0.0
C1689 C 0.8558 0.92462 0.72626 0.0
C1690 C 0.84653 0.91504 0.70502 0.0
C1691 C 0.83128 0.89571 0.70666 0.0
H1692 H 0.74344 0.11379 0.53455 0.0
H1693 H 0.70484 0.17911 0.54983 0.0
H1694 H 0.70761 0.09122 0.54425 0.0
H1695 H 0.6692 0.15649 0.55979 0.0
H1696 H 0.60545 0.10959 0.54353 0.0
H1697 H 0.64149 0.13238 0.53652 0.0
H1698 H 0.68057 0.08134 0.58012 0.0
H1699 H 0.64444 0.05812 0.58661 0.0
C1700 C 0.72735 0.12331 0.54003 0.0
C1701 C 0.7269 0.14822 0.5413 0.0
C1702 C 0.70692 0.11038 0.54577 0.0
C1703 C 0.68569 0.12214 0.55277 0.0
C1704 C 0.68529 0.14702 0.5542 0.0
C1705 C 0.70571 0.15994 0.54855 0.0
C1706 C 0.62175 0.1032 0.55154 0.0
C1707 C 0.62223 0.08201 0.56545 0.0
C1708 C 0.6423 0.11636 0.54775 0.0
C1709 C 0.66378 0.10858 0.55776 0.0
C1710 C 0.66424 0.08759 0.57202 0.0
C1711 C 0.64358 0.07446 0.57593 0.0
H1712 H 0.16858 0.42253 0.74793 0.0
H1713 H 0.18058 0.44317 0.82247 0.0
H1714 H 0.18056 0.38188 0.75822 0.0
H1715 H 0.19166 0.40246 0.83299 0.0
H1716 H 0.25236 0.34586 0.82083 0.0
H1717 H 0.22745 0.38122 0.82161 0.0
H1718 H 0.17399 0.34493 0.78158 0.0
H1719 H 0.19938 0.30941 0.78032 0.0
C1720 C 0.17339 0.41825 0.76658 0.0
C1721 C 0.17433 0.43602 0.78421 0.0
C1722 C 0.17992 0.39494 0.77259 0.0
C1723 C 0.18718 0.38906 0.79641 0.0
C1724 C 0.18651 0.40658 0.81441 0.0
C1725 C 0.18032 0.42989 0.80832 0.0
C1726 C 0.23501 0.34519 0.81279 0.0
C1727 C 0.22802 0.32518 0.8 0.0
C1728 C 0.22061 0.36541 0.8134 0.0
C1729 C 0.19894 0.36595 0.80124 0.0
C1730 C 0.19082 0.34508 0.79068 0.0
C1731 C 0.20527 0.32474 0.79012 0.0
H1732 H 0.32801 0.60497 0.19963 0.0
H1733 H 0.31766 0.56865 0.26927 0.0
H1734 H 0.29655 0.63318 0.2107 0.0
H1735 H 0.28518 0.59601 0.27996 0.0
H1736 H 0.24638 0.68734 0.23467 0.0
H1737 H 0.25783 0.64723 0.22231 0.0
H1738 H 0.29 0.63528 0.29255 0.0
H1739 H 0.27792 0.67467 0.30503 0.0
C1740 C 0.31829 0.60247 0.21689 0.0
C1741 C 0.32557 0.58515 0.2339 0.0
C1742 C 0.30009 0.61853 0.22323 0.0
C1743 C 0.28868 0.61722 0.24654 0.0
C1744 C 0.29408 0.59794 0.26219 0.0
C1745 C 0.31261 0.58225 0.25607 0.0
C1746 C 0.25517 0.67579 0.24775 0.0
C1747 C 0.26182 0.68432 0.27059 0.0
C1748 C 0.26185 0.65286 0.2406 0.0
C1749 C 0.27532 0.63818 0.25617 0.0
C1750 C 0.27956 0.64592 0.28002 0.0
C1751 C 0.27282 0.66871 0.28717 0.0
H1752 H 0.54326 0.72698 0.5717 0.0
H1753 H 0.51462 0.70677 0.64309 0.0
H1754 H 0.53845 0.68662 0.55764 0.0
H1755 H 0.50931 0.66619 0.62882 0.0
H1756 H 0.52555 0.58947 0.60078 0.0
H1757 H 0.52888 0.62969 0.61667 0.0
H1758 H 0.51005 0.65877 0.54607 0.0
H1759 H 0.50725 0.61879 0.53019 0.0
C1760 C 0.5358 0.71397 0.58446 0.0
C1761 C 0.52932 0.72042 0.60861 0.0
C1762 C 0.53285 0.69067 0.57628 0.0
C1763 C 0.52326 0.67281 0.5919 0.0
C1764 C 0.51693 0.6792 0.61618 0.0
C1765 C 0.51987 0.70261 0.62438 0.0
C1766 C 0.52189 0.60444 0.5887 0.0
C1767 C 0.51613 0.60065 0.56411 0.0
C1768 C 0.52376 0.62764 0.59786 0.0
C1769 C 0.52 0.64784 0.58271 0.0
C1770 C 0.51362 0.64391 0.55831 0.0
C1771 C 0.51177 0.62081 0.54919 0.0
H1772 H 0.58595 0.27202 0.85481 0.0
H1773 H 0.63442 0.27402 0.9147 0.0
H1774 H 0.61831 0.2592 0.82735 0.0
H1775 H 0.66698 0.26211 0.88705 0.0
H1776 H 0.71861 0.22391 0.83915 0.0
H1777 H 0.68245 0.22921 0.86418 0.0
H1778 H 0.6532 0.27469 0.80768 0.0
H1779 H 0.6889 0.26859 0.78233 0.0
C1780 C 0.60359 0.26997 0.86204 0.0
C1781 C 0.60771 0.27409 0.88688 0.0
C1782 C 0.62211 0.26261 0.8463 0.0
C1783 C 0.64519 0.25947 0.85502 0.0
C1784 C 0.64931 0.26381 0.87985 0.0
C1785 C 0.63072 0.27091 0.89565 0.0
C1786 C 0.70416 0.23451 0.83184 0.0
C1787 C 0.70659 0.246 0.80891 0.0
C1788 C 0.68357 0.23777 0.84627 0.0
C1789 C 0.66519 0.25281 0.83816 0.0
C1790 C 0.66697 0.2629 0.81445 0.0
C1791 C 0.68744 0.2594 0.79989 0.0
H1792 H 0.07348 0.36244 0.11746 0.0
H1793 H 0.99821 0.35135 0.11195 0.0
H1794 H 0.06979 0.40016 0.09579 0.0
H1795 H 0.99414 0.38999 0.09099 0.0
H1796 H 0.99723 0.45466 0.03761 0.0
H1797 H 1.00026 0.415 0.05639 0.0
H1798 H 0.05758 0.43894 0.10038 0.0
H1799 H 0.05516 0.47791 0.08091 0.0
C1800 C 0.05602 0.36809 0.11168 0.0
C1801 C 0.03615 0.3537 0.11665 0.0
C1802 C 0.05382 0.39005 0.09936 0.0
C1803 C 0.03156 0.39879 0.0918 0.0
C1804 C 0.01167 0.38408 0.09624 0.0
C1805 C 0.01396 0.36182 0.10837 0.0
C1806 C 0.01058 0.45138 0.05119 0.0
C1807 C 0.02609 0.46961 0.05748 0.0
C1808 C 0.01223 0.42856 0.06218 0.0
C1809 C 0.02934 0.42326 0.07997 0.0
C1810 C 0.04456 0.44174 0.08639 0.0
C1811 C 0.04307 0.46437 0.07527 0.0
H1812 H 0.9467 0.82263 0.41935 0.0
H1813 H 0.98201 0.78245 0.3617 0.0
H1814 H 0.91357 0.83098 0.3926 0.0
H1815 H 0.94924 0.79133 0.33481 0.0
H1816 H 0.87326 0.78415 0.3084 0.0
H1817 H 0.90851 0.77923 0.3326 0.0
H1818 H 0.90178 0.85225 0.35543 0.0
H1819 H 0.86568 0.85684 0.33188 0.0
C1820 C 0.94749 0.81578 0.4009 0.0
C1821 C 0.96684 0.80168 0.39272 0.0
C1822 C 0.9286 0.82072 0.38551 0.0
C1823 C 0.92876 0.81174 0.36162 0.0
C1824 C 0.94842 0.79818 0.35325 0.0
C1825 C 0.96723 0.79315 0.36865 0.0
C1826 C 0.8792 0.79913 0.31866 0.0
C1827 C 0.86651 0.8208 0.31848 0.0
C1828 C 0.89961 0.79641 0.33228 0.0
C1829 C 0.90791 0.81534 0.34597 0.0
C1830 C 0.89564 0.83726 0.34527 0.0
C1831 C 0.87514 0.83997 0.3316 0.0
H1832 H 0.49553 0.32272 0.99801 0.0
H1833 H 0.56095 0.34754 0.96364 0.0
H1834 H 0.49323 0.35838 0.02283 0.0
H1835 H 0.55831 0.38333 0.98789 0.0
H1836 H 0.47928 0.44002 0.0261 0.0
H1837 H 0.48416 0.39937 0.01243 0.0
H1838 H 0.55899 0.40145 0.02772 0.0
H1839 H 0.55407 0.4424 0.04124 0.0
C1840 C 0.50956 0.33564 0.99596 0.0
C1841 C 0.52823 0.3325 0.97861 0.0
C1842 C 0.50819 0.35609 0.0101 0.0
C1843 C 0.52543 0.3738 0.00712 0.0
C1844 C 0.54484 0.36995 0.99082 0.0
C1845 C 0.54626 0.34949 0.97676 0.0
C1846 C 0.49666 0.43166 0.02707 0.0
C1847 C 0.51635 0.4445 0.03446 0.0
C1848 C 0.49946 0.40829 0.0193 0.0
C1849 C 0.522 0.39721 0.01885 0.0
C1850 C 0.54148 0.40965 0.02746 0.0
C1851 C 0.53868 0.43308 0.03515 0.0
H1852 H 0.96434 0.29065 0.21783 0.0
H1853 H 0.9291 0.28989 0.14867 0.0
H1854 H 0.92539 0.2895 0.23959 0.0
H1855 H 0.89063 0.28824 0.17026 0.0
H1856 H 0.82968 0.25591 0.21801 0.0
H1857 H 0.86924 0.25762 0.19857 0.0
H1858 H 0.88622 0.31695 0.2436 0.0
H1859 H 0.84619 0.31561 0.26287 0.0
C1860 C 0.94837 0.29013 0.20727 0.0
C1861 C 0.94995 0.29037 0.18146 0.0
C1862 C 0.92606 0.28961 0.21973 0.0
C1863 C 0.90485 0.28873 0.20667 0.0
C1864 C 0.90655 0.28876 0.18091 0.0
C1865 C 0.92868 0.28979 0.16853 0.0
C1866 C 0.84178 0.26935 0.22385 0.0
C1867 C 0.83461 0.28568 0.24201 0.0
C1868 C 0.86449 0.27035 0.21263 0.0
C1869 C 0.88096 0.2874 0.2195 0.0
C1870 C 0.87403 0.30349 0.23798 0.0
C1871 C 0.85104 0.30281 0.24891 0.0
H1872 H 0.07512 0.71116 0.48206 0.0
H1873 H 0.01176 0.69827 0.44163 0.0
H1874 H 0.07493 0.67004 0.49703 0.0
H1875 H 0.01153 0.65736 0.45675 0.0
H1876 H 0.03132 0.58 0.46834 0.0
H1877 H 0.03607 0.62032 0.45212 0.0
H1878 H 0.04907 0.64514 0.52496 0.0
H1879 H 0.04455 0.60484 0.54122 0.0
C1880 C 0.06115 0.69958 0.47641 0.0
C1881 C 0.04344 0.70793 0.4607 0.0
C1882 C 0.06104 0.6761 0.48501 0.0
C1883 C 0.04331 0.66054 0.4779 0.0
C1884 C 0.02562 0.6689 0.4622 0.0
C1885 C 0.02565 0.69237 0.45373 0.0
C1886 C 0.03549 0.59399 0.48085 0.0
C1887 C 0.03741 0.5893 0.50607 0.0
C1888 C 0.03806 0.61707 0.47158 0.0
C1889 C 0.04272 0.63582 0.48734 0.0
C1890 C 0.04562 0.63097 0.51239 0.0
C1891 C 0.04293 0.60792 0.52169 0.0
H1892 H 0.58395 0.78193 0.71762 0.0
H1893 H 0.62525 0.79477 0.65097 0.0
H1894 H 0.62025 0.7845 0.74136 0.0
H1895 H 0.66113 0.79732 0.67445 0.0
H1896 H 0.71824 0.82375 0.72378 0.0
H1897 H 0.68033 0.82293 0.70331 0.0
H1898 H 0.65876 0.76317 0.74874 0.0
H1899 H 0.69683 0.764 0.76934 0.0
C1900 C 0.60068 0.78534 0.708 0.0
C1901 C 0.60148 0.78813 0.68227 0.0
C1902 C 0.62157 0.78671 0.72162 0.0
C1903 C 0.6438 0.79127 0.70994 0.0
C1904 C 0.64444 0.79415 0.68426 0.0
C1905 C 0.62374 0.79251 0.6707 0.0
C1906 C 0.70538 0.81056 0.72967 0.0
C1907 C 0.71081 0.79394 0.74832 0.0
C1908 C 0.68359 0.80997 0.71774 0.0
C1909 C 0.66635 0.79284 0.72411 0.0
C1910 C 0.67142 0.77672 0.74335 0.0
C1911 C 0.69336 0.77716 0.75517 0.0
H1912 H 0.65409 0.48754 0.72222 0.0
H1913 H 0.59217 0.51032 0.76486 0.0
H1914 H 0.63053 0.48793 0.68536 0.0
H1915 H 0.56881 0.51096 0.728 0.0
H1916 H 0.52959 0.48444 0.66154 0.0
H1917 H 0.55316 0.48281 0.69832 0.0
H1918 H 0.61057 0.51814 0.65892 0.0
H1919 H 0.58721 0.51918 0.62194 0.0
C1920 C 0.63546 0.49255 0.72374 0.0
C1921 C 0.62498 0.4989 0.74644 0.0
C1922 C 0.62204 0.49293 0.70262 0.0
C1923 C 0.59788 0.49954 0.70384 0.0
C1924 C 0.58734 0.50557 0.72658 0.0
C1925 C 0.60076 0.5053 0.74765 0.0
C1926 C 0.54729 0.49171 0.6607 0.0
C1927 C 0.55656 0.50192 0.63887 0.0
C1928 C 0.5607 0.49096 0.6818 0.0
C1929 C 0.5837 0.50032 0.68144 0.0
C1930 C 0.59297 0.51058 0.65963 0.0
C1931 C 0.5795 0.51144 0.63856 0.0
H1932 H 0.80287 0.31722 0.0011 0.0
H1933 H 0.74146 0.34028 0.96085 0.0
H1934 H 0.8092 0.28431 0.97315 0.0
H1935 H 0.7481 0.30758 0.93259 0.0
H1936 H 0.75508 0.23997 0.89296 0.0
H1937 H 0.74757 0.26443 0.92901 0.0
H1938 H 0.82238 0.28038 0.93045 0.0
H1939 H 0.82976 0.25568 0.89463 0.0
C1940 C 0.79067 0.31525 0.98631 0.0
C1941 C 0.77175 0.33147 0.98306 0.0
C1942 C 0.79435 0.29638 0.9703 0.0
C1943 C 0.77917 0.29332 0.95069 0.0
C1944 C 0.7599 0.30923 0.94777 0.0
C1945 C 0.75621 0.3281 0.96382 0.0
C1946 C 0.76995 0.24819 0.90151 0.0
C1947 C 0.79293 0.24616 0.89097 0.0
C1948 C 0.76565 0.26234 0.92195 0.0
C1949 C 0.7843 0.27475 0.93223 0.0
C1950 C 0.80764 0.27099 0.923 0.0
C1951 C 0.81192 0.25675 0.90256 0.0
H1952 H 0.95307 0.57994 0.21744 0.0
H1953 H 0.91044 0.52183 0.19353 0.0
H1954 H 0.97266 0.58209 0.17714 0.0
H1955 H 0.93056 0.52354 0.15344 0.0
H1956 H 0.95235 0.54822 0.07744 0.0
H1957 H 0.93241 0.54972 0.11763 0.0
H1958 H 1.00005 0.55969 0.15127 0.0
H1959 H 0.0199 0.5589 0.11113 0.0
C1960 C 0.94811 0.56742 0.20368 0.0
C1961 C 0.9302 0.55075 0.20858 0.0
C1962 C 0.95935 0.56865 0.18062 0.0
C1963 C 0.95297 0.55314 0.1621 0.0
C1964 C 0.93546 0.53608 0.16721 0.0
C1965 C 0.92413 0.53493 0.19023 0.0
C1966 C 0.9629 0.55111 0.09339 0.0
C1967 C 0.98768 0.55332 0.09119 0.0
C1968 C 0.95152 0.55174 0.1164 0.0
C1969 C 0.96474 0.55448 0.13759 0.0
C1970 C 0.98939 0.5577 0.13525 0.0
C1971 C 1.00075 0.5572 0.11225 0.0
H1972 H 0.77419 0.66694 0.44723 0.0
H1973 H 0.75696 0.7361 0.47641 0.0
H1974 H 0.7758 0.68415 0.40567 0.0
H1975 H 0.75883 0.75326 0.43502 0.0
H1976 H 0.79013 0.77909 0.36001 0.0
H1977 H 0.78912 0.76123 0.40113 0.0
H1978 H 0.74785 0.70329 0.37507 0.0
H1979 H 0.74862 0.72131 0.33388 0.0
C1980 C 0.77085 0.68582 0.44484 0.0
C1981 C 0.76545 0.70009 0.46529 0.0
C1982 C 0.77163 0.69567 0.42097 0.0
C1983 C 0.76746 0.72013 0.41692 0.0
C1984 C 0.76234 0.73441 0.4374 0.0
C1985 C 0.76116 0.72452 0.46119 0.0
C1986 C 0.78082 0.76254 0.36299 0.0
C1987 C 0.76939 0.75172 0.34353 0.0
C1988 C 0.78016 0.75233 0.38665 0.0
C1989 C 0.76838 0.7308 0.39152 0.0
C1990 C 0.75723 0.71978 0.37199 0.0
C1991 C 0.75756 0.7302 0.34838 0.0
H1992 H 0.68131 0.52199 0.89214 0.0
H1993 H 0.62109 0.49749 0.85259 0.0
H1994 H 0.65559 0.52817 0.92826 0.0
H1995 H 0.5954 0.50382 0.88883 0.0
H1996 H 0.56432 0.49999 0.96996 0.0
H1997 H 0.58936 0.48928 0.9341 0.0
H1998 H 0.62202 0.55819 0.93505 0.0
H1999 H 0.59735 0.56892 0.97036 0.0
C2000 C 0.66264 0.5178 0.8912 0.0
C2001 C 0.65315 0.50955 0.86948 0.0
C2002 C 0.64795 0.52136 0.91183 0.0
C2003 C 0.62355 0.5166 0.91115 0.0
C2004 C 0.61419 0.50748 0.88978 0.0
C2005 C 0.62886 0.50407 0.86905 0.0
C2006 C 0.57673 0.51285 0.96234 0.0
C2007 C 0.57891 0.53524 0.973 0.0
C2008 C 0.59101 0.50673 0.94191 0.0
C2009 C 0.60777 0.52283 0.93216 0.0
C2010 C 0.60953 0.54531 0.94254 0.0
C2011 C 0.59524 0.55148 0.96266 0.0
H2012 H 0.71063 0.32312 0.07962 0.0
H2013 H 0.76755 0.36967 0.09852 0.0
H2014 H 0.70911 0.30747 0.12176 0.0
H2015 H 0.76605 0.35401 0.14019 0.0
H2016 H 0.74317 0.34044 0.21743 0.0
H2017 H 0.73719 0.3554 0.17596 0.0
H2018 H 0.73642 0.2835 0.14954 0.0
H2019 H 0.74215 0.26837 0.19115 0.0
C2020 C 0.72283 0.32993 0.0927 0.0
C2021 C 0.73917 0.34764 0.08581 0.0
C2022 C 0.72194 0.32099 0.11673 0.0
C2023 C 0.73723 0.32981 0.13419 0.0
C2024 C 0.75372 0.34727 0.12718 0.0
C2025 C 0.75472 0.35607 0.10324 0.0
C2026 C 0.74132 0.32779 0.20288 0.0
C2027 C 0.7435 0.30325 0.20744 0.0
C2028 C 0.73798 0.33636 0.17916 0.0
C2029 C 0.73675 0.32057 0.15961 0.0
C2030 C 0.73728 0.29601 0.16436 0.0
C2031 C 0.74066 0.28739 0.18814 0.0
H2032 H 0.93537 0.48268 0.30915 0.0
H2033 H 0.91975 0.55483 0.33115 0.0
H2034 H 0.95939 0.47675 0.3454 0.0
H2035 H 0.944 0.54904 0.36686 0.0
H2036 H 0.96255 0.52121 0.44221 0.0
H2037 H 0.94033 0.52607 0.405 0.0
H2038 H 0.99661 0.49015 0.36401 0.0
H2039 H 0.01899 0.48521 0.40159 0.0
C2040 C 0.93718 0.49728 0.32161 0.0
C2041 C 0.9255 0.51913 0.31747 0.0
C2042 C 0.95102 0.49393 0.34225 0.0
C2043 C 0.95338 0.51238 0.359 0.0
C2044 C 0.94213 0.53436 0.35449 0.0
C2045 C 0.9283 0.53769 0.33398 0.0
C2046 C 0.97035 0.5146 0.42524 0.0
C2047 C 0.99264 0.50309 0.42473 0.0
C2048 C 0.95759 0.51734 0.40393 0.0
C2049 C 0.96686 0.5087 0.38159 0.0
C2050 C 0.989 0.49684 0.38105 0.0
C2051 C 1.00179 0.49404 0.40248 0.0
H2052 H 0.77829 0.66625 0.60867 0.0
H2053 H 0.78493 0.73611 0.57588 0.0
H2054 H 0.78147 0.68319 0.64932 0.0
H2055 H 0.78671 0.75333 0.61628 0.0
H2056 H 0.80937 0.77896 0.68941 0.0
H2057 H 0.80884 0.75996 0.64972 0.0
H2058 H 0.7646 0.70445 0.68114 0.0
H2059 H 0.76646 0.72288 0.72113 0.0
C2060 C 0.78012 0.68529 0.61014 0.0
C2061 C 0.78143 0.69975 0.58888 0.0
C2062 C 0.78184 0.69513 0.63358 0.0
C2063 C 0.78453 0.71983 0.63656 0.0
C2064 C 0.78534 0.73423 0.61514 0.0
C2065 C 0.78406 0.72434 0.59177 0.0
C2066 C 0.79978 0.76253 0.6879 0.0
C2067 C 0.78804 0.75248 0.70859 0.0
C2068 C 0.79918 0.75167 0.66493 0.0
C2069 C 0.78636 0.73062 0.66166 0.0
C2070 C 0.77496 0.72038 0.68259 0.0
C2071 C 0.77595 0.73103 0.70569 0.0
H2072 H 0.71597 0.59091 0.54221 0.0
H2073 H 0.67764 0.64711 0.50503 0.0
H2074 H 0.68003 0.56667 0.54334 0.0
H2075 H 0.64204 0.62322 0.50637 0.0
H2076 H 0.58822 0.56829 0.48967 0.0
H2077 H 0.62624 0.58827 0.48814 0.0
H2078 H 0.63938 0.56433 0.56211 0.0
H2079 H 0.60118 0.54391 0.56357 0.0
C2080 C 0.69994 0.59812 0.53428 0.0
C2081 C 0.69984 0.621 0.52345 0.0
C2082 C 0.67928 0.58425 0.53504 0.0
C2083 C 0.65806 0.59283 0.52477 0.0
C2084 C 0.65806 0.61574 0.51407 0.0
C2085 C 0.67855 0.62958 0.51344 0.0
C2086 C 0.59927 0.56696 0.50557 0.0
C2087 C 0.59145 0.55448 0.52679 0.0
C2088 C 0.62109 0.57864 0.50475 0.0
C2089 C 0.63587 0.5783 0.52512 0.0
C2090 C 0.62858 0.56495 0.54602 0.0
C2091 C 0.60662 0.55324 0.54687 0.0
H2092 H 0.18798 0.94917 0.5705 0.0
H2093 H 0.20334 0.94991 0.49238 0.0
H2094 H 0.15382 0.97547 0.56422 0.0
H2095 H 0.16915 0.97638 0.48623 0.0
H2096 H 0.11624 0.04041 0.49013 0.0
H2097 H 0.15362 0.01919 0.49842 0.0
H2098 H 0.1149 0.96711 0.54195 0.0
H2099 H 0.07778 0.98792 0.53358 0.0
C2100 C 0.18419 0.95511 0.55203 0.0
C2101 C 0.19815 0.94733 0.53189 0.0
C2102 C 0.16468 0.97013 0.54848 0.0
C2103 C 0.15899 0.97786 0.52478 0.0
C2104 C 0.17338 0.97078 0.5047 0.0
C2105 C 0.19276 0.95549 0.50821 0.0
C2106 C 0.11584 0.02456 0.50166 0.0
C2107 C 0.0942 0.01572 0.51115 0.0
C2108 C 0.13711 0.01243 0.50628 0.0
C2109 C 0.13698 0.99164 0.52084 0.0
C2110 C 0.11543 0.98325 0.53087 0.0
C2111 C 0.09421 0.99509 0.52595 0.0
H2112 H 0.30435 0.0122 0.71493 0.0
H2113 H 0.30392 0.0223 0.79325 0.0
H2114 H 0.28008 0.97687 0.72109 0.0
H2115 H 0.28023 0.987 0.79944 0.0
H2116 H 0.24396 0.91906 0.80808 0.0
H2117 H 0.24681 0.96056 0.79476 0.0
H2118 H 0.29771 0.94025 0.73778 0.0
H2119 H 0.29499 0.89919 0.75107 0.0
C2120 C 0.29833 0.00741 0.73337 0.0
C2121 C 0.30661 0.01944 0.7537 0.0
C2122 C 0.28453 0.98714 0.7369 0.0
C2123 C 0.27887 0.9788 0.76077 0.0
C2124 C 0.28435 0.99286 0.78081 0.0
C2125 C 0.29814 0.01301 0.77729 0.0
C2126 C 0.25561 0.92348 0.79261 0.0
C2127 C 0.2696 0.90588 0.78093 0.0
C2128 C 0.25702 0.94719 0.78482 0.0
C2129 C 0.27246 0.95368 0.76523 0.0
C2130 C 0.28526 0.93584 0.75262 0.0
C2131 C 0.28387 0.91223 0.7604 0.0
H2132 H 0.33236 0.09222 0.02338 0.0
H2133 H 0.3675 0.15611 0.04452 0.0
H2134 H 0.37065 0.07087 0.02297 0.0
H2135 H 0.40544 0.13505 0.0438 0.0
H2136 H 0.46617 0.08624 0.06521 0.0
H2137 H 0.42689 0.10497 0.06639 0.0
H2138 H 0.40919 0.06836 0.00056 0.0
H2139 H 0.44852 0.04928 -0.00043 0.0
C2140 C 0.34819 0.10173 0.0279 0.0
C2141 C 0.34673 0.12591 0.03405 0.0
C2142 C 0.37019 0.08952 0.02755 0.0
C2143 C 0.39123 0.10114 0.03351 0.0
C2144 C 0.38966 0.12533 0.03953 0.0
C2145 C 0.36781 0.1375 0.03978 0.0
C2146 C 0.4539 0.08204 0.05103 0.0
C2147 C 0.46064 0.06625 0.03226 0.0
C2148 C 0.43135 0.09293 0.05162 0.0
C2149 C 0.4148 0.08838 0.03346 0.0
C2150 C 0.42134 0.07217 0.01497 0.0
C2151 C 0.44397 0.0613 0.01434 0.0
H2152 H 0.72809 0.55687 0.81165 0.0
H2153 H 0.68383 0.58499 0.75429 0.0
H2154 H 0.74457 0.59619 0.81703 0.0
H2155 H 0.70022 0.62433 0.75988 0.0
H2156 H 0.75223 0.68611 0.76213 0.0
H2157 H 0.73829 0.64621 0.75496 0.0
H2158 H 0.72842 0.63472 0.83301 0.0
H2159 H 0.74207 0.67485 0.84027 0.0
C2160 C 0.72204 0.57138 0.80003 0.0
C2161 C 0.70458 0.56787 0.78261 0.0
C2162 C 0.73136 0.5939 0.80326 0.0
C2163 C 0.72351 0.61329 0.78902 0.0
C2164 C 0.70667 0.60964 0.77101 0.0
C2165 C 0.69724 0.58714 0.76788 0.0
C2166 C 0.74681 0.67526 0.77779 0.0
C2167 C 0.74811 0.68377 0.80181 0.0
C2168 C 0.73894 0.65234 0.77365 0.0
C2169 C 0.73232 0.6374 0.79342 0.0
C2170 C 0.73375 0.64578 0.81744 0.0
C2171 C 0.74153 0.66875 0.82159 0.0
H2172 H 0.80135 0.46657 0.05528 0.0
H2173 H 0.82154 0.41819 0.99729 0.0
H2174 H 0.838 0.48841 0.04758 0.0
H2175 H 0.85833 0.43961 0.99006 0.0
H2176 H 0.91009 0.49683 0.96668 0.0
H2177 H 0.87227 0.47732 0.97408 0.0
H2178 H 0.88058 0.4833 0.05221 0.0
H2179 H 0.91787 0.50389 0.04479 0.0
C2180 C 0.81364 0.46055 0.04096 0.0
C2181 C 0.80856 0.44069 0.02687 0.0
C2182 C 0.83467 0.47299 0.03664 0.0
C2183 C 0.85103 0.46574 0.0182 0.0
C2184 C 0.84591 0.44587 0.00413 0.0
C2185 C 0.82487 0.43351 0.00838 0.0
C2186 C 0.90374 0.49431 0.98543 0.0
C2187 C 0.91708 0.5019 0.00513 0.0
C2188 C 0.88218 0.48286 0.98968 0.0
C2189 C 0.87351 0.47866 0.01373 0.0
C2190 C 0.88669 0.48645 0.03345 0.0
C2191 C 0.90823 0.49798 0.0292 0.0
H2192 H 0.37464 0.11659 0.72569 0.0
H2193 H 0.39162 0.13804 0.79869 0.0
H2194 H 0.36466 0.15759 0.71485 0.0
H2195 H 0.38072 0.17892 0.78826 0.0
H2196 H 0.35542 0.24988 0.76915 0.0
H2197 H 0.383 0.21625 0.76483 0.0
H2198 H 0.32862 0.17668 0.7296 0.0
H2199 H 0.30145 0.21013 0.73351 0.0
C2200 C 0.37656 0.13021 0.73928 0.0
C2201 C 0.38312 0.12425 0.76324 0.0
C2202 C 0.37098 0.15363 0.73305 0.0
C2203 C 0.37136 0.17133 0.75085 0.0
C2204 C 0.38032 0.1657 0.77408 0.0
C2205 C 0.38632 0.14227 0.78019 0.0
C2206 C 0.34966 0.23422 0.75983 0.0
C2207 C 0.32613 0.2323 0.75222 0.0
C2208 C 0.36543 0.215 0.75741 0.0
C2209 C 0.35788 0.19374 0.74722 0.0
C2210 C 0.33511 0.19284 0.73738 0.0
C2211 C 0.31938 0.21195 0.73987 0.0
H2212 H 0.21938 0.9256 0.3441 0.0
H2213 H 0.24862 0.95085 0.27452 0.0
H2214 H 0.24072 0.88799 0.3388 0.0
H2215 H 0.27046 0.91351 0.26954 0.0
H2216 H 0.28372 0.82209 0.32569 0.0
H2217 H 0.27759 0.86436 0.33391 0.0
H2218 H 0.25387 0.87544 0.25993 0.0
H2219 H 0.26027 0.83364 0.25168 0.0
C2220 C 0.23091 0.92338 0.32803 0.0
C2221 C 0.23189 0.9409 0.30944 0.0
C2222 C 0.24328 0.90188 0.32506 0.0
C2223 C 0.25695 0.89765 0.30353 0.0
C2224 C 0.25965 0.91608 0.28607 0.0
C2225 C 0.24716 0.93745 0.28894 0.0
C2226 C 0.27776 0.83372 0.31104 0.0
C2227 C 0.27218 0.82455 0.28813 0.0
C2228 C 0.27414 0.85786 0.31579 0.0
C2229 C 0.26511 0.8732 0.29764 0.0
C2230 C 0.26112 0.86421 0.27425 0.0
C2231 C 0.26459 0.84016 0.26956 0.0
H2232 H 0.50394 0.34379 0.48882 0.0
H2233 H 0.5307 0.36696 0.41763 0.0
H2234 H 0.50809 0.38374 0.50422 0.0
H2235 H 0.53548 0.40709 0.43325 0.0
H2236 H 0.51892 0.48242 0.46362 0.0
H2237 H 0.51599 0.44264 0.44672 0.0
H2238 H 0.53536 0.41205 0.51653 0.0
H2239 H 0.53763 0.45169 0.53348 0.0
C2240 C 0.51085 0.35737 0.47639 0.0
C2241 C 0.51698 0.35187 0.45188 0.0
C2242 C 0.51344 0.38044 0.48534 0.0
C2243 C 0.52236 0.399 0.4702 0.0
C2244 C 0.52835 0.39355 0.44558 0.0
C2245 C 0.52571 0.37038 0.43658 0.0
C2246 C 0.52276 0.46721 0.47533 0.0
C2247 C 0.52852 0.47048 0.50001 0.0
C2248 C 0.52114 0.44426 0.46557 0.0
C2249 C 0.52522 0.42375 0.48016 0.0
C2250 C 0.53156 0.42715 0.50468 0.0
C2251 C 0.53311 0.45005 0.51443 0.0
H2252 H 0.42132 0.74872 0.14564 0.0
H2253 H 0.44562 0.78777 0.20753 0.0
H2254 H 0.38469 0.73922 0.16863 0.0
H2255 H 0.40902 0.77864 0.23018 0.0
H2256 H 0.34983 0.74316 0.27263 0.0
H2257 H 0.38737 0.74559 0.2494 0.0
H2258 H 0.34929 0.76156 0.18341 0.0
H2259 H 0.3117 0.75867 0.20648 0.0
C2260 C 0.4189 0.75519 0.16414 0.0
C2261 C 0.4363 0.76908 0.17474 0.0
C2262 C 0.39791 0.74982 0.17725 0.0
C2263 C 0.39403 0.75817 0.20119 0.0
C2264 C 0.41165 0.77165 0.2119 0.0
C2265 C 0.43255 0.77704 0.19883 0.0
C2266 C 0.34946 0.74695 0.25312 0.0
C2267 C 0.32784 0.75098 0.24142 0.0
C2268 C 0.37095 0.74842 0.23985 0.0
C2269 C 0.37125 0.75397 0.21465 0.0
C2270 C 0.3496 0.75706 0.20277 0.0
C2271 C 0.32809 0.75556 0.21603 0.0
H2272 H 0.04654 0.71906 0.93858 0.0
H2273 H 0.97073 0.71814 0.95271 0.0
H2274 H 0.05017 0.67957 0.95776 0.0
H2275 H 0.97435 0.6792 0.9722 0.0
H2276 H 0.98365 0.59923 0.98255 0.0
H2277 H 0.98131 0.63866 0.96372 0.0
H2278 H 0.04807 0.65655 0.99527 0.0
H2279 H 0.05063 0.61673 0.01373 0.0
C2280 C 0.03065 0.71057 0.94591 0.0
C2281 C 0.00832 0.72197 0.94392 0.0
C2282 C 0.03274 0.68787 0.95706 0.0
C2283 C 0.01255 0.6758 0.96654 0.0
C2284 C 0.99032 0.68746 0.96479 0.0
C2285 C 0.98825 0.71005 0.95368 0.0
C2286 C 0.99785 0.61154 0.98558 0.0
C2287 C 0.01728 0.60462 -0.00014 0.0
C2288 C 0.99645 0.63436 0.97482 0.0
C2289 C 0.01442 0.65119 0.97793 0.0
C2290 C 0.03395 0.64421 0.99214 0.0
C2291 C 0.03534 0.62132 0.00294 0.0
H2292 H 0.06122 0.26824 0.70251 0.0
H2293 H 0.09964 0.24386 0.63766 0.0
H2294 H 0.09568 0.25883 0.72707 0.0
H2295 H 0.13418 0.23483 0.6622 0.0
H2296 H 0.18562 0.20325 0.71665 0.0
H2297 H 0.14815 0.20783 0.69531 0.0
H2298 H 0.13556 0.27536 0.7303 0.0
H2299 H 0.17247 0.27043 0.752 0.0
C2300 C 0.077 0.26089 0.6935 0.0
C2301 C 0.07778 0.25693 0.66813 0.0
C2302 C 0.09672 0.25554 0.70756 0.0
C2303 C 0.11757 0.24609 0.69653 0.0
C2304 C 0.11822 0.24179 0.67124 0.0
C2305 C 0.09852 0.24718 0.65716 0.0
C2306 C 0.17459 0.21882 0.72005 0.0
C2307 C 0.18202 0.2366 0.73574 0.0
C2308 C 0.15331 0.22155 0.7077 0.0
C2309 C 0.13905 0.24202 0.71104 0.0
C2310 C 0.14608 0.25932 0.72748 0.0
C2311 C 0.16734 0.25664 0.73969 0.0
H2312 H 0.56665 0.78409 0.07896 0.0
H2313 H 0.50007 0.7482 0.09268 0.0
H2314 H 0.57991 0.75209 0.05191 0.0
H2315 H 0.51345 0.7162 0.0663 0.0
H2316 H 0.53718 0.66199 0.01505 0.0
H2317 H 0.52496 0.70223 0.02626 0.0
H2318 H 0.59209 0.71145 0.0612 0.0
H2319 H 0.60437 0.67144 0.04936 0.0
C2320 C 0.55469 0.7696 0.07588 0.0
C2321 C 0.53247 0.76844 0.08827 0.0
C2322 C 0.56233 0.75126 0.06047 0.0
C2323 C 0.54785 0.73151 0.05714 0.0
C2324 C 0.52498 0.73126 0.0682 0.0
C2325 C 0.51736 0.74954 0.08355 0.0
C2326 C 0.54944 0.67289 0.02468 0.0
C2327 C 0.5715 0.66359 0.03179 0.0
C2328 C 0.54248 0.69587 0.0311 0.0
C2329 C 0.55736 0.70985 0.04502 0.0
C2330 C 0.58025 0.70122 0.05032 0.0
C2331 C 0.5873 0.67828 0.04364 0.0
H2332 H 0.10377 0.74019 0.87283 0.0
H2333 H 0.08489 0.81182 0.85083 0.0
H2334 H 0.14191 0.74379 0.85115 0.0
H2335 H 0.12315 0.81532 0.8286 0.0
H2336 H 0.20448 0.82216 0.81628 0.0
H2337 H 0.16504 0.81874 0.83554 0.0
H2338 H 0.16163 0.74612 0.81173 0.0
H2339 H 0.20137 0.74944 0.7928 0.0
C2340 C 0.10762 0.7567 0.86318 0.0
C2341 C 0.09108 0.77573 0.86372 0.0
C2342 C 0.12958 0.75871 0.85053 0.0
C2343 C 0.13587 0.77985 0.83798 0.0
C2344 C 0.11919 0.79883 0.83825 0.0
C2345 C 0.0971 0.79678 0.85088 0.0
C2346 C 0.19534 0.80544 0.81506 0.0
C2347 C 0.20629 0.78606 0.80296 0.0
C2348 C 0.17253 0.80353 0.82601 0.0
C2349 C 0.1599 0.78215 0.82531 0.0
C2350 C 0.17079 0.76281 0.813 0.0
C2351 C 0.19361 0.76474 0.80198 0.0
H2352 H 0.04393 0.34079 0.57766 0.0
H2353 H 0.99064 0.35221 0.63511 0.0
H2354 H 0.03745 0.3813 0.56256 0.0
H2355 H 0.98416 0.39273 0.61988 0.0
H2356 H 0.00589 0.47157 0.60061 0.0
H2357 H 0.00749 0.43078 0.61646 0.0
H2358 H 0.0045 0.40455 0.54269 0.0
H2359 H 0.00297 0.44516 0.52676 0.0
C2360 C 0.03087 0.35194 0.58708 0.0
C2361 C 0.0178 0.34332 0.60755 0.0
C2362 C 0.02703 0.37505 0.57832 0.0
C2363 C 0.01018 0.39003 0.58997 0.0
C2364 C 0.9973 0.38154 0.61062 0.0
C2365 C 1.00099 0.35835 0.61926 0.0
C2366 C 0.00511 0.4571 0.58782 0.0
C2367 C 0.00449 0.46158 0.56243 0.0
C2368 C 0.00602 0.43377 0.5969 0.0
C2369 C 0.00646 0.41459 0.58073 0.0
C2370 C 0.0046 0.41906 0.55549 0.0
C2371 C 0.00354 0.44232 0.54642 0.0
H2372 H 0.4423 0.33563 0.36084 0.0
H2373 H 0.45415 0.25973 0.36263 0.0
H2374 H 0.40575 0.33034 0.33913 0.0
H2375 H 0.41745 0.25438 0.34033 0.0
H2376 H 0.33635 0.25394 0.32379 0.0
H2377 H 0.37452 0.25694 0.34372 0.0
H2378 H 0.39004 0.32022 0.30083 0.0
H2379 H 0.35181 0.31746 0.28133 0.0
C2380 C 0.43723 0.31773 0.35649 0.0
C2381 C 0.45142 0.29813 0.3636 0.0
C2382 C 0.41619 0.31469 0.34377 0.0
C2383 C 0.40842 0.29191 0.33764 0.0
C2384 C 0.42258 0.27222 0.34479 0.0
C2385 C 0.44379 0.27528 0.35751 0.0
C2386 C 0.34801 0.26836 0.31839 0.0
C2387 C 0.34079 0.28546 0.30087 0.0
C2388 C 0.37004 0.27006 0.32983 0.0
C2389 C 0.38556 0.28897 0.3242 0.0
C2390 C 0.37856 0.30564 0.30613 0.0
C2391 C 0.35659 0.30393 0.29471 0.0
H2392 H 0.47553 0.54323 0.29404 0.0
H2393 H 0.40768 0.56369 0.32713 0.0
H2394 H 0.49395 0.54638 0.33376 0.0
H2395 H 0.4262 0.56703 0.36668 0.0
H2396 H 0.46298 0.54456 0.43729 0.0
H2397 H 0.44499 0.54016 0.39752 0.0
H2398 H 0.50299 0.57874 0.36285 0.0
H2399 H 0.52129 0.5826 0.40255 0.0
C2400 C 0.46456 0.5484 0.30976 0.0
C2401 C 0.44018 0.55323 0.30749 0.0
C2402 C 0.47513 0.55031 0.33243 0.0
C2403 C 0.46147 0.55694 0.35321 0.0
C2404 C 0.43707 0.56163 0.35097 0.0
C2405 C 0.42653 0.55985 0.32831 0.0
C2406 C 0.47197 0.5519 0.42115 0.0
C2407 C 0.49352 0.56392 0.42298 0.0
C2408 C 0.46158 0.54958 0.39846 0.0
C2409 C 0.47262 0.55914 0.37718 0.0
C2410 C 0.49423 0.57104 0.37897 0.0
C2411 C 0.50455 0.57348 0.40169 0.0
H2412 H 0.26084 0.67766 0.06438 0.0
H2413 H 0.31479 0.73142 0.06708 0.0
H2414 H 0.23908 0.69631 0.09811 0.0
H2415 H 0.29311 0.74981 0.10151 0.0
H2416 H 0.24165 0.78607 0.1542 0.0
H2417 H 0.2558 0.77106 0.11432 0.0
H2418 H 0.24672 0.69908 0.1414 0.0
H2419 H 0.23229 0.71416 0.18069 0.0
C2420 C 0.26815 0.69341 0.07227 0.0
C2421 C 0.28975 0.70289 0.06332 0.0
C2422 C 0.2556 0.70412 0.09155 0.0
C2423 C 0.26442 0.72444 0.10247 0.0
C2424 C 0.28574 0.73431 0.0932 0.0
C2425 C 0.29828 0.72364 0.07372 0.0
C2426 C 0.24198 0.7671 0.15118 0.0
C2427 C 0.23601 0.75117 0.17033 0.0
C2428 C 0.25035 0.75852 0.12858 0.0
C2429 C 0.25258 0.73392 0.12487 0.0
C2430 C 0.24503 0.71812 0.14359 0.0
C2431 C 0.23685 0.72669 0.16609 0.0
H2432 H 0.08851 0.55095 0.84122 0.0
H2433 H 0.1443 0.50454 0.86787 0.0
H2434 H 0.06736 0.54721 0.88073 0.0
H2435 H 0.12293 0.50049 0.90701 0.0
H2436 H 0.09117 0.52551 0.98138 0.0
H2437 H 0.11231 0.52581 0.94192 0.0
H2438 H 0.04614 0.51607 0.9054 0.0
H2439 H 0.02477 0.51618 0.94496 0.0
C2440 C 0.09628 0.54004 0.8555 0.0
C2441 C 0.11806 0.52809 0.85149 0.0
C2442 C 0.08406 0.53769 0.87798 0.0
C2443 C 0.09347 0.5234 0.89677 0.0
C2444 C 0.11538 0.51172 0.89286 0.0
C2445 C 0.12757 0.51405 0.87043 0.0
C2446 C 0.08115 0.52306 0.96498 0.0
C2447 C 0.05631 0.52098 0.9662 0.0
C2448 C 0.09328 0.5232 0.94241 0.0
C2449 C 0.08079 0.52122 0.92068 0.0
C2450 C 0.05609 0.51803 0.92193 0.0
C2451 C 0.04393 0.51786 0.94455 0.0
H2452 H 0.28141 0.39865 0.60784 0.0
H2453 H 0.26589 0.33028 0.57785 0.0
H2454 H 0.2821 0.38077 0.64894 0.0
H2455 H 0.26712 0.31235 0.61867 0.0
H2456 H 0.24641 0.29103 0.69703 0.0
H2457 H 0.24561 0.30999 0.65666 0.0
H2458 H 0.30375 0.3547 0.67578 0.0
H2459 H 0.30415 0.33602 0.71651 0.0
C2460 C 0.27827 0.37978 0.60995 0.0
C2461 C 0.27351 0.36599 0.58939 0.0
C2462 C 0.2788 0.36946 0.63358 0.0
C2463 C 0.27458 0.34503 0.63738 0.0
C2464 C 0.27004 0.33126 0.61673 0.0
C2465 C 0.26949 0.34156 0.59316 0.0
C2466 C 0.25903 0.30493 0.6927 0.0
C2467 C 0.27539 0.31188 0.71015 0.0
C2468 C 0.25869 0.31575 0.66937 0.0
C2469 C 0.27472 0.33389 0.66264 0.0
C2470 C 0.29094 0.34102 0.68022 0.0
C2471 C 0.29127 0.33018 0.70362 0.0
H2472 H 0.40879 0.61158 0.16855 0.0
H2473 H 0.46187 0.58256 0.21656 0.0
H2474 H 0.43833 0.61215 0.13461 0.0
H2475 H 0.49142 0.58377 0.18286 0.0
H2476 H 0.53834 0.59919 0.11102 0.0
H2477 H 0.51217 0.61308 0.14502 0.0
H2478 H 0.45664 0.56764 0.12091 0.0
H2479 H 0.48264 0.55326 0.08782 0.0
C2480 C 0.42697 0.6063 0.17206 0.0
C2481 C 0.4331 0.59673 0.19493 0.0
C2482 C 0.4438 0.60663 0.15272 0.0
C2483 C 0.46698 0.59796 0.1563 0.0
C2484 C 0.47369 0.59073 0.17981 0.0
C2485 C 0.45678 0.58989 0.19896 0.0
C2486 C 0.52055 0.59221 0.11313 0.0
C2487 C 0.51258 0.57491 0.09712 0.0
C2488 C 0.50563 0.60026 0.13234 0.0
C2489 C 0.4824 0.59167 0.13511 0.0
C2490 C 0.47437 0.57479 0.11879 0.0
C2491 C 0.48938 0.56633 0.10013 0.0
H2492 H 0.32978 0.69185 0.93865 0.0
H2493 H 0.27359 0.74009 0.96246 0.0
H2494 H 0.33448 0.71434 0.90042 0.0
H2495 H 0.27788 0.76224 0.92388 0.0
H2496 H 0.29583 0.80362 0.85552 0.0
H2497 H 0.30292 0.78702 0.89634 0.0
H2498 H 0.30844 0.7167 0.86581 0.0
H2499 H 0.30187 0.73318 0.82524 0.0
C2500 C 0.31852 0.70734 0.93576 0.0
C2501 C 0.30098 0.71398 0.95327 0.0
C2502 C 0.32125 0.72022 0.91391 0.0
C2503 C 0.30637 0.73984 0.90908 0.0
C2504 C 0.28976 0.7473 0.9272 0.0
C2505 C 0.28714 0.73451 0.94919 0.0
C2506 C 0.29906 0.78468 0.85752 0.0
C2507 C 0.29802 0.76963 0.83729 0.0
C2508 C 0.303 0.77521 0.88086 0.0
C2509 C 0.30607 0.75059 0.88424 0.0
C2510 C 0.30641 0.73578 0.86376 0.0
C2511 C 0.30245 0.74521 0.84051 0.0
H2512 H 0.11964 0.54031 0.73509 0.0
H2513 H 0.07338 0.4841 0.76128 0.0
H2514 H 0.09128 0.55165 0.70449 0.0
H2515 H 0.04455 0.49575 0.73025 0.0
H2516 H 0.02829 0.50382 0.64486 0.0
H2517 H 0.0459 0.4939 0.684 0.0
H2518 H 0.05084 0.56859 0.69973 0.0
H2519 H 0.0342 0.57856 0.66017 0.0
C2520 C 0.10329 0.53044 0.73441 0.0
C2521 C 0.09881 0.51113 0.7504 0.0
C2522 C 0.08688 0.53718 0.71707 0.0
C2523 C 0.06563 0.52473 0.71519 0.0
C2524 C 0.06083 0.50564 0.73142 0.0
C2525 C 0.07728 0.49898 0.74908 0.0
C2526 C 0.03297 0.51811 0.65675 0.0
C2527 C 0.03054 0.54198 0.64912 0.0
C2528 C 0.04267 0.51241 0.67933 0.0
C2529 C 0.05002 0.5305 0.69465 0.0
C2530 C 0.0456 0.55433 0.68802 0.0
C2531 C 0.03597 0.56003 0.66542 0.0
H2532 H 0.30046 0.41245 0.43025 0.0
H2533 H 0.25529 0.3628 0.46976 0.0
H2534 H 0.29526 0.3909 0.39265 0.0
H2535 H 0.24922 0.34155 0.43173 0.0
H2536 H 0.26213 0.29528 0.36352 0.0
H2537 H 0.26571 0.31632 0.40182 0.0
H2538 H 0.26939 0.38291 0.36148 0.0
H2539 H 0.26681 0.36162 0.3231 0.0
C2540 C 0.28927 0.39694 0.43093 0.0
C2541 C 0.27832 0.38944 0.4532 0.0
C2542 C 0.28606 0.38463 0.40915 0.0
C2543 C 0.27155 0.36445 0.40872 0.0
C2544 C 0.26074 0.35679 0.43112 0.0
C2545 C 0.26415 0.36905 0.45304 0.0
C2546 C 0.26347 0.31445 0.36279 0.0
C2547 C 0.26419 0.32668 0.34005 0.0
C2548 C 0.26546 0.32662 0.38491 0.0
C2549 C 0.26807 0.35148 0.3851 0.0
C2550 C 0.26799 0.36376 0.36232 0.0
C2551 C 0.26622 0.35155 0.34018 0.0
H2552 H 0.36752 0.42166 0.55248 0.0
H2553 H 0.32989 0.47821 0.51512 0.0
H2554 H 0.40268 0.44602 0.55339 0.0
H2555 H 0.36537 0.50298 0.51633 0.0
H2556 H 0.444 0.52779 0.50007 0.0
H2557 H 0.40621 0.50685 0.49962 0.0
H2558 H 0.41788 0.48022 0.57297 0.0
H2559 H 0.45566 0.50073 0.57326 0.0
C2560 C 0.36666 0.43937 0.54449 0.0
C2561 C 0.34568 0.44788 0.53375 0.0
C2562 C 0.3869 0.45349 0.5452 0.0
C2563 C 0.38699 0.47668 0.53517 0.0
C2564 C 0.36609 0.4852 0.52416 0.0
C2565 C 0.34567 0.47102 0.52354 0.0
C2566 C 0.43833 0.51776 0.51626 0.0
C2567 C 0.45305 0.51595 0.53668 0.0
C2568 C 0.41658 0.50574 0.516 0.0
C2569 C 0.40898 0.49149 0.53612 0.0
C2570 C 0.42327 0.49056 0.5569 0.0
C2571 C 0.44494 0.50255 0.55716 0.0
H2572 H 0.89193 0.17237 0.51973 0.0
H2573 H 0.84544 0.11316 0.50939 0.0
H2574 H 0.92604 0.14765 0.50774 0.0
H2575 H 0.87927 0.08878 0.49625 0.0
H2576 H 0.949 0.04595 0.5035 0.0
H2577 H 0.91305 0.0692 0.51141 0.0
H2578 H 0.9446 0.12939 0.47318 0.0
H2579 H 0.98107 0.10638 0.46634 0.0
C2580 C 0.88904 0.15409 0.51484 0.0
C2581 C 0.86611 0.14464 0.51562 0.0
C2582 C 0.9085 0.13999 0.50766 0.0
C2583 C 0.90536 0.11629 0.50075 0.0
C2584 C 0.88237 0.10686 0.50171 0.0
C2585 C 0.86298 0.12084 0.50926 0.0
C2586 C 0.94807 0.06398 0.49631 0.0
C2587 C 0.96788 0.07445 0.48452 0.0
C2588 C 0.92743 0.07734 0.50084 0.0
C2589 C 0.9261 0.10131 0.49332 0.0
C2590 C 0.94531 0.11118 0.47984 0.0
C2591 C 0.96608 0.09792 0.47563 0.0
H2592 H 0.72363 0.07656 0.34263 0.0
H2593 H 0.74276 0.04217 0.27454 0.0
H2594 H 0.74483 0.11177 0.3289 0.0
H2595 H 0.7651 0.07703 0.26115 0.0
H2596 H 0.75389 0.15359 0.23077 0.0
H2597 H 0.74897 0.1135 0.24689 0.0
H2598 H 0.77794 0.1346 0.31569 0.0
H2599 H 0.78216 0.17505 0.29952 0.0
C2600 C 0.73326 0.07616 0.32516 0.0
C2601 C 0.73109 0.05694 0.30936 0.0
C2602 C 0.74553 0.09636 0.31726 0.0
C2603 C 0.75612 0.09748 0.29359 0.0
C2604 C 0.75647 0.07701 0.27915 0.0
C2605 C 0.74384 0.05698 0.28687 0.0
C2606 C 0.75961 0.14952 0.24915 0.0
C2607 C 0.76802 0.16743 0.26403 0.0
C2608 C 0.757 0.12647 0.2584 0.0
C2609 C 0.76302 0.12077 0.28267 0.0
C2610 C 0.77276 0.13846 0.29708 0.0
C2611 C 0.77511 0.16162 0.28787 0.0
H2612 H 0.68241 0.91783 0.0066 0.0
H2613 H 0.7215 0.97703 0.03345 0.0
H2614 H 0.64604 0.94158 0.00813 0.0
H2615 H 0.68478 0.00106 0.03478 0.0
H2616 H 0.60718 0.02536 0.05884 0.0
H2617 H 0.64552 0.00416 0.057 0.0
H2618 H 0.62784 0.97519 0.98717 0.0
H2619 H 0.58971 0.99601 0.98908 0.0
C2620 C 0.68331 0.93598 0.01276 0.0
C2621 C 0.70501 0.94546 0.01985 0.0
C2622 C 0.66238 0.9497 0.01349 0.0
C2623 C 0.66239 0.97335 0.02144 0.0
C2624 C 0.68406 0.98288 0.0287 0.0
C2625 C 0.70514 0.96914 0.02779 0.0
C2626 C 0.61158 0.01462 0.04301 0.0
C2627 C 0.59522 0.01236 0.02418 0.0
C2628 C 0.63362 0.00251 0.04191 0.0
C2629 C 0.63976 0.98774 0.02204 0.0
C2630 C 0.62361 0.98603 0.00297 0.0
C2631 C 0.60172 0.99814 0.00401 0.0
H2632 H 0.36315 0.49319 0.18415 0.0
H2633 H 0.4005 0.47568 0.2502 0.0
H2634 H 0.34494 0.45418 0.18553 0.0
H2635 H 0.38308 0.43632 0.2511 0.0
H2636 H 0.3172 0.39082 0.26747 0.0
H2637 H 0.34347 0.42447 0.26171 0.0
H2638 H 0.34781 0.41161 0.18377 0.0
H2639 H 0.32106 0.37813 0.18964 0.0
C2640 C 0.36806 0.4807 0.19849 0.0
C2641 C 0.38284 0.48752 0.21732 0.0
C2642 C 0.35768 0.45831 0.19928 0.0
C2643 C 0.36219 0.44235 0.21874 0.0
C2644 C 0.37874 0.44849 0.23627 0.0
C2645 C 0.38883 0.47094 0.23567 0.0
C2646 C 0.32402 0.39503 0.24918 0.0
C2647 C 0.31697 0.38203 0.22901 0.0
C2648 C 0.33919 0.41421 0.24584 0.0
C2649 C 0.34783 0.42066 0.22225 0.0
C2650 C 0.34123 0.40726 0.20212 0.0
C2651 C 0.32588 0.38816 0.20546 0.0
H2652 H 0.2501 0.59533 0.0073 0.0
H2653 H 0.21058 0.66168 0.00425 0.0
H2654 H 0.21345 0.57445 0.01854 0.0
H2655 H 0.17442 0.64107 0.01604 0.0
H2656 H 0.10984 0.59579 0.01594 0.0
H2657 H 0.14659 0.61345 0.00112 0.0
H2658 H 0.18551 0.57164 0.05397 0.0
H2659 H 0.14858 0.55284 0.06804 0.0
C2660 C 0.2336 0.6054 0.0088 0.0
C2661 C 0.23322 0.63014 0.0049 0.0
C2662 C 0.21269 0.5935 0.01547 0.0
C2663 C 0.19108 0.60613 0.01829 0.0
C2664 C 0.1907 0.63076 0.01373 0.0
C2665 C 0.21149 0.6426 0.00705 0.0
C2666 C 0.12621 0.59002 0.02422 0.0
C2667 C 0.12624 0.57277 0.04313 0.0
C2668 C 0.1473 0.60038 0.01587 0.0
C2669 C 0.16896 0.59399 0.02639 0.0
C2670 C 0.16911 0.57673 0.0453 0.0
C2671 C 0.14793 0.56622 0.05361 0.0
H2672 H 0.65296 0.92988 0.25978 0.0
H2673 H 0.67564 0.94668 0.33235 0.0
H2674 H 0.66721 0.88904 0.2655 0.0
H2675 H 0.68906 0.9058 0.33845 0.0
H2676 H 0.75056 0.85462 0.3138 0.0
H2677 H 0.72436 0.88879 0.31871 0.0
H2678 H 0.66717 0.85012 0.28724 0.0
H2679 H 0.69371 0.81573 0.28195 0.0
C2680 C 0.66031 0.92461 0.2772 0.0
C2681 C 0.66389 0.94142 0.29535 0.0
C2682 C 0.66829 0.90122 0.28058 0.0
C2683 C 0.67964 0.89442 0.30227 0.0
C2684 C 0.68087 0.91073 0.32135 0.0
C2685 C 0.67325 0.9341 0.31783 0.0
C2686 C 0.73229 0.85321 0.30835 0.0
C2687 C 0.72427 0.83269 0.29716 0.0
C2688 C 0.71716 0.87273 0.31139 0.0
C2689 C 0.69371 0.87212 0.30327 0.0
C2690 C 0.68522 0.85108 0.29346 0.0
C2691 C 0.70038 0.83143 0.29052 0.0
H2692 H 0.87432 0.12299 0.70589 0.0
H2693 H 0.8222 0.07208 0.73176 0.0
H2694 H 0.84451 0.15466 0.70914 0.0
H2695 H 0.7924 0.10395 0.7352 0.0
H2696 H 0.78596 0.20804 0.71301 0.0
H2697 H 0.80349 0.17145 0.69623 0.0
H2698 H 0.79492 0.13706 0.76718 0.0
H2699 H 0.77784 0.17353 0.78396 0.0
C2700 C 0.85635 0.1185 0.71172 0.0
C2701 C 0.85067 0.09519 0.71903 0.0
C2702 C 0.83923 0.13658 0.71333 0.0
C2703 C 0.81624 0.13169 0.72255 0.0
C2704 C 0.81006 0.10811 0.72811 0.0
C2705 C 0.82711 0.08993 0.72616 0.0
C2706 C 0.78716 0.1924 0.72476 0.0
C2707 C 0.78088 0.19357 0.74982 0.0
C2708 C 0.79721 0.17156 0.71519 0.0
C2709 C 0.80058 0.15155 0.73045 0.0
C2710 C 0.79229 0.15216 0.75496 0.0
C2711 C 0.7827 0.17307 0.76461 0.0
loop_
_geom_bond_atom_site_label_1
_geom_bond_atom_site_label_2
_geom_bond_distance
_geom_bond_site_symmetry_2
_ccdc_geom_bond_type
C0 O1 1.160 . S
C0 O7 1.185 . S
O1 C0 1.160 . S
O2 Zn3 1.899 . S
O2 C10 1.284 . S
Zn3 O2 1.899 . S
Zn3 O4 2.032 . S
Zn3 O7 2.086 1_455 S
Zn3 O12 1.977 . S
O4 Zn3 2.032 . S
O4 C8 1.278 . S
C5 O6 1.203 . S
C5 O12 1.267 . S
O6 C5 1.203 . S
O7 C0 1.185 . S
O7 Zn3 2.086 1_655 S
C8 O4 1.278 . S
C8 O9 1.211 . S
O9 C8 1.211 . S
C10 O2 1.284 . S
C10 O11 1.273 . S
O11 C10 1.273 . S
O12 Zn3 1.977 . S
O12 C5 1.267 . S
C13 O14 1.160 . S
C13 O20 1.185 . S
O14 C13 1.160 . S
O15 Zn16 1.899 . S
O15 C23 1.284 . S
Zn16 O15 1.899 . S
Zn16 O17 2.032 . S
Zn16 O20 2.086 . S
Zn16 O25 1.977 . S
O17 Zn16 2.032 . S
O17 C21 1.278 . S
C18 O19 1.194 1_455 S
C18 O25 1.300 . S
O19 C18 1.194 1_655 S
O20 C13 1.185 . S
O20 Zn16 2.086 . S
C21 O17 1.278 . S
C21 O22 1.211 . S
O22 C21 1.211 . S
C23 O15 1.284 . S
C23 O24 1.273 . S
O24 C23 1.273 . S
O25 Zn16 1.977 . S
O25 C18 1.300 . S
C26 O27 1.160 . S
C26 O33 1.185 . S
O27 C26 1.160 . S
O28 Zn29 1.899 . S
O28 C36 1.284 . S
Zn29 O28 1.899 . S
Zn29 O30 2.032 . S
Zn29 O33 2.086 . S
Zn29 O38 1.977 . S
O30 Zn29 2.032 . S
O30 C34 1.278 . S
C31 O32 1.203 . S
C31 O38 1.267 . S
O32 C31 1.203 . S
O33 C26 1.185 . S
O33 Zn29 2.086 . S
C34 O30 1.278 . S
C34 O35 1.211 . S
O35 C34 1.211 . S
C36 O28 1.284 . S
C36 O37 1.273 . S
O37 C36 1.273 . S
O38 Zn29 1.977 . S
O38 C31 1.267 . S
C39 O40 1.160 . S
C39 O46 1.185 . S
O40 C39 1.160 . S
O41 Zn42 1.899 . S
O41 C49 1.284 . S
Zn42 O41 1.899 . S
Zn42 O43 2.032 . S
Zn42 O46 2.086 . S
Zn42 O51 1.977 . S
O43 Zn42 2.032 . S
O43 C47 1.278 . S
C44 O45 1.203 . S
C44 O51 1.267 . S
O45 C44 1.203 . S
O46 C39 1.185 . S
O46 Zn42 2.086 . S
C47 O43 1.278 . S
C47 O48 1.211 . S
O48 C47 1.211 . S
C49 O41 1.284 . S
C49 O50 1.273 . S
O50 C49 1.273 . S
O51 Zn42 1.977 . S
O51 C44 1.267 . S
C52 O53 1.160 . S
C52 O59 1.185 . S
O53 C52 1.160 . S
O54 Zn55 1.899 . S
O54 C62 1.284 . S
Zn55 O54 1.899 . S
Zn55 O56 2.032 1_545 S
Zn55 O59 2.086 1_545 S
Zn55 O64 1.977 . S
O56 Zn55 2.032 1_565 S
O56 C60 1.278 1_565 S
C57 O58 1.203 . S
C57 O64 1.267 . S
O58 C57 1.203 . S
O59 C52 1.185 . S
O59 Zn55 2.086 1_565 S
C60 O56 1.278 1_545 S
C60 O61 1.211 . S
O61 C60 1.211 . S
C62 O54 1.284 . S
C62 O63 1.273 . S
O63 C62 1.273 . S
O64 Zn55 1.977 . S
O64 C57 1.267 . S
C65 O66 1.160 . S
C65 O72 1.185 . S
O66 C65 1.160 . S
O67 Zn68 1.899 . S
O67 C75 1.284 . S
Zn68 O67 1.899 . S
Zn68 O69 2.032 . S
Zn68 O72 2.086 . S
Zn68 O77 1.977 . S
O69 Zn68 2.032 . S
O69 C73 1.278 . S
C70 O71 1.203 . S
C70 O77 1.267 . S
O71 C70 1.203 . S
O72 C65 1.185 . S
O72 Zn68 2.086 . S
C73 O69 1.278 . S
C73 O74 1.211 . S
O74 C73 1.211 . S
C75 O67 1.284 . S
C75 O76 1.273 . S
O76 C75 1.273 . S
O77 Zn68 1.977 . S
O77 C70 1.267 . S
C78 O79 1.160 . S
C78 O85 1.185 . S
O79 C78 1.160 . S
O80 Zn81 1.899 . S
O80 C88 1.284 . S
Zn81 O80 1.899 . S
Zn81 O82 2.032 . S
Zn81 O85 2.086 . S
Zn81 O90 1.977 . S
O82 Zn81 2.032 . S
O82 C86 1.278 . S
C83 O84 1.203 . S
C83 O90 1.267 . S
O84 C83 1.203 . S
O85 C78 1.185 . S
O85 Zn81 2.086 . S
C86 O82 1.278 . S
C86 O87 1.211 . S
O87 C86 1.211 . S
C88 O80 1.284 . S
C88 O89 1.273 . S
O89 C88 1.273 . S
O90 Zn81 1.977 . S
O90 C83 1.267 . S
C91 O92 1.160 . S
C91 O98 1.185 . S
O92 C91 1.160 . S
O93 Zn94 1.899 . S
O93 C101 1.284 . S
Zn94 O93 1.899 . S
Zn94 O95 2.032 . S
Zn94 O98 2.086 . S
Zn94 O103 1.977 . S
O95 Zn94 2.032 . S
O95 C99 1.278 1_554 S
C96 O97 1.203 . S
C96 O103 1.267 . S
O97 C96 1.203 . S
O98 C91 1.185 . S
O98 Zn94 2.086 . S
C99 O95 1.278 1_556 S
C99 O100 1.211 . S
O100 C99 1.211 . S
C101 O93 1.284 . S
C101 O102 1.273 . S
O102 C101 1.273 . S
O103 Zn94 1.977 . S
O103 C96 1.267 . S
C104 O105 1.160 . S
C104 O111 1.185 . S
O105 C104 1.160 . S
O106 Zn107 1.899 . S
O106 C114 1.284 . S
Zn107 O106 1.899 . S
Zn107 O108 2.032 . S
Zn107 O111 2.086 . S
Zn107 O116 1.977 . S
O108 Zn107 2.032 . S
O108 C112 1.278 . S
C109 O110 1.203 . S
C109 O116 1.267 . S
O110 C109 1.203 . S
O111 C104 1.185 . S
O111 Zn107 2.086 . S
C112 O108 1.278 . S
C112 O113 1.211 . S
O113 C112 1.211 . S
C114 O106 1.284 . S
C114 O115 1.273 . S
O115 C114 1.273 . S
O116 Zn107 1.977 . S
O116 C109 1.267 . S
C117 O118 1.160 . S
C117 O124 1.185 . S
O118 C117 1.160 . S
O119 Zn120 1.899 . S
O119 C127 1.284 . S
Zn120 O119 1.899 . S
Zn120 O121 2.032 . S
Zn120 O124 2.086 . S
Zn120 O129 1.977 . S
O121 Zn120 2.032 . S
O121 C125 1.278 . S
C122 O123 1.203 . S
C122 O129 1.267 . S
O123 C122 1.203 . S
O124 C117 1.185 . S
O124 Zn120 2.086 . S
C125 O121 1.278 . S
C125 O126 1.211 . S
O126 C125 1.211 . S
C127 O119 1.284 . S
C127 O128 1.273 . S
O128 C127 1.273 . S
O129 Zn120 1.977 . S
O129 C122 1.267 . S
C130 O131 1.160 . S
C130 O137 1.185 . S
O131 C130 1.160 . S
O132 Zn133 1.899 . S
O132 C140 1.284 . S
Zn133 O132 1.899 . S
Zn133 O134 2.032 . S
Zn133 O137 2.086 . S
Zn133 O142 1.977 . S
O134 Zn133 2.032 . S
O134 C138 1.278 . S
C135 O136 1.203 . S
C135 O142 1.267 . S
O136 C135 1.203 . S
O137 C130 1.185 . S
O137 Zn133 2.086 . S
C138 O134 1.278 . S
C138 O139 1.211 . S
O139 C138 1.211 . S
C140 O132 1.284 . S
C140 O141 1.273 . S
O141 C140 1.273 . S
O142 Zn133 1.977 . S
O142 C135 1.267 . S
C143 O144 1.160 . S
C143 O150 1.185 . S
O144 C143 1.160 . S
O145 Zn146 1.899 . S
O145 C153 1.284 . S
Zn146 O145 1.899 . S
Zn146 O147 2.032 . S
Zn146 O150 2.086 . S
Zn146 O155 1.977 . S
O147 Zn146 2.032 . S
O147 C151 1.278 . S
C148 O149 1.203 . S
C148 O155 1.267 . S
O149 C148 1.203 . S
O150 C143 1.185 . S
O150 Zn146 2.086 . S
C151 O147 1.278 . S
C151 O152 1.211 . S
O152 C151 1.211 . S
C153 O145 1.284 . S
C153 O154 1.273 . S
O154 C153 1.273 . S
O155 Zn146 1.977 . S
O155 C148 1.267 . S
C156 O157 1.160 . S
C156 O163 1.185 . S
O157 C156 1.160 . S
O158 Zn159 1.899 . S
O158 C166 1.284 . S
Zn159 O158 1.899 . S
Zn159 O160 2.032 . S
Zn159 O163 2.086 . S
Zn159 O168 1.977 1_455 S
O160 Zn159 2.032 . S
O160 C164 1.278 . S
C161 O162 1.203 . S
C161 O168 1.267 . S
O162 C161 1.203 . S
O163 C156 1.185 . S
O163 Zn159 2.086 . S
C164 O160 1.278 . S
C164 O165 1.211 1_455 S
O165 C164 1.211 1_655 S
C166 O158 1.284 . S
C166 O167 1.273 . S
O167 C166 1.273 . S
O168 Zn159 1.977 1_655 S
O168 C161 1.267 . S
C169 O170 1.160 . S
C169 O176 1.185 . S
O170 C169 1.160 . S
O171 Zn172 1.899 . S
O171 C179 1.284 1_655 S
Zn172 O171 1.899 . S
Zn172 O173 2.032 . S
Zn172 O176 2.086 . S
Zn172 O181 1.977 1_655 S
O173 Zn172 2.032 . S
O173 C177 1.278 1_655 S
C174 O175 1.203 . S
C174 O181 1.267 . S
O175 C174 1.203 . S
O176 C169 1.185 . S
O176 Zn172 2.086 . S
C177 O173 1.278 1_455 S
C177 O178 1.211 . S
O178 C177 1.211 . S
C179 O171 1.284 1_455 S
C179 O180 1.273 . S
O180 C179 1.273 . S
O181 Zn172 1.977 1_455 S
O181 C174 1.267 . S
C182 O183 1.160 . S
C182 O189 1.185 . S
O183 C182 1.160 . S
O184 Zn185 1.899 . S
O184 C192 1.284 . S
Zn185 O184 1.899 . S
Zn185 O186 2.032 . S
Zn185 O189 2.086 . S
Zn185 O194 1.977 . S
O186 Zn185 2.032 . S
O186 C190 1.278 . S
C187 O188 1.203 . S
C187 O194 1.267 . S
O188 C187 1.203 . S
O189 C182 1.185 . S
O189 Zn185 2.086 . S
C190 O186 1.278 . S
C190 O191 1.211 . S
O191 C190 1.211 . S
C192 O184 1.284 . S
C192 O193 1.273 . S
O193 C192 1.273 . S
O194 Zn185 1.977 . S
O194 C187 1.267 . S
C195 O196 1.160 . S
C195 O202 1.185 . S
O196 C195 1.160 . S
O197 Zn198 1.899 . S
O197 C205 1.284 . S
Zn198 O197 1.899 . S
Zn198 O199 2.032 . S
Zn198 O202 2.086 . S
Zn198 O207 1.977 . S
O199 Zn198 2.032 . S
O199 C203 1.278 . S
C200 O201 1.203 . S
C200 O207 1.267 . S
O201 C200 1.203 . S
O202 C195 1.185 . S
O202 Zn198 2.086 . S
C203 O199 1.278 . S
C203 O204 1.211 . S
O204 C203 1.211 . S
C205 O197 1.284 . S
C205 O206 1.273 . S
O206 C205 1.273 . S
O207 Zn198 1.977 . S
O207 C200 1.267 . S
C208 O209 1.160 . S
C208 O215 1.185 . S
O209 C208 1.160 . S
O210 Zn211 1.899 . S
O210 C218 1.284 . S
Zn211 O210 1.899 . S
Zn211 O212 2.032 . S
Zn211 O215 2.086 . S
Zn211 O220 1.977 . S
O212 Zn211 2.032 . S
O212 C216 1.278 . S
C213 O214 1.203 . S
C213 O220 1.267 . S
O214 C213 1.203 . S
O215 C208 1.185 . S
O215 Zn211 2.086 . S
C216 O212 1.278 . S
C216 O217 1.211 . S
O217 C216 1.211 . S
C218 O210 1.284 . S
C218 O219 1.273 . S
O219 C218 1.273 . S
O220 Zn211 1.977 . S
O220 C213 1.267 . S
C221 O222 1.160 . S
C221 O228 1.185 . S
O222 C221 1.160 . S
O223 Zn224 1.899 . S
O223 C231 1.284 . S
Zn224 O223 1.899 . S
Zn224 O225 2.032 . S
Zn224 O228 2.086 . S
Zn224 O233 1.977 . S
O225 Zn224 2.032 . S
O225 C229 1.278 . S
C226 O227 1.203 . S
C226 O233 1.267 . S
O227 C226 1.203 . S
O228 C221 1.185 . S
O228 Zn224 2.086 . S
C229 O225 1.278 . S
C229 O230 1.211 . S
O230 C229 1.211 . S
C231 O223 1.284 . S
C231 O232 1.273 . S
O232 C231 1.273 . S
O233 Zn224 1.977 . S
O233 C226 1.267 . S
C234 O235 1.160 . S
C234 O241 1.185 . S
O235 C234 1.160 . S
O236 Zn237 1.899 . S
O236 C244 1.284 . S
Zn237 O236 1.899 . S
Zn237 O238 2.032 1_545 S
Zn237 O241 2.086 1_545 S
Zn237 O246 1.977 . S
O238 Zn237 2.032 1_565 S
O238 C242 1.278 1_565 S
C239 O240 1.203 . S
C239 O246 1.267 . S
O240 C239 1.203 . S
O241 C234 1.185 . S
O241 Zn237 2.086 1_565 S
C242 O238 1.278 1_545 S
C242 O243 1.211 . S
O243 C242 1.211 . S
C244 O236 1.284 . S
C244 O245 1.273 . S
O245 C244 1.273 . S
O246 Zn237 1.977 . S
O246 C239 1.267 . S
C247 O248 1.160 . S
C247 O254 1.185 . S
O248 C247 1.160 . S
O249 Zn250 1.899 . S
O249 C257 1.284 . S
Zn250 O249 1.899 . S
Zn250 O251 2.032 1_554 S
Zn250 O254 2.086 . S
Zn250 O259 1.977 . S
O251 Zn250 2.032 1_556 S
O251 C255 1.278 . S
C252 O253 1.203 . S
C252 O259 1.267 . S
O253 C252 1.203 . S
O254 C247 1.185 . S
O254 Zn250 2.086 . S
C255 O251 1.278 . S
C255 O256 1.211 . S
O256 C255 1.211 . S
C257 O249 1.284 . S
C257 O258 1.273 . S
O258 C257 1.273 . S
O259 Zn250 1.977 . S
O259 C252 1.267 . S
C260 O261 1.160 . S
C260 O267 1.185 1_554 S
O261 C260 1.160 . S
O262 Zn263 1.899 . S
O262 C270 1.284 . S
Zn263 O262 1.899 . S
Zn263 O264 2.032 1_554 S
Zn263 O267 2.086 1_554 S
Zn263 O272 1.977 1_554 S
O264 Zn263 2.032 1_556 S
O264 C268 1.278 . S
C265 O266 1.203 . S
C265 O272 1.267 1_554 S
O266 C265 1.203 . S
O267 C260 1.185 1_556 S
O267 Zn263 2.086 1_556 S
C268 O264 1.278 . S
C268 O269 1.211 . S
O269 C268 1.211 . S
C270 O262 1.284 . S
C270 O271 1.273 . S
O271 C270 1.273 . S
O272 Zn263 1.977 1_556 S
O272 C265 1.267 1_556 S
C273 O274 1.160 . S
C273 O280 1.185 . S
O274 C273 1.160 . S
O275 Zn276 1.899 . S
O275 C283 1.284 . S
Zn276 O275 1.899 . S
Zn276 O277 2.032 . S
Zn276 O280 2.086 . S
Zn276 O285 1.977 . S
O277 Zn276 2.032 . S
O277 C281 1.278 . S
C278 O279 1.203 . S
C278 O285 1.267 . S
O279 C278 1.203 . S
O280 C273 1.185 . S
O280 Zn276 2.086 . S
C281 O277 1.278 . S
C281 O282 1.211 . S
O282 C281 1.211 . S
C283 O275 1.284 . S
C283 O284 1.273 . S
O284 C283 1.273 . S
O285 Zn276 1.977 . S
O285 C278 1.267 . S
C286 O287 1.160 . S
C286 O293 1.185 . S
O287 C286 1.160 . S
O288 Zn289 1.899 . S
O288 C296 1.284 . S
Zn289 O288 1.899 . S
Zn289 O290 2.032 . S
Zn289 O293 2.086 . S
Zn289 O298 1.977 . S
O290 Zn289 2.032 . S
O290 C294 1.278 . S
C291 O292 1.203 . S
C291 O298 1.267 . S
O292 C291 1.203 . S
O293 C286 1.185 . S
O293 Zn289 2.086 . S
C294 O290 1.278 . S
C294 O295 1.211 . S
O295 C294 1.211 . S
C296 O288 1.284 . S
C296 O297 1.273 . S
O297 C296 1.273 . S
O298 Zn289 1.977 . S
O298 C291 1.267 . S
C299 O300 1.160 . S
C299 O306 1.185 . S
O300 C299 1.160 . S
O301 Zn302 1.899 . S
O301 C309 1.284 . S
Zn302 O301 1.899 . S
Zn302 O303 2.032 . S
Zn302 O306 2.086 . S
Zn302 O311 1.977 . S
O303 Zn302 2.032 . S
O303 C307 1.278 . S
C304 O305 1.203 . S
C304 O311 1.267 . S
O305 C304 1.203 . S
O306 C299 1.185 . S
O306 Zn302 2.086 . S
C307 O303 1.278 . S
C307 O308 1.211 . S
O308 C307 1.211 . S
C309 O301 1.284 . S
C309 O310 1.273 . S
O310 C309 1.273 . S
O311 Zn302 1.977 . S
O311 C304 1.267 . S
Co312 N317 2.057 1_554 S
Co312 O329 2.021 1_554 S
Co312 O332 2.062 1_455 S
Co312 O336 2.117 . S
Co312 O337 2.019 . S
C313 O333 1.259 . S
C313 O336 1.258 . S
Co314 N323 2.057 . S
Co314 O330 2.096 1_545 S
Co314 O331 2.020 1_455 S
Co314 O333 2.021 . S
Co314 O338 2.062 . S
C315 N317 1.312 1_655 S
C315 N318 1.355 . S
C315 H320 0.928 1_655 S
C316 N317 1.375 1_655 S
C316 C319 1.350 . S
C316 H321 0.932 . S
N317 Co312 2.057 1_556 S
N317 C315 1.312 1_455 S
N317 C316 1.375 1_455 S
N318 C315 1.355 . S
N318 C319 1.373 . S
C319 C316 1.350 . S
C319 N318 1.373 . S
C319 H340 0.931 . S
H320 C315 0.928 1_455 S
H321 C316 0.932 . S
C322 O329 1.259 1_564 S
C322 O330 1.266 . S
N323 Co314 2.057 . S
N323 C324 1.316 . S
N323 C325 1.375 1_545 S
C324 N323 1.316 . S
C324 N326 1.347 . S
C324 H335 0.931 . S
C325 N323 1.375 1_565 S
C325 C327 1.350 . S
C325 H334 0.930 . S
N326 C324 1.347 . S
N326 C327 1.373 1_545 S
C327 C325 1.350 . S
C327 N326 1.373 1_565 S
C327 H341 0.931 . S
C328 O331 1.256 . S
C328 O332 1.255 . S
O329 Co312 2.021 1_556 S
O329 C322 1.259 1_546 S
O330 Co314 2.096 1_565 S
O330 C322 1.266 . S
O331 Co314 2.020 1_655 S
O331 C328 1.256 . S
O332 Co312 2.062 1_655 S
O332 C328 1.255 . S
O333 C313 1.259 . S
O333 Co314 2.021 . S
H334 C325 0.930 . S
H335 C324 0.931 . S
O336 Co312 2.117 . S
O336 C313 1.258 . S
O337 Co312 2.019 . S
O337 C339 1.278 . S
O338 Co314 2.062 . S
O338 C339 1.255 . S
C339 O337 1.278 . S
C339 O338 1.255 . S
H340 C319 0.931 . S
H341 C327 0.931 . S
Co342 N347 2.057 . S
Co342 O359 2.021 . S
Co342 O362 2.062 . S
Co342 O366 2.117 . S
Co342 O367 2.020 . S
C343 O363 1.259 . S
C343 O366 1.258 . S
Co344 N353 2.057 . S
Co344 O360 2.117 . S
Co344 O361 2.020 . S
Co344 O363 2.021 . S
Co344 O368 2.062 . S
C345 N347 1.316 . S
C345 N348 1.347 . S
C345 H350 0.931 . S
C346 N347 1.375 . S
C346 C349 1.350 . S
C346 H351 0.930 . S
N347 Co342 2.057 . S
N347 C345 1.316 . S
N347 C346 1.375 . S
N348 C345 1.347 . S
N348 C349 1.373 . S
C349 C346 1.350 . S
C349 N348 1.373 . S
C349 H370 0.931 . S
H350 C345 0.931 . S
H351 C346 0.930 . S
C352 O359 1.259 . S
C352 O360 1.258 . S
N353 Co344 2.057 . S
N353 C354 1.316 . S
N353 C355 1.375 . S
C354 N353 1.316 . S
C354 N356 1.347 . S
C354 H365 0.931 . S
C355 N353 1.375 . S
C355 C357 1.350 . S
C355 H364 0.930 . S
N356 C354 1.347 . S
N356 C357 1.373 . S
C357 C355 1.350 . S
C357 N356 1.373 . S
C357 H371 0.931 . S
C358 O361 1.256 . S
C358 O362 1.255 . S
O359 Co342 2.021 . S
O359 C352 1.259 . S
O360 Co344 2.117 . S
O360 C352 1.258 . S
O361 Co344 2.020 . S
O361 C358 1.256 . S
O362 Co342 2.062 . S
O362 C358 1.255 . S
O363 C343 1.259 . S
O363 Co344 2.021 . S
H364 C355 0.930 . S
H365 C354 0.931 . S
O366 Co342 2.117 . S
O366 C343 1.258 . S
O367 Co342 2.020 . S
O367 C369 1.256 . S
O368 Co344 2.062 . S
O368 C369 1.255 . S
C369 O367 1.256 . S
C369 O368 1.255 . S
H370 C349 0.931 . S
H371 C357 0.931 . S
Co372 N377 2.057 . S
Co372 O389 2.021 1_545 S
Co372 O392 2.062 . S
Co372 O396 2.117 . S
Co372 O397 2.020 . S
C373 O393 1.259 . S
C373 O396 1.258 . S
Co374 N383 2.057 . S
Co374 O390 2.117 . S
Co374 O391 2.020 . S
Co374 O393 2.021 . S
Co374 O398 2.062 . S
C375 N377 1.322 . S
C375 N378 1.348 . S
C375 H380 0.924 1_545 S
C376 N377 1.375 . S
C376 C379 1.350 . S
C376 H381 0.930 . S
N377 Co372 2.057 . S
N377 C375 1.322 . S
N377 C376 1.375 . S
N378 C375 1.348 . S
N378 C379 1.373 . S
C379 C376 1.350 . S
C379 N378 1.373 . S
C379 H400 0.931 . S
H380 C375 0.924 1_565 S
H381 C376 0.930 . S
C382 O389 1.259 . S
C382 O390 1.258 1_565 S
N383 Co374 2.057 . S
N383 C384 1.316 . S
N383 C385 1.375 . S
C384 N383 1.316 . S
C384 N386 1.347 . S
C384 H395 0.931 . S
C385 N383 1.375 . S
C385 C387 1.350 . S
C385 H394 0.930 . S
N386 C384 1.347 . S
N386 C387 1.373 . S
C387 C385 1.350 . S
C387 N386 1.373 . S
C387 H401 0.931 . S
C388 O391 1.256 . S
C388 O392 1.255 . S
O389 Co372 2.021 1_565 S
O389 C382 1.259 . S
O390 Co374 2.117 . S
O390 C382 1.258 1_545 S
O391 Co374 2.020 . S
O391 C388 1.256 . S
O392 Co372 2.062 . S
O392 C388 1.255 . S
O393 C373 1.259 . S
O393 Co374 2.021 . S
H394 C385 0.930 . S
H395 C384 0.931 . S
O396 Co372 2.117 . S
O396 C373 1.258 . S
O397 Co372 2.020 . S
O397 C399 1.256 . S
O398 Co374 2.062 . S
O398 C399 1.255 . S
C399 O397 1.256 . S
C399 O398 1.255 . S
H400 C379 0.931 . S
H401 C387 0.931 . S
Co402 N407 2.057 . S
Co402 O419 2.021 . S
Co402 O422 2.062 . S
Co402 O426 2.117 . S
Co402 O427 2.020 . S
C403 O423 1.259 . S
C403 O426 1.258 . S
Co404 N413 2.057 . S
Co404 O420 2.117 . S
Co404 O421 2.020 . S
Co404 O423 2.021 . S
Co404 O428 2.062 . S
C405 N407 1.316 . S
C405 N408 1.347 . S
C405 H410 0.931 . S
C406 N407 1.375 . S
C406 C409 1.350 . S
C406 H411 0.930 . S
N407 Co402 2.057 . S
N407 C405 1.316 . S
N407 C406 1.375 . S
N408 C405 1.347 . S
N408 C409 1.373 . S
C409 C406 1.350 . S
C409 N408 1.373 . S
C409 H430 0.931 . S
H410 C405 0.931 . S
H411 C406 0.930 . S
C412 O419 1.259 . S
C412 O420 1.258 . S
N413 Co404 2.057 . S
N413 C414 1.316 . S
N413 C415 1.375 . S
C414 N413 1.316 . S
C414 N416 1.347 . S
C414 H425 0.931 . S
C415 N413 1.375 . S
C415 C417 1.350 . S
C415 H424 0.930 . S
N416 C414 1.347 . S
N416 C417 1.373 . S
C417 C415 1.350 . S
C417 N416 1.373 . S
C417 H431 0.931 . S
C418 O421 1.256 . S
C418 O422 1.255 . S
O419 Co402 2.021 . S
O419 C412 1.259 . S
O420 Co404 2.117 . S
O420 C412 1.258 . S
O421 Co404 2.020 . S
O421 C418 1.256 . S
O422 Co402 2.062 . S
O422 C418 1.255 . S
O423 C403 1.259 . S
O423 Co404 2.021 . S
H424 C415 0.930 . S
H425 C414 0.931 . S
O426 Co402 2.117 . S
O426 C403 1.258 . S
O427 Co402 2.020 . S
O427 C429 1.256 . S
O428 Co404 2.062 . S
O428 C429 1.255 . S
C429 O427 1.256 . S
C429 O428 1.255 . S
H430 C409 0.931 . S
H431 C417 0.931 . S
Co432 N437 2.057 1_545 S
Co432 O449 2.021 . S
Co432 O452 2.062 . S
Co432 O456 2.117 . S
Co432 O457 2.020 1_455 S
C433 O453 1.259 . S
C433 O456 1.258 . S
Co434 N443 2.057 . S
Co434 O450 2.117 . S
Co434 O451 2.020 . S
Co434 O453 2.021 . S
Co434 O458 2.062 1_455 S
C435 N437 1.316 . S
C435 N438 1.347 . S
C435 H440 0.931 . S
C436 N437 1.375 1_655 S
C436 C439 1.350 . S
C436 H441 0.930 . S
N437 Co432 2.057 1_565 S
N437 C435 1.316 . S
N437 C436 1.375 1_455 S
N438 C435 1.347 . S
N438 C439 1.373 1_455 S
C439 C436 1.350 . S
C439 N438 1.373 1_655 S
C439 H460 0.931 . S
H440 C435 0.931 . S
H441 C436 0.930 . S
C442 O449 1.259 . S
C442 O450 1.258 . S
N443 Co434 2.057 . S
N443 C444 1.316 . S
N443 C445 1.375 . S
C444 N443 1.316 . S
C444 N446 1.347 . S
C444 H455 0.931 . S
C445 N443 1.375 . S
C445 C447 1.350 . S
C445 H454 0.930 . S
N446 C444 1.347 . S
N446 C447 1.373 . S
C447 C445 1.350 . S
C447 N446 1.373 . S
C447 H461 0.931 . S
C448 O451 1.256 . S
C448 O452 1.255 . S
O449 Co432 2.021 . S
O449 C442 1.259 . S
O450 Co434 2.117 . S
O450 C442 1.258 . S
O451 Co434 2.020 . S
O451 C448 1.256 . S
O452 Co432 2.062 . S
O452 C448 1.255 . S
O453 C433 1.259 . S
O453 Co434 2.021 . S
H454 C445 0.930 . S
H455 C444 0.931 . S
O456 Co432 2.117 . S
O456 C433 1.258 . S
O457 Co432 2.020 1_655 S
O457 C459 1.256 . S
O458 Co434 2.062 1_655 S
O458 C459 1.255 . S
C459 O457 1.256 . S
C459 O458 1.255 . S
H460 C439 0.931 . S
H461 C447 0.931 . S
Co462 N467 2.057 . S
Co462 O479 2.021 . S
Co462 O482 2.062 . S
Co462 O486 2.117 . S
Co462 O487 2.020 . S
C463 O483 1.259 . S
C463 O486 1.258 . S
Co464 N473 2.057 . S
Co464 O480 2.117 . S
Co464 O481 2.020 . S
Co464 O483 2.021 . S
Co464 O488 2.062 . S
C465 N467 1.316 . S
C465 N468 1.347 . S
C465 H470 0.931 . S
C466 N467 1.375 . S
C466 C469 1.350 . S
C466 H471 0.930 . S
N467 Co462 2.057 . S
N467 C465 1.316 . S
N467 C466 1.375 . S
N468 C465 1.347 . S
N468 C469 1.373 . S
C469 C466 1.350 . S
C469 N468 1.373 . S
C469 H490 0.931 . S
H470 C465 0.931 . S
H471 C466 0.930 . S
C472 O479 1.259 . S
C472 O480 1.258 . S
N473 Co464 2.057 . S
N473 C474 1.316 . S
N473 C475 1.375 . S
C474 N473 1.316 . S
C474 N476 1.347 . S
C474 H485 0.931 . S
C475 N473 1.375 . S
C475 C477 1.350 . S
C475 H484 0.930 . S
N476 C474 1.347 . S
N476 C477 1.373 . S
C477 C475 1.350 . S
C477 N476 1.373 . S
C477 H491 0.931 . S
C478 O481 1.256 . S
C478 O482 1.255 . S
O479 Co462 2.021 . S
O479 C472 1.259 . S
O480 Co464 2.117 . S
O480 C472 1.258 . S
O481 Co464 2.020 . S
O481 C478 1.256 . S
O482 Co462 2.062 . S
O482 C478 1.255 . S
O483 C463 1.259 . S
O483 Co464 2.021 . S
H484 C475 0.930 . S
H485 C474 0.931 . S
O486 Co462 2.117 . S
O486 C463 1.258 . S
O487 Co462 2.020 . S
O487 C489 1.256 . S
O488 Co464 2.062 . S
O488 C489 1.255 . S
C489 O487 1.256 . S
C489 O488 1.255 . S
H490 C469 0.931 . S
H491 C477 0.931 . S
Co492 N497 2.057 1_554 S
Co492 O509 2.021 . S
Co492 O512 2.062 1_554 S
Co492 O516 2.117 . S
Co492 O517 2.020 1_545 S
C493 O513 1.259 . S
C493 O516 1.258 . S
Co494 N503 2.057 . S
Co494 O510 2.117 . S
Co494 O511 2.020 . S
Co494 O513 2.021 . S
Co494 O518 2.062 . S
C495 N497 1.316 . S
C495 N498 1.347 . S
C495 H500 0.931 . S
C496 N497 1.375 . S
C496 C499 1.350 . S
C496 H501 0.930 . S
N497 Co492 2.057 1_556 S
N497 C495 1.316 . S
N497 C496 1.375 . S
N498 C495 1.347 . S
N498 C499 1.373 . S
C499 C496 1.350 . S
C499 N498 1.373 . S
C499 H520 0.931 . S
H500 C495 0.931 . S
H501 C496 0.930 . S
C502 O509 1.259 . S
C502 O510 1.258 . S
N503 Co494 2.057 . S
N503 C504 1.316 . S
N503 C505 1.375 . S
C504 N503 1.316 . S
C504 N506 1.347 . S
C504 H515 0.931 . S
C505 N503 1.375 . S
C505 C507 1.350 . S
C505 H514 0.930 . S
N506 C504 1.347 . S
N506 C507 1.373 . S
C507 C505 1.350 . S
C507 N506 1.373 . S
C507 H521 0.931 . S
C508 O511 1.256 . S
C508 O512 1.255 1_554 S
O509 Co492 2.021 . S
O509 C502 1.259 . S
O510 Co494 2.117 . S
O510 C502 1.258 . S
O511 Co494 2.020 . S
O511 C508 1.256 . S
O512 Co492 2.062 1_556 S
O512 C508 1.255 1_556 S
O513 C493 1.259 . S
O513 Co494 2.021 . S
H514 C505 0.930 . S
H515 C504 0.931 . S
O516 Co492 2.117 . S
O516 C493 1.258 . S
O517 Co492 2.020 1_565 S
O517 C519 1.256 . S
O518 Co494 2.062 . S
O518 C519 1.255 1_545 S
C519 O517 1.256 . S
C519 O518 1.255 1_565 S
H520 C499 0.931 . S
H521 C507 0.931 . S
Co522 N527 2.057 . S
Co522 O539 2.021 . S
Co522 O542 2.062 . S
Co522 O546 2.117 . S
Co522 O547 2.020 . S
C523 O543 1.259 . S
C523 O546 1.258 . S
Co524 N533 2.057 . S
Co524 O540 2.117 . S
Co524 O541 2.020 . S
Co524 O543 2.021 . S
Co524 O548 2.062 . S
C525 N527 1.316 . S
C525 N528 1.347 . S
C525 H530 0.931 . S
C526 N527 1.375 . S
C526 C529 1.350 . S
C526 H531 0.930 . S
N527 Co522 2.057 . S
N527 C525 1.316 . S
N527 C526 1.375 . S
N528 C525 1.347 . S
N528 C529 1.373 . S
C529 C526 1.350 . S
C529 N528 1.373 . S
C529 H550 0.931 . S
H530 C525 0.931 . S
H531 C526 0.930 . S
C532 O539 1.259 . S
C532 O540 1.258 . S
N533 Co524 2.057 . S
N533 C534 1.316 . S
N533 C535 1.375 . S
C534 N533 1.316 . S
C534 N536 1.347 . S
C534 H545 0.931 . S
C535 N533 1.375 . S
C535 C537 1.350 . S
C535 H544 0.930 . S
N536 C534 1.347 . S
N536 C537 1.373 . S
C537 C535 1.350 . S
C537 N536 1.373 . S
C537 H551 0.931 . S
C538 O541 1.256 . S
C538 O542 1.255 . S
O539 Co522 2.021 . S
O539 C532 1.259 . S
O540 Co524 2.117 . S
O540 C532 1.258 . S
O541 Co524 2.020 . S
O541 C538 1.256 . S
O542 Co522 2.062 . S
O542 C538 1.255 . S
O543 C523 1.259 . S
O543 Co524 2.021 . S
H544 C535 0.930 . S
H545 C534 0.931 . S
O546 Co522 2.117 . S
O546 C523 1.258 . S
O547 Co522 2.020 . S
O547 C549 1.256 . S
O548 Co524 2.062 . S
O548 C549 1.255 . S
C549 O547 1.256 . S
C549 O548 1.255 . S
H550 C529 0.931 . S
H551 C537 0.931 . S
Co552 N557 2.057 . S
Co552 O569 2.021 1_554 S
Co552 O572 2.062 . S
Co552 O576 2.117 . S
Co552 O577 2.020 . S
C553 O573 1.259 . S
C553 O576 1.258 . S
Co554 N563 2.057 . S
Co554 O570 2.117 1_554 S
Co554 O571 2.020 . S
Co554 O573 2.021 . S
Co554 O578 2.062 . S
C555 N557 1.316 1_556 S
C555 N558 1.354 . S
C555 H560 0.931 . S
C556 N557 1.375 . S
C556 C559 1.350 . S
C556 H561 0.930 . S
N557 Co552 2.057 . S
N557 C555 1.316 1_554 S
N557 C556 1.375 . S
N558 C555 1.354 . S
N558 C559 1.343 1_556 S
C559 C556 1.350 . S
C559 N558 1.343 1_554 S
C559 H580 0.931 . S
H560 C555 0.931 . S
H561 C556 0.930 . S
C562 O569 1.259 . S
C562 O570 1.258 . S
N563 Co554 2.057 . S
N563 C564 1.316 . S
N563 C565 1.375 . S
C564 N563 1.316 . S
C564 N566 1.347 . S
C564 H575 0.931 . S
C565 N563 1.375 . S
C565 C567 1.350 . S
C565 H574 0.930 . S
N566 C564 1.347 . S
N566 C567 1.373 . S
C567 C565 1.350 . S
C567 N566 1.373 . S
C567 H581 0.931 . S
C568 O571 1.256 . S
C568 O572 1.255 . S
O569 Co552 2.021 1_556 S
O569 C562 1.259 . S
O570 Co554 2.117 1_556 S
O570 C562 1.258 . S
O571 Co554 2.020 . S
O571 C568 1.256 . S
O572 Co552 2.062 . S
O572 C568 1.255 . S
O573 C553 1.259 . S
O573 Co554 2.021 . S
H574 C565 0.930 . S
H575 C564 0.931 . S
O576 Co552 2.117 . S
O576 C553 1.258 . S
O577 Co552 2.020 . S
O577 C579 1.256 . S
O578 Co554 2.062 . S
O578 C579 1.255 . S
C579 O577 1.256 . S
C579 O578 1.255 . S
H580 C559 0.931 . S
H581 C567 0.931 . S
Co582 N587 2.057 . S
Co582 O599 2.021 . S
Co582 O602 2.062 . S
Co582 O606 2.117 . S
Co582 O607 2.020 . S
C583 O603 1.259 . S
C583 O606 1.258 . S
Co584 N593 2.057 . S
Co584 O600 2.117 . S
Co584 O601 2.020 . S
Co584 O603 2.021 . S
Co584 O608 2.062 . S
C585 N587 1.316 . S
C585 N588 1.347 . S
C585 H590 0.931 . S
C586 N587 1.375 . S
C586 C589 1.350 . S
C586 H591 0.930 . S
N587 Co582 2.057 . S
N587 C585 1.316 . S
N587 C586 1.375 . S
N588 C585 1.347 . S
N588 C589 1.373 . S
C589 C586 1.350 . S
C589 N588 1.373 . S
C589 H610 0.931 . S
H590 C585 0.931 . S
H591 C586 0.930 . S
C592 O599 1.259 . S
C592 O600 1.258 . S
N593 Co584 2.057 . S
N593 C594 1.316 . S
N593 C595 1.375 . S
C594 N593 1.316 . S
C594 N596 1.347 . S
C594 H605 0.931 . S
C595 N593 1.375 . S
C595 C597 1.350 . S
C595 H604 0.930 . S
N596 C594 1.347 . S
N596 C597 1.373 . S
C597 C595 1.350 . S
C597 N596 1.373 . S
C597 H611 0.931 . S
C598 O601 1.256 . S
C598 O602 1.255 . S
O599 Co582 2.021 . S
O599 C592 1.259 . S
O600 Co584 2.117 . S
O600 C592 1.258 . S
O601 Co584 2.020 . S
O601 C598 1.256 . S
O602 Co582 2.062 . S
O602 C598 1.255 . S
O603 C583 1.259 . S
O603 Co584 2.021 . S
H604 C595 0.930 . S
H605 C594 0.931 . S
O606 Co582 2.117 . S
O606 C583 1.258 . S
O607 Co582 2.020 . S
O607 C609 1.256 . S
O608 Co584 2.062 . S
O608 C609 1.255 . S
C609 O607 1.256 . S
C609 O608 1.255 . S
H610 C589 0.931 . S
H611 C597 0.931 . S
Co612 N617 2.057 . S
Co612 O629 2.021 1_455 S
Co612 O632 2.062 . S
Co612 O636 2.117 . S
Co612 O637 2.020 . S
C613 O633 1.259 . S
C613 O636 1.258 . S
Co614 N623 2.057 . S
Co614 O630 2.117 1_455 S
Co614 O631 2.020 . S
Co614 O633 2.021 . S
Co614 O638 2.062 . S
C615 N617 1.316 1_655 S
C615 N618 1.347 . S
C615 H620 0.931 . S
C616 N617 1.375 . S
C616 C619 1.350 . S
C616 H621 0.930 . S
N617 Co612 2.057 . S
N617 C615 1.316 1_455 S
N617 C616 1.375 . S
N618 C615 1.347 . S
N618 C619 1.373 1_655 S
C619 C616 1.350 . S
C619 N618 1.373 1_455 S
C619 H640 0.931 . S
H620 C615 0.931 . S
H621 C616 0.930 . S
C622 O629 1.259 . S
C622 O630 1.258 . S
N623 Co614 2.057 . S
N623 C624 1.316 . S
N623 C625 1.375 . S
C624 N623 1.316 . S
C624 N626 1.347 . S
C624 H635 0.931 . S
C625 N623 1.375 . S
C625 C627 1.350 . S
C625 H634 0.930 . S
N626 C624 1.347 . S
N626 C627 1.373 . S
C627 C625 1.350 . S
C627 N626 1.373 . S
C627 H641 0.931 . S
C628 O631 1.256 . S
C628 O632 1.255 . S
O629 Co612 2.021 1_655 S
O629 C622 1.259 . S
O630 Co614 2.117 1_655 S
O630 C622 1.258 . S
O631 Co614 2.020 . S
O631 C628 1.256 . S
O632 Co612 2.062 . S
O632 C628 1.255 . S
O633 C613 1.259 . S
O633 Co614 2.021 . S
H634 C625 0.930 . S
H635 C624 0.931 . S
O636 Co612 2.117 . S
O636 C613 1.258 . S
O637 Co612 2.020 . S
O637 C639 1.256 . S
O638 Co614 2.062 . S
O638 C639 1.255 . S
C639 O637 1.256 . S
C639 O638 1.255 . S
H640 C619 0.931 . S
H641 C627 0.931 . S
Co642 N647 2.057 . S
Co642 O659 2.021 . S
Co642 O662 2.062 . S
Co642 O666 2.117 . S
Co642 O667 2.020 . S
C643 O663 1.259 . S
C643 O666 1.258 . S
Co644 N653 2.057 . S
Co644 O660 2.117 . S
Co644 O661 2.020 . S
Co644 O663 2.021 . S
Co644 O668 2.062 . S
C645 N647 1.316 . S
C645 N648 1.347 . S
C645 H650 0.931 . S
C646 N647 1.375 . S
C646 C649 1.350 . S
C646 H651 0.930 . S
N647 Co642 2.057 . S
N647 C645 1.316 . S
N647 C646 1.375 . S
N648 C645 1.347 . S
N648 C649 1.373 . S
C649 C646 1.350 . S
C649 N648 1.373 . S
C649 H670 0.931 . S
H650 C645 0.931 . S
H651 C646 0.930 . S
C652 O659 1.259 . S
C652 O660 1.258 . S
N653 Co644 2.057 . S
N653 C654 1.316 . S
N653 C655 1.375 . S
C654 N653 1.316 . S
C654 N656 1.347 . S
C654 H665 0.931 . S
C655 N653 1.375 . S
C655 C657 1.350 . S
C655 H664 0.930 . S
N656 C654 1.347 . S
N656 C657 1.373 . S
C657 C655 1.350 . S
C657 N656 1.373 . S
C657 H671 0.931 . S
C658 O661 1.256 . S
C658 O662 1.255 . S
O659 Co642 2.021 . S
O659 C652 1.259 . S
O660 Co644 2.117 . S
O660 C652 1.258 . S
O661 Co644 2.020 . S
O661 C658 1.256 . S
O662 Co642 2.062 . S
O662 C658 1.255 . S
O663 C643 1.259 . S
O663 Co644 2.021 . S
H664 C655 0.930 . S
H665 C654 0.931 . S
O666 Co642 2.117 . S
O666 C643 1.258 . S
O667 Co642 2.020 . S
O667 C669 1.256 . S
O668 Co644 2.062 . S
O668 C669 1.255 . S
C669 O667 1.256 . S
C669 O668 1.255 . S
H670 C649 0.931 . S
H671 C657 0.931 . S
Co672 N677 2.057 . S
Co672 O689 2.021 . S
Co672 O692 2.062 . S
Co672 O696 2.117 . S
Co672 O697 2.020 . S
C673 O693 1.259 . S
C673 O696 1.258 . S
Co674 N683 2.057 . S
Co674 O690 2.117 . S
Co674 O691 2.020 . S
Co674 O693 2.021 . S
Co674 O698 2.062 . S
C675 N677 1.316 . S
C675 N678 1.347 . S
C675 H680 0.931 . S
C676 N677 1.375 . S
C676 C679 1.350 . S
C676 H681 0.930 . S
N677 Co672 2.057 . S
N677 C675 1.316 . S
N677 C676 1.375 . S
N678 C675 1.347 . S
N678 C679 1.373 . S
C679 C676 1.350 . S
C679 N678 1.373 . S
C679 H700 0.931 . S
H680 C675 0.931 . S
H681 C676 0.930 . S
C682 O689 1.259 . S
C682 O690 1.258 . S
N683 Co674 2.057 . S
N683 C684 1.316 . S
N683 C685 1.375 . S
C684 N683 1.316 . S
C684 N686 1.347 . S
C684 H695 0.931 . S
C685 N683 1.375 . S
C685 C687 1.350 . S
C685 H694 0.930 . S
N686 C684 1.347 . S
N686 C687 1.373 . S
C687 C685 1.350 . S
C687 N686 1.373 . S
C687 H701 0.931 . S
C688 O691 1.256 . S
C688 O692 1.255 . S
O689 Co672 2.021 . S
O689 C682 1.259 . S
O690 Co674 2.117 . S
O690 C682 1.258 . S
O691 Co674 2.020 . S
O691 C688 1.256 . S
O692 Co672 2.062 . S
O692 C688 1.255 . S
O693 C673 1.259 . S
O693 Co674 2.021 . S
H694 C685 0.930 . S
H695 C684 0.931 . S
O696 Co672 2.117 . S
O696 C673 1.258 . S
O697 Co672 2.020 . S
O697 C699 1.256 . S
O698 Co674 2.062 . S
O698 C699 1.255 . S
C699 O697 1.256 . S
C699 O698 1.255 . S
H700 C679 0.931 . S
H701 C687 0.931 . S
Co702 N707 2.057 . S
Co702 O719 2.021 . S
Co702 O722 2.062 . S
Co702 O726 2.117 . S
Co702 O727 2.020 . S
C703 O723 1.259 . S
C703 O726 1.258 . S
Co704 N713 2.057 . S
Co704 O720 2.117 . S
Co704 O721 2.020 . S
Co704 O723 2.021 . S
Co704 O728 2.062 . S
C705 N707 1.316 . S
C705 N708 1.347 . S
C705 H710 0.931 . S
C706 N707 1.375 . S
C706 C709 1.350 . S
C706 H711 0.930 . S
N707 Co702 2.057 . S
N707 C705 1.316 . S
N707 C706 1.375 . S
N708 C705 1.347 . S
N708 C709 1.373 . S
C709 C706 1.350 . S
C709 N708 1.373 . S
C709 H730 0.931 . S
H710 C705 0.931 . S
H711 C706 0.930 . S
C712 O719 1.259 . S
C712 O720 1.258 . S
N713 Co704 2.057 . S
N713 C714 1.316 . S
N713 C715 1.375 . S
C714 N713 1.316 . S
C714 N716 1.347 . S
C714 H725 0.931 . S
C715 N713 1.375 . S
C715 C717 1.350 . S
C715 H724 0.930 . S
N716 C714 1.347 . S
N716 C717 1.373 . S
C717 C715 1.350 . S
C717 N716 1.373 . S
C717 H731 0.931 . S
C718 O721 1.256 . S
C718 O722 1.255 . S
O719 Co702 2.021 . S
O719 C712 1.259 . S
O720 Co704 2.117 . S
O720 C712 1.258 . S
O721 Co704 2.020 . S
O721 C718 1.256 . S
O722 Co702 2.062 . S
O722 C718 1.255 . S
O723 C703 1.259 . S
O723 Co704 2.021 . S
H724 C715 0.930 . S
H725 C714 0.931 . S
O726 Co702 2.117 . S
O726 C703 1.258 . S
O727 Co702 2.020 . S
O727 C729 1.256 . S
O728 Co704 2.062 . S
O728 C729 1.255 . S
C729 O727 1.256 . S
C729 O728 1.255 . S
H730 C709 0.931 . S
H731 C717 0.931 . S
Co732 N737 2.057 . S
Co732 O749 2.021 . S
Co732 O752 2.062 . S
Co732 O756 2.117 . S
Co732 O757 2.020 . S
C733 O753 1.259 . S
C733 O756 1.258 . S
Co734 N743 2.057 . S
Co734 O750 2.117 . S
Co734 O751 2.020 . S
Co734 O753 2.021 . S
Co734 O758 2.062 . S
C735 N737 1.316 . S
C735 N738 1.347 . S
C735 H740 0.931 . S
C736 N737 1.375 . S
C736 C739 1.350 . S
C736 H741 0.930 . S
N737 Co732 2.057 . S
N737 C735 1.316 . S
N737 C736 1.375 . S
N738 C735 1.347 . S
N738 C739 1.373 . S
C739 C736 1.350 . S
C739 N738 1.373 . S
C739 H760 0.931 . S
H740 C735 0.931 . S
H741 C736 0.930 . S
C742 O749 1.259 . S
C742 O750 1.258 . S
N743 Co734 2.057 . S
N743 C744 1.316 . S
N743 C745 1.375 . S
C744 N743 1.316 . S
C744 N746 1.347 . S
C744 H755 0.931 . S
C745 N743 1.375 . S
C745 C747 1.350 . S
C745 H754 0.930 . S
N746 C744 1.347 . S
N746 C747 1.373 . S
C747 C745 1.350 . S
C747 N746 1.373 . S
C747 H761 0.931 . S
C748 O751 1.256 . S
C748 O752 1.255 . S
O749 Co732 2.021 . S
O749 C742 1.259 . S
O750 Co734 2.117 . S
O750 C742 1.258 . S
O751 Co734 2.020 . S
O751 C748 1.256 . S
O752 Co732 2.062 . S
O752 C748 1.255 . S
O753 C733 1.259 . S
O753 Co734 2.021 . S
H754 C745 0.930 . S
H755 C744 0.931 . S
O756 Co732 2.117 . S
O756 C733 1.258 . S
O757 Co732 2.020 . S
O757 C759 1.256 . S
O758 Co734 2.062 . S
O758 C759 1.255 . S
C759 O757 1.256 . S
C759 O758 1.255 . S
H760 C739 0.931 . S
H761 C747 0.931 . S
Co762 N767 2.057 1_455 S
Co762 O779 2.021 . S
Co762 O782 2.062 1_455 S
Co762 O786 2.117 . S
Co762 O787 2.020 1_554 S
C763 O783 1.259 . S
C763 O786 1.258 . S
Co764 N773 2.057 . S
Co764 O780 2.117 . S
Co764 O781 2.020 . S
Co764 O783 2.021 . S
Co764 O788 2.062 1_554 S
C765 N767 1.316 . S
C765 N768 1.347 . S
C765 H770 0.931 . S
C766 N767 1.372 1_556 S
C766 C769 1.349 . S
C766 H771 0.932 . S
N767 Co762 2.057 1_655 S
N767 C765 1.316 . S
N767 C766 1.372 1_554 S
N768 C765 1.347 . S
N768 C769 1.357 1_554 S
C769 C766 1.349 . S
C769 N768 1.357 1_556 S
C769 H790 0.947 . S
H770 C765 0.931 . S
H771 C766 0.932 . S
C772 O779 1.259 . S
C772 O780 1.258 . S
N773 Co764 2.057 . S
N773 C774 1.316 . S
N773 C775 1.375 . S
C774 N773 1.316 . S
C774 N776 1.347 . S
C774 H785 0.931 . S
C775 N773 1.375 . S
C775 C777 1.350 . S
C775 H784 0.930 . S
N776 C774 1.347 . S
N776 C777 1.373 . S
C777 C775 1.350 . S
C777 N776 1.373 . S
C777 H791 0.931 . S
C778 O781 1.256 . S
C778 O782 1.255 1_455 S
O779 Co762 2.021 . S
O779 C772 1.259 . S
O780 Co764 2.117 . S
O780 C772 1.258 . S
O781 Co764 2.020 . S
O781 C778 1.256 . S
O782 Co762 2.062 1_655 S
O782 C778 1.255 1_655 S
O783 C763 1.259 . S
O783 Co764 2.021 . S
H784 C775 0.930 . S
H785 C774 0.931 . S
O786 Co762 2.117 . S
O786 C763 1.258 . S
O787 Co762 2.020 1_556 S
O787 C789 1.256 . S
O788 Co764 2.062 1_556 S
O788 C789 1.255 . S
C789 O787 1.256 . S
C789 O788 1.255 . S
H790 C769 0.947 . S
H791 C777 0.931 . S
H792 C800 0.958 . S
H793 C805 0.950 . S
H794 C802 0.950 1_655 S
H795 C804 0.950 . S
H796 C806 0.950 . S
H797 C808 0.950 . S
H798 C810 0.939 1_655 S
H799 C811 0.950 . S
C800 H792 0.958 . S
C800 C801 1.386 . S
C800 C802 1.391 . S
C801 C800 1.386 . S
C801 C805 1.393 . S
C802 H794 0.950 1_455 S
C802 C800 1.391 . S
C802 C803 1.400 . S
C803 C802 1.400 . S
C803 C804 1.398 . S
C803 C809 1.491 . S
C804 H795 0.950 . S
C804 C803 1.398 . S
C804 C805 1.391 . S
C805 H793 0.950 . S
C805 C801 1.393 . S
C805 C804 1.391 . S
C806 H796 0.950 . S
C806 C807 1.386 . S
C806 C808 1.391 . S
C807 C806 1.386 . S
C807 C811 1.393 1_455 S
C808 H797 0.950 . S
C808 C806 1.391 . S
C808 C809 1.400 . S
C809 C803 1.491 . S
C809 C808 1.400 . S
C809 C810 1.411 . S
C810 H798 0.939 1_455 S
C810 C809 1.411 . S
C810 C811 1.388 1_455 S
C811 H799 0.950 . S
C811 C807 1.393 1_655 S
C811 C810 1.388 1_655 S
H812 C820 0.950 . S
H813 C825 0.950 . S
H814 C822 0.950 . S
H815 C824 0.950 . S
H816 C826 0.950 . S
H817 C828 0.950 . S
H818 C830 0.950 . S
H819 C831 0.950 . S
C820 H812 0.950 . S
C820 C821 1.386 . S
C820 C822 1.391 . S
C821 C820 1.386 . S
C821 C825 1.393 . S
C822 H814 0.950 . S
C822 C820 1.391 . S
C822 C823 1.400 . S
C823 C822 1.400 . S
C823 C824 1.398 . S
C823 C829 1.491 . S
C824 H815 0.950 . S
C824 C823 1.398 . S
C824 C825 1.391 . S
C825 H813 0.950 . S
C825 C821 1.393 . S
C825 C824 1.391 . S
C826 H816 0.950 . S
C826 C827 1.386 . S
C826 C828 1.391 . S
C827 C826 1.386 . S
C827 C831 1.393 . S
C828 H817 0.950 . S
C828 C826 1.391 . S
C828 C829 1.400 . S
C829 C823 1.491 . S
C829 C828 1.400 . S
C829 C830 1.398 . S
C830 H818 0.950 . S
C830 C829 1.398 . S
C830 C831 1.391 . S
C831 H819 0.950 . S
C831 C827 1.393 . S
C831 C830 1.391 . S
H832 C840 0.950 . S
H833 C845 0.950 . S
H834 C842 0.950 . S
H835 C844 0.950 . S
H836 C846 0.950 . S
H837 C848 0.950 . S
H838 C850 0.950 . S
H839 C851 0.950 . S
C840 H832 0.950 . S
C840 C841 1.386 . S
C840 C842 1.391 . S
C841 C840 1.386 . S
C841 C845 1.393 . S
C842 H834 0.950 . S
C842 C840 1.391 . S
C842 C843 1.400 . S
C843 C842 1.400 . S
C843 C844 1.398 . S
C843 C849 1.491 . S
C844 H835 0.950 . S
C844 C843 1.398 . S
C844 C845 1.391 . S
C845 H833 0.950 . S
C845 C841 1.393 . S
C845 C844 1.391 . S
C846 H836 0.950 . S
C846 C847 1.386 . S
C846 C848 1.391 . S
C847 C846 1.386 . S
C847 C851 1.393 . S
C848 H837 0.950 . S
C848 C846 1.391 . S
C848 C849 1.400 . S
C849 C843 1.491 . S
C849 C848 1.400 . S
C849 C850 1.398 . S
C850 H838 0.950 . S
C850 C849 1.398 . S
C850 C851 1.391 . S
C851 H839 0.950 . S
C851 C847 1.393 . S
C851 C850 1.391 . S
H852 C860 0.950 . S
H853 C865 0.950 . S
H854 C862 0.950 . S
H855 C864 0.950 . S
H856 C866 0.950 . S
H857 C868 0.950 . S
H858 C870 0.950 . S
H859 C871 0.950 . S
C860 H852 0.950 . S
C860 C861 1.386 . S
C860 C862 1.391 . S
C861 C860 1.386 . S
C861 C865 1.393 . S
C862 H854 0.950 . S
C862 C860 1.391 . S
C862 C863 1.400 . S
C863 C862 1.400 . S
C863 C864 1.398 . S
C863 C869 1.491 . S
C864 H855 0.950 . S
C864 C863 1.398 . S
C864 C865 1.391 . S
C865 H853 0.950 . S
C865 C861 1.393 . S
C865 C864 1.391 . S
C866 H856 0.950 . S
C866 C867 1.386 . S
C866 C868 1.391 . S
C867 C866 1.386 . S
C867 C871 1.393 . S
C868 H857 0.950 . S
C868 C866 1.391 . S
C868 C869 1.400 . S
C869 C863 1.491 . S
C869 C868 1.400 . S
C869 C870 1.398 . S
C870 H858 0.950 . S
C870 C869 1.398 . S
C870 C871 1.391 . S
C871 H859 0.950 . S
C871 C867 1.393 . S
C871 C870 1.391 . S
H872 C880 0.950 . S
H873 C885 0.950 . S
H874 C882 0.950 . S
H875 C884 0.950 . S
H876 C886 0.950 . S
H877 C888 0.950 . S
H878 C890 0.950 1_655 S
H879 C891 0.950 . S
C880 H872 0.950 . S
C880 C881 1.386 . S
C880 C882 1.391 . S
C881 C880 1.386 . S
C881 C885 1.393 . S
C882 H874 0.950 . S
C882 C880 1.391 . S
C882 C883 1.400 . S
C883 C882 1.400 . S
C883 C884 1.398 . S
C883 C889 1.491 . S
C884 H875 0.950 . S
C884 C883 1.398 . S
C884 C885 1.391 . S
C885 H873 0.950 . S
C885 C881 1.393 . S
C885 C884 1.391 . S
C886 H876 0.950 . S
C886 C887 1.386 . S
C886 C888 1.391 . S
C887 C886 1.386 . S
C887 C891 1.393 1_455 S
C888 H877 0.950 . S
C888 C886 1.391 . S
C888 C889 1.400 . S
C889 C883 1.491 . S
C889 C888 1.400 . S
C889 C890 1.398 . S
C890 H878 0.950 1_455 S
C890 C889 1.398 . S
C890 C891 1.391 1_455 S
C891 H879 0.950 . S
C891 C887 1.393 1_655 S
C891 C890 1.391 1_655 S
H892 C900 0.950 . S
H893 C905 0.950 . S
H894 C902 0.950 . S
H895 C904 0.950 . S
H896 C906 0.950 . S
H897 C908 0.950 . S
H898 C910 0.950 . S
H899 C911 0.950 . S
C900 H892 0.950 . S
C900 C901 1.386 . S
C900 C902 1.391 . S
C901 C900 1.386 . S
C901 C905 1.393 . S
C902 H894 0.950 . S
C902 C900 1.391 . S
C902 C903 1.400 . S
C903 C902 1.400 . S
C903 C904 1.398 . S
C903 C909 1.491 . S
C904 H895 0.950 . S
C904 C903 1.398 . S
C904 C905 1.391 . S
C905 H893 0.950 . S
C905 C901 1.393 . S
C905 C904 1.391 . S
C906 H896 0.950 . S
C906 C907 1.386 . S
C906 C908 1.391 . S
C907 C906 1.386 . S
C907 C911 1.393 . S
C908 H897 0.950 . S
C908 C906 1.391 . S
C908 C909 1.400 . S
C909 C903 1.491 . S
C909 C908 1.400 . S
C909 C910 1.398 . S
C910 H898 0.950 . S
C910 C909 1.398 . S
C910 C911 1.391 . S
C911 H899 0.950 . S
C911 C907 1.393 . S
C911 C910 1.391 . S
H912 C920 0.950 . S
H913 C925 0.950 . S
H914 C922 0.950 . S
H915 C924 0.950 . S
H916 C926 0.950 . S
H917 C928 0.941 1_554 S
H918 C930 0.950 . S
H919 C931 0.950 . S
C920 H912 0.950 . S
C920 C921 1.386 . S
C920 C922 1.391 . S
C921 C920 1.386 . S
C921 C925 1.393 . S
C922 H914 0.950 . S
C922 C920 1.391 . S
C922 C923 1.400 . S
C923 C922 1.400 . S
C923 C924 1.398 . S
C923 C929 1.491 . S
C924 H915 0.950 . S
C924 C923 1.398 . S
C924 C925 1.391 . S
C925 H913 0.950 . S
C925 C921 1.393 . S
C925 C924 1.391 . S
C926 H916 0.950 . S
C926 C927 1.393 . S
C926 C928 1.391 1_554 S
C927 C926 1.393 . S
C927 C931 1.375 1_554 S
C928 H917 0.941 1_556 S
C928 C926 1.391 1_556 S
C928 C929 1.400 . S
C929 C923 1.491 . S
C929 C928 1.400 . S
C929 C930 1.398 . S
C930 H918 0.950 . S
C930 C929 1.398 . S
C930 C931 1.391 . S
C931 H919 0.950 . S
C931 C927 1.375 1_556 S
C931 C930 1.391 . S
H932 C940 0.950 . S
H933 C945 0.950 . S
H934 C942 0.950 . S
H935 C944 0.950 . S
H936 C946 0.950 . S
H937 C948 0.950 . S
H938 C950 0.950 . S
H939 C951 0.950 . S
C940 H932 0.950 . S
C940 C941 1.386 . S
C940 C942 1.391 . S
C941 C940 1.386 . S
C941 C945 1.393 . S
C942 H934 0.950 . S
C942 C940 1.391 . S
C942 C943 1.400 . S
C943 C942 1.400 . S
C943 C944 1.398 . S
C943 C949 1.491 . S
C944 H935 0.950 . S
C944 C943 1.398 . S
C944 C945 1.391 . S
C945 H933 0.950 . S
C945 C941 1.393 . S
C945 C944 1.391 . S
C946 H936 0.950 . S
C946 C947 1.386 . S
C946 C948 1.391 . S
C947 C946 1.386 . S
C947 C951 1.393 . S
C948 H937 0.950 . S
C948 C946 1.391 . S
C948 C949 1.400 . S
C949 C943 1.491 . S
C949 C948 1.400 . S
C949 C950 1.398 . S
C950 H938 0.950 . S
C950 C949 1.398 . S
C950 C951 1.391 . S
C951 H939 0.950 . S
C951 C947 1.393 . S
C951 C950 1.391 . S
H952 C960 0.955 . S
H953 C965 0.950 . S
H954 C962 0.946 1_565 S
H955 C964 0.950 . S
H956 C966 0.950 . S
H957 C968 0.950 . S
H958 C970 0.960 . S
H959 C971 0.950 1_565 S
C960 H952 0.955 . S
C960 C961 1.386 . S
C960 C962 1.391 . S
C961 C960 1.386 . S
C961 C965 1.393 . S
C962 H954 0.946 1_545 S
C962 C960 1.391 . S
C962 C963 1.400 . S
C963 C962 1.400 . S
C963 C964 1.398 . S
C963 C969 1.491 . S
C964 H955 0.950 . S
C964 C963 1.398 . S
C964 C965 1.391 . S
C965 H953 0.950 . S
C965 C961 1.393 . S
C965 C964 1.391 . S
C966 H956 0.950 . S
C966 C967 1.386 . S
C966 C968 1.391 . S
C967 C966 1.386 . S
C967 C971 1.393 . S
C968 H957 0.950 . S
C968 C966 1.391 . S
C968 C969 1.400 . S
C969 C963 1.491 . S
C969 C968 1.400 . S
C969 C970 1.398 . S
C970 H958 0.960 . S
C970 C969 1.398 . S
C970 C971 1.391 . S
C971 H959 0.950 1_545 S
C971 C967 1.393 . S
C971 C970 1.391 . S
H972 C980 0.950 . S
H973 C985 0.950 . S
H974 C982 0.950 . S
H975 C984 0.950 . S
H976 C986 0.950 . S
H977 C988 0.950 . S
H978 C990 0.950 . S
H979 C991 0.950 . S
C980 H972 0.950 . S
C980 C981 1.386 . S
C980 C982 1.391 . S
C981 C980 1.386 . S
C981 C985 1.393 . S
C982 H974 0.950 . S
C982 C980 1.391 . S
C982 C983 1.400 . S
C983 C982 1.400 . S
C983 C984 1.398 . S
C983 C989 1.491 . S
C984 H975 0.950 . S
C984 C983 1.398 . S
C984 C985 1.391 . S
C985 H973 0.950 . S
C985 C981 1.393 . S
C985 C984 1.391 . S
C986 H976 0.950 . S
C986 C987 1.386 . S
C986 C988 1.391 . S
C987 C986 1.386 . S
C987 C991 1.393 . S
C988 H977 0.950 . S
C988 C986 1.391 . S
C988 C989 1.400 . S
C989 C983 1.491 . S
C989 C988 1.400 . S
C989 C990 1.398 . S
C990 H978 0.950 . S
C990 C989 1.398 . S
C990 C991 1.391 . S
C991 H979 0.950 . S
C991 C987 1.393 . S
C991 C990 1.391 . S
H992 C1000 0.950 . S
H993 C1005 0.950 . S
H994 C1002 0.950 . S
H995 C1004 0.950 . S
H996 C1006 0.950 . S
H997 C1008 0.950 . S
H998 C1010 0.950 . S
H999 C1011 0.950 . S
C1000 H992 0.950 . S
C1000 C1001 1.386 . S
C1000 C1002 1.391 . S
C1001 C1000 1.386 . S
C1001 C1005 1.393 . S
C1002 H994 0.950 . S
C1002 C1000 1.391 . S
C1002 C1003 1.400 . S
C1003 C1002 1.400 . S
C1003 C1004 1.398 . S
C1003 C1009 1.491 . S
C1004 H995 0.950 . S
C1004 C1003 1.398 . S
C1004 C1005 1.391 . S
C1005 H993 0.950 . S
C1005 C1001 1.393 . S
C1005 C1004 1.391 . S
C1006 H996 0.950 . S
C1006 C1007 1.386 . S
C1006 C1008 1.391 . S
C1007 C1006 1.386 . S
C1007 C1011 1.393 . S
C1008 H997 0.950 . S
C1008 C1006 1.391 . S
C1008 C1009 1.400 . S
C1009 C1003 1.491 . S
C1009 C1008 1.400 . S
C1009 C1010 1.398 . S
C1010 H998 0.950 . S
C1010 C1009 1.398 . S
C1010 C1011 1.391 . S
C1011 H999 0.950 . S
C1011 C1007 1.393 . S
C1011 C1010 1.391 . S
H1012 C1020 0.950 . S
H1013 C1025 0.950 . S
H1014 C1022 0.950 . S
H1015 C1024 0.950 . S
H1016 C1026 0.950 . S
H1017 C1028 0.950 . S
H1018 C1030 0.950 . S
H1019 C1031 0.950 . S
C1020 H1012 0.950 . S
C1020 C1021 1.386 . S
C1020 C1022 1.391 . S
C1021 C1020 1.386 . S
C1021 C1025 1.393 . S
C1022 H1014 0.950 . S
C1022 C1020 1.391 . S
C1022 C1023 1.400 . S
C1023 C1022 1.400 . S
C1023 C1024 1.398 . S
C1023 C1029 1.491 . S
C1024 H1015 0.950 . S
C1024 C1023 1.398 . S
C1024 C1025 1.391 . S
C1025 H1013 0.950 . S
C1025 C1021 1.393 . S
C1025 C1024 1.391 . S
C1026 H1016 0.950 . S
C1026 C1027 1.386 . S
C1026 C1028 1.391 . S
C1027 C1026 1.386 . S
C1027 C1031 1.393 . S
C1028 H1017 0.950 . S
C1028 C1026 1.391 . S
C1028 C1029 1.400 . S
C1029 C1023 1.491 . S
C1029 C1028 1.400 . S
C1029 C1030 1.398 . S
C1030 H1018 0.950 . S
C1030 C1029 1.398 . S
C1030 C1031 1.391 . S
C1031 H1019 0.950 . S
C1031 C1027 1.393 . S
C1031 C1030 1.391 . S
H1032 C1040 0.950 . S
H1033 C1045 0.950 . S
H1034 C1042 0.950 . S
H1035 C1044 0.950 . S
H1036 C1046 0.950 . S
H1037 C1048 0.950 1_565 S
H1038 C1050 0.950 . S
H1039 C1051 0.950 . S
C1040 H1032 0.950 . S
C1040 C1041 1.386 . S
C1040 C1042 1.391 . S
C1041 C1040 1.386 . S
C1041 C1045 1.393 1_545 S
C1042 H1034 0.950 . S
C1042 C1040 1.391 . S
C1042 C1043 1.400 . S
C1043 C1042 1.400 . S
C1043 C1044 1.398 1_545 S
C1043 C1049 1.491 . S
C1044 H1035 0.950 . S
C1044 C1043 1.398 1_565 S
C1044 C1045 1.391 . S
C1045 H1033 0.950 . S
C1045 C1041 1.393 1_565 S
C1045 C1044 1.391 . S
C1046 H1036 0.950 . S
C1046 C1047 1.386 . S
C1046 C1048 1.391 . S
C1047 C1046 1.386 . S
C1047 C1051 1.393 . S
C1048 H1037 0.950 1_545 S
C1048 C1046 1.391 . S
C1048 C1049 1.400 . S
C1049 C1043 1.491 . S
C1049 C1048 1.400 . S
C1049 C1050 1.398 . S
C1050 H1038 0.950 . S
C1050 C1049 1.398 . S
C1050 C1051 1.391 . S
C1051 H1039 0.950 . S
C1051 C1047 1.393 . S
C1051 C1050 1.391 . S
H1052 C1060 0.950 . S
H1053 C1065 0.950 . S
H1054 C1062 0.950 . S
H1055 C1064 0.950 . S
H1056 C1066 0.950 . S
H1057 C1068 0.950 . S
H1058 C1070 0.950 . S
H1059 C1071 0.950 . S
C1060 H1052 0.950 . S
C1060 C1061 1.386 . S
C1060 C1062 1.391 . S
C1061 C1060 1.386 . S
C1061 C1065 1.393 . S
C1062 H1054 0.950 . S
C1062 C1060 1.391 . S
C1062 C1063 1.400 . S
C1063 C1062 1.400 . S
C1063 C1064 1.398 . S
C1063 C1069 1.491 . S
C1064 H1055 0.950 . S
C1064 C1063 1.398 . S
C1064 C1065 1.391 . S
C1065 H1053 0.950 . S
C1065 C1061 1.393 . S
C1065 C1064 1.391 . S
C1066 H1056 0.950 . S
C1066 C1067 1.386 . S
C1066 C1068 1.391 . S
C1067 C1066 1.386 . S
C1067 C1071 1.393 . S
C1068 H1057 0.950 . S
C1068 C1066 1.391 . S
C1068 C1069 1.400 . S
C1069 C1063 1.491 . S
C1069 C1068 1.400 . S
C1069 C1070 1.398 . S
C1070 H1058 0.950 . S
C1070 C1069 1.398 . S
C1070 C1071 1.391 . S
C1071 H1059 0.950 . S
C1071 C1067 1.393 . S
C1071 C1070 1.391 . S
H1072 C1080 0.950 . S
H1073 C1085 0.950 . S
H1074 C1082 0.950 . S
H1075 C1084 0.950 . S
H1076 C1086 0.950 . S
H1077 C1088 0.950 . S
H1078 C1090 0.966 . S
H1079 C1091 0.950 1_565 S
C1080 H1072 0.950 . S
C1080 C1081 1.386 . S
C1080 C1082 1.391 . S
C1081 C1080 1.386 . S
C1081 C1085 1.393 . S
C1082 H1074 0.950 . S
C1082 C1080 1.391 . S
C1082 C1083 1.400 . S
C1083 C1082 1.400 . S
C1083 C1084 1.398 . S
C1083 C1089 1.491 . S
C1084 H1075 0.950 . S
C1084 C1083 1.398 . S
C1084 C1085 1.391 . S
C1085 H1073 0.950 . S
C1085 C1081 1.393 . S
C1085 C1084 1.391 . S
C1086 H1076 0.950 . S
C1086 C1087 1.386 . S
C1086 C1088 1.391 . S
C1087 C1086 1.386 . S
C1087 C1091 1.393 . S
C1088 H1077 0.950 . S
C1088 C1086 1.391 . S
C1088 C1089 1.400 . S
C1089 C1083 1.491 . S
C1089 C1088 1.400 . S
C1089 C1090 1.398 . S
C1090 H1078 0.966 . S
C1090 C1089 1.398 . S
C1090 C1091 1.391 . S
C1091 H1079 0.950 1_545 S
C1091 C1087 1.393 . S
C1091 C1090 1.391 . S
H1092 C1100 0.950 . S
H1093 C1105 0.950 . S
H1094 C1102 0.950 . S
H1095 C1104 0.950 . S
H1096 C1106 0.950 . S
H1097 C1108 0.950 . S
H1098 C1110 0.950 . S
H1099 C1111 0.950 . S
C1100 H1092 0.950 . S
C1100 C1101 1.386 . S
C1100 C1102 1.391 . S
C1101 C1100 1.386 . S
C1101 C1105 1.393 . S
C1102 H1094 0.950 . S
C1102 C1100 1.391 . S
C1102 C1103 1.400 . S
C1103 C1102 1.400 . S
C1103 C1104 1.398 . S
C1103 C1109 1.491 . S
C1104 H1095 0.950 . S
C1104 C1103 1.398 . S
C1104 C1105 1.391 . S
C1105 H1093 0.950 . S
C1105 C1101 1.393 . S
C1105 C1104 1.391 . S
C1106 H1096 0.950 . S
C1106 C1107 1.386 . S
C1106 C1108 1.391 . S
C1107 C1106 1.386 . S
C1107 C1111 1.393 . S
C1108 H1097 0.950 . S
C1108 C1106 1.391 . S
C1108 C1109 1.400 . S
C1109 C1103 1.491 . S
C1109 C1108 1.400 . S
C1109 C1110 1.398 . S
C1110 H1098 0.950 . S
C1110 C1109 1.398 . S
C1110 C1111 1.391 . S
C1111 H1099 0.950 . S
C1111 C1107 1.393 . S
C1111 C1110 1.391 . S
H1112 C1120 0.950 . S
H1113 C1125 0.950 . S
H1114 C1122 0.950 . S
H1115 C1124 0.950 . S
H1116 C1126 0.950 . S
H1117 C1128 0.950 . S
H1118 C1130 0.950 . S
H1119 C1131 0.950 . S
C1120 H1112 0.950 . S
C1120 C1121 1.386 . S
C1120 C1122 1.391 . S
C1121 C1120 1.386 . S
C1121 C1125 1.393 . S
C1122 H1114 0.950 . S
C1122 C1120 1.391 . S
C1122 C1123 1.400 . S
C1123 C1122 1.400 . S
C1123 C1124 1.398 . S
C1123 C1129 1.491 . S
C1124 H1115 0.950 . S
C1124 C1123 1.398 . S
C1124 C1125 1.391 . S
C1125 H1113 0.950 . S
C1125 C1121 1.393 . S
C1125 C1124 1.391 . S
C1126 H1116 0.950 . S
C1126 C1127 1.386 . S
C1126 C1128 1.391 . S
C1127 C1126 1.386 . S
C1127 C1131 1.393 . S
C1128 H1117 0.950 . S
C1128 C1126 1.391 . S
C1128 C1129 1.400 . S
C1129 C1123 1.491 . S
C1129 C1128 1.400 . S
C1129 C1130 1.398 . S
C1130 H1118 0.950 . S
C1130 C1129 1.398 . S
C1130 C1131 1.391 . S
C1131 H1119 0.950 . S
C1131 C1127 1.393 . S
C1131 C1130 1.391 . S
H1132 C1140 0.950 . S
H1133 C1145 0.950 . S
H1134 C1142 0.950 . S
H1135 C1144 0.950 . S
H1136 C1146 0.950 . S
H1137 C1148 0.950 . S
H1138 C1150 0.950 . S
H1139 C1151 0.950 . S
C1140 H1132 0.950 . S
C1140 C1141 1.386 . S
C1140 C1142 1.391 . S
C1141 C1140 1.386 . S
C1141 C1145 1.393 . S
C1142 H1134 0.950 . S
C1142 C1140 1.391 . S
C1142 C1143 1.400 . S
C1143 C1142 1.400 . S
C1143 C1144 1.398 . S
C1143 C1149 1.491 . S
C1144 H1135 0.950 . S
C1144 C1143 1.398 . S
C1144 C1145 1.391 . S
C1145 H1133 0.950 . S
C1145 C1141 1.393 . S
C1145 C1144 1.391 . S
C1146 H1136 0.950 . S
C1146 C1147 1.386 . S
C1146 C1148 1.391 . S
C1147 C1146 1.386 . S
C1147 C1151 1.393 . S
C1148 H1137 0.950 . S
C1148 C1146 1.391 . S
C1148 C1149 1.400 . S
C1149 C1143 1.491 . S
C1149 C1148 1.400 . S
C1149 C1150 1.398 . S
C1150 H1138 0.950 . S
C1150 C1149 1.398 . S
C1150 C1151 1.391 . S
C1151 H1139 0.950 . S
C1151 C1147 1.393 . S
C1151 C1150 1.391 . S
H1152 C1160 0.950 . S
H1153 C1165 0.950 . S
H1154 C1162 0.950 . S
H1155 C1164 0.950 . S
H1156 C1166 0.950 . S
H1157 C1168 0.950 . S
H1158 C1170 0.950 . S
H1159 C1171 0.950 . S
C1160 H1152 0.950 . S
C1160 C1161 1.386 . S
C1160 C1162 1.391 . S
C1161 C1160 1.386 . S
C1161 C1165 1.393 . S
C1162 H1154 0.950 . S
C1162 C1160 1.391 . S
C1162 C1163 1.400 . S
C1163 C1162 1.400 . S
C1163 C1164 1.398 . S
C1163 C1169 1.491 . S
C1164 H1155 0.950 . S
C1164 C1163 1.398 . S
C1164 C1165 1.391 . S
C1165 H1153 0.950 . S
C1165 C1161 1.393 . S
C1165 C1164 1.391 . S
C1166 H1156 0.950 . S
C1166 C1167 1.386 . S
C1166 C1168 1.391 . S
C1167 C1166 1.386 . S
C1167 C1171 1.393 . S
C1168 H1157 0.950 . S
C1168 C1166 1.391 . S
C1168 C1169 1.400 . S
C1169 C1163 1.491 . S
C1169 C1168 1.400 . S
C1169 C1170 1.398 . S
C1170 H1158 0.950 . S
C1170 C1169 1.398 . S
C1170 C1171 1.391 . S
C1171 H1159 0.950 . S
C1171 C1167 1.393 . S
C1171 C1170 1.391 . S
H1172 C1180 0.950 . S
H1173 C1185 0.950 . S
H1174 C1182 0.950 . S
H1175 C1184 0.950 . S
H1176 C1186 0.950 . S
H1177 C1188 0.950 . S
H1178 C1190 0.950 . S
H1179 C1191 0.950 . S
C1180 H1172 0.950 . S
C1180 C1181 1.386 . S
C1180 C1182 1.391 . S
C1181 C1180 1.386 . S
C1181 C1185 1.393 . S
C1182 H1174 0.950 . S
C1182 C1180 1.391 . S
C1182 C1183 1.400 . S
C1183 C1182 1.400 . S
C1183 C1184 1.398 . S
C1183 C1189 1.491 . S
C1184 H1175 0.950 . S
C1184 C1183 1.398 . S
C1184 C1185 1.391 . S
C1185 H1173 0.950 . S
C1185 C1181 1.393 . S
C1185 C1184 1.391 . S
C1186 H1176 0.950 . S
C1186 C1187 1.386 . S
C1186 C1188 1.391 . S
C1187 C1186 1.386 . S
C1187 C1191 1.393 . S
C1188 H1177 0.950 . S
C1188 C1186 1.391 . S
C1188 C1189 1.400 . S
C1189 C1183 1.491 . S
C1189 C1188 1.400 . S
C1189 C1190 1.398 . S
C1190 H1178 0.950 . S
C1190 C1189 1.398 . S
C1190 C1191 1.391 . S
C1191 H1179 0.950 . S
C1191 C1187 1.393 . S
C1191 C1190 1.391 . S
H1192 C1200 0.950 . S
H1193 C1205 0.950 . S
H1194 C1202 0.950 . S
H1195 C1204 0.950 . S
H1196 C1206 0.950 . S
H1197 C1208 0.950 . S
H1198 C1210 0.950 . S
H1199 C1211 0.950 . S
C1200 H1192 0.950 . S
C1200 C1201 1.386 . S
C1200 C1202 1.391 . S
C1201 C1200 1.386 . S
C1201 C1205 1.393 . S
C1202 H1194 0.950 . S
C1202 C1200 1.391 . S
C1202 C1203 1.400 . S
C1203 C1202 1.400 . S
C1203 C1204 1.398 . S
C1203 C1209 1.491 . S
C1204 H1195 0.950 . S
C1204 C1203 1.398 . S
C1204 C1205 1.391 . S
C1205 H1193 0.950 . S
C1205 C1201 1.393 . S
C1205 C1204 1.391 . S
C1206 H1196 0.950 . S
C1206 C1207 1.386 . S
C1206 C1208 1.391 . S
C1207 C1206 1.386 . S
C1207 C1211 1.393 . S
C1208 H1197 0.950 . S
C1208 C1206 1.391 . S
C1208 C1209 1.400 . S
C1209 C1203 1.491 . S
C1209 C1208 1.400 . S
C1209 C1210 1.398 . S
C1210 H1198 0.950 . S
C1210 C1209 1.398 . S
C1210 C1211 1.391 . S
C1211 H1199 0.950 . S
C1211 C1207 1.393 . S
C1211 C1210 1.391 . S
H1212 C1220 0.950 . S
H1213 C1225 0.950 . S
H1214 C1222 0.950 . S
H1215 C1224 0.950 . S
H1216 C1226 0.950 1_545 S
H1217 C1228 0.950 . S
H1218 C1230 0.950 . S
H1219 C1231 0.950 . S
C1220 H1212 0.950 . S
C1220 C1221 1.386 . S
C1220 C1222 1.391 . S
C1221 C1220 1.386 . S
C1221 C1225 1.393 . S
C1222 H1214 0.950 . S
C1222 C1220 1.391 . S
C1222 C1223 1.400 . S
C1223 C1222 1.400 . S
C1223 C1224 1.398 . S
C1223 C1229 1.491 . S
C1224 H1215 0.950 . S
C1224 C1223 1.398 . S
C1224 C1225 1.391 . S
C1225 H1213 0.950 . S
C1225 C1221 1.393 . S
C1225 C1224 1.391 . S
C1226 H1216 0.950 1_565 S
C1226 C1227 1.386 . S
C1226 C1228 1.391 . S
C1227 C1226 1.386 . S
C1227 C1231 1.393 . S
C1228 H1217 0.950 . S
C1228 C1226 1.391 . S
C1228 C1229 1.400 . S
C1229 C1223 1.491 . S
C1229 C1228 1.400 . S
C1229 C1230 1.398 . S
C1230 H1218 0.950 . S
C1230 C1229 1.398 . S
C1230 C1231 1.391 . S
C1231 H1219 0.950 . S
C1231 C1227 1.393 . S
C1231 C1230 1.391 . S
H1232 C1240 0.950 . S
H1233 C1245 0.950 . S
H1234 C1242 0.950 . S
H1235 C1244 0.950 . S
H1236 C1246 0.950 . S
H1237 C1248 0.950 . S
H1238 C1250 0.950 . S
H1239 C1251 0.950 . S
C1240 H1232 0.950 . S
C1240 C1241 1.386 . S
C1240 C1242 1.391 . S
C1241 C1240 1.386 . S
C1241 C1245 1.393 . S
C1242 H1234 0.950 . S
C1242 C1240 1.391 . S
C1242 C1243 1.400 . S
C1243 C1242 1.400 . S
C1243 C1244 1.398 . S
C1243 C1249 1.491 . S
C1244 H1235 0.950 . S
C1244 C1243 1.398 . S
C1244 C1245 1.391 . S
C1245 H1233 0.950 . S
C1245 C1241 1.393 . S
C1245 C1244 1.391 . S
C1246 H1236 0.950 . S
C1246 C1247 1.386 . S
C1246 C1248 1.391 . S
C1247 C1246 1.386 . S
C1247 C1251 1.393 . S
C1248 H1237 0.950 . S
C1248 C1246 1.391 . S
C1248 C1249 1.400 . S
C1249 C1243 1.491 . S
C1249 C1248 1.400 . S
C1249 C1250 1.398 . S
C1250 H1238 0.950 . S
C1250 C1249 1.398 . S
C1250 C1251 1.391 . S
C1251 H1239 0.950 . S
C1251 C1247 1.393 . S
C1251 C1250 1.391 . S
H1252 C1260 0.950 . S
H1253 C1265 0.950 . S
H1254 C1262 0.950 . S
H1255 C1264 0.950 . S
H1256 C1266 0.950 . S
H1257 C1268 0.950 . S
H1258 C1270 0.950 . S
H1259 C1271 0.950 . S
C1260 H1252 0.950 . S
C1260 C1261 1.386 . S
C1260 C1262 1.391 . S
C1261 C1260 1.386 . S
C1261 C1265 1.393 . S
C1262 H1254 0.950 . S
C1262 C1260 1.391 . S
C1262 C1263 1.400 . S
C1263 C1262 1.400 . S
C1263 C1264 1.398 . S
C1263 C1269 1.491 . S
C1264 H1255 0.950 . S
C1264 C1263 1.398 . S
C1264 C1265 1.391 . S
C1265 H1253 0.950 . S
C1265 C1261 1.393 . S
C1265 C1264 1.391 . S
C1266 H1256 0.950 . S
C1266 C1267 1.386 . S
C1266 C1268 1.391 . S
C1267 C1266 1.386 . S
C1267 C1271 1.393 . S
C1268 H1257 0.950 . S
C1268 C1266 1.391 . S
C1268 C1269 1.400 . S
C1269 C1263 1.491 . S
C1269 C1268 1.400 . S
C1269 C1270 1.398 . S
C1270 H1258 0.950 . S
C1270 C1269 1.398 . S
C1270 C1271 1.391 . S
C1271 H1259 0.950 . S
C1271 C1267 1.393 . S
C1271 C1270 1.391 . S
H1272 C1280 0.950 1_655 S
H1273 C1285 0.950 . S
H1274 C1282 0.950 1_655 S
H1275 C1284 0.950 . S
H1276 C1286 0.950 1_554 S
H1277 C1288 0.950 . S
H1278 C1290 0.912 1_655 S
H1279 C1291 0.950 . S
C1280 H1272 0.950 1_455 S
C1280 C1281 1.386 . S
C1280 C1282 1.391 . S
C1281 C1280 1.386 . S
C1281 C1285 1.393 . S
C1282 H1274 0.950 1_455 S
C1282 C1280 1.391 . S
C1282 C1283 1.400 . S
C1283 C1282 1.400 . S
C1283 C1284 1.398 . S
C1283 C1289 1.491 . S
C1284 H1275 0.950 . S
C1284 C1283 1.398 . S
C1284 C1285 1.391 . S
C1285 H1273 0.950 . S
C1285 C1281 1.393 . S
C1285 C1284 1.391 . S
C1286 H1276 0.950 1_556 S
C1286 C1287 1.386 . S
C1286 C1288 1.391 . S
C1287 C1286 1.386 . S
C1287 C1291 1.393 . S
C1288 H1277 0.950 . S
C1288 C1286 1.391 . S
C1288 C1289 1.400 . S
C1289 C1283 1.491 . S
C1289 C1288 1.400 . S
C1289 C1290 1.398 . S
C1290 H1278 0.912 1_455 S
C1290 C1289 1.398 . S
C1290 C1291 1.391 . S
C1291 H1279 0.950 . S
C1291 C1287 1.393 . S
C1291 C1290 1.391 . S
H1292 C1300 0.950 . S
H1293 C1305 0.950 . S
H1294 C1302 0.950 . S
H1295 C1304 0.950 . S
H1296 C1306 0.950 . S
H1297 C1308 0.950 . S
H1298 C1310 0.950 . S
H1299 C1311 0.950 . S
C1300 H1292 0.950 . S
C1300 C1301 1.386 . S
C1300 C1302 1.391 . S
C1301 C1300 1.386 . S
C1301 C1305 1.393 . S
C1302 H1294 0.950 . S
C1302 C1300 1.391 . S
C1302 C1303 1.400 . S
C1303 C1302 1.400 . S
C1303 C1304 1.398 . S
C1303 C1309 1.491 . S
C1304 H1295 0.950 . S
C1304 C1303 1.398 . S
C1304 C1305 1.391 . S
C1305 H1293 0.950 . S
C1305 C1301 1.393 . S
C1305 C1304 1.391 . S
C1306 H1296 0.950 . S
C1306 C1307 1.386 . S
C1306 C1308 1.391 . S
C1307 C1306 1.386 . S
C1307 C1311 1.393 . S
C1308 H1297 0.950 . S
C1308 C1306 1.391 . S
C1308 C1309 1.400 . S
C1309 C1303 1.491 . S
C1309 C1308 1.400 . S
C1309 C1310 1.398 . S
C1310 H1298 0.950 . S
C1310 C1309 1.398 . S
C1310 C1311 1.391 . S
C1311 H1299 0.950 . S
C1311 C1307 1.393 . S
C1311 C1310 1.391 . S
H1312 C1320 0.950 . S
H1313 C1325 0.950 . S
H1314 C1322 0.950 . S
H1315 C1324 0.950 . S
H1316 C1326 0.950 . S
H1317 C1328 0.950 . S
H1318 C1330 0.950 . S
H1319 C1331 0.950 . S
C1320 H1312 0.950 . S
C1320 C1321 1.386 . S
C1320 C1322 1.391 . S
C1321 C1320 1.386 . S
C1321 C1325 1.393 . S
C1322 H1314 0.950 . S
C1322 C1320 1.391 . S
C1322 C1323 1.400 . S
C1323 C1322 1.400 . S
C1323 C1324 1.398 . S
C1323 C1329 1.491 . S
C1324 H1315 0.950 . S
C1324 C1323 1.398 . S
C1324 C1325 1.391 . S
C1325 H1313 0.950 . S
C1325 C1321 1.393 . S
C1325 C1324 1.391 . S
C1326 H1316 0.950 . S
C1326 C1327 1.386 . S
C1326 C1328 1.391 . S
C1327 C1326 1.386 . S
C1327 C1331 1.393 . S
C1328 H1317 0.950 . S
C1328 C1326 1.391 . S
C1328 C1329 1.400 . S
C1329 C1323 1.491 . S
C1329 C1328 1.400 . S
C1329 C1330 1.398 . S
C1330 H1318 0.950 . S
C1330 C1329 1.398 . S
C1330 C1331 1.391 . S
C1331 H1319 0.950 . S
C1331 C1327 1.393 . S
C1331 C1330 1.391 . S
H1332 C1340 0.950 . S
H1333 C1345 0.950 . S
H1334 C1342 0.950 . S
H1335 C1344 0.950 . S
H1336 C1346 0.950 . S
H1337 C1348 0.950 . S
H1338 C1350 0.950 . S
H1339 C1351 0.950 . S
C1340 H1332 0.950 . S
C1340 C1341 1.386 . S
C1340 C1342 1.391 . S
C1341 C1340 1.386 . S
C1341 C1345 1.393 . S
C1342 H1334 0.950 . S
C1342 C1340 1.391 . S
C1342 C1343 1.400 . S
C1343 C1342 1.400 . S
C1343 C1344 1.398 . S
C1343 C1349 1.491 . S
C1344 H1335 0.950 . S
C1344 C1343 1.398 . S
C1344 C1345 1.391 . S
C1345 H1333 0.950 . S
C1345 C1341 1.393 . S
C1345 C1344 1.391 . S
C1346 H1336 0.950 . S
C1346 C1347 1.386 . S
C1346 C1348 1.391 . S
C1347 C1346 1.386 . S
C1347 C1351 1.393 . S
C1348 H1337 0.950 . S
C1348 C1346 1.391 . S
C1348 C1349 1.400 . S
C1349 C1343 1.491 . S
C1349 C1348 1.400 . S
C1349 C1350 1.398 . S
C1350 H1338 0.950 . S
C1350 C1349 1.398 . S
C1350 C1351 1.391 . S
C1351 H1339 0.950 . S
C1351 C1347 1.393 . S
C1351 C1350 1.391 . S
H1352 C1360 0.950 . S
H1353 C1365 0.950 . S
H1354 C1362 0.950 . S
H1355 C1364 0.950 . S
H1356 C1366 0.950 . S
H1357 C1368 0.950 . S
H1358 C1370 0.950 1_655 S
H1359 C1371 0.950 . S
C1360 H1352 0.950 . S
C1360 C1361 1.386 1_655 S
C1360 C1362 1.391 . S
C1361 C1360 1.386 1_455 S
C1361 C1365 1.393 . S
C1362 H1354 0.950 . S
C1362 C1360 1.391 . S
C1362 C1363 1.400 1_655 S
C1363 C1362 1.400 1_455 S
C1363 C1364 1.398 . S
C1363 C1369 1.491 . S
C1364 H1355 0.950 . S
C1364 C1363 1.398 . S
C1364 C1365 1.391 . S
C1365 H1353 0.950 . S
C1365 C1361 1.393 . S
C1365 C1364 1.391 . S
C1366 H1356 0.950 . S
C1366 C1367 1.386 . S
C1366 C1368 1.391 . S
C1367 C1366 1.386 . S
C1367 C1371 1.393 . S
C1368 H1357 0.950 . S
C1368 C1366 1.391 . S
C1368 C1369 1.400 . S
C1369 C1363 1.491 . S
C1369 C1368 1.400 . S
C1369 C1370 1.398 . S
C1370 H1358 0.950 1_455 S
C1370 C1369 1.398 . S
C1370 C1371 1.391 . S
C1371 H1359 0.950 . S
C1371 C1367 1.393 . S
C1371 C1370 1.391 . S
H1372 C1380 0.950 . S
H1373 C1385 0.950 . S
H1374 C1382 0.950 . S
H1375 C1384 0.950 . S
H1376 C1386 0.950 . S
H1377 C1388 0.950 . S
H1378 C1390 0.950 . S
H1379 C1391 0.950 . S
C1380 H1372 0.950 . S
C1380 C1381 1.386 . S
C1380 C1382 1.391 . S
C1381 C1380 1.386 . S
C1381 C1385 1.393 . S
C1382 H1374 0.950 . S
C1382 C1380 1.391 . S
C1382 C1383 1.400 . S
C1383 C1382 1.400 . S
C1383 C1384 1.398 . S
C1383 C1389 1.491 . S
C1384 H1375 0.950 . S
C1384 C1383 1.398 . S
C1384 C1385 1.391 . S
C1385 H1373 0.950 . S
C1385 C1381 1.393 . S
C1385 C1384 1.391 . S
C1386 H1376 0.950 . S
C1386 C1387 1.386 . S
C1386 C1388 1.391 . S
C1387 C1386 1.386 . S
C1387 C1391 1.393 . S
C1388 H1377 0.950 . S
C1388 C1386 1.391 . S
C1388 C1389 1.400 . S
C1389 C1383 1.491 . S
C1389 C1388 1.400 . S
C1389 C1390 1.398 . S
C1390 H1378 0.950 . S
C1390 C1389 1.398 . S
C1390 C1391 1.391 . S
C1391 H1379 0.950 . S
C1391 C1387 1.393 . S
C1391 C1390 1.391 . S
H1392 C1400 0.950 . S
H1393 C1405 0.950 . S
H1394 C1402 0.950 . S
H1395 C1404 0.950 . S
H1396 C1406 0.950 . S
H1397 C1408 0.950 . S
H1398 C1410 0.950 . S
H1399 C1411 0.950 . S
C1400 H1392 0.950 . S
C1400 C1401 1.386 . S
C1400 C1402 1.391 . S
C1401 C1400 1.386 . S
C1401 C1405 1.393 . S
C1402 H1394 0.950 . S
C1402 C1400 1.391 . S
C1402 C1403 1.400 . S
C1403 C1402 1.400 . S
C1403 C1404 1.398 . S
C1403 C1409 1.491 . S
C1404 H1395 0.950 . S
C1404 C1403 1.398 . S
C1404 C1405 1.391 . S
C1405 H1393 0.950 . S
C1405 C1401 1.393 . S
C1405 C1404 1.391 . S
C1406 H1396 0.950 . S
C1406 C1407 1.386 . S
C1406 C1408 1.391 . S
C1407 C1406 1.386 . S
C1407 C1411 1.393 . S
C1408 H1397 0.950 . S
C1408 C1406 1.391 . S
C1408 C1409 1.400 . S
C1409 C1403 1.491 . S
C1409 C1408 1.400 . S
C1409 C1410 1.398 . S
C1410 H1398 0.950 . S
C1410 C1409 1.398 . S
C1410 C1411 1.391 . S
C1411 H1399 0.950 . S
C1411 C1407 1.393 . S
C1411 C1410 1.391 . S
H1412 C1420 0.950 . S
H1413 C1425 0.950 . S
H1414 C1422 0.950 . S
H1415 C1424 0.950 . S
H1416 C1426 0.950 . S
H1417 C1428 0.950 . S
H1418 C1430 0.950 . S
H1419 C1431 0.950 . S
C1420 H1412 0.950 . S
C1420 C1421 1.386 . S
C1420 C1422 1.391 . S
C1421 C1420 1.386 . S
C1421 C1425 1.393 . S
C1422 H1414 0.950 . S
C1422 C1420 1.391 . S
C1422 C1423 1.400 . S
C1423 C1422 1.400 . S
C1423 C1424 1.398 . S
C1423 C1429 1.491 . S
C1424 H1415 0.950 . S
C1424 C1423 1.398 . S
C1424 C1425 1.391 . S
C1425 H1413 0.950 . S
C1425 C1421 1.393 . S
C1425 C1424 1.391 . S
C1426 H1416 0.950 . S
C1426 C1427 1.386 . S
C1426 C1428 1.391 . S
C1427 C1426 1.386 . S
C1427 C1431 1.393 . S
C1428 H1417 0.950 . S
C1428 C1426 1.391 . S
C1428 C1429 1.400 . S
C1429 C1423 1.491 . S
C1429 C1428 1.400 . S
C1429 C1430 1.398 . S
C1430 H1418 0.950 . S
C1430 C1429 1.398 . S
C1430 C1431 1.391 . S
C1431 H1419 0.950 . S
C1431 C1427 1.393 . S
C1431 C1430 1.391 . S
H1432 C1440 0.950 . S
H1433 C1445 0.950 . S
H1434 C1442 0.950 . S
H1435 C1444 0.950 . S
H1436 C1446 0.950 . S
H1437 C1448 0.950 . S
H1438 C1450 0.950 . S
H1439 C1451 0.950 . S
C1440 H1432 0.950 . S
C1440 C1441 1.386 . S
C1440 C1442 1.391 . S
C1441 C1440 1.386 . S
C1441 C1445 1.393 . S
C1442 H1434 0.950 . S
C1442 C1440 1.391 . S
C1442 C1443 1.400 . S
C1443 C1442 1.400 . S
C1443 C1444 1.398 . S
C1443 C1449 1.491 . S
C1444 H1435 0.950 . S
C1444 C1443 1.398 . S
C1444 C1445 1.391 . S
C1445 H1433 0.950 . S
C1445 C1441 1.393 . S
C1445 C1444 1.391 . S
C1446 H1436 0.950 . S
C1446 C1447 1.386 . S
C1446 C1448 1.391 . S
C1447 C1446 1.386 . S
C1447 C1451 1.393 . S
C1448 H1437 0.950 . S
C1448 C1446 1.391 . S
C1448 C1449 1.400 . S
C1449 C1443 1.491 . S
C1449 C1448 1.400 . S
C1449 C1450 1.398 . S
C1450 H1438 0.950 . S
C1450 C1449 1.398 . S
C1450 C1451 1.391 . S
C1451 H1439 0.950 . S
C1451 C1447 1.393 . S
C1451 C1450 1.391 . S
H1452 C1460 0.950 . S
H1453 C1465 0.950 . S
H1454 C1462 0.950 . S
H1455 C1464 0.950 . S
H1456 C1466 0.950 . S
H1457 C1468 0.950 . S
H1458 C1470 0.950 . S
H1459 C1471 0.950 . S
C1460 H1452 0.950 . S
C1460 C1461 1.386 . S
C1460 C1462 1.391 . S
C1461 C1460 1.386 . S
C1461 C1465 1.393 . S
C1462 H1454 0.950 . S
C1462 C1460 1.391 . S
C1462 C1463 1.400 . S
C1463 C1462 1.400 . S
C1463 C1464 1.398 . S
C1463 C1469 1.491 . S
C1464 H1455 0.950 . S
C1464 C1463 1.398 . S
C1464 C1465 1.391 . S
C1465 H1453 0.950 . S
C1465 C1461 1.393 . S
C1465 C1464 1.391 . S
C1466 H1456 0.950 . S
C1466 C1467 1.386 . S
C1466 C1468 1.391 . S
C1467 C1466 1.386 . S
C1467 C1471 1.393 . S
C1468 H1457 0.950 . S
C1468 C1466 1.391 . S
C1468 C1469 1.400 . S
C1469 C1463 1.491 . S
C1469 C1468 1.400 . S
C1469 C1470 1.398 . S
C1470 H1458 0.950 . S
C1470 C1469 1.398 . S
C1470 C1471 1.391 . S
C1471 H1459 0.950 . S
C1471 C1467 1.393 . S
C1471 C1470 1.391 . S
H1472 C1480 0.950 1_565 S
H1473 C1485 0.950 . S
H1474 C1482 0.950 1_565 S
H1475 C1484 0.950 . S
H1476 C1486 0.950 . S
H1477 C1488 0.950 . S
H1478 C1490 0.950 . S
H1479 C1491 0.950 . S
C1480 H1472 0.950 1_545 S
C1480 C1481 1.386 . S
C1480 C1482 1.391 . S
C1481 C1480 1.386 . S
C1481 C1485 1.393 . S
C1482 H1474 0.950 1_545 S
C1482 C1480 1.391 . S
C1482 C1483 1.400 . S
C1483 C1482 1.400 . S
C1483 C1484 1.398 . S
C1483 C1489 1.491 . S
C1484 H1475 0.950 . S
C1484 C1483 1.398 . S
C1484 C1485 1.391 . S
C1485 H1473 0.950 . S
C1485 C1481 1.393 . S
C1485 C1484 1.391 . S
C1486 H1476 0.950 . S
C1486 C1487 1.386 . S
C1486 C1488 1.391 . S
C1487 C1486 1.386 . S
C1487 C1491 1.393 . S
C1488 H1477 0.950 . S
C1488 C1486 1.391 . S
C1488 C1489 1.400 . S
C1489 C1483 1.491 . S
C1489 C1488 1.400 . S
C1489 C1490 1.398 . S
C1490 H1478 0.950 . S
C1490 C1489 1.398 . S
C1490 C1491 1.391 . S
C1491 H1479 0.950 . S
C1491 C1487 1.393 . S
C1491 C1490 1.391 . S
H1492 C1500 0.950 . S
H1493 C1505 0.950 . S
H1494 C1502 0.950 . S
H1495 C1504 0.950 . S
H1496 C1506 0.950 . S
H1497 C1508 0.950 . S
H1498 C1510 0.950 . S
H1499 C1511 0.950 . S
C1500 H1492 0.950 . S
C1500 C1501 1.386 . S
C1500 C1502 1.391 . S
C1501 C1500 1.386 . S
C1501 C1505 1.393 . S
C1502 H1494 0.950 . S
C1502 C1500 1.391 . S
C1502 C1503 1.400 . S
C1503 C1502 1.400 . S
C1503 C1504 1.398 . S
C1503 C1509 1.491 . S
C1504 H1495 0.950 . S
C1504 C1503 1.398 . S
C1504 C1505 1.391 . S
C1505 H1493 0.950 . S
C1505 C1501 1.393 . S
C1505 C1504 1.391 . S
C1506 H1496 0.950 . S
C1506 C1507 1.386 . S
C1506 C1508 1.391 . S
C1507 C1506 1.386 . S
C1507 C1511 1.393 . S
C1508 H1497 0.950 . S
C1508 C1506 1.391 . S
C1508 C1509 1.400 . S
C1509 C1503 1.491 . S
C1509 C1508 1.400 . S
C1509 C1510 1.398 . S
C1510 H1498 0.950 . S
C1510 C1509 1.398 . S
C1510 C1511 1.391 . S
C1511 H1499 0.950 . S
C1511 C1507 1.393 . S
C1511 C1510 1.391 . S
H1512 C1520 0.950 . S
H1513 C1525 0.950 . S
H1514 C1522 0.950 . S
H1515 C1524 0.950 . S
H1516 C1526 0.950 1_565 S
H1517 C1528 0.950 . S
H1518 C1530 0.950 . S
H1519 C1531 0.931 1_455 S
C1520 H1512 0.950 . S
C1520 C1521 1.386 . S
C1520 C1522 1.391 . S
C1521 C1520 1.386 . S
C1521 C1525 1.393 . S
C1522 H1514 0.950 . S
C1522 C1520 1.391 . S
C1522 C1523 1.400 . S
C1523 C1522 1.400 . S
C1523 C1524 1.398 . S
C1523 C1529 1.491 . S
C1524 H1515 0.950 . S
C1524 C1523 1.398 . S
C1524 C1525 1.391 . S
C1525 H1513 0.950 . S
C1525 C1521 1.393 . S
C1525 C1524 1.391 . S
C1526 H1516 0.950 1_545 S
C1526 C1527 1.386 . S
C1526 C1528 1.391 . S
C1527 C1526 1.386 . S
C1527 C1531 1.399 . S
C1528 H1517 0.950 . S
C1528 C1526 1.391 . S
C1528 C1529 1.400 . S
C1529 C1523 1.491 . S
C1529 C1528 1.400 . S
C1529 C1530 1.398 . S
C1530 H1518 0.950 . S
C1530 C1529 1.398 . S
C1530 C1531 1.404 . S
C1531 H1519 0.931 1_655 S
C1531 C1527 1.399 . S
C1531 C1530 1.404 . S
H1532 C1540 0.950 . S
H1533 C1545 0.950 . S
H1534 C1542 0.950 . S
H1535 C1544 0.950 . S
H1536 C1546 0.950 . S
H1537 C1548 0.950 . S
H1538 C1550 0.950 . S
H1539 C1551 0.950 . S
C1540 H1532 0.950 . S
C1540 C1541 1.386 . S
C1540 C1542 1.391 . S
C1541 C1540 1.386 . S
C1541 C1545 1.393 . S
C1542 H1534 0.950 . S
C1542 C1540 1.391 . S
C1542 C1543 1.400 . S
C1543 C1542 1.400 . S
C1543 C1544 1.398 . S
C1543 C1549 1.491 . S
C1544 H1535 0.950 . S
C1544 C1543 1.398 . S
C1544 C1545 1.391 . S
C1545 H1533 0.950 . S
C1545 C1541 1.393 . S
C1545 C1544 1.391 . S
C1546 H1536 0.950 . S
C1546 C1547 1.386 . S
C1546 C1548 1.391 . S
C1547 C1546 1.386 . S
C1547 C1551 1.393 . S
C1548 H1537 0.950 . S
C1548 C1546 1.391 . S
C1548 C1549 1.400 . S
C1549 C1543 1.491 . S
C1549 C1548 1.400 . S
C1549 C1550 1.398 . S
C1550 H1538 0.950 . S
C1550 C1549 1.398 . S
C1550 C1551 1.391 . S
C1551 H1539 0.950 . S
C1551 C1547 1.393 . S
C1551 C1550 1.391 . S
H1552 C1560 0.950 . S
H1553 C1565 0.950 . S
H1554 C1562 0.950 . S
H1555 C1564 0.950 . S
H1556 C1566 0.950 . S
H1557 C1568 0.950 . S
H1558 C1570 0.950 . S
H1559 C1571 0.950 . S
C1560 H1552 0.950 . S
C1560 C1561 1.386 . S
C1560 C1562 1.391 . S
C1561 C1560 1.386 . S
C1561 C1565 1.393 . S
C1562 H1554 0.950 . S
C1562 C1560 1.391 . S
C1562 C1563 1.400 . S
C1563 C1562 1.400 . S
C1563 C1564 1.398 . S
C1563 C1569 1.491 . S
C1564 H1555 0.950 . S
C1564 C1563 1.398 . S
C1564 C1565 1.391 . S
C1565 H1553 0.950 . S
C1565 C1561 1.393 . S
C1565 C1564 1.391 . S
C1566 H1556 0.950 . S
C1566 C1567 1.386 . S
C1566 C1568 1.391 . S
C1567 C1566 1.386 . S
C1567 C1571 1.393 . S
C1568 H1557 0.950 . S
C1568 C1566 1.391 . S
C1568 C1569 1.400 . S
C1569 C1563 1.491 . S
C1569 C1568 1.400 . S
C1569 C1570 1.398 . S
C1570 H1558 0.950 . S
C1570 C1569 1.398 . S
C1570 C1571 1.391 . S
C1571 H1559 0.950 . S
C1571 C1567 1.393 . S
C1571 C1570 1.391 . S
H1572 C1580 0.950 . S
H1573 C1585 0.950 . S
H1574 C1582 0.950 . S
H1575 C1584 0.950 . S
H1576 C1586 0.950 . S
H1577 C1588 0.950 . S
H1578 C1590 0.950 . S
H1579 C1591 0.950 . S
C1580 H1572 0.950 . S
C1580 C1581 1.386 . S
C1580 C1582 1.391 . S
C1581 C1580 1.386 . S
C1581 C1585 1.393 . S
C1582 H1574 0.950 . S
C1582 C1580 1.391 . S
C1582 C1583 1.400 . S
C1583 C1582 1.400 . S
C1583 C1584 1.398 . S
C1583 C1589 1.491 . S
C1584 H1575 0.950 . S
C1584 C1583 1.398 . S
C1584 C1585 1.391 . S
C1585 H1573 0.950 . S
C1585 C1581 1.393 . S
C1585 C1584 1.391 . S
C1586 H1576 0.950 . S
C1586 C1587 1.386 . S
C1586 C1588 1.391 . S
C1587 C1586 1.386 . S
C1587 C1591 1.393 . S
C1588 H1577 0.950 . S
C1588 C1586 1.391 . S
C1588 C1589 1.400 . S
C1589 C1583 1.491 . S
C1589 C1588 1.400 . S
C1589 C1590 1.398 . S
C1590 H1578 0.950 . S
C1590 C1589 1.398 . S
C1590 C1591 1.391 . S
C1591 H1579 0.950 . S
C1591 C1587 1.393 . S
C1591 C1590 1.391 . S
H1592 C1600 0.950 . S
H1593 C1605 0.950 . S
H1594 C1602 0.950 . S
H1595 C1604 0.950 1_545 S
H1596 C1606 0.950 . S
H1597 C1608 0.950 . S
H1598 C1610 0.950 . S
H1599 C1611 0.950 . S
C1600 H1592 0.950 . S
C1600 C1601 1.386 . S
C1600 C1602 1.391 . S
C1601 C1600 1.386 . S
C1601 C1605 1.393 . S
C1602 H1594 0.950 . S
C1602 C1600 1.391 . S
C1602 C1603 1.400 . S
C1603 C1602 1.400 . S
C1603 C1604 1.398 . S
C1603 C1609 1.491 . S
C1604 H1595 0.950 1_565 S
C1604 C1603 1.398 . S
C1604 C1605 1.391 . S
C1605 H1593 0.950 . S
C1605 C1601 1.393 . S
C1605 C1604 1.391 . S
C1606 H1596 0.950 . S
C1606 C1607 1.386 . S
C1606 C1608 1.391 . S
C1607 C1606 1.386 . S
C1607 C1611 1.393 1_545 S
C1608 H1597 0.950 . S
C1608 C1606 1.391 . S
C1608 C1609 1.400 1_545 S
C1609 C1603 1.491 . S
C1609 C1608 1.400 1_565 S
C1609 C1610 1.398 . S
C1610 H1598 0.950 . S
C1610 C1609 1.398 . S
C1610 C1611 1.391 . S
C1611 H1599 0.950 . S
C1611 C1607 1.393 1_565 S
C1611 C1610 1.391 . S
H1612 C1620 0.950 . S
H1613 C1625 0.950 . S
H1614 C1622 0.950 . S
H1615 C1624 0.950 . S
H1616 C1626 0.950 . S
H1617 C1628 0.950 . S
H1618 C1630 0.950 . S
H1619 C1631 0.950 . S
C1620 H1612 0.950 . S
C1620 C1621 1.386 1_554 S
C1620 C1622 1.391 . S
C1621 C1620 1.386 1_556 S
C1621 C1625 1.393 . S
C1622 H1614 0.950 . S
C1622 C1620 1.391 . S
C1622 C1623 1.400 . S
C1623 C1622 1.400 . S
C1623 C1624 1.398 1_554 S
C1623 C1629 1.491 . S
C1624 H1615 0.950 . S
C1624 C1623 1.398 1_556 S
C1624 C1625 1.391 . S
C1625 H1613 0.950 . S
C1625 C1621 1.393 . S
C1625 C1624 1.391 . S
C1626 H1616 0.950 . S
C1626 C1627 1.386 1_556 S
C1626 C1628 1.391 . S
C1627 C1626 1.386 1_554 S
C1627 C1631 1.393 . S
C1628 H1617 0.950 . S
C1628 C1626 1.391 . S
C1628 C1629 1.400 1_556 S
C1629 C1623 1.491 . S
C1629 C1628 1.400 1_554 S
C1629 C1630 1.398 . S
C1630 H1618 0.950 . S
C1630 C1629 1.398 . S
C1630 C1631 1.391 . S
C1631 H1619 0.950 . S
C1631 C1627 1.393 . S
C1631 C1630 1.391 . S
H1632 C1640 0.950 . S
H1633 C1645 0.950 . S
H1634 C1642 0.950 . S
H1635 C1644 0.950 . S
H1636 C1646 0.950 . S
H1637 C1648 0.950 . S
H1638 C1650 0.950 . S
H1639 C1651 0.950 . S
C1640 H1632 0.950 . S
C1640 C1641 1.386 . S
C1640 C1642 1.391 . S
C1641 C1640 1.386 . S
C1641 C1645 1.393 . S
C1642 H1634 0.950 . S
C1642 C1640 1.391 . S
C1642 C1643 1.400 . S
C1643 C1642 1.400 . S
C1643 C1644 1.398 . S
C1643 C1649 1.491 . S
C1644 H1635 0.950 . S
C1644 C1643 1.398 . S
C1644 C1645 1.391 . S
C1645 H1633 0.950 . S
C1645 C1641 1.393 . S
C1645 C1644 1.391 . S
C1646 H1636 0.950 . S
C1646 C1647 1.386 . S
C1646 C1648 1.391 . S
C1647 C1646 1.386 . S
C1647 C1651 1.393 . S
C1648 H1637 0.950 . S
C1648 C1646 1.391 . S
C1648 C1649 1.400 . S
C1649 C1643 1.491 . S
C1649 C1648 1.400 . S
C1649 C1650 1.398 . S
C1650 H1638 0.950 . S
C1650 C1649 1.398 . S
C1650 C1651 1.391 . S
C1651 H1639 0.950 . S
C1651 C1647 1.393 . S
C1651 C1650 1.391 . S
H1652 C1660 0.950 . S
H1653 C1665 0.950 . S
H1654 C1662 0.950 . S
H1655 C1664 0.950 . S
H1656 C1666 0.950 . S
H1657 C1668 0.950 . S
H1658 C1670 0.950 . S
H1659 C1671 0.950 . S
C1660 H1652 0.950 . S
C1660 C1661 1.386 . S
C1660 C1662 1.391 . S
C1661 C1660 1.386 . S
C1661 C1665 1.393 . S
C1662 H1654 0.950 . S
C1662 C1660 1.391 . S
C1662 C1663 1.400 . S
C1663 C1662 1.400 . S
C1663 C1664 1.398 . S
C1663 C1669 1.491 . S
C1664 H1655 0.950 . S
C1664 C1663 1.398 . S
C1664 C1665 1.391 . S
C1665 H1653 0.950 . S
C1665 C1661 1.393 . S
C1665 C1664 1.391 . S
C1666 H1656 0.950 . S
C1666 C1667 1.386 . S
C1666 C1668 1.391 . S
C1667 C1666 1.386 . S
C1667 C1671 1.393 . S
C1668 H1657 0.950 . S
C1668 C1666 1.391 . S
C1668 C1669 1.400 . S
C1669 C1663 1.491 . S
C1669 C1668 1.400 . S
C1669 C1670 1.398 . S
C1670 H1658 0.950 . S
C1670 C1669 1.398 . S
C1670 C1671 1.391 . S
C1671 H1659 0.950 . S
C1671 C1667 1.393 . S
C1671 C1670 1.391 . S
H1672 C1680 0.950 1_545 S
H1673 C1685 0.950 . S
H1674 C1682 0.950 . S
H1675 C1684 0.950 . S
H1676 C1686 0.950 . S
H1677 C1688 0.950 . S
H1678 C1690 0.950 . S
H1679 C1691 0.950 . S
C1680 H1672 0.950 1_565 S
C1680 C1681 1.386 1_565 S
C1680 C1682 1.391 . S
C1681 C1680 1.386 1_545 S
C1681 C1685 1.393 1_545 S
C1682 H1674 0.950 . S
C1682 C1680 1.391 . S
C1682 C1683 1.400 . S
C1683 C1682 1.400 . S
C1683 C1684 1.398 . S
C1683 C1689 1.491 . S
C1684 H1675 0.950 . S
C1684 C1683 1.398 . S
C1684 C1685 1.391 . S
C1685 H1673 0.950 . S
C1685 C1681 1.393 1_565 S
C1685 C1684 1.391 . S
C1686 H1676 0.950 . S
C1686 C1687 1.386 . S
C1686 C1688 1.391 . S
C1687 C1686 1.386 . S
C1687 C1691 1.393 . S
C1688 H1677 0.950 . S
C1688 C1686 1.391 . S
C1688 C1689 1.400 . S
C1689 C1683 1.491 . S
C1689 C1688 1.400 . S
C1689 C1690 1.398 . S
C1690 H1678 0.950 . S
C1690 C1689 1.398 . S
C1690 C1691 1.391 . S
C1691 H1679 0.950 . S
C1691 C1687 1.393 . S
C1691 C1690 1.391 . S
H1692 C1700 0.950 . S
H1693 C1705 0.950 . S
H1694 C1702 0.950 . S
H1695 C1704 0.950 . S
H1696 C1706 0.950 . S
H1697 C1708 0.950 . S
H1698 C1710 0.950 . S
H1699 C1711 0.950 . S
C1700 H1692 0.950 . S
C1700 C1701 1.386 . S
C1700 C1702 1.391 . S
C1701 C1700 1.386 . S
C1701 C1705 1.393 . S
C1702 H1694 0.950 . S
C1702 C1700 1.391 . S
C1702 C1703 1.400 . S
C1703 C1702 1.400 . S
C1703 C1704 1.398 . S
C1703 C1709 1.491 . S
C1704 H1695 0.950 . S
C1704 C1703 1.398 . S
C1704 C1705 1.391 . S
C1705 H1693 0.950 . S
C1705 C1701 1.393 . S
C1705 C1704 1.391 . S
C1706 H1696 0.950 . S
C1706 C1707 1.386 . S
C1706 C1708 1.391 . S
C1707 C1706 1.386 . S
C1707 C1711 1.393 . S
C1708 H1697 0.950 . S
C1708 C1706 1.391 . S
C1708 C1709 1.400 . S
C1709 C1703 1.491 . S
C1709 C1708 1.400 . S
C1709 C1710 1.398 . S
C1710 H1698 0.950 . S
C1710 C1709 1.398 . S
C1710 C1711 1.391 . S
C1711 H1699 0.950 . S
C1711 C1707 1.393 . S
C1711 C1710 1.391 . S
H1712 C1720 0.950 . S
H1713 C1725 0.950 . S
H1714 C1722 0.950 . S
H1715 C1724 0.950 . S
H1716 C1726 0.950 . S
H1717 C1728 0.950 . S
H1718 C1730 0.950 . S
H1719 C1731 0.950 . S
C1720 H1712 0.950 . S
C1720 C1721 1.386 . S
C1720 C1722 1.391 . S
C1721 C1720 1.386 . S
C1721 C1725 1.393 . S
C1722 H1714 0.950 . S
C1722 C1720 1.391 . S
C1722 C1723 1.400 . S
C1723 C1722 1.400 . S
C1723 C1724 1.398 . S
C1723 C1729 1.491 . S
C1724 H1715 0.950 . S
C1724 C1723 1.398 . S
C1724 C1725 1.391 . S
C1725 H1713 0.950 . S
C1725 C1721 1.393 . S
C1725 C1724 1.391 . S
C1726 H1716 0.950 . S
C1726 C1727 1.386 . S
C1726 C1728 1.391 . S
C1727 C1726 1.386 . S
C1727 C1731 1.393 . S
C1728 H1717 0.950 . S
C1728 C1726 1.391 . S
C1728 C1729 1.400 . S
C1729 C1723 1.491 . S
C1729 C1728 1.400 . S
C1729 C1730 1.398 . S
C1730 H1718 0.950 . S
C1730 C1729 1.398 . S
C1730 C1731 1.391 . S
C1731 H1719 0.950 . S
C1731 C1727 1.393 . S
C1731 C1730 1.391 . S
H1732 C1740 0.950 . S
H1733 C1745 0.950 . S
H1734 C1742 0.950 . S
H1735 C1744 0.950 . S
H1736 C1746 0.950 . S
H1737 C1748 0.950 . S
H1738 C1750 0.950 . S
H1739 C1751 0.950 . S
C1740 H1732 0.950 . S
C1740 C1741 1.386 . S
C1740 C1742 1.391 . S
C1741 C1740 1.386 . S
C1741 C1745 1.393 . S
C1742 H1734 0.950 . S
C1742 C1740 1.391 . S
C1742 C1743 1.400 . S
C1743 C1742 1.400 . S
C1743 C1744 1.398 . S
C1743 C1749 1.491 . S
C1744 H1735 0.950 . S
C1744 C1743 1.398 . S
C1744 C1745 1.391 . S
C1745 H1733 0.950 . S
C1745 C1741 1.393 . S
C1745 C1744 1.391 . S
C1746 H1736 0.950 . S
C1746 C1747 1.386 . S
C1746 C1748 1.391 . S
C1747 C1746 1.386 . S
C1747 C1751 1.393 . S
C1748 H1737 0.950 . S
C1748 C1746 1.391 . S
C1748 C1749 1.400 . S
C1749 C1743 1.491 . S
C1749 C1748 1.400 . S
C1749 C1750 1.398 . S
C1750 H1738 0.950 . S
C1750 C1749 1.398 . S
C1750 C1751 1.391 . S
C1751 H1739 0.950 . S
C1751 C1747 1.393 . S
C1751 C1750 1.391 . S
H1752 C1760 0.950 . S
H1753 C1765 0.950 . S
H1754 C1762 0.950 . S
H1755 C1764 0.950 . S
H1756 C1766 0.950 . S
H1757 C1768 0.950 . S
H1758 C1770 0.950 . S
H1759 C1771 0.950 . S
C1760 H1752 0.950 . S
C1760 C1761 1.386 . S
C1760 C1762 1.391 . S
C1761 C1760 1.386 . S
C1761 C1765 1.393 . S
C1762 H1754 0.950 . S
C1762 C1760 1.391 . S
C1762 C1763 1.400 . S
C1763 C1762 1.400 . S
C1763 C1764 1.398 . S
C1763 C1769 1.491 . S
C1764 H1755 0.950 . S
C1764 C1763 1.398 . S
C1764 C1765 1.391 . S
C1765 H1753 0.950 . S
C1765 C1761 1.393 . S
C1765 C1764 1.391 . S
C1766 H1756 0.950 . S
C1766 C1767 1.386 . S
C1766 C1768 1.391 . S
C1767 C1766 1.386 . S
C1767 C1771 1.393 . S
C1768 H1757 0.950 . S
C1768 C1766 1.391 . S
C1768 C1769 1.400 . S
C1769 C1763 1.491 . S
C1769 C1768 1.400 . S
C1769 C1770 1.398 . S
C1770 H1758 0.950 . S
C1770 C1769 1.398 . S
C1770 C1771 1.391 . S
C1771 H1759 0.950 . S
C1771 C1767 1.393 . S
C1771 C1770 1.391 . S
H1772 C1780 0.950 . S
H1773 C1785 0.950 . S
H1774 C1782 0.950 . S
H1775 C1784 0.950 . S
H1776 C1786 0.950 . S
H1777 C1788 0.950 . S
H1778 C1790 0.950 . S
H1779 C1791 0.950 . S
C1780 H1772 0.950 . S
C1780 C1781 1.386 . S
C1780 C1782 1.391 . S
C1781 C1780 1.386 . S
C1781 C1785 1.393 . S
C1782 H1774 0.950 . S
C1782 C1780 1.391 . S
C1782 C1783 1.400 . S
C1783 C1782 1.400 . S
C1783 C1784 1.398 . S
C1783 C1789 1.491 . S
C1784 H1775 0.950 . S
C1784 C1783 1.398 . S
C1784 C1785 1.391 . S
C1785 H1773 0.950 . S
C1785 C1781 1.393 . S
C1785 C1784 1.391 . S
C1786 H1776 0.950 . S
C1786 C1787 1.386 . S
C1786 C1788 1.391 . S
C1787 C1786 1.386 . S
C1787 C1791 1.393 . S
C1788 H1777 0.950 . S
C1788 C1786 1.391 . S
C1788 C1789 1.400 . S
C1789 C1783 1.491 . S
C1789 C1788 1.400 . S
C1789 C1790 1.398 . S
C1790 H1778 0.950 . S
C1790 C1789 1.398 . S
C1790 C1791 1.391 . S
C1791 H1779 0.950 . S
C1791 C1787 1.393 . S
C1791 C1790 1.391 . S
H1792 C1800 0.950 . S
H1793 C1805 0.950 1_655 S
H1794 C1802 0.950 . S
H1795 C1804 0.950 1_655 S
H1796 C1806 0.950 . S
H1797 C1808 0.950 1_655 S
H1798 C1810 0.950 . S
H1799 C1811 0.950 . S
C1800 H1792 0.950 . S
C1800 C1801 1.386 . S
C1800 C1802 1.391 . S
C1801 C1800 1.386 . S
C1801 C1805 1.393 . S
C1802 H1794 0.950 . S
C1802 C1800 1.391 . S
C1802 C1803 1.400 . S
C1803 C1802 1.400 . S
C1803 C1804 1.398 . S
C1803 C1809 1.491 . S
C1804 H1795 0.950 1_455 S
C1804 C1803 1.398 . S
C1804 C1805 1.391 . S
C1805 H1793 0.950 1_455 S
C1805 C1801 1.393 . S
C1805 C1804 1.391 . S
C1806 H1796 0.950 . S
C1806 C1807 1.386 . S
C1806 C1808 1.391 . S
C1807 C1806 1.386 . S
C1807 C1811 1.393 . S
C1808 H1797 0.950 1_455 S
C1808 C1806 1.391 . S
C1808 C1809 1.400 . S
C1809 C1803 1.491 . S
C1809 C1808 1.400 . S
C1809 C1810 1.398 . S
C1810 H1798 0.950 . S
C1810 C1809 1.398 . S
C1810 C1811 1.391 . S
C1811 H1799 0.950 . S
C1811 C1807 1.393 . S
C1811 C1810 1.391 . S
H1812 C1820 0.950 . S
H1813 C1825 0.950 1_455 S
H1814 C1822 0.950 . S
H1815 C1824 0.950 . S
H1816 C1826 0.950 . S
H1817 C1828 0.950 . S
H1818 C1830 0.950 . S
H1819 C1831 0.950 . S
C1820 H1812 0.950 . S
C1820 C1821 1.386 . S
C1820 C1822 1.391 . S
C1821 C1820 1.386 . S
C1821 C1825 1.393 . S
C1822 H1814 0.950 . S
C1822 C1820 1.391 . S
C1822 C1823 1.400 . S
C1823 C1822 1.400 . S
C1823 C1824 1.398 . S
C1823 C1829 1.491 . S
C1824 H1815 0.950 . S
C1824 C1823 1.398 . S
C1824 C1825 1.391 . S
C1825 H1813 0.950 1_655 S
C1825 C1821 1.393 . S
C1825 C1824 1.391 . S
C1826 H1816 0.950 . S
C1826 C1827 1.386 . S
C1826 C1828 1.391 . S
C1827 C1826 1.386 . S
C1827 C1831 1.393 . S
C1828 H1817 0.950 . S
C1828 C1826 1.391 . S
C1828 C1829 1.400 . S
C1829 C1823 1.491 . S
C1829 C1828 1.400 . S
C1829 C1830 1.398 . S
C1830 H1818 0.950 . S
C1830 C1829 1.398 . S
C1830 C1831 1.391 . S
C1831 H1819 0.950 . S
C1831 C1827 1.393 . S
C1831 C1830 1.391 . S
H1832 C1840 0.950 . S
H1833 C1845 0.950 . S
H1834 C1842 0.950 . S
H1835 C1844 0.950 . S
H1836 C1846 0.950 . S
H1837 C1848 0.950 . S
H1838 C1850 0.950 1_554 S
H1839 C1851 0.950 . S
C1840 H1832 0.950 . S
C1840 C1841 1.386 . S
C1840 C1842 1.391 . S
C1841 C1840 1.386 . S
C1841 C1845 1.393 . S
C1842 H1834 0.950 . S
C1842 C1840 1.391 . S
C1842 C1843 1.400 . S
C1843 C1842 1.400 . S
C1843 C1844 1.398 . S
C1843 C1849 1.491 . S
C1844 H1835 0.950 . S
C1844 C1843 1.398 . S
C1844 C1845 1.391 . S
C1845 H1833 0.950 . S
C1845 C1841 1.393 . S
C1845 C1844 1.391 . S
C1846 H1836 0.950 . S
C1846 C1847 1.386 . S
C1846 C1848 1.391 . S
C1847 C1846 1.386 . S
C1847 C1851 1.393 1_556 S
C1848 H1837 0.950 . S
C1848 C1846 1.391 . S
C1848 C1849 1.400 . S
C1849 C1843 1.491 . S
C1849 C1848 1.400 . S
C1849 C1850 1.398 . S
C1850 H1838 0.950 1_556 S
C1850 C1849 1.398 . S
C1850 C1851 1.391 1_556 S
C1851 H1839 0.950 . S
C1851 C1847 1.393 1_554 S
C1851 C1850 1.391 1_554 S
H1852 C1860 0.950 . S
H1853 C1865 0.950 . S
H1854 C1862 0.950 . S
H1855 C1864 0.950 . S
H1856 C1866 0.950 . S
H1857 C1868 0.950 . S
H1858 C1870 0.950 . S
H1859 C1871 0.950 . S
C1860 H1852 0.950 . S
C1860 C1861 1.386 . S
C1860 C1862 1.391 . S
C1861 C1860 1.386 . S
C1861 C1865 1.393 . S
C1862 H1854 0.950 . S
C1862 C1860 1.391 . S
C1862 C1863 1.400 . S
C1863 C1862 1.400 . S
C1863 C1864 1.398 . S
C1863 C1869 1.491 . S
C1864 H1855 0.950 . S
C1864 C1863 1.398 . S
C1864 C1865 1.391 . S
C1865 H1853 0.950 . S
C1865 C1861 1.393 . S
C1865 C1864 1.391 . S
C1866 H1856 0.950 . S
C1866 C1867 1.386 . S
C1866 C1868 1.391 . S
C1867 C1866 1.386 . S
C1867 C1871 1.393 . S
C1868 H1857 0.950 . S
C1868 C1866 1.391 . S
C1868 C1869 1.400 . S
C1869 C1863 1.491 . S
C1869 C1868 1.400 . S
C1869 C1870 1.398 . S
C1870 H1858 0.950 . S
C1870 C1869 1.398 . S
C1870 C1871 1.391 . S
C1871 H1859 0.950 . S
C1871 C1867 1.393 . S
C1871 C1870 1.391 . S
H1872 C1880 0.950 . S
H1873 C1885 0.950 . S
H1874 C1882 0.950 . S
H1875 C1884 0.950 . S
H1876 C1886 0.967 . S
H1877 C1888 0.950 . S
H1878 C1890 0.950 . S
H1879 C1891 0.950 . S
C1880 H1872 0.950 . S
C1880 C1881 1.386 . S
C1880 C1882 1.391 . S
C1881 C1880 1.386 . S
C1881 C1885 1.393 . S
C1882 H1874 0.950 . S
C1882 C1880 1.391 . S
C1882 C1883 1.400 . S
C1883 C1882 1.400 . S
C1883 C1884 1.398 . S
C1883 C1889 1.491 . S
C1884 H1875 0.950 . S
C1884 C1883 1.398 . S
C1884 C1885 1.391 . S
C1885 H1873 0.950 . S
C1885 C1881 1.393 . S
C1885 C1884 1.391 . S
C1886 H1876 0.967 . S
C1886 C1887 1.386 . S
C1886 C1888 1.391 . S
C1887 C1886 1.386 . S
C1887 C1891 1.393 . S
C1888 H1877 0.950 . S
C1888 C1886 1.391 . S
C1888 C1889 1.400 . S
C1889 C1883 1.491 . S
C1889 C1888 1.400 . S
C1889 C1890 1.398 . S
C1890 H1878 0.950 . S
C1890 C1889 1.398 . S
C1890 C1891 1.391 . S
C1891 H1879 0.950 . S
C1891 C1887 1.393 . S
C1891 C1890 1.391 . S
H1892 C1900 0.950 . S
H1893 C1905 0.950 . S
H1894 C1902 0.950 . S
H1895 C1904 0.950 . S
H1896 C1906 0.950 . S
H1897 C1908 0.950 . S
H1898 C1910 0.950 . S
H1899 C1911 0.950 . S
C1900 H1892 0.950 . S
C1900 C1901 1.386 . S
C1900 C1902 1.391 . S
C1901 C1900 1.386 . S
C1901 C1905 1.393 . S
C1902 H1894 0.950 . S
C1902 C1900 1.391 . S
C1902 C1903 1.400 . S
C1903 C1902 1.400 . S
C1903 C1904 1.398 . S
C1903 C1909 1.491 . S
C1904 H1895 0.950 . S
C1904 C1903 1.398 . S
C1904 C1905 1.391 . S
C1905 H1893 0.950 . S
C1905 C1901 1.393 . S
C1905 C1904 1.391 . S
C1906 H1896 0.950 . S
C1906 C1907 1.386 . S
C1906 C1908 1.391 . S
C1907 C1906 1.386 . S
C1907 C1911 1.393 . S
C1908 H1897 0.950 . S
C1908 C1906 1.391 . S
C1908 C1909 1.400 . S
C1909 C1903 1.491 . S
C1909 C1908 1.400 . S
C1909 C1910 1.398 . S
C1910 H1898 0.950 . S
C1910 C1909 1.398 . S
C1910 C1911 1.391 . S
C1911 H1899 0.950 . S
C1911 C1907 1.393 . S
C1911 C1910 1.391 . S
H1912 C1920 0.950 . S
H1913 C1925 0.950 . S
H1914 C1922 0.950 . S
H1915 C1924 0.950 . S
H1916 C1926 0.950 . S
H1917 C1928 0.950 . S
H1918 C1930 0.950 . S
H1919 C1931 0.950 . S
C1920 H1912 0.950 . S
C1920 C1921 1.386 . S
C1920 C1922 1.391 . S
C1921 C1920 1.386 . S
C1921 C1925 1.393 . S
C1922 H1914 0.950 . S
C1922 C1920 1.391 . S
C1922 C1923 1.400 . S
C1923 C1922 1.400 . S
C1923 C1924 1.398 . S
C1923 C1929 1.491 . S
C1924 H1915 0.950 . S
C1924 C1923 1.398 . S
C1924 C1925 1.391 . S
C1925 H1913 0.950 . S
C1925 C1921 1.393 . S
C1925 C1924 1.391 . S
C1926 H1916 0.950 . S
C1926 C1927 1.386 . S
C1926 C1928 1.391 . S
C1927 C1926 1.386 . S
C1927 C1931 1.393 . S
C1928 H1917 0.950 . S
C1928 C1926 1.391 . S
C1928 C1929 1.400 . S
C1929 C1923 1.491 . S
C1929 C1928 1.400 . S
C1929 C1930 1.398 . S
C1930 H1918 0.950 . S
C1930 C1929 1.398 . S
C1930 C1931 1.391 . S
C1931 H1919 0.950 . S
C1931 C1927 1.393 . S
C1931 C1930 1.391 . S
H1932 C1940 0.956 . S
H1933 C1945 0.950 . S
H1934 C1942 0.950 . S
H1935 C1944 0.950 . S
H1936 C1946 0.950 . S
H1937 C1948 0.950 . S
H1938 C1950 0.950 . S
H1939 C1951 0.950 . S
C1940 H1932 0.956 . S
C1940 C1941 1.386 . S
C1940 C1942 1.385 1_554 S
C1941 C1940 1.386 . S
C1941 C1945 1.361 1_554 S
C1942 H1934 0.950 . S
C1942 C1940 1.385 1_556 S
C1942 C1943 1.400 . S
C1943 C1942 1.400 . S
C1943 C1944 1.398 . S
C1943 C1949 1.491 . S
C1944 H1935 0.950 . S
C1944 C1943 1.398 . S
C1944 C1945 1.391 . S
C1945 H1933 0.950 . S
C1945 C1941 1.361 1_556 S
C1945 C1944 1.391 . S
C1946 H1936 0.950 . S
C1946 C1947 1.386 . S
C1946 C1948 1.391 . S
C1947 C1946 1.386 . S
C1947 C1951 1.393 . S
C1948 H1937 0.950 . S
C1948 C1946 1.391 . S
C1948 C1949 1.400 . S
C1949 C1943 1.491 . S
C1949 C1948 1.400 . S
C1949 C1950 1.398 . S
C1950 H1938 0.950 . S
C1950 C1949 1.398 . S
C1950 C1951 1.391 . S
C1951 H1939 0.950 . S
C1951 C1947 1.393 . S
C1951 C1950 1.391 . S
H1952 C1960 0.950 . S
H1953 C1965 0.950 . S
H1954 C1962 0.950 . S
H1955 C1964 0.950 . S
H1956 C1966 0.950 . S
H1957 C1968 0.950 . S
H1958 C1970 0.950 1_455 S
H1959 C1971 0.950 . S
C1960 H1952 0.950 . S
C1960 C1961 1.386 . S
C1960 C1962 1.391 . S
C1961 C1960 1.386 . S
C1961 C1965 1.393 . S
C1962 H1954 0.950 . S
C1962 C1960 1.391 . S
C1962 C1963 1.400 . S
C1963 C1962 1.400 . S
C1963 C1964 1.398 . S
C1963 C1969 1.491 . S
C1964 H1955 0.950 . S
C1964 C1963 1.398 . S
C1964 C1965 1.391 . S
C1965 H1953 0.950 . S
C1965 C1961 1.393 . S
C1965 C1964 1.391 . S
C1966 H1956 0.950 . S
C1966 C1967 1.386 . S
C1966 C1968 1.391 . S
C1967 C1966 1.386 . S
C1967 C1971 1.393 1_655 S
C1968 H1957 0.950 . S
C1968 C1966 1.391 . S
C1968 C1969 1.400 . S
C1969 C1963 1.491 . S
C1969 C1968 1.400 . S
C1969 C1970 1.398 . S
C1970 H1958 0.950 1_655 S
C1970 C1969 1.398 . S
C1970 C1971 1.391 1_655 S
C1971 H1959 0.950 . S
C1971 C1967 1.393 1_455 S
C1971 C1970 1.391 1_455 S
H1972 C1980 0.950 . S
H1973 C1985 0.950 . S
H1974 C1982 0.950 . S
H1975 C1984 0.950 . S
H1976 C1986 0.950 . S
H1977 C1988 0.950 . S
H1978 C1990 0.950 . S
H1979 C1991 0.950 . S
C1980 H1972 0.950 . S
C1980 C1981 1.386 . S
C1980 C1982 1.391 . S
C1981 C1980 1.386 . S
C1981 C1985 1.393 . S
C1982 H1974 0.950 . S
C1982 C1980 1.391 . S
C1982 C1983 1.400 . S
C1983 C1982 1.400 . S
C1983 C1984 1.398 . S
C1983 C1989 1.491 . S
C1984 H1975 0.950 . S
C1984 C1983 1.398 . S
C1984 C1985 1.391 . S
C1985 H1973 0.950 . S
C1985 C1981 1.393 . S
C1985 C1984 1.391 . S
C1986 H1976 0.950 . S
C1986 C1987 1.386 . S
C1986 C1988 1.391 . S
C1987 C1986 1.386 . S
C1987 C1991 1.393 . S
C1988 H1977 0.950 . S
C1988 C1986 1.391 . S
C1988 C1989 1.400 . S
C1989 C1983 1.491 . S
C1989 C1988 1.400 . S
C1989 C1990 1.398 . S
C1990 H1978 0.950 . S
C1990 C1989 1.398 . S
C1990 C1991 1.391 . S
C1991 H1979 0.950 . S
C1991 C1987 1.393 . S
C1991 C1990 1.391 . S
H1992 C2000 0.950 . S
H1993 C2005 0.950 . S
H1994 C2002 0.950 . S
H1995 C2004 0.950 . S
H1996 C2006 0.950 . S
H1997 C2008 0.950 . S
H1998 C2010 0.950 . S
H1999 C2011 0.950 . S
C2000 H1992 0.950 . S
C2000 C2001 1.386 . S
C2000 C2002 1.391 . S
C2001 C2000 1.386 . S
C2001 C2005 1.393 . S
C2002 H1994 0.950 . S
C2002 C2000 1.391 . S
C2002 C2003 1.400 . S
C2003 C2002 1.400 . S
C2003 C2004 1.398 . S
C2003 C2009 1.491 . S
C2004 H1995 0.950 . S
C2004 C2003 1.398 . S
C2004 C2005 1.391 . S
C2005 H1993 0.950 . S
C2005 C2001 1.393 . S
C2005 C2004 1.391 . S
C2006 H1996 0.950 . S
C2006 C2007 1.386 . S
C2006 C2008 1.391 . S
C2007 C2006 1.386 . S
C2007 C2011 1.393 . S
C2008 H1997 0.950 . S
C2008 C2006 1.391 . S
C2008 C2009 1.400 . S
C2009 C2003 1.491 . S
C2009 C2008 1.400 . S
C2009 C2010 1.398 . S
C2010 H1998 0.950 . S
C2010 C2009 1.398 . S
C2010 C2011 1.391 . S
C2011 H1999 0.950 . S
C2011 C2007 1.393 . S
C2011 C2010 1.391 . S
H2012 C2020 0.950 . S
H2013 C2025 0.950 . S
H2014 C2022 0.950 . S
H2015 C2024 0.950 . S
H2016 C2026 0.950 . S
H2017 C2028 0.950 . S
H2018 C2030 0.950 . S
H2019 C2031 0.950 . S
C2020 H2012 0.950 . S
C2020 C2021 1.386 . S
C2020 C2022 1.391 . S
C2021 C2020 1.386 . S
C2021 C2025 1.393 . S
C2022 H2014 0.950 . S
C2022 C2020 1.391 . S
C2022 C2023 1.400 . S
C2023 C2022 1.400 . S
C2023 C2024 1.398 . S
C2023 C2029 1.491 . S
C2024 H2015 0.950 . S
C2024 C2023 1.398 . S
C2024 C2025 1.391 . S
C2025 H2013 0.950 . S
C2025 C2021 1.393 . S
C2025 C2024 1.391 . S
C2026 H2016 0.950 . S
C2026 C2027 1.386 . S
C2026 C2028 1.391 . S
C2027 C2026 1.386 . S
C2027 C2031 1.393 . S
C2028 H2017 0.950 . S
C2028 C2026 1.391 . S
C2028 C2029 1.400 . S
C2029 C2023 1.491 . S
C2029 C2028 1.400 . S
C2029 C2030 1.398 . S
C2030 H2018 0.950 . S
C2030 C2029 1.398 . S
C2030 C2031 1.391 . S
C2031 H2019 0.950 . S
C2031 C2027 1.393 . S
C2031 C2030 1.391 . S
H2032 C2040 0.950 . S
H2033 C2045 0.950 . S
H2034 C2042 0.950 . S
H2035 C2044 0.950 . S
H2036 C2046 0.950 . S
H2037 C2048 0.950 . S
H2038 C2050 0.950 . S
H2039 C2051 0.950 1_455 S
C2040 H2032 0.950 . S
C2040 C2041 1.386 . S
C2040 C2042 1.391 . S
C2041 C2040 1.386 . S
C2041 C2045 1.393 . S
C2042 H2034 0.950 . S
C2042 C2040 1.391 . S
C2042 C2043 1.400 . S
C2043 C2042 1.400 . S
C2043 C2044 1.398 . S
C2043 C2049 1.491 . S
C2044 H2035 0.950 . S
C2044 C2043 1.398 . S
C2044 C2045 1.391 . S
C2045 H2033 0.950 . S
C2045 C2041 1.393 . S
C2045 C2044 1.391 . S
C2046 H2036 0.950 . S
C2046 C2047 1.386 . S
C2046 C2048 1.391 . S
C2047 C2046 1.386 . S
C2047 C2051 1.393 . S
C2048 H2037 0.950 . S
C2048 C2046 1.391 . S
C2048 C2049 1.400 . S
C2049 C2043 1.491 . S
C2049 C2048 1.400 . S
C2049 C2050 1.398 . S
C2050 H2038 0.950 . S
C2050 C2049 1.398 . S
C2050 C2051 1.391 . S
C2051 H2039 0.950 1_655 S
C2051 C2047 1.393 . S
C2051 C2050 1.391 . S
H2052 C2060 0.950 . S
H2053 C2065 0.950 . S
H2054 C2062 0.950 . S
H2055 C2064 0.950 . S
H2056 C2066 0.950 . S
H2057 C2068 0.950 . S
H2058 C2070 0.950 . S
H2059 C2071 0.950 . S
C2060 H2052 0.950 . S
C2060 C2061 1.386 . S
C2060 C2062 1.391 . S
C2061 C2060 1.386 . S
C2061 C2065 1.393 . S
C2062 H2054 0.950 . S
C2062 C2060 1.391 . S
C2062 C2063 1.400 . S
C2063 C2062 1.400 . S
C2063 C2064 1.398 . S
C2063 C2069 1.491 . S
C2064 H2055 0.950 . S
C2064 C2063 1.398 . S
C2064 C2065 1.391 . S
C2065 H2053 0.950 . S
C2065 C2061 1.393 . S
C2065 C2064 1.391 . S
C2066 H2056 0.950 . S
C2066 C2067 1.386 . S
C2066 C2068 1.391 . S
C2067 C2066 1.386 . S
C2067 C2071 1.393 . S
C2068 H2057 0.950 . S
C2068 C2066 1.391 . S
C2068 C2069 1.400 . S
C2069 C2063 1.491 . S
C2069 C2068 1.400 . S
C2069 C2070 1.398 . S
C2070 H2058 0.950 . S
C2070 C2069 1.398 . S
C2070 C2071 1.391 . S
C2071 H2059 0.950 . S
C2071 C2067 1.393 . S
C2071 C2070 1.391 . S
H2072 C2080 0.950 . S
H2073 C2085 0.950 . S
H2074 C2082 0.950 . S
H2075 C2084 0.950 . S
H2076 C2086 0.950 . S
H2077 C2088 0.950 . S
H2078 C2090 0.950 . S
H2079 C2091 0.950 . S
C2080 H2072 0.950 . S
C2080 C2081 1.386 . S
C2080 C2082 1.391 . S
C2081 C2080 1.386 . S
C2081 C2085 1.393 . S
C2082 H2074 0.950 . S
C2082 C2080 1.391 . S
C2082 C2083 1.400 . S
C2083 C2082 1.400 . S
C2083 C2084 1.398 . S
C2083 C2089 1.491 . S
C2084 H2075 0.950 . S
C2084 C2083 1.398 . S
C2084 C2085 1.391 . S
C2085 H2073 0.950 . S
C2085 C2081 1.393 . S
C2085 C2084 1.391 . S
C2086 H2076 0.950 . S
C2086 C2087 1.386 . S
C2086 C2088 1.391 . S
C2087 C2086 1.386 . S
C2087 C2091 1.393 . S
C2088 H2077 0.950 . S
C2088 C2086 1.391 . S
C2088 C2089 1.400 . S
C2089 C2083 1.491 . S
C2089 C2088 1.400 . S
C2089 C2090 1.398 . S
C2090 H2078 0.950 . S
C2090 C2089 1.398 . S
C2090 C2091 1.391 . S
C2091 H2079 0.950 . S
C2091 C2087 1.393 . S
C2091 C2090 1.391 . S
H2092 C2100 0.950 . S
H2093 C2105 0.950 . S
H2094 C2102 0.950 . S
H2095 C2104 0.950 . S
H2096 C2106 0.950 . S
H2097 C2108 0.950 . S
H2098 C2110 0.950 . S
H2099 C2111 0.950 . S
C2100 H2092 0.950 . S
C2100 C2101 1.386 . S
C2100 C2102 1.391 . S
C2101 C2100 1.386 . S
C2101 C2105 1.393 . S
C2102 H2094 0.950 . S
C2102 C2100 1.391 . S
C2102 C2103 1.400 . S
C2103 C2102 1.400 . S
C2103 C2104 1.398 . S
C2103 C2109 1.491 . S
C2104 H2095 0.950 . S
C2104 C2103 1.398 . S
C2104 C2105 1.391 . S
C2105 H2093 0.950 . S
C2105 C2101 1.393 . S
C2105 C2104 1.391 . S
C2106 H2096 0.950 . S
C2106 C2107 1.386 . S
C2106 C2108 1.391 1_545 S
C2107 C2106 1.386 . S
C2107 C2111 1.393 1_545 S
C2108 H2097 0.950 . S
C2108 C2106 1.391 1_565 S
C2108 C2109 1.400 . S
C2109 C2103 1.491 . S
C2109 C2108 1.400 . S
C2109 C2110 1.398 . S
C2110 H2098 0.950 . S
C2110 C2109 1.398 . S
C2110 C2111 1.391 . S
C2111 H2099 0.950 . S
C2111 C2107 1.393 1_565 S
C2111 C2110 1.391 . S
H2112 C2120 0.950 . S
H2113 C2125 0.955 . S
H2114 C2122 0.950 . S
H2115 C2124 0.950 . S
H2116 C2126 0.950 . S
H2117 C2128 0.950 . S
H2118 C2130 0.950 . S
H2119 C2131 0.950 . S
C2120 H2112 0.950 . S
C2120 C2121 1.385 1_565 S
C2120 C2122 1.391 . S
C2121 C2120 1.385 1_545 S
C2121 C2125 1.393 . S
C2122 H2114 0.950 . S
C2122 C2120 1.391 . S
C2122 C2123 1.400 . S
C2123 C2122 1.400 . S
C2123 C2124 1.398 . S
C2123 C2129 1.491 . S
C2124 H2115 0.950 . S
C2124 C2123 1.398 . S
C2124 C2125 1.385 1_565 S
C2125 H2113 0.955 . S
C2125 C2121 1.393 . S
C2125 C2124 1.385 1_545 S
C2126 H2116 0.950 . S
C2126 C2127 1.386 . S
C2126 C2128 1.391 . S
C2127 C2126 1.386 . S
C2127 C2131 1.393 . S
C2128 H2117 0.950 . S
C2128 C2126 1.391 . S
C2128 C2129 1.400 . S
C2129 C2123 1.491 . S
C2129 C2128 1.400 . S
C2129 C2130 1.398 . S
C2130 H2118 0.950 . S
C2130 C2129 1.398 . S
C2130 C2131 1.391 . S
C2131 H2119 0.950 . S
C2131 C2127 1.393 . S
C2131 C2130 1.391 . S
H2132 C2140 0.950 . S
H2133 C2145 0.950 . S
H2134 C2142 0.950 . S
H2135 C2144 0.950 . S
H2136 C2146 0.950 . S
H2137 C2148 0.950 . S
H2138 C2150 0.950 . S
H2139 C2151 0.950 . S
C2140 H2132 0.950 . S
C2140 C2141 1.386 . S
C2140 C2142 1.391 . S
C2141 C2140 1.386 . S
C2141 C2145 1.393 . S
C2142 H2134 0.950 . S
C2142 C2140 1.391 . S
C2142 C2143 1.400 . S
C2143 C2142 1.400 . S
C2143 C2144 1.398 . S
C2143 C2149 1.491 . S
C2144 H2135 0.950 . S
C2144 C2143 1.398 . S
C2144 C2145 1.391 . S
C2145 H2133 0.950 . S
C2145 C2141 1.393 . S
C2145 C2144 1.391 . S
C2146 H2136 0.950 . S
C2146 C2147 1.386 . S
C2146 C2148 1.391 . S
C2147 C2146 1.386 . S
C2147 C2151 1.393 . S
C2148 H2137 0.950 . S
C2148 C2146 1.391 . S
C2148 C2149 1.400 . S
C2149 C2143 1.491 . S
C2149 C2148 1.400 . S
C2149 C2150 1.398 . S
C2150 H2138 0.950 . S
C2150 C2149 1.398 . S
C2150 C2151 1.391 . S
C2151 H2139 0.950 . S
C2151 C2147 1.393 . S
C2151 C2150 1.391 . S
H2152 C2160 0.950 . S
H2153 C2165 0.950 . S
H2154 C2162 0.950 . S
H2155 C2164 0.950 . S
H2156 C2166 0.950 . S
H2157 C2168 0.950 . S
H2158 C2170 0.950 . S
H2159 C2171 0.950 . S
C2160 H2152 0.950 . S
C2160 C2161 1.386 . S
C2160 C2162 1.391 . S
C2161 C2160 1.386 . S
C2161 C2165 1.393 . S
C2162 H2154 0.950 . S
C2162 C2160 1.391 . S
C2162 C2163 1.400 . S
C2163 C2162 1.400 . S
C2163 C2164 1.398 . S
C2163 C2169 1.491 . S
C2164 H2155 0.950 . S
C2164 C2163 1.398 . S
C2164 C2165 1.391 . S
C2165 H2153 0.950 . S
C2165 C2161 1.393 . S
C2165 C2164 1.391 . S
C2166 H2156 0.950 . S
C2166 C2167 1.386 . S
C2166 C2168 1.391 . S
C2167 C2166 1.386 . S
C2167 C2171 1.393 . S
C2168 H2157 0.950 . S
C2168 C2166 1.391 . S
C2168 C2169 1.400 . S
C2169 C2163 1.491 . S
C2169 C2168 1.400 . S
C2169 C2170 1.398 . S
C2170 H2158 0.950 . S
C2170 C2169 1.398 . S
C2170 C2171 1.391 . S
C2171 H2159 0.950 . S
C2171 C2167 1.393 . S
C2171 C2170 1.391 . S
H2172 C2180 0.950 . S
H2173 C2185 0.950 . S
H2174 C2182 0.950 . S
H2175 C2184 0.950 . S
H2176 C2186 0.950 . S
H2177 C2188 0.950 1_556 S
H2178 C2190 0.950 . S
H2179 C2191 0.950 . S
C2180 H2172 0.950 . S
C2180 C2181 1.386 . S
C2180 C2182 1.391 . S
C2181 C2180 1.386 . S
C2181 C2185 1.393 . S
C2182 H2174 0.950 . S
C2182 C2180 1.391 . S
C2182 C2183 1.400 . S
C2183 C2182 1.400 . S
C2183 C2184 1.398 . S
C2183 C2189 1.491 . S
C2184 H2175 0.950 . S
C2184 C2183 1.398 . S
C2184 C2185 1.391 . S
C2185 H2173 0.950 . S
C2185 C2181 1.393 . S
C2185 C2184 1.391 . S
C2186 H2176 0.950 . S
C2186 C2187 1.386 1_556 S
C2186 C2188 1.391 1_556 S
C2187 C2186 1.386 1_554 S
C2187 C2191 1.393 . S
C2188 H2177 0.950 1_554 S
C2188 C2186 1.391 1_554 S
C2188 C2189 1.400 . S
C2189 C2183 1.491 . S
C2189 C2188 1.400 . S
C2189 C2190 1.398 . S
C2190 H2178 0.950 . S
C2190 C2189 1.398 . S
C2190 C2191 1.391 . S
C2191 H2179 0.950 . S
C2191 C2187 1.393 . S
C2191 C2190 1.391 . S
H2192 C2200 0.950 . S
H2193 C2205 0.950 . S
H2194 C2202 0.950 . S
H2195 C2204 0.950 . S
H2196 C2206 0.950 . S
H2197 C2208 0.950 . S
H2198 C2210 0.950 . S
H2199 C2211 0.950 . S
C2200 H2192 0.950 . S
C2200 C2201 1.386 . S
C2200 C2202 1.391 . S
C2201 C2200 1.386 . S
C2201 C2205 1.393 . S
C2202 H2194 0.950 . S
C2202 C2200 1.391 . S
C2202 C2203 1.400 . S
C2203 C2202 1.400 . S
C2203 C2204 1.398 . S
C2203 C2209 1.491 . S
C2204 H2195 0.950 . S
C2204 C2203 1.398 . S
C2204 C2205 1.391 . S
C2205 H2193 0.950 . S
C2205 C2201 1.393 . S
C2205 C2204 1.391 . S
C2206 H2196 0.950 . S
C2206 C2207 1.386 . S
C2206 C2208 1.391 . S
C2207 C2206 1.386 . S
C2207 C2211 1.393 . S
C2208 H2197 0.950 . S
C2208 C2206 1.391 . S
C2208 C2209 1.400 . S
C2209 C2203 1.491 . S
C2209 C2208 1.400 . S
C2209 C2210 1.398 . S
C2210 H2198 0.950 . S
C2210 C2209 1.398 . S
C2210 C2211 1.391 . S
C2211 H2199 0.950 . S
C2211 C2207 1.393 . S
C2211 C2210 1.391 . S
H2212 C2220 0.950 . S
H2213 C2225 0.950 . S
H2214 C2222 0.950 . S
H2215 C2224 0.950 . S
H2216 C2226 0.950 . S
H2217 C2228 0.950 . S
H2218 C2230 0.950 . S
H2219 C2231 0.950 . S
C2220 H2212 0.950 . S
C2220 C2221 1.386 . S
C2220 C2222 1.391 . S
C2221 C2220 1.386 . S
C2221 C2225 1.393 . S
C2222 H2214 0.950 . S
C2222 C2220 1.391 . S
C2222 C2223 1.400 . S
C2223 C2222 1.400 . S
C2223 C2224 1.398 . S
C2223 C2229 1.491 . S
C2224 H2215 0.950 . S
C2224 C2223 1.398 . S
C2224 C2225 1.391 . S
C2225 H2213 0.950 . S
C2225 C2221 1.393 . S
C2225 C2224 1.391 . S
C2226 H2216 0.950 . S
C2226 C2227 1.386 . S
C2226 C2228 1.391 . S
C2227 C2226 1.386 . S
C2227 C2231 1.393 . S
C2228 H2217 0.950 . S
C2228 C2226 1.391 . S
C2228 C2229 1.400 . S
C2229 C2223 1.491 . S
C2229 C2228 1.400 . S
C2229 C2230 1.398 . S
C2230 H2218 0.950 . S
C2230 C2229 1.398 . S
C2230 C2231 1.391 . S
C2231 H2219 0.950 . S
C2231 C2227 1.393 . S
C2231 C2230 1.391 . S
H2232 C2240 0.950 . S
H2233 C2245 0.950 . S
H2234 C2242 0.950 . S
H2235 C2244 0.950 . S
H2236 C2246 0.950 . S
H2237 C2248 0.950 . S
H2238 C2250 0.950 . S
H2239 C2251 0.950 . S
C2240 H2232 0.950 . S
C2240 C2241 1.386 . S
C2240 C2242 1.391 . S
C2241 C2240 1.386 . S
C2241 C2245 1.393 . S
C2242 H2234 0.950 . S
C2242 C2240 1.391 . S
C2242 C2243 1.400 . S
C2243 C2242 1.400 . S
C2243 C2244 1.398 . S
C2243 C2249 1.491 . S
C2244 H2235 0.950 . S
C2244 C2243 1.398 . S
C2244 C2245 1.391 . S
C2245 H2233 0.950 . S
C2245 C2241 1.393 . S
C2245 C2244 1.391 . S
C2246 H2236 0.950 . S
C2246 C2247 1.386 . S
C2246 C2248 1.391 . S
C2247 C2246 1.386 . S
C2247 C2251 1.393 . S
C2248 H2237 0.950 . S
C2248 C2246 1.391 . S
C2248 C2249 1.400 . S
C2249 C2243 1.491 . S
C2249 C2248 1.400 . S
C2249 C2250 1.398 . S
C2250 H2238 0.950 . S
C2250 C2249 1.398 . S
C2250 C2251 1.391 . S
C2251 H2239 0.950 . S
C2251 C2247 1.393 . S
C2251 C2250 1.391 . S
H2252 C2260 0.950 . S
H2253 C2265 0.950 . S
H2254 C2262 0.950 . S
H2255 C2264 0.950 . S
H2256 C2266 0.950 . S
H2257 C2268 0.950 . S
H2258 C2270 0.950 . S
H2259 C2271 0.950 . S
C2260 H2252 0.950 . S
C2260 C2261 1.386 . S
C2260 C2262 1.391 . S
C2261 C2260 1.386 . S
C2261 C2265 1.393 . S
C2262 H2254 0.950 . S
C2262 C2260 1.391 . S
C2262 C2263 1.400 . S
C2263 C2262 1.400 . S
C2263 C2264 1.398 . S
C2263 C2269 1.491 . S
C2264 H2255 0.950 . S
C2264 C2263 1.398 . S
C2264 C2265 1.391 . S
C2265 H2253 0.950 . S
C2265 C2261 1.393 . S
C2265 C2264 1.391 . S
C2266 H2256 0.950 . S
C2266 C2267 1.386 . S
C2266 C2268 1.391 . S
C2267 C2266 1.386 . S
C2267 C2271 1.393 . S
C2268 H2257 0.950 . S
C2268 C2266 1.391 . S
C2268 C2269 1.400 . S
C2269 C2263 1.491 . S
C2269 C2268 1.400 . S
C2269 C2270 1.398 . S
C2270 H2258 0.950 . S
C2270 C2269 1.398 . S
C2270 C2271 1.391 . S
C2271 H2259 0.950 . S
C2271 C2267 1.393 . S
C2271 C2270 1.391 . S
H2272 C2280 0.950 . S
H2273 C2285 0.950 1_655 S
H2274 C2282 0.950 . S
H2275 C2284 0.950 1_655 S
H2276 C2286 0.950 . S
H2277 C2288 0.950 1_554 S
H2278 C2290 0.950 . S
H2279 C2291 0.950 . S
C2280 H2272 0.950 . S
C2280 C2281 1.386 . S
C2280 C2282 1.391 . S
C2281 C2280 1.386 . S
C2281 C2285 1.393 . S
C2282 H2274 0.950 . S
C2282 C2280 1.391 . S
C2282 C2283 1.400 . S
C2283 C2282 1.400 . S
C2283 C2284 1.398 . S
C2283 C2289 1.491 . S
C2284 H2275 0.950 1_455 S
C2284 C2283 1.398 . S
C2284 C2285 1.391 . S
C2285 H2273 0.950 1_455 S
C2285 C2281 1.393 . S
C2285 C2284 1.391 . S
C2286 H2276 0.950 . S
C2286 C2287 1.386 1_654 S
C2286 C2288 1.391 1_554 S
C2287 C2286 1.386 1_456 S
C2287 C2291 1.393 . S
C2288 H2277 0.950 1_556 S
C2288 C2286 1.391 1_556 S
C2288 C2289 1.400 1_655 S
C2289 C2283 1.491 . S
C2289 C2288 1.400 1_455 S
C2289 C2290 1.398 . S
C2290 H2278 0.950 . S
C2290 C2289 1.398 . S
C2290 C2291 1.391 . S
C2291 H2279 0.950 . S
C2291 C2287 1.393 . S
C2291 C2290 1.391 . S
H2292 C2300 0.950 . S
H2293 C2305 0.950 . S
H2294 C2302 0.950 . S
H2295 C2304 0.950 . S
H2296 C2306 0.950 . S
H2297 C2308 0.950 . S
H2298 C2310 0.950 . S
H2299 C2311 0.950 . S
C2300 H2292 0.950 . S
C2300 C2301 1.386 . S
C2300 C2302 1.391 . S
C2301 C2300 1.386 . S
C2301 C2305 1.393 . S
C2302 H2294 0.950 . S
C2302 C2300 1.391 . S
C2302 C2303 1.400 . S
C2303 C2302 1.400 . S
C2303 C2304 1.398 . S
C2303 C2309 1.491 . S
C2304 H2295 0.950 . S
C2304 C2303 1.398 . S
C2304 C2305 1.391 . S
C2305 H2293 0.950 . S
C2305 C2301 1.393 . S
C2305 C2304 1.391 . S
C2306 H2296 0.950 . S
C2306 C2307 1.386 . S
C2306 C2308 1.391 . S
C2307 C2306 1.386 . S
C2307 C2311 1.393 . S
C2308 H2297 0.950 . S
C2308 C2306 1.391 . S
C2308 C2309 1.400 . S
C2309 C2303 1.491 . S
C2309 C2308 1.400 . S
C2309 C2310 1.398 . S
C2310 H2298 0.950 . S
C2310 C2309 1.398 . S
C2310 C2311 1.391 . S
C2311 H2299 0.950 . S
C2311 C2307 1.393 . S
C2311 C2310 1.391 . S
H2312 C2320 0.950 . S
H2313 C2325 0.950 . S
H2314 C2322 0.950 . S
H2315 C2324 0.950 . S
H2316 C2326 0.950 . S
H2317 C2328 0.950 . S
H2318 C2330 0.950 . S
H2319 C2331 0.950 . S
C2320 H2312 0.950 . S
C2320 C2321 1.386 . S
C2320 C2322 1.391 . S
C2321 C2320 1.386 . S
C2321 C2325 1.393 . S
C2322 H2314 0.950 . S
C2322 C2320 1.391 . S
C2322 C2323 1.400 . S
C2323 C2322 1.400 . S
C2323 C2324 1.398 . S
C2323 C2329 1.491 . S
C2324 H2315 0.950 . S
C2324 C2323 1.398 . S
C2324 C2325 1.391 . S
C2325 H2313 0.950 . S
C2325 C2321 1.393 . S
C2325 C2324 1.391 . S
C2326 H2316 0.950 . S
C2326 C2327 1.386 . S
C2326 C2328 1.391 . S
C2327 C2326 1.386 . S
C2327 C2331 1.393 . S
C2328 H2317 0.950 . S
C2328 C2326 1.391 . S
C2328 C2329 1.400 . S
C2329 C2323 1.491 . S
C2329 C2328 1.400 . S
C2329 C2330 1.398 . S
C2330 H2318 0.950 . S
C2330 C2329 1.398 . S
C2330 C2331 1.391 . S
C2331 H2319 0.950 . S
C2331 C2327 1.393 . S
C2331 C2330 1.391 . S
H2332 C2340 0.950 . S
H2333 C2345 0.950 . S
H2334 C2342 0.950 . S
H2335 C2344 0.950 . S
H2336 C2346 0.950 . S
H2337 C2348 0.950 . S
H2338 C2350 0.950 . S
H2339 C2351 0.950 . S
C2340 H2332 0.950 . S
C2340 C2341 1.386 . S
C2340 C2342 1.391 . S
C2341 C2340 1.386 . S
C2341 C2345 1.393 . S
C2342 H2334 0.950 . S
C2342 C2340 1.391 . S
C2342 C2343 1.400 . S
C2343 C2342 1.400 . S
C2343 C2344 1.398 . S
C2343 C2349 1.491 . S
C2344 H2335 0.950 . S
C2344 C2343 1.398 . S
C2344 C2345 1.391 . S
C2345 H2333 0.950 . S
C2345 C2341 1.393 . S
C2345 C2344 1.391 . S
C2346 H2336 0.950 . S
C2346 C2347 1.386 . S
C2346 C2348 1.391 . S
C2347 C2346 1.386 . S
C2347 C2351 1.393 . S
C2348 H2337 0.950 . S
C2348 C2346 1.391 . S
C2348 C2349 1.400 . S
C2349 C2343 1.491 . S
C2349 C2348 1.400 . S
C2349 C2350 1.398 . S
C2350 H2338 0.950 . S
C2350 C2349 1.398 . S
C2350 C2351 1.391 . S
C2351 H2339 0.950 . S
C2351 C2347 1.393 . S
C2351 C2350 1.391 . S
H2352 C2360 0.950 . S
H2353 C2365 0.950 . S
H2354 C2362 0.950 . S
H2355 C2364 0.950 . S
H2356 C2366 0.950 . S
H2357 C2368 0.950 . S
H2358 C2370 0.950 . S
H2359 C2371 0.950 . S
C2360 H2352 0.950 . S
C2360 C2361 1.386 . S
C2360 C2362 1.391 . S
C2361 C2360 1.386 . S
C2361 C2365 1.392 1_655 S
C2362 H2354 0.950 . S
C2362 C2360 1.391 . S
C2362 C2363 1.400 1_655 S
C2363 C2362 1.400 1_455 S
C2363 C2364 1.398 . S
C2363 C2369 1.491 . S
C2364 H2355 0.950 . S
C2364 C2363 1.398 . S
C2364 C2365 1.391 . S
C2365 H2353 0.950 . S
C2365 C2361 1.392 1_455 S
C2365 C2364 1.391 . S
C2366 H2356 0.950 . S
C2366 C2367 1.386 . S
C2366 C2368 1.391 . S
C2367 C2366 1.386 . S
C2367 C2371 1.393 1_455 S
C2368 H2357 0.950 . S
C2368 C2366 1.391 . S
C2368 C2369 1.400 . S
C2369 C2363 1.491 . S
C2369 C2368 1.400 . S
C2369 C2370 1.398 1_455 S
C2370 H2358 0.950 . S
C2370 C2369 1.398 1_655 S
C2370 C2371 1.391 . S
C2371 H2359 0.950 . S
C2371 C2367 1.393 1_655 S
C2371 C2370 1.391 . S
H2372 C2380 0.950 . S
H2373 C2385 0.950 . S
H2374 C2382 0.950 . S
H2375 C2384 0.950 . S
H2376 C2386 0.950 . S
H2377 C2388 0.950 . S
H2378 C2390 0.950 . S
H2379 C2391 0.950 . S
C2380 H2372 0.950 . S
C2380 C2381 1.386 . S
C2380 C2382 1.391 . S
C2381 C2380 1.386 . S
C2381 C2385 1.393 . S
C2382 H2374 0.950 . S
C2382 C2380 1.391 . S
C2382 C2383 1.400 . S
C2383 C2382 1.400 . S
C2383 C2384 1.398 . S
C2383 C2389 1.491 . S
C2384 H2375 0.950 . S
C2384 C2383 1.398 . S
C2384 C2385 1.391 . S
C2385 H2373 0.950 . S
C2385 C2381 1.393 . S
C2385 C2384 1.391 . S
C2386 H2376 0.950 . S
C2386 C2387 1.386 . S
C2386 C2388 1.391 . S
C2387 C2386 1.386 . S
C2387 C2391 1.393 . S
C2388 H2377 0.950 . S
C2388 C2386 1.391 . S
C2388 C2389 1.400 . S
C2389 C2383 1.491 . S
C2389 C2388 1.400 . S
C2389 C2390 1.398 . S
C2390 H2378 0.950 . S
C2390 C2389 1.398 . S
C2390 C2391 1.391 . S
C2391 H2379 0.950 . S
C2391 C2387 1.393 . S
C2391 C2390 1.391 . S
H2392 C2400 0.950 . S
H2393 C2405 0.950 . S
H2394 C2402 0.950 . S
H2395 C2404 0.950 . S
H2396 C2406 0.950 . S
H2397 C2408 0.950 . S
H2398 C2410 0.950 . S
H2399 C2411 0.950 . S
C2400 H2392 0.950 . S
C2400 C2401 1.386 . S
C2400 C2402 1.391 . S
C2401 C2400 1.386 . S
C2401 C2405 1.393 . S
C2402 H2394 0.950 . S
C2402 C2400 1.391 . S
C2402 C2403 1.400 . S
C2403 C2402 1.400 . S
C2403 C2404 1.398 . S
C2403 C2409 1.491 . S
C2404 H2395 0.950 . S
C2404 C2403 1.398 . S
C2404 C2405 1.391 . S
C2405 H2393 0.950 . S
C2405 C2401 1.393 . S
C2405 C2404 1.391 . S
C2406 H2396 0.950 . S
C2406 C2407 1.386 . S
C2406 C2408 1.391 . S
C2407 C2406 1.386 . S
C2407 C2411 1.393 . S
C2408 H2397 0.950 . S
C2408 C2406 1.391 . S
C2408 C2409 1.400 . S
C2409 C2403 1.491 . S
C2409 C2408 1.400 . S
C2409 C2410 1.398 . S
C2410 H2398 0.950 . S
C2410 C2409 1.398 . S
C2410 C2411 1.391 . S
C2411 H2399 0.950 . S
C2411 C2407 1.393 . S
C2411 C2410 1.391 . S
H2412 C2420 0.950 . S
H2413 C2425 0.950 . S
H2414 C2422 0.950 . S
H2415 C2424 0.950 . S
H2416 C2426 0.950 . S
H2417 C2428 0.950 . S
H2418 C2430 0.950 . S
H2419 C2431 0.950 . S
C2420 H2412 0.950 . S
C2420 C2421 1.386 . S
C2420 C2422 1.391 . S
C2421 C2420 1.386 . S
C2421 C2425 1.393 . S
C2422 H2414 0.950 . S
C2422 C2420 1.391 . S
C2422 C2423 1.400 . S
C2423 C2422 1.400 . S
C2423 C2424 1.398 . S
C2423 C2429 1.491 . S
C2424 H2415 0.950 . S
C2424 C2423 1.398 . S
C2424 C2425 1.391 . S
C2425 H2413 0.950 . S
C2425 C2421 1.393 . S
C2425 C2424 1.391 . S
C2426 H2416 0.950 . S
C2426 C2427 1.386 . S
C2426 C2428 1.391 . S
C2427 C2426 1.386 . S
C2427 C2431 1.393 . S
C2428 H2417 0.950 . S
C2428 C2426 1.391 . S
C2428 C2429 1.400 . S
C2429 C2423 1.491 . S
C2429 C2428 1.400 . S
C2429 C2430 1.398 . S
C2430 H2418 0.950 . S
C2430 C2429 1.398 . S
C2430 C2431 1.391 . S
C2431 H2419 0.950 . S
C2431 C2427 1.393 . S
C2431 C2430 1.391 . S
H2432 C2440 0.950 . S
H2433 C2445 0.950 . S
H2434 C2442 0.950 . S
H2435 C2444 0.950 . S
H2436 C2446 0.950 . S
H2437 C2448 0.950 . S
H2438 C2450 0.950 . S
H2439 C2451 0.950 . S
C2440 H2432 0.950 . S
C2440 C2441 1.386 . S
C2440 C2442 1.391 . S
C2441 C2440 1.386 . S
C2441 C2445 1.393 . S
C2442 H2434 0.950 . S
C2442 C2440 1.391 . S
C2442 C2443 1.400 . S
C2443 C2442 1.400 . S
C2443 C2444 1.398 . S
C2443 C2449 1.491 . S
C2444 H2435 0.950 . S
C2444 C2443 1.398 . S
C2444 C2445 1.391 . S
C2445 H2433 0.950 . S
C2445 C2441 1.393 . S
C2445 C2444 1.391 . S
C2446 H2436 0.950 . S
C2446 C2447 1.386 . S
C2446 C2448 1.391 . S
C2447 C2446 1.386 . S
C2447 C2451 1.393 . S
C2448 H2437 0.950 . S
C2448 C2446 1.391 . S
C2448 C2449 1.400 . S
C2449 C2443 1.491 . S
C2449 C2448 1.400 . S
C2449 C2450 1.398 . S
C2450 H2438 0.950 . S
C2450 C2449 1.398 . S
C2450 C2451 1.391 . S
C2451 H2439 0.950 . S
C2451 C2447 1.393 . S
C2451 C2450 1.391 . S
H2452 C2460 0.950 . S
H2453 C2465 0.950 . S
H2454 C2462 0.950 . S
H2455 C2464 0.950 . S
H2456 C2466 0.950 . S
H2457 C2468 0.950 . S
H2458 C2470 0.950 . S
H2459 C2471 0.950 . S
C2460 H2452 0.950 . S
C2460 C2461 1.386 . S
C2460 C2462 1.391 . S
C2461 C2460 1.386 . S
C2461 C2465 1.393 . S
C2462 H2454 0.950 . S
C2462 C2460 1.391 . S
C2462 C2463 1.400 . S
C2463 C2462 1.400 . S
C2463 C2464 1.398 . S
C2463 C2469 1.491 . S
C2464 H2455 0.950 . S
C2464 C2463 1.398 . S
C2464 C2465 1.391 . S
C2465 H2453 0.950 . S
C2465 C2461 1.393 . S
C2465 C2464 1.391 . S
C2466 H2456 0.950 . S
C2466 C2467 1.386 . S
C2466 C2468 1.391 . S
C2467 C2466 1.386 . S
C2467 C2471 1.393 . S
C2468 H2457 0.950 . S
C2468 C2466 1.391 . S
C2468 C2469 1.400 . S
C2469 C2463 1.491 . S
C2469 C2468 1.400 . S
C2469 C2470 1.398 . S
C2470 H2458 0.950 . S
C2470 C2469 1.398 . S
C2470 C2471 1.391 . S
C2471 H2459 0.950 . S
C2471 C2467 1.393 . S
C2471 C2470 1.391 . S
H2472 C2480 0.950 . S
H2473 C2485 0.950 . S
H2474 C2482 0.950 . S
H2475 C2484 0.950 . S
H2476 C2486 0.950 . S
H2477 C2488 0.950 . S
H2478 C2490 0.950 . S
H2479 C2491 0.950 . S
C2480 H2472 0.950 . S
C2480 C2481 1.386 . S
C2480 C2482 1.391 . S
C2481 C2480 1.386 . S
C2481 C2485 1.393 . S
C2482 H2474 0.950 . S
C2482 C2480 1.391 . S
C2482 C2483 1.400 . S
C2483 C2482 1.400 . S
C2483 C2484 1.398 . S
C2483 C2489 1.491 . S
C2484 H2475 0.950 . S
C2484 C2483 1.398 . S
C2484 C2485 1.391 . S
C2485 H2473 0.950 . S
C2485 C2481 1.393 . S
C2485 C2484 1.391 . S
C2486 H2476 0.950 . S
C2486 C2487 1.386 . S
C2486 C2488 1.391 . S
C2487 C2486 1.386 . S
C2487 C2491 1.393 . S
C2488 H2477 0.950 . S
C2488 C2486 1.391 . S
C2488 C2489 1.400 . S
C2489 C2483 1.491 . S
C2489 C2488 1.400 . S
C2489 C2490 1.398 . S
C2490 H2478 0.950 . S
C2490 C2489 1.398 . S
C2490 C2491 1.391 . S
C2491 H2479 0.950 . S
C2491 C2487 1.393 . S
C2491 C2490 1.391 . S
H2492 C2500 0.950 . S
H2493 C2505 0.950 . S
H2494 C2502 0.950 . S
H2495 C2504 0.950 . S
H2496 C2506 0.950 . S
H2497 C2508 0.950 . S
H2498 C2510 0.950 . S
H2499 C2511 0.950 . S
C2500 H2492 0.950 . S
C2500 C2501 1.386 . S
C2500 C2502 1.391 . S
C2501 C2500 1.386 . S
C2501 C2505 1.393 . S
C2502 H2494 0.950 . S
C2502 C2500 1.391 . S
C2502 C2503 1.400 . S
C2503 C2502 1.400 . S
C2503 C2504 1.398 . S
C2503 C2509 1.491 . S
C2504 H2495 0.950 . S
C2504 C2503 1.398 . S
C2504 C2505 1.391 . S
C2505 H2493 0.950 . S
C2505 C2501 1.393 . S
C2505 C2504 1.391 . S
C2506 H2496 0.950 . S
C2506 C2507 1.386 . S
C2506 C2508 1.391 . S
C2507 C2506 1.386 . S
C2507 C2511 1.393 . S
C2508 H2497 0.950 . S
C2508 C2506 1.391 . S
C2508 C2509 1.400 . S
C2509 C2503 1.491 . S
C2509 C2508 1.400 . S
C2509 C2510 1.398 . S
C2510 H2498 0.950 . S
C2510 C2509 1.398 . S
C2510 C2511 1.391 . S
C2511 H2499 0.950 . S
C2511 C2507 1.393 . S
C2511 C2510 1.391 . S
H2512 C2520 0.950 . S
H2513 C2525 0.950 . S
H2514 C2522 0.950 . S
H2515 C2524 0.950 . S
H2516 C2526 0.950 . S
H2517 C2528 0.950 . S
H2518 C2530 0.950 . S
H2519 C2531 0.950 . S
C2520 H2512 0.950 . S
C2520 C2521 1.386 . S
C2520 C2522 1.391 . S
C2521 C2520 1.386 . S
C2521 C2525 1.393 . S
C2522 H2514 0.950 . S
C2522 C2520 1.391 . S
C2522 C2523 1.400 . S
C2523 C2522 1.400 . S
C2523 C2524 1.398 . S
C2523 C2529 1.491 . S
C2524 H2515 0.950 . S
C2524 C2523 1.398 . S
C2524 C2525 1.391 . S
C2525 H2513 0.950 . S
C2525 C2521 1.393 . S
C2525 C2524 1.391 . S
C2526 H2516 0.950 . S
C2526 C2527 1.386 . S
C2526 C2528 1.391 . S
C2527 C2526 1.386 . S
C2527 C2531 1.393 . S
C2528 H2517 0.950 . S
C2528 C2526 1.391 . S
C2528 C2529 1.400 . S
C2529 C2523 1.491 . S
C2529 C2528 1.400 . S
C2529 C2530 1.398 . S
C2530 H2518 0.950 . S
C2530 C2529 1.398 . S
C2530 C2531 1.391 . S
C2531 H2519 0.950 . S
C2531 C2527 1.393 . S
C2531 C2530 1.391 . S
H2532 C2540 0.950 . S
H2533 C2545 0.950 . S
H2534 C2542 0.950 . S
H2535 C2544 0.950 . S
H2536 C2546 0.950 . S
H2537 C2548 0.950 . S
H2538 C2550 0.950 . S
H2539 C2551 0.950 . S
C2540 H2532 0.950 . S
C2540 C2541 1.386 . S
C2540 C2542 1.391 . S
C2541 C2540 1.386 . S
C2541 C2545 1.393 . S
C2542 H2534 0.950 . S
C2542 C2540 1.391 . S
C2542 C2543 1.400 . S
C2543 C2542 1.400 . S
C2543 C2544 1.398 . S
C2543 C2549 1.491 . S
C2544 H2535 0.950 . S
C2544 C2543 1.398 . S
C2544 C2545 1.391 . S
C2545 H2533 0.950 . S
C2545 C2541 1.393 . S
C2545 C2544 1.391 . S
C2546 H2536 0.950 . S
C2546 C2547 1.386 . S
C2546 C2548 1.391 . S
C2547 C2546 1.386 . S
C2547 C2551 1.393 . S
C2548 H2537 0.950 . S
C2548 C2546 1.391 . S
C2548 C2549 1.400 . S
C2549 C2543 1.491 . S
C2549 C2548 1.400 . S
C2549 C2550 1.398 . S
C2550 H2538 0.950 . S
C2550 C2549 1.398 . S
C2550 C2551 1.391 . S
C2551 H2539 0.950 . S
C2551 C2547 1.393 . S
C2551 C2550 1.391 . S
H2552 C2560 0.950 . S
H2553 C2565 0.950 . S
H2554 C2562 0.950 . S
H2555 C2564 0.950 . S
H2556 C2566 0.950 . S
H2557 C2568 0.950 . S
H2558 C2570 0.950 . S
H2559 C2571 0.950 . S
C2560 H2552 0.950 . S
C2560 C2561 1.386 . S
C2560 C2562 1.391 . S
C2561 C2560 1.386 . S
C2561 C2565 1.393 . S
C2562 H2554 0.950 . S
C2562 C2560 1.391 . S
C2562 C2563 1.400 . S
C2563 C2562 1.400 . S
C2563 C2564 1.398 . S
C2563 C2569 1.491 . S
C2564 H2555 0.950 . S
C2564 C2563 1.398 . S
C2564 C2565 1.391 . S
C2565 H2553 0.950 . S
C2565 C2561 1.393 . S
C2565 C2564 1.391 . S
C2566 H2556 0.950 . S
C2566 C2567 1.386 . S
C2566 C2568 1.391 . S
C2567 C2566 1.386 . S
C2567 C2571 1.393 . S
C2568 H2557 0.950 . S
C2568 C2566 1.391 . S
C2568 C2569 1.400 . S
C2569 C2563 1.491 . S
C2569 C2568 1.400 . S
C2569 C2570 1.398 . S
C2570 H2558 0.950 . S
C2570 C2569 1.398 . S
C2570 C2571 1.391 . S
C2571 H2559 0.950 . S
C2571 C2567 1.393 . S
C2571 C2570 1.391 . S
H2572 C2580 0.950 . S
H2573 C2585 0.950 . S
H2574 C2582 0.950 . S
H2575 C2584 0.950 . S
H2576 C2586 0.950 . S
H2577 C2588 0.950 . S
H2578 C2590 0.950 . S
H2579 C2591 0.950 . S
C2580 H2572 0.950 . S
C2580 C2581 1.386 . S
C2580 C2582 1.391 . S
C2581 C2580 1.386 . S
C2581 C2585 1.393 . S
C2582 H2574 0.950 . S
C2582 C2580 1.391 . S
C2582 C2583 1.400 . S
C2583 C2582 1.400 . S
C2583 C2584 1.398 . S
C2583 C2589 1.491 . S
C2584 H2575 0.950 . S
C2584 C2583 1.398 . S
C2584 C2585 1.391 . S
C2585 H2573 0.950 . S
C2585 C2581 1.393 . S
C2585 C2584 1.391 . S
C2586 H2576 0.950 . S
C2586 C2587 1.386 . S
C2586 C2588 1.391 . S
C2587 C2586 1.386 . S
C2587 C2591 1.393 . S
C2588 H2577 0.950 . S
C2588 C2586 1.391 . S
C2588 C2589 1.400 . S
C2589 C2583 1.491 . S
C2589 C2588 1.400 . S
C2589 C2590 1.398 . S
C2590 H2578 0.950 . S
C2590 C2589 1.398 . S
C2590 C2591 1.391 . S
C2591 H2579 0.950 . S
C2591 C2587 1.393 . S
C2591 C2590 1.391 . S
H2592 C2600 0.950 . S
H2593 C2605 0.950 . S
H2594 C2602 0.950 . S
H2595 C2604 0.950 . S
H2596 C2606 0.950 . S
H2597 C2608 0.950 . S
H2598 C2610 0.950 . S
H2599 C2611 0.950 . S
C2600 H2592 0.950 . S
C2600 C2601 1.386 . S
C2600 C2602 1.391 . S
C2601 C2600 1.386 . S
C2601 C2605 1.393 . S
C2602 H2594 0.950 . S
C2602 C2600 1.391 . S
C2602 C2603 1.400 . S
C2603 C2602 1.400 . S
C2603 C2604 1.398 . S
C2603 C2609 1.491 . S
C2604 H2595 0.950 . S
C2604 C2603 1.398 . S
C2604 C2605 1.391 . S
C2605 H2593 0.950 . S
C2605 C2601 1.393 . S
C2605 C2604 1.391 . S
C2606 H2596 0.950 . S
C2606 C2607 1.386 . S
C2606 C2608 1.391 . S
C2607 C2606 1.386 . S
C2607 C2611 1.393 . S
C2608 H2597 0.950 . S
C2608 C2606 1.391 . S
C2608 C2609 1.400 . S
C2609 C2603 1.491 . S
C2609 C2608 1.400 . S
C2609 C2610 1.398 . S
C2610 H2598 0.950 . S
C2610 C2609 1.398 . S
C2610 C2611 1.391 . S
C2611 H2599 0.950 . S
C2611 C2607 1.393 . S
C2611 C2610 1.391 . S
H2612 C2620 0.950 . S
H2613 C2625 0.950 . S
H2614 C2622 0.950 . S
H2615 C2624 0.950 1_545 S
H2616 C2626 0.954 . S
H2617 C2628 0.950 . S
H2618 C2630 0.950 . S
H2619 C2631 0.950 . S
C2620 H2612 0.950 . S
C2620 C2621 1.386 . S
C2620 C2622 1.391 . S
C2621 C2620 1.386 . S
C2621 C2625 1.393 . S
C2622 H2614 0.950 . S
C2622 C2620 1.391 . S
C2622 C2623 1.400 . S
C2623 C2622 1.400 . S
C2623 C2624 1.398 . S
C2623 C2629 1.491 . S
C2624 H2615 0.950 1_565 S
C2624 C2623 1.398 . S
C2624 C2625 1.391 . S
C2625 H2613 0.950 . S
C2625 C2621 1.393 . S
C2625 C2624 1.391 . S
C2626 H2616 0.954 . S
C2626 C2627 1.386 . S
C2626 C2628 1.391 . S
C2627 C2626 1.386 . S
C2627 C2631 1.393 1_545 S
C2628 H2617 0.950 . S
C2628 C2626 1.391 . S
C2628 C2629 1.400 1_545 S
C2629 C2623 1.491 . S
C2629 C2628 1.400 1_565 S
C2629 C2630 1.398 . S
C2630 H2618 0.950 . S
C2630 C2629 1.398 . S
C2630 C2631 1.391 . S
C2631 H2619 0.950 . S
C2631 C2627 1.393 1_565 S
C2631 C2630 1.391 . S
H2632 C2640 0.950 . S
H2633 C2645 0.950 . S
H2634 C2642 0.950 . S
H2635 C2644 0.950 . S
H2636 C2646 0.950 . S
H2637 C2648 0.950 . S
H2638 C2650 0.950 . S
H2639 C2651 0.950 . S
C2640 H2632 0.950 . S
C2640 C2641 1.386 . S
C2640 C2642 1.391 . S
C2641 C2640 1.386 . S
C2641 C2645 1.393 . S
C2642 H2634 0.950 . S
C2642 C2640 1.391 . S
C2642 C2643 1.400 . S
C2643 C2642 1.400 . S
C2643 C2644 1.398 . S
C2643 C2649 1.491 . S
C2644 H2635 0.950 . S
C2644 C2643 1.398 . S
C2644 C2645 1.391 . S
C2645 H2633 0.950 . S
C2645 C2641 1.393 . S
C2645 C2644 1.391 . S
C2646 H2636 0.950 . S
C2646 C2647 1.386 . S
C2646 C2648 1.391 . S
C2647 C2646 1.386 . S
C2647 C2651 1.393 . S
C2648 H2637 0.950 . S
C2648 C2646 1.391 . S
C2648 C2649 1.400 . S
C2649 C2643 1.491 . S
C2649 C2648 1.400 . S
C2649 C2650 1.398 . S
C2650 H2638 0.950 . S
C2650 C2649 1.398 . S
C2650 C2651 1.391 . S
C2651 H2639 0.950 . S
C2651 C2647 1.393 . S
C2651 C2650 1.391 . S
H2652 C2660 0.950 . S
H2653 C2665 0.950 . S
H2654 C2662 0.950 1_556 S
H2655 C2664 0.950 . S
H2656 C2666 0.950 . S
H2657 C2668 0.950 . S
H2658 C2670 0.950 . S
H2659 C2671 0.950 . S
C2660 H2652 0.950 . S
C2660 C2661 1.386 1_556 S
C2660 C2662 1.391 1_556 S
C2661 C2660 1.386 1_554 S
C2661 C2665 1.393 . S
C2662 H2654 0.950 1_554 S
C2662 C2660 1.391 1_554 S
C2662 C2663 1.400 . S
C2663 C2662 1.400 . S
C2663 C2664 1.398 . S
C2663 C2669 1.491 . S
C2664 H2655 0.950 . S
C2664 C2663 1.398 . S
C2664 C2665 1.391 . S
C2665 H2653 0.950 . S
C2665 C2661 1.393 . S
C2665 C2664 1.391 . S
C2666 H2656 0.950 . S
C2666 C2667 1.386 . S
C2666 C2668 1.391 . S
C2667 C2666 1.386 . S
C2667 C2671 1.393 . S
C2668 H2657 0.950 . S
C2668 C2666 1.391 . S
C2668 C2669 1.400 . S
C2669 C2663 1.491 . S
C2669 C2668 1.400 . S
C2669 C2670 1.398 . S
C2670 H2658 0.950 . S
C2670 C2669 1.398 . S
C2670 C2671 1.391 . S
C2671 H2659 0.950 . S
C2671 C2667 1.393 . S
C2671 C2670 1.391 . S
H2672 C2680 0.950 . S
H2673 C2685 0.950 . S
H2674 C2682 0.950 . S
H2675 C2684 0.950 . S
H2676 C2686 0.950 . S
H2677 C2688 0.950 . S
H2678 C2690 0.950 . S
H2679 C2691 0.950 . S
C2680 H2672 0.950 . S
C2680 C2681 1.386 . S
C2680 C2682 1.391 . S
C2681 C2680 1.386 . S
C2681 C2685 1.393 . S
C2682 H2674 0.950 . S
C2682 C2680 1.391 . S
C2682 C2683 1.400 . S
C2683 C2682 1.400 . S
C2683 C2684 1.398 . S
C2683 C2689 1.491 . S
C2684 H2675 0.950 . S
C2684 C2683 1.398 . S
C2684 C2685 1.391 . S
C2685 H2673 0.950 . S
C2685 C2681 1.393 . S
C2685 C2684 1.391 . S
C2686 H2676 0.950 . S
C2686 C2687 1.386 . S
C2686 C2688 1.391 . S
C2687 C2686 1.386 . S
C2687 C2691 1.393 . S
C2688 H2677 0.950 . S
C2688 C2686 1.391 . S
C2688 C2689 1.400 . S
C2689 C2683 1.491 . S
C2689 C2688 1.400 . S
C2689 C2690 1.398 . S
C2690 H2678 0.950 . S
C2690 C2689 1.398 . S
C2690 C2691 1.391 . S
C2691 H2679 0.950 . S
C2691 C2687 1.393 . S
C2691 C2690 1.391 . S
H2692 C2700 0.950 . S
H2693 C2705 0.950 . S
H2694 C2702 0.950 . S
H2695 C2704 0.950 . S
H2696 C2706 0.950 . S
H2697 C2708 0.950 . S
H2698 C2710 0.950 . S
H2699 C2711 0.950 . S
C2700 H2692 0.950 . S
C2700 C2701 1.386 . S
C2700 C2702 1.391 . S
C2701 C2700 1.386 . S
C2701 C2705 1.393 . S
C2702 H2694 0.950 . S
C2702 C2700 1.391 . S
C2702 C2703 1.400 . S
C2703 C2702 1.400 . S
C2703 C2704 1.398 . S
C2703 C2709 1.491 . S
C2704 H2695 0.950 . S
C2704 C2703 1.398 . S
C2704 C2705 1.391 . S
C2705 H2693 0.950 . S
C2705 C2701 1.393 . S
C2705 C2704 1.391 . S
C2706 H2696 0.950 . S
C2706 C2707 1.386 . S
C2706 C2708 1.391 . S
C2707 C2706 1.386 . S
C2707 C2711 1.393 . S
C2708 H2697 0.950 . S
C2708 C2706 1.391 . S
C2708 C2709 1.400 . S
C2709 C2703 1.491 . S
C2709 C2708 1.400 . S
C2709 C2710 1.398 . S
C2710 H2698 0.950 . S
C2710 C2709 1.398 . S
C2710 C2711 1.391 . S
C2711 H2699 0.950 . S
C2711 C2707 1.393 . S
C2711 C2710 1.391 . S
C807 C313 1.737 . S
C801 C10 1.758 . S
C821 C13 0.841 . S
C827 C358 0.847 . S
C841 C34 1.607 . S
C847 C382 1.638 . S
C867 N408 0.959 . S
C861 C44 0.955 . S
C881 C21 1.008 . S
C887 N438 1.037 . S
C907 C472 1.446 . S
C901 C26 1.415 . S
C927 C508 1.090 . S
C921 C49 1.091 . S
C941 C5 1.656 . S
C947 C532 1.666 . S
C961 C62 0.879 . S
C967 N326 0.889 . S
C981 C73 0.978 . S
C987 N348 0.996 . S
C1007 C388 0.888 . S
C1001 C88 0.899 . S
C1027 C412 1.650 . S
C1021 C99 1.625 . S
C1041 C60 1.075 . S
C1047 C442 1.088 . S
C1067 C478 0.954 . S
C1061 C75 0.946 . S
C1087 N498 0.992 . S
C1081 C86 0.957 . S
C1107 C538 1.592 . S
C1101 C101 1.606 . S
C1127 C339 1.574 . S
C1121 C96 1.576 . S
C1147 C568 0.862 . S
C1141 C104 0.867 . S
C1161 C122 0.980 . S
C1167 N588 0.983 . S
C1187 C622 1.460 . S
C1181 C130 1.430 . S
C1201 C57 0.810 . S
C1207 N528 0.812 . S
C1227 N378 0.997 1_565 S
C1221 C70 0.992 . S
C1241 C117 0.886 . S
C1247 C658 0.888 . S
C1267 C682 0.837 . S
C1261 C143 0.823 . S
C1281 C164 1.817 . S
C1287 C322 1.819 1_556 S
C1307 C699 0.944 . S
C1301 C169 0.920 . S
C1321 C192 1.737 . S
C1327 C373 1.717 . S
C1341 C200 0.999 . S
C1347 N656 1.021 . S
C1367 N446 1.092 . S
C1361 C179 1.077 . S
C1387 C583 1.516 . S
C1381 C182 1.509 . S
C1407 C519 1.192 . S
C1401 C203 1.154 . S
C1427 C703 1.736 . S
C1421 C161 1.730 . S
C1447 N318 0.934 . S
C1441 C216 0.930 . S
C1461 C231 1.053 . S
C1467 N686 1.052 . S
C1487 C399 0.987 . S
C1481 C242 0.986 . S
C1501 C257 1.753 . S
C1507 C643 1.734 . S
C1521 C218 1.183 . S
C1527 C433 1.160 1_655 S
C1541 C229 1.014 . S
C1547 C609 1.053 . S
C1567 N506 1.031 . S
C1561 C244 1.019 . S
C1581 C255 1.681 . S
C1587 C729 1.680 . S
C1601 C252 1.640 . S
C1607 C328 1.659 . S
C1621 C260 0.925 1_556 S
C1627 C579 0.955 . S
C1641 C278 1.003 . S
C1647 N476 1.037 . S
C1661 C286 1.531 . S
C1667 C613 1.529 . S
C1687 N716 0.854 . S
C1681 C213 0.830 . S
C1707 N386 1.046 . S
C1701 C226 1.006 . S
C1727 C429 0.964 . S
C1721 C273 0.929 . S
C1747 C343 0.949 . S
C1741 C299 0.965 . S
C1761 C36 1.760 . S
C1767 C733 1.742 . S
C1787 C688 0.866 . S
C1781 C39 0.859 . S
C1807 C772 1.644 . S
C1801 C8 1.621 . S
C1821 C18 0.913 1_655 S
C1827 N648 0.952 . S
C1841 C47 0.997 . S
C1847 N558 1.048 . S
C1867 C592 1.462 . S
C1861 C0 1.440 . S
C1887 C628 1.084 . S
C1881 C23 1.083 . S
C1907 C712 1.666 . S
C1901 C31 1.657 . S
C1927 N746 0.888 . S
C1921 C153 0.878 . S
C1941 C112 1.004 . S
C1947 N678 0.996 . S
C1961 C127 0.892 . S
C1967 C778 0.901 1_655 S
C1987 C652 1.642 . S
C1981 C138 1.617 . S
C2007 C562 1.069 . S
C2001 C151 1.052 . S
C2021 C114 0.937 . S
C2027 C598 0.945 . S
C2047 N618 0.989 . S
C2041 C125 0.972 . S
C2061 C140 1.610 . S
C2067 C718 1.592 . S
C2087 C759 1.589 . S
C2081 C135 1.567 . S
C2107 C448 0.866 . S
C2101 C65 0.851 . S
C2127 N468 0.974 . S
C2121 C83 0.959 . S
C2141 C91 1.445 . S
C2147 C502 1.470 . S
C2167 N708 0.820 . S
C2161 C148 0.826 . S
C2181 C109 0.963 . S
C2187 N768 0.986 . S
C2207 C418 0.887 . S
C2201 C78 0.886 . S
C2227 C352 0.838 . S
C2221 C52 0.831 . S
C2241 C190 1.818 . S
C2247 C742 1.816 . S
C2267 C369 0.946 . S
C2261 C195 0.915 . S
C2287 C763 1.716 1_556 S
C2281 C166 1.736 . S
C2301 C174 1.003 . S
C2307 N416 1.021 . S
C2321 C205 1.084 . S
C2327 N566 1.087 . S
C2341 C156 1.519 . S
C2347 C463 1.525 . S
C2361 C177 1.167 1_655 S
C2367 C639 1.186 . S
C2381 C187 1.730 . S
C2387 C523 1.736 . S
C2407 N738 0.941 . S
C2401 C307 0.938 . S
C2421 C270 1.046 . S
C2427 N356 1.049 . S
C2447 C789 0.993 . S
C2441 C281 0.973 . S
C2461 C296 1.757 . S
C2467 C403 1.731 . S
C2481 C309 1.189 . S
C2487 C553 1.178 . S
C2507 C489 1.054 . S
C2501 C268 1.015 . S
C2521 C283 1.032 . S
C2527 N626 1.029 . S
C2547 C549 1.685 . S
C2541 C294 1.675 . S
C2567 C748 1.661 . S
C2561 C291 1.637 . S
C2587 C459 0.956 . S
C2581 C221 0.928 . S
C2601 C239 1.023 . S
C2607 N596 1.041 . S
C2627 C493 1.546 . S
C2621 C247 1.527 . S
C2647 N536 0.850 . S
C2641 C304 0.837 . S
C2661 C265 1.008 . S
C2667 N776 1.045 . S
C2687 C669 0.966 . S
C2681 C234 0.924 . S
C2707 C673 0.938 . S
C2701 C208 0.950 . S
