# Generated by pormake.
# Topology apo, (3,6)-cn, num edge types: 1
# Building blocks:
#     Node 0, Type 0, BuildingBlock: OLANEW_clean_sbu_2, # of connection points: 3
#     Node 1, Type 0, BuildingBlock: OLANEW_clean_sbu_2, # of connection points: 3
#     Node 2, Type 0, BuildingBlock: OLANEW_clean_sbu_2, # of connection points: 3
#     Node 3, Type 0, BuildingBlock: OLANEW_clean_sbu_2, # of connection points: 3
#     Node 4, Type 0, BuildingBlock: OLANEW_clean_sbu_2, # of connection points: 3
#     Node 5, Type 0, BuildingBlock: OLANEW_clean_sbu_2, # of connection points: 3
#     Node 6, Type 0, BuildingBlock: OLANEW_clean_sbu_2, # of connection points: 3
#     Node 7, Type 0, BuildingBlock: OLANEW_clean_sbu_2, # of connection points: 3
#     Node 8, Type 1, BuildingBlock: MIDCAF_clean_sbu_0, # of connection points: 6
#     Node 9, Type 1, BuildingBlock: MIDCAF_clean_sbu_0, # of connection points: 6
#     Node 10, Type 1, BuildingBlock: MIDCAF_clean_sbu_0, # of connection points: 6
#     Node 11, Type 1, BuildingBlock: MIDCAF_clean_sbu_0, # of connection points: 6
#     Edge 12, Type (0, 1), BuildingBlock: OJICUG_clean_linker_0, # of connection points: 2
#     Edge 13, Type (0, 1), BuildingBlock: OJICUG_clean_linker_0, # of connection points: 2
#     Edge 14, Type (0, 1), BuildingBlock: OJICUG_clean_linker_0, # of connection points: 2
#     Edge 15, Type (0, 1), BuildingBlock: OJICUG_clean_linker_0, # of connection points: 2
#     Edge 16, Type (0, 1), BuildingBlock: OJICUG_clean_linker_0, # of connection points: 2
#     Edge 17, Type (0, 1), BuildingBlock: OJICUG_clean_linker_0, # of connection points: 2
#     Edge 18, Type (0, 1), BuildingBlock: OJICUG_clean_linker_0, # of connection points: 2
#     Edge 19, Type (0, 1), BuildingBlock: OJICUG_clean_linker_0, # of connection points: 2
#     Edge 20, Type (0, 1), BuildingBlock: OJICUG_clean_linker_0, # of connection points: 2
#     Edge 21, Type (0, 1), BuildingBlock: OJICUG_clean_linker_0, # of connection points: 2
#     Edge 22, Type (0, 1), BuildingBlock: OJICUG_clean_linker_0, # of connection points: 2
#     Edge 23, Type (0, 1), BuildingBlock: OJICUG_clean_linker_0, # of connection points: 2
#     Edge 24, Type (0, 1), BuildingBlock: OJICUG_clean_linker_0, # of connection points: 2
#     Edge 25, Type (0, 1), BuildingBlock: OJICUG_clean_linker_0, # of connection points: 2
#     Edge 26, Type (0, 1), BuildingBlock: OJICUG_clean_linker_0, # of connection points: 2
#     Edge 27, Type (0, 1), BuildingBlock: OJICUG_clean_linker_0, # of connection points: 2
#     Edge 28, Type (0, 1), BuildingBlock: OJICUG_clean_linker_0, # of connection points: 2
#     Edge 29, Type (0, 1), BuildingBlock: OJICUG_clean_linker_0, # of connection points: 2
#     Edge 30, Type (0, 1), BuildingBlock: OJICUG_clean_linker_0, # of connection points: 2
#     Edge 31, Type (0, 1), BuildingBlock: OJICUG_clean_linker_0, # of connection points: 2
#     Edge 32, Type (0, 1), BuildingBlock: OJICUG_clean_linker_0, # of connection points: 2
#     Edge 33, Type (0, 1), BuildingBlock: OJICUG_clean_linker_0, # of connection points: 2
#     Edge 34, Type (0, 1), BuildingBlock: OJICUG_clean_linker_0, # of connection points: 2
#     Edge 35, Type (0, 1), BuildingBlock: OJICUG_clean_linker_0, # of connection points: 2
# Relax obj value: 0.032
# Max RMSD: 0.081
# Mean RMSD: 0.068
data_MOF--net-apo--node1-OLANEW_clean_sbu_2--node2-MIDCAF_clean_sbu_0--edge1-OJICUG_clean_linker_0
_symmetry_space_group_name_H-M    P1
_symmetry_Int_Tables_number       1
_symmetry_cell_setting            triclinic
loop_
_symmetry_equiv_pos_as_xyz
'x, y, z'
_cell_length_a     28.872562
_cell_length_b     31.97528
_cell_length_c     27.916878
_cell_angle_alpha  88.232554
_cell_angle_beta   90.100705
_cell_angle_gamma 90.252695
loop_
_atom_site_label
_atom_site_type_symbol
_atom_site_fract_x
_atom_site_fract_y
_atom_site_fract_z
_atom_type_partial_charge
O0 O 0.40261 0.38504 0.28496 0.0
Cd1 Cd 0.36499 0.31569 0.29563 0.0
O2 O 0.41626 0.3855 0.36286 0.0
Cd3 Cd 0.38784 0.32817 0.39657 0.0
O4 O 0.40346 0.30509 0.46989 0.0
C5 C 0.38321 0.31935 0.50643 0.0
O6 O 0.34786 0.34463 0.49986 0.0
C7 C 0.41975 0.4028 0.32129 0.0
C8 C 0.28521 0.29332 0.24371 0.0
O9 O 0.28315 0.31741 0.27953 0.0
O10 O 0.32539 0.28136 0.2304 0.0
O11 O 0.14841 0.22864 0.90634 0.0
Cd12 Cd 0.16529 0.22328 0.81955 0.0
O13 O 0.19439 0.17755 0.93012 0.0
Cd14 Cd 0.20312 0.15875 0.85644 0.0
O15 O 0.17959 0.11353 0.8048 0.0
C16 C 0.13657 0.11103 0.79535 0.0
O17 O 0.10842 0.1388 0.81302 0.0
C18 C 0.16637 0.20649 0.94021 0.0
C19 C 0.25067 0.25601 0.78813 0.0
O20 O 0.21442 0.279 0.78885 0.0
O21 O 0.24665 0.21776 0.80257 0.0
O22 O 0.86684 0.12471 0.67839 0.0
Cd23 Cd 0.82525 0.18888 0.65491 0.0
O24 O 0.87708 0.11231 0.60181 0.0
Cd25 Cd 0.84913 0.16793 0.56421 0.0
O26 O 0.86643 0.19893 0.49521 0.0
C27 C 0.85164 0.18511 0.45568 0.0
O28 O 0.82058 0.15493 0.4567 0.0
C29 C 0.88221 0.10149 0.64579 0.0
C30 C 0.76768 0.22792 0.7209 0.0
O31 O 0.75327 0.19666 0.69725 0.0
O32 O 0.81004 0.23927 0.71534 0.0
O33 O 0.65795 0.29648 0.07211 0.0
Cd34 Cd 0.67722 0.30438 0.15746 0.0
O35 O 0.69808 0.35106 0.04631 0.0
Cd36 Cd 0.70371 0.37236 0.11966 0.0
O37 O 0.66723 0.41572 0.16533 0.0
C38 C 0.62725 0.42573 0.14972 0.0
O39 O 0.61161 0.40774 0.11117 0.0
C40 C 0.67321 0.31934 0.0374 0.0
C41 C 0.7577 0.26145 0.18422 0.0
O42 O 0.71823 0.24298 0.18346 0.0
O43 O 0.75926 0.30054 0.17269 0.0
O44 O 0.61622 0.66464 0.75637 0.0
Cd45 Cd 0.64394 0.73714 0.75259 0.0
O46 O 0.62224 0.65862 0.67793 0.0
Cd47 Cd 0.64894 0.71788 0.64748 0.0
O48 O 0.64347 0.73951 0.57215 0.0
C49 C 0.66621 0.72158 0.53958 0.0
O50 O 0.69762 0.6938 0.55241 0.0
C51 C 0.61133 0.6432 0.71901 0.0
C52 C 0.73885 0.74721 0.76854 0.0
O53 O 0.71007 0.75415 0.80224 0.0
O54 O 0.72274 0.73505 0.72846 0.0
O55 O 0.9171 0.88213 0.2959 0.0
Cd56 Cd 0.88287 0.82206 0.34153 0.0
O57 O 0.90113 0.86277 0.22308 0.0
Cd58 Cd 0.89376 0.86126 0.14442 0.0
O59 O 0.89725 0.86725 0.06588 0.0
C60 C 0.89122 0.83786 0.03668 0.0
O61 O 0.88094 0.8001 0.05337 0.0
C62 C 0.92002 0.88897 0.25081 0.0
C63 C 0.79871 0.78616 0.31349 0.0
O64 O 0.79924 0.81553 0.34375 0.0
O65 O 0.83746 0.7753 0.29534 0.0
O66 O 0.13849 0.87197 0.28426 0.0
Cd67 Cd 0.15908 0.79914 0.30166 0.0
O68 O 0.15566 0.88936 0.35803 0.0
Cd69 Cd 0.17275 0.82849 0.39113 0.0
O70 O 0.15913 0.79986 0.46194 0.0
C71 C 0.17662 0.81684 0.49847 0.0
O72 O 0.20678 0.84735 0.49177 0.0
C73 C 0.1417 0.89952 0.31601 0.0
C74 C 0.25156 0.78005 0.28372 0.0
O75 O 0.22023 0.77254 0.25251 0.0
O76 O 0.23918 0.79719 0.32254 0.0
O77 O 0.39948 0.64835 0.80314 0.0
Cd78 Cd 0.36984 0.71972 0.8095 0.0
O79 O 0.40622 0.64198 0.88169 0.0
Cd80 Cd 0.38059 0.70222 0.90555 0.0
O81 O 0.39062 0.73279 0.97398 0.0
C82 C 0.37191 0.71616 0.01119 0.0
O83 O 0.34244 0.68521 0.00582 0.0
C84 C 0.41132 0.62697 0.84035 0.0
C85 C 0.27562 0.73336 0.79105 0.0
O86 O 0.30569 0.73846 0.75762 0.0
O87 O 0.28994 0.72035 0.83237 0.0
Zn88 Zn 0.07315 0.15513 0.29515 0.0
Zn89 Zn 0.98839 0.12168 0.13549 0.0
Zn90 Zn 0.03155 0.14227 0.21525 0.0
C91 C 0.06614 0.17078 0.10922 0.0
C92 C 0.99964 0.04697 0.18359 0.0
O93 O 0.98199 0.17347 0.26421 0.0
O94 O 0.02119 0.17674 0.33207 0.0
C95 C 0.12191 0.20171 0.2265 0.0
O96 O 0.07205 0.17135 0.155 0.0
O97 O 0.0327 0.15078 0.0916 0.0
O98 O 0.98557 0.05973 0.1429 0.0
O99 O 0.01902 0.07297 0.21217 0.0
O100 O 0.11803 0.19665 0.27125 0.0
O101 O 0.09444 0.18227 0.19807 0.0
O102 O 0.05569 0.08108 0.24466 0.0
O103 O 0.09563 0.09745 0.30901 0.0
C104 C 0.08197 0.07026 0.28027 0.0
O105 O 0.96206 0.17103 0.21843 0.0
O106 O 0.9301 0.15093 0.15064 0.0
C107 C 0.98428 0.18294 0.30876 0.0
C108 C 0.9275 0.17044 0.18915 0.0
Zn109 Zn 0.57368 0.38834 0.69685 0.0
Zn110 Zn 0.47854 0.3733 0.85343 0.0
Zn111 Zn 0.52456 0.38025 0.77334 0.0
C112 C 0.48164 0.45842 0.82992 0.0
C113 C 0.42562 0.33342 0.78546 0.0
O114 O 0.59079 0.34453 0.78428 0.0
O115 O 0.6307 0.3604 0.71859 0.0
C116 C 0.55926 0.46887 0.72391 0.0
O117 O 0.50538 0.44429 0.79486 0.0
O118 O 0.46659 0.4336 0.86239 0.0
O119 O 0.42682 0.33984 0.82975 0.0
O120 O 0.45851 0.34674 0.75768 0.0
O121 O 0.57615 0.44963 0.68931 0.0
O122 O 0.53876 0.44829 0.75833 0.0
O123 O 0.4839 0.35125 0.71483 0.0
O124 O 0.53274 0.35673 0.65404 0.0
C125 C 0.49418 0.34467 0.67075 0.0
O126 O 0.56855 0.34744 0.82911 0.0
O127 O 0.52453 0.34435 0.89392 0.0
C128 C 0.6278 0.34144 0.75872 0.0
C129 C 0.56243 0.3368 0.87365 0.0
Zn130 Zn 0.0558 0.87659 0.81497 0.0
Zn131 Zn 0.96924 0.85324 0.67403 0.0
Zn132 Zn 0.01172 0.86648 0.74969 0.0
C133 C 0.96265 0.93922 0.68706 0.0
C134 C 0.92063 0.80969 0.74512 0.0
O135 O 0.07782 0.82943 0.74672 0.0
O136 O 0.08483 0.82089 0.82476 0.0
C137 C 0.0689 0.94727 0.76504 0.0
O138 O 0.99063 0.9293 0.72155 0.0
O139 O 0.94689 0.91122 0.6605 0.0
O140 O 0.92514 0.81175 0.70019 0.0
O141 O 0.94815 0.8307 0.77178 0.0
O142 O 0.0954 0.92246 0.78776 0.0
O143 O 0.02851 0.93427 0.75235 0.0
O144 O 0.9702 0.84596 0.81361 0.0
O145 O 0.00504 0.89171 0.85866 0.0
C146 C 0.97193 0.86657 0.85257 0.0
O147 O 0.05988 0.83395 0.70003 0.0
O148 O 0.01824 0.83173 0.63359 0.0
C149 C 0.09734 0.81111 0.78335 0.0
C150 C 0.05587 0.82508 0.65537 0.0
Zn151 Zn 0.57076 0.67015 0.18885 0.0
Zn152 Zn 0.48406 0.65248 0.34948 0.0
Zn153 Zn 0.52728 0.66032 0.26908 0.0
C154 C 0.56554 0.69146 0.37224 0.0
C155 C 0.49016 0.57192 0.31656 0.0
O156 O 0.48194 0.69363 0.2152 0.0
O157 O 0.52759 0.70674 0.15296 0.0
C158 C 0.62998 0.70291 0.25563 0.0
O159 O 0.57114 0.68873 0.32653 0.0
O160 O 0.52979 0.67654 0.39225 0.0
O161 O 0.47414 0.59127 0.35156 0.0
O162 O 0.51227 0.59215 0.28301 0.0
O163 O 0.62879 0.69462 0.21179 0.0
O164 O 0.59499 0.69353 0.28283 0.0
O165 O 0.54233 0.59692 0.24383 0.0
O166 O 0.57222 0.61028 0.17201 0.0
C167 C 0.5594 0.58424 0.20424 0.0
O168 O 0.46018 0.69441 0.26075 0.0
O169 O 0.43122 0.68885 0.33403 0.0
C170 C 0.48841 0.70927 0.17249 0.0
C171 C 0.4285 0.70288 0.29145 0.0
C172 C 0.12711 0.97213 0.34259 0.0
C173 C 0.12711 0.94327 0.3056 0.0
H174 H 0.11232 0.03424 0.36366 0.0
C175 C 0.11179 0.95648 0.25974 0.0
H176 H 0.13847 0.96313 0.37843 0.0
C177 C 0.09692 0.99772 0.2512 0.0
C178 C 0.09651 0.02628 0.28849 0.0
H179 H 0.11141 0.93506 0.23043 0.0
H180 H 0.08641 0.00732 0.21533 0.0
C181 C 0.11202 0.01302 0.33415 0.0
C182 C 0.44171 0.56749 0.79193 0.0
C183 C 0.43173 0.58463 0.83658 0.0
H184 H 0.46575 0.51393 0.75469 0.0
C185 C 0.44164 0.56085 0.87855 0.0
H186 H 0.43479 0.58504 0.75892 0.0
C187 C 0.45964 0.5206 0.87608 0.0
C188 C 0.46864 0.50305 0.83162 0.0
H189 H 0.43476 0.57299 0.91362 0.0
H190 H 0.46579 0.50284 0.90915 0.0
C191 C 0.45999 0.527 0.78949 0.0
C192 C 0.58643 0.57804 0.76618 0.0
C193 C 0.59312 0.59971 0.72203 0.0
H194 H 0.57012 0.51911 0.80164 0.0
C195 C 0.58358 0.5789 0.67946 0.0
H196 H 0.59315 0.59325 0.79963 0.0
C197 C 0.57015 0.53705 0.6807 0.0
C198 C 0.56566 0.51473 0.72448 0.0
H199 H 0.58757 0.59461 0.64477 0.0
H200 H 0.56455 0.52176 0.64705 0.0
C201 C 0.57289 0.53575 0.76738 0.0
C202 C 0.95909 0.95775 0.26561 0.0
C203 C 0.94453 0.92766 0.2328 0.0
H204 H 0.98842 0.0184 0.27607 0.0
C205 C 0.95387 0.93547 0.1839 0.0
H206 H 0.9533 0.95291 0.3037 0.0
C207 C 0.9742 0.97332 0.16804 0.0
C208 C 0.98661 0.00405 0.20075 0.0
H209 H 0.9453 0.91285 0.15755 0.0
H210 H 0.97915 0.97896 0.12993 0.0
C211 C 0.97983 0.99534 0.24984 0.0
C212 C 0.91394 0.04759 0.70545 0.0
C213 C 0.90599 0.06135 0.65775 0.0
H214 H 0.93838 0.99769 0.75232 0.0
C215 C 0.92039 0.0358 0.62046 0.0
H216 H 0.90335 0.06648 0.73501 0.0
C217 C 0.94057 0.997 0.63041 0.0
C218 C 0.94749 0.98277 0.67786 0.0
H219 H 0.91518 0.04528 0.58326 0.0
H220 H 0.95001 0.97764 0.60079 0.0
C221 C 0.93455 0.00854 0.7154 0.0
C222 C 0.57108 0.48422 0.13912 0.0
C223 C 0.60256 0.4621 0.16872 0.0
H224 H 0.53274 0.54083 0.12754 0.0
C225 C 0.61333 0.47762 0.21403 0.0
H226 H 0.56192 0.47309 0.10408 0.0
C227 C 0.59526 0.51598 0.22803 0.0
C228 C 0.56726 0.53963 0.19636 0.0
H229 H 0.6372 0.46104 0.23771 0.0
H230 H 0.60604 0.52859 0.26189 0.0
C231 C 0.55419 0.52293 0.15252 0.0
C232 C 0.46003 0.46267 0.35906 0.0
C233 C 0.44323 0.44437 0.31718 0.0
H234 H 0.48862 0.51675 0.39119 0.0
C235 C 0.44797 0.46687 0.27323 0.0
H236 H 0.45779 0.44635 0.39357 0.0
C237 C 0.46673 0.50765 0.27193 0.0
C238 C 0.48054 0.52651 0.31459 0.0
H239 H 0.43585 0.4536 0.24024 0.0
H240 H 0.46784 0.52523 0.23815 0.0
C241 C 0.47809 0.50311 0.35779 0.0
C242 C 0.06971 0.06427 0.77519 0.0
C243 C 0.1177 0.07235 0.77477 0.0
H244 H 0.01634 0.0176 0.7723 0.0
C245 C 0.14793 0.04049 0.76132 0.0
H246 H 0.04543 0.08821 0.78515 0.0
C247 C 0.13109 0.0003 0.7537 0.0
C248 C 0.08369 0.99125 0.75887 0.0
H249 H 0.18501 0.04574 0.76 0.0
H250 H 0.15557 0.9756 0.74686 0.0
C251 C 0.05284 0.02392 0.76733 0.0
C252 C 0.10513 0.22781 0.99769 0.0
C253 C 0.14795 0.20847 0.98978 0.0
H254 H 0.04546 0.23089 0.04292 0.0
C255 C 0.16807 0.1845 0.02757 0.0
H256 H 0.08863 0.24655 0.96961 0.0
C257 C 0.14354 0.17633 0.07021 0.0
C258 C 0.09844 0.19163 0.07533 0.0
H259 H 0.20116 0.16937 0.02279 0.0
H260 H 0.1579 0.15477 0.09694 0.0
C261 C 0.08038 0.219 0.0398 0.0
C262 C 0.44977 0.29706 0.55861 0.0
C263 C 0.40592 0.31571 0.5542 0.0
H264 H 0.51198 0.29131 0.59995 0.0
C265 C 0.38763 0.33623 0.59391 0.0
H266 H 0.46478 0.28057 0.52914 0.0
C267 C 0.41466 0.34178 0.63509 0.0
C268 C 0.46044 0.32723 0.63684 0.0
H269 H 0.35376 0.35059 0.59192 0.0
H270 H 0.40132 0.36073 0.66342 0.0
C271 C 0.47683 0.30307 0.59932 0.0
C272 C 0.61763 0.28625 0.98103 0.0
C273 C 0.65487 0.31384 0.9882 0.0
H274 H 0.55899 0.27164 0.93752 0.0
C275 C 0.66824 0.34124 0.95012 0.0
H276 H 0.60664 0.26438 0.0092 0.0
C277 C 0.64131 0.34463 0.90832 0.0
C278 C 0.60044 0.32107 0.90445 0.0
H279 H 0.69711 0.36259 0.95421 0.0
H280 H 0.64956 0.36889 0.8817 0.0
C281 C 0.59041 0.29015 0.93975 0.0
C282 C 0.91653 0.22152 0.41202 0.0
C283 C 0.8776 0.19504 0.41084 0.0
H284 H 0.98092 0.23901 0.37919 0.0
C285 C 0.86878 0.17289 0.36888 0.0
H286 H 0.92406 0.2396 0.4433 0.0
C287 C 0.9013 0.1731 0.33161 0.0
C288 C 0.94308 0.19525 0.33605 0.0
H289 H 0.83877 0.15261 0.3665 0.0
H290 H 0.89594 0.15252 0.30197 0.0
C291 C 0.94907 0.2214 0.37512 0.0
C292 C 0.91144 0.88626 0.96799 0.0
C293 C 0.90182 0.84541 0.98512 0.0
H294 H 0.9401 0.92483 0.9116 0.0
C295 C 0.907 0.81204 0.95372 0.0
H296 H 0.90706 0.91279 0.99075 0.0
C297 C 0.92568 0.81912 0.90772 0.0
C298 C 0.93945 0.8596 0.8928 0.0
H299 H 0.89943 0.78021 0.96568 0.0
H300 H 0.93274 0.79267 0.88557 0.0
C301 C 0.93011 0.89322 0.92245 0.0
C302 C 0.60995 0.74782 0.47746 0.0
C303 C 0.64927 0.72388 0.48927 0.0
H304 H 0.55275 0.75657 0.42937 0.0
C305 C 0.66705 0.69687 0.45485 0.0
H306 H 0.59562 0.76932 0.50268 0.0
C307 C 0.64263 0.69008 0.41227 0.0
C308 C 0.60029 0.71027 0.40368 0.0
H309 H 0.69758 0.67827 0.46253 0.0
H310 H 0.65438 0.66608 0.38863 0.0
C311 C 0.58553 0.74081 0.43524 0.0
C312 C 0.42743 0.75357 0.06436 0.0
C313 C 0.39218 0.72357 0.05908 0.0
H314 H 0.48537 0.77333 0.10623 0.0
C315 C 0.38242 0.69572 0.09781 0.0
H316 H 0.4356 0.77572 0.03543 0.0
C317 C 0.41107 0.69438 0.13827 0.0
C318 C 0.44925 0.72143 0.14121 0.0
H319 H 0.35553 0.67219 0.09504 0.0
H320 H 0.40652 0.669 0.16441 0.0
C321 C 0.45579 0.75242 0.10505 0.0
C322 C 0.16422 0.83738 0.58344 0.0
C323 C 0.15467 0.81 0.54608 0.0
H324 H 0.13982 0.86336 0.64864 0.0
C325 C 0.11845 0.7808 0.55199 0.0
H326 H 0.19202 0.86014 0.5802 0.0
C327 C 0.08907 0.78236 0.59159 0.0
C328 C 0.09564 0.81279 0.62619 0.0
H329 H 0.11041 0.759 0.5242 0.0
H330 H 0.05885 0.76214 0.59305 0.0
C331 C 0.13467 0.83897 0.62303 0.0
C332 C 0.2425 0.23687 0.20038 0.0
C333 C 0.24208 0.27562 0.22313 0.0
H334 H 0.20287 0.18254 0.18183 0.0
C335 C 0.19916 0.29371 0.23349 0.0
H336 H 0.27502 0.22209 0.19186 0.0
C337 C 0.15803 0.27141 0.22681 0.0
C338 C 0.15889 0.23053 0.20983 0.0
H339 H 0.19752 0.32366 0.25052 0.0
H340 H 0.12599 0.28434 0.23993 0.0
C341 C 0.20113 0.21434 0.19402 0.0
C342 C 0.3368 0.24963 0.78057 0.0
C343 C 0.2965 0.27382 0.77464 0.0
H344 H 0.41083 0.2501 0.78691 0.0
C345 C 0.30097 0.31623 0.7604 0.0
H346 H 0.33461 0.2168 0.79112 0.0
C347 C 0.34479 0.33496 0.75703 0.0
C348 C 0.38467 0.31157 0.76764 0.0
H349 H 0.27063 0.33563 0.75507 0.0
H350 H 0.34721 0.3685 0.75059 0.0
C351 C 0.38053 0.26846 0.77742 0.0
C352 C 0.68909 0.2399 0.75635 0.0
C353 C 0.73462 0.25399 0.74748 0.0
H354 H 0.61875 0.25741 0.76994 0.0
C355 C 0.74576 0.29591 0.75638 0.0
H356 H 0.6795 0.20771 0.75025 0.0
C357 C 0.71087 0.3243 0.76719 0.0
C358 C 0.66454 0.31108 0.77054 0.0
H359 H 0.78049 0.30778 0.75017 0.0
H360 H 0.71944 0.35729 0.76821 0.0
C361 C 0.65435 0.26824 0.76826 0.0
C362 C 0.84253 0.25795 0.20469 0.0
C363 C 0.80054 0.23752 0.19434 0.0
H364 H 0.91634 0.25197 0.21305 0.0
C365 C 0.80045 0.19391 0.18974 0.0
H366 H 0.84354 0.29151 0.20883 0.0
C367 C 0.8419 0.1717 0.19138 0.0
C368 C 0.88409 0.19242 0.19893 0.0
H369 H 0.76873 0.17722 0.18196 0.0
H370 H 0.84125 0.13851 0.1846 0.0
C371 C 0.88405 0.2354 0.20753 0.0
C372 C 0.82015 0.73636 0.74323 0.0
C373 C 0.78891 0.75597 0.77354 0.0
H374 H 0.88767 0.73721 0.71233 0.0
C375 C 0.80524 0.78774 0.80318 0.0
H376 H 0.80877 0.71135 0.7206 0.0
C377 C 0.85084 0.80282 0.7983 0.0
C378 C 0.88037 0.78594 0.76402 0.0
H379 H 0.7818 0.80329 0.82702 0.0
H380 H 0.86138 0.83001 0.81786 0.0
C381 C 0.86543 0.75102 0.73874 0.0
C382 C 0.75566 0.73455 0.26478 0.0
C383 C 0.75505 0.76458 0.30038 0.0
H384 H 0.71692 0.69142 0.22362 0.0
C385 C 0.71278 0.77291 0.32339 0.0
H386 H 0.78749 0.7271 0.24647 0.0
C387 C 0.67193 0.75204 0.31032 0.0
C388 C 0.67274 0.72258 0.27406 0.0
H389 H 0.71118 0.79577 0.35117 0.0
H390 H 0.63963 0.75998 0.32733 0.0
C391 C 0.71511 0.71399 0.25173 0.0
C392 C 0.33491 0.78154 0.30725 0.0
C393 C 0.29993 0.76624 0.27742 0.0
H394 H 0.40409 0.77379 0.33365 0.0
C395 C 0.31063 0.73421 0.24586 0.0
H396 H 0.32782 0.80631 0.33179 0.0
C397 C 0.3544 0.71544 0.24721 0.0
C398 C 0.3883 0.72917 0.27917 0.0
H399 H 0.28421 0.72149 0.2228 0.0
H400 H 0.36015 0.68796 0.22652 0.0
C401 C 0.37865 0.76317 0.30809 0.0
C402 C 0.19414 0.73839 0.82048 0.0
C403 C 0.22665 0.74599 0.78385 0.0
H404 H 0.12717 0.75222 0.84824 0.0
C405 C 0.21309 0.76983 0.743 0.0
H406 H 0.20319 0.71981 0.8522 0.0
C407 C 0.16926 0.78853 0.74079 0.0
C408 C 0.1382 0.78357 0.77918 0.0
H409 H 0.2373 0.77627 0.71408 0.0
H410 H 0.16119 0.80934 0.71085 0.0
C411 C 0.15046 0.75693 0.81814 0.0
loop_
_geom_bond_atom_site_label_1
_geom_bond_atom_site_label_2
_geom_bond_distance
_geom_bond_site_symmetry_2
_ccdc_geom_bond_type
O0 Cd1 2.300 . S
O0 C7 1.275 . S
Cd1 O0 2.300 . S
Cd1 O9 2.381 . S
Cd1 O10 2.378 . S
O2 Cd3 2.385 . S
O2 C7 1.255 . S
Cd3 O2 2.385 . S
Cd3 O4 2.317 . S
O4 Cd3 2.317 . S
O4 C5 1.232 . S
C5 O4 1.232 . S
C5 O6 1.218 . S
O6 C5 1.218 . S
C7 O0 1.275 . S
C7 O2 1.255 . S
C8 O9 1.258 . S
C8 O10 1.256 . S
O9 Cd1 2.381 . S
O9 C8 1.258 . S
O10 Cd1 2.378 . S
O10 C8 1.256 . S
O11 Cd12 2.300 . S
O11 C18 1.275 . S
Cd12 O11 2.300 . S
Cd12 O20 2.381 . S
Cd12 O21 2.378 . S
O13 Cd14 2.385 . S
O13 C18 1.255 . S
Cd14 O13 2.385 . S
Cd14 O15 2.317 . S
O15 Cd14 2.317 . S
O15 C16 1.232 . S
C16 O15 1.232 . S
C16 O17 1.218 . S
O17 C16 1.218 . S
C18 O11 1.275 . S
C18 O13 1.255 . S
C19 O20 1.258 . S
C19 O21 1.256 . S
O20 Cd12 2.381 . S
O20 C19 1.258 . S
O21 Cd12 2.378 . S
O21 C19 1.256 . S
O22 Cd23 2.300 . S
O22 C29 1.275 . S
Cd23 O22 2.300 . S
Cd23 O31 2.381 . S
Cd23 O32 2.378 . S
O24 Cd25 2.385 . S
O24 C29 1.255 . S
Cd25 O24 2.385 . S
Cd25 O26 2.317 . S
O26 Cd25 2.317 . S
O26 C27 1.232 . S
C27 O26 1.232 . S
C27 O28 1.218 . S
O28 C27 1.218 . S
C29 O22 1.275 . S
C29 O24 1.255 . S
C30 O31 1.258 . S
C30 O32 1.256 . S
O31 Cd23 2.381 . S
O31 C30 1.258 . S
O32 Cd23 2.378 . S
O32 C30 1.256 . S
O33 Cd34 2.300 . S
O33 C40 1.275 . S
Cd34 O33 2.300 . S
Cd34 O42 2.381 . S
Cd34 O43 2.378 . S
O35 Cd36 2.385 . S
O35 C40 1.255 . S
Cd36 O35 2.385 . S
Cd36 O37 2.317 . S
O37 Cd36 2.317 . S
O37 C38 1.232 . S
C38 O37 1.232 . S
C38 O39 1.218 . S
O39 C38 1.218 . S
C40 O33 1.275 . S
C40 O35 1.255 . S
C41 O42 1.258 . S
C41 O43 1.256 . S
O42 Cd34 2.381 . S
O42 C41 1.258 . S
O43 Cd34 2.378 . S
O43 C41 1.256 . S
O44 Cd45 2.300 . S
O44 C51 1.275 . S
Cd45 O44 2.300 . S
Cd45 O53 2.381 . S
Cd45 O54 2.378 . S
O46 Cd47 2.385 . S
O46 C51 1.255 . S
Cd47 O46 2.385 . S
Cd47 O48 2.317 . S
O48 Cd47 2.317 . S
O48 C49 1.232 . S
C49 O48 1.232 . S
C49 O50 1.218 . S
O50 C49 1.218 . S
C51 O44 1.275 . S
C51 O46 1.255 . S
C52 O53 1.258 . S
C52 O54 1.256 . S
O53 Cd45 2.381 . S
O53 C52 1.258 . S
O54 Cd45 2.378 . S
O54 C52 1.256 . S
O55 Cd56 2.300 . S
O55 C62 1.275 . S
Cd56 O55 2.300 . S
Cd56 O64 2.381 . S
Cd56 O65 2.378 . S
O57 Cd58 2.385 . S
O57 C62 1.255 . S
Cd58 O57 2.385 . S
Cd58 O59 2.317 . S
O59 Cd58 2.317 . S
O59 C60 1.232 1_554 S
C60 O59 1.232 1_556 S
C60 O61 1.218 . S
O61 C60 1.218 . S
C62 O55 1.275 . S
C62 O57 1.255 . S
C63 O64 1.258 . S
C63 O65 1.256 . S
O64 Cd56 2.381 . S
O64 C63 1.258 . S
O65 Cd56 2.378 . S
O65 C63 1.256 . S
O66 Cd67 2.300 . S
O66 C73 1.275 . S
Cd67 O66 2.300 . S
Cd67 O75 2.381 . S
Cd67 O76 2.378 . S
O68 Cd69 2.385 . S
O68 C73 1.255 . S
Cd69 O68 2.385 . S
Cd69 O70 2.317 . S
O70 Cd69 2.317 . S
O70 C71 1.232 . S
C71 O70 1.232 . S
C71 O72 1.218 . S
O72 C71 1.218 . S
C73 O66 1.275 . S
C73 O68 1.255 . S
C74 O75 1.258 . S
C74 O76 1.256 . S
O75 Cd67 2.381 . S
O75 C74 1.258 . S
O76 Cd67 2.378 . S
O76 C74 1.256 . S
O77 Cd78 2.300 . S
O77 C84 1.275 . S
Cd78 O77 2.300 . S
Cd78 O86 2.381 . S
Cd78 O87 2.378 . S
O79 Cd80 2.385 . S
O79 C84 1.255 . S
Cd80 O79 2.385 . S
Cd80 O81 2.317 . S
O81 Cd80 2.317 . S
O81 C82 1.232 1_556 S
C82 O81 1.232 1_554 S
C82 O83 1.218 . S
O83 C82 1.218 . S
C84 O77 1.275 . S
C84 O79 1.255 . S
C85 O86 1.258 . S
C85 O87 1.256 . S
O86 Cd78 2.381 . S
O86 C85 1.258 . S
O87 Cd78 2.378 . S
O87 C85 1.256 . S
Zn88 O94 1.920 . S
Zn88 O100 1.898 . S
Zn88 O103 1.905 . S
Zn89 O97 1.905 1_655 S
Zn89 O98 1.898 . S
Zn89 O106 1.920 . S
Zn90 O93 2.080 1_455 S
Zn90 O96 2.114 . S
Zn90 O99 2.120 1_455 S
Zn90 O101 2.120 . S
Zn90 O102 2.114 . S
Zn90 O105 2.080 1_455 S
C91 O96 1.166 . S
C91 O97 1.182 . S
C92 O98 1.167 . S
C92 O99 1.299 . S
O93 Zn90 2.080 1_655 S
O93 C107 1.305 . S
O94 Zn88 1.920 . S
O94 C107 1.234 1_455 S
C95 O100 1.167 . S
C95 O101 1.299 . S
O96 Zn90 2.114 . S
O96 C91 1.166 . S
O97 Zn89 1.905 1_455 S
O97 C91 1.182 . S
O98 Zn89 1.898 . S
O98 C92 1.167 . S
O99 Zn90 2.120 1_655 S
O99 C92 1.299 . S
O100 Zn88 1.898 . S
O100 C95 1.167 . S
O101 Zn90 2.120 . S
O101 C95 1.299 . S
O102 Zn90 2.114 . S
O102 C104 1.166 . S
O103 Zn88 1.905 . S
O103 C104 1.182 . S
C104 O102 1.166 . S
C104 O103 1.182 . S
O105 Zn90 2.080 1_655 S
O105 C108 1.305 . S
O106 Zn89 1.920 . S
O106 C108 1.234 . S
C107 O93 1.305 . S
C107 O94 1.234 1_655 S
C108 O105 1.305 . S
C108 O106 1.234 . S
Zn109 O115 1.920 . S
Zn109 O121 1.898 . S
Zn109 O124 1.905 . S
Zn110 O118 1.905 . S
Zn110 O119 1.898 . S
Zn110 O127 1.920 . S
Zn111 O114 2.080 . S
Zn111 O117 2.114 . S
Zn111 O120 2.120 . S
Zn111 O122 2.120 . S
Zn111 O123 2.114 . S
Zn111 O126 2.080 . S
C112 O117 1.166 . S
C112 O118 1.182 . S
C113 O119 1.167 . S
C113 O120 1.299 . S
O114 Zn111 2.080 . S
O114 C128 1.305 . S
O115 Zn109 1.920 . S
O115 C128 1.234 . S
C116 O121 1.167 . S
C116 O122 1.299 . S
O117 Zn111 2.114 . S
O117 C112 1.166 . S
O118 Zn110 1.905 . S
O118 C112 1.182 . S
O119 Zn110 1.898 . S
O119 C113 1.167 . S
O120 Zn111 2.120 . S
O120 C113 1.299 . S
O121 Zn109 1.898 . S
O121 C116 1.167 . S
O122 Zn111 2.120 . S
O122 C116 1.299 . S
O123 Zn111 2.114 . S
O123 C125 1.166 . S
O124 Zn109 1.905 . S
O124 C125 1.182 . S
C125 O123 1.166 . S
C125 O124 1.182 . S
O126 Zn111 2.080 . S
O126 C129 1.305 . S
O127 Zn110 1.920 . S
O127 C129 1.234 . S
C128 O114 1.305 . S
C128 O115 1.234 . S
C129 O126 1.305 . S
C129 O127 1.234 . S
Zn130 O136 1.920 . S
Zn130 O142 1.898 . S
Zn130 O145 1.929 . S
Zn131 O139 1.905 . S
Zn131 O140 1.898 . S
Zn131 O148 1.920 1_655 S
Zn132 O135 2.080 . S
Zn132 O138 2.114 1_455 S
Zn132 O141 2.120 1_455 S
Zn132 O143 2.120 . S
Zn132 O144 2.114 1_455 S
Zn132 O147 2.080 . S
C133 O138 1.166 . S
C133 O139 1.182 . S
C134 O140 1.167 . S
C134 O141 1.299 . S
O135 Zn132 2.080 . S
O135 C149 1.305 . S
O136 Zn130 1.920 . S
O136 C149 1.234 . S
C137 O142 1.167 . S
C137 O143 1.299 . S
O138 Zn132 2.114 1_655 S
O138 C133 1.166 . S
O139 Zn131 1.905 . S
O139 C133 1.182 . S
O140 Zn131 1.898 . S
O140 C134 1.167 . S
O141 Zn132 2.120 1_655 S
O141 C134 1.299 . S
O142 Zn130 1.898 . S
O142 C137 1.167 . S
O143 Zn132 2.120 . S
O143 C137 1.299 . S
O144 Zn132 2.114 1_655 S
O144 C146 1.166 . S
O145 Zn130 1.929 . S
O145 C146 1.164 1_455 S
C146 O144 1.166 . S
C146 O145 1.164 1_655 S
O147 Zn132 2.080 . S
O147 C150 1.305 . S
O148 Zn131 1.920 1_455 S
O148 C150 1.234 . S
C149 O135 1.305 . S
C149 O136 1.234 . S
C150 O147 1.305 . S
C150 O148 1.234 . S
Zn151 O157 1.920 . S
Zn151 O163 1.898 . S
Zn151 O166 1.905 . S
Zn152 O160 1.905 . S
Zn152 O161 1.898 . S
Zn152 O169 1.920 . S
Zn153 O156 2.080 . S
Zn153 O159 2.114 . S
Zn153 O162 2.120 . S
Zn153 O164 2.120 . S
Zn153 O165 2.114 . S
Zn153 O168 2.080 . S
C154 O159 1.166 . S
C154 O160 1.182 . S
C155 O161 1.167 . S
C155 O162 1.299 . S
O156 Zn153 2.080 . S
O156 C170 1.305 . S
O157 Zn151 1.920 . S
O157 C170 1.234 . S
C158 O163 1.167 . S
C158 O164 1.299 . S
O159 Zn153 2.114 . S
O159 C154 1.166 . S
O160 Zn152 1.905 . S
O160 C154 1.182 . S
O161 Zn152 1.898 . S
O161 C155 1.167 . S
O162 Zn153 2.120 . S
O162 C155 1.299 . S
O163 Zn151 1.898 . S
O163 C158 1.167 . S
O164 Zn153 2.120 . S
O164 C158 1.299 . S
O165 Zn153 2.114 . S
O165 C167 1.166 . S
O166 Zn151 1.905 . S
O166 C167 1.182 . S
C167 O165 1.166 . S
C167 O166 1.182 . S
O168 Zn153 2.080 . S
O168 C171 1.305 . S
O169 Zn152 1.920 . S
O169 C171 1.234 . S
C170 O156 1.305 . S
C170 O157 1.234 . S
C171 O168 1.305 . S
C171 O169 1.234 . S
C172 C173 1.387 . S
C172 H176 0.950 . S
C172 C181 1.390 . S
C173 C172 1.387 . S
C173 C175 1.387 . S
H174 C181 0.950 1_545 S
C175 C173 1.387 . S
C175 C177 1.390 . S
C175 H179 0.950 . S
H176 C172 0.950 . S
C177 C175 1.390 . S
C177 C178 1.387 1_565 S
C177 H180 0.950 . S
C178 C177 1.387 1_545 S
C178 C181 1.387 1_545 S
H179 C175 0.950 . S
H180 C177 0.950 . S
C181 C172 1.390 . S
C181 H174 0.950 1_565 S
C181 C178 1.387 1_565 S
C182 C183 1.387 . S
C182 H186 0.950 . S
C182 C191 1.390 . S
C183 C182 1.387 . S
C183 C185 1.387 . S
H184 C191 0.950 . S
C185 C183 1.387 . S
C185 C187 1.390 . S
C185 H189 0.950 . S
H186 C182 0.950 . S
C187 C185 1.390 . S
C187 C188 1.387 . S
C187 H190 0.950 . S
C188 C187 1.387 . S
C188 C191 1.387 . S
H189 C185 0.950 . S
H190 C187 0.950 . S
C191 C182 1.390 . S
C191 H184 0.950 . S
C191 C188 1.387 . S
C192 C193 1.387 . S
C192 H196 0.950 . S
C192 C201 1.390 . S
C193 C192 1.387 . S
C193 C195 1.387 . S
H194 C201 0.950 . S
C195 C193 1.387 . S
C195 C197 1.390 . S
C195 H199 0.950 . S
H196 C192 0.950 . S
C197 C195 1.390 . S
C197 C198 1.387 . S
C197 H200 0.950 . S
C198 C197 1.387 . S
C198 C201 1.387 . S
H199 C195 0.950 . S
H200 C197 0.950 . S
C201 C192 1.390 . S
C201 H194 0.950 . S
C201 C198 1.387 . S
C202 C203 1.387 . S
C202 H206 0.950 . S
C202 C211 1.390 . S
C203 C202 1.387 . S
C203 C205 1.387 . S
H204 C211 0.950 . S
C205 C203 1.387 . S
C205 C207 1.390 . S
C205 H209 0.950 . S
H206 C202 0.950 . S
C207 C205 1.390 . S
C207 C208 1.387 1_565 S
C207 H210 0.950 1_565 S
C208 C207 1.387 1_545 S
C208 C211 1.387 1_545 S
H209 C205 0.950 . S
H210 C207 0.950 1_545 S
C211 C202 1.390 . S
C211 H204 0.950 . S
C211 C208 1.387 1_565 S
C212 C213 1.387 . S
C212 H216 0.950 . S
C212 C221 1.390 . S
C213 C212 1.387 . S
C213 C215 1.387 . S
H214 C221 0.950 . S
C215 C213 1.387 . S
C215 C217 1.390 . S
C215 H219 0.950 . S
H216 C212 0.950 . S
C217 C215 1.390 . S
C217 C218 1.387 . S
C217 H220 0.938 1_545 S
C218 C217 1.387 . S
C218 C221 1.387 . S
H219 C215 0.950 . S
H220 C217 0.938 1_565 S
C221 C212 1.390 . S
C221 H214 0.950 . S
C221 C218 1.387 . S
C222 C223 1.387 . S
C222 H226 0.950 . S
C222 C231 1.390 . S
C223 C222 1.387 . S
C223 C225 1.387 . S
H224 C231 0.950 . S
C225 C223 1.387 . S
C225 C227 1.390 . S
C225 H229 0.950 . S
H226 C222 0.950 . S
C227 C225 1.390 . S
C227 C228 1.387 . S
C227 H230 0.950 . S
C228 C227 1.387 . S
C228 C231 1.387 . S
H229 C225 0.950 . S
H230 C227 0.950 . S
C231 C222 1.390 . S
C231 H224 0.950 . S
C231 C228 1.387 . S
C232 C233 1.387 . S
C232 H236 0.950 . S
C232 C241 1.390 . S
C233 C232 1.387 . S
C233 C235 1.387 . S
H234 C241 0.950 . S
C235 C233 1.387 . S
C235 C237 1.390 . S
C235 H239 0.950 . S
H236 C232 0.950 . S
C237 C235 1.390 . S
C237 C238 1.387 . S
C237 H240 0.950 . S
C238 C237 1.387 . S
C238 C241 1.387 . S
H239 C235 0.950 . S
H240 C237 0.950 . S
C241 C232 1.390 . S
C241 H234 0.950 . S
C241 C238 1.387 . S
C242 C243 1.387 . S
C242 H246 0.950 . S
C242 C251 1.390 . S
C243 C242 1.387 . S
C243 C245 1.387 . S
H244 C251 0.950 1_565 S
C245 C243 1.387 . S
C245 C247 1.390 . S
C245 H249 0.950 . S
H246 C242 0.950 . S
C247 C245 1.390 . S
C247 C248 1.387 . S
C247 H250 0.950 . S
C248 C247 1.387 . S
C248 C251 1.387 . S
H249 C245 0.950 . S
H250 C247 0.950 . S
C251 C242 1.390 . S
C251 H244 0.950 1_545 S
C251 C248 1.387 . S
C252 C253 1.387 . S
C252 H256 0.950 . S
C252 C261 1.390 . S
C253 C252 1.387 . S
C253 C255 1.387 . S
H254 C261 0.950 . S
C255 C253 1.387 . S
C255 C257 1.390 . S
C255 H259 0.950 1_554 S
H256 C252 0.950 . S
C257 C255 1.390 . S
C257 C258 1.387 . S
C257 H260 0.950 . S
C258 C257 1.387 . S
C258 C261 1.387 . S
H259 C255 0.950 1_556 S
H260 C257 0.950 . S
C261 C252 1.390 . S
C261 H254 0.950 . S
C261 C258 1.387 . S
C262 C263 1.387 . S
C262 H266 0.950 . S
C262 C271 1.390 . S
C263 C262 1.387 . S
C263 C265 1.387 . S
H264 C271 0.950 . S
C265 C263 1.387 . S
C265 C267 1.390 . S
C265 H269 0.950 . S
H266 C262 0.950 . S
C267 C265 1.390 . S
C267 C268 1.387 . S
C267 H270 0.950 . S
C268 C267 1.387 . S
C268 C271 1.387 . S
H269 C265 0.950 . S
H270 C267 0.950 . S
C271 C262 1.390 . S
C271 H264 0.950 . S
C271 C268 1.387 . S
C272 C273 1.387 . S
C272 H276 0.950 . S
C272 C281 1.390 . S
C273 C272 1.387 . S
C273 C275 1.387 . S
H274 C281 0.950 . S
C275 C273 1.387 . S
C275 C277 1.390 . S
C275 H279 0.950 . S
H276 C272 0.950 . S
C277 C275 1.390 . S
C277 C278 1.387 . S
C277 H280 0.950 . S
C278 C277 1.387 . S
C278 C281 1.387 . S
H279 C275 0.950 . S
H280 C277 0.950 . S
C281 C272 1.390 . S
C281 H274 0.950 . S
C281 C278 1.387 . S
C282 C283 1.387 . S
C282 H286 0.950 . S
C282 C291 1.390 . S
C283 C282 1.387 . S
C283 C285 1.387 . S
H284 C291 0.950 . S
C285 C283 1.387 . S
C285 C287 1.390 . S
C285 H289 0.950 . S
H286 C282 0.950 . S
C287 C285 1.390 . S
C287 C288 1.387 . S
C287 H290 0.950 . S
C288 C287 1.387 . S
C288 C291 1.387 . S
H289 C285 0.950 . S
H290 C287 0.950 . S
C291 C282 1.390 . S
C291 H284 0.950 . S
C291 C288 1.387 . S
C292 C293 1.387 . S
C292 H296 0.950 . S
C292 C301 1.390 . S
C293 C292 1.387 . S
C293 C295 1.387 . S
H294 C301 0.950 . S
C295 C293 1.387 . S
C295 C297 1.390 . S
C295 H299 0.950 . S
H296 C292 0.950 . S
C297 C295 1.390 . S
C297 C298 1.387 . S
C297 H300 0.950 . S
C298 C297 1.387 . S
C298 C301 1.387 . S
H299 C295 0.950 . S
H300 C297 0.950 . S
C301 C292 1.390 . S
C301 H294 0.950 . S
C301 C298 1.387 . S
C302 C303 1.387 . S
C302 H306 0.950 . S
C302 C311 1.390 . S
C303 C302 1.387 . S
C303 C305 1.387 . S
H304 C311 0.950 . S
C305 C303 1.387 . S
C305 C307 1.390 . S
C305 H309 0.950 . S
H306 C302 0.950 . S
C307 C305 1.390 . S
C307 C308 1.387 . S
C307 H310 0.950 . S
C308 C307 1.387 . S
C308 C311 1.387 . S
H309 C305 0.950 . S
H310 C307 0.950 . S
C311 C302 1.390 . S
C311 H304 0.950 . S
C311 C308 1.387 . S
C312 C313 1.387 . S
C312 H316 0.950 . S
C312 C321 1.390 . S
C313 C312 1.387 . S
C313 C315 1.387 . S
H314 C321 0.950 . S
C315 C313 1.387 . S
C315 C317 1.390 . S
C315 H319 0.950 . S
H316 C312 0.950 . S
C317 C315 1.390 . S
C317 C318 1.387 . S
C317 H320 0.950 . S
C318 C317 1.387 . S
C318 C321 1.387 . S
H319 C315 0.950 . S
H320 C317 0.950 . S
C321 C312 1.390 . S
C321 H314 0.950 . S
C321 C318 1.387 . S
C322 C323 1.387 . S
C322 H326 0.950 . S
C322 C331 1.390 . S
C323 C322 1.387 . S
C323 C325 1.387 . S
H324 C331 0.950 . S
C325 C323 1.387 . S
C325 C327 1.390 . S
C325 H329 0.950 . S
H326 C322 0.950 . S
C327 C325 1.390 . S
C327 C328 1.387 . S
C327 H330 0.950 . S
C328 C327 1.387 . S
C328 C331 1.387 . S
H329 C325 0.950 . S
H330 C327 0.950 . S
C331 C322 1.390 . S
C331 H324 0.950 . S
C331 C328 1.387 . S
C332 C333 1.387 . S
C332 H336 0.950 . S
C332 C341 1.390 . S
C333 C332 1.387 . S
C333 C335 1.387 . S
H334 C341 0.950 . S
C335 C333 1.387 . S
C335 C337 1.390 . S
C335 H339 0.950 . S
H336 C332 0.950 . S
C337 C335 1.390 . S
C337 C338 1.387 . S
C337 H340 0.950 . S
C338 C337 1.387 . S
C338 C341 1.387 . S
H339 C335 0.950 . S
H340 C337 0.950 . S
C341 C332 1.390 . S
C341 H334 0.950 . S
C341 C338 1.387 . S
C342 C343 1.387 . S
C342 H346 0.950 . S
C342 C351 1.390 . S
C343 C342 1.387 . S
C343 C345 1.387 . S
H344 C351 0.950 . S
C345 C343 1.387 . S
C345 C347 1.390 . S
C345 H349 0.950 . S
H346 C342 0.950 . S
C347 C345 1.390 . S
C347 C348 1.387 . S
C347 H350 0.950 . S
C348 C347 1.387 . S
C348 C351 1.387 . S
H349 C345 0.950 . S
H350 C347 0.950 . S
C351 C342 1.390 . S
C351 H344 0.950 . S
C351 C348 1.387 . S
C352 C353 1.387 . S
C352 H356 0.950 . S
C352 C361 1.390 . S
C353 C352 1.387 . S
C353 C355 1.387 . S
H354 C361 0.950 . S
C355 C353 1.387 . S
C355 C357 1.390 . S
C355 H359 0.950 . S
H356 C352 0.950 . S
C357 C355 1.390 . S
C357 C358 1.387 . S
C357 H360 0.950 . S
C358 C357 1.387 . S
C358 C361 1.387 . S
H359 C355 0.950 . S
H360 C357 0.950 . S
C361 C352 1.390 . S
C361 H354 0.950 . S
C361 C358 1.387 . S
C362 C363 1.387 . S
C362 H366 0.950 . S
C362 C371 1.390 . S
C363 C362 1.387 . S
C363 C365 1.387 . S
H364 C371 0.950 . S
C365 C363 1.387 . S
C365 C367 1.390 . S
C365 H369 0.950 . S
H366 C362 0.950 . S
C367 C365 1.390 . S
C367 C368 1.387 . S
C367 H370 0.950 . S
C368 C367 1.387 . S
C368 C371 1.387 . S
H369 C365 0.950 . S
H370 C367 0.950 . S
C371 C362 1.390 . S
C371 H364 0.950 . S
C371 C368 1.387 . S
C372 C373 1.387 . S
C372 H376 0.950 . S
C372 C381 1.390 . S
C373 C372 1.387 . S
C373 C375 1.387 . S
H374 C381 0.950 . S
C375 C373 1.387 . S
C375 C377 1.390 . S
C375 H379 0.950 . S
H376 C372 0.950 . S
C377 C375 1.390 . S
C377 C378 1.387 . S
C377 H380 0.950 . S
C378 C377 1.387 . S
C378 C381 1.387 . S
H379 C375 0.950 . S
H380 C377 0.950 . S
C381 C372 1.390 . S
C381 H374 0.950 . S
C381 C378 1.387 . S
C382 C383 1.387 . S
C382 H386 0.950 . S
C382 C391 1.390 . S
C383 C382 1.387 . S
C383 C385 1.387 . S
H384 C391 0.950 . S
C385 C383 1.387 . S
C385 C387 1.390 . S
C385 H389 0.950 . S
H386 C382 0.950 . S
C387 C385 1.390 . S
C387 C388 1.387 . S
C387 H390 0.950 . S
C388 C387 1.387 . S
C388 C391 1.387 . S
H389 C385 0.950 . S
H390 C387 0.950 . S
C391 C382 1.390 . S
C391 H384 0.950 . S
C391 C388 1.387 . S
C392 C393 1.387 . S
C392 H396 0.950 . S
C392 C401 1.390 . S
C393 C392 1.387 . S
C393 C395 1.387 . S
H394 C401 0.950 . S
C395 C393 1.387 . S
C395 C397 1.390 . S
C395 H399 0.950 . S
H396 C392 0.950 . S
C397 C395 1.390 . S
C397 C398 1.387 . S
C397 H400 0.950 . S
C398 C397 1.387 . S
C398 C401 1.387 . S
H399 C395 0.950 . S
H400 C397 0.950 . S
C401 C392 1.390 . S
C401 H394 0.950 . S
C401 C398 1.387 . S
C402 C403 1.387 . S
C402 H406 0.950 . S
C402 C411 1.390 . S
C403 C402 1.387 . S
C403 C405 1.387 . S
H404 C411 0.950 . S
C405 C403 1.387 . S
C405 C407 1.390 . S
C405 H409 0.950 . S
H406 C402 0.950 . S
C407 C405 1.390 . S
C407 C408 1.387 . S
C407 H410 0.950 . S
C408 C407 1.387 . S
C408 C411 1.387 . S
H409 C405 0.950 . S
H410 C407 0.950 . S
C411 C402 1.390 . S
C411 H404 0.950 . S
C411 C408 1.387 . S
C173 C73 1.421 . S
C178 C104 1.382 . S
C188 C112 1.521 . S
C183 C84 1.581 . S
C198 C116 1.376 . S
C193 C51 1.413 . S
C203 C62 1.569 . S
C208 C92 1.507 . S
C218 C133 1.451 1_545 S
C213 C29 1.527 . S
C228 C167 1.201 . S
C223 C38 1.090 . S
C233 C7 1.525 . S
C238 C155 1.443 . S
C243 C16 1.088 . S
C248 C137 1.195 1_545 S
C258 C91 1.452 . S
C253 C18 1.553 1_554 S
C268 C125 1.382 . S
C263 C5 1.401 . S
C278 C129 1.449 . S
C273 C40 1.556 1_556 S
C288 C107 1.376 . S
C283 C27 1.390 . S
C298 C146 1.209 . S
C293 C60 1.163 . S
C303 C49 1.189 . S
C308 C154 1.278 . S
C318 C170 1.214 . S
C313 C82 1.175 . S
C323 C71 1.190 . S
C328 C150 1.269 . S
C338 C95 1.418 . S
C333 C8 1.609 . S
C348 C113 1.314 . S
C343 C19 1.496 . S
C353 C30 1.604 . S
C358 C128 1.426 . S
C368 C108 1.315 . S
C363 C41 1.489 . S
C378 C134 1.317 . S
C373 C52 1.425 . S
C383 C63 1.542 . S
C388 C158 1.425 . S
C393 C74 1.424 . S
C398 C171 1.323 . S
C403 C85 1.543 . S
C408 C149 1.434 . S
