# Generated by pormake.
# Topology pth, (4,4)-cn, num edge types: 1
# Building blocks:
#     Node 0, Type 0, BuildingBlock: KUFVIS_clean_sbu_0, # of connection points: 4
#     Node 1, Type 0, BuildingBlock: KUFVIS_clean_sbu_0, # of connection points: 4
#     Node 2, Type 0, BuildingBlock: KUFVIS_clean_sbu_0, # of connection points: 4
#     Node 3, Type 1, BuildingBlock: MUDLON_clean_sbu_0, # of connection points: 4
#     Node 4, Type 1, BuildingBlock: MUDLON_clean_sbu_0, # of connection points: 4
#     Node 5, Type 1, BuildingBlock: MUDLON_clean_sbu_0, # of connection points: 4
#     Edge 6, Type (0, 1), BuildingBlock: AJUNOK_clean_linker_0, # of connection points: 2
#     Edge 7, Type (0, 1), BuildingBlock: AJUNOK_clean_linker_0, # of connection points: 2
#     Edge 8, Type (0, 1), BuildingBlock: AJUNOK_clean_linker_0, # of connection points: 2
#     Edge 9, Type (0, 1), BuildingBlock: AJUNOK_clean_linker_0, # of connection points: 2
#     Edge 10, Type (0, 1), BuildingBlock: AJUNOK_clean_linker_0, # of connection points: 2
#     Edge 11, Type (0, 1), BuildingBlock: AJUNOK_clean_linker_0, # of connection points: 2
#     Edge 12, Type (0, 1), BuildingBlock: AJUNOK_clean_linker_0, # of connection points: 2
#     Edge 13, Type (0, 1), BuildingBlock: AJUNOK_clean_linker_0, # of connection points: 2
#     Edge 14, Type (0, 1), BuildingBlock: AJUNOK_clean_linker_0, # of connection points: 2
#     Edge 15, Type (0, 1), BuildingBlock: AJUNOK_clean_linker_0, # of connection points: 2
#     Edge 16, Type (0, 1), BuildingBlock: AJUNOK_clean_linker_0, # of connection points: 2
#     Edge 17, Type (0, 1), BuildingBlock: AJUNOK_clean_linker_0, # of connection points: 2
# Relax obj value: 0.022
# Max RMSD: 0.096
# Mean RMSD: 0.069
data_MOF--net-pth--node1-KUFVIS_clean_sbu_0--node2-MUDLON_clean_sbu_0--edge1-AJUNOK_clean_linker_0
_symmetry_space_group_name_H-M    P1
_symmetry_Int_Tables_number       1
_symmetry_cell_setting            triclinic
loop_
_symmetry_equiv_pos_as_xyz
'x, y, z'
_cell_length_a     16.438019
_cell_length_b     16.472191
_cell_length_c     44.418382
_cell_angle_alpha  90.395761
_cell_angle_beta   92.052126
_cell_angle_gamma 120.06679
loop_
_atom_site_label
_atom_site_type_symbol
_atom_site_fract_x
_atom_site_fract_y
_atom_site_fract_z
_atom_type_partial_charge
Mn0 Mn 0.0918 0.14672 0.08218 0.0
Mn1 Mn 0.95192 0.21087 0.04451 0.0
C2 C 0.99733 0.05594 0.04149 0.0
C3 C 0.1143 0.06762 0.1222 0.0
C4 C 0.16347 0.30792 0.03815 0.0
O5 O 0.0867 0.24061 0.11094 0.0
O6 O 0.98233 0.26914 0.08597 0.0
C7 C 0.78085 0.11628 0.07988 0.0
N8 N 0.82317 0.12891 0.05315 0.0
C9 C 0.67526 0.02447 0.02708 0.0
C10 C 0.62999 1.01079 0.0543 0.0
C11 C 0.68311 0.05656 0.08084 0.0
C12 C 0.77282 0.08472 0.02752 0.0
H13 H 0.82131 0.15176 0.1003 0.0
C14 C 0.03535 0.2786 0.10921 0.0
O15 O 0.18564 0.13542 0.10944 0.0
O16 O 0.03118 0.04664 0.11181 0.0
N17 N 0.91631 0.15818 1.00438 0.0
C18 C 0.97099 0.17667 0.98016 0.0
C19 C 0.929 0.13373 0.95205 0.0
C20 C 0.83124 0.07317 0.94906 0.0
C21 C 0.77633 0.05596 0.97423 0.0
C22 C 0.82213 0.10019 1.00171 0.0
H23 H 0.04614 0.22314 0.98231 0.0
O24 O 0.07031 0.0503 0.05042 0.0
O25 O 0.98204 0.11436 0.05675 0.0
O26 O 0.17794 0.25361 0.05508 0.0
O27 O 0.08227 0.299 0.03333 0.0
C28 C 0.67801 0.99613 0.97316 0.0
C29 C 0.62752 0.98011 0.99959 0.0
H30 H 0.55464 0.96471 0.05514 0.0
H31 H 0.64875 0.04601 0.10196 0.0
H32 H 0.97183 0.14701 0.93275 0.0
H33 H 0.79922 0.03966 0.92742 0.0
H34 H 0.64061 0.96154 0.95216 0.0
H35 H 0.55206 0.93314 0.99854 0.0
Mn36 Mn 0.05876 0.13713 0.41489 0.0
Mn37 Mn 0.18131 0.33519 0.45827 0.0
C38 C 0.15324 0.14131 0.45548 0.0
C39 C 0.03584 0.0381 0.37358 0.0
C40 C 0.97368 0.1992 0.4647 0.0
O41 O 0.06064 0.23682 0.38773 0.0
O42 O 0.13616 0.36249 0.41947 0.0
C43 C 0.34192 0.43277 0.4185 0.0
N44 N 0.30867 0.39992 0.44612 0.0
C45 C 0.46575 0.46011 0.46742 0.0
C46 C 0.50161 0.49525 0.43928 0.0
C47 C 0.43936 0.48121 0.4147 0.0
C48 C 0.36794 0.41246 0.46986 0.0
H49 H 0.29462 0.42214 0.39948 0.0
C50 C 0.09584 0.32404 0.39396 0.0
O51 O 0.96589 0.03515 0.38705 0.0
O52 O 0.1199 0.10009 0.3838 0.0
N53 N 0.23264 0.32313 0.49625 0.0
C54 C 0.18694 0.28005 0.52142 0.0
C55 C 0.23914 0.28612 0.54791 0.0
C56 C 0.33787 0.33683 0.54829 0.0
C57 C 0.38347 0.38081 0.52219 0.0
C58 C 0.32771 0.37306 0.49653 0.0
H59 H 0.11138 0.23881 0.521 0.0
O60 O 0.08336 0.06213 0.44506 0.0
O61 O 0.1666 0.21651 0.44186 0.0
O62 O 0.96639 0.14598 0.44259 0.0
O63 O 0.05145 0.27202 0.4731 0.0
C64 C 0.48209 0.42999 0.52042 0.0
C65 C 0.5232 0.46938 0.49303 0.0
H66 H 0.57673 0.53246 0.43624 0.0
H67 H 0.46644 0.50765 0.39286 0.0
H68 H 0.20327 0.25064 0.56782 0.0
H69 H 0.37821 0.3405 0.56854 0.0
H70 H 0.52692 0.43669 0.53987 0.0
H71 H 0.59907 0.50596 0.49183 0.0
Mn72 Mn 0.09782 0.15004 0.75071 0.0
Mn73 Mn 0.04828 0.2983 0.78787 0.0
C74 C 0.1887 0.23153 0.79286 0.0
C75 C 0.17464 0.12676 0.71122 0.0
C76 C 0.93588 0.08645 0.79372 0.0
O77 O 1.01078 0.16704 0.72122 0.0
O78 O 0.98974 0.27403 0.74602 0.0
C79 C 0.15895 0.46723 0.75218 0.0
N80 N 0.14046 0.42429 0.77919 0.0
C81 C 0.26065 0.56518 0.80481 0.0
C82 C 0.28052 0.6111 0.77729 0.0
C83 C 0.22963 0.56179 0.75086 0.0
C84 C 0.1895 0.47085 0.80473 0.0
H85 H 0.12014 0.42956 0.73179 0.0
C86 C 0.977 0.22174 0.72275 0.0
O87 O 0.10259 0.05594 0.7227 0.0
O88 O 0.20107 0.20922 0.72265 0.0
N89 N 0.10026 0.32921 0.8284 0.0
C90 C 0.07218 0.27492 0.85316 0.0
C91 C 0.11648 0.31368 0.88144 0.0
C92 C 0.18856 0.40794 0.88403 0.0
C93 C 0.21507 0.46291 0.85835 0.0
C94 C 0.1678 0.42071 0.83081 0.0
H95 H 1.0169 0.20241 0.85134 0.0
O96 O 0.18816 0.15691 0.78309 0.0
O97 O 0.13734 0.25737 0.77718 0.0
O98 O 0.9858 0.06761 0.77664 0.0
O99 O 0.95199 0.16993 0.79873 0.0
C100 C 0.28683 0.55781 0.85899 0.0
C101 C 0.30969 0.60888 0.83223 0.0
H102 H 0.33519 0.68394 0.77616 0.0
H103 H 0.24491 0.5966 0.72951 0.0
H104 H 0.09557 0.27092 0.90117 0.0
H105 H 0.22316 0.43729 0.90582 0.0
H106 H 0.3252 0.59206 0.87991 0.0
H107 H 0.36547 0.6816 0.83295 0.0
Mg108 Mg 0.09988 0.6749 0.24946 0.0
C109 C 0.09553 0.57352 0.30261 0.0
O110 O 1.01676 0.57573 0.30135 0.0
C111 C 0.10881 0.79943 0.20606 0.0
O112 O 1.02189 0.73148 0.20908 0.0
C113 C 0.08004 0.52995 0.20956 0.0
O114 O 0.16495 0.57173 0.2225 0.0
O115 O 1.02335 0.5573 0.21721 0.0
O116 O 0.15587 0.61607 0.28273 0.0
O117 O 0.04863 0.74269 0.27946 0.0
C118 C 0.98245 0.76102 0.28081 0.0
O119 O 0.91359 0.72654 0.2601 0.0
O120 O 0.17488 0.79423 0.22023 0.0
Mg121 Mg 0.56052 0.14127 0.58375 0.0
C122 C 0.41299 0.12725 0.54417 0.0
O123 O 0.38583 0.04401 0.55508 0.0
C124 C 0.70528 0.16861 0.62603 0.0
O125 O 0.65646 0.0799 0.61722 0.0
C126 C 0.43425 0.13874 0.62459 0.0
O127 O 0.49398 0.22447 0.61658 0.0
O128 O 0.44616 0.07235 0.61504 0.0
O129 O 0.49503 0.19464 0.55185 0.0
O130 O 0.62255 0.07846 0.55572 0.0
C131 C 0.63083 0.09452 0.52765 0.0
O132 O 0.57794 0.12304 0.51398 0.0
O133 O 0.68104 0.22524 0.61509 0.0
Mg134 Mg 0.57483 0.66395 0.91423 0.0
C135 C 0.45626 0.46547 0.88789 0.0
O136 O 0.42166 0.44936 0.91476 0.0
C137 C 0.70101 0.77951 0.96197 0.0
O138 O 0.6256 0.78771 0.96215 0.0
C139 C 0.47261 0.57566 0.96794 0.0
O140 O 0.54994 0.57074 0.96984 0.0
O141 O 0.46082 0.61768 0.94563 0.0
O142 O 0.52905 0.54401 0.88322 0.0
O143 O 0.61361 0.77948 0.88361 0.0
C144 C 0.6701 0.77772 0.86501 0.0
O145 O 0.68725 0.70798 0.86626 0.0
O146 O 0.70395 0.72372 0.94262 0.0
C147 C 0.1028 0.35553 0.15989 0.0
C148 C 0.0385 0.33748 0.13545 0.0
C149 C 0.11209 0.41453 0.18416 0.0
C150 C 0.05727 0.4581 0.18538 0.0
H151 H 0.14832 0.32556 0.16012 0.0
H152 H 0.16443 0.42747 0.20194 0.0
S153 S 0.87308 0.42942 0.12865 0.0
N154 N 0.9145 0.36441 0.11502 0.0
N155 N 0.93264 0.47554 0.1609 0.0
C156 C 0.98979 0.43801 0.16189 0.0
C157 C 0.98042 0.37793 0.13688 0.0
C158 C 0.7976 0.11119 0.46799 0.0
C159 C 0.88725 0.17249 0.48165 0.0
C160 C 0.71471 0.08345 0.48331 0.0
C161 C 0.71809 0.11294 0.51328 0.0
H162 H 0.79103 0.08579 0.44497 0.0
H163 H 0.64742 0.03918 0.47154 0.0
S164 S 0.93283 0.27447 0.55956 0.0
N165 N 0.97255 0.26419 0.52698 0.0
N166 N 0.81733 0.20758 0.55609 0.0
C167 C 0.80667 0.17282 0.52746 0.0
C168 C 0.89099 0.20376 0.51158 0.0
C169 C 0.84008 0.91562 0.80498 0.0
C170 C 0.85846 1.00791 0.80984 0.0
C171 C 0.77528 0.84151 0.82191 0.0
C172 C 0.72549 0.85576 0.84455 0.0
H173 H 0.87796 0.90033 0.78852 0.0
H174 H 0.76639 0.77259 0.81772 0.0
S175 S 0.73919 0.08145 0.86441 0.0
N176 N 0.81474 0.10779 0.83757 0.0
N177 N 0.69334 0.96781 0.86944 0.0
C178 C 0.73885 0.94637 0.84865 0.0
C179 C 0.80521 0.02247 0.83135 0.0
C180 C 0.19564 0.98891 0.14728 0.0
C181 C 0.12493 1.01361 0.14701 0.0
C182 C 0.19493 0.92358 0.16785 0.0
C183 C 0.1237 0.88183 0.18868 0.0
H184 H 0.24834 0.01585 0.13044 0.0
H185 H 0.24676 0.90167 0.16624 0.0
S186 S 0.93461 0.93774 0.20091 0.0
N187 N 0.99041 1.00126 0.17202 0.0
N188 N 0.98962 0.88053 0.2106 0.0
C189 C 0.05771 0.91221 0.19008 0.0
C190 C 0.05812 0.97759 0.16924 0.0
C191 C 0.31702 0.18986 0.47459 0.0
C192 C 0.21955 0.14176 0.47886 0.0
C193 C 0.38061 0.18893 0.49646 0.0
C194 C 0.34818 0.13801 0.52288 0.0
H195 H 0.34414 0.22798 0.45416 0.0
H196 H 0.45504 0.22594 0.49227 0.0
S197 S 0.09974 1.0006 0.54449 0.0
N198 N 0.09388 0.04195 0.51122 0.0
N199 N 0.21254 0.03941 0.55219 0.0
C200 C 0.25079 0.08903 0.52715 0.0
C201 C 0.18653 0.09033 0.50503 0.0
C202 C 0.258 0.25563 0.84512 0.0
C203 C 0.25923 0.29105 0.81641 0.0
C204 C 0.32503 0.3112 0.86782 0.0
C205 C 0.39768 0.40281 0.86223 0.0
H206 H 0.20279 0.18578 0.85036 0.0
H207 H 0.31834 0.28299 0.89014 0.0
S208 S 0.44212 0.51905 0.7884 0.0
N209 N 0.34517 0.41679 0.78205 0.0
N210 N 0.47285 0.52128 0.82434 0.0
C211 C 0.40375 0.43578 0.83272 0.0
C212 C 0.33419 0.37973 0.80986 0.0
C213 C 0.89513 0.15593 0.67246 0.0
C214 C 0.91637 0.22037 0.6966 0.0
C215 C 0.83067 0.14424 0.64907 0.0
C216 C 0.78471 0.19684 0.64839 0.0
H217 H 0.92598 0.11127 0.67196 0.0
H218 H 0.81469 0.09115 0.6317 0.0
S219 S 0.82196 0.38267 0.70387 0.0
N220 N 0.8913 0.3438 0.71683 0.0
N221 N 0.76993 0.32126 0.67246 0.0
C222 C 0.80897 0.26567 0.67119 0.0
C223 C 0.87462 0.2774 0.69538 0.0
C224 C 0.94332 0.96342 0.99258 0.0
C225 C 0.92384 0.98098 0.02172 0.0
C226 C 0.87201 0.89342 0.97351 0.0
C227 C 0.78009 0.83836 0.98339 0.0
H228 H 1.01287 1.00647 0.98411 0.0
H229 H 0.88767 0.88562 0.95054 0.0
S230 S 0.70047 0.84166 0.06015 0.0
N231 N 0.81136 0.92712 0.06122 0.0
N232 N 0.67748 0.79658 0.02548 0.0
C233 C 0.76225 0.85069 1.01324 0.0
C234 C 0.83432 0.92155 0.03248 0.0
C235 C 0.09371 0.95445 0.34146 0.0
C236 C 1.02023 0.96993 0.34889 0.0
C237 C 0.0799 0.88636 0.31969 0.0
C238 C 0.99222 0.83128 0.30404 0.0
H239 H 0.16229 0.99399 0.35294 0.0
H240 H 0.13925 0.87743 0.31507 0.0
S241 S 0.77755 0.84712 0.31421 0.0
N242 N 0.85668 0.92623 0.33841 0.0
N243 N 0.83128 0.79902 0.29708 0.0
C244 C 0.91842 0.84724 0.31082 0.0
C245 C 0.93224 0.91619 0.33333 0.0
C246 C 0.25184 0.04782 0.68519 0.0
C247 C 0.22579 0.11729 0.68597 0.0
C248 C 0.31591 0.05115 0.66417 0.0
C249 C 0.3553 0.124 0.64344 0.0
H250 H 0.22695 0.99402 0.70192 0.0
H251 H 0.33836 0.99959 0.66522 0.0
S252 S 0.29533 0.31206 0.63319 0.0
N253 N 0.23436 0.25293 0.66197 0.0
N254 N 0.35273 0.25911 0.62263 0.0
C255 C 0.32354 0.18914 0.64275 0.0
C256 C 0.25933 0.18584 0.66399 0.0
C257 C 0.22714 0.42272 0.99632 0.0
C258 C 0.24382 0.38335 0.0223 0.0
C259 C 0.30154 0.48881 0.97962 0.0
C260 C 0.39561 0.51848 0.9883 0.0
H261 H 0.1559 0.40018 0.98815 0.0
H262 H 0.28491 0.51384 0.95913 0.0
S263 S 0.47824 0.44864 0.05705 0.0
N264 N 0.3624 0.38711 0.05757 0.0
N265 N 0.50179 0.5115 0.02646 0.0
C266 C 0.41349 0.48399 1.01518 0.0
C267 C 0.33783 0.41639 0.03207 0.0
C268 C 0.08235 0.46158 0.37752 0.0
C269 C 0.09662 0.38667 0.37009 0.0
C270 C 0.08576 0.52394 0.35561 0.0
C271 C 0.10707 0.5159 0.32575 0.0
H272 H 0.0665 0.47094 0.40032 0.0
H273 H 0.07069 0.5785 0.36202 0.0
S274 S 0.15435 0.3348 0.29493 0.0
N275 N 0.1347 0.30907 0.3308 0.0
N276 N 0.14398 0.42857 0.28986 0.0
C277 C 0.12415 0.44312 0.31814 0.0
C278 C 0.1181 0.37786 0.34027 0.0
loop_
_geom_bond_atom_site_label_1
_geom_bond_atom_site_label_2
_geom_bond_distance
_geom_bond_site_symmetry_2
_ccdc_geom_bond_type
Mn0 O5 2.095 . S
Mn0 O15 2.162 . S
Mn0 O16 2.297 . S
Mn0 O24 2.385 . S
Mn0 O25 2.209 1_455 S
Mn0 O26 2.094 . S
Mn1 O6 2.121 1_655 S
Mn1 N8 2.257 . S
Mn1 N17 2.282 1_554 S
Mn1 O25 2.215 . S
Mn1 O27 2.117 1_655 S
C2 O24 1.234 1_655 S
C2 O25 1.283 . S
C3 O15 1.281 . S
C3 O16 1.236 . S
C4 O26 1.240 . S
C4 O27 1.264 . S
O5 Mn0 2.095 . S
O5 C14 1.250 . S
O6 Mn1 2.121 1_455 S
O6 C14 1.258 . S
C7 N8 1.326 . S
C7 C11 1.460 . S
C7 H13 0.929 . S
N8 Mn1 2.257 . S
N8 C7 1.326 . S
N8 C12 1.362 1_554 S
C9 C10 1.258 1_556 S
C9 C12 1.431 . S
C9 C29 1.449 . S
C10 C9 1.258 1_554 S
C10 C11 1.477 . S
C10 H30 0.931 . S
C11 C7 1.460 . S
C11 C10 1.477 . S
C11 H31 0.930 . S
C12 N8 1.362 1_556 S
C12 C9 1.431 . S
C12 C22 1.476 . S
H13 C7 0.929 . S
C14 O5 1.250 . S
C14 O6 1.258 . S
O15 Mn0 2.162 . S
O15 C3 1.281 . S
O16 Mn0 2.297 . S
O16 C3 1.236 . S
N17 Mn1 2.282 1_556 S
N17 C18 1.328 . S
N17 C22 1.318 . S
C18 N17 1.328 . S
C18 C19 1.457 . S
C18 H23 0.929 1_655 S
C19 C18 1.457 . S
C19 C20 1.291 . S
C19 H32 0.931 . S
C20 C19 1.291 . S
C20 C21 1.373 . S
C20 H33 0.929 . S
C21 C20 1.373 . S
C21 C22 1.396 . S
C21 C28 1.403 . S
C22 C12 1.476 . S
C22 N17 1.318 . S
C22 C21 1.396 . S
H23 C18 0.929 1_455 S
O24 Mn0 2.385 . S
O24 C2 1.234 1_455 S
O25 Mn0 2.209 1_655 S
O25 Mn1 2.215 . S
O25 C2 1.283 . S
O26 Mn0 2.094 . S
O26 C4 1.240 . S
O27 Mn1 2.117 1_455 S
O27 C4 1.264 . S
C28 C21 1.403 . S
C28 C29 1.399 . S
C28 H34 0.929 . S
C29 C9 1.449 . S
C29 C28 1.399 . S
C29 H35 0.930 . S
H30 C10 0.931 . S
H31 C11 0.930 . S
H32 C19 0.931 . S
H33 C20 0.929 . S
H34 C28 0.929 . S
H35 C29 0.930 . S
Mn36 O41 2.095 1_455 S
Mn36 O51 2.162 1_445 S
Mn36 O52 2.297 . S
Mn36 O60 2.385 . S
Mn36 O61 2.209 . S
Mn36 O62 2.094 1_455 S
Mn37 O42 2.121 . S
Mn37 N44 2.257 . S
Mn37 N53 2.282 . S
Mn37 O61 2.215 . S
Mn37 O63 2.117 1_455 S
C38 O60 1.234 . S
C38 O61 1.283 . S
C39 O51 1.281 1_455 S
C39 O52 1.236 1_565 S
C40 O62 1.240 . S
C40 O63 1.264 . S
O41 Mn36 2.095 1_655 S
O41 C50 1.250 1_655 S
O42 Mn37 2.121 . S
O42 C50 1.258 . S
C43 N44 1.326 . S
C43 C47 1.460 . S
C43 H49 0.929 . S
N44 Mn37 2.257 . S
N44 C43 1.326 . S
N44 C48 1.362 . S
C45 C46 1.258 . S
C45 C48 1.431 . S
C45 C65 1.449 . S
C46 C45 1.258 . S
C46 C47 1.477 . S
C46 H66 0.931 . S
C47 C43 1.460 . S
C47 C46 1.477 . S
C47 H67 0.930 . S
C48 N44 1.362 . S
C48 C45 1.431 . S
C48 C58 1.476 . S
H49 C43 0.929 . S
C50 O41 1.250 1_455 S
C50 O42 1.258 . S
O51 Mn36 2.162 1_665 S
O51 C39 1.281 1_655 S
O52 Mn36 2.297 . S
O52 C39 1.236 1_545 S
N53 Mn37 2.282 . S
N53 C54 1.328 . S
N53 C58 1.318 . S
C54 N53 1.328 . S
C54 C55 1.457 . S
C54 H59 0.929 . S
C55 C54 1.457 . S
C55 C56 1.291 . S
C55 H68 0.931 . S
C56 C55 1.291 . S
C56 C57 1.373 . S
C56 H69 0.929 . S
C57 C56 1.373 . S
C57 C58 1.396 . S
C57 C64 1.403 . S
C58 C48 1.476 . S
C58 N53 1.318 . S
C58 C57 1.396 . S
H59 C54 0.929 . S
O60 Mn36 2.385 . S
O60 C38 1.234 . S
O61 Mn36 2.209 . S
O61 Mn37 2.215 . S
O61 C38 1.283 . S
O62 Mn36 2.094 1_655 S
O62 C40 1.240 . S
O63 Mn37 2.117 1_655 S
O63 C40 1.264 . S
C64 C57 1.403 . S
C64 C65 1.399 . S
C64 H70 0.929 . S
C65 C45 1.449 . S
C65 C64 1.399 . S
C65 H71 0.930 . S
H66 C46 0.931 . S
H67 C47 0.930 . S
H68 C55 0.931 . S
H69 C56 0.929 . S
H70 C64 0.929 . S
H71 C65 0.930 . S
Mn72 O77 2.095 1_455 S
Mn72 O87 2.162 . S
Mn72 O88 2.297 . S
Mn72 O96 2.385 . S
Mn72 O97 2.209 . S
Mn72 O98 2.094 1_455 S
Mn73 O78 2.121 . S
Mn73 N80 2.258 1_655 S
Mn73 N89 2.282 1_655 S
Mn73 O97 2.215 1_655 S
Mn73 O99 2.117 . S
C74 O96 1.234 . S
C74 O97 1.283 . S
C75 O87 1.281 . S
C75 O88 1.236 . S
C76 O98 1.240 . S
C76 O99 1.264 . S
O77 Mn72 2.095 1_655 S
O77 C86 1.250 . S
O78 Mn73 2.121 . S
O78 C86 1.258 . S
C79 N80 1.325 1_655 S
C79 C83 1.460 1_655 S
C79 H85 0.929 . S
N80 Mn73 2.258 1_455 S
N80 C79 1.325 1_455 S
N80 C84 1.363 . S
C81 C82 1.258 . S
C81 C84 1.431 . S
C81 C101 1.449 . S
C82 C81 1.258 . S
C82 C83 1.477 . S
C82 H102 0.931 . S
C83 C79 1.460 1_455 S
C83 C82 1.477 . S
C83 H103 0.930 . S
C84 N80 1.363 . S
C84 C81 1.431 . S
C84 C94 1.476 . S
H85 C79 0.929 . S
C86 O77 1.250 . S
C86 O78 1.258 . S
O87 Mn72 2.162 . S
O87 C75 1.281 . S
O88 Mn72 2.297 . S
O88 C75 1.236 . S
N89 Mn73 2.282 1_455 S
N89 C90 1.328 . S
N89 C94 1.318 . S
C90 N89 1.328 . S
C90 C91 1.457 . S
C90 H95 0.929 . S
C91 C90 1.457 . S
C91 C92 1.291 . S
C91 H104 0.931 . S
C92 C91 1.291 . S
C92 C93 1.373 . S
C92 H105 0.929 . S
C93 C92 1.373 . S
C93 C94 1.396 . S
C93 C100 1.403 . S
C94 C84 1.476 . S
C94 N89 1.318 . S
C94 C93 1.396 . S
H95 C90 0.929 . S
O96 Mn72 2.385 . S
O96 C74 1.234 . S
O97 Mn72 2.209 . S
O97 Mn73 2.215 1_455 S
O97 C74 1.283 . S
O98 Mn72 2.094 1_655 S
O98 C76 1.240 . S
O99 Mn73 2.117 . S
O99 C76 1.264 . S
C100 C93 1.403 . S
C100 C101 1.399 . S
C100 H106 0.929 . S
C101 C81 1.449 . S
C101 C100 1.399 . S
C101 H107 0.930 . S
H102 C82 0.931 . S
H103 C83 0.930 . S
H104 C91 0.931 . S
H105 C92 0.929 . S
H106 C100 0.929 . S
H107 C101 0.930 . S
Mg108 O115 2.141 . S
Mg108 O116 2.048 . S
Mg108 O117 2.048 . S
Mg108 O120 2.141 . S
C109 O110 1.313 1_455 S
C109 O116 1.195 . S
O110 C109 1.313 1_655 S
C111 O112 1.245 1_455 S
C111 O120 1.289 . S
O112 C111 1.245 1_655 S
C113 O114 1.245 1_455 S
C113 O115 1.289 . S
O114 C113 1.245 1_655 S
O115 Mg108 2.141 . S
O115 C113 1.289 . S
O116 Mg108 2.048 . S
O116 C109 1.195 . S
O117 Mg108 2.048 . S
O117 C118 1.195 . S
C118 O117 1.195 . S
C118 O119 1.313 1_455 S
O119 C118 1.313 1_655 S
O120 Mg108 2.141 . S
O120 C111 1.289 . S
Mg121 O128 2.141 . S
Mg121 O129 2.048 . S
Mg121 O130 2.048 . S
Mg121 O133 2.141 . S
C122 O123 1.313 . S
C122 O129 1.195 . S
O123 C122 1.313 . S
C124 O125 1.245 . S
C124 O133 1.289 . S
O125 C124 1.245 . S
C126 O127 1.245 . S
C126 O128 1.289 . S
O127 C126 1.245 . S
O128 Mg121 2.141 . S
O128 C126 1.289 . S
O129 Mg121 2.048 . S
O129 C122 1.195 . S
O130 Mg121 2.048 . S
O130 C131 1.195 . S
C131 O130 1.195 . S
C131 O132 1.313 . S
O132 C131 1.313 . S
O133 Mg121 2.141 . S
O133 C124 1.289 . S
Mg134 O141 2.141 . S
Mg134 O142 2.048 . S
Mg134 O143 2.048 . S
Mg134 O146 2.141 . S
C135 O136 1.313 . S
C135 O142 1.195 . S
O136 C135 1.313 . S
C137 O138 1.245 . S
C137 O146 1.289 . S
O138 C137 1.245 . S
C139 O140 1.245 . S
C139 O141 1.289 . S
O140 C139 1.245 . S
O141 Mg134 2.141 . S
O141 C139 1.289 . S
O142 Mg134 2.048 . S
O142 C135 1.195 . S
O143 Mg134 2.048 . S
O143 C144 1.195 . S
C144 O143 1.195 . S
C144 O145 1.313 . S
O145 C144 1.313 . S
O146 Mg134 2.141 . S
O146 C137 1.289 . S
C147 C148 1.369 1_655 S
C147 C149 1.419 . S
C147 H151 0.930 . S
C148 C147 1.369 1_455 S
C148 C157 1.429 . S
C149 C147 1.419 . S
C149 C150 1.363 1_655 S
C149 H152 0.929 . S
C150 C149 1.363 1_455 S
C150 C156 1.428 . S
H151 C147 0.930 . S
H152 C149 0.929 . S
S153 N154 1.613 . S
S153 N155 1.610 . S
N154 S153 1.613 . S
N154 C157 1.350 . S
N155 S153 1.610 . S
N155 C156 1.351 . S
C156 C150 1.428 . S
C156 N155 1.351 . S
C156 C157 1.434 . S
C157 C148 1.429 . S
C157 N154 1.350 . S
C157 C156 1.434 . S
C158 C159 1.369 . S
C158 C160 1.419 . S
C158 H162 0.930 . S
C159 C158 1.369 . S
C159 C168 1.429 . S
C160 C158 1.419 . S
C160 C161 1.363 . S
C160 H163 0.929 . S
C161 C160 1.363 . S
C161 C167 1.428 . S
H162 C158 0.930 . S
H163 C160 0.929 . S
S164 N165 1.613 . S
S164 N166 1.610 . S
N165 S164 1.613 . S
N165 C168 1.350 . S
N166 S164 1.610 . S
N166 C167 1.351 . S
C167 C161 1.428 . S
C167 N166 1.351 . S
C167 C168 1.434 . S
C168 C159 1.429 . S
C168 N165 1.350 . S
C168 C167 1.434 . S
C169 C170 1.369 . S
C169 C171 1.419 . S
C169 H173 0.930 . S
C170 C169 1.369 . S
C170 C179 1.429 . S
C171 C169 1.419 . S
C171 C172 1.363 . S
C171 H174 0.929 . S
C172 C171 1.363 . S
C172 C178 1.428 . S
H173 C169 0.930 . S
H174 C171 0.929 . S
S175 N176 1.613 1_565 S
S175 N177 1.610 . S
N176 S175 1.613 1_545 S
N176 C179 1.350 1_545 S
N177 S175 1.610 . S
N177 C178 1.351 . S
C178 C172 1.428 . S
C178 N177 1.351 . S
C178 C179 1.434 . S
C179 C170 1.429 . S
C179 N176 1.350 1_565 S
C179 C178 1.434 . S
C180 C181 1.369 . S
C180 C182 1.419 . S
C180 H184 0.930 . S
C181 C180 1.369 . S
C181 C190 1.429 . S
C182 C180 1.419 . S
C182 C183 1.363 . S
C182 H185 0.929 . S
C183 C182 1.363 . S
C183 C189 1.428 . S
H184 C180 0.930 . S
H185 C182 0.929 . S
S186 N187 1.613 . S
S186 N188 1.610 . S
N187 S186 1.613 . S
N187 C190 1.350 1_655 S
N188 S186 1.610 . S
N188 C189 1.351 1_655 S
C189 C183 1.428 . S
C189 N188 1.351 1_455 S
C189 C190 1.434 . S
C190 C181 1.429 . S
C190 N187 1.350 1_455 S
C190 C189 1.434 . S
C191 C192 1.369 . S
C191 C193 1.419 . S
C191 H195 0.930 . S
C192 C191 1.369 . S
C192 C201 1.429 . S
C193 C191 1.419 . S
C193 C194 1.363 . S
C193 H196 0.929 . S
C194 C193 1.363 . S
C194 C200 1.428 . S
H195 C191 0.930 . S
H196 C193 0.929 . S
S197 N198 1.613 . S
S197 N199 1.610 . S
N198 S197 1.613 . S
N198 C201 1.350 . S
N199 S197 1.610 . S
N199 C200 1.351 . S
C200 C194 1.428 . S
C200 N199 1.351 . S
C200 C201 1.434 . S
C201 C192 1.429 . S
C201 N198 1.350 . S
C201 C200 1.434 . S
C202 C203 1.369 . S
C202 C204 1.419 . S
C202 H206 0.930 . S
C203 C202 1.369 . S
C203 C212 1.429 . S
C204 C202 1.419 . S
C204 C205 1.363 . S
C204 H207 0.929 . S
C205 C204 1.363 . S
C205 C211 1.428 . S
H206 C202 0.930 . S
H207 C204 0.929 . S
S208 N209 1.613 . S
S208 N210 1.610 . S
N209 S208 1.613 . S
N209 C212 1.350 . S
N210 S208 1.610 . S
N210 C211 1.351 . S
C211 C205 1.428 . S
C211 N210 1.351 . S
C211 C212 1.434 . S
C212 C203 1.429 . S
C212 N209 1.350 . S
C212 C211 1.434 . S
C213 C214 1.369 . S
C213 C215 1.419 . S
C213 H217 0.930 . S
C214 C213 1.369 . S
C214 C223 1.429 . S
C215 C213 1.419 . S
C215 C216 1.363 . S
C215 H218 0.929 . S
C216 C215 1.363 . S
C216 C222 1.428 . S
H217 C213 0.930 . S
H218 C215 0.929 . S
S219 N220 1.613 . S
S219 N221 1.610 . S
N220 S219 1.613 . S
N220 C223 1.350 . S
N221 S219 1.610 . S
N221 C222 1.351 . S
C222 C216 1.428 . S
C222 N221 1.351 . S
C222 C223 1.434 . S
C223 C214 1.429 . S
C223 N220 1.350 . S
C223 C222 1.434 . S
C224 C225 1.369 1_556 S
C224 C226 1.419 . S
C224 H228 0.930 1_565 S
C225 C224 1.369 1_554 S
C225 C234 1.429 . S
C226 C224 1.419 . S
C226 C227 1.363 . S
C226 H229 0.929 . S
C227 C226 1.363 . S
C227 C233 1.428 . S
H228 C224 0.930 1_545 S
H229 C226 0.929 . S
S230 N231 1.613 . S
S230 N232 1.610 1_554 S
N231 S230 1.613 . S
N231 C234 1.350 . S
N232 S230 1.610 1_556 S
N232 C233 1.351 . S
C233 C227 1.428 . S
C233 N232 1.351 . S
C233 C234 1.434 1_556 S
C234 C225 1.429 . S
C234 N231 1.350 . S
C234 C233 1.434 1_554 S
C235 C236 1.369 . S
C235 C237 1.419 . S
C235 H239 0.930 . S
C236 C235 1.369 . S
C236 C245 1.429 1_455 S
C237 C235 1.419 . S
C237 C238 1.363 . S
C237 H240 0.929 . S
C238 C237 1.363 . S
C238 C244 1.428 1_455 S
H239 C235 0.930 . S
H240 C237 0.929 . S
S241 N242 1.613 . S
S241 N243 1.610 . S
N242 S241 1.613 . S
N242 C245 1.350 . S
N243 S241 1.610 . S
N243 C244 1.351 . S
C244 C238 1.428 1_655 S
C244 N243 1.351 . S
C244 C245 1.434 . S
C245 C236 1.429 1_655 S
C245 N242 1.350 . S
C245 C244 1.434 . S
C246 C247 1.369 . S
C246 C248 1.419 . S
C246 H250 0.930 . S
C247 C246 1.369 . S
C247 C256 1.429 . S
C248 C246 1.419 . S
C248 C249 1.363 . S
C248 H251 0.929 . S
C249 C248 1.363 . S
C249 C255 1.428 . S
H250 C246 0.930 . S
H251 C248 0.929 . S
S252 N253 1.613 . S
S252 N254 1.610 . S
N253 S252 1.613 . S
N253 C256 1.350 . S
N254 S252 1.610 . S
N254 C255 1.351 . S
C255 C249 1.428 . S
C255 N254 1.351 . S
C255 C256 1.434 . S
C256 C247 1.429 . S
C256 N253 1.350 . S
C256 C255 1.434 . S
C257 C258 1.369 1_556 S
C257 C259 1.419 . S
C257 H261 0.930 . S
C258 C257 1.369 1_554 S
C258 C267 1.429 . S
C259 C257 1.419 . S
C259 C260 1.363 . S
C259 H262 0.929 . S
C260 C259 1.363 . S
C260 C266 1.428 . S
H261 C257 0.930 . S
H262 C259 0.929 . S
S263 N264 1.613 . S
S263 N265 1.610 . S
N264 S263 1.613 . S
N264 C267 1.350 . S
N265 S263 1.610 . S
N265 C266 1.351 1_554 S
C266 C260 1.428 . S
C266 N265 1.351 1_556 S
C266 C267 1.434 1_556 S
C267 C258 1.429 . S
C267 N264 1.350 . S
C267 C266 1.434 1_554 S
C268 C269 1.369 . S
C268 C270 1.419 . S
C268 H272 0.930 . S
C269 C268 1.369 . S
C269 C278 1.429 . S
C270 C268 1.419 . S
C270 C271 1.363 . S
C270 H273 0.929 . S
C271 C270 1.363 . S
C271 C277 1.428 . S
H272 C268 0.930 . S
H273 C270 0.929 . S
S274 N275 1.613 . S
S274 N276 1.610 . S
N275 S274 1.613 . S
N275 C278 1.350 . S
N276 S274 1.610 . S
N276 C277 1.351 . S
C277 C271 1.428 . S
C277 N276 1.351 . S
C277 C278 1.434 . S
C278 C269 1.429 . S
C278 N275 1.350 . S
C278 C277 1.434 . S
C150 C113 1.440 . S
C148 C14 1.423 . S
C159 C40 1.481 . S
C161 C131 1.491 . S
C170 C76 1.471 1_565 S
C172 C144 1.484 . S
C181 C3 1.411 1_565 S
C183 C111 1.412 . S
C194 C122 1.502 . S
C192 C38 1.489 . S
C203 C74 1.473 . S
C205 C135 1.488 . S
C216 C124 1.403 . S
C214 C86 1.383 . S
C225 C2 1.415 1_565 S
C227 C137 1.426 . S
C238 C118 1.459 . S
C236 C39 1.469 . S
C249 C126 1.410 . S
C247 C75 1.426 . S
C260 C139 1.423 . S
C258 C4 1.420 . S
C269 C50 1.476 . S
C271 C109 1.506 . S
