# Generated by pormake.
# Topology iac, (4,6)-cn, num edge types: 1
# Building blocks:
#     Node 0, Type 0, BuildingBlock: GALJAG_clean_sbu_0, # of connection points: 4
#     Node 1, Type 0, BuildingBlock: GALJAG_clean_sbu_0, # of connection points: 4
#     Node 2, Type 0, BuildingBlock: GALJAG_clean_sbu_0, # of connection points: 4
#     Node 3, Type 0, BuildingBlock: GALJAG_clean_sbu_0, # of connection points: 4
#     Node 4, Type 0, BuildingBlock: GALJAG_clean_sbu_0, # of connection points: 4
#     Node 5, Type 0, BuildingBlock: GALJAG_clean_sbu_0, # of connection points: 4
#     Node 6, Type 0, BuildingBlock: GALJAG_clean_sbu_0, # of connection points: 4
#     Node 7, Type 0, BuildingBlock: GALJAG_clean_sbu_0, # of connection points: 4
#     Node 8, Type 0, BuildingBlock: GALJAG_clean_sbu_0, # of connection points: 4
#     Node 9, Type 0, BuildingBlock: GALJAG_clean_sbu_0, # of connection points: 4
#     Node 10, Type 0, BuildingBlock: GALJAG_clean_sbu_0, # of connection points: 4
#     Node 11, Type 0, BuildingBlock: GALJAG_clean_sbu_0, # of connection points: 4
#     Node 12, Type 0, BuildingBlock: GALJAG_clean_sbu_0, # of connection points: 4
#     Node 13, Type 0, BuildingBlock: GALJAG_clean_sbu_0, # of connection points: 4
#     Node 14, Type 0, BuildingBlock: GALJAG_clean_sbu_0, # of connection points: 4
#     Node 15, Type 0, BuildingBlock: GALJAG_clean_sbu_0, # of connection points: 4
#     Node 16, Type 0, BuildingBlock: GALJAG_clean_sbu_0, # of connection points: 4
#     Node 17, Type 0, BuildingBlock: GALJAG_clean_sbu_0, # of connection points: 4
#     Node 18, Type 0, BuildingBlock: GALJAG_clean_sbu_0, # of connection points: 4
#     Node 19, Type 0, BuildingBlock: GALJAG_clean_sbu_0, # of connection points: 4
#     Node 20, Type 0, BuildingBlock: GALJAG_clean_sbu_0, # of connection points: 4
#     Node 21, Type 0, BuildingBlock: GALJAG_clean_sbu_0, # of connection points: 4
#     Node 22, Type 0, BuildingBlock: GALJAG_clean_sbu_0, # of connection points: 4
#     Node 23, Type 0, BuildingBlock: GALJAG_clean_sbu_0, # of connection points: 4
#     Node 24, Type 1, BuildingBlock: LEVNOQ01_clean_sbu_1, # of connection points: 6
#     Node 25, Type 1, BuildingBlock: LEVNOQ01_clean_sbu_1, # of connection points: 6
#     Node 26, Type 1, BuildingBlock: LEVNOQ01_clean_sbu_1, # of connection points: 6
#     Node 27, Type 1, BuildingBlock: LEVNOQ01_clean_sbu_1, # of connection points: 6
#     Node 28, Type 1, BuildingBlock: LEVNOQ01_clean_sbu_1, # of connection points: 6
#     Node 29, Type 1, BuildingBlock: LEVNOQ01_clean_sbu_1, # of connection points: 6
#     Node 30, Type 1, BuildingBlock: LEVNOQ01_clean_sbu_1, # of connection points: 6
#     Node 31, Type 1, BuildingBlock: LEVNOQ01_clean_sbu_1, # of connection points: 6
#     Node 32, Type 1, BuildingBlock: LEVNOQ01_clean_sbu_1, # of connection points: 6
#     Node 33, Type 1, BuildingBlock: LEVNOQ01_clean_sbu_1, # of connection points: 6
#     Node 34, Type 1, BuildingBlock: LEVNOQ01_clean_sbu_1, # of connection points: 6
#     Node 35, Type 1, BuildingBlock: LEVNOQ01_clean_sbu_1, # of connection points: 6
#     Node 36, Type 1, BuildingBlock: LEVNOQ01_clean_sbu_1, # of connection points: 6
#     Node 37, Type 1, BuildingBlock: LEVNOQ01_clean_sbu_1, # of connection points: 6
#     Node 38, Type 1, BuildingBlock: LEVNOQ01_clean_sbu_1, # of connection points: 6
#     Node 39, Type 1, BuildingBlock: LEVNOQ01_clean_sbu_1, # of connection points: 6
#     Edge 40, Type (0, 1), BuildingBlock: OJICUG_clean_linker_0, # of connection points: 2
#     Edge 41, Type (0, 1), BuildingBlock: OJICUG_clean_linker_0, # of connection points: 2
#     Edge 42, Type (0, 1), BuildingBlock: OJICUG_clean_linker_0, # of connection points: 2
#     Edge 43, Type (0, 1), BuildingBlock: OJICUG_clean_linker_0, # of connection points: 2
#     Edge 44, Type (0, 1), BuildingBlock: OJICUG_clean_linker_0, # of connection points: 2
#     Edge 45, Type (0, 1), BuildingBlock: OJICUG_clean_linker_0, # of connection points: 2
#     Edge 46, Type (0, 1), BuildingBlock: OJICUG_clean_linker_0, # of connection points: 2
#     Edge 47, Type (0, 1), BuildingBlock: OJICUG_clean_linker_0, # of connection points: 2
#     Edge 48, Type (0, 1), BuildingBlock: OJICUG_clean_linker_0, # of connection points: 2
#     Edge 49, Type (0, 1), BuildingBlock: OJICUG_clean_linker_0, # of connection points: 2
#     Edge 50, Type (0, 1), BuildingBlock: OJICUG_clean_linker_0, # of connection points: 2
#     Edge 51, Type (0, 1), BuildingBlock: OJICUG_clean_linker_0, # of connection points: 2
#     Edge 52, Type (0, 1), BuildingBlock: OJICUG_clean_linker_0, # of connection points: 2
#     Edge 53, Type (0, 1), BuildingBlock: OJICUG_clean_linker_0, # of connection points: 2
#     Edge 54, Type (0, 1), BuildingBlock: OJICUG_clean_linker_0, # of connection points: 2
#     Edge 55, Type (0, 1), BuildingBlock: OJICUG_clean_linker_0, # of connection points: 2
#     Edge 56, Type (0, 1), BuildingBlock: OJICUG_clean_linker_0, # of connection points: 2
#     Edge 57, Type (0, 1), BuildingBlock: OJICUG_clean_linker_0, # of connection points: 2
#     Edge 58, Type (0, 1), BuildingBlock: OJICUG_clean_linker_0, # of connection points: 2
#     Edge 59, Type (0, 1), BuildingBlock: OJICUG_clean_linker_0, # of connection points: 2
#     Edge 60, Type (0, 1), BuildingBlock: OJICUG_clean_linker_0, # of connection points: 2
#     Edge 61, Type (0, 1), BuildingBlock: OJICUG_clean_linker_0, # of connection points: 2
#     Edge 62, Type (0, 1), BuildingBlock: OJICUG_clean_linker_0, # of connection points: 2
#     Edge 63, Type (0, 1), BuildingBlock: OJICUG_clean_linker_0, # of connection points: 2
#     Edge 64, Type (0, 1), BuildingBlock: OJICUG_clean_linker_0, # of connection points: 2
#     Edge 65, Type (0, 1), BuildingBlock: OJICUG_clean_linker_0, # of connection points: 2
#     Edge 66, Type (0, 1), BuildingBlock: OJICUG_clean_linker_0, # of connection points: 2
#     Edge 67, Type (0, 1), BuildingBlock: OJICUG_clean_linker_0, # of connection points: 2
#     Edge 68, Type (0, 1), BuildingBlock: OJICUG_clean_linker_0, # of connection points: 2
#     Edge 69, Type (0, 1), BuildingBlock: OJICUG_clean_linker_0, # of connection points: 2
#     Edge 70, Type (0, 1), BuildingBlock: OJICUG_clean_linker_0, # of connection points: 2
#     Edge 71, Type (0, 1), BuildingBlock: OJICUG_clean_linker_0, # of connection points: 2
#     Edge 72, Type (0, 1), BuildingBlock: OJICUG_clean_linker_0, # of connection points: 2
#     Edge 73, Type (0, 1), BuildingBlock: OJICUG_clean_linker_0, # of connection points: 2
#     Edge 74, Type (0, 1), BuildingBlock: OJICUG_clean_linker_0, # of connection points: 2
#     Edge 75, Type (0, 1), BuildingBlock: OJICUG_clean_linker_0, # of connection points: 2
#     Edge 76, Type (0, 1), BuildingBlock: OJICUG_clean_linker_0, # of connection points: 2
#     Edge 77, Type (0, 1), BuildingBlock: OJICUG_clean_linker_0, # of connection points: 2
#     Edge 78, Type (0, 1), BuildingBlock: OJICUG_clean_linker_0, # of connection points: 2
#     Edge 79, Type (0, 1), BuildingBlock: OJICUG_clean_linker_0, # of connection points: 2
#     Edge 80, Type (0, 1), BuildingBlock: OJICUG_clean_linker_0, # of connection points: 2
#     Edge 81, Type (0, 1), BuildingBlock: OJICUG_clean_linker_0, # of connection points: 2
#     Edge 82, Type (0, 1), BuildingBlock: OJICUG_clean_linker_0, # of connection points: 2
#     Edge 83, Type (0, 1), BuildingBlock: OJICUG_clean_linker_0, # of connection points: 2
#     Edge 84, Type (0, 1), BuildingBlock: OJICUG_clean_linker_0, # of connection points: 2
#     Edge 85, Type (0, 1), BuildingBlock: OJICUG_clean_linker_0, # of connection points: 2
#     Edge 86, Type (0, 1), BuildingBlock: OJICUG_clean_linker_0, # of connection points: 2
#     Edge 87, Type (0, 1), BuildingBlock: OJICUG_clean_linker_0, # of connection points: 2
#     Edge 88, Type (0, 1), BuildingBlock: OJICUG_clean_linker_0, # of connection points: 2
#     Edge 89, Type (0, 1), BuildingBlock: OJICUG_clean_linker_0, # of connection points: 2
#     Edge 90, Type (0, 1), BuildingBlock: OJICUG_clean_linker_0, # of connection points: 2
#     Edge 91, Type (0, 1), BuildingBlock: OJICUG_clean_linker_0, # of connection points: 2
#     Edge 92, Type (0, 1), BuildingBlock: OJICUG_clean_linker_0, # of connection points: 2
#     Edge 93, Type (0, 1), BuildingBlock: OJICUG_clean_linker_0, # of connection points: 2
#     Edge 94, Type (0, 1), BuildingBlock: OJICUG_clean_linker_0, # of connection points: 2
#     Edge 95, Type (0, 1), BuildingBlock: OJICUG_clean_linker_0, # of connection points: 2
#     Edge 96, Type (0, 1), BuildingBlock: OJICUG_clean_linker_0, # of connection points: 2
#     Edge 97, Type (0, 1), BuildingBlock: OJICUG_clean_linker_0, # of connection points: 2
#     Edge 98, Type (0, 1), BuildingBlock: OJICUG_clean_linker_0, # of connection points: 2
#     Edge 99, Type (0, 1), BuildingBlock: OJICUG_clean_linker_0, # of connection points: 2
#     Edge 100, Type (0, 1), BuildingBlock: OJICUG_clean_linker_0, # of connection points: 2
#     Edge 101, Type (0, 1), BuildingBlock: OJICUG_clean_linker_0, # of connection points: 2
#     Edge 102, Type (0, 1), BuildingBlock: OJICUG_clean_linker_0, # of connection points: 2
#     Edge 103, Type (0, 1), BuildingBlock: OJICUG_clean_linker_0, # of connection points: 2
#     Edge 104, Type (0, 1), BuildingBlock: OJICUG_clean_linker_0, # of connection points: 2
#     Edge 105, Type (0, 1), BuildingBlock: OJICUG_clean_linker_0, # of connection points: 2
#     Edge 106, Type (0, 1), BuildingBlock: OJICUG_clean_linker_0, # of connection points: 2
#     Edge 107, Type (0, 1), BuildingBlock: OJICUG_clean_linker_0, # of connection points: 2
#     Edge 108, Type (0, 1), BuildingBlock: OJICUG_clean_linker_0, # of connection points: 2
#     Edge 109, Type (0, 1), BuildingBlock: OJICUG_clean_linker_0, # of connection points: 2
#     Edge 110, Type (0, 1), BuildingBlock: OJICUG_clean_linker_0, # of connection points: 2
#     Edge 111, Type (0, 1), BuildingBlock: OJICUG_clean_linker_0, # of connection points: 2
#     Edge 112, Type (0, 1), BuildingBlock: OJICUG_clean_linker_0, # of connection points: 2
#     Edge 113, Type (0, 1), BuildingBlock: OJICUG_clean_linker_0, # of connection points: 2
#     Edge 114, Type (0, 1), BuildingBlock: OJICUG_clean_linker_0, # of connection points: 2
#     Edge 115, Type (0, 1), BuildingBlock: OJICUG_clean_linker_0, # of connection points: 2
#     Edge 116, Type (0, 1), BuildingBlock: OJICUG_clean_linker_0, # of connection points: 2
#     Edge 117, Type (0, 1), BuildingBlock: OJICUG_clean_linker_0, # of connection points: 2
#     Edge 118, Type (0, 1), BuildingBlock: OJICUG_clean_linker_0, # of connection points: 2
#     Edge 119, Type (0, 1), BuildingBlock: OJICUG_clean_linker_0, # of connection points: 2
#     Edge 120, Type (0, 1), BuildingBlock: OJICUG_clean_linker_0, # of connection points: 2
#     Edge 121, Type (0, 1), BuildingBlock: OJICUG_clean_linker_0, # of connection points: 2
#     Edge 122, Type (0, 1), BuildingBlock: OJICUG_clean_linker_0, # of connection points: 2
#     Edge 123, Type (0, 1), BuildingBlock: OJICUG_clean_linker_0, # of connection points: 2
#     Edge 124, Type (0, 1), BuildingBlock: OJICUG_clean_linker_0, # of connection points: 2
#     Edge 125, Type (0, 1), BuildingBlock: OJICUG_clean_linker_0, # of connection points: 2
#     Edge 126, Type (0, 1), BuildingBlock: OJICUG_clean_linker_0, # of connection points: 2
#     Edge 127, Type (0, 1), BuildingBlock: OJICUG_clean_linker_0, # of connection points: 2
#     Edge 128, Type (0, 1), BuildingBlock: OJICUG_clean_linker_0, # of connection points: 2
#     Edge 129, Type (0, 1), BuildingBlock: OJICUG_clean_linker_0, # of connection points: 2
#     Edge 130, Type (0, 1), BuildingBlock: OJICUG_clean_linker_0, # of connection points: 2
#     Edge 131, Type (0, 1), BuildingBlock: OJICUG_clean_linker_0, # of connection points: 2
#     Edge 132, Type (0, 1), BuildingBlock: OJICUG_clean_linker_0, # of connection points: 2
#     Edge 133, Type (0, 1), BuildingBlock: OJICUG_clean_linker_0, # of connection points: 2
#     Edge 134, Type (0, 1), BuildingBlock: OJICUG_clean_linker_0, # of connection points: 2
#     Edge 135, Type (0, 1), BuildingBlock: OJICUG_clean_linker_0, # of connection points: 2
# Relax obj value: 0.119
# Max RMSD: 0.163
# Mean RMSD: 0.131
data_MOF--net-iac--node1-GALJAG_clean_sbu_0--node2-LEVNOQ01_clean_sbu_1--edge1-OJICUG_clean_linker_0
_symmetry_space_group_name_H-M    P1
_symmetry_Int_Tables_number       1
_symmetry_cell_setting            triclinic
loop_
_symmetry_equiv_pos_as_xyz
'x, y, z'
_cell_length_a     40.516333
_cell_length_b     40.193935
_cell_length_c     40.499765
_cell_angle_alpha  89.95586
_cell_angle_beta   89.636395
_cell_angle_gamma 89.88015
loop_
_atom_site_label
_atom_site_type_symbol
_atom_site_fract_x
_atom_site_fract_y
_atom_site_fract_z
_atom_type_partial_charge
In0 In -0.00795 0.25411 0.12373 0.0
O1 O 0.00923 0.21951 0.08161 0.0
O2 O 0.98723 0.19768 0.12404 0.0
C3 C 0.98507 0.31135 0.09017 0.0
C4 C 0.93083 0.25702 0.14922 0.0
C5 C 0.04812 0.26116 0.15904 0.0
O6 O 0.98756 0.28354 0.07567 0.0
O7 O 0.98652 0.31 0.12123 0.0
O8 O 0.02411 0.24423 0.16971 0.0
O9 O 0.04385 0.27376 0.1309 0.0
C10 C 0.00013 0.19313 0.096 0.0
O11 O 0.95625 0.26235 0.16632 0.0
O12 O 0.93644 0.24927 0.11954 0.0
In13 In 0.00054 0.74464 0.36911 0.0
O14 O 0.02744 0.7486 0.31887 0.0
O15 O 0.04493 0.71393 0.35391 0.0
C16 C 0.93811 0.73996 0.35094 0.0
C17 C 0.001 0.70183 0.42021 0.0
C18 C 0.00777 0.80987 0.37961 0.0
O19 O 0.96116 0.72402 0.33675 0.0
O20 O 0.94648 0.75745 0.37538 0.0
O21 O 0.02222 0.78826 0.39702 0.0
O22 O -0.00997 0.79857 0.35695 0.0
C23 C 0.04861 0.72684 0.3259 0.0
O24 O 0.02017 0.72659 0.41893 0.0
O25 O 0.98097 0.69974 0.39665 0.0
In26 In 0.49207 0.75322 0.62543 0.0
O27 O 0.48847 0.78494 0.57827 0.0
O28 O 0.49462 0.80948 0.62435 0.0
C29 C 0.5016 0.6923 0.59792 0.0
C30 C 0.54586 0.75668 0.66452 0.0
C31 C 0.42896 0.75561 0.64699 0.0
O32 O 0.50869 0.71894 0.58283 0.0
O33 O 0.49019 0.69657 0.62663 0.0
O34 O 0.45303 0.76367 0.66491 0.0
O35 O 0.43676 0.74615 0.61833 0.0
C36 C 0.4914 0.81223 0.59354 0.0
O37 O 0.5195 0.743 0.67423 0.0
O38 O 0.54512 0.76781 0.63542 0.0
In39 In 0.50102 0.24672 0.86843 0.0
O40 O 0.52351 0.24534 0.81577 0.0
O41 O 0.54801 0.21966 0.85415 0.0
C42 C 0.43624 0.24594 0.85863 0.0
C43 C 0.50068 0.20298 0.91862 0.0
C44 C 0.50932 0.31219 0.87689 0.0
O45 O 0.45578 0.22733 0.84246 0.0
O46 O 0.4494 0.26454 0.87983 0.0
O47 O 0.52017 0.29107 0.89731 0.0
O48 O 0.49563 0.30015 0.85184 0.0
C49 C 0.54789 0.22789 0.82422 0.0
O50 O 0.51957 0.22805 0.91859 0.0
O51 O 0.48241 0.20037 0.89368 0.0
In52 In 0.12548 -0.00399 0.25027 0.0
O53 O 0.1712 0.96257 0.25461 0.0
O54 O 0.12351 0.94027 0.25582 0.0
C55 C 0.15142 0.05677 0.24005 0.0
C56 C 0.0902 0.98974 0.1944 0.0
C57 C 0.10426 0.00159 0.3128 0.0
O58 O 0.1687 0.03063 0.23682 0.0
O59 O 0.12147 0.05177 0.24704 0.0
O60 O 0.08657 0.98917 0.29041 0.0
O61 O 0.13244 0.01122 0.30371 0.0
C62 C 0.15433 0.93614 0.25675 0.0
O63 O 0.07782 0.00225 0.22028 0.0
O64 O 0.12 0.98093 0.19676 0.0
In65 In 0.24853 0.87514 0.49525 0.0
O66 O 0.2233 0.92663 0.50025 0.0
O67 O 0.19829 0.88352 0.51738 0.0
C68 C 0.31246 0.88921 0.49436 0.0
C69 C 0.25112 0.8283 0.54255 0.0
C70 C 0.23891 0.86543 0.43072 0.0
O71 O 0.2919 0.90564 0.51151 0.0
O72 O 0.30086 0.86535 0.4779 0.0
O73 O 0.22943 0.84485 0.4524 0.0
O74 O 0.25252 0.89127 0.4416 0.0
C75 C 0.19785 0.91454 0.51372 0.0
O76 O 0.23692 0.82307 0.5153 0.0
O77 O 0.26449 0.85647 0.54522 0.0
In78 In 0.3744 0.0002 0.74439 0.0
O79 O 0.331 0.02344 0.71676 0.0
O80 O 0.35337 0.05037 0.75616 0.0
C81 C 0.35078 0.93893 0.74583 0.0
C82 C 0.4181 0.00995 0.69583 0.0
C83 C 0.39767 -0.00575 0.80519 0.0
O84 O 0.33447 0.96344 0.75653 0.0
O85 O 0.37808 0.94555 0.73252 0.0
O86 O 0.41481 0.98759 0.77994 0.0
O87 O 0.36959 0.00636 0.79979 0.0
C88 C 0.33119 0.04925 0.73454 0.0
O89 O 0.41801 0.02826 0.72124 0.0
O90 O 0.396 0.98801 0.69499 0.0
In91 In 0.25539 0.12483 -0.00834 0.0
O92 O 0.29211 0.08398 0.97665 0.0
O93 O 0.31081 0.12832 -0.00181 0.0
C94 C 0.19587 0.09423 0.98568 0.0
C95 C 0.25616 0.14009 0.05656 0.0
C96 C 0.25543 0.16715 0.94008 0.0
O97 O 0.22277 0.07857 0.98877 0.0
O98 O 0.19891 0.1254 0.98514 0.0
O99 O 0.24847 0.17621 0.96918 0.0
O100 O 0.26299 0.13681 0.93709 0.0
C101 C 0.31706 0.0998 0.98677 0.0
O102 O 0.25532 0.16186 0.0341 0.0
O103 O 0.25612 0.1104 0.0466 0.0
In104 In 0.74795 0.37263 -0.00451 0.0
O105 O 0.72776 0.32372 0.01615 0.0
O106 O 0.76782 0.34698 0.04092 0.0
C107 C 0.74013 0.36318 0.93084 0.0
C108 C 0.69793 0.41276 0.01432 0.0
C109 C 0.81113 0.38969 -0.00306 0.0
O110 O 0.73875 0.33967 0.95152 0.0
O111 O 0.7444 0.3917 0.94279 0.0
O112 O 0.7899 0.40244 0.01623 0.0
O113 O 0.80057 0.36788 0.97735 0.0
C114 C 0.74739 0.32335 0.04032 0.0
O115 O 0.72301 0.4242 -0.00032 0.0
O116 O 0.69862 0.38196 0.01952 0.0
In117 In 0.87603 0.50268 0.2465 0.0
O118 O 0.9193 0.53113 0.22274 0.0
O119 O 0.89747 0.4909 0.19653 0.0
C120 C 0.89854 0.49602 0.30775 0.0
C121 C 0.83222 0.55183 0.23834 0.0
C122 C 0.85041 0.44199 0.25011 0.0
O123 O 0.91488 0.48671 0.28281 0.0
O124 O 0.87235 0.51161 0.30171 0.0
O125 O 0.83414 0.46778 0.25735 0.0
O126 O 0.87879 0.44689 0.23837 0.0
C127 C 0.91929 0.51314 0.19714 0.0
O128 O 0.83193 0.52625 0.22015 0.0
O129 O 0.85499 0.55281 0.25939 0.0
In130 In 0.7549 0.62041 0.49016 0.0
O131 O 0.78893 0.57517 0.48796 0.0
O132 O 0.81014 0.62354 0.49181 0.0
C133 C 0.6927 0.59776 0.48366 0.0
C134 C 0.75554 0.64288 0.55267 0.0
C135 C 0.76317 0.65002 0.43175 0.0
O136 O 0.71786 0.57929 0.48061 0.0
O137 O 0.69867 0.62779 0.4906 0.0
O138 O 0.76188 0.66631 0.45845 0.0
O139 O 0.75851 0.61918 0.4345 0.0
C140 C 0.81484 0.59271 0.48913 0.0
O141 O 0.75854 0.66184 0.52791 0.0
O142 O 0.75134 0.61244 0.54612 0.0
In143 In 0.62128 0.49413 0.75067 0.0
O144 O 0.66833 0.46224 0.75395 0.0
O145 O 0.62188 0.43806 0.74922 0.0
C146 C 0.64876 0.55497 0.74096 0.0
C147 C 0.58225 0.48962 0.6972 0.0
C148 C 0.6002 0.4916 0.81361 0.0
O149 O 0.66303 0.52842 0.73204 0.0
O150 O 0.62096 0.55064 0.75443 0.0
O151 O 0.58164 0.48459 0.7897 0.0
O152 O 0.62912 0.50007 0.80567 0.0
C153 C 0.65273 0.43508 0.75172 0.0
O154 O 0.57239 0.50389 0.72323 0.0
O155 O 0.61142 0.47875 0.6981 0.0
In156 In 0.00694 0.74579 0.86769 0.0
O157 O 0.04821 0.73795 0.83002 0.0
O158 O 0.05978 0.76408 0.87396 0.0
C159 C 0.9524 0.7415 0.82997 0.0
C160 C 0.01267 0.68507 0.89499 0.0
C161 C -0.0086 0.80058 0.90286 0.0
O162 O 0.97693 0.75869 0.82091 0.0
O163 O 0.95548 0.72729 0.85753 0.0
O164 O -0.00667 0.772 0.91581 0.0
O165 O -0.00344 0.80126 0.87209 0.0
C166 C 0.06999 0.75202 0.84713 0.0
O167 O 0.01257 0.71137 0.9121 0.0
O168 O 0.00996 0.68954 0.86431 0.0
In169 In 0.00175 0.24533 0.62102 0.0
O170 O 0.00069 0.26861 0.56903 0.0
O171 O -0.0063 0.29957 0.61128 0.0
C172 C -0.00781 0.18263 0.60186 0.0
C173 C 0.06558 0.2513 0.63617 0.0
C174 C 0.95152 0.25048 0.66446 0.0
O175 O 0.97822 0.20706 0.58818 0.0
O176 O 0.01101 0.18972 0.62546 0.0
O177 O 0.97986 0.24154 0.67389 0.0
O178 O 0.94895 0.25603 0.63404 0.0
C179 C -0.0052 0.29732 0.5803 0.0
O180 O 0.04291 0.26443 0.65337 0.0
O181 O 0.05607 0.23582 0.61093 0.0
In182 In 0.50587 0.24569 0.36712 0.0
O183 O 0.54473 0.23624 0.32761 0.0
O184 O 0.56074 0.25441 0.37418 0.0
C185 C 0.45095 0.23809 0.33064 0.0
C186 C 0.51061 0.18761 0.3996 0.0
C187 C 0.49431 0.30598 0.39477 0.0
O188 O 0.47548 0.25409 0.31963 0.0
O189 O 0.45419 0.22694 0.3595 0.0
O190 O 0.48881 0.27899 0.40985 0.0
O191 O 0.50542 0.30247 0.3658 0.0
C192 C 0.56864 0.24446 0.3457 0.0
O193 O 0.50927 0.21524 0.41456 0.0
O194 O 0.5095 0.18955 0.36856 0.0
In195 In 0.50125 0.74914 0.11872 0.0
O196 O 0.47759 0.70543 0.09225 0.0
O197 O 0.52248 0.69722 0.11788 0.0
C198 C 0.50127 0.79246 0.06741 0.0
C199 C 0.4511 0.7607 0.16146 0.0
C200 C 0.5566 0.75291 0.15295 0.0
O201 O 0.47931 0.77058 0.0712 0.0
O202 O 0.5237 0.79161 0.08875 0.0
O203 O 0.52879 0.76095 0.16485 0.0
O204 O 0.55685 0.74493 0.12279 0.0
C205 C 0.49936 0.68496 0.10144 0.0
O206 O 0.46244 0.73206 0.15592 0.0
O207 O 0.46543 0.78374 0.14583 0.0
In208 In 0.87696 0.00265 0.73837 0.0
O209 O 0.92091 0.00875 0.70493 0.0
O210 O 0.87333 0.00766 0.68247 0.0
C211 C 0.9148 0.0044 0.79336 0.0
C212 C 0.84201 0.05955 0.74115 0.0
C213 C 0.84954 0.94088 0.73578 0.0
O214 O 0.92362 0.98825 0.76816 0.0
O215 O 0.8875 0.01893 0.79083 0.0
O216 O 0.83863 0.96305 0.75503 0.0
O217 O 0.87362 0.94992 0.71835 0.0
C218 C 0.90429 0.00872 0.67856 0.0
O219 O 0.82953 0.03144 0.74762 0.0
O220 O 0.87176 0.05883 0.73188 0.0
In221 In 0.75138 0.12198 0.49874 0.0
O222 O 0.7759 0.07031 0.49848 0.0
O223 O 0.80421 0.11232 0.48375 0.0
C224 C 0.68765 0.10702 0.49845 0.0
C225 C 0.75743 0.13731 0.56213 0.0
C226 C 0.74821 0.16138 0.44532 0.0
O227 O 0.70919 0.08919 0.48419 0.0
O228 O 0.69814 0.13262 0.51299 0.0
O229 O 0.75909 0.17239 0.47244 0.0
O230 O 0.73936 0.13135 0.44581 0.0
C231 C 0.80321 0.08134 0.48822 0.0
O232 O 0.76786 0.15643 0.53953 0.0
O233 O 0.74479 0.11039 0.55271 0.0
In234 In 0.62283 0.0012 0.24455 0.0
O235 O 0.67037 0.98128 0.26881 0.0
O236 O 0.64652 0.95144 0.2332 0.0
C237 C 0.63472 0.06598 0.24275 0.0
C238 C 0.60823 -0.00405 0.18098 0.0
C239 C 0.57681 -0.00329 0.29286 0.0
O240 O 0.65459 0.04537 0.25543 0.0
O241 O 0.60883 0.05394 0.23044 0.0
O242 O 0.57562 0.97876 0.26742 0.0
O243 O 0.60111 0.01594 0.29399 0.0
C244 C 0.67029 0.95452 0.25265 0.0
O245 O 0.59137 0.98213 0.20349 0.0
O246 O 0.63275 0.01266 0.19043 0.0
In247 In 0.73262 0.87434 0.00923 0.0
O248 O 0.6983 0.91855 0.01642 0.0
O249 O 0.67732 0.87145 0.00446 0.0
C250 C 0.79296 0.90353 0.01016 0.0
C251 C 0.72389 0.84692 0.06868 0.0
C252 C 0.7351 0.84284 0.95027 0.0
O253 O 0.76781 0.91694 -0.00259 0.0
O254 O 0.78777 0.8754 0.02296 0.0
O255 O 0.74284 0.82916 0.9773 0.0
O256 O 0.72614 0.87282 0.95279 0.0
C257 C 0.67249 0.9016 0.0115 0.0
O258 O 0.72434 0.82977 0.04248 0.0
O259 O 0.72889 0.87764 0.06477 0.0
In260 In 0.24984 0.62567 -0.00418 0.0
O261 O 0.25098 0.66581 0.03437 0.0
O262 O 0.25647 0.61575 0.05081 0.0
C263 C 0.25326 0.67273 0.94886 0.0
C264 C 0.29863 0.58134 0.98323 0.0
C265 C 0.18743 0.60526 -0.00737 0.0
O266 O 0.27479 0.67048 0.97133 0.0
O267 O 0.23024 0.6517 0.95064 0.0
O268 O 0.21018 0.59177 0.9758 0.0
O269 O 0.19625 0.62891 0.01078 0.0
C270 C 0.25291 0.64588 0.05838 0.0
O271 O 0.27773 0.57669 0.0059 0.0
O272 O 0.29463 0.60776 0.96705 0.0
In273 In 0.12075 0.49867 0.74523 0.0
O274 O 0.16852 0.4731 0.76188 0.0
O275 O 0.13513 0.4469 0.73082 0.0
C276 C 0.13567 0.56264 0.74948 0.0
C277 C 0.11014 0.49845 0.68072 0.0
C278 C 0.07848 0.48892 0.79537 0.0
O279 O 0.15648 0.53983 0.75482 0.0
O280 O 0.10674 0.55326 0.74314 0.0
O281 O 0.06819 0.49435 0.76653 0.0
O282 O 0.10934 0.48826 0.79856 0.0
C283 C 0.1621 0.44679 0.7461 0.0
O284 O 0.09189 0.48263 0.70076 0.0
O285 O 0.13376 0.51432 0.69319 0.0
In286 In 0.23366 0.37076 0.51145 0.0
O287 O 0.22945 0.32389 0.54315 0.0
O288 O 0.23156 0.37106 0.56707 0.0
C289 C 0.23412 0.34619 0.4491 0.0
C290 C 0.17327 0.39742 0.51649 0.0
C291 C 0.29294 0.40221 0.51166 0.0
O292 O 0.24683 0.33083 0.47318 0.0
O293 O 0.22077 0.37353 0.45645 0.0
O294 O 0.26631 0.41611 0.50311 0.0
O295 O 0.28981 0.37238 0.52075 0.0
C296 C 0.22923 0.33993 0.57008 0.0
O297 O 0.1992 0.41457 0.52016 0.0
O298 O 0.17805 0.36699 0.5103 0.0
In299 In 0.37906 0.50061 0.23915 0.0
O300 O 0.42195 0.50685 0.20272 0.0
O301 O 0.37454 0.49626 0.1835 0.0
C302 C 0.41908 0.50627 0.29236 0.0
C303 C 0.3453 0.55752 0.24588 0.0
C304 C 0.34236 0.4444 0.24452 0.0
O305 O 0.42091 0.48135 0.27345 0.0
O306 O 0.39772 0.52736 0.28426 0.0
O307 O 0.33029 0.47247 0.23762 0.0
O308 O 0.37308 0.4446 0.24935 0.0
C309 C 0.40443 0.50232 0.17748 0.0
O310 O 0.33782 0.53101 0.26099 0.0
O311 O 0.36936 0.55519 0.22606 0.0
O312 O 0.94343 0.04506 0.93597 0.0
Mg313 Mg 0.93494 0.04777 0.98712 0.0
O314 O 0.981 0.00519 0.9409 0.0
Mg315 Mg -0.00495 -0.00151 -0.00313 0.0
O316 O 0.97785 0.05107 0.0127 0.0
O317 O 0.94029 0.09191 0.01132 0.0
O318 O 0.01073 0.99034 0.05236 0.0
O319 O 0.04687 0.02677 0.98804 0.0
Mg320 Mg 0.05604 0.95779 -0.0055 0.0
O321 O 0.01019 0.94481 0.98045 0.0
O322 O 0.0589 0.96465 0.04584 0.0
O323 O 0.07957 -0.00862 0.96296 0.0
O324 O 0.05385 0.91022 0.97873 0.0
C325 C 0.91252 0.98072 0.00974 0.0
C326 C 0.96245 0.02355 0.92309 0.0
C327 C 0.96823 0.0806 0.02161 0.0
C328 C 0.03708 0.97764 0.0644 0.0
C329 C 0.07403 0.02056 0.97294 0.0
C330 C 0.02306 0.91606 0.97311 0.0
O331 O 0.90384 0.01083 0.00643 0.0
O332 O 0.94287 0.97201 0.00659 0.0
O333 O 0.2535 0.75815 0.33829 0.0
Mg334 Mg 0.24467 0.71392 0.31317 0.0
O335 O 0.25584 0.78541 0.29113 0.0
Mg336 Mg 0.25093 0.74791 0.24806 0.0
O337 O 0.27377 0.70114 0.27419 0.0
O338 O 0.27439 0.67566 0.32359 0.0
O339 O 0.244 0.7128 0.20294 0.0
O340 O 0.30515 0.7588 0.23181 0.0
Mg341 Mg 0.2522 0.78886 0.17766 0.0
O342 O 0.23213 0.79422 0.22253 0.0
O343 O 0.23077 0.74504 0.16028 0.0
O344 O 0.30393 0.78861 0.18536 0.0
O345 O 0.22412 0.83168 0.18329 0.0
C346 C 0.1802 0.71686 0.28216 0.0
C347 C 0.25614 0.78506 0.32246 0.0
C348 C 0.28406 0.67706 0.29315 0.0
C349 C 0.23343 0.71656 0.17353 0.0
C350 C 0.31978 0.77438 0.20841 0.0
C351 C 0.21917 0.82196 0.21323 0.0
O352 O 0.19593 0.70136 0.30421 0.0
O353 O 0.19524 0.73642 0.26219 0.0
O354 O 0.55156 0.95762 0.43308 0.0
Mg355 Mg 0.56529 0.95719 0.48354 0.0
O356 O 0.51064 -0.00588 0.43938 0.0
Mg357 Mg 0.49787 0.00088 0.49481 0.0
O358 O 0.52296 0.95231 0.50971 0.0
O359 O 0.56234 0.91398 0.51143 0.0
O360 O 0.48438 0.00897 0.54988 0.0
O361 O 0.45189 0.96883 0.48792 0.0
Mg362 Mg 0.42817 0.04455 0.50252 0.0
O363 O 0.47235 0.04828 0.47998 0.0
O364 O 0.44131 0.04368 0.55323 0.0
O365 O 0.4067 0.00015 0.48398 0.0
O366 O 0.43503 0.08788 0.47465 0.0
C367 C 0.57506 0.02892 0.50477 0.0
C368 C 0.52951 0.97651 0.42108 0.0
C369 C 0.53339 0.9239 0.52041 0.0
C370 C 0.46406 0.02662 0.56667 0.0
C371 C 0.42116 0.9721 0.48262 0.0
C372 C 0.46433 0.07699 0.4685 0.0
O373 O 0.58875 0.00074 0.50087 0.0
O374 O 0.54409 0.03307 0.5018 0.0
O375 O 0.33875 0.26308 0.75683 0.0
Mg376 Mg 0.32215 0.24665 0.70997 0.0
O377 O 0.29316 0.2519 0.78617 0.0
Mg378 Mg 0.24888 0.24824 0.7512 0.0
O379 O 0.27733 0.2668 0.7083 0.0
O380 O 0.31263 0.27753 0.66864 0.0
O381 O 0.20528 0.24501 0.7142 0.0
O382 O 0.23648 0.30247 0.76248 0.0
Mg383 Mg 0.17705 0.24812 0.77745 0.0
O384 O 0.21962 0.22741 0.79521 0.0
O385 O 0.16561 0.21616 0.73796 0.0
O386 O 0.18192 0.29902 0.76317 0.0
O387 O 0.17947 0.24375 0.82842 0.0
C388 C 0.28575 0.17961 0.72164 0.0
C389 C 0.32354 0.25989 0.78424 0.0
C390 C 0.28315 0.28036 0.6803 0.0
C391 C 0.17855 0.22848 0.71215 0.0
C392 C 0.20821 0.31605 0.76192 0.0
C393 C 0.20953 0.23383 0.82486 0.0
O394 O 0.30968 0.19498 0.70791 0.0
O395 O 0.26346 0.19449 0.73854 0.0
O396 O -0.00593 0.90038 0.48796 0.0
Mg397 Mg -5e-05 0.91921 0.53589 0.0
O398 O -0.00715 0.94854 0.46143 0.0
Mg399 Mg -0.00229 -0.00791 0.49689 0.0
O400 O 0.98016 0.9651 0.54246 0.0
O401 O 0.9561 0.92191 0.56392 0.0
O402 O 0.00327 0.03787 0.5299 0.0
O403 O 0.94117 0.00565 0.4889 0.0
Mg404 Mg 0.97951 0.04437 0.45393 0.0
O405 O 0.02106 0.01715 0.4503 0.0
O406 O 0.97465 0.0721 0.49813 0.0
O407 O 0.93901 0.01746 0.43655 0.0
O408 O 0.01102 0.06219 0.41909 0.0
C409 C 0.0659 0.95588 0.52901 0.0
C410 C -0.00788 0.91707 0.46157 0.0
C411 C 0.95606 0.95361 0.5597 0.0
C412 C 0.9884 0.06539 0.52539 0.0
C413 C 0.92401 0.01131 0.46319 0.0
C414 C 0.02892 0.03646 0.42575 0.0
O415 O 0.04964 0.93376 0.54484 0.0
O416 O 0.05179 0.97645 0.50938 0.0
O417 O 0.28983 0.69362 0.8064 0.0
Mg418 Mg 0.29009 0.67605 0.7567 0.0
O419 O 0.25381 0.73528 0.80008 0.0
Mg420 Mg 0.24819 0.74741 0.74404 0.0
O421 O 0.29295 0.71818 0.73055 0.0
O422 O 0.33162 0.68029 0.72513 0.0
O423 O 0.2444 0.75899 0.68771 0.0
O424 O 0.28127 0.79217 0.74986 0.0
Mg425 Mg 0.20477 0.81259 0.72257 0.0
O426 O 0.20341 0.77755 0.75804 0.0
O427 O 0.19925 0.7878 0.67671 0.0
O428 O 0.25129 0.83489 0.73084 0.0
O429 O 0.16617 0.81768 0.75664 0.0
C430 C 0.21712 0.67121 0.73638 0.0
C431 C 0.27138 0.71634 0.81835 0.0
C432 C 0.32026 0.70909 0.71718 0.0
C433 C 0.22402 0.77109 0.66699 0.0
C434 C 0.27787 0.82266 0.74225 0.0
C435 C 0.17725 0.79098 0.77031 0.0
O436 O 0.24435 0.65605 0.74079 0.0
O437 O 0.21428 0.70268 0.73815 0.0
O438 O 0.45231 0.93023 0.04231 0.0
Mg439 Mg 0.45089 0.97862 0.0636 0.0
O440 O 0.49302 0.94216 0.00705 0.0
Mg441 Mg 0.49583 -0.0007 -0.00297 0.0
O442 O 0.44918 0.00947 0.02452 0.0
O443 O 0.4089 0.00998 0.06096 0.0
O444 O 0.49993 0.05621 0.98625 0.0
O445 O 0.46497 -0.00792 0.95063 0.0
Mg446 Mg 0.54245 0.01503 0.92832 0.0
O447 O 0.54181 0.98925 0.97001 0.0
O448 O 0.53809 0.06437 0.94685 0.0
O449 O 0.49894 -0.00412 0.9069 0.0
O450 O 0.58431 0.98448 0.93682 0.0
C451 C 0.5235 0.00083 0.07393 0.0
C452 C 0.47471 0.92111 0.0221 0.0
C453 C 0.42108 0.02104 0.03367 0.0
C454 C 0.51805 0.07541 0.9686 0.0
C455 C 0.47084 0.98982 0.91978 0.0
C456 C 0.5699 0.97621 0.96398 0.0
O457 O 0.49634 -0.00875 0.08674 0.0
O458 O 0.52729 0.00539 0.04307 0.0
O459 O 0.2753 0.24133 0.16014 0.0
Mg460 Mg 0.24998 0.28103 0.18242 0.0
O461 O 0.25552 0.21263 0.20195 0.0
Mg462 Mg 0.2484 0.24777 0.24863 0.0
O463 O 0.2675 0.29812 0.22622 0.0
O464 O 0.27098 0.32639 0.17845 0.0
O465 O 0.2407 0.28023 0.29758 0.0
O466 O 0.30383 0.23848 0.26369 0.0
Mg467 Mg 0.25206 0.20476 0.31548 0.0
O468 O 0.23023 0.19885 0.27135 0.0
O469 O 0.23156 0.24589 0.33967 0.0
O470 O 0.30358 0.20572 0.30794 0.0
O471 O 0.22567 0.16138 0.31165 0.0
C472 C 0.18017 0.26974 0.20678 0.0
C473 C 0.26802 0.21369 0.17297 0.0
C474 C 0.27655 0.32446 0.20974 0.0
C475 C 0.23319 0.27506 0.32798 0.0
C476 C 0.31912 0.22202 0.28595 0.0
C477 C 0.21882 0.17072 0.282 0.0
O478 O 0.19804 0.2803 0.18318 0.0
O479 O 0.19309 0.25746 0.2329 0.0
O480 O 0.44399 0.55779 0.95589 0.0
Mg481 Mg 0.49537 0.56808 0.95806 0.0
O482 O 0.44387 0.51 0.98386 0.0
Mg483 Mg 0.49817 0.49454 -0.00582 0.0
O484 O 0.51814 0.52436 0.95125 0.0
O485 O 0.52648 0.56666 0.91722 0.0
O486 O 0.55194 0.47849 0.00634 0.0
O487 O 0.49435 0.45138 0.95696 0.0
Mg488 Mg 0.49714 0.41902 0.02971 0.0
O489 O 0.47832 0.46453 0.03587 0.0
O490 O 0.54858 0.42967 0.03269 0.0
O491 O 0.48047 0.4043 0.98249 0.0
O492 O 0.4659 0.42488 0.07112 0.0
C493 C 0.50951 0.56855 0.03054 0.0
C494 C 0.4287 0.53358 0.9692 0.0
C495 C 0.53252 0.53626 0.92538 0.0
C496 C 0.56536 0.45406 0.02151 0.0
C497 C 0.48553 0.42099 0.95631 0.0
C498 C 0.46359 0.45562 0.06251 0.0
O499 O 0.51278 0.58453 0.00372 0.0
O500 O 0.5019 0.53784 0.03132 0.0
O501 O 0.78468 0.18919 0.30242 0.0
Mg502 Mg 0.78785 0.17724 0.25132 0.0
O503 O 0.75279 0.23453 0.2997 0.0
Mg504 Mg 0.74761 0.25017 0.24472 0.0
O505 O 0.79246 0.2219 0.22989 0.0
O506 O 0.83082 0.18389 0.22251 0.0
O507 O 0.74238 0.26428 0.1894 0.0
O508 O 0.78053 0.29563 0.25354 0.0
Mg509 Mg 0.70309 0.31959 0.23186 0.0
O510 O 0.7025 0.27821 0.25924 0.0
O511 O 0.70295 0.30226 0.18213 0.0
O512 O 0.74796 0.34039 0.24796 0.0
O513 O 0.66277 0.31511 0.26457 0.0
C514 C 0.71577 0.17456 0.23084 0.0
C515 C 0.76798 0.21222 0.31624 0.0
C516 C 0.82016 0.21353 0.2169 0.0
C517 C 0.72382 0.28155 0.17061 0.0
C518 C 0.77558 0.32694 0.25468 0.0
C519 C 0.67555 0.28715 0.27336 0.0
O520 O 0.7429 0.15865 0.23205 0.0
O521 O 0.71377 0.2056 0.23658 0.0
O522 O 0.95764 0.44262 0.55986 0.0
Mg523 Mg 0.95773 0.49413 0.57196 0.0
O524 O -0.01088 0.44344 0.51436 0.0
Mg525 Mg -0.00293 0.49836 0.49858 0.0
O526 O 0.95328 0.51493 0.5273 0.0
O527 O 0.91576 0.52434 0.56559 0.0
O528 O 0.00454 0.55338 0.48293 0.0
O529 O 0.9632 0.48965 0.45396 0.0
Mg530 Mg 0.041 0.50516 0.42732 0.0
O531 O 0.04146 0.48248 0.47099 0.0
O532 O 0.03992 0.55669 0.44055 0.0
O533 O -0.00407 0.48646 0.40928 0.0
O534 O 0.08202 0.47362 0.43613 0.0
C535 C 0.03045 0.51249 0.57275 0.0
C536 C 0.97295 0.42769 0.5366 0.0
C537 C 0.92598 0.52865 0.53574 0.0
C538 C 0.02185 0.57037 0.46255 0.0
C539 C 0.96786 0.48379 0.42333 0.0
C540 C 0.0689 0.46807 0.4646 0.0
O541 O 0.00359 0.51234 0.58913 0.0
O542 O 0.0317 0.50607 0.54205 0.0
O543 O 0.7064 0.81794 0.30467 0.0
Mg544 Mg 0.68948 0.76822 0.30878 0.0
O545 O 0.73706 0.80891 0.25969 0.0
Mg546 Mg 0.7482 0.75265 0.25177 0.0
O547 O 0.72971 0.74013 0.30177 0.0
O548 O 0.70195 0.73753 0.34853 0.0
O549 O 0.76029 0.69631 0.24266 0.0
O550 O 0.79863 0.75852 0.27587 0.0
Mg551 Mg 0.81079 0.74263 0.19765 0.0
O552 O 0.76749 0.76621 0.20223 0.0
O553 O 0.7965 0.69219 0.20088 0.0
O554 O 0.83903 0.75882 0.2383 0.0
O555 O 0.79748 0.77185 0.15708 0.0
C556 C 0.66685 0.74574 0.23966 0.0
C557 C 0.72334 0.82866 0.2804 0.0
C558 C 0.72665 0.72788 0.33079 0.0
C559 C 0.77731 0.67895 0.22211 0.0
C560 C 0.82895 0.761 0.26801 0.0
C561 C 0.77067 0.77825 0.17311 0.0
O562 O 0.65949 0.75223 0.26958 0.0
O563 O 0.69664 0.74577 0.22907 0.0
O564 O 0.75641 0.26098 0.8387 0.0
Mg565 Mg 0.74357 0.21567 0.81702 0.0
O566 O 0.75495 0.28662 0.7905 0.0
Mg567 Mg 0.75119 0.24828 0.74845 0.0
O568 O 0.77087 0.20219 0.77711 0.0
O569 O 0.77227 0.17535 0.82542 0.0
O570 O 0.74739 0.21217 0.70462 0.0
O571 O 0.80637 0.25691 0.73497 0.0
Mg572 Mg 0.75613 0.28463 0.67647 0.0
O573 O 0.73462 0.29423 0.72023 0.0
O574 O 0.73366 0.24064 0.65978 0.0
O575 O 0.80782 0.28222 0.68598 0.0
O576 O 0.72979 0.32901 0.67808 0.0
C577 C 0.67917 0.22042 0.78191 0.0
C578 C 0.75767 0.28728 0.82165 0.0
C579 C 0.78103 0.17715 0.79475 0.0
C580 C 0.73789 0.21328 0.67475 0.0
C581 C 0.82236 0.26957 0.71079 0.0
C582 C 0.72309 0.32166 0.70836 0.0
O583 O 0.69394 0.2071 0.80604 0.0
O584 O 0.6949 0.23787 0.76055 0.0
O585 O 0.74122 0.74625 0.66004 0.0
Mg586 Mg 0.73502 0.78504 0.69423 0.0
O587 O 0.75799 0.71442 0.70078 0.0
Mg588 Mg 0.74863 0.74541 0.74934 0.0
O589 O 0.76908 0.79742 0.72924 0.0
O590 O 0.76166 0.82471 0.6811 0.0
O591 O 0.73995 0.77232 0.80173 0.0
O592 O 0.80489 0.73876 0.76337 0.0
Mg593 Mg 0.7593 0.69313 0.81068 0.0
O594 O 0.73501 0.69362 0.76756 0.0
O595 O 0.73889 0.7316 0.8392 0.0
O596 O 0.80992 0.69876 0.80099 0.0
O597 O 0.73447 0.6495 0.8005 0.0
C598 C 0.67291 0.77449 0.72184 0.0
C599 C 0.75187 0.71867 0.67028 0.0
C600 C 0.77565 0.82237 0.70953 0.0
C601 C 0.7367 0.76223 0.83175 0.0
C602 C 0.82271 0.7204 0.78202 0.0
C603 C 0.72479 0.66381 0.77375 0.0
O604 O 0.68723 0.79769 0.70654 0.0
O605 O 0.69035 0.75203 0.73617 0.0
O606 O 0.5862 0.49163 0.48135 0.0
Mg607 Mg 0.55812 0.45273 0.502 0.0
O608 O 0.5451 0.52745 0.48821 0.0
Mg609 Mg 0.4947 0.49871 0.49742 0.0
O610 O 0.51384 0.44756 0.47926 0.0
O611 O 0.55346 0.40887 0.47693 0.0
O612 O 0.44259 0.47135 0.50622 0.0
O613 O 0.48113 0.50618 0.4414 0.0
Mg614 Mg 0.43589 0.54947 0.48648 0.0
O615 O 0.47692 0.55058 0.51463 0.0
O616 O 0.40452 0.51094 0.50131 0.0
O617 O 0.44791 0.54963 0.43593 0.0
O618 O 0.44004 0.59192 0.51406 0.0
C619 C 0.53026 0.47215 0.56873 0.0
C620 C 0.57535 0.52119 0.48138 0.0
C621 C 0.5243 0.41882 0.46891 0.0
C622 C 0.41225 0.48076 0.50622 0.0
C623 C 0.46507 0.52648 0.42324 0.0
C624 C 0.46751 0.57979 0.52468 0.0
O625 O 0.55086 0.45391 0.55342 0.0
O626 O 0.50926 0.49004 0.55319 0.0
O627 O 0.05548 0.45876 0.94009 0.0
Mg628 Mg 0.0648 0.45662 -0.00843 0.0
O629 O 0.01055 0.49099 0.94063 0.0
Mg630 Mg -0.00327 0.50121 -0.00468 0.0
O631 O 0.01973 0.45265 0.0119 0.0
O632 O 0.05719 0.41299 0.01788 0.0
O633 O 0.98319 0.51197 0.05028 0.0
O634 O 0.94991 0.47071 -0.01048 0.0
Mg635 Mg 0.92927 0.54824 0.00276 0.0
O636 O 0.97262 0.54843 0.97804 0.0
O637 O 0.94329 0.55022 0.05328 0.0
O638 O 0.90551 0.50348 0.98851 0.0
O639 O 0.93648 0.58886 0.97111 0.0
C640 C 0.07386 0.52784 0.00901 0.0
C641 C 0.0327 0.47444 0.92514 0.0
C642 C 0.02764 0.42373 0.02315 0.0
C643 C 0.96451 0.53148 0.067 0.0
C644 C 0.91904 0.47501 0.98627 0.0
C645 C 0.96508 0.57638 0.96458 0.0
O646 O 0.08632 0.4991 0.01254 0.0
O647 O 0.04396 0.53204 0.00058 0.0
C648 C 0.98334 0.13342 0.0946 0.0
C649 C 0.00047 0.16003 0.0799 0.0
H650 H 0.96047 0.08602 0.08721 0.0
C651 C 0.01414 0.15569 0.04818 0.0
H652 H 0.97268 0.13587 0.11907 0.0
C653 C 0.00753 0.12671 0.03016 0.0
C654 C 0.98736 0.10181 0.04374 0.0
H655 H 0.02781 0.17559 0.03637 0.0
H656 H 0.0155 0.12522 0.00461 0.0
C657 C 0.97669 0.10463 0.07657 0.0
C658 C 0.09674 0.69147 0.31245 0.0
C659 C 0.07827 0.72018 0.30586 0.0
H660 H 0.14348 0.66741 0.30879 0.0
C661 C 0.0914 0.74461 0.2847 0.0
H662 H 0.08698 0.67208 0.32832 0.0
C663 C 0.12418 0.74213 0.27363 0.0
C664 C 0.14385 0.71515 0.28364 0.0
H665 H 0.07748 0.76695 0.27919 0.0
H666 H 0.13486 0.76265 0.25991 0.0
C667 C 0.12913 0.68887 0.30125 0.0
C668 C 0.51268 0.87023 0.59227 0.0
C669 C 0.49509 0.84461 0.57669 0.0
H670 H 0.53843 0.91636 0.58613 0.0
C671 C 0.48427 0.84927 0.54412 0.0
H672 H 0.52138 0.8673 0.61735 0.0
C673 C 0.4933 0.87795 0.52659 0.0
C674 C 0.5135 0.90196 0.54137 0.0
H675 H 0.47036 0.83005 0.5317 0.0
H676 H 0.48688 0.87999 0.50074 0.0
C677 C 0.52217 0.89848 0.57459 0.0
C678 C 0.38338 0.22162 0.84062 0.0
C679 C 0.40173 0.24964 0.84948 0.0
H680 H 0.34171 0.20362 0.81393 0.0
C681 C 0.38912 0.28165 0.8437 0.0
H682 H 0.39283 0.19679 0.84509 0.0
C683 C 0.36058 0.28555 0.82502 0.0
C684 C 0.34397 0.25742 0.81346 0.0
H685 H 0.40318 0.30353 0.85036 0.0
H686 H 0.35318 0.31025 0.81725 0.0
C687 C 0.35417 0.22555 0.82314 0.0
C688 C 0.97463 0.85976 0.39236 0.0
C689 C 0.00581 0.84454 0.38983 0.0
H690 H 0.94547 0.89591 0.41851 0.0
C691 C 0.03332 0.85952 0.40415 0.0
H692 H 0.95311 0.84835 0.38139 0.0
C693 C 0.02903 0.88709 0.42441 0.0
C694 C -0.00283 0.89916 0.4309 0.0
H695 H 0.05753 0.84816 0.40214 0.0
H696 H 0.05004 0.89657 0.43788 0.0
C697 C 0.97019 0.88686 0.41342 0.0
C698 C 0.37303 0.73029 0.64519 0.0
C699 C 0.3952 0.75228 0.66029 0.0
H700 H 0.33066 0.69919 0.65214 0.0
C701 C 0.38677 0.76653 0.69088 0.0
H702 H 0.37873 0.71922 0.62144 0.0
C703 C 0.3587 0.75571 0.70797 0.0
C704 C 0.33925 0.73027 0.69475 0.0
H705 H 0.40322 0.78399 0.70274 0.0
H706 H 0.35433 0.76455 0.7329 0.0
C707 C 0.34542 0.71898 0.66259 0.0
C708 C 0.47589 0.15477 0.94795 0.0
C709 C 0.50328 0.17547 0.94239 0.0
H710 H 0.45916 0.10638 0.96257 0.0
C711 C 0.53442 0.16548 0.95366 0.0
H712 H 0.45162 0.16205 0.93944 0.0
C713 C 0.53884 0.13336 0.96612 0.0
C714 C 0.51199 0.11141 0.96839 0.0
H715 H 0.5559 0.18097 0.94947 0.0
H716 H 0.56364 0.12471 0.97125 0.0
C717 C 0.48015 0.12303 0.96136 0.0
C718 C 0.09885 0.29357 0.16986 0.0
C719 C 0.07933 0.26572 0.1771 0.0
H720 H 0.14573 0.31709 0.17476 0.0
C721 C 0.09138 0.24154 0.19912 0.0
H722 H 0.08994 0.3129 0.15349 0.0
C723 C 0.12369 0.24392 0.21141 0.0
C724 C 0.14404 0.27059 0.20185 0.0
H725 H 0.0767 0.21985 0.20512 0.0
H726 H 0.13343 0.22385 0.22635 0.0
C727 C 0.13075 0.29603 0.18218 0.0
C728 C 0.04956 0.00911 0.15172 0.0
C729 C 0.07165 0.98492 0.16362 0.0
H730 H 0.0209 0.02594 0.11027 0.0
C731 C 0.07815 0.9566 0.14454 0.0
H732 H 0.04435 0.03124 0.16609 0.0
C733 C 0.06443 0.95329 0.11331 0.0
C734 C 0.04428 0.97846 0.10013 0.0
H735 H 0.09468 0.93739 0.15341 0.0
H736 H 0.07093 0.9316 0.09875 0.0
C737 C 0.03603 0.00599 0.11997 0.0
C738 C 0.2138 0.84061 0.38131 0.0
C739 C 0.24088 0.856 0.39599 0.0
H740 H 0.19783 0.8066 0.34422 0.0
C741 C 0.272 0.85471 0.38049 0.0
H742 H 0.18968 0.84144 0.39301 0.0
C743 C 0.27689 0.83405 0.35313 0.0
C744 C 0.25041 0.81564 0.34087 0.0
H745 H 0.29323 0.86633 0.39179 0.0
H746 H 0.30169 0.82998 0.34378 0.0
C747 C 0.21849 0.82082 0.35352 0.0
C748 C 0.44467 0.04721 0.65476 0.0
C749 C 0.43978 0.0151 0.66728 0.0
H750 H 0.45643 0.07614 0.61179 0.0
C751 C 0.44994 0.9874 0.6487 0.0
H752 H 0.43678 0.06883 0.66872 0.0
C753 C 0.462 -0.00843 0.61668 0.0
C754 C 0.46302 0.02343 0.60267 0.0
H755 H 0.44628 0.9624 0.65807 0.0
H756 H 0.46719 0.96972 0.60185 0.0
C757 C 0.45579 0.05135 0.62231 0.0
C758 C 0.26283 0.18047 0.87999 0.0
C759 C 0.24988 0.1888 0.91122 0.0
H760 H 0.2609 0.18907 0.8277 0.0
C761 C 0.22786 0.21562 0.91398 0.0
H762 H 0.2802 0.16012 0.87732 0.0
C763 C 0.21652 0.23174 0.88575 0.0
C764 C 0.22728 0.22165 0.85424 0.0
H765 H 0.21756 0.22266 0.93772 0.0
H766 H 0.19791 0.25096 0.88855 0.0
C767 C 0.25185 0.19706 0.85165 0.0
C768 C 0.08933 0.0426 0.35557 0.0
C769 C 0.09098 0.0093 0.34553 0.0
H770 H 0.06786 0.07745 0.38938 0.0
C771 C 0.07661 0.98444 0.36513 0.0
H772 H 0.1002 0.06207 0.34052 0.0
C773 C 0.05911 -0.00692 0.39374 0.0
C774 C 0.05486 0.02675 0.40215 0.0
H775 H 0.07784 0.95859 0.35764 0.0
H776 H 0.04669 0.9737 0.40764 0.0
C777 C 0.07095 0.05134 0.38345 0.0
C778 C 0.22036 0.78568 0.57541 0.0
C779 C 0.24835 0.80587 0.57119 0.0
H780 H 0.19025 0.75857 0.61003 0.0
C781 C 0.27095 0.80884 0.59714 0.0
H782 H 0.20248 0.78321 0.5558 0.0
C783 C 0.26453 0.79386 0.62756 0.0
C784 C 0.23497 0.77646 0.6328 0.0
H785 H 0.29262 0.82441 0.59456 0.0
H786 H 0.28121 0.79857 0.64786 0.0
C787 C 0.21337 0.77157 0.6063 0.0
C788 C 0.4322 0.96175 0.84305 0.0
C789 C 0.40965 0.98773 0.83833 0.0
H790 H 0.46894 0.9412 0.87465 0.0
C791 C 0.40111 0.00874 0.86469 0.0
H792 H 0.43817 0.94463 0.82322 0.0
C793 C 0.41849 0.00653 0.89423 0.0
C794 C 0.4441 0.98322 0.89715 0.0
H795 H 0.38331 0.02861 0.86146 0.0
H796 H 0.41444 0.02519 0.91314 0.0
C797 C 0.44935 0.95946 0.87246 0.0
C798 C 0.29132 0.15763 0.10313 0.0
C799 C 0.25993 0.14926 0.09141 0.0
H800 H 0.31868 0.18453 0.13956 0.0
C801 C 0.23206 0.1557 0.11108 0.0
H802 H 0.31309 0.15278 0.08819 0.0
C803 C 0.23532 0.17313 0.14083 0.0
C804 C 0.26642 0.18479 0.15073 0.0
H805 H 0.20762 0.14961 0.10223 0.0
H806 H 0.21322 0.18052 0.15417 0.0
C807 C 0.29454 0.17554 0.13252 0.0
C808 C 0.16121 0.04401 -0.00583 0.0
C809 C 0.16351 0.07715 0.98378 0.0
H810 H 0.13099 0.00098 -0.00056 0.0
C811 C 0.13494 0.0931 0.97165 0.0
H812 H 0.18241 0.03125 0.00436 0.0
C813 C 0.10499 0.0755 0.96874 0.0
C814 C 0.10347 0.04179 0.97786 0.0
H815 H 0.13598 0.11881 0.96369 0.0
H816 H 0.08356 0.08781 0.95851 0.0
C817 C 0.13167 0.02667 -0.00867 0.0
C818 C 0.64788 0.42199 0.04779 0.0
C819 C 0.66793 0.43202 0.02133 0.0
H820 H 0.5996 0.42203 0.06899 0.0
C821 C 0.65575 0.45513 -0.00164 0.0
H822 H 0.65693 0.40441 0.06593 0.0
C823 C 0.62256 0.46505 -0.00013 0.0
C824 C 0.60157 0.45192 0.0244 0.0
H825 H 0.67085 0.46299 0.97763 0.0
H826 H 0.61278 0.48058 0.98034 0.0
C827 C 0.61505 0.43195 0.0494 0.0
C828 C 0.81428 0.4045 0.2818 0.0
C829 C 0.83745 0.40878 0.25637 0.0
H830 H 0.777 0.37306 0.30219 0.0
C831 C 0.84625 0.38181 0.23615 0.0
H832 H 0.80806 0.42475 0.29838 0.0
C833 C 0.82866 0.35206 0.23859 0.0
C834 C 0.80261 0.3495 0.2614 0.0
H835 H 0.8646 0.38463 0.21677 0.0
H836 H 0.83299 0.33266 0.22049 0.0
C837 C 0.797 0.37488 0.28438 0.0
C838 C 0.85383 0.54501 0.48333 0.0
C839 C 0.84804 0.5784 0.4916 0.0
H840 H 0.88551 0.50282 0.49003 0.0
C841 C 0.87319 0.59705 0.50648 0.0
H842 H 0.83504 0.53043 0.47116 0.0
C843 C 0.90169 0.58126 0.51742 0.0
C844 C 0.90558 0.54703 0.51268 0.0
H845 H 0.86949 0.62302 0.51266 0.0
H846 H 0.91908 0.59506 0.5323 0.0
C847 C 0.88275 0.52939 0.49369 0.0
C848 C 0.19742 0.09757 0.22986 0.0
C849 C 0.16586 0.09036 0.24255 0.0
H850 H 0.23893 0.13081 0.23145 0.0
C851 C 0.14969 0.11414 0.26231 0.0
H852 H 0.2103 0.07972 0.21443 0.0
C853 C 0.16608 0.14283 0.27222 0.0
C854 C 0.19853 0.14873 0.26181 0.0
H855 H 0.12545 0.10923 0.27265 0.0
H856 H 0.15437 0.15902 0.29022 0.0
C857 C 0.21361 0.12686 0.23928 0.0
C858 C 0.36505 0.90858 0.51753 0.0
C859 C 0.34612 0.9009 0.48983 0.0
H860 H 0.4056 0.93674 0.53612 0.0
C861 C 0.35644 0.91121 0.45831 0.0
H862 H 0.3572 0.90083 0.54198 0.0
C863 C 0.38331 0.93266 0.45509 0.0
C864 C 0.4005 0.94261 0.48326 0.0
H865 H 0.34175 0.90559 0.43675 0.0
H866 H 0.38912 0.9433 0.43116 0.0
C867 C 0.39256 0.92897 0.51415 0.0
C868 C 0.80017 0.59879 0.26209 0.0
C869 C 0.80945 0.57994 0.23434 0.0
H870 H 0.78081 0.64507 0.27982 0.0
C871 C 0.80096 0.59108 0.20273 0.0
H872 H 0.80633 0.5904 0.28673 0.0
C873 C 0.78688 0.62257 0.19875 0.0
C874 C 0.78037 0.64278 0.2264 0.0
H875 H 0.80796 0.57689 0.18104 0.0
H876 H 0.78345 0.63216 0.174 0.0
C877 C 0.78525 0.62986 0.25817 0.0
C878 C 0.70139 0.39682 0.75839 0.0
C879 C 0.66909 0.40261 0.7473 0.0
H880 H 0.74388 0.36473 0.75573 0.0
C881 C 0.65316 0.37805 0.72864 0.0
H882 H 0.71403 0.4153 0.77308 0.0
C883 C 0.67018 0.34966 0.71857 0.0
C884 C 0.70307 0.34488 0.72777 0.0
H885 H 0.62831 0.38191 0.71965 0.0
H886 H 0.65837 0.33253 0.70173 0.0
C887 C 0.71826 0.36785 0.74885 0.0
C888 C 0.98772 0.86262 0.90717 0.0
C889 C -0.01073 0.83132 0.92273 0.0
H890 H -0.00352 0.91508 0.91186 0.0
C891 C -0.00564 0.82985 0.95696 0.0
H892 H 0.98359 0.86449 0.88083 0.0
C893 C 0.0019 0.85869 0.97448 0.0
C894 C 0.00363 0.88943 0.95821 0.0
H895 H -0.00449 0.80616 0.96966 0.0
H896 H 0.009 0.85661 0.00016 0.0
C897 C -0.00523 0.89159 0.9249 0.0
C898 C 0.90895 0.28863 0.68516 0.0
C899 C 0.92348 0.25701 0.68653 0.0
H900 H 0.86519 0.31751 0.69263 0.0
C901 C 0.9066 0.23086 0.70217 0.0
H902 H 0.92158 0.309 0.67294 0.0
C903 C 0.87417 0.23577 0.71361 0.0
C904 C 0.85855 0.26676 0.70914 0.0
H905 H 0.91723 0.20611 0.70279 0.0
H906 H 0.86038 0.21466 0.72297 0.0
C907 C 0.87674 0.29347 0.69632 0.0
C908 C 0.49912 0.12671 0.39954 0.0
C909 C 0.50855 0.15543 0.41692 0.0
H910 H 0.47784 0.07798 0.40302 0.0
C911 C 0.51118 0.15403 0.45142 0.0
H912 H 0.49713 0.12701 0.37288 0.0
C913 C 0.50072 0.12573 0.46848 0.0
C914 C 0.48757 0.09865 0.45121 0.0
H915 H 0.51885 0.17565 0.46535 0.0
H916 H 0.49992 0.12628 0.49522 0.0
C917 C 0.48838 0.09852 0.41667 0.0
C918 C 0.61755 0.74732 0.16092 0.0
C919 C 0.58542 0.7488 0.17406 0.0
H920 H 0.66924 0.74487 0.17172 0.0
C921 C 0.58039 0.74482 0.20803 0.0
H922 H 0.62182 0.7496 0.13458 0.0
C923 C 0.60705 0.74122 0.22894 0.0
C924 C 0.63941 0.74226 0.21639 0.0
H925 H 0.55576 0.74472 0.21862 0.0
H926 H 0.60218 0.739 0.25518 0.0
C927 C 0.64454 0.74426 0.18207 0.0
C928 C 0.016 0.12688 0.58923 0.0
C929 C -0.01097 0.14892 0.58882 0.0
H930 H 0.03699 0.08223 0.56884 0.0
C931 C 0.96027 0.14027 0.57197 0.0
H932 H 0.03848 0.13331 0.60207 0.0
C933 C 0.95939 0.11133 0.55335 0.0
C934 C 0.98732 0.09078 0.55118 0.0
H935 H 0.93906 0.15674 0.57183 0.0
H936 H 0.93745 0.10595 0.53916 0.0
C937 C 0.01516 0.09779 0.57035 0.0
C938 C 0.6113 0.23014 0.30357 0.0
C939 C 0.60253 0.24666 0.3329 0.0
H940 H 0.64385 0.22949 0.26168 0.0
C941 C 0.62453 0.26955 0.34682 0.0
H942 H 0.595 0.21181 0.29283 0.0
C943 C 0.65214 0.27981 0.32886 0.0
C944 C 0.6583 0.26654 0.29744 0.0
H945 H 0.61856 0.28222 0.36969 0.0
H946 H 0.66661 0.30049 0.33793 0.0
C947 C 0.63937 0.2399 0.28598 0.0
C948 C 0.46569 0.82917 0.03315 0.0
C949 C 0.49721 0.8212 0.04511 0.0
H950 H 0.43363 0.86804 0.01631 0.0
C951 C 0.52287 0.84442 0.04139 0.0
H952 H 0.44551 0.81168 0.03548 0.0
C953 C 0.5162 0.8764 0.02954 0.0
C954 C 0.48369 0.88565 0.02193 0.0
H955 H 0.54746 0.83883 0.05021 0.0
H956 H 0.53572 0.8948 0.0298 0.0
C957 C 0.45885 0.86139 0.02215 0.0
C958 C 0.90977 0.70421 0.8078 0.0
C959 C 0.9226 0.73644 0.80997 0.0
H960 H 0.86851 0.67386 0.79563 0.0
C961 C 0.90443 0.76324 0.79702 0.0
H962 H 0.92348 0.68317 0.81738 0.0
C963 C 0.87244 0.75796 0.78474 0.0
C964 C 0.85867 0.7258 0.78513 0.0
H965 H 0.91387 0.78837 0.79872 0.0
H966 H 0.85767 0.77921 0.77746 0.0
C967 C 0.87834 0.69891 0.79526 0.0
C968 C 0.94323 0.9805 0.84275 0.0
C969 C 0.93488 0.00808 0.82318 0.0
H970 H 0.9591 0.96387 0.89059 0.0
C971 C 0.94111 0.04022 0.83487 0.0
H972 H 0.938 0.9555 0.83429 0.0
C973 C 0.95334 0.045 0.86657 0.0
C974 C 0.95933 0.01772 0.88731 0.0
H975 H 0.9348 0.06178 0.82008 0.0
H976 H 0.95609 0.07018 0.87568 0.0
C977 C 0.95541 0.9853 0.87479 0.0
C978 C 0.78095 0.16396 0.61146 0.0
C979 C 0.75431 0.14847 0.59614 0.0
H980 H 0.79623 0.19548 0.65091 0.0
C981 C 0.72302 0.14855 0.61129 0.0
H982 H 0.80514 0.16417 0.59989 0.0
C983 C 0.71765 0.16733 0.63979 0.0
C984 C 0.74394 0.18474 0.65375 0.0
H985 H 0.70215 0.13687 0.59938 0.0
H986 H 0.69277 0.1703 0.64933 0.0
C987 C 0.77588 0.18152 0.64059 0.0
C988 C 0.5448 0.9609 0.33129 0.0
C989 C 0.55476 -0.00722 0.3214 0.0
H990 H 0.52889 0.93052 0.37192 0.0
C991 C 0.54908 0.02001 0.34239 0.0
H992 H 0.54907 0.93959 0.31545 0.0
C993 C 0.53656 0.01498 0.37414 0.0
C994 C 0.53056 0.98256 0.38545 0.0
H995 H 0.55657 0.04484 0.3351 0.0
H996 H 0.53492 0.03598 0.39086 0.0
C997 C 0.53331 0.95572 0.36347 0.0
C998 C 0.73599 0.84902 0.12864 0.0
C999 C 0.72324 0.83155 0.10153 0.0
H1000 H 0.76125 0.84462 0.17471 0.0
C1001 C 0.71609 0.79757 0.10473 0.0
H1002 H 0.74115 0.87541 0.12697 0.0
C1003 C 0.72678 0.78026 0.13248 0.0
C1004 C 0.74474 0.79687 0.15684 0.0
H1005 H 0.70552 0.78377 0.08443 0.0
H1006 H 0.72494 0.75336 0.13272 0.0
C1007 C 0.74711 0.83157 0.15616 0.0
C1008 C 0.948 0.98044 0.64722 0.0
C1009 C 0.91992 0.00077 0.64673 0.0
H1010 H 0.98072 0.94945 0.6197 0.0
C1011 C 0.90494 0.0084 0.61634 0.0
H1012 H 0.95957 0.97348 0.67028 0.0
C1013 C 0.91753 -0.00527 0.58689 0.0
C1014 C 0.94454 0.97289 0.58811 0.0
H1015 H 0.88308 0.02392 0.61555 0.0
H1016 H 0.90545 -4e-05 0.56369 0.0
C1017 C 0.95997 0.96647 0.6183 0.0
C1018 C 0.73124 0.16679 0.38715 0.0
C1019 C 0.7482 0.18025 0.41412 0.0
H1020 H 0.72433 0.16722 0.33498 0.0
C1021 C 0.76793 0.20867 0.40938 0.0
H1022 H 0.71559 0.14514 0.39004 0.0
C1023 C 0.77297 0.22139 0.37741 0.0
C1024 C 0.7579 0.20591 0.35038 0.0
H1025 H 0.78111 0.21957 0.42987 0.0
H1026 H 0.78997 0.24182 0.37361 0.0
C1027 C 0.7361 0.17947 0.35565 0.0
C1028 C 0.58987 0.02739 0.13203 0.0
C1029 C 0.59641 -0.00335 0.14717 0.0
H1030 H 0.56029 0.05302 0.09615 0.0
C1031 C 0.58412 0.96728 0.13353 0.0
H1032 H 0.59908 0.0503 0.14261 0.0
C1033 C 0.56237 0.96885 0.10725 0.0
C1034 C 0.55259 -0.0002 0.09472 0.0
H1035 H 0.58917 0.94341 0.14493 0.0
H1036 H 0.55119 0.94609 0.09838 0.0
C1037 C 0.56766 0.029 0.10581 0.0
C1038 C 0.72135 0.83645 0.88942 0.0
C1039 C 0.73649 0.8246 0.91849 0.0
H1040 H 0.70925 0.8261 0.83847 0.0
C1041 C 0.75276 0.79392 0.91762 0.0
H1042 H 0.70873 0.86023 0.88938 0.0
C1043 C 0.753 0.77483 0.8891 0.0
C1044 C 0.73686 0.78554 0.86028 0.0
H1045 H 0.76522 0.78433 0.93924 0.0
H1046 H 0.76594 0.75122 0.88982 0.0
C1047 C 0.72162 0.81702 0.86034 0.0
C1048 C 0.83288 0.94187 0.98351 0.0
C1049 C 0.8259 0.91948 0.00908 0.0
H1050 H 0.86635 0.97756 0.96349 0.0
C1051 C 0.85 0.91386 0.0335 0.0
H1052 H 0.81521 0.94616 0.96398 0.0
C1053 C 0.87966 0.93223 0.03335 0.0
C1054 C 0.88548 0.95603 0.00853 0.0
H1055 H 0.84525 0.89649 0.05343 0.0
H1056 H 0.89709 0.92905 0.05328 0.0
C1057 C 0.86227 0.95971 0.98316 0.0
C1058 C 0.34338 0.56023 0.94703 0.0
C1059 C 0.32791 0.56024 0.97809 0.0
H1060 H 0.38774 0.55068 0.91975 0.0
C1061 C 0.34363 0.54476 0.00488 0.0
H1062 H 0.33152 0.57167 0.92596 0.0
C1063 C 0.3759 0.53257 0.00127 0.0
C1064 C 0.3925 0.53579 0.97083 0.0
H1065 H 0.33221 0.54471 0.02915 0.0
H1066 H 0.3888 0.52352 0.02286 0.0
C1067 C 0.37543 0.54815 0.94344 0.0
C1068 C 0.1639 0.60096 0.71225 0.0
C1069 C 0.14685 0.59604 0.74205 0.0
H1070 H 0.20021 0.63007 0.68685 0.0
C1071 C 0.14723 0.62043 0.76662 0.0
H1072 H 0.16372 0.58206 0.69316 0.0
C1073 C 0.16748 0.64818 0.76268 0.0
C1074 C 0.1876 0.65098 0.73447 0.0
H1075 H 0.13436 0.61658 0.78984 0.0
H1076 H 0.17015 0.66536 0.78309 0.0
C1077 C 0.18454 0.62827 0.70857 0.0
C1078 C 0.13568 0.44627 0.52224 0.0
C1079 C 0.14043 0.41278 0.51354 0.0
H1080 H 0.10713 0.49041 0.51397 0.0
C1081 C 0.1155 0.39593 0.49635 0.0
H1082 H 0.15428 0.45962 0.53599 0.0
C1083 C 0.08885 0.41362 0.48356 0.0
C1084 C 0.08651 0.44797 0.48869 0.0
H1085 H 0.11834 0.36998 0.48969 0.0
H1086 H 0.07196 0.40116 0.46703 0.0
C1087 C 0.10864 0.4638 0.50993 0.0
C1088 C 0.83605 0.89258 0.70022 0.0
C1089 C 0.83389 0.90806 0.73122 0.0
H1090 H 0.81917 0.8532 0.66923 0.0
C1091 C 0.81577 0.89253 0.75662 0.0
H1092 H 0.84997 0.90387 0.68023 0.0
C1093 C 0.79881 0.86273 0.75054 0.0
C1094 C 0.79902 0.8488 0.71875 0.0
H1095 H 0.81419 0.90376 0.78088 0.0
H1096 H 0.78394 0.85178 0.77002 0.0
C1097 C 0.81847 0.86353 0.69394 0.0
C1098 C 0.63881 0.09 0.53121 0.0
C1099 C 0.65337 0.09648 0.50033 0.0
H1100 H 0.60137 0.06231 0.55707 0.0
C1101 C 0.6376 0.08655 0.47137 0.0
H1102 H 0.65103 0.09738 0.55376 0.0
C1103 C 0.60903 0.0676 0.47326 0.0
C1104 C 0.59658 0.05778 0.50408 0.0
H1105 H 0.64868 0.0914 0.44742 0.0
H1106 H 0.59849 0.05794 0.45067 0.0
C1107 C 0.61059 0.07012 0.53312 0.0
C1108 C 0.1799 0.39372 0.72134 0.0
C1109 C 0.18237 0.41662 0.74731 0.0
H1110 H 0.18697 0.34336 0.70589 0.0
C1111 C 0.19944 0.40778 0.7761 0.0
H1112 H 0.1672 0.4002 0.69875 0.0
C1113 C 0.21077 0.3751 0.78015 0.0
C1114 C 0.20521 0.35154 0.75529 0.0
H1115 H 0.20148 0.42514 0.79644 0.0
H1116 H 0.22146 0.36767 0.80348 0.0
C1117 C 0.19119 0.36134 0.72535 0.0
C1118 C 0.32635 0.59415 0.29041 0.0
C1119 C 0.33191 0.58964 0.25662 0.0
H1120 H 0.3085 0.62571 0.32842 0.0
C1121 C 0.32533 0.61581 0.23456 0.0
H1122 H 0.33228 0.57469 0.30796 0.0
C1123 C 0.31097 0.64541 0.24629 0.0
C1124 C 0.30394 0.64913 0.28018 0.0
H1125 H 0.33008 0.61288 0.20837 0.0
H1126 H 0.30443 0.66476 0.22886 0.0
C1127 C 0.31295 0.62361 0.3021 0.0
C1128 C 0.48672 0.63188 0.59756 0.0
C1129 C 0.50203 0.65912 0.58189 0.0
H1130 H 0.46437 0.58396 0.59125 0.0
C1131 C 0.51349 0.65534 0.54929 0.0
H1132 H 0.47787 0.63386 0.62277 0.0
C1133 C 0.50631 0.62638 0.53154 0.0
C1134 C 0.48762 0.60088 0.54614 0.0
H1135 H 0.52571 0.6757 0.53668 0.0
H1136 H 0.51247 0.62537 0.50548 0.0
C1137 C 0.47933 0.60307 0.5797 0.0
C1138 C 0.59006 0.24692 0.78311 0.0
C1139 C 0.57681 0.22152 0.80304 0.0
H1140 H 0.63392 0.26649 0.76016 0.0
C1141 C 0.59534 0.19263 0.80853 0.0
H1142 H 0.57614 0.26952 0.77869 0.0
C1143 C 0.62797 0.19076 0.79777 0.0
C1144 C 0.64282 0.21799 0.78177 0.0
H1145 H 0.58548 0.17262 0.82357 0.0
H1146 H 0.64246 0.16918 0.80467 0.0
C1147 C 0.62308 0.2452 0.77252 0.0
C1148 C -0.00945 0.37314 0.08982 0.0
C1149 C 0.98528 0.34336 0.07238 0.0
H1150 H 0.0078 0.42348 0.08702 0.0
C1151 C 0.98514 0.34402 0.03775 0.0
H1152 H -0.00962 0.37344 0.11656 0.0
C1153 C -0.00551 0.37287 0.02098 0.0
C1154 C 0.00394 0.40126 0.03866 0.0
H1155 H 0.98062 0.32158 0.0237 0.0
H1156 H -0.00234 0.37192 -0.0056 0.0
C1157 C 8e-05 0.40194 0.07299 0.0
C1158 C 0.88576 0.77086 0.34053 0.0
C1159 C 0.90539 0.74221 0.33622 0.0
H1160 H 0.84541 0.79989 0.32136 0.0
C1161 C 0.89657 0.71838 0.31277 0.0
H1162 H 0.89219 0.78952 0.35867 0.0
C1163 C 0.87072 0.72461 0.29148 0.0
C1164 C 0.85317 0.75458 0.29353 0.0
H1165 H 0.91099 0.69587 0.30946 0.0
H1166 H 0.86522 0.70652 0.27246 0.0
C1167 C 0.85945 0.77702 0.31914 0.0
C1168 C 0.5286 0.3675 0.89587 0.0
C1169 C 0.50277 0.34636 0.88701 0.0
H1170 H 0.54237 0.41044 0.92379 0.0
C1171 C 0.47002 0.35514 0.89449 0.0
H1172 H 0.55397 0.36087 0.89036 0.0
C1173 C 0.46349 0.38255 0.91451 0.0
C1174 C 0.48961 0.40203 0.92593 0.0
H1175 H 0.44985 0.33877 0.88798 0.0
H1176 H 0.43855 0.38677 0.92341 0.0
C1177 C 0.5219 0.3958 0.91472 0.0
C1178 C 0.89246 0.2653 0.19682 0.0
C1179 C 0.89752 0.25576 0.16382 0.0
H1180 H 0.86185 0.26001 0.23983 0.0
C1181 C 0.87169 0.24056 0.14648 0.0
H1182 H 0.91174 0.2777 0.2105 0.0
C1183 C 0.84326 0.23051 0.1633 0.0
C1184 C 0.84025 0.23624 0.19728 0.0
H1185 H 0.87473 0.23349 0.12083 0.0
H1186 H 0.82525 0.21542 0.15053 0.0
C1187 C 0.86382 0.25559 0.21349 0.0
C1188 C 0.03933 0.66002 0.44293 0.0
C1189 C 0.00715 0.67284 0.44135 0.0
H1190 H 0.06921 0.61668 0.4505 0.0
C1191 C 0.98063 0.65344 0.4527 0.0
H1192 H 0.06005 0.67436 0.4337 0.0
C1193 C 0.98598 0.62073 0.46321 0.0
C1194 C 0.01774 0.60674 0.46122 0.0
H1195 H 0.95557 0.66278 0.45126 0.0
H1196 H 0.9649 0.60551 0.46984 0.0
C1197 C 0.04453 0.62699 0.45226 0.0
C1198 C 0.58944 0.79323 0.68649 0.0
C1199 C 0.57487 0.76172 0.68572 0.0
H1200 H 0.63083 0.82236 0.7006 0.0
C1201 C 0.59004 0.73525 0.70257 0.0
H1202 H 0.57795 0.81409 0.67402 0.0
C1203 C 0.62107 0.73971 0.71741 0.0
C1204 C 0.63687 0.77087 0.71596 0.0
H1205 H 0.57909 0.71069 0.70224 0.0
H1206 H 0.63362 0.71836 0.72781 0.0
C1207 C 0.61972 0.79789 0.7019 0.0
C1208 C 0.5624 0.45276 0.65298 0.0
C1209 C 0.56147 0.48408 0.66807 0.0
H1210 H 0.55159 0.42412 0.61009 0.0
C1211 C 0.54427 0.51021 0.65279 0.0
H1212 H 0.57519 0.43216 0.66458 0.0
C1213 C 0.53088 0.50573 0.62115 0.0
C1214 C 0.53445 0.47498 0.60487 0.0
H1215 H 0.54342 0.53463 0.66408 0.0
H1216 H 0.52025 0.52691 0.60849 0.0
C1217 C 0.54878 0.44817 0.62187 0.0
C1218 C 0.71922 0.35002 0.87517 0.0
C1219 C 0.74582 0.35626 0.89607 0.0
H1220 H 0.7031 0.32369 0.83229 0.0
C1221 C 0.77797 0.3477 0.88627 0.0
H1222 H 0.69428 0.35642 0.88266 0.0
C1223 C 0.78295 0.32859 0.85803 0.0
C1224 C 0.75582 0.31868 0.83932 0.0
H1225 H 0.79869 0.35237 0.90242 0.0
H1226 H 0.80728 0.31846 0.85301 0.0
C1227 C 0.72433 0.33156 0.84643 0.0
C1228 C 0.9434 0.5514 0.15529 0.0
C1229 C 0.94032 0.51917 0.16814 0.0
H1230 H 0.95361 0.58069 0.11216 0.0
C1231 C 0.95183 0.49196 0.14963 0.0
H1232 H 0.93445 0.57267 0.16915 0.0
C1233 C 0.96361 0.49658 0.11751 0.0
C1234 C 0.963 0.52836 0.10319 0.0
H1235 H 0.94962 0.46687 0.15921 0.0
H1236 H 0.97001 0.47491 0.1029 0.0
C1237 C 0.95423 0.55594 0.12274 0.0
C1238 C 0.7514 0.65163 0.37172 0.0
C1239 C 0.76589 0.66633 0.39953 0.0
H1240 H 0.72797 0.66102 0.3254 0.0
C1241 C 0.77797 0.69891 0.39747 0.0
H1242 H 0.74252 0.62623 0.37257 0.0
C1243 C 0.77057 0.71835 0.37005 0.0
C1244 C 0.7506 0.70536 0.34512 0.0
H1245 H 0.79012 0.71034 0.41833 0.0
H1246 H 0.77626 0.74468 0.37068 0.0
C1247 C 0.74352 0.6713 0.34452 0.0
C1248 C 0.60206 0.51907 0.86815 0.0
C1249 C 0.58756 0.49535 0.84745 0.0
H1250 H 0.59519 0.55082 0.90996 0.0
C1251 C 0.55825 0.47952 0.85749 0.0
H1252 H 0.62467 0.53157 0.861 0.0
C1253 C 0.54189 0.48992 0.88621 0.0
C1254 C 0.55449 0.51659 0.90445 0.0
H1255 H 0.5469 0.46083 0.84203 0.0
H1256 H 0.51791 0.47953 0.89215 0.0
C1257 C 0.58533 0.52999 0.89622 0.0
C1258 C 0.71007 0.29482 0.07997 0.0
C1259 C 0.74233 0.30228 0.06958 0.0
H1260 H 0.67871 0.28264 0.12108 0.0
C1261 C 0.76877 0.29617 0.09102 0.0
H1262 H 0.68927 0.29959 0.06394 0.0
C1263 C 0.76279 0.28559 0.12336 0.0
C1264 C 0.73024 0.28203 0.13487 0.0
H1265 H 0.79385 0.3019 0.08354 0.0
H1266 H 0.7834 0.2834 0.14016 0.0
C1267 C 0.704 0.28531 0.11263 0.0
C1268 C 0.90103 0.50895 0.36782 0.0
C1269 C 0.90872 0.48784 0.34127 0.0
H1270 H 0.91393 0.52317 0.41707 0.0
C1271 C 0.92808 0.45945 0.34648 0.0
H1272 H 0.88539 0.53056 0.36435 0.0
C1273 C 0.94348 0.45475 0.37662 0.0
C1274 C 0.93998 0.4787 0.4015 0.0
H1275 H 0.93313 0.44213 0.32657 0.0
H1276 H 0.96113 0.43462 0.37911 0.0
C1277 C 0.91677 0.50439 0.39806 0.0
C1278 C 0.73014 0.65326 0.60809 0.0
C1279 C 0.75731 0.65579 0.58658 0.0
H1280 H 0.70727 0.67159 0.65256 0.0
C1281 C 0.78494 0.67429 0.59619 0.0
H1282 H 0.70849 0.63928 0.60094 0.0
C1283 C 0.78457 0.69203 0.62585 0.0
C1284 C 0.75641 0.69182 0.64607 0.0
H1285 H 0.8062 0.67633 0.57996 0.0
H1286 H 0.8053 0.70787 0.63178 0.0
C1287 C 0.72954 0.67151 0.6376 0.0
C1288 C 0.63473 0.58923 0.50403 0.0
C1289 C 0.65903 0.58462 0.47952 0.0
H1290 H 0.58813 0.57252 0.52359 0.0
C1291 C 0.65224 0.56399 0.45253 0.0
H1292 H 0.6396 0.60493 0.52518 0.0
C1293 C 0.62286 0.54593 0.45139 0.0
C1294 C 0.59979 0.54809 0.47729 0.0
H1295 H 0.67044 0.56052 0.43311 0.0
H1296 H 0.61916 0.52851 0.43135 0.0
C1297 C 0.60524 0.57093 0.50298 0.0
C1298 C 0.15492 0.95723 0.50084 0.0
C1299 C 0.1683 0.93372 0.52263 0.0
H1300 H 0.11116 0.98315 0.48583 0.0
C1301 C 0.14988 0.92346 0.55016 0.0
H1302 H 0.1688 0.96533 0.47935 0.0
C1303 C 0.1173 0.93372 0.55408 0.0
C1304 C 0.10233 0.95398 0.53016 0.0
H1305 H 0.15994 0.90555 0.56744 0.0
H1306 H 0.10313 0.92358 0.5745 0.0
C1307 C 0.12194 0.9673 0.50455 0.0
C1308 C 0.34434 0.88225 0.72305 0.0
C1309 C 0.33858 0.90515 0.74855 0.0
H1310 H 0.32874 0.83633 0.7013 0.0
C1311 C 0.31862 0.89658 0.77555 0.0
H1312 H 0.35999 0.88858 0.70219 0.0
C1313 C 0.30167 0.86667 0.77543 0.0
C1314 C 0.30448 0.84553 0.7482 0.0
H1315 H 0.31464 0.91383 0.79576 0.0
H1316 H 0.28414 0.86147 0.79509 0.0
C1317 C 0.32691 0.85245 0.72269 0.0
C1318 C 0.37112 0.09653 0.01529 0.0
C1319 C 0.34962 0.08391 -0.00875 0.0
H1320 H 0.41123 0.08577 0.04789 0.0
C1321 C 0.35709 0.05333 0.97612 0.0
H1322 H 0.3661 0.1201 0.02731 0.0
C1323 C 0.38359 0.03412 0.98741 0.0
C1324 C 0.40244 0.04517 0.01415 0.0
H1325 H 0.34111 0.04322 0.95729 0.0
H1326 H 0.38737 0.00941 0.97735 0.0
C1327 C 0.39704 0.07702 0.02704 0.0
C1328 C 0.69575 0.59258 0.7246 0.0
C1329 C 0.66479 0.58809 0.73987 0.0
H1330 H 0.73951 0.62264 0.72211 0.0
C1331 C 0.65095 0.61459 0.75792 0.0
H1332 H 0.70675 0.57286 0.70999 0.0
C1333 C 0.66933 0.64319 0.7641 0.0
C1334 C 0.70187 0.64567 0.75264 0.0
H1335 H 0.62709 0.61207 0.76985 0.0
H1336 H 0.65957 0.66147 0.78126 0.0
C1337 C 0.71427 0.62129 0.73101 0.0
C1338 C 0.85996 0.41498 0.02257 0.0
C1339 C 0.84432 0.40323 -0.00579 0.0
H1340 H 0.89742 0.44684 0.04168 0.0
C1341 C 0.85761 0.41022 0.96284 0.0
H1342 H 0.85005 0.40957 0.04691 0.0
C1343 C 0.88408 0.43218 0.95982 0.0
C1344 C 0.89771 0.44617 0.98824 0.0
H1345 H 0.84562 0.40134 0.94069 0.0
H1346 H 0.89239 0.43989 0.93551 0.0
C1347 C 0.88683 0.43616 0.01958 0.0
C1348 C 0.29635 0.09459 0.7563 0.0
C1349 C 0.3098 0.0779 0.72896 0.0
H1350 H 0.27666 0.14034 0.77485 0.0
C1351 C 0.30879 0.09267 0.69766 0.0
H1352 H 0.29715 0.08346 0.78067 0.0
C1353 C 0.29807 0.12554 0.69449 0.0
C1354 C 0.28733 0.14326 0.72243 0.0
H1355 H 0.31938 0.08013 0.6764 0.0
H1356 H 0.30032 0.13782 0.67075 0.0
C1357 C 0.28461 0.12698 0.75295 0.0
C1358 C 0.20198 0.89689 0.26363 0.0
C1359 C 0.16906 0.90271 0.25462 0.0
H1360 H 0.24384 0.86434 0.25879 0.0
C1361 C 0.15116 0.87727 0.23915 0.0
H1362 H 0.21611 0.91603 0.27594 0.0
C1363 C 0.16698 0.84814 0.22922 0.0
C1364 C 0.20061 0.84369 0.2354 0.0
H1365 H 0.12575 0.88113 0.23186 0.0
H1366 H 0.15371 0.83052 0.21404 0.0
C1367 C 0.21766 0.86727 0.25426 0.0
C1368 C 0.48173 0.34136 0.4442 0.0
C1369 C 0.49245 0.33885 0.41121 0.0
H1370 H 0.48257 0.37036 0.48864 0.0
C1371 C 0.50578 0.36716 0.39567 0.0
H1372 H 0.47101 0.32012 0.45672 0.0
C1373 C 0.51205 0.39597 0.41392 0.0
C1374 C 0.50469 0.397 0.44778 0.0
H1375 H 0.51401 0.36613 0.37019 0.0
H1376 H 0.52558 0.41614 0.40235 0.0
C1377 C 0.48791 0.37025 0.46238 0.0
C1378 C 0.40499 0.7393 0.1969 0.0
C1379 C 0.42072 0.76611 0.18096 0.0
H1380 H 0.36024 0.72122 0.21909 0.0
C1381 C 0.40496 0.79719 0.18012 0.0
H1382 H 0.41672 0.71508 0.19807 0.0
C1383 C 0.3727 0.80056 0.19184 0.0
C1384 C 0.35592 0.77309 0.20516 0.0
H1385 H 0.4166 0.81834 0.16827 0.0
H1386 H 0.36015 0.82417 0.18867 0.0
C1387 C 0.3728 0.74284 0.20914 0.0
C1388 C 0.01953 0.64673 0.94292 0.0
C1389 C 0.01018 0.65181 0.90999 0.0
H1390 H 0.01344 0.61654 0.98618 0.0
C1391 C -0.0067 0.62649 0.89321 0.0
H1392 H 0.03293 0.66574 0.9562 0.0
C1393 C 0.98189 0.59867 0.91045 0.0
C1394 C 0.98812 0.59549 0.94427 0.0
H1395 H 0.9859 0.62977 0.86775 0.0
H1396 H 0.96558 0.58138 0.89814 0.0
C1397 C 0.00873 0.61849 0.95994 0.0
C1398 C 0.11765 0.21955 0.6436 0.0
C1399 C 0.09954 0.24911 0.64814 0.0
H1400 H 0.15755 0.18923 0.6614 0.0
C1401 C 0.11165 0.27388 0.66906 0.0
H1402 H 0.10858 0.20009 0.62756 0.0
C1403 C 0.13999 0.26805 0.6874 0.0
C1404 C 0.15594 0.2371 0.68564 0.0
H1405 H 0.09809 0.29685 0.6728 0.0
H1406 H 0.14776 0.28663 0.70508 0.0
C1407 C 0.1455 0.21327 0.66284 0.0
C1408 C 0.52845 0.63098 0.094 0.0
C1409 C 0.49935 0.64997 0.09163 0.0
H1410 H 0.55467 0.5882 0.07595 0.0
C1411 C 0.47141 0.63632 0.07673 0.0
H1412 H 0.55015 0.64088 0.10596 0.0
C1413 C 0.47368 0.6057 0.06104 0.0
C1414 C 0.50405 0.58899 0.05947 0.0
H1415 H 0.44858 0.65031 0.07509 0.0
H1416 H 0.45284 0.59705 0.04674 0.0
C1417 C 0.53098 0.60069 0.07742 0.0
C1418 C 0.12002 0.78714 0.84208 0.0
C1419 C 0.10367 0.75733 0.8348 0.0
H1420 H 0.15735 0.82146 0.82646 0.0
C1421 C 0.11768 0.73505 0.81199 0.0
H1422 H 0.10985 0.80448 0.85993 0.0
C1423 C 0.14556 0.74426 0.79375 0.0
C1424 C 0.15882 0.77614 0.79765 0.0
H1425 H 0.10574 0.7116 0.80658 0.0
H1426 H 0.15424 0.72812 0.77412 0.0
C1427 C 0.14721 0.79676 0.82313 0.0
C1428 C 0.95561 0.3414 0.56606 0.0
C1429 C 0.98599 0.32589 0.55985 0.0
H1430 H 0.92722 0.38599 0.5624 0.0
C1431 C 0.00954 0.34167 0.5398 0.0
H1432 H 0.93715 0.3294 0.58145 0.0
C1433 C 0.00397 0.37431 0.52896 0.0
C1434 C 0.97492 0.39116 0.53838 0.0
H1435 H 0.03324 0.33003 0.53507 0.0
H1436 H 0.02356 0.38727 0.51598 0.0
C1437 C 0.95002 0.37374 0.55527 0.0
C1438 C 0.40365 0.20213 0.31737 0.0
C1439 C 0.42044 0.23208 0.312 0.0
H1440 H 0.35884 0.17507 0.31204 0.0
C1441 C 0.40574 0.25685 0.29242 0.0
H1442 H 0.4147 0.18245 0.33195 0.0
C1443 C 0.37324 0.25274 0.28109 0.0
C1444 C 0.35546 0.22373 0.28913 0.0
H1445 H 0.41834 0.2802 0.288 0.0
H1446 H 0.36131 0.27312 0.26832 0.0
C1447 C 0.37167 0.1979 0.3059 0.0
C1448 C 0.44212 0.54302 0.33529 0.0
C1449 C 0.4385 0.51071 0.32275 0.0
H1450 H 0.45444 0.57328 0.37665 0.0
C1451 C 0.44955 0.48357 0.34163 0.0
H1452 H 0.43418 0.56443 0.32111 0.0
C1453 C 0.46133 0.4887 0.37382 0.0
C1454 C 0.46211 0.52102 0.38727 0.0
H1455 H 0.44688 0.45839 0.33252 0.0
H1456 H 0.46732 0.4673 0.38895 0.0
C1457 C 0.45383 0.54812 0.36709 0.0
C1458 C 0.21499 0.67593 0.09504 0.0
C1459 C 0.24331 0.65622 0.09157 0.0
H1460 H 0.18799 0.70912 0.12607 0.0
C1461 C 0.26232 0.64839 0.11931 0.0
H1462 H 0.19926 0.68104 0.07407 0.0
C1463 C 0.25588 0.66459 0.14928 0.0
C1464 C 0.23032 0.68822 0.15118 0.0
H1465 H 0.28371 0.63231 0.11708 0.0
H1466 H 0.27312 0.66164 0.16942 0.0
C1467 C 0.2082 0.69144 0.12488 0.0
C1468 C 0.0584 0.45201 0.83927 0.0
C1469 C 0.05694 0.48308 0.82376 0.0
H1470 H 0.05076 0.42474 0.88396 0.0
C1471 C 0.04162 0.50995 0.83981 0.0
H1472 H 0.07049 0.43117 0.82724 0.0
C1473 C 0.03033 0.50636 0.87236 0.0
C1474 C 0.03472 0.47595 0.88896 0.0
H1475 H 0.04103 0.5343 0.82832 0.0
H1476 H 0.02111 0.52803 0.88541 0.0
C1477 C 0.04728 0.44843 0.87165 0.0
C1478 C 0.2332 0.28891 0.60492 0.0
C1479 C 0.23173 0.3237 0.60261 0.0
H1480 H 0.2503 0.24739 0.63326 0.0
C1481 C 0.23846 0.34301 0.63076 0.0
H1482 H 0.22751 0.27342 0.58384 0.0
C1483 C 0.25148 0.32808 0.65897 0.0
C1484 C 0.2572 0.29378 0.65935 0.0
H1485 H 0.23686 0.36991 0.6299 0.0
H1486 H 0.26013 0.34364 0.67895 0.0
C1487 C 0.24596 0.27401 0.63324 0.0
C1488 C 0.45224 0.50511 0.13846 0.0
C1489 C 0.41834 0.50018 0.14389 0.0
H1490 H 0.49345 0.49548 0.10642 0.0
C1491 C 0.39862 0.48875 0.11784 0.0
H1492 H 0.46789 0.51443 0.15796 0.0
C1493 C 0.41327 0.47794 0.08849 0.0
C1494 C 0.44759 0.47917 0.08476 0.0
H1495 H 0.37229 0.48529 0.12115 0.0
H1496 H 0.39819 0.46582 0.07008 0.0
C1497 C 0.46681 0.49467 0.1089 0.0
C1498 C 0.28894 0.70212 0.90797 0.0
C1499 C 0.25722 0.69391 0.91942 0.0
H1500 H 0.3184 0.71584 0.86596 0.0
C1501 C 0.22984 0.70051 0.89928 0.0
H1502 H 0.31042 0.69724 0.92302 0.0
C1503 C 0.23435 0.71205 0.86702 0.0
C1504 C 0.26635 0.7163 0.85431 0.0
H1505 H 0.2051 0.69446 0.90763 0.0
H1506 H 0.21307 0.71434 0.85109 0.0
C1507 C 0.29351 0.71273 0.87539 0.0
C1508 C 0.09197 0.53522 0.63602 0.0
C1509 C 0.10048 0.50312 0.64659 0.0
H1510 H 0.06162 0.56363 0.60317 0.0
C1511 C 0.09249 0.47543 0.62738 0.0
H1512 H 0.09791 0.55676 0.65094 0.0
C1513 C 0.07312 0.47954 0.59946 0.0
C1514 C 0.06071 0.51114 0.5916 0.0
H1515 H 0.0989 0.45054 0.63545 0.0
H1516 H 0.06466 0.45765 0.58639 0.0
C1517 C 0.07142 0.5392 0.60885 0.0
C1518 C 0.20827 0.33677 0.3935 0.0
C1519 C 0.23534 0.33336 0.41494 0.0
H1520 H 0.1861 0.32063 0.34797 0.0
C1521 C 0.26342 0.31615 0.40402 0.0
H1522 H 0.18637 0.35013 0.40141 0.0
C1523 C 0.26379 0.30081 0.37316 0.0
C1524 C 0.2358 0.30157 0.35287 0.0
H1525 H 0.28474 0.31362 0.41984 0.0
H1526 H 0.2851 0.28596 0.36623 0.0
C1527 C 0.20825 0.32039 0.36281 0.0
C1528 C 0.32844 0.4459 0.48721 0.0
C1529 C 0.32521 0.41942 0.50939 0.0
H1530 H 0.35869 0.48471 0.46828 0.0
C1531 C 0.35257 0.41048 0.52897 0.0
H1532 H 0.30823 0.45285 0.47121 0.0
C1533 C 0.38203 0.4292 0.5275 0.0
C1534 C 0.3843 0.45686 0.5063 0.0
H1535 H 0.35077 0.38987 0.54613 0.0
H1536 H 0.40229 0.42294 0.5437 0.0
C1537 C 0.3575 0.46413 0.48555 0.0
C1538 C 0.83973 0.03198 0.49919 0.0
C1539 C 0.83165 0.06009 0.4802 0.0
H1540 H 0.87606 -0.00594 0.50883 0.0
C1541 C 0.85211 0.06934 0.45383 0.0
H1542 H 0.82416 0.02452 0.51974 0.0
C1543 C 0.88072 0.05153 0.44696 0.0
C1544 C 0.89018 0.02458 0.46696 0.0
H1545 H 0.84629 0.09085 0.43878 0.0
H1546 H 0.89644 0.06031 0.42706 0.0
C1547 C 0.86922 0.0146 0.49294 0.0
C1548 C 0.65018 0.12074 0.26465 0.0
C1549 C 0.6445 0.10023 0.23741 0.0
H1550 H 0.67693 0.16259 0.28298 0.0
C1551 C 0.65633 0.10924 0.20608 0.0
H1552 H 0.64143 0.1137 0.28902 0.0
C1553 C 0.67748 0.13635 0.20282 0.0
C1554 C 0.68569 0.15502 0.23071 0.0
H1555 H 0.65233 0.09321 0.18498 0.0
H1556 H 0.68953 0.14096 0.17931 0.0
C1557 C 0.67036 0.14851 0.26117 0.0
C1558 C 0.63414 0.94893 0.02153 0.0
C1559 C 0.63969 0.91681 0.00914 0.0
H1560 H 0.60512 -0.00668 0.01737 0.0
C1561 C 0.61553 0.90155 -0.01039 0.0
H1562 H 0.65209 0.96081 0.03732 0.0
C1563 C 0.58902 0.9202 0.97805 0.0
C1564 C 0.58618 0.95376 0.98676 0.0
H1565 H 0.619 0.87653 0.98024 0.0
H1566 H 0.57287 0.9095 0.95967 0.0
C1567 C 0.6072 0.96735 0.01046 0.0
C1568 C 0.29155 0.41436 0.22777 0.0
C1569 C 0.32282 0.41341 0.24246 0.0
H1570 H 0.25251 0.38641 0.20597 0.0
C1571 C 0.33633 0.38238 0.25143 0.0
H1572 H 0.28035 0.43779 0.22075 0.0
C1573 C 0.31986 0.35275 0.2435 0.0
C1574 C 0.29006 0.35401 0.2261 0.0
H1575 H 0.36029 0.38097 0.26305 0.0
H1576 H 0.3315 0.32907 0.24878 0.0
C1577 C 0.27556 0.38495 0.21935 0.0
C1578 C 0.14324 0.57126 0.96841 0.0
C1579 C 0.15397 0.59202 -0.00618 0.0
H1580 H 0.10791 0.53502 0.95365 0.0
C1581 C 0.13427 0.59646 0.02225 0.0
H1582 H 0.15784 0.56792 0.94614 0.0
C1583 C 0.10592 0.57726 0.02675 0.0
C1584 C 0.09709 0.55436 0.00243 0.0
H1585 H 0.14216 0.61266 0.04205 0.0
H1586 H 0.09235 0.57864 0.04984 0.0
C1587 C 0.11477 0.55266 0.97265 0.0
C1588 C 0.70001 0.90442 0.23277 0.0
C1589 C 0.69318 0.92684 0.25848 0.0
H1590 H 0.71636 0.85559 0.21971 0.0
C1591 C 0.70327 0.91921 0.29067 0.0
H1592 H 0.69244 0.90991 0.20773 0.0
C1593 C 0.7164 0.88781 0.29765 0.0
C1594 C 0.72041 0.86421 0.27234 0.0
H1595 H 0.69808 0.93615 0.31085 0.0
H1596 H 0.72113 0.88113 0.32311 0.0
C1597 C 0.71396 0.87346 0.23959 0.0
C1598 C 0.81849 0.0919 0.78676 0.0
C1599 C 0.82683 0.09037 0.75328 0.0
H1600 H 0.79907 0.12075 0.82619 0.0
C1601 C 0.82271 0.11867 0.7333 0.0
H1602 H 0.82249 0.07067 0.80279 0.0
C1603 C 0.80852 0.14771 0.74661 0.0
C1604 C 0.79937 0.14882 0.78021 0.0
H1605 H 0.82972 0.11804 0.70745 0.0
H1606 H 0.80431 0.16893 0.73066 0.0
C1607 C 0.80536 0.12083 0.80016 0.0
loop_
_geom_bond_atom_site_label_1
_geom_bond_atom_site_label_2
_geom_bond_distance
_geom_bond_site_symmetry_2
_ccdc_geom_bond_type
In0 O1 2.294 1_455 S
In0 O2 2.328 . S
In0 O6 2.266 . S
In0 O7 2.326 . S
In0 O8 2.266 . S
In0 O9 2.326 . S
In0 O11 2.294 1_455 S
In0 O12 2.326 1_455 S
O1 In0 2.294 1_655 S
O1 C10 1.240 . S
O2 In0 2.328 . S
O2 C10 1.252 1_455 S
C3 O6 1.252 . S
C3 O7 1.260 . S
C4 O11 1.240 . S
C4 O12 1.252 . S
C5 O8 1.252 . S
C5 O9 1.260 . S
O6 In0 2.266 . S
O6 C3 1.252 . S
O7 In0 2.326 . S
O7 C3 1.260 . S
O8 In0 2.266 . S
O8 C5 1.252 . S
O9 In0 2.326 . S
O9 C5 1.260 . S
C10 O1 1.240 . S
C10 O2 1.252 1_655 S
O11 In0 2.294 1_655 S
O11 C4 1.240 . S
O12 In0 2.326 1_655 S
O12 C4 1.252 . S
In13 O14 2.294 . S
In13 O15 2.326 . S
In13 O19 2.266 1_455 S
In13 O20 2.326 1_455 S
In13 O21 2.266 . S
In13 O22 2.326 . S
In13 O24 2.294 . S
In13 O25 2.326 . S
O14 In13 2.294 . S
O14 C23 1.240 . S
O15 In13 2.326 . S
O15 C23 1.252 . S
C16 O19 1.252 . S
C16 O20 1.260 . S
C17 O24 1.240 . S
C17 O25 1.252 . S
C18 O21 1.252 . S
C18 O22 1.260 . S
O19 In13 2.266 1_655 S
O19 C16 1.252 . S
O20 In13 2.326 1_655 S
O20 C16 1.260 . S
O21 In13 2.266 . S
O21 C18 1.252 . S
O22 In13 2.326 . S
O22 C18 1.260 . S
C23 O14 1.240 . S
C23 O15 1.252 . S
O24 In13 2.294 . S
O24 C17 1.240 . S
O25 In13 2.326 . S
O25 C17 1.252 . S
In26 O27 2.294 . S
In26 O28 2.326 . S
In26 O32 2.266 . S
In26 O33 2.326 . S
In26 O34 2.266 . S
In26 O35 2.326 . S
In26 O37 2.294 . S
In26 O38 2.326 . S
O27 In26 2.294 . S
O27 C36 1.240 . S
O28 In26 2.326 . S
O28 C36 1.252 . S
C29 O32 1.252 . S
C29 O33 1.260 . S
C30 O37 1.240 . S
C30 O38 1.252 . S
C31 O34 1.252 . S
C31 O35 1.260 . S
O32 In26 2.266 . S
O32 C29 1.252 . S
O33 In26 2.326 . S
O33 C29 1.260 . S
O34 In26 2.266 . S
O34 C31 1.252 . S
O35 In26 2.326 . S
O35 C31 1.260 . S
C36 O27 1.240 . S
C36 O28 1.252 . S
O37 In26 2.294 . S
O37 C30 1.240 . S
O38 In26 2.326 . S
O38 C30 1.252 . S
In39 O40 2.294 . S
In39 O41 2.326 . S
In39 O45 2.266 . S
In39 O46 2.326 . S
In39 O47 2.266 . S
In39 O48 2.326 . S
In39 O50 2.294 . S
In39 O51 2.326 . S
O40 In39 2.294 . S
O40 C49 1.240 . S
O41 In39 2.326 . S
O41 C49 1.252 . S
C42 O45 1.252 . S
C42 O46 1.260 . S
C43 O50 1.240 . S
C43 O51 1.252 . S
C44 O47 1.252 . S
C44 O48 1.260 . S
O45 In39 2.266 . S
O45 C42 1.252 . S
O46 In39 2.326 . S
O46 C42 1.260 . S
O47 In39 2.266 . S
O47 C44 1.252 . S
O48 In39 2.326 . S
O48 C44 1.260 . S
C49 O40 1.240 . S
C49 O41 1.252 . S
O50 In39 2.294 . S
O50 C43 1.240 . S
O51 In39 2.326 . S
O51 C43 1.252 . S
In52 O53 2.294 1_545 S
In52 O54 2.326 1_545 S
In52 O58 2.266 . S
In52 O59 2.326 . S
In52 O60 2.266 . S
In52 O61 2.326 . S
In52 O63 2.294 1_545 S
In52 O64 2.329 . S
O53 In52 2.294 1_565 S
O53 C62 1.240 . S
O54 In52 2.326 1_565 S
O54 C62 1.252 . S
C55 O58 1.252 . S
C55 O59 1.260 . S
C56 O63 1.240 . S
C56 O64 1.251 1_565 S
C57 O60 1.252 . S
C57 O61 1.260 . S
O58 In52 2.266 . S
O58 C55 1.252 . S
O59 In52 2.326 . S
O59 C55 1.260 . S
O60 In52 2.266 . S
O60 C57 1.252 . S
O61 In52 2.326 . S
O61 C57 1.260 . S
C62 O53 1.240 . S
C62 O54 1.252 . S
O63 In52 2.294 1_565 S
O63 C56 1.240 . S
O64 In52 2.329 . S
O64 C56 1.251 1_545 S
In65 O66 2.294 . S
In65 O67 2.326 . S
In65 O71 2.266 . S
In65 O72 2.326 . S
In65 O73 2.266 . S
In65 O74 2.326 . S
In65 O76 2.294 . S
In65 O77 2.326 . S
O66 In65 2.294 . S
O66 C75 1.240 . S
O67 In65 2.326 . S
O67 C75 1.252 . S
C68 O71 1.252 . S
C68 O72 1.260 . S
C69 O76 1.240 . S
C69 O77 1.252 . S
C70 O73 1.252 . S
C70 O74 1.260 . S
O71 In65 2.266 . S
O71 C68 1.252 . S
O72 In65 2.326 . S
O72 C68 1.260 . S
O73 In65 2.266 . S
O73 C70 1.252 . S
O74 In65 2.326 . S
O74 C70 1.260 . S
C75 O66 1.240 . S
C75 O67 1.252 . S
O76 In65 2.294 . S
O76 C69 1.240 . S
O77 In65 2.326 . S
O77 C69 1.252 . S
In78 O79 2.294 . S
In78 O80 2.326 . S
In78 O84 2.266 1_545 S
In78 O85 2.326 1_545 S
In78 O86 2.266 . S
In78 O87 2.326 . S
In78 O89 2.294 . S
In78 O90 2.326 . S
O79 In78 2.294 . S
O79 C88 1.240 . S
O80 In78 2.326 . S
O80 C88 1.252 . S
C81 O84 1.252 . S
C81 O85 1.260 . S
C82 O89 1.240 . S
C82 O90 1.252 . S
C83 O86 1.252 . S
C83 O87 1.260 . S
O84 In78 2.266 1_565 S
O84 C81 1.252 . S
O85 In78 2.326 1_565 S
O85 C81 1.260 . S
O86 In78 2.266 . S
O86 C83 1.252 . S
O87 In78 2.326 . S
O87 C83 1.260 . S
C88 O79 1.240 . S
C88 O80 1.252 . S
O89 In78 2.294 . S
O89 C82 1.240 . S
O90 In78 2.326 . S
O90 C82 1.252 . S
In91 O92 2.294 . S
In91 O93 2.326 . S
In91 O97 2.269 . S
In91 O98 2.326 . S
In91 O99 2.266 1_554 S
In91 O100 2.326 1_554 S
In91 O102 2.294 . S
In91 O103 2.326 . S
O92 In91 2.294 . S
O92 C101 1.240 . S
O93 In91 2.326 . S
O93 C101 1.252 . S
C94 O97 1.252 . S
C94 O98 1.260 . S
C95 O102 1.240 . S
C95 O103 1.252 . S
C96 O99 1.252 . S
C96 O100 1.260 . S
O97 In91 2.269 . S
O97 C94 1.252 . S
O98 In91 2.326 . S
O98 C94 1.260 . S
O99 In91 2.266 1_556 S
O99 C96 1.252 . S
O100 In91 2.326 1_556 S
O100 C96 1.260 . S
C101 O92 1.240 . S
C101 O93 1.252 . S
O102 In91 2.294 . S
O102 C95 1.240 . S
O103 In91 2.326 . S
O103 C95 1.252 . S
In104 O105 2.294 . S
In104 O106 2.326 . S
In104 O110 2.266 1_554 S
In104 O111 2.326 1_554 S
In104 O112 2.264 1_554 S
In104 O113 2.326 . S
In104 O115 2.294 . S
In104 O116 2.326 . S
O105 In104 2.294 . S
O105 C114 1.240 . S
O106 In104 2.326 . S
O106 C114 1.252 . S
C107 O110 1.252 . S
C107 O111 1.260 . S
C108 O115 1.240 . S
C108 O116 1.252 . S
C109 O112 1.252 1_554 S
C109 O113 1.260 . S
O110 In104 2.266 1_556 S
O110 C107 1.252 . S
O111 In104 2.326 1_556 S
O111 C107 1.260 . S
O112 In104 2.264 1_556 S
O112 C109 1.252 1_556 S
O113 In104 2.326 . S
O113 C109 1.260 . S
C114 O105 1.240 . S
C114 O106 1.252 . S
O115 In104 2.294 . S
O115 C108 1.240 . S
O116 In104 2.326 . S
O116 C108 1.252 . S
In117 O118 2.294 . S
In117 O119 2.326 . S
In117 O123 2.266 . S
In117 O124 2.326 . S
In117 O125 2.266 . S
In117 O126 2.326 . S
In117 O128 2.294 . S
In117 O129 2.326 . S
O118 In117 2.294 . S
O118 C127 1.240 . S
O119 In117 2.326 . S
O119 C127 1.252 . S
C120 O123 1.252 . S
C120 O124 1.260 . S
C121 O128 1.240 . S
C121 O129 1.252 . S
C122 O125 1.252 . S
C122 O126 1.260 . S
O123 In117 2.266 . S
O123 C120 1.252 . S
O124 In117 2.326 . S
O124 C120 1.260 . S
O125 In117 2.266 . S
O125 C122 1.252 . S
O126 In117 2.326 . S
O126 C122 1.260 . S
C127 O118 1.240 . S
C127 O119 1.252 . S
O128 In117 2.294 . S
O128 C121 1.240 . S
O129 In117 2.326 . S
O129 C121 1.252 . S
In130 O131 2.294 . S
In130 O132 2.326 . S
In130 O136 2.266 . S
In130 O137 2.326 . S
In130 O138 2.266 . S
In130 O139 2.326 . S
In130 O141 2.294 . S
In130 O142 2.326 . S
O131 In130 2.294 . S
O131 C140 1.240 . S
O132 In130 2.326 . S
O132 C140 1.252 . S
C133 O136 1.252 . S
C133 O137 1.260 . S
C134 O141 1.240 . S
C134 O142 1.252 . S
C135 O138 1.252 . S
C135 O139 1.260 . S
O136 In130 2.266 . S
O136 C133 1.252 . S
O137 In130 2.326 . S
O137 C133 1.260 . S
O138 In130 2.266 . S
O138 C135 1.252 . S
O139 In130 2.326 . S
O139 C135 1.260 . S
C140 O131 1.240 . S
C140 O132 1.252 . S
O141 In130 2.294 . S
O141 C134 1.240 . S
O142 In130 2.326 . S
O142 C134 1.252 . S
In143 O144 2.294 . S
In143 O145 2.326 . S
In143 O149 2.266 . S
In143 O150 2.326 . S
In143 O151 2.266 . S
In143 O152 2.326 . S
In143 O154 2.294 . S
In143 O155 2.326 . S
O144 In143 2.294 . S
O144 C153 1.240 . S
O145 In143 2.326 . S
O145 C153 1.252 . S
C146 O149 1.252 . S
C146 O150 1.260 . S
C147 O154 1.240 . S
C147 O155 1.252 . S
C148 O151 1.252 . S
C148 O152 1.260 . S
O149 In143 2.266 . S
O149 C146 1.252 . S
O150 In143 2.326 . S
O150 C146 1.260 . S
O151 In143 2.266 . S
O151 C148 1.252 . S
O152 In143 2.326 . S
O152 C148 1.260 . S
C153 O144 1.240 . S
C153 O145 1.252 . S
O154 In143 2.294 . S
O154 C147 1.240 . S
O155 In143 2.326 . S
O155 C147 1.252 . S
In156 O157 2.294 . S
In156 O158 2.326 . S
In156 O162 2.266 1_455 S
In156 O163 2.326 1_455 S
In156 O164 2.266 . S
In156 O165 2.326 . S
In156 O167 2.294 . S
In156 O168 2.326 . S
O157 In156 2.294 . S
O157 C166 1.240 . S
O158 In156 2.326 . S
O158 C166 1.252 . S
C159 O162 1.252 . S
C159 O163 1.260 . S
C160 O167 1.240 . S
C160 O168 1.252 . S
C161 O164 1.252 . S
C161 O165 1.260 . S
O162 In156 2.266 1_655 S
O162 C159 1.252 . S
O163 In156 2.326 1_655 S
O163 C159 1.260 . S
O164 In156 2.266 . S
O164 C161 1.252 . S
O165 In156 2.326 . S
O165 C161 1.260 . S
C166 O157 1.240 . S
C166 O158 1.252 . S
O167 In156 2.294 . S
O167 C160 1.240 . S
O168 In156 2.326 . S
O168 C160 1.252 . S
In169 O170 2.294 . S
In169 O171 2.326 . S
In169 O175 2.266 1_455 S
In169 O176 2.326 . S
In169 O177 2.266 1_455 S
In169 O178 2.326 1_455 S
In169 O180 2.294 . S
In169 O181 2.326 . S
O170 In169 2.294 . S
O170 C179 1.240 . S
O171 In169 2.326 . S
O171 C179 1.252 . S
C172 O175 1.252 1_455 S
C172 O176 1.262 . S
C173 O180 1.240 . S
C173 O181 1.252 . S
C174 O177 1.252 . S
C174 O178 1.260 . S
O175 In169 2.266 1_655 S
O175 C172 1.252 1_655 S
O176 In169 2.326 . S
O176 C172 1.262 . S
O177 In169 2.266 1_655 S
O177 C174 1.252 . S
O178 In169 2.326 1_655 S
O178 C174 1.260 . S
C179 O170 1.240 . S
C179 O171 1.252 . S
O180 In169 2.294 . S
O180 C173 1.240 . S
O181 In169 2.326 . S
O181 C173 1.252 . S
In182 O183 2.294 . S
In182 O184 2.326 . S
In182 O188 2.266 . S
In182 O189 2.326 . S
In182 O190 2.266 . S
In182 O191 2.326 . S
In182 O193 2.294 . S
In182 O194 2.326 . S
O183 In182 2.294 . S
O183 C192 1.240 . S
O184 In182 2.326 . S
O184 C192 1.252 . S
C185 O188 1.252 . S
C185 O189 1.260 . S
C186 O193 1.240 . S
C186 O194 1.252 . S
C187 O190 1.252 . S
C187 O191 1.260 . S
O188 In182 2.266 . S
O188 C185 1.252 . S
O189 In182 2.326 . S
O189 C185 1.260 . S
O190 In182 2.266 . S
O190 C187 1.252 . S
O191 In182 2.326 . S
O191 C187 1.260 . S
C192 O183 1.240 . S
C192 O184 1.252 . S
O193 In182 2.294 . S
O193 C186 1.240 . S
O194 In182 2.326 . S
O194 C186 1.252 . S
In195 O196 2.294 . S
In195 O197 2.326 . S
In195 O201 2.266 . S
In195 O202 2.326 . S
In195 O203 2.266 . S
In195 O204 2.326 . S
In195 O206 2.294 . S
In195 O207 2.326 . S
O196 In195 2.294 . S
O196 C205 1.240 . S
O197 In195 2.326 . S
O197 C205 1.252 . S
C198 O201 1.252 . S
C198 O202 1.260 . S
C199 O206 1.240 . S
C199 O207 1.252 . S
C200 O203 1.252 . S
C200 O204 1.260 . S
O201 In195 2.266 . S
O201 C198 1.252 . S
O202 In195 2.326 . S
O202 C198 1.260 . S
O203 In195 2.266 . S
O203 C200 1.252 . S
O204 In195 2.326 . S
O204 C200 1.260 . S
C205 O196 1.240 . S
C205 O197 1.252 . S
O206 In195 2.294 . S
O206 C199 1.240 . S
O207 In195 2.326 . S
O207 C199 1.252 . S
In208 O209 2.294 . S
In208 O210 2.326 . S
In208 O214 2.266 1_545 S
In208 O215 2.326 . S
In208 O216 2.266 1_545 S
In208 O217 2.326 1_545 S
In208 O219 2.294 . S
In208 O220 2.326 . S
O209 In208 2.294 . S
O209 C218 1.240 . S
O210 In208 2.326 . S
O210 C218 1.252 . S
C211 O214 1.252 . S
C211 O215 1.260 1_565 S
C212 O219 1.240 . S
C212 O220 1.252 . S
C213 O216 1.252 . S
C213 O217 1.260 . S
O214 In208 2.266 1_565 S
O214 C211 1.252 . S
O215 In208 2.326 . S
O215 C211 1.260 1_545 S
O216 In208 2.266 1_565 S
O216 C213 1.252 . S
O217 In208 2.326 1_565 S
O217 C213 1.260 . S
C218 O209 1.240 . S
C218 O210 1.252 . S
O219 In208 2.294 . S
O219 C212 1.240 . S
O220 In208 2.326 . S
O220 C212 1.252 . S
In221 O222 2.294 . S
In221 O223 2.326 . S
In221 O227 2.266 . S
In221 O228 2.326 . S
In221 O229 2.266 . S
In221 O230 2.326 . S
In221 O232 2.294 . S
In221 O233 2.326 . S
O222 In221 2.294 . S
O222 C231 1.240 . S
O223 In221 2.326 . S
O223 C231 1.252 . S
C224 O227 1.252 . S
C224 O228 1.260 . S
C225 O232 1.240 . S
C225 O233 1.252 . S
C226 O229 1.252 . S
C226 O230 1.260 . S
O227 In221 2.266 . S
O227 C224 1.252 . S
O228 In221 2.326 . S
O228 C224 1.260 . S
O229 In221 2.266 . S
O229 C226 1.252 . S
O230 In221 2.326 . S
O230 C226 1.260 . S
C231 O222 1.240 . S
C231 O223 1.252 . S
O232 In221 2.294 . S
O232 C225 1.240 . S
O233 In221 2.326 . S
O233 C225 1.252 . S
In234 O235 2.294 1_545 S
In234 O236 2.326 1_545 S
In234 O240 2.266 . S
In234 O241 2.326 . S
In234 O242 2.266 . S
In234 O243 2.326 . S
In234 O245 2.290 1_545 S
In234 O246 2.329 . S
O235 In234 2.294 1_565 S
O235 C244 1.240 . S
O236 In234 2.326 1_565 S
O236 C244 1.252 . S
C237 O240 1.252 . S
C237 O241 1.260 . S
C238 O245 1.241 . S
C238 O246 1.251 1_565 S
C239 O242 1.252 . S
C239 O243 1.260 . S
O240 In234 2.266 . S
O240 C237 1.252 . S
O241 In234 2.326 . S
O241 C237 1.260 . S
O242 In234 2.266 . S
O242 C239 1.252 . S
O243 In234 2.326 . S
O243 C239 1.260 . S
C244 O235 1.240 . S
C244 O236 1.252 . S
O245 In234 2.290 1_565 S
O245 C238 1.241 . S
O246 In234 2.329 . S
O246 C238 1.251 1_545 S
In247 O248 2.294 . S
In247 O249 2.326 . S
In247 O253 2.266 . S
In247 O254 2.326 . S
In247 O255 2.266 1_554 S
In247 O256 2.326 1_554 S
In247 O258 2.294 . S
In247 O259 2.326 . S
O248 In247 2.294 . S
O248 C257 1.240 . S
O249 In247 2.326 . S
O249 C257 1.252 . S
C250 O253 1.252 . S
C250 O254 1.260 . S
C251 O258 1.240 . S
C251 O259 1.252 . S
C252 O255 1.252 . S
C252 O256 1.260 . S
O253 In247 2.266 . S
O253 C250 1.252 . S
O254 In247 2.326 . S
O254 C250 1.260 . S
O255 In247 2.266 1_556 S
O255 C252 1.252 . S
O256 In247 2.326 1_556 S
O256 C252 1.260 . S
C257 O248 1.240 . S
C257 O249 1.252 . S
O258 In247 2.294 . S
O258 C251 1.240 . S
O259 In247 2.326 . S
O259 C251 1.252 . S
In260 O261 2.294 . S
In260 O262 2.326 . S
In260 O266 2.266 1_554 S
In260 O267 2.326 1_554 S
In260 O268 2.266 1_554 S
In260 O269 2.326 . S
In260 O271 2.294 . S
In260 O272 2.326 . S
O261 In260 2.294 . S
O261 C270 1.240 . S
O262 In260 2.326 . S
O262 C270 1.252 . S
C263 O266 1.252 . S
C263 O267 1.260 . S
C264 O271 1.240 . S
C264 O272 1.252 . S
C265 O268 1.252 . S
C265 O269 1.259 1_556 S
O266 In260 2.266 1_556 S
O266 C263 1.252 . S
O267 In260 2.326 1_556 S
O267 C263 1.260 . S
O268 In260 2.266 1_556 S
O268 C265 1.252 . S
O269 In260 2.326 . S
O269 C265 1.259 1_554 S
C270 O261 1.240 . S
C270 O262 1.252 . S
O271 In260 2.294 . S
O271 C264 1.240 . S
O272 In260 2.326 . S
O272 C264 1.252 . S
In273 O274 2.294 . S
In273 O275 2.326 . S
In273 O279 2.266 . S
In273 O280 2.326 . S
In273 O281 2.266 . S
In273 O282 2.326 . S
In273 O284 2.294 . S
In273 O285 2.326 . S
O274 In273 2.294 . S
O274 C283 1.240 . S
O275 In273 2.326 . S
O275 C283 1.252 . S
C276 O279 1.252 . S
C276 O280 1.260 . S
C277 O284 1.240 . S
C277 O285 1.252 . S
C278 O281 1.252 . S
C278 O282 1.260 . S
O279 In273 2.266 . S
O279 C276 1.252 . S
O280 In273 2.326 . S
O280 C276 1.260 . S
O281 In273 2.266 . S
O281 C278 1.252 . S
O282 In273 2.326 . S
O282 C278 1.260 . S
C283 O274 1.240 . S
C283 O275 1.252 . S
O284 In273 2.294 . S
O284 C277 1.240 . S
O285 In273 2.326 . S
O285 C277 1.252 . S
In286 O287 2.294 . S
In286 O288 2.326 . S
In286 O292 2.266 . S
In286 O293 2.326 . S
In286 O294 2.266 . S
In286 O295 2.326 . S
In286 O297 2.294 . S
In286 O298 2.326 . S
O287 In286 2.294 . S
O287 C296 1.240 . S
O288 In286 2.326 . S
O288 C296 1.252 . S
C289 O292 1.252 . S
C289 O293 1.260 . S
C290 O297 1.240 . S
C290 O298 1.252 . S
C291 O294 1.252 . S
C291 O295 1.260 . S
O292 In286 2.266 . S
O292 C289 1.252 . S
O293 In286 2.326 . S
O293 C289 1.260 . S
O294 In286 2.266 . S
O294 C291 1.252 . S
O295 In286 2.326 . S
O295 C291 1.260 . S
C296 O287 1.240 . S
C296 O288 1.252 . S
O297 In286 2.294 . S
O297 C290 1.240 . S
O298 In286 2.326 . S
O298 C290 1.252 . S
In299 O300 2.294 . S
In299 O301 2.326 . S
In299 O305 2.266 . S
In299 O306 2.326 . S
In299 O307 2.266 . S
In299 O308 2.326 . S
In299 O310 2.294 . S
In299 O311 2.326 . S
O300 In299 2.294 . S
O300 C309 1.240 . S
O301 In299 2.326 . S
O301 C309 1.252 . S
C302 O305 1.252 . S
C302 O306 1.260 . S
C303 O310 1.240 . S
C303 O311 1.252 . S
C304 O307 1.252 . S
C304 O308 1.260 . S
O305 In299 2.266 . S
O305 C302 1.252 . S
O306 In299 2.326 . S
O306 C302 1.260 . S
O307 In299 2.266 . S
O307 C304 1.252 . S
O308 In299 2.326 . S
O308 C304 1.260 . S
C309 O300 1.240 . S
C309 O301 1.252 . S
O310 In299 2.294 . S
O310 C303 1.240 . S
O311 In299 2.326 . S
O311 C303 1.252 . S
O312 Mg313 1.990 . S
O312 C326 1.253 . S
Mg313 O312 1.990 . S
Mg313 O316 2.180 1_556 S
Mg313 O317 2.117 1_556 S
Mg313 O331 2.030 . S
O314 Mg315 2.072 1_656 S
O314 C326 1.260 . S
Mg315 O314 2.072 1_454 S
Mg315 O316 2.099 1_455 S
Mg315 O318 2.079 1_545 S
Mg315 O319 2.072 1_554 S
Mg315 O321 2.099 1_544 S
Mg315 O332 2.079 1_445 S
O316 Mg313 2.180 1_554 S
O316 Mg315 2.099 1_655 S
O316 C327 1.279 . S
O317 Mg313 2.117 1_554 S
O317 C327 1.250 . S
O318 Mg315 2.079 1_565 S
O318 C328 1.264 . S
O319 Mg315 2.072 1_556 S
O319 C329 1.260 . S
Mg320 O321 2.180 1_554 S
Mg320 O322 2.030 . S
Mg320 O323 1.990 1_554 S
Mg320 O324 2.117 1_554 S
O321 Mg315 2.099 1_566 S
O321 Mg320 2.180 1_556 S
O321 C330 1.279 . S
O322 Mg320 2.030 . S
O322 C328 1.248 . S
O323 Mg320 1.990 1_556 S
O323 C329 1.253 1_565 S
O324 Mg320 2.117 1_556 S
O324 C330 1.250 . S
C325 O331 1.248 1_564 S
C325 O332 1.264 . S
C326 O312 1.253 . S
C326 O314 1.260 . S
C327 O316 1.279 . S
C327 O317 1.250 . S
C328 O318 1.264 . S
C328 O322 1.248 . S
C329 O319 1.260 . S
C329 O323 1.253 1_545 S
C330 O321 1.279 . S
C330 O324 1.250 . S
O331 Mg313 2.030 . S
O331 C325 1.248 1_546 S
O332 Mg315 2.079 1_665 S
O332 C325 1.264 . S
O333 Mg334 1.990 . S
O333 C347 1.253 . S
Mg334 O333 1.990 . S
Mg334 O337 2.180 . S
Mg334 O338 2.117 . S
Mg334 O352 2.030 . S
O335 Mg336 2.072 . S
O335 C347 1.260 . S
Mg336 O335 2.072 . S
Mg336 O337 2.099 . S
Mg336 O339 2.079 . S
Mg336 O340 2.072 . S
Mg336 O342 2.099 . S
Mg336 O353 2.079 . S
O337 Mg334 2.180 . S
O337 Mg336 2.099 . S
O337 C348 1.279 . S
O338 Mg334 2.117 . S
O338 C348 1.250 . S
O339 Mg336 2.079 . S
O339 C349 1.264 . S
O340 Mg336 2.072 . S
O340 C350 1.260 . S
Mg341 O342 2.180 . S
Mg341 O343 2.030 . S
Mg341 O344 1.990 . S
Mg341 O345 2.117 . S
O342 Mg336 2.099 . S
O342 Mg341 2.180 . S
O342 C351 1.279 . S
O343 Mg341 2.030 . S
O343 C349 1.248 . S
O344 Mg341 1.990 . S
O344 C350 1.253 . S
O345 Mg341 2.117 . S
O345 C351 1.250 . S
C346 O352 1.248 . S
C346 O353 1.264 . S
C347 O333 1.253 . S
C347 O335 1.260 . S
C348 O337 1.279 . S
C348 O338 1.250 . S
C349 O339 1.264 . S
C349 O343 1.248 . S
C350 O340 1.260 . S
C350 O344 1.253 . S
C351 O342 1.279 . S
C351 O345 1.250 . S
O352 Mg334 2.030 . S
O352 C346 1.248 . S
O353 Mg336 2.079 . S
O353 C346 1.264 . S
O354 Mg355 1.990 . S
O354 C368 1.253 . S
Mg355 O354 1.990 . S
Mg355 O358 2.180 . S
Mg355 O359 2.117 . S
Mg355 O373 2.030 1_565 S
O356 Mg357 2.072 . S
O356 C368 1.260 1_545 S
Mg357 O356 2.072 . S
Mg357 O358 2.099 1_545 S
Mg357 O360 2.079 . S
Mg357 O361 2.072 1_545 S
Mg357 O363 2.099 . S
Mg357 O374 2.079 . S
O358 Mg355 2.180 . S
O358 Mg357 2.099 1_565 S
O358 C369 1.279 . S
O359 Mg355 2.117 . S
O359 C369 1.250 . S
O360 Mg357 2.079 . S
O360 C370 1.264 . S
O361 Mg357 2.072 1_565 S
O361 C371 1.260 . S
Mg362 O363 2.180 . S
Mg362 O364 2.030 . S
Mg362 O365 1.990 . S
Mg362 O366 2.117 . S
O363 Mg357 2.099 . S
O363 Mg362 2.180 . S
O363 C372 1.279 . S
O364 Mg362 2.030 . S
O364 C370 1.248 . S
O365 Mg362 1.990 . S
O365 C371 1.253 1_545 S
O366 Mg362 2.117 . S
O366 C372 1.250 . S
C367 O373 1.248 . S
C367 O374 1.264 . S
C368 O354 1.253 . S
C368 O356 1.260 1_565 S
C369 O358 1.279 . S
C369 O359 1.250 . S
C370 O360 1.264 . S
C370 O364 1.248 . S
C371 O361 1.260 . S
C371 O365 1.253 1_565 S
C372 O363 1.279 . S
C372 O366 1.250 . S
O373 Mg355 2.030 1_545 S
O373 C367 1.248 . S
O374 Mg357 2.079 . S
O374 C367 1.264 . S
O375 Mg376 1.990 . S
O375 C389 1.253 . S
Mg376 O375 1.990 . S
Mg376 O379 2.180 . S
Mg376 O380 2.117 . S
Mg376 O394 2.030 . S
O377 Mg378 2.072 . S
O377 C389 1.260 . S
Mg378 O377 2.072 . S
Mg378 O379 2.099 . S
Mg378 O381 2.079 . S
Mg378 O382 2.072 . S
Mg378 O384 2.099 . S
Mg378 O395 2.079 . S
O379 Mg376 2.180 . S
O379 Mg378 2.099 . S
O379 C390 1.279 . S
O380 Mg376 2.117 . S
O380 C390 1.250 . S
O381 Mg378 2.079 . S
O381 C391 1.264 . S
O382 Mg378 2.072 . S
O382 C392 1.260 . S
Mg383 O384 2.180 . S
Mg383 O385 2.030 . S
Mg383 O386 1.990 . S
Mg383 O387 2.117 . S
O384 Mg378 2.099 . S
O384 Mg383 2.180 . S
O384 C393 1.279 . S
O385 Mg383 2.030 . S
O385 C391 1.248 . S
O386 Mg383 1.990 . S
O386 C392 1.253 . S
O387 Mg383 2.117 . S
O387 C393 1.250 . S
C388 O394 1.248 . S
C388 O395 1.264 . S
C389 O375 1.253 . S
C389 O377 1.260 . S
C390 O379 1.279 . S
C390 O380 1.250 . S
C391 O381 1.264 . S
C391 O385 1.248 . S
C392 O382 1.260 . S
C392 O386 1.253 . S
C393 O384 1.279 . S
C393 O387 1.250 . S
O394 Mg376 2.030 . S
O394 C388 1.248 . S
O395 Mg378 2.079 . S
O395 C388 1.264 . S
O396 Mg397 1.990 1_655 S
O396 C410 1.253 . S
Mg397 O396 1.990 1_455 S
Mg397 O400 2.177 1_455 S
Mg397 O401 2.117 1_455 S
Mg397 O415 2.030 . S
O398 Mg399 2.072 1_565 S
O398 C410 1.260 1_455 S
Mg399 O398 2.072 1_545 S
Mg399 O400 2.097 1_445 S
Mg399 O402 2.079 . S
Mg399 O403 2.072 1_455 S
Mg399 O405 2.099 . S
Mg399 O416 2.079 1_545 S
O400 Mg397 2.177 1_655 S
O400 Mg399 2.097 1_665 S
O400 C411 1.285 . S
O401 Mg397 2.117 1_655 S
O401 C411 1.250 . S
O402 Mg399 2.079 . S
O402 C412 1.264 . S
O403 Mg399 2.072 1_655 S
O403 C413 1.260 . S
Mg404 O405 2.180 1_655 S
Mg404 O406 2.028 1_655 S
Mg404 O407 1.990 . S
Mg404 O408 2.117 1_655 S
O405 Mg399 2.099 . S
O405 Mg404 2.180 1_455 S
O405 C414 1.279 . S
O406 Mg404 2.028 1_455 S
O406 C412 1.256 . S
O407 Mg404 1.990 . S
O407 C413 1.253 . S
O408 Mg404 2.117 1_455 S
O408 C414 1.250 . S
C409 O415 1.248 . S
C409 O416 1.264 . S
C410 O396 1.253 . S
C410 O398 1.260 1_655 S
C411 O400 1.285 . S
C411 O401 1.250 . S
C412 O402 1.264 . S
C412 O406 1.256 . S
C413 O403 1.260 . S
C413 O407 1.253 . S
C414 O405 1.279 . S
C414 O408 1.250 . S
O415 Mg397 2.030 . S
O415 C409 1.248 . S
O416 Mg399 2.079 1_565 S
O416 C409 1.264 . S
O417 Mg418 1.990 . S
O417 C431 1.253 . S
Mg418 O417 1.990 . S
Mg418 O421 2.180 . S
Mg418 O422 2.117 . S
Mg418 O436 2.030 . S
O419 Mg420 2.072 . S
O419 C431 1.260 . S
Mg420 O419 2.072 . S
Mg420 O421 2.099 . S
Mg420 O423 2.079 . S
Mg420 O424 2.072 . S
Mg420 O426 2.099 . S
Mg420 O437 2.079 . S
O421 Mg418 2.180 . S
O421 Mg420 2.099 . S
O421 C432 1.279 . S
O422 Mg418 2.117 . S
O422 C432 1.250 . S
O423 Mg420 2.079 . S
O423 C433 1.264 . S
O424 Mg420 2.072 . S
O424 C434 1.260 . S
Mg425 O426 2.180 . S
Mg425 O427 2.030 . S
Mg425 O428 1.990 . S
Mg425 O429 2.117 . S
O426 Mg420 2.099 . S
O426 Mg425 2.180 . S
O426 C435 1.279 . S
O427 Mg425 2.030 . S
O427 C433 1.248 . S
O428 Mg425 1.990 . S
O428 C434 1.253 . S
O429 Mg425 2.117 . S
O429 C435 1.250 . S
C430 O436 1.248 . S
C430 O437 1.264 . S
C431 O417 1.253 . S
C431 O419 1.260 . S
C432 O421 1.279 . S
C432 O422 1.250 . S
C433 O423 1.264 . S
C433 O427 1.248 . S
C434 O424 1.260 . S
C434 O428 1.253 . S
C435 O426 1.279 . S
C435 O429 1.250 . S
O436 Mg418 2.030 . S
O436 C430 1.248 . S
O437 Mg420 2.079 . S
O437 C430 1.264 . S
O438 Mg439 1.990 . S
O438 C452 1.253 . S
Mg439 O438 1.990 . S
Mg439 O442 2.180 1_565 S
Mg439 O443 2.117 1_565 S
Mg439 O457 2.030 . S
O440 Mg441 2.072 1_565 S
O440 C452 1.260 . S
Mg441 O440 2.072 1_545 S
Mg441 O442 2.099 . S
Mg441 O444 2.077 1_554 S
Mg441 O445 2.072 1_544 S
Mg441 O447 2.099 1_544 S
Mg441 O458 2.079 . S
O442 Mg439 2.180 1_545 S
O442 Mg441 2.099 . S
O442 C453 1.279 . S
O443 Mg439 2.117 1_545 S
O443 C453 1.250 . S
O444 Mg441 2.077 1_556 S
O444 C454 1.268 . S
O445 Mg441 2.072 1_566 S
O445 C455 1.260 . S
Mg446 O447 2.180 1_545 S
Mg446 O448 2.030 . S
Mg446 O449 1.990 1_545 S
Mg446 O450 2.117 1_545 S
O447 Mg441 2.099 1_566 S
O447 Mg446 2.180 1_565 S
O447 C456 1.279 . S
O448 Mg446 2.030 . S
O448 C454 1.248 . S
O449 Mg446 1.990 1_565 S
O449 C455 1.253 . S
O450 Mg446 2.117 1_565 S
O450 C456 1.250 . S
C451 O457 1.248 1_545 S
C451 O458 1.264 . S
C452 O438 1.253 . S
C452 O440 1.260 . S
C453 O442 1.279 . S
C453 O443 1.250 . S
C454 O444 1.268 . S
C454 O448 1.248 . S
C455 O445 1.260 . S
C455 O449 1.253 . S
C456 O447 1.279 . S
C456 O450 1.250 . S
O457 Mg439 2.030 . S
O457 C451 1.248 1_565 S
O458 Mg441 2.079 . S
O458 C451 1.264 . S
O459 Mg460 1.990 . S
O459 C473 1.253 . S
Mg460 O459 1.990 . S
Mg460 O463 2.180 . S
Mg460 O464 2.117 . S
Mg460 O478 2.030 . S
O461 Mg462 2.072 . S
O461 C473 1.260 . S
Mg462 O461 2.072 . S
Mg462 O463 2.099 . S
Mg462 O465 2.079 . S
Mg462 O466 2.072 . S
Mg462 O468 2.099 . S
Mg462 O479 2.079 . S
O463 Mg460 2.180 . S
O463 Mg462 2.099 . S
O463 C474 1.279 . S
O464 Mg460 2.117 . S
O464 C474 1.250 . S
O465 Mg462 2.079 . S
O465 C475 1.264 . S
O466 Mg462 2.072 . S
O466 C476 1.260 . S
Mg467 O468 2.180 . S
Mg467 O469 2.030 . S
Mg467 O470 1.990 . S
Mg467 O471 2.117 . S
O468 Mg462 2.099 . S
O468 Mg467 2.180 . S
O468 C477 1.279 . S
O469 Mg467 2.030 . S
O469 C475 1.248 . S
O470 Mg467 1.990 . S
O470 C476 1.253 . S
O471 Mg467 2.117 . S
O471 C477 1.250 . S
C472 O478 1.248 . S
C472 O479 1.264 . S
C473 O459 1.253 . S
C473 O461 1.260 . S
C474 O463 1.279 . S
C474 O464 1.250 . S
C475 O465 1.264 . S
C475 O469 1.248 . S
C476 O466 1.260 . S
C476 O470 1.253 . S
C477 O468 1.279 . S
C477 O471 1.250 . S
O478 Mg460 2.030 . S
O478 C472 1.248 . S
O479 Mg462 2.079 . S
O479 C472 1.264 . S
O480 Mg481 1.990 . S
O480 C494 1.253 . S
Mg481 O480 1.990 . S
Mg481 O484 2.180 . S
Mg481 O485 2.117 . S
Mg481 O499 2.030 1_556 S
O482 Mg483 2.072 . S
O482 C494 1.260 1_554 S
Mg483 O482 2.072 . S
Mg483 O484 2.099 1_554 S
Mg483 O486 2.079 . S
Mg483 O487 2.072 1_554 S
Mg483 O489 2.099 . S
Mg483 O500 2.079 . S
O484 Mg481 2.180 . S
O484 Mg483 2.099 1_556 S
O484 C495 1.279 . S
O485 Mg481 2.117 . S
O485 C495 1.250 . S
O486 Mg483 2.079 . S
O486 C496 1.264 . S
O487 Mg483 2.072 1_556 S
O487 C497 1.260 . S
Mg488 O489 2.180 . S
Mg488 O490 2.030 . S
Mg488 O491 1.990 . S
Mg488 O492 2.117 . S
O489 Mg483 2.099 . S
O489 Mg488 2.180 . S
O489 C498 1.279 . S
O490 Mg488 2.030 . S
O490 C496 1.248 . S
O491 Mg488 1.990 . S
O491 C497 1.253 1_554 S
O492 Mg488 2.117 . S
O492 C498 1.250 . S
C493 O499 1.248 . S
C493 O500 1.264 . S
C494 O480 1.253 . S
C494 O482 1.260 1_556 S
C495 O484 1.279 . S
C495 O485 1.250 . S
C496 O486 1.264 . S
C496 O490 1.248 . S
C497 O487 1.260 . S
C497 O491 1.253 1_556 S
C498 O489 1.279 . S
C498 O492 1.250 . S
O499 Mg481 2.030 1_554 S
O499 C493 1.248 . S
O500 Mg483 2.079 . S
O500 C493 1.264 . S
O501 Mg502 1.990 . S
O501 C515 1.253 . S
Mg502 O501 1.990 . S
Mg502 O505 2.180 . S
Mg502 O506 2.117 . S
Mg502 O520 2.030 . S
O503 Mg504 2.072 . S
O503 C515 1.260 . S
Mg504 O503 2.072 . S
Mg504 O505 2.099 . S
Mg504 O507 2.079 . S
Mg504 O508 2.072 . S
Mg504 O510 2.099 . S
Mg504 O521 2.079 . S
O505 Mg502 2.180 . S
O505 Mg504 2.099 . S
O505 C516 1.279 . S
O506 Mg502 2.117 . S
O506 C516 1.250 . S
O507 Mg504 2.079 . S
O507 C517 1.264 . S
O508 Mg504 2.072 . S
O508 C518 1.260 . S
Mg509 O510 2.180 . S
Mg509 O511 2.030 . S
Mg509 O512 1.990 . S
Mg509 O513 2.117 . S
O510 Mg504 2.099 . S
O510 Mg509 2.180 . S
O510 C519 1.279 . S
O511 Mg509 2.030 . S
O511 C517 1.248 . S
O512 Mg509 1.990 . S
O512 C518 1.253 . S
O513 Mg509 2.117 . S
O513 C519 1.250 . S
C514 O520 1.248 . S
C514 O521 1.264 . S
C515 O501 1.253 . S
C515 O503 1.260 . S
C516 O505 1.279 . S
C516 O506 1.250 . S
C517 O507 1.264 . S
C517 O511 1.248 . S
C518 O508 1.260 . S
C518 O512 1.253 . S
C519 O510 1.279 . S
C519 O513 1.250 . S
O520 Mg502 2.030 . S
O520 C514 1.248 . S
O521 Mg504 2.079 . S
O521 C514 1.264 . S
O522 Mg523 1.990 . S
O522 C536 1.253 . S
Mg523 O522 1.990 . S
Mg523 O526 2.180 . S
Mg523 O527 2.117 . S
Mg523 O541 2.030 1_655 S
O524 Mg525 2.072 . S
O524 C536 1.260 1_455 S
Mg525 O524 2.072 . S
Mg525 O526 2.099 1_455 S
Mg525 O528 2.079 . S
Mg525 O529 2.072 1_455 S
Mg525 O531 2.099 . S
Mg525 O542 2.079 . S
O526 Mg523 2.180 . S
O526 Mg525 2.099 1_655 S
O526 C537 1.279 . S
O527 Mg523 2.117 . S
O527 C537 1.250 . S
O528 Mg525 2.079 . S
O528 C538 1.264 . S
O529 Mg525 2.072 1_655 S
O529 C539 1.260 . S
Mg530 O531 2.180 . S
Mg530 O532 2.030 . S
Mg530 O533 1.990 . S
Mg530 O534 2.117 . S
O531 Mg525 2.099 . S
O531 Mg530 2.180 . S
O531 C540 1.279 . S
O532 Mg530 2.030 . S
O532 C538 1.248 . S
O533 Mg530 1.990 . S
O533 C539 1.253 1_455 S
O534 Mg530 2.117 . S
O534 C540 1.250 . S
C535 O541 1.248 . S
C535 O542 1.264 . S
C536 O522 1.253 . S
C536 O524 1.260 1_655 S
C537 O526 1.279 . S
C537 O527 1.250 . S
C538 O528 1.264 . S
C538 O532 1.248 . S
C539 O529 1.260 . S
C539 O533 1.253 1_655 S
C540 O531 1.279 . S
C540 O534 1.250 . S
O541 Mg523 2.030 1_455 S
O541 C535 1.248 . S
O542 Mg525 2.079 . S
O542 C535 1.264 . S
O543 Mg544 1.990 . S
O543 C557 1.253 . S
Mg544 O543 1.990 . S
Mg544 O547 2.180 . S
Mg544 O548 2.117 . S
Mg544 O562 2.030 . S
O545 Mg546 2.072 . S
O545 C557 1.260 . S
Mg546 O545 2.072 . S
Mg546 O547 2.099 . S
Mg546 O549 2.079 . S
Mg546 O550 2.072 . S
Mg546 O552 2.099 . S
Mg546 O563 2.079 . S
O547 Mg544 2.180 . S
O547 Mg546 2.099 . S
O547 C558 1.279 . S
O548 Mg544 2.117 . S
O548 C558 1.250 . S
O549 Mg546 2.079 . S
O549 C559 1.264 . S
O550 Mg546 2.072 . S
O550 C560 1.260 . S
Mg551 O552 2.180 . S
Mg551 O553 2.030 . S
Mg551 O554 1.990 . S
Mg551 O555 2.117 . S
O552 Mg546 2.099 . S
O552 Mg551 2.180 . S
O552 C561 1.279 . S
O553 Mg551 2.030 . S
O553 C559 1.248 . S
O554 Mg551 1.990 . S
O554 C560 1.253 . S
O555 Mg551 2.117 . S
O555 C561 1.250 . S
C556 O562 1.248 . S
C556 O563 1.264 . S
C557 O543 1.253 . S
C557 O545 1.260 . S
C558 O547 1.279 . S
C558 O548 1.250 . S
C559 O549 1.264 . S
C559 O553 1.248 . S
C560 O550 1.260 . S
C560 O554 1.253 . S
C561 O552 1.279 . S
C561 O555 1.250 . S
O562 Mg544 2.030 . S
O562 C556 1.248 . S
O563 Mg546 2.079 . S
O563 C556 1.264 . S
O564 Mg565 1.990 . S
O564 C578 1.253 . S
Mg565 O564 1.990 . S
Mg565 O568 2.180 . S
Mg565 O569 2.117 . S
Mg565 O583 2.030 . S
O566 Mg567 2.072 . S
O566 C578 1.260 . S
Mg567 O566 2.072 . S
Mg567 O568 2.099 . S
Mg567 O570 2.079 . S
Mg567 O571 2.072 . S
Mg567 O573 2.099 . S
Mg567 O584 2.079 . S
O568 Mg565 2.180 . S
O568 Mg567 2.099 . S
O568 C579 1.279 . S
O569 Mg565 2.117 . S
O569 C579 1.250 . S
O570 Mg567 2.079 . S
O570 C580 1.264 . S
O571 Mg567 2.072 . S
O571 C581 1.260 . S
Mg572 O573 2.180 . S
Mg572 O574 2.030 . S
Mg572 O575 1.990 . S
Mg572 O576 2.117 . S
O573 Mg567 2.099 . S
O573 Mg572 2.180 . S
O573 C582 1.279 . S
O574 Mg572 2.030 . S
O574 C580 1.248 . S
O575 Mg572 1.990 . S
O575 C581 1.253 . S
O576 Mg572 2.117 . S
O576 C582 1.250 . S
C577 O583 1.248 . S
C577 O584 1.264 . S
C578 O564 1.253 . S
C578 O566 1.260 . S
C579 O568 1.279 . S
C579 O569 1.250 . S
C580 O570 1.264 . S
C580 O574 1.248 . S
C581 O571 1.260 . S
C581 O575 1.253 . S
C582 O573 1.279 . S
C582 O576 1.250 . S
O583 Mg565 2.030 . S
O583 C577 1.248 . S
O584 Mg567 2.079 . S
O584 C577 1.264 . S
O585 Mg586 1.990 . S
O585 C599 1.253 . S
Mg586 O585 1.990 . S
Mg586 O589 2.180 . S
Mg586 O590 2.117 . S
Mg586 O604 2.030 . S
O587 Mg588 2.072 . S
O587 C599 1.260 . S
Mg588 O587 2.072 . S
Mg588 O589 2.099 . S
Mg588 O591 2.079 . S
Mg588 O592 2.072 . S
Mg588 O594 2.099 . S
Mg588 O605 2.079 . S
O589 Mg586 2.180 . S
O589 Mg588 2.099 . S
O589 C600 1.279 . S
O590 Mg586 2.117 . S
O590 C600 1.250 . S
O591 Mg588 2.079 . S
O591 C601 1.264 . S
O592 Mg588 2.072 . S
O592 C602 1.260 . S
Mg593 O594 2.180 . S
Mg593 O595 2.030 . S
Mg593 O596 1.990 . S
Mg593 O597 2.117 . S
O594 Mg588 2.099 . S
O594 Mg593 2.180 . S
O594 C603 1.279 . S
O595 Mg593 2.030 . S
O595 C601 1.248 . S
O596 Mg593 1.990 . S
O596 C602 1.253 . S
O597 Mg593 2.117 . S
O597 C603 1.250 . S
C598 O604 1.248 . S
C598 O605 1.264 . S
C599 O585 1.253 . S
C599 O587 1.260 . S
C600 O589 1.279 . S
C600 O590 1.250 . S
C601 O591 1.264 . S
C601 O595 1.248 . S
C602 O592 1.260 . S
C602 O596 1.253 . S
C603 O594 1.279 . S
C603 O597 1.250 . S
O604 Mg586 2.030 . S
O604 C598 1.248 . S
O605 Mg588 2.079 . S
O605 C598 1.264 . S
O606 Mg607 1.990 . S
O606 C620 1.253 . S
Mg607 O606 1.990 . S
Mg607 O610 2.180 . S
Mg607 O611 2.117 . S
Mg607 O625 2.030 . S
O608 Mg609 2.072 . S
O608 C620 1.260 . S
Mg609 O608 2.072 . S
Mg609 O610 2.099 . S
Mg609 O612 2.079 . S
Mg609 O613 2.072 . S
Mg609 O615 2.099 . S
Mg609 O626 2.079 . S
O610 Mg607 2.180 . S
O610 Mg609 2.099 . S
O610 C621 1.279 . S
O611 Mg607 2.117 . S
O611 C621 1.250 . S
O612 Mg609 2.079 . S
O612 C622 1.264 . S
O613 Mg609 2.072 . S
O613 C623 1.260 . S
Mg614 O615 2.180 . S
Mg614 O616 2.030 . S
Mg614 O617 1.990 . S
Mg614 O618 2.117 . S
O615 Mg609 2.099 . S
O615 Mg614 2.180 . S
O615 C624 1.279 . S
O616 Mg614 2.030 . S
O616 C622 1.248 . S
O617 Mg614 1.990 . S
O617 C623 1.253 . S
O618 Mg614 2.117 . S
O618 C624 1.250 . S
C619 O625 1.248 . S
C619 O626 1.264 . S
C620 O606 1.253 . S
C620 O608 1.260 . S
C621 O610 1.279 . S
C621 O611 1.250 . S
C622 O612 1.264 . S
C622 O616 1.248 . S
C623 O613 1.260 . S
C623 O617 1.253 . S
C624 O615 1.279 . S
C624 O618 1.250 . S
O625 Mg607 2.030 . S
O625 C619 1.248 . S
O626 Mg609 2.079 . S
O626 C619 1.264 . S
O627 Mg628 1.990 . S
O627 C641 1.253 . S
Mg628 O627 1.990 . S
Mg628 O631 2.180 1_556 S
Mg628 O632 2.117 1_556 S
Mg628 O646 2.030 . S
O629 Mg630 2.072 1_556 S
O629 C641 1.260 . S
Mg630 O629 2.072 1_554 S
Mg630 O631 2.099 . S
Mg630 O633 2.079 . S
Mg630 O634 2.072 1_454 S
Mg630 O636 2.099 1_454 S
Mg630 O647 2.079 . S
O631 Mg628 2.180 1_554 S
O631 Mg630 2.099 . S
O631 C642 1.279 . S
O632 Mg628 2.117 1_554 S
O632 C642 1.250 . S
O633 Mg630 2.079 . S
O633 C643 1.264 1_455 S
O634 Mg630 2.072 1_656 S
O634 C644 1.260 . S
Mg635 O636 2.180 1_554 S
Mg635 O637 2.030 . S
Mg635 O638 1.990 1_554 S
Mg635 O639 2.117 1_554 S
O636 Mg630 2.099 1_656 S
O636 Mg635 2.180 1_556 S
O636 C645 1.279 . S
O637 Mg635 2.030 . S
O637 C643 1.248 . S
O638 Mg635 1.990 1_556 S
O638 C644 1.253 . S
O639 Mg635 2.117 1_556 S
O639 C645 1.250 . S
C640 O646 1.248 1_554 S
C640 O647 1.264 . S
C641 O627 1.253 . S
C641 O629 1.260 . S
C642 O631 1.279 . S
C642 O632 1.250 . S
C643 O633 1.264 1_655 S
C643 O637 1.248 . S
C644 O634 1.260 . S
C644 O638 1.253 . S
C645 O636 1.279 . S
C645 O639 1.250 . S
O646 Mg628 2.030 . S
O646 C640 1.248 1_556 S
O647 Mg630 2.079 . S
O647 C640 1.264 . S
C648 C649 1.387 . S
C648 H652 0.950 . S
C648 C657 1.390 . S
C649 C648 1.387 . S
C649 C651 1.387 1_655 S
H650 C657 0.950 . S
C651 C649 1.387 1_455 S
C651 C653 1.390 . S
C651 H655 0.950 . S
H652 C648 0.950 . S
C653 C651 1.390 . S
C653 C654 1.387 1_455 S
C653 H656 0.950 . S
C654 C653 1.387 1_655 S
C654 C657 1.387 . S
H655 C651 0.950 . S
H656 C653 0.950 . S
C657 C648 1.390 . S
C657 H650 0.950 . S
C657 C654 1.387 . S
C658 C659 1.387 . S
C658 H662 0.950 . S
C658 C667 1.390 . S
C659 C658 1.387 . S
C659 C661 1.387 . S
H660 C667 0.950 . S
C661 C659 1.387 . S
C661 C663 1.390 . S
C661 H665 0.950 . S
H662 C658 0.950 . S
C663 C661 1.390 . S
C663 C664 1.387 . S
C663 H666 0.950 . S
C664 C663 1.387 . S
C664 C667 1.387 . S
H665 C661 0.950 . S
H666 C663 0.950 . S
C667 C658 1.390 . S
C667 H660 0.950 . S
C667 C664 1.387 . S
C668 C669 1.387 . S
C668 H672 0.950 . S
C668 C677 1.390 . S
C669 C668 1.387 . S
C669 C671 1.387 . S
H670 C677 0.950 . S
C671 C669 1.387 . S
C671 C673 1.390 . S
C671 H675 0.950 . S
H672 C668 0.950 . S
C673 C671 1.390 . S
C673 C674 1.387 . S
C673 H676 0.950 . S
C674 C673 1.387 . S
C674 C677 1.387 . S
H675 C671 0.950 . S
H676 C673 0.950 . S
C677 C668 1.390 . S
C677 H670 0.950 . S
C677 C674 1.387 . S
C678 C679 1.387 . S
C678 H682 0.950 . S
C678 C687 1.390 . S
C679 C678 1.387 . S
C679 C681 1.387 . S
H680 C687 0.950 . S
C681 C679 1.387 . S
C681 C683 1.390 . S
C681 H685 0.950 . S
H682 C678 0.950 . S
C683 C681 1.390 . S
C683 C684 1.387 . S
C683 H686 0.950 . S
C684 C683 1.387 . S
C684 C687 1.387 . S
H685 C681 0.950 . S
H686 C683 0.950 . S
C687 C678 1.390 . S
C687 H680 0.950 . S
C687 C684 1.387 . S
C688 C689 1.378 1_655 S
C688 H692 0.950 . S
C688 C697 1.390 . S
C689 C688 1.378 1_455 S
C689 C691 1.396 . S
H690 C697 0.950 . S
C691 C689 1.396 . S
C691 C693 1.390 . S
C691 H695 0.950 . S
H692 C688 0.950 . S
C693 C691 1.390 . S
C693 C694 1.387 1_455 S
C693 H696 0.950 . S
C694 C693 1.387 1_655 S
C694 C697 1.387 . S
H695 C691 0.950 . S
H696 C693 0.950 . S
C697 C688 1.390 . S
C697 H690 0.950 . S
C697 C694 1.387 . S
C698 C699 1.387 . S
C698 H702 0.950 . S
C698 C707 1.390 . S
C699 C698 1.387 . S
C699 C701 1.387 . S
H700 C707 0.950 . S
C701 C699 1.387 . S
C701 C703 1.390 . S
C701 H705 0.950 . S
H702 C698 0.950 . S
C703 C701 1.390 . S
C703 C704 1.387 . S
C703 H706 0.950 . S
C704 C703 1.387 . S
C704 C707 1.387 . S
H705 C701 0.950 . S
H706 C703 0.950 . S
C707 C698 1.390 . S
C707 H700 0.950 . S
C707 C704 1.387 . S
C708 C709 1.387 . S
C708 H712 0.950 . S
C708 C717 1.390 . S
C709 C708 1.387 . S
C709 C711 1.387 . S
H710 C717 0.950 . S
C711 C709 1.387 . S
C711 C713 1.390 . S
C711 H715 0.950 . S
H712 C708 0.950 . S
C713 C711 1.390 . S
C713 C714 1.387 . S
C713 H716 0.950 . S
C714 C713 1.387 . S
C714 C717 1.387 . S
H715 C711 0.950 . S
H716 C713 0.950 . S
C717 C708 1.390 . S
C717 H710 0.950 . S
C717 C714 1.387 . S
C718 C719 1.387 . S
C718 H722 0.950 . S
C718 C727 1.390 . S
C719 C718 1.387 . S
C719 C721 1.387 . S
H720 C727 0.950 . S
C721 C719 1.387 . S
C721 C723 1.390 . S
C721 H725 0.950 . S
H722 C718 0.950 . S
C723 C721 1.390 . S
C723 C724 1.387 . S
C723 H726 0.950 . S
C724 C723 1.387 . S
C724 C727 1.387 . S
H725 C721 0.950 . S
H726 C723 0.950 . S
C727 C718 1.390 . S
C727 H720 0.950 . S
C727 C724 1.387 . S
C728 C729 1.387 1_545 S
C728 H732 0.950 . S
C728 C737 1.390 . S
C729 C728 1.387 1_565 S
C729 C731 1.387 . S
H730 C737 0.950 . S
C731 C729 1.387 . S
C731 C733 1.390 . S
C731 H735 0.950 . S
H732 C728 0.950 . S
C733 C731 1.390 . S
C733 C734 1.387 . S
C733 H736 0.950 . S
C734 C733 1.387 . S
C734 C737 1.387 1_565 S
H735 C731 0.950 . S
H736 C733 0.950 . S
C737 C728 1.390 . S
C737 H730 0.950 . S
C737 C734 1.387 1_545 S
C738 C739 1.387 . S
C738 H742 0.950 . S
C738 C747 1.390 . S
C739 C738 1.387 . S
C739 C741 1.387 . S
H740 C747 0.950 . S
C741 C739 1.387 . S
C741 C743 1.390 . S
C741 H745 0.950 . S
H742 C738 0.950 . S
C743 C741 1.390 . S
C743 C744 1.387 . S
C743 H746 0.950 . S
C744 C743 1.387 . S
C744 C747 1.387 . S
H745 C741 0.950 . S
H746 C743 0.950 . S
C747 C738 1.390 . S
C747 H740 0.950 . S
C747 C744 1.387 . S
C748 C749 1.387 . S
C748 H752 0.950 . S
C748 C757 1.390 . S
C749 C748 1.387 . S
C749 C751 1.387 1_545 S
H750 C757 0.950 . S
C751 C749 1.387 1_565 S
C751 C753 1.390 . S
C751 H755 0.950 . S
H752 C748 0.950 . S
C753 C751 1.390 . S
C753 C754 1.387 1_565 S
C753 H756 0.950 . S
C754 C753 1.387 1_545 S
C754 C757 1.387 . S
H755 C751 0.950 . S
H756 C753 0.950 . S
C757 C748 1.390 . S
C757 H750 0.950 . S
C757 C754 1.387 . S
C758 C759 1.387 . S
C758 H762 0.950 . S
C758 C767 1.390 . S
C759 C758 1.387 . S
C759 C761 1.387 . S
H760 C767 0.950 . S
C761 C759 1.387 . S
C761 C763 1.390 . S
C761 H765 0.950 . S
H762 C758 0.950 . S
C763 C761 1.390 . S
C763 C764 1.387 . S
C763 H766 0.950 . S
C764 C763 1.387 . S
C764 C767 1.387 . S
H765 C761 0.950 . S
H766 C763 0.950 . S
C767 C758 1.390 . S
C767 H760 0.950 . S
C767 C764 1.387 . S
C768 C769 1.387 . S
C768 H772 0.950 . S
C768 C777 1.390 . S
C769 C768 1.387 . S
C769 C771 1.387 1_545 S
H770 C777 0.950 . S
C771 C769 1.387 1_565 S
C771 C773 1.390 . S
C771 H775 0.950 . S
H772 C768 0.950 . S
C773 C771 1.390 . S
C773 C774 1.387 1_565 S
C773 H776 0.950 . S
C774 C773 1.387 1_545 S
C774 C777 1.387 . S
H775 C771 0.950 . S
H776 C773 0.950 . S
C777 C768 1.390 . S
C777 H770 0.950 . S
C777 C774 1.387 . S
C778 C779 1.387 . S
C778 H782 0.950 . S
C778 C787 1.390 . S
C779 C778 1.387 . S
C779 C781 1.387 . S
H780 C787 0.950 . S
C781 C779 1.387 . S
C781 C783 1.390 . S
C781 H785 0.950 . S
H782 C778 0.950 . S
C783 C781 1.390 . S
C783 C784 1.387 . S
C783 H786 0.950 . S
C784 C783 1.387 . S
C784 C787 1.387 . S
H785 C781 0.950 . S
H786 C783 0.950 . S
C787 C778 1.390 . S
C787 H780 0.950 . S
C787 C784 1.387 . S
C788 C789 1.387 . S
C788 H792 0.950 . S
C788 C797 1.390 . S
C789 C788 1.387 . S
C789 C791 1.387 1_565 S
H790 C797 0.950 . S
C791 C789 1.387 1_545 S
C791 C793 1.390 . S
C791 H795 0.950 . S
H792 C788 0.950 . S
C793 C791 1.390 . S
C793 C794 1.387 1_545 S
C793 H796 0.950 . S
C794 C793 1.387 1_565 S
C794 C797 1.387 . S
H795 C791 0.950 . S
H796 C793 0.950 . S
C797 C788 1.390 . S
C797 H790 0.950 . S
C797 C794 1.387 . S
C798 C799 1.387 . S
C798 H802 0.950 . S
C798 C807 1.390 . S
C799 C798 1.387 . S
C799 C801 1.387 . S
H800 C807 0.950 . S
C801 C799 1.387 . S
C801 C803 1.390 . S
C801 H805 0.950 . S
H802 C798 0.950 . S
C803 C801 1.390 . S
C803 C804 1.387 . S
C803 H806 0.950 . S
C804 C803 1.387 . S
C804 C807 1.387 . S
H805 C801 0.950 . S
H806 C803 0.950 . S
C807 C798 1.390 . S
C807 H800 0.950 . S
C807 C804 1.387 . S
C808 C809 1.387 1_554 S
C808 H812 0.950 . S
C808 C817 1.390 . S
C809 C808 1.387 1_556 S
C809 C811 1.387 . S
H810 C817 0.950 . S
C811 C809 1.387 . S
C811 C813 1.390 . S
C811 H815 0.950 . S
H812 C808 0.950 . S
C813 C811 1.390 . S
C813 C814 1.387 . S
C813 H816 0.950 . S
C814 C813 1.387 . S
C814 C817 1.387 1_556 S
H815 C811 0.950 . S
H816 C813 0.950 . S
C817 C808 1.390 . S
C817 H810 0.950 . S
C817 C814 1.387 1_554 S
C818 C819 1.387 . S
C818 H822 0.950 . S
C818 C827 1.390 . S
C819 C818 1.387 . S
C819 C821 1.387 1_554 S
H820 C827 0.950 . S
C821 C819 1.387 1_556 S
C821 C823 1.390 . S
C821 H825 0.950 . S
H822 C818 0.950 . S
C823 C821 1.390 . S
C823 C824 1.387 1_556 S
C823 H826 0.950 . S
C824 C823 1.387 1_554 S
C824 C827 1.387 . S
H825 C821 0.950 . S
H826 C823 0.950 . S
C827 C818 1.390 . S
C827 H820 0.950 . S
C827 C824 1.387 . S
C828 C829 1.387 . S
C828 H832 0.950 . S
C828 C837 1.390 . S
C829 C828 1.387 . S
C829 C831 1.387 . S
H830 C837 0.950 . S
C831 C829 1.387 . S
C831 C833 1.390 . S
C831 H835 0.950 . S
H832 C828 0.950 . S
C833 C831 1.390 . S
C833 C834 1.387 . S
C833 H836 0.950 . S
C834 C833 1.387 . S
C834 C837 1.387 . S
H835 C831 0.950 . S
H836 C833 0.950 . S
C837 C828 1.390 . S
C837 H830 0.950 . S
C837 C834 1.387 . S
C838 C839 1.387 . S
C838 H842 0.950 . S
C838 C847 1.390 . S
C839 C838 1.387 . S
C839 C841 1.387 . S
H840 C847 0.950 . S
C841 C839 1.387 . S
C841 C843 1.390 . S
C841 H845 0.950 . S
H842 C838 0.950 . S
C843 C841 1.390 . S
C843 C844 1.387 . S
C843 H846 0.950 . S
C844 C843 1.387 . S
C844 C847 1.387 . S
H845 C841 0.950 . S
H846 C843 0.950 . S
C847 C838 1.390 . S
C847 H840 0.950 . S
C847 C844 1.387 . S
C848 C849 1.387 . S
C848 H852 0.950 . S
C848 C857 1.390 . S
C849 C848 1.387 . S
C849 C851 1.387 . S
H850 C857 0.950 . S
C851 C849 1.387 . S
C851 C853 1.390 . S
C851 H855 0.950 . S
H852 C848 0.950 . S
C853 C851 1.390 . S
C853 C854 1.387 . S
C853 H856 0.950 . S
C854 C853 1.387 . S
C854 C857 1.387 . S
H855 C851 0.950 . S
H856 C853 0.950 . S
C857 C848 1.390 . S
C857 H850 0.950 . S
C857 C854 1.387 . S
C858 C859 1.387 . S
C858 H862 0.950 . S
C858 C867 1.390 . S
C859 C858 1.387 . S
C859 C861 1.387 . S
H860 C867 0.950 . S
C861 C859 1.387 . S
C861 C863 1.390 . S
C861 H865 0.950 . S
H862 C858 0.950 . S
C863 C861 1.390 . S
C863 C864 1.387 . S
C863 H866 0.950 . S
C864 C863 1.387 . S
C864 C867 1.387 . S
H865 C861 0.950 . S
H866 C863 0.950 . S
C867 C858 1.390 . S
C867 H860 0.950 . S
C867 C864 1.387 . S
C868 C869 1.387 . S
C868 H872 0.950 . S
C868 C877 1.390 . S
C869 C868 1.387 . S
C869 C871 1.387 . S
H870 C877 0.950 . S
C871 C869 1.387 . S
C871 C873 1.390 . S
C871 H875 0.950 . S
H872 C868 0.950 . S
C873 C871 1.390 . S
C873 C874 1.387 . S
C873 H876 0.950 . S
C874 C873 1.387 . S
C874 C877 1.387 . S
H875 C871 0.950 . S
H876 C873 0.950 . S
C877 C868 1.390 . S
C877 H870 0.950 . S
C877 C874 1.387 . S
C878 C879 1.387 . S
C878 H882 0.950 . S
C878 C887 1.390 . S
C879 C878 1.387 . S
C879 C881 1.387 . S
H880 C887 0.950 . S
C881 C879 1.387 . S
C881 C883 1.390 . S
C881 H885 0.950 . S
H882 C878 0.950 . S
C883 C881 1.390 . S
C883 C884 1.387 . S
C883 H886 0.950 . S
C884 C883 1.387 . S
C884 C887 1.387 . S
H885 C881 0.950 . S
H886 C883 0.950 . S
C887 C878 1.390 . S
C887 H880 0.950 . S
C887 C884 1.387 . S
C888 C889 1.387 1_655 S
C888 H892 0.950 . S
C888 C897 1.390 . S
C889 C888 1.387 1_455 S
C889 C891 1.387 . S
H890 C897 0.950 . S
C891 C889 1.387 . S
C891 C893 1.390 . S
C891 H895 0.950 . S
H892 C888 0.950 . S
C893 C891 1.390 . S
C893 C894 1.387 . S
C893 H896 0.950 . S
C894 C893 1.387 . S
C894 C897 1.387 1_455 S
H895 C891 0.950 . S
H896 C893 0.950 . S
C897 C888 1.390 . S
C897 H890 0.950 . S
C897 C894 1.387 1_655 S
C898 C899 1.387 . S
C898 H902 0.950 . S
C898 C907 1.390 . S
C899 C898 1.387 . S
C899 C901 1.387 . S
H900 C907 0.950 . S
C901 C899 1.387 . S
C901 C903 1.390 . S
C901 H905 0.950 . S
H902 C898 0.950 . S
C903 C901 1.390 . S
C903 C904 1.387 . S
C903 H906 0.950 . S
C904 C903 1.387 . S
C904 C907 1.387 . S
H905 C901 0.950 . S
H906 C903 0.950 . S
C907 C898 1.390 . S
C907 H900 0.950 . S
C907 C904 1.387 . S
C908 C909 1.387 . S
C908 H912 0.950 . S
C908 C917 1.390 . S
C909 C908 1.387 . S
C909 C911 1.387 . S
H910 C917 0.950 . S
C911 C909 1.387 . S
C911 C913 1.390 . S
C911 H915 0.950 . S
H912 C908 0.950 . S
C913 C911 1.390 . S
C913 C914 1.387 . S
C913 H916 0.950 . S
C914 C913 1.387 . S
C914 C917 1.387 . S
H915 C911 0.950 . S
H916 C913 0.950 . S
C917 C908 1.390 . S
C917 H910 0.950 . S
C917 C914 1.387 . S
C918 C919 1.387 . S
C918 H922 0.950 . S
C918 C927 1.390 . S
C919 C918 1.387 . S
C919 C921 1.387 . S
H920 C927 0.950 . S
C921 C919 1.387 . S
C921 C923 1.390 . S
C921 H925 0.950 . S
H922 C918 0.950 . S
C923 C921 1.390 . S
C923 C924 1.387 . S
C923 H926 0.950 . S
C924 C923 1.387 . S
C924 C927 1.387 . S
H925 C921 0.950 . S
H926 C923 0.950 . S
C927 C918 1.390 . S
C927 H920 0.950 . S
C927 C924 1.387 . S
C928 C929 1.387 . S
C928 H932 0.950 . S
C928 C937 1.390 . S
C929 C928 1.387 . S
C929 C931 1.387 1_455 S
H930 C937 0.950 . S
C931 C929 1.387 1_655 S
C931 C933 1.390 . S
C931 H935 0.950 . S
H932 C928 0.950 . S
C933 C931 1.390 . S
C933 C934 1.387 1_655 S
C933 H936 0.950 . S
C934 C933 1.387 1_455 S
C934 C937 1.387 . S
H935 C931 0.950 . S
H936 C933 0.950 . S
C937 C928 1.390 . S
C937 H930 0.950 . S
C937 C934 1.387 . S
C938 C939 1.387 . S
C938 H942 0.950 . S
C938 C947 1.390 . S
C939 C938 1.387 . S
C939 C941 1.387 . S
H940 C947 0.950 . S
C941 C939 1.387 . S
C941 C943 1.390 . S
C941 H945 0.950 . S
H942 C938 0.950 . S
C943 C941 1.390 . S
C943 C944 1.387 . S
C943 H946 0.950 . S
C944 C943 1.387 . S
C944 C947 1.387 . S
H945 C941 0.950 . S
H946 C943 0.950 . S
C947 C938 1.390 . S
C947 H940 0.950 . S
C947 C944 1.387 . S
C948 C949 1.387 . S
C948 H952 0.950 . S
C948 C957 1.390 . S
C949 C948 1.387 . S
C949 C951 1.387 . S
H950 C957 0.950 . S
C951 C949 1.387 . S
C951 C953 1.390 . S
C951 H955 0.950 . S
H952 C948 0.950 . S
C953 C951 1.390 . S
C953 C954 1.387 . S
C953 H956 0.950 . S
C954 C953 1.387 . S
C954 C957 1.387 . S
H955 C951 0.950 . S
H956 C953 0.950 . S
C957 C948 1.390 . S
C957 H950 0.950 . S
C957 C954 1.387 . S
C958 C959 1.387 . S
C958 H962 0.950 . S
C958 C967 1.390 . S
C959 C958 1.387 . S
C959 C961 1.387 . S
H960 C967 0.950 . S
C961 C959 1.387 . S
C961 C963 1.390 . S
C961 H965 0.950 . S
H962 C958 0.950 . S
C963 C961 1.390 . S
C963 C964 1.387 . S
C963 H966 0.950 . S
C964 C963 1.387 . S
C964 C967 1.387 . S
H965 C961 0.950 . S
H966 C963 0.950 . S
C967 C958 1.390 . S
C967 H960 0.950 . S
C967 C964 1.387 . S
C968 C969 1.394 . S
C968 H972 0.950 . S
C968 C977 1.390 . S
C969 C968 1.394 . S
C969 C971 1.380 1_565 S
H970 C977 0.950 . S
C971 C969 1.380 1_545 S
C971 C973 1.390 . S
C971 H975 0.950 . S
H972 C968 0.950 . S
C973 C971 1.390 . S
C973 C974 1.387 . S
C973 H976 0.950 . S
C974 C973 1.387 . S
C974 C977 1.387 1_545 S
H975 C971 0.950 . S
H976 C973 0.950 . S
C977 C968 1.390 . S
C977 H970 0.950 . S
C977 C974 1.387 1_565 S
C978 C979 1.387 . S
C978 H982 0.950 . S
C978 C987 1.390 . S
C979 C978 1.387 . S
C979 C981 1.387 . S
H980 C987 0.950 . S
C981 C979 1.387 . S
C981 C983 1.390 . S
C981 H985 0.950 . S
H982 C978 0.950 . S
C983 C981 1.390 . S
C983 C984 1.387 . S
C983 H986 0.950 . S
C984 C983 1.387 . S
C984 C987 1.387 . S
H985 C981 0.950 . S
H986 C983 0.950 . S
C987 C978 1.390 . S
C987 H980 0.950 . S
C987 C984 1.387 . S
C988 C989 1.387 1_565 S
C988 H992 0.950 . S
C988 C997 1.390 . S
C989 C988 1.387 1_545 S
C989 C991 1.387 . S
H990 C997 0.950 . S
C991 C989 1.387 . S
C991 C993 1.390 . S
C991 H995 0.950 . S
H992 C988 0.950 . S
C993 C991 1.390 . S
C993 C994 1.387 . S
C993 H996 0.950 . S
C994 C993 1.387 . S
C994 C997 1.387 1_545 S
H995 C991 0.950 . S
H996 C993 0.950 . S
C997 C988 1.390 . S
C997 H990 0.950 . S
C997 C994 1.387 1_565 S
C998 C999 1.387 . S
C998 H1002 0.950 . S
C998 C1007 1.390 . S
C999 C998 1.387 . S
C999 C1001 1.387 . S
H1000 C1007 0.950 . S
C1001 C999 1.387 . S
C1001 C1003 1.390 . S
C1001 H1005 0.950 . S
H1002 C998 0.950 . S
C1003 C1001 1.390 . S
C1003 C1004 1.387 . S
C1003 H1006 0.950 . S
C1004 C1003 1.387 . S
C1004 C1007 1.387 . S
H1005 C1001 0.950 . S
H1006 C1003 0.950 . S
C1007 C998 1.390 . S
C1007 H1000 0.950 . S
C1007 C1004 1.387 . S
C1008 C1009 1.387 1_565 S
C1008 H1012 0.950 . S
C1008 C1017 1.390 . S
C1009 C1008 1.387 1_545 S
C1009 C1011 1.387 . S
H1010 C1017 0.950 . S
C1011 C1009 1.387 . S
C1011 C1013 1.390 . S
C1011 H1015 0.950 . S
H1012 C1008 0.950 . S
C1013 C1011 1.390 . S
C1013 C1014 1.387 1_545 S
C1013 H1016 0.950 . S
C1014 C1013 1.387 1_565 S
C1014 C1017 1.387 . S
H1015 C1011 0.950 . S
H1016 C1013 0.950 . S
C1017 C1008 1.390 . S
C1017 H1010 0.950 . S
C1017 C1014 1.387 . S
C1018 C1019 1.387 . S
C1018 H1022 0.950 . S
C1018 C1027 1.390 . S
C1019 C1018 1.387 . S
C1019 C1021 1.387 . S
H1020 C1027 0.950 . S
C1021 C1019 1.387 . S
C1021 C1023 1.390 . S
C1021 H1025 0.950 . S
H1022 C1018 0.950 . S
C1023 C1021 1.390 . S
C1023 C1024 1.387 . S
C1023 H1026 0.950 . S
C1024 C1023 1.387 . S
C1024 C1027 1.387 . S
H1025 C1021 0.950 . S
H1026 C1023 0.950 . S
C1027 C1018 1.390 . S
C1027 H1020 0.950 . S
C1027 C1024 1.387 . S
C1028 C1029 1.405 . S
C1028 H1032 0.950 . S
C1028 C1037 1.390 . S
C1029 C1028 1.405 . S
C1029 C1031 1.373 1_545 S
H1030 C1037 0.950 . S
C1031 C1029 1.373 1_565 S
C1031 C1033 1.390 . S
C1031 H1035 0.950 . S
H1032 C1028 0.950 . S
C1033 C1031 1.390 . S
C1033 C1034 1.387 1_565 S
C1033 H1036 0.950 . S
C1034 C1033 1.387 1_545 S
C1034 C1037 1.387 . S
H1035 C1031 0.950 . S
H1036 C1033 0.950 . S
C1037 C1028 1.390 . S
C1037 H1030 0.950 . S
C1037 C1034 1.387 . S
C1038 C1039 1.387 . S
C1038 H1042 0.950 . S
C1038 C1047 1.390 . S
C1039 C1038 1.387 . S
C1039 C1041 1.387 . S
H1040 C1047 0.950 . S
C1041 C1039 1.387 . S
C1041 C1043 1.390 . S
C1041 H1045 0.950 . S
H1042 C1038 0.950 . S
C1043 C1041 1.390 . S
C1043 C1044 1.387 . S
C1043 H1046 0.950 . S
C1044 C1043 1.387 . S
C1044 C1047 1.387 . S
H1045 C1041 0.950 . S
H1046 C1043 0.950 . S
C1047 C1038 1.390 . S
C1047 H1040 0.950 . S
C1047 C1044 1.387 . S
C1048 C1049 1.387 1_556 S
C1048 H1052 0.950 . S
C1048 C1057 1.390 . S
C1049 C1048 1.387 1_554 S
C1049 C1051 1.387 . S
H1050 C1057 0.950 . S
C1051 C1049 1.387 . S
C1051 C1053 1.390 . S
C1051 H1055 0.950 . S
H1052 C1048 0.950 . S
C1053 C1051 1.390 . S
C1053 C1054 1.387 . S
C1053 H1056 0.950 . S
C1054 C1053 1.387 . S
C1054 C1057 1.387 1_554 S
H1055 C1051 0.950 . S
H1056 C1053 0.950 . S
C1057 C1048 1.390 . S
C1057 H1050 0.950 . S
C1057 C1054 1.387 1_556 S
C1058 C1059 1.387 1_556 S
C1058 H1062 0.950 . S
C1058 C1067 1.390 . S
C1059 C1058 1.387 1_554 S
C1059 C1061 1.387 . S
H1060 C1067 0.950 . S
C1061 C1059 1.387 . S
C1061 C1063 1.390 . S
C1061 H1065 0.950 . S
H1062 C1058 0.950 . S
C1063 C1061 1.390 . S
C1063 C1064 1.409 . S
C1063 H1066 0.950 . S
C1064 C1063 1.409 . S
C1064 C1067 1.369 1_554 S
H1065 C1061 0.950 . S
H1066 C1063 0.950 . S
C1067 C1058 1.390 . S
C1067 H1060 0.950 . S
C1067 C1064 1.369 1_556 S
C1068 C1069 1.387 . S
C1068 H1072 0.950 . S
C1068 C1077 1.390 . S
C1069 C1068 1.387 . S
C1069 C1071 1.387 . S
H1070 C1077 0.950 . S
C1071 C1069 1.387 . S
C1071 C1073 1.390 . S
C1071 H1075 0.950 . S
H1072 C1068 0.950 . S
C1073 C1071 1.390 . S
C1073 C1074 1.387 . S
C1073 H1076 0.950 . S
C1074 C1073 1.387 . S
C1074 C1077 1.387 . S
H1075 C1071 0.950 . S
H1076 C1073 0.950 . S
C1077 C1068 1.390 . S
C1077 H1070 0.950 . S
C1077 C1074 1.387 . S
C1078 C1079 1.387 . S
C1078 H1082 0.950 . S
C1078 C1087 1.390 . S
C1079 C1078 1.387 . S
C1079 C1081 1.387 . S
H1080 C1087 0.950 . S
C1081 C1079 1.387 . S
C1081 C1083 1.390 . S
C1081 H1085 0.950 . S
H1082 C1078 0.950 . S
C1083 C1081 1.390 . S
C1083 C1084 1.387 . S
C1083 H1086 0.950 . S
C1084 C1083 1.387 . S
C1084 C1087 1.387 . S
H1085 C1081 0.950 . S
H1086 C1083 0.950 . S
C1087 C1078 1.390 . S
C1087 H1080 0.950 . S
C1087 C1084 1.387 . S
C1088 C1089 1.387 . S
C1088 H1092 0.950 . S
C1088 C1097 1.390 . S
C1089 C1088 1.387 . S
C1089 C1091 1.387 . S
H1090 C1097 0.950 . S
C1091 C1089 1.387 . S
C1091 C1093 1.390 . S
C1091 H1095 0.950 . S
H1092 C1088 0.950 . S
C1093 C1091 1.390 . S
C1093 C1094 1.387 . S
C1093 H1096 0.950 . S
C1094 C1093 1.387 . S
C1094 C1097 1.387 . S
H1095 C1091 0.950 . S
H1096 C1093 0.950 . S
C1097 C1088 1.390 . S
C1097 H1090 0.950 . S
C1097 C1094 1.387 . S
C1098 C1099 1.387 . S
C1098 H1102 0.950 . S
C1098 C1107 1.390 . S
C1099 C1098 1.387 . S
C1099 C1101 1.387 . S
H1100 C1107 0.950 . S
C1101 C1099 1.387 . S
C1101 C1103 1.390 . S
C1101 H1105 0.950 . S
H1102 C1098 0.950 . S
C1103 C1101 1.390 . S
C1103 C1104 1.387 . S
C1103 H1106 0.950 . S
C1104 C1103 1.387 . S
C1104 C1107 1.387 . S
H1105 C1101 0.950 . S
H1106 C1103 0.950 . S
C1107 C1098 1.390 . S
C1107 H1100 0.950 . S
C1107 C1104 1.387 . S
C1108 C1109 1.387 . S
C1108 H1112 0.950 . S
C1108 C1117 1.390 . S
C1109 C1108 1.387 . S
C1109 C1111 1.387 . S
H1110 C1117 0.950 . S
C1111 C1109 1.387 . S
C1111 C1113 1.390 . S
C1111 H1115 0.950 . S
H1112 C1108 0.950 . S
C1113 C1111 1.390 . S
C1113 C1114 1.387 . S
C1113 H1116 0.950 . S
C1114 C1113 1.387 . S
C1114 C1117 1.387 . S
H1115 C1111 0.950 . S
H1116 C1113 0.950 . S
C1117 C1108 1.390 . S
C1117 H1110 0.950 . S
C1117 C1114 1.387 . S
C1118 C1119 1.387 . S
C1118 H1122 0.950 . S
C1118 C1127 1.390 . S
C1119 C1118 1.387 . S
C1119 C1121 1.387 . S
H1120 C1127 0.950 . S
C1121 C1119 1.387 . S
C1121 C1123 1.390 . S
C1121 H1125 0.950 . S
H1122 C1118 0.950 . S
C1123 C1121 1.390 . S
C1123 C1124 1.387 . S
C1123 H1126 0.950 . S
C1124 C1123 1.387 . S
C1124 C1127 1.387 . S
H1125 C1121 0.950 . S
H1126 C1123 0.950 . S
C1127 C1118 1.390 . S
C1127 H1120 0.950 . S
C1127 C1124 1.387 . S
C1128 C1129 1.387 . S
C1128 H1132 0.950 . S
C1128 C1137 1.390 . S
C1129 C1128 1.387 . S
C1129 C1131 1.387 . S
H1130 C1137 0.950 . S
C1131 C1129 1.387 . S
C1131 C1133 1.390 . S
C1131 H1135 0.950 . S
H1132 C1128 0.950 . S
C1133 C1131 1.390 . S
C1133 C1134 1.387 . S
C1133 H1136 0.950 . S
C1134 C1133 1.387 . S
C1134 C1137 1.387 . S
H1135 C1131 0.950 . S
H1136 C1133 0.950 . S
C1137 C1128 1.390 . S
C1137 H1130 0.950 . S
C1137 C1134 1.387 . S
C1138 C1139 1.387 . S
C1138 H1142 0.950 . S
C1138 C1147 1.390 . S
C1139 C1138 1.387 . S
C1139 C1141 1.387 . S
H1140 C1147 0.950 . S
C1141 C1139 1.387 . S
C1141 C1143 1.390 . S
C1141 H1145 0.950 . S
H1142 C1138 0.950 . S
C1143 C1141 1.390 . S
C1143 C1144 1.387 . S
C1143 H1146 0.950 . S
C1144 C1143 1.387 . S
C1144 C1147 1.387 . S
H1145 C1141 0.950 . S
H1146 C1143 0.950 . S
C1147 C1138 1.390 . S
C1147 H1140 0.950 . S
C1147 C1144 1.387 . S
C1148 C1149 1.387 . S
C1148 H1152 0.950 . S
C1148 C1157 1.390 . S
C1149 C1148 1.387 . S
C1149 C1151 1.387 . S
H1150 C1157 0.950 . S
C1151 C1149 1.387 . S
C1151 C1153 1.390 . S
C1151 H1155 0.950 1_455 S
H1152 C1148 0.950 . S
C1153 C1151 1.390 . S
C1153 C1154 1.387 . S
C1153 H1156 0.950 1_455 S
C1154 C1153 1.387 . S
C1154 C1157 1.387 . S
H1155 C1151 0.950 1_655 S
H1156 C1153 0.950 1_655 S
C1157 C1148 1.390 . S
C1157 H1150 0.950 . S
C1157 C1154 1.387 . S
C1158 C1159 1.387 . S
C1158 H1162 0.950 . S
C1158 C1167 1.390 . S
C1159 C1158 1.387 . S
C1159 C1161 1.387 . S
H1160 C1167 0.950 . S
C1161 C1159 1.387 . S
C1161 C1163 1.390 . S
C1161 H1165 0.950 . S
H1162 C1158 0.950 . S
C1163 C1161 1.390 . S
C1163 C1164 1.387 . S
C1163 H1166 0.950 . S
C1164 C1163 1.387 . S
C1164 C1167 1.387 . S
H1165 C1161 0.950 . S
H1166 C1163 0.950 . S
C1167 C1158 1.390 . S
C1167 H1160 0.950 . S
C1167 C1164 1.387 . S
C1168 C1169 1.387 . S
C1168 H1172 0.950 . S
C1168 C1177 1.390 . S
C1169 C1168 1.387 . S
C1169 C1171 1.387 . S
H1170 C1177 0.950 . S
C1171 C1169 1.387 . S
C1171 C1173 1.390 . S
C1171 H1175 0.950 . S
H1172 C1168 0.950 . S
C1173 C1171 1.390 . S
C1173 C1174 1.387 . S
C1173 H1176 0.950 . S
C1174 C1173 1.387 . S
C1174 C1177 1.387 . S
H1175 C1171 0.950 . S
H1176 C1173 0.950 . S
C1177 C1168 1.390 . S
C1177 H1170 0.950 . S
C1177 C1174 1.387 . S
C1178 C1179 1.387 . S
C1178 H1182 0.950 . S
C1178 C1187 1.390 . S
C1179 C1178 1.387 . S
C1179 C1181 1.387 . S
H1180 C1187 0.950 . S
C1181 C1179 1.387 . S
C1181 C1183 1.390 . S
C1181 H1185 0.950 . S
H1182 C1178 0.950 . S
C1183 C1181 1.390 . S
C1183 C1184 1.387 . S
C1183 H1186 0.950 . S
C1184 C1183 1.387 . S
C1184 C1187 1.387 . S
H1185 C1181 0.950 . S
H1186 C1183 0.950 . S
C1187 C1178 1.390 . S
C1187 H1180 0.950 . S
C1187 C1184 1.387 . S
C1188 C1189 1.387 . S
C1188 H1192 0.950 . S
C1188 C1197 1.390 . S
C1189 C1188 1.387 . S
C1189 C1191 1.387 1_455 S
H1190 C1197 0.950 . S
C1191 C1189 1.387 1_655 S
C1191 C1193 1.390 . S
C1191 H1195 0.950 . S
H1192 C1188 0.950 . S
C1193 C1191 1.390 . S
C1193 C1194 1.387 1_655 S
C1193 H1196 0.950 . S
C1194 C1193 1.387 1_455 S
C1194 C1197 1.387 . S
H1195 C1191 0.950 . S
H1196 C1193 0.950 . S
C1197 C1188 1.390 . S
C1197 H1190 0.950 . S
C1197 C1194 1.387 . S
C1198 C1199 1.387 . S
C1198 H1202 0.950 . S
C1198 C1207 1.390 . S
C1199 C1198 1.387 . S
C1199 C1201 1.387 . S
H1200 C1207 0.950 . S
C1201 C1199 1.387 . S
C1201 C1203 1.390 . S
C1201 H1205 0.950 . S
H1202 C1198 0.950 . S
C1203 C1201 1.390 . S
C1203 C1204 1.387 . S
C1203 H1206 0.950 . S
C1204 C1203 1.387 . S
C1204 C1207 1.387 . S
H1205 C1201 0.950 . S
H1206 C1203 0.950 . S
C1207 C1198 1.390 . S
C1207 H1200 0.950 . S
C1207 C1204 1.387 . S
C1208 C1209 1.387 . S
C1208 H1212 0.950 . S
C1208 C1217 1.390 . S
C1209 C1208 1.387 . S
C1209 C1211 1.387 . S
H1210 C1217 0.950 . S
C1211 C1209 1.387 . S
C1211 C1213 1.390 . S
C1211 H1215 0.950 . S
H1212 C1208 0.950 . S
C1213 C1211 1.390 . S
C1213 C1214 1.387 . S
C1213 H1216 0.950 . S
C1214 C1213 1.387 . S
C1214 C1217 1.387 . S
H1215 C1211 0.950 . S
H1216 C1213 0.950 . S
C1217 C1208 1.390 . S
C1217 H1210 0.950 . S
C1217 C1214 1.387 . S
C1218 C1219 1.387 . S
C1218 H1222 0.950 . S
C1218 C1227 1.390 . S
C1219 C1218 1.387 . S
C1219 C1221 1.387 . S
H1220 C1227 0.950 . S
C1221 C1219 1.387 . S
C1221 C1223 1.390 . S
C1221 H1225 0.950 . S
H1222 C1218 0.950 . S
C1223 C1221 1.390 . S
C1223 C1224 1.387 . S
C1223 H1226 0.950 . S
C1224 C1223 1.387 . S
C1224 C1227 1.387 . S
H1225 C1221 0.950 . S
H1226 C1223 0.950 . S
C1227 C1218 1.390 . S
C1227 H1220 0.950 . S
C1227 C1224 1.387 . S
C1228 C1229 1.387 . S
C1228 H1232 0.950 . S
C1228 C1237 1.390 . S
C1229 C1228 1.387 . S
C1229 C1231 1.387 . S
H1230 C1237 0.950 . S
C1231 C1229 1.387 . S
C1231 C1233 1.390 . S
C1231 H1235 0.950 . S
H1232 C1228 0.950 . S
C1233 C1231 1.390 . S
C1233 C1234 1.387 . S
C1233 H1236 0.950 . S
C1234 C1233 1.387 . S
C1234 C1237 1.387 . S
H1235 C1231 0.950 . S
H1236 C1233 0.950 . S
C1237 C1228 1.390 . S
C1237 H1230 0.950 . S
C1237 C1234 1.387 . S
C1238 C1239 1.387 . S
C1238 H1242 0.950 . S
C1238 C1247 1.390 . S
C1239 C1238 1.387 . S
C1239 C1241 1.387 . S
H1240 C1247 0.950 . S
C1241 C1239 1.387 . S
C1241 C1243 1.390 . S
C1241 H1245 0.950 . S
H1242 C1238 0.950 . S
C1243 C1241 1.390 . S
C1243 C1244 1.387 . S
C1243 H1246 0.950 . S
C1244 C1243 1.387 . S
C1244 C1247 1.387 . S
H1245 C1241 0.950 . S
H1246 C1243 0.950 . S
C1247 C1238 1.390 . S
C1247 H1240 0.950 . S
C1247 C1244 1.387 . S
C1248 C1249 1.387 . S
C1248 H1252 0.950 . S
C1248 C1257 1.390 . S
C1249 C1248 1.387 . S
C1249 C1251 1.387 . S
H1250 C1257 0.950 . S
C1251 C1249 1.387 . S
C1251 C1253 1.390 . S
C1251 H1255 0.950 . S
H1252 C1248 0.950 . S
C1253 C1251 1.390 . S
C1253 C1254 1.387 . S
C1253 H1256 0.950 . S
C1254 C1253 1.387 . S
C1254 C1257 1.387 . S
H1255 C1251 0.950 . S
H1256 C1253 0.950 . S
C1257 C1248 1.390 . S
C1257 H1250 0.950 . S
C1257 C1254 1.387 . S
C1258 C1259 1.387 . S
C1258 H1262 0.950 . S
C1258 C1267 1.390 . S
C1259 C1258 1.387 . S
C1259 C1261 1.387 . S
H1260 C1267 0.950 . S
C1261 C1259 1.387 . S
C1261 C1263 1.390 . S
C1261 H1265 0.950 . S
H1262 C1258 0.950 . S
C1263 C1261 1.390 . S
C1263 C1264 1.387 . S
C1263 H1266 0.950 . S
C1264 C1263 1.387 . S
C1264 C1267 1.387 . S
H1265 C1261 0.950 . S
H1266 C1263 0.950 . S
C1267 C1258 1.390 . S
C1267 H1260 0.950 . S
C1267 C1264 1.387 . S
C1268 C1269 1.387 . S
C1268 H1272 0.950 . S
C1268 C1277 1.390 . S
C1269 C1268 1.387 . S
C1269 C1271 1.387 . S
H1270 C1277 0.950 . S
C1271 C1269 1.387 . S
C1271 C1273 1.390 . S
C1271 H1275 0.950 . S
H1272 C1268 0.950 . S
C1273 C1271 1.390 . S
C1273 C1274 1.387 . S
C1273 H1276 0.950 . S
C1274 C1273 1.387 . S
C1274 C1277 1.387 . S
H1275 C1271 0.950 . S
H1276 C1273 0.950 . S
C1277 C1268 1.390 . S
C1277 H1270 0.950 . S
C1277 C1274 1.387 . S
C1278 C1279 1.387 . S
C1278 H1282 0.950 . S
C1278 C1287 1.390 . S
C1279 C1278 1.387 . S
C1279 C1281 1.387 . S
H1280 C1287 0.950 . S
C1281 C1279 1.387 . S
C1281 C1283 1.390 . S
C1281 H1285 0.950 . S
H1282 C1278 0.950 . S
C1283 C1281 1.390 . S
C1283 C1284 1.387 . S
C1283 H1286 0.950 . S
C1284 C1283 1.387 . S
C1284 C1287 1.387 . S
H1285 C1281 0.950 . S
H1286 C1283 0.950 . S
C1287 C1278 1.390 . S
C1287 H1280 0.950 . S
C1287 C1284 1.387 . S
C1288 C1289 1.387 . S
C1288 H1292 0.950 . S
C1288 C1297 1.390 . S
C1289 C1288 1.387 . S
C1289 C1291 1.387 . S
H1290 C1297 0.950 . S
C1291 C1289 1.387 . S
C1291 C1293 1.390 . S
C1291 H1295 0.950 . S
H1292 C1288 0.950 . S
C1293 C1291 1.390 . S
C1293 C1294 1.387 . S
C1293 H1296 0.950 . S
C1294 C1293 1.387 . S
C1294 C1297 1.387 . S
H1295 C1291 0.950 . S
H1296 C1293 0.950 . S
C1297 C1288 1.390 . S
C1297 H1290 0.950 . S
C1297 C1294 1.387 . S
C1298 C1299 1.387 . S
C1298 H1302 0.950 . S
C1298 C1307 1.390 . S
C1299 C1298 1.387 . S
C1299 C1301 1.387 . S
H1300 C1307 0.950 . S
C1301 C1299 1.387 . S
C1301 C1303 1.390 . S
C1301 H1305 0.950 . S
H1302 C1298 0.950 . S
C1303 C1301 1.390 . S
C1303 C1304 1.387 . S
C1303 H1306 0.950 . S
C1304 C1303 1.387 . S
C1304 C1307 1.387 . S
H1305 C1301 0.950 . S
H1306 C1303 0.950 . S
C1307 C1298 1.390 . S
C1307 H1300 0.950 . S
C1307 C1304 1.387 . S
C1308 C1309 1.387 . S
C1308 H1312 0.950 . S
C1308 C1317 1.390 . S
C1309 C1308 1.387 . S
C1309 C1311 1.387 . S
H1310 C1317 0.950 . S
C1311 C1309 1.387 . S
C1311 C1313 1.390 . S
C1311 H1315 0.950 . S
H1312 C1308 0.950 . S
C1313 C1311 1.390 . S
C1313 C1314 1.387 . S
C1313 H1316 0.950 . S
C1314 C1313 1.387 . S
C1314 C1317 1.387 . S
H1315 C1311 0.950 . S
H1316 C1313 0.950 . S
C1317 C1308 1.390 . S
C1317 H1310 0.950 . S
C1317 C1314 1.387 . S
C1318 C1319 1.387 . S
C1318 H1322 0.950 . S
C1318 C1327 1.390 . S
C1319 C1318 1.387 . S
C1319 C1321 1.387 1_554 S
H1320 C1327 0.950 . S
C1321 C1319 1.387 1_556 S
C1321 C1323 1.390 . S
C1321 H1325 0.950 . S
H1322 C1318 0.950 . S
C1323 C1321 1.390 . S
C1323 C1324 1.387 1_556 S
C1323 H1326 0.950 . S
C1324 C1323 1.387 1_554 S
C1324 C1327 1.387 . S
H1325 C1321 0.950 . S
H1326 C1323 0.950 . S
C1327 C1318 1.390 . S
C1327 H1320 0.950 . S
C1327 C1324 1.387 . S
C1328 C1329 1.387 . S
C1328 H1332 0.950 . S
C1328 C1337 1.390 . S
C1329 C1328 1.387 . S
C1329 C1331 1.387 . S
H1330 C1337 0.950 . S
C1331 C1329 1.387 . S
C1331 C1333 1.390 . S
C1331 H1335 0.950 . S
H1332 C1328 0.950 . S
C1333 C1331 1.390 . S
C1333 C1334 1.387 . S
C1333 H1336 0.950 . S
C1334 C1333 1.387 . S
C1334 C1337 1.387 . S
H1335 C1331 0.950 . S
H1336 C1333 0.950 . S
C1337 C1328 1.390 . S
C1337 H1330 0.950 . S
C1337 C1334 1.387 . S
C1338 C1339 1.387 1_554 S
C1338 H1342 0.950 . S
C1338 C1347 1.390 . S
C1339 C1338 1.387 1_556 S
C1339 C1341 1.387 . S
H1340 C1347 0.950 . S
C1341 C1339 1.387 . S
C1341 C1343 1.390 . S
C1341 H1345 0.950 . S
H1342 C1338 0.950 . S
C1343 C1341 1.390 . S
C1343 C1344 1.387 . S
C1343 H1346 0.950 . S
C1344 C1343 1.387 . S
C1344 C1347 1.387 1_556 S
H1345 C1341 0.950 . S
H1346 C1343 0.950 . S
C1347 C1338 1.390 . S
C1347 H1340 0.950 . S
C1347 C1344 1.387 1_554 S
C1348 C1349 1.387 . S
C1348 H1352 0.950 . S
C1348 C1357 1.390 . S
C1349 C1348 1.387 . S
C1349 C1351 1.387 . S
H1350 C1357 0.950 . S
C1351 C1349 1.387 . S
C1351 C1353 1.390 . S
C1351 H1355 0.950 . S
H1352 C1348 0.950 . S
C1353 C1351 1.390 . S
C1353 C1354 1.387 . S
C1353 H1356 0.950 . S
C1354 C1353 1.387 . S
C1354 C1357 1.387 . S
H1355 C1351 0.950 . S
H1356 C1353 0.950 . S
C1357 C1348 1.390 . S
C1357 H1350 0.950 . S
C1357 C1354 1.387 . S
C1358 C1359 1.387 . S
C1358 H1362 0.950 . S
C1358 C1367 1.390 . S
C1359 C1358 1.387 . S
C1359 C1361 1.387 . S
H1360 C1367 0.950 . S
C1361 C1359 1.387 . S
C1361 C1363 1.390 . S
C1361 H1365 0.950 . S
H1362 C1358 0.950 . S
C1363 C1361 1.390 . S
C1363 C1364 1.387 . S
C1363 H1366 0.950 . S
C1364 C1363 1.387 . S
C1364 C1367 1.387 . S
H1365 C1361 0.950 . S
H1366 C1363 0.950 . S
C1367 C1358 1.390 . S
C1367 H1360 0.950 . S
C1367 C1364 1.387 . S
C1368 C1369 1.387 . S
C1368 H1372 0.950 . S
C1368 C1377 1.390 . S
C1369 C1368 1.387 . S
C1369 C1371 1.387 . S
H1370 C1377 0.950 . S
C1371 C1369 1.387 . S
C1371 C1373 1.390 . S
C1371 H1375 0.950 . S
H1372 C1368 0.950 . S
C1373 C1371 1.390 . S
C1373 C1374 1.387 . S
C1373 H1376 0.950 . S
C1374 C1373 1.387 . S
C1374 C1377 1.387 . S
H1375 C1371 0.950 . S
H1376 C1373 0.950 . S
C1377 C1368 1.390 . S
C1377 H1370 0.950 . S
C1377 C1374 1.387 . S
C1378 C1379 1.387 . S
C1378 H1382 0.950 . S
C1378 C1387 1.390 . S
C1379 C1378 1.387 . S
C1379 C1381 1.387 . S
H1380 C1387 0.950 . S
C1381 C1379 1.387 . S
C1381 C1383 1.390 . S
C1381 H1385 0.950 . S
H1382 C1378 0.950 . S
C1383 C1381 1.390 . S
C1383 C1384 1.387 . S
C1383 H1386 0.950 . S
C1384 C1383 1.387 . S
C1384 C1387 1.387 . S
H1385 C1381 0.950 . S
H1386 C1383 0.950 . S
C1387 C1378 1.390 . S
C1387 H1380 0.950 . S
C1387 C1384 1.387 . S
C1388 C1389 1.387 . S
C1388 H1392 0.950 . S
C1388 C1397 1.390 . S
C1389 C1388 1.387 . S
C1389 C1391 1.387 1_455 S
H1390 C1397 0.950 . S
C1391 C1389 1.387 1_655 S
C1391 C1393 1.390 . S
C1391 H1395 0.950 . S
H1392 C1388 0.950 . S
C1393 C1391 1.390 . S
C1393 C1394 1.374 1_655 S
C1393 H1396 0.950 . S
C1394 C1393 1.374 1_455 S
C1394 C1397 1.406 . S
H1395 C1391 0.950 . S
H1396 C1393 0.950 . S
C1397 C1388 1.390 . S
C1397 H1390 0.950 . S
C1397 C1394 1.406 . S
C1398 C1399 1.387 . S
C1398 H1402 0.950 . S
C1398 C1407 1.390 . S
C1399 C1398 1.387 . S
C1399 C1401 1.387 . S
H1400 C1407 0.950 . S
C1401 C1399 1.387 . S
C1401 C1403 1.390 . S
C1401 H1405 0.950 . S
H1402 C1398 0.950 . S
C1403 C1401 1.390 . S
C1403 C1404 1.387 . S
C1403 H1406 0.950 . S
C1404 C1403 1.387 . S
C1404 C1407 1.387 . S
H1405 C1401 0.950 . S
H1406 C1403 0.950 . S
C1407 C1398 1.390 . S
C1407 H1400 0.950 . S
C1407 C1404 1.387 . S
C1408 C1409 1.387 . S
C1408 H1412 0.950 . S
C1408 C1417 1.390 . S
C1409 C1408 1.387 . S
C1409 C1411 1.387 . S
H1410 C1417 0.950 . S
C1411 C1409 1.387 . S
C1411 C1413 1.390 . S
C1411 H1415 0.950 . S
H1412 C1408 0.950 . S
C1413 C1411 1.390 . S
C1413 C1414 1.387 . S
C1413 H1416 0.950 . S
C1414 C1413 1.387 . S
C1414 C1417 1.387 . S
H1415 C1411 0.950 . S
H1416 C1413 0.950 . S
C1417 C1408 1.390 . S
C1417 H1410 0.950 . S
C1417 C1414 1.387 . S
C1418 C1419 1.387 . S
C1418 H1422 0.950 . S
C1418 C1427 1.390 . S
C1419 C1418 1.387 . S
C1419 C1421 1.387 . S
H1420 C1427 0.950 . S
C1421 C1419 1.387 . S
C1421 C1423 1.390 . S
C1421 H1425 0.950 . S
H1422 C1418 0.950 . S
C1423 C1421 1.390 . S
C1423 C1424 1.387 . S
C1423 H1426 0.950 . S
C1424 C1423 1.387 . S
C1424 C1427 1.387 . S
H1425 C1421 0.950 . S
H1426 C1423 0.950 . S
C1427 C1418 1.390 . S
C1427 H1420 0.950 . S
C1427 C1424 1.387 . S
C1428 C1429 1.387 1_655 S
C1428 H1432 0.950 . S
C1428 C1437 1.390 . S
C1429 C1428 1.387 1_455 S
C1429 C1431 1.387 . S
H1430 C1437 0.950 . S
C1431 C1429 1.387 . S
C1431 C1433 1.390 . S
C1431 H1435 0.950 . S
H1432 C1428 0.950 . S
C1433 C1431 1.390 . S
C1433 C1434 1.387 . S
C1433 H1436 0.950 . S
C1434 C1433 1.387 . S
C1434 C1437 1.387 1_455 S
H1435 C1431 0.950 . S
H1436 C1433 0.950 . S
C1437 C1428 1.390 . S
C1437 H1430 0.950 . S
C1437 C1434 1.387 1_655 S
C1438 C1439 1.387 . S
C1438 H1442 0.950 . S
C1438 C1447 1.390 . S
C1439 C1438 1.387 . S
C1439 C1441 1.387 . S
H1440 C1447 0.950 . S
C1441 C1439 1.387 . S
C1441 C1443 1.390 . S
C1441 H1445 0.950 . S
H1442 C1438 0.950 . S
C1443 C1441 1.390 . S
C1443 C1444 1.387 . S
C1443 H1446 0.950 . S
C1444 C1443 1.387 . S
C1444 C1447 1.387 . S
H1445 C1441 0.950 . S
H1446 C1443 0.950 . S
C1447 C1438 1.390 . S
C1447 H1440 0.950 . S
C1447 C1444 1.387 . S
C1448 C1449 1.387 . S
C1448 H1452 0.950 . S
C1448 C1457 1.390 . S
C1449 C1448 1.387 . S
C1449 C1451 1.387 . S
H1450 C1457 0.950 . S
C1451 C1449 1.387 . S
C1451 C1453 1.390 . S
C1451 H1455 0.950 . S
H1452 C1448 0.950 . S
C1453 C1451 1.390 . S
C1453 C1454 1.387 . S
C1453 H1456 0.950 . S
C1454 C1453 1.387 . S
C1454 C1457 1.387 . S
H1455 C1451 0.950 . S
H1456 C1453 0.950 . S
C1457 C1448 1.390 . S
C1457 H1450 0.950 . S
C1457 C1454 1.387 . S
C1458 C1459 1.387 . S
C1458 H1462 0.950 . S
C1458 C1467 1.390 . S
C1459 C1458 1.387 . S
C1459 C1461 1.387 . S
H1460 C1467 0.950 . S
C1461 C1459 1.387 . S
C1461 C1463 1.390 . S
C1461 H1465 0.950 . S
H1462 C1458 0.950 . S
C1463 C1461 1.390 . S
C1463 C1464 1.387 . S
C1463 H1466 0.950 . S
C1464 C1463 1.387 . S
C1464 C1467 1.387 . S
H1465 C1461 0.950 . S
H1466 C1463 0.950 . S
C1467 C1458 1.390 . S
C1467 H1460 0.950 . S
C1467 C1464 1.387 . S
C1468 C1469 1.387 . S
C1468 H1472 0.950 . S
C1468 C1477 1.390 . S
C1469 C1468 1.387 . S
C1469 C1471 1.387 . S
H1470 C1477 0.950 . S
C1471 C1469 1.387 . S
C1471 C1473 1.390 . S
C1471 H1475 0.950 . S
H1472 C1468 0.950 . S
C1473 C1471 1.390 . S
C1473 C1474 1.387 . S
C1473 H1476 0.950 . S
C1474 C1473 1.387 . S
C1474 C1477 1.387 . S
H1475 C1471 0.950 . S
H1476 C1473 0.950 . S
C1477 C1468 1.390 . S
C1477 H1470 0.950 . S
C1477 C1474 1.387 . S
C1478 C1479 1.387 . S
C1478 H1482 0.950 . S
C1478 C1487 1.390 . S
C1479 C1478 1.387 . S
C1479 C1481 1.387 . S
H1480 C1487 0.950 . S
C1481 C1479 1.387 . S
C1481 C1483 1.390 . S
C1481 H1485 0.950 . S
H1482 C1478 0.950 . S
C1483 C1481 1.390 . S
C1483 C1484 1.387 . S
C1483 H1486 0.950 . S
C1484 C1483 1.387 . S
C1484 C1487 1.387 . S
H1485 C1481 0.950 . S
H1486 C1483 0.950 . S
C1487 C1478 1.390 . S
C1487 H1480 0.950 . S
C1487 C1484 1.387 . S
C1488 C1489 1.387 . S
C1488 H1492 0.950 . S
C1488 C1497 1.390 . S
C1489 C1488 1.387 . S
C1489 C1491 1.387 . S
H1490 C1497 0.950 . S
C1491 C1489 1.387 . S
C1491 C1493 1.390 . S
C1491 H1495 0.950 . S
H1492 C1488 0.950 . S
C1493 C1491 1.390 . S
C1493 C1494 1.387 . S
C1493 H1496 0.950 . S
C1494 C1493 1.387 . S
C1494 C1497 1.387 . S
H1495 C1491 0.950 . S
H1496 C1493 0.950 . S
C1497 C1488 1.390 . S
C1497 H1490 0.950 . S
C1497 C1494 1.387 . S
C1498 C1499 1.387 . S
C1498 H1502 0.950 . S
C1498 C1507 1.390 . S
C1499 C1498 1.387 . S
C1499 C1501 1.387 . S
H1500 C1507 0.950 . S
C1501 C1499 1.387 . S
C1501 C1503 1.390 . S
C1501 H1505 0.950 . S
H1502 C1498 0.950 . S
C1503 C1501 1.390 . S
C1503 C1504 1.387 . S
C1503 H1506 0.950 . S
C1504 C1503 1.387 . S
C1504 C1507 1.387 . S
H1505 C1501 0.950 . S
H1506 C1503 0.950 . S
C1507 C1498 1.390 . S
C1507 H1500 0.950 . S
C1507 C1504 1.387 . S
C1508 C1509 1.387 . S
C1508 H1512 0.950 . S
C1508 C1517 1.390 . S
C1509 C1508 1.387 . S
C1509 C1511 1.387 . S
H1510 C1517 0.950 . S
C1511 C1509 1.387 . S
C1511 C1513 1.390 . S
C1511 H1515 0.950 . S
H1512 C1508 0.950 . S
C1513 C1511 1.390 . S
C1513 C1514 1.387 . S
C1513 H1516 0.950 . S
C1514 C1513 1.387 . S
C1514 C1517 1.387 . S
H1515 C1511 0.950 . S
H1516 C1513 0.950 . S
C1517 C1508 1.390 . S
C1517 H1510 0.950 . S
C1517 C1514 1.387 . S
C1518 C1519 1.387 . S
C1518 H1522 0.950 . S
C1518 C1527 1.390 . S
C1519 C1518 1.387 . S
C1519 C1521 1.387 . S
H1520 C1527 0.950 . S
C1521 C1519 1.387 . S
C1521 C1523 1.390 . S
C1521 H1525 0.950 . S
H1522 C1518 0.950 . S
C1523 C1521 1.390 . S
C1523 C1524 1.387 . S
C1523 H1526 0.950 . S
C1524 C1523 1.387 . S
C1524 C1527 1.387 . S
H1525 C1521 0.950 . S
H1526 C1523 0.950 . S
C1527 C1518 1.390 . S
C1527 H1520 0.950 . S
C1527 C1524 1.387 . S
C1528 C1529 1.387 . S
C1528 H1532 0.950 . S
C1528 C1537 1.390 . S
C1529 C1528 1.387 . S
C1529 C1531 1.387 . S
H1530 C1537 0.950 . S
C1531 C1529 1.387 . S
C1531 C1533 1.390 . S
C1531 H1535 0.950 . S
H1532 C1528 0.950 . S
C1533 C1531 1.390 . S
C1533 C1534 1.387 . S
C1533 H1536 0.950 . S
C1534 C1533 1.387 . S
C1534 C1537 1.387 . S
H1535 C1531 0.950 . S
H1536 C1533 0.950 . S
C1537 C1528 1.390 . S
C1537 H1530 0.950 . S
C1537 C1534 1.387 . S
C1538 C1539 1.387 . S
C1538 H1542 0.950 . S
C1538 C1547 1.390 . S
C1539 C1538 1.387 . S
C1539 C1541 1.387 . S
H1540 C1547 0.950 . S
C1541 C1539 1.387 . S
C1541 C1543 1.390 . S
C1541 H1545 0.950 . S
H1542 C1538 0.950 . S
C1543 C1541 1.390 . S
C1543 C1544 1.387 . S
C1543 H1546 0.950 . S
C1544 C1543 1.387 . S
C1544 C1547 1.387 . S
H1545 C1541 0.950 . S
H1546 C1543 0.950 . S
C1547 C1538 1.390 . S
C1547 H1540 0.950 . S
C1547 C1544 1.387 . S
C1548 C1549 1.387 . S
C1548 H1552 0.950 . S
C1548 C1557 1.390 . S
C1549 C1548 1.387 . S
C1549 C1551 1.387 . S
H1550 C1557 0.950 . S
C1551 C1549 1.387 . S
C1551 C1553 1.390 . S
C1551 H1555 0.950 . S
H1552 C1548 0.950 . S
C1553 C1551 1.390 . S
C1553 C1554 1.387 . S
C1553 H1556 0.950 . S
C1554 C1553 1.387 . S
C1554 C1557 1.387 . S
H1555 C1551 0.950 . S
H1556 C1553 0.950 . S
C1557 C1548 1.390 . S
C1557 H1550 0.950 . S
C1557 C1554 1.387 . S
C1558 C1559 1.387 . S
C1558 H1562 0.950 . S
C1558 C1567 1.390 . S
C1559 C1558 1.387 . S
C1559 C1561 1.387 1_554 S
H1560 C1567 0.950 . S
C1561 C1559 1.387 1_556 S
C1561 C1563 1.390 . S
C1561 H1565 0.950 . S
H1562 C1558 0.950 . S
C1563 C1561 1.390 . S
C1563 C1564 1.389 . S
C1563 H1566 0.950 . S
C1564 C1563 1.389 . S
C1564 C1567 1.385 1_556 S
H1565 C1561 0.950 . S
H1566 C1563 0.950 . S
C1567 C1558 1.390 . S
C1567 H1560 0.950 . S
C1567 C1564 1.385 1_554 S
C1568 C1569 1.387 . S
C1568 H1572 0.950 . S
C1568 C1577 1.390 . S
C1569 C1568 1.387 . S
C1569 C1571 1.387 . S
H1570 C1577 0.950 . S
C1571 C1569 1.387 . S
C1571 C1573 1.390 . S
C1571 H1575 0.950 . S
H1572 C1568 0.950 . S
C1573 C1571 1.390 . S
C1573 C1574 1.387 . S
C1573 H1576 0.950 . S
C1574 C1573 1.387 . S
C1574 C1577 1.387 . S
H1575 C1571 0.950 . S
H1576 C1573 0.950 . S
C1577 C1568 1.390 . S
C1577 H1570 0.950 . S
C1577 C1574 1.387 . S
C1578 C1579 1.387 . S
C1578 H1582 0.950 . S
C1578 C1587 1.390 . S
C1579 C1578 1.387 . S
C1579 C1581 1.387 1_556 S
H1580 C1587 0.950 . S
C1581 C1579 1.387 1_554 S
C1581 C1583 1.390 . S
C1581 H1585 0.950 . S
H1582 C1578 0.950 . S
C1583 C1581 1.390 . S
C1583 C1584 1.387 . S
C1583 H1586 0.950 . S
C1584 C1583 1.387 . S
C1584 C1587 1.387 1_554 S
H1585 C1581 0.950 . S
H1586 C1583 0.950 . S
C1587 C1578 1.390 . S
C1587 H1580 0.950 . S
C1587 C1584 1.387 1_556 S
C1588 C1589 1.387 . S
C1588 H1592 0.950 . S
C1588 C1597 1.390 . S
C1589 C1588 1.387 . S
C1589 C1591 1.387 . S
H1590 C1597 0.950 . S
C1591 C1589 1.387 . S
C1591 C1593 1.390 . S
C1591 H1595 0.950 . S
H1592 C1588 0.950 . S
C1593 C1591 1.390 . S
C1593 C1594 1.387 . S
C1593 H1596 0.950 . S
C1594 C1593 1.387 . S
C1594 C1597 1.387 . S
H1595 C1591 0.950 . S
H1596 C1593 0.950 . S
C1597 C1588 1.390 . S
C1597 H1590 0.950 . S
C1597 C1594 1.387 . S
C1598 C1599 1.387 . S
C1598 H1602 0.950 . S
C1598 C1607 1.390 . S
C1599 C1598 1.387 . S
C1599 C1601 1.387 . S
H1600 C1607 0.950 . S
C1601 C1599 1.387 . S
C1601 C1603 1.390 . S
C1601 H1605 0.950 . S
H1602 C1598 0.950 . S
C1603 C1601 1.390 . S
C1603 C1604 1.387 . S
C1603 H1606 0.950 . S
C1604 C1603 1.387 . S
C1604 C1607 1.387 . S
H1605 C1601 0.950 . S
H1606 C1603 0.950 . S
C1607 C1598 1.390 . S
C1607 H1600 0.950 . S
C1607 C1604 1.387 . S
C654 C327 1.423 . S
C649 C10 1.536 . S
C659 C23 1.418 . S
C664 C346 1.362 . S
C669 C36 1.540 . S
C674 C369 1.441 . S
C684 C389 1.499 . S
C679 C42 1.520 . S
C689 C18 1.506 . S
C694 C410 1.487 . S
C704 C432 1.514 . S
C699 C31 1.610 . S
C714 C454 1.344 . S
C709 C43 1.406 . S
C719 C5 1.521 . S
C724 C472 1.452 . S
C729 C56 1.512 . S
C734 C328 1.443 . S
C739 C70 1.527 . S
C744 C347 1.513 . S
C754 C370 1.363 . S
C749 C82 1.418 . S
C764 C393 1.486 . S
C759 C96 1.590 . S
C769 C57 1.610 . S
C774 C414 1.514 . S
C784 C433 1.339 . S
C779 C69 1.393 . S
C794 C455 1.497 . S
C789 C83 1.521 1_565 S
C804 C473 1.491 . S
C799 C95 1.510 . S
C814 C329 1.495 . S
C809 C94 1.513 1_556 S
C824 C496 1.339 . S
C819 C108 1.392 . S
C829 C122 1.505 . S
C834 C518 1.487 . S
C844 C537 1.484 . S
C839 C140 1.584 . S
C849 C55 1.540 . S
C854 C477 1.428 . S
C864 C371 1.514 . S
C859 C68 1.527 . S
C869 C121 1.408 . S
C874 C559 1.346 . S
C884 C582 1.443 . S
C879 C153 1.539 . S
C889 C161 1.333 . S
C894 C330 1.272 . S
C904 C581 1.254 . S
C899 C174 1.281 . S
C909 C186 1.400 . S
C914 C372 1.339 . S
C919 C200 1.273 . S
C924 C556 1.246 . S
C934 C412 1.239 . S
C929 C172 1.267 . S
C944 C519 1.309 . S
C939 C192 1.381 . S
C954 C452 1.278 . S
C949 C198 1.301 . S
C964 C602 1.362 . S
C959 C159 1.384 . S
C974 C326 1.362 . S
C969 C211 1.382 . S
C979 C225 1.271 . S
C984 C580 1.235 . S
C994 C368 1.251 1_545 S
C989 C239 1.278 . S
C999 C251 1.362 . S
C1004 C561 1.312 . S
C1009 C218 1.383 . S
C1014 C411 1.314 . S
C1019 C226 1.304 . S
C1024 C515 1.278 . S
C1034 C451 1.238 . S
C1029 C238 1.263 1_545 S
C1039 C252 1.289 . S
C1044 C601 1.257 . S
C1049 C250 1.292 . S
C1054 C325 1.259 . S
C1059 C264 1.301 . S
C1064 C494 1.266 1_554 S
C1069 C276 1.263 . S
C1074 C430 1.237 . S
C1079 C290 1.365 . S
C1084 C540 1.310 . S
C1094 C600 1.270 . S
C1089 C213 1.332 . S
C1104 C367 1.245 . S
C1099 C224 1.274 . S
C1114 C392 1.274 . S
C1109 C283 1.297 . S
C1124 C348 1.343 . S
C1119 C303 1.405 . S
C1129 C29 1.541 . S
C1134 C624 1.427 . S
C1144 C577 1.358 . S
C1139 C49 1.416 . S
C1154 C642 1.444 . S
C1149 C3 1.546 . S
C1159 C16 1.520 . S
C1164 C560 1.496 . S
C1169 C44 1.505 . S
C1174 C497 1.490 . S
C1184 C516 1.512 . S
C1179 C4 1.602 . S
C1194 C538 1.349 . S
C1189 C17 1.407 . S
C1204 C598 1.447 . S
C1199 C30 1.514 . S
C1214 C619 1.448 . S
C1209 C147 1.514 . S
C1219 C107 1.529 . S
C1224 C578 1.515 . S
C1229 C127 1.419 . S
C1234 C643 1.363 . S
C1244 C558 1.487 . S
C1239 C135 1.593 . S
C1254 C495 1.512 . S
C1249 C148 1.608 . S
C1259 C114 1.392 . S
C1264 C517 1.339 . S
C1274 C539 1.497 . S
C1269 C120 1.518 . S
C1279 C134 1.507 . S
C1284 C599 1.491 . S
C1294 C620 1.496 . S
C1289 C133 1.514 . S
C1304 C409 1.337 . S
C1299 C75 1.393 . S
C1314 C434 1.490 . S
C1309 C81 1.505 . S
C1319 C101 1.587 . S
C1324 C453 1.484 . S
C1334 C603 1.428 . S
C1329 C146 1.539 . S
C1339 C109 1.528 1_556 S
C1344 C644 1.515 . S
C1354 C388 1.345 . S
C1349 C88 1.407 . S
C1364 C351 1.441 . S
C1359 C62 1.537 . S
C1369 C187 1.334 . S
C1374 C621 1.269 . S
C1384 C350 1.249 . S
C1379 C199 1.275 . S
C1394 C645 1.323 1_455 S
C1389 C160 1.402 . S
C1399 C173 1.267 . S
C1404 C391 1.240 . S
C1409 C205 1.260 . S
C1414 C493 1.230 . S
C1419 C166 1.380 . S
C1424 C435 1.312 . S
C1429 C179 1.295 . S
C1434 C536 1.270 1_455 S
C1439 C185 1.384 . S
C1444 C476 1.362 . S
C1454 C623 1.361 . S
C1449 C302 1.383 . S
C1459 C270 1.273 . S
C1464 C349 1.241 . S
C1474 C641 1.253 . S
C1469 C278 1.279 . S
C1479 C296 1.367 . S
C1484 C390 1.312 . S
C1489 C309 1.387 . S
C1494 C498 1.316 . S
C1504 C431 1.277 . S
C1499 C263 1.305 . S
C1509 C277 1.268 . S
C1514 C535 1.241 . S
C1524 C475 1.259 . S
C1519 C289 1.290 . S
C1534 C622 1.259 . S
C1529 C291 1.292 . S
C1544 C413 1.272 . S
C1539 C231 1.301 . S
C1549 C237 1.264 . S
C1554 C514 1.234 . S
C1564 C456 1.310 . S
C1559 C257 1.363 . S
C1574 C474 1.270 . S
C1569 C304 1.332 . S
C1579 C265 1.276 . S
C1584 C640 1.244 . S
C1594 C557 1.272 . S
C1589 C244 1.295 . S
C1604 C579 1.341 . S
C1599 C212 1.403 . S
