# Generated by pormake.
# Topology dag, (6,3)-cn, num edge types: 1
# Building blocks:
#     Node 0, Type 0, BuildingBlock: IZENUY_clean_sbu_0, # of connection points: 6
#     Node 1, Type 0, BuildingBlock: IZENUY_clean_sbu_0, # of connection points: 6
#     Node 2, Type 0, BuildingBlock: IZENUY_clean_sbu_0, # of connection points: 6
#     Node 3, Type 0, BuildingBlock: IZENUY_clean_sbu_0, # of connection points: 6
#     Node 4, Type 1, BuildingBlock: OLANEW_clean_sbu_2, # of connection points: 3
#     Node 5, Type 1, BuildingBlock: OLANEW_clean_sbu_2, # of connection points: 3
#     Node 6, Type 1, BuildingBlock: OLANEW_clean_sbu_2, # of connection points: 3
#     Node 7, Type 1, BuildingBlock: OLANEW_clean_sbu_2, # of connection points: 3
#     Node 8, Type 1, BuildingBlock: OLANEW_clean_sbu_2, # of connection points: 3
#     Node 9, Type 1, BuildingBlock: OLANEW_clean_sbu_2, # of connection points: 3
#     Node 10, Type 1, BuildingBlock: OLANEW_clean_sbu_2, # of connection points: 3
#     Node 11, Type 1, BuildingBlock: OLANEW_clean_sbu_2, # of connection points: 3
#     Edge 12, Type (0, 1), BuildingBlock: KIFKEQ_clean_linker_1, # of connection points: 2
#     Edge 13, Type (0, 1), BuildingBlock: KIFKEQ_clean_linker_1, # of connection points: 2
#     Edge 14, Type (0, 1), BuildingBlock: KIFKEQ_clean_linker_1, # of connection points: 2
#     Edge 15, Type (0, 1), BuildingBlock: KIFKEQ_clean_linker_1, # of connection points: 2
#     Edge 16, Type (0, 1), BuildingBlock: KIFKEQ_clean_linker_1, # of connection points: 2
#     Edge 17, Type (0, 1), BuildingBlock: KIFKEQ_clean_linker_1, # of connection points: 2
#     Edge 18, Type (0, 1), BuildingBlock: KIFKEQ_clean_linker_1, # of connection points: 2
#     Edge 19, Type (0, 1), BuildingBlock: KIFKEQ_clean_linker_1, # of connection points: 2
#     Edge 20, Type (0, 1), BuildingBlock: KIFKEQ_clean_linker_1, # of connection points: 2
#     Edge 21, Type (0, 1), BuildingBlock: KIFKEQ_clean_linker_1, # of connection points: 2
#     Edge 22, Type (0, 1), BuildingBlock: KIFKEQ_clean_linker_1, # of connection points: 2
#     Edge 23, Type (0, 1), BuildingBlock: KIFKEQ_clean_linker_1, # of connection points: 2
#     Edge 24, Type (0, 1), BuildingBlock: KIFKEQ_clean_linker_1, # of connection points: 2
#     Edge 25, Type (0, 1), BuildingBlock: KIFKEQ_clean_linker_1, # of connection points: 2
#     Edge 26, Type (0, 1), BuildingBlock: KIFKEQ_clean_linker_1, # of connection points: 2
#     Edge 27, Type (0, 1), BuildingBlock: KIFKEQ_clean_linker_1, # of connection points: 2
#     Edge 28, Type (0, 1), BuildingBlock: KIFKEQ_clean_linker_1, # of connection points: 2
#     Edge 29, Type (0, 1), BuildingBlock: KIFKEQ_clean_linker_1, # of connection points: 2
#     Edge 30, Type (0, 1), BuildingBlock: KIFKEQ_clean_linker_1, # of connection points: 2
#     Edge 31, Type (0, 1), BuildingBlock: KIFKEQ_clean_linker_1, # of connection points: 2
#     Edge 32, Type (0, 1), BuildingBlock: KIFKEQ_clean_linker_1, # of connection points: 2
#     Edge 33, Type (0, 1), BuildingBlock: KIFKEQ_clean_linker_1, # of connection points: 2
#     Edge 34, Type (0, 1), BuildingBlock: KIFKEQ_clean_linker_1, # of connection points: 2
#     Edge 35, Type (0, 1), BuildingBlock: KIFKEQ_clean_linker_1, # of connection points: 2
# Relax obj value: 0.127
# Max RMSD: 0.152
# Mean RMSD: 0.116
data_MOF--net-dag--node1-IZENUY_clean_sbu_0--node2-OLANEW_clean_sbu_2--edge1-KIFKEQ_clean_linker_1
_symmetry_space_group_name_H-M    P1
_symmetry_Int_Tables_number       1
_symmetry_cell_setting            triclinic
loop_
_symmetry_equiv_pos_as_xyz
'x, y, z'
_cell_length_a     44.101403
_cell_length_b     41.292259
_cell_length_c     37.873609
_cell_angle_alpha  92.200815
_cell_angle_beta   94.441331
_cell_angle_gamma 91.220913
loop_
_atom_site_label
_atom_site_type_symbol
_atom_site_fract_x
_atom_site_fract_y
_atom_site_fract_z
_atom_type_partial_charge
Fe0 Fe 0.17444 0.88353 0.02829 0.0
Fe1 Fe 0.10615 0.89787 0.01981 0.0
O2 O 0.13614 0.86987 0.01904 0.0
Fe3 Fe 0.12837 0.82814 0.00877 0.0
O4 O 0.14638 0.81655 0.05135 0.0
O5 O 0.18791 0.84565 0.04693 0.0
O6 O 0.16686 0.89732 0.07287 0.0
C7 C 0.14638 0.91709 0.07987 0.0
C8 C 0.17937 0.84199 0.97117 0.0
O9 O 0.12483 0.92291 0.05689 0.0
C10 C 0.08862 0.85611 0.95974 0.0
O11 O 0.16879 0.92405 0.01171 0.0
O12 O 0.12233 0.92269 0.98672 0.0
O13 O 0.16326 0.82191 0.98644 0.0
O14 O 0.18379 0.87061 0.98392 0.0
C15 C 0.08001 0.84576 0.05032 0.0
O16 O 0.08254 0.87744 0.98299 0.0
O17 O 0.10994 0.83663 0.96567 0.0
C18 C 0.14894 0.93482 0.98968 0.0
O19 O 0.08714 0.87558 0.05276 0.0
O20 O 0.09206 0.82688 0.02871 0.0
C21 C 0.17392 0.82314 0.0611 0.0
Fe22 Fe 0.70632 0.60802 0.46456 0.0
Fe23 Fe 0.6648 0.66622 0.45093 0.0
O24 O 0.66967 0.62508 0.46211 0.0
Fe25 Fe 0.63806 0.60069 0.47131 0.0
O26 O 0.65923 0.57678 0.50436 0.0
O27 O 0.70458 0.60007 0.51115 0.0
O28 O 0.72662 0.64581 0.47869 0.0
C29 C 0.71785 0.67115 0.49417 0.0
C30 C 0.66867 0.55675 0.43325 0.0
O31 O 0.69102 0.68078 0.48812 0.0
C32 C 0.61436 0.63775 0.41429 0.0
O33 O 0.71034 0.61526 0.41849 0.0
O34 O 0.69512 0.66588 0.41985 0.0
O35 O 0.64443 0.57201 0.43546 0.0
O36 O 0.69294 0.56669 0.45068 0.0
C37 C 0.62407 0.65732 0.50501 0.0
O38 O 0.6381 0.65518 0.41299 0.0
O39 O 0.61094 0.62012 0.44033 0.0
C40 C 0.7082 0.64257 0.40476 0.0
O41 O 0.63337 0.6732 0.47971 0.0
O42 O 0.62967 0.6277 0.50757 0.0
C43 C 0.68355 0.58383 0.52333 0.0
Fe44 Fe 0.84496 0.1941 0.03212 0.0
Fe45 Fe 0.86396 0.12511 0.01499 0.0
O46 O 0.83508 0.15391 0.01682 0.0
Fe47 Fe 0.797 0.14171 0.00344 0.0
O48 O 0.7866 0.18052 0.98412 0.0
O49 O 0.82856 0.21078 0.9919 0.0
O50 O 0.88153 0.19442 0.01114 0.0
C51 C 0.89064 0.17644 0.98615 0.0
C52 C 0.7891 0.18092 0.06239 0.0
O53 O 0.88134 0.14731 0.98149 0.0
C54 C 0.8205 0.09064 0.04499 0.0
O55 O 0.86225 0.18078 0.07434 0.0
O56 O 0.88982 0.14441 0.04978 0.0
O57 O 0.78411 0.15409 0.04578 0.0
O58 O 0.81004 0.20032 0.05475 0.0
C59 C 0.82555 0.10625 0.95487 0.0
O60 O 0.84733 0.10228 0.04854 0.0
O61 O 0.80114 0.10074 0.02143 0.0
C62 C 0.88435 0.162 0.07627 0.0
O63 O 0.8446 0.09932 0.97974 0.0
O64 O 0.80681 0.12827 0.95939 0.0
C65 C 0.80234 0.20515 0.97705 0.0
Fe66 Fe 0.37253 0.39622 0.54316 0.0
Fe67 Fe 0.30995 0.37287 0.56336 0.0
O68 O 0.34947 0.36635 0.56083 0.0
Fe69 Fe 0.36592 0.33013 0.57577 0.0
O70 O 0.40268 0.34937 0.59217 0.0
O71 O 0.39611 0.4013 0.58418 0.0
O72 O 0.35069 0.4305 0.55877 0.0
C73 C 0.3334 0.43308 0.58386 0.0
C74 C 0.39598 0.33774 0.51628 0.0
O75 O 0.31753 0.40905 0.59204 0.0
C76 C 0.30975 0.30913 0.53995 0.0
O77 O 0.35027 0.39285 0.50107 0.0
O78 O 0.30592 0.39717 0.52325 0.0
O79 O 0.3791 0.31978 0.53281 0.0
O80 O 0.39887 0.36771 0.52436 0.0
C81 C 0.3269 0.34093 0.62705 0.0
O82 O 0.29995 0.33724 0.53484 0.0
O83 O 0.33215 0.30465 0.56212 0.0
C84 C 0.32233 0.39875 0.49721 0.0
O85 O 0.30677 0.34974 0.60384 0.0
O86 O 0.354 0.33763 0.61965 0.0
C87 C 0.40988 0.37885 0.59977 0.0
O88 O 0.17492 0.02997 0.34254 0.0
Cd89 Cd 0.16812 0.05311 0.40198 0.0
O90 O 0.134 0.05658 0.32755 0.0
Cd91 Cd 0.09731 0.0765 0.29342 0.0
O92 O 0.06287 0.10299 0.26257 0.0
C93 C 0.03521 0.10309 0.26985 0.0
O94 O 0.02688 0.08652 0.29656 0.0
C95 C 0.15432 0.03699 0.31892 0.0
C96 C 0.20233 0.10886 0.42451 0.0
O97 O 0.21163 0.08057 0.43216 0.0
O98 O 0.1773 0.11079 0.40519 0.0
O99 O 0.2802 0.67485 0.67416 0.0
Cd100 Cd 0.27545 0.73396 0.67779 0.0
O101 O 0.32779 0.68519 0.66604 0.0
Cd102 Cd 0.37455 0.67858 0.65201 0.0
O103 O 0.4215 0.6815 0.63753 0.0
C104 C 0.42718 0.69442 0.60876 0.0
O105 O 0.40454 0.70534 0.5883 0.0
C106 C 0.30627 0.66445 0.66802 0.0
C107 C 0.2567 0.7592 0.74167 0.0
O108 O 0.23737 0.7491 0.71641 0.0
O109 O 0.28506 0.75691 0.73696 0.0
O110 O 0.89287 0.70722 0.1232 0.0
Cd111 Cd 0.84339 0.67881 0.11857 0.0
O112 O 0.86672 0.75108 0.12966 0.0
Cd113 Cd 0.85946 0.80288 0.13607 0.0
O114 O 0.85186 0.85451 0.133 0.0
C115 C 0.8252 0.86525 0.12746 0.0
O116 O 0.80185 0.84476 0.12455 0.0
C117 C 0.89221 0.73792 0.12632 0.0
C118 C 0.81641 0.67326 0.18227 0.0
O119 O 0.83212 0.65028 0.1699 0.0
O120 O 0.81392 0.6992 0.16485 0.0
O121 O 0.69019 0.46919 0.77116 0.0
Cd122 Cd 0.6761 0.4426 0.82442 0.0
O123 O 0.66105 0.50956 0.78486 0.0
Cd124 Cd 0.63361 0.47915 0.81656 0.0
O125 O 0.59416 0.45061 0.79357 0.0
C126 C 0.59446 0.44735 0.76007 0.0
O127 O 0.61789 0.4593 0.74504 0.0
C128 C 0.68081 0.49763 0.76567 0.0
C129 C 0.70602 0.38609 0.84204 0.0
O130 O 0.71877 0.41405 0.84885 0.0
O131 O 0.67937 0.38471 0.82584 0.0
O132 O 0.62332 0.31785 0.31836 0.0
Cd133 Cd 0.61048 0.26135 0.30159 0.0
O134 O 0.65041 0.30446 0.36653 0.0
Cd135 Cd 0.62612 0.25788 0.36571 0.0
O136 O 0.58083 0.24747 0.38251 0.0
C137 C 0.55956 0.26383 0.36795 0.0
O138 O 0.56577 0.2826 0.34209 0.0
C139 C 0.64176 0.32585 0.3449 0.0
C140 C 0.64853 0.24141 0.25032 0.0
O141 O 0.62189 0.25173 0.24159 0.0
O142 O 0.65686 0.23982 0.28337 0.0
O143 O 0.24472 0.15445 0.91161 0.0
Cd144 Cd 0.25905 0.2122 0.91605 0.0
O145 O 0.20021 0.17243 0.89393 0.0
Cd146 Cd 0.15169 0.1713 0.87861 0.0
O147 O 0.1037 0.18137 0.87968 0.0
C148 C 0.09663 0.20072 0.90443 0.0
O149 O 0.11835 0.2135 0.92671 0.0
C150 C 0.21666 0.14877 0.90297 0.0
C151 C 0.27185 0.24093 0.85337 0.0
O152 O 0.29315 0.23048 0.87463 0.0
O153 O 0.2443 0.23705 0.86125 0.0
O154 O 0.39289 0.65764 0.2829 0.0
Cd155 Cd 0.33794 0.64524 0.27023 0.0
O156 O 0.4032 0.60767 0.26628 0.0
Cd157 Cd 0.35639 0.58853 0.26133 0.0
O158 O 0.32779 0.55199 0.28391 0.0
C159 C 0.31676 0.55868 0.31327 0.0
O160 O 0.32029 0.58836 0.32701 0.0
C161 C 0.41232 0.63599 0.2773 0.0
C162 C 0.30338 0.68528 0.22531 0.0
O163 O 0.30461 0.6899 0.25907 0.0
O164 O 0.31923 0.6625 0.21277 0.0
O165 O 0.97414 0.82712 0.69668 0.0
Cd166 Cd 0.94855 0.83536 0.6378 0.0
O167 O 0.94152 0.86106 0.716 0.0
Cd168 Cd 0.91902 0.89506 0.7502 0.0
O169 O 0.88948 0.9287 0.77592 0.0
C170 C 0.88848 0.95826 0.76778 0.0
O171 O 0.90589 0.96873 0.74379 0.0
C172 C 0.96461 0.84365 0.72238 0.0
C173 C 0.89624 0.79793 0.61645 0.0
O174 O 0.92284 0.78818 0.61043 0.0
O175 O 0.89433 0.82501 0.63377 0.0
H176 H 0.18499 0.90767 0.13887 0.0
H177 H 0.1127 0.96873 0.09918 0.0
H178 H 0.18736 0.93757 0.19589 0.0
H179 H 0.11571 0.99916 0.15558 0.0
H180 H 0.10479 0.02181 0.27289 0.0
H181 H 0.10364 0.99385 0.21511 0.0
H182 H 0.20166 0.98824 0.22587 0.0
H183 H 0.2026 0.016 0.28409 0.0
C184 C 0.16979 0.92764 0.14217 0.0
C185 C 0.1486 0.93567 0.1144 0.0
C186 C 0.17126 0.94494 0.17485 0.0
C187 C 0.15168 0.97083 0.18051 0.0
C188 C 0.13078 0.97905 0.15252 0.0
C189 C 0.12918 0.96165 0.12 0.0
C190 C 0.12615 0.01544 0.26255 0.0
C191 C 0.15383 0.02183 0.28274 0.0
C192 C 0.12551 0.99915 0.22942 0.0
C193 C 0.15258 0.98883 0.21557 0.0
C194 C 0.18032 0.99542 0.23578 0.0
C195 C 0.18091 0.01156 0.26905 0.0
H196 H 0.59232 0.71344 0.4966 0.0
H197 H 0.60309 0.6316 0.56388 0.0
H198 H 0.54731 0.72904 0.52631 0.0
H199 H 0.55783 0.64632 0.59239 0.0
H200 H 0.47999 0.68265 0.64845 0.0
H201 H 0.53136 0.68156 0.62895 0.0
H202 H 0.49655 0.70736 0.52416 0.0
H203 H 0.44551 0.70967 0.54408 0.0
C204 C 0.58548 0.69915 0.51815 0.0
C205 C 0.60104 0.671 0.52747 0.0
C206 C 0.55948 0.70788 0.53494 0.0
C207 C 0.54855 0.68863 0.56135 0.0
C208 C 0.56554 0.66191 0.57238 0.0
C209 C 0.59149 0.65329 0.55577 0.0
C210 C 0.48339 0.68842 0.62135 0.0
C211 C 0.45863 0.69588 0.59769 0.0
C212 C 0.51284 0.68773 0.61013 0.0
C213 C 0.51817 0.69412 0.57487 0.0
C214 C 0.49348 0.70276 0.55163 0.0
C215 C 0.46409 0.70378 0.56296 0.0
H216 H 0.78026 0.041 0.0239 0.0
H217 H 0.84697 0.0731 0.10817 0.0
H218 H 0.77782 0.98765 0.04935 0.0
H219 H 0.84382 0.02029 0.13428 0.0
H220 H 0.86897 0.91298 0.13012 0.0
H221 H 0.86301 0.9692 0.11543 0.0
H222 H 0.76576 0.95327 0.09742 0.0
H223 H 0.77184 0.89635 0.1114 0.0
C224 C 0.79371 0.03692 0.04842 0.0
C225 C 0.81419 0.06092 0.06376 0.0
C226 C 0.79227 0.0064 0.06308 0.0
C227 C 0.81107 0.99954 0.09349 0.0
C228 C 0.82964 0.02452 0.11033 0.0
C229 C 0.83134 0.05481 0.09549 0.0
C230 C 0.84624 0.92145 0.12338 0.0
C231 C 0.82091 0.90011 0.12169 0.0
C232 C 0.84278 0.95384 0.11523 0.0
C233 C 0.81387 0.9658 0.10533 0.0
C234 C 0.78836 0.94471 0.10464 0.0
C235 C 0.79184 0.91217 0.11279 0.0
H236 H 0.44109 0.43664 0.60788 0.0
H237 H 0.43881 0.34027 0.64855 0.0
H238 H 0.48574 0.45052 0.64788 0.0
H239 H 0.48365 0.35456 0.68906 0.0
H240 H 0.54343 0.41619 0.78098 0.0
H241 H 0.49831 0.39737 0.74304 0.0
H242 H 0.54079 0.42902 0.65101 0.0
H243 H 0.58564 0.44739 0.68833 0.0
C244 C 0.45002 0.41843 0.62545 0.0
C245 C 0.43654 0.38725 0.62485 0.0
C246 C 0.47565 0.42639 0.64825 0.0
C247 C 0.48815 0.40353 0.67132 0.0
C248 C 0.47434 0.37259 0.67151 0.0
C249 C 0.44886 0.36441 0.64822 0.0
C250 C 0.54319 0.4188 0.75262 0.0
C251 C 0.56801 0.43347 0.7377 0.0
C252 C 0.51748 0.40796 0.73097 0.0
C253 C 0.51608 0.41208 0.69423 0.0
C254 C 0.54119 0.42592 0.67933 0.0
C255 C 0.56692 0.43632 0.70076 0.0
H256 H 0.71519 0.51448 0.42796 0.0
H257 H 0.61993 0.52623 0.3959 0.0
H258 H 0.71239 0.45962 0.40156 0.0
H259 H 0.6171 0.47125 0.3701 0.0
H260 H 0.6245 0.37816 0.30665 0.0
H261 H 0.63419 0.43532 0.3231 0.0
H262 H 0.68839 0.40864 0.41697 0.0
H263 H 0.67918 0.35157 0.40032 0.0
C264 C 0.6937 0.50548 0.41508 0.0
C265 C 0.66768 0.52462 0.41441 0.0
C266 C 0.69211 0.47399 0.40008 0.0
C267 C 0.6645 0.46102 0.38396 0.0
C268 C 0.6388 0.48063 0.38201 0.0
C269 C 0.64037 0.51209 0.39705 0.0
C270 C 0.63888 0.38447 0.33052 0.0
C271 C 0.65084 0.36029 0.35236 0.0
C272 C 0.64428 0.41723 0.34002 0.0
C273 C 0.66181 0.4265 0.37149 0.0
C274 C 0.67499 0.40232 0.3924 0.0
C275 C 0.66957 0.36957 0.38294 0.0
H276 H 0.9232 0.23402 0.9945 0.0
H277 H 0.91695 0.14304 0.93361 0.0
H278 H 0.97054 0.24755 0.96842 0.0
H279 H 0.96442 0.15589 0.90884 0.0
H280 H 0.07387 0.22756 0.96339 0.0
H281 H 0.02103 0.22829 0.97718 0.0
H282 H 0.99343 0.1875 0.87246 0.0
H283 H 0.0466 0.1855 0.85925 0.0
C284 C 0.9317 0.2171 0.97527 0.0
C285 C 0.9166 0.18719 0.96667 0.0
C286 C 0.9589 0.22477 0.96047 0.0
C287 C 0.97154 0.20265 0.93687 0.0
C288 C 0.95532 0.17372 0.9266 0.0
C289 C 0.92814 0.16616 0.94117 0.0
C290 C 0.0565 0.21919 0.94311 0.0
C291 C 0.0644 0.20587 0.9105 0.0
C292 C 0.02611 0.21988 0.9509 0.0
C293 C 0.00294 0.20759 0.92608 0.0
C294 C 0.01076 0.19647 0.89247 0.0
C295 C 0.04121 0.19541 0.88485 0.0
H296 H 0.27283 0.43751 0.48716 0.0
H297 H 0.34703 0.39674 0.43358 0.0
H298 H 0.26171 0.47278 0.43761 0.0
H299 H 0.33636 0.43212 0.3847 0.0
H300 H 0.31167 0.49365 0.29572 0.0
H301 H 0.3034 0.44983 0.33555 0.0
H302 H 0.28962 0.52022 0.4198 0.0
H303 H 0.29719 0.56389 0.37992 0.0
C304 C 0.28626 0.43546 0.46445 0.0
C305 C 0.3111 0.41468 0.46451 0.0
C306 C 0.28003 0.45585 0.43619 0.0
C307 C 0.29837 0.4556 0.40737 0.0
C308 C 0.32159 0.43286 0.40625 0.0
C309 C 0.32789 0.41269 0.43448 0.0
C310 C 0.30615 0.49977 0.3225 0.0
C311 C 0.30567 0.5323 0.33482 0.0
C312 C 0.30153 0.47463 0.34537 0.0
C313 C 0.29633 0.48148 0.38104 0.0
C314 C 0.29338 0.51399 0.39248 0.0
C315 C 0.29796 0.53911 0.36961 0.0
H316 H 0.09166 0.81056 0.90552 0.0
H317 H 0.04219 0.89497 0.93632 0.0
H318 H 0.06062 0.80602 0.84943 0.0
H319 H 0.01172 0.89095 0.8798 0.0
H320 H 0.94354 0.85716 0.78792 0.0
H321 H 0.97265 0.85937 0.84548 0.0
H322 H 0.05329 0.8323 0.79463 0.0
H323 H 0.02413 0.82993 0.73734 0.0
C324 C 0.07421 0.82822 0.90035 0.0
C325 C 0.06948 0.85313 0.92557 0.0
C326 C 0.05649 0.82573 0.868 0.0
C327 C 0.03363 0.84816 0.85988 0.0
C328 C 0.02878 0.87294 0.88524 0.0
C329 C 0.04643 0.87537 0.91764 0.0
C330 C 0.96753 0.85215 0.78896 0.0
C331 C 0.98157 0.84396 0.75788 0.0
C332 C 0.98427 0.85328 0.82204 0.0
C333 C 0.01544 0.84618 0.82484 0.0
C334 C 0.02928 0.8375 0.79371 0.0
C335 C 0.01255 0.83627 0.76075 0.0
H336 H 0.83112 0.04163 0.95257 0.0
H337 H 0.81565 0.12267 0.88537 0.0
H338 H 0.83794 0.00659 0.90127 0.0
H339 H 0.82225 0.0871 0.83299 0.0
H340 H 0.89273 0.02451 0.77157 0.0
H341 H 0.86779 0.06107 0.81168 0.0
H342 H 0.81632 0.98004 0.84735 0.0
H343 H 0.84201 0.94341 0.80821 0.0
C344 C 0.82846 0.05172 0.92653 0.0
C345 C 0.82315 0.08483 0.92281 0.0
C346 C 0.8321 0.03156 0.89702 0.0
C347 C 0.83072 0.04403 0.86297 0.0
C348 C 0.82363 0.07687 0.85896 0.0
C349 C 0.81962 0.09714 0.88876 0.0
C350 C 0.8757 0.01461 0.78753 0.0
C351 C 0.86987 0.98101 0.78743 0.0
C352 C 0.86118 0.03562 0.81029 0.0
C353 C 0.84039 0.02339 0.83309 0.0
C354 C 0.8327 0.99011 0.83064 0.0
C355 C 0.84745 0.96912 0.80826 0.0
H356 H 0.42926 0.36934 0.47006 0.0
H357 H 0.4065 0.27331 0.50299 0.0
H358 H 0.46428 0.34625 0.43002 0.0
H359 H 0.44163 0.25014 0.46251 0.0
H360 H 0.5424 0.23727 0.42883 0.0
H361 H 0.49834 0.25152 0.46089 0.0
H362 H 0.46628 0.31159 0.37558 0.0
H363 H 0.51038 0.29772 0.34368 0.0
C364 C 0.43151 0.34326 0.46851 0.0
C365 C 0.4153 0.32321 0.48995 0.0
C366 C 0.45139 0.32999 0.44531 0.0
C367 C 0.45566 0.29636 0.44309 0.0
C368 C 0.4389 0.27615 0.46384 0.0
C369 C 0.41875 0.28943 0.48691 0.0
C370 C 0.52561 0.25294 0.41656 0.0
C371 C 0.53017 0.26682 0.384 0.0
C372 C 0.50031 0.26101 0.43488 0.0
C373 C 0.47915 0.28309 0.42097 0.0
C374 C 0.48255 0.295 0.38723 0.0
C375 C 0.50776 0.28692 0.36892 0.0
H376 H 0.20509 0.96248 0.98704 0.0
H377 H 0.1112 0.97344 0.94845 0.0
H378 H 0.21894 0.01216 0.96003 0.0
H379 H 0.12541 0.02346 0.92024 0.0
H380 H 0.16051 0.13226 0.92378 0.0
H381 H 0.14211 0.07868 0.9382 0.0
H382 H 0.22522 0.0373 0.90568 0.0
H383 H 0.24374 0.0911 0.89191 0.0
C384 C 0.18735 0.97532 0.97241 0.0
C385 C 0.15693 0.964 0.97025 0.0
C386 C 0.19542 0.00379 0.9565 0.0
C387 C 0.17337 0.02188 0.93773 0.0
C388 C 0.14295 0.01026 0.93474 0.0
C389 C 0.13482 0.98152 0.95075 0.0
C390 C 0.17439 0.1116 0.91855 0.0
C391 C 0.20348 0.11587 0.90639 0.0
C392 C 0.16388 0.08081 0.92699 0.0
C393 C 0.18226 0.05361 0.92346 0.0
C394 C 0.21068 0.05776 0.90943 0.0
C395 C 0.22126 0.08855 0.90132 0.0
H396 H 0.5731 0.59009 0.39362 0.0
H397 H 0.59688 0.68941 0.37405 0.0
H398 H 0.52729 0.59332 0.35401 0.0
H399 H 0.55033 0.69279 0.33417 0.0
H400 H 0.44021 0.68776 0.31602 0.0
H401 H 0.49252 0.69065 0.34317 0.0
H402 H 0.51107 0.59983 0.28982 0.0
H403 H 0.45915 0.59678 0.26287 0.0
C404 C 0.56866 0.61256 0.38048 0.0
C405 C 0.58857 0.6395 0.38698 0.0
C406 C 0.54247 0.61436 0.35759 0.0
C407 C 0.5352 0.64329 0.34086 0.0
C408 C 0.55535 0.6702 0.34676 0.0
C409 C 0.58203 0.6682 0.36934 0.0
C410 C 0.45568 0.66884 0.30937 0.0
C411 C 0.44527 0.64177 0.28771 0.0
C412 C 0.48567 0.67054 0.32488 0.0
C413 C 0.50574 0.64519 0.31908 0.0
C414 C 0.49598 0.61946 0.29528 0.0
C415 C 0.46618 0.61779 0.27977 0.0
H416 H 0.28945 0.45346 0.62712 0.0
H417 H 0.36973 0.48654 0.57919 0.0
H418 H 0.28316 0.50835 0.65205 0.0
H419 H 0.36327 0.54095 0.60358 0.0
H420 H 0.35882 0.62986 0.67604 0.0
H421 H 0.36567 0.57297 0.65957 0.0
H422 H 0.26946 0.56194 0.62934 0.0
H423 H 0.26271 0.61897 0.64534 0.0
C424 C 0.30582 0.47232 0.62207 0.0
C425 C 0.32995 0.46562 0.60093 0.0
C426 C 0.30214 0.50378 0.63619 0.0
C427 C 0.32272 0.52904 0.6298 0.0
C428 C 0.34722 0.52204 0.60942 0.0
C429 C 0.35075 0.49081 0.59515 0.0
C430 C 0.33924 0.61551 0.66534 0.0
C431 C 0.31042 0.62929 0.66092 0.0
C432 C 0.34309 0.58277 0.65622 0.0
C433 C 0.31816 0.56297 0.64276 0.0
C434 C 0.28911 0.57641 0.63984 0.0
C435 C 0.28529 0.60917 0.64886 0.0
H436 H 0.06717 0.78244 0.0609 0.0
H437 H 0.03589 0.87893 0.08358 0.0
H438 H 0.02297 0.75936 0.08572 0.0
H439 H 0.99144 0.85556 0.10933 0.0
H440 H 0.89825 0.79665 0.09619 0.0
H441 H 0.94518 0.82552 0.08562 0.0
H442 H 0.99716 0.75145 0.13841 0.0
H443 H 0.95001 0.72255 0.14891 0.0
C444 C 0.05103 0.7988 0.07169 0.0
C445 C 0.05493 0.83257 0.06988 0.0
C446 C 0.02574 0.7855 0.08628 0.0
C447 C 0.00355 0.80556 0.09951 0.0
C448 C 0.00798 0.83942 0.09903 0.0
C449 C 0.03352 0.85282 0.08451 0.0
C450 C 0.9196 0.78716 0.10677 0.0
C451 C 0.92039 0.75757 0.1239 0.0
C452 C 0.9466 0.80365 0.10051 0.0
C453 C 0.975 0.79079 0.11106 0.0
C454 C 0.9757 0.76183 0.12951 0.0
C455 C 0.94871 0.74532 0.13564 0.0
H456 H 0.73638 0.57615 0.5655 0.0
H457 H 0.63853 0.5659 0.56384 0.0
H458 H 0.74096 0.55799 0.62674 0.0
H459 H 0.6432 0.54851 0.62464 0.0
H460 H 0.65932 0.55529 0.74298 0.0
H461 H 0.66397 0.57806 0.68529 0.0
H462 H 0.72477 0.50216 0.65818 0.0
H463 H 0.71996 0.47878 0.71607 0.0
C464 C 0.71594 0.57004 0.57816 0.0
C465 C 0.6871 0.57226 0.55983 0.0
C466 C 0.71859 0.55966 0.61306 0.0
C467 C 0.69242 0.55217 0.63033 0.0
C468 C 0.6637 0.55449 0.612 0.0
C469 C 0.66108 0.56419 0.5771 0.0
C470 C 0.67421 0.54371 0.72515 0.0
C471 C 0.68892 0.51489 0.73399 0.0
C472 C 0.67677 0.55677 0.69207 0.0
C473 C 0.69439 0.54159 0.66728 0.0
C474 C 0.71106 0.51428 0.67696 0.0
C475 C 0.70824 0.50092 0.71003 0.0
H476 H 0.87441 0.17498 0.14632 0.0
H477 H 0.94401 0.14906 0.0769 0.0
H478 H 0.91078 0.16791 0.19797 0.0
H479 H 0.97967 0.14178 0.12756 0.0
H480 H 0.04583 0.14658 0.2196 0.0
H481 H 0.00887 0.16934 0.17696 0.0
H482 H 0.93606 0.11995 0.2248 0.0
H483 H 0.97306 0.0978 0.26823 0.0
C484 C 0.89754 0.16838 0.14214 0.0
C485 C 0.90635 0.16234 0.1077 0.0
C486 C 0.91825 0.16413 0.17158 0.0
C487 C 0.94812 0.15433 0.16685 0.0
C488 C 0.95706 0.14981 0.13226 0.0
C489 C 0.93647 0.15369 0.10315 0.0
C490 C 0.02191 0.14091 0.22137 0.0
C491 C 0.01242 0.11988 0.24685 0.0
C492 C 0.00073 0.15397 0.19694 0.0
C493 C 0.96958 0.14606 0.19717 0.0
C494 C 0.95987 0.12668 0.22405 0.0
C495 C 0.9811 0.11377 0.24874 0.0
H496 H 0.23537 0.81762 0.06865 0.0
H497 H 0.15279 0.78101 0.10892 0.0
H498 H 0.26537 0.78362 0.10828 0.0
H499 H 0.1833 0.74697 0.14928 0.0
H500 H 0.25718 0.72466 0.2429 0.0
H501 H 0.22424 0.75659 0.20322 0.0
H502 H 0.27203 0.7225 0.11433 0.0
H503 H 0.30469 0.69031 0.15373 0.0
C504 C 0.22356 0.80235 0.08604 0.0
C505 C 0.19161 0.80205 0.08558 0.0
C506 C 0.24082 0.78273 0.10862 0.0
C507 C 0.2267 0.76258 0.13177 0.0
C508 C 0.19477 0.76239 0.13175 0.0
C509 C 0.17734 0.78172 0.10858 0.0
C510 C 0.26066 0.72399 0.21489 0.0
C511 C 0.28368 0.70509 0.20149 0.0
C512 C 0.24163 0.74205 0.19218 0.0
C513 C 0.24557 0.74201 0.15572 0.0
C514 C 0.26858 0.72312 0.14236 0.0
C515 C 0.28726 0.70468 0.16492 0.0
H516 H 0.76702 0.64826 0.5313 0.0
H517 H 0.72038 0.73706 0.50966 0.0
H518 H 0.80815 0.67871 0.56453 0.0
H519 H 0.76244 0.76806 0.54225 0.0
H520 H 0.83638 0.81143 0.62473 0.0
H521 H 0.79114 0.78119 0.59894 0.0
H522 H 0.84878 0.71264 0.54911 0.0
H523 H 0.89359 0.74211 0.57548 0.0
C524 C 0.76558 0.67441 0.53368 0.0
C525 C 0.74069 0.69033 0.51741 0.0
C526 C 0.78928 0.69191 0.55261 0.0
C527 C 0.78901 0.72593 0.55546 0.0
C528 C 0.76337 0.74187 0.54064 0.0
C529 C 0.73932 0.72418 0.5219 0.0
C530 C 0.83932 0.78972 0.60851 0.0
C531 C 0.86863 0.77909 0.60233 0.0
C532 C 0.81339 0.77253 0.59353 0.0
C533 C 0.81624 0.74436 0.57207 0.0
C534 C 0.84562 0.73382 0.56607 0.0
C535 C 0.87141 0.75086 0.58108 0.0
H536 H 0.73401 0.1537 0.07358 0.0
H537 H 0.79834 0.22916 0.11413 0.0
H538 H 0.7004 0.16864 0.11927 0.0
H539 H 0.76447 0.24399 0.16012 0.0
H540 H 0.70952 0.23093 0.25969 0.0
H541 H 0.74402 0.21709 0.21419 0.0
H542 H 0.66902 0.21777 0.13391 0.0
H543 H 0.63451 0.23176 0.17922 0.0
C544 C 0.74102 0.17347 0.09226 0.0
C545 C 0.76884 0.19031 0.09019 0.0
C546 C 0.72166 0.1821 0.11829 0.0
C547 C 0.72984 0.20748 0.1431 0.0
C548 C 0.75775 0.22419 0.14135 0.0
C549 C 0.777 0.21583 0.11496 0.0
C550 C 0.70039 0.22805 0.23234 0.0
C551 C 0.6693 0.23233 0.22301 0.0
C552 C 0.72017 0.22037 0.20633 0.0
C553 C 0.70914 0.21641 0.17062 0.0
C554 C 0.67804 0.22049 0.16132 0.0
C555 C 0.65834 0.22857 0.18723 0.0
H556 H 0.27256 0.34804 0.6575 0.0
H557 H 0.36177 0.30745 0.67477 0.0
H558 H 0.25858 0.32651 0.71347 0.0
H559 H 0.34752 0.28483 0.72907 0.0
H560 H 0.32583 0.26904 0.83993 0.0
H561 H 0.33808 0.29692 0.78736 0.0
H562 H 0.24657 0.27755 0.7406 0.0
H563 H 0.23395 0.25114 0.79434 0.0
C564 C 0.28915 0.33457 0.67319 0.0
C565 C 0.31829 0.32961 0.66166 0.0
C566 C 0.28109 0.322 0.70514 0.0
C567 C 0.30191 0.30392 0.726 0.0
C568 C 0.33104 0.29921 0.71435 0.0
C569 C 0.33918 0.31208 0.68288 0.0
C570 C 0.30832 0.27077 0.81843 0.0
C571 C 0.27902 0.25765 0.82111 0.0
C572 C 0.31536 0.28666 0.78814 0.0
C573 C 0.29345 0.28924 0.75936 0.0
C574 C 0.26395 0.27643 0.7623 0.0
C575 C 0.25676 0.26102 0.79297 0.0
H576 H 0.75511 0.60856 0.38074 0.0
H577 H 0.69735 0.68906 0.35592 0.0
H578 H 0.78179 0.6172 0.32817 0.0
H579 H 0.72306 0.69679 0.3019 0.0
H580 H 0.7938 0.72083 0.22435 0.0
H581 H 0.76814 0.71435 0.27853 0.0
H582 H 0.77666 0.61037 0.26698 0.0
H583 H 0.80365 0.61716 0.21415 0.0
C584 C 0.74786 0.62792 0.36375 0.0
C585 C 0.72404 0.64807 0.37241 0.0
C586 C 0.76307 0.63278 0.33337 0.0
C587 C 0.75449 0.65752 0.31039 0.0
C588 C 0.73064 0.67777 0.31914 0.0
C589 C 0.71574 0.67325 0.34999 0.0
C590 C 0.79028 0.69663 0.2336 0.0
C591 C 0.80092 0.66952 0.21517 0.0
C592 C 0.77534 0.69286 0.26452 0.0
C593 C 0.7703 0.66182 0.27739 0.0
C594 C 0.7807 0.63473 0.25852 0.0
C595 C 0.79606 0.63857 0.22802 0.0
H596 H 0.81941 0.26858 0.9749 0.0
H597 H 0.75509 0.19705 0.92563 0.0
H598 H 0.7967 0.30979 0.93844 0.0
H599 H 0.73313 0.23817 0.88727 0.0
H600 H 0.67881 0.32912 0.85786 0.0
H601 H 0.70263 0.28367 0.88727 0.0
H602 H 0.79089 0.33051 0.88277 0.0
H603 H 0.76664 0.37674 0.85554 0.0
C604 C 0.80068 0.26153 0.95574 0.0
C605 C 0.78901 0.22954 0.95321 0.0
C606 C 0.78775 0.2852 0.93448 0.0
C607 C 0.76312 0.27747 0.90949 0.0
C608 C 0.75177 0.24523 0.9065 0.0
C609 C 0.76442 0.22158 0.92835 0.0
C610 C 0.70334 0.32944 0.86285 0.0
C611 C 0.72087 0.35658 0.85484 0.0
C612 C 0.71708 0.30328 0.87958 0.0
C613 C 0.74875 0.30344 0.88803 0.0
C614 C 0.76637 0.32985 0.87782 0.0
C615 C 0.75255 0.35628 0.86187 0.0
H616 H 0.33338 0.24987 0.52793 0.0
H617 H 0.25132 0.30387 0.50913 0.0
H618 H 0.30865 0.20242 0.49758 0.0
H619 H 0.22583 0.25576 0.48016 0.0
H620 H 0.19523 0.17136 0.40418 0.0
H621 H 0.22178 0.22014 0.42995 0.0
H622 H 0.27271 0.16181 0.50508 0.0
H623 H 0.24728 0.11321 0.47816 0.0
C624 C 0.30987 0.25147 0.51763 0.0
C625 C 0.29422 0.28055 0.52119 0.0
C626 C 0.29558 0.22414 0.50033 0.0
C627 C 0.26503 0.22494 0.48662 0.0
C628 C 0.24946 0.25423 0.4899 0.0
C629 C 0.26398 0.2818 0.50675 0.0
C630 C 0.21231 0.16902 0.426 0.0
C631 C 0.21924 0.13841 0.43903 0.0
C632 C 0.22738 0.19703 0.44102 0.0
C633 C 0.24946 0.19512 0.46975 0.0
C634 C 0.25636 0.16436 0.48258 0.0
C635 C 0.24163 0.13639 0.46725 0.0
H636 H 0.22016 0.87465 0.93273 0.0
H637 H 0.16965 0.78395 0.93544 0.0
H638 H 0.24008 0.85598 0.87687 0.0
H639 H 0.1894 0.76572 0.88035 0.0
H640 H 0.19875 0.76079 0.76188 0.0
H641 H 0.18166 0.78254 0.81743 0.0
H642 H 0.27407 0.81105 0.85306 0.0
H643 H 0.29137 0.78925 0.79721 0.0
C644 C 0.21349 0.85076 0.92164 0.0
C645 C 0.19331 0.83084 0.9386 0.0
C646 C 0.22493 0.84007 0.88977 0.0
C647 C 0.21603 0.80953 0.87416 0.0
C648 C 0.1963 0.78955 0.89147 0.0
C649 C 0.18516 0.8 0.92325 0.0
C650 C 0.21547 0.77174 0.78146 0.0
C651 C 0.24645 0.77306 0.77523 0.0
C652 C 0.20567 0.78412 0.81332 0.0
C653 C 0.22657 0.79832 0.83962 0.0
C654 C 0.25747 0.80039 0.83315 0.0
C655 C 0.26735 0.7877 0.80131 0.0
loop_
_geom_bond_atom_site_label_1
_geom_bond_atom_site_label_2
_geom_bond_distance
_geom_bond_site_symmetry_2
_ccdc_geom_bond_type
Fe0 O2 1.918 1_554 S
Fe0 O5 1.997 . S
Fe0 O6 2.002 . S
Fe0 O11 1.976 1_554 S
Fe0 O14 1.996 1_554 S
Fe1 O2 1.918 1_554 S
Fe1 O9 1.997 . S
Fe1 O12 1.996 1_554 S
Fe1 O16 1.976 1_554 S
Fe1 O19 2.002 . S
O2 Fe0 1.918 1_556 S
O2 Fe1 1.918 1_556 S
O2 Fe3 1.918 . S
Fe3 O2 1.918 . S
Fe3 O4 2.002 1_556 S
Fe3 O13 1.976 . S
Fe3 O17 1.996 . S
Fe3 O20 1.997 1_556 S
O4 Fe3 2.002 1_554 S
O4 C21 1.295 . S
O5 Fe0 1.997 . S
O5 C21 1.235 . S
O6 Fe0 2.002 . S
O6 C7 1.295 . S
C7 O6 1.295 . S
C7 O9 1.235 . S
C8 O13 1.287 . S
C8 O14 1.255 . S
O9 Fe1 1.997 . S
O9 C7 1.235 . S
C10 O16 1.287 . S
C10 O17 1.255 . S
O11 Fe0 1.976 1_556 S
O11 C18 1.287 . S
O12 Fe1 1.996 1_556 S
O12 C18 1.255 . S
O13 Fe3 1.976 . S
O13 C8 1.287 . S
O14 Fe0 1.996 1_556 S
O14 C8 1.255 . S
C15 O19 1.295 . S
C15 O20 1.235 . S
O16 Fe1 1.976 1_556 S
O16 C10 1.287 . S
O17 Fe3 1.996 . S
O17 C10 1.255 . S
C18 O11 1.287 . S
C18 O12 1.255 . S
O19 Fe1 2.002 . S
O19 C15 1.295 . S
O20 Fe3 1.997 1_554 S
O20 C15 1.235 . S
C21 O4 1.295 . S
C21 O5 1.235 . S
Fe22 O24 1.918 . S
Fe22 O27 1.997 . S
Fe22 O28 2.002 . S
Fe22 O33 1.976 . S
Fe22 O36 1.996 . S
Fe23 O24 1.918 . S
Fe23 O31 1.997 . S
Fe23 O34 1.996 . S
Fe23 O38 1.976 . S
Fe23 O41 2.002 . S
O24 Fe22 1.918 . S
O24 Fe23 1.918 . S
O24 Fe25 1.918 . S
Fe25 O24 1.918 . S
Fe25 O26 2.002 . S
Fe25 O35 1.976 . S
Fe25 O39 1.996 . S
Fe25 O42 1.997 . S
O26 Fe25 2.002 . S
O26 C43 1.295 . S
O27 Fe22 1.997 . S
O27 C43 1.235 . S
O28 Fe22 2.002 . S
O28 C29 1.295 . S
C29 O28 1.295 . S
C29 O31 1.235 . S
C30 O35 1.287 . S
C30 O36 1.255 . S
O31 Fe23 1.997 . S
O31 C29 1.235 . S
C32 O38 1.287 . S
C32 O39 1.255 . S
O33 Fe22 1.976 . S
O33 C40 1.287 . S
O34 Fe23 1.996 . S
O34 C40 1.255 . S
O35 Fe25 1.976 . S
O35 C30 1.287 . S
O36 Fe22 1.996 . S
O36 C30 1.255 . S
C37 O41 1.295 . S
C37 O42 1.235 . S
O38 Fe23 1.976 . S
O38 C32 1.287 . S
O39 Fe25 1.996 . S
O39 C32 1.255 . S
C40 O33 1.287 . S
C40 O34 1.255 . S
O41 Fe23 2.002 . S
O41 C37 1.295 . S
O42 Fe25 1.997 . S
O42 C37 1.235 . S
C43 O26 1.295 . S
C43 O27 1.235 . S
Fe44 O46 1.918 . S
Fe44 O49 1.997 . S
Fe44 O50 2.002 . S
Fe44 O55 1.976 . S
Fe44 O58 1.996 . S
Fe45 O46 1.918 . S
Fe45 O53 1.997 . S
Fe45 O56 1.996 . S
Fe45 O60 1.976 . S
Fe45 O63 2.002 1_554 S
O46 Fe44 1.918 . S
O46 Fe45 1.918 . S
O46 Fe47 1.918 . S
Fe47 O46 1.918 . S
Fe47 O48 2.002 1_554 S
Fe47 O57 1.976 . S
Fe47 O61 1.996 . S
Fe47 O64 1.997 1_554 S
O48 Fe47 2.002 1_556 S
O48 C65 1.295 . S
O49 Fe44 1.997 . S
O49 C65 1.235 1_554 S
O50 Fe44 2.002 . S
O50 C51 1.294 . S
C51 O50 1.294 . S
C51 O53 1.235 . S
C52 O57 1.287 . S
C52 O58 1.255 . S
O53 Fe45 1.997 . S
O53 C51 1.235 . S
C54 O60 1.287 . S
C54 O61 1.255 . S
O55 Fe44 1.976 . S
O55 C62 1.287 . S
O56 Fe45 1.996 . S
O56 C62 1.255 . S
O57 Fe47 1.976 . S
O57 C52 1.287 . S
O58 Fe44 1.996 . S
O58 C52 1.255 . S
C59 O63 1.295 . S
C59 O64 1.235 . S
O60 Fe45 1.976 . S
O60 C54 1.287 . S
O61 Fe47 1.996 . S
O61 C54 1.255 . S
C62 O55 1.287 . S
C62 O56 1.255 . S
O63 Fe45 2.002 1_556 S
O63 C59 1.295 . S
O64 Fe47 1.997 1_556 S
O64 C59 1.235 . S
C65 O48 1.295 . S
C65 O49 1.235 1_556 S
Fe66 O68 1.918 . S
Fe66 O71 1.997 . S
Fe66 O72 2.002 . S
Fe66 O77 1.976 . S
Fe66 O80 1.996 . S
Fe67 O68 1.918 . S
Fe67 O75 1.997 . S
Fe67 O78 1.996 . S
Fe67 O82 1.976 . S
Fe67 O85 2.002 . S
O68 Fe66 1.918 . S
O68 Fe67 1.918 . S
O68 Fe69 1.918 . S
Fe69 O68 1.918 . S
Fe69 O70 2.002 . S
Fe69 O79 1.976 . S
Fe69 O83 1.996 . S
Fe69 O86 1.997 . S
O70 Fe69 2.002 . S
O70 C87 1.295 . S
O71 Fe66 1.997 . S
O71 C87 1.235 . S
O72 Fe66 2.002 . S
O72 C73 1.295 . S
C73 O72 1.295 . S
C73 O75 1.235 . S
C74 O79 1.287 . S
C74 O80 1.255 . S
O75 Fe67 1.997 . S
O75 C73 1.235 . S
C76 O82 1.287 . S
C76 O83 1.255 . S
O77 Fe66 1.976 . S
O77 C84 1.287 . S
O78 Fe67 1.996 . S
O78 C84 1.255 . S
O79 Fe69 1.976 . S
O79 C74 1.287 . S
O80 Fe66 1.996 . S
O80 C74 1.255 . S
C81 O85 1.295 . S
C81 O86 1.235 . S
O82 Fe67 1.976 . S
O82 C76 1.287 . S
O83 Fe69 1.996 . S
O83 C76 1.255 . S
C84 O77 1.287 . S
C84 O78 1.255 . S
O85 Fe67 2.002 . S
O85 C81 1.295 . S
O86 Fe69 1.997 . S
O86 C81 1.235 . S
C87 O70 1.295 . S
C87 O71 1.235 . S
O88 Cd89 2.300 . S
O88 C95 1.275 . S
Cd89 O88 2.300 . S
Cd89 O97 2.381 . S
Cd89 O98 2.378 . S
O90 Cd91 2.385 . S
O90 C95 1.255 . S
Cd91 O90 2.385 . S
Cd91 O92 2.317 . S
O92 Cd91 2.317 . S
O92 C93 1.232 . S
C93 O92 1.232 . S
C93 O94 1.218 . S
O94 C93 1.218 . S
C95 O88 1.275 . S
C95 O90 1.255 . S
C96 O97 1.258 . S
C96 O98 1.256 . S
O97 Cd89 2.381 . S
O97 C96 1.258 . S
O98 Cd89 2.378 . S
O98 C96 1.256 . S
O99 Cd100 2.300 . S
O99 C106 1.275 . S
Cd100 O99 2.300 . S
Cd100 O108 2.381 . S
Cd100 O109 2.378 . S
O101 Cd102 2.385 . S
O101 C106 1.255 . S
Cd102 O101 2.385 . S
Cd102 O103 2.317 . S
O103 Cd102 2.317 . S
O103 C104 1.232 . S
C104 O103 1.232 . S
C104 O105 1.218 . S
O105 C104 1.218 . S
C106 O99 1.275 . S
C106 O101 1.255 . S
C107 O108 1.258 . S
C107 O109 1.256 . S
O108 Cd100 2.381 . S
O108 C107 1.258 . S
O109 Cd100 2.378 . S
O109 C107 1.256 . S
O110 Cd111 2.300 . S
O110 C117 1.275 . S
Cd111 O110 2.300 . S
Cd111 O119 2.381 . S
Cd111 O120 2.378 . S
O112 Cd113 2.385 . S
O112 C117 1.255 . S
Cd113 O112 2.385 . S
Cd113 O114 2.317 . S
O114 Cd113 2.317 . S
O114 C115 1.232 . S
C115 O114 1.232 . S
C115 O116 1.218 . S
O116 C115 1.218 . S
C117 O110 1.275 . S
C117 O112 1.255 . S
C118 O119 1.258 . S
C118 O120 1.256 . S
O119 Cd111 2.381 . S
O119 C118 1.258 . S
O120 Cd111 2.378 . S
O120 C118 1.256 . S
O121 Cd122 2.300 . S
O121 C128 1.275 . S
Cd122 O121 2.300 . S
Cd122 O130 2.381 . S
Cd122 O131 2.378 . S
O123 Cd124 2.385 . S
O123 C128 1.255 . S
Cd124 O123 2.385 . S
Cd124 O125 2.317 . S
O125 Cd124 2.317 . S
O125 C126 1.232 . S
C126 O125 1.232 . S
C126 O127 1.218 . S
O127 C126 1.218 . S
C128 O121 1.275 . S
C128 O123 1.255 . S
C129 O130 1.258 . S
C129 O131 1.256 . S
O130 Cd122 2.381 . S
O130 C129 1.258 . S
O131 Cd122 2.378 . S
O131 C129 1.256 . S
O132 Cd133 2.300 . S
O132 C139 1.275 . S
Cd133 O132 2.300 . S
Cd133 O141 2.381 . S
Cd133 O142 2.378 . S
O134 Cd135 2.385 . S
O134 C139 1.255 . S
Cd135 O134 2.385 . S
Cd135 O136 2.317 . S
O136 Cd135 2.317 . S
O136 C137 1.232 . S
C137 O136 1.232 . S
C137 O138 1.218 . S
O138 C137 1.218 . S
C139 O132 1.275 . S
C139 O134 1.255 . S
C140 O141 1.258 . S
C140 O142 1.256 . S
O141 Cd133 2.381 . S
O141 C140 1.258 . S
O142 Cd133 2.378 . S
O142 C140 1.256 . S
O143 Cd144 2.300 . S
O143 C150 1.275 . S
Cd144 O143 2.300 . S
Cd144 O152 2.381 . S
Cd144 O153 2.378 . S
O145 Cd146 2.385 . S
O145 C150 1.255 . S
Cd146 O145 2.385 . S
Cd146 O147 2.317 . S
O147 Cd146 2.317 . S
O147 C148 1.232 . S
C148 O147 1.232 . S
C148 O149 1.218 . S
O149 C148 1.218 . S
C150 O143 1.275 . S
C150 O145 1.255 . S
C151 O152 1.258 . S
C151 O153 1.256 . S
O152 Cd144 2.381 . S
O152 C151 1.258 . S
O153 Cd144 2.378 . S
O153 C151 1.256 . S
O154 Cd155 2.300 . S
O154 C161 1.275 . S
Cd155 O154 2.300 . S
Cd155 O163 2.381 . S
Cd155 O164 2.378 . S
O156 Cd157 2.385 . S
O156 C161 1.255 . S
Cd157 O156 2.385 . S
Cd157 O158 2.317 . S
O158 Cd157 2.317 . S
O158 C159 1.232 . S
C159 O158 1.232 . S
C159 O160 1.218 . S
O160 C159 1.218 . S
C161 O154 1.275 . S
C161 O156 1.255 . S
C162 O163 1.258 . S
C162 O164 1.256 . S
O163 Cd155 2.381 . S
O163 C162 1.258 . S
O164 Cd155 2.378 . S
O164 C162 1.256 . S
O165 Cd166 2.300 . S
O165 C172 1.275 . S
Cd166 O165 2.300 . S
Cd166 O174 2.381 . S
Cd166 O175 2.378 . S
O167 Cd168 2.385 . S
O167 C172 1.255 . S
Cd168 O167 2.385 . S
Cd168 O169 2.317 . S
O169 Cd168 2.317 . S
O169 C170 1.232 . S
C170 O169 1.232 . S
C170 O171 1.218 . S
O171 C170 1.218 . S
C172 O165 1.275 . S
C172 O167 1.255 . S
C173 O174 1.258 . S
C173 O175 1.256 . S
O174 Cd166 2.381 . S
O174 C173 1.258 . S
O175 Cd166 2.378 . S
O175 C173 1.256 . S
H176 C184 0.950 . S
H177 C189 0.950 . S
H178 C186 0.950 . S
H179 C188 0.950 1_545 S
H180 C190 0.950 . S
H181 C192 0.950 . S
H182 C194 0.950 . S
H183 C195 0.950 1_565 S
C184 H176 0.950 . S
C184 C185 1.386 . S
C184 C186 1.391 . S
C185 C184 1.386 . S
C185 C189 1.393 . S
C186 H178 0.950 . S
C186 C184 1.391 . S
C186 C187 1.400 . S
C187 C186 1.400 . S
C187 C188 1.398 . S
C187 C193 1.491 . S
C188 H179 0.950 1_565 S
C188 C187 1.398 . S
C188 C189 1.391 . S
C189 H177 0.950 . S
C189 C185 1.393 . S
C189 C188 1.391 . S
C190 H180 0.950 . S
C190 C191 1.386 . S
C190 C192 1.391 . S
C191 C190 1.386 . S
C191 C195 1.393 . S
C192 H181 0.950 . S
C192 C190 1.391 . S
C192 C193 1.400 1_545 S
C193 C187 1.491 . S
C193 C192 1.400 1_565 S
C193 C194 1.398 . S
C194 H182 0.950 . S
C194 C193 1.398 . S
C194 C195 1.391 1_565 S
C195 H183 0.950 1_545 S
C195 C191 1.393 . S
C195 C194 1.391 1_545 S
H196 C204 0.950 . S
H197 C209 0.950 . S
H198 C206 0.950 . S
H199 C208 0.950 . S
H200 C210 0.950 . S
H201 C212 0.950 . S
H202 C214 0.950 . S
H203 C215 0.950 . S
C204 H196 0.950 . S
C204 C205 1.386 . S
C204 C206 1.391 . S
C205 C204 1.386 . S
C205 C209 1.393 . S
C206 H198 0.950 . S
C206 C204 1.391 . S
C206 C207 1.400 . S
C207 C206 1.400 . S
C207 C208 1.398 . S
C207 C213 1.491 . S
C208 H199 0.950 . S
C208 C207 1.398 . S
C208 C209 1.391 . S
C209 H197 0.950 . S
C209 C205 1.393 . S
C209 C208 1.391 . S
C210 H200 0.950 . S
C210 C211 1.386 . S
C210 C212 1.391 . S
C211 C210 1.386 . S
C211 C215 1.393 . S
C212 H201 0.950 . S
C212 C210 1.391 . S
C212 C213 1.400 . S
C213 C207 1.491 . S
C213 C212 1.400 . S
C213 C214 1.398 . S
C214 H202 0.950 . S
C214 C213 1.398 . S
C214 C215 1.391 . S
C215 H203 0.950 . S
C215 C211 1.393 . S
C215 C214 1.391 . S
H216 C224 0.950 . S
H217 C229 0.950 . S
H218 C226 0.950 . S
H219 C228 0.950 . S
H220 C230 0.950 . S
H221 C232 0.950 . S
H222 C234 0.950 . S
H223 C235 0.950 . S
C224 H216 0.950 . S
C224 C225 1.386 . S
C224 C226 1.391 1_545 S
C225 C224 1.386 . S
C225 C229 1.393 . S
C226 H218 0.950 . S
C226 C224 1.391 1_565 S
C226 C227 1.400 . S
C227 C226 1.400 . S
C227 C228 1.398 . S
C227 C233 1.491 . S
C228 H219 0.950 . S
C228 C227 1.398 . S
C228 C229 1.391 1_565 S
C229 H217 0.950 . S
C229 C225 1.393 . S
C229 C228 1.391 1_545 S
C230 H220 0.950 . S
C230 C231 1.386 . S
C230 C232 1.391 . S
C231 C230 1.386 . S
C231 C235 1.393 . S
C232 H221 0.950 . S
C232 C230 1.391 . S
C232 C233 1.400 . S
C233 C227 1.491 . S
C233 C232 1.400 . S
C233 C234 1.398 . S
C234 H222 0.950 . S
C234 C233 1.398 . S
C234 C235 1.391 . S
C235 H223 0.950 . S
C235 C231 1.393 . S
C235 C234 1.391 . S
H236 C244 0.950 . S
H237 C249 0.950 . S
H238 C246 0.950 . S
H239 C248 0.950 . S
H240 C250 0.950 . S
H241 C252 0.950 . S
H242 C254 0.950 . S
H243 C255 0.950 . S
C244 H236 0.950 . S
C244 C245 1.386 . S
C244 C246 1.391 . S
C245 C244 1.386 . S
C245 C249 1.393 . S
C246 H238 0.950 . S
C246 C244 1.391 . S
C246 C247 1.400 . S
C247 C246 1.400 . S
C247 C248 1.398 . S
C247 C253 1.491 . S
C248 H239 0.950 . S
C248 C247 1.398 . S
C248 C249 1.391 . S
C249 H237 0.950 . S
C249 C245 1.393 . S
C249 C248 1.391 . S
C250 H240 0.950 . S
C250 C251 1.386 . S
C250 C252 1.391 . S
C251 C250 1.386 . S
C251 C255 1.393 . S
C252 H241 0.950 . S
C252 C250 1.391 . S
C252 C253 1.400 . S
C253 C247 1.491 . S
C253 C252 1.400 . S
C253 C254 1.398 . S
C254 H242 0.950 . S
C254 C253 1.398 . S
C254 C255 1.391 . S
C255 H243 0.950 . S
C255 C251 1.393 . S
C255 C254 1.391 . S
H256 C264 0.950 . S
H257 C269 0.950 . S
H258 C266 0.950 . S
H259 C268 0.950 . S
H260 C270 0.950 . S
H261 C272 0.950 . S
H262 C274 0.950 . S
H263 C275 0.950 . S
C264 H256 0.950 . S
C264 C265 1.386 . S
C264 C266 1.391 . S
C265 C264 1.386 . S
C265 C269 1.393 . S
C266 H258 0.950 . S
C266 C264 1.391 . S
C266 C267 1.400 . S
C267 C266 1.400 . S
C267 C268 1.398 . S
C267 C273 1.491 . S
C268 H259 0.950 . S
C268 C267 1.398 . S
C268 C269 1.391 . S
C269 H257 0.950 . S
C269 C265 1.393 . S
C269 C268 1.391 . S
C270 H260 0.950 . S
C270 C271 1.386 . S
C270 C272 1.391 . S
C271 C270 1.386 . S
C271 C275 1.393 . S
C272 H261 0.950 . S
C272 C270 1.391 . S
C272 C273 1.400 . S
C273 C267 1.491 . S
C273 C272 1.400 . S
C273 C274 1.398 . S
C274 H262 0.950 . S
C274 C273 1.398 . S
C274 C275 1.391 . S
C275 H263 0.950 . S
C275 C271 1.393 . S
C275 C274 1.391 . S
H276 C284 0.950 . S
H277 C289 0.950 1_554 S
H278 C286 0.950 . S
H279 C288 0.950 1_455 S
H280 C290 0.950 . S
H281 C292 0.950 . S
H282 C294 0.950 . S
H283 C295 0.950 . S
C284 H276 0.950 . S
C284 C285 1.386 . S
C284 C286 1.391 . S
C285 C284 1.386 . S
C285 C289 1.393 . S
C286 H278 0.950 . S
C286 C284 1.391 . S
C286 C287 1.400 1_655 S
C287 C286 1.400 1_455 S
C287 C288 1.398 1_455 S
C287 C293 1.491 . S
C288 H279 0.950 1_655 S
C288 C287 1.398 1_655 S
C288 C289 1.391 . S
C289 H277 0.950 1_556 S
C289 C285 1.393 . S
C289 C288 1.391 . S
C290 H280 0.950 . S
C290 C291 1.386 . S
C290 C292 1.391 . S
C291 C290 1.386 . S
C291 C295 1.393 . S
C292 H281 0.950 . S
C292 C290 1.391 . S
C292 C293 1.400 . S
C293 C287 1.491 . S
C293 C292 1.400 . S
C293 C294 1.398 . S
C294 H282 0.950 . S
C294 C293 1.398 . S
C294 C295 1.391 . S
C295 H283 0.950 . S
C295 C291 1.393 . S
C295 C294 1.391 . S
H296 C304 0.950 . S
H297 C309 0.950 . S
H298 C306 0.950 . S
H299 C308 0.950 . S
H300 C310 0.950 . S
H301 C312 0.950 . S
H302 C314 0.950 . S
H303 C315 0.950 . S
C304 H296 0.950 . S
C304 C305 1.386 . S
C304 C306 1.391 . S
C305 C304 1.386 . S
C305 C309 1.393 . S
C306 H298 0.950 . S
C306 C304 1.391 . S
C306 C307 1.400 . S
C307 C306 1.400 . S
C307 C308 1.398 . S
C307 C313 1.491 . S
C308 H299 0.950 . S
C308 C307 1.398 . S
C308 C309 1.391 . S
C309 H297 0.950 . S
C309 C305 1.393 . S
C309 C308 1.391 . S
C310 H300 0.950 . S
C310 C311 1.386 . S
C310 C312 1.391 . S
C311 C310 1.386 . S
C311 C315 1.393 . S
C312 H301 0.950 . S
C312 C310 1.391 . S
C312 C313 1.400 . S
C313 C307 1.491 . S
C313 C312 1.400 . S
C313 C314 1.398 . S
C314 H302 0.950 . S
C314 C313 1.398 . S
C314 C315 1.391 . S
C315 H303 0.950 . S
C315 C311 1.393 . S
C315 C314 1.391 . S
H316 C324 0.950 . S
H317 C329 0.950 . S
H318 C326 0.950 . S
H319 C328 0.949 . S
H320 C330 0.950 . S
H321 C332 0.950 . S
H322 C334 0.950 1_455 S
H323 C335 0.950 . S
C324 H316 0.950 . S
C324 C325 1.386 . S
C324 C326 1.391 . S
C325 C324 1.386 . S
C325 C329 1.393 . S
C326 H318 0.950 . S
C326 C324 1.391 . S
C326 C327 1.400 . S
C327 C326 1.400 . S
C327 C328 1.398 . S
C327 C333 1.491 1_455 S
C328 H319 0.949 . S
C328 C327 1.398 . S
C328 C329 1.391 . S
C329 H317 0.950 . S
C329 C325 1.393 . S
C329 C328 1.391 . S
C330 H320 0.950 . S
C330 C331 1.386 . S
C330 C332 1.391 . S
C331 C330 1.386 . S
C331 C335 1.393 . S
C332 H321 0.950 . S
C332 C330 1.391 . S
C332 C333 1.400 . S
C333 C327 1.491 1_655 S
C333 C332 1.400 . S
C333 C334 1.398 . S
C334 H322 0.950 1_655 S
C334 C333 1.398 . S
C334 C335 1.391 . S
C335 H323 0.950 . S
C335 C331 1.393 . S
C335 C334 1.391 . S
H336 C344 0.950 . S
H337 C349 0.950 . S
H338 C346 0.950 . S
H339 C348 0.950 . S
H340 C350 0.950 . S
H341 C352 0.950 . S
H342 C354 0.950 . S
H343 C355 0.950 . S
C344 H336 0.950 . S
C344 C345 1.386 . S
C344 C346 1.391 . S
C345 C344 1.386 . S
C345 C349 1.393 . S
C346 H338 0.950 . S
C346 C344 1.391 . S
C346 C347 1.400 . S
C347 C346 1.400 . S
C347 C348 1.398 . S
C347 C353 1.491 . S
C348 H339 0.950 . S
C348 C347 1.398 . S
C348 C349 1.391 . S
C349 H337 0.950 . S
C349 C345 1.393 . S
C349 C348 1.391 . S
C350 H340 0.950 . S
C350 C351 1.386 1_545 S
C350 C352 1.391 . S
C351 C350 1.386 1_565 S
C351 C355 1.393 . S
C352 H341 0.950 . S
C352 C350 1.391 . S
C352 C353 1.400 . S
C353 C347 1.491 . S
C353 C352 1.400 . S
C353 C354 1.398 1_545 S
C354 H342 0.950 . S
C354 C353 1.398 1_565 S
C354 C355 1.391 . S
C355 H343 0.950 . S
C355 C351 1.393 . S
C355 C354 1.391 . S
H356 C364 0.950 . S
H357 C369 0.950 . S
H358 C366 0.950 . S
H359 C368 0.950 . S
H360 C370 0.950 . S
H361 C372 0.950 . S
H362 C374 0.950 . S
H363 C375 0.950 . S
C364 H356 0.950 . S
C364 C365 1.386 . S
C364 C366 1.391 . S
C365 C364 1.386 . S
C365 C369 1.393 . S
C366 H358 0.950 . S
C366 C364 1.391 . S
C366 C367 1.400 . S
C367 C366 1.400 . S
C367 C368 1.398 . S
C367 C373 1.491 . S
C368 H359 0.950 . S
C368 C367 1.398 . S
C368 C369 1.391 . S
C369 H357 0.950 . S
C369 C365 1.393 . S
C369 C368 1.391 . S
C370 H360 0.950 . S
C370 C371 1.386 . S
C370 C372 1.391 . S
C371 C370 1.386 . S
C371 C375 1.393 . S
C372 H361 0.950 . S
C372 C370 1.391 . S
C372 C373 1.400 . S
C373 C367 1.491 . S
C373 C372 1.400 . S
C373 C374 1.398 . S
C374 H362 0.950 . S
C374 C373 1.398 . S
C374 C375 1.391 . S
C375 H363 0.950 . S
C375 C371 1.393 . S
C375 C374 1.391 . S
H376 C384 0.950 1_554 S
H377 C389 0.950 . S
H378 C386 0.950 . S
H379 C388 0.950 . S
H380 C390 0.950 . S
H381 C392 0.950 . S
H382 C394 0.950 . S
H383 C395 0.950 . S
C384 H376 0.950 1_556 S
C384 C385 1.386 . S
C384 C386 1.391 1_565 S
C385 C384 1.386 . S
C385 C389 1.393 . S
C386 H378 0.950 . S
C386 C384 1.391 1_545 S
C386 C387 1.400 . S
C387 C386 1.400 . S
C387 C388 1.398 . S
C387 C393 1.491 . S
C388 H379 0.950 . S
C388 C387 1.398 . S
C388 C389 1.391 1_545 S
C389 H377 0.950 . S
C389 C385 1.393 . S
C389 C388 1.391 1_565 S
C390 H380 0.950 . S
C390 C391 1.386 . S
C390 C392 1.391 . S
C391 C390 1.386 . S
C391 C395 1.393 . S
C392 H381 0.950 . S
C392 C390 1.391 . S
C392 C393 1.400 . S
C393 C387 1.491 . S
C393 C392 1.400 . S
C393 C394 1.398 . S
C394 H382 0.950 . S
C394 C393 1.398 . S
C394 C395 1.391 . S
C395 H383 0.950 . S
C395 C391 1.393 . S
C395 C394 1.391 . S
H396 C404 0.950 . S
H397 C409 0.950 . S
H398 C406 0.950 . S
H399 C408 0.950 . S
H400 C410 0.950 . S
H401 C412 0.950 . S
H402 C414 0.950 . S
H403 C415 0.950 . S
C404 H396 0.950 . S
C404 C405 1.386 . S
C404 C406 1.391 . S
C405 C404 1.386 . S
C405 C409 1.393 . S
C406 H398 0.950 . S
C406 C404 1.391 . S
C406 C407 1.400 . S
C407 C406 1.400 . S
C407 C408 1.398 . S
C407 C413 1.491 . S
C408 H399 0.950 . S
C408 C407 1.398 . S
C408 C409 1.391 . S
C409 H397 0.950 . S
C409 C405 1.393 . S
C409 C408 1.391 . S
C410 H400 0.950 . S
C410 C411 1.386 . S
C410 C412 1.391 . S
C411 C410 1.386 . S
C411 C415 1.393 . S
C412 H401 0.950 . S
C412 C410 1.391 . S
C412 C413 1.400 . S
C413 C407 1.491 . S
C413 C412 1.400 . S
C413 C414 1.398 . S
C414 H402 0.950 . S
C414 C413 1.398 . S
C414 C415 1.391 . S
C415 H403 0.950 . S
C415 C411 1.393 . S
C415 C414 1.391 . S
H416 C424 0.950 . S
H417 C429 0.950 . S
H418 C426 0.950 . S
H419 C428 0.950 . S
H420 C430 0.950 . S
H421 C432 0.950 . S
H422 C434 0.950 . S
H423 C435 0.950 . S
C424 H416 0.950 . S
C424 C425 1.386 . S
C424 C426 1.391 . S
C425 C424 1.386 . S
C425 C429 1.393 . S
C426 H418 0.950 . S
C426 C424 1.391 . S
C426 C427 1.400 . S
C427 C426 1.400 . S
C427 C428 1.398 . S
C427 C433 1.491 . S
C428 H419 0.950 . S
C428 C427 1.398 . S
C428 C429 1.391 . S
C429 H417 0.950 . S
C429 C425 1.393 . S
C429 C428 1.391 . S
C430 H420 0.950 . S
C430 C431 1.386 . S
C430 C432 1.391 . S
C431 C430 1.386 . S
C431 C435 1.393 . S
C432 H421 0.950 . S
C432 C430 1.391 . S
C432 C433 1.400 . S
C433 C427 1.491 . S
C433 C432 1.400 . S
C433 C434 1.398 . S
C434 H422 0.950 . S
C434 C433 1.398 . S
C434 C435 1.391 . S
C435 H423 0.950 . S
C435 C431 1.393 . S
C435 C434 1.391 . S
H436 C444 0.950 . S
H437 C449 0.950 . S
H438 C446 0.950 . S
H439 C448 0.950 . S
H440 C450 0.950 . S
H441 C452 0.950 . S
H442 C454 0.950 . S
H443 C455 0.950 . S
C444 H436 0.950 . S
C444 C445 1.386 . S
C444 C446 1.391 . S
C445 C444 1.386 . S
C445 C449 1.393 . S
C446 H438 0.950 . S
C446 C444 1.391 . S
C446 C447 1.400 1_455 S
C447 C446 1.400 1_655 S
C447 C448 1.398 . S
C447 C453 1.491 . S
C448 H439 0.950 . S
C448 C447 1.398 . S
C448 C449 1.391 1_655 S
C449 H437 0.950 . S
C449 C445 1.393 . S
C449 C448 1.391 1_455 S
C450 H440 0.950 . S
C450 C451 1.386 . S
C450 C452 1.391 . S
C451 C450 1.386 . S
C451 C455 1.393 . S
C452 H441 0.950 . S
C452 C450 1.391 . S
C452 C453 1.400 . S
C453 C447 1.491 . S
C453 C452 1.400 . S
C453 C454 1.398 . S
C454 H442 0.950 . S
C454 C453 1.398 . S
C454 C455 1.391 . S
C455 H443 0.950 . S
C455 C451 1.393 . S
C455 C454 1.391 . S
H456 C464 0.950 . S
H457 C469 0.950 . S
H458 C466 0.950 . S
H459 C468 0.950 . S
H460 C470 0.950 . S
H461 C472 0.950 . S
H462 C474 0.950 . S
H463 C475 0.950 . S
C464 H456 0.950 . S
C464 C465 1.386 . S
C464 C466 1.391 . S
C465 C464 1.386 . S
C465 C469 1.393 . S
C466 H458 0.950 . S
C466 C464 1.391 . S
C466 C467 1.400 . S
C467 C466 1.400 . S
C467 C468 1.398 . S
C467 C473 1.491 . S
C468 H459 0.950 . S
C468 C467 1.398 . S
C468 C469 1.391 . S
C469 H457 0.950 . S
C469 C465 1.393 . S
C469 C468 1.391 . S
C470 H460 0.950 . S
C470 C471 1.386 . S
C470 C472 1.391 . S
C471 C470 1.386 . S
C471 C475 1.393 . S
C472 H461 0.950 . S
C472 C470 1.391 . S
C472 C473 1.400 . S
C473 C467 1.491 . S
C473 C472 1.400 . S
C473 C474 1.398 . S
C474 H462 0.950 . S
C474 C473 1.398 . S
C474 C475 1.391 . S
C475 H463 0.950 . S
C475 C471 1.393 . S
C475 C474 1.391 . S
H476 C484 0.950 . S
H477 C489 0.950 . S
H478 C486 0.950 . S
H479 C488 0.950 1_455 S
H480 C490 0.950 . S
H481 C492 0.950 . S
H482 C494 0.950 . S
H483 C495 0.950 1_655 S
C484 H476 0.950 . S
C484 C485 1.386 . S
C484 C486 1.391 . S
C485 C484 1.386 . S
C485 C489 1.393 . S
C486 H478 0.950 . S
C486 C484 1.391 . S
C486 C487 1.400 . S
C487 C486 1.400 . S
C487 C488 1.398 . S
C487 C493 1.491 . S
C488 H479 0.950 1_655 S
C488 C487 1.398 . S
C488 C489 1.391 . S
C489 H477 0.950 . S
C489 C485 1.393 . S
C489 C488 1.391 . S
C490 H480 0.950 . S
C490 C491 1.386 . S
C490 C492 1.391 . S
C491 C490 1.386 . S
C491 C495 1.393 . S
C492 H481 0.950 . S
C492 C490 1.391 . S
C492 C493 1.400 1_455 S
C493 C487 1.491 . S
C493 C492 1.400 1_655 S
C493 C494 1.398 . S
C494 H482 0.950 . S
C494 C493 1.398 . S
C494 C495 1.391 1_655 S
C495 H483 0.950 1_455 S
C495 C491 1.393 . S
C495 C494 1.391 1_455 S
H496 C504 0.950 . S
H497 C509 0.950 . S
H498 C506 0.950 . S
H499 C508 0.950 . S
H500 C510 0.950 . S
H501 C512 0.950 . S
H502 C514 0.950 . S
H503 C515 0.950 . S
C504 H496 0.950 . S
C504 C505 1.386 . S
C504 C506 1.391 . S
C505 C504 1.386 . S
C505 C509 1.393 . S
C506 H498 0.950 . S
C506 C504 1.391 . S
C506 C507 1.400 . S
C507 C506 1.400 . S
C507 C508 1.398 . S
C507 C513 1.491 . S
C508 H499 0.950 . S
C508 C507 1.398 . S
C508 C509 1.391 . S
C509 H497 0.950 . S
C509 C505 1.393 . S
C509 C508 1.391 . S
C510 H500 0.950 . S
C510 C511 1.386 . S
C510 C512 1.391 . S
C511 C510 1.386 . S
C511 C515 1.393 . S
C512 H501 0.950 . S
C512 C510 1.391 . S
C512 C513 1.400 . S
C513 C507 1.491 . S
C513 C512 1.400 . S
C513 C514 1.398 . S
C514 H502 0.950 . S
C514 C513 1.398 . S
C514 C515 1.391 . S
C515 H503 0.950 . S
C515 C511 1.393 . S
C515 C514 1.391 . S
H516 C524 0.950 . S
H517 C529 0.950 . S
H518 C526 0.950 . S
H519 C528 0.950 . S
H520 C530 0.950 . S
H521 C532 0.950 . S
H522 C534 0.950 . S
H523 C535 0.950 . S
C524 H516 0.950 . S
C524 C525 1.386 . S
C524 C526 1.391 . S
C525 C524 1.386 . S
C525 C529 1.393 . S
C526 H518 0.950 . S
C526 C524 1.391 . S
C526 C527 1.400 . S
C527 C526 1.400 . S
C527 C528 1.398 . S
C527 C533 1.491 . S
C528 H519 0.950 . S
C528 C527 1.398 . S
C528 C529 1.391 . S
C529 H517 0.950 . S
C529 C525 1.393 . S
C529 C528 1.391 . S
C530 H520 0.950 . S
C530 C531 1.386 . S
C530 C532 1.391 . S
C531 C530 1.386 . S
C531 C535 1.393 . S
C532 H521 0.950 . S
C532 C530 1.391 . S
C532 C533 1.400 . S
C533 C527 1.491 . S
C533 C532 1.400 . S
C533 C534 1.398 . S
C534 H522 0.950 . S
C534 C533 1.398 . S
C534 C535 1.391 . S
C535 H523 0.950 . S
C535 C531 1.393 . S
C535 C534 1.391 . S
H536 C544 0.950 . S
H537 C549 0.950 . S
H538 C546 0.950 . S
H539 C548 0.950 . S
H540 C550 0.950 . S
H541 C552 0.950 . S
H542 C554 0.950 . S
H543 C555 0.950 . S
C544 H536 0.950 . S
C544 C545 1.386 . S
C544 C546 1.391 . S
C545 C544 1.386 . S
C545 C549 1.393 . S
C546 H538 0.950 . S
C546 C544 1.391 . S
C546 C547 1.400 . S
C547 C546 1.400 . S
C547 C548 1.398 . S
C547 C553 1.491 . S
C548 H539 0.950 . S
C548 C547 1.398 . S
C548 C549 1.391 . S
C549 H537 0.950 . S
C549 C545 1.393 . S
C549 C548 1.391 . S
C550 H540 0.950 . S
C550 C551 1.386 . S
C550 C552 1.391 . S
C551 C550 1.386 . S
C551 C555 1.393 . S
C552 H541 0.950 . S
C552 C550 1.391 . S
C552 C553 1.400 . S
C553 C547 1.491 . S
C553 C552 1.400 . S
C553 C554 1.398 . S
C554 H542 0.950 . S
C554 C553 1.398 . S
C554 C555 1.391 . S
C555 H543 0.950 . S
C555 C551 1.393 . S
C555 C554 1.391 . S
H556 C564 0.950 . S
H557 C569 0.950 . S
H558 C566 0.950 . S
H559 C568 0.950 . S
H560 C570 0.950 . S
H561 C572 0.950 . S
H562 C574 0.950 . S
H563 C575 0.950 . S
C564 H556 0.950 . S
C564 C565 1.386 . S
C564 C566 1.391 . S
C565 C564 1.386 . S
C565 C569 1.393 . S
C566 H558 0.950 . S
C566 C564 1.391 . S
C566 C567 1.400 . S
C567 C566 1.400 . S
C567 C568 1.398 . S
C567 C573 1.491 . S
C568 H559 0.950 . S
C568 C567 1.398 . S
C568 C569 1.391 . S
C569 H557 0.950 . S
C569 C565 1.393 . S
C569 C568 1.391 . S
C570 H560 0.950 . S
C570 C571 1.386 . S
C570 C572 1.391 . S
C571 C570 1.386 . S
C571 C575 1.393 . S
C572 H561 0.950 . S
C572 C570 1.391 . S
C572 C573 1.400 . S
C573 C567 1.491 . S
C573 C572 1.400 . S
C573 C574 1.398 . S
C574 H562 0.950 . S
C574 C573 1.398 . S
C574 C575 1.391 . S
C575 H563 0.950 . S
C575 C571 1.393 . S
C575 C574 1.391 . S
H576 C584 0.950 . S
H577 C589 0.950 . S
H578 C586 0.950 . S
H579 C588 0.950 . S
H580 C590 0.950 . S
H581 C592 0.950 . S
H582 C594 0.950 . S
H583 C595 0.950 . S
C584 H576 0.950 . S
C584 C585 1.386 . S
C584 C586 1.391 . S
C585 C584 1.386 . S
C585 C589 1.393 . S
C586 H578 0.950 . S
C586 C584 1.391 . S
C586 C587 1.400 . S
C587 C586 1.400 . S
C587 C588 1.398 . S
C587 C593 1.491 . S
C588 H579 0.950 . S
C588 C587 1.398 . S
C588 C589 1.391 . S
C589 H577 0.950 . S
C589 C585 1.393 . S
C589 C588 1.391 . S
C590 H580 0.950 . S
C590 C591 1.386 . S
C590 C592 1.391 . S
C591 C590 1.386 . S
C591 C595 1.393 . S
C592 H581 0.950 . S
C592 C590 1.391 . S
C592 C593 1.400 . S
C593 C587 1.491 . S
C593 C592 1.400 . S
C593 C594 1.398 . S
C594 H582 0.950 . S
C594 C593 1.398 . S
C594 C595 1.391 . S
C595 H583 0.950 . S
C595 C591 1.393 . S
C595 C594 1.391 . S
H596 C604 0.950 . S
H597 C609 0.950 . S
H598 C606 0.950 . S
H599 C608 0.950 . S
H600 C610 0.950 . S
H601 C612 0.950 . S
H602 C614 0.950 . S
H603 C615 0.950 . S
C604 H596 0.950 . S
C604 C605 1.386 . S
C604 C606 1.391 . S
C605 C604 1.386 . S
C605 C609 1.393 . S
C606 H598 0.950 . S
C606 C604 1.391 . S
C606 C607 1.400 . S
C607 C606 1.400 . S
C607 C608 1.398 . S
C607 C613 1.491 . S
C608 H599 0.950 . S
C608 C607 1.398 . S
C608 C609 1.391 . S
C609 H597 0.950 . S
C609 C605 1.393 . S
C609 C608 1.391 . S
C610 H600 0.950 . S
C610 C611 1.386 . S
C610 C612 1.391 . S
C611 C610 1.386 . S
C611 C615 1.393 . S
C612 H601 0.950 . S
C612 C610 1.391 . S
C612 C613 1.400 . S
C613 C607 1.491 . S
C613 C612 1.400 . S
C613 C614 1.398 . S
C614 H602 0.950 . S
C614 C613 1.398 . S
C614 C615 1.391 . S
C615 H603 0.950 . S
C615 C611 1.393 . S
C615 C614 1.391 . S
H616 C624 0.950 . S
H617 C629 0.950 . S
H618 C626 0.950 . S
H619 C628 0.950 . S
H620 C630 0.950 . S
H621 C632 0.950 . S
H622 C634 0.950 . S
H623 C635 0.950 . S
C624 H616 0.950 . S
C624 C625 1.386 . S
C624 C626 1.391 . S
C625 C624 1.386 . S
C625 C629 1.393 . S
C626 H618 0.950 . S
C626 C624 1.391 . S
C626 C627 1.400 . S
C627 C626 1.400 . S
C627 C628 1.398 . S
C627 C633 1.491 . S
C628 H619 0.950 . S
C628 C627 1.398 . S
C628 C629 1.391 . S
C629 H617 0.950 . S
C629 C625 1.393 . S
C629 C628 1.391 . S
C630 H620 0.950 . S
C630 C631 1.386 . S
C630 C632 1.391 . S
C631 C630 1.386 . S
C631 C635 1.393 . S
C632 H621 0.950 . S
C632 C630 1.391 . S
C632 C633 1.400 . S
C633 C627 1.491 . S
C633 C632 1.400 . S
C633 C634 1.398 . S
C634 H622 0.950 . S
C634 C633 1.398 . S
C634 C635 1.391 . S
C635 H623 0.950 . S
C635 C631 1.393 . S
C635 C634 1.391 . S
H636 C644 0.950 . S
H637 C649 0.950 . S
H638 C646 0.950 . S
H639 C648 0.950 . S
H640 C650 0.950 . S
H641 C652 0.950 . S
H642 C654 0.950 . S
H643 C655 0.950 . S
C644 H636 0.950 . S
C644 C645 1.386 . S
C644 C646 1.391 . S
C645 C644 1.386 . S
C645 C649 1.393 . S
C646 H638 0.950 . S
C646 C644 1.391 . S
C646 C647 1.400 . S
C647 C646 1.400 . S
C647 C648 1.398 . S
C647 C653 1.491 . S
C648 H639 0.950 . S
C648 C647 1.398 . S
C648 C649 1.391 . S
C649 H637 0.950 . S
C649 C645 1.393 . S
C649 C648 1.391 . S
C650 H640 0.950 . S
C650 C651 1.386 . S
C650 C652 1.391 . S
C651 C650 1.386 . S
C651 C655 1.393 . S
C652 H641 0.950 . S
C652 C650 1.391 . S
C652 C653 1.400 . S
C653 C647 1.491 . S
C653 C652 1.400 . S
C653 C654 1.398 . S
C654 H642 0.950 . S
C654 C653 1.398 . S
C654 C655 1.391 . S
C655 H643 0.950 . S
C655 C651 1.393 . S
C655 C654 1.391 . S
C185 C7 1.542 . S
C191 C95 1.478 . S
C205 C37 1.405 . S
C211 C104 1.130 . S
C225 C54 1.241 . S
C231 C115 0.961 . S
C251 C126 1.060 . S
C245 C87 1.136 . S
C271 C139 1.275 . S
C265 C30 1.278 . S
C285 C51 1.216 1_556 S
C291 C148 0.887 . S
C305 C84 1.058 . S
C311 C159 0.978 . S
C325 C10 1.621 . S
C331 C172 1.546 . S
C345 C59 1.198 . S
C351 C170 0.893 . S
C371 C137 1.111 . S
C365 C74 1.305 . S
C391 C150 1.564 . S
C385 C18 1.638 . S
C405 C32 1.648 . S
C411 C161 1.650 . S
C431 C106 1.411 . S
C425 C73 1.425 . S
C445 C15 1.671 . S
C451 C117 1.614 . S
C471 C128 1.451 . S
C465 C43 1.449 . S
C491 C93 0.905 . S
C485 C62 1.164 . S
C511 C162 1.422 . S
C505 C21 1.412 . S
C531 C173 1.450 . S
C525 C29 1.499 . S
C545 C52 1.298 . S
C551 C140 1.290 . S
C571 C151 1.428 . S
C565 C81 1.481 . S
C591 C118 1.533 . S
C585 C40 1.601 . S
C605 C65 1.329 . S
C611 C129 1.323 . S
C631 C96 1.353 . S
C625 C76 1.414 . S
C651 C107 1.425 . S
C645 C8 1.449 . S
