# Generated by pormake.
# Topology nia, (6,6)-cn, num edge types: 1
# Building blocks:
#     Node 0, Type 0, BuildingBlock: KUMBUR_clean_sbu_1, # of connection points: 6
#     Node 1, Type 0, BuildingBlock: KUMBUR_clean_sbu_1, # of connection points: 6
#     Node 2, Type 1, BuildingBlock: MIDCAF_clean_sbu_0, # of connection points: 6
#     Node 3, Type 1, BuildingBlock: MIDCAF_clean_sbu_0, # of connection points: 6
#     Edge 4, Type (0, 1), BuildingBlock: XUDNAN_clean_linker_2, # of connection points: 2
#     Edge 5, Type (0, 1), BuildingBlock: XUDNAN_clean_linker_2, # of connection points: 2
#     Edge 6, Type (0, 1), BuildingBlock: XUDNAN_clean_linker_2, # of connection points: 2
#     Edge 7, Type (0, 1), BuildingBlock: XUDNAN_clean_linker_2, # of connection points: 2
#     Edge 8, Type (0, 1), BuildingBlock: XUDNAN_clean_linker_2, # of connection points: 2
#     Edge 9, Type (0, 1), BuildingBlock: XUDNAN_clean_linker_2, # of connection points: 2
#     Edge 10, Type (0, 1), BuildingBlock: XUDNAN_clean_linker_2, # of connection points: 2
#     Edge 11, Type (0, 1), BuildingBlock: XUDNAN_clean_linker_2, # of connection points: 2
#     Edge 12, Type (0, 1), BuildingBlock: XUDNAN_clean_linker_2, # of connection points: 2
#     Edge 13, Type (0, 1), BuildingBlock: XUDNAN_clean_linker_2, # of connection points: 2
#     Edge 14, Type (0, 1), BuildingBlock: XUDNAN_clean_linker_2, # of connection points: 2
#     Edge 15, Type (0, 1), BuildingBlock: XUDNAN_clean_linker_2, # of connection points: 2
# Relax obj value: 0.171
# Max RMSD: 0.279
# Mean RMSD: 0.201
data_MOF--net-nia--node1-KUMBUR_clean_sbu_1--node2-MIDCAF_clean_sbu_0--edge1-XUDNAN_clean_linker_2
_symmetry_space_group_name_H-M    P1
_symmetry_Int_Tables_number       1
_symmetry_cell_setting            triclinic
loop_
_symmetry_equiv_pos_as_xyz
'x, y, z'
_cell_length_a     28.361215
_cell_length_b     28.387381
_cell_length_c     31.616762
_cell_angle_alpha  89.970654
_cell_angle_beta   89.94836
_cell_angle_gamma 135.4894
loop_
_atom_site_label
_atom_site_type_symbol
_atom_site_fract_x
_atom_site_fract_y
_atom_site_fract_z
_atom_type_partial_charge
Tb0 Tb 0.05177 0.99384 0.05488 0.0
C1 C 0.89408 0.92274 0.89949 0.0
N2 N 0.95904 0.98174 0.90562 0.0
C3 C 0.98945 0.97045 0.83844 0.0
C4 C 0.87457 0.88332 0.86334 0.0
C5 C 0.0063 0.00754 0.87501 0.0
C6 C 0.92346 0.90761 0.83281 0.0
C7 C 0.7789 0.84243 0.92406 0.0
C8 C 0.8473 0.90266 0.92955 0.0
C9 C 0.75924 0.8014 0.88894 0.0
C10 C 0.80703 0.82174 0.85867 0.0
Tb11 Tb 0.9828 0.0376 0.96688 0.0
N12 N 0.86839 0.94424 0.96277 0.0
C13 C 0.73209 0.82648 0.95318 0.0
C14 C 0.82188 0.9319 0.98872 0.0
C15 C 0.75356 0.87213 0.98514 0.0
H16 H 0.05719 0.05621 0.87916 0.0
H17 H 0.71736 0.86188 1.00661 0.0
H18 H 0.92773 0.87258 0.11885 0.0
H19 H 0.30409 0.22608 0.09706 0.0
H20 H 0.83661 0.96821 0.01198 0.0
H21 H 0.67906 0.78061 0.95018 0.0
H22 H 0.21665 0.12761 0.05147 0.0
H23 H 0.02736 0.99029 0.81469 0.0
H24 H 0.70699 0.75467 0.88438 0.0
H25 H 0.79102 0.79018 0.83138 0.0
H26 H 0.89066 0.86377 0.19197 0.0
H27 H 0.91056 0.87888 0.80453 0.0
H28 H 0.27282 0.23599 0.16719 0.0
N29 N 0.01419 0.97811 0.12249 0.0
C30 C 0.05585 0.03222 0.14836 0.0
C31 C 0.93654 0.9118 0.1798 0.0
C32 C 0.03751 0.02951 0.1904 0.0
C33 C 0.95744 0.91704 0.13841 0.0
C34 C 0.97579 0.96877 0.20552 0.0
N35 N 0.13715 0.08527 0.09464 0.0
C36 C 0.20303 0.13216 0.08204 0.0
C37 C 0.16787 0.14222 0.16122 0.0
C38 C 0.12006 0.08761 0.13407 0.0
C39 C 0.23446 0.19339 0.14716 0.0
C40 C 0.25236 0.18776 0.10767 0.0
H41 H 0.95982 0.96441 0.23764 0.0
H42 H 0.06961 0.08538 0.24884 0.0
H43 H 0.18391 0.1844 0.22315 0.0
O44 O 0.07889 0.94751 0.02878 0.0
O45 O 0.10063 0.09603 0.04026 0.0
O46 O 0.02086 0.09474 0.02593 0.0
O47 O 0.08118 0.96012 0.0957 0.0
O48 O 0.10756 0.03503 0.99467 0.0
O49 O 0.08902 0.09233 0.95734 0.0
O50 O 0.93505 0.06251 0.9395 0.0
O51 O 0.99103 0.9673 0.95874 0.0
O52 O 0.96032 0.90972 0.02026 0.0
O53 O 0.04169 0.12868 0.93386 0.0
O54 O 0.94374 0.01625 0.03186 0.0
O55 O 0.94575 0.94147 0.05796 0.0
C56 C 0.07376 0.11818 0.04719 0.0
C57 C 0.06154 0.86896 0.07306 0.0
C58 C 0.07834 0.80184 0.10164 0.0
C59 C 0.01081 0.7432 0.09212 0.0
C60 C -0.00562 0.81021 0.06393 0.0
C61 C 0.96933 0.74754 0.0733 0.0
C62 C 0.10316 0.86456 0.09156 0.0
C63 C 0.12065 0.07423 0.96342 0.0
C64 C 0.08945 0.93589 0.06546 0.0
C65 C 0.0831 0.08599 0.21663 0.0
C66 C 0.14828 0.14232 0.20204 0.0
C67 C 0.95686 0.91061 0.97889 0.0
C68 C 0.00177 0.1787 0.9354 0.0
C69 C 0.97415 0.24107 0.91895 0.0
C70 C 0.02515 0.29187 0.94703 0.0
C71 C 0.05127 0.22928 0.96386 0.0
C72 C 0.96292 0.18439 0.91356 0.0
C73 C 0.06282 0.28555 0.9695 0.0
C74 C 0.92381 0.96964 0.05916 0.0
C75 C 0.99134 0.12084 0.92664 0.0
H76 H 0.98968 0.69403 0.0998 0.0
H77 H 0.96147 0.81285 0.0499 0.0
H78 H 0.91741 0.70216 0.06631 0.0
H79 H 0.15525 0.91043 0.09793 0.0
H80 H 0.03675 0.33705 0.9514 0.0
H81 H 0.08151 0.22575 0.98133 0.0
H82 H 0.92367 0.14414 0.89255 0.0
H83 H 0.10163 0.32483 0.99109 0.0
Tb84 Tb 0.02235 0.96165 0.46295 0.0
C85 C 0.05124 0.06733 0.6429 0.0
N86 N -0.00509 0.02171 0.61928 0.0
C87 C 0.93659 0.94912 0.67983 0.0
C88 C 0.05339 0.05456 0.68561 0.0
C89 C 0.93645 0.96545 0.63809 0.0
C90 C -0.0042 0.99323 0.70344 0.0
C91 C 0.1586 0.18286 0.65085 0.0
C92 C 0.1037 0.13006 0.62564 0.0
C93 C 0.16346 0.16945 0.69253 0.0
C94 C 0.11115 0.10507 0.70977 0.0
Tb95 Tb 0.00237 0.05187 0.5503 0.0
N96 N 0.09721 0.14106 0.58534 0.0
C97 C 0.20449 0.24808 0.63422 0.0
C98 C 0.14056 0.20478 0.56932 0.0
C99 C 0.19532 0.25915 0.59333 0.0
H100 H 0.88963 0.93237 0.62075 0.0
H101 H 0.22997 0.30957 0.5805 0.0
H102 H 0.04609 0.04227 0.37712 0.0
H103 H 0.82336 0.69837 0.50759 0.0
H104 H 0.13255 0.21319 0.53794 0.0
H105 H 0.24603 0.29049 0.65311 0.0
H106 H 0.93439 0.81394 0.51359 0.0
H107 H 0.89077 0.90309 0.69395 0.0
H108 H 0.20602 0.20906 0.71219 0.0
H109 H 0.11415 0.09604 0.7425 0.0
H110 H 0.985 0.01659 0.31106 0.0
H111 H -0.00459 0.98122 0.73605 0.0
H112 H 0.74934 0.66535 0.44742 0.0
N113 N 0.96769 0.94409 0.40259 0.0
C114 C 0.90734 0.88017 0.39559 0.0
C115 C 0.96236 0.97789 0.33472 0.0
C116 C 0.87092 0.86294 0.35821 0.0
C117 C -0.00347 0.99258 0.37234 0.0
C118 C 0.89931 0.91279 0.32759 0.0
N119 N 0.9209 0.85048 0.46078 0.0
C120 C 0.90144 0.80236 0.48875 0.0
C121 C 0.81983 0.76516 0.42012 0.0
C122 C 0.88261 0.83206 0.42604 0.0
C123 C 0.7974 0.7172 0.45067 0.0
C124 C 0.83886 0.73574 0.48481 0.0
H125 H 0.8733 0.90139 0.2982 0.0
H126 H 0.77892 0.78237 0.32409 0.0
H127 H 0.7337 0.69696 0.3786 0.0
O128 O 0.03666 0.90133 0.44476 0.0
O129 O 0.95866 0.97936 0.45472 0.0
O130 O 0.9126 0.96067 0.51945 0.0
O131 O 0.1039 0.00268 0.42272 0.0
O132 O 0.00446 0.92825 0.52929 0.0
O133 O 0.93995 0.94354 0.55431 0.0
O134 O 0.97513 0.0977 0.52419 0.0
O135 O 0.10243 0.09234 0.53878 0.0
O136 O 0.08523 0.00244 0.51994 0.0
O137 O 0.96154 0.07474 0.5905 0.0
O138 O 0.04228 0.1001 0.48772 0.0
O139 O 0.09194 0.07051 0.45433 0.0
C140 C 0.90669 0.95304 0.47829 0.0
C141 C 0.08829 0.92414 0.379 0.0
C142 C 0.12793 0.88811 0.33407 0.0
C143 C 0.08254 0.86975 0.30252 0.0
C144 C 0.04337 0.90552 0.34699 0.0
C145 C 0.04092 0.87901 0.30889 0.0
C146 C 0.13107 0.91596 0.37213 0.0
C147 C 0.9631 0.91693 0.55755 0.0
C148 C 0.08802 0.94701 0.42084 0.0
C149 C 0.80792 0.79666 0.35251 0.0
C150 C 0.78218 0.748 0.38355 0.0
C151 C 0.11931 0.05966 0.54005 0.0
C152 C 0.88973 0.07985 0.55925 0.0
C153 C 0.8279 0.10558 0.58283 0.0
C154 C 0.77627 0.0572 0.55409 0.0
C155 C 0.8376 0.03153 0.53122 0.0
C156 C 0.88389 0.1152 0.58555 0.0
C157 C 0.78091 0.02006 0.52895 0.0
C158 C 0.08153 0.10892 0.45843 0.0
C159 C 0.95317 0.09861 0.55993 0.0
H160 H 0.07945 0.84838 0.27295 0.0
H161 H 0.00936 0.91018 0.35138 0.0
H162 H 0.00594 0.86472 0.28448 0.0
H163 H 0.16514 0.92907 0.39695 0.0
H164 H 0.73296 0.04895 0.55007 0.0
H165 H 0.84122 0.00369 0.51068 0.0
H166 H 0.92401 0.15109 0.60774 0.0
H167 H 0.74106 0.98332 0.5069 0.0
Zn168 Zn 0.40098 0.67193 0.17799 0.0
Zn169 Zn 0.34334 0.64047 0.33742 0.0
Zn170 Zn 0.3814 0.65868 0.26003 0.0
C171 C 0.4812 0.70981 0.33448 0.0
C172 C 0.27458 0.51472 0.31058 0.0
O173 O 0.34823 0.703 0.23126 0.0
O174 O 0.35741 0.70106 0.16184 0.0
C175 C 0.52691 0.75063 0.21679 0.0
O176 O 0.47526 0.71155 0.29432 0.0
O177 O 0.43168 0.68153 0.35876 0.0
O178 O 0.27168 0.5419 0.34055 0.0
O179 O 0.3127 0.55031 0.2783 0.0
O180 O 0.49984 0.73744 0.18113 0.0
O181 O 0.49124 0.72546 0.25086 0.0
O182 O 0.32142 0.55712 0.23322 0.0
O183 O 0.35188 0.5786 0.16589 0.0
C184 C 0.31867 0.53704 0.19588 0.0
O185 O 0.34309 0.70404 0.27527 0.0
O186 O 0.31951 0.69016 0.34375 0.0
C187 C 0.34042 0.71346 0.19334 0.0
C188 C 0.3234 0.71301 0.30833 0.0
Zn189 Zn 0.63756 0.35179 0.84244 0.0
Zn190 Zn 0.67248 0.38954 0.67901 0.0
Zn191 Zn 0.65811 0.37415 0.76123 0.0
C192 C 0.74414 0.51583 0.71177 0.0
C193 C 0.53711 0.30225 0.69305 0.0
O194 O 0.69969 0.33456 0.78301 0.0
O195 O 0.68504 0.32562 0.85241 0.0
C196 C 0.71637 0.48779 0.83102 0.0
O197 O 0.72326 0.48335 0.74713 0.0
O198 O 0.7295 0.48612 0.67711 0.0
O199 O 0.57856 0.33256 0.66288 0.0
O200 O 0.55736 0.31077 0.73143 0.0
O201 O 0.68382 0.44295 0.85924 0.0
O202 O 0.71472 0.47243 0.7922 0.0
O203 O 0.54805 0.30288 0.77516 0.0
O204 O 0.53899 0.28312 0.84398 0.0
C205 C 0.51202 0.27332 0.80896 0.0
O206 O 0.70531 0.34137 0.73846 0.0
O207 O 0.71281 0.35587 0.66892 0.0
C208 C 0.70692 0.3206 0.81983 0.0
C209 C 0.72207 0.33781 0.70155 0.0
H210 H 0.0835 0.70986 0.08707 0.0
H211 H 0.17432 0.8852 0.16272 0.0
H212 H 0.25269 0.88314 0.1935 0.0
H213 H 0.09149 0.62656 0.16906 0.0
H214 H 0.10827 0.59135 0.13239 0.0
H215 H 0.0602 0.60753 0.11566 0.0
H216 H 0.14387 0.681 0.05388 0.0
H217 H 0.1923 0.6652 0.07047 0.0
H218 H 0.23227 0.75037 0.06514 0.0
H219 H 0.32363 0.86375 0.21474 0.0
H220 H 0.3773 0.82421 0.22697 0.0
H221 H 0.23575 0.65839 0.14113 0.0
C222 C 0.11938 0.74753 0.11037 0.0
C223 C 0.12317 0.79828 0.12191 0.0
C224 C 0.17138 0.84679 0.15243 0.0
C225 C 0.21606 0.84597 0.17025 0.0
C226 C 0.21168 0.796 0.15754 0.0
C227 C 0.16399 0.74715 0.12875 0.0
C228 C 0.16843 0.69771 0.12143 0.0
C229 C 0.10322 0.62658 0.13548 0.0
C230 C 0.18523 0.69867 0.07497 0.0
C231 C 0.2264 0.72667 0.15035 0.0
C232 C 0.25069 0.78335 0.17097 0.0
C233 C 0.30455 0.81903 0.19909 0.0
C234 C 0.33413 0.79591 0.20633 0.0
C235 C 0.30915 0.73745 0.18604 0.0
C236 C 0.25519 0.70295 0.15736 0.0
H237 H 0.23735 0.19132 0.55573 0.0
H238 H 0.13413 0.98658 0.58119 0.0
H239 H 0.22061 0.02671 0.63348 0.0
H240 H 0.39515 0.24031 0.55173 0.0
H241 H 0.4446 0.32492 0.56945 0.0
H242 H 0.36786 0.28015 0.54066 0.0
H243 H 0.32621 0.3028 0.60162 0.0
H244 H 0.40102 0.34496 0.63172 0.0
H245 H 0.32024 0.27446 0.65468 0.0
H246 H 0.31741 0.09018 0.68551 0.0
H247 H 0.43243 0.1707 0.7161 0.0
H248 H 0.48315 0.33219 0.64472 0.0
C249 C 0.23233 0.15508 0.57314 0.0
C250 C 0.17595 0.0854 0.56728 0.0
C251 C 0.17381 0.03967 0.58793 0.0
C252 C 0.22313 0.0621 0.61738 0.0
C253 C 0.27678 0.13094 0.62378 0.0
C254 C 0.2835 0.17688 0.60063 0.0
C255 C 0.35283 0.24742 0.60648 0.0
C256 C 0.39245 0.27479 0.56461 0.0
C257 C 0.34963 0.2951 0.62475 0.0
C258 C 0.38211 0.2342 0.63823 0.0
C259 C 0.33713 0.16694 0.64855 0.0
C260 C 0.35326 0.14299 0.67749 0.0
C261 C 0.41814 0.18891 0.69507 0.0
C262 C 0.46572 0.25718 0.68283 0.0
C263 C 0.44707 0.28011 0.65472 0.0
H264 H 0.2 0.24477 0.04714 0.0
H265 H 0.0147 0.10849 0.11874 0.0
H266 H 0.06114 0.19845 0.17019 0.0
H267 H 0.31612 0.34194 0.13942 0.0
H268 H 0.36968 0.41854 0.10914 0.0
H269 H 0.3227 0.33934 0.08289 0.0
H270 H 0.27204 0.36788 0.03352 0.0
H271 H 0.31709 0.44513 0.06151 0.0
H272 H 0.2269 0.38436 0.05677 0.0
H273 H 0.12395 0.30708 0.20902 0.0
H274 H 0.19774 0.42532 0.23153 0.0
H275 H 0.34384 0.48887 0.13635 0.0
C276 C 0.16985 0.23404 0.07403 0.0
C277 C 0.10335 0.17071 0.07881 0.0
C278 C 0.06475 0.15778 0.11397 0.0
C279 C 0.09126 0.20814 0.14369 0.0
C280 C 0.15668 0.27097 0.13768 0.0
C281 C 0.19562 0.28394 0.10384 0.0
C282 C 0.26223 0.35693 0.10257 0.0
C283 C 0.32113 0.36456 0.10887 0.0
C284 C 0.26996 0.39053 0.06116 0.0
C285 C 0.254 0.38329 0.14031 0.0
C286 C 0.19319 0.33298 0.16053 0.0
C287 C 0.17249 0.34666 0.19415 0.0
C288 C 0.21485 0.41375 0.20702 0.0
C289 C 0.27711 0.46576 0.18649 0.0
C290 C 0.29693 0.44989 0.15312 0.0
H291 H 0.71573 0.0727 0.61359 0.0
H292 H 0.93404 0.23693 0.6088 0.0
H293 H 0.92996 0.30776 0.64896 0.0
H294 H 0.69072 0.17368 0.59033 0.0
H295 H 0.61738 0.12818 0.62339 0.0
H296 H 0.63744 0.08579 0.60137 0.0
H297 H 0.6373 0.0494 0.67672 0.0
H298 H 0.61762 0.09222 0.69896 0.0
H299 H 0.69057 0.11236 0.71698 0.0
H300 H 0.90287 0.36468 0.68525 0.0
H301 H 0.85342 0.406 0.70696 0.0
H302 H 0.65412 0.21025 0.68058 0.0
C303 C 0.76293 0.12337 0.62097 0.0
C304 C 0.82525 0.14803 0.60841 0.0
C305 C 0.88548 0.21511 0.61913 0.0
C306 C 0.88383 0.25629 0.64187 0.0
C307 C 0.82162 0.23041 0.65334 0.0
C308 C 0.76221 0.16577 0.64279 0.0
C309 C 0.70189 0.15277 0.65434 0.0
C310 C 0.6594 0.13404 0.61502 0.0
C311 C 0.65934 0.09846 0.6888 0.0
C312 C 0.73681 0.221 0.67146 0.0
C313 C 0.80584 0.26446 0.67195 0.0
C314 C 0.84887 0.33094 0.68539 0.0
C315 C 0.82058 0.35397 0.69771 0.0
C316 C 0.75034 0.31077 0.69588 0.0
C317 C 0.70799 0.24356 0.68284 0.0
H318 H 0.82324 0.84507 0.09577 0.0
H319 H 0.90958 0.04662 0.09414 0.0
H320 H 0.83225 0.01604 0.15083 0.0
H321 H 0.66003 0.77017 0.10022 0.0
H322 H 0.62727 0.69945 0.13219 0.0
H323 H 0.69962 0.74125 0.09926 0.0
H324 H 0.7673 0.76154 0.16505 0.0
H325 H 0.69425 0.71943 0.19775 0.0
H326 H 0.77281 0.80342 0.2107 0.0
H327 H 0.73988 0.96232 0.20284 0.0
H328 H 0.62459 0.88445 0.23212 0.0
H329 H 0.59021 0.7152 0.19555 0.0
C330 C 0.8272 0.8832 0.10847 0.0
C331 C 0.87537 0.94946 0.09244 0.0
C332 C 0.87584 -0.0033 0.10762 0.0
C333 C 0.83203 0.97976 0.13991 0.0
C334 C 0.78627 0.91455 0.15594 0.0
C335 C 0.78227 0.86643 0.13992 0.0
C336 C 0.72036 0.7972 0.15654 0.0
C337 C 0.67409 0.74923 0.11989 0.0
C338 C 0.73992 0.76875 0.18414 0.0
C339 C 0.68904 0.81362 0.18311 0.0
C340 C 0.72928 0.88199 0.18374 0.0
C341 C 0.70845 0.90881 0.20324 0.0
C342 C 0.64324 0.8644 0.22025 0.0
C343 C 0.59973 0.79429 0.21705 0.0
C344 C 0.62381 0.7688 0.19983 0.0
H345 H 0.83333 0.80241 0.57889 0.0
H346 H 0.04001 0.92736 0.61567 0.0
H347 H 0.00418 0.84457 0.66981 0.0
H348 H 0.761 0.73718 0.68888 0.0
H349 H 0.68713 0.65507 0.66915 0.0
H350 H 0.72863 0.72865 0.63727 0.0
H351 H 0.74116 0.67756 0.57584 0.0
H352 H 0.69885 0.60376 0.60729 0.0
H353 H 0.78113 0.65014 0.58593 0.0
H354 H 0.94845 0.73947 0.70849 0.0
H355 H 0.8762 0.62198 0.73123 0.0
H356 H 0.70293 0.56819 0.67757 0.0
C357 C 0.8706 0.81262 0.59908 0.0
C358 C 0.93976 0.87009 0.5925 0.0
C359 C 0.98735 0.88215 0.6191 0.0
C360 C 0.96716 0.83602 0.65052 0.0
C361 C 0.89874 0.77845 0.65544 0.0
C362 C 0.85099 0.76694 0.63086 0.0
C363 C 0.78123 0.69847 0.64016 0.0
C364 C 0.73688 0.70527 0.66006 0.0
C365 C 0.74873 0.65494 0.59993 0.0
C366 C 0.79774 0.67193 0.67201 0.0
C367 C 0.8658 0.71927 0.68082 0.0
C368 C 0.89461 0.70303 0.70386 0.0
C369 C 0.8531 0.63642 0.71741 0.0
C370 C 0.78334 0.58755 0.70922 0.0
C371 C 0.75543 0.60593 0.68672 0.0
H372 H 0.08622 0.76952 0.31418 0.0
H373 H 0.26445 0.9792 0.34072 0.0
H374 H 0.33524 0.95859 0.3311 0.0
H375 H 0.14091 0.70707 0.37197 0.0
H376 H 0.10252 0.63816 0.33633 0.0
H377 H 0.06711 0.6709 0.34239 0.0
H378 H 0.07566 0.68899 0.26197 0.0
H379 H 0.11452 0.65983 0.25469 0.0
H380 H 0.15605 0.74192 0.23629 0.0
H381 H 0.38547 0.91399 0.32239 0.0
H382 H 0.4116 0.8474 0.31761 0.0
H383 H 0.20079 0.66656 0.29731 0.0
C384 C 0.14027 0.81115 0.31736 0.0
C385 C 0.17031 0.8761 0.32775 0.0
C386 C 0.24086 0.92919 0.3327 0.0
C387 C 0.28129 0.91797 0.3271 0.0
C388 C 0.25014 0.85325 0.31699 0.0
C389 C 0.18117 0.80055 0.31256 0.0
C390 C 0.15982 0.73484 0.30477 0.0
C391 C 0.11496 0.68482 0.34103 0.0
C392 C 0.12439 0.70455 0.26188 0.0
C393 C 0.22768 0.75896 0.30487 0.0
C394 C 0.27911 0.82743 0.31205 0.0
C395 C 0.34582 0.86059 0.31617 0.0
C396 C 0.36024 0.82262 0.31337 0.0
C397 C 0.30832 0.75269 0.30607 0.0
C398 C 0.24136 0.72045 0.3017 0.0
H399 H 0.2153 0.19224 0.91808 0.0
H400 H 0.13208 0.99305 0.93508 0.0
H401 H 0.20811 0.01637 0.88039 0.0
H402 H 0.25971 0.2128 0.80177 0.0
H403 H 0.33817 0.2995 0.80879 0.0
H404 H 0.26672 0.26295 0.84159 0.0
H405 H 0.33729 0.29737 0.90907 0.0
H406 H 0.40881 0.33497 0.87648 0.0
H407 H 0.37965 0.27174 0.91479 0.0
H408 H 0.30086 0.06372 0.83217 0.0
H409 H 0.41617 0.13813 0.80399 0.0
H410 H 0.44707 0.30983 0.82014 0.0
C411 C 0.21231 0.15328 0.90939 0.0
C412 C 0.16717 0.09051 0.93026 0.0
C413 C 0.16585 0.04128 0.91918 0.0
C414 C 0.20838 0.05378 0.88778 0.0
C415 C 0.25294 0.11626 0.86797 0.0
C416 C 0.25615 0.16577 0.87877 0.0
C417 C 0.31649 0.23213 0.85812 0.0
C418 C 0.2939 0.25306 0.82564 0.0
C419 C 0.36332 0.28725 0.89161 0.0
C420 C 0.34869 0.21301 0.83632 0.0
C421 C 0.30942 0.14514 0.84089 0.0
C422 C 0.33139 0.11659 0.82743 0.0
C423 C 0.39669 0.15899 0.81116 0.0
C424 C 0.43913 0.22896 0.80879 0.0
C425 C 0.41409 0.25597 0.81996 0.0
H426 H 0.06067 0.18887 0.45026 0.0
H427 H 0.17549 0.15495 0.39675 0.0
H428 H 0.22709 0.24674 0.34535 0.0
H429 H 0.0311 0.23094 0.3514 0.0
H430 H 0.0399 0.294 0.37625 0.0
H431 H 0.0083 0.22216 0.4062 0.0
H432 H 0.10182 0.30084 0.46226 0.0
H433 H 0.13303 0.3727 0.43285 0.0
H434 H 0.18855 0.3641 0.44557 0.0
H435 H 0.27261 0.34918 0.30327 0.0
H436 H 0.31273 0.45581 0.27885 0.0
H437 H 0.16511 0.41851 0.35938 0.0
C438 C 0.09637 0.20019 0.42769 0.0
C439 C 0.11389 0.16443 0.42767 0.0
C440 C 0.16108 0.18146 0.39746 0.0
C441 C 0.19038 0.23329 0.36794 0.0
C442 C 0.17167 0.26733 0.36886 0.0
C443 C 0.12578 0.25135 0.39811 0.0
C444 C 0.11693 0.29777 0.39461 0.0
C445 C 0.04476 0.25888 0.38131 0.0
C446 C 0.13627 0.33613 0.43627 0.0
C447 C 0.1666 0.34394 0.35967 0.0
C448 C 0.19709 0.32521 0.34463 0.0
C449 C 0.24825 0.3636 0.31436 0.0
C450 C 0.27039 0.42383 0.30038 0.0
C451 C 0.24133 0.44489 0.31673 0.0
C452 C 0.18753 0.40318 0.34577 0.0
H453 H 0.93425 0.3007 0.94597 0.0
H454 H 0.92008 0.19564 0.83855 0.0
H455 H 0.8488 0.20266 0.80152 0.0
H456 H 0.76999 0.2308 0.94177 0.0
H457 H 0.79562 0.30814 0.955 0.0
H458 H 0.84404 0.29317 0.97344 0.0
H459 H 0.95113 0.40418 0.9384 0.0
H460 H 0.90311 0.41971 0.92004 0.0
H461 H 0.95007 0.41794 0.88289 0.0
H462 H 0.77249 0.21579 0.7779 0.0
H463 H 0.70673 0.24248 0.7686 0.0
H464 H 0.78495 0.35163 0.88667 0.0
C465 C 0.91735 0.27997 0.91441 0.0
C466 C 0.93276 0.24704 0.89561 0.0
C467 C 0.90794 0.21969 0.85439 0.0
C468 C 0.86776 0.22391 0.83282 0.0
C469 C 0.85358 0.25656 0.85249 0.0
C470 C 0.87844 0.28488 0.89214 0.0
C471 C 0.85745 0.3187 0.9061 0.0
C472 C 0.8142 0.28571 0.94646 0.0
C473 C 0.91912 0.39463 0.9122 0.0
C474 C 0.8163 0.30448 0.86828 0.0
C475 C 0.81405 0.26812 0.83774 0.0
C476 C 0.77577 0.2461 0.80106 0.0
C477 C 0.73976 0.26261 0.7954 0.0
C478 C 0.74388 0.3022 0.82547 0.0
C479 C 0.782 0.32247 0.86259 0.0
H480 H 0.86605 0.97383 0.40845 0.0
H481 H 0.7967 0.82846 0.50597 0.0
H482 H 0.68394 0.74682 0.47347 0.0
H483 H 0.71433 0.93393 0.40994 0.0
H484 H 0.71484 0.94767 0.3542 0.0
H485 H 0.79286 0.99271 0.38146 0.0
H486 H 0.82272 0.94732 0.32808 0.0
H487 H 0.7454 0.9047 0.30064 0.0
H488 H 0.76216 0.85784 0.31877 0.0
H489 H 0.58035 0.68286 0.43311 0.0
H490 H 0.48385 0.64245 0.39186 0.0
H491 H 0.61468 0.82961 0.32127 0.0
C492 C 0.82692 0.92447 0.4225 0.0
C493 C 0.83949 0.90653 0.45929 0.0
C494 C 0.78743 0.84263 0.47781 0.0
C495 C 0.72369 0.79589 0.45932 0.0
C496 C 0.71267 0.81459 0.42291 0.0
C497 C 0.76217 0.87762 0.40498 0.0
C498 C 0.73389 0.887 0.36896 0.0
C499 C 0.73928 0.94367 0.37927 0.0
C500 C 0.76822 0.90002 0.32664 0.0
C501 C 0.66122 0.8189 0.3691 0.0
C502 C 0.65079 0.77806 0.40033 0.0
C503 C 0.5878 0.71408 0.40843 0.0
C504 C 0.53341 0.69166 0.38484 0.0
C505 C 0.54214 0.73293 0.35345 0.0
C506 C 0.6071 0.79683 0.34466 0.0
H507 H 0.83998 0.77704 0.98931 0.0
H508 H 0.01796 0.91594 0.91064 0.0
H509 H 0.97411 0.82375 0.86283 0.0
H510 H 0.81836 0.63543 0.9779 0.0
H511 H 0.72788 0.57401 0.97555 0.0
H512 H 0.77425 0.65092 1.00452 0.0
H513 H 0.71886 0.67828 0.95955 0.0
H514 H 0.67133 0.59982 0.93217 0.0
H515 H 0.72257 0.677 0.90265 0.0
H516 H 0.91281 0.71683 0.8243 0.0
H517 H 0.83689 0.59997 0.79851 0.0
H518 H 0.6945 0.53155 0.89757 0.0
C519 C 0.86997 0.78741 0.96243 0.0
C520 C 0.93264 0.85318 0.95386 0.0
C521 C 0.97013 0.86562 0.91794 0.0
C522 C 0.9455 0.8137 0.89045 0.0
C523 C 0.88293 0.74958 0.89912 0.0
C524 C 0.84556 0.73603 0.93418 0.0
C525 C 0.77939 0.66255 0.93565 0.0
C526 C 0.77472 0.62873 0.97578 0.0
C527 C 0.71952 0.65398 0.93234 0.0
C528 C 0.78586 0.63718 0.89618 0.0
C529 C 0.84598 0.68827 0.87558 0.0
C530 C 0.86473 0.67663 0.83949 0.0
C531 C 0.82091 0.61069 0.82429 0.0
C532 C 0.75881 0.55785 0.84442 0.0
C533 C 0.74116 0.57144 0.88086 0.0
loop_
_geom_bond_atom_site_label_1
_geom_bond_atom_site_label_2
_geom_bond_distance
_geom_bond_site_symmetry_2
_ccdc_geom_bond_type
Tb0 N29 2.617 . S
Tb0 N35 2.572 1_565 S
Tb0 O44 2.465 . S
Tb0 O45 2.387 1_565 S
Tb0 O47 2.428 . S
Tb0 O48 2.308 1_564 S
Tb0 O52 2.334 1_454 S
Tb0 O55 2.393 1_455 S
Tb0 C64 2.802 . S
C1 N2 1.379 1_665 S
C1 C4 1.416 . S
C1 C8 1.424 . S
N2 C1 1.379 1_445 S
N2 C5 1.334 . S
N2 Tb11 2.617 1_455 S
C3 C5 1.390 . S
C3 C6 1.339 . S
C3 H23 0.930 . S
C4 C1 1.416 . S
C4 C6 1.416 1_665 S
C4 C10 1.448 . S
C5 N2 1.334 . S
C5 C3 1.390 . S
C5 H16 0.930 . S
C6 C3 1.339 . S
C6 C4 1.416 1_445 S
C6 H27 0.928 1_545 S
C7 C8 1.413 . S
C7 C9 1.427 . S
C7 C13 1.416 . S
C8 C1 1.424 . S
C8 C7 1.413 . S
C8 N12 1.361 . S
C9 C7 1.427 . S
C9 C10 1.328 . S
C9 H24 0.929 . S
C10 C4 1.448 . S
C10 C9 1.328 . S
C10 H25 0.930 . S
Tb11 N2 2.617 1_655 S
Tb11 N12 2.572 1_545 S
Tb11 O46 2.349 1_656 S
Tb11 O49 2.393 1_655 S
Tb11 O50 2.465 . S
Tb11 O51 2.387 1_545 S
Tb11 O53 2.428 1_655 S
Tb11 O54 2.308 1_546 S
Tb11 C75 2.802 . S
N12 C8 1.361 . S
N12 Tb11 2.572 1_565 S
N12 C14 1.340 . S
C13 C7 1.416 . S
C13 C15 1.332 . S
C13 H21 0.931 . S
C14 N12 1.340 . S
C14 C15 1.407 . S
C14 H20 0.930 . S
C15 C13 1.332 . S
C15 C14 1.407 . S
C15 H17 0.929 . S
H16 C5 0.930 . S
H17 C15 0.929 . S
H18 C33 0.930 . S
H19 C40 0.929 . S
H20 C14 0.930 . S
H21 C13 0.931 . S
H22 C36 0.930 . S
H23 C3 0.930 . S
H24 C9 0.929 . S
H25 C10 0.930 . S
H26 C31 0.930 . S
H27 C6 0.928 1_565 S
H28 C39 0.931 . S
N29 Tb0 2.617 . S
N29 C30 1.379 1_565 S
N29 C33 1.334 1_455 S
C30 N29 1.379 1_545 S
C30 C32 1.416 . S
C30 C38 1.424 . S
C31 H26 0.930 . S
C31 C33 1.390 . S
C31 C34 1.339 1_565 S
C32 C30 1.416 . S
C32 C34 1.416 1_455 S
C32 C65 1.448 . S
C33 H18 0.930 . S
C33 N29 1.334 1_655 S
C33 C31 1.390 . S
C34 C31 1.339 1_545 S
C34 C32 1.416 1_655 S
C34 H41 0.930 . S
N35 Tb0 2.572 1_545 S
N35 C36 1.340 . S
N35 C38 1.361 . S
C36 H22 0.930 . S
C36 N35 1.340 . S
C36 C40 1.407 . S
C37 C38 1.413 . S
C37 C39 1.416 . S
C37 C66 1.427 . S
C38 C30 1.424 . S
C38 N35 1.361 . S
C38 C37 1.413 . S
C39 H28 0.931 . S
C39 C37 1.416 . S
C39 C40 1.332 . S
C40 H19 0.929 . S
C40 C36 1.407 . S
C40 C39 1.332 . S
H41 C34 0.930 . S
H42 C65 0.930 . S
H43 C66 0.929 . S
O44 Tb0 2.465 . S
O44 C64 1.264 . S
O45 Tb0 2.387 1_545 S
O45 C56 1.264 . S
O46 Tb11 2.349 1_454 S
O46 C56 1.243 . S
O47 Tb0 2.428 . S
O47 C64 1.256 . S
O48 Tb0 2.308 1_546 S
O48 C63 1.266 . S
O49 Tb11 2.393 1_455 S
O49 C63 1.248 . S
O50 Tb11 2.465 . S
O50 C75 1.264 . S
O51 Tb11 2.387 1_565 S
O51 C67 1.264 . S
O52 Tb0 2.334 1_656 S
O52 C67 1.261 . S
O53 Tb11 2.428 1_455 S
O53 C75 1.256 1_455 S
O54 Tb11 2.308 1_564 S
O54 C74 1.266 . S
O55 Tb0 2.393 1_655 S
O55 C74 1.248 . S
C56 O45 1.264 . S
C56 O46 1.243 . S
C57 C60 1.399 . S
C57 C62 1.383 . S
C57 C64 1.496 . S
C58 C59 1.399 . S
C58 C62 1.389 . S
C59 C58 1.399 . S
C59 C61 1.380 . S
C59 H76 0.929 . S
C60 C57 1.399 . S
C60 C61 1.392 . S
C60 H77 0.929 1_455 S
C61 C59 1.380 . S
C61 C60 1.392 . S
C61 H78 0.929 . S
C62 C57 1.383 . S
C62 C58 1.389 . S
C62 H79 0.931 . S
C63 O48 1.266 . S
C63 O49 1.248 . S
C64 Tb0 2.802 . S
C64 O44 1.264 . S
C64 O47 1.256 . S
C64 C57 1.496 . S
C65 C32 1.448 . S
C65 H42 0.930 . S
C65 C66 1.328 . S
C66 C37 1.427 . S
C66 H43 0.929 . S
C66 C65 1.328 . S
C67 O51 1.264 . S
C67 O52 1.261 . S
C68 C71 1.399 . S
C68 C72 1.383 . S
C68 C75 1.496 . S
C69 C70 1.399 . S
C69 C72 1.389 . S
C70 C69 1.399 . S
C70 C73 1.380 . S
C70 H80 0.929 . S
C71 C68 1.399 . S
C71 C73 1.392 . S
C71 H81 0.929 1_655 S
C72 C68 1.383 . S
C72 C69 1.389 . S
C72 H82 0.931 . S
C73 C70 1.380 . S
C73 C71 1.392 . S
C73 H83 0.929 1_655 S
C74 O54 1.266 . S
C74 O55 1.248 . S
C75 Tb11 2.802 . S
C75 O50 1.264 . S
C75 O53 1.256 1_655 S
C75 C68 1.496 . S
H76 C59 0.929 . S
H77 C60 0.929 1_655 S
H78 C61 0.929 . S
H79 C62 0.931 . S
H80 C70 0.929 . S
H81 C71 0.929 1_455 S
H82 C72 0.931 . S
H83 C73 0.929 1_455 S
Tb84 N113 2.617 1_565 S
Tb84 N119 2.572 1_455 S
Tb84 O128 2.465 . S
Tb84 O129 2.387 1_455 S
Tb84 O131 2.428 1_565 S
Tb84 O132 2.308 1_455 S
Tb84 O136 2.349 1_565 S
Tb84 O139 2.393 1_565 S
Tb84 C148 2.802 . S
C85 N86 1.379 . S
C85 C88 1.416 . S
C85 C92 1.424 . S
N86 C85 1.379 . S
N86 C89 1.334 1_445 S
N86 Tb95 2.617 1_455 S
C87 C89 1.390 . S
C87 C90 1.339 1_665 S
C87 H107 0.930 . S
C88 C85 1.416 . S
C88 C90 1.416 . S
C88 C94 1.448 . S
C89 N86 1.334 1_665 S
C89 C87 1.390 . S
C89 H100 0.930 . S
C90 C87 1.339 1_445 S
C90 C88 1.416 . S
C90 H111 0.930 . S
C91 C92 1.413 . S
C91 C93 1.427 . S
C91 C97 1.416 . S
C92 C85 1.424 . S
C92 C91 1.413 . S
C92 N96 1.361 . S
C93 C91 1.427 . S
C93 C94 1.328 . S
C93 H108 0.929 . S
C94 C88 1.448 . S
C94 C93 1.328 . S
C94 H109 0.930 . S
Tb95 N86 2.617 1_655 S
Tb95 N96 2.572 1_655 S
Tb95 O130 2.349 1_545 S
Tb95 O133 2.393 1_545 S
Tb95 O134 2.465 . S
Tb95 O135 2.387 1_655 S
Tb95 O137 2.428 . S
Tb95 O138 2.308 1_655 S
Tb95 C159 2.802 . S
N96 C92 1.361 . S
N96 Tb95 2.572 1_455 S
N96 C98 1.340 . S
C97 C91 1.416 . S
C97 C99 1.332 . S
C97 H105 0.931 . S
C98 N96 1.340 . S
C98 C99 1.407 . S
C98 H104 0.930 . S
C99 C97 1.332 . S
C99 C98 1.407 . S
C99 H101 0.929 . S
H100 C89 0.930 . S
H101 C99 0.929 . S
H102 C117 0.930 . S
H103 C124 0.929 . S
H104 C98 0.930 . S
H105 C97 0.931 . S
H106 C120 0.930 . S
H107 C87 0.930 . S
H108 C93 0.929 . S
H109 C94 0.930 . S
H110 C115 0.930 . S
H111 C90 0.930 . S
H112 C123 0.931 . S
N113 Tb84 2.617 1_545 S
N113 C114 1.379 1_445 S
N113 C117 1.334 . S
C114 N113 1.379 1_665 S
C114 C116 1.416 . S
C114 C122 1.424 . S
C115 H110 0.930 . S
C115 C117 1.390 . S
C115 C118 1.339 . S
C116 C114 1.416 . S
C116 C118 1.416 1_665 S
C116 C149 1.448 . S
C117 H102 0.930 . S
C117 N113 1.334 . S
C117 C115 1.390 . S
C118 C115 1.339 . S
C118 C116 1.416 1_445 S
C118 H125 0.930 . S
N119 Tb84 2.572 1_655 S
N119 C120 1.340 . S
N119 C122 1.361 . S
C120 H106 0.930 . S
C120 N119 1.340 . S
C120 C124 1.407 . S
C121 C122 1.413 . S
C121 C123 1.416 . S
C121 C150 1.427 . S
C122 C114 1.424 . S
C122 N119 1.361 . S
C122 C121 1.413 . S
C123 H112 0.931 . S
C123 C121 1.416 . S
C123 C124 1.332 . S
C124 H103 0.929 . S
C124 C120 1.407 . S
C124 C123 1.332 . S
H125 C118 0.930 . S
H126 C149 0.930 . S
H127 C150 0.929 . S
O128 Tb84 2.465 . S
O128 C148 1.264 . S
O129 Tb84 2.387 1_655 S
O129 C140 1.264 . S
O130 Tb95 2.349 1_565 S
O130 C140 1.243 . S
O131 Tb84 2.428 1_545 S
O131 C148 1.256 1_545 S
O132 Tb84 2.308 1_655 S
O132 C147 1.266 . S
O133 Tb95 2.393 1_565 S
O133 C147 1.248 . S
O134 Tb95 2.465 . S
O134 C159 1.264 . S
O135 Tb95 2.387 1_455 S
O135 C151 1.264 . S
O136 Tb84 2.349 1_545 S
O136 C151 1.243 . S
O137 Tb95 2.428 . S
O137 C159 1.256 . S
O138 Tb95 2.308 1_455 S
O138 C158 1.266 . S
O139 Tb84 2.393 1_545 S
O139 C158 1.248 . S
C140 O129 1.264 . S
C140 O130 1.243 . S
C141 C144 1.398 1_565 S
C141 C146 1.383 . S
C141 C148 1.496 . S
C142 C143 1.399 . S
C142 C146 1.389 . S
C143 C142 1.399 . S
C143 C145 1.380 . S
C143 H160 0.929 . S
C144 C141 1.398 1_545 S
C144 C145 1.382 1_545 S
C144 H161 0.941 . S
C145 C143 1.380 . S
C145 C144 1.382 1_565 S
C145 H162 0.929 1_565 S
C146 C141 1.383 . S
C146 C142 1.389 . S
C146 H163 0.931 . S
C147 O132 1.266 . S
C147 O133 1.248 . S
C148 Tb84 2.802 . S
C148 O128 1.264 . S
C148 O131 1.256 1_565 S
C148 C141 1.496 . S
C149 C116 1.448 . S
C149 H126 0.930 . S
C149 C150 1.328 . S
C150 C121 1.427 . S
C150 H127 0.929 . S
C150 C149 1.328 . S
C151 O135 1.264 . S
C151 O136 1.243 . S
C152 C155 1.399 . S
C152 C156 1.383 . S
C152 C159 1.496 . S
C153 C154 1.399 . S
C153 C156 1.389 . S
C154 C153 1.399 . S
C154 C157 1.380 . S
C154 H164 0.929 . S
C155 C152 1.399 . S
C155 C157 1.392 . S
C155 H165 0.929 . S
C156 C152 1.383 . S
C156 C153 1.389 . S
C156 H166 0.931 . S
C157 C154 1.380 . S
C157 C155 1.392 . S
C157 H167 0.929 . S
C158 O138 1.266 . S
C158 O139 1.248 . S
C159 Tb95 2.802 . S
C159 O134 1.264 . S
C159 O137 1.256 . S
C159 C152 1.496 . S
H160 C143 0.929 . S
H161 C144 0.941 . S
H162 C145 0.929 1_545 S
H163 C146 0.931 . S
H164 C154 0.929 . S
H165 C155 0.929 . S
H166 C156 0.931 . S
H167 C157 0.929 . S
Zn168 O174 1.920 . S
Zn168 O180 1.898 . S
Zn168 O183 1.905 . S
Zn169 O177 1.905 . S
Zn169 O178 1.898 . S
Zn169 O186 1.920 . S
Zn170 O173 2.080 . S
Zn170 O176 2.114 . S
Zn170 O179 2.120 . S
Zn170 O181 2.120 . S
Zn170 O182 2.114 . S
Zn170 O185 2.080 . S
C171 O176 1.166 . S
C171 O177 1.182 . S
C172 O178 1.167 . S
C172 O179 1.299 . S
O173 Zn170 2.080 . S
O173 C187 1.305 . S
O174 Zn168 1.920 . S
O174 C187 1.234 . S
C175 O180 1.167 . S
C175 O181 1.299 . S
O176 Zn170 2.114 . S
O176 C171 1.166 . S
O177 Zn169 1.905 . S
O177 C171 1.182 . S
O178 Zn169 1.898 . S
O178 C172 1.167 . S
O179 Zn170 2.120 . S
O179 C172 1.299 . S
O180 Zn168 1.898 . S
O180 C175 1.167 . S
O181 Zn170 2.120 . S
O181 C175 1.299 . S
O182 Zn170 2.114 . S
O182 C184 1.166 . S
O183 Zn168 1.905 . S
O183 C184 1.182 . S
C184 O182 1.166 . S
C184 O183 1.182 . S
O185 Zn170 2.080 . S
O185 C188 1.305 . S
O186 Zn169 1.920 . S
O186 C188 1.234 . S
C187 O173 1.305 . S
C187 O174 1.234 . S
C188 O185 1.305 . S
C188 O186 1.234 . S
Zn189 O195 1.920 . S
Zn189 O201 1.898 . S
Zn189 O204 1.905 . S
Zn190 O198 1.905 . S
Zn190 O199 1.898 . S
Zn190 O207 1.920 . S
Zn191 O194 2.080 . S
Zn191 O197 2.114 . S
Zn191 O200 2.120 . S
Zn191 O202 2.120 . S
Zn191 O203 2.114 . S
Zn191 O206 2.080 . S
C192 O197 1.166 . S
C192 O198 1.182 . S
C193 O199 1.167 . S
C193 O200 1.299 . S
O194 Zn191 2.080 . S
O194 C208 1.305 . S
O195 Zn189 1.920 . S
O195 C208 1.234 . S
C196 O201 1.167 . S
C196 O202 1.299 . S
O197 Zn191 2.114 . S
O197 C192 1.166 . S
O198 Zn190 1.905 . S
O198 C192 1.182 . S
O199 Zn190 1.898 . S
O199 C193 1.167 . S
O200 Zn191 2.120 . S
O200 C193 1.299 . S
O201 Zn189 1.898 . S
O201 C196 1.167 . S
O202 Zn191 2.120 . S
O202 C196 1.299 . S
O203 Zn191 2.114 . S
O203 C205 1.166 . S
O204 Zn189 1.905 . S
O204 C205 1.182 . S
C205 O203 1.166 . S
C205 O204 1.182 . S
O206 Zn191 2.080 . S
O206 C209 1.305 . S
O207 Zn190 1.920 . S
O207 C209 1.234 . S
C208 O194 1.305 . S
C208 O195 1.234 . S
C209 O206 1.305 . S
C209 O207 1.234 . S
H210 C222 0.930 . S
H211 C224 0.930 . S
H212 C225 0.930 . S
H213 C229 0.959 . S
H214 C229 0.959 . S
H215 C229 0.961 . S
H216 C230 0.960 . S
H217 C230 0.961 . S
H218 C230 0.959 . S
H219 C233 0.929 . S
H220 C234 0.931 . S
H221 C236 0.930 . S
C222 H210 0.930 . S
C222 C223 1.399 . S
C222 C227 1.399 . S
C223 C222 1.399 . S
C223 C224 1.376 . S
C224 H211 0.930 . S
C224 C223 1.376 . S
C224 C225 1.388 . S
C225 H212 0.930 . S
C225 C224 1.388 . S
C225 C226 1.390 . S
C226 C225 1.390 . S
C226 C227 1.394 . S
C226 C232 1.465 . S
C227 C222 1.399 . S
C227 C226 1.394 . S
C227 C228 1.516 . S
C228 C227 1.516 . S
C228 C229 1.502 . S
C228 C230 1.561 . S
C228 C231 1.526 . S
C229 H213 0.959 . S
C229 H214 0.959 . S
C229 H215 0.961 . S
C229 C228 1.502 . S
C230 H216 0.960 . S
C230 H217 0.961 . S
C230 H218 0.959 . S
C230 C228 1.561 . S
C231 C228 1.526 . S
C231 C232 1.396 . S
C231 C236 1.390 . S
C232 C226 1.465 . S
C232 C231 1.396 . S
C232 C233 1.399 . S
C233 H219 0.929 . S
C233 C232 1.399 . S
C233 C234 1.385 . S
C234 H220 0.931 . S
C234 C233 1.385 . S
C234 C235 1.389 . S
C235 C234 1.389 . S
C235 C236 1.387 . S
C236 H221 0.930 . S
C236 C231 1.390 . S
C236 C235 1.387 . S
H237 C249 0.930 . S
H238 C251 0.930 . S
H239 C252 0.930 . S
H240 C256 0.959 . S
H241 C256 0.959 . S
H242 C256 0.961 . S
H243 C257 0.960 . S
H244 C257 0.961 . S
H245 C257 0.959 . S
H246 C260 0.929 . S
H247 C261 0.931 . S
H248 C263 0.930 . S
C249 H237 0.930 . S
C249 C250 1.399 . S
C249 C254 1.399 . S
C250 C249 1.399 . S
C250 C251 1.376 . S
C251 H238 0.930 . S
C251 C250 1.376 . S
C251 C252 1.388 . S
C252 H239 0.930 . S
C252 C251 1.388 . S
C252 C253 1.390 . S
C253 C252 1.390 . S
C253 C254 1.394 . S
C253 C259 1.465 . S
C254 C249 1.399 . S
C254 C253 1.394 . S
C254 C255 1.516 . S
C255 C254 1.516 . S
C255 C256 1.502 . S
C255 C257 1.561 . S
C255 C258 1.526 . S
C256 H240 0.959 . S
C256 H241 0.959 . S
C256 H242 0.961 . S
C256 C255 1.502 . S
C257 H243 0.960 . S
C257 H244 0.961 . S
C257 H245 0.959 . S
C257 C255 1.561 . S
C258 C255 1.526 . S
C258 C259 1.396 . S
C258 C263 1.390 . S
C259 C253 1.465 . S
C259 C258 1.396 . S
C259 C260 1.399 . S
C260 H246 0.929 . S
C260 C259 1.399 . S
C260 C261 1.385 . S
C261 H247 0.931 . S
C261 C260 1.385 . S
C261 C262 1.389 . S
C262 C261 1.389 . S
C262 C263 1.387 . S
C263 H248 0.930 . S
C263 C258 1.390 . S
C263 C262 1.387 . S
H264 C276 0.930 . S
H265 C278 0.930 . S
H266 C279 0.930 . S
H267 C283 0.959 . S
H268 C283 0.959 . S
H269 C283 0.961 . S
H270 C284 0.960 . S
H271 C284 0.961 . S
H272 C284 0.959 . S
H273 C287 0.929 . S
H274 C288 0.931 . S
H275 C290 0.930 . S
C276 H264 0.930 . S
C276 C277 1.399 . S
C276 C281 1.399 . S
C277 C276 1.399 . S
C277 C278 1.376 . S
C278 H265 0.930 . S
C278 C277 1.376 . S
C278 C279 1.388 . S
C279 H266 0.930 . S
C279 C278 1.388 . S
C279 C280 1.390 . S
C280 C279 1.390 . S
C280 C281 1.394 . S
C280 C286 1.465 . S
C281 C276 1.399 . S
C281 C280 1.394 . S
C281 C282 1.516 . S
C282 C281 1.516 . S
C282 C283 1.502 . S
C282 C284 1.561 . S
C282 C285 1.526 . S
C283 H267 0.959 . S
C283 H268 0.959 . S
C283 H269 0.961 . S
C283 C282 1.502 . S
C284 H270 0.960 . S
C284 H271 0.961 . S
C284 H272 0.959 . S
C284 C282 1.561 . S
C285 C282 1.526 . S
C285 C286 1.396 . S
C285 C290 1.390 . S
C286 C280 1.465 . S
C286 C285 1.396 . S
C286 C287 1.399 . S
C287 H273 0.929 . S
C287 C286 1.399 . S
C287 C288 1.385 . S
C288 H274 0.931 . S
C288 C287 1.385 . S
C288 C289 1.389 . S
C289 C288 1.389 . S
C289 C290 1.387 . S
C290 H275 0.930 . S
C290 C285 1.390 . S
C290 C289 1.387 . S
H291 C303 0.930 . S
H292 C305 0.930 . S
H293 C306 0.930 . S
H294 C310 0.959 . S
H295 C310 0.959 . S
H296 C310 0.961 . S
H297 C311 0.960 . S
H298 C311 0.961 . S
H299 C311 0.959 . S
H300 C314 0.929 . S
H301 C315 0.931 . S
H302 C317 0.930 . S
C303 H291 0.930 . S
C303 C304 1.399 . S
C303 C308 1.399 . S
C304 C303 1.399 . S
C304 C305 1.376 . S
C305 H292 0.930 . S
C305 C304 1.376 . S
C305 C306 1.388 . S
C306 H293 0.930 . S
C306 C305 1.388 . S
C306 C307 1.390 . S
C307 C306 1.390 . S
C307 C308 1.394 . S
C307 C313 1.465 . S
C308 C303 1.399 . S
C308 C307 1.394 . S
C308 C309 1.516 . S
C309 C308 1.516 . S
C309 C310 1.502 . S
C309 C311 1.561 . S
C309 C312 1.526 . S
C310 H294 0.959 . S
C310 H295 0.959 . S
C310 H296 0.961 . S
C310 C309 1.502 . S
C311 H297 0.960 . S
C311 H298 0.961 . S
C311 H299 0.959 . S
C311 C309 1.561 . S
C312 C309 1.526 . S
C312 C313 1.396 . S
C312 C317 1.390 . S
C313 C307 1.465 . S
C313 C312 1.396 . S
C313 C314 1.399 . S
C314 H300 0.929 . S
C314 C313 1.399 . S
C314 C315 1.385 . S
C315 H301 0.931 . S
C315 C314 1.385 . S
C315 C316 1.389 . S
C316 C315 1.389 . S
C316 C317 1.387 . S
C317 H302 0.930 . S
C317 C312 1.390 . S
C317 C316 1.387 . S
H318 C330 0.930 . S
H319 C332 0.931 . S
H320 C333 0.930 . S
H321 C337 0.959 . S
H322 C337 0.959 . S
H323 C337 0.961 . S
H324 C338 0.960 . S
H325 C338 0.961 . S
H326 C338 0.959 . S
H327 C341 0.929 . S
H328 C342 0.931 . S
H329 C344 0.930 . S
C330 H318 0.930 . S
C330 C331 1.399 . S
C330 C335 1.399 . S
C331 C330 1.399 . S
C331 C332 1.376 . S
C332 H319 0.931 . S
C332 C331 1.376 . S
C332 C333 1.388 . S
C333 H320 0.930 . S
C333 C332 1.388 . S
C333 C334 1.390 . S
C334 C333 1.390 . S
C334 C335 1.394 . S
C334 C340 1.465 . S
C335 C330 1.399 . S
C335 C334 1.394 . S
C335 C336 1.516 . S
C336 C335 1.516 . S
C336 C337 1.502 . S
C336 C338 1.561 . S
C336 C339 1.526 . S
C337 H321 0.959 . S
C337 H322 0.959 . S
C337 H323 0.961 . S
C337 C336 1.502 . S
C338 H324 0.960 . S
C338 H325 0.961 . S
C338 H326 0.959 . S
C338 C336 1.561 . S
C339 C336 1.526 . S
C339 C340 1.396 . S
C339 C344 1.390 . S
C340 C334 1.465 . S
C340 C339 1.396 . S
C340 C341 1.399 . S
C341 H327 0.929 . S
C341 C340 1.399 . S
C341 C342 1.385 . S
C342 H328 0.931 . S
C342 C341 1.385 . S
C342 C343 1.389 . S
C343 C342 1.389 . S
C343 C344 1.387 . S
C344 H329 0.930 . S
C344 C339 1.390 . S
C344 C343 1.387 . S
H345 C357 0.930 . S
H346 C359 0.930 . S
H347 C360 0.930 . S
H348 C364 0.959 . S
H349 C364 0.959 . S
H350 C364 0.961 . S
H351 C365 0.960 . S
H352 C365 0.961 . S
H353 C365 0.959 . S
H354 C368 0.929 . S
H355 C369 0.931 . S
H356 C371 0.930 . S
C357 H345 0.930 . S
C357 C358 1.399 . S
C357 C362 1.399 . S
C358 C357 1.399 . S
C358 C359 1.376 . S
C359 H346 0.930 . S
C359 C358 1.376 . S
C359 C360 1.388 . S
C360 H347 0.930 . S
C360 C359 1.388 . S
C360 C361 1.390 . S
C361 C360 1.390 . S
C361 C362 1.394 . S
C361 C367 1.465 . S
C362 C357 1.399 . S
C362 C361 1.394 . S
C362 C363 1.516 . S
C363 C362 1.516 . S
C363 C364 1.502 . S
C363 C365 1.561 . S
C363 C366 1.526 . S
C364 H348 0.959 . S
C364 H349 0.959 . S
C364 H350 0.961 . S
C364 C363 1.502 . S
C365 H351 0.960 . S
C365 H352 0.961 . S
C365 H353 0.959 . S
C365 C363 1.561 . S
C366 C363 1.526 . S
C366 C367 1.396 . S
C366 C371 1.390 . S
C367 C361 1.465 . S
C367 C366 1.396 . S
C367 C368 1.399 . S
C368 H354 0.929 . S
C368 C367 1.399 . S
C368 C369 1.385 . S
C369 H355 0.931 . S
C369 C368 1.385 . S
C369 C370 1.389 . S
C370 C369 1.389 . S
C370 C371 1.387 . S
C371 H356 0.930 . S
C371 C366 1.390 . S
C371 C370 1.387 . S
H372 C384 0.930 . S
H373 C386 0.930 . S
H374 C387 0.930 . S
H375 C391 0.959 . S
H376 C391 0.959 . S
H377 C391 0.961 . S
H378 C392 0.960 . S
H379 C392 0.961 . S
H380 C392 0.959 . S
H381 C395 0.929 . S
H382 C396 0.931 . S
H383 C398 0.930 . S
C384 H372 0.930 . S
C384 C385 1.399 . S
C384 C389 1.399 . S
C385 C384 1.399 . S
C385 C386 1.376 . S
C386 H373 0.930 . S
C386 C385 1.376 . S
C386 C387 1.388 . S
C387 H374 0.930 . S
C387 C386 1.388 . S
C387 C388 1.390 . S
C388 C387 1.390 . S
C388 C389 1.394 . S
C388 C394 1.465 . S
C389 C384 1.399 . S
C389 C388 1.394 . S
C389 C390 1.516 . S
C390 C389 1.516 . S
C390 C391 1.502 . S
C390 C392 1.561 . S
C390 C393 1.526 . S
C391 H375 0.959 . S
C391 H376 0.959 . S
C391 H377 0.961 . S
C391 C390 1.502 . S
C392 H378 0.960 . S
C392 H379 0.961 . S
C392 H380 0.959 . S
C392 C390 1.561 . S
C393 C390 1.526 . S
C393 C394 1.396 . S
C393 C398 1.390 . S
C394 C388 1.465 . S
C394 C393 1.396 . S
C394 C395 1.399 . S
C395 H381 0.929 . S
C395 C394 1.399 . S
C395 C396 1.385 . S
C396 H382 0.931 . S
C396 C395 1.385 . S
C396 C397 1.389 . S
C397 C396 1.389 . S
C397 C398 1.387 . S
C398 H383 0.930 . S
C398 C393 1.390 . S
C398 C397 1.387 . S
H399 C411 0.930 . S
H400 C413 0.930 . S
H401 C414 0.930 . S
H402 C418 0.959 . S
H403 C418 0.959 . S
H404 C418 0.961 . S
H405 C419 0.960 . S
H406 C419 0.961 . S
H407 C419 0.959 . S
H408 C422 0.929 . S
H409 C423 0.931 . S
H410 C425 0.930 . S
C411 H399 0.930 . S
C411 C412 1.399 . S
C411 C416 1.399 . S
C412 C411 1.399 . S
C412 C413 1.376 . S
C413 H400 0.930 . S
C413 C412 1.376 . S
C413 C414 1.388 . S
C414 H401 0.930 . S
C414 C413 1.388 . S
C414 C415 1.390 . S
C415 C414 1.390 . S
C415 C416 1.394 . S
C415 C421 1.465 . S
C416 C411 1.399 . S
C416 C415 1.394 . S
C416 C417 1.516 . S
C417 C416 1.516 . S
C417 C418 1.502 . S
C417 C419 1.561 . S
C417 C420 1.526 . S
C418 H402 0.959 . S
C418 H403 0.959 . S
C418 H404 0.961 . S
C418 C417 1.502 . S
C419 H405 0.960 . S
C419 H406 0.961 . S
C419 H407 0.959 . S
C419 C417 1.561 . S
C420 C417 1.526 . S
C420 C421 1.396 . S
C420 C425 1.390 . S
C421 C415 1.465 . S
C421 C420 1.396 . S
C421 C422 1.399 . S
C422 H408 0.929 . S
C422 C421 1.399 . S
C422 C423 1.385 . S
C423 H409 0.931 . S
C423 C422 1.385 . S
C423 C424 1.389 . S
C424 C423 1.389 . S
C424 C425 1.387 . S
C425 H410 0.930 . S
C425 C420 1.390 . S
C425 C424 1.387 . S
H426 C438 0.930 . S
H427 C440 0.930 . S
H428 C441 0.930 . S
H429 C445 0.959 . S
H430 C445 0.959 . S
H431 C445 0.961 . S
H432 C446 0.960 . S
H433 C446 0.961 . S
H434 C446 0.959 . S
H435 C449 0.929 . S
H436 C450 0.931 . S
H437 C452 0.930 . S
C438 H426 0.930 . S
C438 C439 1.399 . S
C438 C443 1.399 . S
C439 C438 1.399 . S
C439 C440 1.376 . S
C440 H427 0.930 . S
C440 C439 1.376 . S
C440 C441 1.388 . S
C441 H428 0.930 . S
C441 C440 1.388 . S
C441 C442 1.390 . S
C442 C441 1.390 . S
C442 C443 1.394 . S
C442 C448 1.465 . S
C443 C438 1.399 . S
C443 C442 1.394 . S
C443 C444 1.516 . S
C444 C443 1.516 . S
C444 C445 1.502 . S
C444 C446 1.561 . S
C444 C447 1.526 . S
C445 H429 0.959 . S
C445 H430 0.959 . S
C445 H431 0.961 . S
C445 C444 1.502 . S
C446 H432 0.960 . S
C446 H433 0.961 . S
C446 H434 0.959 . S
C446 C444 1.561 . S
C447 C444 1.526 . S
C447 C448 1.396 . S
C447 C452 1.390 . S
C448 C442 1.465 . S
C448 C447 1.396 . S
C448 C449 1.399 . S
C449 H435 0.929 . S
C449 C448 1.399 . S
C449 C450 1.385 . S
C450 H436 0.931 . S
C450 C449 1.385 . S
C450 C451 1.389 . S
C451 C450 1.389 . S
C451 C452 1.387 . S
C452 H437 0.930 . S
C452 C447 1.390 . S
C452 C451 1.387 . S
H453 C465 0.930 . S
H454 C467 0.930 . S
H455 C468 0.930 . S
H456 C472 0.959 . S
H457 C472 0.959 . S
H458 C472 0.961 . S
H459 C473 0.960 . S
H460 C473 0.961 . S
H461 C473 0.959 . S
H462 C476 0.929 . S
H463 C477 0.931 . S
H464 C479 0.930 . S
C465 H453 0.930 . S
C465 C466 1.399 . S
C465 C470 1.399 . S
C466 C465 1.399 . S
C466 C467 1.376 . S
C467 H454 0.930 . S
C467 C466 1.376 . S
C467 C468 1.388 . S
C468 H455 0.930 . S
C468 C467 1.388 . S
C468 C469 1.390 . S
C469 C468 1.390 . S
C469 C470 1.394 . S
C469 C475 1.465 . S
C470 C465 1.399 . S
C470 C469 1.394 . S
C470 C471 1.516 . S
C471 C470 1.516 . S
C471 C472 1.502 . S
C471 C473 1.561 . S
C471 C474 1.526 . S
C472 H456 0.959 . S
C472 H457 0.959 . S
C472 H458 0.961 . S
C472 C471 1.502 . S
C473 H459 0.960 . S
C473 H460 0.961 . S
C473 H461 0.959 . S
C473 C471 1.561 . S
C474 C471 1.526 . S
C474 C475 1.396 . S
C474 C479 1.390 . S
C475 C469 1.465 . S
C475 C474 1.396 . S
C475 C476 1.399 . S
C476 H462 0.929 . S
C476 C475 1.399 . S
C476 C477 1.385 . S
C477 H463 0.931 . S
C477 C476 1.385 . S
C477 C478 1.389 . S
C478 C477 1.389 . S
C478 C479 1.387 . S
C479 H464 0.930 . S
C479 C474 1.390 . S
C479 C478 1.387 . S
H480 C492 0.930 . S
H481 C494 0.930 . S
H482 C495 0.930 . S
H483 C499 0.959 . S
H484 C499 0.959 . S
H485 C499 0.961 . S
H486 C500 0.960 . S
H487 C500 0.961 . S
H488 C500 0.959 . S
H489 C503 0.929 . S
H490 C504 0.931 . S
H491 C506 0.930 . S
C492 H480 0.930 . S
C492 C493 1.399 . S
C492 C497 1.399 . S
C493 C492 1.399 . S
C493 C494 1.376 . S
C494 H481 0.930 . S
C494 C493 1.376 . S
C494 C495 1.388 . S
C495 H482 0.930 . S
C495 C494 1.388 . S
C495 C496 1.390 . S
C496 C495 1.390 . S
C496 C497 1.394 . S
C496 C502 1.465 . S
C497 C492 1.399 . S
C497 C496 1.394 . S
C497 C498 1.516 . S
C498 C497 1.516 . S
C498 C499 1.502 . S
C498 C500 1.561 . S
C498 C501 1.526 . S
C499 H483 0.959 . S
C499 H484 0.959 . S
C499 H485 0.961 . S
C499 C498 1.502 . S
C500 H486 0.960 . S
C500 H487 0.961 . S
C500 H488 0.959 . S
C500 C498 1.561 . S
C501 C498 1.526 . S
C501 C502 1.396 . S
C501 C506 1.390 . S
C502 C496 1.465 . S
C502 C501 1.396 . S
C502 C503 1.399 . S
C503 H489 0.929 . S
C503 C502 1.399 . S
C503 C504 1.385 . S
C504 H490 0.931 . S
C504 C503 1.385 . S
C504 C505 1.389 . S
C505 C504 1.389 . S
C505 C506 1.387 . S
C506 H491 0.930 . S
C506 C501 1.390 . S
C506 C505 1.387 . S
H507 C519 0.930 . S
H508 C521 0.930 . S
H509 C522 0.930 . S
H510 C526 0.959 . S
H511 C526 0.959 . S
H512 C526 0.961 . S
H513 C527 0.960 . S
H514 C527 0.961 . S
H515 C527 0.959 . S
H516 C530 0.929 . S
H517 C531 0.931 . S
H518 C533 0.930 . S
C519 H507 0.930 . S
C519 C520 1.399 . S
C519 C524 1.399 . S
C520 C519 1.399 . S
C520 C521 1.376 . S
C521 H508 0.930 . S
C521 C520 1.376 . S
C521 C522 1.388 . S
C522 H509 0.930 . S
C522 C521 1.388 . S
C522 C523 1.390 . S
C523 C522 1.390 . S
C523 C524 1.394 . S
C523 C529 1.465 . S
C524 C519 1.399 . S
C524 C523 1.394 . S
C524 C525 1.516 . S
C525 C524 1.516 . S
C525 C526 1.502 . S
C525 C527 1.561 . S
C525 C528 1.526 . S
C526 H510 0.959 . S
C526 H511 0.959 . S
C526 H512 0.961 . S
C526 C525 1.502 . S
C527 H513 0.960 . S
C527 H514 0.961 . S
C527 H515 0.959 . S
C527 C525 1.561 . S
C528 C525 1.526 . S
C528 C529 1.396 . S
C528 C533 1.390 . S
C529 C523 1.465 . S
C529 C528 1.396 . S
C529 C530 1.399 . S
C530 H516 0.929 . S
C530 C529 1.399 . S
C530 C531 1.385 . S
C531 H517 0.931 . S
C531 C530 1.385 . S
C531 C532 1.389 . S
C532 C531 1.389 . S
C532 C533 1.387 . S
C533 H518 0.930 . S
C533 C528 1.390 . S
C533 C532 1.387 . S
C223 C58 1.161 . S
C235 C187 1.307 . S
C250 C151 1.524 . S
C262 C193 1.452 . S
C277 C56 1.602 . S
C289 C184 1.531 . S
C304 C153 1.287 . S
C316 C209 1.243 . S
C331 C74 1.582 . S
C343 C175 1.503 . S
C370 C192 1.562 . S
C358 C147 1.629 . S
C385 C142 1.091 . S
C397 C188 1.311 . S
C424 C205 1.570 . S
C412 C63 1.620 . S
C451 C172 1.396 . S
C439 C158 1.609 . S
C478 C208 1.332 . S
C466 C69 1.156 . S
C505 C171 1.480 . S
C493 C140 1.613 . S
C532 C196 1.452 . S
C520 C67 1.535 . S
