# Generated by pormake.
# Topology anh, (6,3)-cn, num edge types: 1
# Building blocks:
#     Node 0, Type 0, BuildingBlock: HISSIN_clean_sbu_0, # of connection points: 6
#     Node 1, Type 0, BuildingBlock: HISSIN_clean_sbu_0, # of connection points: 6
#     Node 2, Type 0, BuildingBlock: HISSIN_clean_sbu_0, # of connection points: 6
#     Node 3, Type 1, BuildingBlock: WUSLED_clean_sbu_0, # of connection points: 3
#     Node 4, Type 1, BuildingBlock: WUSLED_clean_sbu_0, # of connection points: 3
#     Node 5, Type 1, BuildingBlock: WUSLED_clean_sbu_0, # of connection points: 3
#     Node 6, Type 1, BuildingBlock: WUSLED_clean_sbu_0, # of connection points: 3
#     Node 7, Type 1, BuildingBlock: WUSLED_clean_sbu_0, # of connection points: 3
#     Node 8, Type 1, BuildingBlock: WUSLED_clean_sbu_0, # of connection points: 3
#     Edge 9, Type (0, 1), BuildingBlock: AJUNOK_clean_linker_0, # of connection points: 2
#     Edge 10, Type (0, 1), BuildingBlock: AJUNOK_clean_linker_0, # of connection points: 2
#     Edge 11, Type (0, 1), BuildingBlock: AJUNOK_clean_linker_0, # of connection points: 2
#     Edge 12, Type (0, 1), BuildingBlock: AJUNOK_clean_linker_0, # of connection points: 2
#     Edge 13, Type (0, 1), BuildingBlock: AJUNOK_clean_linker_0, # of connection points: 2
#     Edge 14, Type (0, 1), BuildingBlock: AJUNOK_clean_linker_0, # of connection points: 2
#     Edge 15, Type (0, 1), BuildingBlock: AJUNOK_clean_linker_0, # of connection points: 2
#     Edge 16, Type (0, 1), BuildingBlock: AJUNOK_clean_linker_0, # of connection points: 2
#     Edge 17, Type (0, 1), BuildingBlock: AJUNOK_clean_linker_0, # of connection points: 2
#     Edge 18, Type (0, 1), BuildingBlock: AJUNOK_clean_linker_0, # of connection points: 2
#     Edge 19, Type (0, 1), BuildingBlock: AJUNOK_clean_linker_0, # of connection points: 2
#     Edge 20, Type (0, 1), BuildingBlock: AJUNOK_clean_linker_0, # of connection points: 2
#     Edge 21, Type (0, 1), BuildingBlock: AJUNOK_clean_linker_0, # of connection points: 2
#     Edge 22, Type (0, 1), BuildingBlock: AJUNOK_clean_linker_0, # of connection points: 2
#     Edge 23, Type (0, 1), BuildingBlock: AJUNOK_clean_linker_0, # of connection points: 2
#     Edge 24, Type (0, 1), BuildingBlock: AJUNOK_clean_linker_0, # of connection points: 2
#     Edge 25, Type (0, 1), BuildingBlock: AJUNOK_clean_linker_0, # of connection points: 2
#     Edge 26, Type (0, 1), BuildingBlock: AJUNOK_clean_linker_0, # of connection points: 2
# Relax obj value: 0.265
# Max RMSD: 0.188
# Mean RMSD: 0.154
data_MOF--net-anh--node1-HISSIN_clean_sbu_0--node2-WUSLED_clean_sbu_0--edge1-AJUNOK_clean_linker_0
_symmetry_space_group_name_H-M    P1
_symmetry_Int_Tables_number       1
_symmetry_cell_setting            triclinic
loop_
_symmetry_equiv_pos_as_xyz
'x, y, z'
_cell_length_a     31.96295
_cell_length_b     31.981889
_cell_length_c     56.275025
_cell_angle_alpha  91.936248
_cell_angle_beta   90.210675
_cell_angle_gamma 120.46064
loop_
_atom_site_label
_atom_site_type_symbol
_atom_site_fract_x
_atom_site_fract_y
_atom_site_fract_z
_atom_type_partial_charge
Eu0 Eu 1.08793 0.51794 0.1749 0.0
Eu1 Eu 0.12608 0.62347 0.17812 0.0
C2 C 0.10407 0.56933 0.22803 0.0
C3 C 1.00007 0.39508 0.1733 0.0
C4 C 0.98234 0.41385 0.19091 0.0
C5 C 0.91886 0.33792 0.15969 0.0
C6 C 0.93341 0.39569 0.19252 0.0
C7 C 0.96845 0.35714 0.15764 0.0
C8 C 0.9018 0.35752 0.17712 0.0
C9 C 1.04915 0.42638 0.16683 0.0
O10 O 0.19621 0.61712 0.17011 0.0
O11 O 0.16698 0.53934 0.18 0.0
C12 C 0.20406 0.5804 0.17366 0.0
O13 O 0.12466 0.54876 0.14078 0.0
O14 O 0.16104 0.69793 0.19216 0.0
O15 O 0.13481 0.68065 0.15548 0.0
O16 O 1.08834 0.59163 0.14307 0.0
C17 C 0.10626 0.57089 0.13004 0.0
O18 O 1.01698 0.52413 0.16909 0.0
O19 O 1.04646 0.60101 0.1838 0.0
O20 O 0.12369 0.61119 0.2177 0.0
O21 O 1.05186 0.45546 0.15045 0.0
O22 O 1.07905 0.44882 0.18485 0.0
O23 O 1.08483 0.52847 0.21505 0.0
C24 C 0.20932 0.74848 0.16336 0.0
C25 C 0.23658 0.7302 0.15247 0.0
C26 C 0.28132 0.82584 0.17053 0.0
C27 C 0.28657 0.75897 0.15204 0.0
C28 C 0.23123 0.7969 0.17126 0.0
C29 C 0.30895 0.80587 0.16208 0.0
C30 C 0.16153 0.71462 0.17126 0.0
C31 C 1.0091 0.56053 0.17496 0.0
H32 H 1.00634 0.44487 0.20241 0.0
H33 H 0.89392 0.30801 0.14786 0.0
H34 H 0.92011 0.41105 0.20589 0.0
H35 H 0.98212 0.34433 0.14327 0.0
H36 H 0.21976 0.69262 0.14623 0.0
H37 H 0.29873 0.86199 0.17884 0.0
H38 H 0.30809 0.7437 0.1459 0.0
H39 H 0.2103 0.81084 0.17992 0.0
Eu40 Eu 0.65346 1.05884 0.50864 0.0
Eu41 Eu 0.59429 0.10522 0.51508 0.0
C42 C 0.62402 0.07335 0.56314 0.0
C43 C 0.70481 0.98382 0.50638 0.0
C44 C 0.66817 0.95862 0.52274 0.0
C45 C 0.70087 0.91062 0.49258 0.0
C46 C 0.64781 0.90944 0.52396 0.0
C47 C 0.72089 0.96008 0.49109 0.0
C48 C 0.6648 0.8859 0.50915 0.0
C49 C 0.71424 1.03054 0.50098 0.0
O50 O 0.6717 0.17519 0.51542 0.0
O51 O 0.71049 0.1373 0.50139 0.0
C52 C 0.712 0.17795 0.50723 0.0
O53 O 0.61969 1.05217 0.47268 0.0
O54 O 0.56709 0.14974 0.53034 0.0
O55 O 0.53111 0.10249 0.49906 0.0
O56 O 0.62719 0.12453 0.4793 0.0
C57 C 0.6247 0.09164 0.4643 0.0
O58 O 0.57942 0.9862 0.50936 0.0
O59 O 0.53642 1.02456 0.50658 0.0
O60 O 0.60048 0.09258 0.55373 0.0
O61 O 0.68398 1.02798 0.48467 0.0
O62 O 0.71799 1.05778 0.51958 0.0
O63 O 0.64656 1.05727 0.54933 0.0
C64 C 0.54609 0.18139 0.49935 0.0
C65 C 0.57802 0.19556 0.48019 0.0
C66 C 0.55831 0.26157 0.50343 0.0
C67 C 0.60276 0.24367 0.47381 0.0
C68 C 0.53423 0.21373 0.50999 0.0
C69 C 0.59453 0.27734 0.48616 0.0
C70 C 0.53705 0.13942 0.51229 0.0
C71 C 0.53694 0.98348 0.50616 0.0
H72 H 0.65387 0.97661 0.53385 0.0
H73 H 0.7142 0.89187 0.48136 0.0
H74 H 0.62009 0.88998 0.53687 0.0
H75 H 0.74742 0.9794 0.47768 0.0
H76 H 0.58718 0.17071 0.47157 0.0
H77 H 0.55236 0.28715 0.51381 0.0
H78 H 0.63097 0.2553 0.46077 0.0
H79 H 0.51042 0.20339 0.52505 0.0
Eu80 Eu 0.56711 0.54619 0.84125 0.0
Eu81 Eu 0.67132 0.61267 0.84747 0.0
C82 C 0.61227 0.57521 0.89478 0.0
C83 C 0.44424 0.5128 0.83328 0.0
C84 C 0.45493 0.54824 0.85136 0.0
C85 C 0.40044 0.54239 0.81107 0.0
C86 C 0.43936 0.58088 0.84914 0.0
C87 C 0.41638 0.50946 0.81325 0.0
C88 C 0.41278 0.5788 0.82882 0.0
C89 C 0.47589 0.49308 0.83162 0.0
O90 O 0.66794 0.53741 0.83789 0.0
O91 O 0.58915 0.48959 0.84701 0.0
C92 C 0.63027 0.49263 0.84093 0.0
O93 O 0.601 0.54103 0.80711 0.0
O94 O 0.73884 0.6606 0.86689 0.0
O95 O 0.73537 0.66043 0.82843 0.0
O96 O 0.64971 0.62032 0.81094 0.0
C97 C 0.62845 0.58179 0.79712 0.0
O98 O 0.5753 0.62219 0.83314 0.0
O99 O 0.64552 0.6675 0.85381 0.0
O100 O 0.65291 0.58543 0.88462 0.0
O101 O 0.50796 0.5138 0.81529 0.0
O102 O 0.49499 0.49058 0.85173 0.0
O103 O 0.5749 0.56725 0.88128 0.0
C104 C 0.79977 0.65823 0.84534 0.0
C105 C 0.80977 0.6462 0.82265 0.0
C106 C 0.83713 0.61783 0.86348 0.0
C107 C 0.83071 0.61786 0.82041 0.0
C108 C 0.81475 0.64499 0.86576 0.0
C109 C 0.84438 0.6036 0.84077 0.0
C110 C 0.76333 0.67216 0.8473 0.0
C111 C 0.60922 0.66581 0.84178 0.0
H112 H 0.47788 0.55284 0.86663 0.0
H113 H 0.37867 0.53961 0.79564 0.0
H114 H 0.44748 0.60729 0.86363 0.0
H115 H 0.4096 0.48344 0.79876 0.0
H116 H 0.7987 0.65607 0.80655 0.0
H117 H 0.84953 0.60876 0.87939 0.0
H118 H 0.8372 0.60784 0.8028 0.0
H119 H 0.80733 0.65379 0.88343 0.0
C120 C 0.61587 0.17095 0.20575 0.0
C121 C 0.63525 0.21489 0.21917 0.0
C122 C 0.69999 0.25142 0.19165 0.0
C123 C 0.67716 0.25526 0.212 0.0
C124 C 0.67747 0.2096 0.17664 0.0
C125 C 0.63516 0.16916 0.18372 0.0
U126 U 0.59324 0.11003 0.26247 0.0
O127 O 0.58601 1.0406 0.27115 0.0
O128 O 0.52634 1.05439 0.27867 0.0
C129 C 0.53925 1.02177 0.27433 0.0
C130 C 0.58752 0.12624 0.21791 0.0
C131 C 0.51011 0.98422 0.25621 0.0
C132 C 0.45899 0.96252 0.22083 0.0
C133 C 0.47682 0.98943 0.24201 0.0
C134 C 0.50821 0.9257 0.22717 0.0
C135 C 0.47416 0.93012 0.21352 0.0
C136 C 0.52551 0.95203 0.24861 0.0
C137 C 0.65328 0.16214 0.31832 0.0
C138 C 0.60959 0.11068 0.35077 0.0
C139 C 0.69619 0.16759 0.35481 0.0
C140 C 0.69663 0.18241 0.33169 0.0
C141 C 0.65237 0.13251 0.36466 0.0
C142 C 0.6101 0.1252 0.32778 0.0
C143 C 0.65261 0.17418 0.29356 0.0
O144 O 0.6141 0.10856 0.22558 0.0
O145 O 0.55809 0.1272 0.23391 0.0
O146 O 0.61223 0.17249 0.28681 0.0
O147 O 0.66671 0.15154 0.27858 0.0
H148 H 0.62149 0.2166 0.23652 0.0
H149 H 0.69475 0.28744 0.22373 0.0
H150 H 0.69546 0.20628 0.161 0.0
H151 H 0.62105 0.13517 0.1735 0.0
H152 H 0.43167 0.9654 0.2107 0.0
H153 H 0.46536 1.01511 0.24686 0.0
H154 H 0.51955 0.90019 0.22175 0.0
H155 H 0.55248 0.9488 0.2588 0.0
H156 H 0.57541 0.08359 0.35796 0.0
H157 H 0.72982 0.18409 0.36516 0.0
H158 H 0.73052 0.20947 0.32429 0.0
H159 H 0.57643 0.10769 0.31745 0.0
C160 C 0.64899 0.6244 0.53459 0.0
C161 C 0.62081 0.63661 0.54907 0.0
C162 C 0.63918 0.70231 0.52411 0.0
C163 C 0.61577 0.67551 0.54376 0.0
C164 C 0.66453 0.68839 0.50862 0.0
C165 C 0.66953 0.64913 0.51393 0.0
U166 U 0.6758 0.5844 0.58941 0.0
O167 O 0.65893 0.51197 0.59974 0.0
O168 O 0.73488 0.57213 0.60003 0.0
C169 C 0.70499 0.52481 0.59832 0.0
C170 C 0.66665 0.59545 0.54457 0.0
C171 C 0.71381 0.50061 0.57816 0.0
C172 C 0.71352 0.49498 0.53497 0.0
C173 C 0.72129 0.52212 0.55596 0.0
C174 C 0.69625 0.42548 0.55804 0.0
C175 C 0.69988 0.44627 0.5359 0.0
C176 C 0.70251 0.45245 0.57916 0.0
C177 C 0.65251 0.62371 0.64742 0.0
C178 C 0.65766 0.58007 0.6805 0.0
C179 C 0.63986 0.64485 0.6872 0.0
C180 C 0.64259 0.65255 0.66287 0.0
C181 C 0.64671 0.6081 0.69605 0.0
C182 C 0.6606 0.5879 0.6563 0.0
C183 C 0.65307 0.62892 0.62188 0.0
O184 O 0.70766 0.62196 0.55669 0.0
O185 O 0.63374 0.55803 0.5559 0.0
O186 O 0.62044 0.58924 0.61018 0.0
O187 O 0.69656 0.64874 0.61278 0.0
H188 H 0.60603 0.61865 0.56552 0.0
H189 H 0.59642 0.68664 0.55578 0.0
H190 H 0.68316 0.70984 0.49353 0.0
H191 H 0.69241 0.64062 0.5031 0.0
H192 H 0.71602 0.51132 0.51808 0.0
H193 H 0.72997 0.5592 0.55473 0.0
H194 H 0.68512 0.38745 0.55894 0.0
H195 H 0.6954 0.43495 0.59601 0.0
H196 H 0.664 0.55224 0.68706 0.0
H197 H 0.63155 0.66692 0.69906 0.0
H198 H 0.63645 0.68038 0.65613 0.0
H199 H 0.66862 0.56561 0.64442 0.0
C200 C 1.08777 0.6011 0.86958 0.0
C201 C 1.05088 0.59378 0.88512 0.0
C202 C 0.99529 0.56852 0.8518 0.0
C203 C 1.005 0.57812 0.87628 0.0
C204 C 1.03206 0.57472 0.83623 0.0
C205 C 1.07865 0.59115 0.84518 0.0
U206 U 0.15362 0.62281 0.92522 0.0
O207 O 0.20536 0.60108 0.93688 0.0
O208 O 0.2258 0.67802 0.93928 0.0
C209 C 0.2409 0.64666 0.93773 0.0
C210 C 0.13469 0.61736 0.87995 0.0
C211 C 0.27496 0.65679 0.91877 0.0
C212 C 0.28255 0.65786 0.87602 0.0
C213 C 0.25835 0.65862 0.89596 0.0
C214 C 0.34444 0.65859 0.90149 0.0
C215 C 0.32521 0.6571 0.87866 0.0
C216 C 0.31882 0.65784 0.9217 0.0
C217 C 1.0894 0.59725 0.98107 0.0
C218 C 0.12239 0.57562 0.01403 0.0
C219 C 1.07174 0.61106 0.02116 0.0
C220 C 1.06697 0.61406 0.99679 0.0
C221 C 1.09823 0.59039 0.02982 0.0
C222 C 0.11844 0.57952 0.9898 0.0
C223 C 1.08571 0.60105 0.95562 0.0
O224 O 0.15172 0.65818 0.8928 0.0
O225 O 0.13664 0.58272 0.89087 0.0
O226 O 1.08906 0.56777 0.94278 0.0
O227 O 0.1124 0.64534 0.9481 0.0
H228 H 1.05797 0.60147 0.90408 0.0
H229 H 0.97799 0.57621 0.88849 0.0
H230 H 1.02509 0.56882 0.81721 0.0
H231 H 0.10735 0.59673 0.83322 0.0
H232 H 0.26696 0.65581 0.85855 0.0
H233 H 0.22528 0.65852 0.89347 0.0
H234 H 0.3774 0.65715 0.90355 0.0
H235 H 0.3319 0.65602 0.93919 0.0
H236 H 0.14339 0.56004 0.02035 0.0
H237 H 1.05437 0.62439 0.03321 0.0
H238 H 1.04596 0.62944 0.99023 0.0
H239 H 0.13765 0.56807 0.97789 0.0
C240 C 0.99833 0.45588 0.48245 0.0
C241 C 0.98572 0.41033 0.47148 0.0
C242 C 0.9041 0.36631 0.49088 0.0
C243 C 0.93997 0.36716 0.47534 0.0
C244 C 0.91835 0.41265 0.5019 0.0
C245 C 0.96325 0.45544 0.49768 0.0
U246 U 0.12242 0.57524 0.4583 0.0
O247 O 0.1605 0.64957 0.47573 0.0
O248 O 0.19739 0.60825 0.47453 0.0
C249 C 0.20072 0.64977 0.48108 0.0
C250 C 1.04863 0.50275 0.48127 0.0
C251 C 0.25038 0.69786 0.48142 0.0
C252 C 0.33477 0.74816 0.49827 0.0
C253 C 0.29016 0.70299 0.49504 0.0
C254 C 0.30317 0.78572 0.47365 0.0
C255 C 0.34338 0.79179 0.48786 0.0
C256 C 0.25808 0.74068 0.47094 0.0
C257 C 0.11461 0.57274 0.38486 0.0
C258 C 0.14098 0.61393 0.34719 0.0
C259 C 1.08102 0.52854 0.34669 0.0
C260 C 1.0837 0.52951 0.37174 0.0
C261 C 0.11027 0.57052 0.3338 0.0
C262 C 0.14284 0.61504 0.37229 0.0
C263 C 0.11742 0.57361 0.41146 0.0
O264 O 1.08684 0.50149 0.47361 0.0
O265 O 1.05165 0.54436 0.47692 0.0
O266 O 1.10064 0.59575 0.42509 0.0
O267 O 0.13683 0.55228 0.42301 0.0
H268 H 1.01141 0.40772 0.45994 0.0
H269 H 0.9336 0.33442 0.46594 0.0
H270 H 0.89627 0.41782 0.51453 0.0
H271 H 0.97115 0.48879 0.50718 0.0
H272 H 0.36215 0.74829 0.50959 0.0
H273 H 0.2864 0.67181 0.50394 0.0
H274 H 0.30536 0.81513 0.46397 0.0
H275 H 0.22899 0.73961 0.46051 0.0
H276 H 0.16429 0.64716 0.33829 0.0
H277 H 1.05525 0.49473 0.33753 0.0
H278 H 1.06101 0.4964 0.3809 0.0
H279 H 0.16698 0.64898 0.38189 0.0
C280 C 0.62364 0.95554 0.8168 0.0
C281 C 0.59141 0.91326 0.80299 0.0
C282 C 0.61746 0.85973 0.82274 0.0
C283 C 0.58869 0.86737 0.80568 0.0
C284 C 0.64995 0.90303 0.83635 0.0
C285 C 0.6529 0.94883 0.83345 0.0
U286 U 0.6255 0.07854 0.79343 0.0
O287 O 0.58639 0.11408 0.80954 0.0
O288 O 0.6651 0.15429 0.80972 0.0
C289 C 0.62587 0.15578 0.81523 0.0
C290 C 0.62403 1.00461 0.8165 0.0
C291 C 0.62539 0.20451 0.81565 0.0
C292 C 0.58866 0.25277 0.83102 0.0
C293 C 0.58774 0.20787 0.82706 0.0
C294 C 0.66457 0.29467 0.81161 0.0
C295 C 0.62673 0.29832 0.82321 0.0
C296 C 0.66421 0.24956 0.80822 0.0
C297 C 0.62686 0.07386 0.71994 0.0
C298 C 0.62546 0.10962 0.68231 0.0
C299 C 0.62942 1.03623 0.68169 0.0
C300 C 0.62918 1.037 0.70676 0.0
C301 C 0.628 0.07276 0.6689 0.0
C302 C 0.62483 0.11011 0.70741 0.0
C303 C 0.62644 0.07392 0.74656 0.0
O304 O 0.66382 1.04537 0.81174 0.0
O305 O 0.58522 1.00557 0.80947 0.0
O306 O 0.58604 1.0559 0.75848 0.0
O307 O 0.66639 0.09533 0.75981 0.0
H308 H 0.56743 0.91531 0.79004 0.0
H309 H 0.56296 0.83836 0.79399 0.0
H310 H 0.67352 0.90244 0.84992 0.0
H311 H 0.6779 0.97935 0.84496 0.0
H312 H 0.55945 0.25072 0.84134 0.0
H313 H 0.55764 0.17535 0.83395 0.0
H314 H 0.69534 0.32697 0.80508 0.0
H315 H 0.69505 0.25029 0.79991 0.0
H316 H 0.62442 0.13858 0.67341 0.0
H317 H 0.62974 1.00624 0.67238 0.0
H318 H 0.6304 1.00833 0.71589 0.0
H319 H 0.62293 0.13898 0.71704 0.0
C320 C 0.72977 0.5702 0.14725 0.0
C321 C 0.7344 0.53109 0.13794 0.0
C322 C 0.81969 0.56431 0.15466 0.0
C323 C 0.77761 0.52845 0.14127 0.0
C324 C 0.81439 0.6037 0.16374 0.0
C325 C 0.77133 0.60645 0.16018 0.0
U326 U 0.60568 0.57175 0.12497 0.0
O327 O 0.53256 0.53199 0.14179 0.0
O328 O 0.57197 0.61066 0.14296 0.0
C329 C 0.53138 0.57128 0.14834 0.0
C330 C 0.68109 0.57075 0.14678 0.0
C331 C 0.48244 0.57098 0.14854 0.0
C332 C 0.40121 0.54224 0.16649 0.0
C333 C 0.44447 0.5399 0.16346 0.0
C334 C 0.43033 0.60612 0.13917 0.0
C335 C 0.39207 0.5758 0.15469 0.0
C336 C 0.47398 0.60417 0.13646 0.0
C337 C 0.60515 0.57364 0.0515 0.0
C338 C 0.56636 0.56559 0.01255 0.0
C339 C 0.64937 0.58381 0.01459 0.0
C340 C 0.6476 0.58319 0.03968 0.0
C341 C 0.60853 0.57444 1.00043 0.0
C342 C 0.56473 0.56514 0.03759 0.0
C343 C 0.60223 0.57253 0.07809 0.0
O344 O 0.68016 0.61048 0.14241 0.0
O345 O 0.64004 0.5318 0.13978 0.0
O346 O 0.58278 0.53207 0.08965 0.0
O347 O 0.62486 0.61233 0.09172 0.0
H348 H 0.70395 0.50151 0.12816 0.0
H349 H 0.77632 0.49703 0.13306 0.0
H350 H 0.84325 0.63312 0.17421 0.0
H351 H 0.77025 0.63708 0.16829 0.0
H352 H 0.37547 0.51747 0.17876 0.0
H353 H 0.4487 0.51396 0.17354 0.0
H354 H 0.42809 0.63231 0.12865 0.0
H355 H 0.50155 0.6294 0.12487 0.0
H356 H 0.53403 0.55815 1.00266 0.0
H357 H 0.68321 0.59242 0.00638 0.0
H358 H 0.67951 0.59023 0.04986 0.0
H359 H 0.53155 0.558 0.04613 0.0
C360 C 0.262 0.54594 0.17767 0.0
C361 C 0.2531 0.58202 0.16901 0.0
C362 C 0.30528 0.54433 0.17296 0.0
C363 C 0.34418 0.57862 0.159 0.0
H364 H 0.23479 0.51785 0.18835 0.0
H365 H 0.30708 0.51471 0.18048 0.0
S366 S 0.33692 0.67798 0.12921 0.0
N367 N 0.28573 0.65055 0.14375 0.0
N368 N 0.36597 0.6492 0.13532 0.0
C369 C 0.33471 0.6144 0.14973 0.0
C370 C 0.29019 0.61571 0.15458 0.0
C371 C 0.7979 0.22793 0.48963 0.0
C372 C 0.75975 0.22632 0.50321 0.0
C373 C 0.84277 0.27187 0.48591 0.0
C374 C 0.85381 0.31842 0.49548 0.0
H375 H 0.79324 0.19451 0.48162 0.0
H376 H 0.86901 0.26823 0.47541 0.0
S377 S 0.76679 0.33311 0.53472 0.0
N378 N 0.73722 0.27473 0.52743 0.0
N379 N 0.8187 0.35609 0.52085 0.0
C380 C 0.81529 0.31644 0.50949 0.0
C381 C 0.7696 0.27136 0.51315 0.0
C382 C 0.64322 0.75914 0.84816 0.0
C383 C 0.6093 0.7139 0.83682 0.0
C384 C 0.64542 0.80416 0.8435 0.0
C385 C 0.61406 0.80877 0.82687 0.0
H386 H 0.66907 0.76014 0.86099 0.0
H387 H 0.67314 0.83573 0.85332 0.0
S388 S 0.52189 0.70151 0.78935 0.0
N389 N 0.546 0.67778 0.80633 0.0
N390 N 0.5492 0.75961 0.79754 0.0
C391 C 0.58069 0.76327 0.81482 0.0
C392 C 0.57855 0.7173 0.81973 0.0
C393 C 0.95305 0.59837 0.17695 0.0
C394 C 0.95966 0.5589 0.17006 0.0
C395 C 0.90945 0.59956 0.17198 0.0
C396 C 0.86764 0.56138 0.15949 0.0
H397 H 0.98245 0.62964 0.18638 0.0
H398 H 0.90965 0.63194 0.17816 0.0
S399 S 0.86602 0.44939 0.13575 0.0
N400 N 0.92001 0.48089 0.14888 0.0
N401 N 0.83975 0.48201 0.13975 0.0
C402 C 0.87437 0.52164 0.15222 0.0
C403 C 0.91916 0.52068 0.15736 0.0
C404 C 0.48119 0.88846 0.50618 0.0
C405 C 0.48823 0.93467 0.50108 0.0
C406 C 0.43573 0.84401 0.50185 0.0
C407 C 0.39309 0.84163 0.49202 0.0
H408 H 0.51119 0.88639 0.51383 0.0
H409 H 0.43493 0.81102 0.50623 0.0
S410 S 0.39229 0.95313 0.4742 0.0
N411 N 0.44816 0.97454 0.4844 0.0
N412 N 0.36454 0.89398 0.47722 0.0
C413 C 0.40034 0.88825 0.48667 0.0
C414 C 0.44676 0.93333 0.49094 0.0
C415 C 0.67224 0.44065 0.83064 0.0
C416 C 0.63061 0.44379 0.83649 0.0
C417 C 0.67079 0.39498 0.82647 0.0
C418 C 0.62752 0.34828 0.82748 0.0
H419 H 0.70677 0.47396 0.82936 0.0
H420 H 0.70478 0.39686 0.82261 0.0
S421 S 0.50635 0.33488 0.84006 0.0
N422 N 0.54377 0.39401 0.84215 0.0
N423 N 0.54049 0.31141 0.83329 0.0
C424 C 0.58544 0.35145 0.83269 0.0
C425 C 0.58714 0.39767 0.83734 0.0
C426 C 0.62985 0.801 0.49662 0.0
C427 C 0.65223 0.83781 0.51428 0.0
C428 C 0.62464 0.75606 0.50021 0.0
C429 C 0.64192 0.74799 0.52141 0.0
H430 H 0.61783 0.80758 0.47985 0.0
H431 H 0.60803 0.72784 0.48628 0.0
S432 S 0.70517 0.83506 0.57232 0.0
N433 N 0.69247 0.86523 0.55317 0.0
N434 N 0.6833 0.78008 0.55998 0.0
C435 C 0.66401 0.7847 0.53932 0.0
C436 C 0.66894 0.83012 0.53571 0.0
C437 C 0.91722 0.60828 0.82513 0.0
C438 C 0.87506 0.58279 0.83828 0.0
C439 C 0.95448 0.59861 0.82726 0.0
C440 C 0.95041 0.5633 0.84266 0.0
H441 H 0.92356 0.63911 0.81498 0.0
H442 H 0.98853 0.62271 0.81894 0.0
S443 S 0.84475 0.48286 0.87862 0.0
N444 N 0.82857 0.51779 0.86516 0.0
N445 N 0.89961 0.4991 0.86918 0.0
C446 C 0.90656 0.53434 0.85414 0.0
C447 C 0.86856 0.54442 0.85205 0.0
C448 C 0.39253 0.87391 0.16077 0.0
C449 C 0.35923 0.82909 0.16983 0.0
C450 C 0.43494 0.90548 0.17366 0.0
C451 C 0.44428 0.89242 0.19578 0.0
H452 H 0.38337 0.88639 0.14498 0.0
H453 H 0.45771 0.94197 0.16764 0.0
S454 S 0.36884 0.77767 0.22621 0.0
N455 N 0.33904 0.77151 0.20109 0.0
N456 N 0.41903 0.83103 0.22539 0.0
C457 C 0.41341 0.8457 0.20379 0.0
C458 C 0.3704 0.81378 0.19075 0.0
C459 C 0.67765 0.3438 0.49464 0.0
C460 C 0.63053 0.32922 0.48618 0.0
C461 C 0.70372 0.38663 0.50853 0.0
C462 C 0.68306 0.41504 0.51425 0.0
H463 H 0.69144 0.31906 0.49352 0.0
H464 H 0.73776 0.39516 0.5169 0.0
S465 S 0.5672 0.39851 0.49036 0.0
N466 N 0.57015 0.35189 0.47896 0.0
N467 N 0.61773 0.43124 0.50642 0.0
C468 C 0.63987 0.40495 0.50255 0.0
C469 C 0.61415 0.36224 0.48782 0.0
C470 C 0.33912 0.5824 0.83133 0.0
C471 C 0.38978 0.60806 0.82948 0.0
C472 C 0.31686 0.60125 0.84568 0.0
C473 C 0.34494 0.64644 0.85776 0.0
H474 H 0.31772 0.54481 0.825 0.0
H475 H 0.27878 0.57806 0.84952 0.0
S476 S 0.47572 0.73314 0.85263 0.0
N477 N 0.46536 0.68464 0.83644 0.0
N478 N 0.42243 0.72084 0.86276 0.0
C479 C 0.39372 0.67573 0.85263 0.0
C480 C 0.41651 0.65648 0.83823 0.0
C481 C 0.81868 0.33149 0.16381 0.0
C482 C 0.85091 0.33436 0.18151 0.0
C483 C 0.76914 0.30687 0.16779 0.0
C484 C 0.75151 0.28452 0.18939 0.0
H485 H 0.83177 0.34728 0.14677 0.0
H486 H 0.74439 0.30366 0.15369 0.0
S487 S 0.82298 0.28005 0.24046 0.0
N488 N 0.86356 0.31304 0.22082 0.0
N489 N 0.76981 0.265 0.22828 0.0
C490 C 0.7839 0.28756 0.20728 0.0
C491 C 0.83405 0.31299 0.20329 0.0
C492 C 0.14553 0.58967 0.09121 0.0
C493 C 1.10315 0.57076 0.1044 0.0
C494 C 0.14377 0.59591 0.06688 0.0
C495 C 1.09942 0.58262 0.05526 0.0
H496 H 0.18031 0.60153 0.09991 0.0
H497 H 0.17736 0.61226 0.05724 0.0
S498 S 0.97772 0.52469 0.08196 0.0
N499 N 1.01565 0.53525 0.10442 0.0
N500 N 1.01171 0.54455 0.05828 0.0
C501 C 1.05654 0.56121 0.06822 0.0
C502 C 1.05856 0.55583 0.09298 0.0
C503 C 0.61818 1.06416 0.42167 0.0
C504 C 0.63416 0.10211 0.43903 0.0
C505 C 0.62548 0.07409 0.39749 0.0
C506 C 0.64964 0.12224 0.39008 0.0
H507 H 0.59893 1.02666 0.42673 0.0
H508 H 0.6116 1.04402 0.38449 0.0
S509 S 0.70046 0.23426 0.42864 0.0
N510 N 0.6772 0.18955 0.44722 0.0
N511 N 0.68983 0.2079 0.40185 0.0
C512 C 0.66674 0.16032 0.40731 0.0
C513 C 0.65925 0.15033 0.4318 0.0
C514 C 0.66583 0.63164 0.76221 0.0
C515 C 0.63391 0.58585 0.77123 0.0
C516 C 0.67011 0.63829 0.73782 0.0
C517 C 0.64285 0.59937 0.72159 0.0
H518 H 0.68739 0.66297 0.77404 0.0
H519 H 0.69483 0.6742 0.7316 0.0
S520 S 0.55547 0.47192 0.73573 0.0
N521 N 0.57565 0.50055 0.76191 0.0
N522 N 0.58375 0.51333 0.71577 0.0
C523 C 0.61174 0.5531 0.73019 0.0
C524 C 0.60724 0.54625 0.75512 0.0
C525 C 0.59696 0.08454 0.60403 0.0
C526 C 0.62531 0.0712 0.59 0.0
C527 C 0.5981 0.08484 0.62913 0.0
C528 C 0.62778 0.07195 0.64184 0.0
H529 H 0.57334 0.095 0.59557 0.0
H530 H 0.57489 0.09487 0.63864 0.0
S531 S 0.71118 1.03618 0.61405 0.0
N532 N 0.68491 1.04545 0.59114 0.0
N533 N 0.68801 1.04711 0.63801 0.0
C534 C 0.65663 1.05874 0.62808 0.0
C535 C 0.6552 1.05814 0.6024 0.0
C536 C 0.58511 0.59185 0.93478 0.0
C537 C 0.60978 0.57317 0.92153 0.0
C538 C 0.58528 0.59253 0.96 0.0
C539 C 0.60947 0.57385 0.97332 0.0
H540 H 0.5665 0.60723 0.92563 0.0
H541 H 0.56673 0.60858 0.96913 0.0
S542 S 0.67549 0.51619 0.94685 0.0
N543 N 0.65736 0.53362 0.92364 0.0
N544 N 0.65576 0.53259 0.97042 0.0
C545 C 0.63324 0.55395 0.96008 0.0
C546 C 0.63381 0.55416 0.93448 0.0
C547 C 0.11112 0.60863 0.26912 0.0
C548 C 0.10468 0.56844 0.2549 0.0
C549 C 0.11268 0.60893 0.29428 0.0
C550 C 0.10854 0.5693 0.3067 0.0
H551 H 0.11456 0.6402 0.26075 0.0
H552 H 0.11665 0.64053 0.30405 0.0
S553 S 1.0961 0.45687 0.27789 0.0
N554 N 1.09641 0.48871 0.25536 0.0
N555 N 1.1014 0.48996 0.3021 0.0
C556 C 1.10322 0.52932 0.29259 0.0
C557 C 1.10083 0.52874 0.26698 0.0
loop_
_geom_bond_atom_site_label_1
_geom_bond_atom_site_label_2
_geom_bond_distance
_geom_bond_site_symmetry_2
_ccdc_geom_bond_type
Eu0 C9 2.828 . S
Eu0 O11 2.392 1_655 S
Eu0 O13 2.418 . S
Eu0 O18 2.373 . S
Eu0 O21 2.488 . S
Eu0 O22 2.471 . S
Eu0 O23 2.349 . S
Eu1 O10 2.373 . S
Eu1 O14 2.488 . S
Eu1 O15 2.471 . S
Eu1 O16 2.349 . S
Eu1 O19 2.392 1_455 S
Eu1 O20 2.418 . S
Eu1 C30 2.828 . S
C2 O20 1.244 . S
C2 O23 1.265 1_455 S
C3 C4 1.379 . S
C3 C7 1.373 . S
C3 C9 1.505 . S
C4 C3 1.379 . S
C4 C6 1.369 . S
C4 H32 0.930 . S
C5 C7 1.383 . S
C5 C8 1.382 . S
C5 H33 0.930 . S
C6 C4 1.369 . S
C6 C8 1.392 . S
C6 H34 0.930 . S
C7 C3 1.373 . S
C7 C5 1.383 . S
C7 H35 0.931 . S
C8 C5 1.382 . S
C8 C6 1.392 . S
C9 Eu0 2.828 . S
C9 C3 1.505 . S
C9 O21 1.249 . S
C9 O22 1.244 . S
O10 Eu1 2.373 . S
O10 C12 1.258 . S
O11 Eu0 2.392 1_455 S
O11 C12 1.242 . S
C12 O10 1.258 . S
C12 O11 1.242 . S
O13 Eu0 2.418 . S
O13 C17 1.244 . S
O14 Eu1 2.488 . S
O14 C30 1.249 . S
O15 Eu1 2.471 . S
O15 C30 1.244 . S
O16 Eu1 2.349 . S
O16 C17 1.265 1_455 S
C17 O13 1.244 . S
C17 O16 1.265 1_655 S
O18 Eu0 2.373 . S
O18 C31 1.258 . S
O19 Eu1 2.392 1_655 S
O19 C31 1.242 . S
O20 Eu1 2.418 . S
O20 C2 1.244 . S
O21 Eu0 2.488 . S
O21 C9 1.249 . S
O22 Eu0 2.471 . S
O22 C9 1.244 . S
O23 Eu0 2.349 . S
O23 C2 1.265 1_655 S
C24 C25 1.379 . S
C24 C28 1.373 . S
C24 C30 1.505 . S
C25 C24 1.379 . S
C25 C27 1.369 . S
C25 H36 0.930 . S
C26 C28 1.383 . S
C26 C29 1.382 . S
C26 H37 0.930 . S
C27 C25 1.369 . S
C27 C29 1.392 . S
C27 H38 0.930 . S
C28 C24 1.373 . S
C28 C26 1.383 . S
C28 H39 0.931 . S
C29 C26 1.382 . S
C29 C27 1.392 . S
C30 Eu1 2.828 . S
C30 O14 1.249 . S
C30 O15 1.244 . S
C30 C24 1.505 . S
C31 O18 1.258 . S
C31 O19 1.242 . S
H32 C4 0.930 . S
H33 C5 0.930 . S
H34 C6 0.930 . S
H35 C7 0.931 . S
H36 C25 0.930 . S
H37 C26 0.930 . S
H38 C27 0.930 . S
H39 C28 0.931 . S
Eu40 C49 2.828 . S
Eu40 O51 2.392 1_565 S
Eu40 O53 2.418 . S
Eu40 O58 2.373 . S
Eu40 O61 2.488 . S
Eu40 O62 2.471 . S
Eu40 O63 2.349 . S
Eu41 O50 2.373 . S
Eu41 O54 2.488 . S
Eu41 O55 2.471 . S
Eu41 O56 2.349 . S
Eu41 O59 2.392 1_545 S
Eu41 O60 2.418 . S
Eu41 C70 2.828 . S
C42 O60 1.244 . S
C42 O63 1.265 1_545 S
C43 C44 1.379 . S
C43 C47 1.373 . S
C43 C49 1.505 . S
C44 C43 1.379 . S
C44 C46 1.369 . S
C44 H72 0.930 . S
C45 C47 1.383 . S
C45 C48 1.382 . S
C45 H73 0.930 . S
C46 C44 1.369 . S
C46 C48 1.392 . S
C46 H74 0.930 . S
C47 C43 1.373 . S
C47 C45 1.383 . S
C47 H75 0.931 . S
C48 C45 1.382 . S
C48 C46 1.392 . S
C49 Eu40 2.828 . S
C49 C43 1.505 . S
C49 O61 1.249 . S
C49 O62 1.244 . S
O50 Eu41 2.373 . S
O50 C52 1.258 . S
O51 Eu40 2.392 1_545 S
O51 C52 1.242 . S
C52 O50 1.258 . S
C52 O51 1.242 . S
O53 Eu40 2.418 . S
O53 C57 1.244 1_565 S
O54 Eu41 2.488 . S
O54 C70 1.249 . S
O55 Eu41 2.471 . S
O55 C70 1.244 . S
O56 Eu41 2.349 . S
O56 C57 1.265 . S
C57 O53 1.244 1_545 S
C57 O56 1.265 . S
O58 Eu40 2.373 . S
O58 C71 1.258 . S
O59 Eu41 2.392 1_565 S
O59 C71 1.242 . S
O60 Eu41 2.418 . S
O60 C42 1.244 . S
O61 Eu40 2.488 . S
O61 C49 1.249 . S
O62 Eu40 2.471 . S
O62 C49 1.244 . S
O63 Eu40 2.349 . S
O63 C42 1.265 1_565 S
C64 C65 1.379 . S
C64 C68 1.373 . S
C64 C70 1.505 . S
C65 C64 1.379 . S
C65 C67 1.369 . S
C65 H76 0.930 . S
C66 C68 1.383 . S
C66 C69 1.382 . S
C66 H77 0.930 . S
C67 C65 1.369 . S
C67 C69 1.392 . S
C67 H78 0.930 . S
C68 C64 1.373 . S
C68 C66 1.383 . S
C68 H79 0.931 . S
C69 C66 1.382 . S
C69 C67 1.392 . S
C70 Eu41 2.828 . S
C70 O54 1.249 . S
C70 O55 1.244 . S
C70 C64 1.505 . S
C71 O58 1.258 . S
C71 O59 1.242 . S
H72 C44 0.930 . S
H73 C45 0.930 . S
H74 C46 0.930 . S
H75 C47 0.931 . S
H76 C65 0.930 . S
H77 C66 0.930 . S
H78 C67 0.930 . S
H79 C68 0.931 . S
Eu80 C89 2.828 . S
Eu80 O91 2.392 . S
Eu80 O93 2.418 . S
Eu80 O98 2.373 . S
Eu80 O101 2.488 . S
Eu80 O102 2.471 . S
Eu80 O103 2.349 . S
Eu81 O90 2.373 . S
Eu81 O94 2.488 . S
Eu81 O95 2.471 . S
Eu81 O96 2.349 . S
Eu81 O99 2.392 . S
Eu81 O100 2.418 . S
Eu81 C110 2.828 . S
C82 O100 1.244 . S
C82 O103 1.265 . S
C83 C84 1.379 . S
C83 C87 1.373 . S
C83 C89 1.505 . S
C84 C83 1.379 . S
C84 C86 1.369 . S
C84 H112 0.930 . S
C85 C87 1.383 . S
C85 C88 1.382 . S
C85 H113 0.930 . S
C86 C84 1.369 . S
C86 C88 1.392 . S
C86 H114 0.930 . S
C87 C83 1.373 . S
C87 C85 1.383 . S
C87 H115 0.931 . S
C88 C85 1.382 . S
C88 C86 1.392 . S
C89 Eu80 2.828 . S
C89 C83 1.505 . S
C89 O101 1.249 . S
C89 O102 1.244 . S
O90 Eu81 2.373 . S
O90 C92 1.258 . S
O91 Eu80 2.392 . S
O91 C92 1.242 . S
C92 O90 1.258 . S
C92 O91 1.242 . S
O93 Eu80 2.418 . S
O93 C97 1.244 . S
O94 Eu81 2.488 . S
O94 C110 1.249 . S
O95 Eu81 2.471 . S
O95 C110 1.244 . S
O96 Eu81 2.349 . S
O96 C97 1.265 . S
C97 O93 1.244 . S
C97 O96 1.265 . S
O98 Eu80 2.373 . S
O98 C111 1.258 . S
O99 Eu81 2.392 . S
O99 C111 1.242 . S
O100 Eu81 2.418 . S
O100 C82 1.244 . S
O101 Eu80 2.488 . S
O101 C89 1.249 . S
O102 Eu80 2.471 . S
O102 C89 1.244 . S
O103 Eu80 2.349 . S
O103 C82 1.265 . S
C104 C105 1.379 . S
C104 C108 1.373 . S
C104 C110 1.505 . S
C105 C104 1.379 . S
C105 C107 1.369 . S
C105 H116 0.930 . S
C106 C108 1.383 . S
C106 C109 1.382 . S
C106 H117 0.930 . S
C107 C105 1.369 . S
C107 C109 1.392 . S
C107 H118 0.930 . S
C108 C104 1.373 . S
C108 C106 1.383 . S
C108 H119 0.931 . S
C109 C106 1.382 . S
C109 C107 1.392 . S
C110 Eu81 2.828 . S
C110 O94 1.249 . S
C110 O95 1.244 . S
C110 C104 1.505 . S
C111 O98 1.258 . S
C111 O99 1.242 . S
H112 C84 0.930 . S
H113 C85 0.930 . S
H114 C86 0.930 . S
H115 C87 0.931 . S
H116 C105 0.930 . S
H117 C106 0.930 . S
H118 C107 0.930 . S
H119 C108 0.931 . S
C120 C121 1.264 . S
C120 C125 1.479 . S
C120 C130 1.465 . S
C121 C120 1.264 . S
C121 C123 1.339 . S
C121 H148 0.931 . S
C122 C123 1.395 . S
C122 C124 1.320 . S
C123 C121 1.339 . S
C123 C122 1.395 . S
C123 H149 0.929 . S
C124 C122 1.320 . S
C124 C125 1.405 . S
C124 H150 0.930 . S
C125 C120 1.479 . S
C125 C124 1.405 . S
C125 H151 0.931 . S
U126 O127 2.454 1_545 S
U126 O128 2.458 1_545 S
U126 C129 2.984 1_545 S
U126 C130 2.847 . S
U126 C143 2.882 . S
U126 O144 2.441 . S
U126 O145 2.420 . S
U126 O146 2.455 . S
U126 O147 2.449 . S
O127 U126 2.454 1_565 S
O127 C129 1.353 . S
O128 U126 2.458 1_565 S
O128 C129 1.286 . S
C129 U126 2.984 1_565 S
C129 O127 1.353 . S
C129 O128 1.286 . S
C129 C131 1.363 . S
C130 C120 1.465 . S
C130 U126 2.847 . S
C130 O144 1.249 . S
C130 O145 1.202 . S
C131 C129 1.363 . S
C131 C133 1.408 . S
C131 C136 1.342 . S
C132 C133 1.310 . S
C132 C135 1.461 . S
C132 H152 0.932 . S
C133 C131 1.408 . S
C133 C132 1.310 . S
C133 H153 0.930 . S
C134 C135 1.474 . S
C134 C136 1.285 . S
C134 H154 0.929 . S
C135 C132 1.461 . S
C135 C134 1.474 . S
C136 C131 1.342 . S
C136 C134 1.285 . S
C136 H155 0.930 . S
C137 C140 1.424 . S
C137 C142 1.245 . S
C137 C143 1.428 . S
C138 C141 1.260 . S
C138 C142 1.477 . S
C138 H156 0.932 1_545 S
C139 C140 1.384 . S
C139 C141 1.479 . S
C139 H157 0.929 . S
C140 C137 1.424 . S
C140 C139 1.384 . S
C140 H158 0.928 . S
C141 C138 1.260 . S
C141 C139 1.479 . S
C142 C137 1.245 . S
C142 C138 1.477 . S
C142 H159 0.932 1_545 S
C143 U126 2.882 . S
C143 C137 1.428 . S
C143 O146 1.301 . S
C143 O147 1.282 . S
O144 U126 2.441 . S
O144 C130 1.249 . S
O145 U126 2.420 . S
O145 C130 1.202 . S
O146 U126 2.455 . S
O146 C143 1.301 . S
O147 U126 2.449 . S
O147 C143 1.282 . S
H148 C121 0.931 . S
H149 C123 0.929 . S
H150 C124 0.930 . S
H151 C125 0.931 . S
H152 C132 0.932 . S
H153 C133 0.930 . S
H154 C134 0.929 . S
H155 C136 0.930 . S
H156 C138 0.932 1_565 S
H157 C139 0.929 . S
H158 C140 0.928 . S
H159 C142 0.932 1_565 S
C160 C161 1.264 . S
C160 C165 1.479 . S
C160 C170 1.465 . S
C161 C160 1.264 . S
C161 C163 1.339 . S
C161 H188 0.931 . S
C162 C163 1.395 . S
C162 C164 1.320 . S
C163 C161 1.339 . S
C163 C162 1.395 . S
C163 H189 0.929 . S
C164 C162 1.320 . S
C164 C165 1.405 . S
C164 H190 0.930 . S
C165 C160 1.479 . S
C165 C164 1.405 . S
C165 H191 0.931 . S
U166 O167 2.454 . S
U166 O168 2.458 . S
U166 C169 2.984 . S
U166 C170 2.847 . S
U166 C183 2.882 . S
U166 O184 2.441 . S
U166 O185 2.420 . S
U166 O186 2.455 . S
U166 O187 2.449 . S
O167 U166 2.454 . S
O167 C169 1.353 . S
O168 U166 2.458 . S
O168 C169 1.286 . S
C169 U166 2.984 . S
C169 O167 1.353 . S
C169 O168 1.286 . S
C169 C171 1.363 . S
C170 C160 1.465 . S
C170 U166 2.847 . S
C170 O184 1.249 . S
C170 O185 1.202 . S
C171 C169 1.363 . S
C171 C173 1.408 . S
C171 C176 1.342 . S
C172 C173 1.310 . S
C172 C175 1.461 . S
C172 H192 0.932 . S
C173 C171 1.408 . S
C173 C172 1.310 . S
C173 H193 0.930 . S
C174 C175 1.474 . S
C174 C176 1.285 . S
C174 H194 0.929 . S
C175 C172 1.461 . S
C175 C174 1.474 . S
C176 C171 1.342 . S
C176 C174 1.285 . S
C176 H195 0.930 . S
C177 C180 1.424 . S
C177 C182 1.245 . S
C177 C183 1.428 . S
C178 C181 1.260 . S
C178 C182 1.477 . S
C178 H196 0.932 . S
C179 C180 1.384 . S
C179 C181 1.479 . S
C179 H197 0.929 . S
C180 C177 1.424 . S
C180 C179 1.384 . S
C180 H198 0.928 . S
C181 C178 1.260 . S
C181 C179 1.479 . S
C182 C177 1.245 . S
C182 C178 1.477 . S
C182 H199 0.932 . S
C183 U166 2.882 . S
C183 C177 1.428 . S
C183 O186 1.301 . S
C183 O187 1.282 . S
O184 U166 2.441 . S
O184 C170 1.249 . S
O185 U166 2.420 . S
O185 C170 1.202 . S
O186 U166 2.455 . S
O186 C183 1.301 . S
O187 U166 2.449 . S
O187 C183 1.282 . S
H188 C161 0.931 . S
H189 C163 0.929 . S
H190 C164 0.930 . S
H191 C165 0.931 . S
H192 C172 0.932 . S
H193 C173 0.930 . S
H194 C174 0.929 . S
H195 C176 0.930 . S
H196 C178 0.932 . S
H197 C179 0.929 . S
H198 C180 0.928 . S
H199 C182 0.932 . S
C200 C201 1.264 . S
C200 C205 1.479 . S
C200 C210 1.465 . S
C201 C200 1.264 . S
C201 C203 1.339 . S
C201 H228 0.931 . S
C202 C203 1.395 . S
C202 C204 1.320 . S
C203 C201 1.339 . S
C203 C202 1.395 . S
C203 H229 0.929 . S
C204 C202 1.320 . S
C204 C205 1.405 . S
C204 H230 0.930 . S
C205 C200 1.479 . S
C205 C204 1.405 . S
C205 H231 0.931 . S
U206 O207 2.454 . S
U206 O208 2.458 . S
U206 C209 2.984 . S
U206 C210 2.847 1_455 S
U206 C223 2.882 . S
U206 O224 2.441 1_455 S
U206 O225 2.420 1_455 S
U206 O226 2.455 . S
U206 O227 2.449 1_455 S
O207 U206 2.454 . S
O207 C209 1.353 . S
O208 U206 2.458 . S
O208 C209 1.286 . S
C209 U206 2.984 . S
C209 O207 1.353 . S
C209 O208 1.286 . S
C209 C211 1.363 . S
C210 C200 1.465 . S
C210 U206 2.847 1_655 S
C210 O224 1.249 . S
C210 O225 1.202 . S
C211 C209 1.363 . S
C211 C213 1.408 . S
C211 C216 1.342 . S
C212 C213 1.310 . S
C212 C215 1.461 . S
C212 H232 0.932 . S
C213 C211 1.408 . S
C213 C212 1.310 . S
C213 H233 0.930 . S
C214 C215 1.474 . S
C214 C216 1.285 . S
C214 H234 0.929 . S
C215 C212 1.461 . S
C215 C214 1.474 . S
C216 C211 1.342 . S
C216 C214 1.285 . S
C216 H235 0.930 . S
C217 C220 1.424 1_455 S
C217 C222 1.245 . S
C217 C223 1.428 . S
C218 C221 1.260 . S
C218 C222 1.477 1_554 S
C218 H236 0.932 . S
C219 C220 1.384 1_554 S
C219 C221 1.479 1_655 S
C219 H237 0.929 . S
C220 C217 1.424 1_655 S
C220 C219 1.384 1_556 S
C220 H238 0.928 . S
C221 C218 1.260 . S
C221 C219 1.479 1_455 S
C222 C217 1.245 . S
C222 C218 1.477 1_556 S
C222 H239 0.932 . S
C223 U206 2.882 . S
C223 C217 1.428 . S
C223 O226 1.301 . S
C223 O227 1.282 1_455 S
O224 U206 2.441 1_655 S
O224 C210 1.249 . S
O225 U206 2.420 1_655 S
O225 C210 1.202 . S
O226 U206 2.455 . S
O226 C223 1.301 . S
O227 U206 2.449 1_655 S
O227 C223 1.282 1_655 S
H228 C201 0.931 . S
H229 C203 0.929 . S
H230 C204 0.930 . S
H231 C205 0.931 . S
H232 C212 0.932 . S
H233 C213 0.930 . S
H234 C214 0.929 . S
H235 C216 0.930 . S
H236 C218 0.932 . S
H237 C219 0.929 . S
H238 C220 0.928 . S
H239 C222 0.932 . S
C240 C241 1.264 . S
C240 C245 1.479 . S
C240 C250 1.465 . S
C241 C240 1.264 . S
C241 C243 1.339 . S
C241 H268 0.931 . S
C242 C243 1.395 . S
C242 C244 1.320 . S
C243 C241 1.339 . S
C243 C242 1.395 . S
C243 H269 0.929 . S
C244 C242 1.320 . S
C244 C245 1.405 . S
C244 H270 0.930 . S
C245 C240 1.479 . S
C245 C244 1.405 . S
C245 H271 0.931 . S
U246 O247 2.454 . S
U246 O248 2.458 . S
U246 C249 2.984 . S
U246 C250 2.847 1_455 S
U246 C263 2.882 . S
U246 O264 2.441 1_455 S
U246 O265 2.420 1_455 S
U246 O266 2.455 . S
U246 O267 2.449 1_455 S
O247 U246 2.454 . S
O247 C249 1.353 . S
O248 U246 2.458 . S
O248 C249 1.286 . S
C249 U246 2.984 . S
C249 O247 1.353 . S
C249 O248 1.286 . S
C249 C251 1.363 . S
C250 C240 1.465 . S
C250 U246 2.847 1_655 S
C250 O264 1.249 . S
C250 O265 1.202 . S
C251 C249 1.363 . S
C251 C253 1.408 . S
C251 C256 1.342 . S
C252 C253 1.310 . S
C252 C255 1.461 . S
C252 H272 0.932 . S
C253 C251 1.408 . S
C253 C252 1.310 . S
C253 H273 0.930 . S
C254 C255 1.474 . S
C254 C256 1.285 . S
C254 H274 0.929 . S
C255 C252 1.461 . S
C255 C254 1.474 . S
C256 C251 1.342 . S
C256 C254 1.285 . S
C256 H275 0.930 . S
C257 C260 1.424 1_455 S
C257 C262 1.245 . S
C257 C263 1.428 . S
C258 C261 1.260 . S
C258 C262 1.477 . S
C258 H276 0.932 . S
C259 C260 1.384 . S
C259 C261 1.479 1_655 S
C259 H277 0.929 . S
C260 C257 1.424 1_655 S
C260 C259 1.384 . S
C260 H278 0.928 . S
C261 C258 1.260 . S
C261 C259 1.479 1_455 S
C262 C257 1.245 . S
C262 C258 1.477 . S
C262 H279 0.932 . S
C263 U246 2.882 . S
C263 C257 1.428 . S
C263 O266 1.301 . S
C263 O267 1.282 1_455 S
O264 U246 2.441 1_655 S
O264 C250 1.249 . S
O265 U246 2.420 1_655 S
O265 C250 1.202 . S
O266 U246 2.455 . S
O266 C263 1.301 . S
O267 U246 2.449 1_655 S
O267 C263 1.282 1_655 S
H268 C241 0.931 . S
H269 C243 0.929 . S
H270 C244 0.930 . S
H271 C245 0.931 . S
H272 C252 0.932 . S
H273 C253 0.930 . S
H274 C254 0.929 . S
H275 C256 0.930 . S
H276 C258 0.932 . S
H277 C259 0.929 . S
H278 C260 0.928 . S
H279 C262 0.932 . S
C280 C281 1.264 . S
C280 C285 1.479 . S
C280 C290 1.465 . S
C281 C280 1.264 . S
C281 C283 1.339 . S
C281 H308 0.931 . S
C282 C283 1.395 . S
C282 C284 1.320 . S
C283 C281 1.339 . S
C283 C282 1.395 . S
C283 H309 0.929 . S
C284 C282 1.320 . S
C284 C285 1.405 . S
C284 H310 0.930 . S
C285 C280 1.479 . S
C285 C284 1.405 . S
C285 H311 0.931 . S
U286 O287 2.454 . S
U286 O288 2.458 . S
U286 C289 2.984 . S
U286 C290 2.847 1_545 S
U286 C303 2.882 1_545 S
U286 O304 2.441 1_545 S
U286 O305 2.420 1_545 S
U286 O306 2.455 . S
U286 O307 2.449 1_545 S
O287 U286 2.454 . S
O287 C289 1.353 . S
O288 U286 2.458 . S
O288 C289 1.286 . S
C289 U286 2.984 . S
C289 O287 1.353 . S
C289 O288 1.286 . S
C289 C291 1.363 . S
C290 C280 1.465 . S
C290 U286 2.847 1_565 S
C290 O304 1.249 . S
C290 O305 1.202 . S
C291 C289 1.363 . S
C291 C293 1.408 . S
C291 C296 1.342 . S
C292 C293 1.310 . S
C292 C295 1.461 . S
C292 H312 0.932 . S
C293 C291 1.408 . S
C293 C292 1.310 . S
C293 H313 0.930 . S
C294 C295 1.474 . S
C294 C296 1.285 . S
C294 H314 0.929 . S
C295 C292 1.461 . S
C295 C294 1.474 . S
C296 C291 1.342 . S
C296 C294 1.285 . S
C296 H315 0.930 . S
C297 C300 1.450 . S
C297 C302 1.220 1_565 S
C297 C303 1.429 . S
C298 C301 1.260 . S
C298 C302 1.477 . S
C298 H316 0.932 . S
C299 C300 1.384 . S
C299 C301 1.479 1_565 S
C299 H317 0.929 . S
C300 C297 1.450 . S
C300 C299 1.384 . S
C300 H318 0.928 . S
C301 C298 1.260 . S
C301 C299 1.479 1_545 S
C302 C297 1.220 1_545 S
C302 C298 1.477 . S
C302 H319 0.932 . S
C303 U286 2.882 1_565 S
C303 C297 1.429 . S
C303 O306 1.301 1_565 S
C303 O307 1.282 . S
O304 U286 2.441 1_565 S
O304 C290 1.249 . S
O305 U286 2.420 1_565 S
O305 C290 1.202 . S
O306 U286 2.455 . S
O306 C303 1.301 1_545 S
O307 U286 2.449 1_565 S
O307 C303 1.282 . S
H308 C281 0.931 . S
H309 C283 0.929 . S
H310 C284 0.930 . S
H311 C285 0.931 . S
H312 C292 0.932 . S
H313 C293 0.930 . S
H314 C294 0.929 . S
H315 C296 0.930 . S
H316 C298 0.932 . S
H317 C299 0.929 . S
H318 C300 0.928 . S
H319 C302 0.932 . S
C320 C321 1.264 . S
C320 C325 1.479 . S
C320 C330 1.465 . S
C321 C320 1.264 . S
C321 C323 1.339 . S
C321 H348 0.931 . S
C322 C323 1.395 . S
C322 C324 1.320 . S
C323 C321 1.339 . S
C323 C322 1.395 . S
C323 H349 0.929 . S
C324 C322 1.320 . S
C324 C325 1.405 . S
C324 H350 0.930 . S
C325 C320 1.479 . S
C325 C324 1.405 . S
C325 H351 0.931 . S
U326 O327 2.454 . S
U326 O328 2.458 . S
U326 C329 2.984 . S
U326 C330 2.847 . S
U326 C343 2.882 . S
U326 O344 2.441 . S
U326 O345 2.420 . S
U326 O346 2.455 . S
U326 O347 2.449 . S
O327 U326 2.454 . S
O327 C329 1.353 . S
O328 U326 2.458 . S
O328 C329 1.286 . S
C329 U326 2.984 . S
C329 O327 1.353 . S
C329 O328 1.286 . S
C329 C331 1.363 . S
C330 C320 1.465 . S
C330 U326 2.847 . S
C330 O344 1.249 . S
C330 O345 1.202 . S
C331 C329 1.363 . S
C331 C333 1.408 . S
C331 C336 1.342 . S
C332 C333 1.310 . S
C332 C335 1.461 . S
C332 H352 0.932 . S
C333 C331 1.408 . S
C333 C332 1.310 . S
C333 H353 0.930 . S
C334 C335 1.474 . S
C334 C336 1.285 . S
C334 H354 0.929 . S
C335 C332 1.461 . S
C335 C334 1.474 . S
C336 C331 1.342 . S
C336 C334 1.285 . S
C336 H355 0.930 . S
C337 C340 1.424 . S
C337 C342 1.245 . S
C337 C343 1.428 . S
C338 C341 1.260 . S
C338 C342 1.477 1_556 S
C338 H356 0.932 . S
C339 C340 1.384 . S
C339 C341 1.479 1_554 S
C339 H357 0.929 1_554 S
C340 C337 1.424 . S
C340 C339 1.384 . S
C340 H358 0.928 . S
C341 C338 1.260 . S
C341 C339 1.479 1_556 S
C342 C337 1.245 . S
C342 C338 1.477 1_554 S
C342 H359 0.932 . S
C343 U326 2.882 . S
C343 C337 1.428 . S
C343 O346 1.301 . S
C343 O347 1.282 . S
O344 U326 2.441 . S
O344 C330 1.249 . S
O345 U326 2.420 . S
O345 C330 1.202 . S
O346 U326 2.455 . S
O346 C343 1.301 . S
O347 U326 2.449 . S
O347 C343 1.282 . S
H348 C321 0.931 . S
H349 C323 0.929 . S
H350 C324 0.930 . S
H351 C325 0.931 . S
H352 C332 0.932 . S
H353 C333 0.930 . S
H354 C334 0.929 . S
H355 C336 0.930 . S
H356 C338 0.932 . S
H357 C339 0.929 1_556 S
H358 C340 0.928 . S
H359 C342 0.932 . S
C360 C361 1.369 . S
C360 C362 1.419 . S
C360 H364 0.930 . S
C361 C360 1.369 . S
C361 C370 1.429 . S
C362 C360 1.419 . S
C362 C363 1.363 . S
C362 H365 0.929 . S
C363 C362 1.363 . S
C363 C369 1.428 . S
H364 C360 0.930 . S
H365 C362 0.929 . S
S366 N367 1.613 . S
S366 N368 1.610 . S
N367 S366 1.613 . S
N367 C370 1.350 . S
N368 S366 1.610 . S
N368 C369 1.351 . S
C369 C363 1.428 . S
C369 N368 1.351 . S
C369 C370 1.434 . S
C370 C361 1.429 . S
C370 N367 1.350 . S
C370 C369 1.434 . S
C371 C372 1.369 . S
C371 C373 1.419 . S
C371 H375 0.930 . S
C372 C371 1.369 . S
C372 C381 1.429 . S
C373 C371 1.419 . S
C373 C374 1.363 . S
C373 H376 0.929 . S
C374 C373 1.363 . S
C374 C380 1.428 . S
H375 C371 0.930 . S
H376 C373 0.929 . S
S377 N378 1.613 . S
S377 N379 1.610 . S
N378 S377 1.613 . S
N378 C381 1.350 . S
N379 S377 1.610 . S
N379 C380 1.351 . S
C380 C374 1.428 . S
C380 N379 1.351 . S
C380 C381 1.434 . S
C381 C372 1.429 . S
C381 N378 1.350 . S
C381 C380 1.434 . S
C382 C383 1.369 . S
C382 C384 1.419 . S
C382 H386 0.930 . S
C383 C382 1.369 . S
C383 C392 1.429 . S
C384 C382 1.419 . S
C384 C385 1.363 . S
C384 H387 0.929 . S
C385 C384 1.363 . S
C385 C391 1.428 . S
H386 C382 0.930 . S
H387 C384 0.929 . S
S388 N389 1.613 . S
S388 N390 1.610 . S
N389 S388 1.613 . S
N389 C392 1.350 . S
N390 S388 1.610 . S
N390 C391 1.351 . S
C391 C385 1.428 . S
C391 N390 1.351 . S
C391 C392 1.434 . S
C392 C383 1.429 . S
C392 N389 1.350 . S
C392 C391 1.434 . S
C393 C394 1.369 . S
C393 C395 1.419 . S
C393 H397 0.930 . S
C394 C393 1.369 . S
C394 C403 1.429 . S
C395 C393 1.419 . S
C395 C396 1.363 . S
C395 H398 0.929 . S
C396 C395 1.363 . S
C396 C402 1.428 . S
H397 C393 0.930 . S
H398 C395 0.929 . S
S399 N400 1.613 . S
S399 N401 1.610 . S
N400 S399 1.613 . S
N400 C403 1.350 . S
N401 S399 1.610 . S
N401 C402 1.351 . S
C402 C396 1.428 . S
C402 N401 1.351 . S
C402 C403 1.434 . S
C403 C394 1.429 . S
C403 N400 1.350 . S
C403 C402 1.434 . S
C404 C405 1.369 . S
C404 C406 1.419 . S
C404 H408 0.930 . S
C405 C404 1.369 . S
C405 C414 1.429 . S
C406 C404 1.419 . S
C406 C407 1.363 . S
C406 H409 0.929 . S
C407 C406 1.363 . S
C407 C413 1.428 . S
H408 C404 0.930 . S
H409 C406 0.929 . S
S410 N411 1.613 . S
S410 N412 1.610 . S
N411 S410 1.613 . S
N411 C414 1.350 . S
N412 S410 1.610 . S
N412 C413 1.351 . S
C413 C407 1.428 . S
C413 N412 1.351 . S
C413 C414 1.434 . S
C414 C405 1.429 . S
C414 N411 1.350 . S
C414 C413 1.434 . S
C415 C416 1.369 . S
C415 C417 1.419 . S
C415 H419 0.930 . S
C416 C415 1.369 . S
C416 C425 1.429 . S
C417 C415 1.419 . S
C417 C418 1.363 . S
C417 H420 0.929 . S
C418 C417 1.363 . S
C418 C424 1.428 . S
H419 C415 0.930 . S
H420 C417 0.929 . S
S421 N422 1.613 . S
S421 N423 1.610 . S
N422 S421 1.613 . S
N422 C425 1.350 . S
N423 S421 1.610 . S
N423 C424 1.351 . S
C424 C418 1.428 . S
C424 N423 1.351 . S
C424 C425 1.434 . S
C425 C416 1.429 . S
C425 N422 1.350 . S
C425 C424 1.434 . S
C426 C427 1.369 . S
C426 C428 1.419 . S
C426 H430 0.930 . S
C427 C426 1.369 . S
C427 C436 1.429 . S
C428 C426 1.419 . S
C428 C429 1.363 . S
C428 H431 0.929 . S
C429 C428 1.363 . S
C429 C435 1.428 . S
H430 C426 0.930 . S
H431 C428 0.929 . S
S432 N433 1.613 . S
S432 N434 1.610 . S
N433 S432 1.613 . S
N433 C436 1.350 . S
N434 S432 1.610 . S
N434 C435 1.351 . S
C435 C429 1.428 . S
C435 N434 1.351 . S
C435 C436 1.434 . S
C436 C427 1.429 . S
C436 N433 1.350 . S
C436 C435 1.434 . S
C437 C438 1.369 . S
C437 C439 1.419 . S
C437 H441 0.930 . S
C438 C437 1.369 . S
C438 C447 1.429 . S
C439 C437 1.419 . S
C439 C440 1.363 . S
C439 H442 0.929 . S
C440 C439 1.363 . S
C440 C446 1.428 . S
H441 C437 0.930 . S
H442 C439 0.929 . S
S443 N444 1.613 . S
S443 N445 1.610 . S
N444 S443 1.613 . S
N444 C447 1.350 . S
N445 S443 1.610 . S
N445 C446 1.351 . S
C446 C440 1.428 . S
C446 N445 1.351 . S
C446 C447 1.434 . S
C447 C438 1.429 . S
C447 N444 1.350 . S
C447 C446 1.434 . S
C448 C449 1.369 . S
C448 C450 1.419 . S
C448 H452 0.930 . S
C449 C448 1.369 . S
C449 C458 1.429 . S
C450 C448 1.419 . S
C450 C451 1.363 . S
C450 H453 0.929 . S
C451 C450 1.363 . S
C451 C457 1.428 . S
H452 C448 0.930 . S
H453 C450 0.929 . S
S454 N455 1.613 . S
S454 N456 1.610 . S
N455 S454 1.613 . S
N455 C458 1.350 . S
N456 S454 1.610 . S
N456 C457 1.351 . S
C457 C451 1.428 . S
C457 N456 1.351 . S
C457 C458 1.434 . S
C458 C449 1.429 . S
C458 N455 1.350 . S
C458 C457 1.434 . S
C459 C460 1.369 . S
C459 C461 1.419 . S
C459 H463 0.930 . S
C460 C459 1.369 . S
C460 C469 1.429 . S
C461 C459 1.419 . S
C461 C462 1.363 . S
C461 H464 0.929 . S
C462 C461 1.363 . S
C462 C468 1.428 . S
H463 C459 0.930 . S
H464 C461 0.929 . S
S465 N466 1.613 . S
S465 N467 1.610 . S
N466 S465 1.613 . S
N466 C469 1.350 . S
N467 S465 1.610 . S
N467 C468 1.351 . S
C468 C462 1.428 . S
C468 N467 1.351 . S
C468 C469 1.434 . S
C469 C460 1.429 . S
C469 N466 1.350 . S
C469 C468 1.434 . S
C470 C471 1.369 . S
C470 C472 1.419 . S
C470 H474 0.930 . S
C471 C470 1.369 . S
C471 C480 1.429 . S
C472 C470 1.419 . S
C472 C473 1.363 . S
C472 H475 0.929 . S
C473 C472 1.363 . S
C473 C479 1.428 . S
H474 C470 0.930 . S
H475 C472 0.929 . S
S476 N477 1.613 . S
S476 N478 1.610 . S
N477 S476 1.613 . S
N477 C480 1.350 . S
N478 S476 1.610 . S
N478 C479 1.351 . S
C479 C473 1.428 . S
C479 N478 1.351 . S
C479 C480 1.434 . S
C480 C471 1.429 . S
C480 N477 1.350 . S
C480 C479 1.434 . S
C481 C482 1.369 . S
C481 C483 1.419 . S
C481 H485 0.930 . S
C482 C481 1.369 . S
C482 C491 1.429 . S
C483 C481 1.419 . S
C483 C484 1.363 . S
C483 H486 0.929 . S
C484 C483 1.363 . S
C484 C490 1.428 . S
H485 C481 0.930 . S
H486 C483 0.929 . S
S487 N488 1.613 . S
S487 N489 1.610 . S
N488 S487 1.613 . S
N488 C491 1.350 . S
N489 S487 1.610 . S
N489 C490 1.351 . S
C490 C484 1.428 . S
C490 N489 1.351 . S
C490 C491 1.434 . S
C491 C482 1.429 . S
C491 N488 1.350 . S
C491 C490 1.434 . S
C492 C493 1.369 . S
C492 C494 1.419 . S
C492 H496 0.930 . S
C493 C492 1.369 . S
C493 C502 1.429 1_455 S
C494 C492 1.419 . S
C494 C495 1.363 . S
C494 H497 0.929 . S
C495 C494 1.363 . S
C495 C501 1.428 1_455 S
H496 C492 0.930 . S
H497 C494 0.929 . S
S498 N499 1.613 . S
S498 N500 1.610 . S
N499 S498 1.613 . S
N499 C502 1.350 . S
N500 S498 1.610 . S
N500 C501 1.351 . S
C501 C495 1.428 1_655 S
C501 N500 1.351 . S
C501 C502 1.434 . S
C502 C493 1.429 1_655 S
C502 N499 1.350 . S
C502 C501 1.434 . S
C503 C504 1.369 1_565 S
C503 C505 1.419 . S
C503 H507 0.930 . S
C504 C503 1.369 1_545 S
C504 C513 1.429 . S
C505 C503 1.419 . S
C505 C506 1.363 1_565 S
C505 H508 0.929 . S
C506 C505 1.363 1_545 S
C506 C512 1.428 . S
H507 C503 0.930 . S
H508 C505 0.929 . S
S509 N510 1.613 . S
S509 N511 1.610 . S
N510 S509 1.613 . S
N510 C513 1.350 . S
N511 S509 1.610 . S
N511 C512 1.351 . S
C512 C506 1.428 . S
C512 N511 1.351 . S
C512 C513 1.434 . S
C513 C504 1.429 . S
C513 N510 1.350 . S
C513 C512 1.434 . S
C514 C515 1.369 . S
C514 C516 1.419 . S
C514 H518 0.930 . S
C515 C514 1.369 . S
C515 C524 1.429 . S
C516 C514 1.419 . S
C516 C517 1.363 . S
C516 H519 0.929 . S
C517 C516 1.363 . S
C517 C523 1.428 . S
H518 C514 0.930 . S
H519 C516 0.929 . S
S520 N521 1.613 . S
S520 N522 1.610 . S
N521 S520 1.613 . S
N521 C524 1.350 . S
N522 S520 1.610 . S
N522 C523 1.351 . S
C523 C517 1.428 . S
C523 N522 1.351 . S
C523 C524 1.434 . S
C524 C515 1.429 . S
C524 N521 1.350 . S
C524 C523 1.434 . S
C525 C526 1.369 . S
C525 C527 1.419 . S
C525 H529 0.930 . S
C526 C525 1.369 . S
C526 C535 1.429 1_545 S
C527 C525 1.419 . S
C527 C528 1.363 . S
C527 H530 0.929 . S
C528 C527 1.363 . S
C528 C534 1.428 1_545 S
H529 C525 0.930 . S
H530 C527 0.929 . S
S531 N532 1.613 . S
S531 N533 1.610 . S
N532 S531 1.613 . S
N532 C535 1.350 . S
N533 S531 1.610 . S
N533 C534 1.351 . S
C534 C528 1.428 1_565 S
C534 N533 1.351 . S
C534 C535 1.434 . S
C535 C526 1.429 1_565 S
C535 N532 1.350 . S
C535 C534 1.434 . S
C536 C537 1.369 . S
C536 C538 1.419 . S
C536 H540 0.930 . S
C537 C536 1.369 . S
C537 C546 1.429 . S
C538 C536 1.419 . S
C538 C539 1.363 . S
C538 H541 0.929 . S
C539 C538 1.363 . S
C539 C545 1.428 . S
H540 C536 0.930 . S
H541 C538 0.929 . S
S542 N543 1.613 . S
S542 N544 1.610 . S
N543 S542 1.613 . S
N543 C546 1.350 . S
N544 S542 1.610 . S
N544 C545 1.351 . S
C545 C539 1.428 . S
C545 N544 1.351 . S
C545 C546 1.434 . S
C546 C537 1.429 . S
C546 N543 1.350 . S
C546 C545 1.434 . S
C547 C548 1.374 . S
C547 C549 1.420 . S
C547 H551 0.930 . S
C548 C547 1.374 . S
C548 C557 1.423 1_655 S
C549 C547 1.420 . S
C549 C550 1.348 1_655 S
C549 H552 0.945 . S
C550 C549 1.348 1_455 S
C550 C556 1.428 . S
H551 C547 0.930 . S
H552 C549 0.945 . S
S553 N554 1.613 . S
S553 N555 1.610 . S
N554 S553 1.613 . S
N554 C557 1.350 . S
N555 S553 1.610 . S
N555 C556 1.351 . S
C556 C550 1.428 . S
C556 N555 1.351 . S
C556 C557 1.434 . S
C557 C548 1.423 1_455 S
C557 N554 1.350 . S
C557 C556 1.434 . S
C361 C12 3.109 . S
C363 C335 3.022 . S
C372 C52 3.089 . S
C374 C242 3.027 . S
C383 C111 3.145 . S
C385 C282 3.077 . S
C394 C31 3.291 . S
C396 C322 3.214 . S
C407 C255 3.206 . S
C405 C71 3.313 . S
C418 C295 3.153 . S
C416 C92 3.254 . S
C427 C48 0.665 . S
C429 C162 0.685 . S
C438 C109 0.688 . S
C440 C202 0.670 . S
C449 C29 0.657 . S
C451 C135 0.627 . S
C462 C175 0.482 . S
C460 C69 0.555 . S
C473 C215 0.434 . S
C471 C88 0.398 . S
C482 C8 0.379 . S
C484 C122 0.348 . S
C495 C221 1.054 . S
C493 C17 1.080 1_455 S
C504 C57 1.085 . S
C506 C141 1.090 . S
C515 C97 1.084 . S
C517 C181 1.059 . S
C528 C301 1.796 . S
C526 C42 1.740 . S
C539 C341 1.782 . S
C537 C82 1.747 . S
C548 C2 1.757 1_655 S
C550 C261 1.791 . S
