# Generated by pormake.
# Topology ibd, (4,6)-cn, num edge types: 1
# Building blocks:
#     Node 0, Type 0, BuildingBlock: KUFVIS_clean_sbu_0, # of connection points: 4
#     Node 1, Type 0, BuildingBlock: KUFVIS_clean_sbu_0, # of connection points: 4
#     Node 2, Type 0, BuildingBlock: KUFVIS_clean_sbu_0, # of connection points: 4
#     Node 3, Type 0, BuildingBlock: KUFVIS_clean_sbu_0, # of connection points: 4
#     Node 4, Type 0, BuildingBlock: KUFVIS_clean_sbu_0, # of connection points: 4
#     Node 5, Type 0, BuildingBlock: KUFVIS_clean_sbu_0, # of connection points: 4
#     Node 6, Type 0, BuildingBlock: KUFVIS_clean_sbu_0, # of connection points: 4
#     Node 7, Type 0, BuildingBlock: KUFVIS_clean_sbu_0, # of connection points: 4
#     Node 8, Type 0, BuildingBlock: KUFVIS_clean_sbu_0, # of connection points: 4
#     Node 9, Type 0, BuildingBlock: KUFVIS_clean_sbu_0, # of connection points: 4
#     Node 10, Type 0, BuildingBlock: KUFVIS_clean_sbu_0, # of connection points: 4
#     Node 11, Type 0, BuildingBlock: KUFVIS_clean_sbu_0, # of connection points: 4
#     Node 12, Type 0, BuildingBlock: KUFVIS_clean_sbu_0, # of connection points: 4
#     Node 13, Type 0, BuildingBlock: KUFVIS_clean_sbu_0, # of connection points: 4
#     Node 14, Type 0, BuildingBlock: KUFVIS_clean_sbu_0, # of connection points: 4
#     Node 15, Type 0, BuildingBlock: KUFVIS_clean_sbu_0, # of connection points: 4
#     Node 16, Type 0, BuildingBlock: KUFVIS_clean_sbu_0, # of connection points: 4
#     Node 17, Type 0, BuildingBlock: KUFVIS_clean_sbu_0, # of connection points: 4
#     Node 18, Type 0, BuildingBlock: KUFVIS_clean_sbu_0, # of connection points: 4
#     Node 19, Type 0, BuildingBlock: KUFVIS_clean_sbu_0, # of connection points: 4
#     Node 20, Type 0, BuildingBlock: KUFVIS_clean_sbu_0, # of connection points: 4
#     Node 21, Type 0, BuildingBlock: KUFVIS_clean_sbu_0, # of connection points: 4
#     Node 22, Type 0, BuildingBlock: KUFVIS_clean_sbu_0, # of connection points: 4
#     Node 23, Type 0, BuildingBlock: KUFVIS_clean_sbu_0, # of connection points: 4
#     Node 24, Type 1, BuildingBlock: IZENUY_clean_sbu_0, # of connection points: 6
#     Node 25, Type 1, BuildingBlock: IZENUY_clean_sbu_0, # of connection points: 6
#     Node 26, Type 1, BuildingBlock: IZENUY_clean_sbu_0, # of connection points: 6
#     Node 27, Type 1, BuildingBlock: IZENUY_clean_sbu_0, # of connection points: 6
#     Node 28, Type 1, BuildingBlock: IZENUY_clean_sbu_0, # of connection points: 6
#     Node 29, Type 1, BuildingBlock: IZENUY_clean_sbu_0, # of connection points: 6
#     Node 30, Type 1, BuildingBlock: IZENUY_clean_sbu_0, # of connection points: 6
#     Node 31, Type 1, BuildingBlock: IZENUY_clean_sbu_0, # of connection points: 6
#     Node 32, Type 1, BuildingBlock: IZENUY_clean_sbu_0, # of connection points: 6
#     Node 33, Type 1, BuildingBlock: IZENUY_clean_sbu_0, # of connection points: 6
#     Node 34, Type 1, BuildingBlock: IZENUY_clean_sbu_0, # of connection points: 6
#     Node 35, Type 1, BuildingBlock: IZENUY_clean_sbu_0, # of connection points: 6
#     Node 36, Type 1, BuildingBlock: IZENUY_clean_sbu_0, # of connection points: 6
#     Node 37, Type 1, BuildingBlock: IZENUY_clean_sbu_0, # of connection points: 6
#     Node 38, Type 1, BuildingBlock: IZENUY_clean_sbu_0, # of connection points: 6
#     Node 39, Type 1, BuildingBlock: IZENUY_clean_sbu_0, # of connection points: 6
#     Edge 40, Type (0, 1), BuildingBlock: UVAHIK_clean_linker_0, # of connection points: 2
#     Edge 41, Type (0, 1), BuildingBlock: UVAHIK_clean_linker_0, # of connection points: 2
#     Edge 42, Type (0, 1), BuildingBlock: UVAHIK_clean_linker_0, # of connection points: 2
#     Edge 43, Type (0, 1), BuildingBlock: UVAHIK_clean_linker_0, # of connection points: 2
#     Edge 44, Type (0, 1), BuildingBlock: UVAHIK_clean_linker_0, # of connection points: 2
#     Edge 45, Type (0, 1), BuildingBlock: UVAHIK_clean_linker_0, # of connection points: 2
#     Edge 46, Type (0, 1), BuildingBlock: UVAHIK_clean_linker_0, # of connection points: 2
#     Edge 47, Type (0, 1), BuildingBlock: UVAHIK_clean_linker_0, # of connection points: 2
#     Edge 48, Type (0, 1), BuildingBlock: UVAHIK_clean_linker_0, # of connection points: 2
#     Edge 49, Type (0, 1), BuildingBlock: UVAHIK_clean_linker_0, # of connection points: 2
#     Edge 50, Type (0, 1), BuildingBlock: UVAHIK_clean_linker_0, # of connection points: 2
#     Edge 51, Type (0, 1), BuildingBlock: UVAHIK_clean_linker_0, # of connection points: 2
#     Edge 52, Type (0, 1), BuildingBlock: UVAHIK_clean_linker_0, # of connection points: 2
#     Edge 53, Type (0, 1), BuildingBlock: UVAHIK_clean_linker_0, # of connection points: 2
#     Edge 54, Type (0, 1), BuildingBlock: UVAHIK_clean_linker_0, # of connection points: 2
#     Edge 55, Type (0, 1), BuildingBlock: UVAHIK_clean_linker_0, # of connection points: 2
#     Edge 56, Type (0, 1), BuildingBlock: UVAHIK_clean_linker_0, # of connection points: 2
#     Edge 57, Type (0, 1), BuildingBlock: UVAHIK_clean_linker_0, # of connection points: 2
#     Edge 58, Type (0, 1), BuildingBlock: UVAHIK_clean_linker_0, # of connection points: 2
#     Edge 59, Type (0, 1), BuildingBlock: UVAHIK_clean_linker_0, # of connection points: 2
#     Edge 60, Type (0, 1), BuildingBlock: UVAHIK_clean_linker_0, # of connection points: 2
#     Edge 61, Type (0, 1), BuildingBlock: UVAHIK_clean_linker_0, # of connection points: 2
#     Edge 62, Type (0, 1), BuildingBlock: UVAHIK_clean_linker_0, # of connection points: 2
#     Edge 63, Type (0, 1), BuildingBlock: UVAHIK_clean_linker_0, # of connection points: 2
#     Edge 64, Type (0, 1), BuildingBlock: UVAHIK_clean_linker_0, # of connection points: 2
#     Edge 65, Type (0, 1), BuildingBlock: UVAHIK_clean_linker_0, # of connection points: 2
#     Edge 66, Type (0, 1), BuildingBlock: UVAHIK_clean_linker_0, # of connection points: 2
#     Edge 67, Type (0, 1), BuildingBlock: UVAHIK_clean_linker_0, # of connection points: 2
#     Edge 68, Type (0, 1), BuildingBlock: UVAHIK_clean_linker_0, # of connection points: 2
#     Edge 69, Type (0, 1), BuildingBlock: UVAHIK_clean_linker_0, # of connection points: 2
#     Edge 70, Type (0, 1), BuildingBlock: UVAHIK_clean_linker_0, # of connection points: 2
#     Edge 71, Type (0, 1), BuildingBlock: UVAHIK_clean_linker_0, # of connection points: 2
#     Edge 72, Type (0, 1), BuildingBlock: UVAHIK_clean_linker_0, # of connection points: 2
#     Edge 73, Type (0, 1), BuildingBlock: UVAHIK_clean_linker_0, # of connection points: 2
#     Edge 74, Type (0, 1), BuildingBlock: UVAHIK_clean_linker_0, # of connection points: 2
#     Edge 75, Type (0, 1), BuildingBlock: UVAHIK_clean_linker_0, # of connection points: 2
#     Edge 76, Type (0, 1), BuildingBlock: UVAHIK_clean_linker_0, # of connection points: 2
#     Edge 77, Type (0, 1), BuildingBlock: UVAHIK_clean_linker_0, # of connection points: 2
#     Edge 78, Type (0, 1), BuildingBlock: UVAHIK_clean_linker_0, # of connection points: 2
#     Edge 79, Type (0, 1), BuildingBlock: UVAHIK_clean_linker_0, # of connection points: 2
#     Edge 80, Type (0, 1), BuildingBlock: UVAHIK_clean_linker_0, # of connection points: 2
#     Edge 81, Type (0, 1), BuildingBlock: UVAHIK_clean_linker_0, # of connection points: 2
#     Edge 82, Type (0, 1), BuildingBlock: UVAHIK_clean_linker_0, # of connection points: 2
#     Edge 83, Type (0, 1), BuildingBlock: UVAHIK_clean_linker_0, # of connection points: 2
#     Edge 84, Type (0, 1), BuildingBlock: UVAHIK_clean_linker_0, # of connection points: 2
#     Edge 85, Type (0, 1), BuildingBlock: UVAHIK_clean_linker_0, # of connection points: 2
#     Edge 86, Type (0, 1), BuildingBlock: UVAHIK_clean_linker_0, # of connection points: 2
#     Edge 87, Type (0, 1), BuildingBlock: UVAHIK_clean_linker_0, # of connection points: 2
#     Edge 88, Type (0, 1), BuildingBlock: UVAHIK_clean_linker_0, # of connection points: 2
#     Edge 89, Type (0, 1), BuildingBlock: UVAHIK_clean_linker_0, # of connection points: 2
#     Edge 90, Type (0, 1), BuildingBlock: UVAHIK_clean_linker_0, # of connection points: 2
#     Edge 91, Type (0, 1), BuildingBlock: UVAHIK_clean_linker_0, # of connection points: 2
#     Edge 92, Type (0, 1), BuildingBlock: UVAHIK_clean_linker_0, # of connection points: 2
#     Edge 93, Type (0, 1), BuildingBlock: UVAHIK_clean_linker_0, # of connection points: 2
#     Edge 94, Type (0, 1), BuildingBlock: UVAHIK_clean_linker_0, # of connection points: 2
#     Edge 95, Type (0, 1), BuildingBlock: UVAHIK_clean_linker_0, # of connection points: 2
#     Edge 96, Type (0, 1), BuildingBlock: UVAHIK_clean_linker_0, # of connection points: 2
#     Edge 97, Type (0, 1), BuildingBlock: UVAHIK_clean_linker_0, # of connection points: 2
#     Edge 98, Type (0, 1), BuildingBlock: UVAHIK_clean_linker_0, # of connection points: 2
#     Edge 99, Type (0, 1), BuildingBlock: UVAHIK_clean_linker_0, # of connection points: 2
#     Edge 100, Type (0, 1), BuildingBlock: UVAHIK_clean_linker_0, # of connection points: 2
#     Edge 101, Type (0, 1), BuildingBlock: UVAHIK_clean_linker_0, # of connection points: 2
#     Edge 102, Type (0, 1), BuildingBlock: UVAHIK_clean_linker_0, # of connection points: 2
#     Edge 103, Type (0, 1), BuildingBlock: UVAHIK_clean_linker_0, # of connection points: 2
#     Edge 104, Type (0, 1), BuildingBlock: UVAHIK_clean_linker_0, # of connection points: 2
#     Edge 105, Type (0, 1), BuildingBlock: UVAHIK_clean_linker_0, # of connection points: 2
#     Edge 106, Type (0, 1), BuildingBlock: UVAHIK_clean_linker_0, # of connection points: 2
#     Edge 107, Type (0, 1), BuildingBlock: UVAHIK_clean_linker_0, # of connection points: 2
#     Edge 108, Type (0, 1), BuildingBlock: UVAHIK_clean_linker_0, # of connection points: 2
#     Edge 109, Type (0, 1), BuildingBlock: UVAHIK_clean_linker_0, # of connection points: 2
#     Edge 110, Type (0, 1), BuildingBlock: UVAHIK_clean_linker_0, # of connection points: 2
#     Edge 111, Type (0, 1), BuildingBlock: UVAHIK_clean_linker_0, # of connection points: 2
#     Edge 112, Type (0, 1), BuildingBlock: UVAHIK_clean_linker_0, # of connection points: 2
#     Edge 113, Type (0, 1), BuildingBlock: UVAHIK_clean_linker_0, # of connection points: 2
#     Edge 114, Type (0, 1), BuildingBlock: UVAHIK_clean_linker_0, # of connection points: 2
#     Edge 115, Type (0, 1), BuildingBlock: UVAHIK_clean_linker_0, # of connection points: 2
#     Edge 116, Type (0, 1), BuildingBlock: UVAHIK_clean_linker_0, # of connection points: 2
#     Edge 117, Type (0, 1), BuildingBlock: UVAHIK_clean_linker_0, # of connection points: 2
#     Edge 118, Type (0, 1), BuildingBlock: UVAHIK_clean_linker_0, # of connection points: 2
#     Edge 119, Type (0, 1), BuildingBlock: UVAHIK_clean_linker_0, # of connection points: 2
#     Edge 120, Type (0, 1), BuildingBlock: UVAHIK_clean_linker_0, # of connection points: 2
#     Edge 121, Type (0, 1), BuildingBlock: UVAHIK_clean_linker_0, # of connection points: 2
#     Edge 122, Type (0, 1), BuildingBlock: UVAHIK_clean_linker_0, # of connection points: 2
#     Edge 123, Type (0, 1), BuildingBlock: UVAHIK_clean_linker_0, # of connection points: 2
#     Edge 124, Type (0, 1), BuildingBlock: UVAHIK_clean_linker_0, # of connection points: 2
#     Edge 125, Type (0, 1), BuildingBlock: UVAHIK_clean_linker_0, # of connection points: 2
#     Edge 126, Type (0, 1), BuildingBlock: UVAHIK_clean_linker_0, # of connection points: 2
#     Edge 127, Type (0, 1), BuildingBlock: UVAHIK_clean_linker_0, # of connection points: 2
#     Edge 128, Type (0, 1), BuildingBlock: UVAHIK_clean_linker_0, # of connection points: 2
#     Edge 129, Type (0, 1), BuildingBlock: UVAHIK_clean_linker_0, # of connection points: 2
#     Edge 130, Type (0, 1), BuildingBlock: UVAHIK_clean_linker_0, # of connection points: 2
#     Edge 131, Type (0, 1), BuildingBlock: UVAHIK_clean_linker_0, # of connection points: 2
#     Edge 132, Type (0, 1), BuildingBlock: UVAHIK_clean_linker_0, # of connection points: 2
#     Edge 133, Type (0, 1), BuildingBlock: UVAHIK_clean_linker_0, # of connection points: 2
#     Edge 134, Type (0, 1), BuildingBlock: UVAHIK_clean_linker_0, # of connection points: 2
#     Edge 135, Type (0, 1), BuildingBlock: UVAHIK_clean_linker_0, # of connection points: 2
# Relax obj value: 0.306
# Max RMSD: 0.285
# Mean RMSD: 0.260
data_MOF--net-ibd--node1-KUFVIS_clean_sbu_0--node2-IZENUY_clean_sbu_0--edge1-UVAHIK_clean_linker_0
_symmetry_space_group_name_H-M    P1
_symmetry_Int_Tables_number       1
_symmetry_cell_setting            triclinic
loop_
_symmetry_equiv_pos_as_xyz
'x, y, z'
_cell_length_a     62.186672
_cell_length_b     62.216666
_cell_length_c     62.18956
_cell_angle_alpha  91.074978
_cell_angle_beta   91.096693
_cell_angle_gamma 91.102112
loop_
_atom_site_label
_atom_site_type_symbol
_atom_site_fract_x
_atom_site_fract_y
_atom_site_fract_z
_atom_type_partial_charge
Mn0 Mn 0.01375 0.25567 0.37438 0.0
Mn1 Mn 0.04069 0.30312 0.37212 0.0
C2 C 0.03586 0.26703 0.40265 0.0
C3 C 0.98354 0.23526 0.38257 0.0
C4 C 0.0535 0.26301 0.3475 0.0
O5 O -0.0019 0.27109 0.35036 0.0
O6 O 0.01507 0.30347 0.3526 0.0
C7 C 0.00832 0.33165 0.39125 0.0
N8 N 0.02854 0.3236 0.39143 0.0
C9 C 0.03897 0.34576 0.42214 0.0
C10 C 0.01832 0.35441 0.42219 0.0
C11 C 0.00291 0.34726 0.40672 0.0
C12 C 0.04343 0.33023 0.40635 0.0
H13 H 0.99643 0.32619 0.3794 0.0
C14 C 0.00027 0.29071 0.34495 0.0
O15 O -0.00283 0.22859 0.3685 0.0
O16 O 0.98705 0.25417 0.39128 0.0
N17 N 0.06562 0.3049 0.39067 0.0
C18 C 0.0844 0.2941 0.38915 0.0
C19 C 0.10128 0.29884 0.40391 0.0
C20 C 0.09875 0.31476 0.41993 0.0
C21 C 0.07935 0.3258 0.42104 0.0
C22 C 0.0631 0.3204 0.40589 0.0
H23 H 0.08648 0.28192 0.37682 0.0
O24 O 0.03082 0.24679 0.40017 0.0
O25 O 0.0277 0.27992 0.38866 0.0
O26 O 0.03928 0.25062 0.35529 0.0
O27 O 0.05493 0.28312 0.35195 0.0
C28 C 0.0754 0.34177 0.43675 0.0
C29 C 0.05522 0.35172 0.43732 0.0
H30 H 0.01406 0.36642 0.43412 0.0
H31 H 0.98689 0.35377 0.40672 0.0
H32 H 0.1162 0.29024 0.40295 0.0
H33 H 0.11176 0.31829 0.43136 0.0
H34 H 0.08767 0.3463 0.44867 0.0
H35 H 0.05227 0.36374 0.44968 0.0
Mn36 Mn 0.00145 0.73367 0.62971 0.0
Mn37 Mn 0.96609 0.69653 0.64715 0.0
C38 C 0.99463 0.7026 0.60973 0.0
C39 C 0.00901 0.76486 0.6112 0.0
C40 C 0.01084 0.70367 0.66666 0.0
O41 O 0.98454 0.75003 0.65206 0.0
O42 O 0.95944 0.72497 0.66031 0.0
C43 C 0.92609 0.71222 0.6268 0.0
N44 N 0.94056 0.6963 0.62952 0.0
C45 C 0.92053 0.67261 0.60516 0.0
C46 C 0.90534 0.68871 0.6022 0.0
C47 C 0.90816 0.70861 0.61305 0.0
C48 C 0.938 0.67708 0.61919 0.0
H49 H 0.92825 0.72758 0.63501 0.0
C50 C 0.96759 0.74406 0.66178 0.0
O51 O 0.02175 0.7583 0.62639 0.0
O52 O 0.99167 0.75346 0.60701 0.0
N53 N 0.97081 0.66849 0.63513 0.0
C54 C 0.98761 0.65519 0.63869 0.0
C55 C 0.98763 0.63487 0.62847 0.0
C56 C 0.97039 0.62843 0.61475 0.0
C57 C 0.95324 0.64236 0.61141 0.0
C58 C 0.954 0.66233 0.62219 0.0
H59 H 0.00094 0.66009 0.64915 0.0
O60 O 0.01238 0.7135 0.60713 0.0
O61 O 0.98166 0.71026 0.62392 0.0
O62 O 0.01706 0.71761 0.65329 0.0
O63 O 0.99196 0.69516 0.66615 0.0
C64 C 0.93563 0.63738 0.59749 0.0
C65 C 0.91929 0.65249 0.59438 0.0
H66 H 0.89158 0.68605 0.59148 0.0
H67 H 0.89656 0.72115 0.61075 0.0
H68 H 0.00096 0.62423 0.63108 0.0
H69 H 0.97058 0.61283 0.60672 0.0
H70 H 0.93466 0.6221 0.58885 0.0
H71 H 0.90599 0.6486 0.5834 0.0
Mn72 Mn 0.49129 0.75624 0.87582 0.0
Mn73 Mn 0.51838 0.80301 0.86886 0.0
C74 C 0.51245 0.77082 0.9033 0.0
C75 C 0.46038 0.73773 0.88556 0.0
C76 C 0.53212 0.76024 0.8499 0.0
O77 O 0.47668 0.76846 0.84947 0.0
O78 O 0.49347 0.80089 0.8484 0.0
C79 C 0.48521 0.83334 0.88319 0.0
N80 N 0.50545 0.82554 0.88512 0.0
C81 C 0.51438 0.85067 0.91396 0.0
C82 C 0.49368 0.85909 0.91216 0.0
C83 C 0.47902 0.85034 0.89674 0.0
C84 C 0.51966 0.83378 0.89995 0.0
H85 H 0.47384 0.82658 0.87146 0.0
C86 C 0.479 0.78722 0.84179 0.0
O87 O 0.47428 0.72892 0.87298 0.0
O88 O 0.46413 0.75749 0.89177 0.0
N89 N 0.54263 0.80715 0.88805 0.0
C90 C 0.56157 0.7965 0.88846 0.0
C91 C 0.57781 0.80291 0.90336 0.0
C92 C 0.57446 0.82027 0.91759 0.0
C93 C 0.55491 0.83111 0.91675 0.0
C94 C 0.5394 0.82413 0.90142 0.0
H95 H 0.56427 0.78315 0.87757 0.0
O96 O 0.50732 0.75051 0.90317 0.0
O97 O 0.50489 0.78192 0.88751 0.0
O98 O 0.51754 0.74876 0.85842 0.0
O99 O 0.53333 0.78071 0.852 0.0
C100 C 0.55008 0.84833 0.93076 0.0
C101 C 0.52981 0.85808 0.92939 0.0
H102 H 0.4888 0.87212 0.92266 0.0
H103 H 0.46297 0.85666 0.89535 0.0
H104 H 0.59284 0.79445 0.90393 0.0
H105 H 0.58695 0.82505 0.92919 0.0
H106 H 0.56172 0.854 0.94286 0.0
H107 H 0.52617 0.87109 0.94047 0.0
Mn108 Mn 0.50487 0.247 0.13173 0.0
Mn109 Mn 0.47006 0.20758 0.14536 0.0
C110 C 0.49856 0.21782 0.10892 0.0
C111 C 0.5128 0.27961 0.11589 0.0
C112 C 0.51493 0.21293 0.16488 0.0
O113 O 0.48768 0.26104 0.15541 0.0
O114 O 0.46367 0.23436 0.16179 0.0
C115 C 0.42986 0.2256 0.12766 0.0
N116 N 0.44426 0.2094 0.12833 0.0
C117 C 0.42357 0.18844 0.10211 0.0
C118 C 0.40846 0.20485 0.10123 0.0
C119 C 0.41164 0.22352 0.11404 0.0
C120 C 0.44138 0.19138 0.11605 0.0
H121 H 0.43228 0.24001 0.13742 0.0
C122 C 0.47122 0.25352 0.16494 0.0
O123 O 0.52509 0.27196 0.13088 0.0
O124 O 0.49537 0.26871 0.11074 0.0
N125 N 0.47439 0.18097 0.13024 0.0
C126 C 0.49102 0.16714 0.13216 0.0
C127 C 0.49059 0.1479 0.11998 0.0
C128 C 0.47305 0.14302 0.10605 0.0
C129 C 0.45605 0.15742 0.10448 0.0
C130 C 0.45728 0.17628 0.11713 0.0
H131 H 0.50455 0.17082 0.14282 0.0
O132 O 0.51621 0.22915 0.10752 0.0
O133 O 0.48532 0.22393 0.1236 0.0
O134 O 0.52052 0.22889 0.15364 0.0
O135 O 0.49628 0.20396 0.16345 0.0
C136 C 0.43809 0.15396 0.09061 0.0
C137 C 0.42187 0.16946 0.08941 0.0
H138 H 0.39444 0.20335 0.09066 0.0
H139 H 0.4001 0.2363 0.11337 0.0
H140 H 0.50379 0.13688 0.12127 0.0
H141 H 0.47288 0.12825 0.09655 0.0
H142 H 0.43674 0.13956 0.08056 0.0
H143 H 0.40829 0.16675 0.07847 0.0
Mn144 Mn 0.01335 0.73922 0.13525 0.0
Mn145 Mn 0.05531 0.77078 0.12177 0.0
C146 C 0.04033 0.74756 0.16024 0.0
C147 C 0.97905 0.73479 0.14876 0.0
C148 C 0.0485 0.7247 0.10552 0.0
O149 O 0.00263 0.75411 0.10833 0.0
O150 O 0.03003 0.77789 0.10341 0.0
C151 C 0.04002 0.81365 0.13522 0.0
N152 N 0.0548 0.79786 0.13677 0.0
C153 C 0.07564 0.81846 0.16318 0.0
C154 C 0.06072 0.83501 0.16172 0.0
C155 C 0.04283 0.83258 0.1477 0.0
C156 C 0.07214 0.80007 0.15015 0.0
H157 H 0.02612 0.81176 0.12463 0.0
C158 C 0.01117 0.77014 0.09884 0.0
O159 O 0.98732 0.72038 0.13621 0.0
O160 O 0.99034 0.75225 0.15261 0.0
N161 N 0.08029 0.76526 0.13914 0.0
C162 C 0.09211 0.74707 0.14003 0.0
C163 C 0.11 0.74643 0.15411 0.0
C164 C 0.11553 0.76445 0.16714 0.0
C165 C 0.10312 0.78298 0.16597 0.0
C166 C 0.08559 0.78277 0.15148 0.0
H167 H 0.08783 0.73312 0.13017 0.0
O168 O 0.02832 0.73049 0.16252 0.0
O169 O 0.03637 0.75865 0.14324 0.0
O170 O 0.03251 0.72031 0.11719 0.0
O171 O 0.05773 0.74324 0.10548 0.0
C172 C 0.10713 0.80145 0.179 0.0
C173 C 0.09343 0.81919 0.17758 0.0
H174 H 0.06268 0.84952 0.17152 0.0
H175 H 0.03115 0.84521 0.14661 0.0
H176 H 0.11943 0.73202 0.15501 0.0
H177 H 0.1292 0.7638 0.17816 0.0
H178 H 0.12051 0.80204 0.19042 0.0
H179 H 0.09647 0.83315 0.18794 0.0
Mn180 Mn 0.50459 0.7455 0.38692 0.0
Mn181 Mn 0.45852 0.71855 0.39725 0.0
C182 C 0.49018 0.72123 0.36197 0.0
C183 C 0.52284 0.77513 0.37374 0.0
C184 C 0.50166 0.70829 0.41771 0.0
O185 O 0.49204 0.76284 0.41151 0.0
O186 O 0.45992 0.74572 0.41452 0.0
C187 C 0.42692 0.74865 0.37919 0.0
N188 N 0.43549 0.72868 0.3796 0.0
C189 C 0.4105 0.71559 0.35214 0.0
C190 C 0.40129 0.73597 0.35156 0.0
C191 C 0.40957 0.75258 0.36511 0.0
C192 C 0.42767 0.71259 0.3666 0.0
H193 H 0.43331 0.76151 0.38947 0.0
C194 C 0.47326 0.76112 0.41935 0.0
O195 O 0.53171 0.76287 0.38792 0.0
O196 O 0.50308 0.77063 0.36791 0.0
N197 N 0.45528 0.69222 0.38097 0.0
C198 C 0.467 0.67401 0.38233 0.0
C199 C 0.46141 0.65613 0.36913 0.0
C200 C 0.44379 0.65713 0.35474 0.0
C201 C 0.4319 0.67601 0.35369 0.0
C202 C 0.43815 0.69328 0.36733 0.0
H203 H 0.4806 0.67315 0.39332 0.0
O204 O 0.51044 0.72655 0.36149 0.0
O205 O 0.4791 0.73032 0.37696 0.0
O206 O 0.5127 0.7217 0.40714 0.0
O207 O 0.48119 0.70644 0.41606 0.0
C208 C 0.41435 0.67852 0.33935 0.0
C209 C 0.40366 0.69829 0.33858 0.0
H210 H 0.38801 0.73911 0.34061 0.0
H211 H 0.40265 0.7684 0.36465 0.0
H212 H 0.47071 0.64164 0.36999 0.0
H213 H 0.43964 0.64337 0.34446 0.0
H214 H 0.40917 0.66546 0.32859 0.0
H215 H 0.39042 0.70014 0.32723 0.0
Mn216 Mn 0.49057 0.24373 0.62995 0.0
Mn217 Mn 0.5325 0.27762 0.62187 0.0
C218 C 0.51872 0.24646 0.65463 0.0
C219 C 0.45713 0.23539 0.64392 0.0
C220 C 0.52582 0.23535 0.5975 0.0
O221 O 0.47846 0.2643 0.60796 0.0
O222 O 0.50708 0.28692 0.60487 0.0
C223 C 0.51563 0.31703 0.64234 0.0
N224 N 0.53103 0.3018 0.64118 0.0
C225 C 0.55124 0.31855 0.67056 0.0
C226 C 0.53566 0.33448 0.67198 0.0
C227 C 0.51777 0.33369 0.65782 0.0
C228 C 0.54834 0.30243 0.65469 0.0
H229 H 0.50179 0.31643 0.63157 0.0
C230 C 0.48759 0.28104 0.60038 0.0
O231 O 0.46474 0.22456 0.62784 0.0
O232 O 0.46843 0.2519 0.65104 0.0
N233 N 0.55782 0.27032 0.63793 0.0
C234 C 0.57063 0.25296 0.63539 0.0
C235 C 0.58887 0.25092 0.64881 0.0
C236 C 0.59377 0.26674 0.66466 0.0
C237 C 0.5804 0.2845 0.66691 0.0
C238 C 0.56254 0.28577 0.65295 0.0
H239 H 0.56687 0.2407 0.62331 0.0
O240 O 0.5068 0.22911 0.65351 0.0
O241 O 0.51405 0.26124 0.64099 0.0
O242 O 0.5089 0.22959 0.6072 0.0
O243 O 0.53584 0.25313 0.60147 0.0
C244 C 0.58383 0.30074 0.68277 0.0
C245 C 0.56926 0.31775 0.68459 0.0
H246 H 0.53715 0.34726 0.68401 0.0
H247 H 0.50562 0.34587 0.6589 0.0
H248 H 0.59907 0.23713 0.64702 0.0
H249 H 0.60772 0.26499 0.67513 0.0
H250 H 0.59745 0.30013 0.69385 0.0
H251 H 0.57189 0.32996 0.69707 0.0
Mn252 Mn -0.00244 0.26117 0.87614 0.0
Mn253 Mn 0.95125 0.23229 0.878 0.0
C254 C 0.98611 0.24063 0.84674 0.0
C255 C 0.0167 0.29256 0.86902 0.0
C256 C 0.99243 0.22004 0.90105 0.0
O257 O 0.98219 0.27447 0.9017 0.0
O258 O 0.95008 0.25692 0.89856 0.0
C259 C 0.92054 0.26375 0.86084 0.0
N260 N 0.9297 0.24407 0.85963 0.0
C261 C 0.90717 0.23357 0.8292 0.0
C262 C 0.89736 0.25366 0.83023 0.0
C263 C 0.90414 0.26884 0.84607 0.0
C264 C 0.92341 0.2294 0.84437 0.0
H265 H 0.92573 0.27546 0.87297 0.0
C266 C 0.96264 0.27141 0.90712 0.0
O267 O 0.02415 0.2785 0.88225 0.0
O268 O -0.00244 0.28891 0.86087 0.0
N269 N 0.95052 0.2082 0.85838 0.0
C270 C 0.96278 0.19028 0.85854 0.0
C271 C 0.95882 0.17393 0.84301 0.0
C272 C 0.94221 0.17609 0.82763 0.0
C273 C 0.92975 0.19463 0.82786 0.0
C274 C 0.93445 0.2104 0.84369 0.0
H275 H 0.97553 0.18851 0.87036 0.0
O276 O 0.00625 0.24624 0.849 0.0
O277 O 0.97342 0.24723 0.8617 0.0
O278 O 0.00436 0.23462 0.89325 0.0
O279 O 0.9722 0.21834 0.89743 0.0
C280 C 0.91304 0.19821 0.81282 0.0
C281 C 0.90176 0.21767 0.81349 0.0
H282 H 0.88476 0.25767 0.81881 0.0
H283 H 0.89674 0.28443 0.84688 0.0
H284 H 0.96855 0.15969 0.84291 0.0
H285 H 0.93926 0.16348 0.81563 0.0
H286 H 0.90898 0.18627 0.80043 0.0
H287 H 0.88919 0.2204 0.8016 0.0
Mn288 Mn 0.37685 0.98469 0.24821 0.0
Mn289 Mn 0.37107 0.01845 0.29065 0.0
C290 C 0.40371 0.00931 0.25753 0.0
C291 C 0.38783 0.95184 0.23444 0.0
C292 C 0.34856 0.02413 0.24746 0.0
O293 O 0.35247 0.97079 0.26439 0.0
O294 O 0.35152 0.99301 0.29343 0.0
C295 C 0.38842 0.99069 0.32477 0.0
N296 N 0.3891 0.00951 0.31394 0.0
C297 C 0.41899 0.02279 0.33583 0.0
C298 C 0.4185 0.00361 0.34731 0.0
C299 C 0.40319 0.98748 0.34172 0.0
C300 C 0.40385 0.02509 0.31911 0.0
H301 H 0.37674 0.9782 0.32048 0.0
C302 C 0.34527 0.9761 0.28277 0.0
O303 O 0.37376 0.96315 0.22415 0.0
O304 O 0.3949 0.95937 0.25288 0.0
N305 N 0.38945 0.04348 0.29012 0.0
C306 C 0.38846 0.06058 0.27679 0.0
C307 C 0.40295 0.07799 0.27998 0.0
C308 C 0.41824 0.07768 0.29689 0.0
C309 C 0.4189 0.05995 0.31046 0.0
C310 C 0.40393 0.04315 0.3066 0.0
H311 H 0.37678 0.0609 0.26375 0.0
O312 O 0.40261 0.00114 0.23818 0.0
O313 O 0.38912 0.00279 0.27065 0.0
O314 O 0.35686 0.00808 0.23792 0.0
O315 O 0.35242 0.02922 0.26719 0.0
C316 C 0.43399 0.05817 0.32749 0.0
C317 C 0.43411 0.03956 0.3401 0.0
H318 H 0.42992 0.00104 0.36035 0.0
H319 H 0.40278 0.97259 0.35043 0.0
H320 H 0.40238 0.09159 0.26941 0.0
H321 H 0.42948 0.09108 0.29921 0.0
H322 H 0.44575 0.07091 0.33089 0.0
H323 H 0.446 0.03824 0.35294 0.0
Mn324 Mn 0.25804 0.13357 0.50225 0.0
Mn325 Mn 0.2179 0.1489 0.46917 0.0
C326 C 0.22801 0.11158 0.49691 0.0
C327 C 0.29077 0.1174 0.50861 0.0
C328 C 0.22633 0.1682 0.51382 0.0
O329 O 0.27191 0.15715 0.48471 0.0
O330 O 0.24524 0.16314 0.46051 0.0
C331 C 0.23155 0.12929 0.42799 0.0
N332 N 0.21651 0.13156 0.44347 0.0
C333 C 0.19168 0.10782 0.4241 0.0
C334 C 0.2068 0.10543 0.40783 0.0
C335 C 0.22685 0.11614 0.40984 0.0
C336 C 0.19721 0.12123 0.44176 0.0
H337 H 0.24703 0.13735 0.42955 0.0
C338 C 0.26459 0.16589 0.46773 0.0
O339 O 0.2837 0.13227 0.52138 0.0
O340 O 0.27905 0.11229 0.49168 0.0
N341 N 0.19081 0.13572 0.47576 0.0
C342 C 0.17887 0.13811 0.49376 0.0
C343 C 0.15885 0.12741 0.49492 0.0
C344 C 0.15126 0.1145 0.47752 0.0
C345 C 0.1638 0.11233 0.45915 0.0
C346 C 0.18361 0.12339 0.45889 0.0
H347 H 0.18461 0.14801 0.50719 0.0
O348 O 0.24009 0.10963 0.514 0.0
O349 O 0.23394 0.12628 0.48359 0.0
O350 O 0.24122 0.15554 0.51906 0.0
O351 O 0.21723 0.16781 0.49522 0.0
C352 C 0.15761 0.09929 0.44124 0.0
C353 C 0.17155 0.09701 0.42374 0.0
H354 H 0.2033 0.09519 0.39387 0.0
H355 H 0.23868 0.11423 0.39745 0.0
H356 H 0.1493 0.12911 0.50919 0.0
H357 H 0.13586 0.10617 0.47852 0.0
H358 H 0.14234 0.09061 0.44094 0.0
H359 H 0.1668 0.08658 0.41027 0.0
Mn360 Mn 0.12804 0.01734 0.74002 0.0
Mn361 Mn 0.11648 0.05794 0.77419 0.0
C362 C 0.15398 0.04294 0.74935 0.0
C363 C 0.13989 0.98287 0.7329 0.0
C364 C 0.09989 0.05478 0.72804 0.0
O365 O 0.10124 0.0065 0.75485 0.0
O366 O 0.09676 0.03313 0.77953 0.0
C367 C 0.12877 0.03904 0.81588 0.0
N368 N 0.13125 0.05478 0.80115 0.0
C369 C 0.15852 0.07283 0.82318 0.0
C370 C 0.15619 0.05686 0.83862 0.0
C371 C 0.14125 0.0399 0.83495 0.0
C372 C 0.14545 0.07128 0.8046 0.0
H373 H 0.11741 0.0259 0.81306 0.0
C374 C 0.0918 0.01466 0.77107 0.0
O375 O 0.12746 0.99266 0.71943 0.0
O376 O 0.14474 0.99281 0.75096 0.0
N377 N 0.13507 0.08243 0.7705 0.0
C378 C 0.13661 0.0955 0.75324 0.0
C379 C 0.15154 0.11273 0.75388 0.0
C380 C 0.16474 0.11632 0.77223 0.0
C381 C 0.16286 0.10266 0.7898 0.0
C382 C 0.14754 0.08588 0.78832 0.0
H383 H 0.12664 0.0927 0.73902 0.0
O384 O 0.15549 0.03191 0.73152 0.0
O385 O 0.13716 0.03886 0.76072 0.0
O386 O 0.11038 0.03824 0.7228 0.0
O387 O 0.10054 0.06313 0.74696 0.0
C388 C 0.17595 0.10473 0.80849 0.0
C389 C 0.17375 0.08985 0.82519 0.0
H390 H 0.16596 0.05733 0.85324 0.0
H391 H 0.13945 0.02745 0.84674 0.0
H392 H 0.15298 0.12313 0.74021 0.0
H393 H 0.17641 0.12948 0.77257 0.0
H394 H 0.188 0.1175 0.81005 0.0
H395 H 0.18415 0.0914 0.83933 0.0
Mn396 Mn 0.24281 0.87747 0.01083 0.0
Mn397 Mn 0.21855 0.88161 0.96208 0.0
C398 C 0.22087 0.85 -0.00248 0.0
C399 C 0.27178 0.86825 0.03257 0.0
C400 C 0.20348 0.90476 0.00207 0.0
O401 O 0.2598 0.90159 -0.00294 0.0
O402 O 0.24389 0.90151 0.96412 0.0
C403 C 0.25306 0.86384 0.93529 0.0
N404 N 0.23232 0.86312 0.94192 0.0
C405 C 0.22406 0.83246 0.91886 0.0
C406 C 0.24529 0.83296 0.91168 0.0
C407 C 0.25987 0.84868 0.91998 0.0
C408 C 0.21819 0.848 0.93413 0.0
H409 H 0.26434 0.87586 0.94167 0.0
C410 C 0.25824 0.90831 0.97783 0.0
O411 O 0.25803 0.88236 0.03888 0.0
O412 O 0.26908 0.86006 0.01332 0.0
N413 N 0.19394 0.86292 0.95793 0.0
C414 C 0.17429 0.86413 0.96715 0.0
C415 C 0.15796 0.84926 0.96092 0.0
C416 C 0.16195 0.83343 0.94517 0.0
C417 C 0.18222 0.83266 0.93574 0.0
C418 C 0.19782 0.84799 0.94249 0.0
H419 H 0.17112 0.87627 0.97925 0.0
O420 O 0.22482 0.85181 0.01804 0.0
O421 O 0.23002 0.86418 0.98546 0.0
O422 O 0.21724 0.89682 0.01491 0.0
O423 O 0.20289 0.90087 0.98182 0.0
C424 C 0.18764 0.81712 0.9201 0.0
C425 C 0.20856 0.81698 0.91171 0.0
H426 H 0.25063 0.82125 0.89993 0.0
H427 H 0.27632 0.84911 0.91459 0.0
H428 H 0.14235 0.84997 0.96827 0.0
H429 H 0.14937 0.82188 0.94053 0.0
H430 H 0.17593 0.80502 0.91461 0.0
H431 H 0.21263 0.80476 0.89992 0.0
Mn432 Mn 0.26755 0.37655 0.99285 0.0
Mn433 Mn 0.31369 0.37204 0.02173 0.0
C434 C 0.27949 0.40426 0.01514 0.0
C435 C 0.2485 0.38564 0.96206 0.0
C436 C 0.27188 0.35019 0.03361 0.0
O437 O 0.2822 0.35199 0.97773 0.0
O438 O 0.31316 0.351 -0.0028 0.0
C439 C 0.34417 0.38724 0.98905 0.0
N440 N 0.33571 0.38918 0.00902 0.0
C441 C 0.35911 0.41944 0.01792 0.0
C442 C 0.36816 0.41768 -0.0025 0.0
C443 C 0.36062 0.40154 0.98299 0.0
C444 C 0.34279 0.4047 0.02308 0.0
H445 H 0.33838 0.37491 0.97782 0.0
C446 C 0.30077 0.34445 0.9816 0.0
O447 O 0.24085 0.37176 0.97538 0.0
O448 O 0.26762 0.3936 0.96625 0.0
N449 N 0.31632 0.39176 0.04569 0.0
C450 C 0.30519 0.39193 0.06435 0.0
C451 C 0.31039 0.40745 0.08039 0.0
C452 C 0.32707 0.42252 0.07715 0.0
C453 C 0.33844 0.42189 0.0579 0.0
C454 C 0.33262 0.40598 0.04255 0.0
H455 H 0.29235 0.3804 0.06693 0.0
O456 O 0.25928 0.40261 0.00963 0.0
O457 O 0.29202 0.38964 0.00748 0.0
O458 O 0.26084 0.35757 0.01809 0.0
O459 O 0.29194 0.35427 0.03649 0.0
C460 C 0.35511 0.43662 0.05323 0.0
C461 C 0.36539 0.43544 0.03323 0.0
H462 H 0.38079 0.42873 0.99273 0.0
H463 H 0.36745 0.40015 0.96716 0.0
H464 H 0.30153 0.40784 0.0952 0.0
H465 H 0.33092 0.43458 0.08949 0.0
H466 H 0.35994 0.44912 0.06479 0.0
H467 H 0.37797 0.44706 0.0297 0.0
Mn468 Mn 0.73836 0.12168 0.02508 0.0
Mn469 Mn 0.77036 0.10825 0.06691 0.0
C470 C 0.74499 0.14584 0.05311 0.0
C471 C 0.73327 0.13566 0.99107 0.0
C472 C 0.72447 0.09161 0.0605 0.0
O473 O 0.7542 0.09582 0.01349 0.0
O474 O 0.77704 0.09 0.04135 0.0
C475 C 0.8123 0.12262 0.04992 0.0
N476 N 0.79725 0.12353 0.06552 0.0
C477 C 0.81864 0.1494 0.08622 0.0
C478 C 0.83447 0.14856 0.07048 0.0
C479 C 0.83125 0.13516 0.05223 0.0
C480 C 0.80012 0.13648 0.08308 0.0
H481 H 0.80982 0.11248 0.03579 0.0
C482 C 0.76989 0.08602 0.02217 0.0
O483 O 0.71941 0.12236 -0.00086 0.0
O484 O 0.75053 0.14023 0.00248 0.0
N485 N 0.76576 0.12506 0.09247 0.0
C486 C 0.74842 0.12495 0.10553 0.0
C487 C 0.74879 0.138 0.12422 0.0
C488 C 0.767 0.15093 0.12932 0.0
C489 C 0.78471 0.15066 0.11572 0.0
C490 C 0.7835 0.1372 0.09741 0.0
H491 H 0.73435 0.11509 0.10168 0.0
O492 O 0.72813 0.14784 0.04074 0.0
O493 O 0.75737 0.1299 0.04859 0.0
O494 O 0.72034 0.10233 0.04377 0.0
O495 O 0.7428 0.09211 0.07018 0.0
C496 C 0.80338 0.16349 0.11941 0.0
C497 C 0.82033 0.16288 0.10466 0.0
H498 H 0.84906 0.1583 0.07214 0.0
H499 H 0.84332 0.13455 0.03993 0.0
H500 H 0.73503 0.13815 0.13461 0.0
H501 H 0.76714 0.16113 0.14364 0.0
H502 H 0.80475 0.17412 0.13338 0.0
H503 H 0.83446 0.17306 0.10751 0.0
Mn504 Mn 0.12704 0.49553 0.24212 0.0
Mn505 Mn 0.13839 0.46243 0.20047 0.0
C506 C 0.10236 0.48979 0.21446 0.0
C507 C 0.11337 0.50224 0.27599 0.0
C508 C 0.15788 0.50718 0.20635 0.0
O509 O 0.15131 0.47774 0.254 0.0
O510 O 0.15689 0.45524 0.22573 0.0
C511 C 0.12292 0.42107 0.21786 0.0
N512 N 0.12198 0.43626 0.20239 0.0
C513 C 0.0941 0.41632 0.18292 0.0
C514 C 0.09486 0.40041 0.19858 0.0
C515 C 0.10933 0.40281 0.21612 0.0
C516 C 0.10821 0.43405 0.18537 0.0
H517 H 0.1339 0.42292 0.23146 0.0
C518 C 0.16069 0.46189 0.24513 0.0
O519 O 0.12778 0.51486 0.2678 0.0
O520 O 0.10748 0.48523 0.26479 0.0
N521 N 0.12106 0.46773 0.17541 0.0
C522 C 0.12117 0.48528 0.16264 0.0
C523 C 0.10696 0.48586 0.14484 0.0
C524 C 0.09281 0.46841 0.14037 0.0
C525 C 0.09302 0.4505 0.15371 0.0
C526 C 0.10769 0.45073 0.17109 0.0
H527 H 0.13188 0.49882 0.16611 0.0
O528 O 0.10174 0.50725 0.22619 0.0
O529 O 0.11769 0.47667 0.21903 0.0
O530 O 0.14779 0.51194 0.22332 0.0
O531 O 0.15582 0.48899 0.19659 0.0
C532 C 0.0789 0.43267 0.15075 0.0
C533 C 0.07946 0.41557 0.16532 0.0
H534 H 0.08424 0.38641 0.19742 0.0
H535 H 0.10992 0.39066 0.22834 0.0
H536 H 0.10682 0.49979 0.13467 0.0
H537 H 0.0817 0.46903 0.12677 0.0
H538 H 0.06732 0.43209 0.13751 0.0
H539 H 0.0683 0.4021 0.16307 0.0
Mn540 Mn 0.75868 0.87296 0.5014 0.0
Mn541 Mn 0.80485 0.8676 0.52997 0.0
C542 C 0.77192 0.90091 0.52286 0.0
C543 C 0.74003 0.88284 0.4706 0.0
C544 C 0.7624 0.84715 0.54244 0.0
O545 O 0.77225 0.8473 0.48683 0.0
O546 O 0.80366 0.84638 0.50561 0.0
C547 C 0.83592 0.88141 0.49724 0.0
N548 N 0.82747 0.88384 0.51716 0.0
C549 C 0.85207 0.91315 0.52598 0.0
C550 C 0.86115 0.91085 0.50562 0.0
C551 C 0.853 0.89494 0.49117 0.0
C552 C 0.83516 0.89912 0.53117 0.0
H553 H 0.82966 0.86926 0.48604 0.0
C554 C 0.79082 0.83959 0.49046 0.0
O555 O 0.73167 0.86941 0.48397 0.0
O556 O 0.75964 0.88947 0.47455 0.0
N557 N 0.80796 0.88757 0.55366 0.0
C558 C 0.79638 0.88872 0.57202 0.0
C559 C 0.80188 0.9044 0.58781 0.0
C560 C 0.81928 0.91864 0.58463 0.0
C561 C 0.83103 0.91707 0.56566 0.0
C562 C 0.82485 0.90107 0.55052 0.0
H563 H 0.78296 0.87785 0.57453 0.0
O564 O 0.75163 0.89981 0.51762 0.0
O565 O 0.78373 0.88554 0.51554 0.0
O566 O 0.75126 0.85478 0.52711 0.0
O567 O 0.78261 0.85064 0.54488 0.0
C568 C 0.84837 0.93101 0.56101 0.0
C569 C 0.85885 0.92909 0.54116 0.0
H570 H 0.87424 0.92134 0.50084 0.0
H571 H 0.85984 0.89315 0.47538 0.0
H572 H 0.7927 0.90554 0.60238 0.0
H573 H 0.82338 0.93081 0.59678 0.0
H574 H 0.85354 0.9435 0.57243 0.0
H575 H 0.87191 0.94016 0.53762 0.0
Mn576 Mn 0.87775 0.01466 0.24721 0.0
Mn577 Mn 0.89155 0.97231 0.21607 0.0
C578 C 0.85319 -0.00068 0.22316 0.0
C579 C 0.86446 0.02895 0.27892 0.0
C580 C 0.90581 0.01814 0.20765 0.0
O581 O 0.90442 0.00381 0.2624 0.0
O582 O 0.91134 0.97475 0.24154 0.0
C583 C 0.88093 0.9372 0.24578 0.0
N584 N 0.87821 0.94667 0.22637 0.0
C585 C 0.85307 0.91889 0.21436 0.0
C586 C 0.85571 0.90877 0.23416 0.0
C587 C 0.86967 0.91799 0.24995 0.0
C588 C 0.8648 0.93795 0.21108 0.0
H589 H 0.89159 0.94427 0.25799 0.0
C590 C 0.91521 0.98713 0.25794 0.0
O591 O 0.87686 0.04025 0.26672 0.0
O592 O 0.86034 0.00916 0.27297 0.0
N593 N 0.87342 0.96804 0.19107 0.0
C594 C 0.87172 0.98049 0.17334 0.0
C595 C 0.85785 0.97388 0.15629 0.0
C596 C 0.846 0.95451 0.15758 0.0
C597 C 0.84817 0.94189 0.17591 0.0
C598 C 0.86233 0.94923 0.19234 0.0
H599 H 0.88076 0.9954 0.17227 0.0
O600 O 0.85085 0.01897 0.22997 0.0
O601 O 0.8698 0.98933 0.23063 0.0
O602 O 0.89583 0.02678 0.22315 0.0
O603 O 0.90568 -0.0021 0.20383 0.0
C604 C 0.83655 0.92251 0.17867 0.0
C605 C 0.83897 0.91104 0.1979 0.0
H606 H 0.84697 0.89402 0.23749 0.0
H607 H 0.87171 0.91034 0.26532 0.0
H608 H 0.85624 0.98373 0.14221 0.0
H609 H 0.83518 0.94957 0.14448 0.0
H610 H 0.82547 0.91645 0.16625 0.0
H611 H 0.82968 0.89634 0.19997 0.0
Mn612 Mn 0.22548 0.63376 0.5196 0.0
Mn613 Mn 0.25888 0.62182 0.56068 0.0
C614 C 0.2328 0.65873 0.54694 0.0
C615 C 0.21929 0.64711 0.48553 0.0
C616 C 0.21351 0.60332 0.5552 0.0
O617 O 0.24189 0.60814 0.50798 0.0
O618 O 0.26631 0.60436 0.53495 0.0
C619 C 0.30018 0.63828 0.54391 0.0
N620 N 0.28498 0.63847 0.55939 0.0
C621 C 0.30513 0.6651 0.58035 0.0
C622 C 0.32109 0.66505 0.56473 0.0
C623 C 0.31855 0.65164 0.5464 0.0
C624 C 0.28717 0.65144 0.57701 0.0
H625 H 0.29826 0.62808 0.52975 0.0
C626 C 0.25879 0.59977 0.51603 0.0
O627 O 0.20584 0.63373 0.49411 0.0
O628 O 0.23675 0.65209 0.49643 0.0
N629 N 0.25333 0.63835 0.5862 0.0
C630 C 0.23583 0.63756 0.59903 0.0
C631 C 0.23542 0.65065 0.61765 0.0
C632 C 0.25304 0.66434 0.62294 0.0
C633 C 0.2709 0.66483 0.60953 0.0
C634 C 0.27043 0.65135 0.59123 0.0
H635 H 0.22225 0.62706 0.59508 0.0
O636 O 0.21542 0.66022 0.5352 0.0
O637 O 0.24489 0.64265 0.54236 0.0
O638 O 0.20827 0.61444 0.53906 0.0
O639 O 0.23229 0.60411 0.56392 0.0
C640 C 0.28902 0.67838 0.61344 0.0
C641 C 0.30615 0.67846 0.5989 0.0
H642 H 0.33524 0.6754 0.56654 0.0
H643 H 0.33072 0.65162 0.53419 0.0
H644 H 0.22155 0.65022 0.62789 0.0
H645 H 0.2526 0.67451 0.63725 0.0
H646 H 0.28983 0.689 0.62745 0.0
H647 H 0.3199 0.68911 0.60198 0.0
Mn648 Mn 0.37912 0.51289 0.77074 0.0
Mn649 Mn 0.3822 0.47031 0.73658 0.0
C650 C 0.35159 0.50499 0.74642 0.0
C651 C 0.3691 0.52882 0.80293 0.0
C652 C 0.40665 0.51214 0.73053 0.0
O653 O 0.40223 0.49506 0.78485 0.0
O654 O 0.40259 0.46699 0.7613 0.0
C655 C 0.36472 0.43689 0.76509 0.0
N656 N 0.36371 0.44772 0.74628 0.0
C657 C 0.33251 0.42703 0.73426 0.0
C658 C 0.3333 0.41557 0.75345 0.0
C659 C 0.34945 0.42056 0.76895 0.0
C660 C 0.3482 0.44309 0.73128 0.0
H661 H 0.37705 0.44072 0.77709 0.0
C662 C 0.40913 0.47682 0.77861 0.0
O663 O 0.38413 0.53727 0.79139 0.0
O664 O 0.36078 0.51052 0.79631 0.0
N665 N 0.36299 0.47141 0.71221 0.0
C666 C 0.36387 0.48462 0.69501 0.0
C667 C 0.3486 0.48198 0.67819 0.0
C668 C 0.33265 0.46575 0.67919 0.0
C669 C 0.33214 0.45228 0.697 0.0
C670 C 0.34791 0.45553 0.71317 0.0
H671 H 0.37606 0.49714 0.69416 0.0
O672 O 0.35414 0.5244 0.75416 0.0
O673 O 0.36535 0.491 0.75292 0.0
O674 O 0.39964 0.52157 0.74725 0.0
O675 O 0.40129 0.4929 0.72492 0.0
C676 C 0.31641 0.43595 0.69948 0.0
C677 C 0.31655 0.42339 0.71813 0.0
H678 H 0.32149 0.40304 0.75653 0.0
H679 H 0.3501 0.41187 0.78384 0.0
H680 H 0.34907 0.49248 0.66452 0.0
H681 H 0.32082 0.46386 0.66625 0.0
H682 H 0.30396 0.43312 0.68728 0.0
H683 H 0.30419 0.41109 0.71999 0.0
Mn684 Mn 0.63103 0.01083 0.73737 0.0
Mn685 Mn 0.64548 0.97709 0.69752 0.0
C686 C 0.60683 0.00171 0.71004 0.0
C687 C 0.61726 0.01656 0.77132 0.0
C688 C 0.6617 0.02336 0.70218 0.0
O689 O 0.65727 0.99626 0.74966 0.0
O690 O 0.66332 0.97137 0.72364 0.0
C691 C 0.63173 0.93518 0.71495 0.0
N692 N 0.63047 0.95009 0.69924 0.0
C693 C 0.60458 0.9283 0.67898 0.0
C694 C 0.60568 0.91267 0.69489 0.0
C695 C 0.61931 0.91613 0.71295 0.0
C696 C 0.61754 0.94685 0.68171 0.0
H697 H 0.64206 0.93784 0.72894 0.0
C698 C 0.66709 0.97992 0.74233 0.0
O699 O 0.62975 0.03075 0.76258 0.0
O700 O 0.61313 -0.00111 0.76048 0.0
N701 N 0.62877 0.9811 0.67178 0.0
C702 C 0.62821 -0.00147 0.65886 0.0
C703 C 0.61457 -0.00189 0.64059 0.0
C704 C 0.60166 0.97981 0.6358 0.0
C705 C 0.60252 0.96206 0.64933 0.0
C706 C 0.61657 0.96332 0.6672 0.0
H707 H 0.63796 0.01271 0.66255 0.0
O708 O 0.60441 0.01927 0.72129 0.0
O709 O 0.62344 0.9904 0.71506 0.0
O710 O 0.64987 0.02862 0.7178 0.0
O711 O 0.66176 0.00441 0.6939 0.0
C712 C 0.58958 0.9434 0.64608 0.0
C713 C 0.59065 0.92651 0.66087 0.0
H714 H 0.59594 0.89807 0.69353 0.0
H715 H 0.62015 0.9042 0.72536 0.0
H716 H 0.61391 0.01192 0.63028 0.0
H717 H 0.59098 0.97965 0.62183 0.0
H718 H 0.5785 0.94201 0.63245 0.0
H719 H 0.58037 0.91239 0.65838 0.0
Mn720 Mn 0.74209 0.61843 0.99359 0.0
Mn721 Mn 0.70265 0.63314 0.95925 0.0
C722 C 0.71207 0.59653 0.98795 0.0
C723 C 0.77425 0.60152 0.0011 0.0
C724 C 0.70995 0.65324 0.00369 0.0
O725 O 0.75653 0.64158 0.97597 0.0
O726 O 0.73005 0.64781 0.9516 0.0
C727 C 0.71806 0.61366 0.91871 0.0
N728 N 0.70246 0.61566 0.93364 0.0
C729 C 0.67882 0.59121 0.91368 0.0
C730 C 0.69456 0.58903 0.89799 0.0
C731 C 0.71429 0.60025 0.90055 0.0
C732 C 0.68343 0.60491 0.93136 0.0
H733 H 0.73329 0.62216 0.92067 0.0
C734 C 0.74929 0.6506 0.95909 0.0
O735 O 0.76728 0.61682 0.01344 0.0
O736 O 0.76297 0.59669 0.98383 0.0
N737 N 0.6755 0.6196 0.9649 0.0
C738 C 0.66283 0.62199 0.98238 0.0
C739 C 0.64295 0.61094 0.98291 0.0
C740 C 0.63626 0.59766 0.96543 0.0
C741 C 0.64955 0.59552 0.94759 0.0
C742 C 0.66915 0.60698 0.94793 0.0
H743 H 0.6679 0.63216 0.99587 0.0
O744 O 0.72365 0.59493 0.00542 0.0
O745 O 0.71841 0.6109 0.97446 0.0
O746 O 0.72508 0.64105 0.00946 0.0
O747 O 0.70089 0.65205 0.98509 0.0
C748 C 0.6443 0.58212 0.92967 0.0
C749 C 0.65894 0.57993 0.91274 0.0
H750 H 0.69177 0.57858 0.88404 0.0
H751 H 0.72658 0.59853 0.88859 0.0
H752 H 0.63282 0.61262 -0.00322 0.0
H753 H 0.62099 0.58904 0.96597 0.0
H754 H 0.62922 0.57312 0.92892 0.0
H755 H 0.6549 0.56924 0.89926 0.0
Mn756 Mn 0.88542 0.47067 0.74463 0.0
Mn757 Mn 0.88295 0.5005 0.79042 0.0
C758 C 0.91442 0.49191 0.75572 0.0
C759 C 0.89295 0.4387 0.72673 0.0
C760 C 0.86066 0.51231 0.74861 0.0
O761 O 0.86006 0.45735 0.75981 0.0
O762 O 0.86146 0.4764 0.79105 0.0
C763 C 0.89831 0.46837 0.82139 0.0
N764 N 0.90029 0.48811 0.81247 0.0
C765 C 0.93057 0.4975 0.83568 0.0
C766 C 0.92877 0.47731 0.84521 0.0
C767 C 0.91261 0.46267 0.83799 0.0
C768 C 0.91583 0.5023 0.81924 0.0
H769 H 0.88594 0.45705 0.81585 0.0
C770 C 0.85353 0.46133 0.77877 0.0
O771 O 0.8798 0.4524 0.71848 0.0
O772 O 0.90105 0.44326 0.74569 0.0
N773 N 0.90309 0.52417 0.79205 0.0
C774 C 0.90344 0.54245 0.78032 0.0
C775 C 0.91899 0.55858 0.78516 0.0
C776 C 0.93392 0.55581 0.80207 0.0
C777 C 0.93319 0.5369 0.81397 0.0
C778 C 0.91722 0.52146 0.80852 0.0
H779 H 0.89201 0.54469 0.76732 0.0
O780 O 0.91232 0.48581 0.73571 0.0
O781 O 0.89957 0.48534 0.76859 0.0
O782 O 0.8676 0.49672 0.73733 0.0
O783 O 0.865 0.51498 0.76866 0.0
C784 C 0.94794 0.53259 0.83075 0.0
C785 C 0.94666 0.51288 0.84156 0.0
H786 H 0.93982 0.47282 0.85795 0.0
H787 H 0.91118 0.44702 0.84519 0.0
H788 H 0.91949 0.5731 0.77586 0.0
H789 H 0.94595 0.56823 0.80567 0.0
H790 H 0.96054 0.54417 0.83523 0.0
H791 H 0.9583 0.50962 0.85421 0.0
Mn792 Mn 0.74592 0.38053 0.50731 0.0
Mn793 Mn 0.71001 0.38243 0.46618 0.0
C794 C 0.72543 0.35053 0.49797 0.0
C795 C 0.78054 0.37473 0.52002 0.0
C796 C 0.70318 0.40302 0.51011 0.0
O797 O 0.75515 0.40711 0.49137 0.0
O798 O 0.73298 0.40471 0.46221 0.0
C799 C 0.73747 0.36865 0.43027 0.0
N800 N 0.71955 0.36572 0.44221 0.0
C801 C 0.7086 0.33457 0.4209 0.0
C802 C 0.72683 0.33738 0.40827 0.0
C803 C 0.74135 0.35447 0.41301 0.0
C804 C 0.70548 0.34931 0.4378 0.0
H805 H 0.74877 0.38165 0.43395 0.0
C806 C 0.74897 0.41326 0.47283 0.0
O807 O 0.76737 0.38646 0.5309 0.0
O808 O 0.7738 0.36708 0.50148 0.0
N809 N 0.68743 0.36122 0.46809 0.0
C810 C 0.67147 0.35982 0.48275 0.0
C811 C 0.65604 0.34308 0.48079 0.0
C812 C 0.65713 0.328 0.46377 0.0
C813 C 0.67363 0.32982 0.44883 0.0
C814 C 0.68845 0.34694 0.45149 0.0
H815 H 0.67058 0.3713 0.49591 0.0
O816 O 0.73415 0.35233 0.51706 0.0
O817 O 0.72904 0.36631 0.48508 0.0
O818 O 0.72015 0.39598 0.51901 0.0
O819 O 0.69829 0.39972 0.49024 0.0
C820 C 0.67621 0.31503 0.43167 0.0
C821 C 0.69369 0.3174 0.41773 0.0
H822 H 0.72998 0.32638 0.39505 0.0
H823 H 0.75555 0.35665 0.40343 0.0
H824 H 0.6434 0.34174 0.49243 0.0
H825 H 0.64533 0.31498 0.46246 0.0
H826 H 0.66505 0.30158 0.42928 0.0
H827 H 0.69571 0.30572 0.40482 0.0
Mn828 Mn 0.62404 0.52644 0.2408 0.0
Mn829 Mn 0.61187 0.5712 0.26904 0.0
C830 C 0.64985 0.55291 0.2476 0.0
C831 C 0.63641 0.49155 0.23814 0.0
C832 C 0.59737 0.56288 0.22283 0.0
O833 O 0.59711 0.5174 0.25636 0.0
O834 O 0.59089 0.54771 0.27575 0.0
C835 C 0.62087 0.5564 0.31323 0.0
N836 N 0.62483 0.57041 0.29714 0.0
C837 C 0.65166 0.5895 0.31883 0.0
C838 C 0.64778 0.57535 0.33566 0.0
C839 C 0.63232 0.55873 0.33284 0.0
C840 C 0.63955 0.58657 0.29974 0.0
H841 H 0.60913 0.54349 0.31109 0.0
C842 C 0.58658 0.52806 0.27027 0.0
O843 O 0.62405 0.49947 0.22335 0.0
O844 O 0.64076 0.5036 0.255 0.0
N845 N 0.63155 0.59456 0.26409 0.0
C846 C 0.6346 0.60572 0.24572 0.0
C847 C 0.6502 0.62233 0.24554 0.0
C848 C 0.66253 0.62725 0.2642 0.0
C849 C 0.6591 0.61555 0.28292 0.0
C850 C 0.64316 0.59932 0.28222 0.0
H851 H 0.62534 0.60185 0.23126 0.0
O852 O 0.65159 0.53994 0.23115 0.0
O853 O 0.63275 0.55032 0.25898 0.0
O854 O 0.60659 0.54495 0.22067 0.0
O855 O 0.59808 0.57403 0.24029 0.0
C856 C 0.67125 0.61899 0.30207 0.0
C857 C 0.66751 0.606 0.32002 0.0
H858 H 0.65675 0.57694 0.35073 0.0
H859 H 0.62932 0.54766 0.34571 0.0
H860 H 0.65283 0.63121 0.23099 0.0
H861 H 0.67473 0.6399 0.26392 0.0
H862 H 0.68374 0.63137 0.30306 0.0
H863 H 0.67717 0.6086 0.33455 0.0
Fe864 Fe 0.12788 0.117 0.1407 0.0
Fe865 Fe 0.11439 0.1592 0.12062 0.0
O866 O 0.13103 0.13652 0.12071 0.0
Fe867 Fe 0.15063 0.13336 0.10069 0.0
O868 O 0.13831 0.10832 0.09126 0.0
O869 O 0.13513 0.09422 0.12319 0.0
O870 O 0.10035 0.11159 0.13229 0.0
C871 C 0.08596 0.1255 0.13157 0.0
C872 C 0.17156 0.11915 0.13868 0.0
O873 O 0.09091 0.14534 0.13197 0.0
C874 C 0.15513 0.1761 0.11005 0.0
O875 O 0.12014 0.13643 0.16184 0.0
O876 O 0.12449 0.16784 0.14677 0.0
O877 O 0.16995 0.11959 0.11832 0.0
O878 O 0.15523 0.12112 0.15016 0.0
C879 C 0.11457 0.14861 0.078 0.0
O880 O 0.13482 0.17734 0.10943 0.0
O881 O 0.16409 0.15816 0.10897 0.0
C882 C 0.12381 0.15655 0.16334 0.0
O883 O 0.10344 0.15157 0.09444 0.0
O884 O 0.13479 0.14661 0.07952 0.0
C885 C 0.13485 0.09229 0.10286 0.0
Fe886 Fe 0.10058 0.85615 0.39543 0.0
Fe887 Fe 0.12496 0.89419 0.37645 0.0
O888 O 0.12213 0.87504 0.39675 0.0
Fe889 Fe 0.14107 0.87469 0.41827 0.0
O890 O 0.14884 0.8479 0.41071 0.0
O891 O 0.11596 0.83441 0.40788 0.0
O892 O 0.10928 0.84552 0.36987 0.0
C893 C 0.11169 0.85655 0.35332 0.0
C894 C 0.10144 0.86596 0.43825 0.0
O895 O 0.11326 0.87686 0.35473 0.0
C896 C 0.13582 0.91766 0.41473 0.0
O897 O 0.08151 0.87462 0.38257 0.0
O898 O 0.0993 0.90548 0.38253 0.0
O899 O 0.12177 0.86481 0.43807 0.0
O900 O 0.09064 0.86559 0.42092 0.0
C901 C 0.16657 0.88293 0.3822 0.0
O902 O 0.13709 0.9151 0.3945 0.0
O903 O 0.13428 0.90164 0.42675 0.0
C904 C 0.08177 0.89501 0.38179 0.0
O905 O 0.15078 0.88377 0.3693 0.0
O906 O 0.16387 0.88441 0.40233 0.0
C907 C 0.13617 0.83195 0.40847 0.0
Fe908 Fe 0.36417 0.91491 0.64421 0.0
Fe909 Fe 0.34221 0.89596 0.6034 0.0
O910 O 0.36216 0.89464 0.62397 0.0
Fe911 Fe 0.38015 0.8731 0.62438 0.0
O912 O 0.37087 0.86483 0.6503 0.0
O913 O 0.37386 0.89693 0.66535 0.0
O914 O 0.3374 0.90855 0.65294 0.0
C915 C 0.32077 0.90805 0.64107 0.0
C916 C 0.40647 0.90918 0.63623 0.0
O917 O 0.32219 0.90871 0.62076 0.0
C918 C 0.37902 0.88184 0.58166 0.0
O919 O 0.35488 0.93656 0.6268 0.0
O920 O 0.3529 0.92142 0.59466 0.0
O921 O 0.4028 0.88906 0.63631 0.0
O922 O 0.39118 0.92217 0.63649 0.0
C923 C 0.3404 0.85323 0.612 0.0
O924 O 0.35874 0.88328 0.58258 0.0
O925 O 0.39036 0.88027 0.59852 0.0
C926 C 0.35561 0.93789 0.60652 0.0
O927 O 0.33037 0.87055 0.61082 0.0
O928 O 0.36079 0.85323 0.61261 0.0
C929 C 0.37159 0.87673 0.66689 0.0
Fe930 Fe 0.4175 0.13606 0.86902 0.0
Fe931 Fe 0.39601 0.09495 0.85033 0.0
O932 O 0.39695 0.11603 0.86982 0.0
Fe933 Fe 0.37733 0.11711 0.88992 0.0
O934 O 0.36862 0.14313 0.88134 0.0
O935 O 0.40093 0.15778 0.87966 0.0
O936 O 0.40865 0.14393 0.84258 0.0
C937 C 0.40671 0.13147 0.82646 0.0
C938 C 0.41606 0.12926 0.91213 0.0
O939 O 0.40722 0.11128 0.82867 0.0
C940 C 0.38418 0.07412 0.88868 0.0
O941 O 0.43782 0.11786 0.85829 0.0
O942 O 0.42215 0.08595 0.85899 0.0
O943 O 0.39568 0.12884 0.91068 0.0
O944 O 0.4274 0.12952 0.89556 0.0
C945 C 0.35355 0.10452 0.85234 0.0
O946 O 0.38443 0.07477 0.86832 0.0
O947 O 0.38475 0.0912 0.89983 0.0
C948 C 0.43895 0.09761 0.85972 0.0
O949 O 0.3698 0.10287 0.8407 0.0
O950 O 0.35551 0.10547 0.87268 0.0
C951 C 0.38069 0.15951 0.88012 0.0
Fe952 Fe 0.60615 0.33403 0.88956 0.0
Fe953 Fe 0.62579 0.37369 0.86844 0.0
O954 O 0.62614 0.35458 0.88901 0.0
Fe955 Fe 0.64658 0.3561 0.90913 0.0
O956 O 0.65608 0.32996 0.90132 0.0
O957 O 0.62427 0.31387 0.90099 0.0
O958 O 0.61354 0.3238 0.86338 0.0
C959 C 0.61361 0.3348 0.8466 0.0
C960 C 0.60955 0.34511 0.93215 0.0
O961 O 0.61409 0.35516 0.84779 0.0
C962 C 0.63686 0.39829 0.90576 0.0
O963 O 0.58459 0.35065 0.87815 0.0
O964 O 0.59972 0.38275 0.87627 0.0
O965 O 0.62981 0.34505 0.93043 0.0
O966 O 0.59749 0.34304 0.91573 0.0
C967 C 0.66862 0.36649 0.87123 0.0
O968 O 0.63721 0.39577 0.88548 0.0
O969 O 0.63802 0.38236 0.91789 0.0
C970 C 0.58312 0.37094 0.8772 0.0
O971 O 0.65194 0.36566 0.85943 0.0
O972 O 0.66717 0.36751 0.89153 0.0
C973 C 0.64465 0.31301 0.90051 0.0
Fe974 Fe 0.83447 0.3837 0.11502 0.0
Fe975 Fe 0.85813 0.40846 0.15166 0.0
O976 O 0.85555 0.38555 0.13448 0.0
Fe977 Fe 0.87412 0.36462 0.13679 0.0
O978 O 0.88258 0.36801 0.10948 0.0
O979 O 0.85007 0.36866 0.09508 0.0
O980 O 0.84395 0.40781 0.10231 0.0
C981 C 0.84658 0.42581 0.11162 0.0
C982 C 0.83433 0.34255 0.12913 0.0
O983 O 0.8471 0.42729 0.13197 0.0
C984 C 0.86879 0.37411 0.17905 0.0
O985 O 0.81514 0.39834 0.13167 0.0
O986 O 0.8321 0.40294 0.16281 0.0
O987 O 0.85471 0.34306 0.12905 0.0
O988 O 0.82376 0.35936 0.12639 0.0
C989 C 0.90004 0.40241 0.14216 0.0
O990 O 0.86973 0.39389 0.17453 0.0
O991 O 0.86677 0.36004 0.16429 0.0
C992 C 0.81484 0.40077 0.15198 0.0
O993 O 0.88444 0.41503 0.14143 0.0
O994 O 0.8969 0.38246 0.14494 0.0
C995 C 0.87025 0.36708 0.09319 0.0
Fe996 Fe 0.87514 0.61397 0.38795 0.0
Fe997 Fe 0.91554 0.63654 0.37138 0.0
O998 O 0.89509 0.61651 0.36837 0.0
Fe999 Fe 0.89457 0.599 0.34561 0.0
O1000 O 0.86853 0.60849 0.337 0.0
O1001 O 0.85376 0.60527 0.36863 0.0
O1002 O 0.86634 0.64106 0.38374 0.0
C1003 C 0.87828 0.65759 0.38545 0.0
C1004 C 0.88184 0.5718 0.37935 0.0
O1005 O 0.89856 0.65614 0.38517 0.0
C1006 C 0.93729 0.60005 0.35625 0.0
O1007 O 0.89293 0.62224 0.41071 0.0
O1008 O 0.9249 0.62567 0.39653 0.0
O1009 O 0.88235 0.57606 0.35952 0.0
O1010 O 0.88271 0.5867 0.39331 0.0
C1011 C 0.906 0.63906 0.32853 0.0
O1012 O 0.93617 0.62033 0.35828 0.0
O1013 O 0.92052 0.58862 0.35314 0.0
C1014 C 0.91328 0.62267 0.41261 0.0
O1015 O 0.90727 0.64875 0.34648 0.0
O1016 O 0.90647 0.61872 0.32744 0.0
C1017 C 0.85205 0.6078 0.34848 0.0
Fe1018 Fe 0.89913 0.85707 0.87533 0.0
Fe1019 Fe 0.86077 0.87482 0.89959 0.0
O1020 O 0.87989 0.8772 0.87911 0.0
Fe1021 Fe 0.87971 0.89965 0.86215 0.0
O1022 O 0.9066 0.90764 0.87095 0.0
O1023 O 0.92014 0.87566 0.8658 0.0
O1024 O 0.91016 0.86158 0.90208 0.0
C1025 C 0.89941 0.86012 0.91898 0.0
C1026 C 0.88856 0.86508 0.83375 0.0
O1027 O 0.87905 0.86121 0.91837 0.0
C1028 C 0.83684 0.89061 0.86427 0.0
O1029 O 0.88176 0.83481 0.88417 0.0
O1030 O 0.85039 0.84968 0.88833 0.0
O1031 O 0.88966 0.88499 0.8384 0.0
O1032 O 0.88904 0.85136 0.84837 0.0
C1033 C 0.86942 0.91764 0.90299 0.0
O1034 O 0.83914 0.88802 0.88436 0.0
O1035 O 0.85293 0.89273 0.85244 0.0
C1036 C 0.86148 0.83324 0.88525 0.0
O1037 O 0.86984 0.89981 0.91218 0.0
O1038 O 0.86953 0.91849 0.88264 0.0
C1039 C 0.92264 0.89583 0.86846 0.0
Fe1040 Fe 0.87966 0.128 0.62438 0.0
Fe1041 Fe 0.85596 0.15105 0.58796 0.0
O1042 O 0.87952 0.14732 0.60388 0.0
Fe1043 Fe 0.90292 0.16303 0.59901 0.0
O1044 O 0.90318 0.17447 0.62598 0.0
O1045 O 0.89738 0.14395 0.64261 0.0
O1046 O 0.85728 0.14033 0.63784 0.0
C1047 C 0.83908 0.14302 0.62919 0.0
C1048 C 0.92009 0.12246 0.60905 0.0
O1049 O 0.83706 0.14392 0.60897 0.0
C1050 C 0.88919 0.15413 0.55797 0.0
O1051 O 0.86199 0.10885 0.60953 0.0
O1052 O 0.85617 0.12352 0.57798 0.0
O1053 O 0.92199 0.14254 0.60692 0.0
O1054 O 0.90204 0.11394 0.61275 0.0
C1055 C 0.86927 0.19255 0.59476 0.0
O1056 O 0.8704 0.15869 0.56374 0.0
O1057 O 0.90418 0.15233 0.57171 0.0
C1058 C 0.85674 0.10724 0.58977 0.0
O1059 O 0.85437 0.17878 0.5971 0.0
O1060 O 0.88815 0.18673 0.59053 0.0
C1061 C 0.90286 0.16368 0.64295 0.0
Fe1062 Fe 0.63956 0.09266 0.3595 0.0
Fe1063 Fe 0.65036 0.10633 0.40604 0.0
O1064 O 0.63548 0.10996 0.38187 0.0
Fe1065 Fe 0.61659 0.13078 0.37998 0.0
O1066 O 0.63046 0.14282 0.35771 0.0
O1067 O 0.63364 0.1128 0.33919 0.0
O1068 O 0.66752 0.10107 0.35825 0.0
C1069 C 0.68091 0.09955 0.37362 0.0
C1070 C 0.59603 0.09567 0.35764 0.0
O1071 O 0.67458 0.09682 0.39265 0.0
C1072 C 0.60898 0.11778 0.42077 0.0
O1073 O 0.64613 0.06919 0.37552 0.0
O1074 O 0.63963 0.07923 0.40871 0.0
O1075 O 0.59804 0.11563 0.36177 0.0
O1076 O 0.6118 0.08335 0.3595 0.0
C1077 C 0.65133 0.1501 0.404 0.0
O1078 O 0.62899 0.11544 0.42375 0.0
O1079 O 0.60129 0.12038 0.40212 0.0
C1080 C 0.64164 0.06456 0.39466 0.0
O1081 O 0.66203 0.13314 0.40507 0.0
O1082 O 0.63182 0.14957 0.39777 0.0
C1083 C 0.63347 0.13313 0.34009 0.0
Fe1084 Fe 0.60314 0.8437 0.14537 0.0
Fe1085 Fe 0.63304 0.87511 0.12263 0.0
O1086 O 0.6165 0.86902 0.14458 0.0
Fe1087 Fe 0.6133 0.88819 0.16568 0.0
O1088 O 0.58531 0.88008 0.17109 0.0
O1089 O 0.57715 0.85618 0.14557 0.0
O1090 O 0.59951 0.84084 0.11615 0.0
C1091 C 0.59941 0.85485 0.10166 0.0
C1092 C 0.61573 0.85177 0.18901 0.0
O1093 O 0.61073 0.8718 0.1037 0.0
C1094 C 0.65752 0.89226 0.15561 0.0
O1095 O 0.62829 0.82948 0.14502 0.0
O1096 O 0.64161 0.8474 0.1181 0.0
O1097 O 0.62382 0.87004 0.1855 0.0
O1098 O 0.60415 0.84207 0.17478 0.0
C1099 C 0.61234 0.91446 0.13119 0.0
O1100 O 0.65637 0.87887 0.14015 0.0
O1101 O 0.64066 0.8996 0.16393 0.0
C1102 C 0.64167 0.83121 0.13015 0.0
O1103 O 0.62747 0.90386 0.12316 0.0
O1104 O 0.60265 0.90796 0.14751 0.0
C1105 C 0.57149 0.86976 0.1595 0.0
Fe1106 Fe 0.39499 0.66903 0.11506 0.0
Fe1107 Fe 0.34925 0.6523 0.10329 0.0
O1108 O 0.37425 0.64923 0.117 0.0
Fe1109 Fe 0.37845 0.62621 0.13264 0.0
O1110 O 0.40736 0.625 0.12793 0.0
O1111 O 0.41376 0.64994 0.10428 0.0
O1112 O 0.38828 0.67573 0.08708 0.0
C1113 C 0.37738 0.6654 0.07272 0.0
C1114 C 0.39684 0.6571 0.15893 0.0
O1115 O 0.36216 0.6529 0.0776 0.0
C1116 C 0.33491 0.63605 0.14072 0.0
O1117 O 0.37807 0.68978 0.12576 0.0
O1118 O 0.34951 0.68174 0.10568 0.0
O1119 O 0.38263 0.64246 0.15675 0.0
O1120 O 0.4053 0.66561 0.14268 0.0
C1121 C 0.3576 0.60793 0.09795 0.0
O1122 O 0.33445 0.65169 0.12813 0.0
O1123 O 0.35031 0.62306 0.14033 0.0
C1124 C 0.36006 0.69473 0.11796 0.0
O1125 O 0.34461 0.62338 0.09826 0.0
O1126 O 0.37452 0.60861 0.10942 0.0
C1127 C 0.41896 0.63293 0.11351 0.0
Fe1128 Fe 0.14446 0.59391 0.86127 0.0
Fe1129 Fe 0.15296 0.60262 0.90922 0.0
O1130 O 0.13726 0.60677 0.88567 0.0
Fe1131 Fe 0.11467 0.62366 0.88664 0.0
O1132 O 0.1251 0.64089 0.86592 0.0
O1133 O 0.13499 0.61522 0.84383 0.0
O1134 O 0.17076 0.6072 0.86184 0.0
C1135 C 0.18416 0.60554 0.87718 0.0
C1136 C 0.10069 0.58861 0.85943 0.0
O1137 O 0.17816 0.59872 0.89515 0.0
C1138 C 0.11078 0.60505 0.92565 0.0
O1139 O 0.15479 0.56994 0.87429 0.0
O1140 O 0.14651 0.57404 0.90831 0.0
O1141 O 0.09855 0.6075 0.86701 0.0
O1142 O 0.11881 0.57988 0.85905 0.0
C1143 C 0.14671 0.64586 0.91194 0.0
O1144 O 0.13098 0.60608 0.92798 0.0
O1145 O 0.10216 0.60797 0.90748 0.0
C1146 C 0.15024 0.56199 0.89228 0.0
O1147 O 0.16013 0.63091 0.9112 0.0
O1148 O 0.12715 0.64265 0.90638 0.0
C1149 C 0.13013 0.63457 0.84736 0.0
Fe1150 Fe 0.14373 0.3788 0.62755 0.0
Fe1151 Fe 0.11265 0.3486 0.65068 0.0
O1152 O 0.12388 0.37472 0.64713 0.0
Fe1153 Fe 0.11531 0.3968 0.66299 0.0
O1154 O 0.14175 0.41048 0.66394 0.0
O1155 O 0.16327 0.38792 0.64778 0.0
O1156 O 0.15501 0.35201 0.62967 0.0
C1157 C 0.15418 0.33796 0.64407 0.0
C1158 C 0.11909 0.41653 0.62456 0.0
O1159 O 0.13871 0.33735 0.65686 0.0
C1160 C 0.07672 0.37312 0.65371 0.0
O1161 O 0.12532 0.36996 0.6062 0.0
O1162 O 0.1142 0.34062 0.62217 0.0
O1163 O 0.10674 0.41154 0.63956 0.0
O1164 O 0.13622 0.40637 0.6216 0.0
C1165 C 0.1167 0.36571 0.69338 0.0
O1166 O 0.0858 0.35762 0.64458 0.0
O1167 O 0.08743 0.38699 0.66482 0.0
C1168 C 0.11585 0.35184 0.60545 0.0
O1169 O 0.10892 0.35212 0.67977 0.0
O1170 O 0.12322 0.38396 0.68763 0.0
C1171 C 0.16046 0.40364 0.66046 0.0
Fe1172 Fe 0.65655 0.62607 0.62134 0.0
Fe1173 Fe 0.63684 0.60723 0.6619 0.0
O1174 O 0.63755 0.62729 0.64211 0.0
Fe1175 Fe 0.61917 0.64859 0.64305 0.0
O1176 O 0.60793 0.64096 0.61702 0.0
O1177 O 0.63893 0.63827 0.60099 0.0
O1178 O 0.64586 0.60039 0.61192 0.0
C1179 C 0.64382 0.58397 0.62327 0.0
C1180 C 0.65808 0.6689 0.63097 0.0
O1181 O 0.645 0.58539 0.64362 0.0
C1182 C 0.63013 0.6458 0.68546 0.0
O1183 O 0.67755 0.6136 0.63789 0.0
O1184 O 0.66421 0.61338 0.67036 0.0
O1185 O 0.63773 0.66855 0.63166 0.0
O1186 O 0.66835 0.65172 0.6295 0.0
C1187 C 0.59397 0.61238 0.65445 0.0
O1188 O 0.62835 0.62551 0.6837 0.0
O1189 O 0.62946 0.65738 0.6691 0.0
C1190 C 0.68011 0.61302 0.65814 0.0
O1191 O 0.60953 0.59976 0.65461 0.0
O1192 O 0.59717 0.63256 0.65463 0.0
C1193 C 0.61859 0.63931 0.60009 0.0
Fe1194 Fe 0.4036 0.37712 0.38693 0.0
Fe1195 Fe 0.37715 0.41128 0.36363 0.0
O1196 O 0.3798 0.39225 0.38436 0.0
Fe1197 Fe 0.35845 0.38818 0.40244 0.0
O1198 O 0.36356 0.35981 0.40636 0.0
O1199 O 0.38864 0.35179 0.38339 0.0
O1200 O 0.40865 0.37578 0.35812 0.0
C1201 C 0.39623 0.3781 0.34204 0.0
C1202 C 0.39289 0.38708 0.4301 0.0
O1203 O 0.38064 0.39076 0.34288 0.0
C1204 C 0.35926 0.43301 0.39726 0.0
O1205 O 0.42038 0.40119 0.39039 0.0
O1206 O 0.40564 0.4189 0.36375 0.0
O1207 O 0.37537 0.39592 0.42542 0.0
O1208 O 0.40269 0.37592 0.41629 0.0
C1209 C 0.33609 0.39114 0.3645 0.0
O1210 O 0.37343 0.43316 0.383 0.0
O1211 O 0.3494 0.41581 0.40181 0.0
C1212 C 0.42067 0.41655 0.37743 0.0
O1213 O 0.34816 0.40689 0.35976 0.0
O1214 O 0.33998 0.38002 0.38079 0.0
C1215 C 0.37267 0.34633 0.39438 0.0
C1216 C 0.08177 0.26653 0.31938 0.0
C1217 C 0.06862 0.25349 0.33211 0.0
C1218 C 0.09437 0.2573 0.3034 0.0
C1219 C 0.1151 0.20528 0.28279 0.0
H1220 H 0.10584 0.23049 0.22694 0.0
C1221 C 0.11768 0.15711 0.20307 0.0
C1222 C 0.12464 0.16758 0.18457 0.0
C1223 C 0.11651 0.16841 0.22263 0.0
C1224 C 0.10905 0.22345 0.24244 0.0
H1225 H 0.05952 0.22046 0.33897 0.0
H1226 H 0.08116 0.20456 0.3111 0.0
H1227 H 0.09421 0.24944 0.25901 0.0
H1228 H 0.13738 0.19764 0.1724 0.0
H1229 H 0.13558 0.21719 0.20654 0.0
H1230 H 0.1292 0.17885 0.26602 0.0
C1231 C 0.08188 0.22185 0.31346 0.0
C1232 C 0.10239 0.23436 0.26085 0.0
C1233 C 0.06926 0.23103 0.32931 0.0
C1234 C 0.13156 0.18921 0.18629 0.0
C1235 C 0.13052 0.20044 0.20584 0.0
C1236 C 0.12179 0.19436 0.26434 0.0
C1237 C 0.09418 0.23489 0.3 0.0
C1238 C 0.10477 0.22511 0.28116 0.0
C1239 C 0.12243 0.19034 0.22408 0.0
C1240 C 0.11828 0.20306 0.24392 0.0
H1241 H 0.08178 0.28387 0.32124 0.0
H1242 H 0.10387 0.26773 0.29337 0.0
H1243 H 0.11742 0.19792 0.29829 0.0
H1244 H 0.11232 0.14044 0.20226 0.0
H1245 H 0.11002 0.1602 0.23635 0.0
C1246 C 0.03586 0.79213 0.59906 0.0
C1247 C 0.01484 0.78348 0.59805 0.0
C1248 C 0.04239 0.8075 0.58436 0.0
C1249 C 0.02881 0.82309 0.52934 0.0
H1250 H 0.0747 0.86535 0.53956 0.0
C1251 C 0.06739 0.86576 0.45898 0.0
C1252 C 0.08993 0.86441 0.45876 0.0
C1253 C 0.05618 0.86169 0.47773 0.0
C1254 C 0.06182 0.85366 0.53651 0.0
H1255 H 0.98363 0.78539 0.58215 0.0
H1256 H 0.99484 0.81267 0.55682 0.0
H1257 H 0.05779 0.84799 0.57007 0.0
H1258 H 0.11847 0.85923 0.47846 0.0
H1259 H 0.09884 0.85178 0.51114 0.0
H1260 H 0.03318 0.82821 0.49587 0.0
C1261 C 0.00649 0.80713 0.56854 0.0
C1262 C 0.05216 0.8437 0.55394 0.0
C1263 C 3e-05 0.79157 0.58309 0.0
C1264 C 0.1011 0.86024 0.47805 0.0
C1265 C 0.08986 0.85614 0.49682 0.0
C1266 C 0.03834 0.83311 0.51199 0.0
C1267 C 0.02796 0.81468 0.56847 0.0
C1268 C 0.03593 0.82787 0.55051 0.0
C1269 C 0.06726 0.85618 0.49667 0.0
C1270 C 0.0553 0.8481 0.51534 0.0
H1271 H 0.04762 0.78622 0.61047 0.0
H1272 H 0.05909 0.81277 0.58468 0.0
H1273 H 0.01667 0.8107 0.526 0.0
H1274 H 0.05829 0.86929 0.44449 0.0
H1275 H 0.03877 0.86218 0.47724 0.0
C1276 C 0.46199 0.81607 0.82036 0.0
C1277 C 0.46338 0.79417 0.82526 0.0
C1278 C 0.44667 0.82298 0.80555 0.0
C1279 C 0.40519 0.83422 0.78245 0.0
H1280 H 0.4048 0.80721 0.72578 0.0
C1281 C 0.36909 0.84452 0.6901 0.0
C1282 C 0.37378 0.86656 0.68801 0.0
C1283 C 0.37414 0.83411 0.70916 0.0
C1284 C 0.40421 0.81464 0.74163 0.0
H1285 H 0.44979 0.76232 0.81834 0.0
H1286 H 0.42319 0.7745 0.79199 0.0
H1287 H 0.42522 0.79131 0.75497 0.0
H1288 H 0.38601 0.89531 0.70472 0.0
H1289 H 0.39535 0.8771 0.73774 0.0
H1290 H 0.38466 0.85789 0.769 0.0
C1291 C 0.43394 0.78623 0.79985 0.0
C1292 C 0.41599 0.80554 0.75833 0.0
C1293 C 0.44916 0.7793 0.81489 0.0
C1294 C 0.38227 0.87829 0.70582 0.0
C1295 C 0.38749 0.86784 0.72482 0.0
C1296 C 0.39327 0.84324 0.76579 0.0
C1297 C 0.43251 0.80815 0.79517 0.0
C1298 C 0.41717 0.81567 0.77867 0.0
C1299 C 0.38412 0.84551 0.72644 0.0
C1300 C 0.39326 0.83396 0.74502 0.0
H1301 H 0.4726 0.828 0.8281 0.0
H1302 H 0.44615 0.83993 0.80193 0.0
H1303 H 0.4056 0.84212 0.79813 0.0
H1304 H 0.36218 0.83513 0.67674 0.0
H1305 H 0.37092 0.81698 0.71008 0.0
C1306 C 0.50354 0.18715 0.08303 0.0
C1307 C 0.49123 0.20421 0.09065 0.0
C1308 C 0.49622 0.17471 0.06528 0.0
C1309 C 0.48335 0.15961 0.01982 0.0
H1310 H 0.42186 0.15344 0.00952 0.0
C1311 C 0.44679 0.14249 0.93556 0.0
C1312 C 0.42656 0.13217 0.93346 0.0
C1313 C 0.45583 0.14701 0.9559 0.0
C1314 C 0.4391 0.15451 0.01222 0.0
H1315 H 0.4628 0.22294 0.08505 0.0
H1316 H 0.45036 0.20196 0.0538 0.0
H1317 H 0.43519 0.1687 0.04332 0.0
H1318 H 0.4006 0.11712 0.95081 0.0
H1319 H 0.41676 0.12414 0.98631 0.0
H1320 H 0.48721 0.14494 0.9888 0.0
C1321 C 0.465 0.19723 0.06197 0.0
C1322 C 0.44677 0.16365 0.03157 0.0
C1323 C 0.47215 0.20936 0.07981 0.0
C1324 C 0.41607 0.12544 0.95201 0.0
C1325 C 0.4253 0.12956 0.97235 0.0
C1326 C 0.47567 0.15014 0.00054 0.0
C1327 C 0.47678 0.17957 0.05459 0.0
C1328 C 0.46895 0.167 0.03534 0.0
C1329 C 0.44503 0.14094 0.9746 0.0
C1330 C 0.45341 0.14808 0.99621 0.0
H1331 H 0.51854 0.18323 0.09105 0.0
H1332 H 0.50567 0.16121 0.06007 0.0
H1333 H 0.50054 0.16195 0.02212 0.0
H1334 H 0.45523 0.14791 0.92152 0.0
H1335 H 0.47085 0.15609 0.9569 0.0
C1336 C 0.06532 0.74712 0.19238 0.0
C1337 C 0.05064 0.75789 0.17926 0.0
C1338 C 0.0741 0.75739 0.21089 0.0
C1339 C 0.063 0.80276 0.24857 0.0
H1340 H 0.12253 0.79664 0.26676 0.0
C1341 C 0.10194 0.85708 0.31416 0.0
C1342 C 0.10935 0.84574 0.33207 0.0
C1343 C 0.09721 0.84622 0.29474 0.0
C1344 C 0.10589 0.79842 0.26176 0.0
H1345 H 0.03249 0.78698 0.17559 0.0
H1346 H 0.04831 0.80519 0.20696 0.0
H1347 H 0.10892 0.77738 0.23432 0.0
H1348 H 0.11904 0.81452 0.34334 0.0
H1349 H 0.11113 0.79564 0.30912 0.0
H1350 H 0.06013 0.82423 0.27556 0.0
C1351 C 0.05312 0.7889 0.20338 0.0
C1352 C 0.09804 0.78731 0.24335 0.0
C1353 C 0.04431 0.77862 0.18516 0.0
C1354 C 0.11316 0.82361 0.32983 0.0
C1355 C 0.1088 0.81283 0.31027 0.0
C1356 C 0.07093 0.81411 0.26661 0.0
C1357 C 0.068 0.77842 0.21661 0.0
C1358 C 0.0765 0.78946 0.23649 0.0
C1359 C 0.10023 0.82396 0.29279 0.0
C1360 C 0.09241 0.81212 0.27332 0.0
H1361 H 0.07002 0.73091 0.18827 0.0
H1362 H 0.08529 0.74874 0.2209 0.0
H1363 H 0.04618 0.80435 0.24418 0.0
H1364 H 0.09886 0.87413 0.31542 0.0
H1365 H 0.09066 0.8551 0.28139 0.0
C1366 C 0.44377 0.7801 0.43804 0.0
C1367 C 0.46581 0.77845 0.4338 0.0
C1368 C 0.43636 0.79679 0.45096 0.0
C1369 C 0.45241 0.83168 0.49545 0.0
H1370 H 0.39988 0.86128 0.48094 0.0
C1371 C 0.41159 0.88279 0.55907 0.0
C1372 C 0.38946 0.87847 0.56087 0.0
C1373 C 0.42239 0.87654 0.54061 0.0
C1374 C 0.41456 0.85316 0.48523 0.0
H1375 H 0.49736 0.79311 0.43982 0.0
H1376 H 0.48432 0.82212 0.46299 0.0
H1377 H 0.41658 0.83824 0.45403 0.0
H1378 H 0.36093 0.8656 0.5443 0.0
H1379 H 0.37985 0.85396 0.51234 0.0
H1380 H 0.44984 0.84534 0.52696 0.0
C1381 C 0.47287 0.8105 0.45603 0.0
C1382 C 0.42413 0.84006 0.46982 0.0
C1383 C 0.4803 0.7939 0.44283 0.0
C1384 C 0.37802 0.8691 0.54332 0.0
C1385 C 0.38888 0.86255 0.52495 0.0
C1386 C 0.44275 0.84459 0.51092 0.0
C1387 C 0.45081 0.8121 0.46012 0.0
C1388 C 0.44278 0.82873 0.47502 0.0
C1389 C 0.41133 0.86554 0.52371 0.0
C1390 C 0.42336 0.85498 0.50619 0.0
H1391 H 0.43211 0.76858 0.43128 0.0
H1392 H 0.41932 0.79744 0.45417 0.0
H1393 H 0.46668 0.82296 0.49992 0.0
H1394 H 0.42072 0.89037 0.57226 0.0
H1395 H 0.43957 0.87959 0.53995 0.0
C1396 C 0.4296 0.20669 0.65062 0.0
C1397 C 0.43883 0.22689 0.65616 0.0
C1398 C 0.41703 0.19567 0.66536 0.0
C1399 C 0.39258 0.19942 0.71959 0.0
H1400 H 0.41995 0.14456 0.72758 0.0
C1401 C 0.40526 0.16316 0.80242 0.0
C1402 C 0.40463 0.14074 0.8048 0.0
C1403 C 0.40306 0.17213 0.78215 0.0
C1404 C 0.41168 0.15955 0.7254 0.0
H1405 H 0.43994 0.25254 0.68028 0.0
H1406 H 0.41821 0.23333 0.70597 0.0
H1407 H 0.42527 0.16382 0.6945 0.0
H1408 H 0.40054 0.11015 0.78774 0.0
H1409 H 0.39671 0.12588 0.7522 0.0
H1410 H 0.37981 0.19551 0.75103 0.0
C1411 C 0.42063 0.2259 0.69034 0.0
C1412 C 0.41469 0.17062 0.70636 0.0
C1413 C 0.43321 0.23691 0.67562 0.0
C1414 C 0.40137 0.12748 0.78643 0.0
C1415 C 0.39913 0.13649 0.76608 0.0
C1416 C 0.38951 0.1883 0.73864 0.0
C1417 C 0.41345 0.20469 0.68583 0.0
C1418 C 0.40587 0.19105 0.70359 0.0
C1419 C 0.40009 0.15892 0.76371 0.0
C1420 C 0.39976 0.16866 0.7421 0.0
H1421 H 0.43342 0.19865 0.63561 0.0
H1422 H 0.41133 0.17951 0.66129 0.0
H1423 H 0.38534 0.21499 0.71778 0.0
H1424 H 0.40764 0.17389 0.81622 0.0
H1425 H 0.40432 0.18944 0.78089 0.0
C1426 C 0.99471 0.20304 0.93678 0.0
C1427 C 0.00261 0.20521 0.916 0.0
C1428 C 0.00649 0.192 0.95225 0.0
C1429 C 0.06261 0.17435 0.96303 0.0
H1430 H 0.03612 0.15225 0.01412 0.0
C1431 C 0.11139 0.16415 0.04152 0.0
C1432 C 0.10391 0.14979 0.05686 0.0
C1433 C 0.09953 0.16711 0.02252 0.0
C1434 C 0.04396 0.15785 -0.00017 0.0
H1435 H 0.02792 0.19646 0.89434 0.0
H1436 H 0.04774 0.17572 0.92073 0.0
H1437 H 0.0137 0.1621 0.98395 0.0
H1438 H 0.07927 0.1262 0.06418 0.0
H1439 H 0.05941 0.12998 0.03039 0.0
H1440 H 0.09292 0.1689 0.9784 0.0
C1441 C 0.03312 0.18341 0.92566 0.0
C1442 C 0.03095 0.16399 0.98257 0.0
C1443 C 0.02168 0.19505 0.91042 0.0
C1444 C 0.08514 0.13754 0.05253 0.0
C1445 C 0.07367 0.13993 0.03326 0.0
C1446 C 0.07565 0.16759 0.98003 0.0
C1447 C 0.02615 0.1824 0.94704 0.0
C1448 C 0.04003 0.173 0.96417 0.0
C1449 C 0.08029 0.15526 0.01823 0.0
C1450 C 0.06653 0.15988 -0.00101 0.0
H1451 H 0.98012 0.21101 0.94144 0.0
H1452 H 0.00063 0.19203 0.96852 0.0
H1453 H 0.07041 0.18138 0.94936 0.0
H1454 H 0.12578 0.17388 0.04471 0.0
H1455 H 0.10508 0.17936 0.0117 0.0
C1456 C 0.3288 0.05838 0.24183 0.0
C1457 C 0.33342 0.03734 0.23503 0.0
C1458 C 0.31411 0.0706 0.23026 0.0
C1459 C 0.27239 0.0872 0.2121 0.0
H1460 H 0.2632 0.07822 0.15073 0.0
C1461 C 0.19261 0.10724 0.17071 0.0
C1462 C 0.19221 0.11371 0.14919 0.0
C1463 C 0.21175 0.10105 0.18056 0.0
C1464 C 0.26573 0.08128 0.16779 0.0
H1465 H 0.32627 0.01262 0.21074 0.0
H1466 H 0.30004 0.03344 0.19117 0.0
H1467 H 0.29399 0.06228 0.16847 0.0
H1468 H 0.21178 0.11948 0.12132 0.0
H1469 H 0.2455 0.10923 0.13876 0.0
H1470 H 0.24453 0.1067 0.21134 0.0
C1471 C 0.30825 0.04091 0.20498 0.0
C1472 C 0.28323 0.07181 0.17806 0.0
C1473 C 0.32319 0.02885 0.21633 0.0
C1474 C 0.21155 0.11439 0.13788 0.0
C1475 C 0.23084 0.10843 0.14785 0.0
C1476 C 0.25511 0.09694 0.20178 0.0
C1477 C 0.30341 0.06191 0.21183 0.0
C1478 C 0.28643 0.07413 0.20046 0.0
C1479 C 0.23113 0.10146 0.16927 0.0
C1480 C 0.25116 0.09356 0.17962 0.0
H1481 H 0.33656 0.06546 0.25608 0.0
H1482 H 0.31111 0.08684 0.23583 0.0
H1483 H 0.27417 0.08928 0.22936 0.0
H1484 H 0.17799 0.1064 0.17988 0.0
H1485 H 0.21117 0.09533 0.19687 0.0
C1486 C 0.21512 0.08441 0.46995 0.0
C1487 C 0.21301 0.09408 0.4903 0.0
C1488 C 0.20176 0.06719 0.46349 0.0
C1489 C 0.17382 0.02101 0.48299 0.0
H1490 H 0.1456 0.02027 0.42682 0.0
C1491 C 0.13518 0.94313 0.44642 0.0
C1492 C 0.13927 0.9393 0.42454 0.0
C1493 C 0.13964 0.96332 0.4559 0.0
C1494 C 0.15346 0.02013 0.4425 0.0
H1495 H 0.19655 0.09257 0.52059 0.0
H1496 H 0.17324 0.06169 0.50942 0.0
H1497 H 0.16223 0.05344 0.44096 0.0
H1498 H 0.15083 0.95375 0.39535 0.0
H1499 H 0.15925 0.98854 0.41192 0.0
H1500 H 0.16657 0.98733 0.48392 0.0
C1501 C 0.18477 0.06806 0.49824 0.0
C1502 C 0.16278 0.03921 0.45067 0.0
C1503 C 0.19801 0.08561 0.5046 0.0
C1504 C 0.14741 0.95618 0.41223 0.0
C1505 C 0.15208 0.97624 0.42174 0.0
C1506 C 0.16482 0.00177 0.47466 0.0
C1507 C 0.18648 0.05884 0.47755 0.0
C1508 C 0.1735 0.0397 0.47073 0.0
C1509 C 0.14844 0.98004 0.44374 0.0
C1510 C 0.15509 0.00097 0.45401 0.0
H1511 H 0.2273 0.09005 0.45905 0.0
H1512 H 0.20377 0.06002 0.44766 0.0
H1513 H 0.18219 0.02097 0.49844 0.0
H1514 H 0.1287 0.93047 0.45628 0.0
H1515 H 0.13633 0.96575 0.4728 0.0
C1516 C 0.15105 0.95669 0.70469 0.0
C1517 C 0.15091 0.96307 0.72647 0.0
C1518 C 0.16606 0.94198 0.69743 0.0
C1519 C 0.22079 0.92871 0.71311 0.0
H1520 H 0.21847 0.89572 0.65956 0.0
C1521 C 0.29814 0.9028 0.67324 0.0
C1522 C 0.29954 0.90764 0.65131 0.0
C1523 C 0.2784 0.90299 0.68342 0.0
C1524 C 0.21931 0.90485 0.67456 0.0
H1525 H 0.1641 0.95686 0.7582 0.0
H1526 H 0.18982 0.93056 0.74566 0.0
H1527 H 0.18501 0.90571 0.6769 0.0
H1528 H 0.28118 0.91546 0.62261 0.0
H1529 H 0.2466 0.91646 0.64064 0.0
H1530 H 0.2549 0.92866 0.71048 0.0
C1531 C 0.17896 0.93756 0.73403 0.0
C1532 C 0.20019 0.91052 0.68452 0.0
C1533 C 0.16416 0.95253 0.74125 0.0
C1534 C 0.28062 0.91185 0.63957 0.0
C1535 C 0.26081 0.9122 0.64984 0.0
C1536 C 0.2398 0.92298 0.70325 0.0
C1537 C 0.18101 0.9332 0.71189 0.0
C1538 C 0.20073 0.9231 0.70358 0.0
C1539 C 0.25959 0.90819 0.67198 0.0
C1540 C 0.23929 0.91152 0.68358 0.0
H1541 H 0.14087 0.96442 0.69293 0.0
H1542 H 0.16712 0.93907 0.68027 0.0
H1543 H 0.22195 0.93879 0.72748 0.0
H1544 H 0.31235 0.899 0.68266 0.0
H1545 H 0.27792 0.89946 0.70039 0.0
C1546 C 0.29495 0.92564 0.98015 0.0
C1547 C 0.2744 0.92403 0.97039 0.0
C1548 C 0.31074 0.93925 0.97178 0.0
C1549 C 0.32351 0.96912 0.92213 0.0
H1550 H 0.36206 0.00228 0.96018 0.0
C1551 C 0.37257 0.05395 0.92091 0.0
C1552 C 0.37905 0.05369 0.89938 0.0
C1553 C 0.36448 0.03535 0.93021 0.0
C1554 C 0.35138 0.99318 0.94931 0.0
H1555 H 0.25399 0.93598 0.94478 0.0
H1556 H 0.28106 0.9603 0.93081 0.0
H1557 H 0.33727 0.97611 0.97519 0.0
H1558 H 0.38396 0.03329 0.87134 0.0
H1559 H 0.37052 0.00052 0.88783 0.0
H1560 H 0.33635 0.98721 0.89644 0.0
C1561 C 0.28538 0.9505 0.94437 0.0
C1562 C 0.33733 0.97795 0.95791 0.0
C1563 C 0.26975 0.93671 0.95252 0.0
C1564 C 0.37877 0.03406 0.88786 0.0
C1565 C 0.37094 0.01532 0.89729 0.0
C1566 C 0.33729 0.98455 0.91358 0.0
C1567 C 0.30618 0.9517 0.95365 0.0
C1568 C 0.3228 0.96616 0.94447 0.0
C1569 C 0.36297 0.01591 0.91833 0.0
C1570 C 0.35101 -0.00281 0.92711 0.0
H1571 H 0.29905 0.9159 0.99383 0.0
H1572 H 0.32662 0.93965 0.97924 0.0
H1573 H 0.31297 0.95991 0.91122 0.0
H1574 H 0.37264 0.06879 0.93032 0.0
H1575 H 0.35829 0.0366 0.94632 0.0
C1576 C 0.32441 0.96427 0.31457 0.0
C1577 C 0.32928 0.96168 0.2927 0.0
C1578 C 0.3094 0.95068 0.32406 0.0
C1579 C 0.26174 0.91838 0.31083 0.0
H1580 H 0.26971 0.89667 0.36845 0.0
C1581 C 0.19184 0.87691 0.35225 0.0
C1582 C 0.18833 0.88419 0.37337 0.0
C1583 C 0.21146 0.88099 0.34252 0.0
C1584 C 0.26723 0.90266 0.35237 0.0
H1585 H 0.32244 0.94253 0.26373 0.0
H1586 H 0.29594 0.91897 0.28035 0.0
H1587 H 0.29969 0.91464 0.35082 0.0
H1588 H 0.20295 0.90018 0.40141 0.0
H1589 H 0.237 0.90802 0.38422 0.0
H1590 H 0.22912 0.90756 0.31261 0.0
C1591 C 0.30382 0.93153 0.29007 0.0
C1592 C 0.28438 0.91288 0.34229 0.0
C1593 C 0.31899 0.94502 0.28059 0.0
C1594 C 0.20524 0.89441 0.38509 0.0
C1595 C 0.2248 0.89879 0.37524 0.0
C1596 C 0.24457 0.90835 0.32095 0.0
C1597 C 0.29884 0.93432 0.31186 0.0
C1598 C 0.28164 0.92121 0.3216 0.0
C1599 C 0.22786 0.89275 0.3536 0.0
C1600 C 0.24697 0.90074 0.34201 0.0
H1601 H 0.33215 0.97682 0.32442 0.0
H1602 H 0.30564 0.95336 0.34082 0.0
H1603 H 0.25911 0.9249 0.29498 0.0
H1604 H 0.17914 0.86865 0.34299 0.0
H1605 H 0.2135 0.87562 0.32603 0.0
C1606 C 0.31403 0.08543 0.50421 0.0
C1607 C 0.30978 0.10496 0.51479 0.0
C1608 C 0.32851 0.07113 0.51326 0.0
C1609 C 0.34375 0.05639 0.56717 0.0
H1610 H 0.3756 0.01217 0.53766 0.0
C1611 C 0.36314 0.97759 0.60899 0.0
C1612 C 0.35803 0.9591 0.59647 0.0
C1613 C 0.36478 -0.00232 0.59941 0.0
C1614 C 0.36681 0.02445 0.54615 0.0
H1615 H 0.31922 0.12609 0.54163 0.0
H1616 H 0.34461 0.10118 0.55732 0.0
H1617 H 0.36606 0.04483 0.51874 0.0
H1618 H 0.35148 0.94705 0.56396 0.0
H1619 H 0.3536 0.98199 0.54745 0.0
H1620 H 0.34313 0.03563 0.59403 0.0
C1621 C 0.33643 0.0967 0.54231 0.0
C1622 C 0.36145 0.04315 0.53534 0.0
C1623 C 0.32192 0.11095 0.5333 0.0
C1624 C 0.35531 0.96099 0.57411 0.0
C1625 C 0.35681 0.98104 0.56457 0.0
C1626 C 0.34899 0.03769 0.5779 0.0
C1627 C 0.339 0.07619 0.533 0.0
C1628 C 0.34915 0.05894 0.5455 0.0
C1629 C 0.36124 -0.00033 0.57713 0.0
C1630 C 0.35982 0.02113 0.56724 0.0
H1631 H 0.30501 0.08044 0.48984 0.0
H1632 H 0.33006 0.05541 0.50572 0.0
H1633 H 0.33402 0.0681 0.57539 0.0
H1634 H 0.36568 0.9766 0.62622 0.0
H1635 H 0.36848 0.01169 0.6095 0.0
C1636 C 0.17976 0.04542 0.77988 0.0
C1637 C 0.1735 0.05244 0.75949 0.0
C1638 C 0.19864 0.05324 0.78973 0.0
C1639 C 0.24073 0.09615 0.78744 0.0
H1640 H 0.2725 0.05568 0.82187 0.0
C1641 C 0.32903 0.10677 0.82018 0.0
C1642 C 0.33199 0.10244 0.84215 0.0
C1643 C 0.30898 0.10319 0.81009 0.0
C1644 C 0.26369 0.06718 0.81244 0.0
H1645 H 0.18245 0.07203 0.73262 0.0
H1646 H 0.21621 0.08548 0.74962 0.0
H1647 H 0.23956 0.04388 0.80326 0.0
H1648 H 0.31617 0.09169 0.87093 0.0
H1649 H 0.28127 0.08488 0.85308 0.0
H1650 H 0.26577 0.11916 0.79615 0.0
C1651 C 0.20601 0.07458 0.75841 0.0
C1652 C 0.24476 0.06049 0.80183 0.0
C1653 C 0.18684 0.06684 0.74861 0.0
C1654 C 0.31437 0.09514 0.85399 0.0
C1655 C 0.29446 0.09121 0.84381 0.0
C1656 C 0.26 0.10274 0.79779 0.0
C1657 C 0.21216 0.06774 0.77908 0.0
C1658 C 0.23285 0.07494 0.78944 0.0
C1659 C 0.29171 0.0949 0.82173 0.0
C1660 C 0.27143 0.08834 0.81058 0.0
H1661 H 0.17003 0.03376 0.78827 0.0
H1662 H 0.20257 0.04789 0.80577 0.0
H1663 H 0.23186 0.10773 0.7782 0.0
H1664 H 0.3423 0.11259 0.81071 0.0
H1665 H 0.30721 0.10604 0.79302 0.0
C1666 C 0.18014 0.93697 -0.0006 0.0
C1667 C 0.18793 0.91973 0.01131 0.0
C1668 C 0.16805 0.95289 0.00939 0.0
C1669 C 0.16214 0.97632 0.06348 0.0
H1670 H 0.11946 0.01139 0.03547 0.0
C1671 C 0.13443 0.06821 0.07015 0.0
C1672 C 0.13338 0.07065 0.09263 0.0
C1673 C 0.13543 0.04778 0.06061 0.0
C1674 C 0.13132 0.00167 0.04349 0.0
H1675 H 0.18748 0.90439 0.04232 0.0
H1676 H 0.16583 0.93168 0.05954 0.0
H1677 H 0.13129 0.9784 0.01764 0.0
H1678 H 0.13092 0.0535 0.12258 0.0
H1679 H 0.13262 0.01783 0.10588 0.0
H1680 H 0.16273 -0.00025 0.08898 0.0
C1681 C 0.1697 0.93344 0.04275 0.0
C1682 C 0.13812 0.98284 0.03328 0.0
C1683 C 0.18205 0.91778 0.03288 0.0
C1684 C 0.13204 0.0522 0.10525 0.0
C1685 C 0.13303 0.03176 0.0957 0.0
C1686 C 0.15529 0.99501 0.07368 0.0
C1687 C 0.1633 0.95163 0.03138 0.0
C1688 C 0.15394 0.97018 0.043 0.0
C1689 C 0.13536 0.02938 0.07335 0.0
C1690 C 0.14014 0.00813 0.06363 0.0
H1691 H 0.18444 0.93882 0.98272 0.0
H1692 H 0.1635 0.96674 0.00019 0.0
H1693 H 0.17468 0.96727 0.07127 0.0
H1694 H 0.13527 0.08209 0.05992 0.0
H1695 H 0.13738 0.04649 0.04337 0.0
C1696 C 0.27091 0.32864 0.06748 0.0
C1697 C 0.26066 0.33589 0.04867 0.0
C1698 C 0.26019 0.31447 0.08105 0.0
C1699 C 0.23942 0.27276 0.09622 0.0
H1700 H 0.17721 0.27339 0.09887 0.0
C1701 C 0.18922 0.19552 0.1014 0.0
C1702 C 0.16852 0.19587 0.10997 0.0
C1703 C 0.20154 0.2144 0.10034 0.0
C1704 C 0.1946 0.27305 0.09886 0.0
H1705 H 0.23097 0.33418 0.02965 0.0
H1706 H 0.21277 0.30931 0.05269 0.0
H1707 H 0.19655 0.30473 0.08636 0.0
H1708 H 0.14498 0.21583 0.12548 0.0
H1709 H 0.16681 0.24877 0.12437 0.0
H1710 H 0.23749 0.24115 0.10899 0.0
C1711 C 0.2288 0.31489 0.05742 0.0
C1712 C 0.2057 0.29098 0.09134 0.0
C1713 C 0.2394 0.32904 0.04401 0.0
C1714 C 0.16075 0.21524 0.11839 0.0
C1715 C 0.17327 0.23409 0.11773 0.0
C1716 C 0.22834 0.25494 0.10414 0.0
C1717 C 0.23906 0.30729 0.07602 0.0
C1718 C 0.2281 0.29059 0.08884 0.0
C1719 C 0.19364 0.23402 0.10823 0.0
C1720 C 0.20571 0.25444 0.1045 0.0
H1721 H 0.28724 0.33376 0.07162 0.0
H1722 H 0.26849 0.30902 0.09534 0.0
H1723 H 0.2567 0.27193 0.09462 0.0
H1724 H 0.19561 0.18078 0.0948 0.0
H1725 H 0.21691 0.21368 0.09249 0.0
C1726 C 0.74355 0.16132 0.96245 0.0
C1727 C 0.7282 0.14741 0.9713 0.0
C1728 C 0.73742 0.17598 0.94684 0.0
C1729 C 0.69069 0.19435 0.91336 0.0
H1730 H 0.713 0.25064 0.93119 0.0
C1731 C 0.64382 0.273 0.9051 0.0
C1732 C 0.65545 0.29208 0.90125 0.0
C1733 C 0.65453 0.25361 0.90747 0.0
C1734 C 0.70687 0.23506 0.92561 0.0
H1735 H 0.6949 0.13642 0.96932 0.0
H1736 H 0.68405 0.16236 0.94278 0.0
H1737 H 0.72942 0.21885 0.94539 0.0
H1738 H 0.68724 0.30549 0.89525 0.0
H1739 H 0.7058 0.27172 0.89932 0.0
H1740 H 0.66728 0.21096 0.89449 0.0
C1741 C 0.70088 0.16188 0.94751 0.0
C1742 C 0.71638 0.21673 0.93371 0.0
C1743 C 0.70708 0.14706 0.96289 0.0
C1744 C 0.67783 0.29116 0.89864 0.0
C1745 C 0.68849 0.27181 0.90094 0.0
C1746 C 0.68106 0.21277 0.90534 0.0
C1747 C 0.71577 0.17719 0.94006 0.0
C1748 C 0.70807 0.19615 0.92815 0.0
C1749 C 0.67705 0.25295 0.90594 0.0
C1750 C 0.68875 0.23331 0.91183 0.0
H1751 H 0.76005 0.16171 0.96839 0.0
H1752 H 0.74942 0.18716 0.94099 0.0
H1753 H 0.68409 0.17873 0.90851 0.0
H1754 H 0.62655 0.27316 0.90703 0.0
H1755 H 0.64529 0.23936 0.91151 0.0
C1756 C 0.07421 0.4618 0.20905 0.0
C1757 C 0.08268 0.48187 0.20339 0.0
C1758 C 0.05503 0.45405 0.19982 0.0
C1759 C 0.01613 0.46108 0.15499 0.0
H1760 H 0.97891 0.42942 0.19309 0.0
C1761 C 0.92637 0.4332 0.13916 0.0
C1762 C 0.92213 0.4115 0.14384 0.0
C1763 C 0.94674 0.44239 0.14338 0.0
C1764 C 0.98921 0.43813 0.18226 0.0
H1765 H 0.07742 0.51028 0.18464 0.0
H1766 H 0.04313 0.4969 0.16857 0.0
H1767 H 0.01234 0.4454 0.20715 0.0
H1768 H 0.93628 0.38213 0.15541 0.0
H1769 H 0.97161 0.39836 0.16316 0.0
H1770 H 0.99222 0.45412 0.13026 0.0
C1771 C 0.05183 0.48681 0.1796 0.0
C1772 C 0.0084 0.44722 0.19025 0.0
C1773 C 0.07129 0.49453 0.18883 0.0
C1774 C 0.93895 0.39891 0.15173 0.0
C1775 C 0.95916 0.40816 0.15619 0.0
C1776 C -0.00338 0.4522 0.14704 0.0
C1777 C 0.04343 0.46653 0.1852 0.0
C1778 C 0.02232 0.45841 0.17665 0.0
C1779 C 0.96304 0.43007 0.15257 0.0
C1780 C 0.98327 0.44033 0.16059 0.0
H1781 H 0.08242 0.45205 0.22078 0.0
H1782 H 0.04928 0.43822 0.20422 0.0
H1783 H 0.02658 0.46952 0.14411 0.0
H1784 H 0.91376 0.44325 0.13288 0.0
H1785 H 0.94943 0.45935 0.14053 0.0
C1786 C 0.78386 0.81068 0.46237 0.0
C1787 C 0.79834 0.82225 0.47607 0.0
C1788 C 0.79116 0.79426 0.44889 0.0
C1789 C 0.83967 0.77396 0.42323 0.0
H1790 H 0.8114 0.71805 0.42624 0.0
C1791 C 0.88102 0.69559 0.39921 0.0
C1792 C 0.86844 0.6784 0.39062 0.0
C1793 C 0.87134 0.71454 0.40598 0.0
C1794 C 0.81923 0.73363 0.42479 0.0
H1795 H 0.83192 0.82594 0.486 0.0
H1796 H 0.84456 0.7974 0.46247 0.0
H1797 H 0.79614 0.74881 0.44482 0.0
H1798 H 0.83605 0.66804 0.38112 0.0
H1799 H 0.81925 0.70129 0.3925 0.0
H1800 H 0.8629 0.75881 0.4034 0.0
C1801 C 0.8276 0.80108 0.46213 0.0
C1802 C 0.8105 0.75123 0.4355 0.0
C1803 C 0.8203 0.81728 0.47576 0.0
C1804 C 0.84614 0.68091 0.38798 0.0
C1805 C 0.8365 0.69993 0.39457 0.0
C1806 C 0.84831 0.75641 0.41235 0.0
C1807 C 0.81311 0.78935 0.44867 0.0
C1808 C 0.82091 0.77142 0.43522 0.0
C1809 C 0.84892 0.71677 0.4041 0.0
C1810 C 0.83846 0.73594 0.41343 0.0
H1811 H 0.76685 0.81414 0.46222 0.0
H1812 H 0.77969 0.78545 0.4386 0.0
H1813 H 0.84783 0.78947 0.42254 0.0
H1814 H 0.89824 0.69414 0.40145 0.0
H1815 H 0.88138 0.72708 0.41349 0.0
C1816 C 0.91749 0.05475 0.1958 0.0
C1817 C 0.91879 0.03226 0.19383 0.0
C1818 C 0.9311 0.06809 0.18416 0.0
C1819 C 0.97061 0.06834 0.13985 0.0
H1820 H -0.00102 0.11286 0.17514 0.0
C1821 C 0.05753 0.09673 0.1288 0.0
C1822 C 0.06324 0.11842 0.13279 0.0
C1823 C 0.03647 0.08945 0.13166 0.0
C1824 C 0.99092 0.10086 0.16486 0.0
H1825 H 0.93468 0.00618 0.17724 0.0
H1826 H 0.95875 0.02938 0.15742 0.0
H1827 H 0.96772 0.09389 0.18872 0.0
H1828 H 0.05114 0.14972 0.14184 0.0
H1829 H 0.01423 0.13683 0.14714 0.0
H1830 H 0.99471 0.07461 0.1165 0.0
C1831 C 0.94699 0.03677 0.16768 0.0
C1832 C 0.97295 0.08996 0.17264 0.0
C1833 C 0.93329 0.02343 0.17921 0.0
C1834 C 0.04724 0.13288 0.13878 0.0
C1835 C 0.02615 0.12553 0.14183 0.0
C1836 C 0.98867 0.07917 0.13212 0.0
C1837 C 0.94638 0.05924 0.17038 0.0
C1838 C 0.96301 0.07311 0.16051 0.0
C1839 C 0.02069 0.10366 0.13868 0.0
C1840 C -0.00062 0.09506 0.14486 0.0
H1841 H 0.90627 0.06211 0.20668 0.0
H1842 H 0.92998 0.08534 0.18631 0.0
H1843 H 0.96304 0.05574 0.12994 0.0
H1844 H 0.06946 0.08523 0.12394 0.0
H1845 H 0.03281 0.07246 0.12934 0.0
C1846 C 0.26144 0.6864 0.54981 0.0
C1847 C 0.24216 0.67797 0.55764 0.0
C1848 C 0.2711 0.70454 0.55944 0.0
C1849 C 0.29534 0.7353 0.58843 0.0
H1850 H 0.26178 0.78362 0.60747 0.0
C1851 C 0.33735 0.81363 0.61773 0.0
C1852 C 0.32817 0.83269 0.61054 0.0
C1853 C 0.32591 0.79412 0.61578 0.0
C1854 C 0.27141 0.77028 0.60216 0.0
H1855 H 0.21709 0.68213 0.58087 0.0
H1856 H 0.2345 0.71374 0.59861 0.0
H1857 H 0.24347 0.75077 0.59459 0.0
H1858 H 0.29966 0.84642 0.5961 0.0
H1859 H 0.28016 0.81241 0.59172 0.0
H1860 H 0.32318 0.75511 0.59443 0.0
C1861 C 0.24209 0.70642 0.58485 0.0
C1862 C 0.26089 0.7513 0.59506 0.0
C1863 C 0.23216 0.68834 0.57484 0.0
C1864 C 0.30717 0.83197 0.6018 0.0
C1865 C 0.29588 0.81245 0.5995 0.0
C1866 C 0.30581 0.75428 0.59523 0.0
C1867 C 0.26183 0.7146 0.57735 0.0
C1868 C 0.27274 0.73378 0.58755 0.0
C1869 C 0.30519 0.79321 0.60623 0.0
C1870 C 0.29399 0.77222 0.6017 0.0
H1871 H 0.26908 0.67892 0.53614 0.0
H1872 H 0.28582 0.71074 0.55266 0.0
H1873 H 0.30507 0.72204 0.58317 0.0
H1874 H 0.35338 0.81378 0.62488 0.0
H1875 H 0.33343 0.77972 0.62156 0.0
C1876 C 0.10807 0.52773 0.30681 0.0
C1877 C 0.10196 0.50872 0.29557 0.0
C1878 C 0.09443 0.53675 0.32192 0.0
C1879 C 0.04262 0.52867 0.35033 0.0
H1880 H 0.03323 0.58747 0.33338 0.0
C1881 C 0.96002 0.5676 0.35173 0.0
C1882 C 0.95853 0.58979 0.35593 0.0
C1883 C 0.98005 0.55794 0.35085 0.0
C1884 C 0.03586 0.57127 0.33879 0.0
H1885 H 0.07794 0.48302 0.29298 0.0
H1886 H 0.05398 0.49891 0.31899 0.0
H1887 H 0.06516 0.56926 0.32169 0.0
H1888 H 0.97689 0.61907 0.3635 0.0
H1889 H 0.0119 0.60215 0.36201 0.0
H1890 H 0.01264 0.53049 0.36658 0.0
C1891 C 0.06932 0.50685 0.31631 0.0
C1892 C 0.05425 0.56079 0.33211 0.0
C1893 C 0.08302 0.49777 0.30127 0.0
C1894 C 0.9775 0.60199 0.35993 0.0
C1895 C -0.00245 0.5923 0.3591 0.0
C1896 C 0.02419 0.53919 0.35706 0.0
C1897 C 0.07439 0.52697 0.32599 0.0
C1898 C 0.05747 0.53914 0.33715 0.0
C1899 C -0.00094 0.57023 0.35424 0.0
C1900 C 0.02025 0.56034 0.35067 0.0
H1901 H 0.12276 0.53636 0.30297 0.0
H1902 H 0.09897 0.55205 0.32947 0.0
H1903 H 0.04482 0.51208 0.35473 0.0
H1904 H 0.94573 0.55769 0.34871 0.0
H1905 H 0.98063 0.54098 0.34672 0.0
C1906 C 0.43745 0.4494 0.78364 0.0
C1907 C 0.42494 0.46583 0.79237 0.0
C1908 C 0.45174 0.43825 0.79665 0.0
C1909 C 0.48139 0.44203 0.84869 0.0
H1910 H 0.49291 0.38244 0.83455 0.0
C1911 C 0.54286 0.36852 0.87259 0.0
C1912 C 0.56195 0.38097 0.87397 0.0
C1913 C 0.52331 0.37807 0.86727 0.0
C1914 C 0.48963 0.39892 0.8391 0.0
H1915 H 0.41742 0.48333 0.82167 0.0
H1916 H 0.44205 0.46349 0.84457 0.0
H1917 H 0.46361 0.4003 0.81629 0.0
H1918 H 0.57524 0.41342 0.87201 0.0
H1919 H 0.54166 0.42974 0.86214 0.0
H1920 H 0.50717 0.44051 0.8718 0.0
C1921 C 0.44116 0.45952 0.82754 0.0
C1922 C 0.47304 0.40931 0.82832 0.0
C1923 C 0.42704 0.4709 0.81443 0.0
C1924 C 0.5609 0.40326 0.87095 0.0
C1925 C 0.54149 0.41273 0.8655 0.0
C1926 C 0.49779 0.43154 0.8597 0.0
C1927 C 0.45366 0.44301 0.8188 0.0
C1928 C 0.46923 0.43121 0.83241 0.0
C1929 C 0.52251 0.40022 0.86315 0.0
C1930 C 0.50264 0.4101 0.85448 0.0
H1931 H 0.43633 0.44521 0.76666 0.0
H1932 H 0.4615 0.42607 0.7892 0.0
H1933 H 0.47897 0.45889 0.85231 0.0
H1934 H 0.54309 0.35134 0.87504 0.0
H1935 H 0.50892 0.36802 0.86594 0.0
C1936 C 0.96284 0.78189 0.67539 0.0
C1937 C 0.95657 0.76005 0.67538 0.0
C1938 C 0.95251 0.79685 0.68844 0.0
C1939 C 0.90375 0.8041 0.72144 0.0
H1940 H 0.94051 0.84409 0.75442 0.0
C1941 C 0.88468 0.83632 0.80549 0.0
C1942 C 0.89066 0.85755 0.81129 0.0
C1943 C 0.88928 0.82805 0.78514 0.0
C1944 C 0.92994 0.83337 0.745 0.0
H1945 H 0.93429 0.7369 0.68892 0.0
H1946 H 0.91677 0.76278 0.712 0.0
H1947 H 0.95576 0.82242 0.72574 0.0
H1948 H 0.90511 0.88717 0.80002 0.0
H1949 H 0.9135 0.87252 0.76441 0.0
H1950 H 0.87819 0.81428 0.74164 0.0
C1951 C 0.92932 0.76849 0.70158 0.0
C1952 C 0.93867 0.82093 0.72856 0.0
C1953 C 0.93955 0.75358 0.68848 0.0
C1954 C 0.90033 0.87074 0.79597 0.0
C1955 C 0.90521 0.86236 0.77566 0.0
C1956 C 0.89506 0.81643 0.738 0.0
C1957 C 0.93575 0.79028 0.70183 0.0
C1958 C 0.92581 0.80569 0.71702 0.0
C1959 C 0.90016 0.84079 0.77027 0.0
C1960 C 0.90822 0.83072 0.75033 0.0
H1961 H 0.97575 0.78748 0.66533 0.0
H1962 H 0.95769 0.81356 0.68808 0.0
H1963 H 0.8933 0.79286 0.71251 0.0
H1964 H 0.87706 0.82584 0.81693 0.0
H1965 H 0.88538 0.81132 0.7815 0.0
C1966 C 0.96909 0.19842 0.38917 0.0
C1967 C 0.96666 0.22081 0.39068 0.0
C1968 C 0.95624 0.18477 0.4013 0.0
C1969 C 0.94472 0.17113 0.44703 0.0
H1970 H 0.88314 0.17067 0.45537 0.0
C1971 C 0.88289 0.16821 0.52128 0.0
C1972 C 0.89431 0.15468 0.53498 0.0
C1973 C 0.88884 0.17038 0.49992 0.0
C1974 C 0.90039 0.17072 0.45338 0.0
H1975 H 0.94755 0.24635 0.40409 0.0
H1976 H 0.92469 0.22239 0.42486 0.0
H1977 H 0.89791 0.18625 0.4229 0.0
H1978 H 0.91982 0.13158 0.53692 0.0
H1979 H 0.92954 0.13434 0.49923 0.0
H1980 H 0.9478 0.15784 0.47816 0.0
C1981 C 0.93666 0.21546 0.41451 0.0
C1982 C 0.90875 0.1794 0.43465 0.0
C1983 C 0.9498 0.22916 0.40275 0.0
C1984 C 0.91101 0.14239 0.52669 0.0
C1985 C 0.9166 0.14409 0.50512 0.0
C1986 C 0.93648 0.163 0.46597 0.0
C1987 C 0.94047 0.1933 0.41465 0.0
C1988 C 0.93102 0.18017 0.43166 0.0
C1989 C 0.90603 0.15863 0.49159 0.0
C1990 C 0.91424 0.16337 0.46978 0.0
H1991 H 0.98199 0.19156 0.37999 0.0
H1992 H 0.95946 0.16772 0.40127 0.0
H1993 H 0.96201 0.17183 0.44516 0.0
H1994 H 0.86998 0.17794 0.52732 0.0
H1995 H 0.88053 0.18208 0.49035 0.0
C1996 C 0.52559 0.18765 0.19406 0.0
C1997 C 0.53092 0.20466 0.18047 0.0
C1998 C 0.54057 0.18042 0.20918 0.0
C1999 C 0.58922 0.19805 0.23982 0.0
H2000 H 0.59251 0.13743 0.25246 0.0
C2001 C 0.63432 0.13426 0.30001 0.0
C2002 C 0.63094 0.14486 0.31977 0.0
C2003 C 0.62696 0.14305 0.28081 0.0
C2004 C 0.59214 0.15439 0.2489 0.0
H2005 H 0.55646 0.22706 0.17185 0.0
H2006 H 0.58251 0.21428 0.19804 0.0
H2007 H 0.56958 0.1489 0.2229 0.0
H2008 H 0.61908 0.17403 0.33469 0.0
H2009 H 0.60597 0.18919 0.30129 0.0
H2010 H 0.61174 0.20352 0.26593 0.0
C2011 C 0.56665 0.20677 0.19722 0.0
C2012 C 0.57871 0.16098 0.23216 0.0
C2013 C 0.5517 0.21401 0.18213 0.0
C2014 C 0.62187 0.16539 0.31975 0.0
C2015 C 0.61439 0.17412 0.30055 0.0
C2016 C 0.60269 0.19145 0.25659 0.0
C2017 C 0.56121 0.19 0.21102 0.0
C2018 C 0.57678 0.1829 0.22769 0.0
C2019 C 0.61599 0.16258 0.281 0.0
C2020 C 0.60401 0.16957 0.26155 0.0
H2021 H 0.50976 0.18007 0.19324 0.0
H2022 H 0.53578 0.16764 0.21978 0.0
H2023 H 0.588 0.21509 0.23687 0.0
H2024 H 0.64156 0.11856 0.29946 0.0
H2025 H 0.62893 0.13404 0.26593 0.0
C2026 C 0.50904 0.7972 0.93306 0.0
C2027 C 0.52097 0.78115 0.923 0.0
C2028 C 0.51669 0.80709 0.95203 0.0
C2029 C 0.56612 0.81816 0.98338 0.0
H2030 H 0.52756 0.82592 0.03111 0.0
C2031 C 0.59272 0.86153 0.06253 0.0
C2032 C 0.58815 0.84983 0.08107 0.0
C2033 C 0.58331 0.85542 0.04273 0.0
C2034 C 0.53847 0.82391 0.01788 0.0
H2035 H 0.54926 0.76159 0.92516 0.0
H2036 H 0.56298 0.77911 0.95851 0.0
H2037 H 0.51387 0.80975 -0.00262 0.0
H2038 H 0.56941 0.82325 0.09363 0.0
H2039 H 0.55301 0.81267 0.05914 0.0
H2040 H 0.59084 0.83184 0.00409 0.0
C2041 C 0.54797 0.78439 0.95146 0.0
C2042 C 0.53063 0.8148 -0.00142 0.0
C2043 C 0.54016 0.77434 0.93255 0.0
C2044 C 0.57337 0.83249 0.0796 0.0
C2045 C 0.56385 0.82652 0.05989 0.0
C2046 C 0.57394 0.82741 0.00265 0.0
C2047 C 0.53633 0.80093 0.96127 0.0
C2048 C 0.54446 0.81154 0.98129 0.0
C2049 C 0.56899 0.8377 0.04123 0.0
C2050 C 0.56025 0.83004 0.02017 0.0
H2051 H 0.49384 0.80218 0.92615 0.0
H2052 H 0.50743 0.8198 0.95926 0.0
H2053 H 0.57702 0.81606 0.97016 0.0
H2054 H 0.60402 0.87501 0.06319 0.0
H2055 H 0.58737 0.8644 0.02857 0.0
C2056 C 0.96165 0.24461 0.81536 0.0
C2057 C 0.97779 0.23302 0.82572 0.0
C2058 C 0.95392 0.23813 0.79505 0.0
C2059 C 0.93141 0.2123 0.75935 0.0
H2060 H 0.97007 0.19504 0.71426 0.0
C2061 C 0.90438 0.1649 0.68295 0.0
C2062 C 0.91094 0.17345 0.66334 0.0
C2063 C 0.91261 0.1734 0.70236 0.0
C2064 C 0.95916 0.19991 0.72674 0.0
H2065 H -0.00034 0.20658 0.82278 0.0
H2066 H 0.98592 0.19485 0.7871 0.0
H2067 H 0.98485 0.20742 0.74926 0.0
H2068 H 0.9312 0.19757 0.64856 0.0
H2069 H 0.946 0.21218 0.68274 0.0
H2070 H 0.90573 0.20445 0.73699 0.0
C2071 C 0.97912 0.20887 0.79476 0.0
C2072 C 0.96757 0.20679 0.74676 0.0
C2073 C 0.98687 0.21542 0.81514 0.0
C2074 C 0.92581 0.19076 0.66347 0.0
C2075 C 0.93436 0.199 0.68294 0.0
C2076 C 0.92302 0.20508 0.73953 0.0
C2077 C 0.96245 0.2201 0.7846 0.0
C2078 C 0.95374 0.21296 0.76329 0.0
C2079 C 0.9278 0.19036 0.70249 0.0
C2080 C 0.93682 0.19879 0.7231 0.0
H2081 H 0.95504 0.25876 0.82297 0.0
H2082 H 0.94137 0.24734 0.78746 0.0
H2083 H 0.92036 0.21707 0.77168 0.0
H2084 H 0.89288 0.15161 0.68329 0.0
H2085 H 0.90741 0.16645 0.71729 0.0
C2086 C 0.52522 0.19977 0.57793 0.0
C2087 C 0.53381 0.22079 0.58046 0.0
C2088 C 0.53189 0.18632 0.56123 0.0
C2089 C 0.55467 0.18814 0.50754 0.0
H2090 H 0.56867 0.12848 0.5169 0.0
C2091 C 0.60403 0.12016 0.46054 0.0
C2092 C 0.59561 0.12268 0.4396 0.0
C2093 C 0.59369 0.12907 0.47823 0.0
C2094 C 0.56471 0.14508 0.51407 0.0
H2095 H 0.55649 0.24395 0.56761 0.0
H2096 H 0.56805 0.2204 0.53837 0.0
H2097 H 0.55753 0.1511 0.54719 0.0
H2098 H 0.56871 0.13488 0.42104 0.0
H2099 H 0.55069 0.15041 0.45198 0.0
H2100 H 0.56221 0.18234 0.47458 0.0
C2101 C 0.55604 0.21447 0.54929 0.0
C2102 C 0.55827 0.15798 0.53134 0.0
C2103 C 0.54951 0.22789 0.56611 0.0
C2104 C 0.57573 0.13277 0.43692 0.0
C2105 C 0.56547 0.14181 0.45461 0.0
C2106 C 0.56091 0.17522 0.49027 0.0
C2107 C 0.54716 0.19362 0.54659 0.0
C2108 C 0.55345 0.17971 0.52828 0.0
C2109 C 0.57478 0.14074 0.47532 0.0
C2110 C 0.56619 0.15362 0.49338 0.0
H2111 H 0.51317 0.19372 0.58873 0.0
H2112 H 0.52469 0.17037 0.55946 0.0
H2113 H 0.5508 0.20475 0.50467 0.0
H2114 H 0.61923 0.11233 0.46318 0.0
H2115 H 0.60126 0.12801 0.49399 0.0
C2116 C 0.55813 0.79034 0.36229 0.0
C2117 C 0.53556 0.79127 0.36219 0.0
C2118 C 0.5699 0.80143 0.34697 0.0
C2119 C 0.56047 0.81624 0.29168 0.0
H2120 H 0.61883 0.83943 0.29453 0.0
C2121 C 0.6072 0.82329 0.21529 0.0
C2122 C 0.61513 0.84409 0.2113 0.0
C2123 C 0.60146 0.81762 0.23599 0.0
C2124 C 0.60252 0.833 0.29359 0.0
H2125 H 0.50785 0.80667 0.34805 0.0
H2126 H 0.52843 0.82645 0.32169 0.0
H2127 H 0.59975 0.83205 0.32794 0.0
H2128 H 0.62547 0.87448 0.22626 0.0
H2129 H 0.61516 0.86454 0.26248 0.0
H2130 H 0.56302 0.81702 0.25758 0.0
C2131 C 0.53698 0.81662 0.3331 0.0
C2132 C 0.59164 0.8288 0.31263 0.0
C2133 C 0.5252 0.80538 0.34823 0.0
C2134 C 0.61925 0.85836 0.22879 0.0
C2135 C 0.61339 0.85269 0.24956 0.0
C2136 C 0.57131 0.82027 0.27281 0.0
C2137 C 0.55926 0.81372 0.33148 0.0
C2138 C 0.5705 0.82031 0.31181 0.0
C2139 C 0.60345 0.83265 0.25308 0.0
C2140 C 0.59251 0.82843 0.27352 0.0
H2141 H 0.56654 0.77966 0.37298 0.0
H2142 H 0.58705 0.7989 0.34615 0.0
H2143 H 0.54437 0.80931 0.29044 0.0
H2144 H 0.6042 0.81181 0.2022 0.0
H2145 H 0.5943 0.80186 0.23841 0.0
C2146 C 0.98122 0.77009 0.07127 0.0
C2147 C -0.00148 0.78082 0.08194 0.0
C2148 C 0.96968 0.78024 0.05498 0.0
C2149 C 0.97474 0.8254 0.01729 0.0
H2150 H 0.91374 0.81418 0.0077 0.0
C2151 C 0.89968 0.85372 0.95868 0.0
C2152 C 0.91055 0.854 0.93908 0.0
C2153 C 0.91 0.84662 0.97734 0.0
C2154 C 0.93071 0.81776 0.01034 0.0
H2155 H 0.01679 0.81088 0.08446 0.0
H2156 H 0.99628 0.82876 0.05675 0.0
H2157 H 0.93201 0.79853 0.03847 0.0
H2158 H 0.94084 0.84729 0.92375 0.0
H2159 H 0.9585 0.83442 0.95593 0.0
H2160 H 0.97337 0.84514 0.98962 0.0
C2161 C 0.99201 0.81228 0.06036 0.0
C2162 C 0.94126 0.8085 0.0278 0.0
C2163 C 0.00373 0.80204 0.07636 0.0
C2164 C 0.93202 0.84741 0.9386 0.0
C2165 C 0.94222 0.84013 0.95713 0.0
C2166 C 0.96416 0.83485 3e-05 0.0
C2167 C 0.97503 0.80144 0.04925 0.0
C2168 C 0.96346 0.812 0.03133 0.0
C2169 C 0.93132 0.83953 0.97671 0.0
C2170 C 0.9421 0.83087 0.99613 0.0
H2171 H 0.97687 0.7537 0.07517 0.0
H2172 H 0.95691 0.77128 0.04656 0.0
H2173 H 0.99189 0.82826 0.01929 0.0
H2174 H 0.88317 0.85884 0.95959 0.0
H2175 H 0.90125 0.84667 0.99223 0.0
C2176 C 0.68347 0.9744 0.77884 0.0
C2177 C 0.68284 0.96954 0.75666 0.0
C2178 C 0.69747 0.96372 0.79259 0.0
C2179 C 0.73736 0.94832 0.81575 0.0
H2180 H 0.75018 0.8884 0.80464 0.0
C2181 C 0.81183 0.89117 0.83265 0.0
C2182 C 0.81543 0.89454 0.85482 0.0
C2183 C 0.79261 0.89736 0.82295 0.0
C2184 C 0.74663 0.9051 0.80798 0.0
H2185 H 0.69669 0.94986 0.73149 0.0
H2186 H 0.7216 0.93175 0.75535 0.0
H2187 H 0.72248 0.90569 0.78308 0.0
H2188 H 0.80148 0.9061 0.88446 0.0
H2189 H 0.76784 0.91737 0.86729 0.0
H2190 H 0.7617 0.94771 0.84051 0.0
C2191 C 0.71084 0.9434 0.76223 0.0
C2192 C 0.73092 0.91506 0.79556 0.0
C2193 C 0.6967 0.95393 0.74851 0.0
C2194 C 0.79908 0.90331 0.86733 0.0
C2195 C 0.77993 0.90983 0.85753 0.0
C2196 C 0.75291 0.93829 0.8283 0.0
C2197 C 0.71129 0.94806 0.78445 0.0
C2198 C 0.72649 0.93693 0.79895 0.0
C2199 C 0.77674 0.90729 0.83519 0.0
C2200 C 0.75803 0.91675 0.82418 0.0
H2201 H 0.67283 0.98617 0.7857 0.0
H2202 H 0.69723 0.96752 0.80965 0.0
H2203 H 0.73453 0.96524 0.81865 0.0
H2204 H 0.82414 0.88429 0.82268 0.0
H2205 H 0.79064 0.89538 0.80567 0.0
C2206 C 0.79802 0.93092 0.51876 0.0
C2207 C 0.78137 0.92147 0.53042 0.0
C2208 C 0.80649 0.95103 0.52491 0.0
C2209 C 0.79322 0.00086 0.55289 0.0
H2210 H 0.85511 0.00977 0.55704 0.0
C2211 C 0.83472 0.08462 0.56358 0.0
C2212 C 0.8492 0.08616 0.58118 0.0
C2213 C 0.82653 0.06456 0.5566 0.0
C2214 C 0.83781 0.00746 0.55591 0.0
H2215 H 0.75943 0.92584 0.55663 0.0
H2216 H 0.77431 0.96133 0.56757 0.0
H2217 H 0.8403 0.9743 0.54692 0.0
H2218 H 0.86707 0.06806 0.60479 0.0
H2219 H 0.85311 0.03303 0.59225 0.0
H2220 H 0.79082 0.03421 0.56162 0.0
C2221 C 0.78103 0.95298 0.5539 0.0
C2222 C 0.82934 0.98723 0.55012 0.0
C2223 C 0.77262 0.93274 0.54778 0.0
C2224 C 0.85583 0.06732 0.59125 0.0
C2225 C 0.84795 0.0473 0.58405 0.0
C2226 C 0.80171 0.02121 0.55835 0.0
C2227 C 0.79809 0.96224 0.54253 0.0
C2228 C 0.80698 0.9837 0.54873 0.0
C2229 C 0.83305 0.04579 0.56686 0.0
C2230 C 0.82406 0.0246 0.56004 0.0
H2231 H 0.80435 0.92282 0.50474 0.0
H2232 H 0.81936 0.95797 0.51563 0.0
H2233 H 0.77592 -0.0014 0.55166 0.0
H2234 H 0.82929 0.09891 0.55558 0.0
H2235 H 0.81512 0.06368 0.54321 0.0
C2236 C 0.85618 0.06087 0.30214 0.0
C2237 C 0.85348 0.03882 0.29734 0.0
C2238 C 0.84273 0.07101 0.31677 0.0
C2239 C 0.79923 0.06096 0.35621 0.0
H2240 H 0.77394 0.11094 0.3302 0.0
C2241 C 0.71125 0.09939 0.34778 0.0
C2242 C 0.70408 0.09815 0.36901 0.0
C2243 C 0.73286 0.09643 0.3432 0.0
C2244 C 0.78089 0.09707 0.33775 0.0
H2245 H 0.8359 0.00972 0.30542 0.0
H2246 H 0.81225 0.02735 0.33049 0.0
H2247 H 0.80703 0.09672 0.31602 0.0
H2248 H 0.71424 0.09392 0.40224 0.0
H2249 H 0.75206 0.08885 0.39418 0.0
H2250 H 0.77215 0.06039 0.37687 0.0
C2251 C 0.82482 0.03689 0.32322 0.0
C2252 C 0.80005 0.08908 0.32983 0.0
C2253 C 0.83828 0.02678 0.30868 0.0
C2254 C 0.71919 0.09476 0.38567 0.0
C2255 C 0.74085 0.09181 0.38108 0.0
C2256 C 0.77999 0.06891 0.36407 0.0
C2257 C 0.82632 0.05927 0.3268 0.0
C2258 C 0.80898 0.07041 0.3384 0.0
C2259 C 0.74785 0.09225 0.35974 0.0
C2260 C 0.77019 0.08653 0.35434 0.0
H2261 H 0.86793 0.07054 0.2938 0.0
H2262 H 0.84453 0.0882 0.31948 0.0
H2263 H 0.80589 0.04677 0.3634 0.0
H2264 H 0.70007 0.10206 0.33457 0.0
H2265 H 0.73764 0.09655 0.32655 0.0
C2266 C 0.70809 0.06943 0.08955 0.0
C2267 C 0.70713 0.07752 0.0686 0.0
C2268 C 0.69191 0.05548 0.09665 0.0
C2269 C 0.65624 0.01389 0.07606 0.0
H2270 H 0.62673 0.01859 0.13025 0.0
C2271 C 0.60749 0.94215 0.10355 0.0
C2272 C 0.61079 0.93699 0.12515 0.0
C2273 C 0.61243 0.96281 0.09653 0.0
C2274 C 0.6349 0.01694 0.11511 0.0
H2275 H 0.6882 0.07764 0.03886 0.0
H2276 H 0.66042 0.0529 0.05114 0.0
H2277 H 0.65021 0.04808 0.11885 0.0
H2278 H 0.6206 0.94923 0.15667 0.0
H2279 H 0.6304 0.98487 0.14443 0.0
H2280 H 0.64265 0.9824 0.07274 0.0
C2281 C 0.67354 0.05757 0.06208 0.0
C2282 C 0.64826 0.03387 0.10861 0.0
C2283 C 0.68946 0.07172 0.0551 0.0
C2284 C 0.6176 0.95307 0.13996 0.0
C2285 C 0.6232 0.97354 0.13286 0.0
C2286 C 0.64332 -0.00316 0.08272 0.0
C2287 C 0.67474 0.04916 0.0828 0.0
C2288 C 0.65923 0.03231 0.08916 0.0
C2289 C 0.6217 0.97836 0.11084 0.0
C2290 C 0.63271 -0.00208 0.10251 0.0
H2291 H 0.72141 0.0737 0.10038 0.0
H2292 H 0.69324 0.049 0.11266 0.0
H2293 H 0.66474 0.01224 0.06109 0.0
H2294 H 0.6023 0.92986 0.0919 0.0
H2295 H 0.61028 0.96611 0.0796 0.0
C2296 C 0.69347 0.03354 0.68013 0.0
C2297 C 0.67728 0.0396 0.69438 0.0
C2298 C 0.70979 0.04812 0.6749 0.0
C2299 C 0.72533 0.10526 0.67371 0.0
H2300 H 0.78313 0.08305 0.67704 0.0
C2301 C 0.8209 0.13131 0.66274 0.0
C2302 C 0.8195 0.1398 0.64198 0.0
C2303 C 0.80249 0.12327 0.67259 0.0
C2304 C 0.76714 0.08965 0.67639 0.0
H2305 H 0.66494 0.06618 0.71332 0.0
H2306 H 0.69344 0.09164 0.70397 0.0
H2307 H 0.7527 0.05995 0.68592 0.0
H2308 H 0.79741 0.14878 0.61638 0.0
H2309 H 0.76542 0.1347 0.63353 0.0
H2310 H 0.73988 0.1349 0.66375 0.0
C2311 C 0.69349 0.07555 0.69701 0.0
C2312 C 0.7497 0.0763 0.68116 0.0
C2313 C 0.67722 0.06092 0.70239 0.0
C2314 C 0.79908 0.14209 0.63227 0.0
C2315 C 0.78069 0.13412 0.64216 0.0
C2316 C 0.74284 0.11862 0.66875 0.0
C2317 C 0.71021 0.06911 0.68364 0.0
C2318 C 0.72861 0.08384 0.67952 0.0
C2319 C 0.78236 0.12372 0.66195 0.0
C2320 C 0.76391 0.11084 0.66979 0.0
H2321 H 0.69399 0.01732 0.67356 0.0
H2322 H 0.7223 0.04286 0.66424 0.0
H2323 H 0.70922 0.11147 0.67235 0.0
H2324 H 0.83635 0.1295 0.67078 0.0
H2325 H 0.80417 0.11568 0.68805 0.0
C2326 C 0.70414 0.89181 0.45478 0.0
C2327 C 0.72671 0.89348 0.45423 0.0
C2328 C 0.69148 0.90678 0.44413 0.0
C2329 C 0.69671 0.96298 0.43476 0.0
H2330 H 0.6432 0.95867 0.40175 0.0
C2331 C 0.6463 0.03701 0.4231 0.0
C2332 C 0.64331 0.04198 0.40132 0.0
C2333 C 0.65218 0.01635 0.42892 0.0
C2334 C 0.65807 0.95999 0.41106 0.0
H2335 H 0.75362 0.91013 0.4398 0.0
H2336 H 0.73154 0.93615 0.42125 0.0
H2337 H 0.66321 0.92588 0.4098 0.0
H2338 H 0.64188 0.02868 0.36878 0.0
H2339 H 0.65214 0.99258 0.37905 0.0
H2340 H 0.69176 -0.00319 0.43631 0.0
C2341 C 0.72367 0.92357 0.43021 0.0
C2342 C 0.66948 0.94134 0.41559 0.0
C2343 C 0.73628 0.90865 0.44079 0.0
C2344 C 0.64438 0.0254 0.38568 0.0
C2345 C 0.65008 0.00469 0.39154 0.0
C2346 C 0.68522 0.98143 0.43057 0.0
C2347 C 0.7013 0.92351 0.43284 0.0
C2348 C 0.68904 0.94279 0.42725 0.0
C2349 C 0.65495 0.00026 0.4131 0.0
C2350 C 0.66586 0.98016 0.41864 0.0
H2351 H 0.6963 0.88019 0.46492 0.0
H2352 H 0.67424 0.90641 0.44633 0.0
H2353 H 0.71156 0.96449 0.44412 0.0
H2354 H 0.64542 0.04935 0.43555 0.0
H2355 H 0.65562 0.0132 0.4457 0.0
C2356 C 0.82406 0.99564 0.19519 0.0
C2357 C 0.83483 0.98763 0.21323 0.0
C2358 C 0.8059 0.98474 0.18662 0.0
C2359 C 0.76012 0.96665 0.18242 0.0
H2360 H 0.75699 0.90428 0.18123 0.0
C2361 C 0.6799 0.91969 0.17615 0.0
C2362 C 0.67865 0.90191 0.16187 0.0
C2363 C 0.69963 0.92988 0.18086 0.0
C2364 C 0.7577 0.92169 0.18126 0.0
H2365 H 0.83458 0.96318 0.23752 0.0
H2366 H 0.80288 0.94414 0.22272 0.0
H2367 H 0.79077 0.92267 0.1913 0.0
H2368 H 0.69721 0.88055 0.14175 0.0
H2369 H 0.73173 0.89838 0.15011 0.0
H2370 H 0.72695 0.96564 0.17261 0.0
C2371 C 0.80879 0.95827 0.21461 0.0
C2372 C 0.77699 0.93222 0.18714 0.0
C2373 C 0.82689 0.96913 0.22308 0.0
C2374 C 0.69763 0.89423 0.15281 0.0
C2375 C 0.7174 0.90438 0.15761 0.0
C2376 C 0.74081 0.95612 0.17664 0.0
C2377 C 0.79811 0.96592 0.19627 0.0
C2378 C 0.7783 0.9548 0.18807 0.0
C2379 C 0.71853 0.92245 0.17149 0.0
C2380 C 0.73934 0.93355 0.17631 0.0
H2381 H 0.82979 0.01018 0.18767 0.0
H2382 H 0.79797 0.99099 0.17247 0.0
H2383 H 0.7606 0.98405 0.18318 0.0
H2384 H 0.6656 0.92601 0.18344 0.0
H2385 H 0.70011 0.94356 0.19191 0.0
C2386 C 0.80226 0.0641 0.01455 0.0
C2387 C 0.78103 0.06965 0.0092 0.0
C2388 C 0.81305 0.04901 0.0021 0.0
C2389 C 0.804 0.00193 0.96831 0.0
H2390 H 0.86124 0.01331 0.94681 0.0
C2391 C 0.85747 0.93479 0.93727 0.0
C2392 C 0.86395 0.93696 0.91585 0.0
C2393 C 0.84889 0.95214 0.94844 0.0
C2394 C 0.84526 0.01001 0.95271 0.0
H2395 H 0.75443 0.06364 0.98665 0.0
H2396 H 0.77319 0.0367 0.96525 0.0
H2397 H 0.84238 0.04173 0.96639 0.0
H2398 H 0.86792 0.95949 0.88994 0.0
H2399 H 0.85331 0.9901 0.90987 0.0
H2400 H 0.80702 0.97011 0.95516 0.0
C2401 C 0.78146 0.04431 0.97896 0.0
C2402 C 0.83454 0.02615 0.96392 0.0
C2403 C 0.77078 0.05971 0.99118 0.0
C2404 C 0.86297 0.95728 0.90637 0.0
C2405 C 0.85466 0.97478 0.91773 0.0
C2406 C 0.81485 0.98571 0.95749 0.0
C2407 C 0.8027 0.03891 0.9843 0.0
C2408 C 0.81383 0.0222 0.97181 0.0
C2409 C 0.84695 0.97211 0.9386 0.0
C2410 C 0.83558 0.98959 0.94968 0.0
H2411 H 0.81066 0.07154 0.02826 0.0
H2412 H 0.82936 0.04494 0.00663 0.0
H2413 H 0.78811 -0.00151 0.97437 0.0
H2414 H 0.85807 0.91942 0.94514 0.0
H2415 H 0.84327 0.94983 0.96464 0.0
C2416 C 0.78118 0.67571 0.95808 0.0
C2417 C 0.76368 0.66528 0.94746 0.0
C2418 C 0.79368 0.69087 0.94738 0.0
C2419 C 0.78973 0.7273 0.90139 0.0
H2420 H 0.84965 0.73915 0.91627 0.0
C2421 C 0.86294 0.79297 0.88423 0.0
C2422 C 0.85095 0.8118 0.88629 0.0
C2423 C 0.85328 0.77285 0.88746 0.0
C2424 C 0.83304 0.73585 0.91158 0.0
H2425 H 0.74638 0.66149 0.91694 0.0
H2426 H 0.7686 0.68728 0.89811 0.0
H2427 H 0.83197 0.70702 0.92976 0.0
H2428 H 0.81918 0.82418 0.89239 0.0
H2429 H 0.80259 0.78937 0.89849 0.0
H2430 H 0.79084 0.75595 0.88303 0.0
C2431 C 0.77225 0.68439 0.91489 0.0
C2432 C 0.8228 0.71758 0.91959 0.0
C2433 C 0.75956 0.66953 0.92567 0.0
C2434 C 0.82893 0.81003 0.89072 0.0
C2435 C 0.81934 0.78998 0.89406 0.0
C2436 C 0.80002 0.7454 0.8932 0.0
C2437 C 0.78914 0.69565 0.92575 0.0
C2438 C 0.80086 0.71342 0.91509 0.0
C2439 C 0.83147 0.77118 0.89285 0.0
C2440 C 0.82159 0.75025 0.89873 0.0
H2441 H 0.78471 0.67278 0.97488 0.0
H2442 H 0.80635 0.69942 0.95637 0.0
H2443 H 0.77278 0.72478 0.89769 0.0
H2444 H 0.87991 0.79379 0.88064 0.0
H2445 H 0.86299 0.75864 0.88609 0.0
C2446 C 0.30355 0.84552 0.03993 0.0
C2447 C 0.28813 0.85984 0.0475 0.0
C2448 C 0.31611 0.83406 0.05437 0.0
C2449 C 0.30926 0.81007 0.10595 0.0
H2450 H 0.36612 0.78848 0.09481 0.0
C2451 C 0.33195 0.72253 0.11386 0.0
C2452 C 0.35296 0.71718 0.12006 0.0
C2453 C 0.32614 0.74401 0.11253 0.0
C2454 C 0.35042 0.79463 0.09855 0.0
H2455 H 0.27506 0.87485 0.07605 0.0
H2456 H 0.29692 0.85456 0.10133 0.0
H2457 H 0.35437 0.82126 0.07755 0.0
H2458 H 0.38398 0.73013 0.13119 0.0
H2459 H 0.37384 0.76774 0.12851 0.0
H2460 H 0.30484 0.78272 0.12591 0.0
C2461 C 0.29919 0.85217 0.08423 0.0
C2462 C 0.34366 0.8133 0.08855 0.0
C2463 C 0.28674 0.86381 0.06976 0.0
C2464 C 0.36767 0.73373 0.12625 0.0
C2465 C 0.36192 0.75526 0.12468 0.0
C2466 C 0.31598 0.79134 0.11585 0.0
C2467 C 0.31339 0.83659 0.07666 0.0
C2468 C 0.32266 0.82063 0.09139 0.0
C2469 C 0.34129 0.76058 0.11722 0.0
C2470 C 0.33625 0.78292 0.11146 0.0
H2471 H 0.30507 0.84225 0.02286 0.0
H2472 H 0.32679 0.82204 0.04803 0.0
H2473 H 0.29294 0.81524 0.10838 0.0
H2474 H 0.32021 0.71014 0.10915 0.0
H2475 H 0.31017 0.74761 0.10652 0.0
C2476 C 0.94439 0.51897 0.7545 0.0
C2477 C 0.93502 0.50083 0.76379 0.0
C2478 C 0.96373 0.52766 0.76296 0.0
C2479 C 0.99491 0.55075 0.79379 0.0
H2480 H 0.03948 0.51493 0.81752 0.0
C2481 C 0.06126 0.58541 0.85089 0.0
C2482 C 0.08214 0.57755 0.8486 0.0
C2483 C 0.0439 0.57557 0.83978 0.0
C2484 C 0.02732 0.52521 0.81079 0.0
H2485 H 0.93922 0.47596 0.78726 0.0
H2486 H 0.97256 0.49129 0.8025 0.0
H2487 H 0.00942 0.49833 0.79747 0.0
H2488 H 0.10116 0.55313 0.83294 0.0
H2489 H 0.07101 0.53634 0.8132 0.0
H2490 H 0.01312 0.57768 0.80659 0.0
C2491 C 0.96517 0.49907 0.78887 0.0
C2492 C 0.00993 0.51566 0.7995 0.0
C2493 C 0.94591 0.49046 0.78042 0.0
C2494 C 0.08525 0.55951 0.83517 0.0
C2495 C 0.06793 0.54981 0.8239 0.0
C2496 C 0.01239 0.56032 0.80493 0.0
C2497 C 0.97407 0.51806 0.78058 0.0
C2498 C 0.99339 0.52829 0.79108 0.0
C2499 C 0.04706 0.55778 0.82598 0.0
C2500 C 0.0287 0.54764 0.81374 0.0
H2501 H 0.93644 0.52678 0.74121 0.0
H2502 H 0.97043 0.542 0.75586 0.0
H2503 H 0.98236 0.56097 0.78774 0.0
H2504 H 0.05832 0.5992 0.86124 0.0
H2505 H 0.02797 0.58185 0.84209 0.0
C2506 C 0.2281 0.18373 0.55129 0.0
C2507 C 0.21953 0.18417 0.53018 0.0
C2508 C 0.22245 0.19918 0.56662 0.0
C2509 C 0.20305 0.25418 0.57082 0.0
H2510 H 0.19051 0.2399 0.62981 0.0
C2511 C 0.15898 0.29822 0.64406 0.0
C2512 C 0.16769 0.31895 0.64117 0.0
C2513 C 0.16851 0.28038 0.6344 0.0
C2514 C 0.19406 0.2441 0.61342 0.0
H2515 H 0.19779 0.20094 0.50888 0.0
H2516 H 0.18795 0.22795 0.53571 0.0
H2517 H 0.19883 0.21126 0.60388 0.0
H2518 H 0.19458 0.33704 0.62852 0.0
H2519 H 0.21154 0.30588 0.61226 0.0
H2520 H 0.1978 0.28684 0.58 0.0
C2521 C 0.19924 0.21571 0.54026 0.0
C2522 C 0.19889 0.22776 0.59861 0.0
C2523 C 0.20481 0.20019 0.52492 0.0
C2524 C 0.18742 0.32124 0.63078 0.0
C2525 C 0.19701 0.30344 0.6213 0.0
C2526 C 0.19836 0.27047 0.58558 0.0
C2527 C 0.20818 0.21548 0.5612 0.0
C2528 C 0.20323 0.23265 0.5771 0.0
C2529 C 0.18694 0.28306 0.62188 0.0
C2530 C 0.19371 0.26564 0.60702 0.0
H2531 H 0.23942 0.17158 0.55599 0.0
H2532 H 0.22973 0.19868 0.58257 0.0
H2533 H 0.20661 0.25849 0.55445 0.0
H2534 H 0.14372 0.296 0.65192 0.0
H2535 H 0.16038 0.26487 0.63518 0.0
C2536 C 0.06171 0.011 0.79697 0.0
C2537 C 0.075 0.00163 0.78151 0.0
C2538 C 0.04677 -0.00154 0.80785 0.0
C2539 C 0.01741 0.94626 0.80481 0.0
H2540 H 0.00759 0.95848 0.8652 0.0
C2541 C 0.95957 0.8943 0.85341 0.0
C2542 C 0.94359 0.90609 0.86377 0.0
C2543 C 0.97784 0.90473 0.84566 0.0
C2544 C 0.01021 0.95491 0.84835 0.0
H2545 H 0.08296 0.97168 0.76532 0.0
H2546 H 0.05716 0.94976 0.78457 0.0
H2547 H 0.03479 0.97925 0.8463 0.0
H2548 H 0.935 0.93775 0.87562 0.0
H2549 H 0.967 0.9559 0.86221 0.0
H2550 H 0.9928 0.92194 0.8069 0.0
C2551 C 0.05801 0.96688 0.78801 0.0
C2552 C 0.02566 0.96686 0.83748 0.0
C2553 C 0.07283 0.97946 0.77699 0.0
C2554 C 0.94696 0.92826 0.86755 0.0
C2555 C 0.96532 0.93864 0.85997 0.0
C2556 C 0.00211 0.9342 0.81573 0.0
C2557 C 0.0449 0.97621 0.80366 0.0
C2558 C 0.02922 0.96286 0.8155 0.0
C2559 C 0.98058 0.92707 0.84837 0.0
C2560 C -0.00181 0.93859 0.83752 0.0
H2561 H 0.06288 0.02805 0.80076 0.0
H2562 H 0.0366 0.00624 0.81947 0.0
H2563 H 0.0195 0.94296 0.78783 0.0
H2564 H 0.95751 0.87718 0.85031 0.0
H2565 H 0.98953 0.89542 0.83699 0.0
C2566 C 0.72838 0.32041 0.47197 0.0
C2567 C 0.71822 0.32939 0.48982 0.0
C2568 C 0.72198 0.30024 0.46392 0.0
C2569 C 0.71285 0.25303 0.4561 0.0
H2570 H 0.65172 0.2399 0.45171 0.0
C2571 C 0.67941 0.17053 0.42582 0.0
C2572 C 0.6606 0.17044 0.41293 0.0
C2573 C 0.68701 0.18955 0.43578 0.0
C2574 C 0.66884 0.24341 0.45266 0.0
H2575 H 0.6948 0.32405 0.5145 0.0
H2576 H 0.68336 0.28843 0.50038 0.0
H2577 H 0.6641 0.27363 0.46865 0.0
H2578 H 0.63555 0.19034 0.3996 0.0
H2579 H 0.64916 0.22359 0.41648 0.0
H2580 H 0.71758 0.22325 0.43934 0.0
C2581 C 0.69587 0.29725 0.49224 0.0
C2582 C 0.67593 0.26257 0.46267 0.0
C2583 C 0.70239 0.3175 0.50034 0.0
C2584 C 0.64997 0.18985 0.40962 0.0
C2585 C 0.65767 0.20888 0.41943 0.0
C2586 C 0.70576 0.23393 0.44598 0.0
C2587 C 0.70548 0.28854 0.47379 0.0
C2588 C 0.698 0.26764 0.46436 0.0
C2589 C 0.67608 0.20889 0.43289 0.0
C2590 C 0.68367 0.22897 0.44402 0.0
H2591 H 0.74113 0.32916 0.46407 0.0
H2592 H 0.72957 0.2941 0.44959 0.0
H2593 H 0.72998 0.2564 0.45736 0.0
H2594 H 0.68791 0.1558 0.42875 0.0
H2595 H 0.70113 0.18898 0.4462 0.0
C2596 C 0.91577 0.40643 0.72324 0.0
C2597 C 0.90105 0.42049 0.71391 0.0
C2598 C 0.92804 0.39307 0.7103 0.0
C2599 C 0.9524 0.39851 0.65866 0.0
H2600 H 0.98317 0.34851 0.67775 0.0
C2601 C 0.043 0.39359 0.65799 0.0
C2602 C 0.05303 0.37416 0.65304 0.0
C2603 C 0.02066 0.39452 0.65862 0.0
C2604 C 0.9745 0.36218 0.67181 0.0
H2605 H 0.88553 0.42958 0.68399 0.0
H2606 H 0.907 0.40615 0.66134 0.0
H2607 H 0.9475 0.35564 0.69172 0.0
H2608 H 0.04754 0.34054 0.64426 0.0
H2609 H 0.00824 0.34213 0.64592 0.0
H2610 H 0.9799 0.40575 0.63977 0.0
C2611 C 0.90932 0.40574 0.67863 0.0
C2612 C 0.95414 0.36634 0.67991 0.0
C2613 C 0.89699 0.41911 0.69161 0.0
C2614 C 0.04022 0.35576 0.64815 0.0
C2615 C 0.01779 0.35662 0.6491 0.0
C2616 C 0.9727 0.39437 0.65063 0.0
C2617 C 0.92584 0.39355 0.68777 0.0
C2618 C 0.94344 0.38522 0.67435 0.0
C2619 C 0.00784 0.376 0.65452 0.0
C2620 C 0.98442 0.37686 0.65806 0.0
H2621 H 0.91904 0.40693 0.74042 0.0
H2622 H 0.94064 0.38397 0.71794 0.0
H2623 H 0.9447 0.41325 0.65405 0.0
H2624 H 0.05243 0.40806 0.66168 0.0
H2625 H 0.01345 0.40961 0.66319 0.0
C2626 C 0.57776 0.55596 0.18786 0.0
C2627 C 0.58428 0.57047 0.20447 0.0
C2628 C 0.5636 0.56229 0.17163 0.0
C2629 C 0.53975 0.60744 0.14386 0.0
H2630 H 0.48692 0.57346 0.14486 0.0
C2631 C 0.45824 0.63996 0.11648 0.0
C2632 C 0.44111 0.62548 0.11206 0.0
C2633 C 0.47869 0.63233 0.12139 0.0
C2634 C 0.50166 0.58284 0.14366 0.0
H2635 H 0.58213 0.60339 0.21625 0.0
H2636 H 0.55744 0.6145 0.18758 0.0
H2637 H 0.51793 0.56227 0.16549 0.0
H2638 H 0.43202 0.59205 0.10697 0.0
H2639 H 0.46809 0.57866 0.11369 0.0
H2640 H 0.52359 0.62801 0.12191 0.0
C2641 C 0.56331 0.59821 0.18732 0.0
C2642 C 0.51943 0.57645 0.15573 0.0
C2643 C 0.57726 0.5918 0.2038 0.0
C2644 C 0.44508 0.60345 0.11045 0.0
C2645 C 0.46569 0.59584 0.11463 0.0
C2646 C 0.52207 0.61362 0.13132 0.0
C2647 C 0.55594 0.58333 0.17146 0.0
C2648 C 0.53841 0.58896 0.15639 0.0
C2649 C 0.48247 0.61007 0.12148 0.0
C2650 C 0.50254 0.60174 0.13156 0.0
H2651 H 0.58288 0.53942 0.18784 0.0
H2652 H 0.55812 0.55057 0.15953 0.0
H2653 H 0.55435 0.61723 0.14404 0.0
H2654 H 0.4554 0.65705 0.11808 0.0
H2655 H 0.49098 0.64389 0.12671 0.0
C2656 C 0.548 0.72665 0.83479 0.0
C2657 C 0.54845 0.7492 0.83693 0.0
C2658 C 0.56276 0.7162 0.82185 0.0
C2659 C 0.59461 0.72558 0.77445 0.0
H2660 H 0.61803 0.66985 0.78745 0.0
C2661 C 0.63669 0.67795 0.70924 0.0
C2662 C 0.62934 0.65655 0.70673 0.0
C2663 C 0.63282 0.68953 0.72813 0.0
C2664 C 0.61162 0.6854 0.7836 0.0
H2665 H 0.56543 0.77837 0.82782 0.0
H2666 H 0.59115 0.76003 0.80511 0.0
H2667 H 0.59969 0.69023 0.81539 0.0
H2668 H 0.61359 0.62995 0.7225 0.0
H2669 H 0.60619 0.65035 0.7553 0.0
H2670 H 0.60548 0.7205 0.7425 0.0
C2671 C 0.57921 0.75052 0.81336 0.0
C2672 C 0.60115 0.69706 0.79959 0.0
C2673 C 0.56447 0.761 0.82636 0.0
C2674 C 0.6194 0.64645 0.72402 0.0
C2675 C 0.61526 0.65813 0.74285 0.0
C2676 C 0.60496 0.71393 0.75849 0.0
C2677 C 0.57829 0.72804 0.81073 0.0
C2678 C 0.59209 0.71703 0.79499 0.0
C2679 C 0.62124 0.68003 0.74478 0.0
C2680 C 0.61315 0.69349 0.76272 0.0
H2681 H 0.53599 0.71701 0.84278 0.0
H2682 H 0.56145 0.69888 0.81991 0.0
H2683 H 0.58752 0.74076 0.77031 0.0
H2684 H 0.64476 0.68602 0.69628 0.0
H2685 H 0.63811 0.7062 0.72933 0.0
C2686 C 0.50885 0.30313 0.08405 0.0
C2687 C 0.52003 0.29798 0.10304 0.0
C2688 C 0.51833 0.31664 0.06912 0.0
C2689 C 0.57243 0.32799 0.05131 0.0
H2690 H 0.54302 0.36236 0.00898 0.0
C2691 C 0.61288 0.34984 0.97219 0.0
C2692 C 0.59991 0.34613 0.95368 0.0
C2693 C 0.60375 0.3503 0.99254 0.0
C2694 C 0.55146 0.35282 0.0207 0.0
H2695 H 0.54875 0.30491 0.1225 0.0
H2696 H 0.56518 0.32872 0.09651 0.0
H2697 H 0.52502 0.35328 0.0423 0.0
H2698 H 0.56709 0.34074 0.94198 0.0
H2699 H 0.55132 0.34096 0.97742 0.0
H2700 H 0.59837 0.32649 0.02941 0.0
C2701 C 0.54932 0.32191 0.09293 0.0
C2702 C 0.54119 0.3477 0.03979 0.0
C2703 C 0.53987 0.30834 0.10784 0.0
C2704 C 0.57757 0.34352 0.95592 0.0
C2705 C 0.56848 0.3439 0.97625 0.0
C2706 C 0.58266 0.33306 0.03226 0.0
C2707 C 0.53913 0.3253 0.07295 0.0
C2708 C 0.55131 0.33464 0.05498 0.0
C2709 C 0.58149 0.34702 0.99482 0.0
C2710 C 0.57202 0.34491 0.01642 0.0
H2711 H 0.49347 0.29549 0.07996 0.0
H2712 H 0.51006 0.31885 0.05386 0.0
H2713 H 0.58058 0.31761 0.06249 0.0
H2714 H 0.63011 0.35223 0.97099 0.0
H2715 H 0.61418 0.35301 0.00652 0.0
C2716 C 0.96957 0.28637 0.31823 0.0
C2717 C 0.98432 0.29974 0.32983 0.0
C2718 C 0.95435 0.29522 0.3043 0.0
C2719 C 0.94436 0.34447 0.27378 0.0
H2720 H 0.88643 0.32069 0.26739 0.0
C2721 C 0.88425 0.38192 0.21587 0.0
C2722 C 0.87511 0.36712 0.20081 0.0
C2723 C 0.8942 0.37472 0.23464 0.0
C2724 C 0.90255 0.32749 0.26907 0.0
H2725 H 0.99421 0.33297 0.33629 0.0
H2726 H 0.96757 0.34827 0.31244 0.0
H2727 H 0.91126 0.3057 0.29388 0.0
H2728 H 0.86735 0.33337 0.19463 0.0
H2729 H 0.88478 0.32085 0.22733 0.0
H2730 H 0.93583 0.36605 0.24887 0.0
C2731 C 0.96804 0.33094 0.31366 0.0
C2732 C 0.9168 0.31885 0.28412 0.0
C2733 C 0.98332 0.32213 0.32739 0.0
C2734 C 0.87448 0.34517 0.2058 0.0
C2735 C 0.88435 0.33798 0.2246 0.0
C2736 C 0.93011 0.35316 0.25889 0.0
C2737 C 0.95348 0.31761 0.30182 0.0
C2738 C 0.93794 0.32713 0.28648 0.0
C2739 C 0.89505 0.35261 0.23876 0.0
C2740 C 0.90914 0.34465 0.25622 0.0
H2741 H 0.96989 0.26906 0.31976 0.0
H2742 H 0.94354 0.28449 0.2952 0.0
H2743 H 0.96063 0.35098 0.27486 0.0
H2744 H 0.88484 0.39896 0.21261 0.0
H2745 H 0.90202 0.38637 0.24549 0.0
C2746 C -0.00126 0.67003 0.58602 0.0
C2747 C 0.98679 0.68775 0.59263 0.0
C2748 C 0.99119 0.65677 0.56892 0.0
C2749 C 0.97884 0.6415 0.52331 0.0
H2750 H 0.91746 0.6365 0.51175 0.0
C2751 C 0.94397 0.63192 0.43781 0.0
C2752 C 0.92341 0.62266 0.43427 0.0
C2753 C 0.95268 0.63399 0.45861 0.0
C2754 C 0.93466 0.63719 0.51479 0.0
H2755 H 0.95862 0.70658 0.58602 0.0
H2756 H 0.94572 0.68407 0.55605 0.0
H2757 H 0.93041 0.65021 0.54638 0.0
H2758 H 0.89652 0.60681 0.44948 0.0
H2759 H 0.91205 0.60963 0.48575 0.0
H2760 H 0.98308 0.62817 0.49178 0.0
C2761 C 0.96028 0.67952 0.56449 0.0
C2762 C 0.9421 0.64542 0.53463 0.0
C2763 C 0.9677 0.69253 0.5816 0.0
C2764 C 0.91226 0.61436 0.4518 0.0
C2765 C 0.92115 0.61607 0.47259 0.0
C2766 C 0.97139 0.63291 0.50355 0.0
C2767 C 0.97185 0.66142 0.55794 0.0
C2768 C 0.96425 0.64861 0.53876 0.0
C2769 C 0.94121 0.62649 0.47636 0.0
C2770 C 0.94919 0.63153 0.49867 0.0
H2771 H 0.01374 0.66636 0.59417 0.0
H2772 H 0.00049 0.64296 0.56429 0.0
H2773 H 0.99601 0.64365 0.52593 0.0
H2774 H 0.95297 0.63849 0.42463 0.0
H2775 H 0.96797 0.64244 0.46078 0.0
C2776 C 0.52449 0.27089 0.68582 0.0
C2777 C 0.53027 0.25214 0.67475 0.0
C2778 C 0.53506 0.27709 0.70486 0.0
C2779 C 0.58532 0.27075 0.73573 0.0
H2780 H 0.55247 0.29898 0.78016 0.0
C2781 C 0.61182 0.30153 0.82326 0.0
C2782 C 0.60915 0.32386 0.82567 0.0
C2783 C 0.60492 0.29077 0.80436 0.0
C2784 C 0.56178 0.29107 0.76787 0.0
H2785 H 0.55047 0.22424 0.67533 0.0
H2786 H 0.56928 0.2351 0.70916 0.0
H2787 H 0.53376 0.28224 0.74923 0.0
H2788 H 0.59817 0.35254 0.80979 0.0
H2789 H 0.58561 0.33355 0.77706 0.0
H2790 H 0.61338 0.27962 0.75492 0.0
C2791 C 0.55686 0.24526 0.70273 0.0
C2792 C 0.55114 0.28157 0.75015 0.0
C2793 C 0.54612 0.239 0.68352 0.0
C2794 C 0.60045 0.33535 0.80844 0.0
C2795 C 0.59326 0.32455 0.78974 0.0
C2796 C 0.59599 0.28005 0.75374 0.0
C2797 C 0.55144 0.26445 0.71353 0.0
C2798 C 0.5628 0.27182 0.73358 0.0
C2799 C 0.59504 0.30217 0.78778 0.0
C2800 C 0.58424 0.29069 0.76961 0.0
H2801 H 0.5119 0.28098 0.67955 0.0
H2802 H 0.53068 0.29212 0.71252 0.0
H2803 H 0.59473 0.26352 0.72313 0.0
H2804 H 0.61861 0.29229 0.83623 0.0
H2805 H 0.60628 0.27346 0.80311 0.0
C2806 C 0.96683 0.29614 0.93941 0.0
C2807 C 0.95355 0.28522 0.92411 0.0
C2808 C 0.95775 0.30779 0.95633 0.0
C2809 C 0.90721 0.31003 0.98633 0.0
H2810 H 0.93156 0.36331 0.01027 0.0
C2811 C 0.86595 0.35585 0.05442 0.0
C2812 C 0.8794 0.36163 0.07208 0.0
C2813 C 0.87477 0.3491 0.03501 0.0
C2814 C 0.92464 0.34841 0.00373 0.0
H2815 H 0.92041 0.27904 0.91375 0.0
H2816 H 0.90475 0.2997 0.94268 0.0
H2817 H 0.94777 0.34664 0.97868 0.0
H2818 H 0.91266 0.36597 0.08286 0.0
H2819 H 0.92797 0.35408 0.04902 0.0
H2820 H 0.8842 0.31167 0.01134 0.0
C2821 C 0.92211 0.29874 0.94215 0.0
C2822 C 0.93395 0.33884 0.98573 0.0
C2823 C 0.93112 0.28695 0.92549 0.0
C2824 C 0.90184 0.36142 0.06962 0.0
C2825 C 0.91063 0.35479 0.05019 0.0
C2826 C 0.89786 0.31964 0.00417 0.0
C2827 C 0.93526 0.30886 0.95806 0.0
C2828 C 0.92535 0.3195 0.97688 0.0
C2829 C 0.89719 0.34816 0.03284 0.0
C2830 C 0.90652 0.33886 0.01311 0.0
H2831 H 0.98417 0.29509 0.93875 0.0
H2832 H 0.96832 0.31531 0.96842 0.0
H2833 H 0.90047 0.29488 0.98025 0.0
H2834 H 0.84861 0.35598 0.05574 0.0
H2835 H 0.86404 0.3443 0.02178 0.0
C2836 C 0.95168 0.74527 0.17567 0.0
C2837 C 0.95954 0.72997 0.16106 0.0
C2838 C 0.9372 0.73907 0.1914 0.0
C2839 C 0.90561 0.69229 0.21227 0.0
H2840 H 0.93063 0.71222 0.26682 0.0
C2841 C 0.90672 0.64135 0.28837 0.0
C2842 C 0.90555 0.65165 0.3086 0.0
C2843 C 0.907 0.65336 0.26962 0.0
C2844 C 0.92303 0.70678 0.25183 0.0
H2845 H 0.95652 0.69683 0.1498 0.0
H2846 H 0.93181 0.6859 0.17745 0.0
H2847 H 0.94067 0.72991 0.2341 0.0
H2848 H 0.9026 0.68256 0.32495 0.0
H2849 H 0.90303 0.70346 0.29224 0.0
H2850 H 0.88883 0.66836 0.23018 0.0
C2851 C 0.93658 0.70271 0.1768 0.0
C2852 C 0.92874 0.71701 0.23298 0.0
C2853 C 0.9509 0.70895 0.16097 0.0
C2854 C 0.90387 0.67414 0.30964 0.0
C2855 C 0.90409 0.68613 0.2909 0.0
C2856 C 0.89991 0.682 0.2312 0.0
C2857 C 0.93051 0.71743 0.1929 0.0
C2858 C 0.92066 0.70946 0.21289 0.0
C2859 C 0.90603 0.67591 0.27071 0.0
C2860 C 0.90911 0.68873 0.25109 0.0
H2861 H 0.9578 0.76169 0.17591 0.0
H2862 H 0.93238 0.75092 0.20325 0.0
H2863 H 0.89887 0.68628 0.19709 0.0
H2864 H 0.90788 0.62403 0.28699 0.0
H2865 H 0.90881 0.645 0.25435 0.0
C2866 C 0.53547 0.69152 0.43065 0.0
C2867 C 0.51334 0.69475 0.43307 0.0
C2868 C 0.54724 0.68081 0.44628 0.0
C2869 C 0.54283 0.64766 0.49513 0.0
H2870 H 0.5966 0.67698 0.51098 0.0
C2871 C 0.58467 0.64105 0.57804 0.0
C2872 C 0.60728 0.64086 0.57909 0.0
C2873 C 0.57388 0.64373 0.55845 0.0
C2874 C 0.58185 0.66833 0.50653 0.0
H2875 H 0.48595 0.68832 0.45317 0.0
H2876 H 0.50667 0.67009 0.48088 0.0
H2877 H 0.5762 0.68853 0.47977 0.0
H2878 H 0.63624 0.64235 0.56022 0.0
H2879 H 0.61732 0.6471 0.52593 0.0
H2880 H 0.54826 0.62798 0.52255 0.0
C2881 C 0.51486 0.67555 0.46671 0.0
C2882 C 0.57013 0.67494 0.4886 0.0
C2883 C 0.503 0.68608 0.45091 0.0
C2884 C 0.61883 0.64263 0.55999 0.0
C2885 C 0.60801 0.64539 0.54037 0.0
C2886 C 0.55455 0.6411 0.51317 0.0
C2887 C 0.53722 0.67331 0.46482 0.0
C2888 C 0.55035 0.66487 0.48283 0.0
C2889 C 0.58545 0.6463 0.53947 0.0
C2890 C 0.57403 0.65158 0.5192 0.0
H2891 H 0.54383 0.69766 0.41686 0.0
H2892 H 0.56434 0.67887 0.44407 0.0
H2893 H 0.5278 0.6394 0.49094 0.0
H2894 H 0.57526 0.63954 0.59244 0.0
H2895 H 0.5565 0.6446 0.5583 0.0
C2896 C 0.84283 0.54809 0.74728 0.0
C2897 C 0.84631 0.52771 0.73802 0.0
C2898 C 0.82842 0.56214 0.73766 0.0
C2899 C 0.79564 0.56994 0.68737 0.0
H2900 H 0.75824 0.60029 0.72617 0.0
C2901 C 0.70369 0.60139 0.68852 0.0
C2902 C 0.70165 0.60906 0.6675 0.0
C2903 C 0.72377 0.59601 0.69691 0.0
C2904 C 0.76847 0.59186 0.71508 0.0
H2905 H 0.83763 0.5062 0.71126 0.0
H2906 H 0.81196 0.53013 0.69506 0.0
H2907 H 0.78898 0.58158 0.74063 0.0
H2908 H 0.71918 0.61827 0.63921 0.0
H2909 H 0.75446 0.60952 0.65414 0.0
H2910 H 0.77413 0.57872 0.66202 0.0
C2911 C 0.8208 0.53571 0.70933 0.0
C2912 C 0.78638 0.58138 0.72336 0.0
C2913 C 0.83542 0.52184 0.71874 0.0
C2914 C 0.72024 0.61212 0.65537 0.0
C2915 C 0.74044 0.60703 0.66391 0.0
C2916 C 0.77752 0.5801 0.67913 0.0
C2917 C 0.81693 0.55597 0.71875 0.0
C2918 C 0.79984 0.56975 0.70967 0.0
C2919 C 0.7424 0.5985 0.68464 0.0
C2920 C 0.76335 0.59064 0.69296 0.0
H2921 H 0.85115 0.55317 0.76203 0.0
H2922 H 0.82615 0.57775 0.74518 0.0
H2923 H 0.80596 0.56163 0.67627 0.0
H2924 H 0.68967 0.59877 0.69828 0.0
H2925 H 0.72449 0.58909 0.71275 0.0
C2926 C 0.70028 0.56885 0.96111 0.0
C2927 C 0.69746 0.5788 0.98122 0.0
C2928 C 0.68743 0.55129 0.95463 0.0
C2929 C 0.66204 0.50447 0.97419 0.0
H2930 H 0.63432 0.50132 0.91778 0.0
C2931 C 0.63269 0.42338 0.9372 0.0
C2932 C 0.6376 0.42012 0.91543 0.0
C2933 C 0.63439 0.4439 0.94665 0.0
C2934 C 0.64203 0.50187 0.93354 0.0
H2935 H 0.68026 0.57748 0.0111 0.0
H2936 H 0.65794 0.54586 -5e-05 0.0
H2937 H 0.64782 0.53581 0.93209 0.0
H2938 H 0.64763 0.43582 0.88635 0.0
H2939 H 0.65144 0.47135 0.90293 0.0
H2940 H 0.65802 0.47034 0.97502 0.0
C2941 C 0.66954 0.55237 0.98892 0.0
C2942 C 0.64951 0.52167 0.94181 0.0
C2943 C 0.68223 0.57031 0.99527 0.0
C2944 C 0.6437 0.43784 0.90315 0.0
C2945 C 0.64568 0.45828 0.91266 0.0
C2946 C 0.6549 0.48456 0.96577 0.0
C2947 C 0.67202 0.54285 0.96847 0.0
C2948 C 0.66013 0.52301 0.9619 0.0
C2949 C 0.64127 0.46154 0.93459 0.0
C2950 C 0.64546 0.48294 0.94502 0.0
H2951 H 0.71267 0.57451 0.95046 0.0
H2952 H 0.69003 0.54385 0.93902 0.0
H2953 H 0.67041 0.50512 0.98964 0.0
H2954 H 0.62764 0.41004 0.94699 0.0
H2955 H 0.63052 0.44587 0.96347 0.0
C2956 C 0.66209 0.46356 0.24998 0.0
C2957 C 0.64792 0.47137 0.23426 0.0
C2958 C 0.6771 0.44807 0.24452 0.0
C2959 C 0.71821 0.43619 0.22338 0.0
H2960 H 0.71375 0.394 0.17675 0.0
C2961 C 0.77473 0.40479 0.15162 0.0
C2962 C 0.79419 0.40264 0.16317 0.0
C2963 C 0.75547 0.40753 0.1625 0.0
C2964 C 0.71521 0.40573 0.18981 0.0
H2965 H 0.63664 0.46738 0.20117 0.0
H2966 H 0.66312 0.44095 0.1915 0.0
H2967 H 0.68105 0.40725 0.19329 0.0
H2968 H 0.8085 0.40032 0.19515 0.0
H2969 H 0.77498 0.40492 0.21401 0.0
H2970 H 0.75217 0.4354 0.21946 0.0
C2971 C 0.66265 0.4465 0.20809 0.0
C2972 C 0.69652 0.41327 0.19932 0.0
C2973 C 0.6475 0.46181 0.21361 0.0
C2974 C 0.79385 0.40235 0.18576 0.0
C2975 C 0.77464 0.40496 0.19659 0.0
C2976 C 0.73681 0.42863 0.21396 0.0
C2977 C 0.67836 0.44033 0.22319 0.0
C2978 C 0.69781 0.42904 0.21583 0.0
C2979 C 0.75531 0.40805 0.18512 0.0
C2980 C 0.73553 0.41374 0.19671 0.0
H2981 H 0.66255 0.4704 0.26614 0.0
H2982 H 0.68862 0.44319 0.25668 0.0
H2983 H 0.71989 0.44866 0.23571 0.0
H2984 H 0.77445 0.40493 0.1342 0.0
H2985 H 0.74088 0.41009 0.1532 0.0
C2986 C 0.76027 0.43271 0.43989 0.0
C2987 C 0.76236 0.42964 0.46217 0.0
C2988 C 0.77479 0.44602 0.42933 0.0
C2989 C 0.82948 0.47009 0.43578 0.0
H2990 H 0.8103 0.50766 0.39054 0.0
C2991 C 0.87607 0.54487 0.40797 0.0
C2992 C 0.8747 0.55027 0.38615 0.0
C2993 C 0.86518 0.52674 0.41536 0.0
C2994 C 0.81597 0.49694 0.40286 0.0
H2995 H 0.78075 0.43903 0.49098 0.0
H2996 H 0.80563 0.46274 0.47265 0.0
H2997 H 0.78435 0.48413 0.40772 0.0
H2998 H 0.86238 0.53995 0.35466 0.0
H2999 H 0.84326 0.50826 0.36767 0.0
H3000 H 0.86101 0.4836 0.43138 0.0
C3001 C 0.79317 0.45432 0.46323 0.0
C3002 C 0.80109 0.4835 0.41275 0.0
C3003 C 0.77876 0.44089 0.47377 0.0
C3004 C 0.86368 0.53625 0.37158 0.0
C3005 C 0.85261 0.51821 0.37902 0.0
C3006 C 0.84434 0.48365 0.42598 0.0
C3007 C 0.79162 0.4567 0.44083 0.0
C3008 C 0.80761 0.47017 0.42955 0.0
C3009 C 0.85262 0.51377 0.40109 0.0
C3010 C 0.83766 0.4974 0.40963 0.0
H3011 H 0.7479 0.4242 0.43042 0.0
H3012 H 0.77322 0.44741 0.41204 0.0
H3013 H 0.83511 0.45965 0.44835 0.0
H3014 H 0.8846 0.5553 0.41954 0.0
H3015 H 0.86543 0.52374 0.43246 0.0
C3016 C 0.83181 0.44794 0.80936 0.0
C3017 C 0.83606 0.44767 0.78723 0.0
C3018 C 0.81524 0.4352 0.81741 0.0
C3019 C 0.76375 0.41058 0.80183 0.0
H3020 H 0.77066 0.37926 0.85479 0.0
C3021 C 0.69192 0.36672 0.83892 0.0
C3022 C 0.68968 0.36998 0.86118 0.0
C3023 C 0.71117 0.37218 0.82902 0.0
C3024 C 0.76845 0.38801 0.84004 0.0
H3025 H 0.82636 0.4336 0.75625 0.0
H3026 H 0.79716 0.41154 0.77039 0.0
H3027 H 0.80186 0.39689 0.83899 0.0
H3028 H 0.70617 0.3806 0.89067 0.0
H3029 H 0.73949 0.39066 0.87336 0.0
H3030 H 0.73028 0.40262 0.80324 0.0
C3031 C 0.80675 0.42162 0.78142 0.0
C3032 C 0.78631 0.39804 0.831 0.0
C3033 C 0.82348 0.43421 0.77337 0.0
C3034 C 0.70738 0.3779 0.87348 0.0
C3035 C 0.72656 0.38355 0.86355 0.0
C3036 C 0.74587 0.40073 0.81095 0.0
C3037 C 0.80245 0.42206 0.80351 0.0
C3038 C 0.78404 0.4097 0.812 0.0
C3039 C 0.72852 0.38119 0.84114 0.0
C3040 C 0.74794 0.38962 0.83036 0.0
H3041 H 0.84126 0.45801 0.82051 0.0
H3042 H 0.81209 0.43603 0.83448 0.0
H3043 H 0.76152 0.41969 0.7873 0.0
H3044 H 0.67865 0.36036 0.82905 0.0
H3045 H 0.71231 0.36974 0.8118 0.0
C3046 C 0.80041 0.58998 0.02927 0.0
C3047 C 0.79229 0.58808 0.00808 0.0
C3048 C 0.81362 0.57417 0.03766 0.0
C3049 C 0.82043 0.51647 0.02946 0.0
H3050 H 0.86076 0.52345 0.07754 0.0
C3051 C 0.84855 0.44349 0.07598 0.0
C3052 C 0.84697 0.44536 0.09846 0.0
C3053 C 0.84753 0.46165 0.06323 0.0
C3054 C 0.84953 0.52128 0.06411 0.0
H3055 H 0.79359 0.56957 0.97827 0.0
H3056 H 0.81719 0.54227 0.99271 0.0
H3057 H 0.85029 0.55485 0.05699 0.0
H3058 H 0.8442 0.46789 0.12526 0.0
H3059 H 0.84195 0.49963 0.10287 0.0
H3060 H 0.81906 0.48316 0.03689 0.0
C3061 C 0.81277 0.55557 0.0031 0.0
C3062 C 0.84356 0.53923 0.05233 0.0
C3063 C 0.79936 0.57127 0.99477 0.0
C3064 C 0.84531 0.46591 0.10798 0.0
C3065 C 0.84421 0.48411 0.09517 0.0
C3066 C 0.82646 0.4986 0.04113 0.0
C3067 C 0.81912 0.55625 0.02494 0.0
C3068 C 0.82852 0.5371 0.03519 0.0
C3069 C 0.84484 0.48209 0.07262 0.0
C3070 C 0.84068 0.50085 0.05888 0.0
H3071 H 0.79534 0.60282 0.03991 0.0
H3072 H 0.81811 0.57522 0.05456 0.0
H3073 H 0.80846 0.51421 0.01671 0.0
H3074 H 0.85023 0.42794 0.06814 0.0
H3075 H 0.84843 0.45962 0.04593 0.0
C3076 C 0.67469 0.55822 0.27865 0.0
C3077 C 0.6694 0.56287 0.25727 0.0
C3078 C 0.69391 0.5658 0.28798 0.0
C3079 C 0.73977 0.60381 0.282 0.0
H3080 H 0.76782 0.56322 0.31939 0.0
C3081 C 0.82796 0.61118 0.31594 0.0
C3082 C 0.83055 0.60667 0.33793 0.0
C3083 C 0.80789 0.60834 0.30565 0.0
C3084 C 0.76009 0.57478 0.30913 0.0
H3085 H 0.68026 0.57821 0.2284 0.0
H3086 H 0.71461 0.59119 0.24462 0.0
H3087 H 0.7339 0.5532 0.30165 0.0
H3088 H 0.81391 0.59658 0.36652 0.0
H3089 H 0.77906 0.59136 0.34845 0.0
H3090 H 0.76664 0.62513 0.28927 0.0
C3091 C 0.70341 0.58235 0.25442 0.0
C3092 C 0.74062 0.5691 0.29901 0.0
C3093 C 0.6839 0.57487 0.2451 0.0
C3094 C 0.81252 0.60008 0.34956 0.0
C3095 C 0.79257 0.59703 0.33923 0.0
C3096 C 0.75952 0.60942 0.292 0.0
C3097 C 0.70873 0.57758 0.2759 0.0
C3098 C 0.73001 0.58364 0.28562 0.0
C3099 C 0.79018 0.60073 0.31712 0.0
C3100 C 0.76964 0.59503 0.3059 0.0
H3101 H 0.66407 0.54836 0.28814 0.0
H3102 H 0.69726 0.56214 0.30466 0.0
H3103 H 0.73194 0.61538 0.27185 0.0
H3104 H 0.84152 0.61647 0.30659 0.0
H3105 H 0.80643 0.61123 0.28856 0.0
C3106 C 0.69624 0.42383 0.54383 0.0
C3107 C 0.68899 0.41638 0.52345 0.0
C3108 C 0.68395 0.4379 0.55588 0.0
C3109 C 0.64319 0.47892 0.5482 0.0
H3110 H 0.6513 0.48416 0.61005 0.0
C3111 C 0.64721 0.56041 0.59071 0.0
C3112 C 0.64189 0.56269 0.61245 0.0
C3113 C 0.64616 0.54031 0.58049 0.0
C3114 C 0.64832 0.48283 0.59286 0.0
H3115 H 0.66245 0.41682 0.50031 0.0
H3116 H 0.64068 0.44121 0.52166 0.0
H3117 H 0.6606 0.45102 0.59166 0.0
H3118 H 0.63024 0.54589 0.64029 0.0
H3119 H 0.62788 0.51069 0.62224 0.0
H3120 H 0.63066 0.51062 0.54942 0.0
C3121 C 0.65617 0.4365 0.52807 0.0
C3122 C 0.65399 0.46388 0.58224 0.0
C3123 C 0.66862 0.42251 0.51584 0.0
C3124 C 0.63476 0.54453 0.62359 0.0
C3125 C 0.63342 0.52438 0.61323 0.0
C3126 C 0.63712 0.49771 0.55887 0.0
C3127 C 0.66393 0.44474 0.54803 0.0
C3128 C 0.65267 0.46219 0.55967 0.0
C3129 C 0.63944 0.52197 0.59163 0.0
C3130 C 0.64078 0.50037 0.58116 0.0
H3131 H 0.71185 0.41948 0.55024 0.0
H3132 H 0.69076 0.4442 0.57092 0.0
H3133 H 0.64182 0.47823 0.53082 0.0
H3134 H 0.65279 0.57408 0.58167 0.0
H3135 H 0.65145 0.53911 0.56403 0.0
C3136 C 0.73081 0.82438 0.55245 0.0
C3137 C 0.75135 0.83296 0.5577 0.0
C3138 C 0.72077 0.80989 0.56599 0.0
C3139 C 0.69834 0.78499 0.59996 0.0
H3140 H 0.73416 0.74053 0.62345 0.0
C3141 C 0.66015 0.70897 0.63525 0.0
C3142 C 0.66978 0.68962 0.62913 0.0
C3143 C 0.6708 0.72864 0.63225 0.0
C3144 C 0.72389 0.75278 0.61695 0.0
H3145 H 0.77704 0.83379 0.58182 0.0
H3146 H 0.75921 0.80878 0.60581 0.0
H3147 H 0.75089 0.77149 0.60686 0.0
H3148 H 0.69835 0.67562 0.61568 0.0
H3149 H 0.71644 0.70972 0.60955 0.0
H3150 H 0.67133 0.76548 0.60835 0.0
C3151 C 0.75111 0.8129 0.59093 0.0
C3152 C 0.73352 0.77076 0.60773 0.0
C3153 C 0.7613 0.82728 0.57721 0.0
C3154 C 0.69051 0.69026 0.62059 0.0
C3155 C 0.70099 0.70989 0.61728 0.0
C3156 C 0.68871 0.76686 0.60884 0.0
C3157 C 0.73085 0.80378 0.5853 0.0
C3158 C 0.72083 0.78672 0.59844 0.0
C3159 C 0.69116 0.72937 0.62276 0.0
C3160 C 0.70137 0.75018 0.6168 0.0
H3161 H 0.7227 0.8283 0.5375 0.0
H3162 H 0.70541 0.80288 0.56083 0.0
H3163 H 0.68807 0.79725 0.59347 0.0
H3164 H 0.6443 0.70892 0.64219 0.0
H3165 H 0.6629 0.74327 0.63707 0.0
C3166 C 0.19181 0.65961 0.45919 0.0
C3167 C 0.21346 0.65876 0.46592 0.0
C3168 C 0.18527 0.67501 0.44453 0.0
C3169 C 0.2029 0.72933 0.43154 0.0
H3170 H 0.15037 0.72856 0.3969 0.0
C3171 C 0.16723 0.80782 0.40358 0.0
C3172 C 0.1453 0.81023 0.40786 0.0
C3173 C 0.17648 0.78763 0.4041 0.0
C3174 C 0.1651 0.72897 0.40649 0.0
H3175 H 0.24566 0.67116 0.4605 0.0
H3176 H 0.23438 0.69749 0.43424 0.0
H3177 H 0.16612 0.6946 0.40783 0.0
H3178 H 0.11556 0.79322 0.41484 0.0
H3179 H 0.13193 0.75784 0.41643 0.0
H3180 H 0.20158 0.76349 0.43099 0.0
C3181 C 0.22231 0.68692 0.44093 0.0
C3182 C 0.17414 0.70956 0.41271 0.0
C3183 C 0.2288 0.67177 0.45587 0.0
C3184 C 0.13255 0.79186 0.41166 0.0
C3185 C 0.14189 0.77159 0.41237 0.0
C3186 C 0.19397 0.7486 0.42527 0.0
C3187 C 0.20032 0.68962 0.43614 0.0
C3188 C 0.19284 0.70955 0.42582 0.0
C3189 C 0.16407 0.76938 0.4091 0.0
C3190 C 0.17469 0.74869 0.41314 0.0
H3191 H 0.17964 0.64967 0.46659 0.0
H3192 H 0.16821 0.67658 0.44128 0.0
H3193 H 0.217 0.73008 0.44204 0.0
H3194 H 0.1774 0.82161 0.40009 0.0
H3195 H 0.19352 0.78638 0.40109 0.0
C3196 C 0.57588 0.00325 0.68382 0.0
C3197 C 0.58811 0.99184 0.69875 0.0
C3198 C 0.55713 0.99392 0.6746 0.0
C3199 C 0.51672 0.951 0.68538 0.0
H3200 H 0.49837 0.95982 0.62631 0.0
C3201 C 0.43359 0.93933 0.63498 0.0
C3202 C 0.42868 0.91766 0.63916 0.0
C3203 C 0.45415 0.94786 0.63956 0.0
C3204 C 0.50339 0.95728 0.64283 0.0
H3205 H 0.59 0.9625 0.71677 0.0
H3206 H 0.55822 0.94575 0.70003 0.0
H3207 H 0.53252 0.97584 0.63967 0.0
H3208 H 0.44166 0.88774 0.65059 0.0
H3209 H 0.47745 0.90284 0.65903 0.0
H3210 H 0.48788 0.93214 0.68842 0.0
C3211 C 0.56273 0.96188 0.69539 0.0
C3212 C 0.52282 0.96653 0.65052 0.0
C3213 C 0.58119 0.97129 0.7047 0.0
C3214 C 0.44494 0.9045 0.64725 0.0
C3215 C 0.46537 0.91312 0.65212 0.0
C3216 C 0.49759 0.94152 0.6776 0.0
C3217 C 0.55025 0.97315 0.68044 0.0
C3218 C 0.5297 0.96347 0.67192 0.0
C3219 C 0.47002 0.93494 0.64866 0.0
C3220 C 0.49074 0.94456 0.6563 0.0
H3221 H 0.58075 0.01937 0.67944 0.0
H3222 H 0.54772 0.0032 0.66341 0.0
H3223 H 0.52113 0.94878 0.7021 0.0
H3224 H 0.42141 0.94981 0.62858 0.0
H3225 H 0.45736 0.96477 0.63686 0.0
C3226 C 0.29929 0.32426 0.94638 0.0
C3227 C 0.30877 0.32765 0.9669 0.0
C3228 C 0.3073 0.30874 0.93231 0.0
C3229 C 0.35491 0.27463 0.92363 0.0
H3230 H 0.31415 0.23795 0.89156 0.0
C3231 C 0.35021 0.18301 0.89 0.0
C3232 C 0.3713 0.18098 0.88264 0.0
C3233 C 0.34219 0.20321 0.89504 0.0
C3234 C 0.32576 0.24805 0.90041 0.0
H3235 H 0.33393 0.31732 0.98882 0.0
H3236 H 0.34735 0.28981 0.96467 0.0
H3237 H 0.30128 0.26873 0.91187 0.0
H3238 H 0.39989 0.19856 0.87304 0.0
H3239 H 0.38564 0.23395 0.88128 0.0
H3240 H 0.37917 0.2531 0.91358 0.0
C3241 C 0.33417 0.29954 0.95912 0.0
C3242 C 0.3184 0.26587 0.91185 0.0
C3243 C 0.32634 0.31519 0.97308 0.0
C3244 C 0.38369 0.19963 0.87904 0.0
C3245 C 0.37556 0.21988 0.88383 0.0
C3246 C 0.36222 0.25667 0.91244 0.0
C3247 C 0.32481 0.29618 0.93854 0.0
C3248 C 0.33284 0.27899 0.92411 0.0
C3249 C 0.35497 0.22185 0.89255 0.0
C3250 C 0.34765 0.2428 0.90121 0.0
H3251 H 0.28587 0.33378 0.94106 0.0
H3252 H 0.29986 0.30673 0.91649 0.0
H3253 H 0.36653 0.28472 0.93248 0.0
H3254 H 0.34021 0.16895 0.89288 0.0
H3255 H 0.32639 0.20402 0.90198 0.0
C3256 C 0.43281 0.54253 0.72597 0.0
C3257 C 0.4221 0.52416 0.71731 0.0
C3258 C 0.44805 0.55356 0.71406 0.0
C3259 C 0.48483 0.54533 0.66913 0.0
H3260 H 0.49666 0.60598 0.68022 0.0
C3261 C 0.569 0.5816 0.66146 0.0
C3262 C 0.57197 0.6033 0.65622 0.0
C3263 C 0.54841 0.57294 0.66395 0.0
C3264 C 0.49342 0.58915 0.67649 0.0
H3265 H 0.4184 0.50345 0.68898 0.0
H3266 H 0.44471 0.52311 0.66789 0.0
H3267 H 0.4636 0.58973 0.69295 0.0
H3268 H 0.55563 0.63274 0.64858 0.0
H3269 H 0.51945 0.61745 0.65247 0.0
H3270 H 0.51446 0.54483 0.65234 0.0
C3271 C 0.44166 0.52867 0.68413 0.0
C3272 C 0.47457 0.57972 0.68411 0.0
C3273 C 0.42655 0.51742 0.69619 0.0
C3274 C 0.55383 0.61603 0.65289 0.0
C3275 C 0.53312 0.60726 0.65515 0.0
C3276 C 0.5035 0.55483 0.66119 0.0
C3277 C 0.45281 0.54673 0.69304 0.0
C3278 C 0.47052 0.5575 0.68136 0.0
C3279 C 0.53019 0.58566 0.66098 0.0
C3280 C 0.50849 0.57664 0.66561 0.0
H3281 H 0.42988 0.5481 0.74224 0.0
H3282 H 0.45662 0.56704 0.72172 0.0
H3283 H 0.48231 0.52819 0.66666 0.0
H3284 H 0.58262 0.57133 0.66419 0.0
H3285 H 0.54689 0.55641 0.66894 0.0
C3286 C 0.74016 0.17314 0.08252 0.0
C3287 C 0.75277 0.16416 0.06637 0.0
C3288 C 0.74799 0.19085 0.09472 0.0
C3289 C 0.76271 0.23599 0.10876 0.0
H3290 H 0.8244 0.24387 0.11613 0.0
C3291 C 0.80238 0.31934 0.11923 0.0
C3292 C 0.82279 0.32162 0.12913 0.0
C3293 C 0.79246 0.29911 0.11695 0.0
C3294 C 0.8071 0.24188 0.11476 0.0
H3295 H 0.78237 0.16726 0.0489 0.0
H3296 H 0.7957 0.19851 0.06935 0.0
H3297 H 0.80995 0.20985 0.10258 0.0
H3298 H 0.84811 0.30492 0.14592 0.0
H3299 H 0.83038 0.26967 0.14288 0.0
H3300 H 0.75988 0.26794 0.12146 0.0
C3301 C 0.78039 0.19141 0.07366 0.0
C3302 C 0.79879 0.22238 0.10658 0.0
C3303 C 0.77273 0.1736 0.06181 0.0
C3304 C 0.83251 0.30352 0.1379 0.0
C3305 C 0.82237 0.28332 0.13604 0.0
C3306 C 0.77101 0.25541 0.11735 0.0
C3307 C 0.76827 0.20016 0.09046 0.0
C3308 C 0.77658 0.21949 0.10261 0.0
C3309 C 0.80252 0.28073 0.12492 0.0
C3310 C 0.79337 0.25892 0.11966 0.0
H3311 H 0.72452 0.16621 0.08596 0.0
H3312 H 0.73824 0.19711 0.10755 0.0
H3313 H 0.74552 0.23438 0.10598 0.0
H3314 H 0.7945 0.33302 0.11226 0.0
H3315 H 0.77739 0.29785 0.10798 0.0
C3316 C 0.59434 0.00507 0.80167 0.0
C3317 C 0.6062 0.02128 0.79155 0.0
C3318 C 0.5802 0.01032 0.81803 0.0
C3319 C 0.55936 0.05606 0.8511 0.0
H3320 H 0.50429 0.02969 0.83488 0.0
C3321 C 0.47902 0.09932 0.85646 0.0
C3322 C 0.46013 0.08729 0.8601 0.0
C3323 C 0.49881 0.08918 0.85533 0.0
C3324 C 0.51954 0.03692 0.8401 0.0
H3325 H 0.61426 0.05534 0.79197 0.0
H3326 H 0.58911 0.06463 0.81988 0.0
H3327 H 0.53688 0.01485 0.82085 0.0
H3328 H 0.44739 0.05548 0.86702 0.0
H3329 H 0.48195 0.03786 0.86516 0.0
H3330 H 0.54158 0.07897 0.86938 0.0
C3331 C 0.59085 0.04783 0.81555 0.0
C3332 C 0.53834 0.02834 0.83207 0.0
C3333 C 0.60519 0.04253 0.79939 0.0
C3334 C 0.4616 0.06513 0.86376 0.0
C3335 C 0.48139 0.05503 0.86274 0.0
C3336 C 0.54047 0.06472 0.85911 0.0
C3337 C 0.57744 0.03191 0.82431 0.0
C3338 C 0.55842 0.03825 0.83683 0.0
C3339 C 0.50012 0.06684 0.85794 0.0
C3340 C 0.52033 0.05565 0.85306 0.0
H3341 H 0.59511 0.98848 0.79619 0.0
H3342 H 0.57049 -0.00239 0.82484 0.0
H3343 H 0.57462 0.06386 0.85535 0.0
H3344 H 0.47844 0.11645 0.85375 0.0
H3345 H 0.51289 0.0987 0.85134 0.0
C3346 C 0.94938 0.96822 0.26586 0.0
C3347 C 0.93247 0.98098 0.27305 0.0
C3348 C 0.96499 0.96118 0.28034 0.0
C3349 C 0.97339 0.94634 0.33548 0.0
H3350 H 0.03401 0.95382 0.32342 0.0
C3351 C 0.06291 0.92911 0.37399 0.0
C3352 C 0.06206 0.90661 0.37586 0.0
C3353 C 0.04569 0.93994 0.3649 0.0
C3354 C 0.01714 0.9518 0.32711 0.0
H3355 H 0.9186 -0.0036 0.30099 0.0
H3356 H 0.94584 0.98361 0.32645 0.0
H3357 H 0.00716 0.96996 0.29991 0.0
H3358 H 0.04171 0.87808 0.37136 0.0
H3359 H 0.01144 0.8972 0.35552 0.0
H3360 H 0.98346 0.92748 0.3623 0.0
C3361 C 0.94699 0.97931 0.30955 0.0
C3362 C 0.00184 0.9609 0.31361 0.0
C3363 C 0.93157 0.98672 0.29499 0.0
C3364 C 0.04293 0.89539 0.37 0.0
C3365 C 0.02558 0.90632 0.36102 0.0
C3366 C 0.98874 0.9369 0.34884 0.0
C3367 C 0.96377 0.96645 0.30232 0.0
C3368 C 0.97986 0.95811 0.31758 0.0
C3369 C 0.02718 0.92856 0.3577 0.0
C3370 C 0.01074 0.93949 0.34467 0.0
H3371 H 0.95048 0.96357 0.24905 0.0
H3372 H 0.97775 0.95117 0.27444 0.0
H3373 H 0.95647 0.94389 0.33872 0.0
H3374 H 0.07727 0.93832 0.37864 0.0
H3375 H 0.04715 0.95715 0.36278 0.0
C3376 C 0.44109 0.26037 0.19014 0.0
C3377 C 0.46011 0.26758 0.18047 0.0
C3378 C 0.43096 0.27317 0.2054 0.0
C3379 C 0.42392 0.29575 0.24799 0.0
H3380 H 0.41979 0.35773 0.24435 0.0
C3381 C 0.41598 0.34972 0.32231 0.0
C3382 C 0.40089 0.36624 0.3219 0.0
C3383 C 0.42049 0.33807 0.30369 0.0
C3384 C 0.42059 0.34041 0.24543 0.0
H3385 H 0.48297 0.2943 0.1788 0.0
H3386 H 0.4654 0.3165 0.20572 0.0
H3387 H 0.4324 0.33685 0.21342 0.0
H3388 H 0.37871 0.38354 0.30152 0.0
H3389 H 0.3869 0.36312 0.26862 0.0
H3390 H 0.4125 0.29926 0.28004 0.0
C3391 C 0.45824 0.30101 0.20127 0.0
C3392 C 0.42799 0.3285 0.22786 0.0
C3393 C 0.4684 0.28819 0.18598 0.0
C3394 C 0.39043 0.37092 0.30233 0.0
C3395 C 0.39514 0.35931 0.28353 0.0
C3396 C 0.41665 0.30763 0.26552 0.0
C3397 C 0.4396 0.29348 0.21137 0.0
C3398 C 0.43004 0.30609 0.22911 0.0
C3399 C 0.41011 0.34268 0.28414 0.0
C3400 C 0.41533 0.33009 0.26458 0.0
H3401 H 0.43406 0.24471 0.18612 0.0
H3402 H 0.41645 0.26707 0.21269 0.0
H3403 H 0.42549 0.27854 0.24954 0.0
H3404 H 0.4243 0.34562 0.33709 0.0
H3405 H 0.43233 0.32555 0.30455 0.0
C3406 C 0.44353 0.70251 0.89502 0.0
C3407 C 0.44289 0.72506 0.89516 0.0
C3408 C 0.43063 0.69078 0.90894 0.0
C3409 C 0.42193 0.67808 0.95469 0.0
H3410 H 0.36573 0.69302 0.97571 0.0
C3411 C 0.40155 0.67802 0.04374 0.0
C3412 C 0.38189 0.6687 0.04979 0.0
C3413 C 0.4061 0.68058 0.02206 0.0
C3414 C 0.3813 0.68841 0.96984 0.0
H3415 H 0.42646 0.75286 0.90782 0.0
H3416 H 0.40404 0.73248 0.93203 0.0
H3417 H 0.37646 0.70429 0.93987 0.0
H3418 H 0.35149 0.65492 0.03788 0.0
H3419 H 0.35938 0.6599 -0.00011 0.0
H3420 H 0.42724 0.66323 0.98503 0.0
C3421 C 0.41448 0.72377 0.92134 0.0
C3422 C 0.38744 0.69488 0.94941 0.0
C3423 C 0.42746 0.73549 0.90757 0.0
C3424 C 0.3668 0.66214 0.03371 0.0
C3425 C 0.37125 0.665 0.012 0.0
C3426 C 0.41588 0.67181 0.97513 0.0
C3427 C 0.4168 0.70145 0.92302 0.0
C3428 C 0.40811 0.6904 0.94195 0.0
C3429 C 0.391 0.6741 0.00601 0.0
C3430 C 0.39583 0.67758 0.98316 0.0
H3431 H 0.45517 0.69403 0.88548 0.0
H3432 H 0.43252 0.67354 0.90973 0.0
H3433 H 0.43805 0.67458 0.94953 0.0
H3434 H 0.41352 0.68314 0.05574 0.0
H3435 H 0.42134 0.68793 0.01783 0.0
C3436 C 0.04668 0.7075 0.68569 0.0
C3437 C 0.026 0.69791 0.68421 0.0
C3438 C 0.06046 0.70331 0.70304 0.0
C3439 C 0.09022 0.68229 0.73571 0.0
H3440 H 0.06533 0.67933 0.79229 0.0
C3441 C 0.12976 0.64079 0.80779 0.0
C3442 C 0.12546 0.64829 0.82871 0.0
C3443 C 0.12091 0.65085 0.78992 0.0
C3444 C 0.07265 0.68049 0.77668 0.0
H3445 H 0.0039 0.67585 0.69959 0.0
H3446 H 0.02804 0.66841 0.72973 0.0
H3447 H 0.04267 0.68798 0.76147 0.0
H3448 H 0.11039 0.67364 0.84716 0.0
H3449 H 0.09516 0.69136 0.81588 0.0
H3450 H 0.12021 0.67466 0.75099 0.0
C3451 C 0.03342 0.67947 0.71761 0.0
C3452 C 0.05957 0.68509 0.75896 0.0
C3453 C 0.01965 0.68362 0.70025 0.0
C3454 C 0.11383 0.66729 0.83129 0.0
C3455 C 0.10495 0.67736 0.81338 0.0
C3456 C 0.10333 0.67764 0.75347 0.0
C3457 C 0.05387 0.68948 0.71933 0.0
C3458 C 0.06811 0.68568 0.73823 0.0
C3459 C 0.10762 0.66868 0.79258 0.0
C3460 C 0.09461 0.67637 0.77411 0.0
H3461 H 0.05216 0.71859 0.67365 0.0
H3462 H 0.07606 0.71135 0.70397 0.0
H3463 H 0.09727 0.68259 0.71992 0.0
H3464 H 0.13884 0.62631 0.80521 0.0
H3465 H 0.12326 0.64372 0.77414 0.0
C3466 C 0.03323 0.28967 0.43545 0.0
C3467 C 0.04491 0.275 0.42323 0.0
C3468 C 0.04128 0.29725 0.45526 0.0
C3469 C 0.08125 0.28602 0.49833 0.0
H3470 H 0.07247 0.34602 0.51306 0.0
C3471 C 0.11112 0.35432 0.56554 0.0
C3472 C 0.10841 0.34268 0.58448 0.0
C3473 C 0.10415 0.34559 0.54573 0.0
C3474 C 0.07526 0.32929 0.5091 0.0
H3475 H 0.07332 0.25557 0.42226 0.0
H3476 H 0.0881 0.26948 0.45671 0.0
H3477 H 0.05885 0.33154 0.4789 0.0
H3478 H 0.09628 0.31274 0.59746 0.0
H3479 H 0.08387 0.29768 0.56289 0.0
H3480 H 0.09782 0.28395 0.5287 0.0
C3481 C 0.07262 0.27506 0.45114 0.0
C3482 C 0.06726 0.3209 0.48956 0.0
C3483 C 0.06433 0.26722 0.4314 0.0
C3484 C 0.09865 0.32212 0.58317 0.0
C3485 C 0.09168 0.31341 0.56335 0.0
C3486 C 0.08924 0.29443 0.51794 0.0
C3487 C 0.06124 0.29031 0.46322 0.0
C3488 C 0.07012 0.29917 0.48393 0.0
C3489 C 0.0943 0.32509 0.54445 0.0
C3490 C 0.08628 0.31615 0.52352 0.0
H3491 H 0.01781 0.29528 0.42965 0.0
H3492 H 0.03179 0.3085 0.46436 0.0
H3493 H 0.08349 0.26914 0.49465 0.0
H3494 H 0.11865 0.37017 0.56597 0.0
H3495 H 0.10661 0.35486 0.53138 0.0
C3496 C 0.46312 0.72225 0.33254 0.0
C3497 C 0.47973 0.71132 0.3429 0.0
C3498 C 0.45359 0.71382 0.31374 0.0
C3499 C 0.4643 0.67932 0.26745 0.0
H3500 H 0.40256 0.6823 0.25816 0.0
C3501 C 0.39585 0.65381 0.19892 0.0
C3502 C 0.40564 0.6623 0.18065 0.0
C3503 C 0.40475 0.6579 0.21938 0.0
C3504 C 0.41979 0.68114 0.2606 0.0
H3505 H 0.50041 0.68382 0.34144 0.0
H3506 H 0.48357 0.66873 0.30826 0.0
H3507 H 0.41821 0.69199 0.29331 0.0
H3508 H 0.43234 0.68188 0.16955 0.0
H3509 H 0.44775 0.68911 0.20533 0.0
H3510 H 0.46587 0.66881 0.23455 0.0
C3511 C 0.47772 0.68368 0.31491 0.0
C3512 C 0.42876 0.6868 0.28067 0.0
C3513 C 0.48728 0.69219 0.33383 0.0
C3514 C 0.4244 0.67511 0.18329 0.0
C3515 C 0.43335 0.67909 0.20374 0.0
C3516 C 0.45534 0.67378 0.24732 0.0
C3517 C 0.46076 0.69444 0.30473 0.0
C3518 C 0.45112 0.68626 0.28419 0.0
C3519 C 0.42365 0.67046 0.22196 0.0
C3520 C 0.43303 0.67495 0.24363 0.0
H3521 H 0.45766 0.7375 0.3389 0.0
H3522 H 0.44093 0.72274 0.30598 0.0
H3523 H 0.48161 0.67894 0.26967 0.0
H3524 H 0.38138 0.64388 0.19743 0.0
H3525 H 0.39701 0.65098 0.23317 0.0
C3526 C 0.04624 0.68714 0.09012 0.0
C3527 C 0.05536 0.70803 0.0899 0.0
C3528 C 0.05033 0.67229 0.07363 0.0
C3529 C 0.0644 0.67112 0.01688 0.0
H3530 H 0.07737 0.61113 0.02554 0.0
C3531 C 0.10726 0.60303 0.96543 0.0
C3532 C 0.09773 0.60688 0.94522 0.0
C3533 C 0.09799 0.61084 0.98421 0.0
C3534 C 0.07358 0.6278 0.0229 0.0
H3535 H 0.07689 0.72922 0.07272 0.0
H3536 H 0.08404 0.70327 0.04404 0.0
H3537 H 0.07159 0.63487 0.0567 0.0
H3538 H 0.0696 0.61957 0.92905 0.0
H3539 H 0.05333 0.63306 0.9619 0.0
H3540 H 0.06698 0.66442 0.98325 0.0
C3541 C 0.07347 0.69854 0.05684 0.0
C3542 C 0.07025 0.64136 0.0407 0.0
C3543 C 0.0695 0.71335 0.07338 0.0
C3544 C 0.07747 0.61649 0.94434 0.0
C3545 C 0.06822 0.62439 0.96315 0.0
C3546 C 0.06756 0.65759 -0.00086 0.0
C3547 C 0.06351 0.67806 0.05653 0.0
C3548 C 0.06607 0.66325 0.03784 0.0
C3549 C 0.079 0.62267 0.98311 0.0
C3550 C 0.07253 0.63587 0.00194 0.0
H3551 H 0.03535 0.68243 0.10266 0.0
H3552 H 0.04244 0.65662 0.0738 0.0
H3553 H 0.06083 0.68784 0.01417 0.0
H3554 H 0.12277 0.59545 0.96665 0.0
H3555 H 0.10668 0.60921 -0.00068 0.0
C3556 C 0.05286 0.31026 0.86593 0.0
C3557 C 0.03078 0.30971 0.86064 0.0
C3558 C 0.0672 0.32232 0.85378 0.0
C3559 C 0.07119 0.36144 0.80931 0.0
H3560 H 0.11343 0.32192 0.78744 0.0
C3561 C 0.11728 0.37844 0.73188 0.0
C3562 C 0.11485 0.36152 0.71662 0.0
C3563 C 0.11246 0.37516 0.75344 0.0
C3564 C 0.10191 0.33325 0.79355 0.0
H3565 H 0.0061 0.32328 0.84018 0.0
H3566 H 0.03104 0.34421 0.81897 0.0
H3567 H 0.09388 0.31315 0.81977 0.0
H3568 H 0.10691 0.3276 0.7123 0.0
H3569 H 0.09861 0.32188 0.74987 0.0
H3570 H 0.07829 0.38085 0.7822 0.0
C3571 C 0.03737 0.33535 0.83244 0.0
C3572 C 0.09086 0.32837 0.8122 0.0
C3573 C 0.02305 0.32324 0.84453 0.0
C3574 C 0.10882 0.34098 0.72361 0.0
C3575 C 0.10421 0.33767 0.74519 0.0
C3576 C 0.08234 0.36639 0.79069 0.0
C3577 C 0.05968 0.33412 0.83622 0.0
C3578 C 0.07475 0.34198 0.81979 0.0
C3579 C 0.10541 0.35485 0.7602 0.0
C3580 C 0.09716 0.35189 0.78215 0.0
H3581 H 0.05929 0.30016 0.87842 0.0
H3582 H 0.08429 0.32137 0.85727 0.0
H3583 H 0.059 0.37232 0.81489 0.0
H3584 H 0.12199 0.39446 0.72705 0.0
H3585 H 0.11368 0.38863 0.76472 0.0
C3586 C 0.48568 0.30984 0.5731 0.0
C3587 C 0.475 0.29507 0.58619 0.0
C3588 C 0.47408 0.32385 0.56034 0.0
C3589 C 0.42066 0.33091 0.53514 0.0
H3590 H 0.44545 0.38684 0.52237 0.0
C3591 C 0.38482 0.3833 0.46902 0.0
C3592 C 0.39995 0.38584 0.45272 0.0
C3593 C 0.39149 0.37717 0.48957 0.0
C3594 C 0.4382 0.3714 0.52604 0.0
H3595 H 0.44371 0.28357 0.59631 0.0
H3596 H 0.42335 0.30841 0.57422 0.0
H3597 H 0.46153 0.36548 0.55078 0.0
H3598 H 0.43385 0.38591 0.44539 0.0
H3599 H 0.44557 0.37586 0.48143 0.0
H3600 H 0.39757 0.3368 0.51007 0.0
C3601 C 0.44074 0.30887 0.57358 0.0
C3602 C 0.44749 0.35905 0.54212 0.0
C3603 C 0.4524 0.29462 0.58622 0.0
C3604 C 0.42192 0.38399 0.45772 0.0
C3605 C 0.4286 0.37835 0.47833 0.0
C3606 C 0.41118 0.34342 0.51928 0.0
C3607 C 0.45147 0.32369 0.56051 0.0
C3608 C 0.43938 0.33828 0.54623 0.0
C3609 C 0.4134 0.37404 0.49417 0.0
C3610 C 0.42037 0.3634 0.51407 0.0
H3611 H 0.50308 0.3105 0.57257 0.0
H3612 H 0.48291 0.33458 0.55004 0.0
H3613 H 0.41405 0.31497 0.53773 0.0
H3614 H 0.36776 0.3845 0.46548 0.0
H3615 H 0.37951 0.37393 0.50157 0.0
C3616 C 0.19317 0.43917 0.24862 0.0
C3617 C 0.17609 0.44984 0.25827 0.0
C3618 C 0.20765 0.42763 0.2611 0.0
C3619 C 0.2269 0.42284 0.3176 0.0
H3620 H 0.25803 0.37507 0.2932 0.0
C3621 C 0.29644 0.38415 0.36358 0.0
C3622 C 0.31558 0.38824 0.35264 0.0
C3623 C 0.2766 0.38571 0.35282 0.0
C3624 C 0.2492 0.38818 0.30028 0.0
H3625 H 0.16008 0.45609 0.28834 0.0
H3626 H 0.18471 0.43522 0.31004 0.0
H3627 H 0.22777 0.38988 0.27312 0.0
H3628 H 0.32936 0.39524 0.32176 0.0
H3629 H 0.29472 0.3973 0.30281 0.0
H3630 H 0.24846 0.42106 0.34471 0.0
C3631 C 0.18755 0.43639 0.29298 0.0
C3632 C 0.23207 0.39688 0.28872 0.0
C3633 C 0.17339 0.44834 0.28055 0.0
C3634 C 0.31474 0.39213 0.3305 0.0
C3635 C 0.29499 0.39316 0.31966 0.0
C3636 C 0.24371 0.41384 0.32931 0.0
C3637 C 0.20505 0.42609 0.28348 0.0
C3638 C 0.22118 0.41482 0.29692 0.0
C3639 C 0.27578 0.39079 0.33091 0.0
C3640 C 0.25539 0.39691 0.32045 0.0
H3641 H 0.19562 0.44012 0.23145 0.0
H3642 H 0.22115 0.42037 0.25322 0.0
H3643 H 0.21922 0.43681 0.32439 0.0
H3644 H 0.29675 0.38121 0.3807 0.0
H3645 H 0.26192 0.38389 0.36177 0.0
C3646 C 0.27969 0.43403 0.0424 0.0
C3647 C 0.28808 0.42472 0.02379 0.0
C3648 C 0.28768 0.45394 0.05002 0.0
C3649 C 0.29828 0.50141 0.05544 0.0
H3650 H 0.35903 0.51532 0.05044 0.0
C3651 C 0.33208 0.58629 0.07436 0.0
C3652 C 0.35115 0.5876 0.08684 0.0
C3653 C 0.32488 0.56662 0.06552 0.0
C3654 C 0.34206 0.51162 0.05207 0.0
H3655 H 0.30986 0.42916 -0.00256 0.0
H3656 H 0.32353 0.46412 0.01035 0.0
H3657 H 0.34531 0.48021 0.03831 0.0
H3658 H 0.37807 0.56947 0.09915 0.0
H3659 H 0.36533 0.53512 0.08396 0.0
H3660 H 0.29514 0.5327 0.06965 0.0
C3661 C 0.31156 0.45581 0.0197 0.0
C3662 C 0.33415 0.49156 0.04496 0.0
C3663 C 0.30376 0.43585 0.01229 0.0
C3664 C 0.36328 0.569 0.08964 0.0
C3665 C 0.35604 0.54932 0.08085 0.0
C3666 C 0.3062 0.52146 0.0626 0.0
C3667 C 0.30374 0.46502 0.03874 0.0
C3668 C 0.31217 0.48622 0.04658 0.0
C3669 C 0.33659 0.54788 0.06901 0.0
C3670 C 0.32817 0.52677 0.06097 0.0
H3671 H 0.26728 0.42574 0.05122 0.0
H3672 H 0.28144 0.46052 0.06483 0.0
H3673 H 0.28122 0.49793 0.05663 0.0
H3674 H 0.32246 0.60037 0.07173 0.0
H3675 H 0.31005 0.56606 0.05609 0.0
C3676 C 0.36302 0.56341 0.82268 0.0
C3677 C 0.3592 0.54113 0.82051 0.0
C3678 C 0.34946 0.57606 0.8351 0.0
C3679 C 0.30602 0.59641 0.84157 0.0
H3680 H 0.27562 0.57709 0.89169 0.0
C3681 C 0.21562 0.60644 0.85258 0.0
C3682 C 0.20746 0.60771 0.87344 0.0
C3683 C 0.23775 0.60477 0.84956 0.0
C3684 C 0.28414 0.58311 0.87795 0.0
H3685 H 0.33985 0.51429 0.83148 0.0
H3686 H 0.3163 0.53622 0.8531 0.0
H3687 H 0.30998 0.56141 0.88294 0.0
H3688 H 0.21612 0.61043 0.90737 0.0
H3689 H 0.25468 0.60779 0.90206 0.0
H3690 H 0.27976 0.61752 0.83611 0.0
C3691 C 0.32964 0.54405 0.84523 0.0
C3692 C 0.30376 0.57397 0.87286 0.0
C3693 C 0.34308 0.53145 0.83273 0.0
C3694 C 0.22192 0.60904 0.8911 0.0
C3695 C 0.24401 0.6075 0.88808 0.0
C3696 C 0.28638 0.60556 0.84666 0.0
C3697 C 0.33203 0.56657 0.84568 0.0
C3698 C 0.31444 0.57987 0.85412 0.0
C3699 C 0.2521 0.60451 0.86735 0.0
C3700 C 0.27481 0.59837 0.8644 0.0
H3701 H 0.37542 0.57132 0.81353 0.0
H3702 H 0.35185 0.59336 0.83541 0.0
H3703 H 0.31378 0.60123 0.82693 0.0
H3704 H 0.20488 0.60546 0.83866 0.0
H3705 H 0.24344 0.60231 0.83337 0.0
C3706 C 0.20194 0.57514 0.58118 0.0
C3707 C 0.19711 0.58828 0.56367 0.0
C3708 C 0.18695 0.55983 0.588 0.0
C3709 C 0.14914 0.53388 0.60463 0.0
H3710 H 0.12451 0.49743 0.55885 0.0
C3711 C 0.10683 0.45459 0.62431 0.0
C3712 C 0.11666 0.43728 0.6138 0.0
C3713 C 0.10959 0.4755 0.61679 0.0
C3714 C 0.13103 0.50762 0.57181 0.0
H3715 H 0.17224 0.59626 0.54026 0.0
H3716 H 0.14621 0.5696 0.55222 0.0
H3717 H 0.14423 0.53022 0.54995 0.0
H3718 H 0.13501 0.42782 0.58602 0.0
H3719 H 0.13969 0.46409 0.57285 0.0
H3720 H 0.13708 0.5106 0.62642 0.0
C3721 C 0.16168 0.57098 0.56049 0.0
C3722 C 0.14222 0.52647 0.56673 0.0
C3723 C 0.17663 0.5863 0.55369 0.0
C3724 C 0.1274 0.44091 0.59452 0.0
C3725 C 0.12997 0.46171 0.58691 0.0
C3726 C 0.13789 0.51507 0.6097 0.0
C3727 C 0.16681 0.55733 0.57746 0.0
C3728 C 0.15203 0.53939 0.58307 0.0
C3729 C 0.12197 0.47932 0.59852 0.0
C3730 C 0.12939 0.50136 0.5933 0.0
H3731 H 0.21749 0.57628 0.58931 0.0
H3732 H 0.19148 0.54937 0.60099 0.0
H3733 H 0.15626 0.5437 0.61756 0.0
H3734 H 0.09844 0.45226 0.63922 0.0
H3735 H 0.10304 0.48877 0.6259 0.0
C3736 C 0.18637 0.51847 0.18058 0.0
C3737 C 0.17336 0.52333 0.19819 0.0
C3738 C 0.20223 0.53308 0.17419 0.0
C3739 C 0.22124 0.58979 0.17941 0.0
H3740 H 0.27695 0.56505 0.1692 0.0
C3741 C 0.31678 0.61441 0.16853 0.0
C3742 C 0.31531 0.62953 0.1521 0.0
C3743 C 0.29834 0.60412 0.17594 0.0
C3744 C 0.26155 0.57225 0.17222 0.0
H3745 H 0.16621 0.54787 0.22221 0.0
H3746 H 0.19397 0.57313 0.21114 0.0
H3747 H 0.24648 0.54161 0.17685 0.0
H3748 H 0.29324 0.64711 0.13187 0.0
H3749 H 0.26092 0.62893 0.14477 0.0
H3750 H 0.23659 0.62053 0.17501 0.0
C3751 C 0.19182 0.55809 0.20222 0.0
C3752 C 0.244 0.55878 0.17626 0.0
C3753 C 0.176 0.5435 0.20865 0.0
C3754 C 0.29487 0.63553 0.14456 0.0
C3755 C 0.27636 0.6251 0.15193 0.0
C3756 C 0.23885 0.60332 0.17527 0.0
C3757 C 0.20539 0.55286 0.18521 0.0
C3758 C 0.22367 0.56736 0.17995 0.0
C3759 C 0.27805 0.60863 0.167 0.0
C3760 C 0.25922 0.59467 0.1718 0.0
H3761 H 0.18468 0.50318 0.17203 0.0
H3762 H 0.21225 0.52876 0.16078 0.0
H3763 H 0.20571 0.59684 0.18209 0.0
H3764 H 0.33231 0.6097 0.17486 0.0
H3765 H 0.30007 0.5919 0.18801 0.0
C3766 C 0.24281 0.41107 0.93215 0.0
C3767 C 0.23486 0.3944 0.94482 0.0
C3768 C 0.22878 0.42306 0.91966 0.0
C3769 C 0.17398 0.4411 0.92372 0.0
H3770 H 0.19063 0.47448 0.87455 0.0
C3771 C 0.15326 0.52497 0.87672 0.0
C3772 C 0.15231 0.5386 0.89495 0.0
C3773 C 0.1575 0.50318 0.8789 0.0
C3774 C 0.18536 0.46507 0.88801 0.0
H3775 H 0.20641 0.37553 0.95248 0.0
H3776 H 0.18188 0.39642 0.93046 0.0
H3777 H 0.20947 0.44162 0.88259 0.0
H3778 H 0.15372 0.53988 0.92981 0.0
H3779 H 0.16172 0.50199 0.93365 0.0
H3780 H 0.15027 0.46488 0.9295 0.0
C3781 C 0.19889 0.4005 0.93054 0.0
C3782 C 0.19631 0.44632 0.89271 0.0
C3783 C 0.21296 0.3885 0.94307 0.0
C3784 C 0.15446 0.52979 0.91546 0.0
C3785 C 0.15886 0.50801 0.91765 0.0
C3786 C 0.16295 0.45979 0.91896 0.0
C3787 C 0.20652 0.41856 0.91957 0.0
C3788 C 0.19144 0.43472 0.9112 0.0
C3789 C 0.16099 0.49459 0.89936 0.0
C3790 C 0.1692 0.47251 0.90165 0.0
H3791 H 0.25965 0.41588 0.93303 0.0
H3792 H 0.23523 0.43694 0.91152 0.0
H3793 H 0.16984 0.43261 0.93816 0.0
H3794 H 0.15125 0.53122 0.86068 0.0
H3795 H 0.15865 0.49319 0.86453 0.0
C3796 C 0.31913 0.48176 0.7474 0.0
C3797 C 0.33068 0.49812 0.73727 0.0
C3798 C 0.29933 0.4746 0.73903 0.0
C3799 C 0.26895 0.46968 0.68878 0.0
H3800 H 0.22204 0.45462 0.72625 0.0
C3801 C 0.20024 0.41055 0.6634 0.0
C3802 C 0.17928 0.41595 0.66926 0.0
C3803 C 0.2179 0.42276 0.67114 0.0
C3804 C 0.23489 0.45894 0.71554 0.0
H3805 H 0.3303 0.52106 0.71158 0.0
H3806 H 0.29543 0.50817 0.69641 0.0
H3807 H 0.25379 0.47354 0.74113 0.0
H3808 H 0.16044 0.43835 0.68794 0.0
H3809 H 0.19128 0.45957 0.70143 0.0
H3810 H 0.25012 0.45476 0.66324 0.0
C3811 C 0.30191 0.50072 0.71068 0.0
C3812 C 0.2531 0.46963 0.72408 0.0
C3813 C 0.32172 0.50809 0.71929 0.0
C3814 C 0.17637 0.43371 0.68313 0.0
C3815 C 0.19402 0.44586 0.69091 0.0
C3816 C 0.25076 0.45884 0.68025 0.0
C3817 C 0.29066 0.48377 0.72041 0.0
C3818 C 0.27043 0.47478 0.71085 0.0
C3819 C 0.21495 0.44053 0.68496 0.0
C3820 C 0.23369 0.45312 0.69362 0.0
H3821 H 0.32561 0.47427 0.76166 0.0
H3822 H 0.29115 0.46138 0.74674 0.0
H3823 H 0.28215 0.47334 0.67827 0.0
H3824 H 0.20304 0.39695 0.65274 0.0
H3825 H 0.2339 0.4181 0.66655 0.0
C3826 C 0.26279 0.57621 0.48308 0.0
C3827 C 0.27133 0.58496 0.50249 0.0
C3828 C 0.27508 0.5625 0.47037 0.0
C3829 C 0.30799 0.541 0.44164 0.0
H3830 H 0.34071 0.49875 0.47273 0.0
C3831 C 0.35757 0.47346 0.40023 0.0
C3832 C 0.35279 0.453 0.40831 0.0
C3833 C 0.35028 0.49196 0.41084 0.0
C3834 C 0.33177 0.51053 0.46381 0.0
H3835 H 0.29981 0.5868 0.52331 0.0
H3836 H 0.32117 0.56347 0.50106 0.0
H3837 H 0.32195 0.52632 0.49258 0.0
H3838 H 0.33718 0.43592 0.43408 0.0
H3839 H 0.32466 0.4678 0.45229 0.0
H3840 H 0.31707 0.5242 0.41285 0.0
C3841 C 0.30484 0.56666 0.49588 0.0
C3842 C 0.32114 0.52647 0.47517 0.0
C3843 C 0.29253 0.58009 0.50865 0.0
C3844 C 0.34105 0.45141 0.42731 0.0
C3845 C 0.334 0.46972 0.4379 0.0
C3846 C 0.31864 0.52492 0.43022 0.0
C3847 C 0.2962 0.55746 0.47674 0.0
C3848 C 0.30879 0.54166 0.46428 0.0
C3849 C 0.33847 0.49017 0.42982 0.0
C3850 C 0.33016 0.50923 0.44128 0.0
H3851 H 0.24655 0.57971 0.47783 0.0
H3852 H 0.26784 0.55546 0.45584 0.0
H3853 H 0.29887 0.55268 0.43277 0.0
H3854 H 0.36658 0.47514 0.3856 0.0
H3855 H 0.35394 0.5076 0.40433 0.0
C3856 C 0.29719 0.18994 0.46524 0.0
C3857 C 0.27931 0.17953 0.45527 0.0
C3858 C 0.31046 0.2036 0.45352 0.0
C3859 C 0.30799 0.23641 0.40474 0.0
H3860 H 0.36715 0.25002 0.42149 0.0
C3861 C 0.34294 0.32019 0.39965 0.0
C3862 C 0.36452 0.32395 0.39439 0.0
C3863 C 0.33487 0.29939 0.40153 0.0
C3864 C 0.35082 0.24609 0.41623 0.0
H3865 H 0.26212 0.17413 0.42491 0.0
H3866 H 0.28569 0.1971 0.40432 0.0
H3867 H 0.34942 0.21802 0.4356 0.0
H3868 H 0.39447 0.30885 0.38621 0.0
H3869 H 0.38023 0.27189 0.38985 0.0
H3870 H 0.3093 0.26451 0.38558 0.0
C3871 C 0.28907 0.19547 0.42134 0.0
C3872 C 0.34052 0.22796 0.42458 0.0
C3873 C 0.27556 0.18223 0.43316 0.0
C3874 C 0.37777 0.30635 0.39031 0.0
C3875 C 0.36967 0.28529 0.39246 0.0
C3876 C 0.31833 0.2543 0.39625 0.0
C3877 C 0.30637 0.2068 0.43146 0.0
C3878 C 0.31868 0.22344 0.41966 0.0
C3879 C 0.34814 0.28169 0.39826 0.0
C3880 C 0.33948 0.25991 0.40271 0.0
H3881 H 0.3005 0.18813 0.48227 0.0
H3882 H 0.32338 0.21228 0.462 0.0
H3883 H 0.29117 0.23366 0.40059 0.0
H3884 H 0.33227 0.33343 0.40269 0.0
H3885 H 0.31834 0.29722 0.4064 0.0
C3886 C 0.81565 0.35682 0.51658 0.0
C3887 C 0.80066 0.367 0.52969 0.0
C3888 C 0.83067 0.3431 0.52559 0.0
C3889 C 0.85052 0.31837 0.57604 0.0
H3890 H 0.83648 0.26548 0.5443 0.0
C3891 C 0.84272 0.22162 0.58907 0.0
C3892 C 0.86403 0.21546 0.59289 0.0
C3893 C 0.83827 0.2428 0.58391 0.0
C3894 C 0.84058 0.28014 0.55328 0.0
H3895 H 0.79152 0.37346 0.56261 0.0
H3896 H 0.81737 0.34903 0.5783 0.0
H3897 H 0.82671 0.29968 0.5292 0.0
H3898 H 0.89715 0.22696 0.59619 0.0
H3899 H 0.88917 0.26417 0.58734 0.0
H3900 H 0.864 0.29824 0.60039 0.0
C3901 C 0.81769 0.35168 0.56114 0.0
C3902 C 0.83532 0.29976 0.54451 0.0
C3903 C 0.80281 0.36563 0.55214 0.0
C3904 C 0.88059 0.23122 0.59305 0.0
C3905 C 0.87607 0.2525 0.58815 0.0
C3906 C 0.85611 0.29858 0.58472 0.0
C3907 C 0.83064 0.33916 0.54776 0.0
C3908 C 0.83985 0.31908 0.55592 0.0
C3909 C 0.85499 0.25821 0.5828 0.0
C3910 C 0.85064 0.27935 0.57358 0.0
H3911 H 0.81458 0.35795 0.49923 0.0
H3912 H 0.84087 0.334 0.51498 0.0
H3913 H 0.85408 0.33304 0.58518 0.0
H3914 H 0.82961 0.2099 0.58894 0.0
H3915 H 0.82185 0.247 0.57996 0.0
C3916 C 0.43263 0.0376 0.25629 0.0
C3917 C 0.42392 0.01909 0.26554 0.0
C3918 C 0.45196 0.0466 0.26445 0.0
C3919 C 0.50135 0.0336 0.29305 0.0
H3920 H 0.5011 0.09179 0.31642 0.0
C3921 C 0.57007 0.0657 0.34833 0.0
C3922 C 0.5761 0.08745 0.34705 0.0
C3923 C 0.55166 0.05783 0.33741 0.0
C3924 C 0.50165 0.07567 0.30963 0.0
H3925 H 0.42892 0.99435 0.28904 0.0
H3926 H 0.46288 0.00981 0.30303 0.0
H3927 H 0.46941 0.07735 0.29706 0.0
H3928 H 0.5679 0.11805 0.33323 0.0
H3929 H 0.53638 0.10422 0.31346 0.0
H3930 H 0.53367 0.0319 0.3049 0.0
C3931 C 0.45466 0.01765 0.28991 0.0
C3932 C 0.48345 0.06743 0.29862 0.0
C3933 C 0.43522 0.00896 0.28208 0.0
C3934 C 0.56343 0.10123 0.33472 0.0
C3935 C 0.5453 0.09329 0.32344 0.0
C3936 C 0.51971 0.04196 0.30362 0.0
C3937 C 0.46305 0.03666 0.28134 0.0
C3938 C 0.48304 0.04621 0.29065 0.0
C3939 C 0.53918 0.07148 0.3246 0.0
C3940 C 0.51997 0.06297 0.31242 0.0
H3941 H 0.42423 0.04534 0.24322 0.0
H3942 H 0.45829 0.06124 0.25758 0.0
H3943 H 0.50138 0.01722 0.28682 0.0
H3944 H 0.57953 0.05479 0.35785 0.0
H3945 H 0.54719 0.04105 0.33911 0.0
C3946 C 0.71372 0.67274 0.03923 0.0
C3947 C 0.70306 0.67 0.01916 0.0
C3948 C 0.70815 0.68933 0.05335 0.0
C3949 C 0.68339 0.74235 0.05335 0.0
H3950 H 0.68049 0.73496 0.11504 0.0
C3951 C 0.64747 0.79148 0.12913 0.0
C3952 C 0.65401 0.81231 0.12336 0.0
C3953 C 0.65606 0.7735 0.11886 0.0
C3954 C 0.68124 0.73724 0.09785 0.0
H3955 H 0.67762 0.68214 -0.00139 0.0
H3956 H 0.66782 0.71097 0.02336 0.0
H3957 H 0.68841 0.70417 0.09167 0.0
H3958 H 0.67623 0.83061 0.10403 0.0
H3959 H 0.69154 0.79927 0.08651 0.0
H3960 H 0.67568 0.77516 0.0593 0.0
C3961 C 0.68074 0.70048 0.02797 0.0
C3962 C 0.6859 0.71967 0.08449 0.0
C3963 C 0.6863 0.68388 0.01382 0.0
C3964 C 0.67062 0.81476 0.10856 0.0
C3965 C 0.67929 0.79682 0.09843 0.0
C3966 C 0.67878 0.75986 0.06665 0.0
C3967 C 0.69181 0.70356 0.04774 0.0
C3968 C 0.68688 0.72204 0.06208 0.0
C3969 C 0.67143 0.77606 0.10277 0.0
C3970 C 0.6776 0.75752 0.08904 0.0
H3971 H 0.7267 0.66235 0.04392 0.0
H3972 H 0.7171 0.6914 0.06839 0.0
H3973 H 0.68434 0.74478 0.03619 0.0
H3974 H 0.6347 0.78907 0.1405 0.0
H3975 H 0.64965 0.75771 0.12255 0.0
C3976 C 0.57096 0.49427 0.285 0.0
C3977 C 0.56974 0.51656 0.28221 0.0
C3978 C 0.55646 0.48362 0.29815 0.0
C3979 C 0.51644 0.49391 0.34098 0.0
H3980 H 0.49776 0.43556 0.32628 0.0
C3981 C 0.43879 0.45107 0.36865 0.0
C3982 C 0.44039 0.42961 0.375 0.0
C3983 C 0.45687 0.46229 0.36158 0.0
C3984 C 0.50313 0.45174 0.33076 0.0
H3985 H 0.55197 0.54509 0.29042 0.0
H3986 H 0.52587 0.52636 0.31239 0.0
H3987 H 0.52356 0.45381 0.3037 0.0
H3988 H 0.46217 0.40334 0.38006 0.0
H3989 H 0.49385 0.42289 0.36706 0.0
H3990 H 0.49474 0.49202 0.36734 0.0
C3991 C 0.53854 0.51716 0.30516 0.0
C3992 C 0.51795 0.46224 0.31784 0.0
C3993 C 0.55334 0.52789 0.29234 0.0
C3994 C 0.46061 0.41995 0.37543 0.0
C3995 C 0.47863 0.43104 0.36788 0.0
C3996 C 0.50127 0.48351 0.35366 0.0
C3997 C 0.54008 0.49492 0.3085 0.0
C3998 C 0.52471 0.48354 0.32266 0.0
C3999 C 0.47673 0.45207 0.36032 0.0
C4000 C 0.49444 0.46238 0.34857 0.0
H4001 H 0.58365 0.48514 0.27768 0.0
H4002 H 0.55848 0.46659 0.30059 0.0
H4003 H 0.52159 0.51011 0.34553 0.0
H4004 H 0.42333 0.4588 0.36816 0.0
H4005 H 0.455 0.47845 0.3557 0.0
C4006 C 0.22442 0.81741 0.97476 0.0
C4007 C 0.21193 0.82978 0.98859 0.0
C4008 C 0.2166 0.79772 0.96665 0.0
C4009 C 0.17489 0.75544 0.97546 0.0
H4010 H 0.1902 0.73794 0.91763 0.0
C4011 C 0.13831 0.68102 0.92958 0.0
C4012 C 0.15353 0.66701 0.92097 0.0
C4013 C 0.1448 0.70108 0.9381 0.0
C4014 C 0.18588 0.74264 0.93382 0.0
H4015 H 0.18215 0.83121 0.00586 0.0
H4016 H 0.16774 0.79714 0.99082 0.0
H4017 H 0.20223 0.77292 0.93181 0.0
H4018 H 0.18734 0.66296 0.91432 0.0
H4019 H 0.19857 0.6983 0.92882 0.0
H4020 H 0.15813 0.72509 0.97707 0.0
C4021 C 0.18372 0.80239 0.9864 0.0
C4022 C 0.19282 0.76264 0.94202 0.0
C4023 C 0.1918 0.82195 0.99486 0.0
C4024 C 0.1753 0.67343 0.92093 0.0
C4025 C 0.18171 0.69363 0.9291 0.0
C4026 C 0.16768 0.73554 0.9671 0.0
C4027 C 0.19602 0.79006 0.97211 0.0
C4028 C 0.18765 0.7692 0.96306 0.0
C4029 C 0.16651 0.70757 0.93776 0.0
C4030 C 0.17335 0.72892 0.94633 0.0
H4031 H 0.24034 0.82295 0.97034 0.0
H4032 H 0.22683 0.78844 0.95625 0.0
H4033 H 0.17088 0.75975 0.99183 0.0
H4034 H 0.12143 0.67643 0.92991 0.0
H4035 H 0.13282 0.71165 0.94464 0.0
C4036 C 0.39442 0.92756 0.20274 0.0
C4037 C 0.39762 0.93269 0.22467 0.0
C4038 C 0.40753 0.91257 0.1926 0.0
C4039 C 0.45242 0.87434 0.20319 0.0
H4040 H 0.47667 0.9005 0.15275 0.0
C4041 C 0.54192 0.87743 0.18486 0.0
C4042 C 0.54845 0.87157 0.16412 0.0
C4043 C 0.52012 0.87863 0.18944 0.0
C4044 C 0.46981 0.89271 0.16654 0.0
H4045 H 0.41537 0.92459 0.25367 0.0
H4046 H 0.43838 0.89913 0.23615 0.0
H4047 H 0.44228 0.91263 0.1659 0.0
H4048 H 0.53741 0.86244 0.13187 0.0
H4049 H 0.49905 0.86549 0.13977 0.0
H4050 H 0.48115 0.85589 0.20481 0.0
C4051 C 0.42578 0.90631 0.22659 0.0
C4052 C 0.45001 0.89954 0.17405 0.0
C4053 C 0.41268 0.92115 0.23668 0.0
C4054 C 0.53276 0.86698 0.148 0.0
C4055 C 0.51091 0.86866 0.15249 0.0
C4056 C 0.47239 0.86782 0.19589 0.0
C4057 C 0.42406 0.90254 0.20425 0.0
C4058 C 0.44158 0.89116 0.19308 0.0
C4059 C 0.50446 0.87439 0.17327 0.0
C4060 C 0.4816 0.8776 0.17804 0.0
H4061 H 0.38277 0.93607 0.19313 0.0
H4062 H 0.40549 0.90971 0.17545 0.0
H4063 H 0.44613 0.86714 0.21755 0.0
H4064 H 0.55367 0.88088 0.19762 0.0
H4065 H 0.51547 0.88339 0.20552 0.0
C4066 C 0.06906 0.07813 0.71793 0.0
C4067 C 0.08473 0.06334 0.71185 0.0
C4068 C 0.05264 0.08348 0.7035 0.0
C4069 C 0.03537 0.0822 0.64645 0.0
H4070 H 0.97833 0.07996 0.67055 0.0
C4071 C 0.93895 0.09003 0.62253 0.0
C4072 C 0.93983 0.11001 0.61238 0.0
C4073 C 0.95774 0.081 0.63069 0.0
C4074 C 0.9941 0.08029 0.66346 0.0
H4075 H 0.09629 0.0438 0.6853 0.0
H4076 H 0.06763 0.05323 0.66021 0.0
H4077 H 0.00949 0.073 0.69338 0.0
H4078 H 0.96127 0.13484 0.60049 0.0
H4079 H 0.9939 0.11918 0.61483 0.0
H4080 H 0.01984 0.0897 0.61651 0.0
C4081 C 0.06801 0.06057 0.67615 0.0
C4082 C 0.01198 0.07668 0.67664 0.0
C4083 C 0.08438 0.05512 0.69059 0.0
C4084 C 0.96003 0.11958 0.60852 0.0
C4085 C 0.97878 0.11053 0.61663 0.0
C4086 C 0.01743 0.08595 0.63324 0.0
C4087 C 0.05162 0.07428 0.68268 0.0
C4088 C 0.0328 0.07788 0.66836 0.0
C4089 C 0.97769 0.09173 0.62872 0.0
C4090 C -0.00338 0.08522 0.64169 0.0
H4091 H 0.0689 0.08487 0.73411 0.0
H4092 H 0.0404 0.09444 0.7088 0.0
H4093 H 0.05126 0.08318 0.63966 0.0
H4094 H 0.92367 0.08211 0.62556 0.0
H4095 H 0.95652 0.06624 0.63959 0.0
loop_
_geom_bond_atom_site_label_1
_geom_bond_atom_site_label_2
_geom_bond_distance
_geom_bond_site_symmetry_2
_ccdc_geom_bond_type
Mn0 O5 2.095 1_455 S
Mn0 O15 2.162 1_455 S
Mn0 O16 2.297 1_455 S
Mn0 O24 2.385 . S
Mn0 O25 2.209 . S
Mn0 O26 2.094 . S
Mn1 O6 2.121 1_455 S
Mn1 N8 2.257 . S
Mn1 N17 2.282 . S
Mn1 O25 2.215 . S
Mn1 O27 2.117 . S
C2 O24 1.234 . S
C2 O25 1.283 . S
C3 O15 1.281 . S
C3 O16 1.236 . S
C4 O26 1.240 . S
C4 O27 1.264 . S
O5 Mn0 2.095 1_655 S
O5 C14 1.250 . S
O6 Mn1 2.121 1_655 S
O6 C14 1.258 . S
C7 N8 1.326 . S
C7 C11 1.460 . S
C7 H13 0.929 . S
N8 Mn1 2.257 . S
N8 C7 1.326 . S
N8 C12 1.362 . S
C9 C10 1.258 . S
C9 C12 1.431 . S
C9 C29 1.449 . S
C10 C9 1.258 . S
C10 C11 1.477 . S
C10 H30 0.931 . S
C11 C7 1.460 . S
C11 C10 1.477 . S
C11 H31 0.930 . S
C12 N8 1.362 . S
C12 C9 1.431 . S
C12 C22 1.476 . S
H13 C7 0.929 . S
C14 O5 1.250 . S
C14 O6 1.258 . S
O15 Mn0 2.162 1_655 S
O15 C3 1.281 . S
O16 Mn0 2.297 1_655 S
O16 C3 1.236 . S
N17 Mn1 2.282 . S
N17 C18 1.328 . S
N17 C22 1.318 . S
C18 N17 1.328 . S
C18 C19 1.457 . S
C18 H23 0.929 . S
C19 C18 1.457 . S
C19 C20 1.291 . S
C19 H32 0.931 . S
C20 C19 1.291 . S
C20 C21 1.373 . S
C20 H33 0.929 . S
C21 C20 1.373 . S
C21 C22 1.396 . S
C21 C28 1.403 . S
C22 C12 1.476 . S
C22 N17 1.318 . S
C22 C21 1.396 . S
H23 C18 0.929 . S
O24 Mn0 2.385 . S
O24 C2 1.234 . S
O25 Mn0 2.209 . S
O25 Mn1 2.215 . S
O25 C2 1.283 . S
O26 Mn0 2.094 . S
O26 C4 1.240 . S
O27 Mn1 2.117 . S
O27 C4 1.264 . S
C28 C21 1.403 . S
C28 C29 1.399 . S
C28 H34 0.929 . S
C29 C9 1.449 . S
C29 C28 1.399 . S
C29 H35 0.930 . S
H30 C10 0.931 . S
H31 C11 0.930 . S
H32 C19 0.931 . S
H33 C20 0.929 . S
H34 C28 0.929 . S
H35 C29 0.930 . S
Mn36 O41 2.095 . S
Mn36 O51 2.162 . S
Mn36 O52 2.297 . S
Mn36 O60 2.385 . S
Mn36 O61 2.209 1_455 S
Mn36 O62 2.094 . S
Mn37 O42 2.121 . S
Mn37 N44 2.257 . S
Mn37 N53 2.282 . S
Mn37 O61 2.215 . S
Mn37 O63 2.117 1_655 S
C38 O60 1.234 1_655 S
C38 O61 1.283 . S
C39 O51 1.281 . S
C39 O52 1.236 . S
C40 O62 1.240 . S
C40 O63 1.264 . S
O41 Mn36 2.095 . S
O41 C50 1.250 1_455 S
O42 Mn37 2.121 . S
O42 C50 1.258 . S
C43 N44 1.326 . S
C43 C47 1.460 . S
C43 H49 0.929 . S
N44 Mn37 2.257 . S
N44 C43 1.326 . S
N44 C48 1.362 . S
C45 C46 1.258 . S
C45 C48 1.431 . S
C45 C65 1.449 . S
C46 C45 1.258 . S
C46 C47 1.477 . S
C46 H66 0.931 . S
C47 C43 1.460 . S
C47 C46 1.477 . S
C47 H67 0.930 . S
C48 N44 1.362 . S
C48 C45 1.431 . S
C48 C58 1.476 . S
H49 C43 0.929 . S
C50 O41 1.250 1_655 S
C50 O42 1.258 . S
O51 Mn36 2.162 . S
O51 C39 1.281 . S
O52 Mn36 2.297 . S
O52 C39 1.236 . S
N53 Mn37 2.282 . S
N53 C54 1.328 . S
N53 C58 1.318 . S
C54 N53 1.328 . S
C54 C55 1.457 . S
C54 H59 0.929 . S
C55 C54 1.457 . S
C55 C56 1.291 . S
C55 H68 0.931 . S
C56 C55 1.291 . S
C56 C57 1.373 . S
C56 H69 0.929 . S
C57 C56 1.373 . S
C57 C58 1.396 . S
C57 C64 1.403 . S
C58 C48 1.476 . S
C58 N53 1.318 . S
C58 C57 1.396 . S
H59 C54 0.929 . S
O60 Mn36 2.385 . S
O60 C38 1.234 1_455 S
O61 Mn36 2.209 1_655 S
O61 Mn37 2.215 . S
O61 C38 1.283 . S
O62 Mn36 2.094 . S
O62 C40 1.240 . S
O63 Mn37 2.117 1_455 S
O63 C40 1.264 . S
C64 C57 1.403 . S
C64 C65 1.399 . S
C64 H70 0.929 . S
C65 C45 1.449 . S
C65 C64 1.399 . S
C65 H71 0.930 . S
H66 C46 0.931 . S
H67 C47 0.930 . S
H68 C55 0.931 . S
H69 C56 0.929 . S
H70 C64 0.929 . S
H71 C65 0.930 . S
Mn72 O77 2.095 . S
Mn72 O87 2.162 . S
Mn72 O88 2.297 . S
Mn72 O96 2.385 . S
Mn72 O97 2.209 . S
Mn72 O98 2.094 . S
Mn73 O78 2.121 . S
Mn73 N80 2.257 . S
Mn73 N89 2.282 . S
Mn73 O97 2.215 . S
Mn73 O99 2.117 . S
C74 O96 1.234 . S
C74 O97 1.283 . S
C75 O87 1.281 . S
C75 O88 1.236 . S
C76 O98 1.240 . S
C76 O99 1.264 . S
O77 Mn72 2.095 . S
O77 C86 1.250 . S
O78 Mn73 2.121 . S
O78 C86 1.258 . S
C79 N80 1.326 . S
C79 C83 1.460 . S
C79 H85 0.929 . S
N80 Mn73 2.257 . S
N80 C79 1.326 . S
N80 C84 1.362 . S
C81 C82 1.258 . S
C81 C84 1.431 . S
C81 C101 1.449 . S
C82 C81 1.258 . S
C82 C83 1.477 . S
C82 H102 0.931 . S
C83 C79 1.460 . S
C83 C82 1.477 . S
C83 H103 0.930 . S
C84 N80 1.362 . S
C84 C81 1.431 . S
C84 C94 1.476 . S
H85 C79 0.929 . S
C86 O77 1.250 . S
C86 O78 1.258 . S
O87 Mn72 2.162 . S
O87 C75 1.281 . S
O88 Mn72 2.297 . S
O88 C75 1.236 . S
N89 Mn73 2.282 . S
N89 C90 1.328 . S
N89 C94 1.318 . S
C90 N89 1.328 . S
C90 C91 1.457 . S
C90 H95 0.929 . S
C91 C90 1.457 . S
C91 C92 1.291 . S
C91 H104 0.931 . S
C92 C91 1.291 . S
C92 C93 1.373 . S
C92 H105 0.929 . S
C93 C92 1.373 . S
C93 C94 1.396 . S
C93 C100 1.403 . S
C94 C84 1.476 . S
C94 N89 1.318 . S
C94 C93 1.396 . S
H95 C90 0.929 . S
O96 Mn72 2.385 . S
O96 C74 1.234 . S
O97 Mn72 2.209 . S
O97 Mn73 2.215 . S
O97 C74 1.283 . S
O98 Mn72 2.094 . S
O98 C76 1.240 . S
O99 Mn73 2.117 . S
O99 C76 1.264 . S
C100 C93 1.403 . S
C100 C101 1.399 . S
C100 H106 0.929 . S
C101 C81 1.449 . S
C101 C100 1.399 . S
C101 H107 0.930 . S
H102 C82 0.931 . S
H103 C83 0.930 . S
H104 C91 0.931 . S
H105 C92 0.929 . S
H106 C100 0.929 . S
H107 C101 0.930 . S
Mn108 O113 2.095 . S
Mn108 O123 2.162 . S
Mn108 O124 2.297 . S
Mn108 O132 2.385 . S
Mn108 O133 2.209 . S
Mn108 O134 2.094 . S
Mn109 O114 2.121 . S
Mn109 N116 2.257 . S
Mn109 N125 2.282 . S
Mn109 O133 2.215 . S
Mn109 O135 2.117 . S
C110 O132 1.234 . S
C110 O133 1.283 . S
C111 O123 1.281 . S
C111 O124 1.236 . S
C112 O134 1.240 . S
C112 O135 1.264 . S
O113 Mn108 2.095 . S
O113 C122 1.250 . S
O114 Mn109 2.121 . S
O114 C122 1.258 . S
C115 N116 1.326 . S
C115 C119 1.460 . S
C115 H121 0.929 . S
N116 Mn109 2.257 . S
N116 C115 1.326 . S
N116 C120 1.362 . S
C117 C118 1.258 . S
C117 C120 1.431 . S
C117 C137 1.449 . S
C118 C117 1.258 . S
C118 C119 1.477 . S
C118 H138 0.931 . S
C119 C115 1.460 . S
C119 C118 1.477 . S
C119 H139 0.930 . S
C120 N116 1.362 . S
C120 C117 1.431 . S
C120 C130 1.476 . S
H121 C115 0.929 . S
C122 O113 1.250 . S
C122 O114 1.258 . S
O123 Mn108 2.162 . S
O123 C111 1.281 . S
O124 Mn108 2.297 . S
O124 C111 1.236 . S
N125 Mn109 2.282 . S
N125 C126 1.328 . S
N125 C130 1.318 . S
C126 N125 1.328 . S
C126 C127 1.457 . S
C126 H131 0.929 . S
C127 C126 1.457 . S
C127 C128 1.291 . S
C127 H140 0.931 . S
C128 C127 1.291 . S
C128 C129 1.373 . S
C128 H141 0.929 . S
C129 C128 1.373 . S
C129 C130 1.396 . S
C129 C136 1.403 . S
C130 C120 1.476 . S
C130 N125 1.318 . S
C130 C129 1.396 . S
H131 C126 0.929 . S
O132 Mn108 2.385 . S
O132 C110 1.234 . S
O133 Mn108 2.209 . S
O133 Mn109 2.215 . S
O133 C110 1.283 . S
O134 Mn108 2.094 . S
O134 C112 1.240 . S
O135 Mn109 2.117 . S
O135 C112 1.264 . S
C136 C129 1.403 . S
C136 C137 1.399 . S
C136 H142 0.929 . S
C137 C117 1.449 . S
C137 C136 1.399 . S
C137 H143 0.930 . S
H138 C118 0.931 . S
H139 C119 0.930 . S
H140 C127 0.931 . S
H141 C128 0.929 . S
H142 C136 0.929 . S
H143 C137 0.930 . S
Mn144 O149 2.122 . S
Mn144 O159 2.188 . S
Mn144 O160 2.333 . S
Mn144 O168 2.350 1_655 S
Mn144 O169 2.187 1_655 S
Mn144 O170 2.063 1_655 S
Mn145 O150 2.121 1_455 S
Mn145 N152 2.257 . S
Mn145 N161 2.282 . S
Mn145 O169 2.215 . S
Mn145 O171 2.117 . S
C146 O168 1.234 . S
C146 O169 1.283 . S
C147 O159 1.281 . S
C147 O160 1.236 . S
C148 O170 1.240 . S
C148 O171 1.264 . S
O149 Mn144 2.122 . S
O149 C158 1.250 . S
O150 Mn145 2.121 1_655 S
O150 C158 1.258 . S
C151 N152 1.326 . S
C151 C155 1.460 . S
C151 H157 0.902 1_455 S
N152 Mn145 2.257 . S
N152 C151 1.326 . S
N152 C156 1.362 . S
C153 C154 1.258 . S
C153 C156 1.431 . S
C153 C173 1.449 . S
C154 C153 1.258 . S
C154 C155 1.477 . S
C154 H174 0.931 . S
C155 C151 1.460 . S
C155 C154 1.477 . S
C155 H175 0.930 . S
C156 N152 1.362 . S
C156 C153 1.431 . S
C156 C166 1.476 . S
H157 C151 0.902 1_655 S
C158 O149 1.250 . S
C158 O150 1.258 . S
O159 Mn144 2.188 . S
O159 C147 1.281 . S
O160 Mn144 2.333 . S
O160 C147 1.236 . S
N161 Mn145 2.282 . S
N161 C162 1.328 . S
N161 C166 1.318 . S
C162 N161 1.328 . S
C162 C163 1.457 . S
C162 H167 0.929 . S
C163 C162 1.457 . S
C163 C164 1.291 . S
C163 H176 0.931 . S
C164 C163 1.291 . S
C164 C165 1.373 . S
C164 H177 0.929 . S
C165 C164 1.373 . S
C165 C166 1.396 . S
C165 C172 1.403 . S
C166 C156 1.476 . S
C166 N161 1.318 . S
C166 C165 1.396 . S
H167 C162 0.929 . S
O168 Mn144 2.350 1_455 S
O168 C146 1.234 . S
O169 Mn144 2.187 1_455 S
O169 Mn145 2.215 . S
O169 C146 1.283 . S
O170 Mn144 2.063 1_455 S
O170 C148 1.240 . S
O171 Mn145 2.117 . S
O171 C148 1.264 . S
C172 C165 1.403 . S
C172 C173 1.399 . S
C172 H178 0.929 . S
C173 C153 1.449 . S
C173 C172 1.399 . S
C173 H179 0.930 . S
H174 C154 0.931 . S
H175 C155 0.930 . S
H176 C163 0.931 . S
H177 C164 0.929 . S
H178 C172 0.929 . S
H179 C173 0.930 . S
Mn180 O185 2.095 . S
Mn180 O195 2.162 . S
Mn180 O196 2.297 . S
Mn180 O204 2.385 . S
Mn180 O205 2.209 . S
Mn180 O206 2.094 . S
Mn181 O186 2.121 . S
Mn181 N188 2.257 . S
Mn181 N197 2.282 . S
Mn181 O205 2.215 . S
Mn181 O207 2.117 . S
C182 O204 1.234 . S
C182 O205 1.283 . S
C183 O195 1.281 . S
C183 O196 1.236 . S
C184 O206 1.240 . S
C184 O207 1.264 . S
O185 Mn180 2.095 . S
O185 C194 1.250 . S
O186 Mn181 2.121 . S
O186 C194 1.258 . S
C187 N188 1.326 . S
C187 C191 1.460 . S
C187 H193 0.929 . S
N188 Mn181 2.257 . S
N188 C187 1.326 . S
N188 C192 1.362 . S
C189 C190 1.258 . S
C189 C192 1.431 . S
C189 C209 1.449 . S
C190 C189 1.258 . S
C190 C191 1.477 . S
C190 H210 0.931 . S
C191 C187 1.460 . S
C191 C190 1.477 . S
C191 H211 0.930 . S
C192 N188 1.362 . S
C192 C189 1.431 . S
C192 C202 1.476 . S
H193 C187 0.929 . S
C194 O185 1.250 . S
C194 O186 1.258 . S
O195 Mn180 2.162 . S
O195 C183 1.281 . S
O196 Mn180 2.297 . S
O196 C183 1.236 . S
N197 Mn181 2.282 . S
N197 C198 1.328 . S
N197 C202 1.318 . S
C198 N197 1.328 . S
C198 C199 1.457 . S
C198 H203 0.929 . S
C199 C198 1.457 . S
C199 C200 1.291 . S
C199 H212 0.931 . S
C200 C199 1.291 . S
C200 C201 1.373 . S
C200 H213 0.929 . S
C201 C200 1.373 . S
C201 C202 1.396 . S
C201 C208 1.403 . S
C202 C192 1.476 . S
C202 N197 1.318 . S
C202 C201 1.396 . S
H203 C198 0.929 . S
O204 Mn180 2.385 . S
O204 C182 1.234 . S
O205 Mn180 2.209 . S
O205 Mn181 2.215 . S
O205 C182 1.283 . S
O206 Mn180 2.094 . S
O206 C184 1.240 . S
O207 Mn181 2.117 . S
O207 C184 1.264 . S
C208 C201 1.403 . S
C208 C209 1.399 . S
C208 H214 0.929 . S
C209 C189 1.449 . S
C209 C208 1.399 . S
C209 H215 0.930 . S
H210 C190 0.931 . S
H211 C191 0.930 . S
H212 C199 0.931 . S
H213 C200 0.929 . S
H214 C208 0.929 . S
H215 C209 0.930 . S
Mn216 O221 2.095 . S
Mn216 O231 2.162 . S
Mn216 O232 2.297 . S
Mn216 O240 2.385 . S
Mn216 O241 2.209 . S
Mn216 O242 2.094 . S
Mn217 O222 2.121 . S
Mn217 N224 2.257 . S
Mn217 N233 2.282 . S
Mn217 O241 2.215 . S
Mn217 O243 2.117 . S
C218 O240 1.234 . S
C218 O241 1.283 . S
C219 O231 1.281 . S
C219 O232 1.236 . S
C220 O242 1.240 . S
C220 O243 1.264 . S
O221 Mn216 2.095 . S
O221 C230 1.250 . S
O222 Mn217 2.121 . S
O222 C230 1.258 . S
C223 N224 1.326 . S
C223 C227 1.460 . S
C223 H229 0.929 . S
N224 Mn217 2.257 . S
N224 C223 1.326 . S
N224 C228 1.362 . S
C225 C226 1.258 . S
C225 C228 1.431 . S
C225 C245 1.449 . S
C226 C225 1.258 . S
C226 C227 1.477 . S
C226 H246 0.931 . S
C227 C223 1.460 . S
C227 C226 1.477 . S
C227 H247 0.930 . S
C228 N224 1.362 . S
C228 C225 1.431 . S
C228 C238 1.476 . S
H229 C223 0.929 . S
C230 O221 1.250 . S
C230 O222 1.258 . S
O231 Mn216 2.162 . S
O231 C219 1.281 . S
O232 Mn216 2.297 . S
O232 C219 1.236 . S
N233 Mn217 2.282 . S
N233 C234 1.328 . S
N233 C238 1.318 . S
C234 N233 1.328 . S
C234 C235 1.457 . S
C234 H239 0.929 . S
C235 C234 1.457 . S
C235 C236 1.291 . S
C235 H248 0.931 . S
C236 C235 1.291 . S
C236 C237 1.373 . S
C236 H249 0.929 . S
C237 C236 1.373 . S
C237 C238 1.396 . S
C237 C244 1.403 . S
C238 C228 1.476 . S
C238 N233 1.318 . S
C238 C237 1.396 . S
H239 C234 0.929 . S
O240 Mn216 2.385 . S
O240 C218 1.234 . S
O241 Mn216 2.209 . S
O241 Mn217 2.215 . S
O241 C218 1.283 . S
O242 Mn216 2.094 . S
O242 C220 1.240 . S
O243 Mn217 2.117 . S
O243 C220 1.264 . S
C244 C237 1.403 . S
C244 C245 1.399 . S
C244 H250 0.929 . S
C245 C225 1.449 . S
C245 C244 1.399 . S
C245 H251 0.930 . S
H246 C226 0.931 . S
H247 C227 0.930 . S
H248 C235 0.931 . S
H249 C236 0.929 . S
H250 C244 0.929 . S
H251 C245 0.930 . S
Mn252 O257 2.095 . S
Mn252 O267 2.162 . S
Mn252 O268 2.297 . S
Mn252 O276 2.385 . S
Mn252 O277 2.209 1_455 S
Mn252 O278 2.094 . S
Mn253 O258 2.121 . S
Mn253 N260 2.257 . S
Mn253 N269 2.282 . S
Mn253 O277 2.215 . S
Mn253 O279 2.117 1_655 S
C254 O276 1.234 1_655 S
C254 O277 1.283 . S
C255 O267 1.281 . S
C255 O268 1.236 . S
C256 O278 1.240 . S
C256 O279 1.264 . S
O257 Mn252 2.095 . S
O257 C266 1.250 1_455 S
O258 Mn253 2.121 . S
O258 C266 1.258 . S
C259 N260 1.326 . S
C259 C263 1.460 . S
C259 H265 0.929 . S
N260 Mn253 2.257 . S
N260 C259 1.326 . S
N260 C264 1.362 . S
C261 C262 1.258 . S
C261 C264 1.431 . S
C261 C281 1.449 . S
C262 C261 1.258 . S
C262 C263 1.477 . S
C262 H282 0.931 . S
C263 C259 1.460 . S
C263 C262 1.477 . S
C263 H283 0.930 . S
C264 N260 1.362 . S
C264 C261 1.431 . S
C264 C274 1.476 . S
H265 C259 0.929 . S
C266 O257 1.250 1_655 S
C266 O258 1.258 . S
O267 Mn252 2.162 . S
O267 C255 1.281 . S
O268 Mn252 2.297 . S
O268 C255 1.236 . S
N269 Mn253 2.282 . S
N269 C270 1.328 . S
N269 C274 1.318 . S
C270 N269 1.328 . S
C270 C271 1.457 . S
C270 H275 0.901 1_655 S
C271 C270 1.457 . S
C271 C272 1.291 . S
C271 H284 0.931 . S
C272 C271 1.291 . S
C272 C273 1.373 . S
C272 H285 0.929 . S
C273 C272 1.373 . S
C273 C274 1.396 . S
C273 C280 1.403 . S
C274 C264 1.476 . S
C274 N269 1.318 . S
C274 C273 1.396 . S
H275 C270 0.901 1_455 S
O276 Mn252 2.385 . S
O276 C254 1.234 1_455 S
O277 Mn252 2.209 1_655 S
O277 Mn253 2.215 . S
O277 C254 1.283 . S
O278 Mn252 2.094 . S
O278 C256 1.240 . S
O279 Mn253 2.117 1_455 S
O279 C256 1.264 . S
C280 C273 1.403 . S
C280 C281 1.399 . S
C280 H286 0.929 . S
C281 C261 1.449 . S
C281 C280 1.399 . S
C281 H287 0.930 . S
H282 C262 0.931 . S
H283 C263 0.930 . S
H284 C271 0.931 . S
H285 C272 0.929 . S
H286 C280 0.929 . S
H287 C281 0.930 . S
Mn288 O293 2.098 1_545 S
Mn288 O303 2.164 1_545 S
Mn288 O304 2.301 1_545 S
Mn288 O312 2.381 . S
Mn288 O313 2.206 . S
Mn288 O314 2.091 . S
Mn289 O294 2.121 1_545 S
Mn289 N296 2.257 . S
Mn289 N305 2.282 . S
Mn289 O313 2.215 . S
Mn289 O315 2.117 . S
C290 O312 1.234 . S
C290 O313 1.283 . S
C291 O303 1.281 . S
C291 O304 1.236 . S
C292 O314 1.240 . S
C292 O315 1.264 . S
O293 Mn288 2.098 1_565 S
O293 C302 1.250 . S
O294 Mn289 2.121 1_565 S
O294 C302 1.258 . S
C295 N296 1.326 . S
C295 C299 1.460 . S
C295 H301 0.979 . S
N296 Mn289 2.257 . S
N296 C295 1.326 . S
N296 C300 1.362 . S
C297 C298 1.258 . S
C297 C300 1.431 . S
C297 C317 1.449 . S
C298 C297 1.258 . S
C298 C299 1.477 . S
C298 H318 0.931 . S
C299 C295 1.460 . S
C299 C298 1.477 . S
C299 H319 0.930 . S
C300 N296 1.362 . S
C300 C297 1.431 . S
C300 C310 1.476 . S
H301 C295 0.979 . S
C302 O293 1.250 . S
C302 O294 1.258 . S
O303 Mn288 2.164 1_565 S
O303 C291 1.281 . S
O304 Mn288 2.301 1_565 S
O304 C291 1.236 . S
N305 Mn289 2.282 . S
N305 C306 1.328 . S
N305 C310 1.318 . S
C306 N305 1.328 . S
C306 C307 1.457 . S
C306 H311 0.929 . S
C307 C306 1.457 . S
C307 C308 1.291 . S
C307 H320 0.931 . S
C308 C307 1.291 . S
C308 C309 1.373 . S
C308 H321 0.929 . S
C309 C308 1.373 . S
C309 C310 1.396 . S
C309 C316 1.403 . S
C310 C300 1.476 . S
C310 N305 1.318 . S
C310 C309 1.396 . S
H311 C306 0.929 . S
O312 Mn288 2.381 . S
O312 C290 1.234 . S
O313 Mn288 2.206 . S
O313 Mn289 2.215 . S
O313 C290 1.283 . S
O314 Mn288 2.091 . S
O314 C292 1.240 . S
O315 Mn289 2.117 . S
O315 C292 1.264 . S
C316 C309 1.403 . S
C316 C317 1.399 . S
C316 H322 0.929 . S
C317 C297 1.449 . S
C317 C316 1.399 . S
C317 H323 0.930 . S
H318 C298 0.931 . S
H319 C299 0.930 . S
H320 C307 0.931 . S
H321 C308 0.929 . S
H322 C316 0.929 . S
H323 C317 0.930 . S
Mn324 O329 2.095 . S
Mn324 O339 2.162 . S
Mn324 O340 2.297 . S
Mn324 O348 2.385 . S
Mn324 O349 2.209 . S
Mn324 O350 2.094 . S
Mn325 O330 2.121 . S
Mn325 N332 2.257 . S
Mn325 N341 2.282 . S
Mn325 O349 2.215 . S
Mn325 O351 2.117 . S
C326 O348 1.234 . S
C326 O349 1.283 . S
C327 O339 1.281 . S
C327 O340 1.236 . S
C328 O350 1.240 . S
C328 O351 1.264 . S
O329 Mn324 2.095 . S
O329 C338 1.250 . S
O330 Mn325 2.121 . S
O330 C338 1.258 . S
C331 N332 1.326 . S
C331 C335 1.460 . S
C331 H337 0.929 . S
N332 Mn325 2.257 . S
N332 C331 1.326 . S
N332 C336 1.362 . S
C333 C334 1.258 . S
C333 C336 1.431 . S
C333 C353 1.449 . S
C334 C333 1.258 . S
C334 C335 1.477 . S
C334 H354 0.931 . S
C335 C331 1.460 . S
C335 C334 1.477 . S
C335 H355 0.930 . S
C336 N332 1.362 . S
C336 C333 1.431 . S
C336 C346 1.476 . S
H337 C331 0.929 . S
C338 O329 1.250 . S
C338 O330 1.258 . S
O339 Mn324 2.162 . S
O339 C327 1.281 . S
O340 Mn324 2.297 . S
O340 C327 1.236 . S
N341 Mn325 2.282 . S
N341 C342 1.328 . S
N341 C346 1.318 . S
C342 N341 1.328 . S
C342 C343 1.457 . S
C342 H347 0.929 . S
C343 C342 1.457 . S
C343 C344 1.291 . S
C343 H356 0.931 . S
C344 C343 1.291 . S
C344 C345 1.373 . S
C344 H357 0.929 . S
C345 C344 1.373 . S
C345 C346 1.396 . S
C345 C352 1.403 . S
C346 C336 1.476 . S
C346 N341 1.318 . S
C346 C345 1.396 . S
H347 C342 0.929 . S
O348 Mn324 2.385 . S
O348 C326 1.234 . S
O349 Mn324 2.209 . S
O349 Mn325 2.215 . S
O349 C326 1.283 . S
O350 Mn324 2.094 . S
O350 C328 1.240 . S
O351 Mn325 2.117 . S
O351 C328 1.264 . S
C352 C345 1.403 . S
C352 C353 1.399 . S
C352 H358 0.929 . S
C353 C333 1.449 . S
C353 C352 1.399 . S
C353 H359 0.930 . S
H354 C334 0.931 . S
H355 C335 0.930 . S
H356 C343 0.931 . S
H357 C344 0.929 . S
H358 C352 0.929 . S
H359 C353 0.930 . S
Mn360 O365 2.084 1_545 S
Mn360 O375 2.151 1_545 S
Mn360 O376 2.282 1_545 S
Mn360 O384 2.400 . S
Mn360 O385 2.218 . S
Mn360 O386 2.107 . S
Mn361 O366 2.121 1_545 S
Mn361 N368 2.257 . S
Mn361 N377 2.282 . S
Mn361 O385 2.215 . S
Mn361 O387 2.117 . S
C362 O384 1.234 . S
C362 O385 1.283 . S
C363 O375 1.281 . S
C363 O376 1.236 . S
C364 O386 1.240 . S
C364 O387 1.264 . S
O365 Mn360 2.084 1_565 S
O365 C374 1.250 . S
O366 Mn361 2.121 1_565 S
O366 C374 1.258 . S
C367 N368 1.326 . S
C367 C371 1.460 . S
C367 H373 0.968 . S
N368 Mn361 2.257 . S
N368 C367 1.326 . S
N368 C372 1.362 . S
C369 C370 1.258 . S
C369 C372 1.431 . S
C369 C389 1.449 . S
C370 C369 1.258 . S
C370 C371 1.477 . S
C370 H390 0.931 . S
C371 C367 1.460 . S
C371 C370 1.477 . S
C371 H391 0.930 . S
C372 N368 1.362 . S
C372 C369 1.431 . S
C372 C382 1.476 . S
H373 C367 0.968 . S
C374 O365 1.250 . S
C374 O366 1.258 . S
O375 Mn360 2.151 1_565 S
O375 C363 1.281 . S
O376 Mn360 2.282 1_565 S
O376 C363 1.236 . S
N377 Mn361 2.282 . S
N377 C378 1.328 . S
N377 C382 1.318 . S
C378 N377 1.328 . S
C378 C379 1.457 . S
C378 H383 0.929 . S
C379 C378 1.457 . S
C379 C380 1.291 . S
C379 H392 0.931 . S
C380 C379 1.291 . S
C380 C381 1.373 . S
C380 H393 0.929 . S
C381 C380 1.373 . S
C381 C382 1.396 . S
C381 C388 1.403 . S
C382 C372 1.476 . S
C382 N377 1.318 . S
C382 C381 1.396 . S
H383 C378 0.929 . S
O384 Mn360 2.400 . S
O384 C362 1.234 . S
O385 Mn360 2.218 . S
O385 Mn361 2.215 . S
O385 C362 1.283 . S
O386 Mn360 2.107 . S
O386 C364 1.240 . S
O387 Mn361 2.117 . S
O387 C364 1.264 . S
C388 C381 1.403 . S
C388 C389 1.399 . S
C388 H394 0.929 . S
C389 C369 1.449 . S
C389 C388 1.399 . S
C389 H395 0.930 . S
H390 C370 0.931 . S
H391 C371 0.930 . S
H392 C379 0.931 . S
H393 C380 0.929 . S
H394 C388 0.929 . S
H395 C389 0.930 . S
Mn396 O401 2.095 . S
Mn396 O411 2.162 . S
Mn396 O412 2.297 . S
Mn396 O420 2.385 . S
Mn396 O421 2.209 1_554 S
Mn396 O422 2.094 . S
Mn397 O402 2.121 . S
Mn397 N404 2.257 . S
Mn397 N413 2.282 . S
Mn397 O421 2.215 . S
Mn397 O423 2.117 1_556 S
C398 O420 1.234 1_556 S
C398 O421 1.283 . S
C399 O411 1.281 . S
C399 O412 1.236 . S
C400 O422 1.240 . S
C400 O423 1.264 . S
O401 Mn396 2.095 . S
O401 C410 1.250 1_554 S
O402 Mn397 2.121 . S
O402 C410 1.258 . S
C403 N404 1.326 . S
C403 C407 1.460 . S
C403 H409 0.929 . S
N404 Mn397 2.257 . S
N404 C403 1.326 . S
N404 C408 1.362 . S
C405 C406 1.258 . S
C405 C408 1.431 . S
C405 C425 1.449 . S
C406 C405 1.258 . S
C406 C407 1.477 . S
C406 H426 0.931 . S
C407 C403 1.460 . S
C407 C406 1.477 . S
C407 H427 0.930 . S
C408 N404 1.362 . S
C408 C405 1.431 . S
C408 C418 1.476 . S
H409 C403 0.929 . S
C410 O401 1.250 1_556 S
C410 O402 1.258 . S
O411 Mn396 2.162 . S
O411 C399 1.281 . S
O412 Mn396 2.297 . S
O412 C399 1.236 . S
N413 Mn397 2.282 . S
N413 C414 1.328 . S
N413 C418 1.318 . S
C414 N413 1.328 . S
C414 C415 1.457 . S
C414 H419 0.934 1_556 S
C415 C414 1.457 . S
C415 C416 1.291 . S
C415 H428 0.931 . S
C416 C415 1.291 . S
C416 C417 1.373 . S
C416 H429 0.929 . S
C417 C416 1.373 . S
C417 C418 1.396 . S
C417 C424 1.403 . S
C418 C408 1.476 . S
C418 N413 1.318 . S
C418 C417 1.396 . S
H419 C414 0.934 1_554 S
O420 Mn396 2.385 . S
O420 C398 1.234 1_554 S
O421 Mn396 2.209 1_556 S
O421 Mn397 2.215 . S
O421 C398 1.283 . S
O422 Mn396 2.094 . S
O422 C400 1.240 . S
O423 Mn397 2.117 1_554 S
O423 C400 1.264 . S
C424 C417 1.403 . S
C424 C425 1.399 . S
C424 H430 0.929 . S
C425 C405 1.449 . S
C425 C424 1.399 . S
C425 H431 0.930 . S
H426 C406 0.931 . S
H427 C407 0.930 . S
H428 C415 0.931 . S
H429 C416 0.929 . S
H430 C424 0.929 . S
H431 C425 0.930 . S
Mn432 O437 2.095 1_554 S
Mn432 O447 2.162 1_554 S
Mn432 O448 2.297 1_554 S
Mn432 O456 2.385 . S
Mn432 O457 2.209 . S
Mn432 O458 2.094 . S
Mn433 O438 2.121 1_554 S
Mn433 N440 2.257 . S
Mn433 N449 2.282 . S
Mn433 O457 2.215 . S
Mn433 O459 2.117 . S
C434 O456 1.234 . S
C434 O457 1.283 . S
C435 O447 1.281 . S
C435 O448 1.236 . S
C436 O458 1.240 . S
C436 O459 1.264 . S
O437 Mn432 2.095 1_556 S
O437 C446 1.250 . S
O438 Mn433 2.121 1_556 S
O438 C446 1.258 . S
C439 N440 1.326 . S
C439 C443 1.460 . S
C439 H445 0.929 . S
N440 Mn433 2.257 . S
N440 C439 1.326 . S
N440 C444 1.362 . S
C441 C442 1.258 . S
C441 C444 1.431 . S
C441 C461 1.449 . S
C442 C441 1.258 . S
C442 C443 1.477 . S
C442 H462 0.931 . S
C443 C439 1.460 . S
C443 C442 1.477 . S
C443 H463 0.930 . S
C444 N440 1.362 . S
C444 C441 1.431 . S
C444 C454 1.476 . S
H445 C439 0.929 . S
C446 O437 1.250 . S
C446 O438 1.258 . S
O447 Mn432 2.162 1_556 S
O447 C435 1.281 . S
O448 Mn432 2.297 1_556 S
O448 C435 1.236 . S
N449 Mn433 2.282 . S
N449 C450 1.328 . S
N449 C454 1.318 . S
C450 N449 1.328 . S
C450 C451 1.457 . S
C450 H455 0.929 . S
C451 C450 1.457 . S
C451 C452 1.291 . S
C451 H464 0.931 . S
C452 C451 1.291 . S
C452 C453 1.373 . S
C452 H465 0.929 . S
C453 C452 1.373 . S
C453 C454 1.396 . S
C453 C460 1.403 . S
C454 C444 1.476 . S
C454 N449 1.318 . S
C454 C453 1.396 . S
H455 C450 0.929 . S
O456 Mn432 2.385 . S
O456 C434 1.234 . S
O457 Mn432 2.209 . S
O457 Mn433 2.215 . S
O457 C434 1.283 . S
O458 Mn432 2.094 . S
O458 C436 1.240 . S
O459 Mn433 2.117 . S
O459 C436 1.264 . S
C460 C453 1.403 . S
C460 C461 1.399 . S
C460 H466 0.929 . S
C461 C441 1.449 . S
C461 C460 1.399 . S
C461 H467 0.930 . S
H462 C442 0.931 . S
H463 C443 0.930 . S
H464 C451 0.931 . S
H465 C452 0.929 . S
H466 C460 0.929 . S
H467 C461 0.930 . S
Mn468 O473 2.119 . S
Mn468 O483 2.185 . S
Mn468 O484 2.328 . S
Mn468 O492 2.355 1_556 S
Mn468 O493 2.190 1_556 S
Mn468 O494 2.067 1_556 S
Mn469 O474 2.121 1_554 S
Mn469 N476 2.257 . S
Mn469 N485 2.282 . S
Mn469 O493 2.215 . S
Mn469 O495 2.117 . S
C470 O492 1.234 . S
C470 O493 1.283 . S
C471 O483 1.281 . S
C471 O484 1.236 . S
C472 O494 1.240 . S
C472 O495 1.264 . S
O473 Mn468 2.119 . S
O473 C482 1.250 . S
O474 Mn469 2.121 1_556 S
O474 C482 1.258 . S
C475 N476 1.326 . S
C475 C479 1.460 . S
C475 H481 0.909 1_554 S
N476 Mn469 2.257 . S
N476 C475 1.326 . S
N476 C480 1.362 . S
C477 C478 1.258 . S
C477 C480 1.431 . S
C477 C497 1.449 . S
C478 C477 1.258 . S
C478 C479 1.477 . S
C478 H498 0.931 . S
C479 C475 1.460 . S
C479 C478 1.477 . S
C479 H499 0.930 . S
C480 N476 1.362 . S
C480 C477 1.431 . S
C480 C490 1.476 . S
H481 C475 0.909 1_556 S
C482 O473 1.250 . S
C482 O474 1.258 . S
O483 Mn468 2.185 . S
O483 C471 1.281 . S
O484 Mn468 2.328 . S
O484 C471 1.236 . S
N485 Mn469 2.282 . S
N485 C486 1.328 . S
N485 C490 1.318 . S
C486 N485 1.328 . S
C486 C487 1.457 . S
C486 H491 0.929 . S
C487 C486 1.457 . S
C487 C488 1.291 . S
C487 H500 0.931 . S
C488 C487 1.291 . S
C488 C489 1.373 . S
C488 H501 0.929 . S
C489 C488 1.373 . S
C489 C490 1.396 . S
C489 C496 1.403 . S
C490 C480 1.476 . S
C490 N485 1.318 . S
C490 C489 1.396 . S
H491 C486 0.929 . S
O492 Mn468 2.355 1_554 S
O492 C470 1.234 . S
O493 Mn468 2.190 1_554 S
O493 Mn469 2.215 . S
O493 C470 1.283 . S
O494 Mn468 2.067 1_554 S
O494 C472 1.240 . S
O495 Mn469 2.117 . S
O495 C472 1.264 . S
C496 C489 1.403 . S
C496 C497 1.399 . S
C496 H502 0.929 . S
C497 C477 1.449 . S
C497 C496 1.399 . S
C497 H503 0.930 . S
H498 C478 0.931 . S
H499 C479 0.930 . S
H500 C487 0.931 . S
H501 C488 0.929 . S
H502 C496 0.929 . S
H503 C497 0.930 . S
Mn504 O509 2.095 . S
Mn504 O519 2.162 . S
Mn504 O520 2.297 . S
Mn504 O528 2.385 . S
Mn504 O529 2.209 . S
Mn504 O530 2.094 . S
Mn505 O510 2.121 . S
Mn505 N512 2.257 . S
Mn505 N521 2.282 . S
Mn505 O529 2.215 . S
Mn505 O531 2.117 . S
C506 O528 1.234 . S
C506 O529 1.283 . S
C507 O519 1.281 . S
C507 O520 1.236 . S
C508 O530 1.240 . S
C508 O531 1.264 . S
O509 Mn504 2.095 . S
O509 C518 1.250 . S
O510 Mn505 2.121 . S
O510 C518 1.258 . S
C511 N512 1.326 . S
C511 C515 1.460 . S
C511 H517 0.929 . S
N512 Mn505 2.257 . S
N512 C511 1.326 . S
N512 C516 1.362 . S
C513 C514 1.258 . S
C513 C516 1.431 . S
C513 C533 1.449 . S
C514 C513 1.258 . S
C514 C515 1.477 . S
C514 H534 0.931 . S
C515 C511 1.460 . S
C515 C514 1.477 . S
C515 H535 0.930 . S
C516 N512 1.362 . S
C516 C513 1.431 . S
C516 C526 1.476 . S
H517 C511 0.929 . S
C518 O509 1.250 . S
C518 O510 1.258 . S
O519 Mn504 2.162 . S
O519 C507 1.281 . S
O520 Mn504 2.297 . S
O520 C507 1.236 . S
N521 Mn505 2.282 . S
N521 C522 1.328 . S
N521 C526 1.318 . S
C522 N521 1.328 . S
C522 C523 1.457 . S
C522 H527 0.929 . S
C523 C522 1.457 . S
C523 C524 1.291 . S
C523 H536 0.931 . S
C524 C523 1.291 . S
C524 C525 1.373 . S
C524 H537 0.929 . S
C525 C524 1.373 . S
C525 C526 1.396 . S
C525 C532 1.403 . S
C526 C516 1.476 . S
C526 N521 1.318 . S
C526 C525 1.396 . S
H527 C522 0.929 . S
O528 Mn504 2.385 . S
O528 C506 1.234 . S
O529 Mn504 2.209 . S
O529 Mn505 2.215 . S
O529 C506 1.283 . S
O530 Mn504 2.094 . S
O530 C508 1.240 . S
O531 Mn505 2.117 . S
O531 C508 1.264 . S
C532 C525 1.403 . S
C532 C533 1.399 . S
C532 H538 0.929 . S
C533 C513 1.449 . S
C533 C532 1.399 . S
C533 H539 0.930 . S
H534 C514 0.931 . S
H535 C515 0.930 . S
H536 C523 0.931 . S
H537 C524 0.929 . S
H538 C532 0.929 . S
H539 C533 0.930 . S
Mn540 O545 2.095 . S
Mn540 O555 2.162 . S
Mn540 O556 2.297 . S
Mn540 O564 2.385 . S
Mn540 O565 2.209 . S
Mn540 O566 2.094 . S
Mn541 O546 2.121 . S
Mn541 N548 2.257 . S
Mn541 N557 2.282 . S
Mn541 O565 2.215 . S
Mn541 O567 2.117 . S
C542 O564 1.234 . S
C542 O565 1.283 . S
C543 O555 1.281 . S
C543 O556 1.236 . S
C544 O566 1.240 . S
C544 O567 1.264 . S
O545 Mn540 2.095 . S
O545 C554 1.250 . S
O546 Mn541 2.121 . S
O546 C554 1.258 . S
C547 N548 1.326 . S
C547 C551 1.460 . S
C547 H553 0.929 . S
N548 Mn541 2.257 . S
N548 C547 1.326 . S
N548 C552 1.362 . S
C549 C550 1.258 . S
C549 C552 1.431 . S
C549 C569 1.449 . S
C550 C549 1.258 . S
C550 C551 1.477 . S
C550 H570 0.931 . S
C551 C547 1.460 . S
C551 C550 1.477 . S
C551 H571 0.930 . S
C552 N548 1.362 . S
C552 C549 1.431 . S
C552 C562 1.476 . S
H553 C547 0.929 . S
C554 O545 1.250 . S
C554 O546 1.258 . S
O555 Mn540 2.162 . S
O555 C543 1.281 . S
O556 Mn540 2.297 . S
O556 C543 1.236 . S
N557 Mn541 2.282 . S
N557 C558 1.328 . S
N557 C562 1.318 . S
C558 N557 1.328 . S
C558 C559 1.457 . S
C558 H563 0.929 . S
C559 C558 1.457 . S
C559 C560 1.291 . S
C559 H572 0.931 . S
C560 C559 1.291 . S
C560 C561 1.373 . S
C560 H573 0.929 . S
C561 C560 1.373 . S
C561 C562 1.396 . S
C561 C568 1.403 . S
C562 C552 1.476 . S
C562 N557 1.318 . S
C562 C561 1.396 . S
H563 C558 0.929 . S
O564 Mn540 2.385 . S
O564 C542 1.234 . S
O565 Mn540 2.209 . S
O565 Mn541 2.215 . S
O565 C542 1.283 . S
O566 Mn540 2.094 . S
O566 C544 1.240 . S
O567 Mn541 2.117 . S
O567 C544 1.264 . S
C568 C561 1.403 . S
C568 C569 1.399 . S
C568 H574 0.929 . S
C569 C549 1.449 . S
C569 C568 1.399 . S
C569 H575 0.930 . S
H570 C550 0.931 . S
H571 C551 0.930 . S
H572 C559 0.931 . S
H573 C560 0.929 . S
H574 C568 0.929 . S
H575 C569 0.930 . S
Mn576 O581 2.095 . S
Mn576 O591 2.162 . S
Mn576 O592 2.297 . S
Mn576 O600 2.385 . S
Mn576 O601 2.209 1_545 S
Mn576 O602 2.094 . S
Mn577 O582 2.121 . S
Mn577 N584 2.257 . S
Mn577 N593 2.282 . S
Mn577 O601 2.215 . S
Mn577 O603 2.117 1_565 S
C578 O600 1.234 1_565 S
C578 O601 1.283 . S
C579 O591 1.281 . S
C579 O592 1.236 . S
C580 O602 1.240 . S
C580 O603 1.264 . S
O581 Mn576 2.095 . S
O581 C590 1.250 1_545 S
O582 Mn577 2.121 . S
O582 C590 1.258 . S
C583 N584 1.326 . S
C583 C587 1.460 . S
C583 H589 0.929 . S
N584 Mn577 2.257 . S
N584 C583 1.326 . S
N584 C588 1.362 . S
C585 C586 1.258 . S
C585 C588 1.431 . S
C585 C605 1.449 . S
C586 C585 1.258 . S
C586 C587 1.477 . S
C586 H606 0.931 . S
C587 C583 1.460 . S
C587 C586 1.477 . S
C587 H607 0.930 . S
C588 N584 1.362 . S
C588 C585 1.431 . S
C588 C598 1.476 . S
H589 C583 0.929 . S
C590 O581 1.250 1_565 S
C590 O582 1.258 . S
O591 Mn576 2.162 . S
O591 C579 1.281 . S
O592 Mn576 2.297 . S
O592 C579 1.236 . S
N593 Mn577 2.282 . S
N593 C594 1.328 . S
N593 C598 1.318 . S
C594 N593 1.328 . S
C594 C595 1.457 . S
C594 H599 0.929 1_565 S
C595 C594 1.457 . S
C595 C596 1.291 . S
C595 H608 0.931 . S
C596 C595 1.291 . S
C596 C597 1.373 . S
C596 H609 0.929 . S
C597 C596 1.373 . S
C597 C598 1.396 . S
C597 C604 1.403 . S
C598 C588 1.476 . S
C598 N593 1.318 . S
C598 C597 1.396 . S
H599 C594 0.929 1_545 S
O600 Mn576 2.385 . S
O600 C578 1.234 1_545 S
O601 Mn576 2.209 1_565 S
O601 Mn577 2.215 . S
O601 C578 1.283 . S
O602 Mn576 2.094 . S
O602 C580 1.240 . S
O603 Mn577 2.117 1_545 S
O603 C580 1.264 . S
C604 C597 1.403 . S
C604 C605 1.399 . S
C604 H610 0.929 . S
C605 C585 1.449 . S
C605 C604 1.399 . S
C605 H611 0.930 . S
H606 C586 0.931 . S
H607 C587 0.930 . S
H608 C595 0.931 . S
H609 C596 0.929 . S
H610 C604 0.929 . S
H611 C605 0.930 . S
Mn612 O617 2.095 . S
Mn612 O627 2.162 . S
Mn612 O628 2.297 . S
Mn612 O636 2.385 . S
Mn612 O637 2.209 . S
Mn612 O638 2.094 . S
Mn613 O618 2.121 . S
Mn613 N620 2.257 . S
Mn613 N629 2.282 . S
Mn613 O637 2.215 . S
Mn613 O639 2.117 . S
C614 O636 1.234 . S
C614 O637 1.283 . S
C615 O627 1.281 . S
C615 O628 1.236 . S
C616 O638 1.240 . S
C616 O639 1.264 . S
O617 Mn612 2.095 . S
O617 C626 1.250 . S
O618 Mn613 2.121 . S
O618 C626 1.258 . S
C619 N620 1.326 . S
C619 C623 1.460 . S
C619 H625 0.929 . S
N620 Mn613 2.257 . S
N620 C619 1.326 . S
N620 C624 1.362 . S
C621 C622 1.258 . S
C621 C624 1.431 . S
C621 C641 1.449 . S
C622 C621 1.258 . S
C622 C623 1.477 . S
C622 H642 0.931 . S
C623 C619 1.460 . S
C623 C622 1.477 . S
C623 H643 0.930 . S
C624 N620 1.362 . S
C624 C621 1.431 . S
C624 C634 1.476 . S
H625 C619 0.929 . S
C626 O617 1.250 . S
C626 O618 1.258 . S
O627 Mn612 2.162 . S
O627 C615 1.281 . S
O628 Mn612 2.297 . S
O628 C615 1.236 . S
N629 Mn613 2.282 . S
N629 C630 1.328 . S
N629 C634 1.318 . S
C630 N629 1.328 . S
C630 C631 1.457 . S
C630 H635 0.929 . S
C631 C630 1.457 . S
C631 C632 1.291 . S
C631 H644 0.931 . S
C632 C631 1.291 . S
C632 C633 1.373 . S
C632 H645 0.929 . S
C633 C632 1.373 . S
C633 C634 1.396 . S
C633 C640 1.403 . S
C634 C624 1.476 . S
C634 N629 1.318 . S
C634 C633 1.396 . S
H635 C630 0.929 . S
O636 Mn612 2.385 . S
O636 C614 1.234 . S
O637 Mn612 2.209 . S
O637 Mn613 2.215 . S
O637 C614 1.283 . S
O638 Mn612 2.094 . S
O638 C616 1.240 . S
O639 Mn613 2.117 . S
O639 C616 1.264 . S
C640 C633 1.403 . S
C640 C641 1.399 . S
C640 H646 0.929 . S
C641 C621 1.449 . S
C641 C640 1.399 . S
C641 H647 0.930 . S
H642 C622 0.931 . S
H643 C623 0.930 . S
H644 C631 0.931 . S
H645 C632 0.929 . S
H646 C640 0.929 . S
H647 C641 0.930 . S
Mn648 O653 2.095 . S
Mn648 O663 2.162 . S
Mn648 O664 2.297 . S
Mn648 O672 2.385 . S
Mn648 O673 2.209 . S
Mn648 O674 2.094 . S
Mn649 O654 2.121 . S
Mn649 N656 2.257 . S
Mn649 N665 2.282 . S
Mn649 O673 2.215 . S
Mn649 O675 2.117 . S
C650 O672 1.234 . S
C650 O673 1.283 . S
C651 O663 1.281 . S
C651 O664 1.236 . S
C652 O674 1.240 . S
C652 O675 1.264 . S
O653 Mn648 2.095 . S
O653 C662 1.250 . S
O654 Mn649 2.121 . S
O654 C662 1.258 . S
C655 N656 1.326 . S
C655 C659 1.460 . S
C655 H661 0.929 . S
N656 Mn649 2.257 . S
N656 C655 1.326 . S
N656 C660 1.362 . S
C657 C658 1.258 . S
C657 C660 1.431 . S
C657 C677 1.449 . S
C658 C657 1.258 . S
C658 C659 1.477 . S
C658 H678 0.931 . S
C659 C655 1.460 . S
C659 C658 1.477 . S
C659 H679 0.930 . S
C660 N656 1.362 . S
C660 C657 1.431 . S
C660 C670 1.476 . S
H661 C655 0.929 . S
C662 O653 1.250 . S
C662 O654 1.258 . S
O663 Mn648 2.162 . S
O663 C651 1.281 . S
O664 Mn648 2.297 . S
O664 C651 1.236 . S
N665 Mn649 2.282 . S
N665 C666 1.328 . S
N665 C670 1.318 . S
C666 N665 1.328 . S
C666 C667 1.457 . S
C666 H671 0.929 . S
C667 C666 1.457 . S
C667 C668 1.291 . S
C667 H680 0.931 . S
C668 C667 1.291 . S
C668 C669 1.373 . S
C668 H681 0.929 . S
C669 C668 1.373 . S
C669 C670 1.396 . S
C669 C676 1.403 . S
C670 C660 1.476 . S
C670 N665 1.318 . S
C670 C669 1.396 . S
H671 C666 0.929 . S
O672 Mn648 2.385 . S
O672 C650 1.234 . S
O673 Mn648 2.209 . S
O673 Mn649 2.215 . S
O673 C650 1.283 . S
O674 Mn648 2.094 . S
O674 C652 1.240 . S
O675 Mn649 2.117 . S
O675 C652 1.264 . S
C676 C669 1.403 . S
C676 C677 1.399 . S
C676 H682 0.929 . S
C677 C657 1.449 . S
C677 C676 1.399 . S
C677 H683 0.930 . S
H678 C658 0.931 . S
H679 C659 0.930 . S
H680 C667 0.931 . S
H681 C668 0.929 . S
H682 C676 0.929 . S
H683 C677 0.930 . S
Mn684 O689 2.095 . S
Mn684 O699 2.162 . S
Mn684 O700 2.297 . S
Mn684 O708 2.385 . S
Mn684 O709 2.209 1_545 S
Mn684 O710 2.094 . S
Mn685 O690 2.121 . S
Mn685 N692 2.257 . S
Mn685 N701 2.282 . S
Mn685 O709 2.215 . S
Mn685 O711 2.117 1_565 S
C686 O708 1.234 1_565 S
C686 O709 1.283 . S
C687 O699 1.281 . S
C687 O700 1.236 . S
C688 O710 1.240 . S
C688 O711 1.264 . S
O689 Mn684 2.095 . S
O689 C698 1.250 1_545 S
O690 Mn685 2.121 . S
O690 C698 1.258 . S
C691 N692 1.326 . S
C691 C695 1.460 . S
C691 H697 0.929 . S
N692 Mn685 2.257 . S
N692 C691 1.326 . S
N692 C696 1.362 . S
C693 C694 1.258 . S
C693 C696 1.431 . S
C693 C713 1.449 . S
C694 C693 1.258 . S
C694 C695 1.477 . S
C694 H714 0.931 . S
C695 C691 1.460 . S
C695 C694 1.477 . S
C695 H715 0.930 . S
C696 N692 1.362 . S
C696 C693 1.431 . S
C696 C706 1.476 . S
H697 C691 0.929 . S
C698 O689 1.250 1_565 S
C698 O690 1.258 . S
O699 Mn684 2.162 . S
O699 C687 1.281 . S
O700 Mn684 2.297 . S
O700 C687 1.236 . S
N701 Mn685 2.282 . S
N701 C702 1.328 . S
N701 C706 1.318 . S
C702 N701 1.328 . S
C702 C703 1.457 . S
C702 H707 0.929 . S
C703 C702 1.457 . S
C703 C704 1.291 . S
C703 H716 0.931 . S
C704 C703 1.291 . S
C704 C705 1.373 . S
C704 H717 0.929 . S
C705 C704 1.373 . S
C705 C706 1.396 . S
C705 C712 1.403 . S
C706 C696 1.476 . S
C706 N701 1.318 . S
C706 C705 1.396 . S
H707 C702 0.929 . S
O708 Mn684 2.385 . S
O708 C686 1.234 1_545 S
O709 Mn684 2.209 1_565 S
O709 Mn685 2.215 . S
O709 C686 1.283 . S
O710 Mn684 2.094 . S
O710 C688 1.240 . S
O711 Mn685 2.117 1_545 S
O711 C688 1.264 . S
C712 C705 1.403 . S
C712 C713 1.399 . S
C712 H718 0.929 . S
C713 C693 1.449 . S
C713 C712 1.399 . S
C713 H719 0.930 . S
H714 C694 0.931 . S
H715 C695 0.930 . S
H716 C703 0.931 . S
H717 C704 0.929 . S
H718 C712 0.929 . S
H719 C713 0.930 . S
Mn720 O725 2.095 . S
Mn720 O735 2.162 . S
Mn720 O736 2.297 . S
Mn720 O744 2.385 . S
Mn720 O745 2.209 1_554 S
Mn720 O746 2.094 . S
Mn721 O726 2.121 . S
Mn721 N728 2.257 . S
Mn721 N737 2.282 . S
Mn721 O745 2.215 . S
Mn721 O747 2.117 1_556 S
C722 O744 1.234 1_556 S
C722 O745 1.283 . S
C723 O735 1.281 . S
C723 O736 1.236 . S
C724 O746 1.240 . S
C724 O747 1.264 . S
O725 Mn720 2.095 . S
O725 C734 1.250 1_554 S
O726 Mn721 2.121 . S
O726 C734 1.258 . S
C727 N728 1.326 . S
C727 C731 1.460 . S
C727 H733 0.929 . S
N728 Mn721 2.257 . S
N728 C727 1.326 . S
N728 C732 1.362 . S
C729 C730 1.258 . S
C729 C732 1.431 . S
C729 C749 1.449 . S
C730 C729 1.258 . S
C730 C731 1.477 . S
C730 H750 0.931 . S
C731 C727 1.460 . S
C731 C730 1.477 . S
C731 H751 0.930 . S
C732 N728 1.362 . S
C732 C729 1.431 . S
C732 C742 1.476 . S
H733 C727 0.929 . S
C734 O725 1.250 1_556 S
C734 O726 1.258 . S
O735 Mn720 2.162 . S
O735 C723 1.281 . S
O736 Mn720 2.297 . S
O736 C723 1.236 . S
N737 Mn721 2.282 . S
N737 C738 1.328 . S
N737 C742 1.318 . S
C738 N737 1.328 . S
C738 C739 1.457 . S
C738 H743 0.929 . S
C739 C738 1.457 . S
C739 C740 1.291 . S
C739 H752 0.931 . S
C740 C739 1.291 . S
C740 C741 1.373 . S
C740 H753 0.929 . S
C741 C740 1.373 . S
C741 C742 1.396 . S
C741 C748 1.403 . S
C742 C732 1.476 . S
C742 N737 1.318 . S
C742 C741 1.396 . S
H743 C738 0.929 . S
O744 Mn720 2.385 . S
O744 C722 1.234 1_554 S
O745 Mn720 2.209 1_556 S
O745 Mn721 2.215 . S
O745 C722 1.283 . S
O746 Mn720 2.094 . S
O746 C724 1.240 . S
O747 Mn721 2.117 1_554 S
O747 C724 1.264 . S
C748 C741 1.403 . S
C748 C749 1.399 . S
C748 H754 0.929 . S
C749 C729 1.449 . S
C749 C748 1.399 . S
C749 H755 0.930 . S
H750 C730 0.931 . S
H751 C731 0.930 . S
H752 C739 0.931 . S
H753 C740 0.929 . S
H754 C748 0.929 . S
H755 C749 0.930 . S
Mn756 O761 2.095 . S
Mn756 O771 2.162 . S
Mn756 O772 2.297 . S
Mn756 O780 2.385 . S
Mn756 O781 2.209 . S
Mn756 O782 2.094 . S
Mn757 O762 2.121 . S
Mn757 N764 2.257 . S
Mn757 N773 2.282 . S
Mn757 O781 2.215 . S
Mn757 O783 2.117 . S
C758 O780 1.234 . S
C758 O781 1.283 . S
C759 O771 1.281 . S
C759 O772 1.236 . S
C760 O782 1.240 . S
C760 O783 1.264 . S
O761 Mn756 2.095 . S
O761 C770 1.250 . S
O762 Mn757 2.121 . S
O762 C770 1.258 . S
C763 N764 1.326 . S
C763 C767 1.460 . S
C763 H769 0.929 . S
N764 Mn757 2.257 . S
N764 C763 1.326 . S
N764 C768 1.362 . S
C765 C766 1.258 . S
C765 C768 1.431 . S
C765 C785 1.449 . S
C766 C765 1.258 . S
C766 C767 1.477 . S
C766 H786 0.931 . S
C767 C763 1.460 . S
C767 C766 1.477 . S
C767 H787 0.930 . S
C768 N764 1.362 . S
C768 C765 1.431 . S
C768 C778 1.476 . S
H769 C763 0.929 . S
C770 O761 1.250 . S
C770 O762 1.258 . S
O771 Mn756 2.162 . S
O771 C759 1.281 . S
O772 Mn756 2.297 . S
O772 C759 1.236 . S
N773 Mn757 2.282 . S
N773 C774 1.328 . S
N773 C778 1.318 . S
C774 N773 1.328 . S
C774 C775 1.457 . S
C774 H779 0.929 . S
C775 C774 1.457 . S
C775 C776 1.291 . S
C775 H788 0.931 . S
C776 C775 1.291 . S
C776 C777 1.373 . S
C776 H789 0.929 . S
C777 C776 1.373 . S
C777 C778 1.396 . S
C777 C784 1.403 . S
C778 C768 1.476 . S
C778 N773 1.318 . S
C778 C777 1.396 . S
H779 C774 0.929 . S
O780 Mn756 2.385 . S
O780 C758 1.234 . S
O781 Mn756 2.209 . S
O781 Mn757 2.215 . S
O781 C758 1.283 . S
O782 Mn756 2.094 . S
O782 C760 1.240 . S
O783 Mn757 2.117 . S
O783 C760 1.264 . S
C784 C777 1.403 . S
C784 C785 1.399 . S
C784 H790 0.929 . S
C785 C765 1.449 . S
C785 C784 1.399 . S
C785 H791 0.930 . S
H786 C766 0.931 . S
H787 C767 0.930 . S
H788 C775 0.931 . S
H789 C776 0.929 . S
H790 C784 0.929 . S
H791 C785 0.930 . S
Mn792 O797 2.095 . S
Mn792 O807 2.162 . S
Mn792 O808 2.297 . S
Mn792 O816 2.385 . S
Mn792 O817 2.209 . S
Mn792 O818 2.094 . S
Mn793 O798 2.121 . S
Mn793 N800 2.257 . S
Mn793 N809 2.282 . S
Mn793 O817 2.215 . S
Mn793 O819 2.117 . S
C794 O816 1.234 . S
C794 O817 1.283 . S
C795 O807 1.281 . S
C795 O808 1.236 . S
C796 O818 1.240 . S
C796 O819 1.264 . S
O797 Mn792 2.095 . S
O797 C806 1.250 . S
O798 Mn793 2.121 . S
O798 C806 1.258 . S
C799 N800 1.326 . S
C799 C803 1.460 . S
C799 H805 0.929 . S
N800 Mn793 2.257 . S
N800 C799 1.326 . S
N800 C804 1.362 . S
C801 C802 1.258 . S
C801 C804 1.431 . S
C801 C821 1.449 . S
C802 C801 1.258 . S
C802 C803 1.477 . S
C802 H822 0.931 . S
C803 C799 1.460 . S
C803 C802 1.477 . S
C803 H823 0.930 . S
C804 N800 1.362 . S
C804 C801 1.431 . S
C804 C814 1.476 . S
H805 C799 0.929 . S
C806 O797 1.250 . S
C806 O798 1.258 . S
O807 Mn792 2.162 . S
O807 C795 1.281 . S
O808 Mn792 2.297 . S
O808 C795 1.236 . S
N809 Mn793 2.282 . S
N809 C810 1.328 . S
N809 C814 1.318 . S
C810 N809 1.328 . S
C810 C811 1.457 . S
C810 H815 0.929 . S
C811 C810 1.457 . S
C811 C812 1.291 . S
C811 H824 0.931 . S
C812 C811 1.291 . S
C812 C813 1.373 . S
C812 H825 0.929 . S
C813 C812 1.373 . S
C813 C814 1.396 . S
C813 C820 1.403 . S
C814 C804 1.476 . S
C814 N809 1.318 . S
C814 C813 1.396 . S
H815 C810 0.929 . S
O816 Mn792 2.385 . S
O816 C794 1.234 . S
O817 Mn792 2.209 . S
O817 Mn793 2.215 . S
O817 C794 1.283 . S
O818 Mn792 2.094 . S
O818 C796 1.240 . S
O819 Mn793 2.117 . S
O819 C796 1.264 . S
C820 C813 1.403 . S
C820 C821 1.399 . S
C820 H826 0.929 . S
C821 C801 1.449 . S
C821 C820 1.399 . S
C821 H827 0.930 . S
H822 C802 0.931 . S
H823 C803 0.930 . S
H824 C811 0.931 . S
H825 C812 0.929 . S
H826 C820 0.929 . S
H827 C821 0.930 . S
Mn828 O833 2.095 . S
Mn828 O843 2.162 . S
Mn828 O844 2.297 . S
Mn828 O852 2.385 . S
Mn828 O853 2.209 . S
Mn828 O854 2.094 . S
Mn829 O834 2.121 . S
Mn829 N836 2.257 . S
Mn829 N845 2.282 . S
Mn829 O853 2.215 . S
Mn829 O855 2.117 . S
C830 O852 1.234 . S
C830 O853 1.283 . S
C831 O843 1.281 . S
C831 O844 1.236 . S
C832 O854 1.240 . S
C832 O855 1.264 . S
O833 Mn828 2.095 . S
O833 C842 1.250 . S
O834 Mn829 2.121 . S
O834 C842 1.258 . S
C835 N836 1.326 . S
C835 C839 1.460 . S
C835 H841 0.929 . S
N836 Mn829 2.257 . S
N836 C835 1.326 . S
N836 C840 1.362 . S
C837 C838 1.258 . S
C837 C840 1.431 . S
C837 C857 1.449 . S
C838 C837 1.258 . S
C838 C839 1.477 . S
C838 H858 0.931 . S
C839 C835 1.460 . S
C839 C838 1.477 . S
C839 H859 0.930 . S
C840 N836 1.362 . S
C840 C837 1.431 . S
C840 C850 1.476 . S
H841 C835 0.929 . S
C842 O833 1.250 . S
C842 O834 1.258 . S
O843 Mn828 2.162 . S
O843 C831 1.281 . S
O844 Mn828 2.297 . S
O844 C831 1.236 . S
N845 Mn829 2.282 . S
N845 C846 1.328 . S
N845 C850 1.318 . S
C846 N845 1.328 . S
C846 C847 1.457 . S
C846 H851 0.929 . S
C847 C846 1.457 . S
C847 C848 1.291 . S
C847 H860 0.931 . S
C848 C847 1.291 . S
C848 C849 1.373 . S
C848 H861 0.929 . S
C849 C848 1.373 . S
C849 C850 1.396 . S
C849 C856 1.403 . S
C850 C840 1.476 . S
C850 N845 1.318 . S
C850 C849 1.396 . S
H851 C846 0.929 . S
O852 Mn828 2.385 . S
O852 C830 1.234 . S
O853 Mn828 2.209 . S
O853 Mn829 2.215 . S
O853 C830 1.283 . S
O854 Mn828 2.094 . S
O854 C832 1.240 . S
O855 Mn829 2.117 . S
O855 C832 1.264 . S
C856 C849 1.403 . S
C856 C857 1.399 . S
C856 H862 0.929 . S
C857 C837 1.449 . S
C857 C856 1.399 . S
C857 H863 0.930 . S
H858 C838 0.931 . S
H859 C839 0.930 . S
H860 C847 0.931 . S
H861 C848 0.929 . S
H862 C856 0.929 . S
H863 C857 0.930 . S
Fe864 O866 1.918 . S
Fe864 O869 1.997 . S
Fe864 O870 2.002 . S
Fe864 O875 1.976 . S
Fe864 O878 1.996 . S
Fe865 O866 1.918 . S
Fe865 O873 1.997 . S
Fe865 O876 1.996 . S
Fe865 O880 1.976 . S
Fe865 O883 2.002 . S
O866 Fe864 1.918 . S
O866 Fe865 1.918 . S
O866 Fe867 1.918 . S
Fe867 O866 1.918 . S
Fe867 O868 2.002 . S
Fe867 O877 1.976 . S
Fe867 O881 1.996 . S
Fe867 O884 1.997 . S
O868 Fe867 2.002 . S
O868 C885 1.295 . S
O869 Fe864 1.997 . S
O869 C885 1.235 . S
O870 Fe864 2.002 . S
O870 C871 1.295 . S
C871 O870 1.295 . S
C871 O873 1.235 . S
C872 O877 1.287 . S
C872 O878 1.255 . S
O873 Fe865 1.997 . S
O873 C871 1.235 . S
C874 O880 1.287 . S
C874 O881 1.255 . S
O875 Fe864 1.976 . S
O875 C882 1.287 . S
O876 Fe865 1.996 . S
O876 C882 1.255 . S
O877 Fe867 1.976 . S
O877 C872 1.287 . S
O878 Fe864 1.996 . S
O878 C872 1.255 . S
C879 O883 1.295 . S
C879 O884 1.235 . S
O880 Fe865 1.976 . S
O880 C874 1.287 . S
O881 Fe867 1.996 . S
O881 C874 1.255 . S
C882 O875 1.287 . S
C882 O876 1.255 . S
O883 Fe865 2.002 . S
O883 C879 1.295 . S
O884 Fe867 1.997 . S
O884 C879 1.235 . S
C885 O868 1.295 . S
C885 O869 1.235 . S
Fe886 O888 1.918 . S
Fe886 O891 1.997 . S
Fe886 O892 2.002 . S
Fe886 O897 1.976 . S
Fe886 O900 1.996 . S
Fe887 O888 1.918 . S
Fe887 O895 1.997 . S
Fe887 O898 1.996 . S
Fe887 O902 1.976 . S
Fe887 O905 2.002 . S
O888 Fe886 1.918 . S
O888 Fe887 1.918 . S
O888 Fe889 1.918 . S
Fe889 O888 1.918 . S
Fe889 O890 2.002 . S
Fe889 O899 1.976 . S
Fe889 O903 1.996 . S
Fe889 O906 1.997 . S
O890 Fe889 2.002 . S
O890 C907 1.295 . S
O891 Fe886 1.997 . S
O891 C907 1.235 . S
O892 Fe886 2.002 . S
O892 C893 1.295 . S
C893 O892 1.295 . S
C893 O895 1.235 . S
C894 O899 1.287 . S
C894 O900 1.255 . S
O895 Fe887 1.997 . S
O895 C893 1.235 . S
C896 O902 1.287 . S
C896 O903 1.255 . S
O897 Fe886 1.976 . S
O897 C904 1.287 . S
O898 Fe887 1.996 . S
O898 C904 1.255 . S
O899 Fe889 1.976 . S
O899 C894 1.287 . S
O900 Fe886 1.996 . S
O900 C894 1.255 . S
C901 O905 1.295 . S
C901 O906 1.235 . S
O902 Fe887 1.976 . S
O902 C896 1.287 . S
O903 Fe889 1.996 . S
O903 C896 1.255 . S
C904 O897 1.287 . S
C904 O898 1.255 . S
O905 Fe887 2.002 . S
O905 C901 1.295 . S
O906 Fe889 1.997 . S
O906 C901 1.235 . S
C907 O890 1.295 . S
C907 O891 1.235 . S
Fe908 O910 1.918 . S
Fe908 O913 1.997 . S
Fe908 O914 2.002 . S
Fe908 O919 1.976 . S
Fe908 O922 1.996 . S
Fe909 O910 1.918 . S
Fe909 O917 1.997 . S
Fe909 O920 1.996 . S
Fe909 O924 1.976 . S
Fe909 O927 2.002 . S
O910 Fe908 1.918 . S
O910 Fe909 1.918 . S
O910 Fe911 1.918 . S
Fe911 O910 1.918 . S
Fe911 O912 2.002 . S
Fe911 O921 1.976 . S
Fe911 O925 1.996 . S
Fe911 O928 1.997 . S
O912 Fe911 2.002 . S
O912 C929 1.295 . S
O913 Fe908 1.997 . S
O913 C929 1.235 . S
O914 Fe908 2.002 . S
O914 C915 1.295 . S
C915 O914 1.295 . S
C915 O917 1.235 . S
C916 O921 1.287 . S
C916 O922 1.255 . S
O917 Fe909 1.997 . S
O917 C915 1.235 . S
C918 O924 1.287 . S
C918 O925 1.255 . S
O919 Fe908 1.976 . S
O919 C926 1.287 . S
O920 Fe909 1.996 . S
O920 C926 1.255 . S
O921 Fe911 1.976 . S
O921 C916 1.287 . S
O922 Fe908 1.996 . S
O922 C916 1.255 . S
C923 O927 1.295 . S
C923 O928 1.235 . S
O924 Fe909 1.976 . S
O924 C918 1.287 . S
O925 Fe911 1.996 . S
O925 C918 1.255 . S
C926 O919 1.287 . S
C926 O920 1.255 . S
O927 Fe909 2.002 . S
O927 C923 1.295 . S
O928 Fe911 1.997 . S
O928 C923 1.235 . S
C929 O912 1.295 . S
C929 O913 1.235 . S
Fe930 O932 1.918 . S
Fe930 O935 1.997 . S
Fe930 O936 2.002 . S
Fe930 O941 1.976 . S
Fe930 O944 1.996 . S
Fe931 O932 1.918 . S
Fe931 O939 1.997 . S
Fe931 O942 1.996 . S
Fe931 O946 1.976 . S
Fe931 O949 2.002 . S
O932 Fe930 1.918 . S
O932 Fe931 1.918 . S
O932 Fe933 1.918 . S
Fe933 O932 1.918 . S
Fe933 O934 2.002 . S
Fe933 O943 1.976 . S
Fe933 O947 1.996 . S
Fe933 O950 1.997 . S
O934 Fe933 2.002 . S
O934 C951 1.295 . S
O935 Fe930 1.997 . S
O935 C951 1.235 . S
O936 Fe930 2.002 . S
O936 C937 1.295 . S
C937 O936 1.295 . S
C937 O939 1.235 . S
C938 O943 1.287 . S
C938 O944 1.255 . S
O939 Fe931 1.997 . S
O939 C937 1.235 . S
C940 O946 1.287 . S
C940 O947 1.255 . S
O941 Fe930 1.976 . S
O941 C948 1.287 . S
O942 Fe931 1.996 . S
O942 C948 1.255 . S
O943 Fe933 1.976 . S
O943 C938 1.287 . S
O944 Fe930 1.996 . S
O944 C938 1.255 . S
C945 O949 1.295 . S
C945 O950 1.235 . S
O946 Fe931 1.976 . S
O946 C940 1.287 . S
O947 Fe933 1.996 . S
O947 C940 1.255 . S
C948 O941 1.287 . S
C948 O942 1.255 . S
O949 Fe931 2.002 . S
O949 C945 1.295 . S
O950 Fe933 1.997 . S
O950 C945 1.235 . S
C951 O934 1.295 . S
C951 O935 1.235 . S
Fe952 O954 1.918 . S
Fe952 O957 1.997 . S
Fe952 O958 2.002 . S
Fe952 O963 1.976 . S
Fe952 O966 1.996 . S
Fe953 O954 1.918 . S
Fe953 O961 1.997 . S
Fe953 O964 1.996 . S
Fe953 O968 1.976 . S
Fe953 O971 2.002 . S
O954 Fe952 1.918 . S
O954 Fe953 1.918 . S
O954 Fe955 1.918 . S
Fe955 O954 1.918 . S
Fe955 O956 2.002 . S
Fe955 O965 1.976 . S
Fe955 O969 1.996 . S
Fe955 O972 1.997 . S
O956 Fe955 2.002 . S
O956 C973 1.295 . S
O957 Fe952 1.997 . S
O957 C973 1.235 . S
O958 Fe952 2.002 . S
O958 C959 1.295 . S
C959 O958 1.295 . S
C959 O961 1.235 . S
C960 O965 1.287 . S
C960 O966 1.255 . S
O961 Fe953 1.997 . S
O961 C959 1.235 . S
C962 O968 1.287 . S
C962 O969 1.255 . S
O963 Fe952 1.976 . S
O963 C970 1.287 . S
O964 Fe953 1.996 . S
O964 C970 1.255 . S
O965 Fe955 1.976 . S
O965 C960 1.287 . S
O966 Fe952 1.996 . S
O966 C960 1.255 . S
C967 O971 1.295 . S
C967 O972 1.235 . S
O968 Fe953 1.976 . S
O968 C962 1.287 . S
O969 Fe955 1.996 . S
O969 C962 1.255 . S
C970 O963 1.287 . S
C970 O964 1.255 . S
O971 Fe953 2.002 . S
O971 C967 1.295 . S
O972 Fe955 1.997 . S
O972 C967 1.235 . S
C973 O956 1.295 . S
C973 O957 1.235 . S
Fe974 O976 1.918 . S
Fe974 O979 1.997 . S
Fe974 O980 2.002 . S
Fe974 O985 1.976 . S
Fe974 O988 1.996 . S
Fe975 O976 1.918 . S
Fe975 O983 1.997 . S
Fe975 O986 1.996 . S
Fe975 O990 1.976 . S
Fe975 O993 2.002 . S
O976 Fe974 1.918 . S
O976 Fe975 1.918 . S
O976 Fe977 1.918 . S
Fe977 O976 1.918 . S
Fe977 O978 2.002 . S
Fe977 O987 1.976 . S
Fe977 O991 1.996 . S
Fe977 O994 1.997 . S
O978 Fe977 2.002 . S
O978 C995 1.295 . S
O979 Fe974 1.997 . S
O979 C995 1.235 . S
O980 Fe974 2.002 . S
O980 C981 1.295 . S
C981 O980 1.295 . S
C981 O983 1.235 . S
C982 O987 1.287 . S
C982 O988 1.255 . S
O983 Fe975 1.997 . S
O983 C981 1.235 . S
C984 O990 1.287 . S
C984 O991 1.255 . S
O985 Fe974 1.976 . S
O985 C992 1.287 . S
O986 Fe975 1.996 . S
O986 C992 1.255 . S
O987 Fe977 1.976 . S
O987 C982 1.287 . S
O988 Fe974 1.996 . S
O988 C982 1.255 . S
C989 O993 1.295 . S
C989 O994 1.235 . S
O990 Fe975 1.976 . S
O990 C984 1.287 . S
O991 Fe977 1.996 . S
O991 C984 1.255 . S
C992 O985 1.287 . S
C992 O986 1.255 . S
O993 Fe975 2.002 . S
O993 C989 1.295 . S
O994 Fe977 1.997 . S
O994 C989 1.235 . S
C995 O978 1.295 . S
C995 O979 1.235 . S
Fe996 O998 1.918 . S
Fe996 O1001 1.997 . S
Fe996 O1002 2.002 . S
Fe996 O1007 1.976 . S
Fe996 O1010 1.996 . S
Fe997 O998 1.918 . S
Fe997 O1005 1.997 . S
Fe997 O1008 1.996 . S
Fe997 O1012 1.976 . S
Fe997 O1015 2.002 . S
O998 Fe996 1.918 . S
O998 Fe997 1.918 . S
O998 Fe999 1.918 . S
Fe999 O998 1.918 . S
Fe999 O1000 2.002 . S
Fe999 O1009 1.976 . S
Fe999 O1013 1.996 . S
Fe999 O1016 1.997 . S
O1000 Fe999 2.002 . S
O1000 C1017 1.295 . S
O1001 Fe996 1.997 . S
O1001 C1017 1.235 . S
O1002 Fe996 2.002 . S
O1002 C1003 1.295 . S
C1003 O1002 1.295 . S
C1003 O1005 1.235 . S
C1004 O1009 1.287 . S
C1004 O1010 1.255 . S
O1005 Fe997 1.997 . S
O1005 C1003 1.235 . S
C1006 O1012 1.287 . S
C1006 O1013 1.255 . S
O1007 Fe996 1.976 . S
O1007 C1014 1.287 . S
O1008 Fe997 1.996 . S
O1008 C1014 1.255 . S
O1009 Fe999 1.976 . S
O1009 C1004 1.287 . S
O1010 Fe996 1.996 . S
O1010 C1004 1.255 . S
C1011 O1015 1.295 . S
C1011 O1016 1.235 . S
O1012 Fe997 1.976 . S
O1012 C1006 1.287 . S
O1013 Fe999 1.996 . S
O1013 C1006 1.255 . S
C1014 O1007 1.287 . S
C1014 O1008 1.255 . S
O1015 Fe997 2.002 . S
O1015 C1011 1.295 . S
O1016 Fe999 1.997 . S
O1016 C1011 1.235 . S
C1017 O1000 1.295 . S
C1017 O1001 1.235 . S
Fe1018 O1020 1.918 . S
Fe1018 O1023 1.997 . S
Fe1018 O1024 2.002 . S
Fe1018 O1029 1.976 . S
Fe1018 O1032 1.996 . S
Fe1019 O1020 1.918 . S
Fe1019 O1027 1.997 . S
Fe1019 O1030 1.996 . S
Fe1019 O1034 1.976 . S
Fe1019 O1037 2.002 . S
O1020 Fe1018 1.918 . S
O1020 Fe1019 1.918 . S
O1020 Fe1021 1.918 . S
Fe1021 O1020 1.918 . S
Fe1021 O1022 2.002 . S
Fe1021 O1031 1.976 . S
Fe1021 O1035 1.996 . S
Fe1021 O1038 1.997 . S
O1022 Fe1021 2.002 . S
O1022 C1039 1.295 . S
O1023 Fe1018 1.997 . S
O1023 C1039 1.235 . S
O1024 Fe1018 2.002 . S
O1024 C1025 1.295 . S
C1025 O1024 1.295 . S
C1025 O1027 1.235 . S
C1026 O1031 1.287 . S
C1026 O1032 1.255 . S
O1027 Fe1019 1.997 . S
O1027 C1025 1.235 . S
C1028 O1034 1.287 . S
C1028 O1035 1.255 . S
O1029 Fe1018 1.976 . S
O1029 C1036 1.287 . S
O1030 Fe1019 1.996 . S
O1030 C1036 1.255 . S
O1031 Fe1021 1.976 . S
O1031 C1026 1.287 . S
O1032 Fe1018 1.996 . S
O1032 C1026 1.255 . S
C1033 O1037 1.295 . S
C1033 O1038 1.235 . S
O1034 Fe1019 1.976 . S
O1034 C1028 1.287 . S
O1035 Fe1021 1.996 . S
O1035 C1028 1.255 . S
C1036 O1029 1.287 . S
C1036 O1030 1.255 . S
O1037 Fe1019 2.002 . S
O1037 C1033 1.295 . S
O1038 Fe1021 1.997 . S
O1038 C1033 1.235 . S
C1039 O1022 1.295 . S
C1039 O1023 1.235 . S
Fe1040 O1042 1.918 . S
Fe1040 O1045 1.997 . S
Fe1040 O1046 2.002 . S
Fe1040 O1051 1.976 . S
Fe1040 O1054 1.996 . S
Fe1041 O1042 1.918 . S
Fe1041 O1049 1.997 . S
Fe1041 O1052 1.996 . S
Fe1041 O1056 1.976 . S
Fe1041 O1059 2.002 . S
O1042 Fe1040 1.918 . S
O1042 Fe1041 1.918 . S
O1042 Fe1043 1.918 . S
Fe1043 O1042 1.918 . S
Fe1043 O1044 2.002 . S
Fe1043 O1053 1.976 . S
Fe1043 O1057 1.996 . S
Fe1043 O1060 1.997 . S
O1044 Fe1043 2.002 . S
O1044 C1061 1.295 . S
O1045 Fe1040 1.997 . S
O1045 C1061 1.235 . S
O1046 Fe1040 2.002 . S
O1046 C1047 1.295 . S
C1047 O1046 1.295 . S
C1047 O1049 1.235 . S
C1048 O1053 1.287 . S
C1048 O1054 1.255 . S
O1049 Fe1041 1.997 . S
O1049 C1047 1.235 . S
C1050 O1056 1.287 . S
C1050 O1057 1.255 . S
O1051 Fe1040 1.976 . S
O1051 C1058 1.287 . S
O1052 Fe1041 1.996 . S
O1052 C1058 1.255 . S
O1053 Fe1043 1.976 . S
O1053 C1048 1.287 . S
O1054 Fe1040 1.996 . S
O1054 C1048 1.255 . S
C1055 O1059 1.295 . S
C1055 O1060 1.235 . S
O1056 Fe1041 1.976 . S
O1056 C1050 1.287 . S
O1057 Fe1043 1.996 . S
O1057 C1050 1.255 . S
C1058 O1051 1.287 . S
C1058 O1052 1.255 . S
O1059 Fe1041 2.002 . S
O1059 C1055 1.295 . S
O1060 Fe1043 1.997 . S
O1060 C1055 1.235 . S
C1061 O1044 1.295 . S
C1061 O1045 1.235 . S
Fe1062 O1064 1.918 . S
Fe1062 O1067 1.997 . S
Fe1062 O1068 2.002 . S
Fe1062 O1073 1.976 . S
Fe1062 O1076 1.996 . S
Fe1063 O1064 1.918 . S
Fe1063 O1071 1.997 . S
Fe1063 O1074 1.996 . S
Fe1063 O1078 1.976 . S
Fe1063 O1081 2.002 . S
O1064 Fe1062 1.918 . S
O1064 Fe1063 1.918 . S
O1064 Fe1065 1.918 . S
Fe1065 O1064 1.918 . S
Fe1065 O1066 2.002 . S
Fe1065 O1075 1.976 . S
Fe1065 O1079 1.996 . S
Fe1065 O1082 1.997 . S
O1066 Fe1065 2.002 . S
O1066 C1083 1.295 . S
O1067 Fe1062 1.997 . S
O1067 C1083 1.235 . S
O1068 Fe1062 2.002 . S
O1068 C1069 1.295 . S
C1069 O1068 1.295 . S
C1069 O1071 1.235 . S
C1070 O1075 1.287 . S
C1070 O1076 1.255 . S
O1071 Fe1063 1.997 . S
O1071 C1069 1.235 . S
C1072 O1078 1.287 . S
C1072 O1079 1.255 . S
O1073 Fe1062 1.976 . S
O1073 C1080 1.287 . S
O1074 Fe1063 1.996 . S
O1074 C1080 1.255 . S
O1075 Fe1065 1.976 . S
O1075 C1070 1.287 . S
O1076 Fe1062 1.996 . S
O1076 C1070 1.255 . S
C1077 O1081 1.295 . S
C1077 O1082 1.235 . S
O1078 Fe1063 1.976 . S
O1078 C1072 1.287 . S
O1079 Fe1065 1.996 . S
O1079 C1072 1.255 . S
C1080 O1073 1.287 . S
C1080 O1074 1.255 . S
O1081 Fe1063 2.002 . S
O1081 C1077 1.295 . S
O1082 Fe1065 1.997 . S
O1082 C1077 1.235 . S
C1083 O1066 1.295 . S
C1083 O1067 1.235 . S
Fe1084 O1086 1.918 . S
Fe1084 O1089 1.997 . S
Fe1084 O1090 2.002 . S
Fe1084 O1095 1.976 . S
Fe1084 O1098 1.996 . S
Fe1085 O1086 1.918 . S
Fe1085 O1093 1.997 . S
Fe1085 O1096 1.996 . S
Fe1085 O1100 1.976 . S
Fe1085 O1103 2.002 . S
O1086 Fe1084 1.918 . S
O1086 Fe1085 1.918 . S
O1086 Fe1087 1.918 . S
Fe1087 O1086 1.918 . S
Fe1087 O1088 2.002 . S
Fe1087 O1097 1.976 . S
Fe1087 O1101 1.996 . S
Fe1087 O1104 1.997 . S
O1088 Fe1087 2.002 . S
O1088 C1105 1.295 . S
O1089 Fe1084 1.997 . S
O1089 C1105 1.235 . S
O1090 Fe1084 2.002 . S
O1090 C1091 1.295 . S
C1091 O1090 1.295 . S
C1091 O1093 1.235 . S
C1092 O1097 1.287 . S
C1092 O1098 1.255 . S
O1093 Fe1085 1.997 . S
O1093 C1091 1.235 . S
C1094 O1100 1.287 . S
C1094 O1101 1.255 . S
O1095 Fe1084 1.976 . S
O1095 C1102 1.287 . S
O1096 Fe1085 1.996 . S
O1096 C1102 1.255 . S
O1097 Fe1087 1.976 . S
O1097 C1092 1.287 . S
O1098 Fe1084 1.996 . S
O1098 C1092 1.255 . S
C1099 O1103 1.295 . S
C1099 O1104 1.235 . S
O1100 Fe1085 1.976 . S
O1100 C1094 1.287 . S
O1101 Fe1087 1.996 . S
O1101 C1094 1.255 . S
C1102 O1095 1.287 . S
C1102 O1096 1.255 . S
O1103 Fe1085 2.002 . S
O1103 C1099 1.295 . S
O1104 Fe1087 1.997 . S
O1104 C1099 1.235 . S
C1105 O1088 1.295 . S
C1105 O1089 1.235 . S
Fe1106 O1108 1.918 . S
Fe1106 O1111 1.997 . S
Fe1106 O1112 2.002 . S
Fe1106 O1117 1.976 . S
Fe1106 O1120 1.996 . S
Fe1107 O1108 1.918 . S
Fe1107 O1115 1.997 . S
Fe1107 O1118 1.996 . S
Fe1107 O1122 1.976 . S
Fe1107 O1125 2.002 . S
O1108 Fe1106 1.918 . S
O1108 Fe1107 1.918 . S
O1108 Fe1109 1.918 . S
Fe1109 O1108 1.918 . S
Fe1109 O1110 2.002 . S
Fe1109 O1119 1.976 . S
Fe1109 O1123 1.996 . S
Fe1109 O1126 1.997 . S
O1110 Fe1109 2.002 . S
O1110 C1127 1.295 . S
O1111 Fe1106 1.997 . S
O1111 C1127 1.235 . S
O1112 Fe1106 2.002 . S
O1112 C1113 1.295 . S
C1113 O1112 1.295 . S
C1113 O1115 1.235 . S
C1114 O1119 1.287 . S
C1114 O1120 1.255 . S
O1115 Fe1107 1.997 . S
O1115 C1113 1.235 . S
C1116 O1122 1.287 . S
C1116 O1123 1.255 . S
O1117 Fe1106 1.976 . S
O1117 C1124 1.287 . S
O1118 Fe1107 1.996 . S
O1118 C1124 1.255 . S
O1119 Fe1109 1.976 . S
O1119 C1114 1.287 . S
O1120 Fe1106 1.996 . S
O1120 C1114 1.255 . S
C1121 O1125 1.295 . S
C1121 O1126 1.235 . S
O1122 Fe1107 1.976 . S
O1122 C1116 1.287 . S
O1123 Fe1109 1.996 . S
O1123 C1116 1.255 . S
C1124 O1117 1.287 . S
C1124 O1118 1.255 . S
O1125 Fe1107 2.002 . S
O1125 C1121 1.295 . S
O1126 Fe1109 1.997 . S
O1126 C1121 1.235 . S
C1127 O1110 1.295 . S
C1127 O1111 1.235 . S
Fe1128 O1130 1.918 . S
Fe1128 O1133 1.997 . S
Fe1128 O1134 2.002 . S
Fe1128 O1139 1.976 . S
Fe1128 O1142 1.996 . S
Fe1129 O1130 1.918 . S
Fe1129 O1137 1.997 . S
Fe1129 O1140 1.996 . S
Fe1129 O1144 1.976 . S
Fe1129 O1147 2.002 . S
O1130 Fe1128 1.918 . S
O1130 Fe1129 1.918 . S
O1130 Fe1131 1.918 . S
Fe1131 O1130 1.918 . S
Fe1131 O1132 2.002 . S
Fe1131 O1141 1.976 . S
Fe1131 O1145 1.996 . S
Fe1131 O1148 1.997 . S
O1132 Fe1131 2.002 . S
O1132 C1149 1.295 . S
O1133 Fe1128 1.997 . S
O1133 C1149 1.235 . S
O1134 Fe1128 2.002 . S
O1134 C1135 1.295 . S
C1135 O1134 1.295 . S
C1135 O1137 1.235 . S
C1136 O1141 1.287 . S
C1136 O1142 1.255 . S
O1137 Fe1129 1.997 . S
O1137 C1135 1.235 . S
C1138 O1144 1.287 . S
C1138 O1145 1.255 . S
O1139 Fe1128 1.976 . S
O1139 C1146 1.287 . S
O1140 Fe1129 1.996 . S
O1140 C1146 1.255 . S
O1141 Fe1131 1.976 . S
O1141 C1136 1.287 . S
O1142 Fe1128 1.996 . S
O1142 C1136 1.255 . S
C1143 O1147 1.295 . S
C1143 O1148 1.235 . S
O1144 Fe1129 1.976 . S
O1144 C1138 1.287 . S
O1145 Fe1131 1.996 . S
O1145 C1138 1.255 . S
C1146 O1139 1.287 . S
C1146 O1140 1.255 . S
O1147 Fe1129 2.002 . S
O1147 C1143 1.295 . S
O1148 Fe1131 1.997 . S
O1148 C1143 1.235 . S
C1149 O1132 1.295 . S
C1149 O1133 1.235 . S
Fe1150 O1152 1.918 . S
Fe1150 O1155 1.997 . S
Fe1150 O1156 2.002 . S
Fe1150 O1161 1.976 . S
Fe1150 O1164 1.996 . S
Fe1151 O1152 1.918 . S
Fe1151 O1159 1.997 . S
Fe1151 O1162 1.996 . S
Fe1151 O1166 1.976 . S
Fe1151 O1169 2.002 . S
O1152 Fe1150 1.918 . S
O1152 Fe1151 1.918 . S
O1152 Fe1153 1.918 . S
Fe1153 O1152 1.918 . S
Fe1153 O1154 2.002 . S
Fe1153 O1163 1.976 . S
Fe1153 O1167 1.996 . S
Fe1153 O1170 1.997 . S
O1154 Fe1153 2.002 . S
O1154 C1171 1.295 . S
O1155 Fe1150 1.997 . S
O1155 C1171 1.235 . S
O1156 Fe1150 2.002 . S
O1156 C1157 1.295 . S
C1157 O1156 1.295 . S
C1157 O1159 1.235 . S
C1158 O1163 1.287 . S
C1158 O1164 1.255 . S
O1159 Fe1151 1.997 . S
O1159 C1157 1.235 . S
C1160 O1166 1.287 . S
C1160 O1167 1.255 . S
O1161 Fe1150 1.976 . S
O1161 C1168 1.287 . S
O1162 Fe1151 1.996 . S
O1162 C1168 1.255 . S
O1163 Fe1153 1.976 . S
O1163 C1158 1.287 . S
O1164 Fe1150 1.996 . S
O1164 C1158 1.255 . S
C1165 O1169 1.295 . S
C1165 O1170 1.235 . S
O1166 Fe1151 1.976 . S
O1166 C1160 1.287 . S
O1167 Fe1153 1.996 . S
O1167 C1160 1.255 . S
C1168 O1161 1.287 . S
C1168 O1162 1.255 . S
O1169 Fe1151 2.002 . S
O1169 C1165 1.295 . S
O1170 Fe1153 1.997 . S
O1170 C1165 1.235 . S
C1171 O1154 1.295 . S
C1171 O1155 1.235 . S
Fe1172 O1174 1.918 . S
Fe1172 O1177 1.997 . S
Fe1172 O1178 2.002 . S
Fe1172 O1183 1.976 . S
Fe1172 O1186 1.996 . S
Fe1173 O1174 1.918 . S
Fe1173 O1181 1.997 . S
Fe1173 O1184 1.996 . S
Fe1173 O1188 1.976 . S
Fe1173 O1191 2.002 . S
O1174 Fe1172 1.918 . S
O1174 Fe1173 1.918 . S
O1174 Fe1175 1.918 . S
Fe1175 O1174 1.918 . S
Fe1175 O1176 2.002 . S
Fe1175 O1185 1.976 . S
Fe1175 O1189 1.996 . S
Fe1175 O1192 1.997 . S
O1176 Fe1175 2.002 . S
O1176 C1193 1.295 . S
O1177 Fe1172 1.997 . S
O1177 C1193 1.235 . S
O1178 Fe1172 2.002 . S
O1178 C1179 1.295 . S
C1179 O1178 1.295 . S
C1179 O1181 1.235 . S
C1180 O1185 1.287 . S
C1180 O1186 1.255 . S
O1181 Fe1173 1.997 . S
O1181 C1179 1.235 . S
C1182 O1188 1.287 . S
C1182 O1189 1.255 . S
O1183 Fe1172 1.976 . S
O1183 C1190 1.287 . S
O1184 Fe1173 1.996 . S
O1184 C1190 1.255 . S
O1185 Fe1175 1.976 . S
O1185 C1180 1.287 . S
O1186 Fe1172 1.996 . S
O1186 C1180 1.255 . S
C1187 O1191 1.295 . S
C1187 O1192 1.235 . S
O1188 Fe1173 1.976 . S
O1188 C1182 1.287 . S
O1189 Fe1175 1.996 . S
O1189 C1182 1.255 . S
C1190 O1183 1.287 . S
C1190 O1184 1.255 . S
O1191 Fe1173 2.002 . S
O1191 C1187 1.295 . S
O1192 Fe1175 1.997 . S
O1192 C1187 1.235 . S
C1193 O1176 1.295 . S
C1193 O1177 1.235 . S
Fe1194 O1196 1.918 . S
Fe1194 O1199 1.997 . S
Fe1194 O1200 2.002 . S
Fe1194 O1205 1.976 . S
Fe1194 O1208 1.996 . S
Fe1195 O1196 1.918 . S
Fe1195 O1203 1.997 . S
Fe1195 O1206 1.996 . S
Fe1195 O1210 1.976 . S
Fe1195 O1213 2.002 . S
O1196 Fe1194 1.918 . S
O1196 Fe1195 1.918 . S
O1196 Fe1197 1.918 . S
Fe1197 O1196 1.918 . S
Fe1197 O1198 2.002 . S
Fe1197 O1207 1.976 . S
Fe1197 O1211 1.996 . S
Fe1197 O1214 1.997 . S
O1198 Fe1197 2.002 . S
O1198 C1215 1.295 . S
O1199 Fe1194 1.997 . S
O1199 C1215 1.235 . S
O1200 Fe1194 2.002 . S
O1200 C1201 1.295 . S
C1201 O1200 1.295 . S
C1201 O1203 1.235 . S
C1202 O1207 1.287 . S
C1202 O1208 1.255 . S
O1203 Fe1195 1.997 . S
O1203 C1201 1.235 . S
C1204 O1210 1.287 . S
C1204 O1211 1.255 . S
O1205 Fe1194 1.976 . S
O1205 C1212 1.287 . S
O1206 Fe1195 1.996 . S
O1206 C1212 1.255 . S
O1207 Fe1197 1.976 . S
O1207 C1202 1.287 . S
O1208 Fe1194 1.996 . S
O1208 C1202 1.255 . S
C1209 O1213 1.295 . S
C1209 O1214 1.235 . S
O1210 Fe1195 1.976 . S
O1210 C1204 1.287 . S
O1211 Fe1197 1.996 . S
O1211 C1204 1.255 . S
C1212 O1205 1.287 . S
C1212 O1206 1.255 . S
O1213 Fe1195 2.002 . S
O1213 C1209 1.295 . S
O1214 Fe1197 1.997 . S
O1214 C1209 1.235 . S
C1215 O1198 1.295 . S
C1215 O1199 1.235 . S
C1216 C1217 1.349 . S
C1216 C1218 1.327 . S
C1216 H1241 0.950 . S
C1217 C1216 1.349 . S
C1217 C1233 1.349 . S
C1218 C1216 1.327 . S
C1218 C1237 1.429 . S
C1218 H1242 0.950 . S
C1219 C1236 1.574 . S
C1219 C1238 1.368 . S
C1219 H1243 0.949 . S
H1220 C1224 0.949 . S
C1221 C1222 1.349 . S
C1221 C1223 1.327 . S
C1221 H1244 0.950 . S
C1222 C1221 1.349 . S
C1222 C1234 1.349 . S
C1223 C1221 1.327 . S
C1223 C1239 1.429 . S
C1223 H1245 0.950 . S
C1224 H1220 0.949 . S
C1224 C1232 1.574 . S
C1224 C1240 1.368 . S
H1225 C1233 0.950 . S
H1226 C1231 0.950 . S
H1227 C1232 0.949 . S
H1228 C1234 0.950 . S
H1229 C1235 0.950 . S
H1230 C1236 0.949 . S
C1231 H1226 0.950 . S
C1231 C1233 1.327 . S
C1231 C1237 1.429 . S
C1232 C1224 1.574 . S
C1232 H1227 0.949 . S
C1232 C1238 1.368 . S
C1233 C1217 1.349 . S
C1233 H1225 0.950 . S
C1233 C1231 1.327 . S
C1234 C1222 1.349 . S
C1234 H1228 0.950 . S
C1234 C1235 1.327 . S
C1235 H1229 0.950 . S
C1235 C1234 1.327 . S
C1235 C1239 1.429 . S
C1236 C1219 1.574 . S
C1236 H1230 0.949 . S
C1236 C1240 1.368 . S
C1237 C1218 1.429 . S
C1237 C1231 1.429 . S
C1237 C1238 1.523 . S
C1238 C1219 1.368 . S
C1238 C1232 1.368 . S
C1238 C1237 1.523 . S
C1239 C1223 1.429 . S
C1239 C1235 1.429 . S
C1239 C1240 1.523 . S
C1240 C1224 1.368 . S
C1240 C1236 1.368 . S
C1240 C1239 1.523 . S
H1241 C1216 0.950 . S
H1242 C1218 0.950 . S
H1243 C1219 0.949 . S
H1244 C1221 0.950 . S
H1245 C1223 0.950 . S
C1246 C1247 1.349 . S
C1246 C1248 1.327 . S
C1246 H1271 0.950 . S
C1247 C1246 1.349 . S
C1247 C1263 1.349 . S
C1248 C1246 1.327 . S
C1248 C1267 1.429 . S
C1248 H1272 0.950 . S
C1249 C1266 1.574 . S
C1249 C1268 1.368 . S
C1249 H1273 0.949 . S
H1250 C1254 0.949 . S
C1251 C1252 1.349 . S
C1251 C1253 1.327 . S
C1251 H1274 0.950 . S
C1252 C1251 1.349 . S
C1252 C1264 1.349 . S
C1253 C1251 1.327 . S
C1253 C1269 1.429 . S
C1253 H1275 0.950 . S
C1254 H1250 0.949 . S
C1254 C1262 1.574 . S
C1254 C1270 1.368 . S
H1255 C1263 0.950 . S
H1256 C1261 0.950 . S
H1257 C1262 0.949 . S
H1258 C1264 0.950 . S
H1259 C1265 0.950 . S
H1260 C1266 0.949 . S
C1261 H1256 0.950 . S
C1261 C1263 1.327 . S
C1261 C1267 1.429 . S
C1262 C1254 1.574 . S
C1262 H1257 0.949 . S
C1262 C1268 1.368 . S
C1263 C1247 1.349 . S
C1263 H1255 0.950 . S
C1263 C1261 1.327 . S
C1264 C1252 1.349 . S
C1264 H1258 0.950 . S
C1264 C1265 1.327 . S
C1265 H1259 0.950 . S
C1265 C1264 1.327 . S
C1265 C1269 1.429 . S
C1266 C1249 1.574 . S
C1266 H1260 0.949 . S
C1266 C1270 1.368 . S
C1267 C1248 1.429 . S
C1267 C1261 1.429 . S
C1267 C1268 1.523 . S
C1268 C1249 1.368 . S
C1268 C1262 1.368 . S
C1268 C1267 1.523 . S
C1269 C1253 1.429 . S
C1269 C1265 1.429 . S
C1269 C1270 1.523 . S
C1270 C1254 1.368 . S
C1270 C1266 1.368 . S
C1270 C1269 1.523 . S
H1271 C1246 0.950 . S
H1272 C1248 0.950 . S
H1273 C1249 0.949 . S
H1274 C1251 0.950 . S
H1275 C1253 0.950 . S
C1276 C1277 1.349 . S
C1276 C1278 1.327 . S
C1276 H1301 0.950 . S
C1277 C1276 1.349 . S
C1277 C1293 1.349 . S
C1278 C1276 1.327 . S
C1278 C1297 1.429 . S
C1278 H1302 0.950 . S
C1279 C1296 1.574 . S
C1279 C1298 1.368 . S
C1279 H1303 0.949 . S
H1280 C1284 0.949 . S
C1281 C1282 1.349 . S
C1281 C1283 1.327 . S
C1281 H1304 0.950 . S
C1282 C1281 1.349 . S
C1282 C1294 1.349 . S
C1283 C1281 1.327 . S
C1283 C1299 1.429 . S
C1283 H1305 0.950 . S
C1284 H1280 0.949 . S
C1284 C1292 1.574 . S
C1284 C1300 1.368 . S
H1285 C1293 0.950 . S
H1286 C1291 0.950 . S
H1287 C1292 0.949 . S
H1288 C1294 0.950 . S
H1289 C1295 0.950 . S
H1290 C1296 0.949 . S
C1291 H1286 0.950 . S
C1291 C1293 1.327 . S
C1291 C1297 1.429 . S
C1292 C1284 1.574 . S
C1292 H1287 0.949 . S
C1292 C1298 1.368 . S
C1293 C1277 1.349 . S
C1293 H1285 0.950 . S
C1293 C1291 1.327 . S
C1294 C1282 1.349 . S
C1294 H1288 0.950 . S
C1294 C1295 1.327 . S
C1295 H1289 0.950 . S
C1295 C1294 1.327 . S
C1295 C1299 1.429 . S
C1296 C1279 1.574 . S
C1296 H1290 0.949 . S
C1296 C1300 1.368 . S
C1297 C1278 1.429 . S
C1297 C1291 1.429 . S
C1297 C1298 1.523 . S
C1298 C1279 1.368 . S
C1298 C1292 1.368 . S
C1298 C1297 1.523 . S
C1299 C1283 1.429 . S
C1299 C1295 1.429 . S
C1299 C1300 1.523 . S
C1300 C1284 1.368 . S
C1300 C1296 1.368 . S
C1300 C1299 1.523 . S
H1301 C1276 0.950 . S
H1302 C1278 0.950 . S
H1303 C1279 0.949 . S
H1304 C1281 0.950 . S
H1305 C1283 0.950 . S
C1306 C1307 1.349 . S
C1306 C1308 1.327 . S
C1306 H1331 0.950 . S
C1307 C1306 1.349 . S
C1307 C1323 1.349 . S
C1308 C1306 1.327 . S
C1308 C1327 1.429 . S
C1308 H1332 0.950 . S
C1309 C1326 1.574 . S
C1309 C1328 1.368 . S
C1309 H1333 0.949 . S
H1310 C1314 0.949 . S
C1311 C1312 1.349 . S
C1311 C1313 1.327 . S
C1311 H1334 0.950 . S
C1312 C1311 1.349 . S
C1312 C1324 1.349 . S
C1313 C1311 1.327 . S
C1313 C1329 1.429 . S
C1313 H1335 0.950 . S
C1314 H1310 0.949 . S
C1314 C1322 1.574 . S
C1314 C1330 1.368 . S
H1315 C1323 0.950 . S
H1316 C1321 0.950 . S
H1317 C1322 0.949 . S
H1318 C1324 0.950 . S
H1319 C1325 0.961 . S
H1320 C1326 0.949 1_556 S
C1321 H1316 0.950 . S
C1321 C1323 1.327 . S
C1321 C1327 1.429 . S
C1322 C1314 1.574 . S
C1322 H1317 0.949 . S
C1322 C1328 1.368 . S
C1323 C1307 1.349 . S
C1323 H1315 0.950 . S
C1323 C1321 1.327 . S
C1324 C1312 1.349 . S
C1324 H1318 0.950 . S
C1324 C1325 1.327 . S
C1325 H1319 0.961 . S
C1325 C1324 1.327 . S
C1325 C1329 1.429 . S
C1326 C1309 1.574 . S
C1326 H1320 0.949 1_554 S
C1326 C1330 1.368 . S
C1327 C1308 1.429 . S
C1327 C1321 1.429 . S
C1327 C1328 1.523 . S
C1328 C1309 1.368 . S
C1328 C1322 1.368 . S
C1328 C1327 1.523 . S
C1329 C1313 1.429 . S
C1329 C1325 1.429 . S
C1329 C1330 1.523 1_556 S
C1330 C1314 1.368 . S
C1330 C1326 1.368 . S
C1330 C1329 1.523 1_554 S
H1331 C1306 0.950 . S
H1332 C1308 0.950 . S
H1333 C1309 0.949 . S
H1334 C1311 0.950 . S
H1335 C1313 0.950 . S
C1336 C1337 1.349 . S
C1336 C1338 1.327 . S
C1336 H1361 0.950 . S
C1337 C1336 1.349 . S
C1337 C1353 1.349 . S
C1338 C1336 1.327 . S
C1338 C1357 1.429 . S
C1338 H1362 0.950 . S
C1339 C1356 1.574 . S
C1339 C1358 1.368 . S
C1339 H1363 0.949 . S
H1340 C1344 0.949 . S
C1341 C1342 1.349 . S
C1341 C1343 1.327 . S
C1341 H1364 0.950 . S
C1342 C1341 1.349 . S
C1342 C1354 1.349 . S
C1343 C1341 1.327 . S
C1343 C1359 1.429 . S
C1343 H1365 0.950 . S
C1344 H1340 0.949 . S
C1344 C1352 1.574 . S
C1344 C1360 1.368 . S
H1345 C1353 0.950 . S
H1346 C1351 0.950 . S
H1347 C1352 0.949 . S
H1348 C1354 0.950 . S
H1349 C1355 0.950 . S
H1350 C1356 0.949 . S
C1351 H1346 0.950 . S
C1351 C1353 1.327 . S
C1351 C1357 1.429 . S
C1352 C1344 1.574 . S
C1352 H1347 0.949 . S
C1352 C1358 1.368 . S
C1353 C1337 1.349 . S
C1353 H1345 0.950 . S
C1353 C1351 1.327 . S
C1354 C1342 1.349 . S
C1354 H1348 0.950 . S
C1354 C1355 1.327 . S
C1355 H1349 0.950 . S
C1355 C1354 1.327 . S
C1355 C1359 1.429 . S
C1356 C1339 1.574 . S
C1356 H1350 0.949 . S
C1356 C1360 1.368 . S
C1357 C1338 1.429 . S
C1357 C1351 1.429 . S
C1357 C1358 1.523 . S
C1358 C1339 1.368 . S
C1358 C1352 1.368 . S
C1358 C1357 1.523 . S
C1359 C1343 1.429 . S
C1359 C1355 1.429 . S
C1359 C1360 1.523 . S
C1360 C1344 1.368 . S
C1360 C1356 1.368 . S
C1360 C1359 1.523 . S
H1361 C1336 0.950 . S
H1362 C1338 0.950 . S
H1363 C1339 0.949 . S
H1364 C1341 0.950 . S
H1365 C1343 0.950 . S
C1366 C1367 1.349 . S
C1366 C1368 1.327 . S
C1366 H1391 0.950 . S
C1367 C1366 1.349 . S
C1367 C1383 1.349 . S
C1368 C1366 1.327 . S
C1368 C1387 1.429 . S
C1368 H1392 0.950 . S
C1369 C1386 1.574 . S
C1369 C1388 1.368 . S
C1369 H1393 0.949 . S
H1370 C1374 0.949 . S
C1371 C1372 1.349 . S
C1371 C1373 1.327 . S
C1371 H1394 0.950 . S
C1372 C1371 1.349 . S
C1372 C1384 1.349 . S
C1373 C1371 1.327 . S
C1373 C1389 1.429 . S
C1373 H1395 0.950 . S
C1374 H1370 0.949 . S
C1374 C1382 1.574 . S
C1374 C1390 1.368 . S
H1375 C1383 0.950 . S
H1376 C1381 0.950 . S
H1377 C1382 0.949 . S
H1378 C1384 0.950 . S
H1379 C1385 0.950 . S
H1380 C1386 0.949 . S
C1381 H1376 0.950 . S
C1381 C1383 1.327 . S
C1381 C1387 1.429 . S
C1382 C1374 1.574 . S
C1382 H1377 0.949 . S
C1382 C1388 1.368 . S
C1383 C1367 1.349 . S
C1383 H1375 0.950 . S
C1383 C1381 1.327 . S
C1384 C1372 1.349 . S
C1384 H1378 0.950 . S
C1384 C1385 1.327 . S
C1385 H1379 0.950 . S
C1385 C1384 1.327 . S
C1385 C1389 1.429 . S
C1386 C1369 1.574 . S
C1386 H1380 0.949 . S
C1386 C1390 1.368 . S
C1387 C1368 1.429 . S
C1387 C1381 1.429 . S
C1387 C1388 1.523 . S
C1388 C1369 1.368 . S
C1388 C1382 1.368 . S
C1388 C1387 1.523 . S
C1389 C1373 1.429 . S
C1389 C1385 1.429 . S
C1389 C1390 1.523 . S
C1390 C1374 1.368 . S
C1390 C1386 1.368 . S
C1390 C1389 1.523 . S
H1391 C1366 0.950 . S
H1392 C1368 0.950 . S
H1393 C1369 0.949 . S
H1394 C1371 0.950 . S
H1395 C1373 0.950 . S
C1396 C1397 1.349 . S
C1396 C1398 1.327 . S
C1396 H1421 0.950 . S
C1397 C1396 1.349 . S
C1397 C1413 1.349 . S
C1398 C1396 1.327 . S
C1398 C1417 1.429 . S
C1398 H1422 0.950 . S
C1399 C1416 1.574 . S
C1399 C1418 1.368 . S
C1399 H1423 0.949 . S
H1400 C1404 0.949 . S
C1401 C1402 1.349 . S
C1401 C1403 1.327 . S
C1401 H1424 0.950 . S
C1402 C1401 1.349 . S
C1402 C1414 1.349 . S
C1403 C1401 1.327 . S
C1403 C1419 1.429 . S
C1403 H1425 0.950 . S
C1404 H1400 0.949 . S
C1404 C1412 1.574 . S
C1404 C1420 1.368 . S
H1405 C1413 0.950 . S
H1406 C1411 0.950 . S
H1407 C1412 0.949 . S
H1408 C1414 0.950 . S
H1409 C1415 0.950 . S
H1410 C1416 0.949 . S
C1411 H1406 0.950 . S
C1411 C1413 1.327 . S
C1411 C1417 1.429 . S
C1412 C1404 1.574 . S
C1412 H1407 0.949 . S
C1412 C1418 1.368 . S
C1413 C1397 1.349 . S
C1413 H1405 0.950 . S
C1413 C1411 1.327 . S
C1414 C1402 1.349 . S
C1414 H1408 0.950 . S
C1414 C1415 1.327 . S
C1415 H1409 0.950 . S
C1415 C1414 1.327 . S
C1415 C1419 1.429 . S
C1416 C1399 1.574 . S
C1416 H1410 0.949 . S
C1416 C1420 1.368 . S
C1417 C1398 1.429 . S
C1417 C1411 1.429 . S
C1417 C1418 1.523 . S
C1418 C1399 1.368 . S
C1418 C1412 1.368 . S
C1418 C1417 1.523 . S
C1419 C1403 1.429 . S
C1419 C1415 1.429 . S
C1419 C1420 1.523 . S
C1420 C1404 1.368 . S
C1420 C1416 1.368 . S
C1420 C1419 1.523 . S
H1421 C1396 0.950 . S
H1422 C1398 0.950 . S
H1423 C1399 0.949 . S
H1424 C1401 0.950 . S
H1425 C1403 0.950 . S
C1426 C1427 1.349 . S
C1426 C1428 1.327 . S
C1426 H1451 0.950 . S
C1427 C1426 1.349 . S
C1427 C1443 1.349 . S
C1428 C1426 1.327 . S
C1428 C1447 1.429 . S
C1428 H1452 0.950 . S
C1429 C1446 1.574 . S
C1429 C1448 1.368 . S
C1429 H1453 0.949 . S
H1430 C1434 0.949 . S
C1431 C1432 1.349 . S
C1431 C1433 1.327 . S
C1431 H1454 0.950 . S
C1432 C1431 1.349 . S
C1432 C1444 1.349 . S
C1433 C1431 1.327 . S
C1433 C1449 1.429 . S
C1433 H1455 0.950 . S
C1434 H1430 0.949 . S
C1434 C1442 1.574 1_554 S
C1434 C1450 1.368 . S
H1435 C1443 0.950 . S
H1436 C1441 0.950 . S
H1437 C1442 0.949 . S
H1438 C1444 0.950 . S
H1439 C1445 0.950 . S
H1440 C1446 0.949 . S
C1441 H1436 0.950 . S
C1441 C1443 1.327 . S
C1441 C1447 1.429 . S
C1442 C1434 1.574 1_556 S
C1442 H1437 0.949 . S
C1442 C1448 1.368 . S
C1443 C1427 1.349 . S
C1443 H1435 0.950 . S
C1443 C1441 1.327 . S
C1444 C1432 1.349 . S
C1444 H1438 0.950 . S
C1444 C1445 1.327 . S
C1445 H1439 0.950 . S
C1445 C1444 1.327 . S
C1445 C1449 1.429 . S
C1446 C1429 1.574 . S
C1446 H1440 0.949 . S
C1446 C1450 1.368 1_556 S
C1447 C1428 1.429 . S
C1447 C1441 1.429 . S
C1447 C1448 1.523 . S
C1448 C1429 1.368 . S
C1448 C1442 1.368 . S
C1448 C1447 1.523 . S
C1449 C1433 1.429 . S
C1449 C1445 1.429 . S
C1449 C1450 1.523 . S
C1450 C1434 1.368 . S
C1450 C1446 1.368 1_554 S
C1450 C1449 1.523 . S
H1451 C1426 0.950 . S
H1452 C1428 0.950 . S
H1453 C1429 0.949 . S
H1454 C1431 0.950 . S
H1455 C1433 0.950 . S
C1456 C1457 1.349 . S
C1456 C1458 1.327 . S
C1456 H1481 0.950 . S
C1457 C1456 1.349 . S
C1457 C1473 1.349 . S
C1458 C1456 1.327 . S
C1458 C1477 1.429 . S
C1458 H1482 0.950 . S
C1459 C1476 1.574 . S
C1459 C1478 1.368 . S
C1459 H1483 0.949 . S
H1460 C1464 0.949 . S
C1461 C1462 1.349 . S
C1461 C1463 1.327 . S
C1461 H1484 0.950 . S
C1462 C1461 1.349 . S
C1462 C1474 1.349 . S
C1463 C1461 1.327 . S
C1463 C1479 1.429 . S
C1463 H1485 0.950 . S
C1464 H1460 0.949 . S
C1464 C1472 1.574 . S
C1464 C1480 1.368 . S
H1465 C1473 0.950 . S
H1466 C1471 0.950 . S
H1467 C1472 0.949 . S
H1468 C1474 0.950 . S
H1469 C1475 0.950 . S
H1470 C1476 0.949 . S
C1471 H1466 0.950 . S
C1471 C1473 1.327 . S
C1471 C1477 1.429 . S
C1472 C1464 1.574 . S
C1472 H1467 0.949 . S
C1472 C1478 1.368 . S
C1473 C1457 1.349 . S
C1473 H1465 0.950 . S
C1473 C1471 1.327 . S
C1474 C1462 1.349 . S
C1474 H1468 0.950 . S
C1474 C1475 1.327 . S
C1475 H1469 0.950 . S
C1475 C1474 1.327 . S
C1475 C1479 1.429 . S
C1476 C1459 1.574 . S
C1476 H1470 0.949 . S
C1476 C1480 1.368 . S
C1477 C1458 1.429 . S
C1477 C1471 1.429 . S
C1477 C1478 1.523 . S
C1478 C1459 1.368 . S
C1478 C1472 1.368 . S
C1478 C1477 1.523 . S
C1479 C1463 1.429 . S
C1479 C1475 1.429 . S
C1479 C1480 1.523 . S
C1480 C1464 1.368 . S
C1480 C1476 1.368 . S
C1480 C1479 1.523 . S
H1481 C1456 0.950 . S
H1482 C1458 0.950 . S
H1483 C1459 0.949 . S
H1484 C1461 0.950 . S
H1485 C1463 0.950 . S
C1486 C1487 1.349 . S
C1486 C1488 1.327 . S
C1486 H1511 0.950 . S
C1487 C1486 1.349 . S
C1487 C1503 1.349 . S
C1488 C1486 1.327 . S
C1488 C1507 1.429 . S
C1488 H1512 0.950 . S
C1489 C1506 1.574 . S
C1489 C1508 1.368 . S
C1489 H1513 0.949 . S
H1490 C1494 0.949 . S
C1491 C1492 1.349 . S
C1491 C1493 1.327 . S
C1491 H1514 0.950 . S
C1492 C1491 1.349 . S
C1492 C1504 1.349 . S
C1493 C1491 1.327 . S
C1493 C1509 1.429 . S
C1493 H1515 0.950 . S
C1494 H1490 0.949 . S
C1494 C1502 1.574 . S
C1494 C1510 1.368 . S
H1495 C1503 0.950 . S
H1496 C1501 0.950 . S
H1497 C1502 0.949 . S
H1498 C1504 0.950 . S
H1499 C1505 0.950 . S
H1500 C1506 0.949 . S
C1501 H1496 0.950 . S
C1501 C1503 1.327 . S
C1501 C1507 1.429 . S
C1502 C1494 1.574 . S
C1502 H1497 0.949 . S
C1502 C1508 1.368 . S
C1503 C1487 1.349 . S
C1503 H1495 0.950 . S
C1503 C1501 1.327 . S
C1504 C1492 1.349 . S
C1504 H1498 0.950 . S
C1504 C1505 1.327 . S
C1505 H1499 0.950 . S
C1505 C1504 1.327 . S
C1505 C1509 1.429 . S
C1506 C1489 1.574 . S
C1506 H1500 0.949 . S
C1506 C1510 1.368 . S
C1507 C1488 1.429 . S
C1507 C1501 1.429 . S
C1507 C1508 1.523 . S
C1508 C1489 1.368 . S
C1508 C1502 1.368 . S
C1508 C1507 1.523 . S
C1509 C1493 1.429 . S
C1509 C1505 1.429 . S
C1509 C1510 1.523 1_565 S
C1510 C1494 1.368 . S
C1510 C1506 1.368 . S
C1510 C1509 1.523 1_545 S
H1511 C1486 0.950 . S
H1512 C1488 0.950 . S
H1513 C1489 0.949 . S
H1514 C1491 0.950 . S
H1515 C1493 0.950 . S
C1516 C1517 1.349 . S
C1516 C1518 1.327 . S
C1516 H1541 0.950 . S
C1517 C1516 1.349 . S
C1517 C1533 1.349 . S
C1518 C1516 1.327 . S
C1518 C1537 1.429 . S
C1518 H1542 0.950 . S
C1519 C1536 1.574 . S
C1519 C1538 1.368 . S
C1519 H1543 0.949 . S
H1520 C1524 0.949 . S
C1521 C1522 1.349 . S
C1521 C1523 1.327 . S
C1521 H1544 0.950 . S
C1522 C1521 1.349 . S
C1522 C1534 1.349 . S
C1523 C1521 1.327 . S
C1523 C1539 1.429 . S
C1523 H1545 0.950 . S
C1524 H1520 0.949 . S
C1524 C1532 1.574 . S
C1524 C1540 1.368 . S
H1525 C1533 0.950 . S
H1526 C1531 0.950 . S
H1527 C1532 0.949 . S
H1528 C1534 0.950 . S
H1529 C1535 0.950 . S
H1530 C1536 0.949 . S
C1531 H1526 0.950 . S
C1531 C1533 1.327 . S
C1531 C1537 1.429 . S
C1532 C1524 1.574 . S
C1532 H1527 0.949 . S
C1532 C1538 1.368 . S
C1533 C1517 1.349 . S
C1533 H1525 0.950 . S
C1533 C1531 1.327 . S
C1534 C1522 1.349 . S
C1534 H1528 0.950 . S
C1534 C1535 1.327 . S
C1535 H1529 0.950 . S
C1535 C1534 1.327 . S
C1535 C1539 1.429 . S
C1536 C1519 1.574 . S
C1536 H1530 0.949 . S
C1536 C1540 1.368 . S
C1537 C1518 1.429 . S
C1537 C1531 1.429 . S
C1537 C1538 1.523 . S
C1538 C1519 1.368 . S
C1538 C1532 1.368 . S
C1538 C1537 1.523 . S
C1539 C1523 1.429 . S
C1539 C1535 1.429 . S
C1539 C1540 1.523 . S
C1540 C1524 1.368 . S
C1540 C1536 1.368 . S
C1540 C1539 1.523 . S
H1541 C1516 0.950 . S
H1542 C1518 0.950 . S
H1543 C1519 0.949 . S
H1544 C1521 0.950 . S
H1545 C1523 0.950 . S
C1546 C1547 1.349 . S
C1546 C1548 1.327 . S
C1546 H1571 0.950 . S
C1547 C1546 1.349 . S
C1547 C1563 1.349 . S
C1548 C1546 1.327 . S
C1548 C1567 1.429 . S
C1548 H1572 0.950 . S
C1549 C1566 1.574 1_565 S
C1549 C1568 1.368 . S
C1549 H1573 0.949 . S
H1550 C1554 0.959 . S
C1551 C1552 1.349 . S
C1551 C1553 1.327 . S
C1551 H1574 0.950 . S
C1552 C1551 1.349 . S
C1552 C1564 1.349 . S
C1553 C1551 1.327 . S
C1553 C1569 1.429 . S
C1553 H1575 0.950 . S
C1554 H1550 0.959 . S
C1554 C1562 1.574 . S
C1554 C1570 1.368 1_565 S
H1555 C1563 0.950 . S
H1556 C1561 0.950 . S
H1557 C1562 0.949 . S
H1558 C1564 0.950 . S
H1559 C1565 0.950 . S
H1560 C1566 0.949 . S
C1561 H1556 0.950 . S
C1561 C1563 1.327 . S
C1561 C1567 1.429 . S
C1562 C1554 1.574 . S
C1562 H1557 0.949 . S
C1562 C1568 1.368 . S
C1563 C1547 1.349 . S
C1563 H1555 0.950 . S
C1563 C1561 1.327 . S
C1564 C1552 1.349 . S
C1564 H1558 0.950 . S
C1564 C1565 1.327 . S
C1565 H1559 0.950 . S
C1565 C1564 1.327 . S
C1565 C1569 1.429 . S
C1566 C1549 1.574 1_545 S
C1566 H1560 0.949 . S
C1566 C1570 1.368 . S
C1567 C1548 1.429 . S
C1567 C1561 1.429 . S
C1567 C1568 1.523 . S
C1568 C1549 1.368 . S
C1568 C1562 1.368 . S
C1568 C1567 1.523 . S
C1569 C1553 1.429 . S
C1569 C1565 1.429 . S
C1569 C1570 1.523 . S
C1570 C1554 1.368 1_545 S
C1570 C1566 1.368 . S
C1570 C1569 1.523 . S
H1571 C1546 0.950 . S
H1572 C1548 0.950 . S
H1573 C1549 0.949 . S
H1574 C1551 0.950 . S
H1575 C1553 0.950 . S
C1576 C1577 1.349 . S
C1576 C1578 1.327 . S
C1576 H1601 0.950 . S
C1577 C1576 1.349 . S
C1577 C1593 1.349 . S
C1578 C1576 1.327 . S
C1578 C1597 1.429 . S
C1578 H1602 0.950 . S
C1579 C1596 1.574 . S
C1579 C1598 1.368 . S
C1579 H1603 0.949 . S
H1580 C1584 0.949 . S
C1581 C1582 1.349 . S
C1581 C1583 1.327 . S
C1581 H1604 0.950 . S
C1582 C1581 1.349 . S
C1582 C1594 1.349 . S
C1583 C1581 1.327 . S
C1583 C1599 1.429 . S
C1583 H1605 0.950 . S
C1584 H1580 0.949 . S
C1584 C1592 1.574 . S
C1584 C1600 1.368 . S
H1585 C1593 0.950 . S
H1586 C1591 0.950 . S
H1587 C1592 0.949 . S
H1588 C1594 0.950 . S
H1589 C1595 0.950 . S
H1590 C1596 0.949 . S
C1591 H1586 0.950 . S
C1591 C1593 1.327 . S
C1591 C1597 1.429 . S
C1592 C1584 1.574 . S
C1592 H1587 0.949 . S
C1592 C1598 1.368 . S
C1593 C1577 1.349 . S
C1593 H1585 0.950 . S
C1593 C1591 1.327 . S
C1594 C1582 1.349 . S
C1594 H1588 0.950 . S
C1594 C1595 1.327 . S
C1595 H1589 0.950 . S
C1595 C1594 1.327 . S
C1595 C1599 1.429 . S
C1596 C1579 1.574 . S
C1596 H1590 0.949 . S
C1596 C1600 1.368 . S
C1597 C1578 1.429 . S
C1597 C1591 1.429 . S
C1597 C1598 1.523 . S
C1598 C1579 1.368 . S
C1598 C1592 1.368 . S
C1598 C1597 1.523 . S
C1599 C1583 1.429 . S
C1599 C1595 1.429 . S
C1599 C1600 1.523 . S
C1600 C1584 1.368 . S
C1600 C1596 1.368 . S
C1600 C1599 1.523 . S
H1601 C1576 0.950 . S
H1602 C1578 0.950 . S
H1603 C1579 0.949 . S
H1604 C1581 0.950 . S
H1605 C1583 0.950 . S
C1606 C1607 1.349 . S
C1606 C1608 1.327 . S
C1606 H1631 0.950 . S
C1607 C1606 1.349 . S
C1607 C1623 1.349 . S
C1608 C1606 1.327 . S
C1608 C1627 1.429 . S
C1608 H1632 0.950 . S
C1609 C1626 1.574 . S
C1609 C1628 1.368 . S
C1609 H1633 0.949 . S
H1610 C1614 0.949 1_565 S
C1611 C1612 1.349 . S
C1611 C1613 1.327 . S
C1611 H1634 0.950 . S
C1612 C1611 1.349 . S
C1612 C1624 1.349 . S
C1613 C1611 1.327 . S
C1613 C1629 1.429 . S
C1613 H1635 0.950 . S
C1614 H1610 0.949 1_545 S
C1614 C1622 1.574 . S
C1614 C1630 1.368 1_545 S
H1615 C1623 0.950 . S
H1616 C1621 0.950 . S
H1617 C1622 0.949 . S
H1618 C1624 0.950 . S
H1619 C1625 0.950 . S
H1620 C1626 0.949 . S
C1621 H1616 0.950 . S
C1621 C1623 1.327 . S
C1621 C1627 1.429 . S
C1622 C1614 1.574 . S
C1622 H1617 0.949 . S
C1622 C1628 1.368 . S
C1623 C1607 1.349 . S
C1623 H1615 0.950 . S
C1623 C1621 1.327 . S
C1624 C1612 1.349 . S
C1624 H1618 0.950 . S
C1624 C1625 1.327 . S
C1625 H1619 0.950 . S
C1625 C1624 1.327 . S
C1625 C1629 1.429 . S
C1626 C1609 1.574 . S
C1626 H1620 0.949 . S
C1626 C1630 1.368 1_545 S
C1627 C1608 1.429 . S
C1627 C1621 1.429 . S
C1627 C1628 1.523 . S
C1628 C1609 1.368 . S
C1628 C1622 1.368 . S
C1628 C1627 1.523 . S
C1629 C1613 1.429 . S
C1629 C1625 1.429 . S
C1629 C1630 1.523 . S
C1630 C1614 1.368 1_565 S
C1630 C1626 1.368 1_565 S
C1630 C1629 1.523 . S
H1631 C1606 0.950 . S
H1632 C1608 0.950 . S
H1633 C1609 0.949 . S
H1634 C1611 0.950 . S
H1635 C1613 0.950 . S
C1636 C1637 1.349 . S
C1636 C1638 1.327 . S
C1636 H1661 0.950 . S
C1637 C1636 1.349 . S
C1637 C1653 1.349 . S
C1638 C1636 1.327 . S
C1638 C1657 1.429 . S
C1638 H1662 0.950 . S
C1639 C1656 1.574 . S
C1639 C1658 1.368 . S
C1639 H1663 0.949 . S
H1640 C1644 0.949 . S
C1641 C1642 1.349 . S
C1641 C1643 1.327 . S
C1641 H1664 0.950 . S
C1642 C1641 1.349 . S
C1642 C1654 1.349 . S
C1643 C1641 1.327 . S
C1643 C1659 1.429 . S
C1643 H1665 0.950 . S
C1644 H1640 0.949 . S
C1644 C1652 1.574 . S
C1644 C1660 1.368 . S
H1645 C1653 0.950 . S
H1646 C1651 0.950 . S
H1647 C1652 0.949 . S
H1648 C1654 0.950 . S
H1649 C1655 0.950 . S
H1650 C1656 0.949 . S
C1651 H1646 0.950 . S
C1651 C1653 1.327 . S
C1651 C1657 1.429 . S
C1652 C1644 1.574 . S
C1652 H1647 0.949 . S
C1652 C1658 1.368 . S
C1653 C1637 1.349 . S
C1653 H1645 0.950 . S
C1653 C1651 1.327 . S
C1654 C1642 1.349 . S
C1654 H1648 0.950 . S
C1654 C1655 1.327 . S
C1655 H1649 0.950 . S
C1655 C1654 1.327 . S
C1655 C1659 1.429 . S
C1656 C1639 1.574 . S
C1656 H1650 0.949 . S
C1656 C1660 1.368 . S
C1657 C1638 1.429 . S
C1657 C1651 1.429 . S
C1657 C1658 1.523 . S
C1658 C1639 1.368 . S
C1658 C1652 1.368 . S
C1658 C1657 1.523 . S
C1659 C1643 1.429 . S
C1659 C1655 1.429 . S
C1659 C1660 1.523 . S
C1660 C1644 1.368 . S
C1660 C1656 1.368 . S
C1660 C1659 1.523 . S
H1661 C1636 0.950 . S
H1662 C1638 0.950 . S
H1663 C1639 0.949 . S
H1664 C1641 0.950 . S
H1665 C1643 0.950 . S
C1666 C1667 1.349 . S
C1666 C1668 1.327 . S
C1666 H1691 0.950 . S
C1667 C1666 1.349 . S
C1667 C1683 1.349 . S
C1668 C1666 1.327 . S
C1668 C1687 1.429 . S
C1668 H1692 0.950 . S
C1669 C1686 1.574 1_565 S
C1669 C1688 1.368 . S
C1669 H1693 0.949 . S
H1670 C1674 0.949 . S
C1671 C1672 1.349 . S
C1671 C1673 1.327 . S
C1671 H1694 0.950 . S
C1672 C1671 1.349 . S
C1672 C1684 1.349 . S
C1673 C1671 1.327 . S
C1673 C1689 1.429 . S
C1673 H1695 0.950 . S
C1674 H1670 0.949 . S
C1674 C1682 1.574 . S
C1674 C1690 1.368 1_565 S
H1675 C1683 0.950 . S
H1676 C1681 0.950 . S
H1677 C1682 0.949 . S
H1678 C1684 0.950 . S
H1679 C1685 0.950 . S
H1680 C1686 0.949 . S
C1681 H1676 0.950 . S
C1681 C1683 1.327 . S
C1681 C1687 1.429 . S
C1682 C1674 1.574 . S
C1682 H1677 0.949 . S
C1682 C1688 1.368 . S
C1683 C1667 1.349 . S
C1683 H1675 0.950 . S
C1683 C1681 1.327 . S
C1684 C1672 1.349 . S
C1684 H1678 0.950 . S
C1684 C1685 1.327 . S
C1685 H1679 0.950 . S
C1685 C1684 1.327 . S
C1685 C1689 1.429 . S
C1686 C1669 1.574 1_545 S
C1686 H1680 0.949 . S
C1686 C1690 1.368 . S
C1687 C1668 1.429 . S
C1687 C1681 1.429 . S
C1687 C1688 1.523 . S
C1688 C1669 1.368 . S
C1688 C1682 1.368 . S
C1688 C1687 1.523 . S
C1689 C1673 1.429 . S
C1689 C1685 1.429 . S
C1689 C1690 1.523 . S
C1690 C1674 1.368 1_545 S
C1690 C1686 1.368 . S
C1690 C1689 1.523 . S
H1691 C1666 0.950 . S
H1692 C1668 0.950 . S
H1693 C1669 0.949 . S
H1694 C1671 0.950 . S
H1695 C1673 0.950 . S
C1696 C1697 1.349 . S
C1696 C1698 1.327 . S
C1696 H1721 0.950 . S
C1697 C1696 1.349 . S
C1697 C1713 1.349 . S
C1698 C1696 1.327 . S
C1698 C1717 1.429 . S
C1698 H1722 0.950 . S
C1699 C1716 1.574 . S
C1699 C1718 1.368 . S
C1699 H1723 0.949 . S
H1700 C1704 0.949 . S
C1701 C1702 1.349 . S
C1701 C1703 1.327 . S
C1701 H1724 0.950 . S
C1702 C1701 1.349 . S
C1702 C1714 1.349 . S
C1703 C1701 1.327 . S
C1703 C1719 1.429 . S
C1703 H1725 0.950 . S
C1704 H1700 0.949 . S
C1704 C1712 1.574 . S
C1704 C1720 1.368 . S
H1705 C1713 0.950 . S
H1706 C1711 0.950 . S
H1707 C1712 0.949 . S
H1708 C1714 0.950 . S
H1709 C1715 0.950 . S
H1710 C1716 0.949 . S
C1711 H1706 0.950 . S
C1711 C1713 1.327 . S
C1711 C1717 1.429 . S
C1712 C1704 1.574 . S
C1712 H1707 0.949 . S
C1712 C1718 1.368 . S
C1713 C1697 1.349 . S
C1713 H1705 0.950 . S
C1713 C1711 1.327 . S
C1714 C1702 1.349 . S
C1714 H1708 0.950 . S
C1714 C1715 1.327 . S
C1715 H1709 0.950 . S
C1715 C1714 1.327 . S
C1715 C1719 1.429 . S
C1716 C1699 1.574 . S
C1716 H1710 0.949 . S
C1716 C1720 1.368 . S
C1717 C1698 1.429 . S
C1717 C1711 1.429 . S
C1717 C1718 1.523 . S
C1718 C1699 1.368 . S
C1718 C1712 1.368 . S
C1718 C1717 1.523 . S
C1719 C1703 1.429 . S
C1719 C1715 1.429 . S
C1719 C1720 1.523 . S
C1720 C1704 1.368 . S
C1720 C1716 1.368 . S
C1720 C1719 1.523 . S
H1721 C1696 0.950 . S
H1722 C1698 0.950 . S
H1723 C1699 0.949 . S
H1724 C1701 0.950 . S
H1725 C1703 0.950 . S
C1726 C1727 1.349 . S
C1726 C1728 1.327 . S
C1726 H1751 0.950 . S
C1727 C1726 1.349 . S
C1727 C1743 1.349 . S
C1728 C1726 1.327 . S
C1728 C1747 1.429 . S
C1728 H1752 0.950 . S
C1729 C1746 1.574 . S
C1729 C1748 1.368 . S
C1729 H1753 0.949 . S
H1730 C1734 0.949 . S
C1731 C1732 1.349 . S
C1731 C1733 1.327 . S
C1731 H1754 0.950 . S
C1732 C1731 1.349 . S
C1732 C1744 1.349 . S
C1733 C1731 1.327 . S
C1733 C1749 1.429 . S
C1733 H1755 0.950 . S
C1734 H1730 0.949 . S
C1734 C1742 1.574 . S
C1734 C1750 1.368 . S
H1735 C1743 0.950 . S
H1736 C1741 0.950 . S
H1737 C1742 0.949 . S
H1738 C1744 0.950 . S
H1739 C1745 0.950 . S
H1740 C1746 0.949 . S
C1741 H1736 0.950 . S
C1741 C1743 1.327 . S
C1741 C1747 1.429 . S
C1742 C1734 1.574 . S
C1742 H1737 0.949 . S
C1742 C1748 1.368 . S
C1743 C1727 1.349 . S
C1743 H1735 0.950 . S
C1743 C1741 1.327 . S
C1744 C1732 1.349 . S
C1744 H1738 0.950 . S
C1744 C1745 1.327 . S
C1745 H1739 0.950 . S
C1745 C1744 1.327 . S
C1745 C1749 1.429 . S
C1746 C1729 1.574 . S
C1746 H1740 0.949 . S
C1746 C1750 1.368 . S
C1747 C1728 1.429 . S
C1747 C1741 1.429 . S
C1747 C1748 1.523 . S
C1748 C1729 1.368 . S
C1748 C1742 1.368 . S
C1748 C1747 1.523 . S
C1749 C1733 1.429 . S
C1749 C1745 1.429 . S
C1749 C1750 1.523 . S
C1750 C1734 1.368 . S
C1750 C1746 1.368 . S
C1750 C1749 1.523 . S
H1751 C1726 0.950 . S
H1752 C1728 0.950 . S
H1753 C1729 0.949 . S
H1754 C1731 0.950 . S
H1755 C1733 0.950 . S
C1756 C1757 1.349 . S
C1756 C1758 1.327 . S
C1756 H1781 0.950 . S
C1757 C1756 1.349 . S
C1757 C1773 1.349 . S
C1758 C1756 1.327 . S
C1758 C1777 1.429 . S
C1758 H1782 0.950 . S
C1759 C1776 1.574 . S
C1759 C1778 1.368 . S
C1759 H1783 0.949 . S
H1760 C1764 0.949 1_655 S
C1761 C1762 1.349 . S
C1761 C1763 1.327 . S
C1761 H1784 0.950 . S
C1762 C1761 1.349 . S
C1762 C1774 1.349 . S
C1763 C1761 1.327 . S
C1763 C1779 1.429 . S
C1763 H1785 0.950 . S
C1764 H1760 0.949 1_455 S
C1764 C1772 1.574 . S
C1764 C1780 1.368 . S
H1765 C1773 0.950 . S
H1766 C1771 0.950 . S
H1767 C1772 0.949 . S
H1768 C1774 0.950 . S
H1769 C1775 0.950 . S
H1770 C1776 0.949 . S
C1771 H1766 0.950 . S
C1771 C1773 1.327 . S
C1771 C1777 1.429 . S
C1772 C1764 1.574 . S
C1772 H1767 0.949 . S
C1772 C1778 1.368 . S
C1773 C1757 1.349 . S
C1773 H1765 0.950 . S
C1773 C1771 1.327 . S
C1774 C1762 1.349 . S
C1774 H1768 0.950 . S
C1774 C1775 1.327 . S
C1775 H1769 0.950 . S
C1775 C1774 1.327 . S
C1775 C1779 1.429 . S
C1776 C1759 1.574 . S
C1776 H1770 0.949 . S
C1776 C1780 1.368 . S
C1777 C1758 1.429 . S
C1777 C1771 1.429 . S
C1777 C1778 1.523 . S
C1778 C1759 1.368 . S
C1778 C1772 1.368 . S
C1778 C1777 1.523 . S
C1779 C1763 1.429 . S
C1779 C1775 1.429 . S
C1779 C1780 1.523 1_655 S
C1780 C1764 1.368 . S
C1780 C1776 1.368 . S
C1780 C1779 1.523 1_455 S
H1781 C1756 0.950 . S
H1782 C1758 0.950 . S
H1783 C1759 0.949 . S
H1784 C1761 0.950 . S
H1785 C1763 0.950 . S
C1786 C1787 1.349 . S
C1786 C1788 1.327 . S
C1786 H1811 0.950 . S
C1787 C1786 1.349 . S
C1787 C1803 1.349 . S
C1788 C1786 1.327 . S
C1788 C1807 1.429 . S
C1788 H1812 0.950 . S
C1789 C1806 1.574 . S
C1789 C1808 1.368 . S
C1789 H1813 0.949 . S
H1790 C1794 0.949 . S
C1791 C1792 1.349 . S
C1791 C1793 1.327 . S
C1791 H1814 0.950 . S
C1792 C1791 1.349 . S
C1792 C1804 1.349 . S
C1793 C1791 1.327 . S
C1793 C1809 1.429 . S
C1793 H1815 0.950 . S
C1794 H1790 0.949 . S
C1794 C1802 1.574 . S
C1794 C1810 1.368 . S
H1795 C1803 0.950 . S
H1796 C1801 0.950 . S
H1797 C1802 0.949 . S
H1798 C1804 0.950 . S
H1799 C1805 0.950 . S
H1800 C1806 0.949 . S
C1801 H1796 0.950 . S
C1801 C1803 1.327 . S
C1801 C1807 1.429 . S
C1802 C1794 1.574 . S
C1802 H1797 0.949 . S
C1802 C1808 1.368 . S
C1803 C1787 1.349 . S
C1803 H1795 0.950 . S
C1803 C1801 1.327 . S
C1804 C1792 1.349 . S
C1804 H1798 0.950 . S
C1804 C1805 1.327 . S
C1805 H1799 0.950 . S
C1805 C1804 1.327 . S
C1805 C1809 1.429 . S
C1806 C1789 1.574 . S
C1806 H1800 0.949 . S
C1806 C1810 1.368 . S
C1807 C1788 1.429 . S
C1807 C1801 1.429 . S
C1807 C1808 1.523 . S
C1808 C1789 1.368 . S
C1808 C1802 1.368 . S
C1808 C1807 1.523 . S
C1809 C1793 1.429 . S
C1809 C1805 1.429 . S
C1809 C1810 1.523 . S
C1810 C1794 1.368 . S
C1810 C1806 1.368 . S
C1810 C1809 1.523 . S
H1811 C1786 0.950 . S
H1812 C1788 0.950 . S
H1813 C1789 0.949 . S
H1814 C1791 0.950 . S
H1815 C1793 0.950 . S
C1816 C1817 1.349 . S
C1816 C1818 1.327 . S
C1816 H1841 0.950 . S
C1817 C1816 1.349 . S
C1817 C1833 1.349 . S
C1818 C1816 1.327 . S
C1818 C1837 1.429 . S
C1818 H1842 0.950 . S
C1819 C1836 1.574 . S
C1819 C1838 1.368 . S
C1819 H1843 0.949 . S
H1820 C1824 0.949 . S
C1821 C1822 1.349 . S
C1821 C1823 1.327 . S
C1821 H1844 0.950 . S
C1822 C1821 1.349 . S
C1822 C1834 1.349 . S
C1823 C1821 1.327 . S
C1823 C1839 1.429 . S
C1823 H1845 0.950 . S
C1824 H1820 0.949 . S
C1824 C1832 1.574 1_455 S
C1824 C1840 1.368 . S
H1825 C1833 0.950 . S
H1826 C1831 0.950 . S
H1827 C1832 0.949 . S
H1828 C1834 0.950 . S
H1829 C1835 0.950 . S
H1830 C1836 0.944 1_455 S
C1831 H1826 0.950 . S
C1831 C1833 1.327 . S
C1831 C1837 1.429 . S
C1832 C1824 1.574 1_655 S
C1832 H1827 0.949 . S
C1832 C1838 1.368 . S
C1833 C1817 1.349 . S
C1833 H1825 0.950 . S
C1833 C1831 1.327 . S
C1834 C1822 1.349 . S
C1834 H1828 0.950 . S
C1834 C1835 1.327 . S
C1835 H1829 0.950 . S
C1835 C1834 1.327 . S
C1835 C1839 1.429 . S
C1836 C1819 1.574 . S
C1836 H1830 0.944 1_655 S
C1836 C1840 1.368 1_655 S
C1837 C1818 1.429 . S
C1837 C1831 1.429 . S
C1837 C1838 1.523 . S
C1838 C1819 1.368 . S
C1838 C1832 1.368 . S
C1838 C1837 1.523 . S
C1839 C1823 1.429 . S
C1839 C1835 1.429 . S
C1839 C1840 1.523 . S
C1840 C1824 1.368 . S
C1840 C1836 1.368 1_455 S
C1840 C1839 1.523 . S
H1841 C1816 0.950 . S
H1842 C1818 0.950 . S
H1843 C1819 0.949 . S
H1844 C1821 0.950 . S
H1845 C1823 0.950 . S
C1846 C1847 1.349 . S
C1846 C1848 1.327 . S
C1846 H1871 0.950 . S
C1847 C1846 1.349 . S
C1847 C1863 1.349 . S
C1848 C1846 1.327 . S
C1848 C1867 1.429 . S
C1848 H1872 0.950 . S
C1849 C1866 1.574 . S
C1849 C1868 1.368 . S
C1849 H1873 0.949 . S
H1850 C1854 0.949 . S
C1851 C1852 1.349 . S
C1851 C1853 1.327 . S
C1851 H1874 0.950 . S
C1852 C1851 1.349 . S
C1852 C1864 1.349 . S
C1853 C1851 1.327 . S
C1853 C1869 1.429 . S
C1853 H1875 0.950 . S
C1854 H1850 0.949 . S
C1854 C1862 1.574 . S
C1854 C1870 1.368 . S
H1855 C1863 0.950 . S
H1856 C1861 0.950 . S
H1857 C1862 0.949 . S
H1858 C1864 0.950 . S
H1859 C1865 0.950 . S
H1860 C1866 0.949 . S
C1861 H1856 0.950 . S
C1861 C1863 1.327 . S
C1861 C1867 1.429 . S
C1862 C1854 1.574 . S
C1862 H1857 0.949 . S
C1862 C1868 1.368 . S
C1863 C1847 1.349 . S
C1863 H1855 0.950 . S
C1863 C1861 1.327 . S
C1864 C1852 1.349 . S
C1864 H1858 0.950 . S
C1864 C1865 1.327 . S
C1865 H1859 0.950 . S
C1865 C1864 1.327 . S
C1865 C1869 1.429 . S
C1866 C1849 1.574 . S
C1866 H1860 0.949 . S
C1866 C1870 1.368 . S
C1867 C1848 1.429 . S
C1867 C1861 1.429 . S
C1867 C1868 1.523 . S
C1868 C1849 1.368 . S
C1868 C1862 1.368 . S
C1868 C1867 1.523 . S
C1869 C1853 1.429 . S
C1869 C1865 1.429 . S
C1869 C1870 1.523 . S
C1870 C1854 1.368 . S
C1870 C1866 1.368 . S
C1870 C1869 1.523 . S
H1871 C1846 0.950 . S
H1872 C1848 0.950 . S
H1873 C1849 0.949 . S
H1874 C1851 0.950 . S
H1875 C1853 0.950 . S
C1876 C1877 1.349 . S
C1876 C1878 1.327 . S
C1876 H1901 0.950 . S
C1877 C1876 1.349 . S
C1877 C1893 1.349 . S
C1878 C1876 1.327 . S
C1878 C1897 1.429 . S
C1878 H1902 0.950 . S
C1879 C1896 1.574 . S
C1879 C1898 1.368 . S
C1879 H1903 0.949 . S
H1880 C1884 0.951 . S
C1881 C1882 1.349 . S
C1881 C1883 1.327 . S
C1881 H1904 0.950 . S
C1882 C1881 1.349 . S
C1882 C1894 1.349 . S
C1883 C1881 1.327 . S
C1883 C1899 1.429 . S
C1883 H1905 0.950 . S
C1884 H1880 0.951 . S
C1884 C1892 1.571 1_655 S
C1884 C1900 1.369 . S
H1885 C1893 0.950 . S
H1886 C1891 0.950 . S
H1887 C1892 0.949 . S
H1888 C1894 0.950 . S
H1889 C1895 0.950 . S
H1890 C1896 0.949 . S
C1891 H1886 0.950 . S
C1891 C1893 1.327 . S
C1891 C1897 1.429 . S
C1892 C1884 1.571 1_455 S
C1892 H1887 0.949 . S
C1892 C1898 1.368 . S
C1893 C1877 1.349 . S
C1893 H1885 0.950 . S
C1893 C1891 1.327 . S
C1894 C1882 1.349 . S
C1894 H1888 0.950 . S
C1894 C1895 1.327 . S
C1895 H1889 0.950 . S
C1895 C1894 1.327 . S
C1895 C1899 1.429 . S
C1896 C1879 1.574 . S
C1896 H1890 0.949 . S
C1896 C1900 1.368 1_455 S
C1897 C1878 1.429 . S
C1897 C1891 1.429 . S
C1897 C1898 1.523 . S
C1898 C1879 1.368 . S
C1898 C1892 1.368 . S
C1898 C1897 1.523 . S
C1899 C1883 1.429 . S
C1899 C1895 1.429 . S
C1899 C1900 1.523 . S
C1900 C1884 1.369 . S
C1900 C1896 1.368 1_655 S
C1900 C1899 1.523 . S
H1901 C1876 0.950 . S
H1902 C1878 0.950 . S
H1903 C1879 0.949 . S
H1904 C1881 0.950 . S
H1905 C1883 0.950 . S
C1906 C1907 1.349 . S
C1906 C1908 1.327 . S
C1906 H1931 0.950 . S
C1907 C1906 1.349 . S
C1907 C1923 1.349 . S
C1908 C1906 1.327 . S
C1908 C1927 1.429 . S
C1908 H1932 0.950 . S
C1909 C1926 1.574 . S
C1909 C1928 1.368 . S
C1909 H1933 0.949 . S
H1910 C1914 0.949 . S
C1911 C1912 1.349 . S
C1911 C1913 1.327 . S
C1911 H1934 0.950 . S
C1912 C1911 1.349 . S
C1912 C1924 1.349 . S
C1913 C1911 1.327 . S
C1913 C1929 1.429 . S
C1913 H1935 0.950 . S
C1914 H1910 0.949 . S
C1914 C1922 1.574 . S
C1914 C1930 1.368 . S
H1915 C1923 0.950 . S
H1916 C1921 0.950 . S
H1917 C1922 0.949 . S
H1918 C1924 0.950 . S
H1919 C1925 0.950 . S
H1920 C1926 0.949 . S
C1921 H1916 0.950 . S
C1921 C1923 1.327 . S
C1921 C1927 1.429 . S
C1922 C1914 1.574 . S
C1922 H1917 0.949 . S
C1922 C1928 1.368 . S
C1923 C1907 1.349 . S
C1923 H1915 0.950 . S
C1923 C1921 1.327 . S
C1924 C1912 1.349 . S
C1924 H1918 0.950 . S
C1924 C1925 1.327 . S
C1925 H1919 0.950 . S
C1925 C1924 1.327 . S
C1925 C1929 1.429 . S
C1926 C1909 1.574 . S
C1926 H1920 0.949 . S
C1926 C1930 1.368 . S
C1927 C1908 1.429 . S
C1927 C1921 1.429 . S
C1927 C1928 1.523 . S
C1928 C1909 1.368 . S
C1928 C1922 1.368 . S
C1928 C1927 1.523 . S
C1929 C1913 1.429 . S
C1929 C1925 1.429 . S
C1929 C1930 1.523 . S
C1930 C1914 1.368 . S
C1930 C1926 1.368 . S
C1930 C1929 1.523 . S
H1931 C1906 0.950 . S
H1932 C1908 0.950 . S
H1933 C1909 0.949 . S
H1934 C1911 0.950 . S
H1935 C1913 0.950 . S
C1936 C1937 1.349 . S
C1936 C1938 1.327 . S
C1936 H1961 0.950 . S
C1937 C1936 1.349 . S
C1937 C1953 1.349 . S
C1938 C1936 1.327 . S
C1938 C1957 1.429 . S
C1938 H1962 0.950 . S
C1939 C1956 1.574 . S
C1939 C1958 1.368 . S
C1939 H1963 0.949 . S
H1940 C1944 0.949 . S
C1941 C1942 1.349 . S
C1941 C1943 1.327 . S
C1941 H1964 0.950 . S
C1942 C1941 1.349 . S
C1942 C1954 1.349 . S
C1943 C1941 1.327 . S
C1943 C1959 1.429 . S
C1943 H1965 0.950 . S
C1944 H1940 0.949 . S
C1944 C1952 1.574 . S
C1944 C1960 1.368 . S
H1945 C1953 0.950 . S
H1946 C1951 0.950 . S
H1947 C1952 0.949 . S
H1948 C1954 0.950 . S
H1949 C1955 0.950 . S
H1950 C1956 0.949 . S
C1951 H1946 0.950 . S
C1951 C1953 1.327 . S
C1951 C1957 1.429 . S
C1952 C1944 1.574 . S
C1952 H1947 0.949 . S
C1952 C1958 1.368 . S
C1953 C1937 1.349 . S
C1953 H1945 0.950 . S
C1953 C1951 1.327 . S
C1954 C1942 1.349 . S
C1954 H1948 0.950 . S
C1954 C1955 1.327 . S
C1955 H1949 0.950 . S
C1955 C1954 1.327 . S
C1955 C1959 1.429 . S
C1956 C1939 1.574 . S
C1956 H1950 0.949 . S
C1956 C1960 1.368 . S
C1957 C1938 1.429 . S
C1957 C1951 1.429 . S
C1957 C1958 1.523 . S
C1958 C1939 1.368 . S
C1958 C1952 1.368 . S
C1958 C1957 1.523 . S
C1959 C1943 1.429 . S
C1959 C1955 1.429 . S
C1959 C1960 1.523 . S
C1960 C1944 1.368 . S
C1960 C1956 1.368 . S
C1960 C1959 1.523 . S
H1961 C1936 0.950 . S
H1962 C1938 0.950 . S
H1963 C1939 0.949 . S
H1964 C1941 0.950 . S
H1965 C1943 0.950 . S
C1966 C1967 1.349 . S
C1966 C1968 1.327 . S
C1966 H1991 0.950 . S
C1967 C1966 1.349 . S
C1967 C1983 1.349 . S
C1968 C1966 1.327 . S
C1968 C1987 1.429 . S
C1968 H1992 0.950 . S
C1969 C1986 1.574 . S
C1969 C1988 1.368 . S
C1969 H1993 0.949 . S
H1970 C1974 0.949 . S
C1971 C1972 1.349 . S
C1971 C1973 1.327 . S
C1971 H1994 0.950 . S
C1972 C1971 1.349 . S
C1972 C1984 1.349 . S
C1973 C1971 1.327 . S
C1973 C1989 1.429 . S
C1973 H1995 0.950 . S
C1974 H1970 0.949 . S
C1974 C1982 1.574 . S
C1974 C1990 1.368 . S
H1975 C1983 0.950 . S
H1976 C1981 0.950 . S
H1977 C1982 0.949 . S
H1978 C1984 0.950 . S
H1979 C1985 0.950 . S
H1980 C1986 0.949 . S
C1981 H1976 0.950 . S
C1981 C1983 1.327 . S
C1981 C1987 1.429 . S
C1982 C1974 1.574 . S
C1982 H1977 0.949 . S
C1982 C1988 1.368 . S
C1983 C1967 1.349 . S
C1983 H1975 0.950 . S
C1983 C1981 1.327 . S
C1984 C1972 1.349 . S
C1984 H1978 0.950 . S
C1984 C1985 1.327 . S
C1985 H1979 0.950 . S
C1985 C1984 1.327 . S
C1985 C1989 1.429 . S
C1986 C1969 1.574 . S
C1986 H1980 0.949 . S
C1986 C1990 1.368 . S
C1987 C1968 1.429 . S
C1987 C1981 1.429 . S
C1987 C1988 1.523 . S
C1988 C1969 1.368 . S
C1988 C1982 1.368 . S
C1988 C1987 1.523 . S
C1989 C1973 1.429 . S
C1989 C1985 1.429 . S
C1989 C1990 1.523 . S
C1990 C1974 1.368 . S
C1990 C1986 1.368 . S
C1990 C1989 1.523 . S
H1991 C1966 0.950 . S
H1992 C1968 0.950 . S
H1993 C1969 0.949 . S
H1994 C1971 0.950 . S
H1995 C1973 0.950 . S
C1996 C1997 1.349 . S
C1996 C1998 1.327 . S
C1996 H2021 0.950 . S
C1997 C1996 1.349 . S
C1997 C2013 1.349 . S
C1998 C1996 1.327 . S
C1998 C2017 1.429 . S
C1998 H2022 0.950 . S
C1999 C2016 1.574 . S
C1999 C2018 1.368 . S
C1999 H2023 0.949 . S
H2000 C2004 0.949 . S
C2001 C2002 1.349 . S
C2001 C2003 1.327 . S
C2001 H2024 0.950 . S
C2002 C2001 1.349 . S
C2002 C2014 1.349 . S
C2003 C2001 1.327 . S
C2003 C2019 1.429 . S
C2003 H2025 0.950 . S
C2004 H2000 0.949 . S
C2004 C2012 1.574 . S
C2004 C2020 1.368 . S
H2005 C2013 0.950 . S
H2006 C2011 0.950 . S
H2007 C2012 0.949 . S
H2008 C2014 0.950 . S
H2009 C2015 0.950 . S
H2010 C2016 0.949 . S
C2011 H2006 0.950 . S
C2011 C2013 1.327 . S
C2011 C2017 1.429 . S
C2012 C2004 1.574 . S
C2012 H2007 0.949 . S
C2012 C2018 1.368 . S
C2013 C1997 1.349 . S
C2013 H2005 0.950 . S
C2013 C2011 1.327 . S
C2014 C2002 1.349 . S
C2014 H2008 0.950 . S
C2014 C2015 1.327 . S
C2015 H2009 0.950 . S
C2015 C2014 1.327 . S
C2015 C2019 1.429 . S
C2016 C1999 1.574 . S
C2016 H2010 0.949 . S
C2016 C2020 1.368 . S
C2017 C1998 1.429 . S
C2017 C2011 1.429 . S
C2017 C2018 1.523 . S
C2018 C1999 1.368 . S
C2018 C2012 1.368 . S
C2018 C2017 1.523 . S
C2019 C2003 1.429 . S
C2019 C2015 1.429 . S
C2019 C2020 1.523 . S
C2020 C2004 1.368 . S
C2020 C2016 1.368 . S
C2020 C2019 1.523 . S
H2021 C1996 0.950 . S
H2022 C1998 0.950 . S
H2023 C1999 0.949 . S
H2024 C2001 0.950 . S
H2025 C2003 0.950 . S
C2026 C2027 1.349 . S
C2026 C2028 1.327 . S
C2026 H2051 0.950 . S
C2027 C2026 1.349 . S
C2027 C2043 1.349 . S
C2028 C2026 1.327 . S
C2028 C2047 1.429 . S
C2028 H2052 0.950 . S
C2029 C2046 1.558 1_556 S
C2029 C2048 1.368 . S
C2029 H2053 0.949 . S
H2030 C2034 0.949 . S
C2031 C2032 1.349 . S
C2031 C2033 1.327 . S
C2031 H2054 0.950 . S
C2032 C2031 1.349 . S
C2032 C2044 1.349 . S
C2033 C2031 1.327 . S
C2033 C2049 1.429 . S
C2033 H2055 0.950 . S
C2034 H2030 0.949 . S
C2034 C2042 1.574 1_554 S
C2034 C2050 1.368 . S
H2035 C2043 0.950 . S
H2036 C2041 0.950 . S
H2037 C2042 0.949 . S
H2038 C2044 0.950 . S
H2039 C2045 0.950 . S
H2040 C2046 0.954 . S
C2041 H2036 0.950 . S
C2041 C2043 1.327 . S
C2041 C2047 1.429 . S
C2042 C2034 1.574 1_556 S
C2042 H2037 0.949 . S
C2042 C2048 1.368 . S
C2043 C2027 1.349 . S
C2043 H2035 0.950 . S
C2043 C2041 1.327 . S
C2044 C2032 1.349 . S
C2044 H2038 0.950 . S
C2044 C2045 1.327 . S
C2045 H2039 0.950 . S
C2045 C2044 1.327 . S
C2045 C2049 1.429 . S
C2046 C2029 1.558 1_554 S
C2046 H2040 0.954 . S
C2046 C2050 1.379 . S
C2047 C2028 1.429 . S
C2047 C2041 1.429 . S
C2047 C2048 1.523 . S
C2048 C2029 1.368 . S
C2048 C2042 1.368 . S
C2048 C2047 1.523 . S
C2049 C2033 1.429 . S
C2049 C2045 1.429 . S
C2049 C2050 1.523 . S
C2050 C2034 1.368 . S
C2050 C2046 1.379 . S
C2050 C2049 1.523 . S
H2051 C2026 0.950 . S
H2052 C2028 0.950 . S
H2053 C2029 0.949 . S
H2054 C2031 0.950 . S
H2055 C2033 0.950 . S
C2056 C2057 1.349 . S
C2056 C2058 1.327 . S
C2056 H2081 0.974 . S
C2057 C2056 1.349 . S
C2057 C2073 1.349 . S
C2058 C2056 1.327 . S
C2058 C2077 1.429 . S
C2058 H2082 0.950 . S
C2059 C2076 1.574 . S
C2059 C2078 1.368 . S
C2059 H2083 0.949 . S
H2060 C2064 0.949 . S
C2061 C2062 1.349 . S
C2061 C2063 1.327 . S
C2061 H2084 0.950 . S
C2062 C2061 1.349 . S
C2062 C2074 1.349 . S
C2063 C2061 1.327 . S
C2063 C2079 1.429 . S
C2063 H2085 0.950 . S
C2064 H2060 0.949 . S
C2064 C2072 1.574 . S
C2064 C2080 1.368 . S
H2065 C2073 0.950 . S
H2066 C2071 0.950 . S
H2067 C2072 0.949 . S
H2068 C2074 0.950 . S
H2069 C2075 0.950 . S
H2070 C2076 0.949 . S
C2071 H2066 0.950 . S
C2071 C2073 1.327 . S
C2071 C2077 1.429 . S
C2072 C2064 1.574 . S
C2072 H2067 0.949 . S
C2072 C2078 1.368 . S
C2073 C2057 1.349 . S
C2073 H2065 0.950 . S
C2073 C2071 1.327 . S
C2074 C2062 1.349 . S
C2074 H2068 0.950 . S
C2074 C2075 1.327 . S
C2075 H2069 0.950 . S
C2075 C2074 1.327 . S
C2075 C2079 1.429 . S
C2076 C2059 1.574 . S
C2076 H2070 0.949 . S
C2076 C2080 1.368 . S
C2077 C2058 1.429 . S
C2077 C2071 1.429 . S
C2077 C2078 1.523 . S
C2078 C2059 1.368 . S
C2078 C2072 1.368 . S
C2078 C2077 1.523 . S
C2079 C2063 1.429 . S
C2079 C2075 1.429 . S
C2079 C2080 1.523 . S
C2080 C2064 1.368 . S
C2080 C2076 1.368 . S
C2080 C2079 1.523 . S
H2081 C2056 0.974 . S
H2082 C2058 0.950 . S
H2083 C2059 0.949 . S
H2084 C2061 0.950 . S
H2085 C2063 0.950 . S
C2086 C2087 1.349 . S
C2086 C2088 1.327 . S
C2086 H2111 0.950 . S
C2087 C2086 1.349 . S
C2087 C2103 1.349 . S
C2088 C2086 1.327 . S
C2088 C2107 1.429 . S
C2088 H2112 0.950 . S
C2089 C2106 1.574 . S
C2089 C2108 1.368 . S
C2089 H2113 0.949 . S
H2090 C2094 0.949 . S
C2091 C2092 1.349 . S
C2091 C2093 1.327 . S
C2091 H2114 0.950 . S
C2092 C2091 1.349 . S
C2092 C2104 1.349 . S
C2093 C2091 1.327 . S
C2093 C2109 1.429 . S
C2093 H2115 0.950 . S
C2094 H2090 0.949 . S
C2094 C2102 1.574 . S
C2094 C2110 1.368 . S
H2095 C2103 0.950 . S
H2096 C2101 0.950 . S
H2097 C2102 0.949 . S
H2098 C2104 0.950 . S
H2099 C2105 0.950 . S
H2100 C2106 0.949 . S
C2101 H2096 0.950 . S
C2101 C2103 1.327 . S
C2101 C2107 1.429 . S
C2102 C2094 1.574 . S
C2102 H2097 0.949 . S
C2102 C2108 1.368 . S
C2103 C2087 1.349 . S
C2103 H2095 0.950 . S
C2103 C2101 1.327 . S
C2104 C2092 1.349 . S
C2104 H2098 0.950 . S
C2104 C2105 1.327 . S
C2105 H2099 0.950 . S
C2105 C2104 1.327 . S
C2105 C2109 1.429 . S
C2106 C2089 1.574 . S
C2106 H2100 0.949 . S
C2106 C2110 1.368 . S
C2107 C2088 1.429 . S
C2107 C2101 1.429 . S
C2107 C2108 1.523 . S
C2108 C2089 1.368 . S
C2108 C2102 1.368 . S
C2108 C2107 1.523 . S
C2109 C2093 1.429 . S
C2109 C2105 1.429 . S
C2109 C2110 1.523 . S
C2110 C2094 1.368 . S
C2110 C2106 1.368 . S
C2110 C2109 1.523 . S
H2111 C2086 0.950 . S
H2112 C2088 0.950 . S
H2113 C2089 0.949 . S
H2114 C2091 0.950 . S
H2115 C2093 0.950 . S
C2116 C2117 1.349 . S
C2116 C2118 1.327 . S
C2116 H2141 0.950 . S
C2117 C2116 1.349 . S
C2117 C2133 1.349 . S
C2118 C2116 1.327 . S
C2118 C2137 1.429 . S
C2118 H2142 0.950 . S
C2119 C2136 1.574 . S
C2119 C2138 1.368 . S
C2119 H2143 0.949 . S
H2120 C2124 0.949 . S
C2121 C2122 1.349 . S
C2121 C2123 1.327 . S
C2121 H2144 0.950 . S
C2122 C2121 1.349 . S
C2122 C2134 1.349 . S
C2123 C2121 1.327 . S
C2123 C2139 1.429 . S
C2123 H2145 0.950 . S
C2124 H2120 0.949 . S
C2124 C2132 1.574 . S
C2124 C2140 1.368 . S
H2125 C2133 0.950 . S
H2126 C2131 0.950 . S
H2127 C2132 0.949 . S
H2128 C2134 0.950 . S
H2129 C2135 0.950 . S
H2130 C2136 0.949 . S
C2131 H2126 0.950 . S
C2131 C2133 1.327 . S
C2131 C2137 1.429 . S
C2132 C2124 1.574 . S
C2132 H2127 0.949 . S
C2132 C2138 1.368 . S
C2133 C2117 1.349 . S
C2133 H2125 0.950 . S
C2133 C2131 1.327 . S
C2134 C2122 1.349 . S
C2134 H2128 0.950 . S
C2134 C2135 1.327 . S
C2135 H2129 0.950 . S
C2135 C2134 1.327 . S
C2135 C2139 1.429 . S
C2136 C2119 1.574 . S
C2136 H2130 0.949 . S
C2136 C2140 1.368 . S
C2137 C2118 1.429 . S
C2137 C2131 1.429 . S
C2137 C2138 1.523 . S
C2138 C2119 1.368 . S
C2138 C2132 1.368 . S
C2138 C2137 1.523 . S
C2139 C2123 1.429 . S
C2139 C2135 1.429 . S
C2139 C2140 1.523 . S
C2140 C2124 1.368 . S
C2140 C2136 1.368 . S
C2140 C2139 1.523 . S
H2141 C2116 0.950 . S
H2142 C2118 0.950 . S
H2143 C2119 0.949 . S
H2144 C2121 0.950 . S
H2145 C2123 0.950 . S
C2146 C2147 1.349 . S
C2146 C2148 1.327 . S
C2146 H2171 0.950 . S
C2147 C2146 1.349 . S
C2147 C2163 1.349 . S
C2148 C2146 1.327 . S
C2148 C2167 1.429 . S
C2148 H2172 0.950 . S
C2149 C2166 1.574 . S
C2149 C2168 1.368 . S
C2149 H2173 0.949 . S
H2150 C2154 0.949 1_556 S
C2151 C2152 1.349 . S
C2151 C2153 1.327 . S
C2151 H2174 0.950 . S
C2152 C2151 1.349 . S
C2152 C2164 1.349 . S
C2153 C2151 1.327 . S
C2153 C2169 1.429 . S
C2153 H2175 0.950 . S
C2154 H2150 0.949 1_554 S
C2154 C2162 1.574 . S
C2154 C2170 1.368 . S
H2155 C2163 0.950 . S
H2156 C2161 0.950 . S
H2157 C2162 0.949 . S
H2158 C2164 0.950 . S
H2159 C2165 0.950 . S
H2160 C2166 0.949 . S
C2161 H2156 0.950 . S
C2161 C2163 1.327 . S
C2161 C2167 1.429 . S
C2162 C2154 1.574 . S
C2162 H2157 0.949 . S
C2162 C2168 1.368 . S
C2163 C2147 1.349 . S
C2163 H2155 0.950 . S
C2163 C2161 1.327 . S
C2164 C2152 1.349 . S
C2164 H2158 0.950 . S
C2164 C2165 1.327 . S
C2165 H2159 0.950 . S
C2165 C2164 1.327 . S
C2165 C2169 1.429 . S
C2166 C2149 1.574 . S
C2166 H2160 0.949 . S
C2166 C2170 1.368 . S
C2167 C2148 1.429 . S
C2167 C2161 1.429 . S
C2167 C2168 1.523 . S
C2168 C2149 1.368 . S
C2168 C2162 1.368 . S
C2168 C2167 1.523 . S
C2169 C2153 1.429 . S
C2169 C2165 1.429 . S
C2169 C2170 1.523 1_556 S
C2170 C2154 1.368 . S
C2170 C2166 1.368 . S
C2170 C2169 1.523 1_554 S
H2171 C2146 0.950 . S
H2172 C2148 0.950 . S
H2173 C2149 0.949 . S
H2174 C2151 0.950 . S
H2175 C2153 0.950 . S
C2176 C2177 1.349 . S
C2176 C2178 1.327 . S
C2176 H2201 0.950 . S
C2177 C2176 1.349 . S
C2177 C2193 1.349 . S
C2178 C2176 1.327 . S
C2178 C2197 1.429 . S
C2178 H2202 0.950 . S
C2179 C2196 1.574 . S
C2179 C2198 1.368 . S
C2179 H2203 0.949 . S
H2180 C2184 0.949 . S
C2181 C2182 1.349 . S
C2181 C2183 1.327 . S
C2181 H2204 0.950 . S
C2182 C2181 1.349 . S
C2182 C2194 1.349 . S
C2183 C2181 1.327 . S
C2183 C2199 1.429 . S
C2183 H2205 0.950 . S
C2184 H2180 0.949 . S
C2184 C2192 1.574 . S
C2184 C2200 1.368 . S
H2185 C2193 0.950 . S
H2186 C2191 0.950 . S
H2187 C2192 0.949 . S
H2188 C2194 0.950 . S
H2189 C2195 0.950 . S
H2190 C2196 0.949 . S
C2191 H2186 0.950 . S
C2191 C2193 1.327 . S
C2191 C2197 1.429 . S
C2192 C2184 1.574 . S
C2192 H2187 0.949 . S
C2192 C2198 1.368 . S
C2193 C2177 1.349 . S
C2193 H2185 0.950 . S
C2193 C2191 1.327 . S
C2194 C2182 1.349 . S
C2194 H2188 0.950 . S
C2194 C2195 1.327 . S
C2195 H2189 0.950 . S
C2195 C2194 1.327 . S
C2195 C2199 1.429 . S
C2196 C2179 1.574 . S
C2196 H2190 0.949 . S
C2196 C2200 1.368 . S
C2197 C2178 1.429 . S
C2197 C2191 1.429 . S
C2197 C2198 1.523 . S
C2198 C2179 1.368 . S
C2198 C2192 1.368 . S
C2198 C2197 1.523 . S
C2199 C2183 1.429 . S
C2199 C2195 1.429 . S
C2199 C2200 1.523 . S
C2200 C2184 1.368 . S
C2200 C2196 1.368 . S
C2200 C2199 1.523 . S
H2201 C2176 0.950 . S
H2202 C2178 0.950 . S
H2203 C2179 0.949 . S
H2204 C2181 0.950 . S
H2205 C2183 0.950 . S
C2206 C2207 1.349 . S
C2206 C2208 1.327 . S
C2206 H2231 0.950 . S
C2207 C2206 1.349 . S
C2207 C2223 1.349 . S
C2208 C2206 1.327 . S
C2208 C2227 1.429 . S
C2208 H2232 0.950 . S
C2209 C2226 1.574 1_565 S
C2209 C2228 1.368 . S
C2209 H2233 0.949 . S
H2210 C2214 0.949 . S
C2211 C2212 1.349 . S
C2211 C2213 1.327 . S
C2211 H2234 0.950 . S
C2212 C2211 1.349 . S
C2212 C2224 1.349 . S
C2213 C2211 1.327 . S
C2213 C2229 1.429 . S
C2213 H2235 0.950 . S
C2214 H2210 0.949 . S
C2214 C2222 1.574 . S
C2214 C2230 1.368 1_565 S
H2215 C2223 0.950 . S
H2216 C2221 0.950 . S
H2217 C2222 0.949 . S
H2218 C2224 0.950 . S
H2219 C2225 0.950 . S
H2220 C2226 0.949 . S
C2221 H2216 0.950 . S
C2221 C2223 1.327 . S
C2221 C2227 1.429 . S
C2222 C2214 1.574 . S
C2222 H2217 0.949 . S
C2222 C2228 1.368 . S
C2223 C2207 1.349 . S
C2223 H2215 0.950 . S
C2223 C2221 1.327 . S
C2224 C2212 1.349 . S
C2224 H2218 0.950 . S
C2224 C2225 1.327 . S
C2225 H2219 0.950 . S
C2225 C2224 1.327 . S
C2225 C2229 1.429 . S
C2226 C2209 1.574 1_545 S
C2226 H2220 0.949 . S
C2226 C2230 1.368 . S
C2227 C2208 1.429 . S
C2227 C2221 1.429 . S
C2227 C2228 1.523 . S
C2228 C2209 1.368 . S
C2228 C2222 1.368 . S
C2228 C2227 1.523 . S
C2229 C2213 1.429 . S
C2229 C2225 1.429 . S
C2229 C2230 1.523 . S
C2230 C2214 1.368 1_545 S
C2230 C2226 1.368 . S
C2230 C2229 1.523 . S
H2231 C2206 0.950 . S
H2232 C2208 0.950 . S
H2233 C2209 0.949 . S
H2234 C2211 0.950 . S
H2235 C2213 0.950 . S
C2236 C2237 1.349 . S
C2236 C2238 1.327 . S
C2236 H2261 0.950 . S
C2237 C2236 1.349 . S
C2237 C2253 1.349 . S
C2238 C2236 1.327 . S
C2238 C2257 1.429 . S
C2238 H2262 0.950 . S
C2239 C2256 1.574 . S
C2239 C2258 1.368 . S
C2239 H2263 0.949 . S
H2240 C2244 0.949 . S
C2241 C2242 1.349 . S
C2241 C2243 1.327 . S
C2241 H2264 0.950 . S
C2242 C2241 1.349 . S
C2242 C2254 1.349 . S
C2243 C2241 1.327 . S
C2243 C2259 1.429 . S
C2243 H2265 0.950 . S
C2244 H2240 0.949 . S
C2244 C2252 1.574 . S
C2244 C2260 1.368 . S
H2245 C2253 0.950 . S
H2246 C2251 0.950 . S
H2247 C2252 0.949 . S
H2248 C2254 0.950 . S
H2249 C2255 0.950 . S
H2250 C2256 0.949 . S
C2251 H2246 0.950 . S
C2251 C2253 1.327 . S
C2251 C2257 1.429 . S
C2252 C2244 1.574 . S
C2252 H2247 0.949 . S
C2252 C2258 1.368 . S
C2253 C2237 1.349 . S
C2253 H2245 0.950 . S
C2253 C2251 1.327 . S
C2254 C2242 1.349 . S
C2254 H2248 0.950 . S
C2254 C2255 1.327 . S
C2255 H2249 0.950 . S
C2255 C2254 1.327 . S
C2255 C2259 1.429 . S
C2256 C2239 1.574 . S
C2256 H2250 0.949 . S
C2256 C2260 1.368 . S
C2257 C2238 1.429 . S
C2257 C2251 1.429 . S
C2257 C2258 1.523 . S
C2258 C2239 1.368 . S
C2258 C2252 1.368 . S
C2258 C2257 1.523 . S
C2259 C2243 1.429 . S
C2259 C2255 1.429 . S
C2259 C2260 1.523 . S
C2260 C2244 1.368 . S
C2260 C2256 1.368 . S
C2260 C2259 1.523 . S
H2261 C2236 0.950 . S
H2262 C2238 0.950 . S
H2263 C2239 0.949 . S
H2264 C2241 0.950 . S
H2265 C2243 0.950 . S
C2266 C2267 1.349 . S
C2266 C2268 1.327 . S
C2266 H2291 0.950 . S
C2267 C2266 1.349 . S
C2267 C2283 1.349 . S
C2268 C2266 1.327 . S
C2268 C2287 1.429 . S
C2268 H2292 0.950 . S
C2269 C2286 1.574 1_545 S
C2269 C2288 1.368 . S
C2269 H2293 0.949 . S
H2270 C2274 0.949 . S
C2271 C2272 1.349 . S
C2271 C2273 1.327 . S
C2271 H2294 0.950 . S
C2272 C2271 1.349 . S
C2272 C2284 1.349 . S
C2273 C2271 1.327 . S
C2273 C2289 1.429 . S
C2273 H2295 0.950 . S
C2274 H2270 0.949 . S
C2274 C2282 1.574 . S
C2274 C2290 1.368 1_545 S
H2275 C2283 0.950 . S
H2276 C2281 0.950 . S
H2277 C2282 0.949 . S
H2278 C2284 0.950 . S
H2279 C2285 0.950 . S
H2280 C2286 0.949 . S
C2281 H2276 0.950 . S
C2281 C2283 1.327 . S
C2281 C2287 1.429 . S
C2282 C2274 1.574 . S
C2282 H2277 0.949 . S
C2282 C2288 1.368 . S
C2283 C2267 1.349 . S
C2283 H2275 0.950 . S
C2283 C2281 1.327 . S
C2284 C2272 1.349 . S
C2284 H2278 0.950 . S
C2284 C2285 1.327 . S
C2285 H2279 0.950 . S
C2285 C2284 1.327 . S
C2285 C2289 1.429 . S
C2286 C2269 1.574 1_565 S
C2286 H2280 0.949 . S
C2286 C2290 1.368 . S
C2287 C2268 1.429 . S
C2287 C2281 1.429 . S
C2287 C2288 1.523 . S
C2288 C2269 1.368 . S
C2288 C2282 1.368 . S
C2288 C2287 1.523 . S
C2289 C2273 1.429 . S
C2289 C2285 1.429 . S
C2289 C2290 1.523 . S
C2290 C2274 1.368 1_565 S
C2290 C2286 1.368 . S
C2290 C2289 1.523 . S
H2291 C2266 0.950 . S
H2292 C2268 0.950 . S
H2293 C2269 0.949 . S
H2294 C2271 0.950 . S
H2295 C2273 0.950 . S
C2296 C2297 1.349 . S
C2296 C2298 1.327 . S
C2296 H2321 0.950 . S
C2297 C2296 1.349 . S
C2297 C2313 1.349 . S
C2298 C2296 1.327 . S
C2298 C2317 1.429 . S
C2298 H2322 0.950 . S
C2299 C2316 1.574 . S
C2299 C2318 1.368 . S
C2299 H2323 0.949 . S
H2300 C2304 0.949 . S
C2301 C2302 1.349 . S
C2301 C2303 1.327 . S
C2301 H2324 0.950 . S
C2302 C2301 1.349 . S
C2302 C2314 1.349 . S
C2303 C2301 1.327 . S
C2303 C2319 1.429 . S
C2303 H2325 0.950 . S
C2304 H2300 0.949 . S
C2304 C2312 1.574 . S
C2304 C2320 1.368 . S
H2305 C2313 0.950 . S
H2306 C2311 0.950 . S
H2307 C2312 0.949 . S
H2308 C2314 0.950 . S
H2309 C2315 0.950 . S
H2310 C2316 0.949 . S
C2311 H2306 0.950 . S
C2311 C2313 1.327 . S
C2311 C2317 1.429 . S
C2312 C2304 1.574 . S
C2312 H2307 0.949 . S
C2312 C2318 1.368 . S
C2313 C2297 1.349 . S
C2313 H2305 0.950 . S
C2313 C2311 1.327 . S
C2314 C2302 1.349 . S
C2314 H2308 0.950 . S
C2314 C2315 1.327 . S
C2315 H2309 0.950 . S
C2315 C2314 1.327 . S
C2315 C2319 1.429 . S
C2316 C2299 1.574 . S
C2316 H2310 0.949 . S
C2316 C2320 1.368 . S
C2317 C2298 1.429 . S
C2317 C2311 1.429 . S
C2317 C2318 1.523 . S
C2318 C2299 1.368 . S
C2318 C2312 1.368 . S
C2318 C2317 1.523 . S
C2319 C2303 1.429 . S
C2319 C2315 1.429 . S
C2319 C2320 1.523 . S
C2320 C2304 1.368 . S
C2320 C2316 1.368 . S
C2320 C2319 1.523 . S
H2321 C2296 0.950 . S
H2322 C2298 0.950 . S
H2323 C2299 0.949 . S
H2324 C2301 0.950 . S
H2325 C2303 0.950 . S
C2326 C2327 1.349 . S
C2326 C2328 1.327 . S
C2326 H2351 0.950 . S
C2327 C2326 1.349 . S
C2327 C2343 1.349 . S
C2328 C2326 1.327 . S
C2328 C2347 1.429 . S
C2328 H2352 0.950 . S
C2329 C2346 1.574 1_565 S
C2329 C2348 1.368 . S
C2329 H2353 0.949 . S
H2330 C2334 0.949 . S
C2331 C2332 1.349 . S
C2331 C2333 1.327 . S
C2331 H2354 0.950 . S
C2332 C2331 1.349 . S
C2332 C2344 1.349 . S
C2333 C2331 1.327 . S
C2333 C2349 1.429 . S
C2333 H2355 0.950 . S
C2334 H2330 0.949 . S
C2334 C2342 1.574 . S
C2334 C2350 1.368 1_565 S
H2335 C2343 0.950 . S
H2336 C2341 0.950 . S
H2337 C2342 0.949 . S
H2338 C2344 0.950 . S
H2339 C2345 0.950 . S
H2340 C2346 0.949 . S
C2341 H2336 0.950 . S
C2341 C2343 1.327 . S
C2341 C2347 1.429 . S
C2342 C2334 1.574 . S
C2342 H2337 0.949 . S
C2342 C2348 1.368 . S
C2343 C2327 1.349 . S
C2343 H2335 0.950 . S
C2343 C2341 1.327 . S
C2344 C2332 1.349 . S
C2344 H2338 0.950 . S
C2344 C2345 1.327 . S
C2345 H2339 0.950 . S
C2345 C2344 1.327 . S
C2345 C2349 1.429 . S
C2346 C2329 1.574 1_545 S
C2346 H2340 0.949 . S
C2346 C2350 1.368 . S
C2347 C2328 1.429 . S
C2347 C2341 1.429 . S
C2347 C2348 1.523 . S
C2348 C2329 1.368 . S
C2348 C2342 1.368 . S
C2348 C2347 1.523 . S
C2349 C2333 1.429 . S
C2349 C2345 1.429 . S
C2349 C2350 1.523 . S
C2350 C2334 1.368 1_545 S
C2350 C2346 1.368 . S
C2350 C2349 1.523 . S
H2351 C2326 0.950 . S
H2352 C2328 0.950 . S
H2353 C2329 0.949 . S
H2354 C2331 0.950 . S
H2355 C2333 0.950 . S
C2356 C2357 1.349 . S
C2356 C2358 1.327 . S
C2356 H2381 0.950 . S
C2357 C2356 1.349 . S
C2357 C2373 1.349 . S
C2358 C2356 1.327 . S
C2358 C2377 1.429 . S
C2358 H2382 0.950 . S
C2359 C2376 1.574 . S
C2359 C2378 1.368 . S
C2359 H2383 0.949 . S
H2360 C2364 0.949 . S
C2361 C2362 1.349 . S
C2361 C2363 1.327 . S
C2361 H2384 0.950 . S
C2362 C2361 1.349 . S
C2362 C2374 1.349 . S
C2363 C2361 1.327 . S
C2363 C2379 1.429 . S
C2363 H2385 0.950 . S
C2364 H2360 0.949 . S
C2364 C2372 1.574 . S
C2364 C2380 1.368 . S
H2365 C2373 0.950 . S
H2366 C2371 0.950 . S
H2367 C2372 0.949 . S
H2368 C2374 0.950 . S
H2369 C2375 0.950 . S
H2370 C2376 0.949 . S
C2371 H2366 0.950 . S
C2371 C2373 1.327 . S
C2371 C2377 1.429 . S
C2372 C2364 1.574 . S
C2372 H2367 0.949 . S
C2372 C2378 1.368 . S
C2373 C2357 1.349 . S
C2373 H2365 0.950 . S
C2373 C2371 1.327 . S
C2374 C2362 1.349 . S
C2374 H2368 0.950 . S
C2374 C2375 1.327 . S
C2375 H2369 0.950 . S
C2375 C2374 1.327 . S
C2375 C2379 1.429 . S
C2376 C2359 1.574 . S
C2376 H2370 0.949 . S
C2376 C2380 1.368 . S
C2377 C2358 1.429 . S
C2377 C2371 1.429 . S
C2377 C2378 1.523 . S
C2378 C2359 1.368 . S
C2378 C2372 1.368 . S
C2378 C2377 1.523 . S
C2379 C2363 1.429 . S
C2379 C2375 1.429 . S
C2379 C2380 1.523 . S
C2380 C2364 1.368 . S
C2380 C2376 1.368 . S
C2380 C2379 1.523 . S
H2381 C2356 0.950 . S
H2382 C2358 0.950 . S
H2383 C2359 0.949 . S
H2384 C2361 0.950 . S
H2385 C2363 0.950 . S
C2386 C2387 1.349 . S
C2386 C2388 1.327 . S
C2386 H2411 0.950 . S
C2387 C2386 1.349 . S
C2387 C2403 1.349 . S
C2388 C2386 1.327 . S
C2388 C2407 1.429 . S
C2388 H2412 0.950 . S
C2389 C2406 1.574 1_545 S
C2389 C2408 1.368 . S
C2389 H2413 0.949 . S
H2390 C2394 0.949 . S
C2391 C2392 1.349 . S
C2391 C2393 1.327 . S
C2391 H2414 0.950 . S
C2392 C2391 1.349 . S
C2392 C2404 1.349 . S
C2393 C2391 1.327 . S
C2393 C2409 1.429 . S
C2393 H2415 0.950 . S
C2394 H2390 0.949 . S
C2394 C2402 1.574 . S
C2394 C2410 1.368 1_545 S
H2395 C2403 0.950 . S
H2396 C2401 0.950 . S
H2397 C2402 0.949 . S
H2398 C2404 0.950 . S
H2399 C2405 0.950 . S
H2400 C2406 0.949 . S
C2401 H2396 0.950 . S
C2401 C2403 1.327 . S
C2401 C2407 1.429 . S
C2402 C2394 1.574 . S
C2402 H2397 0.949 . S
C2402 C2408 1.368 . S
C2403 C2387 1.349 . S
C2403 H2395 0.950 . S
C2403 C2401 1.327 . S
C2404 C2392 1.349 . S
C2404 H2398 0.950 . S
C2404 C2405 1.327 . S
C2405 H2399 0.950 . S
C2405 C2404 1.327 . S
C2405 C2409 1.429 . S
C2406 C2389 1.574 1_565 S
C2406 H2400 0.949 . S
C2406 C2410 1.368 . S
C2407 C2388 1.429 . S
C2407 C2401 1.429 . S
C2407 C2408 1.523 . S
C2408 C2389 1.368 . S
C2408 C2402 1.368 . S
C2408 C2407 1.523 . S
C2409 C2393 1.429 . S
C2409 C2405 1.429 . S
C2409 C2410 1.523 . S
C2410 C2394 1.368 1_565 S
C2410 C2406 1.368 . S
C2410 C2409 1.523 . S
H2411 C2386 0.950 . S
H2412 C2388 0.950 . S
H2413 C2389 0.949 . S
H2414 C2391 0.950 . S
H2415 C2393 0.950 . S
C2416 C2417 1.349 . S
C2416 C2418 1.327 . S
C2416 H2441 0.950 1_556 S
C2417 C2416 1.349 . S
C2417 C2433 1.349 . S
C2418 C2416 1.327 . S
C2418 C2437 1.429 . S
C2418 H2442 0.950 . S
C2419 C2436 1.574 . S
C2419 C2438 1.368 . S
C2419 H2443 0.949 . S
H2420 C2424 0.949 . S
C2421 C2422 1.349 . S
C2421 C2423 1.327 . S
C2421 H2444 0.950 . S
C2422 C2421 1.349 . S
C2422 C2434 1.349 . S
C2423 C2421 1.327 . S
C2423 C2439 1.429 . S
C2423 H2445 0.950 . S
C2424 H2420 0.949 . S
C2424 C2432 1.574 . S
C2424 C2440 1.368 . S
H2425 C2433 0.950 . S
H2426 C2431 0.950 . S
H2427 C2432 0.949 . S
H2428 C2434 0.950 . S
H2429 C2435 0.950 . S
H2430 C2436 0.949 . S
C2431 H2426 0.950 . S
C2431 C2433 1.327 . S
C2431 C2437 1.429 . S
C2432 C2424 1.574 . S
C2432 H2427 0.949 . S
C2432 C2438 1.368 . S
C2433 C2417 1.349 . S
C2433 H2425 0.950 . S
C2433 C2431 1.327 . S
C2434 C2422 1.349 . S
C2434 H2428 0.950 . S
C2434 C2435 1.327 . S
C2435 H2429 0.950 . S
C2435 C2434 1.327 . S
C2435 C2439 1.429 . S
C2436 C2419 1.574 . S
C2436 H2430 0.949 . S
C2436 C2440 1.368 . S
C2437 C2418 1.429 . S
C2437 C2431 1.429 . S
C2437 C2438 1.523 . S
C2438 C2419 1.368 . S
C2438 C2432 1.368 . S
C2438 C2437 1.523 . S
C2439 C2423 1.429 . S
C2439 C2435 1.429 . S
C2439 C2440 1.523 . S
C2440 C2424 1.368 . S
C2440 C2436 1.368 . S
C2440 C2439 1.523 . S
H2441 C2416 0.950 1_554 S
H2442 C2418 0.950 . S
H2443 C2419 0.949 . S
H2444 C2421 0.950 . S
H2445 C2423 0.950 . S
C2446 C2447 1.349 . S
C2446 C2448 1.327 . S
C2446 H2471 0.950 . S
C2447 C2446 1.349 . S
C2447 C2463 1.349 . S
C2448 C2446 1.327 . S
C2448 C2467 1.429 . S
C2448 H2472 0.950 . S
C2449 C2466 1.574 . S
C2449 C2468 1.368 . S
C2449 H2473 0.949 . S
H2450 C2454 0.949 . S
C2451 C2452 1.349 . S
C2451 C2453 1.327 . S
C2451 H2474 0.950 . S
C2452 C2451 1.349 . S
C2452 C2464 1.349 . S
C2453 C2451 1.327 . S
C2453 C2469 1.429 . S
C2453 H2475 0.950 . S
C2454 H2450 0.949 . S
C2454 C2462 1.574 . S
C2454 C2470 1.368 . S
H2455 C2463 0.950 . S
H2456 C2461 0.950 . S
H2457 C2462 0.949 . S
H2458 C2464 0.950 . S
H2459 C2465 0.950 . S
H2460 C2466 0.949 . S
C2461 H2456 0.950 . S
C2461 C2463 1.327 . S
C2461 C2467 1.429 . S
C2462 C2454 1.574 . S
C2462 H2457 0.949 . S
C2462 C2468 1.368 . S
C2463 C2447 1.349 . S
C2463 H2455 0.950 . S
C2463 C2461 1.327 . S
C2464 C2452 1.349 . S
C2464 H2458 0.950 . S
C2464 C2465 1.327 . S
C2465 H2459 0.950 . S
C2465 C2464 1.327 . S
C2465 C2469 1.429 . S
C2466 C2449 1.574 . S
C2466 H2460 0.949 . S
C2466 C2470 1.368 . S
C2467 C2448 1.429 . S
C2467 C2461 1.429 . S
C2467 C2468 1.523 . S
C2468 C2449 1.368 . S
C2468 C2462 1.368 . S
C2468 C2467 1.523 . S
C2469 C2453 1.429 . S
C2469 C2465 1.429 . S
C2469 C2470 1.523 . S
C2470 C2454 1.368 . S
C2470 C2466 1.368 . S
C2470 C2469 1.523 . S
H2471 C2446 0.950 . S
H2472 C2448 0.950 . S
H2473 C2449 0.949 . S
H2474 C2451 0.950 . S
H2475 C2453 0.950 . S
C2476 C2477 1.349 . S
C2476 C2478 1.327 . S
C2476 H2501 0.950 . S
C2477 C2476 1.349 . S
C2477 C2493 1.349 . S
C2478 C2476 1.327 . S
C2478 C2497 1.429 . S
C2478 H2502 0.950 . S
C2479 C2496 1.574 . S
C2479 C2498 1.368 . S
C2479 H2503 0.949 . S
H2480 C2484 0.949 . S
C2481 C2482 1.349 . S
C2481 C2483 1.327 . S
C2481 H2504 0.950 . S
C2482 C2481 1.349 . S
C2482 C2494 1.349 . S
C2483 C2481 1.327 . S
C2483 C2499 1.429 . S
C2483 H2505 0.950 . S
C2484 H2480 0.949 . S
C2484 C2492 1.574 1_455 S
C2484 C2500 1.368 . S
H2485 C2493 0.950 . S
H2486 C2491 0.950 . S
H2487 C2492 0.949 . S
H2488 C2494 0.950 . S
H2489 C2495 0.950 . S
H2490 C2496 0.949 . S
C2491 H2486 0.950 . S
C2491 C2493 1.327 . S
C2491 C2497 1.429 . S
C2492 C2484 1.574 1_655 S
C2492 H2487 0.949 . S
C2492 C2498 1.368 . S
C2493 C2477 1.349 . S
C2493 H2485 0.950 . S
C2493 C2491 1.327 . S
C2494 C2482 1.349 . S
C2494 H2488 0.950 . S
C2494 C2495 1.327 . S
C2495 H2489 0.950 . S
C2495 C2494 1.327 . S
C2495 C2499 1.429 . S
C2496 C2479 1.574 . S
C2496 H2490 0.949 . S
C2496 C2500 1.368 1_655 S
C2497 C2478 1.429 . S
C2497 C2491 1.429 . S
C2497 C2498 1.523 . S
C2498 C2479 1.368 . S
C2498 C2492 1.368 . S
C2498 C2497 1.523 . S
C2499 C2483 1.429 . S
C2499 C2495 1.429 . S
C2499 C2500 1.523 . S
C2500 C2484 1.368 . S
C2500 C2496 1.368 1_455 S
C2500 C2499 1.523 . S
H2501 C2476 0.950 . S
H2502 C2478 0.950 . S
H2503 C2479 0.949 . S
H2504 C2481 0.950 . S
H2505 C2483 0.950 . S
C2506 C2507 1.349 . S
C2506 C2508 1.327 . S
C2506 H2531 0.950 . S
C2507 C2506 1.349 . S
C2507 C2523 1.349 . S
C2508 C2506 1.327 . S
C2508 C2527 1.429 . S
C2508 H2532 0.950 . S
C2509 C2526 1.574 . S
C2509 C2528 1.368 . S
C2509 H2533 0.949 . S
H2510 C2514 0.949 . S
C2511 C2512 1.349 . S
C2511 C2513 1.327 . S
C2511 H2534 0.950 . S
C2512 C2511 1.349 . S
C2512 C2524 1.349 . S
C2513 C2511 1.327 . S
C2513 C2529 1.429 . S
C2513 H2535 0.950 . S
C2514 H2510 0.949 . S
C2514 C2522 1.574 . S
C2514 C2530 1.368 . S
H2515 C2523 0.950 . S
H2516 C2521 0.950 . S
H2517 C2522 0.949 . S
H2518 C2524 0.950 . S
H2519 C2525 0.950 . S
H2520 C2526 0.949 . S
C2521 H2516 0.950 . S
C2521 C2523 1.327 . S
C2521 C2527 1.429 . S
C2522 C2514 1.574 . S
C2522 H2517 0.949 . S
C2522 C2528 1.368 . S
C2523 C2507 1.349 . S
C2523 H2515 0.950 . S
C2523 C2521 1.327 . S
C2524 C2512 1.349 . S
C2524 H2518 0.950 . S
C2524 C2525 1.327 . S
C2525 H2519 0.950 . S
C2525 C2524 1.327 . S
C2525 C2529 1.429 . S
C2526 C2509 1.574 . S
C2526 H2520 0.949 . S
C2526 C2530 1.368 . S
C2527 C2508 1.429 . S
C2527 C2521 1.429 . S
C2527 C2528 1.523 . S
C2528 C2509 1.368 . S
C2528 C2522 1.368 . S
C2528 C2527 1.523 . S
C2529 C2513 1.429 . S
C2529 C2525 1.429 . S
C2529 C2530 1.523 . S
C2530 C2514 1.368 . S
C2530 C2526 1.368 . S
C2530 C2529 1.523 . S
H2531 C2506 0.950 . S
H2532 C2508 0.950 . S
H2533 C2509 0.949 . S
H2534 C2511 0.950 . S
H2535 C2513 0.950 . S
C2536 C2537 1.349 . S
C2536 C2538 1.327 . S
C2536 H2561 0.950 . S
C2537 C2536 1.349 . S
C2537 C2553 1.349 . S
C2538 C2536 1.327 . S
C2538 C2557 1.429 . S
C2538 H2562 0.950 . S
C2539 C2556 1.574 . S
C2539 C2558 1.368 . S
C2539 H2563 0.949 . S
H2540 C2544 0.946 . S
C2541 C2542 1.349 . S
C2541 C2543 1.327 . S
C2541 H2564 0.950 . S
C2542 C2541 1.349 . S
C2542 C2554 1.349 . S
C2543 C2541 1.327 . S
C2543 C2559 1.429 . S
C2543 H2565 0.950 . S
C2544 H2540 0.946 . S
C2544 C2552 1.576 1_655 S
C2544 C2560 1.367 1_655 S
H2545 C2553 0.950 . S
H2546 C2551 0.950 . S
H2547 C2552 0.949 . S
H2548 C2554 0.950 . S
H2549 C2555 0.950 . S
H2550 C2556 0.949 . S
C2551 H2546 0.950 . S
C2551 C2553 1.327 . S
C2551 C2557 1.429 . S
C2552 C2544 1.576 1_455 S
C2552 H2547 0.949 . S
C2552 C2558 1.368 . S
C2553 C2537 1.349 . S
C2553 H2545 0.950 . S
C2553 C2551 1.327 . S
C2554 C2542 1.349 . S
C2554 H2548 0.950 . S
C2554 C2555 1.327 . S
C2555 H2549 0.950 . S
C2555 C2554 1.327 . S
C2555 C2559 1.429 . S
C2556 C2539 1.574 . S
C2556 H2550 0.949 . S
C2556 C2560 1.399 . S
C2557 C2538 1.429 . S
C2557 C2551 1.429 . S
C2557 C2558 1.523 . S
C2558 C2539 1.368 . S
C2558 C2552 1.368 . S
C2558 C2557 1.523 . S
C2559 C2543 1.429 . S
C2559 C2555 1.429 . S
C2559 C2560 1.487 1_655 S
C2560 C2544 1.367 1_455 S
C2560 C2556 1.399 . S
C2560 C2559 1.487 1_455 S
H2561 C2536 0.950 . S
H2562 C2538 0.950 . S
H2563 C2539 0.949 . S
H2564 C2541 0.950 . S
H2565 C2543 0.950 . S
C2566 C2567 1.349 . S
C2566 C2568 1.327 . S
C2566 H2591 0.950 . S
C2567 C2566 1.349 . S
C2567 C2583 1.349 . S
C2568 C2566 1.327 . S
C2568 C2587 1.429 . S
C2568 H2592 0.950 . S
C2569 C2586 1.574 . S
C2569 C2588 1.368 . S
C2569 H2593 0.949 . S
H2570 C2574 0.949 . S
C2571 C2572 1.349 . S
C2571 C2573 1.327 . S
C2571 H2594 0.950 . S
C2572 C2571 1.349 . S
C2572 C2584 1.349 . S
C2573 C2571 1.327 . S
C2573 C2589 1.429 . S
C2573 H2595 0.950 . S
C2574 H2570 0.949 . S
C2574 C2582 1.574 . S
C2574 C2590 1.368 . S
H2575 C2583 0.950 . S
H2576 C2581 0.950 . S
H2577 C2582 0.949 . S
H2578 C2584 0.950 . S
H2579 C2585 0.950 . S
H2580 C2586 0.949 . S
C2581 H2576 0.950 . S
C2581 C2583 1.327 . S
C2581 C2587 1.429 . S
C2582 C2574 1.574 . S
C2582 H2577 0.949 . S
C2582 C2588 1.368 . S
C2583 C2567 1.349 . S
C2583 H2575 0.950 . S
C2583 C2581 1.327 . S
C2584 C2572 1.349 . S
C2584 H2578 0.950 . S
C2584 C2585 1.327 . S
C2585 H2579 0.950 . S
C2585 C2584 1.327 . S
C2585 C2589 1.429 . S
C2586 C2569 1.574 . S
C2586 H2580 0.949 . S
C2586 C2590 1.368 . S
C2587 C2568 1.429 . S
C2587 C2581 1.429 . S
C2587 C2588 1.523 . S
C2588 C2569 1.368 . S
C2588 C2582 1.368 . S
C2588 C2587 1.523 . S
C2589 C2573 1.429 . S
C2589 C2585 1.429 . S
C2589 C2590 1.523 . S
C2590 C2574 1.368 . S
C2590 C2586 1.368 . S
C2590 C2589 1.523 . S
H2591 C2566 0.950 . S
H2592 C2568 0.950 . S
H2593 C2569 0.949 . S
H2594 C2571 0.950 . S
H2595 C2573 0.950 . S
C2596 C2597 1.349 . S
C2596 C2598 1.327 . S
C2596 H2621 0.950 . S
C2597 C2596 1.349 . S
C2597 C2613 1.349 . S
C2598 C2596 1.327 . S
C2598 C2617 1.429 . S
C2598 H2622 0.950 . S
C2599 C2616 1.574 1_655 S
C2599 C2618 1.368 . S
C2599 H2623 0.949 . S
H2600 C2604 0.949 . S
C2601 C2602 1.349 . S
C2601 C2603 1.327 . S
C2601 H2624 0.950 . S
C2602 C2601 1.349 . S
C2602 C2614 1.349 . S
C2603 C2601 1.327 . S
C2603 C2619 1.429 . S
C2603 H2625 0.950 . S
C2604 H2600 0.949 . S
C2604 C2612 1.574 1_455 S
C2604 C2620 1.368 . S
H2605 C2613 0.950 . S
H2606 C2611 0.950 . S
H2607 C2612 0.949 . S
H2608 C2614 0.950 . S
H2609 C2615 0.950 . S
H2610 C2616 0.949 . S
C2611 H2606 0.950 . S
C2611 C2613 1.327 . S
C2611 C2617 1.429 . S
C2612 C2604 1.574 1_655 S
C2612 H2607 0.949 . S
C2612 C2618 1.368 . S
C2613 C2597 1.349 . S
C2613 H2605 0.950 . S
C2613 C2611 1.327 . S
C2614 C2602 1.349 . S
C2614 H2608 0.950 . S
C2614 C2615 1.327 . S
C2615 H2609 0.950 . S
C2615 C2614 1.327 . S
C2615 C2619 1.429 . S
C2616 C2599 1.574 1_455 S
C2616 H2610 0.949 . S
C2616 C2620 1.368 . S
C2617 C2598 1.429 . S
C2617 C2611 1.429 . S
C2617 C2618 1.523 . S
C2618 C2599 1.368 . S
C2618 C2612 1.368 . S
C2618 C2617 1.523 . S
C2619 C2603 1.429 . S
C2619 C2615 1.429 . S
C2619 C2620 1.523 . S
C2620 C2604 1.368 . S
C2620 C2616 1.368 . S
C2620 C2619 1.523 . S
H2621 C2596 0.950 . S
H2622 C2598 0.950 . S
H2623 C2599 0.949 . S
H2624 C2601 0.950 . S
H2625 C2603 0.950 . S
C2626 C2627 1.349 . S
C2626 C2628 1.327 . S
C2626 H2651 0.950 . S
C2627 C2626 1.349 . S
C2627 C2643 1.349 . S
C2628 C2626 1.327 . S
C2628 C2647 1.429 . S
C2628 H2652 0.950 . S
C2629 C2646 1.574 . S
C2629 C2648 1.368 . S
C2629 H2653 0.949 . S
H2630 C2634 0.949 . S
C2631 C2632 1.349 . S
C2631 C2633 1.327 . S
C2631 H2654 0.950 . S
C2632 C2631 1.349 . S
C2632 C2644 1.349 . S
C2633 C2631 1.327 . S
C2633 C2649 1.429 . S
C2633 H2655 0.950 . S
C2634 H2630 0.949 . S
C2634 C2642 1.574 . S
C2634 C2650 1.368 . S
H2635 C2643 0.950 . S
H2636 C2641 0.950 . S
H2637 C2642 0.949 . S
H2638 C2644 0.950 . S
H2639 C2645 0.950 . S
H2640 C2646 0.949 . S
C2641 H2636 0.950 . S
C2641 C2643 1.327 . S
C2641 C2647 1.429 . S
C2642 C2634 1.574 . S
C2642 H2637 0.949 . S
C2642 C2648 1.368 . S
C2643 C2627 1.349 . S
C2643 H2635 0.950 . S
C2643 C2641 1.327 . S
C2644 C2632 1.349 . S
C2644 H2638 0.950 . S
C2644 C2645 1.327 . S
C2645 H2639 0.950 . S
C2645 C2644 1.327 . S
C2645 C2649 1.429 . S
C2646 C2629 1.574 . S
C2646 H2640 0.949 . S
C2646 C2650 1.368 . S
C2647 C2628 1.429 . S
C2647 C2641 1.429 . S
C2647 C2648 1.523 . S
C2648 C2629 1.368 . S
C2648 C2642 1.368 . S
C2648 C2647 1.523 . S
C2649 C2633 1.429 . S
C2649 C2645 1.429 . S
C2649 C2650 1.523 . S
C2650 C2634 1.368 . S
C2650 C2646 1.368 . S
C2650 C2649 1.523 . S
H2651 C2626 0.950 . S
H2652 C2628 0.950 . S
H2653 C2629 0.949 . S
H2654 C2631 0.950 . S
H2655 C2633 0.950 . S
C2656 C2657 1.349 . S
C2656 C2658 1.327 . S
C2656 H2681 0.950 . S
C2657 C2656 1.349 . S
C2657 C2673 1.349 . S
C2658 C2656 1.327 . S
C2658 C2677 1.429 . S
C2658 H2682 0.950 . S
C2659 C2676 1.574 . S
C2659 C2678 1.368 . S
C2659 H2683 0.949 . S
H2660 C2664 0.949 . S
C2661 C2662 1.349 . S
C2661 C2663 1.327 . S
C2661 H2684 0.950 . S
C2662 C2661 1.349 . S
C2662 C2674 1.349 . S
C2663 C2661 1.327 . S
C2663 C2679 1.429 . S
C2663 H2685 0.950 . S
C2664 H2660 0.949 . S
C2664 C2672 1.574 . S
C2664 C2680 1.368 . S
H2665 C2673 0.950 . S
H2666 C2671 0.950 . S
H2667 C2672 0.949 . S
H2668 C2674 0.950 . S
H2669 C2675 0.950 . S
H2670 C2676 0.949 . S
C2671 H2666 0.950 . S
C2671 C2673 1.327 . S
C2671 C2677 1.429 . S
C2672 C2664 1.574 . S
C2672 H2667 0.949 . S
C2672 C2678 1.368 . S
C2673 C2657 1.349 . S
C2673 H2665 0.950 . S
C2673 C2671 1.327 . S
C2674 C2662 1.349 . S
C2674 H2668 0.950 . S
C2674 C2675 1.327 . S
C2675 H2669 0.950 . S
C2675 C2674 1.327 . S
C2675 C2679 1.429 . S
C2676 C2659 1.574 . S
C2676 H2670 0.949 . S
C2676 C2680 1.368 . S
C2677 C2658 1.429 . S
C2677 C2671 1.429 . S
C2677 C2678 1.523 . S
C2678 C2659 1.368 . S
C2678 C2672 1.368 . S
C2678 C2677 1.523 . S
C2679 C2663 1.429 . S
C2679 C2675 1.429 . S
C2679 C2680 1.523 . S
C2680 C2664 1.368 . S
C2680 C2676 1.368 . S
C2680 C2679 1.523 . S
H2681 C2656 0.950 . S
H2682 C2658 0.950 . S
H2683 C2659 0.949 . S
H2684 C2661 0.950 . S
H2685 C2663 0.950 . S
C2686 C2687 1.349 . S
C2686 C2688 1.327 . S
C2686 H2711 0.950 . S
C2687 C2686 1.349 . S
C2687 C2703 1.349 . S
C2688 C2686 1.327 . S
C2688 C2707 1.429 . S
C2688 H2712 0.950 . S
C2689 C2706 1.613 . S
C2689 C2708 1.368 . S
C2689 H2713 0.949 . S
H2690 C2694 0.949 . S
C2691 C2692 1.349 . S
C2691 C2693 1.327 . S
C2691 H2714 0.950 . S
C2692 C2691 1.349 . S
C2692 C2704 1.349 . S
C2693 C2691 1.327 . S
C2693 C2709 1.429 . S
C2693 H2715 0.950 . S
C2694 H2690 0.949 . S
C2694 C2702 1.574 . S
C2694 C2710 1.376 . S
H2695 C2703 0.950 . S
H2696 C2701 0.950 . S
H2697 C2702 0.949 . S
H2698 C2704 0.950 . S
H2699 C2705 0.950 . S
H2700 C2706 0.916 1_556 S
C2701 H2696 0.950 . S
C2701 C2703 1.327 . S
C2701 C2707 1.429 . S
C2702 C2694 1.574 . S
C2702 H2697 0.949 . S
C2702 C2708 1.368 . S
C2703 C2687 1.349 . S
C2703 H2695 0.950 . S
C2703 C2701 1.327 . S
C2704 C2692 1.349 . S
C2704 H2698 0.950 . S
C2704 C2705 1.327 . S
C2705 H2699 0.950 . S
C2705 C2704 1.327 . S
C2705 C2709 1.429 . S
C2706 C2689 1.613 . S
C2706 H2700 0.916 1_554 S
C2706 C2710 1.367 . S
C2707 C2688 1.429 . S
C2707 C2701 1.429 . S
C2707 C2708 1.523 . S
C2708 C2689 1.368 . S
C2708 C2702 1.368 . S
C2708 C2707 1.523 . S
C2709 C2693 1.429 . S
C2709 C2705 1.429 . S
C2709 C2710 1.513 1_556 S
C2710 C2694 1.376 . S
C2710 C2706 1.367 . S
C2710 C2709 1.513 1_554 S
H2711 C2686 0.950 . S
H2712 C2688 0.950 . S
H2713 C2689 0.949 . S
H2714 C2691 0.950 . S
H2715 C2693 0.950 . S
C2716 C2717 1.349 . S
C2716 C2718 1.327 . S
C2716 H2741 0.950 . S
C2717 C2716 1.349 . S
C2717 C2733 1.349 . S
C2718 C2716 1.327 . S
C2718 C2737 1.429 . S
C2718 H2742 0.950 . S
C2719 C2736 1.574 . S
C2719 C2738 1.368 . S
C2719 H2743 0.949 . S
H2720 C2724 0.949 . S
C2721 C2722 1.349 . S
C2721 C2723 1.327 . S
C2721 H2744 0.950 . S
C2722 C2721 1.349 . S
C2722 C2734 1.349 . S
C2723 C2721 1.327 . S
C2723 C2739 1.429 . S
C2723 H2745 0.950 . S
C2724 H2720 0.949 . S
C2724 C2732 1.574 . S
C2724 C2740 1.368 . S
H2725 C2733 0.950 . S
H2726 C2731 0.950 . S
H2727 C2732 0.949 . S
H2728 C2734 0.950 . S
H2729 C2735 0.950 . S
H2730 C2736 0.949 . S
C2731 H2726 0.950 . S
C2731 C2733 1.327 . S
C2731 C2737 1.429 . S
C2732 C2724 1.574 . S
C2732 H2727 0.949 . S
C2732 C2738 1.368 . S
C2733 C2717 1.349 . S
C2733 H2725 0.950 . S
C2733 C2731 1.327 . S
C2734 C2722 1.349 . S
C2734 H2728 0.950 . S
C2734 C2735 1.327 . S
C2735 H2729 0.950 . S
C2735 C2734 1.327 . S
C2735 C2739 1.429 . S
C2736 C2719 1.574 . S
C2736 H2730 0.949 . S
C2736 C2740 1.368 . S
C2737 C2718 1.429 . S
C2737 C2731 1.429 . S
C2737 C2738 1.523 . S
C2738 C2719 1.368 . S
C2738 C2732 1.368 . S
C2738 C2737 1.523 . S
C2739 C2723 1.429 . S
C2739 C2735 1.429 . S
C2739 C2740 1.523 . S
C2740 C2724 1.368 . S
C2740 C2736 1.368 . S
C2740 C2739 1.523 . S
H2741 C2716 0.950 . S
H2742 C2718 0.950 . S
H2743 C2719 0.949 . S
H2744 C2721 0.950 . S
H2745 C2723 0.950 . S
C2746 C2747 1.349 . S
C2746 C2748 1.327 . S
C2746 H2771 0.950 . S
C2747 C2746 1.349 . S
C2747 C2763 1.349 . S
C2748 C2746 1.327 . S
C2748 C2767 1.429 . S
C2748 H2772 0.950 . S
C2749 C2766 1.574 . S
C2749 C2768 1.368 . S
C2749 H2773 0.949 . S
H2750 C2754 0.949 . S
C2751 C2752 1.349 . S
C2751 C2753 1.327 . S
C2751 H2774 0.950 . S
C2752 C2751 1.349 . S
C2752 C2764 1.349 . S
C2753 C2751 1.327 . S
C2753 C2769 1.429 . S
C2753 H2775 0.950 . S
C2754 H2750 0.949 . S
C2754 C2762 1.574 . S
C2754 C2770 1.368 . S
H2755 C2763 0.950 . S
H2756 C2761 0.950 . S
H2757 C2762 0.949 . S
H2758 C2764 0.950 . S
H2759 C2765 0.950 . S
H2760 C2766 0.949 . S
C2761 H2756 0.950 . S
C2761 C2763 1.327 . S
C2761 C2767 1.429 . S
C2762 C2754 1.574 . S
C2762 H2757 0.949 . S
C2762 C2768 1.368 . S
C2763 C2747 1.349 . S
C2763 H2755 0.950 . S
C2763 C2761 1.327 . S
C2764 C2752 1.349 . S
C2764 H2758 0.950 . S
C2764 C2765 1.327 . S
C2765 H2759 0.950 . S
C2765 C2764 1.327 . S
C2765 C2769 1.429 . S
C2766 C2749 1.574 . S
C2766 H2760 0.949 . S
C2766 C2770 1.368 . S
C2767 C2748 1.429 . S
C2767 C2761 1.429 . S
C2767 C2768 1.523 . S
C2768 C2749 1.368 . S
C2768 C2762 1.368 . S
C2768 C2767 1.523 . S
C2769 C2753 1.429 . S
C2769 C2765 1.429 . S
C2769 C2770 1.523 . S
C2770 C2754 1.368 . S
C2770 C2766 1.368 . S
C2770 C2769 1.523 . S
H2771 C2746 0.950 . S
H2772 C2748 0.950 . S
H2773 C2749 0.949 . S
H2774 C2751 0.950 . S
H2775 C2753 0.950 . S
C2776 C2777 1.349 . S
C2776 C2778 1.327 . S
C2776 H2801 0.950 . S
C2777 C2776 1.349 . S
C2777 C2793 1.349 . S
C2778 C2776 1.327 . S
C2778 C2797 1.429 . S
C2778 H2802 0.950 . S
C2779 C2796 1.574 . S
C2779 C2798 1.368 . S
C2779 H2803 0.949 . S
H2780 C2784 0.949 . S
C2781 C2782 1.349 . S
C2781 C2783 1.327 . S
C2781 H2804 0.950 . S
C2782 C2781 1.349 . S
C2782 C2794 1.349 . S
C2783 C2781 1.327 . S
C2783 C2799 1.429 . S
C2783 H2805 0.950 . S
C2784 H2780 0.949 . S
C2784 C2792 1.574 . S
C2784 C2800 1.368 . S
H2785 C2793 0.950 . S
H2786 C2791 0.950 . S
H2787 C2792 0.949 . S
H2788 C2794 0.950 . S
H2789 C2795 0.950 . S
H2790 C2796 0.949 . S
C2791 H2786 0.950 . S
C2791 C2793 1.327 . S
C2791 C2797 1.429 . S
C2792 C2784 1.574 . S
C2792 H2787 0.949 . S
C2792 C2798 1.368 . S
C2793 C2777 1.349 . S
C2793 H2785 0.950 . S
C2793 C2791 1.327 . S
C2794 C2782 1.349 . S
C2794 H2788 0.950 . S
C2794 C2795 1.327 . S
C2795 H2789 0.950 . S
C2795 C2794 1.327 . S
C2795 C2799 1.429 . S
C2796 C2779 1.574 . S
C2796 H2790 0.949 . S
C2796 C2800 1.368 . S
C2797 C2778 1.429 . S
C2797 C2791 1.429 . S
C2797 C2798 1.523 . S
C2798 C2779 1.368 . S
C2798 C2792 1.368 . S
C2798 C2797 1.523 . S
C2799 C2783 1.429 . S
C2799 C2795 1.429 . S
C2799 C2800 1.523 . S
C2800 C2784 1.368 . S
C2800 C2796 1.368 . S
C2800 C2799 1.523 . S
H2801 C2776 0.950 . S
H2802 C2778 0.950 . S
H2803 C2779 0.949 . S
H2804 C2781 0.950 . S
H2805 C2783 0.950 . S
C2806 C2807 1.349 . S
C2806 C2808 1.327 . S
C2806 H2831 0.950 1_655 S
C2807 C2806 1.349 . S
C2807 C2823 1.349 . S
C2808 C2806 1.327 . S
C2808 C2827 1.429 . S
C2808 H2832 0.950 . S
C2809 C2826 1.574 1_556 S
C2809 C2828 1.368 . S
C2809 H2833 0.949 . S
H2810 C2814 0.949 . S
C2811 C2812 1.349 . S
C2811 C2813 1.327 . S
C2811 H2834 0.950 . S
C2812 C2811 1.349 . S
C2812 C2824 1.349 . S
C2813 C2811 1.327 . S
C2813 C2829 1.429 . S
C2813 H2835 0.950 . S
C2814 H2810 0.949 . S
C2814 C2822 1.574 1_554 S
C2814 C2830 1.368 . S
H2815 C2823 0.950 . S
H2816 C2821 0.950 . S
H2817 C2822 0.949 . S
H2818 C2824 0.950 . S
H2819 C2825 0.950 . S
H2820 C2826 0.949 . S
C2821 H2816 0.950 . S
C2821 C2823 1.327 . S
C2821 C2827 1.429 . S
C2822 C2814 1.574 1_556 S
C2822 H2817 0.949 . S
C2822 C2828 1.368 . S
C2823 C2807 1.349 . S
C2823 H2815 0.950 . S
C2823 C2821 1.327 . S
C2824 C2812 1.349 . S
C2824 H2818 0.950 . S
C2824 C2825 1.327 . S
C2825 H2819 0.950 . S
C2825 C2824 1.327 . S
C2825 C2829 1.429 . S
C2826 C2809 1.574 1_554 S
C2826 H2820 0.949 . S
C2826 C2830 1.368 . S
C2827 C2808 1.429 . S
C2827 C2821 1.429 . S
C2827 C2828 1.523 . S
C2828 C2809 1.368 . S
C2828 C2822 1.368 . S
C2828 C2827 1.523 . S
C2829 C2813 1.429 . S
C2829 C2825 1.429 . S
C2829 C2830 1.523 . S
C2830 C2814 1.368 . S
C2830 C2826 1.368 . S
C2830 C2829 1.523 . S
H2831 C2806 0.950 1_455 S
H2832 C2808 0.950 . S
H2833 C2809 0.949 . S
H2834 C2811 0.950 . S
H2835 C2813 0.950 . S
C2836 C2837 1.349 . S
C2836 C2838 1.327 . S
C2836 H2861 0.950 . S
C2837 C2836 1.349 . S
C2837 C2853 1.349 . S
C2838 C2836 1.327 . S
C2838 C2857 1.429 . S
C2838 H2862 0.950 . S
C2839 C2856 1.574 . S
C2839 C2858 1.368 . S
C2839 H2863 0.949 . S
H2840 C2844 0.949 . S
C2841 C2842 1.349 . S
C2841 C2843 1.327 . S
C2841 H2864 0.950 . S
C2842 C2841 1.349 . S
C2842 C2854 1.349 . S
C2843 C2841 1.327 . S
C2843 C2859 1.429 . S
C2843 H2865 0.950 . S
C2844 H2840 0.949 . S
C2844 C2852 1.574 . S
C2844 C2860 1.368 . S
H2845 C2853 0.950 . S
H2846 C2851 0.950 . S
H2847 C2852 0.949 . S
H2848 C2854 0.950 . S
H2849 C2855 0.950 . S
H2850 C2856 0.949 . S
C2851 H2846 0.950 . S
C2851 C2853 1.327 . S
C2851 C2857 1.429 . S
C2852 C2844 1.574 . S
C2852 H2847 0.949 . S
C2852 C2858 1.368 . S
C2853 C2837 1.349 . S
C2853 H2845 0.950 . S
C2853 C2851 1.327 . S
C2854 C2842 1.349 . S
C2854 H2848 0.950 . S
C2854 C2855 1.327 . S
C2855 H2849 0.950 . S
C2855 C2854 1.327 . S
C2855 C2859 1.429 . S
C2856 C2839 1.574 . S
C2856 H2850 0.949 . S
C2856 C2860 1.368 . S
C2857 C2838 1.429 . S
C2857 C2851 1.429 . S
C2857 C2858 1.523 . S
C2858 C2839 1.368 . S
C2858 C2852 1.368 . S
C2858 C2857 1.523 . S
C2859 C2843 1.429 . S
C2859 C2855 1.429 . S
C2859 C2860 1.523 . S
C2860 C2844 1.368 . S
C2860 C2856 1.368 . S
C2860 C2859 1.523 . S
H2861 C2836 0.950 . S
H2862 C2838 0.950 . S
H2863 C2839 0.949 . S
H2864 C2841 0.950 . S
H2865 C2843 0.950 . S
C2866 C2867 1.349 . S
C2866 C2868 1.327 . S
C2866 H2891 0.950 . S
C2867 C2866 1.349 . S
C2867 C2883 1.349 . S
C2868 C2866 1.327 . S
C2868 C2887 1.429 . S
C2868 H2892 0.950 . S
C2869 C2886 1.574 . S
C2869 C2888 1.368 . S
C2869 H2893 0.949 . S
H2870 C2874 0.949 . S
C2871 C2872 1.349 . S
C2871 C2873 1.327 . S
C2871 H2894 0.950 . S
C2872 C2871 1.349 . S
C2872 C2884 1.349 . S
C2873 C2871 1.327 . S
C2873 C2889 1.429 . S
C2873 H2895 0.950 . S
C2874 H2870 0.949 . S
C2874 C2882 1.574 . S
C2874 C2890 1.368 . S
H2875 C2883 0.950 . S
H2876 C2881 0.950 . S
H2877 C2882 0.949 . S
H2878 C2884 0.950 . S
H2879 C2885 0.950 . S
H2880 C2886 0.949 . S
C2881 H2876 0.950 . S
C2881 C2883 1.327 . S
C2881 C2887 1.429 . S
C2882 C2874 1.574 . S
C2882 H2877 0.949 . S
C2882 C2888 1.368 . S
C2883 C2867 1.349 . S
C2883 H2875 0.950 . S
C2883 C2881 1.327 . S
C2884 C2872 1.349 . S
C2884 H2878 0.950 . S
C2884 C2885 1.327 . S
C2885 H2879 0.950 . S
C2885 C2884 1.327 . S
C2885 C2889 1.429 . S
C2886 C2869 1.574 . S
C2886 H2880 0.949 . S
C2886 C2890 1.368 . S
C2887 C2868 1.429 . S
C2887 C2881 1.429 . S
C2887 C2888 1.523 . S
C2888 C2869 1.368 . S
C2888 C2882 1.368 . S
C2888 C2887 1.523 . S
C2889 C2873 1.429 . S
C2889 C2885 1.429 . S
C2889 C2890 1.523 . S
C2890 C2874 1.368 . S
C2890 C2886 1.368 . S
C2890 C2889 1.523 . S
H2891 C2866 0.950 . S
H2892 C2868 0.950 . S
H2893 C2869 0.949 . S
H2894 C2871 0.950 . S
H2895 C2873 0.950 . S
C2896 C2897 1.349 . S
C2896 C2898 1.327 . S
C2896 H2921 0.950 . S
C2897 C2896 1.349 . S
C2897 C2913 1.349 . S
C2898 C2896 1.327 . S
C2898 C2917 1.429 . S
C2898 H2922 0.950 . S
C2899 C2916 1.574 . S
C2899 C2918 1.368 . S
C2899 H2923 0.949 . S
H2900 C2904 0.949 . S
C2901 C2902 1.349 . S
C2901 C2903 1.327 . S
C2901 H2924 0.950 . S
C2902 C2901 1.349 . S
C2902 C2914 1.349 . S
C2903 C2901 1.327 . S
C2903 C2919 1.429 . S
C2903 H2925 0.950 . S
C2904 H2900 0.949 . S
C2904 C2912 1.574 . S
C2904 C2920 1.368 . S
H2905 C2913 0.950 . S
H2906 C2911 0.950 . S
H2907 C2912 0.949 . S
H2908 C2914 0.950 . S
H2909 C2915 0.950 . S
H2910 C2916 0.949 . S
C2911 H2906 0.950 . S
C2911 C2913 1.327 . S
C2911 C2917 1.429 . S
C2912 C2904 1.574 . S
C2912 H2907 0.949 . S
C2912 C2918 1.368 . S
C2913 C2897 1.349 . S
C2913 H2905 0.950 . S
C2913 C2911 1.327 . S
C2914 C2902 1.349 . S
C2914 H2908 0.950 . S
C2914 C2915 1.327 . S
C2915 H2909 0.950 . S
C2915 C2914 1.327 . S
C2915 C2919 1.429 . S
C2916 C2899 1.574 . S
C2916 H2910 0.949 . S
C2916 C2920 1.368 . S
C2917 C2898 1.429 . S
C2917 C2911 1.429 . S
C2917 C2918 1.523 . S
C2918 C2899 1.368 . S
C2918 C2912 1.368 . S
C2918 C2917 1.523 . S
C2919 C2903 1.429 . S
C2919 C2915 1.429 . S
C2919 C2920 1.523 . S
C2920 C2904 1.368 . S
C2920 C2916 1.368 . S
C2920 C2919 1.523 . S
H2921 C2896 0.950 . S
H2922 C2898 0.950 . S
H2923 C2899 0.949 . S
H2924 C2901 0.950 . S
H2925 C2903 0.950 . S
C2926 C2927 1.349 . S
C2926 C2928 1.327 . S
C2926 H2951 0.950 . S
C2927 C2926 1.349 . S
C2927 C2943 1.349 . S
C2928 C2926 1.327 . S
C2928 C2947 1.429 . S
C2928 H2952 0.950 . S
C2929 C2946 1.574 . S
C2929 C2948 1.368 . S
C2929 H2953 0.949 . S
H2930 C2934 0.949 . S
C2931 C2932 1.349 . S
C2931 C2933 1.327 . S
C2931 H2954 0.950 . S
C2932 C2931 1.349 . S
C2932 C2944 1.349 . S
C2933 C2931 1.327 . S
C2933 C2949 1.429 . S
C2933 H2955 0.950 . S
C2934 H2930 0.949 . S
C2934 C2942 1.574 . S
C2934 C2950 1.368 . S
H2935 C2943 0.950 1_554 S
H2936 C2941 0.950 . S
H2937 C2942 0.949 . S
H2938 C2944 0.950 . S
H2939 C2945 0.950 . S
H2940 C2946 0.949 . S
C2941 H2936 0.950 . S
C2941 C2943 1.327 . S
C2941 C2947 1.429 . S
C2942 C2934 1.574 . S
C2942 H2937 0.949 . S
C2942 C2948 1.368 . S
C2943 C2927 1.349 . S
C2943 H2935 0.950 1_556 S
C2943 C2941 1.327 . S
C2944 C2932 1.349 . S
C2944 H2938 0.950 . S
C2944 C2945 1.327 . S
C2945 H2939 0.950 . S
C2945 C2944 1.327 . S
C2945 C2949 1.429 . S
C2946 C2929 1.574 . S
C2946 H2940 0.949 . S
C2946 C2950 1.368 . S
C2947 C2928 1.429 . S
C2947 C2941 1.429 . S
C2947 C2948 1.523 . S
C2948 C2929 1.368 . S
C2948 C2942 1.368 . S
C2948 C2947 1.523 . S
C2949 C2933 1.429 . S
C2949 C2945 1.429 . S
C2949 C2950 1.523 . S
C2950 C2934 1.368 . S
C2950 C2946 1.368 . S
C2950 C2949 1.523 . S
H2951 C2926 0.950 . S
H2952 C2928 0.950 . S
H2953 C2929 0.949 . S
H2954 C2931 0.950 . S
H2955 C2933 0.950 . S
C2956 C2957 1.349 . S
C2956 C2958 1.327 . S
C2956 H2981 0.950 . S
C2957 C2956 1.349 . S
C2957 C2973 1.349 . S
C2958 C2956 1.327 . S
C2958 C2977 1.429 . S
C2958 H2982 0.950 . S
C2959 C2976 1.574 . S
C2959 C2978 1.368 . S
C2959 H2983 0.949 . S
H2960 C2964 0.949 . S
C2961 C2962 1.349 . S
C2961 C2963 1.327 . S
C2961 H2984 0.950 . S
C2962 C2961 1.349 . S
C2962 C2974 1.349 . S
C2963 C2961 1.327 . S
C2963 C2979 1.429 . S
C2963 H2985 0.950 . S
C2964 H2960 0.949 . S
C2964 C2972 1.574 . S
C2964 C2980 1.368 . S
H2965 C2973 0.950 . S
H2966 C2971 0.950 . S
H2967 C2972 0.949 . S
H2968 C2974 0.950 . S
H2969 C2975 0.950 . S
H2970 C2976 0.949 . S
C2971 H2966 0.950 . S
C2971 C2973 1.327 . S
C2971 C2977 1.429 . S
C2972 C2964 1.574 . S
C2972 H2967 0.949 . S
C2972 C2978 1.368 . S
C2973 C2957 1.349 . S
C2973 H2965 0.950 . S
C2973 C2971 1.327 . S
C2974 C2962 1.349 . S
C2974 H2968 0.950 . S
C2974 C2975 1.327 . S
C2975 H2969 0.950 . S
C2975 C2974 1.327 . S
C2975 C2979 1.429 . S
C2976 C2959 1.574 . S
C2976 H2970 0.949 . S
C2976 C2980 1.368 . S
C2977 C2958 1.429 . S
C2977 C2971 1.429 . S
C2977 C2978 1.523 . S
C2978 C2959 1.368 . S
C2978 C2972 1.368 . S
C2978 C2977 1.523 . S
C2979 C2963 1.429 . S
C2979 C2975 1.429 . S
C2979 C2980 1.523 . S
C2980 C2964 1.368 . S
C2980 C2976 1.368 . S
C2980 C2979 1.523 . S
H2981 C2956 0.950 . S
H2982 C2958 0.950 . S
H2983 C2959 0.949 . S
H2984 C2961 0.950 . S
H2985 C2963 0.950 . S
C2986 C2987 1.349 . S
C2986 C2988 1.327 . S
C2986 H3011 0.950 . S
C2987 C2986 1.349 . S
C2987 C3003 1.349 . S
C2988 C2986 1.327 . S
C2988 C3007 1.429 . S
C2988 H3012 0.950 . S
C2989 C3006 1.574 . S
C2989 C3008 1.368 . S
C2989 H3013 0.949 . S
H2990 C2994 0.949 . S
C2991 C2992 1.349 . S
C2991 C2993 1.327 . S
C2991 H3014 0.950 . S
C2992 C2991 1.349 . S
C2992 C3004 1.349 . S
C2993 C2991 1.327 . S
C2993 C3009 1.429 . S
C2993 H3015 0.950 . S
C2994 H2990 0.949 . S
C2994 C3002 1.574 . S
C2994 C3010 1.368 . S
H2995 C3003 0.950 . S
H2996 C3001 0.950 . S
H2997 C3002 0.949 . S
H2998 C3004 0.950 . S
H2999 C3005 0.950 . S
H3000 C3006 0.949 . S
C3001 H2996 0.950 . S
C3001 C3003 1.327 . S
C3001 C3007 1.429 . S
C3002 C2994 1.574 . S
C3002 H2997 0.949 . S
C3002 C3008 1.368 . S
C3003 C2987 1.349 . S
C3003 H2995 0.950 . S
C3003 C3001 1.327 . S
C3004 C2992 1.349 . S
C3004 H2998 0.950 . S
C3004 C3005 1.327 . S
C3005 H2999 0.950 . S
C3005 C3004 1.327 . S
C3005 C3009 1.429 . S
C3006 C2989 1.574 . S
C3006 H3000 0.949 . S
C3006 C3010 1.368 . S
C3007 C2988 1.429 . S
C3007 C3001 1.429 . S
C3007 C3008 1.523 . S
C3008 C2989 1.368 . S
C3008 C3002 1.368 . S
C3008 C3007 1.523 . S
C3009 C2993 1.429 . S
C3009 C3005 1.429 . S
C3009 C3010 1.523 . S
C3010 C2994 1.368 . S
C3010 C3006 1.368 . S
C3010 C3009 1.523 . S
H3011 C2986 0.950 . S
H3012 C2988 0.950 . S
H3013 C2989 0.949 . S
H3014 C2991 0.950 . S
H3015 C2993 0.950 . S
C3016 C3017 1.349 . S
C3016 C3018 1.327 . S
C3016 H3041 0.950 . S
C3017 C3016 1.349 . S
C3017 C3033 1.349 . S
C3018 C3016 1.327 . S
C3018 C3037 1.429 . S
C3018 H3042 0.950 . S
C3019 C3036 1.574 . S
C3019 C3038 1.368 . S
C3019 H3043 0.949 . S
H3020 C3024 0.949 . S
C3021 C3022 1.349 . S
C3021 C3023 1.327 . S
C3021 H3044 0.950 . S
C3022 C3021 1.349 . S
C3022 C3034 1.349 . S
C3023 C3021 1.327 . S
C3023 C3039 1.429 . S
C3023 H3045 0.950 . S
C3024 H3020 0.949 . S
C3024 C3032 1.574 . S
C3024 C3040 1.368 . S
H3025 C3033 0.950 . S
H3026 C3031 0.950 . S
H3027 C3032 0.949 . S
H3028 C3034 0.950 . S
H3029 C3035 0.950 . S
H3030 C3036 0.949 . S
C3031 H3026 0.950 . S
C3031 C3033 1.327 . S
C3031 C3037 1.429 . S
C3032 C3024 1.574 . S
C3032 H3027 0.949 . S
C3032 C3038 1.368 . S
C3033 C3017 1.349 . S
C3033 H3025 0.950 . S
C3033 C3031 1.327 . S
C3034 C3022 1.349 . S
C3034 H3028 0.950 . S
C3034 C3035 1.327 . S
C3035 H3029 0.950 . S
C3035 C3034 1.327 . S
C3035 C3039 1.429 . S
C3036 C3019 1.574 . S
C3036 H3030 0.949 . S
C3036 C3040 1.368 . S
C3037 C3018 1.429 . S
C3037 C3031 1.429 . S
C3037 C3038 1.523 . S
C3038 C3019 1.368 . S
C3038 C3032 1.368 . S
C3038 C3037 1.523 . S
C3039 C3023 1.429 . S
C3039 C3035 1.429 . S
C3039 C3040 1.523 . S
C3040 C3024 1.368 . S
C3040 C3036 1.368 . S
C3040 C3039 1.523 . S
H3041 C3016 0.950 . S
H3042 C3018 0.950 . S
H3043 C3019 0.949 . S
H3044 C3021 0.950 . S
H3045 C3023 0.950 . S
C3046 C3047 1.349 . S
C3046 C3048 1.327 . S
C3046 H3071 0.950 . S
C3047 C3046 1.349 . S
C3047 C3063 1.349 . S
C3048 C3046 1.327 . S
C3048 C3067 1.429 . S
C3048 H3072 0.950 . S
C3049 C3066 1.574 . S
C3049 C3068 1.368 . S
C3049 H3073 0.949 . S
H3050 C3054 0.949 . S
C3051 C3052 1.349 . S
C3051 C3053 1.327 . S
C3051 H3074 0.950 . S
C3052 C3051 1.349 . S
C3052 C3064 1.349 . S
C3053 C3051 1.327 . S
C3053 C3069 1.429 . S
C3053 H3075 0.950 . S
C3054 H3050 0.949 . S
C3054 C3062 1.574 . S
C3054 C3070 1.368 . S
H3055 C3063 0.950 . S
H3056 C3061 0.950 . S
H3057 C3062 0.949 . S
H3058 C3064 0.950 . S
H3059 C3065 0.950 . S
H3060 C3066 0.949 . S
C3061 H3056 0.950 . S
C3061 C3063 1.327 . S
C3061 C3067 1.429 . S
C3062 C3054 1.574 . S
C3062 H3057 0.949 . S
C3062 C3068 1.368 . S
C3063 C3047 1.349 . S
C3063 H3055 0.950 . S
C3063 C3061 1.327 . S
C3064 C3052 1.349 . S
C3064 H3058 0.950 . S
C3064 C3065 1.327 . S
C3065 H3059 0.950 . S
C3065 C3064 1.327 . S
C3065 C3069 1.429 . S
C3066 C3049 1.574 . S
C3066 H3060 0.949 . S
C3066 C3070 1.368 . S
C3067 C3048 1.429 . S
C3067 C3061 1.429 . S
C3067 C3068 1.523 . S
C3068 C3049 1.368 . S
C3068 C3062 1.368 . S
C3068 C3067 1.523 . S
C3069 C3053 1.429 . S
C3069 C3065 1.429 . S
C3069 C3070 1.523 . S
C3070 C3054 1.368 . S
C3070 C3066 1.368 . S
C3070 C3069 1.523 . S
H3071 C3046 0.950 . S
H3072 C3048 0.950 . S
H3073 C3049 0.949 . S
H3074 C3051 0.950 . S
H3075 C3053 0.950 . S
C3076 C3077 1.349 . S
C3076 C3078 1.327 . S
C3076 H3101 0.950 . S
C3077 C3076 1.349 . S
C3077 C3093 1.349 . S
C3078 C3076 1.327 . S
C3078 C3097 1.429 . S
C3078 H3102 0.950 . S
C3079 C3096 1.574 . S
C3079 C3098 1.368 . S
C3079 H3103 0.949 . S
H3080 C3084 0.949 . S
C3081 C3082 1.349 . S
C3081 C3083 1.327 . S
C3081 H3104 0.950 . S
C3082 C3081 1.349 . S
C3082 C3094 1.349 . S
C3083 C3081 1.327 . S
C3083 C3099 1.429 . S
C3083 H3105 0.950 . S
C3084 H3080 0.949 . S
C3084 C3092 1.574 . S
C3084 C3100 1.368 . S
H3085 C3093 0.950 . S
H3086 C3091 0.950 . S
H3087 C3092 0.949 . S
H3088 C3094 0.950 . S
H3089 C3095 0.950 . S
H3090 C3096 0.949 . S
C3091 H3086 0.950 . S
C3091 C3093 1.327 . S
C3091 C3097 1.429 . S
C3092 C3084 1.574 . S
C3092 H3087 0.949 . S
C3092 C3098 1.368 . S
C3093 C3077 1.349 . S
C3093 H3085 0.950 . S
C3093 C3091 1.327 . S
C3094 C3082 1.349 . S
C3094 H3088 0.950 . S
C3094 C3095 1.327 . S
C3095 H3089 0.950 . S
C3095 C3094 1.327 . S
C3095 C3099 1.429 . S
C3096 C3079 1.574 . S
C3096 H3090 0.949 . S
C3096 C3100 1.368 . S
C3097 C3078 1.429 . S
C3097 C3091 1.429 . S
C3097 C3098 1.523 . S
C3098 C3079 1.368 . S
C3098 C3092 1.368 . S
C3098 C3097 1.523 . S
C3099 C3083 1.429 . S
C3099 C3095 1.429 . S
C3099 C3100 1.523 . S
C3100 C3084 1.368 . S
C3100 C3096 1.368 . S
C3100 C3099 1.523 . S
H3101 C3076 0.950 . S
H3102 C3078 0.950 . S
H3103 C3079 0.949 . S
H3104 C3081 0.950 . S
H3105 C3083 0.950 . S
C3106 C3107 1.349 . S
C3106 C3108 1.327 . S
C3106 H3131 0.950 . S
C3107 C3106 1.349 . S
C3107 C3123 1.349 . S
C3108 C3106 1.327 . S
C3108 C3127 1.429 . S
C3108 H3132 0.950 . S
C3109 C3126 1.574 . S
C3109 C3128 1.368 . S
C3109 H3133 0.949 . S
H3110 C3114 0.949 . S
C3111 C3112 1.349 . S
C3111 C3113 1.327 . S
C3111 H3134 0.950 . S
C3112 C3111 1.349 . S
C3112 C3124 1.349 . S
C3113 C3111 1.327 . S
C3113 C3129 1.429 . S
C3113 H3135 0.950 . S
C3114 H3110 0.949 . S
C3114 C3122 1.574 . S
C3114 C3130 1.368 . S
H3115 C3123 0.950 . S
H3116 C3121 0.950 . S
H3117 C3122 0.949 . S
H3118 C3124 0.950 . S
H3119 C3125 0.950 . S
H3120 C3126 0.949 . S
C3121 H3116 0.950 . S
C3121 C3123 1.327 . S
C3121 C3127 1.429 . S
C3122 C3114 1.574 . S
C3122 H3117 0.949 . S
C3122 C3128 1.368 . S
C3123 C3107 1.349 . S
C3123 H3115 0.950 . S
C3123 C3121 1.327 . S
C3124 C3112 1.349 . S
C3124 H3118 0.950 . S
C3124 C3125 1.327 . S
C3125 H3119 0.950 . S
C3125 C3124 1.327 . S
C3125 C3129 1.429 . S
C3126 C3109 1.574 . S
C3126 H3120 0.949 . S
C3126 C3130 1.368 . S
C3127 C3108 1.429 . S
C3127 C3121 1.429 . S
C3127 C3128 1.523 . S
C3128 C3109 1.368 . S
C3128 C3122 1.368 . S
C3128 C3127 1.523 . S
C3129 C3113 1.429 . S
C3129 C3125 1.429 . S
C3129 C3130 1.523 . S
C3130 C3114 1.368 . S
C3130 C3126 1.368 . S
C3130 C3129 1.523 . S
H3131 C3106 0.950 . S
H3132 C3108 0.950 . S
H3133 C3109 0.949 . S
H3134 C3111 0.950 . S
H3135 C3113 0.950 . S
C3136 C3137 1.349 . S
C3136 C3138 1.327 . S
C3136 H3161 0.950 . S
C3137 C3136 1.349 . S
C3137 C3153 1.349 . S
C3138 C3136 1.327 . S
C3138 C3157 1.429 . S
C3138 H3162 0.950 . S
C3139 C3156 1.574 . S
C3139 C3158 1.368 . S
C3139 H3163 0.949 . S
H3140 C3144 0.949 . S
C3141 C3142 1.349 . S
C3141 C3143 1.327 . S
C3141 H3164 0.950 . S
C3142 C3141 1.349 . S
C3142 C3154 1.349 . S
C3143 C3141 1.327 . S
C3143 C3159 1.429 . S
C3143 H3165 0.950 . S
C3144 H3140 0.949 . S
C3144 C3152 1.574 . S
C3144 C3160 1.368 . S
H3145 C3153 0.950 . S
H3146 C3151 0.950 . S
H3147 C3152 0.949 . S
H3148 C3154 0.950 . S
H3149 C3155 0.950 . S
H3150 C3156 0.949 . S
C3151 H3146 0.950 . S
C3151 C3153 1.327 . S
C3151 C3157 1.429 . S
C3152 C3144 1.574 . S
C3152 H3147 0.949 . S
C3152 C3158 1.368 . S
C3153 C3137 1.349 . S
C3153 H3145 0.950 . S
C3153 C3151 1.327 . S
C3154 C3142 1.349 . S
C3154 H3148 0.950 . S
C3154 C3155 1.327 . S
C3155 H3149 0.950 . S
C3155 C3154 1.327 . S
C3155 C3159 1.429 . S
C3156 C3139 1.574 . S
C3156 H3150 0.949 . S
C3156 C3160 1.368 . S
C3157 C3138 1.429 . S
C3157 C3151 1.429 . S
C3157 C3158 1.523 . S
C3158 C3139 1.368 . S
C3158 C3152 1.368 . S
C3158 C3157 1.523 . S
C3159 C3143 1.429 . S
C3159 C3155 1.429 . S
C3159 C3160 1.523 . S
C3160 C3144 1.368 . S
C3160 C3156 1.368 . S
C3160 C3159 1.523 . S
H3161 C3136 0.950 . S
H3162 C3138 0.950 . S
H3163 C3139 0.949 . S
H3164 C3141 0.950 . S
H3165 C3143 0.950 . S
C3166 C3167 1.349 . S
C3166 C3168 1.327 . S
C3166 H3191 0.950 . S
C3167 C3166 1.349 . S
C3167 C3183 1.349 . S
C3168 C3166 1.327 . S
C3168 C3187 1.429 . S
C3168 H3192 0.950 . S
C3169 C3186 1.574 . S
C3169 C3188 1.368 . S
C3169 H3193 0.949 . S
H3170 C3174 0.949 . S
C3171 C3172 1.349 . S
C3171 C3173 1.327 . S
C3171 H3194 0.950 . S
C3172 C3171 1.349 . S
C3172 C3184 1.349 . S
C3173 C3171 1.327 . S
C3173 C3189 1.429 . S
C3173 H3195 0.950 . S
C3174 H3170 0.949 . S
C3174 C3182 1.574 . S
C3174 C3190 1.368 . S
H3175 C3183 0.950 . S
H3176 C3181 0.950 . S
H3177 C3182 0.949 . S
H3178 C3184 0.950 . S
H3179 C3185 0.950 . S
H3180 C3186 0.949 . S
C3181 H3176 0.950 . S
C3181 C3183 1.327 . S
C3181 C3187 1.429 . S
C3182 C3174 1.574 . S
C3182 H3177 0.949 . S
C3182 C3188 1.368 . S
C3183 C3167 1.349 . S
C3183 H3175 0.950 . S
C3183 C3181 1.327 . S
C3184 C3172 1.349 . S
C3184 H3178 0.950 . S
C3184 C3185 1.327 . S
C3185 H3179 0.950 . S
C3185 C3184 1.327 . S
C3185 C3189 1.429 . S
C3186 C3169 1.574 . S
C3186 H3180 0.949 . S
C3186 C3190 1.368 . S
C3187 C3168 1.429 . S
C3187 C3181 1.429 . S
C3187 C3188 1.523 . S
C3188 C3169 1.368 . S
C3188 C3182 1.368 . S
C3188 C3187 1.523 . S
C3189 C3173 1.429 . S
C3189 C3185 1.429 . S
C3189 C3190 1.523 . S
C3190 C3174 1.368 . S
C3190 C3186 1.368 . S
C3190 C3189 1.523 . S
H3191 C3166 0.950 . S
H3192 C3168 0.950 . S
H3193 C3169 0.949 . S
H3194 C3171 0.950 . S
H3195 C3173 0.950 . S
C3196 C3197 1.349 . S
C3196 C3198 1.327 . S
C3196 H3221 0.950 . S
C3197 C3196 1.349 . S
C3197 C3213 1.349 . S
C3198 C3196 1.327 . S
C3198 C3217 1.429 . S
C3198 H3222 0.950 . S
C3199 C3216 1.574 . S
C3199 C3218 1.368 . S
C3199 H3223 0.949 . S
H3200 C3204 0.949 . S
C3201 C3202 1.349 . S
C3201 C3203 1.327 . S
C3201 H3224 0.950 . S
C3202 C3201 1.349 . S
C3202 C3214 1.349 . S
C3203 C3201 1.327 . S
C3203 C3219 1.429 . S
C3203 H3225 0.950 . S
C3204 H3200 0.949 . S
C3204 C3212 1.574 . S
C3204 C3220 1.368 . S
H3205 C3213 0.950 . S
H3206 C3211 0.950 . S
H3207 C3212 0.949 . S
H3208 C3214 0.950 . S
H3209 C3215 0.950 . S
H3210 C3216 0.949 . S
C3211 H3206 0.950 . S
C3211 C3213 1.327 . S
C3211 C3217 1.429 . S
C3212 C3204 1.574 . S
C3212 H3207 0.949 . S
C3212 C3218 1.368 . S
C3213 C3197 1.349 . S
C3213 H3205 0.950 . S
C3213 C3211 1.327 . S
C3214 C3202 1.349 . S
C3214 H3208 0.950 . S
C3214 C3215 1.327 . S
C3215 H3209 0.950 . S
C3215 C3214 1.327 . S
C3215 C3219 1.429 . S
C3216 C3199 1.574 . S
C3216 H3210 0.949 . S
C3216 C3220 1.368 . S
C3217 C3198 1.429 . S
C3217 C3211 1.429 . S
C3217 C3218 1.523 . S
C3218 C3199 1.368 . S
C3218 C3212 1.368 . S
C3218 C3217 1.523 . S
C3219 C3203 1.429 . S
C3219 C3215 1.429 . S
C3219 C3220 1.523 . S
C3220 C3204 1.368 . S
C3220 C3216 1.368 . S
C3220 C3219 1.523 . S
H3221 C3196 0.950 . S
H3222 C3198 0.950 . S
H3223 C3199 0.949 . S
H3224 C3201 0.950 . S
H3225 C3203 0.950 . S
C3226 C3227 1.349 . S
C3226 C3228 1.327 . S
C3226 H3251 0.950 . S
C3227 C3226 1.349 . S
C3227 C3243 1.349 . S
C3228 C3226 1.327 . S
C3228 C3247 1.429 . S
C3228 H3252 0.950 . S
C3229 C3246 1.574 . S
C3229 C3248 1.368 . S
C3229 H3253 0.949 . S
H3230 C3234 0.949 . S
C3231 C3232 1.349 . S
C3231 C3233 1.327 . S
C3231 H3254 0.950 . S
C3232 C3231 1.349 . S
C3232 C3244 1.349 . S
C3233 C3231 1.327 . S
C3233 C3249 1.429 . S
C3233 H3255 0.950 . S
C3234 H3230 0.949 . S
C3234 C3242 1.574 . S
C3234 C3250 1.368 . S
H3235 C3243 0.950 . S
H3236 C3241 0.950 . S
H3237 C3242 0.949 . S
H3238 C3244 0.950 . S
H3239 C3245 0.950 . S
H3240 C3246 0.949 . S
C3241 H3236 0.950 . S
C3241 C3243 1.327 . S
C3241 C3247 1.429 . S
C3242 C3234 1.574 . S
C3242 H3237 0.949 . S
C3242 C3248 1.368 . S
C3243 C3227 1.349 . S
C3243 H3235 0.950 . S
C3243 C3241 1.327 . S
C3244 C3232 1.349 . S
C3244 H3238 0.950 . S
C3244 C3245 1.327 . S
C3245 H3239 0.950 . S
C3245 C3244 1.327 . S
C3245 C3249 1.429 . S
C3246 C3229 1.574 . S
C3246 H3240 0.949 . S
C3246 C3250 1.368 . S
C3247 C3228 1.429 . S
C3247 C3241 1.429 . S
C3247 C3248 1.523 . S
C3248 C3229 1.368 . S
C3248 C3242 1.368 . S
C3248 C3247 1.523 . S
C3249 C3233 1.429 . S
C3249 C3245 1.429 . S
C3249 C3250 1.523 . S
C3250 C3234 1.368 . S
C3250 C3246 1.368 . S
C3250 C3249 1.523 . S
H3251 C3226 0.950 . S
H3252 C3228 0.950 . S
H3253 C3229 0.949 . S
H3254 C3231 0.950 . S
H3255 C3233 0.950 . S
C3256 C3257 1.349 . S
C3256 C3258 1.327 . S
C3256 H3281 0.950 . S
C3257 C3256 1.349 . S
C3257 C3273 1.349 . S
C3258 C3256 1.327 . S
C3258 C3277 1.429 . S
C3258 H3282 0.950 . S
C3259 C3276 1.574 . S
C3259 C3278 1.368 . S
C3259 H3283 0.949 . S
H3260 C3264 0.949 . S
C3261 C3262 1.349 . S
C3261 C3263 1.327 . S
C3261 H3284 0.950 . S
C3262 C3261 1.349 . S
C3262 C3274 1.349 . S
C3263 C3261 1.327 . S
C3263 C3279 1.429 . S
C3263 H3285 0.950 . S
C3264 H3260 0.949 . S
C3264 C3272 1.574 . S
C3264 C3280 1.368 . S
H3265 C3273 0.950 . S
H3266 C3271 0.950 . S
H3267 C3272 0.949 . S
H3268 C3274 0.950 . S
H3269 C3275 0.950 . S
H3270 C3276 0.949 . S
C3271 H3266 0.950 . S
C3271 C3273 1.327 . S
C3271 C3277 1.429 . S
C3272 C3264 1.574 . S
C3272 H3267 0.949 . S
C3272 C3278 1.368 . S
C3273 C3257 1.349 . S
C3273 H3265 0.950 . S
C3273 C3271 1.327 . S
C3274 C3262 1.349 . S
C3274 H3268 0.950 . S
C3274 C3275 1.327 . S
C3275 H3269 0.950 . S
C3275 C3274 1.327 . S
C3275 C3279 1.429 . S
C3276 C3259 1.574 . S
C3276 H3270 0.949 . S
C3276 C3280 1.368 . S
C3277 C3258 1.429 . S
C3277 C3271 1.429 . S
C3277 C3278 1.523 . S
C3278 C3259 1.368 . S
C3278 C3272 1.368 . S
C3278 C3277 1.523 . S
C3279 C3263 1.429 . S
C3279 C3275 1.429 . S
C3279 C3280 1.523 . S
C3280 C3264 1.368 . S
C3280 C3276 1.368 . S
C3280 C3279 1.523 . S
H3281 C3256 0.950 . S
H3282 C3258 0.950 . S
H3283 C3259 0.949 . S
H3284 C3261 0.950 . S
H3285 C3263 0.950 . S
C3286 C3287 1.349 . S
C3286 C3288 1.327 . S
C3286 H3311 0.950 . S
C3287 C3286 1.349 . S
C3287 C3303 1.349 . S
C3288 C3286 1.327 . S
C3288 C3307 1.429 . S
C3288 H3312 0.950 . S
C3289 C3306 1.574 . S
C3289 C3308 1.368 . S
C3289 H3313 0.949 . S
H3290 C3294 0.949 . S
C3291 C3292 1.349 . S
C3291 C3293 1.327 . S
C3291 H3314 0.950 . S
C3292 C3291 1.349 . S
C3292 C3304 1.349 . S
C3293 C3291 1.327 . S
C3293 C3309 1.429 . S
C3293 H3315 0.950 . S
C3294 H3290 0.949 . S
C3294 C3302 1.574 . S
C3294 C3310 1.368 . S
H3295 C3303 0.950 . S
H3296 C3301 0.950 . S
H3297 C3302 0.949 . S
H3298 C3304 0.950 . S
H3299 C3305 0.950 . S
H3300 C3306 0.949 . S
C3301 H3296 0.950 . S
C3301 C3303 1.327 . S
C3301 C3307 1.429 . S
C3302 C3294 1.574 . S
C3302 H3297 0.949 . S
C3302 C3308 1.368 . S
C3303 C3287 1.349 . S
C3303 H3295 0.950 . S
C3303 C3301 1.327 . S
C3304 C3292 1.349 . S
C3304 H3298 0.950 . S
C3304 C3305 1.327 . S
C3305 H3299 0.950 . S
C3305 C3304 1.327 . S
C3305 C3309 1.429 . S
C3306 C3289 1.574 . S
C3306 H3300 0.949 . S
C3306 C3310 1.368 . S
C3307 C3288 1.429 . S
C3307 C3301 1.429 . S
C3307 C3308 1.523 . S
C3308 C3289 1.368 . S
C3308 C3302 1.368 . S
C3308 C3307 1.523 . S
C3309 C3293 1.429 . S
C3309 C3305 1.429 . S
C3309 C3310 1.523 . S
C3310 C3294 1.368 . S
C3310 C3306 1.368 . S
C3310 C3309 1.523 . S
H3311 C3286 0.950 . S
H3312 C3288 0.950 . S
H3313 C3289 0.949 . S
H3314 C3291 0.950 . S
H3315 C3293 0.950 . S
C3316 C3317 1.349 . S
C3316 C3318 1.327 . S
C3316 H3341 0.950 . S
C3317 C3316 1.349 . S
C3317 C3333 1.349 . S
C3318 C3316 1.327 . S
C3318 C3337 1.429 . S
C3318 H3342 0.950 . S
C3319 C3336 1.574 . S
C3319 C3338 1.368 . S
C3319 H3343 0.949 . S
H3320 C3324 0.949 . S
C3321 C3322 1.349 . S
C3321 C3323 1.327 . S
C3321 H3344 0.950 . S
C3322 C3321 1.349 . S
C3322 C3334 1.349 . S
C3323 C3321 1.327 . S
C3323 C3339 1.429 . S
C3323 H3345 0.950 . S
C3324 H3320 0.949 . S
C3324 C3332 1.574 . S
C3324 C3340 1.368 . S
H3325 C3333 0.950 . S
H3326 C3331 0.950 . S
H3327 C3332 0.949 . S
H3328 C3334 0.950 . S
H3329 C3335 0.950 . S
H3330 C3336 0.949 . S
C3331 H3326 0.950 . S
C3331 C3333 1.327 . S
C3331 C3337 1.429 . S
C3332 C3324 1.574 . S
C3332 H3327 0.949 . S
C3332 C3338 1.368 . S
C3333 C3317 1.349 . S
C3333 H3325 0.950 . S
C3333 C3331 1.327 . S
C3334 C3322 1.349 . S
C3334 H3328 0.950 . S
C3334 C3335 1.327 . S
C3335 H3329 0.950 . S
C3335 C3334 1.327 . S
C3335 C3339 1.429 . S
C3336 C3319 1.574 . S
C3336 H3330 0.949 . S
C3336 C3340 1.368 . S
C3337 C3318 1.429 . S
C3337 C3331 1.429 . S
C3337 C3338 1.523 . S
C3338 C3319 1.368 . S
C3338 C3332 1.368 . S
C3338 C3337 1.523 . S
C3339 C3323 1.429 . S
C3339 C3335 1.429 . S
C3339 C3340 1.523 . S
C3340 C3324 1.368 . S
C3340 C3336 1.368 . S
C3340 C3339 1.523 . S
H3341 C3316 0.950 . S
H3342 C3318 0.950 . S
H3343 C3319 0.949 . S
H3344 C3321 0.950 . S
H3345 C3323 0.950 . S
C3346 C3347 1.349 . S
C3346 C3348 1.327 . S
C3346 H3371 0.950 . S
C3347 C3346 1.349 . S
C3347 C3363 1.349 . S
C3348 C3346 1.327 . S
C3348 C3367 1.429 . S
C3348 H3372 0.950 . S
C3349 C3366 1.574 1_655 S
C3349 C3368 1.368 . S
C3349 H3373 0.949 . S
H3350 C3354 0.949 . S
C3351 C3352 1.349 . S
C3351 C3353 1.327 . S
C3351 H3374 0.950 . S
C3352 C3351 1.349 . S
C3352 C3364 1.349 . S
C3353 C3351 1.327 . S
C3353 C3369 1.429 . S
C3353 H3375 0.950 . S
C3354 H3350 0.949 . S
C3354 C3362 1.574 1_455 S
C3354 C3370 1.368 . S
H3355 C3363 0.950 1_545 S
H3356 C3361 0.950 . S
H3357 C3362 0.949 . S
H3358 C3364 0.950 . S
H3359 C3365 0.950 . S
H3360 C3366 0.949 . S
C3361 H3356 0.950 . S
C3361 C3363 1.327 . S
C3361 C3367 1.429 . S
C3362 C3354 1.574 1_655 S
C3362 H3357 0.949 . S
C3362 C3368 1.368 . S
C3363 C3347 1.349 . S
C3363 H3355 0.950 1_565 S
C3363 C3361 1.327 . S
C3364 C3352 1.349 . S
C3364 H3358 0.950 . S
C3364 C3365 1.327 . S
C3365 H3359 0.950 . S
C3365 C3364 1.327 . S
C3365 C3369 1.429 . S
C3366 C3349 1.574 1_455 S
C3366 H3360 0.949 . S
C3366 C3370 1.368 . S
C3367 C3348 1.429 . S
C3367 C3361 1.429 . S
C3367 C3368 1.523 . S
C3368 C3349 1.368 . S
C3368 C3362 1.368 . S
C3368 C3367 1.523 . S
C3369 C3353 1.429 . S
C3369 C3365 1.429 . S
C3369 C3370 1.523 . S
C3370 C3354 1.368 . S
C3370 C3366 1.368 . S
C3370 C3369 1.523 . S
H3371 C3346 0.950 . S
H3372 C3348 0.950 . S
H3373 C3349 0.949 . S
H3374 C3351 0.950 . S
H3375 C3353 0.950 . S
C3376 C3377 1.349 . S
C3376 C3378 1.327 . S
C3376 H3401 0.950 . S
C3377 C3376 1.349 . S
C3377 C3393 1.349 . S
C3378 C3376 1.327 . S
C3378 C3397 1.429 . S
C3378 H3402 0.950 . S
C3379 C3396 1.574 . S
C3379 C3398 1.368 . S
C3379 H3403 0.949 . S
H3380 C3384 0.949 . S
C3381 C3382 1.349 . S
C3381 C3383 1.327 . S
C3381 H3404 0.950 . S
C3382 C3381 1.349 . S
C3382 C3394 1.349 . S
C3383 C3381 1.327 . S
C3383 C3399 1.429 . S
C3383 H3405 0.950 . S
C3384 H3380 0.949 . S
C3384 C3392 1.574 . S
C3384 C3400 1.368 . S
H3385 C3393 0.950 . S
H3386 C3391 0.950 . S
H3387 C3392 0.949 . S
H3388 C3394 0.950 . S
H3389 C3395 0.950 . S
H3390 C3396 0.949 . S
C3391 H3386 0.950 . S
C3391 C3393 1.327 . S
C3391 C3397 1.429 . S
C3392 C3384 1.574 . S
C3392 H3387 0.949 . S
C3392 C3398 1.368 . S
C3393 C3377 1.349 . S
C3393 H3385 0.950 . S
C3393 C3391 1.327 . S
C3394 C3382 1.349 . S
C3394 H3388 0.950 . S
C3394 C3395 1.327 . S
C3395 H3389 0.950 . S
C3395 C3394 1.327 . S
C3395 C3399 1.429 . S
C3396 C3379 1.574 . S
C3396 H3390 0.949 . S
C3396 C3400 1.368 . S
C3397 C3378 1.429 . S
C3397 C3391 1.429 . S
C3397 C3398 1.523 . S
C3398 C3379 1.368 . S
C3398 C3392 1.368 . S
C3398 C3397 1.523 . S
C3399 C3383 1.429 . S
C3399 C3395 1.429 . S
C3399 C3400 1.523 . S
C3400 C3384 1.368 . S
C3400 C3396 1.368 . S
C3400 C3399 1.523 . S
H3401 C3376 0.950 . S
H3402 C3378 0.950 . S
H3403 C3379 0.949 . S
H3404 C3381 0.950 . S
H3405 C3383 0.950 . S
C3406 C3407 1.349 . S
C3406 C3408 1.327 . S
C3406 H3431 0.950 . S
C3407 C3406 1.349 . S
C3407 C3423 1.349 . S
C3408 C3406 1.327 . S
C3408 C3427 1.429 . S
C3408 H3432 0.950 . S
C3409 C3426 1.574 1_556 S
C3409 C3428 1.368 . S
C3409 H3433 0.949 . S
H3410 C3414 0.949 . S
C3411 C3412 1.349 . S
C3411 C3413 1.327 . S
C3411 H3434 0.950 . S
C3412 C3411 1.349 . S
C3412 C3424 1.349 . S
C3413 C3411 1.327 . S
C3413 C3429 1.429 . S
C3413 H3435 0.950 . S
C3414 H3410 0.949 . S
C3414 C3422 1.574 1_554 S
C3414 C3430 1.368 . S
H3415 C3423 0.950 . S
H3416 C3421 0.950 . S
H3417 C3422 0.949 . S
H3418 C3424 0.950 . S
H3419 C3425 0.950 . S
H3420 C3426 0.949 . S
C3421 H3416 0.950 . S
C3421 C3423 1.327 . S
C3421 C3427 1.429 . S
C3422 C3414 1.574 1_556 S
C3422 H3417 0.949 . S
C3422 C3428 1.368 . S
C3423 C3407 1.349 . S
C3423 H3415 0.950 . S
C3423 C3421 1.327 . S
C3424 C3412 1.349 . S
C3424 H3418 0.950 . S
C3424 C3425 1.327 . S
C3425 H3419 0.950 . S
C3425 C3424 1.327 . S
C3425 C3429 1.429 . S
C3426 C3409 1.574 1_554 S
C3426 H3420 0.949 . S
C3426 C3430 1.368 . S
C3427 C3408 1.429 . S
C3427 C3421 1.429 . S
C3427 C3428 1.523 . S
C3428 C3409 1.368 . S
C3428 C3422 1.368 . S
C3428 C3427 1.523 . S
C3429 C3413 1.429 . S
C3429 C3425 1.429 . S
C3429 C3430 1.523 . S
C3430 C3414 1.368 . S
C3430 C3426 1.368 . S
C3430 C3429 1.523 . S
H3431 C3406 0.950 . S
H3432 C3408 0.950 . S
H3433 C3409 0.949 . S
H3434 C3411 0.950 . S
H3435 C3413 0.950 . S
C3436 C3437 1.349 . S
C3436 C3438 1.327 . S
C3436 H3461 0.950 . S
C3437 C3436 1.349 . S
C3437 C3453 1.349 . S
C3438 C3436 1.327 . S
C3438 C3457 1.429 . S
C3438 H3462 0.950 . S
C3439 C3456 1.574 . S
C3439 C3458 1.368 . S
C3439 H3463 0.949 . S
H3440 C3444 0.949 . S
C3441 C3442 1.349 . S
C3441 C3443 1.327 . S
C3441 H3464 0.950 . S
C3442 C3441 1.349 . S
C3442 C3454 1.349 . S
C3443 C3441 1.327 . S
C3443 C3459 1.429 . S
C3443 H3465 0.950 . S
C3444 H3440 0.949 . S
C3444 C3452 1.574 . S
C3444 C3460 1.368 . S
H3445 C3453 0.950 . S
H3446 C3451 0.950 . S
H3447 C3452 0.949 . S
H3448 C3454 0.950 . S
H3449 C3455 0.950 . S
H3450 C3456 0.949 . S
C3451 H3446 0.950 . S
C3451 C3453 1.327 . S
C3451 C3457 1.429 . S
C3452 C3444 1.574 . S
C3452 H3447 0.949 . S
C3452 C3458 1.368 . S
C3453 C3437 1.349 . S
C3453 H3445 0.950 . S
C3453 C3451 1.327 . S
C3454 C3442 1.349 . S
C3454 H3448 0.950 . S
C3454 C3455 1.327 . S
C3455 H3449 0.950 . S
C3455 C3454 1.327 . S
C3455 C3459 1.429 . S
C3456 C3439 1.574 . S
C3456 H3450 0.949 . S
C3456 C3460 1.368 . S
C3457 C3438 1.429 . S
C3457 C3451 1.429 . S
C3457 C3458 1.523 . S
C3458 C3439 1.368 . S
C3458 C3452 1.368 . S
C3458 C3457 1.523 . S
C3459 C3443 1.429 . S
C3459 C3455 1.429 . S
C3459 C3460 1.523 . S
C3460 C3444 1.368 . S
C3460 C3456 1.368 . S
C3460 C3459 1.523 . S
H3461 C3436 0.950 . S
H3462 C3438 0.950 . S
H3463 C3439 0.949 . S
H3464 C3441 0.950 . S
H3465 C3443 0.950 . S
C3466 C3467 1.349 . S
C3466 C3468 1.327 . S
C3466 H3491 0.950 . S
C3467 C3466 1.349 . S
C3467 C3483 1.349 . S
C3468 C3466 1.327 . S
C3468 C3487 1.429 . S
C3468 H3492 0.950 . S
C3469 C3486 1.574 . S
C3469 C3488 1.368 . S
C3469 H3493 0.949 . S
H3470 C3474 0.949 . S
C3471 C3472 1.349 . S
C3471 C3473 1.327 . S
C3471 H3494 0.950 . S
C3472 C3471 1.349 . S
C3472 C3484 1.349 . S
C3473 C3471 1.327 . S
C3473 C3489 1.429 . S
C3473 H3495 0.950 . S
C3474 H3470 0.949 . S
C3474 C3482 1.574 . S
C3474 C3490 1.368 . S
H3475 C3483 0.950 . S
H3476 C3481 0.950 . S
H3477 C3482 0.949 . S
H3478 C3484 0.950 . S
H3479 C3485 0.950 . S
H3480 C3486 0.949 . S
C3481 H3476 0.950 . S
C3481 C3483 1.327 . S
C3481 C3487 1.429 . S
C3482 C3474 1.574 . S
C3482 H3477 0.949 . S
C3482 C3488 1.368 . S
C3483 C3467 1.349 . S
C3483 H3475 0.950 . S
C3483 C3481 1.327 . S
C3484 C3472 1.349 . S
C3484 H3478 0.950 . S
C3484 C3485 1.327 . S
C3485 H3479 0.950 . S
C3485 C3484 1.327 . S
C3485 C3489 1.429 . S
C3486 C3469 1.574 . S
C3486 H3480 0.949 . S
C3486 C3490 1.368 . S
C3487 C3468 1.429 . S
C3487 C3481 1.429 . S
C3487 C3488 1.523 . S
C3488 C3469 1.368 . S
C3488 C3482 1.368 . S
C3488 C3487 1.523 . S
C3489 C3473 1.429 . S
C3489 C3485 1.429 . S
C3489 C3490 1.523 . S
C3490 C3474 1.368 . S
C3490 C3486 1.368 . S
C3490 C3489 1.523 . S
H3491 C3466 0.950 . S
H3492 C3468 0.950 . S
H3493 C3469 0.949 . S
H3494 C3471 0.950 . S
H3495 C3473 0.950 . S
C3496 C3497 1.349 . S
C3496 C3498 1.327 . S
C3496 H3521 0.950 . S
C3497 C3496 1.349 . S
C3497 C3513 1.349 . S
C3498 C3496 1.327 . S
C3498 C3517 1.429 . S
C3498 H3522 0.950 . S
C3499 C3516 1.574 . S
C3499 C3518 1.368 . S
C3499 H3523 0.949 . S
H3500 C3504 0.949 . S
C3501 C3502 1.349 . S
C3501 C3503 1.327 . S
C3501 H3524 0.950 . S
C3502 C3501 1.349 . S
C3502 C3514 1.349 . S
C3503 C3501 1.327 . S
C3503 C3519 1.429 . S
C3503 H3525 0.950 . S
C3504 H3500 0.949 . S
C3504 C3512 1.574 . S
C3504 C3520 1.368 . S
H3505 C3513 0.950 . S
H3506 C3511 0.950 . S
H3507 C3512 0.949 . S
H3508 C3514 0.950 . S
H3509 C3515 0.950 . S
H3510 C3516 0.949 . S
C3511 H3506 0.950 . S
C3511 C3513 1.327 . S
C3511 C3517 1.429 . S
C3512 C3504 1.574 . S
C3512 H3507 0.949 . S
C3512 C3518 1.368 . S
C3513 C3497 1.349 . S
C3513 H3505 0.950 . S
C3513 C3511 1.327 . S
C3514 C3502 1.349 . S
C3514 H3508 0.950 . S
C3514 C3515 1.327 . S
C3515 H3509 0.950 . S
C3515 C3514 1.327 . S
C3515 C3519 1.429 . S
C3516 C3499 1.574 . S
C3516 H3510 0.949 . S
C3516 C3520 1.368 . S
C3517 C3498 1.429 . S
C3517 C3511 1.429 . S
C3517 C3518 1.523 . S
C3518 C3499 1.368 . S
C3518 C3512 1.368 . S
C3518 C3517 1.523 . S
C3519 C3503 1.429 . S
C3519 C3515 1.429 . S
C3519 C3520 1.523 . S
C3520 C3504 1.368 . S
C3520 C3516 1.368 . S
C3520 C3519 1.523 . S
H3521 C3496 0.950 . S
H3522 C3498 0.950 . S
H3523 C3499 0.949 . S
H3524 C3501 0.950 . S
H3525 C3503 0.950 . S
C3526 C3527 1.349 . S
C3526 C3528 1.327 . S
C3526 H3551 0.950 . S
C3527 C3526 1.349 . S
C3527 C3543 1.349 . S
C3528 C3526 1.327 . S
C3528 C3547 1.429 . S
C3528 H3552 0.950 . S
C3529 C3546 1.574 . S
C3529 C3548 1.368 . S
C3529 H3553 0.949 . S
H3530 C3534 0.949 . S
C3531 C3532 1.349 . S
C3531 C3533 1.327 . S
C3531 H3554 0.950 . S
C3532 C3531 1.349 . S
C3532 C3544 1.349 . S
C3533 C3531 1.327 . S
C3533 C3549 1.429 . S
C3533 H3555 0.950 . S
C3534 H3530 0.949 . S
C3534 C3542 1.574 . S
C3534 C3550 1.368 . S
H3535 C3543 0.950 . S
H3536 C3541 0.950 . S
H3537 C3542 0.949 . S
H3538 C3544 0.950 . S
H3539 C3545 0.950 . S
H3540 C3546 0.949 1_556 S
C3541 H3536 0.950 . S
C3541 C3543 1.327 . S
C3541 C3547 1.429 . S
C3542 C3534 1.574 . S
C3542 H3537 0.949 . S
C3542 C3548 1.368 . S
C3543 C3527 1.349 . S
C3543 H3535 0.950 . S
C3543 C3541 1.327 . S
C3544 C3532 1.349 . S
C3544 H3538 0.950 . S
C3544 C3545 1.327 . S
C3545 H3539 0.950 . S
C3545 C3544 1.327 . S
C3545 C3549 1.429 . S
C3546 C3529 1.574 . S
C3546 H3540 0.949 1_554 S
C3546 C3550 1.368 . S
C3547 C3528 1.429 . S
C3547 C3541 1.429 . S
C3547 C3548 1.523 . S
C3548 C3529 1.368 . S
C3548 C3542 1.368 . S
C3548 C3547 1.523 . S
C3549 C3533 1.429 . S
C3549 C3545 1.429 . S
C3549 C3550 1.523 1_556 S
C3550 C3534 1.368 . S
C3550 C3546 1.368 . S
C3550 C3549 1.523 1_554 S
H3551 C3526 0.950 . S
H3552 C3528 0.950 . S
H3553 C3529 0.949 . S
H3554 C3531 0.950 . S
H3555 C3533 0.950 . S
C3556 C3557 1.349 . S
C3556 C3558 1.327 . S
C3556 H3581 0.950 . S
C3557 C3556 1.349 . S
C3557 C3573 1.349 . S
C3558 C3556 1.327 . S
C3558 C3577 1.429 . S
C3558 H3582 0.950 . S
C3559 C3576 1.574 . S
C3559 C3578 1.368 . S
C3559 H3583 0.949 . S
H3560 C3564 0.949 . S
C3561 C3562 1.349 . S
C3561 C3563 1.327 . S
C3561 H3584 0.950 . S
C3562 C3561 1.349 . S
C3562 C3574 1.349 . S
C3563 C3561 1.327 . S
C3563 C3579 1.429 . S
C3563 H3585 0.950 . S
C3564 H3560 0.949 . S
C3564 C3572 1.574 . S
C3564 C3580 1.368 . S
H3565 C3573 0.950 . S
H3566 C3571 0.950 . S
H3567 C3572 0.949 . S
H3568 C3574 0.950 . S
H3569 C3575 0.950 . S
H3570 C3576 0.949 . S
C3571 H3566 0.950 . S
C3571 C3573 1.327 . S
C3571 C3577 1.429 . S
C3572 C3564 1.574 . S
C3572 H3567 0.949 . S
C3572 C3578 1.368 . S
C3573 C3557 1.349 . S
C3573 H3565 0.950 . S
C3573 C3571 1.327 . S
C3574 C3562 1.349 . S
C3574 H3568 0.950 . S
C3574 C3575 1.327 . S
C3575 H3569 0.950 . S
C3575 C3574 1.327 . S
C3575 C3579 1.429 . S
C3576 C3559 1.574 . S
C3576 H3570 0.949 . S
C3576 C3580 1.368 . S
C3577 C3558 1.429 . S
C3577 C3571 1.429 . S
C3577 C3578 1.523 . S
C3578 C3559 1.368 . S
C3578 C3572 1.368 . S
C3578 C3577 1.523 . S
C3579 C3563 1.429 . S
C3579 C3575 1.429 . S
C3579 C3580 1.523 . S
C3580 C3564 1.368 . S
C3580 C3576 1.368 . S
C3580 C3579 1.523 . S
H3581 C3556 0.950 . S
H3582 C3558 0.950 . S
H3583 C3559 0.949 . S
H3584 C3561 0.950 . S
H3585 C3563 0.950 . S
C3586 C3587 1.349 . S
C3586 C3588 1.327 . S
C3586 H3611 0.950 . S
C3587 C3586 1.349 . S
C3587 C3603 1.349 . S
C3588 C3586 1.327 . S
C3588 C3607 1.429 . S
C3588 H3612 0.950 . S
C3589 C3606 1.574 . S
C3589 C3608 1.368 . S
C3589 H3613 0.949 . S
H3590 C3594 0.949 . S
C3591 C3592 1.349 . S
C3591 C3593 1.327 . S
C3591 H3614 0.950 . S
C3592 C3591 1.349 . S
C3592 C3604 1.349 . S
C3593 C3591 1.327 . S
C3593 C3609 1.429 . S
C3593 H3615 0.950 . S
C3594 H3590 0.949 . S
C3594 C3602 1.574 . S
C3594 C3610 1.368 . S
H3595 C3603 0.950 . S
H3596 C3601 0.950 . S
H3597 C3602 0.949 . S
H3598 C3604 0.950 . S
H3599 C3605 0.950 . S
H3600 C3606 0.949 . S
C3601 H3596 0.950 . S
C3601 C3603 1.327 . S
C3601 C3607 1.429 . S
C3602 C3594 1.574 . S
C3602 H3597 0.949 . S
C3602 C3608 1.368 . S
C3603 C3587 1.349 . S
C3603 H3595 0.950 . S
C3603 C3601 1.327 . S
C3604 C3592 1.349 . S
C3604 H3598 0.950 . S
C3604 C3605 1.327 . S
C3605 H3599 0.950 . S
C3605 C3604 1.327 . S
C3605 C3609 1.429 . S
C3606 C3589 1.574 . S
C3606 H3600 0.949 . S
C3606 C3610 1.368 . S
C3607 C3588 1.429 . S
C3607 C3601 1.429 . S
C3607 C3608 1.523 . S
C3608 C3589 1.368 . S
C3608 C3602 1.368 . S
C3608 C3607 1.523 . S
C3609 C3593 1.429 . S
C3609 C3605 1.429 . S
C3609 C3610 1.523 . S
C3610 C3594 1.368 . S
C3610 C3606 1.368 . S
C3610 C3609 1.523 . S
H3611 C3586 0.950 . S
H3612 C3588 0.950 . S
H3613 C3589 0.949 . S
H3614 C3591 0.950 . S
H3615 C3593 0.950 . S
C3616 C3617 1.349 . S
C3616 C3618 1.327 . S
C3616 H3641 0.950 . S
C3617 C3616 1.349 . S
C3617 C3633 1.349 . S
C3618 C3616 1.327 . S
C3618 C3637 1.429 . S
C3618 H3642 0.950 . S
C3619 C3636 1.574 . S
C3619 C3638 1.368 . S
C3619 H3643 0.949 . S
H3620 C3624 0.949 . S
C3621 C3622 1.349 . S
C3621 C3623 1.327 . S
C3621 H3644 0.950 . S
C3622 C3621 1.349 . S
C3622 C3634 1.349 . S
C3623 C3621 1.327 . S
C3623 C3639 1.429 . S
C3623 H3645 0.950 . S
C3624 H3620 0.949 . S
C3624 C3632 1.574 . S
C3624 C3640 1.368 . S
H3625 C3633 0.950 . S
H3626 C3631 0.950 . S
H3627 C3632 0.949 . S
H3628 C3634 0.950 . S
H3629 C3635 0.950 . S
H3630 C3636 0.949 . S
C3631 H3626 0.950 . S
C3631 C3633 1.327 . S
C3631 C3637 1.429 . S
C3632 C3624 1.574 . S
C3632 H3627 0.949 . S
C3632 C3638 1.368 . S
C3633 C3617 1.349 . S
C3633 H3625 0.950 . S
C3633 C3631 1.327 . S
C3634 C3622 1.349 . S
C3634 H3628 0.950 . S
C3634 C3635 1.327 . S
C3635 H3629 0.950 . S
C3635 C3634 1.327 . S
C3635 C3639 1.429 . S
C3636 C3619 1.574 . S
C3636 H3630 0.949 . S
C3636 C3640 1.368 . S
C3637 C3618 1.429 . S
C3637 C3631 1.429 . S
C3637 C3638 1.523 . S
C3638 C3619 1.368 . S
C3638 C3632 1.368 . S
C3638 C3637 1.523 . S
C3639 C3623 1.429 . S
C3639 C3635 1.429 . S
C3639 C3640 1.523 . S
C3640 C3624 1.368 . S
C3640 C3636 1.368 . S
C3640 C3639 1.523 . S
H3641 C3616 0.950 . S
H3642 C3618 0.950 . S
H3643 C3619 0.949 . S
H3644 C3621 0.950 . S
H3645 C3623 0.950 . S
C3646 C3647 1.349 . S
C3646 C3648 1.327 . S
C3646 H3671 0.950 . S
C3647 C3646 1.349 . S
C3647 C3663 1.349 . S
C3648 C3646 1.327 . S
C3648 C3667 1.429 . S
C3648 H3672 0.950 . S
C3649 C3666 1.574 . S
C3649 C3668 1.368 . S
C3649 H3673 0.949 . S
H3650 C3654 0.949 . S
C3651 C3652 1.349 . S
C3651 C3653 1.327 . S
C3651 H3674 0.950 . S
C3652 C3651 1.349 . S
C3652 C3664 1.349 . S
C3653 C3651 1.327 . S
C3653 C3669 1.429 . S
C3653 H3675 0.950 . S
C3654 H3650 0.949 . S
C3654 C3662 1.574 . S
C3654 C3670 1.368 . S
H3655 C3663 0.950 . S
H3656 C3661 0.950 . S
H3657 C3662 0.949 . S
H3658 C3664 0.950 . S
H3659 C3665 0.950 . S
H3660 C3666 0.949 . S
C3661 H3656 0.950 . S
C3661 C3663 1.327 . S
C3661 C3667 1.429 . S
C3662 C3654 1.574 . S
C3662 H3657 0.949 . S
C3662 C3668 1.368 . S
C3663 C3647 1.349 . S
C3663 H3655 0.950 . S
C3663 C3661 1.327 . S
C3664 C3652 1.349 . S
C3664 H3658 0.950 . S
C3664 C3665 1.327 . S
C3665 H3659 0.950 . S
C3665 C3664 1.327 . S
C3665 C3669 1.429 . S
C3666 C3649 1.574 . S
C3666 H3660 0.949 . S
C3666 C3670 1.368 . S
C3667 C3648 1.429 . S
C3667 C3661 1.429 . S
C3667 C3668 1.523 . S
C3668 C3649 1.368 . S
C3668 C3662 1.368 . S
C3668 C3667 1.523 . S
C3669 C3653 1.429 . S
C3669 C3665 1.429 . S
C3669 C3670 1.523 . S
C3670 C3654 1.368 . S
C3670 C3666 1.368 . S
C3670 C3669 1.523 . S
H3671 C3646 0.950 . S
H3672 C3648 0.950 . S
H3673 C3649 0.949 . S
H3674 C3651 0.950 . S
H3675 C3653 0.950 . S
C3676 C3677 1.349 . S
C3676 C3678 1.327 . S
C3676 H3701 0.950 . S
C3677 C3676 1.349 . S
C3677 C3693 1.349 . S
C3678 C3676 1.327 . S
C3678 C3697 1.429 . S
C3678 H3702 0.950 . S
C3679 C3696 1.574 . S
C3679 C3698 1.368 . S
C3679 H3703 0.949 . S
H3680 C3684 0.949 . S
C3681 C3682 1.349 . S
C3681 C3683 1.327 . S
C3681 H3704 0.950 . S
C3682 C3681 1.349 . S
C3682 C3694 1.349 . S
C3683 C3681 1.327 . S
C3683 C3699 1.429 . S
C3683 H3705 0.950 . S
C3684 H3680 0.949 . S
C3684 C3692 1.574 . S
C3684 C3700 1.368 . S
H3685 C3693 0.950 . S
H3686 C3691 0.950 . S
H3687 C3692 0.949 . S
H3688 C3694 0.950 . S
H3689 C3695 0.950 . S
H3690 C3696 0.949 . S
C3691 H3686 0.950 . S
C3691 C3693 1.327 . S
C3691 C3697 1.429 . S
C3692 C3684 1.574 . S
C3692 H3687 0.949 . S
C3692 C3698 1.368 . S
C3693 C3677 1.349 . S
C3693 H3685 0.950 . S
C3693 C3691 1.327 . S
C3694 C3682 1.349 . S
C3694 H3688 0.950 . S
C3694 C3695 1.327 . S
C3695 H3689 0.950 . S
C3695 C3694 1.327 . S
C3695 C3699 1.429 . S
C3696 C3679 1.574 . S
C3696 H3690 0.949 . S
C3696 C3700 1.368 . S
C3697 C3678 1.429 . S
C3697 C3691 1.429 . S
C3697 C3698 1.523 . S
C3698 C3679 1.368 . S
C3698 C3692 1.368 . S
C3698 C3697 1.523 . S
C3699 C3683 1.429 . S
C3699 C3695 1.429 . S
C3699 C3700 1.523 . S
C3700 C3684 1.368 . S
C3700 C3696 1.368 . S
C3700 C3699 1.523 . S
H3701 C3676 0.950 . S
H3702 C3678 0.950 . S
H3703 C3679 0.949 . S
H3704 C3681 0.950 . S
H3705 C3683 0.950 . S
C3706 C3707 1.349 . S
C3706 C3708 1.327 . S
C3706 H3731 0.950 . S
C3707 C3706 1.349 . S
C3707 C3723 1.349 . S
C3708 C3706 1.327 . S
C3708 C3727 1.429 . S
C3708 H3732 0.950 . S
C3709 C3726 1.574 . S
C3709 C3728 1.368 . S
C3709 H3733 0.949 . S
H3710 C3714 0.949 . S
C3711 C3712 1.349 . S
C3711 C3713 1.327 . S
C3711 H3734 0.950 . S
C3712 C3711 1.349 . S
C3712 C3724 1.349 . S
C3713 C3711 1.327 . S
C3713 C3729 1.429 . S
C3713 H3735 0.950 . S
C3714 H3710 0.949 . S
C3714 C3722 1.574 . S
C3714 C3730 1.368 . S
H3715 C3723 0.950 . S
H3716 C3721 0.950 . S
H3717 C3722 0.949 . S
H3718 C3724 0.950 . S
H3719 C3725 0.950 . S
H3720 C3726 0.949 . S
C3721 H3716 0.950 . S
C3721 C3723 1.327 . S
C3721 C3727 1.429 . S
C3722 C3714 1.574 . S
C3722 H3717 0.949 . S
C3722 C3728 1.368 . S
C3723 C3707 1.349 . S
C3723 H3715 0.950 . S
C3723 C3721 1.327 . S
C3724 C3712 1.349 . S
C3724 H3718 0.950 . S
C3724 C3725 1.327 . S
C3725 H3719 0.950 . S
C3725 C3724 1.327 . S
C3725 C3729 1.429 . S
C3726 C3709 1.574 . S
C3726 H3720 0.949 . S
C3726 C3730 1.368 . S
C3727 C3708 1.429 . S
C3727 C3721 1.429 . S
C3727 C3728 1.523 . S
C3728 C3709 1.368 . S
C3728 C3722 1.368 . S
C3728 C3727 1.523 . S
C3729 C3713 1.429 . S
C3729 C3725 1.429 . S
C3729 C3730 1.523 . S
C3730 C3714 1.368 . S
C3730 C3726 1.368 . S
C3730 C3729 1.523 . S
H3731 C3706 0.950 . S
H3732 C3708 0.950 . S
H3733 C3709 0.949 . S
H3734 C3711 0.950 . S
H3735 C3713 0.950 . S
C3736 C3737 1.349 . S
C3736 C3738 1.327 . S
C3736 H3761 0.950 . S
C3737 C3736 1.349 . S
C3737 C3753 1.349 . S
C3738 C3736 1.327 . S
C3738 C3757 1.429 . S
C3738 H3762 0.950 . S
C3739 C3756 1.574 . S
C3739 C3758 1.368 . S
C3739 H3763 0.949 . S
H3740 C3744 0.949 . S
C3741 C3742 1.349 . S
C3741 C3743 1.327 . S
C3741 H3764 0.950 . S
C3742 C3741 1.349 . S
C3742 C3754 1.349 . S
C3743 C3741 1.327 . S
C3743 C3759 1.429 . S
C3743 H3765 0.950 . S
C3744 H3740 0.949 . S
C3744 C3752 1.574 . S
C3744 C3760 1.368 . S
H3745 C3753 0.950 . S
H3746 C3751 0.950 . S
H3747 C3752 0.949 . S
H3748 C3754 0.950 . S
H3749 C3755 0.950 . S
H3750 C3756 0.949 . S
C3751 H3746 0.950 . S
C3751 C3753 1.327 . S
C3751 C3757 1.429 . S
C3752 C3744 1.574 . S
C3752 H3747 0.949 . S
C3752 C3758 1.368 . S
C3753 C3737 1.349 . S
C3753 H3745 0.950 . S
C3753 C3751 1.327 . S
C3754 C3742 1.349 . S
C3754 H3748 0.950 . S
C3754 C3755 1.327 . S
C3755 H3749 0.950 . S
C3755 C3754 1.327 . S
C3755 C3759 1.429 . S
C3756 C3739 1.574 . S
C3756 H3750 0.949 . S
C3756 C3760 1.368 . S
C3757 C3738 1.429 . S
C3757 C3751 1.429 . S
C3757 C3758 1.523 . S
C3758 C3739 1.368 . S
C3758 C3752 1.368 . S
C3758 C3757 1.523 . S
C3759 C3743 1.429 . S
C3759 C3755 1.429 . S
C3759 C3760 1.523 . S
C3760 C3744 1.368 . S
C3760 C3756 1.368 . S
C3760 C3759 1.523 . S
H3761 C3736 0.950 . S
H3762 C3738 0.950 . S
H3763 C3739 0.949 . S
H3764 C3741 0.950 . S
H3765 C3743 0.950 . S
C3766 C3767 1.349 . S
C3766 C3768 1.327 . S
C3766 H3791 0.950 . S
C3767 C3766 1.349 . S
C3767 C3783 1.349 . S
C3768 C3766 1.327 . S
C3768 C3787 1.429 . S
C3768 H3792 0.950 . S
C3769 C3786 1.574 . S
C3769 C3788 1.368 . S
C3769 H3793 0.949 . S
H3770 C3774 0.949 . S
C3771 C3772 1.349 . S
C3771 C3773 1.327 . S
C3771 H3794 0.950 . S
C3772 C3771 1.349 . S
C3772 C3784 1.349 . S
C3773 C3771 1.327 . S
C3773 C3789 1.429 . S
C3773 H3795 0.950 . S
C3774 H3770 0.949 . S
C3774 C3782 1.574 . S
C3774 C3790 1.368 . S
H3775 C3783 0.950 . S
H3776 C3781 0.950 . S
H3777 C3782 0.949 . S
H3778 C3784 0.950 . S
H3779 C3785 0.950 . S
H3780 C3786 0.949 . S
C3781 H3776 0.950 . S
C3781 C3783 1.327 . S
C3781 C3787 1.429 . S
C3782 C3774 1.574 . S
C3782 H3777 0.949 . S
C3782 C3788 1.368 . S
C3783 C3767 1.349 . S
C3783 H3775 0.950 . S
C3783 C3781 1.327 . S
C3784 C3772 1.349 . S
C3784 H3778 0.950 . S
C3784 C3785 1.327 . S
C3785 H3779 0.950 . S
C3785 C3784 1.327 . S
C3785 C3789 1.429 . S
C3786 C3769 1.574 . S
C3786 H3780 0.949 . S
C3786 C3790 1.368 . S
C3787 C3768 1.429 . S
C3787 C3781 1.429 . S
C3787 C3788 1.523 . S
C3788 C3769 1.368 . S
C3788 C3782 1.368 . S
C3788 C3787 1.523 . S
C3789 C3773 1.429 . S
C3789 C3785 1.429 . S
C3789 C3790 1.523 . S
C3790 C3774 1.368 . S
C3790 C3786 1.368 . S
C3790 C3789 1.523 . S
H3791 C3766 0.950 . S
H3792 C3768 0.950 . S
H3793 C3769 0.949 . S
H3794 C3771 0.950 . S
H3795 C3773 0.950 . S
C3796 C3797 1.349 . S
C3796 C3798 1.327 . S
C3796 H3821 0.950 . S
C3797 C3796 1.349 . S
C3797 C3813 1.349 . S
C3798 C3796 1.327 . S
C3798 C3817 1.429 . S
C3798 H3822 0.950 . S
C3799 C3816 1.574 . S
C3799 C3818 1.368 . S
C3799 H3823 0.949 . S
H3800 C3804 0.949 . S
C3801 C3802 1.349 . S
C3801 C3803 1.327 . S
C3801 H3824 0.950 . S
C3802 C3801 1.349 . S
C3802 C3814 1.349 . S
C3803 C3801 1.327 . S
C3803 C3819 1.429 . S
C3803 H3825 0.950 . S
C3804 H3800 0.949 . S
C3804 C3812 1.574 . S
C3804 C3820 1.368 . S
H3805 C3813 0.950 . S
H3806 C3811 0.950 . S
H3807 C3812 0.949 . S
H3808 C3814 0.950 . S
H3809 C3815 0.950 . S
H3810 C3816 0.949 . S
C3811 H3806 0.950 . S
C3811 C3813 1.327 . S
C3811 C3817 1.429 . S
C3812 C3804 1.574 . S
C3812 H3807 0.949 . S
C3812 C3818 1.368 . S
C3813 C3797 1.349 . S
C3813 H3805 0.950 . S
C3813 C3811 1.327 . S
C3814 C3802 1.349 . S
C3814 H3808 0.950 . S
C3814 C3815 1.327 . S
C3815 H3809 0.950 . S
C3815 C3814 1.327 . S
C3815 C3819 1.429 . S
C3816 C3799 1.574 . S
C3816 H3810 0.949 . S
C3816 C3820 1.368 . S
C3817 C3798 1.429 . S
C3817 C3811 1.429 . S
C3817 C3818 1.523 . S
C3818 C3799 1.368 . S
C3818 C3812 1.368 . S
C3818 C3817 1.523 . S
C3819 C3803 1.429 . S
C3819 C3815 1.429 . S
C3819 C3820 1.523 . S
C3820 C3804 1.368 . S
C3820 C3816 1.368 . S
C3820 C3819 1.523 . S
H3821 C3796 0.950 . S
H3822 C3798 0.950 . S
H3823 C3799 0.949 . S
H3824 C3801 0.950 . S
H3825 C3803 0.950 . S
C3826 C3827 1.349 . S
C3826 C3828 1.327 . S
C3826 H3851 0.950 . S
C3827 C3826 1.349 . S
C3827 C3843 1.349 . S
C3828 C3826 1.327 . S
C3828 C3847 1.429 . S
C3828 H3852 0.950 . S
C3829 C3846 1.574 . S
C3829 C3848 1.368 . S
C3829 H3853 0.949 . S
H3830 C3834 0.949 . S
C3831 C3832 1.349 . S
C3831 C3833 1.327 . S
C3831 H3854 0.950 . S
C3832 C3831 1.349 . S
C3832 C3844 1.349 . S
C3833 C3831 1.327 . S
C3833 C3849 1.429 . S
C3833 H3855 0.950 . S
C3834 H3830 0.949 . S
C3834 C3842 1.574 . S
C3834 C3850 1.368 . S
H3835 C3843 0.950 . S
H3836 C3841 0.950 . S
H3837 C3842 0.949 . S
H3838 C3844 0.950 . S
H3839 C3845 0.950 . S
H3840 C3846 0.949 . S
C3841 H3836 0.950 . S
C3841 C3843 1.327 . S
C3841 C3847 1.429 . S
C3842 C3834 1.574 . S
C3842 H3837 0.949 . S
C3842 C3848 1.368 . S
C3843 C3827 1.349 . S
C3843 H3835 0.950 . S
C3843 C3841 1.327 . S
C3844 C3832 1.349 . S
C3844 H3838 0.950 . S
C3844 C3845 1.327 . S
C3845 H3839 0.950 . S
C3845 C3844 1.327 . S
C3845 C3849 1.429 . S
C3846 C3829 1.574 . S
C3846 H3840 0.949 . S
C3846 C3850 1.368 . S
C3847 C3828 1.429 . S
C3847 C3841 1.429 . S
C3847 C3848 1.523 . S
C3848 C3829 1.368 . S
C3848 C3842 1.368 . S
C3848 C3847 1.523 . S
C3849 C3833 1.429 . S
C3849 C3845 1.429 . S
C3849 C3850 1.523 . S
C3850 C3834 1.368 . S
C3850 C3846 1.368 . S
C3850 C3849 1.523 . S
H3851 C3826 0.950 . S
H3852 C3828 0.950 . S
H3853 C3829 0.949 . S
H3854 C3831 0.950 . S
H3855 C3833 0.950 . S
C3856 C3857 1.349 . S
C3856 C3858 1.327 . S
C3856 H3881 0.950 . S
C3857 C3856 1.349 . S
C3857 C3873 1.349 . S
C3858 C3856 1.327 . S
C3858 C3877 1.429 . S
C3858 H3882 0.950 . S
C3859 C3876 1.574 . S
C3859 C3878 1.368 . S
C3859 H3883 0.949 . S
H3860 C3864 0.949 . S
C3861 C3862 1.349 . S
C3861 C3863 1.327 . S
C3861 H3884 0.950 . S
C3862 C3861 1.349 . S
C3862 C3874 1.349 . S
C3863 C3861 1.327 . S
C3863 C3879 1.429 . S
C3863 H3885 0.950 . S
C3864 H3860 0.949 . S
C3864 C3872 1.574 . S
C3864 C3880 1.368 . S
H3865 C3873 0.950 . S
H3866 C3871 0.950 . S
H3867 C3872 0.949 . S
H3868 C3874 0.950 . S
H3869 C3875 0.950 . S
H3870 C3876 0.949 . S
C3871 H3866 0.950 . S
C3871 C3873 1.327 . S
C3871 C3877 1.429 . S
C3872 C3864 1.574 . S
C3872 H3867 0.949 . S
C3872 C3878 1.368 . S
C3873 C3857 1.349 . S
C3873 H3865 0.950 . S
C3873 C3871 1.327 . S
C3874 C3862 1.349 . S
C3874 H3868 0.950 . S
C3874 C3875 1.327 . S
C3875 H3869 0.950 . S
C3875 C3874 1.327 . S
C3875 C3879 1.429 . S
C3876 C3859 1.574 . S
C3876 H3870 0.949 . S
C3876 C3880 1.368 . S
C3877 C3858 1.429 . S
C3877 C3871 1.429 . S
C3877 C3878 1.523 . S
C3878 C3859 1.368 . S
C3878 C3872 1.368 . S
C3878 C3877 1.523 . S
C3879 C3863 1.429 . S
C3879 C3875 1.429 . S
C3879 C3880 1.523 . S
C3880 C3864 1.368 . S
C3880 C3876 1.368 . S
C3880 C3879 1.523 . S
H3881 C3856 0.950 . S
H3882 C3858 0.950 . S
H3883 C3859 0.949 . S
H3884 C3861 0.950 . S
H3885 C3863 0.950 . S
C3886 C3887 1.349 . S
C3886 C3888 1.327 . S
C3886 H3911 0.950 . S
C3887 C3886 1.349 . S
C3887 C3903 1.349 . S
C3888 C3886 1.327 . S
C3888 C3907 1.429 . S
C3888 H3912 0.950 . S
C3889 C3906 1.574 . S
C3889 C3908 1.368 . S
C3889 H3913 0.949 . S
H3890 C3894 0.949 . S
C3891 C3892 1.349 . S
C3891 C3893 1.327 . S
C3891 H3914 0.950 . S
C3892 C3891 1.349 . S
C3892 C3904 1.349 . S
C3893 C3891 1.327 . S
C3893 C3909 1.429 . S
C3893 H3915 0.950 . S
C3894 H3890 0.949 . S
C3894 C3902 1.574 . S
C3894 C3910 1.368 . S
H3895 C3903 0.950 . S
H3896 C3901 0.950 . S
H3897 C3902 0.949 . S
H3898 C3904 0.950 . S
H3899 C3905 0.950 . S
H3900 C3906 0.949 . S
C3901 H3896 0.950 . S
C3901 C3903 1.327 . S
C3901 C3907 1.429 . S
C3902 C3894 1.574 . S
C3902 H3897 0.949 . S
C3902 C3908 1.368 . S
C3903 C3887 1.349 . S
C3903 H3895 0.950 . S
C3903 C3901 1.327 . S
C3904 C3892 1.349 . S
C3904 H3898 0.950 . S
C3904 C3905 1.327 . S
C3905 H3899 0.950 . S
C3905 C3904 1.327 . S
C3905 C3909 1.429 . S
C3906 C3889 1.574 . S
C3906 H3900 0.949 . S
C3906 C3910 1.368 . S
C3907 C3888 1.429 . S
C3907 C3901 1.429 . S
C3907 C3908 1.523 . S
C3908 C3889 1.368 . S
C3908 C3902 1.368 . S
C3908 C3907 1.523 . S
C3909 C3893 1.429 . S
C3909 C3905 1.429 . S
C3909 C3910 1.523 . S
C3910 C3894 1.368 . S
C3910 C3906 1.368 . S
C3910 C3909 1.523 . S
H3911 C3886 0.950 . S
H3912 C3888 0.950 . S
H3913 C3889 0.949 . S
H3914 C3891 0.950 . S
H3915 C3893 0.950 . S
C3916 C3917 1.349 . S
C3916 C3918 1.327 . S
C3916 H3941 0.950 . S
C3917 C3916 1.349 . S
C3917 C3933 1.349 . S
C3918 C3916 1.327 . S
C3918 C3937 1.429 . S
C3918 H3942 0.950 . S
C3919 C3936 1.574 . S
C3919 C3938 1.368 . S
C3919 H3943 0.949 . S
H3920 C3924 0.949 . S
C3921 C3922 1.349 . S
C3921 C3923 1.327 . S
C3921 H3944 0.950 . S
C3922 C3921 1.349 . S
C3922 C3934 1.349 . S
C3923 C3921 1.327 . S
C3923 C3939 1.429 . S
C3923 H3945 0.950 . S
C3924 H3920 0.949 . S
C3924 C3932 1.574 . S
C3924 C3940 1.368 . S
H3925 C3933 0.950 . S
H3926 C3931 0.950 . S
H3927 C3932 0.949 . S
H3928 C3934 0.950 . S
H3929 C3935 0.950 . S
H3930 C3936 0.949 . S
C3931 H3926 0.950 . S
C3931 C3933 1.327 . S
C3931 C3937 1.429 . S
C3932 C3924 1.574 . S
C3932 H3927 0.949 . S
C3932 C3938 1.368 . S
C3933 C3917 1.349 . S
C3933 H3925 0.950 . S
C3933 C3931 1.327 . S
C3934 C3922 1.349 . S
C3934 H3928 0.950 . S
C3934 C3935 1.327 . S
C3935 H3929 0.950 . S
C3935 C3934 1.327 . S
C3935 C3939 1.429 . S
C3936 C3919 1.574 . S
C3936 H3930 0.949 . S
C3936 C3940 1.368 . S
C3937 C3918 1.429 . S
C3937 C3931 1.429 . S
C3937 C3938 1.523 . S
C3938 C3919 1.368 . S
C3938 C3932 1.368 . S
C3938 C3937 1.523 . S
C3939 C3923 1.429 . S
C3939 C3935 1.429 . S
C3939 C3940 1.523 . S
C3940 C3924 1.368 . S
C3940 C3936 1.368 . S
C3940 C3939 1.523 . S
H3941 C3916 0.950 . S
H3942 C3918 0.950 . S
H3943 C3919 0.949 . S
H3944 C3921 0.950 . S
H3945 C3923 0.950 . S
C3946 C3947 1.349 . S
C3946 C3948 1.327 . S
C3946 H3971 0.950 . S
C3947 C3946 1.349 . S
C3947 C3963 1.349 . S
C3948 C3946 1.327 . S
C3948 C3967 1.429 . S
C3948 H3972 0.950 . S
C3949 C3966 1.574 . S
C3949 C3968 1.368 . S
C3949 H3973 0.949 . S
H3950 C3954 0.949 . S
C3951 C3952 1.349 . S
C3951 C3953 1.327 . S
C3951 H3974 0.950 . S
C3952 C3951 1.349 . S
C3952 C3964 1.349 . S
C3953 C3951 1.327 . S
C3953 C3969 1.429 . S
C3953 H3975 0.950 . S
C3954 H3950 0.949 . S
C3954 C3962 1.574 . S
C3954 C3970 1.368 . S
H3955 C3963 0.950 . S
H3956 C3961 0.950 . S
H3957 C3962 0.949 . S
H3958 C3964 0.950 . S
H3959 C3965 0.950 . S
H3960 C3966 0.949 . S
C3961 H3956 0.950 . S
C3961 C3963 1.327 . S
C3961 C3967 1.429 . S
C3962 C3954 1.574 . S
C3962 H3957 0.949 . S
C3962 C3968 1.368 . S
C3963 C3947 1.349 . S
C3963 H3955 0.950 . S
C3963 C3961 1.327 . S
C3964 C3952 1.349 . S
C3964 H3958 0.950 . S
C3964 C3965 1.327 . S
C3965 H3959 0.950 . S
C3965 C3964 1.327 . S
C3965 C3969 1.429 . S
C3966 C3949 1.574 . S
C3966 H3960 0.949 . S
C3966 C3970 1.368 . S
C3967 C3948 1.429 . S
C3967 C3961 1.429 . S
C3967 C3968 1.523 . S
C3968 C3949 1.368 . S
C3968 C3962 1.368 . S
C3968 C3967 1.523 . S
C3969 C3953 1.429 . S
C3969 C3965 1.429 . S
C3969 C3970 1.523 . S
C3970 C3954 1.368 . S
C3970 C3966 1.368 . S
C3970 C3969 1.523 . S
H3971 C3946 0.950 . S
H3972 C3948 0.950 . S
H3973 C3949 0.949 . S
H3974 C3951 0.950 . S
H3975 C3953 0.950 . S
C3976 C3977 1.349 . S
C3976 C3978 1.327 . S
C3976 H4001 0.950 . S
C3977 C3976 1.349 . S
C3977 C3993 1.349 . S
C3978 C3976 1.327 . S
C3978 C3997 1.429 . S
C3978 H4002 0.950 . S
C3979 C3996 1.574 . S
C3979 C3998 1.368 . S
C3979 H4003 0.949 . S
H3980 C3984 0.949 . S
C3981 C3982 1.349 . S
C3981 C3983 1.327 . S
C3981 H4004 0.950 . S
C3982 C3981 1.349 . S
C3982 C3994 1.349 . S
C3983 C3981 1.327 . S
C3983 C3999 1.429 . S
C3983 H4005 0.950 . S
C3984 H3980 0.949 . S
C3984 C3992 1.574 . S
C3984 C4000 1.368 . S
H3985 C3993 0.950 . S
H3986 C3991 0.950 . S
H3987 C3992 0.949 . S
H3988 C3994 0.950 . S
H3989 C3995 0.950 . S
H3990 C3996 0.949 . S
C3991 H3986 0.950 . S
C3991 C3993 1.327 . S
C3991 C3997 1.429 . S
C3992 C3984 1.574 . S
C3992 H3987 0.949 . S
C3992 C3998 1.368 . S
C3993 C3977 1.349 . S
C3993 H3985 0.950 . S
C3993 C3991 1.327 . S
C3994 C3982 1.349 . S
C3994 H3988 0.950 . S
C3994 C3995 1.327 . S
C3995 H3989 0.950 . S
C3995 C3994 1.327 . S
C3995 C3999 1.429 . S
C3996 C3979 1.574 . S
C3996 H3990 0.949 . S
C3996 C4000 1.368 . S
C3997 C3978 1.429 . S
C3997 C3991 1.429 . S
C3997 C3998 1.523 . S
C3998 C3979 1.368 . S
C3998 C3992 1.368 . S
C3998 C3997 1.523 . S
C3999 C3983 1.429 . S
C3999 C3995 1.429 . S
C3999 C4000 1.523 . S
C4000 C3984 1.368 . S
C4000 C3996 1.368 . S
C4000 C3999 1.523 . S
H4001 C3976 0.950 . S
H4002 C3978 0.950 . S
H4003 C3979 0.949 . S
H4004 C3981 0.950 . S
H4005 C3983 0.950 . S
C4006 C4007 1.349 . S
C4006 C4008 1.327 . S
C4006 H4031 0.950 . S
C4007 C4006 1.349 . S
C4007 C4023 1.349 . S
C4008 C4006 1.327 . S
C4008 C4027 1.429 . S
C4008 H4032 0.950 . S
C4009 C4026 1.574 . S
C4009 C4028 1.368 . S
C4009 H4033 0.949 . S
H4010 C4014 0.949 . S
C4011 C4012 1.349 . S
C4011 C4013 1.327 . S
C4011 H4034 0.950 . S
C4012 C4011 1.349 . S
C4012 C4024 1.349 . S
C4013 C4011 1.327 . S
C4013 C4029 1.429 . S
C4013 H4035 0.950 . S
C4014 H4010 0.949 . S
C4014 C4022 1.574 . S
C4014 C4030 1.368 . S
H4015 C4023 0.950 1_554 S
H4016 C4021 0.950 . S
H4017 C4022 0.949 . S
H4018 C4024 0.950 . S
H4019 C4025 0.950 . S
H4020 C4026 0.949 . S
C4021 H4016 0.950 . S
C4021 C4023 1.327 . S
C4021 C4027 1.429 . S
C4022 C4014 1.574 . S
C4022 H4017 0.949 . S
C4022 C4028 1.368 . S
C4023 C4007 1.349 . S
C4023 H4015 0.950 1_556 S
C4023 C4021 1.327 . S
C4024 C4012 1.349 . S
C4024 H4018 0.950 . S
C4024 C4025 1.327 . S
C4025 H4019 0.950 . S
C4025 C4024 1.327 . S
C4025 C4029 1.429 . S
C4026 C4009 1.574 . S
C4026 H4020 0.949 . S
C4026 C4030 1.368 . S
C4027 C4008 1.429 . S
C4027 C4021 1.429 . S
C4027 C4028 1.523 . S
C4028 C4009 1.368 . S
C4028 C4022 1.368 . S
C4028 C4027 1.523 . S
C4029 C4013 1.429 . S
C4029 C4025 1.429 . S
C4029 C4030 1.523 . S
C4030 C4014 1.368 . S
C4030 C4026 1.368 . S
C4030 C4029 1.523 . S
H4031 C4006 0.950 . S
H4032 C4008 0.950 . S
H4033 C4009 0.949 . S
H4034 C4011 0.950 . S
H4035 C4013 0.950 . S
C4036 C4037 1.349 . S
C4036 C4038 1.327 . S
C4036 H4061 0.950 . S
C4037 C4036 1.349 . S
C4037 C4053 1.349 . S
C4038 C4036 1.327 . S
C4038 C4057 1.429 . S
C4038 H4062 0.950 . S
C4039 C4056 1.574 . S
C4039 C4058 1.368 . S
C4039 H4063 0.949 . S
H4040 C4044 0.949 . S
C4041 C4042 1.349 . S
C4041 C4043 1.327 . S
C4041 H4064 0.950 . S
C4042 C4041 1.349 . S
C4042 C4054 1.349 . S
C4043 C4041 1.327 . S
C4043 C4059 1.429 . S
C4043 H4065 0.950 . S
C4044 H4040 0.949 . S
C4044 C4052 1.574 . S
C4044 C4060 1.368 . S
H4045 C4053 0.950 . S
H4046 C4051 0.950 . S
H4047 C4052 0.949 . S
H4048 C4054 0.950 . S
H4049 C4055 0.950 . S
H4050 C4056 0.949 . S
C4051 H4046 0.950 . S
C4051 C4053 1.327 . S
C4051 C4057 1.429 . S
C4052 C4044 1.574 . S
C4052 H4047 0.949 . S
C4052 C4058 1.368 . S
C4053 C4037 1.349 . S
C4053 H4045 0.950 . S
C4053 C4051 1.327 . S
C4054 C4042 1.349 . S
C4054 H4048 0.950 . S
C4054 C4055 1.327 . S
C4055 H4049 0.950 . S
C4055 C4054 1.327 . S
C4055 C4059 1.429 . S
C4056 C4039 1.574 . S
C4056 H4050 0.949 . S
C4056 C4060 1.368 . S
C4057 C4038 1.429 . S
C4057 C4051 1.429 . S
C4057 C4058 1.523 . S
C4058 C4039 1.368 . S
C4058 C4052 1.368 . S
C4058 C4057 1.523 . S
C4059 C4043 1.429 . S
C4059 C4055 1.429 . S
C4059 C4060 1.523 . S
C4060 C4044 1.368 . S
C4060 C4056 1.368 . S
C4060 C4059 1.523 . S
H4061 C4036 0.950 . S
H4062 C4038 0.950 . S
H4063 C4039 0.949 . S
H4064 C4041 0.950 . S
H4065 C4043 0.950 . S
C4066 C4067 1.349 . S
C4066 C4068 1.327 . S
C4066 H4091 0.950 . S
C4067 C4066 1.349 . S
C4067 C4083 1.349 . S
C4068 C4066 1.327 . S
C4068 C4087 1.429 . S
C4068 H4092 0.950 . S
C4069 C4086 1.556 1_455 S
C4069 C4088 1.368 . S
C4069 H4093 0.949 . S
H4070 C4074 0.949 . S
C4071 C4072 1.349 . S
C4071 C4073 1.327 . S
C4071 H4094 0.950 . S
C4072 C4071 1.349 . S
C4072 C4084 1.349 . S
C4073 C4071 1.327 . S
C4073 C4089 1.429 . S
C4073 H4095 0.950 . S
C4074 H4070 0.949 . S
C4074 C4082 1.574 . S
C4074 C4090 1.367 . S
H4075 C4083 0.950 . S
H4076 C4081 0.950 . S
H4077 C4082 0.949 . S
H4078 C4084 0.950 . S
H4079 C4085 0.950 . S
H4080 C4086 0.965 . S
C4081 H4076 0.950 . S
C4081 C4083 1.327 . S
C4081 C4087 1.429 . S
C4082 C4074 1.574 . S
C4082 H4077 0.949 . S
C4082 C4088 1.368 . S
C4083 C4067 1.349 . S
C4083 H4075 0.950 . S
C4083 C4081 1.327 . S
C4084 C4072 1.349 . S
C4084 H4078 0.950 . S
C4084 C4085 1.327 . S
C4085 H4079 0.950 . S
C4085 C4084 1.327 . S
C4085 C4089 1.429 . S
C4086 C4069 1.556 1_655 S
C4086 H4080 0.965 . S
C4086 C4090 1.368 1_655 S
C4087 C4068 1.429 . S
C4087 C4081 1.429 . S
C4087 C4088 1.523 . S
C4088 C4069 1.368 . S
C4088 C4082 1.368 . S
C4088 C4087 1.523 . S
C4089 C4073 1.429 . S
C4089 C4085 1.429 . S
C4089 C4090 1.525 1_655 S
C4090 C4074 1.367 . S
C4090 C4086 1.368 1_455 S
C4090 C4089 1.525 1_455 S
H4091 C4066 0.950 . S
H4092 C4068 0.950 . S
H4093 C4069 0.949 . S
H4094 C4071 0.950 . S
H4095 C4073 0.950 . S
C1222 C882 0.871 . S
C1217 C4 0.871 . S
C1247 C39 1.047 . S
C1252 C894 1.040 . S
C1282 C929 1.062 . S
C1277 C86 1.014 . S
C1312 C938 0.981 . S
C1307 C110 0.978 . S
C1342 C893 1.016 . S
C1337 C146 1.019 . S
C1367 C194 0.980 . S
C1372 C918 1.030 . S
C1402 C937 1.066 . S
C1397 C219 1.081 . S
C1427 C256 0.932 . S
C1432 C879 0.924 . S
C1457 C292 0.894 . S
C1462 C872 0.893 . S
C1492 C896 1.002 . S
C1487 C326 1.000 . S
C1522 C915 1.086 . S
C1517 C363 1.102 . S
C1552 C940 1.023 . S
C1547 C410 0.976 . S
C1582 C901 1.043 . S
C1577 C302 0.993 . S
C1612 C926 1.050 . S
C1607 C327 1.054 . S
C1637 C362 1.000 . S
C1642 C945 0.994 . S
C1672 C885 0.902 . S
C1667 C400 0.909 . S
C1697 C436 0.893 . S
C1702 C874 0.892 . S
C1727 C471 1.085 . S
C1732 C973 1.071 . S
C1762 C989 0.992 . S
C1757 C506 0.998 . S
C1792 C1003 1.031 . S
C1787 C554 0.986 . S
C1817 C580 0.912 . S
C1822 C871 0.905 . S
C1847 C614 1.035 . S
C1852 C923 1.026 . S
C1882 C1006 1.066 . S
C1877 C507 1.072 . S
C1912 C970 1.061 . S
C1907 C662 1.007 . S
C1942 C1026 1.025 . S
C1937 C50 0.968 . S
C1972 C1050 0.989 . S
C1967 C3 0.995 . S
C1997 C112 0.968 . S
C2002 C1083 0.954 . S
C2027 C74 1.045 . S
C2032 C1091 1.034 . S
C2057 C254 1.045 . S
C2062 C1061 1.033 . S
C2087 C220 0.958 . S
C2092 C1072 0.953 . S
C2122 C1092 1.009 . S
C2117 C183 1.015 . S
C2147 C158 1.012 . S
C2152 C1025 1.066 . S
C2177 C698 0.962 . S
C2182 C1028 1.016 . S
C2212 C1058 1.006 . S
C2207 C542 1.005 . S
C2242 C1069 1.019 . S
C2237 C579 1.037 . S
C2272 C1099 0.962 . S
C2267 C472 0.976 . S
C2302 C1047 0.962 . S
C2297 C688 0.975 . S
C2332 C1080 1.008 . S
C2327 C543 1.013 . S
C2362 C1094 1.023 . S
C2357 C578 1.024 . S
C2387 C482 1.019 . S
C2392 C1033 1.070 . S
C2422 C1036 1.019 . S
C2417 C734 0.961 . S
C2447 C399 1.024 . S
C2452 C1124 1.016 . S
C2482 C1136 1.024 . S
C2477 C758 1.023 . S
C2507 C328 0.985 . S
C2512 C1157 0.970 . S
C2542 C1039 1.079 . S
C2537 C374 1.028 . S
C2572 C1077 1.013 . S
C2567 C794 1.023 . S
C2602 C1160 0.974 . S
C2597 C759 0.978 . S
C2627 C832 0.965 . S
C2632 C1127 0.952 . S
C2657 C76 0.891 . S
C2662 C1182 0.890 . S
C2687 C111 1.051 . S
C2692 C960 1.047 . S
C2722 C984 1.008 . S
C2717 C14 0.960 . S
C2747 C38 0.996 . S
C2752 C1014 0.997 . S
C2777 C218 1.004 . S
C2782 C959 0.998 . S
C2807 C266 1.008 . S
C2812 C995 1.056 . S
C2842 C1011 1.089 . S
C2837 C147 1.109 . S
C2872 C1193 0.906 . S
C2867 C184 0.914 . S
C2902 C1190 0.877 . S
C2897 C760 0.878 . S
C2932 C962 0.991 . S
C2927 C722 0.989 . S
C2962 C992 1.064 . S
C2957 C831 1.071 . S
C2987 C806 1.006 . S
C2992 C1004 1.059 . S
C3022 C967 1.032 . S
C3017 C770 0.987 . S
C3047 C723 1.056 . S
C3052 C981 1.042 . S
C3082 C1017 1.005 . S
C3077 C830 1.011 . S
C3107 C796 0.926 . S
C3112 C1179 0.918 . S
C3142 C1180 0.900 . S
C3137 C544 0.901 . S
C3167 C615 1.070 . S
C3172 C907 1.054 . S
C3202 C916 0.967 . S
C3197 C686 0.965 . S
C3227 C446 0.975 . S
C3232 C951 1.020 . S
C3262 C1187 0.897 . S
C3257 C652 0.904 . S
C3292 C982 1.005 . S
C3287 C470 1.003 . S
C3322 C948 1.051 . S
C3317 C687 1.056 . S
C3352 C904 1.045 . S
C3347 C590 0.993 . S
C3377 C122 1.003 . S
C3382 C1201 1.051 . S
C3407 C75 1.035 . S
C3412 C1113 1.018 . S
C3437 C40 0.966 . S
C3442 C1149 0.954 . S
C3472 C1168 0.993 . S
C3467 C2 0.992 . S
C3502 C1114 1.002 . S
C3497 C182 1.002 . S
C3527 C148 0.967 . S
C3532 C1138 0.960 . S
C3562 C1165 1.037 . S
C3557 C255 1.056 . S
C3587 C230 0.996 . S
C3592 C1202 1.058 . S
C3622 C1209 1.046 . S
C3617 C518 0.998 . S
C3647 C434 1.014 . S
C3652 C1121 1.005 . S
C3677 C651 1.037 . S
C3682 C1135 1.018 . S
C3712 C1158 0.943 . S
C3707 C616 0.947 . S
C3742 C1116 0.953 . S
C3737 C508 0.958 . S
C3767 C435 1.015 . S
C3772 C1146 1.009 . S
C3802 C1171 1.030 . S
C3797 C650 1.040 . S
C3832 C1204 1.065 . S
C3827 C626 1.002 . S
C3862 C1215 1.034 . S
C3857 C338 0.987 . S
C3892 C1055 1.052 . S
C3887 C795 1.072 . S
C3917 C290 1.026 . S
C3922 C1070 1.024 . S
C3947 C724 0.959 . S
C3952 C1102 0.955 . S
C3982 C1212 1.063 . S
C3977 C842 1.004 . S
C4012 C1143 1.003 . S
C4007 C398 1.012 . S
C4042 C1105 1.012 . S
C4037 C291 1.028 . S
C4072 C1048 0.944 . S
C4067 C364 0.949 . S
