# Generated by pormake.
# Topology eea, (3,6)-cn, num edge types: 1
# Building blocks:
#     Node 0, Type 0, BuildingBlock: WUSLED_clean_sbu_0, # of connection points: 3
#     Node 1, Type 0, BuildingBlock: WUSLED_clean_sbu_0, # of connection points: 3
#     Node 2, Type 0, BuildingBlock: WUSLED_clean_sbu_0, # of connection points: 3
#     Node 3, Type 0, BuildingBlock: WUSLED_clean_sbu_0, # of connection points: 3
#     Node 4, Type 0, BuildingBlock: WUSLED_clean_sbu_0, # of connection points: 3
#     Node 5, Type 0, BuildingBlock: WUSLED_clean_sbu_0, # of connection points: 3
#     Node 6, Type 0, BuildingBlock: WUSLED_clean_sbu_0, # of connection points: 3
#     Node 7, Type 0, BuildingBlock: WUSLED_clean_sbu_0, # of connection points: 3
#     Node 8, Type 0, BuildingBlock: WUSLED_clean_sbu_0, # of connection points: 3
#     Node 9, Type 0, BuildingBlock: WUSLED_clean_sbu_0, # of connection points: 3
#     Node 10, Type 0, BuildingBlock: WUSLED_clean_sbu_0, # of connection points: 3
#     Node 11, Type 0, BuildingBlock: WUSLED_clean_sbu_0, # of connection points: 3
#     Node 12, Type 0, BuildingBlock: WUSLED_clean_sbu_0, # of connection points: 3
#     Node 13, Type 0, BuildingBlock: WUSLED_clean_sbu_0, # of connection points: 3
#     Node 14, Type 0, BuildingBlock: WUSLED_clean_sbu_0, # of connection points: 3
#     Node 15, Type 0, BuildingBlock: WUSLED_clean_sbu_0, # of connection points: 3
#     Node 16, Type 0, BuildingBlock: WUSLED_clean_sbu_0, # of connection points: 3
#     Node 17, Type 0, BuildingBlock: WUSLED_clean_sbu_0, # of connection points: 3
#     Node 18, Type 1, BuildingBlock: LEVNOQ01_clean_sbu_1, # of connection points: 6
#     Node 19, Type 1, BuildingBlock: LEVNOQ01_clean_sbu_1, # of connection points: 6
#     Node 20, Type 1, BuildingBlock: LEVNOQ01_clean_sbu_1, # of connection points: 6
#     Node 21, Type 1, BuildingBlock: LEVNOQ01_clean_sbu_1, # of connection points: 6
#     Node 22, Type 1, BuildingBlock: LEVNOQ01_clean_sbu_1, # of connection points: 6
#     Node 23, Type 1, BuildingBlock: LEVNOQ01_clean_sbu_1, # of connection points: 6
#     Node 24, Type 1, BuildingBlock: LEVNOQ01_clean_sbu_1, # of connection points: 6
#     Node 25, Type 1, BuildingBlock: LEVNOQ01_clean_sbu_1, # of connection points: 6
#     Node 26, Type 1, BuildingBlock: LEVNOQ01_clean_sbu_1, # of connection points: 6
#     Edge 27, Type (0, 1), BuildingBlock: OJICUG_clean_linker_0, # of connection points: 2
#     Edge 28, Type (0, 1), BuildingBlock: OJICUG_clean_linker_0, # of connection points: 2
#     Edge 29, Type (0, 1), BuildingBlock: OJICUG_clean_linker_0, # of connection points: 2
#     Edge 30, Type (0, 1), BuildingBlock: OJICUG_clean_linker_0, # of connection points: 2
#     Edge 31, Type (0, 1), BuildingBlock: OJICUG_clean_linker_0, # of connection points: 2
#     Edge 32, Type (0, 1), BuildingBlock: OJICUG_clean_linker_0, # of connection points: 2
#     Edge 33, Type (0, 1), BuildingBlock: OJICUG_clean_linker_0, # of connection points: 2
#     Edge 34, Type (0, 1), BuildingBlock: OJICUG_clean_linker_0, # of connection points: 2
#     Edge 35, Type (0, 1), BuildingBlock: OJICUG_clean_linker_0, # of connection points: 2
#     Edge 36, Type (0, 1), BuildingBlock: OJICUG_clean_linker_0, # of connection points: 2
#     Edge 37, Type (0, 1), BuildingBlock: OJICUG_clean_linker_0, # of connection points: 2
#     Edge 38, Type (0, 1), BuildingBlock: OJICUG_clean_linker_0, # of connection points: 2
#     Edge 39, Type (0, 1), BuildingBlock: OJICUG_clean_linker_0, # of connection points: 2
#     Edge 40, Type (0, 1), BuildingBlock: OJICUG_clean_linker_0, # of connection points: 2
#     Edge 41, Type (0, 1), BuildingBlock: OJICUG_clean_linker_0, # of connection points: 2
#     Edge 42, Type (0, 1), BuildingBlock: OJICUG_clean_linker_0, # of connection points: 2
#     Edge 43, Type (0, 1), BuildingBlock: OJICUG_clean_linker_0, # of connection points: 2
#     Edge 44, Type (0, 1), BuildingBlock: OJICUG_clean_linker_0, # of connection points: 2
#     Edge 45, Type (0, 1), BuildingBlock: OJICUG_clean_linker_0, # of connection points: 2
#     Edge 46, Type (0, 1), BuildingBlock: OJICUG_clean_linker_0, # of connection points: 2
#     Edge 47, Type (0, 1), BuildingBlock: OJICUG_clean_linker_0, # of connection points: 2
#     Edge 48, Type (0, 1), BuildingBlock: OJICUG_clean_linker_0, # of connection points: 2
#     Edge 49, Type (0, 1), BuildingBlock: OJICUG_clean_linker_0, # of connection points: 2
#     Edge 50, Type (0, 1), BuildingBlock: OJICUG_clean_linker_0, # of connection points: 2
#     Edge 51, Type (0, 1), BuildingBlock: OJICUG_clean_linker_0, # of connection points: 2
#     Edge 52, Type (0, 1), BuildingBlock: OJICUG_clean_linker_0, # of connection points: 2
#     Edge 53, Type (0, 1), BuildingBlock: OJICUG_clean_linker_0, # of connection points: 2
#     Edge 54, Type (0, 1), BuildingBlock: OJICUG_clean_linker_0, # of connection points: 2
#     Edge 55, Type (0, 1), BuildingBlock: OJICUG_clean_linker_0, # of connection points: 2
#     Edge 56, Type (0, 1), BuildingBlock: OJICUG_clean_linker_0, # of connection points: 2
#     Edge 57, Type (0, 1), BuildingBlock: OJICUG_clean_linker_0, # of connection points: 2
#     Edge 58, Type (0, 1), BuildingBlock: OJICUG_clean_linker_0, # of connection points: 2
#     Edge 59, Type (0, 1), BuildingBlock: OJICUG_clean_linker_0, # of connection points: 2
#     Edge 60, Type (0, 1), BuildingBlock: OJICUG_clean_linker_0, # of connection points: 2
#     Edge 61, Type (0, 1), BuildingBlock: OJICUG_clean_linker_0, # of connection points: 2
#     Edge 62, Type (0, 1), BuildingBlock: OJICUG_clean_linker_0, # of connection points: 2
#     Edge 63, Type (0, 1), BuildingBlock: OJICUG_clean_linker_0, # of connection points: 2
#     Edge 64, Type (0, 1), BuildingBlock: OJICUG_clean_linker_0, # of connection points: 2
#     Edge 65, Type (0, 1), BuildingBlock: OJICUG_clean_linker_0, # of connection points: 2
#     Edge 66, Type (0, 1), BuildingBlock: OJICUG_clean_linker_0, # of connection points: 2
#     Edge 67, Type (0, 1), BuildingBlock: OJICUG_clean_linker_0, # of connection points: 2
#     Edge 68, Type (0, 1), BuildingBlock: OJICUG_clean_linker_0, # of connection points: 2
#     Edge 69, Type (0, 1), BuildingBlock: OJICUG_clean_linker_0, # of connection points: 2
#     Edge 70, Type (0, 1), BuildingBlock: OJICUG_clean_linker_0, # of connection points: 2
#     Edge 71, Type (0, 1), BuildingBlock: OJICUG_clean_linker_0, # of connection points: 2
#     Edge 72, Type (0, 1), BuildingBlock: OJICUG_clean_linker_0, # of connection points: 2
#     Edge 73, Type (0, 1), BuildingBlock: OJICUG_clean_linker_0, # of connection points: 2
#     Edge 74, Type (0, 1), BuildingBlock: OJICUG_clean_linker_0, # of connection points: 2
#     Edge 75, Type (0, 1), BuildingBlock: OJICUG_clean_linker_0, # of connection points: 2
#     Edge 76, Type (0, 1), BuildingBlock: OJICUG_clean_linker_0, # of connection points: 2
#     Edge 77, Type (0, 1), BuildingBlock: OJICUG_clean_linker_0, # of connection points: 2
#     Edge 78, Type (0, 1), BuildingBlock: OJICUG_clean_linker_0, # of connection points: 2
#     Edge 79, Type (0, 1), BuildingBlock: OJICUG_clean_linker_0, # of connection points: 2
#     Edge 80, Type (0, 1), BuildingBlock: OJICUG_clean_linker_0, # of connection points: 2
# Relax obj value: 0.092
# Max RMSD: 0.177
# Mean RMSD: 0.089
data_MOF--net-eea--node1-WUSLED_clean_sbu_0--node2-LEVNOQ01_clean_sbu_1--edge1-OJICUG_clean_linker_0
_symmetry_space_group_name_H-M    P1
_symmetry_Int_Tables_number       1
_symmetry_cell_setting            triclinic
loop_
_symmetry_equiv_pos_as_xyz
'x, y, z'
_cell_length_a     56.533473
_cell_length_b     56.007595
_cell_length_c     56.510082
_cell_angle_alpha  89.84755
_cell_angle_beta   90.040573
_cell_angle_gamma 119.89653
loop_
_atom_site_label
_atom_site_type_symbol
_atom_site_fract_x
_atom_site_fract_y
_atom_site_fract_z
_atom_type_partial_charge
C0 C 0.16796 0.13178 0.3939 0.0
C1 C 0.18235 0.15724 0.40547 0.0
C2 C 0.16496 0.17778 0.37721 0.0
C3 C 0.18082 0.18007 0.39722 0.0
C4 C 0.14975 0.15188 0.36634 0.0
C5 C 0.15128 0.12914 0.3746 0.0
U6 U 0.19803 0.09793 0.43351 0.0
O7 O 0.1792 0.05512 0.44664 0.0
O8 O 0.21585 0.07223 0.42432 0.0
C9 C 0.19649 0.05028 0.43499 0.0
C10 C 0.1711 0.10816 0.40087 0.0
C11 C 0.1848 0.02454 0.42128 0.0
C12 C 0.17388 1.00066 0.3836 0.0
C13 C 0.18167 0.0246 0.39667 0.0
C14 C 0.17082 0.97586 0.4197 0.0
C15 C 0.16881 0.97605 0.39488 0.0
C16 C 0.17881 0.99991 0.43274 0.0
C17 C 0.24622 0.13784 0.48404 0.0
C18 C 0.26042 0.1169 0.51461 0.0
C19 C 0.28442 0.16648 0.50961 0.0
C20 C 0.26708 0.16386 0.49097 0.0
C21 C 0.28126 0.14307 0.52176 0.0
C22 C 0.24313 0.1143 0.49578 0.0
C23 C 0.22815 0.13581 0.46445 0.0
O24 O 0.19551 0.11134 0.39745 0.0
O25 O 0.16041 0.09672 0.42137 0.0
O26 O 0.20198 0.11848 0.46756 0.0
O27 O 0.23688 0.13451 0.44322 0.0
H28 H 0.19537 0.15964 0.42041 0.0
H29 H 0.19304 0.19977 0.40581 0.0
H30 H 0.13715 0.14936 0.35105 0.0
H31 H 0.13995 0.10962 0.3655 0.0
H32 H 0.17304 1.00185 0.36452 0.0
H33 H 0.1862 0.04339 0.38743 0.0
H34 H 0.16671 0.95726 0.42902 0.0
H35 H 0.18107 0.99946 0.45175 0.0
H36 H 0.25753 0.09851 0.52355 0.0
H37 H 0.29988 0.18698 0.51493 0.0
H38 H 0.2698 0.18224 0.48209 0.0
H39 H 0.22727 0.09396 0.4905 0.0
C40 C 0.95731 0.15266 0.38553 0.0
C41 C 0.96155 0.17852 0.39249 0.0
C42 C 0.00666 0.20107 0.37411 0.0
C43 C 0.98587 0.20248 0.38672 0.0
C44 C 1.00211 0.17508 0.36692 0.0
C45 C 0.97767 0.15113 0.37257 0.0
U46 U 0.89741 0.11132 0.4275 0.0
O47 O 0.85418 0.08234 0.4205 0.0
O48 O 0.87893 0.06804 0.43915 0.0
C49 C 0.85522 0.06124 0.42957 0.0
C50 C 0.93222 0.1271 0.39216 0.0
C51 C 0.84242 0.0359 0.41537 0.0
C52 C 0.83025 0.01285 0.37732 0.0
C53 C 0.84507 0.0368 0.39067 0.0
C54 C 0.81092 0.98659 0.41328 0.0
C55 C 0.8126 0.98751 0.38842 0.0
C56 C 0.82568 0.0106 0.4266 0.0
C57 C 0.88782 0.14306 0.48329 0.0
C58 C 0.86065 0.11704 0.51728 0.0
C59 C 0.86958 0.16352 0.51031 0.0
C60 C 0.88461 0.16532 0.49009 0.0
C61 C 0.85756 0.13942 0.52421 0.0
C62 C 0.87547 0.11876 0.49689 0.0
C63 C 0.90356 0.14539 0.46175 0.0
O64 O 0.9342 0.11449 0.41107 0.0
O65 O 0.90944 0.12805 0.39148 0.0
O66 O 0.89132 0.14445 0.44171 0.0
O67 O 0.91591 0.13075 0.46145 0.0
H68 H 0.94614 0.18021 0.40256 0.0
H69 H 0.98841 0.22212 0.39224 0.0
H70 H 0.01773 0.17311 0.35751 0.0
H71 H 0.97482 0.13133 0.36713 0.0
H72 H 0.83177 0.0145 0.35822 0.0
H73 H 0.85789 0.05616 0.38166 0.0
H74 H 0.79782 0.96742 0.42241 0.0
H75 H 0.82345 0.00954 0.44568 0.0
H76 H 0.85153 0.09821 0.5276 0.0
H77 H 0.86796 0.18128 0.51539 0.0
H78 H 0.89387 0.18419 0.4798 0.0
H79 H 0.87735 0.10114 0.49182 0.0
C80 C 0.84377 0.78383 0.3725 0.0
C81 C 0.81813 0.76591 0.38239 0.0
C82 C 0.79913 0.79203 0.364 0.0
C83 C 0.79601 0.76984 0.37803 0.0
C84 C 0.82483 0.80977 0.35389 0.0
C85 C 0.84696 0.80567 0.35812 0.0
U86 U 0.8795 0.76074 0.4153 0.0
O87 O 0.90051 0.73702 0.41008 0.0
O88 O 0.92269 0.77864 0.42515 0.0
C89 C 0.92423 0.75752 0.41688 0.0
C90 C 0.86738 0.78047 0.37804 0.0
C91 C 0.94809 0.76357 0.40187 0.0
C92 C 0.99445 0.79515 0.38849 0.0
C93 C 0.97044 0.79046 0.39975 0.0
C94 C 0.9738 0.74642 0.3803 0.0
C95 C 0.99666 0.77305 0.37926 0.0
C96 C 0.94987 0.74172 0.39157 0.0
C97 C 0.84442 0.73127 0.47497 0.0
C98 C 0.84512 0.69619 0.49992 0.0
C99 C 0.83941 0.73229 0.51769 0.0
C100 C 0.8406 0.74342 0.49523 0.0
C101 C 0.84183 0.70861 0.52035 0.0
C102 C 0.84657 0.70747 0.47752 0.0
C103 C 0.84585 0.74361 0.45148 0.0
O104 O 0.88305 0.79617 0.39523 0.0
O105 O 0.86213 0.75484 0.37959 0.0
O106 O 0.84294 0.7282 0.43296 0.0
O107 O 0.86526 0.76935 0.4488 0.0
H108 H 0.81523 0.749 0.39369 0.0
H109 H 0.77645 0.7555 0.38578 0.0
H110 H 0.82804 0.82725 0.34326 0.0
H111 H 0.86667 0.81983 0.35051 0.0
H112 H 0.01176 0.81588 0.38822 0.0
H113 H 0.96986 0.80778 0.40761 0.0
H114 H 0.97472 0.729 0.3731 0.0
H115 H 0.9331 0.72076 0.39301 0.0
H116 H 0.84662 0.67769 0.5012 0.0
H117 H 0.83728 0.74267 0.53298 0.0
H118 H 0.83884 0.76175 0.49369 0.0
H119 H 0.84944 0.69755 0.46224 0.0
C120 C 0.05842 0.22404 0.63393 0.0
C121 C 0.05303 0.24489 0.62676 0.0
C122 C 0.00646 0.2184 0.64167 0.0
C123 C 0.02741 0.24219 0.63073 0.0
C124 C 0.01196 0.19754 0.64878 0.0
C125 C 0.03771 0.2004 0.64499 0.0
U126 U 0.12033 0.24461 0.59467 0.0
O127 O 0.16415 0.26739 0.60286 0.0
O128 O 0.14539 0.22518 0.58892 0.0
C129 C 0.16755 0.24654 0.59727 0.0
C130 C 0.08533 0.22654 0.62979 0.0
C131 C 0.18482 0.24116 0.61338 0.0
C132 C 0.19277 0.2117 0.64008 0.0
C133 C 0.17476 0.21694 0.62693 0.0
C134 C 0.23063 0.25514 0.62676 0.0
C135 C 0.22102 0.2306 0.63984 0.0
C136 C 0.21274 0.26033 0.61378 0.0
C137 C 0.12465 0.27533 0.53374 0.0
C138 C 0.15443 0.27738 0.50172 0.0
C139 C 0.13824 0.31008 0.50297 0.0
C140 C 0.1239 0.29786 0.52377 0.0
C141 C 0.15359 0.29992 0.49164 0.0
C142 C 0.14024 0.2653 0.52269 0.0
C143 C 0.10957 0.26311 0.55588 0.0
O144 O 0.08602 0.21023 0.61344 0.0
O145 O 0.10615 0.2518 0.62866 0.0
O146 O 0.11992 0.2783 0.57487 0.0
O147 O 0.10144 0.23691 0.55943 0.0
H148 H 0.0686 0.26332 0.61806 0.0
H149 H 0.02412 0.25886 0.62532 0.0
H150 H 0.99624 0.17875 0.65687 0.0
H151 H 0.0414 0.184 0.65052 0.0
H152 H 0.18465 0.19269 0.65005 0.0
H153 H 0.1532 0.20185 0.62693 0.0
H154 H 0.25222 0.26992 0.62557 0.0
H155 H 0.22092 0.27904 0.60332 0.0
H156 H 0.16616 0.26919 0.49345 0.0
H157 H 0.13679 0.32711 0.49545 0.0
H158 H 0.11208 0.30597 0.53204 0.0
H159 H 0.14144 0.24813 0.53022 0.0
C160 C 0.82307 0.86364 0.61665 0.0
C161 C 0.81473 0.84043 0.60217 0.0
C162 C 0.82431 0.81698 0.63398 0.0
C163 C 0.81548 0.81725 0.61075 0.0
C164 C 0.83331 0.84062 0.64806 0.0
C165 C 0.83268 0.86367 0.63948 0.0
U166 U 0.79953 0.90142 0.57401 0.0
O167 O 0.78308 0.92868 0.58172 0.0
O168 O 0.82172 0.94485 0.56233 0.0
C169 C 0.80412 0.95045 0.57246 0.0
C170 C 0.82138 0.88783 0.6088 0.0
C171 C 0.81553 0.97566 0.58682 0.0
C172 C 0.82534 0.99825 0.62506 0.0
C173 C 0.81754 0.97464 0.61149 0.0
C174 C 0.83049 0.02449 0.58939 0.0
C175 C 0.83151 0.02341 0.61422 0.0
C176 C 0.82252 1.0008 0.57584 0.0
C177 C 0.75717 0.86861 0.51943 0.0
C178 C 0.75354 0.8948 0.48659 0.0
C179 C 0.71843 0.84729 0.49275 0.0
C180 C 0.73247 0.84572 0.51252 0.0
C181 C 0.72896 0.87176 0.47944 0.0
C182 C 0.76741 0.89332 0.50654 0.0
C183 C 0.77164 0.86661 0.54036 0.0
O184 O 0.83457 0.89987 0.58924 0.0
O185 O 0.79707 0.88543 0.61008 0.0
O186 O 0.76084 0.86707 0.56082 0.0
O187 O 0.79839 0.88203 0.53995 0.0
H188 H 0.80722 0.84007 0.58445 0.0
H189 H 0.80827 0.79926 0.59959 0.0
H190 H 0.84053 0.84115 0.66593 0.0
H191 H 0.83932 0.88143 0.65086 0.0
H192 H 0.82542 0.99642 0.64414 0.0
H193 H 0.81217 0.9554 0.62033 0.0
H194 H 0.83541 0.04354 0.58043 0.0
H195 H 0.8211 1.00196 0.55679 0.0
H196 H 0.76203 0.91393 0.47672 0.0
H197 H 0.69972 0.82909 0.48746 0.0
H198 H 0.72414 0.82656 0.52233 0.0
H199 H 0.78623 0.91142 0.51178 0.0
C200 C 0.0552 0.86111 0.63055 0.0
C201 C 0.03072 0.84874 0.61758 0.0
C202 C 0.0077 0.81567 0.64944 0.0
C203 C 0.0072 0.82631 0.62698 0.0
C204 C 0.03218 0.82813 0.66238 0.0
C205 C 0.05562 0.85068 0.65308 0.0
U206 U 0.11175 0.89791 0.58379 0.0
O207 O 0.13205 0.94102 0.57164 0.0
O208 O 0.15594 0.92455 0.58849 0.0
C209 C 0.15599 0.94632 0.5797 0.0
C210 C 0.08033 0.88514 0.62134 0.0
C211 C 0.17104 0.97164 0.59355 0.0
C212 C 0.17901 0.99702 0.63017 0.0
C213 C 0.16296 0.97355 0.61658 0.0
C214 C 0.21077 0.01717 0.59751 0.0
C215 C 0.2034 0.01888 0.62094 0.0
C216 C 0.19472 0.99371 0.58396 0.0
C217 C 0.11558 0.86445 0.52719 0.0
C218 C 0.15781 0.8787 0.50554 0.0
C219 C 0.11437 0.85466 0.48523 0.0
C220 C 0.1008 0.85323 0.50633 0.0
C221 C 0.14301 0.86722 0.48465 0.0
C222 C 0.14424 0.87753 0.52658 0.0
C223 C 0.101 0.86282 0.54932 0.0
O224 O 0.10205 0.88231 0.62037 0.0
O225 O 0.07773 0.89782 0.60273 0.0
O226 O 0.09048 0.8791 0.55038 0.0
O227 O 0.11332 0.86252 0.56897 0.0
H228 H 0.02972 0.85624 0.60014 0.0
H229 H 0.98877 0.81687 0.61641 0.0
H230 H 0.03319 0.8205 0.67977 0.0
H231 H 0.07417 0.85997 0.66349 0.0
H232 H 0.17261 0.99785 0.64806 0.0
H233 H 0.14464 0.95667 0.62419 0.0
H234 H 0.22955 0.03343 0.58997 0.0
H235 H 0.20123 0.99247 0.5662 0.0
H236 H 0.17987 0.88861 0.50559 0.0
H237 H 0.10238 0.84527 0.46949 0.0
H238 H 0.07873 0.84319 0.50639 0.0
H239 H 0.15618 0.88672 0.54238 0.0
C240 C 0.83766 0.46767 0.72795 0.0
C241 C 0.85174 0.49294 0.73988 0.0
C242 C 0.83494 0.51388 0.71149 0.0
C243 C 0.85034 0.51587 0.73174 0.0
C244 C 0.81995 0.48815 0.7003 0.0
C245 C 0.82135 0.4653 0.70845 0.0
U246 U 0.86754 0.43373 0.76754 0.0
O247 O 0.84953 0.39087 0.78004 0.0
O248 O 0.88653 0.40908 0.75812 0.0
C249 C 0.86774 0.38694 0.76894 0.0
C250 C 0.841 0.4441 0.73467 0.0
C251 C 0.85763 0.3611 0.75575 0.0
C252 C 0.82834 0.32817 0.7262 0.0
C253 C 0.8361 0.35203 0.73951 0.0
C254 C 0.86333 0.32221 0.74553 0.0
C255 C 0.84217 0.31317 0.72878 0.0
C256 C 0.8709 0.34586 0.75887 0.0
C257 C 0.91389 0.47097 0.81909 0.0
C258 C 0.92577 0.44716 0.84881 0.0
C259 C 0.95315 0.49671 0.84449 0.0
C260 C 0.93618 0.49602 0.8262 0.0
C261 C 0.94808 0.47232 0.85608 0.0
C262 C 0.90892 0.44646 0.83033 0.0
C263 C 0.89654 0.47062 0.7995 0.0
O264 O 0.86565 0.44777 0.73161 0.0
O265 O 0.82986 0.43202 0.75486 0.0
O266 O 0.87023 0.45334 0.80185 0.0
O267 O 0.90582 0.47044 0.77824 0.0
H268 H 0.86449 0.49513 0.75498 0.0
H269 H 0.86237 0.53545 0.74058 0.0
H270 H 0.80771 0.48587 0.68481 0.0
H271 H 0.81028 0.44593 0.69908 0.0
H272 H 0.81178 0.32169 0.71367 0.0
H273 H 0.82565 0.36361 0.73686 0.0
H274 H 0.87488 0.31168 0.74772 0.0
H275 H 0.88769 0.35269 0.77125 0.0
H276 H 0.92143 0.42806 0.85734 0.0
H277 H 0.9699 0.51648 0.84993 0.0
H278 H 0.94043 0.51509 0.81765 0.0
H279 H 0.892 0.42682 0.82485 0.0
C280 C 0.62855 0.48389 0.7198 0.0
C281 C 0.6322 0.50965 0.7264 0.0
C282 C 0.67748 0.53276 0.70838 0.0
C283 C 0.6563 0.5338 0.72062 0.0
C284 C 0.67355 0.50687 0.70154 0.0
C285 C 0.6493 0.48269 0.7072 0.0
U286 U 0.56935 0.44352 0.76218 0.0
O287 O 0.52571 0.41538 0.75586 0.0
O288 O 0.55005 0.40045 0.77438 0.0
C289 C 0.52612 0.39425 0.76556 0.0
C290 C 0.60359 0.45822 0.72651 0.0
C291 C 0.51108 0.36813 0.75267 0.0
C292 C 0.50798 0.3353 0.72307 0.0
C293 C 0.52366 0.3595 0.73605 0.0
C294 C 0.46732 0.3281 0.7436 0.0
C295 C 0.47947 0.31955 0.72636 0.0
C296 C 0.48298 0.35204 0.75661 0.0
C297 C 0.56064 0.47677 0.81714 0.0
C298 C 0.53351 0.45145 0.85139 0.0
C299 C 0.54137 0.49729 0.84299 0.0
C300 C 0.55673 0.49884 0.82307 0.0
C301 C 0.52974 0.47365 0.85745 0.0
C302 C 0.54864 0.4529 0.8313 0.0
C303 C 0.57642 0.47862 0.79575 0.0
O304 O 0.6057 0.44585 0.74554 0.0
O305 O 0.58076 0.45905 0.72579 0.0
O306 O 0.56431 0.47758 0.77562 0.0
O307 O 0.58842 0.46364 0.79578 0.0
H308 H 0.61651 0.51111 0.7362 0.0
H309 H 0.65835 0.55334 0.72584 0.0
H310 H 0.68949 0.50521 0.6924 0.0
H311 H 0.64691 0.46299 0.70205 0.0
H312 H 0.51812 0.32926 0.71014 0.0
H313 H 0.5454 0.3717 0.73278 0.0
H314 H 0.44546 0.31705 0.74636 0.0
H315 H 0.47294 0.35847 0.76934 0.0
H316 H 0.5247 0.43296 0.86215 0.0
H317 H 0.53917 0.51489 0.84741 0.0
H318 H 0.56565 0.51735 0.81232 0.0
H319 H 0.55098 0.43538 0.82689 0.0
C320 C 0.51162 0.12186 0.70589 0.0
C321 C 0.48583 0.1034 0.71522 0.0
C322 C 0.46681 0.12978 0.6974 0.0
C323 C 0.46364 0.10718 0.71085 0.0
C324 C 0.49263 0.14803 0.68777 0.0
C325 C 0.51486 0.14408 0.692 0.0
U326 U 0.54698 0.0985 0.74878 0.0
O327 O 0.56759 0.07442 0.74362 0.0
O328 O 0.59013 0.11602 0.75867 0.0
C329 C 0.59143 0.09477 0.75037 0.0
C330 C 0.53525 0.11857 0.71152 0.0
C331 C 0.61515 0.10063 0.73523 0.0
C332 C 0.66224 0.13126 0.72311 0.0
C333 C 0.63853 0.12698 0.73465 0.0
C334 C 0.63935 0.08328 0.71166 0.0
C335 C 0.66315 0.10926 0.71208 0.0
C336 C 0.6157 0.07899 0.7232 0.0
C337 C 0.51111 0.06829 0.80814 0.0
C338 C 0.50739 0.03062 0.8324 0.0
C339 C 0.50868 0.07008 0.8511 0.0
C340 C 0.51044 0.08182 0.82881 0.0
C341 C 0.50734 0.04439 0.8532 0.0
C342 C 0.50939 0.04246 0.81017 0.0
C343 C 0.51301 0.08113 0.78476 0.0
O344 O 0.55073 0.13412 0.72887 0.0
O345 O 0.53006 0.09296 0.71292 0.0
O346 O 0.51009 0.06598 0.76605 0.0
O347 O 0.53263 0.10684 0.78236 0.0
H348 H 0.48286 0.08618 0.72612 0.0
H349 H 0.44399 0.09243 0.71819 0.0
H350 H 0.49584 0.16579 0.67755 0.0
H351 H 0.53467 0.15863 0.6848 0.0
H352 H 0.6803 0.15145 0.72401 0.0
H353 H 0.63893 0.14409 0.7439 0.0
H354 H 0.63928 0.06598 0.70307 0.0
H355 H 0.59815 0.05841 0.72342 0.0
H356 H 0.50591 0.0106 0.83325 0.0
H357 H 0.50906 0.08147 0.86668 0.0
H358 H 0.51154 0.10167 0.82772 0.0
H359 H 0.50963 0.03132 0.79462 0.0
C360 C 0.72634 0.55791 0.96708 0.0
C361 C 0.72139 0.57924 0.96058 0.0
C362 C 0.6747 0.55283 0.97523 0.0
C363 C 0.69592 0.57681 0.96476 0.0
C364 C 0.6798 0.53153 0.98172 0.0
C365 C 0.70539 0.5341 0.97773 0.0
U366 U 0.78861 0.57902 0.92795 0.0
O367 O 0.83219 0.59969 0.93677 0.0
O368 O 0.81238 0.55844 0.92086 0.0
C369 C 0.83468 0.57849 0.93039 0.0
C370 C 0.75303 0.56002 0.96263 0.0
C371 C 0.85067 0.57082 0.94628 0.0
C372 C 0.8664 0.53882 0.95673 0.0
C373 C 0.84742 0.54423 0.94564 0.0
C374 C 0.89123 0.58595 0.97051 0.0
C375 C 0.8891 0.55996 0.96845 0.0
C376 C 0.8723 0.59135 0.95948 0.0
C377 C 0.79462 0.61267 0.86808 0.0
C378 C 0.82484 0.61524 0.83626 0.0
C379 C 0.80765 0.64713 0.83714 0.0
C380 C 0.79337 0.63486 0.85796 0.0
C381 C 0.82342 0.63737 0.82595 0.0
C382 C 0.81071 0.6031 0.85724 0.0
C383 C 0.77929 0.60008 0.89002 0.0
O384 O 0.75346 0.54432 0.94558 0.0
O385 O 0.77423 0.58509 0.96229 0.0
O386 O 0.79003 0.61435 0.9094 0.0
O387 O 0.77017 0.57356 0.8927 0.0
H388 H 0.73718 0.59781 0.95222 0.0
H389 H 0.69293 0.59381 0.95983 0.0
H390 H 0.66386 0.51259 0.98944 0.0
H391 H 0.70876 0.51734 0.98275 0.0
H392 H 0.86435 0.51865 0.95467 0.0
H393 H 0.83114 0.528 0.93546 0.0
H394 H 0.90837 0.60255 0.97965 0.0
H395 H 0.87553 0.6121 0.9602 0.0
H396 H 0.83692 0.60737 0.82812 0.0
H397 H 0.80575 0.66383 0.82946 0.0
H398 H 0.78116 0.64259 0.86608 0.0
H399 H 0.81226 0.58619 0.86491 0.0
C400 C 0.48975 0.19618 0.9524 0.0
C401 C 0.4766 0.17086 0.94043 0.0
C402 C 0.49418 0.1511 0.96922 0.0
C403 C 0.47887 0.14845 0.94876 0.0
C404 C 0.50809 0.17686 0.98052 0.0
C405 C 0.50586 0.19913 0.9722 0.0
U406 U 0.46138 0.23057 0.91132 0.0
O407 O 0.4809 0.2734 0.89854 0.0
O408 O 0.44345 0.25647 0.91981 0.0
C409 C 0.46305 0.27825 0.9092 0.0
C410 C 0.48634 0.21952 0.94516 0.0
C411 C 0.47382 0.30421 0.92235 0.0
C412 C 0.50582 0.33841 0.94978 0.0
C413 C 0.49699 0.31414 0.9368 0.0
C414 C 0.46853 0.34303 0.93379 0.0
C415 C 0.49147 0.353 0.94867 0.0
C416 C 0.45988 0.31896 0.92076 0.0
C417 C 0.41789 0.19597 0.85806 0.0
C418 C 0.41306 0.22188 0.82565 0.0
C419 C 0.37927 0.17379 0.8313 0.0
C420 C 0.39363 0.1726 0.85103 0.0
C421 C 0.3891 0.19833 0.81822 0.0
C422 C 0.42719 0.22078 0.84553 0.0
C423 C 0.43314 0.1945 0.87863 0.0
O424 O 0.49831 0.23173 0.92524 0.0
O425 O 0.46156 0.21578 0.94736 0.0
O426 O 0.42285 0.19492 0.89936 0.0
O427 O 0.45979 0.21051 0.87756 0.0
H428 H 0.4641 0.16827 0.92505 0.0
H429 H 0.46779 0.12882 0.93981 0.0
H430 H 0.5203 0.17963 0.99615 0.0
H431 H 0.51628 0.21857 0.98155 0.0
H432 H 0.52371 0.34558 0.96088 0.0
H433 H 0.50802 0.30298 0.93828 0.0
H434 H 0.45655 0.35322 0.93281 0.0
H435 H 0.44186 0.31151 0.90976 0.0
H436 H 0.42097 0.24106 0.81593 0.0
H437 H 0.361 0.15526 0.82579 0.0
H438 H 0.386 0.15336 0.8606 0.0
H439 H 0.4456 0.23926 0.85091 0.0
C440 C 0.72169 0.19199 0.96456 0.0
C441 C 0.69625 0.18164 0.95328 0.0
C442 C 0.67476 0.14558 0.98315 0.0
C443 C 0.67306 0.15872 0.9625 0.0
C444 C 0.70013 0.15606 0.9945 0.0
C445 C 0.72329 0.17909 0.98538 0.0
U446 U 0.77832 0.22947 0.91809 0.0
O447 O 0.79692 0.27207 0.90476 0.0
O448 O 0.8222 0.25785 0.92255 0.0
C449 C 0.82117 0.27875 0.91306 0.0
C450 C 0.74648 0.21657 0.95538 0.0
C451 C 0.83532 0.30454 0.92644 0.0
C452 C 0.84237 0.33028 0.96272 0.0
C453 C 0.82667 0.30668 0.94917 0.0
C454 C 0.8748 0.35024 0.93052 0.0
C455 C 0.867 0.35205 0.95377 0.0
C456 C 0.85909 0.32665 0.917 0.0
C457 C 0.78356 0.19395 0.86311 0.0
C458 C 0.80904 0.21784 0.82774 0.0
C459 C 0.80087 0.17202 0.83673 0.0
C460 C 0.78669 0.1714 0.85719 0.0
C461 C 0.81208 0.19518 0.82171 0.0
C462 C 0.79509 0.21733 0.84836 0.0
C463 C 0.76913 0.19309 0.88511 0.0
O464 O 0.76893 0.21499 0.95502 0.0
O465 O 0.74351 0.22845 0.93638 0.0
O466 O 0.75726 0.20819 0.88543 0.0
O467 O 0.78243 0.19484 0.9047 0.0
H468 H 0.6942 0.19108 0.93725 0.0
H469 H 0.6539 0.15089 0.95312 0.0
H470 H 0.70207 0.14649 0.01052 0.0
H471 H 0.74254 0.18682 0.99461 0.0
H472 H 0.83561 0.33119 0.98046 0.0
H473 H 0.8083 0.28976 0.95669 0.0
H474 H 0.89377 0.36642 0.92318 0.0
H475 H 0.86605 0.32524 0.89947 0.0
H476 H 0.81754 0.23598 0.81655 0.0
H477 H 0.80248 0.15406 0.83236 0.0
H478 H 0.77811 0.15325 0.86838 0.0
H479 H 0.79332 0.23519 0.85274 0.0
C480 C 0.5019 0.7991 0.06027 0.0
C481 C 0.51736 0.82493 0.07105 0.0
C482 C 0.49848 0.84492 0.04375 0.0
C483 C 0.51563 0.84766 0.06288 0.0
C484 C 0.48213 0.81865 0.03381 0.0
C485 C 0.48389 0.796 0.04197 0.0
U486 U 0.53304 0.76612 0.09936 0.0
O487 O 0.51563 0.7235 0.11234 0.0
O488 O 0.55214 0.74162 0.0898 0.0
C489 C 0.53371 0.71958 0.101 0.0
C490 C 0.50549 0.77566 0.0669 0.0
C491 C 0.52352 0.69359 0.08804 0.0
C492 C 0.49402 0.66032 0.0588 0.0
C493 C 0.50172 0.68421 0.07205 0.0
C494 C 0.52957 0.65495 0.07771 0.0
C495 C 0.50818 0.64563 0.06118 0.0
C496 C 0.53708 0.67862 0.091 0.0
C497 C 0.58058 0.80464 0.14991 0.0
C498 C 0.59263 0.7819 0.18051 0.0
C499 C 0.62092 0.83103 0.17401 0.0
C500 C 0.60356 0.82976 0.15584 0.0
C501 C 0.61553 0.80716 0.18668 0.0
C502 C 0.57541 0.78061 0.16213 0.0
C503 C 0.56266 0.80372 0.1306 0.0
O504 O 0.53009 0.77939 0.06339 0.0
O505 O 0.49489 0.76385 0.08731 0.0
O506 O 0.53645 0.78635 0.13347 0.0
O507 O 0.57144 0.8032 0.10919 0.0
H508 H 0.5314 0.82769 0.08523 0.0
H509 H 0.52874 0.86763 0.07075 0.0
H510 H 0.46851 0.81577 0.01923 0.0
H511 H 0.47172 0.77619 0.03351 0.0
H512 H 0.47727 0.65362 0.04643 0.0
H513 H 0.49105 0.69559 0.06951 0.0
H514 H 0.54137 0.64466 0.07974 0.0
H515 H 0.55408 0.6857 0.10318 0.0
H516 H 0.58803 0.7632 0.18992 0.0
H517 H 0.63815 0.85087 0.17861 0.0
H518 H 0.60798 0.84847 0.14651 0.0
H519 H 0.55798 0.76088 0.15758 0.0
C520 C 0.29135 0.8204 0.05037 0.0
C521 C 0.29612 0.84632 0.05777 0.0
C522 C 0.34119 0.86846 0.03936 0.0
C523 C 0.32067 0.87009 0.0522 0.0
C524 C 0.33613 0.84243 0.03172 0.0
C525 C 0.31144 0.81865 0.03717 0.0
U526 U 0.23176 0.77983 0.09256 0.0
O527 O 0.21161 0.7364 0.10369 0.0
O528 O 0.188 0.75258 0.08576 0.0
C529 C 0.18794 0.73089 0.09474 0.0
C530 C 0.26591 0.79506 0.05677 0.0
C531 C 0.17304 0.70536 0.08103 0.0
C532 C 0.17102 0.67238 0.05209 0.0
C533 C 0.18621 0.69659 0.06516 0.0
C534 C 0.12954 0.6656 0.07077 0.0
C535 C 0.14242 0.65671 0.05458 0.0
C536 C 0.14472 0.6896 0.08386 0.0
C537 C 0.2242 0.81118 0.14928 0.0
C538 C 0.19856 0.78549 0.18402 0.0
C539 C 0.20439 0.83057 0.17579 0.0
C540 C 0.21945 0.83264 0.15551 0.0
C541 C 0.1939 0.80704 0.19034 0.0
C542 C 0.21339 0.78743 0.16358 0.0
C543 C 0.2397 0.81362 0.12752 0.0
O544 O 0.26758 0.7817 0.07528 0.0
O545 O 0.24358 0.79686 0.05663 0.0
O546 O 0.22764 0.81379 0.10769 0.0
O547 O 0.25125 0.79826 0.12651 0.0
H548 H 0.28094 0.84819 0.06803 0.0
H549 H 0.32359 0.88977 0.05805 0.0
H550 H 0.35153 0.8403 0.0221 0.0
H551 H 0.30818 0.7988 0.03138 0.0
H552 H 0.18167 0.66607 0.03995 0.0
H553 H 0.20812 0.70852 0.06274 0.0
H554 H 0.10758 0.65455 0.07282 0.0
H555 H 0.13422 0.69614 0.09599 0.0
H556 H 0.19066 0.7671 0.19486 0.0
H557 H 0.20153 0.84773 0.1804 0.0
H558 H 0.22748 0.85107 0.14471 0.0
H559 H 0.21642 0.77037 0.159 0.0
C560 C 0.17666 0.44928 0.03828 0.0
C561 C 0.15076 0.42977 0.04674 0.0
C562 C 0.13114 0.45607 0.02992 0.0
C563 C 0.12823 0.433 0.04243 0.0
C564 C 0.15708 0.4754 0.02116 0.0
C565 C 0.17964 0.472 0.02531 0.0
U566 U 0.21331 0.42784 0.08154 0.0
O567 O 0.23485 0.4046 0.07679 0.0
O568 O 0.25659 0.44649 0.09135 0.0
C569 C 0.25846 0.42545 0.08334 0.0
C570 C 0.2007 0.4467 0.044 0.0
C571 C 0.28227 0.43163 0.0682 0.0
C572 C 0.32871 0.46325 0.05503 0.0
C573 C 0.30478 0.45848 0.06649 0.0
C574 C 0.30768 0.41472 0.04583 0.0
C575 C 0.33069 0.44127 0.0452 0.0
C576 C 0.28383 0.40994 0.0573 0.0
C577 C 0.17793 0.3982 0.14116 0.0
C578 C 0.17739 0.36255 0.16619 0.0
C579 C 0.1732 0.39959 0.18389 0.0
C580 C 0.17471 0.41079 0.1614 0.0
C581 C 0.17468 0.37539 0.1866 0.0
C582 C 0.17915 0.37389 0.14377 0.0
C583 C 0.17947 0.41046 0.1176 0.0
O584 O 0.21612 0.46276 0.06114 0.0
O585 O 0.19614 0.42133 0.04571 0.0
O586 O 0.17688 0.39508 0.09915 0.0
O587 O 0.19869 0.43629 0.11491 0.0
H588 H 0.14795 0.41214 0.05696 0.0
H589 H 0.10852 0.41747 0.04909 0.0
H590 H 0.16011 0.49357 0.01172 0.0
H591 H 0.19952 0.48738 0.01881 0.0
H592 H 0.34616 0.4839 0.05508 0.0
H593 H 0.30439 0.47566 0.07483 0.0
H594 H 0.30843 0.3974 0.03818 0.0
H595 H 0.26695 0.38901 0.05841 0.0
H596 H 0.17815 0.34365 0.1675 0.0
H597 H 0.17152 0.41028 0.19917 0.0
H598 H 0.17361 0.4295 0.15982 0.0
H599 H 0.1815 0.36357 0.12852 0.0
C600 C 0.39253 0.89288 0.30118 0.0
C601 C 0.38833 0.91504 0.29606 0.0
C602 C 0.34108 0.88834 0.30933 0.0
C603 C 0.36295 0.91285 0.30023 0.0
C604 C 0.34542 0.8662 0.31443 0.0
C605 C 0.3709 0.8685 0.31045 0.0
U606 U 0.45419 0.9113 0.2618 0.0
O607 O 0.49794 0.93214 0.27008 0.0
O608 O 0.47746 0.88994 0.25612 0.0
C609 C 0.50007 0.91043 0.26478 0.0
C610 C 0.41917 0.89471 0.2969 0.0
C611 C 0.5163 0.90341 0.281 0.0
C612 C 0.53424 0.87305 0.29066 0.0
C613 C 0.51481 0.87764 0.27943 0.0
C614 C 0.55601 0.91929 0.30651 0.0
C615 C 0.5557 0.89423 0.30351 0.0
C616 C 0.5366 0.92388 0.29531 0.0
C617 C 0.45927 0.94027 0.19997 0.0
C618 C 0.50105 0.9697 0.17812 0.0
C619 C 0.45883 0.94143 0.157 0.0
C620 C 0.44518 0.93126 0.17849 0.0
C621 C 0.48686 0.96096 0.15658 0.0
C622 C 0.48743 0.95931 0.19963 0.0
C623 C 0.44427 0.9295 0.22241 0.0
O624 O 0.41927 0.87787 0.28078 0.0
O625 O 0.44043 0.91968 0.2955 0.0
O626 O 0.45502 0.94504 0.2412 0.0
O627 O 0.43521 0.90323 0.22648 0.0
H628 H 0.40462 0.9341 0.28882 0.0
H629 H 0.36055 0.93048 0.29639 0.0
H630 H 0.32899 0.84685 0.32105 0.0
H631 H 0.37366 0.85111 0.31444 0.0
H632 H 0.53357 0.85361 0.28782 0.0
H633 H 0.49963 0.86152 0.26835 0.0
H634 H 0.57213 0.93589 0.31654 0.0
H635 H 0.53849 0.94403 0.29681 0.0
H636 H 0.52267 0.9846 0.17834 0.0
H637 H 0.44723 0.93459 0.14073 0.0
H638 H 0.42351 0.91654 0.17833 0.0
H639 H 0.49889 0.96635 0.21596 0.0
C640 C 0.15761 0.53123 0.28497 0.0
C641 C 0.14683 0.50709 0.27133 0.0
C642 C 0.15985 0.48491 0.30178 0.0
C643 C 0.14805 0.48408 0.27965 0.0
C644 C 0.17142 0.50951 0.31487 0.0
C645 C 0.17027 0.53239 0.30655 0.0
U646 U 0.13149 0.56731 0.24336 0.0
O647 O 0.11358 0.59327 0.25167 0.0
O648 O 0.15174 0.61049 0.23138 0.0
C649 C 0.13364 0.61524 0.24168 0.0
C650 C 0.15501 0.55505 0.27765 0.0
C651 C 0.14404 0.64093 0.25525 0.0
C652 C 0.17579 0.67501 0.28292 0.0
C653 C 0.16727 0.65097 0.26966 0.0
C654 C 0.13808 0.67917 0.26733 0.0
C655 C 0.16109 0.68926 0.28214 0.0
C656 C 0.12974 0.65534 0.25401 0.0
C657 C 0.08877 0.53309 0.18924 0.0
C658 C 0.08432 0.55806 0.15582 0.0
C659 C 0.04955 0.51069 0.16313 0.0
C660 C 0.064 0.5099 0.18293 0.0
C661 C 0.05976 0.53467 0.1492 0.0
C662 C 0.09859 0.55737 0.17578 0.0
C663 C 0.10388 0.53184 0.21004 0.0
O664 O 0.16765 0.56746 0.25801 0.0
O665 O 0.13037 0.55178 0.27936 0.0
O666 O 0.09318 0.532 0.23063 0.0
O667 O 0.13053 0.54798 0.20933 0.0
H668 H 0.13694 0.50586 0.25459 0.0
H669 H 0.13883 0.46536 0.26927 0.0
H670 H 0.18091 0.51087 0.33186 0.0
H671 H 0.1788 0.55086 0.31726 0.0
H672 H 0.19374 0.68227 0.29396 0.0
H673 H 0.17859 0.64009 0.27086 0.0
H674 H 0.12584 0.68908 0.2666 0.0
H675 H 0.11169 0.64782 0.24305 0.0
H676 H 0.09255 0.57683 0.14546 0.0
H677 H 0.03084 0.49224 0.15828 0.0
H678 H 0.05598 0.49106 0.19318 0.0
H679 H 0.11744 0.57572 0.18054 0.0
C680 C 0.38897 0.52273 0.29887 0.0
C681 C 0.36459 0.51127 0.28579 0.0
C682 C 0.34075 0.47767 0.31709 0.0
C683 C 0.3407 0.48902 0.29487 0.0
C684 C 0.36514 0.48922 0.33014 0.0
C685 C 0.38894 0.51159 0.32116 0.0
U686 U 0.44605 0.56008 0.25257 0.0
O687 O 0.4677 0.60388 0.24209 0.0
O688 O 0.49027 0.58519 0.25759 0.0
C689 C 0.49112 0.60801 0.25059 0.0
C690 C 0.41448 0.54659 0.29007 0.0
C691 C 0.50649 0.63249 0.26581 0.0
C692 C 0.52508 0.68161 0.27251 0.0
C693 C 0.50891 0.65784 0.25925 0.0
C694 C 0.53661 0.65506 0.29918 0.0
C695 C 0.53925 0.68051 0.29256 0.0
C696 C 0.52044 0.63136 0.286 0.0
C697 C 0.44894 0.52703 0.19498 0.0
C698 C 0.47341 0.55097 0.15923 0.0
C699 C 0.46721 0.50597 0.1686 0.0
C700 C 0.45299 0.50501 0.18912 0.0
C701 C 0.47752 0.52892 0.15339 0.0
C702 C 0.45943 0.55014 0.17993 0.0
C703 C 0.43473 0.52587 0.21725 0.0
O704 O 0.43573 0.54303 0.28868 0.0
O705 O 0.41239 0.56021 0.27193 0.0
O706 O 0.42477 0.54262 0.21897 0.0
O707 O 0.44709 0.52483 0.2366 0.0
H708 H 0.36395 0.51936 0.26852 0.0
H709 H 0.32233 0.48028 0.28422 0.0
H710 H 0.36578 0.48101 0.34736 0.0
H711 H 0.40742 0.52019 0.33165 0.0
H712 H 0.52653 0.70084 0.26704 0.0
H713 H 0.49859 0.65936 0.24365 0.0
H714 H 0.54765 0.65353 0.31424 0.0
H715 H 0.51935 0.61228 0.29146 0.0
H716 H 0.48119 0.56892 0.14786 0.0
H717 H 0.46963 0.48846 0.16437 0.0
H718 H 0.44516 0.48704 0.20049 0.0
H719 H 0.45692 0.5676 0.18415 0.0
O720 O 0.53326 0.99733 0.94795 0.0
Mg721 Mg 0.54536 0.98983 0.98077 0.0
O722 O 0.50445 0.00796 0.96456 0.0
Mg723 Mg 0.5086 0.00319 0.00571 0.0
O724 O 0.51513 0.96443 0.00365 0.0
O725 O 0.5419 0.95254 0.98321 0.0
O726 O 0.51299 0.99518 0.04661 0.0
O727 O 0.46223 0.96995 0.00746 0.0
Mg728 Mg 0.49201 0.02264 0.03776 0.0
O729 O 0.50072 0.04205 0.00571 0.0
O730 O 0.52234 0.0335 0.06379 0.0
O731 O 0.45543 0.98437 0.04152 0.0
O732 O 0.48236 0.05235 0.03658 0.0
C733 C 0.57876 0.04156 0.00226 0.0
C734 C 0.51585 0.00512 0.94608 0.0
C735 C 0.52288 0.94659 0.99859 0.0
C736 C 0.52061 0.01025 0.06505 0.0
C737 C 0.44695 0.96646 0.02528 0.0
C738 C 0.49182 0.05732 0.01531 0.0
O739 O 0.58126 0.02155 0.9953 0.0
O740 O 0.55497 0.03846 0.00517 0.0
O741 O 0.03376 0.52121 0.93895 0.0
Mg742 Mg 0.03289 0.54783 0.96437 0.0
O743 O 0.99904 0.49192 0.96022 0.0
Mg744 Mg 0.00797 0.50528 0.0006 0.0
O745 O 0.04818 0.54865 0.99704 0.0
O746 O 0.06946 0.58194 0.96979 0.0
O747 O 0.0177 0.5192 0.04095 0.0
O748 O 0.03642 0.48665 0.00329 0.0
Mg749 Mg 0.98543 0.46826 0.03602 0.0
O750 O 0.96716 0.46143 0.00367 0.0
O751 O 0.98063 0.49322 0.06091 0.0
O752 O 0.02149 0.46534 0.03749 0.0
O753 O 0.95154 0.43125 0.03395 0.0
C754 C 0.97941 0.5412 0.98259 0.0
C755 C 0.01157 0.49878 0.94039 0.0
C756 C 0.0687 0.57247 0.99079 0.0
C757 C 0.00429 0.51384 0.06028 0.0
C758 C 0.03875 0.4735 0.02076 0.0
C759 C 0.94893 0.43776 0.01257 0.0
O760 O 0.99795 0.55252 0.96698 0.0
O761 O 0.97969 0.5242 0.99755 0.0
O762 O 0.51574 0.48675 0.06679 0.0
Mg763 Mg 0.48838 0.45792 0.04253 0.0
O764 O 0.50636 0.51354 0.04535 0.0
Mg765 Mg 0.50248 0.50045 0.00513 0.0
O766 O 0.50193 0.45838 0.00926 0.0
O767 O 0.49363 0.42528 0.0358 0.0
O768 O 0.49852 0.48734 0.96485 0.0
O769 O 0.54953 0.5212 0.00114 0.0
Mg770 Mg 0.51759 0.5429 0.96772 0.0
O771 O 0.50334 0.54263 0.00082 0.0
O772 O 0.48981 0.51462 0.94343 0.0
O773 O 0.55737 0.54752 0.96942 0.0
O774 O 0.51322 0.57612 0.97425 0.0
C775 C 0.43942 0.46235 0.02502 0.0
C776 C 0.51328 0.50787 0.06517 0.0
C777 C 0.50071 0.43514 0.01468 0.0
C778 C 0.49185 0.49326 0.94501 0.0
C779 C 0.56573 0.53725 0.9852 0.0
C780 C 0.50501 0.56601 0.99516 0.0
O781 O 0.44824 0.45201 0.04034 0.0
O782 O 0.45533 0.47946 0.00946 0.0
O783 O 0.20095 0.33232 0.28375 0.0
Mg784 Mg 0.21076 0.32417 0.31738 0.0
O785 O 0.16935 0.34 0.29853 0.0
Mg786 Mg 0.17344 0.33639 0.33978 0.0
O787 O 0.17987 0.29726 0.33904 0.0
O788 O 0.20825 0.28734 0.3188 0.0
O789 O 0.17808 0.32969 0.38107 0.0
O790 O 0.12719 0.30282 0.34151 0.0
Mg791 Mg 0.15662 0.35603 0.37039 0.0
O792 O 0.16511 0.37512 0.33822 0.0
O793 O 0.18703 0.36872 0.3965 0.0
O794 O 0.12032 0.31772 0.37522 0.0
O795 O 0.14566 0.38476 0.36862 0.0
C796 C 0.24359 0.37533 0.33795 0.0
C797 C 0.18247 0.33845 0.28075 0.0
C798 C 0.1886 0.28025 0.33374 0.0
C799 C 0.18575 0.34577 0.39887 0.0
C800 C 0.1119 0.2995 0.35926 0.0
C801 C 0.15541 0.38988 0.34745 0.0
O802 O 0.24633 0.3549 0.33303 0.0
O803 O 0.21968 0.37231 0.3391 0.0
O804 O 0.69937 0.86183 0.26858 0.0
Mg805 Mg 0.70296 0.88991 0.29474 0.0
O806 O 0.66849 0.82908 0.29129 0.0
Mg807 Mg 0.67697 0.84183 0.33174 0.0
O808 O 0.7162 0.88422 0.3264 0.0
O809 O 0.74116 0.92095 0.30354 0.0
O810 O 0.68766 0.85707 0.3717 0.0
O811 O 0.7054 0.82323 0.33478 0.0
Mg812 Mg 0.65513 0.80745 0.36771 0.0
O813 O 0.63629 0.79751 0.3356 0.0
O814 O 0.64972 0.83346 0.39108 0.0
O815 O 0.69153 0.8051 0.37022 0.0
O816 O 0.62181 0.76995 0.36771 0.0
C817 C 0.64888 0.87993 0.31607 0.0
C818 C 0.67925 0.83778 0.27088 0.0
C819 C 0.73809 0.90796 0.3232 0.0
C820 C 0.67395 0.8531 0.39067 0.0
C821 C 0.70824 0.81164 0.35317 0.0
C822 C 0.61872 0.77438 0.34582 0.0
O823 O 0.66812 0.89402 0.30157 0.0
O824 O 0.6487 0.86081 0.32861 0.0
O825 O 0.18173 0.8216 0.4014 0.0
Mg826 Mg 0.15522 0.79139 0.37746 0.0
O827 O 0.17328 0.84808 0.3785 0.0
Mg828 Mg 0.16862 0.83396 0.33877 0.0
O829 O 0.16924 0.79278 0.34412 0.0
O830 O 0.16231 0.75987 0.37028 0.0
O831 O 0.16397 0.82055 0.29856 0.0
O832 O 0.21558 0.85565 0.33389 0.0
Mg833 Mg 0.18443 0.87947 0.3005 0.0
O834 O 0.16826 0.87484 0.33337 0.0
O835 O 0.15802 0.84954 0.2765 0.0
O836 O 0.22449 0.88485 0.30402 0.0
O837 O 0.17628 0.91005 0.3097 0.0
C838 C 0.10572 0.79475 0.35937 0.0
C839 C 0.17983 0.84296 0.39871 0.0
C840 C 0.16899 0.76995 0.3492 0.0
C841 C 0.15841 0.82728 0.27853 0.0
C842 C 0.23231 0.87327 0.31908 0.0
C843 C 0.16822 0.89776 0.32987 0.0
O844 O 0.1147 0.78447 0.37462 0.0
O845 O 0.12153 0.81215 0.34394 0.0
O846 O 0.87041 0.66786 0.61772 0.0
Mg847 Mg 0.88081 0.66056 0.65148 0.0
O848 O 0.83798 0.67439 0.63235 0.0
Mg849 Mg 0.84228 0.67156 0.6736 0.0
O850 O 0.85014 0.6334 0.67318 0.0
O851 O 0.87938 0.62422 0.65354 0.0
O852 O 0.8473 0.66582 0.71504 0.0
O853 O 0.79648 0.63684 0.67546 0.0
Mg854 Mg 0.82418 0.6905 0.70388 0.0
O855 O 0.83229 0.70911 0.67151 0.0
O856 O 0.85464 0.70454 0.73003 0.0
O857 O 0.78882 0.65147 0.70897 0.0
O858 O 0.81164 0.71799 0.7014 0.0
C859 C 0.91231 0.7123 0.67164 0.0
C860 C 0.85134 0.67314 0.61462 0.0
C861 C 0.85949 0.61681 0.66828 0.0
C862 C 0.85436 0.68209 0.73269 0.0
C863 C 0.78103 0.63311 0.69318 0.0
C864 C 0.82157 0.72315 0.6803 0.0
O865 O 0.91579 0.69226 0.66707 0.0
O866 O 0.8881 0.70853 0.67265 0.0
O867 O 0.35854 0.20252 0.60616 0.0
Mg868 Mg 0.36266 0.22638 0.63592 0.0
O869 O 0.33336 0.16527 0.62748 0.0
Mg870 Mg 0.34097 0.17583 0.66843 0.0
O871 O 0.38006 0.21973 0.66479 0.0
O872 O 0.40062 0.25802 0.64253 0.0
O873 O 0.35043 0.18805 0.70924 0.0
O874 O 0.37106 0.15898 0.66977 0.0
Mg875 Mg 0.31955 0.13858 0.70247 0.0
O876 O 0.30125 0.13072 0.6702 0.0
O877 O 0.31242 0.16165 0.72778 0.0
O878 O 0.35689 0.13815 0.70423 0.0
O879 O 0.28744 0.1004 0.70038 0.0
C880 C 0.30963 0.21297 0.65901 0.0
C881 C 0.34217 0.17689 0.60736 0.0
C882 C 0.40076 0.24429 0.66087 0.0
C883 C 0.3363 0.18191 0.72821 0.0
C884 C 0.37413 0.14662 0.68749 0.0
C885 C 0.28422 0.10654 0.67906 0.0
O886 O 0.32892 0.2305 0.64619 0.0
O887 O 0.31026 0.19227 0.66779 0.0
O888 O 0.84389 0.14873 0.73489 0.0
Mg889 Mg 0.81813 0.12007 0.70971 0.0
O890 O 0.83937 0.17885 0.7132 0.0
Mg891 Mg 0.83464 0.16648 0.67278 0.0
O892 O 0.83428 0.12492 0.67689 0.0
O893 O 0.82565 0.08928 0.70036 0.0
O894 O 0.82966 0.15318 0.63247 0.0
O895 O 0.88156 0.18696 0.6683 0.0
Mg896 Mg 0.84913 0.20839 0.63587 0.0
O897 O 0.83569 0.20896 0.66916 0.0
O898 O 0.82051 0.18062 0.61182 0.0
O899 O 0.88888 0.21284 0.6364 0.0
O900 O 0.84575 0.24216 0.6422 0.0
C901 C 0.77062 0.12697 0.69163 0.0
C902 C 0.84429 0.17141 0.73315 0.0
C903 C 0.83372 0.10165 0.68022 0.0
C904 C 0.82235 0.15913 0.61297 0.0
C905 C 0.89749 0.20271 0.6521 0.0
C906 C 0.83771 0.23244 0.66323 0.0
O907 O 0.77822 0.11448 0.70588 0.0
O908 O 0.78755 0.14567 0.67761 0.0
C909 C 0.3826 0.89768 0.01374 0.0
C910 C 0.36814 0.89366 0.03507 0.0
H911 H 0.41884 0.92384 0.99372 0.0
C912 C 0.37989 0.91382 0.05276 0.0
H913 H 0.37408 0.88267 0.99965 0.0
C914 C 0.40518 0.93736 0.04926 0.0
C915 C 0.41972 0.94145 0.02803 0.0
H916 H 0.36979 0.91124 0.06962 0.0
H917 H 0.41347 0.95222 0.06349 0.0
C918 C 0.40817 0.92133 0.01026 0.0
C919 C 0.08878 0.45391 0.04576 0.0
C920 C 0.10739 0.4604 0.02706 0.0
H921 H 0.0527 0.45275 0.05837 0.0
C922 C 0.10315 0.47118 0.00597 0.0
H923 H 0.09169 0.44619 0.06246 0.0
C924 C 0.08076 0.47531 0.00369 0.0
C925 C 0.06213 0.46862 0.02243 0.0
H926 H 0.11698 0.47619 0.99115 0.0
H927 H 0.07805 0.4837 0.98729 0.0
C928 C 0.06642 0.45784 0.04344 0.0
C929 C 0.50565 0.60009 0.05301 0.0
C930 C 0.50258 0.6223 0.04512 0.0
H931 H 0.50946 0.56519 0.04316 0.0
C932 C 0.49695 0.62354 0.02106 0.0
H933 H 0.50965 0.5982 0.07147 0.0
C934 C 0.49601 0.60409 0.00512 0.0
C935 C 0.50077 0.58296 0.01279 0.0
H936 H 0.49482 0.64043 0.01419 0.0
H937 H 0.49278 0.60637 0.98654 0.0
C938 C 0.50497 0.58076 0.03695 0.0
C939 C 0.89034 0.36935 0.99266 0.0
C940 C 0.88592 0.37504 0.96938 0.0
H941 H 0.91347 0.38448 0.02435 0.0
C942 C 0.90118 0.40225 0.96086 0.0
H943 H 0.87931 0.34861 0.99971 0.0
C944 C 0.92099 0.42307 0.97515 0.0
C945 C 0.92618 0.41697 0.99802 0.0
H946 H 0.898 0.40739 0.94309 0.0
H947 H 0.93245 0.44381 0.96826 0.0
C948 C 0.91016 0.39 0.00677 0.0
C949 C 0.63643 0.55994 0.96142 0.0
C950 C 0.64716 0.54976 0.97859 0.0
H951 H 0.60275 0.56429 0.95017 0.0
C952 C 0.63114 0.53621 0.99858 0.0
H953 H 0.64786 0.57 0.94557 0.0
C954 C 0.60488 0.53257 0.0011 0.0
C955 C 0.59415 0.54256 0.98375 0.0
H956 H 0.63887 0.52843 0.01233 0.0
H957 H 0.59293 0.52174 0.01652 0.0
C958 C 0.61038 0.55652 0.96402 0.0
C959 C 0.4978 0.10782 0.96699 0.0
C960 C 0.4938 0.12679 0.98025 0.0
H961 H 0.50079 0.07094 0.96766 0.0
C962 C 0.48913 0.12249 0.00466 0.0
H963 H 0.50145 0.11067 0.94811 0.0
C964 C 0.48862 0.10001 0.01568 0.0
C965 C 0.49285 0.08108 0.00268 0.0
H966 H 0.48551 0.13641 0.01532 0.0
H967 H 0.48494 0.0976 0.03458 0.0
C968 C 0.49756 0.08522 0.97817 0.0
C969 C 0.65267 0.0971 0.99839 0.0
C970 C 0.65043 0.12013 0.99194 0.0
H971 H 0.63168 0.0542 0.00711 0.0
C972 C 0.62453 0.11794 0.99235 0.0
H973 H 0.67229 0.09805 0.99816 0.0
C974 C 0.60121 0.0928 0.99775 0.0
C975 C 0.60333 0.06929 0.00249 0.0
H976 H 0.62222 0.13547 0.98779 0.0
H977 H 0.58142 0.0914 0.9967 0.0
C978 C 0.62938 0.07194 0.0035 0.0
C979 C 0.93889 0.57613 0.96833 0.0
C980 C 0.9124 0.55621 0.97524 0.0
H981 H 0.98071 0.58699 0.96539 0.0
C982 C 0.90842 0.53207 0.98654 0.0
H983 H 0.94259 0.59474 0.95924 0.0
C984 C 0.93049 0.52767 0.99022 0.0
C985 C 0.95671 0.54712 0.98223 0.0
H986 H 0.8882 0.5164 0.99206 0.0
H987 H 0.92681 0.50854 0.99828 0.0
C988 C 0.96073 0.57159 0.97169 0.0
C989 C 0.50677 0.3769 0.98786 0.0
C990 C 0.49872 0.37707 0.96434 0.0
H991 H 0.5143 0.39556 0.02204 0.0
C992 C 0.49497 0.39898 0.95683 0.0
H993 H 0.50954 0.36029 0.99445 0.0
C994 C 0.49727 0.41903 0.97289 0.0
C995 C 0.5038 0.41785 0.99663 0.0
H996 H 0.48915 0.40005 0.93876 0.0
H997 H 0.49212 0.4343 0.96712 0.0
C998 C 0.50932 0.39707 0.00378 0.0
C999 C 0.10142 0.60971 0.04765 0.0
C1000 C 0.12567 0.63245 0.03917 0.0
H1001 H 0.06404 0.57318 0.03872 0.0
C1002 C 0.13239 0.63307 0.01514 0.0
H1003 H 0.09574 0.60829 0.06611 0.0
C1004 C 0.1146 0.61242 0.99976 0.0
C1005 C 0.08962 0.59069 0.00798 0.0
H1006 H 0.15063 0.65032 0.00784 0.0
H1007 H 0.11984 0.61421 0.98116 0.0
C1008 C 0.08349 0.58918 0.03214 0.0
C1009 C 0.3757 0.46875 0.02384 0.0
C1010 C 0.35744 0.44535 0.03699 0.0
H1011 H 0.41602 0.49232 0.00921 0.0
C1012 C 0.36572 0.42656 0.04405 0.0
H1013 H 0.36983 0.48351 0.01804 0.0
C1014 C 0.39193 0.43158 0.03904 0.0
C1015 C 0.41059 0.45545 0.02676 0.0
H1016 H 0.35239 0.40855 0.05448 0.0
H1017 H 0.39786 0.41709 0.04551 0.0
C1018 C 0.40202 0.47367 0.01861 0.0
C1019 C 0.50185 0.87226 0.00764 0.0
C1020 C 0.50005 0.8697 0.0324 0.0
H1021 H 0.51006 0.89858 0.97766 0.0
C1022 C 0.50222 0.89186 0.04587 0.0
H1023 H 0.50066 0.85584 0.9967 0.0
C1024 C 0.50741 0.91649 0.03478 0.0
C1025 C 0.51088 0.91938 0.01015 0.0
H1026 H 0.50078 0.89046 0.06499 0.0
H1027 H 0.51052 0.93379 0.04552 0.0
C1028 C 0.50732 0.89681 0.9967 0.0
C1029 C 0.04796 0.23022 0.34837 0.0
C1030 C 0.03339 0.22647 0.36959 0.0
H1031 H 0.08417 0.25621 0.32828 0.0
C1032 C 0.04488 0.24704 0.38697 0.0
H1033 H 0.03962 0.21491 0.33449 0.0
C1034 C 0.07007 0.27066 0.3833 0.0
C1035 C 0.08475 0.27444 0.3622 0.0
H1036 H 0.03469 0.24471 0.40374 0.0
H1037 H 0.0782 0.28584 0.3973 0.0
C1038 C 0.07341 0.25395 0.34472 0.0
C1039 C 0.75825 0.79297 0.37984 0.0
C1040 C 0.77588 0.7971 0.3608 0.0
H1041 H 0.72328 0.79415 0.39231 0.0
C1042 C 0.77111 0.80619 0.339 0.0
H1043 H 0.76161 0.78661 0.39704 0.0
C1044 C 0.74911 0.81089 0.33633 0.0
C1045 C 0.7314 0.80647 0.35539 0.0
H1046 H 0.78417 0.80937 0.32392 0.0
H1047 H 0.74593 0.81786 0.31935 0.0
C1048 C 0.73628 0.79746 0.37715 0.0
C1049 C 0.14909 0.94579 0.35913 0.0
C1050 C 0.16366 0.9516 0.38051 0.0
H1051 H 0.1389 0.92373 0.32637 0.0
C1052 C 0.17571 0.93564 0.38671 0.0
H1053 H 0.13896 0.9571 0.35401 0.0
C1054 C 0.17503 0.91598 0.37103 0.0
C1055 C 0.1624 0.912 0.3489 0.0
H1056 H 0.1873 0.93961 0.40291 0.0
H1057 H 0.18627 0.90556 0.3754 0.0
C1058 C 0.14873 0.92643 0.3434 0.0
C1059 C 0.57504 0.73077 0.29473 0.0
C1060 C 0.55747 0.70576 0.30625 0.0
H1061 H 0.60808 0.7722 0.29843 0.0
C1062 C 0.55861 0.70454 0.33103 0.0
H1063 H 0.57479 0.73242 0.27564 0.0
C1064 C 0.57776 0.72724 0.34386 0.0
C1065 C 0.59626 0.75182 0.33228 0.0
H1066 H 0.545 0.68582 0.34053 0.0
H1067 H 0.57848 0.72516 0.36287 0.0
C1068 C 0.59421 0.75356 0.30768 0.0
C1069 C 0.30382 0.89756 0.29647 0.0
C1070 C 0.3137 0.88563 0.31279 0.0
H1071 H 0.27079 0.90334 0.2858 0.0
C1072 C 0.29695 0.87065 0.33199 0.0
H1073 H 0.31585 0.90882 0.28123 0.0
C1074 C 0.27077 0.86716 0.33447 0.0
C1075 C 0.2608 0.87875 0.31789 0.0
H1076 H 0.30403 0.86153 0.34512 0.0
H1077 H 0.25823 0.85511 0.34922 0.0
C1078 C 0.27781 0.89428 0.29905 0.0
C1079 C 0.14929 0.45304 0.33591 0.0
C1080 C 0.15816 0.4598 0.31243 0.0
H1081 H 0.1414 0.42606 0.36504 0.0
C1082 C 0.16541 0.44272 0.29984 0.0
H1083 H 0.14306 0.46545 0.34595 0.0
C1084 C 0.16454 0.41975 0.31093 0.0
C1085 C 0.15605 0.41339 0.33464 0.0
H1086 H 0.17227 0.44746 0.28166 0.0
H1087 H 0.17061 0.40713 0.30103 0.0
C1088 C 0.1482 0.43024 0.34681 0.0
C1089 C 0.31764 0.43055 0.33524 0.0
C1090 C 0.31584 0.4529 0.32598 0.0
H1091 H 0.29606 0.38852 0.34669 0.0
C1092 C 0.29 0.45062 0.32392 0.0
H1093 H 0.33722 0.4316 0.33696 0.0
C1094 C 0.26635 0.42598 0.32979 0.0
C1095 C 0.26813 0.40303 0.33748 0.0
H1096 H 0.28803 0.46765 0.31711 0.0
H1097 H 0.24667 0.42438 0.32688 0.0
C1098 C 0.29404 0.40586 0.34082 0.0
C1099 C 0.57654 0.86706 0.32013 0.0
C1100 C 0.57966 0.89168 0.31055 0.0
H1101 H 0.59622 0.84414 0.32991 0.0
C1102 C 0.60604 0.91321 0.30523 0.0
H1103 H 0.55646 0.85016 0.32448 0.0
C1104 C 0.62861 0.90975 0.3082 0.0
C1105 C 0.62544 0.88474 0.31672 0.0
H1106 H 0.60915 0.93229 0.2975 0.0
H1107 H 0.6485 0.9264 0.303 0.0
C1108 C 0.59929 0.86369 0.32337 0.0
C1109 C 0.17632 0.71283 0.3215 0.0
C1110 C 0.16807 0.71308 0.29807 0.0
H1111 H 0.18367 0.73105 0.35586 0.0
C1112 C 0.16387 0.73482 0.29088 0.0
H1113 H 0.17945 0.69635 0.32784 0.0
C1114 C 0.16588 0.75454 0.30718 0.0
C1115 C 0.17255 0.75322 0.33086 0.0
H1116 H 0.15792 0.73598 0.27288 0.0
H1117 H 0.1604 0.76964 0.30166 0.0
C1118 C 0.17856 0.73267 0.33766 0.0
C1119 C 0.8039 0.95799 0.35242 0.0
C1120 C 0.79453 0.96285 0.37393 0.0
H1121 H 0.79312 0.93615 0.31954 0.0
C1122 C 0.76693 0.94569 0.38017 0.0
H1123 H 0.82509 0.97041 0.34725 0.0
C1124 C 0.74876 0.92568 0.36441 0.0
C1125 C 0.75786 0.92242 0.34225 0.0
H1126 H 0.7589 0.94899 0.39645 0.0
H1127 H 0.72723 0.91445 0.36874 0.0
C1128 C 0.7857 0.93815 0.33667 0.0
C1129 C 0.03205 0.75875 0.37866 0.0
C1130 C 0.0235 0.7772 0.3712 0.0
H1131 H 0.06445 0.74968 0.3805 0.0
C1132 C 0.04157 0.80039 0.35774 0.0
H1133 H 0.01886 0.74091 0.38934 0.0
C1134 C 0.06796 0.80546 0.35261 0.0
C1135 C 0.0768 0.7876 0.36113 0.0
H1136 H 0.03551 0.81489 0.35161 0.0
H1137 H 0.08179 0.82397 0.34295 0.0
C1138 C 0.05832 0.7639 0.37373 0.0
C1139 C 0.17031 0.20643 0.3415 0.0
C1140 C 0.16668 0.20274 0.36609 0.0
H1141 H 0.17965 0.23375 0.31211 0.0
C1142 C 0.16687 0.22389 0.37973 0.0
H1143 H 0.17064 0.1908 0.33047 0.0
C1144 C 0.17179 0.24863 0.36902 0.0
C1145 C 0.17706 0.2527 0.34464 0.0
H1146 H 0.16397 0.22158 0.39872 0.0
H1147 H 0.17318 0.26512 0.37996 0.0
C1148 C 0.17556 0.2311 0.33096 0.0
C1149 C 0.71869 0.56245 0.68271 0.0
C1150 C 0.70392 0.55848 0.70385 0.0
H1151 H 0.75463 0.58915 0.66258 0.0
C1152 C 0.71482 0.57927 0.72108 0.0
H1153 H 0.71081 0.54696 0.66897 0.0
C1154 C 0.73957 0.60336 0.71731 0.0
C1155 C 0.7544 0.60743 0.69626 0.0
H1156 H 0.70447 0.57678 0.7378 0.0
H1157 H 0.74722 0.61872 0.73118 0.0
C1158 C 0.74371 0.58668 0.67897 0.0
C1159 C 0.42565 0.1298 0.71352 0.0
C1160 C 0.44343 0.13468 0.69445 0.0
H1161 H 0.39011 0.1296 0.72622 0.0
C1162 C 0.43855 0.14412 0.67287 0.0
H1163 H 0.42915 0.12324 0.73058 0.0
C1164 C 0.41609 0.14815 0.67041 0.0
C1165 C 0.39808 0.14268 0.68945 0.0
H1166 H 0.4518 0.14796 0.6578 0.0
H1167 H 0.41269 0.15526 0.65359 0.0
C1168 C 0.40326 0.1336 0.71103 0.0
C1169 C 0.83895 0.26726 0.72086 0.0
C1170 C 0.83643 0.28974 0.7128 0.0
H1171 H 0.84194 0.23182 0.71128 0.0
C1172 C 0.83107 0.29105 0.68867 0.0
H1173 H 0.84272 0.26533 0.73937 0.0
C1174 C 0.82982 0.27135 0.67286 0.0
C1175 C 0.83397 0.24988 0.68071 0.0
H1176 H 0.82935 0.30813 0.68168 0.0
H1177 H 0.82677 0.27364 0.65424 0.0
C1178 C 0.83794 0.24767 0.70492 0.0
C1179 C 0.23676 0.06934 0.6276 0.0
C1180 C 0.22232 0.04215 0.63629 0.0
H1181 H 0.26709 0.11132 0.63469 0.0
C1182 C 0.22735 0.03687 0.65951 0.0
H1183 H 0.2331 0.07413 0.60987 0.0
C1184 C 0.24689 0.05799 0.67345 0.0
C1185 C 0.26199 0.08502 0.66458 0.0
H1186 H 0.21693 0.01616 0.66667 0.0
H1187 H 0.25064 0.05286 0.69102 0.0
C1188 C 0.2563 0.0906 0.6417 0.0
C1189 C 0.96315 0.20215 0.66529 0.0
C1190 C 0.97884 0.21512 0.645 0.0
H1191 H 0.92525 0.18815 0.6836 0.0
C1192 C 0.96774 0.22466 0.62759 0.0
H1193 H 0.97117 0.19488 0.67922 0.0
C1194 C 0.9417 0.22123 0.63029 0.0
C1195 C 0.92584 0.2079 0.65037 0.0
H1196 H 0.9789 0.23426 0.61152 0.0
H1197 H 0.93378 0.22852 0.61629 0.0
C1198 C 0.93691 0.19849 0.66791 0.0
C1199 C 0.81076 0.78317 0.66697 0.0
C1200 C 0.82245 0.79173 0.64448 0.0
H1201 H 0.80116 0.7551 0.69555 0.0
C1202 C 0.83271 0.77655 0.63288 0.0
H1203 H 0.80219 0.79406 0.67617 0.0
C1204 C 0.83223 0.75385 0.64414 0.0
C1205 C 0.82119 0.7459 0.66703 0.0
H1206 H 0.84178 0.7827 0.61547 0.0
H1207 H 0.8408 0.74286 0.63512 0.0
C1208 C 0.8101 0.76064 0.67804 0.0
C1209 C 0.95701 0.78757 0.65642 0.0
C1210 C 0.98321 0.79071 0.65869 0.0
H1211 H 0.91384 0.76039 0.65953 0.0
C1212 C 0.98575 0.76902 0.66849 0.0
H1213 H 0.95445 0.80407 0.6492 0.0
C1214 C 0.96258 0.7441 0.67439 0.0
C1215 C 0.93634 0.74037 0.67085 0.0
H1216 H 0.0056 0.77073 0.67039 0.0
H1217 H 0.96519 0.72726 0.68068 0.0
C1218 C 0.93378 0.76269 0.66262 0.0
C1219 C 0.23774 0.19754 0.64926 0.0
C1220 C 0.24104 0.22412 0.65101 0.0
H1221 H 0.25718 0.17301 0.65111 0.0
C1222 C 0.26562 0.24544 0.66032 0.0
H1223 H 0.21918 0.18063 0.64209 0.0
C1224 C 0.2875 0.24118 0.66484 0.0
C1225 C 0.28493 0.2153 0.66098 0.0
H1226 H 0.2686 0.26595 0.66264 0.0
H1227 H 0.30692 0.25852 0.67007 0.0
C1228 C 0.2595 0.19313 0.6544 0.0
C1229 C 0.85119 0.05264 0.65049 0.0
C1230 C 0.83696 0.04765 0.62899 0.0
H1231 H 0.8616 0.07417 0.68351 0.0
C1232 C 0.82565 0.06432 0.62296 0.0
H1233 H 0.86069 0.0407 0.65549 0.0
C1234 C 0.82675 0.08397 0.63889 0.0
C1235 C 0.83911 0.08726 0.66106 0.0
H1236 H 0.81432 0.06094 0.60667 0.0
H1237 H 0.81601 0.09494 0.63465 0.0
C1238 C 0.85201 0.07204 0.66643 0.0
C1239 C 0.43717 0.27376 0.71843 0.0
C1240 C 0.4619 0.29621 0.71032 0.0
H1241 H 0.39798 0.24006 0.70873 0.0
C1242 C 0.46787 0.29808 0.68601 0.0
H1243 H 0.432 0.27133 0.73706 0.0
C1244 C 0.44872 0.27943 0.67008 0.0
C1245 C 0.42316 0.25852 0.67803 0.0
H1246 H 0.48644 0.31511 0.67895 0.0
H1247 H 0.45326 0.28249 0.65132 0.0
C1248 C 0.41788 0.2553 0.70237 0.0
C1249 C 0.70873 0.13648 0.69158 0.0
C1250 C 0.68951 0.11255 0.70359 0.0
H1251 H 0.74949 0.15968 0.67786 0.0
C1252 C 0.69649 0.0924 0.7093 0.0
H1253 H 0.70387 0.15228 0.68679 0.0
C1254 C 0.7224 0.09659 0.7042 0.0
C1255 C 0.74205 0.121 0.69318 0.0
H1256 H 0.68238 0.0739 0.71883 0.0
H1257 H 0.72734 0.08104 0.70969 0.0
C1258 C 0.73474 0.1406 0.68628 0.0
C1259 C 0.84153 0.54306 0.6759 0.0
C1260 C 0.83705 0.53902 0.7004 0.0
H1261 H 0.85173 0.57074 0.64669 0.0
C1262 C 0.8368 0.55997 0.71399 0.0
H1263 H 0.84222 0.52759 0.66493 0.0
C1264 C 0.84201 0.58484 0.70334 0.0
C1265 C 0.84804 0.58923 0.67908 0.0
H1266 H 0.83328 0.55738 0.7329 0.0
H1267 H 0.84293 0.60114 0.71425 0.0
C1268 C 0.84709 0.56786 0.66544 0.0
C1269 C 0.49514 0.95687 0.11353 0.0
C1270 C 0.50056 0.97336 0.13374 0.0
H1271 H 0.49785 0.95563 0.0759 0.0
C1272 C 0.51696 1.00208 0.13145 0.0
H1273 H 0.48292 0.93465 0.11481 0.0
C1274 C 0.52573 0.01415 0.10912 0.0
C1275 C 0.51839 0.99774 0.08867 0.0
H1276 H 0.52146 0.01535 0.14669 0.0
H1277 H 0.53674 0.03641 0.10776 0.0
C1278 C 0.50405 0.96892 0.09124 0.0
C1279 C 0.01737 0.52277 0.12606 0.0
C1280 C 0.04584 0.53438 0.12685 0.0
H1281 H 0.98185 0.50819 0.10426 0.0
C1282 C 0.06076 0.54317 0.10566 0.0
H1283 H 0.00541 0.51607 0.14218 0.0
C1284 C 0.04732 0.53842 0.08396 0.0
C1285 C 0.01868 0.52526 0.08298 0.0
H1286 H 0.08271 0.5519 0.10572 0.0
H1287 H 0.05932 0.54304 0.06799 0.0
C1288 C 1.00393 0.51844 0.10435 0.0
C1289 C 0.5101 0.51966 0.13044 0.0
C1290 C 0.49112 0.52892 0.13092 0.0
H1291 H 0.53289 0.50669 0.10908 0.0
C1292 C 0.48318 0.53557 0.10947 0.0
H1293 H 0.51685 0.51473 0.14674 0.0
C1294 C 0.49227 0.53087 0.08792 0.0
C1295 C 0.50984 0.51986 0.08736 0.0
H1296 H 0.46838 0.54248 0.10927 0.0
H1297 H 0.4836 0.53364 0.0718 0.0
C1298 C 0.51944 0.51527 0.10889 0.0
C1299 C 0.99372 0.49124 0.87564 0.0
C1300 C 0.96532 0.47372 0.87649 0.0
H1301 H 0.03094 0.51213 0.89513 0.0
C1302 C 0.95334 0.45996 0.89779 0.0
H1303 H 1.00364 0.50157 0.85933 0.0
C1304 C 0.96906 0.46591 0.91839 0.0
C1305 C 0.99696 0.48576 0.91808 0.0
H1306 H 0.93152 0.44616 0.89897 0.0
H1307 H 0.95895 0.45651 0.93482 0.0
C1308 C 0.00939 0.4971 0.89618 0.0
C1309 C 0.52191 0.46523 0.90104 0.0
C1310 C 0.51527 0.47309 0.87954 0.0
H1311 H 0.52 0.4658 0.93872 0.0
C1312 C 0.49686 0.48307 0.87973 0.0
H1313 H 0.53623 0.45771 0.90148 0.0
C1314 C 0.48693 0.48705 0.90113 0.0
C1315 C 0.4954 0.48138 0.9228 0.0
H1316 H 0.49108 0.48892 0.86337 0.0
H1317 H 0.47402 0.49626 0.90076 0.0
C1318 C 0.51225 0.46952 0.92246 0.0
C1319 C 0.52256 0.01925 0.88031 0.0
C1320 C 0.50747 0.03268 0.87689 0.0
H1321 H 0.53651 0.99968 0.90438 0.0
C1322 C 0.49353 0.03555 0.89639 0.0
H1323 H 0.534 0.01706 0.86594 0.0
C1324 C 0.49528 0.02579 0.91886 0.0
C1325 C 0.51096 0.01293 0.92223 0.0
H1326 H 0.48142 0.0455 0.89434 0.0
H1327 H 0.48491 0.02887 0.93363 0.0
C1328 C 0.52416 0.00941 0.90255 0.0
C1329 C 0.16444 0.29506 0.44944 0.0
C1330 C 0.16731 0.31208 0.46875 0.0
H1331 H 0.16853 0.29248 0.41204 0.0
C1332 C 0.18104 0.34075 0.46536 0.0
H1333 H 0.15395 0.27288 0.45149 0.0
C1334 C 0.18956 0.35202 0.44278 0.0
C1335 C 0.18438 0.33483 0.42306 0.0
H1336 H 0.18409 0.35443 0.48001 0.0
H1337 H 0.19857 0.37408 0.44058 0.0
C1338 C 0.1729 0.30633 0.42681 0.0
C1339 C 0.73025 0.882 0.43618 0.0
C1340 C 0.71522 0.87237 0.45726 0.0
H1341 H 0.72895 0.88321 0.39849 0.0
C1342 C 0.68674 0.86072 0.45645 0.0
H1343 H 0.75222 0.89093 0.43625 0.0
C1344 C 0.67338 0.8569 0.43478 0.0
C1345 C 0.68821 0.8643 0.41345 0.0
H1346 H 0.67471 0.85347 0.4725 0.0
H1347 H 0.65129 0.84649 0.43467 0.0
C1348 C 0.71687 0.87782 0.41449 0.0
C1349 C 0.1492 0.87226 0.4406 0.0
C1350 C 0.15704 0.8667 0.4626 0.0
H1351 H 0.15069 0.86951 0.40301 0.0
C1352 C 0.17646 0.85801 0.46319 0.0
H1353 H 0.13455 0.87935 0.43963 0.0
C1354 C 0.186 0.85266 0.44216 0.0
C1355 C 0.17648 0.85613 0.42015 0.0
H1356 H 0.18286 0.85351 0.47988 0.0
H1357 H 0.19947 0.84413 0.44317 0.0
C1358 C 0.15887 0.86709 0.41959 0.0
C1359 C 0.66124 0.826 0.20621 0.0
C1360 C 0.63273 0.80935 0.20735 0.0
H1361 H 0.69866 0.84719 0.22551 0.0
C1362 C 0.62055 0.79762 0.22918 0.0
H1363 H 0.67123 0.83492 0.18954 0.0
C1364 C 0.63626 0.80472 0.24982 0.0
C1365 C 0.66444 0.82343 0.24904 0.0
H1366 H 0.59861 0.78479 0.23065 0.0
H1367 H 0.62591 0.79759 0.26653 0.0
C1368 C 0.67695 0.83285 0.22682 0.0
C1369 C 0.1607 0.81523 0.21339 0.0
C1370 C 0.17972 0.80604 0.21275 0.0
H1371 H 0.13804 0.82812 0.235 0.0
C1372 C 0.18735 0.79879 0.23408 0.0
H1373 H 0.15412 0.82055 0.19719 0.0
C1374 C 0.17816 0.80315 0.25574 0.0
C1375 C 0.16088 0.81448 0.25647 0.0
H1376 H 0.20213 0.79186 0.23415 0.0
H1377 H 0.18673 0.8001 0.27181 0.0
C1378 C 0.1513 0.81932 0.23503 0.0
C1379 C 0.15884 0.36531 0.22924 0.0
C1380 C 0.17489 0.36434 0.21058 0.0
H1381 H 0.14836 0.35772 0.26612 0.0
C1382 C 0.19207 0.35344 0.21514 0.0
H1383 H 0.14513 0.37328 0.22629 0.0
C1384 C 0.19354 0.34418 0.23768 0.0
C1385 C 0.17812 0.34577 0.25651 0.0
H1386 H 0.20514 0.3528 0.20145 0.0
H1387 H 0.20747 0.33642 0.24041 0.0
C1388 C 0.16047 0.35615 0.25201 0.0
C1389 C 0.83453 0.63231 0.78387 0.0
C1390 C 0.83693 0.64943 0.80296 0.0
H1391 H 0.83871 0.62933 0.74652 0.0
C1392 C 0.84993 0.67803 0.79922 0.0
H1393 H 0.8246 0.61019 0.78616 0.0
C1394 C 0.85814 0.68903 0.77652 0.0
C1395 C 0.8534 0.67166 0.75702 0.0
H1396 H 0.85261 0.69181 0.81369 0.0
H1397 H 0.86656 0.71099 0.77406 0.0
C1398 C 0.8427 0.64332 0.76111 0.0
C1399 C 0.3473 0.18709 0.79441 0.0
C1400 C 0.37573 0.1986 0.79575 0.0
H1401 H 0.31249 0.17384 0.77189 0.0
C1402 C 0.39128 0.20811 0.77495 0.0
H1403 H 0.33488 0.17973 0.81024 0.0
C1404 C 0.37852 0.20438 0.75304 0.0
C1405 C 0.34996 0.19169 0.75144 0.0
H1406 H 0.41321 0.2167 0.77544 0.0
H1407 H 0.391 0.20945 0.73734 0.0
C1408 C 0.33454 0.18388 0.77247 0.0
C1409 C 0.84314 0.18408 0.7984 0.0
C1410 C 0.8253 0.19474 0.79915 0.0
H1411 H 0.86409 0.16927 0.77667 0.0
C1412 C 0.81788 0.20222 0.77784 0.0
H1413 H 0.8495 0.1785 0.81458 0.0
C1414 C 0.82618 0.19689 0.75614 0.0
C1415 C 0.84242 0.18438 0.75532 0.0
H1416 H 0.80393 0.2102 0.77783 0.0
H1417 H 0.81774 0.20023 0.74014 0.0
C1418 C 0.85167 0.17903 0.7767 0.0
C1419 C 0.28724 0.13231 0.56389 0.0
C1420 C 0.29874 0.14657 0.54264 0.0
H1421 H 0.29245 0.13035 0.60124 0.0
C1422 C 0.32654 0.1667 0.54235 0.0
H1423 H 0.26591 0.1166 0.56471 0.0
C1424 C 0.34164 0.17457 0.56328 0.0
C1425 C 0.32932 0.16243 0.585 0.0
H1426 H 0.33622 0.17752 0.52614 0.0
H1427 H 0.36245 0.19154 0.56268 0.0
C1428 C 0.30246 0.14014 0.58487 0.0
C1429 C 0.84947 0.12951 0.56769 0.0
C1430 C 0.84334 0.13858 0.54656 0.0
H1431 H 0.8476 0.12893 0.60547 0.0
C1432 C 0.8258 0.14957 0.54742 0.0
H1433 H 0.86302 0.12105 0.56761 0.0
C1434 C 0.81651 0.15363 0.56912 0.0
C1435 C 0.82476 0.14698 0.59045 0.0
H1436 H 0.8203 0.15625 0.53136 0.0
H1437 H 0.80441 0.16372 0.56925 0.0
C1438 C 0.84037 0.13379 0.58944 0.0
C1439 C 0.86034 0.68772 0.54892 0.0
C1440 C 0.84243 0.69774 0.54433 0.0
H1441 H 0.87675 0.67178 0.57427 0.0
C1442 C 0.82607 0.69814 0.56297 0.0
H1443 H 0.87364 0.68754 0.53523 0.0
C1444 C 0.82814 0.68935 0.58577 0.0
C1445 C 0.84655 0.67992 0.59033 0.0
H1446 H 0.81179 0.7054 0.56001 0.0
H1447 H 0.81578 0.6905 0.59987 0.0
C1448 C 0.86226 0.67883 0.5715 0.0
loop_
_geom_bond_atom_site_label_1
_geom_bond_atom_site_label_2
_geom_bond_distance
_geom_bond_site_symmetry_2
_ccdc_geom_bond_type
C0 C1 1.264 . S
C0 C5 1.479 . S
C0 C10 1.465 . S
C1 C0 1.264 . S
C1 C3 1.339 . S
C1 H28 0.931 . S
C2 C3 1.395 . S
C2 C4 1.320 . S
C3 C1 1.339 . S
C3 C2 1.395 . S
C3 H29 0.929 . S
C4 C2 1.320 . S
C4 C5 1.405 . S
C4 H30 0.930 . S
C5 C0 1.479 . S
C5 C4 1.405 . S
C5 H31 0.931 . S
U6 O7 2.454 . S
U6 O8 2.458 . S
U6 C9 2.984 . S
U6 C10 2.847 . S
U6 C23 2.882 . S
U6 O24 2.441 . S
U6 O25 2.420 . S
U6 O26 2.455 . S
U6 O27 2.449 . S
O7 U6 2.454 . S
O7 C9 1.353 . S
O8 U6 2.458 . S
O8 C9 1.286 . S
C9 U6 2.984 . S
C9 O7 1.353 . S
C9 O8 1.286 . S
C9 C11 1.363 . S
C10 C0 1.465 . S
C10 U6 2.847 . S
C10 O24 1.249 . S
C10 O25 1.202 . S
C11 C9 1.363 . S
C11 C13 1.408 . S
C11 C16 1.342 . S
C12 C13 1.310 . S
C12 C15 1.461 . S
C12 H32 0.932 . S
C13 C11 1.408 . S
C13 C12 1.310 . S
C13 H33 0.930 . S
C14 C15 1.474 . S
C14 C16 1.285 . S
C14 H34 0.929 . S
C15 C12 1.461 . S
C15 C14 1.474 . S
C16 C11 1.342 . S
C16 C14 1.285 . S
C16 H35 0.930 . S
C17 C20 1.424 . S
C17 C22 1.245 . S
C17 C23 1.428 . S
C18 C21 1.260 . S
C18 C22 1.477 . S
C18 H36 0.932 . S
C19 C20 1.384 . S
C19 C21 1.479 . S
C19 H37 0.929 . S
C20 C17 1.424 . S
C20 C19 1.384 . S
C20 H38 0.928 . S
C21 C18 1.260 . S
C21 C19 1.479 . S
C22 C17 1.245 . S
C22 C18 1.477 . S
C22 H39 0.932 . S
C23 U6 2.882 . S
C23 C17 1.428 . S
C23 O26 1.301 . S
C23 O27 1.282 . S
O24 U6 2.441 . S
O24 C10 1.249 . S
O25 U6 2.420 . S
O25 C10 1.202 . S
O26 U6 2.455 . S
O26 C23 1.301 . S
O27 U6 2.449 . S
O27 C23 1.282 . S
H28 C1 0.931 . S
H29 C3 0.929 . S
H30 C4 0.930 . S
H31 C5 0.931 . S
H32 C12 0.932 . S
H33 C13 0.930 . S
H34 C14 0.929 . S
H35 C16 0.930 . S
H36 C18 0.932 . S
H37 C19 0.929 . S
H38 C20 0.928 . S
H39 C22 0.932 . S
C40 C41 1.264 . S
C40 C45 1.479 . S
C40 C50 1.465 . S
C41 C40 1.264 . S
C41 C43 1.339 . S
C41 H68 0.931 . S
C42 C43 1.395 . S
C42 C44 1.320 . S
C43 C41 1.339 . S
C43 C42 1.395 . S
C43 H69 0.929 . S
C44 C42 1.320 . S
C44 C45 1.405 . S
C44 H70 0.930 . S
C45 C40 1.479 . S
C45 C44 1.405 . S
C45 H71 0.931 . S
U46 O47 2.454 . S
U46 O48 2.458 . S
U46 C49 2.984 . S
U46 C50 2.847 . S
U46 C63 2.882 . S
U46 O64 2.441 . S
U46 O65 2.420 . S
U46 O66 2.455 . S
U46 O67 2.449 . S
O47 U46 2.454 . S
O47 C49 1.353 . S
O48 U46 2.458 . S
O48 C49 1.286 . S
C49 U46 2.984 . S
C49 O47 1.353 . S
C49 O48 1.286 . S
C49 C51 1.363 . S
C50 C40 1.465 . S
C50 U46 2.847 . S
C50 O64 1.249 . S
C50 O65 1.202 . S
C51 C49 1.363 . S
C51 C53 1.408 . S
C51 C56 1.342 . S
C52 C53 1.310 . S
C52 C55 1.461 . S
C52 H72 0.932 . S
C53 C51 1.408 . S
C53 C52 1.310 . S
C53 H73 0.930 . S
C54 C55 1.474 . S
C54 C56 1.285 . S
C54 H74 0.929 . S
C55 C52 1.461 . S
C55 C54 1.474 . S
C56 C51 1.342 . S
C56 C54 1.285 . S
C56 H75 0.930 . S
C57 C60 1.424 . S
C57 C62 1.245 . S
C57 C63 1.428 . S
C58 C61 1.260 . S
C58 C62 1.477 . S
C58 H76 0.932 . S
C59 C60 1.384 . S
C59 C61 1.479 . S
C59 H77 0.929 . S
C60 C57 1.424 . S
C60 C59 1.384 . S
C60 H78 0.928 . S
C61 C58 1.260 . S
C61 C59 1.479 . S
C62 C57 1.245 . S
C62 C58 1.477 . S
C62 H79 0.932 . S
C63 U46 2.882 . S
C63 C57 1.428 . S
C63 O66 1.301 . S
C63 O67 1.282 . S
O64 U46 2.441 . S
O64 C50 1.249 . S
O65 U46 2.420 . S
O65 C50 1.202 . S
O66 U46 2.455 . S
O66 C63 1.301 . S
O67 U46 2.449 . S
O67 C63 1.282 . S
H68 C41 0.931 . S
H69 C43 0.929 . S
H70 C44 0.930 . S
H71 C45 0.931 . S
H72 C52 0.932 . S
H73 C53 0.930 . S
H74 C54 0.929 . S
H75 C56 0.930 . S
H76 C58 0.932 . S
H77 C59 0.929 . S
H78 C60 0.928 . S
H79 C62 0.932 . S
C80 C81 1.264 . S
C80 C85 1.479 . S
C80 C90 1.465 . S
C81 C80 1.264 . S
C81 C83 1.339 . S
C81 H108 0.931 . S
C82 C83 1.395 . S
C82 C84 1.320 . S
C83 C81 1.339 . S
C83 C82 1.395 . S
C83 H109 0.929 . S
C84 C82 1.320 . S
C84 C85 1.405 . S
C84 H110 0.930 . S
C85 C80 1.479 . S
C85 C84 1.405 . S
C85 H111 0.931 . S
U86 O87 2.454 . S
U86 O88 2.458 . S
U86 C89 2.984 . S
U86 C90 2.847 . S
U86 C103 2.882 . S
U86 O104 2.441 . S
U86 O105 2.420 . S
U86 O106 2.455 . S
U86 O107 2.449 . S
O87 U86 2.454 . S
O87 C89 1.353 . S
O88 U86 2.458 . S
O88 C89 1.286 . S
C89 U86 2.984 . S
C89 O87 1.353 . S
C89 O88 1.286 . S
C89 C91 1.363 . S
C90 C80 1.465 . S
C90 U86 2.847 . S
C90 O104 1.249 . S
C90 O105 1.202 . S
C91 C89 1.363 . S
C91 C93 1.408 . S
C91 C96 1.342 . S
C92 C93 1.310 . S
C92 C95 1.461 . S
C92 H112 0.932 . S
C93 C91 1.408 . S
C93 C92 1.310 . S
C93 H113 0.930 . S
C94 C95 1.474 . S
C94 C96 1.285 . S
C94 H114 0.929 . S
C95 C92 1.461 . S
C95 C94 1.474 . S
C96 C91 1.342 . S
C96 C94 1.285 . S
C96 H115 0.930 . S
C97 C100 1.424 . S
C97 C102 1.245 . S
C97 C103 1.428 . S
C98 C101 1.260 . S
C98 C102 1.477 . S
C98 H116 0.932 . S
C99 C100 1.384 . S
C99 C101 1.479 . S
C99 H117 0.929 . S
C100 C97 1.424 . S
C100 C99 1.384 . S
C100 H118 0.928 . S
C101 C98 1.260 . S
C101 C99 1.479 . S
C102 C97 1.245 . S
C102 C98 1.477 . S
C102 H119 0.932 . S
C103 U86 2.882 . S
C103 C97 1.428 . S
C103 O106 1.301 . S
C103 O107 1.282 . S
O104 U86 2.441 . S
O104 C90 1.249 . S
O105 U86 2.420 . S
O105 C90 1.202 . S
O106 U86 2.455 . S
O106 C103 1.301 . S
O107 U86 2.449 . S
O107 C103 1.282 . S
H108 C81 0.931 . S
H109 C83 0.929 . S
H110 C84 0.930 . S
H111 C85 0.931 . S
H112 C92 0.932 . S
H113 C93 0.930 . S
H114 C94 0.929 . S
H115 C96 0.930 . S
H116 C98 0.932 . S
H117 C99 0.929 . S
H118 C100 0.928 . S
H119 C102 0.932 . S
C120 C121 1.264 . S
C120 C125 1.479 . S
C120 C130 1.465 . S
C121 C120 1.264 . S
C121 C123 1.339 . S
C121 H148 0.931 . S
C122 C123 1.395 . S
C122 C124 1.320 . S
C123 C121 1.339 . S
C123 C122 1.395 . S
C123 H149 0.929 . S
C124 C122 1.320 . S
C124 C125 1.405 . S
C124 H150 0.930 . S
C125 C120 1.479 . S
C125 C124 1.405 . S
C125 H151 0.931 . S
U126 O127 2.454 . S
U126 O128 2.458 . S
U126 C129 2.984 . S
U126 C130 2.847 . S
U126 C143 2.882 . S
U126 O144 2.441 . S
U126 O145 2.420 . S
U126 O146 2.455 . S
U126 O147 2.449 . S
O127 U126 2.454 . S
O127 C129 1.353 . S
O128 U126 2.458 . S
O128 C129 1.286 . S
C129 U126 2.984 . S
C129 O127 1.353 . S
C129 O128 1.286 . S
C129 C131 1.363 . S
C130 C120 1.465 . S
C130 U126 2.847 . S
C130 O144 1.249 . S
C130 O145 1.202 . S
C131 C129 1.363 . S
C131 C133 1.408 . S
C131 C136 1.342 . S
C132 C133 1.310 . S
C132 C135 1.461 . S
C132 H152 0.932 . S
C133 C131 1.408 . S
C133 C132 1.310 . S
C133 H153 0.930 . S
C134 C135 1.474 . S
C134 C136 1.285 . S
C134 H154 0.929 . S
C135 C132 1.461 . S
C135 C134 1.474 . S
C136 C131 1.342 . S
C136 C134 1.285 . S
C136 H155 0.930 . S
C137 C140 1.424 . S
C137 C142 1.245 . S
C137 C143 1.428 . S
C138 C141 1.260 . S
C138 C142 1.477 . S
C138 H156 0.932 . S
C139 C140 1.384 . S
C139 C141 1.479 . S
C139 H157 0.929 . S
C140 C137 1.424 . S
C140 C139 1.384 . S
C140 H158 0.928 . S
C141 C138 1.260 . S
C141 C139 1.479 . S
C142 C137 1.245 . S
C142 C138 1.477 . S
C142 H159 0.932 . S
C143 U126 2.882 . S
C143 C137 1.428 . S
C143 O146 1.301 . S
C143 O147 1.282 . S
O144 U126 2.441 . S
O144 C130 1.249 . S
O145 U126 2.420 . S
O145 C130 1.202 . S
O146 U126 2.455 . S
O146 C143 1.301 . S
O147 U126 2.449 . S
O147 C143 1.282 . S
H148 C121 0.931 . S
H149 C123 0.929 . S
H150 C124 0.930 . S
H151 C125 0.931 . S
H152 C132 0.932 . S
H153 C133 0.930 . S
H154 C134 0.929 . S
H155 C136 0.930 . S
H156 C138 0.932 . S
H157 C139 0.929 . S
H158 C140 0.928 . S
H159 C142 0.932 . S
C160 C161 1.264 . S
C160 C165 1.479 . S
C160 C170 1.465 . S
C161 C160 1.264 . S
C161 C163 1.339 . S
C161 H188 0.931 . S
C162 C163 1.395 . S
C162 C164 1.320 . S
C163 C161 1.339 . S
C163 C162 1.395 . S
C163 H189 0.929 . S
C164 C162 1.320 . S
C164 C165 1.405 . S
C164 H190 0.930 . S
C165 C160 1.479 . S
C165 C164 1.405 . S
C165 H191 0.931 . S
U166 O167 2.454 . S
U166 O168 2.458 . S
U166 C169 2.984 . S
U166 C170 2.847 . S
U166 C183 2.882 . S
U166 O184 2.441 . S
U166 O185 2.420 . S
U166 O186 2.455 . S
U166 O187 2.449 . S
O167 U166 2.454 . S
O167 C169 1.353 . S
O168 U166 2.458 . S
O168 C169 1.286 . S
C169 U166 2.984 . S
C169 O167 1.353 . S
C169 O168 1.286 . S
C169 C171 1.363 . S
C170 C160 1.465 . S
C170 U166 2.847 . S
C170 O184 1.249 . S
C170 O185 1.202 . S
C171 C169 1.363 . S
C171 C173 1.408 . S
C171 C176 1.342 . S
C172 C173 1.310 . S
C172 C175 1.461 . S
C172 H192 0.932 . S
C173 C171 1.408 . S
C173 C172 1.310 . S
C173 H193 0.930 . S
C174 C175 1.474 . S
C174 C176 1.285 . S
C174 H194 0.929 . S
C175 C172 1.461 . S
C175 C174 1.474 . S
C176 C171 1.342 . S
C176 C174 1.285 . S
C176 H195 0.930 . S
C177 C180 1.424 . S
C177 C182 1.245 . S
C177 C183 1.428 . S
C178 C181 1.260 . S
C178 C182 1.477 . S
C178 H196 0.932 . S
C179 C180 1.384 . S
C179 C181 1.479 . S
C179 H197 0.929 . S
C180 C177 1.424 . S
C180 C179 1.384 . S
C180 H198 0.928 . S
C181 C178 1.260 . S
C181 C179 1.479 . S
C182 C177 1.245 . S
C182 C178 1.477 . S
C182 H199 0.932 . S
C183 U166 2.882 . S
C183 C177 1.428 . S
C183 O186 1.301 . S
C183 O187 1.282 . S
O184 U166 2.441 . S
O184 C170 1.249 . S
O185 U166 2.420 . S
O185 C170 1.202 . S
O186 U166 2.455 . S
O186 C183 1.301 . S
O187 U166 2.449 . S
O187 C183 1.282 . S
H188 C161 0.931 . S
H189 C163 0.929 . S
H190 C164 0.930 . S
H191 C165 0.931 . S
H192 C172 0.932 . S
H193 C173 0.930 . S
H194 C174 0.929 . S
H195 C176 0.930 . S
H196 C178 0.932 . S
H197 C179 0.929 . S
H198 C180 0.928 . S
H199 C182 0.932 . S
C200 C201 1.264 . S
C200 C205 1.479 . S
C200 C210 1.465 . S
C201 C200 1.264 . S
C201 C203 1.339 . S
C201 H228 0.931 . S
C202 C203 1.395 . S
C202 C204 1.320 . S
C203 C201 1.339 . S
C203 C202 1.395 . S
C203 H229 0.929 . S
C204 C202 1.320 . S
C204 C205 1.405 . S
C204 H230 0.930 . S
C205 C200 1.479 . S
C205 C204 1.405 . S
C205 H231 0.931 . S
U206 O207 2.454 . S
U206 O208 2.458 . S
U206 C209 2.984 . S
U206 C210 2.847 . S
U206 C223 2.882 . S
U206 O224 2.441 . S
U206 O225 2.420 . S
U206 O226 2.455 . S
U206 O227 2.449 . S
O207 U206 2.454 . S
O207 C209 1.353 . S
O208 U206 2.458 . S
O208 C209 1.286 . S
C209 U206 2.984 . S
C209 O207 1.353 . S
C209 O208 1.286 . S
C209 C211 1.363 . S
C210 C200 1.465 . S
C210 U206 2.847 . S
C210 O224 1.249 . S
C210 O225 1.202 . S
C211 C209 1.363 . S
C211 C213 1.408 . S
C211 C216 1.342 . S
C212 C213 1.310 . S
C212 C215 1.461 . S
C212 H232 0.932 . S
C213 C211 1.408 . S
C213 C212 1.310 . S
C213 H233 0.930 . S
C214 C215 1.474 . S
C214 C216 1.285 . S
C214 H234 0.929 . S
C215 C212 1.461 . S
C215 C214 1.474 . S
C216 C211 1.342 . S
C216 C214 1.285 . S
C216 H235 0.930 . S
C217 C220 1.424 . S
C217 C222 1.245 . S
C217 C223 1.428 . S
C218 C221 1.260 . S
C218 C222 1.477 . S
C218 H236 0.932 . S
C219 C220 1.384 . S
C219 C221 1.479 . S
C219 H237 0.929 . S
C220 C217 1.424 . S
C220 C219 1.384 . S
C220 H238 0.928 . S
C221 C218 1.260 . S
C221 C219 1.479 . S
C222 C217 1.245 . S
C222 C218 1.477 . S
C222 H239 0.932 . S
C223 U206 2.882 . S
C223 C217 1.428 . S
C223 O226 1.301 . S
C223 O227 1.282 . S
O224 U206 2.441 . S
O224 C210 1.249 . S
O225 U206 2.420 . S
O225 C210 1.202 . S
O226 U206 2.455 . S
O226 C223 1.301 . S
O227 U206 2.449 . S
O227 C223 1.282 . S
H228 C201 0.931 . S
H229 C203 0.929 . S
H230 C204 0.930 . S
H231 C205 0.931 . S
H232 C212 0.932 . S
H233 C213 0.930 . S
H234 C214 0.929 . S
H235 C216 0.930 . S
H236 C218 0.932 . S
H237 C219 0.929 . S
H238 C220 0.928 . S
H239 C222 0.932 . S
C240 C241 1.264 . S
C240 C245 1.479 . S
C240 C250 1.465 . S
C241 C240 1.264 . S
C241 C243 1.339 . S
C241 H268 0.931 . S
C242 C243 1.395 . S
C242 C244 1.320 . S
C243 C241 1.339 . S
C243 C242 1.395 . S
C243 H269 0.929 . S
C244 C242 1.320 . S
C244 C245 1.405 . S
C244 H270 0.930 . S
C245 C240 1.479 . S
C245 C244 1.405 . S
C245 H271 0.931 . S
U246 O247 2.454 . S
U246 O248 2.458 . S
U246 C249 2.984 . S
U246 C250 2.847 . S
U246 C263 2.882 . S
U246 O264 2.441 . S
U246 O265 2.420 . S
U246 O266 2.455 . S
U246 O267 2.449 . S
O247 U246 2.454 . S
O247 C249 1.353 . S
O248 U246 2.458 . S
O248 C249 1.286 . S
C249 U246 2.984 . S
C249 O247 1.353 . S
C249 O248 1.286 . S
C249 C251 1.363 . S
C250 C240 1.465 . S
C250 U246 2.847 . S
C250 O264 1.249 . S
C250 O265 1.202 . S
C251 C249 1.363 . S
C251 C253 1.408 . S
C251 C256 1.342 . S
C252 C253 1.310 . S
C252 C255 1.461 . S
C252 H272 0.932 . S
C253 C251 1.408 . S
C253 C252 1.310 . S
C253 H273 0.930 . S
C254 C255 1.474 . S
C254 C256 1.285 . S
C254 H274 0.929 . S
C255 C252 1.461 . S
C255 C254 1.474 . S
C256 C251 1.342 . S
C256 C254 1.285 . S
C256 H275 0.930 . S
C257 C260 1.424 . S
C257 C262 1.245 . S
C257 C263 1.428 . S
C258 C261 1.260 . S
C258 C262 1.477 . S
C258 H276 0.932 . S
C259 C260 1.384 . S
C259 C261 1.479 . S
C259 H277 0.929 . S
C260 C257 1.424 . S
C260 C259 1.384 . S
C260 H278 0.928 . S
C261 C258 1.260 . S
C261 C259 1.479 . S
C262 C257 1.245 . S
C262 C258 1.477 . S
C262 H279 0.932 . S
C263 U246 2.882 . S
C263 C257 1.428 . S
C263 O266 1.301 . S
C263 O267 1.282 . S
O264 U246 2.441 . S
O264 C250 1.249 . S
O265 U246 2.420 . S
O265 C250 1.202 . S
O266 U246 2.455 . S
O266 C263 1.301 . S
O267 U246 2.449 . S
O267 C263 1.282 . S
H268 C241 0.931 . S
H269 C243 0.929 . S
H270 C244 0.930 . S
H271 C245 0.931 . S
H272 C252 0.932 . S
H273 C253 0.930 . S
H274 C254 0.929 . S
H275 C256 0.930 . S
H276 C258 0.932 . S
H277 C259 0.929 . S
H278 C260 0.928 . S
H279 C262 0.932 . S
C280 C281 1.264 . S
C280 C285 1.479 . S
C280 C290 1.465 . S
C281 C280 1.264 . S
C281 C283 1.339 . S
C281 H308 0.931 . S
C282 C283 1.395 . S
C282 C284 1.320 . S
C283 C281 1.339 . S
C283 C282 1.395 . S
C283 H309 0.929 . S
C284 C282 1.320 . S
C284 C285 1.405 . S
C284 H310 0.930 . S
C285 C280 1.479 . S
C285 C284 1.405 . S
C285 H311 0.931 . S
U286 O287 2.454 . S
U286 O288 2.458 . S
U286 C289 2.984 . S
U286 C290 2.847 . S
U286 C303 2.882 . S
U286 O304 2.441 . S
U286 O305 2.420 . S
U286 O306 2.455 . S
U286 O307 2.449 . S
O287 U286 2.454 . S
O287 C289 1.353 . S
O288 U286 2.458 . S
O288 C289 1.286 . S
C289 U286 2.984 . S
C289 O287 1.353 . S
C289 O288 1.286 . S
C289 C291 1.363 . S
C290 C280 1.465 . S
C290 U286 2.847 . S
C290 O304 1.249 . S
C290 O305 1.202 . S
C291 C289 1.363 . S
C291 C293 1.408 . S
C291 C296 1.342 . S
C292 C293 1.310 . S
C292 C295 1.461 . S
C292 H312 0.932 . S
C293 C291 1.408 . S
C293 C292 1.310 . S
C293 H313 0.930 . S
C294 C295 1.474 . S
C294 C296 1.285 . S
C294 H314 0.929 . S
C295 C292 1.461 . S
C295 C294 1.474 . S
C296 C291 1.342 . S
C296 C294 1.285 . S
C296 H315 0.930 . S
C297 C300 1.424 . S
C297 C302 1.245 . S
C297 C303 1.428 . S
C298 C301 1.260 . S
C298 C302 1.477 . S
C298 H316 0.932 . S
C299 C300 1.384 . S
C299 C301 1.479 . S
C299 H317 0.929 . S
C300 C297 1.424 . S
C300 C299 1.384 . S
C300 H318 0.928 . S
C301 C298 1.260 . S
C301 C299 1.479 . S
C302 C297 1.245 . S
C302 C298 1.477 . S
C302 H319 0.932 . S
C303 U286 2.882 . S
C303 C297 1.428 . S
C303 O306 1.301 . S
C303 O307 1.282 . S
O304 U286 2.441 . S
O304 C290 1.249 . S
O305 U286 2.420 . S
O305 C290 1.202 . S
O306 U286 2.455 . S
O306 C303 1.301 . S
O307 U286 2.449 . S
O307 C303 1.282 . S
H308 C281 0.931 . S
H309 C283 0.929 . S
H310 C284 0.930 . S
H311 C285 0.931 . S
H312 C292 0.932 . S
H313 C293 0.930 . S
H314 C294 0.929 . S
H315 C296 0.930 . S
H316 C298 0.932 . S
H317 C299 0.929 . S
H318 C300 0.928 . S
H319 C302 0.932 . S
C320 C321 1.264 . S
C320 C325 1.479 . S
C320 C330 1.465 . S
C321 C320 1.264 . S
C321 C323 1.339 . S
C321 H348 0.931 . S
C322 C323 1.395 . S
C322 C324 1.320 . S
C323 C321 1.339 . S
C323 C322 1.395 . S
C323 H349 0.929 . S
C324 C322 1.320 . S
C324 C325 1.405 . S
C324 H350 0.930 . S
C325 C320 1.479 . S
C325 C324 1.405 . S
C325 H351 0.931 . S
U326 O327 2.454 . S
U326 O328 2.458 . S
U326 C329 2.984 . S
U326 C330 2.847 . S
U326 C343 2.882 . S
U326 O344 2.441 . S
U326 O345 2.420 . S
U326 O346 2.455 . S
U326 O347 2.449 . S
O327 U326 2.454 . S
O327 C329 1.353 . S
O328 U326 2.458 . S
O328 C329 1.286 . S
C329 U326 2.984 . S
C329 O327 1.353 . S
C329 O328 1.286 . S
C329 C331 1.363 . S
C330 C320 1.465 . S
C330 U326 2.847 . S
C330 O344 1.249 . S
C330 O345 1.202 . S
C331 C329 1.363 . S
C331 C333 1.408 . S
C331 C336 1.342 . S
C332 C333 1.310 . S
C332 C335 1.461 . S
C332 H352 0.932 . S
C333 C331 1.408 . S
C333 C332 1.310 . S
C333 H353 0.930 . S
C334 C335 1.474 . S
C334 C336 1.285 . S
C334 H354 0.929 . S
C335 C332 1.461 . S
C335 C334 1.474 . S
C336 C331 1.342 . S
C336 C334 1.285 . S
C336 H355 0.930 . S
C337 C340 1.424 . S
C337 C342 1.245 . S
C337 C343 1.428 . S
C338 C341 1.260 . S
C338 C342 1.477 . S
C338 H356 0.932 . S
C339 C340 1.384 . S
C339 C341 1.479 . S
C339 H357 0.929 . S
C340 C337 1.424 . S
C340 C339 1.384 . S
C340 H358 0.928 . S
C341 C338 1.260 . S
C341 C339 1.479 . S
C342 C337 1.245 . S
C342 C338 1.477 . S
C342 H359 0.932 . S
C343 U326 2.882 . S
C343 C337 1.428 . S
C343 O346 1.301 . S
C343 O347 1.282 . S
O344 U326 2.441 . S
O344 C330 1.249 . S
O345 U326 2.420 . S
O345 C330 1.202 . S
O346 U326 2.455 . S
O346 C343 1.301 . S
O347 U326 2.449 . S
O347 C343 1.282 . S
H348 C321 0.931 . S
H349 C323 0.929 . S
H350 C324 0.930 . S
H351 C325 0.931 . S
H352 C332 0.932 . S
H353 C333 0.930 . S
H354 C334 0.929 . S
H355 C336 0.930 . S
H356 C338 0.932 . S
H357 C339 0.929 . S
H358 C340 0.928 . S
H359 C342 0.932 . S
C360 C361 1.264 . S
C360 C365 1.487 . S
C360 C370 1.465 . S
C361 C360 1.264 . S
C361 C363 1.339 . S
C361 H388 0.931 . S
C362 C363 1.395 . S
C362 C364 1.320 1_556 S
C363 C361 1.339 . S
C363 C362 1.395 . S
C363 H389 0.929 . S
C364 C362 1.320 1_554 S
C364 C365 1.402 1_554 S
C364 H390 0.930 . S
C365 C360 1.487 . S
C365 C364 1.402 1_556 S
C365 H391 0.926 1_556 S
U366 O367 2.454 . S
U366 O368 2.458 . S
U366 C369 2.984 . S
U366 C370 2.847 . S
U366 C383 2.882 . S
U366 O384 2.441 . S
U366 O385 2.420 . S
U366 O386 2.455 . S
U366 O387 2.449 . S
O367 U366 2.454 . S
O367 C369 1.353 . S
O368 U366 2.458 . S
O368 C369 1.286 . S
C369 U366 2.984 . S
C369 O367 1.353 . S
C369 O368 1.286 . S
C369 C371 1.363 . S
C370 C360 1.465 . S
C370 U366 2.847 . S
C370 O384 1.249 . S
C370 O385 1.202 . S
C371 C369 1.363 . S
C371 C373 1.408 . S
C371 C376 1.342 . S
C372 C373 1.310 1_554 S
C372 C375 1.461 1_554 S
C372 H392 0.932 . S
C373 C371 1.408 . S
C373 C372 1.310 1_556 S
C373 H393 0.930 1_556 S
C374 C375 1.474 . S
C374 C376 1.285 . S
C374 H394 0.929 . S
C375 C372 1.461 1_556 S
C375 C374 1.474 . S
C376 C371 1.342 . S
C376 C374 1.285 . S
C376 H395 0.930 . S
C377 C380 1.424 . S
C377 C382 1.245 . S
C377 C383 1.428 . S
C378 C381 1.260 . S
C378 C382 1.477 . S
C378 H396 0.932 . S
C379 C380 1.384 . S
C379 C381 1.479 . S
C379 H397 0.929 . S
C380 C377 1.424 . S
C380 C379 1.384 . S
C380 H398 0.928 . S
C381 C378 1.260 . S
C381 C379 1.479 . S
C382 C377 1.245 . S
C382 C378 1.477 . S
C382 H399 0.932 . S
C383 U366 2.882 . S
C383 C377 1.428 . S
C383 O386 1.301 . S
C383 O387 1.282 . S
O384 U366 2.441 . S
O384 C370 1.249 . S
O385 U366 2.420 . S
O385 C370 1.202 . S
O386 U366 2.455 . S
O386 C383 1.301 . S
O387 U366 2.449 . S
O387 C383 1.282 . S
H388 C361 0.931 . S
H389 C363 0.929 . S
H390 C364 0.930 . S
H391 C365 0.926 1_554 S
H392 C372 0.932 . S
H393 C373 0.930 1_554 S
H394 C374 0.929 . S
H395 C376 0.930 . S
H396 C378 0.932 . S
H397 C379 0.929 . S
H398 C380 0.928 . S
H399 C382 0.932 . S
C400 C401 1.264 . S
C400 C405 1.479 1_556 S
C400 C410 1.465 . S
C401 C400 1.264 . S
C401 C403 1.339 . S
C401 H428 0.931 . S
C402 C403 1.395 . S
C402 C404 1.320 1_556 S
C403 C401 1.339 . S
C403 C402 1.395 . S
C403 H429 0.929 . S
C404 C402 1.320 1_554 S
C404 C405 1.405 . S
C404 H430 0.930 . S
C405 C400 1.479 1_554 S
C405 C404 1.405 . S
C405 H431 0.931 . S
U406 O407 2.454 . S
U406 O408 2.458 . S
U406 C409 2.984 . S
U406 C410 2.847 . S
U406 C423 2.882 . S
U406 O424 2.441 . S
U406 O425 2.420 . S
U406 O426 2.455 . S
U406 O427 2.449 . S
O407 U406 2.454 . S
O407 C409 1.353 . S
O408 U406 2.458 . S
O408 C409 1.286 . S
C409 U406 2.984 . S
C409 O407 1.353 . S
C409 O408 1.286 . S
C409 C411 1.363 . S
C410 C400 1.465 . S
C410 U406 2.847 . S
C410 O424 1.249 . S
C410 O425 1.202 . S
C411 C409 1.363 . S
C411 C413 1.408 1_556 S
C411 C416 1.342 . S
C412 C413 1.310 . S
C412 C415 1.461 1_554 S
C412 H432 0.932 . S
C413 C411 1.408 1_554 S
C413 C412 1.310 . S
C413 H433 0.930 . S
C414 C415 1.474 . S
C414 C416 1.285 . S
C414 H434 0.929 . S
C415 C412 1.461 1_556 S
C415 C414 1.474 . S
C416 C411 1.342 . S
C416 C414 1.285 . S
C416 H435 0.930 . S
C417 C420 1.424 . S
C417 C422 1.245 . S
C417 C423 1.428 . S
C418 C421 1.260 . S
C418 C422 1.477 . S
C418 H436 0.932 . S
C419 C420 1.384 . S
C419 C421 1.479 . S
C419 H437 0.929 . S
C420 C417 1.424 . S
C420 C419 1.384 . S
C420 H438 0.928 . S
C421 C418 1.260 . S
C421 C419 1.479 . S
C422 C417 1.245 . S
C422 C418 1.477 . S
C422 H439 0.932 . S
C423 U406 2.882 . S
C423 C417 1.428 . S
C423 O426 1.301 . S
C423 O427 1.282 . S
O424 U406 2.441 . S
O424 C410 1.249 . S
O425 U406 2.420 . S
O425 C410 1.202 . S
O426 U406 2.455 . S
O426 C423 1.301 . S
O427 U406 2.449 . S
O427 C423 1.282 . S
H428 C401 0.931 . S
H429 C403 0.929 . S
H430 C404 0.930 . S
H431 C405 0.931 . S
H432 C412 0.932 . S
H433 C413 0.930 . S
H434 C414 0.929 . S
H435 C416 0.930 . S
H436 C418 0.932 . S
H437 C419 0.929 . S
H438 C420 0.928 . S
H439 C422 0.932 . S
C440 C441 1.264 . S
C440 C445 1.479 . S
C440 C450 1.465 . S
C441 C440 1.264 . S
C441 C443 1.339 . S
C441 H468 0.931 . S
C442 C443 1.395 . S
C442 C444 1.320 1_556 S
C443 C441 1.339 . S
C443 C442 1.395 . S
C443 H469 0.929 . S
C444 C442 1.320 1_554 S
C444 C445 1.405 1_554 S
C444 H470 0.930 . S
C445 C440 1.479 . S
C445 C444 1.405 1_556 S
C445 H471 0.933 1_556 S
U446 O447 2.454 . S
U446 O448 2.458 . S
U446 C449 2.984 . S
U446 C450 2.847 . S
U446 C463 2.882 . S
U446 O464 2.441 . S
U446 O465 2.420 . S
U446 O466 2.455 . S
U446 O467 2.449 . S
O447 U446 2.454 . S
O447 C449 1.353 . S
O448 U446 2.458 . S
O448 C449 1.286 . S
C449 U446 2.984 . S
C449 O447 1.353 . S
C449 O448 1.286 . S
C449 C451 1.363 . S
C450 C440 1.465 . S
C450 U446 2.847 . S
C450 O464 1.249 . S
C450 O465 1.202 . S
C451 C449 1.363 . S
C451 C453 1.408 . S
C451 C456 1.342 . S
C452 C453 1.310 1_554 S
C452 C455 1.461 1_554 S
C452 H472 0.932 . S
C453 C451 1.408 . S
C453 C452 1.310 1_556 S
C453 H473 0.930 1_556 S
C454 C455 1.474 . S
C454 C456 1.285 . S
C454 H474 0.929 . S
C455 C452 1.461 1_556 S
C455 C454 1.474 . S
C456 C451 1.342 . S
C456 C454 1.285 . S
C456 H475 0.930 . S
C457 C460 1.424 . S
C457 C462 1.245 . S
C457 C463 1.428 . S
C458 C461 1.260 . S
C458 C462 1.477 . S
C458 H476 0.932 . S
C459 C460 1.384 . S
C459 C461 1.479 . S
C459 H477 0.929 . S
C460 C457 1.424 . S
C460 C459 1.384 . S
C460 H478 0.928 . S
C461 C458 1.260 . S
C461 C459 1.479 . S
C462 C457 1.245 . S
C462 C458 1.477 . S
C462 H479 0.932 . S
C463 U446 2.882 . S
C463 C457 1.428 . S
C463 O466 1.301 . S
C463 O467 1.282 . S
O464 U446 2.441 . S
O464 C450 1.249 . S
O465 U446 2.420 . S
O465 C450 1.202 . S
O466 U446 2.455 . S
O466 C463 1.301 . S
O467 U446 2.449 . S
O467 C463 1.282 . S
H468 C441 0.931 . S
H469 C443 0.929 . S
H470 C444 0.930 . S
H471 C445 0.933 1_554 S
H472 C452 0.932 . S
H473 C453 0.930 1_554 S
H474 C454 0.929 . S
H475 C456 0.930 . S
H476 C458 0.932 . S
H477 C459 0.929 . S
H478 C460 0.928 . S
H479 C462 0.932 . S
C480 C481 1.264 . S
C480 C485 1.479 . S
C480 C490 1.465 . S
C481 C480 1.264 . S
C481 C483 1.339 . S
C481 H508 0.931 . S
C482 C483 1.395 . S
C482 C484 1.320 . S
C483 C481 1.339 . S
C483 C482 1.395 . S
C483 H509 0.929 . S
C484 C482 1.320 . S
C484 C485 1.405 . S
C484 H510 0.930 1_554 S
C485 C480 1.479 . S
C485 C484 1.405 . S
C485 H511 0.931 . S
U486 O487 2.454 . S
U486 O488 2.458 . S
U486 C489 2.984 . S
U486 C490 2.847 . S
U486 C503 2.882 . S
U486 O504 2.441 . S
U486 O505 2.420 . S
U486 O506 2.455 . S
U486 O507 2.449 . S
O487 U486 2.454 . S
O487 C489 1.353 . S
O488 U486 2.458 . S
O488 C489 1.286 . S
C489 U486 2.984 . S
C489 O487 1.353 . S
C489 O488 1.286 . S
C489 C491 1.363 . S
C490 C480 1.465 . S
C490 U486 2.847 . S
C490 O504 1.249 . S
C490 O505 1.202 . S
C491 C489 1.363 . S
C491 C493 1.408 . S
C491 C496 1.342 . S
C492 C493 1.310 . S
C492 C495 1.461 . S
C492 H512 0.932 1_554 S
C493 C491 1.408 . S
C493 C492 1.310 . S
C493 H513 0.930 . S
C494 C495 1.474 . S
C494 C496 1.285 . S
C494 H514 0.929 . S
C495 C492 1.461 . S
C495 C494 1.474 . S
C496 C491 1.342 . S
C496 C494 1.285 . S
C496 H515 0.930 . S
C497 C500 1.424 . S
C497 C502 1.245 . S
C497 C503 1.428 . S
C498 C501 1.260 . S
C498 C502 1.477 . S
C498 H516 0.932 . S
C499 C500 1.384 . S
C499 C501 1.479 . S
C499 H517 0.929 . S
C500 C497 1.424 . S
C500 C499 1.384 . S
C500 H518 0.928 . S
C501 C498 1.260 . S
C501 C499 1.479 . S
C502 C497 1.245 . S
C502 C498 1.477 . S
C502 H519 0.932 . S
C503 U486 2.882 . S
C503 C497 1.428 . S
C503 O506 1.301 . S
C503 O507 1.282 . S
O504 U486 2.441 . S
O504 C490 1.249 . S
O505 U486 2.420 . S
O505 C490 1.202 . S
O506 U486 2.455 . S
O506 C503 1.301 . S
O507 U486 2.449 . S
O507 C503 1.282 . S
H508 C481 0.931 . S
H509 C483 0.929 . S
H510 C484 0.930 1_556 S
H511 C485 0.931 . S
H512 C492 0.932 1_556 S
H513 C493 0.930 . S
H514 C494 0.929 . S
H515 C496 0.930 . S
H516 C498 0.932 . S
H517 C499 0.929 . S
H518 C500 0.928 . S
H519 C502 0.932 . S
C520 C521 1.264 . S
C520 C525 1.479 . S
C520 C530 1.465 . S
C521 C520 1.264 . S
C521 C523 1.339 . S
C521 H548 0.931 . S
C522 C523 1.395 . S
C522 C524 1.320 . S
C523 C521 1.339 . S
C523 C522 1.395 . S
C523 H549 0.929 . S
C524 C522 1.320 . S
C524 C525 1.405 . S
C524 H550 0.930 1_554 S
C525 C520 1.479 . S
C525 C524 1.405 . S
C525 H551 0.931 1_554 S
U526 O527 2.454 . S
U526 O528 2.458 . S
U526 C529 2.984 . S
U526 C530 2.847 . S
U526 C543 2.882 . S
U526 O544 2.441 . S
U526 O545 2.420 . S
U526 O546 2.455 . S
U526 O547 2.449 . S
O527 U526 2.454 . S
O527 C529 1.353 . S
O528 U526 2.458 . S
O528 C529 1.286 . S
C529 U526 2.984 . S
C529 O527 1.353 . S
C529 O528 1.286 . S
C529 C531 1.363 . S
C530 C520 1.465 . S
C530 U526 2.847 . S
C530 O544 1.249 . S
C530 O545 1.202 . S
C531 C529 1.363 . S
C531 C533 1.408 . S
C531 C536 1.342 . S
C532 C533 1.310 1_556 S
C532 C535 1.461 1_556 S
C532 H552 0.932 . S
C533 C531 1.408 . S
C533 C532 1.310 1_554 S
C533 H553 0.956 . S
C534 C535 1.474 . S
C534 C536 1.285 . S
C534 H554 0.929 . S
C535 C532 1.461 1_554 S
C535 C534 1.474 . S
C536 C531 1.342 . S
C536 C534 1.285 . S
C536 H555 0.930 . S
C537 C540 1.424 . S
C537 C542 1.245 . S
C537 C543 1.428 . S
C538 C541 1.260 . S
C538 C542 1.477 . S
C538 H556 0.932 . S
C539 C540 1.384 . S
C539 C541 1.479 . S
C539 H557 0.929 . S
C540 C537 1.424 . S
C540 C539 1.384 . S
C540 H558 0.928 . S
C541 C538 1.260 . S
C541 C539 1.479 . S
C542 C537 1.245 . S
C542 C538 1.477 . S
C542 H559 0.932 . S
C543 U526 2.882 . S
C543 C537 1.428 . S
C543 O546 1.301 . S
C543 O547 1.282 . S
O544 U526 2.441 . S
O544 C530 1.249 . S
O545 U526 2.420 . S
O545 C530 1.202 . S
O546 U526 2.455 . S
O546 C543 1.301 . S
O547 U526 2.449 . S
O547 C543 1.282 . S
H548 C521 0.931 . S
H549 C523 0.929 . S
H550 C524 0.930 1_556 S
H551 C525 0.931 1_556 S
H552 C532 0.932 . S
H553 C533 0.956 . S
H554 C534 0.929 . S
H555 C536 0.930 . S
H556 C538 0.932 . S
H557 C539 0.929 . S
H558 C540 0.928 . S
H559 C542 0.932 . S
C560 C561 1.264 . S
C560 C565 1.479 . S
C560 C570 1.465 . S
C561 C560 1.264 . S
C561 C563 1.339 . S
C561 H588 0.931 . S
C562 C563 1.395 . S
C562 C564 1.320 . S
C563 C561 1.339 . S
C563 C562 1.395 . S
C563 H589 0.929 . S
C564 C562 1.320 . S
C564 C565 1.405 . S
C564 H590 0.930 1_554 S
C565 C560 1.479 . S
C565 C564 1.405 . S
C565 H591 0.931 . S
U566 O567 2.454 . S
U566 O568 2.458 . S
U566 C569 2.984 . S
U566 C570 2.847 . S
U566 C583 2.882 . S
U566 O584 2.441 . S
U566 O585 2.420 . S
U566 O586 2.455 . S
U566 O587 2.449 . S
O567 U566 2.454 . S
O567 C569 1.353 . S
O568 U566 2.458 . S
O568 C569 1.286 . S
C569 U566 2.984 . S
C569 O567 1.353 . S
C569 O568 1.286 . S
C569 C571 1.363 . S
C570 C560 1.465 . S
C570 U566 2.847 . S
C570 O584 1.249 . S
C570 O585 1.202 . S
C571 C569 1.363 . S
C571 C573 1.408 . S
C571 C576 1.342 . S
C572 C573 1.310 . S
C572 C575 1.461 . S
C572 H592 0.932 1_554 S
C573 C571 1.408 . S
C573 C572 1.310 . S
C573 H593 0.930 . S
C574 C575 1.474 . S
C574 C576 1.285 . S
C574 H594 0.929 . S
C575 C572 1.461 . S
C575 C574 1.474 . S
C576 C571 1.342 . S
C576 C574 1.285 . S
C576 H595 0.930 . S
C577 C580 1.424 . S
C577 C582 1.245 . S
C577 C583 1.428 . S
C578 C581 1.260 . S
C578 C582 1.477 . S
C578 H596 0.932 . S
C579 C580 1.384 . S
C579 C581 1.479 . S
C579 H597 0.929 . S
C580 C577 1.424 . S
C580 C579 1.384 . S
C580 H598 0.928 . S
C581 C578 1.260 . S
C581 C579 1.479 . S
C582 C577 1.245 . S
C582 C578 1.477 . S
C582 H599 0.932 . S
C583 U566 2.882 . S
C583 C577 1.428 . S
C583 O586 1.301 . S
C583 O587 1.282 . S
O584 U566 2.441 . S
O584 C570 1.249 . S
O585 U566 2.420 . S
O585 C570 1.202 . S
O586 U566 2.455 . S
O586 C583 1.301 . S
O587 U566 2.449 . S
O587 C583 1.282 . S
H588 C561 0.931 . S
H589 C563 0.929 . S
H590 C564 0.930 1_556 S
H591 C565 0.931 . S
H592 C572 0.932 1_556 S
H593 C573 0.930 . S
H594 C574 0.929 . S
H595 C576 0.930 . S
H596 C578 0.932 . S
H597 C579 0.929 . S
H598 C580 0.928 . S
H599 C582 0.932 . S
C600 C601 1.264 . S
C600 C605 1.479 . S
C600 C610 1.465 . S
C601 C600 1.264 . S
C601 C603 1.339 . S
C601 H628 0.931 . S
C602 C603 1.395 . S
C602 C604 1.320 . S
C603 C601 1.339 . S
C603 C602 1.395 . S
C603 H629 0.929 . S
C604 C602 1.320 . S
C604 C605 1.405 . S
C604 H630 0.930 . S
C605 C600 1.479 . S
C605 C604 1.405 . S
C605 H631 0.931 . S
U606 O607 2.454 . S
U606 O608 2.458 . S
U606 C609 2.984 . S
U606 C610 2.847 . S
U606 C623 2.882 . S
U606 O624 2.441 . S
U606 O625 2.420 . S
U606 O626 2.455 . S
U606 O627 2.449 . S
O607 U606 2.454 . S
O607 C609 1.353 . S
O608 U606 2.458 . S
O608 C609 1.286 . S
C609 U606 2.984 . S
C609 O607 1.353 . S
C609 O608 1.286 . S
C609 C611 1.363 . S
C610 C600 1.465 . S
C610 U606 2.847 . S
C610 O624 1.249 . S
C610 O625 1.202 . S
C611 C609 1.363 . S
C611 C613 1.408 . S
C611 C616 1.342 . S
C612 C613 1.310 . S
C612 C615 1.461 . S
C612 H632 0.932 . S
C613 C611 1.408 . S
C613 C612 1.310 . S
C613 H633 0.930 . S
C614 C615 1.474 . S
C614 C616 1.285 . S
C614 H634 0.929 . S
C615 C612 1.461 . S
C615 C614 1.474 . S
C616 C611 1.342 . S
C616 C614 1.285 . S
C616 H635 0.930 . S
C617 C620 1.424 . S
C617 C622 1.245 . S
C617 C623 1.428 . S
C618 C621 1.260 . S
C618 C622 1.477 . S
C618 H636 0.932 . S
C619 C620 1.384 . S
C619 C621 1.479 . S
C619 H637 0.929 . S
C620 C617 1.424 . S
C620 C619 1.384 . S
C620 H638 0.928 . S
C621 C618 1.260 . S
C621 C619 1.479 . S
C622 C617 1.245 . S
C622 C618 1.477 . S
C622 H639 0.932 . S
C623 U606 2.882 . S
C623 C617 1.428 . S
C623 O626 1.301 . S
C623 O627 1.282 . S
O624 U606 2.441 . S
O624 C610 1.249 . S
O625 U606 2.420 . S
O625 C610 1.202 . S
O626 U606 2.455 . S
O626 C623 1.301 . S
O627 U606 2.449 . S
O627 C623 1.282 . S
H628 C601 0.931 . S
H629 C603 0.929 . S
H630 C604 0.930 . S
H631 C605 0.931 . S
H632 C612 0.932 . S
H633 C613 0.930 . S
H634 C614 0.929 . S
H635 C616 0.930 . S
H636 C618 0.932 . S
H637 C619 0.929 . S
H638 C620 0.928 . S
H639 C622 0.932 . S
C640 C641 1.264 . S
C640 C645 1.479 . S
C640 C650 1.465 . S
C641 C640 1.264 . S
C641 C643 1.339 . S
C641 H668 0.931 . S
C642 C643 1.395 . S
C642 C644 1.320 . S
C643 C641 1.339 . S
C643 C642 1.395 . S
C643 H669 0.929 . S
C644 C642 1.320 . S
C644 C645 1.405 . S
C644 H670 0.930 . S
C645 C640 1.479 . S
C645 C644 1.405 . S
C645 H671 0.931 . S
U646 O647 2.454 . S
U646 O648 2.458 . S
U646 C649 2.984 . S
U646 C650 2.847 . S
U646 C663 2.882 . S
U646 O664 2.441 . S
U646 O665 2.420 . S
U646 O666 2.455 . S
U646 O667 2.449 . S
O647 U646 2.454 . S
O647 C649 1.353 . S
O648 U646 2.458 . S
O648 C649 1.286 . S
C649 U646 2.984 . S
C649 O647 1.353 . S
C649 O648 1.286 . S
C649 C651 1.363 . S
C650 C640 1.465 . S
C650 U646 2.847 . S
C650 O664 1.249 . S
C650 O665 1.202 . S
C651 C649 1.363 . S
C651 C653 1.408 . S
C651 C656 1.342 . S
C652 C653 1.310 . S
C652 C655 1.461 . S
C652 H672 0.932 . S
C653 C651 1.408 . S
C653 C652 1.310 . S
C653 H673 0.930 . S
C654 C655 1.474 . S
C654 C656 1.285 . S
C654 H674 0.929 . S
C655 C652 1.461 . S
C655 C654 1.474 . S
C656 C651 1.342 . S
C656 C654 1.285 . S
C656 H675 0.930 . S
C657 C660 1.424 . S
C657 C662 1.245 . S
C657 C663 1.428 . S
C658 C661 1.260 . S
C658 C662 1.477 . S
C658 H676 0.932 . S
C659 C660 1.384 . S
C659 C661 1.479 . S
C659 H677 0.929 . S
C660 C657 1.424 . S
C660 C659 1.384 . S
C660 H678 0.928 . S
C661 C658 1.260 . S
C661 C659 1.479 . S
C662 C657 1.245 . S
C662 C658 1.477 . S
C662 H679 0.932 . S
C663 U646 2.882 . S
C663 C657 1.428 . S
C663 O666 1.301 . S
C663 O667 1.282 . S
O664 U646 2.441 . S
O664 C650 1.249 . S
O665 U646 2.420 . S
O665 C650 1.202 . S
O666 U646 2.455 . S
O666 C663 1.301 . S
O667 U646 2.449 . S
O667 C663 1.282 . S
H668 C641 0.931 . S
H669 C643 0.929 . S
H670 C644 0.930 . S
H671 C645 0.931 . S
H672 C652 0.932 . S
H673 C653 0.930 . S
H674 C654 0.929 . S
H675 C656 0.930 . S
H676 C658 0.932 . S
H677 C659 0.929 . S
H678 C660 0.928 . S
H679 C662 0.932 . S
C680 C681 1.264 . S
C680 C685 1.479 . S
C680 C690 1.465 . S
C681 C680 1.264 . S
C681 C683 1.339 . S
C681 H708 0.931 . S
C682 C683 1.395 . S
C682 C684 1.320 . S
C683 C681 1.339 . S
C683 C682 1.395 . S
C683 H709 0.929 . S
C684 C682 1.320 . S
C684 C685 1.405 . S
C684 H710 0.930 . S
C685 C680 1.479 . S
C685 C684 1.405 . S
C685 H711 0.931 . S
U686 O687 2.454 . S
U686 O688 2.458 . S
U686 C689 2.984 . S
U686 C690 2.847 . S
U686 C703 2.882 . S
U686 O704 2.441 . S
U686 O705 2.420 . S
U686 O706 2.455 . S
U686 O707 2.449 . S
O687 U686 2.454 . S
O687 C689 1.353 . S
O688 U686 2.458 . S
O688 C689 1.286 . S
C689 U686 2.984 . S
C689 O687 1.353 . S
C689 O688 1.286 . S
C689 C691 1.363 . S
C690 C680 1.465 . S
C690 U686 2.847 . S
C690 O704 1.249 . S
C690 O705 1.202 . S
C691 C689 1.363 . S
C691 C693 1.408 . S
C691 C696 1.342 . S
C692 C693 1.310 . S
C692 C695 1.461 . S
C692 H712 0.932 . S
C693 C691 1.408 . S
C693 C692 1.310 . S
C693 H713 0.930 . S
C694 C695 1.474 . S
C694 C696 1.285 . S
C694 H714 0.929 . S
C695 C692 1.461 . S
C695 C694 1.474 . S
C696 C691 1.342 . S
C696 C694 1.285 . S
C696 H715 0.930 . S
C697 C700 1.424 . S
C697 C702 1.245 . S
C697 C703 1.428 . S
C698 C701 1.260 . S
C698 C702 1.477 . S
C698 H716 0.932 . S
C699 C700 1.384 . S
C699 C701 1.479 . S
C699 H717 0.929 . S
C700 C697 1.424 . S
C700 C699 1.384 . S
C700 H718 0.928 . S
C701 C698 1.260 . S
C701 C699 1.479 . S
C702 C697 1.245 . S
C702 C698 1.477 . S
C702 H719 0.932 . S
C703 U686 2.882 . S
C703 C697 1.428 . S
C703 O706 1.301 . S
C703 O707 1.282 . S
O704 U686 2.441 . S
O704 C690 1.249 . S
O705 U686 2.420 . S
O705 C690 1.202 . S
O706 U686 2.455 . S
O706 C703 1.301 . S
O707 U686 2.449 . S
O707 C703 1.282 . S
H708 C681 0.931 . S
H709 C683 0.929 . S
H710 C684 0.930 . S
H711 C685 0.931 . S
H712 C692 0.932 . S
H713 C693 0.930 . S
H714 C694 0.929 . S
H715 C696 0.930 . S
H716 C698 0.932 . S
H717 C699 0.929 . S
H718 C700 0.928 . S
H719 C702 0.932 . S
O720 Mg721 1.990 . S
O720 C734 1.253 1_565 S
Mg721 O720 1.990 . S
Mg721 O724 2.180 1_556 S
Mg721 O725 2.117 . S
Mg721 O739 2.030 1_565 S
O722 Mg723 2.072 1_556 S
O722 C734 1.260 . S
Mg723 O722 2.072 1_554 S
Mg723 O724 2.099 1_545 S
Mg723 O726 2.079 . S
Mg723 O727 2.072 1_545 S
Mg723 O729 2.099 . S
Mg723 O740 2.079 . S
O724 Mg721 2.180 1_554 S
O724 Mg723 2.099 1_565 S
O724 C735 1.279 . S
O725 Mg721 2.117 . S
O725 C735 1.250 1_556 S
O726 Mg723 2.079 . S
O726 C736 1.264 . S
O727 Mg723 2.072 1_565 S
O727 C737 1.260 . S
Mg728 O729 2.180 . S
Mg728 O730 2.021 1_545 S
Mg728 O731 1.990 1_545 S
Mg728 O732 2.117 . S
O729 Mg723 2.099 . S
O729 Mg728 2.180 . S
O729 C738 1.279 . S
O730 Mg728 2.021 1_565 S
O730 C736 1.254 1_565 S
O731 Mg728 1.990 1_565 S
O731 C737 1.253 . S
O732 Mg728 2.117 . S
O732 C738 1.250 . S
C733 O739 1.248 . S
C733 O740 1.264 1_556 S
C734 O720 1.253 1_545 S
C734 O722 1.260 . S
C735 O724 1.279 . S
C735 O725 1.250 1_554 S
C736 O726 1.264 . S
C736 O730 1.254 1_545 S
C737 O727 1.260 . S
C737 O731 1.253 . S
C738 O729 1.279 . S
C738 O732 1.250 . S
O739 Mg721 2.030 1_545 S
O739 C733 1.248 . S
O740 Mg723 2.079 . S
O740 C733 1.264 1_554 S
O741 Mg742 1.990 . S
O741 C755 1.252 . S
Mg742 O741 1.990 . S
Mg742 O745 2.180 1_556 S
Mg742 O746 2.117 . S
Mg742 O760 2.030 1_455 S
O743 Mg744 2.072 1_556 S
O743 C755 1.262 1_655 S
Mg744 O743 2.072 1_554 S
Mg744 O745 2.099 1_655 S
Mg744 O747 2.079 . S
Mg744 O748 2.072 1_655 S
Mg744 O750 2.099 . S
Mg744 O761 2.079 . S
O745 Mg742 2.180 1_554 S
O745 Mg744 2.099 1_455 S
O745 C756 1.279 . S
O746 Mg742 2.117 . S
O746 C756 1.250 1_556 S
O747 Mg744 2.079 . S
O747 C757 1.264 1_655 S
O748 Mg744 2.072 1_455 S
O748 C758 1.260 . S
Mg749 O750 2.180 . S
Mg749 O751 2.030 1_655 S
Mg749 O752 1.990 1_655 S
Mg749 O753 2.117 . S
O750 Mg744 2.099 . S
O750 Mg749 2.180 . S
O750 C759 1.279 . S
O751 Mg749 2.030 1_455 S
O751 C757 1.248 . S
O752 Mg749 1.990 1_455 S
O752 C758 1.253 . S
O753 Mg749 2.117 . S
O753 C759 1.250 . S
C754 O760 1.248 . S
C754 O761 1.264 1_556 S
C755 O741 1.252 . S
C755 O743 1.262 1_455 S
C756 O745 1.279 . S
C756 O746 1.250 1_554 S
C757 O747 1.264 1_455 S
C757 O751 1.248 . S
C758 O748 1.260 . S
C758 O752 1.253 . S
C759 O750 1.279 . S
C759 O753 1.250 . S
O760 Mg742 2.030 1_655 S
O760 C754 1.248 . S
O761 Mg744 2.079 . S
O761 C754 1.264 1_554 S
O762 Mg763 1.990 . S
O762 C776 1.253 . S
Mg763 O762 1.990 . S
Mg763 O766 2.180 . S
Mg763 O767 2.117 . S
Mg763 O781 2.030 . S
O764 Mg765 2.100 . S
O764 C776 1.260 . S
Mg765 O764 2.100 . S
Mg765 O766 2.102 . S
Mg765 O768 2.051 1_554 S
Mg765 O769 2.071 1_554 S
Mg765 O771 2.095 1_554 S
Mg765 O782 2.080 . S
O766 Mg763 2.180 . S
O766 Mg765 2.102 . S
O766 C777 1.279 . S
O767 Mg763 2.117 . S
O767 C777 1.250 . S
O768 Mg765 2.051 1_556 S
O768 C778 1.264 . S
O769 Mg765 2.071 1_556 S
O769 C779 1.260 . S
Mg770 O771 2.180 . S
Mg770 O772 2.030 . S
Mg770 O773 1.990 . S
Mg770 O774 2.123 . S
O771 Mg765 2.095 1_556 S
O771 Mg770 2.180 . S
O771 C780 1.279 1_556 S
O772 Mg770 2.030 . S
O772 C778 1.248 . S
O773 Mg770 1.990 . S
O773 C779 1.253 . S
O774 Mg770 2.123 . S
O774 C780 1.248 1_556 S
C775 O781 1.248 . S
C775 O782 1.264 . S
C776 O762 1.253 . S
C776 O764 1.260 . S
C777 O766 1.279 . S
C777 O767 1.250 . S
C778 O768 1.264 . S
C778 O772 1.248 . S
C779 O769 1.260 . S
C779 O773 1.253 . S
C780 O771 1.279 1_554 S
C780 O774 1.248 1_554 S
O781 Mg763 2.030 . S
O781 C775 1.248 . S
O782 Mg765 2.080 . S
O782 C775 1.264 . S
O783 Mg784 1.990 . S
O783 C797 1.253 . S
Mg784 O783 1.990 . S
Mg784 O787 2.180 . S
Mg784 O788 2.117 . S
Mg784 O802 2.030 . S
O785 Mg786 2.072 . S
O785 C797 1.260 . S
Mg786 O785 2.072 . S
Mg786 O787 2.099 . S
Mg786 O789 2.079 . S
Mg786 O790 2.072 . S
Mg786 O792 2.099 . S
Mg786 O803 2.079 . S
O787 Mg784 2.180 . S
O787 Mg786 2.099 . S
O787 C798 1.279 . S
O788 Mg784 2.117 . S
O788 C798 1.250 . S
O789 Mg786 2.079 . S
O789 C799 1.264 . S
O790 Mg786 2.072 . S
O790 C800 1.260 . S
Mg791 O792 2.180 . S
Mg791 O793 2.030 . S
Mg791 O794 1.990 . S
Mg791 O795 2.117 . S
O792 Mg786 2.099 . S
O792 Mg791 2.180 . S
O792 C801 1.279 . S
O793 Mg791 2.030 . S
O793 C799 1.248 . S
O794 Mg791 1.990 . S
O794 C800 1.253 . S
O795 Mg791 2.117 . S
O795 C801 1.250 . S
C796 O802 1.248 . S
C796 O803 1.264 . S
C797 O783 1.253 . S
C797 O785 1.260 . S
C798 O787 1.279 . S
C798 O788 1.250 . S
C799 O789 1.264 . S
C799 O793 1.248 . S
C800 O790 1.260 . S
C800 O794 1.253 . S
C801 O792 1.279 . S
C801 O795 1.250 . S
O802 Mg784 2.030 . S
O802 C796 1.248 . S
O803 Mg786 2.079 . S
O803 C796 1.264 . S
O804 Mg805 1.990 . S
O804 C818 1.253 . S
Mg805 O804 1.990 . S
Mg805 O808 2.180 . S
Mg805 O809 2.117 . S
Mg805 O823 2.030 . S
O806 Mg807 2.072 . S
O806 C818 1.260 . S
Mg807 O806 2.072 . S
Mg807 O808 2.099 . S
Mg807 O810 2.079 . S
Mg807 O811 2.072 . S
Mg807 O813 2.099 . S
Mg807 O824 2.079 . S
O808 Mg805 2.180 . S
O808 Mg807 2.099 . S
O808 C819 1.279 . S
O809 Mg805 2.117 . S
O809 C819 1.250 . S
O810 Mg807 2.079 . S
O810 C820 1.264 . S
O811 Mg807 2.072 . S
O811 C821 1.260 . S
Mg812 O813 2.180 . S
Mg812 O814 2.030 . S
Mg812 O815 1.990 . S
Mg812 O816 2.117 . S
O813 Mg807 2.099 . S
O813 Mg812 2.180 . S
O813 C822 1.279 . S
O814 Mg812 2.030 . S
O814 C820 1.248 . S
O815 Mg812 1.990 . S
O815 C821 1.253 . S
O816 Mg812 2.117 . S
O816 C822 1.250 . S
C817 O823 1.248 . S
C817 O824 1.264 . S
C818 O804 1.253 . S
C818 O806 1.260 . S
C819 O808 1.279 . S
C819 O809 1.250 . S
C820 O810 1.264 . S
C820 O814 1.248 . S
C821 O811 1.260 . S
C821 O815 1.253 . S
C822 O813 1.279 . S
C822 O816 1.250 . S
O823 Mg805 2.030 . S
O823 C817 1.248 . S
O824 Mg807 2.079 . S
O824 C817 1.264 . S
O825 Mg826 1.990 . S
O825 C839 1.253 . S
Mg826 O825 1.990 . S
Mg826 O829 2.180 . S
Mg826 O830 2.117 . S
Mg826 O844 2.030 . S
O827 Mg828 2.072 . S
O827 C839 1.260 . S
Mg828 O827 2.072 . S
Mg828 O829 2.099 . S
Mg828 O831 2.079 . S
Mg828 O832 2.072 . S
Mg828 O834 2.099 . S
Mg828 O845 2.079 . S
O829 Mg826 2.180 . S
O829 Mg828 2.099 . S
O829 C840 1.279 . S
O830 Mg826 2.117 . S
O830 C840 1.250 . S
O831 Mg828 2.079 . S
O831 C841 1.264 . S
O832 Mg828 2.072 . S
O832 C842 1.260 . S
Mg833 O834 2.180 . S
Mg833 O835 2.030 . S
Mg833 O836 1.990 . S
Mg833 O837 2.117 . S
O834 Mg828 2.099 . S
O834 Mg833 2.180 . S
O834 C843 1.279 . S
O835 Mg833 2.030 . S
O835 C841 1.248 . S
O836 Mg833 1.990 . S
O836 C842 1.253 . S
O837 Mg833 2.117 . S
O837 C843 1.250 . S
C838 O844 1.248 . S
C838 O845 1.264 . S
C839 O825 1.253 . S
C839 O827 1.260 . S
C840 O829 1.279 . S
C840 O830 1.250 . S
C841 O831 1.264 . S
C841 O835 1.248 . S
C842 O832 1.260 . S
C842 O836 1.253 . S
C843 O834 1.279 . S
C843 O837 1.250 . S
O844 Mg826 2.030 . S
O844 C838 1.248 . S
O845 Mg828 2.079 . S
O845 C838 1.264 . S
O846 Mg847 1.990 . S
O846 C860 1.253 . S
Mg847 O846 1.990 . S
Mg847 O850 2.180 . S
Mg847 O851 2.117 . S
Mg847 O865 2.030 . S
O848 Mg849 2.072 . S
O848 C860 1.260 . S
Mg849 O848 2.072 . S
Mg849 O850 2.099 . S
Mg849 O852 2.079 . S
Mg849 O853 2.072 . S
Mg849 O855 2.099 . S
Mg849 O866 2.079 . S
O850 Mg847 2.180 . S
O850 Mg849 2.099 . S
O850 C861 1.279 . S
O851 Mg847 2.117 . S
O851 C861 1.250 . S
O852 Mg849 2.079 . S
O852 C862 1.264 . S
O853 Mg849 2.072 . S
O853 C863 1.260 . S
Mg854 O855 2.180 . S
Mg854 O856 2.030 . S
Mg854 O857 1.990 . S
Mg854 O858 2.117 . S
O855 Mg849 2.099 . S
O855 Mg854 2.180 . S
O855 C864 1.279 . S
O856 Mg854 2.030 . S
O856 C862 1.248 . S
O857 Mg854 1.990 . S
O857 C863 1.253 . S
O858 Mg854 2.117 . S
O858 C864 1.250 . S
C859 O865 1.248 . S
C859 O866 1.264 . S
C860 O846 1.253 . S
C860 O848 1.260 . S
C861 O850 1.279 . S
C861 O851 1.250 . S
C862 O852 1.264 . S
C862 O856 1.248 . S
C863 O853 1.260 . S
C863 O857 1.253 . S
C864 O855 1.279 . S
C864 O858 1.250 . S
O865 Mg847 2.030 . S
O865 C859 1.248 . S
O866 Mg849 2.079 . S
O866 C859 1.264 . S
O867 Mg868 1.990 . S
O867 C881 1.253 . S
Mg868 O867 1.990 . S
Mg868 O871 2.180 . S
Mg868 O872 2.117 . S
Mg868 O886 2.030 . S
O869 Mg870 2.072 . S
O869 C881 1.260 . S
Mg870 O869 2.072 . S
Mg870 O871 2.099 . S
Mg870 O873 2.079 . S
Mg870 O874 2.072 . S
Mg870 O876 2.099 . S
Mg870 O887 2.079 . S
O871 Mg868 2.180 . S
O871 Mg870 2.099 . S
O871 C882 1.279 . S
O872 Mg868 2.117 . S
O872 C882 1.250 . S
O873 Mg870 2.079 . S
O873 C883 1.264 . S
O874 Mg870 2.072 . S
O874 C884 1.260 . S
Mg875 O876 2.180 . S
Mg875 O877 2.030 . S
Mg875 O878 1.990 . S
Mg875 O879 2.117 . S
O876 Mg870 2.099 . S
O876 Mg875 2.180 . S
O876 C885 1.279 . S
O877 Mg875 2.030 . S
O877 C883 1.248 . S
O878 Mg875 1.990 . S
O878 C884 1.253 . S
O879 Mg875 2.117 . S
O879 C885 1.250 . S
C880 O886 1.248 . S
C880 O887 1.264 . S
C881 O867 1.253 . S
C881 O869 1.260 . S
C882 O871 1.279 . S
C882 O872 1.250 . S
C883 O873 1.264 . S
C883 O877 1.248 . S
C884 O874 1.260 . S
C884 O878 1.253 . S
C885 O876 1.279 . S
C885 O879 1.250 . S
O886 Mg868 2.030 . S
O886 C880 1.248 . S
O887 Mg870 2.079 . S
O887 C880 1.264 . S
O888 Mg889 1.990 . S
O888 C902 1.253 . S
Mg889 O888 1.990 . S
Mg889 O892 2.180 . S
Mg889 O893 2.117 . S
Mg889 O907 2.030 . S
O890 Mg891 2.072 . S
O890 C902 1.260 . S
Mg891 O890 2.072 . S
Mg891 O892 2.099 . S
Mg891 O894 2.079 . S
Mg891 O895 2.072 . S
Mg891 O897 2.099 . S
Mg891 O908 2.079 . S
O892 Mg889 2.180 . S
O892 Mg891 2.099 . S
O892 C903 1.279 . S
O893 Mg889 2.117 . S
O893 C903 1.250 . S
O894 Mg891 2.079 . S
O894 C904 1.264 . S
O895 Mg891 2.072 . S
O895 C905 1.260 . S
Mg896 O897 2.180 . S
Mg896 O898 2.030 . S
Mg896 O899 1.990 . S
Mg896 O900 2.117 . S
O897 Mg891 2.099 . S
O897 Mg896 2.180 . S
O897 C906 1.279 . S
O898 Mg896 2.030 . S
O898 C904 1.248 . S
O899 Mg896 1.990 . S
O899 C905 1.253 . S
O900 Mg896 2.117 . S
O900 C906 1.250 . S
C901 O907 1.248 . S
C901 O908 1.264 . S
C902 O888 1.253 . S
C902 O890 1.260 . S
C903 O892 1.279 . S
C903 O893 1.250 . S
C904 O894 1.264 . S
C904 O898 1.248 . S
C905 O895 1.260 . S
C905 O899 1.253 . S
C906 O897 1.279 . S
C906 O900 1.250 . S
O907 Mg889 2.030 . S
O907 C901 1.248 . S
O908 Mg891 2.079 . S
O908 C901 1.264 . S
C909 C910 1.387 1_556 S
C909 H913 0.950 . S
C909 C918 1.390 . S
C910 C909 1.387 1_554 S
C910 C912 1.387 . S
H911 C918 0.950 . S
C912 C910 1.387 . S
C912 C914 1.390 . S
C912 H916 0.950 . S
H913 C909 0.950 . S
C914 C912 1.390 . S
C914 C915 1.387 . S
C914 H917 0.950 . S
C915 C914 1.387 . S
C915 C918 1.387 1_554 S
H916 C912 0.950 . S
H917 C914 0.950 . S
C918 C909 1.390 . S
C918 H911 0.950 . S
C918 C915 1.387 1_556 S
C919 C920 1.387 . S
C919 H923 0.950 . S
C919 C928 1.390 . S
C920 C919 1.387 . S
C920 C922 1.387 1_554 S
H921 C928 0.950 . S
C922 C920 1.387 1_556 S
C922 C924 1.390 . S
C922 H926 0.950 . S
H923 C919 0.950 . S
C924 C922 1.390 . S
C924 C925 1.387 1_556 S
C924 H927 0.950 . S
C925 C924 1.387 1_554 S
C925 C928 1.387 . S
H926 C922 0.950 . S
H927 C924 0.950 . S
C928 C919 1.390 . S
C928 H921 0.950 . S
C928 C925 1.387 . S
C929 C930 1.387 . S
C929 H933 0.950 . S
C929 C938 1.390 . S
C930 C929 1.387 . S
C930 C932 1.387 1_554 S
H931 C938 0.950 . S
C932 C930 1.387 1_556 S
C932 C934 1.390 . S
C932 H936 0.950 . S
H933 C929 0.950 . S
C934 C932 1.390 . S
C934 C935 1.387 1_556 S
C934 H937 0.950 . S
C935 C934 1.387 1_554 S
C935 C938 1.387 . S
H936 C932 0.950 . S
H937 C934 0.950 . S
C938 C929 1.390 . S
C938 H931 0.950 . S
C938 C935 1.387 . S
C939 C940 1.387 1_554 S
C939 H943 0.950 . S
C939 C948 1.390 . S
C940 C939 1.387 1_556 S
C940 C942 1.387 . S
H941 C948 0.950 . S
C942 C940 1.387 . S
C942 C944 1.390 . S
C942 H946 0.950 . S
H943 C939 0.950 . S
C944 C942 1.390 . S
C944 C945 1.387 . S
C944 H947 0.950 . S
C945 C944 1.387 . S
C945 C948 1.387 1_556 S
H946 C942 0.950 . S
H947 C944 0.950 . S
C948 C939 1.390 . S
C948 H941 0.950 . S
C948 C945 1.387 1_554 S
C949 C950 1.387 . S
C949 H953 0.950 . S
C949 C958 1.390 . S
C950 C949 1.387 . S
C950 C952 1.387 1_556 S
H951 C958 0.950 . S
C952 C950 1.387 1_554 S
C952 C954 1.390 . S
C952 H956 0.950 . S
H953 C949 0.950 . S
C954 C952 1.390 . S
C954 C955 1.387 1_554 S
C954 H957 0.950 . S
C955 C954 1.387 1_556 S
C955 C958 1.387 . S
H956 C952 0.950 . S
H957 C954 0.950 . S
C958 C949 1.390 . S
C958 H951 0.950 . S
C958 C955 1.387 . S
C959 C960 1.376 1_556 S
C959 H963 0.950 . S
C959 C968 1.390 . S
C960 C959 1.376 1_554 S
C960 C962 1.398 . S
H961 C968 0.950 . S
C962 C960 1.398 . S
C962 C964 1.390 . S
C962 H966 0.950 . S
H963 C959 0.950 . S
C964 C962 1.390 . S
C964 C965 1.387 1_554 S
C964 H967 0.950 . S
C965 C964 1.387 1_556 S
C965 C968 1.387 . S
H966 C962 0.950 . S
H967 C964 0.950 . S
C968 C959 1.390 . S
C968 H961 0.950 . S
C968 C965 1.387 . S
C969 C970 1.387 1_554 S
C969 H973 0.950 . S
C969 C978 1.390 . S
C970 C969 1.387 1_556 S
C970 C972 1.387 . S
H971 C978 0.950 . S
C972 C970 1.387 . S
C972 C974 1.390 . S
C972 H976 0.950 . S
H973 C969 0.950 . S
C974 C972 1.390 . S
C974 C975 1.387 . S
C974 H977 0.950 . S
C975 C974 1.387 . S
C975 C978 1.387 1_556 S
H976 C972 0.950 . S
H977 C974 0.950 . S
C978 C969 1.390 . S
C978 H971 0.950 . S
C978 C975 1.387 1_554 S
C979 C980 1.385 1_556 S
C979 H983 0.950 . S
C979 C988 1.390 . S
C980 C979 1.385 1_554 S
C980 C982 1.390 . S
H981 C988 0.950 . S
C982 C980 1.390 . S
C982 C984 1.390 . S
C982 H986 0.950 . S
H983 C979 0.950 . S
C984 C982 1.390 . S
C984 C985 1.387 1_554 S
C984 H987 0.950 . S
C985 C984 1.387 1_556 S
C985 C988 1.387 . S
H986 C982 0.950 . S
H987 C984 0.950 . S
C988 C979 1.390 . S
C988 H981 0.950 . S
C988 C985 1.387 . S
C989 C990 1.387 . S
C989 H993 0.950 . S
C989 C998 1.390 . S
C990 C989 1.387 . S
C990 C992 1.387 1_554 S
H991 C998 0.950 . S
C992 C990 1.387 1_556 S
C992 C994 1.390 . S
C992 H996 0.950 . S
H993 C989 0.950 . S
C994 C992 1.390 . S
C994 C995 1.410 . S
C994 H997 0.950 . S
C995 C994 1.410 . S
C995 C998 1.363 1_556 S
H996 C992 0.950 . S
H997 C994 0.950 . S
C998 C989 1.390 . S
C998 H991 0.950 . S
C998 C995 1.363 1_554 S
C999 C1000 1.387 . S
C999 H1003 0.950 . S
C999 C1008 1.390 . S
C1000 C999 1.387 . S
C1000 C1002 1.387 1_554 S
H1001 C1008 0.950 . S
C1002 C1000 1.387 1_556 S
C1002 C1004 1.390 . S
C1002 H1006 0.950 . S
H1003 C999 0.950 . S
C1004 C1002 1.390 . S
C1004 C1005 1.387 1_556 S
C1004 H1007 0.950 . S
C1005 C1004 1.387 1_554 S
C1005 C1008 1.387 . S
H1006 C1002 0.950 . S
H1007 C1004 0.950 . S
C1008 C999 1.390 . S
C1008 H1001 0.950 . S
C1008 C1005 1.387 . S
C1009 C1010 1.387 1_556 S
C1009 H1013 0.950 . S
C1009 C1018 1.390 . S
C1010 C1009 1.387 1_554 S
C1010 C1012 1.387 . S
H1011 C1018 0.950 . S
C1012 C1010 1.387 . S
C1012 C1014 1.390 . S
C1012 H1016 0.950 . S
H1013 C1009 0.950 . S
C1014 C1012 1.390 . S
C1014 C1015 1.387 . S
C1014 H1017 0.950 . S
C1015 C1014 1.387 . S
C1015 C1018 1.387 1_554 S
H1016 C1012 0.950 . S
H1017 C1014 0.950 . S
C1018 C1009 1.390 . S
C1018 H1011 0.950 . S
C1018 C1015 1.387 1_556 S
C1019 C1020 1.387 1_556 S
C1019 H1023 0.950 . S
C1019 C1028 1.390 . S
C1020 C1019 1.387 1_554 S
C1020 C1022 1.387 . S
H1021 C1028 0.950 . S
C1022 C1020 1.387 . S
C1022 C1024 1.390 . S
C1022 H1026 0.950 . S
H1023 C1019 0.950 . S
C1024 C1022 1.390 . S
C1024 C1025 1.387 . S
C1024 H1027 0.950 . S
C1025 C1024 1.387 . S
C1025 C1028 1.387 1_554 S
H1026 C1022 0.950 . S
H1027 C1024 0.950 . S
C1028 C1019 1.390 . S
C1028 H1021 0.950 . S
C1028 C1025 1.387 1_556 S
C1029 C1030 1.387 . S
C1029 H1033 0.950 . S
C1029 C1038 1.390 . S
C1030 C1029 1.387 . S
C1030 C1032 1.387 . S
H1031 C1038 0.950 . S
C1032 C1030 1.387 . S
C1032 C1034 1.390 . S
C1032 H1036 0.950 . S
H1033 C1029 0.950 . S
C1034 C1032 1.390 . S
C1034 C1035 1.387 . S
C1034 H1037 0.950 . S
C1035 C1034 1.387 . S
C1035 C1038 1.387 . S
H1036 C1032 0.950 . S
H1037 C1034 0.950 . S
C1038 C1029 1.390 . S
C1038 H1031 0.950 . S
C1038 C1035 1.387 . S
C1039 C1040 1.387 . S
C1039 H1043 0.950 . S
C1039 C1048 1.390 . S
C1040 C1039 1.387 . S
C1040 C1042 1.387 . S
H1041 C1048 0.950 . S
C1042 C1040 1.387 . S
C1042 C1044 1.390 . S
C1042 H1046 0.950 . S
H1043 C1039 0.950 . S
C1044 C1042 1.390 . S
C1044 C1045 1.387 . S
C1044 H1047 0.950 . S
C1045 C1044 1.387 . S
C1045 C1048 1.387 . S
H1046 C1042 0.950 . S
H1047 C1044 0.950 . S
C1048 C1039 1.390 . S
C1048 H1041 0.950 . S
C1048 C1045 1.387 . S
C1049 C1050 1.387 . S
C1049 H1053 0.950 . S
C1049 C1058 1.390 . S
C1050 C1049 1.387 . S
C1050 C1052 1.387 . S
H1051 C1058 0.950 . S
C1052 C1050 1.387 . S
C1052 C1054 1.390 . S
C1052 H1056 0.950 . S
H1053 C1049 0.950 . S
C1054 C1052 1.390 . S
C1054 C1055 1.387 . S
C1054 H1057 0.950 . S
C1055 C1054 1.387 . S
C1055 C1058 1.387 . S
H1056 C1052 0.950 . S
H1057 C1054 0.950 . S
C1058 C1049 1.390 . S
C1058 H1051 0.950 . S
C1058 C1055 1.387 . S
C1059 C1060 1.387 . S
C1059 H1063 0.950 . S
C1059 C1068 1.390 . S
C1060 C1059 1.387 . S
C1060 C1062 1.387 . S
H1061 C1068 0.950 . S
C1062 C1060 1.387 . S
C1062 C1064 1.390 . S
C1062 H1066 0.950 . S
H1063 C1059 0.950 . S
C1064 C1062 1.390 . S
C1064 C1065 1.387 . S
C1064 H1067 0.950 . S
C1065 C1064 1.387 . S
C1065 C1068 1.387 . S
H1066 C1062 0.950 . S
H1067 C1064 0.950 . S
C1068 C1059 1.390 . S
C1068 H1061 0.950 . S
C1068 C1065 1.387 . S
C1069 C1070 1.387 . S
C1069 H1073 0.950 . S
C1069 C1078 1.390 . S
C1070 C1069 1.387 . S
C1070 C1072 1.387 . S
H1071 C1078 0.950 . S
C1072 C1070 1.387 . S
C1072 C1074 1.390 . S
C1072 H1076 0.950 . S
H1073 C1069 0.950 . S
C1074 C1072 1.390 . S
C1074 C1075 1.387 . S
C1074 H1077 0.950 . S
C1075 C1074 1.387 . S
C1075 C1078 1.387 . S
H1076 C1072 0.950 . S
H1077 C1074 0.950 . S
C1078 C1069 1.390 . S
C1078 H1071 0.950 . S
C1078 C1075 1.387 . S
C1079 C1080 1.387 . S
C1079 H1083 0.950 . S
C1079 C1088 1.390 . S
C1080 C1079 1.387 . S
C1080 C1082 1.387 . S
H1081 C1088 0.950 . S
C1082 C1080 1.387 . S
C1082 C1084 1.390 . S
C1082 H1086 0.950 . S
H1083 C1079 0.950 . S
C1084 C1082 1.390 . S
C1084 C1085 1.387 . S
C1084 H1087 0.950 . S
C1085 C1084 1.387 . S
C1085 C1088 1.387 . S
H1086 C1082 0.950 . S
H1087 C1084 0.950 . S
C1088 C1079 1.390 . S
C1088 H1081 0.950 . S
C1088 C1085 1.387 . S
C1089 C1090 1.387 . S
C1089 H1093 0.950 . S
C1089 C1098 1.390 . S
C1090 C1089 1.387 . S
C1090 C1092 1.387 . S
H1091 C1098 0.950 . S
C1092 C1090 1.387 . S
C1092 C1094 1.390 . S
C1092 H1096 0.950 . S
H1093 C1089 0.950 . S
C1094 C1092 1.390 . S
C1094 C1095 1.387 . S
C1094 H1097 0.950 . S
C1095 C1094 1.387 . S
C1095 C1098 1.387 . S
H1096 C1092 0.950 . S
H1097 C1094 0.950 . S
C1098 C1089 1.390 . S
C1098 H1091 0.950 . S
C1098 C1095 1.387 . S
C1099 C1100 1.387 . S
C1099 H1103 0.950 . S
C1099 C1108 1.390 . S
C1100 C1099 1.387 . S
C1100 C1102 1.387 . S
H1101 C1108 0.950 . S
C1102 C1100 1.387 . S
C1102 C1104 1.390 . S
C1102 H1106 0.950 . S
H1103 C1099 0.950 . S
C1104 C1102 1.390 . S
C1104 C1105 1.387 . S
C1104 H1107 0.950 . S
C1105 C1104 1.387 . S
C1105 C1108 1.387 . S
H1106 C1102 0.950 . S
H1107 C1104 0.950 . S
C1108 C1099 1.390 . S
C1108 H1101 0.950 . S
C1108 C1105 1.387 . S
C1109 C1110 1.387 . S
C1109 H1113 0.950 . S
C1109 C1118 1.390 . S
C1110 C1109 1.387 . S
C1110 C1112 1.387 . S
H1111 C1118 0.950 . S
C1112 C1110 1.387 . S
C1112 C1114 1.390 . S
C1112 H1116 0.950 . S
H1113 C1109 0.950 . S
C1114 C1112 1.390 . S
C1114 C1115 1.387 . S
C1114 H1117 0.950 . S
C1115 C1114 1.387 . S
C1115 C1118 1.387 . S
H1116 C1112 0.950 . S
H1117 C1114 0.950 . S
C1118 C1109 1.390 . S
C1118 H1111 0.950 . S
C1118 C1115 1.387 . S
C1119 C1120 1.387 . S
C1119 H1123 0.950 . S
C1119 C1128 1.390 . S
C1120 C1119 1.387 . S
C1120 C1122 1.387 . S
H1121 C1128 0.950 . S
C1122 C1120 1.387 . S
C1122 C1124 1.390 . S
C1122 H1126 0.950 . S
H1123 C1119 0.950 . S
C1124 C1122 1.390 . S
C1124 C1125 1.387 . S
C1124 H1127 0.950 . S
C1125 C1124 1.387 . S
C1125 C1128 1.387 . S
H1126 C1122 0.950 . S
H1127 C1124 0.950 . S
C1128 C1119 1.390 . S
C1128 H1121 0.950 . S
C1128 C1125 1.387 . S
C1129 C1130 1.387 . S
C1129 H1133 0.950 . S
C1129 C1138 1.390 . S
C1130 C1129 1.387 . S
C1130 C1132 1.387 . S
H1131 C1138 0.950 . S
C1132 C1130 1.387 . S
C1132 C1134 1.390 . S
C1132 H1136 0.950 . S
H1133 C1129 0.950 . S
C1134 C1132 1.390 . S
C1134 C1135 1.387 . S
C1134 H1137 0.950 . S
C1135 C1134 1.387 . S
C1135 C1138 1.387 . S
H1136 C1132 0.950 . S
H1137 C1134 0.950 . S
C1138 C1129 1.390 . S
C1138 H1131 0.950 . S
C1138 C1135 1.387 . S
C1139 C1140 1.387 . S
C1139 H1143 0.950 . S
C1139 C1148 1.390 . S
C1140 C1139 1.387 . S
C1140 C1142 1.387 . S
H1141 C1148 0.950 . S
C1142 C1140 1.387 . S
C1142 C1144 1.390 . S
C1142 H1146 0.950 . S
H1143 C1139 0.950 . S
C1144 C1142 1.390 . S
C1144 C1145 1.387 . S
C1144 H1147 0.950 . S
C1145 C1144 1.387 . S
C1145 C1148 1.387 . S
H1146 C1142 0.950 . S
H1147 C1144 0.950 . S
C1148 C1139 1.390 . S
C1148 H1141 0.950 . S
C1148 C1145 1.387 . S
C1149 C1150 1.387 . S
C1149 H1153 0.950 . S
C1149 C1158 1.390 . S
C1150 C1149 1.387 . S
C1150 C1152 1.387 . S
H1151 C1158 0.950 . S
C1152 C1150 1.387 . S
C1152 C1154 1.390 . S
C1152 H1156 0.950 . S
H1153 C1149 0.950 . S
C1154 C1152 1.390 . S
C1154 C1155 1.387 . S
C1154 H1157 0.950 . S
C1155 C1154 1.387 . S
C1155 C1158 1.387 . S
H1156 C1152 0.950 . S
H1157 C1154 0.950 . S
C1158 C1149 1.390 . S
C1158 H1151 0.950 . S
C1158 C1155 1.387 . S
C1159 C1160 1.387 . S
C1159 H1163 0.950 . S
C1159 C1168 1.390 . S
C1160 C1159 1.387 . S
C1160 C1162 1.387 . S
H1161 C1168 0.950 . S
C1162 C1160 1.387 . S
C1162 C1164 1.390 . S
C1162 H1166 0.950 . S
H1163 C1159 0.950 . S
C1164 C1162 1.390 . S
C1164 C1165 1.387 . S
C1164 H1167 0.950 . S
C1165 C1164 1.387 . S
C1165 C1168 1.387 . S
H1166 C1162 0.950 . S
H1167 C1164 0.950 . S
C1168 C1159 1.390 . S
C1168 H1161 0.950 . S
C1168 C1165 1.387 . S
C1169 C1170 1.387 . S
C1169 H1173 0.950 . S
C1169 C1178 1.390 . S
C1170 C1169 1.387 . S
C1170 C1172 1.387 . S
H1171 C1178 0.950 . S
C1172 C1170 1.387 . S
C1172 C1174 1.390 . S
C1172 H1176 0.950 . S
H1173 C1169 0.950 . S
C1174 C1172 1.390 . S
C1174 C1175 1.387 . S
C1174 H1177 0.950 . S
C1175 C1174 1.387 . S
C1175 C1178 1.387 . S
H1176 C1172 0.950 . S
H1177 C1174 0.950 . S
C1178 C1169 1.390 . S
C1178 H1171 0.950 . S
C1178 C1175 1.387 . S
C1179 C1180 1.387 . S
C1179 H1183 0.950 . S
C1179 C1188 1.390 . S
C1180 C1179 1.387 . S
C1180 C1182 1.387 . S
H1181 C1188 0.950 . S
C1182 C1180 1.387 . S
C1182 C1184 1.390 . S
C1182 H1186 0.950 . S
H1183 C1179 0.950 . S
C1184 C1182 1.390 . S
C1184 C1185 1.387 . S
C1184 H1187 0.950 . S
C1185 C1184 1.387 . S
C1185 C1188 1.387 . S
H1186 C1182 0.950 . S
H1187 C1184 0.950 . S
C1188 C1179 1.390 . S
C1188 H1181 0.950 . S
C1188 C1185 1.387 . S
C1189 C1190 1.387 . S
C1189 H1193 0.950 . S
C1189 C1198 1.390 . S
C1190 C1189 1.387 . S
C1190 C1192 1.387 . S
H1191 C1198 0.950 . S
C1192 C1190 1.387 . S
C1192 C1194 1.390 . S
C1192 H1196 0.950 . S
H1193 C1189 0.950 . S
C1194 C1192 1.390 . S
C1194 C1195 1.387 . S
C1194 H1197 0.950 . S
C1195 C1194 1.387 . S
C1195 C1198 1.387 . S
H1196 C1192 0.950 . S
H1197 C1194 0.950 . S
C1198 C1189 1.390 . S
C1198 H1191 0.950 . S
C1198 C1195 1.387 . S
C1199 C1200 1.387 . S
C1199 H1203 0.950 . S
C1199 C1208 1.390 . S
C1200 C1199 1.387 . S
C1200 C1202 1.387 . S
H1201 C1208 0.950 . S
C1202 C1200 1.387 . S
C1202 C1204 1.390 . S
C1202 H1206 0.950 . S
H1203 C1199 0.950 . S
C1204 C1202 1.390 . S
C1204 C1205 1.387 . S
C1204 H1207 0.950 . S
C1205 C1204 1.387 . S
C1205 C1208 1.387 . S
H1206 C1202 0.950 . S
H1207 C1204 0.950 . S
C1208 C1199 1.390 . S
C1208 H1201 0.950 . S
C1208 C1205 1.387 . S
C1209 C1210 1.387 . S
C1209 H1213 0.950 . S
C1209 C1218 1.390 . S
C1210 C1209 1.387 . S
C1210 C1212 1.387 . S
H1211 C1218 0.950 . S
C1212 C1210 1.387 . S
C1212 C1214 1.390 . S
C1212 H1216 0.950 . S
H1213 C1209 0.950 . S
C1214 C1212 1.390 . S
C1214 C1215 1.387 . S
C1214 H1217 0.950 . S
C1215 C1214 1.387 . S
C1215 C1218 1.387 . S
H1216 C1212 0.950 . S
H1217 C1214 0.950 . S
C1218 C1209 1.390 . S
C1218 H1211 0.950 . S
C1218 C1215 1.387 . S
C1219 C1220 1.387 . S
C1219 H1223 0.950 . S
C1219 C1228 1.390 . S
C1220 C1219 1.387 . S
C1220 C1222 1.387 . S
H1221 C1228 0.950 . S
C1222 C1220 1.387 . S
C1222 C1224 1.390 . S
C1222 H1226 0.950 . S
H1223 C1219 0.950 . S
C1224 C1222 1.390 . S
C1224 C1225 1.387 . S
C1224 H1227 0.950 . S
C1225 C1224 1.387 . S
C1225 C1228 1.387 . S
H1226 C1222 0.950 . S
H1227 C1224 0.950 . S
C1228 C1219 1.390 . S
C1228 H1221 0.950 . S
C1228 C1225 1.387 . S
C1229 C1230 1.387 . S
C1229 H1233 0.950 . S
C1229 C1238 1.390 . S
C1230 C1229 1.387 . S
C1230 C1232 1.387 . S
H1231 C1238 0.950 . S
C1232 C1230 1.387 . S
C1232 C1234 1.390 . S
C1232 H1236 0.950 . S
H1233 C1229 0.950 . S
C1234 C1232 1.390 . S
C1234 C1235 1.387 . S
C1234 H1237 0.950 . S
C1235 C1234 1.387 . S
C1235 C1238 1.387 . S
H1236 C1232 0.950 . S
H1237 C1234 0.950 . S
C1238 C1229 1.390 . S
C1238 H1231 0.950 . S
C1238 C1235 1.387 . S
C1239 C1240 1.387 . S
C1239 H1243 0.950 . S
C1239 C1248 1.390 . S
C1240 C1239 1.387 . S
C1240 C1242 1.387 . S
H1241 C1248 0.950 . S
C1242 C1240 1.387 . S
C1242 C1244 1.390 . S
C1242 H1246 0.950 . S
H1243 C1239 0.950 . S
C1244 C1242 1.390 . S
C1244 C1245 1.387 . S
C1244 H1247 0.950 . S
C1245 C1244 1.387 . S
C1245 C1248 1.387 . S
H1246 C1242 0.950 . S
H1247 C1244 0.950 . S
C1248 C1239 1.390 . S
C1248 H1241 0.950 . S
C1248 C1245 1.387 . S
C1249 C1250 1.387 . S
C1249 H1253 0.950 . S
C1249 C1258 1.390 . S
C1250 C1249 1.387 . S
C1250 C1252 1.387 . S
H1251 C1258 0.950 . S
C1252 C1250 1.387 . S
C1252 C1254 1.390 . S
C1252 H1256 0.950 . S
H1253 C1249 0.950 . S
C1254 C1252 1.390 . S
C1254 C1255 1.387 . S
C1254 H1257 0.950 . S
C1255 C1254 1.387 . S
C1255 C1258 1.387 . S
H1256 C1252 0.950 . S
H1257 C1254 0.950 . S
C1258 C1249 1.390 . S
C1258 H1251 0.950 . S
C1258 C1255 1.387 . S
C1259 C1260 1.387 . S
C1259 H1263 0.950 . S
C1259 C1268 1.390 . S
C1260 C1259 1.387 . S
C1260 C1262 1.387 . S
H1261 C1268 0.950 . S
C1262 C1260 1.387 . S
C1262 C1264 1.390 . S
C1262 H1266 0.950 . S
H1263 C1259 0.950 . S
C1264 C1262 1.390 . S
C1264 C1265 1.387 . S
C1264 H1267 0.950 . S
C1265 C1264 1.387 . S
C1265 C1268 1.387 . S
H1266 C1262 0.950 . S
H1267 C1264 0.950 . S
C1268 C1259 1.390 . S
C1268 H1261 0.950 . S
C1268 C1265 1.387 . S
C1269 C1270 1.387 . S
C1269 H1273 0.950 . S
C1269 C1278 1.390 . S
C1270 C1269 1.387 . S
C1270 C1272 1.387 1_565 S
H1271 C1278 0.950 . S
C1272 C1270 1.387 1_545 S
C1272 C1274 1.390 . S
C1272 H1276 0.950 . S
H1273 C1269 0.950 . S
C1274 C1272 1.390 . S
C1274 C1275 1.387 1_545 S
C1274 H1277 0.950 . S
C1275 C1274 1.387 1_565 S
C1275 C1278 1.387 . S
H1276 C1272 0.950 . S
H1277 C1274 0.950 . S
C1278 C1269 1.390 . S
C1278 H1271 0.950 . S
C1278 C1275 1.387 . S
C1279 C1280 1.387 1_655 S
C1279 H1283 0.950 . S
C1279 C1288 1.390 . S
C1280 C1279 1.387 1_455 S
C1280 C1282 1.387 . S
H1281 C1288 0.950 . S
C1282 C1280 1.387 . S
C1282 C1284 1.390 . S
C1282 H1286 0.950 . S
H1283 C1279 0.950 . S
C1284 C1282 1.390 . S
C1284 C1285 1.387 . S
C1284 H1287 0.950 . S
C1285 C1284 1.387 . S
C1285 C1288 1.387 1_455 S
H1286 C1282 0.950 . S
H1287 C1284 0.950 . S
C1288 C1279 1.390 . S
C1288 H1281 0.950 . S
C1288 C1285 1.387 1_655 S
C1289 C1290 1.387 . S
C1289 H1293 0.950 . S
C1289 C1298 1.390 . S
C1290 C1289 1.387 . S
C1290 C1292 1.387 . S
H1291 C1298 0.950 . S
C1292 C1290 1.387 . S
C1292 C1294 1.390 . S
C1292 H1296 0.950 . S
H1293 C1289 0.950 . S
C1294 C1292 1.390 . S
C1294 C1295 1.387 . S
C1294 H1297 0.950 . S
C1295 C1294 1.387 . S
C1295 C1298 1.387 . S
H1296 C1292 0.950 . S
H1297 C1294 0.950 . S
C1298 C1289 1.390 . S
C1298 H1291 0.950 . S
C1298 C1295 1.387 . S
C1299 C1300 1.387 1_455 S
C1299 H1303 0.950 . S
C1299 C1308 1.390 . S
C1300 C1299 1.387 1_655 S
C1300 C1302 1.387 . S
H1301 C1308 0.950 . S
C1302 C1300 1.387 . S
C1302 C1304 1.390 . S
C1302 H1306 0.950 . S
H1303 C1299 0.950 . S
C1304 C1302 1.390 . S
C1304 C1305 1.387 . S
C1304 H1307 0.950 . S
C1305 C1304 1.387 . S
C1305 C1308 1.387 1_655 S
H1306 C1302 0.950 . S
H1307 C1304 0.950 . S
C1308 C1299 1.390 . S
C1308 H1301 0.950 . S
C1308 C1305 1.387 1_455 S
C1309 C1310 1.387 . S
C1309 H1313 0.950 . S
C1309 C1318 1.390 . S
C1310 C1309 1.387 . S
C1310 C1312 1.387 . S
H1311 C1318 0.950 . S
C1312 C1310 1.387 . S
C1312 C1314 1.390 . S
C1312 H1316 0.950 . S
H1313 C1309 0.950 . S
C1314 C1312 1.390 . S
C1314 C1315 1.387 . S
C1314 H1317 0.950 . S
C1315 C1314 1.387 . S
C1315 C1318 1.387 . S
H1316 C1312 0.950 . S
H1317 C1314 0.950 . S
C1318 C1309 1.390 . S
C1318 H1311 0.950 . S
C1318 C1315 1.387 . S
C1319 C1320 1.387 . S
C1319 H1323 0.950 . S
C1319 C1328 1.390 . S
C1320 C1319 1.387 . S
C1320 C1322 1.387 1_545 S
H1321 C1328 0.950 . S
C1322 C1320 1.387 1_565 S
C1322 C1324 1.390 . S
C1322 H1326 0.950 . S
H1323 C1319 0.950 . S
C1324 C1322 1.390 . S
C1324 C1325 1.387 1_565 S
C1324 H1327 0.950 . S
C1325 C1324 1.387 1_545 S
C1325 C1328 1.387 . S
H1326 C1322 0.950 . S
H1327 C1324 0.950 . S
C1328 C1319 1.390 . S
C1328 H1321 0.950 . S
C1328 C1325 1.387 . S
C1329 C1330 1.387 . S
C1329 H1333 0.950 . S
C1329 C1338 1.390 . S
C1330 C1329 1.387 . S
C1330 C1332 1.387 . S
H1331 C1338 0.950 . S
C1332 C1330 1.387 . S
C1332 C1334 1.390 . S
C1332 H1336 0.950 . S
H1333 C1329 0.950 . S
C1334 C1332 1.390 . S
C1334 C1335 1.387 . S
C1334 H1337 0.950 . S
C1335 C1334 1.387 . S
C1335 C1338 1.387 . S
H1336 C1332 0.950 . S
H1337 C1334 0.950 . S
C1338 C1329 1.390 . S
C1338 H1331 0.950 . S
C1338 C1335 1.387 . S
C1339 C1340 1.387 . S
C1339 H1343 0.950 . S
C1339 C1348 1.390 . S
C1340 C1339 1.387 . S
C1340 C1342 1.387 . S
H1341 C1348 0.950 . S
C1342 C1340 1.387 . S
C1342 C1344 1.390 . S
C1342 H1346 0.950 . S
H1343 C1339 0.950 . S
C1344 C1342 1.390 . S
C1344 C1345 1.387 . S
C1344 H1347 0.950 . S
C1345 C1344 1.387 . S
C1345 C1348 1.387 . S
H1346 C1342 0.950 . S
H1347 C1344 0.950 . S
C1348 C1339 1.390 . S
C1348 H1341 0.950 . S
C1348 C1345 1.387 . S
C1349 C1350 1.387 . S
C1349 H1353 0.950 . S
C1349 C1358 1.390 . S
C1350 C1349 1.387 . S
C1350 C1352 1.387 . S
H1351 C1358 0.950 . S
C1352 C1350 1.387 . S
C1352 C1354 1.390 . S
C1352 H1356 0.950 . S
H1353 C1349 0.950 . S
C1354 C1352 1.390 . S
C1354 C1355 1.387 . S
C1354 H1357 0.950 . S
C1355 C1354 1.387 . S
C1355 C1358 1.387 . S
H1356 C1352 0.950 . S
H1357 C1354 0.950 . S
C1358 C1349 1.390 . S
C1358 H1351 0.950 . S
C1358 C1355 1.387 . S
C1359 C1360 1.387 . S
C1359 H1363 0.950 . S
C1359 C1368 1.390 . S
C1360 C1359 1.387 . S
C1360 C1362 1.387 . S
H1361 C1368 0.950 . S
C1362 C1360 1.387 . S
C1362 C1364 1.390 . S
C1362 H1366 0.950 . S
H1363 C1359 0.950 . S
C1364 C1362 1.390 . S
C1364 C1365 1.387 . S
C1364 H1367 0.950 . S
C1365 C1364 1.387 . S
C1365 C1368 1.387 . S
H1366 C1362 0.950 . S
H1367 C1364 0.950 . S
C1368 C1359 1.390 . S
C1368 H1361 0.950 . S
C1368 C1365 1.387 . S
C1369 C1370 1.387 . S
C1369 H1373 0.950 . S
C1369 C1378 1.390 . S
C1370 C1369 1.387 . S
C1370 C1372 1.387 . S
H1371 C1378 0.950 . S
C1372 C1370 1.387 . S
C1372 C1374 1.390 . S
C1372 H1376 0.950 . S
H1373 C1369 0.950 . S
C1374 C1372 1.390 . S
C1374 C1375 1.387 . S
C1374 H1377 0.950 . S
C1375 C1374 1.387 . S
C1375 C1378 1.387 . S
H1376 C1372 0.950 . S
H1377 C1374 0.950 . S
C1378 C1369 1.390 . S
C1378 H1371 0.950 . S
C1378 C1375 1.387 . S
C1379 C1380 1.387 . S
C1379 H1383 0.950 . S
C1379 C1388 1.390 . S
C1380 C1379 1.387 . S
C1380 C1382 1.387 . S
H1381 C1388 0.950 . S
C1382 C1380 1.387 . S
C1382 C1384 1.390 . S
C1382 H1386 0.950 . S
H1383 C1379 0.950 . S
C1384 C1382 1.390 . S
C1384 C1385 1.387 . S
C1384 H1387 0.950 . S
C1385 C1384 1.387 . S
C1385 C1388 1.387 . S
H1386 C1382 0.950 . S
H1387 C1384 0.950 . S
C1388 C1379 1.390 . S
C1388 H1381 0.950 . S
C1388 C1385 1.387 . S
C1389 C1390 1.387 . S
C1389 H1393 0.950 . S
C1389 C1398 1.390 . S
C1390 C1389 1.387 . S
C1390 C1392 1.387 . S
H1391 C1398 0.950 . S
C1392 C1390 1.387 . S
C1392 C1394 1.390 . S
C1392 H1396 0.950 . S
H1393 C1389 0.950 . S
C1394 C1392 1.390 . S
C1394 C1395 1.387 . S
C1394 H1397 0.950 . S
C1395 C1394 1.387 . S
C1395 C1398 1.387 . S
H1396 C1392 0.950 . S
H1397 C1394 0.950 . S
C1398 C1389 1.390 . S
C1398 H1391 0.950 . S
C1398 C1395 1.387 . S
C1399 C1400 1.387 . S
C1399 H1403 0.950 . S
C1399 C1408 1.390 . S
C1400 C1399 1.387 . S
C1400 C1402 1.387 . S
H1401 C1408 0.950 . S
C1402 C1400 1.387 . S
C1402 C1404 1.390 . S
C1402 H1406 0.950 . S
H1403 C1399 0.950 . S
C1404 C1402 1.390 . S
C1404 C1405 1.387 . S
C1404 H1407 0.950 . S
C1405 C1404 1.387 . S
C1405 C1408 1.387 . S
H1406 C1402 0.950 . S
H1407 C1404 0.950 . S
C1408 C1399 1.390 . S
C1408 H1401 0.950 . S
C1408 C1405 1.387 . S
C1409 C1410 1.387 . S
C1409 H1413 0.950 . S
C1409 C1418 1.390 . S
C1410 C1409 1.387 . S
C1410 C1412 1.387 . S
H1411 C1418 0.950 . S
C1412 C1410 1.387 . S
C1412 C1414 1.390 . S
C1412 H1416 0.950 . S
H1413 C1409 0.950 . S
C1414 C1412 1.390 . S
C1414 C1415 1.387 . S
C1414 H1417 0.950 . S
C1415 C1414 1.387 . S
C1415 C1418 1.387 . S
H1416 C1412 0.950 . S
H1417 C1414 0.950 . S
C1418 C1409 1.390 . S
C1418 H1411 0.950 . S
C1418 C1415 1.387 . S
C1419 C1420 1.387 . S
C1419 H1423 0.950 . S
C1419 C1428 1.390 . S
C1420 C1419 1.387 . S
C1420 C1422 1.387 . S
H1421 C1428 0.950 . S
C1422 C1420 1.387 . S
C1422 C1424 1.390 . S
C1422 H1426 0.950 . S
H1423 C1419 0.950 . S
C1424 C1422 1.390 . S
C1424 C1425 1.387 . S
C1424 H1427 0.950 . S
C1425 C1424 1.387 . S
C1425 C1428 1.387 . S
H1426 C1422 0.950 . S
H1427 C1424 0.950 . S
C1428 C1419 1.390 . S
C1428 H1421 0.950 . S
C1428 C1425 1.387 . S
C1429 C1430 1.387 . S
C1429 H1433 0.950 . S
C1429 C1438 1.390 . S
C1430 C1429 1.387 . S
C1430 C1432 1.387 . S
H1431 C1438 0.950 . S
C1432 C1430 1.387 . S
C1432 C1434 1.390 . S
C1432 H1436 0.950 . S
H1433 C1429 0.950 . S
C1434 C1432 1.390 . S
C1434 C1435 1.387 . S
C1434 H1437 0.950 . S
C1435 C1434 1.387 . S
C1435 C1438 1.387 . S
H1436 C1432 0.950 . S
H1437 C1434 0.950 . S
C1438 C1429 1.390 . S
C1438 H1431 0.950 . S
C1438 C1435 1.387 . S
C1439 C1440 1.387 . S
C1439 H1443 0.950 . S
C1439 C1448 1.390 . S
C1440 C1439 1.387 . S
C1440 C1442 1.387 . S
H1441 C1448 0.950 . S
C1442 C1440 1.387 . S
C1442 C1444 1.390 . S
C1442 H1446 0.950 . S
H1443 C1439 0.950 . S
C1444 C1442 1.390 . S
C1444 C1445 1.387 . S
C1444 H1447 0.950 . S
C1445 C1444 1.387 . S
C1445 C1448 1.387 . S
H1446 C1442 0.950 . S
H1447 C1444 0.950 . S
C1448 C1439 1.390 . S
C1448 H1441 0.950 . S
C1448 C1445 1.387 . S
C910 C522 1.605 . S
C915 C737 1.471 . S
C920 C562 1.595 . S
C925 C758 1.457 . S
C930 C495 1.511 . S
C935 C780 1.217 . S
C940 C455 1.527 . S
C945 C759 1.215 1_556 S
C955 C779 1.471 . S
C950 C362 1.619 . S
C960 C402 1.579 1_554 S
C965 C738 1.211 1_556 S
C975 C733 1.466 . S
C970 C442 1.490 . S
C985 C754 1.437 . S
C980 C375 1.488 1_554 S
C990 C415 1.591 1_554 S
C995 C777 1.241 1_556 S
C1000 C535 1.532 . S
C1005 C756 1.215 . S
C1010 C575 1.451 . S
C1015 C775 1.391 . S
C1025 C735 1.246 . S
C1020 C482 1.511 . S
C1035 C800 1.471 . S
C1030 C42 1.604 1_455 S
C1040 C82 1.595 . S
C1045 C821 1.457 . S
C1050 C15 1.508 1_565 S
C1055 C843 1.211 . S
C1060 C695 1.526 . S
C1065 C822 1.214 . S
C1070 C602 1.619 . S
C1075 C842 1.471 . S
C1080 C642 1.579 . S
C1085 C801 1.206 . S
C1090 C682 1.490 . S
C1095 C796 1.466 . S
C1100 C615 1.491 . S
C1105 C817 1.442 . S
C1115 C840 1.252 . S
C1110 C655 1.591 . S
C1120 C55 1.535 1_565 S
C1125 C819 1.222 . S
C1135 C838 1.387 . S
C1130 C95 1.449 1_455 S
C1140 C2 1.511 . S
C1145 C798 1.246 . S
C1155 C863 1.471 . S
C1150 C282 1.605 . S
C1160 C322 1.595 . S
C1165 C884 1.457 . S
C1175 C906 1.217 . S
C1170 C255 1.511 . S
C1185 C885 1.214 . S
C1180 C215 1.526 1_545 S
C1195 C905 1.466 . S
C1190 C122 1.617 1_655 S
C1200 C162 1.579 . S
C1205 C864 1.206 . S
C1210 C202 1.487 1_655 S
C1215 C859 1.461 . S
C1220 C135 1.488 . S
C1225 C880 1.437 . S
C1235 C903 1.252 . S
C1230 C175 1.591 1_545 S
C1240 C295 1.533 . S
C1245 C882 1.216 . S
C1250 C335 1.451 . S
C1255 C901 1.391 . S
C1260 C242 1.511 . S
C1265 C861 1.246 . S
C1270 C621 1.458 . S
C1275 C736 1.405 1_565 S
C1285 C757 1.463 . S
C1280 C661 1.511 . S
C1290 C701 1.514 . S
C1295 C776 1.531 . S
C1300 C261 1.557 . S
C1305 C755 1.564 1_655 S
C1310 C301 1.508 . S
C1315 C778 1.454 . S
C1325 C734 1.505 . S
C1320 C341 1.549 . S
C1330 C141 1.458 . S
C1335 C799 1.404 . S
C1340 C181 1.511 . S
C1345 C820 1.462 . S
C1350 C221 1.514 . S
C1355 C839 1.532 . S
C1360 C501 1.557 . S
C1365 C818 1.566 . S
C1375 C841 1.456 . S
C1370 C541 1.508 . S
C1380 C581 1.549 . S
C1385 C797 1.503 . S
C1390 C381 1.458 . S
C1395 C862 1.405 . S
C1400 C421 1.511 . S
C1405 C883 1.463 . S
C1415 C902 1.531 . S
C1410 C461 1.514 . S
C1420 C21 1.554 . S
C1425 C881 1.566 . S
C1430 C61 1.508 . S
C1435 C904 1.455 . S
C1440 C101 1.549 . S
C1445 C860 1.505 . S
