# Generated by pormake.
# Topology anh, (6,3)-cn, num edge types: 1
# Building blocks:
#     Node 0, Type 0, BuildingBlock: INOVEN_clean_sbu_0, # of connection points: 6
#     Node 1, Type 0, BuildingBlock: INOVEN_clean_sbu_0, # of connection points: 6
#     Node 2, Type 0, BuildingBlock: INOVEN_clean_sbu_0, # of connection points: 6
#     Node 3, Type 1, BuildingBlock: WUSLED_clean_sbu_0, # of connection points: 3
#     Node 4, Type 1, BuildingBlock: WUSLED_clean_sbu_0, # of connection points: 3
#     Node 5, Type 1, BuildingBlock: WUSLED_clean_sbu_0, # of connection points: 3
#     Node 6, Type 1, BuildingBlock: WUSLED_clean_sbu_0, # of connection points: 3
#     Node 7, Type 1, BuildingBlock: WUSLED_clean_sbu_0, # of connection points: 3
#     Node 8, Type 1, BuildingBlock: WUSLED_clean_sbu_0, # of connection points: 3
#     Edge 9, Type (0, 1), BuildingBlock: OJICUG_clean_linker_0, # of connection points: 2
#     Edge 10, Type (0, 1), BuildingBlock: OJICUG_clean_linker_0, # of connection points: 2
#     Edge 11, Type (0, 1), BuildingBlock: OJICUG_clean_linker_0, # of connection points: 2
#     Edge 12, Type (0, 1), BuildingBlock: OJICUG_clean_linker_0, # of connection points: 2
#     Edge 13, Type (0, 1), BuildingBlock: OJICUG_clean_linker_0, # of connection points: 2
#     Edge 14, Type (0, 1), BuildingBlock: OJICUG_clean_linker_0, # of connection points: 2
#     Edge 15, Type (0, 1), BuildingBlock: OJICUG_clean_linker_0, # of connection points: 2
#     Edge 16, Type (0, 1), BuildingBlock: OJICUG_clean_linker_0, # of connection points: 2
#     Edge 17, Type (0, 1), BuildingBlock: OJICUG_clean_linker_0, # of connection points: 2
#     Edge 18, Type (0, 1), BuildingBlock: OJICUG_clean_linker_0, # of connection points: 2
#     Edge 19, Type (0, 1), BuildingBlock: OJICUG_clean_linker_0, # of connection points: 2
#     Edge 20, Type (0, 1), BuildingBlock: OJICUG_clean_linker_0, # of connection points: 2
#     Edge 21, Type (0, 1), BuildingBlock: OJICUG_clean_linker_0, # of connection points: 2
#     Edge 22, Type (0, 1), BuildingBlock: OJICUG_clean_linker_0, # of connection points: 2
#     Edge 23, Type (0, 1), BuildingBlock: OJICUG_clean_linker_0, # of connection points: 2
#     Edge 24, Type (0, 1), BuildingBlock: OJICUG_clean_linker_0, # of connection points: 2
#     Edge 25, Type (0, 1), BuildingBlock: OJICUG_clean_linker_0, # of connection points: 2
#     Edge 26, Type (0, 1), BuildingBlock: OJICUG_clean_linker_0, # of connection points: 2
# Relax obj value: 0.191
# Max RMSD: 0.219
# Mean RMSD: 0.158
data_MOF--net-anh--node1-INOVEN_clean_sbu_0--node2-WUSLED_clean_sbu_0--edge1-OJICUG_clean_linker_0
_symmetry_space_group_name_H-M    P1
_symmetry_Int_Tables_number       1
_symmetry_cell_setting            triclinic
loop_
_symmetry_equiv_pos_as_xyz
'x, y, z'
_cell_length_a     32.230656
_cell_length_b     38.193109
_cell_length_c     55.17792
_cell_angle_alpha  92.982038
_cell_angle_beta   88.967902
_cell_angle_gamma 129.89779
loop_
_atom_site_label
_atom_site_type_symbol
_atom_site_fract_x
_atom_site_fract_y
_atom_site_fract_z
_atom_type_partial_charge
Gd0 Gd 0.13227 0.54069 0.16634 0.0
Gd1 Gd 1.0688 0.56994 0.17534 0.0
C2 C 0.19807 0.64929 0.17633 0.0
C3 C 0.19597 0.52528 0.15205 0.0
C4 C 0.25075 0.54979 0.14305 0.0
C5 C 0.27997 0.53677 0.15073 0.0
C6 C 0.27399 0.585 0.1269 0.0
C7 C 0.35361 0.59076 0.12444 0.0
C8 C 0.32516 0.60527 0.11755 0.0
C9 C 0.33087 0.55701 0.14155 0.0
C10 C 0.09828 0.53073 0.21249 0.0
C11 C 1.00482 0.46294 0.16878 0.0
C12 C 1.01613 0.59465 0.19311 0.0
C13 C 0.95789 0.56934 0.19461 0.0
C14 C 0.92213 0.5306 0.17912 0.0
C15 C 0.93745 0.58072 0.2131 0.0
C16 C 0.84546 0.51577 0.19988 0.0
C17 C 0.88159 0.55416 0.21572 0.0
C18 C 0.86646 0.50421 0.18164 0.0
C19 C 0.07189 0.54991 0.12739 0.0
O20 O 0.20128 0.61672 0.17198 0.0
O21 O 0.15089 0.63982 0.17766 0.0
O22 O 0.19286 0.53507 0.17468 0.0
O23 O 0.16033 0.52012 0.13762 0.0
O24 O 0.09697 0.50041 0.19998 0.0
O25 O 0.11728 0.56471 0.20004 0.0
O26 O 1.00594 0.49446 0.1806 0.0
O27 O 1.04813 0.47452 0.15737 0.0
O28 O 1.0365 0.60467 0.17133 0.0
O29 O 1.0333 0.57846 0.20615 0.0
O30 O 1.02894 0.53838 0.13822 0.0
O31 O 0.11133 0.57198 0.14235 0.0
H32 H 0.26264 0.50982 0.1633 0.0
H33 H 0.25213 0.59593 0.12108 0.0
H34 H 0.34176 0.63125 0.10444 0.0
H35 H 0.35095 0.54419 0.14687 0.0
H36 H 0.93729 0.5207 0.16509 0.0
H37 H 0.96466 0.60989 0.22559 0.0
H38 H 0.8667 0.56371 0.23009 0.0
H39 H 0.83996 0.47547 0.16882 0.0
Gd40 Gd 0.61695 1.00758 0.48322 0.0
Gd41 Gd 0.54942 0.03587 0.47956 0.0
C42 C 0.48669 0.92995 0.47215 0.0
C43 C 0.65748 0.97055 0.49659 0.0
C44 C 0.64322 0.92632 0.50222 0.0
C45 C 0.62411 0.89136 0.48419 0.0
C46 C 0.65334 0.92052 0.52572 0.0
C47 C 0.62778 0.84666 0.51292 0.0
C48 C 0.64557 0.88121 0.53104 0.0
C49 C 0.61651 0.85205 0.48949 0.0
C50 C 0.61145 0.02857 0.43812 0.0
C51 C 0.68188 0.1144 0.48339 0.0
C52 C 0.5107 0.07674 0.47182 0.0
C53 C 0.52288 0.11966 0.48097 0.0
C54 C 0.56867 0.15206 0.49578 0.0
C55 C 0.48765 0.12791 0.47536 0.0
C56 C 0.54336 0.20032 0.49953 0.0
C57 C 0.49771 0.16774 0.48453 0.0
C58 C 0.57888 0.19199 0.5049 0.0
C59 C 0.56038 0.01847 0.52506 0.0
O60 O 0.53064 0.94004 0.48202 0.0
O61 O 0.48604 0.96262 0.46601 0.0
O62 O 0.65416 0.97745 0.47398 0.0
O63 O 0.64231 0.98762 0.5119 0.0
O64 O 0.65433 0.03784 0.44759 0.0
O65 O 0.57209 1.00636 0.45241 0.0
O66 O 0.63477 0.10324 0.47801 0.0
O67 O 0.68544 0.08315 0.48898 0.0
O68 O 0.49085 0.04531 0.48755 0.0
O69 O 0.54719 0.08092 0.45824 0.0
O70 O 0.51629 1.00769 0.51639 0.0
O71 O 0.59717 0.03969 0.50968 0.0
H72 H 0.61595 0.89466 0.46587 0.0
H73 H 0.66869 0.94705 0.53992 0.0
H74 H 0.65533 0.87866 0.54919 0.0
H75 H 0.60203 0.82593 0.47515 0.0
H76 H 0.59624 0.14626 0.5005 0.0
H77 H 0.45209 0.10338 0.46397 0.0
H78 H 0.46982 0.17312 0.4797 0.0
H79 H 0.61402 0.21585 0.51662 0.0
Gd80 Gd 0.64081 0.5746 0.85405 0.0
Gd81 Gd 0.56496 0.47205 0.85193 0.0
C82 C 0.50665 0.51805 0.85891 0.0
C83 C 0.68926 0.65847 0.84363 0.0
C84 C 0.67693 0.68854 0.83781 0.0
C85 C 0.71658 0.73591 0.84233 0.0
C86 C 0.62727 0.67119 0.82718 0.0
C87 C 0.65769 0.74859 0.8255 0.0
C88 C 0.61778 0.70088 0.82107 0.0
C89 C 0.70718 0.76553 0.83628 0.0
C90 C 0.62106 0.53726 0.89703 0.0
C91 C 0.70031 0.52975 0.85629 0.0
C92 C 0.51712 0.38593 0.85563 0.0
C93 C 0.52687 0.35428 0.84722 0.0
C94 C 0.5748 0.37017 0.83552 0.0
C95 C 0.48734 0.30735 0.85059 0.0
C96 C 0.5431 0.29226 0.83041 0.0
C97 C 0.49528 0.2767 0.84229 0.0
C98 C 0.5829 0.33956 0.82727 0.0
C99 C 0.58442 0.50881 0.80845 0.0
O100 O 0.55588 0.55638 0.85342 0.0
O101 O 0.50096 0.48058 0.86222 0.0
O102 O 0.68106 0.64524 0.86587 0.0
O103 O 0.67496 0.62604 0.8274 0.0
O104 O 0.66782 0.57539 0.89164 0.0
O105 O 0.58675 0.52307 0.88028 0.0
O106 O 0.64935 0.4902 0.85645 0.0
O107 O 0.70821 0.56835 0.85371 0.0
O108 O 0.50507 0.40114 0.83884 0.0
O109 O 0.55099 0.41791 0.87199 0.0
O110 O 0.53793 0.4723 0.81491 0.0
O111 O 0.61966 0.52341 0.82491 0.0
H112 H 0.75532 0.75017 0.85036 0.0
H113 H 0.59591 0.63475 0.82351 0.0
H114 H 0.57895 0.68638 0.81309 0.0
H115 H 0.73928 0.80192 0.83967 0.0
H116 H 0.60579 0.40622 0.83256 0.0
H117 H 0.45009 0.2943 0.8596 0.0
H118 H 0.46401 0.24077 0.84538 0.0
H119 H 0.61994 0.3529 0.81797 0.0
C120 C 0.72598 0.17717 0.18235 0.0
C121 C 0.74339 0.20882 0.20204 0.0
C122 C 0.81692 0.27079 0.17792 0.0
C123 C 0.78839 0.25521 0.19983 0.0
C124 C 0.7991 0.23867 0.15836 0.0
C125 C 0.75426 0.19252 0.16058 0.0
U126 U 0.61429 0.06502 0.21482 0.0
O127 O 0.58509 0.99608 0.20339 0.0
O128 O 0.52977 1.01121 0.20234 0.0
C129 C 0.53617 0.98073 0.19805 0.0
C130 C 0.6783 0.12816 0.18359 0.0
C131 C 0.48948 0.93162 0.20083 0.0
C132 C 0.44439 0.85291 0.18662 0.0
C133 C 0.49087 0.89899 0.18892 0.0
C134 C 0.39419 0.87044 0.20916 0.0
C135 C 0.39492 0.83793 0.19624 0.0
C136 C 0.44081 0.91677 0.2113 0.0
C137 C 0.61832 0.07599 0.2868 0.0
C138 C 0.58091 0.02135 0.31848 0.0
C139 C 0.63426 0.10207 0.32933 0.0
C140 C 0.64043 0.11128 0.30479 0.0
C141 C 0.60541 0.0572 0.3365 0.0
C142 C 0.58767 0.03072 0.29372 0.0
C143 C 0.63273 0.08907 0.26142 0.0
O144 O 0.68691 0.10187 0.19222 0.0
O145 O 0.63309 0.11819 0.19118 0.0
O146 O 0.59985 0.08995 0.24825 0.0
O147 O 0.65498 0.07464 0.24913 0.0
H148 H 0.72224 0.19769 0.21906 0.0
H149 H 0.80121 0.27877 0.21539 0.0
H150 H 0.81929 0.24926 0.14112 0.0
H151 H 0.74138 0.16871 0.14512 0.0
H152 H 0.44688 0.8295 0.17623 0.0
H153 H 0.52748 0.90952 0.18024 0.0
H154 H 0.3573 0.8603 0.21726 0.0
H155 H 0.43821 0.94109 0.22042 0.0
H156 H 0.5587 0.98646 0.32353 0.0
H157 H 0.6532 0.1303 0.34278 0.0
H158 H 0.66427 0.14644 0.29984 0.0
H159 H 0.57044 1.00301 0.28009 0.0
C160 C 0.61157 0.61802 0.54524 0.0
C161 C 0.62502 0.65091 0.56355 0.0
C162 C 0.61505 0.69186 0.53477 0.0
C163 C 0.6268 0.68746 0.55837 0.0
C164 C 0.60127 0.65848 0.51657 0.0
C165 C 0.5996 0.62206 0.52177 0.0
U166 U 0.61062 0.54311 0.58937 0.0
O167 O 0.56116 0.46837 0.58891 0.0
O168 O 0.64959 0.5121 0.58743 0.0
C169 C 0.60316 0.47011 0.58678 0.0
C170 C 0.60941 0.5792 0.55028 0.0
C171 C 0.59798 0.4358 0.56987 0.0
C172 C 0.54622 0.37065 0.54042 0.0
C173 C 0.55384 0.40698 0.55355 0.0
C174 C 0.6274 0.39202 0.55912 0.0
C175 C 0.58242 0.36215 0.54332 0.0
C176 C 0.63495 0.42821 0.5722 0.0
C177 C 0.61774 0.57323 0.6583 0.0
C178 C 0.64612 0.55514 0.69282 0.0
C179 C 0.58529 0.57145 0.69874 0.0
C180 C 0.5871 0.5784 0.674 0.0
C181 C 0.61433 0.55932 0.70845 0.0
C182 C 0.64764 0.56183 0.66791 0.0
C183 C 0.61777 0.5805 0.63222 0.0
O184 O 0.65373 0.58987 0.55962 0.0
O185 O 0.56533 0.54502 0.56077 0.0
O186 O 0.57177 0.55006 0.6203 0.0
O187 O 0.66017 0.5932 0.6197 0.0
H188 H 0.63432 0.6484 0.58183 0.0
H189 H 0.63821 0.71264 0.57281 0.0
H190 H 0.59109 0.66012 0.49831 0.0
H191 H 0.58878 0.5969 0.50741 0.0
H192 H 0.51156 0.34889 0.52819 0.0
H193 H 0.52442 0.41171 0.55136 0.0
H194 H 0.65579 0.38641 0.56217 0.0
H195 H 0.66888 0.44941 0.58489 0.0
H196 H 0.66853 0.54541 0.69971 0.0
H197 H 0.5609 0.57543 0.7103 0.0
H198 H 0.56413 0.58757 0.66706 0.0
H199 H 0.67166 0.55765 0.6562 0.0
C200 C 0.98204 0.52909 0.87669 0.0
C201 C 0.92692 0.48986 0.8795 0.0
C202 C 0.89008 0.52982 0.87065 0.0
C203 C 0.88281 0.49026 0.87676 0.0
C204 C 0.94557 0.5691 0.868 0.0
C205 C 0.98959 0.56866 0.87083 0.0
U206 U 0.10644 0.52817 0.89671 0.0
O207 O 0.12851 0.48766 0.87917 0.0
O208 O 0.18585 0.5613 0.87841 0.0
C209 C 0.17785 0.52327 0.8733 0.0
C210 C 1.02974 0.52746 0.87598 0.0
C211 C 0.22609 0.52248 0.87476 0.0
C212 C 0.26217 0.48036 0.87058 0.0
C213 C 0.21821 0.48127 0.87253 0.0
C214 C 0.32538 0.56192 0.87287 0.0
C215 C 0.31773 0.52066 0.87045 0.0
C216 C 0.28137 0.56277 0.87483 0.0
C217 C 0.1017 0.53888 0.97012 0.0
C218 C 0.13341 0.58089 0.00975 0.0
C219 C 1.0497 0.50299 1.00686 0.0
C220 C 1.05619 0.50102 0.98162 0.0
C221 C 0.08888 0.54265 0.02145 0.0
C222 C 0.13969 0.57899 0.98455 0.0
C223 C 0.11578 0.53483 0.94465 0.0
O224 O 0.08022 0.56445 0.88064 0.0
O225 O 1.02227 0.49073 0.88175 0.0
O226 O 0.0835 0.4957 0.93196 0.0
O227 O 0.14217 0.57045 0.93113 0.0
H228 H 0.91734 0.45794 0.88346 0.0
H229 H 0.8425 0.45864 0.87941 0.0
H230 H 0.95585 0.60082 0.8631 0.0
H231 H 1.0302 0.59976 0.86773 0.0
H232 H 0.25178 0.44724 0.86851 0.0
H233 H 0.17731 0.44897 0.8717 0.0
H234 H 0.36592 0.59447 0.87325 0.0
H235 H 0.29105 0.59569 0.87596 0.0
H236 H 0.16407 0.61232 0.02012 0.0
H237 H 1.01503 0.47265 0.01508 0.0
H238 H 1.02656 0.46919 0.9713 0.0
H239 H 0.17575 0.60857 0.9765 0.0
C240 C 0.96795 0.39743 0.46933 0.0
C241 C 0.92414 0.37593 0.45289 0.0
C242 C 0.87548 0.30421 0.47348 0.0
C243 C 0.87835 0.32982 0.45497 0.0
C244 C 0.91998 0.3259 0.48961 0.0
C245 C 0.96554 0.37191 0.48755 0.0
U246 U 0.07348 0.51193 0.43777 0.0
O247 O 0.161 0.56128 0.44656 0.0
O248 O 0.11119 0.58179 0.45202 0.0
C249 C 0.15941 0.59364 0.45406 0.0
C250 C 1.01589 0.44651 0.46859 0.0
C251 C 0.20831 0.642 0.4515 0.0
C252 C 0.30019 0.70474 0.46599 0.0
C253 C 0.25511 0.65823 0.46447 0.0
C254 C 0.25362 0.72019 0.4407 0.0
C255 C 0.30028 0.73672 0.45432 0.0
C256 C 0.20796 0.67334 0.43943 0.0
C257 C 1.05258 0.5058 0.36659 0.0
C258 C 0.11149 0.54838 0.33288 0.0
C259 C 1.01544 0.48757 0.32556 0.0
C260 C 1.00825 0.4802 0.35034 0.0
C261 C 1.06722 0.52102 0.31644 0.0
C262 C 0.10429 0.54059 0.35782 0.0
C263 C 1.04319 0.49134 0.39177 0.0
O264 O 1.05843 0.4562 0.45766 0.0
O265 O 1.00718 0.47471 0.46381 0.0
O266 O 1.02604 0.50672 0.40726 0.0
O267 O 0.07708 0.48757 0.40144 0.0
H268 H 0.92513 0.39484 0.43859 0.0
H269 H 0.84526 0.31417 0.442 0.0
H270 H 0.91914 0.30765 0.50424 0.0
H271 H 0.99879 0.38782 0.50049 0.0
H272 H 0.33426 0.71561 0.47717 0.0
H273 H 0.25609 0.63498 0.47437 0.0
H274 H 0.25209 0.74342 0.43118 0.0
H275 H 0.17218 0.66185 0.42947 0.0
H276 H 0.15189 0.57427 0.32632 0.0
H277 H 0.98055 0.46629 0.31338 0.0
H278 H 0.96804 0.45312 0.35671 0.0
H279 H 0.13912 0.5606 0.37006 0.0
C280 C 0.6121 0.94104 0.78846 0.0
C281 C 0.62207 0.92049 0.77009 0.0
C282 C 0.62462 0.87642 0.79992 0.0
C283 C 0.6282 0.88849 0.77575 0.0
C284 C 0.61396 0.89687 0.81811 0.0
C285 C 0.60783 0.92871 0.81244 0.0
U286 U 0.59946 1.01099 0.74537 0.0
O287 O 0.63686 0.08386 0.7484 0.0
O288 O 0.54849 0.03077 0.74822 0.0
C289 C 0.59009 0.07481 0.75001 0.0
C290 C 0.60659 0.97567 0.7833 0.0
C291 C 0.58667 0.10474 0.76683 0.0
C292 C 0.53366 0.1172 0.79212 0.0
C293 C 0.53968 0.08746 0.77996 0.0
C294 C 0.62194 0.1821 0.77891 0.0
C295 C 0.57423 0.16503 0.79136 0.0
C296 C 0.62795 0.15241 0.7668 0.0
C297 C 0.59899 0.99158 0.67591 0.0
C298 C 0.56487 1.01107 0.64495 0.0
C299 C 0.62025 0.9909 0.63338 0.0
C300 C 0.62465 0.98487 0.65775 0.0
C301 C 0.58978 1.00358 0.6266 0.0
C302 C 0.56955 1.00526 0.66936 0.0
C303 C 0.60199 0.98252 0.7013 0.0
O304 O 0.64857 1.01308 0.77365 0.0
O305 O 0.56035 0.96011 0.77347 0.0
O306 O 0.55753 0.96226 0.71384 0.0
O307 O 0.64573 0.0157 0.71386 0.0
H308 H 0.62554 0.92947 0.75143 0.0
H309 H 0.63683 0.87392 0.76124 0.0
H310 H 0.60991 0.88804 0.83683 0.0
H311 H 0.59989 0.94391 0.8269 0.0
H312 H 0.49668 0.10259 0.8018 0.0
H313 H 0.50673 0.05098 0.78022 0.0
H314 H 0.65386 0.21853 0.77753 0.0
H315 H 0.66417 0.16693 0.75647 0.0
H316 H 0.54176 0.0215 0.64045 0.0
H317 H 0.63953 0.98442 0.61976 0.0
H318 H 0.6475 0.97424 0.66239 0.0
H319 H 0.54968 1.01096 0.68307 0.0
C320 C 0.5626 0.42921 0.14265 0.0
C321 C 0.58562 0.40916 0.13599 0.0
C322 C 0.62799 0.43034 0.17603 0.0
C323 C 0.61808 0.40962 0.15261 0.0
C324 C 0.59859 0.44448 0.18352 0.0
C325 C 0.56638 0.44426 0.16681 0.0
U326 U 0.5457 0.43981 0.07629 0.0
O327 O 0.57671 0.50142 0.05759 0.0
O328 O 0.48929 0.44394 0.05752 0.0
C329 C 0.52814 0.48672 0.05227 0.0
C330 C 0.54644 0.44416 0.12384 0.0
C331 C 0.5182 0.51862 0.05865 0.0
C332 C 0.54054 0.58487 0.08177 0.0
C333 C 0.55341 0.55739 0.07437 0.0
C334 C 0.45843 0.53635 0.05708 0.0
C335 C 0.49191 0.57373 0.07389 0.0
C336 C 0.47165 0.50927 0.04947 0.0
C337 C 0.56888 0.3952 0.02315 0.0
C338 C 0.53347 0.4034 0.98738 0.0
C339 C 0.62522 0.43107 0.98792 0.0
C340 C 0.61773 0.41511 0.0112 0.0
C341 C 0.58412 0.42779 0.97635 0.0
C342 C 0.52583 0.38703 0.01036 0.0
C343 C 0.56764 0.39531 0.04992 0.0
O344 O 0.58709 0.47609 0.11083 0.0
O345 O 0.503 0.41199 0.11073 0.0
O346 O 0.51972 0.37484 0.05941 0.0
O347 O 0.60579 0.43557 0.06063 0.0
H348 H 0.58309 0.39747 0.11733 0.0
H349 H 0.64013 0.39852 0.14615 0.0
H350 H 0.60463 0.45979 0.20158 0.0
H351 H 0.54861 0.45971 0.17221 0.0
H352 H 0.56758 0.61372 0.09445 0.0
H353 H 0.59004 0.56577 0.08157 0.0
H354 H 0.42016 0.52607 0.05089 0.0
H355 H 0.44423 0.47979 0.03717 0.0
H356 H 0.50074 0.40024 0.97936 0.0
H357 H 0.66427 0.4484 0.97966 0.0
H358 H 0.65158 0.42186 0.02065 0.0
H359 H 0.48756 0.37198 0.01894 0.0
C360 C 0.40223 0.60326 0.08595 0.0
C361 C 0.4023 0.60459 0.11144 0.0
H362 H 0.43295 0.59436 0.0537 0.0
C363 C 0.44301 0.60877 0.12391 0.0
H364 H 0.37178 0.60055 0.07577 0.0
C365 C 0.47691 0.60377 0.1113 0.0
C366 C 0.47125 0.59537 0.08596 0.0
H367 H 0.44497 0.61117 0.14357 0.0
H368 H 0.50329 0.60167 0.12176 0.0
C369 C 0.43682 0.59904 0.0733 0.0
C370 C 0.78348 0.17693 0.48549 0.0
C371 C 0.73166 0.16313 0.48188 0.0
H372 H 0.86924 0.23173 0.48533 0.0
C373 C 0.72771 0.19623 0.47568 0.0
H374 H 0.78821 0.15244 0.49012 0.0
C375 C 0.77412 0.24166 0.47293 0.0
C376 C 0.826 0.2555 0.47632 0.0
H377 H 0.68861 0.1871 0.47277 0.0
H378 H 0.76924 0.26609 0.46838 0.0
C379 C 0.83002 0.22252 0.48277 0.0
C380 C 0.66805 0.81964 0.8341 0.0
C381 C 0.64821 0.78075 0.81897 0.0
H382 H 0.6771 0.88009 0.83995 0.0
C383 C 0.62023 0.77352 0.79743 0.0
H384 H 0.68924 0.8263 0.85097 0.0
C385 C 0.61274 0.8044 0.79117 0.0
C386 C 0.63271 0.84333 0.80633 0.0
H387 H 0.60476 0.74431 0.78515 0.0
H388 H 0.59072 0.79744 0.77454 0.0
C389 C 0.66047 0.85036 0.82789 0.0
C390 C 0.76744 0.51483 0.20346 0.0
C391 C 0.78641 0.49053 0.20052 0.0
H392 H 0.70192 0.51446 0.1983 0.0
C393 C 0.74905 0.4432 0.19478 0.0
H394 H 0.79502 0.55131 0.20778 0.0
C395 C 0.69511 0.4218 0.1893 0.0
C396 C 0.67768 0.44739 0.18955 0.0
H397 H 0.76221 0.42327 0.19306 0.0
H398 H 0.66808 0.38605 0.18319 0.0
C399 C 0.71363 0.49347 0.19809 0.0
C400 C 0.38695 0.86684 0.46293 0.0
C401 C 0.43894 0.88104 0.46666 0.0
H402 H 0.3025 0.8106 0.45669 0.0
C403 C 0.44528 0.84787 0.46501 0.0
H404 H 0.38065 0.89152 0.46405 0.0
C405 C 0.40086 0.80169 0.46014 0.0
C406 C 0.34828 0.78688 0.45727 0.0
H407 H 0.48485 0.85759 0.46733 0.0
H408 H 0.40803 0.77759 0.45866 0.0
C409 C 0.34213 0.82032 0.45849 0.0
C410 C 0.60188 0.27045 0.82245 0.0
C411 C 0.55094 0.25924 0.82104 0.0
H412 H 0.64897 0.24965 0.81494 0.0
C413 C 0.50753 0.21623 0.81035 0.0
H414 H 0.63613 0.30285 0.83088 0.0
C415 C 0.5149 0.18563 0.80115 0.0
C416 C 0.56593 0.19695 0.80235 0.0
H417 H 0.46789 0.2065 0.80853 0.0
H418 H 0.4807 0.15351 0.79248 0.0
C419 C 0.60923 0.23979 0.81329 0.0
C420 C 0.63992 0.78887 0.50141 0.0
C421 C 0.62295 0.80613 0.51829 0.0
H422 H 0.65192 0.74049 0.49345 0.0
C423 C 0.60284 0.78513 0.54058 0.0
H424 H 0.65654 0.80458 0.48425 0.0
C425 C 0.60007 0.74815 0.54588 0.0
C426 C 0.61743 0.73109 0.52907 0.0
H427 H 0.5887 0.797 0.55391 0.0
H428 H 0.58367 0.73258 0.56309 0.0
C429 C 0.63728 0.75199 0.50673 0.0
C430 C 0.80416 0.57082 0.86143 0.0
C431 C 0.74917 0.53014 0.85958 0.0
H432 H 0.88855 0.60362 0.86643 0.0
C433 C 0.74178 0.48943 0.86147 0.0
H434 H 0.81346 0.60341 0.86033 0.0
C435 C 0.78589 0.48932 0.8649 0.0
C436 C 0.84125 0.52999 0.86686 0.0
H437 H 0.70115 0.45683 0.86026 0.0
H438 H 0.77573 0.45642 0.86581 0.0
C439 C 0.84837 0.57077 0.86495 0.0
C440 C 0.2985 0.70792 0.18484 0.0
C441 C 0.24854 0.6975 0.181 0.0
H442 H 0.3829 0.7594 0.19348 0.0
C443 C 0.24696 0.73353 0.1826 0.0
H444 H 0.30129 0.68109 0.18404 0.0
C445 C 0.29405 0.77872 0.18774 0.0
C446 C 0.34415 0.78929 0.19167 0.0
H447 H 0.20929 0.72693 0.17971 0.0
H448 H 0.29116 0.80547 0.18816 0.0
C449 C 0.34552 0.75307 0.19022 0.0
C450 C 0.60599 0.2847 0.51197 0.0
C451 C 0.55328 0.24226 0.50989 0.0
H452 H 0.65645 0.35564 0.52345 0.0
C453 C 0.51011 0.24009 0.51815 0.0
H454 H 0.6402 0.28801 0.50545 0.0
C455 C 0.51944 0.27897 0.52851 0.0
C456 C 0.57223 0.32129 0.53092 0.0
H457 H 0.46903 0.20798 0.51722 0.0
H458 H 0.48525 0.27545 0.53528 0.0
C459 C 0.61532 0.32361 0.5223 0.0
C460 C 0.46346 0.55763 0.85825 0.0
C461 C 0.45797 0.51821 0.86188 0.0
H462 H 0.42787 0.58994 0.85746 0.0
C463 C 0.40503 0.47951 0.86844 0.0
H464 H 0.50239 0.58864 0.85314 0.0
C465 C 0.36098 0.48023 0.87116 0.0
C466 C 0.36629 0.51974 0.86756 0.0
H467 H 0.3973 0.44806 0.87161 0.0
H468 H 0.32245 0.44918 0.87646 0.0
C469 C 0.41952 0.55839 0.86096 0.0
C470 C 0.9552 0.37909 0.15971 0.0
C471 C 0.95597 0.41386 0.17019 0.0
H472 H 0.91171 0.30718 0.15427 0.0
C473 C 0.9104 0.40118 0.18308 0.0
H474 H 0.98961 0.38745 0.14979 0.0
C475 C 0.86554 0.35501 0.18564 0.0
C476 C 0.86488 0.32016 0.17532 0.0
H477 H 0.90939 0.42694 0.1914 0.0
H478 H 0.8311 0.34665 0.19551 0.0
C479 C 0.91032 0.33292 0.16224 0.0
C480 C 0.12646 0.56777 0.08949 0.0
C481 C 0.07624 0.54694 0.10041 0.0
H482 H 0.16989 0.58264 0.05642 0.0
C483 C 1.03007 0.52408 0.0852 0.0
H484 H 0.16284 0.5855 0.1006 0.0
C485 C 1.03401 0.52243 0.05978 0.0
C486 C 0.08435 0.54385 0.04873 0.0
H487 H 0.99071 0.50764 0.09294 0.0
H488 H 0.99758 0.50501 0.04877 0.0
C489 C 0.13048 0.56638 0.06406 0.0
C490 C 0.65602 0.06852 0.40021 0.0
C491 C 0.60808 0.03605 0.41242 0.0
H492 H 0.69246 0.10048 0.36684 0.0
C493 C 0.55847 1.01023 0.39954 0.0
H494 H 0.69483 0.0889 0.40966 0.0
C495 C 0.55719 0.01635 0.37472 0.0
C496 C 0.60537 0.04912 0.36261 0.0
H497 H 0.52092 0.98479 0.4085 0.0
H498 H 0.51863 0.99593 0.36507 0.0
C499 C 0.65466 0.07521 0.3757 0.0
C500 C 0.6464 0.55339 0.77374 0.0
C501 C 0.59435 0.52482 0.7835 0.0
H502 H 0.69373 0.58649 0.74209 0.0
C503 C 0.54979 0.50888 0.76867 0.0
H504 H 0.68143 0.56604 0.78478 0.0
C505 C 0.5567 0.52061 0.74455 0.0
C506 C 0.60841 0.54838 0.73447 0.0
H507 H 0.50915 0.4868 0.77566 0.0
H508 H 0.5212 0.50698 0.7336 0.0
C509 C 0.65333 0.56477 0.74932 0.0
C510 C 0.6192 0.03164 0.55986 0.0
C511 C 0.56841 1.01441 0.55083 0.0
H512 H 0.666 0.0421 0.59084 0.0
C513 C 0.52493 0.99374 0.56682 0.0
H514 H 0.65358 0.04806 0.54801 0.0
C515 C 0.53202 0.99052 0.59132 0.0
C516 C 0.58276 1.0077 0.60048 0.0
H517 H 0.48524 0.98004 0.56042 0.0
H518 H 0.49742 0.97393 0.60304 0.0
C519 C 0.62626 0.02816 0.58439 0.0
C520 C 0.5618 0.46602 0.91952 0.0
C521 C 0.61224 0.5094 0.91712 0.0
H522 H 0.51448 0.40475 0.93869 0.0
C523 C 0.65443 0.52495 0.93345 0.0
H524 H 0.52847 0.45325 0.9072 0.0
C525 C 0.64594 0.4978 0.95217 0.0
C526 C 0.5953 0.45417 0.95467 0.0
H527 H 0.69378 0.55833 0.93196 0.0
H528 H 0.67866 0.5118 0.9651 0.0
C529 C 0.55372 0.43834 0.93773 0.0
C530 C 0.11069 0.56873 0.25354 0.0
C531 C 0.08889 0.52893 0.23891 0.0
H532 H 0.1218 0.59766 0.28977 0.0
C533 C 1.05961 0.48693 0.24988 0.0
H534 H 0.13362 0.6016 0.24552 0.0
C535 C 1.05235 0.48463 0.27495 0.0
C536 C 0.07487 0.52438 0.28974 0.0
H537 H 1.04236 0.45573 0.23905 0.0
H538 H 1.02984 0.4517 0.28287 0.0
C539 C 0.10425 0.56655 0.27881 0.0
loop_
_geom_bond_atom_site_label_1
_geom_bond_atom_site_label_2
_geom_bond_distance
_geom_bond_site_symmetry_2
_ccdc_geom_bond_type
Gd0 C3 2.818 . S
Gd0 O20 2.377 . S
Gd0 O22 2.448 . S
Gd0 O23 2.506 . S
Gd0 O24 2.435 . S
Gd0 O25 2.717 . S
Gd0 O27 2.395 1_455 S
Gd0 O31 2.327 . S
Gd1 C12 2.818 . S
Gd1 O21 2.395 1_655 S
Gd1 O25 2.327 1_655 S
Gd1 O26 2.377 . S
Gd1 O28 2.448 . S
Gd1 O29 2.506 . S
Gd1 O30 2.441 . S
Gd1 O31 2.717 1_655 S
C2 O20 1.240 . S
C2 O21 1.240 . S
C3 Gd0 2.818 . S
C3 C4 1.510 . S
C3 O22 1.249 . S
C3 O23 1.252 . S
C4 C3 1.510 . S
C4 C5 1.404 . S
C4 C6 1.352 . S
C5 C4 1.404 . S
C5 C9 1.389 . S
C5 H32 0.930 . S
C6 C4 1.352 . S
C6 C8 1.374 . S
C6 H33 0.931 . S
C7 C8 1.359 . S
C7 C9 1.364 . S
C8 C6 1.374 . S
C8 C7 1.359 . S
C8 H34 0.931 . S
C9 C5 1.389 . S
C9 C7 1.364 . S
C9 H35 0.931 . S
C10 O24 1.256 . S
C10 O25 1.257 . S
C11 O26 1.240 . S
C11 O27 1.240 . S
C12 Gd1 2.818 . S
C12 C13 1.510 . S
C12 O28 1.249 . S
C12 O29 1.252 . S
C13 C12 1.510 . S
C13 C14 1.404 . S
C13 C15 1.352 . S
C14 C13 1.404 . S
C14 C18 1.389 . S
C14 H36 0.930 . S
C15 C13 1.352 . S
C15 C17 1.374 . S
C15 H37 0.931 . S
C16 C17 1.359 . S
C16 C18 1.364 . S
C17 C15 1.374 . S
C17 C16 1.359 . S
C17 H38 0.931 . S
C18 C14 1.389 . S
C18 C16 1.364 . S
C18 H39 0.931 . S
C19 O30 1.228 1_455 S
C19 O31 1.257 . S
O20 Gd0 2.377 . S
O20 C2 1.240 . S
O21 Gd1 2.395 1_455 S
O21 C2 1.240 . S
O22 Gd0 2.448 . S
O22 C3 1.249 . S
O23 Gd0 2.506 . S
O23 C3 1.252 . S
O24 Gd0 2.435 . S
O24 C10 1.256 . S
O25 Gd0 2.717 . S
O25 Gd1 2.327 1_455 S
O25 C10 1.257 . S
O26 Gd1 2.377 . S
O26 C11 1.240 . S
O27 Gd0 2.395 1_655 S
O27 C11 1.240 . S
O28 Gd1 2.448 . S
O28 C12 1.249 . S
O29 Gd1 2.506 . S
O29 C12 1.252 . S
O30 Gd1 2.441 . S
O30 C19 1.228 1_655 S
O31 Gd0 2.327 . S
O31 Gd1 2.717 1_455 S
O31 C19 1.257 . S
H32 C5 0.930 . S
H33 C6 0.931 . S
H34 C8 0.931 . S
H35 C9 0.931 . S
H36 C14 0.930 . S
H37 C15 0.931 . S
H38 C17 0.931 . S
H39 C18 0.931 . S
Gd40 C43 2.818 . S
Gd40 O60 2.377 . S
Gd40 O62 2.448 . S
Gd40 O63 2.506 . S
Gd40 O64 2.435 . S
Gd40 O65 2.717 1_565 S
Gd40 O67 2.395 1_565 S
Gd40 O71 2.327 1_565 S
Gd41 C52 2.818 . S
Gd41 O61 2.395 1_545 S
Gd41 O65 2.327 . S
Gd41 O66 2.377 . S
Gd41 O68 2.448 . S
Gd41 O69 2.506 . S
Gd41 O70 2.435 . S
Gd41 O71 2.717 . S
C42 O60 1.240 . S
C42 O61 1.240 . S
C43 Gd40 2.818 . S
C43 C44 1.510 . S
C43 O62 1.249 . S
C43 O63 1.252 . S
C44 C43 1.510 . S
C44 C45 1.404 . S
C44 C46 1.352 . S
C45 C44 1.404 . S
C45 C49 1.389 . S
C45 H72 0.930 . S
C46 C44 1.352 . S
C46 C48 1.374 . S
C46 H73 0.931 . S
C47 C48 1.359 . S
C47 C49 1.364 . S
C48 C46 1.374 . S
C48 C47 1.359 . S
C48 H74 0.931 . S
C49 C45 1.389 . S
C49 C47 1.364 . S
C49 H75 0.931 . S
C50 O64 1.256 1_545 S
C50 O65 1.257 . S
C51 O66 1.240 . S
C51 O67 1.240 . S
C52 Gd41 2.818 . S
C52 C53 1.510 . S
C52 O68 1.249 . S
C52 O69 1.252 . S
C53 C52 1.510 . S
C53 C54 1.404 . S
C53 C55 1.352 . S
C54 C53 1.404 . S
C54 C58 1.389 . S
C54 H76 0.930 . S
C55 C53 1.352 . S
C55 C57 1.374 . S
C55 H77 0.931 . S
C56 C57 1.359 . S
C56 C58 1.364 . S
C57 C55 1.374 . S
C57 C56 1.359 . S
C57 H78 0.931 . S
C58 C54 1.389 . S
C58 C56 1.364 . S
C58 H79 0.931 . S
C59 O70 1.256 . S
C59 O71 1.257 . S
O60 Gd40 2.377 . S
O60 C42 1.240 . S
O61 Gd41 2.395 1_565 S
O61 C42 1.240 . S
O62 Gd40 2.448 . S
O62 C43 1.249 . S
O63 Gd40 2.506 . S
O63 C43 1.252 . S
O64 Gd40 2.435 . S
O64 C50 1.256 1_565 S
O65 Gd40 2.717 1_545 S
O65 Gd41 2.327 . S
O65 C50 1.257 . S
O66 Gd41 2.377 . S
O66 C51 1.240 . S
O67 Gd40 2.395 1_545 S
O67 C51 1.240 . S
O68 Gd41 2.448 . S
O68 C52 1.249 . S
O69 Gd41 2.506 . S
O69 C52 1.252 . S
O70 Gd41 2.435 . S
O70 C59 1.256 . S
O71 Gd40 2.327 1_545 S
O71 Gd41 2.717 . S
O71 C59 1.257 . S
H72 C45 0.930 . S
H73 C46 0.931 . S
H74 C48 0.931 . S
H75 C49 0.931 . S
H76 C54 0.930 . S
H77 C55 0.931 . S
H78 C57 0.931 . S
H79 C58 0.931 . S
Gd80 C83 2.818 . S
Gd80 O100 2.377 . S
Gd80 O102 2.448 . S
Gd80 O103 2.506 . S
Gd80 O104 2.435 . S
Gd80 O105 2.717 . S
Gd80 O107 2.395 . S
Gd80 O111 2.327 . S
Gd81 C92 2.818 . S
Gd81 O101 2.395 . S
Gd81 O105 2.327 . S
Gd81 O106 2.377 . S
Gd81 O108 2.448 . S
Gd81 O109 2.506 . S
Gd81 O110 2.435 . S
Gd81 O111 2.717 . S
C82 O100 1.240 . S
C82 O101 1.240 . S
C83 Gd80 2.818 . S
C83 C84 1.510 . S
C83 O102 1.249 . S
C83 O103 1.252 . S
C84 C83 1.510 . S
C84 C85 1.404 . S
C84 C86 1.352 . S
C85 C84 1.404 . S
C85 C89 1.389 . S
C85 H112 0.930 . S
C86 C84 1.352 . S
C86 C88 1.374 . S
C86 H113 0.931 . S
C87 C88 1.359 . S
C87 C89 1.364 . S
C88 C86 1.374 . S
C88 C87 1.359 . S
C88 H114 0.931 . S
C89 C85 1.389 . S
C89 C87 1.364 . S
C89 H115 0.931 . S
C90 O104 1.256 . S
C90 O105 1.257 . S
C91 O106 1.240 . S
C91 O107 1.240 . S
C92 Gd81 2.818 . S
C92 C93 1.510 . S
C92 O108 1.249 . S
C92 O109 1.252 . S
C93 C92 1.510 . S
C93 C94 1.404 . S
C93 C95 1.352 . S
C94 C93 1.404 . S
C94 C98 1.389 . S
C94 H116 0.930 . S
C95 C93 1.352 . S
C95 C97 1.374 . S
C95 H117 0.931 . S
C96 C97 1.359 . S
C96 C98 1.364 . S
C97 C95 1.374 . S
C97 C96 1.359 . S
C97 H118 0.931 . S
C98 C94 1.389 . S
C98 C96 1.364 . S
C98 H119 0.931 . S
C99 O110 1.256 . S
C99 O111 1.257 . S
O100 Gd80 2.377 . S
O100 C82 1.240 . S
O101 Gd81 2.395 . S
O101 C82 1.240 . S
O102 Gd80 2.448 . S
O102 C83 1.249 . S
O103 Gd80 2.506 . S
O103 C83 1.252 . S
O104 Gd80 2.435 . S
O104 C90 1.256 . S
O105 Gd80 2.717 . S
O105 Gd81 2.327 . S
O105 C90 1.257 . S
O106 Gd81 2.377 . S
O106 C91 1.240 . S
O107 Gd80 2.395 . S
O107 C91 1.240 . S
O108 Gd81 2.448 . S
O108 C92 1.249 . S
O109 Gd81 2.506 . S
O109 C92 1.252 . S
O110 Gd81 2.435 . S
O110 C99 1.256 . S
O111 Gd80 2.327 . S
O111 Gd81 2.717 . S
O111 C99 1.257 . S
H112 C85 0.930 . S
H113 C86 0.931 . S
H114 C88 0.931 . S
H115 C89 0.931 . S
H116 C94 0.930 . S
H117 C95 0.931 . S
H118 C97 0.931 . S
H119 C98 0.931 . S
C120 C121 1.264 . S
C120 C125 1.479 . S
C120 C130 1.465 . S
C121 C120 1.264 . S
C121 C123 1.339 . S
C121 H148 0.931 . S
C122 C123 1.395 . S
C122 C124 1.320 . S
C123 C121 1.339 . S
C123 C122 1.395 . S
C123 H149 0.929 . S
C124 C122 1.320 . S
C124 C125 1.405 . S
C124 H150 0.930 . S
C125 C120 1.479 . S
C125 C124 1.405 . S
C125 H151 0.931 . S
U126 O127 2.454 1_545 S
U126 O128 2.458 1_545 S
U126 C129 2.984 1_545 S
U126 C130 2.847 . S
U126 C143 2.882 . S
U126 O144 2.441 . S
U126 O145 2.420 . S
U126 O146 2.455 1_545 S
U126 O147 2.449 . S
O127 U126 2.454 1_565 S
O127 C129 1.353 . S
O128 U126 2.458 1_565 S
O128 C129 1.286 . S
C129 U126 2.984 1_565 S
C129 O127 1.353 . S
C129 O128 1.286 . S
C129 C131 1.363 . S
C130 C120 1.465 . S
C130 U126 2.847 . S
C130 O144 1.249 . S
C130 O145 1.202 . S
C131 C129 1.363 . S
C131 C133 1.408 . S
C131 C136 1.342 . S
C132 C133 1.310 . S
C132 C135 1.461 . S
C132 H152 0.932 . S
C133 C131 1.408 . S
C133 C132 1.310 . S
C133 H153 0.930 . S
C134 C135 1.474 . S
C134 C136 1.285 . S
C134 H154 0.929 . S
C135 C132 1.461 . S
C135 C134 1.474 . S
C136 C131 1.342 . S
C136 C134 1.285 . S
C136 H155 0.930 . S
C137 C140 1.424 . S
C137 C142 1.245 1_545 S
C137 C143 1.428 . S
C138 C141 1.260 . S
C138 C142 1.477 1_545 S
C138 H156 0.932 1_545 S
C139 C140 1.384 . S
C139 C141 1.479 . S
C139 H157 0.929 . S
C140 C137 1.424 . S
C140 C139 1.384 . S
C140 H158 0.928 . S
C141 C138 1.260 . S
C141 C139 1.479 . S
C142 C137 1.245 1_565 S
C142 C138 1.477 1_565 S
C142 H159 0.932 . S
C143 U126 2.882 . S
C143 C137 1.428 . S
C143 O146 1.301 1_545 S
C143 O147 1.282 . S
O144 U126 2.441 . S
O144 C130 1.249 . S
O145 U126 2.420 . S
O145 C130 1.202 . S
O146 U126 2.455 1_565 S
O146 C143 1.301 1_565 S
O147 U126 2.449 . S
O147 C143 1.282 . S
H148 C121 0.931 . S
H149 C123 0.929 . S
H150 C124 0.930 . S
H151 C125 0.931 . S
H152 C132 0.932 . S
H153 C133 0.930 . S
H154 C134 0.929 . S
H155 C136 0.930 . S
H156 C138 0.932 1_565 S
H157 C139 0.929 . S
H158 C140 0.928 . S
H159 C142 0.932 . S
C160 C161 1.264 . S
C160 C165 1.479 . S
C160 C170 1.465 . S
C161 C160 1.264 . S
C161 C163 1.339 . S
C161 H188 0.931 . S
C162 C163 1.395 . S
C162 C164 1.320 . S
C163 C161 1.339 . S
C163 C162 1.395 . S
C163 H189 0.929 . S
C164 C162 1.320 . S
C164 C165 1.405 . S
C164 H190 0.930 . S
C165 C160 1.479 . S
C165 C164 1.405 . S
C165 H191 0.931 . S
U166 O167 2.454 . S
U166 O168 2.458 . S
U166 C169 2.984 . S
U166 C170 2.847 . S
U166 C183 2.882 . S
U166 O184 2.441 . S
U166 O185 2.420 . S
U166 O186 2.455 . S
U166 O187 2.449 . S
O167 U166 2.454 . S
O167 C169 1.353 . S
O168 U166 2.458 . S
O168 C169 1.286 . S
C169 U166 2.984 . S
C169 O167 1.353 . S
C169 O168 1.286 . S
C169 C171 1.363 . S
C170 C160 1.465 . S
C170 U166 2.847 . S
C170 O184 1.249 . S
C170 O185 1.202 . S
C171 C169 1.363 . S
C171 C173 1.408 . S
C171 C176 1.342 . S
C172 C173 1.310 . S
C172 C175 1.461 . S
C172 H192 0.932 . S
C173 C171 1.408 . S
C173 C172 1.310 . S
C173 H193 0.930 . S
C174 C175 1.474 . S
C174 C176 1.285 . S
C174 H194 0.929 . S
C175 C172 1.461 . S
C175 C174 1.474 . S
C176 C171 1.342 . S
C176 C174 1.285 . S
C176 H195 0.930 . S
C177 C180 1.424 . S
C177 C182 1.245 . S
C177 C183 1.428 . S
C178 C181 1.260 . S
C178 C182 1.477 . S
C178 H196 0.932 . S
C179 C180 1.384 . S
C179 C181 1.479 . S
C179 H197 0.929 . S
C180 C177 1.424 . S
C180 C179 1.384 . S
C180 H198 0.928 . S
C181 C178 1.260 . S
C181 C179 1.479 . S
C182 C177 1.245 . S
C182 C178 1.477 . S
C182 H199 0.932 . S
C183 U166 2.882 . S
C183 C177 1.428 . S
C183 O186 1.301 . S
C183 O187 1.282 . S
O184 U166 2.441 . S
O184 C170 1.249 . S
O185 U166 2.420 . S
O185 C170 1.202 . S
O186 U166 2.455 . S
O186 C183 1.301 . S
O187 U166 2.449 . S
O187 C183 1.282 . S
H188 C161 0.931 . S
H189 C163 0.929 . S
H190 C164 0.930 . S
H191 C165 0.931 . S
H192 C172 0.932 . S
H193 C173 0.930 . S
H194 C174 0.929 . S
H195 C176 0.930 . S
H196 C178 0.932 . S
H197 C179 0.929 . S
H198 C180 0.928 . S
H199 C182 0.932 . S
C200 C201 1.264 . S
C200 C205 1.479 . S
C200 C210 1.465 . S
C201 C200 1.264 . S
C201 C203 1.339 . S
C201 H228 0.931 . S
C202 C203 1.395 . S
C202 C204 1.320 . S
C203 C201 1.339 . S
C203 C202 1.395 . S
C203 H229 0.929 . S
C204 C202 1.320 . S
C204 C205 1.405 . S
C204 H230 0.930 . S
C205 C200 1.479 . S
C205 C204 1.405 . S
C205 H231 0.931 . S
U206 O207 2.454 . S
U206 O208 2.458 . S
U206 C209 2.984 . S
U206 C210 2.847 1_455 S
U206 C223 2.882 . S
U206 O224 2.441 . S
U206 O225 2.420 1_455 S
U206 O226 2.455 . S
U206 O227 2.449 . S
O207 U206 2.454 . S
O207 C209 1.353 . S
O208 U206 2.458 . S
O208 C209 1.286 . S
C209 U206 2.984 . S
C209 O207 1.353 . S
C209 O208 1.286 . S
C209 C211 1.363 . S
C210 C200 1.465 . S
C210 U206 2.847 1_655 S
C210 O224 1.249 1_655 S
C210 O225 1.202 . S
C211 C209 1.363 . S
C211 C213 1.408 . S
C211 C216 1.342 . S
C212 C213 1.310 . S
C212 C215 1.461 . S
C212 H232 0.932 . S
C213 C211 1.408 . S
C213 C212 1.310 . S
C213 H233 0.930 . S
C214 C215 1.474 . S
C214 C216 1.285 . S
C214 H234 0.929 . S
C215 C212 1.461 . S
C215 C214 1.474 . S
C216 C211 1.342 . S
C216 C214 1.285 . S
C216 H235 0.930 . S
C217 C220 1.424 . S
C217 C222 1.245 . S
C217 C223 1.428 . S
C218 C221 1.246 1_556 S
C218 C222 1.504 . S
C218 H236 0.918 1_556 S
C219 C220 1.384 . S
C219 C221 1.479 1_556 S
C219 H237 0.929 1_456 S
C220 C217 1.424 . S
C220 C219 1.384 . S
C220 H238 0.928 1_455 S
C221 C218 1.246 1_554 S
C221 C219 1.479 1_554 S
C222 C217 1.245 . S
C222 C218 1.504 . S
C222 H239 0.932 . S
C223 U206 2.882 . S
C223 C217 1.428 . S
C223 O226 1.301 . S
C223 O227 1.282 . S
O224 U206 2.441 . S
O224 C210 1.249 1_455 S
O225 U206 2.420 1_655 S
O225 C210 1.202 . S
O226 U206 2.455 . S
O226 C223 1.301 . S
O227 U206 2.449 . S
O227 C223 1.282 . S
H228 C201 0.931 . S
H229 C203 0.929 . S
H230 C204 0.930 . S
H231 C205 0.931 . S
H232 C212 0.932 . S
H233 C213 0.930 . S
H234 C214 0.929 . S
H235 C216 0.930 . S
H236 C218 0.918 1_554 S
H237 C219 0.929 1_654 S
H238 C220 0.928 1_655 S
H239 C222 0.932 . S
C240 C241 1.264 . S
C240 C245 1.479 . S
C240 C250 1.465 . S
C241 C240 1.264 . S
C241 C243 1.339 . S
C241 H268 0.931 . S
C242 C243 1.395 . S
C242 C244 1.320 . S
C243 C241 1.339 . S
C243 C242 1.395 . S
C243 H269 0.929 . S
C244 C242 1.320 . S
C244 C245 1.405 . S
C244 H270 0.930 . S
C245 C240 1.479 . S
C245 C244 1.405 . S
C245 H271 0.931 . S
U246 O247 2.454 1_655 S
U246 O248 2.458 1_655 S
U246 C249 2.984 1_655 S
U246 C250 2.847 . S
U246 C263 2.882 . S
U246 O264 2.441 . S
U246 O265 2.420 . S
U246 O266 2.455 1_655 S
U246 O267 2.449 . S
O247 U246 2.454 1_455 S
O247 C249 1.353 . S
O248 U246 2.458 1_455 S
O248 C249 1.286 . S
C249 U246 2.984 1_455 S
C249 O247 1.353 . S
C249 O248 1.286 . S
C249 C251 1.363 . S
C250 C240 1.465 . S
C250 U246 2.847 . S
C250 O264 1.249 . S
C250 O265 1.202 . S
C251 C249 1.363 . S
C251 C253 1.408 . S
C251 C256 1.342 . S
C252 C253 1.310 . S
C252 C255 1.461 . S
C252 H272 0.932 . S
C253 C251 1.408 . S
C253 C252 1.310 . S
C253 H273 0.930 . S
C254 C255 1.474 . S
C254 C256 1.285 . S
C254 H274 0.929 . S
C255 C252 1.461 . S
C255 C254 1.474 . S
C256 C251 1.342 . S
C256 C254 1.285 . S
C256 H275 0.930 . S
C257 C260 1.424 . S
C257 C262 1.245 1_655 S
C257 C263 1.428 . S
C258 C261 1.260 1_455 S
C258 C262 1.477 . S
C258 H276 0.932 . S
C259 C260 1.384 . S
C259 C261 1.479 . S
C259 H277 0.929 . S
C260 C257 1.424 . S
C260 C259 1.384 . S
C260 H278 0.928 . S
C261 C258 1.260 1_655 S
C261 C259 1.479 . S
C262 C257 1.245 1_455 S
C262 C258 1.477 . S
C262 H279 0.932 . S
C263 U246 2.882 . S
C263 C257 1.428 . S
C263 O266 1.301 1_655 S
C263 O267 1.282 . S
O264 U246 2.441 . S
O264 C250 1.249 . S
O265 U246 2.420 . S
O265 C250 1.202 . S
O266 U246 2.455 1_455 S
O266 C263 1.301 1_455 S
O267 U246 2.449 . S
O267 C263 1.282 . S
H268 C241 0.931 . S
H269 C243 0.929 . S
H270 C244 0.930 . S
H271 C245 0.931 . S
H272 C252 0.932 . S
H273 C253 0.930 . S
H274 C254 0.929 . S
H275 C256 0.930 . S
H276 C258 0.932 . S
H277 C259 0.929 . S
H278 C260 0.928 . S
H279 C262 0.932 . S
C280 C281 1.264 . S
C280 C285 1.479 . S
C280 C290 1.465 . S
C281 C280 1.264 . S
C281 C283 1.339 . S
C281 H308 0.931 . S
C282 C283 1.395 . S
C282 C284 1.320 . S
C283 C281 1.339 . S
C283 C282 1.395 . S
C283 H309 0.929 . S
C284 C282 1.320 . S
C284 C285 1.405 . S
C284 H310 0.930 . S
C285 C280 1.479 . S
C285 C284 1.405 . S
C285 H311 0.931 . S
U286 O287 2.454 1_565 S
U286 O288 2.458 1_565 S
U286 C289 2.984 1_565 S
U286 C290 2.847 . S
U286 C303 2.882 . S
U286 O304 2.441 . S
U286 O305 2.420 . S
U286 O306 2.455 1_565 S
U286 O307 2.449 . S
O287 U286 2.454 1_545 S
O287 C289 1.353 . S
O288 U286 2.458 1_545 S
O288 C289 1.286 . S
C289 U286 2.984 1_545 S
C289 O287 1.353 . S
C289 O288 1.286 . S
C289 C291 1.363 . S
C290 C280 1.465 . S
C290 U286 2.847 . S
C290 O304 1.249 . S
C290 O305 1.202 . S
C291 C289 1.363 . S
C291 C293 1.408 . S
C291 C296 1.342 . S
C292 C293 1.310 . S
C292 C295 1.461 . S
C292 H312 0.932 . S
C293 C291 1.408 . S
C293 C292 1.310 . S
C293 H313 0.930 . S
C294 C295 1.474 . S
C294 C296 1.285 . S
C294 H314 0.929 . S
C295 C292 1.461 . S
C295 C294 1.474 . S
C296 C291 1.342 . S
C296 C294 1.285 . S
C296 H315 0.930 . S
C297 C300 1.424 . S
C297 C302 1.245 1_565 S
C297 C303 1.428 . S
C298 C301 1.260 1_545 S
C298 C302 1.477 . S
C298 H316 0.932 . S
C299 C300 1.384 . S
C299 C301 1.479 . S
C299 H317 0.929 . S
C300 C297 1.424 . S
C300 C299 1.384 . S
C300 H318 0.928 . S
C301 C298 1.260 1_565 S
C301 C299 1.479 . S
C302 C297 1.245 1_545 S
C302 C298 1.477 . S
C302 H319 0.932 . S
C303 U286 2.882 . S
C303 C297 1.428 . S
C303 O306 1.301 1_565 S
C303 O307 1.282 . S
O304 U286 2.441 . S
O304 C290 1.249 . S
O305 U286 2.420 . S
O305 C290 1.202 . S
O306 U286 2.455 1_545 S
O306 C303 1.301 1_545 S
O307 U286 2.449 . S
O307 C303 1.282 . S
H308 C281 0.931 . S
H309 C283 0.929 . S
H310 C284 0.930 . S
H311 C285 0.931 . S
H312 C292 0.932 . S
H313 C293 0.930 . S
H314 C294 0.929 . S
H315 C296 0.930 . S
H316 C298 0.932 . S
H317 C299 0.929 . S
H318 C300 0.928 . S
H319 C302 0.932 . S
C320 C321 1.264 . S
C320 C325 1.479 . S
C320 C330 1.465 . S
C321 C320 1.264 . S
C321 C323 1.339 . S
C321 H348 0.931 . S
C322 C323 1.395 . S
C322 C324 1.320 . S
C323 C321 1.339 . S
C323 C322 1.395 . S
C323 H349 0.929 . S
C324 C322 1.320 . S
C324 C325 1.405 . S
C324 H350 0.930 . S
C325 C320 1.479 . S
C325 C324 1.405 . S
C325 H351 0.931 . S
U326 O327 2.454 . S
U326 O328 2.458 . S
U326 C329 2.984 . S
U326 C330 2.847 . S
U326 C343 2.882 . S
U326 O344 2.441 . S
U326 O345 2.420 . S
U326 O346 2.455 . S
U326 O347 2.449 . S
O327 U326 2.454 . S
O327 C329 1.353 . S
O328 U326 2.458 . S
O328 C329 1.286 . S
C329 U326 2.984 . S
C329 O327 1.353 . S
C329 O328 1.286 . S
C329 C331 1.363 . S
C330 C320 1.465 . S
C330 U326 2.847 . S
C330 O344 1.249 . S
C330 O345 1.202 . S
C331 C329 1.363 . S
C331 C333 1.408 . S
C331 C336 1.342 . S
C332 C333 1.310 . S
C332 C335 1.461 . S
C332 H352 0.932 . S
C333 C331 1.408 . S
C333 C332 1.310 . S
C333 H353 0.930 . S
C334 C335 1.474 . S
C334 C336 1.285 . S
C334 H354 0.929 . S
C335 C332 1.461 . S
C335 C334 1.474 . S
C336 C331 1.342 . S
C336 C334 1.285 . S
C336 H355 0.930 . S
C337 C340 1.414 1_554 S
C337 C342 1.245 1_554 S
C337 C343 1.428 . S
C338 C341 1.260 . S
C338 C342 1.477 . S
C338 H356 0.932 . S
C339 C340 1.407 . S
C339 C341 1.479 . S
C339 H357 0.929 . S
C340 C337 1.414 1_556 S
C340 C339 1.407 . S
C340 H358 0.914 1_556 S
C341 C338 1.260 . S
C341 C339 1.479 . S
C342 C337 1.245 1_556 S
C342 C338 1.477 . S
C342 H359 0.932 1_556 S
C343 U326 2.882 . S
C343 C337 1.428 . S
C343 O346 1.301 . S
C343 O347 1.282 . S
O344 U326 2.441 . S
O344 C330 1.249 . S
O345 U326 2.420 . S
O345 C330 1.202 . S
O346 U326 2.455 . S
O346 C343 1.301 . S
O347 U326 2.449 . S
O347 C343 1.282 . S
H348 C321 0.931 . S
H349 C323 0.929 . S
H350 C324 0.930 . S
H351 C325 0.931 . S
H352 C332 0.932 . S
H353 C333 0.930 . S
H354 C334 0.929 . S
H355 C336 0.930 . S
H356 C338 0.932 . S
H357 C339 0.929 . S
H358 C340 0.914 1_554 S
H359 C342 0.932 1_554 S
C360 C361 1.387 . S
C360 H364 0.950 . S
C360 C369 1.390 . S
C361 C360 1.387 . S
C361 C363 1.387 . S
H362 C369 0.950 . S
C363 C361 1.387 . S
C363 C365 1.390 . S
C363 H367 0.950 . S
H364 C360 0.950 . S
C365 C363 1.390 . S
C365 C366 1.387 . S
C365 H368 0.950 . S
C366 C365 1.387 . S
C366 C369 1.387 . S
H367 C363 0.950 . S
H368 C365 0.950 . S
C369 C360 1.390 . S
C369 H362 0.950 . S
C369 C366 1.387 . S
C370 C371 1.387 . S
C370 H374 0.950 . S
C370 C379 1.390 . S
C371 C370 1.387 . S
C371 C373 1.387 . S
H372 C379 0.950 . S
C373 C371 1.387 . S
C373 C375 1.390 . S
C373 H377 0.950 . S
H374 C370 0.950 . S
C375 C373 1.390 . S
C375 C376 1.387 . S
C375 H378 0.950 . S
C376 C375 1.387 . S
C376 C379 1.387 . S
H377 C373 0.950 . S
H378 C375 0.950 . S
C379 C370 1.390 . S
C379 H372 0.950 . S
C379 C376 1.387 . S
C380 C381 1.387 . S
C380 H384 0.950 . S
C380 C389 1.390 . S
C381 C380 1.387 . S
C381 C383 1.387 . S
H382 C389 0.950 . S
C383 C381 1.387 . S
C383 C385 1.390 . S
C383 H387 0.950 . S
H384 C380 0.950 . S
C385 C383 1.390 . S
C385 C386 1.387 . S
C385 H388 0.950 . S
C386 C385 1.387 . S
C386 C389 1.387 . S
H387 C383 0.950 . S
H388 C385 0.950 . S
C389 C380 1.390 . S
C389 H382 0.950 . S
C389 C386 1.387 . S
C390 C391 1.387 . S
C390 H394 0.950 . S
C390 C399 1.390 . S
C391 C390 1.387 . S
C391 C393 1.387 . S
H392 C399 0.950 . S
C393 C391 1.387 . S
C393 C395 1.390 . S
C393 H397 0.950 . S
H394 C390 0.950 . S
C395 C393 1.390 . S
C395 C396 1.387 . S
C395 H398 0.950 . S
C396 C395 1.387 . S
C396 C399 1.387 . S
H397 C393 0.950 . S
H398 C395 0.950 . S
C399 C390 1.390 . S
C399 H392 0.950 . S
C399 C396 1.387 . S
C400 C401 1.387 . S
C400 H404 0.950 . S
C400 C409 1.390 . S
C401 C400 1.387 . S
C401 C403 1.387 . S
H402 C409 0.950 . S
C403 C401 1.387 . S
C403 C405 1.390 . S
C403 H407 0.950 . S
H404 C400 0.950 . S
C405 C403 1.390 . S
C405 C406 1.387 . S
C405 H408 0.950 . S
C406 C405 1.387 . S
C406 C409 1.387 . S
H407 C403 0.950 . S
H408 C405 0.950 . S
C409 C400 1.390 . S
C409 H402 0.950 . S
C409 C406 1.387 . S
C410 C411 1.387 . S
C410 H414 0.950 . S
C410 C419 1.390 . S
C411 C410 1.387 . S
C411 C413 1.387 . S
H412 C419 0.950 . S
C413 C411 1.387 . S
C413 C415 1.390 . S
C413 H417 0.950 . S
H414 C410 0.950 . S
C415 C413 1.390 . S
C415 C416 1.387 . S
C415 H418 0.950 . S
C416 C415 1.387 . S
C416 C419 1.387 . S
H417 C413 0.950 . S
H418 C415 0.950 . S
C419 C410 1.390 . S
C419 H412 0.950 . S
C419 C416 1.387 . S
C420 C421 1.387 . S
C420 H424 0.950 . S
C420 C429 1.390 . S
C421 C420 1.387 . S
C421 C423 1.387 . S
H422 C429 0.950 . S
C423 C421 1.387 . S
C423 C425 1.390 . S
C423 H427 0.950 . S
H424 C420 0.950 . S
C425 C423 1.390 . S
C425 C426 1.387 . S
C425 H428 0.950 . S
C426 C425 1.387 . S
C426 C429 1.387 . S
H427 C423 0.950 . S
H428 C425 0.950 . S
C429 C420 1.390 . S
C429 H422 0.950 . S
C429 C426 1.387 . S
C430 C431 1.387 . S
C430 H434 0.950 . S
C430 C439 1.390 . S
C431 C430 1.387 . S
C431 C433 1.387 . S
H432 C439 0.950 . S
C433 C431 1.387 . S
C433 C435 1.390 . S
C433 H437 0.950 . S
H434 C430 0.950 . S
C435 C433 1.390 . S
C435 C436 1.387 . S
C435 H438 0.950 . S
C436 C435 1.387 . S
C436 C439 1.387 . S
H437 C433 0.950 . S
H438 C435 0.950 . S
C439 C430 1.390 . S
C439 H432 0.950 . S
C439 C436 1.387 . S
C440 C441 1.387 . S
C440 H444 0.950 . S
C440 C449 1.390 . S
C441 C440 1.387 . S
C441 C443 1.387 . S
H442 C449 0.950 . S
C443 C441 1.387 . S
C443 C445 1.390 . S
C443 H447 0.950 . S
H444 C440 0.950 . S
C445 C443 1.390 . S
C445 C446 1.387 . S
C445 H448 0.950 . S
C446 C445 1.387 . S
C446 C449 1.387 . S
H447 C443 0.950 . S
H448 C445 0.950 . S
C449 C440 1.390 . S
C449 H442 0.950 . S
C449 C446 1.387 . S
C450 C451 1.387 . S
C450 H454 0.950 . S
C450 C459 1.390 . S
C451 C450 1.387 . S
C451 C453 1.387 . S
H452 C459 0.950 . S
C453 C451 1.387 . S
C453 C455 1.390 . S
C453 H457 0.950 . S
H454 C450 0.950 . S
C455 C453 1.390 . S
C455 C456 1.387 . S
C455 H458 0.950 . S
C456 C455 1.387 . S
C456 C459 1.387 . S
H457 C453 0.950 . S
H458 C455 0.950 . S
C459 C450 1.390 . S
C459 H452 0.950 . S
C459 C456 1.387 . S
C460 C461 1.387 . S
C460 H464 0.950 . S
C460 C469 1.390 . S
C461 C460 1.387 . S
C461 C463 1.387 . S
H462 C469 0.950 . S
C463 C461 1.387 . S
C463 C465 1.390 . S
C463 H467 0.950 . S
H464 C460 0.950 . S
C465 C463 1.390 . S
C465 C466 1.387 . S
C465 H468 0.950 . S
C466 C465 1.387 . S
C466 C469 1.387 . S
H467 C463 0.950 . S
H468 C465 0.950 . S
C469 C460 1.390 . S
C469 H462 0.950 . S
C469 C466 1.387 . S
C470 C471 1.387 . S
C470 H474 0.950 . S
C470 C479 1.390 . S
C471 C470 1.387 . S
C471 C473 1.387 . S
H472 C479 0.950 . S
C473 C471 1.387 . S
C473 C475 1.390 . S
C473 H477 0.950 . S
H474 C470 0.950 . S
C475 C473 1.390 . S
C475 C476 1.387 . S
C475 H478 0.950 . S
C476 C475 1.387 . S
C476 C479 1.387 . S
H477 C473 0.950 . S
H478 C475 0.950 . S
C479 C470 1.390 . S
C479 H472 0.950 . S
C479 C476 1.387 . S
C480 C481 1.387 . S
C480 H484 0.950 . S
C480 C489 1.390 . S
C481 C480 1.387 . S
C481 C483 1.387 . S
H482 C489 0.950 . S
C483 C481 1.387 . S
C483 C485 1.390 . S
C483 H487 0.950 . S
H484 C480 0.950 . S
C485 C483 1.390 . S
C485 C486 1.387 . S
C485 H488 0.950 . S
C486 C485 1.387 . S
C486 C489 1.387 . S
H487 C483 0.950 . S
H488 C485 0.950 . S
C489 C480 1.390 . S
C489 H482 0.950 . S
C489 C486 1.387 . S
C490 C491 1.387 . S
C490 H494 0.950 . S
C490 C499 1.390 . S
C491 C490 1.387 . S
C491 C493 1.387 . S
H492 C499 0.950 . S
C493 C491 1.387 . S
C493 C495 1.390 . S
C493 H497 0.950 . S
H494 C490 0.950 . S
C495 C493 1.390 . S
C495 C496 1.387 . S
C495 H498 0.950 . S
C496 C495 1.387 . S
C496 C499 1.387 . S
H497 C493 0.950 . S
H498 C495 0.950 . S
C499 C490 1.390 . S
C499 H492 0.950 . S
C499 C496 1.387 . S
C500 C501 1.387 . S
C500 H504 0.950 . S
C500 C509 1.390 . S
C501 C500 1.387 . S
C501 C503 1.387 . S
H502 C509 0.950 . S
C503 C501 1.387 . S
C503 C505 1.390 . S
C503 H507 0.950 . S
H504 C500 0.950 . S
C505 C503 1.390 . S
C505 C506 1.387 . S
C505 H508 0.950 . S
C506 C505 1.387 . S
C506 C509 1.387 . S
H507 C503 0.950 . S
H508 C505 0.950 . S
C509 C500 1.390 . S
C509 H502 0.950 . S
C509 C506 1.387 . S
C510 C511 1.387 . S
C510 H514 0.950 . S
C510 C519 1.390 1_545 S
C511 C510 1.387 . S
C511 C513 1.387 1_545 S
H512 C519 0.950 . S
C513 C511 1.387 1_565 S
C513 C515 1.390 . S
C513 H517 0.950 . S
H514 C510 0.950 . S
C515 C513 1.390 . S
C515 C516 1.387 . S
C515 H518 0.950 . S
C516 C515 1.387 . S
C516 C519 1.387 . S
H517 C513 0.950 . S
H518 C515 0.950 . S
C519 C510 1.390 1_565 S
C519 H512 0.950 . S
C519 C516 1.387 . S
C520 C521 1.387 . S
C520 H524 0.950 . S
C520 C529 1.390 . S
C521 C520 1.387 . S
C521 C523 1.387 . S
H522 C529 0.950 . S
C523 C521 1.387 . S
C523 C525 1.390 . S
C523 H527 0.950 . S
H524 C520 0.950 . S
C525 C523 1.390 . S
C525 C526 1.387 . S
C525 H528 0.950 . S
C526 C525 1.387 . S
C526 C529 1.387 . S
H527 C523 0.950 . S
H528 C525 0.950 . S
C529 C520 1.390 . S
C529 H522 0.950 . S
C529 C526 1.387 . S
C530 C531 1.387 . S
C530 H534 0.950 . S
C530 C539 1.390 . S
C531 C530 1.387 . S
C531 C533 1.387 1_455 S
H532 C539 0.950 . S
C533 C531 1.387 1_655 S
C533 C535 1.390 . S
C533 H537 0.950 . S
H534 C530 0.950 . S
C535 C533 1.390 . S
C535 C536 1.387 . S
C535 H538 0.950 . S
C536 C535 1.387 . S
C536 C539 1.387 1_655 S
H537 C533 0.950 . S
H538 C535 0.950 . S
C539 C530 1.390 . S
C539 H532 0.950 . S
C539 C536 1.387 1_455 S
C361 C7 0.949 . S
C366 C335 0.994 . S
C371 C51 2.077 . S
C376 C242 2.031 . S
C381 C87 1.316 . S
C386 C282 1.355 . S
C391 C16 0.560 . S
C396 C322 0.485 . S
C406 C255 2.178 . S
C401 C42 2.311 . S
C416 C295 1.399 . S
C411 C96 1.403 . S
C421 C47 1.248 . S
C426 C162 1.247 . S
C431 C91 3.263 . S
C436 C202 3.204 . S
C441 C2 2.348 . S
C446 C135 2.234 . S
C456 C175 1.393 . S
C451 C56 1.381 . S
C466 C215 3.085 . S
C461 C82 3.176 . S
C471 C11 2.070 . S
C476 C122 2.027 . S
C486 C221 1.765 . S
C481 C19 1.717 . S
C491 C50 1.357 . S
C496 C141 1.386 . S
C501 C99 1.475 . S
C506 C181 1.511 . S
C516 C301 1.507 . S
C511 C59 1.472 . S
C526 C341 1.162 . S
C521 C90 1.157 . S
C531 C10 1.348 . S
C536 C261 1.374 . S
