# Generated by pormake.
# Topology pts, (4,4)-cn, num edge types: 1
# Building blocks:
#     Node 0, Type 0, BuildingBlock: KOZSID_clean_sbu_0, # of connection points: 4
#     Node 1, Type 0, BuildingBlock: KOZSID_clean_sbu_0, # of connection points: 4
#     Node 2, Type 1, BuildingBlock: QUQFOY_clean_sbu_1, # of connection points: 4
#     Node 3, Type 1, BuildingBlock: QUQFOY_clean_sbu_1, # of connection points: 4
#     Edge 4, Type (0, 1), BuildingBlock: MIFKUJ_clean_linker_0, # of connection points: 2
#     Edge 5, Type (0, 1), BuildingBlock: MIFKUJ_clean_linker_0, # of connection points: 2
#     Edge 6, Type (0, 1), BuildingBlock: MIFKUJ_clean_linker_0, # of connection points: 2
#     Edge 7, Type (0, 1), BuildingBlock: MIFKUJ_clean_linker_0, # of connection points: 2
#     Edge 8, Type (0, 1), BuildingBlock: MIFKUJ_clean_linker_0, # of connection points: 2
#     Edge 9, Type (0, 1), BuildingBlock: MIFKUJ_clean_linker_0, # of connection points: 2
#     Edge 10, Type (0, 1), BuildingBlock: MIFKUJ_clean_linker_0, # of connection points: 2
#     Edge 11, Type (0, 1), BuildingBlock: MIFKUJ_clean_linker_0, # of connection points: 2
# Relax obj value: 0.095
# Max RMSD: 0.254
# Mean RMSD: 0.146
data_MOF--net-pts--node1-KOZSID_clean_sbu_0--node2-QUQFOY_clean_sbu_1--edge1-MIFKUJ_clean_linker_0
_symmetry_space_group_name_H-M    P1
_symmetry_Int_Tables_number       1
_symmetry_cell_setting            triclinic
loop_
_symmetry_equiv_pos_as_xyz
'x, y, z'
_cell_length_a     32.242513
_cell_length_b     35.736294
_cell_length_c     53.058629
_cell_angle_alpha  86.902626
_cell_angle_beta   93.357092
_cell_angle_gamma 90.048765
loop_
_atom_site_label
_atom_site_type_symbol
_atom_site_fract_x
_atom_site_fract_y
_atom_site_fract_z
_atom_type_partial_charge
C0 C 0.61181 0.08838 0.04585 0.0
C1 C 0.62767 0.12285 0.0526 0.0
C2 C 0.60658 0.14952 0.03765 0.0
C3 C 0.57938 0.12999 0.02256 0.0
N4 N 0.58193 0.09236 0.0268 0.0
Co5 Co 0.54823 0.05358 0.00877 0.0
N6 N 0.51815 0.093 0.98629 0.0
C7 C 0.52503 0.13039 0.98574 0.0
C8 C 0.50131 0.15032 0.96744 0.0
C9 C 0.4777 0.12417 0.95557 0.0
C10 C 0.48807 0.08964 0.96759 0.0
N11 N 0.51356 0.01488 0.99129 0.0
C12 C 0.48222 0.019 0.97313 0.0
C13 C 0.46438 0.98475 0.96765 0.0
C14 C 0.48558 0.95804 0.9825 0.0
C15 C 0.5147 0.97736 0.99637 0.0
N16 N 0.57919 0.01406 0.03072 0.0
C17 C 0.57434 0.97649 0.03007 0.0
C18 C 0.59945 0.95639 0.04756 0.0
C19 C 0.62196 0.9826 0.06009 0.0
C20 C 0.60943 0.01739 0.04934 0.0
N21 N 0.50555 0.05667 0.03411 0.0
C22 C 0.4437 0.06046 0.06943 0.0
C23 C 0.46178 0.02629 0.06451 0.0
C24 C 0.49216 0.02503 0.04691 0.0
C25 C 0.45765 0.09284 0.05657 0.0
C26 C 0.48844 0.09034 0.03922 0.0
N27 N 0.59093 0.05044 0.98339 0.0
C28 C 0.63162 0.01379 0.95671 0.0
C29 C 0.65164 0.04591 0.94741 0.0
C30 C 0.64071 0.08032 0.95647 0.0
C31 C 0.61058 0.08193 0.97425 0.0
C32 C 0.60167 0.01667 0.97451 0.0
H33 H 0.6039 0.10901 0.98035 0.0
H34 H 0.58761 0.99114 0.98076 0.0
H35 H 0.50424 0.99804 0.044 0.0
H36 H 0.49769 0.116 0.03004 0.0
C37 C 0.55302 0.14608 0.00319 0.0
C38 C 0.62673 0.05271 0.05777 0.0
C39 C 0.46811 0.05461 0.9607 0.0
C40 C 0.54376 0.96103 0.01413 0.0
H41 H 0.65231 0.12828 0.06665 0.0
H42 H 0.61111 0.17955 0.03747 0.0
H43 H 0.50108 0.18031 0.9633 0.0
H44 H 0.45528 0.12999 0.93986 0.0
H45 H 0.43852 0.97946 0.95441 0.0
H46 H 0.48023 0.9281 0.98321 0.0
H47 H 0.60056 0.92629 0.05116 0.0
H48 H 0.64463 0.97665 0.07563 0.0
H49 H 0.45281 1.00043 0.0743 0.0
H50 H 0.44443 0.12 0.0595 0.0
H51 H 0.63858 0.98649 0.95007 0.0
H52 H 0.65572 0.10599 0.95016 0.0
C53 C 0.08295 0.49325 0.54821 0.0
C54 C 0.12147 0.47956 0.55749 0.0
C55 C 0.15054 0.49968 0.54493 0.0
C56 C 0.12822 0.52428 0.52871 0.0
N57 N 0.08661 0.52167 0.53049 0.0
Co58 Co 0.04252 0.5497 0.50883 0.0
N59 N 0.08522 0.57767 0.48925 0.0
C60 C 0.12702 0.57481 0.49286 0.0
C61 C 0.1483 0.59893 0.47737 0.0
C62 C 0.11833 0.61899 0.46335 0.0
C63 C 0.08037 0.60589 0.4712 0.0
N64 N 0.99839 0.57661 0.48656 0.0
C65 C 0.00186 0.60413 0.46819 0.0
C66 C 0.96323 0.61565 0.45764 0.0
C67 C 0.93434 0.59493 0.46996 0.0
C68 C 0.95681 0.57206 0.48726 0.0
N69 N 0.99983 0.52283 0.52905 0.0
C70 C 0.95815 0.52756 0.52655 0.0
C71 C 0.93688 0.50476 0.54291 0.0
C72 C 0.96672 0.48385 0.55645 0.0
C73 C 0.00456 0.49509 0.54743 0.0
N74 N 0.04331 0.59095 0.53255 0.0
C75 C 0.04511 0.65304 0.56325 0.0
C76 C 0.00771 0.64023 0.55226 0.0
C77 C 0.00748 0.60928 0.53727 0.0
C78 C 0.08149 0.63366 0.55914 0.0
C79 C 0.07991 0.60301 0.54382 0.0
N80 N 0.04174 0.50843 0.48512 0.0
C81 C 0.00499 0.45851 0.46434 0.0
C82 C 0.04156 0.44626 0.4546 0.0
C83 C 0.07804 0.46616 0.45982 0.0
C84 C 0.07749 0.49678 0.47511 0.0
C85 C 0.00567 0.48964 0.47918 0.0
H86 H 0.10652 0.51019 0.47884 0.0
H87 H 0.97665 0.49772 0.48583 0.0
H88 H 0.97793 0.60098 0.5295 0.0
H89 H 0.10882 0.5899 0.54108 0.0
C90 C 0.1453 0.54947 0.51116 0.0
C91 C 0.04382 0.4771 0.55585 0.0
C92 C 0.04069 0.62194 0.46146 0.0
C93 C 0.93979 0.54983 0.5065 0.0
H94 H 0.12786 0.4568 0.57148 0.0
H95 H 0.18393 0.49617 0.54693 0.0
H96 H 0.18162 0.60198 0.47664 0.0
H97 H 0.12377 0.64117 0.44921 0.0
H98 H 0.95651 0.63767 0.44319 0.0
H99 H 0.90088 0.59754 0.46744 0.0
H100 H 0.90356 0.50236 0.54403 0.0
H101 H 0.96122 0.46193 0.57075 0.0
H102 H 0.97859 0.65392 0.55531 0.0
H103 H 0.11127 0.64262 0.56719 0.0
H104 H 0.97583 0.44426 0.46039 0.0
H105 H 0.10715 0.45757 0.45267 0.0
O106 O 0.99232 0.01573 0.24522 0.0
Cd107 Cd 0.04719 0.00514 0.26615 0.0
Cd108 Cd 0.04574 0.08482 0.26736 0.0
O109 O 0.98951 0.07727 0.24732 0.0
O110 O 0.04674 0.94963 0.27227 0.0
O111 O 0.04835 0.98857 0.30324 0.0
C112 C 0.04745 0.95454 0.29616 0.0
C113 C 0.04694 0.13156 0.29675 0.0
C114 C 0.97398 0.04682 0.2398 0.0
C115 C 0.11704 0.04765 0.2428 0.0
O116 O 0.10016 0.07761 0.24916 0.0
O117 O 0.10098 0.01592 0.24808 0.0
O118 O 0.04671 0.13956 0.2728 0.0
O119 O 0.04644 0.0966 0.30429 0.0
O120 O 0.9904 0.0797 0.76658 0.0
Cd121 Cd 0.04509 0.0936 0.75013 0.0
Cd122 Cd 0.05329 0.01464 0.75132 0.0
O123 O 0.00064 0.01856 0.77159 0.0
O124 O 0.04136 0.14889 0.74322 0.0
O125 O 0.04609 0.10932 0.71296 0.0
C126 C 0.04358 0.14349 0.71954 0.0
C127 C 0.05351 0.96774 0.72212 0.0
C128 C 0.97912 0.04751 0.77495 0.0
C129 C 0.12162 0.05838 0.77729 0.0
O130 O 0.10979 0.02705 0.76923 0.0
O131 O 0.09952 0.0876 0.77253 0.0
O132 O 0.05871 0.96008 0.74609 0.0
O133 O 0.04797 0.00241 0.71448 0.0
H134 H 0.38088 0.01012 0.0767 0.0
H135 H 0.32754 0.01125 0.10724 0.0
H136 H 0.37557 0.11608 0.13311 0.0
H137 H 0.43076 0.1141 0.10345 0.0
H138 H 0.35736 0.07213 0.17216 0.0
H139 H 0.28527 0.11209 0.09466 0.0
H140 H 0.26179 0.11021 0.04968 0.0
H141 H 0.20099 0.00513 0.06485 0.0
H142 H 0.22462 0.0061 0.10987 0.0
H143 H 0.169 0.1075 0.2353 0.0
H144 H 0.22669 0.11222 0.20716 0.0
H145 H 0.2055 0.99821 0.18705 0.0
H146 H 0.14835 0.99298 0.21531 0.0
H147 H 0.20938 0.05235 0.14517 0.0
H148 H 0.28563 0.01338 0.22336 0.0
H149 H 0.30834 0.01848 0.26823 0.0
H150 H 0.35959 0.12722 0.25113 0.0
H151 H 0.33663 0.12299 0.20619 0.0
C152 C 0.38053 0.03325 0.08905 0.0
C153 C 0.41031 0.06199 0.08759 0.0
C154 C 0.34958 0.03411 0.10631 0.0
C155 C 0.34707 0.06406 0.12223 0.0
C156 C 0.37674 0.09278 0.12093 0.0
C157 C 0.40804 0.09178 0.10377 0.0
C158 C 0.31376 0.06487 0.14041 0.0
C159 C 0.32493 0.06846 0.16617 0.0
C160 C 0.27142 0.05971 0.1327 0.0
C161 C 0.25703 0.05903 0.10562 0.0
C162 C 0.26716 0.08843 0.08838 0.0
C163 C 0.25378 0.08755 0.06287 0.0
C164 C 0.22999 0.05753 0.0544 0.0
C165 C 0.21945 0.02836 0.07143 0.0
C166 C 0.23279 0.02908 0.09696 0.0
C167 C 0.17691 0.08331 0.22509 0.0
C168 C 0.15406 0.04986 0.22753 0.0
C169 C 0.20988 0.08605 0.20907 0.0
C170 C 0.22021 0.05557 0.19504 0.0
C171 C 0.19789 0.02204 0.19771 0.0
C172 C 0.16539 0.01907 0.21397 0.0
C173 C 0.25319 0.05895 0.17679 0.0
C174 C 0.24183 0.05627 0.15104 0.0
C175 C 0.29516 0.0655 0.18446 0.0
C176 C 0.30897 0.06806 0.21147 0.0
C177 C 0.30137 0.03854 0.22921 0.0
C178 C 0.31437 0.04124 0.25465 0.0
C179 C 0.33527 0.0732 0.26254 0.0
C180 C 0.34332 0.10251 0.245 0.0
C181 C 0.33035 0.09996 0.21954 0.0
H182 H 0.34533 0.07523 0.28224 0.0
H183 H 0.21966 0.0569 0.03465 0.0
H184 H 0.05706 0.46702 0.6068 0.0
H185 H 0.05778 0.40762 0.63233 0.0
H186 H 0.03165 0.34765 0.56472 0.0
H187 H 0.03015 0.40735 0.53933 0.0
H188 H 0.98622 0.32046 0.60189 0.0
H189 H 0.12896 0.34862 0.59292 0.0
H190 H 0.19209 0.38757 0.59416 0.0
H191 H 0.18575 0.39518 0.67433 0.0
H192 H 0.12208 0.35683 0.67351 0.0
H193 H 0.03732 0.14297 0.66766 0.0
H194 H 0.03824 0.19731 0.6373 0.0
H195 H 0.05205 0.27102 0.69896 0.0
H196 H 0.05097 0.21726 0.72925 0.0
H197 H 0.10669 0.28753 0.66143 0.0
H198 H 0.96003 0.26285 0.66868 0.0
H199 H 0.89693 0.22385 0.6665 0.0
H200 H 0.9127 0.20815 0.58796 0.0
H201 H 0.97627 0.24668 0.58978 0.0
C202 C 0.05146 0.44105 0.59755 0.0
C203 C 0.04382 0.44131 0.57128 0.0
C204 C 0.05203 0.4072 0.61203 0.0
C205 C 0.04539 0.37308 0.60039 0.0
C206 C 0.03698 0.37356 0.57409 0.0
C207 C 0.03625 0.40748 0.55963 0.0
C208 C 0.04729 0.33703 0.61574 0.0
C209 C 0.01287 0.31296 0.61459 0.0
C210 C 0.08192 0.32734 0.63247 0.0
C211 C 0.12052 0.35007 0.63312 0.0
C212 C 0.14084 0.35881 0.61079 0.0
C213 C 0.17674 0.38077 0.61142 0.0
C214 C 0.19288 0.39389 0.6343 0.0
C215 C 0.17319 0.38501 0.65662 0.0
C216 C 0.1372 0.36314 0.65608 0.0
C217 C 0.04053 0.17077 0.67471 0.0
C218 C 0.04395 0.17581 0.70086 0.0
C219 C 0.04096 0.20176 0.65737 0.0
C220 C 0.0451 0.23819 0.66591 0.0
C221 C 0.04892 0.24316 0.69197 0.0
C222 C 0.0481 0.21236 0.70925 0.0
C223 C 0.04534 0.27143 0.6479 0.0
C224 C 0.08025 0.29491 0.64853 0.0
C225 C 0.01135 0.28038 0.63055 0.0
C226 C 0.97317 0.25725 0.62945 0.0
C227 C 0.95026 0.25079 0.65101 0.0
C228 C 0.91436 0.22884 0.64982 0.0
C229 C 0.90089 0.21343 0.62713 0.0
C230 C 0.92323 0.22004 0.60554 0.0
C231 C 0.95917 0.24195 0.60664 0.0
H232 H 0.87308 0.19644 0.62624 0.0
H233 H 0.22069 0.41088 0.63475 0.0
H234 H 0.62407 0.08028 0.10461 0.0
H235 H 0.68039 0.08051 0.13799 0.0
H236 H 0.76039 0.02303 0.09036 0.0
H237 H 0.70481 0.02425 0.05659 0.0
H238 H 0.75028 0.99359 0.14671 0.0
H239 H 0.78237 0.10232 0.0909 0.0
H240 H 0.76311 0.1624 0.06822 0.0
H241 H 0.73771 0.20963 0.13844 0.0
H242 H 0.75608 0.14953 0.16149 0.0
H243 H 0.95059 0.99767 0.2044 0.0
H244 H 0.88856 0.99981 0.17591 0.0
H245 H 0.84677 0.09875 0.21035 0.0
H246 H 0.91052 0.09798 0.23793 0.0
H247 H 0.83116 0.1087 0.16359 0.0
H248 H 0.80261 0.00688 0.22092 0.0
H249 H 0.81483 0.94776 0.24643 0.0
H250 H 0.82478 0.88848 0.17877 0.0
H251 H 0.81317 0.94733 0.15285 0.0
C252 C 0.65381 0.06791 0.10133 0.0
C253 C 0.6604 0.05229 0.07816 0.0
C254 C 0.68574 0.06796 0.12033 0.0
C255 C 0.72431 0.05173 0.11653 0.0
C256 C 0.7307 0.03556 0.09357 0.0
C257 C 0.69912 0.03627 0.07438 0.0
C258 C 0.75835 0.05199 0.13637 0.0
C259 C 0.76835 0.01856 0.15036 0.0
C260 C 0.7804 0.08505 0.14169 0.0
C261 C 0.7701 0.12132 0.12787 0.0
C262 C 0.77228 0.12539 0.10147 0.0
C263 C 0.76159 0.15947 0.08856 0.0
C264 C 0.74906 0.18978 0.10187 0.0
C265 C 0.74734 0.18611 0.12814 0.0
C266 C 0.75789 0.15205 0.14114 0.0
C267 C 0.92804 0.01975 0.20602 0.0
C268 C 0.93522 0.04752 0.2235 0.0
C269 C 0.89236 0.02082 0.18981 0.0
C270 C 0.86224 0.0489 0.19131 0.0
C271 C 0.86936 0.07669 0.20884 0.0
C272 C 0.90571 0.07619 0.22465 0.0
C273 C 0.82424 0.04982 0.17391 0.0
C274 C 0.81319 0.08357 0.16032 0.0
C275 C 0.80044 0.01716 0.16944 0.0
C276 C 0.80732 0.98161 0.18494 0.0
C277 C 0.80767 0.98128 0.21148 0.0
C278 C 0.81446 0.94781 0.22601 0.0
C279 C 0.82066 0.9144 0.21423 0.0
C280 C 0.81999 0.91439 0.18787 0.0
C281 C 0.81325 0.94779 0.17325 0.0
H282 H 0.82591 0.88852 0.22551 0.0
H283 H 0.74081 0.21615 0.09184 0.0
H284 H 0.08834 0.66213 0.60845 0.0
H285 H 0.08948 0.71724 0.63397 0.0
H286 H 0.00535 0.77458 0.57865 0.0
H287 H 0.00444 0.71971 0.55287 0.0
H288 H 0.07142 0.81952 0.59535 0.0
H289 H 0.96808 0.73866 0.63116 0.0
H290 H 0.94162 0.6791 0.64956 0.0
H291 H 0.03455 0.68158 0.71082 0.0
H292 H 0.06195 0.74092 0.69258 0.0
H293 H 0.02219 0.96899 0.67287 0.0
H294 H 0.01999 0.917 0.64453 0.0
H295 H 0.08484 0.84647 0.70263 0.0
H296 H 0.08536 0.89762 0.73122 0.0
H297 H 0.0258 0.8086 0.68311 0.0
H298 H 0.13165 0.88678 0.64787 0.0
H299 H 0.16144 0.94508 0.62968 0.0
H300 H 0.0688 0.94671 0.5681 0.0
H301 H 0.03814 0.88864 0.5861 0.0
C302 C 0.07032 0.68657 0.60164 0.0
C303 C 0.04614 0.68652 0.57871 0.0
C304 C 0.07081 0.71794 0.6163 0.0
C305 C 0.04723 0.74987 0.60829 0.0
C306 C 0.02368 0.75019 0.5852 0.0
C307 C 0.02293 0.71873 0.57061 0.0
C308 C 0.04673 0.78272 0.62422 0.0
C309 C 0.06097 0.81736 0.61445 0.0
C310 C 0.03395 0.77959 0.64928 0.0
C311 C 0.01729 0.74406 0.66038 0.0
C312 C 0.98307 0.72636 0.64845 0.0
C313 C 0.96787 0.69267 0.65887 0.0
C314 C 0.98645 0.67652 0.68131 0.0
C315 C 0.02021 0.6941 0.69342 0.0
C316 C 0.03556 0.72778 0.68307 0.0
C317 C 0.03613 0.94242 0.67949 0.0
C318 C 0.05388 0.93736 0.70426 0.0
C319 C 0.03506 0.91274 0.66325 0.0
C320 C 0.05266 0.87777 0.67129 0.0
C321 C 0.07087 0.87302 0.69595 0.0
C322 C 0.07126 0.90236 0.71228 0.0
C323 C 0.05117 0.84563 0.65449 0.0
C324 C 0.03634 0.81101 0.66405 0.0
C325 C 0.06392 0.84872 0.62934 0.0
C326 C 0.08234 0.8836 0.61848 0.0
C327 C 0.11744 0.89973 0.63055 0.0
C328 C 0.13452 0.9327 0.62026 0.0
C329 C 0.11695 0.94965 0.59779 0.0
C330 C 0.08234 0.93359 0.58552 0.0
C331 C 0.06512 0.90064 0.59575 0.0
H332 H 0.13022 0.97518 0.58985 0.0
H333 H 0.97465 0.65043 0.68935 0.0
H334 H 0.46524 0.02281 0.91504 0.0
H335 H 0.40738 0.02351 0.883 0.0
H336 H 0.33571 0.09124 0.92971 0.0
H337 H 0.39255 0.088 0.96249 0.0
H338 H 0.28702 0.04424 0.91072 0.0
H339 H 0.38672 0.12678 0.87487 0.0
H340 H 0.45518 0.14666 0.86066 0.0
H341 H 0.45117 0.06064 0.80711 0.0
H342 H 0.3829 0.03989 0.82126 0.0
H343 H 0.14273 0.11126 0.81095 0.0
H344 H 0.20346 0.11134 0.8409 0.0
H345 H 0.2485 0.01045 0.8107 0.0
H346 H 0.18727 0.00957 0.78103 0.0
H347 H 0.30989 0.07509 0.82027 0.0
H348 H 0.20697 0.99419 0.85918 0.0
H349 H 0.13661 0.9809 0.87318 0.0
H350 H 0.14561 0.07394 0.92113 0.0
H351 H 0.21583 0.08812 0.9071 0.0
C352 C 0.43691 0.03754 0.91843 0.0
C353 C 0.43313 0.05536 0.94111 0.0
C354 C 0.40404 0.03834 0.90004 0.0
C355 C 0.36732 0.05812 0.90361 0.0
C356 C 0.36363 0.07584 0.9264 0.0
C357 C 0.39611 0.07421 0.94505 0.0
C358 C 0.33254 0.05989 0.88383 0.0
C359 C 0.29217 0.05149 0.89103 0.0
C360 C 0.33894 0.069 0.85798 0.0
C361 C 0.37986 0.08156 0.84929 0.0
C362 C 0.40056 0.11194 0.86018 0.0
C363 C 0.43931 0.12339 0.85212 0.0
C364 C 0.45756 0.10486 0.83304 0.0
C365 C 0.43702 0.07493 0.82192 0.0
C366 C 0.39828 0.06333 0.82993 0.0
C367 C 0.16577 0.08931 0.81047 0.0
C368 C 0.16017 0.06032 0.7937 0.0
C369 C 0.20035 0.08939 0.82761 0.0
C370 C 0.23023 0.06086 0.82797 0.0
C371 C 0.22568 0.03271 0.81061 0.0
C372 C 0.19068 0.03219 0.79378 0.0
C373 C 0.26509 0.05942 0.84736 0.0
C374 C 0.3052 0.06791 0.84003 0.0
C375 C 0.25839 0.05133 0.87316 0.0
C376 C 0.21645 0.04245 0.88188 0.0
C377 C 0.1938 0.01201 0.87254 0.0
C378 C 0.15397 0.00427 0.88051 0.0
C379 C 0.13659 0.02663 0.89797 0.0
C380 C 0.15908 0.05668 0.90758 0.0
C381 C 0.19891 0.06456 0.89963 0.0
H382 H 0.10573 0.02063 0.90411 0.0
H383 H 0.48758 0.11376 0.82683 0.0
H384 H 0.00741 0.37774 0.46538 0.0
H385 H 0.00787 0.32231 0.44005 0.0
H386 H 0.07609 0.38394 0.38395 0.0
H387 H 0.07603 0.43934 0.4093 0.0
H388 H 0.00491 0.34348 0.36449 0.0
H389 H 0.12722 0.32448 0.42113 0.0
H390 H 0.16446 0.31847 0.46309 0.0
H391 H 0.08793 0.22476 0.48398 0.0
H392 H 0.0498 0.23057 0.44224 0.0
H393 H 0.06777 0.20446 0.2874 0.0
H394 H 0.06618 0.25558 0.31586 0.0
H395 H 0.02426 0.17925 0.37484 0.0
H396 H 0.02742 0.12735 0.34652 0.0
H397 H 0.07767 0.22569 0.39465 0.0
H398 H 0.9564 0.24126 0.33961 0.0
H399 H 0.91491 0.24658 0.29904 0.0
H400 H 0.98249 0.34536 0.27682 0.0
H401 H 0.02481 0.34034 0.31713 0.0
C402 C 0.02238 0.37944 0.4476 0.0
C403 C 0.04169 0.41279 0.43926 0.0
C404 C 0.02281 0.34776 0.43325 0.0
C405 C 0.04215 0.34905 0.41021 0.0
C406 C 0.06106 0.38242 0.40171 0.0
C407 C 0.06118 0.41392 0.41623 0.0
C408 C 0.04236 0.31573 0.39477 0.0
C409 C 0.02119 0.31784 0.37091 0.0
C410 C 0.06225 0.28189 0.40365 0.0
C411 C 0.08537 0.27822 0.42866 0.0
C412 C 0.11809 0.3028 0.43475 0.0
C413 C 0.13941 0.29939 0.45847 0.0
C414 C 0.12849 0.27132 0.47621 0.0
C415 C 0.09631 0.24652 0.47023 0.0
C416 C 0.07486 0.24985 0.44654 0.0
C417 C 0.05828 0.19846 0.30645 0.0
C418 C 0.04736 0.16192 0.31466 0.0
C419 C 0.05717 0.22781 0.32269 0.0
C420 C 0.04409 0.22156 0.34734 0.0
C421 C 0.03419 0.18486 0.35585 0.0
C422 C 0.03595 0.15524 0.33967 0.0
C423 C 0.04074 0.2535 0.364 0.0
C424 C 0.06117 0.25118 0.38817 0.0
C425 C 0.01948 0.28701 0.35558 0.0
C426 C 0.99402 0.29023 0.33132 0.0
C427 C 0.96262 0.26397 0.326 0.0
C428 C 0.93892 0.26695 0.30306 0.0
C429 C 0.94612 0.29624 0.28534 0.0
C430 C 0.97698 0.32267 0.29056 0.0
C431 C 0.0008 0.31979 0.31346 0.0
H432 H 0.92774 0.2985 0.26759 0.0
H433 H 0.14504 0.26872 0.49457 0.0
H434 H 0.66366 0.09398 0.9065 0.0
H435 H 0.71743 0.09103 0.87613 0.0
H436 H 0.76524 0.98917 0.91449 0.0
H437 H 0.7125 0.99274 0.94558 0.0
H438 H 0.827 0.03507 0.90362 0.0
H439 H 0.70825 0.98768 0.85789 0.0
H440 H 0.63584 0.98723 0.84019 0.0
H441 H 0.6578 0.08832 0.79552 0.0
H442 H 0.73023 0.08969 0.81324 0.0
H443 H 0.957 0.98832 0.80616 0.0
H444 H 0.89905 0.98519 0.83399 0.0
H445 H 0.85926 0.0956 0.80585 0.0
H446 H 0.91738 0.09921 0.77813 0.0
H447 H 0.79322 0.04232 0.811 0.0
H448 H 0.91178 0.09 0.85887 0.0
H449 H 0.98439 0.08865 0.8763 0.0
H450 H 0.96224 0.9839 0.91676 0.0
H451 H 0.88961 0.98435 0.89924 0.0
C452 C 0.68579 0.07109 0.90862 0.0
C453 C 0.68372 0.04359 0.9285 0.0
C454 C 0.71625 0.06921 0.89105 0.0
C455 C 0.74507 0.03961 0.89282 0.0
C456 C 0.74321 0.01217 0.91268 0.0
C457 C 0.71281 0.01408 0.93031 0.0
C458 C 0.77774 0.03782 0.8743 0.0
C459 C 0.81951 0.03603 0.88339 0.0
C460 C 0.76809 0.03973 0.84786 0.0
C461 C 0.72458 0.03897 0.83708 0.0
C462 C 0.69756 0.00998 0.84445 0.0
C463 C 0.65652 0.00954 0.83438 0.0
C464 C 0.6422 0.03778 0.81679 0.0
C465 C 0.66893 0.06649 0.80918 0.0
C466 C 0.70999 0.06709 0.81921 0.0
C467 C 0.93568 0.01178 0.80566 0.0
C468 C 0.94194 0.04411 0.79003 0.0
C469 C 0.90268 0.00997 0.82163 0.0
C470 C 0.87514 0.04028 0.82208 0.0
C471 C 0.88024 0.07194 0.80577 0.0
C472 C 0.91354 0.07399 0.79003 0.0
C473 C 0.84219 0.0397 0.8404 0.0
C474 C 0.80049 0.04112 0.83126 0.0
C475 C 0.85185 0.03716 0.86679 0.0
C476 C 0.8954 0.03699 0.87751 0.0
C477 C 0.92249 0.06651 0.87131 0.0
C478 C 0.96363 0.06594 0.88123 0.0
C479 C 0.97797 0.03615 0.89756 0.0
C480 C 0.95112 0.00693 0.90407 0.0
C481 C 0.90996 0.00733 0.89416 0.0
H482 H 0.00984 0.03575 0.90522 0.0
H483 H 0.61042 0.03739 0.80902 0.0
H484 H 0.02233 0.63107 0.41076 0.0
H485 H 0.02373 0.68949 0.38423 0.0
H486 H 0.06031 0.75037 0.44999 0.0
H487 H 0.05817 0.69191 0.47653 0.0
H488 H 0.00171 0.7884 0.41984 0.0
H489 H 0.13127 0.72721 0.40947 0.0
H490 H 0.17614 0.67442 0.40027 0.0
H491 H 0.11946 0.67354 0.32503 0.0
H492 H 0.07371 0.72593 0.33392 0.0
H493 H 0.06015 0.95343 0.34786 0.0
H494 H 0.06017 0.89858 0.37769 0.0
H495 H 0.03252 0.82735 0.31577 0.0
H496 H 0.03371 0.8816 0.28598 0.0
H497 H 0.08996 0.79602 0.34623 0.0
H498 H 0.95765 0.85438 0.35718 0.0
H499 H 0.9112 0.90602 0.36649 0.0
H500 H 0.97209 0.91176 0.44035 0.0
H501 H 0.01926 0.86043 0.43135 0.0
C502 C 0.03036 0.65706 0.41943 0.0
C503 C 0.04007 0.65737 0.44552 0.0
C504 C 0.03136 0.6903 0.40435 0.0
C505 C 0.04258 0.72424 0.4151 0.0
C506 C 0.05159 0.72455 0.44131 0.0
C507 C 0.0505 0.69129 0.4564 0.0
C508 C 0.04562 0.75923 0.3989 0.0
C509 C 0.02143 0.7903 0.40394 0.0
C510 C 0.0709 0.76149 0.37796 0.0
C511 C 0.09883 0.73033 0.37244 0.0
C512 C 0.12818 0.71562 0.39101 0.0
C513 C 0.15379 0.68577 0.38585 0.0
C514 C 0.15061 0.6706 0.36209 0.0
C515 C 0.12187 0.68531 0.34343 0.0
C516 C 0.09611 0.7151 0.34851 0.0
C517 C 0.05403 0.92606 0.34065 0.0
C518 C 0.04693 0.92188 0.31456 0.0
C519 C 0.05387 0.89474 0.35772 0.0
C520 C 0.04592 0.85878 0.34903 0.0
C521 C 0.03884 0.85471 0.32297 0.0
C522 C 0.03943 0.88584 0.30594 0.0
C523 C 0.04542 0.82514 0.36681 0.0
C524 C 0.07028 0.79428 0.36215 0.0
C525 C 0.02066 0.82308 0.38804 0.0
C526 C 0.99226 0.85386 0.39348 0.0
C527 C 0.96133 0.86685 0.37533 0.0
C528 C 0.93484 0.89603 0.38057 0.0
C529 C 0.93877 0.91224 0.40397 0.0
C530 C 0.96913 0.89922 0.42221 0.0
C531 C 0.99573 0.87008 0.41706 0.0
H532 H 0.91824 0.93482 0.40798 0.0
H533 H 0.17046 0.64748 0.35813 0.0
loop_
_geom_bond_atom_site_label_1
_geom_bond_atom_site_label_2
_geom_bond_distance
_geom_bond_site_symmetry_2
_ccdc_geom_bond_type
C0 C1 1.443 . S
C0 N4 1.376 . S
C0 C38 1.389 . S
C1 C0 1.443 . S
C1 C2 1.340 . S
C1 H41 0.951 . S
C2 C1 1.340 . S
C2 C3 1.439 . S
C2 H42 0.950 . S
C3 C2 1.439 . S
C3 N4 1.374 . S
C3 C37 1.395 . S
N4 C0 1.376 . S
N4 C3 1.374 . S
N4 Co5 2.008 . S
Co5 N4 2.008 . S
Co5 N6 1.995 1_554 S
Co5 N11 2.008 1_554 S
Co5 N16 1.995 . S
Co5 N21 2.282 . S
Co5 N27 2.282 1_554 S
N6 Co5 1.995 1_556 S
N6 C7 1.376 . S
N6 C10 1.383 . S
C7 N6 1.376 . S
C7 C8 1.446 . S
C7 C37 1.391 1_556 S
C8 C7 1.446 . S
C8 C9 1.339 . S
C8 H43 0.949 . S
C9 C8 1.339 . S
C9 C10 1.439 . S
C9 H44 0.950 . S
C10 N6 1.383 . S
C10 C9 1.439 . S
C10 C39 1.392 . S
N11 Co5 2.008 1_556 S
N11 C12 1.376 . S
N11 C15 1.374 1_545 S
C12 N11 1.376 . S
C12 C13 1.443 1_545 S
C12 C39 1.389 . S
C13 C12 1.443 1_565 S
C13 C14 1.340 . S
C13 H45 0.951 . S
C14 C13 1.340 . S
C14 C15 1.439 . S
C14 H46 0.950 . S
C15 N11 1.374 1_565 S
C15 C14 1.439 . S
C15 C40 1.395 1_556 S
N16 Co5 1.995 . S
N16 C17 1.376 1_545 S
N16 C20 1.383 . S
C17 N16 1.376 1_565 S
C17 C18 1.446 . S
C17 C40 1.391 . S
C18 C17 1.446 . S
C18 C19 1.339 . S
C18 H47 0.949 . S
C19 C18 1.339 . S
C19 C20 1.439 1_565 S
C19 H48 0.950 . S
C20 N16 1.383 . S
C20 C19 1.439 1_545 S
C20 C38 1.392 . S
N21 Co5 2.282 . S
N21 C24 1.332 . S
N21 C26 1.332 . S
C22 C23 1.386 . S
C22 C25 1.388 . S
C23 C22 1.386 . S
C23 C24 1.382 . S
C23 H49 0.950 . S
C24 N21 1.332 . S
C24 C23 1.382 . S
C24 H35 0.952 . S
C25 C22 1.388 . S
C25 C26 1.382 . S
C25 H50 0.950 . S
C26 N21 1.332 . S
C26 C25 1.382 . S
C26 H36 0.948 . S
N27 Co5 2.282 1_556 S
N27 C31 1.332 . S
N27 C32 1.332 . S
C28 C29 1.388 . S
C28 C32 1.382 . S
C28 H51 0.950 . S
C29 C28 1.388 . S
C29 C30 1.386 . S
C30 C29 1.386 . S
C30 C31 1.382 . S
C30 H52 0.950 . S
C31 N27 1.332 . S
C31 C30 1.382 . S
C31 H33 0.952 . S
C32 N27 1.332 . S
C32 C28 1.382 . S
C32 H34 0.948 . S
H33 C31 0.952 . S
H34 C32 0.948 . S
H35 C24 0.952 . S
H36 C26 0.948 . S
C37 C3 1.395 . S
C37 C7 1.391 1_554 S
C38 C0 1.389 . S
C38 C20 1.392 . S
C39 C10 1.392 . S
C39 C12 1.389 . S
C40 C15 1.395 1_554 S
C40 C17 1.391 . S
H41 C1 0.951 . S
H42 C2 0.950 . S
H43 C8 0.949 . S
H44 C9 0.950 . S
H45 C13 0.951 . S
H46 C14 0.950 . S
H47 C18 0.949 . S
H48 C19 0.950 . S
H49 C23 0.950 . S
H50 C25 0.950 . S
H51 C28 0.950 . S
H52 C30 0.950 . S
C53 C54 1.443 . S
C53 N57 1.376 . S
C53 C91 1.389 . S
C54 C53 1.443 . S
C54 C55 1.340 . S
C54 H94 0.951 . S
C55 C54 1.340 . S
C55 C56 1.439 . S
C55 H95 0.950 . S
C56 C55 1.439 . S
C56 N57 1.374 . S
C56 C90 1.395 . S
N57 C53 1.376 . S
N57 C56 1.374 . S
N57 Co58 2.008 . S
Co58 N57 2.008 . S
Co58 N59 1.995 . S
Co58 N64 2.008 . S
Co58 N69 1.995 . S
Co58 N74 2.282 . S
Co58 N80 2.282 . S
N59 Co58 1.995 . S
N59 C60 1.376 . S
N59 C63 1.383 . S
C60 N59 1.376 . S
C60 C61 1.446 . S
C60 C90 1.391 . S
C61 C60 1.446 . S
C61 C62 1.339 . S
C61 H96 0.949 . S
C62 C61 1.339 . S
C62 C63 1.439 . S
C62 H97 0.950 . S
C63 N59 1.383 . S
C63 C62 1.439 . S
C63 C92 1.392 . S
N64 Co58 2.008 . S
N64 C65 1.376 . S
N64 C68 1.374 1_455 S
C65 N64 1.376 . S
C65 C66 1.443 1_455 S
C65 C92 1.389 . S
C66 C65 1.443 1_655 S
C66 C67 1.340 . S
C66 H98 0.951 . S
C67 C66 1.340 . S
C67 C68 1.439 . S
C67 H99 0.950 . S
C68 N64 1.374 1_655 S
C68 C67 1.439 . S
C68 C93 1.395 . S
N69 Co58 1.995 . S
N69 C70 1.376 1_455 S
N69 C73 1.383 . S
C70 N69 1.376 1_655 S
C70 C71 1.446 . S
C70 C93 1.391 . S
C71 C70 1.446 . S
C71 C72 1.339 . S
C71 H100 0.949 . S
C72 C71 1.339 . S
C72 C73 1.439 1_655 S
C72 H101 0.950 . S
C73 N69 1.383 . S
C73 C72 1.439 1_455 S
C73 C91 1.392 . S
N74 Co58 2.282 . S
N74 C77 1.332 . S
N74 C79 1.332 . S
C75 C76 1.386 . S
C75 C78 1.388 . S
C76 C75 1.386 . S
C76 C77 1.382 . S
C76 H102 0.950 1_455 S
C77 N74 1.332 . S
C77 C76 1.382 . S
C77 H88 0.952 1_455 S
C78 C75 1.388 . S
C78 C79 1.382 . S
C78 H103 0.950 . S
C79 N74 1.332 . S
C79 C78 1.382 . S
C79 H89 0.948 . S
N80 Co58 2.282 . S
N80 C84 1.332 . S
N80 C85 1.332 . S
C81 C82 1.388 . S
C81 C85 1.382 . S
C81 H104 0.950 1_455 S
C82 C81 1.388 . S
C82 C83 1.386 . S
C83 C82 1.386 . S
C83 C84 1.382 . S
C83 H105 0.950 . S
C84 N80 1.332 . S
C84 C83 1.382 . S
C84 H86 0.952 . S
C85 N80 1.332 . S
C85 C81 1.382 . S
C85 H87 0.948 1_455 S
H86 C84 0.952 . S
H87 C85 0.948 1_655 S
H88 C77 0.952 1_655 S
H89 C79 0.948 . S
C90 C56 1.395 . S
C90 C60 1.391 . S
C91 C53 1.389 . S
C91 C73 1.392 . S
C92 C63 1.392 . S
C92 C65 1.389 . S
C93 C68 1.395 . S
C93 C70 1.391 . S
H94 C54 0.951 . S
H95 C55 0.950 . S
H96 C61 0.949 . S
H97 C62 0.950 . S
H98 C66 0.951 . S
H99 C67 0.950 . S
H100 C71 0.949 . S
H101 C72 0.950 . S
H102 C76 0.950 1_655 S
H103 C78 0.950 . S
H104 C81 0.950 1_655 S
H105 C83 0.950 . S
O106 Cd107 2.223 . S
O106 C114 1.315 1_465 S
Cd107 O106 2.223 . S
Cd107 O110 2.297 . S
Cd107 O111 2.439 . S
Cd107 O117 2.240 1_565 S
Cd108 O109 2.240 1_455 S
Cd108 O116 2.223 . S
Cd108 O118 2.297 . S
Cd108 O119 2.439 . S
O109 Cd108 2.240 1_655 S
O109 C114 1.279 . S
O110 Cd107 2.297 . S
O110 C112 1.247 . S
O111 Cd107 2.439 . S
O111 C112 1.208 . S
C112 O110 1.247 . S
C112 O111 1.208 . S
C113 O118 1.247 . S
C113 O119 1.208 . S
C114 O106 1.315 1_645 S
C114 O109 1.279 . S
C115 O116 1.315 . S
C115 O117 1.279 . S
O116 Cd108 2.223 . S
O116 C115 1.315 . S
O117 Cd107 2.240 1_545 S
O117 C115 1.279 . S
O118 Cd108 2.297 . S
O118 C113 1.247 . S
O119 Cd108 2.439 . S
O119 C113 1.208 . S
O120 Cd121 2.223 . S
O120 C128 1.315 . S
Cd121 O120 2.223 . S
Cd121 O124 2.297 . S
Cd121 O125 2.439 . S
Cd121 O131 2.240 . S
Cd122 O123 2.240 . S
Cd122 O130 2.223 . S
Cd122 O132 2.297 1_545 S
Cd122 O133 2.439 . S
O123 Cd122 2.240 . S
O123 C128 1.279 . S
O124 Cd121 2.297 . S
O124 C126 1.247 . S
O125 Cd121 2.439 . S
O125 C126 1.208 . S
C126 O124 1.247 . S
C126 O125 1.208 . S
C127 O132 1.247 . S
C127 O133 1.208 1_565 S
C128 O120 1.315 . S
C128 O123 1.279 . S
C129 O130 1.315 . S
C129 O131 1.279 . S
O130 Cd122 2.223 . S
O130 C129 1.315 . S
O131 Cd121 2.240 . S
O131 C129 1.279 . S
O132 Cd122 2.297 1_565 S
O132 C127 1.247 . S
O133 Cd122 2.439 . S
O133 C127 1.208 1_545 S
H134 C152 0.951 . S
H135 C154 0.951 . S
H136 C156 0.950 . S
H137 C157 0.950 . S
H138 C159 0.950 . S
H139 C162 0.950 . S
H140 C163 0.950 . S
H141 C165 0.950 . S
H142 C166 0.950 . S
H143 C167 0.951 . S
H144 C169 0.951 . S
H145 C171 0.950 . S
H146 C172 0.950 . S
H147 C174 0.950 . S
H148 C177 0.950 . S
H149 C178 0.950 1_565 S
H150 C180 0.950 . S
H151 C181 0.950 . S
C152 H134 0.951 . S
C152 C153 1.366 . S
C152 C154 1.388 . S
C153 C152 1.366 . S
C153 C157 1.385 . S
C154 H135 0.951 . S
C154 C152 1.388 . S
C154 C155 1.366 . S
C155 C154 1.366 . S
C155 C156 1.414 . S
C155 C158 1.499 . S
C156 H136 0.950 . S
C156 C155 1.414 . S
C156 C157 1.374 . S
C157 H137 0.950 . S
C157 C153 1.385 . S
C157 C156 1.374 . S
C158 C155 1.499 . S
C158 C159 1.373 . S
C158 C160 1.389 . S
C159 H138 0.950 . S
C159 C158 1.373 . S
C159 C175 1.377 . S
C160 C158 1.389 . S
C160 C161 1.524 . S
C160 C174 1.377 . S
C161 C160 1.524 . S
C161 C162 1.397 . S
C161 C166 1.363 . S
C162 H139 0.950 . S
C162 C161 1.397 . S
C162 C163 1.334 . S
C163 H140 0.950 . S
C163 C162 1.334 . S
C163 C164 1.287 . S
C164 C163 1.287 . S
C164 C165 1.524 . S
C164 H183 0.913 . S
C165 H141 0.950 . S
C165 C164 1.524 . S
C165 C166 1.415 . S
C166 H142 0.950 . S
C166 C161 1.363 . S
C166 C165 1.415 . S
C167 H143 0.951 . S
C167 C168 1.366 . S
C167 C169 1.388 . S
C168 C167 1.366 . S
C168 C172 1.385 . S
C169 H144 0.951 . S
C169 C167 1.388 . S
C169 C170 1.366 . S
C170 C169 1.366 . S
C170 C171 1.414 . S
C170 C173 1.499 . S
C171 H145 0.950 . S
C171 C170 1.414 . S
C171 C172 1.374 . S
C172 H146 0.950 . S
C172 C168 1.385 . S
C172 C171 1.374 . S
C173 C170 1.499 . S
C173 C174 1.373 . S
C173 C175 1.389 . S
C174 H147 0.950 . S
C174 C160 1.377 . S
C174 C173 1.373 . S
C175 C159 1.377 . S
C175 C173 1.389 . S
C175 C176 1.524 . S
C176 C175 1.524 . S
C176 C177 1.397 . S
C176 C181 1.363 . S
C177 H148 0.950 . S
C177 C176 1.397 . S
C177 C178 1.334 . S
C178 H149 0.950 1_545 S
C178 C177 1.334 . S
C178 C179 1.287 . S
C179 C178 1.287 . S
C179 C180 1.524 . S
C179 H182 0.999 . S
C180 H150 0.950 . S
C180 C179 1.524 . S
C180 C181 1.415 . S
C181 H151 0.950 . S
C181 C176 1.363 . S
C181 C180 1.415 . S
H182 C179 0.999 . S
H183 C164 0.913 . S
H184 C202 0.951 . S
H185 C204 0.951 . S
H186 C206 0.950 . S
H187 C207 0.950 . S
H188 C209 0.950 1_655 S
H189 C212 0.950 . S
H190 C213 0.950 . S
H191 C215 0.950 . S
H192 C216 0.950 . S
H193 C217 0.951 . S
H194 C219 0.951 . S
H195 C221 0.950 . S
H196 C222 0.950 . S
H197 C224 0.950 . S
H198 C227 0.950 . S
H199 C228 0.950 . S
H200 C230 0.950 . S
H201 C231 0.950 . S
C202 H184 0.951 . S
C202 C203 1.366 . S
C202 C204 1.388 . S
C203 C202 1.366 . S
C203 C207 1.385 . S
C204 H185 0.951 . S
C204 C202 1.388 . S
C204 C205 1.366 . S
C205 C204 1.366 . S
C205 C206 1.414 . S
C205 C208 1.499 . S
C206 H186 0.950 . S
C206 C205 1.414 . S
C206 C207 1.374 . S
C207 H187 0.950 . S
C207 C203 1.385 . S
C207 C206 1.374 . S
C208 C205 1.499 . S
C208 C209 1.373 . S
C208 C210 1.389 . S
C209 H188 0.950 1_455 S
C209 C208 1.373 . S
C209 C225 1.377 . S
C210 C208 1.389 . S
C210 C211 1.524 . S
C210 C224 1.377 . S
C211 C210 1.524 . S
C211 C212 1.397 . S
C211 C216 1.363 . S
C212 H189 0.950 . S
C212 C211 1.397 . S
C212 C213 1.334 . S
C213 H190 0.950 . S
C213 C212 1.334 . S
C213 C214 1.287 . S
C214 C213 1.287 . S
C214 C215 1.524 . S
C214 H233 0.913 . S
C215 H191 0.950 . S
C215 C214 1.524 . S
C215 C216 1.415 . S
C216 H192 0.950 . S
C216 C211 1.363 . S
C216 C215 1.415 . S
C217 H193 0.951 . S
C217 C218 1.366 . S
C217 C219 1.388 . S
C218 C217 1.366 . S
C218 C222 1.385 . S
C219 H194 0.951 . S
C219 C217 1.388 . S
C219 C220 1.366 . S
C220 C219 1.366 . S
C220 C221 1.414 . S
C220 C223 1.499 . S
C221 H195 0.950 . S
C221 C220 1.414 . S
C221 C222 1.374 . S
C222 H196 0.950 . S
C222 C218 1.385 . S
C222 C221 1.374 . S
C223 C220 1.499 . S
C223 C224 1.373 . S
C223 C225 1.389 . S
C224 H197 0.950 . S
C224 C210 1.377 . S
C224 C223 1.373 . S
C225 C209 1.377 . S
C225 C223 1.389 . S
C225 C226 1.524 1_455 S
C226 C225 1.524 1_655 S
C226 C227 1.397 . S
C226 C231 1.363 . S
C227 H198 0.950 . S
C227 C226 1.397 . S
C227 C228 1.334 . S
C228 H199 0.950 . S
C228 C227 1.334 . S
C228 C229 1.287 . S
C229 C228 1.287 . S
C229 C230 1.524 . S
C229 H232 0.999 . S
C230 H200 0.950 . S
C230 C229 1.524 . S
C230 C231 1.415 . S
C231 H201 0.950 . S
C231 C226 1.363 . S
C231 C230 1.415 . S
H232 C229 0.999 . S
H233 C214 0.913 . S
H234 C252 0.951 . S
H235 C254 0.951 . S
H236 C256 0.950 . S
H237 C257 0.950 . S
H238 C259 0.950 1_565 S
H239 C262 0.950 . S
H240 C263 0.950 . S
H241 C265 0.950 . S
H242 C266 0.950 . S
H243 C267 0.951 1_565 S
H244 C269 0.951 1_565 S
H245 C271 0.950 . S
H246 C272 0.950 . S
H247 C274 0.950 . S
H248 C277 0.950 . S
H249 C278 0.950 . S
H250 C280 0.950 . S
H251 C281 0.950 . S
C252 H234 0.951 . S
C252 C253 1.366 . S
C252 C254 1.388 . S
C253 C252 1.366 . S
C253 C257 1.385 . S
C254 H235 0.951 . S
C254 C252 1.388 . S
C254 C255 1.366 . S
C255 C254 1.366 . S
C255 C256 1.414 . S
C255 C258 1.499 . S
C256 H236 0.950 . S
C256 C255 1.414 . S
C256 C257 1.374 . S
C257 H237 0.950 . S
C257 C253 1.385 . S
C257 C256 1.374 . S
C258 C255 1.499 . S
C258 C259 1.373 . S
C258 C260 1.389 . S
C259 H238 0.950 1_545 S
C259 C258 1.373 . S
C259 C275 1.377 . S
C260 C258 1.389 . S
C260 C261 1.524 . S
C260 C274 1.377 . S
C261 C260 1.524 . S
C261 C262 1.397 . S
C261 C266 1.363 . S
C262 H239 0.950 . S
C262 C261 1.397 . S
C262 C263 1.334 . S
C263 H240 0.950 . S
C263 C262 1.334 . S
C263 C264 1.287 . S
C264 C263 1.287 . S
C264 C265 1.524 . S
C264 H283 0.913 . S
C265 H241 0.950 . S
C265 C264 1.524 . S
C265 C266 1.415 . S
C266 H242 0.950 . S
C266 C261 1.363 . S
C266 C265 1.415 . S
C267 H243 0.951 1_545 S
C267 C268 1.366 . S
C267 C269 1.388 . S
C268 C267 1.366 . S
C268 C272 1.385 . S
C269 H244 0.951 1_545 S
C269 C267 1.388 . S
C269 C270 1.366 . S
C270 C269 1.366 . S
C270 C271 1.414 . S
C270 C273 1.499 . S
C271 H245 0.950 . S
C271 C270 1.414 . S
C271 C272 1.374 . S
C272 H246 0.950 . S
C272 C268 1.385 . S
C272 C271 1.374 . S
C273 C270 1.499 . S
C273 C274 1.373 . S
C273 C275 1.389 . S
C274 H247 0.950 . S
C274 C260 1.377 . S
C274 C273 1.373 . S
C275 C259 1.377 . S
C275 C273 1.389 . S
C275 C276 1.524 1_545 S
C276 C275 1.524 1_565 S
C276 C277 1.397 . S
C276 C281 1.363 . S
C277 H248 0.950 . S
C277 C276 1.397 . S
C277 C278 1.334 . S
C278 H249 0.950 . S
C278 C277 1.334 . S
C278 C279 1.287 . S
C279 C278 1.287 . S
C279 C280 1.524 . S
C279 H282 0.999 . S
C280 H250 0.950 . S
C280 C279 1.524 . S
C280 C281 1.415 . S
C281 H251 0.950 . S
C281 C276 1.363 . S
C281 C280 1.415 . S
H282 C279 0.999 . S
H283 C264 0.913 . S
H284 C302 0.951 . S
H285 C304 0.951 . S
H286 C306 0.950 . S
H287 C307 0.950 . S
H288 C309 0.950 . S
H289 C312 0.950 . S
H290 C313 0.950 . S
H291 C315 0.950 . S
H292 C316 0.950 . S
H293 C317 0.951 . S
H294 C319 0.951 . S
H295 C321 0.950 . S
H296 C322 0.950 . S
H297 C324 0.950 . S
H298 C327 0.950 . S
H299 C328 0.950 . S
H300 C330 0.950 . S
H301 C331 0.950 . S
C302 H284 0.951 . S
C302 C303 1.366 . S
C302 C304 1.388 . S
C303 C302 1.366 . S
C303 C307 1.385 . S
C304 H285 0.951 . S
C304 C302 1.388 . S
C304 C305 1.366 . S
C305 C304 1.366 . S
C305 C306 1.414 . S
C305 C308 1.499 . S
C306 H286 0.950 . S
C306 C305 1.414 . S
C306 C307 1.374 . S
C307 H287 0.950 . S
C307 C303 1.385 . S
C307 C306 1.374 . S
C308 C305 1.499 . S
C308 C309 1.373 . S
C308 C310 1.389 . S
C309 H288 0.950 . S
C309 C308 1.373 . S
C309 C325 1.377 . S
C310 C308 1.389 . S
C310 C311 1.524 . S
C310 C324 1.377 . S
C311 C310 1.524 . S
C311 C312 1.397 . S
C311 C316 1.363 . S
C312 H289 0.950 . S
C312 C311 1.397 . S
C312 C313 1.334 . S
C313 H290 0.950 . S
C313 C312 1.334 . S
C313 C314 1.287 . S
C314 C313 1.287 . S
C314 C315 1.524 . S
C314 H333 0.913 . S
C315 H291 0.950 . S
C315 C314 1.524 . S
C315 C316 1.415 . S
C316 H292 0.950 . S
C316 C311 1.363 . S
C316 C315 1.415 . S
C317 H293 0.951 . S
C317 C318 1.366 . S
C317 C319 1.388 . S
C318 C317 1.366 . S
C318 C322 1.385 . S
C319 H294 0.951 . S
C319 C317 1.388 . S
C319 C320 1.366 . S
C320 C319 1.366 . S
C320 C321 1.414 . S
C320 C323 1.499 . S
C321 H295 0.950 . S
C321 C320 1.414 . S
C321 C322 1.374 . S
C322 H296 0.950 . S
C322 C318 1.385 . S
C322 C321 1.374 . S
C323 C320 1.499 . S
C323 C324 1.373 . S
C323 C325 1.389 . S
C324 H297 0.950 . S
C324 C310 1.377 . S
C324 C323 1.373 . S
C325 C309 1.377 . S
C325 C323 1.389 . S
C325 C326 1.524 . S
C326 C325 1.524 . S
C326 C327 1.397 . S
C326 C331 1.363 . S
C327 H298 0.950 . S
C327 C326 1.397 . S
C327 C328 1.334 . S
C328 H299 0.950 . S
C328 C327 1.334 . S
C328 C329 1.287 . S
C329 C328 1.287 . S
C329 C330 1.524 . S
C329 H332 0.999 . S
C330 H300 0.950 . S
C330 C329 1.524 . S
C330 C331 1.415 . S
C331 H301 0.950 . S
C331 C326 1.363 . S
C331 C330 1.415 . S
H332 C329 0.999 . S
H333 C314 0.913 . S
H334 C352 0.951 . S
H335 C354 0.951 . S
H336 C356 0.950 . S
H337 C357 0.950 . S
H338 C359 0.950 . S
H339 C362 0.950 . S
H340 C363 0.950 . S
H341 C365 0.950 . S
H342 C366 0.966 . S
H343 C367 0.951 . S
H344 C369 0.951 . S
H345 C371 0.950 1_565 S
H346 C372 0.950 1_565 S
H347 C374 0.950 . S
H348 C377 0.950 . S
H349 C378 0.950 . S
H350 C380 0.950 . S
H351 C381 0.950 . S
C352 H334 0.951 . S
C352 C353 1.366 . S
C352 C354 1.388 . S
C353 C352 1.366 . S
C353 C357 1.385 . S
C354 H335 0.951 . S
C354 C352 1.388 . S
C354 C355 1.366 . S
C355 C354 1.366 . S
C355 C356 1.414 . S
C355 C358 1.499 . S
C356 H336 0.950 . S
C356 C355 1.414 . S
C356 C357 1.374 . S
C357 H337 0.950 . S
C357 C353 1.385 . S
C357 C356 1.374 . S
C358 C355 1.499 . S
C358 C359 1.373 . S
C358 C360 1.389 . S
C359 H338 0.950 . S
C359 C358 1.373 . S
C359 C375 1.377 . S
C360 C358 1.389 . S
C360 C361 1.524 . S
C360 C374 1.377 . S
C361 C360 1.524 . S
C361 C362 1.397 . S
C361 C366 1.343 1_545 S
C362 H339 0.950 . S
C362 C361 1.397 . S
C362 C363 1.334 . S
C363 H340 0.950 . S
C363 C362 1.334 . S
C363 C364 1.287 . S
C364 C363 1.287 . S
C364 C365 1.524 1_545 S
C364 H383 0.913 . S
C365 H341 0.950 . S
C365 C364 1.524 1_565 S
C365 C366 1.419 . S
C366 H342 0.966 . S
C366 C361 1.343 1_565 S
C366 C365 1.419 . S
C367 H343 0.951 . S
C367 C368 1.366 . S
C367 C369 1.388 . S
C368 C367 1.366 . S
C368 C372 1.385 . S
C369 H344 0.951 . S
C369 C367 1.388 . S
C369 C370 1.366 . S
C370 C369 1.366 . S
C370 C371 1.414 . S
C370 C373 1.499 . S
C371 H345 0.950 1_545 S
C371 C370 1.414 . S
C371 C372 1.374 . S
C372 H346 0.950 1_545 S
C372 C368 1.385 . S
C372 C371 1.374 . S
C373 C370 1.499 . S
C373 C374 1.373 . S
C373 C375 1.389 . S
C374 H347 0.950 . S
C374 C360 1.377 . S
C374 C373 1.373 . S
C375 C359 1.377 . S
C375 C373 1.389 . S
C375 C376 1.524 . S
C376 C375 1.524 . S
C376 C377 1.397 . S
C376 C381 1.363 . S
C377 H348 0.950 . S
C377 C376 1.397 . S
C377 C378 1.334 . S
C378 H349 0.950 . S
C378 C377 1.334 . S
C378 C379 1.287 . S
C379 C378 1.287 . S
C379 C380 1.524 . S
C379 H382 0.999 . S
C380 H350 0.950 . S
C380 C379 1.524 . S
C380 C381 1.415 . S
C381 H351 0.950 . S
C381 C376 1.363 . S
C381 C380 1.415 . S
H382 C379 0.999 . S
H383 C364 0.913 . S
H384 C402 0.951 . S
H385 C404 0.951 . S
H386 C406 0.950 . S
H387 C407 0.950 . S
H388 C409 0.950 . S
H389 C412 0.950 . S
H390 C413 0.950 . S
H391 C415 0.950 . S
H392 C416 0.950 . S
H393 C417 0.951 . S
H394 C419 0.951 . S
H395 C421 0.950 . S
H396 C422 0.950 . S
H397 C424 0.950 . S
H398 C427 0.950 . S
H399 C428 0.950 . S
H400 C430 0.950 . S
H401 C431 0.950 . S
C402 H384 0.951 . S
C402 C403 1.366 . S
C402 C404 1.388 . S
C403 C402 1.366 . S
C403 C407 1.385 . S
C404 H385 0.951 . S
C404 C402 1.388 . S
C404 C405 1.366 . S
C405 C404 1.366 . S
C405 C406 1.414 . S
C405 C408 1.499 . S
C406 H386 0.950 . S
C406 C405 1.414 . S
C406 C407 1.374 . S
C407 H387 0.950 . S
C407 C403 1.385 . S
C407 C406 1.374 . S
C408 C405 1.499 . S
C408 C409 1.373 . S
C408 C410 1.389 . S
C409 H388 0.950 . S
C409 C408 1.373 . S
C409 C425 1.377 . S
C410 C408 1.389 . S
C410 C411 1.524 . S
C410 C424 1.377 . S
C411 C410 1.524 . S
C411 C412 1.397 . S
C411 C416 1.363 . S
C412 H389 0.950 . S
C412 C411 1.397 . S
C412 C413 1.334 . S
C413 H390 0.950 . S
C413 C412 1.334 . S
C413 C414 1.287 . S
C414 C413 1.287 . S
C414 C415 1.524 . S
C414 H433 0.913 . S
C415 H391 0.950 . S
C415 C414 1.524 . S
C415 C416 1.415 . S
C416 H392 0.950 . S
C416 C411 1.363 . S
C416 C415 1.415 . S
C417 H393 0.951 . S
C417 C418 1.366 . S
C417 C419 1.388 . S
C418 C417 1.366 . S
C418 C422 1.385 . S
C419 H394 0.951 . S
C419 C417 1.388 . S
C419 C420 1.366 . S
C420 C419 1.366 . S
C420 C421 1.414 . S
C420 C423 1.499 . S
C421 H395 0.950 . S
C421 C420 1.414 . S
C421 C422 1.374 . S
C422 H396 0.950 . S
C422 C418 1.385 . S
C422 C421 1.374 . S
C423 C420 1.499 . S
C423 C424 1.373 . S
C423 C425 1.389 . S
C424 H397 0.950 . S
C424 C410 1.377 . S
C424 C423 1.373 . S
C425 C409 1.377 . S
C425 C423 1.389 . S
C425 C426 1.524 . S
C426 C425 1.524 . S
C426 C427 1.397 1_455 S
C426 C431 1.363 . S
C427 H398 0.950 . S
C427 C426 1.397 1_655 S
C427 C428 1.334 . S
C428 H399 0.950 . S
C428 C427 1.334 . S
C428 C429 1.287 . S
C429 C428 1.287 . S
C429 C430 1.524 . S
C429 H432 0.999 . S
C430 H400 0.950 . S
C430 C429 1.524 . S
C430 C431 1.415 1_655 S
C431 H401 0.950 . S
C431 C426 1.363 . S
C431 C430 1.415 1_455 S
H432 C429 0.999 . S
H433 C414 0.913 . S
H434 C452 0.951 . S
H435 C454 0.951 . S
H436 C456 0.950 . S
H437 C457 0.950 . S
H438 C459 0.950 . S
H439 C462 0.950 . S
H440 C463 0.950 . S
H441 C465 0.950 . S
H442 C466 0.950 . S
H443 C467 0.951 1_455 S
H444 C469 0.951 . S
H445 C471 0.950 . S
H446 C472 0.950 . S
H447 C474 0.950 . S
H448 C477 0.950 . S
H449 C478 0.950 . S
H450 C480 0.950 . S
H451 C481 0.950 . S
C452 H434 0.951 . S
C452 C453 1.366 . S
C452 C454 1.388 . S
C453 C452 1.366 . S
C453 C457 1.385 . S
C454 H435 0.951 . S
C454 C452 1.388 . S
C454 C455 1.366 . S
C455 C454 1.366 . S
C455 C456 1.414 . S
C455 C458 1.499 . S
C456 H436 0.950 . S
C456 C455 1.414 . S
C456 C457 1.374 . S
C457 H437 0.950 . S
C457 C453 1.385 . S
C457 C456 1.374 . S
C458 C455 1.499 . S
C458 C459 1.373 . S
C458 C460 1.389 . S
C459 H438 0.950 . S
C459 C458 1.373 . S
C459 C475 1.377 . S
C460 C458 1.389 . S
C460 C461 1.524 . S
C460 C474 1.377 . S
C461 C460 1.524 . S
C461 C462 1.397 1_545 S
C461 C466 1.363 . S
C462 H439 0.950 . S
C462 C461 1.397 1_565 S
C462 C463 1.334 . S
C463 H440 0.950 . S
C463 C462 1.334 . S
C463 C464 1.287 . S
C464 C463 1.287 . S
C464 C465 1.524 1_565 S
C464 H483 0.913 . S
C465 H441 0.950 . S
C465 C464 1.524 1_545 S
C465 C466 1.415 . S
C466 H442 0.950 . S
C466 C461 1.363 . S
C466 C465 1.415 . S
C467 H443 0.951 1_655 S
C467 C468 1.366 . S
C467 C469 1.388 . S
C468 C467 1.366 . S
C468 C472 1.385 . S
C469 H444 0.951 . S
C469 C467 1.388 . S
C469 C470 1.366 . S
C470 C469 1.366 . S
C470 C471 1.414 . S
C470 C473 1.499 . S
C471 H445 0.950 . S
C471 C470 1.414 . S
C471 C472 1.374 . S
C472 H446 0.950 . S
C472 C468 1.385 . S
C472 C471 1.374 . S
C473 C470 1.499 . S
C473 C474 1.373 . S
C473 C475 1.389 . S
C474 H447 0.950 . S
C474 C460 1.377 . S
C474 C473 1.373 . S
C475 C459 1.377 . S
C475 C473 1.389 . S
C475 C476 1.524 . S
C476 C475 1.524 . S
C476 C477 1.397 . S
C476 C481 1.363 . S
C477 H448 0.950 . S
C477 C476 1.397 . S
C477 C478 1.334 . S
C478 H449 0.950 . S
C478 C477 1.334 . S
C478 C479 1.287 . S
C479 C478 1.287 . S
C479 C480 1.524 . S
C479 H482 0.999 . S
C480 H450 0.950 . S
C480 C479 1.524 . S
C480 C481 1.415 . S
C481 H451 0.950 . S
C481 C476 1.363 . S
C481 C480 1.415 . S
H482 C479 0.999 . S
H483 C464 0.913 . S
H484 C502 0.951 1_655 S
H485 C504 0.951 1_655 S
H486 C506 0.950 . S
H487 C507 0.950 . S
H488 C509 0.950 . S
H489 C512 0.950 . S
H490 C513 0.950 . S
H491 C515 0.950 . S
H492 C516 0.950 . S
H493 C517 0.951 . S
H494 C519 0.951 . S
H495 C521 0.950 . S
H496 C522 0.950 . S
H497 C524 0.950 . S
H498 C527 0.950 1_655 S
H499 C528 0.950 1_655 S
H500 C530 0.950 . S
H501 C531 0.950 . S
C502 H484 0.951 1_455 S
C502 C503 1.366 . S
C502 C504 1.388 . S
C503 C502 1.366 . S
C503 C507 1.385 . S
C504 H485 0.951 1_455 S
C504 C502 1.388 . S
C504 C505 1.366 . S
C505 C504 1.366 . S
C505 C506 1.414 . S
C505 C508 1.499 . S
C506 H486 0.950 . S
C506 C505 1.414 . S
C506 C507 1.374 . S
C507 H487 0.950 . S
C507 C503 1.385 . S
C507 C506 1.374 . S
C508 C505 1.499 . S
C508 C509 1.373 . S
C508 C510 1.389 . S
C509 H488 0.950 . S
C509 C508 1.373 . S
C509 C525 1.377 . S
C510 C508 1.389 . S
C510 C511 1.524 . S
C510 C524 1.377 . S
C511 C510 1.524 . S
C511 C512 1.397 . S
C511 C516 1.363 1_455 S
C512 H489 0.950 . S
C512 C511 1.397 . S
C512 C513 1.334 . S
C513 H490 0.950 . S
C513 C512 1.334 . S
C513 C514 1.287 . S
C514 C513 1.287 . S
C514 C515 1.524 1_455 S
C514 H533 0.913 . S
C515 H491 0.950 . S
C515 C514 1.524 1_655 S
C515 C516 1.415 . S
C516 H492 0.950 . S
C516 C511 1.363 1_655 S
C516 C515 1.415 . S
C517 H493 0.951 . S
C517 C518 1.366 . S
C517 C519 1.388 . S
C518 C517 1.366 . S
C518 C522 1.385 1_455 S
C519 H494 0.951 . S
C519 C517 1.388 . S
C519 C520 1.366 . S
C520 C519 1.366 . S
C520 C521 1.414 1_455 S
C520 C523 1.499 . S
C521 H495 0.950 . S
C521 C520 1.414 1_655 S
C521 C522 1.374 . S
C522 H496 0.950 . S
C522 C518 1.385 1_655 S
C522 C521 1.374 . S
C523 C520 1.499 . S
C523 C524 1.373 . S
C523 C525 1.389 . S
C524 H497 0.950 . S
C524 C510 1.377 . S
C524 C523 1.373 . S
C525 C509 1.377 . S
C525 C523 1.389 . S
C525 C526 1.524 . S
C526 C525 1.524 . S
C526 C527 1.397 . S
C526 C531 1.363 . S
C527 H498 0.950 1_455 S
C527 C526 1.397 . S
C527 C528 1.334 . S
C528 H499 0.950 1_455 S
C528 C527 1.334 . S
C528 C529 1.287 . S
C529 C528 1.287 . S
C529 C530 1.524 . S
C529 H532 0.999 . S
C530 H500 0.950 . S
C530 C529 1.524 . S
C530 C531 1.415 . S
C531 H501 0.950 . S
C531 C526 1.363 . S
C531 C530 1.415 . S
H532 C529 0.999 . S
H533 C514 0.913 . S
C168 C115 1.590 . S
C153 C22 1.591 . S
C218 C126 1.539 . S
C203 C91 1.609 . S
C268 C114 1.613 . S
C253 C38 1.611 . S
C318 C127 1.527 . S
C303 C75 1.583 . S
C368 C129 1.611 . S
C353 C39 1.609 . S
C418 C113 1.525 . S
C403 C82 1.585 . S
C468 C128 1.589 1_655 S
C453 C29 1.589 . S
C503 C92 1.607 . S
C518 C112 1.543 . S
