# Generated by pormake.
# Topology fgl, (4,4)-cn, num edge types: 1
# Building blocks:
#     Node 0, Type 0, BuildingBlock: ESEHIV_clean_sbu_0, # of connection points: 4
#     Node 1, Type 0, BuildingBlock: ESEHIV_clean_sbu_0, # of connection points: 4
#     Node 2, Type 0, BuildingBlock: ESEHIV_clean_sbu_0, # of connection points: 4
#     Node 3, Type 0, BuildingBlock: ESEHIV_clean_sbu_0, # of connection points: 4
#     Node 4, Type 0, BuildingBlock: ESEHIV_clean_sbu_0, # of connection points: 4
#     Node 5, Type 0, BuildingBlock: ESEHIV_clean_sbu_0, # of connection points: 4
#     Node 6, Type 0, BuildingBlock: ESEHIV_clean_sbu_0, # of connection points: 4
#     Node 7, Type 0, BuildingBlock: ESEHIV_clean_sbu_0, # of connection points: 4
#     Node 8, Type 0, BuildingBlock: ESEHIV_clean_sbu_0, # of connection points: 4
#     Node 9, Type 0, BuildingBlock: ESEHIV_clean_sbu_0, # of connection points: 4
#     Node 10, Type 0, BuildingBlock: ESEHIV_clean_sbu_0, # of connection points: 4
#     Node 11, Type 0, BuildingBlock: ESEHIV_clean_sbu_0, # of connection points: 4
#     Node 12, Type 0, BuildingBlock: ESEHIV_clean_sbu_0, # of connection points: 4
#     Node 13, Type 0, BuildingBlock: ESEHIV_clean_sbu_0, # of connection points: 4
#     Node 14, Type 0, BuildingBlock: ESEHIV_clean_sbu_0, # of connection points: 4
#     Node 15, Type 0, BuildingBlock: ESEHIV_clean_sbu_0, # of connection points: 4
#     Node 16, Type 0, BuildingBlock: ESEHIV_clean_sbu_0, # of connection points: 4
#     Node 17, Type 0, BuildingBlock: ESEHIV_clean_sbu_0, # of connection points: 4
#     Node 18, Type 1, BuildingBlock: GALJAG_clean_sbu_0, # of connection points: 4
#     Node 19, Type 1, BuildingBlock: GALJAG_clean_sbu_0, # of connection points: 4
#     Node 20, Type 1, BuildingBlock: GALJAG_clean_sbu_0, # of connection points: 4
#     Node 21, Type 1, BuildingBlock: GALJAG_clean_sbu_0, # of connection points: 4
#     Node 22, Type 1, BuildingBlock: GALJAG_clean_sbu_0, # of connection points: 4
#     Node 23, Type 1, BuildingBlock: GALJAG_clean_sbu_0, # of connection points: 4
#     Node 24, Type 1, BuildingBlock: GALJAG_clean_sbu_0, # of connection points: 4
#     Node 25, Type 1, BuildingBlock: GALJAG_clean_sbu_0, # of connection points: 4
#     Node 26, Type 1, BuildingBlock: GALJAG_clean_sbu_0, # of connection points: 4
#     Node 27, Type 1, BuildingBlock: GALJAG_clean_sbu_0, # of connection points: 4
#     Node 28, Type 1, BuildingBlock: GALJAG_clean_sbu_0, # of connection points: 4
#     Node 29, Type 1, BuildingBlock: GALJAG_clean_sbu_0, # of connection points: 4
#     Node 30, Type 1, BuildingBlock: GALJAG_clean_sbu_0, # of connection points: 4
#     Node 31, Type 1, BuildingBlock: GALJAG_clean_sbu_0, # of connection points: 4
#     Node 32, Type 1, BuildingBlock: GALJAG_clean_sbu_0, # of connection points: 4
#     Node 33, Type 1, BuildingBlock: GALJAG_clean_sbu_0, # of connection points: 4
#     Node 34, Type 1, BuildingBlock: GALJAG_clean_sbu_0, # of connection points: 4
#     Node 35, Type 1, BuildingBlock: GALJAG_clean_sbu_0, # of connection points: 4
#     Edge 36, Type (0, 1), BuildingBlock: CIFDUS_clean_linker_0, # of connection points: 2
#     Edge 37, Type (0, 1), BuildingBlock: CIFDUS_clean_linker_0, # of connection points: 2
#     Edge 38, Type (0, 1), BuildingBlock: CIFDUS_clean_linker_0, # of connection points: 2
#     Edge 39, Type (0, 1), BuildingBlock: CIFDUS_clean_linker_0, # of connection points: 2
#     Edge 40, Type (0, 1), BuildingBlock: CIFDUS_clean_linker_0, # of connection points: 2
#     Edge 41, Type (0, 1), BuildingBlock: CIFDUS_clean_linker_0, # of connection points: 2
#     Edge 42, Type (0, 1), BuildingBlock: CIFDUS_clean_linker_0, # of connection points: 2
#     Edge 43, Type (0, 1), BuildingBlock: CIFDUS_clean_linker_0, # of connection points: 2
#     Edge 44, Type (0, 1), BuildingBlock: CIFDUS_clean_linker_0, # of connection points: 2
#     Edge 45, Type (0, 1), BuildingBlock: CIFDUS_clean_linker_0, # of connection points: 2
#     Edge 46, Type (0, 1), BuildingBlock: CIFDUS_clean_linker_0, # of connection points: 2
#     Edge 47, Type (0, 1), BuildingBlock: CIFDUS_clean_linker_0, # of connection points: 2
#     Edge 48, Type (0, 1), BuildingBlock: CIFDUS_clean_linker_0, # of connection points: 2
#     Edge 49, Type (0, 1), BuildingBlock: CIFDUS_clean_linker_0, # of connection points: 2
#     Edge 50, Type (0, 1), BuildingBlock: CIFDUS_clean_linker_0, # of connection points: 2
#     Edge 51, Type (0, 1), BuildingBlock: CIFDUS_clean_linker_0, # of connection points: 2
#     Edge 52, Type (0, 1), BuildingBlock: CIFDUS_clean_linker_0, # of connection points: 2
#     Edge 53, Type (0, 1), BuildingBlock: CIFDUS_clean_linker_0, # of connection points: 2
#     Edge 54, Type (0, 1), BuildingBlock: CIFDUS_clean_linker_0, # of connection points: 2
#     Edge 55, Type (0, 1), BuildingBlock: CIFDUS_clean_linker_0, # of connection points: 2
#     Edge 56, Type (0, 1), BuildingBlock: CIFDUS_clean_linker_0, # of connection points: 2
#     Edge 57, Type (0, 1), BuildingBlock: CIFDUS_clean_linker_0, # of connection points: 2
#     Edge 58, Type (0, 1), BuildingBlock: CIFDUS_clean_linker_0, # of connection points: 2
#     Edge 59, Type (0, 1), BuildingBlock: CIFDUS_clean_linker_0, # of connection points: 2
#     Edge 60, Type (0, 1), BuildingBlock: CIFDUS_clean_linker_0, # of connection points: 2
#     Edge 61, Type (0, 1), BuildingBlock: CIFDUS_clean_linker_0, # of connection points: 2
#     Edge 62, Type (0, 1), BuildingBlock: CIFDUS_clean_linker_0, # of connection points: 2
#     Edge 63, Type (0, 1), BuildingBlock: CIFDUS_clean_linker_0, # of connection points: 2
#     Edge 64, Type (0, 1), BuildingBlock: CIFDUS_clean_linker_0, # of connection points: 2
#     Edge 65, Type (0, 1), BuildingBlock: CIFDUS_clean_linker_0, # of connection points: 2
#     Edge 66, Type (0, 1), BuildingBlock: CIFDUS_clean_linker_0, # of connection points: 2
#     Edge 67, Type (0, 1), BuildingBlock: CIFDUS_clean_linker_0, # of connection points: 2
#     Edge 68, Type (0, 1), BuildingBlock: CIFDUS_clean_linker_0, # of connection points: 2
#     Edge 69, Type (0, 1), BuildingBlock: CIFDUS_clean_linker_0, # of connection points: 2
#     Edge 70, Type (0, 1), BuildingBlock: CIFDUS_clean_linker_0, # of connection points: 2
#     Edge 71, Type (0, 1), BuildingBlock: CIFDUS_clean_linker_0, # of connection points: 2
#     Edge 72, Type (0, 1), BuildingBlock: CIFDUS_clean_linker_0, # of connection points: 2
#     Edge 73, Type (0, 1), BuildingBlock: CIFDUS_clean_linker_0, # of connection points: 2
#     Edge 74, Type (0, 1), BuildingBlock: CIFDUS_clean_linker_0, # of connection points: 2
#     Edge 75, Type (0, 1), BuildingBlock: CIFDUS_clean_linker_0, # of connection points: 2
#     Edge 76, Type (0, 1), BuildingBlock: CIFDUS_clean_linker_0, # of connection points: 2
#     Edge 77, Type (0, 1), BuildingBlock: CIFDUS_clean_linker_0, # of connection points: 2
#     Edge 78, Type (0, 1), BuildingBlock: CIFDUS_clean_linker_0, # of connection points: 2
#     Edge 79, Type (0, 1), BuildingBlock: CIFDUS_clean_linker_0, # of connection points: 2
#     Edge 80, Type (0, 1), BuildingBlock: CIFDUS_clean_linker_0, # of connection points: 2
#     Edge 81, Type (0, 1), BuildingBlock: CIFDUS_clean_linker_0, # of connection points: 2
#     Edge 82, Type (0, 1), BuildingBlock: CIFDUS_clean_linker_0, # of connection points: 2
#     Edge 83, Type (0, 1), BuildingBlock: CIFDUS_clean_linker_0, # of connection points: 2
#     Edge 84, Type (0, 1), BuildingBlock: CIFDUS_clean_linker_0, # of connection points: 2
#     Edge 85, Type (0, 1), BuildingBlock: CIFDUS_clean_linker_0, # of connection points: 2
#     Edge 86, Type (0, 1), BuildingBlock: CIFDUS_clean_linker_0, # of connection points: 2
#     Edge 87, Type (0, 1), BuildingBlock: CIFDUS_clean_linker_0, # of connection points: 2
#     Edge 88, Type (0, 1), BuildingBlock: CIFDUS_clean_linker_0, # of connection points: 2
#     Edge 89, Type (0, 1), BuildingBlock: CIFDUS_clean_linker_0, # of connection points: 2
#     Edge 90, Type (0, 1), BuildingBlock: CIFDUS_clean_linker_0, # of connection points: 2
#     Edge 91, Type (0, 1), BuildingBlock: CIFDUS_clean_linker_0, # of connection points: 2
#     Edge 92, Type (0, 1), BuildingBlock: CIFDUS_clean_linker_0, # of connection points: 2
#     Edge 93, Type (0, 1), BuildingBlock: CIFDUS_clean_linker_0, # of connection points: 2
#     Edge 94, Type (0, 1), BuildingBlock: CIFDUS_clean_linker_0, # of connection points: 2
#     Edge 95, Type (0, 1), BuildingBlock: CIFDUS_clean_linker_0, # of connection points: 2
#     Edge 96, Type (0, 1), BuildingBlock: CIFDUS_clean_linker_0, # of connection points: 2
#     Edge 97, Type (0, 1), BuildingBlock: CIFDUS_clean_linker_0, # of connection points: 2
#     Edge 98, Type (0, 1), BuildingBlock: CIFDUS_clean_linker_0, # of connection points: 2
#     Edge 99, Type (0, 1), BuildingBlock: CIFDUS_clean_linker_0, # of connection points: 2
#     Edge 100, Type (0, 1), BuildingBlock: CIFDUS_clean_linker_0, # of connection points: 2
#     Edge 101, Type (0, 1), BuildingBlock: CIFDUS_clean_linker_0, # of connection points: 2
#     Edge 102, Type (0, 1), BuildingBlock: CIFDUS_clean_linker_0, # of connection points: 2
#     Edge 103, Type (0, 1), BuildingBlock: CIFDUS_clean_linker_0, # of connection points: 2
#     Edge 104, Type (0, 1), BuildingBlock: CIFDUS_clean_linker_0, # of connection points: 2
#     Edge 105, Type (0, 1), BuildingBlock: CIFDUS_clean_linker_0, # of connection points: 2
#     Edge 106, Type (0, 1), BuildingBlock: CIFDUS_clean_linker_0, # of connection points: 2
#     Edge 107, Type (0, 1), BuildingBlock: CIFDUS_clean_linker_0, # of connection points: 2
# Relax obj value: 0.032
# Max RMSD: 0.116
# Mean RMSD: 0.093
data_MOF--net-fgl--node1-ESEHIV_clean_sbu_0--node2-GALJAG_clean_sbu_0--edge1-CIFDUS_clean_linker_0
_symmetry_space_group_name_H-M    P1
_symmetry_Int_Tables_number       1
_symmetry_cell_setting            triclinic
loop_
_symmetry_equiv_pos_as_xyz
'x, y, z'
_cell_length_a     66.949179
_cell_length_b     67.033484
_cell_length_c     44.565168
_cell_angle_alpha  90.005789
_cell_angle_beta   90.404934
_cell_angle_gamma 119.76596
loop_
_atom_site_label
_atom_site_type_symbol
_atom_site_fract_x
_atom_site_fract_y
_atom_site_fract_z
_atom_type_partial_charge
Cu0 Cu 0.04061 0.55003 1.00996 0.0
N1 N 0.06024 0.57503 0.03432 0.0
N2 N 0.06966 0.60123 0.07104 0.0
C3 C 0.05253 0.58481 0.05414 0.0
C4 C 0.08901 0.6018 0.06119 0.0
C5 C 0.08314 0.58557 0.03865 0.0
O6 O 0.01667 0.55718 0.99889 0.0
C7 C 0.01613 0.50254 0.0289 0.0
O8 O 1.00191 0.49839 1.00625 0.0
H9 H 0.03452 0.57965 0.05624 0.0
H10 H 0.09464 0.58133 0.02693 0.0
N11 N 0.05487 0.54636 0.97573 0.0
N12 N 0.06041 0.52925 0.93576 0.0
C13 C 0.04707 0.52674 0.95972 0.0
C14 C 0.07389 0.56193 0.96144 0.0
C15 C 0.07735 0.55146 0.93683 0.0
C16 C 0.0131 0.56132 0.97209 0.0
O17 O 0.02104 0.55469 0.94964 0.0
H18 H 0.03153 0.51105 0.96509 0.0
H19 H 0.0844 0.57968 0.96828 0.0
O20 O 0.03148 0.52312 0.03476 0.0
H21 H 0.10614 0.61259 0.07025 0.0
H22 H 0.09138 0.55963 0.92112 0.0
Cu23 Cu 0.54481 0.55463 0.02911 0.0
N24 N 0.54426 0.56378 0.98742 0.0
N25 N 0.55632 0.57805 0.94148 0.0
C26 C 0.56168 0.57152 0.96764 0.0
C27 C 0.53456 0.57399 0.94505 0.0
C28 C 0.52719 0.5652 0.97339 0.0
O29 O 0.56625 0.58878 0.04061 0.0
C30 C 0.52353 0.50847 0.99884 0.0
O31 O 0.54277 0.51733 0.9836 0.0
H32 H 0.57818 0.57299 0.97267 0.0
H33 H 0.51075 0.56057 0.98326 0.0
N34 N 0.54635 0.54567 0.0706 0.0
N35 N 0.53751 0.52844 0.11543 0.0
C36 C 0.52923 0.53107 0.08876 0.0
C37 C 0.56595 0.55248 0.0862 0.0
C38 C 0.56059 0.54202 0.11378 0.0
C39 C 0.58797 0.60042 0.03656 0.0
O40 O 0.59849 0.59038 0.02428 0.0
H41 H 0.51124 0.52214 0.08226 0.0
H42 H 0.58301 0.56406 0.07796 0.0
O43 O 0.5211 0.52078 0.01876 0.0
H44 H 0.52467 0.57727 0.92847 0.0
H45 H 0.57283 0.54435 0.13131 0.0
Cu46 Cu 0.55868 0.0598 0.04122 0.0
N47 N 0.55144 0.07559 1.01256 0.0
N48 N 0.52992 0.08095 0.97844 0.0
C49 C 0.53179 0.06578 0.99644 0.0
C50 C 0.54947 0.10115 0.98313 0.0
C51 C 0.56274 0.09778 1.00424 0.0
O52 O 0.52904 0.03499 0.05512 0.0
C53 C 0.60085 0.06731 0.02164 0.0
O54 O 0.60645 0.08773 0.03219 0.0
H55 H 0.5191 0.04773 0.99801 0.0
H56 H 0.57926 0.11063 0.01312 0.0
N57 N 0.57304 0.07761 0.07522 0.0
N58 N 0.58964 0.08613 0.12058 0.0
C59 C 0.58044 0.07024 0.09854 0.0
C60 C 0.57761 0.09894 0.08265 0.0
C61 C 0.58797 0.10429 0.11064 0.0
C62 C 0.51658 0.04287 0.06546 0.0
O63 O 0.5251 0.06524 0.06632 0.0
H64 H 0.57926 0.05355 0.09905 0.0
H65 H 0.57346 0.1097 0.06893 0.0
O66 O 0.57992 0.05123 0.023 0.0
H67 H 0.55373 0.1173 0.97258 0.0
H68 H 0.59344 0.12013 0.12291 0.0
Cu69 Cu 0.55638 0.07792 0.55437 0.0
N70 N 0.58209 0.10307 0.53795 0.0
N71 N 0.61014 0.12123 0.50453 0.0
C72 C 0.5975 0.10173 0.52011 0.0
C73 C 0.60264 0.13564 0.51331 0.0
C74 C 0.58535 0.12438 0.534 0.0
O75 O 0.56443 0.05323 0.55796 0.0
C76 C 0.50918 0.06559 0.53622 0.0
O77 O 0.50168 0.05177 0.55944 0.0
H78 H 0.59791 0.08605 0.51624 0.0
H79 H 0.57455 0.13055 0.54344 0.0
N80 N 0.55253 0.08468 0.59389 0.0
N81 N 0.53471 0.08509 0.63592 0.0
C82 C 0.53498 0.08647 0.60569 0.0
C83 C 0.56414 0.08289 0.61753 0.0
C84 C 0.55318 0.08308 0.64346 0.0
C85 C 0.56875 0.04278 0.53727 0.0
O86 O 0.56365 0.0449 0.50935 0.0
H87 H 0.52167 0.08701 0.59248 0.0
H88 H 0.57852 0.07986 0.61588 0.0
O89 O 0.53042 0.0749 0.52925 0.0
H90 H 0.60813 0.15247 0.50396 0.0
H91 H 0.55767 0.08058 0.66599 0.0
Cu92 Cu 0.05291 0.55124 0.50337 0.0
N93 N 0.07233 0.54469 0.52708 0.0
N94 N 0.08204 0.52705 0.56257 0.0
C95 C 0.06476 0.52874 0.54901 0.0
C96 C 0.10128 0.5427 0.5483 0.0
C97 C 0.09525 0.55343 0.52646 0.0
O98 O 0.02692 0.52053 0.49592 0.0
C99 C 0.0641 0.59031 0.53584 0.0
O100 O 0.08438 0.59213 0.53217 0.0
H101 H 0.04674 0.5184 0.55449 0.0
H102 H 0.10678 0.56674 0.51135 0.0
N103 N 0.06602 0.566 0.4669 0.0
N104 N 0.07147 0.58661 0.42486 0.0
C105 C 0.05983 0.57928 0.45099 0.0
C106 C 0.08213 0.56484 0.45038 0.0
C107 C 0.08554 0.57751 0.42456 0.0
C108 C 0.02194 0.51121 0.46999 0.0
O109 O 0.02946 0.52432 0.44614 0.0
H110 H 0.04694 0.58337 0.45849 0.0
H111 H 0.09042 0.55505 0.45634 0.0
O112 O 0.04638 0.57251 0.5255 0.0
H113 H 0.11863 0.54646 0.55334 0.0
H114 H 0.0971 0.5793 0.4066 0.0
Cu115 Cu 0.53161 0.56277 0.53559 0.0
N116 N 0.54935 0.592 0.51965 0.0
N117 N 0.58077 0.62388 0.50506 0.0
C118 C 0.57158 0.60147 0.512 0.0
C119 C 0.56355 0.62867 0.50814 0.0
C120 C 0.54412 0.60889 0.51707 0.0
O121 O 0.54658 0.56211 0.57288 0.0
C122 C 0.51537 0.51848 0.50778 0.0
O123 O 0.50956 0.51004 0.53496 0.0
H124 H 0.58114 0.5924 0.51287 0.0
H125 H 0.5276 0.6072 0.52229 0.0
N126 N 0.5033 0.55901 0.54708 0.0
N127 N 0.46623 0.54072 0.55973 0.0
C128 C 0.4827 0.54001 0.54328 0.0
C129 C 0.49974 0.57238 0.56633 0.0
C130 C 0.47685 0.56116 0.57415 0.0
C131 C 0.56669 0.56497 0.57668 0.0
O132 O 0.5782 0.56407 0.55348 0.0
H133 H 0.48018 0.52516 0.53067 0.0
H134 H 0.51316 0.58846 0.57554 0.0
O135 O 0.52644 0.5402 0.50439 0.0
H136 H 0.565 0.64532 0.50474 0.0
H137 H 0.46893 0.56706 0.59034 0.0
Cu138 Cu 0.68829 0.88462 0.3428 0.0
N139 N 0.66715 0.89338 0.32983 0.0
N140 N 0.65501 0.91846 0.32078 0.0
C141 C 0.67317 0.91561 0.32704 0.0
C142 C 0.63677 0.89697 0.31889 0.0
C143 C 0.64431 0.88148 0.32459 0.0
O144 O 0.70639 0.90724 0.37489 0.0
C145 C 0.6886 0.86426 0.28887 0.0
O146 O 0.66677 0.8536 0.29634 0.0
H147 H 0.69063 0.92945 0.33034 0.0
H148 H 0.63379 0.86299 0.32569 0.0
N149 N 0.67513 0.8562 0.36174 0.0
N150 N 0.67482 0.82532 0.38105 0.0
C151 C 0.68753 0.84595 0.36802 0.0
C152 C 0.65368 0.84163 0.37123 0.0
C153 C 0.6534 0.8224 0.38304 0.0
C154 C 0.69407 0.90976 0.39491 0.0
O155 O 0.67157 0.89746 0.39263 0.0
H156 H 0.70552 0.85336 0.36235 0.0
H157 H 0.6393 0.84468 0.36965 0.0
O158 O 0.70289 0.88034 0.30638 0.0
H159 H 0.61913 0.89274 0.31487 0.0
H160 H 0.63868 0.80754 0.39248 0.0
Cu161 Cu 0.21401 0.88817 0.38105 0.0
N162 N 0.18669 0.87531 0.35875 0.0
N163 N 0.15469 0.84721 0.33746 0.0
C164 C 0.17022 0.85304 0.35995 0.0
C165 C 0.16162 0.86664 0.32148 0.0
C166 C 0.18139 0.88397 0.3347 0.0
O167 O 0.20773 0.86746 0.41525 0.0
C168 C 0.24746 0.90935 0.3367 0.0
O169 O 0.24125 0.92498 0.33966 0.0
H170 H 0.17059 0.84094 0.37571 0.0
H171 H 0.19186 0.90127 0.32639 0.0
N172 N 0.22245 0.91757 0.39575 0.0
N173 N 0.24568 0.9537 0.41153 0.0
C174 C 0.24349 0.93282 0.40639 0.0
C175 C 0.2107 0.92901 0.39446 0.0
C176 C 0.22495 0.95127 0.40426 0.0
C177 C 0.19384 0.86764 0.43463 0.0
O178 O 0.18625 0.88217 0.43093 0.0
H179 H 0.25716 0.92878 0.40911 0.0
H180 H 0.19336 0.92196 0.38576 0.0
O181 O 0.23799 0.89132 0.35301 0.0
H182 H 0.15346 0.86801 0.30114 0.0
H183 H 0.22069 0.96487 0.40446 0.0
Cu184 Cu 0.22895 0.41493 0.34718 0.0
N185 N 0.22372 0.43127 0.31704 0.0
N186 N 0.20439 0.4374 0.2804 0.0
C187 C 0.20603 0.4216 0.29743 0.0
C188 C 0.22199 0.45787 0.2896 0.0
C189 C 0.23382 0.45404 0.31229 0.0
O190 O 0.1987 0.39341 0.36377 0.0
C191 C 0.26809 0.41908 0.32355 0.0
O192 O 0.27127 0.44005 0.32257 0.0
H193 H 0.19431 0.40327 0.29632 0.0
H194 H 0.24823 0.46696 0.3251 0.0
N195 N 0.24573 0.43306 0.37973 0.0
N196 N 0.26343 0.43857 0.424 0.0
C197 C 0.25539 0.4252 0.39941 0.0
C198 C 0.2479 0.4524 0.39206 0.0
C199 C 0.25874 0.45576 0.41968 0.0
C200 C 0.18866 0.40402 0.37375 0.0
O201 O 0.19894 0.4264 0.37029 0.0
H202 H 0.255 0.40896 0.39663 0.0
H203 H 0.24099 0.46258 0.38256 0.0
O204 O 0.24851 0.40299 0.33216 0.0
H205 H 0.22555 0.47452 0.28145 0.0
H206 H 0.26217 0.46925 0.4357 0.0
Cu207 Cu 0.19499 0.36361 0.89456 0.0
N208 N 0.19295 0.34435 0.86327 0.0
N209 N 0.20382 0.33759 0.819 0.0
C210 C 0.20646 0.35353 0.8394 0.0
C211 C 0.18763 0.31733 0.83043 0.0
C212 C 0.18098 0.32156 0.85802 0.0
O213 O 0.22639 0.37455 0.91059 0.0
C214 C 0.1704 0.37799 0.85841 0.0
O215 O 0.15995 0.35597 0.85194 0.0
H216 H 0.21791 0.37183 0.83711 0.0
H217 H 0.16851 0.30895 0.87305 0.0
N218 N 0.17334 0.34954 0.92488 0.0
N219 N 0.15101 0.34816 0.9629 0.0
C220 C 0.16667 0.36149 0.94233 0.0
C221 C 0.16139 0.32768 0.93448 0.0
C222 C 0.14757 0.32678 0.95798 0.0
C223 C 0.22959 0.35915 0.92312 0.0
O224 O 0.21167 0.3386 0.92679 0.0
H225 H 0.17312 0.37971 0.93956 0.0
H226 H 0.16276 0.31347 0.92537 0.0
O227 O 0.18749 0.38618 0.87679 0.0
H228 H 0.18138 0.30069 0.81995 0.0
H229 H 0.13624 0.31163 0.97073 0.0
Cu230 Cu 0.71284 0.87655 0.82607 0.0
N231 N 0.72356 0.85895 0.8064 0.0
N232 N 0.72312 0.82736 0.78927 0.0
C233 C 0.71046 0.83645 0.79963 0.0
C234 C 0.74506 0.84484 0.78936 0.0
C235 C 0.74526 0.86435 0.79977 0.0
O236 O 0.69825 0.85964 0.8638 0.0
C237 C 0.70982 0.89792 0.77453 0.0
O238 O 0.73096 0.90144 0.77453 0.0
H239 H 0.69214 0.82666 0.80373 0.0
H240 H 0.76027 0.88106 0.80321 0.0
N241 N 0.73636 0.90497 0.83985 0.0
N242 N 0.75029 0.94019 0.85913 0.0
C243 C 0.73239 0.9224 0.84525 0.0
C244 C 0.75772 0.91199 0.85059 0.0
C245 C 0.76634 0.93378 0.86267 0.0
C246 C 0.71199 0.85583 0.87996 0.0
O247 O 0.73238 0.86194 0.86904 0.0
H248 H 0.71607 0.92149 0.84056 0.0
H249 H 0.76609 0.90175 0.85086 0.0
O250 O 0.69654 0.88549 0.79573 0.0
H251 H 0.75989 0.84349 0.78283 0.0
H252 H 0.78286 0.94389 0.87369 0.0
Cu253 Cu 0.21459 0.86539 0.88257 0.0
N254 N 0.21164 0.84316 0.85454 0.0
N255 N 0.19903 0.82083 0.81345 0.0
C256 C 0.19763 0.83687 0.83026 0.0
C257 C 0.21454 0.81686 0.82785 0.0
C258 C 0.2222 0.83056 0.85325 0.0
O259 O 0.18287 0.85691 0.8913 0.0
C260 C 0.25309 0.89925 0.85531 0.0
O261 O 0.25742 0.88217 0.85575 0.0
H262 H 0.18696 0.84431 0.82477 0.0
H263 H 0.23471 0.83143 0.86945 0.0
N264 N 0.22955 0.86541 0.91831 0.0
N265 N 0.24853 0.87935 0.96182 0.0
C266 C 0.24137 0.88417 0.93577 0.0
C267 C 0.22929 0.848 0.93363 0.0
C268 C 0.24108 0.85657 0.96043 0.0
C269 C 0.175 0.85624 0.91746 0.0
O270 O 0.18938 0.86619 0.93994 0.0
H271 H 0.24416 0.90097 0.92964 0.0
H272 H 0.22049 0.83025 0.92634 0.0
O273 O 0.23382 0.8958 0.86532 0.0
H274 H 0.21988 0.8048 0.82068 0.0
H275 H 0.24314 0.84659 0.97802 0.0
Cu276 Cu 0.35866 0.22049 0.71291 0.0
N277 N 0.3367 0.22631 0.6951 0.0
N278 N 0.32194 0.24635 0.67364 0.0
C279 C 0.3406 0.24722 0.68682 0.0
C280 C 0.30568 0.22389 0.6736 0.0
C281 C 0.31485 0.21159 0.68674 0.0
O282 O 0.37388 0.24393 0.74513 0.0
C283 C 0.36402 0.20116 0.6613 0.0
O284 O 0.34202 0.18872 0.66738 0.0
H285 H 0.35704 0.26266 0.68997 0.0
H286 H 0.30622 0.19316 0.68946 0.0
N287 N 0.34471 0.1919 0.73181 0.0
N288 N 0.34125 0.15926 0.74956 0.0
C289 C 0.35557 0.18003 0.73783 0.0
C290 C 0.32276 0.17824 0.74041 0.0
C291 C 0.32053 0.15793 0.75116 0.0
C292 C 0.35991 0.24348 0.76504 0.0
O293 O 0.33798 0.22836 0.76158 0.0
H294 H 0.3735 0.18623 0.73276 0.0
H295 H 0.30928 0.18261 0.73886 0.0
O296 O 0.3766 0.21766 0.67937 0.0
H297 H 0.28833 0.21677 0.66491 0.0
H298 H 0.30499 0.14337 0.75955 0.0
Cu299 Cu 0.88043 0.20697 0.68105 0.0
N300 N 0.9023 0.208 0.65396 0.0
N301 N 0.9279 0.22215 0.61687 0.0
C302 C 0.91338 0.22531 0.63438 0.0
C303 C 0.92597 0.20203 0.62564 0.0
C304 C 0.91032 0.19343 0.64885 0.0
O305 O 0.89294 0.23982 0.69232 0.0
C306 C 0.84493 0.16752 0.65581 0.0
O307 O 0.86072 0.16186 0.66147 0.0
H308 H 0.91059 0.23987 0.63272 0.0
H309 H 0.90521 0.17769 0.66102 0.0
N310 N 0.87861 0.19143 0.71663 0.0
N311 N 0.86368 0.17396 0.76031 0.0
C312 C 0.86098 0.18435 0.73586 0.0
C313 C 0.89308 0.18527 0.72904 0.0
C314 C 0.88397 0.17455 0.756 0.0
C315 C 0.9134 0.2486 0.70323 0.0
O316 O 0.92197 0.23488 0.70696 0.0
H317 H 0.84636 0.1867 0.73161 0.0
H318 H 0.90921 0.18855 0.71937 0.0
O319 O 0.84951 0.18804 0.66229 0.0
H320 H 0.93539 0.19429 0.61621 0.0
H321 H 0.89198 0.16807 0.77133 0.0
Cu322 Cu 0.88953 0.7244 0.67792 0.0
N323 N 0.88621 0.74534 0.65377 0.0
N324 N 0.87102 0.75731 0.61803 0.0
C325 C 0.87074 0.73906 0.63129 0.0
C326 C 0.88735 0.77587 0.63296 0.0
C327 C 0.89669 0.76843 0.65504 0.0
O328 O 0.85794 0.69938 0.68383 0.0
C329 C 0.92968 0.73257 0.64996 0.0
O330 O 0.93275 0.75347 0.65125 0.0
H331 H 0.85906 0.72129 0.62542 0.0
H332 H 0.91009 0.77908 0.67091 0.0
N333 N 0.90327 0.73725 0.71465 0.0
N334 N 0.92311 0.74139 0.75695 0.0
C335 C 0.91508 0.72967 0.73096 0.0
C336 C 0.90371 0.75445 0.73069 0.0
C337 C 0.91598 0.75706 0.75687 0.0
C338 C 0.84828 0.6935 0.7094 0.0
O339 O 0.86094 0.70121 0.73383 0.0
H340 H 0.9171 0.71531 0.72404 0.0
H341 H 0.89554 0.76421 0.72402 0.0
O342 O 0.91064 0.71592 0.65909 0.0
H343 H 0.8923 0.79356 0.62825 0.0
H344 H 0.91936 0.76957 0.77436 0.0
Cu345 Cu 0.859 0.71146 0.17471 0.0
N346 N 0.85814 0.69586 0.13969 0.0
N347 N 0.87248 0.68755 0.09943 0.0
C348 C 0.87725 0.69991 0.12502 0.0
C349 C 0.84925 0.67506 0.09811 0.0
C350 C 0.84044 0.68027 0.12299 0.0
O351 O 0.88965 0.7209 0.19224 0.0
C352 C 0.82855 0.7264 0.15884 0.0
O353 O 0.81517 0.70401 0.15966 0.0
H354 H 0.89436 0.71182 0.13319 0.0
H355 H 0.82247 0.67345 0.1282 0.0
N356 N 0.83739 0.69243 0.20282 0.0
N357 N 0.81535 0.6839 0.2435 0.0
C358 C 0.83329 0.70044 0.22828 0.0
C359 C 0.82171 0.66991 0.20178 0.0
C360 C 0.80808 0.66457 0.22695 0.0
C361 C 0.89186 0.70394 0.20133 0.0
O362 O 0.87387 0.68321 0.19944 0.0
H363 H 0.84318 0.71827 0.23505 0.0
H364 H 0.81986 0.65839 0.18363 0.0
O365 O 0.8501 0.73479 0.16419 0.0
H366 H 0.83924 0.66343 0.08017 0.0
H367 H 0.79347 0.64795 0.23199 0.0
Cu368 Cu 0.39286 0.21749 0.2048 0.0
N369 N 0.39933 0.19627 0.18456 0.0
N370 N 0.39608 0.16206 0.17288 0.0
C371 C 0.39856 0.17691 0.1952 0.0
C372 C 0.39637 0.17287 0.14731 0.0
C373 C 0.39824 0.19363 0.15448 0.0
O374 O 0.37949 0.20519 0.24485 0.0
C375 C 0.39039 0.2406 0.15388 0.0
O376 O 0.41189 0.24516 0.154 0.0
H377 H 0.39783 0.17284 0.21878 0.0
H378 H 0.39652 0.20477 0.13854 0.0
N379 N 0.4187 0.24534 0.21634 0.0
N380 N 0.43505 0.28189 0.23219 0.0
C381 C 0.41816 0.26516 0.21563 0.0
C382 C 0.43652 0.24958 0.2346 0.0
C383 C 0.44669 0.27222 0.24442 0.0
C384 C 0.3691 0.18427 0.2535 0.0
O385 O 0.35979 0.16777 0.23338 0.0
H386 H 0.40425 0.26669 0.20553 0.0
H387 H 0.44063 0.2367 0.2422 0.0
O388 O 0.37724 0.22783 0.17503 0.0
H389 H 0.39373 0.16556 0.12499 0.0
H390 H 0.46077 0.28053 0.26035 0.0
Cu391 Cu 0.88013 0.24156 0.19592 0.0
N392 N 0.88358 0.2288 0.16042 0.0
N393 N 0.8743 0.20606 0.12009 0.0
C394 C 0.86642 0.21391 0.14233 0.0
C395 C 0.89728 0.21644 0.1242 0.0
C396 C 0.90297 0.23053 0.14903 0.0
O397 O 0.8543 0.2177 0.21731 0.0
C398 C 0.88671 0.28663 0.18228 0.0
O399 O 0.87902 0.30122 0.1809 0.0
H400 H 0.84843 0.20827 0.14611 0.0
H401 H 0.92005 0.24112 0.15826 0.0
N402 N 0.90612 0.25222 0.22054 0.0
N403 N 0.93096 0.27017 0.25814 0.0
C404 C 0.91283 0.2683 0.24228 0.0
C405 C 0.92032 0.2435 0.22288 0.0
C406 C 0.93576 0.25463 0.24585 0.0
C407 C 0.8472 0.22262 0.24105 0.0
O408 O 0.85792 0.24392 0.25096 0.0
H409 H 0.90421 0.278 0.2468 0.0
H410 H 0.91886 0.22925 0.20979 0.0
O411 O 0.87271 0.26567 0.1882 0.0
H412 H 0.90906 0.21394 0.11032 0.0
H413 H 0.94868 0.25068 0.25393 0.0
In414 In 0.03453 0.6794 0.25791 0.0
O415 O 0.06321 0.7155 0.24575 0.0
O416 O 0.05268 0.70938 0.29121 0.0
C417 C 0.03828 0.65721 0.20854 0.0
C418 C 0.03931 0.65497 0.30402 0.0
C419 C 0.99612 0.68348 0.24881 0.0
O420 O 0.01985 0.65017 0.22293 0.0
O421 O 0.0548 0.67562 0.2187 0.0
O422 O 0.99623 0.66795 0.26473 0.0
O423 O 0.01529 0.6969 0.23716 0.0
C424 C 0.06576 0.7236 0.27196 0.0
O425 O 0.02172 0.65714 0.30067 0.0
O426 O 0.05444 0.66514 0.2843 0.0
In427 In 0.43471 0.43377 0.30128 0.0
O428 O 0.43514 0.45003 0.25587 0.0
O429 O 0.46615 0.45179 0.27073 0.0
C430 C 0.393 0.43155 0.30685 0.0
C431 C 0.4345 0.39345 0.29221 0.0
C432 C 0.45957 0.45783 0.35043 0.0
O433 O 0.41188 0.4499 0.30402 0.0
O434 O 0.39488 0.41372 0.30761 0.0
O435 O 0.44243 0.43784 0.35228 0.0
O436 O 0.46406 0.46552 0.32405 0.0
C437 C 0.456 0.45671 0.25052 0.0
O438 O 0.44073 0.40433 0.31672 0.0
O439 O 0.42761 0.40239 0.27283 0.0
In440 In 0.68449 0.08975 0.31428 0.0
O441 O 0.68419 0.0908 0.36569 0.0
O442 O 0.6648 0.10298 0.34246 0.0
C443 C 0.72799 0.118 0.29576 0.0
C444 C 0.67916 0.04725 0.32049 0.0
C445 C 0.66044 0.09386 0.26817 0.0
O446 O 0.71942 0.12262 0.318 0.0
O447 O 0.71477 0.099 0.28327 0.0
O448 O 0.65506 0.07468 0.27985 0.0
O449 O 0.67764 0.11083 0.28005 0.0
C450 C 0.6712 0.0993 0.36744 0.0
O451 O 0.66362 0.05045 0.30921 0.0
O452 O 0.69714 0.06536 0.32841 0.0
In453 In 0.05205 0.41985 0.75487 0.0
O454 O 0.04015 0.4287 0.79934 0.0
O455 O 0.06598 0.4559 0.77386 0.0
C456 C 0.01717 0.37561 0.74372 0.0
C457 C 0.05437 0.44311 0.70337 0.0
C458 C 0.08756 0.41401 0.77482 0.0
O459 O 0.01323 0.3905 0.75537 0.0
O460 O 0.03814 0.38301 0.73842 0.0
O461 O 0.08402 0.41611 0.74739 0.0
O462 O 0.07329 0.41492 0.79232 0.0
C463 C 0.05379 0.45012 0.79713 0.0
O464 O 0.07116 0.44132 0.71321 0.0
O465 O 0.03645 0.43278 0.71902 0.0
In466 In 0.67735 0.6514 0.76337 0.0
O467 O 0.66529 0.6257 0.80286 0.0
O468 O 0.64752 0.64388 0.79484 0.0
C469 C 0.71907 0.65511 0.75441 0.0
C470 C 0.65161 0.62593 0.71582 0.0
C471 C 0.69298 0.69713 0.7709 0.0
O472 O 0.70819 0.64792 0.77875 0.0
O473 O 0.70879 0.66019 0.73452 0.0
O474 O 0.67894 0.68551 0.7503 0.0
O475 O 0.69894 0.68575 0.78751 0.0
C476 C 0.64927 0.62929 0.8107 0.0
O477 O 0.65003 0.64252 0.72646 0.0
O478 O 0.66611 0.62216 0.72902 0.0
In479 In 0.41027 0.05138 0.80275 0.0
O480 O 0.42223 0.04665 0.84949 0.0
O481 O 0.44411 0.07678 0.82507 0.0
C482 C 0.39548 0.08168 0.79359 0.0
C483 C 0.43656 0.05092 0.75711 0.0
C484 C 0.37113 0.0107 0.81142 0.0
O485 O 0.40993 0.08433 0.81371 0.0
O486 O 0.38836 0.06368 0.77796 0.0
O487 O 0.38608 0.01339 0.79229 0.0
O488 O 0.37605 0.02844 0.82668 0.0
C489 C 0.44121 0.06522 0.84851 0.0
O490 O 0.43224 0.03856 0.78014 0.0
O491 O 0.42665 0.06274 0.75627 0.0
In492 In 0.7015 1.00314 0.59409 0.0
O493 O 0.73886 0.0316 0.58498 0.0
O494 O 0.71995 0.04035 0.61441 0.0
C495 C 0.70361 0.98442 0.53982 0.0
C496 C 0.70394 0.97631 0.63992 0.0
C497 C 0.66264 1.00756 0.58967 0.0
O498 O 0.70585 1.00418 0.54266 0.0
O499 O 0.70021 0.97379 0.56436 0.0
O500 O 0.6694 0.99964 0.5689 0.0
O501 O 0.67474 0.01225 0.61326 0.0
C502 C 0.73891 0.04684 0.60161 0.0
O503 O 0.68489 0.97369 0.6306 0.0
O504 O 0.72093 0.99202 0.62638 0.0
In505 In 0.09691 0.75448 0.61379 0.0
O506 O 0.11504 0.79089 0.59453 0.0
O507 O 0.11831 0.7657 0.57 0.0
C508 C 0.05397 0.7494 0.61531 0.0
C509 C 0.08989 0.71185 0.60045 0.0
C510 C 0.11866 0.7704 0.66796 0.0
O511 O 0.06994 0.764 0.59911 0.0
O512 O 0.05955 0.73715 0.63087 0.0
O513 O 0.09839 0.76615 0.66276 0.0
O514 O 0.12798 0.76645 0.64601 0.0
C515 C 0.1233 0.78645 0.57185 0.0
O516 O 0.10437 0.72491 0.61975 0.0
O517 O 0.07894 0.72027 0.5876 0.0
In518 In 0.31164 0.39586 0.6287 0.0
O519 O 0.30562 0.35969 0.61939 0.0
O520 O 0.33369 0.3818 0.64766 0.0
C521 C 0.28983 0.40254 0.58219 0.0
C522 C 0.28571 0.38656 0.67799 0.0
C523 C 0.35149 0.43494 0.61974 0.0
O524 O 0.29907 0.39012 0.5803 0.0
O525 O 0.29036 0.41044 0.60805 0.0
O526 O 0.33929 0.43208 0.64258 0.0
O527 O 0.34391 0.4179 0.60222 0.0
C528 C 0.32218 0.3622 0.6358 0.0
O529 O 0.30547 0.40405 0.67587 0.0
O530 O 0.27863 0.37414 0.65472 0.0
In531 In 0.70641 0.77768 0.09415 0.0
O532 O 0.68287 0.78244 0.12761 0.0
O533 O 0.71821 0.80701 0.12993 0.0
C534 C 0.67783 0.7334 0.0748 0.0
C535 C 0.71114 0.8027 0.04281 0.0
C536 C 0.73842 0.76827 0.11901 0.0
O537 O 0.67139 0.74329 0.0934 0.0
O538 O 0.69817 0.74591 0.06582 0.0
O539 O 0.74328 0.7822 0.09748 0.0
O540 O 0.71798 0.75984 0.12802 0.0
C541 C 0.69848 0.80011 0.14068 0.0
O542 O 0.72785 0.80354 0.05727 0.0
O543 O 0.69189 0.78969 0.05457 0.0
In544 In 0.34744 0.98584 0.14539 0.0
O545 O 0.35093 0.97676 0.19432 0.0
O546 O 0.3173 0.96252 0.17581 0.0
C547 C 0.38863 0.99842 0.11977 0.0
C548 C 0.32145 0.95437 0.10293 0.0
C549 C 0.35147 0.02798 0.15433 0.0
O550 O 0.38169 0.98511 0.14215 0.0
O551 O 0.37496 1.00505 0.11102 0.0
O552 O 0.33698 0.01324 0.13628 0.0
O553 O 0.36328 0.02116 0.16859 0.0
C554 C 0.32955 0.96427 0.19835 0.0
O555 O 0.31973 0.97201 0.10825 0.0
O556 O 0.33585 0.95247 0.11941 0.0
In557 In 0.06256 0.3868 0.13023 0.0
O558 O 0.09678 0.41067 0.15393 0.0
O559 O 0.07713 0.37665 0.17028 0.0
C560 C 0.05337 0.41946 0.10929 0.0
C561 C 0.07921 0.37154 0.08586 0.0
C562 C 0.02103 0.3596 0.15506 0.0
O563 O 0.0662 0.42257 0.13172 0.0
O564 O 0.04554 0.40005 0.09693 0.0
O565 O 0.02713 0.35457 0.13077 0.0
O566 O 0.03607 0.37812 0.1671 0.0
C567 C 0.09523 0.3959 0.17271 0.0
O568 O 0.06261 0.35813 0.10215 0.0
O569 O 0.08708 0.39257 0.09157 0.0
In570 In 0.37632 0.33836 0.96939 0.0
O571 O 0.36532 0.31722 0.01401 0.0
O572 O 0.39502 0.32133 0.99244 0.0
C573 C 0.33871 0.34444 0.96415 0.0
C574 C 0.41176 0.38213 0.98147 0.0
C575 C 0.37072 0.3126 0.91838 0.0
O576 O 0.34029 0.33114 0.98285 0.0
O577 O 0.35628 0.35508 0.9479 0.0
O578 O 0.35623 0.30669 0.93919 0.0
O579 O 0.38853 0.33184 0.92294 0.0
C580 C 0.38157 0.31282 0.01436 0.0
O581 O 0.41132 0.37087 0.95851 0.0
O582 O 0.39447 0.37142 0.99812 0.0
In583 In 0.76309 0.09043 0.9534 0.0
O584 O 0.76847 0.06003 0.96404 0.0
O585 O 0.74793 0.05762 0.92602 0.0
C586 C 0.7887 0.12194 0.99524 0.0
C587 C 0.79013 0.1116 0.90575 0.0
C588 C 0.72083 0.08005 0.9729 0.0
O589 O 0.78781 0.10267 0.99342 0.0
O590 O 0.77674 0.12526 0.97593 0.0
O591 O 0.72727 0.08713 0.94644 0.0
O592 O 0.73536 0.07789 0.98867 0.0
C593 C 0.75714 0.04848 0.94139 0.0
O594 O 0.77105 0.11103 0.90909 0.0
O595 O 0.79525 0.1021 0.92644 0.0
In596 In 1.00458 0.71518 0.94654 0.0
O597 O 0.99667 0.7275 0.99035 0.0
O598 O 0.97005 0.69704 0.9699 0.0
C599 C 0.04803 0.74931 0.93506 0.0
C600 C 1.0074 0.67693 0.95807 0.0
C601 C 0.98233 0.72363 0.90202 0.0
O602 O 0.03779 0.74864 0.95906 0.0
O603 O 0.03667 0.73252 0.91765 0.0
O604 O 0.98781 0.70815 0.89982 0.0
O605 O 0.98803 0.7346 0.92645 0.0
C606 C 0.97602 0.7113 0.99125 0.0
O607 O 0.99756 0.67884 0.93483 0.0
O608 O 0.01629 0.69447 0.97482 0.0
In609 In 0.38719 0.11865 0.46725 0.0
O610 O 0.36517 0.12453 0.50064 0.0
O611 O 0.40081 0.1487 0.50268 0.0
C612 C 0.34786 0.07785 0.45795 0.0
C613 C 0.39029 0.13735 0.41083 0.0
C614 C 0.41831 0.10674 0.48974 0.0
O615 O 0.34783 0.09558 0.46737 0.0
O616 O 0.36764 0.08062 0.45347 0.0
O617 O 0.42364 0.12147 0.46907 0.0
O618 O 0.39816 0.09914 0.49929 0.0
C619 C 0.38101 0.14217 0.51337 0.0
O620 O 0.39044 0.14769 0.43456 0.0
O621 O 0.39047 0.11896 0.41579 0.0
In622 In 0.02238 0.35348 0.45757 0.0
O623 O 0.99687 0.31749 0.47574 0.0
O624 O 0.01926 0.34256 0.50688 0.0
C625 C 0.06797 0.36917 0.44874 0.0
C626 C 1.003 0.33443 0.40417 0.0
C627 C 0.01566 0.38969 0.46893 0.0
O628 O 0.05379 0.34819 0.45281 0.0
O629 O 0.05932 0.38209 0.45022 0.0
O630 O 0.02203 0.38051 0.48868 0.0
O631 O 0.01244 0.38051 0.44332 0.0
C632 C 1.00313 0.32231 0.50273 0.0
O633 O 0.99209 0.33848 0.42409 0.0
O634 O 0.02336 0.33995 0.41136 0.0
In635 In 0.75301 0.72619 0.43829 0.0
O636 O 0.77849 0.74658 0.47646 0.0
O637 O 0.77321 0.71351 0.46591 0.0
C638 C 0.7396 0.75673 0.42288 0.0
C639 C 0.77129 0.72087 0.38702 0.0
C640 C 0.71209 0.69379 0.4594 0.0
O641 O 0.75813 0.76262 0.4371 0.0
O642 O 0.72842 0.73577 0.41569 0.0
O643 O 0.72162 0.69038 0.43722 0.0
O644 O 0.72359 0.71328 0.47168 0.0
C645 C 0.78355 0.73118 0.48213 0.0
O646 O 0.75624 0.70421 0.40173 0.0
O647 O 0.77718 0.74037 0.39807 0.0
H648 H 0.04366 0.5057 0.07592 0.0
H649 H 0.99233 0.45657 0.01507 0.0
H650 H 0.99907 0.42638 0.03487 0.0
H651 H 0.02136 0.41451 0.06731 0.0
H652 H 0.07266 0.46394 0.12786 0.0
H653 H 0.06422 0.49344 0.11012 0.0
C654 C 0.03371 0.48834 0.06716 0.0
C655 C 0.01757 0.4835 0.04389 0.0
C656 C 0.03791 0.47115 0.07833 0.0
C657 C 1.00483 0.46084 0.033 0.0
C658 C 1.00879 0.44357 0.04417 0.0
C659 C 0.03067 0.43174 0.07662 0.0
C660 C 0.04778 0.43707 0.09867 0.0
C661 C 0.02562 0.44864 0.06642 0.0
C662 C 0.0595 0.4594 0.11076 0.0
C663 C 0.05466 0.47628 0.10066 0.0
H664 H 0.63276 0.6316 0.02391 0.0
H665 H 0.57354 0.62516 0.07035 0.0
H666 H 0.59569 0.6654 0.08626 0.0
H667 H 0.63234 0.70274 0.08746 0.0
H668 H 0.69095 0.70879 0.03977 0.0
H669 H 0.66869 0.66872 0.02403 0.0
C670 C 0.62464 0.63893 0.03754 0.0
C671 C 0.60143 0.62515 0.04594 0.0
C672 C 0.63746 0.66221 0.04645 0.0
C673 C 0.59131 0.6352 0.06345 0.0
C674 C 0.60401 0.65829 0.07262 0.0
C675 C 0.6402 0.6953 0.07357 0.0
C676 C 0.6634 0.70893 0.0649 0.0
C677 C 0.62716 0.67202 0.06433 0.0
C678 C 0.6732 0.69888 0.04681 0.0
C679 C 0.66046 0.67586 0.03779 0.0
H680 H 0.48204 0.04972 0.05016 0.0
H681 H 0.49702 1.00376 0.10031 0.0
H682 H 0.45795 0.98495 0.12143 0.0
H683 H 0.42058 0.98427 0.12872 0.0
H684 H 0.40717 0.031 0.07711 0.0
H685 H 0.44454 0.04684 0.05363 0.0
C686 C 0.47662 0.03534 0.06541 0.0
C687 C 0.49227 0.02816 0.07388 0.0
C688 C 0.4545 0.02498 0.07752 0.0
C689 C 0.4851 0.00942 0.09336 0.0
C690 C 0.46289 0.99887 0.10563 0.0
C691 C 0.42586 0.99782 0.11223 0.0
C692 C 0.41114 1.0066 0.105 0.0
C693 C 0.4476 1.00693 0.09845 0.0
C694 C 0.41812 0.02399 0.08331 0.0
C695 C 0.43953 0.03309 0.06978 0.0
H696 H 0.46672 0.05723 0.55413 0.0
H697 H 0.51805 0.09327 0.48664 0.0
H698 H 0.49516 0.1096 0.46648 0.0
H699 H 0.46052 0.11442 0.46866 0.0
H700 H 0.40998 0.07837 0.53712 0.0
H701 H 0.43256 0.06168 0.55612 0.0
C702 C 0.47286 0.06844 0.53478 0.0
C703 C 0.49415 0.07377 0.52191 0.0
C704 C 0.45976 0.07811 0.52356 0.0
C705 C 0.50175 0.08864 0.49703 0.0
C706 C 0.48867 0.09813 0.48553 0.0
C707 C 0.45453 0.10301 0.48782 0.0
C708 C 0.43348 0.09783 0.50141 0.0
C709 C 0.46769 0.09318 0.49876 0.0
C710 C 0.42603 0.08282 0.52612 0.0
C711 C 0.43894 0.07314 0.53704 0.0
H712 H 0.0217 0.48201 0.51284 0.0
H713 H 1.00534 0.48462 0.41959 0.0
H714 H 1.00017 0.44628 0.41146 0.0
H715 H 1.00448 0.41384 0.4295 0.0
H716 H 0.02243 0.41215 0.52227 0.0
H717 H 0.02279 0.44819 0.53184 0.0
C718 C 0.01646 0.47401 0.49088 0.0
C719 C 0.01398 0.48628 0.46683 0.0
C720 C 0.01419 0.45221 0.48613 0.0
C721 C 1.0074 0.47562 0.4385 0.0
C722 C 1.00459 0.45373 0.43377 0.0
C723 C 1.00821 0.42123 0.45188 0.0
C724 C 0.01363 0.41038 0.47506 0.0
C725 C 1.00864 0.44216 0.45719 0.0
C726 C 0.01834 0.42017 0.50396 0.0
C727 C 0.01855 0.44081 0.50948 0.0
H728 H 0.61015 0.61413 0.47672 0.0
H729 H 0.60495 0.66904 0.51954 0.0
H730 H 0.64583 0.69537 0.51081 0.0
H731 H 0.68296 0.70276 0.49069 0.0
H732 H 0.68777 0.64814 0.44627 0.0
H733 H 0.6472 0.62148 0.45659 0.0
C734 C 0.61802 0.63183 0.48429 0.0
C735 C 0.60457 0.63963 0.49875 0.0
C736 C 0.64147 0.6468 0.47918 0.0
C737 C 0.61488 0.6627 0.50801 0.0
C738 C 0.63828 0.6777 0.50326 0.0
C739 C 0.67517 0.68494 0.48364 0.0
C740 C 0.68829 0.67731 0.468 0.0
C741 C 0.65173 0.66992 0.48892 0.0
C742 C 0.67796 0.65432 0.45847 0.0
C743 C 0.65479 0.63912 0.46425 0.0
H744 H 0.01822 0.5952 1.01005 0.0
H745 H 0.99406 0.56787 0.92125 0.0
H746 H 0.98911 0.60084 0.90933 0.0
H747 H 0.99444 0.63893 0.923 0.0
H748 H 0.02132 0.66712 1.01074 0.0
H749 H 0.02258 0.63246 0.0241 0.0
C750 C 1.01138 0.59617 0.9883 0.0
C751 C 1.00629 0.57896 0.96665 0.0
C752 C 1.00948 0.61559 0.98122 0.0
C753 C 0.99795 0.5808 0.93836 0.0
C754 C 0.99528 0.59973 0.93147 0.0
C755 C 1.0005 0.63743 0.94506 0.0
C756 C 1.0079 0.65566 0.96577 0.0
C757 C 1.00149 0.61751 0.9525 0.0
C758 C 0.0157 0.65344 0.99428 0.0
C759 C 0.01634 0.63358 1.002 0.0
H760 H 0.48253 0.48286 0.02845 0.0
H761 H 0.5217 0.47984 0.95383 0.0
H762 H 0.49099 0.44106 0.94173 0.0
H763 H 0.45266 0.40764 0.95196 0.0
H764 H 0.41379 0.41032 0.02706 0.0
H765 H 0.44446 0.44922 0.03913 0.0
C766 C 0.48439 0.47375 1.00953 0.0
C767 C 0.50458 0.48451 0.99212 0.0
C768 C 0.46657 0.4512 1.00267 0.0
C769 C 0.50651 0.47219 0.96776 0.0
C770 C 0.48887 0.44991 0.96073 0.0
C771 C 0.45089 0.41673 0.97095 0.0
C772 C 0.43079 0.40593 0.98849 0.0
C773 C 0.46877 0.4392 0.97797 0.0
C774 C 0.42896 0.41807 0.0131 0.0
C775 C 0.44655 0.4404 0.02006 0.0
H776 H 0.64083 0.07822 0.04849 0.0
H777 H 0.60247 0.0497 0.96672 0.0
H778 H 0.63648 0.05128 0.94352 0.0
H779 H 0.67834 0.06349 0.94592 0.0
H780 H 0.7149 0.08927 0.02977 0.0
H781 H 0.68055 0.08616 0.05274 0.0
C782 C 0.63984 0.07195 0.02576 0.0
C783 C 0.6193 0.06383 1.00929 0.0
C784 C 0.65928 0.07274 1.01287 0.0
C785 C 0.61809 0.05575 0.97989 0.0
C786 C 0.6376 0.05689 0.96658 0.0
C787 C 0.67864 0.06831 0.96921 0.0
C788 C 0.69918 0.07685 0.98606 0.0
C789 C 0.65848 0.06582 0.98268 0.0
C790 C 0.69931 0.08269 0.01636 0.0
C791 C 0.67969 0.08093 0.02953 0.0
H792 H 0.59016 0.04279 0.59038 0.0
H793 H 0.58073 0.01868 0.49878 0.0
H794 H 0.60776 1.00474 0.50718 0.0
H795 H 0.63606 1.00133 0.53955 0.0
H796 H 0.64608 0.02596 0.63085 0.0
H797 H 0.61699 0.03753 0.62357 0.0
C798 C 0.59373 0.0342 0.57233 0.0
C799 C 0.58321 0.03187 0.5439 0.0
C800 C 0.60966 0.02639 0.5772 0.0
C801 C 0.58838 0.02079 0.52087 0.0
C802 C 0.60398 0.01283 0.52564 0.0
C803 C 0.63173 0.00901 0.55798 0.0
C804 C 0.64339 0.01274 0.58576 0.0
C805 C 0.61502 0.01584 0.55355 0.0
C806 C 0.63748 0.02282 0.60926 0.0
C807 C 0.62082 0.02951 0.60508 0.0
H808 H 0.09471 0.622 0.5741 0.0
H809 H 0.03131 0.60311 0.52688 0.0
H810 H 0.03333 0.63905 0.54324 0.0
H811 H 0.05484 0.6772 0.56824 0.0
H812 H 0.11777 0.69488 0.61615 0.0
H813 H 0.11426 0.6581 0.60215 0.0
C814 C 0.08117 0.62561 0.56762 0.0
C815 C 0.06296 0.60999 0.54914 0.0
C816 C 0.08253 0.64623 0.57699 0.0
C817 C 0.04544 0.6148 0.54122 0.0
C818 C 0.04671 0.63544 0.55037 0.0
C819 C 0.0677 0.67292 0.57569 0.0
C820 C 0.08669 0.68889 0.59296 0.0
C821 C 0.06544 0.65151 0.56778 0.0
C822 C 0.10306 0.68298 0.60276 0.0
C823 C 0.10107 0.66194 0.59476 0.0
H824 H 0.44212 0.53109 0.61111 0.0
H825 H 0.43966 0.507 0.52066 0.0
H826 H 0.40369 0.4719 0.53144 0.0
H827 H 0.37404 0.44738 0.56714 0.0
H828 H 0.37581 0.47148 0.65741 0.0
H829 H 0.41101 0.50746 0.6461 0.0
C830 C 0.43349 0.5184 0.59359 0.0
C831 C 0.44362 0.5216 0.56515 0.0
C832 C 0.41287 0.4982 0.60002 0.0
C833 C 0.43234 0.50479 0.54282 0.0
C834 C 0.4118 0.48474 0.54896 0.0
C835 C 0.38215 0.4605 0.58436 0.0
C836 C 0.37255 0.45674 0.61315 0.0
C837 C 0.40215 0.4811 0.57762 0.0
C838 C 0.383 0.47398 0.63512 0.0
C839 C 0.40307 0.49453 0.62865 0.0
H840 H 0.71721 0.83654 0.40066 0.0
H841 H 0.65026 0.77882 0.38058 0.0
H842 H 0.66456 0.75234 0.39158 0.0
H843 H 0.69647 0.74575 0.40541 0.0
H844 H 0.76326 0.80356 0.42632 0.0
H845 H 0.74876 0.82997 0.41599 0.0
C846 C 0.70578 0.81817 0.39857 0.0
C847 C 0.68274 0.80966 0.38957 0.0
C848 C 0.71416 0.80313 0.40482 0.0
C849 C 0.66799 0.78579 0.38764 0.0
C850 C 0.67622 0.77067 0.39371 0.0
C851 C 0.70788 0.76414 0.40757 0.0
C852 C 0.73097 0.77274 0.41632 0.0
C853 C 0.69933 0.77916 0.40203 0.0
C854 C 0.74546 0.79656 0.41949 0.0
C855 C 0.73716 0.81164 0.41363 0.0
H856 H 0.24882 0.99171 0.43751 0.0
H857 H 0.28982 0.96348 0.40337 0.0
H858 H 0.32485 0.999 0.4157 0.0
H859 H 0.34416 0.03861 0.43488 0.0
H860 H 0.30349 0.06755 0.46764 0.0
H861 H 0.26818 0.03144 0.45683 0.0
C862 C 0.26538 0.99333 0.43261 0.0
C863 C 0.26647 0.97471 0.41961 0.0
C864 C 0.28564 0.01405 0.43941 0.0
C865 C 0.28824 0.97718 0.41383 0.0
C866 C 0.3084 0.99765 0.42066 0.0
C867 C 0.32757 0.037 0.43975 0.0
C868 C 0.32648 0.05577 0.45204 0.0
C869 C 0.30732 0.01622 0.43333 0.0
C870 C 0.30483 0.05339 0.45815 0.0
C871 C 0.28461 0.03273 0.45197 0.0
H872 H 0.17016 0.42478 0.40546 0.0
H873 H 0.1565 0.35758 0.3772 0.0
H874 H 0.11824 0.34034 0.40035 0.0
H875 H 0.08775 0.34511 0.42581 0.0
H876 H 0.10251 0.41321 0.45162 0.0
H877 H 0.14141 0.42935 0.43233 0.0
C878 C 0.15892 0.40631 0.4043 0.0
C879 C 0.16612 0.39252 0.38926 0.0
C880 C 0.13712 0.39671 0.41727 0.0
C881 C 0.15137 0.3686 0.38852 0.0
C882 C 0.12949 0.35878 0.40171 0.0
C883 C 0.09965 0.36343 0.42758 0.0
C884 C 0.09224 0.37798 0.44012 0.0
C885 C 0.12204 0.37274 0.41578 0.0
C886 C 0.10774 0.40168 0.44202 0.0
C887 C 0.12998 0.41093 0.43093 0.0
H888 H 0.15672 0.37766 0.8014 0.0
H889 H 0.16002 0.40752 0.88812 0.0
H890 H 0.13484 0.42196 0.86985 0.0
H891 H 0.10871 0.42266 0.83015 0.0
H892 H 0.10766 0.39437 0.74284 0.0
H893 H 0.13505 0.38279 0.76026 0.0
C894 C 0.15239 0.38785 0.81607 0.0
C895 C 0.1603 0.39162 0.84603 0.0
C896 C 0.13796 0.39604 0.80537 0.0
C897 C 0.15447 0.40472 0.86485 0.0
C898 C 0.13982 0.41271 0.85448 0.0
C899 C 0.11468 0.41415 0.81492 0.0
C900 C 0.10589 0.40912 0.78528 0.0
C901 C 0.13093 0.40793 0.82497 0.0
C902 C 0.11404 0.39839 0.76571 0.0
C903 C 0.12971 0.39172 0.77569 0.0
H904 H 0.74384 0.803 0.8034 0.0
H905 H 0.68396 0.79814 0.75991 0.0
H906 H 0.66956 0.75737 0.74892 0.0
H907 H 0.67376 0.72279 0.75266 0.0
H908 H 0.73245 0.72738 0.79962 0.0
H909 H 0.74764 0.76843 0.80814 0.0
C910 C 0.72777 0.79301 0.79127 0.0
C911 C 0.71504 0.80354 0.78224 0.0
C912 C 0.71937 0.7695 0.78574 0.0
C913 C 0.69399 0.79034 0.7671 0.0
C914 C 0.6858 0.76707 0.76079 0.0
C915 C 0.68992 0.73285 0.76461 0.0
C916 C 0.70201 0.72208 0.77538 0.0
C917 C 0.69829 0.75641 0.77013 0.0
C918 C 0.72279 0.73524 0.79116 0.0
C919 C 0.73151 0.75874 0.79602 0.0
H920 H 0.28949 0.90872 0.82053 0.0
H921 H 0.2588 0.94156 0.87055 0.0
H922 H 0.29269 0.97925 0.8612 0.0
H923 H 0.33222 1.00253 0.84122 0.0
H924 H 0.36185 0.96894 0.79043 0.0
H925 H 0.32726 0.93185 0.79786 0.0
C926 C 0.29008 0.92414 0.82919 0.0
C927 C 0.27171 0.92233 0.84636 0.0
C928 C 0.30958 0.94558 0.82386 0.0
C929 C 0.27266 0.94249 0.85713 0.0
C930 C 0.29212 0.96401 0.85199 0.0
C931 C 0.33104 0.98707 0.83178 0.0
C932 C 0.3497 0.98846 0.81556 0.0
C933 C 0.31088 0.96572 0.83584 0.0
C934 C 0.34781 0.96835 0.8031 0.0
C935 C 0.32802 0.94712 0.80732 0.0
H936 H 0.68536 0.95838 0.34732 0.0
H937 H 0.62497 0.92739 0.29042 0.0
H938 H 0.62638 0.96451 0.28614 0.0
H939 H 0.64586 1.00627 0.29721 0.0
H940 H 0.70728 0.03671 0.35236 0.0
H941 H 0.70456 0.99931 0.35828 0.0
C942 C 0.67264 0.95968 0.3336 0.0
C943 C 0.65525 0.94009 0.31887 0.0
C944 C 0.6738 0.98105 0.33087 0.0
C945 C 0.6385 0.94213 0.30206 0.0
C946 C 0.63938 0.96339 0.29949 0.0
C947 C 0.65858 1.00465 0.31057 0.0
C948 C 0.67678 0.02425 0.32426 0.0
C949 C 0.65709 0.98303 0.31361 0.0
C950 C 0.69317 0.02193 0.34147 0.0
C951 C 0.69163 1.00054 0.3449 0.0
H952 H 0.14073 0.82891 0.28219 0.0
H953 H 0.12823 0.81381 0.37641 0.0
H954 H 0.09909 0.77414 0.36456 0.0
H955 H 0.07787 0.74345 0.32734 0.0
H956 H 0.09146 0.75827 0.2331 0.0
H957 H 0.11934 0.79828 0.24494 0.0
C958 C 0.13138 0.81701 0.30007 0.0
C959 C 0.13655 0.82431 0.33014 0.0
C960 C 0.11495 0.79412 0.29306 0.0
C961 C 0.12462 0.80855 0.35311 0.0
C962 C 0.10796 0.78589 0.34633 0.0
C963 C 0.0869 0.75545 0.3094 0.0
C964 C 0.08259 0.74786 0.27938 0.0
C965 C 0.10312 0.77842 0.3164 0.0
C966 C 0.0945 0.76363 0.25641 0.0
C967 C 0.11043 0.78654 0.26315 0.0
H968 H 0.31049 0.4514 0.3066 0.0
H969 H 0.27158 0.37971 0.33027 0.0
H970 H 0.30669 0.37676 0.32656 0.0
H971 H 0.34926 0.39549 0.31851 0.0
H972 H 0.38678 0.46782 0.2972 0.0
H973 H 0.35144 0.46952 0.29836 0.0
C974 C 0.30947 0.43499 0.31083 0.0
C975 C 0.2883 0.4158 0.31871 0.0
C976 C 0.32966 0.43361 0.30935 0.0
C977 C 0.28757 0.39476 0.32402 0.0
C978 C 0.3077 0.39312 0.32206 0.0
C979 C 0.34962 0.41157 0.31411 0.0
C980 C 0.37078 0.43154 0.30789 0.0
C981 C 0.32897 0.41255 0.31509 0.0
C982 C 0.3709 0.45222 0.30222 0.0
C983 C 0.35063 0.45323 0.30279 0.0
H984 H 0.23956 0.33425 0.96189 0.0
H985 H 0.27203 0.3911 0.90059 0.0
H986 H 0.30894 0.39208 0.90805 0.0
H987 H 0.33148 0.37484 0.92991 0.0
H988 H 0.29785 0.31826 0.99167 0.0
H989 H 0.2621 0.31909 0.98596 0.0
C990 C 0.25474 0.34707 0.95033 0.0
C991 C 0.2529 0.36255 0.93061 0.0
C992 C 0.27576 0.3474 0.9546 0.0
C993 C 0.27289 0.37909 0.91607 0.0
C994 C 0.29398 0.3795 0.92016 0.0
C995 C 0.31634 0.36279 0.94221 0.0
C996 C 0.31746 0.34637 0.96107 0.0
C997 C 0.29557 0.36344 0.939 0.0
C998 C 0.29764 0.33103 0.97697 0.0
C999 C 0.27709 0.33147 0.97372 0.0
H1000 H 0.76953 0.96315 0.91066 0.0
H1001 H 0.73143 0.96275 0.83206 0.0
H1002 H 0.72916 0.9956 0.85148 0.0
H1003 H 0.73787 0.02431 0.89061 0.0
H1004 H 0.77618 0.02544 0.96945 0.0
H1005 H 0.77832 0.99229 0.95035 0.0
C1006 C 0.76101 0.97049 0.89771 0.0
C1007 C 0.75068 0.9606 0.86996 0.0
C1008 C 0.75956 0.98928 0.90921 0.0
C1009 C 0.73935 0.97 0.85356 0.0
C1010 C 0.73804 0.98876 0.86465 0.0
C1011 C 0.74653 0.0172 0.90378 0.0
C1012 C 0.75676 0.02724 0.93146 0.0
C1013 C 0.74794 0.99842 0.89251 0.0
C1014 C 0.76805 0.01792 0.94813 0.0
C1015 C 0.7694 0.99906 0.93714 0.0
H1016 H 0.14406 0.8218 0.88153 0.0
H1017 H 0.15072 0.85383 0.96781 0.0
H1018 H 0.11178 0.82387 0.98082 0.0
H1019 H 0.07658 0.78719 0.96874 0.0
H1020 H 0.07116 0.7547 0.88312 0.0
H1021 H 0.10885 0.78606 0.86898 0.0
C1022 C 0.1369 0.82249 0.903 0.0
C1023 C 0.15032 0.84014 0.92361 0.0
C1024 C 0.11478 0.80486 0.91067 0.0
C1025 C 0.14078 0.8405 0.95148 0.0
C1026 C 0.11854 0.82328 0.95901 0.0
C1027 C 0.08367 0.787 0.947 0.0
C1028 C 0.07109 0.76852 0.92711 0.0
C1029 C 0.10554 0.80512 0.93901 0.0
C1030 C 0.08049 0.7686 0.89897 0.0
C1031 C 0.10205 0.78659 0.89079 0.0
H1032 H 0.37952 0.16609 0.77763 0.0
H1033 H 0.31586 0.11372 0.73875 0.0
H1034 H 0.32707 0.08462 0.74873 0.0
H1035 H 0.35578 0.07453 0.76719 0.0
H1036 H 0.41844 0.12684 0.80874 0.0
H1037 H 0.40698 0.15563 0.79899 0.0
C1038 C 0.36816 0.14827 0.77145 0.0
C1039 C 0.34703 0.14196 0.75734 0.0
C1040 C 0.37461 0.13174 0.77761 0.0
C1041 C 0.33216 0.11883 0.74978 0.0
C1042 C 0.33863 0.10228 0.75533 0.0
C1043 C 0.36686 0.09224 0.77408 0.0
C1044 C 0.38798 0.09867 0.78839 0.0
C1045 C 0.35993 0.10859 0.76898 0.0
C1046 C 0.4021 0.12155 0.79766 0.0
C1047 C 0.39558 0.138 0.79207 0.0
H1048 H 0.95927 0.27026 0.71122 0.0
H1049 H 0.90256 0.28359 0.71076 0.0
H1050 H 0.92928 0.32407 0.72429 0.0
H1051 H 0.96953 0.35586 0.73672 0.0
H1052 H 0.02488 0.34033 0.73491 0.0
H1053 H 0.99788 0.30063 0.72217 0.0
C1054 C 0.95251 0.28185 0.71412 0.0
C1055 C 0.92875 0.27363 0.71016 0.0
C1056 C 0.96788 0.30488 0.72169 0.0
C1057 C 0.92069 0.28929 0.71364 0.0
C1058 C 0.93601 0.31246 0.72149 0.0
C1059 C 0.97558 0.34371 0.73369 0.0
C1060 C 0.99937 0.35125 0.73695 0.0
C1061 C 0.95974 0.3205 0.72574 0.0
C1062 C 1.00684 0.33523 0.73257 0.0
C1063 C 0.99137 0.31241 0.72524 0.0
H1064 H 0.82218 0.67669 0.75959 0.0
H1065 H 0.81701 0.68568 0.66449 0.0
H1066 H 0.77627 0.67356 0.66979 0.0
H1067 H 0.74288 0.66367 0.70216 0.0
H1068 H 0.74803 0.65431 0.7971 0.0
H1069 H 0.7879 0.66329 0.79111 0.0
C1070 C 0.81209 0.67568 0.73992 0.0
C1071 C 0.8228 0.68228 0.71172 0.0
C1072 C 0.78866 0.66888 0.74315 0.0
C1073 C 0.80932 0.6807 0.68648 0.0
C1074 C 0.786 0.67391 0.68952 0.0
C1075 C 0.75268 0.66342 0.72149 0.0
C1076 C 0.74255 0.65856 0.75009 0.0
C1077 C 0.77563 0.66851 0.71785 0.0
C1078 C 0.75541 0.65806 0.77485 0.0
C1079 C 0.77825 0.66324 0.77145 0.0
H1080 H 0.78722 0.71786 0.17794 0.0
H1081 H 0.8445 0.76614 0.12507 0.0
H1082 H 0.82207 0.78429 0.10852 0.0
H1083 H 0.78444 0.78404 0.10609 0.0
H1084 H 0.72826 0.73535 0.16067 0.0
H1085 H 0.7519 0.71985 0.17938 0.0
C1086 C 0.79496 0.73257 0.16307 0.0
C1087 C 0.81747 0.74055 0.15263 0.0
C1088 C 0.78197 0.74271 0.15367 0.0
C1089 C 0.82729 0.75975 0.13362 0.0
C1090 C 0.81434 0.76997 0.12395 0.0
C1091 C 0.77749 0.77019 0.12228 0.0
C1092 C 0.75439 0.76079 0.13167 0.0
C1093 C 0.7914 0.76126 0.13332 0.0
C1094 C 0.74581 0.74293 0.15284 0.0
C1095 C 0.75935 0.73398 0.16362 0.0
H1096 H 0.36446 0.12741 0.13901 0.0
H1097 H 0.41185 0.14232 0.21267 0.0
H1098 H 0.40158 0.10164 0.21455 0.0
H1099 H 0.38032 0.06211 0.19321 0.0
H1100 H 0.3324 0.04793 0.12011 0.0
H1101 H 0.34169 0.08803 0.12 0.0
C1102 C 0.37267 0.12181 0.15538 0.0
C1103 C 0.38928 0.13798 0.17531 0.0
C1104 C 0.36654 0.0985 0.15638 0.0
C1105 C 0.39916 0.13025 0.19701 0.0
C1106 C 0.39331 0.10702 0.19799 0.0
C1107 C 0.37177 0.06777 0.17744 0.0
C1108 C 0.35573 0.05196 0.15656 0.0
C1109 C 0.37719 0.09101 0.17752 0.0
C1110 C 0.34477 0.05961 0.13639 0.0
C1111 C 0.35014 0.08261 0.13625 0.0
H1112 H 0.92287 0.32015 0.21234 0.0
H1113 H 0.90487 0.27281 0.13848 0.0
H1114 H 0.94552 0.28951 0.12536 0.0
H1115 H 0.9857 0.32019 0.13206 0.0
H1116 H 1.00352 0.36861 0.20499 0.0
H1117 H 0.96355 0.34893 0.22152 0.0
C1118 C 0.92802 0.31334 0.19371 0.0
C1119 C 0.91119 0.29492 0.17681 0.0
C1120 C 0.95133 0.32342 0.186 0.0
C1121 C 0.91777 0.28633 0.15246 0.0
C1122 C 0.94093 0.29614 0.14472 0.0
C1123 C 0.98088 0.32625 0.15179 0.0
C1124 C 0.9975 0.34597 0.16708 0.0
C1125 C 0.95782 0.315 0.16097 0.0
C1126 C 0.99103 0.35356 0.19271 0.0
C1127 C 0.96817 0.34235 0.20214 0.0
H1128 H 0.34822 0.29116 0.68862 0.0
H1129 H 0.29085 0.24474 0.63266 0.0
H1130 H 0.28643 0.27672 0.6149 0.0
H1131 H 0.29811 0.31782 0.61645 0.0
H1132 H 0.35604 0.36403 0.67169 0.0
H1133 H 0.36134 0.3322 0.68784 0.0
C1134 C 0.33496 0.28795 0.67219 0.0
C1135 C 0.31984 0.2654 0.66223 0.0
C1136 C 0.33265 0.30646 0.66179 0.0
C1137 C 0.30253 0.26177 0.64123 0.0
C1138 C 0.30007 0.28011 0.63085 0.0
C1139 C 0.31204 0.32094 0.63176 0.0
C1140 C 0.3266 0.34322 0.64292 0.0
C1141 C 0.31491 0.3025 0.64117 0.0
C1142 C 0.34457 0.34702 0.66278 0.0
C1143 C 0.34757 0.32882 0.67213 0.0
H1144 H 0.8382 0.13331 0.61828 0.0
H1145 H 0.80087 0.15965 0.66705 0.0
H1146 H 0.76437 0.12482 0.65407 0.0
H1147 H 0.74339 0.08509 0.6319 0.0
H1148 H 0.78215 0.06034 0.58273 0.0
H1149 H 0.81757 0.09613 0.59291 0.0
C1150 C 0.82205 0.13165 0.62573 0.0
C1151 C 0.82235 0.14914 0.64366 0.0
C1152 C 0.80132 0.11159 0.61839 0.0
C1153 C 0.80121 0.14666 0.65296 0.0
C1154 C 0.78034 0.12658 0.64578 0.0
C1155 C 0.75958 0.08763 0.62325 0.0
C1156 C 0.75998 0.06977 0.60672 0.0
C1157 C 0.7802 0.10863 0.62903 0.0
C1158 C 0.78117 0.07356 0.59554 0.0
C1159 C 0.80153 0.0941 0.60137 0.0
H1160 H 0.96615 0.7611 0.61636 0.0
H1161 H 0.9382 0.69784 0.66613 0.0
H1162 H 0.97409 0.69695 0.65916 0.0
H1163 H 0.01468 0.71597 0.64194 0.0
H1164 H 0.0416 0.779 0.5916 0.0
H1165 H 1.00494 0.77819 0.59587 0.0
C1166 C 0.96777 0.74693 0.6254 0.0
C1167 C 0.94955 0.72961 0.64186 0.0
C1168 C 0.98843 0.74666 0.62148 0.0
C1169 C 0.95189 0.71131 0.6532 0.0
C1170 C 0.9725 0.71092 0.64943 0.0
C1171 C 0.01244 0.72943 0.63178 0.0
C1172 C 0.03099 0.74765 0.61671 0.0
C1173 C 0.9911 0.72878 0.63413 0.0
C1174 C 0.02771 0.76483 0.60341 0.0
C1175 C 1.00672 0.7644 0.60584 0.0
H1176 H 0.89764 0.67369 0.23486 0.0
H1177 H 0.93627 0.73861 0.18967 0.0
H1178 H 0.97218 0.73833 0.20073 0.0
H1179 H 0.99228 0.71813 0.22084 0.0
H1180 H 0.95252 0.65326 0.26604 0.0
H1181 H 0.91745 0.65498 0.25717 0.0
C1182 C 0.91392 0.68794 0.22759 0.0
C1183 C 0.91419 0.70612 0.21132 0.0
C1184 C 0.93433 0.68751 0.23378 0.0
C1185 C 0.93552 0.72449 0.20239 0.0
C1186 C 0.95604 0.7242 0.20851 0.0
C1187 C 0.97593 0.70441 0.22881 0.0
C1188 C 0.97509 0.68545 0.24392 0.0
C1189 C 0.95563 0.70558 0.22377 0.0
C1190 C 0.95376 0.66797 0.25429 0.0
C1191 C 0.93364 0.66895 0.24924 0.0
H1192 H 0.44564 0.30489 0.28521 0.0
H1193 H 0.42833 0.30824 0.19273 0.0
H1194 H 0.42648 0.34303 0.20317 0.0
H1195 H 0.42809 0.37157 0.23886 0.0
H1196 H 0.44537 0.36881 0.33158 0.0
H1197 H 0.44885 0.33481 0.32092 0.0
C1198 C 0.4419 0.31353 0.26732 0.0
C1199 C 0.43711 0.304 0.23821 0.0
C1200 C 0.44053 0.33345 0.27363 0.0
C1201 C 0.43194 0.31519 0.21531 0.0
C1202 C 0.43083 0.33504 0.22129 0.0
C1203 C 0.43257 0.36351 0.25678 0.0
C1204 C 0.43626 0.37261 0.28602 0.0
C1205 C 0.4347 0.34411 0.25044 0.0
C1206 C 0.4423 0.36208 0.30889 0.0
C1207 C 0.44436 0.34266 0.30278 0.0
H1208 H 0.81986 0.17783 0.22481 0.0
H1209 H 0.82766 0.22774 0.2919 0.0
H1210 H 0.79211 0.19937 0.31572 0.0
H1211 H 0.75782 0.16097 0.31614 0.0
H1212 H 0.74968 0.11129 0.24859 0.0
H1213 H 0.78642 0.13895 0.22647 0.0
C1214 C 0.81388 0.18248 0.24475 0.0
C1215 C 0.82637 0.20493 0.25642 0.0
C1216 C 0.79332 0.16613 0.25825 0.0
C1217 C 0.81836 0.21062 0.28233 0.0
C1218 C 0.79801 0.19441 0.29599 0.0
C1219 C 0.76419 0.15614 0.29674 0.0
C1220 C 0.75103 0.13416 0.28397 0.0
C1221 C 0.78521 0.1722 0.28394 0.0
C1222 C 0.75948 0.12814 0.25881 0.0
C1223 C 0.78046 0.14395 0.24611 0.0
H1224 H 0.07671 0.53616 0.87893 0.0
H1225 H 0.036 0.48274 0.9422 0.0
H1226 H 0.02942 0.45352 0.9048 0.0
H1227 H 0.03572 0.44282 0.85393 0.0
H1228 H 0.07755 0.49656 0.79166 0.0
H1229 H 0.08324 0.52567 0.82874 0.0
C1230 C 0.06657 0.51817 0.88475 0.0
C1231 C 0.05687 0.51189 0.91356 0.0
C1232 C 0.06298 0.50132 0.86315 0.0
C1233 C 0.04347 0.48831 0.92023 0.0
C1234 C 0.03977 0.47147 0.89882 0.0
C1235 C 0.04597 0.4609 0.84847 0.0
C1236 C 0.05614 0.46741 0.81996 0.0
C1237 C 0.04943 0.47774 0.87015 0.0
C1238 C 0.06951 0.49097 0.81338 0.0
C1239 C 0.07282 0.5077 0.83462 0.0
H1240 H 0.59241 0.57318 0.92401 0.0
H1241 H 0.554 0.60721 0.90133 0.0
H1242 H 0.57915 0.62572 0.85885 0.0
H1243 H 0.61243 0.63288 0.82837 0.0
H1244 H 0.65119 0.59918 0.8506 0.0
H1245 H 0.62575 0.58017 0.89308 0.0
C1246 C 0.58961 0.58474 0.90991 0.0
C1247 C 0.57119 0.58867 0.91602 0.0
C1248 C 0.60429 0.59548 0.8854 0.0
C1249 C 0.56773 0.60351 0.89709 0.0
C1250 C 0.58225 0.61427 0.87282 0.0
C1251 C 0.61534 0.62137 0.8425 0.0
C1252 C 0.63375 0.61752 0.83632 0.0
C1253 C 0.6006 0.61044 0.86679 0.0
C1254 C 0.63717 0.60247 0.85483 0.0
C1255 C 0.62262 0.5916 0.87915 0.0
H1256 H 0.53084 0.10452 0.92879 0.0
H1257 H 0.48561 0.04671 0.98371 0.0
H1258 H 0.45394 0.037 0.94879 0.0
H1259 H 0.43925 0.04401 0.90149 0.0
H1260 H 0.48424 0.10243 0.84737 0.0
H1261 H 0.51556 0.11298 0.88334 0.0
C1262 C 0.51401 0.08998 0.93337 0.0
C1263 C 0.51085 0.07622 0.95869 0.0
C1264 C 0.49572 0.08456 0.91328 0.0
C1265 C 0.48883 0.05733 0.96406 0.0
C1266 C 0.47058 0.05182 0.94418 0.0
C1267 C 0.45586 0.05914 0.89772 0.0
C1268 C 0.45941 0.07233 0.87174 0.0
C1269 C 0.47388 0.06513 0.91851 0.0
C1270 C 0.48103 0.09194 0.86719 0.0
C1271 C 0.499 0.09798 0.88772 0.0
H1272 H 0.51831 0.05583 0.6822 0.0
H1273 H 0.50846 0.10528 0.63214 0.0
H1274 H 0.47604 0.09825 0.66436 0.0
H1275 H 0.45124 0.07864 0.70784 0.0
H1276 H 0.46115 0.02864 0.75684 0.0
H1277 H 0.49271 0.03516 0.72386 0.0
C1278 C 0.50924 0.06527 0.67858 0.0
C1279 C 0.51599 0.08136 0.6552 0.0
C1280 C 0.49052 0.06087 0.69686 0.0
C1281 C 0.50361 0.09293 0.65015 0.0
C1282 C 0.4851 0.08888 0.66853 0.0
C1283 C 0.46016 0.06901 0.71107 0.0
C1284 C 0.45387 0.05321 0.73483 0.0
C1285 C 0.47844 0.07293 0.69204 0.0
C1286 C 0.46561 0.04088 0.73874 0.0
C1287 C 0.48375 0.04467 0.71997 0.0
H1288 H 0.04527 0.50207 0.59888 0.0
H1289 H 0.1149 0.51716 0.58219 0.0
H1290 H 0.11249 0.49259 0.62375 0.0
H1291 H 0.09084 0.46689 0.66564 0.0
H1292 H 0.02097 0.45111 0.68117 0.0
H1293 H 0.02325 0.47546 0.63911 0.0
C1294 C 0.05993 0.49994 0.60391 0.0
C1295 C 0.08032 0.51187 0.58703 0.0
C1296 C 0.0584 0.48547 0.62782 0.0
C1297 C 0.09905 0.50872 0.59467 0.0
C1298 C 0.09767 0.49446 0.6185 0.0
C1299 C 0.07607 0.46869 0.65972 0.0
C1300 C 0.05576 0.45714 0.67667 0.0
C1301 C 0.07747 0.4828 0.63535 0.0
C1302 C 0.03682 0.45972 0.6686 0.0
C1303 C 0.03812 0.47372 0.64452 0.0
H1304 H 0.60763 0.56944 0.59641 0.0
H1305 H 0.55255 0.58146 0.62289 0.0
H1306 H 0.57389 0.60135 0.66793 0.0
H1307 H 0.60916 0.61745 0.69868 0.0
H1308 H 0.66329 0.60352 0.67463 0.0
H1309 H 0.6415 0.58242 0.62994 0.0
C1310 C 0.60018 0.57616 0.61222 0.0
C1311 C 0.57854 0.57402 0.60601 0.0
C1312 C 0.61251 0.58751 0.63845 0.0
C1313 C 0.56912 0.58274 0.62695 0.0
C1314 C 0.58138 0.5943 0.65273 0.0
C1315 C 0.61612 0.60972 0.68366 0.0
C1316 C 0.63789 0.61225 0.68967 0.0
C1317 C 0.60325 0.59715 0.65846 0.0
C1318 C 0.64657 0.60184 0.67037 0.0
C1319 C 0.63413 0.5898 0.64482 0.0
H1320 H 0.03153 0.59047 0.10368 0.0
H1321 H 0.10296 0.64207 0.09382 0.0
H1322 H 0.09962 0.66401 0.13528 0.0
H1323 H 0.07643 0.66858 0.17476 0.0
H1324 H 1.00491 0.61712 0.18379 0.0
H1325 H 1.00824 0.5954 0.14201 0.0
C1326 C 0.04636 0.60663 0.11021 0.0
C1327 C 0.06751 0.61445 0.09535 0.0
C1328 C 0.0443 0.61929 0.13404 0.0
C1329 C 0.08653 0.63534 0.10486 0.0
C1330 C 0.08461 0.64802 0.12855 0.0
C1331 C 0.06155 0.65265 0.16751 0.0
C1332 C 0.04043 0.64453 0.18247 0.0
C1333 C 0.06359 0.64015 0.14339 0.0
C1334 C 0.02136 0.62382 0.17275 0.0
C1335 C 0.02326 0.61135 0.14884 0.0
H1336 H 0.49324 0.51395 0.13073 0.0
H1337 H 0.55336 0.50991 0.15666 0.0
H1338 H 0.53349 0.48749 0.20056 0.0
H1339 H 0.49939 0.46957 0.23248 0.0
H1340 H 0.43874 0.47256 0.20665 0.0
H1341 H 0.4583 0.49452 0.16187 0.0
C1342 C 0.5019 0.50796 0.14579 0.0
C1343 C 0.52493 0.51396 0.14042 0.0
C1344 C 0.49027 0.49486 0.17116 0.0
C1345 C 0.53587 0.50609 0.16042 0.0
C1346 C 0.52446 0.49309 0.18554 0.0
C1347 C 0.49043 0.47499 0.21703 0.0
C1348 C 0.46768 0.46951 0.22299 0.0
C1349 C 0.50175 0.48756 0.19131 0.0
C1350 C 0.45628 0.47657 0.20263 0.0
C1351 C 0.46747 0.48915 0.17701 0.0
H1352 H 0.62284 0.12038 0.15369 0.0
H1353 H 0.57813 0.04687 0.15075 0.0
H1354 H 0.59571 0.04276 0.19671 0.0
H1355 H 0.62455 0.05993 0.23709 0.0
H1356 H 0.66924 0.13347 0.24011 0.0
H1357 H 0.65068 0.1377 0.19511 0.0
C1358 C 0.61674 0.1035 0.1633 0.0
C1359 C 0.5993 0.08397 0.1486 0.0
C1360 C 0.62694 0.10125 0.1898 0.0
C1361 C 0.5918 0.06217 0.16124 0.0
C1362 C 0.60176 0.05981 0.18765 0.0
C1363 C 0.63012 0.07688 0.22799 0.0
C1364 C 0.64826 0.09633 0.24187 0.0
C1365 C 0.61949 0.0792 0.20198 0.0
C1366 C 0.65532 0.1182 0.22982 0.0
C1367 C 0.64474 0.12065 0.20406 0.0
H1368 H 0.63737 0.10275 0.49792 0.0
H1369 H 0.61314 0.14364 0.45268 0.0
H1370 H 0.63101 0.14139 0.40614 0.0
H1371 H 0.65051 0.12479 0.37719 0.0
H1372 H 0.67479 0.08393 0.42261 0.0
H1373 H 0.65974 0.08895 0.47007 0.0
C1374 C 0.63625 0.11136 0.47791 0.0
C1375 C 0.62385 0.12322 0.47872 0.0
C1376 C 0.64628 0.10971 0.45116 0.0
C1377 C 0.62276 0.13458 0.45277 0.0
C1378 C 0.63276 0.13309 0.42605 0.0
C1379 C 0.65262 0.11712 0.39754 0.0
C1380 C 0.66349 0.1038 0.39637 0.0
C1381 C 0.64407 0.12022 0.42481 0.0
C1382 C 0.66638 0.09419 0.42293 0.0
C1383 C 0.65778 0.09704 0.45007 0.0
H1384 H 0.03473 0.5927 0.4141 0.0
H1385 H 0.103 0.61256 0.383 0.0
H1386 H 0.09904 0.63517 0.34308 0.0
H1387 H 0.07623 0.64935 0.31639 0.0
H1388 H 1.00826 0.63023 0.3477 0.0
H1389 H 0.01221 0.60767 0.38809 0.0
C1390 C 0.04887 0.60213 0.39884 0.0
C1391 C 0.06912 0.60064 0.40175 0.0
C1392 C 0.04654 0.61533 0.37579 0.0
C1393 C 0.08706 0.61291 0.38128 0.0
C1394 C 0.08487 0.62603 0.35841 0.0
C1395 C 0.06227 0.64028 0.33206 0.0
C1396 C 0.04194 0.64151 0.32888 0.0
C1397 C 0.06466 0.62731 0.35533 0.0
C1398 C 0.02409 0.62963 0.34952 0.0
C1399 C 0.02634 0.61668 0.37266 0.0
H1400 H 0.52227 0.53057 0.44867 0.0
H1401 H 0.48546 0.47204 0.50663 0.0
H1402 H 0.46527 0.44797 0.46324 0.0
H1403 H 0.45636 0.44396 0.40886 0.0
H1404 H 0.49345 0.50263 0.35128 0.0
H1405 H 0.51505 0.52608 0.39436 0.0
C1406 C 0.51003 0.51249 0.45186 0.0
C1407 C 0.5054 0.50324 0.48104 0.0
C1408 C 0.49829 0.49874 0.42679 0.0
C1409 C 0.48946 0.47971 0.48454 0.0
C1410 C 0.47777 0.46591 0.45969 0.0
C1411 C 0.46923 0.46185 0.40576 0.0
C1412 C 0.47313 0.47153 0.37685 0.0
C1413 C 0.48175 0.47531 0.43074 0.0
C1414 C 0.49001 0.49472 0.37323 0.0
C1415 C 0.50241 0.50818 0.39789 0.0
H1416 H 0.66006 0.83162 0.24932 0.0
H1417 H 0.73218 0.87854 0.26557 0.0
H1418 H 0.74179 0.86345 0.2209 0.0
H1419 H 0.72937 0.83584 0.17745 0.0
H1420 H 0.65681 0.78914 0.16349 0.0
H1421 H 0.64786 0.80524 0.20689 0.0
C1422 C 0.67798 0.83874 0.24326 0.0
C1423 C 0.69535 0.85631 0.26112 0.0
C1424 C 0.68331 0.82989 0.21777 0.0
C1425 C 0.71839 0.86511 0.25244 0.0
C1426 C 0.72387 0.8564 0.22685 0.0
C1427 C 0.7116 0.82928 0.18384 0.0
C1428 C 0.69378 0.81117 0.16694 0.0
C1429 C 0.70646 0.83865 0.20934 0.0
C1430 C 0.6709 0.80294 0.17582 0.0
C1431 C 0.66573 0.81217 0.20076 0.0
H1432 H 0.2914 0.9431 0.33008 0.0
H1433 H 0.23731 0.88294 0.2866 0.0
H1434 H 0.25865 0.89406 0.23934 0.0
H1435 H 0.29055 0.92368 0.2091 0.0
H1436 H 0.34578 0.98254 0.25356 0.0
H1437 H 0.32638 0.96917 0.30178 0.0
C1438 C 0.28474 0.93204 0.31048 0.0
C1439 C 0.26299 0.91212 0.31176 0.0
C1440 C 0.29714 0.93857 0.28349 0.0
C1441 C 0.25424 0.89809 0.28621 0.0
C1442 C 0.26631 0.90463 0.25912 0.0
C1443 C 0.29846 0.93333 0.22948 0.0
C1444 C 0.3194 0.95422 0.2278 0.0
C1445 C 0.28742 0.92525 0.25725 0.0
C1446 C 0.32967 0.96644 0.25433 0.0
C1447 C 0.31854 0.95884 0.28188 0.0
H1448 H 0.16158 0.40038 0.27685 0.0
H1449 H 0.20686 0.46523 0.23456 0.0
H1450 H 0.1768 0.45848 0.198 0.0
H1451 H 0.13776 0.43382 0.17747 0.0
H1452 H 0.09326 0.3684 0.21888 0.0
H1453 H 0.12308 0.3756 0.25608 0.0
C1454 C 0.16511 0.41296 0.25947 0.0
C1455 C 0.18664 0.43329 0.25857 0.0
C1456 C 0.14783 0.40885 0.23828 0.0
C1457 C 0.19046 0.44955 0.23612 0.0
C1458 C 0.17329 0.44564 0.21505 0.0
C1459 C 0.13458 0.42118 0.19469 0.0
C1460 C 0.1133 0.40061 0.19543 0.0
C1461 C 0.15191 0.42534 0.2159 0.0
C1462 C 0.10948 0.38435 0.21779 0.0
C1463 C 0.12653 0.38846 0.23908 0.0
H1464 H 0.11058 0.3222 0.99162 0.0
H1465 H 0.16818 0.39123 0.98546 0.0
H1466 H 0.15051 0.40453 0.02181 0.0
H1467 H 0.119 0.39683 0.05584 0.0
H1468 H 0.06206 0.32778 0.06435 0.0
H1469 H 0.07926 0.31425 0.0269 0.0
C1470 C 0.11938 0.3401 0.99839 0.0
C1471 C 0.14064 0.35564 0.98538 0.0
C1472 C 0.10923 0.34769 0.01979 0.0
C1473 C 0.15162 0.37886 0.99441 0.0
C1474 C 0.14159 0.38652 0.01545 0.0
C1475 C 0.11029 0.37883 0.04941 0.0
C1476 C 0.08925 0.36336 0.06273 0.0
C1477 C 0.1204 0.37114 0.02821 0.0
C1478 C 0.07828 0.34005 0.05437 0.0
C1479 C 0.08812 0.3323 0.03298 0.0
H1480 H 0.74266 0.85775 0.92103 0.0
H1481 H 0.66975 0.83078 0.90889 0.0
H1482 H 0.66285 0.81236 0.95854 0.0
H1483 H 0.67793 0.80271 1.00495 0.0
H1484 H 0.75129 0.83077 0.01484 0.0
H1485 H 0.75749 0.84984 0.96661 0.0
C1486 C 0.72514 0.84787 0.92904 0.0
C1487 C 0.70673 0.84557 0.91084 0.0
C1488 C 0.7214 0.83741 0.95738 0.0
C1489 C 0.68428 0.83291 0.9222 0.0
C1490 C 0.68036 0.8223 0.95062 0.0
C1491 C 0.69527 0.81312 0.9966 0.0
C1492 C 0.71414 0.81515 0.01376 0.0
C1493 C 0.69881 0.82423 0.96837 0.0
C1494 C 0.73644 0.82876 1.0024 0.0
C1495 C 0.74003 0.83971 0.97468 0.0
H1496 H 0.27576 0.87594 1.00439 0.0
H1497 H 0.24728 0.91817 0.97564 0.0
H1498 H 0.26696 0.94485 0.01682 0.0
H1499 H 0.2926 0.95661 0.06111 0.0
H1500 H 0.32108 0.91443 0.09 0.0
H1501 H 0.30089 0.88733 0.04917 0.0
C1502 C 0.2737 0.89086 1.00724 0.0
C1503 C 0.2601 0.89498 0.98662 0.0
C1504 C 0.28506 0.90622 0.03119 0.0
C1505 C 0.25791 0.91464 0.99065 0.0
C1506 C 0.26906 0.9299 0.01443 0.0
C1507 C 0.29429 0.94143 0.05855 0.0
C1508 C 0.30834 0.93759 0.07867 0.0
C1509 C 0.28275 0.92594 0.0348 0.0
C1510 C 0.3104 0.91785 0.0749 0.0
C1511 C 0.29886 0.90232 0.05149 0.0
H1512 H 0.69004 0.94719 0.40602 0.0
H1513 H 0.71715 0.90634 0.44374 0.0
H1514 H 0.72257 0.92568 0.49243 0.0
H1515 H 0.71613 0.952 0.52564 0.0
H1516 H 0.69102 0.99421 0.48627 0.0
H1517 H 0.68828 0.97671 0.43721 0.0
C1518 C 0.69787 0.9431 0.42466 0.0
C1519 C 0.70364 0.92567 0.42106 0.0
C1520 C 0.70081 0.95425 0.45259 0.0
C1521 C 0.71319 0.92012 0.44564 0.0
C1522 C 0.71594 0.93096 0.47364 0.0
C1523 C 0.7102 0.95744 0.50626 0.0
C1524 C 0.70349 0.97425 0.50985 0.0
C1525 C 0.70924 0.94766 0.47765 0.0
C1526 C 0.69621 0.98131 0.48432 0.0
C1527 C 0.69463 0.97129 0.45617 0.0
H1528 H 0.17303 0.87098 0.48448 0.0
H1529 H 0.19288 0.82618 0.44069 0.0
H1530 H 0.17302 0.79697 0.47946 0.0
H1531 H 0.14815 0.78349 0.52477 0.0
H1532 H 0.12943 0.82947 0.56792 0.0
H1533 H 0.15056 0.85873 0.53039 0.0
C1534 C 0.17319 0.85489 0.48344 0.0
C1535 C 0.18436 0.85076 0.45958 0.0
C1536 C 0.16171 0.83825 0.50564 0.0
C1537 C 0.18453 0.82988 0.45885 0.0
C1538 C 0.17302 0.8131 0.48093 0.0
C1539 C 0.14878 0.79994 0.52595 0.0
C1540 C 0.13704 0.80417 0.5491 0.0
C1541 C 0.16125 0.81697 0.50425 0.0
C1542 C 0.13821 0.82567 0.55042 0.0
C1543 C 0.15031 0.84247 0.52892 0.0
H1544 H 0.25484 0.44437 0.48141 0.0
H1545 H 0.29029 0.41936 0.426 0.0
H1546 H 0.30053 0.40476 0.47022 0.0
H1547 H 0.29866 0.39831 0.5243 0.0
H1548 H 0.26413 0.42392 0.58056 0.0
H1549 H 0.25399 0.43887 0.53636 0.0
C1550 C 0.26515 0.43609 0.4792 0.0
C1551 C 0.27182 0.43291 0.45057 0.0
C1552 C 0.27076 0.42751 0.50475 0.0
C1553 C 0.28488 0.42184 0.44785 0.0
C1554 C 0.29066 0.41344 0.47307 0.0
C1555 C 0.2887 0.40695 0.52687 0.0
C1556 C 0.28191 0.40978 0.55554 0.0
C1557 C 0.28341 0.41589 0.50155 0.0
C1558 C 0.26937 0.42137 0.55861 0.0
C1559 C 0.26371 0.43003 0.5334 0.0
H1560 H 0.24594 0.37299 0.80805 0.0
H1561 H 0.19003 0.31235 0.76748 0.0
H1562 H 0.21052 0.32214 0.71957 0.0
H1563 H 0.24396 0.3489 0.68905 0.0
H1564 H 0.29853 0.41026 0.73047 0.0
H1565 H 0.27843 0.39957 0.77818 0.0
C1566 C 0.23798 0.36201 0.78871 0.0
C1567 C 0.21629 0.34214 0.79128 0.0
C1568 C 0.24951 0.36805 0.76133 0.0
C1569 C 0.20672 0.32771 0.76615 0.0
C1570 C 0.21835 0.33341 0.73872 0.0
C1571 C 0.25134 0.35997 0.7085 0.0
C1572 C 0.27266 0.3804 0.70622 0.0
C1573 C 0.23966 0.35371 0.73599 0.0
C1574 C 0.28212 0.39451 0.73161 0.0
C1575 C 0.27069 0.38838 0.75893 0.0
H1576 H 0.73786 0.92804 0.73305 0.0
H1577 H 0.66742 0.89531 0.76245 0.0
H1578 H 0.65882 0.91607 0.72335 0.0
H1579 H 0.67194 0.94431 0.68026 0.0
H1580 H 0.74327 0.97659 0.65411 0.0
H1581 H 0.75066 0.95527 0.69225 0.0
C1582 C 0.72049 0.92521 0.73111 0.0
C1583 C 0.70332 0.90986 0.75091 0.0
C1584 C 0.7158 0.93731 0.70889 0.0
C1585 C 0.68105 0.90687 0.74769 0.0
C1586 C 0.67614 0.91881 0.72523 0.0
C1587 C 0.68905 0.94661 0.68291 0.0
C1588 C 0.70701 0.96224 0.66397 0.0
C1589 C 0.69343 0.93419 0.70559 0.0
C1590 C 0.72907 0.96491 0.66808 0.0
C1591 C 0.73338 0.95264 0.69001 0.0
H1592 H 0.15693 0.81323 0.79656 0.0
H1593 H 0.2139 0.80535 0.76734 0.0
H1594 H 0.19404 0.78883 0.71985 0.0
H1595 H 0.16067 0.77718 0.68602 0.0
H1596 H 0.10349 0.78459 0.71563 0.0
H1597 H 0.12325 0.80083 0.76327 0.0
C1598 C 0.16507 0.80803 0.77974 0.0
C1599 C 0.18697 0.81064 0.78559 0.0
C1600 C 0.15349 0.79846 0.75243 0.0
C1601 C 0.19702 0.80338 0.76366 0.0
C1602 C 0.1857 0.79403 0.73637 0.0
C1603 C 0.15253 0.78232 0.70292 0.0
C1604 C 0.13063 0.77971 0.69716 0.0
C1605 C 0.16395 0.79154 0.73044 0.0
C1606 C 0.1203 0.78638 0.71941 0.0
C1607 C 0.13162 0.79571 0.74669 0.0
H1608 H 0.33823 0.17304 0.61657 0.0
H1609 H 0.40912 0.21505 0.64385 0.0
H1610 H 0.42121 0.20146 0.59982 0.0
H1611 H 0.41092 0.17571 0.55416 0.0
H1612 H 0.33909 0.13403 0.53003 0.0
H1613 H 0.32828 0.14939 0.57212 0.0
C1614 C 0.35642 0.17939 0.61311 0.0
C1615 C 0.37269 0.195 0.63385 0.0
C1616 C 0.3631 0.1714 0.58812 0.0
C1617 C 0.39615 0.20307 0.62838 0.0
C1618 C 0.40304 0.19519 0.6032 0.0
C1619 C 0.39295 0.17017 0.55806 0.0
C1620 C 0.37587 0.15354 0.53875 0.0
C1621 C 0.38661 0.17908 0.58297 0.0
C1622 C 0.35267 0.14659 0.54435 0.0
C1623 C 0.34639 0.15541 0.56852 0.0
H1624 H 0.95428 0.26789 0.62035 0.0
H1625 H 0.93313 0.21007 0.56102 0.0
H1626 H 0.95479 0.23601 0.51983 0.0
H1627 H 0.97854 0.27551 0.50037 0.0
H1628 H 1.00181 0.33303 0.56114 0.0
H1629 H 0.98065 0.30699 0.60213 0.0
C1630 C 0.95457 0.26107 0.59838 0.0
C1631 C 0.94207 0.23722 0.59348 0.0
C1632 C 0.96738 0.27606 0.57514 0.0
C1633 C 0.94274 0.2284 0.56517 0.0
C1634 C 0.95501 0.24323 0.54168 0.0
C1635 C 0.97904 0.28227 0.52265 0.0
C1636 C 0.99156 0.30615 0.5277 0.0
C1637 C 0.96721 0.26713 0.54631 0.0
C1638 C 0.99232 0.31471 0.55671 0.0
C1639 C 0.98017 0.29985 0.58014 0.0
H1640 H 0.85029 0.72402 0.57625 0.0
H1641 H 0.85866 0.7893 0.60459 0.0
H1642 H 0.83273 0.78741 0.56441 0.0
H1643 H 0.8066 0.76647 0.522 0.0
H1644 H 0.79777 0.70065 0.49528 0.0
H1645 H 0.82463 0.70334 0.53438 0.0
C1646 C 0.84632 0.73776 0.57393 0.0
C1647 C 0.85636 0.75669 0.59367 0.0
C1648 C 0.83118 0.73641 0.55108 0.0
C1649 C 0.85138 0.77459 0.58966 0.0
C1650 C 0.8364 0.77346 0.56677 0.0
C1651 C 0.81061 0.75276 0.52475 0.0
C1652 C 0.80014 0.73337 0.50579 0.0
C1653 C 0.82607 0.75436 0.54746 0.0
C1654 C 0.80551 0.71574 0.5096 0.0
C1655 C 0.8209 0.71726 0.53195 0.0
H1656 H 0.81966 0.72353 0.26536 0.0
H1657 H 0.78825 0.65083 0.2832 0.0
H1658 H 0.77133 0.65581 0.32892 0.0
H1659 H 0.7659 0.68092 0.36424 0.0
H1660 H 0.79897 0.75381 0.34732 0.0
H1661 H 0.81522 0.74865 0.301 0.0
C1662 C 0.80944 0.70874 0.27933 0.0
C1663 C 0.8054 0.68681 0.27068 0.0
C1664 C 0.80009 0.71178 0.30584 0.0
C1665 C 0.79152 0.66787 0.28897 0.0
C1666 C 0.78193 0.67072 0.31527 0.0
C1667 C 0.77666 0.69567 0.35038 0.0
C1668 C 0.7812 0.71771 0.35913 0.0
C1669 C 0.78612 0.6926 0.32393 0.0
C1670 C 0.79525 0.73667 0.34108 0.0
C1671 C 0.80452 0.73373 0.31458 0.0
H1672 H 0.36977 0.14626 0.27366 0.0
H1673 H 0.37621 0.21008 0.30474 0.0
H1674 H 0.38366 0.20175 0.35596 0.0
H1675 H 0.38869 0.1761 0.39226 0.0
H1676 H 0.38448 0.11362 0.35911 0.0
H1677 H 0.37615 0.12177 0.3088 0.0
C1678 C 0.37249 0.15826 0.29167 0.0
C1679 C 0.37195 0.17861 0.28526 0.0
C1680 C 0.37751 0.1537 0.32088 0.0
C1681 C 0.37622 0.19417 0.30893 0.0
C1682 C 0.38061 0.18944 0.33827 0.0
C1683 C 0.38614 0.16439 0.37398 0.0
C1684 C 0.3873 0.14422 0.37978 0.0
C1685 C 0.38144 0.16928 0.34458 0.0
C1686 C 0.38385 0.12929 0.3556 0.0
C1687 C 0.37894 0.13387 0.32668 0.0
H1688 H 0.97439 0.2862 0.27747 0.0
H1689 H 0.91101 0.28484 0.29882 0.0
H1690 H 0.92794 0.30545 0.34568 0.0
H1691 H 0.96027 0.32215 0.38198 0.0
H1692 H 0.02332 0.32273 0.36041 0.0
H1693 H 1.00692 0.30391 0.31257 0.0
C1694 C 0.96426 0.29035 0.29241 0.0
C1695 C 0.94143 0.28382 0.28469 0.0
C1696 C 0.974 0.30193 0.31946 0.0
C1697 C 0.92868 0.28979 0.30402 0.0
C1698 C 0.9383 0.30143 0.33098 0.0
C1699 C 0.97041 0.3182 0.36674 0.0
C1700 C 0.99292 0.32371 0.37484 0.0
C1701 C 0.96086 0.30733 0.33913 0.0
C1702 C 1.00591 0.31861 0.3548 0.0
C1703 C 0.99656 0.30784 0.3274 0.0
H1704 H 0.33374 0.23962 0.81293 0.0
H1705 H 0.40204 0.28239 0.77836 0.0
H1706 H 0.41172 0.30782 0.82246 0.0
H1707 H 0.40012 0.31813 0.87113 0.0
H1708 H 0.33142 0.2737 0.90391 0.0
H1709 H 0.32268 0.24894 0.8603 0.0
C1710 C 0.35083 0.25449 0.8148 0.0
C1711 C 0.36707 0.25902 0.79202 0.0
C1712 C 0.3562 0.26888 0.84009 0.0
C1713 C 0.38914 0.27836 0.79539 0.0
C1714 C 0.39464 0.29296 0.82065 0.0
C1715 C 0.38326 0.30303 0.86868 0.0
C1716 C 0.36645 0.29795 0.89103 0.0
C1717 C 0.37824 0.28847 0.84319 0.0
C1718 C 0.34474 0.27819 0.88735 0.0
C1719 C 0.33967 0.26393 0.8623 0.0
H1720 H 0.86353 0.14486 0.80264 0.0
H1721 H 0.82842 0.18141 0.77555 0.0
H1722 H 0.80206 0.16487 0.81727 0.0
H1723 H 0.78893 0.14014 0.86238 0.0
H1724 H 0.82572 0.10552 0.89024 0.0
H1725 H 0.85142 0.12142 0.84774 0.0
C1726 C 0.85034 0.1495 0.80583 0.0
C1727 C 0.84818 0.16441 0.78551 0.0
C1728 C 0.83537 0.14023 0.83029 0.0
C1729 C 0.83055 0.16977 0.79025 0.0
C1730 C 0.81541 0.16039 0.81436 0.0
C1731 C 0.80256 0.1361 0.85906 0.0
C1732 C 0.80535 0.12166 0.8795 0.0
C1733 C 0.81763 0.14557 0.83458 0.0
C1734 C 0.82319 0.11666 0.87497 0.0
C1735 C 0.83793 0.12572 0.8506 0.0
H1736 H 0.92725 0.7537 0.8155 0.0
H1737 H 0.94779 0.71944 0.75086 0.0
H1738 H 0.96707 0.71009 0.7902 0.0
H1739 H 0.97816 0.71143 0.84319 0.0
H1740 H 0.95968 0.74766 0.90723 0.0
H1741 H 0.93982 0.75663 0.86789 0.0
C1742 C 0.93615 0.74444 0.80985 0.0
C1743 C 0.9357 0.7371 0.78014 0.0
C1744 C 0.9476 0.7394 0.83256 0.0
C1745 C 0.94727 0.72492 0.77352 0.0
C1746 C 0.95849 0.71965 0.79603 0.0
C1747 C 0.96971 0.72122 0.84849 0.0
C1748 C 0.97026 0.72876 0.87803 0.0
C1749 C 0.95864 0.72666 0.82567 0.0
C1750 C 0.95949 0.74167 0.88459 0.0
C1751 C 0.94812 0.7468 0.86213 0.0
H1752 H 0.91686 0.72114 0.09312 0.0
H1753 H 0.86545 0.65567 0.0567 0.0
H1754 H 0.89312 0.65717 0.02017 0.0
H1755 H 0.93187 0.67715 0.9984 0.0
H1756 H 0.9834 0.74192 0.03615 0.0
H1757 H 0.95574 0.74025 0.07296 0.0
C1758 C 0.91163 0.70695 0.07762 0.0
C1759 C 0.88891 0.68828 0.07791 0.0
C1760 C 0.92772 0.70775 0.05695 0.0
C1761 C 0.88262 0.67041 0.05693 0.0
C1762 C 0.89851 0.67117 0.0361 0.0
C1763 C 0.93708 0.69085 0.01478 0.0
C1764 C 0.95965 0.70966 0.01452 0.0
C1765 C 0.92108 0.68978 0.03587 0.0
C1766 C 0.96615 0.72725 0.0359 0.0
C1767 C 0.95032 0.72633 0.05689 0.0
H1768 H 0.41335 0.26003 0.10294 0.0
H1769 H 0.35158 0.24584 0.14982 0.0
H1770 H 0.34307 0.26675 0.11087 0.0
H1771 H 0.35431 0.29049 0.06374 0.0
H1772 H 0.41666 0.30378 0.01881 0.0
H1773 H 0.42379 0.28202 0.05683 0.0
C1774 C 0.39791 0.26136 0.10485 0.0
C1775 C 0.38319 0.25133 0.1296 0.0
C1776 C 0.39332 0.27349 0.08263 0.0
C1777 C 0.36321 0.25323 0.13112 0.0
C1778 C 0.35844 0.26533 0.10885 0.0
C1779 C 0.36943 0.28859 0.0623 0.0
C1780 C 0.38499 0.29899 0.03824 0.0
C1781 C 0.37352 0.27578 0.08456 0.0
C1782 C 0.40441 0.29616 0.03685 0.0
C1783 C 0.40852 0.28364 0.05866 0.0
H1784 H 0.83758 0.20216 0.09025 0.0
H1785 H 0.88101 0.17199 0.09975 0.0
H1786 H 0.8579 0.14267 0.06226 0.0
H1787 H 0.8252 0.12559 0.02678 0.0
H1788 H 0.78319 0.15727 0.01502 0.0
H1789 H 0.80572 0.18595 0.05339 0.0
C1790 C 0.84184 0.18908 0.08411 0.0
C1791 C 0.86085 0.18911 0.09771 0.0
C1792 C 0.82873 0.17257 0.06217 0.0
C1793 C 0.86652 0.17234 0.08935 0.0
C1794 C 0.85327 0.15555 0.06804 0.0
C1795 C 0.82098 0.13876 0.03271 0.0
C1796 C 0.80252 0.13927 0.01828 0.0
C1797 C 0.83432 0.15549 0.05431 0.0
C1798 C 0.79737 0.15656 0.02584 0.0
C1799 C 0.81021 0.17294 0.04779 0.0
loop_
_geom_bond_atom_site_label_1
_geom_bond_atom_site_label_2
_geom_bond_distance
_geom_bond_site_symmetry_2
_ccdc_geom_bond_type
Cu0 N1 1.999 . S
Cu0 O6 1.974 1_554 S
Cu0 N11 1.985 1_554 S
Cu0 O20 1.959 . S
N1 Cu0 1.999 . S
N1 C3 1.263 . S
N1 C5 1.389 . S
N2 C3 1.358 . S
N2 C4 1.400 . S
C3 N1 1.263 . S
C3 N2 1.358 . S
C3 H9 0.930 1_455 S
C4 N2 1.400 . S
C4 C5 1.351 . S
C4 H21 0.930 . S
C5 N1 1.389 . S
C5 C4 1.351 . S
C5 H10 0.930 . S
O6 Cu0 1.974 1_556 S
O6 C16 1.282 1_455 S
C7 O8 1.202 1_455 S
C7 O20 1.276 . S
O8 C7 1.202 1_655 S
H9 C3 0.930 1_655 S
H10 C5 0.930 . S
N11 Cu0 1.985 1_556 S
N11 C13 1.335 . S
N11 C14 1.390 1_455 S
N12 C13 1.345 . S
N12 C15 1.336 1_455 S
C13 N11 1.335 . S
C13 N12 1.345 . S
C13 H18 0.930 . S
C14 N11 1.390 1_655 S
C14 C15 1.346 . S
C14 H19 0.930 . S
C15 N12 1.336 1_655 S
C15 C14 1.346 . S
C15 H22 0.929 . S
C16 O6 1.282 1_655 S
C16 O17 1.216 . S
O17 C16 1.216 . S
H18 C13 0.930 . S
H19 C14 0.930 . S
O20 Cu0 1.959 . S
O20 C7 1.276 . S
H21 C4 0.930 . S
H22 C15 0.929 . S
Cu23 N24 1.999 1_554 S
Cu23 O29 1.974 . S
Cu23 N34 1.985 . S
Cu23 O43 1.959 1_554 S
N24 Cu23 1.999 1_556 S
N24 C26 1.263 . S
N24 C28 1.389 . S
N25 C26 1.358 . S
N25 C27 1.400 . S
C26 N24 1.263 . S
C26 N25 1.358 . S
C26 H32 0.930 . S
C27 N25 1.400 . S
C27 C28 1.351 . S
C27 H44 0.930 . S
C28 N24 1.389 . S
C28 C27 1.351 . S
C28 H33 0.930 . S
O29 Cu23 1.974 . S
O29 C39 1.282 . S
C30 O31 1.261 1_556 S
C30 O43 1.251 . S
O31 C30 1.261 1_554 S
H32 C26 0.930 . S
H33 C28 0.930 . S
N34 Cu23 1.985 . S
N34 C36 1.335 . S
N34 C37 1.390 . S
N35 C36 1.345 . S
N35 C38 1.336 . S
C36 N34 1.335 . S
C36 N35 1.345 . S
C36 H41 0.930 . S
C37 N34 1.390 . S
C37 C38 1.346 . S
C37 H42 0.930 . S
C38 N35 1.336 . S
C38 C37 1.346 . S
C38 H45 0.929 . S
C39 O29 1.282 . S
C39 O40 1.216 . S
O40 C39 1.216 . S
H41 C36 0.930 . S
H42 C37 0.930 . S
O43 Cu23 1.959 1_556 S
O43 C30 1.251 . S
H44 C27 0.930 . S
H45 C38 0.929 . S
Cu46 N47 1.999 1_554 S
Cu46 O52 1.974 . S
Cu46 N57 1.985 . S
Cu46 O66 1.959 . S
N47 Cu46 1.999 1_556 S
N47 C49 1.263 . S
N47 C51 1.389 . S
N48 C49 1.358 . S
N48 C50 1.400 . S
C49 N47 1.263 . S
C49 N48 1.358 . S
C49 H55 0.930 . S
C50 N48 1.400 . S
C50 C51 1.351 . S
C50 H67 0.930 . S
C51 N47 1.389 . S
C51 C50 1.351 . S
C51 H56 0.930 . S
O52 Cu46 1.974 . S
O52 C62 1.282 . S
C53 O54 1.261 1_556 S
C53 O66 1.251 1_556 S
O54 C53 1.261 1_554 S
H55 C49 0.930 . S
H56 C51 0.930 . S
N57 Cu46 1.985 . S
N57 C59 1.335 . S
N57 C60 1.390 . S
N58 C59 1.345 . S
N58 C61 1.336 . S
C59 N57 1.335 . S
C59 N58 1.345 . S
C59 H64 0.930 . S
C60 N57 1.390 . S
C60 C61 1.346 . S
C60 H65 0.930 . S
C61 N58 1.336 . S
C61 C60 1.346 . S
C61 H68 0.929 . S
C62 O52 1.282 . S
C62 O63 1.216 . S
O63 C62 1.216 . S
H64 C59 0.930 . S
H65 C60 0.930 . S
O66 Cu46 1.959 . S
O66 C53 1.251 1_554 S
H67 C50 0.930 . S
H68 C61 0.929 . S
Cu69 N70 1.999 . S
Cu69 O75 1.974 . S
Cu69 N80 1.985 . S
Cu69 O89 1.959 . S
N70 Cu69 1.999 . S
N70 C72 1.263 . S
N70 C74 1.389 . S
N71 C72 1.358 . S
N71 C73 1.400 . S
C72 N70 1.263 . S
C72 N71 1.358 . S
C72 H78 0.930 . S
C73 N71 1.400 . S
C73 C74 1.351 . S
C73 H90 0.930 . S
C74 N70 1.389 . S
C74 C73 1.351 . S
C74 H79 0.930 . S
O75 Cu69 1.974 . S
O75 C85 1.282 . S
C76 O77 1.261 . S
C76 O89 1.251 . S
O77 C76 1.261 . S
H78 C72 0.930 . S
H79 C74 0.930 . S
N80 Cu69 1.985 . S
N80 C82 1.335 . S
N80 C83 1.390 . S
N81 C82 1.345 . S
N81 C84 1.336 . S
C82 N80 1.335 . S
C82 N81 1.345 . S
C82 H87 0.930 . S
C83 N80 1.390 . S
C83 C84 1.346 . S
C83 H88 0.930 . S
C84 N81 1.336 . S
C84 C83 1.346 . S
C84 H91 0.929 1_545 S
C85 O75 1.282 . S
C85 O86 1.216 1_545 S
O86 C85 1.216 1_565 S
H87 C82 0.930 . S
H88 C83 0.930 . S
O89 Cu69 1.959 . S
O89 C76 1.251 . S
H90 C73 0.930 . S
H91 C84 0.929 1_565 S
Cu92 N93 1.999 . S
Cu92 O98 1.974 . S
Cu92 N103 1.985 . S
Cu92 O112 1.959 . S
N93 Cu92 1.999 . S
N93 C95 1.263 . S
N93 C97 1.389 . S
N94 C95 1.358 . S
N94 C96 1.400 . S
C95 N93 1.263 . S
C95 N94 1.358 . S
C95 H101 0.930 . S
C96 N94 1.400 . S
C96 C97 1.351 . S
C96 H113 0.930 . S
C97 N93 1.389 . S
C97 C96 1.351 . S
C97 H102 0.930 . S
O98 Cu92 1.974 . S
O98 C108 1.282 . S
C99 O100 1.261 . S
C99 O112 1.251 . S
O100 C99 1.261 . S
H101 C95 0.930 . S
H102 C97 0.930 . S
N103 Cu92 1.985 . S
N103 C105 1.335 . S
N103 C106 1.390 . S
N104 C105 1.345 . S
N104 C107 1.336 . S
C105 N103 1.335 . S
C105 N104 1.345 . S
C105 H110 0.930 . S
C106 N103 1.390 . S
C106 C107 1.346 . S
C106 H111 0.930 . S
C107 N104 1.336 . S
C107 C106 1.346 . S
C107 H114 0.929 . S
C108 O98 1.282 . S
C108 O109 1.216 . S
O109 C108 1.216 . S
H110 C105 0.930 . S
H111 C106 0.930 . S
O112 Cu92 1.959 . S
O112 C99 1.251 . S
H113 C96 0.930 . S
H114 C107 0.929 . S
Cu115 N116 1.999 . S
Cu115 O121 1.974 . S
Cu115 N126 1.985 . S
Cu115 O135 1.959 . S
N116 Cu115 1.999 . S
N116 C118 1.263 . S
N116 C120 1.389 . S
N117 C118 1.358 . S
N117 C119 1.400 . S
C118 N116 1.263 . S
C118 N117 1.358 . S
C118 H124 0.930 . S
C119 N117 1.400 . S
C119 C120 1.351 . S
C119 H136 0.930 . S
C120 N116 1.389 . S
C120 C119 1.351 . S
C120 H125 0.930 . S
O121 Cu115 1.974 . S
O121 C131 1.282 . S
C122 O123 1.261 . S
C122 O135 1.251 . S
O123 C122 1.261 . S
H124 C118 0.930 . S
H125 C120 0.930 . S
N126 Cu115 1.985 . S
N126 C128 1.335 . S
N126 C129 1.390 . S
N127 C128 1.345 . S
N127 C130 1.336 . S
C128 N126 1.335 . S
C128 N127 1.345 . S
C128 H133 0.930 . S
C129 N126 1.390 . S
C129 C130 1.346 . S
C129 H134 0.930 . S
C130 N127 1.336 . S
C130 C129 1.346 . S
C130 H137 0.929 . S
C131 O121 1.282 . S
C131 O132 1.216 . S
O132 C131 1.216 . S
H133 C128 0.930 . S
H134 C129 0.930 . S
O135 Cu115 1.959 . S
O135 C122 1.251 . S
H136 C119 0.930 . S
H137 C130 0.929 . S
Cu138 N139 1.999 . S
Cu138 O144 1.974 . S
Cu138 N149 1.985 . S
Cu138 O158 1.959 . S
N139 Cu138 1.999 . S
N139 C141 1.263 . S
N139 C143 1.389 . S
N140 C141 1.358 . S
N140 C142 1.400 . S
C141 N139 1.263 . S
C141 N140 1.358 . S
C141 H147 0.930 . S
C142 N140 1.400 . S
C142 C143 1.351 . S
C142 H159 0.930 . S
C143 N139 1.389 . S
C143 C142 1.351 . S
C143 H148 0.930 . S
O144 Cu138 1.974 . S
O144 C154 1.282 . S
C145 O146 1.261 . S
C145 O158 1.251 . S
O146 C145 1.261 . S
H147 C141 0.930 . S
H148 C143 0.930 . S
N149 Cu138 1.985 . S
N149 C151 1.335 . S
N149 C152 1.390 . S
N150 C151 1.345 . S
N150 C153 1.336 . S
C151 N149 1.335 . S
C151 N150 1.345 . S
C151 H156 0.930 . S
C152 N149 1.390 . S
C152 C153 1.346 . S
C152 H157 0.930 . S
C153 N150 1.336 . S
C153 C152 1.346 . S
C153 H160 0.929 . S
C154 O144 1.282 . S
C154 O155 1.216 . S
O155 C154 1.216 . S
H156 C151 0.930 . S
H157 C152 0.930 . S
O158 Cu138 1.959 . S
O158 C145 1.251 . S
H159 C142 0.930 . S
H160 C153 0.929 . S
Cu161 N162 1.999 . S
Cu161 O167 1.974 . S
Cu161 N172 1.985 . S
Cu161 O181 1.959 . S
N162 Cu161 1.999 . S
N162 C164 1.263 . S
N162 C166 1.389 . S
N163 C164 1.358 . S
N163 C165 1.400 . S
C164 N162 1.263 . S
C164 N163 1.358 . S
C164 H170 0.930 . S
C165 N163 1.400 . S
C165 C166 1.351 . S
C165 H182 0.930 . S
C166 N162 1.389 . S
C166 C165 1.351 . S
C166 H171 0.930 . S
O167 Cu161 1.974 . S
O167 C177 1.282 . S
C168 O169 1.261 . S
C168 O181 1.251 . S
O169 C168 1.261 . S
H170 C164 0.930 . S
H171 C166 0.930 . S
N172 Cu161 1.985 . S
N172 C174 1.335 . S
N172 C175 1.390 . S
N173 C174 1.345 . S
N173 C176 1.336 . S
C174 N172 1.335 . S
C174 N173 1.345 . S
C174 H179 0.930 . S
C175 N172 1.390 . S
C175 C176 1.346 . S
C175 H180 0.930 . S
C176 N173 1.336 . S
C176 C175 1.346 . S
C176 H183 0.929 . S
C177 O167 1.282 . S
C177 O178 1.216 . S
O178 C177 1.216 . S
H179 C174 0.930 . S
H180 C175 0.930 . S
O181 Cu161 1.959 . S
O181 C168 1.251 . S
H182 C165 0.930 . S
H183 C176 0.929 . S
Cu184 N185 1.999 . S
Cu184 O190 1.974 . S
Cu184 N195 1.985 . S
Cu184 O204 1.959 . S
N185 Cu184 1.999 . S
N185 C187 1.263 . S
N185 C189 1.389 . S
N186 C187 1.358 . S
N186 C188 1.400 . S
C187 N185 1.263 . S
C187 N186 1.358 . S
C187 H193 0.930 . S
C188 N186 1.400 . S
C188 C189 1.351 . S
C188 H205 0.930 . S
C189 N185 1.389 . S
C189 C188 1.351 . S
C189 H194 0.930 . S
O190 Cu184 1.974 . S
O190 C200 1.282 . S
C191 O192 1.261 . S
C191 O204 1.251 . S
O192 C191 1.261 . S
H193 C187 0.930 . S
H194 C189 0.930 . S
N195 Cu184 1.985 . S
N195 C197 1.335 . S
N195 C198 1.390 . S
N196 C197 1.345 . S
N196 C199 1.336 . S
C197 N195 1.335 . S
C197 N196 1.345 . S
C197 H202 0.930 . S
C198 N195 1.390 . S
C198 C199 1.346 . S
C198 H203 0.930 . S
C199 N196 1.336 . S
C199 C198 1.346 . S
C199 H206 0.929 . S
C200 O190 1.282 . S
C200 O201 1.216 . S
O201 C200 1.216 . S
H202 C197 0.930 . S
H203 C198 0.930 . S
O204 Cu184 1.959 . S
O204 C191 1.251 . S
H205 C188 0.930 . S
H206 C199 0.929 . S
Cu207 N208 1.999 . S
Cu207 O213 1.974 . S
Cu207 N218 1.985 . S
Cu207 O227 1.959 . S
N208 Cu207 1.999 . S
N208 C210 1.263 . S
N208 C212 1.389 . S
N209 C210 1.358 . S
N209 C211 1.400 . S
C210 N208 1.263 . S
C210 N209 1.358 . S
C210 H216 0.930 . S
C211 N209 1.400 . S
C211 C212 1.351 . S
C211 H228 0.930 . S
C212 N208 1.389 . S
C212 C211 1.351 . S
C212 H217 0.930 . S
O213 Cu207 1.974 . S
O213 C223 1.282 . S
C214 O215 1.261 . S
C214 O227 1.251 . S
O215 C214 1.261 . S
H216 C210 0.930 . S
H217 C212 0.930 . S
N218 Cu207 1.985 . S
N218 C220 1.335 . S
N218 C221 1.390 . S
N219 C220 1.345 . S
N219 C222 1.336 . S
C220 N218 1.335 . S
C220 N219 1.345 . S
C220 H225 0.930 . S
C221 N218 1.390 . S
C221 C222 1.346 . S
C221 H226 0.930 . S
C222 N219 1.336 . S
C222 C221 1.346 . S
C222 H229 0.929 . S
C223 O213 1.282 . S
C223 O224 1.216 . S
O224 C223 1.216 . S
H225 C220 0.930 . S
H226 C221 0.930 . S
O227 Cu207 1.959 . S
O227 C214 1.251 . S
H228 C211 0.930 . S
H229 C222 0.929 . S
Cu230 N231 1.999 . S
Cu230 O236 1.974 . S
Cu230 N241 1.985 . S
Cu230 O250 1.959 . S
N231 Cu230 1.999 . S
N231 C233 1.263 . S
N231 C235 1.389 . S
N232 C233 1.358 . S
N232 C234 1.400 . S
C233 N231 1.263 . S
C233 N232 1.358 . S
C233 H239 0.930 . S
C234 N232 1.400 . S
C234 C235 1.351 . S
C234 H251 0.930 . S
C235 N231 1.389 . S
C235 C234 1.351 . S
C235 H240 0.930 . S
O236 Cu230 1.974 . S
O236 C246 1.282 . S
C237 O238 1.261 . S
C237 O250 1.251 . S
O238 C237 1.261 . S
H239 C233 0.930 . S
H240 C235 0.930 . S
N241 Cu230 1.985 . S
N241 C243 1.335 . S
N241 C244 1.390 . S
N242 C243 1.345 . S
N242 C245 1.336 . S
C243 N241 1.335 . S
C243 N242 1.345 . S
C243 H248 0.930 . S
C244 N241 1.390 . S
C244 C245 1.346 . S
C244 H249 0.930 . S
C245 N242 1.336 . S
C245 C244 1.346 . S
C245 H252 0.929 . S
C246 O236 1.282 . S
C246 O247 1.216 . S
O247 C246 1.216 . S
H248 C243 0.930 . S
H249 C244 0.930 . S
O250 Cu230 1.959 . S
O250 C237 1.251 . S
H251 C234 0.930 . S
H252 C245 0.929 . S
Cu253 N254 1.999 . S
Cu253 O259 1.974 . S
Cu253 N264 1.985 . S
Cu253 O273 1.959 . S
N254 Cu253 1.999 . S
N254 C256 1.263 . S
N254 C258 1.389 . S
N255 C256 1.358 . S
N255 C257 1.400 . S
C256 N254 1.263 . S
C256 N255 1.358 . S
C256 H262 0.930 . S
C257 N255 1.400 . S
C257 C258 1.351 . S
C257 H274 0.930 . S
C258 N254 1.389 . S
C258 C257 1.351 . S
C258 H263 0.930 . S
O259 Cu253 1.974 . S
O259 C269 1.282 . S
C260 O261 1.261 . S
C260 O273 1.251 . S
O261 C260 1.261 . S
H262 C256 0.930 . S
H263 C258 0.930 . S
N264 Cu253 1.985 . S
N264 C266 1.335 . S
N264 C267 1.390 . S
N265 C266 1.345 . S
N265 C268 1.336 . S
C266 N264 1.335 . S
C266 N265 1.345 . S
C266 H271 0.930 . S
C267 N264 1.390 . S
C267 C268 1.346 . S
C267 H272 0.930 . S
C268 N265 1.336 . S
C268 C267 1.346 . S
C268 H275 0.929 . S
C269 O259 1.282 . S
C269 O270 1.216 . S
O270 C269 1.216 . S
H271 C266 0.930 . S
H272 C267 0.930 . S
O273 Cu253 1.959 . S
O273 C260 1.251 . S
H274 C257 0.930 . S
H275 C268 0.929 . S
Cu276 N277 1.999 . S
Cu276 O282 1.974 . S
Cu276 N287 1.985 . S
Cu276 O296 1.959 . S
N277 Cu276 1.999 . S
N277 C279 1.263 . S
N277 C281 1.389 . S
N278 C279 1.358 . S
N278 C280 1.400 . S
C279 N277 1.263 . S
C279 N278 1.358 . S
C279 H285 0.930 . S
C280 N278 1.400 . S
C280 C281 1.351 . S
C280 H297 0.930 . S
C281 N277 1.389 . S
C281 C280 1.351 . S
C281 H286 0.930 . S
O282 Cu276 1.974 . S
O282 C292 1.282 . S
C283 O284 1.261 . S
C283 O296 1.251 . S
O284 C283 1.261 . S
H285 C279 0.930 . S
H286 C281 0.930 . S
N287 Cu276 1.985 . S
N287 C289 1.335 . S
N287 C290 1.390 . S
N288 C289 1.345 . S
N288 C291 1.336 . S
C289 N287 1.335 . S
C289 N288 1.345 . S
C289 H294 0.930 . S
C290 N287 1.390 . S
C290 C291 1.346 . S
C290 H295 0.930 . S
C291 N288 1.336 . S
C291 C290 1.346 . S
C291 H298 0.929 . S
C292 O282 1.282 . S
C292 O293 1.216 . S
O293 C292 1.216 . S
H294 C289 0.930 . S
H295 C290 0.930 . S
O296 Cu276 1.959 . S
O296 C283 1.251 . S
H297 C280 0.930 . S
H298 C291 0.929 . S
Cu299 N300 1.999 . S
Cu299 O305 1.974 . S
Cu299 N310 1.985 . S
Cu299 O319 1.959 . S
N300 Cu299 1.999 . S
N300 C302 1.263 . S
N300 C304 1.389 . S
N301 C302 1.358 . S
N301 C303 1.400 . S
C302 N300 1.263 . S
C302 N301 1.358 . S
C302 H308 0.930 . S
C303 N301 1.400 . S
C303 C304 1.351 . S
C303 H320 0.930 . S
C304 N300 1.389 . S
C304 C303 1.351 . S
C304 H309 0.930 . S
O305 Cu299 1.974 . S
O305 C315 1.282 . S
C306 O307 1.261 . S
C306 O319 1.251 . S
O307 C306 1.261 . S
H308 C302 0.930 . S
H309 C304 0.930 . S
N310 Cu299 1.985 . S
N310 C312 1.335 . S
N310 C313 1.390 . S
N311 C312 1.345 . S
N311 C314 1.336 . S
C312 N310 1.335 . S
C312 N311 1.345 . S
C312 H317 0.930 . S
C313 N310 1.390 . S
C313 C314 1.346 . S
C313 H318 0.930 . S
C314 N311 1.336 . S
C314 C313 1.346 . S
C314 H321 0.929 . S
C315 O305 1.282 . S
C315 O316 1.216 . S
O316 C315 1.216 . S
H317 C312 0.930 . S
H318 C313 0.930 . S
O319 Cu299 1.959 . S
O319 C306 1.251 . S
H320 C303 0.930 . S
H321 C314 0.929 . S
Cu322 N323 1.999 . S
Cu322 O328 1.974 . S
Cu322 N333 1.985 . S
Cu322 O342 1.959 . S
N323 Cu322 1.999 . S
N323 C325 1.263 . S
N323 C327 1.389 . S
N324 C325 1.358 . S
N324 C326 1.400 . S
C325 N323 1.263 . S
C325 N324 1.358 . S
C325 H331 0.930 . S
C326 N324 1.400 . S
C326 C327 1.351 . S
C326 H343 0.930 . S
C327 N323 1.389 . S
C327 C326 1.351 . S
C327 H332 0.930 . S
O328 Cu322 1.974 . S
O328 C338 1.282 . S
C329 O330 1.261 . S
C329 O342 1.251 . S
O330 C329 1.261 . S
H331 C325 0.930 . S
H332 C327 0.930 . S
N333 Cu322 1.985 . S
N333 C335 1.335 . S
N333 C336 1.390 . S
N334 C335 1.345 . S
N334 C337 1.336 . S
C335 N333 1.335 . S
C335 N334 1.345 . S
C335 H340 0.930 . S
C336 N333 1.390 . S
C336 C337 1.346 . S
C336 H341 0.930 . S
C337 N334 1.336 . S
C337 C336 1.346 . S
C337 H344 0.929 . S
C338 O328 1.282 . S
C338 O339 1.216 . S
O339 C338 1.216 . S
H340 C335 0.930 . S
H341 C336 0.930 . S
O342 Cu322 1.959 . S
O342 C329 1.251 . S
H343 C326 0.930 . S
H344 C337 0.929 . S
Cu345 N346 1.999 . S
Cu345 O351 1.974 . S
Cu345 N356 1.985 . S
Cu345 O365 1.959 . S
N346 Cu345 1.999 . S
N346 C348 1.263 . S
N346 C350 1.389 . S
N347 C348 1.358 . S
N347 C349 1.400 . S
C348 N346 1.263 . S
C348 N347 1.358 . S
C348 H354 0.930 . S
C349 N347 1.400 . S
C349 C350 1.351 . S
C349 H366 0.930 . S
C350 N346 1.389 . S
C350 C349 1.351 . S
C350 H355 0.930 . S
O351 Cu345 1.974 . S
O351 C361 1.282 . S
C352 O353 1.261 . S
C352 O365 1.251 . S
O353 C352 1.261 . S
H354 C348 0.930 . S
H355 C350 0.930 . S
N356 Cu345 1.985 . S
N356 C358 1.335 . S
N356 C359 1.390 . S
N357 C358 1.345 . S
N357 C360 1.336 . S
C358 N356 1.335 . S
C358 N357 1.345 . S
C358 H363 0.930 . S
C359 N356 1.390 . S
C359 C360 1.346 . S
C359 H364 0.930 . S
C360 N357 1.336 . S
C360 C359 1.346 . S
C360 H367 0.929 . S
C361 O351 1.282 . S
C361 O362 1.216 . S
O362 C361 1.216 . S
H363 C358 0.930 . S
H364 C359 0.930 . S
O365 Cu345 1.959 . S
O365 C352 1.251 . S
H366 C349 0.930 . S
H367 C360 0.929 . S
Cu368 N369 1.999 . S
Cu368 O374 1.974 . S
Cu368 N379 1.985 . S
Cu368 O388 1.959 . S
N369 Cu368 1.999 . S
N369 C371 1.263 . S
N369 C373 1.389 . S
N370 C371 1.358 . S
N370 C372 1.400 . S
C371 N369 1.263 . S
C371 N370 1.358 . S
C371 H377 0.930 . S
C372 N370 1.400 . S
C372 C373 1.351 . S
C372 H389 0.930 . S
C373 N369 1.389 . S
C373 C372 1.351 . S
C373 H378 0.930 . S
O374 Cu368 1.974 . S
O374 C384 1.282 . S
C375 O376 1.261 . S
C375 O388 1.251 . S
O376 C375 1.261 . S
H377 C371 0.930 . S
H378 C373 0.930 . S
N379 Cu368 1.985 . S
N379 C381 1.335 . S
N379 C382 1.390 . S
N380 C381 1.345 . S
N380 C383 1.336 . S
C381 N379 1.335 . S
C381 N380 1.345 . S
C381 H386 0.930 . S
C382 N379 1.390 . S
C382 C383 1.346 . S
C382 H387 0.930 . S
C383 N380 1.336 . S
C383 C382 1.346 . S
C383 H390 0.929 . S
C384 O374 1.282 . S
C384 O385 1.216 . S
O385 C384 1.216 . S
H386 C381 0.930 . S
H387 C382 0.930 . S
O388 Cu368 1.959 . S
O388 C375 1.251 . S
H389 C372 0.930 . S
H390 C383 0.929 . S
Cu391 N392 1.999 . S
Cu391 O397 1.974 . S
Cu391 N402 1.985 . S
Cu391 O411 1.959 . S
N392 Cu391 1.999 . S
N392 C394 1.263 . S
N392 C396 1.389 . S
N393 C394 1.358 . S
N393 C395 1.400 . S
C394 N392 1.263 . S
C394 N393 1.358 . S
C394 H400 0.930 . S
C395 N393 1.400 . S
C395 C396 1.351 . S
C395 H412 0.930 . S
C396 N392 1.389 . S
C396 C395 1.351 . S
C396 H401 0.930 . S
O397 Cu391 1.974 . S
O397 C407 1.282 . S
C398 O399 1.261 . S
C398 O411 1.251 . S
O399 C398 1.261 . S
H400 C394 0.930 . S
H401 C396 0.930 . S
N402 Cu391 1.985 . S
N402 C404 1.335 . S
N402 C405 1.390 . S
N403 C404 1.345 . S
N403 C406 1.336 . S
C404 N402 1.335 . S
C404 N403 1.345 . S
C404 H409 0.930 . S
C405 N402 1.390 . S
C405 C406 1.346 . S
C405 H410 0.930 . S
C406 N403 1.336 . S
C406 C405 1.346 . S
C406 H413 0.929 . S
C407 O397 1.282 . S
C407 O408 1.216 . S
O408 C407 1.216 . S
H409 C404 0.930 . S
H410 C405 0.930 . S
O411 Cu391 1.959 . S
O411 C398 1.251 . S
H412 C395 0.930 . S
H413 C406 0.929 . S
In414 O415 2.294 . S
In414 O416 2.326 . S
In414 O420 2.266 . S
In414 O421 2.326 . S
In414 O422 2.266 1_455 S
In414 O423 2.326 . S
In414 O425 2.294 . S
In414 O426 2.326 . S
O415 In414 2.294 . S
O415 C424 1.240 . S
O416 In414 2.326 . S
O416 C424 1.252 . S
C417 O420 1.252 . S
C417 O421 1.260 . S
C418 O425 1.240 . S
C418 O426 1.252 . S
C419 O422 1.252 . S
C419 O423 1.260 1_655 S
O420 In414 2.266 . S
O420 C417 1.252 . S
O421 In414 2.326 . S
O421 C417 1.260 . S
O422 In414 2.266 1_655 S
O422 C419 1.252 . S
O423 In414 2.326 . S
O423 C419 1.260 1_455 S
C424 O415 1.240 . S
C424 O416 1.252 . S
O425 In414 2.294 . S
O425 C418 1.240 . S
O426 In414 2.326 . S
O426 C418 1.252 . S
In427 O428 2.294 . S
In427 O429 2.326 . S
In427 O433 2.266 . S
In427 O434 2.326 . S
In427 O435 2.266 . S
In427 O436 2.326 . S
In427 O438 2.294 . S
In427 O439 2.326 . S
O428 In427 2.294 . S
O428 C437 1.240 . S
O429 In427 2.326 . S
O429 C437 1.252 . S
C430 O433 1.252 . S
C430 O434 1.260 . S
C431 O438 1.240 . S
C431 O439 1.252 . S
C432 O435 1.252 . S
C432 O436 1.260 . S
O433 In427 2.266 . S
O433 C430 1.252 . S
O434 In427 2.326 . S
O434 C430 1.260 . S
O435 In427 2.266 . S
O435 C432 1.252 . S
O436 In427 2.326 . S
O436 C432 1.260 . S
C437 O428 1.240 . S
C437 O429 1.252 . S
O438 In427 2.294 . S
O438 C431 1.240 . S
O439 In427 2.326 . S
O439 C431 1.252 . S
In440 O441 2.294 . S
In440 O442 2.326 . S
In440 O446 2.266 . S
In440 O447 2.326 . S
In440 O448 2.266 . S
In440 O449 2.326 . S
In440 O451 2.294 . S
In440 O452 2.326 . S
O441 In440 2.294 . S
O441 C450 1.240 . S
O442 In440 2.326 . S
O442 C450 1.252 . S
C443 O446 1.252 . S
C443 O447 1.260 . S
C444 O451 1.240 . S
C444 O452 1.252 . S
C445 O448 1.252 . S
C445 O449 1.260 . S
O446 In440 2.266 . S
O446 C443 1.252 . S
O447 In440 2.326 . S
O447 C443 1.260 . S
O448 In440 2.266 . S
O448 C445 1.252 . S
O449 In440 2.326 . S
O449 C445 1.260 . S
C450 O441 1.240 . S
C450 O442 1.252 . S
O451 In440 2.294 . S
O451 C444 1.240 . S
O452 In440 2.326 . S
O452 C444 1.252 . S
In453 O454 2.294 . S
In453 O455 2.326 . S
In453 O459 2.266 . S
In453 O460 2.326 . S
In453 O461 2.266 . S
In453 O462 2.326 . S
In453 O464 2.294 . S
In453 O465 2.326 . S
O454 In453 2.294 . S
O454 C463 1.240 . S
O455 In453 2.326 . S
O455 C463 1.252 . S
C456 O459 1.252 . S
C456 O460 1.260 . S
C457 O464 1.240 . S
C457 O465 1.252 . S
C458 O461 1.252 . S
C458 O462 1.260 . S
O459 In453 2.266 . S
O459 C456 1.252 . S
O460 In453 2.326 . S
O460 C456 1.260 . S
O461 In453 2.266 . S
O461 C458 1.252 . S
O462 In453 2.326 . S
O462 C458 1.260 . S
C463 O454 1.240 . S
C463 O455 1.252 . S
O464 In453 2.294 . S
O464 C457 1.240 . S
O465 In453 2.326 . S
O465 C457 1.252 . S
In466 O467 2.294 . S
In466 O468 2.326 . S
In466 O472 2.266 . S
In466 O473 2.326 . S
In466 O474 2.266 . S
In466 O475 2.326 . S
In466 O477 2.294 . S
In466 O478 2.326 . S
O467 In466 2.294 . S
O467 C476 1.240 . S
O468 In466 2.326 . S
O468 C476 1.252 . S
C469 O472 1.252 . S
C469 O473 1.260 . S
C470 O477 1.240 . S
C470 O478 1.252 . S
C471 O474 1.252 . S
C471 O475 1.260 . S
O472 In466 2.266 . S
O472 C469 1.252 . S
O473 In466 2.326 . S
O473 C469 1.260 . S
O474 In466 2.266 . S
O474 C471 1.252 . S
O475 In466 2.326 . S
O475 C471 1.260 . S
C476 O467 1.240 . S
C476 O468 1.252 . S
O477 In466 2.294 . S
O477 C470 1.240 . S
O478 In466 2.326 . S
O478 C470 1.252 . S
In479 O480 2.294 . S
In479 O481 2.326 . S
In479 O485 2.266 . S
In479 O486 2.326 . S
In479 O487 2.266 1_545 S
In479 O488 2.326 . S
In479 O490 2.294 . S
In479 O491 2.326 . S
O480 In479 2.294 . S
O480 C489 1.240 . S
O481 In479 2.326 . S
O481 C489 1.252 . S
C482 O485 1.252 . S
C482 O486 1.260 . S
C483 O490 1.240 . S
C483 O491 1.252 . S
C484 O487 1.279 . S
C484 O488 1.223 1_565 S
O485 In479 2.266 . S
O485 C482 1.252 . S
O486 In479 2.326 . S
O486 C482 1.260 . S
O487 In479 2.266 1_565 S
O487 C484 1.279 . S
O488 In479 2.326 . S
O488 C484 1.223 1_545 S
C489 O480 1.240 . S
C489 O481 1.252 . S
O490 In479 2.294 . S
O490 C483 1.240 . S
O491 In479 2.326 . S
O491 C483 1.252 . S
In492 O493 2.294 1_565 S
In492 O494 2.326 1_565 S
In492 O498 2.266 . S
In492 O499 2.326 . S
In492 O500 2.266 . S
In492 O501 2.326 1_565 S
In492 O503 2.294 . S
In492 O504 2.326 . S
O493 In492 2.294 1_545 S
O493 C502 1.240 . S
O494 In492 2.326 1_545 S
O494 C502 1.252 . S
C495 O498 1.252 . S
C495 O499 1.260 . S
C496 O503 1.240 . S
C496 O504 1.252 . S
C497 O500 1.252 . S
C497 O501 1.260 1_565 S
O498 In492 2.266 . S
O498 C495 1.252 . S
O499 In492 2.326 . S
O499 C495 1.260 . S
O500 In492 2.266 . S
O500 C497 1.252 . S
O501 In492 2.326 1_545 S
O501 C497 1.260 1_545 S
C502 O493 1.240 . S
C502 O494 1.252 . S
O503 In492 2.294 . S
O503 C496 1.240 . S
O504 In492 2.326 . S
O504 C496 1.252 . S
In505 O506 2.294 . S
In505 O507 2.326 . S
In505 O511 2.266 . S
In505 O512 2.326 . S
In505 O513 2.266 . S
In505 O514 2.326 . S
In505 O516 2.294 . S
In505 O517 2.326 . S
O506 In505 2.294 . S
O506 C515 1.240 . S
O507 In505 2.326 . S
O507 C515 1.252 . S
C508 O511 1.252 . S
C508 O512 1.260 . S
C509 O516 1.240 . S
C509 O517 1.252 . S
C510 O513 1.252 . S
C510 O514 1.260 . S
O511 In505 2.266 . S
O511 C508 1.252 . S
O512 In505 2.326 . S
O512 C508 1.260 . S
O513 In505 2.266 . S
O513 C510 1.252 . S
O514 In505 2.326 . S
O514 C510 1.260 . S
C515 O506 1.240 . S
C515 O507 1.252 . S
O516 In505 2.294 . S
O516 C509 1.240 . S
O517 In505 2.326 . S
O517 C509 1.252 . S
In518 O519 2.294 . S
In518 O520 2.326 . S
In518 O524 2.266 . S
In518 O525 2.326 . S
In518 O526 2.266 . S
In518 O527 2.326 . S
In518 O529 2.294 . S
In518 O530 2.326 . S
O519 In518 2.294 . S
O519 C528 1.240 . S
O520 In518 2.326 . S
O520 C528 1.252 . S
C521 O524 1.252 . S
C521 O525 1.260 . S
C522 O529 1.240 . S
C522 O530 1.252 . S
C523 O526 1.252 . S
C523 O527 1.260 . S
O524 In518 2.266 . S
O524 C521 1.252 . S
O525 In518 2.326 . S
O525 C521 1.260 . S
O526 In518 2.266 . S
O526 C523 1.252 . S
O527 In518 2.326 . S
O527 C523 1.260 . S
C528 O519 1.240 . S
C528 O520 1.252 . S
O529 In518 2.294 . S
O529 C522 1.240 . S
O530 In518 2.326 . S
O530 C522 1.252 . S
In531 O532 2.294 . S
In531 O533 2.326 . S
In531 O537 2.266 . S
In531 O538 2.326 . S
In531 O539 2.266 . S
In531 O540 2.326 . S
In531 O542 2.294 . S
In531 O543 2.326 . S
O532 In531 2.294 . S
O532 C541 1.240 . S
O533 In531 2.326 . S
O533 C541 1.252 . S
C534 O537 1.252 . S
C534 O538 1.260 . S
C535 O542 1.240 . S
C535 O543 1.252 . S
C536 O539 1.252 . S
C536 O540 1.260 . S
O537 In531 2.266 . S
O537 C534 1.252 . S
O538 In531 2.326 . S
O538 C534 1.260 . S
O539 In531 2.266 . S
O539 C536 1.252 . S
O540 In531 2.326 . S
O540 C536 1.260 . S
C541 O532 1.240 . S
C541 O533 1.252 . S
O542 In531 2.294 . S
O542 C535 1.240 . S
O543 In531 2.326 . S
O543 C535 1.252 . S
In544 O545 2.329 . S
In544 O546 2.329 . S
In544 O550 2.288 1_565 S
In544 O551 2.316 1_565 S
In544 O552 2.217 1_565 S
In544 O553 2.298 1_565 S
In544 O555 2.288 . S
In544 O556 2.363 . S
O545 In544 2.329 . S
O545 C554 1.240 . S
O546 In544 2.329 . S
O546 C554 1.252 . S
C547 O550 1.252 . S
C547 O551 1.260 . S
C548 O555 1.240 . S
C548 O556 1.252 . S
C549 O552 1.252 . S
C549 O553 1.260 . S
O550 In544 2.288 1_545 S
O550 C547 1.252 . S
O551 In544 2.316 1_545 S
O551 C547 1.260 . S
O552 In544 2.217 1_545 S
O552 C549 1.252 . S
O553 In544 2.298 1_545 S
O553 C549 1.260 . S
C554 O545 1.240 . S
C554 O546 1.252 . S
O555 In544 2.288 . S
O555 C548 1.240 . S
O556 In544 2.363 . S
O556 C548 1.252 . S
In557 O558 2.294 . S
In557 O559 2.326 . S
In557 O563 2.266 . S
In557 O564 2.326 . S
In557 O565 2.266 . S
In557 O566 2.326 . S
In557 O568 2.294 . S
In557 O569 2.326 . S
O558 In557 2.294 . S
O558 C567 1.240 . S
O559 In557 2.326 . S
O559 C567 1.252 . S
C560 O563 1.252 . S
C560 O564 1.260 . S
C561 O568 1.240 . S
C561 O569 1.252 . S
C562 O565 1.252 . S
C562 O566 1.260 . S
O563 In557 2.266 . S
O563 C560 1.252 . S
O564 In557 2.326 . S
O564 C560 1.260 . S
O565 In557 2.266 . S
O565 C562 1.252 . S
O566 In557 2.326 . S
O566 C562 1.260 . S
C567 O558 1.240 . S
C567 O559 1.252 . S
O568 In557 2.294 . S
O568 C561 1.240 . S
O569 In557 2.326 . S
O569 C561 1.252 . S
In570 O571 2.294 . S
In570 O572 2.326 . S
In570 O576 2.266 . S
In570 O577 2.326 . S
In570 O578 2.266 . S
In570 O579 2.326 . S
In570 O581 2.294 . S
In570 O582 2.326 . S
O571 In570 2.294 . S
O571 C580 1.240 . S
O572 In570 2.326 . S
O572 C580 1.252 . S
C573 O576 1.252 . S
C573 O577 1.260 . S
C574 O581 1.240 . S
C574 O582 1.252 . S
C575 O578 1.252 . S
C575 O579 1.260 . S
O576 In570 2.266 . S
O576 C573 1.252 . S
O577 In570 2.326 . S
O577 C573 1.260 . S
O578 In570 2.266 . S
O578 C575 1.252 . S
O579 In570 2.326 . S
O579 C575 1.260 . S
C580 O571 1.240 . S
C580 O572 1.252 . S
O581 In570 2.294 . S
O581 C574 1.240 . S
O582 In570 2.326 . S
O582 C574 1.252 . S
In583 O584 2.294 . S
In583 O585 2.326 . S
In583 O589 2.266 . S
In583 O590 2.326 . S
In583 O591 2.266 . S
In583 O592 2.326 . S
In583 O594 2.294 . S
In583 O595 2.326 . S
O584 In583 2.294 . S
O584 C593 1.240 . S
O585 In583 2.326 . S
O585 C593 1.252 . S
C586 O589 1.252 . S
C586 O590 1.260 . S
C587 O594 1.240 . S
C587 O595 1.252 . S
C588 O591 1.252 . S
C588 O592 1.260 . S
O589 In583 2.266 . S
O589 C586 1.252 . S
O590 In583 2.326 . S
O590 C586 1.260 . S
O591 In583 2.266 . S
O591 C588 1.252 . S
O592 In583 2.326 . S
O592 C588 1.260 . S
C593 O584 1.240 . S
C593 O585 1.252 . S
O594 In583 2.294 . S
O594 C587 1.240 . S
O595 In583 2.326 . S
O595 C587 1.252 . S
In596 O597 2.294 . S
In596 O598 2.326 . S
In596 O602 2.266 1_655 S
In596 O603 2.326 1_655 S
In596 O604 2.266 . S
In596 O605 2.326 . S
In596 O607 2.294 . S
In596 O608 2.326 1_655 S
O597 In596 2.294 . S
O597 C606 1.240 . S
O598 In596 2.326 . S
O598 C606 1.252 . S
C599 O602 1.252 . S
C599 O603 1.260 . S
C600 O607 1.240 . S
C600 O608 1.252 1_655 S
C601 O604 1.252 . S
C601 O605 1.260 . S
O602 In596 2.266 1_455 S
O602 C599 1.252 . S
O603 In596 2.326 1_455 S
O603 C599 1.260 . S
O604 In596 2.266 . S
O604 C601 1.252 . S
O605 In596 2.326 . S
O605 C601 1.260 . S
C606 O597 1.240 . S
C606 O598 1.252 . S
O607 In596 2.294 . S
O607 C600 1.240 . S
O608 In596 2.326 1_455 S
O608 C600 1.252 1_455 S
In609 O610 2.294 . S
In609 O611 2.326 . S
In609 O615 2.266 . S
In609 O616 2.326 . S
In609 O617 2.266 . S
In609 O618 2.326 . S
In609 O620 2.294 . S
In609 O621 2.326 . S
O610 In609 2.294 . S
O610 C619 1.240 . S
O611 In609 2.326 . S
O611 C619 1.252 . S
C612 O615 1.252 . S
C612 O616 1.260 . S
C613 O620 1.240 . S
C613 O621 1.252 . S
C614 O617 1.252 . S
C614 O618 1.260 . S
O615 In609 2.266 . S
O615 C612 1.252 . S
O616 In609 2.326 . S
O616 C612 1.260 . S
O617 In609 2.266 . S
O617 C614 1.252 . S
O618 In609 2.326 . S
O618 C614 1.260 . S
C619 O610 1.240 . S
C619 O611 1.252 . S
O620 In609 2.294 . S
O620 C613 1.240 . S
O621 In609 2.326 . S
O621 C613 1.252 . S
In622 O623 2.293 . S
In622 O624 2.330 . S
In622 O628 2.262 1_655 S
In622 O629 2.323 1_655 S
In622 O630 2.268 1_655 S
In622 O631 2.325 1_655 S
In622 O633 2.297 . S
In622 O634 2.327 . S
O623 In622 2.293 . S
O623 C632 1.240 . S
O624 In622 2.330 . S
O624 C632 1.252 . S
C625 O628 1.252 . S
C625 O629 1.260 . S
C626 O633 1.240 . S
C626 O634 1.252 . S
C627 O630 1.252 . S
C627 O631 1.260 . S
O628 In622 2.262 1_455 S
O628 C625 1.252 . S
O629 In622 2.323 1_455 S
O629 C625 1.260 . S
O630 In622 2.268 1_455 S
O630 C627 1.252 . S
O631 In622 2.325 1_455 S
O631 C627 1.260 . S
C632 O623 1.240 . S
C632 O624 1.252 . S
O633 In622 2.297 . S
O633 C626 1.240 . S
O634 In622 2.327 . S
O634 C626 1.252 . S
In635 O636 2.294 . S
In635 O637 2.326 . S
In635 O641 2.266 . S
In635 O642 2.326 . S
In635 O643 2.266 . S
In635 O644 2.326 . S
In635 O646 2.294 . S
In635 O647 2.326 . S
O636 In635 2.294 . S
O636 C645 1.240 . S
O637 In635 2.326 . S
O637 C645 1.252 . S
C638 O641 1.252 . S
C638 O642 1.260 . S
C639 O646 1.240 . S
C639 O647 1.252 . S
C640 O643 1.252 . S
C640 O644 1.260 . S
O641 In635 2.266 . S
O641 C638 1.252 . S
O642 In635 2.326 . S
O642 C638 1.260 . S
O643 In635 2.266 . S
O643 C640 1.252 . S
O644 In635 2.326 . S
O644 C640 1.260 . S
C645 O636 1.240 . S
C645 O637 1.252 . S
O646 In635 2.294 . S
O646 C639 1.240 . S
O647 In635 2.326 . S
O647 C639 1.252 . S
H648 C654 0.930 . S
H649 C657 0.930 . S
H650 C658 0.930 . S
H651 C659 0.930 . S
H652 C662 0.930 . S
H653 C663 0.930 . S
C654 H648 0.930 . S
C654 C655 1.355 . S
C654 C656 1.415 . S
C655 C654 1.355 . S
C655 C657 1.419 1_455 S
C656 C654 1.415 . S
C656 C661 1.425 . S
C656 C663 1.409 . S
C657 H649 0.930 . S
C657 C655 1.419 1_655 S
C657 C658 1.362 . S
C658 H650 0.930 . S
C658 C657 1.362 . S
C658 C661 1.409 1_655 S
C659 H651 0.930 . S
C659 C660 1.355 . S
C659 C661 1.415 . S
C660 C659 1.355 . S
C660 C662 1.419 . S
C661 C656 1.425 . S
C661 C658 1.409 1_455 S
C661 C659 1.415 . S
C662 H652 0.930 . S
C662 C660 1.419 . S
C662 C663 1.362 . S
C663 H653 0.930 . S
C663 C656 1.409 . S
C663 C662 1.362 . S
H664 C670 0.930 . S
H665 C673 0.930 . S
H666 C674 0.930 . S
H667 C675 0.930 . S
H668 C678 0.930 . S
H669 C679 0.930 . S
C670 H664 0.930 . S
C670 C671 1.355 . S
C670 C672 1.415 . S
C671 C670 1.355 . S
C671 C673 1.419 . S
C672 C670 1.415 . S
C672 C677 1.425 . S
C672 C679 1.409 . S
C673 H665 0.930 . S
C673 C671 1.419 . S
C673 C674 1.362 . S
C674 H666 0.930 . S
C674 C673 1.362 . S
C674 C677 1.409 . S
C675 H667 0.930 . S
C675 C676 1.355 . S
C675 C677 1.415 . S
C676 C675 1.355 . S
C676 C678 1.419 . S
C677 C672 1.425 . S
C677 C674 1.409 . S
C677 C675 1.415 . S
C678 H668 0.930 . S
C678 C676 1.419 . S
C678 C679 1.362 . S
C679 H669 0.930 . S
C679 C672 1.409 . S
C679 C678 1.362 . S
H680 C686 0.930 . S
H681 C689 0.930 . S
H682 C690 0.930 . S
H683 C691 0.930 . S
H684 C694 0.930 . S
H685 C695 0.930 . S
C686 H680 0.930 . S
C686 C687 1.355 . S
C686 C688 1.415 . S
C687 C686 1.355 . S
C687 C689 1.419 . S
C688 C686 1.415 . S
C688 C693 1.425 . S
C688 C695 1.409 . S
C689 H681 0.930 . S
C689 C687 1.419 . S
C689 C690 1.362 . S
C690 H682 0.930 . S
C690 C689 1.362 . S
C690 C693 1.409 . S
C691 H683 0.930 . S
C691 C692 1.355 . S
C691 C693 1.415 . S
C692 C691 1.355 . S
C692 C694 1.419 . S
C693 C688 1.425 . S
C693 C690 1.409 . S
C693 C691 1.415 . S
C694 H684 0.930 . S
C694 C692 1.419 . S
C694 C695 1.362 . S
C695 H685 0.930 . S
C695 C688 1.409 . S
C695 C694 1.362 . S
H696 C702 0.930 . S
H697 C705 0.930 . S
H698 C706 0.930 . S
H699 C707 0.930 . S
H700 C710 0.930 . S
H701 C711 0.930 . S
C702 H696 0.930 . S
C702 C703 1.355 . S
C702 C704 1.415 . S
C703 C702 1.355 . S
C703 C705 1.419 . S
C704 C702 1.415 . S
C704 C709 1.425 . S
C704 C711 1.409 . S
C705 H697 0.930 . S
C705 C703 1.419 . S
C705 C706 1.362 . S
C706 H698 0.930 . S
C706 C705 1.362 . S
C706 C709 1.409 . S
C707 H699 0.930 . S
C707 C708 1.355 . S
C707 C709 1.415 . S
C708 C707 1.355 . S
C708 C710 1.419 . S
C709 C704 1.425 . S
C709 C706 1.409 . S
C709 C707 1.415 . S
C710 H700 0.930 . S
C710 C708 1.419 . S
C710 C711 1.362 . S
C711 H701 0.930 . S
C711 C704 1.409 . S
C711 C710 1.362 . S
H712 C718 0.930 . S
H713 C721 0.930 . S
H714 C722 0.930 . S
H715 C723 0.930 . S
H716 C726 0.930 1_655 S
H717 C727 0.930 1_655 S
C718 H712 0.930 . S
C718 C719 1.355 . S
C718 C720 1.415 . S
C719 C718 1.355 . S
C719 C721 1.419 . S
C720 C718 1.415 . S
C720 C725 1.425 . S
C720 C727 1.409 . S
C721 H713 0.930 . S
C721 C719 1.419 . S
C721 C722 1.362 . S
C722 H714 0.930 . S
C722 C721 1.362 . S
C722 C725 1.409 . S
C723 H715 0.930 . S
C723 C724 1.355 . S
C723 C725 1.415 . S
C724 C723 1.355 . S
C724 C726 1.419 . S
C725 C720 1.425 . S
C725 C722 1.409 . S
C725 C723 1.415 . S
C726 H716 0.930 1_455 S
C726 C724 1.419 . S
C726 C727 1.362 . S
C727 H717 0.930 1_455 S
C727 C720 1.409 . S
C727 C726 1.362 . S
H728 C734 0.930 . S
H729 C737 0.930 . S
H730 C738 0.930 . S
H731 C739 0.930 . S
H732 C742 0.930 . S
H733 C743 0.930 . S
C734 H728 0.930 . S
C734 C735 1.355 . S
C734 C736 1.415 . S
C735 C734 1.355 . S
C735 C737 1.419 . S
C736 C734 1.415 . S
C736 C741 1.425 . S
C736 C743 1.409 . S
C737 H729 0.930 . S
C737 C735 1.419 . S
C737 C738 1.362 . S
C738 H730 0.930 . S
C738 C737 1.362 . S
C738 C741 1.409 . S
C739 H731 0.930 . S
C739 C740 1.355 . S
C739 C741 1.415 . S
C740 C739 1.355 . S
C740 C742 1.419 . S
C741 C736 1.425 . S
C741 C738 1.409 . S
C741 C739 1.415 . S
C742 H732 0.930 . S
C742 C740 1.419 . S
C742 C743 1.362 . S
C743 H733 0.930 . S
C743 C736 1.409 . S
C743 C742 1.362 . S
H744 C750 0.930 . S
H745 C753 0.930 . S
H746 C754 0.930 . S
H747 C755 0.930 . S
H748 C758 0.930 . S
H749 C759 0.930 . S
C750 H744 0.930 . S
C750 C751 1.355 1_455 S
C750 C752 1.415 . S
C751 C750 1.355 1_655 S
C751 C753 1.419 . S
C752 C750 1.415 . S
C752 C757 1.425 1_455 S
C752 C759 1.409 . S
C753 H745 0.930 . S
C753 C751 1.419 . S
C753 C754 1.362 . S
C754 H746 0.930 . S
C754 C753 1.362 . S
C754 C757 1.409 . S
C755 H747 0.930 . S
C755 C756 1.355 . S
C755 C757 1.415 . S
C756 C755 1.355 . S
C756 C758 1.419 1_655 S
C757 C752 1.425 1_655 S
C757 C754 1.409 . S
C757 C755 1.415 . S
C758 H748 0.930 . S
C758 C756 1.419 1_455 S
C758 C759 1.362 . S
C759 H749 0.930 . S
C759 C752 1.409 . S
C759 C758 1.362 . S
H760 C766 0.930 1_554 S
H761 C769 0.930 . S
H762 C770 0.930 . S
H763 C771 0.930 . S
H764 C774 0.930 . S
H765 C775 0.930 1_554 S
C766 H760 0.930 1_556 S
C766 C767 1.355 . S
C766 C768 1.415 . S
C767 C766 1.355 . S
C767 C769 1.419 . S
C768 C766 1.415 . S
C768 C773 1.425 . S
C768 C775 1.409 . S
C769 H761 0.930 . S
C769 C767 1.419 . S
C769 C770 1.362 . S
C770 H762 0.930 . S
C770 C769 1.362 . S
C770 C773 1.409 . S
C771 H763 0.930 . S
C771 C772 1.355 . S
C771 C773 1.415 . S
C772 C771 1.355 . S
C772 C774 1.419 . S
C773 C768 1.425 . S
C773 C770 1.409 . S
C773 C771 1.415 . S
C774 H764 0.930 . S
C774 C772 1.419 . S
C774 C775 1.362 . S
C775 H765 0.930 1_556 S
C775 C768 1.409 . S
C775 C774 1.362 . S
H776 C782 0.931 . S
H777 C785 0.930 . S
H778 C786 0.930 . S
H779 C787 0.930 . S
H780 C790 0.948 . S
H781 C791 0.930 . S
C782 H776 0.931 . S
C782 C783 1.354 1_554 S
C782 C784 1.414 1_554 S
C783 C782 1.354 1_556 S
C783 C785 1.419 . S
C784 C782 1.414 1_556 S
C784 C789 1.425 . S
C784 C791 1.409 1_556 S
C785 H777 0.930 . S
C785 C783 1.419 . S
C785 C786 1.362 . S
C786 H778 0.930 . S
C786 C785 1.362 . S
C786 C789 1.409 . S
C787 H779 0.930 . S
C787 C788 1.355 . S
C787 C789 1.415 . S
C788 C787 1.355 . S
C788 C790 1.419 . S
C789 C784 1.425 . S
C789 C786 1.409 . S
C789 C787 1.415 . S
C790 H780 0.948 . S
C790 C788 1.419 . S
C790 C791 1.362 1_556 S
C791 H781 0.930 . S
C791 C784 1.409 1_554 S
C791 C790 1.362 1_554 S
H792 C798 0.930 . S
H793 C801 0.930 . S
H794 C802 0.930 . S
H795 C803 0.930 . S
H796 C806 0.930 . S
H797 C807 0.930 . S
C798 H792 0.930 . S
C798 C799 1.368 . S
C798 C800 1.415 . S
C799 C798 1.368 . S
C799 C801 1.375 1_545 S
C800 C798 1.415 . S
C800 C805 1.425 1_545 S
C800 C807 1.409 . S
C801 H793 0.930 . S
C801 C799 1.375 1_565 S
C801 C802 1.362 . S
C802 H794 0.930 . S
C802 C801 1.362 . S
C802 C805 1.409 . S
C803 H795 0.930 . S
C803 C804 1.350 1_565 S
C803 C805 1.415 . S
C804 C803 1.350 1_545 S
C804 C806 1.438 . S
C805 C800 1.425 1_565 S
C805 C802 1.409 . S
C805 C803 1.415 . S
C806 H796 0.930 . S
C806 C804 1.438 . S
C806 C807 1.362 . S
C807 H797 0.930 . S
C807 C800 1.409 . S
C807 C806 1.362 . S
H808 C814 0.930 . S
H809 C817 0.930 . S
H810 C818 0.930 . S
H811 C819 0.930 . S
H812 C822 0.930 . S
H813 C823 0.930 . S
C814 H808 0.930 . S
C814 C815 1.355 . S
C814 C816 1.415 . S
C815 C814 1.355 . S
C815 C817 1.419 . S
C816 C814 1.415 . S
C816 C821 1.425 . S
C816 C823 1.409 . S
C817 H809 0.930 . S
C817 C815 1.419 . S
C817 C818 1.362 . S
C818 H810 0.930 . S
C818 C817 1.362 . S
C818 C821 1.409 . S
C819 H811 0.930 . S
C819 C820 1.355 . S
C819 C821 1.415 . S
C820 C819 1.355 . S
C820 C822 1.419 . S
C821 C816 1.425 . S
C821 C818 1.409 . S
C821 C819 1.415 . S
C822 H812 0.930 . S
C822 C820 1.419 . S
C822 C823 1.362 . S
C823 H813 0.930 . S
C823 C816 1.409 . S
C823 C822 1.362 . S
H824 C830 0.930 . S
H825 C833 0.930 . S
H826 C834 0.930 . S
H827 C835 0.930 . S
H828 C838 0.930 . S
H829 C839 0.930 . S
C830 H824 0.930 . S
C830 C831 1.355 . S
C830 C832 1.415 . S
C831 C830 1.355 . S
C831 C833 1.419 . S
C832 C830 1.415 . S
C832 C837 1.425 . S
C832 C839 1.409 . S
C833 H825 0.930 . S
C833 C831 1.419 . S
C833 C834 1.362 . S
C834 H826 0.930 . S
C834 C833 1.362 . S
C834 C837 1.409 . S
C835 H827 0.930 . S
C835 C836 1.355 . S
C835 C837 1.415 . S
C836 C835 1.355 . S
C836 C838 1.419 . S
C837 C832 1.425 . S
C837 C834 1.409 . S
C837 C835 1.415 . S
C838 H828 0.930 . S
C838 C836 1.419 . S
C838 C839 1.362 . S
C839 H829 0.930 . S
C839 C832 1.409 . S
C839 C838 1.362 . S
H840 C846 0.930 . S
H841 C849 0.930 . S
H842 C850 0.930 . S
H843 C851 0.930 . S
H844 C854 0.930 . S
H845 C855 0.930 . S
C846 H840 0.930 . S
C846 C847 1.355 . S
C846 C848 1.415 . S
C847 C846 1.355 . S
C847 C849 1.419 . S
C848 C846 1.415 . S
C848 C853 1.425 . S
C848 C855 1.409 . S
C849 H841 0.930 . S
C849 C847 1.419 . S
C849 C850 1.362 . S
C850 H842 0.930 . S
C850 C849 1.362 . S
C850 C853 1.409 . S
C851 H843 0.930 . S
C851 C852 1.355 . S
C851 C853 1.415 . S
C852 C851 1.355 . S
C852 C854 1.419 . S
C853 C848 1.425 . S
C853 C850 1.409 . S
C853 C851 1.415 . S
C854 H844 0.930 . S
C854 C852 1.419 . S
C854 C855 1.362 . S
C855 H845 0.930 . S
C855 C848 1.409 . S
C855 C854 1.362 . S
H856 C862 0.930 . S
H857 C865 0.930 . S
H858 C866 0.930 . S
H859 C867 0.930 . S
H860 C870 0.930 . S
H861 C871 0.930 . S
C862 H856 0.930 . S
C862 C863 1.355 . S
C862 C864 1.415 . S
C863 C862 1.355 . S
C863 C865 1.419 . S
C864 C862 1.415 . S
C864 C869 1.425 . S
C864 C871 1.409 1_565 S
C865 H857 0.930 . S
C865 C863 1.419 . S
C865 C866 1.362 . S
C866 H858 0.930 . S
C866 C865 1.362 . S
C866 C869 1.409 . S
C867 H859 0.930 . S
C867 C868 1.355 . S
C867 C869 1.415 1_545 S
C868 C867 1.355 . S
C868 C870 1.419 . S
C869 C864 1.425 . S
C869 C866 1.409 . S
C869 C867 1.415 1_565 S
C870 H860 0.930 . S
C870 C868 1.419 . S
C870 C871 1.362 . S
C871 H861 0.930 . S
C871 C864 1.409 1_545 S
C871 C870 1.362 . S
H872 C878 0.930 . S
H873 C881 0.930 . S
H874 C882 0.930 . S
H875 C883 0.930 . S
H876 C886 0.930 . S
H877 C887 0.930 . S
C878 H872 0.930 . S
C878 C879 1.355 . S
C878 C880 1.415 . S
C879 C878 1.355 . S
C879 C881 1.419 . S
C880 C878 1.415 . S
C880 C885 1.425 . S
C880 C887 1.409 . S
C881 H873 0.930 . S
C881 C879 1.419 . S
C881 C882 1.362 . S
C882 H874 0.930 . S
C882 C881 1.362 . S
C882 C885 1.409 . S
C883 H875 0.930 . S
C883 C884 1.355 . S
C883 C885 1.415 . S
C884 C883 1.355 . S
C884 C886 1.419 . S
C885 C880 1.425 . S
C885 C882 1.409 . S
C885 C883 1.415 . S
C886 H876 0.930 . S
C886 C884 1.419 . S
C886 C887 1.362 . S
C887 H877 0.930 . S
C887 C880 1.409 . S
C887 C886 1.362 . S
H888 C894 0.930 . S
H889 C897 0.930 . S
H890 C898 0.930 . S
H891 C899 0.930 . S
H892 C902 0.930 . S
H893 C903 0.930 . S
C894 H888 0.930 . S
C894 C895 1.355 . S
C894 C896 1.415 . S
C895 C894 1.355 . S
C895 C897 1.419 . S
C896 C894 1.415 . S
C896 C901 1.425 . S
C896 C903 1.409 . S
C897 H889 0.930 . S
C897 C895 1.419 . S
C897 C898 1.362 . S
C898 H890 0.930 . S
C898 C897 1.362 . S
C898 C901 1.409 . S
C899 H891 0.930 . S
C899 C900 1.355 . S
C899 C901 1.415 . S
C900 C899 1.355 . S
C900 C902 1.419 . S
C901 C896 1.425 . S
C901 C898 1.409 . S
C901 C899 1.415 . S
C902 H892 0.930 . S
C902 C900 1.419 . S
C902 C903 1.362 . S
C903 H893 0.930 . S
C903 C896 1.409 . S
C903 C902 1.362 . S
H904 C910 0.930 . S
H905 C913 0.930 . S
H906 C914 0.930 . S
H907 C915 0.930 . S
H908 C918 0.930 . S
H909 C919 0.930 . S
C910 H904 0.930 . S
C910 C911 1.355 . S
C910 C912 1.415 . S
C911 C910 1.355 . S
C911 C913 1.419 . S
C912 C910 1.415 . S
C912 C917 1.425 . S
C912 C919 1.409 . S
C913 H905 0.930 . S
C913 C911 1.419 . S
C913 C914 1.362 . S
C914 H906 0.930 . S
C914 C913 1.362 . S
C914 C917 1.409 . S
C915 H907 0.930 . S
C915 C916 1.355 . S
C915 C917 1.415 . S
C916 C915 1.355 . S
C916 C918 1.419 . S
C917 C912 1.425 . S
C917 C914 1.409 . S
C917 C915 1.415 . S
C918 H908 0.930 . S
C918 C916 1.419 . S
C918 C919 1.362 . S
C919 H909 0.930 . S
C919 C912 1.409 . S
C919 C918 1.362 . S
H920 C926 0.930 . S
H921 C929 0.930 . S
H922 C930 0.930 . S
H923 C931 0.930 . S
H924 C934 0.930 . S
H925 C935 0.930 . S
C926 H920 0.930 . S
C926 C927 1.355 . S
C926 C928 1.415 . S
C927 C926 1.355 . S
C927 C929 1.419 . S
C928 C926 1.415 . S
C928 C933 1.425 . S
C928 C935 1.409 . S
C929 H921 0.930 . S
C929 C927 1.419 . S
C929 C930 1.362 . S
C930 H922 0.930 . S
C930 C929 1.362 . S
C930 C933 1.409 . S
C931 H923 0.930 . S
C931 C932 1.355 . S
C931 C933 1.415 . S
C932 C931 1.355 . S
C932 C934 1.419 . S
C933 C928 1.425 . S
C933 C930 1.409 . S
C933 C931 1.415 . S
C934 H924 0.930 . S
C934 C932 1.419 . S
C934 C935 1.362 . S
C935 H925 0.930 . S
C935 C928 1.409 . S
C935 C934 1.362 . S
H936 C942 0.930 . S
H937 C945 0.930 . S
H938 C946 0.930 . S
H939 C947 0.930 . S
H940 C950 0.930 . S
H941 C951 0.918 . S
C942 H936 0.930 . S
C942 C943 1.355 . S
C942 C944 1.415 . S
C943 C942 1.355 . S
C943 C945 1.419 . S
C944 C942 1.415 . S
C944 C949 1.425 . S
C944 C951 1.409 . S
C945 H937 0.930 . S
C945 C943 1.419 . S
C945 C946 1.362 . S
C946 H938 0.930 . S
C946 C945 1.362 . S
C946 C949 1.409 . S
C947 H939 0.930 . S
C947 C948 1.355 1_565 S
C947 C949 1.415 . S
C948 C947 1.355 1_545 S
C948 C950 1.419 . S
C949 C944 1.425 . S
C949 C946 1.409 . S
C949 C947 1.415 . S
C950 H940 0.930 . S
C950 C948 1.419 . S
C950 C951 1.362 1_545 S
C951 H941 0.918 . S
C951 C944 1.409 . S
C951 C950 1.362 1_565 S
H952 C958 0.930 . S
H953 C961 0.930 . S
H954 C962 0.930 . S
H955 C963 0.930 . S
H956 C966 0.930 . S
H957 C967 0.930 . S
C958 H952 0.930 . S
C958 C959 1.355 . S
C958 C960 1.415 . S
C959 C958 1.355 . S
C959 C961 1.419 . S
C960 C958 1.415 . S
C960 C965 1.425 . S
C960 C967 1.409 . S
C961 H953 0.930 . S
C961 C959 1.419 . S
C961 C962 1.362 . S
C962 H954 0.930 . S
C962 C961 1.362 . S
C962 C965 1.409 . S
C963 H955 0.930 . S
C963 C964 1.355 . S
C963 C965 1.415 . S
C964 C963 1.355 . S
C964 C966 1.419 . S
C965 C960 1.425 . S
C965 C962 1.409 . S
C965 C963 1.415 . S
C966 H956 0.930 . S
C966 C964 1.419 . S
C966 C967 1.362 . S
C967 H957 0.930 . S
C967 C960 1.409 . S
C967 C966 1.362 . S
H968 C974 0.930 . S
H969 C977 0.930 . S
H970 C978 0.930 . S
H971 C979 0.930 . S
H972 C982 0.930 . S
H973 C983 0.930 . S
C974 H968 0.930 . S
C974 C975 1.355 . S
C974 C976 1.415 . S
C975 C974 1.355 . S
C975 C977 1.419 . S
C976 C974 1.415 . S
C976 C981 1.425 . S
C976 C983 1.409 . S
C977 H969 0.930 . S
C977 C975 1.419 . S
C977 C978 1.362 . S
C978 H970 0.930 . S
C978 C977 1.362 . S
C978 C981 1.409 . S
C979 H971 0.930 . S
C979 C980 1.355 . S
C979 C981 1.415 . S
C980 C979 1.355 . S
C980 C982 1.419 . S
C981 C976 1.425 . S
C981 C978 1.409 . S
C981 C979 1.415 . S
C982 H972 0.930 . S
C982 C980 1.419 . S
C982 C983 1.362 . S
C983 H973 0.930 . S
C983 C976 1.409 . S
C983 C982 1.362 . S
H984 C990 0.930 . S
H985 C993 0.930 . S
H986 C994 0.930 . S
H987 C995 0.930 . S
H988 C998 0.930 . S
H989 C999 0.930 . S
C990 H984 0.930 . S
C990 C991 1.355 . S
C990 C992 1.415 . S
C991 C990 1.355 . S
C991 C993 1.419 . S
C992 C990 1.415 . S
C992 C997 1.425 . S
C992 C999 1.409 . S
C993 H985 0.930 . S
C993 C991 1.419 . S
C993 C994 1.362 . S
C994 H986 0.930 . S
C994 C993 1.362 . S
C994 C997 1.409 . S
C995 H987 0.930 . S
C995 C996 1.355 . S
C995 C997 1.415 . S
C996 C995 1.355 . S
C996 C998 1.419 . S
C997 C992 1.425 . S
C997 C994 1.409 . S
C997 C995 1.415 . S
C998 H988 0.930 . S
C998 C996 1.419 . S
C998 C999 1.362 . S
C999 H989 0.930 . S
C999 C992 1.409 . S
C999 C998 1.362 . S
H1000 C1006 0.930 . S
H1001 C1009 0.930 . S
H1002 C1010 0.930 . S
H1003 C1011 0.930 . S
H1004 C1014 0.930 . S
H1005 C1015 0.930 . S
C1006 H1000 0.930 . S
C1006 C1007 1.355 . S
C1006 C1008 1.415 1_565 S
C1007 C1006 1.355 . S
C1007 C1009 1.419 . S
C1008 C1006 1.415 1_545 S
C1008 C1013 1.425 . S
C1008 C1015 1.409 . S
C1009 H1001 0.930 . S
C1009 C1007 1.419 . S
C1009 C1010 1.362 . S
C1010 H1002 0.930 . S
C1010 C1009 1.362 . S
C1010 C1013 1.409 1_565 S
C1011 H1003 0.930 . S
C1011 C1012 1.355 . S
C1011 C1013 1.415 . S
C1012 C1011 1.355 . S
C1012 C1014 1.419 . S
C1013 C1008 1.425 . S
C1013 C1010 1.409 1_545 S
C1013 C1011 1.415 . S
C1014 H1004 0.930 . S
C1014 C1012 1.419 . S
C1014 C1015 1.362 . S
C1015 H1005 0.930 . S
C1015 C1008 1.409 . S
C1015 C1014 1.362 . S
H1016 C1022 0.930 . S
H1017 C1025 0.930 . S
H1018 C1026 0.930 . S
H1019 C1027 0.930 . S
H1020 C1030 0.930 . S
H1021 C1031 0.930 . S
C1022 H1016 0.930 . S
C1022 C1023 1.355 . S
C1022 C1024 1.415 . S
C1023 C1022 1.355 . S
C1023 C1025 1.419 . S
C1024 C1022 1.415 . S
C1024 C1029 1.425 . S
C1024 C1031 1.409 . S
C1025 H1017 0.930 . S
C1025 C1023 1.419 . S
C1025 C1026 1.362 . S
C1026 H1018 0.930 . S
C1026 C1025 1.362 . S
C1026 C1029 1.409 . S
C1027 H1019 0.930 . S
C1027 C1028 1.355 . S
C1027 C1029 1.415 . S
C1028 C1027 1.355 . S
C1028 C1030 1.419 . S
C1029 C1024 1.425 . S
C1029 C1026 1.409 . S
C1029 C1027 1.415 . S
C1030 H1020 0.930 . S
C1030 C1028 1.419 . S
C1030 C1031 1.362 . S
C1031 H1021 0.930 . S
C1031 C1024 1.409 . S
C1031 C1030 1.362 . S
H1032 C1038 0.930 . S
H1033 C1041 0.930 . S
H1034 C1042 0.930 . S
H1035 C1043 0.930 . S
H1036 C1046 0.930 . S
H1037 C1047 0.930 . S
C1038 H1032 0.930 . S
C1038 C1039 1.355 . S
C1038 C1040 1.415 . S
C1039 C1038 1.355 . S
C1039 C1041 1.419 . S
C1040 C1038 1.415 . S
C1040 C1045 1.425 . S
C1040 C1047 1.409 . S
C1041 H1033 0.930 . S
C1041 C1039 1.419 . S
C1041 C1042 1.362 . S
C1042 H1034 0.930 . S
C1042 C1041 1.362 . S
C1042 C1045 1.409 . S
C1043 H1035 0.930 . S
C1043 C1044 1.355 . S
C1043 C1045 1.415 . S
C1044 C1043 1.355 . S
C1044 C1046 1.419 . S
C1045 C1040 1.425 . S
C1045 C1042 1.409 . S
C1045 C1043 1.415 . S
C1046 H1036 0.930 . S
C1046 C1044 1.419 . S
C1046 C1047 1.362 . S
C1047 H1037 0.930 . S
C1047 C1040 1.409 . S
C1047 C1046 1.362 . S
H1048 C1054 0.930 . S
H1049 C1057 0.930 . S
H1050 C1058 0.930 . S
H1051 C1059 0.930 . S
H1052 C1062 0.930 . S
H1053 C1063 0.948 . S
C1054 H1048 0.930 . S
C1054 C1055 1.355 . S
C1054 C1056 1.415 . S
C1055 C1054 1.355 . S
C1055 C1057 1.419 . S
C1056 C1054 1.415 . S
C1056 C1061 1.425 . S
C1056 C1063 1.409 . S
C1057 H1049 0.930 . S
C1057 C1055 1.419 . S
C1057 C1058 1.362 . S
C1058 H1050 0.930 . S
C1058 C1057 1.362 . S
C1058 C1061 1.409 . S
C1059 H1051 0.930 . S
C1059 C1060 1.355 . S
C1059 C1061 1.415 . S
C1060 C1059 1.355 . S
C1060 C1062 1.419 1_655 S
C1061 C1056 1.425 . S
C1061 C1058 1.409 . S
C1061 C1059 1.415 . S
C1062 H1052 0.930 . S
C1062 C1060 1.419 1_455 S
C1062 C1063 1.362 1_455 S
C1063 H1053 0.948 . S
C1063 C1056 1.409 . S
C1063 C1062 1.362 1_655 S
H1064 C1070 0.930 . S
H1065 C1073 0.930 . S
H1066 C1074 0.930 . S
H1067 C1075 0.930 . S
H1068 C1078 0.930 . S
H1069 C1079 0.930 . S
C1070 H1064 0.930 . S
C1070 C1071 1.355 . S
C1070 C1072 1.415 . S
C1071 C1070 1.355 . S
C1071 C1073 1.419 . S
C1072 C1070 1.415 . S
C1072 C1077 1.425 . S
C1072 C1079 1.409 . S
C1073 H1065 0.930 . S
C1073 C1071 1.419 . S
C1073 C1074 1.362 . S
C1074 H1066 0.930 . S
C1074 C1073 1.362 . S
C1074 C1077 1.409 . S
C1075 H1067 0.930 . S
C1075 C1076 1.355 . S
C1075 C1077 1.415 . S
C1076 C1075 1.355 . S
C1076 C1078 1.419 . S
C1077 C1072 1.425 . S
C1077 C1074 1.409 . S
C1077 C1075 1.415 . S
C1078 H1068 0.930 . S
C1078 C1076 1.419 . S
C1078 C1079 1.362 . S
C1079 H1069 0.930 . S
C1079 C1072 1.409 . S
C1079 C1078 1.362 . S
H1080 C1086 0.930 . S
H1081 C1089 0.930 . S
H1082 C1090 0.930 . S
H1083 C1091 0.930 . S
H1084 C1094 0.930 . S
H1085 C1095 0.930 . S
C1086 H1080 0.930 . S
C1086 C1087 1.355 . S
C1086 C1088 1.415 . S
C1087 C1086 1.355 . S
C1087 C1089 1.419 . S
C1088 C1086 1.415 . S
C1088 C1093 1.425 . S
C1088 C1095 1.409 . S
C1089 H1081 0.930 . S
C1089 C1087 1.419 . S
C1089 C1090 1.362 . S
C1090 H1082 0.930 . S
C1090 C1089 1.362 . S
C1090 C1093 1.409 . S
C1091 H1083 0.930 . S
C1091 C1092 1.355 . S
C1091 C1093 1.415 . S
C1092 C1091 1.355 . S
C1092 C1094 1.419 . S
C1093 C1088 1.425 . S
C1093 C1090 1.409 . S
C1093 C1091 1.415 . S
C1094 H1084 0.930 . S
C1094 C1092 1.419 . S
C1094 C1095 1.362 . S
C1095 H1085 0.930 . S
C1095 C1088 1.409 . S
C1095 C1094 1.362 . S
H1096 C1102 0.930 . S
H1097 C1105 0.930 . S
H1098 C1106 0.930 . S
H1099 C1107 0.930 . S
H1100 C1110 0.930 . S
H1101 C1111 0.930 . S
C1102 H1096 0.930 . S
C1102 C1103 1.355 . S
C1102 C1104 1.415 . S
C1103 C1102 1.355 . S
C1103 C1105 1.419 . S
C1104 C1102 1.415 . S
C1104 C1109 1.425 . S
C1104 C1111 1.409 . S
C1105 H1097 0.930 . S
C1105 C1103 1.419 . S
C1105 C1106 1.362 . S
C1106 H1098 0.930 . S
C1106 C1105 1.362 . S
C1106 C1109 1.409 . S
C1107 H1099 0.930 . S
C1107 C1108 1.355 . S
C1107 C1109 1.415 . S
C1108 C1107 1.355 . S
C1108 C1110 1.419 . S
C1109 C1104 1.425 . S
C1109 C1106 1.409 . S
C1109 C1107 1.415 . S
C1110 H1100 0.930 . S
C1110 C1108 1.419 . S
C1110 C1111 1.362 . S
C1111 H1101 0.930 . S
C1111 C1104 1.409 . S
C1111 C1110 1.362 . S
H1112 C1118 0.930 . S
H1113 C1121 0.930 . S
H1114 C1122 0.930 . S
H1115 C1123 0.930 . S
H1116 C1126 0.930 . S
H1117 C1127 0.930 . S
C1118 H1112 0.930 . S
C1118 C1119 1.355 . S
C1118 C1120 1.415 . S
C1119 C1118 1.355 . S
C1119 C1121 1.419 . S
C1120 C1118 1.415 . S
C1120 C1125 1.425 . S
C1120 C1127 1.409 . S
C1121 H1113 0.930 . S
C1121 C1119 1.419 . S
C1121 C1122 1.362 . S
C1122 H1114 0.930 . S
C1122 C1121 1.362 . S
C1122 C1125 1.409 . S
C1123 H1115 0.930 . S
C1123 C1124 1.355 . S
C1123 C1125 1.415 . S
C1124 C1123 1.355 . S
C1124 C1126 1.419 . S
C1125 C1120 1.425 . S
C1125 C1122 1.409 . S
C1125 C1123 1.415 . S
C1126 H1116 0.930 . S
C1126 C1124 1.419 . S
C1126 C1127 1.362 . S
C1127 H1117 0.930 . S
C1127 C1120 1.409 . S
C1127 C1126 1.362 . S
H1128 C1134 0.930 . S
H1129 C1137 0.930 . S
H1130 C1138 0.930 . S
H1131 C1139 0.930 . S
H1132 C1142 0.930 . S
H1133 C1143 0.930 . S
C1134 H1128 0.930 . S
C1134 C1135 1.355 . S
C1134 C1136 1.415 . S
C1135 C1134 1.355 . S
C1135 C1137 1.419 . S
C1136 C1134 1.415 . S
C1136 C1141 1.425 . S
C1136 C1143 1.409 . S
C1137 H1129 0.930 . S
C1137 C1135 1.419 . S
C1137 C1138 1.362 . S
C1138 H1130 0.930 . S
C1138 C1137 1.362 . S
C1138 C1141 1.409 . S
C1139 H1131 0.930 . S
C1139 C1140 1.355 . S
C1139 C1141 1.415 . S
C1140 C1139 1.355 . S
C1140 C1142 1.419 . S
C1141 C1136 1.425 . S
C1141 C1138 1.409 . S
C1141 C1139 1.415 . S
C1142 H1132 0.930 . S
C1142 C1140 1.419 . S
C1142 C1143 1.362 . S
C1143 H1133 0.930 . S
C1143 C1136 1.409 . S
C1143 C1142 1.362 . S
H1144 C1150 0.930 . S
H1145 C1153 0.930 . S
H1146 C1154 0.930 . S
H1147 C1155 0.930 . S
H1148 C1158 0.930 . S
H1149 C1159 0.930 . S
C1150 H1144 0.930 . S
C1150 C1151 1.355 . S
C1150 C1152 1.415 . S
C1151 C1150 1.355 . S
C1151 C1153 1.419 . S
C1152 C1150 1.415 . S
C1152 C1157 1.425 . S
C1152 C1159 1.409 . S
C1153 H1145 0.930 . S
C1153 C1151 1.419 . S
C1153 C1154 1.362 . S
C1154 H1146 0.930 . S
C1154 C1153 1.362 . S
C1154 C1157 1.409 . S
C1155 H1147 0.930 . S
C1155 C1156 1.355 . S
C1155 C1157 1.415 . S
C1156 C1155 1.355 . S
C1156 C1158 1.419 . S
C1157 C1152 1.425 . S
C1157 C1154 1.409 . S
C1157 C1155 1.415 . S
C1158 H1148 0.930 . S
C1158 C1156 1.419 . S
C1158 C1159 1.362 . S
C1159 H1149 0.930 . S
C1159 C1152 1.409 . S
C1159 C1158 1.362 . S
H1160 C1166 0.930 . S
H1161 C1169 0.930 . S
H1162 C1170 0.930 . S
H1163 C1171 0.933 1_655 S
H1164 C1174 0.930 . S
H1165 C1175 0.930 . S
C1166 H1160 0.930 . S
C1166 C1167 1.355 . S
C1166 C1168 1.415 . S
C1167 C1166 1.355 . S
C1167 C1169 1.419 . S
C1168 C1166 1.415 . S
C1168 C1173 1.425 . S
C1168 C1175 1.409 1_655 S
C1169 H1161 0.930 . S
C1169 C1167 1.419 . S
C1169 C1170 1.362 . S
C1170 H1162 0.930 . S
C1170 C1169 1.362 . S
C1170 C1173 1.409 . S
C1171 H1163 0.933 1_455 S
C1171 C1172 1.355 . S
C1171 C1173 1.415 1_455 S
C1172 C1171 1.355 . S
C1172 C1174 1.419 . S
C1173 C1168 1.425 . S
C1173 C1170 1.409 . S
C1173 C1171 1.415 1_655 S
C1174 H1164 0.930 . S
C1174 C1172 1.419 . S
C1174 C1175 1.362 . S
C1175 H1165 0.930 . S
C1175 C1168 1.409 1_455 S
C1175 C1174 1.362 . S
H1176 C1182 0.930 . S
H1177 C1185 0.930 . S
H1178 C1186 0.930 . S
H1179 C1187 0.930 . S
H1180 C1190 0.930 . S
H1181 C1191 0.930 . S
C1182 H1176 0.930 . S
C1182 C1183 1.355 . S
C1182 C1184 1.415 . S
C1183 C1182 1.355 . S
C1183 C1185 1.419 . S
C1184 C1182 1.415 . S
C1184 C1189 1.425 . S
C1184 C1191 1.409 . S
C1185 H1177 0.930 . S
C1185 C1183 1.419 . S
C1185 C1186 1.362 . S
C1186 H1178 0.930 . S
C1186 C1185 1.362 . S
C1186 C1189 1.409 . S
C1187 H1179 0.930 . S
C1187 C1188 1.355 . S
C1187 C1189 1.415 . S
C1188 C1187 1.355 . S
C1188 C1190 1.419 . S
C1189 C1184 1.425 . S
C1189 C1186 1.409 . S
C1189 C1187 1.415 . S
C1190 H1180 0.930 . S
C1190 C1188 1.419 . S
C1190 C1191 1.362 . S
C1191 H1181 0.930 . S
C1191 C1184 1.409 . S
C1191 C1190 1.362 . S
H1192 C1198 0.930 . S
H1193 C1201 0.930 . S
H1194 C1202 0.930 . S
H1195 C1203 0.930 . S
H1196 C1206 0.930 . S
H1197 C1207 0.930 . S
C1198 H1192 0.930 . S
C1198 C1199 1.355 . S
C1198 C1200 1.415 . S
C1199 C1198 1.355 . S
C1199 C1201 1.419 . S
C1200 C1198 1.415 . S
C1200 C1205 1.425 . S
C1200 C1207 1.409 . S
C1201 H1193 0.930 . S
C1201 C1199 1.419 . S
C1201 C1202 1.362 . S
C1202 H1194 0.930 . S
C1202 C1201 1.362 . S
C1202 C1205 1.409 . S
C1203 H1195 0.930 . S
C1203 C1204 1.355 . S
C1203 C1205 1.415 . S
C1204 C1203 1.355 . S
C1204 C1206 1.419 . S
C1205 C1200 1.425 . S
C1205 C1202 1.409 . S
C1205 C1203 1.415 . S
C1206 H1196 0.930 . S
C1206 C1204 1.419 . S
C1206 C1207 1.362 . S
C1207 H1197 0.930 . S
C1207 C1200 1.409 . S
C1207 C1206 1.362 . S
H1208 C1214 0.930 . S
H1209 C1217 0.930 . S
H1210 C1218 0.930 . S
H1211 C1219 0.930 . S
H1212 C1222 0.930 . S
H1213 C1223 0.930 . S
C1214 H1208 0.930 . S
C1214 C1215 1.355 . S
C1214 C1216 1.415 . S
C1215 C1214 1.355 . S
C1215 C1217 1.419 . S
C1216 C1214 1.415 . S
C1216 C1221 1.425 . S
C1216 C1223 1.409 . S
C1217 H1209 0.930 . S
C1217 C1215 1.419 . S
C1217 C1218 1.362 . S
C1218 H1210 0.930 . S
C1218 C1217 1.362 . S
C1218 C1221 1.409 . S
C1219 H1211 0.930 . S
C1219 C1220 1.355 . S
C1219 C1221 1.415 . S
C1220 C1219 1.355 . S
C1220 C1222 1.419 . S
C1221 C1216 1.425 . S
C1221 C1218 1.409 . S
C1221 C1219 1.415 . S
C1222 H1212 0.930 . S
C1222 C1220 1.419 . S
C1222 C1223 1.362 . S
C1223 H1213 0.930 . S
C1223 C1216 1.409 . S
C1223 C1222 1.362 . S
H1224 C1230 0.930 . S
H1225 C1233 0.930 1_655 S
H1226 C1234 0.930 . S
H1227 C1235 0.930 . S
H1228 C1238 0.930 . S
H1229 C1239 0.930 . S
C1230 H1224 0.930 . S
C1230 C1231 1.355 . S
C1230 C1232 1.415 . S
C1231 C1230 1.355 . S
C1231 C1233 1.419 . S
C1232 C1230 1.415 . S
C1232 C1237 1.425 . S
C1232 C1239 1.409 . S
C1233 H1225 0.930 1_455 S
C1233 C1231 1.419 . S
C1233 C1234 1.362 . S
C1234 H1226 0.930 . S
C1234 C1233 1.362 . S
C1234 C1237 1.409 . S
C1235 H1227 0.930 . S
C1235 C1236 1.355 . S
C1235 C1237 1.415 . S
C1236 C1235 1.355 . S
C1236 C1238 1.419 . S
C1237 C1232 1.425 . S
C1237 C1234 1.409 . S
C1237 C1235 1.415 . S
C1238 H1228 0.930 . S
C1238 C1236 1.419 . S
C1238 C1239 1.362 . S
C1239 H1229 0.930 . S
C1239 C1232 1.409 . S
C1239 C1238 1.362 . S
H1240 C1246 0.930 . S
H1241 C1249 0.930 . S
H1242 C1250 0.930 . S
H1243 C1251 0.930 . S
H1244 C1254 0.930 . S
H1245 C1255 0.930 . S
C1246 H1240 0.930 . S
C1246 C1247 1.355 . S
C1246 C1248 1.415 . S
C1247 C1246 1.355 . S
C1247 C1249 1.419 . S
C1248 C1246 1.415 . S
C1248 C1253 1.425 . S
C1248 C1255 1.409 . S
C1249 H1241 0.930 . S
C1249 C1247 1.419 . S
C1249 C1250 1.362 . S
C1250 H1242 0.930 . S
C1250 C1249 1.362 . S
C1250 C1253 1.409 . S
C1251 H1243 0.930 . S
C1251 C1252 1.355 . S
C1251 C1253 1.415 . S
C1252 C1251 1.355 . S
C1252 C1254 1.419 . S
C1253 C1248 1.425 . S
C1253 C1250 1.409 . S
C1253 C1251 1.415 . S
C1254 H1244 0.930 . S
C1254 C1252 1.419 . S
C1254 C1255 1.362 . S
C1255 H1245 0.930 . S
C1255 C1248 1.409 . S
C1255 C1254 1.362 . S
H1256 C1262 0.930 . S
H1257 C1265 0.930 . S
H1258 C1266 0.930 . S
H1259 C1267 0.930 . S
H1260 C1270 0.930 . S
H1261 C1271 0.930 . S
C1262 H1256 0.930 . S
C1262 C1263 1.355 . S
C1262 C1264 1.415 . S
C1263 C1262 1.355 . S
C1263 C1265 1.419 . S
C1264 C1262 1.415 . S
C1264 C1269 1.425 . S
C1264 C1271 1.409 . S
C1265 H1257 0.930 . S
C1265 C1263 1.419 . S
C1265 C1266 1.362 . S
C1266 H1258 0.930 . S
C1266 C1265 1.362 . S
C1266 C1269 1.409 . S
C1267 H1259 0.930 . S
C1267 C1268 1.355 . S
C1267 C1269 1.415 . S
C1268 C1267 1.355 . S
C1268 C1270 1.419 . S
C1269 C1264 1.425 . S
C1269 C1266 1.409 . S
C1269 C1267 1.415 . S
C1270 H1260 0.930 . S
C1270 C1268 1.419 . S
C1270 C1271 1.362 . S
C1271 H1261 0.930 . S
C1271 C1264 1.409 . S
C1271 C1270 1.362 . S
H1272 C1278 0.930 . S
H1273 C1281 0.930 . S
H1274 C1282 0.930 . S
H1275 C1283 0.930 . S
H1276 C1286 0.930 . S
H1277 C1287 0.930 . S
C1278 H1272 0.930 . S
C1278 C1279 1.355 . S
C1278 C1280 1.415 . S
C1279 C1278 1.355 . S
C1279 C1281 1.419 . S
C1280 C1278 1.415 . S
C1280 C1285 1.425 . S
C1280 C1287 1.409 . S
C1281 H1273 0.930 . S
C1281 C1279 1.419 . S
C1281 C1282 1.362 . S
C1282 H1274 0.930 . S
C1282 C1281 1.362 . S
C1282 C1285 1.409 . S
C1283 H1275 0.930 . S
C1283 C1284 1.355 . S
C1283 C1285 1.415 . S
C1284 C1283 1.355 . S
C1284 C1286 1.419 . S
C1285 C1280 1.425 . S
C1285 C1282 1.409 . S
C1285 C1283 1.415 . S
C1286 H1276 0.930 . S
C1286 C1284 1.419 . S
C1286 C1287 1.362 . S
C1287 H1277 0.930 . S
C1287 C1280 1.409 . S
C1287 C1286 1.362 . S
H1288 C1294 0.930 . S
H1289 C1297 0.930 . S
H1290 C1298 0.930 . S
H1291 C1299 0.930 . S
H1292 C1302 0.930 . S
H1293 C1303 0.930 . S
C1294 H1288 0.930 . S
C1294 C1295 1.355 . S
C1294 C1296 1.415 . S
C1295 C1294 1.355 . S
C1295 C1297 1.419 . S
C1296 C1294 1.415 . S
C1296 C1301 1.425 . S
C1296 C1303 1.409 . S
C1297 H1289 0.930 . S
C1297 C1295 1.419 . S
C1297 C1298 1.362 . S
C1298 H1290 0.930 . S
C1298 C1297 1.362 . S
C1298 C1301 1.409 . S
C1299 H1291 0.930 . S
C1299 C1300 1.355 . S
C1299 C1301 1.415 . S
C1300 C1299 1.355 . S
C1300 C1302 1.419 . S
C1301 C1296 1.425 . S
C1301 C1298 1.409 . S
C1301 C1299 1.415 . S
C1302 H1292 0.930 . S
C1302 C1300 1.419 . S
C1302 C1303 1.362 . S
C1303 H1293 0.930 . S
C1303 C1296 1.409 . S
C1303 C1302 1.362 . S
H1304 C1310 0.930 . S
H1305 C1313 0.930 . S
H1306 C1314 0.930 . S
H1307 C1315 0.930 . S
H1308 C1318 0.930 . S
H1309 C1319 0.930 . S
C1310 H1304 0.930 . S
C1310 C1311 1.355 . S
C1310 C1312 1.415 . S
C1311 C1310 1.355 . S
C1311 C1313 1.419 . S
C1312 C1310 1.415 . S
C1312 C1317 1.425 . S
C1312 C1319 1.409 . S
C1313 H1305 0.930 . S
C1313 C1311 1.419 . S
C1313 C1314 1.362 . S
C1314 H1306 0.930 . S
C1314 C1313 1.362 . S
C1314 C1317 1.409 . S
C1315 H1307 0.930 . S
C1315 C1316 1.355 . S
C1315 C1317 1.415 . S
C1316 C1315 1.355 . S
C1316 C1318 1.419 . S
C1317 C1312 1.425 . S
C1317 C1314 1.409 . S
C1317 C1315 1.415 . S
C1318 H1308 0.930 . S
C1318 C1316 1.419 . S
C1318 C1319 1.362 . S
C1319 H1309 0.930 . S
C1319 C1312 1.409 . S
C1319 C1318 1.362 . S
H1320 C1326 0.930 . S
H1321 C1329 0.928 1_655 S
H1322 C1330 0.930 . S
H1323 C1331 0.930 . S
H1324 C1334 0.930 . S
H1325 C1335 0.930 . S
C1326 H1320 0.930 . S
C1326 C1327 1.355 . S
C1326 C1328 1.415 . S
C1327 C1326 1.355 . S
C1327 C1329 1.419 . S
C1328 C1326 1.415 . S
C1328 C1333 1.425 . S
C1328 C1335 1.409 . S
C1329 H1321 0.928 1_455 S
C1329 C1327 1.419 . S
C1329 C1330 1.362 . S
C1330 H1322 0.930 . S
C1330 C1329 1.362 . S
C1330 C1333 1.409 . S
C1331 H1323 0.930 . S
C1331 C1332 1.355 . S
C1331 C1333 1.415 . S
C1332 C1331 1.355 . S
C1332 C1334 1.419 . S
C1333 C1328 1.425 . S
C1333 C1330 1.409 . S
C1333 C1331 1.415 . S
C1334 H1324 0.930 . S
C1334 C1332 1.419 . S
C1334 C1335 1.362 . S
C1335 H1325 0.930 . S
C1335 C1328 1.409 . S
C1335 C1334 1.362 . S
H1336 C1342 0.930 . S
H1337 C1345 0.930 . S
H1338 C1346 0.930 . S
H1339 C1347 0.930 . S
H1340 C1350 0.930 . S
H1341 C1351 0.930 . S
C1342 H1336 0.930 . S
C1342 C1343 1.355 . S
C1342 C1344 1.415 . S
C1343 C1342 1.355 . S
C1343 C1345 1.419 . S
C1344 C1342 1.415 . S
C1344 C1349 1.425 . S
C1344 C1351 1.409 . S
C1345 H1337 0.930 . S
C1345 C1343 1.419 . S
C1345 C1346 1.362 . S
C1346 H1338 0.930 . S
C1346 C1345 1.362 . S
C1346 C1349 1.409 . S
C1347 H1339 0.930 . S
C1347 C1348 1.355 . S
C1347 C1349 1.415 . S
C1348 C1347 1.355 . S
C1348 C1350 1.419 . S
C1349 C1344 1.425 . S
C1349 C1346 1.409 . S
C1349 C1347 1.415 . S
C1350 H1340 0.930 . S
C1350 C1348 1.419 . S
C1350 C1351 1.362 . S
C1351 H1341 0.930 . S
C1351 C1344 1.409 . S
C1351 C1350 1.362 . S
H1352 C1358 0.930 . S
H1353 C1361 0.930 . S
H1354 C1362 0.930 . S
H1355 C1363 0.930 . S
H1356 C1366 0.930 . S
H1357 C1367 0.930 . S
C1358 H1352 0.930 . S
C1358 C1359 1.355 . S
C1358 C1360 1.415 . S
C1359 C1358 1.355 . S
C1359 C1361 1.419 . S
C1360 C1358 1.415 . S
C1360 C1365 1.425 . S
C1360 C1367 1.409 . S
C1361 H1353 0.930 . S
C1361 C1359 1.419 . S
C1361 C1362 1.362 . S
C1362 H1354 0.930 . S
C1362 C1361 1.362 . S
C1362 C1365 1.409 . S
C1363 H1355 0.930 . S
C1363 C1364 1.355 . S
C1363 C1365 1.415 . S
C1364 C1363 1.355 . S
C1364 C1366 1.419 . S
C1365 C1360 1.425 . S
C1365 C1362 1.409 . S
C1365 C1363 1.415 . S
C1366 H1356 0.930 . S
C1366 C1364 1.419 . S
C1366 C1367 1.362 . S
C1367 H1357 0.930 . S
C1367 C1360 1.409 . S
C1367 C1366 1.362 . S
H1368 C1374 0.930 . S
H1369 C1377 0.930 . S
H1370 C1378 0.930 . S
H1371 C1379 0.930 . S
H1372 C1382 0.930 . S
H1373 C1383 0.930 . S
C1374 H1368 0.930 . S
C1374 C1375 1.355 . S
C1374 C1376 1.415 . S
C1375 C1374 1.355 . S
C1375 C1377 1.419 . S
C1376 C1374 1.415 . S
C1376 C1381 1.425 . S
C1376 C1383 1.409 . S
C1377 H1369 0.930 . S
C1377 C1375 1.419 . S
C1377 C1378 1.362 . S
C1378 H1370 0.930 . S
C1378 C1377 1.362 . S
C1378 C1381 1.409 . S
C1379 H1371 0.930 . S
C1379 C1380 1.355 . S
C1379 C1381 1.415 . S
C1380 C1379 1.355 . S
C1380 C1382 1.419 . S
C1381 C1376 1.425 . S
C1381 C1378 1.409 . S
C1381 C1379 1.415 . S
C1382 H1372 0.930 . S
C1382 C1380 1.419 . S
C1382 C1383 1.362 . S
C1383 H1373 0.930 . S
C1383 C1376 1.409 . S
C1383 C1382 1.362 . S
H1384 C1390 0.930 . S
H1385 C1393 0.930 . S
H1386 C1394 0.930 . S
H1387 C1395 0.930 . S
H1388 C1398 0.930 . S
H1389 C1399 0.930 . S
C1390 H1384 0.930 . S
C1390 C1391 1.355 . S
C1390 C1392 1.415 . S
C1391 C1390 1.355 . S
C1391 C1393 1.419 . S
C1392 C1390 1.415 . S
C1392 C1397 1.425 . S
C1392 C1399 1.409 . S
C1393 H1385 0.930 . S
C1393 C1391 1.419 . S
C1393 C1394 1.362 . S
C1394 H1386 0.930 . S
C1394 C1393 1.362 . S
C1394 C1397 1.409 . S
C1395 H1387 0.930 . S
C1395 C1396 1.355 . S
C1395 C1397 1.415 . S
C1396 C1395 1.355 . S
C1396 C1398 1.419 . S
C1397 C1392 1.425 . S
C1397 C1394 1.409 . S
C1397 C1395 1.415 . S
C1398 H1388 0.930 . S
C1398 C1396 1.419 . S
C1398 C1399 1.362 . S
C1399 H1389 0.930 . S
C1399 C1392 1.409 . S
C1399 C1398 1.362 . S
H1400 C1406 0.930 . S
H1401 C1409 0.930 . S
H1402 C1410 0.930 . S
H1403 C1411 0.930 . S
H1404 C1414 0.930 . S
H1405 C1415 0.930 . S
C1406 H1400 0.930 . S
C1406 C1407 1.355 . S
C1406 C1408 1.415 . S
C1407 C1406 1.355 . S
C1407 C1409 1.419 . S
C1408 C1406 1.415 . S
C1408 C1413 1.425 . S
C1408 C1415 1.409 . S
C1409 H1401 0.930 . S
C1409 C1407 1.419 . S
C1409 C1410 1.362 . S
C1410 H1402 0.930 . S
C1410 C1409 1.362 . S
C1410 C1413 1.409 . S
C1411 H1403 0.930 . S
C1411 C1412 1.355 . S
C1411 C1413 1.415 . S
C1412 C1411 1.355 . S
C1412 C1414 1.419 . S
C1413 C1408 1.425 . S
C1413 C1410 1.409 . S
C1413 C1411 1.415 . S
C1414 H1404 0.930 . S
C1414 C1412 1.419 . S
C1414 C1415 1.362 . S
C1415 H1405 0.930 . S
C1415 C1408 1.409 . S
C1415 C1414 1.362 . S
H1416 C1422 0.930 . S
H1417 C1425 0.930 . S
H1418 C1426 0.930 . S
H1419 C1427 0.930 . S
H1420 C1430 0.930 . S
H1421 C1431 0.930 . S
C1422 H1416 0.930 . S
C1422 C1423 1.355 . S
C1422 C1424 1.415 . S
C1423 C1422 1.355 . S
C1423 C1425 1.419 . S
C1424 C1422 1.415 . S
C1424 C1429 1.425 . S
C1424 C1431 1.409 . S
C1425 H1417 0.930 . S
C1425 C1423 1.419 . S
C1425 C1426 1.362 . S
C1426 H1418 0.930 . S
C1426 C1425 1.362 . S
C1426 C1429 1.409 . S
C1427 H1419 0.930 . S
C1427 C1428 1.355 . S
C1427 C1429 1.415 . S
C1428 C1427 1.355 . S
C1428 C1430 1.419 . S
C1429 C1424 1.425 . S
C1429 C1426 1.409 . S
C1429 C1427 1.415 . S
C1430 H1420 0.930 . S
C1430 C1428 1.419 . S
C1430 C1431 1.362 . S
C1431 H1421 0.930 . S
C1431 C1424 1.409 . S
C1431 C1430 1.362 . S
H1432 C1438 0.930 . S
H1433 C1441 0.930 . S
H1434 C1442 0.930 . S
H1435 C1443 0.930 . S
H1436 C1446 0.930 . S
H1437 C1447 0.930 . S
C1438 H1432 0.930 . S
C1438 C1439 1.355 . S
C1438 C1440 1.415 . S
C1439 C1438 1.355 . S
C1439 C1441 1.419 . S
C1440 C1438 1.415 . S
C1440 C1445 1.425 . S
C1440 C1447 1.409 . S
C1441 H1433 0.930 . S
C1441 C1439 1.419 . S
C1441 C1442 1.362 . S
C1442 H1434 0.930 . S
C1442 C1441 1.362 . S
C1442 C1445 1.409 . S
C1443 H1435 0.930 . S
C1443 C1444 1.355 . S
C1443 C1445 1.415 . S
C1444 C1443 1.355 . S
C1444 C1446 1.419 . S
C1445 C1440 1.425 . S
C1445 C1442 1.409 . S
C1445 C1443 1.415 . S
C1446 H1436 0.930 . S
C1446 C1444 1.419 . S
C1446 C1447 1.362 . S
C1447 H1437 0.930 . S
C1447 C1440 1.409 . S
C1447 C1446 1.362 . S
H1448 C1454 0.930 . S
H1449 C1457 0.930 . S
H1450 C1458 0.930 . S
H1451 C1459 0.930 . S
H1452 C1462 0.930 . S
H1453 C1463 0.930 . S
C1454 H1448 0.930 . S
C1454 C1455 1.355 . S
C1454 C1456 1.415 . S
C1455 C1454 1.355 . S
C1455 C1457 1.419 . S
C1456 C1454 1.415 . S
C1456 C1461 1.425 . S
C1456 C1463 1.409 . S
C1457 H1449 0.930 . S
C1457 C1455 1.419 . S
C1457 C1458 1.362 . S
C1458 H1450 0.930 . S
C1458 C1457 1.362 . S
C1458 C1461 1.409 . S
C1459 H1451 0.930 . S
C1459 C1460 1.355 . S
C1459 C1461 1.415 . S
C1460 C1459 1.355 . S
C1460 C1462 1.419 . S
C1461 C1456 1.425 . S
C1461 C1458 1.409 . S
C1461 C1459 1.415 . S
C1462 H1452 0.930 . S
C1462 C1460 1.419 . S
C1462 C1463 1.362 . S
C1463 H1453 0.930 . S
C1463 C1456 1.409 . S
C1463 C1462 1.362 . S
H1464 C1470 0.930 . S
H1465 C1473 0.930 . S
H1466 C1474 0.930 . S
H1467 C1475 0.930 . S
H1468 C1478 0.930 . S
H1469 C1479 0.930 1_556 S
C1470 H1464 0.930 . S
C1470 C1471 1.355 . S
C1470 C1472 1.415 . S
C1471 C1470 1.355 . S
C1471 C1473 1.419 . S
C1472 C1470 1.415 . S
C1472 C1477 1.425 1_556 S
C1472 C1479 1.409 1_556 S
C1473 H1465 0.930 . S
C1473 C1471 1.419 . S
C1473 C1474 1.362 1_556 S
C1474 H1466 0.930 . S
C1474 C1473 1.362 1_554 S
C1474 C1477 1.409 . S
C1475 H1467 0.930 . S
C1475 C1476 1.355 . S
C1475 C1477 1.415 . S
C1476 C1475 1.355 . S
C1476 C1478 1.419 . S
C1477 C1472 1.425 1_554 S
C1477 C1474 1.409 . S
C1477 C1475 1.415 . S
C1478 H1468 0.930 . S
C1478 C1476 1.419 . S
C1478 C1479 1.362 . S
C1479 H1469 0.930 1_554 S
C1479 C1472 1.409 1_554 S
C1479 C1478 1.362 . S
H1480 C1486 0.930 . S
H1481 C1489 0.930 . S
H1482 C1490 0.930 . S
H1483 C1491 0.930 . S
H1484 C1494 0.930 . S
H1485 C1495 0.930 . S
C1486 H1480 0.930 . S
C1486 C1487 1.355 . S
C1486 C1488 1.415 . S
C1487 C1486 1.355 . S
C1487 C1489 1.419 . S
C1488 C1486 1.415 . S
C1488 C1493 1.425 . S
C1488 C1495 1.409 . S
C1489 H1481 0.930 . S
C1489 C1487 1.419 . S
C1489 C1490 1.362 . S
C1490 H1482 0.930 . S
C1490 C1489 1.362 . S
C1490 C1493 1.409 . S
C1491 H1483 0.930 . S
C1491 C1492 1.355 . S
C1491 C1493 1.415 1_554 S
C1492 C1491 1.355 . S
C1492 C1494 1.419 1_554 S
C1493 C1488 1.425 . S
C1493 C1490 1.409 . S
C1493 C1491 1.415 1_556 S
C1494 H1484 0.930 . S
C1494 C1492 1.419 1_556 S
C1494 C1495 1.362 . S
C1495 H1485 0.930 . S
C1495 C1488 1.409 . S
C1495 C1494 1.362 . S
H1496 C1502 0.930 . S
H1497 C1505 0.930 . S
H1498 C1506 0.930 1_554 S
H1499 C1507 0.930 . S
H1500 C1510 0.930 . S
H1501 C1511 0.930 . S
C1502 H1496 0.930 . S
C1502 C1503 1.355 . S
C1502 C1504 1.404 1_556 S
C1503 C1502 1.355 . S
C1503 C1505 1.419 . S
C1504 C1502 1.404 1_554 S
C1504 C1509 1.430 . S
C1504 C1511 1.415 . S
C1505 H1497 0.930 . S
C1505 C1503 1.419 . S
C1505 C1506 1.362 . S
C1506 H1498 0.930 1_556 S
C1506 C1505 1.362 . S
C1506 C1509 1.409 1_556 S
C1507 H1499 0.930 . S
C1507 C1508 1.355 . S
C1507 C1509 1.415 . S
C1508 C1507 1.355 . S
C1508 C1510 1.419 . S
C1509 C1504 1.430 . S
C1509 C1506 1.409 1_554 S
C1509 C1507 1.415 . S
C1510 H1500 0.930 . S
C1510 C1508 1.419 . S
C1510 C1511 1.362 . S
C1511 H1501 0.930 . S
C1511 C1504 1.415 . S
C1511 C1510 1.362 . S
H1512 C1518 0.930 . S
H1513 C1521 0.930 . S
H1514 C1522 0.930 . S
H1515 C1523 0.930 . S
H1516 C1526 0.930 . S
H1517 C1527 0.930 . S
C1518 H1512 0.930 . S
C1518 C1519 1.355 . S
C1518 C1520 1.415 . S
C1519 C1518 1.355 . S
C1519 C1521 1.419 . S
C1520 C1518 1.415 . S
C1520 C1525 1.425 . S
C1520 C1527 1.409 . S
C1521 H1513 0.930 . S
C1521 C1519 1.419 . S
C1521 C1522 1.362 . S
C1522 H1514 0.930 . S
C1522 C1521 1.362 . S
C1522 C1525 1.409 . S
C1523 H1515 0.930 . S
C1523 C1524 1.355 . S
C1523 C1525 1.415 . S
C1524 C1523 1.355 . S
C1524 C1526 1.419 . S
C1525 C1520 1.425 . S
C1525 C1522 1.409 . S
C1525 C1523 1.415 . S
C1526 H1516 0.930 . S
C1526 C1524 1.419 . S
C1526 C1527 1.362 . S
C1527 H1517 0.930 . S
C1527 C1520 1.409 . S
C1527 C1526 1.362 . S
H1528 C1534 0.930 . S
H1529 C1537 0.930 . S
H1530 C1538 0.930 . S
H1531 C1539 0.930 . S
H1532 C1542 0.930 . S
H1533 C1543 0.930 . S
C1534 H1528 0.930 . S
C1534 C1535 1.355 . S
C1534 C1536 1.415 . S
C1535 C1534 1.355 . S
C1535 C1537 1.419 . S
C1536 C1534 1.415 . S
C1536 C1541 1.425 . S
C1536 C1543 1.409 . S
C1537 H1529 0.930 . S
C1537 C1535 1.419 . S
C1537 C1538 1.362 . S
C1538 H1530 0.930 . S
C1538 C1537 1.362 . S
C1538 C1541 1.409 . S
C1539 H1531 0.930 . S
C1539 C1540 1.355 . S
C1539 C1541 1.415 . S
C1540 C1539 1.355 . S
C1540 C1542 1.419 . S
C1541 C1536 1.425 . S
C1541 C1538 1.409 . S
C1541 C1539 1.415 . S
C1542 H1532 0.930 . S
C1542 C1540 1.419 . S
C1542 C1543 1.362 . S
C1543 H1533 0.930 . S
C1543 C1536 1.409 . S
C1543 C1542 1.362 . S
H1544 C1550 0.930 . S
H1545 C1553 0.930 . S
H1546 C1554 0.930 . S
H1547 C1555 0.930 . S
H1548 C1558 0.930 . S
H1549 C1559 0.930 . S
C1550 H1544 0.930 . S
C1550 C1551 1.355 . S
C1550 C1552 1.415 . S
C1551 C1550 1.355 . S
C1551 C1553 1.419 . S
C1552 C1550 1.415 . S
C1552 C1557 1.425 . S
C1552 C1559 1.409 . S
C1553 H1545 0.930 . S
C1553 C1551 1.419 . S
C1553 C1554 1.362 . S
C1554 H1546 0.930 . S
C1554 C1553 1.362 . S
C1554 C1557 1.409 . S
C1555 H1547 0.930 . S
C1555 C1556 1.355 . S
C1555 C1557 1.415 . S
C1556 C1555 1.355 . S
C1556 C1558 1.419 . S
C1557 C1552 1.425 . S
C1557 C1554 1.409 . S
C1557 C1555 1.415 . S
C1558 H1548 0.930 . S
C1558 C1556 1.419 . S
C1558 C1559 1.362 . S
C1559 H1549 0.930 . S
C1559 C1552 1.409 . S
C1559 C1558 1.362 . S
H1560 C1566 0.930 . S
H1561 C1569 0.930 . S
H1562 C1570 0.930 . S
H1563 C1571 0.930 . S
H1564 C1574 0.930 . S
H1565 C1575 0.930 . S
C1566 H1560 0.930 . S
C1566 C1567 1.355 . S
C1566 C1568 1.415 . S
C1567 C1566 1.355 . S
C1567 C1569 1.419 . S
C1568 C1566 1.415 . S
C1568 C1573 1.425 . S
C1568 C1575 1.409 . S
C1569 H1561 0.930 . S
C1569 C1567 1.419 . S
C1569 C1570 1.362 . S
C1570 H1562 0.930 . S
C1570 C1569 1.362 . S
C1570 C1573 1.409 . S
C1571 H1563 0.930 . S
C1571 C1572 1.355 . S
C1571 C1573 1.415 . S
C1572 C1571 1.355 . S
C1572 C1574 1.419 . S
C1573 C1568 1.425 . S
C1573 C1570 1.409 . S
C1573 C1571 1.415 . S
C1574 H1564 0.930 . S
C1574 C1572 1.419 . S
C1574 C1575 1.362 . S
C1575 H1565 0.930 . S
C1575 C1568 1.409 . S
C1575 C1574 1.362 . S
H1576 C1582 0.930 . S
H1577 C1585 0.930 . S
H1578 C1586 0.930 . S
H1579 C1587 0.930 . S
H1580 C1590 0.930 . S
H1581 C1591 0.930 . S
C1582 H1576 0.930 . S
C1582 C1583 1.355 . S
C1582 C1584 1.415 . S
C1583 C1582 1.355 . S
C1583 C1585 1.419 . S
C1584 C1582 1.415 . S
C1584 C1589 1.425 . S
C1584 C1591 1.409 . S
C1585 H1577 0.930 . S
C1585 C1583 1.419 . S
C1585 C1586 1.362 . S
C1586 H1578 0.930 . S
C1586 C1585 1.362 . S
C1586 C1589 1.409 . S
C1587 H1579 0.930 . S
C1587 C1588 1.355 . S
C1587 C1589 1.415 . S
C1588 C1587 1.355 . S
C1588 C1590 1.419 . S
C1589 C1584 1.425 . S
C1589 C1586 1.409 . S
C1589 C1587 1.415 . S
C1590 H1580 0.930 . S
C1590 C1588 1.419 . S
C1590 C1591 1.362 . S
C1591 H1581 0.930 . S
C1591 C1584 1.409 . S
C1591 C1590 1.362 . S
H1592 C1598 0.930 . S
H1593 C1601 0.930 . S
H1594 C1602 0.930 . S
H1595 C1603 0.930 . S
H1596 C1606 0.930 . S
H1597 C1607 0.930 . S
C1598 H1592 0.930 . S
C1598 C1599 1.355 . S
C1598 C1600 1.415 . S
C1599 C1598 1.355 . S
C1599 C1601 1.419 . S
C1600 C1598 1.415 . S
C1600 C1605 1.425 . S
C1600 C1607 1.409 . S
C1601 H1593 0.930 . S
C1601 C1599 1.419 . S
C1601 C1602 1.362 . S
C1602 H1594 0.930 . S
C1602 C1601 1.362 . S
C1602 C1605 1.409 . S
C1603 H1595 0.930 . S
C1603 C1604 1.355 . S
C1603 C1605 1.415 . S
C1604 C1603 1.355 . S
C1604 C1606 1.419 . S
C1605 C1600 1.425 . S
C1605 C1602 1.409 . S
C1605 C1603 1.415 . S
C1606 H1596 0.930 . S
C1606 C1604 1.419 . S
C1606 C1607 1.362 . S
C1607 H1597 0.930 . S
C1607 C1600 1.409 . S
C1607 C1606 1.362 . S
H1608 C1614 0.930 . S
H1609 C1617 0.930 . S
H1610 C1618 0.930 . S
H1611 C1619 0.930 . S
H1612 C1622 0.930 . S
H1613 C1623 0.930 . S
C1614 H1608 0.930 . S
C1614 C1615 1.355 . S
C1614 C1616 1.415 . S
C1615 C1614 1.355 . S
C1615 C1617 1.419 . S
C1616 C1614 1.415 . S
C1616 C1621 1.425 . S
C1616 C1623 1.409 . S
C1617 H1609 0.930 . S
C1617 C1615 1.419 . S
C1617 C1618 1.362 . S
C1618 H1610 0.930 . S
C1618 C1617 1.362 . S
C1618 C1621 1.409 . S
C1619 H1611 0.930 . S
C1619 C1620 1.355 . S
C1619 C1621 1.415 . S
C1620 C1619 1.355 . S
C1620 C1622 1.419 . S
C1621 C1616 1.425 . S
C1621 C1618 1.409 . S
C1621 C1619 1.415 . S
C1622 H1612 0.930 . S
C1622 C1620 1.419 . S
C1622 C1623 1.362 . S
C1623 H1613 0.930 . S
C1623 C1616 1.409 . S
C1623 C1622 1.362 . S
H1624 C1630 0.930 . S
H1625 C1633 0.930 . S
H1626 C1634 0.930 . S
H1627 C1635 0.930 . S
H1628 C1638 0.930 . S
H1629 C1639 0.930 . S
C1630 H1624 0.930 . S
C1630 C1631 1.355 . S
C1630 C1632 1.415 . S
C1631 C1630 1.355 . S
C1631 C1633 1.419 . S
C1632 C1630 1.415 . S
C1632 C1637 1.425 . S
C1632 C1639 1.409 . S
C1633 H1625 0.930 . S
C1633 C1631 1.419 . S
C1633 C1634 1.362 . S
C1634 H1626 0.930 . S
C1634 C1633 1.362 . S
C1634 C1637 1.409 . S
C1635 H1627 0.930 . S
C1635 C1636 1.355 . S
C1635 C1637 1.415 . S
C1636 C1635 1.355 . S
C1636 C1638 1.419 . S
C1637 C1632 1.425 . S
C1637 C1634 1.409 . S
C1637 C1635 1.415 . S
C1638 H1628 0.930 . S
C1638 C1636 1.419 . S
C1638 C1639 1.362 . S
C1639 H1629 0.930 . S
C1639 C1632 1.409 . S
C1639 C1638 1.362 . S
H1640 C1646 0.930 . S
H1641 C1649 0.930 . S
H1642 C1650 0.930 . S
H1643 C1651 0.930 . S
H1644 C1654 0.930 . S
H1645 C1655 0.930 . S
C1646 H1640 0.930 . S
C1646 C1647 1.355 . S
C1646 C1648 1.415 . S
C1647 C1646 1.355 . S
C1647 C1649 1.419 . S
C1648 C1646 1.415 . S
C1648 C1653 1.425 . S
C1648 C1655 1.409 . S
C1649 H1641 0.930 . S
C1649 C1647 1.419 . S
C1649 C1650 1.362 . S
C1650 H1642 0.930 . S
C1650 C1649 1.362 . S
C1650 C1653 1.409 . S
C1651 H1643 0.930 . S
C1651 C1652 1.355 . S
C1651 C1653 1.415 . S
C1652 C1651 1.355 . S
C1652 C1654 1.419 . S
C1653 C1648 1.425 . S
C1653 C1650 1.409 . S
C1653 C1651 1.415 . S
C1654 H1644 0.930 . S
C1654 C1652 1.419 . S
C1654 C1655 1.362 . S
C1655 H1645 0.930 . S
C1655 C1648 1.409 . S
C1655 C1654 1.362 . S
H1656 C1662 0.930 . S
H1657 C1665 0.930 . S
H1658 C1666 0.930 . S
H1659 C1667 0.930 . S
H1660 C1670 0.930 . S
H1661 C1671 0.930 . S
C1662 H1656 0.930 . S
C1662 C1663 1.355 . S
C1662 C1664 1.415 . S
C1663 C1662 1.355 . S
C1663 C1665 1.419 . S
C1664 C1662 1.415 . S
C1664 C1669 1.425 . S
C1664 C1671 1.409 . S
C1665 H1657 0.930 . S
C1665 C1663 1.419 . S
C1665 C1666 1.362 . S
C1666 H1658 0.930 . S
C1666 C1665 1.362 . S
C1666 C1669 1.409 . S
C1667 H1659 0.930 . S
C1667 C1668 1.355 . S
C1667 C1669 1.415 . S
C1668 C1667 1.355 . S
C1668 C1670 1.419 . S
C1669 C1664 1.425 . S
C1669 C1666 1.409 . S
C1669 C1667 1.415 . S
C1670 H1660 0.930 . S
C1670 C1668 1.419 . S
C1670 C1671 1.362 . S
C1671 H1661 0.930 . S
C1671 C1664 1.409 . S
C1671 C1670 1.362 . S
H1672 C1678 0.930 . S
H1673 C1681 0.930 . S
H1674 C1682 0.930 . S
H1675 C1683 0.930 . S
H1676 C1686 0.930 . S
H1677 C1687 0.930 . S
C1678 H1672 0.930 . S
C1678 C1679 1.355 . S
C1678 C1680 1.415 . S
C1679 C1678 1.355 . S
C1679 C1681 1.419 . S
C1680 C1678 1.415 . S
C1680 C1685 1.425 . S
C1680 C1687 1.409 . S
C1681 H1673 0.930 . S
C1681 C1679 1.419 . S
C1681 C1682 1.362 . S
C1682 H1674 0.930 . S
C1682 C1681 1.362 . S
C1682 C1685 1.409 . S
C1683 H1675 0.930 . S
C1683 C1684 1.355 . S
C1683 C1685 1.415 . S
C1684 C1683 1.355 . S
C1684 C1686 1.419 . S
C1685 C1680 1.425 . S
C1685 C1682 1.409 . S
C1685 C1683 1.415 . S
C1686 H1676 0.930 . S
C1686 C1684 1.419 . S
C1686 C1687 1.362 . S
C1687 H1677 0.930 . S
C1687 C1680 1.409 . S
C1687 C1686 1.362 . S
H1688 C1694 0.930 . S
H1689 C1697 0.930 . S
H1690 C1698 0.930 . S
H1691 C1699 0.930 . S
H1692 C1702 0.930 . S
H1693 C1703 0.930 . S
C1694 H1688 0.930 . S
C1694 C1695 1.355 . S
C1694 C1696 1.415 . S
C1695 C1694 1.355 . S
C1695 C1697 1.419 . S
C1696 C1694 1.415 . S
C1696 C1701 1.425 . S
C1696 C1703 1.409 . S
C1697 H1689 0.930 . S
C1697 C1695 1.419 . S
C1697 C1698 1.362 . S
C1698 H1690 0.930 . S
C1698 C1697 1.362 . S
C1698 C1701 1.409 . S
C1699 H1691 0.930 . S
C1699 C1700 1.355 . S
C1699 C1701 1.415 . S
C1700 C1699 1.355 . S
C1700 C1702 1.419 . S
C1701 C1696 1.425 . S
C1701 C1698 1.409 . S
C1701 C1699 1.415 . S
C1702 H1692 0.930 . S
C1702 C1700 1.419 . S
C1702 C1703 1.362 . S
C1703 H1693 0.930 . S
C1703 C1696 1.409 . S
C1703 C1702 1.362 . S
H1704 C1710 0.930 . S
H1705 C1713 0.930 . S
H1706 C1714 0.930 . S
H1707 C1715 0.930 . S
H1708 C1718 0.930 . S
H1709 C1719 0.930 . S
C1710 H1704 0.930 . S
C1710 C1711 1.355 . S
C1710 C1712 1.415 . S
C1711 C1710 1.355 . S
C1711 C1713 1.419 . S
C1712 C1710 1.415 . S
C1712 C1717 1.425 . S
C1712 C1719 1.409 . S
C1713 H1705 0.930 . S
C1713 C1711 1.419 . S
C1713 C1714 1.362 . S
C1714 H1706 0.930 . S
C1714 C1713 1.362 . S
C1714 C1717 1.409 . S
C1715 H1707 0.930 . S
C1715 C1716 1.355 . S
C1715 C1717 1.415 . S
C1716 C1715 1.355 . S
C1716 C1718 1.419 . S
C1717 C1712 1.425 . S
C1717 C1714 1.409 . S
C1717 C1715 1.415 . S
C1718 H1708 0.930 . S
C1718 C1716 1.419 . S
C1718 C1719 1.362 . S
C1719 H1709 0.930 . S
C1719 C1712 1.409 . S
C1719 C1718 1.362 . S
H1720 C1726 0.930 . S
H1721 C1729 0.930 . S
H1722 C1730 0.930 . S
H1723 C1731 0.930 . S
H1724 C1734 0.930 . S
H1725 C1735 0.930 . S
C1726 H1720 0.930 . S
C1726 C1727 1.355 . S
C1726 C1728 1.415 . S
C1727 C1726 1.355 . S
C1727 C1729 1.419 . S
C1728 C1726 1.415 . S
C1728 C1733 1.425 . S
C1728 C1735 1.409 . S
C1729 H1721 0.930 . S
C1729 C1727 1.419 . S
C1729 C1730 1.362 . S
C1730 H1722 0.930 . S
C1730 C1729 1.362 . S
C1730 C1733 1.409 . S
C1731 H1723 0.930 . S
C1731 C1732 1.355 . S
C1731 C1733 1.415 . S
C1732 C1731 1.355 . S
C1732 C1734 1.419 . S
C1733 C1728 1.425 . S
C1733 C1730 1.409 . S
C1733 C1731 1.415 . S
C1734 H1724 0.930 . S
C1734 C1732 1.419 . S
C1734 C1735 1.362 . S
C1735 H1725 0.930 . S
C1735 C1728 1.409 . S
C1735 C1734 1.362 . S
H1736 C1742 0.930 . S
H1737 C1745 0.930 . S
H1738 C1746 0.930 . S
H1739 C1747 0.930 . S
H1740 C1750 0.930 . S
H1741 C1751 0.930 . S
C1742 H1736 0.930 . S
C1742 C1743 1.355 . S
C1742 C1744 1.415 . S
C1743 C1742 1.355 . S
C1743 C1745 1.419 . S
C1744 C1742 1.415 . S
C1744 C1749 1.425 . S
C1744 C1751 1.409 . S
C1745 H1737 0.930 . S
C1745 C1743 1.419 . S
C1745 C1746 1.362 . S
C1746 H1738 0.930 . S
C1746 C1745 1.362 . S
C1746 C1749 1.409 . S
C1747 H1739 0.930 . S
C1747 C1748 1.355 . S
C1747 C1749 1.415 . S
C1748 C1747 1.355 . S
C1748 C1750 1.419 . S
C1749 C1744 1.425 . S
C1749 C1746 1.409 . S
C1749 C1747 1.415 . S
C1750 H1740 0.930 . S
C1750 C1748 1.419 . S
C1750 C1751 1.362 . S
C1751 H1741 0.930 . S
C1751 C1744 1.409 . S
C1751 C1750 1.362 . S
H1752 C1758 0.930 . S
H1753 C1761 0.930 . S
H1754 C1762 0.930 . S
H1755 C1763 0.930 . S
H1756 C1766 0.930 . S
H1757 C1767 0.930 . S
C1758 H1752 0.930 . S
C1758 C1759 1.355 . S
C1758 C1760 1.415 . S
C1759 C1758 1.355 . S
C1759 C1761 1.419 . S
C1760 C1758 1.415 . S
C1760 C1765 1.425 . S
C1760 C1767 1.409 . S
C1761 H1753 0.930 . S
C1761 C1759 1.419 . S
C1761 C1762 1.362 . S
C1762 H1754 0.930 . S
C1762 C1761 1.362 . S
C1762 C1765 1.409 . S
C1763 H1755 0.930 . S
C1763 C1764 1.355 1_554 S
C1763 C1765 1.415 . S
C1764 C1763 1.355 1_556 S
C1764 C1766 1.419 . S
C1765 C1760 1.425 . S
C1765 C1762 1.409 . S
C1765 C1763 1.415 . S
C1766 H1756 0.930 . S
C1766 C1764 1.419 . S
C1766 C1767 1.362 1_556 S
C1767 H1757 0.930 . S
C1767 C1760 1.409 . S
C1767 C1766 1.362 1_554 S
H1768 C1774 0.930 . S
H1769 C1777 0.930 . S
H1770 C1778 0.930 . S
H1771 C1779 0.930 . S
H1772 C1782 0.930 . S
H1773 C1783 0.930 . S
C1774 H1768 0.930 . S
C1774 C1775 1.355 . S
C1774 C1776 1.415 . S
C1775 C1774 1.355 . S
C1775 C1777 1.419 . S
C1776 C1774 1.415 . S
C1776 C1781 1.425 . S
C1776 C1783 1.409 . S
C1777 H1769 0.930 . S
C1777 C1775 1.419 . S
C1777 C1778 1.362 . S
C1778 H1770 0.930 . S
C1778 C1777 1.362 . S
C1778 C1781 1.409 . S
C1779 H1771 0.930 . S
C1779 C1780 1.355 . S
C1779 C1781 1.415 . S
C1780 C1779 1.355 . S
C1780 C1782 1.419 . S
C1781 C1776 1.425 . S
C1781 C1778 1.409 . S
C1781 C1779 1.415 . S
C1782 H1772 0.930 . S
C1782 C1780 1.419 . S
C1782 C1783 1.362 . S
C1783 H1773 0.930 . S
C1783 C1776 1.409 . S
C1783 C1782 1.362 . S
H1784 C1790 0.930 . S
H1785 C1793 0.930 . S
H1786 C1794 0.930 . S
H1787 C1795 0.930 . S
H1788 C1798 0.930 . S
H1789 C1799 0.930 . S
C1790 H1784 0.930 . S
C1790 C1791 1.355 . S
C1790 C1792 1.415 . S
C1791 C1790 1.355 . S
C1791 C1793 1.419 . S
C1792 C1790 1.415 . S
C1792 C1797 1.425 . S
C1792 C1799 1.409 . S
C1793 H1785 0.930 . S
C1793 C1791 1.419 . S
C1793 C1794 1.362 . S
C1794 H1786 0.930 . S
C1794 C1793 1.362 . S
C1794 C1797 1.409 . S
C1795 H1787 0.930 . S
C1795 C1796 1.355 . S
C1795 C1797 1.415 . S
C1796 C1795 1.355 . S
C1796 C1798 1.419 . S
C1797 C1792 1.425 . S
C1797 C1794 1.409 . S
C1797 C1795 1.415 . S
C1798 H1788 0.930 . S
C1798 C1796 1.419 . S
C1798 C1799 1.362 . S
C1799 H1789 0.930 . S
C1799 C1792 1.409 . S
C1799 C1798 1.362 . S
C655 C7 1.593 . S
C660 C560 1.546 . S
C676 C534 1.840 . S
C671 C39 1.843 . S
C692 C547 1.677 . S
C687 C62 1.671 . S
C703 C76 1.849 . S
C708 C614 1.858 . S
C719 C108 1.492 . S
C724 C627 1.491 . S
C735 N117 1.377 . S
C740 C640 1.395 . S
C756 C600 1.465 . S
C751 C16 1.472 . S
C767 C30 1.790 . S
C772 C574 1.789 . S
C788 C588 1.491 . S
C783 C53 1.484 . S
C799 C85 1.779 . S
C804 C497 1.736 1_545 S
C820 C509 1.586 . S
C815 C99 1.588 . S
C831 N127 1.240 . S
C836 C523 1.309 . S
C847 N150 1.210 . S
C852 C638 1.238 . S
C868 C612 1.637 . S
C863 N173 1.620 . S
C884 C625 1.479 . S
C879 C200 1.480 . S
C895 C214 1.671 . S
C900 C458 1.672 . S
C911 N232 1.515 . S
C916 C471 1.551 . S
C927 C260 1.517 . S
C932 C484 1.532 . S
C948 C444 1.331 . S
C943 N140 1.321 . S
C959 N163 1.422 . S
C964 C424 1.405 . S
C980 C430 1.540 . S
C975 C191 1.537 . S
C996 C573 1.794 . S
C991 C223 1.804 . S
C1012 C593 1.424 . S
C1007 N242 1.393 . S
C1028 C599 1.490 . S
C1023 C269 1.489 . S
C1039 N288 1.355 . S
C1044 C482 1.345 . S
C1055 C315 1.577 . S
C1060 C456 1.578 1_655 S
C1071 C338 1.761 . S
C1076 C469 1.757 . S
C1087 C352 1.897 . S
C1092 C536 1.910 . S
C1108 C549 1.563 . S
C1103 N370 1.576 . S
C1124 C562 1.583 1_655 S
C1119 C398 1.564 . S
C1140 C528 1.231 . S
C1135 N278 1.191 . S
C1151 C306 1.662 . S
C1156 C502 1.661 . S
C1167 C329 1.582 . S
C1172 C508 1.588 . S
C1188 C419 1.507 . S
C1183 C361 1.514 . S
C1199 N380 1.414 . S
C1204 C431 1.465 . S
C1220 C443 1.416 . S
C1215 C407 1.420 . S
C1236 C463 1.447 . S
C1231 N12 1.440 . S
C1247 N25 1.489 . S
C1252 C476 1.551 . S
C1268 C489 1.346 . S
C1263 N48 1.325 . S
C1284 C483 1.406 . S
C1279 N81 1.403 . S
C1300 C457 1.619 . S
C1295 N94 1.560 . S
C1316 C470 1.660 . S
C1311 C131 1.638 . S
C1332 C417 1.360 . S
C1327 N2 1.290 . S
C1343 N35 1.423 . S
C1348 C437 1.465 . S
C1359 N58 1.188 . S
C1364 C445 1.237 . S
C1380 C450 1.354 . S
C1375 N71 1.286 . S
C1396 C418 1.445 . S
C1391 N104 1.398 . S
C1412 C432 1.637 . S
C1407 C122 1.634 . S
C1423 C145 1.976 . S
C1428 C541 1.978 . S
C1439 C168 1.663 . S
C1444 C554 1.663 . S
C1455 N186 1.440 . S
C1460 C567 1.509 . S
C1476 C561 1.465 . S
C1471 N219 1.461 . S
C1492 C535 1.841 . S
C1487 C246 1.817 . S
C1508 C548 1.550 . S
C1503 N265 1.523 . S
C1524 C495 1.801 . S
C1519 C154 1.782 . S
C1535 C177 1.693 . S
C1540 C515 1.712 . S
C1551 N196 1.339 . S
C1556 C521 1.347 . S
C1567 N209 1.269 . S
C1572 C522 1.303 . S
C1583 C237 1.833 . S
C1588 C496 1.829 . S
C1604 C510 1.457 . S
C1599 N255 1.369 . S
C1615 C283 1.837 . S
C1620 C619 1.837 . S
C1631 N301 1.451 . S
C1636 C632 1.524 . S
C1647 N324 1.279 . S
C1652 C645 1.287 . S
C1668 C639 1.233 . S
C1663 N357 1.192 . S
C1684 C613 1.809 . S
C1679 C384 1.802 . S
C1695 N403 1.411 . S
C1700 C626 1.433 . S
C1711 C292 1.843 . S
C1716 C575 1.850 . S
C1732 C587 1.398 . S
C1727 N311 1.363 . S
C1743 N334 1.337 . S
C1748 C601 1.339 . S
C1759 N347 1.376 . S
C1764 C606 1.380 . S
C1780 C580 1.884 1_554 S
C1775 C375 1.879 . S
C1791 N393 1.334 . S
C1796 C586 1.433 1_554 S
