# Generated by pormake.
# Topology pth, (4,4)-cn, num edge types: 1
# Building blocks:
#     Node 0, Type 0, BuildingBlock: TATPOV_clean_sbu_0, # of connection points: 4
#     Node 1, Type 0, BuildingBlock: TATPOV_clean_sbu_0, # of connection points: 4
#     Node 2, Type 0, BuildingBlock: TATPOV_clean_sbu_0, # of connection points: 4
#     Node 3, Type 1, BuildingBlock: MUDLON_clean_sbu_0, # of connection points: 4
#     Node 4, Type 1, BuildingBlock: MUDLON_clean_sbu_0, # of connection points: 4
#     Node 5, Type 1, BuildingBlock: MUDLON_clean_sbu_0, # of connection points: 4
#     Edge 6, Type (0, 1), BuildingBlock: FUNLAD_clean_linker_1, # of connection points: 2
#     Edge 7, Type (0, 1), BuildingBlock: FUNLAD_clean_linker_1, # of connection points: 2
#     Edge 8, Type (0, 1), BuildingBlock: FUNLAD_clean_linker_1, # of connection points: 2
#     Edge 9, Type (0, 1), BuildingBlock: FUNLAD_clean_linker_1, # of connection points: 2
#     Edge 10, Type (0, 1), BuildingBlock: FUNLAD_clean_linker_1, # of connection points: 2
#     Edge 11, Type (0, 1), BuildingBlock: FUNLAD_clean_linker_1, # of connection points: 2
#     Edge 12, Type (0, 1), BuildingBlock: FUNLAD_clean_linker_1, # of connection points: 2
#     Edge 13, Type (0, 1), BuildingBlock: FUNLAD_clean_linker_1, # of connection points: 2
#     Edge 14, Type (0, 1), BuildingBlock: FUNLAD_clean_linker_1, # of connection points: 2
#     Edge 15, Type (0, 1), BuildingBlock: FUNLAD_clean_linker_1, # of connection points: 2
#     Edge 16, Type (0, 1), BuildingBlock: FUNLAD_clean_linker_1, # of connection points: 2
#     Edge 17, Type (0, 1), BuildingBlock: FUNLAD_clean_linker_1, # of connection points: 2
# Relax obj value: 0.072
# Max RMSD: 0.185
# Mean RMSD: 0.119
data_MOF--net-pth--node1-TATPOV_clean_sbu_0--node2-MUDLON_clean_sbu_0--edge1-FUNLAD_clean_linker_1
_symmetry_space_group_name_H-M    P1
_symmetry_Int_Tables_number       1
_symmetry_cell_setting            triclinic
loop_
_symmetry_equiv_pos_as_xyz
'x, y, z'
_cell_length_a     23.634296
_cell_length_b     23.584699
_cell_length_c     61.565976
_cell_angle_alpha  92.655001
_cell_angle_beta   91.910631
_cell_angle_gamma 120.69285
loop_
_atom_site_label
_atom_site_type_symbol
_atom_site_fract_x
_atom_site_fract_y
_atom_site_fract_z
_atom_type_partial_charge
Zn0 Zn 0.15095 0.01597 0.05743 0.0
Zn1 Zn 0.14052 0.11167 0.07947 0.0
O2 O 0.15692 0.06161 0.10336 0.0
O3 O 0.1672 0.98437 0.08566 0.0
O4 O 0.13385 0.18235 0.09727 0.0
O5 O 0.22633 0.08565 0.04184 0.0
O6 O 0.21657 0.16376 0.05928 0.0
C7 C 0.16659 0.01316 0.10345 0.0
C8 C 0.02522 0.00723 0.04895 0.0
O9 O 0.04994 0.05804 0.06238 0.0
O10 O 0.05794 0.97975 0.04434 0.0
C11 C 0.0869 0.16585 0.10976 0.0
O12 O 0.04264 0.10293 0.11071 0.0
C13 C 0.24435 0.14601 0.0453 0.0
Zn14 Zn 0.23429 0.12658 0.3905 0.0
Zn15 Zn 0.12322 0.08394 0.4114 0.0
O16 O 0.19068 0.08606 0.43445 0.0
O17 O 0.28353 0.12699 0.41794 0.0
O18 O 0.04423 0.06298 0.42888 0.0
O19 O 0.23581 0.20859 0.38191 0.0
O20 O 0.14259 0.17096 0.39795 0.0
C21 C 0.25167 0.10426 0.43461 0.0
C22 C 0.1233 0.99826 0.37312 0.0
O23 O 0.09147 0.006 0.38817 0.0
O24 O 0.18286 0.0419 0.37093 0.0
C25 C 0.04881 0.10688 0.44285 0.0
O26 O 0.10451 0.16387 0.44573 0.0
C27 C 0.18745 0.21431 0.38701 0.0
Zn28 Zn 0.16394 0.99371 0.77238 0.0
Zn29 Zn 0.09182 0.02677 0.74769 0.0
O30 O 0.15635 0.02143 0.72655 0.0
O31 O 0.21036 0.98682 0.74651 0.0
O32 O 0.03042 0.0408 0.72778 0.0
O33 O 0.08466 0.91427 0.78269 0.0
O34 O 0.02539 0.94345 0.76306 0.0
C35 C 0.19973 0.00471 0.72854 0.0
C36 C 0.18239 0.12342 0.78478 0.0
O37 O 0.14001 0.11016 0.76903 0.0
O38 O 0.20001 0.08251 0.78917 0.0
C39 C 0.99637 0.99749 0.71229 0.0
O40 O 1.00292 0.94564 0.70931 0.0
C41 C 0.029 0.90505 0.77624 0.0
Mg42 Mg 0.12543 0.60081 0.25038 0.0
C43 C 0.15288 0.5408 0.28701 0.0
O44 O 0.09095 0.52366 0.28871 0.0
C45 C 0.15345 0.71981 0.22718 0.0
O46 O 0.09831 0.70511 0.2361 0.0
C47 C 0.03031 0.45818 0.2297 0.0
O48 O 1.00322 0.44597 0.24848 0.0
O49 O 0.07591 0.51642 0.22649 0.0
O50 O 0.18444 0.57757 0.27202 0.0
O51 O 0.06695 0.62375 0.27162 0.0
C52 C 1.00695 0.60834 0.26963 0.0
O53 O 0.96896 0.57015 0.25275 0.0
O54 O 0.18018 0.68594 0.23115 0.0
Mg55 Mg 0.60363 0.05821 0.57929 0.0
C56 C 0.46071 0.97824 0.55922 0.0
O57 O 0.4455 0.96408 0.57934 0.0
C58 C 0.65913 0.97039 0.59221 0.0
O59 O 0.66148 0.9619 0.57112 0.0
C60 C 0.53655 0.07362 0.61628 0.0
O61 O 0.53084 0.01566 0.61812 0.0
O62 O 0.57141 0.10935 0.60157 0.0
O63 O 0.52099 0.00876 0.55477 0.0
O64 O 0.69087 0.11782 0.56139 0.0
C65 C 0.69265 0.08956 0.54351 0.0
O66 O 0.64107 0.03211 0.53665 0.0
O67 O 0.63236 1.00193 0.5994 0.0
Mg68 Mg 0.58208 0.61272 0.91099 0.0
C69 C 0.48283 0.53897 0.87517 0.0
O70 O 0.53068 0.52751 0.87147 0.0
C71 C 0.67235 0.7563 0.92604 0.0
O72 O 0.69569 0.75606 0.90702 0.0
C73 C 0.51129 0.48645 0.93459 0.0
O74 O 0.46731 0.46952 0.91822 0.0
O75 O 0.56561 0.54107 0.93487 0.0
O76 O 0.48997 0.57751 0.89153 0.0
O77 O 0.65633 0.62946 0.88802 0.0
C78 C 0.70786 0.62635 0.89166 0.0
O79 O 0.71816 0.60798 0.91046 0.0
O80 O 0.62019 0.70488 0.93103 0.0
H81 H 0.12291 0.26834 0.12284 0.0
C82 C 0.08398 0.21711 0.1236 0.0
H83 H 0.99806 0.15092 0.13881 0.0
H84 H 0.07739 0.34264 0.22439 0.0
H85 H 0.09213 0.25557 0.23735 0.0
H86 H 0.08212 0.16659 0.21192 0.0
H87 H 0.05723 0.1643 0.17329 0.0
C88 C 0.03607 0.20213 0.13739 0.0
C89 C 0.03713 0.2536 0.15273 0.0
C90 C 0.04969 0.25324 0.1754 0.0
C91 C 0.0541 0.30392 0.19015 0.0
C92 C 0.07078 0.30426 0.2125 0.0
C93 C 0.08016 0.25484 0.22018 0.0
C94 C 0.07452 0.20474 0.20587 0.0
C95 C 0.05996 0.20393 0.18372 0.0
H96 H 0.9735 0.35387 0.21623 0.0
C97 C 0.01438 0.40277 0.21356 0.0
H98 H 0.09422 0.45908 0.19433 0.0
H99 H 1.00496 0.2647 0.11064 0.0
H100 H 0.98723 0.35023 0.0976 0.0
H101 H 0.99493 0.43814 0.12306 0.0
H102 H 0.02005 0.44086 0.16176 0.0
C103 C 0.05345 0.41027 0.19716 0.0
C104 C 0.04387 0.35389 0.18224 0.0
C105 C 0.02966 0.35319 0.15962 0.0
C106 C 0.02593 0.30287 0.14488 0.0
C107 C 1.00998 0.3026 0.12248 0.0
C108 C 0.99926 0.35118 0.11479 0.0
C109 C 1.00354 0.40065 0.12912 0.0
C110 C 0.01829 0.40177 0.15129 0.0
H111 H 0.94668 0.04598 0.45271 0.0
C112 C 0.99181 0.09381 0.45555 0.0
H113 H 0.03843 0.18779 0.47279 0.0
H114 H 0.77486 0.18015 0.4939 0.0
H115 H 0.81987 0.26544 0.46829 0.0
H116 H 0.91839 0.28824 0.44901 0.0
H117 H 0.9724 0.22578 0.45514 0.0
C118 C 0.99425 0.13911 0.47032 0.0
C119 C 0.93602 0.1265 0.48265 0.0
C120 C 0.90561 0.16426 0.47916 0.0
C121 C 0.84885 0.15133 0.49035 0.0
C122 C 0.81843 0.18842 0.48604 0.0
C123 C 0.84367 0.23743 0.47134 0.0
C124 C 0.89915 0.25026 0.46048 0.0
C125 C 0.9298 0.21413 0.46421 0.0
H126 H 0.79701 0.16302 0.53822 0.0
C127 C 0.75422 0.11636 0.53197 0.0
H128 H 0.71734 0.03332 0.50933 0.0
H129 H 0.98802 0.05203 0.49582 0.0
H130 H 0.94383 0.96806 0.52182 0.0
H131 H 0.84382 0.94368 0.54044 0.0
H132 H 0.78776 0.00364 0.53329 0.0
C133 C 0.75922 0.08138 0.51499 0.0
C134 C 0.82282 0.10095 0.50512 0.0
C135 C 0.85451 0.06474 0.50917 0.0
C136 C 0.91152 0.07797 0.49813 0.0
C137 C 0.94341 0.04266 0.50317 0.0
C138 C 0.91885 0.99462 0.51822 0.0
C139 C 0.86259 0.98094 0.52871 0.0
C140 C 0.83073 0.01555 0.52437 0.0
H141 H 0.92255 0.85256 0.78186 0.0
C142 C 0.96879 0.85487 0.78601 0.0
H143 H 0.01822 0.82231 0.80652 0.0
H144 H 0.83759 0.78004 0.88429 0.0
H145 H 0.9384 0.87968 0.89752 0.0
H146 H 0.03054 0.93585 0.87378 0.0
H147 H 0.02189 0.89297 0.83656 0.0
C148 C 0.97156 0.81825 0.8017 0.0
C149 C 0.91596 0.78212 0.81591 0.0
C150 C 0.92253 0.80666 0.83791 0.0
C151 C 0.86998 0.77335 0.85177 0.0
C152 C 0.87666 0.80146 0.87325 0.0
C153 C 0.93419 0.85919 0.88104 0.0
C154 C 0.986 0.89086 0.86767 0.0
C155 C 0.9804 0.86543 0.84632 0.0
H156 H 0.80484 0.65104 0.88 0.0
C157 C 0.75989 0.65138 0.87596 0.0
H158 H 0.71049 0.67974 0.85365 0.0
H159 H 0.88852 0.72028 0.77499 0.0
H160 H 0.78734 0.62026 0.7616 0.0
H161 H 0.69635 0.56211 0.78565 0.0
H162 H 0.706 0.60342 0.82326 0.0
C163 C 0.75554 0.67999 0.85805 0.0
C164 C 0.81158 0.7142 0.84381 0.0
C165 C 0.805 0.68978 0.82181 0.0
C166 C 0.85731 0.72361 0.80786 0.0
C167 C 0.84991 0.69721 0.78614 0.0
C168 C 0.79221 0.63967 0.77828 0.0
C169 C 0.74098 0.6069 0.79183 0.0
C170 C 0.7471 0.63127 0.81336 0.0
H171 H 0.16474 0.00888 0.13929 0.0
C172 C 0.1726 0.98782 0.12442 0.0
H173 H 0.18858 0.91412 0.11047 0.0
H174 H 0.25693 0.90743 0.21587 0.0
H175 H 0.35213 0.01708 0.21318 0.0
H176 H 0.3682 0.07464 0.17945 0.0
H177 H 0.28889 0.0233 0.14825 0.0
C178 C 0.18272 0.93674 0.12535 0.0
C179 C 0.17522 0.90232 0.14569 0.0
C180 C 0.22275 0.93254 0.1636 0.0
C181 C 0.21431 0.89868 0.18291 0.0
C182 C 0.26155 0.93057 0.20074 0.0
C183 C 0.31633 0.99348 0.19941 0.0
C184 C 0.32532 0.02594 0.18042 0.0
C185 C 0.2793 0.99605 0.16267 0.0
H186 H 0.21891 0.77329 0.20112 0.0
C187 C 0.17816 0.76802 0.21027 0.0
H188 H 0.10436 0.79267 0.21316 0.0
H189 H 0.07511 0.82975 0.11428 0.0
H190 H 0.98185 0.71921 0.11667 0.0
H191 H 0.96862 0.65975 0.1498 0.0
H192 H 0.04852 0.7106 0.18075 0.0
C193 C 0.14668 0.79974 0.20456 0.0
C194 C 0.15894 0.83437 0.18411 0.0
C195 C 0.11213 0.80372 0.16604 0.0
C196 C 0.12024 0.83766 0.14684 0.0
C197 C 0.07205 0.80604 0.12918 0.0
C198 C 0.01807 0.74258 0.13034 0.0
C199 C 1.01057 0.70915 0.149 0.0
C200 C 0.0568 0.73906 0.16668 0.0
H201 H 0.33932 0.11947 0.45365 0.0
C202 C 0.28592 0.09565 0.45352 0.0
H203 H 0.20065 0.02695 0.46847 0.0
H204 H 0.35197 0.88893 0.50555 0.0
H205 H 0.26884 0.80246 0.48006 0.0
H206 H 0.19516 0.82319 0.45682 0.0
H207 H 0.20413 0.93047 0.4589 0.0
C208 C 0.2542 0.0546 0.46906 0.0
C209 C 0.29174 0.0393 0.4854 0.0
C210 C 0.28472 0.97574 0.48437 0.0
C211 C 0.32702 0.96359 0.49787 0.0
C212 C 0.32058 0.9005 0.49591 0.0
C213 C 0.27321 0.8505 0.48129 0.0
C214 C 0.23174 0.86218 0.4682 0.0
C215 C 0.23738 0.92402 0.46958 0.0
H216 H 0.35831 0.9453 0.54756 0.0
C217 C 0.40926 0.97154 0.54319 0.0
H218 H 0.47612 0.03543 0.52148 0.0
H219 H 0.31022 0.16258 0.49417 0.0
H220 H 0.39113 0.24809 0.52042 0.0
H221 H 0.46576 0.22787 0.54335 0.0
H222 H 0.45975 0.12201 0.54027 0.0
C223 C 0.4248 0.00543 0.5252 0.0
C224 C 0.37579 0.01485 0.51249 0.0
C225 C 0.38033 0.07727 0.51436 0.0
C226 C 0.33792 0.08929 0.50095 0.0
C227 C 0.34248 0.1515 0.50355 0.0
C228 C 0.38835 0.20083 0.51866 0.0
C229 C 0.43032 0.18942 0.53158 0.0
C230 C 0.42649 0.12846 0.52958 0.0
H231 H 0.25067 0.1941 0.8108 0.0
C232 C 0.21381 0.18672 0.79814 0.0
H233 H 0.16695 0.23099 0.78226 0.0
H234 H 0.33566 0.39072 0.87821 0.0
H235 H 0.24728 0.29863 0.8949 0.0
H236 H 0.15369 0.20768 0.87239 0.0
H237 H 0.14907 0.20803 0.83284 0.0
C238 C 0.20171 0.23579 0.79524 0.0
C239 C 0.24212 0.29991 0.80856 0.0
C240 C 0.24202 0.30153 0.83161 0.0
C241 C 0.29466 0.35535 0.84458 0.0
C242 C 0.2961 0.35249 0.86751 0.0
C243 C 0.24562 0.29966 0.87734 0.0
C244 C 0.19301 0.24836 0.86467 0.0
C245 C 0.19108 0.24895 0.84205 0.0
H246 H 0.37858 0.50792 0.8662 0.0
C247 C 0.4192 0.50109 0.86212 0.0
H248 H 0.45114 0.44919 0.84212 0.0
H249 H 0.24842 0.31875 0.765 0.0
H250 H 0.33127 0.41547 0.74819 0.0
H251 H 0.42054 0.5107 0.77067 0.0
H252 H 0.42767 0.50961 0.81015 0.0
C253 C 0.40999 0.45476 0.84652 0.0
C254 C 0.34569 0.40885 0.83434 0.0
C255 C 0.34059 0.41116 0.81143 0.0
C256 C 0.28874 0.35657 0.79849 0.0
C257 C 0.28665 0.35901 0.77557 0.0
C258 C 0.33381 0.41425 0.76574 0.0
C259 C 0.38412 0.46787 0.77839 0.0
C260 C 0.38781 0.46654 0.80098 0.0
H261 H 0.94215 0.04644 0.70204 0.0
C262 C 0.94884 0.00486 0.69823 0.0
H263 H 0.9191 0.91912 0.67756 0.0
H264 H 0.64261 0.86742 0.64325 0.0
H265 H 0.612 0.77299 0.66458 0.0
H266 H 0.69572 0.76658 0.6876 0.0
H267 H 0.81047 0.85426 0.68944 0.0
C268 C 0.91384 0.96171 0.6811 0.0
C269 C 0.86341 0.96697 0.66746 0.0
C270 C 0.79633 0.91519 0.66658 0.0
C271 C 0.74782 0.91896 0.65341 0.0
C272 C 0.68132 0.86683 0.65295 0.0
C273 C 0.66309 0.81244 0.66513 0.0
C274 C 0.71024 0.80882 0.67808 0.0
C275 C 0.77606 0.85947 0.67892 0.0
H276 H 0.71667 0.92344 0.60061 0.0
C277 C 0.6972 0.95308 0.60725 0.0
H278 H 0.6997 0.01283 0.63438 0.0
H279 H 0.98844 0.07063 0.6627 0.0
H280 H 0.01809 0.16503 0.64166 0.0
H281 H 0.93301 0.17414 0.62047 0.0
H282 H 0.81775 0.08824 0.61997 0.0
C283 C 0.71557 0.97995 0.62788 0.0
C284 C 0.7662 0.97456 0.64121 0.0
C285 C 0.83315 0.02621 0.64197 0.0
C286 C 0.88199 0.02192 0.65476 0.0
C287 C 0.94888 0.07246 0.65408 0.0
C288 C 0.96673 0.12676 0.64189 0.0
C289 C 0.91886 0.13183 0.62992 0.0
C290 C 0.85284 0.08219 0.62982 0.0
H291 H 0.92932 1.00202 0.04348 0.0
C292 C 0.95894 0.98145 0.03814 0.0
H293 H 0.96515 0.91355 0.01628 0.0
H294 H 0.67555 0.71104 0.98797 0.0
H295 H 0.69713 0.65071 0.01443 0.0
H296 H 0.79675 0.70682 0.03961 0.0
H297 H 0.87582 0.8239 0.03823 0.0
C298 C 0.93609 0.93502 0.02138 0.0
C299 C 0.86965 0.90687 0.01 0.0
C300 C 0.82254 0.83908 0.0115 0.0
C301 C 0.7644 0.80717 0.99728 0.0
C302 C 0.72002 0.7385 0.99852 0.0
C303 C 0.73182 0.70302 0.01367 0.0
C304 C 0.78794 0.73456 0.02781 0.0
C305 C 0.83301 0.80171 0.02679 0.0
H306 H 0.76605 0.84249 0.93899 0.0
C307 C 0.71592 0.80809 0.94308 0.0
H308 H 0.65048 0.77203 0.96812 0.0
H309 H 0.94783 0.03874 1.00352 0.0
H310 H 0.92159 0.10148 0.97935 0.0
H311 H 0.81641 0.04786 0.9569 0.0
H312 H 0.73743 0.93044 0.95819 0.0
C313 C 0.70012 0.80725 0.9639 0.0
C314 C 0.75308 0.84356 0.98174 0.0
C315 C 0.79677 0.91287 0.98189 0.0
C316 C 0.856 0.94436 0.99563 0.0
C317 C 0.90111 0.0126 0.99408 0.0
C318 C 0.88675 0.04923 0.98018 0.0
C319 C 0.82762 0.01901 0.96749 0.0
C320 C 0.78299 0.95162 0.96826 0.0
H321 H 0.12374 0.93712 0.34534 0.0
C322 C 0.09322 0.9385 0.35796 0.0
H323 H 1.00199 0.88403 0.37226 0.0
H324 H 1.00566 0.75449 0.27218 0.0
H325 H 1.00194 0.8475 0.25879 0.0
H326 H 0.99908 0.92988 0.28422 0.0
H327 H 1.00127 0.92005 0.32337 0.0
C328 C 0.03272 0.88552 0.35931 0.0
C329 C 1.01102 0.82562 0.34421 0.0
C330 C 1.00544 0.82948 0.32139 0.0
C331 C 1.00451 0.78051 0.30673 0.0
C332 C 1.00445 0.78884 0.28409 0.0
C333 C 1.00251 0.84226 0.27617 0.0
C334 C 1.00107 0.88874 0.29048 0.0
C335 C 1.00268 0.88276 0.31286 0.0
H336 H 0.93331 0.63151 0.28209 0.0
C337 C 0.98304 0.64071 0.28487 0.0
H338 H 0.0731 0.6934 0.30399 0.0
H339 H 1.00806 0.79678 0.38682 0.0
H340 H 1.00289 0.69917 0.40032 0.0
H341 H 0.99785 0.61241 0.3749 0.0
H342 H 0.99822 0.6229 0.33578 0.0
C343 C 0.02389 0.68531 0.30087 0.0
C344 C 1.00645 0.7263 0.31501 0.0
C345 C 1.00384 0.7185 0.33771 0.0
C346 C 1.0061 0.76821 0.35235 0.0
C347 C 1.00617 0.76036 0.375 0.0
C348 C 1.00312 0.70455 0.38295 0.0
C349 C 1.00033 0.65571 0.36864 0.0
C350 C 1.00082 0.66241 0.34627 0.0
H351 H 0.27367 0.98938 0.71304 0.0
C352 C 0.24239 0.01037 0.71079 0.0
H353 H 0.22018 0.06816 0.69082 0.0
H354 H 0.52494 0.13466 0.67206 0.0
H355 H 0.55494 0.19756 0.70711 0.0
H356 H 0.47013 0.19928 0.72897 0.0
H357 H 0.35458 0.13724 0.71602 0.0
C358 C 0.25022 0.0461 0.69356 0.0
C359 C 0.30231 0.05762 0.67832 0.0
C360 C 0.36995 0.09651 0.68564 0.0
C361 C 0.4191 0.0971 0.67274 0.0
C362 C 0.48577 0.1334 0.681 0.0
C363 C 0.50366 0.16971 0.70111 0.0
C364 C 0.45589 0.17058 0.71344 0.0
C365 C 0.38975 0.13447 0.70589 0.0
H366 H 0.50244 0.14111 0.62804 0.0
C367 C 0.49594 0.0923 0.62913 0.0
H368 H 0.43956 0.99792 0.64106 0.0
H369 H 0.17874 0.98774 0.65803 0.0
H370 H 0.1494 0.9313 0.62179 0.0
H371 H 0.23475 0.93412 0.59906 0.0
H372 H 0.35001 0.99326 0.61243 0.0
C373 C 0.44825 0.04781 0.64091 0.0
C374 C 0.40059 0.06025 0.65228 0.0
C375 C 0.3337 0.02672 0.64409 0.0
C376 C 0.2845 0.02549 0.65712 0.0
C377 C 0.21795 0.99025 0.64875 0.0
C378 C 0.20051 0.95777 0.62799 0.0
C379 C 0.24857 0.95931 0.6152 0.0
C380 C 0.31445 0.99319 0.62308 0.0
H381 H 0.30826 0.17312 0.01791 0.0
C382 C 0.29295 0.19348 0.03111 0.0
H383 H 0.29735 0.27905 0.04505 0.0
H384 H 0.52013 0.35906 0.96813 0.0
H385 H 0.57423 0.31903 0.99173 0.0
H386 H 0.5285 0.27316 0.02647 0.0
H387 H 0.42732 0.26559 0.03752 0.0
C388 C 0.31379 0.25832 0.03235 0.0
C389 C 0.35002 0.29982 0.01428 0.0
C390 C 0.41131 0.30766 0.00866 0.0
C391 C 0.43969 0.3376 0.98921 0.0
C392 C 0.49801 0.33974 0.98318 0.0
C393 C 0.52937 0.31648 0.99652 0.0
C394 C 0.50348 0.2904 0.01603 0.0
C395 C 0.44514 0.28588 0.02211 0.0
H396 H 0.52573 0.47144 0.96906 0.0
C397 C 0.4934 0.44909 0.95433 0.0
H398 H 0.40234 0.37113 0.9405 0.0
H399 H 0.23427 0.29695 0.02087 0.0
H400 H 0.18485 0.34473 0.99888 0.0
H401 H 0.2379 0.40332 0.96661 0.0
H402 H 0.34027 0.41369 0.956 0.0
C403 C 0.43545 0.39231 0.95509 0.0
C404 C 0.40873 0.36326 0.97606 0.0
C405 C 0.3498 0.35943 0.98251 0.0
C406 C 0.32011 0.32718 1.00147 0.0
C407 C 0.25984 0.32187 0.00691 0.0
C408 C 0.23073 0.34905 0.99439 0.0
C409 C 0.26051 0.38191 0.97621 0.0
C410 C 0.31926 0.38722 0.97026 0.0
H411 H 0.13327 0.26612 0.38077 0.0
C412 C 0.17929 0.26744 0.37842 0.0
H413 H 0.26933 0.31326 0.36319 0.0
H414 H 0.1605 0.398 0.28405 0.0
H415 H 0.18138 0.31711 0.26668 0.0
H416 H 0.21439 0.2524 0.28848 0.0
H417 H 0.22702 0.26858 0.32782 0.0
C418 C 0.22406 0.31292 0.3661 0.0
C419 C 0.20891 0.3561 0.35318 0.0
C420 C 0.20325 0.34717 0.33007 0.0
C421 C 0.1849 0.38507 0.31746 0.0
C422 C 0.17631 0.37243 0.29449 0.0
C423 C 0.18751 0.3255 0.28425 0.0
C424 C 0.20615 0.28912 0.29652 0.0
C425 C 0.21352 0.29922 0.31914 0.0
H426 H 0.23346 0.52533 0.29868 0.0
C427 C 0.18298 0.5125 0.30095 0.0
H428 H 0.09743 0.45581 0.31784 0.0
H429 H 0.22395 0.39179 0.39688 0.0
H430 H 0.20528 0.4746 0.41437 0.0
H431 H 0.172 0.53924 0.39257 0.0
H432 H 0.15769 0.52181 0.35313 0.0
C433 C 0.14746 0.46777 0.31517 0.0
C434 C 0.17352 0.43288 0.32797 0.0
C435 C 0.18106 0.44309 0.35103 0.0
C436 C 0.1993 0.40511 0.36364 0.0
C437 C 0.20836 0.41788 0.38657 0.0
C438 C 0.19826 0.46563 0.39681 0.0
C439 C 0.17959 0.50206 0.38453 0.0
C440 C 0.17126 0.49135 0.36191 0.0
loop_
_geom_bond_atom_site_label_1
_geom_bond_atom_site_label_2
_geom_bond_distance
_geom_bond_site_symmetry_2
_ccdc_geom_bond_type
Zn0 O3 2.031 1_545 S
Zn0 O5 2.049 . S
Zn0 O10 2.067 . S
Zn1 O2 1.962 . S
Zn1 O4 1.986 . S
Zn1 O6 1.996 . S
Zn1 O9 1.943 . S
O2 Zn1 1.962 . S
O2 C7 1.254 . S
O3 Zn0 2.031 1_565 S
O3 C7 1.269 1_565 S
O4 Zn1 1.986 . S
O4 C11 1.262 . S
O5 Zn0 2.049 . S
O5 C13 1.260 . S
O6 Zn1 1.996 . S
O6 C13 1.257 . S
C7 O2 1.254 . S
C7 O3 1.269 1_545 S
C8 O9 1.249 . S
C8 O10 1.270 . S
O9 Zn1 1.943 . S
O9 C8 1.249 . S
O10 Zn0 2.067 . S
O10 C8 1.270 . S
C11 O4 1.262 . S
C11 O12 1.232 . S
O12 C11 1.232 . S
C13 O5 1.260 . S
C13 O6 1.257 . S
Zn14 O17 2.031 . S
Zn14 O19 2.049 . S
Zn14 O24 2.067 . S
Zn15 O16 1.962 . S
Zn15 O18 1.986 1_455 S
Zn15 O20 1.996 . S
Zn15 O23 1.943 . S
O16 Zn15 1.962 . S
O16 C21 1.254 . S
O17 Zn14 2.031 . S
O17 C21 1.269 . S
O18 Zn15 1.986 1_655 S
O18 C25 1.262 . S
O19 Zn14 2.049 . S
O19 C27 1.260 . S
O20 Zn15 1.996 . S
O20 C27 1.257 . S
C21 O16 1.254 . S
C21 O17 1.269 . S
C22 O23 1.249 . S
C22 O24 1.270 . S
O23 Zn15 1.943 . S
O23 C22 1.249 . S
O24 Zn14 2.067 . S
O24 C22 1.270 . S
C25 O18 1.262 . S
C25 O26 1.232 . S
O26 C25 1.232 . S
C27 O19 1.260 . S
C27 O20 1.257 . S
Zn28 O31 2.031 1_565 S
Zn28 O33 2.049 . S
Zn28 O38 2.067 1_565 S
Zn29 O30 1.962 1_545 S
Zn29 O32 1.986 1_455 S
Zn29 O34 1.996 1_545 S
Zn29 O37 1.943 . S
O30 Zn29 1.962 1_565 S
O30 C35 1.254 1_565 S
O31 Zn28 2.031 1_545 S
O31 C35 1.269 . S
O32 Zn29 1.986 1_655 S
O32 C39 1.262 . S
O33 Zn28 2.049 . S
O33 C41 1.260 . S
O34 Zn29 1.996 1_565 S
O34 C41 1.257 . S
C35 O30 1.254 1_545 S
C35 O31 1.269 . S
C36 O37 1.249 . S
C36 O38 1.270 . S
O37 Zn29 1.943 . S
O37 C36 1.249 . S
O38 Zn28 2.067 1_545 S
O38 C36 1.270 . S
C39 O32 1.262 . S
C39 O40 1.232 1_655 S
O40 C39 1.232 1_455 S
C41 O33 1.260 . S
C41 O34 1.257 . S
Mg42 O49 2.141 . S
Mg42 O50 2.048 . S
Mg42 O51 2.048 . S
Mg42 O54 2.141 . S
C43 O44 1.313 . S
C43 O50 1.195 . S
O44 C43 1.313 . S
C45 O46 1.245 . S
C45 O54 1.289 . S
O46 C45 1.245 . S
C47 O48 1.245 . S
C47 O49 1.289 . S
O48 C47 1.245 . S
O49 Mg42 2.141 . S
O49 C47 1.289 . S
O50 Mg42 2.048 . S
O50 C43 1.195 . S
O51 Mg42 2.048 . S
O51 C52 1.195 . S
C52 O51 1.195 . S
C52 O53 1.313 . S
O53 C52 1.313 . S
O54 Mg42 2.141 . S
O54 C45 1.289 . S
Mg55 O62 2.141 . S
Mg55 O63 2.048 . S
Mg55 O64 2.048 . S
Mg55 O67 2.141 . S
C56 O57 1.320 . S
C56 O63 1.195 . S
O57 C56 1.320 . S
C58 O59 1.245 1_545 S
C58 O67 1.289 . S
O59 C58 1.245 1_565 S
C60 O61 1.245 1_545 S
C60 O62 1.289 . S
O61 C60 1.245 1_565 S
O62 Mg55 2.141 . S
O62 C60 1.289 . S
O63 Mg55 2.048 . S
O63 C56 1.195 . S
O64 Mg55 2.048 . S
O64 C65 1.195 . S
C65 O64 1.195 . S
C65 O66 1.318 . S
O66 C65 1.318 . S
O67 Mg55 2.141 . S
O67 C58 1.289 . S
Mg68 O75 2.141 . S
Mg68 O76 2.048 . S
Mg68 O77 2.048 . S
Mg68 O80 2.141 . S
C69 O70 1.313 . S
C69 O76 1.195 . S
O70 C69 1.313 . S
C71 O72 1.245 . S
C71 O80 1.289 . S
O72 C71 1.245 . S
C73 O74 1.245 . S
C73 O75 1.289 . S
O74 C73 1.245 . S
O75 Mg68 2.141 . S
O75 C73 1.289 . S
O76 Mg68 2.048 . S
O76 C69 1.195 . S
O77 Mg68 2.048 . S
O77 C78 1.195 . S
C78 O77 1.195 . S
C78 O79 1.313 . S
O79 C78 1.313 . S
O80 Mg68 2.141 . S
O80 C71 1.289 . S
H81 C82 0.951 . S
C82 H81 0.951 . S
C82 C88 1.265 . S
H83 C88 0.950 . S
H84 C92 0.949 . S
H85 C93 0.950 . S
H86 C94 0.951 . S
H87 C95 0.951 . S
C88 C82 1.265 . S
C88 H83 0.950 . S
C88 C89 1.478 . S
C89 C88 1.478 . S
C89 C90 1.397 . S
C89 C106 1.394 . S
C90 C89 1.397 . S
C90 C91 1.438 . S
C90 C95 1.429 . S
C91 C90 1.438 . S
C91 C92 1.428 . S
C91 C104 1.394 . S
C92 H84 0.949 . S
C92 C91 1.428 . S
C92 C93 1.345 . S
C93 H85 0.950 . S
C93 C92 1.345 . S
C93 C94 1.424 . S
C94 H86 0.951 . S
C94 C93 1.424 . S
C94 C95 1.347 . S
C95 H87 0.951 . S
C95 C90 1.429 . S
C95 C94 1.347 . S
H96 C97 0.951 . S
C97 H96 0.951 . S
C97 C103 1.265 . S
H98 C103 0.950 . S
H99 C107 0.949 . S
H100 C108 0.950 . S
H101 C109 0.951 . S
H102 C110 0.951 . S
C103 C97 1.265 . S
C103 H98 0.950 . S
C103 C104 1.478 . S
C104 C91 1.394 . S
C104 C103 1.478 . S
C104 C105 1.397 . S
C105 C104 1.397 . S
C105 C106 1.438 . S
C105 C110 1.429 . S
C106 C89 1.394 . S
C106 C105 1.438 . S
C106 C107 1.428 . S
C107 H99 0.949 . S
C107 C106 1.428 . S
C107 C108 1.345 . S
C108 H100 0.950 . S
C108 C107 1.345 . S
C108 C109 1.424 . S
C109 H101 0.951 . S
C109 C108 1.424 . S
C109 C110 1.347 . S
C110 H102 0.951 . S
C110 C105 1.429 . S
C110 C109 1.347 . S
H111 C112 0.951 . S
C112 H111 0.951 . S
C112 C118 1.265 . S
H113 C118 0.950 . S
H114 C122 0.949 . S
H115 C123 0.950 . S
H116 C124 0.951 . S
H117 C125 0.951 . S
C118 C112 1.265 . S
C118 H113 0.950 . S
C118 C119 1.478 . S
C119 C118 1.478 . S
C119 C120 1.397 . S
C119 C136 1.394 . S
C120 C119 1.397 . S
C120 C121 1.438 . S
C120 C125 1.429 . S
C121 C120 1.438 . S
C121 C122 1.428 . S
C121 C134 1.394 . S
C122 H114 0.949 . S
C122 C121 1.428 . S
C122 C123 1.345 . S
C123 H115 0.950 . S
C123 C122 1.345 . S
C123 C124 1.424 . S
C124 H116 0.951 . S
C124 C123 1.424 . S
C124 C125 1.347 . S
C125 H117 0.951 . S
C125 C120 1.429 . S
C125 C124 1.347 . S
H126 C127 0.951 . S
C127 H126 0.951 . S
C127 C133 1.265 . S
H128 C133 0.950 . S
H129 C137 0.949 . S
H130 C138 0.950 . S
H131 C139 0.951 . S
H132 C140 0.951 . S
C133 C127 1.265 . S
C133 H128 0.950 . S
C133 C134 1.478 . S
C134 C121 1.394 . S
C134 C133 1.478 . S
C134 C135 1.397 . S
C135 C134 1.397 . S
C135 C136 1.438 . S
C135 C140 1.429 1_545 S
C136 C119 1.394 . S
C136 C135 1.438 . S
C136 C137 1.428 1_545 S
C137 H129 0.949 . S
C137 C136 1.428 1_565 S
C137 C138 1.345 . S
C138 H130 0.950 . S
C138 C137 1.345 . S
C138 C139 1.424 . S
C139 H131 0.951 . S
C139 C138 1.424 . S
C139 C140 1.347 . S
C140 H132 0.951 . S
C140 C135 1.429 1_565 S
C140 C139 1.347 . S
H141 C142 0.951 . S
C142 H141 0.951 . S
C142 C148 1.265 . S
H143 C148 0.950 . S
H144 C152 0.949 . S
H145 C153 0.950 . S
H146 C154 0.951 1_455 S
H147 C155 0.951 1_455 S
C148 C142 1.265 . S
C148 H143 0.950 . S
C148 C149 1.478 . S
C149 C148 1.478 . S
C149 C150 1.397 . S
C149 C166 1.394 . S
C150 C149 1.397 . S
C150 C151 1.438 . S
C150 C155 1.429 . S
C151 C150 1.438 . S
C151 C152 1.428 . S
C151 C164 1.394 . S
C152 H144 0.949 . S
C152 C151 1.428 . S
C152 C153 1.345 . S
C153 H145 0.950 . S
C153 C152 1.345 . S
C153 C154 1.424 . S
C154 H146 0.951 1_655 S
C154 C153 1.424 . S
C154 C155 1.347 . S
C155 H147 0.951 1_655 S
C155 C150 1.429 . S
C155 C154 1.347 . S
H156 C157 0.951 . S
C157 H156 0.951 . S
C157 C163 1.265 . S
H158 C163 0.950 . S
H159 C167 0.949 . S
H160 C168 0.950 . S
H161 C169 0.951 . S
H162 C170 0.951 . S
C163 C157 1.265 . S
C163 H158 0.950 . S
C163 C164 1.478 . S
C164 C151 1.394 . S
C164 C163 1.478 . S
C164 C165 1.397 . S
C165 C164 1.397 . S
C165 C166 1.438 . S
C165 C170 1.429 . S
C166 C149 1.394 . S
C166 C165 1.438 . S
C166 C167 1.428 . S
C167 H159 0.949 . S
C167 C166 1.428 . S
C167 C168 1.345 . S
C168 H160 0.950 . S
C168 C167 1.345 . S
C168 C169 1.424 . S
C169 H161 0.951 . S
C169 C168 1.424 . S
C169 C170 1.347 . S
C170 H162 0.951 . S
C170 C165 1.429 . S
C170 C169 1.347 . S
H171 C172 0.951 . S
C172 H171 0.951 . S
C172 C178 1.265 . S
H173 C178 0.950 . S
H174 C182 0.949 . S
H175 C183 0.950 . S
H176 C184 0.951 1_545 S
H177 C185 0.951 . S
C178 C172 1.265 . S
C178 H173 0.950 . S
C178 C179 1.478 . S
C179 C178 1.478 . S
C179 C180 1.397 . S
C179 C196 1.394 . S
C180 C179 1.397 . S
C180 C181 1.438 . S
C180 C185 1.429 . S
C181 C180 1.438 . S
C181 C182 1.428 . S
C181 C194 1.394 . S
C182 H174 0.949 . S
C182 C181 1.428 . S
C182 C183 1.345 . S
C183 H175 0.950 . S
C183 C182 1.345 . S
C183 C184 1.424 . S
C184 H176 0.951 1_565 S
C184 C183 1.424 . S
C184 C185 1.347 . S
C185 H177 0.951 . S
C185 C180 1.429 . S
C185 C184 1.347 . S
H186 C187 0.951 . S
C187 H186 0.951 . S
C187 C193 1.265 . S
H188 C193 0.950 . S
H189 C197 0.949 . S
H190 C198 0.950 . S
H191 C199 0.951 . S
H192 C200 0.951 . S
C193 C187 1.265 . S
C193 H188 0.950 . S
C193 C194 1.478 . S
C194 C181 1.394 . S
C194 C193 1.478 . S
C194 C195 1.397 . S
C195 C194 1.397 . S
C195 C196 1.438 . S
C195 C200 1.429 1_455 S
C196 C179 1.394 . S
C196 C195 1.438 . S
C196 C197 1.428 . S
C197 H189 0.949 . S
C197 C196 1.428 . S
C197 C198 1.345 1_455 S
C198 H190 0.950 . S
C198 C197 1.345 1_655 S
C198 C199 1.424 . S
C199 H191 0.951 . S
C199 C198 1.424 . S
C199 C200 1.347 . S
C200 H192 0.951 . S
C200 C195 1.429 1_655 S
C200 C199 1.347 . S
H201 C202 0.951 . S
C202 H201 0.951 . S
C202 C208 1.265 . S
H203 C208 0.950 . S
H204 C212 0.949 . S
H205 C213 0.950 . S
H206 C214 0.951 . S
H207 C215 0.951 . S
C208 C202 1.265 . S
C208 H203 0.950 . S
C208 C209 1.478 . S
C209 C208 1.478 . S
C209 C210 1.397 . S
C209 C226 1.394 . S
C210 C209 1.397 . S
C210 C211 1.438 . S
C210 C215 1.429 1_545 S
C211 C210 1.438 . S
C211 C212 1.428 1_545 S
C211 C224 1.394 . S
C212 H204 0.949 . S
C212 C211 1.428 1_565 S
C212 C213 1.345 . S
C213 H205 0.950 . S
C213 C212 1.345 . S
C213 C214 1.424 . S
C214 H206 0.951 . S
C214 C213 1.424 . S
C214 C215 1.347 . S
C215 H207 0.951 . S
C215 C210 1.429 1_565 S
C215 C214 1.347 . S
H216 C217 0.951 . S
C217 H216 0.951 . S
C217 C223 1.265 . S
H218 C223 0.950 . S
H219 C227 0.949 . S
H220 C228 0.950 . S
H221 C229 0.951 . S
H222 C230 0.951 . S
C223 C217 1.265 . S
C223 H218 0.950 . S
C223 C224 1.478 . S
C224 C211 1.394 . S
C224 C223 1.478 . S
C224 C225 1.397 . S
C225 C224 1.397 . S
C225 C226 1.438 . S
C225 C230 1.429 . S
C226 C209 1.394 . S
C226 C225 1.438 . S
C226 C227 1.428 . S
C227 H219 0.949 . S
C227 C226 1.428 . S
C227 C228 1.345 . S
C228 H220 0.950 . S
C228 C227 1.345 . S
C228 C229 1.424 . S
C229 H221 0.951 . S
C229 C228 1.424 . S
C229 C230 1.347 . S
C230 H222 0.951 . S
C230 C225 1.429 . S
C230 C229 1.347 . S
H231 C232 0.951 . S
C232 H231 0.951 . S
C232 C238 1.265 . S
H233 C238 0.950 . S
H234 C242 0.949 . S
H235 C243 0.950 . S
H236 C244 0.951 . S
H237 C245 0.951 . S
C238 C232 1.265 . S
C238 H233 0.950 . S
C238 C239 1.478 . S
C239 C238 1.478 . S
C239 C240 1.397 . S
C239 C256 1.394 . S
C240 C239 1.397 . S
C240 C241 1.438 . S
C240 C245 1.429 . S
C241 C240 1.438 . S
C241 C242 1.428 . S
C241 C254 1.394 . S
C242 H234 0.949 . S
C242 C241 1.428 . S
C242 C243 1.345 . S
C243 H235 0.950 . S
C243 C242 1.345 . S
C243 C244 1.424 . S
C244 H236 0.951 . S
C244 C243 1.424 . S
C244 C245 1.347 . S
C245 H237 0.951 . S
C245 C240 1.429 . S
C245 C244 1.347 . S
H246 C247 0.951 . S
C247 H246 0.951 . S
C247 C253 1.265 . S
H248 C253 0.950 . S
H249 C257 0.949 . S
H250 C258 0.950 . S
H251 C259 0.951 . S
H252 C260 0.951 . S
C253 C247 1.265 . S
C253 H248 0.950 . S
C253 C254 1.478 . S
C254 C241 1.394 . S
C254 C253 1.478 . S
C254 C255 1.397 . S
C255 C254 1.397 . S
C255 C256 1.438 . S
C255 C260 1.429 . S
C256 C239 1.394 . S
C256 C255 1.438 . S
C256 C257 1.428 . S
C257 H249 0.949 . S
C257 C256 1.428 . S
C257 C258 1.345 . S
C258 H250 0.950 . S
C258 C257 1.345 . S
C258 C259 1.424 . S
C259 H251 0.951 . S
C259 C258 1.424 . S
C259 C260 1.347 . S
C260 H252 0.951 . S
C260 C255 1.429 . S
C260 C259 1.347 . S
H261 C262 0.951 . S
C262 H261 0.951 . S
C262 C268 1.265 . S
H263 C268 0.950 . S
H264 C272 0.949 . S
H265 C273 0.950 . S
H266 C274 0.951 . S
H267 C275 0.951 . S
C268 C262 1.265 . S
C268 H263 0.950 . S
C268 C269 1.478 . S
C269 C268 1.478 . S
C269 C270 1.399 . S
C269 C286 1.394 . S
C270 C269 1.399 . S
C270 C271 1.441 . S
C270 C275 1.423 1_545 S
C271 C270 1.441 . S
C271 C272 1.428 1_545 S
C271 C284 1.394 . S
C272 H264 0.949 . S
C272 C271 1.428 1_565 S
C272 C273 1.345 . S
C273 H265 0.950 . S
C273 C272 1.345 . S
C273 C274 1.424 . S
C274 H266 0.951 . S
C274 C273 1.424 . S
C274 C275 1.347 . S
C275 H267 0.951 . S
C275 C270 1.423 1_565 S
C275 C274 1.347 . S
H276 C277 0.951 . S
C277 H276 0.951 . S
C277 C283 1.265 . S
H278 C283 0.950 . S
H279 C287 0.949 . S
H280 C288 0.950 . S
H281 C289 0.951 . S
H282 C290 0.951 . S
C283 C277 1.265 . S
C283 H278 0.950 . S
C283 C284 1.478 . S
C284 C271 1.394 . S
C284 C283 1.478 . S
C284 C285 1.397 . S
C285 C284 1.397 . S
C285 C286 1.438 . S
C285 C290 1.429 . S
C286 C269 1.394 . S
C286 C285 1.438 . S
C286 C287 1.428 . S
C287 H279 0.949 . S
C287 C286 1.428 . S
C287 C288 1.345 . S
C288 H280 0.950 . S
C288 C287 1.345 . S
C288 C289 1.424 . S
C289 H281 0.951 . S
C289 C288 1.424 . S
C289 C290 1.347 . S
C290 H282 0.951 . S
C290 C285 1.429 . S
C290 C289 1.347 . S
H291 C292 0.951 . S
C292 H291 0.951 . S
C292 C298 1.265 . S
H293 C298 0.950 . S
H294 C302 0.949 1_556 S
H295 C303 0.950 . S
H296 C304 0.951 . S
H297 C305 0.951 . S
C298 C292 1.265 . S
C298 H293 0.950 . S
C298 C299 1.478 . S
C299 C298 1.478 . S
C299 C300 1.397 . S
C299 C316 1.394 1_554 S
C300 C299 1.397 . S
C300 C301 1.437 1_554 S
C300 C305 1.429 . S
C301 C300 1.437 1_556 S
C301 C302 1.427 1_556 S
C301 C314 1.396 . S
C302 H294 0.949 1_554 S
C302 C301 1.427 1_554 S
C302 C303 1.345 . S
C303 H295 0.950 . S
C303 C302 1.345 . S
C303 C304 1.424 . S
C304 H296 0.951 . S
C304 C303 1.424 . S
C304 C305 1.347 . S
C305 H297 0.951 . S
C305 C300 1.429 . S
C305 C304 1.347 . S
H306 C307 0.951 . S
C307 H306 0.951 . S
C307 C313 1.265 . S
H308 C313 0.950 . S
H309 C317 0.949 1_455 S
H310 C318 0.950 . S
H311 C319 0.951 . S
H312 C320 0.951 . S
C313 C307 1.265 . S
C313 H308 0.950 . S
C313 C314 1.478 . S
C314 C301 1.396 . S
C314 C313 1.478 . S
C314 C315 1.397 . S
C315 C314 1.397 . S
C315 C316 1.438 . S
C315 C320 1.429 . S
C316 C299 1.394 1_556 S
C316 C315 1.438 . S
C316 C317 1.428 . S
C317 H309 0.949 1_655 S
C317 C316 1.428 . S
C317 C318 1.345 1_655 S
C318 H310 0.950 . S
C318 C317 1.345 1_455 S
C318 C319 1.424 1_455 S
C319 H311 0.951 . S
C319 C318 1.424 1_655 S
C319 C320 1.347 . S
C320 H312 0.951 . S
C320 C315 1.429 . S
C320 C319 1.347 . S
H321 C322 0.951 . S
C322 H321 0.951 . S
C322 C328 1.265 . S
H323 C328 0.950 1_655 S
H324 C332 0.949 . S
H325 C333 0.950 . S
H326 C334 0.951 . S
H327 C335 0.951 1_655 S
C328 C322 1.265 . S
C328 H323 0.950 1_455 S
C328 C329 1.478 . S
C329 C328 1.478 . S
C329 C330 1.397 . S
C329 C346 1.394 . S
C330 C329 1.397 . S
C330 C331 1.438 . S
C330 C335 1.429 . S
C331 C330 1.438 . S
C331 C332 1.428 . S
C331 C344 1.394 . S
C332 H324 0.949 . S
C332 C331 1.428 . S
C332 C333 1.345 . S
C333 H325 0.950 . S
C333 C332 1.345 . S
C333 C334 1.424 1_455 S
C334 H326 0.951 . S
C334 C333 1.424 1_655 S
C334 C335 1.347 1_655 S
C335 H327 0.951 1_455 S
C335 C330 1.429 . S
C335 C334 1.347 1_455 S
H336 C337 0.951 . S
C337 H336 0.951 . S
C337 C343 1.265 . S
H338 C343 0.950 . S
H339 C347 0.949 . S
H340 C348 0.950 . S
H341 C349 0.951 . S
H342 C350 0.951 . S
C343 C337 1.265 . S
C343 H338 0.950 . S
C343 C344 1.478 . S
C344 C331 1.394 . S
C344 C343 1.478 . S
C344 C345 1.397 . S
C345 C344 1.397 . S
C345 C346 1.438 . S
C345 C350 1.429 . S
C346 C329 1.394 . S
C346 C345 1.438 . S
C346 C347 1.428 . S
C347 H339 0.949 . S
C347 C346 1.428 . S
C347 C348 1.345 . S
C348 H340 0.950 . S
C348 C347 1.345 . S
C348 C349 1.424 . S
C349 H341 0.951 . S
C349 C348 1.424 . S
C349 C350 1.347 . S
C350 H342 0.951 . S
C350 C345 1.429 . S
C350 C349 1.347 . S
H351 C352 0.951 1_565 S
C352 H351 0.951 1_545 S
C352 C358 1.265 . S
H353 C358 0.950 . S
H354 C362 0.949 . S
H355 C363 0.950 . S
H356 C364 0.951 . S
H357 C365 0.951 . S
C358 C352 1.265 . S
C358 H353 0.950 . S
C358 C359 1.478 . S
C359 C358 1.478 . S
C359 C360 1.397 . S
C359 C376 1.394 . S
C360 C359 1.397 . S
C360 C361 1.438 . S
C360 C365 1.429 . S
C361 C360 1.438 . S
C361 C362 1.428 . S
C361 C374 1.394 . S
C362 H354 0.949 . S
C362 C361 1.428 . S
C362 C363 1.345 . S
C363 H355 0.950 . S
C363 C362 1.345 . S
C363 C364 1.424 . S
C364 H356 0.951 . S
C364 C363 1.424 . S
C364 C365 1.347 . S
C365 H357 0.951 . S
C365 C360 1.429 . S
C365 C364 1.347 . S
H366 C367 0.951 . S
C367 H366 0.951 . S
C367 C373 1.265 . S
H368 C373 0.950 1_565 S
H369 C377 0.949 . S
H370 C378 0.950 . S
H371 C379 0.951 . S
H372 C380 0.951 . S
C373 C367 1.265 . S
C373 H368 0.950 1_545 S
C373 C374 1.478 . S
C374 C361 1.394 . S
C374 C373 1.478 . S
C374 C375 1.397 . S
C375 C374 1.397 . S
C375 C376 1.438 . S
C375 C380 1.429 . S
C376 C359 1.394 . S
C376 C375 1.438 . S
C376 C377 1.428 . S
C377 H369 0.949 . S
C377 C376 1.428 . S
C377 C378 1.345 . S
C378 H370 0.950 . S
C378 C377 1.345 . S
C378 C379 1.424 . S
C379 H371 0.951 . S
C379 C378 1.424 . S
C379 C380 1.347 . S
C380 H372 0.951 . S
C380 C375 1.429 . S
C380 C379 1.347 . S
H381 C382 0.951 . S
C382 H381 0.951 . S
C382 C388 1.265 . S
H383 C388 0.950 . S
H384 C392 0.949 1_556 S
H385 C393 0.950 . S
H386 C394 0.951 . S
H387 C395 0.951 . S
C388 C382 1.265 . S
C388 H383 0.950 . S
C388 C389 1.478 . S
C389 C388 1.478 . S
C389 C390 1.397 . S
C389 C406 1.394 1_554 S
C390 C389 1.397 . S
C390 C391 1.438 1_554 S
C390 C395 1.429 . S
C391 C390 1.438 1_556 S
C391 C392 1.428 1_556 S
C391 C404 1.394 . S
C392 H384 0.949 1_554 S
C392 C391 1.428 1_554 S
C392 C393 1.345 . S
C393 H385 0.950 . S
C393 C392 1.345 . S
C393 C394 1.424 . S
C394 H386 0.951 . S
C394 C393 1.424 . S
C394 C395 1.347 . S
C395 H387 0.951 . S
C395 C390 1.429 . S
C395 C394 1.347 . S
H396 C397 0.951 . S
C397 H396 0.951 . S
C397 C403 1.265 . S
H398 C403 0.950 . S
H399 C407 0.949 . S
H400 C408 0.950 . S
H401 C409 0.951 . S
H402 C410 0.951 . S
C403 C397 1.265 . S
C403 H398 0.950 . S
C403 C404 1.478 . S
C404 C391 1.394 . S
C404 C403 1.478 . S
C404 C405 1.397 . S
C405 C404 1.397 . S
C405 C406 1.438 . S
C405 C410 1.429 . S
C406 C389 1.394 1_556 S
C406 C405 1.438 . S
C406 C407 1.428 . S
C407 H399 0.949 . S
C407 C406 1.428 . S
C407 C408 1.345 . S
C408 H400 0.950 . S
C408 C407 1.345 . S
C408 C409 1.424 . S
C409 H401 0.951 . S
C409 C408 1.424 . S
C409 C410 1.347 . S
C410 H402 0.951 . S
C410 C405 1.429 . S
C410 C409 1.347 . S
H411 C412 0.951 . S
C412 H411 0.951 . S
C412 C418 1.265 . S
H413 C418 0.950 . S
H414 C422 0.949 . S
H415 C423 0.950 . S
H416 C424 0.951 . S
H417 C425 0.951 . S
C418 C412 1.265 . S
C418 H413 0.950 . S
C418 C419 1.478 . S
C419 C418 1.478 . S
C419 C420 1.397 . S
C419 C436 1.394 . S
C420 C419 1.397 . S
C420 C421 1.438 . S
C420 C425 1.429 . S
C421 C420 1.438 . S
C421 C422 1.428 . S
C421 C434 1.394 . S
C422 H414 0.949 . S
C422 C421 1.428 . S
C422 C423 1.345 . S
C423 H415 0.950 . S
C423 C422 1.345 . S
C423 C424 1.424 . S
C424 H416 0.951 . S
C424 C423 1.424 . S
C424 C425 1.347 . S
C425 H417 0.951 . S
C425 C420 1.429 . S
C425 C424 1.347 . S
H426 C427 0.951 . S
C427 H426 0.951 . S
C427 C433 1.265 . S
H428 C433 0.950 . S
H429 C437 0.949 . S
H430 C438 0.950 . S
H431 C439 0.951 . S
H432 C440 0.951 . S
C433 C427 1.265 . S
C433 H428 0.950 . S
C433 C434 1.478 . S
C434 C421 1.394 . S
C434 C433 1.478 . S
C434 C435 1.397 . S
C435 C434 1.397 . S
C435 C436 1.438 . S
C435 C440 1.429 . S
C436 C419 1.394 . S
C436 C435 1.438 . S
C436 C437 1.428 . S
C437 H429 0.949 . S
C437 C436 1.428 . S
C437 C438 1.345 . S
C438 H430 0.950 . S
C438 C437 1.345 . S
C438 C439 1.424 . S
C439 H431 0.951 . S
C439 C438 1.424 . S
C439 C440 1.347 . S
C440 H432 0.951 . S
C440 C435 1.429 . S
C440 C439 1.347 . S
C97 C47 1.232 . S
C82 C11 1.246 . S
C112 C25 1.409 . S
C127 C65 1.396 . S
C142 C41 1.398 1_655 S
C157 C78 1.402 . S
C172 C7 1.316 1_565 S
C187 C45 1.329 . S
C217 C56 1.443 . S
C202 C21 1.441 . S
C232 C36 1.393 . S
C247 C69 1.464 . S
C277 C58 1.315 . S
C262 C39 1.335 . S
C292 C8 1.338 1_665 S
C307 C71 1.375 . S
C337 C52 1.480 . S
C322 C22 1.403 1_565 S
C367 C60 1.381 . S
C352 C35 1.378 . S
C397 C73 1.354 . S
C382 C13 1.224 . S
C412 C27 1.445 . S
C427 C43 1.463 . S
