# Generated by pormake.
# Topology gar, (4,6)-cn, num edge types: 1
# Building blocks:
#     Node 0, Type 0, BuildingBlock: NAHDIM_clean_sbu_0, # of connection points: 4
#     Node 1, Type 0, BuildingBlock: NAHDIM_clean_sbu_0, # of connection points: 4
#     Node 2, Type 0, BuildingBlock: NAHDIM_clean_sbu_0, # of connection points: 4
#     Node 3, Type 0, BuildingBlock: NAHDIM_clean_sbu_0, # of connection points: 4
#     Node 4, Type 0, BuildingBlock: NAHDIM_clean_sbu_0, # of connection points: 4
#     Node 5, Type 0, BuildingBlock: NAHDIM_clean_sbu_0, # of connection points: 4
#     Node 6, Type 0, BuildingBlock: NAHDIM_clean_sbu_0, # of connection points: 4
#     Node 7, Type 0, BuildingBlock: NAHDIM_clean_sbu_0, # of connection points: 4
#     Node 8, Type 0, BuildingBlock: NAHDIM_clean_sbu_0, # of connection points: 4
#     Node 9, Type 0, BuildingBlock: NAHDIM_clean_sbu_0, # of connection points: 4
#     Node 10, Type 0, BuildingBlock: NAHDIM_clean_sbu_0, # of connection points: 4
#     Node 11, Type 0, BuildingBlock: NAHDIM_clean_sbu_0, # of connection points: 4
#     Node 12, Type 0, BuildingBlock: NAHDIM_clean_sbu_0, # of connection points: 4
#     Node 13, Type 0, BuildingBlock: NAHDIM_clean_sbu_0, # of connection points: 4
#     Node 14, Type 0, BuildingBlock: NAHDIM_clean_sbu_0, # of connection points: 4
#     Node 15, Type 0, BuildingBlock: NAHDIM_clean_sbu_0, # of connection points: 4
#     Node 16, Type 0, BuildingBlock: NAHDIM_clean_sbu_0, # of connection points: 4
#     Node 17, Type 0, BuildingBlock: NAHDIM_clean_sbu_0, # of connection points: 4
#     Node 18, Type 0, BuildingBlock: NAHDIM_clean_sbu_0, # of connection points: 4
#     Node 19, Type 0, BuildingBlock: NAHDIM_clean_sbu_0, # of connection points: 4
#     Node 20, Type 0, BuildingBlock: NAHDIM_clean_sbu_0, # of connection points: 4
#     Node 21, Type 0, BuildingBlock: NAHDIM_clean_sbu_0, # of connection points: 4
#     Node 22, Type 0, BuildingBlock: NAHDIM_clean_sbu_0, # of connection points: 4
#     Node 23, Type 0, BuildingBlock: NAHDIM_clean_sbu_0, # of connection points: 4
#     Node 24, Type 1, BuildingBlock: BETDEL_clean_sbu_0, # of connection points: 6
#     Node 25, Type 1, BuildingBlock: BETDEL_clean_sbu_0, # of connection points: 6
#     Node 26, Type 1, BuildingBlock: BETDEL_clean_sbu_0, # of connection points: 6
#     Node 27, Type 1, BuildingBlock: BETDEL_clean_sbu_0, # of connection points: 6
#     Node 28, Type 1, BuildingBlock: BETDEL_clean_sbu_0, # of connection points: 6
#     Node 29, Type 1, BuildingBlock: BETDEL_clean_sbu_0, # of connection points: 6
#     Node 30, Type 1, BuildingBlock: BETDEL_clean_sbu_0, # of connection points: 6
#     Node 31, Type 1, BuildingBlock: BETDEL_clean_sbu_0, # of connection points: 6
#     Node 32, Type 1, BuildingBlock: BETDEL_clean_sbu_0, # of connection points: 6
#     Node 33, Type 1, BuildingBlock: BETDEL_clean_sbu_0, # of connection points: 6
#     Node 34, Type 1, BuildingBlock: BETDEL_clean_sbu_0, # of connection points: 6
#     Node 35, Type 1, BuildingBlock: BETDEL_clean_sbu_0, # of connection points: 6
#     Node 36, Type 1, BuildingBlock: BETDEL_clean_sbu_0, # of connection points: 6
#     Node 37, Type 1, BuildingBlock: BETDEL_clean_sbu_0, # of connection points: 6
#     Node 38, Type 1, BuildingBlock: BETDEL_clean_sbu_0, # of connection points: 6
#     Node 39, Type 1, BuildingBlock: BETDEL_clean_sbu_0, # of connection points: 6
#     Edge 40, Type (0, 1), BuildingBlock: OJICUG_clean_linker_0, # of connection points: 2
#     Edge 41, Type (0, 1), BuildingBlock: OJICUG_clean_linker_0, # of connection points: 2
#     Edge 42, Type (0, 1), BuildingBlock: OJICUG_clean_linker_0, # of connection points: 2
#     Edge 43, Type (0, 1), BuildingBlock: OJICUG_clean_linker_0, # of connection points: 2
#     Edge 44, Type (0, 1), BuildingBlock: OJICUG_clean_linker_0, # of connection points: 2
#     Edge 45, Type (0, 1), BuildingBlock: OJICUG_clean_linker_0, # of connection points: 2
#     Edge 46, Type (0, 1), BuildingBlock: OJICUG_clean_linker_0, # of connection points: 2
#     Edge 47, Type (0, 1), BuildingBlock: OJICUG_clean_linker_0, # of connection points: 2
#     Edge 48, Type (0, 1), BuildingBlock: OJICUG_clean_linker_0, # of connection points: 2
#     Edge 49, Type (0, 1), BuildingBlock: OJICUG_clean_linker_0, # of connection points: 2
#     Edge 50, Type (0, 1), BuildingBlock: OJICUG_clean_linker_0, # of connection points: 2
#     Edge 51, Type (0, 1), BuildingBlock: OJICUG_clean_linker_0, # of connection points: 2
#     Edge 52, Type (0, 1), BuildingBlock: OJICUG_clean_linker_0, # of connection points: 2
#     Edge 53, Type (0, 1), BuildingBlock: OJICUG_clean_linker_0, # of connection points: 2
#     Edge 54, Type (0, 1), BuildingBlock: OJICUG_clean_linker_0, # of connection points: 2
#     Edge 55, Type (0, 1), BuildingBlock: OJICUG_clean_linker_0, # of connection points: 2
#     Edge 56, Type (0, 1), BuildingBlock: OJICUG_clean_linker_0, # of connection points: 2
#     Edge 57, Type (0, 1), BuildingBlock: OJICUG_clean_linker_0, # of connection points: 2
#     Edge 58, Type (0, 1), BuildingBlock: OJICUG_clean_linker_0, # of connection points: 2
#     Edge 59, Type (0, 1), BuildingBlock: OJICUG_clean_linker_0, # of connection points: 2
#     Edge 60, Type (0, 1), BuildingBlock: OJICUG_clean_linker_0, # of connection points: 2
#     Edge 61, Type (0, 1), BuildingBlock: OJICUG_clean_linker_0, # of connection points: 2
#     Edge 62, Type (0, 1), BuildingBlock: OJICUG_clean_linker_0, # of connection points: 2
#     Edge 63, Type (0, 1), BuildingBlock: OJICUG_clean_linker_0, # of connection points: 2
#     Edge 64, Type (0, 1), BuildingBlock: OJICUG_clean_linker_0, # of connection points: 2
#     Edge 65, Type (0, 1), BuildingBlock: OJICUG_clean_linker_0, # of connection points: 2
#     Edge 66, Type (0, 1), BuildingBlock: OJICUG_clean_linker_0, # of connection points: 2
#     Edge 67, Type (0, 1), BuildingBlock: OJICUG_clean_linker_0, # of connection points: 2
#     Edge 68, Type (0, 1), BuildingBlock: OJICUG_clean_linker_0, # of connection points: 2
#     Edge 69, Type (0, 1), BuildingBlock: OJICUG_clean_linker_0, # of connection points: 2
#     Edge 70, Type (0, 1), BuildingBlock: OJICUG_clean_linker_0, # of connection points: 2
#     Edge 71, Type (0, 1), BuildingBlock: OJICUG_clean_linker_0, # of connection points: 2
#     Edge 72, Type (0, 1), BuildingBlock: OJICUG_clean_linker_0, # of connection points: 2
#     Edge 73, Type (0, 1), BuildingBlock: OJICUG_clean_linker_0, # of connection points: 2
#     Edge 74, Type (0, 1), BuildingBlock: OJICUG_clean_linker_0, # of connection points: 2
#     Edge 75, Type (0, 1), BuildingBlock: OJICUG_clean_linker_0, # of connection points: 2
#     Edge 76, Type (0, 1), BuildingBlock: OJICUG_clean_linker_0, # of connection points: 2
#     Edge 77, Type (0, 1), BuildingBlock: OJICUG_clean_linker_0, # of connection points: 2
#     Edge 78, Type (0, 1), BuildingBlock: OJICUG_clean_linker_0, # of connection points: 2
#     Edge 79, Type (0, 1), BuildingBlock: OJICUG_clean_linker_0, # of connection points: 2
#     Edge 80, Type (0, 1), BuildingBlock: OJICUG_clean_linker_0, # of connection points: 2
#     Edge 81, Type (0, 1), BuildingBlock: OJICUG_clean_linker_0, # of connection points: 2
#     Edge 82, Type (0, 1), BuildingBlock: OJICUG_clean_linker_0, # of connection points: 2
#     Edge 83, Type (0, 1), BuildingBlock: OJICUG_clean_linker_0, # of connection points: 2
#     Edge 84, Type (0, 1), BuildingBlock: OJICUG_clean_linker_0, # of connection points: 2
#     Edge 85, Type (0, 1), BuildingBlock: OJICUG_clean_linker_0, # of connection points: 2
#     Edge 86, Type (0, 1), BuildingBlock: OJICUG_clean_linker_0, # of connection points: 2
#     Edge 87, Type (0, 1), BuildingBlock: OJICUG_clean_linker_0, # of connection points: 2
#     Edge 88, Type (0, 1), BuildingBlock: OJICUG_clean_linker_0, # of connection points: 2
#     Edge 89, Type (0, 1), BuildingBlock: OJICUG_clean_linker_0, # of connection points: 2
#     Edge 90, Type (0, 1), BuildingBlock: OJICUG_clean_linker_0, # of connection points: 2
#     Edge 91, Type (0, 1), BuildingBlock: OJICUG_clean_linker_0, # of connection points: 2
#     Edge 92, Type (0, 1), BuildingBlock: OJICUG_clean_linker_0, # of connection points: 2
#     Edge 93, Type (0, 1), BuildingBlock: OJICUG_clean_linker_0, # of connection points: 2
#     Edge 94, Type (0, 1), BuildingBlock: OJICUG_clean_linker_0, # of connection points: 2
#     Edge 95, Type (0, 1), BuildingBlock: OJICUG_clean_linker_0, # of connection points: 2
#     Edge 96, Type (0, 1), BuildingBlock: OJICUG_clean_linker_0, # of connection points: 2
#     Edge 97, Type (0, 1), BuildingBlock: OJICUG_clean_linker_0, # of connection points: 2
#     Edge 98, Type (0, 1), BuildingBlock: OJICUG_clean_linker_0, # of connection points: 2
#     Edge 99, Type (0, 1), BuildingBlock: OJICUG_clean_linker_0, # of connection points: 2
#     Edge 100, Type (0, 1), BuildingBlock: OJICUG_clean_linker_0, # of connection points: 2
#     Edge 101, Type (0, 1), BuildingBlock: OJICUG_clean_linker_0, # of connection points: 2
#     Edge 102, Type (0, 1), BuildingBlock: OJICUG_clean_linker_0, # of connection points: 2
#     Edge 103, Type (0, 1), BuildingBlock: OJICUG_clean_linker_0, # of connection points: 2
#     Edge 104, Type (0, 1), BuildingBlock: OJICUG_clean_linker_0, # of connection points: 2
#     Edge 105, Type (0, 1), BuildingBlock: OJICUG_clean_linker_0, # of connection points: 2
#     Edge 106, Type (0, 1), BuildingBlock: OJICUG_clean_linker_0, # of connection points: 2
#     Edge 107, Type (0, 1), BuildingBlock: OJICUG_clean_linker_0, # of connection points: 2
#     Edge 108, Type (0, 1), BuildingBlock: OJICUG_clean_linker_0, # of connection points: 2
#     Edge 109, Type (0, 1), BuildingBlock: OJICUG_clean_linker_0, # of connection points: 2
#     Edge 110, Type (0, 1), BuildingBlock: OJICUG_clean_linker_0, # of connection points: 2
#     Edge 111, Type (0, 1), BuildingBlock: OJICUG_clean_linker_0, # of connection points: 2
#     Edge 112, Type (0, 1), BuildingBlock: OJICUG_clean_linker_0, # of connection points: 2
#     Edge 113, Type (0, 1), BuildingBlock: OJICUG_clean_linker_0, # of connection points: 2
#     Edge 114, Type (0, 1), BuildingBlock: OJICUG_clean_linker_0, # of connection points: 2
#     Edge 115, Type (0, 1), BuildingBlock: OJICUG_clean_linker_0, # of connection points: 2
#     Edge 116, Type (0, 1), BuildingBlock: OJICUG_clean_linker_0, # of connection points: 2
#     Edge 117, Type (0, 1), BuildingBlock: OJICUG_clean_linker_0, # of connection points: 2
#     Edge 118, Type (0, 1), BuildingBlock: OJICUG_clean_linker_0, # of connection points: 2
#     Edge 119, Type (0, 1), BuildingBlock: OJICUG_clean_linker_0, # of connection points: 2
#     Edge 120, Type (0, 1), BuildingBlock: OJICUG_clean_linker_0, # of connection points: 2
#     Edge 121, Type (0, 1), BuildingBlock: OJICUG_clean_linker_0, # of connection points: 2
#     Edge 122, Type (0, 1), BuildingBlock: OJICUG_clean_linker_0, # of connection points: 2
#     Edge 123, Type (0, 1), BuildingBlock: OJICUG_clean_linker_0, # of connection points: 2
#     Edge 124, Type (0, 1), BuildingBlock: OJICUG_clean_linker_0, # of connection points: 2
#     Edge 125, Type (0, 1), BuildingBlock: OJICUG_clean_linker_0, # of connection points: 2
#     Edge 126, Type (0, 1), BuildingBlock: OJICUG_clean_linker_0, # of connection points: 2
#     Edge 127, Type (0, 1), BuildingBlock: OJICUG_clean_linker_0, # of connection points: 2
#     Edge 128, Type (0, 1), BuildingBlock: OJICUG_clean_linker_0, # of connection points: 2
#     Edge 129, Type (0, 1), BuildingBlock: OJICUG_clean_linker_0, # of connection points: 2
#     Edge 130, Type (0, 1), BuildingBlock: OJICUG_clean_linker_0, # of connection points: 2
#     Edge 131, Type (0, 1), BuildingBlock: OJICUG_clean_linker_0, # of connection points: 2
#     Edge 132, Type (0, 1), BuildingBlock: OJICUG_clean_linker_0, # of connection points: 2
#     Edge 133, Type (0, 1), BuildingBlock: OJICUG_clean_linker_0, # of connection points: 2
#     Edge 134, Type (0, 1), BuildingBlock: OJICUG_clean_linker_0, # of connection points: 2
#     Edge 135, Type (0, 1), BuildingBlock: OJICUG_clean_linker_0, # of connection points: 2
# Relax obj value: 0.165
# Max RMSD: 0.279
# Mean RMSD: 0.176
data_MOF--net-gar--node1-NAHDIM_clean_sbu_0--node2-BETDEL_clean_sbu_0--edge1-OJICUG_clean_linker_0
_symmetry_space_group_name_H-M    P1
_symmetry_Int_Tables_number       1
_symmetry_cell_setting            triclinic
loop_
_symmetry_equiv_pos_as_xyz
'x, y, z'
_cell_length_a     42.157982
_cell_length_b     38.961767
_cell_length_c     39.286311
_cell_angle_alpha  95.423077
_cell_angle_beta   92.302603
_cell_angle_gamma 101.15508
loop_
_atom_site_label
_atom_site_type_symbol
_atom_site_fract_x
_atom_site_fract_y
_atom_site_fract_z
_atom_type_partial_charge
C0 C 0.09096 0.30156 0.353 0.0
O1 O 0.0807 0.33133 0.35305 0.0
O2 O 0.03158 0.2416 0.43 0.0
Zn3 Zn 0.04259 0.28543 0.40464 0.0
O4 O 0.05377 0.33052 0.43725 0.0
C5 C 0.97772 0.2951 0.39083 0.0
O6 O 0.97761 0.29515 0.42426 0.0
O7 O 0.07881 0.27927 0.37299 0.0
C8 C 0.04422 0.33252 0.46759 0.0
O9 O 0.02931 0.3038 0.47966 0.0
C10 C 0.05029 0.2339 0.45314 0.0
O11 O 0.07798 0.25551 0.46212 0.0
O12 O 1.00299 0.29029 0.37591 0.0
C13 C 0.95318 0.75741 0.67913 0.0
O14 O 0.96341 0.72755 0.67803 0.0
O15 O 0.99131 0.72346 0.60654 0.0
Zn16 Zn 1.00073 0.77347 0.62806 0.0
O17 O 1.00085 0.80865 0.59267 0.0
C18 C 0.06526 0.76291 0.63681 0.0
O19 O 0.05756 0.74885 0.60511 0.0
O20 O 0.96626 0.78091 0.66089 0.0
C21 C 0.02651 0.82939 0.58598 0.0
O22 O 0.05423 0.8268 0.60098 0.0
C23 C 0.98028 0.71143 0.57636 0.0
O24 O 0.97035 0.73247 0.55585 0.0
O25 O 0.04493 0.77773 0.65278 0.0
C26 C 0.58971 0.76065 0.85387 0.0
O27 O 0.5677 0.73154 0.85228 0.0
O28 O 0.55009 0.74029 0.93594 0.0
Zn29 Zn 0.55064 0.78236 0.90801 0.0
O30 O 0.55543 0.82789 0.93903 0.0
C31 C 0.50441 0.80241 0.86197 0.0
O32 O 0.52851 0.82925 0.86097 0.0
O33 O 0.58761 0.78612 0.87591 0.0
C34 C 0.54205 0.82962 0.96743 0.0
O35 O 0.52637 0.80057 0.9783 0.0
C36 C 0.52336 0.72135 0.94262 0.0
O37 O 0.49619 0.72951 0.93162 0.0
O38 O 0.50831 0.77783 0.87994 0.0
C39 C 0.44057 0.24039 0.17267 0.0
O40 O 0.44498 0.20866 0.16243 0.0
O41 O 0.48869 0.21909 0.10086 0.0
Zn42 Zn 0.49608 0.26439 0.13144 0.0
O43 O 0.50352 0.30754 0.10519 0.0
C44 C 0.56049 0.25695 0.13708 0.0
O45 O 0.5554 0.25791 0.10399 0.0
O46 O 0.45948 0.26692 0.16317 0.0
C47 C 0.4858 0.313 0.08003 0.0
O48 O 0.46051 0.28878 0.06844 0.0
C49 C 0.46774 0.20022 0.07932 0.0
O50 O 0.44074 0.21054 0.07144 0.0
O51 O 0.53811 0.26171 0.15682 0.0
C52 C 1.0015 0.77649 0.19419 0.0
O53 O 0.01532 0.74942 0.19749 0.0
O54 O 0.04348 0.74521 0.11939 0.0
Zn55 Zn 0.04815 0.79466 0.14168 0.0
O56 O 0.04289 0.82755 0.10626 0.0
C57 C 0.11423 0.79245 0.15544 0.0
O58 O 0.10889 0.77463 0.12498 0.0
O59 O 0.01208 0.79813 0.1731 0.0
C60 C 0.05953 0.83466 0.08069 0.0
O61 O 0.08502 0.82055 0.07543 0.0
C62 C 0.02687 0.73289 0.09176 0.0
O63 O 0.00965 0.75253 0.07675 0.0
O64 O 0.09178 0.80637 0.16805 0.0
C65 C 0.55068 0.75629 0.31493 0.0
O66 O 0.53104 0.77467 0.30185 0.0
O67 O 0.49946 0.71112 0.40193 0.0
Zn68 Zn 0.50405 0.74738 0.36803 0.0
O69 O 0.51152 0.79585 0.39467 0.0
C70 C 0.44246 0.75728 0.33971 0.0
O71 O 0.44463 0.77792 0.36844 0.0
O72 O 0.54386 0.74261 0.3425 0.0
C73 C 0.4973 0.80156 0.42204 0.0
O74 O 0.47734 0.7755 0.43346 0.0
C75 C 0.52361 0.71329 0.4231 0.0
O76 O 0.54889 0.73877 0.42192 0.0
O77 O 0.4648 0.74015 0.33377 0.0
C78 C 0.4933 0.26319 0.68953 0.0
O79 O 0.50297 0.233 0.68674 0.0
O80 O 0.54334 0.24018 0.61862 0.0
Zn81 Zn 0.54658 0.28793 0.64529 0.0
O82 O 0.54312 0.3247 0.61317 0.0
C83 C 0.61253 0.28567 0.66127 0.0
O84 O 0.60829 0.26966 0.62999 0.0
O85 O 0.50864 0.28871 0.67512 0.0
C86 C 0.56333 0.33779 0.59248 0.0
O87 O 0.59109 0.32739 0.59039 0.0
C88 C 0.52663 0.22931 0.5907 0.0
O89 O 0.50819 0.24917 0.57803 0.0
O90 O 0.58933 0.29819 0.67399 0.0
C91 C 0.04596 0.26939 0.82497 0.0
O92 O 0.02974 0.29363 0.81771 0.0
O93 O 0.99284 0.21348 0.90617 0.0
Zn94 Zn 0.99776 0.25295 0.87611 0.0
O95 O 0.0063 0.2983 0.90706 0.0
C96 C 0.94928 0.23305 0.81764 0.0
O97 O 0.96828 0.21231 0.80563 0.0
O98 O 0.03635 0.24967 0.84803 0.0
C99 C 0.98334 0.30591 0.92443 0.0
O100 O 0.95512 0.28416 0.92126 0.0
C101 C 0.01654 0.21409 0.92747 0.0
O102 O 0.04169 0.24014 0.92877 0.0
O103 O 0.95708 0.2514 0.84633 0.0
C104 C 0.33584 0.07623 0.25983 0.0
O105 O 0.34504 0.05602 0.23503 0.0
O106 O 0.4177 0.06761 0.25082 0.0
Zn107 Zn 0.3895 0.05804 0.29034 0.0
O108 O 0.41722 0.06721 0.33437 0.0
C109 C 0.36632 0.98713 0.25852 0.0
O110 O 0.3806 -0.00063 0.23181 0.0
O111 O 0.35295 0.08367 0.28797 0.0
C112 C 0.43088 0.04141 0.33852 0.0
O113 O 0.42589 0.01429 0.31508 0.0
C114 C 0.4485 0.07474 0.253 0.0
O115 O 0.46421 0.07771 0.283 0.0
O116 O 0.36718 0.00735 0.28591 0.0
C117 C 0.30702 0.08779 0.50572 0.0
O118 O 0.28978 0.08717 0.53286 0.0
O119 O 0.27346 0.1662 0.53363 0.0
Zn120 Zn 0.26819 0.13878 0.48616 0.0
O121 O 0.27663 0.17318 0.44939 0.0
C122 C 0.2062 0.09764 0.50426 0.0
O123 O 0.22049 0.10282 0.53517 0.0
O124 O 0.30163 0.10718 0.48265 0.0
C125 C 0.25822 0.1688 0.42218 0.0
O126 O 0.23351 0.14215 0.41828 0.0
C127 C 0.25143 0.18138 0.54547 0.0
O128 O 0.22517 0.18062 0.52601 0.0
O129 O 0.22196 0.10944 0.4794 0.0
C130 C 0.21437 0.96187 0.75754 0.0
O131 O 0.20676 0.9781 0.73148 0.0
O132 O 0.15118 0.00755 0.74605 0.0
Zn133 Zn 0.17452 0.00528 0.79163 0.0
O134 O 0.14104 0.99459 0.82716 0.0
C135 C 0.18913 0.08006 0.80018 0.0
O136 O 0.15753 0.07467 0.79519 0.0
O137 O 0.20325 0.96892 0.7865 0.0
C138 C 0.14285 0.01416 0.85525 0.0
O139 O 0.1681 0.03985 0.86239 0.0
C140 C 0.12352 0.01594 0.74378 0.0
O141 O 0.10763 0.01957 0.77156 0.0
O142 O 0.20272 0.05384 0.80228 0.0
C143 C 0.22765 0.95797 0.01121 0.0
O144 O 0.24382 0.95046 0.03786 0.0
O145 O 0.25277 0.87485 0.01471 0.0
Zn146 Zn 0.25874 0.9067 0.97754 0.0
O147 O 0.2511 0.87479 0.93335 0.0
C148 C 0.32089 0.93899 0.01043 0.0
O149 O 0.30663 0.9302 0.03834 0.0
O150 O 0.22946 0.94164 0.98196 0.0
C151 C 0.27605 0.86739 0.91956 0.0
O152 O 0.3049 0.88351 0.93238 0.0
C153 C 0.27068 0.85212 0.01558 0.0
O154 O 0.29194 0.85041 0.99229 0.0
O155 O 0.30463 0.93311 0.9819 0.0
C156 C 0.22321 0.4424 0.05346 0.0
O157 O 0.23192 0.43458 0.08382 0.0
O158 O 0.26981 0.37388 0.06995 0.0
Zn159 Zn 0.27248 0.40235 0.02809 0.0
O160 O 0.26689 0.37051 0.98272 0.0
C161 C 0.3311 0.4553 0.05347 0.0
O162 O 0.31565 0.45889 0.08157 0.0
O163 O 0.23725 0.43201 0.02742 0.0
C164 C 0.29142 0.36377 0.96736 0.0
O165 O 0.32042 0.3752 0.98244 0.0
C166 C 0.24405 0.35332 0.07701 0.0
O167 O 0.21797 0.3496 0.05647 0.0
O168 O 0.31725 0.43381 0.02848 0.0
C169 C 0.82 0.0737 0.98492 0.0
O170 O 0.80374 0.07723 0.95665 0.0
O171 O 0.80141 0.16139 0.05921 0.0
Zn172 Zn 0.79018 0.13005 0.01485 0.0
O173 O 0.79704 0.15988 0.97561 0.0
C174 C 0.72917 0.09896 0.0402 0.0
O175 O 0.74551 0.10585 0.07005 0.0
O176 O 0.81788 0.09344 0.01208 0.0
C177 C 0.77396 0.17354 0.96486 0.0
O178 O 0.74596 0.16691 0.97886 0.0
C179 C 0.78458 0.18415 0.06815 0.0
O180 O 0.75988 0.18718 0.04803 0.0
O181 O 0.74358 0.10618 0.01325 0.0
C182 C 0.20062 0.46753 0.23304 0.0
O183 O 0.20601 0.49009 0.21015 0.0
O184 O 0.11109 0.48009 0.19865 0.0
Zn185 Zn 0.14184 0.49282 0.2403 0.0
O186 O 0.11521 0.49218 0.28125 0.0
C187 C 0.17766 0.55521 0.21305 0.0
O188 O 0.16821 0.53834 0.18267 0.0
O189 O 0.17343 0.46186 0.24648 0.0
C190 C 0.11121 0.52081 0.29708 0.0
O191 O 0.12533 0.55085 0.28685 0.0
C192 C 0.09447 0.50375 0.19599 0.0
O193 O 0.09986 0.53148 0.21873 0.0
O194 O 0.1687 0.541 0.23973 0.0
C195 C 0.73374 0.94894 0.50886 0.0
O196 O 0.75189 0.95106 0.48243 0.0
O197 O 0.76646 0.86741 0.57003 0.0
Zn198 Zn 0.77254 0.89713 0.52868 0.0
O199 O 0.76486 0.86669 0.48216 0.0
C200 C 0.83091 0.9532 0.55038 0.0
O201 O 0.81295 0.96376 0.57426 0.0
O202 O 0.73879 0.92875 0.53135 0.0
C203 C 0.78911 0.85863 0.46719 0.0
O204 O 0.81786 0.86767 0.48332 0.0
C205 C 0.78014 0.8416 0.57464 0.0
O206 O 0.79977 0.83262 0.55177 0.0
O207 O 0.81883 0.92646 0.52948 0.0
C208 C 0.84111 0.0751 0.24864 0.0
O209 O 0.84586 0.06103 0.27705 0.0
O210 O 0.92024 0.04007 0.18989 0.0
Zn211 Zn 0.88621 0.03224 0.2252 0.0
O212 O 0.90778 0.03757 0.27266 0.0
C213 C 0.83479 0.96805 0.20656 0.0
O214 O 0.81842 0.98729 0.18986 0.0
O215 O 0.85541 0.06628 0.22226 0.0
C216 C 0.9213 0.01242 0.27986 0.0
O217 O 0.92355 0.9877 0.25542 0.0
C218 C 0.91944 0.01788 0.16379 0.0
O219 O 0.89606 0.98988 0.15976 0.0
O220 O 0.86232 0.98195 0.22095 0.0
C221 C 0.32373 0.57537 0.49155 0.0
O222 O 0.30515 0.57206 0.4633 0.0
O223 O 0.30403 0.67154 0.5521 0.0
Zn224 Zn 0.29219 0.63351 0.51307 0.0
O225 O 0.29582 0.65783 0.47017 0.0
C226 C 0.23249 0.6049 0.54376 0.0
O227 O 0.24869 0.61758 0.57296 0.0
O228 O 0.32225 0.5996 0.51514 0.0
C229 C 0.27124 0.66833 0.45839 0.0
O230 O 0.24346 0.66002 0.47253 0.0
C231 C 0.28597 0.69382 0.55778 0.0
O232 O 0.25912 0.69088 0.53869 0.0
O233 O 0.24654 0.60798 0.5159 0.0
C234 C 0.33505 0.57085 0.72127 0.0
O235 O 0.31552 0.54197 0.70756 0.0
O236 O 0.41639 0.52815 0.68684 0.0
Zn237 Zn 0.38653 0.52805 0.72621 0.0
O238 O 0.41118 0.52902 0.77128 0.0
C239 C 0.34191 0.46045 0.69966 0.0
O240 O 0.34542 0.46852 0.66813 0.0
O241 O 0.36443 0.57008 0.72948 0.0
C242 C 0.42084 0.50146 0.7786 0.0
O243 O 0.41832 0.47475 0.75491 0.0
C244 C 0.43905 0.55431 0.68388 0.0
O245 O 0.44277 0.58201 0.70659 0.0
O246 O 0.3553 0.48209 0.72465 0.0
C247 C 0.69799 0.97255 0.75612 0.0
O248 O 0.69796 0.9982 0.78037 0.0
O249 O 0.60952 0.98231 0.69568 0.0
Zn250 Zn 0.63968 0.99138 0.7379 0.0
O251 O 0.61398 0.98424 0.77919 0.0
C252 C 0.68429 0.04929 0.71871 0.0
O253 O 0.68533 0.02668 0.69195 0.0
O254 O 0.67347 0.96244 0.73512 0.0
C255 C 0.59781 0.00779 0.78722 0.0
O256 O 0.59924 0.03419 0.76852 0.0
C257 C 0.60166 0.00906 0.68417 0.0
O258 O 0.61319 0.04047 0.69998 0.0
O259 O 0.66525 0.04048 0.74202 0.0
C260 C 0.80083 0.59106 0.00721 0.0
O261 O 0.78173 0.59032 0.03285 0.0
O262 O 0.76076 0.66922 0.02631 0.0
Zn263 Zn 0.76148 0.63945 0.98073 0.0
O264 O 0.77053 0.66974 0.94077 0.0
C265 C 0.70085 0.59822 0.99814 0.0
O266 O 0.71517 0.60576 0.02899 0.0
O267 O 0.79637 0.6095 0.98298 0.0
C268 C 0.75675 0.6955 0.93657 0.0
O269 O 0.73636 0.70345 0.95904 0.0
C270 C 0.78565 0.68316 0.04574 0.0
O271 O 0.8144 0.68029 0.03552 0.0
O272 O 0.71636 0.60874 0.97265 0.0
C273 C 0.83712 0.56626 0.77587 0.0
O274 O 0.84151 0.54266 0.75132 0.0
O275 O 0.92266 0.56432 0.75829 0.0
Zn276 Zn 0.89605 0.55176 0.79827 0.0
O277 O 0.92439 0.56013 0.84153 0.0
C278 C 0.87486 0.48152 0.76365 0.0
O279 O 0.88826 0.49536 0.73719 0.0
O280 O 0.85885 0.57647 0.80006 0.0
C281 C 0.93908 0.53505 0.84525 0.0
O282 O 0.93501 0.5083 0.82144 0.0
C283 C 0.95345 0.57157 0.75974 0.0
O284 O 0.96976 0.57328 0.78923 0.0
O285 O 0.87558 0.50058 0.79179 0.0
C286 C 0.73476 0.46348 0.51588 0.0
O287 O 0.74911 0.45391 0.54269 0.0
O288 O 0.75521 0.37656 0.51613 0.0
Zn289 Zn 0.76265 0.40951 0.47937 0.0
O290 O 0.75008 0.38068 0.43409 0.0
C291 C 0.82559 0.43785 0.51001 0.0
O292 O 0.81031 0.43196 0.538 0.0
O293 O 0.7369 0.44785 0.48638 0.0
C294 C 0.77103 0.36609 0.41926 0.0
O295 O 0.80101 0.37246 0.43226 0.0
C296 C 0.77261 0.35341 0.51774 0.0
O297 O 0.79466 0.35153 0.49539 0.0
O298 O 0.8098 0.43109 0.48119 0.0
C299 C 0.70398 0.45712 0.2604 0.0
O300 O 0.69287 0.4687 0.23288 0.0
O301 O 0.64461 0.50869 0.24971 0.0
Zn302 Zn 0.67042 0.50793 0.29428 0.0
O303 O 0.63904 0.49924 0.33206 0.0
C304 C 0.71285 0.56775 0.27651 0.0
O305 O 0.70792 0.54771 0.24722 0.0
O306 O 0.69742 0.46988 0.28971 0.0
C307 C 0.63425 0.52498 0.35226 0.0
O308 O 0.65033 0.55671 0.34862 0.0
C309 C 0.63207 0.53511 0.24446 0.0
O310 O 0.63399 0.56068 0.26924 0.0
O311 O 0.70033 0.55576 0.30296 0.0
Dy312 Dy 0.99122 0.00529 0.99016 0.0
C313 C 0.12814 0.03798 0.02381 0.0
C314 C 0.92601 0.00231 0.98708 0.0
Dy315 Dy 0.06284 0.03427 0.0187 0.0
O316 O 0.94267 0.99627 0.96071 0.0
O317 O 0.94487 0.00827 0.01475 0.0
O318 O 0.0092 0.98117 0.94176 0.0
O319 O 0.03621 0.02716 0.96946 0.0
C320 C 0.03648 0.00415 0.9448 0.0
C321 C 0.01755 0.03475 0.06426 0.0
O322 O 0.05317 0.08459 0.00232 0.0
O323 O 0.99759 0.0644 0.99087 0.0
O324 O 0.10933 0.03459 0.04924 0.0
O325 O 0.11137 0.04157 0.99648 0.0
O326 O 0.04477 0.05777 0.06725 0.0
O327 O 0.01788 0.01192 0.03943 0.0
O328 O 1.00162 0.95584 0.00827 0.0
O329 O 0.05762 0.9752 0.01187 0.0
C330 C 0.02387 0.08994 0.99372 0.0
C331 C 0.03148 0.95 0.01244 0.0
Dy332 Dy 0.28598 0.76687 0.20181 0.0
C333 C 0.27944 0.75099 0.34443 0.0
C334 C 0.27706 0.78344 0.13722 0.0
Dy335 Dy 0.27464 0.7689 0.27956 0.0
O336 O 0.29928 0.76668 0.14675 0.0
O337 O 0.26029 0.79088 0.16278 0.0
O338 O 0.33115 0.74418 0.21044 0.0
O339 O 0.31596 0.77742 0.24867 0.0
C340 C 0.33573 0.75777 0.24232 0.0
C341 C 0.22599 0.78118 0.24039 0.0
O342 O 0.29953 0.82508 0.27899 0.0
O343 O 0.29718 0.82455 0.21953 0.0
O344 O 0.25605 0.76452 0.33215 0.0
O345 O 0.30048 0.74842 0.32163 0.0
O346 O 0.23176 0.79442 0.27229 0.0
O347 O 0.24415 0.7597 0.23287 0.0
O348 O 0.2597 0.71188 0.20126 0.0
O349 O 0.26255 0.71093 0.26041 0.0
C350 C 0.30321 0.84145 0.25076 0.0
C351 C 0.25566 0.69485 0.22881 0.0
Dy352 Dy 0.55758 0.02299 0.502 0.0
C353 C 0.41934 0.02259 0.50272 0.0
C354 C 0.61941 0.01139 0.51051 0.0
Dy355 Dy 0.48134 0.01144 0.5101 0.0
O356 O 0.60879 0.02658 0.48542 0.0
O357 O 0.59654 0.00382 0.53142 0.0
O358 O 0.55084 0.04965 0.45426 0.0
O359 O 0.51408 0.01012 0.46927 0.0
C360 C 0.52093 0.03268 0.44862 0.0
C361 C 0.51823 0.00304 0.56412 0.0
O362 O 0.48298 0.95738 0.48662 0.0
O363 O 0.5395 0.96406 0.49054 0.0
O364 O 0.4312 0.01001 0.52889 0.0
O365 O 0.44102 0.02775 0.48017 0.0
O366 O 0.48822 0.98636 0.55888 0.0
O367 O 0.52488 0.02481 0.54272 0.0
O368 O 0.55505 0.07654 0.5269 0.0
O369 O 0.49897 0.07049 0.51781 0.0
C370 C 0.50985 0.94443 0.48392 0.0
C371 C 0.52827 0.08993 0.5267 0.0
Dy372 Dy 0.23381 0.27192 0.75523 0.0
C373 C 0.37008 0.27236 0.74532 0.0
C374 C 0.16996 0.2649 0.7693 0.0
Dy375 Dy 0.30623 0.26913 0.7581 0.0
O376 O 0.18535 0.2881 0.75104 0.0
O377 O 0.18932 0.2452 0.77934 0.0
O378 O 0.24229 0.31409 0.72001 0.0
O379 O 0.27871 0.31115 0.75742 0.0
C380 C 0.27193 0.32639 0.73186 0.0
C381 C 0.2671 0.21414 0.78 0.0
O382 O 0.3057 0.29916 0.8094 0.0
O383 O 0.24958 0.28949 0.81093 0.0
O384 O 0.35124 0.24619 0.75689 0.0
O385 O 0.3542 0.29732 0.7413 0.0
O386 O 0.29652 0.22604 0.79273 0.0
O387 O 0.26126 0.23035 0.75495 0.0
O388 O 0.23492 0.24066 0.70457 0.0
O389 O 0.29091 0.25441 0.70205 0.0
C390 C 0.27908 0.30061 0.826 0.0
C391 C 0.26154 0.24133 0.68743 0.0
Dy392 Dy 1.00401 0.01345 0.47755 0.0
C393 C 0.07164 0.04749 0.61519 0.0
C394 C 0.96626 0.00168 0.41831 0.0
Dy395 Dy 0.03253 0.04058 0.55719 0.0
O396 O 0.98906 0.9847 0.4254 0.0
O397 O 0.96307 0.02374 0.44436 0.0
O398 O 0.05399 0.02262 0.45517 0.0
O399 O 0.04873 0.03382 0.50637 0.0
C400 C 0.06949 0.03506 0.4844 0.0
C401 C 0.96691 0.01895 0.55139 0.0
O402 O 0.03882 0.09164 0.53359 0.0
O403 O 0.0052 0.07184 0.48353 0.0
O404 O 0.04847 0.06485 0.61102 0.0
O405 O 0.07411 0.02782 0.58726 0.0
O406 O 0.98314 0.0324 0.57996 0.0
O407 O 0.98703 0.01928 0.52862 0.0
O408 O 1.00101 0.96203 0.50028 0.0
O409 O 0.03525 0.98361 0.54944 0.0
C410 C 0.02327 0.09738 0.50504 0.0
C411 C 0.01884 0.95745 0.52765 0.0
Dy412 Dy 0.32367 0.79019 0.7523 0.0
C413 C 0.18823 0.75234 0.70148 0.0
C414 C 0.38097 0.79913 0.79024 0.0
Dy415 Dy 0.24976 0.76093 0.73036 0.0
O416 O 0.37581 0.81738 0.76514 0.0
O417 O 0.35473 0.77685 0.79485 0.0
O418 O 0.33552 0.8008 0.69844 0.0
O419 O 0.29597 0.76209 0.70739 0.0
C420 C 0.3094 0.77962 0.68484 0.0
C421 C 0.26579 0.77329 0.79783 0.0
O422 O 0.26575 0.7091 0.72794 0.0
O423 O 0.3172 0.73157 0.75439 0.0
O424 O 0.19715 0.76349 0.73319 0.0
O425 O 0.21281 0.74458 0.68556 0.0
O426 O 0.24112 0.74941 0.78501 0.0
O427 O 0.27783 0.7902 0.77438 0.0
O428 O 0.30289 0.83929 0.75901 0.0
O429 O 0.25945 0.81778 0.71959 0.0
C430 C 0.29403 0.70472 0.74139 0.0
C431 C 0.27841 0.8443 0.73885 0.0
Dy432 Dy 0.52337 0.02752 0.06451 0.0
C433 C 0.53789 0.01232 0.91545 0.0
C434 C 0.50749 0.05451 0.12611 0.0
Dy435 Dy 0.52395 0.02095 0.98201 0.0
O436 O 0.53208 0.03904 0.12176 0.0
O437 O 0.4921 0.05519 0.09698 0.0
O438 O 0.53002 0.97143 0.07067 0.0
O439 O 0.52889 0.99029 0.02339 0.0
C440 C 0.53204 0.96379 0.03786 0.0
C441 C 0.50321 0.07585 0.01286 0.0
O442 O 0.47508 0.98891 0.98823 0.0
O443 O 0.47161 0.00804 0.04606 0.0
O444 O 0.53798 0.04234 0.9329 0.0
O445 O 0.52982 0.98661 0.93427 0.0
O446 O 0.49241 0.06134 0.98237 0.0
O447 O 0.52586 0.06211 0.02379 0.0
O448 O 0.57441 0.05329 0.05857 0.0
O449 O 0.57661 0.03559 0.0001 0.0
C450 C 0.4586 0.99155 0.01617 0.0
C451 C 0.5906 0.04971 0.03055 0.0
Dy452 Dy 0.27477 0.30601 0.26642 0.0
C453 C 0.24115 0.15796 0.24104 0.0
C454 C 0.28265 0.3771 0.26817 0.0
Dy455 Dy 0.24613 0.22884 0.24207 0.0
O456 O 0.27727 0.35939 0.29451 0.0
O457 O 0.28571 0.35583 0.24165 0.0
O458 O 0.29925 0.29011 0.31343 0.0
O459 O 0.25551 0.26018 0.29102 0.0
C460 C 0.27763 0.26118 0.31373 0.0
C461 C 0.24073 0.27318 0.19516 0.0
O462 O 0.20202 0.24226 0.2653 0.0
O463 O 0.22063 0.30275 0.26909 0.0
O464 O 0.24367 0.17517 0.21413 0.0
O465 O 0.23854 0.17942 0.26754 0.0
O466 O 0.21965 0.24407 0.19684 0.0
O467 O 0.2644 0.27502 0.21658 0.0
O468 O 0.31992 0.29289 0.24653 0.0
O469 O 0.30035 0.23255 0.23939 0.0
C470 C 0.19747 0.2749 0.27222 0.0
C471 C 0.32418 0.26037 0.23885 0.0
Dy472 Dy 0.50035 0.5075 0.97763 0.0
C473 C 0.57296 0.54419 0.11118 0.0
C474 C 0.46354 0.49101 0.91779 0.0
Dy475 Dy 0.53222 0.53521 0.05383 0.0
O476 O 0.48817 0.47697 0.92567 0.0
O477 O 0.4581 0.51233 0.94342 0.0
O478 O 0.54688 0.53086 0.95478 0.0
O479 O 0.5482 0.51649 0.00449 0.0
C480 C 0.56487 0.53216 0.98259 0.0
C481 C 0.46647 0.52106 0.05184 0.0
O482 O 0.53895 0.58491 0.02732 0.0
O483 O 0.49712 0.56432 0.98527 0.0
O484 O 0.55418 0.56575 0.10387 0.0
O485 O 0.57023 0.51894 0.08662 0.0
O486 O 0.48444 0.53303 0.07972 0.0
O487 O 0.48521 0.51931 0.02807 0.0
O488 O 0.49366 0.45643 0.0013 0.0
O489 O 0.52511 0.47653 0.05249 0.0
C490 C 0.51856 0.59026 0.00245 0.0
C491 C 0.50766 0.45093 0.03077 0.0
Dy492 Dy 0.80707 0.28071 0.26898 0.0
C493 C 0.68219 0.23167 0.19084 0.0
C494 C 0.86153 0.30246 0.31173 0.0
Dy495 Dy 0.73894 0.25154 0.22994 0.0
O496 O 0.85963 0.30692 0.27941 0.0
O497 O 0.83338 0.28751 0.32083 0.0
O498 O 0.83077 0.26047 0.22323 0.0
O499 O 0.78665 0.27682 0.21647 0.0
C500 C 0.80743 0.26262 0.20152 0.0
C501 C 0.73851 0.27032 0.29735 0.0
O502 O 0.76074 0.20288 0.22806 0.0
O503 O 0.79987 0.2229 0.27302 0.0
O504 O 0.68687 0.22393 0.22185 0.0
O505 O 0.70932 0.24807 0.18034 0.0
O506 O 0.71519 0.27198 0.27551 0.0
O507 O 0.75921 0.25599 0.28238 0.0
O508 O 0.7857 0.32955 0.27025 0.0
O509 O 0.74581 0.30938 0.22615 0.0
C510 C 0.78333 0.19753 0.25053 0.0
C511 C 0.76254 0.33479 0.24846 0.0
Dy512 Dy 0.02685 0.52896 0.56897 0.0
C513 C 0.04476 0.52181 0.42128 0.0
C514 C 0.01026 0.55346 0.6312 0.0
Dy515 Dy 0.02842 0.52519 0.48715 0.0
O516 O 0.03572 0.5396 0.62625 0.0
O517 O 0.99429 0.55379 0.60234 0.0
O518 O 0.03464 0.47301 0.57385 0.0
O519 O 0.03356 0.49302 0.52718 0.0
C520 C 0.03706 0.46625 0.54098 0.0
C521 C 0.00631 0.57888 0.51877 0.0
O522 O 0.98005 0.49143 0.49146 0.0
O523 O 0.97539 0.50867 0.54945 0.0
O524 O 0.0328 0.49448 0.43675 0.0
O525 O 0.0473 0.55054 0.44164 0.0
O526 O 0.99633 0.56484 0.48794 0.0
O527 O 0.02914 0.56543 0.5298 0.0
O528 O 0.07785 0.55594 0.56409 0.0
O529 O 0.08072 0.53739 0.5061 0.0
C530 C 0.96305 0.49264 0.51913 0.0
C531 C 0.09444 0.55199 0.53645 0.0
Dy532 Dy 0.74055 0.76838 0.251 0.0
C533 C 0.8781 0.78188 0.24998 0.0
C534 C 0.67579 0.75423 0.26148 0.0
Dy535 Dy 0.81303 0.77255 0.25863 0.0
O536 O 0.68977 0.77724 0.24218 0.0
O537 O 0.6971 0.73825 0.2743 0.0
O538 O 0.74642 0.81234 0.21822 0.0
O539 O 0.78251 0.81196 0.25698 0.0
C540 C 0.77501 0.8272 0.2316 0.0
C541 C 0.77598 0.71254 0.27443 0.0
O542 O 0.80847 0.80121 0.30927 0.0
O543 O 0.75241 0.78572 0.30793 0.0
O544 O 0.86122 0.75632 0.26434 0.0
O545 O 0.85954 0.8029 0.24102 0.0
O546 O 0.80339 0.72694 0.2908 0.0
O547 O 0.77102 0.72974 0.24999 0.0
O548 O 0.7471 0.74001 0.19974 0.0
O549 O 0.80271 0.7599 0.20178 0.0
C550 C 0.78086 0.79938 0.32458 0.0
C551 C 0.77511 0.74449 0.18464 0.0
Dy552 Dy 0.78531 0.26309 0.70188 0.0
C553 C 0.78343 0.24888 0.84575 0.0
C554 C 0.77481 0.28071 0.63774 0.0
Dy555 Dy 0.77806 0.26504 0.78014 0.0
O556 O 0.79633 0.26261 0.64617 0.0
O557 O 0.75921 0.28866 0.66414 0.0
O558 O 0.82832 0.23694 0.70591 0.0
O559 O 0.81826 0.27116 0.74696 0.0
C560 C 0.8357 0.24947 0.73782 0.0
C561 C 0.72764 0.27792 0.74324 0.0
O562 O 0.80516 0.32 0.77944 0.0
O563 O 0.80038 0.32064 0.72023 0.0
O564 O 0.76069 0.26331 0.83346 0.0
O565 O 0.80351 0.24412 0.82242 0.0
O566 O 0.73525 0.2917 0.77472 0.0
O567 O 0.74529 0.25625 0.73503 0.0
O568 O 0.75853 0.20814 0.70282 0.0
O569 O 0.76565 0.20727 0.76178 0.0
C570 C 0.80851 0.33678 0.75154 0.0
C571 C 0.75673 0.19116 0.73058 0.0
Dy572 Dy 0.77504 0.80832 0.76222 0.0
C573 C 0.75317 0.6595 0.75953 0.0
C574 C 0.78225 0.87781 0.75346 0.0
Dy575 Dy 0.76135 0.72898 0.7502 0.0
O576 O 0.78806 0.86554 0.7822 0.0
O577 O 0.7743 0.85193 0.72953 0.0
O578 O 0.76875 0.80632 0.81836 0.0
O579 O 0.78762 0.76673 0.79072 0.0
C580 C 0.77754 0.77625 0.81935 0.0
C581 C 0.75914 0.7615 0.69296 0.0
O582 O 0.71402 0.73699 0.77009 0.0
O583 O 0.72167 0.79761 0.76986 0.0
O584 O 0.75426 0.67198 0.72999 0.0
O585 O 0.75473 0.68507 0.78352 0.0
O586 O 0.76811 0.73153 0.69408 0.0
O587 O 0.74874 0.77066 0.72155 0.0
O588 O 0.82241 0.79922 0.74232 0.0
O589 O 0.81532 0.73993 0.74952 0.0
C590 C 0.70371 0.76697 0.77543 0.0
C591 C 0.83344 0.7695 0.74163 0.0
Dy592 Dy 0.49881 0.51347 0.50539 0.0
C593 C 0.63645 0.5451 0.52933 0.0
C594 C 0.43374 0.51099 0.504 0.0
Dy595 Dy 0.57136 0.54272 0.5289 0.0
O596 O 0.44904 0.49994 0.47832 0.0
O597 O 0.45389 0.52192 0.53035 0.0
O598 O 0.51437 0.48648 0.4568 0.0
O599 O 0.54239 0.53328 0.48125 0.0
C600 C 0.54161 0.50924 0.45744 0.0
C601 C 0.52914 0.5493 0.57663 0.0
O602 O 0.56127 0.59163 0.50919 0.0
O603 O 0.50533 0.57197 0.50113 0.0
O604 O 0.61986 0.54565 0.55655 0.0
O605 O 0.61765 0.54545 0.50248 0.0
O606 O 0.55671 0.57137 0.57626 0.0
O607 O 0.52747 0.52379 0.55384 0.0
O608 O 0.50926 0.46534 0.52635 0.0
O609 O 0.56524 0.48368 0.52745 0.0
C610 C 0.53181 0.59698 0.50118 0.0
C611 C 0.53901 0.45918 0.53014 0.0
Dy612 Dy 0.05027 0.51885 0.0214 0.0
C613 C 0.91322 0.52583 0.01341 0.0
C614 C 0.11082 0.50572 0.03508 0.0
Dy615 Dy 0.97397 0.51194 0.02411 0.0
O616 O 0.10099 0.51597 0.00658 0.0
O617 O 0.08787 0.50379 0.05639 0.0
O618 O 0.04866 0.54535 0.97289 0.0
O619 O 0.00883 0.50791 0.98567 0.0
C620 C 0.01854 0.52996 0.96522 0.0
C621 C 0.00684 0.50236 0.0806 0.0
O622 O 0.97419 0.45776 0.00052 0.0
O623 O 0.02964 0.46018 0.01114 0.0
O624 O 0.9233 0.51298 0.04033 0.0
O625 O 0.93598 0.52983 0.99193 0.0
O626 O 0.97688 0.48634 0.07339 0.0
O627 O 0.01563 0.52389 0.05954 0.0
O628 O 0.04929 0.57394 0.04273 0.0
O629 O 0.99398 0.57041 0.03007 0.0
C630 C 0.99981 0.44254 0.00108 0.0
C631 C 0.02351 0.58873 0.03977 0.0
C632 C 0.046 0.18165 0.96618 0.0
C633 C 0.01721 0.18448 0.94828 0.0
H634 H 0.07072 0.1497 0.99489 0.0
C635 C 0.98967 0.15778 0.94896 0.0
H636 H 0.06762 0.2019 0.96636 0.0
C637 C 0.99135 0.12802 0.96565 0.0
C638 C 0.02071 0.12413 0.98175 0.0
H639 H 0.96703 0.15937 0.93574 0.0
H640 H 0.96993 0.10739 0.96453 0.0
C641 C 0.04778 0.15172 0.98263 0.0
C642 C 0.15143 0.81212 0.20827 0.0
C643 C 0.14419 0.79202 0.17628 0.0
H644 H 0.18334 0.82469 0.25358 0.0
C645 C 0.16479 0.76937 0.16516 0.0
H646 H 0.13601 0.82977 0.21757 0.0
C647 C 0.19142 0.76605 0.18596 0.0
C648 C 0.19846 0.7858 0.21805 0.0
H649 H 0.15984 0.7533 0.14078 0.0
H650 H 0.20616 0.74751 0.17709 0.0
C651 C 0.17844 0.80915 0.22891 0.0
C652 C 0.47628 0.8475 0.45845 0.0
C653 C 0.5011 0.83765 0.43922 0.0
H654 H 0.45935 0.88924 0.48731 0.0
C655 C 0.52915 0.86285 0.43579 0.0
H656 H 0.4543 0.82862 0.46139 0.0
C657 C 0.53232 0.89727 0.45122 0.0
C658 C 0.50714 0.9074 0.46969 0.0
H659 H 0.54869 0.85596 0.42119 0.0
H660 H 0.55416 0.91618 0.44787 0.0
C661 C 0.47909 0.88218 0.47318 0.0
C662 C 0.44565 0.23866 0.72234 0.0
C663 C 0.4632 0.26678 0.70671 0.0
H664 H 0.40259 0.2186 0.74712 0.0
C665 C 0.4508 0.29782 0.70612 0.0
H666 H 0.4545 0.21444 0.72337 0.0
C667 C 0.42098 0.30014 0.71968 0.0
C668 C 0.40305 0.27157 0.73425 0.0
H669 H 0.46369 0.32005 0.69436 0.0
H670 H 0.41161 0.32397 0.71799 0.0
C671 C 0.41592 0.24106 0.73601 0.0
C672 C 0.05277 0.88519 0.5636 0.0
C673 C 0.02487 0.85923 0.56551 0.0
H674 H 0.07252 0.93639 0.54977 0.0
C675 C 0.99534 0.86389 0.55025 0.0
H676 H 0.07595 0.88248 0.57477 0.0
C677 C 0.99353 0.89488 0.53527 0.0
C678 C 0.02111 0.92173 0.53577 0.0
H679 H 0.97342 0.84429 0.55112 0.0
H680 H 0.97027 0.89875 0.52535 0.0
C681 C 0.05084 0.91612 0.54918 0.0
C682 C 0.46956 0.82682 0.82078 0.0
C683 C 0.47283 0.80165 0.84349 0.0
H684 H 0.43791 0.84576 0.78602 0.0
C685 C 0.44547 0.77621 0.84886 0.0
H686 H 0.49015 0.84682 0.81609 0.0
C687 C 0.41558 0.77593 0.83194 0.0
C688 C 0.41241 0.80086 0.80905 0.0
H689 H 0.44706 0.75658 0.86628 0.0
H690 H 0.39498 0.75588 0.83654 0.0
C691 C 0.43967 0.82631 0.8036 0.0
C692 C 0.45681 0.14845 0.03405 0.0
C693 C 0.47502 0.16699 0.0631 0.0
H694 H 0.45164 0.10483 0.99516 0.0
C695 C 0.50159 0.15426 0.07621 0.0
H696 H 0.43624 0.15759 0.02338 0.0
C697 C 0.51028 0.12426 0.06021 0.0
C698 C 0.49267 0.1063 0.03071 0.0
H699 H 0.51606 0.16771 0.09872 0.0
H700 H 0.5312 0.11552 0.07063 0.0
C701 C 0.46567 0.11838 0.01789 0.0
C702 C 0.13491 0.32108 0.31343 0.0
C703 C 0.11663 0.29415 0.33008 0.0
H704 H 0.17457 0.33618 0.28193 0.0
C705 C 0.12346 0.26016 0.32496 0.0
H706 H 0.13025 0.34754 0.31668 0.0
C707 C 0.14851 0.25349 0.30452 0.0
C708 C 0.16768 0.28074 0.28902 0.0
H709 H 0.10971 0.23872 0.33714 0.0
H710 H 0.15367 0.22722 0.30205 0.0
C711 C 0.16027 0.31453 0.29336 0.0
C712 C 0.96874 0.05375 0.14062 0.0
C713 C 0.94466 0.0229 0.13842 0.0
H714 H 0.01072 0.08188 0.11866 0.0
C715 C 0.94495 0.99634 0.11169 0.0
H716 H 0.96923 0.07471 0.16093 0.0
C717 C 0.9687 0.00038 0.08785 0.0
C718 C 0.99258 0.03124 0.0898 0.0
H719 H 0.92696 0.97216 0.10926 0.0
H720 H 0.96843 0.97909 0.06793 0.0
C721 C 0.99249 0.05789 0.11648 0.0
C722 C 0.24831 0.70723 0.4212 0.0
C723 C 0.27413 0.69125 0.43042 0.0
H724 H 0.23008 0.73956 0.38705 0.0
C725 C 0.30277 0.69777 0.41297 0.0
H726 H 0.22606 0.70307 0.43445 0.0
C727 C 0.30504 0.71876 0.38594 0.0
C728 C 0.27882 0.73376 0.3761 0.0
H729 H 0.32318 0.68608 0.41968 0.0
H730 H 0.32699 0.72243 0.37214 0.0
C731 C 0.25069 0.72843 0.39433 0.0
C732 C 0.55621 0.976 0.64363 0.0
C733 C 0.58086 0.00572 0.65278 0.0
H734 H 0.51605 0.95205 0.60814 0.0
C735 C 0.58508 0.03354 0.63226 0.0
H736 H 0.55255 0.95429 0.65929 0.0
C737 C 0.56489 0.032 0.6032 0.0
C738 C 0.53963 0.0029 0.59438 0.0
H739 H 0.60408 0.0566 0.63866 0.0
H740 H 0.56874 0.05407 0.58801 0.0
C741 C 0.53535 0.97479 0.61467 0.0
C742 C 0.2573 0.33466 0.91443 0.0
C743 C 0.28791 0.34596 0.93178 0.0
H744 H 0.23045 0.31159 0.8677 0.0
C745 C 0.31554 0.34151 0.9142 0.0
H746 H 0.23551 0.33769 0.92711 0.0
C747 C 0.31269 0.3267 0.88004 0.0
C748 C 0.28212 0.31582 0.86252 0.0
H749 H 0.33954 0.34991 0.92667 0.0
H750 H 0.33455 0.324 0.86736 0.0
C751 C 0.25444 0.31974 0.88027 0.0
C752 C 0.92458 0.0317 0.34291 0.0
C753 C 0.93199 0.00919 0.31556 0.0
H754 H 0.92899 0.04633 0.39711 0.0
C755 C 0.94878 0.98257 0.32271 0.0
H756 H 0.91135 0.0522 0.3383 0.0
C757 C 0.95874 0.97915 0.35637 0.0
C758 C 0.95189 0.00208 0.38356 0.0
H759 H 0.95466 0.96461 0.30227 0.0
H760 H 0.97243 0.95904 0.361 0.0
C761 C 0.93435 0.02809 0.37661 0.0
C762 C 0.32475 0.72891 0.60374 0.0
C763 C 0.29354 0.72069 0.58744 0.0
H764 H 0.35453 0.75554 0.64751 0.0
C765 C 0.26904 0.73675 0.60101 0.0
H766 H 0.34415 0.71716 0.59361 0.0
C767 C 0.27502 0.7585 0.63181 0.0
C768 C 0.30565 0.76501 0.64899 0.0
H769 H 0.24481 0.73105 0.58889 0.0
H770 H 0.25542 0.7691 0.64292 0.0
C771 C 0.33083 0.75117 0.63426 0.0
C772 C 0.57479 0.97754 0.83688 0.0
C773 C 0.57953 0.00713 0.81839 0.0
H774 H 0.55708 0.95574 0.88227 0.0
C775 C 0.56777 0.03701 0.83072 0.0
H776 H 0.5834 0.95405 0.82782 0.0
C777 C 0.55304 0.038 0.86176 0.0
C778 C 0.54939 0.00899 0.88082 0.0
H779 H 0.57091 0.06017 0.817 0.0
H780 H 0.54524 0.06186 0.87128 0.0
C781 C 0.5596 0.97839 0.86785 0.0
C782 C 0.27025 0.33853 0.13139 0.0
C783 C 0.2432 0.33368 0.10795 0.0
H784 H 0.29073 0.32334 0.17724 0.0
C785 C 0.2151 0.30957 0.11425 0.0
H786 H 0.29227 0.35691 0.12748 0.0
C787 C 0.21422 0.29044 0.14281 0.0
C788 C 0.24133 0.29499 0.16597 0.0
H789 H 0.19375 0.30514 0.0969 0.0
H790 H 0.19231 0.27184 0.14661 0.0
C791 C 0.2693 0.31943 0.16006 0.0
C792 C 0.19443 0.99737 0.98686 0.0
C793 C 0.20618 0.98365 0.01551 0.0
H794 H 0.16125 0.02688 0.96741 0.0
C795 C 0.19592 0.99329 0.04804 0.0
H796 H 0.20231 0.99088 0.96156 0.0
C797 C 0.17224 0.01385 0.0514 0.0
C798 C 0.15886 0.02543 0.02235 0.0
H799 H 0.20481 0.98336 0.07064 0.0
H800 H 0.16305 0.01886 0.07637 0.0
C801 C 0.17117 0.01832 0.99029 0.0
C802 C 0.64926 0.57559 0.96168 0.0
C803 C 0.6664 0.57986 0.99374 0.0
H804 H 0.60371 0.55735 0.93322 0.0
C805 C 0.64988 0.56764 0.02205 0.0
H806 H 0.66116 0.58475 0.93936 0.0
C807 C 0.61701 0.55181 0.01843 0.0
C808 C 0.59984 0.54803 0.98657 0.0
H809 H 0.66226 0.57056 0.04716 0.0
H810 H 0.60498 0.54297 0.04066 0.0
C811 C 0.61631 0.55998 0.95819 0.0
C812 C 0.73893 0.41899 0.28544 0.0
C813 C 0.72217 0.42809 0.257 0.0
H814 H 0.76587 0.38277 0.3048 0.0
C815 C 0.72193 0.40832 0.22514 0.0
H816 H 0.73976 0.43386 0.3103 0.0
C817 C 0.73654 0.37901 0.22211 0.0
C818 C 0.75228 0.36912 0.25072 0.0
H819 H 0.70938 0.41464 0.20267 0.0
H820 H 0.73473 0.36349 0.19747 0.0
C821 C 0.75413 0.38994 0.28224 0.0
C822 C 0.87768 0.46096 0.54403 0.0
C823 C 0.86084 0.45111 0.512 0.0
H824 H 0.92308 0.48146 0.57137 0.0
C825 C 0.87804 0.45371 0.48211 0.0
H826 H 0.86514 0.45911 0.56752 0.0
C827 C 0.91148 0.46641 0.48427 0.0
C828 C 0.92819 0.4769 0.51636 0.0
H829 H 0.86569 0.44605 0.45704 0.0
H830 H 0.92406 0.4686 0.46084 0.0
C831 C 0.91096 0.47378 0.54619 0.0
C832 C 0.29489 0.09407 0.22117 0.0
C833 C 0.30657 0.09079 0.25449 0.0
H834 H 0.26362 0.11767 0.19049 0.0
C835 C 0.29078 0.10279 0.28261 0.0
H836 H 0.30634 0.08448 0.199 0.0
C837 C 0.26563 0.12066 0.27766 0.0
C838 C 0.25656 0.12765 0.24457 0.0
H839 H 0.29878 0.09974 0.30851 0.0
H840 H 0.25547 0.13183 0.30002 0.0
C841 C 0.27014 0.11261 0.21624 0.0
C842 C 0.35335 0.06949 0.47494 0.0
C843 C 0.33393 0.06807 0.50328 0.0
H844 H 0.39532 0.05581 0.45237 0.0
C845 C 0.34141 0.04886 0.5301 0.0
H846 H 0.34825 0.08388 0.45376 0.0
C847 C 0.36838 0.03273 0.52924 0.0
C848 C 0.38843 0.03534 0.50153 0.0
H849 H 0.32696 0.04705 0.55227 0.0
H850 H 0.3741 0.01915 0.5508 0.0
C851 C 0.38028 0.0533 0.47407 0.0
C852 C 0.72601 0.62225 0.2477 0.0
C853 C 0.72881 0.60499 0.27712 0.0
H854 H 0.73802 0.66994 0.22425 0.0
C855 C 0.74646 0.62369 0.30645 0.0
H856 H 0.71218 0.60861 0.22488 0.0
C857 C 0.76195 0.6589 0.30586 0.0
C858 C 0.7591 0.67599 0.27628 0.0
H859 H 0.74883 0.61092 0.32948 0.0
H860 H 0.77603 0.67275 0.32843 0.0
C861 C 0.74063 0.65746 0.24743 0.0
C862 C 0.85105 0.4252 0.72831 0.0
C863 C 0.85783 0.44457 0.76058 0.0
H864 H 0.82976 0.37612 0.7001 0.0
C865 C 0.84772 0.42849 0.78994 0.0
H866 H 0.85839 0.43697 0.70524 0.0
C867 C 0.83136 0.39353 0.78707 0.0
C868 C 0.82461 0.37412 0.75477 0.0
H869 H 0.85263 0.44282 0.8152 0.0
H870 H 0.8241 0.38174 0.81015 0.0
C871 C 0.83446 0.39037 0.7254 0.0
C872 C 0.07413 0.87906 0.03884 0.0
C873 C 0.05091 0.86046 0.05847 0.0
H874 H 0.08602 0.92206 0.00844 0.0
C875 C 0.01975 0.86842 0.05859 0.0
H876 H 0.09827 0.87339 0.03811 0.0
C877 C 0.01253 0.89584 0.04113 0.0
C878 C 0.0365 0.9162 0.02367 0.0
H879 H 1.00121 0.8542 0.07315 0.0
H880 H 0.98883 0.90245 0.0432 0.0
C881 C 0.06707 0.90688 0.02182 0.0
C882 C 0.91055 0.21629 0.76562 0.0
C883 C 0.91962 0.23622 0.7975 0.0
H884 H 0.87675 0.20476 0.72175 0.0
C885 C 0.9004 0.25995 0.80972 0.0
H886 H 0.92478 0.19777 0.75545 0.0
C887 C 0.87308 0.264 0.79038 0.0
C888 C 0.86418 0.2443 0.75846 0.0
H889 H 0.90664 0.27577 0.83412 0.0
H890 H 0.85913 0.28293 0.8003 0.0
C891 C 0.88307 0.22029 0.74629 0.0
C892 C 0.50427 0.17796 0.54741 0.0
C893 C 0.52824 0.19457 0.57268 0.0
H894 H 0.48557 0.13186 0.51299 0.0
C895 C 0.55363 0.17748 0.5809 0.0
H896 H 0.48447 0.19047 0.54041 0.0
C897 C 0.5546 0.14413 0.56473 0.0
C898 C 0.5299 0.12697 0.54044 0.0
H899 H 0.57266 0.18975 0.60006 0.0
H900 H 0.57399 0.13127 0.57222 0.0
C901 C 0.50493 0.1444 0.53168 0.0
C902 C 0.5916 0.77245 0.2715 0.0
C903 C 0.58136 0.75311 0.29889 0.0
H904 H 0.62956 0.78776 0.238 0.0
C905 C 0.6014 0.73173 0.31176 0.0
H906 H 0.57671 0.78905 0.26089 0.0
C907 C 0.63151 0.73078 0.29842 0.0
C908 C 0.64227 0.75132 0.27209 0.0
H909 H 0.59416 0.71628 0.33268 0.0
H910 H 0.64683 0.71491 0.30955 0.0
C911 C 0.62182 0.77165 0.25831 0.0
C912 C 0.01474 0.17452 0.45544 0.0
C913 C 0.04172 0.20016 0.46862 0.0
H914 H 0.98762 0.12227 0.45669 0.0
C915 C 0.06115 0.19264 0.49584 0.0
H916 H 0.99917 0.1794 0.43458 0.0
C917 C 0.05435 0.15985 0.50881 0.0
C918 C 0.02813 0.1337 0.49466 0.0
H919 H 0.08203 0.21185 0.50675 0.0
H920 H 0.07038 0.15461 0.52908 0.0
C921 C 0.00812 0.14168 0.46817 0.0
C922 C 0.61794 0.25084 0.12982 0.0
C923 C 0.59115 0.24848 0.15034 0.0
H924 H 0.66781 0.24696 0.12647 0.0
C925 C 0.59378 0.23704 0.18299 0.0
H926 H 0.61663 0.25931 0.10441 0.0
C927 C 0.62288 0.22908 0.19522 0.0
C928 C 0.65004 0.23296 0.17524 0.0
H929 H 0.57344 0.23444 0.1992 0.0
H930 H 0.62449 0.2214 0.22092 0.0
C931 C 0.64718 0.24345 0.14226 0.0
C932 C 0.55112 0.89547 0.97108 0.0
C933 C 0.54154 0.86422 0.98645 0.0
H934 H 0.5559 0.95151 0.97566 0.0
C935 C 0.52999 0.86628 0.01955 0.0
H936 H 0.56021 0.89488 0.94567 0.0
C937 C 0.52754 0.89879 0.0366 0.0
C938 C 0.5361 0.92974 0.02067 0.0
H939 H 0.52253 0.84274 0.03217 0.0
H940 H 0.51823 0.89962 0.06191 0.0
C941 C 0.54831 0.92787 0.98801 0.0
C942 C 0.9079 0.73473 0.71565 0.0
C943 C 0.92462 0.76223 0.6986 0.0
H944 H 0.86631 0.71555 0.74285 0.0
C945 C 0.91256 0.79349 0.69858 0.0
H946 H 0.91655 0.71036 0.71633 0.0
C947 C 0.8837 0.79655 0.71396 0.0
C948 C 0.86619 0.76838 0.7296 0.0
H949 H 0.9249 0.81527 0.68581 0.0
H950 H 0.87452 0.82051 0.71242 0.0
C951 C 0.87903 0.73774 0.73089 0.0
C952 C 0.11315 0.0388 0.90223 0.0
C953 C 0.11553 0.01058 0.87811 0.0
H954 H 0.08563 0.05932 0.94079 0.0
C955 C 0.09107 0.98002 0.87541 0.0
H956 H 0.1312 0.06295 0.90461 0.0
C957 C 0.06509 0.97764 0.89695 0.0
C958 C 0.06304 0.00593 0.92117 0.0
H959 H 0.09214 0.95792 0.85688 0.0
H960 H 0.04678 0.95372 0.89478 0.0
C961 C 0.08704 0.03666 0.92311 0.0
C962 C 0.7479 0.334 0.5712 0.0
C963 C 0.77056 0.33133 0.54637 0.0
H964 H 0.73129 0.31945 0.6195 0.0
C965 C 0.7926 0.30884 0.55022 0.0
H966 H 0.73046 0.35086 0.56883 0.0
C967 C 0.79307 0.29085 0.57929 0.0
C968 C 0.77148 0.29503 0.60484 0.0
H969 H 0.81025 0.30605 0.5314 0.0
H970 H 0.8111 0.27481 0.58236 0.0
C971 C 0.74835 0.31597 0.60017 0.0
C972 C 0.45167 0.00943 0.38264 0.0
C973 C 0.45264 0.04118 0.36839 0.0
H974 H 0.47261 0.98223 0.4194 0.0
C975 C 0.47621 0.07088 0.3808 0.0
H976 H 0.43371 0.98622 0.37334 0.0
C977 C 0.49924 0.06834 0.4067 0.0
C978 C 0.49816 0.03636 0.42075 0.0
H979 H 0.47746 0.09549 0.36972 0.0
H980 H 0.51758 0.09122 0.4159 0.0
C981 C 0.47397 0.00715 0.40884 0.0
C982 C 0.75172 0.69807 0.09455 0.0
C983 C 0.78222 0.70043 0.08048 0.0
H984 H 0.72536 0.70993 0.13845 0.0
C985 C 0.80981 0.71837 0.10051 0.0
H986 H 0.72993 0.68434 0.07984 0.0
C987 C 0.80717 0.73309 0.13386 0.0
C988 C 0.77686 0.73015 0.14837 0.0
H989 H 0.83365 0.72082 0.09057 0.0
H990 H 0.8292 0.74638 0.14843 0.0
C991 C 0.74908 0.71269 0.12818 0.0
C992 C 0.08603 0.04452 0.71014 0.0
C993 C 0.11111 0.0254 0.71093 0.0
H994 H 0.05448 0.06755 0.6791 0.0
C995 C 0.12488 0.01644 0.68018 0.0
H996 H 0.07524 0.05226 0.73348 0.0
C997 C 0.11297 0.02521 0.64914 0.0
C998 C 0.08741 0.04355 0.64831 0.0
H999 H 0.1444 0.00198 0.67998 0.0
H1000 H 0.12327 0.01688 0.62567 0.0
C1001 C 0.07443 0.05371 0.67911 0.0
C1002 C 0.73539 0.34299 0.36669 0.0
C1003 C 0.76146 0.34047 0.38899 0.0
H1004 H 0.70785 0.32265 0.31976 0.0
C1005 C 0.77819 0.31289 0.38245 0.0
H1006 H 0.72201 0.36391 0.37136 0.0
C1007 C 0.76944 0.28868 0.35353 0.0
C1008 C 0.74471 0.29247 0.33019 0.0
H1009 H 0.79786 0.30987 0.3998 0.0
H1010 H 0.78213 0.26718 0.34924 0.0
C1011 C 0.72721 0.31928 0.33735 0.0
C1012 C 0.45082 0.08043 0.1906 0.0
C1013 C 0.46617 0.07506 0.22144 0.0
H1014 H 0.45247 0.0789 0.13626 0.0
C1015 C 0.49719 0.0668 0.22116 0.0
H1016 H 0.42706 0.08716 0.19015 0.0
C1017 C 0.51161 0.06157 0.19014 0.0
C1018 C 0.49536 0.06508 0.15921 0.0
H1019 H 0.50955 0.06253 0.24463 0.0
H1020 H 0.5348 0.05349 0.19027 0.0
C1021 C 0.46541 0.07574 0.15979 0.0
C1022 C 0.74901 0.74577 0.90372 0.0
C1023 C 0.763 0.71612 0.90655 0.0
H1024 H 0.74274 0.78769 0.87425 0.0
C1025 C 0.78246 0.70649 0.88033 0.0
H1026 H 0.73392 0.75408 0.9233 0.0
C1027 C 0.78752 0.72594 0.85193 0.0
C1028 C 0.77327 0.75542 0.84923 0.0
H1029 H 0.79364 0.68381 0.88162 0.0
H1030 H 0.80259 0.71796 0.83217 0.0
C1031 C 0.75415 0.76516 0.87556 0.0
C1032 C 0.85596 0.04155 0.01591 0.0
C1033 C 0.84291 0.04935 0.98477 0.0
H1034 H 0.89195 0.0193 0.04084 0.0
C1035 C 0.85391 0.03592 0.95388 0.0
H1036 H 0.84763 0.051 0.04012 0.0
C1037 C 0.87945 0.01766 0.95431 0.0
C1038 C 0.8941 0.0124 0.98562 0.0
H1039 H 0.84413 0.04128 0.92947 0.0
H1040 H 0.88905 0.00974 0.93029 0.0
C1041 C 0.8812 0.02314 0.01631 0.0
C1042 C 0.38115 0.49624 0.08023 0.0
C1043 C 0.36509 0.47436 0.0517 0.0
H1044 H 0.42564 0.52822 0.10236 0.0
C1045 C 0.3823 0.46985 0.0221 0.0
H1046 H 0.36872 0.50044 0.10339 0.0
C1047 C 0.41503 0.48603 0.02149 0.0
C1048 C 0.43117 0.50695 0.05047 0.0
H1049 H 0.37071 0.4532 0.99963 0.0
H1050 H 0.42791 0.48128 0.99877 0.0
C1051 C 0.41379 0.51224 0.07963 0.0
C1052 C 0.29253 0.60777 0.71454 0.0
C1053 C 0.32313 0.60421 0.72781 0.0
H1054 H 0.25906 0.64223 0.70845 0.0
C1055 C 0.34269 0.63314 0.74746 0.0
H1056 H 0.27679 0.58592 0.6994 0.0
C1057 C 0.33243 0.66507 0.75298 0.0
C1058 C 0.30238 0.66921 0.73877 0.0
H1059 H 0.36621 0.63131 0.75844 0.0
H1060 H 0.34861 0.68679 0.76783 0.0
C1061 C 0.28229 0.64 0.71988 0.0
C1062 C 0.18002 0.59133 0.57233 0.0
C1063 C 0.19752 0.58969 0.54272 0.0
H1064 H 0.1336 0.58085 0.59367 0.0
C1065 C 0.18102 0.57475 0.51145 0.0
H1066 H 0.19208 0.60277 0.5968 0.0
C1067 C 0.14768 0.56226 0.50964 0.0
C1068 C 0.12996 0.56447 0.53905 0.0
H1069 H 0.19379 0.57303 0.48816 0.0
H1070 H 0.13583 0.55123 0.48497 0.0
C1071 C 0.14651 0.57889 0.57051 0.0
C1072 C 0.7311 0.93699 0.72256 0.0
C1073 C 0.72575 0.95504 0.75373 0.0
H1074 H 0.75549 0.89946 0.69761 0.0
C1075 C 0.74584 0.95424 0.78291 0.0
H1076 H 0.71655 0.93811 0.69947 0.0
C1077 C 0.76814 0.93199 0.7819 0.0
C1078 C 0.77064 0.91072 0.75163 0.0
H1079 H 0.74255 0.96854 0.8071 0.0
H1080 H 0.78105 0.92899 0.80551 0.0
C1081 C 0.75374 0.91531 0.72141 0.0
C1082 C 0.6854 0.96419 0.53823 0.0
C1083 C 0.70616 0.96781 0.51106 0.0
H1084 H 0.64198 0.97543 0.55951 0.0
C1085 C 0.69937 0.98839 0.48509 0.0
H1086 H 0.68986 0.9487 0.55874 0.0
C1087 C 0.67191 0.00379 0.48561 0.0
C1088 C 0.6506 -0.00096 0.51211 0.0
H1089 H 0.71483 0.9919 0.46381 0.0
H1090 H 0.66687 0.01855 0.46469 0.0
C1091 C 0.65796 0.97961 0.53873 0.0
C1092 C 0.33254 0.41192 0.73737 0.0
C1093 C 0.32477 0.42531 0.70673 0.0
H1094 H 0.32242 0.36966 0.76892 0.0
C1095 C 0.30068 0.40496 0.68353 0.0
H1096 H 0.35131 0.42683 0.75558 0.0
C1097 C 0.28381 0.37238 0.69149 0.0
C1098 C 0.29129 0.35938 0.72239 0.0
H1099 H 0.29433 0.4146 0.65971 0.0
H1100 H 0.26472 0.35748 0.67363 0.0
C1101 C 0.31619 0.3791 0.74496 0.0
C1102 C 0.21093 0.60645 0.24941 0.0
C1103 C 0.19937 0.59 0.21666 0.0
H1104 H 0.23825 0.65217 0.27893 0.0
C1105 C 0.20861 0.60719 0.18776 0.0
H1106 H 0.20451 0.59373 0.27222 0.0
C1107 C 0.22812 0.64078 0.19162 0.0
C1108 C 0.23873 0.65773 0.22447 0.0
H1109 H 0.20029 0.59504 0.1622 0.0
H1110 H 0.23411 0.65376 0.16887 0.0
C1111 C 0.23046 0.63993 0.25327 0.0
C1112 C 0.55374 0.68447 0.4647 0.0
C1113 C 0.52458 0.68603 0.44675 0.0
H1114 H 0.57893 0.65532 0.49628 0.0
C1115 C 0.49697 0.66024 0.45027 0.0
H1116 H 0.57545 0.70408 0.46274 0.0
C1117 C 0.49887 0.6325 0.46988 0.0
C1118 C 0.52854 0.62971 0.48612 0.0
H1119 H 0.47406 0.6609 0.43708 0.0
H1120 H 0.47734 0.61239 0.47092 0.0
C1121 C 0.55574 0.65654 0.48405 0.0
C1122 C 0.65 0.30551 0.71422 0.0
C1123 C 0.6427 0.28568 0.68205 0.0
H1124 H 0.68301 0.319 0.7588 0.0
C1125 C 0.66398 0.26417 0.67015 0.0
H1126 H 0.63407 0.32228 0.72412 0.0
C1127 C 0.69145 0.26188 0.69011 0.0
C1128 C 0.69881 0.28157 0.72222 0.0
H1129 H 0.65907 0.24831 0.64565 0.0
H1130 H 0.70674 0.24425 0.68046 0.0
C1131 C 0.67796 0.30362 0.73406 0.0
C1132 C 0.96088 0.35187 0.95918 0.0
C1133 C 0.98782 0.33947 0.9467 0.0
H1134 H 0.94353 0.39413 0.98632 0.0
C1135 C 0.01893 0.35997 0.95484 0.0
H1136 H 0.93659 0.33662 0.95346 0.0
C1137 C 0.02295 0.39273 0.97409 0.0
C1138 C 0.99589 0.40587 0.98522 0.0
H1139 H 0.04019 0.35099 0.94585 0.0
H1140 H 0.04721 0.40829 0.97904 0.0
C1141 C 0.96486 0.38482 0.97805 0.0
C1142 C 0.95629 0.80825 0.20694 0.0
C1143 C 0.97185 0.78012 0.21211 0.0
H1144 H 0.91448 0.831 0.2152 0.0
C1145 C 0.95766 0.75448 0.23277 0.0
H1146 H 0.96662 0.82859 0.19134 0.0
C1147 C 0.92781 0.75601 0.24653 0.0
C1148 C 0.91161 0.78319 0.23989 0.0
H1149 H 0.96905 0.73257 0.23741 0.0
H1150 H 0.91686 0.73519 0.26131 0.0
C1151 C 0.92645 0.80974 0.22067 0.0
C1152 C 0.51765 0.37442 0.08037 0.0
C1153 C 0.49254 0.34738 0.06552 0.0
H1154 H 0.54216 0.42782 0.08103 0.0
C1155 C 0.47338 0.35409 0.03765 0.0
H1156 H 0.53298 0.37025 0.10177 0.0
C1157 C 0.47875 0.38736 0.02551 0.0
C1158 C 0.50326 0.41467 0.04116 0.0
H1159 H 0.45387 0.33382 0.02553 0.0
H1160 H 0.46316 0.39191 0.00452 0.0
C1161 C 0.52287 0.40758 0.06845 0.0
C1162 C 0.94977 0.30588 0.33626 0.0
C1163 C 0.94858 0.30007 0.37102 0.0
H1164 H 0.92312 0.31217 0.29035 0.0
C1165 C 0.91901 0.29856 0.38673 0.0
H1166 H 0.97224 0.30753 0.3235 0.0
C1167 C 0.89095 0.30109 0.36774 0.0
C1168 C 0.89195 0.30568 0.33277 0.0
H1169 H 0.91727 0.29434 0.41351 0.0
H1170 H 0.86826 0.29844 0.3802 0.0
C1171 C 0.92173 0.30888 0.31736 0.0
C1172 C 0.96927 0.65981 0.5313 0.0
C1173 C 0.98389 0.67565 0.56314 0.0
H1174 H 0.96452 0.61626 0.49257 0.0
C1175 C 1.00428 0.65812 0.58129 0.0
H1176 H 0.95343 0.67262 0.51676 0.0
C1177 C 0.01107 0.62627 0.5672 0.0
C1178 C 0.99712 0.61093 0.53501 0.0
H1179 H 0.0161 0.66966 0.60584 0.0
H1180 H 0.0279 0.61416 0.58114 0.0
C1181 C 0.97564 0.62758 0.51748 0.0
C1182 C 0.62324 0.73275 0.81223 0.0
C1183 C 0.61734 0.76306 0.83127 0.0
H1184 H 0.65488 0.71021 0.77947 0.0
C1185 C 0.63861 0.79531 0.82919 0.0
H1186 H 0.60731 0.70749 0.8131 0.0
C1187 C 0.66571 0.79697 0.80942 0.0
C1188 C 0.67238 0.76634 0.79162 0.0
H1189 H 0.63465 0.81921 0.84333 0.0
H1190 H 0.68216 0.82203 0.80931 0.0
C1191 C 0.65052 0.73432 0.79284 0.0
C1192 C 0.45851 0.52329 0.63204 0.0
C1193 C 0.46157 0.55329 0.65579 0.0
H1194 H 0.47763 0.4984 0.58865 0.0
C1195 C 0.48679 0.58216 0.65282 0.0
H1196 H 0.43943 0.50056 0.63356 0.0
C1197 C 0.50857 0.58094 0.62695 0.0
C1198 C 0.50561 0.55088 0.60344 0.0
H1199 H 0.48988 0.60571 0.67063 0.0
H1200 H 0.52781 0.60353 0.62544 0.0
C1201 C 0.48034 0.52208 0.60622 0.0
C1202 C 0.75363 0.21377 0.92717 0.0
C1203 C 0.77804 0.19576 0.93631 0.0
H1204 H 0.73655 0.24539 0.89153 0.0
C1205 C 0.80573 0.19833 0.91722 0.0
H1206 H 0.73215 0.2126 0.94159 0.0
C1207 C 0.80819 0.21713 0.88856 0.0
C1208 C 0.78314 0.23385 0.87869 0.0
H1209 H 0.82503 0.18492 0.92374 0.0
H1210 H 0.82922 0.21762 0.8735 0.0
C1211 C 0.75622 0.23275 0.89867 0.0
C1212 C 0.06616 0.53378 0.15537 0.0
C1213 C 0.07111 0.50216 0.16691 0.0
H1214 H 0.04177 0.55819 0.11877 0.0
C1215 C 0.05328 0.47 0.15093 0.0
H1216 H 0.07969 0.5589 0.16715 0.0
C1217 C 0.03067 0.46969 0.12367 0.0
C1218 C 0.02655 0.50147 0.11181 0.0
H1219 H 0.05668 0.44533 0.15963 0.0
H1220 H 0.0174 0.4448 0.11112 0.0
C1221 C 0.04442 0.5334 0.12781 0.0
C1222 C 0.81404 0.83714 0.41452 0.0
C1223 C 0.78603 0.8419 0.43116 0.0
H1224 H 0.83439 0.82037 0.36844 0.0
C1225 C 0.75588 0.83182 0.41254 0.0
H1226 H 0.83771 0.84455 0.42788 0.0
C1227 C 0.75394 0.81765 0.37804 0.0
C1228 C 0.78215 0.81354 0.36134 0.0
H1229 H 0.73382 0.83514 0.4245 0.0
H1230 H 0.73041 0.81036 0.36436 0.0
C1231 C 0.81214 0.82331 0.38019 0.0
C1232 C 0.42331 0.52033 0.84138 0.0
C1233 C 0.43122 0.49792 0.81428 0.0
H1234 H 0.42639 0.53478 0.89545 0.0
C1235 C 0.44784 0.47126 0.82179 0.0
H1236 H 0.4101 0.54078 0.8365 0.0
C1237 C 0.45735 0.46794 0.8557 0.0
C1238 C 0.44983 0.49076 0.88264 0.0
H1239 H 0.45402 0.4534 0.80144 0.0
H1240 H 0.4711 0.44799 0.86076 0.0
C1241 C 0.43227 0.51659 0.8752 0.0
C1242 C 0.77285 0.23073 0.11145 0.0
C1243 C 0.79156 0.20563 0.10161 0.0
H1244 H 0.76379 0.26912 0.15073 0.0
C1245 C 0.81643 0.20068 0.1244 0.0
H1246 H 0.75364 0.23535 0.09439 0.0
C1247 C 0.82201 0.21988 0.15664 0.0
C1248 C 0.80279 0.24429 0.16669 0.0
H1249 H 0.83128 0.18158 0.1176 0.0
H1250 H 0.84091 0.21501 0.17397 0.0
C1251 C 0.77849 0.24995 0.14372 0.0
C1252 C 0.08714 0.55232 0.3443 0.0
C1253 C 0.09156 0.52048 0.3272 0.0
H1254 H 0.06832 0.57748 0.38742 0.0
C1255 C 0.07785 0.4886 0.33971 0.0
H1256 H 0.09713 0.57728 0.33511 0.0
C1257 C 0.06117 0.48875 0.3697 0.0
C1258 C 0.05805 0.52075 0.38744 0.0
H1259 H 0.0807 0.46362 0.32689 0.0
H1260 H 0.05175 0.464 0.3796 0.0
C1261 C 0.07054 0.55245 0.37417 0.0
C1262 C 0.75381 0.83062 0.63085 0.0
C1263 C 0.77415 0.82153 0.60524 0.0
H1264 H 0.7326 0.81865 0.67843 0.0
C1265 C 0.78898 0.7926 0.60901 0.0
H1266 H 0.74189 0.85266 0.62885 0.0
C1267 C 0.78376 0.77338 0.63734 0.0
C1268 C 0.76368 0.78248 0.66301 0.0
H1269 H 0.80475 0.78464 0.58999 0.0
H1270 H 0.79581 0.75141 0.63926 0.0
C1271 C 0.7486 0.81127 0.65939 0.0
C1272 C 0.70151 0.50292 0.49144 0.0
C1273 C 0.71405 0.49001 0.52022 0.0
H1274 H 0.66771 0.53179 0.47206 0.0
C1275 C 0.70484 0.50091 0.55289 0.0
H1276 H 0.7085 0.49548 0.46598 0.0
C1277 C 0.68143 0.52182 0.55638 0.0
C1278 C 0.66708 0.53234 0.52728 0.0
H1279 H 0.71432 0.49168 0.57561 0.0
H1280 H 0.67308 0.52777 0.58158 0.0
C1281 C 0.67835 0.52402 0.49496 0.0
C1282 C 0.15752 0.06672 0.4664 0.0
C1283 C 0.17143 0.08059 0.49914 0.0
H1284 H 0.11446 0.04086 0.43628 0.0
C1285 C 0.15151 0.07895 0.52709 0.0
H1286 H 0.17216 0.06765 0.44435 0.0
C1287 C 0.11842 0.06421 0.52234 0.0
C1288 C 0.10461 0.05003 0.48973 0.0
H1289 H 0.16133 0.08981 0.5526 0.0
H1290 H 0.10358 0.06444 0.54411 0.0
C1291 C 0.1245 0.05135 0.4618 0.0
C1292 C 0.25058 0.92392 0.7803 0.0
C1293 C 0.234 0.93429 0.75248 0.0
H1294 H 0.27882 0.88785 0.7975 0.0
C1295 C 0.23543 0.91722 0.71957 0.0
H1296 H 0.25008 0.93674 0.80591 0.0
C1297 C 0.25147 0.88906 0.71486 0.0
C1298 C 0.26722 0.87802 0.74277 0.0
H1299 H 0.22294 0.92458 0.6976 0.0
H1300 H 0.25075 0.87521 0.6895 0.0
C1301 C 0.26737 0.89626 0.77542 0.0
C1302 C 0.37369 0.96174 0.04331 0.0
C1303 C 0.35604 0.95271 0.01167 0.0
H1304 H 0.4199 0.98073 0.06951 0.0
C1305 C 0.37246 0.95565 0.98128 0.0
H1306 H 0.36174 0.9596 0.06715 0.0
C1307 C 0.40598 0.9675 0.98258 0.0
C1308 C 0.42356 0.97689 0.01428 0.0
H1309 H 0.35948 0.9486 0.95647 0.0
H1310 H 0.41797 0.96981 0.95879 0.0
C1311 C 0.40707 0.9738 0.04461 0.0
C1312 C 0.80031 0.6028 0.80211 0.0
C1313 C 0.809 0.58325 0.77339 0.0
H1314 H 0.77357 0.6413 0.8204 0.0
C1315 C 0.79236 0.58256 0.74153 0.0
H1316 H 0.81221 0.60305 0.82712 0.0
C1317 C 0.77037 0.60463 0.73761 0.0
C1318 C 0.76456 0.62724 0.76559 0.0
H1319 H 0.79822 0.5672 0.71906 0.0
H1320 H 0.76026 0.60632 0.71216 0.0
C1321 C 0.77787 0.62434 0.79831 0.0
C1322 C 0.84946 0.57331 0.9806 0.0
C1323 C 0.82826 0.572 0.00743 0.0
H1324 H 0.8927 0.55941 0.9613 0.0
C1325 C 0.83416 0.55317 0.03513 0.0
H1326 H 0.84566 0.58743 0.95881 0.0
C1327 C 0.86111 0.53706 0.03648 0.0
C1328 C 0.88276 0.5393 0.01015 0.0
H1329 H 0.81833 0.55146 0.0562 0.0
H1330 H 0.86543 0.52358 0.05858 0.0
C1331 C 0.87639 0.55714 0.98195 0.0
C1332 C 0.19608 0.13842 0.77792 0.0
C1333 C 0.20854 0.1154 0.7978 0.0
H1334 H 0.20539 0.18705 0.75568 0.0
C1335 C 0.24001 0.12571 0.81319 0.0
H1336 H 0.17204 0.13095 0.76535 0.0
C1337 C 0.25879 0.15854 0.80851 0.0
C1338 C 0.24662 0.18099 0.78764 0.0
H1339 H 0.25013 0.10835 0.82858 0.0
H1340 H 0.28312 0.16588 0.82036 0.0
C1341 C 0.21513 0.17063 0.77245 0.0
C1342 C 0.34233 0.92998 0.22507 0.0
C1343 C 0.34927 0.95025 0.25682 0.0
H1344 H 0.32193 0.88009 0.19824 0.0
C1345 C 0.33986 0.93494 0.28681 0.0
H1346 H 0.34906 0.94112 0.20152 0.0
C1347 C 0.32436 0.89965 0.28505 0.0
C1348 C 0.31776 0.87927 0.25323 0.0
H1349 H 0.34493 0.95005 0.31169 0.0
H1350 H 0.31787 0.88832 0.30855 0.0
C1351 C 0.3266 0.89496 0.22326 0.0
C1352 C 0.58075 0.38715 0.55643 0.0
C1353 C 0.55619 0.36634 0.57283 0.0
H1354 H 0.59451 0.43267 0.52982 0.0
C1355 C 0.525 0.37427 0.57187 0.0
H1356 H 0.60498 0.38167 0.55654 0.0
C1357 C 0.51887 0.40332 0.55625 0.0
C1358 C 0.54389 0.42529 0.54155 0.0
H1359 H 0.50543 0.35854 0.58398 0.0
H1360 H 0.49489 0.40942 0.55711 0.0
C1361 C 0.57471 0.41641 0.54111 0.0
C1362 C 0.41098 0.73387 0.28326 0.0
C1363 C 0.41508 0.75595 0.31433 0.0
H1364 H 0.38237 0.71686 0.23578 0.0
C1365 C 0.39294 0.77805 0.32104 0.0
H1366 H 0.42771 0.71659 0.27729 0.0
C1367 C 0.36756 0.77841 0.29741 0.0
C1368 C 0.36318 0.75636 0.26649 0.0
H1369 H 0.39531 0.79557 0.34451 0.0
H1370 H 0.35138 0.79628 0.30347 0.0
C1371 C 0.38514 0.73404 0.2595 0.0
C1372 C 1.0035 0.67941 0.05163 0.0
C1373 C 0.02727 0.69675 0.07676 0.0
H1374 H 0.98379 0.63159 0.02013 0.0
C1375 C 0.05128 0.67905 0.08786 0.0
H1376 H 0.98479 0.69239 0.04246 0.0
C1377 C 0.05102 0.64437 0.07469 0.0
C1378 C 0.02646 0.6266 0.05057 0.0
H1379 H 0.07014 0.69187 0.10698 0.0
H1380 H 0.06932 0.63112 0.08434 0.0
C1381 C 1.00295 0.6446 0.03886 0.0
C1382 C 0.09383 0.24068 0.81655 0.0
C1383 C 0.07638 0.26642 0.80825 0.0
H1384 H 0.13697 0.21988 0.81043 0.0
C1385 C 0.08906 0.29011 0.78502 0.0
H1386 H 0.08473 0.22189 0.83421 0.0
C1387 C 0.11904 0.28888 0.77138 0.0
C1388 C 0.13687 0.26391 0.78066 0.0
H1389 H 0.07622 0.31018 0.77799 0.0
H1390 H 0.12864 0.30806 0.75427 0.0
C1391 C 0.12374 0.23945 0.80288 0.0
C1392 C 0.49292 0.66557 0.96195 0.0
C1393 C 0.5224 0.68944 0.96094 0.0
H1394 H 0.46871 0.61597 0.97606 0.0
C1395 C 0.55053 0.68176 0.97661 0.0
H1396 H 0.47074 0.67054 0.95033 0.0
C1397 C 0.54923 0.65038 0.99201 0.0
C1398 C 0.51987 0.62593 0.99155 0.0
H1399 H 0.57362 0.69967 0.97643 0.0
H1400 H 0.57137 0.64455 0.00287 0.0
C1401 C 0.49173 0.6342 0.97679 0.0
C1402 C 0.10392 0.7709 0.68865 0.0
C1403 C 0.09667 0.76013 0.6536 0.0
H1404 H 0.13843 0.77632 0.73134 0.0
C1405 C 0.11948 0.74561 0.63468 0.0
H1406 H 0.08684 0.78196 0.704 0.0
C1407 C 0.149 0.74236 0.65034 0.0
C1408 C 0.15623 0.75332 0.68529 0.0
H1409 H 0.11466 0.73692 0.60764 0.0
H1410 H 0.16627 0.73159 0.63502 0.0
C1411 C 0.13337 0.76744 0.70434 0.0
C1412 C 0.03741 0.3693 0.52175 0.0
C1413 C 0.04566 0.36725 0.48736 0.0
H1414 H 0.02848 0.40237 0.56573 0.0
C1415 C 0.0528 0.39846 0.47143 0.0
H1416 H 0.03185 0.34581 0.53484 0.0
C1417 C 0.05051 0.43074 0.48908 0.0
C1418 C 0.04128 0.43252 0.52304 0.0
H1419 H 0.05925 0.39787 0.445 0.0
H1420 H 0.05581 0.45429 0.47613 0.0
C1421 C 0.03545 0.40166 0.53947 0.0
C1422 C 0.38898 0.21615 0.19971 0.0
C1423 C 0.4124 0.24526 0.19287 0.0
H1424 H 0.34295 0.19794 0.21982 0.0
C1425 C 0.40781 0.27922 0.20406 0.0
H1426 H 0.39179 0.18961 0.19161 0.0
C1427 C 0.37987 0.28401 0.22042 0.0
C1428 C 0.35572 0.25499 0.22589 0.0
H1429 H 0.42543 0.30224 0.19946 0.0
H1430 H 0.37679 0.31062 0.22771 0.0
C1431 C 0.36094 0.22095 0.21597 0.0
C1432 C 0.60893 0.54806 0.40361 0.0
C1433 C 0.61064 0.51981 0.37925 0.0
H1434 H 0.58583 0.56675 0.44688 0.0
C1435 C 0.58931 0.48738 0.38079 0.0
H1436 H 0.6249 0.57338 0.40329 0.0
C1437 C 0.56657 0.48356 0.40608 0.0
C1438 C 0.56511 0.51198 0.43037 0.0
H1439 H 0.58995 0.46512 0.3623 0.0
H1440 H 0.5503 0.45847 0.40673 0.0
C1441 C 0.58653 0.54418 0.42878 0.0
C1442 C 0.24655 0.83147 0.06856 0.0
C1443 C 0.27009 0.83063 0.04445 0.0
H1444 H 0.23018 0.81649 0.1167 0.0
C1445 C 0.29421 0.81085 0.04937 0.0
H1446 H 0.22748 0.84615 0.06528 0.0
C1447 C 0.29581 0.79387 0.07897 0.0
C1448 C 0.27324 0.79641 0.10382 0.0
H1449 H 0.3126 0.80961 0.03106 0.0
H1450 H 0.31536 0.78002 0.08301 0.0
C1451 C 0.24808 0.81444 0.09796 0.0
C1452 C 0.97941 0.56584 0.89207 0.0
C1453 C 0.95971 0.53482 0.87599 0.0
H1454 H 0.01489 0.58844 0.93305 0.0
C1455 C 0.96025 0.50266 0.88893 0.0
H1456 H 0.97938 0.59087 0.8822 0.0
C1457 C 0.97972 0.50144 0.91793 0.0
C1458 C 0.9997 0.53221 0.93385 0.0
H1459 H 0.94517 0.47846 0.87694 0.0
H1460 H 0.97929 0.47631 0.9278 0.0
C1461 C 0.9998 0.56444 0.92071 0.0
C1462 C 0.2268 0.20553 0.5974 0.0
C1463 C 0.25418 0.19745 0.58155 0.0
H1464 H 0.20747 0.2253 0.64325 0.0
C1465 C 0.28394 0.20405 0.60079 0.0
H1466 H 0.20344 0.2006 0.58337 0.0
C1467 C 0.2863 0.21851 0.63501 0.0
C1468 C 0.25885 0.22626 0.651 0.0
H1469 H 0.30549 0.19812 0.58939 0.0
H1470 H 0.30964 0.22324 0.64903 0.0
C1471 C 0.22905 0.21954 0.6318 0.0
C1472 C 0.60231 0.56649 0.20456 0.0
C1473 C 0.61765 0.53827 0.21014 0.0
H1474 H 0.57628 0.59075 0.16865 0.0
C1475 C 0.61974 0.51348 0.18236 0.0
H1476 H 0.60047 0.58618 0.22537 0.0
C1477 C 0.60627 0.5164 0.14996 0.0
C1478 C 0.59027 0.54407 0.14458 0.0
H1479 H 0.63165 0.49164 0.18564 0.0
H1480 H 0.60779 0.49646 0.12925 0.0
C1481 C 0.58865 0.5693 0.17207 0.0
C1482 C 0.24364 0.81716 0.88019 0.0
C1483 C 0.27329 0.83999 0.89054 0.0
H1484 H 0.21812 0.77643 0.84272 0.0
C1485 C 0.30096 0.83645 0.87294 0.0
H1486 H 0.22202 0.81905 0.89365 0.0
C1487 C 0.29871 0.81219 0.84429 0.0
C1488 C 0.26893 0.79058 0.83286 0.0
H1489 H 0.32421 0.85342 0.88039 0.0
H1490 H 0.31998 0.81185 0.82989 0.0
C1491 C 0.24151 0.79238 0.85153 0.0
C1492 C 0.95401 0.57722 0.69721 0.0
C1493 C 0.97041 0.57259 0.7277 0.0
H1494 H 0.95426 0.57539 0.64274 0.0
C1495 C 1.00182 0.56544 0.7266 0.0
H1496 H 0.9299 0.58305 0.69735 0.0
C1497 C 0.01565 0.5606 0.69518 0.0
C1498 C 0.99838 0.56332 0.66463 0.0
H1499 H 0.01501 0.56173 0.74976 0.0
H1500 H 0.03922 0.55344 0.69472 0.0
C1501 C 0.96797 0.57284 0.66597 0.0
C1502 C 0.29326 0.2177 0.39432 0.0
C1503 C 0.26399 0.19316 0.39504 0.0
H1504 H 0.3209 0.25835 0.36776 0.0
C1505 C 0.23974 0.19165 0.36906 0.0
H1506 H 0.31246 0.21954 0.41396 0.0
C1507 C 0.24444 0.21392 0.34313 0.0
C1508 C 0.27376 0.23801 0.34187 0.0
H1509 H 0.21678 0.17343 0.36886 0.0
H1510 H 0.22474 0.2124 0.32416 0.0
C1511 C 0.29814 0.23986 0.36787 0.0
C1512 C 0.35801 0.53446 0.46646 0.0
C1513 C 0.34812 0.55315 0.4952 0.0
H1514 H 0.39314 0.5058 0.44673 0.0
C1515 C 0.36352 0.5526 0.52746 0.0
H1516 H 0.34643 0.53422 0.4413 0.0
C1517 C 0.3898 0.53601 0.53059 0.0
C1518 C 0.4014 0.51987 0.50149 0.0
H1519 H 0.35611 0.56623 0.55019 0.0
H1520 H 0.40222 0.53767 0.55556 0.0
C1521 C 0.38459 0.51802 0.46957 0.0
C1522 C 0.87999 0.99664 0.57564 0.0
C1523 C 0.86528 0.97149 0.54879 0.0
H1524 H 0.92336 0.03114 0.59719 0.0
C1525 C 0.884 0.96368 0.52115 0.0
H1526 H 0.86648 0.00343 0.59729 0.0
C1527 C 0.91681 0.98015 0.52087 0.0
C1528 C 0.93156 0.00436 0.54843 0.0
H1529 H 0.87342 0.94455 0.49995 0.0
H1530 H 0.93084 0.9731 0.49975 0.0
C1531 C 0.91268 0.01262 0.57555 0.0
C1532 C 0.81663 0.12151 0.27989 0.0
C1533 C 0.82232 0.10361 0.24866 0.0
H1534 H 0.79978 0.16531 0.3048 0.0
C1535 C 0.81158 0.11467 0.21788 0.0
H1536 H 0.82456 0.11373 0.30406 0.0
C1537 C 0.79656 0.14387 0.2184 0.0
C1538 C 0.79271 0.16286 0.24966 0.0
H1539 H 0.81548 0.10131 0.19342 0.0
H1540 H 0.78971 0.15276 0.19436 0.0
C1541 C 0.80238 0.15104 0.28035 0.0
C1542 C 0.67715 0.07503 0.00588 0.0
C1543 C 0.69392 0.08521 0.03798 0.0
H1544 H 0.63149 0.05586 0.97834 0.0
C1545 C 0.67652 0.08334 0.06772 0.0
H1546 H 0.68988 0.07617 0.98247 0.0
C1547 C 0.64292 0.07192 0.06536 0.0
C1548 C 0.62612 0.06191 0.03321 0.0
H1549 H 0.68877 0.09115 0.09282 0.0
H1550 H 0.63019 0.07092 0.08875 0.0
C1551 C 0.64364 0.06338 0.00352 0.0
C1552 C 0.22631 0.43892 0.27758 0.0
C1553 C 0.22648 0.45031 0.24473 0.0
H1554 H 0.24606 0.40813 0.3119 0.0
C1555 C 0.25092 0.44426 0.2231 0.0
H1556 H 0.20822 0.44421 0.2951 0.0
C1557 C 0.27263 0.42355 0.23273 0.0
C1558 C 0.27031 0.40921 0.26424 0.0
H1559 H 0.25185 0.45338 0.19788 0.0
H1560 H 0.28933 0.41631 0.21437 0.0
C1561 C 0.24839 0.41888 0.28746 0.0
C1562 C 0.18805 0.47234 0.01759 0.0
C1563 C 0.19597 0.46129 0.04939 0.0
H1564 H 0.15525 0.49558 0.9883 0.0
C1565 C 0.17681 0.46734 0.07703 0.0
H1566 H 0.20232 0.46828 0.99579 0.0
C1567 C 0.14975 0.48283 0.07264 0.0
C1568 C 0.14139 0.49297 0.04062 0.0
H1569 H 0.18217 0.45928 0.10191 0.0
H1570 H 0.13496 0.48618 0.09417 0.0
C1571 C 0.16115 0.48814 0.01331 0.0
C1572 C 0.79146 0.91393 0.19347 0.0
C1573 C 0.8206 0.93109 0.21122 0.0
H1574 H 0.7545 0.86738 0.18576 0.0
C1575 C 0.83555 0.91304 0.23467 0.0
H1576 H 0.77944 0.927 0.17516 0.0
C1577 C 0.8211 0.87898 0.24099 0.0
C1578 C 0.79162 0.86223 0.22377 0.0
H1579 H 0.85806 0.9255 0.2488 0.0
H1580 H 0.83274 0.866 0.25971 0.0
C1581 C 0.77721 0.87977 0.19955 0.0
C1582 C 0.71731 0.09933 0.69258 0.0
C1583 C 0.70456 0.08473 0.72165 0.0
H1584 H 0.7439 0.14486 0.67254 0.0
C1585 C 0.7108 0.10452 0.75376 0.0
H1586 H 0.71285 0.08451 0.66752 0.0
C1587 C 0.72888 0.13865 0.75672 0.0
C1588 C 0.74065 0.15387 0.72753 0.0
H1589 H 0.70152 0.09372 0.77664 0.0
H1590 H 0.73272 0.15342 0.78182 0.0
C1591 C 0.73502 0.13381 0.69545 0.0
loop_
_geom_bond_atom_site_label_1
_geom_bond_atom_site_label_2
_geom_bond_distance
_geom_bond_site_symmetry_2
_ccdc_geom_bond_type
C0 O1 1.160 . S
C0 O7 1.185 . S
O1 C0 1.160 . S
O2 Zn3 1.899 . S
O2 C10 1.284 . S
Zn3 O2 1.899 . S
Zn3 O4 2.032 . S
Zn3 O7 2.086 . S
Zn3 O12 1.977 1_455 S
O4 Zn3 2.032 . S
O4 C8 1.278 . S
C5 O6 1.203 . S
C5 O12 1.267 . S
O6 C5 1.203 . S
O7 C0 1.185 . S
O7 Zn3 2.086 . S
C8 O4 1.278 . S
C8 O9 1.211 . S
O9 C8 1.211 . S
C10 O2 1.284 . S
C10 O11 1.273 . S
O11 C10 1.273 . S
O12 Zn3 1.977 1_655 S
O12 C5 1.267 . S
C13 O14 1.160 . S
C13 O20 1.185 . S
O14 C13 1.160 . S
O15 Zn16 1.899 1_655 S
O15 C23 1.284 1_655 S
Zn16 O15 1.899 1_455 S
Zn16 O17 2.032 1_455 S
Zn16 O20 2.086 1_455 S
Zn16 O25 1.977 . S
O17 Zn16 2.032 1_655 S
O17 C21 1.278 1_655 S
C18 O19 1.203 . S
C18 O25 1.267 . S
O19 C18 1.203 . S
O20 C13 1.185 . S
O20 Zn16 2.086 1_655 S
C21 O17 1.278 1_455 S
C21 O22 1.211 . S
O22 C21 1.211 . S
C23 O15 1.284 1_455 S
C23 O24 1.273 . S
O24 C23 1.273 . S
O25 Zn16 1.977 . S
O25 C18 1.267 . S
C26 O27 1.160 . S
C26 O33 1.185 . S
O27 C26 1.160 . S
O28 Zn29 1.899 . S
O28 C36 1.284 . S
Zn29 O28 1.899 . S
Zn29 O30 2.032 . S
Zn29 O33 2.086 . S
Zn29 O38 1.977 . S
O30 Zn29 2.032 . S
O30 C34 1.278 . S
C31 O32 1.203 . S
C31 O38 1.267 . S
O32 C31 1.203 . S
O33 C26 1.185 . S
O33 Zn29 2.086 . S
C34 O30 1.278 . S
C34 O35 1.211 . S
O35 C34 1.211 . S
C36 O28 1.284 . S
C36 O37 1.273 . S
O37 C36 1.273 . S
O38 Zn29 1.977 . S
O38 C31 1.267 . S
C39 O40 1.160 . S
C39 O46 1.185 . S
O40 C39 1.160 . S
O41 Zn42 1.899 . S
O41 C49 1.284 . S
Zn42 O41 1.899 . S
Zn42 O43 2.032 . S
Zn42 O46 2.086 . S
Zn42 O51 1.977 . S
O43 Zn42 2.032 . S
O43 C47 1.278 . S
C44 O45 1.203 . S
C44 O51 1.267 . S
O45 C44 1.203 . S
O46 C39 1.185 . S
O46 Zn42 2.086 . S
C47 O43 1.278 . S
C47 O48 1.211 . S
O48 C47 1.211 . S
C49 O41 1.284 . S
C49 O50 1.273 . S
O50 C49 1.273 . S
O51 Zn42 1.977 . S
O51 C44 1.267 . S
C52 O53 1.160 . S
C52 O59 1.189 . S
O53 C52 1.160 . S
O54 Zn55 1.899 . S
O54 C62 1.284 . S
Zn55 O54 1.899 . S
Zn55 O56 2.032 . S
Zn55 O59 2.083 1_455 S
Zn55 O64 1.977 . S
O56 Zn55 2.032 . S
O56 C60 1.278 . S
C57 O58 1.203 . S
C57 O64 1.267 . S
O58 C57 1.203 . S
O59 C52 1.189 . S
O59 Zn55 2.083 1_655 S
C60 O56 1.278 . S
C60 O61 1.211 . S
O61 C60 1.211 . S
C62 O54 1.284 . S
C62 O63 1.273 . S
O63 C62 1.273 . S
O64 Zn55 1.977 . S
O64 C57 1.267 . S
C65 O66 1.160 . S
C65 O72 1.185 . S
O66 C65 1.160 . S
O67 Zn68 1.899 . S
O67 C75 1.284 . S
Zn68 O67 1.899 . S
Zn68 O69 2.032 . S
Zn68 O72 2.086 . S
Zn68 O77 1.977 . S
O69 Zn68 2.032 . S
O69 C73 1.278 . S
C70 O71 1.203 . S
C70 O77 1.267 . S
O71 C70 1.203 . S
O72 C65 1.185 . S
O72 Zn68 2.086 . S
C73 O69 1.278 . S
C73 O74 1.211 . S
O74 C73 1.211 . S
C75 O67 1.284 . S
C75 O76 1.273 . S
O76 C75 1.273 . S
O77 Zn68 1.977 . S
O77 C70 1.267 . S
C78 O79 1.160 . S
C78 O85 1.185 . S
O79 C78 1.160 . S
O80 Zn81 1.899 . S
O80 C88 1.284 . S
Zn81 O80 1.899 . S
Zn81 O82 2.032 . S
Zn81 O85 2.086 . S
Zn81 O90 1.977 . S
O82 Zn81 2.032 . S
O82 C86 1.278 . S
C83 O84 1.203 . S
C83 O90 1.267 . S
O84 C83 1.203 . S
O85 C78 1.185 . S
O85 Zn81 2.086 . S
C86 O82 1.278 . S
C86 O87 1.211 . S
O87 C86 1.211 . S
C88 O80 1.284 . S
C88 O89 1.273 . S
O89 C88 1.273 . S
O90 Zn81 1.977 . S
O90 C83 1.267 . S
C91 O92 1.160 . S
C91 O98 1.185 . S
O92 C91 1.160 . S
O93 Zn94 1.900 . S
O93 C101 1.285 1_455 S
Zn94 O93 1.900 . S
Zn94 O95 2.032 . S
Zn94 O98 2.086 . S
Zn94 O103 1.977 1_455 S
O95 Zn94 2.032 . S
O95 C99 1.278 . S
C96 O97 1.203 . S
C96 O103 1.267 . S
O97 C96 1.203 . S
O98 C91 1.185 . S
O98 Zn94 2.086 . S
C99 O95 1.278 . S
C99 O100 1.211 1_455 S
O100 C99 1.211 1_655 S
C101 O93 1.285 1_655 S
C101 O102 1.273 . S
O102 C101 1.273 . S
O103 Zn94 1.977 1_655 S
O103 C96 1.267 . S
C104 O105 1.160 . S
C104 O111 1.185 . S
O105 C104 1.160 . S
O106 Zn107 1.899 . S
O106 C114 1.284 . S
Zn107 O106 1.899 . S
Zn107 O108 2.032 . S
Zn107 O111 2.086 . S
Zn107 O116 1.977 1_545 S
O108 Zn107 2.032 . S
O108 C112 1.278 . S
C109 O110 1.203 . S
C109 O116 1.267 . S
O110 C109 1.203 . S
O111 C104 1.185 . S
O111 Zn107 2.086 . S
C112 O108 1.278 . S
C112 O113 1.211 1_545 S
O113 C112 1.211 1_565 S
C114 O106 1.284 . S
C114 O115 1.273 . S
O115 C114 1.273 . S
O116 Zn107 1.977 1_565 S
O116 C109 1.267 . S
C117 O118 1.160 . S
C117 O124 1.185 . S
O118 C117 1.160 . S
O119 Zn120 1.899 . S
O119 C127 1.284 . S
Zn120 O119 1.899 . S
Zn120 O121 2.032 . S
Zn120 O124 2.086 . S
Zn120 O129 1.977 . S
O121 Zn120 2.032 . S
O121 C125 1.278 . S
C122 O123 1.203 . S
C122 O129 1.267 . S
O123 C122 1.203 . S
O124 C117 1.185 . S
O124 Zn120 2.086 . S
C125 O121 1.278 . S
C125 O126 1.211 . S
O126 C125 1.211 . S
C127 O119 1.284 . S
C127 O128 1.273 . S
O128 C127 1.273 . S
O129 Zn120 1.977 . S
O129 C122 1.267 . S
C130 O131 1.160 . S
C130 O137 1.185 . S
O131 C130 1.160 . S
O132 Zn133 1.899 . S
O132 C140 1.284 . S
Zn133 O132 1.899 . S
Zn133 O134 2.032 . S
Zn133 O137 2.086 . S
Zn133 O142 1.977 1_565 S
O134 Zn133 2.032 . S
O134 C138 1.278 1_565 S
C135 O136 1.203 . S
C135 O142 1.267 . S
O136 C135 1.203 . S
O137 C130 1.185 . S
O137 Zn133 2.086 . S
C138 O134 1.278 1_545 S
C138 O139 1.211 . S
O139 C138 1.211 . S
C140 O132 1.284 . S
C140 O141 1.273 1_565 S
O141 C140 1.273 1_545 S
O142 Zn133 1.977 1_545 S
O142 C135 1.267 . S
C143 O144 1.160 . S
C143 O150 1.185 . S
O144 C143 1.160 . S
O145 Zn146 1.899 . S
O145 C153 1.284 . S
Zn146 O145 1.899 . S
Zn146 O147 2.032 1_554 S
Zn146 O150 2.086 . S
Zn146 O155 1.977 . S
O147 Zn146 2.032 1_556 S
O147 C151 1.278 . S
C148 O149 1.203 . S
C148 O155 1.267 . S
O149 C148 1.203 . S
O150 C143 1.185 . S
O150 Zn146 2.086 . S
C151 O147 1.278 . S
C151 O152 1.211 . S
O152 C151 1.211 . S
C153 O145 1.284 . S
C153 O154 1.273 . S
O154 C153 1.273 . S
O155 Zn146 1.977 . S
O155 C148 1.267 . S
C156 O157 1.160 . S
C156 O163 1.185 . S
O157 C156 1.160 . S
O158 Zn159 1.899 . S
O158 C166 1.284 . S
Zn159 O158 1.899 . S
Zn159 O160 2.032 1_554 S
Zn159 O163 2.086 . S
Zn159 O168 1.977 . S
O160 Zn159 2.032 1_556 S
O160 C164 1.278 . S
C161 O162 1.203 . S
C161 O168 1.267 . S
O162 C161 1.203 . S
O163 C156 1.185 . S
O163 Zn159 2.086 . S
C164 O160 1.278 . S
C164 O165 1.211 . S
O165 C164 1.211 . S
C166 O158 1.284 . S
C166 O167 1.273 . S
O167 C166 1.273 . S
O168 Zn159 1.977 . S
O168 C161 1.267 . S
C169 O170 1.160 . S
C169 O176 1.185 1_554 S
O170 C169 1.160 . S
O171 Zn172 1.899 . S
O171 C179 1.284 . S
Zn172 O171 1.899 . S
Zn172 O173 2.032 1_554 S
Zn172 O176 2.086 1_554 S
Zn172 O181 1.977 1_554 S
O173 Zn172 2.032 1_556 S
O173 C177 1.278 . S
C174 O175 1.203 . S
C174 O181 1.267 1_554 S
O175 C174 1.203 . S
O176 C169 1.185 1_556 S
O176 Zn172 2.086 1_556 S
C177 O173 1.278 . S
C177 O178 1.211 . S
O178 C177 1.211 . S
C179 O171 1.284 . S
C179 O180 1.273 . S
O180 C179 1.273 . S
O181 Zn172 1.977 1_556 S
O181 C174 1.267 1_556 S
C182 O183 1.160 . S
C182 O189 1.185 . S
O183 C182 1.160 . S
O184 Zn185 1.899 . S
O184 C192 1.284 . S
Zn185 O184 1.899 . S
Zn185 O186 2.032 . S
Zn185 O189 2.086 . S
Zn185 O194 1.977 . S
O186 Zn185 2.032 . S
O186 C190 1.278 . S
C187 O188 1.203 . S
C187 O194 1.267 . S
O188 C187 1.203 . S
O189 C182 1.185 . S
O189 Zn185 2.086 . S
C190 O186 1.278 . S
C190 O191 1.211 . S
O191 C190 1.211 . S
C192 O184 1.284 . S
C192 O193 1.273 . S
O193 C192 1.273 . S
O194 Zn185 1.977 . S
O194 C187 1.267 . S
C195 O196 1.160 . S
C195 O202 1.185 . S
O196 C195 1.160 . S
O197 Zn198 1.899 . S
O197 C205 1.284 . S
Zn198 O197 1.899 . S
Zn198 O199 2.032 . S
Zn198 O202 2.086 . S
Zn198 O207 1.977 . S
O199 Zn198 2.032 . S
O199 C203 1.278 . S
C200 O201 1.203 . S
C200 O207 1.267 . S
O201 C200 1.203 . S
O202 C195 1.185 . S
O202 Zn198 2.086 . S
C203 O199 1.278 . S
C203 O204 1.211 . S
O204 C203 1.211 . S
C205 O197 1.284 . S
C205 O206 1.273 . S
O206 C205 1.273 . S
O207 Zn198 1.977 . S
O207 C200 1.267 . S
C208 O209 1.160 . S
C208 O215 1.185 . S
O209 C208 1.160 . S
O210 Zn211 1.899 . S
O210 C218 1.284 . S
Zn211 O210 1.899 . S
Zn211 O212 2.032 . S
Zn211 O215 2.086 . S
Zn211 O220 1.977 . S
O212 Zn211 2.032 . S
O212 C216 1.278 . S
C213 O214 1.203 . S
C213 O220 1.267 1_565 S
O214 C213 1.203 . S
O215 C208 1.185 . S
O215 Zn211 2.086 . S
C216 O212 1.278 . S
C216 O217 1.211 . S
O217 C216 1.211 . S
C218 O210 1.284 . S
C218 O219 1.273 . S
O219 C218 1.273 . S
O220 Zn211 1.977 . S
O220 C213 1.267 1_545 S
C221 O222 1.160 . S
C221 O228 1.185 . S
O222 C221 1.160 . S
O223 Zn224 1.899 . S
O223 C231 1.284 . S
Zn224 O223 1.899 . S
Zn224 O225 2.032 . S
Zn224 O228 2.086 . S
Zn224 O233 1.977 . S
O225 Zn224 2.032 . S
O225 C229 1.278 . S
C226 O227 1.203 . S
C226 O233 1.267 . S
O227 C226 1.203 . S
O228 C221 1.185 . S
O228 Zn224 2.086 . S
C229 O225 1.278 . S
C229 O230 1.211 . S
O230 C229 1.211 . S
C231 O223 1.284 . S
C231 O232 1.273 . S
O232 C231 1.273 . S
O233 Zn224 1.977 . S
O233 C226 1.267 . S
C234 O235 1.160 . S
C234 O241 1.185 . S
O235 C234 1.160 . S
O236 Zn237 1.899 . S
O236 C244 1.284 . S
Zn237 O236 1.899 . S
Zn237 O238 2.032 . S
Zn237 O241 2.086 . S
Zn237 O246 1.977 . S
O238 Zn237 2.032 . S
O238 C242 1.278 . S
C239 O240 1.203 . S
C239 O246 1.267 . S
O240 C239 1.203 . S
O241 C234 1.185 . S
O241 Zn237 2.086 . S
C242 O238 1.278 . S
C242 O243 1.211 . S
O243 C242 1.211 . S
C244 O236 1.284 . S
C244 O245 1.273 . S
O245 C244 1.273 . S
O246 Zn237 1.977 . S
O246 C239 1.267 . S
C247 O248 1.160 . S
C247 O254 1.185 . S
O248 C247 1.160 . S
O249 Zn250 1.899 . S
O249 C257 1.284 . S
Zn250 O249 1.899 . S
Zn250 O251 2.032 . S
Zn250 O254 2.086 1_545 S
Zn250 O259 1.977 . S
O251 Zn250 2.032 . S
O251 C255 1.278 . S
C252 O253 1.203 . S
C252 O259 1.267 . S
O253 C252 1.203 . S
O254 C247 1.185 . S
O254 Zn250 2.086 1_565 S
C255 O251 1.278 . S
C255 O256 1.211 . S
O256 C255 1.211 . S
C257 O249 1.284 . S
C257 O258 1.273 . S
O258 C257 1.273 . S
O259 Zn250 1.977 . S
O259 C252 1.267 . S
C260 O261 1.160 . S
C260 O267 1.185 1_554 S
O261 C260 1.160 . S
O262 Zn263 1.899 . S
O262 C270 1.284 . S
Zn263 O262 1.899 . S
Zn263 O264 2.032 1_554 S
Zn263 O267 2.086 1_554 S
Zn263 O272 1.977 1_554 S
O264 Zn263 2.032 1_556 S
O264 C268 1.278 . S
C265 O266 1.203 . S
C265 O272 1.267 1_554 S
O266 C265 1.203 . S
O267 C260 1.185 1_556 S
O267 Zn263 2.086 1_556 S
C268 O264 1.278 . S
C268 O269 1.211 . S
O269 C268 1.211 . S
C270 O262 1.284 . S
C270 O271 1.273 . S
O271 C270 1.273 . S
O272 Zn263 1.977 1_556 S
O272 C265 1.267 1_556 S
C273 O274 1.160 . S
C273 O280 1.185 . S
O274 C273 1.160 . S
O275 Zn276 1.899 . S
O275 C283 1.284 . S
Zn276 O275 1.899 . S
Zn276 O277 2.032 . S
Zn276 O280 2.086 . S
Zn276 O285 1.977 . S
O277 Zn276 2.032 . S
O277 C281 1.278 . S
C278 O279 1.203 . S
C278 O285 1.267 . S
O279 C278 1.203 . S
O280 C273 1.185 . S
O280 Zn276 2.086 . S
C281 O277 1.278 . S
C281 O282 1.211 . S
O282 C281 1.211 . S
C283 O275 1.284 . S
C283 O284 1.273 . S
O284 C283 1.273 . S
O285 Zn276 1.977 . S
O285 C278 1.267 . S
C286 O287 1.160 . S
C286 O293 1.185 . S
O287 C286 1.160 . S
O288 Zn289 1.899 . S
O288 C296 1.284 . S
Zn289 O288 1.899 . S
Zn289 O290 2.032 . S
Zn289 O293 2.086 . S
Zn289 O298 1.977 . S
O290 Zn289 2.032 . S
O290 C294 1.278 . S
C291 O292 1.203 . S
C291 O298 1.267 . S
O292 C291 1.203 . S
O293 C286 1.185 . S
O293 Zn289 2.086 . S
C294 O290 1.278 . S
C294 O295 1.211 . S
O295 C294 1.211 . S
C296 O288 1.284 . S
C296 O297 1.273 . S
O297 C296 1.273 . S
O298 Zn289 1.977 . S
O298 C291 1.267 . S
C299 O300 1.160 . S
C299 O306 1.185 . S
O300 C299 1.160 . S
O301 Zn302 1.899 . S
O301 C309 1.284 . S
Zn302 O301 1.899 . S
Zn302 O303 2.032 . S
Zn302 O306 2.086 . S
Zn302 O311 1.977 . S
O303 Zn302 2.032 . S
O303 C307 1.278 . S
C304 O305 1.203 . S
C304 O311 1.267 . S
O305 C304 1.203 . S
O306 C299 1.185 . S
O306 Zn302 2.086 . S
C307 O303 1.278 . S
C307 O308 1.211 . S
O308 C307 1.211 . S
C309 O301 1.284 . S
C309 O310 1.273 . S
O310 C309 1.273 . S
O311 Zn302 1.977 . S
O311 C304 1.267 . S
Dy312 O316 2.398 . S
Dy312 O317 2.491 1_556 S
Dy312 O318 2.403 1_545 S
Dy312 O319 2.664 1_655 S
Dy312 O323 2.326 . S
Dy312 O327 2.324 1_556 S
Dy312 O328 2.351 1_546 S
C313 O324 1.169 1_565 S
C313 O325 1.355 . S
C314 O316 1.185 . S
C314 O317 1.355 1_556 S
Dy315 O319 2.310 1_554 S
Dy315 O322 2.351 . S
Dy315 O324 2.398 . S
Dy315 O325 2.491 1_545 S
Dy315 O326 2.403 . S
Dy315 O327 2.630 1_455 S
Dy315 O329 2.326 1_545 S
O316 Dy312 2.398 . S
O316 C314 1.185 . S
O317 Dy312 2.491 1_554 S
O317 C314 1.355 1_554 S
O318 Dy312 2.403 1_565 S
O318 C320 1.251 1_655 S
O319 Dy312 2.664 1_455 S
O319 Dy315 2.310 1_556 S
O319 C320 1.266 1_545 S
C320 O318 1.251 1_455 S
C320 O319 1.266 1_565 S
C321 O326 1.254 . S
C321 O327 1.261 1_455 S
O322 Dy315 2.351 . S
O322 C330 1.249 1_554 S
O323 Dy312 2.326 . S
O323 C330 1.267 1_655 S
O324 C313 1.169 1_545 S
O324 Dy315 2.398 . S
O325 C313 1.355 . S
O325 Dy315 2.491 1_565 S
O326 Dy315 2.403 . S
O326 C321 1.254 . S
O327 Dy312 2.324 1_554 S
O327 Dy315 2.630 1_655 S
O327 C321 1.261 1_655 S
O328 Dy312 2.351 1_564 S
O328 C331 1.249 1_655 S
O329 Dy315 2.326 1_565 S
O329 C331 1.267 . S
C330 O322 1.249 1_556 S
C330 O323 1.267 1_455 S
C331 O328 1.249 1_455 S
C331 O329 1.267 . S
Dy332 O336 2.398 . S
Dy332 O337 2.491 . S
Dy332 O338 2.403 . S
Dy332 O339 2.664 . S
Dy332 O343 2.326 . S
Dy332 O347 2.310 . S
Dy332 O348 2.351 . S
C333 O344 1.185 . S
C333 O345 1.355 . S
C334 O336 1.185 . S
C334 O337 1.355 . S
Dy335 O339 2.310 . S
Dy335 O342 2.351 . S
Dy335 O344 2.398 . S
Dy335 O345 2.491 . S
Dy335 O346 2.403 . S
Dy335 O347 2.664 . S
Dy335 O349 2.326 . S
O336 Dy332 2.398 . S
O336 C334 1.185 . S
O337 Dy332 2.491 . S
O337 C334 1.355 . S
O338 Dy332 2.403 . S
O338 C340 1.254 . S
O339 Dy332 2.664 . S
O339 Dy335 2.310 . S
O339 C340 1.268 . S
C340 O338 1.254 . S
C340 O339 1.268 . S
C341 O346 1.254 . S
C341 O347 1.268 . S
O342 Dy335 2.351 . S
O342 C350 1.249 . S
O343 Dy332 2.326 . S
O343 C350 1.267 . S
O344 C333 1.185 . S
O344 Dy335 2.398 . S
O345 C333 1.355 . S
O345 Dy335 2.491 . S
O346 Dy335 2.403 . S
O346 C341 1.254 . S
O347 Dy332 2.310 . S
O347 Dy335 2.664 . S
O347 C341 1.268 . S
O348 Dy332 2.351 . S
O348 C351 1.249 . S
O349 Dy335 2.326 . S
O349 C351 1.267 . S
C350 O342 1.249 . S
C350 O343 1.267 . S
C351 O348 1.249 . S
C351 O349 1.267 . S
Dy352 O356 2.398 . S
Dy352 O357 2.491 1_545 S
Dy352 O358 2.403 . S
Dy352 O359 2.664 . S
Dy352 O363 2.326 1_545 S
Dy352 O367 2.310 . S
Dy352 O368 2.351 . S
C353 O364 1.185 . S
C353 O365 1.355 . S
C354 O356 1.185 1_565 S
C354 O357 1.355 . S
Dy355 O359 2.310 . S
Dy355 O362 2.351 1_545 S
Dy355 O364 2.398 . S
Dy355 O365 2.491 . S
Dy355 O366 2.403 . S
Dy355 O367 2.664 . S
Dy355 O369 2.326 . S
O356 Dy352 2.398 . S
O356 C354 1.185 1_545 S
O357 Dy352 2.491 1_565 S
O357 C354 1.355 . S
O358 Dy352 2.403 . S
O358 C360 1.254 . S
O359 Dy352 2.664 . S
O359 Dy355 2.310 . S
O359 C360 1.268 . S
C360 O358 1.254 . S
C360 O359 1.268 . S
C361 O366 1.254 . S
C361 O367 1.268 . S
O362 Dy355 2.351 1_565 S
O362 C370 1.249 . S
O363 Dy352 2.326 1_565 S
O363 C370 1.267 . S
O364 C353 1.185 . S
O364 Dy355 2.398 . S
O365 C353 1.355 . S
O365 Dy355 2.491 . S
O366 Dy355 2.403 . S
O366 C361 1.254 . S
O367 Dy352 2.310 . S
O367 Dy355 2.664 . S
O367 C361 1.268 . S
O368 Dy352 2.351 . S
O368 C371 1.249 . S
O369 Dy355 2.326 . S
O369 C371 1.267 . S
C370 O362 1.249 . S
C370 O363 1.267 . S
C371 O368 1.249 . S
C371 O369 1.267 . S
Dy372 O376 2.398 . S
Dy372 O377 2.491 . S
Dy372 O378 2.403 . S
Dy372 O379 2.664 . S
Dy372 O383 2.326 . S
Dy372 O387 2.310 . S
Dy372 O388 2.351 . S
C373 O384 1.185 . S
C373 O385 1.355 . S
C374 O376 1.185 . S
C374 O377 1.355 . S
Dy375 O379 2.310 . S
Dy375 O382 2.351 . S
Dy375 O384 2.398 . S
Dy375 O385 2.491 . S
Dy375 O386 2.403 . S
Dy375 O387 2.664 . S
Dy375 O389 2.326 . S
O376 Dy372 2.398 . S
O376 C374 1.185 . S
O377 Dy372 2.491 . S
O377 C374 1.355 . S
O378 Dy372 2.403 . S
O378 C380 1.254 . S
O379 Dy372 2.664 . S
O379 Dy375 2.310 . S
O379 C380 1.268 . S
C380 O378 1.254 . S
C380 O379 1.268 . S
C381 O386 1.254 . S
C381 O387 1.268 . S
O382 Dy375 2.351 . S
O382 C390 1.249 . S
O383 Dy372 2.326 . S
O383 C390 1.267 . S
O384 C373 1.185 . S
O384 Dy375 2.398 . S
O385 C373 1.355 . S
O385 Dy375 2.491 . S
O386 Dy375 2.403 . S
O386 C381 1.254 . S
O387 Dy372 2.310 . S
O387 Dy375 2.664 . S
O387 C381 1.268 . S
O388 Dy372 2.351 . S
O388 C391 1.249 . S
O389 Dy375 2.326 . S
O389 C391 1.267 . S
C390 O382 1.249 . S
C390 O383 1.267 . S
C391 O388 1.249 . S
C391 O389 1.267 . S
Dy392 O396 2.398 . S
Dy392 O397 2.491 1_455 S
Dy392 O398 2.403 . S
Dy392 O399 2.664 . S
Dy392 O403 2.326 . S
Dy392 O407 2.310 1_455 S
Dy392 O408 2.351 1_545 S
C393 O404 1.185 . S
C393 O405 1.355 . S
C394 O396 1.185 1_655 S
C394 O397 1.355 . S
Dy395 O399 2.310 . S
Dy395 O402 2.351 . S
Dy395 O404 2.398 . S
Dy395 O405 2.491 . S
Dy395 O406 2.403 1_455 S
Dy395 O407 2.664 1_455 S
Dy395 O409 2.326 1_545 S
O396 Dy392 2.398 . S
O396 C394 1.185 1_455 S
O397 Dy392 2.491 1_655 S
O397 C394 1.355 . S
O398 Dy392 2.403 . S
O398 C400 1.254 . S
O399 Dy392 2.664 . S
O399 Dy395 2.310 . S
O399 C400 1.268 . S
C400 O398 1.254 . S
C400 O399 1.268 . S
C401 O406 1.254 . S
C401 O407 1.268 . S
O402 Dy395 2.351 . S
O402 C410 1.249 . S
O403 Dy392 2.326 . S
O403 C410 1.267 . S
O404 C393 1.185 . S
O404 Dy395 2.398 . S
O405 C393 1.355 . S
O405 Dy395 2.491 . S
O406 Dy395 2.403 1_655 S
O406 C401 1.254 . S
O407 Dy392 2.310 1_655 S
O407 Dy395 2.664 1_655 S
O407 C401 1.268 . S
O408 Dy392 2.351 1_565 S
O408 C411 1.249 . S
O409 Dy395 2.326 1_565 S
O409 C411 1.267 . S
C410 O402 1.249 . S
C410 O403 1.267 . S
C411 O408 1.249 . S
C411 O409 1.267 . S
Dy412 O416 2.398 . S
Dy412 O417 2.491 . S
Dy412 O418 2.403 . S
Dy412 O419 2.664 . S
Dy412 O423 2.326 . S
Dy412 O427 2.310 . S
Dy412 O428 2.351 . S
C413 O424 1.185 . S
C413 O425 1.355 . S
C414 O416 1.185 . S
C414 O417 1.355 . S
Dy415 O419 2.310 . S
Dy415 O422 2.351 . S
Dy415 O424 2.398 . S
Dy415 O425 2.491 . S
Dy415 O426 2.403 . S
Dy415 O427 2.664 . S
Dy415 O429 2.326 . S
O416 Dy412 2.398 . S
O416 C414 1.185 . S
O417 Dy412 2.491 . S
O417 C414 1.355 . S
O418 Dy412 2.403 . S
O418 C420 1.254 . S
O419 Dy412 2.664 . S
O419 Dy415 2.310 . S
O419 C420 1.268 . S
C420 O418 1.254 . S
C420 O419 1.268 . S
C421 O426 1.254 . S
C421 O427 1.268 . S
O422 Dy415 2.351 . S
O422 C430 1.249 . S
O423 Dy412 2.326 . S
O423 C430 1.267 . S
O424 C413 1.185 . S
O424 Dy415 2.398 . S
O425 C413 1.355 . S
O425 Dy415 2.491 . S
O426 Dy415 2.403 . S
O426 C421 1.254 . S
O427 Dy412 2.310 . S
O427 Dy415 2.664 . S
O427 C421 1.268 . S
O428 Dy412 2.351 . S
O428 C431 1.249 . S
O429 Dy415 2.326 . S
O429 C431 1.267 . S
C430 O422 1.249 . S
C430 O423 1.267 . S
C431 O428 1.249 . S
C431 O429 1.267 . S
Dy432 O436 2.398 1_545 S
Dy432 O437 2.491 . S
Dy432 O438 2.403 1_545 S
Dy432 O439 2.664 1_544 S
Dy432 O443 2.326 1_545 S
Dy432 O447 2.310 . S
Dy432 O448 2.351 . S
C433 O444 1.185 . S
C433 O445 1.355 . S
C434 O436 1.185 . S
C434 O437 1.355 1_565 S
Dy435 O439 2.310 1_545 S
Dy435 O442 2.351 . S
Dy435 O444 2.398 . S
Dy435 O445 2.491 . S
Dy435 O446 2.403 . S
Dy435 O447 2.664 1_556 S
Dy435 O449 2.326 . S
O436 Dy432 2.398 1_565 S
O436 C434 1.185 . S
O437 Dy432 2.491 . S
O437 C434 1.355 1_545 S
O438 Dy432 2.403 1_565 S
O438 C440 1.253 . S
O439 Dy432 2.664 1_566 S
O439 Dy435 2.310 1_565 S
O439 C440 1.268 1_556 S
C440 O438 1.253 . S
C440 O439 1.268 1_554 S
C441 O446 1.254 1_554 S
C441 O447 1.268 . S
O442 Dy435 2.351 . S
O442 C450 1.249 1_546 S
O443 Dy432 2.326 1_565 S
O443 C450 1.267 . S
O444 C433 1.185 . S
O444 Dy435 2.398 . S
O445 C433 1.355 . S
O445 Dy435 2.491 . S
O446 Dy435 2.403 . S
O446 C441 1.254 1_556 S
O447 Dy432 2.310 . S
O447 Dy435 2.664 1_554 S
O447 C441 1.268 . S
O448 Dy432 2.351 . S
O448 C451 1.249 . S
O449 Dy435 2.326 . S
O449 C451 1.267 1_556 S
C450 O442 1.249 1_564 S
C450 O443 1.267 . S
C451 O448 1.249 . S
C451 O449 1.267 1_554 S
Dy452 O456 2.398 . S
Dy452 O457 2.491 . S
Dy452 O458 2.403 . S
Dy452 O459 2.664 . S
Dy452 O463 2.326 . S
Dy452 O467 2.310 . S
Dy452 O468 2.351 . S
C453 O464 1.185 . S
C453 O465 1.355 . S
C454 O456 1.185 . S
C454 O457 1.355 . S
Dy455 O459 2.310 . S
Dy455 O462 2.351 . S
Dy455 O464 2.398 . S
Dy455 O465 2.491 . S
Dy455 O466 2.403 . S
Dy455 O467 2.664 . S
Dy455 O469 2.326 . S
O456 Dy452 2.398 . S
O456 C454 1.185 . S
O457 Dy452 2.491 . S
O457 C454 1.355 . S
O458 Dy452 2.403 . S
O458 C460 1.254 . S
O459 Dy452 2.664 . S
O459 Dy455 2.310 . S
O459 C460 1.268 . S
C460 O458 1.254 . S
C460 O459 1.268 . S
C461 O466 1.254 . S
C461 O467 1.268 . S
O462 Dy455 2.351 . S
O462 C470 1.249 . S
O463 Dy452 2.326 . S
O463 C470 1.267 . S
O464 C453 1.185 . S
O464 Dy455 2.398 . S
O465 C453 1.355 . S
O465 Dy455 2.491 . S
O466 Dy455 2.403 . S
O466 C461 1.254 . S
O467 Dy452 2.310 . S
O467 Dy455 2.664 . S
O467 C461 1.268 . S
O468 Dy452 2.351 . S
O468 C471 1.249 . S
O469 Dy455 2.326 . S
O469 C471 1.267 . S
C470 O462 1.249 . S
C470 O463 1.267 . S
C471 O468 1.249 . S
C471 O469 1.267 . S
Dy472 O476 2.398 . S
Dy472 O477 2.491 . S
Dy472 O478 2.403 . S
Dy472 O479 2.664 1_556 S
Dy472 O483 2.326 . S
Dy472 O487 2.310 1_556 S
Dy472 O488 2.372 . S
C473 O484 1.185 . S
C473 O485 1.355 . S
C474 O476 1.185 . S
C474 O477 1.355 . S
Dy475 O479 2.310 . S
Dy475 O482 2.351 . S
Dy475 O484 2.398 . S
Dy475 O485 2.491 . S
Dy475 O486 2.403 . S
Dy475 O487 2.664 . S
Dy475 O489 2.326 . S
O476 Dy472 2.398 . S
O476 C474 1.185 . S
O477 Dy472 2.491 . S
O477 C474 1.355 . S
O478 Dy472 2.403 . S
O478 C480 1.254 . S
O479 Dy472 2.664 1_554 S
O479 Dy475 2.310 . S
O479 C480 1.268 1_554 S
C480 O478 1.254 . S
C480 O479 1.268 1_556 S
C481 O486 1.254 . S
C481 O487 1.268 . S
O482 Dy475 2.351 . S
O482 C490 1.249 1_554 S
O483 Dy472 2.326 . S
O483 C490 1.267 . S
O484 C473 1.185 . S
O484 Dy475 2.398 . S
O485 C473 1.355 . S
O485 Dy475 2.491 . S
O486 Dy475 2.403 . S
O486 C481 1.254 . S
O487 Dy472 2.310 1_554 S
O487 Dy475 2.664 . S
O487 C481 1.268 . S
O488 Dy472 2.372 . S
O488 C491 1.219 1_556 S
O489 Dy475 2.326 . S
O489 C491 1.267 . S
C490 O482 1.249 1_556 S
C490 O483 1.267 . S
C491 O488 1.219 1_554 S
C491 O489 1.267 . S
Dy492 O496 2.398 . S
Dy492 O497 2.491 . S
Dy492 O498 2.403 . S
Dy492 O499 2.664 . S
Dy492 O503 2.326 . S
Dy492 O507 2.310 . S
Dy492 O508 2.351 . S
C493 O504 1.185 . S
C493 O505 1.355 . S
C494 O496 1.185 . S
C494 O497 1.355 . S
Dy495 O499 2.310 . S
Dy495 O502 2.351 . S
Dy495 O504 2.398 . S
Dy495 O505 2.491 . S
Dy495 O506 2.403 . S
Dy495 O507 2.664 . S
Dy495 O509 2.326 . S
O496 Dy492 2.398 . S
O496 C494 1.185 . S
O497 Dy492 2.491 . S
O497 C494 1.355 . S
O498 Dy492 2.403 . S
O498 C500 1.254 . S
O499 Dy492 2.664 . S
O499 Dy495 2.310 . S
O499 C500 1.268 . S
C500 O498 1.254 . S
C500 O499 1.268 . S
C501 O506 1.254 . S
C501 O507 1.268 . S
O502 Dy495 2.351 . S
O502 C510 1.249 . S
O503 Dy492 2.326 . S
O503 C510 1.267 . S
O504 C493 1.185 . S
O504 Dy495 2.398 . S
O505 C493 1.355 . S
O505 Dy495 2.491 . S
O506 Dy495 2.403 . S
O506 C501 1.254 . S
O507 Dy492 2.310 . S
O507 Dy495 2.664 . S
O507 C501 1.268 . S
O508 Dy492 2.351 . S
O508 C511 1.249 . S
O509 Dy495 2.326 . S
O509 C511 1.267 . S
C510 O502 1.249 . S
C510 O503 1.267 . S
C511 O508 1.249 . S
C511 O509 1.267 . S
Dy512 O516 2.401 . S
Dy512 O517 2.491 1_455 S
Dy512 O518 2.403 . S
Dy512 O519 2.664 . S
Dy512 O523 2.326 1_455 S
Dy512 O527 2.310 . S
Dy512 O528 2.351 . S
C513 O524 1.185 . S
C513 O525 1.355 . S
C514 O516 1.179 1_655 S
C514 O517 1.355 . S
Dy515 O519 2.310 . S
Dy515 O522 2.351 1_455 S
Dy515 O524 2.398 . S
Dy515 O525 2.491 . S
Dy515 O526 2.403 . S
Dy515 O527 2.664 . S
Dy515 O529 2.326 . S
O516 Dy512 2.401 . S
O516 C514 1.179 1_455 S
O517 Dy512 2.491 1_655 S
O517 C514 1.355 . S
O518 Dy512 2.403 . S
O518 C520 1.254 . S
O519 Dy512 2.664 . S
O519 Dy515 2.310 . S
O519 C520 1.268 . S
C520 O518 1.254 . S
C520 O519 1.268 . S
C521 O526 1.254 . S
C521 O527 1.268 . S
O522 Dy515 2.351 1_655 S
O522 C530 1.249 . S
O523 Dy512 2.326 1_655 S
O523 C530 1.267 . S
O524 C513 1.185 . S
O524 Dy515 2.398 . S
O525 C513 1.355 . S
O525 Dy515 2.491 . S
O526 Dy515 2.403 . S
O526 C521 1.254 . S
O527 Dy512 2.310 . S
O527 Dy515 2.664 . S
O527 C521 1.268 . S
O528 Dy512 2.351 . S
O528 C531 1.249 . S
O529 Dy515 2.326 . S
O529 C531 1.267 . S
C530 O522 1.249 . S
C530 O523 1.267 . S
C531 O528 1.249 . S
C531 O529 1.267 . S
Dy532 O536 2.398 . S
Dy532 O537 2.491 . S
Dy532 O538 2.403 . S
Dy532 O539 2.664 . S
Dy532 O543 2.326 . S
Dy532 O547 2.310 . S
Dy532 O548 2.351 . S
C533 O544 1.185 . S
C533 O545 1.355 . S
C534 O536 1.185 . S
C534 O537 1.355 . S
Dy535 O539 2.310 . S
Dy535 O542 2.351 . S
Dy535 O544 2.398 . S
Dy535 O545 2.491 . S
Dy535 O546 2.403 . S
Dy535 O547 2.664 . S
Dy535 O549 2.326 . S
O536 Dy532 2.398 . S
O536 C534 1.185 . S
O537 Dy532 2.491 . S
O537 C534 1.355 . S
O538 Dy532 2.403 . S
O538 C540 1.254 . S
O539 Dy532 2.664 . S
O539 Dy535 2.310 . S
O539 C540 1.268 . S
C540 O538 1.254 . S
C540 O539 1.268 . S
C541 O546 1.254 . S
C541 O547 1.268 . S
O542 Dy535 2.351 . S
O542 C550 1.249 . S
O543 Dy532 2.326 . S
O543 C550 1.267 . S
O544 C533 1.185 . S
O544 Dy535 2.398 . S
O545 C533 1.355 . S
O545 Dy535 2.491 . S
O546 Dy535 2.403 . S
O546 C541 1.254 . S
O547 Dy532 2.310 . S
O547 Dy535 2.664 . S
O547 C541 1.268 . S
O548 Dy532 2.351 . S
O548 C551 1.249 . S
O549 Dy535 2.326 . S
O549 C551 1.267 . S
C550 O542 1.249 . S
C550 O543 1.267 . S
C551 O548 1.249 . S
C551 O549 1.267 . S
Dy552 O556 2.398 . S
Dy552 O557 2.491 . S
Dy552 O558 2.403 . S
Dy552 O559 2.664 . S
Dy552 O563 2.326 . S
Dy552 O567 2.310 . S
Dy552 O568 2.351 . S
C553 O564 1.185 . S
C553 O565 1.355 . S
C554 O556 1.185 . S
C554 O557 1.355 . S
Dy555 O559 2.310 . S
Dy555 O562 2.351 . S
Dy555 O564 2.398 . S
Dy555 O565 2.491 . S
Dy555 O566 2.403 . S
Dy555 O567 2.664 . S
Dy555 O569 2.326 . S
O556 Dy552 2.398 . S
O556 C554 1.185 . S
O557 Dy552 2.491 . S
O557 C554 1.355 . S
O558 Dy552 2.403 . S
O558 C560 1.254 . S
O559 Dy552 2.664 . S
O559 Dy555 2.310 . S
O559 C560 1.268 . S
C560 O558 1.254 . S
C560 O559 1.268 . S
C561 O566 1.254 . S
C561 O567 1.268 . S
O562 Dy555 2.351 . S
O562 C570 1.249 . S
O563 Dy552 2.326 . S
O563 C570 1.267 . S
O564 C553 1.185 . S
O564 Dy555 2.398 . S
O565 C553 1.355 . S
O565 Dy555 2.491 . S
O566 Dy555 2.403 . S
O566 C561 1.254 . S
O567 Dy552 2.310 . S
O567 Dy555 2.664 . S
O567 C561 1.268 . S
O568 Dy552 2.351 . S
O568 C571 1.249 . S
O569 Dy555 2.326 . S
O569 C571 1.267 . S
C570 O562 1.249 . S
C570 O563 1.267 . S
C571 O568 1.249 . S
C571 O569 1.267 . S
Dy572 O576 2.398 . S
Dy572 O577 2.491 . S
Dy572 O578 2.403 . S
Dy572 O579 2.664 . S
Dy572 O583 2.326 . S
Dy572 O587 2.310 . S
Dy572 O588 2.351 . S
C573 O584 1.185 . S
C573 O585 1.355 . S
C574 O576 1.185 . S
C574 O577 1.355 . S
Dy575 O579 2.310 . S
Dy575 O582 2.351 . S
Dy575 O584 2.398 . S
Dy575 O585 2.491 . S
Dy575 O586 2.403 . S
Dy575 O587 2.664 . S
Dy575 O589 2.326 . S
O576 Dy572 2.398 . S
O576 C574 1.185 . S
O577 Dy572 2.491 . S
O577 C574 1.355 . S
O578 Dy572 2.403 . S
O578 C580 1.254 . S
O579 Dy572 2.664 . S
O579 Dy575 2.310 . S
O579 C580 1.268 . S
C580 O578 1.254 . S
C580 O579 1.268 . S
C581 O586 1.254 . S
C581 O587 1.268 . S
O582 Dy575 2.351 . S
O582 C590 1.249 . S
O583 Dy572 2.326 . S
O583 C590 1.267 . S
O584 C573 1.185 . S
O584 Dy575 2.398 . S
O585 C573 1.355 . S
O585 Dy575 2.491 . S
O586 Dy575 2.403 . S
O586 C581 1.254 . S
O587 Dy572 2.310 . S
O587 Dy575 2.664 . S
O587 C581 1.268 . S
O588 Dy572 2.351 . S
O588 C591 1.249 . S
O589 Dy575 2.326 . S
O589 C591 1.267 . S
C590 O582 1.249 . S
C590 O583 1.267 . S
C591 O588 1.249 . S
C591 O589 1.267 . S
Dy592 O596 2.398 . S
Dy592 O597 2.491 . S
Dy592 O598 2.403 . S
Dy592 O599 2.664 . S
Dy592 O603 2.326 . S
Dy592 O607 2.310 . S
Dy592 O608 2.351 . S
C593 O604 1.185 . S
C593 O605 1.355 . S
C594 O596 1.185 . S
C594 O597 1.355 . S
Dy595 O599 2.310 . S
Dy595 O602 2.351 . S
Dy595 O604 2.398 . S
Dy595 O605 2.491 . S
Dy595 O606 2.403 . S
Dy595 O607 2.664 . S
Dy595 O609 2.326 . S
O596 Dy592 2.398 . S
O596 C594 1.185 . S
O597 Dy592 2.491 . S
O597 C594 1.355 . S
O598 Dy592 2.403 . S
O598 C600 1.254 . S
O599 Dy592 2.664 . S
O599 Dy595 2.310 . S
O599 C600 1.268 . S
C600 O598 1.254 . S
C600 O599 1.268 . S
C601 O606 1.254 . S
C601 O607 1.268 . S
O602 Dy595 2.351 . S
O602 C610 1.249 . S
O603 Dy592 2.326 . S
O603 C610 1.267 . S
O604 C593 1.185 . S
O604 Dy595 2.398 . S
O605 C593 1.355 . S
O605 Dy595 2.491 . S
O606 Dy595 2.403 . S
O606 C601 1.254 . S
O607 Dy592 2.310 . S
O607 Dy595 2.664 . S
O607 C601 1.268 . S
O608 Dy592 2.351 . S
O608 C611 1.249 . S
O609 Dy595 2.326 . S
O609 C611 1.267 . S
C610 O602 1.249 . S
C610 O603 1.267 . S
C611 O608 1.249 . S
C611 O609 1.267 . S
Dy612 O616 2.398 . S
Dy612 O617 2.491 1_556 S
Dy612 O618 2.403 . S
Dy612 O619 2.664 . S
Dy612 O623 2.326 . S
Dy612 O627 2.310 1_556 S
Dy612 O628 2.351 1_556 S
C613 O624 1.185 . S
C613 O625 1.338 1_554 S
C614 O616 1.185 . S
C614 O617 1.355 1_556 S
Dy615 O619 2.310 1_654 S
Dy615 O622 2.346 1_554 S
Dy615 O624 2.398 . S
Dy615 O625 2.485 1_554 S
Dy615 O626 2.412 . S
Dy615 O627 2.664 1_655 S
Dy615 O629 2.326 1_655 S
O616 Dy612 2.398 . S
O616 C614 1.185 . S
O617 Dy612 2.491 1_554 S
O617 C614 1.355 1_554 S
O618 Dy612 2.403 . S
O618 C620 1.254 . S
O619 Dy612 2.664 . S
O619 Dy615 2.310 1_456 S
O619 C620 1.268 . S
C620 O618 1.254 . S
C620 O619 1.268 . S
C621 O626 1.232 1_455 S
C621 O627 1.268 . S
O622 Dy615 2.346 1_556 S
O622 C630 1.259 1_655 S
O623 Dy612 2.326 . S
O623 C630 1.267 . S
O624 C613 1.185 . S
O624 Dy615 2.398 . S
O625 C613 1.338 1_556 S
O625 Dy615 2.485 1_556 S
O626 Dy615 2.412 . S
O626 C621 1.232 1_655 S
O627 Dy612 2.310 1_554 S
O627 Dy615 2.664 1_455 S
O627 C621 1.268 . S
O628 Dy612 2.351 1_554 S
O628 C631 1.249 . S
O629 Dy615 2.326 1_455 S
O629 C631 1.267 . S
C630 O622 1.259 1_455 S
C630 O623 1.267 . S
C631 O628 1.249 . S
C631 O629 1.267 . S
C632 C633 1.387 1_455 S
C632 H636 0.950 . S
C632 C641 1.390 . S
C633 C632 1.387 1_655 S
C633 C635 1.387 . S
H634 C641 0.950 1_554 S
C635 C633 1.387 . S
C635 C637 1.390 . S
C635 H639 0.950 . S
H636 C632 0.950 . S
C637 C635 1.390 . S
C637 C638 1.387 1_655 S
C637 H640 0.950 . S
C638 C637 1.387 1_455 S
C638 C641 1.387 . S
H639 C635 0.950 . S
H640 C637 0.950 . S
C641 C632 1.390 . S
C641 H634 0.950 1_556 S
C641 C638 1.387 . S
C642 C643 1.387 . S
C642 H646 0.950 . S
C642 C651 1.390 . S
C643 C642 1.387 . S
C643 C645 1.387 . S
H644 C651 0.950 . S
C645 C643 1.387 . S
C645 C647 1.390 . S
C645 H649 0.950 . S
H646 C642 0.950 . S
C647 C645 1.390 . S
C647 C648 1.387 . S
C647 H650 0.950 . S
C648 C647 1.387 . S
C648 C651 1.387 . S
H649 C645 0.950 . S
H650 C647 0.950 . S
C651 C642 1.390 . S
C651 H644 0.950 . S
C651 C648 1.387 . S
C652 C653 1.387 . S
C652 H656 0.950 . S
C652 C661 1.390 . S
C653 C652 1.387 . S
C653 C655 1.387 . S
H654 C661 0.950 . S
C655 C653 1.387 . S
C655 C657 1.390 . S
C655 H659 0.950 . S
H656 C652 0.950 . S
C657 C655 1.390 . S
C657 C658 1.387 . S
C657 H660 0.950 . S
C658 C657 1.387 . S
C658 C661 1.387 . S
H659 C655 0.950 . S
H660 C657 0.950 . S
C661 C652 1.390 . S
C661 H654 0.950 . S
C661 C658 1.387 . S
C662 C663 1.387 . S
C662 H666 0.950 . S
C662 C671 1.390 . S
C663 C662 1.387 . S
C663 C665 1.387 . S
H664 C671 0.950 . S
C665 C663 1.387 . S
C665 C667 1.390 . S
C665 H669 0.950 . S
H666 C662 0.950 . S
C667 C665 1.390 . S
C667 C668 1.387 . S
C667 H670 0.950 . S
C668 C667 1.387 . S
C668 C671 1.387 . S
H669 C665 0.950 . S
H670 C667 0.950 . S
C671 C662 1.390 . S
C671 H664 0.950 . S
C671 C668 1.387 . S
C672 C673 1.387 . S
C672 H676 0.950 . S
C672 C681 1.390 . S
C673 C672 1.387 . S
C673 C675 1.387 1_455 S
H674 C681 0.950 . S
C675 C673 1.387 1_655 S
C675 C677 1.390 1_655 S
C675 H679 0.950 . S
H676 C672 0.950 . S
C677 C675 1.390 1_455 S
C677 C678 1.387 . S
C677 H680 0.950 1_455 S
C678 C677 1.387 . S
C678 C681 1.387 . S
H679 C675 0.950 . S
H680 C677 0.950 1_655 S
C681 C672 1.390 . S
C681 H674 0.950 . S
C681 C678 1.387 . S
C682 C683 1.387 . S
C682 H686 0.950 . S
C682 C691 1.390 . S
C683 C682 1.387 . S
C683 C685 1.387 . S
H684 C691 0.950 . S
C685 C683 1.387 . S
C685 C687 1.390 . S
C685 H689 0.950 . S
H686 C682 0.950 . S
C687 C685 1.390 . S
C687 C688 1.387 . S
C687 H690 0.950 . S
C688 C687 1.387 . S
C688 C691 1.387 . S
H689 C685 0.950 . S
H690 C687 0.950 . S
C691 C682 1.390 . S
C691 H684 0.950 . S
C691 C688 1.387 . S
C692 C693 1.387 . S
C692 H696 0.950 . S
C692 C701 1.390 . S
C693 C692 1.387 . S
C693 C695 1.387 . S
H694 C701 0.950 . S
C695 C693 1.387 . S
C695 C697 1.390 . S
C695 H699 0.950 . S
H696 C692 0.950 . S
C697 C695 1.390 . S
C697 C698 1.387 . S
C697 H700 0.950 . S
C698 C697 1.387 . S
C698 C701 1.387 . S
H699 C695 0.950 . S
H700 C697 0.950 . S
C701 C692 1.390 . S
C701 H694 0.950 . S
C701 C698 1.387 . S
C702 C703 1.387 . S
C702 H706 0.950 . S
C702 C711 1.390 . S
C703 C702 1.387 . S
C703 C705 1.387 . S
H704 C711 0.950 . S
C705 C703 1.387 . S
C705 C707 1.390 . S
C705 H709 0.950 . S
H706 C702 0.950 . S
C707 C705 1.390 . S
C707 C708 1.387 . S
C707 H710 0.950 . S
C708 C707 1.387 . S
C708 C711 1.387 . S
H709 C705 0.950 . S
H710 C707 0.950 . S
C711 C702 1.390 . S
C711 H704 0.950 . S
C711 C708 1.387 . S
C712 C713 1.387 . S
C712 H716 0.950 . S
C712 C721 1.390 . S
C713 C712 1.387 . S
C713 C715 1.387 . S
H714 C721 0.950 . S
C715 C713 1.387 . S
C715 C717 1.390 . S
C715 H719 0.950 1_545 S
H716 C712 0.950 . S
C717 C715 1.390 . S
C717 C718 1.387 . S
C717 H720 0.950 1_545 S
C718 C717 1.387 . S
C718 C721 1.387 . S
H719 C715 0.950 1_565 S
H720 C717 0.950 1_565 S
C721 C712 1.390 . S
C721 H714 0.950 . S
C721 C718 1.387 . S
C722 C723 1.387 . S
C722 H726 0.950 . S
C722 C731 1.390 . S
C723 C722 1.387 . S
C723 C725 1.387 . S
H724 C731 0.950 . S
C725 C723 1.387 . S
C725 C727 1.390 . S
C725 H729 0.950 . S
H726 C722 0.950 . S
C727 C725 1.390 . S
C727 C728 1.387 . S
C727 H730 0.950 . S
C728 C727 1.387 . S
C728 C731 1.387 . S
H729 C725 0.950 . S
H730 C727 0.950 . S
C731 C722 1.390 . S
C731 H724 0.950 . S
C731 C728 1.387 . S
C732 C733 1.387 1_565 S
C732 H736 0.950 . S
C732 C741 1.390 . S
C733 C732 1.387 1_545 S
C733 C735 1.387 . S
H734 C741 0.950 . S
C735 C733 1.387 . S
C735 C737 1.390 . S
C735 H739 0.950 . S
H736 C732 0.950 . S
C737 C735 1.390 . S
C737 C738 1.387 . S
C737 H740 0.950 . S
C738 C737 1.387 . S
C738 C741 1.387 1_545 S
H739 C735 0.950 . S
H740 C737 0.950 . S
C741 C732 1.390 . S
C741 H734 0.950 . S
C741 C738 1.387 1_565 S
C742 C743 1.387 . S
C742 H746 0.950 . S
C742 C751 1.390 . S
C743 C742 1.387 . S
C743 C745 1.387 . S
H744 C751 0.950 . S
C745 C743 1.387 . S
C745 C747 1.390 . S
C745 H749 0.950 . S
H746 C742 0.950 . S
C747 C745 1.390 . S
C747 C748 1.387 . S
C747 H750 0.950 . S
C748 C747 1.387 . S
C748 C751 1.387 . S
H749 C745 0.950 . S
H750 C747 0.950 . S
C751 C742 1.390 . S
C751 H744 0.950 . S
C751 C748 1.387 . S
C752 C753 1.387 . S
C752 H756 0.950 . S
C752 C761 1.390 . S
C753 C752 1.387 . S
C753 C755 1.387 . S
H754 C761 0.950 . S
C755 C753 1.387 . S
C755 C757 1.390 . S
C755 H759 0.950 . S
H756 C752 0.950 . S
C757 C755 1.390 . S
C757 C758 1.387 . S
C757 H760 0.950 1_545 S
C758 C757 1.387 . S
C758 C761 1.387 . S
H759 C755 0.950 . S
H760 C757 0.950 1_565 S
C761 C752 1.390 . S
C761 H754 0.950 . S
C761 C758 1.387 . S
C762 C763 1.387 . S
C762 H766 0.950 . S
C762 C771 1.390 . S
C763 C762 1.387 . S
C763 C765 1.387 . S
H764 C771 0.950 . S
C765 C763 1.387 . S
C765 C767 1.390 . S
C765 H769 0.950 . S
H766 C762 0.950 . S
C767 C765 1.390 . S
C767 C768 1.387 . S
C767 H770 0.950 . S
C768 C767 1.387 . S
C768 C771 1.387 . S
H769 C765 0.950 . S
H770 C767 0.950 . S
C771 C762 1.390 . S
C771 H764 0.950 . S
C771 C768 1.387 . S
C772 C773 1.387 . S
C772 H776 0.950 1_545 S
C772 C781 1.390 . S
C773 C772 1.387 . S
C773 C775 1.387 . S
H774 C781 0.950 . S
C775 C773 1.387 . S
C775 C777 1.390 . S
C775 H779 0.950 . S
H776 C772 0.950 1_565 S
C777 C775 1.390 . S
C777 C778 1.387 . S
C777 H780 0.950 . S
C778 C777 1.387 . S
C778 C781 1.387 . S
H779 C775 0.950 . S
H780 C777 0.950 . S
C781 C772 1.390 . S
C781 H774 0.950 . S
C781 C778 1.387 . S
C782 C783 1.387 . S
C782 H786 0.950 . S
C782 C791 1.390 . S
C783 C782 1.387 . S
C783 C785 1.387 . S
H784 C791 0.950 . S
C785 C783 1.387 . S
C785 C787 1.390 . S
C785 H789 0.950 . S
H786 C782 0.950 . S
C787 C785 1.390 . S
C787 C788 1.387 . S
C787 H790 0.950 . S
C788 C787 1.387 . S
C788 C791 1.387 . S
H789 C785 0.950 . S
H790 C787 0.950 . S
C791 C782 1.390 . S
C791 H784 0.950 . S
C791 C788 1.387 . S
C792 C793 1.378 1_556 S
C792 H796 0.964 . S
C792 C801 1.385 1_556 S
C793 C792 1.378 1_554 S
C793 C795 1.387 . S
H794 C801 0.950 1_546 S
C795 C793 1.387 . S
C795 C797 1.390 . S
C795 H799 0.950 . S
H796 C792 0.964 . S
C797 C795 1.390 . S
C797 C798 1.387 . S
C797 H800 0.950 . S
C798 C797 1.387 . S
C798 C801 1.387 . S
H799 C795 0.950 . S
H800 C797 0.950 . S
C801 C792 1.385 1_554 S
C801 H794 0.950 1_564 S
C801 C798 1.387 . S
C802 C803 1.363 1_556 S
C802 H806 0.950 . S
C802 C811 1.390 . S
C803 C802 1.363 1_554 S
C803 C805 1.416 . S
H804 C811 0.950 . S
C805 C803 1.416 . S
C805 C807 1.390 . S
C805 H809 0.950 . S
H806 C802 0.950 . S
C807 C805 1.390 . S
C807 C808 1.387 . S
C807 H810 0.950 . S
C808 C807 1.387 . S
C808 C811 1.387 1_554 S
H809 C805 0.950 . S
H810 C807 0.950 . S
C811 C802 1.390 . S
C811 H804 0.950 . S
C811 C808 1.387 1_556 S
C812 C813 1.387 . S
C812 H816 0.950 . S
C812 C821 1.390 . S
C813 C812 1.387 . S
C813 C815 1.387 . S
H814 C821 0.950 . S
C815 C813 1.387 . S
C815 C817 1.390 . S
C815 H819 0.950 . S
H816 C812 0.950 . S
C817 C815 1.390 . S
C817 C818 1.387 . S
C817 H820 0.950 . S
C818 C817 1.387 . S
C818 C821 1.387 . S
H819 C815 0.950 . S
H820 C817 0.950 . S
C821 C812 1.390 . S
C821 H814 0.950 . S
C821 C818 1.387 . S
C822 C823 1.387 . S
C822 H826 0.950 . S
C822 C831 1.390 . S
C823 C822 1.387 . S
C823 C825 1.387 . S
H824 C831 0.950 . S
C825 C823 1.387 . S
C825 C827 1.390 . S
C825 H829 0.950 . S
H826 C822 0.950 . S
C827 C825 1.390 . S
C827 C828 1.387 . S
C827 H830 0.950 . S
C828 C827 1.387 . S
C828 C831 1.387 . S
H829 C825 0.950 . S
H830 C827 0.950 . S
C831 C822 1.390 . S
C831 H824 0.950 . S
C831 C828 1.387 . S
C832 C833 1.387 . S
C832 H836 0.950 . S
C832 C841 1.390 . S
C833 C832 1.387 . S
C833 C835 1.387 . S
H834 C841 0.950 . S
C835 C833 1.387 . S
C835 C837 1.390 . S
C835 H839 0.950 . S
H836 C832 0.950 . S
C837 C835 1.390 . S
C837 C838 1.387 . S
C837 H840 0.950 . S
C838 C837 1.387 . S
C838 C841 1.387 . S
H839 C835 0.950 . S
H840 C837 0.950 . S
C841 C832 1.390 . S
C841 H834 0.950 . S
C841 C838 1.387 . S
C842 C843 1.387 . S
C842 H846 0.950 . S
C842 C851 1.390 . S
C843 C842 1.387 . S
C843 C845 1.387 . S
H844 C851 0.950 . S
C845 C843 1.387 . S
C845 C847 1.390 . S
C845 H849 0.950 . S
H846 C842 0.950 . S
C847 C845 1.390 . S
C847 C848 1.387 . S
C847 H850 0.950 . S
C848 C847 1.387 . S
C848 C851 1.387 . S
H849 C845 0.950 . S
H850 C847 0.950 . S
C851 C842 1.390 . S
C851 H844 0.950 . S
C851 C848 1.387 . S
C852 C853 1.387 . S
C852 H856 0.950 . S
C852 C861 1.390 . S
C853 C852 1.387 . S
C853 C855 1.387 . S
H854 C861 0.950 . S
C855 C853 1.387 . S
C855 C857 1.390 . S
C855 H859 0.950 . S
H856 C852 0.950 . S
C857 C855 1.390 . S
C857 C858 1.387 . S
C857 H860 0.950 . S
C858 C857 1.387 . S
C858 C861 1.387 . S
H859 C855 0.950 . S
H860 C857 0.950 . S
C861 C852 1.390 . S
C861 H854 0.950 . S
C861 C858 1.387 . S
C862 C863 1.387 . S
C862 H866 0.950 . S
C862 C871 1.390 . S
C863 C862 1.387 . S
C863 C865 1.387 . S
H864 C871 0.950 . S
C865 C863 1.387 . S
C865 C867 1.390 . S
C865 H869 0.950 . S
H866 C862 0.950 . S
C867 C865 1.390 . S
C867 C868 1.387 . S
C867 H870 0.950 . S
C868 C867 1.387 . S
C868 C871 1.387 . S
H869 C865 0.950 . S
H870 C867 0.950 . S
C871 C862 1.390 . S
C871 H864 0.950 . S
C871 C868 1.387 . S
C872 C873 1.387 . S
C872 H876 0.950 . S
C872 C881 1.390 . S
C873 C872 1.387 . S
C873 C875 1.387 . S
H874 C881 0.950 . S
C875 C873 1.387 . S
C875 C877 1.390 . S
C875 H879 0.950 1_455 S
H876 C872 0.950 . S
C877 C875 1.390 . S
C877 C878 1.387 . S
C877 H880 0.950 1_455 S
C878 C877 1.387 . S
C878 C881 1.387 . S
H879 C875 0.950 1_655 S
H880 C877 0.950 1_655 S
C881 C872 1.390 . S
C881 H874 0.950 . S
C881 C878 1.387 . S
C882 C883 1.387 . S
C882 H886 0.950 . S
C882 C891 1.390 . S
C883 C882 1.387 . S
C883 C885 1.387 . S
H884 C891 0.950 . S
C885 C883 1.387 . S
C885 C887 1.390 . S
C885 H889 0.950 . S
H886 C882 0.950 . S
C887 C885 1.390 . S
C887 C888 1.387 . S
C887 H890 0.950 . S
C888 C887 1.387 . S
C888 C891 1.387 . S
H889 C885 0.950 . S
H890 C887 0.950 . S
C891 C882 1.390 . S
C891 H884 0.950 . S
C891 C888 1.387 . S
C892 C893 1.387 . S
C892 H896 0.950 . S
C892 C901 1.390 . S
C893 C892 1.387 . S
C893 C895 1.387 . S
H894 C901 0.950 . S
C895 C893 1.387 . S
C895 C897 1.390 . S
C895 H899 0.950 . S
H896 C892 0.950 . S
C897 C895 1.390 . S
C897 C898 1.387 . S
C897 H900 0.950 . S
C898 C897 1.387 . S
C898 C901 1.387 . S
H899 C895 0.950 . S
H900 C897 0.950 . S
C901 C892 1.390 . S
C901 H894 0.950 . S
C901 C898 1.387 . S
C902 C903 1.387 . S
C902 H906 0.950 . S
C902 C911 1.390 . S
C903 C902 1.387 . S
C903 C905 1.387 . S
H904 C911 0.950 . S
C905 C903 1.387 . S
C905 C907 1.390 . S
C905 H909 0.950 . S
H906 C902 0.950 . S
C907 C905 1.390 . S
C907 C908 1.387 . S
C907 H910 0.950 . S
C908 C907 1.387 . S
C908 C911 1.387 . S
H909 C905 0.950 . S
H910 C907 0.950 . S
C911 C902 1.390 . S
C911 H904 0.950 . S
C911 C908 1.387 . S
C912 C913 1.387 . S
C912 H916 0.950 . S
C912 C921 1.390 . S
C913 C912 1.387 . S
C913 C915 1.387 1_455 S
H914 C921 0.950 . S
C915 C913 1.387 1_655 S
C915 C917 1.390 . S
C915 H919 0.950 . S
H916 C912 0.950 . S
C917 C915 1.390 . S
C917 C918 1.387 1_655 S
C917 H920 0.950 . S
C918 C917 1.387 1_455 S
C918 C921 1.387 . S
H919 C915 0.950 . S
H920 C917 0.950 . S
C921 C912 1.390 . S
C921 H914 0.950 . S
C921 C918 1.387 . S
C922 C923 1.387 . S
C922 H926 0.950 . S
C922 C931 1.390 . S
C923 C922 1.387 . S
C923 C925 1.387 . S
H924 C931 0.950 . S
C925 C923 1.387 . S
C925 C927 1.390 . S
C925 H929 0.950 . S
H926 C922 0.950 . S
C927 C925 1.390 . S
C927 C928 1.387 . S
C927 H930 0.950 . S
C928 C927 1.387 . S
C928 C931 1.387 . S
H929 C925 0.950 . S
H930 C927 0.950 . S
C931 C922 1.390 . S
C931 H924 0.950 . S
C931 C928 1.387 . S
C932 C933 1.387 . S
C932 H936 0.950 . S
C932 C941 1.390 . S
C933 C932 1.387 . S
C933 C935 1.387 . S
H934 C941 0.950 . S
C935 C933 1.387 . S
C935 C937 1.390 . S
C935 H939 0.950 . S
H936 C932 0.950 . S
C937 C935 1.390 . S
C937 C938 1.387 . S
C937 H940 0.950 1_556 S
C938 C937 1.387 . S
C938 C941 1.387 . S
H939 C935 0.950 . S
H940 C937 0.950 1_554 S
C941 C932 1.390 . S
C941 H934 0.950 . S
C941 C938 1.387 . S
C942 C943 1.387 . S
C942 H946 0.950 . S
C942 C951 1.390 . S
C943 C942 1.387 . S
C943 C945 1.387 . S
H944 C951 0.950 . S
C945 C943 1.387 . S
C945 C947 1.390 . S
C945 H949 0.950 . S
H946 C942 0.950 . S
C947 C945 1.390 . S
C947 C948 1.387 . S
C947 H950 0.950 . S
C948 C947 1.387 . S
C948 C951 1.387 . S
H949 C945 0.950 . S
H950 C947 0.950 . S
C951 C942 1.390 . S
C951 H944 0.950 . S
C951 C948 1.387 . S
C952 C953 1.387 1_545 S
C952 H956 0.950 . S
C952 C961 1.390 . S
C953 C952 1.387 1_565 S
C953 C955 1.387 . S
H954 C961 0.950 . S
C955 C953 1.387 . S
C955 C957 1.390 . S
C955 H959 0.950 . S
H956 C952 0.950 . S
C957 C955 1.390 . S
C957 C958 1.387 . S
C957 H960 0.950 . S
C958 C957 1.387 . S
C958 C961 1.387 1_565 S
H959 C955 0.950 . S
H960 C957 0.950 . S
C961 C952 1.390 . S
C961 H954 0.950 . S
C961 C958 1.387 1_545 S
C962 C963 1.387 . S
C962 H966 0.950 . S
C962 C971 1.390 . S
C963 C962 1.387 . S
C963 C965 1.387 . S
H964 C971 0.950 . S
C965 C963 1.387 . S
C965 C967 1.390 . S
C965 H969 0.950 . S
H966 C962 0.950 . S
C967 C965 1.390 . S
C967 C968 1.387 . S
C967 H970 0.950 . S
C968 C967 1.387 . S
C968 C971 1.387 . S
H969 C965 0.950 . S
H970 C967 0.950 . S
C971 C962 1.390 . S
C971 H964 0.950 . S
C971 C968 1.387 . S
C972 C973 1.387 1_565 S
C972 H976 0.950 . S
C972 C981 1.391 . S
C973 C972 1.387 1_545 S
C973 C975 1.387 . S
H974 C981 0.947 . S
C975 C973 1.387 . S
C975 C977 1.390 . S
C975 H979 0.950 . S
H976 C972 0.950 . S
C977 C975 1.390 . S
C977 C978 1.387 . S
C977 H980 0.950 . S
C978 C977 1.387 . S
C978 C981 1.390 1_545 S
H979 C975 0.950 . S
H980 C977 0.950 . S
C981 C972 1.391 . S
C981 H974 0.947 . S
C981 C978 1.390 1_565 S
C982 C983 1.387 . S
C982 H986 0.950 . S
C982 C991 1.390 . S
C983 C982 1.387 . S
C983 C985 1.387 . S
H984 C991 0.950 . S
C985 C983 1.387 . S
C985 C987 1.390 . S
C985 H989 0.950 . S
H986 C982 0.950 . S
C987 C985 1.390 . S
C987 C988 1.387 . S
C987 H990 0.950 . S
C988 C987 1.387 . S
C988 C991 1.387 . S
H989 C985 0.950 . S
H990 C987 0.950 . S
C991 C982 1.390 . S
C991 H984 0.950 . S
C991 C988 1.387 . S
C992 C993 1.387 1_545 S
C992 H996 0.950 . S
C992 C1001 1.390 . S
C993 C992 1.387 1_565 S
C993 C995 1.387 . S
H994 C1001 0.950 . S
C995 C993 1.387 . S
C995 C997 1.390 . S
C995 H999 0.950 . S
H996 C992 0.950 . S
C997 C995 1.390 . S
C997 C998 1.387 1_565 S
C997 H1000 0.950 . S
C998 C997 1.387 1_545 S
C998 C1001 1.387 . S
H999 C995 0.950 . S
H1000 C997 0.950 . S
C1001 C992 1.390 . S
C1001 H994 0.950 . S
C1001 C998 1.387 . S
C1002 C1003 1.387 . S
C1002 H1006 0.950 . S
C1002 C1011 1.390 . S
C1003 C1002 1.387 . S
C1003 C1005 1.387 . S
H1004 C1011 0.950 . S
C1005 C1003 1.387 . S
C1005 C1007 1.390 . S
C1005 H1009 0.950 . S
H1006 C1002 0.950 . S
C1007 C1005 1.390 . S
C1007 C1008 1.387 . S
C1007 H1010 0.950 . S
C1008 C1007 1.387 . S
C1008 C1011 1.387 . S
H1009 C1005 0.950 . S
H1010 C1007 0.950 . S
C1011 C1002 1.390 . S
C1011 H1004 0.950 . S
C1011 C1008 1.387 . S
C1012 C1013 1.387 . S
C1012 H1016 0.950 . S
C1012 C1021 1.390 . S
C1013 C1012 1.387 . S
C1013 C1015 1.387 1_545 S
H1014 C1021 0.950 . S
C1015 C1013 1.387 1_565 S
C1015 C1017 1.390 . S
C1015 H1019 0.950 . S
H1016 C1012 0.950 . S
C1017 C1015 1.390 . S
C1017 C1018 1.387 . S
C1017 H1020 0.950 . S
C1018 C1017 1.387 . S
C1018 C1021 1.387 1_565 S
H1019 C1015 0.950 . S
H1020 C1017 0.950 . S
C1021 C1012 1.390 . S
C1021 H1014 0.950 . S
C1021 C1018 1.387 1_545 S
C1022 C1023 1.387 . S
C1022 H1026 0.950 . S
C1022 C1031 1.390 . S
C1023 C1022 1.387 . S
C1023 C1025 1.387 . S
H1024 C1031 0.950 . S
C1025 C1023 1.387 . S
C1025 C1027 1.390 . S
C1025 H1029 0.950 . S
H1026 C1022 0.950 . S
C1027 C1025 1.390 . S
C1027 C1028 1.387 . S
C1027 H1030 0.950 . S
C1028 C1027 1.387 . S
C1028 C1031 1.387 . S
H1029 C1025 0.950 . S
H1030 C1027 0.950 . S
C1031 C1022 1.390 . S
C1031 H1024 0.950 . S
C1031 C1028 1.387 . S
C1032 C1033 1.387 1_554 S
C1032 H1036 0.950 . S
C1032 C1041 1.390 . S
C1033 C1032 1.387 1_556 S
C1033 C1035 1.387 . S
H1034 C1041 0.950 . S
C1035 C1033 1.387 . S
C1035 C1037 1.390 . S
C1035 H1039 0.950 . S
H1036 C1032 0.950 . S
C1037 C1035 1.390 . S
C1037 C1038 1.387 . S
C1037 H1040 0.950 . S
C1038 C1037 1.387 . S
C1038 C1041 1.387 1_556 S
H1039 C1035 0.950 . S
H1040 C1037 0.950 . S
C1041 C1032 1.390 . S
C1041 H1034 0.950 . S
C1041 C1038 1.387 1_554 S
C1042 C1043 1.387 . S
C1042 H1046 0.950 . S
C1042 C1051 1.390 . S
C1043 C1042 1.387 . S
C1043 C1045 1.387 1_554 S
H1044 C1051 0.950 . S
C1045 C1043 1.387 1_556 S
C1045 C1047 1.390 . S
C1045 H1049 0.950 . S
H1046 C1042 0.950 . S
C1047 C1045 1.390 . S
C1047 C1048 1.387 1_556 S
C1047 H1050 0.950 . S
C1048 C1047 1.387 1_554 S
C1048 C1051 1.387 . S
H1049 C1045 0.950 . S
H1050 C1047 0.950 . S
C1051 C1042 1.390 . S
C1051 H1044 0.950 . S
C1051 C1048 1.387 . S
C1052 C1053 1.387 . S
C1052 H1056 0.950 . S
C1052 C1061 1.390 . S
C1053 C1052 1.387 . S
C1053 C1055 1.387 . S
H1054 C1061 0.950 . S
C1055 C1053 1.387 . S
C1055 C1057 1.390 . S
C1055 H1059 0.950 . S
H1056 C1052 0.950 . S
C1057 C1055 1.390 . S
C1057 C1058 1.387 . S
C1057 H1060 0.950 . S
C1058 C1057 1.387 . S
C1058 C1061 1.387 . S
H1059 C1055 0.950 . S
H1060 C1057 0.950 . S
C1061 C1052 1.390 . S
C1061 H1054 0.950 . S
C1061 C1058 1.387 . S
C1062 C1063 1.387 . S
C1062 H1066 0.950 . S
C1062 C1071 1.390 . S
C1063 C1062 1.387 . S
C1063 C1065 1.387 . S
H1064 C1071 0.950 . S
C1065 C1063 1.387 . S
C1065 C1067 1.390 . S
C1065 H1069 0.950 . S
H1066 C1062 0.950 . S
C1067 C1065 1.390 . S
C1067 C1068 1.387 . S
C1067 H1070 0.950 . S
C1068 C1067 1.387 . S
C1068 C1071 1.387 . S
H1069 C1065 0.950 . S
H1070 C1067 0.950 . S
C1071 C1062 1.390 . S
C1071 H1064 0.950 . S
C1071 C1068 1.387 . S
C1072 C1073 1.387 . S
C1072 H1076 0.950 . S
C1072 C1081 1.390 . S
C1073 C1072 1.387 . S
C1073 C1075 1.387 . S
H1074 C1081 0.950 . S
C1075 C1073 1.387 . S
C1075 C1077 1.390 . S
C1075 H1079 0.950 . S
H1076 C1072 0.950 . S
C1077 C1075 1.390 . S
C1077 C1078 1.387 . S
C1077 H1080 0.950 . S
C1078 C1077 1.387 . S
C1078 C1081 1.387 . S
H1079 C1075 0.950 . S
H1080 C1077 0.950 . S
C1081 C1072 1.390 . S
C1081 H1074 0.950 . S
C1081 C1078 1.387 . S
C1082 C1083 1.387 . S
C1082 H1086 0.950 . S
C1082 C1091 1.390 . S
C1083 C1082 1.387 . S
C1083 C1085 1.387 . S
H1084 C1091 0.950 . S
C1085 C1083 1.387 . S
C1085 C1087 1.390 . S
C1085 H1089 0.950 . S
H1086 C1082 0.950 . S
C1087 C1085 1.390 . S
C1087 C1088 1.387 . S
C1087 H1090 0.950 . S
C1088 C1087 1.387 . S
C1088 C1091 1.387 . S
H1089 C1085 0.950 . S
H1090 C1087 0.950 . S
C1091 C1082 1.390 . S
C1091 H1084 0.950 . S
C1091 C1088 1.387 . S
C1092 C1093 1.387 . S
C1092 H1096 0.950 . S
C1092 C1101 1.390 . S
C1093 C1092 1.387 . S
C1093 C1095 1.387 . S
H1094 C1101 0.950 . S
C1095 C1093 1.387 . S
C1095 C1097 1.390 . S
C1095 H1099 0.950 . S
H1096 C1092 0.950 . S
C1097 C1095 1.390 . S
C1097 C1098 1.387 . S
C1097 H1100 0.950 . S
C1098 C1097 1.387 . S
C1098 C1101 1.387 . S
H1099 C1095 0.950 . S
H1100 C1097 0.950 . S
C1101 C1092 1.390 . S
C1101 H1094 0.950 . S
C1101 C1098 1.387 . S
C1102 C1103 1.387 . S
C1102 H1106 0.950 . S
C1102 C1111 1.390 . S
C1103 C1102 1.387 . S
C1103 C1105 1.387 . S
H1104 C1111 0.950 . S
C1105 C1103 1.387 . S
C1105 C1107 1.390 . S
C1105 H1109 0.950 . S
H1106 C1102 0.950 . S
C1107 C1105 1.390 . S
C1107 C1108 1.387 . S
C1107 H1110 0.950 . S
C1108 C1107 1.387 . S
C1108 C1111 1.387 . S
H1109 C1105 0.950 . S
H1110 C1107 0.950 . S
C1111 C1102 1.390 . S
C1111 H1104 0.950 . S
C1111 C1108 1.387 . S
C1112 C1113 1.387 . S
C1112 H1116 0.950 . S
C1112 C1121 1.390 . S
C1113 C1112 1.387 . S
C1113 C1115 1.387 . S
H1114 C1121 0.950 . S
C1115 C1113 1.387 . S
C1115 C1117 1.390 . S
C1115 H1119 0.950 . S
H1116 C1112 0.950 . S
C1117 C1115 1.390 . S
C1117 C1118 1.387 . S
C1117 H1120 0.950 . S
C1118 C1117 1.387 . S
C1118 C1121 1.387 . S
H1119 C1115 0.950 . S
H1120 C1117 0.950 . S
C1121 C1112 1.390 . S
C1121 H1114 0.950 . S
C1121 C1118 1.387 . S
C1122 C1123 1.387 . S
C1122 H1126 0.950 . S
C1122 C1131 1.390 . S
C1123 C1122 1.387 . S
C1123 C1125 1.387 . S
H1124 C1131 0.950 . S
C1125 C1123 1.387 . S
C1125 C1127 1.390 . S
C1125 H1129 0.950 . S
H1126 C1122 0.950 . S
C1127 C1125 1.390 . S
C1127 C1128 1.387 . S
C1127 H1130 0.950 . S
C1128 C1127 1.387 . S
C1128 C1131 1.387 . S
H1129 C1125 0.950 . S
H1130 C1127 0.950 . S
C1131 C1122 1.390 . S
C1131 H1124 0.950 . S
C1131 C1128 1.387 . S
C1132 C1133 1.379 1_655 S
C1132 H1136 0.955 . S
C1132 C1141 1.397 1_655 S
C1133 C1132 1.379 1_455 S
C1133 C1135 1.387 . S
H1134 C1141 0.942 1_655 S
C1135 C1133 1.387 . S
C1135 C1137 1.391 1_556 S
C1135 H1139 0.950 . S
H1136 C1132 0.955 . S
C1137 C1135 1.391 1_554 S
C1137 C1138 1.389 1_554 S
C1137 H1140 0.947 . S
C1138 C1137 1.389 1_556 S
C1138 C1141 1.392 . S
H1139 C1135 0.950 . S
H1140 C1137 0.947 . S
C1141 C1132 1.397 1_455 S
C1141 H1134 0.942 1_455 S
C1141 C1138 1.392 . S
C1142 C1143 1.387 . S
C1142 H1146 0.950 . S
C1142 C1151 1.390 . S
C1143 C1142 1.387 . S
C1143 C1145 1.387 . S
H1144 C1151 0.950 . S
C1145 C1143 1.387 . S
C1145 C1147 1.390 . S
C1145 H1149 0.950 . S
H1146 C1142 0.950 . S
C1147 C1145 1.390 . S
C1147 C1148 1.387 . S
C1147 H1150 0.950 . S
C1148 C1147 1.387 . S
C1148 C1151 1.387 . S
H1149 C1145 0.950 . S
H1150 C1147 0.950 . S
C1151 C1142 1.390 . S
C1151 H1144 0.950 . S
C1151 C1148 1.387 . S
C1152 C1153 1.387 . S
C1152 H1156 0.950 . S
C1152 C1161 1.390 . S
C1153 C1152 1.387 . S
C1153 C1155 1.387 . S
H1154 C1161 0.950 . S
C1155 C1153 1.387 . S
C1155 C1157 1.390 . S
C1155 H1159 0.950 . S
H1156 C1152 0.950 . S
C1157 C1155 1.390 . S
C1157 C1158 1.387 . S
C1157 H1160 0.950 . S
C1158 C1157 1.387 . S
C1158 C1161 1.387 . S
H1159 C1155 0.950 . S
H1160 C1157 0.950 . S
C1161 C1152 1.390 . S
C1161 H1154 0.950 . S
C1161 C1158 1.387 . S
C1162 C1163 1.387 . S
C1162 H1166 0.950 . S
C1162 C1171 1.390 . S
C1163 C1162 1.387 . S
C1163 C1165 1.387 . S
H1164 C1171 0.950 . S
C1165 C1163 1.387 . S
C1165 C1167 1.390 . S
C1165 H1169 0.950 . S
H1166 C1162 0.950 . S
C1167 C1165 1.390 . S
C1167 C1168 1.387 . S
C1167 H1170 0.950 . S
C1168 C1167 1.387 . S
C1168 C1171 1.387 . S
H1169 C1165 0.950 . S
H1170 C1167 0.950 . S
C1171 C1162 1.390 . S
C1171 H1164 0.950 . S
C1171 C1168 1.387 . S
C1172 C1173 1.387 1_655 S
C1172 H1176 0.950 . S
C1172 C1181 1.390 . S
C1173 C1172 1.387 1_455 S
C1173 C1175 1.387 . S
H1174 C1181 0.950 . S
C1175 C1173 1.387 . S
C1175 C1177 1.390 . S
C1175 H1179 0.950 . S
H1176 C1172 0.950 . S
C1177 C1175 1.390 . S
C1177 C1178 1.387 . S
C1177 H1180 0.950 . S
C1178 C1177 1.387 . S
C1178 C1181 1.387 1_455 S
H1179 C1175 0.950 . S
H1180 C1177 0.950 . S
C1181 C1172 1.390 . S
C1181 H1174 0.950 . S
C1181 C1178 1.387 1_655 S
C1182 C1183 1.387 . S
C1182 H1186 0.950 . S
C1182 C1191 1.390 . S
C1183 C1182 1.387 . S
C1183 C1185 1.387 . S
H1184 C1191 0.950 . S
C1185 C1183 1.387 . S
C1185 C1187 1.390 . S
C1185 H1189 0.950 . S
H1186 C1182 0.950 . S
C1187 C1185 1.390 . S
C1187 C1188 1.387 . S
C1187 H1190 0.950 . S
C1188 C1187 1.387 . S
C1188 C1191 1.387 . S
H1189 C1185 0.950 . S
H1190 C1187 0.950 . S
C1191 C1182 1.390 . S
C1191 H1184 0.950 . S
C1191 C1188 1.387 . S
C1192 C1193 1.387 . S
C1192 H1196 0.950 . S
C1192 C1201 1.390 . S
C1193 C1192 1.387 . S
C1193 C1195 1.387 . S
H1194 C1201 0.950 . S
C1195 C1193 1.387 . S
C1195 C1197 1.390 . S
C1195 H1199 0.950 . S
H1196 C1192 0.950 . S
C1197 C1195 1.390 . S
C1197 C1198 1.387 . S
C1197 H1200 0.950 . S
C1198 C1197 1.387 . S
C1198 C1201 1.387 . S
H1199 C1195 0.950 . S
H1200 C1197 0.950 . S
C1201 C1192 1.390 . S
C1201 H1194 0.950 . S
C1201 C1198 1.387 . S
C1202 C1203 1.387 . S
C1202 H1206 0.950 . S
C1202 C1211 1.390 . S
C1203 C1202 1.387 . S
C1203 C1205 1.387 . S
H1204 C1211 0.950 . S
C1205 C1203 1.387 . S
C1205 C1207 1.390 . S
C1205 H1209 0.950 . S
H1206 C1202 0.950 . S
C1207 C1205 1.390 . S
C1207 C1208 1.387 . S
C1207 H1210 0.950 . S
C1208 C1207 1.387 . S
C1208 C1211 1.387 . S
H1209 C1205 0.950 . S
H1210 C1207 0.950 . S
C1211 C1202 1.390 . S
C1211 H1204 0.950 . S
C1211 C1208 1.387 . S
C1212 C1213 1.387 . S
C1212 H1216 0.950 . S
C1212 C1221 1.390 . S
C1213 C1212 1.387 . S
C1213 C1215 1.387 . S
H1214 C1221 0.950 . S
C1215 C1213 1.387 . S
C1215 C1217 1.390 . S
C1215 H1219 0.950 . S
H1216 C1212 0.950 . S
C1217 C1215 1.390 . S
C1217 C1218 1.387 . S
C1217 H1220 0.950 . S
C1218 C1217 1.387 . S
C1218 C1221 1.387 . S
H1219 C1215 0.950 . S
H1220 C1217 0.950 . S
C1221 C1212 1.390 . S
C1221 H1214 0.950 . S
C1221 C1218 1.387 . S
C1222 C1223 1.387 . S
C1222 H1226 0.950 . S
C1222 C1231 1.390 . S
C1223 C1222 1.387 . S
C1223 C1225 1.387 . S
H1224 C1231 0.950 . S
C1225 C1223 1.387 . S
C1225 C1227 1.390 . S
C1225 H1229 0.950 . S
H1226 C1222 0.950 . S
C1227 C1225 1.390 . S
C1227 C1228 1.387 . S
C1227 H1230 0.950 . S
C1228 C1227 1.387 . S
C1228 C1231 1.387 . S
H1229 C1225 0.950 . S
H1230 C1227 0.950 . S
C1231 C1222 1.390 . S
C1231 H1224 0.950 . S
C1231 C1228 1.387 . S
C1232 C1233 1.387 . S
C1232 H1236 0.950 . S
C1232 C1241 1.390 . S
C1233 C1232 1.387 . S
C1233 C1235 1.387 . S
H1234 C1241 0.950 . S
C1235 C1233 1.387 . S
C1235 C1237 1.390 . S
C1235 H1239 0.950 . S
H1236 C1232 0.950 . S
C1237 C1235 1.390 . S
C1237 C1238 1.387 . S
C1237 H1240 0.950 . S
C1238 C1237 1.387 . S
C1238 C1241 1.387 . S
H1239 C1235 0.950 . S
H1240 C1237 0.950 . S
C1241 C1232 1.390 . S
C1241 H1234 0.950 . S
C1241 C1238 1.387 . S
C1242 C1243 1.387 . S
C1242 H1246 0.950 . S
C1242 C1251 1.390 . S
C1243 C1242 1.387 . S
C1243 C1245 1.387 . S
H1244 C1251 0.950 . S
C1245 C1243 1.387 . S
C1245 C1247 1.390 . S
C1245 H1249 0.950 . S
H1246 C1242 0.950 . S
C1247 C1245 1.390 . S
C1247 C1248 1.387 . S
C1247 H1250 0.950 . S
C1248 C1247 1.387 . S
C1248 C1251 1.387 . S
H1249 C1245 0.950 . S
H1250 C1247 0.950 . S
C1251 C1242 1.390 . S
C1251 H1244 0.950 . S
C1251 C1248 1.387 . S
C1252 C1253 1.387 . S
C1252 H1256 0.950 . S
C1252 C1261 1.390 . S
C1253 C1252 1.387 . S
C1253 C1255 1.387 . S
H1254 C1261 0.950 . S
C1255 C1253 1.387 . S
C1255 C1257 1.390 . S
C1255 H1259 0.950 . S
H1256 C1252 0.950 . S
C1257 C1255 1.390 . S
C1257 C1258 1.387 . S
C1257 H1260 0.950 . S
C1258 C1257 1.387 . S
C1258 C1261 1.387 . S
H1259 C1255 0.950 . S
H1260 C1257 0.950 . S
C1261 C1252 1.390 . S
C1261 H1254 0.950 . S
C1261 C1258 1.387 . S
C1262 C1263 1.387 . S
C1262 H1266 0.950 . S
C1262 C1271 1.390 . S
C1263 C1262 1.387 . S
C1263 C1265 1.387 . S
H1264 C1271 0.950 . S
C1265 C1263 1.387 . S
C1265 C1267 1.390 . S
C1265 H1269 0.950 . S
H1266 C1262 0.950 . S
C1267 C1265 1.390 . S
C1267 C1268 1.387 . S
C1267 H1270 0.950 . S
C1268 C1267 1.387 . S
C1268 C1271 1.387 . S
H1269 C1265 0.950 . S
H1270 C1267 0.950 . S
C1271 C1262 1.390 . S
C1271 H1264 0.950 . S
C1271 C1268 1.387 . S
C1272 C1273 1.387 . S
C1272 H1276 0.950 . S
C1272 C1281 1.390 . S
C1273 C1272 1.387 . S
C1273 C1275 1.387 . S
H1274 C1281 0.950 . S
C1275 C1273 1.387 . S
C1275 C1277 1.390 . S
C1275 H1279 0.950 . S
H1276 C1272 0.950 . S
C1277 C1275 1.390 . S
C1277 C1278 1.387 . S
C1277 H1280 0.950 . S
C1278 C1277 1.387 . S
C1278 C1281 1.387 . S
H1279 C1275 0.950 . S
H1280 C1277 0.950 . S
C1281 C1272 1.390 . S
C1281 H1274 0.950 . S
C1281 C1278 1.387 . S
C1282 C1283 1.387 . S
C1282 H1286 0.950 . S
C1282 C1291 1.390 . S
C1283 C1282 1.387 . S
C1283 C1285 1.387 . S
H1284 C1291 0.950 . S
C1285 C1283 1.387 . S
C1285 C1287 1.390 . S
C1285 H1289 0.950 . S
H1286 C1282 0.950 . S
C1287 C1285 1.390 . S
C1287 C1288 1.387 . S
C1287 H1290 0.950 . S
C1288 C1287 1.387 . S
C1288 C1291 1.387 . S
H1289 C1285 0.950 . S
H1290 C1287 0.950 . S
C1291 C1282 1.390 . S
C1291 H1284 0.950 . S
C1291 C1288 1.387 . S
C1292 C1293 1.387 . S
C1292 H1296 0.950 . S
C1292 C1301 1.390 . S
C1293 C1292 1.387 . S
C1293 C1295 1.387 . S
H1294 C1301 0.950 . S
C1295 C1293 1.387 . S
C1295 C1297 1.390 . S
C1295 H1299 0.950 . S
H1296 C1292 0.950 . S
C1297 C1295 1.390 . S
C1297 C1298 1.387 . S
C1297 H1300 0.950 . S
C1298 C1297 1.387 . S
C1298 C1301 1.387 . S
H1299 C1295 0.950 . S
H1300 C1297 0.950 . S
C1301 C1292 1.390 . S
C1301 H1294 0.950 . S
C1301 C1298 1.387 . S
C1302 C1303 1.387 . S
C1302 H1306 0.950 . S
C1302 C1311 1.390 . S
C1303 C1302 1.387 . S
C1303 C1305 1.387 . S
H1304 C1311 0.950 . S
C1305 C1303 1.387 . S
C1305 C1307 1.390 1_564 S
C1305 H1309 0.950 1_554 S
H1306 C1302 0.950 . S
C1307 C1305 1.390 1_546 S
C1307 C1308 1.387 1_546 S
C1307 H1310 0.950 . S
C1308 C1307 1.387 1_564 S
C1308 C1311 1.387 . S
H1309 C1305 0.950 1_556 S
H1310 C1307 0.950 . S
C1311 C1302 1.390 . S
C1311 H1304 0.950 . S
C1311 C1308 1.387 . S
C1312 C1313 1.387 . S
C1312 H1316 0.950 . S
C1312 C1321 1.390 . S
C1313 C1312 1.387 . S
C1313 C1315 1.387 . S
H1314 C1321 0.950 . S
C1315 C1313 1.387 . S
C1315 C1317 1.390 . S
C1315 H1319 0.950 . S
H1316 C1312 0.950 . S
C1317 C1315 1.390 . S
C1317 C1318 1.387 . S
C1317 H1320 0.950 . S
C1318 C1317 1.387 . S
C1318 C1321 1.387 . S
H1319 C1315 0.950 . S
H1320 C1317 0.950 . S
C1321 C1312 1.390 . S
C1321 H1314 0.950 . S
C1321 C1318 1.387 . S
C1322 C1323 1.387 1_556 S
C1322 H1326 0.950 . S
C1322 C1331 1.390 . S
C1323 C1322 1.387 1_554 S
C1323 C1325 1.387 . S
H1324 C1331 0.950 . S
C1325 C1323 1.387 . S
C1325 C1327 1.390 . S
C1325 H1329 0.950 . S
H1326 C1322 0.950 . S
C1327 C1325 1.390 . S
C1327 C1328 1.387 . S
C1327 H1330 0.950 . S
C1328 C1327 1.387 . S
C1328 C1331 1.387 1_554 S
H1329 C1325 0.950 . S
H1330 C1327 0.950 . S
C1331 C1322 1.390 . S
C1331 H1324 0.950 . S
C1331 C1328 1.387 1_556 S
C1332 C1333 1.387 . S
C1332 H1336 0.950 . S
C1332 C1341 1.390 . S
C1333 C1332 1.387 . S
C1333 C1335 1.387 . S
H1334 C1341 0.950 . S
C1335 C1333 1.387 . S
C1335 C1337 1.390 . S
C1335 H1339 0.950 . S
H1336 C1332 0.950 . S
C1337 C1335 1.390 . S
C1337 C1338 1.387 . S
C1337 H1340 0.950 . S
C1338 C1337 1.387 . S
C1338 C1341 1.387 . S
H1339 C1335 0.950 . S
H1340 C1337 0.950 . S
C1341 C1332 1.390 . S
C1341 H1334 0.950 . S
C1341 C1338 1.387 . S
C1342 C1343 1.387 . S
C1342 H1346 0.950 . S
C1342 C1351 1.390 . S
C1343 C1342 1.387 . S
C1343 C1345 1.387 . S
H1344 C1351 0.950 . S
C1345 C1343 1.387 . S
C1345 C1347 1.390 . S
C1345 H1349 0.950 . S
H1346 C1342 0.950 . S
C1347 C1345 1.390 . S
C1347 C1348 1.387 . S
C1347 H1350 0.950 . S
C1348 C1347 1.387 . S
C1348 C1351 1.387 . S
H1349 C1345 0.950 . S
H1350 C1347 0.950 . S
C1351 C1342 1.390 . S
C1351 H1344 0.950 . S
C1351 C1348 1.387 . S
C1352 C1353 1.387 . S
C1352 H1356 0.950 . S
C1352 C1361 1.390 . S
C1353 C1352 1.387 . S
C1353 C1355 1.387 . S
H1354 C1361 0.950 . S
C1355 C1353 1.387 . S
C1355 C1357 1.390 . S
C1355 H1359 0.950 . S
H1356 C1352 0.950 . S
C1357 C1355 1.390 . S
C1357 C1358 1.387 . S
C1357 H1360 0.950 . S
C1358 C1357 1.387 . S
C1358 C1361 1.387 . S
H1359 C1355 0.950 . S
H1360 C1357 0.950 . S
C1361 C1352 1.390 . S
C1361 H1354 0.950 . S
C1361 C1358 1.387 . S
C1362 C1363 1.387 . S
C1362 H1366 0.950 . S
C1362 C1371 1.390 . S
C1363 C1362 1.387 . S
C1363 C1365 1.387 . S
H1364 C1371 0.950 . S
C1365 C1363 1.387 . S
C1365 C1367 1.390 . S
C1365 H1369 0.950 . S
H1366 C1362 0.950 . S
C1367 C1365 1.390 . S
C1367 C1368 1.387 . S
C1367 H1370 0.950 . S
C1368 C1367 1.387 . S
C1368 C1371 1.387 . S
H1369 C1365 0.950 . S
H1370 C1367 0.950 . S
C1371 C1362 1.390 . S
C1371 H1364 0.950 . S
C1371 C1368 1.387 . S
C1372 C1373 1.387 . S
C1372 H1376 0.950 1_455 S
C1372 C1381 1.390 . S
C1373 C1372 1.387 . S
C1373 C1375 1.387 . S
H1374 C1381 0.950 1_655 S
C1375 C1373 1.387 . S
C1375 C1377 1.390 . S
C1375 H1379 0.950 . S
H1376 C1372 0.950 1_655 S
C1377 C1375 1.390 . S
C1377 C1378 1.387 . S
C1377 H1380 0.950 . S
C1378 C1377 1.387 . S
C1378 C1381 1.387 . S
H1379 C1375 0.950 . S
H1380 C1377 0.950 . S
C1381 C1372 1.390 . S
C1381 H1374 0.950 1_455 S
C1381 C1378 1.387 . S
C1382 C1383 1.387 . S
C1382 H1386 0.950 . S
C1382 C1391 1.390 . S
C1383 C1382 1.387 . S
C1383 C1385 1.387 . S
H1384 C1391 0.950 . S
C1385 C1383 1.387 . S
C1385 C1387 1.390 . S
C1385 H1389 0.950 . S
H1386 C1382 0.950 . S
C1387 C1385 1.390 . S
C1387 C1388 1.387 . S
C1387 H1390 0.950 . S
C1388 C1387 1.387 . S
C1388 C1391 1.387 . S
H1389 C1385 0.950 . S
H1390 C1387 0.950 . S
C1391 C1382 1.390 . S
C1391 H1384 0.950 . S
C1391 C1388 1.387 . S
C1392 C1393 1.387 . S
C1392 H1396 0.950 . S
C1392 C1401 1.390 . S
C1393 C1392 1.387 . S
C1393 C1395 1.387 . S
H1394 C1401 0.950 . S
C1395 C1393 1.387 . S
C1395 C1397 1.390 . S
C1395 H1399 0.950 . S
H1396 C1392 0.950 . S
C1397 C1395 1.390 . S
C1397 C1398 1.387 . S
C1397 H1400 0.950 . S
C1398 C1397 1.387 . S
C1398 C1401 1.387 . S
H1399 C1395 0.950 . S
H1400 C1397 0.950 . S
C1401 C1392 1.390 . S
C1401 H1394 0.950 . S
C1401 C1398 1.387 . S
C1402 C1403 1.387 . S
C1402 H1406 0.950 . S
C1402 C1411 1.390 . S
C1403 C1402 1.387 . S
C1403 C1405 1.387 . S
H1404 C1411 0.950 . S
C1405 C1403 1.387 . S
C1405 C1407 1.390 . S
C1405 H1409 0.950 . S
H1406 C1402 0.950 . S
C1407 C1405 1.390 . S
C1407 C1408 1.387 . S
C1407 H1410 0.950 . S
C1408 C1407 1.387 . S
C1408 C1411 1.387 . S
H1409 C1405 0.950 . S
H1410 C1407 0.950 . S
C1411 C1402 1.390 . S
C1411 H1404 0.950 . S
C1411 C1408 1.387 . S
C1412 C1413 1.387 . S
C1412 H1416 0.950 . S
C1412 C1421 1.390 . S
C1413 C1412 1.387 . S
C1413 C1415 1.387 . S
H1414 C1421 0.949 1_655 S
C1415 C1413 1.387 . S
C1415 C1417 1.390 . S
C1415 H1419 0.950 . S
H1416 C1412 0.950 . S
C1417 C1415 1.390 . S
C1417 C1418 1.387 . S
C1417 H1420 0.950 . S
C1418 C1417 1.387 . S
C1418 C1421 1.387 . S
H1419 C1415 0.950 . S
H1420 C1417 0.950 . S
C1421 C1412 1.390 . S
C1421 H1414 0.949 1_455 S
C1421 C1418 1.387 . S
C1422 C1423 1.387 . S
C1422 H1426 0.950 . S
C1422 C1431 1.390 . S
C1423 C1422 1.387 . S
C1423 C1425 1.387 . S
H1424 C1431 0.950 . S
C1425 C1423 1.387 . S
C1425 C1427 1.390 . S
C1425 H1429 0.950 . S
H1426 C1422 0.950 . S
C1427 C1425 1.390 . S
C1427 C1428 1.387 . S
C1427 H1430 0.950 . S
C1428 C1427 1.387 . S
C1428 C1431 1.387 . S
H1429 C1425 0.950 . S
H1430 C1427 0.950 . S
C1431 C1422 1.390 . S
C1431 H1424 0.950 . S
C1431 C1428 1.387 . S
C1432 C1433 1.387 . S
C1432 H1436 0.950 . S
C1432 C1441 1.390 . S
C1433 C1432 1.387 . S
C1433 C1435 1.387 . S
H1434 C1441 0.950 . S
C1435 C1433 1.387 . S
C1435 C1437 1.390 . S
C1435 H1439 0.950 . S
H1436 C1432 0.950 . S
C1437 C1435 1.390 . S
C1437 C1438 1.387 . S
C1437 H1440 0.950 . S
C1438 C1437 1.387 . S
C1438 C1441 1.387 . S
H1439 C1435 0.950 . S
H1440 C1437 0.950 . S
C1441 C1432 1.390 . S
C1441 H1434 0.950 . S
C1441 C1438 1.387 . S
C1442 C1443 1.387 . S
C1442 H1446 0.950 . S
C1442 C1451 1.390 . S
C1443 C1442 1.387 . S
C1443 C1445 1.387 . S
H1444 C1451 0.950 . S
C1445 C1443 1.387 . S
C1445 C1447 1.390 . S
C1445 H1449 0.950 . S
H1446 C1442 0.950 . S
C1447 C1445 1.390 . S
C1447 C1448 1.387 . S
C1447 H1450 0.950 . S
C1448 C1447 1.387 . S
C1448 C1451 1.387 . S
H1449 C1445 0.950 . S
H1450 C1447 0.950 . S
C1451 C1442 1.390 . S
C1451 H1444 0.950 . S
C1451 C1448 1.387 . S
C1452 C1453 1.387 . S
C1452 H1456 0.950 . S
C1452 C1461 1.390 . S
C1453 C1452 1.387 . S
C1453 C1455 1.387 . S
H1454 C1461 0.950 . S
C1455 C1453 1.387 . S
C1455 C1457 1.390 . S
C1455 H1459 0.950 . S
H1456 C1452 0.950 . S
C1457 C1455 1.390 . S
C1457 C1458 1.387 . S
C1457 H1460 0.950 . S
C1458 C1457 1.387 . S
C1458 C1461 1.387 . S
H1459 C1455 0.950 . S
H1460 C1457 0.950 . S
C1461 C1452 1.390 . S
C1461 H1454 0.950 . S
C1461 C1458 1.387 . S
C1462 C1463 1.387 . S
C1462 H1466 0.950 . S
C1462 C1471 1.390 . S
C1463 C1462 1.387 . S
C1463 C1465 1.387 . S
H1464 C1471 0.950 . S
C1465 C1463 1.387 . S
C1465 C1467 1.390 . S
C1465 H1469 0.950 . S
H1466 C1462 0.950 . S
C1467 C1465 1.390 . S
C1467 C1468 1.387 . S
C1467 H1470 0.950 . S
C1468 C1467 1.387 . S
C1468 C1471 1.387 . S
H1469 C1465 0.950 . S
H1470 C1467 0.950 . S
C1471 C1462 1.390 . S
C1471 H1464 0.950 . S
C1471 C1468 1.387 . S
C1472 C1473 1.387 . S
C1472 H1476 0.950 . S
C1472 C1481 1.390 . S
C1473 C1472 1.387 . S
C1473 C1475 1.387 . S
H1474 C1481 0.950 . S
C1475 C1473 1.387 . S
C1475 C1477 1.390 . S
C1475 H1479 0.950 . S
H1476 C1472 0.950 . S
C1477 C1475 1.390 . S
C1477 C1478 1.387 . S
C1477 H1480 0.950 . S
C1478 C1477 1.387 . S
C1478 C1481 1.387 . S
H1479 C1475 0.950 . S
H1480 C1477 0.950 . S
C1481 C1472 1.390 . S
C1481 H1474 0.950 . S
C1481 C1478 1.387 . S
C1482 C1483 1.387 . S
C1482 H1486 0.950 . S
C1482 C1491 1.390 . S
C1483 C1482 1.387 . S
C1483 C1485 1.387 . S
H1484 C1491 0.950 . S
C1485 C1483 1.387 . S
C1485 C1487 1.390 . S
C1485 H1489 0.950 . S
H1486 C1482 0.950 . S
C1487 C1485 1.390 . S
C1487 C1488 1.387 . S
C1487 H1490 0.950 . S
C1488 C1487 1.387 . S
C1488 C1491 1.387 . S
H1489 C1485 0.950 . S
H1490 C1487 0.950 . S
C1491 C1482 1.390 . S
C1491 H1484 0.950 . S
C1491 C1488 1.387 . S
C1492 C1493 1.387 . S
C1492 H1496 0.950 . S
C1492 C1501 1.390 . S
C1493 C1492 1.387 . S
C1493 C1495 1.387 . S
H1494 C1501 0.950 . S
C1495 C1493 1.387 . S
C1495 C1497 1.390 . S
C1495 H1499 0.950 . S
H1496 C1492 0.950 . S
C1497 C1495 1.390 . S
C1497 C1498 1.387 . S
C1497 H1500 0.950 . S
C1498 C1497 1.387 . S
C1498 C1501 1.387 . S
H1499 C1495 0.950 . S
H1500 C1497 0.950 . S
C1501 C1492 1.390 . S
C1501 H1494 0.950 . S
C1501 C1498 1.387 . S
C1502 C1503 1.387 . S
C1502 H1506 0.950 . S
C1502 C1511 1.390 . S
C1503 C1502 1.387 . S
C1503 C1505 1.387 . S
H1504 C1511 0.950 . S
C1505 C1503 1.387 . S
C1505 C1507 1.390 . S
C1505 H1509 0.950 . S
H1506 C1502 0.950 . S
C1507 C1505 1.390 . S
C1507 C1508 1.387 . S
C1507 H1510 0.950 . S
C1508 C1507 1.387 . S
C1508 C1511 1.387 . S
H1509 C1505 0.950 . S
H1510 C1507 0.950 . S
C1511 C1502 1.390 . S
C1511 H1504 0.950 . S
C1511 C1508 1.387 . S
C1512 C1513 1.387 . S
C1512 H1516 0.950 . S
C1512 C1521 1.390 . S
C1513 C1512 1.387 . S
C1513 C1515 1.387 . S
H1514 C1521 0.950 . S
C1515 C1513 1.387 . S
C1515 C1517 1.390 . S
C1515 H1519 0.950 . S
H1516 C1512 0.950 . S
C1517 C1515 1.390 . S
C1517 C1518 1.387 . S
C1517 H1520 0.950 . S
C1518 C1517 1.387 . S
C1518 C1521 1.387 . S
H1519 C1515 0.950 . S
H1520 C1517 0.950 . S
C1521 C1512 1.390 . S
C1521 H1514 0.950 . S
C1521 C1518 1.387 . S
C1522 C1523 1.387 . S
C1522 H1526 0.950 . S
C1522 C1531 1.390 . S
C1523 C1522 1.387 . S
C1523 C1525 1.387 . S
H1524 C1531 0.950 . S
C1525 C1523 1.387 . S
C1525 C1527 1.390 . S
C1525 H1529 0.950 . S
H1526 C1522 0.950 . S
C1527 C1525 1.390 . S
C1527 C1528 1.387 . S
C1527 H1530 0.950 . S
C1528 C1527 1.387 . S
C1528 C1531 1.387 . S
H1529 C1525 0.950 . S
H1530 C1527 0.950 . S
C1531 C1522 1.390 . S
C1531 H1524 0.950 . S
C1531 C1528 1.387 . S
C1532 C1533 1.387 . S
C1532 H1536 0.950 . S
C1532 C1541 1.390 . S
C1533 C1532 1.387 . S
C1533 C1535 1.387 . S
H1534 C1541 0.950 . S
C1535 C1533 1.387 . S
C1535 C1537 1.390 . S
C1535 H1539 0.950 . S
H1536 C1532 0.950 . S
C1537 C1535 1.390 . S
C1537 C1538 1.387 . S
C1537 H1540 0.950 . S
C1538 C1537 1.387 . S
C1538 C1541 1.387 . S
H1539 C1535 0.950 . S
H1540 C1537 0.950 . S
C1541 C1532 1.390 . S
C1541 H1534 0.950 . S
C1541 C1538 1.387 . S
C1542 C1543 1.405 . S
C1542 H1546 0.950 . S
C1542 C1551 1.390 . S
C1543 C1542 1.405 . S
C1543 C1545 1.365 1_556 S
H1544 C1551 0.950 . S
C1545 C1543 1.365 1_554 S
C1545 C1547 1.390 . S
C1545 H1549 0.950 . S
H1546 C1542 0.950 . S
C1547 C1545 1.390 . S
C1547 C1548 1.387 . S
C1547 H1550 0.950 . S
C1548 C1547 1.387 . S
C1548 C1551 1.387 1_554 S
H1549 C1545 0.950 . S
H1550 C1547 0.950 . S
C1551 C1542 1.390 . S
C1551 H1544 0.950 . S
C1551 C1548 1.387 1_556 S
C1552 C1553 1.387 . S
C1552 H1556 0.950 . S
C1552 C1561 1.390 . S
C1553 C1552 1.387 . S
C1553 C1555 1.387 . S
H1554 C1561 0.950 . S
C1555 C1553 1.387 . S
C1555 C1557 1.390 . S
C1555 H1559 0.950 . S
H1556 C1552 0.950 . S
C1557 C1555 1.390 . S
C1557 C1558 1.387 . S
C1557 H1560 0.950 . S
C1558 C1557 1.387 . S
C1558 C1561 1.387 . S
H1559 C1555 0.950 . S
H1560 C1557 0.950 . S
C1561 C1552 1.390 . S
C1561 H1554 0.950 . S
C1561 C1558 1.387 . S
C1562 C1563 1.387 1_556 S
C1562 H1566 0.950 . S
C1562 C1571 1.390 . S
C1563 C1562 1.387 1_554 S
C1563 C1565 1.387 . S
H1564 C1571 0.950 . S
C1565 C1563 1.387 . S
C1565 C1567 1.390 . S
C1565 H1569 0.950 . S
H1566 C1562 0.950 . S
C1567 C1565 1.390 . S
C1567 C1568 1.387 1_554 S
C1567 H1570 0.950 . S
C1568 C1567 1.387 1_556 S
C1568 C1571 1.387 . S
H1569 C1565 0.950 . S
H1570 C1567 0.950 . S
C1571 C1562 1.390 . S
C1571 H1564 0.950 . S
C1571 C1568 1.387 . S
C1572 C1573 1.387 . S
C1572 H1576 0.950 . S
C1572 C1581 1.390 . S
C1573 C1572 1.387 . S
C1573 C1575 1.387 . S
H1574 C1581 0.950 . S
C1575 C1573 1.387 . S
C1575 C1577 1.390 . S
C1575 H1579 0.950 . S
H1576 C1572 0.950 . S
C1577 C1575 1.390 . S
C1577 C1578 1.387 . S
C1577 H1580 0.950 . S
C1578 C1577 1.387 . S
C1578 C1581 1.387 . S
H1579 C1575 0.950 . S
H1580 C1577 0.950 . S
C1581 C1572 1.390 . S
C1581 H1574 0.950 . S
C1581 C1578 1.387 . S
C1582 C1583 1.387 . S
C1582 H1586 0.950 . S
C1582 C1591 1.390 . S
C1583 C1582 1.387 . S
C1583 C1585 1.387 . S
H1584 C1591 0.950 . S
C1585 C1583 1.387 . S
C1585 C1587 1.390 . S
C1585 H1589 0.950 . S
H1586 C1582 0.950 . S
C1587 C1585 1.390 . S
C1587 C1588 1.387 . S
C1587 H1590 0.950 . S
C1588 C1587 1.387 . S
C1588 C1591 1.387 . S
H1589 C1585 0.950 . S
H1590 C1587 0.950 . S
C1591 C1582 1.390 . S
C1591 H1584 0.950 . S
C1591 C1588 1.387 . S
C633 C101 1.676 . S
C638 C330 1.660 . S
C643 C57 1.630 . S
C648 C341 1.659 . S
C653 C73 1.217 . S
C658 C370 1.239 . S
C668 C373 1.412 . S
C663 C78 1.381 . S
C673 C21 1.653 . S
C678 C411 1.634 . S
C688 C414 1.200 . S
C683 C31 1.191 . S
C698 C441 1.564 . S
C693 C49 1.576 . S
C703 C0 1.625 . S
C708 C470 1.596 . S
C718 C321 1.608 1_655 S
C713 C218 1.601 . S
C723 C229 1.021 . S
C728 C333 1.047 . S
C738 C361 1.532 . S
C733 C257 1.547 . S
C748 C390 1.336 . S
C743 C164 1.256 . S
C753 C216 1.095 . S
C758 C394 1.179 . S
C768 C420 1.589 . S
C763 C231 1.608 . S
C778 C433 0.929 . S
C773 C255 0.912 . S
C788 C461 1.640 . S
C783 C166 1.664 . S
C798 C313 1.522 . S
C793 C143 1.466 . S
C803 C265 1.690 . S
C808 C480 1.696 1_554 S
C818 C511 1.525 . S
C813 C299 1.556 . S
C828 C530 1.104 . S
C823 C291 1.084 . S
C833 C104 1.314 . S
C838 C453 1.360 . S
C843 C117 1.462 . S
C848 C353 1.512 . S
C853 C304 1.509 . S
C858 C541 1.544 . S
C868 C570 0.981 . S
C863 C278 1.018 . S
C878 C331 1.621 . S
C873 C60 1.663 . S
C888 C560 1.622 . S
C883 C96 1.617 . S
C893 C88 1.198 . S
C898 C371 1.169 . S
C903 C65 1.374 . S
C908 C534 1.370 . S
C918 C410 1.568 . S
C913 C10 1.640 . S
C923 C44 1.150 . S
C928 C493 1.185 . S
C938 C440 1.515 1_556 S
C933 C34 1.454 . S
C948 C591 1.571 . S
C943 C13 1.645 . S
C958 C320 1.594 . S
C953 C138 1.558 1_565 S
C968 C554 1.007 . S
C963 C296 1.027 . S
C973 C112 1.469 . S
C978 C360 1.499 . S
C983 C270 1.262 . S
C988 C551 1.255 . S
C993 C140 1.099 . S
C998 C393 1.123 . S
C1008 C501 1.559 . S
C1003 C294 1.548 . S
C1013 C114 0.888 . S
C1018 C434 0.874 . S
C1023 C268 1.591 . S
C1028 C580 1.605 . S
C1033 C169 1.535 1_556 S
C1038 C314 1.490 . S
C1043 C161 1.677 . S
C1048 C481 1.662 . S
C1053 C234 1.623 . S
C1058 C430 1.501 . S
C1063 C226 1.008 . S
C1068 C531 1.021 . S
C1078 C574 1.353 . S
C1073 C247 1.404 . S
C1083 C195 1.537 . S
C1088 C354 1.493 . S
C1098 C380 1.496 . S
C1093 C239 1.485 . S
C1108 C351 0.949 . S
C1103 C187 0.985 . S
C1113 C75 1.676 . S
C1118 C610 1.659 . S
C1128 C561 1.660 . S
C1123 C83 1.630 . S
C1133 C99 1.217 . S
C1138 C630 1.239 . S
C1143 C52 1.381 . S
C1148 C533 1.413 . S
C1153 C47 1.653 . S
C1158 C491 1.634 . S
C1168 C494 1.201 . S
C1163 C5 1.190 . S
C1178 C521 1.563 . S
C1173 C23 1.576 . S
C1188 C590 1.599 . S
C1183 C26 1.623 . S
C1198 C601 1.609 . S
C1193 C244 1.599 . S
C1203 C177 1.025 . S
C1208 C553 1.050 . S
C1218 C621 1.534 . S
C1213 C192 1.547 . S
C1228 C550 1.337 . S
C1223 C203 1.255 . S
C1238 C474 1.179 . S
C1233 C242 1.093 . S
C1243 C179 1.607 . S
C1248 C500 1.589 . S
C1258 C513 0.928 . S
C1253 C190 0.911 . S
C1263 C205 1.665 . S
C1268 C581 1.639 . S
C1278 C593 1.506 . S
C1273 C286 1.465 . S
C1283 C122 1.691 . S
C1288 C400 1.696 . S
C1298 C431 1.525 . S
C1293 C130 1.558 . S
C1308 C450 1.104 . S
C1303 C148 1.083 . S
C1318 C573 1.360 . S
C1313 C273 1.314 . S
C1323 C260 1.461 . S
C1328 C613 1.512 . S
C1338 C381 1.544 . S
C1333 C135 1.505 . S
C1348 C350 0.980 . S
C1343 C109 1.018 . S
C1353 C86 1.663 . S
C1358 C611 1.621 . S
C1368 C340 1.622 . S
C1363 C70 1.617 . S
C1373 C62 1.198 . S
C1378 C631 1.169 . S
C1383 C91 1.373 . S
C1388 C374 1.369 . S
C1393 C36 1.639 . S
C1398 C490 1.568 . S
C1408 C413 1.188 . S
C1403 C18 1.151 . S
C1413 C8 1.451 . S
C1418 C520 1.513 . S
C1423 C39 1.645 . S
C1428 C471 1.571 . S
C1438 C600 1.591 . S
C1433 C307 1.557 . S
C1443 C153 1.025 . S
C1448 C334 1.005 . S
C1458 C620 1.500 1_655 S
C1453 C281 1.470 . S
C1463 C127 1.263 . S
C1468 C391 1.255 . S
C1473 C309 1.100 . S
C1478 C473 1.125 . S
C1488 C421 1.560 . S
C1483 C151 1.549 . S
C1493 C283 0.889 . S
C1498 C514 0.875 . S
C1508 C460 1.607 . S
C1503 C125 1.591 . S
C1518 C594 1.488 . S
C1513 C221 1.536 . S
C1528 C401 1.661 1_565 S
C1523 C200 1.677 . S
C1533 C208 1.623 . S
C1538 C510 1.500 . S
C1548 C451 1.023 . S
C1543 C174 1.005 1_556 S
C1553 C182 1.404 . S
C1558 C454 1.354 . S
C1563 C156 1.537 . S
C1568 C614 1.493 . S
C1578 C540 1.497 . S
C1573 C213 1.486 . S
C1588 C571 0.943 . S
C1583 C252 0.985 . S
