# Generated by pormake.
# Topology ctn, (3,4)-cn, num edge types: 1
# Building blocks:
#     Node 0, Type 0, BuildingBlock: WUSLED_clean_sbu_0, # of connection points: 3
#     Node 1, Type 0, BuildingBlock: WUSLED_clean_sbu_0, # of connection points: 3
#     Node 2, Type 0, BuildingBlock: WUSLED_clean_sbu_0, # of connection points: 3
#     Node 3, Type 0, BuildingBlock: WUSLED_clean_sbu_0, # of connection points: 3
#     Node 4, Type 0, BuildingBlock: WUSLED_clean_sbu_0, # of connection points: 3
#     Node 5, Type 0, BuildingBlock: WUSLED_clean_sbu_0, # of connection points: 3
#     Node 6, Type 0, BuildingBlock: WUSLED_clean_sbu_0, # of connection points: 3
#     Node 7, Type 0, BuildingBlock: WUSLED_clean_sbu_0, # of connection points: 3
#     Node 8, Type 0, BuildingBlock: WUSLED_clean_sbu_0, # of connection points: 3
#     Node 9, Type 0, BuildingBlock: WUSLED_clean_sbu_0, # of connection points: 3
#     Node 10, Type 0, BuildingBlock: WUSLED_clean_sbu_0, # of connection points: 3
#     Node 11, Type 0, BuildingBlock: WUSLED_clean_sbu_0, # of connection points: 3
#     Node 12, Type 0, BuildingBlock: WUSLED_clean_sbu_0, # of connection points: 3
#     Node 13, Type 0, BuildingBlock: WUSLED_clean_sbu_0, # of connection points: 3
#     Node 14, Type 0, BuildingBlock: WUSLED_clean_sbu_0, # of connection points: 3
#     Node 15, Type 0, BuildingBlock: WUSLED_clean_sbu_0, # of connection points: 3
#     Node 16, Type 1, BuildingBlock: KUFVIS_clean_sbu_0, # of connection points: 4
#     Node 17, Type 1, BuildingBlock: KUFVIS_clean_sbu_0, # of connection points: 4
#     Node 18, Type 1, BuildingBlock: KUFVIS_clean_sbu_0, # of connection points: 4
#     Node 19, Type 1, BuildingBlock: KUFVIS_clean_sbu_0, # of connection points: 4
#     Node 20, Type 1, BuildingBlock: KUFVIS_clean_sbu_0, # of connection points: 4
#     Node 21, Type 1, BuildingBlock: KUFVIS_clean_sbu_0, # of connection points: 4
#     Node 22, Type 1, BuildingBlock: KUFVIS_clean_sbu_0, # of connection points: 4
#     Node 23, Type 1, BuildingBlock: KUFVIS_clean_sbu_0, # of connection points: 4
#     Node 24, Type 1, BuildingBlock: KUFVIS_clean_sbu_0, # of connection points: 4
#     Node 25, Type 1, BuildingBlock: KUFVIS_clean_sbu_0, # of connection points: 4
#     Node 26, Type 1, BuildingBlock: KUFVIS_clean_sbu_0, # of connection points: 4
#     Node 27, Type 1, BuildingBlock: KUFVIS_clean_sbu_0, # of connection points: 4
#     Edge 28, Type (0, 1), BuildingBlock: MIFKUJ_clean_linker_0, # of connection points: 2
#     Edge 29, Type (0, 1), BuildingBlock: MIFKUJ_clean_linker_0, # of connection points: 2
#     Edge 30, Type (0, 1), BuildingBlock: MIFKUJ_clean_linker_0, # of connection points: 2
#     Edge 31, Type (0, 1), BuildingBlock: MIFKUJ_clean_linker_0, # of connection points: 2
#     Edge 32, Type (0, 1), BuildingBlock: MIFKUJ_clean_linker_0, # of connection points: 2
#     Edge 33, Type (0, 1), BuildingBlock: MIFKUJ_clean_linker_0, # of connection points: 2
#     Edge 34, Type (0, 1), BuildingBlock: MIFKUJ_clean_linker_0, # of connection points: 2
#     Edge 35, Type (0, 1), BuildingBlock: MIFKUJ_clean_linker_0, # of connection points: 2
#     Edge 36, Type (0, 1), BuildingBlock: MIFKUJ_clean_linker_0, # of connection points: 2
#     Edge 37, Type (0, 1), BuildingBlock: MIFKUJ_clean_linker_0, # of connection points: 2
#     Edge 38, Type (0, 1), BuildingBlock: MIFKUJ_clean_linker_0, # of connection points: 2
#     Edge 39, Type (0, 1), BuildingBlock: MIFKUJ_clean_linker_0, # of connection points: 2
#     Edge 40, Type (0, 1), BuildingBlock: MIFKUJ_clean_linker_0, # of connection points: 2
#     Edge 41, Type (0, 1), BuildingBlock: MIFKUJ_clean_linker_0, # of connection points: 2
#     Edge 42, Type (0, 1), BuildingBlock: MIFKUJ_clean_linker_0, # of connection points: 2
#     Edge 43, Type (0, 1), BuildingBlock: MIFKUJ_clean_linker_0, # of connection points: 2
#     Edge 44, Type (0, 1), BuildingBlock: MIFKUJ_clean_linker_0, # of connection points: 2
#     Edge 45, Type (0, 1), BuildingBlock: MIFKUJ_clean_linker_0, # of connection points: 2
#     Edge 46, Type (0, 1), BuildingBlock: MIFKUJ_clean_linker_0, # of connection points: 2
#     Edge 47, Type (0, 1), BuildingBlock: MIFKUJ_clean_linker_0, # of connection points: 2
#     Edge 48, Type (0, 1), BuildingBlock: MIFKUJ_clean_linker_0, # of connection points: 2
#     Edge 49, Type (0, 1), BuildingBlock: MIFKUJ_clean_linker_0, # of connection points: 2
#     Edge 50, Type (0, 1), BuildingBlock: MIFKUJ_clean_linker_0, # of connection points: 2
#     Edge 51, Type (0, 1), BuildingBlock: MIFKUJ_clean_linker_0, # of connection points: 2
#     Edge 52, Type (0, 1), BuildingBlock: MIFKUJ_clean_linker_0, # of connection points: 2
#     Edge 53, Type (0, 1), BuildingBlock: MIFKUJ_clean_linker_0, # of connection points: 2
#     Edge 54, Type (0, 1), BuildingBlock: MIFKUJ_clean_linker_0, # of connection points: 2
#     Edge 55, Type (0, 1), BuildingBlock: MIFKUJ_clean_linker_0, # of connection points: 2
#     Edge 56, Type (0, 1), BuildingBlock: MIFKUJ_clean_linker_0, # of connection points: 2
#     Edge 57, Type (0, 1), BuildingBlock: MIFKUJ_clean_linker_0, # of connection points: 2
#     Edge 58, Type (0, 1), BuildingBlock: MIFKUJ_clean_linker_0, # of connection points: 2
#     Edge 59, Type (0, 1), BuildingBlock: MIFKUJ_clean_linker_0, # of connection points: 2
#     Edge 60, Type (0, 1), BuildingBlock: MIFKUJ_clean_linker_0, # of connection points: 2
#     Edge 61, Type (0, 1), BuildingBlock: MIFKUJ_clean_linker_0, # of connection points: 2
#     Edge 62, Type (0, 1), BuildingBlock: MIFKUJ_clean_linker_0, # of connection points: 2
#     Edge 63, Type (0, 1), BuildingBlock: MIFKUJ_clean_linker_0, # of connection points: 2
#     Edge 64, Type (0, 1), BuildingBlock: MIFKUJ_clean_linker_0, # of connection points: 2
#     Edge 65, Type (0, 1), BuildingBlock: MIFKUJ_clean_linker_0, # of connection points: 2
#     Edge 66, Type (0, 1), BuildingBlock: MIFKUJ_clean_linker_0, # of connection points: 2
#     Edge 67, Type (0, 1), BuildingBlock: MIFKUJ_clean_linker_0, # of connection points: 2
#     Edge 68, Type (0, 1), BuildingBlock: MIFKUJ_clean_linker_0, # of connection points: 2
#     Edge 69, Type (0, 1), BuildingBlock: MIFKUJ_clean_linker_0, # of connection points: 2
#     Edge 70, Type (0, 1), BuildingBlock: MIFKUJ_clean_linker_0, # of connection points: 2
#     Edge 71, Type (0, 1), BuildingBlock: MIFKUJ_clean_linker_0, # of connection points: 2
#     Edge 72, Type (0, 1), BuildingBlock: MIFKUJ_clean_linker_0, # of connection points: 2
#     Edge 73, Type (0, 1), BuildingBlock: MIFKUJ_clean_linker_0, # of connection points: 2
#     Edge 74, Type (0, 1), BuildingBlock: MIFKUJ_clean_linker_0, # of connection points: 2
#     Edge 75, Type (0, 1), BuildingBlock: MIFKUJ_clean_linker_0, # of connection points: 2
# Relax obj value: 0.012
# Max RMSD: 0.064
# Mean RMSD: 0.032
data_MOF--net-ctn--node1-WUSLED_clean_sbu_0--node2-KUFVIS_clean_sbu_0--edge1-MIFKUJ_clean_linker_0
_symmetry_space_group_name_H-M    P1
_symmetry_Int_Tables_number       1
_symmetry_cell_setting            triclinic
loop_
_symmetry_equiv_pos_as_xyz
'x, y, z'
_cell_length_a     87.133869
_cell_length_b     87.467075
_cell_length_c     87.672209
_cell_angle_alpha  91.428532
_cell_angle_beta   90.148417
_cell_angle_gamma 91.295333
loop_
_atom_site_label
_atom_site_type_symbol
_atom_site_fract_x
_atom_site_fract_y
_atom_site_fract_z
_atom_type_partial_charge
C0 C 0.02215 0.05095 0.08438 0.0
C1 C 0.01663 0.03578 0.08553 0.0
C2 C 1.0054 0.04164 0.11054 0.0
C3 C 0.00836 0.03119 0.09844 0.0
C4 C 0.01119 0.05673 0.10942 0.0
C5 C 0.01941 0.06131 0.09652 0.0
U6 U 0.05312 0.05121 0.05217 0.0
O7 O 0.05027 0.05627 0.02783 0.0
O8 O 0.06508 0.07118 0.04231 0.0
C9 C 0.05882 0.06885 0.02877 0.0
C10 C 0.02969 0.05668 0.07033 0.0
C11 C 0.05324 0.08253 0.0209 0.0
C12 C 0.03297 0.09735 0.00943 0.0
C13 C 0.03759 0.08488 0.01805 0.0
C14 C 0.05953 0.10542 1.00664 0.0
C15 C 0.04391 0.10768 1.0034 0.0
C16 C 0.0641 0.09302 0.01524 0.0
C17 C 0.08541 0.02064 0.05242 0.0
C18 C 0.09983 1.00643 0.03308 0.0
C19 C 0.1098 0.00912 0.05879 0.0
C20 C 0.09704 0.01771 0.06301 0.0
C21 C 0.1113 1.00314 0.04382 0.0
C22 C 0.08701 0.01504 0.03733 0.0
C23 C 0.07132 0.02834 0.05789 0.0
O24 O 0.04326 0.06339 0.07208 0.0
O25 O 0.02865 0.04803 0.05786 0.0
O26 O 0.05887 0.02688 0.04942 0.0
O27 O 0.07316 0.04209 0.06411 0.0
H28 H 0.01851 0.02749 0.07638 0.0
H29 H 1.00427 0.01943 0.09894 0.0
H30 H 0.00899 0.06519 0.11832 0.0
H31 H 0.02335 0.07311 0.09589 0.0
H32 H 0.02086 0.09864 1.00712 0.0
H33 H 0.02894 0.07696 0.02224 0.0
H34 H 0.06829 0.11324 1.0025 0.0
H35 H 0.07623 0.09148 0.01726 0.0
H36 H 0.10049 1.00194 0.02148 0.0
H37 H 0.11847 1.00711 0.06733 0.0
H38 H 0.0961 0.02182 0.07473 0.0
H39 H 0.07823 0.01702 0.02889 0.0
C40 C 0.30426 0.7316 0.17172 0.0
C41 C 0.30708 0.74701 0.17599 0.0
C42 C 0.30277 0.75489 0.14973 0.0
C43 C 0.30632 0.75852 0.16513 0.0
C44 C 0.30026 0.73939 0.14551 0.0
C45 C 0.30098 0.72793 0.15637 0.0
U46 U 0.31872 0.70969 0.20702 0.0
O47 O 0.30513 0.69883 0.2251 0.0
O48 O 0.31949 0.68476 0.21011 0.0
C49 C 0.30942 0.68495 0.22124 0.0
C50 C 0.30371 0.71921 0.18302 0.0
C51 C 0.29728 0.67283 0.22073 0.0
C52 C 0.27228 0.66258 0.21246 0.0
C53 C 0.28381 0.67408 0.21205 0.0
C54 C 0.28764 0.64843 0.23003 0.0
C55 C 0.27399 0.64961 0.22155 0.0
C56 C 0.29911 0.65988 0.2296 0.0
C57 C 0.35509 0.72448 0.22907 0.0
C58 C 0.36688 0.71234 0.25077 0.0
C59 C 0.37722 0.73646 0.24197 0.0
C60 C 0.36598 0.73647 0.23052 0.0
C61 C 0.37785 0.72441 0.25231 0.0
C62 C 0.35562 0.71237 0.23926 0.0
C63 C 0.34336 0.72501 0.21687 0.0
O64 O 0.31459 0.70906 0.18213 0.0
O65 O 0.30021 0.72309 0.19716 0.0
O66 O 0.32936 0.72821 0.22124 0.0
O67 O 0.34371 0.7141 0.2063 0.0
H68 H 0.30967 0.7502 0.18775 0.0
H69 H 0.30852 0.77028 0.16879 0.0
H70 H 0.29729 0.7361 0.13387 0.0
H71 H 0.29864 0.71616 0.15279 0.0
H72 H 0.26203 0.66385 0.20564 0.0
H73 H 0.28217 0.68397 0.20509 0.0
H74 H 0.28934 0.63883 0.23736 0.0
H75 H 0.30937 0.65872 0.23645 0.0
H76 H 0.36706 0.70279 0.2584 0.0
H77 H 0.38521 0.74609 0.24291 0.0
H78 H 0.36575 0.74595 0.22281 0.0
H79 H 0.34733 0.70297 0.23833 0.0
C80 C 0.97391 0.44293 0.0147 0.0
C81 C 0.98677 0.43504 0.01972 0.0
C82 C 0.98422 0.41683 0.99809 0.0
C83 C 0.99186 0.42209 0.01151 0.0
C84 C 0.97131 0.42482 0.99324 0.0
C85 C 0.96625 0.43769 1.00143 0.0
U86 U 0.97446 0.47441 0.04694 0.0
O87 O 0.96919 0.49881 0.0451 0.0
O88 O 0.95477 0.48413 0.05938 0.0
C89 C 0.95681 0.49775 0.0536 0.0
C90 C 0.9681 0.45659 0.02294 0.0
C91 C 0.94286 0.50552 0.04824 0.0
C92 C 0.92718 0.51642 0.02826 0.0
C93 C 0.93986 0.50787 0.0327 0.0
C94 C 0.92016 0.52011 0.05474 0.0
C95 C 0.91728 0.52287 0.03925 0.0
C96 C 0.93277 0.51158 0.05915 0.0
C97 C 1.00698 0.47414 0.0779 0.0
C98 C 0.00878 0.48797 0.10238 0.0
C99 C 0.03027 0.47331 0.09327 0.0
C100 C 0.02198 0.46911 0.08006 0.0
C101 C 0.02378 0.48268 0.10471 0.0
C102 C 1.00045 0.48371 0.08911 0.0
C103 C 0.99844 0.46863 0.06412 0.0
O104 O 0.96224 0.4544 0.03653 0.0
O105 O 0.97664 0.46914 0.02233 0.0
O106 O 0.99919 0.47728 0.05209 0.0
O107 O 0.98469 0.46257 0.06624 0.0
H108 H 0.99286 0.4389 0.02994 0.0
H109 H 1.0019 0.41632 0.01556 0.0
H110 H 0.96491 0.42101 0.9832 0.0
H111 H 0.95625 0.44355 0.99739 0.0
H112 H 0.92541 0.51835 0.01624 0.0
H113 H 0.94746 0.50335 0.02402 0.0
H114 H 0.91267 0.52458 0.06353 0.0
H115 H 0.9348 0.50994 0.07119 0.0
H116 H 1.00336 0.49512 0.11096 0.0
H117 H 0.04184 0.46923 0.09446 0.0
H118 H 0.02727 0.46175 0.07156 0.0
H119 H 0.98887 0.48771 0.0877 0.0
C120 C 0.70932 0.77873 0.1807 0.0
C121 C 0.71168 0.78564 0.16654 0.0
C122 C 0.71793 0.76097 0.15461 0.0
C123 C 0.7159 0.77686 0.15366 0.0
C124 C 0.71587 0.75418 0.16888 0.0
C125 C 0.71159 0.76294 0.18172 0.0
U126 U 0.71016 0.81219 0.21085 0.0
O127 O 0.69078 0.82507 0.22049 0.0
O128 O 0.70515 0.81159 0.23544 0.0
C129 C 0.69283 0.81992 0.23429 0.0
C130 C 0.7035 0.78738 0.19425 0.0
C131 C 0.67886 0.81473 0.24258 0.0
C132 C 0.66398 0.79543 0.25619 0.0
C133 C 0.67669 0.79956 0.24723 0.0
C134 C 0.6552 0.82144 0.25573 0.0
C135 C 0.65311 0.80635 0.2607 0.0
C136 C 0.6679 0.82556 0.24683 0.0
C137 C 0.74323 0.84309 0.20788 0.0
C138 C 0.74918 0.8648 0.22505 0.0
C139 C 0.76408 0.861 0.20207 0.0
C140 C 0.7552 0.8479 0.19835 0.0
C141 C 0.76122 0.8697 0.21545 0.0
C142 C 0.74025 0.85162 0.22129 0.0
C143 C 0.73436 0.82905 0.20345 0.0
O144 O 0.71197 0.78727 0.20668 0.0
O145 O 0.69749 0.80077 0.19187 0.0
O146 O 0.72059 0.8309 0.19771 0.0
O147 O 0.73495 0.81754 0.21276 0.0
H148 H 0.71005 0.79779 0.16534 0.0
H149 H 0.71758 0.78254 0.14293 0.0
H150 H 0.71713 0.74198 0.17006 0.0
H151 H 0.70972 0.75728 0.19243 0.0
H152 H 0.66268 0.78366 0.25961 0.0
H153 H 0.68492 0.79093 0.24413 0.0
H154 H 0.64725 0.83023 0.2591 0.0
H155 H 0.66935 0.83736 0.24353 0.0
H156 H 0.74654 0.87124 0.23538 0.0
H157 H 0.77339 0.86415 0.19453 0.0
H158 H 0.75776 0.84144 0.188 0.0
H159 H 0.73105 0.84811 0.22881 0.0
C160 C 0.01697 0.97388 0.44301 0.0
C161 C 0.02428 0.98321 0.43227 0.0
C162 C 1.00038 0.98458 0.41756 0.0
C163 C 0.01607 0.98849 0.41967 0.0
C164 C 0.99318 0.97533 0.4285 0.0
C165 C 1.00136 0.97009 0.44102 0.0
U166 U 0.04982 0.97208 0.47337 0.0
O167 O 0.04787 0.96554 0.49741 0.0
O168 O 0.06146 0.95163 0.48154 0.0
C169 C 0.05596 0.95314 0.49543 0.0
C170 C 0.02528 0.96735 0.45604 0.0
C171 C 0.05035 0.93899 0.50287 0.0
C172 C 0.03007 0.92304 0.51391 0.0
C173 C 0.0347 0.93596 0.50567 0.0
C174 C 0.05659 0.91592 0.51645 0.0
C175 C 0.04098 0.91288 0.51954 0.0
C176 C 0.06118 0.92877 0.50824 0.0
C177 C 0.08301 1.00315 0.47461 0.0
C178 C 0.09602 0.0235 0.4897 0.0
C179 C 0.11063 0.00799 0.47206 0.0
C180 C 0.09724 0.99964 0.46798 0.0
C181 C 0.11019 0.0202 0.48282 0.0
C182 C 0.08262 0.01515 0.4856 0.0
C183 C 0.06849 0.99568 0.46874 0.0
O184 O 0.03866 0.9613 0.45311 0.0
O185 O 0.02512 0.97521 0.46902 0.0
O186 O 0.05628 0.99638 0.4775 0.0
O187 O 0.0696 0.98241 0.46148 0.0
H188 H 0.03633 0.98631 0.43356 0.0
H189 H 0.022 0.99569 0.41161 0.0
H190 H 0.98125 0.97178 0.42721 0.0
H191 H 0.9955 0.96282 0.44909 0.0
H192 H 0.01794 0.92103 0.51587 0.0
H193 H 0.02608 0.94365 0.50168 0.0
H194 H 0.0654 0.90862 0.52076 0.0
H195 H 0.07332 0.93092 0.50637 0.0
H196 H 0.09513 0.03293 0.49787 0.0
H197 H 0.12132 1.00494 0.46664 0.0
H198 H 0.09801 0.99064 0.45932 0.0
H199 H 0.07185 0.01843 0.49075 0.0
C200 C 0.20902 0.74358 0.8416 0.0
C201 C 0.22202 0.7403 0.85033 0.0
C202 C 0.21683 0.76187 0.86778 0.0
C203 C 0.22587 0.74934 0.86334 0.0
C204 C 0.20372 0.76489 0.85904 0.0
C205 C 0.19989 0.75587 0.84613 0.0
U206 U 0.21328 0.71108 0.81067 0.0
O207 O 0.19486 0.69771 0.79891 0.0
O208 O 0.20997 0.71282 0.7858 0.0
C209 C 0.19762 0.70389 0.78565 0.0
C210 C 0.20474 0.73472 0.82758 0.0
C211 C 0.18421 0.70934 0.77697 0.0
C212 C 0.15747 0.71698 0.77536 0.0
C213 C 0.1702 0.7128 0.78407 0.0
C214 C 0.17258 0.71462 0.75236 0.0
C215 C 0.15846 0.71785 0.75935 0.0
C216 C 0.18526 0.71039 0.76105 0.0
C217 C 0.24677 0.68216 0.81398 0.0
C218 C 0.2502 0.65727 0.80138 0.0
C219 C 0.27107 0.6691 0.81599 0.0
C220 C 0.26191 0.68167 0.81938 0.0
C221 C 0.26533 0.65662 0.80708 0.0
C222 C 0.24099 0.66991 0.80484 0.0
C223 C 0.2373 0.69531 0.81873 0.0
O224 O 0.21421 0.73582 0.81601 0.0
O225 O 0.19931 0.72074 0.82936 0.0
O226 O 0.22325 0.69224 0.82334 0.0
O227 O 0.23829 0.70755 0.81035 0.0
H228 H 0.22925 0.73087 0.84701 0.0
H229 H 0.2361 0.74673 0.86972 0.0
H230 H 0.19632 0.77422 0.86221 0.0
H231 H 0.18978 0.75856 0.83959 0.0
H232 H 0.14686 0.71956 0.78118 0.0
H233 H 0.16903 0.71215 0.79634 0.0
H234 H 0.17377 0.71496 0.74008 0.0
H235 H 0.19587 0.70769 0.75527 0.0
H236 H 0.24535 0.64786 0.79455 0.0
H237 H 0.28272 0.66921 0.82033 0.0
H238 H 0.26663 0.69099 0.82642 0.0
H239 H 0.22932 0.67001 0.80055 0.0
C240 C 0.97793 0.57914 0.50507 0.0
C241 C 0.98657 0.59037 0.49748 0.0
C242 C 0.98708 0.6068 0.52055 0.0
C243 C 0.99114 0.60406 0.50516 0.0
C244 C 0.97869 0.59532 0.5281 0.0
C245 C 0.97419 0.58171 0.52046 0.0
U246 U 0.97748 0.54589 0.47428 0.0
O247 O 0.97198 0.52147 0.47788 0.0
O248 O 0.95732 0.53481 0.4631 0.0
C249 C 0.95927 0.5217 0.46979 0.0
C250 C 0.97203 0.56494 0.49732 0.0
C251 C 0.94549 0.51401 0.47638 0.0
C252 C 0.91862 0.51383 0.48428 0.0
C253 C 0.9318 0.52179 0.4793 0.0
C254 C 0.93264 0.49028 0.48386 0.0
C255 C 0.91881 0.49792 0.4865 0.0
C256 C 0.94576 0.49822 0.47884 0.0
C257 C 0.00897 0.54384 0.44263 0.0
C258 C 0.00915 0.53476 0.41605 0.0
C259 C 0.03303 0.53739 0.43008 0.0
C260 C 0.02499 0.54244 0.44301 0.0
C261 C 0.02527 0.53364 0.41633 0.0
C262 C 1.00109 0.53979 0.42904 0.0
C263 C 1.00112 0.55065 0.45614 0.0
O264 O 0.96601 0.56624 0.48366 0.0
O265 O 0.98038 0.5527 0.49855 0.0
O266 O 1.00206 0.54322 0.46896 0.0
O267 O 0.98754 0.55651 0.45398 0.0
H268 H 0.98959 0.58866 0.48559 0.0
H269 H 0.99751 0.61264 0.49895 0.0
H270 H 0.9756 0.59683 0.53999 0.0
H271 H 0.96758 0.57321 0.52657 0.0
H272 H 0.90827 0.52016 0.48638 0.0
H273 H 0.93119 0.53397 0.47753 0.0
H274 H 0.93324 0.47803 0.48521 0.0
H275 H 0.9561 0.49191 0.47656 0.0
H276 H 1.00273 0.53179 0.40577 0.0
H277 H 0.04542 0.5369 0.43074 0.0
H278 H 0.03138 0.54563 0.45326 0.0
H279 H 0.98874 0.54073 0.42835 0.0
C280 C 0.8033 0.79276 0.85034 0.0
C281 C 0.80705 0.77763 0.84633 0.0
C282 C 0.80319 0.76974 0.87271 0.0
C283 C 0.80698 0.76626 0.85739 0.0
C284 C 0.79979 0.78499 0.87666 0.0
C285 C 0.79983 0.79631 0.86563 0.0
U286 U 0.81543 0.8155 0.8143 0.0
O287 O 0.80055 0.82513 0.79677 0.0
O288 O 0.81502 0.84047 0.81116 0.0
C289 C 0.80433 0.83937 0.80056 0.0
C290 C 0.80189 0.80486 0.83885 0.0
C291 C 0.79179 0.85059 0.80156 0.0
C292 C 0.76473 0.85705 0.80358 0.0
C293 C 0.77639 0.8462 0.80405 0.0
C294 C 0.78369 0.87685 0.79843 0.0
C295 C 0.76821 0.87253 0.80063 0.0
C296 C 0.79529 0.86604 0.79889 0.0
C297 C 0.85195 0.80405 0.79123 0.0
C298 C 0.85904 0.80375 0.76429 0.0
C299 C 0.87889 0.80403 0.78363 0.0
C300 C 0.86763 0.80424 0.79502 0.0
C301 C 0.87478 0.80356 0.76808 0.0
C302 C 0.84777 0.804 0.77572 0.0
C303 C 0.84042 0.80261 0.80363 0.0
O304 O 0.81232 0.81595 0.83931 0.0
O305 O 0.79808 0.80046 0.82486 0.0
O306 O 0.82642 0.79803 0.79976 0.0
O307 O 0.84065 0.81341 0.81434 0.0
H308 H 0.8098 0.77455 0.83463 0.0
H309 H 0.80986 0.75471 0.85391 0.0
H310 H 0.79658 0.78814 0.88822 0.0
H311 H 0.79679 0.80785 0.869 0.0
H312 H 0.75299 0.85329 0.80553 0.0
H313 H 0.77332 0.83437 0.80615 0.0
H314 H 0.78687 0.88856 0.7959 0.0
H315 H 0.80704 0.86971 0.79678 0.0
H316 H 0.85541 0.8036 0.75247 0.0
H317 H 0.89083 0.80368 0.78704 0.0
H318 H 0.8712 0.80412 0.80686 0.0
H319 H 0.83579 0.80386 0.77239 0.0
C320 C 0.29783 0.29185 0.34654 0.0
C321 C 0.31156 0.28615 0.3524 0.0
C322 C 0.29709 0.26922 0.36929 0.0
C323 C 0.31119 0.27493 0.36363 0.0
C324 C 0.28343 0.27473 0.36305 0.0
C325 C 0.28382 0.28588 0.35187 0.0
U326 U 0.31198 0.31487 0.31139 0.0
O327 O 0.29794 0.32582 0.29403 0.0
O328 O 0.31321 0.33994 0.3088 0.0
C329 C 0.30253 0.33975 0.29817 0.0
C330 C 0.29757 0.30455 0.3356 0.0
C331 C 0.29063 0.35162 0.29943 0.0
C332 C 0.26393 0.35937 0.30144 0.0
C333 C 0.27503 0.34796 0.30181 0.0
C334 C 0.28385 0.37834 0.29668 0.0
C335 C 0.26817 0.37473 0.29871 0.0
C336 C 0.29489 0.36695 0.29702 0.0
C337 C 0.34706 0.3001 0.28784 0.0
C338 C 0.36422 0.3132 0.27019 0.0
C339 C 0.36422 0.2856 0.27138 0.0
C340 C 0.35286 0.28611 0.28261 0.0
C341 C 0.37012 0.29912 0.26498 0.0
C342 C 0.35278 0.31369 0.2815 0.0
C343 C 0.33562 0.29996 0.30034 0.0
O344 O 0.30895 0.31469 0.33633 0.0
O345 O 0.29335 0.30097 0.32154 0.0
O346 O 0.32133 0.29665 0.29647 0.0
O347 O 0.33685 0.31083 0.31093 0.0
H348 H 0.32255 0.29054 0.34851 0.0
H349 H 0.32194 0.27105 0.36819 0.0
H350 H 0.27236 0.27044 0.36684 0.0
H351 H 0.27307 0.29006 0.34753 0.0
H352 H 0.25202 0.35615 0.30326 0.0
H353 H 0.27136 0.33624 0.3037 0.0
H354 H 0.2876 0.38993 0.29433 0.0
H355 H 0.30681 0.37007 0.29501 0.0
H356 H 0.36836 0.32384 0.26547 0.0
H357 H 0.36862 0.27456 0.26796 0.0
H358 H 0.34873 0.27549 0.28741 0.0
H359 H 0.3485 0.32465 0.28535 0.0
C360 C 0.47528 0.94475 0.51425 0.0
C361 C 0.48417 0.93404 0.52179 0.0
C362 C 0.48592 0.91837 0.4983 0.0
C363 C 0.48941 0.92096 0.5139 0.0
C364 C 0.47705 0.92923 0.49088 0.0
C365 C 0.47183 0.94222 0.49875 0.0
U366 U 0.47427 0.97651 0.54626 0.0
O367 O 0.46981 1.00108 0.54377 0.0
O368 O 0.45408 0.98684 0.55714 0.0
C369 C 0.45686 1.00037 0.55139 0.0
C370 C 0.46912 0.95847 0.52215 0.0
C371 C 0.44366 0.00867 0.54502 0.0
C372 C 0.41704 0.0098 0.53631 0.0
C373 C 0.4297 1.00128 0.54085 0.0
C374 C 0.43216 0.03316 0.53969 0.0
C375 C 0.41801 0.02591 0.53591 0.0
C376 C 0.44476 0.02467 0.54419 0.0
C377 C 0.50529 0.97704 0.5788 0.0
C378 C 0.50577 0.98437 0.60588 0.0
C379 C 0.52957 0.98284 0.59187 0.0
C380 C 0.52136 0.97858 0.57862 0.0
C381 C 0.52194 0.98567 0.60576 0.0
C382 C 0.49753 0.9801 0.59257 0.0
C383 C 0.49726 0.97101 0.56483 0.0
O384 O 0.46252 0.95644 0.53544 0.0
O385 O 0.47771 0.97099 0.52183 0.0
O386 O 0.49879 0.97907 0.55246 0.0
O387 O 0.48336 0.96506 0.56639 0.0
H388 H 0.48701 0.93576 0.53375 0.0
H389 H 0.49631 0.91296 0.51998 0.0
H390 H 0.47387 0.92757 0.47899 0.0
H391 H 0.46492 0.95027 0.49271 0.0
H392 H 0.40635 1.00379 0.53358 0.0
H393 H 0.42845 0.98896 0.54141 0.0
H394 H 0.4335 0.04548 0.53926 0.0
H395 H 0.45535 0.03068 0.54736 0.0
H396 H 0.49945 0.98662 0.61628 0.0
H397 H 0.54198 0.98346 0.5913 0.0
H398 H 0.52765 0.9761 0.56823 0.0
H399 H 0.48515 0.97899 0.59312 0.0
C400 C 0.20903 0.27867 0.68136 0.0
C401 C 0.22436 0.27803 0.67647 0.0
C402 C 0.21682 0.26117 0.65488 0.0
C403 C 0.22822 0.26934 0.66339 0.0
C404 C 0.20148 0.26206 0.65978 0.0
C405 C 0.19766 0.27068 0.67284 0.0
U406 U 0.21281 0.31126 0.71225 0.0
O407 O 0.19445 0.32377 0.72401 0.0
O408 O 0.21003 0.30982 0.73722 0.0
C409 C 0.19768 0.31818 0.7374 0.0
C410 C 0.20455 0.28696 0.69557 0.0
C411 C 0.18459 0.31261 0.74674 0.0
C412 C 0.15784 0.30428 0.74965 0.0
C413 C 0.17028 0.30833 0.74029 0.0
C414 C 0.17386 0.30842 0.772 0.0
C415 C 0.15943 0.30437 0.76567 0.0
C416 C 0.18624 0.3125 0.76267 0.0
C417 C 0.24539 0.34224 0.70812 0.0
C418 C 0.25195 0.3633 0.72587 0.0
C419 C 0.26639 0.36003 0.70251 0.0
C420 C 0.25721 0.34723 0.6985 0.0
C421 C 0.264 0.36822 0.7163 0.0
C422 C 0.24275 0.3504 0.72183 0.0
C423 C 0.2363 0.3284 0.70353 0.0
O424 O 0.21413 0.28655 0.70716 0.0
O425 O 0.19853 0.30046 0.69394 0.0
O426 O 0.22211 0.33048 0.69905 0.0
O427 O 0.23767 0.31641 0.71214 0.0
H428 H 0.23336 0.28412 0.68283 0.0
H429 H 0.24012 0.2691 0.65989 0.0
H430 H 0.19241 0.25578 0.65372 0.0
H431 H 0.18578 0.27092 0.67643 0.0
H432 H 0.14698 0.30105 0.74433 0.0
H433 H 0.16864 0.30829 0.72804 0.0
H434 H 0.17553 0.30885 0.78425 0.0
H435 H 0.1971 0.31588 0.76794 0.0
H436 H 0.24984 0.36924 0.73662 0.0
H437 H 0.27533 0.36358 0.69472 0.0
H438 H 0.2594 0.34114 0.68784 0.0
H439 H 0.23369 0.34673 0.72944 0.0
C440 C 0.79944 0.23423 0.67675 0.0
C441 C 0.8016 0.24976 0.68094 0.0
C442 C 0.79866 0.25719 0.65435 0.0
C443 C 0.8012 0.2611 0.66987 0.0
C444 C 0.79683 0.24159 0.65021 0.0
C445 C 0.79719 0.2303 0.66126 0.0
U446 U 0.81259 0.21226 0.71256 0.0
O447 O 0.79834 0.20206 0.73057 0.0
O448 O 0.81245 0.18736 0.71594 0.0
C449 C 0.80239 0.18803 0.72706 0.0
C450 C 0.79835 0.222 0.68821 0.0
C451 C 0.79014 0.17605 0.72707 0.0
C452 C 0.76724 0.16321 0.71643 0.0
C453 C 0.77865 0.17483 0.7158 0.0
C454 C 0.77875 0.15399 0.73951 0.0
C455 C 0.7671 0.15267 0.72837 0.0
C456 C 0.79008 0.16553 0.73885 0.0
C457 C 0.8489 0.22561 0.73573 0.0
C458 C 0.85974 0.23612 0.7596 0.0
C459 C 0.87273 0.2158 0.74607 0.0
C460 C 0.86125 0.21552 0.7348 0.0
C461 C 0.87226 0.22625 0.75854 0.0
C462 C 0.84828 0.23584 0.74834 0.0
C463 C 0.83752 0.22661 0.72306 0.0
O464 O 0.80892 0.21151 0.6876 0.0
O465 O 0.79472 0.22613 0.70224 0.0
O466 O 0.82353 0.23059 0.72681 0.0
O467 O 0.8377 0.21589 0.71227 0.0
H468 H 0.80338 0.25318 0.69278 0.0
H469 H 0.80286 0.27295 0.67349 0.0
H470 H 0.79464 0.23809 0.63846 0.0
H471 H 0.79536 0.21843 0.65773 0.0
H472 H 0.75841 0.16262 0.70771 0.0
H473 H 0.77849 0.18286 0.70659 0.0
H474 H 0.77927 0.14597 0.74869 0.0
H475 H 0.79889 0.1662 0.74761 0.0
H476 H 0.85882 0.24417 0.76912 0.0
H477 H 0.88226 0.20815 0.74471 0.0
H478 H 0.86228 0.20761 0.72517 0.0
H479 H 0.83905 0.2439 0.74937 0.0
C480 C 0.52088 0.55247 0.58294 0.0
C481 C 0.52745 0.54271 0.59351 0.0
C482 C 0.50421 0.54352 0.60919 0.0
C483 C 0.51918 0.53825 0.6065 0.0
C484 C 0.49767 0.55308 0.59836 0.0
C485 C 0.50591 0.55748 0.58544 0.0
U486 U 0.55341 0.55237 0.55224 0.0
O487 O 0.55146 0.5578 0.52792 0.0
O488 O 0.56594 0.57235 0.54307 0.0
C489 C 0.56005 0.57032 0.52933 0.0
C490 C 0.52938 0.55815 0.56951 0.0
C491 C 0.5547 0.58418 0.5216 0.0
C492 C 0.53485 0.59891 0.50933 0.0
C493 C 0.5392 0.58629 0.51785 0.0
C494 C 0.56135 0.60767 0.50845 0.0
C495 C 0.54591 0.60968 0.50431 0.0
C496 C 0.56566 0.59509 0.51694 0.0
C497 C 0.58498 0.52123 0.55223 0.0
C498 C 0.59897 0.50683 0.53271 0.0
C499 C 0.60964 0.51 0.5581 0.0
C500 C 0.5969 0.51851 0.56256 0.0
C501 C 0.61081 0.50386 0.54316 0.0
C502 C 0.58622 0.5154 0.53718 0.0
C503 C 0.57095 0.52896 0.55787 0.0
O504 O 0.54312 0.56419 0.57206 0.0
O505 O 0.52864 0.54959 0.55698 0.0
O506 O 0.55858 0.52794 0.54924 0.0
O507 O 0.57293 0.54254 0.56445 0.0
H508 H 0.53902 0.53871 0.59183 0.0
H509 H 0.52464 0.53096 0.6146 0.0
H510 H 0.48611 0.55715 0.59983 0.0
H511 H 0.50058 0.56498 0.57742 0.0
H512 H 0.52287 0.59998 0.50631 0.0
H513 H 0.53047 0.57805 0.52125 0.0
H514 H 0.57017 0.61581 0.50509 0.0
H515 H 0.57769 0.59375 0.51965 0.0
H516 H 0.59953 0.50249 0.52106 0.0
H517 H 0.61836 0.50782 0.56655 0.0
H518 H 0.59619 0.52269 0.57428 0.0
H519 H 0.57724 0.51724 0.52891 0.0
C520 C 0.51776 0.4746 0.94351 0.0
C521 C 0.52559 0.47755 0.92984 0.0
C522 C 0.50167 0.48485 0.91753 0.0
C523 C 0.51763 0.48259 0.91701 0.0
C524 C 0.49396 0.48217 0.93134 0.0
C525 C 0.5019 0.47707 0.94412 0.0
U526 U 0.54956 0.47338 0.97475 0.0
O527 O 0.54733 0.46744 0.99894 0.0
O528 O 0.56156 0.45348 0.98369 0.0
C529 C 0.55574 0.4552 0.99742 0.0
C530 C 0.52553 0.468 0.95692 0.0
C531 C 0.55037 0.44112 1.00513 0.0
C532 C 0.53057 0.42555 0.01746 0.0
C533 C 0.53487 0.43828 0.00879 0.0
C534 C 0.55711 0.41815 0.01864 0.0
C535 C 0.54169 0.41545 0.02273 0.0
C536 C 0.56136 0.4308 0.00998 0.0
C537 C 0.5814 0.50576 0.97505 0.0
C538 C 0.60453 0.50823 0.99076 0.0
C539 C 0.59819 0.52829 0.97347 0.0
C540 C 0.58501 0.52 0.96883 0.0
C541 C 0.60816 0.5226 0.98454 0.0
C542 C 0.59125 0.49989 0.98608 0.0
C543 C 0.56744 0.4974 0.96949 0.0
O544 O 0.53897 0.46181 0.95462 0.0
O545 O 0.52486 0.47587 0.96986 0.0
O546 O 0.55528 0.49791 0.97831 0.0
O547 O 0.56937 0.48386 0.96304 0.0
H548 H 0.53782 0.47579 0.92896 0.0
H549 H 0.52401 0.48472 0.90666 0.0
H550 H 0.48167 0.48356 0.93217 0.0
H551 H 0.49554 0.47476 0.95444 0.0
H552 H 0.5186 0.42391 0.02043 0.0
H553 H 0.52612 0.44606 1.00525 0.0
H554 H 0.56597 0.41052 0.0222 0.0
H555 H 0.57339 0.43271 1.00734 0.0
H556 H 0.61185 0.5035 0.99937 0.0
H557 H 0.60069 0.53911 0.96815 0.0
H558 H 0.57764 0.5247 0.96024 0.0
H559 H 0.58869 0.48891 0.99103 0.0
C560 C 0.709 0.24434 0.34226 0.0
C561 C 0.72203 0.24109 0.35097 0.0
C562 C 0.71639 0.26215 0.3689 0.0
C563 C 0.72571 0.24994 0.36415 0.0
C564 C 0.70342 0.26533 0.36 0.0
C565 C 0.69979 0.25653 0.34689 0.0
U566 U 0.71316 0.21188 0.31122 0.0
O567 O 0.69462 0.19783 0.30031 0.0
O568 O 0.70873 0.21328 0.28656 0.0
C569 C 0.69678 0.20385 0.28687 0.0
C570 C 0.70459 0.23537 0.32834 0.0
C571 C 0.68282 0.20842 0.27855 0.0
C572 C 0.66595 0.22768 0.26844 0.0
C573 C 0.67878 0.2238 0.27718 0.0
C574 C 0.66086 0.20088 0.26256 0.0
C575 C 0.65683 0.21626 0.26094 0.0
C576 C 0.67367 0.19704 0.27123 0.0
C577 C 0.74712 0.18346 0.31297 0.0
C578 C 0.74985 0.15666 0.30516 0.0
C579 C 0.77249 0.17274 0.30929 0.0
C580 C 0.76318 0.18513 0.31302 0.0
C581 C 0.766 0.15827 0.30543 0.0
C582 C 0.74052 0.16911 0.30887 0.0
C583 C 0.7378 0.19657 0.31831 0.0
O584 O 0.71369 0.23667 0.3165 0.0
O585 O 0.69957 0.22128 0.3303 0.0
O586 O 0.72404 0.19345 0.32372 0.0
O587 O 0.73823 0.20884 0.30996 0.0
H588 H 0.7293 0.23171 0.3476 0.0
H589 H 0.73571 0.24706 0.37075 0.0
H590 H 0.69612 0.27478 0.36305 0.0
H591 H 0.68973 0.25929 0.3403 0.0
H592 H 0.66313 0.23962 0.26763 0.0
H593 H 0.68561 0.23283 0.28274 0.0
H594 H 0.65432 0.19176 0.25681 0.0
H595 H 0.67659 0.1851 0.27203 0.0
H596 H 0.7444 0.14577 0.30206 0.0
H597 H 0.78483 0.17444 0.30987 0.0
H598 H 0.76858 0.19601 0.31629 0.0
H599 H 0.72816 0.16744 0.30873 0.0
C600 C 0.47685 0.08175 1.00545 0.0
C601 C 0.49153 0.08819 1.00298 0.0
C602 C 0.48636 0.10912 0.02125 0.0
C603 C 0.49625 0.10174 0.01083 0.0
C604 C 0.47168 0.10254 0.02358 0.0
C605 C 0.46701 0.08908 0.01577 0.0
U606 U 0.47686 0.04879 0.97436 0.0
O607 O 0.47208 0.02417 0.97773 0.0
O608 O 0.45674 0.03736 0.96349 0.0
C609 C 0.45913 0.02423 0.97 0.0
C610 C 0.47146 0.06728 0.99787 0.0
C611 C 0.44562 0.01632 0.9769 0.0
C612 C 0.41876 0.01564 0.98483 0.0
C613 C 0.43175 0.02381 0.97971 0.0
C614 C 0.43335 0.99245 0.98483 0.0
C615 C 0.41933 0.9998 0.98731 0.0
C616 C 0.44629 1.0006 0.97966 0.0
C617 C 0.50678 0.04919 0.94114 0.0
C618 C 0.51692 0.02865 0.92497 0.0
C619 C 0.52033 0.05497 0.91761 0.0
C620 C 0.51246 0.0598 0.9307 0.0
C621 C 0.52277 0.03933 0.91454 0.0
C622 C 0.50899 0.03352 0.93812 0.0
C623 C 0.49941 0.055 0.95533 0.0
O624 O 0.46471 0.0684 0.98454 0.0
O625 O 0.48057 0.05553 0.99851 0.0
O626 O 0.50115 0.04705 0.96774 0.0
O627 O 0.48555 0.06043 0.95395 0.0
H628 H 0.49933 0.08274 0.99505 0.0
H629 H 0.50757 0.1065 0.00861 0.0
H630 H 0.46382 0.10764 0.03168 0.0
H631 H 0.45567 0.08427 0.01794 0.0
H632 H 0.40825 0.02175 0.9868 0.0
H633 H 0.43082 0.03592 0.97772 0.0
H634 H 0.43422 0.98026 0.98641 0.0
H635 H 0.45677 0.9945 0.97746 0.0
H636 H 0.5184 0.01652 0.92295 0.0
H637 H 0.52484 0.06359 0.91007 0.0
H638 H 0.51103 0.07194 0.93283 0.0
H639 H 0.50473 0.02507 0.94597 0.0
Mn640 Mn 0.26157 0.88073 0.01501 0.0
Mn641 Mn 0.26055 0.89563 0.9798 0.0
C642 C 0.25046 0.86684 0.99451 0.0
C643 C 0.27267 0.86627 0.03435 0.0
C644 C 0.23946 0.90588 1.00541 0.0
O645 O 0.27844 0.89768 0.01629 0.0
O646 O 0.27698 0.90609 0.99219 0.0
C647 C 0.29067 0.88537 0.96838 0.0
N648 N 0.27513 0.88576 0.96687 0.0
C649 C 0.27591 0.87143 0.94311 0.0
C650 C 0.29194 0.87092 0.94438 0.0
C651 C 0.29934 0.87787 0.9571 0.0
C652 C 0.26788 0.87899 0.95475 0.0
H653 H 0.29641 0.89074 0.97812 0.0
C654 C 0.28299 0.90641 1.00557 0.0
O655 O 0.26282 0.87681 0.03733 0.0
O656 O 0.27666 0.86454 0.02015 0.0
N657 N 0.24528 0.88642 0.96658 0.0
C658 C 0.2297 0.88724 0.96749 0.0
C659 C 0.22055 0.88045 0.95587 0.0
C660 C 0.2275 0.87306 0.94336 0.0
C661 C 0.24355 0.8725 0.94261 0.0
C662 C 0.25208 0.87942 0.95456 0.0
H663 H 0.2243 0.89299 0.97703 0.0
O664 O 0.24644 0.86403 0.00843 0.0
O665 O 0.26055 0.87783 0.99301 0.0
O666 O 0.24454 0.89675 0.01527 0.0
O667 O 0.24482 0.90649 0.9919 0.0
C668 C 0.25141 0.86526 0.93054 0.0
C669 C 0.26758 0.86462 0.93082 0.0
H670 H 0.29866 0.86516 0.93569 0.0
H671 H 0.3117 0.87748 0.95818 0.0
H672 H 0.20817 0.88093 0.95653 0.0
H673 H 0.2204 0.86781 0.93442 0.0
H674 H 0.24511 0.85997 0.92108 0.0
H675 H 0.27346 0.85876 0.9216 0.0
Mn676 Mn 0.14328 0.51265 0.26005 0.0
Mn677 Mn 0.12554 0.54661 0.26127 0.0
C678 C 0.15549 0.53474 0.25073 0.0
C679 C 0.15901 0.49355 0.26985 0.0
C680 C 0.11739 0.52155 0.23801 0.0
O681 O 0.12659 0.50925 0.27637 0.0
O682 O 0.11584 0.53245 0.27593 0.0
C683 C 0.13405 0.55682 0.29268 0.0
N684 N 0.13398 0.55925 0.27739 0.0
C685 C 0.14405 0.58485 0.28121 0.0
C686 C 0.14421 0.58268 0.297 0.0
C687 C 0.13936 0.56853 0.30274 0.0
C688 C 0.13913 0.57262 0.27171 0.0
H689 H 0.12994 0.5461 0.29717 0.0
C690 C 0.11673 0.51893 0.2811 0.0
O691 O 0.14861 0.49059 0.25955 0.0
O692 O 0.16006 0.50764 0.27489 0.0
N693 N 0.13372 0.56158 0.24783 0.0
C694 C 0.13294 0.5618 0.23231 0.0
C695 C 0.13799 0.57493 0.22472 0.0
C696 C 0.14331 0.58784 0.23318 0.0
C697 C 0.14368 0.58743 0.24916 0.0
C698 C 0.13897 0.57387 0.25607 0.0
H699 H 0.12851 0.55204 0.22577 0.0
O700 O 0.15932 0.52121 0.24584 0.0
O701 O 0.14457 0.53497 0.26078 0.0
O702 O 0.12703 0.51202 0.24283 0.0
O703 O 0.11595 0.53482 0.2441 0.0
C704 C 0.14809 0.60008 0.25852 0.0
C705 C 0.1482 0.5988 0.27454 0.0
H706 H 0.14801 0.59179 0.3048 0.0
H707 H 0.13948 0.56676 0.31491 0.0
H708 H 0.13756 0.57519 0.21239 0.0
H709 H 0.14693 0.59805 0.22731 0.0
H710 H 0.15118 0.6109 0.25351 0.0
H711 H 0.15123 0.60867 0.28169 0.0
Mn712 Mn 0.76572 0.63428 0.01043 0.0
Mn713 Mn 0.73376 0.64809 0.99435 0.0
C714 C 0.74243 0.6203 0.01122 0.0
C715 C 0.78862 0.62035 0.00975 0.0
C716 C 0.74759 0.6608 0.02411 0.0
O717 O 0.77408 0.65096 0.99604 0.0
O718 O 0.75211 0.65638 0.98365 0.0
C719 C 0.73519 0.63312 0.96372 0.0
N720 N 0.72742 0.63603 0.97689 0.0
C721 C 0.70513 0.62198 0.96753 0.0
C722 C 0.71279 0.61906 0.95375 0.0
C723 C 0.72794 0.62455 0.95189 0.0
C724 C 0.71299 0.63049 0.97893 0.0
H725 H 0.74683 0.63724 0.96232 0.0
C726 C 0.7667 0.65764 0.98549 0.0
O727 O 0.78632 0.63124 0.0197 0.0
O728 O 0.77782 0.61787 0.99966 0.0
N729 N 0.7152 0.64079 1.00358 0.0
C730 C 0.70984 0.64364 0.01795 0.0
C731 C 0.69515 0.63822 0.02197 0.0
C732 C 0.68604 0.63011 0.01113 0.0
C733 C 0.69174 0.62744 0.99639 0.0
C734 C 0.7065 0.63305 0.99306 0.0
H735 H 0.7167 0.65 0.02629 0.0
O736 O 0.75328 0.61785 0.02097 0.0
O737 O 0.74556 0.63075 1.00138 0.0
O738 O 0.75777 0.65069 0.02533 0.0
O739 O 0.73875 0.66139 0.0125 0.0
C740 C 0.6834 0.61936 0.98489 0.0
C741 C 0.69009 0.61659 0.97047 0.0
H742 H 0.70723 0.61247 0.9446 0.0
H743 H 0.73399 0.6222 0.94136 0.0
H744 H 0.69083 0.64035 0.03337 0.0
H745 H 0.67471 0.62594 0.01427 0.0
H746 H 0.67191 0.61503 0.98712 0.0
H747 H 0.68366 0.6101 0.96183 0.0
Mn748 Mn 0.88319 0.0141 0.26183 0.0
Mn749 Mn 0.89566 0.9778 0.25856 0.0
C750 C 0.868 0.99491 0.24985 0.0
C751 C 0.86972 0.03413 0.27382 0.0
C752 C 0.9079 1.00352 0.239 0.0
O753 O 0.90007 0.01365 0.27846 0.0
O754 O 0.9066 0.98893 0.27553 0.0
C755 C 0.88414 0.96601 0.28787 0.0
N756 N 0.88469 0.965 0.27236 0.0
C757 C 0.86831 0.94246 0.27188 0.0
C758 C 0.86763 0.94322 0.28785 0.0
C759 C 0.87555 0.95507 0.29588 0.0
C760 C 0.87708 0.95367 0.26452 0.0
H761 H 0.89019 0.97511 0.29409 0.0
C762 C 0.90785 1.00206 0.28235 0.0
O763 O 0.88072 0.03667 0.26422 0.0
O764 O 0.86709 0.01993 0.27719 0.0
N765 N 0.88578 0.96573 0.24272 0.0
C766 C 0.88692 0.96711 0.22731 0.0
C767 C 0.87939 0.95633 0.21761 0.0
C768 C 0.87085 0.9442 0.22384 0.0
C769 C 0.86987 0.94299 0.23972 0.0
C770 C 0.87773 0.954 0.24882 0.0
H771 H 0.89349 0.97639 0.22245 0.0
O772 O 0.86623 0.00917 0.24664 0.0
O773 O 0.87879 0.9923 0.2596 0.0
O774 O 0.89939 0.01382 0.24478 0.0
O775 O 0.90758 0.98975 0.24351 0.0
C776 C 0.86123 0.93142 0.24689 0.0
C777 C 0.86041 0.93118 0.26295 0.0
H778 H 0.86097 0.93484 0.29407 0.0
H779 H 0.87503 0.95577 0.30821 0.0
H780 H 0.88016 0.95737 0.20536 0.0
H781 H 0.86504 0.93593 0.21631 0.0
H782 H 0.85499 0.92277 0.24015 0.0
H783 H 0.85353 0.92237 0.26832 0.0
Mn784 Mn 0.26486 0.13569 0.50883 0.0
Mn785 Mn 0.23177 0.14892 0.49428 0.0
C786 C 0.24206 0.1211 0.51002 0.0
C787 C 0.28796 0.12209 0.50766 0.0
C788 C 0.24535 0.16067 0.52434 0.0
O789 O 0.27259 0.15243 0.49431 0.0
O790 O 0.24969 0.15983 0.48529 0.0
C791 C 0.23542 0.13761 0.46241 0.0
N792 N 0.22705 0.13827 0.47549 0.0
C793 C 0.2068 0.12259 0.46417 0.0
C794 C 0.21517 0.12181 0.45054 0.0
C795 C 0.22956 0.12932 0.44968 0.0
C796 C 0.21323 0.13101 0.47647 0.0
H797 H 0.24649 0.14336 0.46171 0.0
C798 C 0.26439 0.16077 0.4858 0.0
O799 O 0.28576 0.133 0.51762 0.0
O800 O 0.27698 0.11946 0.49781 0.0
N801 N 0.21342 0.13941 0.50186 0.0
C802 C 0.2071 0.1408 0.51602 0.0
C803 C 0.19271 0.1339 0.51883 0.0
C804 C 0.18494 0.12573 0.50706 0.0
C805 C 0.19166 0.12447 0.49258 0.0
C806 C 0.20594 0.13176 0.4904 0.0
H807 H 0.21296 0.14716 0.52509 0.0
O808 O 0.25314 0.11905 0.51964 0.0
O809 O 0.24453 0.13173 0.50017 0.0
O810 O 0.25697 0.15205 0.52403 0.0
O811 O 0.23527 0.16045 0.51374 0.0
C812 C 0.18484 0.11615 0.48027 0.0
C813 C 0.19244 0.11515 0.4661 0.0
H814 H 0.21071 0.11539 0.44071 0.0
H815 H 0.23611 0.12871 0.43922 0.0
H816 H 0.18761 0.1349 0.53004 0.0
H817 H 0.17383 0.12047 0.50927 0.0
H818 H 0.17385 0.11031 0.48165 0.0
H819 H 0.18718 0.10854 0.45678 0.0
Mn820 Mn 0.38475 0.51421 0.76203 0.0
Mn821 Mn 0.39943 0.47873 0.76037 0.0
C822 C 0.37071 0.49367 0.75097 0.0
C823 C 0.37029 0.53404 0.7731 0.0
C824 C 0.40994 0.504 0.73948 0.0
O825 O 0.40155 0.5155 0.7787 0.0
O826 O 0.4101 0.49136 0.77649 0.0
C827 C 0.3893 0.46795 0.79057 0.0
N828 N 0.38958 0.46612 0.7751 0.0
C829 C 0.37528 0.44232 0.77621 0.0
C830 C 0.37489 0.4439 0.79215 0.0
C831 C 0.38187 0.45681 0.79936 0.0
C832 C 0.38278 0.45383 0.76805 0.0
H833 H 0.39471 0.47781 0.79616 0.0
C834 C 0.41038 0.50477 0.78277 0.0
O835 O 0.3811 0.53663 0.76332 0.0
O836 O 0.36833 0.51992 0.77712 0.0
N837 N 0.39 0.46525 0.7454 0.0
C838 C 0.39062 0.4659 0.7299 0.0
C839 C 0.38372 0.4541 0.72096 0.0
C840 C 0.37645 0.44167 0.72803 0.0
C841 C 0.37609 0.44119 0.744 0.0
C842 C 0.38307 0.45333 0.75232 0.0
H843 H 0.39629 0.47538 0.7244 0.0
O844 O 0.36814 0.5076 0.74706 0.0
O845 O 0.38163 0.49214 0.76089 0.0
O846 O 0.40103 0.51408 0.74501 0.0
O847 O 0.41029 0.49043 0.74446 0.0
C848 C 0.36898 0.42921 0.75199 0.0
C849 C 0.36845 0.42983 0.76807 0.0
H850 H 0.36919 0.43533 0.79897 0.0
H851 H 0.38157 0.45814 0.81166 0.0
H852 H 0.38403 0.45456 0.70864 0.0
H853 H 0.37112 0.43259 0.7211 0.0
H854 H 0.36369 0.41958 0.74585 0.0
H855 H 0.36266 0.42068 0.77406 0.0
Mn856 Mn 0.76028 0.38047 0.51655 0.0
Mn857 Mn 0.75942 0.3942 0.4808 0.0
C858 C 0.74914 0.36599 0.49652 0.0
C859 C 0.77118 0.36655 0.5364 0.0
C860 C 0.73819 0.40527 0.50595 0.0
O861 O 0.77723 0.39733 0.51736 0.0
O862 O 0.77561 0.40519 0.49307 0.0
C863 C 0.78978 0.38371 0.47026 0.0
N864 N 0.77425 0.38397 0.46844 0.0
C865 C 0.77546 0.36831 0.44553 0.0
C866 C 0.79146 0.36793 0.44711 0.0
C867 C 0.79864 0.37564 0.45955 0.0
C868 C 0.76723 0.37657 0.45654 0.0
H869 H 0.79534 0.38959 0.47981 0.0
C870 C 0.78165 0.40586 0.50644 0.0
O871 O 0.76142 0.37726 0.53901 0.0
O872 O 0.77523 0.36437 0.52227 0.0
N873 N 0.7444 0.38447 0.46762 0.0
C874 C 0.72882 0.38537 0.46815 0.0
C875 C 0.71988 0.37809 0.45664 0.0
C876 C 0.72705 0.37005 0.44467 0.0
C877 C 0.7431 0.36932 0.44434 0.0
C878 C 0.75142 0.37693 0.45604 0.0
H879 H 0.72324 0.39157 0.4773 0.0
O880 O 0.74506 0.3637 0.51053 0.0
O881 O 0.75931 0.37685 0.49464 0.0
O882 O 0.74339 0.39663 0.51619 0.0
O883 O 0.74345 0.40529 0.49236 0.0
C884 C 0.75117 0.36116 0.43298 0.0
C885 C 0.76733 0.36061 0.43361 0.0
H886 H 0.79834 0.36167 0.43891 0.0
H887 H 0.81099 0.37535 0.46088 0.0
H888 H 0.70749 0.37867 0.45699 0.0
H889 H 0.72011 0.36444 0.43582 0.0
H890 H 0.74504 0.35508 0.42384 0.0
H891 H 0.77339 0.35412 0.42493 0.0
Mn892 Mn 0.64301 0.00887 0.76081 0.0
Mn893 Mn 0.62955 0.04485 0.75984 0.0
C894 C 0.65757 0.02851 0.74992 0.0
C895 C 0.65699 0.98919 0.7719 0.0
C896 C 0.61797 0.01918 0.73854 0.0
O897 O 0.62622 0.00865 0.77737 0.0
O898 O 0.61871 0.03311 0.77588 0.0
C899 C 0.64073 0.05618 0.79008 0.0
N900 N 0.64018 0.05756 0.77465 0.0
C901 C 0.65613 0.08039 0.77594 0.0
C902 C 0.6568 0.07926 0.79185 0.0
C903 C 0.6491 0.06708 0.79894 0.0
C904 C 0.64758 0.06921 0.7677 0.0
H905 H 0.63486 0.04682 0.79557 0.0
C906 C 0.6179 0.01984 0.78179 0.0
O907 O 0.64613 0.98635 0.76202 0.0
O908 O 0.65927 1.00345 0.77593 0.0
N909 N 0.63917 0.05751 0.74497 0.0
C910 C 0.63803 0.05651 0.72947 0.0
C911 C 0.64535 0.06766 0.72062 0.0
C912 C 0.65367 0.07977 0.7278 0.0
C913 C 0.65461 0.08061 0.74376 0.0
C914 C 0.64696 0.06925 0.75199 0.0
H915 H 0.63164 0.04724 0.72389 0.0
O916 O 0.65974 0.01434 0.74593 0.0
O917 O 0.64681 0.03077 0.75989 0.0
O918 O 0.62666 0.00895 0.74374 0.0
O919 O 0.61805 0.0329 0.74388 0.0
C920 C 0.66306 0.09214 0.75183 0.0
C921 C 0.66385 0.092 0.7679 0.0
H922 H 0.6633 0.0876 0.79872 0.0
H923 H 0.64962 0.06609 0.81121 0.0
H924 H 0.6446 0.06692 0.70831 0.0
H925 H 0.65935 0.08832 0.72093 0.0
H926 H 0.66917 0.10103 0.74577 0.0
H927 H 0.67057 0.10079 0.77396 0.0
Mn928 Mn 0.01517 0.25721 0.88335 0.0
Mn929 Mn 0.97892 0.25479 0.89698 0.0
C930 C 0.99548 0.24571 0.86866 0.0
C931 C 0.03526 0.26898 0.86966 0.0
C932 C 1.00448 0.23461 0.90783 0.0
O933 O 0.01528 0.27386 0.90051 0.0
O934 O 0.99054 0.27154 0.90791 0.0
C935 C 0.96751 0.28444 0.8866 0.0
N936 N 0.96624 0.2689 0.88677 0.0
C937 C 0.94361 0.26889 0.87096 0.0
C938 C 0.94464 0.28491 0.87068 0.0
C939 C 0.95666 0.2927 0.87851 0.0
C940 C 0.95473 0.26128 0.87926 0.0
H941 H 0.97675 0.29048 0.89257 0.0
C942 C 1.00389 0.278 0.9088 0.0
O943 O 0.0378 0.25919 0.88018 0.0
O944 O 0.02103 0.27261 0.8676 0.0
N945 N 0.96644 0.23915 0.88712 0.0
C946 C 0.96761 0.22367 0.88778 0.0
C947 C 0.95669 0.21417 0.88019 0.0
C948 C 0.94465 0.22067 0.87206 0.0
C949 C 0.94365 0.23663 0.87161 0.0
C950 C 0.95479 0.24552 0.8795 0.0
H951 H 0.97683 0.2186 0.89401 0.0
O952 O 0.00967 0.24217 0.86628 0.0
O953 O 0.99325 0.25551 0.87975 0.0
O954 O 0.01476 0.24005 0.89903 0.0
O955 O 0.99077 0.23949 0.90814 0.0
C956 C 0.93217 0.24407 0.86344 0.0
C957 C 0.93218 0.26018 0.86308 0.0
H958 H 0.93635 0.29132 0.86439 0.0
H959 H 0.95758 0.30506 0.87829 0.0
H960 H 0.95756 0.20186 0.88056 0.0
H961 H 0.93632 0.21331 0.86613 0.0
H962 H 0.92341 0.2375 0.85721 0.0
H963 H 0.92344 0.26576 0.85655 0.0
Mn964 Mn 0.5128 0.75875 0.38382 0.0
Mn965 Mn 0.47954 0.75931 0.40352 0.0
C966 C 0.49003 0.74859 0.37286 0.0
C967 C 0.53162 0.76873 0.36724 0.0
C968 C 0.50472 0.73705 0.41006 0.0
O969 O 0.51702 0.77567 0.40021 0.0
O970 O 0.49417 0.77488 0.4123 0.0
C971 C 0.46897 0.79011 0.39581 0.0
N972 N 0.46651 0.77468 0.39605 0.0
C973 C 0.4403 0.77711 0.38807 0.0
C974 C 0.4425 0.79303 0.38776 0.0
C975 C 0.45696 0.79955 0.39149 0.0
C976 C 0.4528 0.76827 0.39203 0.0
H977 H 0.47995 0.79518 0.39906 0.0
C978 C 0.50774 0.78046 0.41052 0.0
O979 O 0.5347 0.7587 0.37735 0.0
O980 O 0.51756 0.7734 0.36694 0.0
N981 N 0.46423 0.74496 0.39624 0.0
C982 C 0.46422 0.72939 0.39648 0.0
C983 C 0.45082 0.72106 0.39235 0.0
C984 C 0.43748 0.72883 0.38848 0.0
C985 C 0.43778 0.74487 0.38846 0.0
C986 C 0.45158 0.75253 0.39217 0.0
H987 H 0.47433 0.72339 0.39984 0.0
O988 O 0.50336 0.74392 0.36833 0.0
O989 O 0.4904 0.75885 0.38384 0.0
O990 O 0.51384 0.74184 0.39979 0.0
O991 O 0.49164 0.74286 0.41238 0.0
C992 C 0.42484 0.75356 0.38528 0.0
C993 C 0.4261 0.76967 0.38498 0.0
H994 H 0.43318 0.80036 0.3847 0.0
H995 H 0.45876 0.81182 0.39129 0.0
H996 H 0.45069 0.70868 0.39243 0.0
H997 H 0.42707 0.72238 0.38558 0.0
H998 H 0.41382 0.74793 0.38336 0.0
H999 H 0.41606 0.77628 0.38263 0.0
Mn1000 Mn 0.01502 0.76243 0.63351 0.0
Mn1001 Mn 0.99894 0.73048 0.64822 0.0
C1002 C 0.01624 0.73897 0.61986 0.0
C1003 C 0.01421 0.78493 0.61917 0.0
C1004 C 0.02895 0.74504 0.65992 0.0
O1005 O 1.00036 0.7709 0.65014 0.0
O1006 O 0.9885 0.74877 0.65651 0.0
C1007 C 0.96805 0.73155 0.63414 0.0
N1008 N 0.98103 0.72379 0.63712 0.0
C1009 C 0.97071 0.70091 0.62476 0.0
C1010 C 0.9571 0.70858 0.62182 0.0
C1011 C 0.95581 0.724 0.62642 0.0
C1012 C 0.98252 0.70905 0.63245 0.0
H1013 H 0.96712 0.74344 0.6375 0.0
C1014 C 0.98996 0.76337 0.65732 0.0
O1015 O 0.0242 0.78315 0.62992 0.0
O1016 O 1.00421 0.77382 0.61705 0.0
N1017 N 1.00769 0.71175 0.64121 0.0
C1018 C 0.02199 0.70641 0.64393 0.0
C1019 C 0.02524 0.69118 0.64001 0.0
C1020 C 0.01378 0.68161 0.63337 0.0
C1021 C 0.9993 0.68748 0.63026 0.0
C1022 C 0.99662 0.70264 0.63474 0.0
H1023 H 0.03074 0.71361 0.64935 0.0
O1024 O 0.02594 0.75008 0.6173 0.0
O1025 O 1.0061 0.74188 0.63036 0.0
O1026 O 0.02999 0.75528 0.64987 0.0
O1027 O 0.01743 0.73581 0.66072 0.0
C1028 C 0.98742 0.67888 0.62295 0.0
C1029 C 0.97318 0.68564 0.62007 0.0
H1030 H 0.94765 0.7028 0.61584 0.0
H1031 H 0.94542 0.73006 0.62401 0.0
H1032 H 0.03648 0.68675 0.64235 0.0
H1033 H 0.01618 0.66975 0.63077 0.0
H1034 H 0.9892 0.66713 0.61929 0.0
H1035 H 0.96425 0.67902 0.61415 0.0
Mn1036 Mn 0.51498 0.26375 0.13428 0.0
Mn1037 Mn 0.49982 0.23026 0.14649 0.0
C1038 C 0.51713 0.24122 0.11945 0.0
C1039 C 0.51381 0.28684 0.12096 0.0
C1040 C 0.52912 0.24492 0.15969 0.0
O1041 O 0.49956 0.27072 0.15086 0.0
O1042 O 0.48903 0.24766 0.15626 0.0
C1043 C 0.46884 0.23189 0.13271 0.0
N1044 N 0.48218 0.22432 0.13457 0.0
C1045 C 0.47301 0.20321 0.11865 0.0
C1046 C 0.45911 0.21071 0.1167 0.0
C1047 C 0.45705 0.22514 0.12371 0.0
C1048 C 0.48435 0.21051 0.12774 0.0
H1049 H 0.46724 0.243 0.13802 0.0
C1050 C 0.48965 0.26228 0.15776 0.0
O1051 O 0.52355 0.28494 0.13191 0.0
O1052 O 0.50419 0.27554 0.11814 0.0
N1053 N 0.50908 0.21245 0.13777 0.0
C1054 C 0.52346 0.20713 0.14012 0.0
C1055 C 0.5275 0.19294 0.13365 0.0
C1056 C 0.5167 0.18432 0.12494 0.0
C1057 C 0.50197 0.19001 0.1227 0.0
C1058 C 0.49856 0.20416 0.12953 0.0
H1059 H 0.53178 0.21363 0.14691 0.0
O1060 O 0.52668 0.25264 0.11767 0.0
O1061 O 0.50678 0.24329 0.12985 0.0
O1062 O 0.5297 0.25615 0.15068 0.0
O1063 O 0.51815 0.23497 0.15939 0.0
C1064 C 0.49059 0.18227 0.11383 0.0
C1065 C 0.47615 0.18891 0.11173 0.0
H1066 H 0.45 0.20557 0.10973 0.0
H1067 H 0.4464 0.23105 0.12216 0.0
H1068 H 0.5389 0.18863 0.13542 0.0
H1069 H 0.51987 0.17336 0.12 0.0
H1070 H 0.49289 0.1713 0.10839 0.0
H1071 H 0.46759 0.18297 0.10466 0.0
H1072 H 0.21529 0.7931 0.87044 0.0
H1073 H 0.22135 0.80959 0.8926 0.0
H1074 H 0.23431 0.77026 0.91793 0.0
H1075 H 0.22784 0.75355 0.89584 0.0
H1076 H 0.21763 0.78929 0.93562 0.0
H1077 H 0.2621 0.7943 0.90422 0.0
H1078 H 0.27653 0.79881 0.88053 0.0
H1079 H 0.25837 0.84395 0.87841 0.0
H1080 H 0.24361 0.83957 0.90194 0.0
H1081 H 0.27095 0.85247 0.97632 0.0
H1082 H 0.26593 0.83338 0.95598 0.0
H1083 H 0.21724 0.83658 0.96412 0.0
H1084 H 0.22243 0.85523 0.98502 0.0
H1085 H 0.25366 0.83348 0.93043 0.0
H1086 H 0.1979 0.80423 0.95328 0.0
H1087 H 0.18622 0.7978 0.97798 0.0
H1088 H 0.23082 0.79831 0.99895 0.0
H1089 H 0.24278 0.80454 0.97435 0.0
C1090 C 0.21931 0.78789 0.88074 0.0
C1091 C 0.22103 0.77193 0.8813 0.0
C1092 C 0.2229 0.79738 0.8934 0.0
C1093 C 0.22841 0.79123 0.90696 0.0
C1094 C 0.23009 0.77531 0.90762 0.0
C1095 C 0.22652 0.76577 0.89492 0.0
C1096 C 0.23249 0.8015 0.92033 0.0
C1097 C 0.22543 0.79903 0.93447 0.0
C1098 C 0.24298 0.81398 0.91904 0.0
C1099 C 0.25174 0.81661 0.90482 0.0
C1100 C 0.26112 0.80515 0.89865 0.0
C1101 C 0.26935 0.80768 0.88525 0.0
C1102 C 0.26837 0.82166 0.87797 0.0
C1103 C 0.25914 0.83313 0.88407 0.0
C1104 C 0.25086 0.83065 0.89745 0.0
C1105 C 0.25917 0.84907 0.97374 0.0
C1106 C 0.24705 0.85552 0.98202 0.0
C1107 C 0.25629 0.83813 0.96209 0.0
C1108 C 0.24118 0.83332 0.95844 0.0
C1109 C 0.22903 0.83976 0.96683 0.0
C1110 C 0.23196 0.85052 0.9787 0.0
C1111 C 0.23824 0.82185 0.94568 0.0
C1112 C 0.24562 0.82398 0.93162 0.0
C1113 C 0.22829 0.8089 0.94718 0.0
C1114 C 0.22121 0.805 0.962 0.0
C1115 C 0.20522 0.80291 0.96315 0.0
C1116 C 0.19854 0.79931 0.97714 0.0
C1117 C 0.20776 0.7977 0.99004 0.0
C1118 C 0.22368 0.79962 0.98897 0.0
C1119 C 0.23042 0.8032 0.97501 0.0
H1120 H 0.20257 0.79493 1.00085 0.0
H1121 H 0.27476 0.8236 0.8676 0.0
H1122 H 0.0201 0.54176 0.38669 0.0
H1123 H 0.03508 0.53535 0.36401 0.0
H1124 H 0.06556 0.50904 0.3913 0.0
H1125 H 0.05059 0.51539 0.41407 0.0
H1126 H 0.08183 0.5262 0.37266 0.0
H1127 H 0.03901 0.49166 0.36625 0.0
H1128 H 0.01169 0.48378 0.36478 0.0
H1129 H 1.00533 0.5128 0.32659 0.0
H1130 H 0.03258 0.52103 0.32796 0.0
H1131 H 0.12157 0.50045 0.30569 0.0
H1132 H 0.1057 0.49879 0.32882 0.0
H1133 H 0.07249 0.52811 0.30871 0.0
H1134 H 0.08812 0.52974 0.28578 0.0
H1135 H 0.0582 0.50595 0.32453 0.0
H1136 H 0.10003 0.54252 0.333 0.0
H1137 H 0.12724 0.55075 0.33449 0.0
H1138 H 0.13531 0.51772 0.36886 0.0
H1139 H 0.10813 0.50917 0.36745 0.0
C1140 C 0.02983 0.5344 0.38787 0.0
C1141 C 0.03405 0.52909 0.40229 0.0
C1142 C 0.03844 0.53074 0.37484 0.0
C1143 C 0.05142 0.52153 0.37581 0.0
C1144 C 0.05564 0.51616 0.39018 0.0
C1145 C 0.04705 0.51985 0.40323 0.0
C1146 C 0.06085 0.51796 0.36195 0.0
C1147 C 0.07668 0.52147 0.36225 0.0
C1148 C 0.05421 0.51201 0.34819 0.0
C1149 C 0.03782 0.50705 0.34729 0.0
C1150 C 0.03176 0.49645 0.35761 0.0
C1151 C 0.01629 0.49191 0.35678 0.0
C1152 C 1.00677 0.49781 0.34562 0.0
C1153 C 0.01272 0.50824 0.33524 0.0
C1154 C 0.02818 0.51284 0.33602 0.0
C1155 C 0.1107 0.50621 0.30608 0.0
C1156 C 0.10615 0.51526 0.29389 0.0
C1157 C 0.10169 0.50538 0.31936 0.0
C1158 C 0.08795 0.51351 0.32064 0.0
C1159 C 0.08301 0.52176 0.30809 0.0
C1160 C 0.09201 0.5227 0.29496 0.0
C1161 C 0.07908 0.51438 0.33523 0.0
C1162 C 0.06336 0.51042 0.33504 0.0
C1163 C 0.08581 0.51992 0.34909 0.0
C1164 C 0.10211 0.52508 0.34998 0.0
C1165 C 0.10763 0.53693 0.34078 0.0
C1166 C 0.12305 0.54166 0.34162 0.0
C1167 C 0.13302 0.53473 0.35171 0.0
C1168 C 0.12758 0.52306 0.36102 0.0
C1169 C 0.11217 0.51827 0.36021 0.0
H1170 H 0.14495 0.53842 0.35235 0.0
H1171 H 0.9948 0.49428 0.34501 0.0
H1172 H 0.79202 0.74018 0.86913 0.0
H1173 H 0.78878 0.72086 0.88857 0.0
H1174 H 0.80816 0.75224 0.92248 0.0
H1175 H 0.81193 0.7715 0.90297 0.0
H1176 H 0.81808 0.72347 0.92695 0.0
H1177 H 0.76939 0.74678 0.91943 0.0
H1178 H 0.74731 0.75544 0.90454 0.0
H1179 H 0.73747 0.70922 0.88927 0.0
H1180 H 0.75963 0.7003 0.90391 0.0
H1181 H 0.78692 0.68185 0.99105 0.0
H1182 H 0.79584 0.70073 0.97248 0.0
H1183 H 0.77364 0.67415 0.93626 0.0
H1184 H 0.76438 0.65584 0.95472 0.0
H1185 H 0.76558 0.70181 0.93399 0.0
H1186 H 0.81452 0.67834 0.94124 0.0
H1187 H 0.83662 0.66967 0.95609 0.0
H1188 H 0.84601 0.71579 0.97196 0.0
H1189 H 0.82384 0.7247 0.95735 0.0
C1190 C 0.79587 0.74294 0.88064 0.0
C1191 C 0.80216 0.75753 0.88441 0.0
C1192 C 0.79386 0.73188 0.89182 0.0
C1193 C 0.79799 0.73511 0.90711 0.0
C1194 C 0.80479 0.74944 0.91082 0.0
C1195 C 0.80681 0.76052 0.89964 0.0
C1196 C 0.7946 0.72379 0.91926 0.0
C1197 C 0.80657 0.71884 0.92861 0.0
C1198 C 0.77964 0.71757 0.92139 0.0
C1199 C 0.76625 0.7229 0.91265 0.0
C1200 C 0.76258 0.73848 0.91281 0.0
C1201 C 0.75004 0.74343 0.90443 0.0
C1202 C 0.74101 0.73289 0.89594 0.0
C1203 C 0.74448 0.71737 0.89584 0.0
C1204 C 0.75702 0.71236 0.90419 0.0
C1205 C 0.78431 0.6799 0.97906 0.0
C1206 C 0.77496 0.66733 0.97435 0.0
C1207 C 0.78938 0.69071 0.96842 0.0
C1208 C 0.78542 0.68898 0.95285 0.0
C1209 C 0.77677 0.67594 0.94815 0.0
C1210 C 0.77153 0.66537 0.95874 0.0
C1211 C 0.78913 0.70107 0.9415 0.0
C1212 C 0.77714 0.70632 0.93235 0.0
C1213 C 0.80408 0.7075 0.93957 0.0
C1214 C 0.81742 0.70216 0.94833 0.0
C1215 C 0.82122 0.68661 0.94799 0.0
C1216 C 0.83378 0.68166 0.95635 0.0
C1217 C 0.84269 0.69217 0.965 0.0
C1218 C 0.83909 0.70766 0.96527 0.0
C1219 C 0.82654 0.71267 0.95695 0.0
H1220 H 0.8524 0.68831 0.97146 0.0
H1221 H 0.73131 0.73675 0.88946 0.0
H1222 H 0.97034 0.99358 0.41624 0.0
H1223 H 0.95523 0.99941 0.3937 0.0
H1224 H 0.99503 0.9933 0.36532 0.0
H1225 H 0.01024 0.98717 0.38781 0.0
H1226 H 0.97766 0.01773 0.35596 0.0
H1227 H 0.96934 0.96472 0.36805 0.0
H1228 H 0.96247 0.94335 0.38473 0.0
H1229 H 0.91757 0.9616 0.39138 0.0
H1230 H 0.92426 0.9832 0.37488 0.0
H1231 H 0.92599 0.97961 0.29299 0.0
H1232 H 0.94177 0.97976 0.31576 0.0
H1233 H 0.92991 0.0265 0.32581 0.0
H1234 H 0.91377 0.0265 0.30269 0.0
H1235 H 0.93294 0.98309 0.34487 0.0
H1236 H 0.96217 0.04276 0.3463 0.0
H1237 H 0.97025 0.06285 0.32854 0.0
H1238 H 0.97515 0.02898 0.29268 0.0
H1239 H 0.9673 0.0087 0.31028 0.0
C1240 C 0.97594 0.99343 0.40522 0.0
C1241 C 0.99154 0.98966 0.40392 0.0
C1242 C 0.96726 0.99688 0.39232 0.0
C1243 C 0.9739 0.99665 0.37773 0.0
C1244 C 0.98962 0.9936 0.37644 0.0
C1245 C 0.99833 0.9901 0.38936 0.0
C1246 C 0.96421 0.99853 0.3638 0.0
C1247 C 0.96782 0.01022 0.35359 0.0
C1248 C 0.95143 0.98868 0.36053 0.0
C1249 C 0.94736 0.97565 0.37037 0.0
C1250 C 0.95804 0.96423 0.37316 0.0
C1251 C 0.95417 0.95207 0.38257 0.0
C1252 C 0.9396 0.95114 0.38915 0.0
C1253 C 0.92886 0.96235 0.38629 0.0
C1254 C 0.93268 0.97455 0.37691 0.0
C1255 C 0.92669 0.99005 0.29988 0.0
C1256 C 0.91843 1.00306 0.29587 0.0
C1257 C 0.93576 0.99006 0.31303 0.0
C1258 C 0.93705 1.00308 0.32262 0.0
C1259 C 0.92918 0.01629 0.31857 0.0
C1260 C 0.91994 0.01628 0.30533 0.0
C1261 C 0.9463 1.00233 0.33699 0.0
C1262 C 0.94262 0.99079 0.34732 0.0
C1263 C 0.95909 0.0122 0.34021 0.0
C1264 C 0.96396 0.02426 0.32956 0.0
C1265 C 0.965 0.03961 0.33464 0.0
C1266 C 0.96955 0.05103 0.3246 0.0
C1267 C 0.97315 0.0472 0.30948 0.0
C1268 C 0.97229 0.03194 0.30438 0.0
C1269 C 0.96777 0.02049 0.31437 0.0
H1270 H 0.97666 0.05606 0.30173 0.0
H1271 H 0.93663 0.94172 0.39642 0.0
H1272 H 0.24169 0.24264 0.6507 0.0
H1273 H 0.24743 0.22602 0.62868 0.0
H1274 H 0.20671 0.24103 0.60592 0.0
H1275 H 0.20094 0.25769 0.62784 0.0
H1276 H 0.20843 0.21084 0.60339 0.0
H1277 H 0.24336 0.25319 0.59541 0.0
H1278 H 0.26406 0.2718 0.60227 0.0
H1279 H 0.2952 0.23513 0.60866 0.0
H1280 H 0.27461 0.21627 0.60203 0.0
H1281 H 0.22233 0.18115 0.52915 0.0
H1282 H 0.21854 0.19826 0.55114 0.0
H1283 H 0.25949 0.18155 0.57213 0.0
H1284 H 0.26356 0.16453 0.54998 0.0
H1285 H 0.2582 0.21199 0.57605 0.0
H1286 H 0.22352 0.16968 0.58365 0.0
H1287 H 0.20297 0.15098 0.57654 0.0
H1288 H 0.17144 0.18747 0.57101 0.0
H1289 H 0.19187 0.20641 0.57787 0.0
C1290 C 0.23406 0.24259 0.64093 0.0
C1291 C 0.22082 0.25155 0.64113 0.0
C1292 C 0.23735 0.23303 0.62832 0.0
C1293 C 0.22757 0.23228 0.61552 0.0
C1294 C 0.21443 0.2413 0.61564 0.0
C1295 C 0.21112 0.25083 0.62824 0.0
C1296 C 0.23074 0.22184 0.60216 0.0
C1297 C 0.21925 0.21126 0.59731 0.0
C1298 C 0.24501 0.222 0.59441 0.0
C1299 C 0.2574 0.23331 0.59838 0.0
C1300 C 0.25459 0.24909 0.5984 0.0
C1301 C 0.26631 0.25968 0.60222 0.0
C1302 C 0.28092 0.25465 0.60594 0.0
C1303 C 0.28386 0.23901 0.6058 0.0
C1304 C 0.27218 0.22836 0.602 0.0
C1305 C 0.23059 0.18108 0.53839 0.0
C1306 C 0.24324 0.17133 0.53773 0.0
C1307 C 0.22835 0.19087 0.55104 0.0
C1308 C 0.23859 0.19109 0.56347 0.0
C1309 C 0.25139 0.1816 0.56274 0.0
C1310 C 0.25367 0.17181 0.55005 0.0
C1311 C 0.23583 0.20112 0.57722 0.0
C1312 C 0.24739 0.21158 0.58216 0.0
C1313 C 0.22164 0.20084 0.5851 0.0
C1314 C 0.20927 0.18947 0.58114 0.0
C1315 C 0.21223 0.17372 0.58082 0.0
C1316 C 0.2006 0.16308 0.57684 0.0
C1317 C 0.18592 0.16804 0.57329 0.0
C1318 C 0.18282 0.18365 0.57375 0.0
C1319 C 0.19442 0.19434 0.5777 0.0
H1320 H 0.17693 0.15978 0.5702 0.0
H1321 H 0.28998 0.26288 0.6089 0.0
H1322 H 0.50261 0.51573 0.62338 0.0
H1323 H 0.48755 0.50888 0.64587 0.0
H1324 H 0.47052 0.55474 0.6491 0.0
H1325 H 0.48585 0.56178 0.62697 0.0
H1326 H 0.47749 0.54514 0.67679 0.0
H1327 H 0.44852 0.52461 0.63399 0.0
H1328 H 0.44427 0.50922 0.61035 0.0
H1329 H 0.45508 0.46839 0.63398 0.0
H1330 H 0.45961 0.48358 0.65772 0.0
H1331 H 0.41367 0.53185 0.72577 0.0
H1332 H 0.43023 0.53825 0.70427 0.0
H1333 H 0.4462 0.49195 0.70213 0.0
H1334 H 0.42954 0.48538 0.72347 0.0
H1335 H 0.44031 0.50136 0.67416 0.0
H1336 H 0.46867 0.52182 0.71717 0.0
H1337 H 0.4728 0.53722 0.74082 0.0
H1338 H 0.4631 0.57815 0.71688 0.0
H1339 H 0.4587 0.56296 0.69312 0.0
C1340 C 0.49579 0.52441 0.62896 0.0
C1341 C 0.4954 0.5393 0.62321 0.0
C1342 C 0.48704 0.52043 0.64177 0.0
C1343 C 0.47767 0.53122 0.64913 0.0
C1344 C 0.47756 0.54616 0.64364 0.0
C1345 C 0.48626 0.55014 0.63085 0.0
C1346 C 0.46787 0.52697 0.66247 0.0
C1347 C 0.46924 0.53566 0.67613 0.0
C1348 C 0.4573 0.51441 0.66184 0.0
C1349 C 0.45457 0.50525 0.64759 0.0
C1350 C 0.45012 0.51236 0.63411 0.0
C1351 C 0.44763 0.50367 0.6207 0.0
C1352 C 0.44944 0.48784 0.62065 0.0
C1353 C 0.45371 0.48066 0.63403 0.0
C1354 C 0.45622 0.4893 0.64747 0.0
C1355 C 0.42072 0.52301 0.72078 0.0
C1356 C 0.42024 0.50809 0.7265 0.0
C1357 C 0.43027 0.52672 0.70848 0.0
C1358 C 0.43967 0.51565 0.7016 0.0
C1359 C 0.43912 0.50073 0.7072 0.0
C1360 C 0.42959 0.49701 0.71949 0.0
C1361 C 0.44989 0.51955 0.68848 0.0
C1362 C 0.4486 0.5108 0.67484 0.0
C1363 C 0.46053 0.53206 0.68914 0.0
C1364 C 0.46321 0.54123 0.7034 0.0
C1365 C 0.4673 0.53409 0.71697 0.0
C1366 C 0.46971 0.54278 0.7304 0.0
C1367 C 0.46817 0.55865 0.73036 0.0
C1368 C 0.46427 0.56586 0.7169 0.0
C1369 C 0.46183 0.55721 0.70344 0.0
H1370 H 0.47005 0.56536 0.74077 0.0
H1371 H 0.44751 0.48113 0.61025 0.0
H1372 H 0.80962 0.25671 0.6249 0.0
H1373 H 0.80625 0.27573 0.60528 0.0
H1374 H 0.78176 0.30422 0.63736 0.0
H1375 H 0.78466 0.28502 0.6569 0.0
H1376 H 0.76699 0.30263 0.6108 0.0
H1377 H 0.81913 0.31292 0.62619 0.0
H1378 H 0.84605 0.30669 0.6315 0.0
H1379 H 0.85194 0.29197 0.58484 0.0
H1380 H 0.82498 0.29792 0.57929 0.0
H1381 H 0.76474 0.36908 0.56687 0.0
H1382 H 0.77085 0.35126 0.58691 0.0
H1383 H 0.79484 0.32302 0.55423 0.0
H1384 H 0.78895 0.34099 0.53411 0.0
H1385 H 0.81014 0.32445 0.58095 0.0
H1386 H 0.75811 0.31372 0.5656 0.0
H1387 H 0.73117 0.3197 0.56011 0.0
H1388 H 0.72502 0.33486 0.60661 0.0
H1389 H 0.75201 0.32916 0.61233 0.0
C1390 C 0.80347 0.26699 0.6278 0.0
C1391 C 0.79742 0.26925 0.64256 0.0
C1392 C 0.80168 0.27797 0.61658 0.0
C1393 C 0.79387 0.29156 0.6198 0.0
C1394 C 0.78788 0.29389 0.63454 0.0
C1395 C 0.78968 0.28292 0.64578 0.0
C1396 C 0.7915 0.3031 0.60773 0.0
C1397 C 0.77647 0.30756 0.60446 0.0
C1398 C 0.80377 0.30929 0.59906 0.0
C1399 C 0.81999 0.30573 0.60236 0.0
C1400 C 0.82613 0.30824 0.61709 0.0
C1401 C 0.8414 0.30478 0.62014 0.0
C1402 C 0.85069 0.2989 0.60853 0.0
C1403 C 0.84473 0.29651 0.59383 0.0
C1404 C 0.82946 0.29993 0.59072 0.0
C1405 C 0.77145 0.35916 0.56394 0.0
C1406 C 0.77629 0.35646 0.54882 0.0
C1407 C 0.77487 0.34891 0.57543 0.0
C1408 C 0.78308 0.33558 0.5721 0.0
C1409 C 0.78844 0.33315 0.55713 0.0
C1410 C 0.78506 0.34345 0.54561 0.0
C1411 C 0.78565 0.32403 0.58412 0.0
C1412 C 0.80068 0.31954 0.58734 0.0
C1413 C 0.77337 0.31777 0.59273 0.0
C1414 C 0.75713 0.32116 0.58935 0.0
C1415 C 0.75105 0.31844 0.57462 0.0
C1416 C 0.73576 0.32176 0.57148 0.0
C1417 C 0.7264 0.32769 0.583 0.0
C1418 C 0.73229 0.33028 0.5977 0.0
C1419 C 0.74758 0.327 0.6009 0.0
H1420 H 0.71456 0.33025 0.58054 0.0
H1421 H 0.86251 0.29623 0.61091 0.0
H1422 H 0.54793 1.00395 0.60905 0.0
H1423 H 0.56343 0.00888 0.63198 0.0
H1424 H 0.53195 0.98117 0.65793 0.0
H1425 H 0.51641 0.97607 0.63499 0.0
H1426 H 0.54037 1.00611 0.67427 0.0
H1427 H 0.56649 0.96725 0.64605 0.0
H1428 H 0.57868 0.95532 0.62351 0.0
H1429 H 0.61199 0.99222 0.62249 0.0
H1430 H 0.59986 1.00448 0.64491 0.0
H1431 H 0.61408 0.99139 0.72331 0.0
H1432 H 0.5971 0.98507 0.70166 0.0
H1433 H 0.58133 0.03144 0.70211 0.0
H1434 H 0.59808 0.03782 0.7238 0.0
H1435 H 0.59596 0.99502 0.67339 0.0
H1436 H 0.54409 0.03209 0.6905 0.0
H1437 H 0.53146 0.04167 0.71389 0.0
H1438 H 0.54881 1.00404 0.73875 0.0
H1439 H 0.56136 0.99412 0.71546 0.0
C1440 C 0.5443 0.99881 0.61959 0.0
C1441 C 0.53091 0.98949 0.62004 0.0
C1442 C 0.5532 1.00167 0.63275 0.0
C1443 C 0.54904 0.99523 0.64672 0.0
C1444 C 0.53546 0.98629 0.64733 0.0
C1445 C 0.52653 0.98342 0.63417 0.0
C1446 C 0.55897 0.99765 0.66058 0.0
C1447 C 0.55253 1.00371 0.67405 0.0
C1448 C 0.57481 0.99422 0.66051 0.0
C1449 C 0.58218 0.98685 0.64707 0.0
C1450 C 0.57634 0.97288 0.64095 0.0
C1451 C 0.58325 0.96605 0.6282 0.0
C1452 C 0.59608 0.97303 0.62155 0.0
C1453 C 0.60204 0.98683 0.62765 0.0
C1454 C 0.59516 0.99372 0.64038 0.0
C1455 C 0.60696 1.00025 0.71888 0.0
C1456 C 0.60746 0.01512 0.72546 0.0
C1457 C 0.59727 0.99662 0.70642 0.0
C1458 C 0.58776 1.00771 0.70027 0.0
C1459 C 0.58831 0.02257 0.70675 0.0
C1460 C 0.59798 0.02622 0.71918 0.0
C1461 C 0.57744 1.00383 0.68697 0.0
C1462 C 0.58381 0.99747 0.67361 0.0
C1463 C 0.56149 1.00671 0.68724 0.0
C1464 C 0.55379 0.01245 0.70126 0.0
C1465 C 0.54515 0.02583 0.70094 0.0
C1466 C 0.53802 0.03132 0.71418 0.0
C1467 C 0.53937 0.0235 0.72781 0.0
C1468 C 0.54782 0.01012 0.7282 0.0
C1469 C 0.55496 1.00457 0.71499 0.0
H1470 H 0.53385 0.02778 0.73805 0.0
H1471 H 0.60141 0.96772 0.61168 0.0
H1472 H 0.88864 0.20283 0.77079 0.0
H1473 H 0.91006 0.20481 0.7889 0.0
H1474 H 0.90611 0.25387 0.79079 0.0
H1475 H 0.88511 0.25204 0.77231 0.0
H1476 H 0.93518 0.24677 0.78832 0.0
H1477 H 0.89343 0.23057 0.82017 0.0
H1478 H 0.87186 0.21397 0.82827 0.0
H1479 H 0.9022 0.17618 0.83167 0.0
H1480 H 0.92392 0.19252 0.82338 0.0
H1481 H 0.97808 0.26631 0.8546 0.0
H1482 H 0.95801 0.26159 0.83543 0.0
H1483 H 0.96674 0.21324 0.83594 0.0
H1484 H 0.98679 0.21802 0.85548 0.0
H1485 H 0.93627 0.21823 0.83647 0.0
H1486 H 0.97835 0.2353 0.8059 0.0
H1487 H 0.99978 0.25247 0.79861 0.0
H1488 H 0.96852 0.28925 0.79343 0.0
H1489 H 0.94691 0.27235 0.8009 0.0
C1490 C 0.89236 0.21406 0.77498 0.0
C1491 C 0.88503 0.22727 0.77005 0.0
C1492 C 0.90455 0.21516 0.78549 0.0
C1493 C 0.90968 0.22949 0.7914 0.0
C1494 C 0.90239 0.24267 0.78648 0.0
C1495 C 0.89024 0.24158 0.77599 0.0
C1496 C 0.92284 0.23087 0.80239 0.0
C1497 C 0.9353 0.24065 0.79892 0.0
C1498 C 0.92332 0.22258 0.81608 0.0
C1499 C 0.91026 0.21272 0.82096 0.0
C1500 C 0.89548 0.21868 0.8225 0.0
C1501 C 0.88323 0.20933 0.82715 0.0
C1502 C 0.88565 0.19402 0.83043 0.0
C1503 C 0.90033 0.18804 0.82909 0.0
C1504 C 0.91262 0.19734 0.82442 0.0
C1505 C 0.97566 0.25466 0.85065 0.0
C1506 C 0.98366 0.24248 0.85679 0.0
C1507 C 0.9643 0.25198 0.83957 0.0
C1508 C 0.96086 0.23705 0.8341 0.0
C1509 C 0.96912 0.22485 0.83998 0.0
C1510 C 0.98059 0.22757 0.85109 0.0
C1511 C 0.94845 0.23431 0.82249 0.0
C1512 C 0.93617 0.22427 0.82582 0.0
C1513 C 0.94808 0.24242 0.8087 0.0
C1514 C 0.96102 0.25258 0.80406 0.0
C1515 C 0.97605 0.24707 0.80329 0.0
C1516 C 0.98823 0.25676 0.79912 0.0
C1517 C 0.98552 0.27195 0.79559 0.0
C1518 C 0.9706 0.27748 0.79618 0.0
C1519 C 0.95838 0.26785 0.80036 0.0
H1520 H 0.99496 0.27943 0.79237 0.0
H1521 H 0.87615 0.1868 0.83404 0.0
H1522 H 0.49656 0.91618 0.46886 0.0
H1523 H 0.50358 0.89323 0.45432 0.0
H1524 H 0.49453 0.86581 0.49362 0.0
H1525 H 0.4874 0.88878 0.50827 0.0
H1526 H 0.51978 0.85607 0.4793 0.0
H1527 H 0.46861 0.86722 0.46435 0.0
H1528 H 0.44758 0.88292 0.45499 0.0
H1529 H 0.47142 0.88905 0.4127 0.0
H1530 H 0.49271 0.87355 0.4219 0.0
H1531 H 0.50327 0.784 0.441 0.0
H1532 H 0.50381 0.80798 0.45603 0.0
H1533 H 0.52014 0.83216 0.4168 0.0
H1534 H 0.51996 0.80799 0.40177 0.0
H1535 H 0.49287 0.84406 0.43037 0.0
H1536 H 0.54337 0.83042 0.44558 0.0
H1537 H 0.56315 0.81356 0.45551 0.0
H1538 H 0.539 0.8107 0.49801 0.0
H1539 H 0.51893 0.82738 0.48825 0.0
C1540 C 0.49598 0.90528 0.47444 0.0
C1541 C 0.49122 0.9044 0.48975 0.0
C1542 C 0.50005 0.89212 0.46608 0.0
C1543 C 0.49938 0.87767 0.47274 0.0
C1544 C 0.49515 0.87679 0.48817 0.0
C1545 C 0.4911 0.88997 0.49657 0.0
C1546 C 0.50268 0.86349 0.46349 0.0
C1547 C 0.51378 0.8534 0.46868 0.0
C1548 C 0.49509 0.86002 0.44945 0.0
C1549 C 0.48234 0.86938 0.44389 0.0
C1550 C 0.46943 0.87203 0.4531 0.0
C1551 C 0.45745 0.88087 0.44782 0.0
C1552 C 0.45818 0.88702 0.43327 0.0
C1553 C 0.47089 0.88431 0.42397 0.0
C1554 C 0.48291 0.87549 0.42922 0.0
C1555 C 0.50749 0.79435 0.43573 0.0
C1556 C 0.51178 0.79409 0.42027 0.0
C1557 C 0.50773 0.80806 0.44432 0.0
C1558 C 0.51199 0.82191 0.43757 0.0
C1559 C 0.51685 0.82162 0.42227 0.0
C1560 C 0.51692 0.80779 0.41374 0.0
C1561 C 0.50998 0.8367 0.44615 0.0
C1562 C 0.49901 0.84685 0.44089 0.0
C1563 C 0.51753 0.84008 0.4602 0.0
C1564 C 0.52957 0.83005 0.46612 0.0
C1565 C 0.54219 0.82609 0.45699 0.0
C1566 C 0.55347 0.81658 0.4626 0.0
C1567 C 0.55231 0.81103 0.47737 0.0
C1568 C 0.53987 0.815 0.48657 0.0
C1569 C 0.52855 0.82449 0.48101 0.0
H1570 H 0.56106 0.80368 0.48169 0.0
H1571 H 0.44889 0.89385 0.4292 0.0
H1572 H 0.15936 0.28784 0.79194 0.0
H1573 H 0.13792 0.28265 0.80907 0.0
H1574 H 0.10767 0.30675 0.77952 0.0
H1575 H 0.12922 0.31243 0.76254 0.0
H1576 H 0.10237 0.31464 0.80868 0.0
H1577 H 0.10679 0.26741 0.78063 0.0
H1578 H 0.11989 0.24492 0.76986 0.0
H1579 H 0.13162 0.23103 0.81496 0.0
H1580 H 0.11877 0.25356 0.82601 0.0
H1581 H 0.03325 0.287 0.84448 0.0
H1582 H 0.05377 0.29369 0.82659 0.0
H1583 H 0.08629 0.26997 0.85403 0.0
H1584 H 0.06585 0.26309 0.87178 0.0
H1585 H 0.08961 0.26197 0.82493 0.0
H1586 H 0.08562 0.30974 0.85287 0.0
H1587 H 0.07234 0.33221 0.86346 0.0
H1588 H 0.05947 0.34498 0.81829 0.0
H1589 H 0.07251 0.32246 0.80744 0.0
C1590 C 0.14818 0.29213 0.78909 0.0
C1591 C 0.1461 0.30057 0.77579 0.0
C1592 C 0.13585 0.28902 0.79885 0.0
C1593 C 0.12106 0.29415 0.79557 0.0
C1594 C 0.11893 0.30261 0.78233 0.0
C1595 C 0.13127 0.30572 0.77253 0.0
C1596 C 0.10793 0.29086 0.80605 0.0
C1597 C 0.09944 0.30309 0.81205 0.0
C1598 C 0.1042 0.27583 0.81074 0.0
C1599 C 0.11193 0.26226 0.80414 0.0
C1600 C 0.11227 0.25963 0.78825 0.0
C1601 C 0.11963 0.24686 0.78209 0.0
C1602 C 0.12662 0.23657 0.79172 0.0
C1603 C 0.12622 0.23902 0.80752 0.0
C1604 C 0.11888 0.25178 0.81374 0.0
C1605 C 0.04481 0.28339 0.84682 0.0
C1606 C 0.04788 0.27453 0.85961 0.0
C1607 C 0.05656 0.28724 0.83657 0.0
C1608 C 0.07167 0.28241 0.83893 0.0
C1609 C 0.07477 0.27381 0.85187 0.0
C1610 C 0.06305 0.26995 0.86208 0.0
C1611 C 0.08417 0.28577 0.82772 0.0
C1612 C 0.09252 0.27353 0.82156 0.0
C1613 C 0.08773 0.30078 0.82287 0.0
C1614 C 0.0799 0.31433 0.82936 0.0
C1615 C 0.07985 0.31727 0.8452 0.0
C1616 C 0.07239 0.33003 0.85125 0.0
C1617 C 0.06503 0.33999 0.84155 0.0
C1618 C 0.06515 0.33724 0.82579 0.0
C1619 C 0.07259 0.32449 0.81968 0.0
H1620 H 0.05926 0.34986 0.84626 0.0
H1621 H 0.13231 0.22669 0.78693 0.0
H1622 H 0.52029 0.62759 0.50639 0.0
H1623 H 0.51339 0.64895 0.49041 0.0
H1624 H 0.55464 0.64287 0.46409 0.0
H1625 H 0.56157 0.62152 0.47995 0.0
H1626 H 0.55085 0.67237 0.46995 0.0
H1627 H 0.51857 0.63111 0.45048 0.0
H1628 H 0.49938 0.61005 0.45195 0.0
H1629 H 0.46597 0.64144 0.46905 0.0
H1630 H 0.48504 0.66266 0.46787 0.0
H1631 H 0.53081 0.71978 0.40811 0.0
H1632 H 0.53783 0.69826 0.42382 0.0
H1633 H 0.4962 0.70331 0.44976 0.0
H1634 H 0.48893 0.72453 0.43395 0.0
H1635 H 0.50032 0.67424 0.44399 0.0
H1636 H 0.53252 0.71547 0.46367 0.0
H1637 H 0.55168 0.73658 0.46231 0.0
H1638 H 0.58514 0.70537 0.44499 0.0
H1639 H 0.56611 0.6841 0.44605 0.0
C1640 C 0.52784 0.63068 0.49712 0.0
C1641 C 0.54152 0.62275 0.49454 0.0
C1642 C 0.52388 0.64295 0.48797 0.0
C1643 C 0.53341 0.64753 0.47588 0.0
C1644 C 0.54709 0.63967 0.47334 0.0
C1645 C 0.55107 0.62745 0.48249 0.0
C1646 C 0.52922 0.66052 0.46595 0.0
C1647 C 0.53986 0.67266 0.46412 0.0
C1648 C 0.51477 0.66118 0.45855 0.0
C1649 C 0.50328 0.64844 0.45923 0.0
C1650 C 0.50717 0.6335 0.45466 0.0
C1651 C 0.49631 0.62154 0.45542 0.0
C1652 C 0.48147 0.6244 0.46063 0.0
C1653 C 0.47747 0.63924 0.46504 0.0
C1654 C 0.48829 0.65124 0.46432 0.0
C1655 C 0.52314 0.71635 0.41718 0.0
C1656 C 0.5093 0.72403 0.41972 0.0
C1657 C 0.52722 0.70404 0.42623 0.0
C1658 C 0.51766 0.69918 0.43818 0.0
C1659 C 0.50381 0.70676 0.44066 0.0
C1660 C 0.49969 0.719 0.43159 0.0
C1661 C 0.52193 0.68613 0.44801 0.0
C1662 C 0.5113 0.67397 0.44982 0.0
C1663 C 0.53638 0.68546 0.45541 0.0
C1664 C 0.54785 0.69822 0.4548 0.0
C1665 C 0.54393 0.71313 0.45946 0.0
C1666 C 0.55477 0.72512 0.45877 0.0
C1667 C 0.5696 0.72233 0.45353 0.0
C1668 C 0.57364 0.70752 0.44902 0.0
C1669 C 0.56284 0.69549 0.44968 0.0
H1670 H 0.57798 0.73163 0.453 0.0
H1671 H 0.47308 0.61512 0.46121 0.0
H1672 H 0.87366 0.78598 0.74168 0.0
H1673 H 0.89388 0.7822 0.72282 0.0
H1674 H 0.92375 0.81352 0.74821 0.0
H1675 H 0.90337 0.8177 0.76699 0.0
H1676 H 0.92671 0.8173 0.7171 0.0
H1677 H 0.92788 0.77581 0.75174 0.0
H1678 H 0.91703 0.75441 0.76635 0.0
H1679 H 0.9037 0.73093 0.72464 0.0
H1680 H 0.91428 0.75229 0.70978 0.0
H1681 H 0.99392 0.78893 0.67646 0.0
H1682 H 0.9754 0.79866 0.69537 0.0
H1683 H 0.94161 0.76541 0.67879 0.0
H1684 H 0.96001 0.75542 0.66066 0.0
H1685 H 0.94275 0.76387 0.70773 0.0
H1686 H 0.94019 0.80588 0.67296 0.0
H1687 H 0.95077 0.82734 0.65825 0.0
H1688 H 0.96665 0.84972 0.69969 0.0
H1689 H 0.95633 0.82829 0.71463 0.0
C1690 C 0.8844 0.7923 0.74316 0.0
C1691 C 0.88683 0.8021 0.75597 0.0
C1692 C 0.89604 0.79002 0.7324 0.0
C1693 C 0.91047 0.79741 0.73416 0.0
C1694 C 0.91277 0.80763 0.7466 0.0
C1695 C 0.90113 0.8099 0.75742 0.0
C1696 C 0.92327 0.79383 0.72339 0.0
C1697 C 0.93036 0.80564 0.71516 0.0
C1698 C 0.92804 0.77863 0.72075 0.0
C1699 C 0.92176 0.76571 0.72966 0.0
C1700 C 0.92254 0.76613 0.74569 0.0
C1701 C 0.91645 0.754 0.75401 0.0
C1702 C 0.90965 0.74133 0.74643 0.0
C1703 C 0.90896 0.74075 0.7305 0.0
C1704 C 0.91501 0.75286 0.72212 0.0
C1705 C 0.98244 0.78394 0.67671 0.0
C1706 C 0.97849 0.77136 0.66705 0.0
C1707 C 0.97183 0.78949 0.68753 0.0
C1708 C 0.95701 0.78275 0.68864 0.0
C1709 C 0.95295 0.77074 0.6784 0.0
C1710 C 0.96352 0.76507 0.6679 0.0
C1711 C 0.94587 0.78723 0.70089 0.0
C1712 C 0.93916 0.77556 0.70959 0.0
C1713 C 0.94147 0.80253 0.70386 0.0
C1714 C 0.94765 0.81541 0.69489 0.0
C1715 C 0.94605 0.81532 0.67892 0.0
C1716 C 0.95198 0.82749 0.67055 0.0
C1717 C 0.95942 0.83987 0.67803 0.0
C1718 C 0.96091 0.84012 0.69391 0.0
C1719 C 0.95501 0.82797 0.70233 0.0
H1720 H 0.964 0.84928 0.67153 0.0
H1721 H 0.90494 0.73196 0.75289 0.0
H1722 H 0.01798 0.91088 0.54107 0.0
H1723 H 0.01142 0.88935 0.55727 0.0
H1724 H 0.04715 0.86296 0.53615 0.0
H1725 H 0.0533 0.88413 0.51944 0.0
H1726 H 0.0237 0.84481 0.54068 0.0
H1727 H 0.0517 0.88163 0.57187 0.0
H1728 H 0.05739 0.90693 0.58387 0.0
H1729 H 0.01387 0.90557 0.60671 0.0
H1730 H 1.00783 0.88032 0.59468 0.0
H1731 H 0.03543 0.8084 0.62021 0.0
H1732 H 0.03814 0.82982 0.60308 0.0
H1733 H 0.99744 0.81424 0.57867 0.0
H1734 H 0.99493 0.79242 0.59562 0.0
H1735 H 0.02264 0.85347 0.59678 0.0
H1736 H 1.0001 0.82387 0.5412 0.0
H1737 H 0.99802 0.798 0.52935 0.0
H1738 H 0.03665 0.78395 0.55563 0.0
H1739 H 0.03908 0.80977 0.56748 0.0
C1740 C 0.0243 0.90042 0.53965 0.0
C1741 C 0.03629 0.89941 0.52894 0.0
C1742 C 0.02063 0.88813 0.54909 0.0
C1743 C 0.02893 0.87451 0.5482 0.0
C1744 C 0.04058 0.8733 0.53719 0.0
C1745 C 0.0442 0.88555 0.52772 0.0
C1746 C 0.02583 0.86169 0.55892 0.0
C1747 C 0.02338 0.84676 0.55294 0.0
C1748 C 0.02566 0.86401 0.57499 0.0
C1749 C 0.02925 0.87917 0.58224 0.0
C1750 C 0.0433 0.88678 0.57936 0.0
C1751 C 0.04659 0.9011 0.58618 0.0
C1752 C 0.03598 0.90787 0.59601 0.0
C1753 C 0.02206 0.90032 0.59907 0.0
C1754 C 0.0187 0.886 0.59226 0.0
C1755 C 0.02699 0.80952 0.61125 0.0
C1756 C 0.01499 0.79859 0.60929 0.0
C1757 C 0.02853 0.82186 0.60144 0.0
C1758 C 0.01813 0.82368 0.58937 0.0
C1759 C 1.00583 0.81302 0.58766 0.0
C1760 C 1.00434 0.80057 0.59744 0.0
C1761 C 0.02043 0.83658 0.57855 0.0
C1762 C 0.02275 0.85154 0.58451 0.0
C1763 C 0.02091 0.83421 0.56249 0.0
C1764 C 0.01964 0.81869 0.55535 0.0
C1765 C 0.00817 0.81526 0.54441 0.0
C1766 C 1.00693 0.80061 0.5377 0.0
C1767 C 0.01716 0.78932 0.54178 0.0
C1768 C 0.02869 0.79268 0.55253 0.0
C1769 C 0.02999 0.80731 0.55926 0.0
H1770 H 0.01617 0.77799 0.53658 0.0
H1771 H 0.03855 0.91896 0.60128 0.0
H1772 H 0.12838 0.70838 0.76292 0.0
H1773 H 0.10628 0.71391 0.74687 0.0
H1774 H 0.13534 0.74131 0.71808 0.0
H1775 H 0.15743 0.73614 0.7343 0.0
H1776 H 0.1082 0.75505 0.72319 0.0
H1777 H 0.12426 0.7049 0.70727 0.0
H1778 H 0.13097 0.67799 0.71091 0.0
H1779 H 0.0858 0.6684 0.72821 0.0
H1780 H 0.07889 0.69531 0.72486 0.0
H1781 H 0.05775 0.75861 0.65932 0.0
H1782 H 0.07929 0.75475 0.6766 0.0
H1783 H 0.0512 0.7239 0.70285 0.0
H1784 H 0.02977 0.72733 0.68534 0.0
H1785 H 0.07784 0.7121 0.69938 0.0
H1786 H 0.06143 0.76194 0.71524 0.0
H1787 H 0.05453 0.78886 0.71201 0.0
H1788 H 0.09983 0.79917 0.69545 0.0
H1789 H 0.10695 0.77226 0.6984 0.0
C1790 C 0.13007 0.71574 0.75329 0.0
C1791 C 0.14478 0.72174 0.74991 0.0
C1792 C 0.11741 0.71879 0.74402 0.0
C1793 C 0.11912 0.72787 0.73109 0.0
C1794 C 0.13369 0.73421 0.72792 0.0
C1795 C 0.14636 0.73113 0.73716 0.0
C1796 C 0.1058 0.73057 0.72075 0.0
C1797 C 0.10167 0.74566 0.71784 0.0
C1798 C 0.097 0.71835 0.71401 0.0
C1799 C 0.10111 0.70215 0.71596 0.0
C1800 C 0.1158 0.69708 0.71196 0.0
C1801 C 0.11963 0.68182 0.71395 0.0
C1802 C 0.10884 0.6715 0.71982 0.0
C1803 C 0.09416 0.67641 0.72368 0.0
C1804 C 0.09028 0.69166 0.72172 0.0
C1805 C 0.05608 0.75108 0.66883 0.0
C1806 C 0.04192 0.74334 0.67091 0.0
C1807 C 0.06844 0.74892 0.67878 0.0
C1808 C 0.06691 0.73917 0.69125 0.0
C1809 C 0.05276 0.73149 0.69337 0.0
C1810 C 0.04045 0.73351 0.68334 0.0
C1811 C 0.08013 0.73662 0.70181 0.0
C1812 C 0.08429 0.72153 0.70475 0.0
C1813 C 0.0889 0.74885 0.70864 0.0
C1814 C 0.08467 0.76505 0.70691 0.0
C1815 C 0.06989 0.76992 0.71081 0.0
C1816 C 0.06594 0.78518 0.70905 0.0
C1817 C 0.07672 0.79571 0.70349 0.0
C1818 C 0.09149 0.791 0.69973 0.0
C1819 C 0.09549 0.77575 0.70146 0.0
H1820 H 0.07365 0.80752 0.70213 0.0
H1821 H 0.11183 0.65969 0.72136 0.0
H1822 H 0.96945 0.6235 0.54043 0.0
H1823 H 0.9765 0.64683 0.55482 0.0
H1824 H 0.02107 0.64736 0.53358 0.0
H1825 H 0.01422 0.62363 0.51939 0.0
H1826 H 0.02385 0.65328 0.56348 0.0
H1827 H 0.99372 0.67306 0.52362 0.0
H1828 H 0.97133 0.67491 0.50656 0.0
H1829 H 0.9425 0.68457 0.5451 0.0
H1830 H 0.96468 0.68256 0.56242 0.0
H1831 H 0.0394 0.7237 0.60535 0.0
H1832 H 0.03705 0.70344 0.58578 0.0
H1833 H 0.9877 0.7035 0.5908 0.0
H1834 H 0.99025 0.72567 0.6079 0.0
H1835 H 0.99051 0.69841 0.56497 0.0
H1836 H 0.01999 0.66935 0.60423 0.0
H1837 H 0.04266 0.66589 0.62093 0.0
H1838 H 0.07255 0.67322 0.58285 0.0
H1839 H 0.05009 0.67664 0.56612 0.0
C1840 C 0.9808 0.6285 0.53883 0.0
C1841 C 0.99127 0.62156 0.52875 0.0
C1842 C 0.98476 0.64199 0.54697 0.0
C1843 C 0.99928 0.64905 0.54521 0.0
C1844 C 0.00978 0.64221 0.53512 0.0
C1845 C 1.0058 0.62868 0.52692 0.0
C1846 C 1.00355 0.66322 0.55434 0.0
C1847 C 0.01661 0.66322 0.56372 0.0
C1848 C 0.99422 0.67626 0.55472 0.0
C1849 C 0.98086 0.67755 0.54433 0.0
C1850 C 0.98259 0.67547 0.52847 0.0
C1851 C 0.96994 0.67657 0.51875 0.0
C1852 C 0.9555 0.67983 0.52475 0.0
C1853 C 0.95369 0.68204 0.54047 0.0
C1854 C 0.9663 0.68094 0.55024 0.0
C1855 C 0.02808 0.71924 0.60229 0.0
C1856 C 0.01498 0.72558 0.60905 0.0
C1857 C 0.0267 0.70734 0.59123 0.0
C1858 C 0.01218 0.70102 0.58703 0.0
C1859 C 0.99914 0.70772 0.59368 0.0
C1860 C 1.00055 0.72015 0.604 0.0
C1861 C 0.0102 0.68812 0.57529 0.0
C1862 C 0.99769 0.68845 0.56505 0.0
C1863 C 0.02002 0.67535 0.57415 0.0
C1864 C 0.03346 0.67362 0.58417 0.0
C1865 C 0.03144 0.67045 0.59962 0.0
C1866 C 0.04421 0.66843 0.60901 0.0
C1867 C 0.05902 0.66952 0.60299 0.0
C1868 C 0.06109 0.67248 0.58753 0.0
C1869 C 0.04835 0.67441 0.5781 0.0
H1870 H 0.06888 0.66797 0.61028 0.0
H1871 H 0.94572 0.68067 0.5172 0.0
H1872 H 0.77234 0.89138 0.19594 0.0
H1873 H 0.78943 0.91325 0.20175 0.0
H1874 H 0.78912 0.90196 0.24933 0.0
H1875 H 0.77209 0.87987 0.24358 0.0
H1876 H 0.78695 0.93248 0.24602 0.0
H1877 H 0.81974 0.8934 0.22674 0.0
H1878 H 0.82869 0.87364 0.2085 0.0
H1879 H 0.83404 0.90737 0.17405 0.0
H1880 H 0.8249 0.92731 0.19202 0.0
H1881 H 0.85264 0.97668 0.26937 0.0
H1882 H 0.83338 0.95665 0.26341 0.0
H1883 H 0.83592 0.96759 0.21574 0.0
H1884 H 0.85558 0.98751 0.22177 0.0
H1885 H 0.83651 0.93763 0.21872 0.0
H1886 H 0.80438 0.97693 0.2387 0.0
H1887 H 0.79602 0.99653 0.25741 0.0
H1888 H 0.79013 0.96218 0.29118 0.0
H1889 H 0.79865 0.9424 0.27273 0.0
C1890 C 0.77596 0.89343 0.20765 0.0
C1891 C 0.7709 0.88367 0.21925 0.0
C1892 C 0.78575 0.90601 0.21096 0.0
C1893 C 0.79082 0.90918 0.22595 0.0
C1894 C 0.78542 0.89977 0.23766 0.0
C1895 C 0.77562 0.88715 0.23435 0.0
C1896 C 0.80185 0.92218 0.22933 0.0
C1897 C 0.79789 0.93349 0.2402 0.0
C1898 C 0.816 0.92377 0.22152 0.0
C1899 C 0.82146 0.91181 0.21067 0.0
C1900 C 0.82269 0.89658 0.21523 0.0
C1901 C 0.82782 0.88535 0.20495 0.0
C1902 C 0.83188 0.88924 0.19011 0.0
C1903 C 0.83085 0.90437 0.18553 0.0
C1904 C 0.82571 0.91564 0.19576 0.0
C1905 C 0.8491 0.97476 0.25761 0.0
C1906 C 0.8559 0.98329 0.24596 0.0
C1907 C 0.83793 0.96343 0.25422 0.0
C1908 C 0.83304 0.96058 0.23911 0.0
C1909 C 0.8395 0.96949 0.22748 0.0
C1910 C 0.85069 0.98089 0.23091 0.0
C1911 C 0.82168 0.94793 0.23545 0.0
C1912 C 0.82558 0.93666 0.22453 0.0
C1913 C 0.80753 0.94635 0.24328 0.0
C1914 C 0.80226 0.9582 0.25436 0.0
C1915 C 0.80139 0.97357 0.25014 0.0
C1916 C 0.79662 0.98471 0.2607 0.0
C1917 C 0.79258 0.98061 0.27548 0.0
C1918 C 0.79327 0.96535 0.27973 0.0
C1919 C 0.79805 0.95416 0.26922 0.0
H1920 H 0.78889 0.98925 0.28364 0.0
H1921 H 0.83586 0.88053 0.18217 0.0
H1922 H 0.76185 0.12826 0.31371 0.0
H1923 H 0.77885 0.10679 0.30892 0.0
H1924 H 0.81031 0.13655 0.2852 0.0
H1925 H 0.79314 0.15792 0.28947 0.0
H1926 H 0.8074 0.11005 0.27014 0.0
H1927 H 0.81687 0.12522 0.32249 0.0
H1928 H 0.80985 0.13098 0.34922 0.0
H1929 H 0.79217 0.0851 0.35377 0.0
H1930 H 0.7989 0.07912 0.32698 0.0
H1931 H 0.87316 0.0647 0.26863 0.0
H1932 H 0.85531 0.08506 0.27479 0.0
H1933 H 0.82536 0.05264 0.29694 0.0
H1934 H 0.84335 0.03216 0.29095 0.0
H1935 H 0.82659 0.07955 0.31287 0.0
H1936 H 0.81771 0.06417 0.26077 0.0
H1937 H 0.82472 0.05835 0.23406 0.0
H1938 H 0.84114 0.10459 0.22899 0.0
H1939 H 0.83442 0.11064 0.25575 0.0
C1940 C 0.77229 0.13023 0.30731 0.0
C1941 C 0.77609 0.14493 0.30206 0.0
C1942 C 0.78212 0.11793 0.30472 0.0
C1943 C 0.79606 0.12002 0.29689 0.0
C1944 C 0.79971 0.13459 0.29135 0.0
C1945 C 0.7899 0.14687 0.29392 0.0
C1946 C 0.80685 0.1071 0.29443 0.0
C1947 C 0.81172 0.10353 0.27953 0.0
C1948 C 0.81225 0.09822 0.30658 0.0
C1949 C 0.80824 0.10177 0.32269 0.0
C1950 C 0.81137 0.11639 0.32915 0.0
C1951 C 0.80747 0.11969 0.34432 0.0
C1952 C 0.80053 0.10843 0.35317 0.0
C1953 C 0.79752 0.09382 0.34689 0.0
C1954 C 0.80139 0.09047 0.33172 0.0
C1955 C 0.86287 0.06189 0.27497 0.0
C1956 C 0.85969 0.04674 0.27923 0.0
C1957 C 0.85259 0.07356 0.27841 0.0
C1958 C 0.83878 0.0704 0.28608 0.0
C1959 C 0.83587 0.0554 0.29094 0.0
C1960 C 0.84619 0.04369 0.28752 0.0
C1961 C 0.82726 0.08266 0.2886 0.0
C1962 C 0.82223 0.08607 0.30349 0.0
C1963 C 0.8217 0.0914 0.27643 0.0
C1964 C 0.82569 0.08782 0.26031 0.0
C1965 C 0.82292 0.07307 0.254 0.0
C1966 C 0.82683 0.06973 0.23884 0.0
C1967 C 0.83341 0.08108 0.22984 0.0
C1968 C 0.83606 0.09581 0.23598 0.0
C1969 C 0.83219 0.0992 0.25113 0.0
H1970 H 0.83642 0.07848 0.21811 0.0
H1971 H 0.79751 0.111 0.36491 0.0
H1972 H 0.41702 0.97653 0.00785 0.0
H1973 H 0.39423 0.96123 0.01441 0.0
H1974 H 0.36699 0.98731 0.98372 0.0
H1975 H 0.38968 1.00268 0.97717 0.0
H1976 H 0.35134 0.98258 0.00891 0.0
H1977 H 0.38011 0.95067 0.97434 0.0
H1978 H 0.40286 0.93693 0.96522 0.0
H1979 H 0.40284 0.91062 1.00592 0.0
H1980 H 0.38019 0.92436 0.01538 0.0
H1981 H 0.28884 0.93284 0.99076 0.0
H1982 H 0.31198 0.94894 0.99167 0.0
H1983 H 0.331 0.92062 0.02622 0.0
H1984 H 0.3076 0.90425 0.02534 0.0
H1985 H 0.35145 0.92605 1.0027 0.0
H1986 H 0.32039 0.95638 0.03565 0.0
H1987 H 0.29714 0.96987 0.04378 0.0
H1988 H 0.30101 0.99901 1.00522 0.0
H1989 H 0.32416 0.98555 0.99672 0.0
C1990 C 0.40619 0.97899 1.00244 0.0
C1991 C 0.40527 0.99085 0.99191 0.0
C1992 C 0.39313 0.97021 1.00622 0.0
C1993 C 0.37883 0.97291 0.99943 0.0
C1994 C 0.37783 0.98496 0.98917 0.0
C1995 C 0.39085 0.99379 0.98545 0.0
C1996 C 0.36496 0.96314 1.00279 0.0
C1997 C 0.35137 0.97023 1.00743 0.0
C1998 C 0.36498 0.94694 1.00132 0.0
C1999 C 0.37857 0.93866 0.99564 0.0
C2000 C 0.38503 0.94204 0.9814 0.0
C2001 C 0.39789 0.93424 0.97616 0.0
C2002 C 0.40432 0.92294 0.985 0.0
C2003 C 0.39787 0.91939 0.99909 0.0
C2004 C 0.38502 0.92718 1.0044 0.0
C2005 C 0.29782 0.9301 0.99874 0.0
C2006 C 0.29631 0.91721 0.008 0.0
C2007 C 0.31108 0.93939 0.99928 0.0
C2008 C 0.32327 0.9361 0.00907 0.0
C2009 C 0.32174 0.92343 0.0186 0.0
C2010 C 0.30831 0.91415 0.01818 0.0
C2011 C 0.3378 0.94552 0.00856 0.0
C2012 C 0.3515 0.93838 1.00441 0.0
C2013 C 0.33785 0.96167 0.01038 0.0
C2014 C 0.32397 0.96988 0.0155 0.0
C2015 C 0.31622 0.9656 0.02884 0.0
C2016 C 0.30307 0.97325 0.03352 0.0
C2017 C 0.29758 0.98527 0.02501 0.0
C2018 C 0.30527 0.98969 0.0118 0.0
C2019 C 0.31842 0.98207 1.00706 0.0
H2020 H 0.28739 0.99118 0.02865 0.0
H2021 H 0.41427 0.91691 0.98093 0.0
H2022 H 0.23954 0.37233 0.28537 0.0
H2023 H 0.22085 0.39241 0.28208 0.0
H2024 H 0.25132 0.42492 0.30521 0.0
H2025 H 0.26986 0.40476 0.30901 0.0
H2026 H 0.22226 0.42951 0.31393 0.0
H2027 H 0.24817 0.42351 0.26601 0.0
H2028 H 0.25776 0.40936 0.24344 0.0
H2029 H 0.21164 0.39577 0.23108 0.0
H2030 H 0.20178 0.40968 0.25371 0.0
H2031 H 0.18498 0.49664 0.28781 0.0
H2032 H 0.20325 0.47676 0.29404 0.0
H2033 H 0.17519 0.44319 0.26938 0.0
H2034 H 0.15719 0.46298 0.26286 0.0
H2035 H 0.20364 0.43957 0.26171 0.0
H2036 H 0.17764 0.44547 0.30972 0.0
H2037 H 0.16806 0.45959 0.33233 0.0
H2038 H 0.21417 0.47339 0.34452 0.0
H2039 H 0.22402 0.45952 0.32187 0.0
C2040 C 0.24221 0.38368 0.28998 0.0
C2041 C 0.25633 0.38685 0.2974 0.0
C2042 C 0.23154 0.39523 0.28794 0.0
C2043 C 0.23471 0.41032 0.29316 0.0
C2044 C 0.24858 0.41343 0.30098 0.0
C2045 C 0.25926 0.40188 0.30303 0.0
C2046 C 0.22375 0.42287 0.29017 0.0
C2047 C 0.21833 0.43182 0.30248 0.0
C2048 C 0.21836 0.42582 0.27529 0.0
C2049 C 0.22425 0.41752 0.26163 0.0
C2050 C 0.24008 0.41742 0.25854 0.0
C2051 C 0.24557 0.40945 0.24573 0.0
C2052 C 0.23532 0.40164 0.23585 0.0
C2053 C 0.21956 0.40181 0.23875 0.0
C2054 C 0.21402 0.40974 0.25156 0.0
C2055 C 0.18263 0.48499 0.28385 0.0
C2056 C 0.16959 0.48144 0.27483 0.0
C2057 C 0.19308 0.47359 0.28745 0.0
C2058 C 0.19063 0.45834 0.28229 0.0
C2059 C 0.17746 0.4548 0.27349 0.0
C2060 C 0.1671 0.46617 0.26981 0.0
C2061 C 0.20195 0.44614 0.28548 0.0
C2062 C 0.20751 0.43727 0.27318 0.0
C2063 C 0.20744 0.44328 0.30037 0.0
C2064 C 0.20155 0.45159 0.31401 0.0
C2065 C 0.18573 0.45162 0.31716 0.0
C2066 C 0.18025 0.45955 0.32999 0.0
C2067 C 0.1905 0.46741 0.33983 0.0
C2068 C 0.20625 0.46732 0.33688 0.0
C2069 C 0.21178 0.45941 0.32405 0.0
H2070 H 0.18624 0.47355 0.34976 0.0
H2071 H 0.23959 0.39549 0.22593 0.0
H2072 H 0.11976 0.0324 0.51065 0.0
H2073 H 0.14246 0.04856 0.51624 0.0
H2074 H 0.15539 0.04601 0.46882 0.0
H2075 H 0.13273 0.02989 0.46314 0.0
H2076 H 0.17998 0.04295 0.48595 0.0
H2077 H 0.13881 0.07832 0.48525 0.0
H2078 H 0.11386 0.089 0.49255 0.0
H2079 H 0.12902 0.094 0.53908 0.0
H2080 H 0.15401 0.08314 0.5321 0.0
H2081 H 0.23326 0.10548 0.48426 0.0
H2082 H 0.21166 0.08735 0.48081 0.0
H2083 H 0.2011 0.09193 0.52875 0.0
H2084 H 0.22262 0.11045 0.53207 0.0
H2085 H 0.17559 0.09322 0.51275 0.0
H2086 H 0.21754 0.05897 0.51256 0.0
H2087 H 0.24262 0.04905 0.50457 0.0
H2088 H 0.22604 0.04286 0.45861 0.0
H2089 H 0.20091 0.05294 0.46628 0.0
C2090 C 0.12736 0.03535 0.50137 0.0
C2091 C 0.12431 0.02979 0.48642 0.0
C2092 C 0.14039 0.04462 0.50459 0.0
C2093 C 0.15064 0.04872 0.49294 0.0
C2094 C 0.14774 0.04302 0.47805 0.0
C2095 C 0.13475 0.03372 0.47483 0.0
C2096 C 0.16438 0.05892 0.4962 0.0
C2097 C 0.17896 0.05404 0.49162 0.0
C2098 C 0.16324 0.07328 0.50394 0.0
C2099 C 0.14821 0.07973 0.50819 0.0
C2100 C 0.13677 0.08156 0.49707 0.0
C2101 C 0.12263 0.08768 0.50114 0.0
C2102 C 0.11984 0.09213 0.51628 0.0
C2103 C 0.13119 0.09051 0.52737 0.0
C2104 C 0.14535 0.08438 0.52336 0.0
C2105 C 0.22627 0.10264 0.49404 0.0
C2106 C 0.22928 0.1097 0.50833 0.0
C2107 C 0.21403 0.09211 0.49211 0.0
C2108 C 0.20469 0.08812 0.50452 0.0
C2109 C 0.20804 0.09483 0.51896 0.0
C2110 C 0.22035 0.10537 0.52088 0.0
C2111 C 0.19117 0.07741 0.50226 0.0
C2112 C 0.17662 0.08216 0.50706 0.0
C2113 C 0.19233 0.06301 0.4946 0.0
C2114 C 0.20738 0.05682 0.48998 0.0
C2115 C 0.21927 0.05558 0.50073 0.0
C2116 C 0.23349 0.04992 0.49626 0.0
C2117 C 0.23593 0.04536 0.48109 0.0
C2118 C 0.22413 0.04641 0.47036 0.0
C2119 C 0.2099 0.05208 0.47477 0.0
H2120 H 0.24695 0.04098 0.47765 0.0
H2121 H 0.10888 0.09687 0.5194 0.0
H2122 H 0.75412 0.13481 0.70514 0.0
H2123 H 0.73555 0.1135 0.70732 0.0
H2124 H 0.73422 0.12104 0.75608 0.0
H2125 H 0.75258 0.14235 0.75399 0.0
H2126 H 0.73762 0.09147 0.74944 0.0
H2127 H 0.70428 0.13081 0.73268 0.0
H2128 H 0.69532 0.15081 0.71566 0.0
H2129 H 0.69122 0.11782 0.6787 0.0
H2130 H 0.70036 0.09765 0.69545 0.0
H2131 H 0.67275 0.04709 0.77023 0.0
H2132 H 0.69154 0.06746 0.76513 0.0
H2133 H 0.68854 0.05658 0.71691 0.0
H2134 H 0.66931 0.0363 0.72209 0.0
H2135 H 0.68814 0.08677 0.72147 0.0
H2136 H 0.72027 0.04714 0.73873 0.0
H2137 H 0.72874 0.02714 0.75599 0.0
H2138 H 0.73488 0.0607 0.79221 0.0
H2139 H 0.72624 0.08088 0.77522 0.0
C2140 C 0.7497 0.13209 0.7163 0.0
C2141 C 0.75499 0.14029 0.72939 0.0
C2142 C 0.73908 0.11985 0.71754 0.0
C2143 C 0.73342 0.1156 0.73188 0.0
C2144 C 0.73847 0.12396 0.7449 0.0
C2145 C 0.74904 0.13616 0.74368 0.0
C2146 C 0.72266 0.10218 0.73351 0.0
C2147 C 0.72671 0.09056 0.74344 0.0
C2148 C 0.70861 0.10065 0.72537 0.0
C2149 C 0.70319 0.11277 0.71527 0.0
C2150 C 0.70161 0.12785 0.72088 0.0
C2151 C 0.69647 0.13921 0.71129 0.0
C2152 C 0.69275 0.1356 0.6961 0.0
C2153 C 0.69413 0.12061 0.69047 0.0
C2154 C 0.69929 0.10921 0.7 0.0
C2155 C 0.67605 0.04911 0.75854 0.0
C2156 C 0.66927 0.04047 0.74651 0.0
C2157 C 0.68695 0.06065 0.75563 0.0
C2158 C 0.69161 0.06358 0.74062 0.0
C2159 C 0.68512 0.05462 0.72858 0.0
C2160 C 0.67419 0.04302 0.73153 0.0
C2161 C 0.70297 0.07621 0.7376 0.0
C2162 C 0.69906 0.08765 0.72741 0.0
C2163 C 0.71717 0.07759 0.74551 0.0
C2164 C 0.72251 0.06551 0.75572 0.0
C2165 C 0.72334 0.05024 0.7504 0.0
C2166 C 0.72818 0.03887 0.76013 0.0
C2167 C 0.73232 0.04264 0.77519 0.0
C2168 C 0.73166 0.05779 0.78054 0.0
C2169 C 0.72682 0.06921 0.77086 0.0
H2170 H 0.73605 0.03382 0.78271 0.0
H2171 H 0.68876 0.14441 0.68869 0.0
H2172 H 0.39563 0.01994 0.51403 0.0
H2173 H 0.37335 0.03535 0.50803 0.0
H2174 H 0.38716 0.0685 0.54291 0.0
H2175 H 0.40912 0.05301 0.54924 0.0
H2176 H 0.35716 0.06297 0.54448 0.0
H2177 H 0.39276 0.0747 0.50424 0.0
H2178 H 0.40988 0.06872 0.48266 0.0
H2179 H 0.37194 0.04829 0.45763 0.0
H2180 H 0.35462 0.05398 0.47917 0.0
H2181 H 0.31276 0.12613 0.52657 0.0
H2182 H 0.33432 0.1092 0.5299 0.0
H2183 H 0.31617 0.07885 0.49443 0.0
H2184 H 0.29454 0.09596 0.49088 0.0
H2185 H 0.34718 0.08136 0.49239 0.0
H2186 H 0.31137 0.07045 0.53201 0.0
H2187 H 0.29411 0.07631 0.55351 0.0
H2188 H 0.33225 0.09472 0.57968 0.0
H2189 H 0.34972 0.08917 0.55825 0.0
C2190 C 0.39388 0.03046 0.5205 0.0
C2191 C 0.40432 0.03522 0.53207 0.0
C2192 C 0.38118 0.03936 0.51695 0.0
C2193 C 0.37859 0.05325 0.52488 0.0
C2194 C 0.38887 0.0579 0.53655 0.0
C2195 C 0.40156 0.04906 0.54007 0.0
C2196 C 0.36512 0.06292 0.52125 0.0
C2197 C 0.35512 0.06711 0.53311 0.0
C2198 C 0.36205 0.06801 0.50633 0.0
C2199 C 0.37243 0.06461 0.49338 0.0
C2200 C 0.3881 0.06882 0.49419 0.0
C2201 C 0.39783 0.06551 0.48195 0.0
C2202 C 0.39201 0.05809 0.4688 0.0
C2203 C 0.37643 0.05401 0.46784 0.0
C2204 C 0.36665 0.05729 0.48005 0.0
C2205 C 0.31337 0.11593 0.51935 0.0
C2206 C 0.30182 0.1124 0.50849 0.0
C2207 C 0.32572 0.10618 0.52134 0.0
C2208 C 0.3268 0.09253 0.51264 0.0
C2209 C 0.3156 0.08925 0.50136 0.0
C2210 C 0.30322 0.09906 0.49933 0.0
C2211 C 0.33941 0.08162 0.51568 0.0
C2212 C 0.34921 0.07716 0.50373 0.0
C2213 C 0.34229 0.07622 0.53052 0.0
C2214 C 0.33183 0.07952 0.54346 0.0
C2215 C 0.31606 0.07585 0.54231 0.0
C2216 C 0.30624 0.0791 0.55449 0.0
C2217 C 0.31207 0.08591 0.56794 0.0
C2218 C 0.32775 0.08946 0.56925 0.0
C2219 C 0.33761 0.08625 0.55709 0.0
H2220 H 0.30445 0.08842 0.57736 0.0
H2221 H 0.39957 0.05554 0.45934 0.0
H2222 H 0.64125 0.50761 0.55132 0.0
H2223 H 0.66262 0.49103 0.54489 0.0
H2224 H 0.63209 0.46145 0.51824 0.0
H2225 H 0.61055 0.47771 0.52502 0.0
H2226 H 0.65044 0.44467 0.53479 0.0
H2227 H 0.6576 0.48661 0.50128 0.0
H2228 H 0.66064 0.51367 0.49439 0.0
H2229 H 0.70135 0.51803 0.52201 0.0
H2230 H 0.69843 0.49103 0.52923 0.0
H2231 H 0.72351 0.425 0.48718 0.0
H2232 H 0.70207 0.44156 0.49325 0.0
H2233 H 0.70203 0.42598 0.53952 0.0
H2234 H 0.7234 0.4092 0.53351 0.0
H2235 H 0.69856 0.46515 0.51217 0.0
H2236 H 0.66529 0.42582 0.55329 0.0
H2237 H 0.66132 0.39829 0.55782 0.0
H2238 H 0.67116 0.38789 0.51078 0.0
H2239 H 0.67498 0.41536 0.50593 0.0
C2240 C 0.63902 0.49754 0.54415 0.0
C2241 C 0.62408 0.49408 0.53869 0.0
C2242 C 0.65133 0.48811 0.54037 0.0
C2243 C 0.64908 0.475 0.53094 0.0
C2244 C 0.63419 0.47149 0.5255 0.0
C2245 C 0.62187 0.48092 0.52927 0.0
C2246 C 0.66219 0.46489 0.52688 0.0
C2247 C 0.66096 0.44919 0.52988 0.0
C2248 C 0.67591 0.47062 0.52024 0.0
C2249 C 0.67771 0.48684 0.51591 0.0
C2250 C 0.66713 0.49337 0.50598 0.0
C2251 C 0.66885 0.50869 0.502 0.0
C2252 C 0.68116 0.51758 0.50779 0.0
C2253 C 0.69181 0.51114 0.51755 0.0
C2254 C 0.69014 0.49583 0.52158 0.0
C2255 C 0.719 0.42506 0.49868 0.0
C2256 C 0.72526 0.41565 0.50982 0.0
C2257 C 0.70671 0.43461 0.50215 0.0
C2258 C 0.70026 0.43499 0.51682 0.0
C2259 C 0.7066 0.42578 0.52804 0.0
C2260 C 0.7189 0.4162 0.52459 0.0
C2261 C 0.68689 0.44498 0.52029 0.0
C2262 C 0.68807 0.46065 0.51717 0.0
C2263 C 0.67302 0.43918 0.52656 0.0
C2264 C 0.67058 0.42264 0.5293 0.0
C2265 C 0.66655 0.41766 0.54391 0.0
C2266 C 0.66434 0.40206 0.54653 0.0
C2267 C 0.66604 0.39134 0.53461 0.0
C2268 C 0.66991 0.3962 0.52002 0.0
C2269 C 0.67211 0.41178 0.51733 0.0
H2270 H 0.66433 0.37927 0.53666 0.0
H2271 H 0.68247 0.52943 0.5047 0.0
H2272 H 0.69636 0.27345 0.39029 0.0
H2273 H 0.70202 0.29014 0.4124 0.0
H2274 H 0.75029 0.28909 0.40187 0.0
H2275 H 0.7447 0.27241 0.37957 0.0
H2276 H 0.74582 0.28675 0.43213 0.0
H2277 H 0.72891 0.32015 0.39346 0.0
H2278 H 0.71159 0.32954 0.37366 0.0
H2279 H 0.67588 0.33489 0.40689 0.0
H2280 H 0.69292 0.32532 0.42686 0.0
H2281 H 0.76928 0.35121 0.47824 0.0
H2282 H 0.76371 0.33259 0.45758 0.0
H2283 H 0.71533 0.33501 0.46751 0.0
H2284 H 0.72097 0.35401 0.48806 0.0
H2285 H 0.71971 0.33636 0.43774 0.0
H2286 H 0.73725 0.30337 0.47658 0.0
H2287 H 0.75506 0.29453 0.49624 0.0
H2288 H 0.79026 0.2891 0.46248 0.0
H2289 H 0.77272 0.2981 0.44264 0.0
C2290 C 0.70819 0.27683 0.39256 0.0
C2291 C 0.72004 0.27166 0.38296 0.0
C2292 C 0.71141 0.28638 0.40528 0.0
C2293 C 0.72657 0.29113 0.40873 0.0
C2294 C 0.73849 0.28564 0.39946 0.0
C2295 C 0.73527 0.27605 0.38671 0.0
C2296 C 0.72988 0.30193 0.42189 0.0
C2297 C 0.74027 0.29769 0.43324 0.0
C2298 C 0.72243 0.31611 0.42359 0.0
C2299 C 0.71214 0.32185 0.41161 0.0
C2300 C 0.71732 0.3232 0.39651 0.0
C2301 C 0.70756 0.32858 0.38527 0.0
C2302 C 0.69263 0.33277 0.389 0.0
C2303 C 0.68744 0.33162 0.40401 0.0
C2304 C 0.69714 0.32622 0.41529 0.0
C2305 C 0.75745 0.3478 0.47595 0.0
C2306 C 0.7455 0.35437 0.48439 0.0
C2307 C 0.75428 0.33699 0.46426 0.0
C2308 C 0.73908 0.33225 0.46095 0.0
C2309 C 0.72715 0.33849 0.46975 0.0
C2310 C 0.73035 0.34931 0.4815 0.0
C2311 C 0.73567 0.32123 0.44799 0.0
C2312 C 0.72527 0.32543 0.43666 0.0
C2313 C 0.74318 0.30707 0.44628 0.0
C2314 C 0.75371 0.30153 0.45815 0.0
C2315 C 0.74882 0.30038 0.47337 0.0
C2316 C 0.75886 0.29533 0.48454 0.0
C2317 C 0.77379 0.29129 0.48062 0.0
C2318 C 0.77869 0.29224 0.4655 0.0
C2319 C 0.7687 0.2973 0.45429 0.0
H2320 H 0.78154 0.28738 0.48928 0.0
H2321 H 0.68509 0.33694 0.38028 0.0
H2322 H 0.54375 0.01625 0.91166 0.0
H2323 H 0.55897 0.00915 0.88926 0.0
H2324 H 0.53756 0.04438 0.86368 0.0
H2325 H 0.52189 0.05112 0.88577 0.0
H2326 H 0.54023 0.0199 0.84609 0.0
H2327 H 0.5744 0.04874 0.87985 0.0
H2328 H 0.58809 0.05461 0.90403 0.0
H2329 H 0.60988 0.01109 0.90115 0.0
H2330 H 0.59616 1.00489 0.87704 0.0
H2331 H 0.59337 0.03748 0.78863 0.0
H2332 H 0.57687 0.03673 0.81092 0.0
H2333 H 0.60097 0.9978 0.82718 0.0
H2334 H 0.6178 0.99852 0.80466 0.0
H2335 H 0.59705 0.02007 0.84984 0.0
H2336 H 0.56483 0.99302 0.81383 0.0
H2337 H 0.55167 0.98842 0.78916 0.0
H2338 H 0.52647 0.02965 0.79586 0.0
H2339 H 0.53964 0.03463 0.82048 0.0
C2340 C 0.54209 0.02236 0.90122 0.0
C2341 C 0.53161 0.03437 0.90066 0.0
C2342 C 0.55096 0.01838 0.88842 0.0
C2343 C 0.54966 0.02637 0.87475 0.0
C2344 C 0.53889 0.03806 0.87405 0.0
C2345 C 0.53001 0.04201 0.8868 0.0
C2346 C 0.55962 0.02284 0.86124 0.0
C2347 C 0.55265 0.02004 0.84693 0.0
C2348 C 0.57586 0.02257 0.86227 0.0
C2349 C 0.58411 0.02628 0.87675 0.0
C2350 C 0.58201 0.04038 0.88445 0.0
C2351 C 0.5898 0.04377 0.89812 0.0
C2352 C 0.59981 0.03321 0.90415 0.0
C2353 C 0.60209 0.01924 0.89649 0.0
C2354 C 0.59432 0.01579 0.88282 0.0
C2355 C 0.59515 0.02862 0.79682 0.0
C2356 C 0.60698 0.01804 0.79477 0.0
C2357 C 0.58561 0.02818 0.80959 0.0
C2358 C 0.58753 0.01714 0.82074 0.0
C2359 C 0.5992 1.0064 0.81872 0.0
C2360 C 0.60876 1.00676 0.80578 0.0
C2361 C 0.57765 0.01743 0.83468 0.0
C2362 C 0.58462 0.01967 0.84906 0.0
C2363 C 0.56141 0.01729 0.8337 0.0
C2364 C 0.5533 0.01424 0.81898 0.0
C2365 C 0.55655 1.00116 0.81001 0.0
C2366 C 0.54908 0.99848 0.79603 0.0
C2367 C 0.53826 0.00875 0.79093 0.0
C2368 C 0.53486 0.02171 0.79982 0.0
C2369 C 0.5423 0.02445 0.8138 0.0
H2370 H 0.5325 1.00666 0.7801 0.0
H2371 H 0.60583 0.03586 0.91474 0.0
H2372 H 0.31554 0.24442 0.3738 0.0
H2373 H 0.31403 0.22592 0.39433 0.0
H2374 H 0.27559 0.2497 0.41368 0.0
H2375 H 0.27734 0.26842 0.39358 0.0
H2376 H 0.2944 0.24211 0.43571 0.0
H2377 H 0.27135 0.2158 0.3921 0.0
H2378 H 0.27052 0.2052 0.36577 0.0
H2379 H 0.30859 0.17667 0.37555 0.0
H2380 H 0.30978 0.18725 0.40191 0.0
H2381 H 0.25278 0.18788 0.47769 0.0
H2382 H 0.26268 0.2058 0.45911 0.0
H2383 H 0.30219 0.17777 0.45181 0.0
H2384 H 0.29228 0.15964 0.47075 0.0
H2385 H 0.28749 0.18654 0.42432 0.0
H2386 H 0.30779 0.21084 0.46941 0.0
H2387 H 0.30735 0.22117 0.49582 0.0
H2388 H 0.27338 0.25341 0.48329 0.0
H2389 H 0.27343 0.24313 0.45684 0.0
C2390 C 0.30685 0.2458 0.3825 0.0
C2391 C 0.29648 0.25791 0.38189 0.0
C2392 C 0.30591 0.23511 0.39419 0.0
C2393 C 0.29457 0.23624 0.40555 0.0
C2394 C 0.28442 0.24848 0.40509 0.0
C2395 C 0.28534 0.25913 0.39345 0.0
C2396 C 0.29307 0.22474 0.41788 0.0
C2397 C 0.29281 0.22998 0.43317 0.0
C2398 C 0.29145 0.20879 0.41473 0.0
C2399 C 0.29078 0.20246 0.3989 0.0
C2400 C 0.27963 0.20737 0.38859 0.0
C2401 C 0.27908 0.20134 0.37368 0.0
C2402 C 0.28953 0.19031 0.36898 0.0
C2403 C 0.30053 0.18524 0.3792 0.0
C2404 C 0.30115 0.19125 0.39413 0.0
C2405 C 0.26368 0.18556 0.4723 0.0
C2406 C 0.27174 0.1723 0.47575 0.0
C2407 C 0.26936 0.19588 0.46167 0.0
C2408 C 0.28322 0.19322 0.45405 0.0
C2409 C 0.29147 0.18009 0.45756 0.0
C2410 C 0.28587 0.1698 0.46847 0.0
C2411 C 0.28848 0.20399 0.44205 0.0
C2412 C 0.28938 0.19864 0.42685 0.0
C2413 C 0.29059 0.21986 0.44525 0.0
C2414 C 0.29055 0.22614 0.46115 0.0
C2415 C 0.30013 0.22006 0.4723 0.0
C2416 C 0.29997 0.22592 0.48728 0.0
C2417 C 0.29033 0.23792 0.49124 0.0
C2418 C 0.28084 0.24411 0.48021 0.0
C2419 C 0.28095 0.23828 0.46522 0.0
H2420 H 0.29022 0.24245 0.50284 0.0
H2421 H 0.28908 0.18565 0.35743 0.0
H2422 H 0.47803 0.50514 0.91579 0.0
H2423 H 0.46317 0.51184 0.89331 0.0
H2424 H 0.49056 0.48185 0.86531 0.0
H2425 H 0.5055 0.47515 0.88772 0.0
H2426 H 0.48575 0.50725 0.85061 0.0
H2427 H 0.4536 0.47172 0.87764 0.0
H2428 H 0.43941 0.46191 0.89978 0.0
H2429 H 0.41231 0.50231 0.90138 0.0
H2430 H 0.42649 0.51246 0.87936 0.0
H2431 H 0.43714 0.49024 0.78762 0.0
H2432 H 0.45296 0.49074 0.81056 0.0
H2433 H 0.42377 0.52453 0.83123 0.0
H2434 H 0.40769 0.52406 0.80806 0.0
H2435 H 0.42907 0.5005 0.85033 0.0
H2436 H 0.45989 0.53451 0.82101 0.0
H2437 H 0.47385 0.54326 0.7983 0.0
H2438 H 0.50336 0.50471 0.80047 0.0
H2439 H 0.48943 0.4956 0.82308 0.0
C2440 C 0.48087 0.4999 0.90487 0.0
C2441 C 0.49297 0.48952 0.90366 0.0
C2442 C 0.47234 0.50376 0.89198 0.0
C2443 C 0.47553 0.49722 0.87755 0.0
C2444 C 0.48782 0.48711 0.87626 0.0
C2445 C 0.49641 0.48331 0.88912 0.0
C2446 C 0.466 0.50067 0.86384 0.0
C2447 C 0.47337 0.50565 0.85055 0.0
C2448 C 0.44976 0.49901 0.86375 0.0
C2449 C 0.44122 0.49293 0.87697 0.0
C2450 C 0.44469 0.47857 0.88279 0.0
C2451 C 0.43664 0.47293 0.89531 0.0
C2452 C 0.425 0.4815 0.90202 0.0
C2453 C 0.42135 0.4957 0.89619 0.0
C2454 C 0.42939 0.5014 0.88369 0.0
C2455 C 0.43417 0.49799 0.79693 0.0
C2456 C 0.42112 0.50714 0.79594 0.0
C2457 C 0.4433 0.49829 0.81007 0.0
C2458 C 0.43967 0.50772 0.82267 0.0
C2459 C 0.42685 0.51718 0.82165 0.0
C2460 C 0.41774 0.517 0.80835 0.0
C2461 C 0.44885 0.50688 0.83707 0.0
C2462 C 0.44143 0.50232 0.85048 0.0
C2463 C 0.46505 0.50882 0.83723 0.0
C2464 C 0.47354 0.51431 0.82369 0.0
C2465 C 0.46929 0.52783 0.81659 0.0
C2466 C 0.47721 0.53287 0.80374 0.0
C2467 C 0.48947 0.52453 0.79793 0.0
C2468 C 0.49386 0.51116 0.80498 0.0
C2469 C 0.48597 0.50606 0.81783 0.0
H2470 H 0.49558 0.52845 0.78798 0.0
H2471 H 0.41877 0.47712 0.9117 0.0
H2472 H 0.73786 0.73706 0.15234 0.0
H2473 H 0.74329 0.72084 0.12996 0.0
H2474 H 0.71236 0.74699 0.10303 0.0
H2475 H 0.70657 0.76304 0.12546 0.0
H2476 H 0.70774 0.71676 0.0976 0.0
H2477 H 0.75144 0.75121 0.09945 0.0
H2478 H 0.77382 0.76461 0.1113 0.0
H2479 H 0.79486 0.72156 0.11906 0.0
H2480 H 0.7725 0.70789 0.10743 0.0
H2481 H 0.72866 0.68555 0.02539 0.0
H2482 H 0.7244 0.70319 0.04692 0.0
H2483 H 0.75697 0.67902 0.07388 0.0
H2484 H 0.76161 0.66156 0.05227 0.0
H2485 H 0.76077 0.7086 0.07913 0.0
H2486 H 0.71733 0.674 0.07782 0.0
H2487 H 0.69519 0.66023 0.06593 0.0
H2488 H 0.67366 0.70293 0.05765 0.0
H2489 H 0.69581 0.71697 0.06925 0.0
C2490 C 0.73215 0.73935 0.14168 0.0
C2491 C 0.72178 0.75142 0.14077 0.0
C2492 C 0.73538 0.73013 0.12883 0.0
C2493 C 0.72835 0.73273 0.1147 0.0
C2494 C 0.71797 0.74474 0.11375 0.0
C2495 C 0.71478 0.75402 0.12659 0.0
C2496 C 0.73162 0.72279 0.101 0.0
C2497 C 0.71932 0.71516 0.09344 0.0
C2498 C 0.74676 0.72033 0.09574 0.0
C2499 C 0.76023 0.72852 0.1027 0.0
C2500 C 0.76078 0.7446 0.10379 0.0
C2501 C 0.77347 0.75224 0.11045 0.0
C2502 C 0.78574 0.74394 0.11597 0.0
C2503 C 0.78535 0.72797 0.1148 0.0
C2504 C 0.77267 0.72027 0.10816 0.0
C2505 C 0.735 0.68399 0.03585 0.0
C2506 C 0.74545 0.67202 0.03703 0.0
C2507 C 0.73247 0.69408 0.04823 0.0
C2508 C 0.74015 0.69234 0.0622 0.0
C2509 C 0.75086 0.68063 0.06328 0.0
C2510 C 0.75348 0.67061 0.05088 0.0
C2511 C 0.73689 0.70256 0.07571 0.0
C2512 C 0.74918 0.71021 0.08326 0.0
C2513 C 0.72175 0.70497 0.08103 0.0
C2514 C 0.7083 0.69654 0.07427 0.0
C2515 C 0.70792 0.68046 0.07338 0.0
C2516 C 0.69536 0.6726 0.0667 0.0
C2517 C 0.68304 0.6807 0.06101 0.0
C2518 C 0.68323 0.69667 0.06204 0.0
C2519 C 0.69578 0.70459 0.06867 0.0
H2520 H 0.67334 0.67459 0.05584 0.0
H2521 H 0.79555 0.74988 0.12111 0.0
H2522 H 0.97962 0.02284 0.11112 0.0
H2523 H 0.96374 0.01624 0.13306 0.0
H2524 H 0.99352 0.04377 0.16255 0.0
H2525 H 0.00974 0.05001 0.14075 0.0
H2526 H 0.98572 0.01823 0.17638 0.0
H2527 H 0.95856 0.05682 0.15032 0.0
H2528 H 0.94628 0.06872 0.12834 0.0
H2529 H 0.91458 0.03056 0.12387 0.0
H2530 H 0.92681 0.01832 0.14571 0.0
H2531 H 0.91155 0.03127 0.22511 0.0
H2532 H 0.92846 0.03773 0.20388 0.0
H2533 H 0.94481 0.99157 0.20224 0.0
H2534 H 0.92806 0.98502 0.22352 0.0
H2535 H 0.9298 0.02764 0.17505 0.0
H2536 H 0.98233 0.99178 0.19093 0.0
H2537 H 0.99504 0.98237 0.21395 0.0
H2538 H 0.97669 0.01947 0.24064 0.0
H2539 H 0.96406 0.02922 0.21775 0.0
C2540 C 0.98295 0.02734 0.12229 0.0
C2541 C 0.99599 0.03704 0.12406 0.0
C2542 C 0.97373 0.02367 0.13484 0.0
C2543 C 0.97724 0.02966 0.14951 0.0
C2544 C 0.99047 0.03903 0.15139 0.0
C2545 C 0.99969 0.0427 0.13884 0.0
C2546 C 0.96707 0.02637 0.16285 0.0
C2547 C 0.97348 0.02025 0.17603 0.0
C2548 C 0.95111 0.02925 0.16265 0.0
C2549 C 0.9437 0.03659 0.14955 0.0
C2550 C 0.94905 0.05091 0.14458 0.0
C2551 C 0.94208 0.05772 0.13216 0.0
C2552 C 0.92968 0.05038 0.12469 0.0
C2553 C 0.9242 0.03622 0.12966 0.0
C2554 C 0.93113 0.02935 0.14206 0.0
C2555 C 0.91878 0.02247 0.22031 0.0
C2556 C 0.91842 1.00761 0.22618 0.0
C2557 C 0.92842 0.02619 0.20808 0.0
C2558 C 0.93806 0.0152 0.20146 0.0
C2559 C 0.93769 1.00034 0.20724 0.0
C2560 C 0.92803 0.9966 0.21944 0.0
C2561 C 0.9484 0.01925 0.18847 0.0
C2562 C 0.94201 0.02553 0.17535 0.0
C2563 C 0.96443 0.01679 0.18885 0.0
C2564 C 0.97212 0.01112 0.20265 0.0
C2565 C 0.98106 0.99796 0.2017 0.0
C2566 C 0.98824 0.99256 0.21473 0.0
C2567 C 0.98663 1.00029 0.22876 0.0
C2568 C 0.97788 0.01346 0.22978 0.0
C2569 C 0.97069 0.01891 0.21679 0.0
H2570 H 0.99219 0.99609 0.23883 0.0
H2571 H 0.92431 0.05567 0.11508 0.0
H2572 H 0.31209 0.75442 0.11973 0.0
H2573 H 0.30826 0.77379 0.10056 0.0
H2574 H 0.28644 0.80267 0.13423 0.0
H2575 H 0.28979 0.78313 0.15337 0.0
H2576 H 0.27023 0.80178 0.10842 0.0
H2577 H 0.32336 0.81037 0.12121 0.0
H2578 H 0.35029 0.80321 0.12503 0.0
H2579 H 0.35327 0.78882 0.07797 0.0
H2580 H 0.32629 0.7957 0.07391 0.0
H2581 H 0.26731 0.86855 0.06504 0.0
H2582 H 0.27386 0.85043 0.08465 0.0
H2583 H 0.29617 0.8221 0.05082 0.0
H2584 H 0.2899 0.84043 0.03113 0.0
H2585 H 0.31239 0.8227 0.07665 0.0
H2586 H 0.25945 0.81351 0.06382 0.0
H2587 H 0.23244 0.82024 0.05974 0.0
H2588 H 0.22899 0.83517 0.10661 0.0
H2589 H 0.25606 0.82872 0.11092 0.0
C2590 C 0.30643 0.76486 0.12309 0.0
C2591 C 0.30126 0.76714 0.13818 0.0
C2592 C 0.30438 0.77604 0.11211 0.0
C2593 C 0.29718 0.78984 0.11591 0.0
C2594 C 0.29207 0.79218 0.13097 0.0
C2595 C 0.29413 0.78102 0.14197 0.0
C2596 C 0.29454 0.8016 0.10411 0.0
C2597 C 0.27951 0.80652 0.10166 0.0
C2598 C 0.30652 0.80752 0.09489 0.0
C2599 C 0.32276 0.80341 0.09729 0.0
C2600 C 0.32972 0.80556 0.1117 0.0
C2601 C 0.345 0.80158 0.11391 0.0
C2602 C 0.35347 0.79553 0.10176 0.0
C2603 C 0.34669 0.79349 0.08737 0.0
C2604 C 0.33141 0.79744 0.08511 0.0
C2605 C 0.27374 0.85854 0.06176 0.0
C2606 C 0.27801 0.85593 0.04646 0.0
C2607 C 0.27741 0.84811 0.07301 0.0
C2608 C 0.28526 0.83467 0.06924 0.0
C2609 C 0.29005 0.83232 0.05406 0.0
C2610 C 0.28645 0.84282 0.04279 0.0
C2611 C 0.2881 0.82294 0.08104 0.0
C2612 C 0.30313 0.81799 0.08345 0.0
C2613 C 0.27611 0.81693 0.0902 0.0
C2614 C 0.25982 0.82077 0.08765 0.0
C2615 C 0.25296 0.81833 0.07323 0.0
C2616 C 0.23764 0.82208 0.07088 0.0
C2617 C 0.22902 0.82817 0.0829 0.0
C2618 C 0.23569 0.83048 0.09731 0.0
C2619 C 0.25102 0.82677 0.09971 0.0
H2620 H 0.21715 0.83106 0.08106 0.0
H2621 H 0.3653 0.79245 0.10349 0.0
H2622 H 0.04223 0.46414 0.12126 0.0
H2623 H 0.05754 0.47076 0.14392 0.0
H2624 H 0.04064 0.51671 0.14367 0.0
H2625 H 0.02557 0.51026 0.12064 0.0
H2626 H 0.07102 0.51717 0.1488 0.0
H2627 H 0.02768 0.49061 0.16973 0.0
H2628 H 0.00883 0.4694 0.17236 0.0
H2629 H 0.04509 0.43898 0.18309 0.0
H2630 H 0.0642 0.45997 0.18032 0.0
H2631 H 0.09723 0.53957 0.22292 0.0
H2632 H 0.08117 0.53279 0.20084 0.0
H2633 H 0.0988 0.48713 0.20019 0.0
H2634 H 0.11488 0.49376 0.22247 0.0
H2635 H 0.06791 0.4866 0.19565 0.0
H2636 H 0.11123 0.51324 0.17455 0.0
H2637 H 0.12998 0.53459 0.17225 0.0
H2638 H 0.09356 0.56499 0.16199 0.0
H2639 H 0.07455 0.54386 0.16445 0.0
C2640 C 0.0418 0.4757 0.12593 0.0
C2641 C 0.03264 0.48667 0.11901 0.0
C2642 C 0.05048 0.47944 0.13904 0.0
C2643 C 0.05019 0.49421 0.14568 0.0
C2644 C 0.04106 0.50521 0.13882 0.0
C2645 C 0.03233 0.50147 0.12571 0.0
C2646 C 0.05962 0.49822 0.15958 0.0
C2647 C 0.07015 0.51061 0.15911 0.0
C2648 C 0.05884 0.48948 0.17299 0.0
C2649 C 0.04739 0.47683 0.17467 0.0
C2650 C 0.03165 0.47937 0.17253 0.0
C2651 C 0.02091 0.46739 0.17407 0.0
C2652 C 0.02576 0.45284 0.17785 0.0
C2653 C 0.04135 0.45025 0.18014 0.0
C2654 C 0.05214 0.46218 0.1786 0.0
C2655 C 0.09773 0.52805 0.21815 0.0
C2656 C 0.10746 0.51724 0.22455 0.0
C2657 C 0.08854 0.52421 0.20542 0.0
C2658 C 0.08885 0.50948 0.19867 0.0
C2659 C 0.09835 0.49858 0.20514 0.0
C2660 C 0.1076 0.50242 0.21788 0.0
C2661 C 0.07928 0.50554 0.18485 0.0
C2662 C 0.06875 0.49316 0.18534 0.0
C2663 C 0.08004 0.5143 0.17147 0.0
C2664 C 0.09145 0.527 0.16983 0.0
C2665 C 0.10721 0.52451 0.17191 0.0
C2666 C 0.11788 0.53656 0.17057 0.0
C2667 C 0.11296 0.55115 0.16702 0.0
C2668 C 0.09735 0.55369 0.16476 0.0
C2669 C 0.08662 0.54167 0.16612 0.0
H2670 H 0.12124 0.56047 0.16598 0.0
H2671 H 0.01743 0.44358 0.17903 0.0
H2672 H 0.40813 0.7342 0.25117 0.0
H2673 H 0.42655 0.7369 0.2722 0.0
H2674 H 0.39298 0.71785 0.30284 0.0
H2675 H 0.37433 0.71564 0.28202 0.0
H2676 H 0.40514 0.74299 0.31475 0.0
H2677 H 0.42546 0.69795 0.29073 0.0
H2678 H 0.43584 0.68249 0.2694 0.0
H2679 H 0.47338 0.7147 0.26493 0.0
H2680 H 0.46312 0.73047 0.28611 0.0
H2681 H 0.47971 0.72094 0.36121 0.0
H2682 H 0.45891 0.71603 0.34273 0.0
H2683 H 0.44949 0.76424 0.34303 0.0
H2684 H 0.46959 0.76892 0.3621 0.0
H2685 H 0.45833 0.72428 0.31542 0.0
H2686 H 0.42608 0.77294 0.33247 0.0
H2687 H 0.40833 0.78723 0.34907 0.0
H2688 H 0.38901 0.74497 0.36496 0.0
H2689 H 0.40737 0.7305 0.34919 0.0
C2690 C 0.40463 0.73058 0.26238 0.0
C2691 C 0.38962 0.72478 0.26484 0.0
C2692 C 0.41529 0.73196 0.27439 0.0
C2693 C 0.41126 0.72749 0.28916 0.0
C2694 C 0.39643 0.72136 0.29157 0.0
C2695 C 0.38577 0.71999 0.27958 0.0
C2696 C 0.422 0.73024 0.30236 0.0
C2697 C 0.41677 0.73878 0.31493 0.0
C2698 C 0.43723 0.72495 0.30261 0.0
C2699 C 0.44344 0.71546 0.28991 0.0
C2700 C 0.43587 0.7018 0.28512 0.0
C2701 C 0.44174 0.69297 0.27307 0.0
C2702 C 0.45524 0.69763 0.26579 0.0
C2703 C 0.46292 0.71111 0.27057 0.0
C2704 C 0.45709 0.71999 0.28261 0.0
C2705 C 0.47284 0.73039 0.35765 0.0
C2706 C 0.47609 0.74526 0.36335 0.0
C2707 C 0.46093 0.72762 0.34703 0.0
C2708 C 0.45219 0.73969 0.34148 0.0
C2709 C 0.45535 0.75454 0.34742 0.0
C2710 C 0.46705 0.75726 0.35829 0.0
C2711 C 0.44139 0.73686 0.32819 0.0
C2712 C 0.44669 0.72839 0.31541 0.0
C2713 C 0.42611 0.74216 0.32773 0.0
C2714 C 0.41865 0.75068 0.34028 0.0
C2715 C 0.41863 0.76674 0.34015 0.0
C2716 C 0.40831 0.77486 0.34924 0.0
C2717 C 0.39757 0.76701 0.3581 0.0
C2718 C 0.39739 0.75104 0.35817 0.0
C2719 C 0.40801 0.74289 0.34945 0.0
H2720 H 0.38939 0.7733 0.36492 0.0
H2721 H 0.45977 0.69077 0.25647 0.0
H2722 H 0.98515 0.4125 0.96697 0.0
H2723 H 0.99136 0.38928 0.95244 0.0
H2724 H 1.00156 0.36658 0.99422 0.0
H2725 H 0.99518 0.38978 0.00892 0.0
H2726 H 0.02207 0.35879 0.97127 0.0
H2727 H 0.9673 0.36069 0.97768 0.0
H2728 H 0.94187 0.37242 0.97625 0.0
H2729 H 0.94635 0.37565 0.92766 0.0
H2730 H 0.97191 0.36413 0.92885 0.0
H2731 H 0.98519 0.28513 0.93263 0.0
H2732 H 0.98492 0.30849 0.94818 0.0
H2733 H 0.02527 0.32534 0.92507 0.0
H2734 H 0.02569 0.30166 0.90931 0.0
H2735 H 0.98027 0.33631 0.93876 0.0
H2736 H 0.04398 0.35182 0.95036 0.0
H2737 H 0.06872 0.33902 0.95337 0.0
H2738 H 0.0451 0.29857 0.96855 0.0
H2739 H 0.02026 0.3112 0.96582 0.0
C2740 C 0.98869 0.40259 0.97313 0.0
C2741 C 0.98942 0.40303 0.98919 0.0
C2742 C 0.99233 0.38931 0.96476 0.0
C2743 C 0.99677 0.37607 0.9722 0.0
C2744 C 0.9982 0.37664 0.98818 0.0
C2745 C 0.99454 0.38995 0.99659 0.0
C2746 C 0.99888 0.36141 0.96337 0.0
C2747 C 0.01296 0.3539 0.96411 0.0
C2748 C 0.98697 0.35486 0.95413 0.0
C2749 C 0.97157 0.36169 0.95338 0.0
C2750 C 0.9629 0.364 0.96671 0.0
C2751 C 0.94847 0.3706 0.96594 0.0
C2752 C 0.94252 0.37481 0.95188 0.0
C2753 C 0.95098 0.3724 0.93855 0.0
C2754 C 0.96544 0.36583 0.93926 0.0
C2755 C 0.99417 0.29368 0.93088 0.0
C2756 C 1.00542 0.29147 0.91957 0.0
C2757 C 0.99395 0.30711 0.93982 0.0
C2758 C 1.00498 0.31881 0.9378 0.0
C2759 C 0.01666 0.31647 0.92695 0.0
C2760 C 0.01691 0.3029 0.91794 0.0
C2761 C 1.00351 0.33363 0.94655 0.0
C2762 C 0.98949 0.34122 0.94578 0.0
C2763 C 0.0154 0.34008 0.95589 0.0
C2764 C 0.03026 0.33241 0.95771 0.0
C2765 C 0.04408 0.34021 0.95438 0.0
C2766 C 0.05811 0.33298 0.95603 0.0
C2767 C 0.05848 0.31797 0.96109 0.0
C2768 C 0.0448 0.31018 0.96456 0.0
C2769 C 0.03074 0.31736 0.96294 0.0
H2770 H 0.06935 0.31239 0.96235 0.0
H2771 H 0.93134 0.37991 0.9513 0.0
H2772 H 0.62326 0.81597 0.25935 0.0
H2773 H 0.60209 0.8101 0.27665 0.0
H2774 H 0.63171 0.78153 0.30251 0.0
H2775 H 0.65294 0.78736 0.28527 0.0
H2776 H 0.60442 0.76789 0.29894 0.0
H2777 H 0.62204 0.81824 0.315 0.0
H2778 H 0.62884 0.84547 0.31164 0.0
H2779 H 0.58275 0.85399 0.29721 0.0
H2780 H 0.57573 0.82676 0.3003 0.0
H2781 H 0.56178 0.76105 0.3666 0.0
H2782 H 0.58129 0.76789 0.34795 0.0
H2783 H 0.5484 0.79457 0.32398 0.0
H2784 H 0.52871 0.78787 0.34287 0.0
H2785 H 0.57614 0.8093 0.32548 0.0
H2786 H 0.55828 0.75908 0.31043 0.0
H2787 H 0.55154 0.73186 0.31389 0.0
H2788 H 0.59814 0.72307 0.32639 0.0
H2789 H 0.60512 0.75029 0.32321 0.0
C2790 C 0.62533 0.80851 0.26876 0.0
C2791 C 0.63991 0.80222 0.27089 0.0
C2792 C 0.61317 0.80515 0.27868 0.0
C2793 C 0.61528 0.79552 0.2911 0.0
C2794 C 0.62972 0.78898 0.29306 0.0
C2795 C 0.64188 0.7923 0.28312 0.0
C2796 C 0.60249 0.79226 0.30203 0.0
C2797 C 0.59838 0.77697 0.30486 0.0
C2798 C 0.59423 0.80405 0.30952 0.0
C2799 C 0.59841 0.82043 0.30773 0.0
C2800 C 0.61339 0.8259 0.31101 0.0
C2801 C 0.61728 0.84134 0.30917 0.0
C2802 C 0.60625 0.85145 0.30418 0.0
C2803 C 0.59129 0.84615 0.30106 0.0
C2804 C 0.58735 0.83071 0.30286 0.0
C2805 C 0.55864 0.76844 0.35742 0.0
C2806 C 0.5436 0.77384 0.35623 0.0
C2807 C 0.56985 0.77228 0.34667 0.0
C2808 C 0.56632 0.78153 0.33433 0.0
C2809 C 0.55143 0.78735 0.33333 0.0
C2810 C 0.54016 0.7835 0.34414 0.0
C2811 C 0.57821 0.78494 0.3225 0.0
C2812 C 0.58214 0.80024 0.3195 0.0
C2813 C 0.58633 0.77316 0.31484 0.0
C2814 C 0.58219 0.75676 0.31671 0.0
C2815 C 0.56707 0.75136 0.31402 0.0
C2816 C 0.56321 0.73593 0.31592 0.0
C2817 C 0.5744 0.72575 0.32039 0.0
C2818 C 0.58948 0.73097 0.32294 0.0
C2819 C 0.5934 0.7464 0.32108 0.0
H2820 H 0.57139 0.7138 0.32185 0.0
H2821 H 0.60928 0.86339 0.30276 0.0
H2822 H 0.05816 0.11822 0.97767 0.0
H2823 H 0.05115 0.13965 0.96199 0.0
H2824 H 0.01197 0.1479 0.99071 0.0
H2825 H 0.01896 0.1264 1.00656 0.0
H2826 H 1.00434 0.15043 0.96111 0.0
H2827 H 0.04499 0.17065 0.9934 0.0
H2828 H 0.07077 0.17118 1.00511 0.0
H2829 H 0.09137 0.17373 0.96079 0.0
H2830 H 0.06571 0.17301 0.94879 0.0
H2831 H 0.98809 0.22347 0.93205 0.0
H2832 H 0.99448 0.20239 0.94849 0.0
H2833 H 0.03605 0.1952 0.92296 0.0
H2834 H 0.03 0.21666 0.90681 0.0
H2835 H 0.04221 0.19225 0.95149 0.0
H2836 H 1.00212 0.17161 0.91894 0.0
H2837 H 0.97656 0.17082 0.90675 0.0
H2838 H 0.95515 0.16852 0.95072 0.0
H2839 H 0.98059 0.16953 0.96318 0.0
C2840 C 0.04812 0.12465 0.9808 0.0
C2841 C 0.03924 0.1206 0.99356 0.0
C2842 C 0.0441 0.13694 0.97176 0.0
C2843 C 0.03115 0.14564 0.97525 0.0
C2844 C 0.02204 0.14143 0.98776 0.0
C2845 C 0.02604 0.12908 0.99681 0.0
C2846 C 0.0272 0.15912 0.96588 0.0
C2847 C 0.01255 0.15968 0.95919 0.0
C2848 C 0.03799 0.17107 0.963 0.0
C2849 C 0.05343 0.17164 0.9702 0.0
C2850 C 0.05502 0.17122 0.98615 0.0
C2851 C 0.06961 0.17157 0.99284 0.0
C2852 C 0.0827 0.17245 0.9837 0.0
C2853 C 0.08122 0.17303 0.96785 0.0
C2854 C 0.06666 0.17267 0.9611 0.0
C2855 C 0.99861 0.21743 0.92991 0.0
C2856 C 0.00848 0.22181 0.91801 0.0
C2857 C 1.00222 0.20526 0.9393 0.0
C2858 C 0.01564 0.19689 0.93688 0.0
C2859 C 0.02561 0.20137 0.92512 0.0
C2860 C 0.02211 0.21368 0.91585 0.0
C2861 C 0.01935 0.18356 0.9466 0.0
C2862 C 0.03396 0.18303 0.95339 0.0
C2863 C 0.00856 0.17158 0.94948 0.0
C2864 C 0.99326 0.17079 0.942 0.0
C2865 C 0.99196 0.17103 0.92601 0.0
C2866 C 0.9775 0.17053 0.91905 0.0
C2867 C 0.96424 0.16965 0.92795 0.0
C2868 C 0.96543 0.16922 0.94383 0.0
C2869 C 0.97986 0.16974 0.95085 0.0
H2870 H 0.95306 0.16928 0.92255 0.0
H2871 H 0.09398 0.17271 0.9889 0.0
H2872 H 0.37305 0.27799 0.24154 0.0
H2873 H 0.39439 0.27504 0.22384 0.0
H2874 H 0.41663 0.3155 0.24332 0.0
H2875 H 0.39536 0.31841 0.2614 0.0
H2876 H 0.41907 0.31333 0.21082 0.0
H2877 H 0.42901 0.28263 0.25407 0.0
H2878 H 0.42276 0.26365 0.27357 0.0
H2879 H 0.41517 0.22914 0.23851 0.0
H2880 H 0.42114 0.24797 0.21878 0.0
H2881 H 0.48991 0.29078 0.17267 0.0
H2882 H 0.47088 0.30034 0.19113 0.0
H2883 H 0.44362 0.25898 0.18403 0.0
H2884 H 0.46244 0.24936 0.16618 0.0
H2885 H 0.44638 0.26429 0.21296 0.0
H2886 H 0.43394 0.2951 0.16966 0.0
H2887 H 0.4394 0.31393 0.1498 0.0
H2888 H 0.45132 0.34788 0.1843 0.0
H2889 H 0.4461 0.32917 0.20437 0.0
C2890 C 0.38247 0.28628 0.24217 0.0
C2891 C 0.38251 0.29832 0.25315 0.0
C2892 C 0.39466 0.28461 0.23194 0.0
C2893 C 0.40725 0.29492 0.23235 0.0
C2894 C 0.40706 0.30739 0.24277 0.0
C2895 C 0.39485 0.30904 0.2531 0.0
C2896 C 0.42087 0.29204 0.22242 0.0
C2897 C 0.42522 0.30272 0.21142 0.0
C2898 C 0.42886 0.27816 0.2231 0.0
C2899 C 0.42542 0.26675 0.23494 0.0
C2900 C 0.42591 0.27102 0.25051 0.0
C2901 C 0.42243 0.26028 0.26161 0.0
C2902 C 0.41854 0.2452 0.25728 0.0
C2903 C 0.41817 0.24082 0.24184 0.0
C2904 C 0.42162 0.25152 0.2307 0.0
C2905 C 0.47979 0.28383 0.17498 0.0
C2906 C 0.47786 0.26923 0.16799 0.0
C2907 C 0.46888 0.2893 0.18552 0.0
C2908 C 0.45574 0.28037 0.18909 0.0
C2909 C 0.45367 0.26607 0.1817 0.0
C2910 C 0.46452 0.26058 0.1714 0.0
C2911 C 0.44428 0.28529 0.20086 0.0
C2912 C 0.44037 0.27499 0.21236 0.0
C2913 C 0.4367 0.29946 0.20054 0.0
C2914 C 0.43982 0.31069 0.18849 0.0
C2915 C 0.43785 0.30654 0.173 0.0
C2916 C 0.44087 0.3172 0.16171 0.0
C2917 C 0.44575 0.33208 0.16578 0.0
C2918 C 0.44757 0.33634 0.18116 0.0
C2919 C 0.44458 0.32572 0.1925 0.0
H2920 H 0.44809 0.34031 0.15703 0.0
H2921 H 0.41585 0.23691 0.26588 0.0
H2922 H 0.51652 0.39572 0.02075 0.0
H2923 H 0.51022 0.37409 0.03702 0.0
H2924 H 0.55089 0.38406 0.06393 0.0
H2925 H 0.55725 0.40555 0.04773 0.0
H2926 H 0.54889 0.3547 0.05844 0.0
H2927 H 0.51346 0.39238 0.07646 0.0
H2928 H 0.49279 0.41099 0.07419 0.0
H2929 H 0.4621 0.3754 0.05717 0.0
H2930 H 0.48267 0.3566 0.05916 0.0
H2931 H 0.53422 0.31096 0.12343 0.0
H2932 H 0.53727 0.33258 0.10651 0.0
H2933 H 0.49861 0.31589 0.07968 0.0
H2934 H 0.49546 0.29412 0.09666 0.0
H2935 H 0.49855 0.34757 0.08392 0.0
H2936 H 0.534 0.30978 0.06695 0.0
H2937 H 0.55473 0.29131 0.06972 0.0
H2938 H 0.58552 0.32752 0.08516 0.0
H2939 H 0.5649 0.34618 0.0827 0.0
C2940 C 0.52405 0.3934 0.03022 0.0
C2941 C 0.53745 0.40241 0.03282 0.0
C2942 C 0.52042 0.38099 0.03955 0.0
C2943 C 0.53 0.3774 0.05186 0.0
C2944 C 0.54332 0.38645 0.05451 0.0
C2945 C 0.54698 0.39877 0.04516 0.0
C2946 C 0.52646 0.36407 0.06182 0.0
C2947 C 0.53792 0.3533 0.06413 0.0
C2948 C 0.51203 0.36185 0.069 0.0
C2949 C 0.49965 0.37312 0.0678 0.0
C2950 C 0.50234 0.38855 0.07212 0.0
C2951 C 0.49064 0.39913 0.0709 0.0
C2952 C 0.47615 0.39439 0.06549 0.0
C2953 C 0.47333 0.37905 0.06133 0.0
C2954 C 0.48501 0.36843 0.06251 0.0
C2955 C 0.52625 0.31192 0.11402 0.0
C2956 C 0.51462 0.30072 0.1114 0.0
C2957 C 0.52806 0.32429 0.10429 0.0
C2958 C 0.51832 0.32581 0.09165 0.0
C2959 C 0.50631 0.31498 0.08931 0.0
C2960 C 0.50453 0.30251 0.09903 0.0
C2961 C 0.52107 0.33844 0.08069 0.0
C2962 C 0.50948 0.34901 0.07816 0.0
C2963 C 0.53541 0.34053 0.07334 0.0
C2964 C 0.54786 0.32935 0.07477 0.0
C2965 C 0.54516 0.31379 0.07105 0.0
C2966 C 0.5569 0.30329 0.07255 0.0
C2967 C 0.57142 0.30823 0.07765 0.0
C2968 C 0.57425 0.3237 0.08123 0.0
C2969 C 0.56255 0.33424 0.07977 0.0
H2970 H 0.5805 0.30009 0.07879 0.0
H2971 H 0.4671 0.40259 0.06457 0.0
H2972 H 0.65428 0.24017 0.24128 0.0
H2973 H 0.63266 0.24591 0.22466 0.0
H2974 H 0.60728 0.2071 0.24174 0.0
H2975 H 0.62879 0.20133 0.25841 0.0
H2976 H 0.60498 0.20747 0.21159 0.0
H2977 H 0.59881 0.2446 0.25234 0.0
H2978 H 0.60687 0.26578 0.26987 0.0
H2979 H 0.61555 0.29461 0.23177 0.0
H2980 H 0.60773 0.27353 0.21399 0.0
H2981 H 0.53186 0.223 0.18139 0.0
H2982 H 0.55325 0.2192 0.19879 0.0
H2983 H 0.57723 0.25827 0.18048 0.0
H2984 H 0.55569 0.26238 0.16319 0.0
H2985 H 0.58065 0.25817 0.21078 0.0
H2986 H 0.58657 0.22135 0.17004 0.0
H2987 H 0.57822 0.20039 0.15238 0.0
H2988 H 0.57023 0.17106 0.19024 0.0
H2989 H 0.57829 0.19194 0.20816 0.0
C2990 C 0.64402 0.23297 0.24168 0.0
C2991 C 0.64336 0.22025 0.25124 0.0
C2992 C 0.63164 0.23626 0.23212 0.0
C2993 C 0.61821 0.22701 0.23196 0.0
C2994 C 0.61749 0.21439 0.24156 0.0
C2995 C 0.62986 0.21108 0.25109 0.0
C2996 C 0.60505 0.23023 0.22157 0.0
C2997 C 0.59955 0.21851 0.21159 0.0
C2998 C 0.59815 0.24474 0.22116 0.0
C2999 C 0.60283 0.25744 0.23183 0.0
C3000 C 0.60255 0.25542 0.24769 0.0
C3001 C 0.60706 0.26741 0.25768 0.0
C3002 C 0.61176 0.28152 0.25194 0.0
C3003 C 0.61193 0.28367 0.2362 0.0
C3004 C 0.60745 0.27171 0.22616 0.0
C3005 C 0.54162 0.23087 0.18105 0.0
C3006 C 0.54199 0.24298 0.17075 0.0
C3007 C 0.55393 0.22861 0.19101 0.0
C3008 C 0.56704 0.23828 0.19084 0.0
C3009 C 0.5673 0.2506 0.18084 0.0
C3010 C 0.55495 0.25291 0.1709 0.0
C3011 C 0.58051 0.23538 0.20092 0.0
C3012 C 0.5861 0.24714 0.2108 0.0
C3013 C 0.58753 0.22091 0.20121 0.0
C3014 C 0.58291 0.20826 0.19045 0.0
C3015 C 0.58294 0.21046 0.17461 0.0
C3016 C 0.57827 0.19859 0.16455 0.0
C3017 C 0.57367 0.18441 0.17019 0.0
C3018 C 0.57378 0.18206 0.1859 0.0
C3019 C 0.57841 0.1939 0.19601 0.0
H3020 H 0.57004 0.17524 0.16239 0.0
H3021 H 0.61524 0.29079 0.25968 0.0
H3022 H 0.51474 0.11686 0.03362 0.0
H3023 H 0.52211 0.13989 0.04856 0.0
H3024 H 0.47627 0.15677 0.04384 0.0
H3025 H 0.46902 0.13415 0.0284 0.0
H3026 H 0.4958 0.17948 0.04078 0.0
H3027 H 0.48939 0.13988 0.07722 0.0
H3028 H 0.49382 0.11501 0.08893 0.0
H3029 H 0.54155 0.12699 0.09497 0.0
H3030 H 0.53744 0.15187 0.0831 0.0
H3031 H 0.49207 0.23263 0.10282 0.0
H3032 H 0.48919 0.21118 0.08453 0.0
H3033 H 0.53677 0.2003 0.09106 0.0
H3034 H 0.53956 0.22181 0.10963 0.0
H3035 H 0.51911 0.17495 0.09206 0.0
H3036 H 0.52396 0.21612 0.05763 0.0
H3037 H 0.51826 0.24126 0.04712 0.0
H3038 H 0.47162 0.22651 0.03861 0.0
H3039 H 0.47698 0.20134 0.04927 0.0
C3040 C 0.50627 0.12555 0.03557 0.0
C3041 C 0.49122 0.12349 0.02985 0.0
C3042 C 0.51046 0.13868 0.04429 0.0
C3043 C 0.4997 0.15005 0.04761 0.0
C3044 C 0.48481 0.1482 0.04156 0.0
C3045 C 0.48062 0.13513 0.03283 0.0
C3046 C 0.50381 0.16381 0.05745 0.0
C3047 C 0.50072 0.17845 0.05208 0.0
C3048 C 0.51061 0.16263 0.07208 0.0
C3049 C 0.51315 0.14764 0.07907 0.0
C3050 C 0.50086 0.13715 0.0809 0.0
C3051 C 0.50331 0.12307 0.0876 0.0
C3052 C 0.51797 0.1194 0.09263 0.0
C3053 C 0.53021 0.12983 0.09102 0.0
C3054 C 0.52783 0.14392 0.08432 0.0
C3055 C 0.50191 0.22565 0.10032 0.0
C3056 C 0.51592 0.22858 0.10791 0.0
C3057 C 0.50031 0.21348 0.08973 0.0
C3058 C 0.51278 0.20409 0.08627 0.0
C3059 C 0.52696 0.20733 0.09352 0.0
C3060 C 0.52858 0.21961 0.10409 0.0
C3061 C 0.51071 0.19057 0.07559 0.0
C3062 C 0.51423 0.17599 0.08077 0.0
C3063 C 0.50409 0.19179 0.0609 0.0
C3064 C 0.50085 0.20687 0.05435 0.0
C3065 C 0.51246 0.21826 0.05361 0.0
C3066 C 0.50929 0.23252 0.04761 0.0
C3067 C 0.49458 0.23549 0.04223 0.0
C3068 C 0.48301 0.22419 0.04279 0.0
C3069 C 0.48611 0.20992 0.04879 0.0
H3070 H 0.49215 0.24653 0.03759 0.0
H3071 H 0.51984 0.1085 0.09783 0.0
H3072 H 0.29516 0.37113 0.71262 0.0
H3073 H 0.3119 0.39313 0.71896 0.0
H3074 H 0.27312 0.41769 0.7365 0.0
H3075 H 0.25614 0.39578 0.72976 0.0
H3076 H 0.29137 0.43634 0.71986 0.0
H3077 H 0.29862 0.40266 0.76135 0.0
H3078 H 0.30389 0.37818 0.7735 0.0
H3079 H 0.34808 0.37704 0.75197 0.0
H3080 H 0.34292 0.40137 0.73947 0.0
H3081 H 0.35661 0.47518 0.7712 0.0
H3082 H 0.33728 0.45496 0.76616 0.0
H3083 H 0.33926 0.46419 0.71806 0.0
H3084 H 0.35838 0.48478 0.72326 0.0
H3085 H 0.33732 0.42942 0.75216 0.0
H3086 H 0.30535 0.45502 0.70058 0.0
H3087 H 0.29848 0.48036 0.69126 0.0
H3088 H 0.3014 0.49919 0.73691 0.0
H3089 H 0.30808 0.47392 0.74652 0.0
C3090 C 0.29011 0.38124 0.7177 0.0
C3091 C 0.27424 0.38163 0.72064 0.0
C3092 C 0.29976 0.3938 0.72145 0.0
C3093 C 0.29384 0.40708 0.72833 0.0
C3094 C 0.27799 0.40759 0.7312 0.0
C3095 C 0.26831 0.39498 0.72748 0.0
C3096 C 0.3043 0.42029 0.73263 0.0
C3097 C 0.3015 0.43481 0.72683 0.0
C3098 C 0.31731 0.41849 0.74207 0.0
C3099 C 0.32039 0.40381 0.74947 0.0
C3100 C 0.30942 0.39714 0.75914 0.0
C3101 C 0.31238 0.38329 0.76609 0.0
C3102 C 0.32631 0.37606 0.76351 0.0
C3103 C 0.3373 0.38266 0.75398 0.0
C3104 C 0.33438 0.39649 0.74698 0.0
C3105 C 0.35296 0.47281 0.75954 0.0
C3106 C 0.35924 0.48127 0.74756 0.0
C3107 C 0.34186 0.46127 0.75666 0.0
C3108 C 0.33664 0.45799 0.74172 0.0
C3109 C 0.34284 0.46659 0.72973 0.0
C3110 C 0.35384 0.47829 0.73266 0.0
C3111 C 0.32497 0.44539 0.73875 0.0
C3112 C 0.32744 0.43097 0.74492 0.0
C3113 C 0.31154 0.4474 0.72989 0.0
C3114 C 0.30737 0.4626 0.72423 0.0
C3115 C 0.30447 0.46455 0.70863 0.0
C3116 C 0.30062 0.47891 0.7033 0.0
C3117 C 0.29956 0.49139 0.71348 0.0
C3118 C 0.30229 0.48953 0.72902 0.0
C3119 C 0.30613 0.4752 0.73442 0.0
H3120 H 0.29659 0.50249 0.70932 0.0
H3121 H 0.32859 0.36534 0.76891 0.0
H3122 H 0.28478 0.6427 0.82682 0.0
H3123 H 0.30193 0.62155 0.82154 0.0
H3124 H 0.2854 0.61831 0.77516 0.0
H3125 H 0.26814 0.63956 0.78037 0.0
H3126 H 0.28914 0.59026 0.78586 0.0
H3127 H 0.31993 0.6361 0.78392 0.0
H3128 H 0.3306 0.66096 0.79326 0.0
H3129 H 0.35062 0.63929 0.8317 0.0
H3130 H 0.33988 0.61431 0.8227 0.0
H3131 H 0.37195 0.5642 0.76583 0.0
H3132 H 0.35375 0.58421 0.77201 0.0
H3133 H 0.32684 0.5523 0.79818 0.0
H3134 H 0.34494 0.53206 0.79175 0.0
H3135 H 0.3447 0.59809 0.7968 0.0
H3136 H 0.28873 0.56118 0.79569 0.0
H3137 H 0.27856 0.53726 0.78355 0.0
H3138 H 0.30981 0.54273 0.74618 0.0
H3139 H 0.32 0.56677 0.75798 0.0
C3140 C 0.28481 0.63758 0.81545 0.0
C3141 C 0.27516 0.64304 0.80397 0.0
C3142 C 0.29464 0.62541 0.81246 0.0
C3143 C 0.29521 0.61842 0.79787 0.0
C3144 C 0.28523 0.62348 0.78651 0.0
C3145 C 0.27533 0.63565 0.78951 0.0
C3146 C 0.30652 0.60616 0.79442 0.0
C3147 C 0.30127 0.59197 0.78831 0.0
C3148 C 0.32245 0.60838 0.7973 0.0
C3149 C 0.32898 0.62336 0.80272 0.0
C3150 C 0.32651 0.63665 0.79443 0.0
C3151 C 0.33258 0.65076 0.79965 0.0
C3152 C 0.34125 0.65171 0.81309 0.0
C3153 C 0.34389 0.63854 0.82131 0.0
C3154 C 0.33782 0.6244 0.81615 0.0
C3155 C 0.36222 0.56142 0.773 0.0
C3156 C 0.35992 0.54647 0.77825 0.0
C3157 C 0.3518 0.57292 0.77655 0.0
C3158 C 0.33874 0.56981 0.78542 0.0
C3159 C 0.33665 0.55499 0.7911 0.0
C3160 C 0.34709 0.54343 0.78751 0.0
C3161 C 0.32732 0.58207 0.78845 0.0
C3162 C 0.33255 0.5963 0.79447 0.0
C3163 C 0.31145 0.57999 0.78513 0.0
C3164 C 0.30524 0.56568 0.77782 0.0
C3165 C 0.29339 0.5573 0.78485 0.0
C3166 C 0.28763 0.54372 0.77803 0.0
C3167 C 0.29358 0.53845 0.76413 0.0
C3168 C 0.30525 0.54679 0.75698 0.0
C3169 C 0.31103 0.56038 0.76374 0.0
H3170 H 0.28912 0.52793 0.75888 0.0
H3171 H 0.34594 0.66265 0.81711 0.0
H3172 H 0.88913 0.50172 0.47679 0.0
H3173 H 0.86615 0.48686 0.48343 0.0
H3174 H 0.8931 0.45926 0.51298 0.0
H3175 H 0.91618 0.47411 0.5064 0.0
H3176 H 0.87423 0.44139 0.49646 0.0
H3177 H 0.86818 0.48665 0.52731 0.0
H3178 H 0.86698 0.51437 0.53287 0.0
H3179 H 0.82873 0.51752 0.50222 0.0
H3180 H 0.82984 0.48985 0.49631 0.0
H3181 H 0.80681 0.40367 0.52542 0.0
H3182 H 0.83025 0.41992 0.52548 0.0
H3183 H 0.80996 0.44865 0.49202 0.0
H3184 H 0.78673 0.43257 0.49187 0.0
H3185 H 0.8261 0.46567 0.5135 0.0
H3186 H 0.83368 0.42116 0.48106 0.0
H3187 H 0.8346 0.39345 0.47536 0.0
H3188 H 0.86995 0.38905 0.5091 0.0
H3189 H 0.86903 0.41672 0.51518 0.0
C3190 C 0.89018 0.49265 0.48489 0.0
C3191 C 0.90459 0.4892 0.49107 0.0
C3192 C 0.87697 0.48411 0.48867 0.0
C3193 C 0.87776 0.47198 0.49887 0.0
C3194 C 0.89212 0.46852 0.50508 0.0
C3195 C 0.90535 0.47703 0.50127 0.0
C3196 C 0.86369 0.4627 0.50271 0.0
C3197 C 0.86382 0.44672 0.50047 0.0
C3198 C 0.84992 0.46954 0.50772 0.0
C3199 C 0.84918 0.48619 0.51128 0.0
C3200 C 0.85958 0.49327 0.52167 0.0
C3201 C 0.85891 0.50897 0.5249 0.0
C3202 C 0.8478 0.51771 0.51787 0.0
C3203 C 0.83733 0.51074 0.50764 0.0
C3204 C 0.83797 0.49505 0.50436 0.0
C3205 C 0.80725 0.41363 0.51833 0.0
C3206 C 0.79491 0.41677 0.5086 0.0
C3207 C 0.82069 0.42285 0.51828 0.0
C3208 C 0.82197 0.43545 0.50862 0.0
C3209 C 0.80932 0.43903 0.49956 0.0
C3210 C 0.79603 0.42976 0.49946 0.0
C3211 C 0.83665 0.44446 0.50712 0.0
C3212 C 0.83661 0.46037 0.50972 0.0
C3213 C 0.85049 0.43757 0.50244 0.0
C3214 C 0.85116 0.42097 0.4987 0.0
C3215 C 0.84156 0.41426 0.48735 0.0
C3216 C 0.84209 0.39856 0.48404 0.0
C3217 C 0.8523 0.38949 0.49189 0.0
C3218 C 0.86202 0.39609 0.50305 0.0
C3219 C 0.8615 0.41178 0.50643 0.0
H3220 H 0.8527 0.37734 0.48931 0.0
H3221 H 0.8473 0.52986 0.52039 0.0
H3222 H 0.76874 0.90267 0.81058 0.0
H3223 H 0.74924 0.92188 0.80699 0.0
H3224 H 0.71982 0.88795 0.78455 0.0
H3225 H 0.73953 0.86877 0.78759 0.0
H3226 H 0.72013 0.91343 0.76893 0.0
H3227 H 0.71292 0.90179 0.82163 0.0
H3228 H 0.72077 0.89841 0.84835 0.0
H3229 H 0.73563 0.94552 0.85171 0.0
H3230 H 0.72805 0.94913 0.82493 0.0
H3231 H 0.65382 0.95834 0.76631 0.0
H3232 H 0.67169 0.93833 0.77269 0.0
H3233 H 0.7014 0.97197 0.79522 0.0
H3234 H 0.68334 0.99204 0.78914 0.0
H3235 H 0.70067 0.94645 0.8111 0.0
H3236 H 0.70867 0.958 0.75847 0.0
H3237 H 0.70118 0.96157 0.73167 0.0
H3238 H 0.6853 0.91478 0.72813 0.0
H3239 H 0.69251 0.91098 0.75498 0.0
C3240 C 0.75816 0.89925 0.80483 0.0
C3241 C 0.75581 0.88408 0.79937 0.0
C3242 C 0.7469 0.91026 0.80293 0.0
C3243 C 0.7329 0.90641 0.79563 0.0
C3244 C 0.73046 0.89126 0.79026 0.0
C3245 C 0.74173 0.88023 0.79215 0.0
C3246 C 0.72106 0.91826 0.79312 0.0
C3247 C 0.71571 0.92046 0.77822 0.0
C3248 C 0.71552 0.92781 0.80511 0.0
C3249 C 0.72004 0.92569 0.82123 0.0
C3250 C 0.71796 0.9114 0.82803 0.0
C3251 C 0.72235 0.90944 0.84319 0.0
C3252 C 0.72873 0.92173 0.85171 0.0
C3253 C 0.7307 0.93601 0.84509 0.0
C3254 C 0.72635 0.93802 0.82993 0.0
C3255 C 0.66407 0.96149 0.77276 0.0
C3256 C 0.66715 0.97685 0.77714 0.0
C3257 C 0.67437 0.95001 0.77633 0.0
C3258 C 0.68812 0.9536 0.78419 0.0
C3259 C 0.69094 0.96885 0.78909 0.0
C3260 C 0.68058 0.98034 0.7856 0.0
C3261 C 0.69971 0.94155 0.78692 0.0
C3262 C 0.70505 0.93936 0.80184 0.0
C3263 C 0.70529 0.93201 0.77494 0.0
C3264 C 0.70099 0.93425 0.75878 0.0
C3265 C 0.70348 0.9485 0.752 0.0
C3266 C 0.6993 0.95057 0.7368 0.0
C3267 C 0.69273 0.93843 0.72821 0.0
C3268 C 0.69037 0.92418 0.7348 0.0
C3269 C 0.69451 0.92207 0.75001 0.0
H3270 H 0.68951 0.94004 0.71644 0.0
H3271 H 0.73212 0.9202 0.86345 0.0
H3272 H 0.61133 0.5537 0.98902 0.0
H3273 H 0.6347 0.56875 0.9945 0.0
H3274 H 0.66051 0.5274 0.99662 0.0
H3275 H 0.63712 0.51217 0.99088 0.0
H3276 H 0.66983 0.54832 0.01896 0.0
H3277 H 0.6627 0.54763 0.96488 0.0
H3278 H 0.64842 0.55046 0.94082 0.0
H3279 H 0.64137 0.59785 0.95203 0.0
H3280 H 0.65535 0.5952 0.97628 0.0
H3281 H 0.73449 0.60356 0.98589 0.0
H3282 H 0.71297 0.58535 0.98244 0.0
H3283 H 0.69879 0.59456 0.02886 0.0
H3284 H 0.72092 0.61218 0.03247 0.0
H3285 H 0.68494 0.58714 0.9813 0.0
H3286 H 0.67773 0.56555 0.04327 0.0
H3287 H 0.69392 0.56026 0.06558 0.0
H3288 H 0.73284 0.55409 0.0363 0.0
H3289 H 0.71685 0.55914 0.01381 0.0
C3290 C 0.62196 0.54774 0.99058 0.0
C3291 C 0.62229 0.53166 0.98927 0.0
C3292 C 0.63534 0.5564 0.99379 0.0
C3293 C 0.64946 0.54926 0.99579 0.0
C3294 C 0.64977 0.5332 0.99514 0.0
C3295 C 0.63635 0.52449 0.99188 0.0
C3296 C 0.66391 0.55867 0.9978 0.0
C3297 C 0.67309 0.55693 0.01081 0.0
C3298 C 0.66849 0.56958 0.98696 0.0
C3299 C 0.66003 0.57121 0.97241 0.0
C3300 C 0.65802 0.55863 0.96225 0.0
C3301 C 0.64997 0.5602 0.94858 0.0
C3302 C 0.64398 0.57433 0.9449 0.0
C3303 C 0.64602 0.58692 0.95488 0.0
C3304 C 0.65403 0.58539 0.96858 0.0
C3305 C 0.72678 0.60162 0.99536 0.0
C3306 C 0.72919 0.60945 0.00937 0.0
C3307 C 0.71444 0.5912 0.99339 0.0
C3308 C 0.70415 0.58833 1.00539 0.0
C3309 C 0.70666 0.59616 0.01947 0.0
C3310 C 0.71923 0.60636 0.02153 0.0
C3311 C 0.69062 0.57755 1.00294 0.0
C3312 C 0.68164 0.57886 0.98971 0.0
C3313 C 0.68644 0.56608 0.01344 0.0
C3314 C 0.69612 0.56288 0.02688 0.0
C3315 C 0.68973 0.563 0.04159 0.0
C3316 C 0.69888 0.56006 0.05427 0.0
C3317 C 0.71441 0.55689 0.05236 0.0
C3318 C 0.72082 0.5566 0.03777 0.0
C3319 C 0.71172 0.55952 0.02506 0.0
H3320 H 0.72147 0.55462 0.06219 0.0
H3321 H 0.63776 0.57552 0.93431 0.0
H3322 H 0.27668 0.61836 0.2236 0.0
H3323 H 0.25636 0.59925 0.22793 0.0
H3324 H 0.22251 0.63436 0.22611 0.0
H3325 H 0.24279 0.65362 0.22239 0.0
H3326 H 0.2179 0.61764 0.25002 0.0
H3327 H 0.22701 0.60638 0.19692 0.0
H3328 H 0.24274 0.59957 0.17452 0.0
H3329 H 0.25504 0.55759 0.19526 0.0
H3330 H 0.23954 0.56424 0.21788 0.0
H3331 H 0.16383 0.54676 0.22336 0.0
H3332 H 0.18228 0.56764 0.21884 0.0
H3333 H 0.19082 0.57176 0.26733 0.0
H3334 H 0.17091 0.55251 0.27177 0.0
H3335 H 0.20945 0.56907 0.22072 0.0
H3336 H 0.20853 0.59098 0.27776 0.0
H3337 H 0.19667 0.604 0.2999 0.0
H3338 H 0.17007 0.6309 0.26974 0.0
H3339 H 0.18101 0.61722 0.24749 0.0
C3340 C 0.26491 0.62206 0.22412 0.0
C3341 C 0.26146 0.63764 0.22272 0.0
C3342 C 0.25325 0.61103 0.22642 0.0
C3343 C 0.23781 0.61526 0.22726 0.0
C3344 C 0.2343 0.63074 0.22549 0.0
C3345 C 0.24595 0.64177 0.22323 0.0
C3346 C 0.22537 0.60387 0.231 0.0
C3347 C 0.21591 0.60707 0.24349 0.0
C3348 C 0.22294 0.58991 0.22275 0.0
C3349 C 0.23223 0.58588 0.20916 0.0
C3350 C 0.23317 0.59575 0.19676 0.0
C3351 C 0.24202 0.59191 0.18401 0.0
C3352 C 0.24991 0.57818 0.18348 0.0
C3353 C 0.24893 0.56824 0.19569 0.0
C3354 C 0.2401 0.57203 0.20847 0.0
C3355 C 0.16932 0.55257 0.23305 0.0
C3356 C 0.16569 0.54824 0.24792 0.0
C3357 C 0.18002 0.56449 0.2305 0.0
C3358 C 0.18809 0.57188 0.24272 0.0
C3359 C 0.18445 0.56729 0.25761 0.0
C3360 C 0.17318 0.55591 0.26018 0.0
C3361 C 0.20114 0.58307 0.2395 0.0
C3362 C 0.21106 0.57972 0.22718 0.0
C3363 C 0.20399 0.59702 0.24789 0.0
C3364 C 0.19484 0.60239 0.26101 0.0
C3365 C 0.19958 0.59913 0.2759 0.0
C3366 C 0.1931 0.60669 0.28846 0.0
C3367 C 0.18246 0.61813 0.28624 0.0
C3368 C 0.17815 0.62188 0.27146 0.0
C3369 C 0.18418 0.61394 0.25889 0.0
H3370 H 0.17765 0.62418 0.29596 0.0
H3371 H 0.25676 0.57523 0.1736 0.0
H3372 H 0.90759 0.54924 0.05342 0.0
H3373 H 0.88587 0.56493 0.04686 0.0
H3374 H 0.87554 0.53497 0.00821 0.0
H3375 H 0.89737 0.51912 0.01476 0.0
H3376 H 0.87217 0.56431 1.00057 0.0
H3377 H 0.85415 0.53327 0.04107 0.0
H3378 H 0.85469 0.52158 0.06636 0.0
H3379 H 0.85393 0.56612 0.08804 0.0
H3380 H 0.8536 0.5781 0.06286 0.0
H3381 H 0.79652 0.59562 0.99146 0.0
H3382 H 0.81831 0.57865 0.99475 0.0
H3383 H 0.83357 0.60596 0.03375 0.0
H3384 H 0.81193 0.62282 0.03058 0.0
H3385 H 0.83339 0.57621 0.04018 0.0
H3386 H 0.85234 0.60712 0.99927 0.0
H3387 H 0.85157 0.61848 0.97382 0.0
H3388 H 0.84994 0.57363 0.95275 0.0
H3389 H 0.85049 0.56199 0.97809 0.0
C3390 C 0.90065 0.54585 0.04359 0.0
C3391 C 0.9042 0.53273 0.03476 0.0
C3392 C 0.8882 0.5549 0.03982 0.0
C3393 C 0.87881 0.55105 0.02717 0.0
C3394 C 0.88254 0.53821 0.01805 0.0
C3395 C 0.89507 0.52915 0.02181 0.0
C3396 C 0.86506 0.56038 0.02368 0.0
C3397 C 0.86356 0.5667 0.00917 0.0
C3398 C 0.85385 0.56374 0.0349 0.0
C3399 C 0.85398 0.55658 0.05007 0.0
C3400 C 0.85421 0.54058 0.05122 0.0
C3401 C 0.85446 0.5339 0.06554 0.0
C3402 C 0.85438 0.5431 0.0788 0.0
C3403 C 0.85401 0.55901 0.07776 0.0
C3404 C 0.85377 0.56575 0.06347 0.0
C3405 C 0.80462 0.5981 1.00063 0.0
C3406 C 0.80243 0.61062 0.01073 0.0
C3407 C 0.8171 0.58839 1.0025 0.0
C3408 C 0.82768 0.59099 0.01451 0.0
C3409 C 0.8256 0.60362 0.02444 0.0
C3410 C 0.8132 0.61332 0.02255 0.0
C3411 C 0.84064 0.58038 0.01718 0.0
C3412 C 0.84195 0.57377 0.03155 0.0
C3413 C 0.8516 0.57671 1.00581 0.0
C3414 C 0.85128 0.58369 0.99058 0.0
C3415 C 0.85168 0.59968 0.98921 0.0
C3416 C 0.85132 0.60617 0.97481 0.0
C3417 C 0.85066 0.59678 0.96168 0.0
C3418 C 0.85042 0.58088 0.96293 0.0
C3419 C 0.85077 0.57433 0.97731 0.0
H3420 H 0.85038 0.60183 0.95054 0.0
H3421 H 0.85458 0.53791 0.08987 0.0
H3422 H 0.12813 1.00247 0.0172 0.0
H3423 H 0.14978 0.98621 0.01067 0.0
H3424 H 0.14619 0.96497 0.05441 0.0
H3425 H 0.12459 0.98113 0.061 0.0
H3426 H 0.17537 0.97087 0.04835 0.0
H3427 H 0.13332 0.94686 0.02067 0.0
H3428 H 0.11145 0.94565 1.00272 0.0
H3429 H 0.14121 0.9592 0.96626 0.0
H3430 H 0.16322 0.96069 0.98404 0.0
H3431 H 0.22311 0.90728 0.0323 0.0
H3432 H 0.20161 0.92373 0.03873 0.0
H3433 H 0.20498 0.94433 0.99466 0.0
H3434 H 0.22621 0.92773 0.988 0.0
H3435 H 0.176 0.93891 1.00085 0.0
H3436 H 0.21808 0.96286 0.02844 0.0
H3437 H 0.23997 0.96411 0.04635 0.0
H3438 H 0.21026 0.95077 0.08292 0.0
H3439 H 0.18822 0.94924 0.06518 0.0
C3440 C 0.13185 0.99426 0.0254 0.0
C3441 C 0.12454 0.99319 0.03966 0.0
C3442 C 0.14427 0.98494 0.02164 0.0
C3443 C 0.14962 0.97419 0.03197 0.0
C3444 C 0.14239 0.97317 0.04623 0.0
C3445 C 0.13002 0.98249 0.05001 0.0
C3446 C 0.16277 0.96407 0.02804 0.0
C3447 C 0.17539 0.96374 0.03805 0.0
C3448 C 0.16309 0.95497 0.01443 0.0
C3449 C 0.14988 0.95404 1.00372 0.0
C3450 C 0.13517 0.9497 0.00885 0.0
C3451 C 0.12276 0.94894 0.9987 0.0
C3452 C 0.12493 0.95239 0.98337 0.0
C3453 C 0.13954 0.95656 0.97814 0.0
C3454 C 0.15199 0.95735 0.98825 0.0
C3455 C 0.21934 0.91534 0.02397 0.0
C3456 C 0.22654 0.91614 0.00963 0.0
C3457 C 0.20704 0.92482 0.0277 0.0
C3458 C 0.2017 0.93549 0.01728 0.0
C3459 C 0.20882 0.93625 1.00294 0.0
C3460 C 0.22106 0.92674 0.99917 0.0
C3461 C 0.18861 0.9457 0.02116 0.0
C3462 C 0.17599 0.94605 0.01114 0.0
C3463 C 0.1883 0.95483 0.03475 0.0
C3464 C 0.20153 0.95579 0.04545 0.0
C3465 C 0.21624 0.96008 0.04028 0.0
C3466 C 0.22867 0.96086 0.0504 0.0
C3467 C 0.22652 0.95748 0.06575 0.0
C3468 C 0.21191 0.95336 0.07102 0.0
C3469 C 0.19944 0.95255 0.06094 0.0
H3470 H 0.23616 0.95809 0.07357 0.0
H3471 H 0.11531 0.9518 0.97553 0.0
loop_
_geom_bond_atom_site_label_1
_geom_bond_atom_site_label_2
_geom_bond_distance
_geom_bond_site_symmetry_2
_ccdc_geom_bond_type
C0 C1 1.264 . S
C0 C5 1.479 1_455 S
C0 C10 1.465 . S
C1 C0 1.264 . S
C1 C3 1.339 1_455 S
C1 H28 0.931 . S
C2 C3 1.395 . S
C2 C4 1.320 . S
C3 C1 1.339 1_655 S
C3 C2 1.395 . S
C3 H29 0.929 . S
C4 C2 1.320 . S
C4 C5 1.405 . S
C4 H30 0.930 . S
C5 C0 1.479 1_655 S
C5 C4 1.405 . S
C5 H31 0.931 . S
U6 O7 2.454 . S
U6 O8 2.458 . S
U6 C9 2.984 . S
U6 C10 2.847 . S
U6 C23 2.882 . S
U6 O24 2.441 . S
U6 O25 2.420 . S
U6 O26 2.455 . S
U6 O27 2.449 . S
O7 U6 2.454 . S
O7 C9 1.353 . S
O8 U6 2.458 . S
O8 C9 1.286 . S
C9 U6 2.984 . S
C9 O7 1.353 . S
C9 O8 1.286 . S
C9 C11 1.363 . S
C10 C0 1.465 . S
C10 U6 2.847 . S
C10 O24 1.249 . S
C10 O25 1.202 . S
C11 C9 1.363 . S
C11 C13 1.408 . S
C11 C16 1.342 1_554 S
C12 C13 1.310 1_556 S
C12 C15 1.461 . S
C12 H32 0.932 . S
C13 C11 1.408 . S
C13 C12 1.310 1_554 S
C13 H33 0.930 . S
C14 C15 1.474 . S
C14 C16 1.285 . S
C14 H34 0.929 . S
C15 C12 1.461 . S
C15 C14 1.474 . S
C16 C11 1.342 1_556 S
C16 C14 1.285 . S
C16 H35 0.930 . S
C17 C20 1.424 1_545 S
C17 C22 1.245 . S
C17 C23 1.428 . S
C18 C21 1.260 . S
C18 C22 1.477 1_565 S
C18 H36 0.932 . S
C19 C20 1.384 . S
C19 C21 1.479 . S
C19 H37 0.929 . S
C20 C17 1.424 1_565 S
C20 C19 1.384 . S
C20 H38 0.928 . S
C21 C18 1.260 . S
C21 C19 1.479 . S
C22 C17 1.245 . S
C22 C18 1.477 1_545 S
C22 H39 0.932 . S
C23 U6 2.882 . S
C23 C17 1.428 . S
C23 O26 1.301 . S
C23 O27 1.282 . S
O24 U6 2.441 . S
O24 C10 1.249 . S
O25 U6 2.420 . S
O25 C10 1.202 . S
O26 U6 2.455 . S
O26 C23 1.301 . S
O27 U6 2.449 . S
O27 C23 1.282 . S
H28 C1 0.931 . S
H29 C3 0.929 . S
H30 C4 0.930 . S
H31 C5 0.931 . S
H32 C12 0.932 . S
H33 C13 0.930 . S
H34 C14 0.929 . S
H35 C16 0.930 . S
H36 C18 0.932 . S
H37 C19 0.929 . S
H38 C20 0.928 . S
H39 C22 0.932 . S
C40 C41 1.264 . S
C40 C45 1.479 . S
C40 C50 1.465 . S
C41 C40 1.264 . S
C41 C43 1.339 . S
C41 H68 0.931 . S
C42 C43 1.395 . S
C42 C44 1.320 . S
C43 C41 1.339 . S
C43 C42 1.395 . S
C43 H69 0.929 . S
C44 C42 1.320 . S
C44 C45 1.405 . S
C44 H70 0.930 . S
C45 C40 1.479 . S
C45 C44 1.405 . S
C45 H71 0.931 . S
U46 O47 2.454 . S
U46 O48 2.458 . S
U46 C49 2.984 . S
U46 C50 2.847 . S
U46 C63 2.882 . S
U46 O64 2.441 . S
U46 O65 2.420 . S
U46 O66 2.455 . S
U46 O67 2.449 . S
O47 U46 2.454 . S
O47 C49 1.353 . S
O48 U46 2.458 . S
O48 C49 1.286 . S
C49 U46 2.984 . S
C49 O47 1.353 . S
C49 O48 1.286 . S
C49 C51 1.363 . S
C50 C40 1.465 . S
C50 U46 2.847 . S
C50 O64 1.249 . S
C50 O65 1.202 . S
C51 C49 1.363 . S
C51 C53 1.408 . S
C51 C56 1.342 . S
C52 C53 1.310 . S
C52 C55 1.461 . S
C52 H72 0.932 . S
C53 C51 1.408 . S
C53 C52 1.310 . S
C53 H73 0.930 . S
C54 C55 1.474 . S
C54 C56 1.285 . S
C54 H74 0.929 . S
C55 C52 1.461 . S
C55 C54 1.474 . S
C56 C51 1.342 . S
C56 C54 1.285 . S
C56 H75 0.930 . S
C57 C60 1.424 . S
C57 C62 1.245 . S
C57 C63 1.428 . S
C58 C61 1.260 . S
C58 C62 1.477 . S
C58 H76 0.932 . S
C59 C60 1.384 . S
C59 C61 1.479 . S
C59 H77 0.929 . S
C60 C57 1.424 . S
C60 C59 1.384 . S
C60 H78 0.928 . S
C61 C58 1.260 . S
C61 C59 1.479 . S
C62 C57 1.245 . S
C62 C58 1.477 . S
C62 H79 0.932 . S
C63 U46 2.882 . S
C63 C57 1.428 . S
C63 O66 1.301 . S
C63 O67 1.282 . S
O64 U46 2.441 . S
O64 C50 1.249 . S
O65 U46 2.420 . S
O65 C50 1.202 . S
O66 U46 2.455 . S
O66 C63 1.301 . S
O67 U46 2.449 . S
O67 C63 1.282 . S
H68 C41 0.931 . S
H69 C43 0.929 . S
H70 C44 0.930 . S
H71 C45 0.931 . S
H72 C52 0.932 . S
H73 C53 0.930 . S
H74 C54 0.929 . S
H75 C56 0.930 . S
H76 C58 0.932 . S
H77 C59 0.929 . S
H78 C60 0.928 . S
H79 C62 0.932 . S
C80 C81 1.259 1_556 S
C80 C85 1.499 . S
C80 C90 1.452 1_556 S
C81 C80 1.259 1_554 S
C81 C83 1.339 1_554 S
C81 H108 0.916 1_655 S
C82 C83 1.395 . S
C82 C84 1.320 . S
C83 C81 1.339 1_556 S
C83 C82 1.395 . S
C83 H109 0.929 1_655 S
C84 C82 1.320 . S
C84 C85 1.405 . S
C84 H110 0.930 . S
C85 C80 1.499 . S
C85 C84 1.405 . S
C85 H111 0.931 . S
U86 O87 2.454 . S
U86 O88 2.458 . S
U86 C89 2.984 . S
U86 C90 2.847 . S
U86 C103 2.882 . S
U86 O104 2.441 . S
U86 O105 2.420 . S
U86 O106 2.455 . S
U86 O107 2.449 . S
O87 U86 2.454 . S
O87 C89 1.353 . S
O88 U86 2.458 . S
O88 C89 1.286 . S
C89 U86 2.984 . S
C89 O87 1.353 . S
C89 O88 1.286 . S
C89 C91 1.363 . S
C90 C80 1.452 1_554 S
C90 U86 2.847 . S
C90 O104 1.249 . S
C90 O105 1.202 . S
C91 C89 1.363 . S
C91 C93 1.408 . S
C91 C96 1.342 . S
C92 C93 1.310 . S
C92 C95 1.461 . S
C92 H112 0.932 . S
C93 C91 1.408 . S
C93 C92 1.310 . S
C93 H113 0.930 . S
C94 C95 1.474 . S
C94 C96 1.285 . S
C94 H114 0.929 . S
C95 C92 1.461 . S
C95 C94 1.474 . S
C96 C91 1.342 . S
C96 C94 1.285 . S
C96 H115 0.930 . S
C97 C100 1.424 . S
C97 C102 1.245 . S
C97 C103 1.428 1_455 S
C98 C101 1.260 . S
C98 C102 1.477 . S
C98 H116 0.932 . S
C99 C100 1.384 . S
C99 C101 1.479 . S
C99 H117 0.929 . S
C100 C97 1.424 . S
C100 C99 1.384 . S
C100 H118 0.928 . S
C101 C98 1.260 . S
C101 C99 1.479 . S
C102 C97 1.245 . S
C102 C98 1.477 . S
C102 H119 0.932 1_455 S
C103 U86 2.882 . S
C103 C97 1.428 1_655 S
C103 O106 1.301 . S
C103 O107 1.282 . S
O104 U86 2.441 . S
O104 C90 1.249 . S
O105 U86 2.420 . S
O105 C90 1.202 . S
O106 U86 2.455 . S
O106 C103 1.301 . S
O107 U86 2.449 . S
O107 C103 1.282 . S
H108 C81 0.916 1_455 S
H109 C83 0.929 1_455 S
H110 C84 0.930 . S
H111 C85 0.931 . S
H112 C92 0.932 . S
H113 C93 0.930 . S
H114 C94 0.929 . S
H115 C96 0.930 . S
H116 C98 0.932 . S
H117 C99 0.929 . S
H118 C100 0.928 . S
H119 C102 0.932 1_655 S
C120 C121 1.264 . S
C120 C125 1.479 . S
C120 C130 1.465 . S
C121 C120 1.264 . S
C121 C123 1.339 . S
C121 H148 0.931 . S
C122 C123 1.395 . S
C122 C124 1.320 . S
C123 C121 1.339 . S
C123 C122 1.395 . S
C123 H149 0.929 . S
C124 C122 1.320 . S
C124 C125 1.405 . S
C124 H150 0.930 . S
C125 C120 1.479 . S
C125 C124 1.405 . S
C125 H151 0.931 . S
U126 O127 2.454 . S
U126 O128 2.458 . S
U126 C129 2.984 . S
U126 C130 2.847 . S
U126 C143 2.882 . S
U126 O144 2.441 . S
U126 O145 2.420 . S
U126 O146 2.455 . S
U126 O147 2.449 . S
O127 U126 2.454 . S
O127 C129 1.353 . S
O128 U126 2.458 . S
O128 C129 1.286 . S
C129 U126 2.984 . S
C129 O127 1.353 . S
C129 O128 1.286 . S
C129 C131 1.363 . S
C130 C120 1.465 . S
C130 U126 2.847 . S
C130 O144 1.249 . S
C130 O145 1.202 . S
C131 C129 1.363 . S
C131 C133 1.408 . S
C131 C136 1.342 . S
C132 C133 1.310 . S
C132 C135 1.461 . S
C132 H152 0.932 . S
C133 C131 1.408 . S
C133 C132 1.310 . S
C133 H153 0.930 . S
C134 C135 1.474 . S
C134 C136 1.285 . S
C134 H154 0.929 . S
C135 C132 1.461 . S
C135 C134 1.474 . S
C136 C131 1.342 . S
C136 C134 1.285 . S
C136 H155 0.930 . S
C137 C140 1.424 . S
C137 C142 1.245 . S
C137 C143 1.428 . S
C138 C141 1.260 . S
C138 C142 1.477 . S
C138 H156 0.932 . S
C139 C140 1.384 . S
C139 C141 1.479 . S
C139 H157 0.929 . S
C140 C137 1.424 . S
C140 C139 1.384 . S
C140 H158 0.928 . S
C141 C138 1.260 . S
C141 C139 1.479 . S
C142 C137 1.245 . S
C142 C138 1.477 . S
C142 H159 0.932 . S
C143 U126 2.882 . S
C143 C137 1.428 . S
C143 O146 1.301 . S
C143 O147 1.282 . S
O144 U126 2.441 . S
O144 C130 1.249 . S
O145 U126 2.420 . S
O145 C130 1.202 . S
O146 U126 2.455 . S
O146 C143 1.301 . S
O147 U126 2.449 . S
O147 C143 1.282 . S
H148 C121 0.931 . S
H149 C123 0.929 . S
H150 C124 0.930 . S
H151 C125 0.931 . S
H152 C132 0.932 . S
H153 C133 0.930 . S
H154 C134 0.929 . S
H155 C136 0.930 . S
H156 C138 0.932 . S
H157 C139 0.929 . S
H158 C140 0.928 . S
H159 C142 0.932 . S
C160 C161 1.264 . S
C160 C165 1.479 1_455 S
C160 C170 1.465 . S
C161 C160 1.264 . S
C161 C163 1.334 . S
C161 H188 0.931 1_565 S
C162 C163 1.400 1_655 S
C162 C164 1.320 . S
C163 C161 1.334 . S
C163 C162 1.400 1_455 S
C163 H189 0.927 1_565 S
C164 C162 1.320 . S
C164 C165 1.405 . S
C164 H190 0.930 . S
C165 C160 1.479 1_655 S
C165 C164 1.405 . S
C165 H191 0.931 . S
U166 O167 2.454 . S
U166 O168 2.458 . S
U166 C169 2.984 . S
U166 C170 2.847 . S
U166 C183 2.882 . S
U166 O184 2.441 . S
U166 O185 2.420 . S
U166 O186 2.455 . S
U166 O187 2.472 . S
O167 U166 2.454 . S
O167 C169 1.353 . S
O168 U166 2.458 . S
O168 C169 1.286 . S
C169 U166 2.984 . S
C169 O167 1.353 . S
C169 O168 1.286 . S
C169 C171 1.363 . S
C170 C160 1.465 . S
C170 U166 2.847 . S
C170 O184 1.249 . S
C170 O185 1.202 . S
C171 C169 1.363 . S
C171 C173 1.408 . S
C171 C176 1.342 . S
C172 C173 1.310 . S
C172 C175 1.461 . S
C172 H192 0.932 . S
C173 C171 1.408 . S
C173 C172 1.310 . S
C173 H193 0.930 . S
C174 C175 1.474 . S
C174 C176 1.285 . S
C174 H194 0.929 . S
C175 C172 1.461 . S
C175 C174 1.474 . S
C176 C171 1.342 . S
C176 C174 1.285 . S
C176 H195 0.930 . S
C177 C180 1.424 . S
C177 C182 1.245 . S
C177 C183 1.428 1_545 S
C178 C181 1.260 . S
C178 C182 1.477 . S
C178 H196 0.932 . S
C179 C180 1.384 . S
C179 C181 1.479 . S
C179 H197 0.929 . S
C180 C177 1.424 . S
C180 C179 1.384 . S
C180 H198 0.928 . S
C181 C178 1.260 . S
C181 C179 1.479 . S
C182 C177 1.245 . S
C182 C178 1.477 . S
C182 H199 0.932 1_545 S
C183 U166 2.882 . S
C183 C177 1.428 1_565 S
C183 O186 1.301 . S
C183 O187 1.288 . S
O184 U166 2.441 . S
O184 C170 1.249 . S
O185 U166 2.420 . S
O185 C170 1.202 . S
O186 U166 2.455 . S
O186 C183 1.301 . S
O187 U166 2.472 . S
O187 C183 1.288 . S
H188 C161 0.931 1_545 S
H189 C163 0.927 1_545 S
H190 C164 0.930 . S
H191 C165 0.931 . S
H192 C172 0.932 . S
H193 C173 0.930 . S
H194 C174 0.929 . S
H195 C176 0.930 . S
H196 C178 0.932 . S
H197 C179 0.929 . S
H198 C180 0.928 . S
H199 C182 0.932 1_565 S
C200 C201 1.264 . S
C200 C205 1.479 . S
C200 C210 1.465 . S
C201 C200 1.264 . S
C201 C203 1.339 . S
C201 H228 0.931 . S
C202 C203 1.395 . S
C202 C204 1.320 . S
C203 C201 1.339 . S
C203 C202 1.395 . S
C203 H229 0.929 . S
C204 C202 1.320 . S
C204 C205 1.405 . S
C204 H230 0.930 . S
C205 C200 1.479 . S
C205 C204 1.405 . S
C205 H231 0.931 . S
U206 O207 2.454 . S
U206 O208 2.458 . S
U206 C209 2.984 . S
U206 C210 2.847 . S
U206 C223 2.882 . S
U206 O224 2.441 . S
U206 O225 2.420 . S
U206 O226 2.455 . S
U206 O227 2.449 . S
O207 U206 2.454 . S
O207 C209 1.353 . S
O208 U206 2.458 . S
O208 C209 1.286 . S
C209 U206 2.984 . S
C209 O207 1.353 . S
C209 O208 1.286 . S
C209 C211 1.363 . S
C210 C200 1.465 . S
C210 U206 2.847 . S
C210 O224 1.249 . S
C210 O225 1.202 . S
C211 C209 1.363 . S
C211 C213 1.408 . S
C211 C216 1.342 . S
C212 C213 1.310 . S
C212 C215 1.461 . S
C212 H232 0.932 . S
C213 C211 1.408 . S
C213 C212 1.310 . S
C213 H233 0.930 . S
C214 C215 1.474 . S
C214 C216 1.285 . S
C214 H234 0.929 . S
C215 C212 1.461 . S
C215 C214 1.474 . S
C216 C211 1.342 . S
C216 C214 1.285 . S
C216 H235 0.930 . S
C217 C220 1.424 . S
C217 C222 1.245 . S
C217 C223 1.428 . S
C218 C221 1.260 . S
C218 C222 1.477 . S
C218 H236 0.932 . S
C219 C220 1.384 . S
C219 C221 1.479 . S
C219 H237 0.929 . S
C220 C217 1.424 . S
C220 C219 1.384 . S
C220 H238 0.928 . S
C221 C218 1.260 . S
C221 C219 1.479 . S
C222 C217 1.245 . S
C222 C218 1.477 . S
C222 H239 0.932 . S
C223 U206 2.882 . S
C223 C217 1.428 . S
C223 O226 1.301 . S
C223 O227 1.282 . S
O224 U206 2.441 . S
O224 C210 1.249 . S
O225 U206 2.420 . S
O225 C210 1.202 . S
O226 U206 2.455 . S
O226 C223 1.301 . S
O227 U206 2.449 . S
O227 C223 1.282 . S
H228 C201 0.931 . S
H229 C203 0.929 . S
H230 C204 0.930 . S
H231 C205 0.931 . S
H232 C212 0.932 . S
H233 C213 0.930 . S
H234 C214 0.929 . S
H235 C216 0.930 . S
H236 C218 0.932 . S
H237 C219 0.929 . S
H238 C220 0.928 . S
H239 C222 0.932 . S
C240 C241 1.264 . S
C240 C245 1.479 . S
C240 C250 1.465 . S
C241 C240 1.264 . S
C241 C243 1.339 . S
C241 H268 0.931 1_655 S
C242 C243 1.395 . S
C242 C244 1.320 . S
C243 C241 1.339 . S
C243 C242 1.395 . S
C243 H269 0.929 1_655 S
C244 C242 1.320 . S
C244 C245 1.405 . S
C244 H270 0.930 . S
C245 C240 1.479 . S
C245 C244 1.405 . S
C245 H271 0.931 . S
U246 O247 2.454 . S
U246 O248 2.458 . S
U246 C249 2.984 . S
U246 C250 2.847 . S
U246 C263 2.882 . S
U246 O264 2.441 . S
U246 O265 2.420 . S
U246 O266 2.455 . S
U246 O267 2.449 1_655 S
O247 U246 2.454 . S
O247 C249 1.353 . S
O248 U246 2.458 . S
O248 C249 1.286 . S
C249 U246 2.984 . S
C249 O247 1.353 . S
C249 O248 1.286 . S
C249 C251 1.363 . S
C250 C240 1.465 . S
C250 U246 2.847 . S
C250 O264 1.249 . S
C250 O265 1.202 . S
C251 C249 1.363 . S
C251 C253 1.408 . S
C251 C256 1.342 . S
C252 C253 1.310 . S
C252 C255 1.461 . S
C252 H272 0.932 . S
C253 C251 1.408 . S
C253 C252 1.310 . S
C253 H273 0.930 . S
C254 C255 1.474 . S
C254 C256 1.285 . S
C254 H274 0.929 . S
C255 C252 1.461 . S
C255 C254 1.474 . S
C256 C251 1.342 . S
C256 C254 1.285 . S
C256 H275 0.930 . S
C257 C260 1.424 . S
C257 C262 1.245 . S
C257 C263 1.428 1_455 S
C258 C261 1.260 . S
C258 C262 1.477 . S
C258 H276 0.932 . S
C259 C260 1.384 . S
C259 C261 1.479 . S
C259 H277 0.929 . S
C260 C257 1.424 . S
C260 C259 1.384 . S
C260 H278 0.928 . S
C261 C258 1.260 . S
C261 C259 1.479 . S
C262 C257 1.245 . S
C262 C258 1.477 . S
C262 H279 0.932 1_455 S
C263 U246 2.882 . S
C263 C257 1.428 1_655 S
C263 O266 1.301 . S
C263 O267 1.282 1_655 S
O264 U246 2.441 . S
O264 C250 1.249 . S
O265 U246 2.420 . S
O265 C250 1.202 . S
O266 U246 2.455 . S
O266 C263 1.301 . S
O267 U246 2.449 1_455 S
O267 C263 1.282 1_455 S
H268 C241 0.931 1_455 S
H269 C243 0.929 1_455 S
H270 C244 0.930 . S
H271 C245 0.931 . S
H272 C252 0.932 . S
H273 C253 0.930 . S
H274 C254 0.929 . S
H275 C256 0.930 . S
H276 C258 0.932 . S
H277 C259 0.929 . S
H278 C260 0.928 . S
H279 C262 0.932 1_655 S
C280 C281 1.264 . S
C280 C285 1.479 . S
C280 C290 1.465 . S
C281 C280 1.264 . S
C281 C283 1.339 . S
C281 H308 0.931 . S
C282 C283 1.395 . S
C282 C284 1.320 . S
C283 C281 1.339 . S
C283 C282 1.395 . S
C283 H309 0.929 . S
C284 C282 1.320 . S
C284 C285 1.405 . S
C284 H310 0.930 . S
C285 C280 1.479 . S
C285 C284 1.405 . S
C285 H311 0.931 . S
U286 O287 2.454 . S
U286 O288 2.458 . S
U286 C289 2.984 . S
U286 C290 2.847 . S
U286 C303 2.882 . S
U286 O304 2.441 . S
U286 O305 2.420 . S
U286 O306 2.455 . S
U286 O307 2.449 . S
O287 U286 2.454 . S
O287 C289 1.353 . S
O288 U286 2.458 . S
O288 C289 1.286 . S
C289 U286 2.984 . S
C289 O287 1.353 . S
C289 O288 1.286 . S
C289 C291 1.363 . S
C290 C280 1.465 . S
C290 U286 2.847 . S
C290 O304 1.249 . S
C290 O305 1.202 . S
C291 C289 1.363 . S
C291 C293 1.408 . S
C291 C296 1.342 . S
C292 C293 1.310 . S
C292 C295 1.461 . S
C292 H312 0.932 . S
C293 C291 1.408 . S
C293 C292 1.310 . S
C293 H313 0.930 . S
C294 C295 1.474 . S
C294 C296 1.285 . S
C294 H314 0.929 . S
C295 C292 1.461 . S
C295 C294 1.474 . S
C296 C291 1.342 . S
C296 C294 1.285 . S
C296 H315 0.930 . S
C297 C300 1.424 . S
C297 C302 1.245 . S
C297 C303 1.428 . S
C298 C301 1.260 . S
C298 C302 1.477 . S
C298 H316 0.932 . S
C299 C300 1.384 . S
C299 C301 1.479 . S
C299 H317 0.929 . S
C300 C297 1.424 . S
C300 C299 1.384 . S
C300 H318 0.928 . S
C301 C298 1.260 . S
C301 C299 1.479 . S
C302 C297 1.245 . S
C302 C298 1.477 . S
C302 H319 0.932 . S
C303 U286 2.882 . S
C303 C297 1.428 . S
C303 O306 1.301 . S
C303 O307 1.282 . S
O304 U286 2.441 . S
O304 C290 1.249 . S
O305 U286 2.420 . S
O305 C290 1.202 . S
O306 U286 2.455 . S
O306 C303 1.301 . S
O307 U286 2.449 . S
O307 C303 1.282 . S
H308 C281 0.931 . S
H309 C283 0.929 . S
H310 C284 0.930 . S
H311 C285 0.931 . S
H312 C292 0.932 . S
H313 C293 0.930 . S
H314 C294 0.929 . S
H315 C296 0.930 . S
H316 C298 0.932 . S
H317 C299 0.929 . S
H318 C300 0.928 . S
H319 C302 0.932 . S
C320 C321 1.264 . S
C320 C325 1.479 . S
C320 C330 1.465 . S
C321 C320 1.264 . S
C321 C323 1.339 . S
C321 H348 0.931 . S
C322 C323 1.395 . S
C322 C324 1.320 . S
C323 C321 1.339 . S
C323 C322 1.395 . S
C323 H349 0.929 . S
C324 C322 1.320 . S
C324 C325 1.405 . S
C324 H350 0.930 . S
C325 C320 1.479 . S
C325 C324 1.405 . S
C325 H351 0.931 . S
U326 O327 2.454 . S
U326 O328 2.458 . S
U326 C329 2.984 . S
U326 C330 2.847 . S
U326 C343 2.882 . S
U326 O344 2.441 . S
U326 O345 2.420 . S
U326 O346 2.455 . S
U326 O347 2.449 . S
O327 U326 2.454 . S
O327 C329 1.353 . S
O328 U326 2.458 . S
O328 C329 1.286 . S
C329 U326 2.984 . S
C329 O327 1.353 . S
C329 O328 1.286 . S
C329 C331 1.363 . S
C330 C320 1.465 . S
C330 U326 2.847 . S
C330 O344 1.249 . S
C330 O345 1.202 . S
C331 C329 1.363 . S
C331 C333 1.408 . S
C331 C336 1.342 . S
C332 C333 1.310 . S
C332 C335 1.461 . S
C332 H352 0.932 . S
C333 C331 1.408 . S
C333 C332 1.310 . S
C333 H353 0.930 . S
C334 C335 1.474 . S
C334 C336 1.285 . S
C334 H354 0.929 . S
C335 C332 1.461 . S
C335 C334 1.474 . S
C336 C331 1.342 . S
C336 C334 1.285 . S
C336 H355 0.930 . S
C337 C340 1.424 . S
C337 C342 1.245 . S
C337 C343 1.428 . S
C338 C341 1.260 . S
C338 C342 1.477 . S
C338 H356 0.932 . S
C339 C340 1.384 . S
C339 C341 1.479 . S
C339 H357 0.929 . S
C340 C337 1.424 . S
C340 C339 1.384 . S
C340 H358 0.928 . S
C341 C338 1.260 . S
C341 C339 1.479 . S
C342 C337 1.245 . S
C342 C338 1.477 . S
C342 H359 0.932 . S
C343 U326 2.882 . S
C343 C337 1.428 . S
C343 O346 1.301 . S
C343 O347 1.282 . S
O344 U326 2.441 . S
O344 C330 1.249 . S
O345 U326 2.420 . S
O345 C330 1.202 . S
O346 U326 2.455 . S
O346 C343 1.301 . S
O347 U326 2.449 . S
O347 C343 1.282 . S
H348 C321 0.931 . S
H349 C323 0.929 . S
H350 C324 0.930 . S
H351 C325 0.931 . S
H352 C332 0.932 . S
H353 C333 0.930 . S
H354 C334 0.929 . S
H355 C336 0.930 . S
H356 C338 0.932 . S
H357 C339 0.929 . S
H358 C340 0.928 . S
H359 C342 0.932 . S
C360 C361 1.264 . S
C360 C365 1.479 . S
C360 C370 1.465 . S
C361 C360 1.264 . S
C361 C363 1.339 . S
C361 H388 0.931 . S
C362 C363 1.395 . S
C362 C364 1.320 . S
C363 C361 1.339 . S
C363 C362 1.395 . S
C363 H389 0.929 . S
C364 C362 1.320 . S
C364 C365 1.405 . S
C364 H390 0.930 . S
C365 C360 1.479 . S
C365 C364 1.405 . S
C365 H391 0.931 . S
U366 O367 2.454 . S
U366 O368 2.458 . S
U366 C369 2.984 . S
U366 C370 2.847 . S
U366 C383 2.882 . S
U366 O384 2.441 . S
U366 O385 2.420 . S
U366 O386 2.455 . S
U366 O387 2.449 . S
O367 U366 2.454 . S
O367 C369 1.353 . S
O368 U366 2.458 . S
O368 C369 1.286 . S
C369 U366 2.984 . S
C369 O367 1.353 . S
C369 O368 1.286 . S
C369 C371 1.363 1_565 S
C370 C360 1.465 . S
C370 U366 2.847 . S
C370 O384 1.249 . S
C370 O385 1.202 . S
C371 C369 1.363 1_545 S
C371 C373 1.408 1_545 S
C371 C376 1.342 . S
C372 C373 1.311 1_545 S
C372 C375 1.461 . S
C372 H392 0.932 . S
C373 C371 1.408 1_565 S
C373 C372 1.311 1_565 S
C373 H393 0.929 . S
C374 C375 1.474 . S
C374 C376 1.285 . S
C374 H394 0.929 . S
C375 C372 1.461 . S
C375 C374 1.474 . S
C376 C371 1.342 . S
C376 C374 1.285 . S
C376 H395 0.930 . S
C377 C380 1.424 . S
C377 C382 1.245 . S
C377 C383 1.428 . S
C378 C381 1.260 . S
C378 C382 1.477 . S
C378 H396 0.970 . S
C379 C380 1.384 . S
C379 C381 1.479 . S
C379 H397 0.929 . S
C380 C377 1.424 . S
C380 C379 1.384 . S
C380 H398 0.928 . S
C381 C378 1.260 . S
C381 C379 1.479 . S
C382 C377 1.245 . S
C382 C378 1.477 . S
C382 H399 0.932 . S
C383 U366 2.882 . S
C383 C377 1.428 . S
C383 O386 1.301 . S
C383 O387 1.282 . S
O384 U366 2.441 . S
O384 C370 1.249 . S
O385 U366 2.420 . S
O385 C370 1.202 . S
O386 U366 2.455 . S
O386 C383 1.301 . S
O387 U366 2.449 . S
O387 C383 1.282 . S
H388 C361 0.931 . S
H389 C363 0.929 . S
H390 C364 0.930 . S
H391 C365 0.931 . S
H392 C372 0.932 . S
H393 C373 0.929 . S
H394 C374 0.929 . S
H395 C376 0.930 . S
H396 C378 0.970 . S
H397 C379 0.929 . S
H398 C380 0.928 . S
H399 C382 0.932 . S
C400 C401 1.264 . S
C400 C405 1.479 . S
C400 C410 1.465 . S
C401 C400 1.264 . S
C401 C403 1.339 . S
C401 H428 0.931 . S
C402 C403 1.395 . S
C402 C404 1.320 . S
C403 C401 1.339 . S
C403 C402 1.395 . S
C403 H429 0.929 . S
C404 C402 1.320 . S
C404 C405 1.405 . S
C404 H430 0.930 . S
C405 C400 1.479 . S
C405 C404 1.405 . S
C405 H431 0.931 . S
U406 O407 2.454 . S
U406 O408 2.458 . S
U406 C409 2.984 . S
U406 C410 2.847 . S
U406 C423 2.882 . S
U406 O424 2.441 . S
U406 O425 2.420 . S
U406 O426 2.455 . S
U406 O427 2.449 . S
O407 U406 2.454 . S
O407 C409 1.353 . S
O408 U406 2.458 . S
O408 C409 1.286 . S
C409 U406 2.984 . S
C409 O407 1.353 . S
C409 O408 1.286 . S
C409 C411 1.363 . S
C410 C400 1.465 . S
C410 U406 2.847 . S
C410 O424 1.249 . S
C410 O425 1.202 . S
C411 C409 1.363 . S
C411 C413 1.408 . S
C411 C416 1.342 . S
C412 C413 1.310 . S
C412 C415 1.461 . S
C412 H432 0.932 . S
C413 C411 1.408 . S
C413 C412 1.310 . S
C413 H433 0.930 . S
C414 C415 1.474 . S
C414 C416 1.285 . S
C414 H434 0.929 . S
C415 C412 1.461 . S
C415 C414 1.474 . S
C416 C411 1.342 . S
C416 C414 1.285 . S
C416 H435 0.930 . S
C417 C420 1.424 . S
C417 C422 1.245 . S
C417 C423 1.428 . S
C418 C421 1.260 . S
C418 C422 1.477 . S
C418 H436 0.932 . S
C419 C420 1.384 . S
C419 C421 1.479 . S
C419 H437 0.929 . S
C420 C417 1.424 . S
C420 C419 1.384 . S
C420 H438 0.928 . S
C421 C418 1.260 . S
C421 C419 1.479 . S
C422 C417 1.245 . S
C422 C418 1.477 . S
C422 H439 0.932 . S
C423 U406 2.882 . S
C423 C417 1.428 . S
C423 O426 1.301 . S
C423 O427 1.282 . S
O424 U406 2.441 . S
O424 C410 1.249 . S
O425 U406 2.420 . S
O425 C410 1.202 . S
O426 U406 2.455 . S
O426 C423 1.301 . S
O427 U406 2.449 . S
O427 C423 1.282 . S
H428 C401 0.931 . S
H429 C403 0.929 . S
H430 C404 0.930 . S
H431 C405 0.931 . S
H432 C412 0.932 . S
H433 C413 0.930 . S
H434 C414 0.929 . S
H435 C416 0.930 . S
H436 C418 0.932 . S
H437 C419 0.929 . S
H438 C420 0.928 . S
H439 C422 0.932 . S
C440 C441 1.264 . S
C440 C445 1.479 . S
C440 C450 1.465 . S
C441 C440 1.264 . S
C441 C443 1.339 . S
C441 H468 0.931 . S
C442 C443 1.395 . S
C442 C444 1.320 . S
C443 C441 1.339 . S
C443 C442 1.395 . S
C443 H469 0.929 . S
C444 C442 1.320 . S
C444 C445 1.405 . S
C444 H470 0.930 . S
C445 C440 1.479 . S
C445 C444 1.405 . S
C445 H471 0.931 . S
U446 O447 2.454 . S
U446 O448 2.458 . S
U446 C449 2.984 . S
U446 C450 2.847 . S
U446 C463 2.882 . S
U446 O464 2.441 . S
U446 O465 2.420 . S
U446 O466 2.455 . S
U446 O467 2.449 . S
O447 U446 2.454 . S
O447 C449 1.353 . S
O448 U446 2.458 . S
O448 C449 1.286 . S
C449 U446 2.984 . S
C449 O447 1.353 . S
C449 O448 1.286 . S
C449 C451 1.363 . S
C450 C440 1.465 . S
C450 U446 2.847 . S
C450 O464 1.249 . S
C450 O465 1.202 . S
C451 C449 1.363 . S
C451 C453 1.408 . S
C451 C456 1.342 . S
C452 C453 1.310 . S
C452 C455 1.461 . S
C452 H472 0.932 . S
C453 C451 1.408 . S
C453 C452 1.310 . S
C453 H473 0.930 . S
C454 C455 1.474 . S
C454 C456 1.285 . S
C454 H474 0.929 . S
C455 C452 1.461 . S
C455 C454 1.474 . S
C456 C451 1.342 . S
C456 C454 1.285 . S
C456 H475 0.930 . S
C457 C460 1.424 . S
C457 C462 1.245 . S
C457 C463 1.428 . S
C458 C461 1.260 . S
C458 C462 1.477 . S
C458 H476 0.932 . S
C459 C460 1.384 . S
C459 C461 1.479 . S
C459 H477 0.929 . S
C460 C457 1.424 . S
C460 C459 1.384 . S
C460 H478 0.928 . S
C461 C458 1.260 . S
C461 C459 1.479 . S
C462 C457 1.245 . S
C462 C458 1.477 . S
C462 H479 0.932 . S
C463 U446 2.882 . S
C463 C457 1.428 . S
C463 O466 1.301 . S
C463 O467 1.282 . S
O464 U446 2.441 . S
O464 C450 1.249 . S
O465 U446 2.420 . S
O465 C450 1.202 . S
O466 U446 2.455 . S
O466 C463 1.301 . S
O467 U446 2.449 . S
O467 C463 1.282 . S
H468 C441 0.931 . S
H469 C443 0.929 . S
H470 C444 0.930 . S
H471 C445 0.931 . S
H472 C452 0.932 . S
H473 C453 0.930 . S
H474 C454 0.929 . S
H475 C456 0.930 . S
H476 C458 0.932 . S
H477 C459 0.929 . S
H478 C460 0.928 . S
H479 C462 0.932 . S
C480 C481 1.264 . S
C480 C485 1.479 . S
C480 C490 1.465 . S
C481 C480 1.264 . S
C481 C483 1.339 . S
C481 H508 0.931 . S
C482 C483 1.395 . S
C482 C484 1.320 . S
C483 C481 1.339 . S
C483 C482 1.395 . S
C483 H509 0.929 . S
C484 C482 1.320 . S
C484 C485 1.405 . S
C484 H510 0.930 . S
C485 C480 1.479 . S
C485 C484 1.405 . S
C485 H511 0.931 . S
U486 O487 2.454 . S
U486 O488 2.458 . S
U486 C489 2.984 . S
U486 C490 2.847 . S
U486 C503 2.882 . S
U486 O504 2.441 . S
U486 O505 2.420 . S
U486 O506 2.455 . S
U486 O507 2.449 . S
O487 U486 2.454 . S
O487 C489 1.353 . S
O488 U486 2.458 . S
O488 C489 1.286 . S
C489 U486 2.984 . S
C489 O487 1.353 . S
C489 O488 1.286 . S
C489 C491 1.363 . S
C490 C480 1.465 . S
C490 U486 2.847 . S
C490 O504 1.249 . S
C490 O505 1.202 . S
C491 C489 1.363 . S
C491 C493 1.408 . S
C491 C496 1.342 . S
C492 C493 1.310 . S
C492 C495 1.461 . S
C492 H512 0.932 . S
C493 C491 1.408 . S
C493 C492 1.310 . S
C493 H513 0.930 . S
C494 C495 1.474 . S
C494 C496 1.285 . S
C494 H514 0.929 . S
C495 C492 1.461 . S
C495 C494 1.474 . S
C496 C491 1.342 . S
C496 C494 1.285 . S
C496 H515 0.930 . S
C497 C500 1.424 . S
C497 C502 1.245 . S
C497 C503 1.428 . S
C498 C501 1.260 . S
C498 C502 1.477 . S
C498 H516 0.932 . S
C499 C500 1.384 . S
C499 C501 1.479 . S
C499 H517 0.929 . S
C500 C497 1.424 . S
C500 C499 1.384 . S
C500 H518 0.928 . S
C501 C498 1.260 . S
C501 C499 1.479 . S
C502 C497 1.245 . S
C502 C498 1.477 . S
C502 H519 0.932 . S
C503 U486 2.882 . S
C503 C497 1.428 . S
C503 O506 1.301 . S
C503 O507 1.282 . S
O504 U486 2.441 . S
O504 C490 1.249 . S
O505 U486 2.420 . S
O505 C490 1.202 . S
O506 U486 2.455 . S
O506 C503 1.301 . S
O507 U486 2.449 . S
O507 C503 1.282 . S
H508 C481 0.931 . S
H509 C483 0.929 . S
H510 C484 0.930 . S
H511 C485 0.931 . S
H512 C492 0.932 . S
H513 C493 0.930 . S
H514 C494 0.929 . S
H515 C496 0.930 . S
H516 C498 0.932 . S
H517 C499 0.929 . S
H518 C500 0.928 . S
H519 C502 0.932 . S
C520 C521 1.264 . S
C520 C525 1.479 . S
C520 C530 1.465 . S
C521 C520 1.264 . S
C521 C523 1.339 . S
C521 H548 0.931 . S
C522 C523 1.395 . S
C522 C524 1.320 . S
C523 C521 1.339 . S
C523 C522 1.395 . S
C523 H549 0.929 . S
C524 C522 1.320 . S
C524 C525 1.405 . S
C524 H550 0.930 . S
C525 C520 1.479 . S
C525 C524 1.405 . S
C525 H551 0.931 . S
U526 O527 2.454 . S
U526 O528 2.458 . S
U526 C529 2.984 . S
U526 C530 2.847 . S
U526 C543 2.882 . S
U526 O544 2.441 . S
U526 O545 2.420 . S
U526 O546 2.455 . S
U526 O547 2.449 . S
O527 U526 2.454 . S
O527 C529 1.353 . S
O528 U526 2.458 . S
O528 C529 1.286 . S
C529 U526 2.984 . S
C529 O527 1.353 . S
C529 O528 1.286 . S
C529 C531 1.371 . S
C530 C520 1.465 . S
C530 U526 2.847 . S
C530 O544 1.249 . S
C530 O545 1.202 . S
C531 C529 1.371 . S
C531 C533 1.409 . S
C531 C536 1.334 1_556 S
C532 C533 1.310 1_554 S
C532 C535 1.461 . S
C532 H552 0.932 . S
C533 C531 1.409 . S
C533 C532 1.310 1_556 S
C533 H553 0.930 . S
C534 C535 1.474 . S
C534 C536 1.285 . S
C534 H554 0.929 . S
C535 C532 1.461 . S
C535 C534 1.474 . S
C536 C531 1.334 1_554 S
C536 C534 1.285 . S
C536 H555 0.930 . S
C537 C540 1.424 . S
C537 C542 1.245 . S
C537 C543 1.428 . S
C538 C541 1.260 . S
C538 C542 1.477 . S
C538 H556 0.932 . S
C539 C540 1.384 . S
C539 C541 1.479 . S
C539 H557 0.929 . S
C540 C537 1.424 . S
C540 C539 1.384 . S
C540 H558 0.928 . S
C541 C538 1.260 . S
C541 C539 1.479 . S
C542 C537 1.245 . S
C542 C538 1.477 . S
C542 H559 0.932 . S
C543 U526 2.882 . S
C543 C537 1.428 . S
C543 O546 1.301 . S
C543 O547 1.282 . S
O544 U526 2.441 . S
O544 C530 1.249 . S
O545 U526 2.420 . S
O545 C530 1.202 . S
O546 U526 2.455 . S
O546 C543 1.301 . S
O547 U526 2.449 . S
O547 C543 1.282 . S
H548 C521 0.931 . S
H549 C523 0.929 . S
H550 C524 0.930 . S
H551 C525 0.931 . S
H552 C532 0.932 . S
H553 C533 0.930 . S
H554 C534 0.929 . S
H555 C536 0.930 . S
H556 C538 0.932 . S
H557 C539 0.929 . S
H558 C540 0.928 . S
H559 C542 0.932 . S
C560 C561 1.264 . S
C560 C565 1.479 . S
C560 C570 1.465 . S
C561 C560 1.264 . S
C561 C563 1.339 . S
C561 H588 0.931 . S
C562 C563 1.395 . S
C562 C564 1.320 . S
C563 C561 1.339 . S
C563 C562 1.395 . S
C563 H589 0.929 . S
C564 C562 1.320 . S
C564 C565 1.405 . S
C564 H590 0.930 . S
C565 C560 1.479 . S
C565 C564 1.405 . S
C565 H591 0.931 . S
U566 O567 2.454 . S
U566 O568 2.458 . S
U566 C569 2.984 . S
U566 C570 2.847 . S
U566 C583 2.882 . S
U566 O584 2.441 . S
U566 O585 2.420 . S
U566 O586 2.455 . S
U566 O587 2.449 . S
O567 U566 2.454 . S
O567 C569 1.353 . S
O568 U566 2.458 . S
O568 C569 1.286 . S
C569 U566 2.984 . S
C569 O567 1.353 . S
C569 O568 1.286 . S
C569 C571 1.363 . S
C570 C560 1.465 . S
C570 U566 2.847 . S
C570 O584 1.249 . S
C570 O585 1.202 . S
C571 C569 1.363 . S
C571 C573 1.408 . S
C571 C576 1.342 . S
C572 C573 1.310 . S
C572 C575 1.461 . S
C572 H592 0.932 . S
C573 C571 1.408 . S
C573 C572 1.310 . S
C573 H593 0.930 . S
C574 C575 1.474 . S
C574 C576 1.285 . S
C574 H594 0.929 . S
C575 C572 1.461 . S
C575 C574 1.474 . S
C576 C571 1.342 . S
C576 C574 1.285 . S
C576 H595 0.930 . S
C577 C580 1.424 . S
C577 C582 1.245 . S
C577 C583 1.428 . S
C578 C581 1.260 . S
C578 C582 1.477 . S
C578 H596 0.932 . S
C579 C580 1.384 . S
C579 C581 1.479 . S
C579 H597 0.929 . S
C580 C577 1.424 . S
C580 C579 1.384 . S
C580 H598 0.928 . S
C581 C578 1.260 . S
C581 C579 1.479 . S
C582 C577 1.245 . S
C582 C578 1.477 . S
C582 H599 0.932 . S
C583 U566 2.882 . S
C583 C577 1.428 . S
C583 O586 1.301 . S
C583 O587 1.282 . S
O584 U566 2.441 . S
O584 C570 1.249 . S
O585 U566 2.420 . S
O585 C570 1.202 . S
O586 U566 2.455 . S
O586 C583 1.301 . S
O587 U566 2.449 . S
O587 C583 1.282 . S
H588 C561 0.931 . S
H589 C563 0.929 . S
H590 C564 0.930 . S
H591 C565 0.931 . S
H592 C572 0.932 . S
H593 C573 0.930 . S
H594 C574 0.929 . S
H595 C576 0.930 . S
H596 C578 0.932 . S
H597 C579 0.929 . S
H598 C580 0.928 . S
H599 C582 0.932 . S
C600 C601 1.264 . S
C600 C605 1.479 . S
C600 C610 1.445 1_554 S
C601 C600 1.264 . S
C601 C603 1.339 . S
C601 H628 0.931 1_554 S
C602 C603 1.395 . S
C602 C604 1.320 . S
C603 C601 1.339 . S
C603 C602 1.395 . S
C603 H629 0.929 . S
C604 C602 1.320 . S
C604 C605 1.405 . S
C604 H630 0.930 . S
C605 C600 1.479 . S
C605 C604 1.405 . S
C605 H631 0.931 . S
U606 O607 2.454 . S
U606 O608 2.458 . S
U606 C609 2.984 . S
U606 C610 2.875 . S
U606 C623 2.882 . S
U606 O624 2.421 1_556 S
U606 O625 2.420 . S
U606 O626 2.455 . S
U606 O627 2.449 . S
O607 U606 2.454 . S
O607 C609 1.353 . S
O608 U606 2.458 . S
O608 C609 1.286 . S
C609 U606 2.984 . S
C609 O607 1.353 . S
C609 O608 1.286 . S
C609 C611 1.363 . S
C610 C600 1.445 1_556 S
C610 U606 2.875 . S
C610 O624 1.245 1_556 S
C610 O625 1.232 . S
C611 C609 1.363 . S
C611 C613 1.408 . S
C611 C616 1.342 1_545 S
C612 C613 1.310 1_565 S
C612 C615 1.461 . S
C612 H632 0.933 1_556 S
C613 C611 1.408 . S
C613 C612 1.310 1_545 S
C613 H633 0.930 1_556 S
C614 C615 1.474 . S
C614 C616 1.285 . S
C614 H634 0.929 . S
C615 C612 1.461 . S
C615 C614 1.474 . S
C616 C611 1.342 1_565 S
C616 C614 1.285 . S
C616 H635 0.930 . S
C617 C620 1.424 . S
C617 C622 1.245 . S
C617 C623 1.428 . S
C618 C621 1.260 . S
C618 C622 1.477 . S
C618 H636 0.932 . S
C619 C620 1.384 . S
C619 C621 1.479 . S
C619 H637 0.929 . S
C620 C617 1.424 . S
C620 C619 1.384 . S
C620 H638 0.928 . S
C621 C618 1.260 . S
C621 C619 1.479 . S
C622 C617 1.245 . S
C622 C618 1.477 . S
C622 H639 0.932 . S
C623 U606 2.882 . S
C623 C617 1.428 . S
C623 O626 1.301 . S
C623 O627 1.282 . S
O624 U606 2.421 1_554 S
O624 C610 1.245 1_554 S
O625 U606 2.420 . S
O625 C610 1.232 . S
O626 U606 2.455 . S
O626 C623 1.301 . S
O627 U606 2.449 . S
O627 C623 1.282 . S
H628 C601 0.931 1_556 S
H629 C603 0.929 . S
H630 C604 0.930 . S
H631 C605 0.931 . S
H632 C612 0.933 1_554 S
H633 C613 0.930 1_554 S
H634 C614 0.929 . S
H635 C616 0.930 . S
H636 C618 0.932 . S
H637 C619 0.929 . S
H638 C620 0.928 . S
H639 C622 0.932 . S
Mn640 O645 2.095 . S
Mn640 O655 2.162 . S
Mn640 O656 2.297 . S
Mn640 O664 2.385 . S
Mn640 O665 2.209 1_554 S
Mn640 O666 2.094 . S
Mn641 O646 2.121 . S
Mn641 N648 2.257 . S
Mn641 N657 2.282 . S
Mn641 O665 2.215 . S
Mn641 O667 2.117 . S
C642 O664 1.234 1_556 S
C642 O665 1.283 . S
C643 O655 1.281 . S
C643 O656 1.236 . S
C644 O666 1.240 . S
C644 O667 1.264 1_554 S
O645 Mn640 2.095 . S
O645 C654 1.250 . S
O646 Mn641 2.121 . S
O646 C654 1.258 1_556 S
C647 N648 1.326 . S
C647 C651 1.460 . S
C647 H653 0.929 . S
N648 Mn641 2.257 . S
N648 C647 1.326 . S
N648 C652 1.362 . S
C649 C650 1.258 . S
C649 C652 1.431 . S
C649 C669 1.449 . S
C650 C649 1.258 . S
C650 C651 1.477 . S
C650 H670 0.931 . S
C651 C647 1.460 . S
C651 C650 1.477 . S
C651 H671 0.930 . S
C652 N648 1.362 . S
C652 C649 1.431 . S
C652 C662 1.476 . S
H653 C647 0.929 . S
C654 O645 1.250 . S
C654 O646 1.258 1_554 S
O655 Mn640 2.162 . S
O655 C643 1.281 . S
O656 Mn640 2.297 . S
O656 C643 1.236 . S
N657 Mn641 2.282 . S
N657 C658 1.328 . S
N657 C662 1.318 . S
C658 N657 1.328 . S
C658 C659 1.457 . S
C658 H663 0.929 . S
C659 C658 1.457 . S
C659 C660 1.291 . S
C659 H672 0.931 . S
C660 C659 1.291 . S
C660 C661 1.373 . S
C660 H673 0.929 . S
C661 C660 1.373 . S
C661 C662 1.396 . S
C661 C668 1.403 . S
C662 C652 1.476 . S
C662 N657 1.318 . S
C662 C661 1.396 . S
H663 C658 0.929 . S
O664 Mn640 2.385 . S
O664 C642 1.234 1_554 S
O665 Mn640 2.209 1_556 S
O665 Mn641 2.215 . S
O665 C642 1.283 . S
O666 Mn640 2.094 . S
O666 C644 1.240 . S
O667 Mn641 2.117 . S
O667 C644 1.264 1_556 S
C668 C661 1.403 . S
C668 C669 1.399 . S
C668 H674 0.929 . S
C669 C649 1.449 . S
C669 C668 1.399 . S
C669 H675 0.930 . S
H670 C650 0.931 . S
H671 C651 0.930 . S
H672 C659 0.931 . S
H673 C660 0.929 . S
H674 C668 0.929 . S
H675 C669 0.930 . S
Mn676 O681 2.095 . S
Mn676 O691 2.162 . S
Mn676 O692 2.297 . S
Mn676 O700 2.385 . S
Mn676 O701 2.209 . S
Mn676 O702 2.094 . S
Mn677 O682 2.121 . S
Mn677 N684 2.257 . S
Mn677 N693 2.282 . S
Mn677 O701 2.215 . S
Mn677 O703 2.117 . S
C678 O700 1.234 . S
C678 O701 1.283 . S
C679 O691 1.281 . S
C679 O692 1.236 . S
C680 O702 1.240 . S
C680 O703 1.264 . S
O681 Mn676 2.095 . S
O681 C690 1.250 . S
O682 Mn677 2.121 . S
O682 C690 1.258 . S
C683 N684 1.326 . S
C683 C687 1.460 . S
C683 H689 0.929 . S
N684 Mn677 2.257 . S
N684 C683 1.326 . S
N684 C688 1.362 . S
C685 C686 1.258 . S
C685 C688 1.431 . S
C685 C705 1.449 . S
C686 C685 1.258 . S
C686 C687 1.477 . S
C686 H706 0.931 . S
C687 C683 1.460 . S
C687 C686 1.477 . S
C687 H707 0.930 . S
C688 N684 1.362 . S
C688 C685 1.431 . S
C688 C698 1.476 . S
H689 C683 0.929 . S
C690 O681 1.250 . S
C690 O682 1.258 . S
O691 Mn676 2.162 . S
O691 C679 1.281 . S
O692 Mn676 2.297 . S
O692 C679 1.236 . S
N693 Mn677 2.282 . S
N693 C694 1.328 . S
N693 C698 1.318 . S
C694 N693 1.328 . S
C694 C695 1.457 . S
C694 H699 0.929 . S
C695 C694 1.457 . S
C695 C696 1.291 . S
C695 H708 0.931 . S
C696 C695 1.291 . S
C696 C697 1.373 . S
C696 H709 0.929 . S
C697 C696 1.373 . S
C697 C698 1.396 . S
C697 C704 1.403 . S
C698 C688 1.476 . S
C698 N693 1.318 . S
C698 C697 1.396 . S
H699 C694 0.929 . S
O700 Mn676 2.385 . S
O700 C678 1.234 . S
O701 Mn676 2.209 . S
O701 Mn677 2.215 . S
O701 C678 1.283 . S
O702 Mn676 2.094 . S
O702 C680 1.240 . S
O703 Mn677 2.117 . S
O703 C680 1.264 . S
C704 C697 1.403 . S
C704 C705 1.399 . S
C704 H710 0.929 . S
C705 C685 1.449 . S
C705 C704 1.399 . S
C705 H711 0.930 . S
H706 C686 0.931 . S
H707 C687 0.930 . S
H708 C695 0.931 . S
H709 C696 0.929 . S
H710 C704 0.929 . S
H711 C705 0.930 . S
Mn712 O717 2.095 1_554 S
Mn712 O727 2.162 . S
Mn712 O728 2.297 1_554 S
Mn712 O736 2.385 . S
Mn712 O737 2.209 1_554 S
Mn712 O738 2.094 . S
Mn713 O718 2.121 . S
Mn713 N720 2.257 . S
Mn713 N729 2.282 . S
Mn713 O737 2.215 . S
Mn713 O739 2.117 1_556 S
C714 O736 1.200 1_556 S
C714 O737 1.307 . S
C715 O727 1.281 . S
C715 O728 1.236 1_554 S
C716 O738 1.240 . S
C716 O739 1.264 . S
O717 Mn712 2.095 1_556 S
O717 C726 1.250 . S
O718 Mn713 2.121 . S
O718 C726 1.258 . S
C719 N720 1.326 . S
C719 C723 1.460 . S
C719 H725 0.929 . S
N720 Mn713 2.257 . S
N720 C719 1.326 . S
N720 C724 1.362 . S
C721 C722 1.258 . S
C721 C724 1.431 . S
C721 C741 1.449 . S
C722 C721 1.258 . S
C722 C723 1.477 . S
C722 H742 0.931 . S
C723 C719 1.460 . S
C723 C722 1.477 . S
C723 H743 0.930 . S
C724 N720 1.362 . S
C724 C721 1.431 . S
C724 C734 1.476 . S
H725 C719 0.929 . S
C726 O717 1.250 . S
C726 O718 1.258 . S
O727 Mn712 2.162 . S
O727 C715 1.281 . S
O728 Mn712 2.297 1_556 S
O728 C715 1.236 1_556 S
N729 Mn713 2.282 . S
N729 C730 1.328 1_556 S
N729 C734 1.318 . S
C730 N729 1.328 1_554 S
C730 C731 1.457 . S
C730 H735 0.929 . S
C731 C730 1.457 . S
C731 C732 1.291 . S
C731 H744 0.931 . S
C732 C731 1.291 . S
C732 C733 1.373 1_554 S
C732 H745 0.929 . S
C733 C732 1.373 1_556 S
C733 C734 1.396 . S
C733 C740 1.403 . S
C734 C724 1.476 . S
C734 N729 1.318 . S
C734 C733 1.396 . S
H735 C730 0.929 . S
O736 Mn712 2.385 . S
O736 C714 1.200 1_554 S
O737 Mn712 2.209 1_556 S
O737 Mn713 2.215 . S
O737 C714 1.307 . S
O738 Mn712 2.094 . S
O738 C716 1.240 . S
O739 Mn713 2.117 1_554 S
O739 C716 1.264 . S
C740 C733 1.403 . S
C740 C741 1.399 . S
C740 H746 0.929 . S
C741 C721 1.449 . S
C741 C740 1.399 . S
C741 H747 0.930 . S
H742 C722 0.931 . S
H743 C723 0.930 . S
H744 C731 0.931 . S
H745 C732 0.929 . S
H746 C740 0.929 . S
H747 C741 0.930 . S
Mn748 O753 2.095 . S
Mn748 O763 2.162 . S
Mn748 O764 2.297 . S
Mn748 O772 2.385 . S
Mn748 O773 2.209 1_545 S
Mn748 O774 2.094 . S
Mn749 O754 2.121 . S
Mn749 N756 2.257 . S
Mn749 N765 2.282 . S
Mn749 O773 2.215 . S
Mn749 O775 2.117 . S
C750 O772 1.234 1_565 S
C750 O773 1.283 . S
C751 O763 1.281 . S
C751 O764 1.236 . S
C752 O774 1.240 . S
C752 O775 1.264 1_545 S
O753 Mn748 2.095 . S
O753 C762 1.250 . S
O754 Mn749 2.121 . S
O754 C762 1.258 1_565 S
C755 N756 1.326 . S
C755 C759 1.460 . S
C755 H761 0.929 . S
N756 Mn749 2.257 . S
N756 C755 1.326 . S
N756 C760 1.362 . S
C757 C758 1.258 . S
C757 C760 1.431 . S
C757 C777 1.449 . S
C758 C757 1.258 . S
C758 C759 1.477 . S
C758 H778 0.931 . S
C759 C755 1.460 . S
C759 C758 1.477 . S
C759 H779 0.930 . S
C760 N756 1.362 . S
C760 C757 1.431 . S
C760 C770 1.476 . S
H761 C755 0.929 . S
C762 O753 1.250 . S
C762 O754 1.258 1_545 S
O763 Mn748 2.162 . S
O763 C751 1.281 . S
O764 Mn748 2.297 . S
O764 C751 1.236 . S
N765 Mn749 2.282 . S
N765 C766 1.328 . S
N765 C770 1.318 . S
C766 N765 1.328 . S
C766 C767 1.457 . S
C766 H771 0.929 . S
C767 C766 1.457 . S
C767 C768 1.291 . S
C767 H780 0.931 . S
C768 C767 1.291 . S
C768 C769 1.373 . S
C768 H781 0.929 . S
C769 C768 1.373 . S
C769 C770 1.396 . S
C769 C776 1.403 . S
C770 C760 1.476 . S
C770 N765 1.318 . S
C770 C769 1.396 . S
H771 C766 0.929 . S
O772 Mn748 2.385 . S
O772 C750 1.234 1_545 S
O773 Mn748 2.209 1_565 S
O773 Mn749 2.215 . S
O773 C750 1.283 . S
O774 Mn748 2.094 . S
O774 C752 1.240 . S
O775 Mn749 2.117 . S
O775 C752 1.264 1_565 S
C776 C769 1.403 . S
C776 C777 1.399 . S
C776 H782 0.929 . S
C777 C757 1.449 . S
C777 C776 1.399 . S
C777 H783 0.930 . S
H778 C758 0.931 . S
H779 C759 0.930 . S
H780 C767 0.931 . S
H781 C768 0.929 . S
H782 C776 0.929 . S
H783 C777 0.930 . S
Mn784 O789 2.095 . S
Mn784 O799 2.162 . S
Mn784 O800 2.297 . S
Mn784 O808 2.385 . S
Mn784 O809 2.209 . S
Mn784 O810 2.094 . S
Mn785 O790 2.121 . S
Mn785 N792 2.257 . S
Mn785 N801 2.282 . S
Mn785 O809 2.215 . S
Mn785 O811 2.117 . S
C786 O808 1.234 . S
C786 O809 1.283 . S
C787 O799 1.281 . S
C787 O800 1.236 . S
C788 O810 1.240 . S
C788 O811 1.264 . S
O789 Mn784 2.095 . S
O789 C798 1.250 . S
O790 Mn785 2.121 . S
O790 C798 1.258 . S
C791 N792 1.326 . S
C791 C795 1.460 . S
C791 H797 0.929 . S
N792 Mn785 2.257 . S
N792 C791 1.326 . S
N792 C796 1.362 . S
C793 C794 1.258 . S
C793 C796 1.431 . S
C793 C813 1.449 . S
C794 C793 1.258 . S
C794 C795 1.477 . S
C794 H814 0.931 . S
C795 C791 1.460 . S
C795 C794 1.477 . S
C795 H815 0.930 . S
C796 N792 1.362 . S
C796 C793 1.431 . S
C796 C806 1.476 . S
H797 C791 0.929 . S
C798 O789 1.250 . S
C798 O790 1.258 . S
O799 Mn784 2.162 . S
O799 C787 1.281 . S
O800 Mn784 2.297 . S
O800 C787 1.236 . S
N801 Mn785 2.282 . S
N801 C802 1.328 . S
N801 C806 1.318 . S
C802 N801 1.328 . S
C802 C803 1.457 . S
C802 H807 0.929 . S
C803 C802 1.457 . S
C803 C804 1.291 . S
C803 H816 0.931 . S
C804 C803 1.291 . S
C804 C805 1.373 . S
C804 H817 0.929 . S
C805 C804 1.373 . S
C805 C806 1.396 . S
C805 C812 1.403 . S
C806 C796 1.476 . S
C806 N801 1.318 . S
C806 C805 1.396 . S
H807 C802 0.929 . S
O808 Mn784 2.385 . S
O808 C786 1.234 . S
O809 Mn784 2.209 . S
O809 Mn785 2.215 . S
O809 C786 1.283 . S
O810 Mn784 2.094 . S
O810 C788 1.240 . S
O811 Mn785 2.117 . S
O811 C788 1.264 . S
C812 C805 1.403 . S
C812 C813 1.399 . S
C812 H818 0.929 . S
C813 C793 1.449 . S
C813 C812 1.399 . S
C813 H819 0.930 . S
H814 C794 0.931 . S
H815 C795 0.930 . S
H816 C803 0.931 . S
H817 C804 0.929 . S
H818 C812 0.929 . S
H819 C813 0.930 . S
Mn820 O825 2.095 . S
Mn820 O835 2.162 . S
Mn820 O836 2.297 . S
Mn820 O844 2.385 . S
Mn820 O845 2.209 . S
Mn820 O846 2.094 . S
Mn821 O826 2.121 . S
Mn821 N828 2.257 . S
Mn821 N837 2.282 . S
Mn821 O845 2.215 . S
Mn821 O847 2.117 . S
C822 O844 1.234 . S
C822 O845 1.283 . S
C823 O835 1.281 . S
C823 O836 1.236 . S
C824 O846 1.240 . S
C824 O847 1.264 . S
O825 Mn820 2.095 . S
O825 C834 1.250 . S
O826 Mn821 2.121 . S
O826 C834 1.258 . S
C827 N828 1.326 . S
C827 C831 1.460 . S
C827 H833 0.929 . S
N828 Mn821 2.257 . S
N828 C827 1.326 . S
N828 C832 1.362 . S
C829 C830 1.258 . S
C829 C832 1.431 . S
C829 C849 1.449 . S
C830 C829 1.258 . S
C830 C831 1.477 . S
C830 H850 0.931 . S
C831 C827 1.460 . S
C831 C830 1.477 . S
C831 H851 0.930 . S
C832 N828 1.362 . S
C832 C829 1.431 . S
C832 C842 1.476 . S
H833 C827 0.929 . S
C834 O825 1.250 . S
C834 O826 1.258 . S
O835 Mn820 2.162 . S
O835 C823 1.281 . S
O836 Mn820 2.297 . S
O836 C823 1.236 . S
N837 Mn821 2.282 . S
N837 C838 1.328 . S
N837 C842 1.318 . S
C838 N837 1.328 . S
C838 C839 1.457 . S
C838 H843 0.929 . S
C839 C838 1.457 . S
C839 C840 1.291 . S
C839 H852 0.931 . S
C840 C839 1.291 . S
C840 C841 1.373 . S
C840 H853 0.929 . S
C841 C840 1.373 . S
C841 C842 1.396 . S
C841 C848 1.403 . S
C842 C832 1.476 . S
C842 N837 1.318 . S
C842 C841 1.396 . S
H843 C838 0.929 . S
O844 Mn820 2.385 . S
O844 C822 1.234 . S
O845 Mn820 2.209 . S
O845 Mn821 2.215 . S
O845 C822 1.283 . S
O846 Mn820 2.094 . S
O846 C824 1.240 . S
O847 Mn821 2.117 . S
O847 C824 1.264 . S
C848 C841 1.403 . S
C848 C849 1.399 . S
C848 H854 0.929 . S
C849 C829 1.449 . S
C849 C848 1.399 . S
C849 H855 0.930 . S
H850 C830 0.931 . S
H851 C831 0.930 . S
H852 C839 0.931 . S
H853 C840 0.929 . S
H854 C848 0.929 . S
H855 C849 0.930 . S
Mn856 O861 2.095 . S
Mn856 O871 2.162 . S
Mn856 O872 2.297 . S
Mn856 O880 2.385 . S
Mn856 O881 2.209 . S
Mn856 O882 2.094 . S
Mn857 O862 2.121 . S
Mn857 N864 2.257 . S
Mn857 N873 2.282 . S
Mn857 O881 2.215 . S
Mn857 O883 2.117 . S
C858 O880 1.234 . S
C858 O881 1.283 . S
C859 O871 1.281 . S
C859 O872 1.236 . S
C860 O882 1.240 . S
C860 O883 1.264 . S
O861 Mn856 2.095 . S
O861 C870 1.250 . S
O862 Mn857 2.121 . S
O862 C870 1.258 . S
C863 N864 1.326 . S
C863 C867 1.460 . S
C863 H869 0.929 . S
N864 Mn857 2.257 . S
N864 C863 1.326 . S
N864 C868 1.362 . S
C865 C866 1.258 . S
C865 C868 1.431 . S
C865 C885 1.449 . S
C866 C865 1.258 . S
C866 C867 1.477 . S
C866 H886 0.931 . S
C867 C863 1.460 . S
C867 C866 1.477 . S
C867 H887 0.930 . S
C868 N864 1.362 . S
C868 C865 1.431 . S
C868 C878 1.476 . S
H869 C863 0.929 . S
C870 O861 1.250 . S
C870 O862 1.258 . S
O871 Mn856 2.162 . S
O871 C859 1.281 . S
O872 Mn856 2.297 . S
O872 C859 1.236 . S
N873 Mn857 2.282 . S
N873 C874 1.328 . S
N873 C878 1.318 . S
C874 N873 1.328 . S
C874 C875 1.457 . S
C874 H879 0.929 . S
C875 C874 1.457 . S
C875 C876 1.291 . S
C875 H888 0.931 . S
C876 C875 1.291 . S
C876 C877 1.373 . S
C876 H889 0.929 . S
C877 C876 1.373 . S
C877 C878 1.396 . S
C877 C884 1.403 . S
C878 C868 1.476 . S
C878 N873 1.318 . S
C878 C877 1.396 . S
H879 C874 0.929 . S
O880 Mn856 2.385 . S
O880 C858 1.234 . S
O881 Mn856 2.209 . S
O881 Mn857 2.215 . S
O881 C858 1.283 . S
O882 Mn856 2.094 . S
O882 C860 1.240 . S
O883 Mn857 2.117 . S
O883 C860 1.264 . S
C884 C877 1.403 . S
C884 C885 1.399 . S
C884 H890 0.929 . S
C885 C865 1.449 . S
C885 C884 1.399 . S
C885 H891 0.930 . S
H886 C866 0.931 . S
H887 C867 0.930 . S
H888 C875 0.931 . S
H889 C876 0.929 . S
H890 C884 0.929 . S
H891 C885 0.930 . S
Mn892 O897 2.095 . S
Mn892 O907 2.162 . S
Mn892 O908 2.297 . S
Mn892 O916 2.385 1_565 S
Mn892 O917 2.209 1_565 S
Mn892 O918 2.094 . S
Mn893 O898 2.121 . S
Mn893 N900 2.257 . S
Mn893 N909 2.282 . S
Mn893 O917 2.215 . S
Mn893 O919 2.117 . S
C894 O916 1.234 . S
C894 O917 1.283 . S
C895 O907 1.281 . S
C895 O908 1.236 . S
C896 O918 1.220 1_545 S
C896 O919 1.290 . S
O897 Mn892 2.095 . S
O897 C906 1.250 1_565 S
O898 Mn893 2.121 . S
O898 C906 1.258 . S
C899 N900 1.326 . S
C899 C903 1.460 . S
C899 H905 0.929 . S
N900 Mn893 2.257 . S
N900 C899 1.326 . S
N900 C904 1.362 . S
C901 C902 1.258 . S
C901 C904 1.431 . S
C901 C921 1.449 . S
C902 C901 1.258 . S
C902 C903 1.477 . S
C902 H922 0.931 . S
C903 C899 1.460 . S
C903 C902 1.477 . S
C903 H923 0.930 . S
C904 N900 1.362 . S
C904 C901 1.431 . S
C904 C914 1.476 . S
H905 C899 0.929 . S
C906 O897 1.250 1_545 S
C906 O898 1.258 . S
O907 Mn892 2.162 . S
O907 C895 1.281 . S
O908 Mn892 2.297 . S
O908 C895 1.236 . S
N909 Mn893 2.282 . S
N909 C910 1.328 . S
N909 C914 1.318 . S
C910 N909 1.328 . S
C910 C911 1.457 . S
C910 H915 0.929 . S
C911 C910 1.457 . S
C911 C912 1.291 . S
C911 H924 0.931 . S
C912 C911 1.291 . S
C912 C913 1.373 . S
C912 H925 0.929 . S
C913 C912 1.373 . S
C913 C914 1.396 . S
C913 C920 1.403 . S
C914 C904 1.476 . S
C914 N909 1.318 . S
C914 C913 1.396 . S
H915 C910 0.929 . S
O916 Mn892 2.385 1_545 S
O916 C894 1.234 . S
O917 Mn892 2.209 1_545 S
O917 Mn893 2.215 . S
O917 C894 1.283 . S
O918 Mn892 2.094 . S
O918 C896 1.220 1_565 S
O919 Mn893 2.117 . S
O919 C896 1.290 . S
C920 C913 1.403 . S
C920 C921 1.399 . S
C920 H926 0.929 . S
C921 C901 1.449 . S
C921 C920 1.399 . S
C921 H927 0.930 . S
H922 C902 0.931 . S
H923 C903 0.930 . S
H924 C911 0.931 . S
H925 C912 0.929 . S
H926 C920 0.929 . S
H927 C921 0.930 . S
Mn928 O933 2.095 . S
Mn928 O943 2.162 . S
Mn928 O944 2.297 . S
Mn928 O952 2.385 . S
Mn928 O953 2.209 1_455 S
Mn928 O954 2.094 . S
Mn929 O934 2.121 . S
Mn929 N936 2.257 . S
Mn929 N945 2.282 . S
Mn929 O953 2.215 . S
Mn929 O955 2.117 . S
C930 O952 1.234 1_655 S
C930 O953 1.283 . S
C931 O943 1.281 . S
C931 O944 1.236 . S
C932 O954 1.240 . S
C932 O955 1.264 1_455 S
O933 Mn928 2.095 . S
O933 C942 1.250 . S
O934 Mn929 2.121 . S
O934 C942 1.258 1_655 S
C935 N936 1.326 . S
C935 C939 1.460 . S
C935 H941 0.929 . S
N936 Mn929 2.257 . S
N936 C935 1.326 . S
N936 C940 1.362 . S
C937 C938 1.258 . S
C937 C940 1.431 . S
C937 C957 1.449 . S
C938 C937 1.258 . S
C938 C939 1.477 . S
C938 H958 0.931 . S
C939 C935 1.460 . S
C939 C938 1.477 . S
C939 H959 0.930 . S
C940 N936 1.362 . S
C940 C937 1.431 . S
C940 C950 1.476 . S
H941 C935 0.929 . S
C942 O933 1.250 . S
C942 O934 1.258 1_455 S
O943 Mn928 2.162 . S
O943 C931 1.281 . S
O944 Mn928 2.297 . S
O944 C931 1.236 . S
N945 Mn929 2.282 . S
N945 C946 1.328 . S
N945 C950 1.318 . S
C946 N945 1.328 . S
C946 C947 1.457 . S
C946 H951 0.929 . S
C947 C946 1.457 . S
C947 C948 1.291 . S
C947 H960 0.931 . S
C948 C947 1.291 . S
C948 C949 1.373 . S
C948 H961 0.929 . S
C949 C948 1.373 . S
C949 C950 1.396 . S
C949 C956 1.403 . S
C950 C940 1.476 . S
C950 N945 1.318 . S
C950 C949 1.396 . S
H951 C946 0.929 . S
O952 Mn928 2.385 . S
O952 C930 1.234 1_455 S
O953 Mn928 2.209 1_655 S
O953 Mn929 2.215 . S
O953 C930 1.283 . S
O954 Mn928 2.094 . S
O954 C932 1.240 . S
O955 Mn929 2.117 . S
O955 C932 1.264 1_655 S
C956 C949 1.403 . S
C956 C957 1.399 . S
C956 H962 0.929 . S
C957 C937 1.449 . S
C957 C956 1.399 . S
C957 H963 0.930 . S
H958 C938 0.931 . S
H959 C939 0.930 . S
H960 C947 0.931 . S
H961 C948 0.929 . S
H962 C956 0.929 . S
H963 C957 0.930 . S
Mn964 O969 2.095 . S
Mn964 O979 2.162 . S
Mn964 O980 2.297 . S
Mn964 O988 2.385 . S
Mn964 O989 2.209 . S
Mn964 O990 2.094 . S
Mn965 O970 2.121 . S
Mn965 N972 2.257 . S
Mn965 N981 2.282 . S
Mn965 O989 2.215 . S
Mn965 O991 2.117 . S
C966 O988 1.234 . S
C966 O989 1.283 . S
C967 O979 1.281 . S
C967 O980 1.236 . S
C968 O990 1.240 . S
C968 O991 1.264 . S
O969 Mn964 2.095 . S
O969 C978 1.250 . S
O970 Mn965 2.121 . S
O970 C978 1.258 . S
C971 N972 1.326 . S
C971 C975 1.460 . S
C971 H977 0.929 . S
N972 Mn965 2.257 . S
N972 C971 1.326 . S
N972 C976 1.362 . S
C973 C974 1.258 . S
C973 C976 1.431 . S
C973 C993 1.449 . S
C974 C973 1.258 . S
C974 C975 1.477 . S
C974 H994 0.931 . S
C975 C971 1.460 . S
C975 C974 1.477 . S
C975 H995 0.930 . S
C976 N972 1.362 . S
C976 C973 1.431 . S
C976 C986 1.476 . S
H977 C971 0.929 . S
C978 O969 1.250 . S
C978 O970 1.258 . S
O979 Mn964 2.162 . S
O979 C967 1.281 . S
O980 Mn964 2.297 . S
O980 C967 1.236 . S
N981 Mn965 2.282 . S
N981 C982 1.328 . S
N981 C986 1.318 . S
C982 N981 1.328 . S
C982 C983 1.457 . S
C982 H987 0.929 . S
C983 C982 1.457 . S
C983 C984 1.291 . S
C983 H996 0.931 . S
C984 C983 1.291 . S
C984 C985 1.373 . S
C984 H997 0.929 . S
C985 C984 1.373 . S
C985 C986 1.396 . S
C985 C992 1.403 . S
C986 C976 1.476 . S
C986 N981 1.318 . S
C986 C985 1.396 . S
H987 C982 0.929 . S
O988 Mn964 2.385 . S
O988 C966 1.234 . S
O989 Mn964 2.209 . S
O989 Mn965 2.215 . S
O989 C966 1.283 . S
O990 Mn964 2.094 . S
O990 C968 1.240 . S
O991 Mn965 2.117 . S
O991 C968 1.264 . S
C992 C985 1.403 . S
C992 C993 1.399 . S
C992 H998 0.929 . S
C993 C973 1.449 . S
C993 C992 1.399 . S
C993 H999 0.930 . S
H994 C974 0.931 . S
H995 C975 0.930 . S
H996 C983 0.931 . S
H997 C984 0.929 . S
H998 C992 0.929 . S
H999 C993 0.930 . S
Mn1000 O1005 2.094 1_455 S
Mn1000 O1015 2.162 . S
Mn1000 O1016 2.310 . S
Mn1000 O1024 2.385 . S
Mn1000 O1025 2.212 . S
Mn1000 O1026 2.094 . S
Mn1001 O1006 2.121 . S
Mn1001 N1008 2.257 . S
Mn1001 N1017 2.282 1_655 S
Mn1001 O1025 2.214 1_655 S
Mn1001 O1027 2.117 1_655 S
C1002 O1024 1.234 . S
C1002 O1025 1.287 . S
C1003 O1015 1.281 . S
C1003 O1016 1.255 . S
C1004 O1026 1.240 . S
C1004 O1027 1.264 . S
O1005 Mn1000 2.094 1_655 S
O1005 C1014 1.251 . S
O1006 Mn1001 2.121 . S
O1006 C1014 1.258 . S
C1007 N1008 1.326 . S
C1007 C1011 1.460 . S
C1007 H1013 0.929 . S
N1008 Mn1001 2.257 . S
N1008 C1007 1.326 . S
N1008 C1012 1.362 . S
C1009 C1010 1.258 . S
C1009 C1012 1.431 . S
C1009 C1029 1.449 . S
C1010 C1009 1.258 . S
C1010 C1011 1.477 . S
C1010 H1030 0.931 . S
C1011 C1007 1.460 . S
C1011 C1010 1.477 . S
C1011 H1031 0.930 . S
C1012 N1008 1.362 . S
C1012 C1009 1.431 . S
C1012 C1022 1.476 . S
H1013 C1007 0.929 . S
C1014 O1005 1.251 . S
C1014 O1006 1.258 . S
O1015 Mn1000 2.162 . S
O1015 C1003 1.281 . S
O1016 Mn1000 2.310 . S
O1016 C1003 1.255 . S
N1017 Mn1001 2.282 1_455 S
N1017 C1018 1.328 . S
N1017 C1022 1.318 1_455 S
C1018 N1017 1.328 . S
C1018 C1019 1.457 . S
C1018 H1023 0.929 . S
C1019 C1018 1.457 . S
C1019 C1020 1.291 . S
C1019 H1032 0.931 . S
C1020 C1019 1.291 . S
C1020 C1021 1.421 . S
C1020 H1033 0.929 . S
C1021 C1020 1.421 . S
C1021 C1022 1.384 1_455 S
C1021 C1028 1.368 1_455 S
C1022 C1012 1.476 . S
C1022 N1017 1.318 1_655 S
C1022 C1021 1.384 1_655 S
H1023 C1018 0.929 . S
O1024 Mn1000 2.385 . S
O1024 C1002 1.234 . S
O1025 Mn1000 2.212 . S
O1025 Mn1001 2.214 1_455 S
O1025 C1002 1.287 . S
O1026 Mn1000 2.094 . S
O1026 C1004 1.240 . S
O1027 Mn1001 2.117 1_455 S
O1027 C1004 1.264 . S
C1028 C1021 1.368 1_655 S
C1028 C1029 1.399 . S
C1028 H1034 0.929 . S
C1029 C1009 1.449 . S
C1029 C1028 1.399 . S
C1029 H1035 0.930 . S
H1030 C1010 0.931 . S
H1031 C1011 0.930 . S
H1032 C1019 0.931 . S
H1033 C1020 0.929 . S
H1034 C1028 0.929 . S
H1035 C1029 0.930 . S
Mn1036 O1041 2.095 . S
Mn1036 O1051 2.162 . S
Mn1036 O1052 2.297 . S
Mn1036 O1060 2.385 . S
Mn1036 O1061 2.209 . S
Mn1036 O1062 2.094 . S
Mn1037 O1042 2.121 . S
Mn1037 N1044 2.257 . S
Mn1037 N1053 2.282 . S
Mn1037 O1061 2.215 . S
Mn1037 O1063 2.117 . S
C1038 O1060 1.234 . S
C1038 O1061 1.283 . S
C1039 O1051 1.281 . S
C1039 O1052 1.236 . S
C1040 O1062 1.240 . S
C1040 O1063 1.264 . S
O1041 Mn1036 2.095 . S
O1041 C1050 1.250 . S
O1042 Mn1037 2.121 . S
O1042 C1050 1.258 . S
C1043 N1044 1.326 . S
C1043 C1047 1.460 . S
C1043 H1049 0.929 . S
N1044 Mn1037 2.257 . S
N1044 C1043 1.326 . S
N1044 C1048 1.362 . S
C1045 C1046 1.258 . S
C1045 C1048 1.431 . S
C1045 C1065 1.449 . S
C1046 C1045 1.258 . S
C1046 C1047 1.477 . S
C1046 H1066 0.931 . S
C1047 C1043 1.460 . S
C1047 C1046 1.477 . S
C1047 H1067 0.930 . S
C1048 N1044 1.362 . S
C1048 C1045 1.431 . S
C1048 C1058 1.476 . S
H1049 C1043 0.929 . S
C1050 O1041 1.250 . S
C1050 O1042 1.258 . S
O1051 Mn1036 2.162 . S
O1051 C1039 1.281 . S
O1052 Mn1036 2.297 . S
O1052 C1039 1.236 . S
N1053 Mn1037 2.282 . S
N1053 C1054 1.328 . S
N1053 C1058 1.318 . S
C1054 N1053 1.328 . S
C1054 C1055 1.457 . S
C1054 H1059 0.929 . S
C1055 C1054 1.457 . S
C1055 C1056 1.291 . S
C1055 H1068 0.931 . S
C1056 C1055 1.291 . S
C1056 C1057 1.373 . S
C1056 H1069 0.929 . S
C1057 C1056 1.373 . S
C1057 C1058 1.396 . S
C1057 C1064 1.403 . S
C1058 C1048 1.476 . S
C1058 N1053 1.318 . S
C1058 C1057 1.396 . S
H1059 C1054 0.929 . S
O1060 Mn1036 2.385 . S
O1060 C1038 1.234 . S
O1061 Mn1036 2.209 . S
O1061 Mn1037 2.215 . S
O1061 C1038 1.283 . S
O1062 Mn1036 2.094 . S
O1062 C1040 1.240 . S
O1063 Mn1037 2.117 . S
O1063 C1040 1.264 . S
C1064 C1057 1.403 . S
C1064 C1065 1.399 . S
C1064 H1070 0.929 . S
C1065 C1045 1.449 . S
C1065 C1064 1.399 . S
C1065 H1071 0.930 . S
H1066 C1046 0.931 . S
H1067 C1047 0.930 . S
H1068 C1055 0.931 . S
H1069 C1056 0.929 . S
H1070 C1064 0.929 . S
H1071 C1065 0.930 . S
H1072 C1090 0.951 . S
H1073 C1092 0.951 . S
H1074 C1094 0.950 . S
H1075 C1095 0.950 . S
H1076 C1097 0.950 . S
H1077 C1100 0.950 . S
H1078 C1101 0.950 . S
H1079 C1103 0.950 . S
H1080 C1104 0.950 . S
H1081 C1105 0.951 . S
H1082 C1107 0.951 . S
H1083 C1109 0.950 . S
H1084 C1110 0.950 . S
H1085 C1112 0.950 . S
H1086 C1115 0.950 . S
H1087 C1116 0.950 . S
H1088 C1118 0.919 1_554 S
H1089 C1119 0.950 . S
C1090 H1072 0.951 . S
C1090 C1091 1.366 . S
C1090 C1092 1.388 . S
C1091 C1090 1.366 . S
C1091 C1095 1.385 . S
C1092 H1073 0.951 . S
C1092 C1090 1.388 . S
C1092 C1093 1.366 . S
C1093 C1092 1.366 . S
C1093 C1094 1.414 . S
C1093 C1096 1.499 . S
C1094 H1074 0.950 . S
C1094 C1093 1.414 . S
C1094 C1095 1.374 . S
C1095 H1075 0.950 . S
C1095 C1091 1.385 . S
C1095 C1094 1.374 . S
C1096 C1093 1.499 . S
C1096 C1097 1.373 . S
C1096 C1098 1.389 . S
C1097 H1076 0.950 . S
C1097 C1096 1.373 . S
C1097 C1113 1.377 . S
C1098 C1096 1.389 . S
C1098 C1099 1.524 . S
C1098 C1112 1.377 . S
C1099 C1098 1.524 . S
C1099 C1100 1.397 . S
C1099 C1104 1.363 . S
C1100 H1077 0.950 . S
C1100 C1099 1.397 . S
C1100 C1101 1.334 . S
C1101 H1078 0.950 . S
C1101 C1100 1.334 . S
C1101 C1102 1.287 . S
C1102 C1101 1.287 . S
C1102 C1103 1.524 . S
C1102 H1121 0.913 . S
C1103 H1079 0.950 . S
C1103 C1102 1.524 . S
C1103 C1104 1.415 . S
C1104 H1080 0.950 . S
C1104 C1099 1.363 . S
C1104 C1103 1.415 . S
C1105 H1081 0.951 . S
C1105 C1106 1.366 . S
C1105 C1107 1.388 . S
C1106 C1105 1.366 . S
C1106 C1110 1.385 . S
C1107 H1082 0.951 . S
C1107 C1105 1.388 . S
C1107 C1108 1.366 . S
C1108 C1107 1.366 . S
C1108 C1109 1.414 . S
C1108 C1111 1.499 . S
C1109 H1083 0.950 . S
C1109 C1108 1.414 . S
C1109 C1110 1.374 . S
C1110 H1084 0.950 . S
C1110 C1106 1.385 . S
C1110 C1109 1.374 . S
C1111 C1108 1.499 . S
C1111 C1112 1.373 . S
C1111 C1113 1.389 . S
C1112 H1085 0.950 . S
C1112 C1098 1.377 . S
C1112 C1111 1.373 . S
C1113 C1097 1.377 . S
C1113 C1111 1.389 . S
C1113 C1114 1.524 . S
C1114 C1113 1.524 . S
C1114 C1115 1.397 . S
C1114 C1119 1.363 . S
C1115 H1086 0.950 . S
C1115 C1114 1.397 . S
C1115 C1116 1.334 . S
C1116 H1087 0.950 . S
C1116 C1115 1.334 . S
C1116 C1117 1.287 . S
C1117 C1116 1.287 . S
C1117 C1118 1.524 . S
C1117 H1120 0.999 1_556 S
C1118 H1088 0.919 1_556 S
C1118 C1117 1.524 . S
C1118 C1119 1.415 . S
C1119 H1089 0.950 . S
C1119 C1114 1.363 . S
C1119 C1118 1.415 . S
H1120 C1117 0.999 1_554 S
H1121 C1102 0.913 . S
H1122 C1140 0.951 . S
H1123 C1142 0.951 . S
H1124 C1144 0.950 . S
H1125 C1145 0.950 . S
H1126 C1147 0.950 . S
H1127 C1150 0.950 . S
H1128 C1151 0.950 . S
H1129 C1153 0.950 . S
H1130 C1154 0.950 . S
H1131 C1155 0.951 . S
H1132 C1157 0.951 . S
H1133 C1159 0.950 . S
H1134 C1160 0.950 . S
H1135 C1162 0.950 . S
H1136 C1165 0.950 . S
H1137 C1166 0.950 . S
H1138 C1168 0.950 . S
H1139 C1169 0.950 . S
C1140 H1122 0.951 . S
C1140 C1141 1.366 . S
C1140 C1142 1.388 . S
C1141 C1140 1.366 . S
C1141 C1145 1.385 . S
C1142 H1123 0.951 . S
C1142 C1140 1.388 . S
C1142 C1143 1.366 . S
C1143 C1142 1.366 . S
C1143 C1144 1.414 . S
C1143 C1146 1.499 . S
C1144 H1124 0.950 . S
C1144 C1143 1.414 . S
C1144 C1145 1.374 . S
C1145 H1125 0.950 . S
C1145 C1141 1.385 . S
C1145 C1144 1.374 . S
C1146 C1143 1.499 . S
C1146 C1147 1.373 . S
C1146 C1148 1.389 . S
C1147 H1126 0.950 . S
C1147 C1146 1.373 . S
C1147 C1163 1.377 . S
C1148 C1146 1.389 . S
C1148 C1149 1.524 . S
C1148 C1162 1.377 . S
C1149 C1148 1.524 . S
C1149 C1150 1.397 . S
C1149 C1154 1.363 . S
C1150 H1127 0.950 . S
C1150 C1149 1.397 . S
C1150 C1151 1.334 . S
C1151 H1128 0.950 . S
C1151 C1150 1.334 . S
C1151 C1152 1.287 . S
C1152 C1151 1.287 . S
C1152 C1153 1.524 . S
C1152 H1171 0.913 . S
C1153 H1129 0.950 . S
C1153 C1152 1.524 . S
C1153 C1154 1.415 . S
C1154 H1130 0.950 . S
C1154 C1149 1.363 . S
C1154 C1153 1.415 . S
C1155 H1131 0.951 . S
C1155 C1156 1.366 . S
C1155 C1157 1.388 . S
C1156 C1155 1.366 . S
C1156 C1160 1.385 . S
C1157 H1132 0.951 . S
C1157 C1155 1.388 . S
C1157 C1158 1.366 . S
C1158 C1157 1.366 . S
C1158 C1159 1.414 . S
C1158 C1161 1.499 . S
C1159 H1133 0.950 . S
C1159 C1158 1.414 . S
C1159 C1160 1.374 . S
C1160 H1134 0.950 . S
C1160 C1156 1.385 . S
C1160 C1159 1.374 . S
C1161 C1158 1.499 . S
C1161 C1162 1.373 . S
C1161 C1163 1.389 . S
C1162 H1135 0.950 . S
C1162 C1148 1.377 . S
C1162 C1161 1.373 . S
C1163 C1147 1.377 . S
C1163 C1161 1.389 . S
C1163 C1164 1.524 . S
C1164 C1163 1.524 . S
C1164 C1165 1.397 . S
C1164 C1169 1.363 . S
C1165 H1136 0.950 . S
C1165 C1164 1.397 . S
C1165 C1166 1.334 . S
C1166 H1137 0.950 . S
C1166 C1165 1.334 . S
C1166 C1167 1.287 . S
C1167 C1166 1.287 . S
C1167 C1168 1.524 . S
C1167 H1170 0.999 . S
C1168 H1138 0.950 . S
C1168 C1167 1.524 . S
C1168 C1169 1.415 . S
C1169 H1139 0.950 . S
C1169 C1164 1.363 . S
C1169 C1168 1.415 . S
H1170 C1167 0.999 . S
H1171 C1152 0.913 . S
H1172 C1190 0.951 . S
H1173 C1192 0.951 . S
H1174 C1194 0.950 . S
H1175 C1195 0.950 . S
H1176 C1197 0.950 . S
H1177 C1200 0.950 . S
H1178 C1201 0.950 . S
H1179 C1203 0.950 . S
H1180 C1204 0.950 . S
H1181 C1205 0.951 . S
H1182 C1207 0.951 . S
H1183 C1209 0.950 . S
H1184 C1210 0.950 . S
H1185 C1212 0.950 . S
H1186 C1215 0.950 . S
H1187 C1216 0.950 . S
H1188 C1218 0.950 . S
H1189 C1219 0.950 . S
C1190 H1172 0.951 . S
C1190 C1191 1.366 . S
C1190 C1192 1.388 . S
C1191 C1190 1.366 . S
C1191 C1195 1.385 . S
C1192 H1173 0.951 . S
C1192 C1190 1.388 . S
C1192 C1193 1.366 . S
C1193 C1192 1.366 . S
C1193 C1194 1.414 . S
C1193 C1196 1.499 . S
C1194 H1174 0.950 . S
C1194 C1193 1.414 . S
C1194 C1195 1.374 . S
C1195 H1175 0.950 . S
C1195 C1191 1.385 . S
C1195 C1194 1.374 . S
C1196 C1193 1.499 . S
C1196 C1197 1.373 . S
C1196 C1198 1.389 . S
C1197 H1176 0.950 . S
C1197 C1196 1.373 . S
C1197 C1213 1.377 . S
C1198 C1196 1.389 . S
C1198 C1199 1.524 . S
C1198 C1212 1.377 . S
C1199 C1198 1.524 . S
C1199 C1200 1.397 . S
C1199 C1204 1.363 . S
C1200 H1177 0.950 . S
C1200 C1199 1.397 . S
C1200 C1201 1.334 . S
C1201 H1178 0.950 . S
C1201 C1200 1.334 . S
C1201 C1202 1.287 . S
C1202 C1201 1.287 . S
C1202 C1203 1.524 . S
C1202 H1221 0.913 . S
C1203 H1179 0.950 . S
C1203 C1202 1.524 . S
C1203 C1204 1.415 . S
C1204 H1180 0.950 . S
C1204 C1199 1.363 . S
C1204 C1203 1.415 . S
C1205 H1181 0.951 . S
C1205 C1206 1.366 . S
C1205 C1207 1.388 . S
C1206 C1205 1.366 . S
C1206 C1210 1.385 . S
C1207 H1182 0.951 . S
C1207 C1205 1.388 . S
C1207 C1208 1.366 . S
C1208 C1207 1.366 . S
C1208 C1209 1.414 . S
C1208 C1211 1.499 . S
C1209 H1183 0.950 . S
C1209 C1208 1.414 . S
C1209 C1210 1.374 . S
C1210 H1184 0.950 . S
C1210 C1206 1.385 . S
C1210 C1209 1.374 . S
C1211 C1208 1.499 . S
C1211 C1212 1.373 . S
C1211 C1213 1.389 . S
C1212 H1185 0.950 . S
C1212 C1198 1.377 . S
C1212 C1211 1.373 . S
C1213 C1197 1.377 . S
C1213 C1211 1.389 . S
C1213 C1214 1.524 . S
C1214 C1213 1.524 . S
C1214 C1215 1.397 . S
C1214 C1219 1.363 . S
C1215 H1186 0.950 . S
C1215 C1214 1.397 . S
C1215 C1216 1.334 . S
C1216 H1187 0.950 . S
C1216 C1215 1.334 . S
C1216 C1217 1.287 . S
C1217 C1216 1.287 . S
C1217 C1218 1.524 . S
C1217 H1220 0.999 . S
C1218 H1188 0.950 . S
C1218 C1217 1.524 . S
C1218 C1219 1.415 . S
C1219 H1189 0.950 . S
C1219 C1214 1.363 . S
C1219 C1218 1.415 . S
H1220 C1217 0.999 . S
H1221 C1202 0.913 . S
H1222 C1240 0.951 . S
H1223 C1242 0.951 . S
H1224 C1244 0.950 . S
H1225 C1245 0.950 . S
H1226 C1247 0.950 . S
H1227 C1250 0.950 . S
H1228 C1251 0.950 . S
H1229 C1253 0.950 . S
H1230 C1254 0.950 . S
H1231 C1255 0.951 . S
H1232 C1257 0.951 . S
H1233 C1259 0.950 . S
H1234 C1260 0.950 . S
H1235 C1262 0.950 . S
H1236 C1265 0.950 . S
H1237 C1266 0.950 . S
H1238 C1268 0.950 . S
H1239 C1269 0.950 . S
C1240 H1222 0.951 . S
C1240 C1241 1.366 . S
C1240 C1242 1.388 . S
C1241 C1240 1.366 . S
C1241 C1245 1.385 . S
C1242 H1223 0.951 . S
C1242 C1240 1.388 . S
C1242 C1243 1.366 . S
C1243 C1242 1.366 . S
C1243 C1244 1.414 . S
C1243 C1246 1.499 . S
C1244 H1224 0.950 . S
C1244 C1243 1.414 . S
C1244 C1245 1.374 . S
C1245 H1225 0.950 . S
C1245 C1241 1.385 . S
C1245 C1244 1.374 . S
C1246 C1243 1.499 . S
C1246 C1247 1.373 1_565 S
C1246 C1248 1.389 . S
C1247 H1226 0.950 . S
C1247 C1246 1.373 1_545 S
C1247 C1263 1.377 . S
C1248 C1246 1.389 . S
C1248 C1249 1.524 . S
C1248 C1262 1.377 . S
C1249 C1248 1.524 . S
C1249 C1250 1.397 . S
C1249 C1254 1.363 . S
C1250 H1227 0.950 . S
C1250 C1249 1.397 . S
C1250 C1251 1.334 . S
C1251 H1228 0.950 . S
C1251 C1250 1.334 . S
C1251 C1252 1.287 . S
C1252 C1251 1.287 . S
C1252 C1253 1.524 . S
C1252 H1271 0.913 . S
C1253 H1229 0.950 . S
C1253 C1252 1.524 . S
C1253 C1254 1.415 . S
C1254 H1230 0.950 . S
C1254 C1249 1.363 . S
C1254 C1253 1.415 . S
C1255 H1231 0.951 . S
C1255 C1256 1.366 . S
C1255 C1257 1.388 . S
C1256 C1255 1.366 . S
C1256 C1260 1.398 . S
C1257 H1232 0.951 . S
C1257 C1255 1.388 . S
C1257 C1258 1.367 . S
C1258 C1257 1.367 . S
C1258 C1259 1.413 1_545 S
C1258 C1261 1.497 1_545 S
C1259 H1233 0.950 . S
C1259 C1258 1.413 1_565 S
C1259 C1260 1.365 1_565 S
C1260 H1234 0.950 . S
C1260 C1256 1.398 . S
C1260 C1259 1.365 1_545 S
C1261 C1258 1.497 1_565 S
C1261 C1262 1.373 . S
C1261 C1263 1.389 1_565 S
C1262 H1235 0.950 . S
C1262 C1248 1.377 . S
C1262 C1261 1.373 . S
C1263 C1247 1.377 . S
C1263 C1261 1.389 1_545 S
C1263 C1264 1.524 . S
C1264 C1263 1.524 . S
C1264 C1265 1.397 . S
C1264 C1269 1.363 . S
C1265 H1236 0.950 . S
C1265 C1264 1.397 . S
C1265 C1266 1.334 . S
C1266 H1237 0.950 . S
C1266 C1265 1.334 . S
C1266 C1267 1.287 . S
C1267 C1266 1.287 . S
C1267 C1268 1.524 . S
C1267 H1270 0.999 . S
C1268 H1238 0.950 . S
C1268 C1267 1.524 . S
C1268 C1269 1.415 . S
C1269 H1239 0.950 . S
C1269 C1264 1.363 . S
C1269 C1268 1.415 . S
H1270 C1267 0.999 . S
H1271 C1252 0.913 . S
H1272 C1290 0.951 . S
H1273 C1292 0.951 . S
H1274 C1294 0.950 . S
H1275 C1295 0.950 . S
H1276 C1297 0.950 . S
H1277 C1300 0.950 . S
H1278 C1301 0.950 . S
H1279 C1303 0.950 . S
H1280 C1304 0.950 . S
H1281 C1305 0.951 . S
H1282 C1307 0.951 . S
H1283 C1309 0.950 . S
H1284 C1310 0.950 . S
H1285 C1312 0.950 . S
H1286 C1315 0.950 . S
H1287 C1316 0.950 . S
H1288 C1318 0.950 . S
H1289 C1319 0.950 . S
C1290 H1272 0.951 . S
C1290 C1291 1.366 . S
C1290 C1292 1.388 . S
C1291 C1290 1.366 . S
C1291 C1295 1.385 . S
C1292 H1273 0.951 . S
C1292 C1290 1.388 . S
C1292 C1293 1.366 . S
C1293 C1292 1.366 . S
C1293 C1294 1.414 . S
C1293 C1296 1.499 . S
C1294 H1274 0.950 . S
C1294 C1293 1.414 . S
C1294 C1295 1.374 . S
C1295 H1275 0.950 . S
C1295 C1291 1.385 . S
C1295 C1294 1.374 . S
C1296 C1293 1.499 . S
C1296 C1297 1.373 . S
C1296 C1298 1.389 . S
C1297 H1276 0.950 . S
C1297 C1296 1.373 . S
C1297 C1313 1.377 . S
C1298 C1296 1.389 . S
C1298 C1299 1.524 . S
C1298 C1312 1.377 . S
C1299 C1298 1.524 . S
C1299 C1300 1.397 . S
C1299 C1304 1.363 . S
C1300 H1277 0.950 . S
C1300 C1299 1.397 . S
C1300 C1301 1.334 . S
C1301 H1278 0.950 . S
C1301 C1300 1.334 . S
C1301 C1302 1.287 . S
C1302 C1301 1.287 . S
C1302 C1303 1.524 . S
C1302 H1321 0.913 . S
C1303 H1279 0.950 . S
C1303 C1302 1.524 . S
C1303 C1304 1.415 . S
C1304 H1280 0.950 . S
C1304 C1299 1.363 . S
C1304 C1303 1.415 . S
C1305 H1281 0.951 . S
C1305 C1306 1.366 . S
C1305 C1307 1.388 . S
C1306 C1305 1.366 . S
C1306 C1310 1.385 . S
C1307 H1282 0.951 . S
C1307 C1305 1.388 . S
C1307 C1308 1.366 . S
C1308 C1307 1.366 . S
C1308 C1309 1.414 . S
C1308 C1311 1.499 . S
C1309 H1283 0.950 . S
C1309 C1308 1.414 . S
C1309 C1310 1.374 . S
C1310 H1284 0.950 . S
C1310 C1306 1.385 . S
C1310 C1309 1.374 . S
C1311 C1308 1.499 . S
C1311 C1312 1.373 . S
C1311 C1313 1.389 . S
C1312 H1285 0.950 . S
C1312 C1298 1.377 . S
C1312 C1311 1.373 . S
C1313 C1297 1.377 . S
C1313 C1311 1.389 . S
C1313 C1314 1.524 . S
C1314 C1313 1.524 . S
C1314 C1315 1.397 . S
C1314 C1319 1.363 . S
C1315 H1286 0.950 . S
C1315 C1314 1.397 . S
C1315 C1316 1.334 . S
C1316 H1287 0.950 . S
C1316 C1315 1.334 . S
C1316 C1317 1.287 . S
C1317 C1316 1.287 . S
C1317 C1318 1.524 . S
C1317 H1320 0.999 . S
C1318 H1288 0.950 . S
C1318 C1317 1.524 . S
C1318 C1319 1.415 . S
C1319 H1289 0.950 . S
C1319 C1314 1.363 . S
C1319 C1318 1.415 . S
H1320 C1317 0.999 . S
H1321 C1302 0.913 . S
H1322 C1340 0.951 . S
H1323 C1342 0.951 . S
H1324 C1344 0.950 . S
H1325 C1345 0.950 . S
H1326 C1347 0.950 . S
H1327 C1350 0.950 . S
H1328 C1351 0.950 . S
H1329 C1353 0.950 . S
H1330 C1354 0.950 . S
H1331 C1355 0.951 . S
H1332 C1357 0.951 . S
H1333 C1359 0.950 . S
H1334 C1360 0.950 . S
H1335 C1362 0.950 . S
H1336 C1365 0.950 . S
H1337 C1366 0.950 . S
H1338 C1368 0.950 . S
H1339 C1369 0.950 . S
C1340 H1322 0.951 . S
C1340 C1341 1.366 . S
C1340 C1342 1.388 . S
C1341 C1340 1.366 . S
C1341 C1345 1.385 . S
C1342 H1323 0.951 . S
C1342 C1340 1.388 . S
C1342 C1343 1.366 . S
C1343 C1342 1.366 . S
C1343 C1344 1.414 . S
C1343 C1346 1.499 . S
C1344 H1324 0.950 . S
C1344 C1343 1.414 . S
C1344 C1345 1.374 . S
C1345 H1325 0.950 . S
C1345 C1341 1.385 . S
C1345 C1344 1.374 . S
C1346 C1343 1.499 . S
C1346 C1347 1.373 . S
C1346 C1348 1.389 . S
C1347 H1326 0.950 . S
C1347 C1346 1.373 . S
C1347 C1363 1.377 . S
C1348 C1346 1.389 . S
C1348 C1349 1.524 . S
C1348 C1362 1.377 . S
C1349 C1348 1.524 . S
C1349 C1350 1.397 . S
C1349 C1354 1.363 . S
C1350 H1327 0.950 . S
C1350 C1349 1.397 . S
C1350 C1351 1.334 . S
C1351 H1328 0.950 . S
C1351 C1350 1.334 . S
C1351 C1352 1.287 . S
C1352 C1351 1.287 . S
C1352 C1353 1.524 . S
C1352 H1371 0.913 . S
C1353 H1329 0.950 . S
C1353 C1352 1.524 . S
C1353 C1354 1.415 . S
C1354 H1330 0.950 . S
C1354 C1349 1.363 . S
C1354 C1353 1.415 . S
C1355 H1331 0.951 . S
C1355 C1356 1.366 . S
C1355 C1357 1.388 . S
C1356 C1355 1.366 . S
C1356 C1360 1.385 . S
C1357 H1332 0.951 . S
C1357 C1355 1.388 . S
C1357 C1358 1.366 . S
C1358 C1357 1.366 . S
C1358 C1359 1.414 . S
C1358 C1361 1.499 . S
C1359 H1333 0.950 . S
C1359 C1358 1.414 . S
C1359 C1360 1.374 . S
C1360 H1334 0.950 . S
C1360 C1356 1.385 . S
C1360 C1359 1.374 . S
C1361 C1358 1.499 . S
C1361 C1362 1.373 . S
C1361 C1363 1.389 . S
C1362 H1335 0.950 . S
C1362 C1348 1.377 . S
C1362 C1361 1.373 . S
C1363 C1347 1.377 . S
C1363 C1361 1.389 . S
C1363 C1364 1.524 . S
C1364 C1363 1.524 . S
C1364 C1365 1.397 . S
C1364 C1369 1.363 . S
C1365 H1336 0.950 . S
C1365 C1364 1.397 . S
C1365 C1366 1.334 . S
C1366 H1337 0.950 . S
C1366 C1365 1.334 . S
C1366 C1367 1.287 . S
C1367 C1366 1.287 . S
C1367 C1368 1.524 . S
C1367 H1370 0.999 . S
C1368 H1338 0.950 . S
C1368 C1367 1.524 . S
C1368 C1369 1.415 . S
C1369 H1339 0.950 . S
C1369 C1364 1.363 . S
C1369 C1368 1.415 . S
H1370 C1367 0.999 . S
H1371 C1352 0.913 . S
H1372 C1390 0.951 . S
H1373 C1392 0.951 . S
H1374 C1394 0.950 . S
H1375 C1395 0.950 . S
H1376 C1397 0.950 . S
H1377 C1400 0.950 . S
H1378 C1401 0.950 . S
H1379 C1403 0.950 . S
H1380 C1404 0.950 . S
H1381 C1405 0.951 . S
H1382 C1407 0.951 . S
H1383 C1409 0.950 . S
H1384 C1410 0.950 . S
H1385 C1412 0.950 . S
H1386 C1415 0.950 . S
H1387 C1416 0.950 . S
H1388 C1418 0.950 . S
H1389 C1419 0.950 . S
C1390 H1372 0.951 . S
C1390 C1391 1.366 . S
C1390 C1392 1.388 . S
C1391 C1390 1.366 . S
C1391 C1395 1.385 . S
C1392 H1373 0.951 . S
C1392 C1390 1.388 . S
C1392 C1393 1.366 . S
C1393 C1392 1.366 . S
C1393 C1394 1.414 . S
C1393 C1396 1.499 . S
C1394 H1374 0.950 . S
C1394 C1393 1.414 . S
C1394 C1395 1.374 . S
C1395 H1375 0.950 . S
C1395 C1391 1.385 . S
C1395 C1394 1.374 . S
C1396 C1393 1.499 . S
C1396 C1397 1.373 . S
C1396 C1398 1.389 . S
C1397 H1376 0.950 . S
C1397 C1396 1.373 . S
C1397 C1413 1.377 . S
C1398 C1396 1.389 . S
C1398 C1399 1.524 . S
C1398 C1412 1.377 . S
C1399 C1398 1.524 . S
C1399 C1400 1.397 . S
C1399 C1404 1.363 . S
C1400 H1377 0.950 . S
C1400 C1399 1.397 . S
C1400 C1401 1.334 . S
C1401 H1378 0.950 . S
C1401 C1400 1.334 . S
C1401 C1402 1.287 . S
C1402 C1401 1.287 . S
C1402 C1403 1.524 . S
C1402 H1421 0.913 . S
C1403 H1379 0.950 . S
C1403 C1402 1.524 . S
C1403 C1404 1.415 . S
C1404 H1380 0.950 . S
C1404 C1399 1.363 . S
C1404 C1403 1.415 . S
C1405 H1381 0.951 . S
C1405 C1406 1.366 . S
C1405 C1407 1.388 . S
C1406 C1405 1.366 . S
C1406 C1410 1.385 . S
C1407 H1382 0.951 . S
C1407 C1405 1.388 . S
C1407 C1408 1.366 . S
C1408 C1407 1.366 . S
C1408 C1409 1.414 . S
C1408 C1411 1.499 . S
C1409 H1383 0.950 . S
C1409 C1408 1.414 . S
C1409 C1410 1.374 . S
C1410 H1384 0.950 . S
C1410 C1406 1.385 . S
C1410 C1409 1.374 . S
C1411 C1408 1.499 . S
C1411 C1412 1.373 . S
C1411 C1413 1.389 . S
C1412 H1385 0.950 . S
C1412 C1398 1.377 . S
C1412 C1411 1.373 . S
C1413 C1397 1.377 . S
C1413 C1411 1.389 . S
C1413 C1414 1.524 . S
C1414 C1413 1.524 . S
C1414 C1415 1.397 . S
C1414 C1419 1.363 . S
C1415 H1386 0.950 . S
C1415 C1414 1.397 . S
C1415 C1416 1.334 . S
C1416 H1387 0.950 . S
C1416 C1415 1.334 . S
C1416 C1417 1.287 . S
C1417 C1416 1.287 . S
C1417 C1418 1.524 . S
C1417 H1420 0.999 . S
C1418 H1388 0.950 . S
C1418 C1417 1.524 . S
C1418 C1419 1.415 . S
C1419 H1389 0.950 . S
C1419 C1414 1.363 . S
C1419 C1418 1.415 . S
H1420 C1417 0.999 . S
H1421 C1402 0.913 . S
H1422 C1440 0.951 . S
H1423 C1442 0.951 . S
H1424 C1444 0.950 . S
H1425 C1445 0.950 . S
H1426 C1447 0.950 . S
H1427 C1450 0.950 . S
H1428 C1451 0.950 . S
H1429 C1453 0.950 . S
H1430 C1454 0.950 . S
H1431 C1455 0.951 . S
H1432 C1457 0.951 . S
H1433 C1459 0.939 1_545 S
H1434 C1460 0.970 . S
H1435 C1462 0.950 . S
H1436 C1465 0.950 . S
H1437 C1466 0.950 . S
H1438 C1468 0.950 . S
H1439 C1469 0.950 1_565 S
C1440 H1422 0.951 . S
C1440 C1441 1.366 . S
C1440 C1442 1.388 . S
C1441 C1440 1.366 . S
C1441 C1445 1.385 . S
C1442 H1423 0.951 . S
C1442 C1440 1.388 . S
C1442 C1443 1.366 . S
C1443 C1442 1.366 . S
C1443 C1444 1.414 . S
C1443 C1446 1.499 . S
C1444 H1424 0.950 . S
C1444 C1443 1.414 . S
C1444 C1445 1.374 . S
C1445 H1425 0.950 . S
C1445 C1441 1.385 . S
C1445 C1444 1.374 . S
C1446 C1443 1.499 . S
C1446 C1447 1.373 . S
C1446 C1448 1.389 . S
C1447 H1426 0.950 . S
C1447 C1446 1.373 . S
C1447 C1463 1.377 . S
C1448 C1446 1.389 . S
C1448 C1449 1.524 . S
C1448 C1462 1.377 . S
C1449 C1448 1.524 . S
C1449 C1450 1.397 . S
C1449 C1454 1.363 . S
C1450 H1427 0.950 . S
C1450 C1449 1.397 . S
C1450 C1451 1.334 . S
C1451 H1428 0.950 . S
C1451 C1450 1.334 . S
C1451 C1452 1.287 . S
C1452 C1451 1.287 . S
C1452 C1453 1.524 . S
C1452 H1471 0.913 . S
C1453 H1429 0.950 . S
C1453 C1452 1.524 . S
C1453 C1454 1.415 . S
C1454 H1430 0.950 . S
C1454 C1449 1.363 . S
C1454 C1453 1.415 . S
C1455 H1431 0.951 . S
C1455 C1456 1.366 . S
C1455 C1457 1.388 . S
C1456 C1455 1.366 . S
C1456 C1460 1.371 1_565 S
C1457 H1432 0.951 . S
C1457 C1455 1.388 . S
C1457 C1458 1.366 . S
C1458 C1457 1.366 . S
C1458 C1459 1.431 . S
C1458 C1461 1.499 . S
C1459 H1433 0.939 1_565 S
C1459 C1458 1.431 . S
C1459 C1460 1.372 1_565 S
C1460 H1434 0.970 . S
C1460 C1456 1.371 1_545 S
C1460 C1459 1.372 1_545 S
C1461 C1458 1.499 . S
C1461 C1462 1.373 . S
C1461 C1463 1.389 . S
C1462 H1435 0.950 . S
C1462 C1448 1.377 . S
C1462 C1461 1.373 . S
C1463 C1447 1.377 . S
C1463 C1461 1.389 . S
C1463 C1464 1.524 1_565 S
C1464 C1463 1.524 1_545 S
C1464 C1465 1.397 . S
C1464 C1469 1.363 . S
C1465 H1436 0.950 . S
C1465 C1464 1.397 . S
C1465 C1466 1.334 . S
C1466 H1437 0.950 . S
C1466 C1465 1.334 . S
C1466 C1467 1.287 . S
C1467 C1466 1.287 . S
C1467 C1468 1.524 . S
C1467 H1470 0.999 . S
C1468 H1438 0.950 . S
C1468 C1467 1.524 . S
C1468 C1469 1.415 . S
C1469 H1439 0.950 1_545 S
C1469 C1464 1.363 . S
C1469 C1468 1.415 . S
H1470 C1467 0.999 . S
H1471 C1452 0.913 . S
H1472 C1490 0.951 . S
H1473 C1492 0.951 . S
H1474 C1494 0.950 . S
H1475 C1495 0.950 . S
H1476 C1497 0.950 . S
H1477 C1500 0.950 . S
H1478 C1501 0.950 . S
H1479 C1503 0.950 . S
H1480 C1504 0.950 . S
H1481 C1505 0.951 . S
H1482 C1507 0.951 . S
H1483 C1509 0.950 . S
H1484 C1510 0.950 . S
H1485 C1512 0.950 . S
H1486 C1515 0.950 . S
H1487 C1516 0.950 . S
H1488 C1518 0.950 . S
H1489 C1519 0.950 . S
C1490 H1472 0.951 . S
C1490 C1491 1.366 . S
C1490 C1492 1.388 . S
C1491 C1490 1.366 . S
C1491 C1495 1.385 . S
C1492 H1473 0.951 . S
C1492 C1490 1.388 . S
C1492 C1493 1.366 . S
C1493 C1492 1.366 . S
C1493 C1494 1.414 . S
C1493 C1496 1.499 . S
C1494 H1474 0.950 . S
C1494 C1493 1.414 . S
C1494 C1495 1.374 . S
C1495 H1475 0.950 . S
C1495 C1491 1.385 . S
C1495 C1494 1.374 . S
C1496 C1493 1.499 . S
C1496 C1497 1.373 . S
C1496 C1498 1.389 . S
C1497 H1476 0.950 . S
C1497 C1496 1.373 . S
C1497 C1513 1.377 . S
C1498 C1496 1.389 . S
C1498 C1499 1.524 . S
C1498 C1512 1.377 . S
C1499 C1498 1.524 . S
C1499 C1500 1.397 . S
C1499 C1504 1.363 . S
C1500 H1477 0.950 . S
C1500 C1499 1.397 . S
C1500 C1501 1.334 . S
C1501 H1478 0.950 . S
C1501 C1500 1.334 . S
C1501 C1502 1.287 . S
C1502 C1501 1.287 . S
C1502 C1503 1.524 . S
C1502 H1521 0.913 . S
C1503 H1479 0.950 . S
C1503 C1502 1.524 . S
C1503 C1504 1.415 . S
C1504 H1480 0.950 . S
C1504 C1499 1.363 . S
C1504 C1503 1.415 . S
C1505 H1481 0.951 . S
C1505 C1506 1.366 . S
C1505 C1507 1.388 . S
C1506 C1505 1.366 . S
C1506 C1510 1.385 . S
C1507 H1482 0.951 . S
C1507 C1505 1.388 . S
C1507 C1508 1.366 . S
C1508 C1507 1.366 . S
C1508 C1509 1.414 . S
C1508 C1511 1.499 . S
C1509 H1483 0.950 . S
C1509 C1508 1.414 . S
C1509 C1510 1.374 . S
C1510 H1484 0.950 . S
C1510 C1506 1.385 . S
C1510 C1509 1.374 . S
C1511 C1508 1.499 . S
C1511 C1512 1.373 . S
C1511 C1513 1.389 . S
C1512 H1485 0.950 . S
C1512 C1498 1.377 . S
C1512 C1511 1.373 . S
C1513 C1497 1.377 . S
C1513 C1511 1.389 . S
C1513 C1514 1.524 . S
C1514 C1513 1.524 . S
C1514 C1515 1.397 . S
C1514 C1519 1.363 . S
C1515 H1486 0.950 . S
C1515 C1514 1.397 . S
C1515 C1516 1.334 . S
C1516 H1487 0.950 . S
C1516 C1515 1.334 . S
C1516 C1517 1.287 . S
C1517 C1516 1.287 . S
C1517 C1518 1.524 . S
C1517 H1520 0.999 . S
C1518 H1488 0.950 . S
C1518 C1517 1.524 . S
C1518 C1519 1.415 . S
C1519 H1489 0.950 . S
C1519 C1514 1.363 . S
C1519 C1518 1.415 . S
H1520 C1517 0.999 . S
H1521 C1502 0.913 . S
H1522 C1540 0.951 . S
H1523 C1542 0.951 . S
H1524 C1544 0.950 . S
H1525 C1545 0.950 . S
H1526 C1547 0.950 . S
H1527 C1550 0.950 . S
H1528 C1551 0.950 . S
H1529 C1553 0.950 . S
H1530 C1554 0.950 . S
H1531 C1555 0.951 . S
H1532 C1557 0.951 . S
H1533 C1559 0.950 . S
H1534 C1560 0.950 . S
H1535 C1562 0.950 . S
H1536 C1565 0.950 . S
H1537 C1566 0.950 . S
H1538 C1568 0.950 . S
H1539 C1569 0.950 . S
C1540 H1522 0.951 . S
C1540 C1541 1.366 . S
C1540 C1542 1.388 . S
C1541 C1540 1.366 . S
C1541 C1545 1.385 . S
C1542 H1523 0.951 . S
C1542 C1540 1.388 . S
C1542 C1543 1.366 . S
C1543 C1542 1.366 . S
C1543 C1544 1.414 . S
C1543 C1546 1.499 . S
C1544 H1524 0.950 . S
C1544 C1543 1.414 . S
C1544 C1545 1.374 . S
C1545 H1525 0.950 . S
C1545 C1541 1.385 . S
C1545 C1544 1.374 . S
C1546 C1543 1.499 . S
C1546 C1547 1.373 . S
C1546 C1548 1.389 . S
C1547 H1526 0.950 . S
C1547 C1546 1.373 . S
C1547 C1563 1.377 . S
C1548 C1546 1.389 . S
C1548 C1549 1.524 . S
C1548 C1562 1.377 . S
C1549 C1548 1.524 . S
C1549 C1550 1.397 . S
C1549 C1554 1.363 . S
C1550 H1527 0.950 . S
C1550 C1549 1.397 . S
C1550 C1551 1.334 . S
C1551 H1528 0.950 . S
C1551 C1550 1.334 . S
C1551 C1552 1.287 . S
C1552 C1551 1.287 . S
C1552 C1553 1.524 . S
C1552 H1571 0.913 . S
C1553 H1529 0.950 . S
C1553 C1552 1.524 . S
C1553 C1554 1.415 . S
C1554 H1530 0.950 . S
C1554 C1549 1.363 . S
C1554 C1553 1.415 . S
C1555 H1531 0.951 . S
C1555 C1556 1.366 . S
C1555 C1557 1.388 . S
C1556 C1555 1.366 . S
C1556 C1560 1.385 . S
C1557 H1532 0.951 . S
C1557 C1555 1.388 . S
C1557 C1558 1.366 . S
C1558 C1557 1.366 . S
C1558 C1559 1.414 . S
C1558 C1561 1.499 . S
C1559 H1533 0.950 . S
C1559 C1558 1.414 . S
C1559 C1560 1.374 . S
C1560 H1534 0.950 . S
C1560 C1556 1.385 . S
C1560 C1559 1.374 . S
C1561 C1558 1.499 . S
C1561 C1562 1.373 . S
C1561 C1563 1.389 . S
C1562 H1535 0.950 . S
C1562 C1548 1.377 . S
C1562 C1561 1.373 . S
C1563 C1547 1.377 . S
C1563 C1561 1.389 . S
C1563 C1564 1.524 . S
C1564 C1563 1.524 . S
C1564 C1565 1.397 . S
C1564 C1569 1.363 . S
C1565 H1536 0.950 . S
C1565 C1564 1.397 . S
C1565 C1566 1.334 . S
C1566 H1537 0.950 . S
C1566 C1565 1.334 . S
C1566 C1567 1.287 . S
C1567 C1566 1.287 . S
C1567 C1568 1.524 . S
C1567 H1570 0.999 . S
C1568 H1538 0.950 . S
C1568 C1567 1.524 . S
C1568 C1569 1.415 . S
C1569 H1539 0.950 . S
C1569 C1564 1.363 . S
C1569 C1568 1.415 . S
H1570 C1567 0.999 . S
H1571 C1552 0.913 . S
H1572 C1590 0.951 . S
H1573 C1592 0.951 . S
H1574 C1594 0.950 . S
H1575 C1595 0.950 . S
H1576 C1597 0.950 . S
H1577 C1600 0.950 . S
H1578 C1601 0.950 . S
H1579 C1603 0.950 . S
H1580 C1604 0.950 . S
H1581 C1605 0.951 . S
H1582 C1607 0.951 . S
H1583 C1609 0.950 . S
H1584 C1610 0.950 . S
H1585 C1612 0.950 . S
H1586 C1615 0.950 . S
H1587 C1616 0.950 . S
H1588 C1618 0.950 . S
H1589 C1619 0.950 . S
C1590 H1572 0.951 . S
C1590 C1591 1.366 . S
C1590 C1592 1.388 . S
C1591 C1590 1.366 . S
C1591 C1595 1.385 . S
C1592 H1573 0.951 . S
C1592 C1590 1.388 . S
C1592 C1593 1.366 . S
C1593 C1592 1.366 . S
C1593 C1594 1.414 . S
C1593 C1596 1.499 . S
C1594 H1574 0.950 . S
C1594 C1593 1.414 . S
C1594 C1595 1.374 . S
C1595 H1575 0.950 . S
C1595 C1591 1.385 . S
C1595 C1594 1.374 . S
C1596 C1593 1.499 . S
C1596 C1597 1.373 . S
C1596 C1598 1.389 . S
C1597 H1576 0.950 . S
C1597 C1596 1.373 . S
C1597 C1613 1.377 . S
C1598 C1596 1.389 . S
C1598 C1599 1.524 . S
C1598 C1612 1.377 . S
C1599 C1598 1.524 . S
C1599 C1600 1.397 . S
C1599 C1604 1.363 . S
C1600 H1577 0.950 . S
C1600 C1599 1.397 . S
C1600 C1601 1.334 . S
C1601 H1578 0.950 . S
C1601 C1600 1.334 . S
C1601 C1602 1.287 . S
C1602 C1601 1.287 . S
C1602 C1603 1.524 . S
C1602 H1621 0.913 . S
C1603 H1579 0.950 . S
C1603 C1602 1.524 . S
C1603 C1604 1.415 . S
C1604 H1580 0.950 . S
C1604 C1599 1.363 . S
C1604 C1603 1.415 . S
C1605 H1581 0.951 . S
C1605 C1606 1.366 . S
C1605 C1607 1.388 . S
C1606 C1605 1.366 . S
C1606 C1610 1.385 . S
C1607 H1582 0.951 . S
C1607 C1605 1.388 . S
C1607 C1608 1.366 . S
C1608 C1607 1.366 . S
C1608 C1609 1.414 . S
C1608 C1611 1.499 . S
C1609 H1583 0.950 . S
C1609 C1608 1.414 . S
C1609 C1610 1.374 . S
C1610 H1584 0.950 . S
C1610 C1606 1.385 . S
C1610 C1609 1.374 . S
C1611 C1608 1.499 . S
C1611 C1612 1.373 . S
C1611 C1613 1.389 . S
C1612 H1585 0.950 . S
C1612 C1598 1.377 . S
C1612 C1611 1.373 . S
C1613 C1597 1.377 . S
C1613 C1611 1.389 . S
C1613 C1614 1.524 . S
C1614 C1613 1.524 . S
C1614 C1615 1.397 . S
C1614 C1619 1.363 . S
C1615 H1586 0.950 . S
C1615 C1614 1.397 . S
C1615 C1616 1.334 . S
C1616 H1587 0.950 . S
C1616 C1615 1.334 . S
C1616 C1617 1.287 . S
C1617 C1616 1.287 . S
C1617 C1618 1.524 . S
C1617 H1620 0.999 . S
C1618 H1588 0.950 . S
C1618 C1617 1.524 . S
C1618 C1619 1.415 . S
C1619 H1589 0.950 . S
C1619 C1614 1.363 . S
C1619 C1618 1.415 . S
H1620 C1617 0.999 . S
H1621 C1602 0.913 . S
H1622 C1640 0.951 . S
H1623 C1642 0.951 . S
H1624 C1644 0.950 . S
H1625 C1645 0.950 . S
H1626 C1647 0.950 . S
H1627 C1650 0.950 . S
H1628 C1651 0.950 . S
H1629 C1653 0.950 . S
H1630 C1654 0.950 . S
H1631 C1655 0.951 . S
H1632 C1657 0.951 . S
H1633 C1659 0.950 . S
H1634 C1660 0.950 . S
H1635 C1662 0.950 . S
H1636 C1665 0.950 . S
H1637 C1666 0.950 . S
H1638 C1668 0.950 . S
H1639 C1669 0.950 . S
C1640 H1622 0.951 . S
C1640 C1641 1.366 . S
C1640 C1642 1.388 . S
C1641 C1640 1.366 . S
C1641 C1645 1.385 . S
C1642 H1623 0.951 . S
C1642 C1640 1.388 . S
C1642 C1643 1.366 . S
C1643 C1642 1.366 . S
C1643 C1644 1.414 . S
C1643 C1646 1.499 . S
C1644 H1624 0.950 . S
C1644 C1643 1.414 . S
C1644 C1645 1.374 . S
C1645 H1625 0.950 . S
C1645 C1641 1.385 . S
C1645 C1644 1.374 . S
C1646 C1643 1.499 . S
C1646 C1647 1.373 . S
C1646 C1648 1.389 . S
C1647 H1626 0.950 . S
C1647 C1646 1.373 . S
C1647 C1663 1.377 . S
C1648 C1646 1.389 . S
C1648 C1649 1.524 . S
C1648 C1662 1.377 . S
C1649 C1648 1.524 . S
C1649 C1650 1.397 . S
C1649 C1654 1.363 . S
C1650 H1627 0.950 . S
C1650 C1649 1.397 . S
C1650 C1651 1.334 . S
C1651 H1628 0.950 . S
C1651 C1650 1.334 . S
C1651 C1652 1.287 . S
C1652 C1651 1.287 . S
C1652 C1653 1.524 . S
C1652 H1671 0.913 . S
C1653 H1629 0.950 . S
C1653 C1652 1.524 . S
C1653 C1654 1.415 . S
C1654 H1630 0.950 . S
C1654 C1649 1.363 . S
C1654 C1653 1.415 . S
C1655 H1631 0.951 . S
C1655 C1656 1.366 . S
C1655 C1657 1.388 . S
C1656 C1655 1.366 . S
C1656 C1660 1.385 . S
C1657 H1632 0.951 . S
C1657 C1655 1.388 . S
C1657 C1658 1.366 . S
C1658 C1657 1.366 . S
C1658 C1659 1.414 . S
C1658 C1661 1.499 . S
C1659 H1633 0.950 . S
C1659 C1658 1.414 . S
C1659 C1660 1.374 . S
C1660 H1634 0.950 . S
C1660 C1656 1.385 . S
C1660 C1659 1.374 . S
C1661 C1658 1.499 . S
C1661 C1662 1.373 . S
C1661 C1663 1.389 . S
C1662 H1635 0.950 . S
C1662 C1648 1.377 . S
C1662 C1661 1.373 . S
C1663 C1647 1.377 . S
C1663 C1661 1.389 . S
C1663 C1664 1.524 . S
C1664 C1663 1.524 . S
C1664 C1665 1.397 . S
C1664 C1669 1.363 . S
C1665 H1636 0.950 . S
C1665 C1664 1.397 . S
C1665 C1666 1.334 . S
C1666 H1637 0.950 . S
C1666 C1665 1.334 . S
C1666 C1667 1.287 . S
C1667 C1666 1.287 . S
C1667 C1668 1.524 . S
C1667 H1670 0.999 . S
C1668 H1638 0.950 . S
C1668 C1667 1.524 . S
C1668 C1669 1.415 . S
C1669 H1639 0.950 . S
C1669 C1664 1.363 . S
C1669 C1668 1.415 . S
H1670 C1667 0.999 . S
H1671 C1652 0.913 . S
H1672 C1690 0.951 . S
H1673 C1692 0.951 . S
H1674 C1694 0.950 . S
H1675 C1695 0.950 . S
H1676 C1697 0.950 . S
H1677 C1700 0.950 . S
H1678 C1701 0.950 . S
H1679 C1703 0.950 . S
H1680 C1704 0.950 . S
H1681 C1705 0.951 . S
H1682 C1707 0.951 . S
H1683 C1709 0.950 . S
H1684 C1710 0.950 . S
H1685 C1712 0.950 . S
H1686 C1715 0.950 . S
H1687 C1716 0.950 . S
H1688 C1718 0.950 . S
H1689 C1719 0.950 . S
C1690 H1672 0.951 . S
C1690 C1691 1.366 . S
C1690 C1692 1.388 . S
C1691 C1690 1.366 . S
C1691 C1695 1.385 . S
C1692 H1673 0.951 . S
C1692 C1690 1.388 . S
C1692 C1693 1.366 . S
C1693 C1692 1.366 . S
C1693 C1694 1.414 . S
C1693 C1696 1.499 . S
C1694 H1674 0.950 . S
C1694 C1693 1.414 . S
C1694 C1695 1.374 . S
C1695 H1675 0.950 . S
C1695 C1691 1.385 . S
C1695 C1694 1.374 . S
C1696 C1693 1.499 . S
C1696 C1697 1.373 . S
C1696 C1698 1.389 . S
C1697 H1676 0.950 . S
C1697 C1696 1.373 . S
C1697 C1713 1.377 . S
C1698 C1696 1.389 . S
C1698 C1699 1.524 . S
C1698 C1712 1.377 . S
C1699 C1698 1.524 . S
C1699 C1700 1.397 . S
C1699 C1704 1.363 . S
C1700 H1677 0.950 . S
C1700 C1699 1.397 . S
C1700 C1701 1.334 . S
C1701 H1678 0.950 . S
C1701 C1700 1.334 . S
C1701 C1702 1.287 . S
C1702 C1701 1.287 . S
C1702 C1703 1.524 . S
C1702 H1721 0.913 . S
C1703 H1679 0.950 . S
C1703 C1702 1.524 . S
C1703 C1704 1.415 . S
C1704 H1680 0.950 . S
C1704 C1699 1.363 . S
C1704 C1703 1.415 . S
C1705 H1681 0.951 . S
C1705 C1706 1.366 . S
C1705 C1707 1.388 . S
C1706 C1705 1.366 . S
C1706 C1710 1.385 . S
C1707 H1682 0.951 . S
C1707 C1705 1.388 . S
C1707 C1708 1.366 . S
C1708 C1707 1.366 . S
C1708 C1709 1.414 . S
C1708 C1711 1.499 . S
C1709 H1683 0.950 . S
C1709 C1708 1.414 . S
C1709 C1710 1.374 . S
C1710 H1684 0.950 . S
C1710 C1706 1.385 . S
C1710 C1709 1.374 . S
C1711 C1708 1.499 . S
C1711 C1712 1.373 . S
C1711 C1713 1.389 . S
C1712 H1685 0.950 . S
C1712 C1698 1.377 . S
C1712 C1711 1.373 . S
C1713 C1697 1.377 . S
C1713 C1711 1.389 . S
C1713 C1714 1.524 . S
C1714 C1713 1.524 . S
C1714 C1715 1.397 . S
C1714 C1719 1.363 . S
C1715 H1686 0.950 . S
C1715 C1714 1.397 . S
C1715 C1716 1.334 . S
C1716 H1687 0.950 . S
C1716 C1715 1.334 . S
C1716 C1717 1.287 . S
C1717 C1716 1.287 . S
C1717 C1718 1.524 . S
C1717 H1720 0.999 . S
C1718 H1688 0.950 . S
C1718 C1717 1.524 . S
C1718 C1719 1.415 . S
C1719 H1689 0.950 . S
C1719 C1714 1.363 . S
C1719 C1718 1.415 . S
H1720 C1717 0.999 . S
H1721 C1702 0.913 . S
H1722 C1740 0.951 . S
H1723 C1742 0.951 . S
H1724 C1744 0.950 . S
H1725 C1745 0.950 . S
H1726 C1747 0.950 . S
H1727 C1750 0.950 . S
H1728 C1751 0.950 . S
H1729 C1753 0.950 . S
H1730 C1754 0.950 . S
H1731 C1755 0.951 . S
H1732 C1757 0.951 . S
H1733 C1759 0.950 1_655 S
H1734 C1760 0.950 1_655 S
H1735 C1762 0.950 . S
H1736 C1765 0.950 1_655 S
H1737 C1766 0.950 1_655 S
H1738 C1768 0.950 . S
H1739 C1769 0.950 . S
C1740 H1722 0.951 . S
C1740 C1741 1.366 . S
C1740 C1742 1.388 . S
C1741 C1740 1.366 . S
C1741 C1745 1.385 . S
C1742 H1723 0.951 . S
C1742 C1740 1.388 . S
C1742 C1743 1.366 . S
C1743 C1742 1.366 . S
C1743 C1744 1.414 . S
C1743 C1746 1.499 . S
C1744 H1724 0.950 . S
C1744 C1743 1.414 . S
C1744 C1745 1.374 . S
C1745 H1725 0.950 . S
C1745 C1741 1.385 . S
C1745 C1744 1.374 . S
C1746 C1743 1.499 . S
C1746 C1747 1.373 . S
C1746 C1748 1.389 . S
C1747 H1726 0.950 . S
C1747 C1746 1.373 . S
C1747 C1763 1.377 . S
C1748 C1746 1.389 . S
C1748 C1749 1.524 . S
C1748 C1762 1.377 . S
C1749 C1748 1.524 . S
C1749 C1750 1.397 . S
C1749 C1754 1.363 . S
C1750 H1727 0.950 . S
C1750 C1749 1.397 . S
C1750 C1751 1.334 . S
C1751 H1728 0.950 . S
C1751 C1750 1.334 . S
C1751 C1752 1.287 . S
C1752 C1751 1.287 . S
C1752 C1753 1.524 . S
C1752 H1771 0.913 . S
C1753 H1729 0.950 . S
C1753 C1752 1.524 . S
C1753 C1754 1.415 . S
C1754 H1730 0.950 . S
C1754 C1749 1.363 . S
C1754 C1753 1.415 . S
C1755 H1731 0.951 . S
C1755 C1756 1.366 . S
C1755 C1757 1.388 . S
C1756 C1755 1.366 . S
C1756 C1760 1.385 . S
C1757 H1732 0.951 . S
C1757 C1755 1.388 . S
C1757 C1758 1.366 . S
C1758 C1757 1.366 . S
C1758 C1759 1.414 . S
C1758 C1761 1.499 . S
C1759 H1733 0.950 1_455 S
C1759 C1758 1.414 . S
C1759 C1760 1.374 . S
C1760 H1734 0.950 1_455 S
C1760 C1756 1.385 . S
C1760 C1759 1.374 . S
C1761 C1758 1.499 . S
C1761 C1762 1.373 . S
C1761 C1763 1.389 . S
C1762 H1735 0.950 . S
C1762 C1748 1.377 . S
C1762 C1761 1.373 . S
C1763 C1747 1.377 . S
C1763 C1761 1.389 . S
C1763 C1764 1.524 . S
C1764 C1763 1.524 . S
C1764 C1765 1.397 . S
C1764 C1769 1.363 . S
C1765 H1736 0.950 1_455 S
C1765 C1764 1.397 . S
C1765 C1766 1.334 . S
C1766 H1737 0.950 1_455 S
C1766 C1765 1.334 . S
C1766 C1767 1.287 . S
C1767 C1766 1.287 . S
C1767 C1768 1.524 . S
C1767 H1770 0.999 . S
C1768 H1738 0.950 . S
C1768 C1767 1.524 . S
C1768 C1769 1.415 . S
C1769 H1739 0.950 . S
C1769 C1764 1.363 . S
C1769 C1768 1.415 . S
H1770 C1767 0.999 . S
H1771 C1752 0.913 . S
H1772 C1790 0.951 . S
H1773 C1792 0.951 . S
H1774 C1794 0.950 . S
H1775 C1795 0.950 . S
H1776 C1797 0.950 . S
H1777 C1800 0.950 . S
H1778 C1801 0.950 . S
H1779 C1803 0.950 . S
H1780 C1804 0.950 . S
H1781 C1805 0.951 . S
H1782 C1807 0.951 . S
H1783 C1809 0.950 . S
H1784 C1810 0.950 . S
H1785 C1812 0.950 . S
H1786 C1815 0.950 . S
H1787 C1816 0.950 . S
H1788 C1818 0.950 . S
H1789 C1819 0.950 . S
C1790 H1772 0.951 . S
C1790 C1791 1.366 . S
C1790 C1792 1.388 . S
C1791 C1790 1.366 . S
C1791 C1795 1.385 . S
C1792 H1773 0.951 . S
C1792 C1790 1.388 . S
C1792 C1793 1.366 . S
C1793 C1792 1.366 . S
C1793 C1794 1.414 . S
C1793 C1796 1.499 . S
C1794 H1774 0.950 . S
C1794 C1793 1.414 . S
C1794 C1795 1.374 . S
C1795 H1775 0.950 . S
C1795 C1791 1.385 . S
C1795 C1794 1.374 . S
C1796 C1793 1.499 . S
C1796 C1797 1.373 . S
C1796 C1798 1.389 . S
C1797 H1776 0.950 . S
C1797 C1796 1.373 . S
C1797 C1813 1.377 . S
C1798 C1796 1.389 . S
C1798 C1799 1.524 . S
C1798 C1812 1.377 . S
C1799 C1798 1.524 . S
C1799 C1800 1.397 . S
C1799 C1804 1.363 . S
C1800 H1777 0.950 . S
C1800 C1799 1.397 . S
C1800 C1801 1.334 . S
C1801 H1778 0.950 . S
C1801 C1800 1.334 . S
C1801 C1802 1.287 . S
C1802 C1801 1.287 . S
C1802 C1803 1.524 . S
C1802 H1821 0.913 . S
C1803 H1779 0.950 . S
C1803 C1802 1.524 . S
C1803 C1804 1.415 . S
C1804 H1780 0.950 . S
C1804 C1799 1.363 . S
C1804 C1803 1.415 . S
C1805 H1781 0.951 . S
C1805 C1806 1.366 . S
C1805 C1807 1.388 . S
C1806 C1805 1.366 . S
C1806 C1810 1.385 . S
C1807 H1782 0.951 . S
C1807 C1805 1.388 . S
C1807 C1808 1.366 . S
C1808 C1807 1.366 . S
C1808 C1809 1.414 . S
C1808 C1811 1.499 . S
C1809 H1783 0.950 . S
C1809 C1808 1.414 . S
C1809 C1810 1.374 . S
C1810 H1784 0.950 . S
C1810 C1806 1.385 . S
C1810 C1809 1.374 . S
C1811 C1808 1.499 . S
C1811 C1812 1.373 . S
C1811 C1813 1.389 . S
C1812 H1785 0.950 . S
C1812 C1798 1.377 . S
C1812 C1811 1.373 . S
C1813 C1797 1.377 . S
C1813 C1811 1.389 . S
C1813 C1814 1.524 . S
C1814 C1813 1.524 . S
C1814 C1815 1.397 . S
C1814 C1819 1.363 . S
C1815 H1786 0.950 . S
C1815 C1814 1.397 . S
C1815 C1816 1.334 . S
C1816 H1787 0.950 . S
C1816 C1815 1.334 . S
C1816 C1817 1.287 . S
C1817 C1816 1.287 . S
C1817 C1818 1.524 . S
C1817 H1820 0.999 . S
C1818 H1788 0.950 . S
C1818 C1817 1.524 . S
C1818 C1819 1.415 . S
C1819 H1789 0.950 . S
C1819 C1814 1.363 . S
C1819 C1818 1.415 . S
H1820 C1817 0.999 . S
H1821 C1802 0.913 . S
H1822 C1840 0.951 . S
H1823 C1842 0.951 . S
H1824 C1844 0.950 . S
H1825 C1845 0.950 . S
H1826 C1847 0.950 . S
H1827 C1850 0.950 . S
H1828 C1851 0.950 . S
H1829 C1853 0.950 . S
H1830 C1854 0.950 . S
H1831 C1855 0.951 . S
H1832 C1857 0.951 . S
H1833 C1859 0.950 . S
H1834 C1860 0.950 . S
H1835 C1862 0.950 . S
H1836 C1865 0.950 . S
H1837 C1866 0.950 . S
H1838 C1868 0.950 . S
H1839 C1869 0.950 . S
C1840 H1822 0.951 . S
C1840 C1841 1.366 . S
C1840 C1842 1.388 . S
C1841 C1840 1.366 . S
C1841 C1845 1.385 1_655 S
C1842 H1823 0.951 . S
C1842 C1840 1.388 . S
C1842 C1843 1.366 . S
C1843 C1842 1.366 . S
C1843 C1844 1.414 1_655 S
C1843 C1846 1.499 . S
C1844 H1824 0.950 . S
C1844 C1843 1.414 1_455 S
C1844 C1845 1.374 . S
C1845 H1825 0.950 . S
C1845 C1841 1.385 1_455 S
C1845 C1844 1.374 . S
C1846 C1843 1.499 . S
C1846 C1847 1.373 1_655 S
C1846 C1848 1.389 . S
C1847 H1826 0.950 . S
C1847 C1846 1.373 1_455 S
C1847 C1863 1.377 . S
C1848 C1846 1.389 . S
C1848 C1849 1.524 . S
C1848 C1862 1.377 . S
C1849 C1848 1.524 . S
C1849 C1850 1.397 . S
C1849 C1854 1.363 . S
C1850 H1827 0.950 . S
C1850 C1849 1.397 . S
C1850 C1851 1.334 . S
C1851 H1828 0.950 . S
C1851 C1850 1.334 . S
C1851 C1852 1.287 . S
C1852 C1851 1.287 . S
C1852 C1853 1.524 . S
C1852 H1871 0.913 . S
C1853 H1829 0.950 . S
C1853 C1852 1.524 . S
C1853 C1854 1.415 . S
C1854 H1830 0.950 . S
C1854 C1849 1.363 . S
C1854 C1853 1.415 . S
C1855 H1831 0.951 . S
C1855 C1856 1.366 . S
C1855 C1857 1.388 . S
C1856 C1855 1.366 . S
C1856 C1860 1.385 1_455 S
C1857 H1832 0.951 . S
C1857 C1855 1.388 . S
C1857 C1858 1.366 . S
C1858 C1857 1.366 . S
C1858 C1859 1.414 1_455 S
C1858 C1861 1.493 1_455 S
C1859 H1833 0.950 . S
C1859 C1858 1.414 1_655 S
C1859 C1860 1.374 . S
C1860 H1834 0.950 . S
C1860 C1856 1.385 1_655 S
C1860 C1859 1.374 . S
C1861 C1858 1.493 1_655 S
C1861 C1862 1.415 . S
C1861 C1863 1.353 1_655 S
C1862 H1835 0.950 . S
C1862 C1848 1.377 . S
C1862 C1861 1.415 . S
C1863 C1847 1.377 . S
C1863 C1861 1.353 1_455 S
C1863 C1864 1.524 . S
C1864 C1863 1.524 . S
C1864 C1865 1.397 . S
C1864 C1869 1.363 . S
C1865 H1836 0.950 . S
C1865 C1864 1.397 . S
C1865 C1866 1.334 . S
C1866 H1837 0.950 . S
C1866 C1865 1.334 . S
C1866 C1867 1.287 . S
C1867 C1866 1.287 . S
C1867 C1868 1.524 . S
C1867 H1870 0.999 . S
C1868 H1838 0.950 . S
C1868 C1867 1.524 . S
C1868 C1869 1.415 . S
C1869 H1839 0.950 . S
C1869 C1864 1.363 . S
C1869 C1868 1.415 . S
H1870 C1867 0.999 . S
H1871 C1852 0.913 . S
H1872 C1890 0.951 . S
H1873 C1892 0.951 . S
H1874 C1894 0.950 . S
H1875 C1895 0.950 . S
H1876 C1897 0.950 . S
H1877 C1900 0.950 . S
H1878 C1901 0.950 . S
H1879 C1903 0.950 . S
H1880 C1904 0.950 . S
H1881 C1905 0.951 . S
H1882 C1907 0.951 . S
H1883 C1909 0.950 . S
H1884 C1910 0.950 . S
H1885 C1912 0.950 . S
H1886 C1915 0.950 . S
H1887 C1916 0.950 1_545 S
H1888 C1918 0.950 . S
H1889 C1919 0.950 . S
C1890 H1872 0.951 . S
C1890 C1891 1.366 . S
C1890 C1892 1.388 . S
C1891 C1890 1.366 . S
C1891 C1895 1.385 . S
C1892 H1873 0.951 . S
C1892 C1890 1.388 . S
C1892 C1893 1.366 . S
C1893 C1892 1.366 . S
C1893 C1894 1.414 . S
C1893 C1896 1.499 . S
C1894 H1874 0.950 . S
C1894 C1893 1.414 . S
C1894 C1895 1.374 . S
C1895 H1875 0.950 . S
C1895 C1891 1.385 . S
C1895 C1894 1.374 . S
C1896 C1893 1.499 . S
C1896 C1897 1.373 . S
C1896 C1898 1.389 . S
C1897 H1876 0.950 . S
C1897 C1896 1.373 . S
C1897 C1913 1.377 . S
C1898 C1896 1.389 . S
C1898 C1899 1.524 . S
C1898 C1912 1.377 . S
C1899 C1898 1.524 . S
C1899 C1900 1.397 . S
C1899 C1904 1.363 . S
C1900 H1877 0.950 . S
C1900 C1899 1.397 . S
C1900 C1901 1.334 . S
C1901 H1878 0.950 . S
C1901 C1900 1.334 . S
C1901 C1902 1.287 . S
C1902 C1901 1.287 . S
C1902 C1903 1.524 . S
C1902 H1921 0.913 . S
C1903 H1879 0.950 . S
C1903 C1902 1.524 . S
C1903 C1904 1.415 . S
C1904 H1880 0.950 . S
C1904 C1899 1.363 . S
C1904 C1903 1.415 . S
C1905 H1881 0.951 . S
C1905 C1906 1.366 . S
C1905 C1907 1.388 . S
C1906 C1905 1.366 . S
C1906 C1910 1.385 . S
C1907 H1882 0.951 . S
C1907 C1905 1.388 . S
C1907 C1908 1.366 . S
C1908 C1907 1.366 . S
C1908 C1909 1.414 . S
C1908 C1911 1.499 . S
C1909 H1883 0.950 . S
C1909 C1908 1.414 . S
C1909 C1910 1.374 . S
C1910 H1884 0.950 . S
C1910 C1906 1.385 . S
C1910 C1909 1.374 . S
C1911 C1908 1.499 . S
C1911 C1912 1.373 . S
C1911 C1913 1.389 . S
C1912 H1885 0.950 . S
C1912 C1898 1.377 . S
C1912 C1911 1.373 . S
C1913 C1897 1.377 . S
C1913 C1911 1.389 . S
C1913 C1914 1.524 . S
C1914 C1913 1.524 . S
C1914 C1915 1.397 . S
C1914 C1919 1.363 . S
C1915 H1886 0.950 . S
C1915 C1914 1.397 . S
C1915 C1916 1.334 . S
C1916 H1887 0.950 1_565 S
C1916 C1915 1.334 . S
C1916 C1917 1.287 . S
C1917 C1916 1.287 . S
C1917 C1918 1.524 . S
C1917 H1920 0.999 1_565 S
C1918 H1888 0.950 . S
C1918 C1917 1.524 . S
C1918 C1919 1.415 . S
C1919 H1889 0.950 . S
C1919 C1914 1.363 . S
C1919 C1918 1.415 . S
H1920 C1917 0.999 1_545 S
H1921 C1902 0.913 . S
H1922 C1940 0.951 . S
H1923 C1942 0.951 . S
H1924 C1944 0.950 . S
H1925 C1945 0.950 . S
H1926 C1947 0.950 . S
H1927 C1950 0.950 . S
H1928 C1951 0.950 . S
H1929 C1953 0.950 . S
H1930 C1954 0.950 . S
H1931 C1955 0.951 . S
H1932 C1957 0.951 . S
H1933 C1959 0.950 . S
H1934 C1960 0.950 . S
H1935 C1962 0.950 . S
H1936 C1965 0.950 . S
H1937 C1966 0.950 . S
H1938 C1968 0.950 . S
H1939 C1969 0.950 . S
C1940 H1922 0.951 . S
C1940 C1941 1.366 . S
C1940 C1942 1.388 . S
C1941 C1940 1.366 . S
C1941 C1945 1.385 . S
C1942 H1923 0.951 . S
C1942 C1940 1.388 . S
C1942 C1943 1.366 . S
C1943 C1942 1.366 . S
C1943 C1944 1.414 . S
C1943 C1946 1.499 . S
C1944 H1924 0.950 . S
C1944 C1943 1.414 . S
C1944 C1945 1.374 . S
C1945 H1925 0.950 . S
C1945 C1941 1.385 . S
C1945 C1944 1.374 . S
C1946 C1943 1.499 . S
C1946 C1947 1.373 . S
C1946 C1948 1.389 . S
C1947 H1926 0.950 . S
C1947 C1946 1.373 . S
C1947 C1963 1.377 . S
C1948 C1946 1.389 . S
C1948 C1949 1.524 . S
C1948 C1962 1.377 . S
C1949 C1948 1.524 . S
C1949 C1950 1.397 . S
C1949 C1954 1.363 . S
C1950 H1927 0.950 . S
C1950 C1949 1.397 . S
C1950 C1951 1.334 . S
C1951 H1928 0.950 . S
C1951 C1950 1.334 . S
C1951 C1952 1.287 . S
C1952 C1951 1.287 . S
C1952 C1953 1.524 . S
C1952 H1971 0.913 . S
C1953 H1929 0.950 . S
C1953 C1952 1.524 . S
C1953 C1954 1.415 . S
C1954 H1930 0.950 . S
C1954 C1949 1.363 . S
C1954 C1953 1.415 . S
C1955 H1931 0.951 . S
C1955 C1956 1.366 . S
C1955 C1957 1.388 . S
C1956 C1955 1.366 . S
C1956 C1960 1.385 . S
C1957 H1932 0.951 . S
C1957 C1955 1.388 . S
C1957 C1958 1.366 . S
C1958 C1957 1.366 . S
C1958 C1959 1.414 . S
C1958 C1961 1.499 . S
C1959 H1933 0.950 . S
C1959 C1958 1.414 . S
C1959 C1960 1.374 . S
C1960 H1934 0.950 . S
C1960 C1956 1.385 . S
C1960 C1959 1.374 . S
C1961 C1958 1.499 . S
C1961 C1962 1.373 . S
C1961 C1963 1.389 . S
C1962 H1935 0.950 . S
C1962 C1948 1.377 . S
C1962 C1961 1.373 . S
C1963 C1947 1.377 . S
C1963 C1961 1.389 . S
C1963 C1964 1.524 . S
C1964 C1963 1.524 . S
C1964 C1965 1.397 . S
C1964 C1969 1.363 . S
C1965 H1936 0.950 . S
C1965 C1964 1.397 . S
C1965 C1966 1.334 . S
C1966 H1937 0.950 . S
C1966 C1965 1.334 . S
C1966 C1967 1.287 . S
C1967 C1966 1.287 . S
C1967 C1968 1.524 . S
C1967 H1970 0.999 . S
C1968 H1938 0.950 . S
C1968 C1967 1.524 . S
C1968 C1969 1.415 . S
C1969 H1939 0.950 . S
C1969 C1964 1.363 . S
C1969 C1968 1.415 . S
H1970 C1967 0.999 . S
H1971 C1952 0.913 . S
H1972 C1990 0.951 . S
H1973 C1992 0.951 . S
H1974 C1994 0.950 . S
H1975 C1995 0.950 . S
H1976 C1997 0.950 . S
H1977 C2000 0.950 . S
H1978 C2001 0.950 . S
H1979 C2003 0.950 . S
H1980 C2004 0.950 . S
H1981 C2005 0.951 . S
H1982 C2007 0.951 1_556 S
H1983 C2009 0.950 . S
H1984 C2010 0.950 . S
H1985 C2012 0.950 . S
H1986 C2015 0.950 . S
H1987 C2016 0.950 . S
H1988 C2018 0.950 . S
H1989 C2019 0.950 . S
C1990 H1972 0.951 . S
C1990 C1991 1.366 . S
C1990 C1992 1.388 . S
C1991 C1990 1.366 . S
C1991 C1995 1.385 . S
C1992 H1973 0.951 . S
C1992 C1990 1.388 . S
C1992 C1993 1.366 . S
C1993 C1992 1.366 . S
C1993 C1994 1.414 . S
C1993 C1996 1.499 . S
C1994 H1974 0.950 . S
C1994 C1993 1.414 . S
C1994 C1995 1.374 . S
C1995 H1975 0.950 . S
C1995 C1991 1.385 . S
C1995 C1994 1.374 . S
C1996 C1993 1.499 . S
C1996 C1997 1.373 1_556 S
C1996 C1998 1.389 . S
C1997 H1976 0.950 . S
C1997 C1996 1.373 1_554 S
C1997 C2013 1.377 . S
C1998 C1996 1.389 . S
C1998 C1999 1.524 . S
C1998 C2012 1.377 . S
C1999 C1998 1.524 . S
C1999 C2000 1.397 . S
C1999 C2004 1.363 . S
C2000 H1977 0.950 . S
C2000 C1999 1.397 . S
C2000 C2001 1.334 . S
C2001 H1978 0.950 . S
C2001 C2000 1.334 . S
C2001 C2002 1.287 . S
C2002 C2001 1.287 . S
C2002 C2003 1.524 . S
C2002 H2021 0.913 . S
C2003 H1979 0.950 . S
C2003 C2002 1.524 . S
C2003 C2004 1.415 . S
C2004 H1980 0.950 . S
C2004 C1999 1.363 . S
C2004 C2003 1.415 . S
C2005 H1981 0.951 . S
C2005 C2006 1.366 . S
C2005 C2007 1.388 . S
C2006 C2005 1.366 . S
C2006 C2010 1.385 . S
C2007 H1982 0.951 1_554 S
C2007 C2005 1.388 . S
C2007 C2008 1.366 . S
C2008 C2007 1.366 . S
C2008 C2009 1.414 . S
C2008 C2011 1.510 . S
C2009 H1983 0.950 . S
C2009 C2008 1.414 . S
C2009 C2010 1.374 . S
C2010 H1984 0.950 . S
C2010 C2006 1.385 . S
C2010 C2009 1.374 . S
C2011 C2008 1.510 . S
C2011 C2012 1.337 1_554 S
C2011 C2013 1.412 . S
C2012 H1985 0.950 . S
C2012 C1998 1.377 . S
C2012 C2011 1.337 1_556 S
C2013 C1997 1.377 . S
C2013 C2011 1.412 . S
C2013 C2014 1.524 . S
C2014 C2013 1.524 . S
C2014 C2015 1.397 . S
C2014 C2019 1.363 . S
C2015 H1986 0.950 . S
C2015 C2014 1.397 . S
C2015 C2016 1.334 . S
C2016 H1987 0.950 . S
C2016 C2015 1.334 . S
C2016 C2017 1.287 . S
C2017 C2016 1.287 . S
C2017 C2018 1.524 . S
C2017 H2020 0.999 . S
C2018 H1988 0.950 . S
C2018 C2017 1.524 . S
C2018 C2019 1.415 . S
C2019 H1989 0.950 . S
C2019 C2014 1.363 . S
C2019 C2018 1.415 . S
H2020 C2017 0.999 . S
H2021 C2002 0.913 . S
H2022 C2040 0.951 . S
H2023 C2042 0.951 . S
H2024 C2044 0.950 . S
H2025 C2045 0.950 . S
H2026 C2047 0.950 . S
H2027 C2050 0.950 . S
H2028 C2051 0.950 . S
H2029 C2053 0.950 . S
H2030 C2054 0.950 . S
H2031 C2055 0.951 . S
H2032 C2057 0.951 . S
H2033 C2059 0.950 . S
H2034 C2060 0.950 . S
H2035 C2062 0.950 . S
H2036 C2065 0.950 . S
H2037 C2066 0.950 . S
H2038 C2068 0.950 . S
H2039 C2069 0.950 . S
C2040 H2022 0.951 . S
C2040 C2041 1.366 . S
C2040 C2042 1.388 . S
C2041 C2040 1.366 . S
C2041 C2045 1.385 . S
C2042 H2023 0.951 . S
C2042 C2040 1.388 . S
C2042 C2043 1.366 . S
C2043 C2042 1.366 . S
C2043 C2044 1.414 . S
C2043 C2046 1.499 . S
C2044 H2024 0.950 . S
C2044 C2043 1.414 . S
C2044 C2045 1.374 . S
C2045 H2025 0.950 . S
C2045 C2041 1.385 . S
C2045 C2044 1.374 . S
C2046 C2043 1.499 . S
C2046 C2047 1.373 . S
C2046 C2048 1.389 . S
C2047 H2026 0.950 . S
C2047 C2046 1.373 . S
C2047 C2063 1.377 . S
C2048 C2046 1.389 . S
C2048 C2049 1.524 . S
C2048 C2062 1.377 . S
C2049 C2048 1.524 . S
C2049 C2050 1.397 . S
C2049 C2054 1.363 . S
C2050 H2027 0.950 . S
C2050 C2049 1.397 . S
C2050 C2051 1.334 . S
C2051 H2028 0.950 . S
C2051 C2050 1.334 . S
C2051 C2052 1.287 . S
C2052 C2051 1.287 . S
C2052 C2053 1.524 . S
C2052 H2071 0.913 . S
C2053 H2029 0.950 . S
C2053 C2052 1.524 . S
C2053 C2054 1.415 . S
C2054 H2030 0.950 . S
C2054 C2049 1.363 . S
C2054 C2053 1.415 . S
C2055 H2031 0.951 . S
C2055 C2056 1.366 . S
C2055 C2057 1.388 . S
C2056 C2055 1.366 . S
C2056 C2060 1.385 . S
C2057 H2032 0.951 . S
C2057 C2055 1.388 . S
C2057 C2058 1.366 . S
C2058 C2057 1.366 . S
C2058 C2059 1.414 . S
C2058 C2061 1.499 . S
C2059 H2033 0.950 . S
C2059 C2058 1.414 . S
C2059 C2060 1.374 . S
C2060 H2034 0.950 . S
C2060 C2056 1.385 . S
C2060 C2059 1.374 . S
C2061 C2058 1.499 . S
C2061 C2062 1.373 . S
C2061 C2063 1.389 . S
C2062 H2035 0.950 . S
C2062 C2048 1.377 . S
C2062 C2061 1.373 . S
C2063 C2047 1.377 . S
C2063 C2061 1.389 . S
C2063 C2064 1.524 . S
C2064 C2063 1.524 . S
C2064 C2065 1.397 . S
C2064 C2069 1.363 . S
C2065 H2036 0.950 . S
C2065 C2064 1.397 . S
C2065 C2066 1.334 . S
C2066 H2037 0.950 . S
C2066 C2065 1.334 . S
C2066 C2067 1.287 . S
C2067 C2066 1.287 . S
C2067 C2068 1.524 . S
C2067 H2070 0.999 . S
C2068 H2038 0.950 . S
C2068 C2067 1.524 . S
C2068 C2069 1.415 . S
C2069 H2039 0.950 . S
C2069 C2064 1.363 . S
C2069 C2068 1.415 . S
H2070 C2067 0.999 . S
H2071 C2052 0.913 . S
H2072 C2090 0.951 . S
H2073 C2092 0.951 . S
H2074 C2094 0.950 . S
H2075 C2095 0.950 . S
H2076 C2097 0.950 . S
H2077 C2100 0.950 . S
H2078 C2101 0.950 . S
H2079 C2103 0.950 . S
H2080 C2104 0.950 . S
H2081 C2105 0.951 . S
H2082 C2107 0.951 . S
H2083 C2109 0.950 . S
H2084 C2110 0.950 . S
H2085 C2112 0.950 . S
H2086 C2115 0.950 . S
H2087 C2116 0.950 . S
H2088 C2118 0.950 . S
H2089 C2119 0.950 . S
C2090 H2072 0.951 . S
C2090 C2091 1.366 . S
C2090 C2092 1.388 . S
C2091 C2090 1.366 . S
C2091 C2095 1.385 . S
C2092 H2073 0.951 . S
C2092 C2090 1.388 . S
C2092 C2093 1.366 . S
C2093 C2092 1.366 . S
C2093 C2094 1.414 . S
C2093 C2096 1.499 . S
C2094 H2074 0.950 . S
C2094 C2093 1.414 . S
C2094 C2095 1.374 . S
C2095 H2075 0.950 . S
C2095 C2091 1.385 . S
C2095 C2094 1.374 . S
C2096 C2093 1.499 . S
C2096 C2097 1.373 . S
C2096 C2098 1.389 . S
C2097 H2076 0.950 . S
C2097 C2096 1.373 . S
C2097 C2113 1.377 . S
C2098 C2096 1.389 . S
C2098 C2099 1.524 . S
C2098 C2112 1.377 . S
C2099 C2098 1.524 . S
C2099 C2100 1.397 . S
C2099 C2104 1.363 . S
C2100 H2077 0.950 . S
C2100 C2099 1.397 . S
C2100 C2101 1.334 . S
C2101 H2078 0.950 . S
C2101 C2100 1.334 . S
C2101 C2102 1.287 . S
C2102 C2101 1.287 . S
C2102 C2103 1.524 . S
C2102 H2121 0.913 . S
C2103 H2079 0.950 . S
C2103 C2102 1.524 . S
C2103 C2104 1.415 . S
C2104 H2080 0.950 . S
C2104 C2099 1.363 . S
C2104 C2103 1.415 . S
C2105 H2081 0.951 . S
C2105 C2106 1.366 . S
C2105 C2107 1.388 . S
C2106 C2105 1.366 . S
C2106 C2110 1.385 . S
C2107 H2082 0.951 . S
C2107 C2105 1.388 . S
C2107 C2108 1.366 . S
C2108 C2107 1.366 . S
C2108 C2109 1.414 . S
C2108 C2111 1.499 . S
C2109 H2083 0.950 . S
C2109 C2108 1.414 . S
C2109 C2110 1.374 . S
C2110 H2084 0.950 . S
C2110 C2106 1.385 . S
C2110 C2109 1.374 . S
C2111 C2108 1.499 . S
C2111 C2112 1.373 . S
C2111 C2113 1.389 . S
C2112 H2085 0.950 . S
C2112 C2098 1.377 . S
C2112 C2111 1.373 . S
C2113 C2097 1.377 . S
C2113 C2111 1.389 . S
C2113 C2114 1.524 . S
C2114 C2113 1.524 . S
C2114 C2115 1.397 . S
C2114 C2119 1.363 . S
C2115 H2086 0.950 . S
C2115 C2114 1.397 . S
C2115 C2116 1.334 . S
C2116 H2087 0.950 . S
C2116 C2115 1.334 . S
C2116 C2117 1.287 . S
C2117 C2116 1.287 . S
C2117 C2118 1.524 . S
C2117 H2120 0.999 . S
C2118 H2088 0.950 . S
C2118 C2117 1.524 . S
C2118 C2119 1.415 . S
C2119 H2089 0.950 . S
C2119 C2114 1.363 . S
C2119 C2118 1.415 . S
H2120 C2117 0.999 . S
H2121 C2102 0.913 . S
H2122 C2140 0.951 . S
H2123 C2142 0.951 . S
H2124 C2144 0.950 . S
H2125 C2145 0.950 . S
H2126 C2147 0.950 . S
H2127 C2150 0.950 . S
H2128 C2151 0.950 . S
H2129 C2153 0.950 . S
H2130 C2154 0.950 . S
H2131 C2155 0.951 . S
H2132 C2157 0.951 . S
H2133 C2159 0.950 . S
H2134 C2160 0.950 . S
H2135 C2162 0.950 . S
H2136 C2165 0.950 . S
H2137 C2166 0.950 . S
H2138 C2168 0.950 . S
H2139 C2169 0.950 . S
C2140 H2122 0.951 . S
C2140 C2141 1.366 . S
C2140 C2142 1.388 . S
C2141 C2140 1.366 . S
C2141 C2145 1.385 . S
C2142 H2123 0.951 . S
C2142 C2140 1.388 . S
C2142 C2143 1.366 . S
C2143 C2142 1.366 . S
C2143 C2144 1.414 . S
C2143 C2146 1.499 . S
C2144 H2124 0.950 . S
C2144 C2143 1.414 . S
C2144 C2145 1.374 . S
C2145 H2125 0.950 . S
C2145 C2141 1.385 . S
C2145 C2144 1.374 . S
C2146 C2143 1.499 . S
C2146 C2147 1.373 . S
C2146 C2148 1.389 . S
C2147 H2126 0.950 . S
C2147 C2146 1.373 . S
C2147 C2163 1.377 . S
C2148 C2146 1.389 . S
C2148 C2149 1.524 . S
C2148 C2162 1.377 . S
C2149 C2148 1.524 . S
C2149 C2150 1.397 . S
C2149 C2154 1.363 . S
C2150 H2127 0.950 . S
C2150 C2149 1.397 . S
C2150 C2151 1.334 . S
C2151 H2128 0.950 . S
C2151 C2150 1.334 . S
C2151 C2152 1.287 . S
C2152 C2151 1.287 . S
C2152 C2153 1.524 . S
C2152 H2171 0.913 . S
C2153 H2129 0.950 . S
C2153 C2152 1.524 . S
C2153 C2154 1.415 . S
C2154 H2130 0.950 . S
C2154 C2149 1.363 . S
C2154 C2153 1.415 . S
C2155 H2131 0.951 . S
C2155 C2156 1.366 . S
C2155 C2157 1.388 . S
C2156 C2155 1.366 . S
C2156 C2160 1.385 . S
C2157 H2132 0.951 . S
C2157 C2155 1.388 . S
C2157 C2158 1.366 . S
C2158 C2157 1.366 . S
C2158 C2159 1.414 . S
C2158 C2161 1.499 . S
C2159 H2133 0.950 . S
C2159 C2158 1.414 . S
C2159 C2160 1.374 . S
C2160 H2134 0.950 . S
C2160 C2156 1.385 . S
C2160 C2159 1.374 . S
C2161 C2158 1.499 . S
C2161 C2162 1.373 . S
C2161 C2163 1.389 . S
C2162 H2135 0.950 . S
C2162 C2148 1.377 . S
C2162 C2161 1.373 . S
C2163 C2147 1.377 . S
C2163 C2161 1.389 . S
C2163 C2164 1.524 . S
C2164 C2163 1.524 . S
C2164 C2165 1.397 . S
C2164 C2169 1.363 . S
C2165 H2136 0.950 . S
C2165 C2164 1.397 . S
C2165 C2166 1.334 . S
C2166 H2137 0.950 . S
C2166 C2165 1.334 . S
C2166 C2167 1.287 . S
C2167 C2166 1.287 . S
C2167 C2168 1.524 . S
C2167 H2170 0.999 . S
C2168 H2138 0.950 . S
C2168 C2167 1.524 . S
C2168 C2169 1.415 . S
C2169 H2139 0.950 . S
C2169 C2164 1.363 . S
C2169 C2168 1.415 . S
H2170 C2167 0.999 . S
H2171 C2152 0.913 . S
H2172 C2190 0.951 . S
H2173 C2192 0.951 . S
H2174 C2194 0.950 . S
H2175 C2195 0.950 . S
H2176 C2197 0.950 . S
H2177 C2200 0.950 . S
H2178 C2201 0.950 . S
H2179 C2203 0.950 . S
H2180 C2204 0.950 . S
H2181 C2205 0.951 . S
H2182 C2207 0.951 . S
H2183 C2209 0.950 . S
H2184 C2210 0.950 . S
H2185 C2212 0.950 . S
H2186 C2215 0.950 . S
H2187 C2216 0.950 . S
H2188 C2218 0.950 . S
H2189 C2219 0.950 . S
C2190 H2172 0.951 . S
C2190 C2191 1.366 . S
C2190 C2192 1.388 . S
C2191 C2190 1.366 . S
C2191 C2195 1.385 . S
C2192 H2173 0.951 . S
C2192 C2190 1.388 . S
C2192 C2193 1.366 . S
C2193 C2192 1.366 . S
C2193 C2194 1.414 . S
C2193 C2196 1.499 . S
C2194 H2174 0.950 . S
C2194 C2193 1.414 . S
C2194 C2195 1.374 . S
C2195 H2175 0.950 . S
C2195 C2191 1.385 . S
C2195 C2194 1.374 . S
C2196 C2193 1.499 . S
C2196 C2197 1.373 . S
C2196 C2198 1.389 . S
C2197 H2176 0.950 . S
C2197 C2196 1.373 . S
C2197 C2213 1.377 . S
C2198 C2196 1.389 . S
C2198 C2199 1.524 . S
C2198 C2212 1.377 . S
C2199 C2198 1.524 . S
C2199 C2200 1.397 . S
C2199 C2204 1.363 . S
C2200 H2177 0.950 . S
C2200 C2199 1.397 . S
C2200 C2201 1.334 . S
C2201 H2178 0.950 . S
C2201 C2200 1.334 . S
C2201 C2202 1.287 . S
C2202 C2201 1.287 . S
C2202 C2203 1.524 . S
C2202 H2221 0.913 . S
C2203 H2179 0.950 . S
C2203 C2202 1.524 . S
C2203 C2204 1.415 . S
C2204 H2180 0.950 . S
C2204 C2199 1.363 . S
C2204 C2203 1.415 . S
C2205 H2181 0.951 . S
C2205 C2206 1.366 . S
C2205 C2207 1.388 . S
C2206 C2205 1.366 . S
C2206 C2210 1.385 . S
C2207 H2182 0.951 . S
C2207 C2205 1.388 . S
C2207 C2208 1.366 . S
C2208 C2207 1.366 . S
C2208 C2209 1.414 . S
C2208 C2211 1.499 . S
C2209 H2183 0.950 . S
C2209 C2208 1.414 . S
C2209 C2210 1.374 . S
C2210 H2184 0.950 . S
C2210 C2206 1.385 . S
C2210 C2209 1.374 . S
C2211 C2208 1.499 . S
C2211 C2212 1.373 . S
C2211 C2213 1.389 . S
C2212 H2185 0.950 . S
C2212 C2198 1.377 . S
C2212 C2211 1.373 . S
C2213 C2197 1.377 . S
C2213 C2211 1.389 . S
C2213 C2214 1.524 . S
C2214 C2213 1.524 . S
C2214 C2215 1.397 . S
C2214 C2219 1.363 . S
C2215 H2186 0.950 . S
C2215 C2214 1.397 . S
C2215 C2216 1.334 . S
C2216 H2187 0.950 . S
C2216 C2215 1.334 . S
C2216 C2217 1.287 . S
C2217 C2216 1.287 . S
C2217 C2218 1.524 . S
C2217 H2220 0.999 . S
C2218 H2188 0.950 . S
C2218 C2217 1.524 . S
C2218 C2219 1.415 . S
C2219 H2189 0.950 . S
C2219 C2214 1.363 . S
C2219 C2218 1.415 . S
H2220 C2217 0.999 . S
H2221 C2202 0.913 . S
H2222 C2240 0.951 . S
H2223 C2242 0.951 . S
H2224 C2244 0.950 . S
H2225 C2245 0.950 . S
H2226 C2247 0.950 . S
H2227 C2250 0.950 . S
H2228 C2251 0.950 . S
H2229 C2253 0.950 . S
H2230 C2254 0.950 . S
H2231 C2255 0.951 . S
H2232 C2257 0.951 . S
H2233 C2259 0.950 . S
H2234 C2260 0.950 . S
H2235 C2262 0.950 . S
H2236 C2265 0.950 . S
H2237 C2266 0.950 . S
H2238 C2268 0.950 . S
H2239 C2269 0.950 . S
C2240 H2222 0.951 . S
C2240 C2241 1.366 . S
C2240 C2242 1.388 . S
C2241 C2240 1.366 . S
C2241 C2245 1.385 . S
C2242 H2223 0.951 . S
C2242 C2240 1.388 . S
C2242 C2243 1.366 . S
C2243 C2242 1.366 . S
C2243 C2244 1.414 . S
C2243 C2246 1.499 . S
C2244 H2224 0.950 . S
C2244 C2243 1.414 . S
C2244 C2245 1.374 . S
C2245 H2225 0.950 . S
C2245 C2241 1.385 . S
C2245 C2244 1.374 . S
C2246 C2243 1.499 . S
C2246 C2247 1.373 . S
C2246 C2248 1.389 . S
C2247 H2226 0.950 . S
C2247 C2246 1.373 . S
C2247 C2263 1.377 . S
C2248 C2246 1.389 . S
C2248 C2249 1.524 . S
C2248 C2262 1.377 . S
C2249 C2248 1.524 . S
C2249 C2250 1.397 . S
C2249 C2254 1.363 . S
C2250 H2227 0.950 . S
C2250 C2249 1.397 . S
C2250 C2251 1.334 . S
C2251 H2228 0.950 . S
C2251 C2250 1.334 . S
C2251 C2252 1.287 . S
C2252 C2251 1.287 . S
C2252 C2253 1.524 . S
C2252 H2271 0.913 . S
C2253 H2229 0.950 . S
C2253 C2252 1.524 . S
C2253 C2254 1.415 . S
C2254 H2230 0.950 . S
C2254 C2249 1.363 . S
C2254 C2253 1.415 . S
C2255 H2231 0.951 . S
C2255 C2256 1.366 . S
C2255 C2257 1.388 . S
C2256 C2255 1.366 . S
C2256 C2260 1.385 . S
C2257 H2232 0.951 . S
C2257 C2255 1.388 . S
C2257 C2258 1.366 . S
C2258 C2257 1.366 . S
C2258 C2259 1.414 . S
C2258 C2261 1.499 . S
C2259 H2233 0.950 . S
C2259 C2258 1.414 . S
C2259 C2260 1.374 . S
C2260 H2234 0.950 . S
C2260 C2256 1.385 . S
C2260 C2259 1.374 . S
C2261 C2258 1.499 . S
C2261 C2262 1.373 . S
C2261 C2263 1.389 . S
C2262 H2235 0.950 . S
C2262 C2248 1.377 . S
C2262 C2261 1.373 . S
C2263 C2247 1.377 . S
C2263 C2261 1.389 . S
C2263 C2264 1.524 . S
C2264 C2263 1.524 . S
C2264 C2265 1.397 . S
C2264 C2269 1.363 . S
C2265 H2236 0.950 . S
C2265 C2264 1.397 . S
C2265 C2266 1.334 . S
C2266 H2237 0.950 . S
C2266 C2265 1.334 . S
C2266 C2267 1.287 . S
C2267 C2266 1.287 . S
C2267 C2268 1.524 . S
C2267 H2270 0.999 . S
C2268 H2238 0.950 . S
C2268 C2267 1.524 . S
C2268 C2269 1.415 . S
C2269 H2239 0.950 . S
C2269 C2264 1.363 . S
C2269 C2268 1.415 . S
H2270 C2267 0.999 . S
H2271 C2252 0.913 . S
H2272 C2290 0.951 . S
H2273 C2292 0.951 . S
H2274 C2294 0.950 . S
H2275 C2295 0.950 . S
H2276 C2297 0.950 . S
H2277 C2300 0.950 . S
H2278 C2301 0.950 . S
H2279 C2303 0.950 . S
H2280 C2304 0.950 . S
H2281 C2305 0.951 . S
H2282 C2307 0.951 . S
H2283 C2309 0.950 . S
H2284 C2310 0.950 . S
H2285 C2312 0.950 . S
H2286 C2315 0.950 . S
H2287 C2316 0.950 . S
H2288 C2318 0.950 . S
H2289 C2319 0.950 . S
C2290 H2272 0.951 . S
C2290 C2291 1.366 . S
C2290 C2292 1.388 . S
C2291 C2290 1.366 . S
C2291 C2295 1.385 . S
C2292 H2273 0.951 . S
C2292 C2290 1.388 . S
C2292 C2293 1.366 . S
C2293 C2292 1.366 . S
C2293 C2294 1.414 . S
C2293 C2296 1.499 . S
C2294 H2274 0.950 . S
C2294 C2293 1.414 . S
C2294 C2295 1.374 . S
C2295 H2275 0.950 . S
C2295 C2291 1.385 . S
C2295 C2294 1.374 . S
C2296 C2293 1.499 . S
C2296 C2297 1.373 . S
C2296 C2298 1.389 . S
C2297 H2276 0.950 . S
C2297 C2296 1.373 . S
C2297 C2313 1.377 . S
C2298 C2296 1.389 . S
C2298 C2299 1.524 . S
C2298 C2312 1.377 . S
C2299 C2298 1.524 . S
C2299 C2300 1.397 . S
C2299 C2304 1.363 . S
C2300 H2277 0.950 . S
C2300 C2299 1.397 . S
C2300 C2301 1.334 . S
C2301 H2278 0.950 . S
C2301 C2300 1.334 . S
C2301 C2302 1.287 . S
C2302 C2301 1.287 . S
C2302 C2303 1.524 . S
C2302 H2321 0.913 . S
C2303 H2279 0.950 . S
C2303 C2302 1.524 . S
C2303 C2304 1.415 . S
C2304 H2280 0.950 . S
C2304 C2299 1.363 . S
C2304 C2303 1.415 . S
C2305 H2281 0.951 . S
C2305 C2306 1.366 . S
C2305 C2307 1.388 . S
C2306 C2305 1.366 . S
C2306 C2310 1.385 . S
C2307 H2282 0.951 . S
C2307 C2305 1.388 . S
C2307 C2308 1.366 . S
C2308 C2307 1.366 . S
C2308 C2309 1.414 . S
C2308 C2311 1.499 . S
C2309 H2283 0.950 . S
C2309 C2308 1.414 . S
C2309 C2310 1.374 . S
C2310 H2284 0.950 . S
C2310 C2306 1.385 . S
C2310 C2309 1.374 . S
C2311 C2308 1.499 . S
C2311 C2312 1.373 . S
C2311 C2313 1.389 . S
C2312 H2285 0.950 . S
C2312 C2298 1.377 . S
C2312 C2311 1.373 . S
C2313 C2297 1.377 . S
C2313 C2311 1.389 . S
C2313 C2314 1.524 . S
C2314 C2313 1.524 . S
C2314 C2315 1.397 . S
C2314 C2319 1.363 . S
C2315 H2286 0.950 . S
C2315 C2314 1.397 . S
C2315 C2316 1.334 . S
C2316 H2287 0.950 . S
C2316 C2315 1.334 . S
C2316 C2317 1.287 . S
C2317 C2316 1.287 . S
C2317 C2318 1.524 . S
C2317 H2320 0.999 . S
C2318 H2288 0.950 . S
C2318 C2317 1.524 . S
C2318 C2319 1.415 . S
C2319 H2289 0.950 . S
C2319 C2314 1.363 . S
C2319 C2318 1.415 . S
H2320 C2317 0.999 . S
H2321 C2302 0.913 . S
H2322 C2340 0.951 . S
H2323 C2342 0.974 . S
H2324 C2344 0.950 . S
H2325 C2345 0.950 . S
H2326 C2347 0.950 . S
H2327 C2350 0.950 . S
H2328 C2351 0.950 . S
H2329 C2353 0.950 1_565 S
H2330 C2354 0.950 1_565 S
H2331 C2355 0.951 . S
H2332 C2357 0.951 . S
H2333 C2359 0.950 . S
H2334 C2360 0.950 . S
H2335 C2362 0.950 . S
H2336 C2365 0.950 1_565 S
H2337 C2366 0.919 1_565 S
H2338 C2368 0.950 . S
H2339 C2369 0.950 . S
C2340 H2322 0.951 . S
C2340 C2341 1.366 . S
C2340 C2342 1.388 . S
C2341 C2340 1.366 . S
C2341 C2345 1.385 . S
C2342 H2323 0.974 . S
C2342 C2340 1.388 . S
C2342 C2343 1.366 . S
C2343 C2342 1.366 . S
C2343 C2344 1.414 . S
C2343 C2346 1.499 . S
C2344 H2324 0.950 . S
C2344 C2343 1.414 . S
C2344 C2345 1.374 . S
C2345 H2325 0.950 . S
C2345 C2341 1.385 . S
C2345 C2344 1.374 . S
C2346 C2343 1.499 . S
C2346 C2347 1.373 . S
C2346 C2348 1.389 . S
C2347 H2326 0.950 . S
C2347 C2346 1.373 . S
C2347 C2363 1.377 . S
C2348 C2346 1.389 . S
C2348 C2349 1.524 . S
C2348 C2362 1.377 . S
C2349 C2348 1.524 . S
C2349 C2350 1.397 . S
C2349 C2354 1.363 . S
C2350 H2327 0.950 . S
C2350 C2349 1.397 . S
C2350 C2351 1.334 . S
C2351 H2328 0.950 . S
C2351 C2350 1.334 . S
C2351 C2352 1.287 . S
C2352 C2351 1.287 . S
C2352 C2353 1.524 . S
C2352 H2371 0.913 . S
C2353 H2329 0.950 1_545 S
C2353 C2352 1.524 . S
C2353 C2354 1.415 . S
C2354 H2330 0.950 1_545 S
C2354 C2349 1.363 . S
C2354 C2353 1.415 . S
C2355 H2331 0.951 . S
C2355 C2356 1.366 . S
C2355 C2357 1.388 . S
C2356 C2355 1.366 . S
C2356 C2360 1.385 1_545 S
C2357 H2332 0.951 . S
C2357 C2355 1.388 . S
C2357 C2358 1.366 . S
C2358 C2357 1.366 . S
C2358 C2359 1.414 1_545 S
C2358 C2361 1.499 . S
C2359 H2333 0.950 . S
C2359 C2358 1.414 1_565 S
C2359 C2360 1.374 . S
C2360 H2334 0.950 . S
C2360 C2356 1.385 1_565 S
C2360 C2359 1.374 . S
C2361 C2358 1.499 . S
C2361 C2362 1.373 . S
C2361 C2363 1.389 . S
C2362 H2335 0.950 . S
C2362 C2348 1.377 . S
C2362 C2361 1.373 . S
C2363 C2347 1.377 . S
C2363 C2361 1.389 . S
C2363 C2364 1.524 . S
C2364 C2363 1.524 . S
C2364 C2365 1.397 . S
C2364 C2369 1.363 . S
C2365 H2336 0.950 1_545 S
C2365 C2364 1.397 . S
C2365 C2366 1.337 . S
C2366 H2337 0.919 1_545 S
C2366 C2365 1.337 . S
C2366 C2367 1.318 . S
C2367 C2366 1.318 . S
C2367 C2368 1.524 . S
C2367 H2370 0.999 . S
C2368 H2338 0.950 . S
C2368 C2367 1.524 . S
C2368 C2369 1.415 . S
C2369 H2339 0.950 . S
C2369 C2364 1.363 . S
C2369 C2368 1.415 . S
H2370 C2367 0.999 . S
H2371 C2352 0.913 . S
H2372 C2390 0.951 . S
H2373 C2392 0.951 . S
H2374 C2394 0.950 . S
H2375 C2395 0.950 . S
H2376 C2397 0.950 . S
H2377 C2400 0.950 . S
H2378 C2401 0.950 . S
H2379 C2403 0.950 . S
H2380 C2404 0.950 . S
H2381 C2405 0.951 . S
H2382 C2407 0.951 . S
H2383 C2409 0.950 . S
H2384 C2410 0.950 . S
H2385 C2412 0.950 . S
H2386 C2415 0.950 . S
H2387 C2416 0.950 . S
H2388 C2418 0.950 . S
H2389 C2419 0.950 . S
C2390 H2372 0.951 . S
C2390 C2391 1.366 . S
C2390 C2392 1.388 . S
C2391 C2390 1.366 . S
C2391 C2395 1.385 . S
C2392 H2373 0.951 . S
C2392 C2390 1.388 . S
C2392 C2393 1.366 . S
C2393 C2392 1.366 . S
C2393 C2394 1.414 . S
C2393 C2396 1.499 . S
C2394 H2374 0.950 . S
C2394 C2393 1.414 . S
C2394 C2395 1.374 . S
C2395 H2375 0.950 . S
C2395 C2391 1.385 . S
C2395 C2394 1.374 . S
C2396 C2393 1.499 . S
C2396 C2397 1.373 . S
C2396 C2398 1.389 . S
C2397 H2376 0.950 . S
C2397 C2396 1.373 . S
C2397 C2413 1.377 . S
C2398 C2396 1.389 . S
C2398 C2399 1.524 . S
C2398 C2412 1.377 . S
C2399 C2398 1.524 . S
C2399 C2400 1.397 . S
C2399 C2404 1.363 . S
C2400 H2377 0.950 . S
C2400 C2399 1.397 . S
C2400 C2401 1.334 . S
C2401 H2378 0.950 . S
C2401 C2400 1.334 . S
C2401 C2402 1.287 . S
C2402 C2401 1.287 . S
C2402 C2403 1.524 . S
C2402 H2421 0.913 . S
C2403 H2379 0.950 . S
C2403 C2402 1.524 . S
C2403 C2404 1.415 . S
C2404 H2380 0.950 . S
C2404 C2399 1.363 . S
C2404 C2403 1.415 . S
C2405 H2381 0.951 . S
C2405 C2406 1.366 . S
C2405 C2407 1.388 . S
C2406 C2405 1.366 . S
C2406 C2410 1.385 . S
C2407 H2382 0.951 . S
C2407 C2405 1.388 . S
C2407 C2408 1.366 . S
C2408 C2407 1.366 . S
C2408 C2409 1.414 . S
C2408 C2411 1.499 . S
C2409 H2383 0.950 . S
C2409 C2408 1.414 . S
C2409 C2410 1.374 . S
C2410 H2384 0.950 . S
C2410 C2406 1.385 . S
C2410 C2409 1.374 . S
C2411 C2408 1.499 . S
C2411 C2412 1.373 . S
C2411 C2413 1.389 . S
C2412 H2385 0.950 . S
C2412 C2398 1.377 . S
C2412 C2411 1.373 . S
C2413 C2397 1.377 . S
C2413 C2411 1.389 . S
C2413 C2414 1.524 . S
C2414 C2413 1.524 . S
C2414 C2415 1.397 . S
C2414 C2419 1.363 . S
C2415 H2386 0.950 . S
C2415 C2414 1.397 . S
C2415 C2416 1.334 . S
C2416 H2387 0.950 . S
C2416 C2415 1.334 . S
C2416 C2417 1.287 . S
C2417 C2416 1.287 . S
C2417 C2418 1.524 . S
C2417 H2420 0.999 . S
C2418 H2388 0.950 . S
C2418 C2417 1.524 . S
C2418 C2419 1.415 . S
C2419 H2389 0.950 . S
C2419 C2414 1.363 . S
C2419 C2418 1.415 . S
H2420 C2417 0.999 . S
H2421 C2402 0.913 . S
H2422 C2440 0.951 . S
H2423 C2442 0.951 . S
H2424 C2444 0.950 . S
H2425 C2445 0.950 . S
H2426 C2447 0.950 . S
H2427 C2450 0.950 . S
H2428 C2451 0.950 . S
H2429 C2453 0.950 . S
H2430 C2454 0.950 . S
H2431 C2455 0.951 . S
H2432 C2457 0.951 . S
H2433 C2459 0.950 . S
H2434 C2460 0.950 . S
H2435 C2462 0.950 . S
H2436 C2465 0.950 . S
H2437 C2466 0.950 . S
H2438 C2468 0.950 . S
H2439 C2469 0.950 . S
C2440 H2422 0.951 . S
C2440 C2441 1.366 . S
C2440 C2442 1.388 . S
C2441 C2440 1.366 . S
C2441 C2445 1.385 . S
C2442 H2423 0.951 . S
C2442 C2440 1.388 . S
C2442 C2443 1.366 . S
C2443 C2442 1.366 . S
C2443 C2444 1.414 . S
C2443 C2446 1.499 . S
C2444 H2424 0.950 . S
C2444 C2443 1.414 . S
C2444 C2445 1.374 . S
C2445 H2425 0.950 . S
C2445 C2441 1.385 . S
C2445 C2444 1.374 . S
C2446 C2443 1.499 . S
C2446 C2447 1.373 . S
C2446 C2448 1.389 . S
C2447 H2426 0.950 . S
C2447 C2446 1.373 . S
C2447 C2463 1.377 . S
C2448 C2446 1.389 . S
C2448 C2449 1.524 . S
C2448 C2462 1.377 . S
C2449 C2448 1.524 . S
C2449 C2450 1.397 . S
C2449 C2454 1.363 . S
C2450 H2427 0.950 . S
C2450 C2449 1.397 . S
C2450 C2451 1.334 . S
C2451 H2428 0.950 . S
C2451 C2450 1.334 . S
C2451 C2452 1.287 . S
C2452 C2451 1.287 . S
C2452 C2453 1.524 . S
C2452 H2471 0.913 . S
C2453 H2429 0.950 . S
C2453 C2452 1.524 . S
C2453 C2454 1.415 . S
C2454 H2430 0.950 . S
C2454 C2449 1.363 . S
C2454 C2453 1.415 . S
C2455 H2431 0.951 . S
C2455 C2456 1.366 . S
C2455 C2457 1.388 . S
C2456 C2455 1.366 . S
C2456 C2460 1.385 . S
C2457 H2432 0.951 . S
C2457 C2455 1.388 . S
C2457 C2458 1.366 . S
C2458 C2457 1.366 . S
C2458 C2459 1.414 . S
C2458 C2461 1.499 . S
C2459 H2433 0.950 . S
C2459 C2458 1.414 . S
C2459 C2460 1.374 . S
C2460 H2434 0.950 . S
C2460 C2456 1.385 . S
C2460 C2459 1.374 . S
C2461 C2458 1.499 . S
C2461 C2462 1.373 . S
C2461 C2463 1.389 . S
C2462 H2435 0.950 . S
C2462 C2448 1.377 . S
C2462 C2461 1.373 . S
C2463 C2447 1.377 . S
C2463 C2461 1.389 . S
C2463 C2464 1.524 . S
C2464 C2463 1.524 . S
C2464 C2465 1.397 . S
C2464 C2469 1.363 . S
C2465 H2436 0.950 . S
C2465 C2464 1.397 . S
C2465 C2466 1.334 . S
C2466 H2437 0.950 . S
C2466 C2465 1.334 . S
C2466 C2467 1.287 . S
C2467 C2466 1.287 . S
C2467 C2468 1.524 . S
C2467 H2470 0.999 . S
C2468 H2438 0.950 . S
C2468 C2467 1.524 . S
C2468 C2469 1.415 . S
C2469 H2439 0.950 . S
C2469 C2464 1.363 . S
C2469 C2468 1.415 . S
H2470 C2467 0.999 . S
H2471 C2452 0.913 . S
H2472 C2490 0.951 . S
H2473 C2492 0.951 . S
H2474 C2494 0.950 . S
H2475 C2495 0.950 . S
H2476 C2497 0.950 . S
H2477 C2500 0.950 . S
H2478 C2501 0.950 . S
H2479 C2503 0.950 . S
H2480 C2504 0.950 . S
H2481 C2505 0.951 . S
H2482 C2507 0.951 . S
H2483 C2509 0.950 . S
H2484 C2510 0.950 . S
H2485 C2512 0.950 . S
H2486 C2515 0.950 . S
H2487 C2516 0.950 . S
H2488 C2518 0.950 . S
H2489 C2519 0.950 . S
C2490 H2472 0.951 . S
C2490 C2491 1.366 . S
C2490 C2492 1.388 . S
C2491 C2490 1.366 . S
C2491 C2495 1.385 . S
C2492 H2473 0.951 . S
C2492 C2490 1.388 . S
C2492 C2493 1.366 . S
C2493 C2492 1.366 . S
C2493 C2494 1.414 . S
C2493 C2496 1.499 . S
C2494 H2474 0.950 . S
C2494 C2493 1.414 . S
C2494 C2495 1.374 . S
C2495 H2475 0.950 . S
C2495 C2491 1.385 . S
C2495 C2494 1.374 . S
C2496 C2493 1.499 . S
C2496 C2497 1.373 . S
C2496 C2498 1.389 . S
C2497 H2476 0.950 . S
C2497 C2496 1.373 . S
C2497 C2513 1.377 . S
C2498 C2496 1.389 . S
C2498 C2499 1.524 . S
C2498 C2512 1.377 . S
C2499 C2498 1.524 . S
C2499 C2500 1.397 . S
C2499 C2504 1.363 . S
C2500 H2477 0.950 . S
C2500 C2499 1.397 . S
C2500 C2501 1.334 . S
C2501 H2478 0.950 . S
C2501 C2500 1.334 . S
C2501 C2502 1.287 . S
C2502 C2501 1.287 . S
C2502 C2503 1.524 . S
C2502 H2521 0.913 . S
C2503 H2479 0.950 . S
C2503 C2502 1.524 . S
C2503 C2504 1.415 . S
C2504 H2480 0.950 . S
C2504 C2499 1.363 . S
C2504 C2503 1.415 . S
C2505 H2481 0.951 . S
C2505 C2506 1.366 . S
C2505 C2507 1.388 . S
C2506 C2505 1.366 . S
C2506 C2510 1.385 . S
C2507 H2482 0.951 . S
C2507 C2505 1.388 . S
C2507 C2508 1.366 . S
C2508 C2507 1.366 . S
C2508 C2509 1.414 . S
C2508 C2511 1.499 . S
C2509 H2483 0.950 . S
C2509 C2508 1.414 . S
C2509 C2510 1.374 . S
C2510 H2484 0.950 . S
C2510 C2506 1.385 . S
C2510 C2509 1.374 . S
C2511 C2508 1.499 . S
C2511 C2512 1.373 . S
C2511 C2513 1.389 . S
C2512 H2485 0.950 . S
C2512 C2498 1.377 . S
C2512 C2511 1.373 . S
C2513 C2497 1.377 . S
C2513 C2511 1.389 . S
C2513 C2514 1.524 . S
C2514 C2513 1.524 . S
C2514 C2515 1.397 . S
C2514 C2519 1.363 . S
C2515 H2486 0.950 . S
C2515 C2514 1.397 . S
C2515 C2516 1.334 . S
C2516 H2487 0.950 . S
C2516 C2515 1.334 . S
C2516 C2517 1.287 . S
C2517 C2516 1.287 . S
C2517 C2518 1.524 . S
C2517 H2520 0.999 . S
C2518 H2488 0.950 . S
C2518 C2517 1.524 . S
C2518 C2519 1.415 . S
C2519 H2489 0.950 . S
C2519 C2514 1.363 . S
C2519 C2518 1.415 . S
H2520 C2517 0.999 . S
H2521 C2502 0.913 . S
H2522 C2540 0.951 . S
H2523 C2542 0.951 . S
H2524 C2544 0.950 . S
H2525 C2545 0.950 . S
H2526 C2547 0.950 . S
H2527 C2550 0.950 . S
H2528 C2551 0.950 . S
H2529 C2553 0.950 . S
H2530 C2554 0.950 . S
H2531 C2555 0.951 . S
H2532 C2557 0.951 . S
H2533 C2559 0.950 1_565 S
H2534 C2560 0.950 1_565 S
H2535 C2562 0.950 . S
H2536 C2565 0.950 . S
H2537 C2566 0.950 . S
H2538 C2568 0.950 . S
H2539 C2569 0.950 . S
C2540 H2522 0.951 . S
C2540 C2541 1.366 . S
C2540 C2542 1.388 . S
C2541 C2540 1.366 . S
C2541 C2545 1.385 . S
C2542 H2523 0.951 . S
C2542 C2540 1.388 . S
C2542 C2543 1.366 . S
C2543 C2542 1.366 . S
C2543 C2544 1.414 . S
C2543 C2546 1.499 . S
C2544 H2524 0.950 . S
C2544 C2543 1.414 . S
C2544 C2545 1.374 . S
C2545 H2525 0.950 . S
C2545 C2541 1.385 . S
C2545 C2544 1.374 . S
C2546 C2543 1.499 . S
C2546 C2547 1.373 . S
C2546 C2548 1.389 . S
C2547 H2526 0.950 . S
C2547 C2546 1.373 . S
C2547 C2563 1.377 . S
C2548 C2546 1.389 . S
C2548 C2549 1.524 . S
C2548 C2562 1.377 . S
C2549 C2548 1.524 . S
C2549 C2550 1.397 . S
C2549 C2554 1.363 . S
C2550 H2527 0.950 . S
C2550 C2549 1.397 . S
C2550 C2551 1.334 . S
C2551 H2528 0.950 . S
C2551 C2550 1.334 . S
C2551 C2552 1.287 . S
C2552 C2551 1.287 . S
C2552 C2553 1.524 . S
C2552 H2571 0.913 . S
C2553 H2529 0.950 . S
C2553 C2552 1.524 . S
C2553 C2554 1.415 . S
C2554 H2530 0.950 . S
C2554 C2549 1.363 . S
C2554 C2553 1.415 . S
C2555 H2531 0.951 . S
C2555 C2556 1.366 . S
C2555 C2557 1.388 . S
C2556 C2555 1.366 . S
C2556 C2560 1.385 . S
C2557 H2532 0.951 . S
C2557 C2555 1.388 . S
C2557 C2558 1.366 . S
C2558 C2557 1.366 . S
C2558 C2559 1.414 . S
C2558 C2561 1.499 . S
C2559 H2533 0.950 1_545 S
C2559 C2558 1.414 . S
C2559 C2560 1.374 . S
C2560 H2534 0.950 1_545 S
C2560 C2556 1.385 . S
C2560 C2559 1.374 . S
C2561 C2558 1.499 . S
C2561 C2562 1.373 . S
C2561 C2563 1.389 . S
C2562 H2535 0.950 . S
C2562 C2548 1.377 . S
C2562 C2561 1.373 . S
C2563 C2547 1.377 . S
C2563 C2561 1.389 . S
C2563 C2564 1.524 . S
C2564 C2563 1.524 . S
C2564 C2565 1.397 1_545 S
C2564 C2569 1.363 . S
C2565 H2536 0.950 . S
C2565 C2564 1.397 1_565 S
C2565 C2566 1.334 . S
C2566 H2537 0.950 . S
C2566 C2565 1.334 . S
C2566 C2567 1.302 . S
C2567 C2566 1.302 . S
C2567 C2568 1.499 1_565 S
C2567 H2570 1.007 . S
C2568 H2538 0.950 . S
C2568 C2567 1.499 1_545 S
C2568 C2569 1.415 . S
C2569 H2539 0.950 . S
C2569 C2564 1.363 . S
C2569 C2568 1.415 . S
H2570 C2567 1.007 . S
H2571 C2552 0.913 . S
H2572 C2590 0.951 . S
H2573 C2592 0.951 . S
H2574 C2594 0.950 . S
H2575 C2595 0.950 . S
H2576 C2597 0.950 . S
H2577 C2600 0.950 . S
H2578 C2601 0.950 . S
H2579 C2603 0.950 . S
H2580 C2604 0.950 . S
H2581 C2605 0.951 . S
H2582 C2607 0.951 . S
H2583 C2609 0.950 . S
H2584 C2610 0.950 . S
H2585 C2612 0.950 . S
H2586 C2615 0.950 . S
H2587 C2616 0.950 . S
H2588 C2618 0.950 . S
H2589 C2619 0.950 . S
C2590 H2572 0.951 . S
C2590 C2591 1.366 . S
C2590 C2592 1.388 . S
C2591 C2590 1.366 . S
C2591 C2595 1.385 . S
C2592 H2573 0.951 . S
C2592 C2590 1.388 . S
C2592 C2593 1.366 . S
C2593 C2592 1.366 . S
C2593 C2594 1.414 . S
C2593 C2596 1.499 . S
C2594 H2574 0.950 . S
C2594 C2593 1.414 . S
C2594 C2595 1.374 . S
C2595 H2575 0.950 . S
C2595 C2591 1.385 . S
C2595 C2594 1.374 . S
C2596 C2593 1.499 . S
C2596 C2597 1.373 . S
C2596 C2598 1.389 . S
C2597 H2576 0.950 . S
C2597 C2596 1.373 . S
C2597 C2613 1.377 . S
C2598 C2596 1.389 . S
C2598 C2599 1.524 . S
C2598 C2612 1.377 . S
C2599 C2598 1.524 . S
C2599 C2600 1.397 . S
C2599 C2604 1.363 . S
C2600 H2577 0.950 . S
C2600 C2599 1.397 . S
C2600 C2601 1.334 . S
C2601 H2578 0.950 . S
C2601 C2600 1.334 . S
C2601 C2602 1.287 . S
C2602 C2601 1.287 . S
C2602 C2603 1.524 . S
C2602 H2621 0.913 . S
C2603 H2579 0.950 . S
C2603 C2602 1.524 . S
C2603 C2604 1.415 . S
C2604 H2580 0.950 . S
C2604 C2599 1.363 . S
C2604 C2603 1.415 . S
C2605 H2581 0.951 . S
C2605 C2606 1.366 . S
C2605 C2607 1.388 . S
C2606 C2605 1.366 . S
C2606 C2610 1.385 . S
C2607 H2582 0.951 . S
C2607 C2605 1.388 . S
C2607 C2608 1.366 . S
C2608 C2607 1.366 . S
C2608 C2609 1.414 . S
C2608 C2611 1.499 . S
C2609 H2583 0.950 . S
C2609 C2608 1.414 . S
C2609 C2610 1.374 . S
C2610 H2584 0.950 . S
C2610 C2606 1.385 . S
C2610 C2609 1.374 . S
C2611 C2608 1.499 . S
C2611 C2612 1.373 . S
C2611 C2613 1.389 . S
C2612 H2585 0.950 . S
C2612 C2598 1.377 . S
C2612 C2611 1.373 . S
C2613 C2597 1.377 . S
C2613 C2611 1.389 . S
C2613 C2614 1.524 . S
C2614 C2613 1.524 . S
C2614 C2615 1.397 . S
C2614 C2619 1.363 . S
C2615 H2586 0.950 . S
C2615 C2614 1.397 . S
C2615 C2616 1.334 . S
C2616 H2587 0.950 . S
C2616 C2615 1.334 . S
C2616 C2617 1.287 . S
C2617 C2616 1.287 . S
C2617 C2618 1.524 . S
C2617 H2620 0.999 . S
C2618 H2588 0.950 . S
C2618 C2617 1.524 . S
C2618 C2619 1.415 . S
C2619 H2589 0.950 . S
C2619 C2614 1.363 . S
C2619 C2618 1.415 . S
H2620 C2617 0.999 . S
H2621 C2602 0.913 . S
H2622 C2640 0.951 . S
H2623 C2642 0.951 . S
H2624 C2644 0.950 . S
H2625 C2645 0.950 . S
H2626 C2647 0.950 . S
H2627 C2650 0.950 . S
H2628 C2651 0.950 . S
H2629 C2653 0.950 . S
H2630 C2654 0.950 . S
H2631 C2655 0.951 . S
H2632 C2657 0.951 . S
H2633 C2659 0.950 . S
H2634 C2660 0.950 . S
H2635 C2662 0.950 . S
H2636 C2665 0.950 . S
H2637 C2666 0.950 . S
H2638 C2668 0.950 . S
H2639 C2669 0.950 . S
C2640 H2622 0.951 . S
C2640 C2641 1.366 . S
C2640 C2642 1.388 . S
C2641 C2640 1.366 . S
C2641 C2645 1.385 . S
C2642 H2623 0.951 . S
C2642 C2640 1.388 . S
C2642 C2643 1.366 . S
C2643 C2642 1.366 . S
C2643 C2644 1.414 . S
C2643 C2646 1.499 . S
C2644 H2624 0.950 . S
C2644 C2643 1.414 . S
C2644 C2645 1.374 . S
C2645 H2625 0.950 . S
C2645 C2641 1.385 . S
C2645 C2644 1.374 . S
C2646 C2643 1.499 . S
C2646 C2647 1.373 . S
C2646 C2648 1.389 . S
C2647 H2626 0.950 . S
C2647 C2646 1.373 . S
C2647 C2663 1.377 . S
C2648 C2646 1.389 . S
C2648 C2649 1.524 . S
C2648 C2662 1.377 . S
C2649 C2648 1.524 . S
C2649 C2650 1.397 . S
C2649 C2654 1.363 . S
C2650 H2627 0.950 . S
C2650 C2649 1.397 . S
C2650 C2651 1.334 . S
C2651 H2628 0.950 . S
C2651 C2650 1.334 . S
C2651 C2652 1.287 . S
C2652 C2651 1.287 . S
C2652 C2653 1.524 . S
C2652 H2671 0.913 1_455 S
C2653 H2629 0.950 . S
C2653 C2652 1.524 . S
C2653 C2654 1.415 . S
C2654 H2630 0.950 . S
C2654 C2649 1.363 . S
C2654 C2653 1.415 . S
C2655 H2631 0.951 . S
C2655 C2656 1.366 . S
C2655 C2657 1.388 . S
C2656 C2655 1.366 . S
C2656 C2660 1.385 . S
C2657 H2632 0.951 . S
C2657 C2655 1.388 . S
C2657 C2658 1.366 . S
C2658 C2657 1.366 . S
C2658 C2659 1.414 . S
C2658 C2661 1.499 . S
C2659 H2633 0.950 . S
C2659 C2658 1.414 . S
C2659 C2660 1.374 . S
C2660 H2634 0.950 . S
C2660 C2656 1.385 . S
C2660 C2659 1.374 . S
C2661 C2658 1.499 . S
C2661 C2662 1.373 . S
C2661 C2663 1.389 . S
C2662 H2635 0.950 . S
C2662 C2648 1.377 . S
C2662 C2661 1.373 . S
C2663 C2647 1.377 . S
C2663 C2661 1.389 . S
C2663 C2664 1.524 . S
C2664 C2663 1.524 . S
C2664 C2665 1.397 . S
C2664 C2669 1.363 . S
C2665 H2636 0.950 . S
C2665 C2664 1.397 . S
C2665 C2666 1.334 . S
C2666 H2637 0.950 . S
C2666 C2665 1.334 . S
C2666 C2667 1.287 . S
C2667 C2666 1.287 . S
C2667 C2668 1.524 . S
C2667 H2670 0.999 . S
C2668 H2638 0.950 . S
C2668 C2667 1.524 . S
C2668 C2669 1.415 . S
C2669 H2639 0.950 . S
C2669 C2664 1.363 . S
C2669 C2668 1.415 . S
H2670 C2667 0.999 . S
H2671 C2652 0.913 1_655 S
H2672 C2690 0.951 . S
H2673 C2692 0.951 . S
H2674 C2694 0.950 . S
H2675 C2695 0.950 . S
H2676 C2697 0.950 . S
H2677 C2700 0.950 . S
H2678 C2701 0.950 . S
H2679 C2703 0.950 . S
H2680 C2704 0.950 . S
H2681 C2705 0.951 . S
H2682 C2707 0.951 . S
H2683 C2709 0.950 . S
H2684 C2710 0.950 . S
H2685 C2712 0.950 . S
H2686 C2715 0.950 . S
H2687 C2716 0.950 . S
H2688 C2718 0.950 . S
H2689 C2719 0.950 . S
C2690 H2672 0.951 . S
C2690 C2691 1.366 . S
C2690 C2692 1.388 . S
C2691 C2690 1.366 . S
C2691 C2695 1.385 . S
C2692 H2673 0.951 . S
C2692 C2690 1.388 . S
C2692 C2693 1.366 . S
C2693 C2692 1.366 . S
C2693 C2694 1.414 . S
C2693 C2696 1.499 . S
C2694 H2674 0.950 . S
C2694 C2693 1.414 . S
C2694 C2695 1.374 . S
C2695 H2675 0.950 . S
C2695 C2691 1.385 . S
C2695 C2694 1.374 . S
C2696 C2693 1.499 . S
C2696 C2697 1.373 . S
C2696 C2698 1.389 . S
C2697 H2676 0.950 . S
C2697 C2696 1.373 . S
C2697 C2713 1.377 . S
C2698 C2696 1.389 . S
C2698 C2699 1.524 . S
C2698 C2712 1.377 . S
C2699 C2698 1.524 . S
C2699 C2700 1.397 . S
C2699 C2704 1.363 . S
C2700 H2677 0.950 . S
C2700 C2699 1.397 . S
C2700 C2701 1.334 . S
C2701 H2678 0.950 . S
C2701 C2700 1.334 . S
C2701 C2702 1.287 . S
C2702 C2701 1.287 . S
C2702 C2703 1.524 . S
C2702 H2721 0.913 . S
C2703 H2679 0.950 . S
C2703 C2702 1.524 . S
C2703 C2704 1.415 . S
C2704 H2680 0.950 . S
C2704 C2699 1.363 . S
C2704 C2703 1.415 . S
C2705 H2681 0.951 . S
C2705 C2706 1.366 . S
C2705 C2707 1.388 . S
C2706 C2705 1.366 . S
C2706 C2710 1.385 . S
C2707 H2682 0.951 . S
C2707 C2705 1.388 . S
C2707 C2708 1.366 . S
C2708 C2707 1.366 . S
C2708 C2709 1.414 . S
C2708 C2711 1.499 . S
C2709 H2683 0.950 . S
C2709 C2708 1.414 . S
C2709 C2710 1.374 . S
C2710 H2684 0.950 . S
C2710 C2706 1.385 . S
C2710 C2709 1.374 . S
C2711 C2708 1.499 . S
C2711 C2712 1.373 . S
C2711 C2713 1.389 . S
C2712 H2685 0.950 . S
C2712 C2698 1.377 . S
C2712 C2711 1.373 . S
C2713 C2697 1.377 . S
C2713 C2711 1.389 . S
C2713 C2714 1.524 . S
C2714 C2713 1.524 . S
C2714 C2715 1.397 . S
C2714 C2719 1.363 . S
C2715 H2686 0.950 . S
C2715 C2714 1.397 . S
C2715 C2716 1.334 . S
C2716 H2687 0.950 . S
C2716 C2715 1.334 . S
C2716 C2717 1.287 . S
C2717 C2716 1.287 . S
C2717 C2718 1.524 . S
C2717 H2720 0.999 . S
C2718 H2688 0.950 . S
C2718 C2717 1.524 . S
C2718 C2719 1.415 . S
C2719 H2689 0.950 . S
C2719 C2714 1.363 . S
C2719 C2718 1.415 . S
H2720 C2717 0.999 . S
H2721 C2702 0.913 . S
H2722 C2740 0.951 . S
H2723 C2742 0.951 . S
H2724 C2744 0.950 . S
H2725 C2745 0.950 . S
H2726 C2747 0.950 . S
H2727 C2750 0.950 . S
H2728 C2751 0.950 . S
H2729 C2753 0.950 . S
H2730 C2754 0.950 . S
H2731 C2755 0.951 . S
H2732 C2757 0.951 . S
H2733 C2759 0.950 . S
H2734 C2760 0.950 . S
H2735 C2762 0.950 . S
H2736 C2765 0.950 . S
H2737 C2766 0.950 . S
H2738 C2768 0.950 . S
H2739 C2769 0.950 . S
C2740 H2722 0.951 . S
C2740 C2741 1.366 . S
C2740 C2742 1.388 . S
C2741 C2740 1.366 . S
C2741 C2745 1.385 . S
C2742 H2723 0.951 . S
C2742 C2740 1.388 . S
C2742 C2743 1.366 . S
C2743 C2742 1.366 . S
C2743 C2744 1.414 . S
C2743 C2746 1.499 . S
C2744 H2724 0.950 . S
C2744 C2743 1.414 . S
C2744 C2745 1.374 . S
C2745 H2725 0.950 . S
C2745 C2741 1.385 . S
C2745 C2744 1.374 . S
C2746 C2743 1.499 . S
C2746 C2747 1.373 1_655 S
C2746 C2748 1.389 . S
C2747 H2726 0.950 . S
C2747 C2746 1.373 1_455 S
C2747 C2763 1.377 . S
C2748 C2746 1.389 . S
C2748 C2749 1.524 . S
C2748 C2762 1.377 . S
C2749 C2748 1.524 . S
C2749 C2750 1.397 . S
C2749 C2754 1.363 . S
C2750 H2727 0.950 . S
C2750 C2749 1.397 . S
C2750 C2751 1.334 . S
C2751 H2728 0.950 . S
C2751 C2750 1.334 . S
C2751 C2752 1.287 . S
C2752 C2751 1.287 . S
C2752 C2753 1.524 . S
C2752 H2771 0.913 . S
C2753 H2729 0.950 . S
C2753 C2752 1.524 . S
C2753 C2754 1.415 . S
C2754 H2730 0.950 . S
C2754 C2749 1.363 . S
C2754 C2753 1.415 . S
C2755 H2731 0.951 . S
C2755 C2756 1.366 . S
C2755 C2757 1.388 . S
C2756 C2755 1.366 . S
C2756 C2760 1.385 1_455 S
C2757 H2732 0.951 . S
C2757 C2755 1.388 . S
C2757 C2758 1.363 . S
C2758 C2757 1.363 . S
C2758 C2759 1.416 1_455 S
C2758 C2761 1.500 1_455 S
C2759 H2733 0.950 . S
C2759 C2758 1.416 1_655 S
C2759 C2760 1.374 . S
C2760 H2734 0.950 . S
C2760 C2756 1.385 1_655 S
C2760 C2759 1.374 . S
C2761 C2758 1.500 1_655 S
C2761 C2762 1.373 . S
C2761 C2763 1.389 1_655 S
C2762 H2735 0.950 . S
C2762 C2748 1.377 . S
C2762 C2761 1.373 . S
C2763 C2747 1.377 . S
C2763 C2761 1.389 1_455 S
C2763 C2764 1.524 . S
C2764 C2763 1.524 . S
C2764 C2765 1.397 . S
C2764 C2769 1.363 . S
C2765 H2736 0.950 . S
C2765 C2764 1.397 . S
C2765 C2766 1.334 . S
C2766 H2737 0.950 . S
C2766 C2765 1.334 . S
C2766 C2767 1.287 . S
C2767 C2766 1.287 . S
C2767 C2768 1.524 . S
C2767 H2770 0.999 . S
C2768 H2738 0.950 . S
C2768 C2767 1.524 . S
C2768 C2769 1.415 . S
C2769 H2739 0.950 . S
C2769 C2764 1.363 . S
C2769 C2768 1.415 . S
H2770 C2767 0.999 . S
H2771 C2752 0.913 . S
H2772 C2790 0.951 . S
H2773 C2792 0.951 . S
H2774 C2794 0.950 . S
H2775 C2795 0.950 . S
H2776 C2797 0.950 . S
H2777 C2800 0.950 . S
H2778 C2801 0.950 . S
H2779 C2803 0.950 . S
H2780 C2804 0.950 . S
H2781 C2805 0.951 . S
H2782 C2807 0.951 . S
H2783 C2809 0.950 . S
H2784 C2810 0.950 . S
H2785 C2812 0.950 . S
H2786 C2815 0.950 . S
H2787 C2816 0.950 . S
H2788 C2818 0.950 . S
H2789 C2819 0.950 . S
C2790 H2772 0.951 . S
C2790 C2791 1.366 . S
C2790 C2792 1.388 . S
C2791 C2790 1.366 . S
C2791 C2795 1.385 . S
C2792 H2773 0.951 . S
C2792 C2790 1.388 . S
C2792 C2793 1.366 . S
C2793 C2792 1.366 . S
C2793 C2794 1.414 . S
C2793 C2796 1.499 . S
C2794 H2774 0.950 . S
C2794 C2793 1.414 . S
C2794 C2795 1.374 . S
C2795 H2775 0.950 . S
C2795 C2791 1.385 . S
C2795 C2794 1.374 . S
C2796 C2793 1.499 . S
C2796 C2797 1.373 . S
C2796 C2798 1.389 . S
C2797 H2776 0.950 . S
C2797 C2796 1.373 . S
C2797 C2813 1.377 . S
C2798 C2796 1.389 . S
C2798 C2799 1.524 . S
C2798 C2812 1.377 . S
C2799 C2798 1.524 . S
C2799 C2800 1.397 . S
C2799 C2804 1.363 . S
C2800 H2777 0.950 . S
C2800 C2799 1.397 . S
C2800 C2801 1.334 . S
C2801 H2778 0.950 . S
C2801 C2800 1.334 . S
C2801 C2802 1.287 . S
C2802 C2801 1.287 . S
C2802 C2803 1.524 . S
C2802 H2821 0.913 . S
C2803 H2779 0.950 . S
C2803 C2802 1.524 . S
C2803 C2804 1.415 . S
C2804 H2780 0.950 . S
C2804 C2799 1.363 . S
C2804 C2803 1.415 . S
C2805 H2781 0.951 . S
C2805 C2806 1.366 . S
C2805 C2807 1.388 . S
C2806 C2805 1.366 . S
C2806 C2810 1.385 . S
C2807 H2782 0.951 . S
C2807 C2805 1.388 . S
C2807 C2808 1.366 . S
C2808 C2807 1.366 . S
C2808 C2809 1.414 . S
C2808 C2811 1.499 . S
C2809 H2783 0.950 . S
C2809 C2808 1.414 . S
C2809 C2810 1.374 . S
C2810 H2784 0.950 . S
C2810 C2806 1.385 . S
C2810 C2809 1.374 . S
C2811 C2808 1.499 . S
C2811 C2812 1.373 . S
C2811 C2813 1.389 . S
C2812 H2785 0.950 . S
C2812 C2798 1.377 . S
C2812 C2811 1.373 . S
C2813 C2797 1.377 . S
C2813 C2811 1.389 . S
C2813 C2814 1.524 . S
C2814 C2813 1.524 . S
C2814 C2815 1.397 . S
C2814 C2819 1.363 . S
C2815 H2786 0.950 . S
C2815 C2814 1.397 . S
C2815 C2816 1.334 . S
C2816 H2787 0.950 . S
C2816 C2815 1.334 . S
C2816 C2817 1.287 . S
C2817 C2816 1.287 . S
C2817 C2818 1.524 . S
C2817 H2820 0.999 . S
C2818 H2788 0.950 . S
C2818 C2817 1.524 . S
C2818 C2819 1.415 . S
C2819 H2789 0.950 . S
C2819 C2814 1.363 . S
C2819 C2818 1.415 . S
H2820 C2817 0.999 . S
H2821 C2802 0.913 . S
H2822 C2840 0.951 . S
H2823 C2842 0.951 . S
H2824 C2844 0.950 . S
H2825 C2845 0.950 . S
H2826 C2847 0.950 . S
H2827 C2850 0.950 . S
H2828 C2851 0.950 . S
H2829 C2853 0.950 . S
H2830 C2854 0.950 . S
H2831 C2855 0.951 . S
H2832 C2857 0.951 . S
H2833 C2859 0.950 . S
H2834 C2860 0.950 . S
H2835 C2862 0.950 . S
H2836 C2865 0.950 . S
H2837 C2866 0.950 . S
H2838 C2868 0.950 . S
H2839 C2869 0.891 1_455 S
C2840 H2822 0.951 . S
C2840 C2841 1.366 . S
C2840 C2842 1.388 . S
C2841 C2840 1.366 . S
C2841 C2845 1.385 . S
C2842 H2823 0.951 . S
C2842 C2840 1.388 . S
C2842 C2843 1.366 . S
C2843 C2842 1.366 . S
C2843 C2844 1.414 . S
C2843 C2846 1.499 . S
C2844 H2824 0.950 . S
C2844 C2843 1.414 . S
C2844 C2845 1.374 . S
C2845 H2825 0.950 . S
C2845 C2841 1.385 . S
C2845 C2844 1.374 . S
C2846 C2843 1.499 . S
C2846 C2847 1.373 . S
C2846 C2848 1.389 . S
C2847 H2826 0.950 . S
C2847 C2846 1.373 . S
C2847 C2863 1.377 . S
C2848 C2846 1.389 . S
C2848 C2849 1.524 . S
C2848 C2862 1.377 . S
C2849 C2848 1.524 . S
C2849 C2850 1.397 . S
C2849 C2854 1.363 . S
C2850 H2827 0.950 . S
C2850 C2849 1.397 . S
C2850 C2851 1.334 . S
C2851 H2828 0.950 . S
C2851 C2850 1.334 . S
C2851 C2852 1.287 . S
C2852 C2851 1.287 . S
C2852 C2853 1.524 . S
C2852 H2871 0.913 . S
C2853 H2829 0.950 . S
C2853 C2852 1.524 . S
C2853 C2854 1.415 . S
C2854 H2830 0.950 . S
C2854 C2849 1.363 . S
C2854 C2853 1.415 . S
C2855 H2831 0.951 . S
C2855 C2856 1.366 . S
C2855 C2857 1.388 . S
C2856 C2855 1.366 . S
C2856 C2860 1.385 . S
C2857 H2832 0.951 . S
C2857 C2855 1.388 . S
C2857 C2858 1.366 . S
C2858 C2857 1.366 . S
C2858 C2859 1.414 . S
C2858 C2861 1.499 . S
C2859 H2833 0.950 . S
C2859 C2858 1.414 . S
C2859 C2860 1.374 . S
C2860 H2834 0.950 . S
C2860 C2856 1.385 . S
C2860 C2859 1.374 . S
C2861 C2858 1.499 . S
C2861 C2862 1.373 . S
C2861 C2863 1.389 . S
C2862 H2835 0.950 . S
C2862 C2848 1.377 . S
C2862 C2861 1.373 . S
C2863 C2847 1.377 . S
C2863 C2861 1.389 . S
C2863 C2864 1.524 1_455 S
C2864 C2863 1.524 1_655 S
C2864 C2865 1.397 . S
C2864 C2869 1.371 . S
C2865 H2836 0.950 . S
C2865 C2864 1.397 . S
C2865 C2866 1.334 . S
C2866 H2837 0.950 . S
C2866 C2865 1.334 . S
C2866 C2867 1.287 . S
C2867 C2866 1.287 . S
C2867 C2868 1.524 . S
C2867 H2870 0.999 . S
C2868 H2838 0.950 . S
C2868 C2867 1.524 . S
C2868 C2869 1.471 . S
C2869 H2839 0.891 1_655 S
C2869 C2864 1.371 . S
C2869 C2868 1.471 . S
H2870 C2867 0.999 . S
H2871 C2852 0.913 . S
H2872 C2890 0.951 . S
H2873 C2892 0.951 . S
H2874 C2894 0.950 . S
H2875 C2895 0.950 . S
H2876 C2897 0.950 . S
H2877 C2900 0.950 . S
H2878 C2901 0.950 . S
H2879 C2903 0.950 . S
H2880 C2904 0.950 . S
H2881 C2905 0.951 . S
H2882 C2907 0.951 . S
H2883 C2909 0.950 . S
H2884 C2910 0.950 . S
H2885 C2912 0.950 . S
H2886 C2915 0.950 . S
H2887 C2916 0.950 . S
H2888 C2918 0.950 . S
H2889 C2919 0.950 . S
C2890 H2872 0.951 . S
C2890 C2891 1.366 . S
C2890 C2892 1.388 . S
C2891 C2890 1.366 . S
C2891 C2895 1.385 . S
C2892 H2873 0.951 . S
C2892 C2890 1.388 . S
C2892 C2893 1.366 . S
C2893 C2892 1.366 . S
C2893 C2894 1.414 . S
C2893 C2896 1.499 . S
C2894 H2874 0.950 . S
C2894 C2893 1.414 . S
C2894 C2895 1.374 . S
C2895 H2875 0.950 . S
C2895 C2891 1.385 . S
C2895 C2894 1.374 . S
C2896 C2893 1.499 . S
C2896 C2897 1.373 . S
C2896 C2898 1.389 . S
C2897 H2876 0.950 . S
C2897 C2896 1.373 . S
C2897 C2913 1.377 . S
C2898 C2896 1.389 . S
C2898 C2899 1.524 . S
C2898 C2912 1.377 . S
C2899 C2898 1.524 . S
C2899 C2900 1.397 . S
C2899 C2904 1.363 . S
C2900 H2877 0.950 . S
C2900 C2899 1.397 . S
C2900 C2901 1.334 . S
C2901 H2878 0.950 . S
C2901 C2900 1.334 . S
C2901 C2902 1.287 . S
C2902 C2901 1.287 . S
C2902 C2903 1.524 . S
C2902 H2921 0.913 . S
C2903 H2879 0.950 . S
C2903 C2902 1.524 . S
C2903 C2904 1.415 . S
C2904 H2880 0.950 . S
C2904 C2899 1.363 . S
C2904 C2903 1.415 . S
C2905 H2881 0.951 . S
C2905 C2906 1.366 . S
C2905 C2907 1.388 . S
C2906 C2905 1.366 . S
C2906 C2910 1.385 . S
C2907 H2882 0.951 . S
C2907 C2905 1.388 . S
C2907 C2908 1.366 . S
C2908 C2907 1.366 . S
C2908 C2909 1.414 . S
C2908 C2911 1.499 . S
C2909 H2883 0.950 . S
C2909 C2908 1.414 . S
C2909 C2910 1.374 . S
C2910 H2884 0.950 . S
C2910 C2906 1.385 . S
C2910 C2909 1.374 . S
C2911 C2908 1.499 . S
C2911 C2912 1.373 . S
C2911 C2913 1.389 . S
C2912 H2885 0.950 . S
C2912 C2898 1.377 . S
C2912 C2911 1.373 . S
C2913 C2897 1.377 . S
C2913 C2911 1.389 . S
C2913 C2914 1.524 . S
C2914 C2913 1.524 . S
C2914 C2915 1.397 . S
C2914 C2919 1.363 . S
C2915 H2886 0.950 . S
C2915 C2914 1.397 . S
C2915 C2916 1.334 . S
C2916 H2887 0.950 . S
C2916 C2915 1.334 . S
C2916 C2917 1.287 . S
C2917 C2916 1.287 . S
C2917 C2918 1.524 . S
C2917 H2920 0.999 . S
C2918 H2888 0.950 . S
C2918 C2917 1.524 . S
C2918 C2919 1.415 . S
C2919 H2889 0.950 . S
C2919 C2914 1.363 . S
C2919 C2918 1.415 . S
H2920 C2917 0.999 . S
H2921 C2902 0.913 . S
H2922 C2940 0.951 . S
H2923 C2942 0.951 . S
H2924 C2944 0.950 . S
H2925 C2945 0.950 . S
H2926 C2947 0.950 . S
H2927 C2950 0.950 . S
H2928 C2951 0.950 . S
H2929 C2953 0.950 . S
H2930 C2954 0.950 . S
H2931 C2955 0.951 . S
H2932 C2957 0.951 . S
H2933 C2959 0.950 . S
H2934 C2960 0.950 . S
H2935 C2962 0.950 . S
H2936 C2965 0.950 . S
H2937 C2966 0.950 . S
H2938 C2968 0.950 . S
H2939 C2969 0.950 . S
C2940 H2922 0.951 . S
C2940 C2941 1.366 . S
C2940 C2942 1.388 . S
C2941 C2940 1.366 . S
C2941 C2945 1.385 . S
C2942 H2923 0.951 . S
C2942 C2940 1.388 . S
C2942 C2943 1.366 . S
C2943 C2942 1.366 . S
C2943 C2944 1.414 . S
C2943 C2946 1.499 . S
C2944 H2924 0.950 . S
C2944 C2943 1.414 . S
C2944 C2945 1.374 . S
C2945 H2925 0.950 . S
C2945 C2941 1.385 . S
C2945 C2944 1.374 . S
C2946 C2943 1.499 . S
C2946 C2947 1.373 . S
C2946 C2948 1.389 . S
C2947 H2926 0.950 . S
C2947 C2946 1.373 . S
C2947 C2963 1.377 . S
C2948 C2946 1.389 . S
C2948 C2949 1.524 . S
C2948 C2962 1.377 . S
C2949 C2948 1.524 . S
C2949 C2950 1.397 . S
C2949 C2954 1.363 . S
C2950 H2927 0.950 . S
C2950 C2949 1.397 . S
C2950 C2951 1.334 . S
C2951 H2928 0.950 . S
C2951 C2950 1.334 . S
C2951 C2952 1.287 . S
C2952 C2951 1.287 . S
C2952 C2953 1.524 . S
C2952 H2971 0.913 . S
C2953 H2929 0.950 . S
C2953 C2952 1.524 . S
C2953 C2954 1.415 . S
C2954 H2930 0.950 . S
C2954 C2949 1.363 . S
C2954 C2953 1.415 . S
C2955 H2931 0.951 . S
C2955 C2956 1.366 . S
C2955 C2957 1.388 . S
C2956 C2955 1.366 . S
C2956 C2960 1.385 . S
C2957 H2932 0.951 . S
C2957 C2955 1.388 . S
C2957 C2958 1.366 . S
C2958 C2957 1.366 . S
C2958 C2959 1.414 . S
C2958 C2961 1.499 . S
C2959 H2933 0.950 . S
C2959 C2958 1.414 . S
C2959 C2960 1.374 . S
C2960 H2934 0.950 . S
C2960 C2956 1.385 . S
C2960 C2959 1.374 . S
C2961 C2958 1.499 . S
C2961 C2962 1.373 . S
C2961 C2963 1.389 . S
C2962 H2935 0.950 . S
C2962 C2948 1.377 . S
C2962 C2961 1.373 . S
C2963 C2947 1.377 . S
C2963 C2961 1.389 . S
C2963 C2964 1.524 . S
C2964 C2963 1.524 . S
C2964 C2965 1.397 . S
C2964 C2969 1.363 . S
C2965 H2936 0.950 . S
C2965 C2964 1.397 . S
C2965 C2966 1.334 . S
C2966 H2937 0.950 . S
C2966 C2965 1.334 . S
C2966 C2967 1.287 . S
C2967 C2966 1.287 . S
C2967 C2968 1.524 . S
C2967 H2970 0.999 . S
C2968 H2938 0.950 . S
C2968 C2967 1.524 . S
C2968 C2969 1.415 . S
C2969 H2939 0.950 . S
C2969 C2964 1.363 . S
C2969 C2968 1.415 . S
H2970 C2967 0.999 . S
H2971 C2952 0.913 . S
H2972 C2990 0.951 . S
H2973 C2992 0.951 . S
H2974 C2994 0.950 . S
H2975 C2995 0.950 . S
H2976 C2997 0.950 . S
H2977 C3000 0.950 . S
H2978 C3001 0.950 . S
H2979 C3003 0.950 . S
H2980 C3004 0.950 . S
H2981 C3005 0.951 . S
H2982 C3007 0.951 . S
H2983 C3009 0.950 . S
H2984 C3010 0.950 . S
H2985 C3012 0.950 . S
H2986 C3015 0.950 . S
H2987 C3016 0.950 . S
H2988 C3018 0.950 . S
H2989 C3019 0.950 . S
C2990 H2972 0.951 . S
C2990 C2991 1.366 . S
C2990 C2992 1.388 . S
C2991 C2990 1.366 . S
C2991 C2995 1.385 . S
C2992 H2973 0.951 . S
C2992 C2990 1.388 . S
C2992 C2993 1.366 . S
C2993 C2992 1.366 . S
C2993 C2994 1.414 . S
C2993 C2996 1.499 . S
C2994 H2974 0.950 . S
C2994 C2993 1.414 . S
C2994 C2995 1.374 . S
C2995 H2975 0.950 . S
C2995 C2991 1.385 . S
C2995 C2994 1.374 . S
C2996 C2993 1.499 . S
C2996 C2997 1.373 . S
C2996 C2998 1.389 . S
C2997 H2976 0.950 . S
C2997 C2996 1.373 . S
C2997 C3013 1.377 . S
C2998 C2996 1.389 . S
C2998 C2999 1.524 . S
C2998 C3012 1.377 . S
C2999 C2998 1.524 . S
C2999 C3000 1.397 . S
C2999 C3004 1.363 . S
C3000 H2977 0.950 . S
C3000 C2999 1.397 . S
C3000 C3001 1.334 . S
C3001 H2978 0.950 . S
C3001 C3000 1.334 . S
C3001 C3002 1.287 . S
C3002 C3001 1.287 . S
C3002 C3003 1.524 . S
C3002 H3021 0.913 . S
C3003 H2979 0.950 . S
C3003 C3002 1.524 . S
C3003 C3004 1.415 . S
C3004 H2980 0.950 . S
C3004 C2999 1.363 . S
C3004 C3003 1.415 . S
C3005 H2981 0.951 . S
C3005 C3006 1.366 . S
C3005 C3007 1.388 . S
C3006 C3005 1.366 . S
C3006 C3010 1.385 . S
C3007 H2982 0.951 . S
C3007 C3005 1.388 . S
C3007 C3008 1.366 . S
C3008 C3007 1.366 . S
C3008 C3009 1.414 . S
C3008 C3011 1.499 . S
C3009 H2983 0.950 . S
C3009 C3008 1.414 . S
C3009 C3010 1.374 . S
C3010 H2984 0.950 . S
C3010 C3006 1.385 . S
C3010 C3009 1.374 . S
C3011 C3008 1.499 . S
C3011 C3012 1.373 . S
C3011 C3013 1.389 . S
C3012 H2985 0.950 . S
C3012 C2998 1.377 . S
C3012 C3011 1.373 . S
C3013 C2997 1.377 . S
C3013 C3011 1.389 . S
C3013 C3014 1.524 . S
C3014 C3013 1.524 . S
C3014 C3015 1.397 . S
C3014 C3019 1.363 . S
C3015 H2986 0.950 . S
C3015 C3014 1.397 . S
C3015 C3016 1.334 . S
C3016 H2987 0.950 . S
C3016 C3015 1.334 . S
C3016 C3017 1.287 . S
C3017 C3016 1.287 . S
C3017 C3018 1.524 . S
C3017 H3020 0.999 . S
C3018 H2988 0.950 . S
C3018 C3017 1.524 . S
C3018 C3019 1.415 . S
C3019 H2989 0.950 . S
C3019 C3014 1.363 . S
C3019 C3018 1.415 . S
H3020 C3017 0.999 . S
H3021 C3002 0.913 . S
H3022 C3040 0.951 . S
H3023 C3042 0.951 . S
H3024 C3044 0.950 . S
H3025 C3045 0.950 . S
H3026 C3047 0.950 . S
H3027 C3050 0.950 . S
H3028 C3051 0.950 . S
H3029 C3053 0.950 . S
H3030 C3054 0.950 . S
H3031 C3055 0.951 . S
H3032 C3057 0.951 . S
H3033 C3059 0.950 . S
H3034 C3060 0.950 . S
H3035 C3062 0.950 . S
H3036 C3065 0.950 . S
H3037 C3066 0.950 . S
H3038 C3068 0.950 . S
H3039 C3069 0.950 . S
C3040 H3022 0.951 . S
C3040 C3041 1.366 . S
C3040 C3042 1.388 . S
C3041 C3040 1.366 . S
C3041 C3045 1.385 . S
C3042 H3023 0.951 . S
C3042 C3040 1.388 . S
C3042 C3043 1.366 . S
C3043 C3042 1.366 . S
C3043 C3044 1.414 . S
C3043 C3046 1.499 . S
C3044 H3024 0.950 . S
C3044 C3043 1.414 . S
C3044 C3045 1.374 . S
C3045 H3025 0.950 . S
C3045 C3041 1.385 . S
C3045 C3044 1.374 . S
C3046 C3043 1.499 . S
C3046 C3047 1.373 . S
C3046 C3048 1.389 . S
C3047 H3026 0.950 . S
C3047 C3046 1.373 . S
C3047 C3063 1.377 . S
C3048 C3046 1.389 . S
C3048 C3049 1.524 . S
C3048 C3062 1.377 . S
C3049 C3048 1.524 . S
C3049 C3050 1.397 . S
C3049 C3054 1.363 . S
C3050 H3027 0.950 . S
C3050 C3049 1.397 . S
C3050 C3051 1.334 . S
C3051 H3028 0.950 . S
C3051 C3050 1.334 . S
C3051 C3052 1.287 . S
C3052 C3051 1.287 . S
C3052 C3053 1.524 . S
C3052 H3071 0.913 . S
C3053 H3029 0.950 . S
C3053 C3052 1.524 . S
C3053 C3054 1.415 . S
C3054 H3030 0.950 . S
C3054 C3049 1.363 . S
C3054 C3053 1.415 . S
C3055 H3031 0.951 . S
C3055 C3056 1.366 . S
C3055 C3057 1.388 . S
C3056 C3055 1.366 . S
C3056 C3060 1.385 . S
C3057 H3032 0.951 . S
C3057 C3055 1.388 . S
C3057 C3058 1.366 . S
C3058 C3057 1.366 . S
C3058 C3059 1.414 . S
C3058 C3061 1.499 . S
C3059 H3033 0.950 . S
C3059 C3058 1.414 . S
C3059 C3060 1.374 . S
C3060 H3034 0.950 . S
C3060 C3056 1.385 . S
C3060 C3059 1.374 . S
C3061 C3058 1.499 . S
C3061 C3062 1.373 . S
C3061 C3063 1.389 . S
C3062 H3035 0.950 . S
C3062 C3048 1.377 . S
C3062 C3061 1.373 . S
C3063 C3047 1.377 . S
C3063 C3061 1.389 . S
C3063 C3064 1.524 . S
C3064 C3063 1.524 . S
C3064 C3065 1.397 . S
C3064 C3069 1.363 . S
C3065 H3036 0.950 . S
C3065 C3064 1.397 . S
C3065 C3066 1.334 . S
C3066 H3037 0.950 . S
C3066 C3065 1.334 . S
C3066 C3067 1.287 . S
C3067 C3066 1.287 . S
C3067 C3068 1.524 . S
C3067 H3070 0.999 . S
C3068 H3038 0.950 . S
C3068 C3067 1.524 . S
C3068 C3069 1.415 . S
C3069 H3039 0.950 . S
C3069 C3064 1.363 . S
C3069 C3068 1.415 . S
H3070 C3067 0.999 . S
H3071 C3052 0.913 . S
H3072 C3090 0.951 . S
H3073 C3092 0.951 . S
H3074 C3094 0.950 . S
H3075 C3095 0.950 . S
H3076 C3097 0.950 . S
H3077 C3100 0.950 . S
H3078 C3101 0.950 . S
H3079 C3103 0.950 . S
H3080 C3104 0.950 . S
H3081 C3105 0.951 . S
H3082 C3107 0.951 . S
H3083 C3109 0.950 . S
H3084 C3110 0.950 . S
H3085 C3112 0.950 . S
H3086 C3115 0.950 . S
H3087 C3116 0.950 . S
H3088 C3118 0.950 . S
H3089 C3119 0.950 . S
C3090 H3072 0.951 . S
C3090 C3091 1.366 . S
C3090 C3092 1.388 . S
C3091 C3090 1.366 . S
C3091 C3095 1.385 . S
C3092 H3073 0.951 . S
C3092 C3090 1.388 . S
C3092 C3093 1.366 . S
C3093 C3092 1.366 . S
C3093 C3094 1.414 . S
C3093 C3096 1.499 . S
C3094 H3074 0.950 . S
C3094 C3093 1.414 . S
C3094 C3095 1.374 . S
C3095 H3075 0.950 . S
C3095 C3091 1.385 . S
C3095 C3094 1.374 . S
C3096 C3093 1.499 . S
C3096 C3097 1.373 . S
C3096 C3098 1.389 . S
C3097 H3076 0.950 . S
C3097 C3096 1.373 . S
C3097 C3113 1.377 . S
C3098 C3096 1.389 . S
C3098 C3099 1.524 . S
C3098 C3112 1.377 . S
C3099 C3098 1.524 . S
C3099 C3100 1.397 . S
C3099 C3104 1.363 . S
C3100 H3077 0.950 . S
C3100 C3099 1.397 . S
C3100 C3101 1.334 . S
C3101 H3078 0.950 . S
C3101 C3100 1.334 . S
C3101 C3102 1.287 . S
C3102 C3101 1.287 . S
C3102 C3103 1.524 . S
C3102 H3121 0.913 . S
C3103 H3079 0.950 . S
C3103 C3102 1.524 . S
C3103 C3104 1.415 . S
C3104 H3080 0.950 . S
C3104 C3099 1.363 . S
C3104 C3103 1.415 . S
C3105 H3081 0.951 . S
C3105 C3106 1.366 . S
C3105 C3107 1.388 . S
C3106 C3105 1.366 . S
C3106 C3110 1.385 . S
C3107 H3082 0.951 . S
C3107 C3105 1.388 . S
C3107 C3108 1.366 . S
C3108 C3107 1.366 . S
C3108 C3109 1.414 . S
C3108 C3111 1.499 . S
C3109 H3083 0.950 . S
C3109 C3108 1.414 . S
C3109 C3110 1.374 . S
C3110 H3084 0.950 . S
C3110 C3106 1.385 . S
C3110 C3109 1.374 . S
C3111 C3108 1.499 . S
C3111 C3112 1.373 . S
C3111 C3113 1.389 . S
C3112 H3085 0.950 . S
C3112 C3098 1.377 . S
C3112 C3111 1.373 . S
C3113 C3097 1.377 . S
C3113 C3111 1.389 . S
C3113 C3114 1.524 . S
C3114 C3113 1.524 . S
C3114 C3115 1.397 . S
C3114 C3119 1.363 . S
C3115 H3086 0.950 . S
C3115 C3114 1.397 . S
C3115 C3116 1.334 . S
C3116 H3087 0.950 . S
C3116 C3115 1.334 . S
C3116 C3117 1.287 . S
C3117 C3116 1.287 . S
C3117 C3118 1.524 . S
C3117 H3120 0.999 . S
C3118 H3088 0.950 . S
C3118 C3117 1.524 . S
C3118 C3119 1.415 . S
C3119 H3089 0.950 . S
C3119 C3114 1.363 . S
C3119 C3118 1.415 . S
H3120 C3117 0.999 . S
H3121 C3102 0.913 . S
H3122 C3140 0.951 . S
H3123 C3142 0.951 . S
H3124 C3144 0.950 . S
H3125 C3145 0.950 . S
H3126 C3147 0.950 . S
H3127 C3150 0.950 . S
H3128 C3151 0.950 . S
H3129 C3153 0.950 . S
H3130 C3154 0.950 . S
H3131 C3155 0.951 . S
H3132 C3157 0.951 . S
H3133 C3159 0.950 . S
H3134 C3160 0.950 . S
H3135 C3162 0.950 . S
H3136 C3165 0.950 . S
H3137 C3166 0.950 . S
H3138 C3168 0.950 . S
H3139 C3169 0.950 . S
C3140 H3122 0.951 . S
C3140 C3141 1.366 . S
C3140 C3142 1.388 . S
C3141 C3140 1.366 . S
C3141 C3145 1.385 . S
C3142 H3123 0.951 . S
C3142 C3140 1.388 . S
C3142 C3143 1.366 . S
C3143 C3142 1.366 . S
C3143 C3144 1.414 . S
C3143 C3146 1.499 . S
C3144 H3124 0.950 . S
C3144 C3143 1.414 . S
C3144 C3145 1.374 . S
C3145 H3125 0.950 . S
C3145 C3141 1.385 . S
C3145 C3144 1.374 . S
C3146 C3143 1.499 . S
C3146 C3147 1.373 . S
C3146 C3148 1.389 . S
C3147 H3126 0.950 . S
C3147 C3146 1.373 . S
C3147 C3163 1.377 . S
C3148 C3146 1.389 . S
C3148 C3149 1.524 . S
C3148 C3162 1.377 . S
C3149 C3148 1.524 . S
C3149 C3150 1.397 . S
C3149 C3154 1.363 . S
C3150 H3127 0.950 . S
C3150 C3149 1.397 . S
C3150 C3151 1.334 . S
C3151 H3128 0.950 . S
C3151 C3150 1.334 . S
C3151 C3152 1.287 . S
C3152 C3151 1.287 . S
C3152 C3153 1.524 . S
C3152 H3171 0.913 . S
C3153 H3129 0.950 . S
C3153 C3152 1.524 . S
C3153 C3154 1.415 . S
C3154 H3130 0.950 . S
C3154 C3149 1.363 . S
C3154 C3153 1.415 . S
C3155 H3131 0.951 . S
C3155 C3156 1.366 . S
C3155 C3157 1.388 . S
C3156 C3155 1.366 . S
C3156 C3160 1.385 . S
C3157 H3132 0.951 . S
C3157 C3155 1.388 . S
C3157 C3158 1.366 . S
C3158 C3157 1.366 . S
C3158 C3159 1.414 . S
C3158 C3161 1.499 . S
C3159 H3133 0.950 . S
C3159 C3158 1.414 . S
C3159 C3160 1.374 . S
C3160 H3134 0.950 . S
C3160 C3156 1.385 . S
C3160 C3159 1.374 . S
C3161 C3158 1.499 . S
C3161 C3162 1.373 . S
C3161 C3163 1.389 . S
C3162 H3135 0.950 . S
C3162 C3148 1.377 . S
C3162 C3161 1.373 . S
C3163 C3147 1.377 . S
C3163 C3161 1.389 . S
C3163 C3164 1.524 . S
C3164 C3163 1.524 . S
C3164 C3165 1.397 . S
C3164 C3169 1.363 . S
C3165 H3136 0.950 . S
C3165 C3164 1.397 . S
C3165 C3166 1.334 . S
C3166 H3137 0.950 . S
C3166 C3165 1.334 . S
C3166 C3167 1.287 . S
C3167 C3166 1.287 . S
C3167 C3168 1.524 . S
C3167 H3170 0.999 . S
C3168 H3138 0.950 . S
C3168 C3167 1.524 . S
C3168 C3169 1.415 . S
C3169 H3139 0.950 . S
C3169 C3164 1.363 . S
C3169 C3168 1.415 . S
H3170 C3167 0.999 . S
H3171 C3152 0.913 . S
H3172 C3190 0.951 . S
H3173 C3192 0.951 . S
H3174 C3194 0.950 . S
H3175 C3195 0.950 . S
H3176 C3197 0.950 . S
H3177 C3200 0.950 . S
H3178 C3201 0.950 . S
H3179 C3203 0.950 . S
H3180 C3204 0.950 . S
H3181 C3205 0.951 . S
H3182 C3207 0.951 . S
H3183 C3209 0.950 . S
H3184 C3210 0.950 . S
H3185 C3212 0.950 . S
H3186 C3215 0.950 . S
H3187 C3216 0.950 . S
H3188 C3218 0.950 . S
H3189 C3219 0.950 . S
C3190 H3172 0.951 . S
C3190 C3191 1.366 . S
C3190 C3192 1.388 . S
C3191 C3190 1.366 . S
C3191 C3195 1.385 . S
C3192 H3173 0.951 . S
C3192 C3190 1.388 . S
C3192 C3193 1.366 . S
C3193 C3192 1.366 . S
C3193 C3194 1.414 . S
C3193 C3196 1.499 . S
C3194 H3174 0.950 . S
C3194 C3193 1.414 . S
C3194 C3195 1.374 . S
C3195 H3175 0.950 . S
C3195 C3191 1.385 . S
C3195 C3194 1.374 . S
C3196 C3193 1.499 . S
C3196 C3197 1.373 . S
C3196 C3198 1.389 . S
C3197 H3176 0.950 . S
C3197 C3196 1.373 . S
C3197 C3213 1.377 . S
C3198 C3196 1.389 . S
C3198 C3199 1.524 . S
C3198 C3212 1.377 . S
C3199 C3198 1.524 . S
C3199 C3200 1.397 . S
C3199 C3204 1.363 . S
C3200 H3177 0.950 . S
C3200 C3199 1.397 . S
C3200 C3201 1.334 . S
C3201 H3178 0.950 . S
C3201 C3200 1.334 . S
C3201 C3202 1.287 . S
C3202 C3201 1.287 . S
C3202 C3203 1.524 . S
C3202 H3221 0.913 . S
C3203 H3179 0.950 . S
C3203 C3202 1.524 . S
C3203 C3204 1.415 . S
C3204 H3180 0.950 . S
C3204 C3199 1.363 . S
C3204 C3203 1.415 . S
C3205 H3181 0.951 . S
C3205 C3206 1.366 . S
C3205 C3207 1.388 . S
C3206 C3205 1.366 . S
C3206 C3210 1.385 . S
C3207 H3182 0.951 . S
C3207 C3205 1.388 . S
C3207 C3208 1.366 . S
C3208 C3207 1.366 . S
C3208 C3209 1.414 . S
C3208 C3211 1.499 . S
C3209 H3183 0.950 . S
C3209 C3208 1.414 . S
C3209 C3210 1.374 . S
C3210 H3184 0.950 . S
C3210 C3206 1.385 . S
C3210 C3209 1.374 . S
C3211 C3208 1.499 . S
C3211 C3212 1.373 . S
C3211 C3213 1.389 . S
C3212 H3185 0.950 . S
C3212 C3198 1.377 . S
C3212 C3211 1.373 . S
C3213 C3197 1.377 . S
C3213 C3211 1.389 . S
C3213 C3214 1.524 . S
C3214 C3213 1.524 . S
C3214 C3215 1.397 . S
C3214 C3219 1.363 . S
C3215 H3186 0.950 . S
C3215 C3214 1.397 . S
C3215 C3216 1.334 . S
C3216 H3187 0.950 . S
C3216 C3215 1.334 . S
C3216 C3217 1.287 . S
C3217 C3216 1.287 . S
C3217 C3218 1.524 . S
C3217 H3220 0.999 . S
C3218 H3188 0.950 . S
C3218 C3217 1.524 . S
C3218 C3219 1.415 . S
C3219 H3189 0.950 . S
C3219 C3214 1.363 . S
C3219 C3218 1.415 . S
H3220 C3217 0.999 . S
H3221 C3202 0.913 . S
H3222 C3240 0.951 . S
H3223 C3242 0.951 . S
H3224 C3244 0.950 . S
H3225 C3245 0.950 . S
H3226 C3247 0.950 . S
H3227 C3250 0.950 . S
H3228 C3251 0.950 . S
H3229 C3253 0.950 . S
H3230 C3254 0.950 . S
H3231 C3255 0.951 . S
H3232 C3257 0.951 . S
H3233 C3259 0.950 . S
H3234 C3260 0.950 . S
H3235 C3262 0.950 . S
H3236 C3265 0.950 . S
H3237 C3266 0.950 . S
H3238 C3268 0.950 . S
H3239 C3269 0.950 . S
C3240 H3222 0.951 . S
C3240 C3241 1.366 . S
C3240 C3242 1.388 . S
C3241 C3240 1.366 . S
C3241 C3245 1.385 . S
C3242 H3223 0.951 . S
C3242 C3240 1.388 . S
C3242 C3243 1.366 . S
C3243 C3242 1.366 . S
C3243 C3244 1.414 . S
C3243 C3246 1.499 . S
C3244 H3224 0.950 . S
C3244 C3243 1.414 . S
C3244 C3245 1.374 . S
C3245 H3225 0.950 . S
C3245 C3241 1.385 . S
C3245 C3244 1.374 . S
C3246 C3243 1.499 . S
C3246 C3247 1.373 . S
C3246 C3248 1.389 . S
C3247 H3226 0.950 . S
C3247 C3246 1.373 . S
C3247 C3263 1.377 . S
C3248 C3246 1.389 . S
C3248 C3249 1.524 . S
C3248 C3262 1.377 . S
C3249 C3248 1.524 . S
C3249 C3250 1.397 . S
C3249 C3254 1.363 . S
C3250 H3227 0.950 . S
C3250 C3249 1.397 . S
C3250 C3251 1.334 . S
C3251 H3228 0.950 . S
C3251 C3250 1.334 . S
C3251 C3252 1.287 . S
C3252 C3251 1.287 . S
C3252 C3253 1.524 . S
C3252 H3271 0.913 . S
C3253 H3229 0.950 . S
C3253 C3252 1.524 . S
C3253 C3254 1.415 . S
C3254 H3230 0.950 . S
C3254 C3249 1.363 . S
C3254 C3253 1.415 . S
C3255 H3231 0.951 . S
C3255 C3256 1.366 . S
C3255 C3257 1.388 . S
C3256 C3255 1.366 . S
C3256 C3260 1.385 . S
C3257 H3232 0.951 . S
C3257 C3255 1.388 . S
C3257 C3258 1.366 . S
C3258 C3257 1.366 . S
C3258 C3259 1.414 . S
C3258 C3261 1.499 . S
C3259 H3233 0.950 . S
C3259 C3258 1.414 . S
C3259 C3260 1.374 . S
C3260 H3234 0.950 . S
C3260 C3256 1.385 . S
C3260 C3259 1.374 . S
C3261 C3258 1.499 . S
C3261 C3262 1.373 . S
C3261 C3263 1.389 . S
C3262 H3235 0.950 . S
C3262 C3248 1.377 . S
C3262 C3261 1.373 . S
C3263 C3247 1.377 . S
C3263 C3261 1.389 . S
C3263 C3264 1.524 . S
C3264 C3263 1.524 . S
C3264 C3265 1.397 . S
C3264 C3269 1.363 . S
C3265 H3236 0.950 . S
C3265 C3264 1.397 . S
C3265 C3266 1.334 . S
C3266 H3237 0.950 . S
C3266 C3265 1.334 . S
C3266 C3267 1.287 . S
C3267 C3266 1.287 . S
C3267 C3268 1.524 . S
C3267 H3270 0.999 . S
C3268 H3238 0.950 . S
C3268 C3267 1.524 . S
C3268 C3269 1.415 . S
C3269 H3239 0.950 . S
C3269 C3264 1.363 . S
C3269 C3268 1.415 . S
H3270 C3267 0.999 . S
H3271 C3252 0.913 . S
H3272 C3290 0.951 . S
H3273 C3292 0.951 . S
H3274 C3294 0.950 . S
H3275 C3295 0.950 . S
H3276 C3297 0.950 1_554 S
H3277 C3300 0.950 . S
H3278 C3301 0.950 . S
H3279 C3303 0.950 . S
H3280 C3304 0.950 . S
H3281 C3305 0.951 . S
H3282 C3307 0.951 . S
H3283 C3309 0.950 . S
H3284 C3310 0.950 . S
H3285 C3312 0.950 . S
H3286 C3315 0.950 . S
H3287 C3316 0.950 . S
H3288 C3318 0.950 . S
H3289 C3319 0.950 . S
C3290 H3272 0.951 . S
C3290 C3291 1.366 . S
C3290 C3292 1.388 . S
C3291 C3290 1.366 . S
C3291 C3295 1.385 . S
C3292 H3273 0.951 . S
C3292 C3290 1.388 . S
C3292 C3293 1.366 . S
C3293 C3292 1.366 . S
C3293 C3294 1.414 . S
C3293 C3296 1.499 . S
C3294 H3274 0.950 . S
C3294 C3293 1.414 . S
C3294 C3295 1.374 . S
C3295 H3275 0.950 . S
C3295 C3291 1.385 . S
C3295 C3294 1.374 . S
C3296 C3293 1.499 . S
C3296 C3297 1.373 . S
C3296 C3298 1.389 . S
C3297 H3276 0.950 1_556 S
C3297 C3296 1.373 . S
C3297 C3313 1.377 . S
C3298 C3296 1.389 . S
C3298 C3299 1.524 . S
C3298 C3312 1.377 . S
C3299 C3298 1.524 . S
C3299 C3300 1.397 . S
C3299 C3304 1.363 . S
C3300 H3277 0.950 . S
C3300 C3299 1.397 . S
C3300 C3301 1.334 . S
C3301 H3278 0.950 . S
C3301 C3300 1.334 . S
C3301 C3302 1.287 . S
C3302 C3301 1.287 . S
C3302 C3303 1.524 . S
C3302 H3321 0.913 . S
C3303 H3279 0.950 . S
C3303 C3302 1.524 . S
C3303 C3304 1.415 . S
C3304 H3280 0.950 . S
C3304 C3299 1.363 . S
C3304 C3303 1.415 . S
C3305 H3281 0.951 . S
C3305 C3306 1.366 . S
C3305 C3307 1.388 . S
C3306 C3305 1.366 . S
C3306 C3310 1.385 . S
C3307 H3282 0.951 . S
C3307 C3305 1.388 . S
C3307 C3308 1.366 . S
C3308 C3307 1.366 . S
C3308 C3309 1.414 . S
C3308 C3311 1.499 . S
C3309 H3283 0.950 . S
C3309 C3308 1.414 . S
C3309 C3310 1.374 . S
C3310 H3284 0.950 . S
C3310 C3306 1.385 . S
C3310 C3309 1.374 . S
C3311 C3308 1.499 . S
C3311 C3312 1.373 . S
C3311 C3313 1.389 . S
C3312 H3285 0.950 . S
C3312 C3298 1.377 . S
C3312 C3311 1.373 . S
C3313 C3297 1.377 . S
C3313 C3311 1.389 . S
C3313 C3314 1.524 1_556 S
C3314 C3313 1.524 1_554 S
C3314 C3315 1.397 . S
C3314 C3319 1.363 . S
C3315 H3286 0.950 . S
C3315 C3314 1.397 . S
C3315 C3316 1.334 . S
C3316 H3287 0.950 . S
C3316 C3315 1.334 . S
C3316 C3317 1.287 . S
C3317 C3316 1.287 . S
C3317 C3318 1.524 . S
C3317 H3320 0.999 . S
C3318 H3288 0.950 . S
C3318 C3317 1.524 . S
C3318 C3319 1.415 . S
C3319 H3289 0.950 . S
C3319 C3314 1.363 . S
C3319 C3318 1.415 . S
H3320 C3317 0.999 . S
H3321 C3302 0.913 . S
H3322 C3340 0.951 . S
H3323 C3342 0.951 . S
H3324 C3344 0.950 . S
H3325 C3345 0.950 . S
H3326 C3347 0.950 . S
H3327 C3350 0.950 . S
H3328 C3351 0.950 . S
H3329 C3353 0.950 . S
H3330 C3354 0.950 . S
H3331 C3355 0.951 . S
H3332 C3357 0.951 . S
H3333 C3359 0.950 . S
H3334 C3360 0.950 . S
H3335 C3362 0.950 . S
H3336 C3365 0.950 . S
H3337 C3366 0.950 . S
H3338 C3368 0.950 . S
H3339 C3369 0.950 . S
C3340 H3322 0.951 . S
C3340 C3341 1.366 . S
C3340 C3342 1.388 . S
C3341 C3340 1.366 . S
C3341 C3345 1.385 . S
C3342 H3323 0.951 . S
C3342 C3340 1.388 . S
C3342 C3343 1.366 . S
C3343 C3342 1.366 . S
C3343 C3344 1.414 . S
C3343 C3346 1.499 . S
C3344 H3324 0.950 . S
C3344 C3343 1.414 . S
C3344 C3345 1.374 . S
C3345 H3325 0.950 . S
C3345 C3341 1.385 . S
C3345 C3344 1.374 . S
C3346 C3343 1.499 . S
C3346 C3347 1.373 . S
C3346 C3348 1.389 . S
C3347 H3326 0.950 . S
C3347 C3346 1.373 . S
C3347 C3363 1.377 . S
C3348 C3346 1.389 . S
C3348 C3349 1.524 . S
C3348 C3362 1.377 . S
C3349 C3348 1.524 . S
C3349 C3350 1.397 . S
C3349 C3354 1.363 . S
C3350 H3327 0.950 . S
C3350 C3349 1.397 . S
C3350 C3351 1.334 . S
C3351 H3328 0.950 . S
C3351 C3350 1.334 . S
C3351 C3352 1.287 . S
C3352 C3351 1.287 . S
C3352 C3353 1.524 . S
C3352 H3371 0.913 . S
C3353 H3329 0.950 . S
C3353 C3352 1.524 . S
C3353 C3354 1.415 . S
C3354 H3330 0.950 . S
C3354 C3349 1.363 . S
C3354 C3353 1.415 . S
C3355 H3331 0.951 . S
C3355 C3356 1.366 . S
C3355 C3357 1.388 . S
C3356 C3355 1.366 . S
C3356 C3360 1.385 . S
C3357 H3332 0.951 . S
C3357 C3355 1.388 . S
C3357 C3358 1.366 . S
C3358 C3357 1.366 . S
C3358 C3359 1.414 . S
C3358 C3361 1.499 . S
C3359 H3333 0.950 . S
C3359 C3358 1.414 . S
C3359 C3360 1.374 . S
C3360 H3334 0.950 . S
C3360 C3356 1.385 . S
C3360 C3359 1.374 . S
C3361 C3358 1.499 . S
C3361 C3362 1.373 . S
C3361 C3363 1.389 . S
C3362 H3335 0.950 . S
C3362 C3348 1.377 . S
C3362 C3361 1.373 . S
C3363 C3347 1.377 . S
C3363 C3361 1.389 . S
C3363 C3364 1.524 . S
C3364 C3363 1.524 . S
C3364 C3365 1.397 . S
C3364 C3369 1.363 . S
C3365 H3336 0.950 . S
C3365 C3364 1.397 . S
C3365 C3366 1.334 . S
C3366 H3337 0.950 . S
C3366 C3365 1.334 . S
C3366 C3367 1.287 . S
C3367 C3366 1.287 . S
C3367 C3368 1.524 . S
C3367 H3370 0.999 . S
C3368 H3338 0.950 . S
C3368 C3367 1.524 . S
C3368 C3369 1.415 . S
C3369 H3339 0.950 . S
C3369 C3364 1.363 . S
C3369 C3368 1.415 . S
H3370 C3367 0.999 . S
H3371 C3352 0.913 . S
H3372 C3390 0.951 . S
H3373 C3392 0.951 . S
H3374 C3394 0.950 1_556 S
H3375 C3395 0.950 . S
H3376 C3397 0.924 1_556 S
H3377 C3400 0.950 . S
H3378 C3401 0.950 . S
H3379 C3403 0.950 . S
H3380 C3404 0.950 . S
H3381 C3405 0.951 . S
H3382 C3407 0.951 . S
H3383 C3409 0.950 . S
H3384 C3410 0.950 . S
H3385 C3412 0.950 . S
H3386 C3415 0.950 . S
H3387 C3416 0.950 . S
H3388 C3418 0.950 . S
H3389 C3419 0.950 . S
C3390 H3372 0.951 . S
C3390 C3391 1.366 . S
C3390 C3392 1.388 . S
C3391 C3390 1.366 . S
C3391 C3395 1.385 . S
C3392 H3373 0.951 . S
C3392 C3390 1.388 . S
C3392 C3393 1.366 . S
C3393 C3392 1.366 . S
C3393 C3394 1.414 . S
C3393 C3396 1.499 . S
C3394 H3374 0.950 1_554 S
C3394 C3393 1.414 . S
C3394 C3395 1.374 . S
C3395 H3375 0.950 . S
C3395 C3391 1.385 . S
C3395 C3394 1.374 . S
C3396 C3393 1.499 . S
C3396 C3397 1.405 . S
C3396 C3398 1.389 . S
C3397 H3376 0.924 1_554 S
C3397 C3396 1.405 . S
C3397 C3413 1.372 1_554 S
C3398 C3396 1.389 . S
C3398 C3399 1.524 . S
C3398 C3412 1.377 . S
C3399 C3398 1.524 . S
C3399 C3400 1.397 . S
C3399 C3404 1.363 . S
C3400 H3377 0.950 . S
C3400 C3399 1.397 . S
C3400 C3401 1.334 . S
C3401 H3378 0.950 . S
C3401 C3400 1.334 . S
C3401 C3402 1.287 . S
C3402 C3401 1.287 . S
C3402 C3403 1.524 . S
C3402 H3421 0.913 . S
C3403 H3379 0.950 . S
C3403 C3402 1.524 . S
C3403 C3404 1.415 . S
C3404 H3380 0.950 . S
C3404 C3399 1.363 . S
C3404 C3403 1.415 . S
C3405 H3381 0.951 . S
C3405 C3406 1.366 1_556 S
C3405 C3407 1.388 . S
C3406 C3405 1.366 1_554 S
C3406 C3410 1.385 . S
C3407 H3382 0.951 . S
C3407 C3405 1.388 . S
C3407 C3408 1.366 1_556 S
C3408 C3407 1.366 1_554 S
C3408 C3409 1.414 . S
C3408 C3411 1.499 . S
C3409 H3383 0.950 . S
C3409 C3408 1.414 . S
C3409 C3410 1.374 . S
C3410 H3384 0.950 . S
C3410 C3406 1.385 . S
C3410 C3409 1.374 . S
C3411 C3408 1.499 . S
C3411 C3412 1.373 . S
C3411 C3413 1.389 1_554 S
C3412 H3385 0.950 . S
C3412 C3398 1.377 . S
C3412 C3411 1.373 . S
C3413 C3397 1.372 1_556 S
C3413 C3411 1.389 1_556 S
C3413 C3414 1.524 . S
C3414 C3413 1.524 . S
C3414 C3415 1.397 . S
C3414 C3419 1.363 . S
C3415 H3386 0.950 . S
C3415 C3414 1.397 . S
C3415 C3416 1.334 . S
C3416 H3387 0.950 . S
C3416 C3415 1.334 . S
C3416 C3417 1.287 . S
C3417 C3416 1.287 . S
C3417 C3418 1.524 . S
C3417 H3420 0.999 . S
C3418 H3388 0.950 . S
C3418 C3417 1.524 . S
C3418 C3419 1.415 . S
C3419 H3389 0.950 . S
C3419 C3414 1.363 . S
C3419 C3418 1.415 . S
H3420 C3417 0.999 . S
H3421 C3402 0.913 . S
H3422 C3440 0.951 . S
H3423 C3442 0.951 . S
H3424 C3444 0.950 . S
H3425 C3445 0.950 . S
H3426 C3447 0.950 . S
H3427 C3450 0.950 . S
H3428 C3451 0.950 . S
H3429 C3453 0.950 . S
H3430 C3454 0.950 . S
H3431 C3455 0.951 . S
H3432 C3457 0.951 . S
H3433 C3459 0.950 . S
H3434 C3460 0.950 . S
H3435 C3462 0.950 1_556 S
H3436 C3465 0.950 . S
H3437 C3466 0.950 . S
H3438 C3468 0.950 . S
H3439 C3469 0.950 . S
C3440 H3422 0.951 . S
C3440 C3441 1.366 . S
C3440 C3442 1.388 . S
C3441 C3440 1.366 . S
C3441 C3445 1.385 . S
C3442 H3423 0.951 . S
C3442 C3440 1.388 . S
C3442 C3443 1.366 . S
C3443 C3442 1.366 . S
C3443 C3444 1.414 . S
C3443 C3446 1.499 . S
C3444 H3424 0.950 . S
C3444 C3443 1.414 . S
C3444 C3445 1.374 . S
C3445 H3425 0.950 . S
C3445 C3441 1.385 . S
C3445 C3444 1.374 . S
C3446 C3443 1.499 . S
C3446 C3447 1.373 . S
C3446 C3448 1.389 . S
C3447 H3426 0.950 . S
C3447 C3446 1.373 . S
C3447 C3463 1.377 . S
C3448 C3446 1.389 . S
C3448 C3449 1.524 1_554 S
C3448 C3462 1.377 . S
C3449 C3448 1.524 1_556 S
C3449 C3450 1.397 . S
C3449 C3454 1.363 . S
C3450 H3427 0.950 . S
C3450 C3449 1.397 . S
C3450 C3451 1.334 . S
C3451 H3428 0.950 . S
C3451 C3450 1.334 . S
C3451 C3452 1.287 . S
C3452 C3451 1.287 . S
C3452 C3453 1.524 . S
C3452 H3471 0.913 . S
C3453 H3429 0.950 . S
C3453 C3452 1.524 . S
C3453 C3454 1.415 . S
C3454 H3430 0.950 . S
C3454 C3449 1.363 . S
C3454 C3453 1.415 . S
C3455 H3431 0.951 . S
C3455 C3456 1.366 . S
C3455 C3457 1.388 . S
C3456 C3455 1.366 . S
C3456 C3460 1.385 . S
C3457 H3432 0.951 . S
C3457 C3455 1.388 . S
C3457 C3458 1.366 . S
C3458 C3457 1.366 . S
C3458 C3459 1.414 . S
C3458 C3461 1.499 . S
C3459 H3433 0.950 . S
C3459 C3458 1.414 . S
C3459 C3460 1.374 . S
C3460 H3434 0.950 . S
C3460 C3456 1.385 . S
C3460 C3459 1.374 . S
C3461 C3458 1.499 . S
C3461 C3462 1.373 . S
C3461 C3463 1.389 . S
C3462 H3435 0.950 1_554 S
C3462 C3448 1.377 . S
C3462 C3461 1.373 . S
C3463 C3447 1.377 . S
C3463 C3461 1.389 . S
C3463 C3464 1.524 . S
C3464 C3463 1.524 . S
C3464 C3465 1.397 . S
C3464 C3469 1.363 . S
C3465 H3436 0.950 . S
C3465 C3464 1.397 . S
C3465 C3466 1.334 . S
C3466 H3437 0.950 . S
C3466 C3465 1.334 . S
C3466 C3467 1.287 . S
C3467 C3466 1.287 . S
C3467 C3468 1.524 . S
C3467 H3470 0.999 . S
C3468 H3438 0.950 . S
C3468 C3467 1.524 . S
C3468 C3469 1.415 . S
C3469 H3439 0.950 . S
C3469 C3464 1.363 . S
C3469 C3468 1.415 . S
H3470 C3467 0.999 . S
H3471 C3452 0.913 . S
C1106 C642 1.420 . S
C1091 C202 1.431 . S
C1156 C690 1.690 . S
C1141 C261 1.735 . S
C1191 C282 1.377 . S
C1206 C726 1.356 . S
C1256 C762 1.617 . S
C1241 C162 1.660 . S
C1306 C788 1.443 . S
C1291 C402 1.448 . S
C1356 C824 1.622 . S
C1341 C482 1.622 . S
C1391 C442 1.453 . S
C1406 C859 1.492 . S
C1456 C896 1.650 1_565 S
C1441 C381 1.651 . S
C1491 C461 1.431 . S
C1506 C930 1.455 . S
C1556 C978 1.557 . S
C1541 C362 1.598 . S
C1591 C415 1.389 . S
C1606 C931 1.398 . S
C1656 C968 1.669 . S
C1641 C495 1.671 . S
C1691 C301 1.454 . S
C1706 C1014 1.420 . S
C1741 C175 1.684 . S
C1756 C1003 1.679 . S
C1791 C215 1.447 . S
C1806 C1004 1.443 . S
C1841 C242 1.657 . S
C1856 C1002 1.662 . S
C1891 C141 1.502 . S
C1906 C750 1.480 . S
C1941 C581 1.474 . S
C1956 C751 1.474 . S
C2006 C654 1.587 . S
C1991 C615 1.642 . S
C2056 C679 1.429 . S
C2041 C335 1.423 . S
C2091 C181 1.725 . S
C2106 C786 1.725 . S
C2156 C894 1.436 . S
C2141 C455 1.438 . S
C2206 C787 1.572 . S
C2191 C375 1.578 . S
C2256 C860 1.713 . S
C2241 C501 1.715 . S
C2306 C858 1.420 . S
C2291 C562 1.432 . S
C2341 C621 1.735 . S
C2356 C906 1.690 . S
C2391 C322 1.376 . S
C2406 C798 1.350 . S
C2456 C834 1.617 . S
C2441 C522 1.660 . S
C2491 C122 1.448 . S
C2506 C716 1.438 . S
C2556 C752 1.622 . S
C2541 C2 1.622 . S
C2606 C643 1.492 . S
C2591 C42 1.453 . S
C2656 C680 1.653 . S
C2641 C101 1.650 . S
C2691 C61 1.431 . S
C2706 C966 1.454 . S
C2741 C82 1.598 . S
C2756 C942 1.557 . S
C2791 C135 1.389 . S
C2806 C967 1.398 . S
C2841 C15 1.671 . S
C2856 C932 1.669 . S
C2906 C1050 1.420 . S
C2891 C341 1.454 . S
C2956 C1039 1.679 . S
C2941 C535 1.684 . S
C3006 C1040 1.443 . S
C2991 C575 1.447 . S
C3041 C602 1.658 . S
C3056 C1038 1.662 . S
C3091 C421 1.502 . S
C3106 C822 1.480 . S
C3156 C823 1.474 . S
C3141 C221 1.474 . S
C3206 C870 1.587 . S
C3191 C255 1.642 . S
C3256 C895 1.429 . S
C3241 C295 1.429 . S
C3291 C541 1.725 . S
C3306 C714 1.735 . S
C3356 C678 1.436 . S
C3341 C55 1.444 . S
C3391 C95 1.577 . S
C3406 C715 1.571 . S
C3456 C644 1.713 . S
C3441 C21 1.715 . S
