# Generated by pormake.
# Topology soc, (4,6)-cn, num edge types: 1
# Building blocks:
#     Node 0, Type 0, BuildingBlock: ESEHIV_clean_sbu_0, # of connection points: 4
#     Node 1, Type 0, BuildingBlock: ESEHIV_clean_sbu_0, # of connection points: 4
#     Node 2, Type 0, BuildingBlock: ESEHIV_clean_sbu_0, # of connection points: 4
#     Node 3, Type 0, BuildingBlock: ESEHIV_clean_sbu_0, # of connection points: 4
#     Node 4, Type 0, BuildingBlock: ESEHIV_clean_sbu_0, # of connection points: 4
#     Node 5, Type 0, BuildingBlock: ESEHIV_clean_sbu_0, # of connection points: 4
#     Node 6, Type 0, BuildingBlock: ESEHIV_clean_sbu_0, # of connection points: 4
#     Node 7, Type 0, BuildingBlock: ESEHIV_clean_sbu_0, # of connection points: 4
#     Node 8, Type 0, BuildingBlock: ESEHIV_clean_sbu_0, # of connection points: 4
#     Node 9, Type 0, BuildingBlock: ESEHIV_clean_sbu_0, # of connection points: 4
#     Node 10, Type 0, BuildingBlock: ESEHIV_clean_sbu_0, # of connection points: 4
#     Node 11, Type 0, BuildingBlock: ESEHIV_clean_sbu_0, # of connection points: 4
#     Node 12, Type 1, BuildingBlock: BETDIP_clean_sbu_0, # of connection points: 6
#     Node 13, Type 1, BuildingBlock: BETDIP_clean_sbu_0, # of connection points: 6
#     Node 14, Type 1, BuildingBlock: BETDIP_clean_sbu_0, # of connection points: 6
#     Node 15, Type 1, BuildingBlock: BETDIP_clean_sbu_0, # of connection points: 6
#     Node 16, Type 1, BuildingBlock: BETDIP_clean_sbu_0, # of connection points: 6
#     Node 17, Type 1, BuildingBlock: BETDIP_clean_sbu_0, # of connection points: 6
#     Node 18, Type 1, BuildingBlock: BETDIP_clean_sbu_0, # of connection points: 6
#     Node 19, Type 1, BuildingBlock: BETDIP_clean_sbu_0, # of connection points: 6
#     Edge 20, Type (0, 1), BuildingBlock: CIFDUS_clean_linker_0, # of connection points: 2
#     Edge 21, Type (0, 1), BuildingBlock: CIFDUS_clean_linker_0, # of connection points: 2
#     Edge 22, Type (0, 1), BuildingBlock: CIFDUS_clean_linker_0, # of connection points: 2
#     Edge 23, Type (0, 1), BuildingBlock: CIFDUS_clean_linker_0, # of connection points: 2
#     Edge 24, Type (0, 1), BuildingBlock: CIFDUS_clean_linker_0, # of connection points: 2
#     Edge 25, Type (0, 1), BuildingBlock: CIFDUS_clean_linker_0, # of connection points: 2
#     Edge 26, Type (0, 1), BuildingBlock: CIFDUS_clean_linker_0, # of connection points: 2
#     Edge 27, Type (0, 1), BuildingBlock: CIFDUS_clean_linker_0, # of connection points: 2
#     Edge 28, Type (0, 1), BuildingBlock: CIFDUS_clean_linker_0, # of connection points: 2
#     Edge 29, Type (0, 1), BuildingBlock: CIFDUS_clean_linker_0, # of connection points: 2
#     Edge 30, Type (0, 1), BuildingBlock: CIFDUS_clean_linker_0, # of connection points: 2
#     Edge 31, Type (0, 1), BuildingBlock: CIFDUS_clean_linker_0, # of connection points: 2
#     Edge 32, Type (0, 1), BuildingBlock: CIFDUS_clean_linker_0, # of connection points: 2
#     Edge 33, Type (0, 1), BuildingBlock: CIFDUS_clean_linker_0, # of connection points: 2
#     Edge 34, Type (0, 1), BuildingBlock: CIFDUS_clean_linker_0, # of connection points: 2
#     Edge 35, Type (0, 1), BuildingBlock: CIFDUS_clean_linker_0, # of connection points: 2
#     Edge 36, Type (0, 1), BuildingBlock: CIFDUS_clean_linker_0, # of connection points: 2
#     Edge 37, Type (0, 1), BuildingBlock: CIFDUS_clean_linker_0, # of connection points: 2
#     Edge 38, Type (0, 1), BuildingBlock: CIFDUS_clean_linker_0, # of connection points: 2
#     Edge 39, Type (0, 1), BuildingBlock: CIFDUS_clean_linker_0, # of connection points: 2
#     Edge 40, Type (0, 1), BuildingBlock: CIFDUS_clean_linker_0, # of connection points: 2
#     Edge 41, Type (0, 1), BuildingBlock: CIFDUS_clean_linker_0, # of connection points: 2
#     Edge 42, Type (0, 1), BuildingBlock: CIFDUS_clean_linker_0, # of connection points: 2
#     Edge 43, Type (0, 1), BuildingBlock: CIFDUS_clean_linker_0, # of connection points: 2
#     Edge 44, Type (0, 1), BuildingBlock: CIFDUS_clean_linker_0, # of connection points: 2
#     Edge 45, Type (0, 1), BuildingBlock: CIFDUS_clean_linker_0, # of connection points: 2
#     Edge 46, Type (0, 1), BuildingBlock: CIFDUS_clean_linker_0, # of connection points: 2
#     Edge 47, Type (0, 1), BuildingBlock: CIFDUS_clean_linker_0, # of connection points: 2
#     Edge 48, Type (0, 1), BuildingBlock: CIFDUS_clean_linker_0, # of connection points: 2
#     Edge 49, Type (0, 1), BuildingBlock: CIFDUS_clean_linker_0, # of connection points: 2
#     Edge 50, Type (0, 1), BuildingBlock: CIFDUS_clean_linker_0, # of connection points: 2
#     Edge 51, Type (0, 1), BuildingBlock: CIFDUS_clean_linker_0, # of connection points: 2
#     Edge 52, Type (0, 1), BuildingBlock: CIFDUS_clean_linker_0, # of connection points: 2
#     Edge 53, Type (0, 1), BuildingBlock: CIFDUS_clean_linker_0, # of connection points: 2
#     Edge 54, Type (0, 1), BuildingBlock: CIFDUS_clean_linker_0, # of connection points: 2
#     Edge 55, Type (0, 1), BuildingBlock: CIFDUS_clean_linker_0, # of connection points: 2
#     Edge 56, Type (0, 1), BuildingBlock: CIFDUS_clean_linker_0, # of connection points: 2
#     Edge 57, Type (0, 1), BuildingBlock: CIFDUS_clean_linker_0, # of connection points: 2
#     Edge 58, Type (0, 1), BuildingBlock: CIFDUS_clean_linker_0, # of connection points: 2
#     Edge 59, Type (0, 1), BuildingBlock: CIFDUS_clean_linker_0, # of connection points: 2
#     Edge 60, Type (0, 1), BuildingBlock: CIFDUS_clean_linker_0, # of connection points: 2
#     Edge 61, Type (0, 1), BuildingBlock: CIFDUS_clean_linker_0, # of connection points: 2
#     Edge 62, Type (0, 1), BuildingBlock: CIFDUS_clean_linker_0, # of connection points: 2
#     Edge 63, Type (0, 1), BuildingBlock: CIFDUS_clean_linker_0, # of connection points: 2
#     Edge 64, Type (0, 1), BuildingBlock: CIFDUS_clean_linker_0, # of connection points: 2
#     Edge 65, Type (0, 1), BuildingBlock: CIFDUS_clean_linker_0, # of connection points: 2
#     Edge 66, Type (0, 1), BuildingBlock: CIFDUS_clean_linker_0, # of connection points: 2
#     Edge 67, Type (0, 1), BuildingBlock: CIFDUS_clean_linker_0, # of connection points: 2
# Relax obj value: 0.241
# Max RMSD: 0.337
# Mean RMSD: 0.208
data_MOF--net-soc--node1-ESEHIV_clean_sbu_0--node2-BETDIP_clean_sbu_0--edge1-CIFDUS_clean_linker_0
_symmetry_space_group_name_H-M    P1
_symmetry_Int_Tables_number       1
_symmetry_cell_setting            triclinic
loop_
_symmetry_equiv_pos_as_xyz
'x, y, z'
_cell_length_a     40.132712
_cell_length_b     50.222291
_cell_length_c     37.360953
_cell_angle_alpha  92.087965
_cell_angle_beta   92.291138
_cell_angle_gamma 67.405579
loop_
_atom_site_label
_atom_site_type_symbol
_atom_site_fract_x
_atom_site_fract_y
_atom_site_fract_z
_atom_type_partial_charge
Cu0 Cu 0.05794 0.07177 0.34819 0.0
N1 N 0.07347 0.0952 0.37862 0.0
N2 N 0.09391 0.12985 0.39341 0.0
C3 C 0.07504 0.12029 0.36912 0.0
C4 C 0.10448 0.11003 0.41936 0.0
C5 C 0.09179 0.08865 0.41015 0.0
O6 O 0.10246 0.04249 0.32993 0.0
C7 C 0.9892 0.10307 0.31441 0.0
O8 O 0.97889 0.08427 0.32916 0.0
H9 H 0.06483 0.13022 0.34359 0.0
H10 H 0.0973 0.06894 0.42433 0.0
N11 N 1.03619 0.05173 0.37367 0.0
N12 N 1.01543 0.01756 0.38509 0.0
C13 C 1.03364 0.02685 0.36227 0.0
C14 C 1.01913 0.05851 0.405 0.0
C15 C 1.00613 0.03747 0.41207 0.0
C16 C 0.10733 0.02295 0.30569 0.0
O17 O 0.08039 0.02385 0.28396 0.0
H18 H 0.04389 0.01629 0.33703 0.0
H19 H 1.01596 0.07756 0.42124 0.0
O20 O 1.02275 0.09876 0.31521 0.0
H21 H 0.12126 0.11042 0.44263 0.0
H22 H 0.99108 0.03687 0.43522 0.0
Cu23 Cu 0.04624 0.08496 0.7646 0.0
N24 N 1.01792 0.06937 0.73753 0.0
N25 N 0.9914 0.03823 0.72423 0.0
C26 C 1.00802 0.04876 0.74982 0.0
C27 C 0.99056 0.05322 0.69461 0.0
C28 C 1.00705 0.07238 0.7029 0.0
O29 O 1.01605 0.12068 0.78983 0.0
C30 C 0.11179 0.0409 0.79106 0.0
O31 O 0.1286 0.0559 0.77755 0.0
H32 H 1.01369 0.04138 0.77706 0.0
H33 H 1.01191 0.08669 0.68471 0.0
N34 N 0.07476 0.09627 0.73551 0.0
N35 N 0.10918 0.11992 0.72097 0.0
C36 C 0.08696 0.11697 0.74526 0.0
C37 C 0.08943 0.08573 0.7037 0.0
C38 C 0.11065 0.10044 0.69454 0.0
C39 C 0.98168 0.13214 0.78638 0.0
O40 O 0.96438 0.11703 0.77113 0.0
H41 H 0.07981 0.12943 0.77002 0.0
H42 H 0.0857 0.06819 0.68875 0.0
O43 O 0.07745 0.05221 0.79325 0.0
H44 H 0.98015 0.04988 0.6684 0.0
H45 H 0.1267 0.0965 0.67086 0.0
Cu46 Cu 0.27917 0.14158 0.03057 0.0
N47 N 0.23998 0.13627 1.00736 0.0
N48 N 0.20912 0.11164 0.98166 0.0
C49 C 0.23925 0.11013 1.00009 0.0
C50 C 0.19012 0.13999 0.97644 0.0
C51 C 0.20921 0.15525 0.99266 0.0
O52 O 0.307 0.1051 0.05358 0.0
C53 C 0.30536 0.1463 0.96273 0.0
O54 O 0.29063 0.12794 0.95236 0.0
H55 H 0.26138 0.09016 1.00666 0.0
H56 H 0.20168 0.17838 0.99292 0.0
N57 N 0.26328 0.17029 0.06606 0.0
N58 N 0.26488 0.20026 0.11096 0.0
C59 C 0.2833 0.18287 0.08407 0.0
C60 C 0.23104 0.18033 0.08178 0.0
C61 C 0.23202 0.19874 0.10969 0.0
C62 C 0.28896 0.09675 0.07471 0.0
O63 O 0.2555 0.11392 0.08115 0.0
H64 H 0.31127 0.17837 0.07863 0.0
H65 H 0.20886 0.1739 0.07426 0.0
O66 O 0.30551 0.15334 0.99582 0.0
H67 H 0.1647 0.14895 0.96158 0.0
H68 H 0.2105 0.20986 0.12796 0.0
Cu69 Cu 0.05831 0.32616 0.04753 0.0
N70 N 0.09623 0.30618 1.0166 0.0
N71 N 0.14384 0.29668 0.98192 0.0
C72 C 0.11973 0.3164 1.00332 0.0
C73 C 0.13527 0.27323 0.98159 0.0
C74 C 0.10563 0.27927 1.00259 0.0
O75 O 0.07753 0.34802 0.08334 0.0
C76 C 1.0098 0.3417 0.98412 0.0
O77 O 1.03952 0.33088 0.96587 0.0
H78 H 0.1195 0.33768 1.00964 0.0
H79 H 0.09166 0.26512 1.00685 0.0
N80 N 0.04632 0.3012 0.07543 0.0
N81 N 1.01541 0.2886 0.11538 0.0
C82 C 1.01804 0.31039 0.09728 0.0
C83 C 0.06238 0.27254 0.08 0.0
C84 C 0.04318 0.26467 0.1045 0.0
C85 C 0.09902 0.33345 0.10855 0.0
O86 O 0.10679 0.30559 0.10923 0.0
H87 H 0.99953 0.33269 0.09953 0.0
H88 H 0.08677 0.25841 0.0673 0.0
O89 O 1.01241 0.34492 1.01831 0.0
H90 H 0.14926 0.25329 0.96689 0.0
H91 H 0.04954 0.24313 0.11405 0.0
Cu92 Cu 0.78742 0.02594 1.01992 0.0
N93 N 0.82662 0.03069 1.00029 0.0
N94 N 0.85888 0.05436 0.98012 0.0
C95 C 0.82926 0.05639 0.99762 0.0
C96 C 0.87568 0.02611 0.97137 0.0
C97 C 0.85577 0.01146 0.98413 0.0
O98 O 0.75513 0.06464 0.03415 0.0
C99 C 0.76853 0.00691 0.95228 0.0
O100 O 0.78032 0.02559 0.93945 0.0
H101 H 0.80871 0.07645 1.00671 0.0
H102 H 0.86143 0.98866 0.98083 0.0
N103 N 0.80318 1.0045 0.06107 0.0
N104 N 0.80336 0.97806 0.10783 0.0
C105 C 0.78763 0.98832 0.07589 0.0
C106 C 0.82985 1.00437 0.08409 0.0
C107 C 0.83011 0.98799 0.11298 0.0
C108 C 0.73816 0.07065 0.06334 0.0
O109 O 0.73439 0.04982 0.08084 0.0
H110 H 0.76425 0.98526 0.06411 0.0
H111 H 0.84728 0.01592 0.08044 0.0
O112 O 0.7672 0.00527 0.9861 0.0
H113 H 0.90006 0.01681 0.95617 0.0
H114 H 0.84857 0.98378 0.13593 0.0
Cu115 Cu 0.0553 0.804 1.01783 0.0
N116 N 0.04057 0.77877 0.98933 0.0
N117 N 1.0079 0.76494 0.94811 0.0
C118 C 1.01583 0.78707 0.96223 0.0
C119 C 1.02871 0.74178 0.96729 0.0
C120 C 0.04859 0.7504 0.99275 0.0
O121 O 1.01542 0.82156 0.05284 0.0
C122 C 0.09531 0.81029 0.96184 0.0
O123 O 0.10307 0.78239 0.96208 0.0
H124 H 1.00275 0.80928 0.95424 0.0
H125 H 0.06655 0.73709 1.01309 0.0
N126 N 0.09762 0.78555 0.04482 0.0
N127 N 0.14577 0.7839 0.07837 0.0
C128 C 0.11182 0.80019 0.06729 0.0
C129 C 0.12347 0.75894 0.0414 0.0
C130 C 0.1531 0.75778 0.06236 0.0
C131 C 1.01369 0.80554 0.07836 0.0
O132 O 1.03942 0.77978 0.08118 0.0
H133 H 0.09783 0.8228 0.07414 0.0
H134 H 0.122 0.7422 1.02318 0.0
O135 O 0.07184 0.82639 0.98409 0.0
H136 H 1.02915 0.72018 0.96381 0.0
H137 H 0.17873 0.73963 0.06396 0.0
Cu138 Cu 0.54631 0.58661 0.83866 0.0
N139 N 0.56033 0.61162 0.86806 0.0
N140 N 0.58409 0.64433 0.88308 0.0
C141 C 0.58366 0.62357 0.85919 0.0
C142 C 0.56001 0.64542 0.9079 0.0
C143 C 0.54516 0.62548 0.89837 0.0
O144 O 0.59023 0.55892 0.81745 0.0
C145 C 0.4776 0.6251 0.81482 0.0
O146 O 0.46677 0.61587 0.84281 0.0
H147 H 0.59899 0.61781 0.83495 0.0
H148 H 0.52334 0.62252 0.91149 0.0
N149 N 0.527 0.56541 0.86581 0.0
N150 N 0.50207 0.53459 0.88112 0.0
C151 C 0.509 0.54874 0.85406 0.0
C152 C 0.53187 0.56134 0.90134 0.0
C153 C 0.51633 0.54262 0.91088 0.0
C154 C 0.59089 0.53703 0.79876 0.0
O155 O 0.56015 0.53536 0.78814 0.0
H156 H 0.50142 0.54681 0.82626 0.0
H157 H 0.54694 0.57044 0.91898 0.0
O158 O 0.51047 0.61267 0.80577 0.0
H159 H 0.55211 0.66069 0.93021 0.0
H160 H 0.51684 0.53457 0.93747 0.0
Cu161 Cu 0.56622 0.56711 0.25749 0.0
N162 N 0.54617 0.54615 0.22791 0.0
N163 N 0.51664 0.5175 0.21304 0.0
C164 C 0.52129 0.53617 0.23772 0.0
C165 C 0.53953 0.51568 0.18671 0.0
C166 C 0.55801 0.5331 0.19617 0.0
O167 O 0.52737 0.59927 0.28079 0.0
C168 C 0.63168 0.52216 0.27693 0.0
O169 O 0.64332 0.53094 0.24911 0.0
H170 H 0.50797 0.54167 0.26313 0.0
H171 H 0.58013 0.53464 0.18198 0.0
N172 N 0.58955 0.58484 0.23018 0.0
N173 N 0.61764 0.61392 0.21682 0.0
C174 C 0.61049 0.59882 0.24268 0.0
C175 C 0.58292 0.59148 0.19539 0.0
C176 C 0.60031 0.60916 0.18703 0.0
C177 C 0.50223 0.61449 0.25932 0.0
O178 O 0.5031 0.6057 0.22569 0.0
H179 H 0.619 0.59873 0.27052 0.0
H180 H 0.56467 0.58559 0.17785 0.0
O181 O 0.60008 0.53715 0.28804 0.0
H182 H 0.5442 0.50142 0.16339 0.0
H183 H 0.59827 0.61914 0.16143 0.0
Cu184 Cu 0.78595 0.64045 0.53066 0.0
N185 N 0.76862 0.66799 0.49511 0.0
N186 N 0.76667 0.6925 0.44589 0.0
C187 C 0.78766 0.6719 0.46834 0.0
C188 C 0.7332 0.702 0.4592 0.0
C189 C 0.73451 0.68685 0.48961 0.0
O190 O 0.8052 0.65653 0.5708 0.0
C191 C 0.80855 0.59585 0.48053 0.0
O192 O 0.77822 0.6131 0.46529 0.0
H193 H 0.81607 0.65922 0.46477 0.0
H194 H 0.71209 0.68912 0.50625 0.0
N195 N 0.7485 0.6317 0.54798 0.0
N196 N 0.72153 0.60377 0.56777 0.0
C197 C 0.74848 0.60495 0.54833 0.0
C198 C 0.72044 0.6482 0.56787 0.0
C199 C 0.70376 0.63095 0.58026 0.0
C200 C 0.82571 0.67024 0.56725 0.0
O201 O 0.83828 0.67095 0.53553 0.0
H202 H 0.76963 0.5862 0.53704 0.0
H203 H 0.71392 0.67074 0.57461 0.0
O204 O 0.81936 0.60428 0.50975 0.0
H205 H 0.70948 0.71872 0.4478 0.0
H206 H 0.68144 0.63758 0.59832 0.0
Cu207 Cu 0.56055 0.83371 0.5262 0.0
N208 N 0.60041 0.81277 0.49625 0.0
N209 N 0.64443 0.80761 0.45711 0.0
C210 C 0.62267 0.82444 0.48296 0.0
C211 C 0.63559 0.78423 0.45419 0.0
C212 C 0.60864 0.78743 0.47817 0.0
O213 O 0.57826 0.85728 0.55813 0.0
C214 C 0.50864 0.83617 0.4779 0.0
O215 O 0.52433 0.80873 0.48552 0.0
H216 H 0.62159 0.84569 0.49089 0.0
H217 H 0.59508 0.77276 0.48108 0.0
N218 N 0.54059 0.81415 0.55721 0.0
N219 N 0.50108 0.80959 0.59582 0.0
C220 C 0.50714 0.82632 0.57121 0.0
C221 C 0.55589 0.78848 0.57329 0.0
C222 C 0.53184 0.78577 0.5972 0.0
C223 C 0.60151 0.84199 0.58107 0.0
O224 O 0.61061 0.81394 0.5798 0.0
H225 H 0.48797 0.84759 0.56433 0.0
H226 H 0.58303 0.77311 0.56879 0.0
O227 O 0.52077 0.85391 0.49307 0.0
H228 H 0.64746 0.76617 0.43577 0.0
H229 H 0.53662 0.76764 0.6143 0.0
Cu230 Cu 0.29153 0.51647 0.55091 0.0
N231 N 0.3238 0.52975 0.53088 0.0
N232 N 0.34188 0.55712 0.49701 0.0
C233 C 0.31568 0.5473 0.50278 0.0
C234 C 0.3676 0.5452 0.52255 0.0
C235 C 0.35635 0.52825 0.54344 0.0
O236 O 0.26065 0.54808 0.58038 0.0
C237 C 0.24375 0.494 0.51525 0.0
O238 O 0.23552 0.48972 0.54766 0.0
H239 H 0.28994 0.55419 0.48834 0.0
H240 H 0.37012 0.51677 0.56706 0.0
N241 N 0.31624 0.48395 0.57802 0.0
N242 N 0.33139 0.45179 0.62156 0.0
C243 C 0.30606 0.47631 0.60867 0.0
C244 C 0.34876 0.46344 0.57101 0.0
C245 C 0.35824 0.44362 0.59787 0.0
C246 C 0.27487 0.55459 0.60865 0.0
O247 O 0.30792 0.53769 0.61822 0.0
H248 H 0.28107 0.4889 0.6217 0.0
H249 H 0.36455 0.46311 0.54809 0.0
O250 O 0.26578 0.50625 0.51156 0.0
H251 H 0.39221 0.54911 0.52652 0.0
H252 H 0.38293 0.42458 0.59971 0.0
Cu253 Cu 0.54682 0.3174 0.5489 0.0
N254 N 0.58482 0.29473 0.51979 0.0
N255 N 0.63258 0.28446 0.48504 0.0
C256 C 0.60725 0.30492 0.50457 0.0
C257 C 0.62571 0.26034 0.48811 0.0
C258 C 0.59633 0.26671 0.50972 0.0
O259 O 0.56967 0.33821 0.58244 0.0
C260 C 0.49672 0.32482 0.48872 0.0
O261 O 0.52126 0.29973 0.47937 0.0
H262 H 0.60457 0.32717 0.50743 0.0
H263 H 0.58409 0.25202 0.51724 0.0
N264 N 0.53113 0.29584 0.57906 0.0
N265 N 0.49632 0.28897 0.6202 0.0
C266 C 0.50043 0.30759 0.5973 0.0
C267 C 0.54717 0.26864 0.59072 0.0
C268 C 0.52572 0.26436 0.6162 0.0
C269 C 0.59611 0.32125 0.60178 0.0
O270 O 0.60488 0.29337 0.59714 0.0
H271 H 0.48207 0.32985 0.59464 0.0
H272 H 0.57305 0.25328 0.5822 0.0
O273 O 0.50303 0.33782 0.51707 0.0
H274 H 0.64097 0.23952 0.47592 0.0
H275 H 0.53135 0.24473 0.63062 0.0
Tb276 Tb 0.26029 0.33428 0.34044 0.0
Tb277 Tb 0.29914 0.35447 0.28448 0.0
C278 C 0.22529 0.31247 0.37549 0.0
C279 C 0.21087 0.2894 0.3725 0.0
C280 C 0.17558 0.29531 0.3833 0.0
C281 C 0.16281 0.2731 0.38522 0.0
C282 C 0.18522 0.24444 0.37664 0.0
C283 C 0.22009 0.23875 0.36447 0.0
C284 C 0.23277 0.26098 0.36237 0.0
C285 C 0.3212 0.33988 0.36397 0.0
C286 C 0.2969 0.29313 0.27334 0.0
C287 C 0.34537 0.36747 0.25398 0.0
C288 C 0.36505 0.387 0.2579 0.0
C289 C 0.3954 0.38117 0.28105 0.0
C290 C 0.41528 0.39883 0.28141 0.0
C291 C 0.40525 0.42245 0.2585 0.0
C292 C 0.37431 0.42862 0.23623 0.0
C293 C 0.35463 0.41103 0.23577 0.0
C294 C 0.2342 0.35883 0.25752 0.0
C295 C 0.25045 0.39827 0.34282 0.0
O296 O 0.20983 0.33514 0.35546 0.0
O297 O 0.26052 0.30417 0.3776 0.0
O298 O 0.3153 0.33042 0.33331 0.0
O299 O 0.29293 0.34508 0.38276 0.0
O300 O 0.27635 0.29845 0.30169 0.0
O301 O 0.31178 0.31093 0.26318 0.0
O302 O 0.3539 0.34567 0.27558 0.0
O303 O 0.31053 0.38 0.24802 0.0
O304 O 0.24823 0.35085 0.28825 0.0
O305 O 0.25727 0.36588 0.24115 0.0
O306 O 0.279 0.39103 0.32233 0.0
O307 O 0.23397 0.38049 0.34795 0.0
H308 H 0.15827 0.31702 0.39145 0.0
H309 H 0.13592 0.27819 0.39491 0.0
H310 H 0.23782 0.21697 0.35713 0.0
H311 H 0.2601 0.25574 0.35386 0.0
H312 H 0.40426 0.36267 0.29825 0.0
H313 H 0.43914 0.39344 0.29873 0.0
H314 H 0.36546 0.44694 0.21874 0.0
H315 H 0.33153 0.41597 0.21745 0.0
Tb316 Tb 0.82718 0.325 0.32894 0.0
Tb317 Tb 0.79645 0.29986 0.27055 0.0
C318 C 0.8316 0.35759 0.38034 0.0
C319 C 0.83732 0.38463 0.38659 0.0
C320 C 0.84016 0.40095 0.35806 0.0
C321 C 0.8416 0.42815 0.36468 0.0
C322 C 0.84 0.43954 0.39994 0.0
C323 C 0.8384 0.4225 0.42841 0.0
C324 C 0.83708 0.39535 0.42175 0.0
C325 C 0.86823 0.27107 0.314 0.0
C326 C 0.7722 0.29413 0.34534 0.0
C327 C 0.78454 0.27441 0.21486 0.0
C328 C 0.77872 0.2488 0.19976 0.0
C329 C 0.74469 0.24681 0.20003 0.0
C330 C 0.73813 0.22505 0.18001 0.0
C331 C 0.76532 0.20514 0.15902 0.0
C332 C 0.79969 0.2065 0.16001 0.0
C333 C 0.80626 0.22808 0.18004 0.0
C334 C 0.76065 0.35595 0.28497 0.0
C335 C 0.85937 0.3215 0.25483 0.0
O336 O 0.859 0.3351 0.36909 0.0
O337 O 0.80141 0.36008 0.36346 0.0
O338 O 0.83397 0.2811 0.31404 0.0
O339 O 0.87979 0.29041 0.32658 0.0
O340 O 0.78629 0.3133 0.35547 0.0
O341 O 0.77852 0.28143 0.31343 0.0
O342 O 0.75911 0.29353 0.23358 0.0
O343 O 0.81677 0.27066 0.22765 0.0
O344 O 0.79407 0.34257 0.28351 0.0
O345 O 0.74548 0.33807 0.2764 0.0
O346 O 0.84234 0.30428 0.24591 0.0
O347 O 0.85228 0.33714 0.28492 0.0
H348 H 0.84032 0.393 0.33069 0.0
H349 H 0.84326 0.44047 0.34212 0.0
H350 H 0.83648 0.43064 0.45581 0.0
H351 H 0.83463 0.3831 0.44409 0.0
H352 H 0.72272 0.26266 0.21454 0.0
H353 H 0.71135 0.22461 0.17971 0.0
H354 H 0.8214 0.19118 0.14464 0.0
H355 H 0.83262 0.22922 0.17891 0.0
Tb356 Tb 0.85123 0.81836 0.29611 0.0
Tb357 Tb 0.79926 0.80861 0.2389 0.0
C358 C 0.90617 0.82538 0.32226 0.0
C359 C 0.91504 0.84946 0.337 0.0
C360 C 0.95064 0.84434 0.34819 0.0
C361 C 0.96034 0.86723 0.35977 0.0
C362 C 0.93455 0.89573 0.36026 0.0
C363 C 0.8986 0.90065 0.34977 0.0
C364 C 0.88894 0.8777 0.33817 0.0
C365 C 0.78737 0.82709 0.32515 0.0
C366 C 0.79581 0.87087 0.2511 0.0
C367 C 0.75825 0.79108 0.2015 0.0
C368 C 0.74279 0.76876 0.20299 0.0
C369 C 0.71564 0.77088 0.22692 0.0
C370 C 0.70069 0.74982 0.22634 0.0
C371 C 0.71257 0.7263 0.20184 0.0
C372 C 0.74031 0.724 0.17862 0.0
C373 C 0.75499 0.74505 0.17903 0.0
C374 C 0.85945 0.81096 0.21452 0.0
C375 C 0.84019 0.761 0.29721 0.0
O376 O 0.89766 0.82658 0.28801 0.0
O377 O 0.88481 0.81749 0.34103 0.0
O378 O 0.79711 0.82148 0.2931 0.0
O379 O 0.81438 0.83047 0.34222 0.0
O380 O 0.82564 0.86047 0.2715 0.0
O381 O 0.77718 0.85522 0.23984 0.0
O382 O 0.74632 0.81343 0.22373 0.0
O383 O 0.79333 0.78131 0.19795 0.0
O384 O 0.8568 0.79869 0.24299 0.0
O385 O 0.82807 0.8211 0.19863 0.0
O386 O 0.81262 0.77241 0.27446 0.0
O387 O 0.86417 0.7728 0.30389 0.0
H388 H 0.97113 0.82265 0.34741 0.0
H389 H 0.98811 0.86261 0.36813 0.0
H390 H 0.87816 0.92234 0.34945 0.0
H391 H 0.86132 0.88203 0.32942 0.0
H392 H 0.70557 0.78895 0.24568 0.0
H393 H 0.67916 0.75239 0.2444 0.0
H394 H 0.75068 0.70592 0.15991 0.0
H395 H 0.77586 0.74286 0.16027 0.0
Tb396 Tb 0.30138 0.80915 0.30431 0.0
Tb397 Tb 0.33354 0.83582 0.25603 0.0
C398 C 0.27722 0.77678 0.33532 0.0
C399 C 0.29136 0.75066 0.35668 0.0
C400 C 0.32799 0.7381 0.36716 0.0
C401 C 0.34086 0.71255 0.3865 0.0
C402 C 0.31729 0.69917 0.39523 0.0
C403 C 0.28062 0.71207 0.38475 0.0
C404 C 0.26783 0.73757 0.36566 0.0
C405 C 0.26557 0.86604 0.2977 0.0
C406 C 0.35916 0.8282 0.33866 0.0
C407 C 0.35383 0.87123 0.22658 0.0
C408 C 0.34077 0.89538 0.20155 0.0
C409 C 0.30608 0.91706 0.20403 0.0
C410 C 0.296 0.94164 0.18319 0.0
C411 C 0.32027 0.945 0.15919 0.0
C412 C 0.35452 0.92269 0.1559 0.0
C413 C 0.36466 0.89819 0.17696 0.0
C414 C 0.3676 0.77918 0.25818 0.0
C415 C 0.28178 0.80999 0.22167 0.0
O416 O 0.28655 0.77341 0.30191 0.0
O417 O 0.27916 0.80013 0.35007 0.0
O418 O 0.2798 0.84794 0.2733 0.0
O419 O 0.26912 0.85217 0.32686 0.0
O420 O 0.34557 0.8082 0.33947 0.0
O421 O 0.35498 0.84347 0.30946 0.0
O422 O 0.33846 0.87576 0.25766 0.0
O423 O 0.35984 0.84535 0.21347 0.0
O424 O 0.35486 0.7957 0.28472 0.0
O425 O 0.36442 0.79447 0.23024 0.0
O426 O 0.29139 0.83227 0.21941 0.0
O427 O 0.2877 0.79557 0.25156 0.0
H428 H 0.34657 0.7479 0.36014 0.0
H429 H 0.36925 0.70301 0.39408 0.0
H430 H 0.2617 0.70256 0.39159 0.0
H431 H 0.23949 0.74701 0.35772 0.0
H432 H 0.28712 0.91547 0.22286 0.0
H433 H 0.26957 0.95846 0.18688 0.0
H434 H 0.37367 0.92425 0.1373 0.0
H435 H 0.39159 0.88173 0.17468 0.0
Tb436 Tb 0.30317 0.84226 0.80854 0.0
Tb437 Tb 0.27202 0.81915 0.74851 0.0
C438 C 0.31102 0.87595 0.85641 0.0
C439 C 0.28741 0.90298 0.87454 0.0
C440 C 0.27082 0.90266 0.90686 0.0
C441 C 0.25101 0.92856 0.92494 0.0
C442 C 0.24746 0.95523 0.91103 0.0
C443 C 0.26308 0.95543 0.8781 0.0
C444 C 0.28291 0.92969 0.86024 0.0
C445 C 0.33732 0.78633 0.79769 0.0
C446 C 0.23692 0.82407 0.82199 0.0
C447 C 0.25984 0.78909 0.69834 0.0
C448 C 0.25273 0.76257 0.6959 0.0
C449 C 0.25476 0.74664 0.72656 0.0
C450 C 0.25215 0.71968 0.72333 0.0
C451 C 0.24755 0.70826 0.68938 0.0
C452 C 0.24401 0.72499 0.65896 0.0
C453 C 0.24661 0.75191 0.66224 0.0
C454 C 0.23907 0.87537 0.76098 0.0
C455 C 0.34395 0.83101 0.73547 0.0
O456 O 0.31544 0.87803 0.82229 0.0
O457 O 0.30731 0.85188 0.86356 0.0
O458 O 0.30362 0.80008 0.79504 0.0
O459 O 0.35227 0.8033 0.81115 0.0
O460 O 0.25149 0.84331 0.83017 0.0
O461 O 0.24766 0.80725 0.79314 0.0
O462 O 0.23474 0.81171 0.71261 0.0
O463 O 0.29222 0.78583 0.71033 0.0
O464 O 0.27244 0.86078 0.76207 0.0
O465 O 0.22278 0.85886 0.74945 0.0
O466 O 0.31845 0.82263 0.72177 0.0
O467 O 0.3429 0.84064 0.76905 0.0
H468 H 0.27385 0.88244 0.91863 0.0
H469 H 0.23918 0.92769 0.9502 0.0
H470 H 0.26164 0.97544 0.8669 0.0
H471 H 0.29563 0.93082 0.83562 0.0
H472 H 0.25951 0.75463 0.7528 0.0
H473 H 0.25467 0.70745 0.74728 0.0
H474 H 0.24108 0.71669 0.63237 0.0
H475 H 0.24518 0.76393 0.63833 0.0
Tb476 Tb 0.34978 0.32121 0.84157 0.0
Tb477 Tb 0.28956 0.31282 0.79787 0.0
C478 C 0.40197 0.33356 0.86507 0.0
C479 C 0.41669 0.35593 0.86001 0.0
C480 C 0.41433 0.36897 0.82687 0.0
C481 C 0.42602 0.39177 0.82386 0.0
C482 C 0.44032 0.40192 0.854 0.0
C483 C 0.44345 0.38817 0.88685 0.0
C484 C 0.43167 0.36554 0.8898 0.0
C485 C 0.28964 0.33144 0.87563 0.0
C486 C 0.30189 0.36832 0.78533 0.0
C487 C 0.23431 0.30409 0.77616 0.0
C488 C 0.22066 0.28082 0.77529 0.0
C489 C 0.1949 0.28099 0.74882 0.0
C490 C 0.18252 0.25855 0.74603 0.0
C491 C 0.19584 0.23535 0.76962 0.0
C492 C 0.22156 0.23537 0.79642 0.0
C493 C 0.23386 0.25796 0.79923 0.0
C494 C 0.3492 0.3017 0.76303 0.0
C495 C 0.34044 0.26345 0.85078 0.0
O496 O 0.40453 0.31501 0.83865 0.0
O497 O 0.37045 0.34271 0.87988 0.0
O498 O 0.29194 0.3381 0.8438 0.0
O499 O 0.32175 0.32009 0.88991 0.0
O500 O 0.33298 0.35611 0.80314 0.0
O501 O 0.27653 0.35765 0.78563 0.0
O502 O 0.23704 0.31577 0.80749 0.0
O503 O 0.2623 0.29947 0.75655 0.0
O504 O 0.34757 0.29564 0.79531 0.0
O505 O 0.31701 0.31217 0.74876 0.0
O506 O 0.31033 0.27428 0.83091 0.0
O507 O 0.36331 0.27661 0.85532 0.0
H508 H 0.40303 0.36177 0.8035 0.0
H509 H 0.42306 0.40188 0.79817 0.0
H510 H 0.45504 0.39488 0.91043 0.0
H511 H 0.43385 0.35574 0.91561 0.0
H512 H 0.18444 0.2985 0.73012 0.0
H513 H 0.16221 0.25953 0.72558 0.0
H514 H 0.23255 0.21775 0.81487 0.0
H515 H 0.25378 0.25748 0.81986 0.0
Tb516 Tb 0.78113 0.32493 0.82849 0.0
Tb517 Tb 0.80542 0.3532 0.77146 0.0
C518 C 0.77662 0.2906 0.87368 0.0
C519 C 0.79997 0.26274 0.88949 0.0
C520 C 0.80471 0.23666 0.87112 0.0
C521 C 0.82207 0.21033 0.88785 0.0
C522 C 0.83518 0.2093 0.92346 0.0
C523 C 0.8323 0.23531 0.94115 0.0
C524 C 0.81469 0.26177 0.9244 0.0
C525 C 0.738 0.37917 0.81879 0.0
C526 C 0.84771 0.34464 0.84526 0.0
C527 C 0.81155 0.38569 0.72481 0.0
C528 C 0.78823 0.40987 0.70292 0.0
C529 C 0.75337 0.42768 0.71359 0.0
C530 C 0.73425 0.45352 0.69602 0.0
C531 C 0.74966 0.46178 0.66737 0.0
C532 C 0.78371 0.44291 0.65558 0.0
C533 C 0.8028 0.41724 0.67325 0.0
C534 C 0.84587 0.29758 0.78122 0.0
C535 C 0.74078 0.33277 0.75319 0.0
O536 O 0.76817 0.28978 0.83966 0.0
O537 O 0.78334 0.31354 0.88259 0.0
O538 O 0.77192 0.36888 0.81676 0.0
O539 O 0.72802 0.3597 0.83085 0.0
O540 O 0.83159 0.32697 0.85314 0.0
O541 O 0.83846 0.36 0.81584 0.0
O542 O 0.81162 0.39117 0.75931 0.0
O543 O 0.81102 0.36019 0.71717 0.0
O544 O 0.81227 0.30987 0.78243 0.0
O545 O 0.85825 0.31613 0.77048 0.0
O546 O 0.75468 0.35217 0.74691 0.0
O547 O 0.75194 0.31617 0.78159 0.0
H548 H 0.79355 0.2365 0.84427 0.0
H549 H 0.82314 0.19093 0.87344 0.0
H550 H 0.84254 0.23532 0.96841 0.0
H551 H 0.81144 0.2815 0.93926 0.0
H552 H 0.74163 0.42222 0.73641 0.0
H553 H 0.70795 0.46743 0.70553 0.0
H554 H 0.79667 0.44873 0.63401 0.0
H555 H 0.82974 0.40384 0.66481 0.0
Tb556 Tb 0.77193 0.82314 0.79554 0.0
Tb557 Tb 0.81715 0.84224 0.74206 0.0
C558 C 0.72325 0.81746 0.83121 0.0
C559 C 0.70775 0.79535 0.83345 0.0
C560 C 0.71956 0.77056 0.8112 0.0
C561 C 0.70464 0.74967 0.81366 0.0
C562 C 0.67766 0.75318 0.83848 0.0
C563 C 0.66601 0.77813 0.86071 0.0
C564 C 0.68094 0.79899 0.85819 0.0
C565 C 0.84217 0.80465 0.80873 0.0
C566 C 0.80691 0.78267 0.72948 0.0
C567 C 0.86778 0.84998 0.71255 0.0
C568 C 0.88624 0.87021 0.71501 0.0
C569 C 0.88468 0.88751 0.74578 0.0
C570 C 0.89775 0.90968 0.74514 0.0
C571 C 0.91186 0.91507 0.71356 0.0
C572 C 0.9143 0.89709 0.68328 0.0
C573 C 0.9017 0.87482 0.68407 0.0
C574 C 0.7499 0.85327 0.71742 0.0
C575 C 0.77782 0.88547 0.80491 0.0
O576 O 0.71704 0.83129 0.80106 0.0
O577 O 0.75679 0.80995 0.84274 0.0
O578 O 0.8221 0.82897 0.79675 0.0
O579 O 0.82229 0.79017 0.81489 0.0
O580 O 0.7809 0.79049 0.75319 0.0
O581 O 0.8276 0.79753 0.72493 0.0
O582 O 0.87302 0.83192 0.73873 0.0
O583 O 0.83393 0.86161 0.70191 0.0
O584 O 0.76527 0.8426 0.74625 0.0
O585 O 0.77353 0.85927 0.70043 0.0
O586 O 0.79971 0.87998 0.77752 0.0
O587 O 0.76391 0.86698 0.81567 0.0
H588 H 0.74036 0.76734 0.79202 0.0
H589 H 0.71456 0.73062 0.79641 0.0
H590 H 0.64495 0.78177 0.87973 0.0
H591 H 0.67144 0.81803 0.87552 0.0
H592 H 0.87229 0.88455 0.76975 0.0
H593 H 0.89542 0.92335 0.76878 0.0
H594 H 0.9254 0.90059 0.65875 0.0
H595 H 0.90277 0.86184 0.65999 0.0
H596 H 0.15765 0.13272 0.41367 0.0
H597 H 0.05437 0.1809 0.36342 0.0
H598 H 0.07323 0.22097 0.35379 0.0
H599 H 0.11972 0.24193 0.35874 0.0
H600 H 0.22352 0.19293 0.40782 0.0
H601 H 0.204 0.15357 0.4186 0.0
C602 C 0.13915 0.15214 0.40105 0.0
C603 C 0.10458 0.15393 0.38949 0.0
C604 C 0.15043 0.17485 0.39507 0.0
C605 C 0.08115 0.179 0.37244 0.0
C606 C 0.09193 0.2019 0.36696 0.0
C607 C 0.13798 0.22268 0.37193 0.0
C608 C 0.17309 0.22038 0.38231 0.0
C609 C 0.1266 0.20001 0.37797 0.0
C610 C 0.19655 0.19513 0.39906 0.0
C611 C 0.18532 0.17267 0.40549 0.0
H612 H 0.99977 0.15221 0.3005 0.0
H613 H 0.91577 0.11934 0.30945 0.0
H614 H 0.86989 0.1683 0.30687 0.0
H615 H 0.8539 0.22138 0.30894 0.0
H616 H 0.93904 0.25322 0.30182 0.0
H617 H 0.98366 0.20418 0.29661 0.0
C618 C 0.97142 0.15562 0.3011 0.0
C619 C 0.96145 0.13198 0.30542 0.0
C620 C 0.94513 0.18393 0.30046 0.0
C621 C 0.92442 0.13705 0.30629 0.0
C622 C 0.89805 0.16514 0.305 0.0
C623 C 0.88214 0.21748 0.30573 0.0
C624 C 0.89316 0.24093 0.30636 0.0
C625 C 0.9081 0.1889 0.3032 0.0
C626 C 0.92986 0.23556 0.30201 0.0
C627 C 0.9555 0.20747 0.29895 0.0
H628 H 0.95735 0.00976 0.40961 0.0
H629 H 0.05395 0.96826 0.3492 0.0
H630 H 1.0376 0.92683 0.33668 0.0
H631 H 0.99496 0.90306 0.34084 0.0
H632 H 0.89857 0.94371 0.40178 0.0
H633 H 0.91572 0.98474 0.4161 0.0
C634 C 0.97504 0.99149 0.39414 0.0
C635 C 1.0067 0.99231 0.38015 0.0
C636 C 0.96541 0.96762 0.38692 0.0
C637 C 1.02912 0.9685 0.35979 0.0
C638 C 1.01989 0.94469 0.35273 0.0
C639 C 0.97792 0.92067 0.35771 0.0
C640 C 0.94552 0.92025 0.37021 0.0
C641 C 0.98794 0.94414 0.36584 0.0
C642 C 0.92345 0.9436 0.39144 0.0
C643 C 0.93333 0.96701 0.39979 0.0
H644 H 0.13577 0.98106 0.25346 0.0
H645 H 0.15468 0.00486 0.36231 0.0
H646 H 0.20546 0.95899 0.36916 0.0
H647 H 0.24238 0.91049 0.34589 0.0
H648 H 0.22713 0.88745 0.23602 0.0
H649 H 0.17756 0.93437 0.22788 0.0
C650 C 0.15129 0.97633 0.2785 0.0
C651 C 0.14107 0.99645 0.30734 0.0
C652 C 0.1811 0.94984 0.28223 0.0
C653 C 0.16178 0.98996 0.33954 0.0
C654 C 0.19083 0.96358 0.34363 0.0
C655 C 0.22834 0.91589 0.32011 0.0
C656 C 0.23804 0.89543 0.29179 0.0
C657 C 0.20035 0.94313 0.31542 0.0
C658 C 0.22005 0.90281 0.25832 0.0
C659 C 0.19162 0.92962 0.25368 0.0
H660 H 0.18457 0.00986 0.79101 0.0
H661 H 0.08269 1.00004 0.79682 0.0
H662 H 0.1133 0.94786 0.78922 0.0
H663 H 0.16827 0.9053 0.77504 0.0
H664 H 0.27012 0.91496 0.76982 0.0
H665 H 0.24039 0.96671 0.78307 0.0
C666 C 0.16909 0.9963 0.79123 0.0
C667 C 0.13124 0.00908 0.79418 0.0
C668 C 0.18686 0.96621 0.78638 0.0
C669 C 0.11178 0.99099 0.79468 0.0
C670 C 0.12927 0.96107 0.79 0.0
C671 C 0.18393 0.91877 0.77693 0.0
C672 C 0.22126 0.90641 0.77094 0.0
C673 C 0.16663 0.94852 0.78477 0.0
C674 C 0.24133 0.92398 0.77409 0.0
C675 C 0.22431 0.95359 0.78163 0.0
H676 H 0.1301 0.14043 0.7817 0.0
H677 H 0.13094 0.14304 0.66648 0.0
H678 H 0.15986 0.17798 0.67138 0.0
H679 H 0.18241 0.2093 0.70851 0.0
H680 H 0.17885 0.20798 0.82377 0.0
H681 H 0.15358 0.17085 0.81871 0.0
C682 C 0.13628 0.14879 0.75761 0.0
C683 C 0.12791 0.13937 0.72374 0.0
C684 C 0.15246 0.16907 0.76066 0.0
C685 C 0.13718 0.14983 0.69285 0.0
C686 C 0.15353 0.16993 0.69566 0.0
C687 C 0.17592 0.20102 0.73254 0.0
C688 C 0.18233 0.2116 0.76648 0.0
C689 C 0.16087 0.17997 0.72943 0.0
C690 C 0.17453 0.2001 0.79733 0.0
C691 C 0.15982 0.179 0.79446 0.0
H692 H 0.90914 0.16174 0.79211 0.0
H693 H 1.00985 0.17398 0.79314 0.0
H694 H 0.97697 0.22629 0.79252 0.0
H695 H 0.91918 0.26872 0.78683 0.0
H696 H 0.81886 0.25606 0.78745 0.0
H697 H 0.85182 0.20408 0.79246 0.0
C698 C 0.92395 0.17584 0.79272 0.0
C699 C 0.96199 0.16379 0.79244 0.0
C700 C 0.90484 0.20597 0.79223 0.0
C701 C 0.98063 0.18252 0.79349 0.0
C702 C 0.9618 0.21251 0.79284 0.0
C703 C 0.90463 0.25453 0.78817 0.0
C704 C 0.8666 0.26623 0.78623 0.0
C705 C 0.92387 0.22449 0.79135 0.0
C706 C 0.84809 0.24764 0.78862 0.0
C707 C 0.86695 0.21786 0.79145 0.0
H708 H 0.94441 0.02489 0.68029 0.0
H709 H 1.01186 0.99753 0.77578 0.0
H710 H 0.99175 0.95819 0.7819 0.0
H711 H 0.95611 0.93034 0.75953 0.0
H712 H 0.89151 0.95581 0.66234 0.0
H713 H 0.90981 0.99663 0.65727 0.0
C714 C 0.955 0.01028 0.7023 0.0
C715 C 0.97948 0.01466 0.72759 0.0
C716 C 0.94391 0.9871 0.70536 0.0
C717 C 0.99247 0.9954 0.75616 0.0
C718 C 0.98118 0.97258 0.75962 0.0
C719 C 0.94593 0.94498 0.73741 0.0
C720 C 0.92258 0.9401 0.71135 0.0
C721 C 0.95696 0.96818 0.73438 0.0
C722 C 0.9098 0.95902 0.68257 0.0
C723 C 0.92017 0.98239 0.67971 0.0
H724 H 0.25598 0.20255 0.18163 0.0
H725 H 0.30395 0.23214 0.09877 0.0
H726 H 0.32265 0.26147 0.14297 0.0
H727 H 0.32016 0.28183 0.20444 0.0
H728 H 0.27308 0.25064 0.28716 0.0
H729 H 0.2599 0.2184 0.244 0.0
C730 C 0.27067 0.21537 0.17344 0.0
C731 C 0.27815 0.2157 0.13715 0.0
C732 C 0.2816 0.23175 0.19899 0.0
C733 C 0.29787 0.23178 0.12668 0.0
C734 C 0.30846 0.24851 0.1519 0.0
C735 C 0.30785 0.26749 0.21325 0.0
C736 C 0.2973 0.26901 0.24902 0.0
C737 C 0.29991 0.24905 0.18809 0.0
C738 C 0.2813 0.2502 0.25982 0.0
C739 C 0.2735 0.2318 0.23508 0.0
H740 H 0.98133 0.33282 0.16124 0.0
H741 H 0.98768 0.24848 0.12515 0.0
H742 H 0.93983 0.25166 0.16536 0.0
H743 H 0.89589 0.27835 0.20959 0.0
H744 H 0.88932 0.36219 0.24819 0.0
H745 H 0.9377 0.35937 0.20799 0.0
C746 C 0.97206 0.31524 0.16214 0.0
C747 C 0.98794 0.29045 0.14013 0.0
C748 C 0.94457 0.31719 0.18559 0.0
C749 C 0.97616 0.26761 0.14201 0.0
C750 C 0.94866 0.2695 0.16484 0.0
C751 C 0.90474 0.29621 0.20911 0.0
C752 C 0.88862 0.3207 0.2314 0.0
C753 C 0.93261 0.29421 0.18653 0.0
C754 C 0.90115 0.34322 0.2311 0.0
C755 C 0.92875 0.34158 0.20813 0.0
H756 H 0.81496 0.97411 0.17952 0.0
H757 H 0.76889 0.94237 0.08956 0.0
H758 H 0.75535 0.91031 0.12861 0.0
H759 H 0.76345 0.88705 0.1863 0.0
H760 H 0.81446 0.91541 0.27528 0.0
H761 H 0.8186 0.9534 0.2388 0.0
C762 C 0.80202 0.96017 0.16842 0.0
C763 C 0.7934 0.96047 0.1315 0.0
C764 C 0.79498 0.94128 0.19093 0.0
C765 C 0.77574 0.94275 0.11782 0.0
C766 C 0.76808 0.92429 0.14014 0.0
C767 C 0.77441 0.90211 0.19814 0.0
C768 C 0.78863 0.89842 0.23345 0.0
C769 C 0.77833 0.92291 0.17654 0.0
C770 C 0.80327 0.91786 0.24815 0.0
C771 C 0.80599 0.93938 0.2272 0.0
H772 H 0.20202 0.75053 0.11924 0.0
H773 H 0.14426 0.83839 0.08698 0.0
H774 H 0.18339 0.85431 0.12622 0.0
H775 H 0.2324 0.84356 0.1726 0.0
H776 H 0.28883 0.75556 0.20498 0.0
H777 H 0.25272 0.7394 0.16224 0.0
C778 C 0.19826 0.77309 0.12038 0.0
C779 C 0.16991 0.79317 0.10041 0.0
C780 C 0.22087 0.78213 0.143 0.0
C781 C 0.16529 0.82244 0.10259 0.0
C782 C 0.1879 0.83159 0.12485 0.0
C783 C 0.23713 0.82084 0.16969 0.0
C784 C 0.26311 0.80079 0.19188 0.0
C785 C 0.21555 0.81168 0.14556 0.0
C786 C 0.26877 0.77142 0.18828 0.0
C787 C 0.24809 0.76214 0.16392 0.0
H788 H 0.22538 0.0613 1.0137 0.0
H789 H 0.17831 0.10686 0.91714 0.0
H790 H 0.18005 0.06185 0.88796 0.0
H791 H 0.2043 0.00868 0.88719 0.0
H792 H 0.25609 0.96333 0.9829 0.0
H793 H 0.24244 0.00905 1.01539 0.0
C794 C 0.21501 0.06137 0.98643 0.0
C795 C 0.20242 0.08714 0.9673 0.0
C796 C 0.21721 0.03539 0.96965 0.0
C797 C 0.1882 0.08725 0.93233 0.0
C798 C 0.18952 0.06148 0.91559 0.0
C799 C 0.21218 0.00882 0.91529 0.0
C800 C 0.23175 0.98256 0.93236 0.0
C801 C 0.20544 0.03526 0.93352 0.0
C802 C 0.24092 0.98311 0.96904 0.0
C803 C 0.23346 0.00929 0.98759 0.0
H804 H 0.14165 0.33896 0.93832 0.0
H805 H 0.21289 0.25971 0.9858 0.0
H806 H 0.26458 0.2635 0.95687 0.0
H807 H 0.28954 0.2899 0.91916 0.0
H808 H 0.21842 0.36689 0.86673 0.0
H809 H 0.16645 0.36359 0.89617 0.0
C810 C 0.16858 0.3227 0.94228 0.0
C811 C 0.17376 0.29928 0.96445 0.0
C812 C 0.19799 0.32466 0.92466 0.0
C813 C 0.20851 0.27791 0.96894 0.0
C814 C 0.23796 0.28012 0.95245 0.0
C815 C 0.26263 0.30594 0.91414 0.0
C816 C 0.25773 0.32883 0.89121 0.0
C817 C 0.23304 0.30345 0.93042 0.0
C818 C 0.22274 0.34916 0.88441 0.0
C819 C 0.19312 0.3473 0.90131 0.0
H820 H 0.84404 0.10488 1.01554 0.0
H821 H 0.89135 0.05805 0.91922 0.0
H822 H 0.89394 0.10186 0.89524 0.0
H823 H 0.87463 0.15468 0.89825 0.0
H824 H 0.82218 0.20167 0.99289 0.0
H825 H 0.83085 0.15662 1.02125 0.0
C826 C 0.85522 0.10422 0.98943 0.0
C827 C 0.8668 0.0784 0.9689 0.0
C828 C 0.85561 0.12961 0.97544 0.0
C829 C 0.88219 0.07764 0.93555 0.0
C830 C 0.88339 0.10275 0.92171 0.0
C831 C 0.86526 0.15508 0.92517 0.0
C832 C 0.84723 0.18171 0.94305 0.0
C833 C 0.86887 0.12908 0.94086 0.0
C834 C 0.83631 0.18167 0.97838 0.0
C835 C 0.84081 0.15585 0.99454 0.0
H836 H 0.97824 0.80608 0.89815 0.0
H837 H 0.97478 0.72711 0.93652 0.0
H838 H 0.92596 0.73095 0.89384 0.0
H839 H 0.88088 0.75845 0.84884 0.0
H840 H 0.88139 0.83885 0.81266 0.0
H841 H 0.93461 0.83267 0.85104 0.0
C842 C 0.96683 0.78973 0.89736 0.0
C843 C 0.98036 0.76643 0.92102 0.0
C844 C 0.93805 0.79232 0.87302 0.0
C845 C 0.96546 0.74518 0.91874 0.0
C846 C 0.93722 0.74743 0.89436 0.0
C847 C 0.89292 0.77445 0.84899 0.0
C848 C 0.87718 0.79907 0.82792 0.0
C849 C 0.92292 0.77111 0.8718 0.0
C850 C 0.89308 0.81961 0.82846 0.0
C851 C 0.92338 0.81618 0.85062 0.0
H852 H 0.12458 0.31325 0.17512 0.0
H853 H 0.11675 0.38121 0.10392 0.0
H854 H 0.15565 0.39623 0.1454 0.0
H855 H 0.19648 0.38716 0.19926 0.0
H856 H 0.20288 0.32014 0.27126 0.0
H857 H 0.15988 0.30773 0.23236 0.0
C858 C 0.13093 0.33164 0.1688 0.0
C859 C 0.11771 0.34596 0.13603 0.0
C860 C 0.15328 0.34019 0.19297 0.0
C861 C 0.12617 0.36986 0.12875 0.0
C862 C 0.14868 0.37831 0.15246 0.0
C863 C 0.18787 0.37021 0.20686 0.0
C864 C 0.20295 0.35465 0.23837 0.0
C865 C 0.16301 0.36328 0.18428 0.0
C866 C 0.19155 0.3327 0.24761 0.0
C867 C 0.16714 0.32546 0.2251 0.0
H868 H 0.12905 0.78308 0.9021 0.0
H869 H 0.11065 0.86022 0.96618 0.0
H870 H 0.15271 0.87173 0.92917 0.0
H871 H 0.1977 0.85809 0.87938 0.0
H872 H 0.21356 0.78011 0.81714 0.0
H873 H 0.17021 0.77085 0.85269 0.0
C874 C 0.13385 0.80263 0.90804 0.0
C875 C 0.11643 0.82069 0.93718 0.0
C876 C 0.15827 0.80885 0.88696 0.0
C877 C 0.12318 0.84597 0.94388 0.0
C878 C 0.14761 0.85239 0.92281 0.0
C879 C 0.19166 0.83909 0.87362 0.0
C880 C 0.20951 0.81981 0.84529 0.0
C881 C 0.16586 0.83373 0.89445 0.0
C882 C 0.20075 0.79546 0.83841 0.0
C883 C 0.17573 0.79005 0.85885 0.0
H884 H 0.34594 0.17908 0.97288 0.0
H885 H 0.28747 0.14994 0.8915 0.0
H886 H 0.29646 0.1816 0.84831 0.0
H887 H 0.31568 0.221 0.83525 0.0
H888 H 0.37508 0.24977 0.91584 0.0
H889 H 0.37172 0.21443 0.95735 0.0
C890 C 0.33565 0.17935 0.94555 0.0
C891 C 0.31574 0.16235 0.93562 0.0
C892 C 0.34107 0.19757 0.92064 0.0
C893 C 0.30287 0.16277 0.89998 0.0
C894 C 0.30787 0.18098 0.87521 0.0
C895 C 0.32843 0.21918 0.86169 0.0
C896 C 0.34538 0.2381 0.87252 0.0
C897 C 0.32618 0.19895 0.88548 0.0
C898 C 0.36213 0.2353 0.90671 0.0
C899 C 0.35988 0.21529 0.93063 0.0
H900 H 0.99236 0.35166 0.91309 0.0
H901 H 0.94791 0.33921 1.01121 0.0
H902 H 0.89453 0.33806 0.97766 0.0
H903 H 0.86117 0.33845 0.91912 0.0
H904 H 0.90546 0.35396 0.82238 0.0
H905 H 0.95763 0.35581 0.85637 0.0
C906 C 0.97082 0.34907 0.92734 0.0
C907 C 0.97448 0.3456 0.96488 0.0
C908 C 0.94002 0.34861 0.90783 0.0
C909 C 0.94597 0.3423 0.98254 0.0
C910 C 0.91545 0.34135 0.9632 0.0
C911 C 0.88224 0.34224 0.90552 0.0
C912 C 0.87913 0.34587 0.86788 0.0
C913 C 0.91229 0.34407 0.92565 0.0
C914 C 0.90673 0.35114 0.85108 0.0
C915 C 0.93678 0.35219 0.87059 0.0
H916 H 0.7792 0.99934 0.88055 0.0
H917 H 0.74406 0.96506 0.9694 0.0
H918 H 0.74062 0.92579 0.93079 0.0
H919 H 0.75255 0.89886 0.873 0.0
H920 H 0.79017 0.93255 0.78525 0.0
H921 H 0.78743 0.97428 0.82216 0.0
C922 C 0.77031 0.98353 0.89145 0.0
C923 C 0.76208 0.98516 0.92795 0.0
C924 C 0.76907 0.96067 0.86928 0.0
C925 C 0.75067 0.96436 0.94147 0.0
C926 C 0.74879 0.94181 0.9194 0.0
C927 C 0.75961 0.91554 0.86175 0.0
C928 C 0.7717 0.91238 0.82636 0.0
C929 C 0.75864 0.93939 0.88342 0.0
C930 C 0.78096 0.93421 0.81242 0.0
C931 C 0.77945 0.95815 0.83354 0.0
H932 H 1.01096 0.78051 0.14158 0.0
H933 H 0.94512 0.84807 0.07123 0.0
H934 H 0.89264 0.8564 0.10816 0.0
H935 H 0.86433 0.84226 0.15823 0.0
H936 H 0.93045 0.77539 0.22917 0.0
H937 H 0.98378 0.76917 0.19447 0.0
C938 C 0.98524 0.79731 0.13436 0.0
C939 C 0.98231 0.81354 0.10318 0.0
C940 C 0.95505 0.80196 0.15586 0.0
C941 C 0.94856 0.83528 0.09484 0.0
C942 C 0.91839 0.83992 0.11596 0.0
C943 C 0.89049 0.82645 0.16636 0.0
C944 C 0.89313 0.80911 0.19635 0.0
C945 C 0.92114 0.82307 0.14618 0.0
C946 C 0.9274 0.789 0.20644 0.0
C947 C 0.95793 0.78539 0.1864 0.0
H948 H 0.24959 0.06485 0.0833 0.0
H949 H 0.35831 0.06174 0.09453 0.0
H950 H 0.37818 0.01362 0.12049 0.0
H951 H 0.3632 0.97414 0.14357 0.0
H952 H 0.25453 0.97705 0.12863 0.0
H953 H 0.23602 0.02377 0.10064 0.0
C954 C 0.27769 0.05362 0.09141 0.0
C955 C 0.3024 0.06692 0.08769 0.0
C956 C 0.28879 0.02607 0.10579 0.0
C957 C 0.33884 0.05191 0.09739 0.0
C958 C 0.35009 0.02449 0.11228 0.0
C959 C 0.33561 0.9847 0.13364 0.0
C960 C 0.31019 0.97215 0.13886 0.0
C961 C 0.32514 0.01155 0.11708 0.0
C962 C 0.2745 0.98641 0.12594 0.0
C963 C 0.26389 0.0131 0.1097 0.0
H964 H 0.75893 0.11318 0.04247 0.0
H965 H 0.7048 0.0908 0.12697 0.0
H966 H 0.70607 0.13188 0.16331 0.0
H967 H 0.72867 0.17095 0.17372 0.0
H968 H 0.78493 0.19154 0.08968 0.0
H969 H 0.77698 0.15421 0.05082 0.0
C970 C 0.74681 0.11749 0.06856 0.0
C971 C 0.73208 0.09868 0.08201 0.0
C972 C 0.74867 0.14057 0.08978 0.0
C973 C 0.71645 0.10481 0.11592 0.0
C974 C 0.71738 0.12821 0.13687 0.0
C975 C 0.73875 0.16749 0.14674 0.0
C976 C 0.75786 0.18372 0.13488 0.0
C977 C 0.73442 0.14572 0.12452 0.0
C978 C 0.77084 0.17893 0.09982 0.0
C979 C 0.76614 0.1577 0.07746 0.0
H980 H 0.60509 0.66128 0.82295 0.0
H981 H 0.6057 0.67092 0.93814 0.0
H982 H 0.63509 0.70521 0.93461 0.0
H983 H 0.66002 0.73293 0.89881 0.0
H984 H 0.65862 0.72378 0.78351 0.0
H985 H 0.63099 0.68835 0.78718 0.0
C986 C 0.61208 0.67054 0.84733 0.0
C987 C 0.6031 0.66348 0.8808 0.0
C988 C 0.62894 0.69034 0.84509 0.0
C989 C 0.61188 0.67618 0.91203 0.0
C990 C 0.62883 0.69573 0.91004 0.0
C991 C 0.65346 0.72335 0.87444 0.0
C992 C 0.66142 0.73112 0.84093 0.0
C993 C 0.63723 0.70315 0.8767 0.0
C994 C 0.65325 0.71802 0.8097 0.0
C995 C 0.63722 0.69786 0.81175 0.0
H996 H 0.40415 0.65144 0.81471 0.0
H997 H 0.49971 0.66396 0.78462 0.0
H998 H 0.46391 0.71492 0.77445 0.0
H999 H 0.40684 0.75708 0.78116 0.0
H1000 H 0.31043 0.74473 0.80802 0.0
H1001 H 0.34495 0.69257 0.81211 0.0
C1002 C 0.41697 0.6652 0.80516 0.0
C1003 C 0.45466 0.65389 0.80074 0.0
C1004 C 0.39613 0.6946 0.79928 0.0
C1005 C 0.47081 0.67198 0.78809 0.0
C1006 C 0.45038 0.70124 0.78259 0.0
C1007 C 0.39337 0.74285 0.78746 0.0
C1008 C 0.35639 0.75464 0.79496 0.0
C1009 C 0.41328 0.71295 0.78923 0.0
C1010 C 0.33896 0.73609 0.80239 0.0
C1011 C 0.35873 0.70631 0.80485 0.0
H1012 H 0.50573 0.49611 0.82717 0.0
H1013 H 0.46095 0.5259 0.93101 0.0
H1014 H 0.43659 0.48825 0.931 0.0
H1015 H 0.42987 0.44583 0.90278 0.0
H1016 H 0.47618 0.41437 0.79984 0.0
H1017 H 0.49724 0.454 0.79779 0.0
C1018 C 0.49019 0.49457 0.84951 0.0
C1019 C 0.48532 0.51374 0.87916 0.0
C1020 C 0.47657 0.47252 0.84952 0.0
C1021 C 0.46547 0.51123 0.90811 0.0
C1022 C 0.45145 0.48974 0.90808 0.0
C1023 C 0.4448 0.44745 0.87995 0.0
C1024 C 0.45168 0.42687 0.85168 0.0
C1025 C 0.4573 0.47 0.87921 0.0
C1026 C 0.47026 0.42991 0.82193 0.0
C1027 C 0.48253 0.4525 0.82083 0.0
H1028 H 0.59933 0.48389 0.77204 0.0
H1029 H 0.65961 0.53162 0.82001 0.0
H1030 H 0.71312 0.48693 0.82582 0.0
H1031 H 0.74024 0.43318 0.82493 0.0
H1032 H 0.67697 0.3865 0.78115 0.0
H1033 H 0.62775 0.43157 0.76562 0.0
C1034 C 0.62431 0.4847 0.78317 0.0
C1035 C 0.62515 0.51114 0.79595 0.0
C1036 C 0.65459 0.45885 0.7875 0.0
C1037 C 0.65798 0.51159 0.81017 0.0
C1038 C 0.68863 0.48598 0.81366 0.0
C1039 C 0.71594 0.43304 0.81131 0.0
C1040 C 0.71208 0.40664 0.80434 0.0
C1041 C 0.68692 0.4593 0.8036 0.0
C1042 C 0.68041 0.40661 0.78697 0.0
C1043 C 0.65219 0.43238 0.77814 0.0
H1044 H 0.70404 0.49159 0.27711 0.0
H1045 H 0.60355 0.48454 0.30082 0.0
H1046 H 0.63467 0.43227 0.30649 0.0
H1047 H 0.68977 0.38782 0.29872 0.0
H1048 H 0.79055 0.39561 0.2781 0.0
H1049 H 0.76023 0.44809 0.27739 0.0
C1050 C 0.68911 0.47867 0.2843 0.0
C1051 C 0.65151 0.49198 0.28846 0.0
C1052 C 0.7072 0.44862 0.28751 0.0
C1053 C 0.63254 0.47495 0.29784 0.0
C1054 C 0.65029 0.44497 0.30068 0.0
C1055 C 0.70504 0.40109 0.29433 0.0
C1056 C 0.74223 0.38782 0.28778 0.0
C1057 C 0.68745 0.43144 0.29458 0.0
C1058 C 0.76185 0.40526 0.28283 0.0
C1059 C 0.74451 0.43531 0.28241 0.0
H1060 H 0.64391 0.63469 0.16374 0.0
H1061 H 0.63395 0.63771 0.27865 0.0
H1062 H 0.66315 0.67219 0.28431 0.0
H1063 H 0.6904 0.70256 0.25646 0.0
H1064 H 0.69581 0.70164 0.14116 0.0
H1065 H 0.66915 0.66557 0.13603 0.0
C1066 C 0.64763 0.64301 0.19008 0.0
C1067 C 0.63633 0.63349 0.22061 0.0
C1068 C 0.66367 0.66338 0.19315 0.0
C1069 C 0.64248 0.64422 0.25454 0.0
C1070 C 0.65901 0.66421 0.25785 0.0
C1071 C 0.68544 0.69466 0.2302 0.0
C1072 C 0.69547 0.7047 0.1993 0.0
C1073 C 0.66946 0.67413 0.22729 0.0
C1074 C 0.68914 0.69394 0.1655 0.0
C1075 C 0.67364 0.6734 0.16247 0.0
H1076 H 0.44574 0.64804 0.21867 0.0
H1077 H 0.49768 0.64665 0.32227 0.0
H1078 H 0.45736 0.69716 0.33345 0.0
H1079 H 0.41112 0.74351 0.31045 0.0
H1080 H 0.36436 0.74362 0.20445 0.0
H1081 H 0.39857 0.69194 0.19767 0.0
C1082 C 0.44821 0.65855 0.24395 0.0
C1083 C 0.47505 0.64351 0.26943 0.0
C1084 C 0.42583 0.68762 0.24962 0.0
C1085 C 0.47735 0.65763 0.30211 0.0
C1086 C 0.45439 0.6866 0.30841 0.0
C1087 C 0.40814 0.73199 0.2862 0.0
C1088 C 0.3854 0.74733 0.25783 0.0
C1089 C 0.42907 0.7021 0.28193 0.0
C1090 C 0.3819 0.7323 0.22645 0.0
C1091 C 0.40148 0.70274 0.22255 0.0
H1092 H 0.49931 0.49867 0.27364 0.0
H1093 H 0.48559 0.49781 0.15856 0.0
H1094 H 0.45046 0.46773 0.16258 0.0
H1095 H 0.4241 0.44152 0.19861 0.0
H1096 H 0.43661 0.44279 0.31382 0.0
H1097 H 0.47213 0.47273 0.30996 0.0
C1098 C 0.48824 0.49222 0.2495 0.0
C1099 C 0.49494 0.50057 0.21582 0.0
C1100 C 0.46813 0.47486 0.25203 0.0
C1101 C 0.48105 0.49148 0.18473 0.0
C1102 C 0.46089 0.47437 0.18703 0.0
C1103 C 0.43424 0.4486 0.22294 0.0
C1104 C 0.42748 0.44012 0.25648 0.0
C1105 C 0.45433 0.4659 0.22051 0.0
C1106 C 0.44162 0.44887 0.28767 0.0
C1107 C 0.46173 0.46612 0.28548 0.0
H1108 H 0.79375 0.6814 0.63225 0.0
H1109 H 0.86889 0.70122 0.56943 0.0
H1110 H 0.87191 0.73614 0.61536 0.0
H1111 H 0.8496 0.76383 0.67109 0.0
H1112 H 0.77295 0.74491 0.73281 0.0
H1113 H 0.77441 0.70691 0.68975 0.0
C1114 C 0.8112 0.69305 0.62876 0.0
C1115 C 0.83093 0.68871 0.59723 0.0
C1116 C 0.81236 0.7135 0.65504 0.0
C1117 C 0.85329 0.70412 0.59329 0.0
C1118 C 0.85498 0.72419 0.61955 0.0
C1119 C 0.83354 0.75119 0.67544 0.0
C1120 C 0.81107 0.75748 0.70522 0.0
C1121 C 0.83407 0.7295 0.6502 0.0
C1122 C 0.79042 0.74078 0.71018 0.0
C1123 C 0.79117 0.71898 0.68548 0.0
H1124 H 0.49735 0.8038 0.66729 0.0
H1125 H 0.43176 0.82943 0.57099 0.0
H1126 H 0.3772 0.83784 0.60482 0.0
H1127 H 0.34781 0.83715 0.66235 0.0
H1128 H 0.41349 0.81605 0.75938 0.0
H1129 H 0.46766 0.80679 0.72522 0.0
C1130 C 0.47107 0.81127 0.65378 0.0
C1131 C 0.46879 0.81574 0.61647 0.0
C1132 C 0.43959 0.81693 0.67374 0.0
C1133 C 0.43437 0.82586 0.59956 0.0
C1134 C 0.40313 0.83059 0.61897 0.0
C1135 C 0.37396 0.83068 0.67603 0.0
C1136 C 0.37627 0.82732 0.71364 0.0
C1137 C 0.4053 0.82612 0.65614 0.0
C1138 C 0.41057 0.81909 0.73069 0.0
C1139 C 0.44175 0.81363 0.71106 0.0
H1140 H 0.27285 0.45019 0.65341 0.0
H1141 H 0.38877 0.42161 0.66353 0.0
H1142 H 0.38895 0.39575 0.7175 0.0
H1143 H 0.35704 0.37909 0.75939 0.0
H1144 H 0.24151 0.4049 0.749 0.0
H1145 H 0.24013 0.43465 0.69788 0.0
C1146 C 0.29803 0.4386 0.66774 0.0
C1147 C 0.33079 0.43768 0.65431 0.0
C1148 C 0.29797 0.42349 0.69873 0.0
C1149 C 0.36329 0.42228 0.67292 0.0
C1150 C 0.36339 0.40765 0.70393 0.0
C1151 C 0.33134 0.39174 0.7467 0.0
C1152 C 0.29936 0.39003 0.75842 0.0
C1153 C 0.33098 0.40787 0.71681 0.0
C1154 C 0.2665 0.40601 0.74074 0.0
C1155 C 0.26575 0.42286 0.71137 0.0
H1156 H 0.63379 0.29142 0.65871 0.0
H1157 H 0.60895 0.37227 0.60677 0.0
H1158 H 0.6513 0.38333 0.64861 0.0
H1159 H 0.69811 0.36849 0.69911 0.0
H1160 H 0.71992 0.28732 0.74983 0.0
H1161 H 0.67651 0.27808 0.70941 0.0
C1162 C 0.63731 0.31164 0.65644 0.0
C1163 C 0.61803 0.33089 0.62922 0.0
C1164 C 0.66169 0.31772 0.68045 0.0
C1165 C 0.62303 0.35706 0.62738 0.0
C1166 C 0.64756 0.36326 0.65125 0.0
C1167 C 0.69336 0.34879 0.7013 0.0
C1168 C 0.7129 0.32856 0.72776 0.0
C1169 C 0.66754 0.34353 0.67773 0.0
C1170 C 0.70572 0.30337 0.73012 0.0
C1171 C 0.68074 0.29798 0.70684 0.0
H1172 H 0.79396 0.57411 0.41731 0.0
H1173 H 0.85928 0.54916 0.51428 0.0
H1174 H 0.87758 0.49826 0.49619 0.0
H1175 H 0.87016 0.46087 0.45548 0.0
H1176 H 0.80165 0.48689 0.36047 0.0
H1177 H 0.79006 0.53723 0.37491 0.0
C1178 C 0.8126 0.5576 0.43435 0.0
C1179 C 0.82496 0.56548 0.46728 0.0
C1180 C 0.82231 0.52847 0.42418 0.0
C1181 C 0.84936 0.54375 0.48879 0.0
C1182 C 0.85963 0.51461 0.47856 0.0
C1183 C 0.85278 0.47754 0.43786 0.0
C1184 C 0.83671 0.4699 0.40696 0.0
C1185 C 0.84545 0.50671 0.44677 0.0
C1186 C 0.81482 0.49188 0.38415 0.0
C1187 C 0.80786 0.5208 0.39256 0.0
H1188 H 0.66442 0.79155 0.38772 0.0
H1189 H 0.68476 0.83767 0.48013 0.0
H1190 H 0.72949 0.84826 0.4473 0.0
H1191 H 0.76407 0.84395 0.39276 0.0
H1192 H 0.74256 0.80015 0.29889 0.0
H1193 H 0.69753 0.78919 0.33146 0.0
C1194 C 0.67868 0.80387 0.40072 0.0
C1195 C 0.67093 0.81375 0.43672 0.0
C1196 C 0.70427 0.81041 0.38122 0.0
C1197 C 0.68964 0.82997 0.45264 0.0
C1198 C 0.71543 0.83598 0.43381 0.0
C1199 C 0.74924 0.83229 0.37921 0.0
C1200 C 0.75682 0.82302 0.34318 0.0
C1201 C 0.72302 0.82636 0.39812 0.0
C1202 C 0.73726 0.80783 0.32633 0.0
C1203 C 0.71155 0.80141 0.34515 0.0
H1204 H 0.36983 0.59812 0.50563 0.0
H1205 H 0.30867 0.56519 0.43188 0.0
H1206 H 0.29789 0.60545 0.39232 0.0
H1207 H 0.30196 0.65177 0.38094 0.0
H1208 H 0.36185 0.68568 0.45496 0.0
H1209 H 0.37787 0.64292 0.49173 0.0
C1210 C 0.35478 0.59947 0.48058 0.0
C1211 C 0.33973 0.57885 0.47189 0.0
C1212 C 0.34835 0.6229 0.4581 0.0
C1213 C 0.31999 0.58105 0.43944 0.0
C1214 C 0.31389 0.60402 0.41678 0.0
C1215 C 0.31859 0.64976 0.40509 0.0
C1216 C 0.33032 0.67199 0.41547 0.0
C1217 C 0.3272 0.62541 0.42627 0.0
C1218 C 0.35254 0.66882 0.44637 0.0
C1219 C 0.36151 0.64446 0.46751 0.0
H1220 H 0.48339 0.3098 0.42006 0.0
H1221 H 0.42918 0.36219 0.5104 0.0
H1222 H 0.37065 0.37233 0.47926 0.0
H1223 H 0.33434 0.3633 0.42789 0.0
H1224 H 0.38914 0.31188 0.33719 0.0
H1225 H 0.44759 0.30458 0.36667 0.0
C1226 C 0.45885 0.32378 0.4329 0.0
C1227 C 0.4611 0.33511 0.4679 0.0
C1228 C 0.42516 0.3295 0.41471 0.0
C1229 C 0.4287 0.35328 0.48363 0.0
C1230 C 0.39507 0.3589 0.46582 0.0
C1231 C 0.35908 0.35068 0.41439 0.0
C1232 C 0.35705 0.33794 0.38024 0.0
C1233 C 0.39287 0.34668 0.43162 0.0
C1234 C 0.38957 0.32193 0.36325 0.0
C1235 C 0.42312 0.31767 0.38027 0.0
H1236 H 0.62471 0.82251 0.64699 0.0
H1237 H 0.62237 0.88751 0.57363 0.0
H1238 H 0.66602 0.89913 0.61245 0.0
H1239 H 0.71086 0.88576 0.66291 0.0
H1240 H 0.71331 0.81979 0.73483 0.0
H1241 H 0.66328 0.81374 0.70127 0.0
C1242 C 0.63323 0.83964 0.63988 0.0
C1243 C 0.62074 0.85397 0.6074 0.0
C1244 C 0.65852 0.84581 0.66198 0.0
C1245 C 0.63156 0.87631 0.59859 0.0
C1246 C 0.65674 0.88272 0.62061 0.0
C1247 C 0.69984 0.87052 0.67161 0.0
C1248 C 0.71565 0.8533 0.70143 0.0
C1249 C 0.67132 0.86688 0.65171 0.0
C1250 C 0.70128 0.83363 0.71249 0.0
C1251 C 0.67287 0.82995 0.69299 0.0
H1252 H 0.66392 0.25445 0.4256 0.0
H1253 H 0.66417 0.32286 0.4987 0.0
H1254 H 0.70858 0.33116 0.46281 0.0
H1255 H 0.74582 0.32024 0.40935 0.0
H1256 H 0.74519 0.25195 0.33604 0.0
H1257 H 0.70307 0.24214 0.37354 0.0
C1258 C 0.67401 0.27091 0.43395 0.0
C1259 C 0.66039 0.28812 0.46473 0.0
C1260 C 0.69957 0.27565 0.41309 0.0
C1261 C 0.67359 0.30961 0.47484 0.0
C1262 C 0.6992 0.31428 0.45441 0.0
C1263 C 0.73676 0.30303 0.40172 0.0
C1264 C 0.74871 0.28694 0.36981 0.0
C1265 C 0.71212 0.29765 0.42325 0.0
C1266 C 0.73646 0.26479 0.36035 0.0
C1267 C 0.71227 0.25915 0.38179 0.0
H1268 H 0.83112 0.69533 0.43409 0.0
H1269 H 0.72626 0.7106 0.38552 0.0
H1270 H 0.74293 0.72844 0.33199 0.0
H1271 H 0.78504 0.74292 0.30119 0.0
H1272 H 0.888 0.73263 0.35135 0.0
H1273 H 0.87507 0.70817 0.40133 0.0
C1274 C 0.81219 0.70219 0.41155 0.0
C1275 C 0.77742 0.70179 0.41384 0.0
C1276 C 0.82178 0.71293 0.38102 0.0
C1277 C 0.75294 0.71109 0.38463 0.0
C1278 C 0.76257 0.72108 0.35392 0.0
C1279 C 0.80515 0.73494 0.32263 0.0
C1280 C 0.83746 0.73983 0.32247 0.0
C1281 C 0.79667 0.72251 0.35209 0.0
C1282 C 0.86296 0.72916 0.35065 0.0
C1283 C 0.85538 0.71546 0.37945 0.0
H1284 H 0.45623 0.81626 0.47769 0.0
H1285 H 0.49087 0.87453 0.42256 0.0
H1286 H 0.44517 0.87909 0.3746 0.0
H1287 H 0.40008 0.86155 0.34548 0.0
H1288 H 0.3681 0.80215 0.40245 0.0
H1289 H 0.40807 0.80297 0.45243 0.0
C1290 C 0.45332 0.83039 0.45545 0.0
C1291 C 0.47683 0.84489 0.45334 0.0
C1292 C 0.42784 0.83229 0.42803 0.0
C1293 C 0.47276 0.86334 0.42473 0.0
C1294 C 0.44695 0.86564 0.39719 0.0
C1295 C 0.40165 0.84903 0.36898 0.0
C1296 C 0.38152 0.8314 0.36979 0.0
C1297 C 0.42509 0.84944 0.39801 0.0
C1298 C 0.38361 0.81555 0.40066 0.0
C1299 C 0.40642 0.81604 0.42945 0.0
H1300 H 0.26064 0.49572 0.44587 0.0
H1301 H 0.20243 0.46143 0.51329 0.0
H1302 H 0.19379 0.4321 0.46297 0.0
H1303 H 0.21063 0.41104 0.40293 0.0
H1304 H 0.27232 0.44313 0.33694 0.0
H1305 H 0.27109 0.47887 0.38345 0.0
C1306 C 0.24553 0.4822 0.44949 0.0
C1307 C 0.23276 0.48041 0.48353 0.0
C1308 C 0.24146 0.46485 0.42071 0.0
C1309 C 0.21289 0.46302 0.48752 0.0
C1310 C 0.20801 0.44616 0.45876 0.0
C1311 C 0.22302 0.42631 0.39825 0.0
C1312 C 0.24193 0.42414 0.3666 0.0
C1313 C 0.22333 0.44613 0.42563 0.0
C1314 C 0.25784 0.44414 0.36114 0.0
C1315 C 0.25732 0.4645 0.38782 0.0
H1316 H 0.49794 0.26583 0.68512 0.0
H1317 H 0.42742 0.3254 0.60849 0.0
H1318 H 0.37655 0.33581 0.64745 0.0
H1319 H 0.35132 0.32667 0.70165 0.0
H1320 H 0.42011 0.26761 0.77947 0.0
H1321 H 0.47255 0.25831 0.74183 0.0
C1322 C 0.47138 0.28091 0.67692 0.0
C1323 C 0.46655 0.29472 0.64377 0.0
C1324 C 0.442 0.28686 0.69963 0.0
C1325 C 0.43205 0.31465 0.63387 0.0
C1326 C 0.40286 0.32053 0.65608 0.0
C1327 C 0.37782 0.31177 0.71046 0.0
C1328 C 0.3819 0.29752 0.74299 0.0
C1329 C 0.40746 0.3066 0.68878 0.0
C1330 C 0.41641 0.27873 0.75442 0.0
C1331 C 0.44627 0.27335 0.73283 0.0
H1332 H 0.70255 0.5927 0.63232 0.0
H1333 H 0.73401 0.55578 0.52703 0.0
H1334 H 0.74047 0.50838 0.54764 0.0
H1335 H 0.7449 0.47656 0.59737 0.0
H1336 H 0.71691 0.51304 0.70361 0.0
H1337 H 0.7001 0.5615 0.68069 0.0
C1338 C 0.70983 0.57444 0.6137 0.0
C1339 C 0.71821 0.57762 0.57832 0.0
C1340 C 0.71431 0.54711 0.626 0.0
C1341 C 0.72793 0.5537 0.55453 0.0
C1342 C 0.73165 0.52663 0.5663 0.0
C1343 C 0.73474 0.49515 0.61543 0.0
C1344 C 0.73268 0.4911 0.65221 0.0
C1345 C 0.72622 0.52289 0.60229 0.0
C1346 C 0.71867 0.51546 0.67514 0.0
C1347 C 0.70938 0.54322 0.66211 0.0
H1348 H 0.29864 0.57422 0.66883 0.0
H1349 H 0.21406 0.60003 0.58697 0.0
H1350 H 0.1948 0.65014 0.60824 0.0
H1351 H 0.20748 0.6872 0.64465 0.0
H1352 H 0.29468 0.66104 0.72381 0.0
H1353 H 0.30682 0.61054 0.70954 0.0
C1354 C 0.27558 0.5907 0.65598 0.0
C1355 C 0.25824 0.58346 0.62596 0.0
C1356 C 0.26525 0.61951 0.66774 0.0
C1357 C 0.22808 0.60503 0.60998 0.0
C1358 C 0.21717 0.63374 0.622 0.0
C1359 C 0.22891 0.67043 0.65899 0.0
C1360 C 0.25038 0.67796 0.68495 0.0
C1361 C 0.23647 0.64134 0.64995 0.0
C1362 C 0.27754 0.65596 0.70388 0.0
C1363 C 0.28476 0.62701 0.6955 0.0
loop_
_geom_bond_atom_site_label_1
_geom_bond_atom_site_label_2
_geom_bond_distance
_geom_bond_site_symmetry_2
_ccdc_geom_bond_type
Cu0 N1 1.999 . S
Cu0 O6 1.974 . S
Cu0 N11 1.985 1_455 S
Cu0 O20 1.959 1_455 S
N1 Cu0 1.999 . S
N1 C3 1.263 . S
N1 C5 1.389 . S
N2 C3 1.358 . S
N2 C4 1.400 . S
C3 N1 1.263 . S
C3 N2 1.358 . S
C3 H9 0.930 . S
C4 N2 1.400 . S
C4 C5 1.351 . S
C4 H21 0.930 . S
C5 N1 1.389 . S
C5 C4 1.351 . S
C5 H10 0.930 . S
O6 Cu0 1.974 . S
O6 C16 1.282 . S
C7 O8 1.261 . S
C7 O20 1.251 . S
O8 C7 1.261 . S
H9 C3 0.930 . S
H10 C5 0.930 . S
N11 Cu0 1.985 1_655 S
N11 C13 1.335 . S
N11 C14 1.390 1_655 S
N12 C13 1.345 . S
N12 C15 1.336 . S
C13 N11 1.335 . S
C13 N12 1.345 . S
C13 H18 0.930 . S
C14 N11 1.390 1_455 S
C14 C15 1.346 1_455 S
C14 H19 0.930 . S
C15 N12 1.336 . S
C15 C14 1.346 1_655 S
C15 H22 0.929 1_545 S
C16 O6 1.282 . S
C16 O17 1.216 . S
O17 C16 1.216 . S
H18 C13 0.930 . S
H19 C14 0.930 . S
O20 Cu0 1.959 1_655 S
O20 C7 1.251 . S
H21 C4 0.930 . S
H22 C15 0.929 1_565 S
Cu23 N24 1.999 1_455 S
Cu23 O29 1.974 1_455 S
Cu23 N34 1.985 . S
Cu23 O43 1.959 . S
N24 Cu23 1.999 1_655 S
N24 C26 1.263 . S
N24 C28 1.389 . S
N25 C26 1.358 . S
N25 C27 1.400 . S
C26 N24 1.263 . S
C26 N25 1.358 . S
C26 H32 0.930 . S
C27 N25 1.400 . S
C27 C28 1.351 . S
C27 H44 0.930 1_545 S
C28 N24 1.389 . S
C28 C27 1.351 . S
C28 H33 0.930 1_655 S
O29 Cu23 1.974 1_655 S
O29 C39 1.282 . S
C30 O31 1.261 . S
C30 O43 1.251 . S
O31 C30 1.261 . S
H32 C26 0.930 . S
H33 C28 0.930 1_455 S
N34 Cu23 1.985 . S
N34 C36 1.335 . S
N34 C37 1.390 . S
N35 C36 1.345 . S
N35 C38 1.336 . S
C36 N34 1.335 . S
C36 N35 1.345 . S
C36 H41 0.930 . S
C37 N34 1.390 . S
C37 C38 1.346 . S
C37 H42 0.952 . S
C38 N35 1.336 . S
C38 C37 1.346 . S
C38 H45 0.929 . S
C39 O29 1.282 . S
C39 O40 1.216 . S
O40 C39 1.216 . S
H41 C36 0.930 . S
H42 C37 0.952 . S
O43 Cu23 1.959 . S
O43 C30 1.251 . S
H44 C27 0.930 1_565 S
H45 C38 0.929 . S
Cu46 N47 1.999 1_554 S
Cu46 O52 1.974 . S
Cu46 N57 1.985 . S
Cu46 O66 1.959 1_554 S
N47 Cu46 1.999 1_556 S
N47 C49 1.263 . S
N47 C51 1.389 . S
N48 C49 1.358 . S
N48 C50 1.400 . S
C49 N47 1.263 . S
C49 N48 1.358 . S
C49 H55 0.923 1_556 S
C50 N48 1.400 . S
C50 C51 1.351 . S
C50 H67 0.930 . S
C51 N47 1.389 . S
C51 C50 1.351 . S
C51 H56 0.930 . S
O52 Cu46 1.974 . S
O52 C62 1.282 . S
C53 O54 1.261 . S
C53 O66 1.251 . S
O54 C53 1.261 . S
H55 C49 0.923 1_554 S
H56 C51 0.930 . S
N57 Cu46 1.985 . S
N57 C59 1.335 . S
N57 C60 1.390 . S
N58 C59 1.345 . S
N58 C61 1.336 . S
C59 N57 1.335 . S
C59 N58 1.345 . S
C59 H64 0.930 . S
C60 N57 1.390 . S
C60 C61 1.346 . S
C60 H65 0.930 . S
C61 N58 1.336 . S
C61 C60 1.346 . S
C61 H68 0.929 . S
C62 O52 1.282 . S
C62 O63 1.216 . S
O63 C62 1.216 . S
H64 C59 0.930 . S
H65 C60 0.930 . S
O66 Cu46 1.959 1_556 S
O66 C53 1.251 . S
H67 C50 0.930 . S
H68 C61 0.929 . S
Cu69 N70 1.999 1_554 S
Cu69 O75 1.974 . S
Cu69 N80 1.985 1_455 S
Cu69 O89 1.959 1_454 S
N70 Cu69 1.999 1_556 S
N70 C72 1.263 . S
N70 C74 1.389 . S
N71 C72 1.358 . S
N71 C73 1.400 . S
C72 N70 1.263 . S
C72 N71 1.358 . S
C72 H78 0.930 . S
C73 N71 1.400 . S
C73 C74 1.351 . S
C73 H90 0.930 . S
C74 N70 1.389 . S
C74 C73 1.351 . S
C74 H79 0.930 . S
O75 Cu69 1.974 . S
O75 C85 1.282 . S
C76 O77 1.261 1_655 S
C76 O89 1.251 . S
O77 C76 1.261 1_455 S
H78 C72 0.930 . S
H79 C74 0.930 . S
N80 Cu69 1.985 1_655 S
N80 C82 1.335 . S
N80 C83 1.394 . S
N81 C82 1.345 . S
N81 C84 1.336 . S
C82 N80 1.335 . S
C82 N81 1.345 . S
C82 H87 0.930 . S
C83 N80 1.394 . S
C83 C84 1.367 . S
C83 H88 0.909 1_655 S
C84 N81 1.336 . S
C84 C83 1.367 . S
C84 H91 0.929 . S
C85 O75 1.282 . S
C85 O86 1.216 . S
O86 C85 1.216 . S
H87 C82 0.930 . S
H88 C83 0.909 1_455 S
O89 Cu69 1.959 1_656 S
O89 C76 1.251 . S
H90 C73 0.930 . S
H91 C84 0.929 . S
Cu92 N93 1.999 1_554 S
Cu92 O98 1.974 . S
Cu92 N103 1.985 1_545 S
Cu92 O112 1.959 1_544 S
N93 Cu92 1.999 1_556 S
N93 C95 1.263 . S
N93 C97 1.389 . S
N94 C95 1.358 . S
N94 C96 1.400 . S
C95 N93 1.263 . S
C95 N94 1.358 . S
C95 H101 0.930 . S
C96 N94 1.400 . S
C96 C97 1.351 . S
C96 H113 0.930 . S
C97 N93 1.389 . S
C97 C96 1.351 . S
C97 H102 0.930 . S
O98 Cu92 1.974 . S
O98 C108 1.282 . S
C99 O100 1.261 . S
C99 O112 1.251 . S
O100 C99 1.261 . S
H101 C95 0.930 . S
H102 C97 0.930 . S
N103 Cu92 1.985 1_565 S
N103 C105 1.335 . S
N103 C106 1.390 . S
N104 C105 1.345 . S
N104 C107 1.336 . S
C105 N103 1.335 . S
C105 N104 1.345 . S
C105 H110 0.930 . S
C106 N103 1.390 . S
C106 C107 1.346 . S
C106 H111 0.930 . S
C107 N104 1.336 . S
C107 C106 1.346 . S
C107 H114 0.929 . S
C108 O98 1.282 . S
C108 O109 1.216 . S
O109 C108 1.216 . S
H110 C105 0.930 . S
H111 C106 0.930 . S
O112 Cu92 1.959 1_566 S
O112 C99 1.251 . S
H113 C96 0.930 . S
H114 C107 0.929 . S
Cu115 N116 1.999 1_454 S
Cu115 O121 1.974 1_455 S
Cu115 N126 1.985 . S
Cu115 O135 1.959 1_554 S
N116 Cu115 1.999 1_656 S
N116 C118 1.263 . S
N116 C120 1.389 . S
N117 C118 1.358 . S
N117 C119 1.400 . S
C118 N116 1.263 . S
C118 N117 1.358 . S
C118 H124 0.930 . S
C119 N117 1.400 . S
C119 C120 1.351 . S
C119 H136 0.930 . S
C120 N116 1.389 . S
C120 C119 1.351 . S
C120 H125 0.930 1_655 S
O121 Cu115 1.974 1_655 S
O121 C131 1.282 . S
C122 O123 1.261 . S
C122 O135 1.251 . S
O123 C122 1.261 . S
H124 C118 0.930 . S
H125 C120 0.930 1_455 S
N126 Cu115 1.985 . S
N126 C128 1.335 . S
N126 C129 1.390 . S
N127 C128 1.345 . S
N127 C130 1.336 . S
C128 N126 1.335 . S
C128 N127 1.345 . S
C128 H133 0.930 . S
C129 N126 1.390 . S
C129 C130 1.346 . S
C129 H134 0.930 . S
C130 N127 1.336 . S
C130 C129 1.346 . S
C130 H137 0.929 . S
C131 O121 1.282 . S
C131 O132 1.216 . S
O132 C131 1.216 . S
H133 C128 0.930 . S
H134 C129 0.930 . S
O135 Cu115 1.959 1_556 S
O135 C122 1.251 . S
H136 C119 0.930 . S
H137 C130 0.929 . S
Cu138 N139 1.999 . S
Cu138 O144 1.974 . S
Cu138 N149 1.985 . S
Cu138 O158 1.959 . S
N139 Cu138 1.999 . S
N139 C141 1.263 . S
N139 C143 1.389 . S
N140 C141 1.358 . S
N140 C142 1.400 . S
C141 N139 1.263 . S
C141 N140 1.358 . S
C141 H147 0.930 . S
C142 N140 1.400 . S
C142 C143 1.351 . S
C142 H159 0.930 . S
C143 N139 1.389 . S
C143 C142 1.351 . S
C143 H148 0.930 . S
O144 Cu138 1.974 . S
O144 C154 1.282 . S
C145 O146 1.261 . S
C145 O158 1.251 . S
O146 C145 1.261 . S
H147 C141 0.930 . S
H148 C143 0.930 . S
N149 Cu138 1.985 . S
N149 C151 1.335 . S
N149 C152 1.390 . S
N150 C151 1.345 . S
N150 C153 1.336 . S
C151 N149 1.335 . S
C151 N150 1.345 . S
C151 H156 0.930 . S
C152 N149 1.390 . S
C152 C153 1.346 . S
C152 H157 0.930 . S
C153 N150 1.336 . S
C153 C152 1.346 . S
C153 H160 0.929 . S
C154 O144 1.282 . S
C154 O155 1.216 . S
O155 C154 1.216 . S
H156 C151 0.930 . S
H157 C152 0.930 . S
O158 Cu138 1.959 . S
O158 C145 1.251 . S
H159 C142 0.930 . S
H160 C153 0.929 . S
Cu161 N162 1.999 . S
Cu161 O167 1.974 . S
Cu161 N172 1.985 . S
Cu161 O181 1.959 . S
N162 Cu161 1.999 . S
N162 C164 1.263 . S
N162 C166 1.389 . S
N163 C164 1.358 . S
N163 C165 1.400 . S
C164 N162 1.263 . S
C164 N163 1.358 . S
C164 H170 0.930 . S
C165 N163 1.400 . S
C165 C166 1.351 . S
C165 H182 0.930 . S
C166 N162 1.389 . S
C166 C165 1.351 . S
C166 H171 0.930 . S
O167 Cu161 1.974 . S
O167 C177 1.282 . S
C168 O169 1.261 . S
C168 O181 1.251 . S
O169 C168 1.261 . S
H170 C164 0.930 . S
H171 C166 0.930 . S
N172 Cu161 1.985 . S
N172 C174 1.335 . S
N172 C175 1.390 . S
N173 C174 1.345 . S
N173 C176 1.336 . S
C174 N172 1.335 . S
C174 N173 1.345 . S
C174 H179 0.930 . S
C175 N172 1.390 . S
C175 C176 1.346 . S
C175 H180 0.930 . S
C176 N173 1.336 . S
C176 C175 1.346 . S
C176 H183 0.929 . S
C177 O167 1.282 . S
C177 O178 1.216 . S
O178 C177 1.216 . S
H179 C174 0.930 . S
H180 C175 0.930 . S
O181 Cu161 1.959 . S
O181 C168 1.251 . S
H182 C165 0.930 . S
H183 C176 0.929 . S
Cu184 N185 1.999 . S
Cu184 O190 1.974 . S
Cu184 N195 1.985 . S
Cu184 O204 1.959 . S
N185 Cu184 1.999 . S
N185 C187 1.263 . S
N185 C189 1.389 . S
N186 C187 1.358 . S
N186 C188 1.400 . S
C187 N185 1.263 . S
C187 N186 1.358 . S
C187 H193 0.930 . S
C188 N186 1.400 . S
C188 C189 1.351 . S
C188 H205 0.930 . S
C189 N185 1.389 . S
C189 C188 1.351 . S
C189 H194 0.930 . S
O190 Cu184 1.974 . S
O190 C200 1.282 . S
C191 O192 1.261 . S
C191 O204 1.251 . S
O192 C191 1.261 . S
H193 C187 0.930 . S
H194 C189 0.930 . S
N195 Cu184 1.985 . S
N195 C197 1.335 . S
N195 C198 1.390 . S
N196 C197 1.345 . S
N196 C199 1.336 . S
C197 N195 1.335 . S
C197 N196 1.345 . S
C197 H202 0.930 . S
C198 N195 1.390 . S
C198 C199 1.346 . S
C198 H203 0.930 . S
C199 N196 1.336 . S
C199 C198 1.346 . S
C199 H206 0.929 . S
C200 O190 1.282 . S
C200 O201 1.216 . S
O201 C200 1.216 . S
H202 C197 0.930 . S
H203 C198 0.930 . S
O204 Cu184 1.959 . S
O204 C191 1.251 . S
H205 C188 0.930 . S
H206 C199 0.929 . S
Cu207 N208 1.999 . S
Cu207 O213 1.974 . S
Cu207 N218 1.985 . S
Cu207 O227 1.959 . S
N208 Cu207 1.999 . S
N208 C210 1.263 . S
N208 C212 1.389 . S
N209 C210 1.358 . S
N209 C211 1.400 . S
C210 N208 1.263 . S
C210 N209 1.358 . S
C210 H216 0.930 . S
C211 N209 1.400 . S
C211 C212 1.351 . S
C211 H228 0.930 . S
C212 N208 1.389 . S
C212 C211 1.351 . S
C212 H217 0.930 . S
O213 Cu207 1.974 . S
O213 C223 1.282 . S
C214 O215 1.261 . S
C214 O227 1.251 . S
O215 C214 1.261 . S
H216 C210 0.930 . S
H217 C212 0.930 . S
N218 Cu207 1.985 . S
N218 C220 1.335 . S
N218 C221 1.390 . S
N219 C220 1.345 . S
N219 C222 1.336 . S
C220 N218 1.335 . S
C220 N219 1.345 . S
C220 H225 0.930 . S
C221 N218 1.390 . S
C221 C222 1.346 . S
C221 H226 0.930 . S
C222 N219 1.336 . S
C222 C221 1.346 . S
C222 H229 0.929 . S
C223 O213 1.282 . S
C223 O224 1.216 . S
O224 C223 1.216 . S
H225 C220 0.930 . S
H226 C221 0.930 . S
O227 Cu207 1.959 . S
O227 C214 1.251 . S
H228 C211 0.930 . S
H229 C222 0.929 . S
Cu230 N231 1.999 . S
Cu230 O236 1.974 . S
Cu230 N241 1.985 . S
Cu230 O250 1.959 . S
N231 Cu230 1.999 . S
N231 C233 1.263 . S
N231 C235 1.389 . S
N232 C233 1.358 . S
N232 C234 1.400 . S
C233 N231 1.263 . S
C233 N232 1.358 . S
C233 H239 0.930 . S
C234 N232 1.400 . S
C234 C235 1.351 . S
C234 H251 0.930 . S
C235 N231 1.389 . S
C235 C234 1.351 . S
C235 H240 0.930 . S
O236 Cu230 1.974 . S
O236 C246 1.282 . S
C237 O238 1.261 . S
C237 O250 1.251 . S
O238 C237 1.261 . S
H239 C233 0.930 . S
H240 C235 0.930 . S
N241 Cu230 1.985 . S
N241 C243 1.335 . S
N241 C244 1.390 . S
N242 C243 1.345 . S
N242 C245 1.336 . S
C243 N241 1.335 . S
C243 N242 1.345 . S
C243 H248 0.930 . S
C244 N241 1.390 . S
C244 C245 1.346 . S
C244 H249 0.930 . S
C245 N242 1.336 . S
C245 C244 1.346 . S
C245 H252 0.929 . S
C246 O236 1.282 . S
C246 O247 1.216 . S
O247 C246 1.216 . S
H248 C243 0.930 . S
H249 C244 0.930 . S
O250 Cu230 1.959 . S
O250 C237 1.251 . S
H251 C234 0.930 . S
H252 C245 0.929 . S
Cu253 N254 1.999 . S
Cu253 O259 1.974 . S
Cu253 N264 1.985 . S
Cu253 O273 1.959 . S
N254 Cu253 1.999 . S
N254 C256 1.263 . S
N254 C258 1.389 . S
N255 C256 1.358 . S
N255 C257 1.400 . S
C256 N254 1.263 . S
C256 N255 1.358 . S
C256 H262 0.930 . S
C257 N255 1.400 . S
C257 C258 1.351 . S
C257 H274 0.930 . S
C258 N254 1.389 . S
C258 C257 1.351 . S
C258 H263 0.930 . S
O259 Cu253 1.974 . S
O259 C269 1.282 . S
C260 O261 1.261 . S
C260 O273 1.251 . S
O261 C260 1.261 . S
H262 C256 0.930 . S
H263 C258 0.930 . S
N264 Cu253 1.985 . S
N264 C266 1.335 . S
N264 C267 1.390 . S
N265 C266 1.345 . S
N265 C268 1.336 . S
C266 N264 1.335 . S
C266 N265 1.345 . S
C266 H271 0.930 . S
C267 N264 1.390 . S
C267 C268 1.346 . S
C267 H272 0.930 . S
C268 N265 1.336 . S
C268 C267 1.346 . S
C268 H275 0.929 . S
C269 O259 1.282 . S
C269 O270 1.216 . S
O270 C269 1.216 . S
H271 C266 0.930 . S
H272 C267 0.930 . S
O273 Cu253 1.959 . S
O273 C260 1.251 . S
H274 C257 0.930 . S
H275 C268 0.929 . S
Tb276 C278 2.809 . S
Tb276 O296 2.484 . S
Tb276 O297 2.440 . S
Tb276 O298 2.658 . S
Tb276 O299 2.409 . S
Tb276 O300 2.378 . S
Tb276 O304 2.325 . S
Tb276 O307 2.341 . S
Tb277 C287 2.809 . S
Tb277 O298 2.325 . S
Tb277 O301 2.341 . S
Tb277 O302 2.484 . S
Tb277 O303 2.440 . S
Tb277 O304 2.658 . S
Tb277 O305 2.409 . S
Tb277 O306 2.378 . S
C278 Tb276 2.809 . S
C278 C279 1.514 . S
C278 O296 1.248 . S
C278 O297 1.266 . S
C279 C278 1.514 . S
C279 C280 1.359 . S
C279 C284 1.348 . S
C280 C279 1.359 . S
C280 C281 1.380 . S
C280 H308 0.929 . S
C281 C280 1.380 . S
C281 C282 1.347 . S
C281 H309 0.931 . S
C282 C281 1.347 . S
C282 C283 1.369 . S
C283 C282 1.369 . S
C283 C284 1.408 . S
C283 H310 0.930 . S
C284 C279 1.348 . S
C284 C283 1.408 . S
C284 H311 0.930 . S
C285 O298 1.281 . S
C285 O299 1.254 . S
C286 O300 1.236 . S
C286 O301 1.266 . S
C287 Tb277 2.809 . S
C287 C288 1.514 . S
C287 O302 1.248 . S
C287 O303 1.266 . S
C288 C287 1.514 . S
C288 C289 1.359 . S
C288 C293 1.348 . S
C289 C288 1.359 . S
C289 C290 1.380 . S
C289 H312 0.929 . S
C290 C289 1.380 . S
C290 C291 1.347 . S
C290 H313 0.931 . S
C291 C290 1.347 . S
C291 C292 1.369 . S
C292 C291 1.369 . S
C292 C293 1.408 . S
C292 H314 0.930 . S
C293 C288 1.348 . S
C293 C292 1.408 . S
C293 H315 0.930 . S
C294 O304 1.281 . S
C294 O305 1.254 . S
C295 O306 1.236 . S
C295 O307 1.266 . S
O296 Tb276 2.484 . S
O296 C278 1.248 . S
O297 Tb276 2.440 . S
O297 C278 1.266 . S
O298 Tb276 2.658 . S
O298 Tb277 2.325 . S
O298 C285 1.281 . S
O299 Tb276 2.409 . S
O299 C285 1.254 . S
O300 Tb276 2.378 . S
O300 C286 1.236 . S
O301 Tb277 2.341 . S
O301 C286 1.266 . S
O302 Tb277 2.484 . S
O302 C287 1.248 . S
O303 Tb277 2.440 . S
O303 C287 1.266 . S
O304 Tb276 2.325 . S
O304 Tb277 2.658 . S
O304 C294 1.281 . S
O305 Tb277 2.409 . S
O305 C294 1.254 . S
O306 Tb277 2.378 . S
O306 C295 1.236 . S
O307 Tb276 2.341 . S
O307 C295 1.266 . S
H308 C280 0.929 . S
H309 C281 0.931 . S
H310 C283 0.930 . S
H311 C284 0.930 . S
H312 C289 0.929 . S
H313 C290 0.931 . S
H314 C292 0.930 . S
H315 C293 0.930 . S
Tb316 C318 2.809 . S
Tb316 O336 2.484 . S
Tb316 O337 2.440 . S
Tb316 O338 2.658 . S
Tb316 O339 2.409 . S
Tb316 O340 2.378 . S
Tb316 O344 2.325 . S
Tb316 O347 2.341 . S
Tb317 C327 2.809 . S
Tb317 O338 2.325 . S
Tb317 O341 2.341 . S
Tb317 O342 2.484 . S
Tb317 O343 2.440 . S
Tb317 O344 2.658 . S
Tb317 O345 2.409 . S
Tb317 O346 2.378 . S
C318 Tb316 2.809 . S
C318 C319 1.514 . S
C318 O336 1.248 . S
C318 O337 1.266 . S
C319 C318 1.514 . S
C319 C320 1.359 . S
C319 C324 1.348 . S
C320 C319 1.359 . S
C320 C321 1.380 . S
C320 H348 0.929 . S
C321 C320 1.380 . S
C321 C322 1.347 . S
C321 H349 0.931 . S
C322 C321 1.347 . S
C322 C323 1.369 . S
C323 C322 1.369 . S
C323 C324 1.408 . S
C323 H350 0.930 . S
C324 C319 1.348 . S
C324 C323 1.408 . S
C324 H351 0.930 . S
C325 O338 1.281 . S
C325 O339 1.254 . S
C326 O340 1.236 . S
C326 O341 1.266 . S
C327 Tb317 2.809 . S
C327 C328 1.514 . S
C327 O342 1.248 . S
C327 O343 1.266 . S
C328 C327 1.514 . S
C328 C329 1.359 . S
C328 C333 1.348 . S
C329 C328 1.359 . S
C329 C330 1.380 . S
C329 H352 0.929 . S
C330 C329 1.380 . S
C330 C331 1.347 . S
C330 H353 0.931 . S
C331 C330 1.347 . S
C331 C332 1.369 . S
C332 C331 1.369 . S
C332 C333 1.408 . S
C332 H354 0.930 . S
C333 C328 1.348 . S
C333 C332 1.408 . S
C333 H355 0.930 . S
C334 O344 1.281 . S
C334 O345 1.254 . S
C335 O346 1.236 . S
C335 O347 1.266 . S
O336 Tb316 2.484 . S
O336 C318 1.248 . S
O337 Tb316 2.440 . S
O337 C318 1.266 . S
O338 Tb316 2.658 . S
O338 Tb317 2.325 . S
O338 C325 1.281 . S
O339 Tb316 2.409 . S
O339 C325 1.254 . S
O340 Tb316 2.378 . S
O340 C326 1.236 . S
O341 Tb317 2.341 . S
O341 C326 1.266 . S
O342 Tb317 2.484 . S
O342 C327 1.248 . S
O343 Tb317 2.440 . S
O343 C327 1.266 . S
O344 Tb316 2.325 . S
O344 Tb317 2.658 . S
O344 C334 1.281 . S
O345 Tb317 2.409 . S
O345 C334 1.254 . S
O346 Tb317 2.378 . S
O346 C335 1.236 . S
O347 Tb316 2.341 . S
O347 C335 1.266 . S
H348 C320 0.929 . S
H349 C321 0.931 . S
H350 C323 0.930 . S
H351 C324 0.930 . S
H352 C329 0.929 . S
H353 C330 0.931 . S
H354 C332 0.930 . S
H355 C333 0.930 . S
Tb356 C358 2.809 . S
Tb356 O376 2.484 . S
Tb356 O377 2.440 . S
Tb356 O378 2.658 . S
Tb356 O379 2.409 . S
Tb356 O380 2.378 . S
Tb356 O384 2.325 . S
Tb356 O387 2.341 . S
Tb357 C367 2.809 . S
Tb357 O378 2.325 . S
Tb357 O381 2.341 . S
Tb357 O382 2.484 . S
Tb357 O383 2.440 . S
Tb357 O384 2.658 . S
Tb357 O385 2.409 . S
Tb357 O386 2.378 . S
C358 Tb356 2.809 . S
C358 C359 1.514 . S
C358 O376 1.248 . S
C358 O377 1.266 . S
C359 C358 1.514 . S
C359 C360 1.359 . S
C359 C364 1.348 . S
C360 C359 1.359 . S
C360 C361 1.380 . S
C360 H388 0.929 . S
C361 C360 1.380 . S
C361 C362 1.347 . S
C361 H389 0.931 . S
C362 C361 1.347 . S
C362 C363 1.369 . S
C363 C362 1.369 . S
C363 C364 1.408 . S
C363 H390 0.930 . S
C364 C359 1.348 . S
C364 C363 1.408 . S
C364 H391 0.930 . S
C365 O378 1.281 . S
C365 O379 1.254 . S
C366 O380 1.236 . S
C366 O381 1.266 . S
C367 Tb357 2.809 . S
C367 C368 1.514 . S
C367 O382 1.248 . S
C367 O383 1.266 . S
C368 C367 1.514 . S
C368 C369 1.359 . S
C368 C373 1.348 . S
C369 C368 1.359 . S
C369 C370 1.380 . S
C369 H392 0.929 . S
C370 C369 1.380 . S
C370 C371 1.347 . S
C370 H393 0.931 . S
C371 C370 1.347 . S
C371 C372 1.369 . S
C372 C371 1.369 . S
C372 C373 1.408 . S
C372 H394 0.930 . S
C373 C368 1.348 . S
C373 C372 1.408 . S
C373 H395 0.930 . S
C374 O384 1.281 . S
C374 O385 1.254 . S
C375 O386 1.236 . S
C375 O387 1.266 . S
O376 Tb356 2.484 . S
O376 C358 1.248 . S
O377 Tb356 2.440 . S
O377 C358 1.266 . S
O378 Tb356 2.658 . S
O378 Tb357 2.325 . S
O378 C365 1.281 . S
O379 Tb356 2.409 . S
O379 C365 1.254 . S
O380 Tb356 2.378 . S
O380 C366 1.236 . S
O381 Tb357 2.341 . S
O381 C366 1.266 . S
O382 Tb357 2.484 . S
O382 C367 1.248 . S
O383 Tb357 2.440 . S
O383 C367 1.266 . S
O384 Tb356 2.325 . S
O384 Tb357 2.658 . S
O384 C374 1.281 . S
O385 Tb357 2.409 . S
O385 C374 1.254 . S
O386 Tb357 2.378 . S
O386 C375 1.236 . S
O387 Tb356 2.341 . S
O387 C375 1.266 . S
H388 C360 0.929 . S
H389 C361 0.931 . S
H390 C363 0.930 . S
H391 C364 0.930 . S
H392 C369 0.929 . S
H393 C370 0.931 . S
H394 C372 0.930 . S
H395 C373 0.930 . S
Tb396 C398 2.809 . S
Tb396 O416 2.484 . S
Tb396 O417 2.440 . S
Tb396 O418 2.658 . S
Tb396 O419 2.409 . S
Tb396 O420 2.378 . S
Tb396 O424 2.325 . S
Tb396 O427 2.341 . S
Tb397 C407 2.809 . S
Tb397 O418 2.325 . S
Tb397 O421 2.341 . S
Tb397 O422 2.484 . S
Tb397 O423 2.440 . S
Tb397 O424 2.658 . S
Tb397 O425 2.409 . S
Tb397 O426 2.378 . S
C398 Tb396 2.809 . S
C398 C399 1.514 . S
C398 O416 1.248 . S
C398 O417 1.266 . S
C399 C398 1.514 . S
C399 C400 1.359 . S
C399 C404 1.348 . S
C400 C399 1.359 . S
C400 C401 1.380 . S
C400 H428 0.929 . S
C401 C400 1.380 . S
C401 C402 1.347 . S
C401 H429 0.931 . S
C402 C401 1.347 . S
C402 C403 1.369 . S
C403 C402 1.369 . S
C403 C404 1.408 . S
C403 H430 0.930 . S
C404 C399 1.348 . S
C404 C403 1.408 . S
C404 H431 0.930 . S
C405 O418 1.281 . S
C405 O419 1.254 . S
C406 O420 1.236 . S
C406 O421 1.266 . S
C407 Tb397 2.809 . S
C407 C408 1.514 . S
C407 O422 1.248 . S
C407 O423 1.266 . S
C408 C407 1.514 . S
C408 C409 1.359 . S
C408 C413 1.348 . S
C409 C408 1.359 . S
C409 C410 1.380 . S
C409 H432 0.929 . S
C410 C409 1.380 . S
C410 C411 1.347 . S
C410 H433 0.931 . S
C411 C410 1.347 . S
C411 C412 1.369 . S
C412 C411 1.369 . S
C412 C413 1.408 . S
C412 H434 0.930 . S
C413 C408 1.348 . S
C413 C412 1.408 . S
C413 H435 0.930 . S
C414 O424 1.281 . S
C414 O425 1.254 . S
C415 O426 1.236 . S
C415 O427 1.266 . S
O416 Tb396 2.484 . S
O416 C398 1.248 . S
O417 Tb396 2.440 . S
O417 C398 1.266 . S
O418 Tb396 2.658 . S
O418 Tb397 2.325 . S
O418 C405 1.281 . S
O419 Tb396 2.409 . S
O419 C405 1.254 . S
O420 Tb396 2.378 . S
O420 C406 1.236 . S
O421 Tb397 2.341 . S
O421 C406 1.266 . S
O422 Tb397 2.484 . S
O422 C407 1.248 . S
O423 Tb397 2.440 . S
O423 C407 1.266 . S
O424 Tb396 2.325 . S
O424 Tb397 2.658 . S
O424 C414 1.281 . S
O425 Tb397 2.409 . S
O425 C414 1.254 . S
O426 Tb397 2.378 . S
O426 C415 1.236 . S
O427 Tb396 2.341 . S
O427 C415 1.266 . S
H428 C400 0.929 . S
H429 C401 0.931 . S
H430 C403 0.930 . S
H431 C404 0.930 . S
H432 C409 0.929 . S
H433 C410 0.931 . S
H434 C412 0.930 . S
H435 C413 0.930 . S
Tb436 C438 2.809 . S
Tb436 O456 2.484 . S
Tb436 O457 2.440 . S
Tb436 O458 2.658 . S
Tb436 O459 2.409 . S
Tb436 O460 2.378 . S
Tb436 O464 2.325 . S
Tb436 O467 2.341 . S
Tb437 C447 2.809 . S
Tb437 O458 2.325 . S
Tb437 O461 2.341 . S
Tb437 O462 2.484 . S
Tb437 O463 2.440 . S
Tb437 O464 2.658 . S
Tb437 O465 2.409 . S
Tb437 O466 2.378 . S
C438 Tb436 2.809 . S
C438 C439 1.514 . S
C438 O456 1.248 . S
C438 O457 1.266 . S
C439 C438 1.514 . S
C439 C440 1.359 . S
C439 C444 1.348 . S
C440 C439 1.359 . S
C440 C441 1.380 . S
C440 H468 0.929 . S
C441 C440 1.380 . S
C441 C442 1.347 . S
C441 H469 0.931 . S
C442 C441 1.347 . S
C442 C443 1.369 . S
C443 C442 1.369 . S
C443 C444 1.408 . S
C443 H470 0.930 . S
C444 C439 1.348 . S
C444 C443 1.408 . S
C444 H471 0.930 . S
C445 O458 1.281 . S
C445 O459 1.254 . S
C446 O460 1.236 . S
C446 O461 1.266 . S
C447 Tb437 2.809 . S
C447 C448 1.514 . S
C447 O462 1.248 . S
C447 O463 1.266 . S
C448 C447 1.514 . S
C448 C449 1.359 . S
C448 C453 1.348 . S
C449 C448 1.359 . S
C449 C450 1.380 . S
C449 H472 0.929 . S
C450 C449 1.380 . S
C450 C451 1.347 . S
C450 H473 0.931 . S
C451 C450 1.347 . S
C451 C452 1.369 . S
C452 C451 1.369 . S
C452 C453 1.408 . S
C452 H474 0.930 . S
C453 C448 1.348 . S
C453 C452 1.408 . S
C453 H475 0.930 . S
C454 O464 1.281 . S
C454 O465 1.254 . S
C455 O466 1.236 . S
C455 O467 1.266 . S
O456 Tb436 2.484 . S
O456 C438 1.248 . S
O457 Tb436 2.440 . S
O457 C438 1.266 . S
O458 Tb436 2.658 . S
O458 Tb437 2.325 . S
O458 C445 1.281 . S
O459 Tb436 2.409 . S
O459 C445 1.254 . S
O460 Tb436 2.378 . S
O460 C446 1.236 . S
O461 Tb437 2.341 . S
O461 C446 1.266 . S
O462 Tb437 2.484 . S
O462 C447 1.248 . S
O463 Tb437 2.440 . S
O463 C447 1.266 . S
O464 Tb436 2.325 . S
O464 Tb437 2.658 . S
O464 C454 1.281 . S
O465 Tb437 2.409 . S
O465 C454 1.254 . S
O466 Tb437 2.378 . S
O466 C455 1.236 . S
O467 Tb436 2.341 . S
O467 C455 1.266 . S
H468 C440 0.929 . S
H469 C441 0.931 . S
H470 C443 0.930 . S
H471 C444 0.930 . S
H472 C449 0.929 . S
H473 C450 0.931 . S
H474 C452 0.930 . S
H475 C453 0.930 . S
Tb476 C478 2.809 . S
Tb476 O496 2.484 . S
Tb476 O497 2.440 . S
Tb476 O498 2.658 . S
Tb476 O499 2.409 . S
Tb476 O500 2.378 . S
Tb476 O504 2.325 . S
Tb476 O507 2.341 . S
Tb477 C487 2.809 . S
Tb477 O498 2.325 . S
Tb477 O501 2.341 . S
Tb477 O502 2.484 . S
Tb477 O503 2.440 . S
Tb477 O504 2.658 . S
Tb477 O505 2.409 . S
Tb477 O506 2.378 . S
C478 Tb476 2.809 . S
C478 C479 1.514 . S
C478 O496 1.248 . S
C478 O497 1.266 . S
C479 C478 1.514 . S
C479 C480 1.359 . S
C479 C484 1.348 . S
C480 C479 1.359 . S
C480 C481 1.380 . S
C480 H508 0.929 . S
C481 C480 1.380 . S
C481 C482 1.347 . S
C481 H509 0.931 . S
C482 C481 1.347 . S
C482 C483 1.369 . S
C483 C482 1.369 . S
C483 C484 1.408 . S
C483 H510 0.930 . S
C484 C479 1.348 . S
C484 C483 1.408 . S
C484 H511 0.930 . S
C485 O498 1.281 . S
C485 O499 1.254 . S
C486 O500 1.236 . S
C486 O501 1.266 . S
C487 Tb477 2.809 . S
C487 C488 1.514 . S
C487 O502 1.248 . S
C487 O503 1.266 . S
C488 C487 1.514 . S
C488 C489 1.359 . S
C488 C493 1.348 . S
C489 C488 1.359 . S
C489 C490 1.380 . S
C489 H512 0.929 . S
C490 C489 1.380 . S
C490 C491 1.347 . S
C490 H513 0.931 . S
C491 C490 1.347 . S
C491 C492 1.369 . S
C492 C491 1.369 . S
C492 C493 1.408 . S
C492 H514 0.930 . S
C493 C488 1.348 . S
C493 C492 1.408 . S
C493 H515 0.930 . S
C494 O504 1.281 . S
C494 O505 1.254 . S
C495 O506 1.236 . S
C495 O507 1.266 . S
O496 Tb476 2.484 . S
O496 C478 1.248 . S
O497 Tb476 2.440 . S
O497 C478 1.266 . S
O498 Tb476 2.658 . S
O498 Tb477 2.325 . S
O498 C485 1.281 . S
O499 Tb476 2.409 . S
O499 C485 1.254 . S
O500 Tb476 2.378 . S
O500 C486 1.236 . S
O501 Tb477 2.341 . S
O501 C486 1.266 . S
O502 Tb477 2.484 . S
O502 C487 1.248 . S
O503 Tb477 2.440 . S
O503 C487 1.266 . S
O504 Tb476 2.325 . S
O504 Tb477 2.658 . S
O504 C494 1.281 . S
O505 Tb477 2.409 . S
O505 C494 1.254 . S
O506 Tb477 2.378 . S
O506 C495 1.236 . S
O507 Tb476 2.341 . S
O507 C495 1.266 . S
H508 C480 0.929 . S
H509 C481 0.931 . S
H510 C483 0.930 . S
H511 C484 0.930 . S
H512 C489 0.929 . S
H513 C490 0.931 . S
H514 C492 0.930 . S
H515 C493 0.930 . S
Tb516 C518 2.809 . S
Tb516 O536 2.484 . S
Tb516 O537 2.440 . S
Tb516 O538 2.658 . S
Tb516 O539 2.409 . S
Tb516 O540 2.378 . S
Tb516 O544 2.325 . S
Tb516 O547 2.341 . S
Tb517 C527 2.809 . S
Tb517 O538 2.325 . S
Tb517 O541 2.341 . S
Tb517 O542 2.484 . S
Tb517 O543 2.440 . S
Tb517 O544 2.658 . S
Tb517 O545 2.409 . S
Tb517 O546 2.378 . S
C518 Tb516 2.809 . S
C518 C519 1.514 . S
C518 O536 1.248 . S
C518 O537 1.266 . S
C519 C518 1.514 . S
C519 C520 1.359 . S
C519 C524 1.348 . S
C520 C519 1.359 . S
C520 C521 1.380 . S
C520 H548 0.929 . S
C521 C520 1.380 . S
C521 C522 1.347 . S
C521 H549 0.931 . S
C522 C521 1.347 . S
C522 C523 1.369 . S
C523 C522 1.369 . S
C523 C524 1.408 . S
C523 H550 0.930 . S
C524 C519 1.348 . S
C524 C523 1.408 . S
C524 H551 0.930 . S
C525 O538 1.281 . S
C525 O539 1.254 . S
C526 O540 1.236 . S
C526 O541 1.266 . S
C527 Tb517 2.809 . S
C527 C528 1.514 . S
C527 O542 1.248 . S
C527 O543 1.266 . S
C528 C527 1.514 . S
C528 C529 1.359 . S
C528 C533 1.348 . S
C529 C528 1.359 . S
C529 C530 1.380 . S
C529 H552 0.929 . S
C530 C529 1.380 . S
C530 C531 1.347 . S
C530 H553 0.931 . S
C531 C530 1.347 . S
C531 C532 1.369 . S
C532 C531 1.369 . S
C532 C533 1.408 . S
C532 H554 0.930 . S
C533 C528 1.348 . S
C533 C532 1.408 . S
C533 H555 0.930 . S
C534 O544 1.281 . S
C534 O545 1.254 . S
C535 O546 1.236 . S
C535 O547 1.266 . S
O536 Tb516 2.484 . S
O536 C518 1.248 . S
O537 Tb516 2.440 . S
O537 C518 1.266 . S
O538 Tb516 2.658 . S
O538 Tb517 2.325 . S
O538 C525 1.281 . S
O539 Tb516 2.409 . S
O539 C525 1.254 . S
O540 Tb516 2.378 . S
O540 C526 1.236 . S
O541 Tb517 2.341 . S
O541 C526 1.266 . S
O542 Tb517 2.484 . S
O542 C527 1.248 . S
O543 Tb517 2.440 . S
O543 C527 1.266 . S
O544 Tb516 2.325 . S
O544 Tb517 2.658 . S
O544 C534 1.281 . S
O545 Tb517 2.409 . S
O545 C534 1.254 . S
O546 Tb517 2.378 . S
O546 C535 1.236 . S
O547 Tb516 2.341 . S
O547 C535 1.266 . S
H548 C520 0.929 . S
H549 C521 0.931 . S
H550 C523 0.930 . S
H551 C524 0.930 . S
H552 C529 0.929 . S
H553 C530 0.931 . S
H554 C532 0.930 . S
H555 C533 0.930 . S
Tb556 C558 2.809 . S
Tb556 O576 2.484 . S
Tb556 O577 2.440 . S
Tb556 O578 2.658 . S
Tb556 O579 2.409 . S
Tb556 O580 2.378 . S
Tb556 O584 2.325 . S
Tb556 O587 2.341 . S
Tb557 C567 2.809 . S
Tb557 O578 2.325 . S
Tb557 O581 2.341 . S
Tb557 O582 2.484 . S
Tb557 O583 2.440 . S
Tb557 O584 2.658 . S
Tb557 O585 2.409 . S
Tb557 O586 2.378 . S
C558 Tb556 2.809 . S
C558 C559 1.514 . S
C558 O576 1.248 . S
C558 O577 1.266 . S
C559 C558 1.514 . S
C559 C560 1.359 . S
C559 C564 1.348 . S
C560 C559 1.359 . S
C560 C561 1.380 . S
C560 H588 0.929 . S
C561 C560 1.380 . S
C561 C562 1.347 . S
C561 H589 0.931 . S
C562 C561 1.347 . S
C562 C563 1.369 . S
C563 C562 1.369 . S
C563 C564 1.408 . S
C563 H590 0.930 . S
C564 C559 1.348 . S
C564 C563 1.408 . S
C564 H591 0.930 . S
C565 O578 1.281 . S
C565 O579 1.254 . S
C566 O580 1.236 . S
C566 O581 1.266 . S
C567 Tb557 2.809 . S
C567 C568 1.514 . S
C567 O582 1.248 . S
C567 O583 1.266 . S
C568 C567 1.514 . S
C568 C569 1.359 . S
C568 C573 1.348 . S
C569 C568 1.359 . S
C569 C570 1.380 . S
C569 H592 0.929 . S
C570 C569 1.380 . S
C570 C571 1.347 . S
C570 H593 0.931 . S
C571 C570 1.347 . S
C571 C572 1.369 . S
C572 C571 1.369 . S
C572 C573 1.408 . S
C572 H594 0.930 . S
C573 C568 1.348 . S
C573 C572 1.408 . S
C573 H595 0.930 . S
C574 O584 1.281 . S
C574 O585 1.254 . S
C575 O586 1.236 . S
C575 O587 1.266 . S
O576 Tb556 2.484 . S
O576 C558 1.248 . S
O577 Tb556 2.440 . S
O577 C558 1.266 . S
O578 Tb556 2.658 . S
O578 Tb557 2.325 . S
O578 C565 1.281 . S
O579 Tb556 2.409 . S
O579 C565 1.254 . S
O580 Tb556 2.378 . S
O580 C566 1.236 . S
O581 Tb557 2.341 . S
O581 C566 1.266 . S
O582 Tb557 2.484 . S
O582 C567 1.248 . S
O583 Tb557 2.440 . S
O583 C567 1.266 . S
O584 Tb556 2.325 . S
O584 Tb557 2.658 . S
O584 C574 1.281 . S
O585 Tb557 2.409 . S
O585 C574 1.254 . S
O586 Tb557 2.378 . S
O586 C575 1.236 . S
O587 Tb556 2.341 . S
O587 C575 1.266 . S
H588 C560 0.929 . S
H589 C561 0.931 . S
H590 C563 0.930 . S
H591 C564 0.930 . S
H592 C569 0.929 . S
H593 C570 0.931 . S
H594 C572 0.930 . S
H595 C573 0.930 . S
H596 C602 0.930 . S
H597 C605 0.930 . S
H598 C606 0.930 . S
H599 C607 0.930 . S
H600 C610 0.930 . S
H601 C611 0.930 . S
C602 H596 0.930 . S
C602 C603 1.355 . S
C602 C604 1.415 . S
C603 C602 1.355 . S
C603 C605 1.419 . S
C604 C602 1.415 . S
C604 C609 1.425 . S
C604 C611 1.409 . S
C605 H597 0.930 . S
C605 C603 1.419 . S
C605 C606 1.362 . S
C606 H598 0.930 . S
C606 C605 1.362 . S
C606 C609 1.409 . S
C607 H599 0.930 . S
C607 C608 1.355 . S
C607 C609 1.415 . S
C608 C607 1.355 . S
C608 C610 1.419 . S
C609 C604 1.425 . S
C609 C606 1.409 . S
C609 C607 1.415 . S
C610 H600 0.930 . S
C610 C608 1.419 . S
C610 C611 1.362 . S
C611 H601 0.930 . S
C611 C604 1.409 . S
C611 C610 1.362 . S
H612 C618 0.930 . S
H613 C621 0.930 . S
H614 C622 0.930 . S
H615 C623 0.930 . S
H616 C626 0.930 . S
H617 C627 0.930 . S
C618 H612 0.930 . S
C618 C619 1.355 . S
C618 C620 1.415 . S
C619 C618 1.355 . S
C619 C621 1.419 . S
C620 C618 1.415 . S
C620 C625 1.425 . S
C620 C627 1.409 . S
C621 H613 0.930 . S
C621 C619 1.419 . S
C621 C622 1.362 . S
C622 H614 0.930 . S
C622 C621 1.362 . S
C622 C625 1.409 . S
C623 H615 0.930 . S
C623 C624 1.355 . S
C623 C625 1.415 . S
C624 C623 1.355 . S
C624 C626 1.419 . S
C625 C620 1.425 . S
C625 C622 1.409 . S
C625 C623 1.415 . S
C626 H616 0.930 . S
C626 C624 1.419 . S
C626 C627 1.362 . S
C627 H617 0.930 . S
C627 C620 1.409 . S
C627 C626 1.362 . S
H628 C634 0.930 . S
H629 C637 0.930 . S
H630 C638 0.930 . S
H631 C639 0.930 . S
H632 C642 0.930 . S
H633 C643 0.930 . S
C634 H628 0.930 . S
C634 C635 1.355 1_565 S
C634 C636 1.415 . S
C635 C634 1.355 1_545 S
C635 C637 1.419 . S
C636 C634 1.415 . S
C636 C641 1.425 . S
C636 C643 1.409 . S
C637 H629 0.930 . S
C637 C635 1.419 . S
C637 C638 1.362 . S
C638 H630 0.930 . S
C638 C637 1.362 . S
C638 C641 1.409 1_545 S
C639 H631 0.930 . S
C639 C640 1.355 . S
C639 C641 1.415 . S
C640 C639 1.355 . S
C640 C642 1.419 . S
C641 C636 1.425 . S
C641 C638 1.409 1_565 S
C641 C639 1.415 . S
C642 H632 0.930 . S
C642 C640 1.419 . S
C642 C643 1.362 . S
C643 H633 0.930 . S
C643 C636 1.409 . S
C643 C642 1.362 . S
H644 C650 0.930 . S
H645 C653 0.930 . S
H646 C654 0.930 . S
H647 C655 0.930 . S
H648 C658 0.930 . S
H649 C659 0.930 . S
C650 H644 0.930 . S
C650 C651 1.355 . S
C650 C652 1.415 . S
C651 C650 1.355 . S
C651 C653 1.419 . S
C652 C650 1.415 . S
C652 C657 1.425 . S
C652 C659 1.409 . S
C653 H645 0.930 . S
C653 C651 1.419 . S
C653 C654 1.362 . S
C654 H646 0.930 . S
C654 C653 1.362 . S
C654 C657 1.409 . S
C655 H647 0.930 . S
C655 C656 1.355 . S
C655 C657 1.415 . S
C656 C655 1.355 . S
C656 C658 1.419 . S
C657 C652 1.425 . S
C657 C654 1.409 . S
C657 C655 1.415 . S
C658 H648 0.930 . S
C658 C656 1.419 . S
C658 C659 1.362 . S
C659 H649 0.930 . S
C659 C652 1.409 . S
C659 C658 1.362 . S
H660 C666 0.930 . S
H661 C669 0.930 . S
H662 C670 0.930 . S
H663 C671 0.930 . S
H664 C674 0.930 . S
H665 C675 0.930 . S
C666 H660 0.930 . S
C666 C667 1.355 . S
C666 C668 1.415 . S
C667 C666 1.355 . S
C667 C669 1.419 . S
C668 C666 1.415 . S
C668 C673 1.425 . S
C668 C675 1.409 . S
C669 H661 0.930 . S
C669 C667 1.419 . S
C669 C670 1.362 . S
C670 H662 0.930 . S
C670 C669 1.362 . S
C670 C673 1.409 . S
C671 H663 0.930 . S
C671 C672 1.355 . S
C671 C673 1.415 . S
C672 C671 1.355 . S
C672 C674 1.419 . S
C673 C668 1.425 . S
C673 C670 1.409 . S
C673 C671 1.415 . S
C674 H664 0.930 . S
C674 C672 1.419 . S
C674 C675 1.362 . S
C675 H665 0.930 . S
C675 C668 1.409 . S
C675 C674 1.362 . S
H676 C682 0.930 . S
H677 C685 0.930 . S
H678 C686 0.930 . S
H679 C687 0.930 . S
H680 C690 0.930 . S
H681 C691 0.930 . S
C682 H676 0.930 . S
C682 C683 1.355 . S
C682 C684 1.415 . S
C683 C682 1.355 . S
C683 C685 1.419 . S
C684 C682 1.415 . S
C684 C689 1.425 . S
C684 C691 1.409 . S
C685 H677 0.930 . S
C685 C683 1.419 . S
C685 C686 1.362 . S
C686 H678 0.930 . S
C686 C685 1.362 . S
C686 C689 1.409 . S
C687 H679 0.930 . S
C687 C688 1.355 . S
C687 C689 1.415 . S
C688 C687 1.355 . S
C688 C690 1.419 . S
C689 C684 1.425 . S
C689 C686 1.409 . S
C689 C687 1.415 . S
C690 H680 0.930 . S
C690 C688 1.419 . S
C690 C691 1.362 . S
C691 H681 0.930 . S
C691 C684 1.409 . S
C691 C690 1.362 . S
H692 C698 0.930 . S
H693 C701 0.930 . S
H694 C702 0.930 . S
H695 C703 0.930 . S
H696 C706 0.930 . S
H697 C707 0.930 . S
C698 H692 0.930 . S
C698 C699 1.355 . S
C698 C700 1.415 . S
C699 C698 1.355 . S
C699 C701 1.419 . S
C700 C698 1.415 . S
C700 C705 1.425 . S
C700 C707 1.409 . S
C701 H693 0.930 . S
C701 C699 1.419 . S
C701 C702 1.362 . S
C702 H694 0.930 . S
C702 C701 1.362 . S
C702 C705 1.409 . S
C703 H695 0.930 . S
C703 C704 1.355 . S
C703 C705 1.415 . S
C704 C703 1.355 . S
C704 C706 1.419 . S
C705 C700 1.425 . S
C705 C702 1.409 . S
C705 C703 1.415 . S
C706 H696 0.930 . S
C706 C704 1.419 . S
C706 C707 1.362 . S
C707 H697 0.930 . S
C707 C700 1.409 . S
C707 C706 1.362 . S
H708 C714 0.930 . S
H709 C717 0.930 . S
H710 C718 0.930 . S
H711 C719 0.930 . S
H712 C722 0.930 . S
H713 C723 0.930 . S
C714 H708 0.930 . S
C714 C715 1.355 . S
C714 C716 1.436 . S
C715 C714 1.355 . S
C715 C717 1.419 1_545 S
C716 C714 1.436 . S
C716 C721 1.408 1_545 S
C716 C723 1.404 . S
C717 H709 0.930 . S
C717 C715 1.419 1_565 S
C717 C718 1.362 . S
C718 H710 0.930 . S
C718 C717 1.362 . S
C718 C721 1.409 . S
C719 H711 0.930 . S
C719 C720 1.355 . S
C719 C721 1.415 . S
C720 C719 1.355 . S
C720 C722 1.419 . S
C721 C716 1.408 1_565 S
C721 C718 1.409 . S
C721 C719 1.415 . S
C722 H712 0.930 . S
C722 C720 1.419 . S
C722 C723 1.362 1_565 S
C723 H713 0.930 . S
C723 C716 1.404 . S
C723 C722 1.362 1_545 S
H724 C730 0.930 . S
H725 C733 0.930 . S
H726 C734 0.930 . S
H727 C735 0.930 . S
H728 C738 0.930 . S
H729 C739 0.930 . S
C730 H724 0.930 . S
C730 C731 1.355 . S
C730 C732 1.415 . S
C731 C730 1.355 . S
C731 C733 1.419 . S
C732 C730 1.415 . S
C732 C737 1.425 . S
C732 C739 1.409 . S
C733 H725 0.930 . S
C733 C731 1.419 . S
C733 C734 1.362 . S
C734 H726 0.930 . S
C734 C733 1.362 . S
C734 C737 1.409 . S
C735 H727 0.930 . S
C735 C736 1.355 . S
C735 C737 1.415 . S
C736 C735 1.355 . S
C736 C738 1.419 . S
C737 C732 1.425 . S
C737 C734 1.409 . S
C737 C735 1.415 . S
C738 H728 0.930 . S
C738 C736 1.419 . S
C738 C739 1.362 . S
C739 H729 0.930 . S
C739 C732 1.409 . S
C739 C738 1.362 . S
H740 C746 0.930 . S
H741 C749 0.930 . S
H742 C750 0.930 . S
H743 C751 0.930 . S
H744 C754 0.930 . S
H745 C755 0.930 . S
C746 H740 0.930 . S
C746 C747 1.355 . S
C746 C748 1.415 . S
C747 C746 1.355 . S
C747 C749 1.419 . S
C748 C746 1.415 . S
C748 C753 1.425 . S
C748 C755 1.409 . S
C749 H741 0.930 . S
C749 C747 1.419 . S
C749 C750 1.362 . S
C750 H742 0.930 . S
C750 C749 1.362 . S
C750 C753 1.409 . S
C751 H743 0.930 . S
C751 C752 1.355 . S
C751 C753 1.415 . S
C752 C751 1.355 . S
C752 C754 1.419 . S
C753 C748 1.425 . S
C753 C750 1.409 . S
C753 C751 1.415 . S
C754 H744 0.930 . S
C754 C752 1.419 . S
C754 C755 1.362 . S
C755 H745 0.930 . S
C755 C748 1.409 . S
C755 C754 1.362 . S
H756 C762 0.930 . S
H757 C765 0.930 . S
H758 C766 0.930 . S
H759 C767 0.930 . S
H760 C770 0.930 . S
H761 C771 0.930 . S
C762 H756 0.930 . S
C762 C763 1.355 . S
C762 C764 1.415 . S
C763 C762 1.355 . S
C763 C765 1.419 . S
C764 C762 1.415 . S
C764 C769 1.425 . S
C764 C771 1.409 . S
C765 H757 0.930 . S
C765 C763 1.419 . S
C765 C766 1.362 . S
C766 H758 0.930 . S
C766 C765 1.362 . S
C766 C769 1.409 . S
C767 H759 0.930 . S
C767 C768 1.355 . S
C767 C769 1.415 . S
C768 C767 1.355 . S
C768 C770 1.419 . S
C769 C764 1.425 . S
C769 C766 1.409 . S
C769 C767 1.415 . S
C770 H760 0.930 . S
C770 C768 1.419 . S
C770 C771 1.362 . S
C771 H761 0.930 . S
C771 C764 1.409 . S
C771 C770 1.362 . S
H772 C778 0.930 . S
H773 C781 0.930 . S
H774 C782 0.930 . S
H775 C783 0.930 . S
H776 C786 0.930 . S
H777 C787 0.930 . S
C778 H772 0.930 . S
C778 C779 1.355 . S
C778 C780 1.415 . S
C779 C778 1.355 . S
C779 C781 1.419 . S
C780 C778 1.415 . S
C780 C785 1.425 . S
C780 C787 1.409 . S
C781 H773 0.930 . S
C781 C779 1.419 . S
C781 C782 1.362 . S
C782 H774 0.930 . S
C782 C781 1.362 . S
C782 C785 1.409 . S
C783 H775 0.930 . S
C783 C784 1.355 . S
C783 C785 1.415 . S
C784 C783 1.355 . S
C784 C786 1.419 . S
C785 C780 1.425 . S
C785 C782 1.409 . S
C785 C783 1.415 . S
C786 H776 0.930 . S
C786 C784 1.419 . S
C786 C787 1.362 . S
C787 H777 0.930 . S
C787 C780 1.409 . S
C787 C786 1.362 . S
H788 C794 0.930 . S
H789 C797 0.930 . S
H790 C798 0.930 1_565 S
H791 C799 0.930 . S
H792 C802 0.930 . S
H793 C803 0.930 . S
C794 H788 0.930 . S
C794 C795 1.355 . S
C794 C796 1.415 . S
C795 C794 1.355 . S
C795 C797 1.419 . S
C796 C794 1.415 . S
C796 C801 1.425 1_545 S
C796 C803 1.409 . S
C797 H789 0.930 . S
C797 C795 1.419 . S
C797 C798 1.362 . S
C798 H790 0.930 1_545 S
C798 C797 1.362 . S
C798 C801 1.409 1_545 S
C799 H791 0.930 . S
C799 C800 1.355 . S
C799 C801 1.415 . S
C800 C799 1.355 . S
C800 C802 1.419 . S
C801 C796 1.425 1_565 S
C801 C798 1.409 1_565 S
C801 C799 1.415 . S
C802 H792 0.930 . S
C802 C800 1.419 . S
C802 C803 1.362 1_565 S
C803 H793 0.930 . S
C803 C796 1.409 . S
C803 C802 1.362 1_545 S
H804 C810 0.930 . S
H805 C813 0.930 . S
H806 C814 0.930 . S
H807 C815 0.930 . S
H808 C818 0.930 . S
H809 C819 0.930 . S
C810 H804 0.930 . S
C810 C811 1.355 . S
C810 C812 1.415 . S
C811 C810 1.355 . S
C811 C813 1.419 . S
C812 C810 1.415 . S
C812 C817 1.425 . S
C812 C819 1.409 . S
C813 H805 0.930 . S
C813 C811 1.419 . S
C813 C814 1.362 . S
C814 H806 0.930 . S
C814 C813 1.362 . S
C814 C817 1.409 . S
C815 H807 0.930 . S
C815 C816 1.355 . S
C815 C817 1.415 . S
C816 C815 1.355 . S
C816 C818 1.419 . S
C817 C812 1.425 . S
C817 C814 1.409 . S
C817 C815 1.415 . S
C818 H808 0.930 . S
C818 C816 1.419 . S
C818 C819 1.362 . S
C819 H809 0.930 . S
C819 C812 1.409 . S
C819 C818 1.362 . S
H820 C826 0.930 . S
H821 C829 0.930 . S
H822 C830 0.930 . S
H823 C831 0.930 . S
H824 C834 0.930 . S
H825 C835 0.930 . S
C826 H820 0.930 . S
C826 C827 1.355 . S
C826 C828 1.415 . S
C827 C826 1.355 . S
C827 C829 1.419 . S
C828 C826 1.415 . S
C828 C833 1.425 . S
C828 C835 1.409 . S
C829 H821 0.930 . S
C829 C827 1.419 . S
C829 C830 1.362 . S
C830 H822 0.930 . S
C830 C829 1.362 . S
C830 C833 1.409 . S
C831 H823 0.930 . S
C831 C832 1.355 . S
C831 C833 1.415 . S
C832 C831 1.355 . S
C832 C834 1.419 . S
C833 C828 1.425 . S
C833 C830 1.409 . S
C833 C831 1.415 . S
C834 H824 0.930 . S
C834 C832 1.419 . S
C834 C835 1.362 . S
C835 H825 0.930 . S
C835 C828 1.409 . S
C835 C834 1.362 . S
H836 C842 0.930 . S
H837 C845 0.930 . S
H838 C846 0.930 . S
H839 C847 0.930 . S
H840 C850 0.930 . S
H841 C851 0.930 . S
C842 H836 0.930 . S
C842 C843 1.355 . S
C842 C844 1.415 . S
C843 C842 1.355 . S
C843 C845 1.419 . S
C844 C842 1.415 . S
C844 C849 1.425 . S
C844 C851 1.409 . S
C845 H837 0.930 . S
C845 C843 1.419 . S
C845 C846 1.362 . S
C846 H838 0.930 . S
C846 C845 1.362 . S
C846 C849 1.409 . S
C847 H839 0.930 . S
C847 C848 1.355 . S
C847 C849 1.415 . S
C848 C847 1.355 . S
C848 C850 1.419 . S
C849 C844 1.425 . S
C849 C846 1.409 . S
C849 C847 1.415 . S
C850 H840 0.930 . S
C850 C848 1.419 . S
C850 C851 1.362 . S
C851 H841 0.930 . S
C851 C844 1.409 . S
C851 C850 1.362 . S
H852 C858 0.930 . S
H853 C861 0.930 . S
H854 C862 0.930 . S
H855 C863 0.930 . S
H856 C866 0.930 . S
H857 C867 0.930 . S
C858 H852 0.930 . S
C858 C859 1.355 . S
C858 C860 1.415 . S
C859 C858 1.355 . S
C859 C861 1.419 . S
C860 C858 1.415 . S
C860 C865 1.425 . S
C860 C867 1.409 . S
C861 H853 0.930 . S
C861 C859 1.419 . S
C861 C862 1.362 . S
C862 H854 0.930 . S
C862 C861 1.362 . S
C862 C865 1.409 . S
C863 H855 0.930 . S
C863 C864 1.355 . S
C863 C865 1.415 . S
C864 C863 1.355 . S
C864 C866 1.419 . S
C865 C860 1.425 . S
C865 C862 1.409 . S
C865 C863 1.415 . S
C866 H856 0.930 . S
C866 C864 1.419 . S
C866 C867 1.362 . S
C867 H857 0.930 . S
C867 C860 1.409 . S
C867 C866 1.362 . S
H868 C874 0.930 . S
H869 C877 0.930 . S
H870 C878 0.930 . S
H871 C879 0.930 . S
H872 C882 0.930 . S
H873 C883 0.930 . S
C874 H868 0.930 . S
C874 C875 1.355 . S
C874 C876 1.415 . S
C875 C874 1.355 . S
C875 C877 1.419 . S
C876 C874 1.415 . S
C876 C881 1.425 . S
C876 C883 1.409 . S
C877 H869 0.930 . S
C877 C875 1.419 . S
C877 C878 1.362 . S
C878 H870 0.930 . S
C878 C877 1.362 . S
C878 C881 1.409 . S
C879 H871 0.930 . S
C879 C880 1.355 . S
C879 C881 1.415 . S
C880 C879 1.355 . S
C880 C882 1.419 . S
C881 C876 1.425 . S
C881 C878 1.409 . S
C881 C879 1.415 . S
C882 H872 0.930 . S
C882 C880 1.419 . S
C882 C883 1.362 . S
C883 H873 0.930 . S
C883 C876 1.409 . S
C883 C882 1.362 . S
H884 C890 0.930 . S
H885 C893 0.930 . S
H886 C894 0.930 . S
H887 C895 0.930 . S
H888 C898 0.930 . S
H889 C899 0.930 . S
C890 H884 0.930 . S
C890 C891 1.355 . S
C890 C892 1.415 . S
C891 C890 1.355 . S
C891 C893 1.419 . S
C892 C890 1.415 . S
C892 C897 1.425 . S
C892 C899 1.409 . S
C893 H885 0.930 . S
C893 C891 1.419 . S
C893 C894 1.362 . S
C894 H886 0.930 . S
C894 C893 1.362 . S
C894 C897 1.409 . S
C895 H887 0.930 . S
C895 C896 1.355 . S
C895 C897 1.415 . S
C896 C895 1.355 . S
C896 C898 1.419 . S
C897 C892 1.425 . S
C897 C894 1.409 . S
C897 C895 1.415 . S
C898 H888 0.930 . S
C898 C896 1.419 . S
C898 C899 1.362 . S
C899 H889 0.930 . S
C899 C892 1.409 . S
C899 C898 1.362 . S
H900 C906 0.930 . S
H901 C909 0.930 . S
H902 C910 0.930 . S
H903 C911 0.930 . S
H904 C914 0.930 . S
H905 C915 0.930 . S
C906 H900 0.930 . S
C906 C907 1.355 . S
C906 C908 1.415 . S
C907 C906 1.355 . S
C907 C909 1.419 . S
C908 C906 1.415 . S
C908 C913 1.425 . S
C908 C915 1.409 . S
C909 H901 0.930 . S
C909 C907 1.419 . S
C909 C910 1.362 . S
C910 H902 0.930 . S
C910 C909 1.362 . S
C910 C913 1.409 . S
C911 H903 0.930 . S
C911 C912 1.355 . S
C911 C913 1.415 . S
C912 C911 1.355 . S
C912 C914 1.419 . S
C913 C908 1.425 . S
C913 C910 1.409 . S
C913 C911 1.415 . S
C914 H904 0.930 . S
C914 C912 1.419 . S
C914 C915 1.362 . S
C915 H905 0.930 . S
C915 C908 1.409 . S
C915 C914 1.362 . S
H916 C922 0.930 . S
H917 C925 0.930 . S
H918 C926 0.930 . S
H919 C927 0.930 . S
H920 C930 0.930 . S
H921 C931 0.930 . S
C922 H916 0.930 . S
C922 C923 1.355 . S
C922 C924 1.415 . S
C923 C922 1.355 . S
C923 C925 1.419 . S
C924 C922 1.415 . S
C924 C929 1.425 . S
C924 C931 1.409 . S
C925 H917 0.930 . S
C925 C923 1.419 . S
C925 C926 1.362 . S
C926 H918 0.930 . S
C926 C925 1.362 . S
C926 C929 1.409 . S
C927 H919 0.930 . S
C927 C928 1.355 . S
C927 C929 1.415 . S
C928 C927 1.355 . S
C928 C930 1.419 . S
C929 C924 1.425 . S
C929 C926 1.409 . S
C929 C927 1.415 . S
C930 H920 0.930 . S
C930 C928 1.419 . S
C930 C931 1.362 . S
C931 H921 0.930 . S
C931 C924 1.409 . S
C931 C930 1.362 . S
H932 C938 0.930 . S
H933 C941 0.930 . S
H934 C942 0.930 . S
H935 C943 0.930 . S
H936 C946 0.930 . S
H937 C947 0.930 . S
C938 H932 0.930 . S
C938 C939 1.355 . S
C938 C940 1.415 . S
C939 C938 1.355 . S
C939 C941 1.419 . S
C940 C938 1.415 . S
C940 C945 1.425 . S
C940 C947 1.409 . S
C941 H933 0.930 . S
C941 C939 1.419 . S
C941 C942 1.362 . S
C942 H934 0.930 . S
C942 C941 1.362 . S
C942 C945 1.409 . S
C943 H935 0.930 . S
C943 C944 1.355 . S
C943 C945 1.415 . S
C944 C943 1.355 . S
C944 C946 1.419 . S
C945 C940 1.425 . S
C945 C942 1.409 . S
C945 C943 1.415 . S
C946 H936 0.930 . S
C946 C944 1.419 . S
C946 C947 1.362 . S
C947 H937 0.930 . S
C947 C940 1.409 . S
C947 C946 1.362 . S
H948 C954 0.930 . S
H949 C957 0.930 . S
H950 C958 0.930 . S
H951 C959 0.930 . S
H952 C962 0.930 . S
H953 C963 0.930 . S
C954 H948 0.930 . S
C954 C955 1.355 . S
C954 C956 1.415 . S
C955 C954 1.355 . S
C955 C957 1.419 . S
C956 C954 1.415 . S
C956 C961 1.425 . S
C956 C963 1.409 . S
C957 H949 0.930 . S
C957 C955 1.419 . S
C957 C958 1.362 . S
C958 H950 0.930 . S
C958 C957 1.362 . S
C958 C961 1.409 . S
C959 H951 0.930 . S
C959 C960 1.355 . S
C959 C961 1.415 1_565 S
C960 C959 1.355 . S
C960 C962 1.419 . S
C961 C956 1.425 . S
C961 C958 1.409 . S
C961 C959 1.415 1_545 S
C962 H952 0.930 . S
C962 C960 1.419 . S
C962 C963 1.362 1_565 S
C963 H953 0.930 . S
C963 C956 1.409 . S
C963 C962 1.362 1_545 S
H964 C970 0.930 . S
H965 C973 0.930 . S
H966 C974 0.930 . S
H967 C975 0.930 . S
H968 C978 0.930 . S
H969 C979 0.930 . S
C970 H964 0.930 . S
C970 C971 1.355 . S
C970 C972 1.415 . S
C971 C970 1.355 . S
C971 C973 1.419 . S
C972 C970 1.415 . S
C972 C977 1.425 . S
C972 C979 1.409 . S
C973 H965 0.930 . S
C973 C971 1.419 . S
C973 C974 1.362 . S
C974 H966 0.930 . S
C974 C973 1.362 . S
C974 C977 1.409 . S
C975 H967 0.930 . S
C975 C976 1.355 . S
C975 C977 1.415 . S
C976 C975 1.355 . S
C976 C978 1.419 . S
C977 C972 1.425 . S
C977 C974 1.409 . S
C977 C975 1.415 . S
C978 H968 0.930 . S
C978 C976 1.419 . S
C978 C979 1.362 . S
C979 H969 0.930 . S
C979 C972 1.409 . S
C979 C978 1.362 . S
H980 C986 0.930 . S
H981 C989 0.930 . S
H982 C990 0.930 . S
H983 C991 0.930 . S
H984 C994 0.930 . S
H985 C995 0.930 . S
C986 H980 0.930 . S
C986 C987 1.355 . S
C986 C988 1.415 . S
C987 C986 1.355 . S
C987 C989 1.419 . S
C988 C986 1.415 . S
C988 C993 1.425 . S
C988 C995 1.409 . S
C989 H981 0.930 . S
C989 C987 1.419 . S
C989 C990 1.362 . S
C990 H982 0.930 . S
C990 C989 1.362 . S
C990 C993 1.409 . S
C991 H983 0.930 . S
C991 C992 1.355 . S
C991 C993 1.415 . S
C992 C991 1.355 . S
C992 C994 1.419 . S
C993 C988 1.425 . S
C993 C990 1.409 . S
C993 C991 1.415 . S
C994 H984 0.930 . S
C994 C992 1.419 . S
C994 C995 1.362 . S
C995 H985 0.930 . S
C995 C988 1.409 . S
C995 C994 1.362 . S
H996 C1002 0.930 . S
H997 C1005 0.930 . S
H998 C1006 0.930 . S
H999 C1007 0.930 . S
H1000 C1010 0.930 . S
H1001 C1011 0.930 . S
C1002 H996 0.930 . S
C1002 C1003 1.355 . S
C1002 C1004 1.415 . S
C1003 C1002 1.355 . S
C1003 C1005 1.419 . S
C1004 C1002 1.415 . S
C1004 C1009 1.425 . S
C1004 C1011 1.409 . S
C1005 H997 0.930 . S
C1005 C1003 1.419 . S
C1005 C1006 1.362 . S
C1006 H998 0.930 . S
C1006 C1005 1.362 . S
C1006 C1009 1.409 . S
C1007 H999 0.930 . S
C1007 C1008 1.355 . S
C1007 C1009 1.415 . S
C1008 C1007 1.355 . S
C1008 C1010 1.419 . S
C1009 C1004 1.425 . S
C1009 C1006 1.409 . S
C1009 C1007 1.415 . S
C1010 H1000 0.930 . S
C1010 C1008 1.419 . S
C1010 C1011 1.362 . S
C1011 H1001 0.930 . S
C1011 C1004 1.409 . S
C1011 C1010 1.362 . S
H1012 C1018 0.930 . S
H1013 C1021 0.930 . S
H1014 C1022 0.930 . S
H1015 C1023 0.930 . S
H1016 C1026 0.930 . S
H1017 C1027 0.930 . S
C1018 H1012 0.930 . S
C1018 C1019 1.355 . S
C1018 C1020 1.415 . S
C1019 C1018 1.355 . S
C1019 C1021 1.419 . S
C1020 C1018 1.415 . S
C1020 C1025 1.425 . S
C1020 C1027 1.409 . S
C1021 H1013 0.930 . S
C1021 C1019 1.419 . S
C1021 C1022 1.362 . S
C1022 H1014 0.930 . S
C1022 C1021 1.362 . S
C1022 C1025 1.409 . S
C1023 H1015 0.930 . S
C1023 C1024 1.355 . S
C1023 C1025 1.415 . S
C1024 C1023 1.355 . S
C1024 C1026 1.419 . S
C1025 C1020 1.425 . S
C1025 C1022 1.409 . S
C1025 C1023 1.415 . S
C1026 H1016 0.930 . S
C1026 C1024 1.419 . S
C1026 C1027 1.362 . S
C1027 H1017 0.930 . S
C1027 C1020 1.409 . S
C1027 C1026 1.362 . S
H1028 C1034 0.930 . S
H1029 C1037 0.930 . S
H1030 C1038 0.930 . S
H1031 C1039 0.930 . S
H1032 C1042 0.930 . S
H1033 C1043 0.930 . S
C1034 H1028 0.930 . S
C1034 C1035 1.355 . S
C1034 C1036 1.415 . S
C1035 C1034 1.355 . S
C1035 C1037 1.419 . S
C1036 C1034 1.415 . S
C1036 C1041 1.425 . S
C1036 C1043 1.409 . S
C1037 H1029 0.930 . S
C1037 C1035 1.419 . S
C1037 C1038 1.362 . S
C1038 H1030 0.930 . S
C1038 C1037 1.362 . S
C1038 C1041 1.409 . S
C1039 H1031 0.930 . S
C1039 C1040 1.355 . S
C1039 C1041 1.415 . S
C1040 C1039 1.355 . S
C1040 C1042 1.419 . S
C1041 C1036 1.425 . S
C1041 C1038 1.409 . S
C1041 C1039 1.415 . S
C1042 H1032 0.930 . S
C1042 C1040 1.419 . S
C1042 C1043 1.362 . S
C1043 H1033 0.930 . S
C1043 C1036 1.409 . S
C1043 C1042 1.362 . S
H1044 C1050 0.930 . S
H1045 C1053 0.930 . S
H1046 C1054 0.930 . S
H1047 C1055 0.930 . S
H1048 C1058 0.930 . S
H1049 C1059 0.930 . S
C1050 H1044 0.930 . S
C1050 C1051 1.355 . S
C1050 C1052 1.415 . S
C1051 C1050 1.355 . S
C1051 C1053 1.419 . S
C1052 C1050 1.415 . S
C1052 C1057 1.425 . S
C1052 C1059 1.409 . S
C1053 H1045 0.930 . S
C1053 C1051 1.419 . S
C1053 C1054 1.362 . S
C1054 H1046 0.930 . S
C1054 C1053 1.362 . S
C1054 C1057 1.409 . S
C1055 H1047 0.930 . S
C1055 C1056 1.355 . S
C1055 C1057 1.415 . S
C1056 C1055 1.355 . S
C1056 C1058 1.419 . S
C1057 C1052 1.425 . S
C1057 C1054 1.409 . S
C1057 C1055 1.415 . S
C1058 H1048 0.930 . S
C1058 C1056 1.419 . S
C1058 C1059 1.362 . S
C1059 H1049 0.930 . S
C1059 C1052 1.409 . S
C1059 C1058 1.362 . S
H1060 C1066 0.930 . S
H1061 C1069 0.930 . S
H1062 C1070 0.930 . S
H1063 C1071 0.930 . S
H1064 C1074 0.930 . S
H1065 C1075 0.930 . S
C1066 H1060 0.930 . S
C1066 C1067 1.355 . S
C1066 C1068 1.415 . S
C1067 C1066 1.355 . S
C1067 C1069 1.419 . S
C1068 C1066 1.415 . S
C1068 C1073 1.425 . S
C1068 C1075 1.409 . S
C1069 H1061 0.930 . S
C1069 C1067 1.419 . S
C1069 C1070 1.362 . S
C1070 H1062 0.930 . S
C1070 C1069 1.362 . S
C1070 C1073 1.409 . S
C1071 H1063 0.930 . S
C1071 C1072 1.355 . S
C1071 C1073 1.415 . S
C1072 C1071 1.355 . S
C1072 C1074 1.419 . S
C1073 C1068 1.425 . S
C1073 C1070 1.409 . S
C1073 C1071 1.415 . S
C1074 H1064 0.930 . S
C1074 C1072 1.419 . S
C1074 C1075 1.362 . S
C1075 H1065 0.930 . S
C1075 C1068 1.409 . S
C1075 C1074 1.362 . S
H1076 C1082 0.930 . S
H1077 C1085 0.930 . S
H1078 C1086 0.930 . S
H1079 C1087 0.930 . S
H1080 C1090 0.930 . S
H1081 C1091 0.930 . S
C1082 H1076 0.930 . S
C1082 C1083 1.355 . S
C1082 C1084 1.415 . S
C1083 C1082 1.355 . S
C1083 C1085 1.419 . S
C1084 C1082 1.415 . S
C1084 C1089 1.425 . S
C1084 C1091 1.409 . S
C1085 H1077 0.930 . S
C1085 C1083 1.419 . S
C1085 C1086 1.362 . S
C1086 H1078 0.930 . S
C1086 C1085 1.362 . S
C1086 C1089 1.409 . S
C1087 H1079 0.930 . S
C1087 C1088 1.355 . S
C1087 C1089 1.415 . S
C1088 C1087 1.355 . S
C1088 C1090 1.419 . S
C1089 C1084 1.425 . S
C1089 C1086 1.409 . S
C1089 C1087 1.415 . S
C1090 H1080 0.930 . S
C1090 C1088 1.419 . S
C1090 C1091 1.362 . S
C1091 H1081 0.930 . S
C1091 C1084 1.409 . S
C1091 C1090 1.362 . S
H1092 C1098 0.930 . S
H1093 C1101 0.930 . S
H1094 C1102 0.930 . S
H1095 C1103 0.930 . S
H1096 C1106 0.930 . S
H1097 C1107 0.930 . S
C1098 H1092 0.930 . S
C1098 C1099 1.355 . S
C1098 C1100 1.415 . S
C1099 C1098 1.355 . S
C1099 C1101 1.419 . S
C1100 C1098 1.415 . S
C1100 C1105 1.425 . S
C1100 C1107 1.409 . S
C1101 H1093 0.930 . S
C1101 C1099 1.419 . S
C1101 C1102 1.362 . S
C1102 H1094 0.930 . S
C1102 C1101 1.362 . S
C1102 C1105 1.409 . S
C1103 H1095 0.930 . S
C1103 C1104 1.355 . S
C1103 C1105 1.415 . S
C1104 C1103 1.355 . S
C1104 C1106 1.419 . S
C1105 C1100 1.425 . S
C1105 C1102 1.409 . S
C1105 C1103 1.415 . S
C1106 H1096 0.930 . S
C1106 C1104 1.419 . S
C1106 C1107 1.362 . S
C1107 H1097 0.930 . S
C1107 C1100 1.409 . S
C1107 C1106 1.362 . S
H1108 C1114 0.930 . S
H1109 C1117 0.930 . S
H1110 C1118 0.930 . S
H1111 C1119 0.930 . S
H1112 C1122 0.930 . S
H1113 C1123 0.930 . S
C1114 H1108 0.930 . S
C1114 C1115 1.355 . S
C1114 C1116 1.415 . S
C1115 C1114 1.355 . S
C1115 C1117 1.419 . S
C1116 C1114 1.415 . S
C1116 C1121 1.425 . S
C1116 C1123 1.409 . S
C1117 H1109 0.930 . S
C1117 C1115 1.419 . S
C1117 C1118 1.362 . S
C1118 H1110 0.930 . S
C1118 C1117 1.362 . S
C1118 C1121 1.409 . S
C1119 H1111 0.930 . S
C1119 C1120 1.355 . S
C1119 C1121 1.415 . S
C1120 C1119 1.355 . S
C1120 C1122 1.419 . S
C1121 C1116 1.425 . S
C1121 C1118 1.409 . S
C1121 C1119 1.415 . S
C1122 H1112 0.930 . S
C1122 C1120 1.419 . S
C1122 C1123 1.362 . S
C1123 H1113 0.930 . S
C1123 C1116 1.409 . S
C1123 C1122 1.362 . S
H1124 C1130 0.930 . S
H1125 C1133 0.930 . S
H1126 C1134 0.930 . S
H1127 C1135 0.930 . S
H1128 C1138 0.930 . S
H1129 C1139 0.930 . S
C1130 H1124 0.930 . S
C1130 C1131 1.355 . S
C1130 C1132 1.415 . S
C1131 C1130 1.355 . S
C1131 C1133 1.419 . S
C1132 C1130 1.415 . S
C1132 C1137 1.425 . S
C1132 C1139 1.409 . S
C1133 H1125 0.930 . S
C1133 C1131 1.419 . S
C1133 C1134 1.362 . S
C1134 H1126 0.930 . S
C1134 C1133 1.362 . S
C1134 C1137 1.409 . S
C1135 H1127 0.930 . S
C1135 C1136 1.355 . S
C1135 C1137 1.415 . S
C1136 C1135 1.355 . S
C1136 C1138 1.419 . S
C1137 C1132 1.425 . S
C1137 C1134 1.409 . S
C1137 C1135 1.415 . S
C1138 H1128 0.930 . S
C1138 C1136 1.419 . S
C1138 C1139 1.362 . S
C1139 H1129 0.930 . S
C1139 C1132 1.409 . S
C1139 C1138 1.362 . S
H1140 C1146 0.930 . S
H1141 C1149 0.930 . S
H1142 C1150 0.930 . S
H1143 C1151 0.930 . S
H1144 C1154 0.930 . S
H1145 C1155 0.930 . S
C1146 H1140 0.930 . S
C1146 C1147 1.355 . S
C1146 C1148 1.415 . S
C1147 C1146 1.355 . S
C1147 C1149 1.419 . S
C1148 C1146 1.415 . S
C1148 C1153 1.425 . S
C1148 C1155 1.409 . S
C1149 H1141 0.930 . S
C1149 C1147 1.419 . S
C1149 C1150 1.362 . S
C1150 H1142 0.930 . S
C1150 C1149 1.362 . S
C1150 C1153 1.409 . S
C1151 H1143 0.930 . S
C1151 C1152 1.355 . S
C1151 C1153 1.415 . S
C1152 C1151 1.355 . S
C1152 C1154 1.419 . S
C1153 C1148 1.425 . S
C1153 C1150 1.409 . S
C1153 C1151 1.415 . S
C1154 H1144 0.930 . S
C1154 C1152 1.419 . S
C1154 C1155 1.362 . S
C1155 H1145 0.930 . S
C1155 C1148 1.409 . S
C1155 C1154 1.362 . S
H1156 C1162 0.930 . S
H1157 C1165 0.930 . S
H1158 C1166 0.930 . S
H1159 C1167 0.930 . S
H1160 C1170 0.930 . S
H1161 C1171 0.930 . S
C1162 H1156 0.930 . S
C1162 C1163 1.355 . S
C1162 C1164 1.415 . S
C1163 C1162 1.355 . S
C1163 C1165 1.419 . S
C1164 C1162 1.415 . S
C1164 C1169 1.425 . S
C1164 C1171 1.409 . S
C1165 H1157 0.930 . S
C1165 C1163 1.419 . S
C1165 C1166 1.362 . S
C1166 H1158 0.930 . S
C1166 C1165 1.362 . S
C1166 C1169 1.409 . S
C1167 H1159 0.930 . S
C1167 C1168 1.355 . S
C1167 C1169 1.415 . S
C1168 C1167 1.355 . S
C1168 C1170 1.419 . S
C1169 C1164 1.425 . S
C1169 C1166 1.409 . S
C1169 C1167 1.415 . S
C1170 H1160 0.930 . S
C1170 C1168 1.419 . S
C1170 C1171 1.362 . S
C1171 H1161 0.930 . S
C1171 C1164 1.409 . S
C1171 C1170 1.362 . S
H1172 C1178 0.930 . S
H1173 C1181 0.930 . S
H1174 C1182 0.930 . S
H1175 C1183 0.930 . S
H1176 C1186 0.930 . S
H1177 C1187 0.930 . S
C1178 H1172 0.930 . S
C1178 C1179 1.355 . S
C1178 C1180 1.415 . S
C1179 C1178 1.355 . S
C1179 C1181 1.419 . S
C1180 C1178 1.415 . S
C1180 C1185 1.425 . S
C1180 C1187 1.409 . S
C1181 H1173 0.930 . S
C1181 C1179 1.419 . S
C1181 C1182 1.362 . S
C1182 H1174 0.930 . S
C1182 C1181 1.362 . S
C1182 C1185 1.409 . S
C1183 H1175 0.930 . S
C1183 C1184 1.355 . S
C1183 C1185 1.415 . S
C1184 C1183 1.355 . S
C1184 C1186 1.419 . S
C1185 C1180 1.425 . S
C1185 C1182 1.409 . S
C1185 C1183 1.415 . S
C1186 H1176 0.930 . S
C1186 C1184 1.419 . S
C1186 C1187 1.362 . S
C1187 H1177 0.930 . S
C1187 C1180 1.409 . S
C1187 C1186 1.362 . S
H1188 C1194 0.930 . S
H1189 C1197 0.930 . S
H1190 C1198 0.930 . S
H1191 C1199 0.930 . S
H1192 C1202 0.930 . S
H1193 C1203 0.930 . S
C1194 H1188 0.930 . S
C1194 C1195 1.355 . S
C1194 C1196 1.415 . S
C1195 C1194 1.355 . S
C1195 C1197 1.419 . S
C1196 C1194 1.415 . S
C1196 C1201 1.425 . S
C1196 C1203 1.409 . S
C1197 H1189 0.930 . S
C1197 C1195 1.419 . S
C1197 C1198 1.362 . S
C1198 H1190 0.930 . S
C1198 C1197 1.362 . S
C1198 C1201 1.409 . S
C1199 H1191 0.930 . S
C1199 C1200 1.355 . S
C1199 C1201 1.415 . S
C1200 C1199 1.355 . S
C1200 C1202 1.419 . S
C1201 C1196 1.425 . S
C1201 C1198 1.409 . S
C1201 C1199 1.415 . S
C1202 H1192 0.930 . S
C1202 C1200 1.419 . S
C1202 C1203 1.362 . S
C1203 H1193 0.930 . S
C1203 C1196 1.409 . S
C1203 C1202 1.362 . S
H1204 C1210 0.930 . S
H1205 C1213 0.930 . S
H1206 C1214 0.930 . S
H1207 C1215 0.930 . S
H1208 C1218 0.930 . S
H1209 C1219 0.930 . S
C1210 H1204 0.930 . S
C1210 C1211 1.355 . S
C1210 C1212 1.415 . S
C1211 C1210 1.355 . S
C1211 C1213 1.419 . S
C1212 C1210 1.415 . S
C1212 C1217 1.425 . S
C1212 C1219 1.409 . S
C1213 H1205 0.930 . S
C1213 C1211 1.419 . S
C1213 C1214 1.362 . S
C1214 H1206 0.930 . S
C1214 C1213 1.362 . S
C1214 C1217 1.409 . S
C1215 H1207 0.930 . S
C1215 C1216 1.355 . S
C1215 C1217 1.415 . S
C1216 C1215 1.355 . S
C1216 C1218 1.419 . S
C1217 C1212 1.425 . S
C1217 C1214 1.409 . S
C1217 C1215 1.415 . S
C1218 H1208 0.930 . S
C1218 C1216 1.419 . S
C1218 C1219 1.362 . S
C1219 H1209 0.930 . S
C1219 C1212 1.409 . S
C1219 C1218 1.362 . S
H1220 C1226 0.930 . S
H1221 C1229 0.930 . S
H1222 C1230 0.930 . S
H1223 C1231 0.930 . S
H1224 C1234 0.930 . S
H1225 C1235 0.930 . S
C1226 H1220 0.930 . S
C1226 C1227 1.355 . S
C1226 C1228 1.415 . S
C1227 C1226 1.355 . S
C1227 C1229 1.419 . S
C1228 C1226 1.415 . S
C1228 C1233 1.425 . S
C1228 C1235 1.409 . S
C1229 H1221 0.930 . S
C1229 C1227 1.419 . S
C1229 C1230 1.362 . S
C1230 H1222 0.930 . S
C1230 C1229 1.362 . S
C1230 C1233 1.409 . S
C1231 H1223 0.930 . S
C1231 C1232 1.355 . S
C1231 C1233 1.415 . S
C1232 C1231 1.355 . S
C1232 C1234 1.419 . S
C1233 C1228 1.425 . S
C1233 C1230 1.409 . S
C1233 C1231 1.415 . S
C1234 H1224 0.930 . S
C1234 C1232 1.419 . S
C1234 C1235 1.362 . S
C1235 H1225 0.930 . S
C1235 C1228 1.409 . S
C1235 C1234 1.362 . S
H1236 C1242 0.930 . S
H1237 C1245 0.930 . S
H1238 C1246 0.930 . S
H1239 C1247 0.930 . S
H1240 C1250 0.930 . S
H1241 C1251 0.930 . S
C1242 H1236 0.930 . S
C1242 C1243 1.355 . S
C1242 C1244 1.415 . S
C1243 C1242 1.355 . S
C1243 C1245 1.419 . S
C1244 C1242 1.415 . S
C1244 C1249 1.425 . S
C1244 C1251 1.409 . S
C1245 H1237 0.930 . S
C1245 C1243 1.419 . S
C1245 C1246 1.362 . S
C1246 H1238 0.930 . S
C1246 C1245 1.362 . S
C1246 C1249 1.409 . S
C1247 H1239 0.930 . S
C1247 C1248 1.355 . S
C1247 C1249 1.415 . S
C1248 C1247 1.355 . S
C1248 C1250 1.419 . S
C1249 C1244 1.425 . S
C1249 C1246 1.409 . S
C1249 C1247 1.415 . S
C1250 H1240 0.930 . S
C1250 C1248 1.419 . S
C1250 C1251 1.362 . S
C1251 H1241 0.930 . S
C1251 C1244 1.409 . S
C1251 C1250 1.362 . S
H1252 C1258 0.930 . S
H1253 C1261 0.930 . S
H1254 C1262 0.930 . S
H1255 C1263 0.930 . S
H1256 C1266 0.930 . S
H1257 C1267 0.930 . S
C1258 H1252 0.930 . S
C1258 C1259 1.355 . S
C1258 C1260 1.415 . S
C1259 C1258 1.355 . S
C1259 C1261 1.419 . S
C1260 C1258 1.415 . S
C1260 C1265 1.425 . S
C1260 C1267 1.409 . S
C1261 H1253 0.930 . S
C1261 C1259 1.419 . S
C1261 C1262 1.362 . S
C1262 H1254 0.930 . S
C1262 C1261 1.362 . S
C1262 C1265 1.409 . S
C1263 H1255 0.930 . S
C1263 C1264 1.355 . S
C1263 C1265 1.415 . S
C1264 C1263 1.355 . S
C1264 C1266 1.419 . S
C1265 C1260 1.425 . S
C1265 C1262 1.409 . S
C1265 C1263 1.415 . S
C1266 H1256 0.930 . S
C1266 C1264 1.419 . S
C1266 C1267 1.362 . S
C1267 H1257 0.930 . S
C1267 C1260 1.409 . S
C1267 C1266 1.362 . S
H1268 C1274 0.930 . S
H1269 C1277 0.930 . S
H1270 C1278 0.930 . S
H1271 C1279 0.930 . S
H1272 C1282 0.930 . S
H1273 C1283 0.930 . S
C1274 H1268 0.930 . S
C1274 C1275 1.355 . S
C1274 C1276 1.415 . S
C1275 C1274 1.355 . S
C1275 C1277 1.419 . S
C1276 C1274 1.415 . S
C1276 C1281 1.425 . S
C1276 C1283 1.409 . S
C1277 H1269 0.930 . S
C1277 C1275 1.419 . S
C1277 C1278 1.362 . S
C1278 H1270 0.930 . S
C1278 C1277 1.362 . S
C1278 C1281 1.409 . S
C1279 H1271 0.930 . S
C1279 C1280 1.355 . S
C1279 C1281 1.415 . S
C1280 C1279 1.355 . S
C1280 C1282 1.419 . S
C1281 C1276 1.425 . S
C1281 C1278 1.409 . S
C1281 C1279 1.415 . S
C1282 H1272 0.930 . S
C1282 C1280 1.419 . S
C1282 C1283 1.362 . S
C1283 H1273 0.930 . S
C1283 C1276 1.409 . S
C1283 C1282 1.362 . S
H1284 C1290 0.930 . S
H1285 C1293 0.930 . S
H1286 C1294 0.930 . S
H1287 C1295 0.930 . S
H1288 C1298 0.930 . S
H1289 C1299 0.930 . S
C1290 H1284 0.930 . S
C1290 C1291 1.355 . S
C1290 C1292 1.415 . S
C1291 C1290 1.355 . S
C1291 C1293 1.419 . S
C1292 C1290 1.415 . S
C1292 C1297 1.425 . S
C1292 C1299 1.409 . S
C1293 H1285 0.930 . S
C1293 C1291 1.419 . S
C1293 C1294 1.362 . S
C1294 H1286 0.930 . S
C1294 C1293 1.362 . S
C1294 C1297 1.409 . S
C1295 H1287 0.930 . S
C1295 C1296 1.355 . S
C1295 C1297 1.415 . S
C1296 C1295 1.355 . S
C1296 C1298 1.419 . S
C1297 C1292 1.425 . S
C1297 C1294 1.409 . S
C1297 C1295 1.415 . S
C1298 H1288 0.930 . S
C1298 C1296 1.419 . S
C1298 C1299 1.362 . S
C1299 H1289 0.930 . S
C1299 C1292 1.409 . S
C1299 C1298 1.362 . S
H1300 C1306 0.930 . S
H1301 C1309 0.930 . S
H1302 C1310 0.930 . S
H1303 C1311 0.930 . S
H1304 C1314 0.930 . S
H1305 C1315 0.930 . S
C1306 H1300 0.930 . S
C1306 C1307 1.355 . S
C1306 C1308 1.415 . S
C1307 C1306 1.355 . S
C1307 C1309 1.419 . S
C1308 C1306 1.415 . S
C1308 C1313 1.425 . S
C1308 C1315 1.409 . S
C1309 H1301 0.930 . S
C1309 C1307 1.419 . S
C1309 C1310 1.362 . S
C1310 H1302 0.930 . S
C1310 C1309 1.362 . S
C1310 C1313 1.409 . S
C1311 H1303 0.930 . S
C1311 C1312 1.355 . S
C1311 C1313 1.415 . S
C1312 C1311 1.355 . S
C1312 C1314 1.419 . S
C1313 C1308 1.425 . S
C1313 C1310 1.409 . S
C1313 C1311 1.415 . S
C1314 H1304 0.930 . S
C1314 C1312 1.419 . S
C1314 C1315 1.362 . S
C1315 H1305 0.930 . S
C1315 C1308 1.409 . S
C1315 C1314 1.362 . S
H1316 C1322 0.930 . S
H1317 C1325 0.930 . S
H1318 C1326 0.930 . S
H1319 C1327 0.930 . S
H1320 C1330 0.930 . S
H1321 C1331 0.930 . S
C1322 H1316 0.930 . S
C1322 C1323 1.355 . S
C1322 C1324 1.415 . S
C1323 C1322 1.355 . S
C1323 C1325 1.419 . S
C1324 C1322 1.415 . S
C1324 C1329 1.425 . S
C1324 C1331 1.409 . S
C1325 H1317 0.930 . S
C1325 C1323 1.419 . S
C1325 C1326 1.362 . S
C1326 H1318 0.930 . S
C1326 C1325 1.362 . S
C1326 C1329 1.409 . S
C1327 H1319 0.930 . S
C1327 C1328 1.355 . S
C1327 C1329 1.415 . S
C1328 C1327 1.355 . S
C1328 C1330 1.419 . S
C1329 C1324 1.425 . S
C1329 C1326 1.409 . S
C1329 C1327 1.415 . S
C1330 H1320 0.930 . S
C1330 C1328 1.419 . S
C1330 C1331 1.362 . S
C1331 H1321 0.930 . S
C1331 C1324 1.409 . S
C1331 C1330 1.362 . S
H1332 C1338 0.930 . S
H1333 C1341 0.930 . S
H1334 C1342 0.930 . S
H1335 C1343 0.930 . S
H1336 C1346 0.930 . S
H1337 C1347 0.930 . S
C1338 H1332 0.930 . S
C1338 C1339 1.355 . S
C1338 C1340 1.415 . S
C1339 C1338 1.355 . S
C1339 C1341 1.419 . S
C1340 C1338 1.415 . S
C1340 C1345 1.425 . S
C1340 C1347 1.409 . S
C1341 H1333 0.930 . S
C1341 C1339 1.419 . S
C1341 C1342 1.362 . S
C1342 H1334 0.930 . S
C1342 C1341 1.362 . S
C1342 C1345 1.409 . S
C1343 H1335 0.930 . S
C1343 C1344 1.355 . S
C1343 C1345 1.415 . S
C1344 C1343 1.355 . S
C1344 C1346 1.419 . S
C1345 C1340 1.425 . S
C1345 C1342 1.409 . S
C1345 C1343 1.415 . S
C1346 H1336 0.930 . S
C1346 C1344 1.419 . S
C1346 C1347 1.362 . S
C1347 H1337 0.930 . S
C1347 C1340 1.409 . S
C1347 C1346 1.362 . S
H1348 C1354 0.930 . S
H1349 C1357 0.930 . S
H1350 C1358 0.930 . S
H1351 C1359 0.930 . S
H1352 C1362 0.930 . S
H1353 C1363 0.930 . S
C1354 H1348 0.930 . S
C1354 C1355 1.355 . S
C1354 C1356 1.415 . S
C1355 C1354 1.355 . S
C1355 C1357 1.419 . S
C1356 C1354 1.415 . S
C1356 C1361 1.425 . S
C1356 C1363 1.409 . S
C1357 H1349 0.930 . S
C1357 C1355 1.419 . S
C1357 C1358 1.362 . S
C1358 H1350 0.930 . S
C1358 C1357 1.362 . S
C1358 C1361 1.409 . S
C1359 H1351 0.930 . S
C1359 C1360 1.355 . S
C1359 C1361 1.415 . S
C1360 C1359 1.355 . S
C1360 C1362 1.419 . S
C1361 C1356 1.425 . S
C1361 C1358 1.409 . S
C1361 C1359 1.415 . S
C1362 H1352 0.930 . S
C1362 C1360 1.419 . S
C1362 C1363 1.362 . S
C1363 H1353 0.930 . S
C1363 C1356 1.409 . S
C1363 C1362 1.362 . S
C608 C282 1.552 . S
C603 N2 1.495 . S
C624 C325 2.286 . S
C619 C7 2.272 . S
C640 C362 1.579 . S
C635 N12 1.397 . S
C651 C16 2.202 1_565 S
C656 C405 2.279 . S
C672 C454 2.510 . S
C667 C30 2.442 1_565 S
C688 C491 1.404 . S
C683 N35 1.295 . S
C699 C39 2.445 . S
C704 C534 2.503 . S
C720 C571 1.361 . S
C715 N25 1.165 . S
C736 C286 1.408 . S
C731 N58 1.364 . S
C747 N81 1.947 . S
C752 C335 1.972 . S
C768 C366 1.395 . S
C763 N104 1.352 . S
C779 N127 1.983 . S
C784 C415 1.990 . S
C800 C442 1.066 . S
C795 N48 1.089 . S
C816 C485 1.521 . S
C811 N71 1.551 . S
C827 N94 1.109 . S
C832 C522 0.971 . S
C848 C565 1.442 . S
C843 N117 1.497 . S
C859 C85 2.159 . S
C864 C294 1.962 . S
C875 C122 2.410 . S
C880 C446 2.374 . S
C891 C53 2.119 . S
C896 C495 2.126 . S
C912 C526 2.417 . S
C907 C76 2.462 . S
C928 C575 2.109 . S
C923 C99 2.097 . S
C944 C374 2.004 . S
C939 C131 2.140 . S
C960 C411 1.330 . S
C955 C62 1.373 . S
C971 C108 1.330 . S
C976 C331 1.252 . S
C992 C562 1.711 . S
C987 N140 1.715 . S
C1003 C145 2.222 . S
C1008 C445 2.284 . S
C1024 C482 1.519 . S
C1019 N150 1.404 . S
C1035 C154 2.205 . S
C1040 C525 2.286 . S
C1056 C334 2.455 . S
C1051 C168 2.401 . S
C1067 N173 1.199 . S
C1072 C371 1.245 . S
C1088 C414 2.488 . S
C1083 C177 2.421 . S
C1104 C291 1.497 . S
C1099 N163 1.385 . S
C1120 C566 1.880 . S
C1115 C200 1.830 . S
C1136 C455 2.231 . S
C1131 N219 2.257 . S
C1147 N242 1.549 . S
C1152 C486 1.635 . S
C1168 C535 2.339 . S
C1163 C269 2.426 . S
C1184 C322 1.326 . S
C1179 C191 1.397 . S
C1195 N209 1.789 . S
C1200 C365 1.746 . S
C1211 N232 1.279 . S
C1216 C402 1.209 . S
C1227 C260 2.026 . S
C1232 C285 1.914 . S
C1243 C223 1.867 . S
C1248 C574 1.704 . S
C1259 N255 1.989 . S
C1264 C326 1.987 . S
C1275 N186 1.634 . S
C1280 C375 1.668 . S
C1296 C406 2.093 . S
C1291 C214 2.141 . S
C1312 C295 1.866 . S
C1307 C237 1.853 . S
C1328 C494 1.580 . S
C1323 N265 1.643 . S
C1344 C531 0.917 . S
C1339 N196 0.996 . S
C1360 C451 1.152 . S
C1355 C246 1.182 . S
