# Generated by pormake.
# Topology pyr, (3,6)-cn, num edge types: 1
# Building blocks:
#     Node 0, Type 0, BuildingBlock: OLANEW_clean_sbu_2, # of connection points: 3
#     Node 1, Type 0, BuildingBlock: OLANEW_clean_sbu_2, # of connection points: 3
#     Node 2, Type 0, BuildingBlock: OLANEW_clean_sbu_2, # of connection points: 3
#     Node 3, Type 0, BuildingBlock: OLANEW_clean_sbu_2, # of connection points: 3
#     Node 4, Type 0, BuildingBlock: OLANEW_clean_sbu_2, # of connection points: 3
#     Node 5, Type 0, BuildingBlock: OLANEW_clean_sbu_2, # of connection points: 3
#     Node 6, Type 0, BuildingBlock: OLANEW_clean_sbu_2, # of connection points: 3
#     Node 7, Type 0, BuildingBlock: OLANEW_clean_sbu_2, # of connection points: 3
#     Node 8, Type 1, BuildingBlock: BETDIP_clean_sbu_0, # of connection points: 6
#     Node 9, Type 1, BuildingBlock: BETDIP_clean_sbu_0, # of connection points: 6
#     Node 10, Type 1, BuildingBlock: BETDIP_clean_sbu_0, # of connection points: 6
#     Node 11, Type 1, BuildingBlock: BETDIP_clean_sbu_0, # of connection points: 6
#     Edge 12, Type (0, 1), BuildingBlock: EYOCIG_clean_linker_4, # of connection points: 2
#     Edge 13, Type (0, 1), BuildingBlock: EYOCIG_clean_linker_4, # of connection points: 2
#     Edge 14, Type (0, 1), BuildingBlock: EYOCIG_clean_linker_4, # of connection points: 2
#     Edge 15, Type (0, 1), BuildingBlock: EYOCIG_clean_linker_4, # of connection points: 2
#     Edge 16, Type (0, 1), BuildingBlock: EYOCIG_clean_linker_4, # of connection points: 2
#     Edge 17, Type (0, 1), BuildingBlock: EYOCIG_clean_linker_4, # of connection points: 2
#     Edge 18, Type (0, 1), BuildingBlock: EYOCIG_clean_linker_4, # of connection points: 2
#     Edge 19, Type (0, 1), BuildingBlock: EYOCIG_clean_linker_4, # of connection points: 2
#     Edge 20, Type (0, 1), BuildingBlock: EYOCIG_clean_linker_4, # of connection points: 2
#     Edge 21, Type (0, 1), BuildingBlock: EYOCIG_clean_linker_4, # of connection points: 2
#     Edge 22, Type (0, 1), BuildingBlock: EYOCIG_clean_linker_4, # of connection points: 2
#     Edge 23, Type (0, 1), BuildingBlock: EYOCIG_clean_linker_4, # of connection points: 2
#     Edge 24, Type (0, 1), BuildingBlock: EYOCIG_clean_linker_4, # of connection points: 2
#     Edge 25, Type (0, 1), BuildingBlock: EYOCIG_clean_linker_4, # of connection points: 2
#     Edge 26, Type (0, 1), BuildingBlock: EYOCIG_clean_linker_4, # of connection points: 2
#     Edge 27, Type (0, 1), BuildingBlock: EYOCIG_clean_linker_4, # of connection points: 2
#     Edge 28, Type (0, 1), BuildingBlock: EYOCIG_clean_linker_4, # of connection points: 2
#     Edge 29, Type (0, 1), BuildingBlock: EYOCIG_clean_linker_4, # of connection points: 2
#     Edge 30, Type (0, 1), BuildingBlock: EYOCIG_clean_linker_4, # of connection points: 2
#     Edge 31, Type (0, 1), BuildingBlock: EYOCIG_clean_linker_4, # of connection points: 2
#     Edge 32, Type (0, 1), BuildingBlock: EYOCIG_clean_linker_4, # of connection points: 2
#     Edge 33, Type (0, 1), BuildingBlock: EYOCIG_clean_linker_4, # of connection points: 2
#     Edge 34, Type (0, 1), BuildingBlock: EYOCIG_clean_linker_4, # of connection points: 2
#     Edge 35, Type (0, 1), BuildingBlock: EYOCIG_clean_linker_4, # of connection points: 2
# Relax obj value: 0.200
# Max RMSD: 0.243
# Mean RMSD: 0.146
data_MOF--net-pyr--node1-OLANEW_clean_sbu_2--node2-BETDIP_clean_sbu_0--edge1-EYOCIG_clean_linker_4
_symmetry_space_group_name_H-M    P1
_symmetry_Int_Tables_number       1
_symmetry_cell_setting            triclinic
loop_
_symmetry_equiv_pos_as_xyz
'x, y, z'
_cell_length_a     31.446657
_cell_length_b     33.646103
_cell_length_c     31.327918
_cell_angle_alpha  91.927801
_cell_angle_beta   93.317331
_cell_angle_gamma 106.5455
loop_
_atom_site_label
_atom_site_type_symbol
_atom_site_fract_x
_atom_site_fract_y
_atom_site_fract_z
_atom_type_partial_charge
O0 O 0.41517 0.31401 0.26487 0.0
Cd1 Cd 0.35842 0.34077 0.28983 0.0
O2 O 0.35284 0.2639 0.25765 0.0
Cd3 Cd 0.31361 0.19891 0.25331 0.0
O4 O 0.29234 0.21627 0.31325 0.0
C5 C 0.31722 0.21863 0.34704 0.0
O6 O 0.35314 0.20623 0.34623 0.0
C7 C 0.39474 0.27631 0.2566 0.0
C8 C 0.31366 0.36435 0.22274 0.0
O9 O 0.35214 0.38738 0.2367 0.0
O10 O 0.29676 0.32993 0.2399 0.0
O11 O 0.13488 0.78109 0.85243 0.0
Cd12 Cd 0.10242 0.73035 0.79607 0.0
O13 O 0.08279 0.8067 0.87603 0.0
Cd14 Cd 0.03061 0.76595 0.83287 0.0
O15 O 0.02604 0.80694 0.78226 0.0
C16 C 0.01907 0.84076 0.7943 0.0
O17 O 0.00897 0.84625 0.8337 0.0
C18 C 0.12302 0.80638 0.87629 0.0
C19 C 0.17847 0.70844 0.77572 0.0
O20 O 0.17849 0.74622 0.77972 0.0
O21 O 0.14193 0.68014 0.77906 0.0
O22 O 0.74478 0.44367 0.91193 0.0
Cd23 Cd 0.673 0.40776 0.87158 0.0
O24 O 0.75821 0.38864 0.94013 0.0
Cd25 Cd 0.69676 0.3418 0.91515 0.0
O26 O 0.63983 0.29445 0.938 0.0
C27 C 0.64848 0.2812 0.97408 0.0
O28 O 0.68899 0.29467 0.9922 0.0
C29 C 0.7691 0.4276 0.93558 0.0
C30 C 0.64422 0.45124 0.80562 0.0
O31 O 0.64951 0.46516 0.84462 0.0
O32 O 0.65309 0.41715 0.79692 0.0
O33 O 0.90468 0.82291 0.41243 0.0
Cd34 Cd 0.87767 0.75412 0.36672 0.0
O35 O 0.88687 0.79485 0.47397 0.0
Cd36 Cd 0.86197 0.73242 0.44501 0.0
O37 O 0.79451 0.69276 0.44607 0.0
C38 C 0.77402 0.71048 0.47058 0.0
O39 O 0.79481 0.74684 0.48926 0.0
C40 C 0.90135 0.82682 0.45288 0.0
C41 C 0.9138 0.71416 0.30154 0.0
O42 O 0.90331 0.74762 0.2944 0.0
O43 O 0.91009 0.70089 0.33937 0.0
O44 O 0.64789 0.82436 0.90013 0.0
Cd45 Cd 0.62744 0.79125 0.96602 0.0
O46 O 0.66306 0.87584 0.94726 0.0
Cd47 Cd 0.6908 0.93465 0.98189 0.0
O48 O 0.62509 0.90939 1.00443 0.0
C49 C 0.59263 0.91071 0.97916 0.0
O50 O 0.60118 0.92932 0.94322 0.0
C51 C 0.66677 0.86219 0.90999 0.0
C52 C 0.70395 0.77042 0.9903 0.0
O53 O 0.67446 0.74666 0.96367 0.0
O54 O 0.69624 0.80244 1.00753 0.0
O55 O 0.9002 0.30418 0.39516 0.0
Cd56 Cd 0.97782 0.33138 0.42299 0.0
O57 O 0.89252 0.36284 0.37172 0.0
Cd58 Cd 0.94693 0.40242 0.4132 0.0
O59 O 0.89744 0.41989 0.45124 0.0
C60 C 0.86846 0.43179 0.42918 0.0
O61 O 0.87287 0.4368 0.38818 0.0
C62 C 0.87748 0.32405 0.375 0.0
C63 C 0.99274 0.27408 0.48018 0.0
O64 O 0.96212 0.26467 0.45027 0.0
O65 O 0.01846 0.31113 0.48383 0.0
O66 O 0.41483 0.83377 0.30246 0.0
Cd67 Cd 0.38907 0.76737 0.34344 0.0
O68 O 0.34852 0.84096 0.2831 0.0
Cd69 Cd 0.30757 0.78535 0.30995 0.0
O70 O 0.26269 0.72882 0.279 0.0
C71 C 0.24474 0.73438 0.24323 0.0
O72 O 0.2518 0.77212 0.22986 0.0
C73 C 0.39059 0.85313 0.28258 0.0
C74 C 0.42643 0.72794 0.41011 0.0
O75 O 0.44899 0.74301 0.37862 0.0
O76 O 0.38788 0.73329 0.41194 0.0
O77 O 0.19527 0.45384 0.87619 0.0
Cd78 Cd 0.23595 0.42 0.82959 0.0
O79 O 0.15451 0.39734 0.9047 0.0
Cd80 Cd 0.17658 0.35187 0.86657 0.0
O81 O 0.16119 0.30062 0.81739 0.0
C82 C 0.12257 0.27483 0.81461 0.0
O83 O 0.0937 0.27814 0.84218 0.0
C84 C 0.16579 0.43648 0.90117 0.0
C85 C 0.30151 0.46479 0.77767 0.0
O86 O 0.26496 0.47392 0.78023 0.0
O87 O 0.30879 0.43711 0.80163 0.0
Tb88 Tb 0.96179 0.04518 0.65825 0.0
Tb89 Tb 0.04631 0.06355 0.60711 0.0
C90 C 0.89265 1.00732 0.69251 0.0
C91 C 0.88108 0.97994 0.72856 0.0
C92 C 0.86527 0.93659 0.72076 0.0
C93 C 0.84095 0.91182 0.751 0.0
C94 C 0.83229 0.93063 0.78867 0.0
C95 C 0.85443 0.97226 0.7997 0.0
C96 C 0.87852 0.99705 0.76959 0.0
C97 C 0.02526 0.11131 0.68635 0.0
C98 C 0.03816 1.00202 0.68023 0.0
C99 C 0.11649 0.10502 0.57697 0.0
C100 C 0.12948 0.13336 0.54186 0.0
C101 C 0.14363 0.17645 0.55154 0.0
C102 C 0.16718 0.20339 0.52268 0.0
C103 C 0.17713 0.18746 0.48412 0.0
C104 C 0.15834 0.14535 0.47172 0.0
C105 C 0.13445 0.11825 0.50056 0.0
C106 C 0.98192 0.99938 0.57427 0.0
C107 C 0.97194 0.10861 0.58703 0.0
O108 O 0.90695 0.99231 0.65886 0.0
O109 O 0.91401 0.04635 0.70208 0.0
O110 O 0.03073 0.07815 0.67029 0.0
O111 O 0.98374 0.10535 0.69313 0.0
O112 O 0.99822 1.00554 0.68647 0.0
O113 O 0.06515 1.02391 0.65326 0.0
O114 O 0.09795 0.11869 0.60845 0.0
O115 O 0.09837 0.06538 0.56706 0.0
O116 O 0.97706 1.03082 0.59486 0.0
O117 O 0.02287 1.00798 0.56441 0.0
O118 O 0.01173 0.10491 0.58127 0.0
O119 O 0.94344 0.08532 0.61205 0.0
H120 H 0.86768 0.9224 0.6898 0.0
H121 H 0.82447 0.87933 0.74257 0.0
H122 H 0.84848 0.9868 0.8293 0.0
H123 H 0.89119 1.03015 0.77704 0.0
H124 H 0.13987 0.18911 0.58287 0.0
H125 H 0.18143 0.23594 0.53241 0.0
H126 H 0.16561 0.1328 0.44157 0.0
H127 H 0.12325 0.08531 0.49183 0.0
Tb128 Tb 0.5336 0.09494 0.15991 0.0
Tb129 Tb 0.44375 0.06635 0.09733 0.0
C130 C 0.60068 0.14518 0.19789 0.0
C131 C 0.61373 0.17567 0.23488 0.0
C132 C 0.62714 0.21829 0.22735 0.0
C133 C 0.65536 0.24652 0.25762 0.0
C134 C 0.67031 0.23214 0.29537 0.0
C135 C 0.65093 0.19121 0.30613 0.0
C136 C 0.62271 0.16291 0.2759 0.0
C137 C 0.47731 1.02437 0.17867 0.0
C138 C 0.44749 0.12309 0.178 0.0
C139 C 0.37384 1.02105 1.06009 0.0
C140 C 0.36121 0.99134 1.02281 0.0
C141 C 0.34831 0.94866 1.02978 0.0
C142 C 0.32325 0.9205 0.998 0.0
C143 C 0.31079 0.93498 0.95937 0.0
C144 C 0.32963 0.97627 0.94958 0.0
C145 C 0.35475 1.00465 0.98146 0.0
C146 C 0.50417 0.13318 0.07262 0.0
C147 C 0.52688 1.03407 0.08129 0.0
O148 O 0.57827 0.15463 0.16512 0.0
O149 O 0.58763 0.10558 0.2055 0.0
O150 O 0.4679 0.05388 0.15966 0.0
O151 O 0.51825 1.03776 0.1946 0.0
O152 O 0.48931 0.12482 0.18819 0.0
O153 O 0.42191 0.10121 0.14554 0.0
O154 O 0.39466 1.00964 0.09284 0.0
O155 O 0.38943 0.06066 1.05301 0.0
O156 O 0.50625 0.10979 0.10243 0.0
O157 O 0.46516 0.11779 1.053 0.0
O158 O 0.4845 1.0309 0.07314 0.0
O159 O 0.55454 0.06026 0.10992 0.0
H160 H 0.62015 0.22916 0.1963 0.0
H161 H 0.66977 0.27827 0.24911 0.0
H162 H 0.66186 0.17986 0.33554 0.0
H163 H 0.61214 0.13043 0.28305 0.0
H164 H 0.35353 0.93744 1.0611 0.0
H165 H 0.30908 0.88844 1.00565 0.0
H166 H 0.32039 0.98758 0.91946 0.0
H167 H 0.36518 1.03728 0.97491 0.0
Tb168 Tb 0.52434 0.61942 0.63779 0.0
Tb169 Tb 0.53248 0.54696 0.57851 0.0
C170 C 0.48822 0.67116 0.66778 0.0
C171 C 0.44787 0.67156 0.69044 0.0
C172 C 0.40777 0.66914 0.66656 0.0
C173 C 0.37081 0.67362 0.68665 0.0
C174 C 0.37285 0.68066 0.73101 0.0
C175 C 0.41231 0.68258 0.75549 0.0
C176 C 0.44964 0.6781 0.7353 0.0
C177 C 0.56852 0.57135 0.67199 0.0
C178 C 0.44983 0.5307 0.63433 0.0
C179 C 0.57131 0.49674 0.54831 0.0
C180 C 0.6121 0.49531 0.52602 0.0
C181 C 0.65205 0.49791 0.55042 0.0
C182 C 0.68784 0.48871 0.53185 0.0
C183 C 0.68495 0.47656 0.48842 0.0
C184 C 0.64642 0.4761 0.46297 0.0
C185 C 0.61025 0.48533 0.48165 0.0
C186 C 0.49073 0.59734 0.54292 0.0
C187 C 0.60682 0.6363 0.58469 0.0
O188 O 0.4812 0.65572 0.62815 0.0
O189 O 0.52058 0.66081 0.6887 0.0
O190 O 0.53514 0.56037 0.64551 0.0
O191 O 0.57563 0.61029 0.68382 0.0
O192 O 0.46292 0.5707 0.64565 0.0
O193 O 0.47305 0.51255 0.60994 0.0
O194 O 0.57772 0.51243 0.58777 0.0
O195 O 0.53851 0.50628 0.52727 0.0
O196 O 0.52286 0.60649 0.57076 0.0
O197 O 0.48343 0.55843 0.53059 0.0
O198 O 0.59449 0.59621 0.57356 0.0
O199 O 0.58292 0.65433 0.60775 0.0
H200 H 0.40506 0.66468 0.63201 0.0
H201 H 0.34062 0.6721 0.66728 0.0
H202 H 0.41446 0.68805 0.78994 0.0
H203 H 0.48006 0.68058 0.75463 0.0
H204 H 0.65514 0.50524 0.58457 0.0
H205 H 0.71735 0.48964 0.552 0.0
H206 H 0.6436 0.4672 0.42913 0.0
H207 H 0.58019 0.48287 0.46176 0.0
Tb208 Tb 0.01837 0.60945 1.05576 0.0
Tb209 Tb 0.02621 0.53853 0.10965 0.0
C210 C 0.98256 0.65802 1.01918 0.0
C211 C 0.95355 0.68385 1.03131 0.0
C212 C 0.90762 0.66518 1.03292 0.0
C213 C 0.87857 0.68934 1.03501 0.0
C214 C 0.8946 0.73252 1.03558 0.0
C215 C 0.94058 0.7519 1.0382 0.0
C216 C 0.97007 0.7275 1.03609 0.0
C217 C 0.09323 0.62283 0.10229 0.0
C218 C 0.9828 0.60191 0.15113 0.0
C219 C 0.06593 0.49261 0.14591 0.0
C220 C 0.0947 0.46651 0.13371 0.0
C221 C 0.14081 0.48486 0.13276 0.0
C222 C 0.1696 0.46038 0.1309 0.0
C223 C 0.15305 0.41723 0.12971 0.0
C224 C 0.10703 0.39824 0.12683 0.0
C225 C 0.07785 0.42291 0.12879 0.0
C226 C 0.951 0.52374 1.06266 0.0
C227 C 0.06392 0.54785 1.01559 0.0
O228 O 0.9648 0.61767 1.01862 0.0
O229 O 0.02407 0.66954 1.03474 0.0
O230 O 0.05512 0.6035 0.11259 0.0
O231 O 0.09003 0.63933 1.06577 0.0
O232 O 0.98409 0.61844 0.11326 0.0
O233 O 0.00013 0.57101 0.15905 0.0
O234 O 0.08294 0.53273 0.14337 0.0
O235 O 0.02349 0.47995 0.1334 0.0
O236 O 0.98899 0.54398 1.05231 0.0
O237 O 0.95495 0.50727 0.09914 0.0
O238 O 0.06079 0.53018 1.05273 0.0
O239 O 0.04679 0.57867 1.00712 0.0
H240 H 0.89354 0.63179 1.02987 0.0
H241 H 0.84309 0.67406 1.03335 0.0
H242 H 0.95342 0.78544 1.03902 0.0
H243 H 0.00536 0.74273 1.03548 0.0
H244 H 0.15516 0.51821 0.13624 0.0
H245 H 0.20517 0.47534 0.13317 0.0
H246 H 0.09387 0.36472 0.12603 0.0
H247 H 0.04251 0.4079 0.12918 0.0
C248 C 0.27911 0.23364 0.4146 0.0
C249 C 0.30085 0.22704 0.38658 0.0
C250 C 0.24438 0.22742 0.44177 0.0
C251 C 0.21401 0.21163 0.46276 0.0
C252 C 0.19255 0.8631 0.91009 0.0
C253 C 0.15765 0.83933 0.89709 0.0
C254 C 0.23521 0.88903 0.92237 0.0
C255 C 0.26989 0.91166 0.93733 0.0
C256 C 0.61477 0.49374 0.74669 0.0
C257 C 0.62825 0.47345 0.7726 0.0
C258 C 0.59881 0.51933 0.71849 0.0
C259 C 0.58456 0.54251 0.69687 0.0
C260 C 0.9394 0.66938 0.24126 0.0
C261 C 0.92764 0.69075 0.26767 0.0
C262 C 0.9535 0.64333 0.21143 0.0
C263 C 0.96722 0.6229 0.18564 0.0
C264 C 0.42861 0.21703 0.24114 0.0
C265 C 0.41822 0.24745 0.24889 0.0
C266 C 0.42982 0.17952 0.22351 0.0
C267 C 0.43242 0.15178 0.20076 0.0
C268 C 0.0403 0.90554 0.74713 0.0
C269 C 0.03079 0.87548 0.76807 0.0
C270 C 0.04963 0.94121 0.72349 0.0
C271 C 0.05005 0.97012 0.70212 0.0
C272 C 0.8409 0.47367 0.98176 0.0
C273 C 0.80795 0.4539 0.96011 0.0
C274 C 0.87952 0.49403 1.00876 0.0
C275 C 0.9127 0.50825 1.03246 0.0
C276 C 0.69944 0.67916 0.50446 0.0
C277 C 0.73219 0.68878 0.48507 0.0
C278 C 0.66761 0.67137 0.53481 0.0
C279 C 0.64028 0.66066 0.56034 0.0
C280 C 0.25823 0.38278 0.16752 0.0
C281 C 0.28727 0.37832 0.19165 0.0
C282 C 0.21831 0.38615 0.14788 0.0
C283 C 0.18449 0.39457 0.13846 0.0
C284 C 0.58987 0.22769 1.01724 0.0
C285 C 0.61483 0.25201 0.99582 0.0
C286 C 0.56264 0.19696 1.04187 0.0
C287 C 0.53855 0.16788 1.05874 0.0
C288 C 0.91914 0.8981 0.49991 0.0
C289 C 0.91194 0.86724 0.47589 0.0
C290 C 0.93072 0.93355 0.52965 0.0
C291 C 0.94792 0.9646 0.5527 0.0
C292 C 0.25548 0.69373 0.76526 0.0
C293 C 0.21942 0.69862 0.76997 0.0
C294 C 0.29837 0.68974 0.75919 0.0
C295 C 0.33393 0.68611 0.75001 0.0
C296 C 0.72567 0.89596 0.85696 0.0
C297 C 0.69955 0.88472 0.88352 0.0
C298 C 0.76098 0.90314 0.83028 0.0
C299 C 0.79268 0.91224 0.80933 0.0
C300 C 0.7936 0.28934 0.34831 0.0
C301 C 0.832 0.30401 0.36091 0.0
C302 C 0.74883 0.27233 0.3329 0.0
C303 C 0.71307 0.25441 0.31546 0.0
C304 C 0.45461 0.68115 0.46656 0.0
C305 C 0.44222 0.70251 0.44064 0.0
C306 C 0.46735 0.65314 0.49483 0.0
C307 C 0.47822 0.628 0.51695 0.0
C308 C 0.1239 0.48326 0.94109 0.0
C309 C 0.14253 0.46126 0.92322 0.0
C310 C 0.10236 0.50929 0.9621 0.0
C311 C 0.08433 0.52961 0.98326 0.0
C312 C 0.53758 0.93388 1.01976 0.0
C313 C 0.55401 0.9133 0.99834 0.0
C314 C 0.53782 0.96972 1.04303 0.0
C315 C 0.5394 1.00115 1.06247 0.0
C316 C 0.98696 0.21299 0.53006 0.0
C317 C 0.99455 0.24387 0.51037 0.0
C318 C 0.97183 0.17562 0.55043 0.0
C319 C 0.96397 0.14386 0.56862 0.0
C320 C 0.1929 0.67525 0.19113 0.0
C321 C 0.21697 0.70006 0.21697 0.0
C322 C 0.16077 0.65242 0.15949 0.0
C323 C 0.1299 0.63887 0.13342 0.0
C324 C 0.3558 0.48973 0.71614 0.0
C325 C 0.32996 0.47947 0.74362 0.0
C326 C 0.38558 0.49741 0.68302 0.0
C327 C 0.41408 0.50697 0.65785 0.0
C328 C 0.78357 0.76197 1.00783 0.0
C329 C 0.74655 0.7637 0.99831 0.0
C330 C 0.82734 0.76144 1.01932 0.0
C331 C 0.86234 0.75456 1.02746 0.0
C332 C 0.42026 0.91745 0.23382 0.0
C333 C 0.40965 0.88811 0.25668 0.0
C334 C 0.43218 0.95326 0.20862 0.0
C335 C 0.44724 0.98594 0.19171 0.0
C336 C 0.09761 0.21392 0.75428 0.0
C337 C 0.11017 0.24208 0.78134 0.0
C338 C 0.07982 0.17851 0.72578 0.0
C339 C 0.05934 0.14657 0.70602 0.0
C340 C 0.79449 0.44352 0.45612 0.0
C341 C 0.82917 0.43737 0.4472 0.0
C342 C 0.75412 0.45308 0.46353 0.0
C343 C 0.72122 0.46313 0.4718 0.0
loop_
_geom_bond_atom_site_label_1
_geom_bond_atom_site_label_2
_geom_bond_distance
_geom_bond_site_symmetry_2
_ccdc_geom_bond_type
O0 Cd1 2.300 . S
O0 C7 1.275 . S
Cd1 O0 2.300 . S
Cd1 O9 2.381 . S
Cd1 O10 2.378 . S
O2 Cd3 2.385 . S
O2 C7 1.255 . S
Cd3 O2 2.385 . S
Cd3 O4 2.317 . S
O4 Cd3 2.317 . S
O4 C5 1.232 . S
C5 O4 1.232 . S
C5 O6 1.218 . S
O6 C5 1.218 . S
C7 O0 1.275 . S
C7 O2 1.255 . S
C8 O9 1.258 . S
C8 O10 1.256 . S
O9 Cd1 2.381 . S
O9 C8 1.258 . S
O10 Cd1 2.378 . S
O10 C8 1.256 . S
O11 Cd12 2.300 . S
O11 C18 1.275 . S
Cd12 O11 2.300 . S
Cd12 O20 2.381 . S
Cd12 O21 2.378 . S
O13 Cd14 2.385 . S
O13 C18 1.255 . S
Cd14 O13 2.385 . S
Cd14 O15 2.317 . S
O15 Cd14 2.317 . S
O15 C16 1.232 . S
C16 O15 1.232 . S
C16 O17 1.218 . S
O17 C16 1.218 . S
C18 O11 1.275 . S
C18 O13 1.255 . S
C19 O20 1.258 . S
C19 O21 1.256 . S
O20 Cd12 2.381 . S
O20 C19 1.258 . S
O21 Cd12 2.378 . S
O21 C19 1.256 . S
O22 Cd23 2.300 . S
O22 C29 1.275 . S
Cd23 O22 2.300 . S
Cd23 O31 2.381 . S
Cd23 O32 2.378 . S
O24 Cd25 2.385 . S
O24 C29 1.255 . S
Cd25 O24 2.385 . S
Cd25 O26 2.317 . S
O26 Cd25 2.317 . S
O26 C27 1.232 . S
C27 O26 1.232 . S
C27 O28 1.218 . S
O28 C27 1.218 . S
C29 O22 1.275 . S
C29 O24 1.255 . S
C30 O31 1.258 . S
C30 O32 1.256 . S
O31 Cd23 2.381 . S
O31 C30 1.258 . S
O32 Cd23 2.378 . S
O32 C30 1.256 . S
O33 Cd34 2.300 . S
O33 C40 1.275 . S
Cd34 O33 2.300 . S
Cd34 O42 2.381 . S
Cd34 O43 2.378 . S
O35 Cd36 2.385 . S
O35 C40 1.255 . S
Cd36 O35 2.385 . S
Cd36 O37 2.317 . S
O37 Cd36 2.317 . S
O37 C38 1.232 . S
C38 O37 1.232 . S
C38 O39 1.218 . S
O39 C38 1.218 . S
C40 O33 1.275 . S
C40 O35 1.255 . S
C41 O42 1.258 . S
C41 O43 1.256 . S
O42 Cd34 2.381 . S
O42 C41 1.258 . S
O43 Cd34 2.378 . S
O43 C41 1.256 . S
O44 Cd45 2.300 . S
O44 C51 1.275 . S
Cd45 O44 2.300 . S
Cd45 O53 2.381 . S
Cd45 O54 2.378 . S
O46 Cd47 2.385 . S
O46 C51 1.255 . S
Cd47 O46 2.385 . S
Cd47 O48 2.317 . S
O48 Cd47 2.317 . S
O48 C49 1.232 . S
C49 O48 1.232 . S
C49 O50 1.218 . S
O50 C49 1.218 . S
C51 O44 1.275 . S
C51 O46 1.255 . S
C52 O53 1.258 . S
C52 O54 1.256 . S
O53 Cd45 2.381 . S
O53 C52 1.258 . S
O54 Cd45 2.378 . S
O54 C52 1.256 . S
O55 Cd56 2.300 . S
O55 C62 1.275 . S
Cd56 O55 2.300 . S
Cd56 O64 2.381 . S
Cd56 O65 2.378 1_655 S
O57 Cd58 2.385 . S
O57 C62 1.255 . S
Cd58 O57 2.385 . S
Cd58 O59 2.317 . S
O59 Cd58 2.317 . S
O59 C60 1.232 . S
C60 O59 1.232 . S
C60 O61 1.218 . S
O61 C60 1.218 . S
C62 O55 1.275 . S
C62 O57 1.255 . S
C63 O64 1.258 1_455 S
C63 O65 1.256 . S
O64 Cd56 2.381 . S
O64 C63 1.258 1_655 S
O65 Cd56 2.378 1_455 S
O65 C63 1.256 . S
O66 Cd67 2.300 . S
O66 C73 1.275 . S
Cd67 O66 2.300 . S
Cd67 O75 2.381 . S
Cd67 O76 2.378 . S
O68 Cd69 2.385 . S
O68 C73 1.255 . S
Cd69 O68 2.385 . S
Cd69 O70 2.317 . S
O70 Cd69 2.317 . S
O70 C71 1.232 . S
C71 O70 1.232 . S
C71 O72 1.218 . S
O72 C71 1.218 . S
C73 O66 1.275 . S
C73 O68 1.255 . S
C74 O75 1.258 . S
C74 O76 1.256 . S
O75 Cd67 2.381 . S
O75 C74 1.258 . S
O76 Cd67 2.378 . S
O76 C74 1.256 . S
O77 Cd78 2.300 . S
O77 C84 1.275 . S
Cd78 O77 2.300 . S
Cd78 O86 2.381 . S
Cd78 O87 2.378 . S
O79 Cd80 2.385 . S
O79 C84 1.255 . S
Cd80 O79 2.385 . S
Cd80 O81 2.317 . S
O81 Cd80 2.317 . S
O81 C82 1.232 . S
C82 O81 1.232 . S
C82 O83 1.218 . S
O83 C82 1.218 . S
C84 O77 1.275 . S
C84 O79 1.255 . S
C85 O86 1.258 . S
C85 O87 1.256 . S
O86 Cd78 2.381 . S
O86 C85 1.258 . S
O87 Cd78 2.378 . S
O87 C85 1.256 . S
Tb88 C90 2.809 1_545 S
Tb88 O108 2.484 1_545 S
Tb88 O109 2.440 1_545 S
Tb88 O110 2.658 1_655 S
Tb88 O111 2.413 . S
Tb88 O112 2.378 1_645 S
Tb88 O116 2.325 1_545 S
Tb88 O119 2.341 . S
Tb89 C99 2.809 . S
Tb89 O110 2.325 . S
Tb89 O113 2.341 1_545 S
Tb89 O114 2.484 . S
Tb89 O115 2.440 . S
Tb89 O116 2.658 1_445 S
Tb89 O117 2.409 1_545 S
Tb89 O118 2.378 . S
C90 Tb88 2.809 1_565 S
C90 C91 1.514 . S
C90 O108 1.248 . S
C90 O109 1.266 . S
C91 C90 1.514 . S
C91 C92 1.359 . S
C91 C96 1.348 . S
C92 C91 1.359 . S
C92 C93 1.380 . S
C92 H120 0.929 . S
C93 C92 1.380 . S
C93 C94 1.347 . S
C93 H121 0.931 . S
C94 C93 1.347 . S
C94 C95 1.369 . S
C95 C94 1.369 . S
C95 C96 1.408 . S
C95 H122 0.930 . S
C96 C91 1.348 . S
C96 C95 1.408 . S
C96 H123 0.930 . S
C97 O110 1.281 . S
C97 O111 1.244 1_455 S
C98 O112 1.236 . S
C98 O113 1.266 . S
C99 Tb89 2.809 . S
C99 C100 1.514 . S
C99 O114 1.248 . S
C99 O115 1.266 . S
C100 C99 1.514 . S
C100 C101 1.359 . S
C100 C105 1.348 . S
C101 C100 1.359 . S
C101 C102 1.380 . S
C101 H124 0.929 . S
C102 C101 1.380 . S
C102 C103 1.347 . S
C102 H125 0.931 . S
C103 C102 1.347 . S
C103 C104 1.369 . S
C104 C103 1.369 . S
C104 C105 1.408 . S
C104 H126 0.930 . S
C105 C100 1.348 . S
C105 C104 1.408 . S
C105 H127 0.930 . S
C106 O116 1.281 . S
C106 O117 1.254 1_655 S
C107 O118 1.236 1_655 S
C107 O119 1.266 . S
O108 Tb88 2.484 1_565 S
O108 C90 1.248 . S
O109 Tb88 2.440 1_565 S
O109 C90 1.266 . S
O110 Tb88 2.658 1_455 S
O110 Tb89 2.325 . S
O110 C97 1.281 . S
O111 Tb88 2.413 . S
O111 C97 1.244 1_655 S
O112 Tb88 2.378 1_465 S
O112 C98 1.236 . S
O113 Tb89 2.341 1_565 S
O113 C98 1.266 . S
O114 Tb89 2.484 . S
O114 C99 1.248 . S
O115 Tb89 2.440 . S
O115 C99 1.266 . S
O116 Tb88 2.325 1_565 S
O116 Tb89 2.658 1_665 S
O116 C106 1.281 . S
O117 Tb89 2.409 1_565 S
O117 C106 1.254 1_455 S
O118 Tb89 2.378 . S
O118 C107 1.236 1_455 S
O119 Tb88 2.341 . S
O119 C107 1.266 . S
H120 C92 0.929 . S
H121 C93 0.931 . S
H122 C95 0.930 . S
H123 C96 0.930 . S
H124 C101 0.929 . S
H125 C102 0.931 . S
H126 C104 0.930 . S
H127 C105 0.930 . S
Tb128 C130 2.809 . S
Tb128 O148 2.484 . S
Tb128 O149 2.440 . S
Tb128 O150 2.658 . S
Tb128 O151 2.406 1_545 S
Tb128 O152 2.378 . S
Tb128 O156 2.325 . S
Tb128 O159 2.341 . S
Tb129 C139 2.809 1_544 S
Tb129 O150 2.325 . S
Tb129 O153 2.341 . S
Tb129 O154 2.484 1_545 S
Tb129 O155 2.440 1_554 S
Tb129 O156 2.658 . S
Tb129 O157 2.409 1_554 S
Tb129 O158 2.368 1_554 S
C130 Tb128 2.809 . S
C130 C131 1.514 . S
C130 O148 1.248 . S
C130 O149 1.266 . S
C131 C130 1.514 . S
C131 C132 1.359 . S
C131 C136 1.348 . S
C132 C131 1.359 . S
C132 C133 1.380 . S
C132 H160 0.929 . S
C133 C132 1.380 . S
C133 C134 1.347 . S
C133 H161 0.931 . S
C134 C133 1.347 . S
C134 C135 1.369 . S
C135 C134 1.369 . S
C135 C136 1.408 . S
C135 H162 0.930 . S
C136 C131 1.348 . S
C136 C135 1.408 . S
C136 H163 0.930 . S
C137 O150 1.281 1_565 S
C137 O151 1.254 . S
C138 O152 1.236 . S
C138 O153 1.266 . S
C139 Tb129 2.809 1_566 S
C139 C140 1.514 . S
C139 O154 1.248 1_556 S
C139 O155 1.266 1_565 S
C140 C139 1.514 . S
C140 C141 1.359 . S
C140 C145 1.348 . S
C141 C140 1.359 . S
C141 C142 1.380 . S
C141 H164 0.929 . S
C142 C141 1.380 . S
C142 C143 1.347 . S
C142 H165 0.931 . S
C143 C142 1.347 . S
C143 C144 1.369 . S
C144 C143 1.369 . S
C144 C145 1.408 . S
C144 H166 0.930 . S
C145 C140 1.348 . S
C145 C144 1.408 . S
C145 H167 0.930 . S
C146 O156 1.281 . S
C146 O157 1.254 1_554 S
C147 O158 1.230 1_564 S
C147 O159 1.266 1_565 S
O148 Tb128 2.484 . S
O148 C130 1.248 . S
O149 Tb128 2.440 . S
O149 C130 1.266 . S
O150 Tb128 2.658 . S
O150 Tb129 2.325 . S
O150 C137 1.281 1_545 S
O151 Tb128 2.406 1_565 S
O151 C137 1.254 . S
O152 Tb128 2.378 . S
O152 C138 1.236 . S
O153 Tb129 2.341 . S
O153 C138 1.266 . S
O154 Tb129 2.484 1_565 S
O154 C139 1.248 1_554 S
O155 Tb129 2.440 1_556 S
O155 C139 1.266 1_545 S
O156 Tb128 2.325 . S
O156 Tb129 2.658 . S
O156 C146 1.281 . S
O157 Tb129 2.409 1_556 S
O157 C146 1.254 1_556 S
O158 Tb129 2.368 1_556 S
O158 C147 1.230 1_546 S
O159 Tb128 2.341 . S
O159 C147 1.266 1_545 S
H160 C132 0.929 . S
H161 C133 0.931 . S
H162 C135 0.930 . S
H163 C136 0.930 . S
H164 C141 0.929 . S
H165 C142 0.931 . S
H166 C144 0.930 . S
H167 C145 0.930 . S
Tb168 C170 2.809 . S
Tb168 O188 2.484 . S
Tb168 O189 2.440 . S
Tb168 O190 2.658 . S
Tb168 O191 2.409 . S
Tb168 O192 2.378 . S
Tb168 O196 2.325 . S
Tb168 O199 2.341 . S
Tb169 C179 2.809 . S
Tb169 O190 2.325 . S
Tb169 O193 2.341 . S
Tb169 O194 2.484 . S
Tb169 O195 2.440 . S
Tb169 O196 2.658 . S
Tb169 O197 2.409 . S
Tb169 O198 2.378 . S
C170 Tb168 2.809 . S
C170 C171 1.514 . S
C170 O188 1.248 . S
C170 O189 1.266 . S
C171 C170 1.514 . S
C171 C172 1.359 . S
C171 C176 1.348 . S
C172 C171 1.359 . S
C172 C173 1.380 . S
C172 H200 0.929 . S
C173 C172 1.380 . S
C173 C174 1.347 . S
C173 H201 0.931 . S
C174 C173 1.347 . S
C174 C175 1.369 . S
C175 C174 1.369 . S
C175 C176 1.408 . S
C175 H202 0.930 . S
C176 C171 1.348 . S
C176 C175 1.408 . S
C176 H203 0.930 . S
C177 O190 1.281 . S
C177 O191 1.254 . S
C178 O192 1.236 . S
C178 O193 1.266 . S
C179 Tb169 2.809 . S
C179 C180 1.514 . S
C179 O194 1.248 . S
C179 O195 1.266 . S
C180 C179 1.514 . S
C180 C181 1.359 . S
C180 C185 1.348 . S
C181 C180 1.359 . S
C181 C182 1.380 . S
C181 H204 0.929 . S
C182 C181 1.380 . S
C182 C183 1.347 . S
C182 H205 0.931 . S
C183 C182 1.347 . S
C183 C184 1.369 . S
C184 C183 1.369 . S
C184 C185 1.408 . S
C184 H206 0.930 . S
C185 C180 1.348 . S
C185 C184 1.408 . S
C185 H207 0.930 . S
C186 O196 1.281 . S
C186 O197 1.254 . S
C187 O198 1.236 . S
C187 O199 1.266 . S
O188 Tb168 2.484 . S
O188 C170 1.248 . S
O189 Tb168 2.440 . S
O189 C170 1.266 . S
O190 Tb168 2.658 . S
O190 Tb169 2.325 . S
O190 C177 1.281 . S
O191 Tb168 2.409 . S
O191 C177 1.254 . S
O192 Tb168 2.378 . S
O192 C178 1.236 . S
O193 Tb169 2.341 . S
O193 C178 1.266 . S
O194 Tb169 2.484 . S
O194 C179 1.248 . S
O195 Tb169 2.440 . S
O195 C179 1.266 . S
O196 Tb168 2.325 . S
O196 Tb169 2.658 . S
O196 C186 1.281 . S
O197 Tb169 2.409 . S
O197 C186 1.254 . S
O198 Tb169 2.378 . S
O198 C187 1.236 . S
O199 Tb168 2.341 . S
O199 C187 1.266 . S
H200 C172 0.929 . S
H201 C173 0.931 . S
H202 C175 0.930 . S
H203 C176 0.930 . S
H204 C181 0.929 . S
H205 C182 0.931 . S
H206 C184 0.930 . S
H207 C185 0.930 . S
Tb208 C210 2.809 1_455 S
Tb208 O228 2.484 1_455 S
Tb208 O229 2.440 . S
Tb208 O230 2.658 1_556 S
Tb208 O231 2.409 1_556 S
Tb208 O232 2.378 1_556 S
Tb208 O236 2.325 1_455 S
Tb208 O239 2.341 . S
Tb209 C219 2.809 . S
Tb209 O230 2.325 . S
Tb209 O233 2.341 1_455 S
Tb209 O234 2.484 . S
Tb209 O235 2.440 . S
Tb209 O236 2.658 1_454 S
Tb209 O237 2.409 1_455 S
Tb209 O238 2.378 1_554 S
C210 Tb208 2.809 1_655 S
C210 C211 1.514 . S
C210 O228 1.248 . S
C210 O229 1.266 1_655 S
C211 C210 1.514 . S
C211 C212 1.359 . S
C211 C216 1.348 . S
C212 C211 1.359 . S
C212 C213 1.380 . S
C212 H240 0.929 . S
C213 C212 1.380 . S
C213 C214 1.347 . S
C213 H241 0.931 . S
C214 C213 1.347 . S
C214 C215 1.369 . S
C215 C214 1.369 . S
C215 C216 1.408 . S
C215 H242 0.930 . S
C216 C211 1.348 . S
C216 C215 1.408 . S
C216 H243 0.930 1_655 S
C217 O230 1.281 . S
C217 O231 1.254 . S
C218 O232 1.236 1_655 S
C218 O233 1.266 . S
C219 Tb209 2.809 . S
C219 C220 1.514 . S
C219 O234 1.248 . S
C219 O235 1.266 . S
C220 C219 1.514 . S
C220 C221 1.359 . S
C220 C225 1.348 . S
C221 C220 1.359 . S
C221 C222 1.380 . S
C221 H244 0.929 . S
C222 C221 1.380 . S
C222 C223 1.347 . S
C222 H245 0.931 . S
C223 C222 1.347 . S
C223 C224 1.369 . S
C224 C223 1.369 . S
C224 C225 1.408 . S
C224 H246 0.930 . S
C225 C220 1.348 . S
C225 C224 1.408 . S
C225 H247 0.930 . S
C226 O236 1.281 . S
C226 O237 1.254 1_556 S
C227 O238 1.236 . S
C227 O239 1.266 . S
O228 Tb208 2.484 1_655 S
O228 C210 1.248 . S
O229 Tb208 2.440 . S
O229 C210 1.266 1_455 S
O230 Tb208 2.658 1_554 S
O230 Tb209 2.325 . S
O230 C217 1.281 . S
O231 Tb208 2.409 1_554 S
O231 C217 1.254 . S
O232 Tb208 2.378 1_554 S
O232 C218 1.236 1_455 S
O233 Tb209 2.341 1_655 S
O233 C218 1.266 . S
O234 Tb209 2.484 . S
O234 C219 1.248 . S
O235 Tb209 2.440 . S
O235 C219 1.266 . S
O236 Tb208 2.325 1_655 S
O236 Tb209 2.658 1_656 S
O236 C226 1.281 . S
O237 Tb209 2.409 1_655 S
O237 C226 1.254 1_554 S
O238 Tb209 2.378 1_556 S
O238 C227 1.236 . S
O239 Tb208 2.341 . S
O239 C227 1.266 . S
H240 C212 0.929 . S
H241 C213 0.931 . S
H242 C215 0.930 . S
H243 C216 0.930 1_455 S
H244 C221 0.929 . S
H245 C222 0.931 . S
H246 C224 0.930 . S
H247 C225 0.930 . S
C248 C249 1.170 . S
C248 C250 1.380 . S
C249 C248 1.170 . S
C250 C248 1.380 . S
C250 C251 1.170 . S
C251 C250 1.170 . S
C252 C253 1.170 . S
C252 C254 1.380 . S
C253 C252 1.170 . S
C254 C252 1.380 . S
C254 C255 1.170 . S
C255 C254 1.170 . S
C256 C257 1.170 . S
C256 C258 1.380 . S
C257 C256 1.170 . S
C258 C256 1.380 . S
C258 C259 1.170 . S
C259 C258 1.170 . S
C260 C261 1.170 . S
C260 C262 1.380 . S
C261 C260 1.170 . S
C262 C260 1.380 . S
C262 C263 1.170 . S
C263 C262 1.170 . S
C264 C265 1.170 . S
C264 C266 1.380 . S
C265 C264 1.170 . S
C266 C264 1.380 . S
C266 C267 1.170 . S
C267 C266 1.170 . S
C268 C269 1.170 . S
C268 C270 1.380 . S
C269 C268 1.170 . S
C270 C268 1.380 . S
C270 C271 1.170 . S
C271 C270 1.170 . S
C272 C273 1.170 . S
C272 C274 1.380 . S
C273 C272 1.170 . S
C274 C272 1.380 . S
C274 C275 1.170 . S
C275 C274 1.170 . S
C276 C277 1.170 . S
C276 C278 1.380 . S
C277 C276 1.170 . S
C278 C276 1.380 . S
C278 C279 1.170 . S
C279 C278 1.170 . S
C280 C281 1.170 . S
C280 C282 1.380 . S
C281 C280 1.170 . S
C282 C280 1.380 . S
C282 C283 1.170 . S
C283 C282 1.170 . S
C284 C285 1.170 . S
C284 C286 1.380 . S
C285 C284 1.170 . S
C286 C284 1.380 . S
C286 C287 1.170 . S
C287 C286 1.170 . S
C288 C289 1.170 . S
C288 C290 1.380 . S
C289 C288 1.170 . S
C290 C288 1.380 . S
C290 C291 1.170 . S
C291 C290 1.170 . S
C292 C293 1.170 . S
C292 C294 1.380 . S
C293 C292 1.170 . S
C294 C292 1.380 . S
C294 C295 1.170 . S
C295 C294 1.170 . S
C296 C297 1.170 . S
C296 C298 1.380 . S
C297 C296 1.170 . S
C298 C296 1.380 . S
C298 C299 1.170 . S
C299 C298 1.170 . S
C300 C301 1.170 . S
C300 C302 1.380 . S
C301 C300 1.170 . S
C302 C300 1.380 . S
C302 C303 1.170 . S
C303 C302 1.170 . S
C304 C305 1.170 . S
C304 C306 1.380 . S
C305 C304 1.170 . S
C306 C304 1.380 . S
C306 C307 1.170 . S
C307 C306 1.170 . S
C308 C309 1.170 . S
C308 C310 1.380 . S
C309 C308 1.170 . S
C310 C308 1.380 . S
C310 C311 1.170 . S
C311 C310 1.170 . S
C312 C313 1.170 . S
C312 C314 1.380 . S
C313 C312 1.170 . S
C314 C312 1.380 . S
C314 C315 1.170 . S
C315 C314 1.170 . S
C316 C317 1.170 . S
C316 C318 1.380 1_455 S
C317 C316 1.170 . S
C318 C316 1.380 1_655 S
C318 C319 1.170 . S
C319 C318 1.170 . S
C320 C321 1.170 . S
C320 C322 1.380 . S
C321 C320 1.170 . S
C322 C320 1.380 . S
C322 C323 1.170 . S
C323 C322 1.170 . S
C324 C325 1.170 . S
C324 C326 1.380 . S
C325 C324 1.170 . S
C326 C324 1.380 . S
C326 C327 1.170 . S
C327 C326 1.170 . S
C328 C329 1.170 . S
C328 C330 1.380 . S
C329 C328 1.170 . S
C330 C328 1.380 . S
C330 C331 1.170 . S
C331 C330 1.170 . S
C332 C333 1.170 . S
C332 C334 1.380 . S
C333 C332 1.170 . S
C334 C332 1.380 . S
C334 C335 1.170 . S
C335 C334 1.170 . S
C336 C337 1.170 . S
C336 C338 1.380 . S
C337 C336 1.170 . S
C338 C336 1.380 . S
C338 C339 1.170 . S
C339 C338 1.170 . S
C340 C341 1.170 . S
C340 C342 1.380 . S
C341 C340 1.170 . S
C342 C340 1.380 . S
C342 C343 1.170 . S
C343 C342 1.170 . S
C249 C5 1.178 . S
C251 C103 1.348 . S
C253 C18 1.157 . S
C255 C143 1.171 . S
C259 C177 2.223 . S
C257 C30 2.233 . S
C261 C41 2.390 . S
C263 C218 2.339 . S
C267 C138 1.463 . S
C265 C7 1.358 . S
C271 C98 2.152 . S
C269 C16 2.116 . S
C275 C226 1.736 . S
C273 C29 1.716 . S
C279 C187 1.546 . S
C277 C38 1.213 . S
C281 C8 1.457 . S
C283 C223 1.525 . S
C287 C146 2.235 1_556 S
C285 C27 2.101 . S
C289 C40 2.485 . S
C291 C106 2.420 . S
C293 C19 1.546 . S
C295 C174 1.539 . S
C299 C94 1.394 . S
C297 C51 1.152 . S
C301 C62 1.550 . S
C303 C134 1.486 . S
C305 C74 2.408 . S
C307 C186 2.416 . S
C309 C84 2.358 . S
C311 C227 2.382 . S
C313 C49 1.315 . S
C315 C147 1.832 1_556 S
C319 C107 2.204 . S
C317 C63 2.134 . S
C323 C217 1.571 . S
C321 C71 1.417 . S
C327 C178 1.720 . S
C325 C85 1.796 . S
C329 C52 1.476 . S
C331 C214 1.568 . S
C335 C137 2.304 . S
C333 C73 2.408 . S
C339 C97 2.119 . S
C337 C82 2.035 . S
C341 C60 1.552 . S
C343 C183 1.662 . S
