# Generated by pormake.
# Topology gar, (4,6)-cn, num edge types: 1
# Building blocks:
#     Node 0, Type 0, BuildingBlock: UXUYUI_clean_sbu_0, # of connection points: 4
#     Node 1, Type 0, BuildingBlock: UXUYUI_clean_sbu_0, # of connection points: 4
#     Node 2, Type 0, BuildingBlock: UXUYUI_clean_sbu_0, # of connection points: 4
#     Node 3, Type 0, BuildingBlock: UXUYUI_clean_sbu_0, # of connection points: 4
#     Node 4, Type 0, BuildingBlock: UXUYUI_clean_sbu_0, # of connection points: 4
#     Node 5, Type 0, BuildingBlock: UXUYUI_clean_sbu_0, # of connection points: 4
#     Node 6, Type 0, BuildingBlock: UXUYUI_clean_sbu_0, # of connection points: 4
#     Node 7, Type 0, BuildingBlock: UXUYUI_clean_sbu_0, # of connection points: 4
#     Node 8, Type 0, BuildingBlock: UXUYUI_clean_sbu_0, # of connection points: 4
#     Node 9, Type 0, BuildingBlock: UXUYUI_clean_sbu_0, # of connection points: 4
#     Node 10, Type 0, BuildingBlock: UXUYUI_clean_sbu_0, # of connection points: 4
#     Node 11, Type 0, BuildingBlock: UXUYUI_clean_sbu_0, # of connection points: 4
#     Node 12, Type 0, BuildingBlock: UXUYUI_clean_sbu_0, # of connection points: 4
#     Node 13, Type 0, BuildingBlock: UXUYUI_clean_sbu_0, # of connection points: 4
#     Node 14, Type 0, BuildingBlock: UXUYUI_clean_sbu_0, # of connection points: 4
#     Node 15, Type 0, BuildingBlock: UXUYUI_clean_sbu_0, # of connection points: 4
#     Node 16, Type 0, BuildingBlock: UXUYUI_clean_sbu_0, # of connection points: 4
#     Node 17, Type 0, BuildingBlock: UXUYUI_clean_sbu_0, # of connection points: 4
#     Node 18, Type 0, BuildingBlock: UXUYUI_clean_sbu_0, # of connection points: 4
#     Node 19, Type 0, BuildingBlock: UXUYUI_clean_sbu_0, # of connection points: 4
#     Node 20, Type 0, BuildingBlock: UXUYUI_clean_sbu_0, # of connection points: 4
#     Node 21, Type 0, BuildingBlock: UXUYUI_clean_sbu_0, # of connection points: 4
#     Node 22, Type 0, BuildingBlock: UXUYUI_clean_sbu_0, # of connection points: 4
#     Node 23, Type 0, BuildingBlock: UXUYUI_clean_sbu_0, # of connection points: 4
#     Node 24, Type 1, BuildingBlock: KUMBUR_clean_sbu_0, # of connection points: 6
#     Node 25, Type 1, BuildingBlock: KUMBUR_clean_sbu_0, # of connection points: 6
#     Node 26, Type 1, BuildingBlock: KUMBUR_clean_sbu_0, # of connection points: 6
#     Node 27, Type 1, BuildingBlock: KUMBUR_clean_sbu_0, # of connection points: 6
#     Node 28, Type 1, BuildingBlock: KUMBUR_clean_sbu_0, # of connection points: 6
#     Node 29, Type 1, BuildingBlock: KUMBUR_clean_sbu_0, # of connection points: 6
#     Node 30, Type 1, BuildingBlock: KUMBUR_clean_sbu_0, # of connection points: 6
#     Node 31, Type 1, BuildingBlock: KUMBUR_clean_sbu_0, # of connection points: 6
#     Node 32, Type 1, BuildingBlock: KUMBUR_clean_sbu_0, # of connection points: 6
#     Node 33, Type 1, BuildingBlock: KUMBUR_clean_sbu_0, # of connection points: 6
#     Node 34, Type 1, BuildingBlock: KUMBUR_clean_sbu_0, # of connection points: 6
#     Node 35, Type 1, BuildingBlock: KUMBUR_clean_sbu_0, # of connection points: 6
#     Node 36, Type 1, BuildingBlock: KUMBUR_clean_sbu_0, # of connection points: 6
#     Node 37, Type 1, BuildingBlock: KUMBUR_clean_sbu_0, # of connection points: 6
#     Node 38, Type 1, BuildingBlock: KUMBUR_clean_sbu_0, # of connection points: 6
#     Node 39, Type 1, BuildingBlock: KUMBUR_clean_sbu_0, # of connection points: 6
#     Edge 40, Type (0, 1), BuildingBlock: AJUNOK_clean_linker_0, # of connection points: 2
#     Edge 41, Type (0, 1), BuildingBlock: AJUNOK_clean_linker_0, # of connection points: 2
#     Edge 42, Type (0, 1), BuildingBlock: AJUNOK_clean_linker_0, # of connection points: 2
#     Edge 43, Type (0, 1), BuildingBlock: AJUNOK_clean_linker_0, # of connection points: 2
#     Edge 44, Type (0, 1), BuildingBlock: AJUNOK_clean_linker_0, # of connection points: 2
#     Edge 45, Type (0, 1), BuildingBlock: AJUNOK_clean_linker_0, # of connection points: 2
#     Edge 46, Type (0, 1), BuildingBlock: AJUNOK_clean_linker_0, # of connection points: 2
#     Edge 47, Type (0, 1), BuildingBlock: AJUNOK_clean_linker_0, # of connection points: 2
#     Edge 48, Type (0, 1), BuildingBlock: AJUNOK_clean_linker_0, # of connection points: 2
#     Edge 49, Type (0, 1), BuildingBlock: AJUNOK_clean_linker_0, # of connection points: 2
#     Edge 50, Type (0, 1), BuildingBlock: AJUNOK_clean_linker_0, # of connection points: 2
#     Edge 51, Type (0, 1), BuildingBlock: AJUNOK_clean_linker_0, # of connection points: 2
#     Edge 52, Type (0, 1), BuildingBlock: AJUNOK_clean_linker_0, # of connection points: 2
#     Edge 53, Type (0, 1), BuildingBlock: AJUNOK_clean_linker_0, # of connection points: 2
#     Edge 54, Type (0, 1), BuildingBlock: AJUNOK_clean_linker_0, # of connection points: 2
#     Edge 55, Type (0, 1), BuildingBlock: AJUNOK_clean_linker_0, # of connection points: 2
#     Edge 56, Type (0, 1), BuildingBlock: AJUNOK_clean_linker_0, # of connection points: 2
#     Edge 57, Type (0, 1), BuildingBlock: AJUNOK_clean_linker_0, # of connection points: 2
#     Edge 58, Type (0, 1), BuildingBlock: AJUNOK_clean_linker_0, # of connection points: 2
#     Edge 59, Type (0, 1), BuildingBlock: AJUNOK_clean_linker_0, # of connection points: 2
#     Edge 60, Type (0, 1), BuildingBlock: AJUNOK_clean_linker_0, # of connection points: 2
#     Edge 61, Type (0, 1), BuildingBlock: AJUNOK_clean_linker_0, # of connection points: 2
#     Edge 62, Type (0, 1), BuildingBlock: AJUNOK_clean_linker_0, # of connection points: 2
#     Edge 63, Type (0, 1), BuildingBlock: AJUNOK_clean_linker_0, # of connection points: 2
#     Edge 64, Type (0, 1), BuildingBlock: AJUNOK_clean_linker_0, # of connection points: 2
#     Edge 65, Type (0, 1), BuildingBlock: AJUNOK_clean_linker_0, # of connection points: 2
#     Edge 66, Type (0, 1), BuildingBlock: AJUNOK_clean_linker_0, # of connection points: 2
#     Edge 67, Type (0, 1), BuildingBlock: AJUNOK_clean_linker_0, # of connection points: 2
#     Edge 68, Type (0, 1), BuildingBlock: AJUNOK_clean_linker_0, # of connection points: 2
#     Edge 69, Type (0, 1), BuildingBlock: AJUNOK_clean_linker_0, # of connection points: 2
#     Edge 70, Type (0, 1), BuildingBlock: AJUNOK_clean_linker_0, # of connection points: 2
#     Edge 71, Type (0, 1), BuildingBlock: AJUNOK_clean_linker_0, # of connection points: 2
#     Edge 72, Type (0, 1), BuildingBlock: AJUNOK_clean_linker_0, # of connection points: 2
#     Edge 73, Type (0, 1), BuildingBlock: AJUNOK_clean_linker_0, # of connection points: 2
#     Edge 74, Type (0, 1), BuildingBlock: AJUNOK_clean_linker_0, # of connection points: 2
#     Edge 75, Type (0, 1), BuildingBlock: AJUNOK_clean_linker_0, # of connection points: 2
#     Edge 76, Type (0, 1), BuildingBlock: AJUNOK_clean_linker_0, # of connection points: 2
#     Edge 77, Type (0, 1), BuildingBlock: AJUNOK_clean_linker_0, # of connection points: 2
#     Edge 78, Type (0, 1), BuildingBlock: AJUNOK_clean_linker_0, # of connection points: 2
#     Edge 79, Type (0, 1), BuildingBlock: AJUNOK_clean_linker_0, # of connection points: 2
#     Edge 80, Type (0, 1), BuildingBlock: AJUNOK_clean_linker_0, # of connection points: 2
#     Edge 81, Type (0, 1), BuildingBlock: AJUNOK_clean_linker_0, # of connection points: 2
#     Edge 82, Type (0, 1), BuildingBlock: AJUNOK_clean_linker_0, # of connection points: 2
#     Edge 83, Type (0, 1), BuildingBlock: AJUNOK_clean_linker_0, # of connection points: 2
#     Edge 84, Type (0, 1), BuildingBlock: AJUNOK_clean_linker_0, # of connection points: 2
#     Edge 85, Type (0, 1), BuildingBlock: AJUNOK_clean_linker_0, # of connection points: 2
#     Edge 86, Type (0, 1), BuildingBlock: AJUNOK_clean_linker_0, # of connection points: 2
#     Edge 87, Type (0, 1), BuildingBlock: AJUNOK_clean_linker_0, # of connection points: 2
#     Edge 88, Type (0, 1), BuildingBlock: AJUNOK_clean_linker_0, # of connection points: 2
#     Edge 89, Type (0, 1), BuildingBlock: AJUNOK_clean_linker_0, # of connection points: 2
#     Edge 90, Type (0, 1), BuildingBlock: AJUNOK_clean_linker_0, # of connection points: 2
#     Edge 91, Type (0, 1), BuildingBlock: AJUNOK_clean_linker_0, # of connection points: 2
#     Edge 92, Type (0, 1), BuildingBlock: AJUNOK_clean_linker_0, # of connection points: 2
#     Edge 93, Type (0, 1), BuildingBlock: AJUNOK_clean_linker_0, # of connection points: 2
#     Edge 94, Type (0, 1), BuildingBlock: AJUNOK_clean_linker_0, # of connection points: 2
#     Edge 95, Type (0, 1), BuildingBlock: AJUNOK_clean_linker_0, # of connection points: 2
#     Edge 96, Type (0, 1), BuildingBlock: AJUNOK_clean_linker_0, # of connection points: 2
#     Edge 97, Type (0, 1), BuildingBlock: AJUNOK_clean_linker_0, # of connection points: 2
#     Edge 98, Type (0, 1), BuildingBlock: AJUNOK_clean_linker_0, # of connection points: 2
#     Edge 99, Type (0, 1), BuildingBlock: AJUNOK_clean_linker_0, # of connection points: 2
#     Edge 100, Type (0, 1), BuildingBlock: AJUNOK_clean_linker_0, # of connection points: 2
#     Edge 101, Type (0, 1), BuildingBlock: AJUNOK_clean_linker_0, # of connection points: 2
#     Edge 102, Type (0, 1), BuildingBlock: AJUNOK_clean_linker_0, # of connection points: 2
#     Edge 103, Type (0, 1), BuildingBlock: AJUNOK_clean_linker_0, # of connection points: 2
#     Edge 104, Type (0, 1), BuildingBlock: AJUNOK_clean_linker_0, # of connection points: 2
#     Edge 105, Type (0, 1), BuildingBlock: AJUNOK_clean_linker_0, # of connection points: 2
#     Edge 106, Type (0, 1), BuildingBlock: AJUNOK_clean_linker_0, # of connection points: 2
#     Edge 107, Type (0, 1), BuildingBlock: AJUNOK_clean_linker_0, # of connection points: 2
#     Edge 108, Type (0, 1), BuildingBlock: AJUNOK_clean_linker_0, # of connection points: 2
#     Edge 109, Type (0, 1), BuildingBlock: AJUNOK_clean_linker_0, # of connection points: 2
#     Edge 110, Type (0, 1), BuildingBlock: AJUNOK_clean_linker_0, # of connection points: 2
#     Edge 111, Type (0, 1), BuildingBlock: AJUNOK_clean_linker_0, # of connection points: 2
#     Edge 112, Type (0, 1), BuildingBlock: AJUNOK_clean_linker_0, # of connection points: 2
#     Edge 113, Type (0, 1), BuildingBlock: AJUNOK_clean_linker_0, # of connection points: 2
#     Edge 114, Type (0, 1), BuildingBlock: AJUNOK_clean_linker_0, # of connection points: 2
#     Edge 115, Type (0, 1), BuildingBlock: AJUNOK_clean_linker_0, # of connection points: 2
#     Edge 116, Type (0, 1), BuildingBlock: AJUNOK_clean_linker_0, # of connection points: 2
#     Edge 117, Type (0, 1), BuildingBlock: AJUNOK_clean_linker_0, # of connection points: 2
#     Edge 118, Type (0, 1), BuildingBlock: AJUNOK_clean_linker_0, # of connection points: 2
#     Edge 119, Type (0, 1), BuildingBlock: AJUNOK_clean_linker_0, # of connection points: 2
#     Edge 120, Type (0, 1), BuildingBlock: AJUNOK_clean_linker_0, # of connection points: 2
#     Edge 121, Type (0, 1), BuildingBlock: AJUNOK_clean_linker_0, # of connection points: 2
#     Edge 122, Type (0, 1), BuildingBlock: AJUNOK_clean_linker_0, # of connection points: 2
#     Edge 123, Type (0, 1), BuildingBlock: AJUNOK_clean_linker_0, # of connection points: 2
#     Edge 124, Type (0, 1), BuildingBlock: AJUNOK_clean_linker_0, # of connection points: 2
#     Edge 125, Type (0, 1), BuildingBlock: AJUNOK_clean_linker_0, # of connection points: 2
#     Edge 126, Type (0, 1), BuildingBlock: AJUNOK_clean_linker_0, # of connection points: 2
#     Edge 127, Type (0, 1), BuildingBlock: AJUNOK_clean_linker_0, # of connection points: 2
#     Edge 128, Type (0, 1), BuildingBlock: AJUNOK_clean_linker_0, # of connection points: 2
#     Edge 129, Type (0, 1), BuildingBlock: AJUNOK_clean_linker_0, # of connection points: 2
#     Edge 130, Type (0, 1), BuildingBlock: AJUNOK_clean_linker_0, # of connection points: 2
#     Edge 131, Type (0, 1), BuildingBlock: AJUNOK_clean_linker_0, # of connection points: 2
#     Edge 132, Type (0, 1), BuildingBlock: AJUNOK_clean_linker_0, # of connection points: 2
#     Edge 133, Type (0, 1), BuildingBlock: AJUNOK_clean_linker_0, # of connection points: 2
#     Edge 134, Type (0, 1), BuildingBlock: AJUNOK_clean_linker_0, # of connection points: 2
#     Edge 135, Type (0, 1), BuildingBlock: AJUNOK_clean_linker_0, # of connection points: 2
# Relax obj value: 0.151
# Max RMSD: 0.324
# Mean RMSD: 0.197
data_MOF--net-gar--node1-UXUYUI_clean_sbu_0--node2-KUMBUR_clean_sbu_0--edge1-AJUNOK_clean_linker_0
_symmetry_space_group_name_H-M    P1
_symmetry_Int_Tables_number       1
_symmetry_cell_setting            triclinic
loop_
_symmetry_equiv_pos_as_xyz
'x, y, z'
_cell_length_a     59.498979
_cell_length_b     55.007914
_cell_length_c     54.931074
_cell_angle_alpha  100.84189
_cell_angle_beta   93.363972
_cell_angle_gamma 102.42867
loop_
_atom_site_label
_atom_site_type_symbol
_atom_site_fract_x
_atom_site_fract_y
_atom_site_fract_z
_atom_type_partial_charge
Li0 Li 0.1022 0.32483 0.36456 0.0
Li1 Li 0.12654 0.34901 0.4004 0.0
Li2 Li 0.14363 0.32565 0.36978 0.0
Li3 Li 0.11801 0.30431 0.39794 0.0
C4 C 0.13031 0.35774 0.3418 0.0
N5 N 0.13305 0.36505 0.29348 0.0
C6 C 0.13487 0.38233 0.33702 0.0
C7 C 0.12717 0.33689 0.32192 0.0
C8 C 0.13617 0.38563 0.31249 0.0
C9 C 0.12863 0.34096 0.29766 0.0
C10 C 0.08443 0.33752 0.41729 0.0
C11 C 0.07197 0.34259 0.45857 0.0
N12 N 0.06144 0.36102 0.45363 0.0
C13 C 0.0734 0.35643 0.41258 0.0
C14 C 0.08361 0.33042 0.44041 0.0
C15 C 0.06189 0.36809 0.4312 0.0
C16 C 0.05962 0.30272 0.33339 0.0
N17 N 0.07578 0.32431 0.34378 0.0
C18 C 0.05197 0.35025 0.33094 0.0
C19 C 0.07252 0.34773 0.34243 0.0
C20 C 0.03469 0.32845 0.3208 0.0
C21 C 0.03871 0.30438 0.3215 0.0
H22 H 0.06256 0.2844 0.33527 0.0
H23 H 0.08545 0.36455 0.3514 0.0
C24 C 0.12798 0.40047 0.41304 0.0
N25 N 0.1291 0.38016 0.42339 0.0
C26 C 0.12347 0.42225 0.42733 0.0
C27 C 0.12298 0.40252 0.46317 0.0
C28 C 0.12759 0.38108 0.44815 0.0
C29 C 0.11984 0.42286 0.45238 0.0
H30 H 0.12893 0.3991 0.39331 0.0
H31 H 0.12802 0.36447 0.45581 0.0
C32 C 0.11822 0.27199 0.34762 0.0
N33 N 0.12025 0.22442 0.32176 0.0
C34 C 0.12904 0.25635 0.35919 0.0
C35 C 0.10815 0.26328 0.32301 0.0
C36 C 0.12998 0.23242 0.34577 0.0
C37 C 0.10944 0.23922 0.31022 0.0
C38 C 0.1646 0.34563 0.42351 0.0
C39 C 0.17882 0.3662 0.41624 0.0
C40 C 0.16628 0.34352 0.44848 0.0
C41 C 0.19446 0.38438 0.4341 0.0
C42 C 0.18214 0.36209 0.46579 0.0
N43 N 0.19578 0.38197 0.4583 0.0
C44 C 0.18281 0.34647 0.3469 0.0
C45 C 0.17918 0.30356 0.35046 0.0
C46 C 0.20401 0.34702 0.33718 0.0
N47 N 0.17089 0.32496 0.35337 0.0
C48 C 0.20033 0.3033 0.34095 0.0
C49 C 0.21318 0.32538 0.33463 0.0
H50 H 0.17641 0.36361 0.35022 0.0
H51 H 0.16987 0.28701 0.35642 0.0
C52 C 0.08819 0.26387 0.41205 0.0
N53 N 0.11045 0.2776 0.4153 0.0
C54 C 0.08094 0.24631 0.42695 0.0
C55 C 0.11982 0.25697 0.44775 0.0
C56 C 0.12639 0.27408 0.43224 0.0
C57 C 0.09677 0.24317 0.4454 0.0
H58 H 0.07591 0.26732 0.39854 0.0
H59 H 0.14402 0.28507 0.43416 0.0
O60 O 0.1288 0.35432 0.36581 0.0
O61 O 0.09578 0.32583 0.3993 0.0
O62 O 0.11651 0.29519 0.36065 0.0
O63 O 0.14902 0.32783 0.40626 0.0
H64 H 0.13741 0.39877 0.35206 0.0
H65 H 0.12378 0.31778 0.32509 0.0
H66 H 0.13967 0.40456 0.30858 0.0
H67 H 0.12626 0.32496 0.28216 0.0
H68 H 0.07132 0.3374 0.4766 0.0
H69 H 0.0739 0.36223 0.39485 0.0
H70 H 0.09209 0.31586 0.44441 0.0
H71 H 0.05328 0.38274 0.42781 0.0
H72 H 0.0492 0.36907 0.33079 0.0
H73 H 0.02547 0.28726 0.314 0.0
H74 H 0.12143 0.43782 0.41856 0.0
H75 H 0.12016 0.40241 0.48246 0.0
H76 H 0.13684 0.26273 0.37825 0.0
H77 H 0.09933 0.27492 0.31389 0.0
H78 H 0.13843 0.22019 0.35444 0.0
H79 H 0.10176 0.23227 0.29115 0.0
H80 H 0.17756 0.36832 0.39708 0.0
H81 H 0.1552 0.32798 0.45457 0.0
H82 H 0.20549 0.40046 0.42873 0.0
H83 H 0.18352 0.36077 0.4852 0.0
H84 H 0.21361 0.3645 0.33285 0.0
H85 H 0.20692 0.28624 0.33929 0.0
H86 H 0.06296 0.23616 0.42486 0.0
H87 H 0.13246 0.25489 0.46177 0.0
Li88 Li 0.01925 0.79251 0.64777 0.0
Li89 Li 0.03872 0.77754 0.68241 0.0
Li90 Li 0.01476 0.74763 0.6473 0.0
Li91 Li 0.9961 0.77175 0.67803 0.0
C92 C 0.05217 0.76362 0.6252 0.0
N93 N 0.06781 0.74172 0.58187 0.0
C94 C 0.07131 0.75277 0.62634 0.0
C95 C 0.04109 0.76346 0.60198 0.0
C96 C 0.0789 0.74172 0.60424 0.0
C97 C 0.04927 0.75232 0.58031 0.0
C98 C 0.02246 0.81733 0.70959 0.0
C99 C 0.01974 0.81644 0.75306 0.0
N100 N 0.0263 0.84228 0.75878 0.0
C101 C 0.02913 0.84387 0.71587 0.0
C102 C 0.01772 0.80349 0.72831 0.0
C103 C 0.03099 0.85613 0.74086 0.0
C104 C 1.00422 0.8193 0.61291 0.0
N105 N 0.02284 0.81678 0.62695 0.0
C106 C 0.04857 0.84385 0.60628 0.0
C107 C 0.0447 0.8289 0.62422 0.0
C108 C 0.02975 0.84628 0.59097 0.0
C109 C 1.0073 0.83396 0.59462 0.0
H110 H 0.98705 0.80919 0.6153 0.0
H111 H 0.0592 0.82622 0.63541 0.0
C112 C 0.07391 0.7584 0.6967 0.0
N113 N 0.06587 0.77972 0.70339 0.0
C114 C 0.0936 0.75536 0.7095 0.0
C115 C 0.09638 0.7962 0.7366 0.0
C116 C 0.0766 0.79862 0.7229 0.0
C117 C 0.10512 0.77429 0.72984 0.0
H118 H 0.06484 0.74362 0.68134 0.0
H119 H 0.06978 0.81537 0.72798 0.0
C120 C 0.97211 0.74868 0.62615 0.0
N121 N 0.93574 0.71413 0.59623 0.0
C122 C 0.95797 0.72987 0.63589 0.0
C123 C 0.9677 0.75001 0.60122 0.0
C124 C 0.93969 0.71255 0.62046 0.0
C125 C 0.94924 0.73235 0.58638 0.0
C126 C 1.00998 0.72817 0.69552 0.0
C127 C 0.99476 0.70502 0.68448 0.0
C128 C 0.02064 0.73139 0.71965 0.0
C129 C 0.99026 0.68561 0.69789 0.0
C130 C 0.01568 0.71151 0.73244 0.0
N131 N 1.00071 0.68923 0.72139 0.0
C132 C 0.02858 0.70299 0.63897 0.0
C133 C 1.00748 0.70772 0.60286 0.0
C134 C 0.0345 0.68157 0.62581 0.0
N135 N 0.01549 0.71571 0.62741 0.0
C136 C 0.01326 0.68641 0.5888 0.0
C137 C 0.02749 0.67358 0.60026 0.0
H138 H 0.03533 0.71012 0.65824 0.0
H139 H 0.99787 0.71866 0.59381 0.0
C140 C 0.95977 0.79195 0.69765 0.0
N141 N 0.96935 0.77146 0.69583 0.0
C142 C 0.93993 0.79257 0.70991 0.0
C143 C 0.94013 0.75105 0.71821 0.0
C144 C 0.96 0.75128 0.70591 0.0
C145 C 0.92987 0.77193 0.72044 0.0
H146 H 0.96751 0.80774 0.68943 0.0
H147 H 0.96758 0.73507 0.7041 0.0
O148 O 0.04378 0.77352 0.64663 0.0
O149 O 0.02059 0.8051 0.6852 0.0
O150 O 0.99007 0.76584 0.64096 0.0
O151 O 0.01484 0.74738 0.68262 0.0
H152 H 0.08018 0.75275 0.64407 0.0
H153 H 0.02597 0.77126 0.60067 0.0
H154 H 0.09358 0.7331 0.60487 0.0
H155 H 0.04073 0.75189 0.56224 0.0
H156 H 0.01611 0.80595 0.76773 0.0
H157 H 0.03286 0.85485 0.70158 0.0
H158 H 0.01248 0.78298 0.7238 0.0
H159 H 0.03617 0.87667 0.746 0.0
H160 H 0.06613 0.85315 0.60416 0.0
H161 H 0.99235 0.8349 0.58292 0.0
H162 H 0.09979 0.7383 0.70343 0.0
H163 H 0.10446 0.81105 0.75246 0.0
H164 H 0.96111 0.72859 0.65511 0.0
H165 H 0.97857 0.76434 0.59331 0.0
H166 H 0.92863 0.69786 0.62775 0.0
H167 H 0.94569 0.73308 0.56702 0.0
H168 H 0.98647 0.70208 0.66577 0.0
H169 H 0.03264 0.74905 0.72843 0.0
H170 H 0.97846 0.66766 0.6896 0.0
H171 H 0.02377 0.71377 0.75114 0.0
H172 H 0.04508 0.67182 0.6354 0.0
H173 H 1.00763 0.68075 0.56904 0.0
H174 H 0.93252 0.80901 0.71108 0.0
H175 H 0.93262 0.73441 0.72538 0.0
Li176 Li 0.59943 0.8213 0.86746 0.0
Li177 Li 0.62346 0.84862 0.90248 0.0
Li178 Li 0.64124 0.82502 0.87242 0.0
Li179 Li 0.6174 0.80388 0.90193 0.0
C180 C 0.62492 0.85544 0.84355 0.0
N181 N 0.62585 0.86336 0.79536 0.0
C182 C 0.62783 0.88006 0.83905 0.0
C183 C 0.62241 0.83488 0.82353 0.0
C184 C 0.62828 0.88367 0.81456 0.0
C185 C 0.62295 0.83926 0.79932 0.0
C186 C 0.58409 0.83527 0.92248 0.0
C187 C 0.58061 0.84477 0.96662 0.0
N188 N 0.56503 0.85874 0.96249 0.0
C189 C 0.56796 0.84964 0.91869 0.0
C190 C 0.59045 0.83277 0.94664 0.0
C191 C 0.55858 0.86143 0.93916 0.0
C192 C 0.55833 0.7974 0.83323 0.0
N193 N 0.57242 0.81914 0.84682 0.0
C194 C 0.54646 0.8439 0.83634 0.0
C195 C 0.56708 0.8421 0.84825 0.0
C196 C 0.53123 0.82185 0.82271 0.0
C197 C 0.53742 0.79835 0.82074 0.0
H198 H 0.56301 0.77937 0.83266 0.0
H199 H 0.57861 0.85899 0.85936 0.0
C200 C 0.62944 0.88531 0.9486 0.0
N201 N 0.62415 0.88023 0.92347 0.0
C202 C 0.62403 0.90646 0.96331 0.0
C203 C 0.60874 0.91706 0.92589 0.0
C204 C 0.61452 0.89587 0.91196 0.0
C205 C 0.61284 0.92209 0.95193 0.0
H206 H 0.63637 0.87212 0.95738 0.0
H207 H 0.60984 0.8909 0.89206 0.0
C208 C 0.62159 0.77131 0.85268 0.0
N209 N 0.63297 0.72726 0.82907 0.0
C210 C 0.63374 0.75821 0.86617 0.0
C211 C 0.61483 0.76172 0.82726 0.0
C212 C 0.63945 0.73606 0.85387 0.0
C213 C 0.62086 0.7395 0.81564 0.0
C214 C 0.66463 0.84727 0.92401 0.0
C215 C 0.67623 0.86823 0.91514 0.0
C216 C 0.67078 0.84478 0.94822 0.0
C217 C 0.69385 0.88643 0.93067 0.0
C218 C 0.68851 0.86339 0.96318 0.0
N219 N 0.69957 0.88365 0.95417 0.0
C220 C 0.67831 0.84698 0.84659 0.0
C221 C 0.67988 0.80679 0.85523 0.0
C222 C 0.69891 0.84845 0.83541 0.0
N223 N 0.66896 0.82616 0.85585 0.0
C224 C 0.70059 0.80756 0.84445 0.0
C225 C 0.71038 0.82863 0.83442 0.0
H226 H 0.67024 0.8629 0.84841 0.0
H227 H 0.67289 0.79102 0.86367 0.0
C228 C 0.58833 0.76798 0.92203 0.0
N229 N 0.61104 0.779 0.92182 0.0
C230 C 0.58153 0.7524 0.93886 0.0
C231 C 0.62171 0.75917 0.95447 0.0
C232 C 0.62775 0.77477 0.93738 0.0
C233 C 0.5983 0.74795 0.95548 0.0
H234 H 0.57541 0.77217 0.90978 0.0
H235 H 0.64566 0.78398 0.93692 0.0
O236 O 0.62426 0.85167 0.86746 0.0
O237 O 0.59382 0.82398 0.90272 0.0
O238 O 0.61539 0.79274 0.86448 0.0
O239 O 0.64717 0.82942 0.90917 0.0
H240 H 0.62982 0.89623 0.85432 0.0
H241 H 0.62019 0.81578 0.82665 0.0
H242 H 0.63057 0.90262 0.81082 0.0
H243 H 0.62108 0.82349 0.78367 0.0
H244 H 0.58548 0.84312 0.98542 0.0
H245 H 0.56285 0.85184 0.90017 0.0
H246 H 0.60317 0.82208 0.95003 0.0
H247 H 0.54621 0.87275 0.93651 0.0
H248 H 0.54225 0.86233 0.83809 0.0
H249 H 0.5259 0.78097 0.81044 0.0
H250 H 0.62773 0.90999 0.98337 0.0
H251 H 0.59994 0.92853 0.91647 0.0
H252 H 0.63905 0.76529 0.88585 0.0
H253 H 0.60489 0.7712 0.81662 0.0
H254 H 0.64906 0.72589 0.86405 0.0
H255 H 0.61583 0.73193 0.79596 0.0
H256 H 0.67144 0.87062 0.89659 0.0
H257 H 0.66183 0.8288 0.95547 0.0
H258 H 0.70292 0.90281 0.92408 0.0
H259 H 0.69341 0.86176 0.98198 0.0
H260 H 0.70614 0.86523 0.82832 0.0
H261 H 0.70898 0.79192 0.8442 0.0
H262 H 0.56327 0.74465 0.93941 0.0
H263 H 0.63515 0.75612 0.96694 0.0
Li264 Li 0.51662 0.29547 0.16079 0.0
Li265 Li 0.53765 0.27835 0.19088 0.0
Li266 Li 0.51433 0.25003 0.15275 0.0
Li267 Li 0.49534 0.26911 0.18705 0.0
C268 C 0.55245 0.28626 0.1363 0.0
N269 N 0.57296 0.30423 0.09735 0.0
C270 C 0.57396 0.3035 0.14076 0.0
C271 C 0.54145 0.27798 0.11203 0.0
C272 C 0.58404 0.31239 0.1208 0.0
C273 C 0.55207 0.28735 0.0926 0.0
C274 C 0.51919 0.31217 0.22333 0.0
C275 C 0.51993 0.30468 0.2652 0.0
N276 N 0.52202 0.32995 0.27417 0.0
C277 C 0.52136 0.33805 0.23294 0.0
C278 C 0.51852 0.29534 0.23955 0.0
C279 C 0.52277 0.34667 0.25871 0.0
C280 C 0.50755 0.32185 0.1228 0.0
N281 N 0.52027 0.32379 0.14474 0.0
C282 C 0.54557 0.3621 0.13931 0.0
C283 C 0.53857 0.34377 0.15353 0.0
C284 C 0.53362 0.35973 0.11586 0.0
C285 C 0.51402 0.33967 0.10792 0.0
H286 H 0.49319 0.30573 0.11619 0.0
H287 H 0.54865 0.34451 0.1708 0.0
C288 C 0.57187 0.25733 0.20159 0.0
N289 N 0.56517 0.27926 0.2098 0.0
C290 C 0.59221 0.25332 0.21197 0.0
C291 C 0.59864 0.29467 0.23941 0.0
C292 C 0.57787 0.29788 0.22844 0.0
C293 C 0.60608 0.27228 0.23076 0.0
H294 H 0.56131 0.24292 0.18677 0.0
H295 H 0.57209 0.31517 0.23452 0.0
C296 C 0.47132 0.24994 0.13418 0.0
N297 N 0.43697 0.21515 0.10149 0.0
C298 C 0.45424 0.23309 0.14313 0.0
C299 C 0.47087 0.24901 0.10853 0.0
C300 C 0.43704 0.21568 0.12633 0.0
C301 C 0.45338 0.23131 0.09233 0.0
C302 C 0.5087 0.22373 0.19609 0.0
C303 C 0.49076 0.20406 0.18292 0.0
C304 C 0.51963 0.22098 0.21832 0.0
C305 C 0.48392 0.18199 0.19229 0.0
C306 C 0.51228 0.19863 0.22709 0.0
N307 N 0.49472 0.17976 0.21401 0.0
C308 C 0.54033 0.22044 0.12907 0.0
C309 C 0.50063 0.20071 0.1176 0.0
C310 C 0.54687 0.19974 0.1153 0.0
N311 N 0.51761 0.22067 0.13004 0.0
C312 C 0.50645 0.17923 0.10379 0.0
C313 C 0.52988 0.17849 0.10303 0.0
H314 H 0.55354 0.23618 0.13952 0.0
H315 H 0.48268 0.20097 0.11902 0.0
C316 C 0.45326 0.27719 0.1988 0.0
N317 N 0.46897 0.26435 0.20515 0.0
C318 C 0.43219 0.27431 0.20883 0.0
C319 C 0.44394 0.2456 0.2326 0.0
C320 C 0.46495 0.24903 0.222 0.0
C321 C 0.42702 0.25803 0.22571 0.0
H322 H 0.45701 0.28935 0.1855 0.0
H323 H 0.47785 0.2393 0.22714 0.0
O324 O 0.542 0.27783 0.15567 0.0
O325 O 0.51801 0.3036 0.19814 0.0
O326 O 0.48813 0.26748 0.15037 0.0
O327 O 0.51565 0.24556 0.18732 0.0
H328 H 0.58266 0.31009 0.15946 0.0
H329 H 0.52481 0.26463 0.1083 0.0
H330 H 0.60064 0.32584 0.12396 0.0
H331 H 0.54368 0.28123 0.07375 0.0
H332 H 0.51941 0.29186 0.27797 0.0
H333 H 0.52201 0.35133 0.2206 0.0
H334 H 0.51698 0.27531 0.23246 0.0
H335 H 0.52447 0.36666 0.26642 0.0
H336 H 0.56103 0.377 0.14586 0.0
H337 H 0.50437 0.33724 0.08994 0.0
H338 H 0.59715 0.23561 0.20521 0.0
H339 H 0.60899 0.30963 0.25398 0.0
H340 H 0.45428 0.23317 0.16278 0.0
H341 H 0.48391 0.26172 0.10113 0.0
H342 H 0.42379 0.20252 0.13306 0.0
H343 H 0.45288 0.2304 0.07245 0.0
H344 H 0.48217 0.20581 0.16569 0.0
H345 H 0.53355 0.23602 0.22879 0.0
H346 H 0.47002 0.16664 0.1823 0.0
H347 H 0.52052 0.19629 0.24431 0.0
H348 H 0.56512 0.2002 0.11466 0.0
H349 H 0.49286 0.1631 0.09453 0.0
H350 H 0.42017 0.28491 0.2033 0.0
H351 H 0.44084 0.23309 0.2457 0.0
Li352 Li 0.10511 0.84502 0.10431 0.0
Li353 Li 0.13199 0.82567 0.13646 0.0
Li354 Li 0.10281 0.79525 0.10231 0.0
Li355 Li 0.08787 0.82042 0.13678 0.0
C356 C 0.13905 0.81135 0.07851 0.0
N357 N 0.15504 0.78455 0.03812 0.0
C358 C 0.15524 0.79705 0.08221 0.0
C359 C 0.13103 0.81214 0.05432 0.0
C360 C 0.16309 0.78359 0.06153 0.0
C361 C 0.13933 0.79844 0.03413 0.0
C362 C 0.10759 0.86498 0.16496 0.0
C363 C 0.11132 0.87314 0.20986 0.0
N364 N 0.09477 0.88679 0.20994 0.0
C365 C 0.09069 0.87915 0.16545 0.0
C366 C 0.11803 0.86194 0.1873 0.0
C367 C 0.08442 0.89 0.1884 0.0
C368 C 0.08113 0.88539 0.09404 0.0
N369 N 0.10077 0.8769 0.0893 0.0
C370 C 0.11277 0.91246 0.06834 0.0
C371 C 0.11638 0.89015 0.07633 0.0
C372 C 0.093 0.92215 0.07381 0.0
C373 C 0.07703 0.90765 0.08667 0.0
H374 H 0.06846 0.87503 0.10396 0.0
H375 H 0.13201 0.88378 0.07237 0.0
C376 C 0.16601 0.80349 0.15913 0.0
N377 N 0.16266 0.82644 0.15562 0.0
C378 C 0.18628 0.80152 0.17261 0.0
C379 C 0.20029 0.84671 0.17824 0.0
C380 C 0.17956 0.84789 0.16486 0.0
C381 C 0.20398 0.82328 0.18277 0.0
H382 H 0.15279 0.78644 0.15155 0.0
H383 H 0.17708 0.86605 0.16184 0.0
C384 C 0.06129 0.80177 0.08178 0.0
N385 N 0.02836 0.77453 0.04322 0.0
C386 C 0.04331 0.78253 0.086 0.0
C387 C 0.06248 0.80729 0.05801 0.0
C388 C 0.02683 0.76895 0.06625 0.0
C389 C 0.04568 0.79325 0.03874 0.0
C390 C 0.09801 0.77817 0.15125 0.0
C391 C 0.07824 0.75938 0.14091 0.0
C392 C 0.10787 0.77892 0.17518 0.0
C393 C 0.06866 0.74155 0.1547 0.0
C394 C 0.09775 0.76077 0.1884 0.0
N395 N 0.07853 0.74261 0.17797 0.0
C396 C 0.11507 0.74658 0.09499 0.0
C397 C 0.08346 0.74366 0.06587 0.0
C398 C 0.1134 0.72014 0.08807 0.0
N399 N 0.09999 0.75808 0.08438 0.0
C400 C 0.08116 0.71696 0.05838 0.0
C401 C 0.09583 0.70447 0.07 0.0
H402 H 0.12811 0.75784 0.1097 0.0
H403 H 0.07142 0.75252 0.05735 0.0
C404 C 0.04099 0.82063 0.14831 0.0
N405 N 0.06206 0.81908 0.15824 0.0
C406 C 0.0219 0.81891 0.16239 0.0
C407 C 0.04639 0.81444 0.19697 0.0
C408 C 0.06498 0.8162 0.18224 0.0
C409 C 0.02437 0.81585 0.18719 0.0
H410 H 0.03891 0.82318 0.12933 0.0
H411 H 0.08175 0.81517 0.19005 0.0
O412 O 0.13069 0.82406 0.09849 0.0
O413 O 0.11338 0.85338 0.14273 0.0
O414 O 0.07757 0.81531 0.10084 0.0
O415 O 0.10762 0.79583 0.13805 0.0
H416 H 0.16153 0.79621 0.10086 0.0
H417 H 0.11849 0.82315 0.0512 0.0
H418 H 0.17555 0.77234 0.06409 0.0
H419 H 0.13325 0.79881 0.01528 0.0
H420 H 0.11917 0.87086 0.22731 0.0
H421 H 0.08231 0.88149 0.14832 0.0
H422 H 0.13098 0.8508 0.18719 0.0
H423 H 0.07127 0.90091 0.18908 0.0
H424 H 0.12581 0.92248 0.05855 0.0
H425 H 0.06121 0.91343 0.09108 0.0
H426 H 0.18783 0.78294 0.17534 0.0
H427 H 0.21342 0.86412 0.18462 0.0
H428 H 0.04208 0.77812 0.10433 0.0
H429 H 0.07621 0.82227 0.05453 0.0
H430 H 0.01284 0.75397 0.06922 0.0
H431 H 0.0464 0.79725 0.02022 0.0
H432 H 0.07039 0.75855 0.12243 0.0
H433 H 0.12303 0.79353 0.18356 0.0
H434 H 0.05337 0.72687 0.14692 0.0
H435 H 0.10515 0.76116 0.20697 0.0
H436 H 0.12562 0.71197 0.09731 0.0
H437 H 0.06733 0.70604 0.04433 0.0
H438 H 1.0054 0.82023 0.15399 0.0
H439 H 0.0492 0.81158 0.21578 0.0
Li440 Li 0.53221 0.79931 0.45107 0.0
Li441 Li 0.50387 0.76858 0.4163 0.0
Li442 Li 0.53013 0.74898 0.44702 0.0
Li443 Li 0.54752 0.77235 0.41432 0.0
C444 C 0.49669 0.77687 0.47662 0.0
N445 N 0.48042 0.7905 0.52211 0.0
C446 C 0.47785 0.7883 0.47816 0.0
C447 C 0.5071 0.77212 0.49817 0.0
C448 C 0.46991 0.7951 0.50134 0.0
C449 C 0.49867 0.77924 0.52101 0.0
C450 C 0.52058 0.81202 0.39912 0.0
C451 C 0.51305 0.81973 0.35794 0.0
N452 N 0.50307 0.83889 0.36778 0.0
C453 C 0.51026 0.83181 0.40882 0.0
C454 C 0.52202 0.80595 0.37346 0.0
C455 C 0.50151 0.84517 0.39268 0.0
C456 C 0.55312 0.85268 0.45862 0.0
N457 N 0.538 0.83648 0.46932 0.0
C458 C 0.52953 0.87308 0.49632 0.0
C459 C 0.52649 0.84636 0.48823 0.0
C460 C 0.54435 0.89017 0.48478 0.0
C461 C 0.55641 0.8793 0.46589 0.0
H462 H 0.56204 0.8449 0.4435 0.0
H463 H 0.51433 0.83366 0.49662 0.0
C464 C 0.46437 0.75118 0.37479 0.0
N465 N 0.47317 0.76804 0.39662 0.0
C466 C 0.44445 0.75331 0.36059 0.0
C467 C 0.44223 0.78968 0.39143 0.0
C468 C 0.46222 0.78699 0.40493 0.0
C469 C 0.43288 0.7728 0.36872 0.0
H470 H 0.47292 0.73616 0.36803 0.0
H471 H 0.46936 0.80072 0.42184 0.0
C472 C 0.57299 0.7802 0.47048 0.0
N473 N 0.60409 0.78127 0.51023 0.0
C474 C 0.59206 0.76948 0.46653 0.0
C475 C 0.56989 0.79178 0.49456 0.0
C476 C 0.60755 0.77011 0.4869 0.0
C477 C 0.58576 0.79205 0.51443 0.0
C478 C 0.52674 0.72607 0.38769 0.0
C479 C 0.53676 0.70547 0.38869 0.0
C480 C 0.52202 0.73228 0.36471 0.0
C481 C 0.54219 0.69163 0.36668 0.0
C482 C 0.52767 0.71797 0.3431 0.0
N483 N 0.53758 0.69812 0.34452 0.0
C484 C 0.52024 0.70537 0.47707 0.0
C485 C 0.55434 0.70876 0.45722 0.0
C486 C 0.52421 0.68346 0.48557 0.0
N487 N 0.5351 0.71776 0.46279 0.0
C488 C 0.55881 0.68695 0.46515 0.0
C489 C 0.54357 0.6733 0.47932 0.0
H490 H 0.50491 0.7121 0.48166 0.0
H491 H 0.56625 0.71819 0.44596 0.0
C492 C 0.57996 0.79521 0.38329 0.0
N493 N 0.57375 0.77446 0.39369 0.0
C494 C 0.59938 0.79839 0.36986 0.0
C495 C 0.60644 0.75922 0.37851 0.0
C496 C 0.58667 0.75663 0.39157 0.0
C497 C 0.61313 0.78034 0.36728 0.0
H498 H 0.57009 0.80968 0.38578 0.0
H499 H 0.58202 0.74065 0.40057 0.0
O500 O 0.50477 0.77008 0.45414 0.0
O501 O 0.52905 0.79853 0.41461 0.0
O502 O 0.55751 0.77958 0.45085 0.0
O503 O 0.52168 0.74019 0.40907 0.0
H504 H 0.46946 0.79192 0.46168 0.0
H505 H 0.52153 0.76303 0.49725 0.0
H506 H 0.4554 0.80405 0.50281 0.0
H507 H 0.50663 0.77577 0.53785 0.0
H508 H 0.51405 0.81521 0.33805 0.0
H509 H 0.50867 0.83659 0.42856 0.0
H510 H 0.53006 0.79084 0.36559 0.0
H511 H 0.49341 0.86045 0.39995 0.0
H512 H 0.51958 0.88022 0.51076 0.0
H513 H 0.56815 0.89135 0.45639 0.0
H514 H 0.43812 0.7397 0.34331 0.0
H515 H 0.43459 0.80544 0.39845 0.0
H516 H 0.59482 0.76067 0.44796 0.0
H517 H 0.5554 0.80053 0.49784 0.0
H518 H 0.62232 0.76175 0.48415 0.0
H519 H 0.58353 0.80086 0.53319 0.0
H520 H 0.54032 0.70022 0.40625 0.0
H521 H 0.51409 0.74799 0.36358 0.0
H522 H 0.55005 0.67571 0.3672 0.0
H523 H 0.52417 0.72263 0.3252 0.0
H524 H 0.51172 0.67405 0.49635 0.0
H525 H 0.57428 0.68076 0.46001 0.0
H526 H 0.60361 0.81499 0.36162 0.0
H527 H 0.61669 0.74512 0.37786 0.0
Li528 Li 0.60438 0.33946 0.60265 0.0
Li529 Li 0.6299 0.31926 0.63542 0.0
Li530 Li 0.60057 0.28959 0.60097 0.0
Li531 Li 0.58557 0.3156 0.6361 0.0
C532 C 0.63756 0.30428 0.57772 0.0
N533 N 0.65334 0.27633 0.53793 0.0
C534 C 0.65363 0.28999 0.58191 0.0
C535 C 0.62955 0.30447 0.55335 0.0
C536 C 0.66138 0.27594 0.56153 0.0
C537 C 0.63774 0.29019 0.53347 0.0
C538 C 0.6125 0.36533 0.662 0.0
C539 C 0.61913 0.37908 0.70668 0.0
N540 N 0.61347 0.40137 0.70474 0.0
C541 C 0.60694 0.38845 0.6604 0.0
C542 C 0.61882 0.36066 0.68528 0.0
C543 C 0.60747 0.4064 0.68224 0.0
C544 C 0.58053 0.37945 0.5919 0.0
N545 N 0.6003 0.37117 0.5874 0.0
C546 C 0.61209 0.40648 0.56609 0.0
C547 C 0.61588 0.38439 0.57437 0.0
C548 C 0.59214 0.41593 0.57125 0.0
C549 C 0.57621 0.40143 0.58416 0.0
H550 H 0.56799 0.36919 0.60203 0.0
H551 H 0.63161 0.37815 0.57059 0.0
C552 C 0.66157 0.29567 0.65975 0.0
N553 N 0.65982 0.31896 0.65559 0.0
C554 C 0.68083 0.29264 0.67413 0.0
C555 C 0.69742 0.33734 0.67914 0.0
C556 C 0.6775 0.33967 0.66499 0.0
C557 C 0.69924 0.31358 0.68428 0.0
H558 H 0.64784 0.27918 0.65193 0.0
H559 H 0.67624 0.35812 0.66167 0.0
C560 C 0.55952 0.29798 0.58054 0.0
N561 N 0.52617 0.27251 0.54174 0.0
C562 C 0.54105 0.27907 0.5844 0.0
C563 C 0.56101 0.30403 0.55701 0.0
C564 C 0.52436 0.2664 0.56453 0.0
C565 C 0.54399 0.2909 0.53761 0.0
C566 C 0.59767 0.27394 0.65258 0.0
C567 C 0.58243 0.2503 0.64355 0.0
C568 C 0.60604 0.28097 0.67781 0.0
C569 C 0.57579 0.23412 0.65994 0.0
C570 C 0.599 0.26425 0.69361 0.0
N571 N 0.58415 0.24137 0.68443 0.0
C572 C 0.6116 0.24015 0.59235 0.0
C573 C 0.58008 0.23909 0.56385 0.0
C574 C 0.60917 0.21366 0.58462 0.0
N575 N 0.59692 0.25257 0.58244 0.0
C576 C 0.57707 0.21241 0.5555 0.0
C577 C 0.59145 0.19896 0.56619 0.0
H578 H 0.6248 0.25067 0.60721 0.0
H579 H 0.56835 0.24869 0.55592 0.0
C580 C 0.55534 0.33713 0.67032 0.0
N581 N 0.5596 0.31516 0.65738 0.0
C582 C 0.53669 0.33663 0.68496 0.0
C583 C 0.5264 0.291 0.67232 0.0
C584 C 0.5452 0.29238 0.65792 0.0
C585 C 0.52198 0.31329 0.68641 0.0
H586 H 0.56617 0.35521 0.66914 0.0
H587 H 0.5481 0.27511 0.64697 0.0
O588 O 0.6293 0.31758 0.5974 0.0
O589 O 0.61191 0.34744 0.64087 0.0
O590 O 0.57602 0.31061 0.59971 0.0
O591 O 0.60454 0.28998 0.63677 0.0
H592 H 0.6599 0.2896 0.60071 0.0
H593 H 0.61707 0.31544 0.54986 0.0
H594 H 0.67375 0.26469 0.56446 0.0
H595 H 0.63167 0.29009 0.51449 0.0
H596 H 0.62388 0.37568 0.72484 0.0
H597 H 0.60219 0.39244 0.64251 0.0
H598 H 0.62343 0.343 0.68678 0.0
H599 H 0.6031 0.42433 0.6813 0.0
H600 H 0.62511 0.41652 0.55629 0.0
H601 H 0.56027 0.40701 0.58837 0.0
H602 H 0.68139 0.27385 0.6771 0.0
H603 H 0.71106 0.35412 0.68644 0.0
H604 H 0.5397 0.27412 0.60248 0.0
H605 H 0.57517 0.31872 0.55379 0.0
H606 H 0.51 0.25165 0.5672 0.0
H607 H 0.54493 0.29534 0.51927 0.0
H608 H 0.57545 0.24466 0.62418 0.0
H609 H 0.61796 0.29906 0.68512 0.0
H610 H 0.56393 0.21583 0.65321 0.0
H611 H 0.60538 0.26945 0.71317 0.0
H612 H 0.62093 0.20466 0.59349 0.0
H613 H 0.56287 0.20231 0.54156 0.0
H614 H 0.53368 0.35444 0.69481 0.0
H615 H 0.51557 0.27255 0.67266 0.0
Li616 Li 0.03515 0.30502 0.95086 0.0
Li617 Li 1.00568 0.27498 0.91554 0.0
Li618 Li 0.03055 0.25396 0.94694 0.0
Li619 Li 0.0495 0.27666 0.91421 0.0
C620 C 0.99487 0.28609 0.97243 0.0
N621 N 0.97146 0.3049 0.0109 0.0
C622 C 0.9773 0.29835 0.96772 0.0
C623 C 1.00052 0.2833 0.99664 0.0
C624 C 0.96566 0.30774 0.98744 0.0
C625 C 0.98848 0.29298 0.01586 0.0
C626 C 0.03222 0.31695 0.89554 0.0
C627 C 0.03508 0.31898 0.85231 0.0
N628 N 0.03287 0.34348 0.85745 0.0
C629 C 0.03002 0.34216 0.9004 0.0
C630 C 0.03478 0.30526 0.8713 0.0
C631 C 0.03036 0.35523 0.8809 0.0
C632 C 0.05932 0.35824 0.96045 0.0
N633 N 0.04188 0.34252 0.96895 0.0
C634 C 0.03244 0.37982 0.99376 0.0
C635 C 0.02871 0.35302 0.98571 0.0
C636 C 0.04972 0.39647 0.98438 0.0
C637 C 0.06337 0.38499 0.96769 0.0
H638 H 0.06957 0.35003 0.94695 0.0
H639 H 0.01472 0.34079 0.99236 0.0
C640 C 0.95928 0.25483 0.8838 0.0
N641 N 0.97582 0.27587 0.89535 0.0
C642 C 0.93946 0.25708 0.86947 0.0
C643 C 0.95383 0.30241 0.87849 0.0
C644 C 0.97296 0.29939 0.89312 0.0
C645 C 0.93657 0.28117 0.86634 0.0
H646 H 0.96142 0.23617 0.88554 0.0
H647 H 0.98556 0.3161 0.90281 0.0
C648 C 0.07551 0.28183 0.96829 0.0
N649 N 0.10864 0.27806 1.00385 0.0
C650 C 0.09442 0.27199 0.96104 0.0
C651 C 0.07345 0.28988 0.99357 0.0
C652 C 0.11098 0.2702 0.97932 0.0
C653 C 0.09039 0.28779 0.01128 0.0
C654 C 0.02175 0.22861 0.88739 0.0
C655 C 0.02948 0.20639 0.88766 0.0
C656 C 0.01264 0.23281 0.86493 0.0
C657 C 0.02848 0.189 0.8653 0.0
C658 C 0.01191 0.21496 0.84296 0.0
N659 N 0.01981 0.19362 0.8436 0.0
C660 C 0.01942 0.20985 0.97658 0.0
C661 C 0.05316 0.21229 0.9562 0.0
C662 C 0.02284 0.18752 0.98472 0.0
N663 N 0.03437 0.22198 0.96221 0.0
C664 C 0.05714 0.19013 0.96386 0.0
C665 C 0.04177 0.1767 0.97809 0.0
H666 H 1.00444 0.21714 0.98157 0.0
H667 H 0.06516 0.22151 0.94487 0.0
C668 C 0.08855 0.30109 0.89243 0.0
N669 N 0.07557 0.27777 0.89362 0.0
C670 C 0.10764 0.3034 0.87845 0.0
C671 C 0.10024 0.25767 0.86747 0.0
C672 C 0.08132 0.25624 0.88173 0.0
C673 C 0.11364 0.28151 0.86544 0.0
H674 H 0.08404 0.31803 0.90234 0.0
H675 H 0.0714 0.23786 0.88342 0.0
O676 O 1.00643 0.27674 0.9534 0.0
O677 O 0.03208 0.30384 0.91442 0.0
O678 O 0.05901 0.28349 0.95072 0.0
O679 O 0.02246 0.24581 0.90909 0.0
H680 H 0.97276 0.30064 0.94905 0.0
H681 H 0.01406 0.27378 1.00052 0.0
H682 H 0.95204 0.31732 0.98411 0.0
H683 H 0.99268 0.29102 0.03472 0.0
H684 H 0.03713 0.31018 0.83349 0.0
H685 H 0.02766 0.35142 0.91894 0.0
H686 H 0.03681 0.2859 0.86722 0.0
H687 H 0.02856 0.37471 0.88439 0.0
H688 H 0.02119 0.38741 1.00643 0.0
H689 H 0.077 0.39666 0.9599 0.0
H690 H 0.92669 0.24006 0.86054 0.0
H691 H 0.95239 0.32139 0.87702 0.0
H692 H 0.09621 0.2657 0.9415 0.0
H693 H 0.05889 0.29758 0.99942 0.0
H694 H 0.12568 0.26254 0.97401 0.0
H695 H 0.08903 0.29389 0.03094 0.0
H696 H 0.0363 0.20268 0.90491 0.0
H697 H 1.00605 0.24958 0.86447 0.0
H698 H 0.03456 0.17182 0.86521 0.0
H699 H 1.00499 0.21802 0.82543 0.0
H700 H 0.01027 0.1784 0.9956 0.0
H701 H 0.07242 0.18362 0.95854 0.0
H702 H 0.1174 0.32217 0.87749 0.0
H703 H 0.10447 0.24024 0.85833 0.0
Li704 Li 0.43801 0.05582 0.32817 0.0
Li705 Li 0.40561 0.02659 0.30059 0.0
Li706 Li 0.43932 0.0475 0.28255 0.0
Li707 Li 0.41081 0.07157 0.30035 0.0
C708 C 0.45069 1.00687 0.30804 0.0
N709 N 0.47699 0.97223 0.31409 0.0
C710 C 0.44047 0.98363 0.31403 0.0
C711 C 0.47437 1.01253 0.30539 0.0
C712 C 0.45403 0.96637 0.31694 0.0
C713 C 0.48734 0.99476 0.30845 0.0
C714 C 0.3876 0.04582 0.34399 0.0
C715 C 0.34895 0.04086 0.35651 0.0
N716 N 0.35477 0.02815 0.37401 0.0
C717 C 0.39323 0.03285 0.36221 0.0
C718 C 0.36532 0.05 0.34119 0.0
C719 C 0.37638 0.02401 0.37715 0.0
C720 C 0.47154 0.08372 0.37002 0.0
N721 N 0.45771 0.06098 0.35808 0.0
C722 C 0.47398 0.03929 0.38567 0.0
C723 C 0.45857 0.03912 0.36572 0.0
C724 C 0.48813 0.06237 0.39874 0.0
C725 C 0.48706 0.08487 0.39067 0.0
H726 H 0.47061 0.10087 0.36347 0.0
H727 H 0.4472 0.02141 0.35634 0.0
C728 C 0.3924 0.97834 0.27514 0.0
N729 N 0.3858 0.9935 0.29458 0.0
C730 C 0.38305 0.9523 0.26962 0.0
C731 C 0.35928 0.95776 0.30354 0.0
C732 C 0.3691 0.98393 0.30839 0.0
C733 C 0.36689 0.94162 0.28445 0.0
H734 H 0.40589 0.98642 0.26467 0.0
H735 H 0.36395 0.99621 0.32366 0.0
C736 C 0.46617 0.0975 0.30698 0.0
N737 N 0.50827 0.13069 0.30713 0.0
C738 C 0.46698 0.12121 0.30092 0.0
C739 C 0.48675 0.09072 0.31325 0.0
C740 C 0.48844 0.13772 0.30107 0.0
C741 C 0.50786 0.10774 0.31318 0.0
C742 C 0.38581 0.03215 0.25702 0.0
C743 C 0.38516 0.01571 0.23412 0.0
C744 C 0.36522 0.03682 0.26571 0.0
C745 C 0.36382 1.00402 0.22034 0.0
C746 C 0.34423 0.0248 0.25136 0.0
N747 N 0.34397 1.00876 0.22918 0.0
C748 C 0.4622 0.01942 0.24905 0.0
C749 C 0.47237 0.06393 0.25097 0.0
C750 C 0.48002 0.01585 0.23439 0.0
N751 N 0.45945 0.04329 0.25785 0.0
C752 C 0.49037 0.06126 0.23639 0.0
C753 C 0.49483 0.0371 0.22874 0.0
H754 H 0.45122 1.0033 0.25438 0.0
H755 H 0.46919 0.08255 0.2574 0.0
C756 C 0.38365 0.11004 0.30756 0.0
N757 N 0.39738 0.09785 0.29326 0.0
C758 C 0.37298 0.12732 0.29836 0.0
C759 C 0.39137 0.1194 0.26047 0.0
C760 C 0.40169 0.10251 0.27038 0.0
C761 C 0.37643 0.1317 0.27426 0.0
H762 H 0.38058 0.10596 0.32575 0.0
H763 H 0.41269 0.09242 0.2595 0.0
O764 O 0.43756 0.02393 0.3049 0.0
O765 O 0.40398 0.05505 0.3295 0.0
O766 O 0.44529 0.081 0.30653 0.0
O767 O 0.40646 0.04313 0.27116 0.0
H768 H 0.42233 0.97909 0.3168 0.0
H769 H 0.48264 0.03031 0.30073 0.0
H770 H 0.44631 0.94834 0.32155 0.0
H771 H 0.50565 0.99886 0.30628 0.0
H772 H 0.33163 0.04391 0.35451 0.0
H773 H 0.41034 0.02952 0.36473 0.0
H774 H 0.36071 0.06024 0.3274 0.0
H775 H 0.38048 0.01384 0.39123 0.0
H776 H 0.47449 0.02149 0.39119 0.0
H777 H 0.4977 0.10303 0.40044 0.0
H778 H 0.38896 0.94052 0.2544 0.0
H779 H 0.34665 0.95013 0.3152 0.0
H780 H 0.45118 0.12675 0.29604 0.0
H781 H 0.48642 0.07258 0.31821 0.0
H782 H 0.48934 0.1561 0.29634 0.0
H783 H 0.52393 0.10271 0.31795 0.0
H784 H 0.40098 1.01184 0.22722 0.0
H785 H 0.36545 0.04943 0.28341 0.0
H786 H 0.36302 0.99112 0.20265 0.0
H787 H 0.32815 0.02817 0.2579 0.0
H788 H 0.48275 0.99689 0.22837 0.0
H789 H 0.50094 0.07793 0.23148 0.0
H790 H 0.36191 0.13681 0.30978 0.0
H791 H 0.39437 0.12203 0.24178 0.0
Li792 Li 0.30546 0.22026 0.542 0.0
Li793 Li 0.32224 0.18452 0.51716 0.0
Li794 Li 0.30735 0.21559 0.49428 0.0
Li795 Li 0.27999 0.18377 0.51113 0.0
C796 C 0.34684 0.24711 0.52586 0.0
N797 N 0.37336 0.29618 0.5332 0.0
C798 C 0.37091 0.25175 0.52997 0.0
C799 C 0.33622 0.26736 0.52543 0.0
C800 C 0.38403 0.27672 0.53366 0.0
C801 C 0.34994 0.29205 0.52919 0.0
C802 C 0.28751 0.16185 0.54922 0.0
C803 C 0.27426 0.11623 0.54221 0.0
N804 N 0.26231 0.11885 0.56254 0.0
C805 C 0.27514 0.1641 0.57006 0.0
C806 C 0.28712 0.13774 0.53519 0.0
C807 C 0.26249 0.14213 0.57648 0.0
C808 C 0.28662 0.23678 0.58736 0.0
N809 N 0.30667 0.24024 0.57631 0.0
C810 C 0.32763 0.26316 0.61577 0.0
C811 C 0.32694 0.25363 0.58996 0.0
C812 C 0.3074 0.25851 0.62785 0.0
C813 C 0.28662 0.24556 0.61312 0.0
H814 H 0.27071 0.22588 0.57639 0.0
H815 H 0.34283 0.25586 0.58114 0.0
C816 C 0.35993 0.16135 0.5017 0.0
N817 N 0.34567 0.16515 0.51987 0.0
C818 C 0.37689 0.14747 0.5043 0.0
C819 C 0.36409 0.14153 0.5441 0.0
C820 C 0.34765 0.15573 0.5409 0.0
C821 C 0.37904 0.13724 0.52571 0.0
H822 H 0.35813 0.16908 0.48517 0.0
H823 H 0.33644 0.15927 0.55531 0.0
C824 C 0.26508 0.23147 0.50579 0.0
N825 N 0.23237 0.25324 0.48616 0.0
C826 C 0.24939 0.21758 0.48546 0.0
C827 C 0.26401 0.25633 0.51631 0.0
C828 C 0.23301 0.22895 0.47576 0.0
C829 C 0.24739 0.26703 0.50606 0.0
C830 C 0.29226 0.16055 0.46438 0.0
C831 C 0.27888 0.16752 0.44627 0.0
C832 C 0.29608 0.13599 0.46047 0.0
C833 C 0.26913 0.14956 0.42467 0.0
C834 C 0.28604 0.11858 0.43861 0.0
N835 N 0.27286 0.12567 0.42133 0.0
C836 C 0.32874 0.22342 0.44955 0.0
C837 C 0.30087 0.24783 0.45755 0.0
C838 C 0.33244 0.23157 0.42694 0.0
N839 N 0.31304 0.2314 0.46442 0.0
C840 C 0.30393 0.25632 0.43501 0.0
C841 C 0.31985 0.24818 0.41913 0.0
H842 H 0.33809 0.2101 0.45493 0.0
H843 H 0.28841 0.25411 0.46927 0.0
C844 C 0.23427 0.17158 0.52373 0.0
N845 N 0.24864 0.16205 0.5081 0.0
C846 C 0.2121 0.15717 0.52522 0.0
C847 C 0.21935 0.12333 0.49409 0.0
C848 C 0.24152 0.1384 0.49325 0.0
C849 C 0.20443 0.13248 0.5106 0.0
H850 H 0.24026 0.1903 0.53551 0.0
H851 H 0.25317 0.13084 0.48123 0.0
O852 O 0.33375 0.2228 0.52221 0.0
O853 O 0.29948 0.18311 0.54212 0.0
O854 O 0.2813 0.22078 0.51557 0.0
O855 O 0.30205 0.17783 0.48559 0.0
H856 H 0.37935 0.23622 0.53032 0.0
H857 H 0.3176 0.26404 0.5222 0.0
H858 H 0.40269 0.28063 0.53689 0.0
H859 H 0.34197 0.30793 0.52891 0.0
H860 H 0.27372 0.09746 0.53145 0.0
H861 H 0.27523 0.18258 0.58113 0.0
H862 H 0.29644 0.1357 0.51888 0.0
H863 H 0.2528 0.14358 0.59254 0.0
H864 H 0.34408 0.27274 0.62643 0.0
H865 H 0.27065 0.2414 0.62165 0.0
H866 H 0.38795 0.14444 0.48959 0.0
H867 H 0.36526 0.13417 0.56097 0.0
H868 H 0.24977 0.1982 0.47734 0.0
H869 H 0.27596 0.26725 0.53218 0.0
H870 H 0.22077 0.21844 0.46 0.0
H871 H 0.24641 0.28629 0.51394 0.0
H872 H 0.27615 0.1866 0.44878 0.0
H873 H 0.30665 0.13042 0.4742 0.0
H874 H 0.25866 0.15465 0.41052 0.0
H875 H 0.28874 0.09945 0.43537 0.0
H876 H 0.34452 0.2242 0.41531 0.0
H877 H 0.2938 0.26914 0.43001 0.0
H878 H 0.20111 0.16524 0.53791 0.0
H879 H 0.21423 0.10439 0.48255 0.0
Li880 Li 0.20836 0.0495 0.77905 0.0
Li881 Li 0.17575 0.02514 0.80213 0.0
Li882 Li 0.2065 0.99828 0.77481 0.0
Li883 Li 0.17381 0.02175 0.74789 0.0
C884 C 0.22793 0.04119 0.82464 0.0
N885 N 0.26221 0.06845 0.86185 0.0
C886 C 0.22243 0.0569 0.84543 0.0
C887 C 0.25081 0.03914 0.82285 0.0
C888 C 0.24002 0.07057 0.86403 0.0
C889 C 0.26791 0.05315 0.84183 0.0
C890 C 0.17459 0.07547 0.78215 0.0
C891 C 0.16932 0.11221 0.76648 0.0
N892 N 0.17763 0.1272 0.78923 0.0
C893 C 0.18291 0.09121 0.80541 0.0
C894 C 0.16763 0.086 0.76254 0.0
C895 C 0.18437 0.11733 0.80861 0.0
C896 C 0.22677 0.09726 0.75993 0.0
N897 N 0.22919 0.08682 0.78044 0.0
C898 C 0.25486 0.12748 0.80121 0.0
C899 C 0.24328 0.10176 0.80086 0.0
C900 C 0.2521 0.13899 0.78055 0.0
C901 C 0.23787 0.12285 0.75961 0.0
H902 H 0.21572 0.08584 0.74363 0.0
H903 H 0.24534 0.0941 0.81735 0.0
C904 C 0.1539 1.00816 0.8498 0.0
N905 N 0.15709 0.02725 0.83649 0.0
C906 C 0.14293 1.00983 0.87259 0.0
C907 C 0.1382 0.05087 0.86906 0.0
C908 C 0.14916 0.04843 0.84627 0.0
C909 C 0.13447 0.03143 0.88319 0.0
H910 H 0.16014 0.9913 0.84304 0.0
H911 H 0.15135 0.064 0.83655 0.0
C912 C 0.22709 0.03138 0.73588 0.0
N913 N 0.2639 0.05169 0.71182 0.0
C914 C 0.22397 0.03132 0.71046 0.0
C915 C 0.24899 0.04144 0.74899 0.0
C916 C 0.24278 0.04174 0.69864 0.0
C917 C 0.26736 0.05174 0.73653 0.0
C918 C 0.15131 0.9736 0.77169 0.0
C919 C 0.15509 0.95151 0.7786 0.0
C920 C 0.12877 0.97559 0.76547 0.0
C921 C 0.13612 0.93163 0.7791 0.0
C922 C 0.11027 0.95531 0.76622 0.0
N923 N 0.1143 0.93393 0.77295 0.0
C924 C 0.23979 0.96492 0.79426 0.0
C925 C 0.22172 0.94439 0.75479 0.0
C926 C 0.2517 0.9447 0.79514 0.0
N927 N 0.2247 0.96512 0.7743 0.0
C928 C 0.23333 0.92369 0.75501 0.0
C929 C 0.2488 0.92276 0.77553 0.0
H930 H 0.24296 0.98068 0.81008 0.0
H931 H 0.21011 0.94344 0.73855 0.0
C932 C 0.16544 0.04146 0.69891 0.0
N933 N 0.15494 0.02398 0.71208 0.0
C934 C 0.15492 0.04482 0.67591 0.0
C935 C 0.12194 1.01288 0.6792 0.0
C936 C 0.1332 1.00986 0.70213 0.0
C937 C 0.13254 0.03064 0.66506 0.0
H938 H 0.1823 0.05339 0.70627 0.0
H939 H 0.12418 0.99595 0.71186 0.0
O940 O 0.21095 0.02777 0.80621 0.0
O941 O 0.17393 0.05001 0.7784 0.0
O942 O 0.20882 0.02164 0.74788 0.0
O943 O 0.16963 0.99318 0.77095 0.0
H944 H 0.20476 0.0585 0.84719 0.0
H945 H 0.25531 0.02689 0.80698 0.0
H946 H 0.23604 0.08287 0.8802 0.0
H947 H 0.28571 0.05183 0.84066 0.0
H948 H 0.1641 0.12063 0.75144 0.0
H949 H 0.1886 0.0834 0.8207 0.0
H950 H 0.16109 0.0741 0.74445 0.0
H951 H 0.19099 0.12976 0.82645 0.0
H952 H 0.26546 0.13851 0.81799 0.0
H953 H 0.23529 0.12984 0.74276 0.0
H954 H 0.14172 0.99417 0.88212 0.0
H955 H 0.1324 0.06812 0.87538 0.0
H956 H 0.20726 0.02308 0.69991 0.0
H957 H 0.25168 0.04164 0.76866 0.0
H958 H 0.24061 0.04186 0.67897 0.0
H959 H 0.28435 0.05981 0.74651 0.0
H960 H 0.17248 0.94972 0.78346 0.0
H961 H 0.12562 0.99263 0.76013 0.0
H962 H 0.13876 0.91438 0.78436 0.0
H963 H 0.09271 0.95655 0.76145 0.0
H964 H 0.26362 0.94687 0.81142 0.0
H965 H 0.22972 0.90811 0.73898 0.0
H966 H 0.16445 0.05905 0.66683 0.0
H967 H 0.10503 1.00076 0.67242 0.0
Li968 Li 0.31777 0.96178 0.02631 0.0
Li969 Li 0.33288 0.93233 0.04889 0.0
Li970 Li 0.35806 0.95987 0.02681 0.0
Li971 Li 0.33003 0.92322 1.00306 0.0
C972 C 0.35698 0.99129 0.06818 0.0
N973 N 0.39042 0.03357 0.09205 0.0
C974 C 0.3687 0.9914 0.09102 0.0
C975 C 0.36202 1.01286 0.05769 0.0
C976 C 0.3856 1.01292 0.10275 0.0
C977 C 0.37906 0.03399 0.06997 0.0
C978 C 0.28863 0.90275 0.02626 0.0
C979 C 0.2782 0.85723 0.02231 0.0
N980 N 0.25705 0.85894 0.02964 0.0
C981 C 0.26676 0.90408 0.03361 0.0
C982 C 0.29437 0.87916 0.02043 0.0
C983 C 0.25104 0.8817 0.03525 0.0
C984 C 0.27777 0.97781 0.01066 0.0
N985 N 0.29608 0.98225 0.02819 0.0
C986 C 0.28269 0.01544 0.0533 0.0
C987 C 0.2988 1.0006 0.04918 0.0
C988 C 0.2635 1.01126 0.03572 0.0
C989 C 0.26105 0.9922 0.01413 0.0
H990 H 0.27592 0.96278 0.99434 0.0
H991 H 0.31314 1.00326 0.06312 0.0
C992 C 0.35439 0.92224 0.08927 0.0
N993 N 0.33279 0.91853 0.07768 0.0
C994 C 0.35771 0.91276 0.11056 0.0
C995 C 0.31642 0.89537 0.10752 0.0
C996 C 0.31382 0.90572 0.08644 0.0
C997 C 0.33862 0.89897 0.11972 0.0
H998 H 0.3691 0.93224 0.08163 0.0
H999 H 0.29681 0.90317 0.07697 0.0
C1000 C 0.34438 0.97495 0.98246 0.0
N1001 N 0.36054 1.00764 0.95155 0.0
C1002 C 0.35697 0.96724 0.9629 0.0
C1003 C 0.33972 0.99915 0.98606 0.0
C1004 C 0.36507 0.98408 0.94754 0.0
C1005 C 0.34814 0.01544 0.9703 0.0
C1006 C 0.36759 0.90506 0.02521 0.0
C1007 C 0.38877 0.90776 0.015 0.0
C1008 C 0.35883 0.88306 0.0341 0.0
C1009 C 0.40061 0.88828 0.01351 0.0
C1010 C 0.37122 0.86403 0.03233 0.0
N1011 N 0.39167 0.867 0.02213 0.0
C1012 C 0.4032 0.96913 0.04525 0.0
C1013 C 0.399 0.9936 0.01477 0.0
C1014 C 0.42715 0.97707 0.04705 0.0
N1015 N 0.3897 0.97685 0.02883 0.0
C1016 C 0.42298 1.00218 0.01606 0.0
C1017 C 0.43727 0.99346 0.03204 0.0
H1018 H 0.3953 0.95607 0.05643 0.0
H1019 H 0.38801 1.00006 1.00231 0.0
C1020 C 0.30629 0.88435 0.96088 0.0
N1021 N 0.32675 0.89849 0.97336 0.0
C1022 C 0.30605 0.86854 0.93764 0.0
C1023 C 0.34781 0.8818 0.94122 0.0
C1024 C 0.34722 0.89732 0.96408 0.0
C1025 C 0.32704 0.86776 0.92743 0.0
H1026 H 0.2902 0.88601 0.96849 0.0
H1027 H 0.36307 0.90945 0.97392 0.0
O1028 O 0.34076 0.97016 0.05603 0.0
O1029 O 0.30418 0.9245 0.02462 0.0
O1030 O 0.33599 0.95862 0.99748 0.0
O1031 O 0.35599 0.92425 0.02728 0.0
H1032 H 0.36477 0.97513 0.0997 0.0
H1033 H 0.35308 0.01315 0.0401 0.0
H1034 H 0.39486 0.0132 0.12039 0.0
H1035 H 0.38329 0.0507 0.06192 0.0
H1036 H 0.28243 0.83884 0.01786 0.0
H1037 H 0.26202 0.92222 0.03808 0.0
H1038 H 0.31103 0.87776 0.01427 0.0
H1039 H 0.23408 0.88243 0.04099 0.0
H1040 H 0.28481 0.02948 0.0705 0.0
H1041 H 0.2463 0.98837 1.00029 0.0
H1042 H 0.37513 0.91533 0.11924 0.0
H1043 H 0.30141 0.88449 0.11407 0.0
H1044 H 0.36061 0.94856 0.95969 0.0
H1045 H 0.32965 1.00529 1.00079 0.0
H1046 H 0.37495 0.97842 0.93243 0.0
H1047 H 0.34474 0.03426 0.97295 0.0
H1048 H 0.39589 0.92462 1.00801 0.0
H1049 H 0.34277 0.88074 0.04256 0.0
H1050 H 0.41693 0.8901 1.0055 0.0
H1051 H 0.36462 0.84693 0.03915 0.0
H1052 H 0.43768 0.97031 0.05987 0.0
H1053 H 0.43028 0.01494 1.00427 0.0
H1054 H 0.2897 0.85806 0.92727 0.0
H1055 H 0.36429 0.88159 0.93387 0.0
Li1056 Li 0.31591 0.40916 0.04052 0.0
Li1057 Li 0.33153 0.37876 0.06099 0.0
Li1058 Li 0.35936 0.41135 0.04188 0.0
Li1059 Li 0.33091 0.37407 0.01335 0.0
C1060 C 0.33584 0.42981 0.09241 0.0
N1061 N 0.32776 0.45619 0.1378 0.0
C1062 C 0.31365 0.42546 0.10018 0.0
C1063 C 0.3539 0.44773 0.10761 0.0
C1064 C 0.30992 0.43891 0.12323 0.0
C1065 C 0.34947 0.46085 0.13052 0.0
C1066 C 0.28743 0.35354 0.04102 0.0
C1067 C 0.27139 0.3099 0.04297 0.0
N1068 N 0.2537 0.31716 0.05478 0.0
C1069 C 0.26904 0.36058 0.05302 0.0
C1070 C 0.28859 0.32802 0.03579 0.0
C1071 C 0.25218 0.34189 0.05989 0.0
C1072 C 0.27432 0.42037 0.02189 0.0
N1073 N 0.2927 0.42942 0.03965 0.0
C1074 C 0.27877 0.46702 0.0536 0.0
C1075 C 0.29524 0.45244 0.05525 0.0
C1076 C 0.25957 0.45825 0.03539 0.0
C1077 C 0.25764 0.43454 0.01932 0.0
H1078 H 0.27287 0.40229 0.00931 0.0
H1079 H 0.31025 0.45978 0.06877 0.0
C1080 C 0.34628 0.35245 0.0994 0.0
N1081 N 0.32902 0.36278 0.09133 0.0
C1082 C 0.34579 0.3437 0.12202 0.0
C1083 C 0.30996 0.35638 0.12809 0.0
C1084 C 0.31085 0.36437 0.10517 0.0
C1085 C 0.32765 0.34602 0.13699 0.0
H1086 H 0.36081 0.35151 0.08862 0.0
H1087 H 0.29715 0.37243 0.09884 0.0
C1088 C 0.33696 0.43382 1.00624 0.0
N1089 N 0.33605 0.47933 0.9923 0.0
C1090 C 0.3296 0.43404 0.98167 0.0
C1091 C 0.34385 0.45673 0.02373 0.0
C1092 C 0.32929 0.45726 0.97499 0.0
C1093 C 0.34326 0.47953 0.01632 0.0
C1094 C 0.36851 0.35564 0.03096 0.0
C1095 C 0.38917 0.36181 0.02025 0.0
C1096 C 0.3598 0.33064 0.03348 0.0
C1097 C 0.40076 0.34271 0.01206 0.0
C1098 C 0.37191 0.31209 0.02505 0.0
N1099 N 0.39196 0.31846 0.0146 0.0
C1100 C 0.40612 0.43743 0.06348 0.0
C1101 C 0.39623 0.44162 0.02239 0.0
C1102 C 0.42863 0.45207 0.06347 0.0
N1103 N 0.39038 0.43257 0.04314 0.0
C1104 C 0.41829 0.45665 0.02175 0.0
C1105 C 0.435 0.46213 0.04242 0.0
H1106 H 0.40135 0.42959 0.07959 0.0
H1107 H 0.38382 0.43702 1.00611 0.0
C1108 C 0.31129 0.36109 0.96308 0.0
N1109 N 0.32724 0.35487 0.97814 0.0
C1110 C 0.30975 0.35336 0.93705 0.0
C1111 C 0.34007 0.33137 0.94191 0.0
C1112 C 0.34122 0.33978 0.968 0.0
C1113 C 0.32466 0.33883 0.92596 0.0
H1114 H 0.30041 0.37318 0.97126 0.0
H1115 H 0.35399 0.33505 0.9799 0.0
O1116 O 0.33978 0.41727 0.06968 0.0
O1117 O 0.30413 0.37155 0.03427 0.0
O1118 O 0.33706 0.41129 0.01332 0.0
O1119 O 0.35696 0.37406 0.03912 0.0
H1120 H 0.29937 0.41219 0.08829 0.0
H1121 H 0.37112 0.45155 0.10171 0.0
H1122 H 0.29281 0.43575 0.12946 0.0
H1123 H 0.36328 0.47479 0.14247 0.0
H1124 H 0.27208 0.29007 0.03912 0.0
H1125 H 0.26786 0.38027 0.05706 0.0
H1126 H 0.30263 0.32229 0.0263 0.0
H1127 H 0.23789 0.34705 0.06928 0.0
H1128 H 0.28119 0.48515 0.06641 0.0
H1129 H 0.24378 0.42724 1.00436 0.0
H1130 H 0.35987 0.33593 0.12815 0.0
H1131 H 0.29559 0.35849 0.13889 0.0
H1132 H 0.32423 0.41651 0.96789 0.0
H1133 H 0.3495 0.45687 0.04286 0.0
H1134 H 0.32366 0.45774 0.95603 0.0
H1135 H 0.34849 0.49739 0.02967 0.0
H1136 H 0.39612 0.38111 0.01822 0.0
H1137 H 0.34389 0.32563 0.04185 0.0
H1138 H 0.41674 0.34716 1.00367 0.0
H1139 H 0.36538 0.29264 0.02683 0.0
H1140 H 0.441 0.45492 0.07958 0.0
H1141 H 0.42219 0.46388 1.00509 0.0
H1142 H 0.29744 0.35941 0.92559 0.0
H1143 H 0.35195 0.32027 0.93426 0.0
Li1144 Li 0.80915 0.16929 0.05082 0.0
Li1145 Li 0.81849 0.13554 0.02397 0.0
Li1146 Li 0.80216 0.16742 1.00599 0.0
Li1147 Li 0.77891 0.13552 0.02675 0.0
C1148 C 0.84745 0.19483 0.03756 0.0
N1149 N 0.87759 0.23997 0.0608 0.0
C1150 C 0.86198 0.19576 0.05882 0.0
C1151 C 0.84836 0.21681 0.02801 0.0
C1152 C 0.87704 0.21879 0.07035 0.0
C1153 C 0.86371 0.23945 0.04004 0.0
C1154 C 0.81122 0.11606 0.06248 0.0
C1155 C 0.8126 0.07273 0.06342 0.0
N1156 N 0.83225 0.08134 0.07944 0.0
C1157 C 0.83139 0.12447 0.07904 0.0
C1158 C 0.80168 0.08999 0.0547 0.0
C1159 C 0.84177 0.10662 0.08738 0.0
C1160 C 0.81101 0.18247 0.10267 0.0
N1161 N 0.81432 0.19265 0.08211 0.0
C1162 C 0.81621 0.23429 0.10592 0.0
C1163 C 0.81721 0.21809 0.08336 0.0
C1164 C 0.81215 0.22412 0.12729 0.0
C1165 C 0.81025 0.19797 0.12562 0.0
H1166 H 0.80789 0.16214 0.1011 0.0
H1167 H 0.81901 0.22563 0.0666 0.0
C1168 C 0.83456 0.09428 0.99841 0.0
N1169 N 0.84016 0.11493 0.01747 0.0
C1170 C 0.85074 0.07991 0.9918 0.0
C1171 C 0.878 0.10802 0.0249 0.0
C1172 C 0.86137 0.12201 0.03069 0.0
C1173 C 0.87289 0.08696 1.0049 0.0
H1174 H 0.81774 0.08931 0.98791 0.0
H1175 H 0.86546 0.13865 0.04557 0.0
C1176 C 0.76992 0.18651 0.0471 0.0
N1177 N 0.74872 0.21598 0.08058 0.0
C1178 C 0.75902 0.1765 0.0661 0.0
C1179 C 0.77 0.21148 0.0451 0.0
C1180 C 0.74842 0.19172 0.08285 0.0
C1181 C 0.75918 0.22607 0.0622 0.0
C1182 C 0.77687 0.11235 0.98002 0.0
C1183 C 0.76616 0.11936 0.95994 0.0
C1184 C 0.76943 0.08773 0.98423 0.0
C1185 C 0.74793 0.10177 0.94468 0.0
C1186 C 0.75111 0.07071 0.96859 0.0
N1187 N 0.74081 0.07803 0.94931 0.0
C1188 C 0.81496 0.18543 0.96237 0.0
C1189 C 0.77927 0.19158 0.97655 0.0
C1190 C 0.81039 0.19462 0.94099 0.0
N1191 N 0.79934 0.18399 0.97945 0.0
C1192 C 0.77404 0.20086 0.95557 0.0
C1193 C 0.78952 0.2021 0.93731 0.0
H1194 H 0.83058 0.17878 0.96505 0.0
H1195 H 0.76686 0.18935 0.99002 0.0
C1196 C 0.73905 0.10234 0.0399 0.0
N1197 N 0.74753 0.11911 0.02555 0.0
C1198 C 0.71514 0.09343 0.03939 0.0
C1199 C 0.70952 0.1193 0.00945 0.0
C1200 C 0.73337 0.12766 0.01055 0.0
C1201 C 0.70016 0.10216 0.02413 0.0
H1202 H 0.75074 0.09651 0.05223 0.0
H1203 H 0.74071 0.14147 0.99983 0.0
O1204 O 0.83257 0.17248 0.02596 0.0
O1205 O 0.80091 0.13326 0.05394 0.0
O1206 O 0.78118 0.17225 0.03108 0.0
O1207 O 0.79448 0.12948 0.9955 0.0
H1208 H 0.86141 0.179 0.06657 0.0
H1209 H 0.83726 0.21644 0.01157 0.0
H1210 H 0.88826 0.21982 0.08692 0.0
H1211 H 0.86455 0.25663 0.0329 0.0
H1212 H 0.80543 0.0525 0.05747 0.0
H1213 H 0.83917 0.14455 0.08513 0.0
H1214 H 0.78605 0.0831 0.04203 0.0
H1215 H 0.85744 0.11288 0.10007 0.0
H1216 H 0.8177 0.25435 0.10642 0.0
H1217 H 0.80774 0.18945 0.14178 0.0
H1218 H 0.84618 0.06386 0.97618 0.0
H1219 H 0.8947 0.11373 0.03586 0.0
H1220 H 0.75914 0.15736 0.06819 0.0
H1221 H 0.77869 0.21967 0.03075 0.0
H1222 H 0.74008 0.18429 0.09776 0.0
H1223 H 0.75923 0.24548 0.06097 0.0
H1224 H 0.77178 0.13817 0.95615 0.0
H1225 H 0.77754 0.08191 0.99958 0.0
H1226 H 0.73943 0.107 0.92915 0.0
H1227 H 0.74506 0.05169 0.9718 0.0
H1228 H 0.82285 0.19561 0.9274 0.0
H1229 H 0.75765 0.20615 0.95322 0.0
H1230 H 0.70844 0.08052 0.05128 0.0
H1231 H 0.69848 0.12636 0.99743 0.0
Li1232 Li 0.23188 0.57121 0.24803 0.0
Li1233 Li 0.19878 0.55263 0.26822 0.0
Li1234 Li 0.22253 0.52535 0.24526 0.0
Li1235 Li 0.19655 0.54411 0.2231 0.0
C1236 C 0.24353 0.56639 0.29809 0.0
N1237 N 0.26727 0.59438 0.3428 0.0
C1238 C 0.23767 0.58874 0.30957 0.0
C1239 C 0.26158 0.55834 0.30923 0.0
C1240 C 0.24979 0.60257 0.33222 0.0
C1241 C 0.27339 0.57277 0.33184 0.0
C1242 C 0.18886 0.5957 0.25323 0.0
C1243 C 0.15329 0.60994 0.25595 0.0
N1244 N 0.16546 0.63341 0.26803 0.0
C1245 C 0.20101 0.62 0.26565 0.0
C1246 C 0.1648 0.59065 0.24828 0.0
C1247 C 0.18887 0.63879 0.27298 0.0
C1248 C 0.24923 0.61616 0.23375 0.0
N1249 N 0.25448 0.60183 0.24991 0.0
C1250 C 0.28288 0.63709 0.27366 0.0
C1251 C 0.27193 0.61127 0.26866 0.0
C1252 C 0.27585 0.65294 0.25897 0.0
C1253 C 0.25987 0.64194 0.23788 0.0
H1254 H 0.23532 0.60806 0.21894 0.0
H1255 H 0.2763 0.59934 0.28083 0.0
C1256 C 0.16817 0.53321 0.29966 0.0
N1257 N 0.17972 0.55558 0.29466 0.0
C1258 C 0.15034 0.53279 0.31503 0.0
C1259 C 0.15779 0.57861 0.32136 0.0
C1260 C 0.17548 0.57814 0.3059 0.0
C1261 C 0.1445 0.55565 0.32535 0.0
H1262 H 0.17219 0.51557 0.2909 0.0
H1263 H 0.18515 0.59579 0.3023 0.0
C1264 C 0.25125 0.54311 0.2111 0.0
N1265 N 0.29516 0.54125 0.1983 0.0
C1266 C 0.25541 0.53877 0.18605 0.0
C1267 C 0.26943 0.54656 0.22965 0.0
C1268 C 0.27773 0.53789 0.17996 0.0
C1269 C 0.2915 0.54553 0.2228 0.0
C1270 C 0.16821 0.50256 0.23728 0.0
C1271 C 0.16753 0.47698 0.22773 0.0
C1272 C 0.14757 0.51072 0.23912 0.0
C1273 C 0.14613 0.45998 0.21986 0.0
C1274 C 0.12654 0.49313 0.23108 0.0
N1275 N 0.12626 0.46834 0.22167 0.0
C1276 C 0.23871 0.49136 0.26837 0.0
C1277 C 0.24059 0.4832 0.22465 0.0
C1278 C 0.25104 0.47305 0.27103 0.0
N1279 N 0.23455 0.49664 0.24562 0.0
C1280 C 0.25294 0.4646 0.22642 0.0
C1281 C 0.25894 0.45997 0.24997 0.0
H1282 H 0.23351 0.50237 0.28463 0.0
H1283 H 0.23683 0.48778 0.20677 0.0
C1284 C 0.17046 0.56054 0.18869 0.0
N1285 N 0.17569 0.53938 0.1946 0.0
C1286 C 0.15352 0.55833 0.16933 0.0
C1287 C 0.14818 0.51258 0.16194 0.0
C1288 C 0.16541 0.51571 0.18134 0.0
C1289 C 0.14205 0.53411 0.15585 0.0
H1290 H 0.17936 0.57914 0.19915 0.0
H1291 H 0.17038 0.49926 0.18599 0.0
O1292 O 0.23192 0.55253 0.2759 0.0
O1293 O 0.20046 0.57704 0.24581 0.0
O1294 O 0.22939 0.54374 0.21721 0.0
O1295 O 0.18901 0.51943 0.24503 0.0
H1296 H 0.2242 0.59554 0.30085 0.0
H1297 H 0.26654 0.54124 0.30043 0.0
H1298 H 0.24535 0.61985 0.34133 0.0
H1299 H 0.28742 0.5668 0.34066 0.0
H1300 H 0.13468 0.60626 0.25228 0.0
H1301 H 0.21956 0.62427 0.27002 0.0
H1302 H 0.1551 0.57203 0.23863 0.0
H1303 H 0.19804 0.65761 0.28273 0.0
H1304 H 0.29537 0.64487 0.2899 0.0
H1305 H 0.25444 0.65349 0.22577 0.0
H1306 H 0.14097 0.51476 0.31843 0.0
H1307 H 0.15398 0.59666 0.32936 0.0
H1308 H 0.24149 0.53603 0.17147 0.0
H1309 H 0.26657 0.54987 0.24913 0.0
H1310 H 0.28119 0.53451 0.16064 0.0
H1311 H 0.30572 0.54811 0.23695 0.0
H1312 H 0.18337 0.47037 0.22629 0.0
H1313 H 0.14781 0.53039 0.24671 0.0
H1314 H 0.14533 0.44014 0.21232 0.0
H1315 H 0.11043 0.49918 0.23233 0.0
H1316 H 0.25578 0.47057 0.28958 0.0
H1317 H 0.25879 0.45493 0.20978 0.0
H1318 H 0.14963 0.5754 0.16476 0.0
H1319 H 0.13969 0.49359 0.15194 0.0
Li1320 Li 0.81313 0.9128 0.53876 0.0
Li1321 Li 0.82974 0.88308 0.56062 0.0
Li1322 Li 0.8567 0.91578 0.54037 0.0
Li1323 Li 0.82959 0.8771 0.51244 0.0
C1324 C 0.8377 0.94438 0.58362 0.0
N1325 N 0.83915 0.99097 0.61396 0.0
C1326 C 0.8291 0.94558 0.60685 0.0
C1327 C 0.84731 0.96685 0.57597 0.0
C1328 C 0.82991 0.96932 0.62188 0.0
C1329 C 0.84781 0.99022 0.59153 0.0
C1330 C 0.78645 0.85672 0.54102 0.0
C1331 C 0.77121 0.81311 0.54366 0.0
N1332 N 0.75445 0.82042 0.55712 0.0
C1333 C 0.76902 0.86382 0.55473 0.0
C1334 C 0.78754 0.83119 0.5353 0.0
C1335 C 0.75301 0.84517 0.56276 0.0
C1336 C 0.77899 0.93209 0.51409 0.0
N1337 N 0.78865 0.93172 0.53709 0.0
C1338 C 0.76428 0.95797 0.55614 0.0
C1339 C 0.78132 0.94403 0.55797 0.0
C1340 C 0.75446 0.95927 0.53259 0.0
C1341 C 0.76188 0.94573 0.51142 0.0
H1342 H 0.78478 0.92198 0.49768 0.0
H1343 H 0.78864 0.94308 0.57612 0.0
C1344 C 0.84256 0.85542 0.59918 0.0
N1345 N 0.82699 0.86817 0.59164 0.0
C1346 C 0.84152 0.84715 0.62205 0.0
C1347 C 0.80853 0.86511 0.62942 0.0
C1348 C 0.8101 0.87291 0.6064 0.0
C1349 C 0.82453 0.85223 0.6379 0.0
H1350 H 0.85622 0.8521 0.58775 0.0
H1351 H 0.79797 0.8833 0.6006 0.0
C1352 C 0.83835 0.93096 0.49645 0.0
N1353 N 0.84667 0.9653 0.46537 0.0
C1354 C 0.8457 0.92377 0.473 0.0
C1355 C 0.83513 0.95559 0.50402 0.0
C1356 C 0.84985 0.94142 0.45758 0.0
C1357 C 0.83946 0.97268 0.48806 0.0
C1358 C 0.86744 0.86043 0.53147 0.0
C1359 C 0.88855 0.86664 0.5216 0.0
C1360 C 0.85851 0.8354 0.53379 0.0
C1361 C 0.90039 0.8476 0.51412 0.0
C1362 C 0.87088 0.81691 0.52608 0.0
N1363 N 0.89138 0.82334 0.51648 0.0
C1364 C 0.90072 0.94852 0.56415 0.0
C1365 C 0.8962 0.94146 0.52018 0.0
C1366 C 0.92318 0.96361 0.56486 0.0
N1367 N 0.88764 0.93783 0.54199 0.0
C1368 C 0.9183 0.95671 0.52005 0.0
C1369 C 0.9323 0.96812 0.54257 0.0
H1370 H 0.89386 0.94506 0.5813 0.0
H1371 H 0.88602 0.93223 0.50272 0.0
C1372 C 0.81038 0.86229 0.46171 0.0
N1373 N 0.82654 0.85716 0.4774 0.0
C1374 C 0.80934 0.85403 0.43575 0.0
C1375 C 0.84057 0.83368 0.44199 0.0
C1376 C 0.84124 0.84264 0.46796 0.0
C1377 C 0.82491 0.84001 0.42539 0.0
H1378 H 0.79906 0.87413 0.46928 0.0
H1379 H 0.85424 0.83884 0.4803 0.0
O1380 O 0.83699 0.92131 0.56863 0.0
O1381 O 0.80246 0.87472 0.53334 0.0
O1382 O 0.83397 0.91385 0.51172 0.0
O1383 O 0.85564 0.87879 0.53892 0.0
H1384 H 0.82178 0.92838 0.61317 0.0
H1385 H 0.85445 0.96627 0.55828 0.0
H1386 H 0.82319 0.97054 0.63984 0.0
H1387 H 0.85515 1.00777 0.5858 0.0
H1388 H 0.77187 0.79327 0.53945 0.0
H1389 H 0.76798 0.88354 0.55928 0.0
H1390 H 0.80088 0.82543 0.52455 0.0
H1391 H 0.73948 0.85038 0.57351 0.0
H1392 H 0.75878 0.96754 0.57304 0.0
H1393 H 0.75489 0.94614 0.49288 0.0
H1394 H 0.85436 0.83741 0.62757 0.0
H1395 H 0.79476 0.86912 0.64044 0.0
H1396 H 0.84852 0.9049 0.46689 0.0
H1397 H 0.82914 0.9614 0.52192 0.0
H1398 H 0.85563 0.93613 0.43943 0.0
H1399 H 0.83702 0.99178 0.49369 0.0
H1400 H 0.89568 0.88595 0.51971 0.0
H1401 H 0.8422 0.83033 0.54142 0.0
H1402 H 0.91673 0.8521 0.50641 0.0
H1403 H 0.86417 0.79745 0.52773 0.0
H1404 H 0.93341 0.97113 0.5827 0.0
H1405 H 0.92435 0.95947 0.50234 0.0
H1406 H 0.79691 0.85933 0.42378 0.0
H1407 H 0.853 0.82307 0.43491 0.0
Li1408 Li 0.96408 0.07791 0.3077 0.0
Li1409 Li 0.92909 0.04773 0.27624 0.0
Li1410 Li 0.96216 0.07504 0.2543 0.0
Li1411 Li 0.93185 0.10124 0.28021 0.0
C1412 C 0.97075 0.0278 0.2791 0.0
N1413 N 0.98443 0.98354 0.28248 0.0
C1414 C 0.96533 0.01603 0.29913 0.0
C1415 C 0.98326 0.01718 0.26088 0.0
C1416 C 0.97236 0.99364 0.30048 0.0
C1417 C 0.98999 0.99476 0.2629 0.0
C1418 C 0.91207 0.06796 0.32125 0.0
C1419 C 0.87342 0.06406 0.3335 0.0
N1420 N 0.87824 0.04967 0.34985 0.0
C1421 C 0.91665 0.05311 0.33813 0.0
C1422 C 0.89029 0.07346 0.31883 0.0
C1423 C 0.89931 0.04404 0.35244 0.0
C1424 C 0.97565 0.08517 0.36654 0.0
N1425 N 0.98302 0.07619 0.34401 0.0
C1426 C 0.01207 0.06147 0.3684 0.0
C1427 C 1.00131 0.06457 0.34521 0.0
C1428 C 1.00443 0.06994 0.39193 0.0
C1429 C 0.98588 0.08238 0.39002 0.0
H1430 H 0.96134 0.09442 0.36663 0.0
H1431 H 1.00765 0.05702 0.328 0.0
C1432 C 0.91652 0.98987 0.26057 0.0
N1433 N 0.9086 1.00981 0.27322 0.0
C1434 C 0.90541 0.96403 0.2599 0.0
C1435 C 0.8768 0.97838 0.28385 0.0
C1436 C 0.88869 1.00406 0.28448 0.0
C1437 C 0.88521 0.95748 0.27186 0.0
H1438 H 0.93186 0.9938 0.25105 0.0
H1439 H 0.8819 0.01934 0.29438 0.0
C1440 C 0.987 0.12533 0.2821 0.0
N1441 N 0.02435 0.16244 0.27585 0.0
C1442 C 0.98386 0.14337 0.2682 0.0
C1443 C 1.00909 0.12609 0.29281 0.0
C1444 C 1.00298 0.162 0.26524 0.0
C1445 C 0.02776 0.14503 0.28945 0.0
C1446 C 0.91833 0.06594 0.22548 0.0
C1447 C 0.92285 0.0857 0.21249 0.0
C1448 C 0.90571 0.04184 0.21322 0.0
C1449 C 0.91449 0.08103 0.18735 0.0
C1450 C 0.89759 0.03795 0.18808 0.0
N1451 N 0.90211 0.05746 0.17578 0.0
C1452 C 0.97615 0.04922 0.20278 0.0
C1453 C 0.99396 0.09249 0.2121 0.0
C1454 C 0.98644 0.04597 0.17965 0.0
N1455 N 0.9798 0.07225 0.21918 0.0
C1456 C 1.00445 0.09004 0.18896 0.0
C1457 C 1.00096 0.06648 0.17151 0.0
H1458 H 0.96507 0.03277 0.20749 0.0
H1459 H 0.99727 0.11104 0.22427 0.0
C1460 C 0.91587 0.1482 0.26158 0.0
N1461 N 0.91333 0.1343 0.2801 0.0
C1462 C 0.90468 0.1689 0.26029 0.0
C1463 C 0.88753 0.16237 0.29702 0.0
C1464 C 0.89919 0.14179 0.29777 0.0
C1465 C 0.88954 0.17685 0.27788 0.0
H1466 H 0.92687 0.14352 0.24729 0.0
H1467 H 0.8966 0.13183 0.31295 0.0
O1468 O 0.96377 0.04956 0.27733 0.0
O1469 O 0.92875 0.07688 0.30696 0.0
O1470 O 0.96854 0.1069 0.28512 0.0
O1471 O 0.92636 0.07014 0.25007 0.0
H1472 H 0.95564 0.02402 0.31337 0.0
H1473 H 0.98773 0.02616 0.24536 0.0
H1474 H 0.9682 0.98426 0.31582 0.0
H1475 H 0.99963 0.98628 0.2489 0.0
H1476 H 0.85646 0.06814 0.33183 0.0
H1477 H 0.93336 0.04855 0.3401 0.0
H1478 H 0.88641 0.08468 0.30562 0.0
H1479 H 0.9026 0.03251 0.36557 0.0
H1480 H 0.0261 0.05176 0.36767 0.0
H1481 H 0.97912 0.09037 0.40676 0.0
H1482 H 0.91267 0.94918 0.24976 0.0
H1483 H 0.86134 0.97497 0.29335 0.0
H1484 H 0.96688 0.1429 0.25968 0.0
H1485 H 0.01175 0.11219 0.3036 0.0
H1486 H 1.00084 0.17607 0.25449 0.0
H1487 H 0.04497 0.1459 0.29765 0.0
H1488 H 0.93288 0.10436 0.22169 0.0
H1489 H 0.90216 0.02634 0.22306 0.0
H1490 H 0.91786 0.09613 0.17703 0.0
H1491 H 0.8877 0.01943 0.17835 0.0
H1492 H 0.98313 0.02693 0.1685 0.0
H1493 H 0.0151 0.107 0.18474 0.0
H1494 H 0.90857 0.17894 0.24539 0.0
H1495 H 0.87661 0.16664 0.31155 0.0
Li1496 Li 0.30491 0.66578 0.5516 0.0
Li1497 Li 0.31838 0.63237 0.52529 0.0
Li1498 Li 0.29993 0.66238 0.50711 0.0
Li1499 Li 0.27771 0.63172 0.52876 0.0
C1500 C 0.35014 0.6839 0.53948 0.0
N1501 N 0.39216 0.71313 0.56303 0.0
C1502 C 0.36171 0.67576 0.55817 0.0
C1503 C 0.35993 0.70678 0.53264 0.0
C1504 C 0.38296 0.69085 0.56988 0.0
C1505 C 0.38119 0.72132 0.54481 0.0
C1506 C 0.2905 0.60706 0.55973 0.0
C1507 C 0.2749 0.56196 0.54548 0.0
N1508 N 0.26686 0.56076 0.568 0.0
C1509 C 0.28228 0.60533 0.58281 0.0
C1510 C 0.28695 0.58516 0.54096 0.0
C1511 C 0.27029 0.58177 0.58659 0.0
C1512 C 0.29413 0.68111 0.59876 0.0
N1513 N 0.30917 0.68885 0.58259 0.0
C1514 C 0.32375 0.72887 0.61038 0.0
C1515 C 0.32382 0.71226 0.58784 0.0
C1516 C 0.30835 0.72128 0.62741 0.0
C1517 C 0.29352 0.69701 0.62148 0.0
H1518 H 0.28218 0.66276 0.59364 0.0
H1519 H 0.335 0.7184 0.57432 0.0
C1520 C 0.35116 0.61497 0.49772 0.0
N1521 N 0.34112 0.61379 0.51917 0.0
C1522 C 0.36737 0.60068 0.49111 0.0
C1523 C 0.3627 0.58444 0.52898 0.0
C1524 C 0.3467 0.59923 0.53497 0.0
C1525 C 0.373 0.58491 0.50668 0.0
H1526 H 0.34626 0.62679 0.48561 0.0
H1527 H 0.33854 0.5989 0.55201 0.0
C1528 C 0.27396 0.69087 0.54173 0.0
N1529 N 0.26836 0.73807 0.56479 0.0
C1530 C 0.25534 0.69281 0.55579 0.0
C1531 C 0.2896 0.71299 0.53922 0.0
C1532 C 0.25286 0.71683 0.56737 0.0
C1533 C 0.28648 0.73666 0.55103 0.0
C1534 C 0.28052 0.61403 0.47562 0.0
C1535 C 0.2615 0.62322 0.46861 0.0
C1536 C 0.28653 0.59411 0.45953 0.0
C1537 C 0.24874 0.61223 0.44551 0.0
C1538 C 0.2733 0.58359 0.43662 0.0
N1539 N 0.25485 0.59281 0.43014 0.0
C1540 C 0.31593 0.67902 0.46414 0.0
C1541 C 0.28111 0.68945 0.47682 0.0
C1542 C 0.31463 0.69068 0.44374 0.0
N1543 N 0.29928 0.67871 0.48009 0.0
C1544 C 0.2793 0.70153 0.45702 0.0
C1545 C 0.29615 0.70218 0.44024 0.0
H1546 H 0.33005 0.67004 0.46719 0.0
H1547 H 0.26784 0.68835 0.48944 0.0
C1548 C 0.2371 0.62174 0.54985 0.0
N1549 N 0.24742 0.61262 0.52982 0.0
C1550 C 0.21334 0.61365 0.55036 0.0
C1551 C 0.21165 0.58512 0.51063 0.0
C1552 C 0.23552 0.59374 0.51095 0.0
C1553 C 0.20025 0.59604 0.52999 0.0
H1554 H 0.24722 0.63625 0.56487 0.0
H1555 H 0.24426 0.58623 0.4956 0.0
O1556 O 0.32919 0.66974 0.52801 0.0
O1557 O 0.30188 0.63004 0.55544 0.0
O1558 O 0.27715 0.66749 0.5308 0.0
O1559 O 0.29336 0.62447 0.49806 0.0
H1560 H 0.35427 0.65811 0.56369 0.0
H1561 H 0.35109 0.71329 0.51821 0.0
H1562 H 0.39211 0.68489 0.58446 0.0
H1563 H 0.38895 0.73913 0.53979 0.0
H1564 H 0.27189 0.54491 0.53107 0.0
H1565 H 0.28512 0.62195 0.59769 0.0
H1566 H 0.29322 0.5861 0.52299 0.0
H1567 H 0.26374 0.58018 0.60432 0.0
H1568 H 0.33537 0.74755 0.61434 0.0
H1569 H 0.28171 0.6903 0.63433 0.0
H1570 H 0.37504 0.60146 0.47379 0.0
H1571 H 0.36698 0.57277 0.54158 0.0
H1572 H 0.24291 0.67601 0.55778 0.0
H1573 H 0.30424 0.71187 0.52862 0.0
H1574 H 0.23861 0.71859 0.57842 0.0
H1575 H 0.29856 0.7539 0.54939 0.0
H1576 H 0.25648 0.63844 0.48099 0.0
H1577 H 0.30123 0.58682 0.46475 0.0
H1578 H 0.23394 0.61909 0.43984 0.0
H1579 H 0.27771 0.56811 0.42399 0.0
H1580 H 0.32783 0.69084 0.43097 0.0
H1581 H 0.26463 0.7099 0.45454 0.0
H1582 H 0.20517 0.62184 0.56598 0.0
H1583 H 0.20206 0.57119 0.49478 0.0
Li1584 Li 0.4274 0.54766 0.77473 0.0
Li1585 Li 0.4634 0.57729 0.80528 0.0
Li1586 Li 0.43099 0.60043 0.77842 0.0
Li1587 Li 0.46141 0.57468 0.75166 0.0
C1588 C 0.40882 0.56929 0.81703 0.0
N1589 N 0.36973 0.5532 0.83978 0.0
C1590 C 0.41092 0.56365 0.8407 0.0
C1591 C 0.38688 0.56698 0.80501 0.0
C1592 C 0.39093 0.55548 0.85187 0.0
C1593 C 0.36732 0.55875 0.8168 0.0
C1594 C 0.47322 0.52968 0.77524 0.0
C1595 C 0.50287 0.50806 0.76152 0.0
N1596 N 0.49627 0.49128 0.77649 0.0
C1597 C 0.46684 0.51234 0.79061 0.0
C1598 C 0.49148 0.52765 0.76069 0.0
C1599 C 0.47865 0.49302 0.79094 0.0
C1600 C 0.39652 0.49403 0.75136 0.0
N1601 N 0.40676 0.51033 0.77315 0.0
C1602 C 0.39386 0.47566 0.7949 0.0
C1603 C 0.40507 0.50126 0.79474 0.0
C1604 C 0.38354 0.4582 0.77271 0.0
C1605 C 0.38476 0.4683 0.75079 0.0
H1606 H 0.39776 0.50068 0.73406 0.0
H1607 H 0.41304 0.51371 0.81214 0.0
C1608 C 0.50267 0.59015 0.85307 0.0
N1609 N 0.48236 0.57414 0.84099 0.0
C1610 C 0.51369 0.58664 0.87598 0.0
C1611 C 0.48357 0.55011 0.87472 0.0
C1612 C 0.4732 0.55417 0.85194 0.0
C1613 C 0.50427 0.56645 0.88798 0.0
H1614 H 0.5107 0.60605 0.84515 0.0
H1615 H 0.45744 0.54089 0.84307 0.0
C1616 C 0.41062 0.56829 0.72779 0.0
N1617 N 0.37996 0.56567 0.68715 0.0
C1618 C 0.41804 0.58037 0.70851 0.0
C1619 C 0.38765 0.55487 0.72645 0.0
C1620 C 0.40226 0.57883 0.6881 0.0
C1621 C 0.3724 0.55377 0.70573 0.0
C1622 C 0.48543 0.6252 0.77884 0.0
C1623 C 0.48062 0.6437 0.76635 0.0
C1624 C 0.50828 0.6259 0.78701 0.0
C1625 C 0.49887 0.66272 0.76228 0.0
C1626 C 0.52604 0.64524 0.78258 0.0
N1627 N 0.52101 0.66309 0.77041 0.0
C1628 C 0.41143 0.65119 0.79981 0.0
C1629 C 0.40105 0.63675 0.75722 0.0
C1630 C 0.39983 0.67194 0.79989 0.0
N1631 N 0.41225 0.6334 0.77866 0.0
C1632 C 0.38931 0.65721 0.75655 0.0
C1633 C 0.38804 0.67597 0.77804 0.0
H1634 H 0.41999 0.64973 0.81723 0.0
H1635 H 0.40101 0.62345 0.73999 0.0
C1636 C 0.47731 0.54803 0.70152 0.0
N1637 N 0.47922 0.57151 0.71663 0.0
C1638 C 0.48777 0.54456 0.6785 0.0
C1639 C 0.50249 0.58926 0.68538 0.0
C1640 C 0.49186 0.59195 0.70842 0.0
C1641 C 0.50068 0.56523 0.66919 0.0
H1642 H 0.4676 0.5314 0.70722 0.0
H1643 H 0.49377 0.61083 0.7196 0.0
O1644 O 0.42807 0.57678 0.80545 0.0
O1645 O 0.46187 0.54873 0.77458 0.0
O1646 O 0.42577 0.56967 0.74793 0.0
O1647 O 0.46784 0.60629 0.78274 0.0
H1648 H 0.42777 0.56561 0.85036 0.0
H1649 H 0.38502 0.57137 0.7867 0.0
H1650 H 0.39228 0.55097 0.87016 0.0
H1651 H 0.35021 0.55676 0.80767 0.0
H1652 H 0.517 0.50623 0.7503 0.0
H1653 H 0.45299 0.51382 0.80221 0.0
H1654 H 0.49688 0.54115 0.74898 0.0
H1655 H 0.47384 0.47944 0.80272 0.0
H1656 H 0.3933 0.46963 0.81255 0.0
H1657 H 0.37728 0.45615 0.73303 0.0
H1658 H 0.52946 0.60019 0.88448 0.0
H1659 H 0.47525 0.53362 0.88162 0.0
H1660 H 0.43579 0.59088 0.70936 0.0
H1661 H 0.38168 0.5454 0.74126 0.0
H1662 H 0.40773 0.5881 0.67304 0.0
H1663 H 0.35456 0.54345 0.70441 0.0
H1664 H 0.46298 0.64329 0.75983 0.0
H1665 H 0.51223 0.61161 0.79662 0.0
H1666 H 0.49544 0.67718 0.75263 0.0
H1667 H 0.54383 0.64604 0.78878 0.0
H1668 H 0.40073 0.68512 0.81737 0.0
H1669 H 0.38094 0.65796 0.73878 0.0
H1670 H 0.4859 0.52528 0.66838 0.0
H1671 H 0.51188 0.60634 0.68018 0.0
Li1672 Li 0.69533 0.0474 0.76305 0.0
Li1673 Li 0.72757 0.07034 0.74698 0.0
Li1674 Li 0.69599 0.04127 0.71826 0.0
Li1675 Li 0.72255 0.0244 0.74427 0.0
C1676 C 0.68526 0.0925 0.74547 0.0
N1677 N 0.66471 0.13355 0.75235 0.0
C1678 C 0.69666 0.11558 0.76108 0.0
C1679 C 0.66333 0.09037 0.73341 0.0
C1680 C 0.68601 0.13608 0.7643 0.0
C1681 C 0.65326 0.11131 0.73712 0.0
C1682 C 0.72743 0.05552 0.79963 0.0
C1683 C 0.7277 0.04001 0.83788 0.0
N1684 N 0.72391 0.06236 0.8503 0.0
C1685 C 0.72365 0.07838 0.81281 0.0
C1686 C 0.72957 0.03621 0.81227 0.0
C1687 C 0.72187 0.08146 0.8384 0.0
C1688 C 0.66606 0.02645 0.79614 0.0
N1689 N 0.67449 0.04828 0.78817 0.0
C1690 C 0.65038 0.06991 0.81306 0.0
C1691 C 0.66744 0.06995 0.7968 0.0
C1692 C 0.64049 0.04732 0.82048 0.0
C1693 C 0.6488 0.02548 0.8123 0.0
H1694 H 0.67239 1.00964 0.7895 0.0
H1695 H 0.67487 0.08729 0.79104 0.0
C1696 C 0.7481 0.11645 0.73399 0.0
N1697 N 0.74838 0.10226 0.75168 0.0
C1698 C 0.76008 0.14184 0.73909 0.0
C1699 C 0.77187 0.13757 0.78066 0.0
C1700 C 0.76057 0.11199 0.77435 0.0
C1701 C 0.77165 0.15301 0.76298 0.0
H1702 H 0.73775 0.10835 0.71632 0.0
H1703 H 0.76037 0.10027 0.78808 0.0
C1704 C 0.66576 1.00174 0.73654 0.0
N1705 N 0.62005 0.976 0.73352 0.0
C1706 C 0.66021 0.97569 0.73637 0.0
C1707 C 0.64809 0.01469 0.73521 0.0
C1708 C 0.63698 0.96301 0.7348 0.0
C1709 C 0.62508 1.00135 0.7337 0.0
C1710 C 0.74715 0.05612 0.7059 0.0
C1711 C 0.74263 0.06253 0.68296 0.0
C1712 C 0.76974 0.06304 0.71769 0.0
C1713 C 0.76076 0.07605 0.67231 0.0
C1714 C 0.78739 0.07659 0.70646 0.0
N1715 N 0.78257 0.08277 0.6842 0.0
C1716 C 0.67749 0.05811 0.67963 0.0
C1717 C 0.66351 0.01386 0.67749 0.0
C1718 C 0.66141 0.05753 0.66003 0.0
N1719 N 0.67773 0.03666 0.68833 0.0
C1720 C 0.64706 1.0124 0.65782 0.0
C1721 C 0.64551 0.03463 0.6495 0.0
H1722 H 0.68922 0.07588 0.68863 0.0
H1723 H 0.66434 0.99707 0.6847 0.0
C1724 C 0.72901 0.98089 0.75945 0.0
N1725 N 0.7373 0.99779 0.74521 0.0
C1726 C 0.74205 0.96415 0.76518 0.0
C1727 C 0.77067 0.98084 0.73933 0.0
C1728 C 0.75711 0.99737 0.73421 0.0
C1729 C 0.76369 0.96498 0.75606 0.0
H1730 H 0.71308 0.9817 0.76777 0.0
H1731 H 0.76303 1.0108 0.72263 0.0
O1732 O 0.69559 0.07226 0.74168 0.0
O1733 O 0.72911 0.0521 0.77451 0.0
O1734 O 0.68844 0.01453 0.73867 0.0
O1735 O 0.72956 0.04315 0.71675 0.0
H1736 H 0.71337 0.11762 0.77101 0.0
H1737 H 0.65414 0.07278 0.72125 0.0
H1738 H 0.69466 0.15399 0.77637 0.0
H1739 H 0.63633 0.10989 0.72787 0.0
H1740 H 0.7293 0.0252 0.84788 0.0
H1741 H 0.72176 0.09348 0.80333 0.0
H1742 H 0.73274 0.01851 0.80249 0.0
H1743 H 0.7188 0.09899 0.84878 0.0
H1744 H 0.64459 0.0872 0.81931 0.0
H1745 H 0.64197 1.00789 0.81824 0.0
H1746 H 0.75951 0.1528 0.72474 0.0
H1747 H 0.77961 0.14524 0.79958 0.0
H1748 H 0.67371 0.96542 0.73751 0.0
H1749 H 0.65213 0.03487 0.73564 0.0
H1750 H 0.63242 0.94285 0.73467 0.0
H1751 H 0.61124 1.01118 0.73275 0.0
H1752 H 0.7253 0.05713 0.67347 0.0
H1753 H 0.77351 0.05834 0.73553 0.0
H1754 H 0.75749 0.08121 0.6546 0.0
H1755 H 0.80491 0.08226 0.71547 0.0
H1756 H 0.66112 0.07486 0.65349 0.0
H1757 H 0.63519 0.99438 0.6498 0.0
H1758 H 0.73617 0.95221 0.77822 0.0
H1759 H 0.78712 0.98162 0.73167 0.0
Li1760 Li 0.80705 0.71984 0.04054 0.0
Li1761 Li 0.8235 0.684 0.01509 0.0
Li1762 Li 0.80766 0.71487 0.99236 0.0
Li1763 Li 0.78089 0.68299 0.01038 0.0
C1764 C 0.84779 0.74675 0.02493 0.0
N1765 N 0.87407 0.79608 0.03632 0.0
C1766 C 0.87121 0.75164 0.03354 0.0
C1767 C 0.83769 0.76688 0.02211 0.0
C1768 C 0.88422 0.77674 0.03922 0.0
C1769 C 0.85129 0.79171 0.02795 0.0
C1770 C 0.7912 0.66434 0.05262 0.0
C1771 C 0.77163 0.62088 0.05166 0.0
N1772 N 0.77012 0.62695 0.07658 0.0
C1773 C 0.78955 0.67011 0.07824 0.0
C1774 C 0.78231 0.63949 0.03923 0.0
C1775 C 0.77881 0.65095 0.09002 0.0
C1776 C 0.78824 0.73632 0.08598 0.0
N1777 N 0.80838 0.73983 0.07507 0.0
C1778 C 0.82909 0.76255 0.11475 0.0
C1779 C 0.82858 0.75315 0.08892 0.0
C1780 C 0.80876 0.75786 0.12669 0.0
C1781 C 0.78808 0.74497 0.11175 0.0
H1782 H 0.77241 0.72533 0.07492 0.0
H1783 H 0.84455 0.75544 0.08026 0.0
C1784 C 0.86843 0.67335 1.00842 0.0
N1785 N 0.8474 0.66479 0.01623 0.0
C1786 C 0.88591 0.65987 0.00954 0.0
C1787 C 0.8598 0.62892 0.02656 0.0
C1788 C 0.84294 0.643 0.02521 0.0
C1789 C 0.88171 0.63728 0.01876 0.0
H1790 H 0.87167 0.6907 1.0013 0.0
H1791 H 0.82628 0.63647 0.03144 0.0
C1792 C 0.76545 0.72876 1.00262 0.0
N1793 N 0.7322 0.74639 0.97842 0.0
C1794 C 0.75223 0.71357 0.98109 0.0
C1795 C 0.76172 0.75285 0.01193 0.0
C1796 C 0.73551 0.72284 0.9691 0.0
C1797 C 0.74484 0.76144 0.9994 0.0
C1798 C 0.79373 0.65733 0.96455 0.0
C1799 C 0.78164 0.66117 0.94353 0.0
C1800 C 0.79739 0.63321 0.96523 0.0
C1801 C 0.77314 0.64065 0.92362 0.0
C1802 C 0.7886 0.61317 0.94494 0.0
N1803 N 0.77674 0.61727 0.92474 0.0
C1804 C 0.82412 0.71829 0.94433 0.0
C1805 C 0.80232 0.74879 0.95654 0.0
C1806 C 0.82659 0.72557 0.92116 0.0
N1807 N 0.81201 0.7297 0.96158 0.0
C1808 C 0.80439 0.75668 0.93356 0.0
C1809 C 0.81664 0.74506 0.91525 0.0
H1810 H 0.83149 0.70292 0.94828 0.0
H1811 H 0.79265 0.75777 0.97015 0.0
C1812 C 0.73676 0.66881 0.02675 0.0
N1813 N 0.74951 0.66143 1.00813 0.0
C1814 C 0.71446 0.65456 0.02804 0.0
C1815 C 0.71847 0.62511 0.99098 0.0
C1816 C 0.74075 0.63997 0.99037 0.0
C1817 C 0.70489 0.6324 0.00993 0.0
H1818 H 0.7441 0.6857 0.04088 0.0
H1819 H 0.75098 0.63409 0.97579 0.0
O1820 O 0.83474 0.72236 0.01969 0.0
O1821 O 0.80144 0.68294 0.04072 0.0
O1822 O 0.78209 0.72023 0.01449 0.0
O1823 O 0.80231 0.67718 0.98416 0.0
H1824 H 0.87921 0.73621 0.03593 0.0
H1825 H 0.81954 0.76338 0.01556 0.0
H1826 H 0.90236 0.78084 0.04595 0.0
H1827 H 0.84373 0.80751 0.02587 0.0
H1828 H 0.76457 0.60161 0.04148 0.0
H1829 H 0.79669 0.68909 0.08901 0.0
H1830 H 0.78357 0.63465 0.01942 0.0
H1831 H 0.77744 0.65516 0.10985 0.0
H1832 H 0.84549 0.77208 0.12555 0.0
H1833 H 0.77203 0.74071 0.12013 0.0
H1834 H 0.9024 0.66686 1.00297 0.0
H1835 H 0.8558 0.61175 0.03396 0.0
H1836 H 0.75485 0.69484 0.97375 0.0
H1837 H 0.77187 0.76482 0.02859 0.0
H1838 H 0.72516 0.71131 0.95239 0.0
H1839 H 0.7418 0.78008 1.00633 0.0
H1840 H 0.77888 0.67979 0.94257 0.0
H1841 H 0.80685 0.62998 0.98129 0.0
H1842 H 0.76369 0.64331 0.90727 0.0
H1843 H 0.79121 0.59436 0.94525 0.0
H1844 H 0.83565 0.71538 0.90772 0.0
H1845 H 0.7964 0.77182 0.93016 0.0
H1846 H 0.70492 0.66067 0.04333 0.0
H1847 H 0.71184 0.6082 0.97662 0.0
Li1848 Li 0.91247 0.52783 0.81316 0.0
Li1849 Li 0.94354 0.5605 0.83952 0.0
Li1850 Li 0.9127 0.57171 0.81588 0.0
Li1851 Li 0.94253 0.55607 0.79383 0.0
C1852 C 0.89448 0.54115 0.85718 0.0
N1853 N 0.86319 0.51641 0.8848 0.0
C1854 C 0.90142 0.53937 0.88142 0.0
C1855 C 0.87158 0.53048 0.84706 0.0
C1856 C 0.88535 0.52675 0.89506 0.0
C1857 C 0.85603 0.518 0.8613 0.0
C1858 C 0.96039 0.51501 0.81769 0.0
C1859 C 0.99653 0.50214 0.81298 0.0
N1860 N 0.9887 0.48229 0.82411 0.0
C1861 C 0.9527 0.49429 0.82885 0.0
C1862 C 0.98249 0.5188 0.8095 0.0
C1863 C 0.96725 0.47806 0.83203 0.0
C1864 C 0.88993 0.48242 0.78279 0.0
N1865 N 0.89516 0.49374 0.80726 0.0
C1866 C 0.87863 0.45489 0.81945 0.0
C1867 C 0.88978 0.48057 0.82556 0.0
C1868 C 0.87344 0.44256 0.79429 0.0
C1869 C 0.87903 0.45672 0.77583 0.0
H1870 H 0.8948 0.49324 0.76864 0.0
H1871 H 0.89475 0.48972 0.84488 0.0
C1872 C 0.97835 0.5896 0.87873 0.0
N1873 N 0.96394 0.5666 0.86878 0.0
C1874 C 0.99624 0.59145 0.89708 0.0
C1875 C 0.98253 0.54653 0.89615 0.0
C1876 C 0.96504 0.54559 0.87791 0.0
C1877 C 0.9989 0.56945 0.9052 0.0
H1878 H 0.97656 0.6063 0.87185 0.0
H1879 H 0.95254 0.52796 0.87064 0.0
C1880 C 0.89322 0.55186 0.77017 0.0
N1881 N 0.86165 0.56779 0.74169 0.0
C1882 C 0.9009 0.56978 0.75573 0.0
C1883 C 0.86953 0.54178 0.76991 0.0
C1884 C 0.88464 0.57766 0.74151 0.0
C1885 C 0.85383 0.55016 0.75544 0.0
C1886 C 0.96879 0.60247 0.82129 0.0
C1887 C 0.97282 0.62849 0.82138 0.0
C1888 C 0.98755 0.59109 0.82256 0.0
C1889 C 0.99554 0.64258 0.82252 0.0
C1890 C 1.01001 0.6058 0.82369 0.0
N1891 N 0.01351 0.63103 0.82361 0.0
C1892 C 0.87063 0.58851 0.81811 0.0
C1893 C 0.90252 0.61568 0.80557 0.0
C1894 C 0.85564 0.60278 0.81086 0.0
N1895 N 0.8934 0.59469 0.8145 0.0
C1896 C 0.88829 0.63072 0.79854 0.0
C1897 C 0.86446 0.62375 0.80039 0.0
H1898 H 0.86378 0.57157 0.82493 0.0
H1899 H 0.92049 0.6196 0.80214 0.0
C1900 C 0.96336 0.53205 0.75586 0.0
N1901 N 0.96098 0.55541 0.76713 0.0
C1902 C 0.98 0.5298 0.73931 0.0
C1903 C 0.98998 0.57565 0.74467 0.0
C1904 C 0.97316 0.577 0.76119 0.0
C1905 C 0.99407 0.55185 0.73424 0.0
H1906 H 0.95318 0.51523 0.76082 0.0
H1907 H 0.97046 0.5953 0.76994 0.0
O1908 O 0.91001 0.55354 0.84364 0.0
O1909 O 0.9461 0.53089 0.81407 0.0
O1910 O 0.90883 0.54461 0.78488 0.0
O1911 O 0.94658 0.5882 0.81935 0.0
H1912 H 0.91898 0.54778 0.88967 0.0
H1913 H 0.86602 0.53114 0.82815 0.0
H1914 H 0.8905 0.52522 0.91383 0.0
H1915 H 0.83832 0.50943 0.8536 0.0
H1916 H 0.01364 0.50494 0.80676 0.0
H1917 H 0.93584 0.491 0.83546 0.0
H1918 H 0.98884 0.53427 0.80034 0.0
H1919 H 0.9615 0.46212 0.84085 0.0
H1920 H 0.87438 0.44478 0.83428 0.0
H1921 H 0.87556 0.44788 0.75622 0.0
H1922 H 1.00824 0.60959 0.90426 0.0
H1923 H 0.98341 0.52946 0.90294 0.0
H1924 H 0.9192 0.5778 0.75582 0.0
H1925 H 0.86335 0.52789 0.78101 0.0
H1926 H 0.8903 0.59172 0.73044 0.0
H1927 H 0.83543 0.54272 0.75523 0.0
H1928 H 0.95859 0.63775 0.82053 0.0
H1929 H 0.98476 0.57123 0.82306 0.0
H1930 H 0.99888 0.6627 0.82251 0.0
H1931 H 0.02465 0.59715 0.8247 0.0
H1932 H 0.83727 0.59683 0.81226 0.0
H1933 H 0.89554 0.64647 0.78997 0.0
H1934 H 0.98252 0.51111 0.73142 0.0
H1935 H 0.99999 0.593 0.74048 0.0
Li1936 Li 0.83423 0.43694 0.54837 0.0
Li1937 Li 0.81973 0.46749 0.52632 0.0
Li1938 Li 0.83113 0.42848 0.5022 0.0
Li1939 Li 0.85977 0.46477 0.52652 0.0
C1940 C 0.78967 0.40878 0.5266 0.0
N1941 N 0.75772 0.36593 0.53169 0.0
C1942 C 0.76866 0.41104 0.53582 0.0
C1943 C 0.79437 0.38474 0.51982 0.0
C1944 C 0.75273 0.38914 0.53829 0.0
C1945 C 0.77802 0.36331 0.52258 0.0
C1946 C 0.85924 0.49445 0.57022 0.0
C1947 C 0.88586 0.53535 0.57522 0.0
N1948 N 0.89327 0.53356 0.59857 0.0
C1949 C 0.86692 0.49321 0.5944 0.0
C1950 C 0.86858 0.51587 0.56068 0.0
C1951 C 0.8842 0.5131 0.60839 0.0
C1952 C 0.85685 0.42595 0.58751 0.0
N1953 N 0.83491 0.42197 0.57668 0.0
C1954 C 0.8203 0.39708 0.60604 0.0
C1955 C 0.81663 0.40802 0.58554 0.0
C1956 C 0.84289 0.40107 0.61747 0.0
C1957 C 0.86124 0.41586 0.60816 0.0
H1958 H 0.87102 0.43686 0.57989 0.0
H1959 H 0.79932 0.40511 0.57664 0.0
C1960 C 0.7772 0.48087 0.51582 0.0
N1961 N 0.79889 0.48923 0.52789 0.0
C1962 C 0.76159 0.49668 0.51833 0.0
C1963 C 0.79112 0.52939 0.54526 0.0
C1964 C 0.80601 0.51292 0.54243 0.0
C1965 C 0.76854 0.52131 0.53325 0.0
H1966 H 0.7719 0.46177 0.50468 0.0
H1967 H 0.82321 0.51899 0.55206 0.0
C1968 C 0.86845 0.40963 0.52375 0.0
N1969 N 0.89222 0.37127 0.51979 0.0
C1970 C 0.88986 0.41264 0.51403 0.0
C1971 C 0.85924 0.38713 0.53161 0.0
C1972 C 0.90157 0.39302 0.51212 0.0
C1973 C 0.8715 0.36796 0.52942 0.0
C1974 C 0.84646 0.48074 0.48256 0.0
C1975 C 0.85646 0.47227 0.4611 0.0
C1976 C 0.84467 0.50606 0.48844 0.0
C1977 C 0.86486 0.48939 0.44612 0.0
C1978 C 0.85328 0.5226 0.47298 0.0
N1979 N 0.86313 0.514 0.45233 0.0
C1980 C 0.80762 0.38929 0.45973 0.0
C1981 C 0.84849 0.40297 0.46301 0.0
C1982 C 0.80764 0.37326 0.43665 0.0
N1983 N 0.82793 0.40387 0.4722 0.0
C1984 C 0.84933 0.38724 0.44031 0.0
C1985 C 0.82872 0.37266 0.42655 0.0
H1986 H 0.79145 0.39064 0.46729 0.0
H1987 H 0.86423 0.41537 0.47286 0.0
C1988 C 0.90442 0.47344 0.54592 0.0
N1989 N 0.89166 0.48059 0.52837 0.0
C1990 C 0.92842 0.4799 0.54762 0.0
C1991 C 0.9259 0.50263 0.51427 0.0
C1992 C 0.90182 0.49548 0.51304 0.0
C1993 C 0.93933 0.49407 0.53122 0.0
H1994 H 0.89587 0.46177 0.55792 0.0
H1995 H 0.89146 0.50133 0.4995 0.0
O1996 O 0.80543 0.43004 0.52412 0.0
O1997 O 0.84258 0.4749 0.55608 0.0
O1998 O 0.85694 0.42891 0.52619 0.0
O1999 O 0.83793 0.46418 0.49733 0.0
H2000 H 0.76474 0.42954 0.54107 0.0
H2001 H 0.8104 0.38263 0.51235 0.0
H2002 H 0.73641 0.39059 0.54545 0.0
H2003 H 0.78146 0.34458 0.51743 0.0
H2004 H 0.89342 0.55185 0.56791 0.0
H2005 H 0.8595 0.47718 0.60241 0.0
H2006 H 0.86287 0.51722 0.54204 0.0
H2007 H 0.89036 0.51231 0.62708 0.0
H2008 H 0.8058 0.38562 0.61283 0.0
H2009 H 0.8789 0.41898 0.61636 0.0
H2010 H 0.74413 0.48947 0.50928 0.0
H2011 H 0.79715 0.54821 0.55691 0.0
H2012 H 0.89727 0.42982 0.50772 0.0
H2013 H 0.84293 0.38452 0.53957 0.0
H2014 H 0.91809 0.39509 0.50453 0.0
H2015 H 0.86456 0.35049 0.53547 0.0
H2016 H 0.85782 0.45274 0.45608 0.0
H2017 H 0.83676 0.51291 0.50476 0.0
H2018 H 0.87274 0.48311 0.42953 0.0
H2019 H 0.85209 0.54226 0.47739 0.0
H2020 H 0.79139 0.36233 0.42637 0.0
H2021 H 0.8659 0.38715 0.43314 0.0
H2022 H 0.93836 0.47348 0.56127 0.0
H2023 H 0.93393 0.5139 0.50158 0.0
Li2024 Li 0.67543 0.52327 0.29957 0.0
Li2025 Li 0.7081 0.54841 0.27694 0.0
Li2026 Li 0.67379 0.52053 0.24529 0.0
Li2027 Li 0.70651 0.49715 0.27229 0.0
C2028 C 0.67371 0.57377 0.28099 0.0
N2029 N 0.67561 0.62533 0.29078 0.0
C2030 C 0.67833 0.58775 0.30547 0.0
C2031 C 0.66983 0.58592 0.26151 0.0
C2032 C 0.67927 0.61383 0.31003 0.0
C2033 C 0.67092 0.61203 0.26683 0.0
C2034 C 0.72768 0.53885 0.32241 0.0
C2035 C 0.76731 0.54813 0.34036 0.0
N2036 N 0.76214 0.5642 0.36013 0.0
C2037 C 0.7227 0.5553 0.34297 0.0
C2038 C 0.75009 0.53504 0.32114 0.0
C2039 C 0.74038 0.56799 0.36183 0.0
C2040 C 0.66362 0.51498 0.35384 0.0
N2041 N 0.65688 0.52481 0.33405 0.0
C2042 C 0.62752 0.53905 0.35978 0.0
C2043 C 0.63893 0.53686 0.33729 0.0
C2044 C 0.63386 0.52887 0.38053 0.0
C2045 C 0.65265 0.51682 0.37667 0.0
H2046 H 0.67787 0.50564 0.35229 0.0
H2047 H 0.63334 0.54534 0.32245 0.0
C2048 C 0.72711 0.5963 0.25813 0.0
N2049 N 0.72881 0.58592 0.27878 0.0
C2050 C 0.73833 0.62191 0.25799 0.0
C2051 C 0.75406 0.62667 0.3001 0.0
C2052 C 0.74233 0.60095 0.29956 0.0
C2053 C 0.75201 0.63813 0.27926 0.0
H2054 H 0.71656 0.58482 0.24152 0.0
H2055 H 0.74388 0.59331 0.31615 0.0
C2056 C 0.65054 0.47273 0.26846 0.0
N2057 N 0.61201 0.43462 0.26917 0.0
C2058 C 0.65311 0.44985 0.27451 0.0
C2059 C 0.62843 0.47629 0.26281 0.0
C2060 C 0.6334 0.43079 0.27475 0.0
C2061 C 0.60915 0.45677 0.26326 0.0
C2062 C 0.72763 0.53052 0.23424 0.0
C2063 C 0.72517 0.53101 0.2089 0.0
C2064 C 0.74934 0.53993 0.2479 0.0
C2065 C 0.74447 0.54131 0.1977 0.0
C2066 C 0.76821 0.55012 0.23604 0.0
N2067 N 0.7654 0.5506 0.2114 0.0
C2068 C 0.66568 0.5401 0.19591 0.0
C2069 C 0.63332 0.50868 0.1991 0.0
C2070 C 0.65533 0.54332 0.17274 0.0
N2071 N 0.65505 0.52276 0.20918 0.0
C2072 C 0.62222 0.51157 0.17601 0.0
C2073 C 0.63296 0.52917 0.16176 0.0
H2074 H 0.68254 0.55201 0.2033 0.0
H2075 H 0.62418 0.49486 0.20885 0.0
C2076 C 0.72193 0.44915 0.28911 0.0
N2077 N 0.72504 0.46437 0.27172 0.0
C2078 C 0.73349 0.42859 0.28969 0.0
C2079 C 0.75221 0.43826 0.25466 0.0
C2080 C 0.74027 0.45869 0.25467 0.0
C2081 C 0.74929 0.42205 0.27233 0.0
H2082 H 0.7103 0.45276 0.30308 0.0
H2083 H 0.74363 0.47015 0.24072 0.0
O2084 O 0.67354 0.54842 0.27611 0.0
O2085 O 0.71063 0.52631 0.30375 0.0
O2086 O 0.66958 0.49161 0.26807 0.0
O2087 O 0.70891 0.52083 0.24565 0.0
H2088 H 0.68133 0.57859 0.32074 0.0
H2089 H 0.66624 0.57536 0.24247 0.0
H2090 H 0.68297 0.62493 0.32887 0.0
H2091 H 0.66812 0.62173 0.25192 0.0
H2092 H 0.78476 0.54546 0.33959 0.0
H2093 H 0.70538 0.55825 0.34433 0.0
H2094 H 0.75413 0.52209 0.30548 0.0
H2095 H 0.73681 0.58086 0.37782 0.0
H2096 H 0.61401 0.54946 0.36087 0.0
H2097 H 0.65893 0.50845 0.39124 0.0
H2098 H 0.7363 0.62886 0.24102 0.0
H2099 H 0.76421 0.63775 0.31712 0.0
H2100 H 0.67013 0.44684 0.2789 0.0
H2101 H 0.6262 0.49396 0.25814 0.0
H2102 H 0.6351 0.41296 0.27937 0.0
H2103 H 0.59191 0.45924 0.25892 0.0
H2104 H 0.7086 0.52328 0.19794 0.0
H2105 H 0.75152 0.53967 0.26752 0.0
H2106 H 0.74281 0.54184 0.1781 0.0
H2107 H 0.78508 0.55767 0.24644 0.0
H2108 H 0.66497 0.55743 0.16362 0.0
H2109 H 0.60531 0.49946 0.16917 0.0
H2110 H 0.72963 0.41763 0.30395 0.0
H2111 H 0.76417 0.43579 0.24085 0.0
Tb2112 Tb 0.04193 0.02884 0.01132 0.0
C2113 C 0.09688 0.12137 0.08057 0.0
C2114 C 0.09683 0.15453 0.05714 0.0
C2115 C 0.09872 0.16472 0.10229 0.0
C2116 C 0.09518 0.12869 0.05787 0.0
C2117 C 0.0996 0.13956 0.10303 0.0
C2118 C 0.09738 0.17222 0.07936 0.0
C2119 C 0.10813 0.10801 0.12503 0.0
N2120 N 0.09846 0.09707 0.08056 0.0
C2121 C 0.1054 0.09066 0.10232 0.0
C2122 C 0.10461 0.13235 0.12547 0.0
Tb2123 Tb 0.09245 0.07031 0.04195 0.0
N2124 N 0.09531 0.11123 0.0368 0.0
C2125 C 0.10092 0.11923 0.01533 0.0
C2126 C 0.09975 0.16219 0.03443 0.0
C2127 C 0.10261 0.14462 0.01364 0.0
H2128 H 0.10856 0.07212 0.10247 0.0
H2129 H 0.10602 0.15057 0.99626 0.0
H2130 H 0.09816 0.19203 0.0791 0.0
H2131 H 0.11298 0.1026 0.14219 0.0
H2132 H 0.1034 0.10608 0.99909 0.0
H2133 H 0.02846 0.94916 0.05785 0.0
H2134 H 0.10116 0.18185 0.03309 0.0
H2135 H 0.02773 0.02764 0.95051 0.0
H2136 H 0.03196 0.99374 0.05485 0.0
H2137 H 0.02243 0.99691 0.91099 0.0
H2138 H 0.10039 0.17884 0.11936 0.0
H2139 H 0.03147 0.91719 0.02075 0.0
H2140 H 0.033 0.90638 0.97454 0.0
H2141 H 0.10691 0.1458 0.14309 0.0
H2142 H 0.0307 0.91938 0.9342 0.0
N2143 N 0.03859 0.98788 0.01666 0.0
C2144 C 0.03359 0.98025 0.03846 0.0
C2145 C 0.03325 0.93688 0.01932 0.0
C2146 C 0.03571 0.94424 0.99642 0.0
C2147 C 0.03144 0.95483 0.04027 0.0
C2148 C 0.03793 0.97014 0.99558 0.0
H2149 H 0.02573 0.9528 0.91036 0.0
N2150 N 0.03592 1.00202 0.97275 0.0
C2151 C 0.02662 0.99125 0.92822 0.0
C2152 C 0.03635 0.9774 0.97284 0.0
C2153 C 0.02988 1.00877 0.95086 0.0
C2154 C 0.0285 0.96638 0.92794 0.0
C2155 C 0.03292 0.95902 0.95043 0.0
O2156 O 0.01329 0.04598 0.01178 0.0
O2157 O 0.0593 0.06931 0.02239 0.0
O2158 O 0.06693 0.07212 0.07095 0.0
O2159 O 0.03734 0.0374 0.05271 0.0
O2160 O 0.04193 0.05693 0.98761 0.0
O2161 O 1.00856 1.00624 0.0111 0.0
O2162 O 0.12071 0.05276 0.03714 0.0
O2163 O 0.07493 0.03012 0.03126 0.0
O2164 O 0.06823 0.02556 0.98352 0.0
O2165 O 0.09628 0.06228 1.00021 0.0
O2166 O 0.09317 0.04217 0.06555 0.0
O2167 O 0.126 0.09329 0.04496 0.0
C2168 C 0.05388 0.07706 1.00257 0.0
C2169 C 0.97824 0.01921 0.9913 0.0
C2170 C 0.94173 0.02877 0.97876 0.0
C2171 C 0.96189 0.03403 0.99524 0.0
C2172 C 0.93804 1.00849 0.95809 0.0
C2173 C 0.97437 0.99893 0.97055 0.0
C2174 C 0.9544 0.99375 0.95397 0.0
C2175 C 0.04686 0.05608 0.07238 0.0
C2176 C 0.99839 0.02459 0.00991 0.0
C2177 C 0.0329 0.93365 0.95124 0.0
C2178 C 0.03429 0.92627 0.97421 0.0
C2179 C 0.08071 0.02217 0.05081 0.0
C2180 C 0.15635 0.0765 0.05925 0.0
C2181 C 0.17281 0.06278 0.05135 0.0
C2182 C 0.1935 0.0659 0.06642 0.0
C2183 C 0.1973 0.08229 0.08995 0.0
C2184 C 0.16062 0.09329 0.08259 0.0
C2185 C 0.18088 0.09587 0.09796 0.0
C2186 C 0.08759 0.04237 0.98135 0.0
C2187 C 0.13586 0.07429 0.04197 0.0
H2188 H 0.96456 0.04927 0.01159 0.0
H2189 H 0.92254 1.00408 0.9452 0.0
H2190 H 0.98651 0.98687 0.96732 0.0
H2191 H 0.95147 0.97809 0.93804 0.0
H2192 H 0.16986 0.05032 0.03307 0.0
H2193 H 0.21301 0.08466 0.10204 0.0
H2194 H 0.14862 0.10478 0.08878 0.0
H2195 H 0.18402 0.10873 0.11596 0.0
Tb2196 Tb 0.32848 0.78204 0.24789 0.0
C2197 C 0.30919 0.8705 0.32517 0.0
C2198 C 0.3479 0.89157 0.34371 0.0
C2199 C 0.31748 0.91467 0.34752 0.0
C2200 C 0.33168 0.8695 0.33068 0.0
C2201 C 0.30173 0.89311 0.33358 0.0
C2202 C 0.34058 0.91394 0.35251 0.0
C2203 C 0.26372 0.87164 0.31379 0.0
N2204 N 0.2948 0.84962 0.31074 0.0
C2205 C 0.272 0.84991 0.30553 0.0
C2206 C 0.27869 0.89344 0.32771 0.0
Tb2207 Tb 0.30801 0.81254 0.30265 0.0
N2208 N 0.33807 0.84763 0.32131 0.0
C2209 C 0.36137 0.84828 0.32195 0.0
C2210 C 0.37119 0.89097 0.34651 0.0
C2211 C 0.37799 0.86938 0.33508 0.0
H2212 H 0.25972 0.83339 0.29495 0.0
H2213 H 0.39618 0.86923 0.33559 0.0
H2214 H 0.35276 0.93094 0.36263 0.0
H2215 H 0.24571 0.8715 0.30941 0.0
H2216 H 0.36789 0.83346 0.31122 0.0
H2217 H 0.2391 0.72962 0.21498 0.0
H2218 H 0.38415 0.90751 0.35622 0.0
H2219 H 0.37443 0.75752 0.25815 0.0
H2220 H 0.26846 0.76397 0.24022 0.0
H2221 H 0.38574 0.71734 0.2471 0.0
H2222 H 0.31205 0.93213 0.35412 0.0
H2223 H 0.24945 0.69036 0.19411 0.0
H2224 H 0.27933 0.66468 0.18846 0.0
H2225 H 0.27227 0.91033 0.33392 0.0
H2226 H 0.31889 0.66065 0.19898 0.0
N2227 N 0.29727 0.74801 0.23 0.0
C2228 C 0.27426 0.74863 0.22935 0.0
C2229 C 0.2629 0.70627 0.20412 0.0
C2230 C 0.28577 0.70422 0.20737 0.0
C2231 C 0.25704 0.7284 0.21572 0.0
C2232 C 0.30264 0.72555 0.22072 0.0
H2233 H 0.35821 0.67976 0.22169 0.0
N2234 N 0.33942 0.74344 0.24174 0.0
C2235 C 0.36831 0.71852 0.24154 0.0
C2236 C 0.32453 0.72313 0.22701 0.0
C2237 C 0.36146 0.7414 0.24834 0.0
C2238 C 0.35285 0.69747 0.22703 0.0
C2239 C 0.33068 0.69958 0.21949 0.0
O2240 O 0.36361 0.79223 0.24353 0.0
O2241 O 0.33213 0.81605 0.27594 0.0
O2242 O 0.28769 0.81759 0.26829 0.0
O2243 O 0.29951 0.79571 0.23186 0.0
O2244 O 0.33337 0.82023 0.23963 0.0
O2245 O 0.33804 0.77952 0.2113 0.0
O2246 O 0.27288 0.79834 0.30454 0.0
O2247 O 0.30471 0.77832 0.27489 0.0
O2248 O 0.35064 0.78027 0.2824 0.0
O2249 O 0.33763 0.80032 0.31893 0.0
O2250 O 0.30557 0.77486 0.31164 0.0
O2251 O 0.29647 0.81371 0.33832 0.0
C2252 C 0.33482 0.83221 0.26226 0.0
C2253 C 0.37239 0.81096 0.20962 0.0
C2254 C 0.37268 0.8468 0.18945 0.0
C2255 C 0.36067 0.82449 0.19603 0.0
C2256 C 0.39666 0.85524 0.19611 0.0
C2257 C 0.39639 0.81958 0.21598 0.0
C2258 C 0.40843 0.84162 0.20926 0.0
C2259 C 0.2858 0.80964 0.24335 0.0
C2260 C 0.35988 0.78932 0.21944 0.0
C2261 C 0.31443 0.67878 0.20501 0.0
C2262 C 0.29198 0.68111 0.19892 0.0
C2263 C 0.30345 0.76257 0.289 0.0
C2264 C 0.26416 0.77904 0.33822 0.0
C2265 C 0.27629 0.76879 0.35489 0.0
C2266 C 0.26597 0.7457 0.36118 0.0
C2267 C 0.24334 0.73302 0.35104 0.0
C2268 C 0.2413 0.76647 0.32872 0.0
C2269 C 0.23102 0.74352 0.33504 0.0
C2270 C 0.35228 0.78779 0.30736 0.0
C2271 C 0.2754 0.80152 0.32878 0.0
H2272 H 0.34214 0.81809 0.19108 0.0
H2273 H 0.4064 0.87206 0.19069 0.0
H2274 H 0.40575 0.80951 0.22662 0.0
H2275 H 0.4269 0.8482 0.21433 0.0
H2276 H 0.29386 0.77835 0.36259 0.0
H2277 H 0.23503 0.71534 0.35602 0.0
H2278 H 0.2316 0.77408 0.31586 0.0
H2279 H 0.21351 0.7338 0.32741 0.0
Tb2280 Tb 0.59187 0.04892 0.51189 0.0
C2281 C 0.51783 1.00496 0.57485 0.0
C2282 C 0.49944 0.9635 0.54984 0.0
C2283 C 0.50084 0.97058 0.59497 0.0
C2284 C 0.51168 0.98891 0.55181 0.0
C2285 C 0.51207 0.99616 0.5967 0.0
C2286 C 0.49454 0.95427 0.57157 0.0
C2287 C 0.52703 0.03903 0.62006 0.0
N2288 N 0.52862 0.02957 0.57572 0.0
C2289 C 0.53227 0.04689 0.59786 0.0
C2290 C 0.51719 0.01349 0.61954 0.0
Tb2291 Tb 0.53736 0.04003 0.53821 0.0
N2292 N 0.51662 0.99859 0.53128 0.0
C2293 C 0.5079 0.98436 0.50811 0.0
C2294 C 0.49192 0.94838 0.52611 0.0
C2295 C 0.49581 0.95902 0.50516 0.0
H2296 H 0.53946 0.06678 0.59873 0.0
H2297 H 0.48958 0.94769 0.48672 0.0
H2298 H 0.48539 0.93474 0.57045 0.0
H2299 H 0.53047 0.05274 0.63756 0.0
H2300 H 0.51067 0.9922 0.49166 0.0
H2301 H 0.64339 0.13626 0.56967 0.0
H2302 H 0.48255 0.92875 0.52378 0.0
H2303 H 0.587 0.02795 0.4507 0.0
H2304 H 0.62056 0.09229 0.56119 0.0
H2305 H 0.59667 0.04533 0.41343 0.0
H2306 H 0.49646 0.96339 0.61157 0.0
H2307 H 0.65111 0.15895 0.53513 0.0
H2308 H 0.64783 0.15749 0.48896 0.0
H2309 H 0.51303 1.0075 0.63676 0.0
H2310 H 0.63532 0.13261 0.44629 0.0
N2311 N 0.61439 0.0897 0.52198 0.0
C2312 C 0.62365 0.10162 0.54573 0.0
C2313 C 0.64098 0.13951 0.53121 0.0
C2314 C 0.6328 0.12671 0.50678 0.0
C2315 C 0.63671 0.12674 0.55073 0.0
C2316 C 0.6196 0.10146 0.50278 0.0
H2317 H 0.61657 0.09058 0.41792 0.0
N2318 N 0.60103 0.06306 0.47622 0.0
C2319 C 0.60122 0.05747 0.43177 0.0
C2320 C 0.61269 0.08759 0.47897 0.0
C2321 C 0.59585 0.04766 0.45299 0.0
C2322 C 0.61239 0.08303 0.43437 0.0
C2323 C 0.61855 0.09838 0.45821 0.0
O2324 O 0.61241 0.02473 0.49519 0.0
O2325 O 0.56295 0.02115 0.52062 0.0
O2326 O 0.56103 0.03022 0.56419 0.0
O2327 O 0.59596 0.05105 0.55228 0.0
O2328 O 0.57651 1.01151 0.4881 0.0
O2329 O 0.62164 0.04583 0.53273 0.0
O2330 O 0.52076 0.07074 0.54466 0.0
O2331 O 0.56642 0.06757 0.52919 0.0
O2332 O 0.5669 0.06053 0.4878 0.0
O2333 O 0.53403 0.0349 0.4976 0.0
O2334 O 0.55334 0.07743 0.56197 0.0
O2335 O 0.50219 0.03413 0.52512 0.0
C2336 C 0.5615 1.00281 0.50203 0.0
C2337 C 0.65221 0.03436 0.51097 0.0
C2338 C 0.68979 0.02275 0.51497 0.0
C2339 C 0.66573 0.01769 0.51725 0.0
C2340 C 0.69986 0.04439 0.50587 0.0
C2341 C 0.66282 0.05575 0.50197 0.0
C2342 C 0.68648 0.06064 0.49938 0.0
C2343 C 0.58363 0.03915 0.56762 0.0
C2344 C 0.62734 0.02989 0.51484 0.0
C2345 C 0.63081 0.12387 0.46199 0.0
C2346 C 0.63792 0.13803 0.48627 0.0
C2347 C 0.56865 0.08575 0.54807 0.0
C2348 C 0.48032 0.061 0.54645 0.0
C2349 C 0.46532 0.07479 0.53738 0.0
C2350 C 0.44577 0.07874 0.54971 0.0
C2351 C 0.4417 0.06866 0.57122 0.0
C2352 C 0.47552 0.05094 0.56768 0.0
C2353 C 0.45639 0.05485 0.58 0.0
C2354 C 0.5444 0.05003 0.48361 0.0
C2355 C 0.5009 0.05735 0.53369 0.0
H2356 H 0.65768 1.00119 0.52438 0.0
H2357 H 0.71817 0.04865 0.50362 0.0
H2358 H 0.65285 0.06874 0.49709 0.0
H2359 H 0.69453 0.07721 0.49241 0.0
H2360 H 0.46872 0.08205 0.52061 0.0
H2361 H 0.42716 0.07161 0.58144 0.0
H2362 H 0.48652 0.04003 0.57474 0.0
H2363 H 0.45292 0.04715 0.5965 0.0
Tb2364 Tb 0.29032 0.30587 0.77261 0.0
C2365 C 0.36348 0.26059 0.81829 0.0
C2366 C 0.37691 0.28968 0.85769 0.0
C2367 C 0.37789 0.24516 0.85339 0.0
C2368 C 0.36703 0.28457 0.83275 0.0
C2369 C 0.36954 0.2407 0.82811 0.0
C2370 C 0.38156 0.26966 0.86819 0.0
C2371 C 0.36156 0.21468 0.7866 0.0
N2372 N 0.35594 0.25738 0.7939 0.0
C2373 C 0.35588 0.23507 0.77776 0.0
C2374 C 0.36803 0.21735 0.81198 0.0
Tb2375 Tb 0.34603 0.2915 0.78105 0.0
N2376 N 0.36282 0.30336 0.82163 0.0
C2377 C 0.37037 0.32818 0.83385 0.0
C2378 C 0.38289 0.3149 0.87086 0.0
C2379 C 0.38007 0.33429 0.85869 0.0
H2380 H 0.35079 0.23265 0.75811 0.0
H2381 H 0.38516 0.35395 0.86846 0.0
H2382 H 0.38886 0.27312 0.88741 0.0
H2383 H 0.3609 0.1969 0.77384 0.0
H2384 H 0.36797 0.34342 0.82504 0.0
H2385 H 0.24915 0.2417 0.6868 0.0
H2386 H 0.39046 0.31966 0.89007 0.0
H2387 H 0.28662 0.36541 0.79408 0.0
H2388 H 0.26679 0.25308 0.73005 0.0
H2389 H 0.27733 0.40094 0.77721 0.0
H2390 H 0.38238 0.23006 0.8614 0.0
H2391 H 0.24468 0.27538 0.66402 0.0
H2392 H 0.24742 0.32192 0.66527 0.0
H2393 H 0.37255 0.20158 0.81877 0.0
H2394 H 0.25495 0.36559 0.69013 0.0
N2395 N 0.27299 0.29311 0.73225 0.0
C2396 C 0.26481 0.26814 0.72075 0.0
C2397 C 0.25244 0.28056 0.68316 0.0
C2398 C 0.25908 0.306 0.69562 0.0
C2399 C 0.25481 0.26151 0.696 0.0
C2400 C 0.26916 0.31164 0.72052 0.0
H2401 H 0.26552 0.39515 0.73216 0.0
N2402 N 0.28088 0.33975 0.75879 0.0
C2403 C 0.27623 0.38279 0.7649 0.0
C2404 C 0.27324 0.33596 0.73437 0.0
C2405 C 0.28142 0.36253 0.7744 0.0
C2406 C 0.26968 0.37949 0.73945 0.0
C2407 C 0.26761 0.35568 0.72391 0.0
O2408 O 0.26813 0.31721 0.79908 0.0
O2409 O 0.31693 0.30138 0.79935 0.0
O2410 O 0.32077 0.25785 0.78876 0.0
O2411 O 0.28624 0.2638 0.77114 0.0
O2412 O 0.302 0.33161 0.80847 0.0
O2413 O 0.25806 0.28127 0.77381 0.0
O2414 O 0.36831 0.28141 0.75414 0.0
O2415 O 0.31933 0.2959 0.75453 0.0
O2416 O 0.31581 0.33896 0.76418 0.0
O2417 O 0.35003 0.33365 0.78304 0.0
O2418 O 0.3345 0.26604 0.74486 0.0
O2419 O 0.37842 0.31636 0.78088 0.0
C2420 C 0.31669 0.32032 0.8166 0.0
C2421 C 0.22784 0.30046 0.78797 0.0
C2422 C 0.1886 0.29723 0.80107 0.0
C2423 C 0.21164 0.2947 0.8052 0.0
C2424 C 0.18232 0.30615 0.77989 0.0
C2425 C 0.22088 0.30917 0.767 0.0
C2426 C 0.19833 0.3121 0.76309 0.0
C2427 C 0.29834 0.24909 0.78045 0.0
C2428 C 0.25173 0.29684 0.79153 0.0
C2429 C 0.25912 0.35065 0.69863 0.0
C2430 C 0.25486 0.32579 0.68447 0.0
C2431 C 0.3195 0.27716 0.7371 0.0
C2432 C 0.40861 0.29756 0.76573 0.0
C2433 C 0.42465 0.303 0.74823 0.0
C2434 C 0.44763 0.3001 0.75203 0.0
C2435 C 0.45396 0.29108 0.77314 0.0
C2436 C 0.41568 0.28881 0.78663 0.0
C2437 C 0.43813 0.28548 0.7902 0.0
C2438 C 0.33805 0.34807 0.77309 0.0
C2439 C 0.38478 0.30153 0.76254 0.0
H2440 H 0.21679 0.28782 0.82141 0.0
H2441 H 0.16492 0.30863 0.77637 0.0
H2442 H 0.23283 0.31357 0.75354 0.0
H2443 H 0.19318 0.31889 0.74685 0.0
H2444 H 0.41943 0.30991 0.73207 0.0
H2445 H 0.47126 0.28824 0.7764 0.0
H2446 H 0.40388 0.28469 0.80031 0.0
H2447 H 0.44333 0.27863 0.80638 0.0
Tb2448 Tb 0.06453 0.07967 0.54409 0.0
C2449 C 0.09666 1.01084 0.46221 0.0
C2450 C 0.06587 1.00032 0.42864 0.0
C2451 C 0.10536 1.00097 0.41925 0.0
C2452 C 0.07367 1.00763 0.45429 0.0
C2453 C 0.1128 1.00722 0.44486 0.0
C2454 C 0.0819 0.9975 0.41114 0.0
C2455 C 0.14208 0.01459 0.47943 0.0
N2456 N 0.10303 0.01659 0.48707 0.0
C2457 C 0.12538 0.0178 0.49588 0.0
C2458 C 0.13581 1.00948 0.45378 0.0
Tb2459 Tb 0.07469 0.023 0.51271 0.0
N2460 N 0.05879 1.01034 0.47181 0.0
C2461 C 0.03546 1.00402 0.4648 0.0
C2462 C 0.04214 0.99534 0.4214 0.0
C2463 C 0.02685 0.99684 0.43961 0.0
H2464 H 0.13061 0.02196 0.51564 0.0
H2465 H 1.0084 0.9926 0.43428 0.0
H2466 H 0.07627 0.99211 0.39136 0.0
H2467 H 0.15978 0.01608 0.48656 0.0
H2468 H 0.02318 1.0052 0.47833 0.0
H2469 H 0.11971 0.10088 0.63091 0.0
H2470 H 0.03543 0.98975 0.40191 0.0
H2471 H 0.01386 0.09699 0.53374 0.0
H2472 H 0.11105 0.09282 0.58552 0.0
H2473 H 0.98306 0.10754 0.55796 0.0
H2474 H 0.11751 0.99825 0.4056 0.0
H2475 H 0.08824 0.10318 0.6581 0.0
H2476 H 0.0469 0.10535 0.66203 0.0
H2477 H 0.14876 1.00689 0.44107 0.0
H2478 H 1.00973 0.10812 0.64205 0.0
N2479 N 0.07473 0.08823 0.58632 0.0
C2480 C 0.09704 0.0932 0.59689 0.0
C2481 C 0.08429 0.09925 0.63805 0.0
C2482 C 0.0619 0.09714 0.62726 0.0
C2483 C 0.10208 0.09805 0.62278 0.0
C2484 C 0.05769 0.09195 0.60101 0.0
H2485 H 0.98621 0.11008 0.60343 0.0
N2486 N 0.03427 0.0908 0.56454 0.0
C2487 C 0.99793 0.10328 0.56711 0.0
C2488 C 0.03684 0.09365 0.58978 0.0
C2489 C 0.01551 0.0967 0.55328 0.0
C2490 C 0.9998 0.10478 0.59277 0.0
C2491 C 0.01957 0.10036 0.6045 0.0
O2492 O 0.07264 0.10676 0.5214 0.0
O2493 O 0.0634 0.05682 0.50599 0.0
O2494 O 0.10078 0.05431 0.50416 0.0
O2495 O 0.10174 0.08224 0.54116 0.0
O2496 O 0.03696 0.07367 0.51325 0.0
O2497 O 0.0774 0.11819 0.56111 0.0
O2498 O 0.08703 0.99177 0.52032 0.0
O2499 O 0.07527 0.04522 0.55087 0.0
O2500 O 0.03403 0.05185 0.55008 0.0
O2501 O 0.03815 0.01739 0.52047 0.0
O2502 O 0.10165 0.02807 0.54393 0.0
O2503 O 0.05048 0.98895 0.51235 0.0
C2504 C 0.04444 0.05993 0.49533 0.0
C2505 C 0.06757 0.14761 0.53843 0.0
C2506 C 0.06529 0.18284 0.51808 0.0
C2507 C 0.07367 0.16117 0.51967 0.0
C2508 C 0.05055 0.19083 0.53538 0.0
C2509 C 0.05276 0.15578 0.5556 0.0
C2510 C 0.04422 0.17723 0.55393 0.0
C2511 C 0.11159 0.07441 0.52113 0.0
C2512 C 0.07776 0.12582 0.5402 0.0
C2513 C 0.02297 0.10342 0.63051 0.0
C2514 C 0.0441 0.10176 0.64188 0.0
C2515 C 0.09362 0.04103 0.56184 0.0
C2516 C 0.06257 0.95034 0.50832 0.0
C2517 C 0.0555 0.93371 0.52426 0.0
C2518 C 0.05103 0.90728 0.51575 0.0
C2519 C 0.05431 0.89763 0.49097 0.0
C2520 C 0.06548 0.94063 0.48356 0.0
C2521 C 0.06142 0.91427 0.47497 0.0
C2522 C 0.02614 0.02842 0.53699 0.0
C2523 C 0.06626 0.97756 0.51861 0.0
H2524 H 0.08548 0.15523 0.5067 0.0
H2525 H 0.04397 0.20758 0.53451 0.0
H2526 H 0.04799 0.14587 0.57045 0.0
H2527 H 0.03286 0.18348 0.56723 0.0
H2528 H 0.05368 0.94147 0.54353 0.0
H2529 H 0.05116 0.8773 0.48395 0.0
H2530 H 0.07087 0.95333 0.47104 0.0
H2531 H 0.06375 0.90669 0.45587 0.0
Tb2532 Tb 0.34406 0.81906 0.7708 0.0
C2533 C 0.28312 0.74863 0.82324 0.0
C2534 C 0.29354 0.70839 0.80984 0.0
C2535 C 0.27907 0.71785 0.85016 0.0
C2536 C 0.2918 0.73254 0.8058 0.0
C2537 C 0.27598 0.74115 0.84529 0.0
C2538 C 0.28785 0.70149 0.83245 0.0
C2539 C 0.26052 0.77858 0.8545 0.0
N2540 N 0.27999 0.77079 0.81763 0.0
C2541 C 0.26781 0.78516 0.83237 0.0
C2542 C 0.265 0.75674 0.86123 0.0
Tb2543 Tb 0.2928 0.77969 0.78084 0.0
N2544 N 0.29666 0.73967 0.78398 0.0
C2545 C 0.30136 0.72248 0.76459 0.0
C2546 C 0.29999 0.69149 0.79065 0.0
C2547 C 0.30345 0.69838 0.76775 0.0
H2548 H 0.26384 0.80195 0.82753 0.0
H2549 H 0.30782 0.6852 0.75253 0.0
H2550 H 0.28938 0.68317 0.83603 0.0
H2551 H 0.25139 0.79037 0.86632 0.0
H2552 H 0.30397 0.72734 0.74668 0.0
H2553 H 0.32635 0.91298 0.79129 0.0
H2554 H 0.30158 0.6728 0.79304 0.0
H2555 H 0.38052 0.8 0.73092 0.0
H2556 H 0.33168 0.87251 0.80064 0.0
H2557 H 0.39409 0.80903 0.69161 0.0
H2558 H 0.27395 0.71191 0.86713 0.0
H2559 H 0.3319 0.92199 0.74932 0.0
H2560 H 0.34541 0.90933 0.70728 0.0
H2561 H 0.2592 0.75163 0.87832 0.0
H2562 H 0.36411 0.88067 0.67981 0.0
N2563 N 0.33907 0.85776 0.7641 0.0
C2564 C 0.3341 0.87599 0.78224 0.0
C2565 C 0.33413 0.90405 0.75331 0.0
C2566 C 0.34146 0.88646 0.73555 0.0
C2567 C 0.33112 0.8991 0.77703 0.0
C2568 C 0.34415 0.86341 0.74177 0.0
H2569 H 0.38289 0.84345 0.67408 0.0
N2570 N 0.35946 0.82721 0.73481 0.0
C2571 C 0.3827 0.81975 0.701 0.0
C2572 C 0.35485 0.84756 0.72653 0.0
C2573 C 0.37461 0.81446 0.72328 0.0
C2574 C 0.37634 0.83917 0.69115 0.0
C2575 C 0.36287 0.85393 0.70436 0.0
O2576 O 0.37544 0.81405 0.78693 0.0
O2577 O 0.33051 0.78191 0.78136 0.0
O2578 O 0.31219 0.79393 0.81739 0.0
O2579 O 0.33431 0.83035 0.80836 0.0
O2580 O 0.35522 0.78322 0.75774 0.0
O2581 O 0.36956 0.85121 0.7891 0.0
O2582 O 0.26002 0.7859 0.77107 0.0
O2583 O 0.30618 0.81673 0.76986 0.0
O2584 O 0.328 0.80232 0.73347 0.0
O2585 O 0.30018 0.76912 0.74209 0.0
O2586 O 0.28207 0.81554 0.79432 0.0
O2587 O 0.26664 0.74892 0.76078 0.0
C2588 C 0.34312 0.76771 0.76946 0.0
C2589 C 0.40737 0.84603 0.78305 0.0
C2590 C 0.44747 0.84273 0.7815 0.0
C2591 C 0.42607 0.83676 0.79111 0.0
C2592 C 0.45003 0.85805 0.76362 0.0
C2593 C 0.41035 0.86177 0.76549 0.0
C2594 C 0.43153 0.86753 0.75572 0.0
C2595 C 0.32569 0.81688 0.82454 0.0
C2596 C 0.38476 0.83817 0.79236 0.0
C2597 C 0.35837 0.87564 0.69694 0.0
C2598 C 0.34769 0.89193 0.71256 0.0
C2599 C 0.29364 0.83084 0.78207 0.0
C2600 C 0.22889 0.75179 0.77089 0.0
C2601 C 0.20905 0.75956 0.76342 0.0
C2602 C 0.18808 0.75211 0.77357 0.0
C2603 C 0.18726 0.73645 0.79117 0.0
C2604 C 0.2275 0.73564 0.78799 0.0
C2605 C 0.20681 0.72817 0.79816 0.0
C2606 C 0.31215 0.78098 0.72655 0.0
C2607 C 0.251 0.76215 0.76176 0.0
H2608 H 0.42394 0.82478 0.8048 0.0
H2609 H 0.46649 0.86325 0.75628 0.0
H2610 H 0.39635 0.86949 0.75915 0.0
H2611 H 0.43366 0.87955 0.74212 0.0
H2612 H 0.21002 0.7712 0.74947 0.0
H2613 H 0.17146 0.73051 0.79948 0.0
H2614 H 0.24235 0.72889 0.7936 0.0
H2615 H 0.20594 0.71594 0.81155 0.0
Tb2616 Tb 0.58054 0.04244 0.05839 0.0
C2617 C 0.51384 0.07232 0.98474 0.0
C2618 C 0.48063 0.03677 0.97519 0.0
C2619 C 0.4759 0.07927 0.97372 0.0
C2620 C 0.50443 0.04684 0.98269 0.0
C2621 C 0.49986 0.08882 0.97966 0.0
C2622 C 0.46628 0.05324 0.97148 0.0
C2623 C 0.53459 0.12216 0.98416 0.0
N2624 N 0.53704 0.08061 0.99022 0.0
C2625 C 0.54769 0.10499 0.98903 0.0
C2626 C 0.51052 0.11415 0.97983 0.0
Tb2627 Tb 0.55716 0.05145 0.99869 0.0
N2628 N 0.51897 0.03166 0.98622 0.0
C2629 C 0.51105 1.00578 0.9802 0.0
C2630 C 0.4722 1.01041 0.97066 0.0
C2631 C 0.48758 0.99483 0.97268 0.0
H2632 H 0.56625 0.11149 0.99254 0.0
H2633 H 0.48136 0.97435 0.96863 0.0
H2634 H 0.4479 0.04593 0.96608 0.0
H2635 H 0.54306 0.14157 0.98383 0.0
H2636 H 0.52254 0.99333 0.9818 0.0
H2637 H 0.65601 0.12004 0.0885 0.0
H2638 H 0.45405 1.00188 0.96486 0.0
H2639 H 0.57216 0.98278 0.06533 0.0
H2640 H 0.61479 0.1008 0.07567 0.0
H2641 H 0.5959 0.95257 0.07237 0.0
H2642 H 0.46479 0.09168 0.97003 0.0
H2643 H 0.68371 0.09272 0.09103 0.0
H2644 H 0.69039 0.04871 0.08847 0.0
H2645 H 0.50041 0.12745 0.976 0.0
H2646 H 0.67396 1.00277 0.08385 0.0
N2647 N 0.61873 0.06257 0.07041 0.0
C2648 C 0.62648 0.08847 0.0768 0.0
C2649 C 0.66554 0.08408 0.08543 0.0
C2650 C 0.65734 0.05767 0.08042 0.0
C2651 C 0.64995 0.09955 0.08411 0.0
C2652 C 0.63352 0.04745 0.07321 0.0
H2653 H 0.6386 0.96673 0.07829 0.0
N2654 N 0.60114 0.01335 0.0658 0.0
C2655 C 0.60417 0.97194 0.0717 0.0
C2656 C 0.62438 0.02182 0.07072 0.0
C2657 C 0.59077 0.98911 0.06767 0.0
C2658 C 0.62826 0.97999 0.07497 0.0
C2659 C 0.63866 1.0054 0.07516 0.0
O2660 O 0.56108 0.0291 0.0859 0.0
O2661 O 0.55048 0.04031 0.03354 0.0
O2662 O 0.54797 0.07972 0.02728 0.0
O2663 O 0.57486 0.08123 0.06065 0.0
O2664 O 0.54883 1.01224 0.05341 0.0
O2665 O 0.58463 0.066 0.09391 0.0
O2666 O 0.57516 0.06474 0.97021 0.0
O2667 O 0.58714 0.05409 0.02379 0.0
O2668 O 0.58927 0.01394 0.02988 0.0
O2669 O 0.56232 1.01259 0.99644 0.0
O2670 O 0.58876 0.08173 1.00349 0.0
O2671 O 0.55583 0.02577 0.96488 0.0
C2672 C 0.53729 0.02066 0.03769 0.0
C2673 C 0.57883 0.04379 0.12666 0.0
C2674 C 0.56926 0.03464 0.16683 0.0
C2675 C 0.56283 0.04013 0.14391 0.0
C2676 C 0.59206 0.0327 0.1724 0.0
C2677 C 0.60162 0.04183 0.13222 0.0
C2678 C 0.60816 0.03623 0.15505 0.0
C2679 C 0.55896 0.09045 0.04969 0.0
C2680 C 0.57078 0.049 0.10293 0.0
C2681 C 0.66263 0.01513 0.08069 0.0
C2682 C 0.67198 0.04127 0.08334 0.0
C2683 C 0.60028 0.07368 0.0195 0.0
C2684 C 0.5597 0.04406 0.92944 0.0
C2685 C 0.57551 0.04493 0.91167 0.0
C2686 C 0.56853 0.04571 0.88709 0.0
C2687 C 0.54537 0.04566 0.88039 0.0
C2688 C 0.5366 0.04411 0.92272 0.0
C2689 C 0.5295 0.04492 0.89821 0.0
C2690 C 0.57792 1.00332 1.00772 0.0
C2691 C 0.56807 0.04301 0.95468 0.0
H2692 H 0.54529 0.04194 0.13961 0.0
H2693 H 0.59735 0.02843 0.19002 0.0
H2694 H 0.61427 0.04465 0.11909 0.0
H2695 H 0.62573 0.03471 0.15933 0.0
H2696 H 0.59333 0.04472 0.91694 0.0
H2697 H 0.53966 0.04649 0.86153 0.0
H2698 H 0.52414 0.04345 0.93627 0.0
H2699 H 0.51168 0.04498 0.89303 0.0
Tb2700 Tb 0.34768 0.32619 0.2935 0.0
C2701 C 0.24877 0.27979 0.26808 0.0
C2702 C 0.23013 0.25185 0.29381 0.0
C2703 C 0.20787 0.27593 0.2736 0.0
C2704 C 0.25002 0.26286 0.28336 0.0
C2705 C 0.22751 0.28623 0.2627 0.0
C2706 C 0.20919 0.25879 0.28917 0.0
C2707 C 0.24654 0.31279 0.23634 0.0
N2708 N 0.26825 0.28974 0.25823 0.0
C2709 C 0.2672 0.30598 0.24229 0.0
C2710 C 0.2266 0.30291 0.2466 0.0
Tb2711 Tb 0.30032 0.2739 0.26593 0.0
N2712 N 0.27035 0.25603 0.28678 0.0
C2713 C 0.27107 0.2362 0.29858 0.0
C2714 C 0.23159 0.23336 0.30777 0.0
C2715 C 0.25207 0.2252 0.30981 0.0
H2716 H 0.28204 0.31437 0.23413 0.0
H2717 H 0.25317 0.21017 0.31971 0.0
H2718 H 0.1938 0.25062 0.29711 0.0
H2719 H 0.24607 0.32582 0.2239 0.0
H2720 H 0.28659 0.229 0.29956 0.0
H2721 H 0.41115 0.31845 0.22866 0.0
H2722 H 0.21675 0.22456 0.31616 0.0
H2723 H 0.35372 0.34198 0.35509 0.0
H2724 H 0.37231 0.31838 0.24089 0.0
H2725 H 0.38412 0.34717 0.38949 0.0
H2726 H 0.19153 0.28092 0.26992 0.0
H2727 H 0.44275 0.31772 0.25972 0.0
H2728 H 0.45621 0.31946 0.30434 0.0
H2729 H 0.21066 0.30835 0.24206 0.0
H2730 H 0.44863 0.32686 0.34837 0.0
N2731 N 0.38145 0.31899 0.27914 0.0
C2732 C 0.38573 0.31825 0.25484 0.0
C2733 C 0.42564 0.31798 0.26537 0.0
C2734 C 0.42131 0.31905 0.29025 0.0
C2735 C 0.40785 0.31812 0.24773 0.0
C2736 C 0.39886 0.32006 0.2967 0.0
H2737 H 0.42198 0.33788 0.38034 0.0
N2738 N 0.37348 0.3279 0.32683 0.0
C2739 C 0.38724 0.34048 0.37045 0.0
C2740 C 0.39466 0.3244 0.32141 0.0
C2741 C 0.37004 0.3374 0.35093 0.0
C2742 C 0.40856 0.33516 0.36521 0.0
C2743 C 0.41269 0.32761 0.34042 0.0
O2744 O 0.34881 0.36298 0.31384 0.0
O2745 O 0.31044 0.31371 0.28343 0.0
O2746 O 0.31198 0.2934 0.23564 0.0
O2747 O 0.33799 0.33121 0.2553 0.0
O2748 O 0.32255 0.3364 0.3183 0.0
O2749 O 0.3688 0.35748 0.28276 0.0
O2750 O 0.29557 0.25902 0.22701 0.0
O2751 O 0.33725 0.28919 0.26929 0.0
O2752 O 0.34471 0.29851 0.31869 0.0
O2753 O 0.30704 0.2744 0.30641 0.0
O2754 O 0.32633 0.25248 0.27279 0.0
O2755 O 0.2861 0.23497 0.25271 0.0
C2756 C 0.30436 0.3248 0.30352 0.0
C2757 C 0.36114 0.39801 0.29488 0.0
C2758 C 0.33835 0.42493 0.27984 0.0
C2759 C 0.34014 0.40103 0.28435 0.0
C2760 C 0.35782 0.44552 0.28601 0.0
C2761 C 0.38036 0.41866 0.30073 0.0
C2762 C 0.37868 0.44233 0.2963 0.0
C2763 C 0.32553 0.31588 0.23511 0.0
C2764 C 0.36373 0.37384 0.3006 0.0
C2765 C 0.43463 0.32473 0.33404 0.0
C2766 C 0.43895 0.32054 0.30897 0.0
C2767 C 0.34444 0.2698 0.27205 0.0
C2768 C 0.30176 0.21729 0.21715 0.0
C2769 C 0.31339 0.20374 0.23093 0.0
C2770 C 0.32673 0.18775 0.21935 0.0
C2771 C 0.32812 0.18486 0.1936 0.0
C2772 C 0.30279 0.21371 0.19131 0.0
C2773 C 0.31591 0.19752 0.17962 0.0
C2774 C 0.32596 0.28208 0.32261 0.0
C2775 C 0.28922 0.23567 0.22976 0.0
H2776 H 0.32549 0.38483 0.27949 0.0
H2777 H 0.35685 0.46424 0.28315 0.0
H2778 H 0.39666 0.4165 0.30891 0.0
H2779 H 0.39354 0.45828 0.301 0.0
H2780 H 0.31251 0.20585 0.25083 0.0
H2781 H 0.33837 0.17257 0.1843 0.0
H2782 H 0.29386 0.22381 0.18029 0.0
H2783 H 0.31687 0.19506 0.15972 0.0
Tb2784 Tb 0.56274 0.57465 0.04015 0.0
C2785 C 0.60006 0.51039 0.96105 0.0
C2786 C 0.57188 0.50526 0.92574 0.0
C2787 C 0.61194 0.50553 0.91912 0.0
C2788 C 0.57773 0.50959 0.95172 0.0
C2789 C 0.61718 0.5074 0.94476 0.0
C2790 C 0.58929 0.50444 0.90961 0.0
C2791 C 0.64209 0.50397 0.97965 0.0
N2792 N 0.60431 0.5115 0.98586 0.0
C2793 C 0.62452 0.50679 0.99504 0.0
C2794 C 0.63863 0.50491 0.95453 0.0
Tb2795 Tb 0.57482 0.51878 0.00932 0.0
N2796 N 0.56125 0.50976 0.96783 0.0
C2797 C 0.53837 0.50184 0.95877 0.0
C2798 C 0.54854 0.50009 0.91664 0.0
C2799 C 0.53169 0.49755 0.93318 0.0
H2800 H 0.62747 0.50576 0.01434 0.0
H2801 H 0.51353 0.49238 0.92627 0.0
H2802 H 0.58519 0.5016 0.88965 0.0
H2803 H 0.65829 0.50103 0.98718 0.0
H2804 H 0.52496 0.49958 0.97101 0.0
H2805 H 0.62674 0.60393 0.12052 0.0
H2806 H 0.54331 0.49664 0.89683 0.0
H2807 H 0.50684 0.57636 0.03506 0.0
H2808 H 0.61316 0.59179 0.07592 0.0
H2809 H 0.47719 0.58378 0.06291 0.0
H2810 H 0.62496 0.50362 0.90636 0.0
H2811 H 0.59869 0.60707 0.15179 0.0
H2812 H 0.55755 0.60568 0.1608 0.0
H2813 H 0.65222 0.50252 0.94262 0.0
H2814 H 0.51688 0.6008 0.14508 0.0
N2815 N 0.57737 0.58681 0.08139 0.0
C2816 C 0.60055 0.5929 0.08915 0.0
C2817 C 0.59256 0.60158 0.13213 0.0
C2818 C 0.56903 0.59709 0.12408 0.0
C2819 C 0.60843 0.5999 0.11455 0.0
C2820 C 0.56196 0.58987 0.09827 0.0
H2821 H 0.48689 0.5933 0.1086 0.0
N2822 N 0.53355 0.58116 0.06449 0.0
C2823 C 0.49458 0.58472 0.07066 0.0
C2824 C 0.53924 0.58715 0.0895 0.0
C2825 C 0.51158 0.58052 0.05489 0.0
C2826 C 0.5001 0.59006 0.09643 0.0
C2827 C 0.52271 0.59151 0.10618 0.0
O2828 O 0.55084 0.60325 0.02625 0.0
O2829 O 0.56328 0.55256 1.00186 0.0
O2830 O 0.60578 0.54759 1.00609 0.0
O2831 O 0.59911 0.58299 0.03239 0.0
O2832 O 0.5356 0.56767 1.00882 0.0
O2833 O 0.58431 0.61146 0.04745 0.0
O2834 O 0.56285 0.4917 0.03105 0.0
O2835 O 0.57573 0.5416 0.04686 0.0
O2836 O 0.53727 0.54352 0.04944 0.0
O2837 O 0.53759 0.51469 0.01326 0.0
O2838 O 0.60259 0.52503 0.04004 0.0
O2839 O 0.57075 0.47983 0.99385 0.0
C2840 C 0.54432 0.5555 0.99092 0.0
C2841 C 0.56858 0.6466 0.04222 0.0
C2842 C 0.57245 0.68767 0.03034 0.0
C2843 C 0.57424 0.66227 0.02515 0.0
C2844 C 0.5657 0.69756 0.05356 0.0
C2845 C 0.56156 0.65639 0.06518 0.0
C2846 C 0.56028 0.68194 0.07086 0.0
C2847 C 0.61218 0.57171 0.01759 0.0
C2848 C 0.56993 0.62011 0.03458 0.0
C2849 C 0.52937 0.59764 0.13195 0.0
C2850 C 0.55251 0.60038 0.1409 0.0
C2851 C 0.59467 0.53867 0.05776 0.0
C2852 C 0.57598 0.45374 0.02266 0.0
C2853 C 0.56585 0.44052 0.04032 0.0
C2854 C 0.57522 0.42133 0.04771 0.0
C2855 C 0.59502 0.41567 0.03745 0.0
C2856 C 0.59576 0.44775 0.01259 0.0
C2857 C 0.60527 0.42892 0.02011 0.0
C2858 C 0.52762 0.52222 0.03337 0.0
C2859 C 0.56482 0.47261 0.01418 0.0
H2860 H 0.5801 0.65456 1.00762 0.0
H2861 H 0.56429 0.71717 0.05813 0.0
H2862 H 0.55709 0.64437 0.07853 0.0
H2863 H 0.5549 0.68962 0.08861 0.0
H2864 H 0.55029 0.44465 0.04776 0.0
H2865 H 0.60253 0.40095 0.04285 0.0
H2866 H 0.6037 0.45726 0.99866 0.0
H2867 H 0.62048 0.42437 0.01223 0.0
Tb2868 Tb 0.84581 0.31956 0.27038 0.0
C2869 C 0.78509 0.25016 0.3241 0.0
C2870 C 0.79554 0.20991 0.31101 0.0
C2871 C 0.78108 0.21966 0.3513 0.0
C2872 C 0.79378 0.23399 0.3068 0.0
C2873 C 0.77796 0.24288 0.34623 0.0
C2874 C 0.78989 0.2032 0.33371 0.0
C2875 C 0.76255 0.28037 0.35512 0.0
N2876 N 0.78199 0.27221 0.31828 0.0
C2877 C 0.76987 0.28674 0.33292 0.0
C2878 C 0.76699 0.25859 0.36205 0.0
Tb2879 Tb 0.79492 0.28104 0.28154 0.0
N2880 N 0.79838 0.24089 0.28485 0.0
C2881 C 0.8026 0.22341 0.26541 0.0
C2882 C 0.80173 0.1928 0.29182 0.0
C2883 C 0.80475 0.19938 0.26872 0.0
H2884 H 0.76602 0.30353 0.32793 0.0
H2885 H 0.80881 0.18599 0.25345 0.0
H2886 H 0.79138 0.18491 0.33742 0.0
H2887 H 0.75347 0.29228 0.36686 0.0
H2888 H 0.80488 0.22803 0.24735 0.0
H2889 H 0.829 0.41388 0.28892 0.0
H2890 H 0.80328 0.17413 0.2943 0.0
H2891 H 0.88174 0.29806 0.23078 0.0
H2892 H 0.83301 0.37319 0.29885 0.0
H2893 H 0.89719 0.30709 0.19245 0.0
H2894 H 0.77596 0.21386 0.36834 0.0
H2895 H 0.83707 0.42303 0.24749 0.0
H2896 H 0.85224 0.41016 0.20644 0.0
H2897 H 0.76119 0.25365 0.37919 0.0
H2898 H 0.87109 0.38085 0.17999 0.0
N2899 N 0.84209 0.35844 0.26305 0.0
C2900 C 0.83643 0.37668 0.28063 0.0
C2901 C 0.83871 0.40498 0.25171 0.0
C2902 C 0.84651 0.38725 0.23457 0.0
C2903 C 0.83425 0.39994 0.27512 0.0
C2904 C 0.84832 0.36404 0.24104 0.0
H2905 H 0.88855 0.34271 0.17498 0.0
N2906 N 0.86235 0.32695 0.23469 0.0
C2907 C 0.88613 0.31845 0.20155 0.0
C2908 C 0.85897 0.34774 0.22631 0.0
C2909 C 0.87688 0.31315 0.22332 0.0
C2910 C 0.88121 0.33855 0.19174 0.0
C2911 C 0.86798 0.35392 0.20448 0.0
O2912 O 0.87809 0.31435 0.28355 0.0
O2913 O 0.83243 0.28286 0.28199 0.0
O2914 O 0.81448 0.29564 0.31798 0.0
O2915 O 0.83645 0.33162 0.30804 0.0
O2916 O 0.85582 0.28315 0.25704 0.0
O2917 O 0.87021 0.35094 0.29191 0.0
O2918 O 0.76167 0.28692 0.27385 0.0
O2919 O 0.80803 0.31752 0.26959 0.0
O2920 O 0.82774 0.30495 0.23343 0.0
O2921 O 0.80248 0.2704 0.24275 0.0
O2922 O 0.78455 0.31724 0.29466 0.0
O2923 O 0.76939 0.25099 0.25961 0.0
C2924 C 0.84435 0.26823 0.26964 0.0
C2925 C 0.90872 0.3494 0.28471 0.0
C2926 C 0.94983 0.35058 0.28446 0.0
C2927 C 0.92829 0.34152 0.29261 0.0
C2928 C 0.95159 0.36729 0.26788 0.0
C2929 C 0.91084 0.36666 0.26862 0.0
C2930 C 0.93216 0.37536 0.26011 0.0
C2931 C 0.82794 0.31866 0.32466 0.0
C2932 C 0.88624 0.33837 0.29258 0.0
C2933 C 0.86457 0.37595 0.19687 0.0
C2934 C 0.85383 0.39263 0.21192 0.0
C2935 C 0.79577 0.332 0.28169 0.0
C2936 C 0.73121 0.25125 0.26957 0.0
C2937 C 0.71139 0.25877 0.26199 0.0
C2938 C 0.6897 0.24788 0.26868 0.0
C2939 C 0.68814 0.22988 0.28393 0.0
C2940 C 0.72945 0.23293 0.28447 0.0
C2941 C 0.70797 0.22245 0.29175 0.0
C2942 C 0.81259 0.283 0.22655 0.0
C2943 C 0.75337 0.26367 0.26219 0.0
H2944 H 0.92671 0.32815 0.30498 0.0
H2945 H 0.96809 0.37451 0.2614 0.0
H2946 H 0.89609 0.37334 0.26252 0.0
H2947 H 0.93365 0.38849 0.24755 0.0
H2948 H 0.71288 0.27324 0.25082 0.0
H2949 H 0.67156 0.22121 0.28934 0.0
H2950 H 0.74455 0.22677 0.29049 0.0
H2951 H 0.70666 0.20839 0.3033 0.0
Tb2952 Tb 0.08139 0.54069 0.55831 0.0
C2953 C 0.01353 0.56828 0.48479 0.0
C2954 C 0.98138 0.53163 0.47316 0.0
C2955 C 0.97514 0.57395 0.4736 0.0
C2956 C 1.00495 0.54242 0.48133 0.0
C2957 C 0.99887 0.58439 0.48059 0.0
C2958 C 0.96641 0.54758 0.46985 0.0
C2959 C 0.03252 0.61945 0.48853 0.0
N2960 N 0.03655 0.5775 0.4913 0.0
C2961 C 0.04637 0.60262 0.49223 0.0
C2962 C 1.00862 0.61035 0.48295 0.0
Tb2963 Tb 0.05769 0.54863 0.49801 0.0
N2964 N 0.02001 0.52774 0.48468 0.0
C2965 C 0.01283 0.50181 0.47844 0.0
C2966 C 0.97374 0.50513 0.46793 0.0
C2967 C 0.98962 0.49016 0.47023 0.0
H2968 H 0.0648 0.60989 0.49668 0.0
H2969 H 0.98398 0.46962 0.4659 0.0
H2970 H 0.94819 0.53969 0.46386 0.0
H2971 H 0.04028 0.63942 0.48996 0.0
H2972 H 0.02478 0.48995 0.48041 0.0
H2973 H 0.15598 0.61823 0.59189 0.0
H2974 H 0.95576 0.49606 0.46164 0.0
H2975 H 0.07303 0.4791 0.55933 0.0
H2976 H 0.11521 0.59866 0.57665 0.0
H2977 H 0.09651 0.44903 0.56694 0.0
H2978 H 0.96353 0.58601 0.47047 0.0
H2979 H 0.18343 0.59105 0.59668 0.0
H2980 H 0.18999 0.54705 0.59482 0.0
H2981 H 0.99794 0.6234 0.47995 0.0
H2982 H 0.17373 0.50089 0.58817 0.0
N2983 N 0.11919 0.56067 0.57235 0.0
C2984 C 0.12681 0.58652 0.57878 0.0
C2985 C 0.16546 0.58234 0.59004 0.0
C2986 C 0.15734 0.55591 0.58472 0.0
C2987 C 0.15001 0.59773 0.58744 0.0
C2988 C 0.13379 0.5456 0.57609 0.0
H2989 H 0.13878 0.46417 0.57813 0.0
N2990 N 0.10169 0.5112 0.56562 0.0
C2991 C 0.10469 0.46892 0.56854 0.0
C2992 C 0.12469 0.51988 0.57262 0.0
C2993 C 0.0914 0.48613 0.56433 0.0
C2994 C 0.12854 0.47752 0.57479 0.0
C2995 C 0.13881 0.50336 0.57725 0.0
O2996 O 0.06274 0.52691 0.58606 0.0
O2997 O 0.05187 0.53601 0.53214 0.0
O2998 O 0.04576 0.57386 0.52702 0.0
O2999 O 0.0749 0.57913 0.55934 0.0
O3000 O 0.05035 0.5094 0.55336 0.0
O3001 O 0.08206 0.56601 0.59226 0.0
O3002 O 0.07606 0.56302 0.47036 0.0
O3003 O 0.08715 0.55319 0.52412 0.0
O3004 O 0.09373 0.5156 0.52928 0.0
O3005 O 0.06513 0.5107 0.49657 0.0
O3006 O 0.08903 0.57968 0.50266 0.0
O3007 O 0.05595 0.52419 0.46331 0.0
C3008 C 0.03898 0.51634 0.53638 0.0
C3009 C 0.07697 0.54699 0.62723 0.0
C3010 C 0.0668 0.5455 0.6692 0.0
C3011 C 0.06098 0.54775 0.64477 0.0
C3012 C 0.08906 0.54258 0.67599 0.0
C3013 C 0.09917 0.54409 0.63405 0.0
C3014 C 0.10517 0.54193 0.65843 0.0
C3015 C 0.05757 0.58639 0.54847 0.0
C3016 C 0.06944 0.54851 0.60188 0.0
C3017 C 0.16253 0.51328 0.58471 0.0
C3018 C 0.17179 0.53954 0.58846 0.0
C3019 C 0.10027 0.57259 0.51967 0.0
C3020 C 0.06025 0.54483 0.4293 0.0
C3021 C 0.07632 0.54763 0.41197 0.0
C3022 C 0.06982 0.5514 0.3883 0.0
C3023 C 0.04681 0.55224 0.382 0.0
C3024 C 0.03728 0.54567 0.42298 0.0
C3025 C 0.03062 0.54935 0.39934 0.0
C3026 C 0.08273 0.50369 0.50716 0.0
C3027 C 0.06849 0.54195 0.45395 0.0
H3028 H 0.04388 0.55016 0.63937 0.0
H3029 H 0.09387 0.54048 0.69467 0.0
H3030 H 0.11171 0.54337 0.62064 0.0
H3031 H 0.12227 0.53959 0.66369 0.0
H3032 H 0.09402 0.54677 0.41694 0.0
H3033 H 0.04146 0.55537 0.36388 0.0
H3034 H 0.02461 0.54357 0.4362 0.0
H3035 H 0.01292 0.55008 0.39449 0.0
Tb3036 Tb 0.79046 0.80509 0.27254 0.0
C3037 C 0.86427 0.76239 0.31895 0.0
C3038 C 0.87825 0.79338 0.3571 0.0
C3039 C 0.87911 0.74911 0.35525 0.0
C3040 C 0.86806 0.78694 0.33221 0.0
C3041 C 0.8705 0.74329 0.32996 0.0
C3042 C 0.88295 0.77416 0.36884 0.0
C3043 C 0.8624 0.71533 0.28938 0.0
N3044 N 0.85651 0.75783 0.29449 0.0
C3045 C 0.85655 0.73499 0.27934 0.0
C3046 C 0.86898 0.71934 0.31491 0.0
Tb3047 Tb 0.84627 0.79075 0.27971 0.0
N3048 N 0.86382 0.80491 0.3199 0.0
C3049 C 0.87168 0.83012 0.33079 0.0
C3050 C 0.88448 0.81904 0.36896 0.0
C3051 C 0.88168 0.83752 0.35554 0.0
H3052 H 0.85128 0.7316 0.25962 0.0
H3053 H 0.88707 0.85749 0.36426 0.0
H3054 H 0.89047 0.77866 0.38805 0.0
H3055 H 0.86176 0.69709 0.27744 0.0
H3056 H 0.86955 0.8448 0.32097 0.0
H3057 H 0.75058 0.74289 0.18524 0.0
H3058 H 0.89229 0.82481 0.38808 0.0
H3059 H 0.78328 0.86273 0.29626 0.0
H3060 H 0.76772 0.75322 0.22871 0.0
H3061 H 0.7722 0.89828 0.28104 0.0
H3062 H 0.88371 0.73464 0.36418 0.0
H3063 H 0.74581 0.77734 0.16363 0.0
H3064 H 0.7474 0.82391 0.16651 0.0
H3065 H 0.87364 0.70415 0.32262 0.0
H3066 H 0.75311 0.86667 0.19294 0.0
N3067 N 0.77356 0.79336 0.232 0.0
C3068 C 0.76567 0.76856 0.21983 0.0
C3069 C 0.75341 0.78203 0.18282 0.0
C3070 C 0.75949 0.80722 0.19605 0.0
C3071 C 0.75594 0.76255 0.195 0.0
C3072 C 0.76938 0.81222 0.22097 0.0
H3073 H 0.76159 0.8944 0.23601 0.0
N3074 N 0.77978 0.839 0.2601 0.0
C3075 C 0.77243 0.88095 0.26801 0.0
C3076 C 0.77256 0.83604 0.23566 0.0
C3077 C 0.77872 0.86069 0.27656 0.0
C3078 C 0.76656 0.87874 0.24257 0.0
C3079 C 0.76602 0.85584 0.2261 0.0
O3080 O 0.76928 0.81365 0.30117 0.0
O3081 O 0.81758 0.80067 0.29882 0.0
O3082 O 0.8211 0.75709 0.28774 0.0
O3083 O 0.78647 0.76302 0.27051 0.0
O3084 O 0.80285 0.83109 0.30805 0.0
O3085 O 0.75728 0.78127 0.27177 0.0
O3086 O 0.86811 0.77892 0.25297 0.0
O3087 O 0.81925 0.79515 0.25351 0.0
O3088 O 0.81512 0.83957 0.26551 0.0
O3089 O 0.85039 0.83259 0.28003 0.0
O3090 O 0.83396 0.76475 0.24406 0.0
O3091 O 0.8786 0.81495 0.27784 0.0
C3092 C 0.81772 0.81989 0.31598 0.0
C3093 C 0.72865 0.80048 0.29062 0.0
C3094 C 0.69098 0.80007 0.3072 0.0
C3095 C 0.71287 0.79375 0.308 0.0
C3096 C 0.6852 0.81297 0.28885 0.0
C3097 C 0.72206 0.81297 0.27232 0.0
C3098 C 0.70055 0.81921 0.27152 0.0
C3099 C 0.79863 0.7483 0.27963 0.0
C3100 C 0.75197 0.79478 0.29172 0.0
C3101 C 0.75792 0.85161 0.20077 0.0
C3102 C 0.75468 0.82728 0.18572 0.0
C3103 C 0.81919 0.77612 0.23619 0.0
C3104 C 0.90863 0.79559 0.26321 0.0
C3105 C 0.92487 0.80189 0.24608 0.0
C3106 C 0.94799 0.79934 0.25 0.0
C3107 C 0.95423 0.78984 0.27082 0.0
C3108 C 0.91567 0.78639 0.28381 0.0
C3109 C 0.93823 0.78342 0.28748 0.0
C3110 C 0.8379 0.84779 0.27227 0.0
C3111 C 0.88465 0.79923 0.26005 0.0
H3112 H 0.71766 0.78397 0.32216 0.0
H3113 H 0.6686 0.81804 0.28781 0.0
H3114 H 0.73353 0.81793 0.2586 0.0
H3115 H 0.69574 0.82897 0.25736 0.0
H3116 H 0.91971 0.80921 0.23018 0.0
H3117 H 0.97162 0.78732 0.2742 0.0
H3118 H 0.90376 0.78164 0.29722 0.0
H3119 H 0.9434 0.77622 0.30344 0.0
Tb3120 Tb 0.8311 0.28668 0.74758 0.0
C3121 C 0.81533 0.36992 0.82147 0.0
C3122 C 0.84031 0.38114 0.86014 0.0
C3123 C 0.82951 0.41445 0.84207 0.0
C3124 C 0.82742 0.36272 0.83984 0.0
C3125 C 0.81559 0.39592 0.82285 0.0
C3126 C 0.84198 0.40707 0.86066 0.0
C3127 C 0.78651 0.38339 0.78785 0.0
N3128 N 0.80213 0.35134 0.80317 0.0
C3129 C 0.78689 0.35794 0.78719 0.0
C3130 C 0.80127 0.40252 0.80541 0.0
Tb3131 Tb 0.80535 0.30976 0.80321 0.0
N3132 N 0.82491 0.33754 0.83894 0.0
C3133 C 0.83258 0.32959 0.85955 0.0
C3134 C 0.85022 0.37292 0.87988 0.0
C3135 C 0.84587 0.34699 0.87984 0.0
H3136 H 0.77447 0.34426 0.77379 0.0
H3137 H 0.85256 0.34038 0.89551 0.0
H3138 H 0.85208 0.42148 0.87585 0.0
H3139 H 0.77469 0.38818 0.77478 0.0
H3140 H 0.82891 0.30958 0.86004 0.0
H3141 H 0.77459 0.25094 0.66056 0.0
H3142 H 0.8603 0.38644 0.89574 0.0
H3143 H 0.87021 0.25537 0.76708 0.0
H3144 H 0.8023 0.28321 0.69147 0.0
H3145 H 0.87243 0.21187 0.76668 0.0
H3146 H 0.83019 0.43447 0.84315 0.0
H3147 H 0.76677 0.20577 0.66391 0.0
H3148 H 0.77852 0.17235 0.68381 0.0
H3149 H 0.80094 0.42222 0.80585 0.0
H3150 H 0.80626 0.1615 0.71254 0.0
N3151 N 0.80783 0.25738 0.71472 0.0
C3152 C 0.79838 0.26374 0.69398 0.0
C3153 C 0.77842 0.22002 0.67808 0.0
C3154 C 0.7908 0.21308 0.69702 0.0
C3155 C 0.78283 0.24545 0.6761 0.0
C3156 C 0.8057 0.23245 0.7151 0.0
H3157 H 0.84189 0.17612 0.74288 0.0
N3158 N 0.83643 0.24582 0.74665 0.0
C3159 C 0.85749 0.2156 0.75711 0.0
C3160 C 0.82098 0.2264 0.73133 0.0
C3161 C 0.8556 0.24063 0.75793 0.0
C3162 C 0.84032 0.1955 0.74359 0.0
C3163 C 0.82215 0.20075 0.72981 0.0
O3164 O 0.86715 0.30023 0.74912 0.0
O3165 O 0.82926 0.31846 0.77649 0.0
O3166 O 0.78001 0.30476 0.77032 0.0
O3167 O 0.79838 0.29568 0.7345 0.0
O3168 O 0.83042 0.32444 0.74075 0.0
O3169 O 0.84621 0.2874 0.71401 0.0
O3170 O 0.76909 0.29692 0.7996 0.0
O3171 O 0.80801 0.27752 0.77502 0.0
O3172 O 0.85549 0.28922 0.78084 0.0
O3173 O 0.83956 0.30448 0.81681 0.0
O3174 O 0.80858 0.27338 0.81156 0.0
O3175 O 0.78853 0.30541 0.83528 0.0
C3176 C 0.83028 0.33527 0.76364 0.0
C3177 C 0.87827 0.32239 0.71752 0.0
C3178 C 0.87812 0.35557 0.69364 0.0
C3179 C 0.86666 0.33354 0.70117 0.0
C3180 C 0.90122 0.36686 0.70329 0.0
C3181 C 0.90136 0.33384 0.7268 0.0
C3182 C 0.91269 0.35606 0.71983 0.0
C3183 C 0.78031 0.30078 0.74573 0.0
C3184 C 0.86655 0.29905 0.72527 0.0
C3185 C 0.80597 0.18129 0.7135 0.0
C3186 C 0.79016 0.18746 0.69721 0.0
C3187 C 0.80883 0.26187 0.78894 0.0
C3188 C 0.75823 0.26832 0.82624 0.0
C3189 C 0.7664 0.25964 0.84675 0.0
C3190 C 0.75835 0.23439 0.84916 0.0
C3191 C 0.74164 0.21773 0.831 0.0
C3192 C 0.74129 0.25145 0.80838 0.0
C3193 C 0.73311 0.22632 0.81077 0.0
C3194 C 0.8563 0.29598 0.80547 0.0
C3195 C 0.76879 0.29411 0.82251 0.0
H3196 H 0.84866 0.32519 0.69438 0.0
H3197 H 0.91055 0.38377 0.69769 0.0
H3198 H 0.91059 0.32562 0.73951 0.0
H3199 H 0.9305 0.36481 0.72707 0.0
H3200 H 0.77955 0.27233 0.86064 0.0
H3201 H 0.73492 0.19825 0.83266 0.0
H3202 H 0.73466 0.25752 0.79234 0.0
H3203 H 0.7202 0.21342 0.79683 0.0
Tb3204 Tb 0.8396 0.82766 0.79223 0.0
C3205 C 0.75063 0.78257 0.74952 0.0
C3206 C 0.72673 0.77064 0.78146 0.0
C3207 C 0.71116 0.78867 0.74909 0.0
C3208 C 0.7481 0.77318 0.77098 0.0
C3209 C 0.73182 0.78961 0.73786 0.0
C3210 C 0.70859 0.7791 0.77083 0.0
C3211 C 0.75309 0.7928 0.70237 0.0
N3212 N 0.7706 0.78246 0.73878 0.0
C3213 C 0.77074 0.7848 0.71427 0.0
C3214 C 0.73379 0.79597 0.71454 0.0
Tb3215 Tb 0.79963 0.77039 0.76087 0.0
N3216 N 0.76587 0.76475 0.78051 0.0
C3217 C 0.76183 0.7505 0.79851 0.0
C3218 C 0.7238 0.75862 0.80162 0.0
C3219 C 0.74128 0.74806 0.80986 0.0
H3220 H 0.78408 0.78 0.70312 0.0
H3221 H 0.73868 0.73729 0.82445 0.0
H3222 H 0.69227 0.77764 0.77887 0.0
H3223 H 0.75405 0.79562 0.68344 0.0
H3224 H 0.7738 0.73981 0.80385 0.0
H3225 H 0.89295 0.8636 0.72316 0.0
H3226 H 0.70763 0.75608 0.80997 0.0
H3227 H 0.86063 0.82441 0.84963 0.0
H3228 H 0.85985 0.85952 0.74684 0.0
H3229 H 0.89553 0.8171 0.86958 0.0
H3230 H 0.69675 0.79433 0.74056 0.0
H3231 H 0.92692 0.84824 0.73566 0.0
H3232 H 0.94703 0.83025 0.76664 0.0
H3233 H 0.71983 0.80155 0.70505 0.0
H3234 H 0.94773 0.81719 0.80696 0.0
N3235 N 0.87149 0.83606 0.76983 0.0
C3236 C 0.87296 0.84984 0.75128 0.0
C3237 C 0.91157 0.8447 0.74532 0.0
C3238 C 0.91138 0.83365 0.76619 0.0
C3239 C 0.89242 0.85333 0.73818 0.0
C3240 C 0.89095 0.82973 0.77834 0.0
H3241 H 0.92877 0.81262 0.84569 0.0
N3242 N 0.87199 0.82067 0.81297 0.0
C3243 C 0.89438 0.81759 0.84995 0.0
C3244 C 0.89123 0.82187 0.80072 0.0
C3245 C 0.87425 0.82114 0.83815 0.0
C3246 C 0.91309 0.81517 0.83646 0.0
C3247 C 0.91209 0.81847 0.81188 0.0
O3248 O 0.83617 0.84846 0.82755 0.0
O3249 O 0.80415 0.80551 0.78807 0.0
O3250 O 0.81431 0.79338 0.73373 0.0
O3251 O 0.8274 0.83486 0.75599 0.0
O3252 O 0.80936 0.84313 0.78629 0.0
O3253 O 0.8567 0.86619 0.80186 0.0
O3254 O 0.79886 0.74768 0.72525 0.0
O3255 O 0.83504 0.79211 0.76653 0.0
O3256 O 0.83143 0.80136 0.81871 0.0
O3257 O 0.80879 0.76218 0.79746 0.0
O3258 O 0.82993 0.75437 0.76644 0.0
O3259 O 0.78298 0.73172 0.75454 0.0
C3260 C 0.79372 0.82299 0.78649 0.0
C3261 C 0.83896 0.89207 0.82999 0.0
C3262 C 0.81934 0.92323 0.81846 0.0
C3263 C 0.82777 0.90132 0.81174 0.0
C3264 C 0.82203 0.93585 0.84355 0.0
C3265 C 0.84151 0.90474 0.855 0.0
C3266 C 0.83306 0.92658 0.86173 0.0
C3267 C 0.82055 0.81828 0.7346 0.0
C3268 C 0.84844 0.86956 0.82335 0.0
C3269 C 0.93179 0.82032 0.7989 0.0
C3270 C 0.93141 0.82782 0.77601 0.0
C3271 C 0.84567 0.77496 0.76811 0.0
C3272 C 0.79891 0.70486 0.72504 0.0
C3273 C 0.80664 0.69275 0.74317 0.0
C3274 C 0.81696 0.67213 0.73629 0.0
C3275 C 0.81888 0.6633 0.71091 0.0
C3276 C 0.80092 0.69574 0.69984 0.0
C3277 C 0.8108 0.67499 0.69284 0.0
C3278 C 0.82058 0.77734 0.81793 0.0
C3279 C 0.78871 0.72697 0.73197 0.0
H3280 H 0.82591 0.89182 0.79232 0.0
H3281 H 0.81539 0.95272 0.84906 0.0
H3282 H 0.85012 0.89778 0.86928 0.0
H3283 H 0.83505 0.93632 0.88105 0.0
H3284 H 0.80458 0.6993 0.76259 0.0
H3285 H 0.82696 0.6476 0.70506 0.0
H3286 H 0.79491 0.70472 0.68559 0.0
H3287 H 0.8124 0.6681 0.67337 0.0
Tb3288 Tb 0.54091 0.52473 0.50955 0.0
C3289 C 0.60139 0.61814 0.57585 0.0
C3290 C 0.6051 0.64936 0.5499 0.0
C3291 C 0.60739 0.66299 0.59485 0.0
C3292 C 0.60118 0.62381 0.55258 0.0
C3293 C 0.60527 0.63768 0.59737 0.0
C3294 C 0.60731 0.66884 0.5711 0.0
C3295 C 0.60792 0.60622 0.62198 0.0
N3296 N 0.59996 0.59359 0.57735 0.0
C3297 C 0.60418 0.58757 0.60006 0.0
C3298 C 0.60803 0.63133 0.62067 0.0
Tb3299 Tb 0.59257 0.56385 0.54048 0.0
N3300 N 0.59955 0.60446 0.53277 0.0
C3301 C 0.60444 0.60984 0.51003 0.0
C3302 C 0.60801 0.65464 0.52623 0.0
C3303 C 0.60827 0.63484 0.50632 0.0
H3304 H 0.60391 0.5682 0.60146 0.0
H3305 H 0.61125 0.63875 0.48804 0.0
H3306 H 0.60999 0.68854 0.5694 0.0
H3307 H 0.61062 0.60117 0.63987 0.0
H3308 H 0.60454 0.59495 0.49424 0.0
H3309 H 0.52747 0.44318 0.55347 0.0
H3310 H 0.61104 0.67398 0.52333 0.0
H3311 H 0.52029 0.52352 0.4514 0.0
H3312 H 0.5306 0.48813 0.55157 0.0
H3313 H 0.51324 0.49362 0.41082 0.0
H3314 H 0.61008 0.67826 0.61114 0.0
H3315 H 0.53113 0.41223 0.5158 0.0
H3316 H 0.5325 0.4027 0.46938 0.0
H3317 H 0.61107 0.64577 0.63766 0.0
H3318 H 0.5284 0.4167 0.4297 0.0
N3319 N 0.53765 0.4833 0.51356 0.0
C3320 C 0.53246 0.47497 0.535 0.0
C3321 C 0.53275 0.43203 0.5149 0.0
C3322 C 0.53511 0.44006 0.4923 0.0
C3323 C 0.53054 0.4494 0.53615 0.0
C3324 C 0.53702 0.46607 0.49218 0.0
H3325 H 0.52015 0.45046 0.40764 0.0
N3326 N 0.53274 0.49821 0.47095 0.0
C3327 C 0.51966 0.48797 0.42722 0.0
C3328 C 0.53441 0.47383 0.46994 0.0
C3329 C 0.52385 0.50494 0.45029 0.0
C3330 C 0.52364 0.46363 0.42549 0.0
C3331 C 0.53028 0.45597 0.44716 0.0
O3332 O 0.51274 0.54262 0.50921 0.0
O3333 O 0.55955 0.56455 0.52193 0.0
O3334 O 0.56602 0.56935 0.56771 0.0
O3335 O 0.53735 0.53328 0.55116 0.0
O3336 O 0.54234 0.55371 0.48685 0.0
O3337 O 0.50756 0.50385 0.51249 0.0
O3338 O 0.62181 0.55679 0.55886 0.0
O3339 O 0.57405 0.52385 0.52825 0.0
O3340 O 0.56478 0.52334 0.47894 0.0
O3341 O 0.59796 0.5523 0.49942 0.0
O3342 O 0.59082 0.53501 0.56332 0.0
O3343 O 0.62384 0.56938 0.52411 0.0
C3344 C 0.55478 0.57311 0.50241 0.0
C3345 C 0.47668 0.51542 0.49225 0.0
C3346 C 0.43938 0.5237 0.48065 0.0
C3347 C 0.46041 0.53038 0.4959 0.0
C3348 C 0.43495 0.50222 0.46113 0.0
C3349 C 0.47191 0.49371 0.4729 0.0
C3350 C 0.45124 0.48738 0.45725 0.0
C3351 C 0.54643 0.55297 0.57007 0.0
C3352 C 0.49764 0.52205 0.50993 0.0
C3353 C 0.5311 0.43062 0.44705 0.0
C3354 C 0.53349 0.42265 0.46965 0.0
C3355 C 0.57901 0.51543 0.54779 0.0
C3356 C 0.65836 0.57846 0.55075 0.0
C3357 C 0.67694 0.56749 0.54473 0.0
C3358 C 0.69973 0.5809 0.553 0.0
C3359 C 0.7038 0.60557 0.56767 0.0
C3360 C 0.66248 0.60323 0.56507 0.0
C3361 C 0.6852 0.61672 0.5735 0.0
C3362 C 0.58644 0.53662 0.47858 0.0
C3363 C 0.63505 0.56307 0.54203 0.0
H3364 H 0.46378 0.54678 0.5112 0.0
H3365 H 0.41888 0.49689 0.44903 0.0
H3366 H 0.4839 0.48143 0.47006 0.0
H3367 H 0.44769 0.4707 0.44232 0.0
H3368 H 0.67359 0.54816 0.53398 0.0
H3369 H 0.72129 0.61618 0.57446 0.0
H3370 H 0.64825 0.61198 0.56981 0.0
H3371 H 0.68841 0.63578 0.58468 0.0
Tb3372 Tb 0.10143 0.5554 0.01881 0.0
C3373 C 0.01762 0.50574 0.06604 0.0
C3374 C 1.0004 0.46712 0.03595 0.0
C3375 C 0.99652 0.46875 0.08 0.0
C3376 C 0.01353 0.49245 0.04177 0.0
C3377 C 1.00878 0.49431 0.08545 0.0
C3378 C 0.99235 0.45515 0.05526 0.0
C3379 C 0.0232 0.53483 0.11372 0.0
N3380 N 0.02937 0.5304 0.07041 0.0
C3381 C 0.03151 0.54532 0.09377 0.0
C3382 C 0.01201 0.50912 0.10961 0.0
Tb3383 Tb 0.0434 0.54566 0.03679 0.0
N3384 N 0.02147 0.50482 0.02374 0.0
C3385 C 0.01526 0.49339 0.99919 0.0
C3386 C 0.99526 0.45485 0.0109 0.0
C3387 C 1.00243 0.4682 0.99243 0.0
H3388 H 0.0402 0.56518 0.09726 0.0
H3389 H 0.99816 0.45907 0.97297 0.0
H3390 H 0.98243 0.43562 0.0512 0.0
H3391 H 0.02542 0.54658 0.13225 0.0
H3392 H 0.02065 0.50324 0.98455 0.0
H3393 H 0.14712 0.64168 0.08276 0.0
H3394 H 0.98531 0.43536 1.00563 0.0
H3395 H 0.10412 0.53618 0.9582 0.0
H3396 H 0.12475 0.59742 0.0711 0.0
H3397 H 0.11824 0.55513 0.92314 0.0
H3398 H 0.98975 0.45952 0.09467 0.0
H3399 H 0.1592 0.66575 0.05012 0.0
H3400 H 0.16141 0.66584 1.00452 0.0
H3401 H 1.00549 0.50107 0.12507 0.0
H3402 H 0.15371 0.64219 0.96097 0.0
N3403 N 0.12327 0.59621 0.03196 0.0
C3404 C 0.12982 0.60747 0.0565 0.0
C3405 C 0.1493 0.64624 0.04483 0.0
C3406 C 0.14381 0.63415 0.01975 0.0
C3407 C 0.14258 0.63269 0.06328 0.0
C3408 C 0.13076 0.60879 0.01391 0.0
H3409 H 0.13788 0.60074 0.93044 0.0
N3410 N 0.11479 0.57091 0.98511 0.0
C3411 C 0.12055 0.56679 0.94173 0.0
C3412 C 0.12645 0.59562 0.98956 0.0
C3413 C 0.11255 0.55611 0.96168 0.0
C3414 C 0.13158 0.59255 0.9459 0.0
C3415 C 0.13499 0.60723 0.97013 0.0
O3416 O 0.12033 0.52819 1.00561 0.0
O3417 O 0.07058 0.52728 0.02316 0.0
O3418 O 0.06377 0.53271 0.06381 0.0
O3419 O 0.10054 0.55537 0.05866 0.0
O3420 O 0.08714 0.51902 0.99255 0.0
O3421 O 0.13213 0.55498 0.04003 0.0
O3422 O 0.0235 0.57199 0.04974 0.0
O3423 O 0.07441 0.57357 0.03294 0.0
O3424 O 0.08103 0.56956 0.99282 0.0
O3425 O 0.04486 0.54505 0.99687 0.0
O3426 O 0.05723 0.58228 0.06283 0.0
O3427 O 0.01416 0.54713 0.01389 0.0
C3428 C 0.07031 0.50977 1.00421 0.0
C3429 C 0.16059 0.53881 0.01754 0.0
C3430 C 0.1967 0.52372 0.01687 0.0
C3431 C 0.17417 0.52251 0.02441 0.0
C3432 C 0.20523 0.54173 1.00251 0.0
C3433 C 0.16981 0.55667 1.00352 0.0
C3434 C 0.19197 0.55808 0.99608 0.0
C3435 C 0.08604 0.54175 0.07102 0.0
C3436 C 0.13654 0.53629 0.02411 0.0
C3437 C 0.14716 0.63283 0.97564 0.0
C3438 C 0.15154 0.64629 1.00043 0.0
C3439 C 0.07458 0.5912 0.05171 0.0
C3440 C 0.98383 0.56074 0.03463 0.0
C3441 C 0.97043 0.57757 0.02862 0.0
C3442 C 0.94686 0.57384 0.03309 0.0
C3443 C 0.93714 0.55311 0.04373 0.0
C3444 C 0.97353 0.54026 0.04509 0.0
C3445 C 0.95037 0.53652 0.04963 0.0
C3446 C 0.05898 0.55975 0.98512 0.0
C3447 C 1.00849 0.56471 0.03011 0.0
H3448 H 0.16719 0.50909 0.03568 0.0
H3449 H 0.22217 0.54304 0.99593 0.0
H3450 H 0.15983 0.56936 0.99811 0.0
H3451 H 0.19884 0.5718 0.98505 0.0
H3452 H 0.97826 0.59324 0.02023 0.0
H3453 H 0.91925 0.54983 0.04773 0.0
H3454 H 0.98338 0.52715 0.04977 0.0
H3455 H 0.94262 0.52069 0.05781 0.0
C3456 C 0.04184 0.14562 1.0089 0.0
C3457 C 0.0452 0.15148 0.98498 0.0
C3458 C 0.0453 0.12238 0.01522 0.0
C3459 C 0.05217 0.10343 0.99791 0.0
H3460 H 0.03668 0.15927 0.02307 0.0
H3461 H 0.04228 0.11913 0.03371 0.0
S3462 S 0.06191 0.10768 0.93242 0.0
N3463 N 0.05498 0.13476 0.94381 0.0
N3464 N 0.06118 0.09216 0.95542 0.0
C3465 C 0.05507 0.10886 0.97395 0.0
C3466 C 0.05183 0.13242 0.96763 0.0
C3467 C 0.23603 0.80024 0.19109 0.0
C3468 C 0.22576 0.82118 0.19784 0.0
C3469 C 0.25566 0.7973 0.20524 0.0
C3470 C 0.26608 0.81481 0.22737 0.0
H3471 H 0.22891 0.78587 0.17453 0.0
H3472 H 0.26243 0.78073 0.19887 0.0
S3473 S 0.24791 0.87456 0.25214 0.0
N3474 N 0.22889 0.86065 0.2278 0.0
N3475 N 0.26563 0.85543 0.25355 0.0
C3476 C 0.25654 0.83629 0.2338 0.0
C3477 C 0.23658 0.83939 0.21935 0.0
C3478 C 0.54543 0.93206 0.4712 0.0
C3479 C 0.54646 0.91889 0.49079 0.0
C3480 C 0.54907 0.95882 0.47553 0.0
C3481 C 0.55395 0.97425 0.49972 0.0
H3482 H 0.54205 0.92157 0.45209 0.0
H3483 H 0.54859 0.96766 0.45953 0.0
S3484 S 0.55898 0.94994 0.55797 0.0
N3485 N 0.55254 0.92387 0.53582 0.0
N3486 N 0.56001 0.97404 0.54375 0.0
C3487 C 0.55473 0.96149 0.51966 0.0
C3488 C 0.55074 0.93398 0.51526 0.0
C3489 C 0.48033 0.29607 0.69388 0.0
C3490 C 0.50241 0.31199 0.7027 0.0
C3491 C 0.46221 0.29336 0.70941 0.0
C3492 C 0.46548 0.30624 0.73452 0.0
H3493 H 0.47707 0.28534 0.67486 0.0
H3494 H 0.44583 0.28032 0.70199 0.0
S3495 S 0.51945 0.35087 0.76676 0.0
N3496 N 0.52602 0.34131 0.73829 0.0
N3497 N 0.49217 0.33634 0.76714 0.0
C3498 C 0.4872 0.32274 0.74335 0.0
C3499 C 0.50556 0.3256 0.72757 0.0
C3500 C 0.05108 0.85732 0.55499 0.0
C3501 C 0.03378 0.86096 0.57084 0.0
C3502 C 0.05594 0.87162 0.53651 0.0
C3503 C 0.04375 0.89021 0.53326 0.0
H3504 H 0.06109 0.8434 0.557 0.0
H3505 H 0.06984 0.86868 0.52524 0.0
S3506 S 0.99597 0.90629 0.56888 0.0
N3507 N 1.00398 0.88409 0.58148 0.0
N3508 N 0.01273 0.9105 0.5464 0.0
C3509 C 0.02592 0.8935 0.54843 0.0
C3510 C 0.021 0.87898 0.56726 0.0
C3511 C 0.49422 0.83542 0.8273 0.0
C3512 C 0.50858 0.82382 0.81181 0.0
C3513 C 0.474 0.84056 0.81734 0.0
C3514 C 0.46758 0.83453 0.79151 0.0
H3515 H 0.49898 0.84113 0.84724 0.0
H3516 H 0.4638 0.85022 0.82986 0.0
S3517 S 0.49843 0.80236 0.7432 0.0
N3518 N 0.51446 0.80518 0.76964 0.0
N3519 N 0.47631 0.81493 0.75076 0.0
C3520 C 0.48134 0.8221 0.77589 0.0
C3521 C 0.50186 0.81664 0.78609 0.0
C3522 C 0.52756 0.14386 0.06561 0.0
C3523 C 0.53689 0.15559 0.0901 0.0
C3524 C 0.535 0.12304 0.05271 0.0
C3525 C 0.5522 0.11321 0.06368 0.0
H3526 H 0.51462 0.15101 0.05621 0.0
H3527 H 0.5269 0.1145 0.03406 0.0
S3528 S 0.58063 0.13617 0.12856 0.0
N3529 N 0.56282 0.15491 0.12572 0.0
N3530 N 0.57754 0.11654 0.10128 0.0
C3531 C 0.56139 0.12467 0.08843 0.0
C3532 C 0.55356 0.14563 0.10166 0.0
C3533 C 0.24383 0.33594 0.30626 0.0
C3534 C 0.23677 0.32626 0.32723 0.0
C3535 C 0.26586 0.33544 0.29859 0.0
C3536 C 0.28104 0.32448 0.31113 0.0
H3537 H 0.23215 0.34349 0.2955 0.0
H3538 H 0.27106 0.34373 0.28285 0.0
S3539 S 0.27437 0.30738 0.37285 0.0
N3540 N 0.24908 0.31253 0.36424 0.0
N3541 N 0.29041 0.31193 0.34984 0.0
C3542 C 0.27526 0.31794 0.33382 0.0
C3543 C 0.25299 0.31843 0.34168 0.0
C3544 C 0.03343 0.07994 0.14222 0.0
C3545 C 0.01229 0.0635 0.1458 0.0
C3546 C 0.0441 0.07757 0.11917 0.0
C3547 C 0.03481 0.05849 0.09744 0.0
H3548 H 0.04224 0.09496 0.1576 0.0
H3549 H 0.05994 0.09121 0.11848 0.0
S3550 S 0.97883 1.01126 0.09446 0.0
N3551 N 0.98193 0.02796 0.12325 0.0
N3552 N 1.00183 0.02335 0.0815 0.0
C3553 C 0.01354 0.04214 0.10052 0.0
C3554 C 1.00254 0.04462 0.12393 0.0
C3555 C 0.29134 0.73975 0.42347 0.0
C3556 C 0.29353 0.71441 0.41895 0.0
C3557 C 0.28384 0.75034 0.40416 0.0
C3558 C 0.27802 0.73575 0.37986 0.0
H3559 H 0.29436 0.75104 0.44229 0.0
H3560 H 0.28124 0.76951 0.40856 0.0
S3561 S 0.28367 0.66967 0.35779 0.0
N3562 N 0.29157 0.67582 0.38808 0.0
N3563 N 0.27723 0.6958 0.35164 0.0
C3564 C 0.28159 0.71097 0.37476 0.0
C3565 C 0.28948 0.70027 0.39439 0.0
C3566 C 0.62499 0.0166 0.60706 0.0
C3567 C 0.62745 0.03408 0.62981 0.0
C3568 C 0.60972 0.01763 0.58715 0.0
C3569 C 0.59636 0.03589 0.58966 0.0
H3570 H 0.63564 1.00283 0.60429 0.0
H3571 H 0.60893 1.00466 0.56946 0.0
S3572 S 0.59518 0.08464 0.64567 0.0
N3573 N 0.61416 0.06907 0.65417 0.0
N3574 N 0.58575 0.07117 0.61632 0.0
C3575 C 0.59795 0.0528 0.61245 0.0
C3576 C 0.61346 0.05183 0.63271 0.0
C3577 C 0.32164 0.3087 0.8836 0.0
C3578 C 0.3252 0.33364 0.89807 0.0
C3579 C 0.31999 0.30403 0.85714 0.0
C3580 C 0.32227 0.3242 0.84425 0.0
H3581 H 0.31922 0.29266 0.89274 0.0
H3582 H 0.31614 0.28457 0.84675 0.0
S3583 S 0.3349 0.39295 0.87335 0.0
N3584 N 0.3331 0.37861 0.89723 0.0
N3585 N 0.33016 0.37 0.84822 0.0
C3586 C 0.3269 0.34912 0.85865 0.0
C3587 C 0.32843 0.35381 0.88529 0.0
C3588 C 0.03907 0.06635 0.42358 0.0
C3589 C 0.01507 0.06569 0.41772 0.0
C3590 C 0.04878 0.06354 0.44757 0.0
C3591 C 0.03518 0.05945 0.46761 0.0
H3592 H 0.05081 0.06979 0.40964 0.0
H3593 H 0.06724 0.06524 0.45054 0.0
S3594 S 0.97125 0.05264 0.46237 0.0
N3595 N 0.97814 0.05802 0.43489 0.0
N3596 N 0.99576 0.05319 0.47837 0.0
C3597 C 0.01123 0.05787 0.46162 0.0
C3598 C 1.00144 0.06077 0.43747 0.0
C3599 C 0.32991 0.74886 0.66648 0.0
C3600 C 0.30868 0.73803 0.65189 0.0
C3601 C 0.33078 0.76315 0.6905 0.0
C3602 C 0.31053 0.76738 0.70067 0.0
H3603 H 0.34591 0.74546 0.65966 0.0
H3604 H 0.34733 0.76985 0.70156 0.0
S3605 S 0.2507 0.74426 0.66986 0.0
N3606 N 0.2669 0.73328 0.64896 0.0
N3607 N 0.26872 0.76015 0.69453 0.0
C3608 C 0.2892 0.75696 0.68631 0.0
C3609 C 0.28824 0.74236 0.66175 0.0
C3610 C 0.62441 0.06516 0.85894 0.0
C3611 C 0.62161 0.04678 0.83677 0.0
C3612 C 0.60686 0.06502 0.87478 0.0
C3613 C 0.58582 0.04665 0.86888 0.0
H3614 H 0.64045 0.07949 0.86428 0.0
H3615 H 0.60983 0.07928 0.8919 0.0
S3616 S 0.5696 0.99505 0.81254 0.0
N3617 N 0.59601 1.01028 0.80922 0.0
N3618 N 0.56298 1.00989 0.83924 0.0
C3619 C 0.5826 0.02847 0.84654 0.0
C3620 C 0.60055 0.02852 0.83046 0.0
C3621 C 0.32349 0.31294 0.16421 0.0
C3622 C 0.32751 0.33863 0.16211 0.0
C3623 C 0.3226 0.30585 0.18769 0.0
C3624 C 0.32646 0.32411 0.21031 0.0
H3625 H 0.32062 0.29815 0.14751 0.0
H3626 H 0.31897 0.2858 0.18809 0.0
S3627 S 0.33747 0.39398 0.21493 0.0
N3628 N 0.33477 0.38233 0.18466 0.0
N3629 N 0.33414 0.36926 0.22851 0.0
C3630 C 0.33067 0.34988 0.20834 0.0
C3631 C 0.33093 0.35703 0.18441 0.0
C3632 C 0.22232 1.01279 0.04053 0.0
C3633 C 0.2455 0.02576 0.04105 0.0
C3634 C 0.20547 0.02596 0.04847 0.0
C3635 C 0.21132 0.05247 0.05726 0.0
H3636 H 0.21732 0.99226 0.0348 0.0
H3637 H 0.18789 0.01526 0.04839 0.0
S3638 S 0.26897 0.09549 0.05926 0.0
N3639 N 0.27302 0.06673 0.04885 0.0
N3640 N 0.24135 0.09146 0.06386 0.0
C3641 C 0.23424 0.06574 0.05692 0.0
C3642 C 0.25133 0.05238 0.04877 0.0
C3643 C 0.67661 0.59038 1.00843 0.0
C3644 C 0.68097 0.61702 0.01092 0.0
C3645 C 0.65438 0.5758 0.01026 0.0
C3646 C 0.6355 0.58717 0.01454 0.0
H3647 H 0.69063 0.58076 1.00564 0.0
H3648 H 0.65219 0.55559 0.00899 0.0
S3649 S 0.63708 0.65589 0.01945 0.0
N3650 N 0.66403 0.65384 0.01598 0.0
N3651 N 0.62254 0.62667 0.01918 0.0
C3652 C 0.63955 0.61371 0.0163 0.0
C3653 C 0.66214 0.62853 0.01454 0.0
C3654 C 0.76614 0.39073 0.29586 0.0
C3655 C 0.76239 0.39941 0.27337 0.0
C3656 C 0.77725 0.37017 0.29775 0.0
C3657 C 0.7861 0.35596 0.27752 0.0
H3658 H 0.76048 0.40004 0.31275 0.0
H3659 H 0.77884 0.36518 0.31583 0.0
S3660 S 0.78095 0.36864 0.21338 0.0
N3661 N 0.76896 0.39015 0.22949 0.0
N3662 N 0.78922 0.3524 0.23329 0.0
C3663 C 0.78258 0.36412 0.25475 0.0
C3664 C 0.7712 0.38531 0.25272 0.0
C3665 C 0.97752 0.52458 0.53559 0.0
C3666 C 0.96466 0.49937 0.53159 0.0
C3667 C 1.00167 0.52999 0.53704 0.0
C3668 C 0.01362 0.51037 0.53382 0.0
H3669 H 0.96889 0.54019 0.53817 0.0
H3670 H 0.01094 0.54964 0.54113 0.0
S3671 S 0.98778 0.44124 0.52237 0.0
N3672 N 0.9654 0.45456 0.52421 0.0
N3673 N 0.01098 0.46491 0.52678 0.0
C3674 C 1.00096 0.48513 0.53003 0.0
C3675 C 0.97639 0.47957 0.52871 0.0
C3676 C 0.37539 0.1649 0.24883 0.0
C3677 C 0.3637 0.14771 0.26252 0.0
C3678 C 0.36334 0.17786 0.23494 0.0
C3679 C 0.33921 0.17421 0.23439 0.0
H3680 H 0.39397 0.16807 0.24856 0.0
H3681 H 0.37293 0.19081 0.22456 0.0
S3682 S 0.30041 0.13164 0.26691 0.0
N3683 N 0.32652 0.12786 0.27451 0.0
N3684 N 0.30401 0.15271 0.24883 0.0
C3685 C 0.32736 0.15768 0.24845 0.0
C3686 C 0.33958 0.14433 0.26244 0.0
C3687 C 0.38921 0.09782 0.53525 0.0
C3688 C 0.39639 0.12178 0.52907 0.0
C3689 C 0.4052 0.08371 0.54074 0.0
C3690 C 0.42922 0.093 0.54063 0.0
H3691 H 0.37101 0.09001 0.53616 0.0
H3692 H 0.39866 0.06546 0.54556 0.0
S3693 S 0.45706 0.15475 0.52538 0.0
N3694 N 0.42911 0.15401 0.52251 0.0
N3695 N 0.45927 0.1278 0.53336 0.0
C3696 C 0.43662 0.11668 0.53377 0.0
C3697 C 0.42022 0.13098 0.52792 0.0
C3698 C 0.78647 0.67813 0.291 0.0
C3699 C 0.76363 0.66643 0.27967 0.0
C3700 C 0.79745 0.70405 0.29101 0.0
C3701 C 0.78639 0.72033 0.27989 0.0
H3702 H 0.79622 0.66701 0.29973 0.0
H3703 H 0.81486 0.7114 0.30009 0.0
S3704 S 0.72559 0.70053 0.24983 0.0
N3705 N 0.72994 0.67461 0.25845 0.0
N3706 N 0.75003 0.72221 0.2585 0.0
C3707 C 0.7633 0.70901 0.26912 0.0
C3708 C 0.75221 0.68263 0.26897 0.0
C3709 C 0.84452 0.40608 0.7676 0.0
C3710 C 0.86257 0.41501 0.78711 0.0
C3711 C 0.83416 0.38014 0.76017 0.0
C3712 C 0.84101 0.36237 0.77246 0.0
H3713 H 0.83819 0.41924 0.75812 0.0
H3714 H 0.82037 0.37396 0.74502 0.0
S3715 S 0.88945 0.3752 0.82214 0.0
N3716 N 0.88846 0.4035 0.81672 0.0
N3717 N 0.86841 0.35478 0.80309 0.0
C3718 C 0.85949 0.37079 0.79137 0.0
C3719 C 0.87029 0.39715 0.79875 0.0
C3720 C 0.09271 0.95358 0.04347 0.0
C3721 C 0.08937 0.94738 0.06724 0.0
C3722 C 0.08916 0.97692 0.03749 0.0
C3723 C 0.08233 0.99566 0.05509 0.0
H3724 H 0.09795 0.94013 0.02916 0.0
H3725 H 0.09216 0.98045 0.01909 0.0
S3726 S 0.0723 0.99024 0.12025 0.0
N3727 N 0.07926 0.96327 0.10846 0.0
N3728 N 0.07321 1.00627 0.09763 0.0
C3729 C 0.0794 0.98986 0.0789 0.0
C3730 C 0.0826 0.96612 0.08481 0.0
C3731 C 0.91867 0.29596 0.82988 0.0
C3732 C 0.91582 0.28439 0.85076 0.0
C3733 C 0.89953 0.29942 0.81527 0.0
C3734 C 0.8766 0.29234 0.82132 0.0
H3735 H 0.93589 0.30217 0.82458 0.0
H3736 H 0.90277 0.30811 0.7993 0.0
S3737 S 0.85944 0.26128 0.87408 0.0
N3738 N 0.8879 0.2655 0.87629 0.0
N3739 N 0.85241 0.27287 0.8498 0.0
C3740 C 0.87357 0.28098 0.84229 0.0
C3741 C 0.89296 0.27679 0.85669 0.0
C3742 C 0.58856 0.15639 0.5793 0.0
C3743 C 0.58718 0.16989 0.55997 0.0
C3744 C 0.58355 0.1295 0.57476 0.0
C3745 C 0.57723 0.11426 0.55059 0.0
H3746 H 0.59282 0.16666 0.59843 0.0
H3747 H 0.58423 0.12045 0.59061 0.0
S3748 S 0.57168 0.13933 0.49286 0.0
N3749 N 0.57962 0.16524 0.5151 0.0
N3750 N 0.56989 0.115 0.50685 0.0
C3751 C 0.57613 0.12731 0.53091 0.0
C3752 C 0.58116 0.15488 0.53552 0.0
C3753 C 0.64889 0.80874 0.35608 0.0
C3754 C 0.63448 0.78417 0.35351 0.0
C3755 C 0.66788 0.81342 0.34208 0.0
C3756 C 0.67368 0.79373 0.3251 0.0
H3757 H 0.64529 0.82471 0.36879 0.0
H3758 H 0.67778 0.8328 0.34405 0.0
S3759 S 0.64213 0.72602 0.31098 0.0
N3760 N 0.62774 0.73983 0.33218 0.0
N3761 N 0.66372 0.74872 0.30654 0.0
C3762 C 0.66002 0.76899 0.32281 0.0
C3763 C 0.64045 0.76419 0.33686 0.0
C3764 C 0.09195 0.23806 0.48903 0.0
C3765 C 0.08887 0.22714 0.46342 0.0
C3766 C 0.08392 0.22366 0.50655 0.0
C3767 C 0.07285 0.19777 0.49908 0.0
H3768 H 0.10036 0.25798 0.49551 0.0
H3769 H 0.08664 0.23274 0.52612 0.0
S3770 S 0.06081 0.16018 0.4343 0.0
N3771 N 0.07406 0.189 0.43142 0.0
N3772 N 0.05921 0.16175 0.46447 0.0
C3773 C 0.06981 0.18657 0.47356 0.0
C3774 C 0.07772 0.20133 0.45568 0.0
C3775 C 0.63313 0.26931 0.2662 0.0
C3776 C 0.62837 0.26835 0.24062 0.0
C3777 C 0.653 0.26258 0.27525 0.0
C3778 C 0.66877 0.25493 0.25901 0.0
H3779 H 0.62108 0.27455 0.27914 0.0
H3780 H 0.65606 0.26336 0.29505 0.0
S3781 S 0.66439 0.25009 0.19052 0.0
N3782 N 0.64134 0.26012 0.19936 0.0
N3783 N 0.67832 0.24694 0.21621 0.0
C3784 C 0.66434 0.25435 0.23346 0.0
C3785 C 0.64424 0.26122 0.22432 0.0
C3786 C 0.60767 0.96661 0.96036 0.0
C3787 C 0.60405 0.94264 0.9669 0.0
C3788 C 0.59836 0.98591 0.97327 0.0
C3789 C 0.5854 0.98194 0.99325 0.0
H3790 H 0.61786 0.9705 0.94524 0.0
H3791 H 0.60174 1.00425 0.96793 0.0
S3792 S 0.56877 0.92214 0.0161 0.0
N3793 N 0.58501 0.91553 0.99351 0.0
N3794 N 0.56783 0.95222 0.01795 0.0
C3795 C 0.58121 0.9581 0.99974 0.0
C3796 C 0.59053 0.93833 0.98653 0.0
C3797 C 0.89007 0.77984 0.72176 0.0
C3798 C 0.90837 0.77189 0.7329 0.0
C3799 C 0.86987 0.78075 0.73335 0.0
C3800 C 0.86718 0.77374 0.75651 0.0
H3801 H 0.89135 0.78544 0.70392 0.0
H3802 H 0.85631 0.78709 0.7241 0.0
S3803 S 0.90967 0.75168 0.79367 0.0
N3804 N 0.92243 0.75705 0.76867 0.0
N3805 N 0.88398 0.75817 0.79002 0.0
C3806 C 0.8849 0.76507 0.76757 0.0
C3807 C 0.90566 0.76437 0.75592 0.0
C3808 C 0.12447 0.05753 0.92532 0.0
C3809 C 0.12231 0.03384 0.9083 0.0
C3810 C 0.11377 0.06009 0.94836 0.0
C3811 C 0.09952 0.03929 0.95632 0.0
H3812 H 0.13496 0.07457 0.92105 0.0
H3813 H 0.11659 0.07891 0.96 0.0
S3814 S 0.08739 0.97269 0.91967 0.0
N3815 N 0.10386 0.9889 0.90226 0.0
N3816 N 0.08451 0.99366 0.94438 0.0
C3817 C 0.09712 0.01555 0.93951 0.0
C3818 C 0.10818 1.01288 0.91619 0.0
C3819 C 0.85967 0.40397 0.66078 0.0
C3820 C 0.84806 0.38888 0.63817 0.0
C3821 C 0.86851 0.39294 0.67908 0.0
C3822 C 0.86633 0.36647 0.67522 0.0
H3823 H 0.86254 0.4245 0.66399 0.0
H3824 H 0.87763 0.40528 0.69611 0.0
S3825 S 0.83722 0.31883 0.61893 0.0
N3826 N 0.83425 0.34636 0.61298 0.0
N3827 N 0.8514 0.32548 0.64701 0.0
C3828 C 0.85409 0.35114 0.6529 0.0
C3829 C 0.84484 0.3624 0.63444 0.0
C3830 C 0.52647 0.07198 0.42489 0.0
C3831 C 0.50235 0.06237 0.42173 0.0
C3832 C 0.54009 0.06834 0.44516 0.0
C3833 C 0.53002 0.0546 0.46258 0.0
H3834 H 0.53489 0.08159 0.41123 0.0
H3835 H 0.5586 0.07591 0.44687 0.0
S3836 S 0.46689 0.02831 0.46352 0.0
N3837 N 0.46866 0.04142 0.4389 0.0
N3838 N 0.49384 0.03288 0.4756 0.0
C3839 C 0.50569 0.04578 0.4598 0.0
C3840 C 0.49198 0.05014 0.43976 0.0
C3841 C 0.81609 0.78818 0.16932 0.0
C3842 C 0.80958 0.76321 0.1547 0.0
C3843 C 0.81785 0.7928 0.19578 0.0
C3844 C 0.81357 0.77255 0.20856 0.0
H3845 H 0.82005 0.80422 0.16024 0.0
H3846 H 0.82341 0.81219 0.20625 0.0
S3847 S 0.79589 0.70386 0.17914 0.0
N3848 N 0.79837 0.71827 0.1553 0.0
N3849 N 0.80248 0.72673 0.20438 0.0
C3850 C 0.80702 0.74765 0.19405 0.0
C3851 C 0.80473 0.74304 0.16737 0.0
C3852 C 0.13514 0.03978 0.61995 0.0
C3853 C 0.12132 0.03404 0.63932 0.0
C3854 C 0.12586 0.04251 0.59614 0.0
C3855 C 0.10193 0.0404 0.58941 0.0
H3856 H 0.15362 0.04161 0.62287 0.0
H3857 H 0.1379 0.04626 0.58251 0.0
S3858 S 0.05712 0.02658 0.63256 0.0
N3859 N 0.08134 0.02707 0.64923 0.0
N3860 N 0.06445 0.03216 0.60523 0.0
C3861 C 0.08771 0.03496 0.60851 0.0
C3862 C 0.09716 0.03188 0.63292 0.0
C3863 C 0.81933 0.33264 0.39359 0.0
C3864 C 0.82932 0.35879 0.40087 0.0
C3865 C 0.82001 0.31949 0.36923 0.0
C3866 C 0.83015 0.33216 0.35113 0.0
H3867 H 0.8111 0.32227 0.40685 0.0
H3868 H 0.81234 0.2993 0.36458 0.0
S3869 S 0.85974 0.4007 0.36169 0.0
N3870 N 0.85032 0.39685 0.38867 0.0
N3871 N 0.85185 0.37237 0.34314 0.0
C3872 C 0.84086 0.35826 0.35861 0.0
C3873 C 0.84025 0.37154 0.38336 0.0
C3874 C 0.5117 0.01688 0.19194 0.0
C3875 C 0.51487 0.03421 0.21485 0.0
C3876 C 0.52995 0.01596 0.17714 0.0
C3877 C 0.55195 0.03219 0.18487 0.0
H3878 H 0.49478 1.00482 0.1849 0.0
H3879 H 0.52661 1.00321 0.15904 0.0
S3880 S 0.56967 0.07884 0.2446 0.0
N3881 N 0.54203 0.0662 0.24571 0.0
N3882 N 0.57632 0.06471 0.2176 0.0
C3883 C 0.55568 0.04849 0.20838 0.0
C3884 C 0.53709 0.0495 0.22343 0.0
C3885 C 0.7986 0.75685 0.87718 0.0
C3886 C 0.81821 0.75262 0.89001 0.0
C3887 C 0.79944 0.76392 0.85374 0.0
C3888 C 0.81995 0.76772 0.84196 0.0
H3889 H 0.78228 0.75446 0.88521 0.0
H3890 H 0.78383 0.76694 0.84507 0.0
S3891 S 0.87598 0.75761 0.86625 0.0
N3892 N 0.85884 0.75189 0.88811 0.0
N3893 N 0.86006 0.76489 0.84424 0.0
C3894 C 0.83955 0.763 0.85416 0.0
C3895 C 0.83876 0.75555 0.87801 0.0
C3896 C 0.88478 0.04574 0.99272 0.0
C3897 C 0.8906 0.07251 0.99749 0.0
C3898 C 0.90129 0.03167 0.98601 0.0
C3899 C 0.92419 0.04389 0.98395 0.0
H3900 H 0.86745 0.03559 0.99466 0.0
H3901 H 0.89626 1.01111 0.98305 0.0
S3902 S 0.94778 0.11334 0.99212 0.0
N3903 N 0.92051 0.11057 0.99786 0.0
N3904 N 0.9516 0.08404 0.98567 0.0
C3905 C 0.93014 0.07057 0.9881 0.0
C3906 C 0.91333 0.0849 0.99479 0.0
C3907 C 0.46979 0.4734 0.01917 0.0
C3908 C 0.45899 0.47742 0.04127 0.0
C3909 C 0.49185 0.4878 0.01698 0.0
C3910 C 0.50434 0.50699 0.03677 0.0
H3911 H 0.46118 0.45881 1.00331 0.0
H3912 H 0.49903 0.4838 0.99942 0.0
S3913 S 0.48468 0.52439 0.09932 0.0
N3914 N 0.46289 0.50194 0.08368 0.0
N3915 N 0.50469 0.52818 0.0799 0.0
C3916 C 0.49407 0.51085 0.05925 0.0
C3917 C 0.47141 0.49628 0.06143 0.0
C3918 C 0.37219 0.70832 0.75481 0.0
C3919 C 0.37537 0.69905 0.7771 0.0
C3920 C 0.36146 0.72927 0.75308 0.0
C3921 C 0.35225 0.74321 0.77323 0.0
H3922 H 0.37864 0.69967 0.73813 0.0
H3923 H 0.36055 0.73484 0.73522 0.0
S3924 S 0.35485 0.72821 0.8366 0.0
N3925 N 0.367 0.70688 0.82047 0.0
N3926 N 0.34784 0.74552 0.8171 0.0
C3927 C 0.35509 0.73437 0.79576 0.0
C3928 C 0.36615 0.71286 0.79764 0.0
C3929 C 0.16196 0.56505 0.52239 0.0
C3930 C 0.17474 0.59039 0.52806 0.0
C3931 C 0.13777 0.55936 0.51987 0.0
C3932 C 0.12562 0.57881 0.52317 0.0
H3933 H 0.17072 0.54954 0.51994 0.0
H3934 H 0.12867 0.53963 0.51491 0.0
S3935 S 0.15089 0.64812 0.53643 0.0
N3936 N 0.17348 0.63511 0.53554 0.0
N3937 N 0.12786 0.62419 0.53091 0.0
C3938 C 0.13812 0.60416 0.52805 0.0
C3939 C 0.16275 0.61002 0.53072 0.0
C3940 C 0.77334 0.92746 0.77013 0.0
C3941 C 0.78022 0.95291 0.76761 0.0
C3942 C 0.78682 0.91743 0.78566 0.0
C3943 C 0.80731 0.93273 0.79939 0.0
H3944 H 0.75698 0.91562 0.76088 0.0
H3945 H 0.78057 0.89806 0.78797 0.0
S3946 S 0.83399 0.99955 0.79746 0.0
N3947 N 0.80977 0.99249 0.77869 0.0
N3948 N 0.835 0.97348 0.80784 0.0
C3949 C 0.81504 0.95763 0.79592 0.0
C3950 C 0.80151 0.96776 0.77998 0.0
C3951 C 0.71666 0.9652 0.51337 0.0
C3952 C 0.73704 0.97507 0.52996 0.0
C3953 C 0.7008 0.98024 0.50954 0.0
C3954 C 0.70483 1.0059 0.52184 0.0
H3955 H 0.71302 0.94572 0.50307 0.0
H3956 H 0.68573 0.97199 0.49616 0.0
S3957 S 0.75501 0.04089 0.56767 0.0
N3958 N 0.75984 1.01219 0.55922 0.0
N3959 N 0.73026 0.04021 0.55198 0.0
C3960 C 0.72482 0.01581 0.53886 0.0
C3961 C 0.74081 1.00049 0.54295 0.0
C3962 C 0.35045 0.41715 0.75907 0.0
C3963 C 0.37221 0.42993 0.77253 0.0
C3964 C 0.3397 0.39124 0.75931 0.0
C3965 C 0.35007 0.37604 0.77271 0.0
H3966 H 0.34133 0.42742 0.74845 0.0
H3967 H 0.32306 0.38299 0.74861 0.0
S3968 S 0.40809 0.39913 0.80935 0.0
N3969 N 0.40415 0.42417 0.79867 0.0
N3970 N 0.38469 0.37641 0.79874 0.0
C3971 C 0.37216 0.38846 0.78565 0.0
C3972 C 0.38291 0.4149 0.78569 0.0
C3973 C 0.30629 0.69333 0.27454 0.0
C3974 C 0.28293 0.68096 0.26716 0.0
C3975 C 0.31295 0.71993 0.28214 0.0
C3976 C 0.29654 0.73479 0.2818 0.0
H3977 H 0.31948 0.68247 0.27407 0.0
H3978 H 0.33105 0.72891 0.2877 0.0
S3979 S 0.23295 0.71141 0.27031 0.0
N3980 N 0.2431 0.68547 0.26455 0.0
N3981 N 0.25587 0.73535 0.27828 0.0
C3982 C 0.2731 0.72261 0.27645 0.0
C3983 C 0.26625 0.69569 0.26898 0.0
C3984 C 0.54505 0.64267 0.51031 0.0
C3985 C 0.54737 0.64826 0.48615 0.0
C3986 C 0.54848 0.6193 0.51634 0.0
C3987 C 0.55415 0.59998 0.49844 0.0
H3988 H 0.54059 0.65656 0.52482 0.0
H3989 H 0.5461 0.61615 0.53498 0.0
S3990 S 0.56166 0.60394 0.43241 0.0
N3991 N 0.55553 0.63131 0.44437 0.0
N3992 N 0.5615 0.58841 0.45536 0.0
C3993 C 0.55631 0.60534 0.47435 0.0
C3994 C 0.55318 0.62903 0.46835 0.0
C3995 C 0.74282 0.31823 0.69443 0.0
C3996 C 0.71986 0.31047 0.70022 0.0
C3997 C 0.76207 0.31454 0.70872 0.0
C3998 C 0.75947 0.30351 0.72997 0.0
H3999 H 0.74593 0.32692 0.67844 0.0
H4000 H 0.77922 0.32086 0.7033 0.0
S4001 S 0.70323 0.28017 0.75356 0.0
N4002 N 0.69594 0.29105 0.72891 0.0
N4003 N 0.7317 0.28491 0.75583 0.0
C4004 C 0.73664 0.29595 0.73606 0.0
C4005 C 0.71705 0.29917 0.72124 0.0
C4006 C 0.05542 0.43932 0.97135 0.0
C4007 C 0.05297 0.4254 0.99056 0.0
C4008 C 0.05983 0.4662 0.97623 0.0
C4009 C 0.06209 0.48102 1.00061 0.0
H4010 H 0.0541 0.42931 0.95216 0.0
H4011 H 0.06193 0.47559 0.96057 0.0
S4012 S 0.0582 0.45458 0.05808 0.0
N4013 N 0.05334 0.42905 0.03539 0.0
N4014 N 0.06231 0.47929 0.04445 0.0
C4015 C 0.05958 0.46747 0.02011 0.0
C4016 C 0.05478 0.43989 0.01511 0.0
C4017 C 0.98229 0.79785 0.1929 0.0
C4018 C 1.00416 0.81381 0.20267 0.0
C4019 C 0.96371 0.79425 0.20778 0.0
C4020 C 0.96617 0.80647 0.23307 0.0
H4021 H 0.97975 0.7873 0.17382 0.0
H4022 H 0.94763 0.78096 0.19973 0.0
S4023 S 0.01846 0.85302 0.26683 0.0
N4024 N 0.02605 0.84404 0.2387 0.0
N4025 N 0.99151 0.83706 0.26647 0.0
C4026 C 0.98752 0.8234 0.24267 0.0
C4027 C 1.00636 0.8271 0.22759 0.0
C4028 C 0.54716 0.36488 0.07458 0.0
C4029 C 0.54306 0.37621 0.09858 0.0
C4030 C 0.55748 0.37966 0.05828 0.0
C4031 C 0.56385 0.40634 0.06524 0.0
H4032 H 0.54288 0.34436 0.06856 0.0
H4033 H 0.56051 0.37012 0.04005 0.0
S4034 S 0.55647 0.4454 0.12574 0.0
N4035 N 0.54591 0.41577 0.12839 0.0
N4036 N 0.56519 0.44358 0.09758 0.0
C4037 C 0.55954 0.41798 0.089 0.0
C4038 C 0.54924 0.4029 0.10574 0.0
C4039 C 1.00502 0.32662 0.28606 0.0
C4040 C 0.01192 0.33145 0.31172 0.0
C4041 C 0.98467 0.33258 0.27727 0.0
C4042 C 0.9706 0.34323 0.29394 0.0
H4043 H 0.01578 0.31899 0.27278 0.0
H4044 H 0.98 0.32907 0.25735 0.0
S4045 S 0.98121 0.35885 0.3629 0.0
N4046 N 1.00324 0.34695 0.35365 0.0
N4047 N 0.9649 0.35799 0.33722 0.0
C4048 C 0.97713 0.3475 0.31965 0.0
C4049 C 0.99786 0.34165 0.32853 0.0
C4050 C 0.02003 0.63207 0.56992 0.0
C4051 C 0.03576 0.65242 0.58571 0.0
C4052 C 0.02739 0.61096 0.55756 0.0
C4053 C 0.05067 0.60944 0.56078 0.0
H4054 H 1.00184 0.63214 0.56764 0.0
H4055 H 0.01461 0.5955 0.54588 0.0
S4056 S 0.09921 0.65974 0.59676 0.0
N4057 N 0.07605 0.67128 0.60146 0.0
N4058 N 0.08976 0.63136 0.57853 0.0
C4059 C 0.06671 0.63019 0.57559 0.0
C4060 C 0.05928 0.65176 0.58798 0.0
C4061 C 0.73533 0.83635 0.79998 0.0
C4062 C 0.73268 0.82996 0.82347 0.0
C4063 C 0.75553 0.83479 0.78834 0.0
C4064 C 0.77323 0.82601 0.7995 0.0
H4065 H 0.72139 0.84157 0.79011 0.0
H4066 H 0.75685 0.83934 0.77005 0.0
S4067 S 0.77827 0.81698 0.8646 0.0
N4068 N 0.752 0.82161 0.8601 0.0
N4069 N 0.78952 0.81782 0.83791 0.0
C4070 C 0.7718 0.82228 0.824 0.0
C4071 C 0.75154 0.82435 0.83601 0.0
C4072 C 0.53243 0.57907 0.63922 0.0
C4073 C 0.51203 0.5619 0.64353 0.0
C4074 C 0.54309 0.57628 0.61616 0.0
C4075 C 0.53446 0.55604 0.59515 0.0
H4076 H 0.54065 0.595 0.65404 0.0
H4077 H 0.55841 0.59047 0.61487 0.0
S4078 S 0.48047 0.50642 0.59426 0.0
N4079 N 0.48305 0.5243 0.62246 0.0
N4080 N 0.50286 0.519 0.5807 0.0
C4081 C 0.51389 0.53898 0.59897 0.0
C4082 C 0.50295 0.54184 0.62239 0.0
C4083 C 0.77506 0.23297 0.91631 0.0
C4084 C 0.78327 0.21063 0.91437 0.0
C4085 C 0.7672 0.24052 0.89508 0.0
C4086 C 0.76716 0.22595 0.87112 0.0
H4087 H 0.77452 0.24461 0.93443 0.0
H4088 H 0.76072 0.25769 0.89747 0.0
S4089 S 0.78762 0.16634 0.85585 0.0
N4090 N 0.79124 0.17417 0.8866 0.0
N4091 N 0.77686 0.18873 0.84652 0.0
C4092 C 0.77571 0.20382 0.86883 0.0
C4093 C 0.78376 0.19612 0.8905 0.0
C4094 C 0.10761 0.54607 0.13747 0.0
C4095 C 0.12468 0.53181 0.1347 0.0
C4096 C 0.09353 0.54771 0.11678 0.0
C4097 C 0.0962 0.5351 0.09288 0.0
H4098 H 0.10583 0.55691 0.1556 0.0
H4099 H 0.08156 0.56008 0.1193 0.0
S4100 S 0.1365 0.49351 0.07575 0.0
N4101 N 0.14218 0.50349 0.10623 0.0
N4102 N 0.11542 0.50644 0.06747 0.0
C4103 C 0.11206 0.51957 0.09 0.0
C4104 C 0.12638 0.51787 0.11094 0.0
C4105 C 0.82252 0.80929 0.38342 0.0
C4106 C 0.82595 0.83437 0.39755 0.0
C4107 C 0.82114 0.80421 0.35693 0.0
C4108 C 0.82358 0.82412 0.34368 0.0
H4109 H 0.81992 0.79343 0.39282 0.0
H4110 H 0.81726 0.78466 0.34681 0.0
S4111 S 0.83594 0.8931 0.3719 0.0
N4112 N 0.83389 0.87916 0.39605 0.0
N4113 N 0.8315 0.86985 0.34705 0.0
C4114 C 0.82816 0.84918 0.35778 0.0
C4115 C 0.82939 0.85426 0.38443 0.0
C4116 C 0.53956 0.56757 0.9211 0.0
C4117 C 0.51518 0.56266 0.9138 0.0
C4118 C 0.54933 0.56417 0.9448 0.0
C4119 C 0.53548 0.55579 0.9633 0.0
H4120 H 0.55143 0.57415 0.90827 0.0
H4121 H 0.56796 0.56882 0.94884 0.0
S4122 S 0.47098 0.54109 0.95544 0.0
N4123 N 0.47794 0.54932 0.929 0.0
N4124 N 0.49568 0.54328 0.97193 0.0
C4125 C 0.51127 0.55102 0.95624 0.0
C4126 C 0.5014 0.5542 0.93227 0.0
C4127 C 0.82584 0.26397 0.15991 0.0
C4128 C 0.80991 0.24057 0.15129 0.0
C4129 C 0.8255 0.27849 0.18366 0.0
C4130 C 0.80965 0.2699 0.19997 0.0
H4131 H 0.83924 0.2707 0.14863 0.0
H4132 H 0.83831 0.29613 0.18946 0.0
S4133 S 0.76086 0.21283 0.18389 0.0
N4134 N 0.77509 0.21178 0.15895 0.0
N4135 N 0.77508 0.23852 0.20402 0.0
C4136 C 0.79245 0.24752 0.19076 0.0
C4137 C 0.79251 0.23295 0.16638 0.0
C4138 C 0.12732 0.5719 0.36365 0.0
C4139 C 0.12459 0.55559 0.34017 0.0
C4140 C 0.1091 0.5712 0.37862 0.0
C4141 C 0.08749 0.55423 0.3706 0.0
H4142 H 0.14387 0.58475 0.37082 0.0
H4143 H 0.11209 0.58361 0.39689 0.0
S4144 S 0.07095 0.50915 0.30976 0.0
N4145 N 0.09821 0.52337 0.30874 0.0
N4146 N 0.06401 0.52165 0.33725 0.0
C4147 C 0.08423 0.53855 0.34677 0.0
C4148 C 0.10281 0.53926 0.33149 0.0
C4149 C 0.82593 0.81962 0.66512 0.0
C4150 C 0.82354 0.84414 0.66292 0.0
C4151 C 0.82481 0.81149 0.68809 0.0
C4152 C 0.82158 0.82754 0.71028 0.0
H4153 H 0.82837 0.80634 0.6488 0.0
H4154 H 0.82667 0.7924 0.68844 0.0
S4155 S 0.815 0.8939 0.71536 0.0
N4156 N 0.81824 0.88463 0.68563 0.0
N4157 N 0.81614 0.86942 0.72837 0.0
C4158 C 0.81939 0.85218 0.70846 0.0
C4159 C 0.82031 0.86041 0.68501 0.0
C4160 C 0.75021 0.55063 0.56188 0.0
C4161 C 0.75206 0.53809 0.53748 0.0
C4162 C 0.73394 0.56548 0.56665 0.0
C4163 C 0.71888 0.56821 0.54722 0.0
H4164 H 0.76092 0.5483 0.57753 0.0
H4165 H 0.7325 0.57402 0.58578 0.0
S4166 S 0.71836 0.54183 0.47985 0.0
N4167 N 0.73876 0.5313 0.49348 0.0
N4168 N 0.70792 0.55893 0.50255 0.0
C4169 C 0.7211 0.55661 0.52268 0.0
C4170 C 0.73772 0.54158 0.51779 0.0
C4171 C 0.16549 0.10354 0.49228 0.0
C4172 C 0.1813 0.1163 0.51328 0.0
C4173 C 0.1432 0.0895 0.49484 0.0
C4174 C 0.13579 0.08775 0.5185 0.0
H4175 H 0.17017 0.10494 0.47375 0.0
H4176 H 0.13148 0.08052 0.47819 0.0
S4177 S 0.172 0.11374 0.57906 0.0
N4178 N 0.18882 0.12348 0.5583 0.0
N4179 N 0.14731 0.0974 0.56305 0.0
C4180 C 0.15187 0.09937 0.53948 0.0
C4181 C 0.17448 0.11354 0.5369 0.0
C4182 C 0.26761 0.88405 0.75531 0.0
C4183 C 0.26128 0.89968 0.7767 0.0
C4184 C 0.27873 0.86298 0.75642 0.0
C4185 C 0.28453 0.85552 0.77912 0.0
H4186 H 0.26396 0.88811 0.73715 0.0
H4187 H 0.28241 0.85218 0.73913 0.0
S4188 S 0.27148 0.88794 0.8409 0.0
N4189 N 0.26181 0.9039 0.82158 0.0
N4190 N 0.28206 0.86607 0.82352 0.0
C4191 C 0.27817 0.87079 0.80041 0.0
C4192 C 0.26703 0.8921 0.79934 0.0
C4193 C 0.47569 0.98227 0.03033 0.0
C4194 C 0.46268 1.00098 0.03296 0.0
C4195 C 0.49987 0.989 0.03174 0.0
C4196 C 0.5118 0.0146 0.03546 0.0
H4197 H 0.46709 0.9623 0.02702 0.0
H4198 H 0.5093 0.97406 0.02954 0.0
S4199 S 0.48572 0.07072 0.04728 0.0
N4200 N 0.46339 0.04604 0.04165 0.0
N4201 N 0.50885 0.05872 0.04503 0.0
C4202 C 0.499 0.03347 0.03913 0.0
C4203 C 0.47439 0.02662 0.03752 0.0
C4204 C 0.83348 0.62157 0.76728 0.0
C4205 C 0.84889 0.63605 0.78778 0.0
C4206 C 0.82238 0.6334 0.75134 0.0
C4207 C 0.82631 0.66009 0.7554 0.0
H4208 H 0.831 0.60107 0.76271 0.0
H4209 H 0.81122 0.62158 0.73525 0.0
S4210 S 0.86255 0.70592 0.80894 0.0
N4211 N 0.86556 0.67784 0.81315 0.0
N4212 N 0.84507 0.70043 0.78305 0.0
C4213 C 0.84051 0.67463 0.77691 0.0
C4214 C 0.85175 0.6625 0.79311 0.0
C4215 C 0.89361 0.59553 0.01179 0.0
C4216 C 0.89971 0.62212 0.02022 0.0
C4217 C 0.90932 0.58037 0.015 0.0
C4218 C 0.93189 0.59102 0.0269 0.0
H4219 H 0.87636 0.58625 1.00292 0.0
H4220 H 0.90354 0.55997 1.00853 0.0
S4221 S 0.95682 0.65975 0.05195 0.0
N4222 N 0.93023 0.65858 0.04043 0.0
N4223 N 0.9597 0.63006 0.0466 0.0
C4224 C 0.93854 0.61768 0.03465 0.0
C4225 C 0.92249 0.6332 0.0313 0.0
C4226 C 0.28655 0.17896 0.79171 0.0
C4227 C 0.26358 0.16729 0.78083 0.0
C4228 C 0.29742 0.20487 0.79165 0.0
C4229 C 0.28612 0.22117 0.78085 0.0
H4230 H 0.29651 0.16783 0.80015 0.0
H4231 H 0.31495 0.21221 0.80039 0.0
S4232 S 0.22488 0.20148 0.75212 0.0
N4233 N 0.22948 0.17553 0.76047 0.0
N4234 N 0.24939 0.22313 0.76034 0.0
C4235 C 0.2629 0.20989 0.77054 0.0
C4236 C 0.2519 0.18351 0.77049 0.0
C4237 C 0.33504 0.90221 0.2773 0.0
C4238 C 0.35883 0.91365 0.28039 0.0
C4239 C 0.32724 0.87565 0.2717 0.0
C4240 C 0.34293 0.85986 0.26987 0.0
H4241 H 0.32241 0.91382 0.27851 0.0
H4242 H 0.3089 0.86746 0.26868 0.0
S4243 S 0.4068 0.88014 0.27615 0.0
N4244 N 0.39801 0.90699 0.28132 0.0
N4245 N 0.38306 0.85712 0.27042 0.0
C4246 C 0.36665 0.87096 0.2727 0.0
C4247 C 0.37467 0.89788 0.27832 0.0
C4248 C 0.59195 0.44723 0.54073 0.0
C4249 C 0.58829 0.44097 0.56444 0.0
C4250 C 0.5882 0.47043 0.53458 0.0
C4251 C 0.58081 0.48892 0.55193 0.0
H4252 H 0.59761 0.43394 0.52662 0.0
H4253 H 0.59149 0.47406 0.51627 0.0
S4254 S 0.56976 0.48323 0.61682 0.0
N4255 N 0.57734 0.45656 0.60533 0.0
N4256 N 0.57078 0.4992 0.59416 0.0
C4257 C 0.57753 0.48302 0.57567 0.0
C4258 C 0.58098 0.45947 0.58175 0.0
C4259 C 0.41159 0.77469 0.32744 0.0
C4260 C 0.4118 0.77597 0.35339 0.0
C4261 C 0.39259 0.7785 0.31293 0.0
C4262 C 0.37232 0.78319 0.32327 0.0
H4263 H 0.42661 0.77142 0.31826 0.0
H4264 H 0.39431 0.77858 0.29352 0.0
S4265 S 0.36329 0.78756 0.3903 0.0
N4266 N 0.38943 0.78205 0.38873 0.0
N4267 N 0.35392 0.78853 0.36168 0.0
C4268 C 0.37224 0.78433 0.34923 0.0
C4269 C 0.39175 0.78084 0.3641 0.0
C4270 C 0.08787 0.6603 0.0403 0.0
C4271 C 0.09207 0.67544 0.0648 0.0
C4272 C 0.08367 0.63318 0.03567 0.0
C4273 C 0.08325 0.61985 0.05535 0.0
H4274 H 0.08769 0.66946 0.02452 0.0
H4275 H 0.07992 0.6226 0.01661 0.0
S4276 S 0.09263 0.64972 0.12275 0.0
N4277 N 0.09521 0.67412 0.10881 0.0
N4278 N 0.08734 0.62414 0.10019 0.0
C4279 C 0.08754 0.63476 0.07974 0.0
C4280 C 0.09199 0.66213 0.08444 0.0
C4281 C 0.155 0.30051 0.8585 0.0
C4282 C 0.13339 0.28365 0.84949 0.0
C4283 C 0.17329 0.30381 0.84327 0.0
C4284 C 0.17063 0.29067 0.81828 0.0
H4285 H 0.15772 0.31144 0.87744 0.0
H4286 H 0.18931 0.31748 0.8508 0.0
S4287 S 0.11799 0.24394 0.78565 0.0
N4288 N 0.11085 0.25331 0.8139 0.0
N4289 N 0.14499 0.25953 0.78553 0.0
C4290 C 0.14936 0.27337 0.80925 0.0
C4291 C 0.13086 0.26985 0.82475 0.0
C4292 C 0.60011 0.74153 0.99953 0.0
C4293 C 0.59129 0.7324 0.97432 0.0
C4294 C 0.59343 0.72735 0.01772 0.0
C4295 C 0.5778 0.70345 0.01132 0.0
H4296 H 0.61218 0.75986 1.00527 0.0
H4297 H 0.60094 0.73487 0.03682 0.0
S4298 S 0.54945 0.67116 0.94802 0.0
N4299 N 0.56615 0.69793 0.94396 0.0
N4300 N 0.55308 0.67166 0.97815 0.0
C4301 C 0.56861 0.69429 0.98624 0.0
C4302 C 0.57547 0.70865 0.96776 0.0
C4303 C 0.12578 0.74637 0.74902 0.0
C4304 C 0.12593 0.77044 0.74363 0.0
C4305 C 0.14576 0.74092 0.75922 0.0
C4306 C 0.16676 0.75938 0.76479 0.0
H4307 H 0.11016 0.73133 0.74478 0.0
H4308 H 0.14486 0.72176 0.76199 0.0
S4309 S 0.17595 0.8262 0.7566 0.0
N4310 N 0.14865 0.81334 0.74575 0.0
N4311 N 0.18599 0.80351 0.76622 0.0
C4312 C 0.16692 0.78395 0.76068 0.0
C4313 C 0.14657 0.78942 0.74992 0.0
C4314 C 0.12106 0.45754 0.48936 0.0
C4315 C 0.11012 0.44316 0.46625 0.0
C4316 C 0.1119 0.47688 0.50255 0.0
C4317 C 0.09124 0.4822 0.49331 0.0
H4318 H 0.137 0.45412 0.49706 0.0
H4319 H 0.12138 0.48793 0.51993 0.0
S4320 S 0.05516 0.44807 0.43422 0.0
N4321 N 0.07723 0.43441 0.43501 0.0
N4322 N 0.05962 0.47027 0.4599 0.0
C4323 C 0.07987 0.46735 0.4704 0.0
C4324 C 0.0894 0.44793 0.45687 0.0
C4325 C 0.4036 0.25642 0.2625 0.0
C4326 C 0.40449 0.2553 0.23669 0.0
C4327 C 0.38358 0.25975 0.2739 0.0
C4328 C 0.36419 0.26267 0.25991 0.0
H4329 H 0.41889 0.25652 0.27425 0.0
H4330 H 0.38384 0.26176 0.29393 0.0
S4331 S 0.35598 0.25583 0.19139 0.0
N4332 N 0.3824 0.25209 0.19707 0.0
N4333 N 0.34586 0.26076 0.21878 0.0
C4334 C 0.36414 0.25931 0.23397 0.0
C4335 C 0.38406 0.25504 0.22229 0.0
C4336 C 0.63331 0.53306 0.42953 0.0
C4337 C 0.62144 0.53086 0.40552 0.0
C4338 C 0.62234 0.53517 0.45245 0.0
C4339 C 0.59833 0.53459 0.45345 0.0
H4340 H 0.65163 0.5336 0.43087 0.0
H4341 H 0.63293 0.53698 0.46969 0.0
S4342 S 0.5585 0.53002 0.39694 0.0
N4343 N 0.58334 0.52869 0.38548 0.0
N4344 N 0.56355 0.53274 0.42731 0.0
C4345 C 0.58631 0.53254 0.42971 0.0
C4346 C 0.59747 0.5307 0.40643 0.0
C4347 C 0.33794 0.85949 0.1354 0.0
C4348 C 0.34271 0.88616 0.14019 0.0
C4349 C 0.34672 0.84679 0.1522 0.0
C4350 C 0.36047 0.86041 0.17427 0.0
H4351 H 0.32873 0.84848 0.11783 0.0
H4352 H 0.34388 0.82628 0.14714 0.0
S4353 S 0.37406 0.93032 0.19729 0.0
N4354 N 0.35939 0.92569 0.16969 0.0
N4355 N 0.37553 0.90177 0.20169 0.0
C4356 C 0.36371 0.88701 0.18017 0.0
C4357 C 0.3549 0.89991 0.16299 0.0
C4358 C 0.02143 0.58746 0.94668 0.0
C4359 C 0.01811 0.5702 0.92369 0.0
C4360 C 0.03651 0.58525 0.96622 0.0
C4361 C 0.04878 0.56597 0.96311 0.0
H4362 H 0.01119 0.6016 0.9501 0.0
H4363 H 0.03749 0.59764 0.9843 0.0
S4364 S 0.04841 0.51824 0.90582 0.0
N4365 N 0.03019 0.53502 0.89813 0.0
N4366 N 0.05823 0.5307 0.93527 0.0
C4367 C 0.04684 0.54974 0.93986 0.0
C4368 C 0.03156 0.55195 0.91996 0.0
C4369 C 0.31508 0.28894 0.67033 0.0
C4370 C 0.30845 0.26393 0.65583 0.0
C4371 C 0.31725 0.29364 0.69677 0.0
C4372 C 0.31327 0.27344 0.70962 0.0
H4373 H 0.31883 0.30493 0.66116 0.0
H4374 H 0.32292 0.31305 0.70716 0.0
S4375 S 0.29545 0.20471 0.68053 0.0
N4376 N 0.29745 0.21902 0.65661 0.0
N4377 N 0.30236 0.22765 0.70569 0.0
C4378 C 0.30661 0.24851 0.69525 0.0
C4379 C 0.30388 0.24381 0.66859 0.0
C4380 C 0.63587 0.53797 0.11648 0.0
C4381 C 0.62192 0.53243 0.13582 0.0
C4382 C 0.62677 0.54054 0.0925 0.0
C4383 C 0.60288 0.53849 0.08553 0.0
H4384 H 0.65434 0.53974 0.11955 0.0
H4385 H 0.6389 0.54405 0.07891 0.0
S4386 S 0.55771 0.525 0.1284 0.0
N4387 N 0.58182 0.52557 0.14533 0.0
N4388 N 0.56529 0.53048 0.10111 0.0
C4389 C 0.58854 0.53332 0.10462 0.0
C4390 C 0.5978 0.53033 0.12917 0.0
C4391 C 0.31761 0.82857 0.89359 0.0
C4392 C 0.3274 0.85469 0.90148 0.0
C4393 C 0.31815 0.81619 0.86894 0.0
C4394 C 0.32796 0.82963 0.8512 0.0
H4395 H 0.30966 0.81765 0.90659 0.0
H4396 H 0.31068 0.79597 0.86378 0.0
S4397 S 0.35691 0.89844 0.86345 0.0
N4398 N 0.34781 0.89359 0.8903 0.0
N4399 N 0.34916 0.8705 0.84421 0.0
C4400 C 0.33847 0.85571 0.8593 0.0
C4401 C 0.33796 0.86822 0.88433 0.0
C4402 C 1.009 0.53272 0.69543 0.0
C4403 C 0.01318 0.54992 0.71849 0.0
C4404 C 0.02668 0.53088 0.67999 0.0
C4405 C 0.0492 0.54609 0.6871 0.0
H4406 H 0.99182 0.52097 0.68903 0.0
H4407 H 0.02263 0.51765 0.66218 0.0
S4408 S 0.0694 0.59296 0.74636 0.0
N4409 N 0.04172 0.5814 0.74841 0.0
N4410 N 0.07491 0.57833 0.71902 0.0
C4411 C 0.05378 0.56286 0.71041 0.0
C4412 C 0.03575 0.56475 0.72615 0.0
C4413 C 0.30248 0.25517 0.37844 0.0
C4414 C 0.32232 0.25608 0.39421 0.0
C4415 C 0.30401 0.26266 0.35529 0.0
C4416 C 0.32539 0.27225 0.34669 0.0
H4417 H 0.28545 0.24847 0.38399 0.0
H4418 H 0.28801 0.26174 0.34449 0.0
S4419 S 0.38287 0.27578 0.37934 0.0
N4420 N 0.36437 0.26552 0.39847 0.0
N4421 N 0.36711 0.27945 0.35511 0.0
C4422 C 0.34545 0.27236 0.36183 0.0
C4423 C 0.34394 0.26439 0.38542 0.0
C4424 C 0.41161 0.57998 0.49393 0.0
C4425 C 0.38945 0.56887 0.49948 0.0
C4426 C 0.42762 0.56516 0.48751 0.0
C4427 C 0.42181 0.53872 0.48601 0.0
H4428 H 0.41672 0.60031 0.495 0.0
H4429 H 0.44467 0.57442 0.48373 0.0
S4430 S 0.36583 0.50049 0.49817 0.0
N4431 N 0.36233 0.52993 0.50264 0.0
N4432 N 0.39244 0.50202 0.49047 0.0
C4433 C 0.3996 0.52735 0.49114 0.0
C4434 C 0.38341 0.54246 0.49795 0.0
C4435 C 0.97036 0.97599 0.52394 0.0
C4436 C 0.95638 0.98381 0.54233 0.0
C4437 C 0.99263 0.99044 0.52258 0.0
C4438 C 1.0023 0.01357 0.53956 0.0
H4439 H 0.96413 0.95833 0.51045 0.0
H4440 H 1.00227 0.98321 0.50789 0.0
S4441 S 0.97347 0.04211 0.59224 0.0
N4442 N 0.9541 0.01624 0.57827 0.0
N4443 N 0.99622 0.04278 0.57633 0.0
C4444 C 0.98873 0.02137 0.55843 0.0
C4445 C 0.96584 1.00668 0.5597 0.0
C4446 C 0.86961 0.21498 0.29732 0.0
C4447 C 0.87647 0.19944 0.2762 0.0
C4448 C 0.85858 0.23607 0.29584 0.0
C4449 C 0.85318 0.24347 0.27299 0.0
H4450 H 0.87329 0.21128 0.31562 0.0
H4451 H 0.8548 0.24703 0.31299 0.0
S4452 S 0.86402 0.20849 0.21134 0.0
N4453 N 0.87397 0.19309 0.23103 0.0
N4454 N 0.85472 0.23155 0.22855 0.0
C4455 C 0.85932 0.22773 0.25188 0.0
C4456 C 0.87031 0.20636 0.25332 0.0
C4457 C 0.66155 0.11268 0.02674 0.0
C4458 C 0.6748 0.0942 0.02385 0.0
C4459 C 0.63741 0.10566 0.02551 0.0
C4460 C 0.62574 0.08 0.02181 0.0
H4461 H 0.66991 0.13272 0.03003 0.0
H4462 H 0.62779 0.12044 0.02778 0.0
S4463 S 0.65236 0.02431 0.01004 0.0
N4464 N 0.67452 0.0492 0.0152 0.0
N4465 N 0.62909 0.03602 0.01256 0.0
C4466 C 0.63874 0.06133 0.01811 0.0
C4467 C 0.66333 0.06846 0.01941 0.0
C4468 C 0.29769 0.45182 0.24288 0.0
C4469 C 0.27678 0.44553 0.25337 0.0
C4470 C 0.31712 0.44371 0.25052 0.0
C4471 C 0.31641 0.42901 0.26895 0.0
H4472 H 0.29962 0.46461 0.22997 0.0
H4473 H 0.33314 0.44997 0.2427 0.0
S4474 S 0.26465 0.40403 0.29923 0.0
N4475 N 0.25548 0.42091 0.28053 0.0
N4476 N 0.2923 0.40613 0.29553 0.0
C4477 C 0.29509 0.42083 0.27812 0.0
C4478 C 0.27521 0.42903 0.2702 0.0
C4479 C 0.25073 0.50092 0.03428 0.0
C4480 C 0.24265 0.47451 0.03228 0.0
C4481 C 0.23567 0.51654 0.03017 0.0
C4482 C 0.21171 0.50663 0.02358 0.0
H4483 H 0.26903 0.50964 0.03844 0.0
H4484 H 0.24303 0.53667 0.0319 0.0
S4485 S 0.18121 0.43899 0.01752 0.0
N4486 N 0.20859 0.43944 0.02507 0.0
N4487 N 0.18052 0.46854 0.0161 0.0
C4488 C 0.20322 0.48035 0.02215 0.0
C4489 C 0.21859 0.46441 0.02666 0.0
C4490 C 0.84904 0.91982 0.26689 0.0
C4491 C 0.87334 0.92943 0.27196 0.0
C4492 C 0.83799 0.89387 0.26653 0.0
C4493 C 0.85028 0.87569 0.27187 0.0
H4494 H 0.83834 0.93242 0.26268 0.0
H4495 H 0.81949 0.88808 0.26196 0.0
S4496 S 0.91434 0.89071 0.28725 0.0
N4497 N 0.90923 0.91795 0.28278 0.0
N4498 N 0.88892 0.87038 0.2827 0.0
C4499 C 0.87462 0.88521 0.27718 0.0
C4500 C 0.8859 0.91148 0.27709 0.0
C4501 C 0.77063 0.19772 0.76022 0.0
C4502 C 0.78188 0.18086 0.76977 0.0
C4503 C 0.77981 0.22398 0.76594 0.0
C4504 C 0.80036 0.23433 0.78172 0.0
H4505 H 0.75442 0.1907 0.74841 0.0
H4506 H 0.77061 0.2363 0.75828 0.0
S4507 S 0.83609 0.19958 0.81294 0.0
N4508 N 0.81502 0.17711 0.79604 0.0
N4509 N 0.83096 0.22673 0.80826 0.0
C4510 C 0.81127 0.21814 0.79234 0.0
C4511 C 0.80241 0.19132 0.78596 0.0
loop_
_geom_bond_atom_site_label_1
_geom_bond_atom_site_label_2
_geom_bond_distance
_geom_bond_site_symmetry_2
_ccdc_geom_bond_type
Li0 N17 1.990 . S
Li0 O60 1.956 . S
Li0 O61 1.970 . S
Li0 O62 1.961 . S
Li1 N25 1.990 . S
Li1 O60 1.970 . S
Li1 O61 1.956 . S
Li1 O63 1.961 . S
Li2 N47 1.990 . S
Li2 O60 1.961 . S
Li2 O62 1.956 . S
Li2 O63 1.970 . S
Li3 N53 1.990 . S
Li3 O61 1.961 . S
Li3 O62 1.970 . S
Li3 O63 1.956 . S
C4 C6 1.348 . S
C4 C7 1.356 . S
C4 O60 1.325 . S
N5 C8 1.314 . S
N5 C9 1.279 . S
C6 C4 1.348 . S
C6 C8 1.353 . S
C6 H64 0.929 . S
C7 C4 1.356 . S
C7 C9 1.358 . S
C7 H65 0.930 . S
C8 N5 1.314 . S
C8 C6 1.353 . S
C8 H66 0.930 . S
C9 N5 1.279 . S
C9 C7 1.358 . S
C9 H67 0.930 . S
C10 C13 1.348 . S
C10 C14 1.356 . S
C10 O61 1.325 . S
C11 N12 1.279 . S
C11 C14 1.358 . S
C11 H68 0.930 . S
N12 C11 1.279 . S
N12 C15 1.314 . S
C13 C10 1.348 . S
C13 C15 1.353 . S
C13 H69 0.929 . S
C14 C10 1.356 . S
C14 C11 1.358 . S
C14 H70 0.930 . S
C15 N12 1.314 . S
C15 C13 1.353 . S
C15 H71 0.930 . S
C16 N17 1.314 . S
C16 C21 1.353 . S
C16 H22 0.930 . S
N17 Li0 1.990 . S
N17 C16 1.314 . S
N17 C19 1.279 . S
C18 C19 1.358 . S
C18 C20 1.356 . S
C18 H72 0.930 . S
C19 N17 1.279 . S
C19 C18 1.358 . S
C19 H23 0.930 . S
C20 C18 1.356 . S
C20 C21 1.348 . S
C21 C16 1.353 . S
C21 C20 1.348 . S
C21 H73 0.929 . S
H22 C16 0.930 . S
H23 C19 0.930 . S
C24 N25 1.314 . S
C24 C26 1.353 . S
C24 H30 0.930 . S
N25 Li1 1.990 . S
N25 C24 1.314 . S
N25 C28 1.279 . S
C26 C24 1.353 . S
C26 C29 1.348 . S
C26 H74 0.929 . S
C27 C28 1.358 . S
C27 C29 1.356 . S
C27 H75 0.930 . S
C28 N25 1.279 . S
C28 C27 1.358 . S
C28 H31 0.930 . S
C29 C26 1.348 . S
C29 C27 1.356 . S
H30 C24 0.930 . S
H31 C28 0.930 . S
C32 C34 1.348 . S
C32 C35 1.356 . S
C32 O62 1.325 . S
N33 C36 1.314 . S
N33 C37 1.279 . S
C34 C32 1.348 . S
C34 C36 1.353 . S
C34 H76 0.929 . S
C35 C32 1.356 . S
C35 C37 1.358 . S
C35 H77 0.930 . S
C36 N33 1.314 . S
C36 C34 1.353 . S
C36 H78 0.930 . S
C37 N33 1.279 . S
C37 C35 1.358 . S
C37 H79 0.930 . S
C38 C39 1.348 . S
C38 C40 1.356 . S
C38 O63 1.325 . S
C39 C38 1.348 . S
C39 C41 1.353 . S
C39 H80 0.929 . S
C40 C38 1.356 . S
C40 C42 1.358 . S
C40 H81 0.930 . S
C41 C39 1.353 . S
C41 N43 1.314 . S
C41 H82 0.930 . S
C42 C40 1.358 . S
C42 N43 1.279 . S
C42 H83 0.930 . S
N43 C41 1.314 . S
N43 C42 1.279 . S
C44 C46 1.353 . S
C44 N47 1.314 . S
C44 H50 0.930 . S
C45 N47 1.279 . S
C45 C48 1.358 . S
C45 H51 0.930 . S
C46 C44 1.353 . S
C46 C49 1.348 . S
C46 H84 0.929 . S
N47 Li2 1.990 . S
N47 C44 1.314 . S
N47 C45 1.279 . S
C48 C45 1.358 . S
C48 C49 1.356 . S
C48 H85 0.930 . S
C49 C46 1.348 . S
C49 C48 1.356 . S
H50 C44 0.930 . S
H51 C45 0.930 . S
C52 N53 1.314 . S
C52 C54 1.353 . S
C52 H58 0.930 . S
N53 Li3 1.990 . S
N53 C52 1.314 . S
N53 C56 1.279 . S
C54 C52 1.353 . S
C54 C57 1.348 . S
C54 H86 0.929 . S
C55 C56 1.358 . S
C55 C57 1.356 . S
C55 H87 0.930 . S
C56 N53 1.279 . S
C56 C55 1.358 . S
C56 H59 0.930 . S
C57 C54 1.348 . S
C57 C55 1.356 . S
H58 C52 0.930 . S
H59 C56 0.930 . S
O60 Li0 1.956 . S
O60 Li1 1.970 . S
O60 Li2 1.961 . S
O60 C4 1.325 . S
O61 Li0 1.970 . S
O61 Li1 1.956 . S
O61 Li3 1.961 . S
O61 C10 1.325 . S
O62 Li0 1.961 . S
O62 Li2 1.956 . S
O62 Li3 1.970 . S
O62 C32 1.325 . S
O63 Li1 1.961 . S
O63 Li2 1.970 . S
O63 Li3 1.956 . S
O63 C38 1.325 . S
H64 C6 0.929 . S
H65 C7 0.930 . S
H66 C8 0.930 . S
H67 C9 0.930 . S
H68 C11 0.930 . S
H69 C13 0.929 . S
H70 C14 0.930 . S
H71 C15 0.930 . S
H72 C18 0.930 . S
H73 C21 0.929 . S
H74 C26 0.929 . S
H75 C27 0.930 . S
H76 C34 0.929 . S
H77 C35 0.930 . S
H78 C36 0.930 . S
H79 C37 0.930 . S
H80 C39 0.929 . S
H81 C40 0.930 . S
H82 C41 0.930 . S
H83 C42 0.930 . S
H84 C46 0.929 . S
H85 C48 0.930 . S
H86 C54 0.929 . S
H87 C55 0.930 . S
Li88 N105 1.990 . S
Li88 O148 1.956 . S
Li88 O149 1.970 . S
Li88 O150 1.961 1_455 S
Li89 N113 1.990 . S
Li89 O148 1.970 . S
Li89 O149 1.956 . S
Li89 O151 1.961 1_455 S
Li90 N135 1.990 . S
Li90 O148 1.961 1_655 S
Li90 O150 1.956 . S
Li90 O151 1.970 . S
Li91 N141 1.990 . S
Li91 O149 1.961 1_655 S
Li91 O150 1.970 . S
Li91 O151 1.956 . S
C92 C94 1.348 . S
C92 C95 1.356 . S
C92 O148 1.325 . S
N93 C96 1.314 . S
N93 C97 1.279 . S
C94 C92 1.348 . S
C94 C96 1.353 . S
C94 H152 0.929 . S
C95 C92 1.356 . S
C95 C97 1.358 . S
C95 H153 0.930 . S
C96 N93 1.314 . S
C96 C94 1.353 . S
C96 H154 0.930 . S
C97 N93 1.279 . S
C97 C95 1.358 . S
C97 H155 0.930 . S
C98 C101 1.348 . S
C98 C102 1.356 . S
C98 O149 1.325 . S
C99 N100 1.279 . S
C99 C102 1.358 . S
C99 H156 0.930 . S
N100 C99 1.279 . S
N100 C103 1.314 . S
C101 C98 1.348 . S
C101 C103 1.353 . S
C101 H157 0.929 . S
C102 C98 1.356 . S
C102 C99 1.358 . S
C102 H158 0.929 1_455 S
C103 N100 1.314 . S
C103 C101 1.353 . S
C103 H159 0.930 . S
C104 N105 1.314 1_655 S
C104 C109 1.353 . S
C104 H110 0.930 . S
N105 Li88 1.990 . S
N105 C104 1.314 1_455 S
N105 C107 1.279 . S
C106 C107 1.358 . S
C106 C108 1.356 . S
C106 H160 0.930 . S
C107 N105 1.279 . S
C107 C106 1.358 . S
C107 H111 0.930 . S
C108 C106 1.356 . S
C108 C109 1.348 1_455 S
C109 C104 1.353 . S
C109 C108 1.348 1_655 S
C109 H161 0.929 . S
H110 C104 0.930 . S
H111 C107 0.930 . S
C112 N113 1.314 . S
C112 C114 1.353 . S
C112 H118 0.930 . S
N113 Li89 1.990 . S
N113 C112 1.314 . S
N113 C116 1.279 . S
C114 C112 1.353 . S
C114 C117 1.348 . S
C114 H162 0.929 . S
C115 C116 1.358 . S
C115 C117 1.356 . S
C115 H163 0.930 . S
C116 N113 1.279 . S
C116 C115 1.358 . S
C116 H119 0.930 . S
C117 C114 1.348 . S
C117 C115 1.356 . S
H118 C112 0.930 . S
H119 C116 0.930 . S
C120 C122 1.348 . S
C120 C123 1.356 . S
C120 O150 1.325 . S
N121 C124 1.314 . S
N121 C125 1.279 . S
C122 C120 1.348 . S
C122 C124 1.353 . S
C122 H164 0.929 . S
C123 C120 1.356 . S
C123 C125 1.358 . S
C123 H165 0.930 . S
C124 N121 1.314 . S
C124 C122 1.353 . S
C124 H166 0.930 . S
C125 N121 1.279 . S
C125 C123 1.358 . S
C125 H167 0.930 . S
C126 C127 1.348 . S
C126 C128 1.356 1_655 S
C126 O151 1.325 . S
C127 C126 1.348 . S
C127 C129 1.353 . S
C127 H168 0.929 . S
C128 C126 1.356 1_455 S
C128 C130 1.359 . S
C128 H169 0.930 . S
C129 C127 1.353 . S
C129 N131 1.314 . S
C129 H170 0.930 . S
C130 C128 1.359 . S
C130 N131 1.280 1_455 S
C130 H171 0.930 . S
N131 C129 1.314 . S
N131 C130 1.280 1_655 S
C132 C134 1.353 . S
C132 N135 1.314 1_455 S
C132 H138 0.930 . S
C133 N135 1.279 . S
C133 C136 1.358 . S
C133 H139 0.930 . S
C134 C132 1.353 . S
C134 C137 1.348 1_455 S
C134 H172 0.929 . S
N135 Li90 1.990 . S
N135 C132 1.314 1_655 S
N135 C133 1.279 . S
C136 C133 1.358 . S
C136 C137 1.356 . S
C136 H173 0.930 . S
C137 C134 1.348 1_655 S
C137 C136 1.356 . S
H138 C132 0.930 . S
H139 C133 0.930 . S
C140 N141 1.314 . S
C140 C142 1.353 . S
C140 H146 0.930 . S
N141 Li91 1.990 . S
N141 C140 1.314 . S
N141 C144 1.279 . S
C142 C140 1.353 . S
C142 C145 1.348 . S
C142 H174 0.929 . S
C143 C144 1.358 . S
C143 C145 1.356 . S
C143 H175 0.930 . S
C144 N141 1.279 . S
C144 C143 1.358 . S
C144 H147 0.930 . S
C145 C142 1.348 . S
C145 C143 1.356 . S
H146 C140 0.930 . S
H147 C144 0.930 . S
O148 Li88 1.956 . S
O148 Li89 1.970 . S
O148 Li90 1.961 1_455 S
O148 C92 1.325 . S
O149 Li88 1.970 . S
O149 Li89 1.956 . S
O149 Li91 1.961 1_455 S
O149 C98 1.325 . S
O150 Li88 1.961 1_655 S
O150 Li90 1.956 . S
O150 Li91 1.970 . S
O150 C120 1.325 . S
O151 Li89 1.961 1_655 S
O151 Li90 1.970 . S
O151 Li91 1.956 . S
O151 C126 1.325 . S
H152 C94 0.929 . S
H153 C95 0.930 . S
H154 C96 0.930 . S
H155 C97 0.930 . S
H156 C99 0.930 . S
H157 C101 0.929 . S
H158 C102 0.929 1_655 S
H159 C103 0.930 . S
H160 C106 0.930 . S
H161 C109 0.929 . S
H162 C114 0.929 . S
H163 C115 0.930 . S
H164 C122 0.929 . S
H165 C123 0.930 . S
H166 C124 0.930 . S
H167 C125 0.930 . S
H168 C127 0.929 . S
H169 C128 0.930 . S
H170 C129 0.930 . S
H171 C130 0.930 . S
H172 C134 0.929 . S
H173 C136 0.930 . S
H174 C142 0.929 . S
H175 C143 0.930 . S
Li176 N193 1.990 . S
Li176 O236 1.956 . S
Li176 O237 1.970 . S
Li176 O238 1.961 . S
Li177 N201 1.990 . S
Li177 O236 1.970 . S
Li177 O237 1.956 . S
Li177 O239 1.961 . S
Li178 N223 1.990 . S
Li178 O236 1.961 . S
Li178 O238 1.956 . S
Li178 O239 1.970 . S
Li179 N229 1.990 . S
Li179 O237 1.961 . S
Li179 O238 1.970 . S
Li179 O239 1.956 . S
C180 C182 1.348 . S
C180 C183 1.356 . S
C180 O236 1.325 . S
N181 C184 1.314 . S
N181 C185 1.279 . S
C182 C180 1.348 . S
C182 C184 1.353 . S
C182 H240 0.929 . S
C183 C180 1.356 . S
C183 C185 1.358 . S
C183 H241 0.930 . S
C184 N181 1.314 . S
C184 C182 1.353 . S
C184 H242 0.930 . S
C185 N181 1.279 . S
C185 C183 1.358 . S
C185 H243 0.930 . S
C186 C189 1.348 . S
C186 C190 1.356 . S
C186 O237 1.325 . S
C187 N188 1.279 . S
C187 C190 1.358 . S
C187 H244 0.930 . S
N188 C187 1.279 . S
N188 C191 1.314 . S
C189 C186 1.348 . S
C189 C191 1.353 . S
C189 H245 0.929 . S
C190 C186 1.356 . S
C190 C187 1.358 . S
C190 H246 0.930 . S
C191 N188 1.314 . S
C191 C189 1.353 . S
C191 H247 0.930 . S
C192 N193 1.314 . S
C192 C197 1.353 . S
C192 H198 0.930 . S
N193 Li176 1.990 . S
N193 C192 1.314 . S
N193 C195 1.279 . S
C194 C195 1.358 . S
C194 C196 1.356 . S
C194 H248 0.930 . S
C195 N193 1.279 . S
C195 C194 1.358 . S
C195 H199 0.930 . S
C196 C194 1.356 . S
C196 C197 1.348 . S
C197 C192 1.353 . S
C197 C196 1.348 . S
C197 H249 0.929 . S
H198 C192 0.930 . S
H199 C195 0.930 . S
C200 N201 1.314 . S
C200 C202 1.353 . S
C200 H206 0.930 . S
N201 Li177 1.990 . S
N201 C200 1.314 . S
N201 C204 1.279 . S
C202 C200 1.353 . S
C202 C205 1.348 . S
C202 H250 0.929 . S
C203 C204 1.358 . S
C203 C205 1.356 . S
C203 H251 0.930 . S
C204 N201 1.279 . S
C204 C203 1.358 . S
C204 H207 0.930 . S
C205 C202 1.348 . S
C205 C203 1.356 . S
H206 C200 0.930 . S
H207 C204 0.930 . S
C208 C210 1.348 . S
C208 C211 1.356 . S
C208 O238 1.325 . S
N209 C212 1.314 . S
N209 C213 1.279 . S
C210 C208 1.348 . S
C210 C212 1.353 . S
C210 H252 0.929 . S
C211 C208 1.356 . S
C211 C213 1.358 . S
C211 H253 0.930 . S
C212 N209 1.314 . S
C212 C210 1.353 . S
C212 H254 0.930 . S
C213 N209 1.279 . S
C213 C211 1.358 . S
C213 H255 0.930 . S
C214 C215 1.348 . S
C214 C216 1.356 . S
C214 O239 1.325 . S
C215 C214 1.348 . S
C215 C217 1.353 . S
C215 H256 0.929 . S
C216 C214 1.356 . S
C216 C218 1.358 . S
C216 H257 0.930 . S
C217 C215 1.353 . S
C217 N219 1.314 . S
C217 H258 0.930 . S
C218 C216 1.358 . S
C218 N219 1.279 . S
C218 H259 0.930 . S
N219 C217 1.314 . S
N219 C218 1.279 . S
C220 C222 1.353 . S
C220 N223 1.314 . S
C220 H226 0.930 . S
C221 N223 1.279 . S
C221 C224 1.358 . S
C221 H227 0.930 . S
C222 C220 1.353 . S
C222 C225 1.348 . S
C222 H260 0.929 . S
N223 Li178 1.990 . S
N223 C220 1.314 . S
N223 C221 1.279 . S
C224 C221 1.358 . S
C224 C225 1.356 . S
C224 H261 0.930 . S
C225 C222 1.348 . S
C225 C224 1.356 . S
H226 C220 0.930 . S
H227 C221 0.930 . S
C228 N229 1.314 . S
C228 C230 1.353 . S
C228 H234 0.930 . S
N229 Li179 1.990 . S
N229 C228 1.314 . S
N229 C232 1.279 . S
C230 C228 1.353 . S
C230 C233 1.348 . S
C230 H262 0.929 . S
C231 C232 1.358 . S
C231 C233 1.356 . S
C231 H263 0.930 . S
C232 N229 1.279 . S
C232 C231 1.358 . S
C232 H235 0.930 . S
C233 C230 1.348 . S
C233 C231 1.356 . S
H234 C228 0.930 . S
H235 C232 0.930 . S
O236 Li176 1.956 . S
O236 Li177 1.970 . S
O236 Li178 1.961 . S
O236 C180 1.325 . S
O237 Li176 1.970 . S
O237 Li177 1.956 . S
O237 Li179 1.961 . S
O237 C186 1.325 . S
O238 Li176 1.961 . S
O238 Li178 1.956 . S
O238 Li179 1.970 . S
O238 C208 1.325 . S
O239 Li177 1.961 . S
O239 Li178 1.970 . S
O239 Li179 1.956 . S
O239 C214 1.325 . S
H240 C182 0.929 . S
H241 C183 0.930 . S
H242 C184 0.930 . S
H243 C185 0.930 . S
H244 C187 0.930 . S
H245 C189 0.929 . S
H246 C190 0.930 . S
H247 C191 0.930 . S
H248 C194 0.930 . S
H249 C197 0.929 . S
H250 C202 0.929 . S
H251 C203 0.930 . S
H252 C210 0.929 . S
H253 C211 0.930 . S
H254 C212 0.930 . S
H255 C213 0.930 . S
H256 C215 0.929 . S
H257 C216 0.930 . S
H258 C217 0.930 . S
H259 C218 0.930 . S
H260 C222 0.929 . S
H261 C224 0.930 . S
H262 C230 0.929 . S
H263 C231 0.930 . S
Li264 N281 1.990 . S
Li264 O324 1.956 . S
Li264 O325 1.970 . S
Li264 O326 1.961 . S
Li265 N289 1.990 . S
Li265 O324 1.970 . S
Li265 O325 1.956 . S
Li265 O327 1.961 . S
Li266 N311 1.990 . S
Li266 O324 1.961 . S
Li266 O326 1.956 . S
Li266 O327 1.970 . S
Li267 N317 1.990 . S
Li267 O325 1.961 . S
Li267 O326 1.970 . S
Li267 O327 1.956 . S
C268 C270 1.348 . S
C268 C271 1.356 . S
C268 O324 1.325 . S
N269 C272 1.314 . S
N269 C273 1.279 . S
C270 C268 1.348 . S
C270 C272 1.353 . S
C270 H328 0.929 . S
C271 C268 1.356 . S
C271 C273 1.358 . S
C271 H329 0.930 . S
C272 N269 1.314 . S
C272 C270 1.353 . S
C272 H330 0.930 . S
C273 N269 1.279 . S
C273 C271 1.358 . S
C273 H331 0.930 . S
C274 C277 1.348 . S
C274 C278 1.356 . S
C274 O325 1.325 . S
C275 N276 1.279 . S
C275 C278 1.358 . S
C275 H332 0.930 . S
N276 C275 1.279 . S
N276 C279 1.314 . S
C277 C274 1.348 . S
C277 C279 1.353 . S
C277 H333 0.929 . S
C278 C274 1.356 . S
C278 C275 1.358 . S
C278 H334 0.930 . S
C279 N276 1.314 . S
C279 C277 1.353 . S
C279 H335 0.930 . S
C280 N281 1.314 . S
C280 C285 1.353 . S
C280 H286 0.930 . S
N281 Li264 1.990 . S
N281 C280 1.314 . S
N281 C283 1.279 . S
C282 C283 1.358 . S
C282 C284 1.356 . S
C282 H336 0.930 . S
C283 N281 1.279 . S
C283 C282 1.358 . S
C283 H287 0.930 . S
C284 C282 1.356 . S
C284 C285 1.348 . S
C285 C280 1.353 . S
C285 C284 1.348 . S
C285 H337 0.929 . S
H286 C280 0.930 . S
H287 C283 0.930 . S
C288 N289 1.314 . S
C288 C290 1.353 . S
C288 H294 0.930 . S
N289 Li265 1.990 . S
N289 C288 1.314 . S
N289 C292 1.279 . S
C290 C288 1.353 . S
C290 C293 1.348 . S
C290 H338 0.929 . S
C291 C292 1.358 . S
C291 C293 1.356 . S
C291 H339 0.930 . S
C292 N289 1.279 . S
C292 C291 1.358 . S
C292 H295 0.930 . S
C293 C290 1.348 . S
C293 C291 1.356 . S
H294 C288 0.930 . S
H295 C292 0.930 . S
C296 C298 1.348 . S
C296 C299 1.356 . S
C296 O326 1.325 . S
N297 C300 1.314 . S
N297 C301 1.279 . S
C298 C296 1.348 . S
C298 C300 1.353 . S
C298 H340 0.929 . S
C299 C296 1.356 . S
C299 C301 1.358 . S
C299 H341 0.930 . S
C300 N297 1.314 . S
C300 C298 1.353 . S
C300 H342 0.930 . S
C301 N297 1.279 . S
C301 C299 1.358 . S
C301 H343 0.930 . S
C302 C303 1.348 . S
C302 C304 1.356 . S
C302 O327 1.325 . S
C303 C302 1.348 . S
C303 C305 1.353 . S
C303 H344 0.929 . S
C304 C302 1.356 . S
C304 C306 1.358 . S
C304 H345 0.930 . S
C305 C303 1.353 . S
C305 N307 1.314 . S
C305 H346 0.930 . S
C306 C304 1.358 . S
C306 N307 1.279 . S
C306 H347 0.930 . S
N307 C305 1.314 . S
N307 C306 1.279 . S
C308 C310 1.353 . S
C308 N311 1.314 . S
C308 H314 0.930 . S
C309 N311 1.279 . S
C309 C312 1.358 . S
C309 H315 0.930 . S
C310 C308 1.353 . S
C310 C313 1.348 . S
C310 H348 0.929 . S
N311 Li266 1.990 . S
N311 C308 1.314 . S
N311 C309 1.279 . S
C312 C309 1.358 . S
C312 C313 1.356 . S
C312 H349 0.930 . S
C313 C310 1.348 . S
C313 C312 1.356 . S
H314 C308 0.930 . S
H315 C309 0.930 . S
C316 N317 1.314 . S
C316 C318 1.353 . S
C316 H322 0.930 . S
N317 Li267 1.990 . S
N317 C316 1.314 . S
N317 C320 1.279 . S
C318 C316 1.353 . S
C318 C321 1.348 . S
C318 H350 0.929 . S
C319 C320 1.358 . S
C319 C321 1.356 . S
C319 H351 0.930 . S
C320 N317 1.279 . S
C320 C319 1.358 . S
C320 H323 0.930 . S
C321 C318 1.348 . S
C321 C319 1.356 . S
H322 C316 0.930 . S
H323 C320 0.930 . S
O324 Li264 1.956 . S
O324 Li265 1.970 . S
O324 Li266 1.961 . S
O324 C268 1.325 . S
O325 Li264 1.970 . S
O325 Li265 1.956 . S
O325 Li267 1.961 . S
O325 C274 1.325 . S
O326 Li264 1.961 . S
O326 Li266 1.956 . S
O326 Li267 1.970 . S
O326 C296 1.325 . S
O327 Li265 1.961 . S
O327 Li266 1.970 . S
O327 Li267 1.956 . S
O327 C302 1.325 . S
H328 C270 0.929 . S
H329 C271 0.930 . S
H330 C272 0.930 . S
H331 C273 0.930 . S
H332 C275 0.930 . S
H333 C277 0.929 . S
H334 C278 0.930 . S
H335 C279 0.930 . S
H336 C282 0.930 . S
H337 C285 0.929 . S
H338 C290 0.929 . S
H339 C291 0.930 . S
H340 C298 0.929 . S
H341 C299 0.930 . S
H342 C300 0.930 . S
H343 C301 0.930 . S
H344 C303 0.929 . S
H345 C304 0.930 . S
H346 C305 0.930 . S
H347 C306 0.930 . S
H348 C310 0.929 . S
H349 C312 0.930 . S
H350 C318 0.929 . S
H351 C319 0.930 . S
Li352 N369 1.990 . S
Li352 O412 1.956 . S
Li352 O413 1.970 . S
Li352 O414 1.961 . S
Li353 N377 1.990 . S
Li353 O412 1.970 . S
Li353 O413 1.956 . S
Li353 O415 1.961 . S
Li354 N399 1.990 . S
Li354 O412 1.961 . S
Li354 O414 1.956 . S
Li354 O415 1.970 . S
Li355 N405 1.990 . S
Li355 O413 1.961 . S
Li355 O414 1.970 . S
Li355 O415 1.956 . S
C356 C358 1.348 . S
C356 C359 1.356 . S
C356 O412 1.325 . S
N357 C360 1.314 . S
N357 C361 1.279 . S
C358 C356 1.348 . S
C358 C360 1.353 . S
C358 H416 0.929 . S
C359 C356 1.356 . S
C359 C361 1.358 . S
C359 H417 0.930 . S
C360 N357 1.314 . S
C360 C358 1.353 . S
C360 H418 0.930 . S
C361 N357 1.279 . S
C361 C359 1.358 . S
C361 H419 0.930 . S
C362 C365 1.348 . S
C362 C366 1.356 . S
C362 O413 1.325 . S
C363 N364 1.279 . S
C363 C366 1.358 . S
C363 H420 0.930 . S
N364 C363 1.279 . S
N364 C367 1.314 . S
C365 C362 1.348 . S
C365 C367 1.353 . S
C365 H421 0.929 . S
C366 C362 1.356 . S
C366 C363 1.358 . S
C366 H422 0.930 . S
C367 N364 1.314 . S
C367 C365 1.353 . S
C367 H423 0.930 . S
C368 N369 1.314 . S
C368 C373 1.353 . S
C368 H374 0.930 . S
N369 Li352 1.990 . S
N369 C368 1.314 . S
N369 C371 1.279 . S
C370 C371 1.358 . S
C370 C372 1.356 . S
C370 H424 0.930 . S
C371 N369 1.279 . S
C371 C370 1.358 . S
C371 H375 0.930 . S
C372 C370 1.356 . S
C372 C373 1.348 . S
C373 C368 1.353 . S
C373 C372 1.348 . S
C373 H425 0.929 . S
H374 C368 0.930 . S
H375 C371 0.930 . S
C376 N377 1.314 . S
C376 C378 1.353 . S
C376 H382 0.930 . S
N377 Li353 1.990 . S
N377 C376 1.314 . S
N377 C380 1.279 . S
C378 C376 1.353 . S
C378 C381 1.348 . S
C378 H426 0.929 . S
C379 C380 1.358 . S
C379 C381 1.356 . S
C379 H427 0.930 . S
C380 N377 1.279 . S
C380 C379 1.358 . S
C380 H383 0.930 . S
C381 C378 1.348 . S
C381 C379 1.356 . S
H382 C376 0.930 . S
H383 C380 0.930 . S
C384 C386 1.348 . S
C384 C387 1.356 . S
C384 O414 1.325 . S
N385 C388 1.314 . S
N385 C389 1.279 . S
C386 C384 1.348 . S
C386 C388 1.353 . S
C386 H428 0.929 . S
C387 C384 1.356 . S
C387 C389 1.358 . S
C387 H429 0.930 . S
C388 N385 1.314 . S
C388 C386 1.353 . S
C388 H430 0.930 1_455 S
C389 N385 1.279 . S
C389 C387 1.358 . S
C389 H431 0.930 . S
C390 C391 1.348 . S
C390 C392 1.356 . S
C390 O415 1.325 . S
C391 C390 1.348 . S
C391 C393 1.353 . S
C391 H432 0.929 . S
C392 C390 1.356 . S
C392 C394 1.358 . S
C392 H433 0.930 . S
C393 C391 1.353 . S
C393 N395 1.314 . S
C393 H434 0.930 . S
C394 C392 1.358 . S
C394 N395 1.279 . S
C394 H435 0.930 . S
N395 C393 1.314 . S
N395 C394 1.279 . S
C396 C398 1.353 . S
C396 N399 1.314 . S
C396 H402 0.930 . S
C397 N399 1.279 . S
C397 C400 1.358 . S
C397 H403 0.930 . S
C398 C396 1.353 . S
C398 C401 1.348 . S
C398 H436 0.929 . S
N399 Li354 1.990 . S
N399 C396 1.314 . S
N399 C397 1.279 . S
C400 C397 1.358 . S
C400 C401 1.356 . S
C400 H437 0.930 . S
C401 C398 1.348 . S
C401 C400 1.356 . S
H402 C396 0.930 . S
H403 C397 0.930 . S
C404 N405 1.314 . S
C404 C406 1.353 . S
C404 H410 0.930 . S
N405 Li355 1.990 . S
N405 C404 1.314 . S
N405 C408 1.279 . S
C406 C404 1.353 . S
C406 C409 1.348 . S
C406 H438 0.929 . S
C407 C408 1.358 . S
C407 C409 1.356 . S
C407 H439 0.930 . S
C408 N405 1.279 . S
C408 C407 1.358 . S
C408 H411 0.930 . S
C409 C406 1.348 . S
C409 C407 1.356 . S
H410 C404 0.930 . S
H411 C408 0.930 . S
O412 Li352 1.956 . S
O412 Li353 1.970 . S
O412 Li354 1.961 . S
O412 C356 1.325 . S
O413 Li352 1.970 . S
O413 Li353 1.956 . S
O413 Li355 1.961 . S
O413 C362 1.325 . S
O414 Li352 1.961 . S
O414 Li354 1.956 . S
O414 Li355 1.970 . S
O414 C384 1.325 . S
O415 Li353 1.961 . S
O415 Li354 1.970 . S
O415 Li355 1.956 . S
O415 C390 1.325 . S
H416 C358 0.929 . S
H417 C359 0.930 . S
H418 C360 0.930 . S
H419 C361 0.930 . S
H420 C363 0.930 . S
H421 C365 0.929 . S
H422 C366 0.930 . S
H423 C367 0.930 . S
H424 C370 0.930 . S
H425 C373 0.929 . S
H426 C378 0.929 . S
H427 C379 0.930 . S
H428 C386 0.929 . S
H429 C387 0.930 . S
H430 C388 0.930 1_655 S
H431 C389 0.930 . S
H432 C391 0.929 . S
H433 C392 0.930 . S
H434 C393 0.930 . S
H435 C394 0.930 . S
H436 C398 0.929 . S
H437 C400 0.930 . S
H438 C406 0.929 . S
H439 C407 0.930 . S
Li440 N457 1.990 . S
Li440 O500 1.956 . S
Li440 O501 1.970 . S
Li440 O502 1.961 . S
Li441 N465 1.990 . S
Li441 O500 1.970 . S
Li441 O501 1.956 . S
Li441 O503 1.961 . S
Li442 N487 1.990 . S
Li442 O500 1.961 . S
Li442 O502 1.956 . S
Li442 O503 1.970 . S
Li443 N493 1.990 . S
Li443 O501 1.961 . S
Li443 O502 1.970 . S
Li443 O503 1.956 . S
C444 C446 1.348 . S
C444 C447 1.356 . S
C444 O500 1.325 . S
N445 C448 1.314 . S
N445 C449 1.279 . S
C446 C444 1.348 . S
C446 C448 1.353 . S
C446 H504 0.929 . S
C447 C444 1.356 . S
C447 C449 1.358 . S
C447 H505 0.930 . S
C448 N445 1.314 . S
C448 C446 1.353 . S
C448 H506 0.930 . S
C449 N445 1.279 . S
C449 C447 1.358 . S
C449 H507 0.930 . S
C450 C453 1.348 . S
C450 C454 1.356 . S
C450 O501 1.325 . S
C451 N452 1.279 . S
C451 C454 1.358 . S
C451 H508 0.930 . S
N452 C451 1.279 . S
N452 C455 1.314 . S
C453 C450 1.348 . S
C453 C455 1.353 . S
C453 H509 0.929 . S
C454 C450 1.356 . S
C454 C451 1.358 . S
C454 H510 0.930 . S
C455 N452 1.314 . S
C455 C453 1.353 . S
C455 H511 0.930 . S
C456 N457 1.314 . S
C456 C461 1.353 . S
C456 H462 0.930 . S
N457 Li440 1.990 . S
N457 C456 1.314 . S
N457 C459 1.279 . S
C458 C459 1.358 . S
C458 C460 1.356 . S
C458 H512 0.930 . S
C459 N457 1.279 . S
C459 C458 1.358 . S
C459 H463 0.930 . S
C460 C458 1.356 . S
C460 C461 1.348 . S
C461 C456 1.353 . S
C461 C460 1.348 . S
C461 H513 0.929 . S
H462 C456 0.930 . S
H463 C459 0.930 . S
C464 N465 1.314 . S
C464 C466 1.353 . S
C464 H470 0.930 . S
N465 Li441 1.990 . S
N465 C464 1.314 . S
N465 C468 1.279 . S
C466 C464 1.353 . S
C466 C469 1.348 . S
C466 H514 0.929 . S
C467 C468 1.358 . S
C467 C469 1.356 . S
C467 H515 0.930 . S
C468 N465 1.279 . S
C468 C467 1.358 . S
C468 H471 0.930 . S
C469 C466 1.348 . S
C469 C467 1.356 . S
H470 C464 0.930 . S
H471 C468 0.930 . S
C472 C474 1.348 . S
C472 C475 1.356 . S
C472 O502 1.325 . S
N473 C476 1.314 . S
N473 C477 1.279 . S
C474 C472 1.348 . S
C474 C476 1.353 . S
C474 H516 0.929 . S
C475 C472 1.356 . S
C475 C477 1.358 . S
C475 H517 0.930 . S
C476 N473 1.314 . S
C476 C474 1.353 . S
C476 H518 0.930 . S
C477 N473 1.279 . S
C477 C475 1.358 . S
C477 H519 0.930 . S
C478 C479 1.348 . S
C478 C480 1.356 . S
C478 O503 1.325 . S
C479 C478 1.348 . S
C479 C481 1.353 . S
C479 H520 0.929 . S
C480 C478 1.356 . S
C480 C482 1.358 . S
C480 H521 0.930 . S
C481 C479 1.353 . S
C481 N483 1.314 . S
C481 H522 0.930 . S
C482 C480 1.358 . S
C482 N483 1.279 . S
C482 H523 0.930 . S
N483 C481 1.314 . S
N483 C482 1.279 . S
C484 C486 1.353 . S
C484 N487 1.314 . S
C484 H490 0.930 . S
C485 N487 1.279 . S
C485 C488 1.358 . S
C485 H491 0.930 . S
C486 C484 1.353 . S
C486 C489 1.348 . S
C486 H524 0.929 . S
N487 Li442 1.990 . S
N487 C484 1.314 . S
N487 C485 1.279 . S
C488 C485 1.358 . S
C488 C489 1.356 . S
C488 H525 0.930 . S
C489 C486 1.348 . S
C489 C488 1.356 . S
H490 C484 0.930 . S
H491 C485 0.930 . S
C492 N493 1.314 . S
C492 C494 1.353 . S
C492 H498 0.930 . S
N493 Li443 1.990 . S
N493 C492 1.314 . S
N493 C496 1.279 . S
C494 C492 1.353 . S
C494 C497 1.348 . S
C494 H526 0.929 . S
C495 C496 1.358 . S
C495 C497 1.356 . S
C495 H527 0.930 . S
C496 N493 1.279 . S
C496 C495 1.358 . S
C496 H499 0.930 . S
C497 C494 1.348 . S
C497 C495 1.356 . S
H498 C492 0.930 . S
H499 C496 0.930 . S
O500 Li440 1.956 . S
O500 Li441 1.970 . S
O500 Li442 1.961 . S
O500 C444 1.325 . S
O501 Li440 1.970 . S
O501 Li441 1.956 . S
O501 Li443 1.961 . S
O501 C450 1.325 . S
O502 Li440 1.961 . S
O502 Li442 1.956 . S
O502 Li443 1.970 . S
O502 C472 1.325 . S
O503 Li441 1.961 . S
O503 Li442 1.970 . S
O503 Li443 1.956 . S
O503 C478 1.325 . S
H504 C446 0.929 . S
H505 C447 0.930 . S
H506 C448 0.930 . S
H507 C449 0.930 . S
H508 C451 0.930 . S
H509 C453 0.929 . S
H510 C454 0.930 . S
H511 C455 0.930 . S
H512 C458 0.930 . S
H513 C461 0.929 . S
H514 C466 0.929 . S
H515 C467 0.930 . S
H516 C474 0.929 . S
H517 C475 0.930 . S
H518 C476 0.930 . S
H519 C477 0.930 . S
H520 C479 0.929 . S
H521 C480 0.930 . S
H522 C481 0.930 . S
H523 C482 0.930 . S
H524 C486 0.929 . S
H525 C488 0.930 . S
H526 C494 0.929 . S
H527 C495 0.930 . S
Li528 N545 1.990 . S
Li528 O588 1.956 . S
Li528 O589 1.970 . S
Li528 O590 1.961 . S
Li529 N553 1.990 . S
Li529 O588 1.970 . S
Li529 O589 1.956 . S
Li529 O591 1.961 . S
Li530 N575 1.990 . S
Li530 O588 1.961 . S
Li530 O590 1.956 . S
Li530 O591 1.970 . S
Li531 N581 1.990 . S
Li531 O589 1.961 . S
Li531 O590 1.970 . S
Li531 O591 1.956 . S
C532 C534 1.348 . S
C532 C535 1.356 . S
C532 O588 1.325 . S
N533 C536 1.314 . S
N533 C537 1.279 . S
C534 C532 1.348 . S
C534 C536 1.353 . S
C534 H592 0.929 . S
C535 C532 1.356 . S
C535 C537 1.358 . S
C535 H593 0.930 . S
C536 N533 1.314 . S
C536 C534 1.353 . S
C536 H594 0.930 . S
C537 N533 1.279 . S
C537 C535 1.358 . S
C537 H595 0.930 . S
C538 C541 1.348 . S
C538 C542 1.356 . S
C538 O589 1.325 . S
C539 N540 1.279 . S
C539 C542 1.358 . S
C539 H596 0.930 . S
N540 C539 1.279 . S
N540 C543 1.314 . S
C541 C538 1.348 . S
C541 C543 1.353 . S
C541 H597 0.929 . S
C542 C538 1.356 . S
C542 C539 1.358 . S
C542 H598 0.930 . S
C543 N540 1.314 . S
C543 C541 1.353 . S
C543 H599 0.930 . S
C544 N545 1.314 . S
C544 C549 1.353 . S
C544 H550 0.930 . S
N545 Li528 1.990 . S
N545 C544 1.314 . S
N545 C547 1.279 . S
C546 C547 1.358 . S
C546 C548 1.356 . S
C546 H600 0.930 . S
C547 N545 1.279 . S
C547 C546 1.358 . S
C547 H551 0.930 . S
C548 C546 1.356 . S
C548 C549 1.348 . S
C549 C544 1.353 . S
C549 C548 1.348 . S
C549 H601 0.929 . S
H550 C544 0.930 . S
H551 C547 0.930 . S
C552 N553 1.314 . S
C552 C554 1.353 . S
C552 H558 0.930 . S
N553 Li529 1.990 . S
N553 C552 1.314 . S
N553 C556 1.279 . S
C554 C552 1.353 . S
C554 C557 1.348 . S
C554 H602 0.929 . S
C555 C556 1.358 . S
C555 C557 1.356 . S
C555 H603 0.930 . S
C556 N553 1.279 . S
C556 C555 1.358 . S
C556 H559 0.930 . S
C557 C554 1.348 . S
C557 C555 1.356 . S
H558 C552 0.930 . S
H559 C556 0.930 . S
C560 C562 1.348 . S
C560 C563 1.356 . S
C560 O590 1.325 . S
N561 C564 1.314 . S
N561 C565 1.279 . S
C562 C560 1.348 . S
C562 C564 1.353 . S
C562 H604 0.929 . S
C563 C560 1.356 . S
C563 C565 1.358 . S
C563 H605 0.930 . S
C564 N561 1.314 . S
C564 C562 1.353 . S
C564 H606 0.930 . S
C565 N561 1.279 . S
C565 C563 1.358 . S
C565 H607 0.930 . S
C566 C567 1.348 . S
C566 C568 1.356 . S
C566 O591 1.325 . S
C567 C566 1.348 . S
C567 C569 1.353 . S
C567 H608 0.929 . S
C568 C566 1.356 . S
C568 C570 1.358 . S
C568 H609 0.930 . S
C569 C567 1.353 . S
C569 N571 1.314 . S
C569 H610 0.930 . S
C570 C568 1.358 . S
C570 N571 1.279 . S
C570 H611 0.930 . S
N571 C569 1.314 . S
N571 C570 1.279 . S
C572 C574 1.353 . S
C572 N575 1.314 . S
C572 H578 0.930 . S
C573 N575 1.279 . S
C573 C576 1.358 . S
C573 H579 0.930 . S
C574 C572 1.353 . S
C574 C577 1.348 . S
C574 H612 0.929 . S
N575 Li530 1.990 . S
N575 C572 1.314 . S
N575 C573 1.279 . S
C576 C573 1.358 . S
C576 C577 1.356 . S
C576 H613 0.930 . S
C577 C574 1.348 . S
C577 C576 1.356 . S
H578 C572 0.930 . S
H579 C573 0.930 . S
C580 N581 1.314 . S
C580 C582 1.353 . S
C580 H586 0.930 . S
N581 Li531 1.990 . S
N581 C580 1.314 . S
N581 C584 1.279 . S
C582 C580 1.353 . S
C582 C585 1.348 . S
C582 H614 0.929 . S
C583 C584 1.358 . S
C583 C585 1.356 . S
C583 H615 0.930 . S
C584 N581 1.279 . S
C584 C583 1.358 . S
C584 H587 0.930 . S
C585 C582 1.348 . S
C585 C583 1.356 . S
H586 C580 0.930 . S
H587 C584 0.930 . S
O588 Li528 1.956 . S
O588 Li529 1.970 . S
O588 Li530 1.961 . S
O588 C532 1.325 . S
O589 Li528 1.970 . S
O589 Li529 1.956 . S
O589 Li531 1.961 . S
O589 C538 1.325 . S
O590 Li528 1.961 . S
O590 Li530 1.956 . S
O590 Li531 1.970 . S
O590 C560 1.325 . S
O591 Li529 1.961 . S
O591 Li530 1.970 . S
O591 Li531 1.956 . S
O591 C566 1.325 . S
H592 C534 0.929 . S
H593 C535 0.930 . S
H594 C536 0.930 . S
H595 C537 0.930 . S
H596 C539 0.930 . S
H597 C541 0.929 . S
H598 C542 0.930 . S
H599 C543 0.930 . S
H600 C546 0.930 . S
H601 C549 0.929 . S
H602 C554 0.929 . S
H603 C555 0.930 . S
H604 C562 0.929 . S
H605 C563 0.930 . S
H606 C564 0.930 . S
H607 C565 0.930 . S
H608 C567 0.929 . S
H609 C568 0.930 . S
H610 C569 0.930 . S
H611 C570 0.930 . S
H612 C574 0.929 . S
H613 C576 0.930 . S
H614 C582 0.929 . S
H615 C583 0.930 . S
Li616 N633 1.990 . S
Li616 O676 1.928 1_455 S
Li616 O677 1.970 . S
Li616 O678 1.961 . S
Li617 N641 1.989 . S
Li617 O676 1.966 . S
Li617 O677 1.957 1_655 S
Li617 O679 1.962 1_655 S
Li618 N663 1.990 . S
Li618 O676 1.924 1_455 S
Li618 O678 1.956 . S
Li618 O679 1.970 . S
Li619 N669 1.990 . S
Li619 O677 1.961 . S
Li619 O678 1.970 . S
Li619 O679 1.956 . S
C620 C622 1.348 . S
C620 C623 1.356 . S
C620 O676 1.361 . S
N621 C624 1.314 1_554 S
N621 C625 1.279 . S
C622 C620 1.348 . S
C622 C624 1.353 . S
C622 H680 0.929 . S
C623 C620 1.356 . S
C623 C625 1.358 1_556 S
C623 H681 0.930 1_556 S
C624 N621 1.314 1_556 S
C624 C622 1.353 . S
C624 H682 0.930 . S
C625 N621 1.279 . S
C625 C623 1.358 1_554 S
C625 H683 0.930 . S
C626 C629 1.348 . S
C626 C630 1.356 . S
C626 O677 1.325 . S
C627 N628 1.279 . S
C627 C630 1.358 . S
C627 H684 0.930 . S
N628 C627 1.279 . S
N628 C631 1.314 . S
C629 C626 1.348 . S
C629 C631 1.353 . S
C629 H685 0.929 . S
C630 C626 1.356 . S
C630 C627 1.358 . S
C630 H686 0.930 . S
C631 N628 1.314 . S
C631 C629 1.353 . S
C631 H687 0.930 . S
C632 N633 1.314 . S
C632 C637 1.353 1_556 S
C632 H638 0.930 . S
N633 Li616 1.990 . S
N633 C632 1.314 . S
N633 C635 1.279 . S
C634 C635 1.358 1_554 S
C634 C636 1.356 . S
C634 H688 0.930 . S
C635 N633 1.279 . S
C635 C634 1.358 1_556 S
C635 H639 0.932 . S
C636 C634 1.356 . S
C636 C637 1.348 . S
C637 C632 1.353 1_554 S
C637 C636 1.348 . S
C637 H689 0.929 . S
H638 C632 0.930 . S
H639 C635 0.932 . S
C640 N641 1.314 . S
C640 C642 1.353 . S
C640 H646 0.930 . S
N641 Li617 1.989 . S
N641 C640 1.314 . S
N641 C644 1.279 . S
C642 C640 1.353 . S
C642 C645 1.348 . S
C642 H690 0.929 . S
C643 C644 1.358 . S
C643 C645 1.356 . S
C643 H691 0.930 . S
C644 N641 1.279 . S
C644 C643 1.358 . S
C644 H647 0.930 . S
C645 C642 1.348 . S
C645 C643 1.356 . S
H646 C640 0.930 . S
H647 C644 0.930 . S
C648 C650 1.348 . S
C648 C651 1.385 . S
C648 O678 1.325 . S
N649 C652 1.314 1_554 S
N649 C653 1.279 . S
C650 C648 1.348 . S
C650 C652 1.353 . S
C650 H692 0.929 . S
C651 C648 1.385 . S
C651 C653 1.342 1_556 S
C651 H693 0.917 1_556 S
C652 N649 1.314 1_556 S
C652 C650 1.353 . S
C652 H694 0.930 . S
C653 N649 1.279 . S
C653 C651 1.342 1_554 S
C653 H695 0.930 . S
C654 C655 1.348 . S
C654 C656 1.356 . S
C654 O679 1.325 . S
C655 C654 1.348 . S
C655 C657 1.353 . S
C655 H696 0.929 . S
C656 C654 1.356 . S
C656 C658 1.358 . S
C656 H697 0.930 . S
C657 C655 1.353 . S
C657 N659 1.314 . S
C657 H698 0.930 . S
C658 C656 1.358 . S
C658 N659 1.279 . S
C658 H699 0.930 . S
N659 C657 1.314 . S
N659 C658 1.279 . S
C660 C662 1.354 1_455 S
C660 N663 1.344 . S
C660 H666 0.896 1_455 S
C661 N663 1.279 . S
C661 C664 1.355 1_556 S
C661 H667 0.930 . S
C662 C660 1.354 1_655 S
C662 C665 1.340 1_656 S
C662 H700 0.929 . S
N663 Li618 1.990 . S
N663 C660 1.344 . S
N663 C661 1.279 . S
C664 C661 1.355 1_554 S
C664 C665 1.354 . S
C664 H701 0.932 . S
C665 C662 1.340 1_454 S
C665 C664 1.354 . S
H666 C660 0.896 1_655 S
H667 C661 0.930 . S
C668 N669 1.314 . S
C668 C670 1.353 . S
C668 H674 0.930 . S
N669 Li619 1.990 . S
N669 C668 1.314 . S
N669 C672 1.279 . S
C670 C668 1.353 . S
C670 C673 1.348 . S
C670 H702 0.929 . S
C671 C672 1.358 . S
C671 C673 1.356 . S
C671 H703 0.930 . S
C672 N669 1.279 . S
C672 C671 1.358 . S
C672 H675 0.930 . S
C673 C670 1.348 . S
C673 C671 1.356 . S
H674 C668 0.930 . S
H675 C672 0.930 . S
O676 Li616 1.928 1_655 S
O676 Li617 1.966 . S
O676 Li618 1.924 1_655 S
O676 C620 1.361 . S
O677 Li616 1.970 . S
O677 Li617 1.957 1_455 S
O677 Li619 1.961 . S
O677 C626 1.325 . S
O678 Li616 1.961 . S
O678 Li618 1.956 . S
O678 Li619 1.970 . S
O678 C648 1.325 . S
O679 Li617 1.962 1_455 S
O679 Li618 1.970 . S
O679 Li619 1.956 . S
O679 C654 1.325 . S
H680 C622 0.929 . S
H681 C623 0.930 1_554 S
H682 C624 0.930 . S
H683 C625 0.930 . S
H684 C627 0.930 . S
H685 C629 0.929 . S
H686 C630 0.930 . S
H687 C631 0.930 . S
H688 C634 0.930 . S
H689 C637 0.929 . S
H690 C642 0.929 . S
H691 C643 0.930 . S
H692 C650 0.929 . S
H693 C651 0.917 1_554 S
H694 C652 0.930 . S
H695 C653 0.930 . S
H696 C655 0.929 . S
H697 C656 0.930 . S
H698 C657 0.930 . S
H699 C658 0.930 . S
H700 C662 0.929 . S
H701 C664 0.932 . S
H702 C670 0.929 . S
H703 C671 0.930 . S
Li704 N721 1.990 . S
Li704 O764 1.956 1_545 S
Li704 O765 1.970 . S
Li704 O766 1.961 . S
Li705 N729 1.990 . S
Li705 O764 1.970 . S
Li705 O765 1.956 1_565 S
Li705 O767 1.961 1_565 S
Li706 N751 1.990 . S
Li706 O764 1.961 1_545 S
Li706 O766 1.956 . S
Li706 O767 1.970 . S
Li707 N757 1.990 . S
Li707 O765 1.961 . S
Li707 O766 1.970 . S
Li707 O767 1.956 . S
C708 C710 1.348 . S
C708 C711 1.356 . S
C708 O764 1.325 . S
N709 C712 1.314 . S
N709 C713 1.279 . S
C710 C708 1.348 . S
C710 C712 1.353 . S
C710 H768 0.929 . S
C711 C708 1.356 . S
C711 C713 1.358 . S
C711 H769 0.930 . S
C712 N709 1.314 . S
C712 C710 1.353 . S
C712 H770 0.930 . S
C713 N709 1.279 . S
C713 C711 1.358 . S
C713 H771 0.930 . S
C714 C717 1.348 . S
C714 C718 1.356 . S
C714 O765 1.325 . S
C715 N716 1.279 . S
C715 C718 1.358 . S
C715 H772 0.930 . S
N716 C715 1.279 . S
N716 C719 1.314 . S
C717 C714 1.348 . S
C717 C719 1.353 . S
C717 H773 0.929 . S
C718 C714 1.356 . S
C718 C715 1.358 . S
C718 H774 0.930 . S
C719 N716 1.314 . S
C719 C717 1.353 . S
C719 H775 0.930 . S
C720 N721 1.314 . S
C720 C725 1.353 . S
C720 H726 0.930 . S
N721 Li704 1.990 . S
N721 C720 1.314 . S
N721 C723 1.279 . S
C722 C723 1.358 . S
C722 C724 1.356 . S
C722 H776 0.930 . S
C723 N721 1.279 . S
C723 C722 1.358 . S
C723 H727 0.930 1_545 S
C724 C722 1.356 . S
C724 C725 1.348 . S
C725 C720 1.353 . S
C725 C724 1.348 . S
C725 H777 0.929 . S
H726 C720 0.930 . S
H727 C723 0.930 1_565 S
C728 N729 1.314 . S
C728 C730 1.353 . S
C728 H734 0.930 . S
N729 Li705 1.990 . S
N729 C728 1.314 . S
N729 C732 1.279 . S
C730 C728 1.353 . S
C730 C733 1.348 . S
C730 H778 0.929 . S
C731 C732 1.358 . S
C731 C733 1.356 . S
C731 H779 0.930 . S
C732 N729 1.279 . S
C732 C731 1.358 . S
C732 H735 0.930 . S
C733 C730 1.348 . S
C733 C731 1.356 . S
H734 C728 0.930 . S
H735 C732 0.930 . S
C736 C738 1.348 . S
C736 C739 1.356 . S
C736 O766 1.325 . S
N737 C740 1.314 . S
N737 C741 1.279 . S
C738 C736 1.348 . S
C738 C740 1.353 . S
C738 H780 0.929 . S
C739 C736 1.356 . S
C739 C741 1.358 . S
C739 H781 0.930 . S
C740 N737 1.314 . S
C740 C738 1.353 . S
C740 H782 0.930 . S
C741 N737 1.279 . S
C741 C739 1.358 . S
C741 H783 0.930 . S
C742 C743 1.348 . S
C742 C744 1.356 1_545 S
C742 O767 1.325 . S
C743 C742 1.348 . S
C743 C745 1.353 . S
C743 H784 0.929 . S
C744 C742 1.356 1_565 S
C744 C746 1.359 . S
C744 H785 0.929 . S
C745 C743 1.353 . S
C745 N747 1.317 . S
C745 H786 0.930 . S
C746 C744 1.359 . S
C746 N747 1.273 1_565 S
C746 H787 0.930 . S
N747 C745 1.317 . S
N747 C746 1.273 1_545 S
C748 C750 1.353 . S
C748 N751 1.314 1_565 S
C748 H754 0.930 . S
C749 N751 1.279 . S
C749 C752 1.358 . S
C749 H755 0.930 . S
C750 C748 1.353 . S
C750 C753 1.348 1_565 S
C750 H788 0.929 . S
N751 Li706 1.990 . S
N751 C748 1.314 1_545 S
N751 C749 1.279 . S
C752 C749 1.358 . S
C752 C753 1.356 . S
C752 H789 0.930 . S
C753 C750 1.348 1_545 S
C753 C752 1.356 . S
H754 C748 0.930 . S
H755 C749 0.930 . S
C756 N757 1.314 . S
C756 C758 1.353 . S
C756 H762 0.930 . S
N757 Li707 1.990 . S
N757 C756 1.314 . S
N757 C760 1.279 . S
C758 C756 1.353 . S
C758 C761 1.348 . S
C758 H790 0.929 . S
C759 C760 1.358 . S
C759 C761 1.356 . S
C759 H791 0.930 . S
C760 N757 1.279 . S
C760 C759 1.358 . S
C760 H763 0.930 . S
C761 C758 1.348 . S
C761 C759 1.356 . S
H762 C756 0.930 . S
H763 C760 0.930 . S
O764 Li704 1.956 1_565 S
O764 Li705 1.970 . S
O764 Li706 1.961 1_565 S
O764 C708 1.325 . S
O765 Li704 1.970 . S
O765 Li705 1.956 1_545 S
O765 Li707 1.961 . S
O765 C714 1.325 . S
O766 Li704 1.961 . S
O766 Li706 1.956 . S
O766 Li707 1.970 . S
O766 C736 1.325 . S
O767 Li705 1.961 1_545 S
O767 Li706 1.970 . S
O767 Li707 1.956 . S
O767 C742 1.325 . S
H768 C710 0.929 . S
H769 C711 0.930 . S
H770 C712 0.930 . S
H771 C713 0.930 . S
H772 C715 0.930 . S
H773 C717 0.929 . S
H774 C718 0.930 . S
H775 C719 0.930 . S
H776 C722 0.930 . S
H777 C725 0.929 . S
H778 C730 0.929 . S
H779 C731 0.930 . S
H780 C738 0.929 . S
H781 C739 0.930 . S
H782 C740 0.930 . S
H783 C741 0.930 . S
H784 C743 0.929 . S
H785 C744 0.929 . S
H786 C745 0.930 . S
H787 C746 0.930 . S
H788 C750 0.929 . S
H789 C752 0.930 . S
H790 C758 0.929 . S
H791 C759 0.930 . S
Li792 N809 1.990 . S
Li792 O852 1.956 . S
Li792 O853 1.970 . S
Li792 O854 1.961 . S
Li793 N817 1.990 . S
Li793 O852 1.970 . S
Li793 O853 1.956 . S
Li793 O855 1.961 . S
Li794 N839 1.990 . S
Li794 O852 1.961 . S
Li794 O854 1.956 . S
Li794 O855 1.970 . S
Li795 N845 1.990 . S
Li795 O853 1.961 . S
Li795 O854 1.970 . S
Li795 O855 1.956 . S
C796 C798 1.348 . S
C796 C799 1.356 . S
C796 O852 1.325 . S
N797 C800 1.314 . S
N797 C801 1.279 . S
C798 C796 1.348 . S
C798 C800 1.353 . S
C798 H856 0.929 . S
C799 C796 1.356 . S
C799 C801 1.358 . S
C799 H857 0.930 . S
C800 N797 1.314 . S
C800 C798 1.353 . S
C800 H858 0.930 . S
C801 N797 1.279 . S
C801 C799 1.358 . S
C801 H859 0.930 . S
C802 C805 1.348 . S
C802 C806 1.356 . S
C802 O853 1.325 . S
C803 N804 1.279 . S
C803 C806 1.358 . S
C803 H860 0.930 . S
N804 C803 1.279 . S
N804 C807 1.314 . S
C805 C802 1.348 . S
C805 C807 1.353 . S
C805 H861 0.929 . S
C806 C802 1.356 . S
C806 C803 1.358 . S
C806 H862 0.930 . S
C807 N804 1.314 . S
C807 C805 1.353 . S
C807 H863 0.930 . S
C808 N809 1.314 . S
C808 C813 1.353 . S
C808 H814 0.930 . S
N809 Li792 1.990 . S
N809 C808 1.314 . S
N809 C811 1.279 . S
C810 C811 1.358 . S
C810 C812 1.356 . S
C810 H864 0.930 . S
C811 N809 1.279 . S
C811 C810 1.358 . S
C811 H815 0.930 . S
C812 C810 1.356 . S
C812 C813 1.348 . S
C813 C808 1.353 . S
C813 C812 1.348 . S
C813 H865 0.929 . S
H814 C808 0.930 . S
H815 C811 0.930 . S
C816 N817 1.314 . S
C816 C818 1.353 . S
C816 H822 0.930 . S
N817 Li793 1.990 . S
N817 C816 1.314 . S
N817 C820 1.279 . S
C818 C816 1.353 . S
C818 C821 1.348 . S
C818 H866 0.929 . S
C819 C820 1.358 . S
C819 C821 1.356 . S
C819 H867 0.930 . S
C820 N817 1.279 . S
C820 C819 1.358 . S
C820 H823 0.930 . S
C821 C818 1.348 . S
C821 C819 1.356 . S
H822 C816 0.930 . S
H823 C820 0.930 . S
C824 C826 1.348 . S
C824 C827 1.356 . S
C824 O854 1.325 . S
N825 C828 1.314 . S
N825 C829 1.279 . S
C826 C824 1.348 . S
C826 C828 1.353 . S
C826 H868 0.929 . S
C827 C824 1.356 . S
C827 C829 1.358 . S
C827 H869 0.930 . S
C828 N825 1.314 . S
C828 C826 1.353 . S
C828 H870 0.930 . S
C829 N825 1.279 . S
C829 C827 1.358 . S
C829 H871 0.930 . S
C830 C831 1.348 . S
C830 C832 1.356 . S
C830 O855 1.325 . S
C831 C830 1.348 . S
C831 C833 1.353 . S
C831 H872 0.929 . S
C832 C830 1.356 . S
C832 C834 1.358 . S
C832 H873 0.930 . S
C833 C831 1.353 . S
C833 N835 1.314 . S
C833 H874 0.930 . S
C834 C832 1.358 . S
C834 N835 1.279 . S
C834 H875 0.930 . S
N835 C833 1.314 . S
N835 C834 1.279 . S
C836 C838 1.353 . S
C836 N839 1.314 . S
C836 H842 0.930 . S
C837 N839 1.279 . S
C837 C840 1.358 . S
C837 H843 0.930 . S
C838 C836 1.353 . S
C838 C841 1.348 . S
C838 H876 0.929 . S
N839 Li794 1.990 . S
N839 C836 1.314 . S
N839 C837 1.279 . S
C840 C837 1.358 . S
C840 C841 1.356 . S
C840 H877 0.930 . S
C841 C838 1.348 . S
C841 C840 1.356 . S
H842 C836 0.930 . S
H843 C837 0.930 . S
C844 N845 1.314 . S
C844 C846 1.353 . S
C844 H850 0.930 . S
N845 Li795 1.990 . S
N845 C844 1.314 . S
N845 C848 1.279 . S
C846 C844 1.353 . S
C846 C849 1.348 . S
C846 H878 0.929 . S
C847 C848 1.358 . S
C847 C849 1.356 . S
C847 H879 0.930 . S
C848 N845 1.279 . S
C848 C847 1.358 . S
C848 H851 0.930 . S
C849 C846 1.348 . S
C849 C847 1.356 . S
H850 C844 0.930 . S
H851 C848 0.930 . S
O852 Li792 1.956 . S
O852 Li793 1.970 . S
O852 Li794 1.961 . S
O852 C796 1.325 . S
O853 Li792 1.970 . S
O853 Li793 1.956 . S
O853 Li795 1.961 . S
O853 C802 1.325 . S
O854 Li792 1.961 . S
O854 Li794 1.956 . S
O854 Li795 1.970 . S
O854 C824 1.325 . S
O855 Li793 1.961 . S
O855 Li794 1.970 . S
O855 Li795 1.956 . S
O855 C830 1.325 . S
H856 C798 0.929 . S
H857 C799 0.930 . S
H858 C800 0.930 . S
H859 C801 0.930 . S
H860 C803 0.930 . S
H861 C805 0.929 . S
H862 C806 0.930 . S
H863 C807 0.930 . S
H864 C810 0.930 . S
H865 C813 0.929 . S
H866 C818 0.929 . S
H867 C819 0.930 . S
H868 C826 0.929 . S
H869 C827 0.930 . S
H870 C828 0.930 . S
H871 C829 0.930 . S
H872 C831 0.929 . S
H873 C832 0.930 . S
H874 C833 0.930 . S
H875 C834 0.930 . S
H876 C838 0.929 . S
H877 C840 0.930 . S
H878 C846 0.929 . S
H879 C847 0.930 . S
Li880 N897 1.990 . S
Li880 O940 1.956 . S
Li880 O941 1.970 . S
Li880 O942 1.977 . S
Li881 N905 1.990 . S
Li881 O940 1.966 . S
Li881 O941 1.982 . S
Li881 O943 1.938 1_545 S
Li882 N927 1.990 . S
Li882 O940 1.961 1_565 S
Li882 O942 1.935 1_565 S
Li882 O943 1.970 . S
Li883 N933 1.990 . S
Li883 O941 1.961 1_565 S
Li883 O942 1.972 1_565 S
Li883 O943 1.956 . S
C884 C886 1.348 . S
C884 C887 1.356 . S
C884 O940 1.325 . S
N885 C888 1.314 . S
N885 C889 1.279 . S
C886 C884 1.348 . S
C886 C888 1.353 . S
C886 H944 0.929 . S
C887 C884 1.356 . S
C887 C889 1.358 . S
C887 H945 0.930 . S
C888 N885 1.314 . S
C888 C886 1.353 . S
C888 H946 0.930 . S
C889 N885 1.279 . S
C889 C887 1.358 . S
C889 H947 0.930 . S
C890 C893 1.348 . S
C890 C894 1.356 . S
C890 O941 1.325 . S
C891 N892 1.279 . S
C891 C894 1.358 . S
C891 H948 0.930 . S
N892 C891 1.279 . S
N892 C895 1.314 . S
C893 C890 1.348 . S
C893 C895 1.353 . S
C893 H949 0.929 . S
C894 C890 1.356 . S
C894 C891 1.358 . S
C894 H950 0.930 . S
C895 N892 1.314 . S
C895 C893 1.353 . S
C895 H951 0.930 . S
C896 N897 1.314 . S
C896 C901 1.353 . S
C896 H902 0.930 . S
N897 Li880 1.990 . S
N897 C896 1.314 . S
N897 C899 1.279 . S
C898 C899 1.358 . S
C898 C900 1.356 . S
C898 H952 0.930 . S
C899 N897 1.279 . S
C899 C898 1.358 . S
C899 H903 0.930 . S
C900 C898 1.356 . S
C900 C901 1.348 . S
C901 C896 1.353 . S
C901 C900 1.348 . S
C901 H953 0.929 . S
H902 C896 0.930 . S
H903 C899 0.930 . S
C904 N905 1.281 1_565 S
C904 C906 1.353 . S
C904 H910 0.930 . S
N905 Li881 1.990 . S
N905 C904 1.281 1_545 S
N905 C908 1.311 . S
C906 C904 1.353 . S
C906 C909 1.334 1_565 S
C906 H954 0.929 . S
C907 C908 1.358 . S
C907 C909 1.371 . S
C907 H955 0.930 . S
C908 N905 1.311 . S
C908 C907 1.358 . S
C908 H911 0.930 . S
C909 C906 1.334 1_545 S
C909 C907 1.371 . S
H910 C904 0.930 . S
H911 C908 0.930 . S
C912 C914 1.348 1_545 S
C912 C915 1.356 . S
C912 O942 1.325 . S
N913 C916 1.314 . S
N913 C917 1.279 1_565 S
C914 C912 1.348 1_565 S
C914 C916 1.353 . S
C914 H956 0.929 . S
C915 C912 1.356 . S
C915 C917 1.358 . S
C915 H957 0.930 . S
C916 N913 1.314 . S
C916 C914 1.353 . S
C916 H958 0.930 . S
C917 N913 1.279 1_545 S
C917 C915 1.358 . S
C917 H959 0.930 . S
C918 C919 1.348 . S
C918 C920 1.356 . S
C918 O943 1.325 . S
C919 C918 1.348 . S
C919 C921 1.353 . S
C919 H960 0.929 . S
C920 C918 1.356 . S
C920 C922 1.358 . S
C920 H961 0.930 . S
C921 C919 1.353 . S
C921 N923 1.314 . S
C921 H962 0.930 . S
C922 C920 1.358 . S
C922 N923 1.279 . S
C922 H963 0.930 . S
N923 C921 1.314 . S
N923 C922 1.279 . S
C924 C926 1.353 . S
C924 N927 1.314 . S
C924 H930 0.930 . S
C925 N927 1.279 . S
C925 C928 1.358 . S
C925 H931 0.930 . S
C926 C924 1.353 . S
C926 C929 1.348 . S
C926 H964 0.929 . S
N927 Li882 1.990 . S
N927 C924 1.314 . S
N927 C925 1.279 . S
C928 C925 1.358 . S
C928 C929 1.356 . S
C928 H965 0.930 . S
C929 C926 1.348 . S
C929 C928 1.356 . S
H930 C924 0.930 . S
H931 C925 0.930 . S
C932 N933 1.314 1_545 S
C932 C934 1.353 . S
C932 H938 0.930 . S
N933 Li883 1.990 . S
N933 C932 1.314 1_565 S
N933 C936 1.279 . S
C934 C932 1.353 . S
C934 C937 1.348 1_545 S
C934 H966 0.929 . S
C935 C936 1.358 . S
C935 C937 1.356 . S
C935 H967 0.930 . S
C936 N933 1.279 . S
C936 C935 1.358 . S
C936 H939 0.930 . S
C937 C934 1.348 1_565 S
C937 C935 1.356 . S
H938 C932 0.930 . S
H939 C936 0.930 . S
O940 Li880 1.956 . S
O940 Li881 1.966 . S
O940 Li882 1.961 1_545 S
O940 C884 1.325 . S
O941 Li880 1.970 . S
O941 Li881 1.982 . S
O941 Li883 1.961 1_545 S
O941 C890 1.325 . S
O942 Li880 1.977 . S
O942 Li882 1.935 1_545 S
O942 Li883 1.972 1_545 S
O942 C912 1.325 . S
O943 Li881 1.938 1_565 S
O943 Li882 1.970 . S
O943 Li883 1.956 . S
O943 C918 1.325 . S
H944 C886 0.929 . S
H945 C887 0.930 . S
H946 C888 0.930 . S
H947 C889 0.930 . S
H948 C891 0.930 . S
H949 C893 0.929 . S
H950 C894 0.930 . S
H951 C895 0.930 . S
H952 C898 0.930 . S
H953 C901 0.929 . S
H954 C906 0.929 . S
H955 C907 0.930 . S
H956 C914 0.929 . S
H957 C915 0.930 . S
H958 C916 0.930 . S
H959 C917 0.930 . S
H960 C919 0.929 . S
H961 C920 0.930 . S
H962 C921 0.930 . S
H963 C922 0.930 . S
H964 C926 0.929 . S
H965 C928 0.930 . S
H966 C934 0.929 . S
H967 C935 0.930 . S
Li968 N985 1.990 . S
Li968 O1028 1.956 . S
Li968 O1029 1.970 . S
Li968 O1030 1.961 1_554 S
Li969 N993 1.990 . S
Li969 O1028 1.970 . S
Li969 O1029 1.956 . S
Li969 O1031 1.961 . S
Li970 N1015 1.990 . S
Li970 O1028 1.961 . S
Li970 O1030 1.956 1_554 S
Li970 O1031 1.970 . S
Li971 N1021 1.990 . S
Li971 O1029 1.961 1_556 S
Li971 O1030 1.970 . S
Li971 O1031 1.956 1_556 S
C972 C974 1.348 . S
C972 C975 1.356 . S
C972 O1028 1.325 . S
N973 C976 1.314 1_545 S
N973 C977 1.279 . S
C974 C972 1.348 . S
C974 C976 1.353 . S
C974 H1032 0.929 . S
C975 C972 1.356 . S
C975 C977 1.358 1_565 S
C975 H1033 0.930 1_565 S
C976 N973 1.314 1_565 S
C976 C974 1.353 . S
C976 H1034 0.930 . S
C977 N973 1.279 . S
C977 C975 1.358 1_545 S
C977 H1035 0.930 . S
C978 C981 1.348 . S
C978 C982 1.356 1_554 S
C978 O1029 1.325 . S
C979 N980 1.279 . S
C979 C982 1.358 . S
C979 H1036 0.930 . S
N980 C979 1.279 . S
N980 C983 1.314 1_556 S
C981 C978 1.348 . S
C981 C983 1.353 . S
C981 H1037 0.929 . S
C982 C978 1.356 1_556 S
C982 C979 1.358 . S
C982 H1038 0.930 . S
C983 N980 1.314 1_554 S
C983 C981 1.353 . S
C983 H1039 0.930 . S
C984 N985 1.314 1_556 S
C984 C989 1.353 . S
C984 H990 0.930 . S
N985 Li968 1.990 . S
N985 C984 1.314 1_554 S
N985 C987 1.279 . S
C986 C987 1.358 . S
C986 C988 1.356 . S
C986 H1040 0.930 1_565 S
C987 N985 1.279 . S
C987 C986 1.358 . S
C987 H991 0.930 . S
C988 C986 1.356 . S
C988 C989 1.348 1_554 S
C989 C984 1.353 . S
C989 C988 1.348 1_556 S
C989 H1041 0.929 . S
H990 C984 0.930 . S
H991 C987 0.930 . S
C992 N993 1.314 . S
C992 C994 1.353 . S
C992 H998 0.930 . S
N993 Li969 1.990 . S
N993 C992 1.314 . S
N993 C996 1.279 . S
C994 C992 1.353 . S
C994 C997 1.348 . S
C994 H1042 0.929 . S
C995 C996 1.358 . S
C995 C997 1.356 . S
C995 H1043 0.930 . S
C996 N993 1.279 . S
C996 C995 1.358 . S
C996 H999 0.930 . S
C997 C994 1.348 . S
C997 C995 1.356 . S
H998 C992 0.930 . S
H999 C996 0.930 . S
C1000 C1002 1.348 . S
C1000 C1003 1.356 . S
C1000 O1030 1.325 . S
N1001 C1004 1.314 . S
N1001 C1005 1.275 1_565 S
C1002 C1000 1.348 . S
C1002 C1004 1.353 . S
C1002 H1044 0.929 . S
C1003 C1000 1.356 . S
C1003 C1005 1.343 1_565 S
C1003 H1045 0.930 . S
C1004 N1001 1.314 . S
C1004 C1002 1.353 . S
C1004 H1046 0.930 . S
C1005 N1001 1.275 1_545 S
C1005 C1003 1.343 1_545 S
C1005 H1047 0.954 . S
C1006 C1007 1.358 . S
C1006 C1008 1.356 . S
C1006 O1031 1.325 . S
C1007 C1006 1.358 . S
C1007 C1009 1.356 1_554 S
C1007 H1048 0.919 1_554 S
C1008 C1006 1.356 . S
C1008 C1010 1.358 . S
C1008 H1049 0.930 . S
C1009 C1007 1.356 1_556 S
C1009 N1011 1.304 1_556 S
C1009 H1050 0.942 . S
C1010 C1008 1.358 . S
C1010 N1011 1.279 . S
C1010 H1051 0.930 . S
N1011 C1009 1.304 1_554 S
N1011 C1010 1.279 . S
C1012 C1014 1.353 1_565 S
C1012 N1015 1.314 . S
C1012 H1018 0.930 . S
C1013 N1015 1.279 1_556 S
C1013 C1016 1.358 1_566 S
C1013 H1019 0.930 . S
C1014 C1012 1.353 1_545 S
C1014 C1017 1.348 . S
C1014 H1052 0.929 . S
N1015 Li970 1.990 . S
N1015 C1012 1.314 . S
N1015 C1013 1.279 1_554 S
C1016 C1013 1.358 1_544 S
C1016 C1017 1.356 . S
C1016 H1053 0.930 1_554 S
C1017 C1014 1.348 . S
C1017 C1016 1.356 . S
H1018 C1012 0.930 . S
H1019 C1013 0.930 . S
C1020 N1021 1.314 . S
C1020 C1022 1.353 . S
C1020 H1026 0.930 . S
N1021 Li971 1.990 . S
N1021 C1020 1.314 . S
N1021 C1024 1.279 . S
C1022 C1020 1.353 . S
C1022 C1025 1.348 . S
C1022 H1054 0.929 . S
C1023 C1024 1.358 . S
C1023 C1025 1.356 . S
C1023 H1055 0.930 . S
C1024 N1021 1.279 . S
C1024 C1023 1.358 . S
C1024 H1027 0.930 . S
C1025 C1022 1.348 . S
C1025 C1023 1.356 . S
H1026 C1020 0.930 . S
H1027 C1024 0.930 . S
O1028 Li968 1.956 . S
O1028 Li969 1.970 . S
O1028 Li970 1.961 . S
O1028 C972 1.325 . S
O1029 Li968 1.970 . S
O1029 Li969 1.956 . S
O1029 Li971 1.961 1_554 S
O1029 C978 1.325 . S
O1030 Li968 1.961 1_556 S
O1030 Li970 1.956 1_556 S
O1030 Li971 1.970 . S
O1030 C1000 1.325 . S
O1031 Li969 1.961 . S
O1031 Li970 1.970 . S
O1031 Li971 1.956 1_554 S
O1031 C1006 1.325 . S
H1032 C974 0.929 . S
H1033 C975 0.930 1_545 S
H1034 C976 0.930 . S
H1035 C977 0.930 . S
H1036 C979 0.930 . S
H1037 C981 0.929 . S
H1038 C982 0.930 . S
H1039 C983 0.930 . S
H1040 C986 0.930 1_545 S
H1041 C989 0.929 . S
H1042 C994 0.929 . S
H1043 C995 0.930 . S
H1044 C1002 0.929 . S
H1045 C1003 0.930 . S
H1046 C1004 0.930 . S
H1047 C1005 0.954 . S
H1048 C1007 0.919 1_556 S
H1049 C1008 0.930 . S
H1050 C1009 0.942 . S
H1051 C1010 0.930 . S
H1052 C1014 0.929 . S
H1053 C1016 0.930 1_556 S
H1054 C1022 0.929 . S
H1055 C1023 0.930 . S
Li1056 N1073 1.990 . S
Li1056 O1116 1.956 . S
Li1056 O1117 1.970 . S
Li1056 O1118 1.961 . S
Li1057 N1081 1.990 . S
Li1057 O1116 1.970 . S
Li1057 O1117 1.956 . S
Li1057 O1119 1.961 . S
Li1058 N1103 1.990 . S
Li1058 O1116 1.961 . S
Li1058 O1118 1.956 . S
Li1058 O1119 1.970 . S
Li1059 N1109 1.990 1_554 S
Li1059 O1117 1.961 . S
Li1059 O1118 1.970 . S
Li1059 O1119 1.956 . S
C1060 C1062 1.348 . S
C1060 C1063 1.356 . S
C1060 O1116 1.325 . S
N1061 C1064 1.314 . S
N1061 C1065 1.279 . S
C1062 C1060 1.348 . S
C1062 C1064 1.353 . S
C1062 H1120 0.929 . S
C1063 C1060 1.356 . S
C1063 C1065 1.358 . S
C1063 H1121 0.930 . S
C1064 N1061 1.314 . S
C1064 C1062 1.353 . S
C1064 H1122 0.930 . S
C1065 N1061 1.279 . S
C1065 C1063 1.358 . S
C1065 H1123 0.930 . S
C1066 C1069 1.348 . S
C1066 C1070 1.356 . S
C1066 O1117 1.325 . S
C1067 N1068 1.279 . S
C1067 C1070 1.358 . S
C1067 H1124 0.930 . S
N1068 C1067 1.279 . S
N1068 C1071 1.314 . S
C1069 C1066 1.348 . S
C1069 C1071 1.353 . S
C1069 H1125 0.929 . S
C1070 C1066 1.356 . S
C1070 C1067 1.358 . S
C1070 H1126 0.930 . S
C1071 N1068 1.314 . S
C1071 C1069 1.353 . S
C1071 H1127 0.930 . S
C1072 N1073 1.314 . S
C1072 C1077 1.353 . S
C1072 H1078 0.930 . S
N1073 Li1056 1.990 . S
N1073 C1072 1.314 . S
N1073 C1075 1.279 . S
C1074 C1075 1.358 . S
C1074 C1076 1.356 . S
C1074 H1128 0.930 . S
C1075 N1073 1.279 . S
C1075 C1074 1.358 . S
C1075 H1079 0.930 . S
C1076 C1074 1.356 . S
C1076 C1077 1.348 . S
C1077 C1072 1.353 . S
C1077 C1076 1.348 . S
C1077 H1129 0.929 . S
H1078 C1072 0.930 . S
H1079 C1075 0.930 . S
C1080 N1081 1.314 . S
C1080 C1082 1.353 . S
C1080 H1086 0.930 . S
N1081 Li1057 1.990 . S
N1081 C1080 1.314 . S
N1081 C1084 1.279 . S
C1082 C1080 1.353 . S
C1082 C1085 1.348 . S
C1082 H1130 0.929 . S
C1083 C1084 1.358 . S
C1083 C1085 1.356 . S
C1083 H1131 0.930 . S
C1084 N1081 1.279 . S
C1084 C1083 1.358 . S
C1084 H1087 0.930 . S
C1085 C1082 1.348 . S
C1085 C1083 1.356 . S
H1086 C1080 0.930 . S
H1087 C1084 0.930 . S
C1088 C1090 1.348 . S
C1088 C1091 1.356 . S
C1088 O1118 1.325 1_556 S
N1089 C1092 1.314 . S
N1089 C1093 1.279 . S
C1090 C1088 1.348 . S
C1090 C1092 1.353 . S
C1090 H1132 0.929 . S
C1091 C1088 1.356 . S
C1091 C1093 1.394 . S
C1091 H1133 0.895 1_556 S
C1092 N1089 1.314 . S
C1092 C1090 1.353 . S
C1092 H1134 0.930 . S
C1093 N1089 1.279 . S
C1093 C1091 1.394 . S
C1093 H1135 0.930 . S
C1094 C1095 1.348 . S
C1094 C1096 1.356 . S
C1094 O1119 1.325 . S
C1095 C1094 1.348 . S
C1095 C1097 1.353 . S
C1095 H1136 0.929 . S
C1096 C1094 1.356 . S
C1096 C1098 1.358 . S
C1096 H1137 0.930 . S
C1097 C1095 1.353 . S
C1097 N1099 1.314 . S
C1097 H1138 0.930 . S
C1098 C1096 1.358 . S
C1098 N1099 1.279 . S
C1098 H1139 0.930 . S
N1099 C1097 1.314 . S
N1099 C1098 1.279 . S
C1100 C1102 1.353 . S
C1100 N1103 1.314 . S
C1100 H1106 0.930 . S
C1101 N1103 1.279 . S
C1101 C1104 1.358 . S
C1101 H1107 0.930 . S
C1102 C1100 1.353 . S
C1102 C1105 1.348 . S
C1102 H1140 0.929 . S
N1103 Li1058 1.990 . S
N1103 C1100 1.314 . S
N1103 C1101 1.279 . S
C1104 C1101 1.358 . S
C1104 C1105 1.356 . S
C1104 H1141 0.930 . S
C1105 C1102 1.348 . S
C1105 C1104 1.356 . S
H1106 C1100 0.930 . S
H1107 C1101 0.930 . S
C1108 N1109 1.314 . S
C1108 C1110 1.353 . S
C1108 H1114 0.930 . S
N1109 Li1059 1.990 1_556 S
N1109 C1108 1.314 . S
N1109 C1112 1.279 . S
C1110 C1108 1.353 . S
C1110 C1113 1.348 . S
C1110 H1142 0.929 . S
C1111 C1112 1.358 . S
C1111 C1113 1.356 . S
C1111 H1143 0.930 . S
C1112 N1109 1.279 . S
C1112 C1111 1.358 . S
C1112 H1115 0.930 . S
C1113 C1110 1.348 . S
C1113 C1111 1.356 . S
H1114 C1108 0.930 . S
H1115 C1112 0.930 . S
O1116 Li1056 1.956 . S
O1116 Li1057 1.970 . S
O1116 Li1058 1.961 . S
O1116 C1060 1.325 . S
O1117 Li1056 1.970 . S
O1117 Li1057 1.956 . S
O1117 Li1059 1.961 . S
O1117 C1066 1.325 . S
O1118 Li1056 1.961 . S
O1118 Li1058 1.956 . S
O1118 Li1059 1.970 . S
O1118 C1088 1.325 1_554 S
O1119 Li1057 1.961 . S
O1119 Li1058 1.970 . S
O1119 Li1059 1.956 . S
O1119 C1094 1.325 . S
H1120 C1062 0.929 . S
H1121 C1063 0.930 . S
H1122 C1064 0.930 . S
H1123 C1065 0.930 . S
H1124 C1067 0.930 . S
H1125 C1069 0.929 . S
H1126 C1070 0.930 . S
H1127 C1071 0.930 . S
H1128 C1074 0.930 . S
H1129 C1077 0.929 . S
H1130 C1082 0.929 . S
H1131 C1083 0.930 . S
H1132 C1090 0.929 . S
H1133 C1091 0.895 1_554 S
H1134 C1092 0.930 . S
H1135 C1093 0.930 . S
H1136 C1095 0.929 . S
H1137 C1096 0.930 . S
H1138 C1097 0.930 . S
H1139 C1098 0.930 . S
H1140 C1102 0.929 . S
H1141 C1104 0.930 . S
H1142 C1110 0.929 . S
H1143 C1111 0.930 . S
Li1144 N1161 1.990 . S
Li1144 O1204 1.956 . S
Li1144 O1205 1.970 . S
Li1144 O1206 1.961 . S
Li1145 N1169 1.990 . S
Li1145 O1204 1.970 . S
Li1145 O1205 1.956 . S
Li1145 O1207 1.961 1_554 S
Li1146 N1191 1.990 1_554 S
Li1146 O1204 1.961 . S
Li1146 O1206 1.956 . S
Li1146 O1207 1.970 1_554 S
Li1147 N1197 1.990 . S
Li1147 O1205 1.961 . S
Li1147 O1206 1.970 . S
Li1147 O1207 1.956 1_554 S
C1148 C1150 1.348 . S
C1148 C1151 1.356 . S
C1148 O1204 1.325 . S
N1149 C1152 1.314 . S
N1149 C1153 1.279 . S
C1150 C1148 1.348 . S
C1150 C1152 1.353 . S
C1150 H1208 0.929 . S
C1151 C1148 1.356 . S
C1151 C1153 1.358 . S
C1151 H1209 0.930 . S
C1152 N1149 1.314 . S
C1152 C1150 1.353 . S
C1152 H1210 0.930 . S
C1153 N1149 1.279 . S
C1153 C1151 1.358 . S
C1153 H1211 0.930 . S
C1154 C1157 1.348 . S
C1154 C1158 1.356 . S
C1154 O1205 1.325 . S
C1155 N1156 1.279 . S
C1155 C1158 1.358 . S
C1155 H1212 0.930 . S
N1156 C1155 1.279 . S
N1156 C1159 1.314 . S
C1157 C1154 1.348 . S
C1157 C1159 1.353 . S
C1157 H1213 0.929 . S
C1158 C1154 1.356 . S
C1158 C1155 1.358 . S
C1158 H1214 0.930 . S
C1159 N1156 1.314 . S
C1159 C1157 1.353 . S
C1159 H1215 0.930 . S
C1160 N1161 1.314 . S
C1160 C1165 1.353 . S
C1160 H1166 0.930 . S
N1161 Li1144 1.990 . S
N1161 C1160 1.314 . S
N1161 C1163 1.279 . S
C1162 C1163 1.358 . S
C1162 C1164 1.356 . S
C1162 H1216 0.930 . S
C1163 N1161 1.279 . S
C1163 C1162 1.358 . S
C1163 H1167 0.930 . S
C1164 C1162 1.356 . S
C1164 C1165 1.348 . S
C1165 C1160 1.353 . S
C1165 C1164 1.348 . S
C1165 H1217 0.929 . S
H1166 C1160 0.930 . S
H1167 C1163 0.930 . S
C1168 N1169 1.314 . S
C1168 C1170 1.353 . S
C1168 H1174 0.930 1_554 S
N1169 Li1145 1.990 . S
N1169 C1168 1.314 . S
N1169 C1172 1.279 . S
C1170 C1168 1.353 . S
C1170 C1173 1.348 . S
C1170 H1218 0.929 1_554 S
C1171 C1172 1.358 . S
C1171 C1173 1.356 . S
C1171 H1219 0.930 . S
C1172 N1169 1.279 . S
C1172 C1171 1.358 . S
C1172 H1175 0.930 . S
C1173 C1170 1.348 . S
C1173 C1171 1.356 . S
H1174 C1168 0.930 1_556 S
H1175 C1172 0.930 . S
C1176 C1178 1.348 . S
C1176 C1179 1.356 . S
C1176 O1206 1.325 . S
N1177 C1180 1.314 . S
N1177 C1181 1.279 . S
C1178 C1176 1.348 . S
C1178 C1180 1.353 . S
C1178 H1220 0.929 . S
C1179 C1176 1.356 . S
C1179 C1181 1.358 . S
C1179 H1221 0.930 . S
C1180 N1177 1.314 . S
C1180 C1178 1.353 . S
C1180 H1222 0.930 . S
C1181 N1177 1.279 . S
C1181 C1179 1.358 . S
C1181 H1223 0.930 . S
C1182 C1183 1.348 . S
C1182 C1184 1.356 . S
C1182 O1207 1.325 . S
C1183 C1182 1.348 . S
C1183 C1185 1.353 . S
C1183 H1224 0.929 . S
C1184 C1182 1.356 . S
C1184 C1186 1.358 . S
C1184 H1225 0.930 . S
C1185 C1183 1.353 . S
C1185 N1187 1.314 . S
C1185 H1226 0.930 . S
C1186 C1184 1.358 . S
C1186 N1187 1.279 . S
C1186 H1227 0.930 . S
N1187 C1185 1.314 . S
N1187 C1186 1.279 . S
C1188 C1190 1.353 . S
C1188 N1191 1.314 . S
C1188 H1194 0.930 . S
C1189 N1191 1.279 . S
C1189 C1192 1.358 . S
C1189 H1195 0.930 . S
C1190 C1188 1.353 . S
C1190 C1193 1.348 . S
C1190 H1228 0.929 . S
N1191 Li1146 1.990 1_556 S
N1191 C1188 1.314 . S
N1191 C1189 1.279 . S
C1192 C1189 1.358 . S
C1192 C1193 1.356 . S
C1192 H1229 0.930 . S
C1193 C1190 1.348 . S
C1193 C1192 1.356 . S
H1194 C1188 0.930 . S
H1195 C1189 0.930 . S
C1196 N1197 1.314 . S
C1196 C1198 1.353 . S
C1196 H1202 0.930 . S
N1197 Li1147 1.990 . S
N1197 C1196 1.314 . S
N1197 C1200 1.279 1_554 S
C1198 C1196 1.353 . S
C1198 C1201 1.348 . S
C1198 H1230 0.929 . S
C1199 C1200 1.358 . S
C1199 C1201 1.356 1_556 S
C1199 H1231 0.930 . S
C1200 N1197 1.279 1_556 S
C1200 C1199 1.358 . S
C1200 H1203 0.930 . S
C1201 C1198 1.348 . S
C1201 C1199 1.356 1_554 S
H1202 C1196 0.930 . S
H1203 C1200 0.930 . S
O1204 Li1144 1.956 . S
O1204 Li1145 1.970 . S
O1204 Li1146 1.961 . S
O1204 C1148 1.325 . S
O1205 Li1144 1.970 . S
O1205 Li1145 1.956 . S
O1205 Li1147 1.961 . S
O1205 C1154 1.325 . S
O1206 Li1144 1.961 . S
O1206 Li1146 1.956 . S
O1206 Li1147 1.970 . S
O1206 C1176 1.325 . S
O1207 Li1145 1.961 1_556 S
O1207 Li1146 1.970 1_556 S
O1207 Li1147 1.956 1_556 S
O1207 C1182 1.325 . S
H1208 C1150 0.929 . S
H1209 C1151 0.930 . S
H1210 C1152 0.930 . S
H1211 C1153 0.930 . S
H1212 C1155 0.930 . S
H1213 C1157 0.929 . S
H1214 C1158 0.930 . S
H1215 C1159 0.930 . S
H1216 C1162 0.930 . S
H1217 C1165 0.929 . S
H1218 C1170 0.929 1_556 S
H1219 C1171 0.930 . S
H1220 C1178 0.929 . S
H1221 C1179 0.930 . S
H1222 C1180 0.930 . S
H1223 C1181 0.930 . S
H1224 C1183 0.929 . S
H1225 C1184 0.930 . S
H1226 C1185 0.930 . S
H1227 C1186 0.930 . S
H1228 C1190 0.929 . S
H1229 C1192 0.930 . S
H1230 C1198 0.929 . S
H1231 C1199 0.930 . S
Li1232 N1249 1.990 . S
Li1232 O1292 1.956 . S
Li1232 O1293 1.970 . S
Li1232 O1294 1.961 . S
Li1233 N1257 1.990 . S
Li1233 O1292 1.970 . S
Li1233 O1293 1.956 . S
Li1233 O1295 1.961 . S
Li1234 N1279 1.990 . S
Li1234 O1292 1.961 . S
Li1234 O1294 1.956 . S
Li1234 O1295 1.970 . S
Li1235 N1285 1.990 . S
Li1235 O1293 1.961 . S
Li1235 O1294 1.970 . S
Li1235 O1295 1.956 . S
C1236 C1238 1.348 . S
C1236 C1239 1.356 . S
C1236 O1292 1.325 . S
N1237 C1240 1.314 . S
N1237 C1241 1.279 . S
C1238 C1236 1.348 . S
C1238 C1240 1.353 . S
C1238 H1296 0.929 . S
C1239 C1236 1.356 . S
C1239 C1241 1.358 . S
C1239 H1297 0.930 . S
C1240 N1237 1.314 . S
C1240 C1238 1.353 . S
C1240 H1298 0.930 . S
C1241 N1237 1.279 . S
C1241 C1239 1.358 . S
C1241 H1299 0.930 . S
C1242 C1245 1.348 . S
C1242 C1246 1.356 . S
C1242 O1293 1.325 . S
C1243 N1244 1.279 . S
C1243 C1246 1.358 . S
C1243 H1300 0.930 . S
N1244 C1243 1.279 . S
N1244 C1247 1.314 . S
C1245 C1242 1.348 . S
C1245 C1247 1.353 . S
C1245 H1301 0.929 . S
C1246 C1242 1.356 . S
C1246 C1243 1.358 . S
C1246 H1302 0.930 . S
C1247 N1244 1.314 . S
C1247 C1245 1.353 . S
C1247 H1303 0.930 . S
C1248 N1249 1.314 . S
C1248 C1253 1.353 . S
C1248 H1254 0.930 . S
N1249 Li1232 1.990 . S
N1249 C1248 1.314 . S
N1249 C1251 1.279 . S
C1250 C1251 1.358 . S
C1250 C1252 1.356 . S
C1250 H1304 0.930 . S
C1251 N1249 1.279 . S
C1251 C1250 1.358 . S
C1251 H1255 0.930 . S
C1252 C1250 1.356 . S
C1252 C1253 1.348 . S
C1253 C1248 1.353 . S
C1253 C1252 1.348 . S
C1253 H1305 0.929 . S
H1254 C1248 0.930 . S
H1255 C1251 0.930 . S
C1256 N1257 1.314 . S
C1256 C1258 1.353 . S
C1256 H1262 0.930 . S
N1257 Li1233 1.990 . S
N1257 C1256 1.314 . S
N1257 C1260 1.279 . S
C1258 C1256 1.353 . S
C1258 C1261 1.348 . S
C1258 H1306 0.929 . S
C1259 C1260 1.358 . S
C1259 C1261 1.356 . S
C1259 H1307 0.930 . S
C1260 N1257 1.279 . S
C1260 C1259 1.358 . S
C1260 H1263 0.930 . S
C1261 C1258 1.348 . S
C1261 C1259 1.356 . S
H1262 C1256 0.930 . S
H1263 C1260 0.930 . S
C1264 C1266 1.348 . S
C1264 C1267 1.356 . S
C1264 O1294 1.325 . S
N1265 C1268 1.314 . S
N1265 C1269 1.279 . S
C1266 C1264 1.348 . S
C1266 C1268 1.353 . S
C1266 H1308 0.929 . S
C1267 C1264 1.356 . S
C1267 C1269 1.358 . S
C1267 H1309 0.930 . S
C1268 N1265 1.314 . S
C1268 C1266 1.353 . S
C1268 H1310 0.930 . S
C1269 N1265 1.279 . S
C1269 C1267 1.358 . S
C1269 H1311 0.930 . S
C1270 C1271 1.348 . S
C1270 C1272 1.356 . S
C1270 O1295 1.325 . S
C1271 C1270 1.348 . S
C1271 C1273 1.353 . S
C1271 H1312 0.929 . S
C1272 C1270 1.356 . S
C1272 C1274 1.358 . S
C1272 H1313 0.930 . S
C1273 C1271 1.353 . S
C1273 N1275 1.314 . S
C1273 H1314 0.930 . S
C1274 C1272 1.358 . S
C1274 N1275 1.279 . S
C1274 H1315 0.930 . S
N1275 C1273 1.314 . S
N1275 C1274 1.279 . S
C1276 C1278 1.353 . S
C1276 N1279 1.314 . S
C1276 H1282 0.930 . S
C1277 N1279 1.279 . S
C1277 C1280 1.358 . S
C1277 H1283 0.930 . S
C1278 C1276 1.353 . S
C1278 C1281 1.348 . S
C1278 H1316 0.929 . S
N1279 Li1234 1.990 . S
N1279 C1276 1.314 . S
N1279 C1277 1.279 . S
C1280 C1277 1.358 . S
C1280 C1281 1.356 . S
C1280 H1317 0.930 . S
C1281 C1278 1.348 . S
C1281 C1280 1.356 . S
H1282 C1276 0.930 . S
H1283 C1277 0.930 . S
C1284 N1285 1.314 . S
C1284 C1286 1.353 . S
C1284 H1290 0.930 . S
N1285 Li1235 1.990 . S
N1285 C1284 1.314 . S
N1285 C1288 1.279 . S
C1286 C1284 1.353 . S
C1286 C1289 1.348 . S
C1286 H1318 0.929 . S
C1287 C1288 1.358 . S
C1287 C1289 1.356 . S
C1287 H1319 0.930 . S
C1288 N1285 1.279 . S
C1288 C1287 1.358 . S
C1288 H1291 0.930 . S
C1289 C1286 1.348 . S
C1289 C1287 1.356 . S
H1290 C1284 0.930 . S
H1291 C1288 0.930 . S
O1292 Li1232 1.956 . S
O1292 Li1233 1.970 . S
O1292 Li1234 1.961 . S
O1292 C1236 1.325 . S
O1293 Li1232 1.970 . S
O1293 Li1233 1.956 . S
O1293 Li1235 1.961 . S
O1293 C1242 1.325 . S
O1294 Li1232 1.961 . S
O1294 Li1234 1.956 . S
O1294 Li1235 1.970 . S
O1294 C1264 1.325 . S
O1295 Li1233 1.961 . S
O1295 Li1234 1.970 . S
O1295 Li1235 1.956 . S
O1295 C1270 1.325 . S
H1296 C1238 0.929 . S
H1297 C1239 0.930 . S
H1298 C1240 0.930 . S
H1299 C1241 0.930 . S
H1300 C1243 0.930 . S
H1301 C1245 0.929 . S
H1302 C1246 0.930 . S
H1303 C1247 0.930 . S
H1304 C1250 0.930 . S
H1305 C1253 0.929 . S
H1306 C1258 0.929 . S
H1307 C1259 0.930 . S
H1308 C1266 0.929 . S
H1309 C1267 0.930 . S
H1310 C1268 0.930 . S
H1311 C1269 0.930 . S
H1312 C1271 0.929 . S
H1313 C1272 0.930 . S
H1314 C1273 0.930 . S
H1315 C1274 0.930 . S
H1316 C1278 0.929 . S
H1317 C1280 0.930 . S
H1318 C1286 0.929 . S
H1319 C1287 0.930 . S
Li1320 N1337 1.990 . S
Li1320 O1380 1.956 . S
Li1320 O1381 1.970 . S
Li1320 O1382 1.961 . S
Li1321 N1345 1.990 . S
Li1321 O1380 1.970 . S
Li1321 O1381 1.956 . S
Li1321 O1383 1.961 . S
Li1322 N1367 1.990 . S
Li1322 O1380 1.961 . S
Li1322 O1382 1.956 . S
Li1322 O1383 1.970 . S
Li1323 N1373 1.990 . S
Li1323 O1381 1.961 . S
Li1323 O1382 1.970 . S
Li1323 O1383 1.956 . S
C1324 C1326 1.348 . S
C1324 C1327 1.356 . S
C1324 O1380 1.325 . S
N1325 C1328 1.314 . S
N1325 C1329 1.279 . S
C1326 C1324 1.348 . S
C1326 C1328 1.353 . S
C1326 H1384 0.929 . S
C1327 C1324 1.356 . S
C1327 C1329 1.358 . S
C1327 H1385 0.930 . S
C1328 N1325 1.314 . S
C1328 C1326 1.353 . S
C1328 H1386 0.930 . S
C1329 N1325 1.279 . S
C1329 C1327 1.358 . S
C1329 H1387 0.930 . S
C1330 C1333 1.348 . S
C1330 C1334 1.356 . S
C1330 O1381 1.325 . S
C1331 N1332 1.279 . S
C1331 C1334 1.358 . S
C1331 H1388 0.930 . S
N1332 C1331 1.279 . S
N1332 C1335 1.314 . S
C1333 C1330 1.348 . S
C1333 C1335 1.353 . S
C1333 H1389 0.929 . S
C1334 C1330 1.356 . S
C1334 C1331 1.358 . S
C1334 H1390 0.930 . S
C1335 N1332 1.314 . S
C1335 C1333 1.353 . S
C1335 H1391 0.930 . S
C1336 N1337 1.314 . S
C1336 C1341 1.353 . S
C1336 H1342 0.930 . S
N1337 Li1320 1.990 . S
N1337 C1336 1.314 . S
N1337 C1339 1.279 . S
C1338 C1339 1.358 . S
C1338 C1340 1.356 . S
C1338 H1392 0.930 . S
C1339 N1337 1.279 . S
C1339 C1338 1.358 . S
C1339 H1343 0.930 . S
C1340 C1338 1.356 . S
C1340 C1341 1.348 . S
C1341 C1336 1.353 . S
C1341 C1340 1.348 . S
C1341 H1393 0.929 . S
H1342 C1336 0.930 . S
H1343 C1339 0.930 . S
C1344 N1345 1.314 . S
C1344 C1346 1.353 . S
C1344 H1350 0.930 . S
N1345 Li1321 1.990 . S
N1345 C1344 1.314 . S
N1345 C1348 1.279 . S
C1346 C1344 1.353 . S
C1346 C1349 1.348 . S
C1346 H1394 0.929 . S
C1347 C1348 1.358 . S
C1347 C1349 1.356 . S
C1347 H1395 0.930 . S
C1348 N1345 1.279 . S
C1348 C1347 1.358 . S
C1348 H1351 0.930 . S
C1349 C1346 1.348 . S
C1349 C1347 1.356 . S
H1350 C1344 0.930 . S
H1351 C1348 0.930 . S
C1352 C1354 1.348 . S
C1352 C1355 1.356 . S
C1352 O1382 1.325 . S
N1353 C1356 1.314 . S
N1353 C1357 1.279 . S
C1354 C1352 1.348 . S
C1354 C1356 1.353 . S
C1354 H1396 0.929 . S
C1355 C1352 1.356 . S
C1355 C1357 1.358 . S
C1355 H1397 0.930 . S
C1356 N1353 1.314 . S
C1356 C1354 1.353 . S
C1356 H1398 0.930 . S
C1357 N1353 1.279 . S
C1357 C1355 1.358 . S
C1357 H1399 0.930 . S
C1358 C1359 1.348 . S
C1358 C1360 1.356 . S
C1358 O1383 1.325 . S
C1359 C1358 1.348 . S
C1359 C1361 1.353 . S
C1359 H1400 0.929 . S
C1360 C1358 1.356 . S
C1360 C1362 1.358 . S
C1360 H1401 0.930 . S
C1361 C1359 1.353 . S
C1361 N1363 1.314 . S
C1361 H1402 0.930 . S
C1362 C1360 1.358 . S
C1362 N1363 1.279 . S
C1362 H1403 0.930 . S
N1363 C1361 1.314 . S
N1363 C1362 1.279 . S
C1364 C1366 1.353 . S
C1364 N1367 1.314 . S
C1364 H1370 0.930 . S
C1365 N1367 1.279 . S
C1365 C1368 1.358 . S
C1365 H1371 0.930 . S
C1366 C1364 1.353 . S
C1366 C1369 1.348 . S
C1366 H1404 0.929 . S
N1367 Li1322 1.990 . S
N1367 C1364 1.314 . S
N1367 C1365 1.279 . S
C1368 C1365 1.358 . S
C1368 C1369 1.356 . S
C1368 H1405 0.930 . S
C1369 C1366 1.348 . S
C1369 C1368 1.356 . S
H1370 C1364 0.930 . S
H1371 C1365 0.930 . S
C1372 N1373 1.314 . S
C1372 C1374 1.353 . S
C1372 H1378 0.930 . S
N1373 Li1323 1.990 . S
N1373 C1372 1.314 . S
N1373 C1376 1.279 . S
C1374 C1372 1.353 . S
C1374 C1377 1.348 . S
C1374 H1406 0.929 . S
C1375 C1376 1.358 . S
C1375 C1377 1.356 . S
C1375 H1407 0.930 . S
C1376 N1373 1.279 . S
C1376 C1375 1.358 . S
C1376 H1379 0.930 . S
C1377 C1374 1.348 . S
C1377 C1375 1.356 . S
H1378 C1372 0.930 . S
H1379 C1376 0.930 . S
O1380 Li1320 1.956 . S
O1380 Li1321 1.970 . S
O1380 Li1322 1.961 . S
O1380 C1324 1.325 . S
O1381 Li1320 1.970 . S
O1381 Li1321 1.956 . S
O1381 Li1323 1.961 . S
O1381 C1330 1.325 . S
O1382 Li1320 1.961 . S
O1382 Li1322 1.956 . S
O1382 Li1323 1.970 . S
O1382 C1352 1.325 . S
O1383 Li1321 1.961 . S
O1383 Li1322 1.970 . S
O1383 Li1323 1.956 . S
O1383 C1358 1.325 . S
H1384 C1326 0.929 . S
H1385 C1327 0.930 . S
H1386 C1328 0.930 . S
H1387 C1329 0.930 . S
H1388 C1331 0.930 . S
H1389 C1333 0.929 . S
H1390 C1334 0.930 . S
H1391 C1335 0.930 . S
H1392 C1338 0.930 . S
H1393 C1341 0.929 . S
H1394 C1346 0.929 . S
H1395 C1347 0.930 . S
H1396 C1354 0.929 . S
H1397 C1355 0.930 . S
H1398 C1356 0.930 . S
H1399 C1357 0.930 . S
H1400 C1359 0.929 . S
H1401 C1360 0.930 . S
H1402 C1361 0.930 . S
H1403 C1362 0.930 . S
H1404 C1366 0.929 . S
H1405 C1368 0.930 . S
H1406 C1374 0.929 . S
H1407 C1375 0.930 . S
Li1408 N1425 1.990 . S
Li1408 O1468 1.956 . S
Li1408 O1469 1.970 . S
Li1408 O1470 1.961 . S
Li1409 N1433 1.990 . S
Li1409 O1468 1.970 . S
Li1409 O1469 1.956 . S
Li1409 O1471 1.961 . S
Li1410 N1455 1.990 . S
Li1410 O1468 1.961 . S
Li1410 O1470 1.956 . S
Li1410 O1471 1.970 . S
Li1411 N1461 1.990 . S
Li1411 O1469 1.961 . S
Li1411 O1470 1.970 . S
Li1411 O1471 1.956 . S
C1412 C1414 1.348 . S
C1412 C1415 1.356 . S
C1412 O1468 1.325 . S
N1413 C1416 1.298 1_455 S
N1413 C1417 1.282 1_565 S
C1414 C1412 1.348 . S
C1414 C1416 1.353 1_545 S
C1414 H1472 0.929 . S
C1415 C1412 1.356 . S
C1415 C1417 1.358 1_655 S
C1415 H1473 0.930 1_655 S
C1416 N1413 1.298 1_655 S
C1416 C1414 1.353 1_565 S
C1416 H1474 0.930 . S
C1417 N1413 1.282 1_545 S
C1417 C1415 1.358 1_455 S
C1417 H1475 0.930 . S
C1418 C1421 1.348 . S
C1418 C1422 1.356 . S
C1418 O1469 1.325 . S
C1419 N1420 1.279 . S
C1419 C1422 1.358 . S
C1419 H1476 0.930 . S
N1420 C1419 1.279 . S
N1420 C1423 1.314 . S
C1421 C1418 1.348 . S
C1421 C1423 1.353 . S
C1421 H1477 0.929 . S
C1422 C1418 1.356 . S
C1422 C1419 1.358 . S
C1422 H1478 0.930 . S
C1423 N1420 1.314 . S
C1423 C1421 1.353 . S
C1423 H1479 0.930 . S
C1424 N1425 1.314 . S
C1424 C1429 1.353 1_655 S
C1424 H1430 0.930 . S
N1425 Li1408 1.990 . S
N1425 C1424 1.314 . S
N1425 C1427 1.279 . S
C1426 C1427 1.358 1_455 S
C1426 C1428 1.356 . S
C1426 H1480 0.930 . S
C1427 N1425 1.279 . S
C1427 C1426 1.358 1_655 S
C1427 H1431 0.930 . S
C1428 C1426 1.356 . S
C1428 C1429 1.348 . S
C1429 C1424 1.353 1_455 S
C1429 C1428 1.348 . S
C1429 H1481 0.929 . S
H1430 C1424 0.930 . S
H1431 C1427 0.930 . S
C1432 N1433 1.314 1_565 S
C1432 C1434 1.353 . S
C1432 H1438 0.932 . S
N1433 Li1409 1.990 . S
N1433 C1432 1.314 1_545 S
N1433 C1436 1.279 . S
C1434 C1432 1.353 . S
C1434 C1437 1.348 . S
C1434 H1482 0.929 . S
C1435 C1436 1.358 1_565 S
C1435 C1437 1.356 . S
C1435 H1483 0.930 . S
C1436 N1433 1.279 . S
C1436 C1435 1.358 1_545 S
C1436 H1439 0.930 . S
C1437 C1434 1.348 . S
C1437 C1435 1.356 . S
H1438 C1432 0.932 . S
H1439 C1436 0.930 . S
C1440 C1442 1.348 . S
C1440 C1443 1.356 1_655 S
C1440 O1470 1.325 . S
N1441 C1444 1.314 1_455 S
N1441 C1445 1.279 . S
C1442 C1440 1.348 . S
C1442 C1444 1.353 . S
C1442 H1484 0.929 . S
C1443 C1440 1.356 1_455 S
C1443 C1445 1.358 . S
C1443 H1485 0.930 . S
C1444 N1441 1.314 1_655 S
C1444 C1442 1.353 . S
C1444 H1486 0.930 . S
C1445 N1441 1.279 . S
C1445 C1443 1.358 . S
C1445 H1487 0.930 . S
C1446 C1447 1.348 . S
C1446 C1448 1.356 . S
C1446 O1471 1.325 . S
C1447 C1446 1.348 . S
C1447 C1449 1.353 . S
C1447 H1488 0.929 . S
C1448 C1446 1.356 . S
C1448 C1450 1.358 . S
C1448 H1489 0.930 . S
C1449 C1447 1.353 . S
C1449 N1451 1.314 . S
C1449 H1490 0.930 . S
C1450 C1448 1.358 . S
C1450 N1451 1.279 . S
C1450 H1491 0.930 . S
N1451 C1449 1.314 . S
N1451 C1450 1.279 . S
C1452 C1454 1.353 . S
C1452 N1455 1.314 . S
C1452 H1458 0.930 . S
C1453 N1455 1.279 . S
C1453 C1456 1.358 1_655 S
C1453 H1459 0.930 . S
C1454 C1452 1.353 . S
C1454 C1457 1.348 1_655 S
C1454 H1492 0.929 . S
N1455 Li1410 1.990 . S
N1455 C1452 1.314 . S
N1455 C1453 1.279 . S
C1456 C1453 1.358 1_455 S
C1456 C1457 1.356 . S
C1456 H1493 0.930 . S
C1457 C1454 1.348 1_455 S
C1457 C1456 1.356 . S
H1458 C1452 0.930 . S
H1459 C1453 0.930 . S
C1460 N1461 1.314 . S
C1460 C1462 1.353 . S
C1460 H1466 0.930 . S
N1461 Li1411 1.990 . S
N1461 C1460 1.314 . S
N1461 C1464 1.279 . S
C1462 C1460 1.353 . S
C1462 C1465 1.348 . S
C1462 H1494 0.929 . S
C1463 C1464 1.358 . S
C1463 C1465 1.356 . S
C1463 H1495 0.930 . S
C1464 N1461 1.279 . S
C1464 C1463 1.358 . S
C1464 H1467 0.930 . S
C1465 C1462 1.348 . S
C1465 C1463 1.356 . S
H1466 C1460 0.930 . S
H1467 C1464 0.930 . S
O1468 Li1408 1.956 . S
O1468 Li1409 1.970 . S
O1468 Li1410 1.961 . S
O1468 C1412 1.325 . S
O1469 Li1408 1.970 . S
O1469 Li1409 1.956 . S
O1469 Li1411 1.961 . S
O1469 C1418 1.325 . S
O1470 Li1408 1.961 . S
O1470 Li1410 1.956 . S
O1470 Li1411 1.970 . S
O1470 C1440 1.325 . S
O1471 Li1409 1.961 . S
O1471 Li1410 1.970 . S
O1471 Li1411 1.956 . S
O1471 C1446 1.325 . S
H1472 C1414 0.929 . S
H1473 C1415 0.930 1_455 S
H1474 C1416 0.930 . S
H1475 C1417 0.930 . S
H1476 C1419 0.930 . S
H1477 C1421 0.929 . S
H1478 C1422 0.930 . S
H1479 C1423 0.930 . S
H1480 C1426 0.930 . S
H1481 C1429 0.929 . S
H1482 C1434 0.929 . S
H1483 C1435 0.930 . S
H1484 C1442 0.929 . S
H1485 C1443 0.930 . S
H1486 C1444 0.930 . S
H1487 C1445 0.930 . S
H1488 C1447 0.929 . S
H1489 C1448 0.930 . S
H1490 C1449 0.930 . S
H1491 C1450 0.930 . S
H1492 C1454 0.929 . S
H1493 C1456 0.930 . S
H1494 C1462 0.929 . S
H1495 C1463 0.930 . S
Li1496 N1513 1.990 . S
Li1496 O1556 1.956 . S
Li1496 O1557 1.970 . S
Li1496 O1558 1.961 . S
Li1497 N1521 1.990 . S
Li1497 O1556 1.970 . S
Li1497 O1557 1.956 . S
Li1497 O1559 1.961 . S
Li1498 N1543 1.990 . S
Li1498 O1556 1.961 . S
Li1498 O1558 1.956 . S
Li1498 O1559 1.970 . S
Li1499 N1549 1.990 . S
Li1499 O1557 1.961 . S
Li1499 O1558 1.970 . S
Li1499 O1559 1.956 . S
C1500 C1502 1.348 . S
C1500 C1503 1.356 . S
C1500 O1556 1.325 . S
N1501 C1504 1.314 . S
N1501 C1505 1.279 . S
C1502 C1500 1.348 . S
C1502 C1504 1.353 . S
C1502 H1560 0.929 . S
C1503 C1500 1.356 . S
C1503 C1505 1.358 . S
C1503 H1561 0.930 . S
C1504 N1501 1.314 . S
C1504 C1502 1.353 . S
C1504 H1562 0.930 . S
C1505 N1501 1.279 . S
C1505 C1503 1.358 . S
C1505 H1563 0.930 . S
C1506 C1509 1.348 . S
C1506 C1510 1.356 . S
C1506 O1557 1.325 . S
C1507 N1508 1.279 . S
C1507 C1510 1.358 . S
C1507 H1564 0.930 . S
N1508 C1507 1.279 . S
N1508 C1511 1.314 . S
C1509 C1506 1.348 . S
C1509 C1511 1.353 . S
C1509 H1565 0.929 . S
C1510 C1506 1.356 . S
C1510 C1507 1.358 . S
C1510 H1566 0.930 . S
C1511 N1508 1.314 . S
C1511 C1509 1.353 . S
C1511 H1567 0.930 . S
C1512 N1513 1.314 . S
C1512 C1517 1.353 . S
C1512 H1518 0.930 . S
N1513 Li1496 1.990 . S
N1513 C1512 1.314 . S
N1513 C1515 1.279 . S
C1514 C1515 1.358 . S
C1514 C1516 1.356 . S
C1514 H1568 0.930 . S
C1515 N1513 1.279 . S
C1515 C1514 1.358 . S
C1515 H1519 0.930 . S
C1516 C1514 1.356 . S
C1516 C1517 1.348 . S
C1517 C1512 1.353 . S
C1517 C1516 1.348 . S
C1517 H1569 0.929 . S
H1518 C1512 0.930 . S
H1519 C1515 0.930 . S
C1520 N1521 1.314 . S
C1520 C1522 1.353 . S
C1520 H1526 0.930 . S
N1521 Li1497 1.990 . S
N1521 C1520 1.314 . S
N1521 C1524 1.279 . S
C1522 C1520 1.353 . S
C1522 C1525 1.348 . S
C1522 H1570 0.929 . S
C1523 C1524 1.358 . S
C1523 C1525 1.356 . S
C1523 H1571 0.930 . S
C1524 N1521 1.279 . S
C1524 C1523 1.358 . S
C1524 H1527 0.930 . S
C1525 C1522 1.348 . S
C1525 C1523 1.356 . S
H1526 C1520 0.930 . S
H1527 C1524 0.930 . S
C1528 C1530 1.348 . S
C1528 C1531 1.356 . S
C1528 O1558 1.325 . S
N1529 C1532 1.314 . S
N1529 C1533 1.279 . S
C1530 C1528 1.348 . S
C1530 C1532 1.353 . S
C1530 H1572 0.929 . S
C1531 C1528 1.356 . S
C1531 C1533 1.358 . S
C1531 H1573 0.930 . S
C1532 N1529 1.314 . S
C1532 C1530 1.353 . S
C1532 H1574 0.930 . S
C1533 N1529 1.279 . S
C1533 C1531 1.358 . S
C1533 H1575 0.930 . S
C1534 C1535 1.348 . S
C1534 C1536 1.356 . S
C1534 O1559 1.325 . S
C1535 C1534 1.348 . S
C1535 C1537 1.353 . S
C1535 H1576 0.929 . S
C1536 C1534 1.356 . S
C1536 C1538 1.358 . S
C1536 H1577 0.930 . S
C1537 C1535 1.353 . S
C1537 N1539 1.314 . S
C1537 H1578 0.930 . S
C1538 C1536 1.358 . S
C1538 N1539 1.279 . S
C1538 H1579 0.930 . S
N1539 C1537 1.314 . S
N1539 C1538 1.279 . S
C1540 C1542 1.353 . S
C1540 N1543 1.314 . S
C1540 H1546 0.930 . S
C1541 N1543 1.279 . S
C1541 C1544 1.358 . S
C1541 H1547 0.930 . S
C1542 C1540 1.353 . S
C1542 C1545 1.348 . S
C1542 H1580 0.929 . S
N1543 Li1498 1.990 . S
N1543 C1540 1.314 . S
N1543 C1541 1.279 . S
C1544 C1541 1.358 . S
C1544 C1545 1.356 . S
C1544 H1581 0.930 . S
C1545 C1542 1.348 . S
C1545 C1544 1.356 . S
H1546 C1540 0.930 . S
H1547 C1541 0.930 . S
C1548 N1549 1.314 . S
C1548 C1550 1.353 . S
C1548 H1554 0.930 . S
N1549 Li1499 1.990 . S
N1549 C1548 1.314 . S
N1549 C1552 1.279 . S
C1550 C1548 1.353 . S
C1550 C1553 1.348 . S
C1550 H1582 0.929 . S
C1551 C1552 1.358 . S
C1551 C1553 1.356 . S
C1551 H1583 0.930 . S
C1552 N1549 1.279 . S
C1552 C1551 1.358 . S
C1552 H1555 0.930 . S
C1553 C1550 1.348 . S
C1553 C1551 1.356 . S
H1554 C1548 0.930 . S
H1555 C1552 0.930 . S
O1556 Li1496 1.956 . S
O1556 Li1497 1.970 . S
O1556 Li1498 1.961 . S
O1556 C1500 1.325 . S
O1557 Li1496 1.970 . S
O1557 Li1497 1.956 . S
O1557 Li1499 1.961 . S
O1557 C1506 1.325 . S
O1558 Li1496 1.961 . S
O1558 Li1498 1.956 . S
O1558 Li1499 1.970 . S
O1558 C1528 1.325 . S
O1559 Li1497 1.961 . S
O1559 Li1498 1.970 . S
O1559 Li1499 1.956 . S
O1559 C1534 1.325 . S
H1560 C1502 0.929 . S
H1561 C1503 0.930 . S
H1562 C1504 0.930 . S
H1563 C1505 0.930 . S
H1564 C1507 0.930 . S
H1565 C1509 0.929 . S
H1566 C1510 0.930 . S
H1567 C1511 0.930 . S
H1568 C1514 0.930 . S
H1569 C1517 0.929 . S
H1570 C1522 0.929 . S
H1571 C1523 0.930 . S
H1572 C1530 0.929 . S
H1573 C1531 0.930 . S
H1574 C1532 0.930 . S
H1575 C1533 0.930 . S
H1576 C1535 0.929 . S
H1577 C1536 0.930 . S
H1578 C1537 0.930 . S
H1579 C1538 0.930 . S
H1580 C1542 0.929 . S
H1581 C1544 0.930 . S
H1582 C1550 0.929 . S
H1583 C1551 0.930 . S
Li1584 N1601 1.990 . S
Li1584 O1644 1.956 . S
Li1584 O1645 1.970 . S
Li1584 O1646 1.961 . S
Li1585 N1609 1.990 . S
Li1585 O1644 1.970 . S
Li1585 O1645 1.956 . S
Li1585 O1647 1.961 . S
Li1586 N1631 1.990 . S
Li1586 O1644 1.961 . S
Li1586 O1646 1.956 . S
Li1586 O1647 1.970 . S
Li1587 N1637 1.990 . S
Li1587 O1645 1.961 . S
Li1587 O1646 1.970 . S
Li1587 O1647 1.956 . S
C1588 C1590 1.348 . S
C1588 C1591 1.356 . S
C1588 O1644 1.325 . S
N1589 C1592 1.314 . S
N1589 C1593 1.279 . S
C1590 C1588 1.348 . S
C1590 C1592 1.353 . S
C1590 H1648 0.929 . S
C1591 C1588 1.356 . S
C1591 C1593 1.358 . S
C1591 H1649 0.930 . S
C1592 N1589 1.314 . S
C1592 C1590 1.353 . S
C1592 H1650 0.930 . S
C1593 N1589 1.279 . S
C1593 C1591 1.358 . S
C1593 H1651 0.930 . S
C1594 C1597 1.348 . S
C1594 C1598 1.356 . S
C1594 O1645 1.325 . S
C1595 N1596 1.279 . S
C1595 C1598 1.358 . S
C1595 H1652 0.930 . S
N1596 C1595 1.279 . S
N1596 C1599 1.314 . S
C1597 C1594 1.348 . S
C1597 C1599 1.353 . S
C1597 H1653 0.929 . S
C1598 C1594 1.356 . S
C1598 C1595 1.358 . S
C1598 H1654 0.930 . S
C1599 N1596 1.314 . S
C1599 C1597 1.353 . S
C1599 H1655 0.930 . S
C1600 N1601 1.314 . S
C1600 C1605 1.353 . S
C1600 H1606 0.930 . S
N1601 Li1584 1.990 . S
N1601 C1600 1.314 . S
N1601 C1603 1.279 . S
C1602 C1603 1.358 . S
C1602 C1604 1.356 . S
C1602 H1656 0.930 . S
C1603 N1601 1.279 . S
C1603 C1602 1.358 . S
C1603 H1607 0.930 . S
C1604 C1602 1.356 . S
C1604 C1605 1.348 . S
C1605 C1600 1.353 . S
C1605 C1604 1.348 . S
C1605 H1657 0.929 . S
H1606 C1600 0.930 . S
H1607 C1603 0.930 . S
C1608 N1609 1.314 . S
C1608 C1610 1.353 . S
C1608 H1614 0.930 . S
N1609 Li1585 1.990 . S
N1609 C1608 1.314 . S
N1609 C1612 1.279 . S
C1610 C1608 1.353 . S
C1610 C1613 1.348 . S
C1610 H1658 0.929 . S
C1611 C1612 1.358 . S
C1611 C1613 1.356 . S
C1611 H1659 0.930 . S
C1612 N1609 1.279 . S
C1612 C1611 1.358 . S
C1612 H1615 0.930 . S
C1613 C1610 1.348 . S
C1613 C1611 1.356 . S
H1614 C1608 0.930 . S
H1615 C1612 0.930 . S
C1616 C1618 1.348 . S
C1616 C1619 1.356 . S
C1616 O1646 1.325 . S
N1617 C1620 1.314 . S
N1617 C1621 1.279 . S
C1618 C1616 1.348 . S
C1618 C1620 1.353 . S
C1618 H1660 0.929 . S
C1619 C1616 1.356 . S
C1619 C1621 1.358 . S
C1619 H1661 0.930 . S
C1620 N1617 1.314 . S
C1620 C1618 1.353 . S
C1620 H1662 0.930 . S
C1621 N1617 1.279 . S
C1621 C1619 1.358 . S
C1621 H1663 0.930 . S
C1622 C1623 1.348 . S
C1622 C1624 1.356 . S
C1622 O1647 1.325 . S
C1623 C1622 1.348 . S
C1623 C1625 1.353 . S
C1623 H1664 0.929 . S
C1624 C1622 1.356 . S
C1624 C1626 1.358 . S
C1624 H1665 0.930 . S
C1625 C1623 1.353 . S
C1625 N1627 1.314 . S
C1625 H1666 0.930 . S
C1626 C1624 1.358 . S
C1626 N1627 1.279 . S
C1626 H1667 0.930 . S
N1627 C1625 1.314 . S
N1627 C1626 1.279 . S
C1628 C1630 1.353 . S
C1628 N1631 1.314 . S
C1628 H1634 0.930 . S
C1629 N1631 1.279 . S
C1629 C1632 1.358 . S
C1629 H1635 0.930 . S
C1630 C1628 1.353 . S
C1630 C1633 1.348 . S
C1630 H1668 0.929 . S
N1631 Li1586 1.990 . S
N1631 C1628 1.314 . S
N1631 C1629 1.279 . S
C1632 C1629 1.358 . S
C1632 C1633 1.356 . S
C1632 H1669 0.930 . S
C1633 C1630 1.348 . S
C1633 C1632 1.356 . S
H1634 C1628 0.930 . S
H1635 C1629 0.930 . S
C1636 N1637 1.314 . S
C1636 C1638 1.353 . S
C1636 H1642 0.930 . S
N1637 Li1587 1.990 . S
N1637 C1636 1.314 . S
N1637 C1640 1.279 . S
C1638 C1636 1.353 . S
C1638 C1641 1.348 . S
C1638 H1670 0.929 . S
C1639 C1640 1.358 . S
C1639 C1641 1.356 . S
C1639 H1671 0.930 . S
C1640 N1637 1.279 . S
C1640 C1639 1.358 . S
C1640 H1643 0.930 . S
C1641 C1638 1.348 . S
C1641 C1639 1.356 . S
H1642 C1636 0.930 . S
H1643 C1640 0.930 . S
O1644 Li1584 1.956 . S
O1644 Li1585 1.970 . S
O1644 Li1586 1.961 . S
O1644 C1588 1.325 . S
O1645 Li1584 1.970 . S
O1645 Li1585 1.956 . S
O1645 Li1587 1.961 . S
O1645 C1594 1.325 . S
O1646 Li1584 1.961 . S
O1646 Li1586 1.956 . S
O1646 Li1587 1.970 . S
O1646 C1616 1.325 . S
O1647 Li1585 1.961 . S
O1647 Li1586 1.970 . S
O1647 Li1587 1.956 . S
O1647 C1622 1.325 . S
H1648 C1590 0.929 . S
H1649 C1591 0.930 . S
H1650 C1592 0.930 . S
H1651 C1593 0.930 . S
H1652 C1595 0.930 . S
H1653 C1597 0.929 . S
H1654 C1598 0.930 . S
H1655 C1599 0.930 . S
H1656 C1602 0.930 . S
H1657 C1605 0.929 . S
H1658 C1610 0.929 . S
H1659 C1611 0.930 . S
H1660 C1618 0.929 . S
H1661 C1619 0.930 . S
H1662 C1620 0.930 . S
H1663 C1621 0.930 . S
H1664 C1623 0.929 . S
H1665 C1624 0.930 . S
H1666 C1625 0.930 . S
H1667 C1626 0.930 . S
H1668 C1630 0.929 . S
H1669 C1632 0.930 . S
H1670 C1638 0.929 . S
H1671 C1639 0.930 . S
Li1672 N1689 1.990 . S
Li1672 O1732 1.956 . S
Li1672 O1733 1.970 . S
Li1672 O1734 1.961 . S
Li1673 N1697 1.990 . S
Li1673 O1732 1.970 . S
Li1673 O1733 1.956 . S
Li1673 O1735 1.961 . S
Li1674 N1719 1.990 . S
Li1674 O1732 1.961 . S
Li1674 O1734 1.956 . S
Li1674 O1735 1.970 . S
Li1675 N1725 1.990 . S
Li1675 O1733 1.961 . S
Li1675 O1734 1.970 . S
Li1675 O1735 1.956 . S
C1676 C1678 1.348 . S
C1676 C1679 1.356 . S
C1676 O1732 1.325 . S
N1677 C1680 1.314 . S
N1677 C1681 1.279 . S
C1678 C1676 1.348 . S
C1678 C1680 1.353 . S
C1678 H1736 0.929 . S
C1679 C1676 1.356 . S
C1679 C1681 1.358 . S
C1679 H1737 0.930 . S
C1680 N1677 1.314 . S
C1680 C1678 1.353 . S
C1680 H1738 0.930 . S
C1681 N1677 1.279 . S
C1681 C1679 1.358 . S
C1681 H1739 0.930 . S
C1682 C1685 1.348 . S
C1682 C1686 1.356 . S
C1682 O1733 1.325 . S
C1683 N1684 1.279 . S
C1683 C1686 1.358 . S
C1683 H1740 0.930 . S
N1684 C1683 1.279 . S
N1684 C1687 1.314 . S
C1685 C1682 1.348 . S
C1685 C1687 1.353 . S
C1685 H1741 0.929 . S
C1686 C1682 1.356 . S
C1686 C1683 1.358 . S
C1686 H1742 0.930 . S
C1687 N1684 1.314 . S
C1687 C1685 1.353 . S
C1687 H1743 0.930 . S
C1688 N1689 1.314 . S
C1688 C1693 1.353 . S
C1688 H1694 0.930 . S
N1689 Li1672 1.990 . S
N1689 C1688 1.314 . S
N1689 C1691 1.279 . S
C1690 C1691 1.358 . S
C1690 C1692 1.356 . S
C1690 H1744 0.930 . S
C1691 N1689 1.279 . S
C1691 C1690 1.358 . S
C1691 H1695 0.930 . S
C1692 C1690 1.356 . S
C1692 C1693 1.348 . S
C1693 C1688 1.353 . S
C1693 C1692 1.348 . S
C1693 H1745 0.929 . S
H1694 C1688 0.930 . S
H1695 C1691 0.930 . S
C1696 N1697 1.314 . S
C1696 C1698 1.353 . S
C1696 H1702 0.930 . S
N1697 Li1673 1.990 . S
N1697 C1696 1.314 . S
N1697 C1700 1.279 . S
C1698 C1696 1.353 . S
C1698 C1701 1.348 . S
C1698 H1746 0.929 . S
C1699 C1700 1.358 . S
C1699 C1701 1.356 . S
C1699 H1747 0.930 . S
C1700 N1697 1.279 . S
C1700 C1699 1.358 . S
C1700 H1703 0.930 . S
C1701 C1698 1.348 . S
C1701 C1699 1.356 . S
H1702 C1696 0.930 . S
H1703 C1700 0.930 . S
C1704 C1706 1.348 1_545 S
C1704 C1707 1.362 1_545 S
C1704 O1734 1.325 . S
N1705 C1708 1.314 . S
N1705 C1709 1.279 . S
C1706 C1704 1.348 1_565 S
C1706 C1708 1.353 . S
C1706 H1748 0.929 . S
C1707 C1704 1.362 1_565 S
C1707 C1709 1.392 . S
C1707 H1749 0.891 1_565 S
C1708 N1705 1.314 . S
C1708 C1706 1.353 . S
C1708 H1750 0.930 . S
C1709 N1705 1.279 . S
C1709 C1707 1.392 . S
C1709 H1751 0.930 . S
C1710 C1711 1.348 . S
C1710 C1712 1.356 . S
C1710 O1735 1.325 . S
C1711 C1710 1.348 . S
C1711 C1713 1.353 . S
C1711 H1752 0.929 . S
C1712 C1710 1.356 . S
C1712 C1714 1.358 . S
C1712 H1753 0.930 . S
C1713 C1711 1.353 . S
C1713 N1715 1.314 . S
C1713 H1754 0.930 . S
C1714 C1712 1.358 . S
C1714 N1715 1.279 . S
C1714 H1755 0.930 . S
N1715 C1713 1.314 . S
N1715 C1714 1.279 . S
C1716 C1718 1.353 . S
C1716 N1719 1.314 . S
C1716 H1722 0.930 . S
C1717 N1719 1.279 . S
C1717 C1720 1.358 . S
C1717 H1723 0.930 . S
C1718 C1716 1.353 . S
C1718 C1721 1.348 . S
C1718 H1756 0.929 . S
N1719 Li1674 1.990 . S
N1719 C1716 1.314 . S
N1719 C1717 1.279 . S
C1720 C1717 1.358 . S
C1720 C1721 1.356 . S
C1720 H1757 0.930 1_545 S
C1721 C1718 1.348 . S
C1721 C1720 1.356 . S
H1722 C1716 0.930 . S
H1723 C1717 0.930 . S
C1724 N1725 1.314 1_565 S
C1724 C1726 1.353 . S
C1724 H1730 0.929 . S
N1725 Li1675 1.990 . S
N1725 C1724 1.314 1_545 S
N1725 C1728 1.279 1_545 S
C1726 C1724 1.353 . S
C1726 C1729 1.348 . S
C1726 H1758 0.929 . S
C1727 C1728 1.358 . S
C1727 C1729 1.356 . S
C1727 H1759 0.930 . S
C1728 N1725 1.279 1_565 S
C1728 C1727 1.358 . S
C1728 H1731 0.930 1_565 S
C1729 C1726 1.348 . S
C1729 C1727 1.356 . S
H1730 C1724 0.929 . S
H1731 C1728 0.930 1_545 S
O1732 Li1672 1.956 . S
O1732 Li1673 1.970 . S
O1732 Li1674 1.961 . S
O1732 C1676 1.325 . S
O1733 Li1672 1.970 . S
O1733 Li1673 1.956 . S
O1733 Li1675 1.961 . S
O1733 C1682 1.325 . S
O1734 Li1672 1.961 . S
O1734 Li1674 1.956 . S
O1734 Li1675 1.970 . S
O1734 C1704 1.325 . S
O1735 Li1673 1.961 . S
O1735 Li1674 1.970 . S
O1735 Li1675 1.956 . S
O1735 C1710 1.325 . S
H1736 C1678 0.929 . S
H1737 C1679 0.930 . S
H1738 C1680 0.930 . S
H1739 C1681 0.930 . S
H1740 C1683 0.930 . S
H1741 C1685 0.929 . S
H1742 C1686 0.930 . S
H1743 C1687 0.930 . S
H1744 C1690 0.930 . S
H1745 C1693 0.929 . S
H1746 C1698 0.929 . S
H1747 C1699 0.930 . S
H1748 C1706 0.929 . S
H1749 C1707 0.891 1_545 S
H1750 C1708 0.930 . S
H1751 C1709 0.930 . S
H1752 C1711 0.929 . S
H1753 C1712 0.930 . S
H1754 C1713 0.930 . S
H1755 C1714 0.930 . S
H1756 C1718 0.929 . S
H1757 C1720 0.930 1_565 S
H1758 C1726 0.929 . S
H1759 C1727 0.930 . S
Li1760 N1777 1.990 . S
Li1760 O1820 1.956 . S
Li1760 O1821 1.970 . S
Li1760 O1822 1.961 . S
Li1761 N1785 1.989 . S
Li1761 O1820 1.975 1_556 S
Li1761 O1821 1.931 1_556 S
Li1761 O1823 1.986 . S
Li1762 N1807 1.990 . S
Li1762 O1820 1.961 1_556 S
Li1762 O1822 1.956 1_556 S
Li1762 O1823 1.970 . S
Li1763 N1813 1.990 . S
Li1763 O1821 1.961 1_556 S
Li1763 O1822 1.970 1_556 S
Li1763 O1823 1.956 . S
C1764 C1766 1.348 . S
C1764 C1767 1.356 . S
C1764 O1820 1.325 . S
N1765 C1768 1.314 . S
N1765 C1769 1.279 . S
C1766 C1764 1.348 . S
C1766 C1768 1.353 . S
C1766 H1824 0.929 . S
C1767 C1764 1.356 . S
C1767 C1769 1.358 . S
C1767 H1825 0.930 . S
C1768 N1765 1.314 . S
C1768 C1766 1.353 . S
C1768 H1826 0.930 . S
C1769 N1765 1.279 . S
C1769 C1767 1.358 . S
C1769 H1827 0.930 . S
C1770 C1773 1.348 . S
C1770 C1774 1.356 . S
C1770 O1821 1.325 . S
C1771 N1772 1.279 . S
C1771 C1774 1.358 . S
C1771 H1828 0.930 . S
N1772 C1771 1.279 . S
N1772 C1775 1.314 . S
C1773 C1770 1.348 . S
C1773 C1775 1.353 . S
C1773 H1829 0.929 . S
C1774 C1770 1.356 . S
C1774 C1771 1.358 . S
C1774 H1830 0.930 . S
C1775 N1772 1.314 . S
C1775 C1773 1.353 . S
C1775 H1831 0.930 . S
C1776 N1777 1.314 . S
C1776 C1781 1.353 . S
C1776 H1782 0.930 . S
N1777 Li1760 1.990 . S
N1777 C1776 1.314 . S
N1777 C1779 1.279 . S
C1778 C1779 1.358 . S
C1778 C1780 1.356 . S
C1778 H1832 0.930 . S
C1779 N1777 1.279 . S
C1779 C1778 1.358 . S
C1779 H1783 0.930 . S
C1780 C1778 1.356 . S
C1780 C1781 1.348 . S
C1781 C1776 1.353 . S
C1781 C1780 1.348 . S
C1781 H1833 0.929 . S
H1782 C1776 0.930 . S
H1783 C1779 0.930 . S
C1784 N1785 1.314 . S
C1784 C1786 1.353 . S
C1784 H1790 0.930 . S
N1785 Li1761 1.989 . S
N1785 C1784 1.314 . S
N1785 C1788 1.279 1_556 S
C1786 C1784 1.353 . S
C1786 C1789 1.348 . S
C1786 H1834 0.929 . S
C1787 C1788 1.358 . S
C1787 C1789 1.356 1_554 S
C1787 H1835 0.930 . S
C1788 N1785 1.279 1_554 S
C1788 C1787 1.358 . S
C1788 H1791 0.930 . S
C1789 C1786 1.348 . S
C1789 C1787 1.356 1_556 S
H1790 C1784 0.930 . S
H1791 C1788 0.930 . S
C1792 C1794 1.348 1_554 S
C1792 C1795 1.356 . S
C1792 O1822 1.325 . S
N1793 C1796 1.314 1_554 S
N1793 C1797 1.279 . S
C1794 C1792 1.348 1_556 S
C1794 C1796 1.353 . S
C1794 H1836 0.929 . S
C1795 C1792 1.356 . S
C1795 C1797 1.358 . S
C1795 H1837 0.930 . S
C1796 N1793 1.314 1_556 S
C1796 C1794 1.353 . S
C1796 H1838 0.930 . S
C1797 N1793 1.279 . S
C1797 C1795 1.358 . S
C1797 H1839 0.930 . S
C1798 C1799 1.348 . S
C1798 C1800 1.356 . S
C1798 O1823 1.325 . S
C1799 C1798 1.348 . S
C1799 C1801 1.353 . S
C1799 H1840 0.929 . S
C1800 C1798 1.356 . S
C1800 C1802 1.358 . S
C1800 H1841 0.930 . S
C1801 C1799 1.353 . S
C1801 N1803 1.314 . S
C1801 H1842 0.930 . S
C1802 C1800 1.358 . S
C1802 N1803 1.279 . S
C1802 H1843 0.930 . S
N1803 C1801 1.314 . S
N1803 C1802 1.279 . S
C1804 C1806 1.353 . S
C1804 N1807 1.314 . S
C1804 H1810 0.930 . S
C1805 N1807 1.279 . S
C1805 C1808 1.358 . S
C1805 H1811 0.930 . S
C1806 C1804 1.353 . S
C1806 C1809 1.348 . S
C1806 H1844 0.929 . S
N1807 Li1762 1.990 . S
N1807 C1804 1.314 . S
N1807 C1805 1.279 . S
C1808 C1805 1.358 . S
C1808 C1809 1.356 . S
C1808 H1845 0.930 . S
C1809 C1806 1.348 . S
C1809 C1808 1.356 . S
H1810 C1804 0.930 . S
H1811 C1805 0.930 . S
C1812 N1813 1.314 1_554 S
C1812 C1814 1.353 . S
C1812 H1818 0.930 . S
N1813 Li1763 1.990 . S
N1813 C1812 1.314 1_556 S
N1813 C1816 1.279 . S
C1814 C1812 1.353 . S
C1814 C1817 1.348 1_554 S
C1814 H1846 0.929 . S
C1815 C1816 1.358 . S
C1815 C1817 1.356 . S
C1815 H1847 0.930 . S
C1816 N1813 1.279 . S
C1816 C1815 1.358 . S
C1816 H1819 0.930 . S
C1817 C1814 1.348 1_556 S
C1817 C1815 1.356 . S
H1818 C1812 0.930 . S
H1819 C1816 0.930 . S
O1820 Li1760 1.956 . S
O1820 Li1761 1.975 1_554 S
O1820 Li1762 1.961 1_554 S
O1820 C1764 1.325 . S
O1821 Li1760 1.970 . S
O1821 Li1761 1.931 1_554 S
O1821 Li1763 1.961 1_554 S
O1821 C1770 1.325 . S
O1822 Li1760 1.961 . S
O1822 Li1762 1.956 1_554 S
O1822 Li1763 1.970 1_554 S
O1822 C1792 1.325 . S
O1823 Li1761 1.986 . S
O1823 Li1762 1.970 . S
O1823 Li1763 1.956 . S
O1823 C1798 1.325 . S
H1824 C1766 0.929 . S
H1825 C1767 0.930 . S
H1826 C1768 0.930 . S
H1827 C1769 0.930 . S
H1828 C1771 0.930 . S
H1829 C1773 0.929 . S
H1830 C1774 0.930 . S
H1831 C1775 0.930 . S
H1832 C1778 0.930 . S
H1833 C1781 0.929 . S
H1834 C1786 0.929 . S
H1835 C1787 0.930 . S
H1836 C1794 0.929 . S
H1837 C1795 0.930 . S
H1838 C1796 0.930 . S
H1839 C1797 0.930 . S
H1840 C1799 0.929 . S
H1841 C1800 0.930 . S
H1842 C1801 0.930 . S
H1843 C1802 0.930 . S
H1844 C1806 0.929 . S
H1845 C1808 0.930 . S
H1846 C1814 0.929 . S
H1847 C1815 0.930 . S
Li1848 N1865 1.990 . S
Li1848 O1908 1.956 . S
Li1848 O1909 1.970 . S
Li1848 O1910 1.961 . S
Li1849 N1873 1.990 . S
Li1849 O1908 1.970 . S
Li1849 O1909 1.956 . S
Li1849 O1911 1.961 . S
Li1850 N1895 1.990 . S
Li1850 O1908 1.961 . S
Li1850 O1910 1.956 . S
Li1850 O1911 1.970 . S
Li1851 N1901 1.990 . S
Li1851 O1909 1.961 . S
Li1851 O1910 1.970 . S
Li1851 O1911 1.956 . S
C1852 C1854 1.348 . S
C1852 C1855 1.356 . S
C1852 O1908 1.325 . S
N1853 C1856 1.314 . S
N1853 C1857 1.279 . S
C1854 C1852 1.348 . S
C1854 C1856 1.353 . S
C1854 H1912 0.929 . S
C1855 C1852 1.356 . S
C1855 C1857 1.358 . S
C1855 H1913 0.930 . S
C1856 N1853 1.314 . S
C1856 C1854 1.353 . S
C1856 H1914 0.930 . S
C1857 N1853 1.279 . S
C1857 C1855 1.358 . S
C1857 H1915 0.930 . S
C1858 C1861 1.348 . S
C1858 C1862 1.356 . S
C1858 O1909 1.325 . S
C1859 N1860 1.279 . S
C1859 C1862 1.358 . S
C1859 H1916 0.930 . S
N1860 C1859 1.279 . S
N1860 C1863 1.314 . S
C1861 C1858 1.348 . S
C1861 C1863 1.353 . S
C1861 H1917 0.929 . S
C1862 C1858 1.356 . S
C1862 C1859 1.358 . S
C1862 H1918 0.930 . S
C1863 N1860 1.314 . S
C1863 C1861 1.353 . S
C1863 H1919 0.930 . S
C1864 N1865 1.314 . S
C1864 C1869 1.353 . S
C1864 H1870 0.930 . S
N1865 Li1848 1.990 . S
N1865 C1864 1.314 . S
N1865 C1867 1.279 . S
C1866 C1867 1.358 . S
C1866 C1868 1.356 . S
C1866 H1920 0.930 . S
C1867 N1865 1.279 . S
C1867 C1866 1.358 . S
C1867 H1871 0.930 . S
C1868 C1866 1.356 . S
C1868 C1869 1.348 . S
C1869 C1864 1.353 . S
C1869 C1868 1.348 . S
C1869 H1921 0.929 . S
H1870 C1864 0.930 . S
H1871 C1867 0.930 . S
C1872 N1873 1.314 . S
C1872 C1874 1.353 . S
C1872 H1878 0.930 . S
N1873 Li1849 1.990 . S
N1873 C1872 1.314 . S
N1873 C1876 1.279 . S
C1874 C1872 1.353 . S
C1874 C1877 1.348 . S
C1874 H1922 0.929 . S
C1875 C1876 1.358 . S
C1875 C1877 1.356 . S
C1875 H1923 0.930 . S
C1876 N1873 1.279 . S
C1876 C1875 1.358 . S
C1876 H1879 0.930 . S
C1877 C1874 1.348 . S
C1877 C1875 1.356 . S
H1878 C1872 0.930 . S
H1879 C1876 0.930 . S
C1880 C1882 1.348 . S
C1880 C1883 1.356 . S
C1880 O1910 1.325 . S
N1881 C1884 1.314 . S
N1881 C1885 1.279 . S
C1882 C1880 1.348 . S
C1882 C1884 1.353 . S
C1882 H1924 0.929 . S
C1883 C1880 1.356 . S
C1883 C1885 1.358 . S
C1883 H1925 0.930 . S
C1884 N1881 1.314 . S
C1884 C1882 1.353 . S
C1884 H1926 0.930 . S
C1885 N1881 1.279 . S
C1885 C1883 1.358 . S
C1885 H1927 0.930 . S
C1886 C1887 1.348 . S
C1886 C1888 1.356 . S
C1886 O1911 1.325 . S
C1887 C1886 1.348 . S
C1887 C1889 1.353 . S
C1887 H1928 0.929 . S
C1888 C1886 1.356 . S
C1888 C1890 1.358 . S
C1888 H1929 0.930 . S
C1889 C1887 1.353 . S
C1889 N1891 1.314 . S
C1889 H1930 0.930 . S
C1890 C1888 1.358 . S
C1890 N1891 1.279 . S
C1890 H1931 0.930 1_655 S
N1891 C1889 1.314 . S
N1891 C1890 1.279 . S
C1892 C1894 1.353 . S
C1892 N1895 1.314 . S
C1892 H1898 0.930 . S
C1893 N1895 1.279 . S
C1893 C1896 1.358 . S
C1893 H1899 0.930 . S
C1894 C1892 1.353 . S
C1894 C1897 1.348 . S
C1894 H1932 0.929 . S
N1895 Li1850 1.990 . S
N1895 C1892 1.314 . S
N1895 C1893 1.279 . S
C1896 C1893 1.358 . S
C1896 C1897 1.356 . S
C1896 H1933 0.930 . S
C1897 C1894 1.348 . S
C1897 C1896 1.356 . S
H1898 C1892 0.930 . S
H1899 C1893 0.930 . S
C1900 N1901 1.314 . S
C1900 C1902 1.353 . S
C1900 H1906 0.930 . S
N1901 Li1851 1.990 . S
N1901 C1900 1.314 . S
N1901 C1904 1.279 . S
C1902 C1900 1.353 . S
C1902 C1905 1.348 . S
C1902 H1934 0.929 . S
C1903 C1904 1.358 . S
C1903 C1905 1.356 . S
C1903 H1935 0.930 . S
C1904 N1901 1.279 . S
C1904 C1903 1.358 . S
C1904 H1907 0.930 . S
C1905 C1902 1.348 . S
C1905 C1903 1.356 . S
H1906 C1900 0.930 . S
H1907 C1904 0.930 . S
O1908 Li1848 1.956 . S
O1908 Li1849 1.970 . S
O1908 Li1850 1.961 . S
O1908 C1852 1.325 . S
O1909 Li1848 1.970 . S
O1909 Li1849 1.956 . S
O1909 Li1851 1.961 . S
O1909 C1858 1.325 . S
O1910 Li1848 1.961 . S
O1910 Li1850 1.956 . S
O1910 Li1851 1.970 . S
O1910 C1880 1.325 . S
O1911 Li1849 1.961 . S
O1911 Li1850 1.970 . S
O1911 Li1851 1.956 . S
O1911 C1886 1.325 . S
H1912 C1854 0.929 . S
H1913 C1855 0.930 . S
H1914 C1856 0.930 . S
H1915 C1857 0.930 . S
H1916 C1859 0.930 . S
H1917 C1861 0.929 . S
H1918 C1862 0.930 . S
H1919 C1863 0.930 . S
H1920 C1866 0.930 . S
H1921 C1869 0.929 . S
H1922 C1874 0.929 . S
H1923 C1875 0.930 . S
H1924 C1882 0.929 . S
H1925 C1883 0.930 . S
H1926 C1884 0.930 . S
H1927 C1885 0.930 . S
H1928 C1887 0.929 . S
H1929 C1888 0.930 . S
H1930 C1889 0.930 . S
H1931 C1890 0.930 1_455 S
H1932 C1894 0.929 . S
H1933 C1896 0.930 . S
H1934 C1902 0.929 . S
H1935 C1903 0.930 . S
Li1936 N1953 1.990 . S
Li1936 O1996 1.956 . S
Li1936 O1997 1.970 . S
Li1936 O1998 1.961 . S
Li1937 N1961 1.990 . S
Li1937 O1996 1.970 . S
Li1937 O1997 1.956 . S
Li1937 O1999 1.961 . S
Li1938 N1983 1.990 . S
Li1938 O1996 1.961 . S
Li1938 O1998 1.956 . S
Li1938 O1999 1.970 . S
Li1939 N1989 1.990 . S
Li1939 O1997 1.961 . S
Li1939 O1998 1.970 . S
Li1939 O1999 1.956 . S
C1940 C1942 1.348 . S
C1940 C1943 1.356 . S
C1940 O1996 1.325 . S
N1941 C1944 1.314 . S
N1941 C1945 1.279 . S
C1942 C1940 1.348 . S
C1942 C1944 1.353 . S
C1942 H2000 0.929 . S
C1943 C1940 1.356 . S
C1943 C1945 1.358 . S
C1943 H2001 0.930 . S
C1944 N1941 1.314 . S
C1944 C1942 1.353 . S
C1944 H2002 0.930 . S
C1945 N1941 1.279 . S
C1945 C1943 1.358 . S
C1945 H2003 0.930 . S
C1946 C1949 1.348 . S
C1946 C1950 1.356 . S
C1946 O1997 1.325 . S
C1947 N1948 1.279 . S
C1947 C1950 1.358 . S
C1947 H2004 0.930 . S
N1948 C1947 1.279 . S
N1948 C1951 1.314 . S
C1949 C1946 1.348 . S
C1949 C1951 1.353 . S
C1949 H2005 0.929 . S
C1950 C1946 1.356 . S
C1950 C1947 1.358 . S
C1950 H2006 0.930 . S
C1951 N1948 1.314 . S
C1951 C1949 1.353 . S
C1951 H2007 0.930 . S
C1952 N1953 1.314 . S
C1952 C1957 1.353 . S
C1952 H1958 0.930 . S
N1953 Li1936 1.990 . S
N1953 C1952 1.314 . S
N1953 C1955 1.279 . S
C1954 C1955 1.358 . S
C1954 C1956 1.356 . S
C1954 H2008 0.930 . S
C1955 N1953 1.279 . S
C1955 C1954 1.358 . S
C1955 H1959 0.930 . S
C1956 C1954 1.356 . S
C1956 C1957 1.348 . S
C1957 C1952 1.353 . S
C1957 C1956 1.348 . S
C1957 H2009 0.929 . S
H1958 C1952 0.930 . S
H1959 C1955 0.930 . S
C1960 N1961 1.314 . S
C1960 C1962 1.353 . S
C1960 H1966 0.930 . S
N1961 Li1937 1.990 . S
N1961 C1960 1.314 . S
N1961 C1964 1.279 . S
C1962 C1960 1.353 . S
C1962 C1965 1.348 . S
C1962 H2010 0.929 . S
C1963 C1964 1.358 . S
C1963 C1965 1.356 . S
C1963 H2011 0.930 . S
C1964 N1961 1.279 . S
C1964 C1963 1.358 . S
C1964 H1967 0.930 . S
C1965 C1962 1.348 . S
C1965 C1963 1.356 . S
H1966 C1960 0.930 . S
H1967 C1964 0.930 . S
C1968 C1970 1.348 . S
C1968 C1971 1.356 . S
C1968 O1998 1.325 . S
N1969 C1972 1.314 . S
N1969 C1973 1.279 . S
C1970 C1968 1.348 . S
C1970 C1972 1.353 . S
C1970 H2012 0.929 . S
C1971 C1968 1.356 . S
C1971 C1973 1.358 . S
C1971 H2013 0.930 . S
C1972 N1969 1.314 . S
C1972 C1970 1.353 . S
C1972 H2014 0.930 . S
C1973 N1969 1.279 . S
C1973 C1971 1.358 . S
C1973 H2015 0.930 . S
C1974 C1975 1.348 . S
C1974 C1976 1.356 . S
C1974 O1999 1.325 . S
C1975 C1974 1.348 . S
C1975 C1977 1.353 . S
C1975 H2016 0.929 . S
C1976 C1974 1.356 . S
C1976 C1978 1.358 . S
C1976 H2017 0.930 . S
C1977 C1975 1.353 . S
C1977 N1979 1.314 . S
C1977 H2018 0.930 . S
C1978 C1976 1.358 . S
C1978 N1979 1.279 . S
C1978 H2019 0.930 . S
N1979 C1977 1.314 . S
N1979 C1978 1.279 . S
C1980 C1982 1.353 . S
C1980 N1983 1.314 . S
C1980 H1986 0.930 . S
C1981 N1983 1.279 . S
C1981 C1984 1.358 . S
C1981 H1987 0.930 . S
C1982 C1980 1.353 . S
C1982 C1985 1.348 . S
C1982 H2020 0.929 . S
N1983 Li1938 1.990 . S
N1983 C1980 1.314 . S
N1983 C1981 1.279 . S
C1984 C1981 1.358 . S
C1984 C1985 1.356 . S
C1984 H2021 0.930 . S
C1985 C1982 1.348 . S
C1985 C1984 1.356 . S
H1986 C1980 0.930 . S
H1987 C1981 0.930 . S
C1988 N1989 1.314 . S
C1988 C1990 1.353 . S
C1988 H1994 0.930 . S
N1989 Li1939 1.990 . S
N1989 C1988 1.314 . S
N1989 C1992 1.279 . S
C1990 C1988 1.353 . S
C1990 C1993 1.348 . S
C1990 H2022 0.929 . S
C1991 C1992 1.358 . S
C1991 C1993 1.356 . S
C1991 H2023 0.930 . S
C1992 N1989 1.279 . S
C1992 C1991 1.358 . S
C1992 H1995 0.930 . S
C1993 C1990 1.348 . S
C1993 C1991 1.356 . S
H1994 C1988 0.930 . S
H1995 C1992 0.930 . S
O1996 Li1936 1.956 . S
O1996 Li1937 1.970 . S
O1996 Li1938 1.961 . S
O1996 C1940 1.325 . S
O1997 Li1936 1.970 . S
O1997 Li1937 1.956 . S
O1997 Li1939 1.961 . S
O1997 C1946 1.325 . S
O1998 Li1936 1.961 . S
O1998 Li1938 1.956 . S
O1998 Li1939 1.970 . S
O1998 C1968 1.325 . S
O1999 Li1937 1.961 . S
O1999 Li1938 1.970 . S
O1999 Li1939 1.956 . S
O1999 C1974 1.325 . S
H2000 C1942 0.929 . S
H2001 C1943 0.930 . S
H2002 C1944 0.930 . S
H2003 C1945 0.930 . S
H2004 C1947 0.930 . S
H2005 C1949 0.929 . S
H2006 C1950 0.930 . S
H2007 C1951 0.930 . S
H2008 C1954 0.930 . S
H2009 C1957 0.929 . S
H2010 C1962 0.929 . S
H2011 C1963 0.930 . S
H2012 C1970 0.929 . S
H2013 C1971 0.930 . S
H2014 C1972 0.930 . S
H2015 C1973 0.930 . S
H2016 C1975 0.929 . S
H2017 C1976 0.930 . S
H2018 C1977 0.930 . S
H2019 C1978 0.930 . S
H2020 C1982 0.929 . S
H2021 C1984 0.930 . S
H2022 C1990 0.929 . S
H2023 C1991 0.930 . S
Li2024 N2041 1.990 . S
Li2024 O2084 1.956 . S
Li2024 O2085 1.970 . S
Li2024 O2086 1.961 . S
Li2025 N2049 1.990 . S
Li2025 O2084 1.970 . S
Li2025 O2085 1.956 . S
Li2025 O2087 1.961 . S
Li2026 N2071 1.990 . S
Li2026 O2084 1.961 . S
Li2026 O2086 1.956 . S
Li2026 O2087 1.970 . S
Li2027 N2077 1.990 . S
Li2027 O2085 1.961 . S
Li2027 O2086 1.970 . S
Li2027 O2087 1.956 . S
C2028 C2030 1.348 . S
C2028 C2031 1.356 . S
C2028 O2084 1.325 . S
N2029 C2032 1.314 . S
N2029 C2033 1.279 . S
C2030 C2028 1.348 . S
C2030 C2032 1.353 . S
C2030 H2088 0.929 . S
C2031 C2028 1.356 . S
C2031 C2033 1.358 . S
C2031 H2089 0.930 . S
C2032 N2029 1.314 . S
C2032 C2030 1.353 . S
C2032 H2090 0.930 . S
C2033 N2029 1.279 . S
C2033 C2031 1.358 . S
C2033 H2091 0.930 . S
C2034 C2037 1.348 . S
C2034 C2038 1.356 . S
C2034 O2085 1.325 . S
C2035 N2036 1.279 . S
C2035 C2038 1.358 . S
C2035 H2092 0.930 . S
N2036 C2035 1.279 . S
N2036 C2039 1.314 . S
C2037 C2034 1.348 . S
C2037 C2039 1.353 . S
C2037 H2093 0.929 . S
C2038 C2034 1.356 . S
C2038 C2035 1.358 . S
C2038 H2094 0.930 . S
C2039 N2036 1.314 . S
C2039 C2037 1.353 . S
C2039 H2095 0.930 . S
C2040 N2041 1.314 . S
C2040 C2045 1.353 . S
C2040 H2046 0.930 . S
N2041 Li2024 1.990 . S
N2041 C2040 1.314 . S
N2041 C2043 1.279 . S
C2042 C2043 1.358 . S
C2042 C2044 1.356 . S
C2042 H2096 0.930 . S
C2043 N2041 1.279 . S
C2043 C2042 1.358 . S
C2043 H2047 0.930 . S
C2044 C2042 1.356 . S
C2044 C2045 1.348 . S
C2045 C2040 1.353 . S
C2045 C2044 1.348 . S
C2045 H2097 0.929 . S
H2046 C2040 0.930 . S
H2047 C2043 0.930 . S
C2048 N2049 1.314 . S
C2048 C2050 1.353 . S
C2048 H2054 0.930 . S
N2049 Li2025 1.990 . S
N2049 C2048 1.314 . S
N2049 C2052 1.279 . S
C2050 C2048 1.353 . S
C2050 C2053 1.348 . S
C2050 H2098 0.929 . S
C2051 C2052 1.358 . S
C2051 C2053 1.356 . S
C2051 H2099 0.930 . S
C2052 N2049 1.279 . S
C2052 C2051 1.358 . S
C2052 H2055 0.930 . S
C2053 C2050 1.348 . S
C2053 C2051 1.356 . S
H2054 C2048 0.930 . S
H2055 C2052 0.930 . S
C2056 C2058 1.348 . S
C2056 C2059 1.356 . S
C2056 O2086 1.325 . S
N2057 C2060 1.314 . S
N2057 C2061 1.279 . S
C2058 C2056 1.348 . S
C2058 C2060 1.353 . S
C2058 H2100 0.929 . S
C2059 C2056 1.356 . S
C2059 C2061 1.358 . S
C2059 H2101 0.930 . S
C2060 N2057 1.314 . S
C2060 C2058 1.353 . S
C2060 H2102 0.930 . S
C2061 N2057 1.279 . S
C2061 C2059 1.358 . S
C2061 H2103 0.930 . S
C2062 C2063 1.348 . S
C2062 C2064 1.356 . S
C2062 O2087 1.325 . S
C2063 C2062 1.348 . S
C2063 C2065 1.353 . S
C2063 H2104 0.929 . S
C2064 C2062 1.356 . S
C2064 C2066 1.358 . S
C2064 H2105 0.930 . S
C2065 C2063 1.353 . S
C2065 N2067 1.314 . S
C2065 H2106 0.930 . S
C2066 C2064 1.358 . S
C2066 N2067 1.279 . S
C2066 H2107 0.930 . S
N2067 C2065 1.314 . S
N2067 C2066 1.279 . S
C2068 C2070 1.353 . S
C2068 N2071 1.314 . S
C2068 H2074 0.930 . S
C2069 N2071 1.279 . S
C2069 C2072 1.358 . S
C2069 H2075 0.930 . S
C2070 C2068 1.353 . S
C2070 C2073 1.348 . S
C2070 H2108 0.929 . S
N2071 Li2026 1.990 . S
N2071 C2068 1.314 . S
N2071 C2069 1.279 . S
C2072 C2069 1.358 . S
C2072 C2073 1.356 . S
C2072 H2109 0.930 . S
C2073 C2070 1.348 . S
C2073 C2072 1.356 . S
H2074 C2068 0.930 . S
H2075 C2069 0.930 . S
C2076 N2077 1.314 . S
C2076 C2078 1.353 . S
C2076 H2082 0.930 . S
N2077 Li2027 1.990 . S
N2077 C2076 1.314 . S
N2077 C2080 1.279 . S
C2078 C2076 1.353 . S
C2078 C2081 1.348 . S
C2078 H2110 0.929 . S
C2079 C2080 1.358 . S
C2079 C2081 1.356 . S
C2079 H2111 0.930 . S
C2080 N2077 1.279 . S
C2080 C2079 1.358 . S
C2080 H2083 0.930 . S
C2081 C2078 1.348 . S
C2081 C2079 1.356 . S
H2082 C2076 0.930 . S
H2083 C2080 0.930 . S
O2084 Li2024 1.956 . S
O2084 Li2025 1.970 . S
O2084 Li2026 1.961 . S
O2084 C2028 1.325 . S
O2085 Li2024 1.970 . S
O2085 Li2025 1.956 . S
O2085 Li2027 1.961 . S
O2085 C2034 1.325 . S
O2086 Li2024 1.961 . S
O2086 Li2026 1.956 . S
O2086 Li2027 1.970 . S
O2086 C2056 1.325 . S
O2087 Li2025 1.961 . S
O2087 Li2026 1.970 . S
O2087 Li2027 1.956 . S
O2087 C2062 1.325 . S
H2088 C2030 0.929 . S
H2089 C2031 0.930 . S
H2090 C2032 0.930 . S
H2091 C2033 0.930 . S
H2092 C2035 0.930 . S
H2093 C2037 0.929 . S
H2094 C2038 0.930 . S
H2095 C2039 0.930 . S
H2096 C2042 0.930 . S
H2097 C2045 0.929 . S
H2098 C2050 0.929 . S
H2099 C2051 0.930 . S
H2100 C2058 0.929 . S
H2101 C2059 0.930 . S
H2102 C2060 0.930 . S
H2103 C2061 0.930 . S
H2104 C2063 0.929 . S
H2105 C2064 0.930 . S
H2106 C2065 0.930 . S
H2107 C2066 0.930 . S
H2108 C2070 0.929 . S
H2109 C2072 0.930 . S
H2110 C2078 0.929 . S
H2111 C2079 0.930 . S
Tb2112 N2143 2.660 1_545 S
Tb2112 N2150 2.600 1_544 S
Tb2112 O2156 2.546 1_454 S
Tb2112 O2157 2.610 . S
Tb2112 O2159 2.320 . S
Tb2112 O2160 2.546 1_554 S
Tb2112 O2161 2.413 1_455 S
Tb2112 O2163 2.362 . S
Tb2112 O2164 2.421 1_554 S
Tb2112 C2176 2.833 1_454 S
C2113 C2116 1.432 . S
C2113 C2117 1.414 . S
C2113 N2120 1.359 . S
C2114 C2116 1.417 . S
C2114 C2118 1.432 . S
C2114 C2126 1.410 1_554 S
C2115 C2117 1.444 . S
C2115 C2118 1.317 . S
C2115 H2138 0.929 . S
C2116 C2113 1.432 . S
C2116 C2114 1.417 . S
C2116 N2124 1.360 . S
C2117 C2113 1.414 . S
C2117 C2115 1.444 . S
C2117 C2122 1.385 . S
C2118 C2114 1.432 . S
C2118 C2115 1.317 . S
C2118 H2130 0.930 . S
C2119 C2121 1.392 . S
C2119 C2122 1.370 . S
C2119 H2131 0.931 . S
N2120 C2113 1.359 . S
N2120 C2121 1.327 . S
N2120 Tb2123 2.600 . S
C2121 C2119 1.392 . S
C2121 N2120 1.327 . S
C2121 H2128 0.930 . S
C2122 C2117 1.385 . S
C2122 C2119 1.370 . S
C2122 H2141 0.930 . S
Tb2123 N2120 2.600 . S
Tb2123 N2124 2.660 . S
Tb2123 O2157 2.362 . S
Tb2123 O2158 2.421 . S
Tb2123 O2162 2.546 . S
Tb2123 O2163 2.610 . S
Tb2123 O2165 2.320 1_554 S
Tb2123 O2166 2.552 . S
Tb2123 O2167 2.413 . S
Tb2123 C2187 2.833 . S
N2124 C2116 1.360 . S
N2124 Tb2123 2.660 . S
N2124 C2125 1.305 1_554 S
C2125 N2124 1.305 1_556 S
C2125 C2127 1.407 . S
C2125 H2132 0.930 . S
C2126 C2114 1.410 1_556 S
C2126 C2127 1.345 . S
C2126 H2134 0.930 . S
C2127 C2125 1.407 . S
C2127 C2126 1.345 . S
C2127 H2129 0.930 . S
H2128 C2121 0.930 . S
H2129 C2127 0.930 . S
H2130 C2118 0.930 . S
H2131 C2119 0.931 . S
H2132 C2125 0.930 . S
H2133 C2147 0.930 . S
H2134 C2126 0.930 . S
H2135 C2153 0.930 . S
H2136 C2144 0.930 . S
H2137 C2151 0.931 . S
H2138 C2115 0.929 . S
H2139 C2145 0.930 . S
H2140 C2178 0.933 1_554 S
H2141 C2122 0.930 . S
H2142 C2177 0.929 . S
N2143 Tb2112 2.660 1_565 S
N2143 C2144 1.305 . S
N2143 C2148 1.357 1_455 S
C2144 H2136 0.930 . S
C2144 N2143 1.305 . S
C2144 C2147 1.407 . S
C2145 H2139 0.930 . S
C2145 C2146 1.410 . S
C2145 C2147 1.345 1_655 S
C2146 C2145 1.410 . S
C2146 C2148 1.421 . S
C2146 C2178 1.432 1_554 S
C2147 H2133 0.930 . S
C2147 C2144 1.407 . S
C2147 C2145 1.345 1_455 S
C2148 N2143 1.357 1_655 S
C2148 C2146 1.421 . S
C2148 C2152 1.433 1_554 S
H2149 C2154 0.930 . S
N2150 Tb2112 2.600 1_566 S
N2150 C2152 1.345 1_455 S
N2150 C2153 1.327 . S
C2151 H2137 0.931 . S
C2151 C2153 1.392 1_655 S
C2151 C2154 1.370 . S
C2152 C2148 1.433 1_556 S
C2152 N2150 1.345 1_655 S
C2152 C2155 1.425 . S
C2153 H2135 0.930 . S
C2153 N2150 1.327 . S
C2153 C2151 1.392 1_455 S
C2154 H2149 0.930 . S
C2154 C2151 1.370 . S
C2154 C2155 1.385 . S
C2155 C2152 1.425 . S
C2155 C2154 1.385 . S
C2155 C2177 1.444 . S
O2156 Tb2112 2.546 1_656 S
O2156 C2176 1.251 . S
O2157 Tb2112 2.610 . S
O2157 Tb2123 2.362 . S
O2157 C2168 1.283 . S
O2158 Tb2123 2.421 . S
O2158 C2175 1.262 . S
O2159 Tb2112 2.320 . S
O2159 C2175 1.260 . S
O2160 Tb2112 2.546 1_556 S
O2160 C2168 1.233 1_556 S
O2161 Tb2112 2.413 1_655 S
O2161 C2176 1.256 1_554 S
O2162 Tb2123 2.546 . S
O2162 C2187 1.251 . S
O2163 Tb2112 2.362 . S
O2163 Tb2123 2.610 . S
O2163 C2179 1.283 1_545 S
O2164 Tb2112 2.421 1_556 S
O2164 C2186 1.262 . S
O2165 Tb2123 2.320 1_556 S
O2165 C2186 1.260 . S
O2166 Tb2123 2.552 . S
O2166 C2179 1.243 1_545 S
O2167 Tb2123 2.413 . S
O2167 C2187 1.256 . S
C2168 O2157 1.283 . S
C2168 O2160 1.233 1_554 S
C2169 C2171 1.382 1_556 S
C2169 C2173 1.393 . S
C2169 C2176 1.500 . S
C2170 C2171 1.400 1_556 S
C2170 C2172 1.384 . S
C2171 C2169 1.382 1_554 S
C2171 C2170 1.400 1_554 S
C2171 H2188 0.930 . S
C2172 C2170 1.384 . S
C2172 C2174 1.392 . S
C2172 H2189 0.931 . S
C2173 C2169 1.393 . S
C2173 C2174 1.401 . S
C2173 H2190 0.930 . S
C2174 C2172 1.392 . S
C2174 C2173 1.401 . S
C2174 H2191 0.930 . S
C2175 O2158 1.262 . S
C2175 O2159 1.260 . S
C2176 Tb2112 2.833 1_656 S
C2176 O2156 1.251 . S
C2176 O2161 1.256 1_556 S
C2176 C2169 1.500 . S
C2177 H2142 0.929 . S
C2177 C2155 1.444 . S
C2177 C2178 1.317 . S
C2178 H2140 0.933 1_556 S
C2178 C2146 1.432 1_556 S
C2178 C2177 1.317 . S
C2179 O2163 1.283 1_565 S
C2179 O2166 1.243 1_565 S
C2180 C2181 1.382 . S
C2180 C2184 1.393 . S
C2180 C2187 1.500 . S
C2181 C2180 1.382 . S
C2181 C2182 1.400 . S
C2181 H2192 0.930 . S
C2182 C2181 1.400 . S
C2182 C2183 1.384 . S
C2183 C2182 1.384 . S
C2183 C2185 1.392 . S
C2183 H2193 0.931 . S
C2184 C2180 1.393 . S
C2184 C2185 1.401 . S
C2184 H2194 0.930 . S
C2185 C2183 1.392 . S
C2185 C2184 1.401 . S
C2185 H2195 0.930 . S
C2186 O2164 1.262 . S
C2186 O2165 1.260 . S
C2187 Tb2123 2.833 . S
C2187 O2162 1.251 . S
C2187 O2167 1.256 . S
C2187 C2180 1.500 . S
H2188 C2171 0.930 . S
H2189 C2172 0.931 . S
H2190 C2173 0.930 . S
H2191 C2174 0.930 . S
H2192 C2181 0.930 . S
H2193 C2183 0.931 . S
H2194 C2184 0.930 . S
H2195 C2185 0.930 . S
Tb2196 N2227 2.660 . S
Tb2196 N2234 2.600 . S
Tb2196 O2240 2.546 . S
Tb2196 O2241 2.610 . S
Tb2196 O2243 2.320 . S
Tb2196 O2244 2.552 . S
Tb2196 O2245 2.413 . S
Tb2196 O2247 2.362 . S
Tb2196 O2248 2.421 . S
Tb2196 C2260 2.833 . S
C2197 C2200 1.432 . S
C2197 C2201 1.414 . S
C2197 N2204 1.359 . S
C2198 C2200 1.417 . S
C2198 C2202 1.432 . S
C2198 C2210 1.410 . S
C2199 C2201 1.444 . S
C2199 C2202 1.317 . S
C2199 H2222 0.929 . S
C2200 C2197 1.432 . S
C2200 C2198 1.417 . S
C2200 N2208 1.360 . S
C2201 C2197 1.414 . S
C2201 C2199 1.444 . S
C2201 C2206 1.385 . S
C2202 C2198 1.432 . S
C2202 C2199 1.317 . S
C2202 H2214 0.930 . S
C2203 C2205 1.392 . S
C2203 C2206 1.370 . S
C2203 H2215 0.931 . S
N2204 C2197 1.359 . S
N2204 C2205 1.327 . S
N2204 Tb2207 2.600 . S
C2205 C2203 1.392 . S
C2205 N2204 1.327 . S
C2205 H2212 0.930 . S
C2206 C2201 1.385 . S
C2206 C2203 1.370 . S
C2206 H2225 0.930 . S
Tb2207 N2204 2.600 . S
Tb2207 N2208 2.660 . S
Tb2207 O2241 2.362 . S
Tb2207 O2242 2.421 . S
Tb2207 O2246 2.546 . S
Tb2207 O2247 2.610 . S
Tb2207 O2249 2.320 . S
Tb2207 O2250 2.552 . S
Tb2207 O2251 2.413 . S
Tb2207 C2271 2.833 . S
N2208 C2200 1.360 . S
N2208 Tb2207 2.660 . S
N2208 C2209 1.305 . S
C2209 N2208 1.305 . S
C2209 C2211 1.407 . S
C2209 H2216 0.930 . S
C2210 C2198 1.410 . S
C2210 C2211 1.345 . S
C2210 H2218 0.930 . S
C2211 C2209 1.407 . S
C2211 C2210 1.345 . S
C2211 H2213 0.930 . S
H2212 C2205 0.930 . S
H2213 C2211 0.930 . S
H2214 C2202 0.930 . S
H2215 C2203 0.931 . S
H2216 C2209 0.930 . S
H2217 C2231 0.930 . S
H2218 C2210 0.930 . S
H2219 C2237 0.930 . S
H2220 C2228 0.930 . S
H2221 C2235 0.931 . S
H2222 C2199 0.929 . S
H2223 C2229 0.930 . S
H2224 C2262 0.930 . S
H2225 C2206 0.930 . S
H2226 C2261 0.929 . S
N2227 Tb2196 2.660 . S
N2227 C2228 1.305 . S
N2227 C2232 1.360 . S
C2228 H2220 0.930 . S
C2228 N2227 1.305 . S
C2228 C2231 1.407 . S
C2229 H2223 0.930 . S
C2229 C2230 1.410 . S
C2229 C2231 1.345 . S
C2230 C2229 1.410 . S
C2230 C2232 1.417 . S
C2230 C2262 1.432 . S
C2231 H2217 0.930 . S
C2231 C2228 1.407 . S
C2231 C2229 1.345 . S
C2232 N2227 1.360 . S
C2232 C2230 1.417 . S
C2232 C2236 1.432 . S
H2233 C2238 0.930 . S
N2234 Tb2196 2.600 . S
N2234 C2236 1.359 . S
N2234 C2237 1.327 . S
C2235 H2221 0.931 . S
C2235 C2237 1.392 . S
C2235 C2238 1.370 . S
C2236 C2232 1.432 . S
C2236 N2234 1.359 . S
C2236 C2239 1.414 . S
C2237 H2219 0.930 . S
C2237 N2234 1.327 . S
C2237 C2235 1.392 . S
C2238 H2233 0.930 . S
C2238 C2235 1.370 . S
C2238 C2239 1.385 . S
C2239 C2236 1.414 . S
C2239 C2238 1.385 . S
C2239 C2261 1.444 . S
O2240 Tb2196 2.546 . S
O2240 C2260 1.251 . S
O2241 Tb2196 2.610 . S
O2241 Tb2207 2.362 . S
O2241 C2252 1.283 . S
O2242 Tb2207 2.421 . S
O2242 C2259 1.262 . S
O2243 Tb2196 2.320 . S
O2243 C2259 1.260 . S
O2244 Tb2196 2.552 . S
O2244 C2252 1.243 . S
O2245 Tb2196 2.413 . S
O2245 C2260 1.256 . S
O2246 Tb2207 2.546 . S
O2246 C2271 1.251 . S
O2247 Tb2196 2.362 . S
O2247 Tb2207 2.610 . S
O2247 C2263 1.283 . S
O2248 Tb2196 2.421 . S
O2248 C2270 1.262 . S
O2249 Tb2207 2.320 . S
O2249 C2270 1.260 . S
O2250 Tb2207 2.552 . S
O2250 C2263 1.243 . S
O2251 Tb2207 2.413 . S
O2251 C2271 1.256 . S
C2252 O2241 1.283 . S
C2252 O2244 1.243 . S
C2253 C2255 1.382 . S
C2253 C2257 1.393 . S
C2253 C2260 1.500 . S
C2254 C2255 1.400 . S
C2254 C2256 1.384 . S
C2255 C2253 1.382 . S
C2255 C2254 1.400 . S
C2255 H2272 0.930 . S
C2256 C2254 1.384 . S
C2256 C2258 1.392 . S
C2256 H2273 0.931 . S
C2257 C2253 1.393 . S
C2257 C2258 1.401 . S
C2257 H2274 0.930 . S
C2258 C2256 1.392 . S
C2258 C2257 1.401 . S
C2258 H2275 0.930 . S
C2259 O2242 1.262 . S
C2259 O2243 1.260 . S
C2260 Tb2196 2.833 . S
C2260 O2240 1.251 . S
C2260 O2245 1.256 . S
C2260 C2253 1.500 . S
C2261 H2226 0.929 . S
C2261 C2239 1.444 . S
C2261 C2262 1.317 . S
C2262 H2224 0.930 . S
C2262 C2230 1.432 . S
C2262 C2261 1.317 . S
C2263 O2247 1.283 . S
C2263 O2250 1.243 . S
C2264 C2265 1.382 . S
C2264 C2268 1.393 . S
C2264 C2271 1.500 . S
C2265 C2264 1.382 . S
C2265 C2266 1.400 . S
C2265 H2276 0.930 . S
C2266 C2265 1.400 . S
C2266 C2267 1.384 . S
C2267 C2266 1.384 . S
C2267 C2269 1.392 . S
C2267 H2277 0.931 . S
C2268 C2264 1.393 . S
C2268 C2269 1.401 . S
C2268 H2278 0.930 . S
C2269 C2267 1.392 . S
C2269 C2268 1.401 . S
C2269 H2279 0.930 . S
C2270 O2248 1.262 . S
C2270 O2249 1.260 . S
C2271 Tb2207 2.833 . S
C2271 O2246 1.251 . S
C2271 O2251 1.256 . S
C2271 C2264 1.500 . S
H2272 C2255 0.930 . S
H2273 C2256 0.931 . S
H2274 C2257 0.930 . S
H2275 C2258 0.930 . S
H2276 C2265 0.930 . S
H2277 C2267 0.931 . S
H2278 C2268 0.930 . S
H2279 C2269 0.930 . S
Tb2280 N2311 2.660 . S
Tb2280 N2318 2.600 . S
Tb2280 O2324 2.546 . S
Tb2280 O2325 2.610 . S
Tb2280 O2327 2.320 . S
Tb2280 O2328 2.552 1_545 S
Tb2280 O2329 2.413 . S
Tb2280 O2331 2.362 . S
Tb2280 O2332 2.421 . S
Tb2280 C2344 2.833 . S
C2281 C2284 1.432 . S
C2281 C2285 1.414 . S
C2281 N2288 1.359 1_565 S
C2282 C2284 1.417 . S
C2282 C2286 1.432 . S
C2282 C2294 1.410 . S
C2283 C2285 1.444 . S
C2283 C2286 1.317 . S
C2283 H2306 0.929 . S
C2284 C2281 1.432 . S
C2284 C2282 1.417 . S
C2284 N2292 1.360 . S
C2285 C2281 1.414 . S
C2285 C2283 1.444 . S
C2285 C2290 1.385 . S
C2286 C2282 1.432 . S
C2286 C2283 1.317 . S
C2286 H2298 0.930 . S
C2287 C2289 1.392 . S
C2287 C2290 1.370 1_545 S
C2287 H2299 0.931 . S
N2288 C2281 1.359 1_545 S
N2288 C2289 1.327 . S
N2288 Tb2291 2.600 . S
C2289 C2287 1.392 . S
C2289 N2288 1.327 . S
C2289 H2296 0.930 . S
C2290 C2285 1.385 . S
C2290 C2287 1.370 1_565 S
C2290 H2309 0.930 . S
Tb2291 N2288 2.600 . S
Tb2291 N2292 2.660 1_545 S
Tb2291 O2325 2.362 . S
Tb2291 O2326 2.421 . S
Tb2291 O2330 2.546 . S
Tb2291 O2331 2.610 . S
Tb2291 O2333 2.320 . S
Tb2291 O2334 2.552 . S
Tb2291 O2335 2.413 . S
Tb2291 C2355 2.833 . S
N2292 C2284 1.360 . S
N2292 Tb2291 2.660 1_565 S
N2292 C2293 1.305 . S
C2293 N2292 1.305 . S
C2293 C2295 1.407 . S
C2293 H2300 0.930 . S
C2294 C2282 1.410 . S
C2294 C2295 1.345 . S
C2294 H2302 0.930 . S
C2295 C2293 1.407 . S
C2295 C2294 1.345 . S
C2295 H2297 0.930 . S
H2296 C2289 0.930 . S
H2297 C2295 0.930 . S
H2298 C2286 0.930 . S
H2299 C2287 0.931 . S
H2300 C2293 0.930 . S
H2301 C2315 0.930 . S
H2302 C2294 0.930 . S
H2303 C2321 0.930 . S
H2304 C2312 0.930 . S
H2305 C2319 0.931 . S
H2306 C2283 0.929 . S
H2307 C2313 0.930 . S
H2308 C2346 0.930 . S
H2309 C2290 0.930 . S
H2310 C2345 0.929 . S
N2311 Tb2280 2.660 . S
N2311 C2312 1.305 . S
N2311 C2316 1.360 . S
C2312 H2304 0.930 . S
C2312 N2311 1.305 . S
C2312 C2315 1.407 . S
C2313 H2307 0.930 . S
C2313 C2314 1.410 . S
C2313 C2315 1.345 . S
C2314 C2313 1.410 . S
C2314 C2316 1.417 . S
C2314 C2346 1.432 . S
C2315 H2301 0.930 . S
C2315 C2312 1.407 . S
C2315 C2313 1.345 . S
C2316 N2311 1.360 . S
C2316 C2314 1.417 . S
C2316 C2320 1.432 . S
H2317 C2322 0.930 . S
N2318 Tb2280 2.600 . S
N2318 C2320 1.359 . S
N2318 C2321 1.327 . S
C2319 H2305 0.931 . S
C2319 C2321 1.392 . S
C2319 C2322 1.370 . S
C2320 C2316 1.432 . S
C2320 N2318 1.359 . S
C2320 C2323 1.414 . S
C2321 H2303 0.930 . S
C2321 N2318 1.327 . S
C2321 C2319 1.392 . S
C2322 H2317 0.930 . S
C2322 C2319 1.370 . S
C2322 C2323 1.385 . S
C2323 C2320 1.414 . S
C2323 C2322 1.385 . S
C2323 C2345 1.444 . S
O2324 Tb2280 2.546 . S
O2324 C2344 1.251 . S
O2325 Tb2280 2.610 . S
O2325 Tb2291 2.362 . S
O2325 C2336 1.283 1_545 S
O2326 Tb2291 2.421 . S
O2326 C2343 1.262 . S
O2327 Tb2280 2.320 . S
O2327 C2343 1.260 . S
O2328 Tb2280 2.552 1_565 S
O2328 C2336 1.243 . S
O2329 Tb2280 2.413 . S
O2329 C2344 1.256 . S
O2330 Tb2291 2.546 . S
O2330 C2355 1.251 . S
O2331 Tb2280 2.362 . S
O2331 Tb2291 2.610 . S
O2331 C2347 1.283 . S
O2332 Tb2280 2.421 . S
O2332 C2354 1.262 . S
O2333 Tb2291 2.320 . S
O2333 C2354 1.260 . S
O2334 Tb2291 2.552 . S
O2334 C2347 1.243 . S
O2335 Tb2291 2.413 . S
O2335 C2355 1.256 . S
C2336 O2325 1.283 1_565 S
C2336 O2328 1.243 . S
C2337 C2339 1.382 1_545 S
C2337 C2341 1.393 . S
C2337 C2344 1.500 . S
C2338 C2339 1.400 . S
C2338 C2340 1.384 . S
C2339 C2337 1.382 1_565 S
C2339 C2338 1.400 . S
C2339 H2356 0.930 . S
C2340 C2338 1.384 . S
C2340 C2342 1.392 . S
C2340 H2357 0.931 . S
C2341 C2337 1.393 . S
C2341 C2342 1.401 1_545 S
C2341 H2358 0.930 . S
C2342 C2340 1.392 . S
C2342 C2341 1.401 1_565 S
C2342 H2359 0.930 . S
C2343 O2326 1.262 . S
C2343 O2327 1.260 . S
C2344 Tb2280 2.833 . S
C2344 O2324 1.251 . S
C2344 O2329 1.256 . S
C2344 C2337 1.500 . S
C2345 H2310 0.929 . S
C2345 C2323 1.444 . S
C2345 C2346 1.317 . S
C2346 H2308 0.930 . S
C2346 C2314 1.432 . S
C2346 C2345 1.317 . S
C2347 O2331 1.283 . S
C2347 O2334 1.243 . S
C2348 C2349 1.382 . S
C2348 C2352 1.393 . S
C2348 C2355 1.500 . S
C2349 C2348 1.382 . S
C2349 C2350 1.400 . S
C2349 H2360 0.930 . S
C2350 C2349 1.400 . S
C2350 C2351 1.384 . S
C2351 C2350 1.384 . S
C2351 C2353 1.392 . S
C2351 H2361 0.931 . S
C2352 C2348 1.393 . S
C2352 C2353 1.401 . S
C2352 H2362 0.930 . S
C2353 C2351 1.392 . S
C2353 C2352 1.401 . S
C2353 H2363 0.930 . S
C2354 O2332 1.262 . S
C2354 O2333 1.260 . S
C2355 Tb2291 2.833 . S
C2355 O2330 1.251 . S
C2355 O2335 1.256 . S
C2355 C2348 1.500 . S
H2356 C2339 0.930 . S
H2357 C2340 0.931 . S
H2358 C2341 0.930 . S
H2359 C2342 0.930 . S
H2360 C2349 0.930 . S
H2361 C2351 0.931 . S
H2362 C2352 0.930 . S
H2363 C2353 0.930 . S
Tb2364 N2395 2.660 . S
Tb2364 N2402 2.600 . S
Tb2364 O2408 2.546 . S
Tb2364 O2409 2.610 . S
Tb2364 O2411 2.320 . S
Tb2364 O2412 2.552 . S
Tb2364 O2413 2.413 . S
Tb2364 O2415 2.362 . S
Tb2364 O2416 2.421 . S
Tb2364 C2428 2.833 . S
C2365 C2368 1.432 . S
C2365 C2369 1.414 . S
C2365 N2372 1.359 . S
C2366 C2368 1.417 . S
C2366 C2370 1.432 . S
C2366 C2378 1.410 . S
C2367 C2369 1.444 . S
C2367 C2370 1.317 . S
C2367 H2390 0.929 . S
C2368 C2365 1.432 . S
C2368 C2366 1.417 . S
C2368 N2376 1.360 . S
C2369 C2365 1.414 . S
C2369 C2367 1.444 . S
C2369 C2374 1.385 . S
C2370 C2366 1.432 . S
C2370 C2367 1.317 . S
C2370 H2382 0.930 . S
C2371 C2373 1.392 . S
C2371 C2374 1.370 . S
C2371 H2383 0.931 . S
N2372 C2365 1.359 . S
N2372 C2373 1.327 . S
N2372 Tb2375 2.600 . S
C2373 C2371 1.392 . S
C2373 N2372 1.327 . S
C2373 H2380 0.930 . S
C2374 C2369 1.385 . S
C2374 C2371 1.370 . S
C2374 H2393 0.930 . S
Tb2375 N2372 2.600 . S
Tb2375 N2376 2.660 . S
Tb2375 O2409 2.362 . S
Tb2375 O2410 2.421 . S
Tb2375 O2414 2.546 . S
Tb2375 O2415 2.610 . S
Tb2375 O2417 2.320 . S
Tb2375 O2418 2.552 . S
Tb2375 O2419 2.413 . S
Tb2375 C2439 2.833 . S
N2376 C2368 1.360 . S
N2376 Tb2375 2.660 . S
N2376 C2377 1.305 . S
C2377 N2376 1.305 . S
C2377 C2379 1.407 . S
C2377 H2384 0.930 . S
C2378 C2366 1.410 . S
C2378 C2379 1.345 . S
C2378 H2386 0.930 . S
C2379 C2377 1.407 . S
C2379 C2378 1.345 . S
C2379 H2381 0.930 . S
H2380 C2373 0.930 . S
H2381 C2379 0.930 . S
H2382 C2370 0.930 . S
H2383 C2371 0.931 . S
H2384 C2377 0.930 . S
H2385 C2399 0.930 . S
H2386 C2378 0.930 . S
H2387 C2405 0.930 . S
H2388 C2396 0.930 . S
H2389 C2403 0.931 . S
H2390 C2367 0.929 . S
H2391 C2397 0.930 . S
H2392 C2430 0.930 . S
H2393 C2374 0.930 . S
H2394 C2429 0.929 . S
N2395 Tb2364 2.660 . S
N2395 C2396 1.305 . S
N2395 C2400 1.360 . S
C2396 H2388 0.930 . S
C2396 N2395 1.305 . S
C2396 C2399 1.407 . S
C2397 H2391 0.930 . S
C2397 C2398 1.410 . S
C2397 C2399 1.345 . S
C2398 C2397 1.410 . S
C2398 C2400 1.417 . S
C2398 C2430 1.432 . S
C2399 H2385 0.930 . S
C2399 C2396 1.407 . S
C2399 C2397 1.345 . S
C2400 N2395 1.360 . S
C2400 C2398 1.417 . S
C2400 C2404 1.432 . S
H2401 C2406 0.930 . S
N2402 Tb2364 2.600 . S
N2402 C2404 1.359 . S
N2402 C2405 1.327 . S
C2403 H2389 0.931 . S
C2403 C2405 1.392 . S
C2403 C2406 1.370 . S
C2404 C2400 1.432 . S
C2404 N2402 1.359 . S
C2404 C2407 1.414 . S
C2405 H2387 0.930 . S
C2405 N2402 1.327 . S
C2405 C2403 1.392 . S
C2406 H2401 0.930 . S
C2406 C2403 1.370 . S
C2406 C2407 1.385 . S
C2407 C2404 1.414 . S
C2407 C2406 1.385 . S
C2407 C2429 1.444 . S
O2408 Tb2364 2.546 . S
O2408 C2428 1.251 . S
O2409 Tb2364 2.610 . S
O2409 Tb2375 2.362 . S
O2409 C2420 1.283 . S
O2410 Tb2375 2.421 . S
O2410 C2427 1.262 . S
O2411 Tb2364 2.320 . S
O2411 C2427 1.260 . S
O2412 Tb2364 2.552 . S
O2412 C2420 1.243 . S
O2413 Tb2364 2.413 . S
O2413 C2428 1.256 . S
O2414 Tb2375 2.546 . S
O2414 C2439 1.251 . S
O2415 Tb2364 2.362 . S
O2415 Tb2375 2.610 . S
O2415 C2431 1.283 . S
O2416 Tb2364 2.421 . S
O2416 C2438 1.262 . S
O2417 Tb2375 2.320 . S
O2417 C2438 1.260 . S
O2418 Tb2375 2.552 . S
O2418 C2431 1.243 . S
O2419 Tb2375 2.413 . S
O2419 C2439 1.256 . S
C2420 O2409 1.283 . S
C2420 O2412 1.243 . S
C2421 C2423 1.382 . S
C2421 C2425 1.393 . S
C2421 C2428 1.500 . S
C2422 C2423 1.400 . S
C2422 C2424 1.384 . S
C2423 C2421 1.382 . S
C2423 C2422 1.400 . S
C2423 H2440 0.930 . S
C2424 C2422 1.384 . S
C2424 C2426 1.392 . S
C2424 H2441 0.931 . S
C2425 C2421 1.393 . S
C2425 C2426 1.401 . S
C2425 H2442 0.930 . S
C2426 C2424 1.392 . S
C2426 C2425 1.401 . S
C2426 H2443 0.930 . S
C2427 O2410 1.262 . S
C2427 O2411 1.260 . S
C2428 Tb2364 2.833 . S
C2428 O2408 1.251 . S
C2428 O2413 1.256 . S
C2428 C2421 1.500 . S
C2429 H2394 0.929 . S
C2429 C2407 1.444 . S
C2429 C2430 1.317 . S
C2430 H2392 0.930 . S
C2430 C2398 1.432 . S
C2430 C2429 1.317 . S
C2431 O2415 1.283 . S
C2431 O2418 1.243 . S
C2432 C2433 1.382 . S
C2432 C2436 1.393 . S
C2432 C2439 1.500 . S
C2433 C2432 1.382 . S
C2433 C2434 1.400 . S
C2433 H2444 0.930 . S
C2434 C2433 1.400 . S
C2434 C2435 1.384 . S
C2435 C2434 1.384 . S
C2435 C2437 1.392 . S
C2435 H2445 0.931 . S
C2436 C2432 1.393 . S
C2436 C2437 1.401 . S
C2436 H2446 0.930 . S
C2437 C2435 1.392 . S
C2437 C2436 1.401 . S
C2437 H2447 0.930 . S
C2438 O2416 1.262 . S
C2438 O2417 1.260 . S
C2439 Tb2375 2.833 . S
C2439 O2414 1.251 . S
C2439 O2419 1.256 . S
C2439 C2432 1.500 . S
H2440 C2423 0.930 . S
H2441 C2424 0.931 . S
H2442 C2425 0.930 . S
H2443 C2426 0.930 . S
H2444 C2433 0.930 . S
H2445 C2435 0.931 . S
H2446 C2436 0.930 . S
H2447 C2437 0.930 . S
Tb2448 N2479 2.660 . S
Tb2448 N2486 2.600 . S
Tb2448 O2492 2.546 . S
Tb2448 O2493 2.610 . S
Tb2448 O2495 2.320 . S
Tb2448 O2496 2.552 . S
Tb2448 O2497 2.413 . S
Tb2448 O2499 2.362 . S
Tb2448 O2500 2.421 . S
Tb2448 C2512 2.833 . S
C2449 C2452 1.432 . S
C2449 C2453 1.414 . S
C2449 N2456 1.359 . S
C2450 C2452 1.417 . S
C2450 C2454 1.432 . S
C2450 C2462 1.410 . S
C2451 C2453 1.444 . S
C2451 C2454 1.317 . S
C2451 H2474 0.929 . S
C2452 C2449 1.432 . S
C2452 C2450 1.417 . S
C2452 N2460 1.360 . S
C2453 C2449 1.414 . S
C2453 C2451 1.444 . S
C2453 C2458 1.385 . S
C2454 C2450 1.432 . S
C2454 C2451 1.317 . S
C2454 H2466 0.930 . S
C2455 C2457 1.392 . S
C2455 C2458 1.370 . S
C2455 H2467 0.931 . S
N2456 C2449 1.359 . S
N2456 C2457 1.327 . S
N2456 Tb2459 2.600 1_565 S
C2457 C2455 1.392 . S
C2457 N2456 1.327 . S
C2457 H2464 0.930 . S
C2458 C2453 1.385 . S
C2458 C2455 1.370 . S
C2458 H2477 0.930 . S
Tb2459 N2456 2.600 1_545 S
Tb2459 N2460 2.660 1_545 S
Tb2459 O2493 2.362 . S
Tb2459 O2494 2.421 . S
Tb2459 O2498 2.546 1_545 S
Tb2459 O2499 2.610 . S
Tb2459 O2501 2.315 . S
Tb2459 O2502 2.552 . S
Tb2459 O2503 2.413 1_545 S
Tb2459 C2523 2.833 1_545 S
N2460 C2452 1.360 . S
N2460 Tb2459 2.660 1_565 S
N2460 C2461 1.305 . S
C2461 N2460 1.305 . S
C2461 C2463 1.416 . S
C2461 H2468 0.930 . S
C2462 C2450 1.410 . S
C2462 C2463 1.355 . S
C2462 H2470 0.920 1_455 S
C2463 C2461 1.416 . S
C2463 C2462 1.355 . S
C2463 H2465 0.912 1_455 S
H2464 C2457 0.930 . S
H2465 C2463 0.912 1_655 S
H2466 C2454 0.930 . S
H2467 C2455 0.931 . S
H2468 C2461 0.930 . S
H2469 C2483 0.930 . S
H2470 C2462 0.920 1_655 S
H2471 C2489 0.930 . S
H2472 C2480 0.930 . S
H2473 C2487 0.914 1_655 S
H2474 C2451 0.929 . S
H2475 C2481 0.930 . S
H2476 C2514 0.930 . S
H2477 C2458 0.930 . S
H2478 C2513 0.929 . S
N2479 Tb2448 2.660 . S
N2479 C2480 1.305 . S
N2479 C2484 1.360 . S
C2480 H2472 0.930 . S
C2480 N2479 1.305 . S
C2480 C2483 1.407 . S
C2481 H2475 0.930 . S
C2481 C2482 1.410 . S
C2481 C2483 1.345 . S
C2482 C2481 1.410 . S
C2482 C2484 1.417 . S
C2482 C2514 1.432 . S
C2483 H2469 0.930 . S
C2483 C2480 1.407 . S
C2483 C2481 1.345 . S
C2484 N2479 1.360 . S
C2484 C2482 1.417 . S
C2484 C2488 1.432 . S
H2485 C2490 0.930 . S
N2486 Tb2448 2.600 . S
N2486 C2488 1.359 . S
N2486 C2489 1.327 . S
C2487 H2473 0.914 1_455 S
C2487 C2489 1.403 . S
C2487 C2490 1.376 . S
C2488 C2484 1.432 . S
C2488 N2486 1.359 . S
C2488 C2491 1.414 . S
C2489 H2471 0.930 . S
C2489 N2486 1.327 . S
C2489 C2487 1.403 . S
C2490 H2485 0.930 . S
C2490 C2487 1.376 . S
C2490 C2491 1.385 . S
C2491 C2488 1.414 . S
C2491 C2490 1.385 . S
C2491 C2513 1.444 . S
O2492 Tb2448 2.546 . S
O2492 C2512 1.251 . S
O2493 Tb2448 2.610 . S
O2493 Tb2459 2.362 . S
O2493 C2504 1.283 . S
O2494 Tb2459 2.421 . S
O2494 C2511 1.262 . S
O2495 Tb2448 2.320 . S
O2495 C2511 1.260 . S
O2496 Tb2448 2.552 . S
O2496 C2504 1.243 . S
O2497 Tb2448 2.413 . S
O2497 C2512 1.256 . S
O2498 Tb2459 2.546 1_565 S
O2498 C2523 1.251 . S
O2499 Tb2448 2.362 . S
O2499 Tb2459 2.610 . S
O2499 C2515 1.283 . S
O2500 Tb2448 2.421 . S
O2500 C2522 1.262 . S
O2501 Tb2459 2.315 . S
O2501 C2522 1.282 . S
O2502 Tb2459 2.552 . S
O2502 C2515 1.243 . S
O2503 Tb2459 2.413 1_565 S
O2503 C2523 1.256 . S
C2504 O2493 1.283 . S
C2504 O2496 1.243 . S
C2505 C2507 1.382 . S
C2505 C2509 1.393 . S
C2505 C2512 1.500 . S
C2506 C2507 1.400 . S
C2506 C2508 1.384 . S
C2507 C2505 1.382 . S
C2507 C2506 1.400 . S
C2507 H2524 0.930 . S
C2508 C2506 1.384 . S
C2508 C2510 1.392 . S
C2508 H2525 0.931 . S
C2509 C2505 1.393 . S
C2509 C2510 1.401 . S
C2509 H2526 0.930 . S
C2510 C2508 1.392 . S
C2510 C2509 1.401 . S
C2510 H2527 0.930 . S
C2511 O2494 1.262 . S
C2511 O2495 1.260 . S
C2512 Tb2448 2.833 . S
C2512 O2492 1.251 . S
C2512 O2497 1.256 . S
C2512 C2505 1.500 . S
C2513 H2478 0.929 . S
C2513 C2491 1.444 . S
C2513 C2514 1.317 . S
C2514 H2476 0.930 . S
C2514 C2482 1.432 . S
C2514 C2513 1.317 . S
C2515 O2499 1.283 . S
C2515 O2502 1.243 . S
C2516 C2517 1.382 . S
C2516 C2520 1.393 . S
C2516 C2523 1.500 . S
C2517 C2516 1.382 . S
C2517 C2518 1.400 . S
C2517 H2528 0.930 . S
C2518 C2517 1.400 . S
C2518 C2519 1.384 . S
C2519 C2518 1.384 . S
C2519 C2521 1.392 . S
C2519 H2529 0.931 . S
C2520 C2516 1.393 . S
C2520 C2521 1.401 . S
C2520 H2530 0.930 . S
C2521 C2519 1.392 . S
C2521 C2520 1.401 . S
C2521 H2531 0.930 . S
C2522 O2500 1.262 . S
C2522 O2501 1.282 . S
C2523 Tb2459 2.833 1_565 S
C2523 O2498 1.251 . S
C2523 O2503 1.256 . S
C2523 C2516 1.500 . S
H2524 C2507 0.930 . S
H2525 C2508 0.931 . S
H2526 C2509 0.930 . S
H2527 C2510 0.930 . S
H2528 C2517 0.930 . S
H2529 C2519 0.931 . S
H2530 C2520 0.930 . S
H2531 C2521 0.930 . S
Tb2532 N2563 2.660 . S
Tb2532 N2570 2.600 . S
Tb2532 O2576 2.546 . S
Tb2532 O2577 2.610 . S
Tb2532 O2579 2.320 . S
Tb2532 O2580 2.552 . S
Tb2532 O2581 2.413 . S
Tb2532 O2583 2.362 . S
Tb2532 O2584 2.421 . S
Tb2532 C2596 2.833 . S
C2533 C2536 1.432 . S
C2533 C2537 1.414 . S
C2533 N2540 1.359 . S
C2534 C2536 1.417 . S
C2534 C2538 1.432 . S
C2534 C2546 1.410 . S
C2535 C2537 1.444 . S
C2535 C2538 1.317 . S
C2535 H2558 0.929 . S
C2536 C2533 1.432 . S
C2536 C2534 1.417 . S
C2536 N2544 1.360 . S
C2537 C2533 1.414 . S
C2537 C2535 1.444 . S
C2537 C2542 1.385 . S
C2538 C2534 1.432 . S
C2538 C2535 1.317 . S
C2538 H2550 0.930 . S
C2539 C2541 1.392 . S
C2539 C2542 1.370 . S
C2539 H2551 0.931 . S
N2540 C2533 1.359 . S
N2540 C2541 1.327 . S
N2540 Tb2543 2.600 . S
C2541 C2539 1.392 . S
C2541 N2540 1.327 . S
C2541 H2548 0.930 . S
C2542 C2537 1.385 . S
C2542 C2539 1.370 . S
C2542 H2561 0.930 . S
Tb2543 N2540 2.600 . S
Tb2543 N2544 2.660 . S
Tb2543 O2577 2.362 . S
Tb2543 O2578 2.421 . S
Tb2543 O2582 2.546 . S
Tb2543 O2583 2.610 . S
Tb2543 O2585 2.320 . S
Tb2543 O2586 2.552 . S
Tb2543 O2587 2.413 . S
Tb2543 C2607 2.833 . S
N2544 C2536 1.360 . S
N2544 Tb2543 2.660 . S
N2544 C2545 1.305 . S
C2545 N2544 1.305 . S
C2545 C2547 1.407 . S
C2545 H2552 0.930 . S
C2546 C2534 1.410 . S
C2546 C2547 1.345 . S
C2546 H2554 0.930 . S
C2547 C2545 1.407 . S
C2547 C2546 1.345 . S
C2547 H2549 0.930 . S
H2548 C2541 0.930 . S
H2549 C2547 0.930 . S
H2550 C2538 0.930 . S
H2551 C2539 0.931 . S
H2552 C2545 0.930 . S
H2553 C2567 0.930 . S
H2554 C2546 0.930 . S
H2555 C2573 0.930 . S
H2556 C2564 0.930 . S
H2557 C2571 0.931 . S
H2558 C2535 0.929 . S
H2559 C2565 0.930 . S
H2560 C2598 0.930 . S
H2561 C2542 0.930 . S
H2562 C2597 0.929 . S
N2563 Tb2532 2.660 . S
N2563 C2564 1.305 . S
N2563 C2568 1.360 . S
C2564 H2556 0.930 . S
C2564 N2563 1.305 . S
C2564 C2567 1.407 . S
C2565 H2559 0.930 . S
C2565 C2566 1.410 . S
C2565 C2567 1.345 . S
C2566 C2565 1.410 . S
C2566 C2568 1.417 . S
C2566 C2598 1.432 . S
C2567 H2553 0.930 . S
C2567 C2564 1.407 . S
C2567 C2565 1.345 . S
C2568 N2563 1.360 . S
C2568 C2566 1.417 . S
C2568 C2572 1.432 . S
H2569 C2574 0.930 . S
N2570 Tb2532 2.600 . S
N2570 C2572 1.359 . S
N2570 C2573 1.327 . S
C2571 H2557 0.931 . S
C2571 C2573 1.392 . S
C2571 C2574 1.370 . S
C2572 C2568 1.432 . S
C2572 N2570 1.359 . S
C2572 C2575 1.414 . S
C2573 H2555 0.930 . S
C2573 N2570 1.327 . S
C2573 C2571 1.392 . S
C2574 H2569 0.930 . S
C2574 C2571 1.370 . S
C2574 C2575 1.385 . S
C2575 C2572 1.414 . S
C2575 C2574 1.385 . S
C2575 C2597 1.444 . S
O2576 Tb2532 2.546 . S
O2576 C2596 1.251 . S
O2577 Tb2532 2.610 . S
O2577 Tb2543 2.362 . S
O2577 C2588 1.283 . S
O2578 Tb2543 2.421 . S
O2578 C2595 1.262 . S
O2579 Tb2532 2.320 . S
O2579 C2595 1.260 . S
O2580 Tb2532 2.552 . S
O2580 C2588 1.243 . S
O2581 Tb2532 2.413 . S
O2581 C2596 1.256 . S
O2582 Tb2543 2.546 . S
O2582 C2607 1.251 . S
O2583 Tb2532 2.362 . S
O2583 Tb2543 2.610 . S
O2583 C2599 1.283 . S
O2584 Tb2532 2.421 . S
O2584 C2606 1.262 . S
O2585 Tb2543 2.320 . S
O2585 C2606 1.260 . S
O2586 Tb2543 2.552 . S
O2586 C2599 1.243 . S
O2587 Tb2543 2.413 . S
O2587 C2607 1.256 . S
C2588 O2577 1.283 . S
C2588 O2580 1.243 . S
C2589 C2591 1.382 . S
C2589 C2593 1.393 . S
C2589 C2596 1.500 . S
C2590 C2591 1.400 . S
C2590 C2592 1.384 . S
C2591 C2589 1.382 . S
C2591 C2590 1.400 . S
C2591 H2608 0.930 . S
C2592 C2590 1.384 . S
C2592 C2594 1.392 . S
C2592 H2609 0.931 . S
C2593 C2589 1.393 . S
C2593 C2594 1.401 . S
C2593 H2610 0.930 . S
C2594 C2592 1.392 . S
C2594 C2593 1.401 . S
C2594 H2611 0.930 . S
C2595 O2578 1.262 . S
C2595 O2579 1.260 . S
C2596 Tb2532 2.833 . S
C2596 O2576 1.251 . S
C2596 O2581 1.256 . S
C2596 C2589 1.500 . S
C2597 H2562 0.929 . S
C2597 C2575 1.444 . S
C2597 C2598 1.317 . S
C2598 H2560 0.930 . S
C2598 C2566 1.432 . S
C2598 C2597 1.317 . S
C2599 O2583 1.283 . S
C2599 O2586 1.243 . S
C2600 C2601 1.382 . S
C2600 C2604 1.393 . S
C2600 C2607 1.500 . S
C2601 C2600 1.382 . S
C2601 C2602 1.400 . S
C2601 H2612 0.930 . S
C2602 C2601 1.400 . S
C2602 C2603 1.384 . S
C2603 C2602 1.384 . S
C2603 C2605 1.392 . S
C2603 H2613 0.931 . S
C2604 C2600 1.393 . S
C2604 C2605 1.401 . S
C2604 H2614 0.930 . S
C2605 C2603 1.392 . S
C2605 C2604 1.401 . S
C2605 H2615 0.930 . S
C2606 O2584 1.262 . S
C2606 O2585 1.260 . S
C2607 Tb2543 2.833 . S
C2607 O2582 1.251 . S
C2607 O2587 1.256 . S
C2607 C2600 1.500 . S
H2608 C2591 0.930 . S
H2609 C2592 0.931 . S
H2610 C2593 0.930 . S
H2611 C2594 0.930 . S
H2612 C2601 0.930 . S
H2613 C2603 0.931 . S
H2614 C2604 0.930 . S
H2615 C2605 0.930 . S
Tb2616 N2647 2.660 . S
Tb2616 N2654 2.600 . S
Tb2616 O2660 2.546 1_545 S
Tb2616 O2661 2.610 . S
Tb2616 O2663 2.320 . S
Tb2616 O2664 2.552 . S
Tb2616 O2665 2.413 . S
Tb2616 O2667 2.362 . S
Tb2616 O2668 2.421 1_545 S
Tb2616 C2680 2.833 . S
C2617 C2620 1.432 . S
C2617 C2621 1.414 . S
C2617 N2624 1.359 . S
C2618 C2620 1.417 . S
C2618 C2622 1.432 . S
C2618 C2630 1.410 1_545 S
C2619 C2621 1.444 . S
C2619 C2622 1.317 . S
C2619 H2642 0.929 . S
C2620 C2617 1.432 . S
C2620 C2618 1.417 . S
C2620 N2628 1.360 . S
C2621 C2617 1.414 . S
C2621 C2619 1.444 . S
C2621 C2626 1.385 . S
C2622 C2618 1.432 . S
C2622 C2619 1.317 . S
C2622 H2634 0.930 . S
C2623 C2625 1.392 . S
C2623 C2626 1.370 . S
C2623 H2635 0.931 . S
N2624 C2617 1.359 . S
N2624 C2625 1.327 . S
N2624 Tb2627 2.600 . S
C2625 C2623 1.392 . S
C2625 N2624 1.327 . S
C2625 H2632 0.930 . S
C2626 C2621 1.385 . S
C2626 C2623 1.370 . S
C2626 H2645 0.930 . S
Tb2627 N2624 2.600 . S
Tb2627 N2628 2.660 . S
Tb2627 O2661 2.362 1_556 S
Tb2627 O2662 2.421 1_556 S
Tb2627 O2666 2.546 . S
Tb2627 O2667 2.610 1_556 S
Tb2627 O2669 2.320 . S
Tb2627 O2670 2.552 . S
Tb2627 O2671 2.413 . S
Tb2627 C2691 2.833 . S
N2628 C2620 1.360 . S
N2628 Tb2627 2.660 . S
N2628 C2629 1.305 1_545 S
C2629 N2628 1.305 1_565 S
C2629 C2631 1.407 . S
C2629 H2636 0.930 . S
C2630 C2618 1.410 1_565 S
C2630 C2631 1.345 . S
C2630 H2638 0.930 . S
C2631 C2629 1.407 . S
C2631 C2630 1.345 . S
C2631 H2633 0.930 . S
H2632 C2625 0.930 . S
H2633 C2631 0.930 . S
H2634 C2622 0.930 . S
H2635 C2623 0.931 . S
H2636 C2629 0.930 . S
H2637 C2651 0.930 . S
H2638 C2630 0.930 . S
H2639 C2657 0.930 . S
H2640 C2648 0.930 . S
H2641 C2655 0.931 . S
H2642 C2619 0.929 . S
H2643 C2649 0.930 . S
H2644 C2682 0.930 . S
H2645 C2626 0.930 . S
H2646 C2681 0.929 . S
N2647 Tb2616 2.660 . S
N2647 C2648 1.305 . S
N2647 C2652 1.360 . S
C2648 H2640 0.930 . S
C2648 N2647 1.305 . S
C2648 C2651 1.407 . S
C2649 H2643 0.930 . S
C2649 C2650 1.410 . S
C2649 C2651 1.345 . S
C2650 C2649 1.410 . S
C2650 C2652 1.417 . S
C2650 C2682 1.432 . S
C2651 H2637 0.930 . S
C2651 C2648 1.407 . S
C2651 C2649 1.345 . S
C2652 N2647 1.360 . S
C2652 C2650 1.417 . S
C2652 C2656 1.432 . S
H2653 C2658 0.930 . S
N2654 Tb2616 2.600 . S
N2654 C2656 1.359 . S
N2654 C2657 1.327 1_545 S
C2655 H2641 0.931 . S
C2655 C2657 1.392 . S
C2655 C2658 1.370 . S
C2656 C2652 1.432 . S
C2656 N2654 1.359 . S
C2656 C2659 1.414 . S
C2657 H2639 0.930 . S
C2657 N2654 1.327 1_565 S
C2657 C2655 1.392 . S
C2658 H2653 0.930 . S
C2658 C2655 1.370 . S
C2658 C2659 1.385 1_565 S
C2659 C2656 1.414 . S
C2659 C2658 1.385 1_545 S
C2659 C2681 1.444 . S
O2660 Tb2616 2.546 1_565 S
O2660 C2680 1.251 1_565 S
O2661 Tb2616 2.610 . S
O2661 Tb2627 2.362 1_554 S
O2661 C2672 1.283 . S
O2662 Tb2627 2.421 1_554 S
O2662 C2679 1.262 . S
O2663 Tb2616 2.320 . S
O2663 C2679 1.260 . S
O2664 Tb2616 2.552 . S
O2664 C2672 1.243 . S
O2665 Tb2616 2.413 . S
O2665 C2680 1.256 . S
O2666 Tb2627 2.546 . S
O2666 C2691 1.251 . S
O2667 Tb2616 2.362 . S
O2667 Tb2627 2.610 1_554 S
O2667 C2683 1.283 . S
O2668 Tb2616 2.421 1_565 S
O2668 C2690 1.262 1_554 S
O2669 Tb2627 2.320 . S
O2669 C2690 1.260 1_545 S
O2670 Tb2627 2.552 . S
O2670 C2683 1.243 1_556 S
O2671 Tb2627 2.413 . S
O2671 C2691 1.256 . S
C2672 O2661 1.283 . S
C2672 O2664 1.243 . S
C2673 C2675 1.382 . S
C2673 C2677 1.393 1_545 S
C2673 C2680 1.500 . S
C2674 C2675 1.400 . S
C2674 C2676 1.384 1_545 S
C2675 C2673 1.382 . S
C2675 C2674 1.400 . S
C2675 H2692 0.930 . S
C2676 C2674 1.384 1_565 S
C2676 C2678 1.392 . S
C2676 H2693 0.931 . S
C2677 C2673 1.393 1_565 S
C2677 C2678 1.401 . S
C2677 H2694 0.930 . S
C2678 C2676 1.392 . S
C2678 C2677 1.401 . S
C2678 H2695 0.930 . S
C2679 O2662 1.262 . S
C2679 O2663 1.260 . S
C2680 Tb2616 2.833 . S
C2680 O2660 1.251 1_545 S
C2680 O2665 1.256 . S
C2680 C2673 1.500 . S
C2681 H2646 0.929 . S
C2681 C2659 1.444 . S
C2681 C2682 1.317 . S
C2682 H2644 0.930 . S
C2682 C2650 1.432 . S
C2682 C2681 1.317 . S
C2683 O2667 1.283 . S
C2683 O2670 1.243 1_554 S
C2684 C2685 1.382 . S
C2684 C2688 1.393 . S
C2684 C2691 1.500 . S
C2685 C2684 1.382 . S
C2685 C2686 1.400 . S
C2685 H2696 0.930 . S
C2686 C2685 1.400 . S
C2686 C2687 1.384 . S
C2687 C2686 1.384 . S
C2687 C2689 1.392 . S
C2687 H2697 0.931 . S
C2688 C2684 1.393 . S
C2688 C2689 1.401 . S
C2688 H2698 0.930 . S
C2689 C2687 1.392 . S
C2689 C2688 1.401 . S
C2689 H2699 0.930 . S
C2690 O2668 1.262 1_556 S
C2690 O2669 1.260 1_565 S
C2691 Tb2627 2.833 . S
C2691 O2666 1.251 . S
C2691 O2671 1.256 . S
C2691 C2684 1.500 . S
H2692 C2675 0.930 . S
H2693 C2676 0.931 . S
H2694 C2677 0.930 . S
H2695 C2678 0.930 . S
H2696 C2685 0.930 . S
H2697 C2687 0.931 . S
H2698 C2688 0.930 . S
H2699 C2689 0.930 . S
Tb2700 N2731 2.660 . S
Tb2700 N2738 2.600 . S
Tb2700 O2744 2.546 . S
Tb2700 O2745 2.610 . S
Tb2700 O2747 2.320 . S
Tb2700 O2748 2.552 . S
Tb2700 O2749 2.413 . S
Tb2700 O2751 2.362 . S
Tb2700 O2752 2.421 . S
Tb2700 C2764 2.833 . S
C2701 C2704 1.432 . S
C2701 C2705 1.414 . S
C2701 N2708 1.359 . S
C2702 C2704 1.417 . S
C2702 C2706 1.432 . S
C2702 C2714 1.410 . S
C2703 C2705 1.444 . S
C2703 C2706 1.317 . S
C2703 H2726 0.929 . S
C2704 C2701 1.432 . S
C2704 C2702 1.417 . S
C2704 N2712 1.360 . S
C2705 C2701 1.414 . S
C2705 C2703 1.444 . S
C2705 C2710 1.385 . S
C2706 C2702 1.432 . S
C2706 C2703 1.317 . S
C2706 H2718 0.930 . S
C2707 C2709 1.392 . S
C2707 C2710 1.370 . S
C2707 H2719 0.931 . S
N2708 C2701 1.359 . S
N2708 C2709 1.327 . S
N2708 Tb2711 2.600 . S
C2709 C2707 1.392 . S
C2709 N2708 1.327 . S
C2709 H2716 0.930 . S
C2710 C2705 1.385 . S
C2710 C2707 1.370 . S
C2710 H2729 0.930 . S
Tb2711 N2708 2.600 . S
Tb2711 N2712 2.660 . S
Tb2711 O2745 2.362 . S
Tb2711 O2746 2.421 . S
Tb2711 O2750 2.546 . S
Tb2711 O2751 2.610 . S
Tb2711 O2753 2.320 . S
Tb2711 O2754 2.552 . S
Tb2711 O2755 2.413 . S
Tb2711 C2775 2.833 . S
N2712 C2704 1.360 . S
N2712 Tb2711 2.660 . S
N2712 C2713 1.305 . S
C2713 N2712 1.305 . S
C2713 C2715 1.407 . S
C2713 H2720 0.930 . S
C2714 C2702 1.410 . S
C2714 C2715 1.345 . S
C2714 H2722 0.930 . S
C2715 C2713 1.407 . S
C2715 C2714 1.345 . S
C2715 H2717 0.930 . S
H2716 C2709 0.930 . S
H2717 C2715 0.930 . S
H2718 C2706 0.930 . S
H2719 C2707 0.931 . S
H2720 C2713 0.930 . S
H2721 C2735 0.930 . S
H2722 C2714 0.930 . S
H2723 C2741 0.930 . S
H2724 C2732 0.930 . S
H2725 C2739 0.931 . S
H2726 C2703 0.929 . S
H2727 C2733 0.930 . S
H2728 C2766 0.930 . S
H2729 C2710 0.930 . S
H2730 C2765 0.929 . S
N2731 Tb2700 2.660 . S
N2731 C2732 1.305 . S
N2731 C2736 1.360 . S
C2732 H2724 0.930 . S
C2732 N2731 1.305 . S
C2732 C2735 1.407 . S
C2733 H2727 0.930 . S
C2733 C2734 1.410 . S
C2733 C2735 1.345 . S
C2734 C2733 1.410 . S
C2734 C2736 1.417 . S
C2734 C2766 1.432 . S
C2735 H2721 0.930 . S
C2735 C2732 1.407 . S
C2735 C2733 1.345 . S
C2736 N2731 1.360 . S
C2736 C2734 1.417 . S
C2736 C2740 1.432 . S
H2737 C2742 0.930 . S
N2738 Tb2700 2.600 . S
N2738 C2740 1.359 . S
N2738 C2741 1.327 . S
C2739 H2725 0.931 . S
C2739 C2741 1.392 . S
C2739 C2742 1.370 . S
C2740 C2736 1.432 . S
C2740 N2738 1.359 . S
C2740 C2743 1.414 . S
C2741 H2723 0.930 . S
C2741 N2738 1.327 . S
C2741 C2739 1.392 . S
C2742 H2737 0.930 . S
C2742 C2739 1.370 . S
C2742 C2743 1.385 . S
C2743 C2740 1.414 . S
C2743 C2742 1.385 . S
C2743 C2765 1.444 . S
O2744 Tb2700 2.546 . S
O2744 C2764 1.251 . S
O2745 Tb2700 2.610 . S
O2745 Tb2711 2.362 . S
O2745 C2756 1.283 . S
O2746 Tb2711 2.421 . S
O2746 C2763 1.262 . S
O2747 Tb2700 2.320 . S
O2747 C2763 1.260 . S
O2748 Tb2700 2.552 . S
O2748 C2756 1.243 . S
O2749 Tb2700 2.413 . S
O2749 C2764 1.256 . S
O2750 Tb2711 2.546 . S
O2750 C2775 1.251 . S
O2751 Tb2700 2.362 . S
O2751 Tb2711 2.610 . S
O2751 C2767 1.283 . S
O2752 Tb2700 2.421 . S
O2752 C2774 1.262 . S
O2753 Tb2711 2.320 . S
O2753 C2774 1.260 . S
O2754 Tb2711 2.552 . S
O2754 C2767 1.243 . S
O2755 Tb2711 2.413 . S
O2755 C2775 1.256 . S
C2756 O2745 1.283 . S
C2756 O2748 1.243 . S
C2757 C2759 1.382 . S
C2757 C2761 1.393 . S
C2757 C2764 1.500 . S
C2758 C2759 1.400 . S
C2758 C2760 1.384 . S
C2759 C2757 1.382 . S
C2759 C2758 1.400 . S
C2759 H2776 0.930 . S
C2760 C2758 1.384 . S
C2760 C2762 1.392 . S
C2760 H2777 0.931 . S
C2761 C2757 1.393 . S
C2761 C2762 1.401 . S
C2761 H2778 0.930 . S
C2762 C2760 1.392 . S
C2762 C2761 1.401 . S
C2762 H2779 0.930 . S
C2763 O2746 1.262 . S
C2763 O2747 1.260 . S
C2764 Tb2700 2.833 . S
C2764 O2744 1.251 . S
C2764 O2749 1.256 . S
C2764 C2757 1.500 . S
C2765 H2730 0.929 . S
C2765 C2743 1.444 . S
C2765 C2766 1.317 . S
C2766 H2728 0.930 . S
C2766 C2734 1.432 . S
C2766 C2765 1.317 . S
C2767 O2751 1.283 . S
C2767 O2754 1.243 . S
C2768 C2769 1.382 . S
C2768 C2772 1.393 . S
C2768 C2775 1.500 . S
C2769 C2768 1.382 . S
C2769 C2770 1.400 . S
C2769 H2780 0.930 . S
C2770 C2769 1.400 . S
C2770 C2771 1.384 . S
C2771 C2770 1.384 . S
C2771 C2773 1.392 . S
C2771 H2781 0.931 . S
C2772 C2768 1.393 . S
C2772 C2773 1.401 . S
C2772 H2782 0.930 . S
C2773 C2771 1.392 . S
C2773 C2772 1.401 . S
C2773 H2783 0.930 . S
C2774 O2752 1.262 . S
C2774 O2753 1.260 . S
C2775 Tb2711 2.833 . S
C2775 O2750 1.251 . S
C2775 O2755 1.256 . S
C2775 C2768 1.500 . S
H2776 C2759 0.930 . S
H2777 C2760 0.931 . S
H2778 C2761 0.930 . S
H2779 C2762 0.930 . S
H2780 C2769 0.930 . S
H2781 C2771 0.931 . S
H2782 C2772 0.930 . S
H2783 C2773 0.930 . S
Tb2784 N2815 2.660 . S
Tb2784 N2822 2.600 . S
Tb2784 O2828 2.546 . S
Tb2784 O2829 2.610 1_554 S
Tb2784 O2831 2.320 . S
Tb2784 O2832 2.552 1_554 S
Tb2784 O2833 2.413 . S
Tb2784 O2835 2.362 . S
Tb2784 O2836 2.421 . S
Tb2784 C2848 2.833 . S
C2785 C2788 1.432 . S
C2785 C2789 1.414 . S
C2785 N2792 1.359 . S
C2786 C2788 1.417 . S
C2786 C2790 1.432 . S
C2786 C2798 1.410 . S
C2787 C2789 1.444 . S
C2787 C2790 1.317 . S
C2787 H2810 0.929 . S
C2788 C2785 1.432 . S
C2788 C2786 1.417 . S
C2788 N2796 1.360 . S
C2789 C2785 1.414 . S
C2789 C2787 1.444 . S
C2789 C2794 1.385 . S
C2790 C2786 1.432 . S
C2790 C2787 1.317 . S
C2790 H2802 0.930 . S
C2791 C2793 1.392 . S
C2791 C2794 1.370 . S
C2791 H2803 0.931 . S
N2792 C2785 1.359 . S
N2792 C2793 1.327 . S
N2792 Tb2795 2.600 1_556 S
C2793 C2791 1.392 . S
C2793 N2792 1.327 . S
C2793 H2800 0.930 . S
C2794 C2789 1.385 . S
C2794 C2791 1.370 . S
C2794 H2813 0.930 . S
Tb2795 N2792 2.600 1_554 S
Tb2795 N2796 2.660 1_554 S
Tb2795 O2829 2.362 1_554 S
Tb2795 O2830 2.421 . S
Tb2795 O2834 2.546 . S
Tb2795 O2835 2.610 . S
Tb2795 O2837 2.320 . S
Tb2795 O2838 2.552 . S
Tb2795 O2839 2.413 . S
Tb2795 C2859 2.833 . S
N2796 C2788 1.360 . S
N2796 Tb2795 2.660 1_556 S
N2796 C2797 1.305 . S
C2797 N2796 1.305 . S
C2797 C2799 1.407 . S
C2797 H2804 0.930 . S
C2798 C2786 1.410 . S
C2798 C2799 1.345 . S
C2798 H2806 0.930 . S
C2799 C2797 1.407 . S
C2799 C2798 1.345 . S
C2799 H2801 0.930 . S
H2800 C2793 0.930 . S
H2801 C2799 0.930 . S
H2802 C2790 0.930 . S
H2803 C2791 0.931 . S
H2804 C2797 0.930 . S
H2805 C2819 0.930 . S
H2806 C2798 0.930 . S
H2807 C2825 0.930 . S
H2808 C2816 0.930 . S
H2809 C2823 0.931 . S
H2810 C2787 0.929 . S
H2811 C2817 0.930 . S
H2812 C2850 0.930 . S
H2813 C2794 0.930 . S
H2814 C2849 0.929 . S
N2815 Tb2784 2.660 . S
N2815 C2816 1.305 . S
N2815 C2820 1.360 . S
C2816 H2808 0.930 . S
C2816 N2815 1.305 . S
C2816 C2819 1.407 . S
C2817 H2811 0.930 . S
C2817 C2818 1.410 . S
C2817 C2819 1.345 . S
C2818 C2817 1.410 . S
C2818 C2820 1.417 . S
C2818 C2850 1.432 . S
C2819 H2805 0.930 . S
C2819 C2816 1.407 . S
C2819 C2817 1.345 . S
C2820 N2815 1.360 . S
C2820 C2818 1.417 . S
C2820 C2824 1.432 . S
H2821 C2826 0.930 . S
N2822 Tb2784 2.600 . S
N2822 C2824 1.359 . S
N2822 C2825 1.327 . S
C2823 H2809 0.931 . S
C2823 C2825 1.392 . S
C2823 C2826 1.370 . S
C2824 C2820 1.432 . S
C2824 N2822 1.359 . S
C2824 C2827 1.414 . S
C2825 H2807 0.930 . S
C2825 N2822 1.327 . S
C2825 C2823 1.392 . S
C2826 H2821 0.930 . S
C2826 C2823 1.370 . S
C2826 C2827 1.385 . S
C2827 C2824 1.414 . S
C2827 C2826 1.385 . S
C2827 C2849 1.444 . S
O2828 Tb2784 2.546 . S
O2828 C2848 1.251 . S
O2829 Tb2784 2.610 1_556 S
O2829 Tb2795 2.362 1_556 S
O2829 C2840 1.283 . S
O2830 Tb2795 2.421 . S
O2830 C2847 1.262 . S
O2831 Tb2784 2.320 . S
O2831 C2847 1.260 . S
O2832 Tb2784 2.552 1_556 S
O2832 C2840 1.243 . S
O2833 Tb2784 2.413 . S
O2833 C2848 1.256 . S
O2834 Tb2795 2.546 . S
O2834 C2859 1.251 . S
O2835 Tb2784 2.362 . S
O2835 Tb2795 2.610 . S
O2835 C2851 1.283 . S
O2836 Tb2784 2.421 . S
O2836 C2858 1.262 . S
O2837 Tb2795 2.320 . S
O2837 C2858 1.260 . S
O2838 Tb2795 2.552 . S
O2838 C2851 1.243 . S
O2839 Tb2795 2.413 . S
O2839 C2859 1.256 . S
C2840 O2829 1.283 . S
C2840 O2832 1.243 . S
C2841 C2843 1.382 . S
C2841 C2845 1.393 . S
C2841 C2848 1.500 . S
C2842 C2843 1.400 1_556 S
C2842 C2844 1.384 1_556 S
C2843 C2841 1.382 . S
C2843 C2842 1.400 1_554 S
C2843 H2860 0.930 1_554 S
C2844 C2842 1.384 1_554 S
C2844 C2846 1.392 . S
C2844 H2861 0.932 . S
C2845 C2841 1.393 . S
C2845 C2846 1.401 . S
C2845 H2862 0.930 . S
C2846 C2844 1.392 . S
C2846 C2845 1.401 . S
C2846 H2863 0.930 . S
C2847 O2830 1.262 . S
C2847 O2831 1.260 . S
C2848 Tb2784 2.833 . S
C2848 O2828 1.251 . S
C2848 O2833 1.256 . S
C2848 C2841 1.500 . S
C2849 H2814 0.929 . S
C2849 C2827 1.444 . S
C2849 C2850 1.317 . S
C2850 H2812 0.930 . S
C2850 C2818 1.432 . S
C2850 C2849 1.317 . S
C2851 O2835 1.283 . S
C2851 O2838 1.243 . S
C2852 C2853 1.382 . S
C2852 C2856 1.393 . S
C2852 C2859 1.500 . S
C2853 C2852 1.382 . S
C2853 C2854 1.400 . S
C2853 H2864 0.930 . S
C2854 C2853 1.400 . S
C2854 C2855 1.384 . S
C2855 C2854 1.384 . S
C2855 C2857 1.392 . S
C2855 H2865 0.931 . S
C2856 C2852 1.393 . S
C2856 C2857 1.401 . S
C2856 H2866 0.930 . S
C2857 C2855 1.392 . S
C2857 C2856 1.401 . S
C2857 H2867 0.930 . S
C2858 O2836 1.262 . S
C2858 O2837 1.260 . S
C2859 Tb2795 2.833 . S
C2859 O2834 1.251 . S
C2859 O2839 1.256 . S
C2859 C2852 1.500 . S
H2860 C2843 0.930 1_556 S
H2861 C2844 0.932 . S
H2862 C2845 0.930 . S
H2863 C2846 0.930 . S
H2864 C2853 0.930 . S
H2865 C2855 0.931 . S
H2866 C2856 0.930 . S
H2867 C2857 0.930 . S
Tb2868 N2899 2.660 . S
Tb2868 N2906 2.600 . S
Tb2868 O2912 2.546 . S
Tb2868 O2913 2.610 . S
Tb2868 O2915 2.320 . S
Tb2868 O2916 2.552 . S
Tb2868 O2917 2.413 . S
Tb2868 O2919 2.362 . S
Tb2868 O2920 2.421 . S
Tb2868 C2932 2.833 . S
C2869 C2872 1.432 . S
C2869 C2873 1.414 . S
C2869 N2876 1.359 . S
C2870 C2872 1.417 . S
C2870 C2874 1.432 . S
C2870 C2882 1.410 . S
C2871 C2873 1.444 . S
C2871 C2874 1.317 . S
C2871 H2894 0.929 . S
C2872 C2869 1.432 . S
C2872 C2870 1.417 . S
C2872 N2880 1.360 . S
C2873 C2869 1.414 . S
C2873 C2871 1.444 . S
C2873 C2878 1.385 . S
C2874 C2870 1.432 . S
C2874 C2871 1.317 . S
C2874 H2886 0.930 . S
C2875 C2877 1.392 . S
C2875 C2878 1.370 . S
C2875 H2887 0.931 . S
N2876 C2869 1.359 . S
N2876 C2877 1.327 . S
N2876 Tb2879 2.600 . S
C2877 C2875 1.392 . S
C2877 N2876 1.327 . S
C2877 H2884 0.930 . S
C2878 C2873 1.385 . S
C2878 C2875 1.370 . S
C2878 H2897 0.930 . S
Tb2879 N2876 2.600 . S
Tb2879 N2880 2.660 . S
Tb2879 O2913 2.362 . S
Tb2879 O2914 2.421 . S
Tb2879 O2918 2.546 . S
Tb2879 O2919 2.610 . S
Tb2879 O2921 2.320 . S
Tb2879 O2922 2.552 . S
Tb2879 O2923 2.413 . S
Tb2879 C2943 2.833 . S
N2880 C2872 1.360 . S
N2880 Tb2879 2.660 . S
N2880 C2881 1.305 . S
C2881 N2880 1.305 . S
C2881 C2883 1.407 . S
C2881 H2888 0.930 . S
C2882 C2870 1.410 . S
C2882 C2883 1.345 . S
C2882 H2890 0.930 . S
C2883 C2881 1.407 . S
C2883 C2882 1.345 . S
C2883 H2885 0.930 . S
H2884 C2877 0.930 . S
H2885 C2883 0.930 . S
H2886 C2874 0.930 . S
H2887 C2875 0.931 . S
H2888 C2881 0.930 . S
H2889 C2903 0.930 . S
H2890 C2882 0.930 . S
H2891 C2909 0.930 . S
H2892 C2900 0.930 . S
H2893 C2907 0.931 . S
H2894 C2871 0.929 . S
H2895 C2901 0.930 . S
H2896 C2934 0.930 . S
H2897 C2878 0.930 . S
H2898 C2933 0.929 . S
N2899 Tb2868 2.660 . S
N2899 C2900 1.305 . S
N2899 C2904 1.360 . S
C2900 H2892 0.930 . S
C2900 N2899 1.305 . S
C2900 C2903 1.407 . S
C2901 H2895 0.930 . S
C2901 C2902 1.410 . S
C2901 C2903 1.345 . S
C2902 C2901 1.410 . S
C2902 C2904 1.417 . S
C2902 C2934 1.432 . S
C2903 H2889 0.930 . S
C2903 C2900 1.407 . S
C2903 C2901 1.345 . S
C2904 N2899 1.360 . S
C2904 C2902 1.417 . S
C2904 C2908 1.432 . S
H2905 C2910 0.930 . S
N2906 Tb2868 2.600 . S
N2906 C2908 1.359 . S
N2906 C2909 1.327 . S
C2907 H2893 0.931 . S
C2907 C2909 1.392 . S
C2907 C2910 1.370 . S
C2908 C2904 1.432 . S
C2908 N2906 1.359 . S
C2908 C2911 1.414 . S
C2909 H2891 0.930 . S
C2909 N2906 1.327 . S
C2909 C2907 1.392 . S
C2910 H2905 0.930 . S
C2910 C2907 1.370 . S
C2910 C2911 1.385 . S
C2911 C2908 1.414 . S
C2911 C2910 1.385 . S
C2911 C2933 1.444 . S
O2912 Tb2868 2.546 . S
O2912 C2932 1.251 . S
O2913 Tb2868 2.610 . S
O2913 Tb2879 2.362 . S
O2913 C2924 1.283 . S
O2914 Tb2879 2.421 . S
O2914 C2931 1.262 . S
O2915 Tb2868 2.320 . S
O2915 C2931 1.260 . S
O2916 Tb2868 2.552 . S
O2916 C2924 1.243 . S
O2917 Tb2868 2.413 . S
O2917 C2932 1.256 . S
O2918 Tb2879 2.546 . S
O2918 C2943 1.251 . S
O2919 Tb2868 2.362 . S
O2919 Tb2879 2.610 . S
O2919 C2935 1.283 . S
O2920 Tb2868 2.421 . S
O2920 C2942 1.262 . S
O2921 Tb2879 2.320 . S
O2921 C2942 1.260 . S
O2922 Tb2879 2.552 . S
O2922 C2935 1.243 . S
O2923 Tb2879 2.413 . S
O2923 C2943 1.256 . S
C2924 O2913 1.283 . S
C2924 O2916 1.243 . S
C2925 C2927 1.382 . S
C2925 C2929 1.393 . S
C2925 C2932 1.500 . S
C2926 C2927 1.400 . S
C2926 C2928 1.384 . S
C2927 C2925 1.382 . S
C2927 C2926 1.400 . S
C2927 H2944 0.930 . S
C2928 C2926 1.384 . S
C2928 C2930 1.392 . S
C2928 H2945 0.931 . S
C2929 C2925 1.393 . S
C2929 C2930 1.401 . S
C2929 H2946 0.930 . S
C2930 C2928 1.392 . S
C2930 C2929 1.401 . S
C2930 H2947 0.930 . S
C2931 O2914 1.262 . S
C2931 O2915 1.260 . S
C2932 Tb2868 2.833 . S
C2932 O2912 1.251 . S
C2932 O2917 1.256 . S
C2932 C2925 1.500 . S
C2933 H2898 0.929 . S
C2933 C2911 1.444 . S
C2933 C2934 1.317 . S
C2934 H2896 0.930 . S
C2934 C2902 1.432 . S
C2934 C2933 1.317 . S
C2935 O2919 1.283 . S
C2935 O2922 1.243 . S
C2936 C2937 1.382 . S
C2936 C2940 1.393 . S
C2936 C2943 1.500 . S
C2937 C2936 1.382 . S
C2937 C2938 1.400 . S
C2937 H2948 0.930 . S
C2938 C2937 1.400 . S
C2938 C2939 1.384 . S
C2939 C2938 1.384 . S
C2939 C2941 1.392 . S
C2939 H2949 0.931 . S
C2940 C2936 1.393 . S
C2940 C2941 1.401 . S
C2940 H2950 0.930 . S
C2941 C2939 1.392 . S
C2941 C2940 1.401 . S
C2941 H2951 0.930 . S
C2942 O2920 1.262 . S
C2942 O2921 1.260 . S
C2943 Tb2879 2.833 . S
C2943 O2918 1.251 . S
C2943 O2923 1.256 . S
C2943 C2936 1.500 . S
H2944 C2927 0.930 . S
H2945 C2928 0.931 . S
H2946 C2929 0.930 . S
H2947 C2930 0.930 . S
H2948 C2937 0.930 . S
H2949 C2939 0.931 . S
H2950 C2940 0.930 . S
H2951 C2941 0.930 . S
Tb2952 N2983 2.660 . S
Tb2952 N2990 2.600 . S
Tb2952 O2996 2.546 . S
Tb2952 O2997 2.610 . S
Tb2952 O2999 2.320 . S
Tb2952 O3000 2.552 . S
Tb2952 O3001 2.413 . S
Tb2952 O3003 2.362 . S
Tb2952 O3004 2.421 . S
Tb2952 C3016 2.833 . S
C2953 C2956 1.432 . S
C2953 C2957 1.414 1_455 S
C2953 N2960 1.359 . S
C2954 C2956 1.417 1_655 S
C2954 C2958 1.432 . S
C2954 C2966 1.410 . S
C2955 C2957 1.444 . S
C2955 C2958 1.317 . S
C2955 H2978 0.929 . S
C2956 C2953 1.432 . S
C2956 C2954 1.417 1_455 S
C2956 N2964 1.360 . S
C2957 C2953 1.414 1_655 S
C2957 C2955 1.444 . S
C2957 C2962 1.385 . S
C2958 C2954 1.432 . S
C2958 C2955 1.317 . S
C2958 H2970 0.930 . S
C2959 C2961 1.392 . S
C2959 C2962 1.370 1_455 S
C2959 H2971 0.931 . S
N2960 C2953 1.359 . S
N2960 C2961 1.327 . S
N2960 Tb2963 2.600 . S
C2961 C2959 1.392 . S
C2961 N2960 1.327 . S
C2961 H2968 0.930 . S
C2962 C2957 1.385 . S
C2962 C2959 1.370 1_655 S
C2962 H2981 0.930 . S
Tb2963 N2960 2.600 . S
Tb2963 N2964 2.660 . S
Tb2963 O2997 2.362 . S
Tb2963 O2998 2.421 . S
Tb2963 O3002 2.546 . S
Tb2963 O3003 2.610 . S
Tb2963 O3005 2.320 . S
Tb2963 O3006 2.552 . S
Tb2963 O3007 2.413 . S
Tb2963 C3027 2.833 . S
N2964 C2956 1.360 . S
N2964 Tb2963 2.660 . S
N2964 C2965 1.305 . S
C2965 N2964 1.305 . S
C2965 C2967 1.407 1_455 S
C2965 H2972 0.930 . S
C2966 C2954 1.410 . S
C2966 C2967 1.345 . S
C2966 H2974 0.930 . S
C2967 C2965 1.407 1_655 S
C2967 C2966 1.345 . S
C2967 H2969 0.930 . S
H2968 C2961 0.930 . S
H2969 C2967 0.930 . S
H2970 C2958 0.930 . S
H2971 C2959 0.931 . S
H2972 C2965 0.930 . S
H2973 C2987 0.930 . S
H2974 C2966 0.930 . S
H2975 C2993 0.930 . S
H2976 C2984 0.930 . S
H2977 C2991 0.931 . S
H2978 C2955 0.929 . S
H2979 C2985 0.930 . S
H2980 C3018 0.930 . S
H2981 C2962 0.930 . S
H2982 C3017 0.929 . S
N2983 Tb2952 2.660 . S
N2983 C2984 1.305 . S
N2983 C2988 1.360 . S
C2984 H2976 0.930 . S
C2984 N2983 1.305 . S
C2984 C2987 1.407 . S
C2985 H2979 0.930 . S
C2985 C2986 1.410 . S
C2985 C2987 1.345 . S
C2986 C2985 1.410 . S
C2986 C2988 1.417 . S
C2986 C3018 1.432 . S
C2987 H2973 0.930 . S
C2987 C2984 1.407 . S
C2987 C2985 1.345 . S
C2988 N2983 1.360 . S
C2988 C2986 1.417 . S
C2988 C2992 1.432 . S
H2989 C2994 0.930 . S
N2990 Tb2952 2.600 . S
N2990 C2992 1.359 . S
N2990 C2993 1.327 . S
C2991 H2977 0.931 . S
C2991 C2993 1.392 . S
C2991 C2994 1.370 . S
C2992 C2988 1.432 . S
C2992 N2990 1.359 . S
C2992 C2995 1.414 . S
C2993 H2975 0.930 . S
C2993 N2990 1.327 . S
C2993 C2991 1.392 . S
C2994 H2989 0.930 . S
C2994 C2991 1.370 . S
C2994 C2995 1.385 . S
C2995 C2992 1.414 . S
C2995 C2994 1.385 . S
C2995 C3017 1.444 . S
O2996 Tb2952 2.546 . S
O2996 C3016 1.251 . S
O2997 Tb2952 2.610 . S
O2997 Tb2963 2.362 . S
O2997 C3008 1.283 . S
O2998 Tb2963 2.421 . S
O2998 C3015 1.262 . S
O2999 Tb2952 2.320 . S
O2999 C3015 1.260 . S
O3000 Tb2952 2.552 . S
O3000 C3008 1.243 . S
O3001 Tb2952 2.413 . S
O3001 C3016 1.256 . S
O3002 Tb2963 2.546 . S
O3002 C3027 1.251 . S
O3003 Tb2952 2.362 . S
O3003 Tb2963 2.610 . S
O3003 C3019 1.283 . S
O3004 Tb2952 2.421 . S
O3004 C3026 1.262 . S
O3005 Tb2963 2.320 . S
O3005 C3026 1.260 . S
O3006 Tb2963 2.552 . S
O3006 C3019 1.243 . S
O3007 Tb2963 2.413 . S
O3007 C3027 1.256 . S
C3008 O2997 1.283 . S
C3008 O3000 1.243 . S
C3009 C3011 1.382 . S
C3009 C3013 1.393 . S
C3009 C3016 1.500 . S
C3010 C3011 1.400 . S
C3010 C3012 1.384 . S
C3011 C3009 1.382 . S
C3011 C3010 1.400 . S
C3011 H3028 0.930 . S
C3012 C3010 1.384 . S
C3012 C3014 1.392 . S
C3012 H3029 0.931 . S
C3013 C3009 1.393 . S
C3013 C3014 1.401 . S
C3013 H3030 0.930 . S
C3014 C3012 1.392 . S
C3014 C3013 1.401 . S
C3014 H3031 0.930 . S
C3015 O2998 1.262 . S
C3015 O2999 1.260 . S
C3016 Tb2952 2.833 . S
C3016 O2996 1.251 . S
C3016 O3001 1.256 . S
C3016 C3009 1.500 . S
C3017 H2982 0.929 . S
C3017 C2995 1.444 . S
C3017 C3018 1.317 . S
C3018 H2980 0.930 . S
C3018 C2986 1.432 . S
C3018 C3017 1.317 . S
C3019 O3003 1.283 . S
C3019 O3006 1.243 . S
C3020 C3021 1.382 . S
C3020 C3024 1.393 . S
C3020 C3027 1.500 . S
C3021 C3020 1.382 . S
C3021 C3022 1.400 . S
C3021 H3032 0.930 . S
C3022 C3021 1.400 . S
C3022 C3023 1.384 . S
C3023 C3022 1.384 . S
C3023 C3025 1.392 . S
C3023 H3033 0.931 . S
C3024 C3020 1.393 . S
C3024 C3025 1.401 . S
C3024 H3034 0.930 . S
C3025 C3023 1.392 . S
C3025 C3024 1.401 . S
C3025 H3035 0.930 . S
C3026 O3004 1.262 . S
C3026 O3005 1.260 . S
C3027 Tb2963 2.833 . S
C3027 O3002 1.251 . S
C3027 O3007 1.256 . S
C3027 C3020 1.500 . S
H3028 C3011 0.930 . S
H3029 C3012 0.931 . S
H3030 C3013 0.930 . S
H3031 C3014 0.930 . S
H3032 C3021 0.930 . S
H3033 C3023 0.931 . S
H3034 C3024 0.930 . S
H3035 C3025 0.930 . S
Tb3036 N3067 2.660 . S
Tb3036 N3074 2.600 . S
Tb3036 O3080 2.546 . S
Tb3036 O3081 2.610 . S
Tb3036 O3083 2.320 . S
Tb3036 O3084 2.552 . S
Tb3036 O3085 2.413 . S
Tb3036 O3087 2.362 . S
Tb3036 O3088 2.421 . S
Tb3036 C3100 2.833 . S
C3037 C3040 1.432 . S
C3037 C3041 1.414 . S
C3037 N3044 1.359 . S
C3038 C3040 1.417 . S
C3038 C3042 1.432 . S
C3038 C3050 1.410 . S
C3039 C3041 1.444 . S
C3039 C3042 1.317 . S
C3039 H3062 0.929 . S
C3040 C3037 1.432 . S
C3040 C3038 1.417 . S
C3040 N3048 1.360 . S
C3041 C3037 1.414 . S
C3041 C3039 1.444 . S
C3041 C3046 1.385 . S
C3042 C3038 1.432 . S
C3042 C3039 1.317 . S
C3042 H3054 0.930 . S
C3043 C3045 1.392 . S
C3043 C3046 1.370 . S
C3043 H3055 0.931 . S
N3044 C3037 1.359 . S
N3044 C3045 1.327 . S
N3044 Tb3047 2.600 . S
C3045 C3043 1.392 . S
C3045 N3044 1.327 . S
C3045 H3052 0.930 . S
C3046 C3041 1.385 . S
C3046 C3043 1.370 . S
C3046 H3065 0.930 . S
Tb3047 N3044 2.600 . S
Tb3047 N3048 2.660 . S
Tb3047 O3081 2.362 . S
Tb3047 O3082 2.421 . S
Tb3047 O3086 2.546 . S
Tb3047 O3087 2.610 . S
Tb3047 O3089 2.320 . S
Tb3047 O3090 2.552 . S
Tb3047 O3091 2.413 . S
Tb3047 C3111 2.833 . S
N3048 C3040 1.360 . S
N3048 Tb3047 2.660 . S
N3048 C3049 1.305 . S
C3049 N3048 1.305 . S
C3049 C3051 1.407 . S
C3049 H3056 0.930 . S
C3050 C3038 1.410 . S
C3050 C3051 1.345 . S
C3050 H3058 0.930 . S
C3051 C3049 1.407 . S
C3051 C3050 1.345 . S
C3051 H3053 0.930 . S
H3052 C3045 0.930 . S
H3053 C3051 0.930 . S
H3054 C3042 0.930 . S
H3055 C3043 0.931 . S
H3056 C3049 0.930 . S
H3057 C3071 0.930 . S
H3058 C3050 0.930 . S
H3059 C3077 0.930 . S
H3060 C3068 0.930 . S
H3061 C3075 0.931 . S
H3062 C3039 0.929 . S
H3063 C3069 0.930 . S
H3064 C3102 0.930 . S
H3065 C3046 0.930 . S
H3066 C3101 0.929 . S
N3067 Tb3036 2.660 . S
N3067 C3068 1.305 . S
N3067 C3072 1.360 . S
C3068 H3060 0.930 . S
C3068 N3067 1.305 . S
C3068 C3071 1.407 . S
C3069 H3063 0.930 . S
C3069 C3070 1.410 . S
C3069 C3071 1.345 . S
C3070 C3069 1.410 . S
C3070 C3072 1.417 . S
C3070 C3102 1.432 . S
C3071 H3057 0.930 . S
C3071 C3068 1.407 . S
C3071 C3069 1.345 . S
C3072 N3067 1.360 . S
C3072 C3070 1.417 . S
C3072 C3076 1.432 . S
H3073 C3078 0.930 . S
N3074 Tb3036 2.600 . S
N3074 C3076 1.359 . S
N3074 C3077 1.327 . S
C3075 H3061 0.931 . S
C3075 C3077 1.392 . S
C3075 C3078 1.370 . S
C3076 C3072 1.432 . S
C3076 N3074 1.359 . S
C3076 C3079 1.414 . S
C3077 H3059 0.930 . S
C3077 N3074 1.327 . S
C3077 C3075 1.392 . S
C3078 H3073 0.930 . S
C3078 C3075 1.370 . S
C3078 C3079 1.385 . S
C3079 C3076 1.414 . S
C3079 C3078 1.385 . S
C3079 C3101 1.444 . S
O3080 Tb3036 2.546 . S
O3080 C3100 1.251 . S
O3081 Tb3036 2.610 . S
O3081 Tb3047 2.362 . S
O3081 C3092 1.283 . S
O3082 Tb3047 2.421 . S
O3082 C3099 1.262 . S
O3083 Tb3036 2.320 . S
O3083 C3099 1.260 . S
O3084 Tb3036 2.552 . S
O3084 C3092 1.243 . S
O3085 Tb3036 2.413 . S
O3085 C3100 1.256 . S
O3086 Tb3047 2.546 . S
O3086 C3111 1.251 . S
O3087 Tb3036 2.362 . S
O3087 Tb3047 2.610 . S
O3087 C3103 1.283 . S
O3088 Tb3036 2.421 . S
O3088 C3110 1.262 . S
O3089 Tb3047 2.320 . S
O3089 C3110 1.260 . S
O3090 Tb3047 2.552 . S
O3090 C3103 1.243 . S
O3091 Tb3047 2.413 . S
O3091 C3111 1.256 . S
C3092 O3081 1.283 . S
C3092 O3084 1.243 . S
C3093 C3095 1.382 . S
C3093 C3097 1.393 . S
C3093 C3100 1.500 . S
C3094 C3095 1.400 . S
C3094 C3096 1.384 . S
C3095 C3093 1.382 . S
C3095 C3094 1.400 . S
C3095 H3112 0.930 . S
C3096 C3094 1.384 . S
C3096 C3098 1.392 . S
C3096 H3113 0.931 . S
C3097 C3093 1.393 . S
C3097 C3098 1.401 . S
C3097 H3114 0.930 . S
C3098 C3096 1.392 . S
C3098 C3097 1.401 . S
C3098 H3115 0.930 . S
C3099 O3082 1.262 . S
C3099 O3083 1.260 . S
C3100 Tb3036 2.833 . S
C3100 O3080 1.251 . S
C3100 O3085 1.256 . S
C3100 C3093 1.500 . S
C3101 H3066 0.929 . S
C3101 C3079 1.444 . S
C3101 C3102 1.317 . S
C3102 H3064 0.930 . S
C3102 C3070 1.432 . S
C3102 C3101 1.317 . S
C3103 O3087 1.283 . S
C3103 O3090 1.243 . S
C3104 C3105 1.382 . S
C3104 C3108 1.393 . S
C3104 C3111 1.500 . S
C3105 C3104 1.382 . S
C3105 C3106 1.400 . S
C3105 H3116 0.930 . S
C3106 C3105 1.400 . S
C3106 C3107 1.384 . S
C3107 C3106 1.384 . S
C3107 C3109 1.392 . S
C3107 H3117 0.931 . S
C3108 C3104 1.393 . S
C3108 C3109 1.401 . S
C3108 H3118 0.930 . S
C3109 C3107 1.392 . S
C3109 C3108 1.401 . S
C3109 H3119 0.930 . S
C3110 O3088 1.262 . S
C3110 O3089 1.260 . S
C3111 Tb3047 2.833 . S
C3111 O3086 1.251 . S
C3111 O3091 1.256 . S
C3111 C3104 1.500 . S
H3112 C3095 0.930 . S
H3113 C3096 0.931 . S
H3114 C3097 0.930 . S
H3115 C3098 0.930 . S
H3116 C3105 0.930 . S
H3117 C3107 0.931 . S
H3118 C3108 0.930 . S
H3119 C3109 0.930 . S
Tb3120 N3151 2.660 . S
Tb3120 N3158 2.600 . S
Tb3120 O3164 2.546 . S
Tb3120 O3165 2.610 . S
Tb3120 O3167 2.320 . S
Tb3120 O3168 2.552 . S
Tb3120 O3169 2.413 . S
Tb3120 O3171 2.362 . S
Tb3120 O3172 2.421 . S
Tb3120 C3184 2.833 . S
C3121 C3124 1.432 . S
C3121 C3125 1.414 . S
C3121 N3128 1.359 . S
C3122 C3124 1.417 . S
C3122 C3126 1.432 . S
C3122 C3134 1.410 . S
C3123 C3125 1.444 . S
C3123 C3126 1.317 . S
C3123 H3146 0.929 . S
C3124 C3121 1.432 . S
C3124 C3122 1.417 . S
C3124 N3132 1.360 . S
C3125 C3121 1.414 . S
C3125 C3123 1.444 . S
C3125 C3130 1.385 . S
C3126 C3122 1.432 . S
C3126 C3123 1.317 . S
C3126 H3138 0.930 . S
C3127 C3129 1.392 . S
C3127 C3130 1.370 . S
C3127 H3139 0.931 . S
N3128 C3121 1.359 . S
N3128 C3129 1.327 . S
N3128 Tb3131 2.600 . S
C3129 C3127 1.392 . S
C3129 N3128 1.327 . S
C3129 H3136 0.930 . S
C3130 C3125 1.385 . S
C3130 C3127 1.370 . S
C3130 H3149 0.930 . S
Tb3131 N3128 2.600 . S
Tb3131 N3132 2.660 . S
Tb3131 O3165 2.362 . S
Tb3131 O3166 2.421 . S
Tb3131 O3170 2.546 . S
Tb3131 O3171 2.610 . S
Tb3131 O3173 2.320 . S
Tb3131 O3174 2.552 . S
Tb3131 O3175 2.413 . S
Tb3131 C3195 2.833 . S
N3132 C3124 1.360 . S
N3132 Tb3131 2.660 . S
N3132 C3133 1.305 . S
C3133 N3132 1.305 . S
C3133 C3135 1.407 . S
C3133 H3140 0.930 . S
C3134 C3122 1.410 . S
C3134 C3135 1.345 . S
C3134 H3142 0.930 . S
C3135 C3133 1.407 . S
C3135 C3134 1.345 . S
C3135 H3137 0.930 . S
H3136 C3129 0.930 . S
H3137 C3135 0.930 . S
H3138 C3126 0.930 . S
H3139 C3127 0.931 . S
H3140 C3133 0.930 . S
H3141 C3155 0.930 . S
H3142 C3134 0.930 . S
H3143 C3161 0.930 . S
H3144 C3152 0.930 . S
H3145 C3159 0.931 . S
H3146 C3123 0.929 . S
H3147 C3153 0.930 . S
H3148 C3186 0.930 . S
H3149 C3130 0.930 . S
H3150 C3185 0.929 . S
N3151 Tb3120 2.660 . S
N3151 C3152 1.305 . S
N3151 C3156 1.360 . S
C3152 H3144 0.930 . S
C3152 N3151 1.305 . S
C3152 C3155 1.407 . S
C3153 H3147 0.930 . S
C3153 C3154 1.410 . S
C3153 C3155 1.345 . S
C3154 C3153 1.410 . S
C3154 C3156 1.417 . S
C3154 C3186 1.432 . S
C3155 H3141 0.930 . S
C3155 C3152 1.407 . S
C3155 C3153 1.345 . S
C3156 N3151 1.360 . S
C3156 C3154 1.417 . S
C3156 C3160 1.432 . S
H3157 C3162 0.930 . S
N3158 Tb3120 2.600 . S
N3158 C3160 1.359 . S
N3158 C3161 1.327 . S
C3159 H3145 0.931 . S
C3159 C3161 1.392 . S
C3159 C3162 1.370 . S
C3160 C3156 1.432 . S
C3160 N3158 1.359 . S
C3160 C3163 1.414 . S
C3161 H3143 0.930 . S
C3161 N3158 1.327 . S
C3161 C3159 1.392 . S
C3162 H3157 0.930 . S
C3162 C3159 1.370 . S
C3162 C3163 1.385 . S
C3163 C3160 1.414 . S
C3163 C3162 1.385 . S
C3163 C3185 1.444 . S
O3164 Tb3120 2.546 . S
O3164 C3184 1.251 . S
O3165 Tb3120 2.610 . S
O3165 Tb3131 2.362 . S
O3165 C3176 1.283 . S
O3166 Tb3131 2.421 . S
O3166 C3183 1.262 . S
O3167 Tb3120 2.320 . S
O3167 C3183 1.260 . S
O3168 Tb3120 2.552 . S
O3168 C3176 1.243 . S
O3169 Tb3120 2.413 . S
O3169 C3184 1.256 . S
O3170 Tb3131 2.546 . S
O3170 C3195 1.251 . S
O3171 Tb3120 2.362 . S
O3171 Tb3131 2.610 . S
O3171 C3187 1.283 . S
O3172 Tb3120 2.421 . S
O3172 C3194 1.262 . S
O3173 Tb3131 2.320 . S
O3173 C3194 1.260 . S
O3174 Tb3131 2.552 . S
O3174 C3187 1.243 . S
O3175 Tb3131 2.413 . S
O3175 C3195 1.256 . S
C3176 O3165 1.283 . S
C3176 O3168 1.243 . S
C3177 C3179 1.382 . S
C3177 C3181 1.393 . S
C3177 C3184 1.500 . S
C3178 C3179 1.400 . S
C3178 C3180 1.384 . S
C3179 C3177 1.382 . S
C3179 C3178 1.400 . S
C3179 H3196 0.930 . S
C3180 C3178 1.384 . S
C3180 C3182 1.392 . S
C3180 H3197 0.931 . S
C3181 C3177 1.393 . S
C3181 C3182 1.401 . S
C3181 H3198 0.930 . S
C3182 C3180 1.392 . S
C3182 C3181 1.401 . S
C3182 H3199 0.930 . S
C3183 O3166 1.262 . S
C3183 O3167 1.260 . S
C3184 Tb3120 2.833 . S
C3184 O3164 1.251 . S
C3184 O3169 1.256 . S
C3184 C3177 1.500 . S
C3185 H3150 0.929 . S
C3185 C3163 1.444 . S
C3185 C3186 1.317 . S
C3186 H3148 0.930 . S
C3186 C3154 1.432 . S
C3186 C3185 1.317 . S
C3187 O3171 1.283 . S
C3187 O3174 1.243 . S
C3188 C3189 1.382 . S
C3188 C3192 1.393 . S
C3188 C3195 1.500 . S
C3189 C3188 1.382 . S
C3189 C3190 1.400 . S
C3189 H3200 0.930 . S
C3190 C3189 1.400 . S
C3190 C3191 1.384 . S
C3191 C3190 1.384 . S
C3191 C3193 1.392 . S
C3191 H3201 0.931 . S
C3192 C3188 1.393 . S
C3192 C3193 1.401 . S
C3192 H3202 0.930 . S
C3193 C3191 1.392 . S
C3193 C3192 1.401 . S
C3193 H3203 0.930 . S
C3194 O3172 1.262 . S
C3194 O3173 1.260 . S
C3195 Tb3131 2.833 . S
C3195 O3170 1.251 . S
C3195 O3175 1.256 . S
C3195 C3188 1.500 . S
H3196 C3179 0.930 . S
H3197 C3180 0.931 . S
H3198 C3181 0.930 . S
H3199 C3182 0.930 . S
H3200 C3189 0.930 . S
H3201 C3191 0.931 . S
H3202 C3192 0.930 . S
H3203 C3193 0.930 . S
Tb3204 N3235 2.660 . S
Tb3204 N3242 2.600 . S
Tb3204 O3248 2.546 . S
Tb3204 O3249 2.610 . S
Tb3204 O3251 2.320 . S
Tb3204 O3252 2.552 . S
Tb3204 O3253 2.413 . S
Tb3204 O3255 2.362 . S
Tb3204 O3256 2.421 . S
Tb3204 C3268 2.833 . S
C3205 C3208 1.432 . S
C3205 C3209 1.414 . S
C3205 N3212 1.359 . S
C3206 C3208 1.417 . S
C3206 C3210 1.432 . S
C3206 C3218 1.410 . S
C3207 C3209 1.444 . S
C3207 C3210 1.317 . S
C3207 H3230 0.929 . S
C3208 C3205 1.432 . S
C3208 C3206 1.417 . S
C3208 N3216 1.360 . S
C3209 C3205 1.414 . S
C3209 C3207 1.444 . S
C3209 C3214 1.385 . S
C3210 C3206 1.432 . S
C3210 C3207 1.317 . S
C3210 H3222 0.930 . S
C3211 C3213 1.392 . S
C3211 C3214 1.370 . S
C3211 H3223 0.931 . S
N3212 C3205 1.359 . S
N3212 C3213 1.327 . S
N3212 Tb3215 2.600 . S
C3213 C3211 1.392 . S
C3213 N3212 1.327 . S
C3213 H3220 0.930 . S
C3214 C3209 1.385 . S
C3214 C3211 1.370 . S
C3214 H3233 0.930 . S
Tb3215 N3212 2.600 . S
Tb3215 N3216 2.660 . S
Tb3215 O3249 2.362 . S
Tb3215 O3250 2.421 . S
Tb3215 O3254 2.546 . S
Tb3215 O3255 2.610 . S
Tb3215 O3257 2.320 . S
Tb3215 O3258 2.552 . S
Tb3215 O3259 2.413 . S
Tb3215 C3279 2.833 . S
N3216 C3208 1.360 . S
N3216 Tb3215 2.660 . S
N3216 C3217 1.305 . S
C3217 N3216 1.305 . S
C3217 C3219 1.407 . S
C3217 H3224 0.930 . S
C3218 C3206 1.410 . S
C3218 C3219 1.345 . S
C3218 H3226 0.930 . S
C3219 C3217 1.407 . S
C3219 C3218 1.345 . S
C3219 H3221 0.930 . S
H3220 C3213 0.930 . S
H3221 C3219 0.930 . S
H3222 C3210 0.930 . S
H3223 C3211 0.931 . S
H3224 C3217 0.930 . S
H3225 C3239 0.930 . S
H3226 C3218 0.930 . S
H3227 C3245 0.930 . S
H3228 C3236 0.930 . S
H3229 C3243 0.931 . S
H3230 C3207 0.929 . S
H3231 C3237 0.930 . S
H3232 C3270 0.930 . S
H3233 C3214 0.930 . S
H3234 C3269 0.929 . S
N3235 Tb3204 2.660 . S
N3235 C3236 1.305 . S
N3235 C3240 1.360 . S
C3236 H3228 0.930 . S
C3236 N3235 1.305 . S
C3236 C3239 1.407 . S
C3237 H3231 0.930 . S
C3237 C3238 1.410 . S
C3237 C3239 1.345 . S
C3238 C3237 1.410 . S
C3238 C3240 1.417 . S
C3238 C3270 1.432 . S
C3239 H3225 0.930 . S
C3239 C3236 1.407 . S
C3239 C3237 1.345 . S
C3240 N3235 1.360 . S
C3240 C3238 1.417 . S
C3240 C3244 1.432 . S
H3241 C3246 0.930 . S
N3242 Tb3204 2.600 . S
N3242 C3244 1.359 . S
N3242 C3245 1.327 . S
C3243 H3229 0.931 . S
C3243 C3245 1.392 . S
C3243 C3246 1.370 . S
C3244 C3240 1.432 . S
C3244 N3242 1.359 . S
C3244 C3247 1.414 . S
C3245 H3227 0.930 . S
C3245 N3242 1.327 . S
C3245 C3243 1.392 . S
C3246 H3241 0.930 . S
C3246 C3243 1.370 . S
C3246 C3247 1.385 . S
C3247 C3244 1.414 . S
C3247 C3246 1.385 . S
C3247 C3269 1.444 . S
O3248 Tb3204 2.546 . S
O3248 C3268 1.251 . S
O3249 Tb3204 2.610 . S
O3249 Tb3215 2.362 . S
O3249 C3260 1.283 . S
O3250 Tb3215 2.421 . S
O3250 C3267 1.262 . S
O3251 Tb3204 2.320 . S
O3251 C3267 1.260 . S
O3252 Tb3204 2.552 . S
O3252 C3260 1.243 . S
O3253 Tb3204 2.413 . S
O3253 C3268 1.256 . S
O3254 Tb3215 2.546 . S
O3254 C3279 1.251 . S
O3255 Tb3204 2.362 . S
O3255 Tb3215 2.610 . S
O3255 C3271 1.283 . S
O3256 Tb3204 2.421 . S
O3256 C3278 1.262 . S
O3257 Tb3215 2.320 . S
O3257 C3278 1.260 . S
O3258 Tb3215 2.552 . S
O3258 C3271 1.243 . S
O3259 Tb3215 2.413 . S
O3259 C3279 1.256 . S
C3260 O3249 1.283 . S
C3260 O3252 1.243 . S
C3261 C3263 1.382 . S
C3261 C3265 1.393 . S
C3261 C3268 1.500 . S
C3262 C3263 1.400 . S
C3262 C3264 1.384 . S
C3263 C3261 1.382 . S
C3263 C3262 1.400 . S
C3263 H3280 0.930 . S
C3264 C3262 1.384 . S
C3264 C3266 1.392 . S
C3264 H3281 0.931 . S
C3265 C3261 1.393 . S
C3265 C3266 1.401 . S
C3265 H3282 0.930 . S
C3266 C3264 1.392 . S
C3266 C3265 1.401 . S
C3266 H3283 0.930 . S
C3267 O3250 1.262 . S
C3267 O3251 1.260 . S
C3268 Tb3204 2.833 . S
C3268 O3248 1.251 . S
C3268 O3253 1.256 . S
C3268 C3261 1.500 . S
C3269 H3234 0.929 . S
C3269 C3247 1.444 . S
C3269 C3270 1.317 . S
C3270 H3232 0.930 . S
C3270 C3238 1.432 . S
C3270 C3269 1.317 . S
C3271 O3255 1.283 . S
C3271 O3258 1.243 . S
C3272 C3273 1.382 . S
C3272 C3276 1.393 . S
C3272 C3279 1.500 . S
C3273 C3272 1.382 . S
C3273 C3274 1.400 . S
C3273 H3284 0.930 . S
C3274 C3273 1.400 . S
C3274 C3275 1.384 . S
C3275 C3274 1.384 . S
C3275 C3277 1.392 . S
C3275 H3285 0.931 . S
C3276 C3272 1.393 . S
C3276 C3277 1.401 . S
C3276 H3286 0.930 . S
C3277 C3275 1.392 . S
C3277 C3276 1.401 . S
C3277 H3287 0.930 . S
C3278 O3256 1.262 . S
C3278 O3257 1.260 . S
C3279 Tb3215 2.833 . S
C3279 O3254 1.251 . S
C3279 O3259 1.256 . S
C3279 C3272 1.500 . S
H3280 C3263 0.930 . S
H3281 C3264 0.931 . S
H3282 C3265 0.930 . S
H3283 C3266 0.930 . S
H3284 C3273 0.930 . S
H3285 C3275 0.931 . S
H3286 C3276 0.930 . S
H3287 C3277 0.930 . S
Tb3288 N3319 2.660 . S
Tb3288 N3326 2.600 . S
Tb3288 O3332 2.546 . S
Tb3288 O3333 2.610 . S
Tb3288 O3335 2.320 . S
Tb3288 O3336 2.552 . S
Tb3288 O3337 2.413 . S
Tb3288 O3339 2.362 . S
Tb3288 O3340 2.421 . S
Tb3288 C3352 2.833 . S
C3289 C3292 1.432 . S
C3289 C3293 1.414 . S
C3289 N3296 1.359 . S
C3290 C3292 1.417 . S
C3290 C3294 1.432 . S
C3290 C3302 1.410 . S
C3291 C3293 1.444 . S
C3291 C3294 1.317 . S
C3291 H3314 0.929 . S
C3292 C3289 1.432 . S
C3292 C3290 1.417 . S
C3292 N3300 1.360 . S
C3293 C3289 1.414 . S
C3293 C3291 1.444 . S
C3293 C3298 1.385 . S
C3294 C3290 1.432 . S
C3294 C3291 1.317 . S
C3294 H3306 0.930 . S
C3295 C3297 1.392 . S
C3295 C3298 1.370 . S
C3295 H3307 0.931 . S
N3296 C3289 1.359 . S
N3296 C3297 1.327 . S
N3296 Tb3299 2.600 . S
C3297 C3295 1.392 . S
C3297 N3296 1.327 . S
C3297 H3304 0.930 . S
C3298 C3293 1.385 . S
C3298 C3295 1.370 . S
C3298 H3317 0.930 . S
Tb3299 N3296 2.600 . S
Tb3299 N3300 2.660 . S
Tb3299 O3333 2.362 . S
Tb3299 O3334 2.421 . S
Tb3299 O3338 2.546 . S
Tb3299 O3339 2.610 . S
Tb3299 O3341 2.320 . S
Tb3299 O3342 2.552 . S
Tb3299 O3343 2.413 . S
Tb3299 C3363 2.833 . S
N3300 C3292 1.360 . S
N3300 Tb3299 2.660 . S
N3300 C3301 1.305 . S
C3301 N3300 1.305 . S
C3301 C3303 1.407 . S
C3301 H3308 0.930 . S
C3302 C3290 1.410 . S
C3302 C3303 1.345 . S
C3302 H3310 0.930 . S
C3303 C3301 1.407 . S
C3303 C3302 1.345 . S
C3303 H3305 0.930 . S
H3304 C3297 0.930 . S
H3305 C3303 0.930 . S
H3306 C3294 0.930 . S
H3307 C3295 0.931 . S
H3308 C3301 0.930 . S
H3309 C3323 0.930 . S
H3310 C3302 0.930 . S
H3311 C3329 0.930 . S
H3312 C3320 0.930 . S
H3313 C3327 0.931 . S
H3314 C3291 0.929 . S
H3315 C3321 0.930 . S
H3316 C3354 0.930 . S
H3317 C3298 0.930 . S
H3318 C3353 0.929 . S
N3319 Tb3288 2.660 . S
N3319 C3320 1.305 . S
N3319 C3324 1.360 . S
C3320 H3312 0.930 . S
C3320 N3319 1.305 . S
C3320 C3323 1.407 . S
C3321 H3315 0.930 . S
C3321 C3322 1.410 . S
C3321 C3323 1.345 . S
C3322 C3321 1.410 . S
C3322 C3324 1.417 . S
C3322 C3354 1.432 . S
C3323 H3309 0.930 . S
C3323 C3320 1.407 . S
C3323 C3321 1.345 . S
C3324 N3319 1.360 . S
C3324 C3322 1.417 . S
C3324 C3328 1.432 . S
H3325 C3330 0.930 . S
N3326 Tb3288 2.600 . S
N3326 C3328 1.359 . S
N3326 C3329 1.327 . S
C3327 H3313 0.931 . S
C3327 C3329 1.392 . S
C3327 C3330 1.370 . S
C3328 C3324 1.432 . S
C3328 N3326 1.359 . S
C3328 C3331 1.414 . S
C3329 H3311 0.930 . S
C3329 N3326 1.327 . S
C3329 C3327 1.392 . S
C3330 H3325 0.930 . S
C3330 C3327 1.370 . S
C3330 C3331 1.385 . S
C3331 C3328 1.414 . S
C3331 C3330 1.385 . S
C3331 C3353 1.444 . S
O3332 Tb3288 2.546 . S
O3332 C3352 1.251 . S
O3333 Tb3288 2.610 . S
O3333 Tb3299 2.362 . S
O3333 C3344 1.283 . S
O3334 Tb3299 2.421 . S
O3334 C3351 1.262 . S
O3335 Tb3288 2.320 . S
O3335 C3351 1.260 . S
O3336 Tb3288 2.552 . S
O3336 C3344 1.243 . S
O3337 Tb3288 2.413 . S
O3337 C3352 1.256 . S
O3338 Tb3299 2.546 . S
O3338 C3363 1.251 . S
O3339 Tb3288 2.362 . S
O3339 Tb3299 2.610 . S
O3339 C3355 1.283 . S
O3340 Tb3288 2.421 . S
O3340 C3362 1.262 . S
O3341 Tb3299 2.320 . S
O3341 C3362 1.260 . S
O3342 Tb3299 2.552 . S
O3342 C3355 1.243 . S
O3343 Tb3299 2.413 . S
O3343 C3363 1.256 . S
C3344 O3333 1.283 . S
C3344 O3336 1.243 . S
C3345 C3347 1.382 . S
C3345 C3349 1.393 . S
C3345 C3352 1.500 . S
C3346 C3347 1.400 . S
C3346 C3348 1.384 . S
C3347 C3345 1.382 . S
C3347 C3346 1.400 . S
C3347 H3364 0.930 . S
C3348 C3346 1.384 . S
C3348 C3350 1.392 . S
C3348 H3365 0.931 . S
C3349 C3345 1.393 . S
C3349 C3350 1.401 . S
C3349 H3366 0.930 . S
C3350 C3348 1.392 . S
C3350 C3349 1.401 . S
C3350 H3367 0.930 . S
C3351 O3334 1.262 . S
C3351 O3335 1.260 . S
C3352 Tb3288 2.833 . S
C3352 O3332 1.251 . S
C3352 O3337 1.256 . S
C3352 C3345 1.500 . S
C3353 H3318 0.929 . S
C3353 C3331 1.444 . S
C3353 C3354 1.317 . S
C3354 H3316 0.930 . S
C3354 C3322 1.432 . S
C3354 C3353 1.317 . S
C3355 O3339 1.283 . S
C3355 O3342 1.243 . S
C3356 C3357 1.382 . S
C3356 C3360 1.393 . S
C3356 C3363 1.500 . S
C3357 C3356 1.382 . S
C3357 C3358 1.400 . S
C3357 H3368 0.930 . S
C3358 C3357 1.400 . S
C3358 C3359 1.384 . S
C3359 C3358 1.384 . S
C3359 C3361 1.392 . S
C3359 H3369 0.931 . S
C3360 C3356 1.393 . S
C3360 C3361 1.401 . S
C3360 H3370 0.930 . S
C3361 C3359 1.392 . S
C3361 C3360 1.401 . S
C3361 H3371 0.930 . S
C3362 O3340 1.262 . S
C3362 O3341 1.260 . S
C3363 Tb3299 2.833 . S
C3363 O3338 1.251 . S
C3363 O3343 1.256 . S
C3363 C3356 1.500 . S
H3364 C3347 0.930 . S
H3365 C3348 0.931 . S
H3366 C3349 0.930 . S
H3367 C3350 0.930 . S
H3368 C3357 0.930 . S
H3369 C3359 0.931 . S
H3370 C3360 0.930 . S
H3371 C3361 0.930 . S
Tb3372 N3403 2.660 . S
Tb3372 N3410 2.600 1_554 S
Tb3372 O3416 2.546 1_554 S
Tb3372 O3417 2.610 . S
Tb3372 O3419 2.320 . S
Tb3372 O3420 2.552 1_554 S
Tb3372 O3421 2.413 . S
Tb3372 O3423 2.362 . S
Tb3372 O3424 2.421 1_554 S
Tb3372 C3436 2.833 1_554 S
C3373 C3376 1.432 . S
C3373 C3377 1.414 . S
C3373 N3380 1.359 1_655 S
C3374 C3376 1.417 . S
C3374 C3378 1.432 . S
C3374 C3386 1.410 1_554 S
C3375 C3377 1.444 . S
C3375 C3378 1.317 . S
C3375 H3398 0.929 . S
C3376 C3373 1.432 . S
C3376 C3374 1.417 . S
C3376 N3384 1.343 1_655 S
C3377 C3373 1.414 . S
C3377 C3375 1.444 . S
C3377 C3382 1.385 . S
C3378 C3374 1.432 . S
C3378 C3375 1.317 . S
C3378 H3390 0.930 . S
C3379 C3381 1.392 . S
C3379 C3382 1.370 1_455 S
C3379 H3391 0.931 . S
N3380 C3373 1.359 1_455 S
N3380 C3381 1.327 . S
N3380 Tb3383 2.600 . S
C3381 C3379 1.392 . S
C3381 N3380 1.327 . S
C3381 H3388 0.930 . S
C3382 C3377 1.385 . S
C3382 C3379 1.370 1_655 S
C3382 H3401 0.930 . S
Tb3383 N3380 2.600 . S
Tb3383 N3384 2.682 . S
Tb3383 O3417 2.362 . S
Tb3383 O3418 2.421 . S
Tb3383 O3422 2.546 . S
Tb3383 O3423 2.610 . S
Tb3383 O3425 2.320 1_554 S
Tb3383 O3426 2.552 . S
Tb3383 O3427 2.413 1_455 S
Tb3383 C3447 2.833 1_455 S
N3384 C3376 1.343 1_455 S
N3384 Tb3383 2.682 . S
N3384 C3385 1.302 1_454 S
C3385 N3384 1.302 1_656 S
C3385 C3387 1.407 . S
C3385 H3392 0.930 1_655 S
C3386 C3374 1.410 1_556 S
C3386 C3387 1.345 . S
C3386 H3394 0.930 . S
C3387 C3385 1.407 . S
C3387 C3386 1.345 . S
C3387 H3389 0.930 . S
H3388 C3381 0.930 . S
H3389 C3387 0.930 . S
H3390 C3378 0.930 . S
H3391 C3379 0.931 . S
H3392 C3385 0.930 1_455 S
H3393 C3407 0.930 . S
H3394 C3386 0.930 . S
H3395 C3413 0.930 . S
H3396 C3404 0.930 . S
H3397 C3411 0.931 . S
H3398 C3375 0.929 . S
H3399 C3405 0.930 . S
H3400 C3438 0.928 1_554 S
H3401 C3382 0.930 . S
H3402 C3437 0.929 . S
N3403 Tb3372 2.660 . S
N3403 C3404 1.305 . S
N3403 C3408 1.360 . S
C3404 H3396 0.930 . S
C3404 N3403 1.305 . S
C3404 C3407 1.407 . S
C3405 H3399 0.930 . S
C3405 C3406 1.410 . S
C3405 C3407 1.345 . S
C3406 C3405 1.410 . S
C3406 C3408 1.417 . S
C3406 C3438 1.418 1_554 S
C3407 H3393 0.930 . S
C3407 C3404 1.407 . S
C3407 C3405 1.345 . S
C3408 N3403 1.360 . S
C3408 C3406 1.417 . S
C3408 C3412 1.432 1_554 S
H3409 C3414 0.930 . S
N3410 Tb3372 2.600 1_556 S
N3410 C3412 1.359 . S
N3410 C3413 1.327 . S
C3411 H3397 0.931 . S
C3411 C3413 1.392 . S
C3411 C3414 1.370 . S
C3412 C3408 1.432 1_556 S
C3412 N3410 1.359 . S
C3412 C3415 1.414 . S
C3413 H3395 0.930 . S
C3413 N3410 1.327 . S
C3413 C3411 1.392 . S
C3414 H3409 0.930 . S
C3414 C3411 1.370 . S
C3414 C3415 1.385 . S
C3415 C3412 1.414 . S
C3415 C3414 1.385 . S
C3415 C3437 1.444 . S
O3416 Tb3372 2.546 1_556 S
O3416 C3436 1.251 . S
O3417 Tb3372 2.610 . S
O3417 Tb3383 2.362 . S
O3417 C3428 1.283 . S
O3418 Tb3383 2.421 . S
O3418 C3435 1.262 . S
O3419 Tb3372 2.320 . S
O3419 C3435 1.260 . S
O3420 Tb3372 2.552 1_556 S
O3420 C3428 1.243 1_556 S
O3421 Tb3372 2.413 . S
O3421 C3436 1.256 1_554 S
O3422 Tb3383 2.546 . S
O3422 C3447 1.251 1_455 S
O3423 Tb3372 2.362 . S
O3423 Tb3383 2.610 . S
O3423 C3439 1.283 . S
O3424 Tb3372 2.421 1_556 S
O3424 C3446 1.262 . S
O3425 Tb3383 2.320 1_556 S
O3425 C3446 1.260 . S
O3426 Tb3383 2.552 . S
O3426 C3439 1.243 . S
O3427 Tb3383 2.413 1_655 S
O3427 C3447 1.256 . S
C3428 O3417 1.283 . S
C3428 O3420 1.243 1_554 S
C3429 C3431 1.386 . S
C3429 C3433 1.393 . S
C3429 C3436 1.500 . S
C3430 C3431 1.401 . S
C3430 C3432 1.384 . S
C3431 C3429 1.386 . S
C3431 C3430 1.401 . S
C3431 H3448 0.926 1_556 S
C3432 C3430 1.384 . S
C3432 C3434 1.392 . S
C3432 H3449 0.931 . S
C3433 C3429 1.393 . S
C3433 C3434 1.401 . S
C3433 H3450 0.930 . S
C3434 C3432 1.392 . S
C3434 C3433 1.401 . S
C3434 H3451 0.930 . S
C3435 O3418 1.262 . S
C3435 O3419 1.260 . S
C3436 Tb3372 2.833 1_556 S
C3436 O3416 1.251 . S
C3436 O3421 1.256 1_556 S
C3436 C3429 1.500 . S
C3437 H3402 0.929 . S
C3437 C3415 1.444 . S
C3437 C3438 1.334 . S
C3438 H3400 0.928 1_556 S
C3438 C3406 1.418 1_556 S
C3438 C3437 1.334 . S
C3439 O3423 1.283 . S
C3439 O3426 1.243 . S
C3440 C3441 1.382 . S
C3440 C3444 1.393 . S
C3440 C3447 1.500 . S
C3441 C3440 1.382 . S
C3441 C3442 1.400 . S
C3441 H3452 0.930 . S
C3442 C3441 1.400 . S
C3442 C3443 1.384 . S
C3443 C3442 1.384 . S
C3443 C3445 1.392 . S
C3443 H3453 0.931 . S
C3444 C3440 1.393 . S
C3444 C3445 1.401 . S
C3444 H3454 0.930 . S
C3445 C3443 1.392 . S
C3445 C3444 1.401 . S
C3445 H3455 0.930 . S
C3446 O3424 1.262 . S
C3446 O3425 1.260 . S
C3447 Tb3383 2.833 1_655 S
C3447 O3422 1.251 1_655 S
C3447 O3427 1.256 . S
C3447 C3440 1.500 . S
H3448 C3431 0.926 1_554 S
H3449 C3432 0.931 . S
H3450 C3433 0.930 . S
H3451 C3434 0.930 . S
H3452 C3441 0.930 . S
H3453 C3443 0.931 . S
H3454 C3444 0.930 . S
H3455 C3445 0.930 . S
C3456 C3457 1.369 . S
C3456 C3458 1.419 . S
C3456 H3460 0.930 . S
C3457 C3456 1.369 . S
C3457 C3466 1.429 1_554 S
C3458 C3456 1.419 . S
C3458 C3459 1.363 . S
C3458 H3461 0.929 . S
C3459 C3458 1.363 . S
C3459 C3465 1.428 1_554 S
H3460 C3456 0.930 . S
H3461 C3458 0.929 . S
S3462 N3463 1.613 . S
S3462 N3464 1.610 . S
N3463 S3462 1.613 . S
N3463 C3466 1.350 . S
N3464 S3462 1.610 . S
N3464 C3465 1.351 . S
C3465 C3459 1.428 1_556 S
C3465 N3464 1.351 . S
C3465 C3466 1.434 . S
C3466 C3457 1.429 1_556 S
C3466 N3463 1.350 . S
C3466 C3465 1.434 . S
C3467 C3468 1.369 . S
C3467 C3469 1.419 . S
C3467 H3471 0.930 . S
C3468 C3467 1.369 . S
C3468 C3477 1.429 . S
C3469 C3467 1.419 . S
C3469 C3470 1.363 . S
C3469 H3472 0.929 . S
C3470 C3469 1.363 . S
C3470 C3476 1.428 . S
H3471 C3467 0.930 . S
H3472 C3469 0.929 . S
S3473 N3474 1.613 . S
S3473 N3475 1.610 . S
N3474 S3473 1.613 . S
N3474 C3477 1.350 . S
N3475 S3473 1.610 . S
N3475 C3476 1.351 . S
C3476 C3470 1.428 . S
C3476 N3475 1.351 . S
C3476 C3477 1.434 . S
C3477 C3468 1.429 . S
C3477 N3474 1.350 . S
C3477 C3476 1.434 . S
C3478 C3479 1.369 . S
C3478 C3480 1.419 . S
C3478 H3482 0.930 . S
C3479 C3478 1.369 . S
C3479 C3488 1.429 . S
C3480 C3478 1.419 . S
C3480 C3481 1.363 . S
C3480 H3483 0.929 . S
C3481 C3480 1.363 . S
C3481 C3487 1.428 . S
H3482 C3478 0.930 . S
H3483 C3480 0.929 . S
S3484 N3485 1.613 . S
S3484 N3486 1.610 . S
N3485 S3484 1.613 . S
N3485 C3488 1.350 . S
N3486 S3484 1.610 . S
N3486 C3487 1.351 . S
C3487 C3481 1.428 . S
C3487 N3486 1.351 . S
C3487 C3488 1.434 . S
C3488 C3479 1.429 . S
C3488 N3485 1.350 . S
C3488 C3487 1.434 . S
C3489 C3490 1.369 . S
C3489 C3491 1.419 . S
C3489 H3493 0.930 . S
C3490 C3489 1.369 . S
C3490 C3499 1.429 . S
C3491 C3489 1.419 . S
C3491 C3492 1.363 . S
C3491 H3494 0.929 . S
C3492 C3491 1.363 . S
C3492 C3498 1.428 . S
H3493 C3489 0.930 . S
H3494 C3491 0.929 . S
S3495 N3496 1.613 . S
S3495 N3497 1.610 . S
N3496 S3495 1.613 . S
N3496 C3499 1.350 . S
N3497 S3495 1.610 . S
N3497 C3498 1.351 . S
C3498 C3492 1.428 . S
C3498 N3497 1.351 . S
C3498 C3499 1.434 . S
C3499 C3490 1.429 . S
C3499 N3496 1.350 . S
C3499 C3498 1.434 . S
C3500 C3501 1.369 . S
C3500 C3502 1.419 . S
C3500 H3504 0.930 . S
C3501 C3500 1.369 . S
C3501 C3510 1.429 . S
C3502 C3500 1.419 . S
C3502 C3503 1.363 . S
C3502 H3505 0.929 . S
C3503 C3502 1.363 . S
C3503 C3509 1.428 . S
H3504 C3500 0.930 . S
H3505 C3502 0.929 . S
S3506 N3507 1.613 . S
S3506 N3508 1.610 1_655 S
N3507 S3506 1.613 . S
N3507 C3510 1.350 1_655 S
N3508 S3506 1.610 1_455 S
N3508 C3509 1.351 . S
C3509 C3503 1.428 . S
C3509 N3508 1.351 . S
C3509 C3510 1.434 . S
C3510 C3501 1.429 . S
C3510 N3507 1.350 1_455 S
C3510 C3509 1.434 . S
C3511 C3512 1.369 . S
C3511 C3513 1.419 . S
C3511 H3515 0.930 . S
C3512 C3511 1.369 . S
C3512 C3521 1.429 . S
C3513 C3511 1.419 . S
C3513 C3514 1.363 . S
C3513 H3516 0.929 . S
C3514 C3513 1.363 . S
C3514 C3520 1.428 . S
H3515 C3511 0.930 . S
H3516 C3513 0.929 . S
S3517 N3518 1.613 . S
S3517 N3519 1.610 . S
N3518 S3517 1.613 . S
N3518 C3521 1.350 . S
N3519 S3517 1.610 . S
N3519 C3520 1.351 . S
C3520 C3514 1.428 . S
C3520 N3519 1.351 . S
C3520 C3521 1.434 . S
C3521 C3512 1.429 . S
C3521 N3518 1.350 . S
C3521 C3520 1.434 . S
C3522 C3523 1.369 . S
C3522 C3524 1.419 . S
C3522 H3526 0.930 . S
C3523 C3522 1.369 . S
C3523 C3532 1.429 . S
C3524 C3522 1.419 . S
C3524 C3525 1.363 . S
C3524 H3527 0.929 . S
C3525 C3524 1.363 . S
C3525 C3531 1.428 . S
H3526 C3522 0.930 . S
H3527 C3524 0.929 . S
S3528 N3529 1.613 . S
S3528 N3530 1.610 . S
N3529 S3528 1.613 . S
N3529 C3532 1.350 . S
N3530 S3528 1.610 . S
N3530 C3531 1.351 . S
C3531 C3525 1.428 . S
C3531 N3530 1.351 . S
C3531 C3532 1.434 . S
C3532 C3523 1.429 . S
C3532 N3529 1.350 . S
C3532 C3531 1.434 . S
C3533 C3534 1.369 . S
C3533 C3535 1.419 . S
C3533 H3537 0.930 . S
C3534 C3533 1.369 . S
C3534 C3543 1.429 . S
C3535 C3533 1.419 . S
C3535 C3536 1.363 . S
C3535 H3538 0.929 . S
C3536 C3535 1.363 . S
C3536 C3542 1.428 . S
H3537 C3533 0.930 . S
H3538 C3535 0.929 . S
S3539 N3540 1.613 . S
S3539 N3541 1.610 . S
N3540 S3539 1.613 . S
N3540 C3543 1.350 . S
N3541 S3539 1.610 . S
N3541 C3542 1.351 . S
C3542 C3536 1.428 . S
C3542 N3541 1.351 . S
C3542 C3543 1.434 . S
C3543 C3534 1.429 . S
C3543 N3540 1.350 . S
C3543 C3542 1.434 . S
C3544 C3545 1.369 . S
C3544 C3546 1.419 . S
C3544 H3548 0.930 . S
C3545 C3544 1.369 . S
C3545 C3554 1.429 . S
C3546 C3544 1.419 . S
C3546 C3547 1.363 . S
C3546 H3549 0.929 . S
C3547 C3546 1.363 . S
C3547 C3553 1.428 . S
H3548 C3544 0.930 . S
H3549 C3546 0.929 . S
S3550 N3551 1.613 . S
S3550 N3552 1.610 . S
N3551 S3550 1.613 . S
N3551 C3554 1.350 1_655 S
N3552 S3550 1.610 . S
N3552 C3553 1.351 1_655 S
C3553 C3547 1.428 . S
C3553 N3552 1.351 1_455 S
C3553 C3554 1.434 . S
C3554 C3545 1.429 . S
C3554 N3551 1.350 1_455 S
C3554 C3553 1.434 . S
C3555 C3556 1.369 . S
C3555 C3557 1.419 . S
C3555 H3559 0.930 . S
C3556 C3555 1.369 . S
C3556 C3565 1.429 . S
C3557 C3555 1.419 . S
C3557 C3558 1.363 . S
C3557 H3560 0.929 . S
C3558 C3557 1.363 . S
C3558 C3564 1.428 . S
H3559 C3555 0.930 . S
H3560 C3557 0.929 . S
S3561 N3562 1.613 . S
S3561 N3563 1.610 . S
N3562 S3561 1.613 . S
N3562 C3565 1.350 . S
N3563 S3561 1.610 . S
N3563 C3564 1.351 . S
C3564 C3558 1.428 . S
C3564 N3563 1.351 . S
C3564 C3565 1.434 . S
C3565 C3556 1.429 . S
C3565 N3562 1.350 . S
C3565 C3564 1.434 . S
C3566 C3567 1.369 . S
C3566 C3568 1.419 . S
C3566 H3570 0.930 1_545 S
C3567 C3566 1.369 . S
C3567 C3576 1.429 . S
C3568 C3566 1.419 . S
C3568 C3569 1.363 . S
C3568 H3571 0.929 1_545 S
C3569 C3568 1.363 . S
C3569 C3575 1.428 . S
H3570 C3566 0.930 1_565 S
H3571 C3568 0.929 1_565 S
S3572 N3573 1.613 . S
S3572 N3574 1.610 . S
N3573 S3572 1.613 . S
N3573 C3576 1.350 . S
N3574 S3572 1.610 . S
N3574 C3575 1.351 . S
C3575 C3569 1.428 . S
C3575 N3574 1.351 . S
C3575 C3576 1.434 . S
C3576 C3567 1.429 . S
C3576 N3573 1.350 . S
C3576 C3575 1.434 . S
C3577 C3578 1.369 . S
C3577 C3579 1.419 . S
C3577 H3581 0.930 . S
C3578 C3577 1.369 . S
C3578 C3587 1.429 . S
C3579 C3577 1.419 . S
C3579 C3580 1.363 . S
C3579 H3582 0.929 . S
C3580 C3579 1.363 . S
C3580 C3586 1.428 . S
H3581 C3577 0.930 . S
H3582 C3579 0.929 . S
S3583 N3584 1.613 . S
S3583 N3585 1.610 . S
N3584 S3583 1.613 . S
N3584 C3587 1.350 . S
N3585 S3583 1.610 . S
N3585 C3586 1.351 . S
C3586 C3580 1.428 . S
C3586 N3585 1.351 . S
C3586 C3587 1.434 . S
C3587 C3578 1.429 . S
C3587 N3584 1.350 . S
C3587 C3586 1.434 . S
C3588 C3589 1.369 . S
C3588 C3590 1.419 . S
C3588 H3592 0.930 . S
C3589 C3588 1.369 . S
C3589 C3598 1.429 . S
C3590 C3588 1.419 . S
C3590 C3591 1.363 . S
C3590 H3593 0.929 . S
C3591 C3590 1.363 . S
C3591 C3597 1.428 . S
H3592 C3588 0.930 . S
H3593 C3590 0.929 . S
S3594 N3595 1.606 1_655 S
S3594 N3596 1.589 1_655 S
N3595 S3594 1.606 1_455 S
N3595 C3598 1.350 . S
N3596 S3594 1.589 1_455 S
N3596 C3597 1.351 . S
C3597 C3591 1.428 . S
C3597 N3596 1.351 . S
C3597 C3598 1.434 . S
C3598 C3589 1.429 . S
C3598 N3595 1.350 . S
C3598 C3597 1.434 . S
C3599 C3600 1.369 . S
C3599 C3601 1.419 . S
C3599 H3603 0.930 . S
C3600 C3599 1.369 . S
C3600 C3609 1.429 . S
C3601 C3599 1.419 . S
C3601 C3602 1.363 . S
C3601 H3604 0.929 . S
C3602 C3601 1.363 . S
C3602 C3608 1.428 . S
H3603 C3599 0.930 . S
H3604 C3601 0.929 . S
S3605 N3606 1.613 . S
S3605 N3607 1.610 . S
N3606 S3605 1.613 . S
N3606 C3609 1.350 . S
N3607 S3605 1.610 . S
N3607 C3608 1.351 . S
C3608 C3602 1.428 . S
C3608 N3607 1.351 . S
C3608 C3609 1.434 . S
C3609 C3600 1.429 . S
C3609 N3606 1.350 . S
C3609 C3608 1.434 . S
C3610 C3611 1.369 . S
C3610 C3612 1.419 . S
C3610 H3614 0.930 . S
C3611 C3610 1.369 . S
C3611 C3620 1.429 . S
C3612 C3610 1.419 . S
C3612 C3613 1.363 . S
C3612 H3615 0.929 . S
C3613 C3612 1.363 . S
C3613 C3619 1.428 . S
H3614 C3610 0.930 . S
H3615 C3612 0.929 . S
S3616 N3617 1.613 1_565 S
S3616 N3618 1.610 1_565 S
N3617 S3616 1.613 1_545 S
N3617 C3620 1.350 . S
N3618 S3616 1.610 1_545 S
N3618 C3619 1.351 . S
C3619 C3613 1.428 . S
C3619 N3618 1.351 . S
C3619 C3620 1.434 . S
C3620 C3611 1.429 . S
C3620 N3617 1.350 . S
C3620 C3619 1.434 . S
C3621 C3622 1.369 . S
C3621 C3623 1.419 . S
C3621 H3625 0.930 . S
C3622 C3621 1.369 . S
C3622 C3631 1.429 . S
C3623 C3621 1.419 . S
C3623 C3624 1.363 . S
C3623 H3626 0.929 . S
C3624 C3623 1.363 . S
C3624 C3630 1.428 . S
H3625 C3621 0.930 . S
H3626 C3623 0.929 . S
S3627 N3628 1.613 . S
S3627 N3629 1.610 . S
N3628 S3627 1.613 . S
N3628 C3631 1.350 . S
N3629 S3627 1.610 . S
N3629 C3630 1.351 . S
C3630 C3624 1.428 . S
C3630 N3629 1.351 . S
C3630 C3631 1.434 . S
C3631 C3622 1.429 . S
C3631 N3628 1.350 . S
C3631 C3630 1.434 . S
C3632 C3633 1.369 1_565 S
C3632 C3634 1.419 . S
C3632 H3636 0.930 . S
C3633 C3632 1.369 1_545 S
C3633 C3642 1.429 . S
C3634 C3632 1.419 . S
C3634 C3635 1.363 1_565 S
C3634 H3637 0.929 . S
C3635 C3634 1.363 1_545 S
C3635 C3641 1.428 . S
H3636 C3632 0.930 . S
H3637 C3634 0.929 . S
S3638 N3639 1.613 . S
S3638 N3640 1.610 . S
N3639 S3638 1.613 . S
N3639 C3642 1.350 . S
N3640 S3638 1.610 . S
N3640 C3641 1.351 . S
C3641 C3635 1.428 . S
C3641 N3640 1.351 . S
C3641 C3642 1.434 . S
C3642 C3633 1.429 . S
C3642 N3639 1.350 . S
C3642 C3641 1.434 . S
C3643 C3644 1.369 . S
C3643 C3645 1.419 . S
C3643 H3647 0.930 . S
C3644 C3643 1.369 . S
C3644 C3653 1.429 1_556 S
C3645 C3643 1.419 . S
C3645 C3646 1.363 . S
C3645 H3648 0.929 . S
C3646 C3645 1.363 . S
C3646 C3652 1.428 1_556 S
H3647 C3643 0.930 . S
H3648 C3645 0.929 . S
S3649 N3650 1.613 . S
S3649 N3651 1.610 . S
N3650 S3649 1.613 . S
N3650 C3653 1.350 . S
N3651 S3649 1.610 . S
N3651 C3652 1.351 . S
C3652 C3646 1.428 1_554 S
C3652 N3651 1.351 . S
C3652 C3653 1.434 . S
C3653 C3644 1.429 1_554 S
C3653 N3650 1.350 . S
C3653 C3652 1.434 . S
C3654 C3655 1.369 . S
C3654 C3656 1.419 . S
C3654 H3658 0.930 . S
C3655 C3654 1.369 . S
C3655 C3664 1.429 . S
C3656 C3654 1.419 . S
C3656 C3657 1.363 . S
C3656 H3659 0.929 . S
C3657 C3656 1.363 . S
C3657 C3663 1.428 . S
H3658 C3654 0.930 . S
H3659 C3656 0.929 . S
S3660 N3661 1.613 . S
S3660 N3662 1.610 . S
N3661 S3660 1.613 . S
N3661 C3664 1.350 . S
N3662 S3660 1.610 . S
N3662 C3663 1.351 . S
C3663 C3657 1.428 . S
C3663 N3662 1.351 . S
C3663 C3664 1.434 . S
C3664 C3655 1.429 . S
C3664 N3661 1.350 . S
C3664 C3663 1.434 . S
C3665 C3666 1.369 . S
C3665 C3667 1.419 1_655 S
C3665 H3669 0.930 . S
C3666 C3665 1.369 . S
C3666 C3675 1.429 . S
C3667 C3665 1.419 1_455 S
C3667 C3668 1.363 . S
C3667 H3670 0.929 . S
C3668 C3667 1.363 . S
C3668 C3674 1.428 1_455 S
H3669 C3665 0.930 . S
H3670 C3667 0.929 . S
S3671 N3672 1.613 . S
S3671 N3673 1.610 . S
N3672 S3671 1.613 . S
N3672 C3675 1.350 . S
N3673 S3671 1.610 . S
N3673 C3674 1.351 . S
C3674 C3668 1.428 1_655 S
C3674 N3673 1.351 . S
C3674 C3675 1.434 . S
C3675 C3666 1.429 . S
C3675 N3672 1.350 . S
C3675 C3674 1.434 . S
C3676 C3677 1.369 . S
C3676 C3678 1.419 . S
C3676 H3680 0.930 . S
C3677 C3676 1.369 . S
C3677 C3686 1.429 . S
C3678 C3676 1.419 . S
C3678 C3679 1.363 . S
C3678 H3681 0.929 . S
C3679 C3678 1.363 . S
C3679 C3685 1.428 . S
H3680 C3676 0.930 . S
H3681 C3678 0.929 . S
S3682 N3683 1.613 . S
S3682 N3684 1.610 . S
N3683 S3682 1.613 . S
N3683 C3686 1.350 . S
N3684 S3682 1.610 . S
N3684 C3685 1.351 . S
C3685 C3679 1.428 . S
C3685 N3684 1.351 . S
C3685 C3686 1.434 . S
C3686 C3677 1.429 . S
C3686 N3683 1.350 . S
C3686 C3685 1.434 . S
C3687 C3688 1.369 . S
C3687 C3689 1.419 . S
C3687 H3691 0.930 . S
C3688 C3687 1.369 . S
C3688 C3697 1.429 . S
C3689 C3687 1.419 . S
C3689 C3690 1.363 . S
C3689 H3692 0.929 . S
C3690 C3689 1.363 . S
C3690 C3696 1.428 . S
H3691 C3687 0.930 . S
H3692 C3689 0.929 . S
S3693 N3694 1.613 . S
S3693 N3695 1.610 . S
N3694 S3693 1.613 . S
N3694 C3697 1.350 . S
N3695 S3693 1.610 . S
N3695 C3696 1.351 . S
C3696 C3690 1.428 . S
C3696 N3695 1.351 . S
C3696 C3697 1.434 . S
C3697 C3688 1.429 . S
C3697 N3694 1.350 . S
C3697 C3696 1.434 . S
C3698 C3699 1.369 . S
C3698 C3700 1.419 . S
C3698 H3702 0.930 . S
C3699 C3698 1.369 . S
C3699 C3708 1.429 . S
C3700 C3698 1.419 . S
C3700 C3701 1.363 . S
C3700 H3703 0.929 . S
C3701 C3700 1.363 . S
C3701 C3707 1.428 . S
H3702 C3698 0.930 . S
H3703 C3700 0.929 . S
S3704 N3705 1.613 . S
S3704 N3706 1.610 . S
N3705 S3704 1.613 . S
N3705 C3708 1.350 . S
N3706 S3704 1.610 . S
N3706 C3707 1.351 . S
C3707 C3701 1.428 . S
C3707 N3706 1.351 . S
C3707 C3708 1.434 . S
C3708 C3699 1.429 . S
C3708 N3705 1.350 . S
C3708 C3707 1.434 . S
C3709 C3710 1.369 . S
C3709 C3711 1.419 . S
C3709 H3713 0.930 . S
C3710 C3709 1.369 . S
C3710 C3719 1.429 . S
C3711 C3709 1.419 . S
C3711 C3712 1.363 . S
C3711 H3714 0.929 . S
C3712 C3711 1.363 . S
C3712 C3718 1.428 . S
H3713 C3709 0.930 . S
H3714 C3711 0.929 . S
S3715 N3716 1.613 . S
S3715 N3717 1.610 . S
N3716 S3715 1.613 . S
N3716 C3719 1.350 . S
N3717 S3715 1.610 . S
N3717 C3718 1.351 . S
C3718 C3712 1.428 . S
C3718 N3717 1.351 . S
C3718 C3719 1.434 . S
C3719 C3710 1.429 . S
C3719 N3716 1.350 . S
C3719 C3718 1.434 . S
C3720 C3721 1.369 . S
C3720 C3722 1.419 . S
C3720 H3724 0.914 1_554 S
C3721 C3720 1.369 . S
C3721 C3730 1.429 . S
C3722 C3720 1.419 . S
C3722 C3723 1.363 . S
C3722 H3725 0.929 1_554 S
C3723 C3722 1.363 . S
C3723 C3729 1.428 . S
H3724 C3720 0.914 1_556 S
H3725 C3722 0.929 1_556 S
S3726 N3727 1.613 . S
S3726 N3728 1.610 . S
N3727 S3726 1.613 . S
N3727 C3730 1.350 . S
N3728 S3726 1.610 . S
N3728 C3729 1.351 . S
C3729 C3723 1.428 . S
C3729 N3728 1.351 . S
C3729 C3730 1.434 . S
C3730 C3721 1.429 . S
C3730 N3727 1.350 . S
C3730 C3729 1.434 . S
C3731 C3732 1.369 . S
C3731 C3733 1.419 . S
C3731 H3735 0.930 . S
C3732 C3731 1.369 . S
C3732 C3741 1.429 . S
C3733 C3731 1.419 . S
C3733 C3734 1.363 . S
C3733 H3736 0.929 . S
C3734 C3733 1.363 . S
C3734 C3740 1.428 . S
H3735 C3731 0.930 . S
H3736 C3733 0.929 . S
S3737 N3738 1.613 . S
S3737 N3739 1.610 . S
N3738 S3737 1.613 . S
N3738 C3741 1.350 . S
N3739 S3737 1.610 . S
N3739 C3740 1.351 . S
C3740 C3734 1.428 . S
C3740 N3739 1.351 . S
C3740 C3741 1.434 . S
C3741 C3732 1.429 . S
C3741 N3738 1.350 . S
C3741 C3740 1.434 . S
C3742 C3743 1.369 . S
C3742 C3744 1.419 . S
C3742 H3746 0.930 . S
C3743 C3742 1.369 . S
C3743 C3752 1.429 . S
C3744 C3742 1.419 . S
C3744 C3745 1.363 . S
C3744 H3747 0.929 . S
C3745 C3744 1.363 . S
C3745 C3751 1.428 . S
H3746 C3742 0.930 . S
H3747 C3744 0.929 . S
S3748 N3749 1.613 . S
S3748 N3750 1.610 . S
N3749 S3748 1.613 . S
N3749 C3752 1.350 . S
N3750 S3748 1.610 . S
N3750 C3751 1.351 . S
C3751 C3745 1.428 . S
C3751 N3750 1.351 . S
C3751 C3752 1.434 . S
C3752 C3743 1.429 . S
C3752 N3749 1.350 . S
C3752 C3751 1.434 . S
C3753 C3754 1.369 . S
C3753 C3755 1.419 . S
C3753 H3757 0.930 . S
C3754 C3753 1.369 . S
C3754 C3763 1.429 . S
C3755 C3753 1.419 . S
C3755 C3756 1.363 . S
C3755 H3758 0.929 . S
C3756 C3755 1.363 . S
C3756 C3762 1.428 . S
H3757 C3753 0.930 . S
H3758 C3755 0.929 . S
S3759 N3760 1.613 . S
S3759 N3761 1.610 . S
N3760 S3759 1.613 . S
N3760 C3763 1.350 . S
N3761 S3759 1.610 . S
N3761 C3762 1.351 . S
C3762 C3756 1.428 . S
C3762 N3761 1.351 . S
C3762 C3763 1.434 . S
C3763 C3754 1.429 . S
C3763 N3760 1.350 . S
C3763 C3762 1.434 . S
C3764 C3765 1.369 . S
C3764 C3766 1.419 . S
C3764 H3768 0.930 . S
C3765 C3764 1.369 . S
C3765 C3774 1.429 . S
C3766 C3764 1.419 . S
C3766 C3767 1.363 . S
C3766 H3769 0.929 . S
C3767 C3766 1.363 . S
C3767 C3773 1.428 . S
H3768 C3764 0.930 . S
H3769 C3766 0.929 . S
S3770 N3771 1.613 . S
S3770 N3772 1.610 . S
N3771 S3770 1.613 . S
N3771 C3774 1.350 . S
N3772 S3770 1.610 . S
N3772 C3773 1.351 . S
C3773 C3767 1.428 . S
C3773 N3772 1.351 . S
C3773 C3774 1.434 . S
C3774 C3765 1.429 . S
C3774 N3771 1.350 . S
C3774 C3773 1.434 . S
C3775 C3776 1.369 . S
C3775 C3777 1.419 . S
C3775 H3779 0.930 . S
C3776 C3775 1.369 . S
C3776 C3785 1.429 . S
C3777 C3775 1.419 . S
C3777 C3778 1.363 . S
C3777 H3780 0.929 . S
C3778 C3777 1.363 . S
C3778 C3784 1.428 . S
H3779 C3775 0.930 . S
H3780 C3777 0.929 . S
S3781 N3782 1.613 . S
S3781 N3783 1.610 . S
N3782 S3781 1.613 . S
N3782 C3785 1.350 . S
N3783 S3781 1.610 . S
N3783 C3784 1.351 . S
C3784 C3778 1.428 . S
C3784 N3783 1.351 . S
C3784 C3785 1.434 . S
C3785 C3776 1.429 . S
C3785 N3782 1.350 . S
C3785 C3784 1.434 . S
C3786 C3787 1.369 . S
C3786 C3788 1.419 . S
C3786 H3790 0.930 . S
C3787 C3786 1.369 . S
C3787 C3796 1.429 . S
C3788 C3786 1.419 . S
C3788 C3789 1.363 . S
C3788 H3791 0.971 . S
C3789 C3788 1.363 . S
C3789 C3795 1.428 . S
H3790 C3786 0.930 . S
H3791 C3788 0.971 . S
S3792 N3793 1.613 . S
S3792 N3794 1.610 . S
N3793 S3792 1.613 . S
N3793 C3796 1.350 1_554 S
N3794 S3792 1.610 . S
N3794 C3795 1.351 1_554 S
C3795 C3789 1.428 . S
C3795 N3794 1.351 1_556 S
C3795 C3796 1.434 . S
C3796 C3787 1.429 . S
C3796 N3793 1.350 1_556 S
C3796 C3795 1.434 . S
C3797 C3798 1.369 . S
C3797 C3799 1.419 . S
C3797 H3801 0.930 . S
C3798 C3797 1.369 . S
C3798 C3807 1.429 . S
C3799 C3797 1.419 . S
C3799 C3800 1.363 . S
C3799 H3802 0.929 . S
C3800 C3799 1.363 . S
C3800 C3806 1.428 . S
H3801 C3797 0.930 . S
H3802 C3799 0.929 . S
S3803 N3804 1.613 . S
S3803 N3805 1.610 . S
N3804 S3803 1.613 . S
N3804 C3807 1.350 . S
N3805 S3803 1.610 . S
N3805 C3806 1.351 . S
C3806 C3800 1.428 . S
C3806 N3805 1.351 . S
C3806 C3807 1.434 . S
C3807 C3798 1.429 . S
C3807 N3804 1.350 . S
C3807 C3806 1.434 . S
C3808 C3809 1.369 . S
C3808 C3810 1.419 . S
C3808 H3812 0.930 . S
C3809 C3808 1.369 . S
C3809 C3818 1.429 1_545 S
C3810 C3808 1.419 . S
C3810 C3811 1.363 . S
C3810 H3813 0.929 . S
C3811 C3810 1.363 . S
C3811 C3817 1.428 1_545 S
H3812 C3808 0.930 . S
H3813 C3810 0.929 . S
S3814 N3815 1.613 . S
S3814 N3816 1.610 . S
N3815 S3814 1.613 . S
N3815 C3818 1.350 . S
N3816 S3814 1.610 . S
N3816 C3817 1.351 . S
C3817 C3811 1.428 1_565 S
C3817 N3816 1.351 . S
C3817 C3818 1.434 . S
C3818 C3809 1.429 1_565 S
C3818 N3815 1.350 . S
C3818 C3817 1.434 . S
C3819 C3820 1.369 . S
C3819 C3821 1.419 . S
C3819 H3823 0.930 . S
C3820 C3819 1.369 . S
C3820 C3829 1.429 . S
C3821 C3819 1.419 . S
C3821 C3822 1.363 . S
C3821 H3824 0.929 . S
C3822 C3821 1.363 . S
C3822 C3828 1.428 . S
H3823 C3819 0.930 . S
H3824 C3821 0.929 . S
S3825 N3826 1.613 . S
S3825 N3827 1.610 . S
N3826 S3825 1.613 . S
N3826 C3829 1.350 . S
N3827 S3825 1.610 . S
N3827 C3828 1.351 . S
C3828 C3822 1.428 . S
C3828 N3827 1.351 . S
C3828 C3829 1.434 . S
C3829 C3820 1.429 . S
C3829 N3826 1.350 . S
C3829 C3828 1.434 . S
C3830 C3831 1.369 . S
C3830 C3832 1.419 . S
C3830 H3834 0.930 . S
C3831 C3830 1.369 . S
C3831 C3840 1.429 . S
C3832 C3830 1.419 . S
C3832 C3833 1.363 . S
C3832 H3835 0.929 . S
C3833 C3832 1.363 . S
C3833 C3839 1.428 . S
H3834 C3830 0.930 . S
H3835 C3832 0.929 . S
S3836 N3837 1.613 . S
S3836 N3838 1.610 . S
N3837 S3836 1.613 . S
N3837 C3840 1.350 . S
N3838 S3836 1.610 . S
N3838 C3839 1.351 . S
C3839 C3833 1.428 . S
C3839 N3838 1.351 . S
C3839 C3840 1.434 . S
C3840 C3831 1.429 . S
C3840 N3837 1.350 . S
C3840 C3839 1.434 . S
C3841 C3842 1.369 . S
C3841 C3843 1.419 . S
C3841 H3845 0.930 . S
C3842 C3841 1.369 . S
C3842 C3851 1.429 . S
C3843 C3841 1.419 . S
C3843 C3844 1.363 . S
C3843 H3846 0.929 . S
C3844 C3843 1.363 . S
C3844 C3850 1.428 . S
H3845 C3841 0.930 . S
H3846 C3843 0.929 . S
S3847 N3848 1.613 . S
S3847 N3849 1.610 . S
N3848 S3847 1.613 . S
N3848 C3851 1.350 . S
N3849 S3847 1.610 . S
N3849 C3850 1.351 . S
C3850 C3844 1.428 . S
C3850 N3849 1.351 . S
C3850 C3851 1.434 . S
C3851 C3842 1.429 . S
C3851 N3848 1.350 . S
C3851 C3850 1.434 . S
C3852 C3853 1.369 1_545 S
C3852 C3854 1.419 . S
C3852 H3856 0.930 . S
C3853 C3852 1.369 1_565 S
C3853 C3862 1.429 . S
C3854 C3852 1.419 . S
C3854 C3855 1.363 . S
C3854 H3857 0.929 . S
C3855 C3854 1.363 . S
C3855 C3861 1.428 1_545 S
H3856 C3852 0.930 . S
H3857 C3854 0.929 . S
S3858 N3859 1.613 . S
S3858 N3860 1.610 . S
N3859 S3858 1.613 . S
N3859 C3862 1.350 . S
N3860 S3858 1.610 . S
N3860 C3861 1.351 . S
C3861 C3855 1.428 1_565 S
C3861 N3860 1.351 . S
C3861 C3862 1.434 . S
C3862 C3853 1.429 . S
C3862 N3859 1.350 . S
C3862 C3861 1.434 . S
C3863 C3864 1.369 . S
C3863 C3865 1.419 . S
C3863 H3867 0.930 . S
C3864 C3863 1.369 . S
C3864 C3873 1.429 . S
C3865 C3863 1.419 . S
C3865 C3866 1.363 . S
C3865 H3868 0.929 . S
C3866 C3865 1.363 . S
C3866 C3872 1.428 . S
H3867 C3863 0.930 . S
H3868 C3865 0.929 . S
S3869 N3870 1.613 . S
S3869 N3871 1.610 . S
N3870 S3869 1.613 . S
N3870 C3873 1.350 . S
N3871 S3869 1.610 . S
N3871 C3872 1.351 . S
C3872 C3866 1.428 . S
C3872 N3871 1.351 . S
C3872 C3873 1.434 . S
C3873 C3864 1.429 . S
C3873 N3870 1.350 . S
C3873 C3872 1.434 . S
C3874 C3875 1.369 1_565 S
C3874 C3876 1.419 . S
C3874 H3878 0.930 . S
C3875 C3874 1.369 1_545 S
C3875 C3884 1.429 . S
C3876 C3874 1.419 . S
C3876 C3877 1.363 1_565 S
C3876 H3879 0.929 . S
C3877 C3876 1.363 1_545 S
C3877 C3883 1.428 . S
H3878 C3874 0.930 . S
H3879 C3876 0.929 . S
S3880 N3881 1.613 . S
S3880 N3882 1.610 . S
N3881 S3880 1.613 . S
N3881 C3884 1.350 . S
N3882 S3880 1.610 . S
N3882 C3883 1.351 . S
C3883 C3877 1.428 . S
C3883 N3882 1.351 . S
C3883 C3884 1.434 . S
C3884 C3875 1.429 . S
C3884 N3881 1.350 . S
C3884 C3883 1.434 . S
C3885 C3886 1.369 . S
C3885 C3887 1.419 . S
C3885 H3889 0.930 . S
C3886 C3885 1.369 . S
C3886 C3895 1.429 . S
C3887 C3885 1.419 . S
C3887 C3888 1.363 . S
C3887 H3890 0.929 . S
C3888 C3887 1.363 . S
C3888 C3894 1.428 . S
H3889 C3885 0.930 . S
H3890 C3887 0.929 . S
S3891 N3892 1.613 . S
S3891 N3893 1.610 . S
N3892 S3891 1.613 . S
N3892 C3895 1.350 . S
N3893 S3891 1.610 . S
N3893 C3894 1.351 . S
C3894 C3888 1.428 . S
C3894 N3893 1.351 . S
C3894 C3895 1.434 . S
C3895 C3886 1.429 . S
C3895 N3892 1.350 . S
C3895 C3894 1.434 . S
C3896 C3897 1.369 1_556 S
C3896 C3898 1.419 . S
C3896 H3900 0.930 . S
C3897 C3896 1.369 1_554 S
C3897 C3906 1.429 . S
C3898 C3896 1.419 . S
C3898 C3899 1.363 1_556 S
C3898 H3901 0.929 . S
C3899 C3898 1.363 1_554 S
C3899 C3905 1.428 . S
H3900 C3896 0.930 . S
H3901 C3898 0.929 . S
S3902 N3903 1.613 . S
S3902 N3904 1.610 . S
N3903 S3902 1.613 . S
N3903 C3906 1.350 . S
N3904 S3902 1.610 . S
N3904 C3905 1.351 . S
C3905 C3899 1.428 . S
C3905 N3904 1.351 . S
C3905 C3906 1.434 . S
C3906 C3897 1.429 . S
C3906 N3903 1.350 . S
C3906 C3905 1.434 . S
C3907 C3908 1.369 . S
C3907 C3909 1.419 . S
C3907 H3911 0.930 . S
C3908 C3907 1.369 . S
C3908 C3917 1.429 . S
C3909 C3907 1.419 . S
C3909 C3910 1.363 . S
C3909 H3912 0.929 . S
C3910 C3909 1.363 . S
C3910 C3916 1.428 . S
H3911 C3907 0.930 . S
H3912 C3909 0.929 . S
S3913 N3914 1.613 . S
S3913 N3915 1.610 . S
N3914 S3913 1.613 . S
N3914 C3917 1.350 . S
N3915 S3913 1.610 . S
N3915 C3916 1.351 . S
C3916 C3910 1.428 . S
C3916 N3915 1.351 . S
C3916 C3917 1.434 . S
C3917 C3908 1.429 . S
C3917 N3914 1.350 . S
C3917 C3916 1.434 . S
C3918 C3919 1.369 . S
C3918 C3920 1.419 . S
C3918 H3922 0.930 . S
C3919 C3918 1.369 . S
C3919 C3928 1.429 . S
C3920 C3918 1.419 . S
C3920 C3921 1.363 . S
C3920 H3923 0.929 . S
C3921 C3920 1.363 . S
C3921 C3927 1.428 . S
H3922 C3918 0.930 . S
H3923 C3920 0.929 . S
S3924 N3925 1.613 . S
S3924 N3926 1.610 . S
N3925 S3924 1.613 . S
N3925 C3928 1.350 . S
N3926 S3924 1.610 . S
N3926 C3927 1.351 . S
C3927 C3921 1.428 . S
C3927 N3926 1.351 . S
C3927 C3928 1.434 . S
C3928 C3919 1.429 . S
C3928 N3925 1.350 . S
C3928 C3927 1.434 . S
C3929 C3930 1.369 . S
C3929 C3931 1.419 . S
C3929 H3933 0.930 . S
C3930 C3929 1.369 . S
C3930 C3939 1.429 . S
C3931 C3929 1.419 . S
C3931 C3932 1.363 . S
C3931 H3934 0.929 . S
C3932 C3931 1.363 . S
C3932 C3938 1.428 . S
H3933 C3929 0.930 . S
H3934 C3931 0.929 . S
S3935 N3936 1.613 . S
S3935 N3937 1.610 . S
N3936 S3935 1.613 . S
N3936 C3939 1.350 . S
N3937 S3935 1.610 . S
N3937 C3938 1.351 . S
C3938 C3932 1.428 . S
C3938 N3937 1.351 . S
C3938 C3939 1.434 . S
C3939 C3930 1.429 . S
C3939 N3936 1.350 . S
C3939 C3938 1.434 . S
C3940 C3941 1.369 . S
C3940 C3942 1.419 . S
C3940 H3944 0.930 . S
C3941 C3940 1.369 . S
C3941 C3950 1.429 . S
C3942 C3940 1.419 . S
C3942 C3943 1.363 . S
C3942 H3945 0.929 . S
C3943 C3942 1.363 . S
C3943 C3949 1.428 . S
H3944 C3940 0.930 . S
H3945 C3942 0.929 . S
S3946 N3947 1.613 1_545 S
S3946 N3948 1.610 1_545 S
N3947 S3946 1.613 1_565 S
N3947 C3950 1.350 . S
N3948 S3946 1.610 1_565 S
N3948 C3949 1.351 . S
C3949 C3943 1.428 . S
C3949 N3948 1.351 . S
C3949 C3950 1.434 . S
C3950 C3941 1.429 . S
C3950 N3947 1.350 . S
C3950 C3949 1.434 . S
C3951 C3952 1.369 . S
C3951 C3953 1.419 . S
C3951 H3955 0.930 . S
C3952 C3951 1.369 . S
C3952 C3961 1.429 . S
C3953 C3951 1.419 . S
C3953 C3954 1.363 . S
C3953 H3956 0.929 . S
C3954 C3953 1.363 . S
C3954 C3960 1.428 . S
H3955 C3951 0.930 . S
H3956 C3953 0.929 . S
S3957 N3958 1.613 1_545 S
S3957 N3959 1.610 . S
N3958 S3957 1.613 1_565 S
N3958 C3961 1.350 . S
N3959 S3957 1.610 . S
N3959 C3960 1.351 1_545 S
C3960 C3954 1.428 . S
C3960 N3959 1.351 1_565 S
C3960 C3961 1.434 . S
C3961 C3952 1.429 . S
C3961 N3958 1.350 . S
C3961 C3960 1.434 . S
C3962 C3963 1.369 . S
C3962 C3964 1.419 . S
C3962 H3966 0.930 . S
C3963 C3962 1.369 . S
C3963 C3972 1.429 . S
C3964 C3962 1.419 . S
C3964 C3965 1.363 . S
C3964 H3967 0.929 . S
C3965 C3964 1.363 . S
C3965 C3971 1.428 . S
H3966 C3962 0.930 . S
H3967 C3964 0.929 . S
S3968 N3969 1.613 . S
S3968 N3970 1.610 . S
N3969 S3968 1.613 . S
N3969 C3972 1.350 . S
N3970 S3968 1.610 . S
N3970 C3971 1.351 . S
C3971 C3965 1.428 . S
C3971 N3970 1.351 . S
C3971 C3972 1.434 . S
C3972 C3963 1.429 . S
C3972 N3969 1.350 . S
C3972 C3971 1.434 . S
C3973 C3974 1.369 . S
C3973 C3975 1.419 . S
C3973 H3977 0.930 . S
C3974 C3973 1.369 . S
C3974 C3983 1.429 . S
C3975 C3973 1.419 . S
C3975 C3976 1.363 . S
C3975 H3978 0.929 . S
C3976 C3975 1.363 . S
C3976 C3982 1.428 . S
H3977 C3973 0.930 . S
H3978 C3975 0.929 . S
S3979 N3980 1.613 . S
S3979 N3981 1.610 . S
N3980 S3979 1.613 . S
N3980 C3983 1.350 . S
N3981 S3979 1.610 . S
N3981 C3982 1.351 . S
C3982 C3976 1.428 . S
C3982 N3981 1.351 . S
C3982 C3983 1.434 . S
C3983 C3974 1.429 . S
C3983 N3980 1.350 . S
C3983 C3982 1.434 . S
C3984 C3985 1.369 . S
C3984 C3986 1.419 . S
C3984 H3988 0.930 . S
C3985 C3984 1.369 . S
C3985 C3994 1.429 . S
C3986 C3984 1.419 . S
C3986 C3987 1.363 . S
C3986 H3989 0.929 . S
C3987 C3986 1.363 . S
C3987 C3993 1.428 . S
H3988 C3984 0.930 . S
H3989 C3986 0.929 . S
S3990 N3991 1.613 . S
S3990 N3992 1.610 . S
N3991 S3990 1.613 . S
N3991 C3994 1.350 . S
N3992 S3990 1.610 . S
N3992 C3993 1.351 . S
C3993 C3987 1.428 . S
C3993 N3992 1.351 . S
C3993 C3994 1.434 . S
C3994 C3985 1.429 . S
C3994 N3991 1.350 . S
C3994 C3993 1.434 . S
C3995 C3996 1.369 . S
C3995 C3997 1.419 . S
C3995 H3999 0.930 . S
C3996 C3995 1.369 . S
C3996 C4005 1.429 . S
C3997 C3995 1.419 . S
C3997 C3998 1.363 . S
C3997 H4000 0.929 . S
C3998 C3997 1.363 . S
C3998 C4004 1.428 . S
H3999 C3995 0.930 . S
H4000 C3997 0.929 . S
S4001 N4002 1.613 . S
S4001 N4003 1.610 . S
N4002 S4001 1.613 . S
N4002 C4005 1.350 . S
N4003 S4001 1.610 . S
N4003 C4004 1.351 . S
C4004 C3998 1.428 . S
C4004 N4003 1.351 . S
C4004 C4005 1.434 . S
C4005 C3996 1.429 . S
C4005 N4002 1.350 . S
C4005 C4004 1.434 . S
C4006 C4007 1.383 . S
C4006 C4008 1.414 1_554 S
C4006 H4010 0.920 1_554 S
C4007 C4006 1.383 . S
C4007 C4016 1.429 . S
C4008 C4006 1.414 1_556 S
C4008 C4009 1.363 1_556 S
C4008 H4011 0.929 . S
C4009 C4008 1.363 1_554 S
C4009 C4015 1.428 . S
H4010 C4006 0.920 1_556 S
H4011 C4008 0.929 . S
S4012 N4013 1.613 . S
S4012 N4014 1.610 . S
N4013 S4012 1.613 . S
N4013 C4016 1.350 . S
N4014 S4012 1.610 . S
N4014 C4015 1.351 . S
C4015 C4009 1.428 . S
C4015 N4014 1.351 . S
C4015 C4016 1.434 . S
C4016 C4007 1.429 . S
C4016 N4013 1.350 . S
C4016 C4015 1.434 . S
C4017 C4018 1.369 . S
C4017 C4019 1.419 . S
C4017 H4021 0.930 . S
C4018 C4017 1.369 . S
C4018 C4027 1.429 . S
C4019 C4017 1.419 . S
C4019 C4020 1.363 . S
C4019 H4022 0.929 . S
C4020 C4019 1.363 . S
C4020 C4026 1.428 . S
H4021 C4017 0.930 . S
H4022 C4019 0.929 . S
S4023 N4024 1.613 1_655 S
S4023 N4025 1.610 . S
N4024 S4023 1.613 1_455 S
N4024 C4027 1.350 1_455 S
N4025 S4023 1.610 . S
N4025 C4026 1.351 . S
C4026 C4020 1.428 . S
C4026 N4025 1.351 . S
C4026 C4027 1.434 . S
C4027 C4018 1.429 . S
C4027 N4024 1.350 1_655 S
C4027 C4026 1.434 . S
C4028 C4029 1.369 . S
C4028 C4030 1.419 . S
C4028 H4032 0.930 . S
C4029 C4028 1.369 . S
C4029 C4038 1.429 . S
C4030 C4028 1.419 . S
C4030 C4031 1.363 . S
C4030 H4033 0.929 . S
C4031 C4030 1.363 . S
C4031 C4037 1.428 . S
H4032 C4028 0.930 . S
H4033 C4030 0.929 . S
S4034 N4035 1.613 . S
S4034 N4036 1.610 . S
N4035 S4034 1.613 . S
N4035 C4038 1.350 . S
N4036 S4034 1.610 . S
N4036 C4037 1.351 . S
C4037 C4031 1.428 . S
C4037 N4036 1.351 . S
C4037 C4038 1.434 . S
C4038 C4029 1.429 . S
C4038 N4035 1.350 . S
C4038 C4037 1.434 . S
C4039 C4040 1.369 1_655 S
C4039 C4041 1.419 . S
C4039 H4043 0.930 . S
C4040 C4039 1.369 1_455 S
C4040 C4049 1.429 . S
C4041 C4039 1.419 . S
C4041 C4042 1.363 . S
C4041 H4044 0.929 . S
C4042 C4041 1.363 . S
C4042 C4048 1.428 . S
H4043 C4039 0.930 . S
H4044 C4041 0.929 . S
S4045 N4046 1.613 . S
S4045 N4047 1.610 1_455 S
N4046 S4045 1.613 . S
N4046 C4049 1.350 . S
N4047 S4045 1.610 1_655 S
N4047 C4048 1.351 . S
C4048 C4042 1.428 . S
C4048 N4047 1.351 . S
C4048 C4049 1.434 1_655 S
C4049 C4040 1.429 . S
C4049 N4046 1.350 . S
C4049 C4048 1.434 1_455 S
C4050 C4051 1.369 . S
C4050 C4052 1.419 1_655 S
C4050 H4054 0.930 . S
C4051 C4050 1.369 . S
C4051 C4060 1.429 1_655 S
C4052 C4050 1.419 1_455 S
C4052 C4053 1.363 . S
C4052 H4055 0.929 . S
C4053 C4052 1.363 . S
C4053 C4059 1.428 . S
H4054 C4050 0.930 . S
H4055 C4052 0.929 . S
S4056 N4057 1.613 . S
S4056 N4058 1.610 . S
N4057 S4056 1.613 . S
N4057 C4060 1.350 . S
N4058 S4056 1.610 . S
N4058 C4059 1.351 . S
C4059 C4053 1.428 . S
C4059 N4058 1.351 . S
C4059 C4060 1.434 . S
C4060 C4051 1.429 1_455 S
C4060 N4057 1.350 . S
C4060 C4059 1.434 . S
C4061 C4062 1.369 . S
C4061 C4063 1.419 . S
C4061 H4065 0.930 . S
C4062 C4061 1.369 . S
C4062 C4071 1.429 . S
C4063 C4061 1.419 . S
C4063 C4064 1.363 . S
C4063 H4066 0.929 . S
C4064 C4063 1.363 . S
C4064 C4070 1.428 . S
H4065 C4061 0.930 . S
H4066 C4063 0.929 . S
S4067 N4068 1.613 . S
S4067 N4069 1.610 . S
N4068 S4067 1.613 . S
N4068 C4071 1.350 . S
N4069 S4067 1.610 . S
N4069 C4070 1.351 . S
C4070 C4064 1.428 . S
C4070 N4069 1.351 . S
C4070 C4071 1.434 . S
C4071 C4062 1.429 . S
C4071 N4068 1.350 . S
C4071 C4070 1.434 . S
C4072 C4073 1.369 . S
C4072 C4074 1.419 . S
C4072 H4076 0.930 . S
C4073 C4072 1.369 . S
C4073 C4082 1.429 . S
C4074 C4072 1.419 . S
C4074 C4075 1.363 . S
C4074 H4077 0.929 . S
C4075 C4074 1.363 . S
C4075 C4081 1.428 . S
H4076 C4072 0.930 . S
H4077 C4074 0.929 . S
S4078 N4079 1.613 . S
S4078 N4080 1.610 . S
N4079 S4078 1.613 . S
N4079 C4082 1.350 . S
N4080 S4078 1.610 . S
N4080 C4081 1.351 . S
C4081 C4075 1.428 . S
C4081 N4080 1.351 . S
C4081 C4082 1.434 . S
C4082 C4073 1.429 . S
C4082 N4079 1.350 . S
C4082 C4081 1.434 . S
C4083 C4084 1.369 . S
C4083 C4085 1.419 . S
C4083 H4087 0.930 . S
C4084 C4083 1.369 . S
C4084 C4093 1.429 . S
C4085 C4083 1.419 . S
C4085 C4086 1.363 . S
C4085 H4088 0.929 . S
C4086 C4085 1.363 . S
C4086 C4092 1.428 . S
H4087 C4083 0.930 . S
H4088 C4085 0.929 . S
S4089 N4090 1.613 . S
S4089 N4091 1.610 . S
N4090 S4089 1.613 . S
N4090 C4093 1.350 . S
N4091 S4089 1.610 . S
N4091 C4092 1.351 . S
C4092 C4086 1.428 . S
C4092 N4091 1.351 . S
C4092 C4093 1.434 . S
C4093 C4084 1.429 . S
C4093 N4090 1.350 . S
C4093 C4092 1.434 . S
C4094 C4095 1.369 . S
C4094 C4096 1.419 . S
C4094 H4098 0.930 . S
C4095 C4094 1.369 . S
C4095 C4104 1.429 . S
C4096 C4094 1.419 . S
C4096 C4097 1.363 . S
C4096 H4099 0.929 . S
C4097 C4096 1.363 . S
C4097 C4103 1.428 . S
H4098 C4094 0.930 . S
H4099 C4096 0.929 . S
S4100 N4101 1.613 . S
S4100 N4102 1.610 . S
N4101 S4100 1.613 . S
N4101 C4104 1.350 . S
N4102 S4100 1.610 . S
N4102 C4103 1.351 . S
C4103 C4097 1.428 . S
C4103 N4102 1.351 . S
C4103 C4104 1.434 . S
C4104 C4095 1.429 . S
C4104 N4101 1.350 . S
C4104 C4103 1.434 . S
C4105 C4106 1.369 . S
C4105 C4107 1.419 . S
C4105 H4109 0.930 . S
C4106 C4105 1.369 . S
C4106 C4115 1.429 . S
C4107 C4105 1.419 . S
C4107 C4108 1.363 . S
C4107 H4110 0.929 . S
C4108 C4107 1.363 . S
C4108 C4114 1.428 . S
H4109 C4105 0.930 . S
H4110 C4107 0.929 . S
S4111 N4112 1.613 . S
S4111 N4113 1.610 . S
N4112 S4111 1.613 . S
N4112 C4115 1.350 . S
N4113 S4111 1.610 . S
N4113 C4114 1.351 . S
C4114 C4108 1.428 . S
C4114 N4113 1.351 . S
C4114 C4115 1.434 . S
C4115 C4106 1.429 . S
C4115 N4112 1.350 . S
C4115 C4114 1.434 . S
C4116 C4117 1.369 . S
C4116 C4118 1.419 . S
C4116 H4120 0.930 . S
C4117 C4116 1.369 . S
C4117 C4126 1.429 . S
C4118 C4116 1.419 . S
C4118 C4119 1.363 . S
C4118 H4121 0.929 . S
C4119 C4118 1.363 . S
C4119 C4125 1.428 . S
H4120 C4116 0.930 . S
H4121 C4118 0.929 . S
S4122 N4123 1.613 . S
S4122 N4124 1.610 . S
N4123 S4122 1.613 . S
N4123 C4126 1.350 . S
N4124 S4122 1.610 . S
N4124 C4125 1.351 . S
C4125 C4119 1.428 . S
C4125 N4124 1.351 . S
C4125 C4126 1.434 . S
C4126 C4117 1.429 . S
C4126 N4123 1.350 . S
C4126 C4125 1.434 . S
C4127 C4128 1.369 . S
C4127 C4129 1.419 . S
C4127 H4131 0.930 . S
C4128 C4127 1.369 . S
C4128 C4137 1.429 . S
C4129 C4127 1.419 . S
C4129 C4130 1.363 . S
C4129 H4132 0.929 . S
C4130 C4129 1.363 . S
C4130 C4136 1.428 . S
H4131 C4127 0.930 . S
H4132 C4129 0.929 . S
S4133 N4134 1.613 . S
S4133 N4135 1.610 . S
N4134 S4133 1.613 . S
N4134 C4137 1.350 . S
N4135 S4133 1.610 . S
N4135 C4136 1.351 . S
C4136 C4130 1.428 . S
C4136 N4135 1.351 . S
C4136 C4137 1.434 . S
C4137 C4128 1.429 . S
C4137 N4134 1.350 . S
C4137 C4136 1.434 . S
C4138 C4139 1.369 . S
C4138 C4140 1.419 . S
C4138 H4142 0.930 . S
C4139 C4138 1.369 . S
C4139 C4148 1.429 . S
C4140 C4138 1.419 . S
C4140 C4141 1.363 . S
C4140 H4143 0.929 . S
C4141 C4140 1.363 . S
C4141 C4147 1.428 . S
H4142 C4138 0.930 . S
H4143 C4140 0.929 . S
S4144 N4145 1.613 . S
S4144 N4146 1.610 . S
N4145 S4144 1.613 . S
N4145 C4148 1.350 . S
N4146 S4144 1.610 . S
N4146 C4147 1.351 . S
C4147 C4141 1.428 . S
C4147 N4146 1.351 . S
C4147 C4148 1.434 . S
C4148 C4139 1.429 . S
C4148 N4145 1.350 . S
C4148 C4147 1.434 . S
C4149 C4150 1.369 . S
C4149 C4151 1.419 . S
C4149 H4153 0.930 . S
C4150 C4149 1.369 . S
C4150 C4159 1.429 . S
C4151 C4149 1.419 . S
C4151 C4152 1.363 . S
C4151 H4154 0.929 . S
C4152 C4151 1.363 . S
C4152 C4158 1.428 . S
H4153 C4149 0.930 . S
H4154 C4151 0.929 . S
S4155 N4156 1.613 . S
S4155 N4157 1.610 . S
N4156 S4155 1.613 . S
N4156 C4159 1.350 . S
N4157 S4155 1.610 . S
N4157 C4158 1.351 . S
C4158 C4152 1.428 . S
C4158 N4157 1.351 . S
C4158 C4159 1.434 . S
C4159 C4150 1.429 . S
C4159 N4156 1.350 . S
C4159 C4158 1.434 . S
C4160 C4161 1.369 . S
C4160 C4162 1.419 . S
C4160 H4164 0.930 . S
C4161 C4160 1.369 . S
C4161 C4170 1.429 . S
C4162 C4160 1.419 . S
C4162 C4163 1.363 . S
C4162 H4165 0.929 . S
C4163 C4162 1.363 . S
C4163 C4169 1.428 . S
H4164 C4160 0.930 . S
H4165 C4162 0.929 . S
S4166 N4167 1.613 . S
S4166 N4168 1.610 . S
N4167 S4166 1.613 . S
N4167 C4170 1.350 . S
N4168 S4166 1.610 . S
N4168 C4169 1.351 . S
C4169 C4163 1.428 . S
C4169 N4168 1.351 . S
C4169 C4170 1.434 . S
C4170 C4161 1.429 . S
C4170 N4167 1.350 . S
C4170 C4169 1.434 . S
C4171 C4172 1.369 . S
C4171 C4173 1.419 . S
C4171 H4175 0.930 . S
C4172 C4171 1.369 . S
C4172 C4181 1.429 . S
C4173 C4171 1.419 . S
C4173 C4174 1.363 . S
C4173 H4176 0.929 . S
C4174 C4173 1.363 . S
C4174 C4180 1.428 . S
H4175 C4171 0.930 . S
H4176 C4173 0.929 . S
S4177 N4178 1.613 . S
S4177 N4179 1.610 . S
N4178 S4177 1.613 . S
N4178 C4181 1.350 . S
N4179 S4177 1.610 . S
N4179 C4180 1.351 . S
C4180 C4174 1.428 . S
C4180 N4179 1.351 . S
C4180 C4181 1.434 . S
C4181 C4172 1.429 . S
C4181 N4178 1.350 . S
C4181 C4180 1.434 . S
C4182 C4183 1.369 . S
C4182 C4184 1.419 . S
C4182 H4186 0.930 . S
C4183 C4182 1.369 . S
C4183 C4192 1.429 . S
C4184 C4182 1.419 . S
C4184 C4185 1.363 . S
C4184 H4187 0.929 . S
C4185 C4184 1.363 . S
C4185 C4191 1.428 . S
H4186 C4182 0.930 . S
H4187 C4184 0.929 . S
S4188 N4189 1.613 . S
S4188 N4190 1.610 . S
N4189 S4188 1.613 . S
N4189 C4192 1.350 . S
N4190 S4188 1.610 . S
N4190 C4191 1.351 . S
C4191 C4185 1.428 . S
C4191 N4190 1.351 . S
C4191 C4192 1.434 . S
C4192 C4183 1.429 . S
C4192 N4189 1.350 . S
C4192 C4191 1.434 . S
C4193 C4194 1.381 . S
C4193 C4195 1.414 1_545 S
C4193 H4197 0.921 1_544 S
C4194 C4193 1.381 . S
C4194 C4203 1.429 . S
C4195 C4193 1.414 1_565 S
C4195 C4196 1.363 1_565 S
C4195 H4198 0.929 1_554 S
C4196 C4195 1.363 1_545 S
C4196 C4202 1.428 . S
H4197 C4193 0.921 1_566 S
H4198 C4195 0.929 1_556 S
S4199 N4200 1.613 . S
S4199 N4201 1.610 . S
N4200 S4199 1.613 . S
N4200 C4203 1.350 . S
N4201 S4199 1.610 . S
N4201 C4202 1.351 . S
C4202 C4196 1.428 . S
C4202 N4201 1.351 . S
C4202 C4203 1.434 . S
C4203 C4194 1.429 . S
C4203 N4200 1.350 . S
C4203 C4202 1.434 . S
C4204 C4205 1.369 . S
C4204 C4206 1.419 . S
C4204 H4208 0.930 . S
C4205 C4204 1.369 . S
C4205 C4214 1.429 . S
C4206 C4204 1.419 . S
C4206 C4207 1.363 . S
C4206 H4209 0.929 . S
C4207 C4206 1.363 . S
C4207 C4213 1.428 . S
H4208 C4204 0.930 . S
H4209 C4206 0.929 . S
S4210 N4211 1.613 . S
S4210 N4212 1.610 . S
N4211 S4210 1.613 . S
N4211 C4214 1.350 . S
N4212 S4210 1.610 . S
N4212 C4213 1.351 . S
C4213 C4207 1.428 . S
C4213 N4212 1.351 . S
C4213 C4214 1.434 . S
C4214 C4205 1.429 . S
C4214 N4211 1.350 . S
C4214 C4213 1.434 . S
C4215 C4216 1.391 . S
C4215 C4217 1.419 . S
C4215 H4219 0.930 . S
C4216 C4215 1.391 . S
C4216 C4225 1.423 1_554 S
C4217 C4215 1.419 . S
C4217 C4218 1.363 . S
C4217 H4220 0.929 . S
C4218 C4217 1.363 . S
C4218 C4224 1.428 . S
H4219 C4215 0.930 . S
H4220 C4217 0.929 . S
S4221 N4222 1.613 . S
S4221 N4223 1.610 1_556 S
N4222 S4221 1.613 . S
N4222 C4225 1.350 . S
N4223 S4221 1.610 1_554 S
N4223 C4224 1.351 . S
C4224 C4218 1.428 . S
C4224 N4223 1.351 . S
C4224 C4225 1.434 1_554 S
C4225 C4216 1.423 1_556 S
C4225 N4222 1.350 . S
C4225 C4224 1.434 1_556 S
C4226 C4227 1.369 . S
C4226 C4228 1.419 . S
C4226 H4230 0.930 . S
C4227 C4226 1.369 . S
C4227 C4236 1.429 . S
C4228 C4226 1.419 . S
C4228 C4229 1.363 . S
C4228 H4231 0.929 . S
C4229 C4228 1.363 . S
C4229 C4235 1.428 . S
H4230 C4226 0.930 . S
H4231 C4228 0.929 . S
S4232 N4233 1.613 . S
S4232 N4234 1.610 . S
N4233 S4232 1.613 . S
N4233 C4236 1.350 . S
N4234 S4232 1.610 . S
N4234 C4235 1.351 . S
C4235 C4229 1.428 . S
C4235 N4234 1.351 . S
C4235 C4236 1.434 . S
C4236 C4227 1.429 . S
C4236 N4233 1.350 . S
C4236 C4235 1.434 . S
C4237 C4238 1.369 . S
C4237 C4239 1.419 . S
C4237 H4241 0.930 . S
C4238 C4237 1.369 . S
C4238 C4247 1.429 . S
C4239 C4237 1.419 . S
C4239 C4240 1.363 . S
C4239 H4242 0.929 . S
C4240 C4239 1.363 . S
C4240 C4246 1.428 . S
H4241 C4237 0.930 . S
H4242 C4239 0.929 . S
S4243 N4244 1.613 . S
S4243 N4245 1.610 . S
N4244 S4243 1.613 . S
N4244 C4247 1.350 . S
N4245 S4243 1.610 . S
N4245 C4246 1.351 . S
C4246 C4240 1.428 . S
C4246 N4245 1.351 . S
C4246 C4247 1.434 . S
C4247 C4238 1.429 . S
C4247 N4244 1.350 . S
C4247 C4246 1.434 . S
C4248 C4249 1.369 . S
C4248 C4250 1.419 . S
C4248 H4252 0.930 . S
C4249 C4248 1.369 . S
C4249 C4258 1.429 . S
C4250 C4248 1.419 . S
C4250 C4251 1.363 . S
C4250 H4253 0.929 . S
C4251 C4250 1.363 . S
C4251 C4257 1.428 . S
H4252 C4248 0.930 . S
H4253 C4250 0.929 . S
S4254 N4255 1.613 . S
S4254 N4256 1.610 . S
N4255 S4254 1.613 . S
N4255 C4258 1.350 . S
N4256 S4254 1.610 . S
N4256 C4257 1.351 . S
C4257 C4251 1.428 . S
C4257 N4256 1.351 . S
C4257 C4258 1.434 . S
C4258 C4249 1.429 . S
C4258 N4255 1.350 . S
C4258 C4257 1.434 . S
C4259 C4260 1.369 . S
C4259 C4261 1.419 . S
C4259 H4263 0.930 . S
C4260 C4259 1.369 . S
C4260 C4269 1.429 . S
C4261 C4259 1.419 . S
C4261 C4262 1.363 . S
C4261 H4264 0.929 . S
C4262 C4261 1.363 . S
C4262 C4268 1.428 . S
H4263 C4259 0.930 . S
H4264 C4261 0.929 . S
S4265 N4266 1.613 . S
S4265 N4267 1.610 . S
N4266 S4265 1.613 . S
N4266 C4269 1.350 . S
N4267 S4265 1.610 . S
N4267 C4268 1.351 . S
C4268 C4262 1.428 . S
C4268 N4267 1.351 . S
C4268 C4269 1.434 . S
C4269 C4260 1.429 . S
C4269 N4266 1.350 . S
C4269 C4268 1.434 . S
C4270 C4271 1.369 . S
C4270 C4272 1.419 . S
C4270 H4274 0.930 1_554 S
C4271 C4270 1.369 . S
C4271 C4280 1.429 . S
C4272 C4270 1.419 . S
C4272 C4273 1.363 . S
C4272 H4275 0.929 1_554 S
C4273 C4272 1.363 . S
C4273 C4279 1.428 . S
H4274 C4270 0.930 1_556 S
H4275 C4272 0.929 1_556 S
S4276 N4277 1.613 . S
S4276 N4278 1.610 . S
N4277 S4276 1.613 . S
N4277 C4280 1.350 . S
N4278 S4276 1.610 . S
N4278 C4279 1.351 . S
C4279 C4273 1.428 . S
C4279 N4278 1.351 . S
C4279 C4280 1.434 . S
C4280 C4271 1.429 . S
C4280 N4277 1.350 . S
C4280 C4279 1.434 . S
C4281 C4282 1.369 . S
C4281 C4283 1.419 . S
C4281 H4285 0.930 . S
C4282 C4281 1.369 . S
C4282 C4291 1.429 . S
C4283 C4281 1.419 . S
C4283 C4284 1.363 . S
C4283 H4286 0.929 . S
C4284 C4283 1.363 . S
C4284 C4290 1.428 . S
H4285 C4281 0.930 . S
H4286 C4283 0.929 . S
S4287 N4288 1.613 . S
S4287 N4289 1.610 . S
N4288 S4287 1.613 . S
N4288 C4291 1.350 . S
N4289 S4287 1.610 . S
N4289 C4290 1.351 . S
C4290 C4284 1.428 . S
C4290 N4289 1.351 . S
C4290 C4291 1.434 . S
C4291 C4282 1.429 . S
C4291 N4288 1.350 . S
C4291 C4290 1.434 . S
C4292 C4293 1.369 . S
C4292 C4294 1.419 . S
C4292 H4296 0.930 . S
C4293 C4292 1.369 . S
C4293 C4302 1.429 . S
C4294 C4292 1.419 . S
C4294 C4295 1.363 . S
C4294 H4297 0.929 1_556 S
C4295 C4294 1.363 . S
C4295 C4301 1.428 . S
H4296 C4292 0.930 . S
H4297 C4294 0.929 1_554 S
S4298 N4299 1.613 . S
S4298 N4300 1.610 . S
N4299 S4298 1.613 . S
N4299 C4302 1.350 . S
N4300 S4298 1.610 . S
N4300 C4301 1.351 . S
C4301 C4295 1.428 . S
C4301 N4300 1.351 . S
C4301 C4302 1.434 . S
C4302 C4293 1.429 . S
C4302 N4299 1.350 . S
C4302 C4301 1.434 . S
C4303 C4304 1.369 . S
C4303 C4305 1.419 . S
C4303 H4307 0.930 . S
C4304 C4303 1.369 . S
C4304 C4313 1.429 . S
C4305 C4303 1.419 . S
C4305 C4306 1.363 . S
C4305 H4308 0.929 . S
C4306 C4305 1.363 . S
C4306 C4312 1.428 . S
H4307 C4303 0.930 . S
H4308 C4305 0.929 . S
S4309 N4310 1.613 . S
S4309 N4311 1.610 . S
N4310 S4309 1.613 . S
N4310 C4313 1.350 . S
N4311 S4309 1.610 . S
N4311 C4312 1.351 . S
C4312 C4306 1.428 . S
C4312 N4311 1.351 . S
C4312 C4313 1.434 . S
C4313 C4304 1.429 . S
C4313 N4310 1.350 . S
C4313 C4312 1.434 . S
C4314 C4315 1.369 . S
C4314 C4316 1.419 . S
C4314 H4318 0.930 . S
C4315 C4314 1.369 . S
C4315 C4324 1.429 . S
C4316 C4314 1.419 . S
C4316 C4317 1.363 . S
C4316 H4319 0.929 . S
C4317 C4316 1.363 . S
C4317 C4323 1.428 . S
H4318 C4314 0.930 . S
H4319 C4316 0.929 . S
S4320 N4321 1.613 . S
S4320 N4322 1.610 . S
N4321 S4320 1.613 . S
N4321 C4324 1.350 . S
N4322 S4320 1.610 . S
N4322 C4323 1.351 . S
C4323 C4317 1.428 . S
C4323 N4322 1.351 . S
C4323 C4324 1.434 . S
C4324 C4315 1.429 . S
C4324 N4321 1.350 . S
C4324 C4323 1.434 . S
C4325 C4326 1.369 . S
C4325 C4327 1.419 . S
C4325 H4329 0.930 . S
C4326 C4325 1.369 . S
C4326 C4335 1.429 . S
C4327 C4325 1.419 . S
C4327 C4328 1.363 . S
C4327 H4330 0.929 . S
C4328 C4327 1.363 . S
C4328 C4334 1.428 . S
H4329 C4325 0.930 . S
H4330 C4327 0.929 . S
S4331 N4332 1.613 . S
S4331 N4333 1.610 . S
N4332 S4331 1.613 . S
N4332 C4335 1.350 . S
N4333 S4331 1.610 . S
N4333 C4334 1.351 . S
C4334 C4328 1.428 . S
C4334 N4333 1.351 . S
C4334 C4335 1.434 . S
C4335 C4326 1.429 . S
C4335 N4332 1.350 . S
C4335 C4334 1.434 . S
C4336 C4337 1.369 . S
C4336 C4338 1.419 . S
C4336 H4340 0.930 . S
C4337 C4336 1.369 . S
C4337 C4346 1.429 . S
C4338 C4336 1.419 . S
C4338 C4339 1.363 . S
C4338 H4341 0.929 . S
C4339 C4338 1.363 . S
C4339 C4345 1.428 . S
H4340 C4336 0.930 . S
H4341 C4338 0.929 . S
S4342 N4343 1.613 . S
S4342 N4344 1.610 . S
N4343 S4342 1.613 . S
N4343 C4346 1.350 . S
N4344 S4342 1.610 . S
N4344 C4345 1.351 . S
C4345 C4339 1.428 . S
C4345 N4344 1.351 . S
C4345 C4346 1.434 . S
C4346 C4337 1.429 . S
C4346 N4343 1.350 . S
C4346 C4345 1.434 . S
C4347 C4348 1.369 . S
C4347 C4349 1.419 . S
C4347 H4351 0.930 . S
C4348 C4347 1.369 . S
C4348 C4357 1.429 . S
C4349 C4347 1.419 . S
C4349 C4350 1.363 . S
C4349 H4352 0.929 . S
C4350 C4349 1.363 . S
C4350 C4356 1.428 . S
H4351 C4347 0.930 . S
H4352 C4349 0.929 . S
S4353 N4354 1.613 . S
S4353 N4355 1.610 . S
N4354 S4353 1.613 . S
N4354 C4357 1.350 . S
N4355 S4353 1.610 . S
N4355 C4356 1.351 . S
C4356 C4350 1.428 . S
C4356 N4355 1.351 . S
C4356 C4357 1.434 . S
C4357 C4348 1.429 . S
C4357 N4354 1.350 . S
C4357 C4356 1.434 . S
C4358 C4359 1.369 . S
C4358 C4360 1.419 1_655 S
C4358 H4362 0.930 . S
C4359 C4358 1.369 . S
C4359 C4368 1.429 1_655 S
C4360 C4358 1.419 1_455 S
C4360 C4361 1.363 . S
C4360 H4363 0.931 1_455 S
C4361 C4360 1.363 . S
C4361 C4367 1.428 . S
H4362 C4358 0.930 . S
H4363 C4360 0.931 1_655 S
S4364 N4365 1.613 . S
S4364 N4366 1.610 . S
N4365 S4364 1.613 . S
N4365 C4368 1.350 . S
N4366 S4364 1.610 . S
N4366 C4367 1.351 . S
C4367 C4361 1.428 . S
C4367 N4366 1.351 . S
C4367 C4368 1.434 . S
C4368 C4359 1.429 1_455 S
C4368 N4365 1.350 . S
C4368 C4367 1.434 . S
C4369 C4370 1.369 . S
C4369 C4371 1.419 . S
C4369 H4373 0.930 . S
C4370 C4369 1.369 . S
C4370 C4379 1.429 . S
C4371 C4369 1.419 . S
C4371 C4372 1.363 . S
C4371 H4374 0.929 . S
C4372 C4371 1.363 . S
C4372 C4378 1.428 . S
H4373 C4369 0.930 . S
H4374 C4371 0.929 . S
S4375 N4376 1.613 . S
S4375 N4377 1.610 . S
N4376 S4375 1.613 . S
N4376 C4379 1.350 . S
N4377 S4375 1.610 . S
N4377 C4378 1.351 . S
C4378 C4372 1.428 . S
C4378 N4377 1.351 . S
C4378 C4379 1.434 . S
C4379 C4370 1.429 . S
C4379 N4376 1.350 . S
C4379 C4378 1.434 . S
C4380 C4381 1.369 . S
C4380 C4382 1.419 . S
C4380 H4384 0.930 . S
C4381 C4380 1.369 . S
C4381 C4390 1.429 . S
C4382 C4380 1.419 . S
C4382 C4383 1.363 . S
C4382 H4385 0.929 . S
C4383 C4382 1.363 . S
C4383 C4389 1.428 . S
H4384 C4380 0.930 . S
H4385 C4382 0.929 . S
S4386 N4387 1.613 . S
S4386 N4388 1.610 . S
N4387 S4386 1.613 . S
N4387 C4390 1.350 . S
N4388 S4386 1.610 . S
N4388 C4389 1.351 . S
C4389 C4383 1.428 . S
C4389 N4388 1.351 . S
C4389 C4390 1.434 . S
C4390 C4381 1.429 . S
C4390 N4387 1.350 . S
C4390 C4389 1.434 . S
C4391 C4392 1.369 . S
C4391 C4393 1.419 . S
C4391 H4395 0.930 . S
C4392 C4391 1.369 . S
C4392 C4401 1.429 . S
C4393 C4391 1.419 . S
C4393 C4394 1.363 . S
C4393 H4396 0.929 . S
C4394 C4393 1.363 . S
C4394 C4400 1.428 . S
H4395 C4391 0.930 . S
H4396 C4393 0.929 . S
S4397 N4398 1.613 . S
S4397 N4399 1.610 . S
N4398 S4397 1.613 . S
N4398 C4401 1.350 . S
N4399 S4397 1.610 . S
N4399 C4400 1.351 . S
C4400 C4394 1.428 . S
C4400 N4399 1.351 . S
C4400 C4401 1.434 . S
C4401 C4392 1.429 . S
C4401 N4398 1.350 . S
C4401 C4400 1.434 . S
C4402 C4403 1.369 . S
C4402 C4404 1.419 . S
C4402 H4406 0.930 . S
C4403 C4402 1.369 . S
C4403 C4412 1.429 1_655 S
C4404 C4402 1.419 . S
C4404 C4405 1.359 1_655 S
C4404 H4407 0.929 . S
C4405 C4404 1.359 1_455 S
C4405 C4411 1.430 . S
H4406 C4402 0.930 . S
H4407 C4404 0.929 . S
S4408 N4409 1.613 . S
S4408 N4410 1.610 . S
N4409 S4408 1.613 . S
N4409 C4412 1.350 . S
N4410 S4408 1.610 . S
N4410 C4411 1.351 . S
C4411 C4405 1.430 . S
C4411 N4410 1.351 . S
C4411 C4412 1.434 . S
C4412 C4403 1.429 1_455 S
C4412 N4409 1.350 . S
C4412 C4411 1.434 . S
C4413 C4414 1.369 . S
C4413 C4415 1.419 . S
C4413 H4417 0.930 . S
C4414 C4413 1.369 . S
C4414 C4423 1.429 . S
C4415 C4413 1.419 . S
C4415 C4416 1.363 . S
C4415 H4418 0.929 . S
C4416 C4415 1.363 . S
C4416 C4422 1.428 . S
H4417 C4413 0.930 . S
H4418 C4415 0.929 . S
S4419 N4420 1.613 . S
S4419 N4421 1.610 . S
N4420 S4419 1.613 . S
N4420 C4423 1.350 . S
N4421 S4419 1.610 . S
N4421 C4422 1.351 . S
C4422 C4416 1.428 . S
C4422 N4421 1.351 . S
C4422 C4423 1.434 . S
C4423 C4414 1.429 . S
C4423 N4420 1.350 . S
C4423 C4422 1.434 . S
C4424 C4425 1.369 . S
C4424 C4426 1.419 . S
C4424 H4428 0.930 . S
C4425 C4424 1.369 . S
C4425 C4434 1.429 . S
C4426 C4424 1.419 . S
C4426 C4427 1.363 . S
C4426 H4429 0.929 . S
C4427 C4426 1.363 . S
C4427 C4433 1.428 . S
H4428 C4424 0.930 . S
H4429 C4426 0.929 . S
S4430 N4431 1.613 . S
S4430 N4432 1.610 . S
N4431 S4430 1.613 . S
N4431 C4434 1.350 . S
N4432 S4430 1.610 . S
N4432 C4433 1.351 . S
C4433 C4427 1.428 . S
C4433 N4432 1.351 . S
C4433 C4434 1.434 . S
C4434 C4425 1.429 . S
C4434 N4431 1.350 . S
C4434 C4433 1.434 . S
C4435 C4436 1.369 . S
C4435 C4437 1.419 . S
C4435 H4439 0.930 . S
C4436 C4435 1.369 . S
C4436 C4445 1.429 . S
C4437 C4435 1.419 . S
C4437 C4438 1.363 . S
C4437 H4440 0.929 . S
C4438 C4437 1.363 . S
C4438 C4444 1.428 1_565 S
H4439 C4435 0.930 . S
H4440 C4437 0.929 . S
S4441 N4442 1.613 . S
S4441 N4443 1.610 . S
N4442 S4441 1.613 . S
N4442 C4445 1.350 1_545 S
N4443 S4441 1.610 . S
N4443 C4444 1.351 . S
C4444 C4438 1.428 1_545 S
C4444 N4443 1.351 . S
C4444 C4445 1.434 1_545 S
C4445 C4436 1.429 . S
C4445 N4442 1.350 1_565 S
C4445 C4444 1.434 1_565 S
C4446 C4447 1.369 . S
C4446 C4448 1.419 . S
C4446 H4450 0.930 . S
C4447 C4446 1.369 . S
C4447 C4456 1.429 . S
C4448 C4446 1.419 . S
C4448 C4449 1.363 . S
C4448 H4451 0.929 . S
C4449 C4448 1.363 . S
C4449 C4455 1.428 . S
H4450 C4446 0.930 . S
H4451 C4448 0.929 . S
S4452 N4453 1.613 . S
S4452 N4454 1.610 . S
N4453 S4452 1.613 . S
N4453 C4456 1.350 . S
N4454 S4452 1.610 . S
N4454 C4455 1.351 . S
C4455 C4449 1.428 . S
C4455 N4454 1.351 . S
C4455 C4456 1.434 . S
C4456 C4447 1.429 . S
C4456 N4453 1.350 . S
C4456 C4455 1.434 . S
C4457 C4458 1.369 . S
C4457 C4459 1.419 . S
C4457 H4461 0.930 . S
C4458 C4457 1.369 . S
C4458 C4467 1.429 . S
C4459 C4457 1.419 . S
C4459 C4460 1.363 . S
C4459 H4462 0.929 . S
C4460 C4459 1.363 . S
C4460 C4466 1.428 . S
H4461 C4457 0.930 . S
H4462 C4459 0.929 . S
S4463 N4464 1.613 1_565 S
S4463 N4465 1.610 1_565 S
N4464 S4463 1.613 1_545 S
N4464 C4467 1.350 . S
N4465 S4463 1.610 1_545 S
N4465 C4466 1.351 . S
C4466 C4460 1.428 . S
C4466 N4465 1.351 . S
C4466 C4467 1.434 . S
C4467 C4458 1.429 . S
C4467 N4464 1.350 . S
C4467 C4466 1.434 . S
C4468 C4469 1.369 . S
C4468 C4470 1.419 . S
C4468 H4472 0.930 . S
C4469 C4468 1.369 . S
C4469 C4478 1.429 . S
C4470 C4468 1.419 . S
C4470 C4471 1.363 . S
C4470 H4473 0.929 . S
C4471 C4470 1.363 . S
C4471 C4477 1.428 . S
H4472 C4468 0.930 . S
H4473 C4470 0.929 . S
S4474 N4475 1.613 . S
S4474 N4476 1.610 . S
N4475 S4474 1.613 . S
N4475 C4478 1.350 . S
N4476 S4474 1.610 . S
N4476 C4477 1.351 . S
C4477 C4471 1.428 . S
C4477 N4476 1.351 . S
C4477 C4478 1.434 . S
C4478 C4469 1.429 . S
C4478 N4475 1.350 . S
C4478 C4477 1.434 . S
C4479 C4480 1.369 . S
C4479 C4481 1.419 . S
C4479 H4483 0.930 . S
C4480 C4479 1.369 . S
C4480 C4489 1.429 . S
C4481 C4479 1.419 . S
C4481 C4482 1.363 . S
C4481 H4484 0.929 . S
C4482 C4481 1.363 . S
C4482 C4488 1.428 . S
H4483 C4479 0.930 . S
H4484 C4481 0.929 . S
S4485 N4486 1.613 . S
S4485 N4487 1.610 . S
N4486 S4485 1.613 . S
N4486 C4489 1.350 . S
N4487 S4485 1.610 . S
N4487 C4488 1.351 . S
C4488 C4482 1.428 . S
C4488 N4487 1.351 . S
C4488 C4489 1.434 . S
C4489 C4480 1.429 . S
C4489 N4486 1.350 . S
C4489 C4488 1.434 . S
C4490 C4491 1.369 . S
C4490 C4492 1.419 . S
C4490 H4494 0.930 . S
C4491 C4490 1.369 . S
C4491 C4500 1.429 . S
C4492 C4490 1.419 . S
C4492 C4493 1.363 . S
C4492 H4495 0.929 . S
C4493 C4492 1.363 . S
C4493 C4499 1.428 . S
H4494 C4490 0.930 . S
H4495 C4492 0.929 . S
S4496 N4497 1.613 . S
S4496 N4498 1.610 . S
N4497 S4496 1.613 . S
N4497 C4500 1.350 . S
N4498 S4496 1.610 . S
N4498 C4499 1.351 . S
C4499 C4493 1.428 . S
C4499 N4498 1.351 . S
C4499 C4500 1.434 . S
C4500 C4491 1.429 . S
C4500 N4497 1.350 . S
C4500 C4499 1.434 . S
C4501 C4502 1.369 . S
C4501 C4503 1.419 . S
C4501 H4505 0.930 . S
C4502 C4501 1.369 . S
C4502 C4511 1.429 . S
C4503 C4501 1.419 . S
C4503 C4504 1.363 . S
C4503 H4506 0.929 . S
C4504 C4503 1.363 . S
C4504 C4510 1.428 . S
H4505 C4501 0.930 . S
H4506 C4503 0.929 . S
S4507 N4508 1.613 . S
S4507 N4509 1.610 . S
N4508 S4507 1.613 . S
N4508 C4511 1.350 . S
N4509 S4507 1.610 . S
N4509 C4510 1.351 . S
C4510 C4504 1.428 . S
C4510 N4509 1.351 . S
C4510 C4511 1.434 . S
C4511 C4502 1.429 . S
C4511 N4508 1.350 . S
C4511 C4510 1.434 . S
C3457 C665 1.942 . S
C3459 C2168 1.873 . S
C3468 C381 2.226 . S
C3470 C2259 2.239 . S
C3479 C460 1.813 . S
C3481 C2336 1.906 . S
C3492 C2434 1.424 . S
C3490 C585 1.554 . S
C3501 C108 1.592 . S
C3503 C2518 1.600 . S
C3514 C2590 1.008 . S
C3512 C196 1.175 . S
C3525 C2679 1.378 . S
C3523 C313 1.204 . S
C3534 C49 1.558 . S
C3536 C2756 1.369 . S
C3547 C2175 2.037 . S
C3545 C1457 2.129 . S
C3556 C1545 0.638 . S
C3558 C2266 0.681 . S
C3569 C2343 1.153 . S
C3567 C1721 1.185 . S
C3580 C2420 1.866 . S
C3578 C1113 1.838 . S
C3589 C1428 2.276 . S
C3591 C2504 2.131 . S
C3602 C2606 1.104 . S
C3600 C1516 1.171 . S
C3613 C2686 0.755 . S
C3611 C1692 0.752 . S
C3624 C2763 1.571 . S
C3622 C1085 1.714 . S
C3635 C2182 1.401 . S
C3633 C988 1.496 1_545 S
C3644 C1817 1.933 . S
C3646 C2847 1.889 1_556 S
C3657 C2935 2.180 . S
C3655 C2081 2.363 . S
C3668 C3008 0.682 . S
C3666 C1993 0.678 . S
C3677 C761 1.109 . S
C3679 C2770 1.204 . S
C3688 C821 1.517 . S
C3690 C2350 1.539 . S
C3699 C2053 2.293 . S
C3701 C3099 2.232 . S
C3712 C3176 0.749 . S
C3710 C1868 0.750 . S
C3723 C2179 1.870 . S
C3721 C372 1.938 . S
C3734 C3194 2.238 . S
C3732 C645 2.219 . S
C3743 C577 1.815 . S
C3745 C2347 1.902 . S
C3754 C497 1.552 . S
C3756 C3094 1.428 . S
C3767 C2506 1.598 . S
C3765 C57 1.591 . S
C3776 C293 1.160 . S
C3778 C2938 1.022 . S
C3789 C2690 1.374 . S
C3787 C205 1.195 . S
C3800 C3271 1.374 . S
C3798 C145 1.559 . S
C3811 C2186 2.036 . S
C3809 C909 2.127 . S
C3822 C3178 0.665 . S
C3820 C1956 0.636 . S
C3831 C724 1.187 . S
C3833 C2354 1.155 . S
C3842 C1780 1.834 . S
C3844 C3103 1.856 . S
C3853 C937 2.281 . S
C3855 C2515 2.124 . S
C3866 C2931 1.090 . S
C3864 C1985 1.169 . S
C3875 C753 0.746 . S
C3877 C2674 0.756 . S
C3886 C1809 1.717 . S
C3888 C3278 1.569 . S
C3897 C1173 1.491 . S
C3899 C2170 1.409 1_554 S
C3908 C1105 1.931 . S
C3910 C2858 1.892 . S
C3919 C1633 2.359 . S
C3921 C2588 2.175 . S
C3930 C1553 0.678 . S
C3932 C3019 0.667 . S
C3943 C3262 1.207 . S
C3941 C1729 1.109 . S
C3952 C1340 1.520 . S
C3954 C2338 1.533 . S
C3965 C2438 2.229 . S
C3963 C1604 2.289 . S
C3976 C2263 0.754 . S
C3974 C1252 0.753 . S
C3985 C489 1.936 . S
C3987 C3344 1.876 . S
C3998 C3183 2.237 . S
C3996 C557 2.223 . S
C4007 C636 1.819 . S
C4009 C3428 1.906 . S
C4018 C409 1.553 1_655 S
C4020 C3106 1.421 . S
C4029 C284 1.591 . S
C4031 C2854 1.600 . S
C4042 C2926 1.026 . S
C4040 C20 1.161 . S
C4053 C3015 1.377 . S
C4051 C137 1.204 . S
C4064 C3260 1.368 . S
C4062 C225 1.555 . S
C4075 C3351 2.034 . S
C4073 C1641 2.130 . S
C4084 C1193 0.637 . S
C4086 C3190 0.677 . S
C4097 C3435 1.159 . S
C4095 C1289 1.189 . S
C4108 C3092 1.867 . S
C4106 C1377 1.837 . S
C4119 C2840 2.136 . S
C4117 C1613 2.272 . S
C4128 C1164 1.171 . S
C4130 C2942 1.103 . S
C4141 C3022 0.741 . S
C4139 C1261 0.754 . S
C4150 C1349 1.714 . S
C4152 C3267 1.571 . S
C4163 C3358 1.407 . S
C4161 C1965 1.497 . S
C4172 C849 1.934 . S
C4174 C2511 1.890 . S
C4185 C2599 2.175 . S
C4183 C929 2.369 . S
C4196 C2672 0.677 . S
C4194 C1017 0.704 . S
C4207 C3274 1.207 . S
C4205 C1897 1.116 . S
C4216 C1789 1.509 1_554 S
C4218 C3442 1.534 . S
C4229 C2427 2.229 . S
C4227 C900 2.288 . S
C4240 C2252 0.749 . S
C4238 C733 0.749 . S
C4249 C548 1.938 . S
C4251 C3355 1.866 . S
C4262 C2270 2.236 . S
C4260 C469 2.217 . S
C4271 C401 1.804 . S
C4273 C3439 1.898 . S
C4282 C673 1.552 . S
C4284 C2422 1.422 . S
C4293 C233 1.589 . S
C4295 C2842 1.597 . S
C4306 C2602 1.024 . S
C4304 C117 1.160 . S
C4315 C29 1.191 . S
C4317 C3026 1.375 . S
C4326 C321 1.554 . S
C4328 C2767 1.371 . S
C4339 C3362 2.031 . S
C4337 C2044 2.126 . S
C4348 C997 0.636 . S
C4350 C2254 0.677 . S
C4361 C3446 1.155 . S
C4359 C1877 1.182 . S
C4370 C812 1.836 . S
C4372 C2431 1.865 . S
C4381 C2073 2.281 . S
C4383 C2851 2.128 . S
C4394 C2595 1.090 . S
C4392 C1025 1.168 . S
C4403 C1905 0.748 . S
C4405 C3010 0.757 . S
C4416 C2774 1.565 . S
C4414 C841 1.715 . S
C4427 C3346 1.399 . S
C4425 C1525 1.496 . S
C4438 C2522 1.891 1_665 S
C4436 C1369 1.931 . S
C4447 C1465 2.360 . S
C4449 C2924 2.172 . S
C4460 C2683 0.670 . S
C4458 C1201 0.697 . S
C4469 C1281 1.106 . S
C4471 C2758 1.209 . S
C4480 C1076 1.518 . S
C4482 C3430 1.536 1_554 S
C4493 C3110 2.233 . S
C4491 C1437 2.291 . S
C4504 C3187 0.752 . S
C4502 C1701 0.755 . S
