# Generated by pormake.
# Topology ocu, (6,8)-cn, num edge types: 1
# Building blocks:
#     Node 0, Type 0, BuildingBlock: KUMBUR_clean_sbu_1, # of connection points: 6
#     Node 1, Type 0, BuildingBlock: KUMBUR_clean_sbu_1, # of connection points: 6
#     Node 2, Type 0, BuildingBlock: KUMBUR_clean_sbu_1, # of connection points: 6
#     Node 3, Type 0, BuildingBlock: KUMBUR_clean_sbu_1, # of connection points: 6
#     Node 4, Type 0, BuildingBlock: KUMBUR_clean_sbu_1, # of connection points: 6
#     Node 5, Type 0, BuildingBlock: KUMBUR_clean_sbu_1, # of connection points: 6
#     Node 6, Type 0, BuildingBlock: KUMBUR_clean_sbu_1, # of connection points: 6
#     Node 7, Type 0, BuildingBlock: KUMBUR_clean_sbu_1, # of connection points: 6
#     Node 8, Type 1, BuildingBlock: GIZVER_clean_sbu_0, # of connection points: 8
#     Node 9, Type 1, BuildingBlock: GIZVER_clean_sbu_0, # of connection points: 8
#     Node 10, Type 1, BuildingBlock: GIZVER_clean_sbu_0, # of connection points: 8
#     Node 11, Type 1, BuildingBlock: GIZVER_clean_sbu_0, # of connection points: 8
#     Node 12, Type 1, BuildingBlock: GIZVER_clean_sbu_0, # of connection points: 8
#     Node 13, Type 1, BuildingBlock: GIZVER_clean_sbu_0, # of connection points: 8
#     Edge 14, Type (0, 1), BuildingBlock: ZUJKAS_clean_linker_0, # of connection points: 2
#     Edge 15, Type (0, 1), BuildingBlock: ZUJKAS_clean_linker_0, # of connection points: 2
#     Edge 16, Type (0, 1), BuildingBlock: ZUJKAS_clean_linker_0, # of connection points: 2
#     Edge 17, Type (0, 1), BuildingBlock: ZUJKAS_clean_linker_0, # of connection points: 2
#     Edge 18, Type (0, 1), BuildingBlock: ZUJKAS_clean_linker_0, # of connection points: 2
#     Edge 19, Type (0, 1), BuildingBlock: ZUJKAS_clean_linker_0, # of connection points: 2
#     Edge 20, Type (0, 1), BuildingBlock: ZUJKAS_clean_linker_0, # of connection points: 2
#     Edge 21, Type (0, 1), BuildingBlock: ZUJKAS_clean_linker_0, # of connection points: 2
#     Edge 22, Type (0, 1), BuildingBlock: ZUJKAS_clean_linker_0, # of connection points: 2
#     Edge 23, Type (0, 1), BuildingBlock: ZUJKAS_clean_linker_0, # of connection points: 2
#     Edge 24, Type (0, 1), BuildingBlock: ZUJKAS_clean_linker_0, # of connection points: 2
#     Edge 25, Type (0, 1), BuildingBlock: ZUJKAS_clean_linker_0, # of connection points: 2
#     Edge 26, Type (0, 1), BuildingBlock: ZUJKAS_clean_linker_0, # of connection points: 2
#     Edge 27, Type (0, 1), BuildingBlock: ZUJKAS_clean_linker_0, # of connection points: 2
#     Edge 28, Type (0, 1), BuildingBlock: ZUJKAS_clean_linker_0, # of connection points: 2
#     Edge 29, Type (0, 1), BuildingBlock: ZUJKAS_clean_linker_0, # of connection points: 2
#     Edge 30, Type (0, 1), BuildingBlock: ZUJKAS_clean_linker_0, # of connection points: 2
#     Edge 31, Type (0, 1), BuildingBlock: ZUJKAS_clean_linker_0, # of connection points: 2
#     Edge 32, Type (0, 1), BuildingBlock: ZUJKAS_clean_linker_0, # of connection points: 2
#     Edge 33, Type (0, 1), BuildingBlock: ZUJKAS_clean_linker_0, # of connection points: 2
#     Edge 34, Type (0, 1), BuildingBlock: ZUJKAS_clean_linker_0, # of connection points: 2
#     Edge 35, Type (0, 1), BuildingBlock: ZUJKAS_clean_linker_0, # of connection points: 2
#     Edge 36, Type (0, 1), BuildingBlock: ZUJKAS_clean_linker_0, # of connection points: 2
#     Edge 37, Type (0, 1), BuildingBlock: ZUJKAS_clean_linker_0, # of connection points: 2
#     Edge 38, Type (0, 1), BuildingBlock: ZUJKAS_clean_linker_0, # of connection points: 2
#     Edge 39, Type (0, 1), BuildingBlock: ZUJKAS_clean_linker_0, # of connection points: 2
#     Edge 40, Type (0, 1), BuildingBlock: ZUJKAS_clean_linker_0, # of connection points: 2
#     Edge 41, Type (0, 1), BuildingBlock: ZUJKAS_clean_linker_0, # of connection points: 2
#     Edge 42, Type (0, 1), BuildingBlock: ZUJKAS_clean_linker_0, # of connection points: 2
#     Edge 43, Type (0, 1), BuildingBlock: ZUJKAS_clean_linker_0, # of connection points: 2
#     Edge 44, Type (0, 1), BuildingBlock: ZUJKAS_clean_linker_0, # of connection points: 2
#     Edge 45, Type (0, 1), BuildingBlock: ZUJKAS_clean_linker_0, # of connection points: 2
#     Edge 46, Type (0, 1), BuildingBlock: ZUJKAS_clean_linker_0, # of connection points: 2
#     Edge 47, Type (0, 1), BuildingBlock: ZUJKAS_clean_linker_0, # of connection points: 2
#     Edge 48, Type (0, 1), BuildingBlock: ZUJKAS_clean_linker_0, # of connection points: 2
#     Edge 49, Type (0, 1), BuildingBlock: ZUJKAS_clean_linker_0, # of connection points: 2
#     Edge 50, Type (0, 1), BuildingBlock: ZUJKAS_clean_linker_0, # of connection points: 2
#     Edge 51, Type (0, 1), BuildingBlock: ZUJKAS_clean_linker_0, # of connection points: 2
#     Edge 52, Type (0, 1), BuildingBlock: ZUJKAS_clean_linker_0, # of connection points: 2
#     Edge 53, Type (0, 1), BuildingBlock: ZUJKAS_clean_linker_0, # of connection points: 2
#     Edge 54, Type (0, 1), BuildingBlock: ZUJKAS_clean_linker_0, # of connection points: 2
#     Edge 55, Type (0, 1), BuildingBlock: ZUJKAS_clean_linker_0, # of connection points: 2
#     Edge 56, Type (0, 1), BuildingBlock: ZUJKAS_clean_linker_0, # of connection points: 2
#     Edge 57, Type (0, 1), BuildingBlock: ZUJKAS_clean_linker_0, # of connection points: 2
#     Edge 58, Type (0, 1), BuildingBlock: ZUJKAS_clean_linker_0, # of connection points: 2
#     Edge 59, Type (0, 1), BuildingBlock: ZUJKAS_clean_linker_0, # of connection points: 2
#     Edge 60, Type (0, 1), BuildingBlock: ZUJKAS_clean_linker_0, # of connection points: 2
#     Edge 61, Type (0, 1), BuildingBlock: ZUJKAS_clean_linker_0, # of connection points: 2
# Relax obj value: 0.148
# Max RMSD: 0.214
# Mean RMSD: 0.171
data_MOF--net-ocu--node1-KUMBUR_clean_sbu_1--node2-GIZVER_clean_sbu_0--edge1-ZUJKAS_clean_linker_0
_symmetry_space_group_name_H-M    P1
_symmetry_Int_Tables_number       1
_symmetry_cell_setting            triclinic
loop_
_symmetry_equiv_pos_as_xyz
'x, y, z'
_cell_length_a     53.552667
_cell_length_b     55.821499
_cell_length_c     43.352434
_cell_angle_alpha  98.780751
_cell_angle_beta   81.388076
_cell_angle_gamma 107.77119
loop_
_atom_site_label
_atom_site_type_symbol
_atom_site_fract_x
_atom_site_fract_y
_atom_site_fract_z
_atom_type_partial_charge
Tb0 Tb 0.25658 0.26172 0.22279 0.0
C1 C 0.31084 0.3275 0.33621 0.0
N2 N 0.32174 0.32036 0.30716 0.0
C3 C 0.351 0.36242 0.30481 0.0
C4 C 0.31932 0.35265 0.35041 0.0
C5 C 0.34191 0.33728 0.29161 0.0
C6 C 0.3396 0.37017 0.33427 0.0
C7 C 0.27822 0.31651 0.38104 0.0
C8 C 0.29039 0.30962 0.35127 0.0
C9 C 0.28664 0.34155 0.39526 0.0
C10 C 0.30712 0.35956 0.38 0.0
Tb11 Tb 0.30532 0.2787 0.28882 0.0
N12 N 0.28211 0.28569 0.33637 0.0
C13 C 0.25802 0.29797 0.3957 0.0
C14 C 0.26367 0.26722 0.35156 0.0
C15 C 0.25098 0.27316 0.38107 0.0
H16 H 0.35161 0.33135 0.26947 0.0
H17 H 0.23608 0.25847 0.39276 0.0
H18 H 0.1979 0.22316 0.24562 0.0
H19 H 0.32813 0.25491 0.1224 0.0
H20 H 0.25922 0.24773 0.34181 0.0
H21 H 0.24818 0.30248 0.41859 0.0
H22 H 0.30959 0.27596 0.17077 0.0
H23 H 0.36695 0.37575 0.29236 0.0
H24 H 0.27745 0.34719 0.41808 0.0
H25 H 0.31333 0.37882 0.39125 0.0
H26 H 0.1709 0.17995 0.22871 0.0
H27 H 0.34667 0.38968 0.34439 0.0
H28 H 0.30405 0.21139 0.10185 0.0
N29 N 0.22914 0.22256 0.20911 0.0
C30 C 0.23777 0.2096 0.18262 0.0
C31 C 0.18974 0.18802 0.21563 0.0
C32 C 0.2228 0.18506 0.17178 0.0
C33 C 0.20524 0.21238 0.22537 0.0
C34 C 0.19859 0.17425 0.1888 0.0
N35 N 0.27603 0.24435 0.17819 0.0
C36 C 0.2991 0.25695 0.16218 0.0
C37 C 0.2715 0.20828 0.13875 0.0
C38 C 0.26178 0.22101 0.1663 0.0
C39 C 0.29582 0.22056 0.12306 0.0
C40 C 0.30954 0.2451 0.13467 0.0
H41 H 0.18651 0.15541 0.18128 0.0
H42 H 0.22127 0.15327 0.13574 0.0
H43 H 0.26392 0.17359 0.10685 0.0
O44 O 0.25928 0.28729 0.19086 0.0
O45 O 0.28243 0.23671 0.22149 0.0
O46 O 0.32009 0.26102 0.2435 0.0
O47 O 0.2216 0.26256 0.20666 0.0
O48 O 0.28639 0.29846 0.2292 0.0
O49 O 0.3232 0.29289 0.24389 0.0
O50 O 0.31489 0.25258 0.31211 0.0
O51 O 0.27807 0.30263 0.29092 0.0
O52 O 0.24065 0.27837 0.26812 0.0
O53 O 0.34183 0.28941 0.30688 0.0
O54 O 0.27519 0.24151 0.28583 0.0
O55 O 0.23947 0.24765 0.26766 0.0
C56 C 0.30738 0.24079 0.22594 0.0
C57 C 0.22304 0.30315 0.19564 0.0
C58 C 0.20273 0.33049 0.1757 0.0
C59 C 0.20566 0.3465 0.20416 0.0
C60 C 0.22627 0.31968 0.22349 0.0
C61 C 0.21731 0.34104 0.2279 0.0
C62 C 0.21114 0.30853 0.17178 0.0
C63 C 0.31205 0.30327 0.22667 0.0
C64 C 0.23384 0.28143 0.19052 0.0
C65 C 0.23246 0.17218 0.1444 0.0
C66 C 0.25674 0.18376 0.12792 0.0
C67 C 0.25273 0.29766 0.28756 0.0
C68 C 0.36052 0.25618 0.3051 0.0
C69 C 0.38798 0.23078 0.31486 0.0
C70 C 0.4035 0.23657 0.28622 0.0
C71 C 0.37637 0.26167 0.27674 0.0
C72 C 0.36629 0.24063 0.324 0.0
C73 C 0.39759 0.25175 0.26731 0.0
C74 C 0.24977 0.23504 0.28287 0.0
C75 C 0.33859 0.26734 0.31557 0.0
H76 H 0.19902 0.36331 0.208 0.0
H77 H 0.2362 0.31632 0.24152 0.0
H78 H 0.21976 0.35361 0.24959 0.0
H79 H 0.20931 0.29616 0.14985 0.0
H80 H 0.42062 0.22985 0.27864 0.0
H81 H 0.37252 0.27389 0.26202 0.0
H82 H 0.35386 0.23629 0.34575 0.0
H83 H 0.40975 0.25616 0.24544 0.0
Tb84 Tb 0.75083 0.28798 0.25945 0.0
C85 C 0.84218 0.2561 0.18798 0.0
N86 N 0.81947 0.24089 0.20142 0.0
C87 C 0.81484 0.21296 0.15322 0.0
C88 C 0.85146 0.25099 0.1562 0.0
C89 C 0.80683 0.21857 0.18504 0.0
C90 C 0.83695 0.22951 0.13854 0.0
C91 C 0.88212 0.29061 0.19495 0.0
C92 C 0.85733 0.27558 0.20694 0.0
C93 C 0.8909 0.28641 0.16296 0.0
C94 C 0.87552 0.26671 0.14356 0.0
Tb95 Tb 0.80751 0.2533 0.25323 0.0
N96 N 0.84816 0.27902 0.23768 0.0
C97 C 0.89764 0.30877 0.21574 0.0
C98 C 0.86391 0.29542 0.2585 0.0
C99 C 0.88867 0.31088 0.24776 0.0
H100 H 0.79069 0.20473 0.19638 0.0
H101 H 0.90081 0.32439 0.26416 0.0
H102 H 0.75074 0.31502 0.33246 0.0
H103 H 0.67079 0.2271 0.19573 0.0
H104 H 0.85697 0.29695 0.28321 0.0
H105 H 0.91683 0.32072 0.20748 0.0
H106 H 0.71383 0.25911 0.20133 0.0
H107 H 0.80425 0.1956 0.14022 0.0
H108 H 0.90988 0.29776 0.1532 0.0
H109 H 0.88288 0.26321 0.11913 0.0
H110 H 0.72053 0.31066 0.3818 0.0
H111 H 0.84338 0.2249 0.11404 0.0
H112 H 0.64057 0.21385 0.24313 0.0
N113 N 0.7246 0.28515 0.30608 0.0
C114 C 0.70015 0.26846 0.30559 0.0
C115 C 0.71465 0.29853 0.36057 0.0
C116 C 0.68226 0.2653 0.33303 0.0
C117 C 0.73174 0.3009 0.33269 0.0
C118 C 0.68992 0.28043 0.36085 0.0
N119 N 0.71013 0.26053 0.25104 0.0
C120 C 0.70172 0.25199 0.22204 0.0
C121 C 0.66744 0.23821 0.27528 0.0
C122 C 0.69292 0.25518 0.27717 0.0
C123 C 0.65993 0.22707 0.24564 0.0
C124 C 0.67695 0.23445 0.21884 0.0
H125 H 0.67674 0.2786 0.38247 0.0
H126 H 0.64333 0.24455 0.35251 0.0
H127 H 0.63035 0.22073 0.3019 0.0
O128 O 0.7251 0.30557 0.2462 0.0
O129 O 0.75109 0.26422 0.2958 0.0
O130 O 0.7672 0.23224 0.26954 0.0
O131 O 0.76102 0.32772 0.26496 0.0
O132 O 0.7572 0.26339 0.21577 0.0
O133 O 0.77115 0.23244 0.23173 0.0
O134 O 0.82142 0.24718 0.29323 0.0
O135 O 0.81635 0.29185 0.24063 0.0
O136 O 0.7803 0.29123 0.21811 0.0
O137 O 0.82546 0.22411 0.24959 0.0
O138 O 0.80246 0.27802 0.2969 0.0
O139 O 0.78483 0.30849 0.28529 0.0
C140 C 0.75063 0.24027 0.29111 0.0
C141 C 0.74679 0.34415 0.22555 0.0
C142 C 0.73015 0.36292 0.18847 0.0
C143 C 0.75637 0.37499 0.17713 0.0
C144 C 0.77277 0.3565 0.21395 0.0
C145 C 0.77746 0.37166 0.18971 0.0
C146 C 0.72567 0.3473 0.21256 0.0
C147 C 0.75838 0.2399 0.21307 0.0
C148 C 0.74115 0.32811 0.2513 0.0
C149 C 0.65729 0.24751 0.33162 0.0
C150 C 0.64993 0.2339 0.30281 0.0
C151 C 0.80573 0.29971 0.22028 0.0
C152 C 0.82043 0.20541 0.29609 0.0
C153 C 0.83221 0.17761 0.32587 0.0
C154 C 0.80539 0.16388 0.33074 0.0
C155 C 0.7938 0.19145 0.30086 0.0
C156 C 0.83949 0.19846 0.30855 0.0
C157 C 0.78634 0.17079 0.31822 0.0
C158 C 0.79966 0.30105 0.30143 0.0
C159 C 0.82876 0.22781 0.27917 0.0
H160 H 0.76069 0.38754 0.15906 0.0
H161 H 0.78946 0.35458 0.22364 0.0
H162 H 0.79753 0.38115 0.18093 0.0
H163 H 0.70568 0.33746 0.22131 0.0
H164 H 0.79921 0.14757 0.34374 0.0
H165 H 0.77887 0.19656 0.29129 0.0
H166 H 0.86001 0.20955 0.30509 0.0
H167 H 0.76576 0.16008 0.32191 0.0
Tb168 Tb 0.77085 0.74787 0.2888 0.0
C169 C 0.8472 0.804 0.18173 0.0
N170 N 0.83541 0.81459 0.20801 0.0
C171 C 0.87538 0.84846 0.21366 0.0
C172 C 0.87378 0.81502 0.17076 0.0
C173 C 0.84893 0.83686 0.22362 0.0
C174 C 0.88794 0.83741 0.18724 0.0
C175 C 0.84381 0.77042 0.13843 0.0
C176 C 0.8324 0.78201 0.16577 0.0
C177 C 0.87038 0.78118 0.12756 0.0
C178 C 0.88534 0.80342 0.14367 0.0
Tb179 Tb 0.7924 0.79327 0.22226 0.0
N180 N 0.80702 0.77162 0.17765 0.0
C181 C 0.8281 0.74837 0.12293 0.0
C182 C 0.79122 0.751 0.16162 0.0
C183 C 0.80161 0.73881 0.13437 0.0
H184 H 0.83916 0.84612 0.24328 0.0
H185 H 0.78912 0.72215 0.12209 0.0
H186 H 0.72394 0.69564 0.266 0.0
H187 H 0.77399 0.81777 0.39021 0.0
H188 H 0.77066 0.74402 0.16952 0.0
H189 H 0.83611 0.73884 0.10186 0.0
H190 H 0.7924 0.79699 0.34177 0.0
H191 H 0.88601 0.86604 0.2262 0.0
H192 H 0.87954 0.77249 0.10665 0.0
H193 H 0.90578 0.81155 0.13492 0.0
H194 H 0.67732 0.67517 0.28338 0.0
H195 H 0.90842 0.84648 0.17955 0.0
H196 H 0.7273 0.80013 0.41099 0.0
N197 N 0.72795 0.72621 0.30276 0.0
C198 C 0.71627 0.73623 0.32955 0.0
C199 C 0.68801 0.69244 0.29645 0.0
C200 C 0.68976 0.72489 0.3406 0.0
C201 C 0.71438 0.70433 0.28642 0.0
C202 C 0.67559 0.70281 0.32355 0.0
N203 N 0.75627 0.76884 0.33393 0.0
C204 C 0.77195 0.78949 0.35005 0.0
C205 C 0.71967 0.76906 0.37376 0.0
C206 C 0.73101 0.75802 0.34594 0.0
C207 C 0.73528 0.79102 0.38955 0.0
C208 C 0.7616 0.80112 0.3778 0.0
H209 H 0.65517 0.69352 0.33126 0.0
H210 H 0.65792 0.72749 0.37705 0.0
H211 H 0.6841 0.76618 0.40605 0.0
O212 O 0.79973 0.74495 0.31495 0.0
O213 O 0.7477 0.77525 0.28929 0.0
O214 O 0.77528 0.81011 0.26661 0.0
O215 O 0.7642 0.71441 0.30936 0.0
O216 O 0.81019 0.77597 0.28672 0.0
O217 O 0.80697 0.81093 0.26742 0.0
O218 O 0.7644 0.79581 0.19446 0.0
O219 O 0.81573 0.76617 0.22278 0.0
O220 O 0.78738 0.73115 0.24412 0.0
O221 O 0.7993 0.82673 0.20159 0.0
O222 O 0.75268 0.76551 0.22475 0.0
O223 O 0.7568 0.73072 0.24344 0.0
C224 C 0.75414 0.79948 0.28514 0.0
C225 C 0.80328 0.70353 0.31044 0.0
C226 C 0.83612 0.68503 0.32275 0.0
C227 C 0.8334 0.66939 0.29392 0.0
C228 C 0.80104 0.68774 0.28191 0.0
C229 C 0.81614 0.67091 0.27367 0.0
C230 C 0.82097 0.70227 0.33067 0.0
C231 C 0.81759 0.80057 0.28537 0.0
C232 C 0.78743 0.72147 0.31913 0.0
C233 C 0.67829 0.7359 0.36823 0.0
C234 C 0.69321 0.75792 0.38477 0.0
C235 C 0.80898 0.74182 0.22639 0.0
C236 C 0.76069 0.83702 0.19656 0.0
C237 C 0.73144 0.85706 0.17909 0.0
C238 C 0.73082 0.87151 0.20863 0.0
C239 C 0.76002 0.85185 0.2257 0.0
C240 C 0.74618 0.83951 0.17336 0.0
C241 C 0.74496 0.86881 0.23178 0.0
C242 C 0.74559 0.74092 0.22609 0.0
C243 C 0.77678 0.81924 0.19008 0.0
H244 H 0.84412 0.65547 0.28719 0.0
H245 H 0.78744 0.68828 0.26608 0.0
H246 H 0.8142 0.65872 0.25166 0.0
H247 H 0.8229 0.7148 0.35244 0.0
H248 H 0.71939 0.88494 0.2138 0.0
H249 H 0.77142 0.8505 0.24358 0.0
H250 H 0.74695 0.82834 0.15065 0.0
H251 H 0.74449 0.88012 0.25437 0.0
Tb252 Tb 0.24971 0.79627 0.265 0.0
C253 C 0.30488 0.72485 0.30836 0.0
N254 N 0.31595 0.74713 0.29607 0.0
C255 C 0.34689 0.76025 0.33451 0.0
C256 C 0.31367 0.71971 0.33502 0.0
C257 C 0.33764 0.76425 0.30777 0.0
C258 C 0.33457 0.73805 0.34854 0.0
C259 C 0.27452 0.68255 0.30361 0.0
C260 C 0.2857 0.70656 0.29295 0.0
C261 C 0.28233 0.67763 0.33096 0.0
C262 C 0.30187 0.6962 0.34666 0.0
Tb263 Tb 0.29785 0.75233 0.25375 0.0
N264 N 0.27843 0.71221 0.26696 0.0
C265 C 0.25617 0.66418 0.28616 0.0
C266 C 0.26199 0.69385 0.2486 0.0
C267 C 0.25018 0.66975 0.25825 0.0
H268 H 0.34819 0.78084 0.29624 0.0
H269 H 0.23657 0.65548 0.24412 0.0
H270 H 0.22652 0.7798 0.19616 0.0
H271 H 0.29674 0.88825 0.32472 0.0
H272 H 0.25757 0.69803 0.2269 0.0
H273 H 0.24704 0.6455 0.29358 0.0
H274 H 0.27141 0.84323 0.32177 0.0
H275 H 0.36374 0.77412 0.34401 0.0
H276 H 0.27378 0.6594 0.33978 0.0
H277 H 0.30817 0.69197 0.36731 0.0
H278 H 0.22899 0.80004 0.14835 0.0
H279 H 0.34192 0.73488 0.36906 0.0
H280 H 0.30717 0.91053 0.27717 0.0
N281 N 0.25122 0.81276 0.21966 0.0
C282 C 0.26399 0.83785 0.21948 0.0
C283 C 0.23912 0.81081 0.1681 0.0
C284 C 0.26586 0.85021 0.19286 0.0
C285 C 0.23787 0.79936 0.19506 0.0
C286 C 0.25343 0.83627 0.16684 0.0
N287 N 0.27109 0.83874 0.27213 0.0
C288 C 0.27747 0.85212 0.30042 0.0
C289 C 0.28802 0.87723 0.24723 0.0
C290 C 0.27488 0.85111 0.24633 0.0
C291 C 0.29693 0.89045 0.2755 0.0
C292 C 0.29117 0.87792 0.30236 0.0
H293 H 0.2544 0.84507 0.1459 0.0
H294 H 0.28176 0.88581 0.17288 0.0
H295 H 0.30112 0.9095 0.22052 0.0
O296 O 0.22474 0.81868 0.28369 0.0
O297 O 0.27918 0.79553 0.22341 0.0
O298 O 0.31434 0.79134 0.24327 0.0
O299 O 0.20862 0.77945 0.26716 0.0
O300 O 0.27381 0.80135 0.30398 0.0
O301 O 0.31106 0.79003 0.28056 0.0
O302 O 0.30692 0.73934 0.20669 0.0
O303 O 0.25836 0.73899 0.2792 0.0
O304 O 0.24779 0.77476 0.30406 0.0
O305 O 0.33338 0.74271 0.24094 0.0
O306 O 0.27117 0.74676 0.21765 0.0
O307 O 0.23437 0.75809 0.24201 0.0
C308 C 0.30473 0.80197 0.22481 0.0
C309 C 0.18738 0.79554 0.31326 0.0
C310 C 0.18393 0.80268 0.3707 0.0
C311 C 0.15619 0.79283 0.37103 0.0
C312 C 0.15999 0.78589 0.31425 0.0
C313 C 0.14452 0.78403 0.34312 0.0
C314 C 0.19925 0.80232 0.34132 0.0
C315 C 0.29891 0.80252 0.30312 0.0
C316 C 0.20367 0.79946 0.28308 0.0
C317 C 0.27981 0.87601 0.19323 0.0
C318 C 0.29093 0.88947 0.22033 0.0
C319 C 0.24549 0.75043 0.30192 0.0
C320 C 0.35181 0.7531 0.18988 0.0
C321 C 0.37536 0.75505 0.13713 0.0
C322 C 0.39178 0.77915 0.14725 0.0
C323 C 0.3682 0.77716 0.1995 0.0
C324 C 0.35497 0.74255 0.15869 0.0
C325 C 0.38796 0.79018 0.17812 0.0
C326 C 0.24569 0.74419 0.22071 0.0
C327 C 0.33024 0.7391 0.21125 0.0
H328 H 0.14301 0.79282 0.39246 0.0
H329 H 0.1506 0.78013 0.29277 0.0
H330 H 0.12327 0.77678 0.34387 0.0
H331 H 0.22053 0.80829 0.33973 0.0
H332 H 0.40801 0.78929 0.13171 0.0
H333 H 0.36567 0.78592 0.22339 0.0
H334 H 0.34134 0.72447 0.15139 0.0
H335 H 0.40063 0.80872 0.18562 0.0
Tb336 Tb 0.25887 0.78206 0.75859 0.0
C337 C 0.36103 0.76303 0.69941 0.0
N338 N 0.3363 0.74682 0.70274 0.0
C339 C 0.34036 0.73155 0.64797 0.0
C340 C 0.37608 0.76488 0.66983 0.0
C341 C 0.32604 0.73065 0.67776 0.0
C342 C 0.3654 0.74888 0.64393 0.0
C343 C 0.39607 0.79599 0.72322 0.0
C344 C 0.3708 0.77834 0.72574 0.0
C345 C 0.41095 0.79841 0.69367 0.0
C346 C 0.40102 0.78281 0.66706 0.0
Tb347 Tb 0.315 0.74628 0.75245 0.0
N348 N 0.35575 0.77552 0.75388 0.0
C349 C 0.40581 0.81028 0.75056 0.0
C350 C 0.36626 0.78773 0.78082 0.0
C351 C 0.39102 0.80579 0.77957 0.0
H352 H 0.30687 0.71699 0.68082 0.0
H353 H 0.39891 0.81582 0.80103 0.0
H354 H 0.27654 0.8351 0.80812 0.0
H355 H 0.16491 0.71092 0.75208 0.0
H356 H 0.35611 0.78301 0.80342 0.0
H357 H 0.4251 0.8241 0.74966 0.0
H358 H 0.20967 0.73545 0.7318 0.0
H359 H 0.33208 0.71889 0.62816 0.0
H360 H 0.4303 0.81203 0.69123 0.0
H361 H 0.4128 0.78474 0.64447 0.0
H362 H 0.26091 0.85122 0.86122 0.0
H363 H 0.37634 0.74968 0.62079 0.0
H364 H 0.1467 0.72197 0.80653 0.0
N365 N 0.24554 0.80036 0.80674 0.0
C366 C 0.22175 0.78755 0.82065 0.0
C367 C 0.24989 0.83307 0.85029 0.0
C368 C 0.21152 0.79649 0.85057 0.0
C369 C 0.25897 0.82359 0.82037 0.0
C370 C 0.22627 0.81926 0.8657 0.0
N371 N 0.21716 0.75881 0.77484 0.0
C372 C 0.20196 0.74006 0.75563 0.0
C373 C 0.18132 0.75316 0.81642 0.0
C374 C 0.20683 0.76627 0.8039 0.0
C375 C 0.16637 0.7326 0.79776 0.0
C376 C 0.17659 0.72628 0.76703 0.0
H377 H 0.21913 0.82679 0.88871 0.0
H378 H 0.17848 0.78932 0.88696 0.0
H379 H 0.15204 0.7513 0.85703 0.0
O380 O 0.25008 0.78646 0.71455 0.0
O381 O 0.24801 0.74573 0.77803 0.0
O382 O 0.28572 0.74157 0.79393 0.0
O383 O 0.24084 0.81017 0.7558 0.0
O384 O 0.26264 0.75395 0.71801 0.0
O385 O 0.27836 0.72363 0.73313 0.0
O386 O 0.34095 0.73265 0.77193 0.0
O387 O 0.31263 0.77008 0.71732 0.0
O388 O 0.29969 0.80306 0.74506 0.0
O389 O 0.31132 0.70722 0.74465 0.0
O390 O 0.30989 0.77083 0.79659 0.0
O391 O 0.29425 0.80167 0.78262 0.0
C392 C 0.25992 0.73637 0.79552 0.0
C393 C 0.25084 0.82764 0.70788 0.0
C394 C 0.24123 0.85568 0.67636 0.0
C395 C 0.26803 0.86979 0.67417 0.0
C396 C 0.27743 0.842 0.70577 0.0
C397 C 0.28598 0.86292 0.6888 0.0
C398 C 0.23293 0.8344 0.69306 0.0
C399 C 0.26321 0.73036 0.71679 0.0
C400 C 0.24113 0.8056 0.72551 0.0
C401 C 0.18657 0.7829 0.86386 0.0
C402 C 0.17148 0.76127 0.8468 0.0
C403 C 0.31546 0.79445 0.72312 0.0
C404 C 0.35156 0.6971 0.74364 0.0
C405 C 0.38735 0.67982 0.74861 0.0
C406 C 0.38982 0.67316 0.71591 0.0
C407 C 0.35414 0.69007 0.71109 0.0
C408 C 0.36822 0.69195 0.76222 0.0
C409 C 0.37332 0.67831 0.69733 0.0
C410 C 0.30671 0.79371 0.8012 0.0
C411 C 0.3317 0.70964 0.75913 0.0
H412 H 0.27502 0.88648 0.66184 0.0
H413 H 0.29149 0.83719 0.71731 0.0
H414 H 0.30649 0.87404 0.68734 0.0
H415 H 0.21245 0.82302 0.69459 0.0
H416 H 0.40453 0.664 0.7047 0.0
H417 H 0.34131 0.69343 0.6963 0.0
H418 H 0.36584 0.6969 0.78745 0.0
H419 H 0.37529 0.67303 0.6722 0.0
Tb420 Tb 0.27011 0.24201 0.79027 0.0
C421 C 0.34769 0.29522 0.68183 0.0
N422 N 0.33637 0.30645 0.70792 0.0
C423 C 0.37715 0.33931 0.71317 0.0
C424 C 0.37444 0.30537 0.67074 0.0
C425 C 0.35054 0.32852 0.7233 0.0
C426 C 0.38922 0.32761 0.6869 0.0
C427 C 0.34333 0.26098 0.63928 0.0
C428 C 0.33234 0.27334 0.66627 0.0
C429 C 0.37004 0.27088 0.62829 0.0
C430 C 0.38556 0.29303 0.64396 0.0
Tb431 Tb 0.2931 0.28639 0.72263 0.0
N432 N 0.30682 0.26373 0.67832 0.0
C433 C 0.32714 0.23897 0.62428 0.0
C434 C 0.2906 0.24314 0.66274 0.0
C435 C 0.30058 0.23021 0.63585 0.0
H436 H 0.34121 0.33823 0.7429 0.0
H437 H 0.28773 0.21359 0.62394 0.0
H438 H 0.22392 0.1887 0.76966 0.0
H439 H 0.2718 0.31438 0.88886 0.0
H440 H 0.26997 0.2367 0.67064 0.0
H441 H 0.33484 0.22884 0.60353 0.0
H442 H 0.29095 0.29211 0.84236 0.0
H443 H 0.38829 0.35676 0.72549 0.0
H444 H 0.37889 0.26158 0.60767 0.0
H445 H 0.40611 0.30049 0.63515 0.0
H446 H 0.17693 0.16871 0.78608 0.0
H447 H 0.40983 0.33603 0.67912 0.0
H448 H 0.22465 0.29768 0.90838 0.0
N449 N 0.22705 0.22064 0.8042 0.0
C450 C 0.21488 0.23148 0.82991 0.0
C451 C 0.18731 0.18649 0.79843 0.0
C452 C 0.18819 0.22048 0.8405 0.0
C453 C 0.21384 0.19811 0.78883 0.0
C454 C 0.17435 0.19781 0.82424 0.0
N455 N 0.25486 0.26404 0.83415 0.0
C456 C 0.27035 0.28499 0.85003 0.0
C457 C 0.21756 0.2656 0.87244 0.0
C458 C 0.22937 0.2537 0.84569 0.0
C459 C 0.23297 0.28792 0.88777 0.0
C460 C 0.25956 0.29747 0.87672 0.0
H461 H 0.15381 0.18873 0.83164 0.0
H462 H 0.15569 0.22428 0.87539 0.0
H463 H 0.1814 0.26385 0.90329 0.0
O464 O 0.29778 0.24006 0.81887 0.0
O465 O 0.24728 0.26926 0.7885 0.0
O466 O 0.27606 0.30382 0.76653 0.0
O467 O 0.26327 0.20876 0.81142 0.0
O468 O 0.30974 0.26984 0.78844 0.0
O469 O 0.30724 0.30449 0.76781 0.0
O470 O 0.26504 0.28983 0.6956 0.0
O471 O 0.31607 0.25932 0.72459 0.0
O472 O 0.2874 0.22463 0.74639 0.0
O473 O 0.30111 0.31963 0.70117 0.0
O474 O 0.25344 0.2587 0.72446 0.0
O475 O 0.25592 0.22401 0.74505 0.0
C476 C 0.2543 0.29351 0.78429 0.0
C477 C 0.30227 0.19923 0.81681 0.0
C478 C 0.33407 0.18175 0.83359 0.0
C479 C 0.33475 0.1671 0.80414 0.0
C480 C 0.30316 0.18427 0.78779 0.0
C481 C 0.31943 0.16843 0.78147 0.0
C482 C 0.31773 0.19791 0.83967 0.0
C483 C 0.3173 0.2944 0.78667 0.0
C484 C 0.2857 0.21656 0.82316 0.0
C485 C 0.17622 0.23238 0.86697 0.0
C486 C 0.19087 0.2549 0.88289 0.0
C487 C 0.30907 0.23503 0.7285 0.0
C488 C 0.26284 0.33169 0.69938 0.0
C489 C 0.23015 0.35038 0.68713 0.0
C490 C 0.23386 0.36685 0.71524 0.0
C491 C 0.26605 0.34829 0.72724 0.0
C492 C 0.24477 0.33267 0.6795 0.0
C493 C 0.25154 0.36566 0.73513 0.0
C494 C 0.24543 0.23421 0.72678 0.0
C495 C 0.27801 0.31312 0.69117 0.0
H496 H 0.34671 0.15416 0.79881 0.0
H497 H 0.29113 0.18475 0.7701 0.0
H498 H 0.31998 0.15694 0.75901 0.0
H499 H 0.31716 0.2096 0.86201 0.0
H500 H 0.22356 0.38112 0.72165 0.0
H501 H 0.27991 0.34795 0.74283 0.0
H502 H 0.24207 0.31956 0.65826 0.0
H503 H 0.25422 0.37846 0.7566 0.0
Tb504 Tb 0.76783 0.28323 0.74633 0.0
C505 C 0.79407 0.19873 0.79503 0.0
N506 N 0.80856 0.22323 0.79355 0.0
C507 C 0.81672 0.22699 0.84721 0.0
C508 C 0.78912 0.18769 0.82328 0.0
C509 C 0.82094 0.23713 0.81862 0.0
C510 C 0.80043 0.20228 0.84969 0.0
C511 C 0.76996 0.15901 0.76813 0.0
C512 C 0.78469 0.18467 0.76786 0.0
C513 C 0.76364 0.14822 0.79659 0.0
C514 C 0.77329 0.16251 0.8241 0.0
Tb515 Tb 0.8137 0.2381 0.7462 0.0
N516 N 0.79155 0.19572 0.74079 0.0
C517 C 0.76291 0.14478 0.73962 0.0
C518 C 0.78707 0.18121 0.71266 0.0
C519 C 0.77203 0.1558 0.71167 0.0
H520 H 0.83353 0.2562 0.81666 0.0
H521 H 0.76785 0.14463 0.68934 0.0
H522 H 0.72046 0.25181 0.70053 0.0
H523 H 0.83376 0.37797 0.74512 0.0
H524 H 0.79534 0.18905 0.69084 0.0
H525 H 0.75154 0.12502 0.73879 0.0
H526 H 0.80873 0.33861 0.76856 0.0
H527 H 0.82599 0.23823 0.8673 0.0
H528 H 0.75199 0.12864 0.79738 0.0
H529 H 0.76881 0.15378 0.84572 0.0
H530 H 0.71007 0.25326 0.64753 0.0
H531 H 0.79709 0.19452 0.87188 0.0
H532 H 0.82868 0.38236 0.69057 0.0
N533 N 0.75447 0.28387 0.69864 0.0
C534 C 0.76792 0.30411 0.68307 0.0
C535 C 0.7267 0.2675 0.65701 0.0
C536 C 0.76208 0.30635 0.65319 0.0
C537 C 0.73305 0.2664 0.68682 0.0
C538 C 0.74158 0.28733 0.63985 0.0
N539 N 0.79084 0.32066 0.72717 0.0
C540 C 0.80656 0.3404 0.74472 0.0
C541 C 0.8001 0.34549 0.6838 0.0
C542 C 0.78653 0.32339 0.69807 0.0
C543 C 0.81775 0.36509 0.70074 0.0
C544 C 0.82069 0.36268 0.73153 0.0
H545 H 0.73645 0.2883 0.61692 0.0
H546 H 0.77228 0.32979 0.61501 0.0
H547 H 0.80571 0.36409 0.64184 0.0
O548 O 0.75777 0.30355 0.78844 0.0
O549 O 0.80886 0.2931 0.72451 0.0
O550 O 0.81761 0.25593 0.70331 0.0
O551 O 0.73256 0.29358 0.75149 0.0
O552 O 0.79188 0.29131 0.78564 0.0
O553 O 0.82846 0.27716 0.76722 0.0
O554 O 0.83924 0.21537 0.73342 0.0
O555 O 0.78431 0.24356 0.7859 0.0
O556 O 0.74922 0.24662 0.76454 0.0
O557 O 0.85456 0.25542 0.74577 0.0
O558 O 0.79053 0.23077 0.70585 0.0
O559 O 0.7535 0.24355 0.72607 0.0
C560 C 0.82062 0.28011 0.70257 0.0
C561 C 0.71234 0.29443 0.80437 0.0
C562 C 0.69387 0.29903 0.85944 0.0
C563 C 0.66891 0.28458 0.85031 0.0
C564 C 0.68738 0.28009 0.79594 0.0
C565 C 0.66591 0.27482 0.81897 0.0
C566 C 0.71558 0.30271 0.83613 0.0
C567 C 0.81689 0.29261 0.78563 0.0
C568 C 0.73502 0.30271 0.78066 0.0
C569 C 0.77628 0.32784 0.63812 0.0
C570 C 0.79527 0.3474 0.65342 0.0
C571 C 0.75886 0.23694 0.78414 0.0
C572 C 0.87789 0.23666 0.70425 0.0
C573 C 0.88375 0.22774 0.64705 0.0
C574 C 0.91137 0.23599 0.64844 0.0
C575 C 0.90519 0.24482 0.70501 0.0
C576 C 0.86736 0.22957 0.67535 0.0
C577 C 0.92186 0.24492 0.67707 0.0
C578 C 0.76547 0.22936 0.70583 0.0
C579 C 0.86019 0.23474 0.73354 0.0
H580 H 0.65131 0.28151 0.86682 0.0
H581 H 0.68433 0.2733 0.77163 0.0
H582 H 0.6466 0.26396 0.81235 0.0
H583 H 0.73519 0.31281 0.84224 0.0
H584 H 0.92522 0.23463 0.62789 0.0
H585 H 0.91355 0.25076 0.72717 0.0
H586 H 0.84621 0.22455 0.67551 0.0
H587 H 0.94302 0.25096 0.67767 0.0
Tb588 Tb 0.75608 0.75327 0.72239 0.0
C589 C 0.80361 0.8238 0.83324 0.0
N590 N 0.81684 0.81667 0.80577 0.0
C591 C 0.84282 0.85975 0.8022 0.0
C592 C 0.8091 0.84943 0.84586 0.0
C593 C 0.83651 0.83413 0.79039 0.0
C594 C 0.82901 0.86746 0.82997 0.0
C595 C 0.76869 0.81217 0.87562 0.0
C596 C 0.7835 0.80535 0.84777 0.0
C597 C 0.77407 0.83771 0.88827 0.0
C598 C 0.79424 0.85628 0.87346 0.0
Tb599 Tb 0.80466 0.7744 0.789 0.0
N600 N 0.77818 0.78086 0.83426 0.0
C601 C 0.74901 0.79309 0.89002 0.0
C602 C 0.76054 0.76206 0.84972 0.0
C603 C 0.74525 0.76789 0.8773 0.0
H604 H 0.84774 0.8283 0.76936 0.0
H605 H 0.73093 0.75288 0.88907 0.0
H606 H 0.70253 0.70811 0.74541 0.0
H607 H 0.82628 0.75736 0.61829 0.0
H608 H 0.75878 0.74251 0.84181 0.0
H609 H 0.73716 0.79754 0.91142 0.0
H610 H 0.80549 0.77475 0.66741 0.0
H611 H 0.85839 0.87353 0.7899 0.0
H612 H 0.76277 0.8433 0.90955 0.0
H613 H 0.79808 0.8759 0.88345 0.0
H614 H 0.68158 0.66299 0.72862 0.0
H615 H 0.83383 0.88736 0.83892 0.0
H616 H 0.80824 0.71241 0.59768 0.0
N617 N 0.73379 0.712 0.70832 0.0
C618 C 0.74376 0.70096 0.68108 0.0
C619 C 0.69922 0.67339 0.71519 0.0
C620 C 0.73211 0.67542 0.67015 0.0
C621 C 0.71142 0.69882 0.72502 0.0
C622 C 0.70971 0.66157 0.68776 0.0
N623 N 0.77702 0.73974 0.67612 0.0
C624 C 0.79787 0.75501 0.65942 0.0
C625 C 0.77688 0.70468 0.63586 0.0
C626 C 0.76584 0.7154 0.66414 0.0
C627 C 0.79913 0.71992 0.61951 0.0
C628 C 0.80947 0.74526 0.63117 0.0
H629 H 0.70017 0.64189 0.68017 0.0
H630 H 0.73453 0.64496 0.63333 0.0
H631 H 0.77374 0.67057 0.60334 0.0
O632 O 0.75018 0.78153 0.69947 0.0
O633 O 0.78446 0.73076 0.72007 0.0
O634 O 0.8206 0.75452 0.74601 0.0
O635 O 0.72055 0.74584 0.70274 0.0
O636 O 0.78727 0.78973 0.72159 0.0
O637 O 0.82288 0.78636 0.74335 0.0
O638 O 0.81506 0.7536 0.81927 0.0
O639 O 0.77892 0.79797 0.78338 0.0
O640 O 0.74086 0.76952 0.76837 0.0
O641 O 0.84215 0.78809 0.80495 0.0
O642 O 0.77712 0.73583 0.78628 0.0
O643 O 0.74063 0.74009 0.7682 0.0
C644 C 0.80912 0.73534 0.72597 0.0
C645 C 0.7057 0.78152 0.70426 0.0
C646 C 0.67916 0.80687 0.69215 0.0
C647 C 0.66677 0.80644 0.72316 0.0
C648 C 0.69269 0.78096 0.73485 0.0
C649 C 0.6735 0.79353 0.74428 0.0
C650 C 0.69879 0.79436 0.68288 0.0
C651 C 0.81269 0.7964 0.72462 0.0
C652 C 0.72617 0.76843 0.69448 0.0
C653 C 0.74315 0.66458 0.64207 0.0
C654 C 0.76546 0.67918 0.62496 0.0
C655 C 0.75307 0.79125 0.78356 0.0
C656 C 0.86029 0.75614 0.81224 0.0
C657 C 0.88674 0.73246 0.82858 0.0
C658 C 0.90065 0.73259 0.79831 0.0
C659 C 0.87482 0.7564 0.78247 0.0
C660 C 0.86627 0.7441 0.83525 0.0
C661 C 0.8947 0.74448 0.7755 0.0
C662 C 0.75177 0.72782 0.78286 0.0
C663 C 0.83905 0.76851 0.81942 0.0
H664 H 0.65141 0.8156 0.73092 0.0
H665 H 0.69715 0.77055 0.75131 0.0
H666 H 0.66358 0.79303 0.76795 0.0
H667 H 0.70873 0.7947 0.65919 0.0
H668 H 0.91605 0.7233 0.79216 0.0
H669 H 0.87089 0.76599 0.76468 0.0
H670 H 0.85532 0.74421 0.8584 0.0
H671 H 0.90559 0.74453 0.75235 0.0
Co672 Co 0.06776 0.97389 0.50146 0.0
Co673 Co 0.05689 0.99991 0.55511 0.0
Co674 Co 0.03287 1.01626 0.50483 0.0
O675 O 0.06299 1.00657 0.51351 0.0
H676 H 0.07929 0.01995 0.51057 0.0
O677 O 1.00282 0.02592 0.49606 0.0
Co678 Co 0.99854 0.05889 0.50579 0.0
Co679 Co 1.0094 0.03099 0.45374 0.0
H680 H 0.98641 1.01276 0.49949 0.0
O681 O 0.08373 0.9999 0.57683 0.0
O682 O 0.05932 0.96709 0.54654 0.0
O683 O 1.02311 0.99952 0.57812 0.0
O684 O 1.0062 0.99204 0.53286 0.0
O685 O 0.03969 0.04365 0.54037 0.0
O686 O 0.98987 0.08791 0.51358 0.0
O687 O 0.96448 0.04848 0.49942 0.0
O688 O 0.03478 0.07429 0.5167 0.0
O689 O 0.05942 0.04043 0.47672 0.0
O690 O 0.04301 0.02987 0.43115 0.0
O691 O 1.00875 0.06437 0.46036 0.0
O692 O 0.98335 0.03155 0.43103 0.0
C693 C 0.09968 0.96047 0.49741 0.0
C694 C 1.02006 0.96557 0.47285 0.0
C695 C 1.00355 0.99071 0.56241 0.0
C696 C 0.0769 0.97597 0.56646 0.0
C697 C 0.96711 0.07255 0.50669 0.0
C698 C 0.04548 0.06705 0.5368 0.0
C699 C 0.06237 0.0402 0.44689 0.0
C700 C 0.99165 0.05569 0.43986 0.0
O701 O 0.07671 0.94525 0.49112 0.0
O702 O 0.10225 0.9844 0.50612 0.0
O703 O 1.02598 0.98894 0.46922 0.0
O704 O 1.03115 0.95833 0.49248 0.0
Co705 Co 0.56224 0.96784 0.97671 0.0
Co706 Co 0.56277 0.9866 0.03485 0.0
Co707 Co 0.533 0.01767 0.00501 0.0
O708 O 0.5625 1.00106 0.99976 0.0
H709 H 0.57953 1.01319 0.99582 0.0
O710 O 0.50336 0.03464 0.0099 0.0
Co711 Co 0.49957 0.0647 0.03933 0.0
Co712 Co 0.51006 0.0583 0.98251 0.0
H713 H 0.48641 0.02223 0.00733 0.0
O714 O 0.59391 0.98561 0.04547 0.0
O715 O 0.56551 0.95526 0.01631 0.0
O716 O 0.53248 0.98194 0.06518 0.0
O717 O 0.5089 0.99631 0.03812 0.0
O718 O 0.55176 0.04351 0.03777 0.0
O719 O 0.49402 0.09071 0.06658 0.0
O720 O 0.46272 0.05761 0.04694 0.0
O721 O 0.53712 0.07701 0.03687 0.0
O722 O 0.55778 0.03837 0.97154 0.0
O723 O 0.54481 0.07103 0.96372 0.0
O724 O 0.49858 0.08405 0.00424 0.0
O725 O 0.48354 0.05724 0.9615 0.0
C726 C 0.59014 0.94941 0.95228 0.0
C727 C 0.50921 0.96734 0.97279 0.0
C728 C 0.51074 0.98472 0.06068 0.0
C729 C 0.58668 0.96278 0.03109 0.0
C730 C 0.4691 0.07947 0.06462 0.0
C731 C 0.55471 0.06739 0.04204 0.0
C732 C 0.56182 0.05917 0.95993 0.0
C733 C 0.48339 0.07722 0.98136 0.0
O734 O 0.56487 0.93821 0.95481 0.0
O735 O 0.59826 0.97291 0.96521 0.0
O736 O 0.51436 0.99133 0.97256 0.0
O737 O 0.52447 0.95772 0.9837 0.0
Co738 Co 0.06052 0.4688 0.97326 0.0
Co739 Co 0.06187 0.48764 0.03203 0.0
Co740 Co 1.03047 0.51759 1.0037 0.0
O741 O 0.0609 0.50209 0.99659 0.0
H742 H 0.07761 0.5146 0.9921 0.0
O743 O 0.99997 0.53297 0.01095 0.0
Co744 Co 1.00062 0.56633 0.03389 0.0
Co745 Co 0.99858 0.54712 0.97568 0.0
H746 H 0.9833 0.52051 0.01572 0.0
O747 O 0.09285 0.48435 0.04113 0.0
O748 O 0.06247 0.45577 0.0129 0.0
O749 O 1.0321 0.48314 0.06373 0.0
O750 O 1.00736 0.49355 0.03425 0.0
O751 O 0.04778 0.54225 0.03814 0.0
O752 O 0.99834 0.59599 0.0557 0.0
O753 O 0.96466 0.56154 0.04525 0.0
O754 O 0.03841 0.57617 0.0271 0.0
O755 O 0.05344 0.54152 0.97297 0.0
O756 O 1.02819 0.55168 0.94388 0.0
O757 O 0.99757 0.579 0.99425 0.0
O758 O 0.96723 0.54943 0.9668 0.0
C759 C 0.08856 0.45023 0.94962 0.0
C760 C 1.00798 0.46907 0.96804 0.0
C761 C 1.00975 0.48334 0.0577 0.0
C762 C 0.08378 0.46164 0.0271 0.0
C763 C 0.97303 0.58501 0.05818 0.0
C764 C 0.05286 0.5663 0.03906 0.0
C765 C 0.05068 0.55157 0.94955 0.0
C766 C 0.97607 0.5724 0.98019 0.0
O767 O 0.06325 0.43921 0.95131 0.0
O768 O 0.09663 0.47364 0.96284 0.0
O769 O 1.01325 0.49312 0.96922 0.0
O770 O 1.02264 0.45883 0.97901 0.0
Co771 Co 0.55509 0.47144 0.01286 0.0
Co772 Co 0.54859 0.50411 0.06182 0.0
Co773 Co 0.52972 0.51963 0.00636 0.0
O774 O 0.55587 0.50607 0.01894 0.0
H775 H 0.57353 0.51702 0.01475 0.0
O776 O 0.50425 0.53421 0.99356 0.0
Co777 Co 0.51096 0.57036 0.99499 0.0
Co778 Co 0.51199 0.53285 0.94981 0.0
H779 H 0.48607 0.52515 0.99955 0.0
O780 O 0.57383 0.50354 0.08548 0.0
O781 O 0.54635 0.47012 0.05935 0.0
O782 O 0.51633 0.50943 0.08285 0.0
O783 O 0.49984 0.50174 0.03735 0.0
O784 O 0.54108 0.54978 0.03777 0.0
O785 O 0.51362 0.60277 0.99526 0.0
O786 O 0.4777 0.56901 0.98987 0.0
O787 O 0.54724 0.57741 1.0037 0.0
O788 O 0.55945 0.53689 0.97497 0.0
O789 O 0.54287 0.52336 0.92986 0.0
O790 O 0.52001 0.5674 0.9483 0.0
O791 O 0.48867 0.53589 0.92487 0.0
C792 C 0.5827 0.4531 0.01289 0.0
C793 C 0.50956 0.46661 0.98227 0.0
C794 C 0.49672 0.50152 0.06717 0.0
C795 C 0.5645 0.47922 0.0786 0.0
C796 C 0.48878 0.59342 0.99125 0.0
C797 C 0.55214 0.57181 0.02928 0.0
C798 C 0.5626 0.53379 0.94498 0.0
C799 C 0.50196 0.55966 0.92888 0.0
O800 O 0.55855 0.44029 0.00804 0.0
O801 O 0.58926 0.47774 0.01728 0.0
O802 O 0.51808 0.48933 0.9752 0.0
O803 O 0.51827 0.46009 0.00473 0.0
Co804 Co 0.0787 0.48712 0.50894 0.0
Co805 Co 0.06839 0.4876 0.45497 0.0
Co806 Co 1.03177 0.5172 0.50659 0.0
O807 O 0.04734 0.48776 0.4927 0.0
H808 H 0.03375 0.47169 0.4935 0.0
O809 O 1.0161 0.54659 0.52056 0.0
Co810 Co 0.98471 0.54707 0.50416 0.0
Co811 Co 0.99468 0.54646 0.55814 0.0
H812 H 1.02956 0.56261 0.5199 0.0
O813 O 0.06948 0.45726 0.43091 0.0
O814 O 0.09761 0.48006 0.4656 0.0
O815 O 0.07844 0.51924 0.43763 0.0
O816 O 0.05448 0.5393 0.4732 0.0
O817 O 1.00415 0.50029 0.47745 0.0
O818 O 0.95797 0.54977 0.48714 0.0
O819 O 0.99458 0.58065 0.4996 0.0
O820 O 0.97057 0.51163 0.50547 0.0
O821 O 1.00915 0.4951 0.53995 0.0
O822 O 0.98439 0.51459 0.57511 0.0
O823 O 0.9656 0.55412 0.54736 0.0
O824 O 0.99348 0.57673 0.58239 0.0
C825 C 0.09118 0.46083 0.52551 0.0
C826 C 0.08416 0.53779 0.52836 0.0
C827 C 0.07129 0.53889 0.44869 0.0
C828 C 0.09094 0.46085 0.4438 0.0
C829 C 0.97219 0.57325 0.48739 0.0
C830 C 0.97937 0.49629 0.48518 0.0
C831 C 0.99199 0.49517 0.56414 0.0
C832 C 0.97214 0.57323 0.56931 0.0
O833 O 0.10547 0.4843 0.52578 0.0
O834 O 0.06876 0.45352 0.51339 0.0
O835 O 0.05937 0.53406 0.53575 0.0
O836 O 0.0929 0.52257 0.50779 0.0
Co837 Co 0.5756 0.98336 0.50635 0.0
Co838 Co 0.56358 0.98378 0.45267 0.0
Co839 Co 0.53078 1.01671 0.50554 0.0
O840 O 0.54431 0.98596 0.49171 0.0
H841 H 0.53003 0.97053 0.49347 0.0
O842 O 0.51711 0.04735 0.5192 0.0
Co843 Co 0.4854 0.04931 0.50484 0.0
Co844 Co 0.4981 0.04979 0.55829 0.0
H845 H 0.53128 0.06285 0.51709 0.0
O846 O 0.56411 0.95284 0.4291 0.0
O847 O 0.59305 0.9761 0.46246 0.0
O848 O 0.57403 1.01477 0.43404 0.0
O849 O 0.55348 0.03724 0.47086 0.0
O850 O 0.50178 1.00054 0.47803 0.0
O851 O 0.45826 0.05385 0.49001 0.0
O852 O 0.49701 0.0826 0.49977 0.0
O853 O 0.46958 1.01395 0.50664 0.0
O854 O 0.50823 0.9963 0.54035 0.0
O855 O 0.4879 0.01891 0.57725 0.0
O856 O 0.46839 0.0573 0.54892 0.0
O857 O 0.49798 0.08106 0.58125 0.0
C858 C 0.58678 0.95521 0.52071 0.0
C859 C 0.58424 0.03532 0.52476 0.0
C860 C 0.5688 0.03533 0.44532 0.0
C861 C 0.58603 0.95669 0.44111 0.0
C862 C 0.4739 0.07682 0.48962 0.0
C863 C 0.47725 0.99761 0.48676 0.0
C864 C 0.4931 0.99832 0.56603 0.0
C865 C 0.4758 0.07702 0.56977 0.0
O866 O 0.60231 0.97828 0.52142 0.0
O867 O 0.56383 0.94982 0.51023 0.0
O868 O 0.55975 0.03292 0.53312 0.0
O869 O 0.59172 0.01866 0.50531 0.0
H870 H 0.26148 0.1935 0.29553 0.0
H871 H 0.23203 0.15772 0.32178 0.0
H872 H 0.16917 0.19277 0.33351 0.0
H873 H 0.19819 0.22797 0.30622 0.0
H874 H 0.20796 0.15442 0.37862 0.0
H875 H 0.13149 0.12383 0.29673 0.0
H876 H 0.16278 0.1469 0.28803 0.0
H877 H 0.13625 0.1563 0.31246 0.0
C878 C 0.24128 0.1934 0.30348 0.0
C879 C 0.23198 0.21329 0.29842 0.0
C880 C 0.22448 0.17298 0.31851 0.0
C881 C 0.19815 0.17219 0.32906 0.0
C882 C 0.18908 0.19242 0.32466 0.0
H883 H 0.09559 0.08417 0.47182 0.0
H884 H 0.13044 0.11494 0.44322 0.0
C885 C 0.20572 0.21261 0.30916 0.0
C886 C 0.18039 0.15062 0.34544 0.0
H887 H 0.11929 0.10774 0.34667 0.0
C888 C 0.18867 0.14402 0.37142 0.0
C889 C 0.15542 0.13665 0.33577 0.0
C890 C 0.1461 0.1411 0.30651 0.0
C891 C 0.17243 0.12436 0.38844 0.0
C892 C 0.14677 0.11148 0.37997 0.0
C893 C 0.1388 0.1177 0.3535 0.0
C894 C 0.12759 0.09177 0.39822 0.0
C895 C 0.18322 0.11739 0.41493 0.0
C896 C 0.11405 0.06849 0.38261 0.0
C897 C 0.09364 0.05117 0.39879 0.0
C898 C 0.08658 0.05656 0.43107 0.0
C899 C 0.10091 0.07929 0.44705 0.0
C900 C 0.12095 0.09689 0.4307 0.0
H901 H 0.2051 0.12223 0.41119 0.0
H902 H 0.17786 0.1283 0.43723 0.0
H903 H 0.17514 0.09688 0.41749 0.0
H904 H 0.11874 0.06401 0.35762 0.0
H905 H 0.0829 0.03382 0.38587 0.0
H906 H 0.87996 0.17476 0.29574 0.0
H907 H 0.91291 0.16041 0.31526 0.0
H908 H 0.86362 0.14858 0.40303 0.0
H909 H 0.83069 0.16335 0.38395 0.0
H910 H 0.9236 0.17357 0.4045 0.0
H911 H 0.893 0.08237 0.32767 0.0
H912 H 0.90062 0.11125 0.30992 0.0
H913 H 0.87218 0.10307 0.33819 0.0
C914 C 0.87633 0.16953 0.31941 0.0
C915 C 0.85266 0.17001 0.33827 0.0
C916 C 0.89514 0.16132 0.33045 0.0
C917 C 0.89059 0.15347 0.3605 0.0
C918 C 0.86744 0.15468 0.3798 0.0
H919 H 0.9402 0.04519 0.43234 0.0
H920 H 0.91835 0.07222 0.41468 0.0
C921 C 0.84856 0.16282 0.36874 0.0
C922 C 0.90874 0.14175 0.37072 0.0
H923 H 0.92591 0.08694 0.35981 0.0
C924 C 0.92432 0.15468 0.39477 0.0
C925 C 0.90955 0.11721 0.35772 0.0
C926 C 0.89289 0.10248 0.33205 0.0
C927 C 0.94023 0.14326 0.40693 0.0
C928 C 0.94035 0.11828 0.39458 0.0
C929 C 0.92551 0.10591 0.36961 0.0
C930 C 0.95384 0.10351 0.40837 0.0
C931 C 0.95595 0.15777 0.43346 0.0
C932 C 0.98099 0.11228 0.41155 0.0
C933 C 0.99334 0.09708 0.42283 0.0
C934 C 0.97889 0.07258 0.42975 0.0
C935 C 0.95183 0.06389 0.42662 0.0
C936 C 0.93935 0.07935 0.41658 0.0
H937 H 0.94845 0.17368 0.44543 0.0
H938 H 0.95564 0.14522 0.4511 0.0
H939 H 0.97674 0.16595 0.42388 0.0
H940 H 0.99277 0.13053 0.40463 0.0
H941 H 1.01429 0.10406 0.425 0.0
H942 H 0.83202 0.85245 0.29966 0.0
H943 H 0.86672 0.8789 0.33141 0.0
H944 H 0.88469 0.81222 0.34854 0.0
H945 H 0.85081 0.7858 0.31592 0.0
H946 H 0.87208 0.88024 0.39269 0.0
H947 H 0.9575 0.85559 0.32126 0.0
H948 H 0.92559 0.84744 0.30716 0.0
H949 H 0.93184 0.82848 0.33352 0.0
C950 C 0.84372 0.84342 0.30959 0.0
C951 C 0.83888 0.81695 0.30453 0.0
C952 C 0.86345 0.85859 0.32805 0.0
C953 C 0.87887 0.84774 0.34198 0.0
C954 C 0.87372 0.82127 0.33743 0.0
H955 H 1.00378 0.91318 0.46834 0.0
H956 H 0.96921 0.88386 0.43799 0.0
C957 C 0.85409 0.8061 0.31889 0.0
C958 C 0.89968 0.864 0.36202 0.0
H959 H 0.96546 0.87943 0.37095 0.0
C960 C 0.8925 0.88008 0.38781 0.0
C961 C 0.92643 0.86386 0.35592 0.0
C962 C 0.93591 0.84811 0.3278 0.0
C963 C 0.9111 0.89574 0.4076 0.0
C964 C 0.93781 0.89566 0.40142 0.0
C965 C 0.94499 0.87942 0.37588 0.0
C966 C 0.95875 0.91327 0.42018 0.0
C967 C 0.90193 0.9121 0.43526 0.0
C968 C 0.96466 0.93954 0.42009 0.0
C969 C 0.98442 0.95626 0.43718 0.0
C970 C 0.99894 0.94723 0.45497 0.0
C971 C 0.99303 0.92086 0.45504 0.0
C972 C 0.97328 0.90406 0.43764 0.0
H973 H 0.88026 0.90523 0.44165 0.0
H974 H 0.91202 0.9127 0.45607 0.0
H975 H 0.90675 0.93172 0.42914 0.0
H976 H 0.95411 0.94718 0.40647 0.0
H977 H 0.98828 0.97638 0.43641 0.0
H978 H 0.23403 0.83763 0.37578 0.0
H979 H 0.24625 0.86983 0.41845 0.0
H980 H 0.17398 0.83518 0.47418 0.0
H981 H 0.16353 0.80043 0.43369 0.0
H982 H 0.22113 0.89935 0.4238 0.0
H983 H 0.20836 0.87705 0.54344 0.0
H984 H 0.21466 0.8542 0.51129 0.0
H985 H 0.18122 0.85384 0.52697 0.0
C986 C 0.22105 0.83558 0.3974 0.0
C987 C 0.19627 0.81692 0.39969 0.0
C988 C 0.22833 0.85448 0.42218 0.0
C989 C 0.21058 0.85594 0.44919 0.0
C990 C 0.18819 0.83509 0.45364 0.0
H991 H 0.10014 0.91141 0.48356 0.0
H992 H 0.13738 0.89459 0.48146 0.0
C993 C 0.18157 0.81542 0.42951 0.0
C994 C 0.21053 0.88113 0.46653 0.0
H995 H 0.17906 0.90411 0.53338 0.0
C996 C 0.21315 0.90078 0.44828 0.0
C997 C 0.20096 0.88408 0.49872 0.0
C998 C 0.20151 0.86615 0.52112 0.0
C999 C 0.20169 0.92028 0.45948 0.0
C1000 C 0.18733 0.92002 0.48949 0.0
C1001 C 0.18902 0.90339 0.50975 0.0
C1002 C 0.16487 0.93069 0.49549 0.0
C1003 C 0.20169 0.93885 0.43757 0.0
C1004 C 0.1682 0.95661 0.50386 0.0
C1005 C 0.14696 0.96642 0.50454 0.0
C1006 C 0.12221 0.95036 0.49688 0.0
C1007 C 0.11895 0.92432 0.48929 0.0
C1008 C 0.14013 0.91464 0.48843 0.0
H1009 H 0.21629 0.9385 0.41653 0.0
H1010 H 0.18178 0.93415 0.42967 0.0
H1011 H 0.20625 0.95835 0.44999 0.0
H1012 H 0.1873 0.96927 0.50896 0.0
H1013 H 0.15 0.98656 0.51077 0.0
H1014 H 0.24695 0.87393 0.61958 0.0
H1015 H 0.21554 0.88966 0.59882 0.0
H1016 H 0.15981 0.8703 0.68022 0.0
H1017 H 0.1913 0.85555 0.70182 0.0
H1018 H 0.15822 0.86387 0.58815 0.0
H1019 H 0.17605 0.94859 0.67733 0.0
H1020 H 0.19837 0.92932 0.6679 0.0
H1021 H 0.16773 0.91833 0.69192 0.0
C1022 C 0.22802 0.87304 0.63308 0.0
C1023 C 0.22171 0.86361 0.66244 0.0
C1024 C 0.21 0.8817 0.62098 0.0
C1025 C 0.18543 0.88103 0.638 0.0
C1026 C 0.17871 0.87092 0.66678 0.0
H1027 H 0.05917 0.9252 0.57247 0.0
H1028 H 0.08364 0.89952 0.58911 0.0
C1029 C 0.19671 0.86238 0.67897 0.0
C1030 C 0.16769 0.89281 0.62699 0.0
H1031 H 0.14422 0.94408 0.64346 0.0
C1032 C 0.15509 0.88143 0.60008 0.0
C1033 C 0.1637 0.91561 0.64282 0.0
C1034 C 0.17726 0.92887 0.67149 0.0
C1035 C 0.1387 0.89252 0.58829 0.0
C1036 C 0.13503 0.91563 0.6039 0.0
C1037 C 0.14725 0.92656 0.63125 0.0
C1038 C 0.12011 0.92999 0.59173 0.0
C1039 C 0.12597 0.87954 0.55905 0.0
C1040 C 0.13222 0.95569 0.5882 0.0
C1041 C 0.118 0.97048 0.58013 0.0
C1042 C 0.09155 0.95976 0.57449 0.0
C1043 C 0.07959 0.93384 0.57672 0.0
C1044 C 0.09364 0.91913 0.58587 0.0
H1045 H 0.13695 0.86689 0.54487 0.0
H1046 H 0.10568 0.86772 0.56591 0.0
H1047 H 0.12467 0.89346 0.54415 0.0
H1048 H 0.15266 0.96449 0.59227 0.0
H1049 H 0.12785 0.99032 0.578 0.0
H1050 H 0.23047 0.18221 0.71382 0.0
H1051 H 0.19611 0.15551 0.68173 0.0
H1052 H 0.17861 0.22189 0.66278 0.0
H1053 H 0.21259 0.2487 0.69522 0.0
H1054 H 0.14098 0.1513 0.68856 0.0
H1055 H 0.19019 0.18473 0.57439 0.0
H1056 H 0.20757 0.1903 0.60862 0.0
H1057 H 0.18653 0.20921 0.60532 0.0
C1058 C 0.21908 0.19117 0.70326 0.0
C1059 C 0.22419 0.21769 0.7076 0.0
C1060 C 0.19952 0.17584 0.68465 0.0
C1061 C 0.18486 0.18662 0.66944 0.0
C1062 C 0.18987 0.21307 0.67376 0.0
H1063 H 0.06136 0.1195 0.54157 0.0
H1064 H 0.09424 0.14902 0.57396 0.0
C1065 C 0.2093 0.22839 0.69252 0.0
C1066 C 0.16409 0.17016 0.64954 0.0
H1067 H 0.14698 0.15666 0.57438 0.0
C1068 C 0.14234 0.15245 0.66358 0.0
C1069 C 0.16562 0.17174 0.61694 0.0
C1070 C 0.18881 0.18985 0.60025 0.0
C1071 C 0.12211 0.13651 0.64615 0.0
C1072 C 0.12387 0.13767 0.61337 0.0
C1073 C 0.14549 0.15563 0.5994 0.0
C1074 C 0.10401 0.11983 0.59316 0.0
C1075 C 0.09873 0.11891 0.66328 0.0
C1076 C 0.09881 0.09353 0.59242 0.0
C1077 C 0.07996 0.07668 0.57414 0.0
C1078 C 0.06589 0.08555 0.55561 0.0
C1079 C 0.07162 0.11192 0.55561 0.0
C1080 C 0.09047 0.12885 0.57415 0.0
H1081 H 0.09608 0.12595 0.6886 0.0
H1082 H 0.08024 0.11655 0.65297 0.0
H1083 H 0.10205 0.10006 0.66161 0.0
H1084 H 0.10944 0.08592 0.60595 0.0
H1085 H 0.07652 0.05656 0.57454 0.0
H1086 H 0.83306 0.19462 0.63961 0.0
H1087 H 0.82096 0.163 0.59597 0.0
H1088 H 0.89602 0.19478 0.54385 0.0
H1089 H 0.90672 0.22929 0.58508 0.0
H1090 H 0.86412 0.16533 0.50486 0.0
H1091 H 0.85307 0.1111 0.60704 0.0
H1092 H 0.82886 0.12677 0.60512 0.0
H1093 H 0.86192 0.14503 0.6128 0.0
C1094 C 0.84686 0.19606 0.61865 0.0
C1095 C 0.87228 0.2138 0.61752 0.0
C1096 C 0.83978 0.17739 0.59355 0.0
C1097 C 0.85847 0.17515 0.56785 0.0
C1098 C 0.88159 0.19533 0.56414 0.0
H1099 H 0.96875 0.12132 0.50315 0.0
H1100 H 0.93141 0.13809 0.50521 0.0
C1101 C 0.88811 0.21482 0.58844 0.0
C1102 C 0.85773 0.15031 0.5493 0.0
H1103 H 0.87094 0.09619 0.55949 0.0
C1104 C 0.86475 0.14978 0.51668 0.0
C1105 C 0.85768 0.12936 0.56435 0.0
C1106 C 0.85004 0.12795 0.5992 0.0
C1107 C 0.87609 0.13139 0.50001 0.0
C1108 C 0.88 0.11305 0.51635 0.0
C1109 C 0.86839 0.11073 0.54729 0.0
C1110 C 0.90182 0.10165 0.50615 0.0
C1111 C 0.88592 0.13328 0.46585 0.0
C1112 C 0.89759 0.07556 0.50586 0.0
C1113 C 0.91895 0.06596 0.50508 0.0
C1114 C 0.94477 0.0824 0.50518 0.0
C1115 C 0.94903 0.10829 0.50375 0.0
C1116 C 0.92774 0.11781 0.50419 0.0
H1117 H 0.87016 0.13519 0.45326 0.0
H1118 H 0.90262 0.15073 0.46379 0.0
H1119 H 0.89232 0.11664 0.45427 0.0
H1120 H 0.87772 0.06286 0.50794 0.0
H1121 H 0.91512 0.04584 0.50578 0.0
H1122 H 0.86442 0.80286 0.70242 0.0
H1123 H 0.89397 0.83726 0.67408 0.0
H1124 H 0.83098 0.8716 0.68059 0.0
H1125 H 0.80101 0.83645 0.70744 0.0
H1126 H 0.85675 0.87541 0.62546 0.0
H1127 H 0.93046 0.90617 0.71075 0.0
H1128 H 0.92631 0.87375 0.69519 0.0
H1129 H 0.89911 0.88292 0.71835 0.0
C1130 C 0.85694 0.8178 0.69782 0.0
C1131 C 0.83051 0.81711 0.7073 0.0
C1132 C 0.87389 0.83757 0.68183 0.0
C1133 C 0.865 0.85751 0.6759 0.0
C1134 C 0.83843 0.85659 0.685 0.0
H1135 H 0.98228 0.9962 0.62324 0.0
H1136 H 0.94573 0.96575 0.65025 0.0
C1137 C 0.8213 0.8365 0.70036 0.0
C1138 C 0.88326 0.87909 0.65987 0.0
H1139 H 0.94414 0.92223 0.66096 0.0
C1140 C 0.87576 0.88582 0.63343 0.0
C1141 C 0.90785 0.89317 0.67057 0.0
C1142 C 0.91626 0.88882 0.70047 0.0
C1143 C 0.89236 0.90572 0.61702 0.0
C1144 C 0.9177 0.91865 0.62648 0.0
C1145 C 0.9249 0.91226 0.65334 0.0
C1146 C 0.93731 0.93864 0.60895 0.0
C1147 C 0.8822 0.91292 0.59018 0.0
C1148 C 0.94444 0.93404 0.57649 0.0
C1149 C 0.96481 0.95186 0.56084 0.0
C1150 C 0.97904 0.97425 0.57754 0.0
C1151 C 0.97158 0.97912 0.6098 0.0
C1152 C 0.95078 0.96163 0.62526 0.0
H1153 H 0.86032 0.90812 0.59335 0.0
H1154 H 0.89041 0.93346 0.58785 0.0
H1155 H 0.88789 0.9021 0.56798 0.0
H1156 H 0.93509 0.91621 0.56342 0.0
H1157 H 0.97047 0.94739 0.53607 0.0
H1158 H 0.36119 0.24794 0.21422 0.0
H1159 H 0.38495 0.21816 0.18726 0.0
H1160 H 0.31107 0.16282 0.16908 0.0
H1161 H 0.28718 0.19219 0.1972 0.0
H1162 H 0.38158 0.16876 0.20093 0.0
H1163 H 0.3536 0.16391 0.08139 0.0
H1164 H 0.34996 0.18878 0.11212 0.0
H1165 H 0.32677 0.15781 0.11222 0.0
C1166 C 0.34989 0.22933 0.20501 0.0
C1167 C 0.32209 0.22265 0.20847 0.0
C1168 C 0.36359 0.21228 0.18918 0.0
C1169 C 0.35004 0.18807 0.17558 0.0
C1170 C 0.32226 0.18139 0.17872 0.0
H1171 H 0.41405 0.06611 0.06451 0.0
H1172 H 0.3837 0.09027 0.09141 0.0
C1173 C 0.30853 0.19833 0.19495 0.0
C1174 C 0.36502 0.16978 0.15912 0.0
H1175 H 0.37902 0.13736 0.08774 0.0
C1176 C 0.38094 0.16194 0.17617 0.0
C1177 C 0.36414 0.16032 0.12682 0.0
C1178 C 0.34789 0.1682 0.10687 0.0
C1179 C 0.39581 0.14525 0.16214 0.0
C1180 C 0.39579 0.1365 0.12953 0.0
C1181 C 0.37936 0.14388 0.11258 0.0
C1182 C 0.41392 0.12117 0.11258 0.0
C1183 C 0.41105 0.1368 0.18283 0.0
C1184 C 0.44122 0.13027 0.11465 0.0
C1185 C 0.45845 0.11644 0.09957 0.0
C1186 C 0.44931 0.09293 0.0813 0.0
C1187 C 0.42197 0.08387 0.07859 0.0
C1188 C 0.40456 0.09784 0.09393 0.0
H1189 H 0.40188 0.13733 0.20758 0.0
H1190 H 0.41224 0.1173 0.17462 0.0
H1191 H 0.43137 0.14988 0.18253 0.0
H1192 H 0.44945 0.14842 0.12781 0.0
H1193 H 0.47926 0.12453 0.10214 0.0
H1194 H 0.79965 0.31147 0.16297 0.0
H1195 H 0.83035 0.34461 0.13267 0.0
H1196 H 0.88022 0.36802 0.20764 0.0
H1197 H 0.84959 0.33579 0.23808 0.0
H1198 H 0.8558 0.40437 0.15839 0.0
H1199 H 0.92337 0.34444 0.11963 0.0
H1200 H 0.88837 0.33115 0.13001 0.0
H1201 H 0.90963 0.34553 0.16018 0.0
C1202 C 0.81703 0.3239 0.17302 0.0
C1203 C 0.82256 0.32066 0.20256 0.0
C1204 C 0.8345 0.34277 0.15575 0.0
C1205 C 0.85764 0.35855 0.16787 0.0
C1206 C 0.86259 0.3559 0.19779 0.0
H1207 H 1.00641 0.46213 0.1117 0.0
H1208 H 0.96777 0.43323 0.13755 0.0
C1209 C 0.84519 0.33727 0.215 0.0
C1210 C 0.87765 0.37702 0.14904 0.0
H1211 H 0.93977 0.38743 0.11052 0.0
C1212 C 0.87405 0.40065 0.14748 0.0
C1213 C 0.90144 0.3721 0.13515 0.0
C1214 C 0.90606 0.3469 0.13603 0.0
C1215 C 0.89414 0.41988 0.13329 0.0
C1216 C 0.91824 0.41512 0.11995 0.0
C1217 C 0.9214 0.39117 0.12084 0.0
C1218 C 0.94087 0.43476 0.10579 0.0
C1219 C 0.88984 0.44543 0.13388 0.0
C1220 C 0.93862 0.44561 0.07954 0.0
C1221 C 0.96073 0.46236 0.06478 0.0
C1222 C 0.98564 0.46838 0.07575 0.0
C1223 C 0.98762 0.45797 0.10256 0.0
C1224 C 0.96551 0.44137 0.11736 0.0
H1225 H 0.87325 0.44793 0.15155 0.0
H1226 H 0.90793 0.46093 0.13917 0.0
H1227 H 0.88503 0.44722 0.11048 0.0
H1228 H 0.91999 0.44044 0.06975 0.0
H1229 H 0.95848 0.46978 0.04401 0.0
H1230 H 0.69754 0.82145 0.1419 0.0
H1231 H 0.67233 0.82917 0.10324 0.0
H1232 H 0.70858 0.90952 0.12198 0.0
H1233 H 0.73354 0.90199 0.16044 0.0
H1234 H 0.63666 0.86121 0.11828 0.0
H1235 H 0.71634 0.89468 0.02411 0.0
H1236 H 0.71919 0.87539 0.0526 0.0
H1237 H 0.72465 0.90892 0.06268 0.0
C1238 C 0.70033 0.8407 0.13737 0.0
C1239 C 0.71739 0.86115 0.15422 0.0
C1240 C 0.68593 0.84507 0.11538 0.0
C1241 C 0.68888 0.86989 0.10948 0.0
C1242 C 0.70633 0.8902 0.12582 0.0
H1243 H 0.63458 0.9749 0.0525 0.0
H1244 H 0.65756 0.94641 0.06374 0.0
C1245 C 0.7204 0.8859 0.14798 0.0
C1246 C 0.67243 0.87523 0.08827 0.0
H1247 H 0.67769 0.90897 0.02709 0.0
C1248 C 0.64536 0.87099 0.09774 0.0
C1249 C 0.68388 0.88785 0.06145 0.0
C1250 C 0.71258 0.89178 0.04938 0.0
C1251 C 0.62996 0.88119 0.08288 0.0
C1252 C 0.64195 0.89562 0.05759 0.0
C1253 C 0.66852 0.89798 0.04651 0.0
C1254 C 0.62892 0.91218 0.04651 0.0
C1255 C 0.60159 0.87829 0.09602 0.0
C1256 C 0.60549 0.90246 0.03206 0.0
C1257 C 0.59208 0.91887 0.02562 0.0
C1258 C 0.60193 0.94517 0.03368 0.0
C1259 C 0.62616 0.95475 0.04643 0.0
C1260 C 0.63947 0.93847 0.05274 0.0
H1261 H 0.59617 0.86888 0.11787 0.0
H1262 H 0.59787 0.89709 0.10115 0.0
H1263 H 0.58843 0.86672 0.07838 0.0
H1264 H 0.59725 0.88223 0.02654 0.0
H1265 H 0.57361 0.91094 0.01543 0.0
H1266 H 0.19194 0.73012 0.224 0.0
H1267 H 0.16354 0.69773 0.19008 0.0
H1268 H 0.23177 0.6816 0.1351 0.0
H1269 H 0.26065 0.71446 0.16882 0.0
H1270 H 0.19397 0.68524 0.09868 0.0
H1271 H 0.14753 0.62116 0.19017 0.0
H1272 H 0.14586 0.65291 0.20216 0.0
H1273 H 0.17745 0.6468 0.19463 0.0
C1274 C 0.20106 0.7198 0.20469 0.0
C1275 C 0.22866 0.72487 0.19929 0.0
C1276 C 0.18471 0.70111 0.18544 0.0
C1277 C 0.1955 0.68691 0.16045 0.0
C1278 C 0.22303 0.69221 0.15446 0.0
H1279 H 0.08971 0.5528 0.06488 0.0
H1280 H 0.127 0.58085 0.09141 0.0
C1281 C 0.23949 0.71098 0.17377 0.0
C1282 C 0.1778 0.66688 0.14046 0.0
H1283 H 0.1252 0.61378 0.14416 0.0
C1284 C 0.17914 0.66943 0.10849 0.0
C1285 C 0.15876 0.64601 0.15316 0.0
C1286 C 0.15744 0.64135 0.18684 0.0
C1287 C 0.16108 0.65234 0.08925 0.0
C1288 C 0.14093 0.63244 0.10249 0.0
C1289 C 0.14044 0.6292 0.13408 0.0
C1290 C 0.11942 0.61548 0.08451 0.0
C1291 C 0.16372 0.65581 0.05495 0.0
C1292 C 0.10268 0.62559 0.07191 0.0
C1293 C 0.08138 0.60965 0.05672 0.0
C1294 C 0.07618 0.58317 0.05403 0.0
C1295 C 0.0931 0.57308 0.06651 0.0
C1296 C 0.11445 0.58908 0.08168 0.0
H1297 H 0.18426 0.66621 0.04652 0.0
H1298 H 0.15789 0.63732 0.04021 0.0
H1299 H 0.15067 0.66709 0.05165 0.0
H1300 H 0.1057 0.64585 0.07448 0.0
H1301 H 0.06873 0.61812 0.04757 0.0
H1302 H 0.32184 0.78572 0.85555 0.0
H1303 H 0.35255 0.81646 0.88938 0.0
H1304 H 0.35701 0.87513 0.83287 0.0
H1305 H 0.3265 0.84468 0.79912 0.0
H1306 H 0.40686 0.86793 0.84088 0.0
H1307 H 0.34485 0.87855 0.9542 0.0
H1308 H 0.34216 0.84666 0.93647 0.0
H1309 H 0.33102 0.86721 0.9173 0.0
C1310 C 0.32901 0.80529 0.85073 0.0
C1311 C 0.32195 0.81271 0.82448 0.0
C1312 C 0.34647 0.82283 0.87011 0.0
C1313 C 0.357 0.84809 0.86366 0.0
C1314 C 0.34908 0.85574 0.83829 0.0
H1315 H 0.46803 0.97948 0.95436 0.0
H1316 H 0.43004 0.95067 0.92941 0.0
C1317 C 0.33156 0.8383 0.81906 0.0
C1318 C 0.37804 0.86601 0.88148 0.0
H1319 H 0.39101 0.89803 0.95383 0.0
C1320 C 0.40337 0.87459 0.86554 0.0
C1321 C 0.3734 0.87468 0.91361 0.0
C1322 C 0.34637 0.86651 0.9315 0.0
C1323 C 0.42427 0.89134 0.88099 0.0
C1324 C 0.41975 0.89975 0.91319 0.0
C1325 C 0.39438 0.89146 0.92913 0.0
C1326 C 0.44149 0.9169 0.93052 0.0
C1327 C 0.45116 0.89999 0.86289 0.0
C1328 C 0.46023 0.90735 0.93975 0.0
C1329 C 0.48188 0.92368 0.95405 0.0
C1330 C 0.48534 0.94998 0.95922 0.0
C1331 C 0.46612 0.9594 0.95054 0.0
C1332 C 0.44434 0.94297 0.93641 0.0
H1333 H 0.45074 0.89408 0.83726 0.0
H1334 H 0.45906 0.92093 0.86684 0.0
H1335 H 0.46496 0.89183 0.87148 0.0
H1336 H 0.45834 0.88728 0.93537 0.0
H1337 H 0.4962 0.91569 0.96042 0.0
H1338 H 0.26921 0.3454 0.79949 0.0
H1339 H 0.24281 0.37227 0.82834 0.0
H1340 H 0.17578 0.30634 0.83838 0.0
H1341 H 0.20216 0.27946 0.80967 0.0
H1342 H 0.20035 0.38324 0.81814 0.0
H1343 H 0.1739 0.33712 0.92733 0.0
H1344 H 0.1983 0.33015 0.89675 0.0
H1345 H 0.16371 0.31513 0.89371 0.0
C1346 C 0.2488 0.33656 0.80765 0.0
C1347 C 0.23798 0.31008 0.80199 0.0
C1348 C 0.23364 0.35204 0.82441 0.0
C1349 C 0.20714 0.34162 0.8364 0.0
C1350 C 0.19625 0.31514 0.83044 0.0
H1351 H 0.07698 0.39943 0.92942 0.0
H1352 H 0.10636 0.37481 0.90315 0.0
C1353 C 0.21142 0.29966 0.81372 0.0
C1354 C 0.19091 0.35842 0.85432 0.0
H1355 H 0.15012 0.3659 0.92203 0.0
C1356 C 0.1896 0.37948 0.84099 0.0
C1357 C 0.17672 0.35397 0.88437 0.0
C1358 C 0.17841 0.33304 0.90155 0.0
C1359 C 0.17415 0.39541 0.8561 0.0
C1360 C 0.15956 0.39064 0.88581 0.0
C1361 C 0.16107 0.36976 0.8993 0.0
C1362 C 0.14185 0.40635 0.90263 0.0
C1363 C 0.17292 0.41684 0.83955 0.0
C1364 C 0.15167 0.43258 0.91195 0.0
C1365 C 0.13472 0.44691 0.92736 0.0
C1366 C 0.10737 0.43547 0.93377 0.0
C1367 C 0.09777 0.40918 0.92477 0.0
C1368 C 0.11467 0.39491 0.9097 0.0
H1369 H 0.18019 0.41462 0.8142 0.0
H1370 H 0.15242 0.41813 0.84185 0.0
H1371 H 0.18545 0.43496 0.85044 0.0
H1372 H 0.17254 0.44203 0.9075 0.0
H1373 H 0.14303 0.46698 0.93404 0.0
H1374 H 0.718 0.1974 0.76509 0.0
H1375 H 0.68842 0.16455 0.79617 0.0
H1376 H 0.7297 0.19969 0.877 0.0
H1377 H 0.75938 0.23257 0.84585 0.0
H1378 H 0.70371 0.13045 0.83392 0.0
H1379 H 0.64857 0.19433 0.90343 0.0
H1380 H 0.66734 0.20116 0.86595 0.0
H1381 H 0.68404 0.2056 0.9002 0.0
C1382 C 0.7206 0.19817 0.78954 0.0
C1383 C 0.74083 0.21751 0.80318 0.0
C1384 C 0.70388 0.17931 0.80718 0.0
C1385 C 0.7068 0.17974 0.83891 0.0
C1386 C 0.72702 0.19909 0.85259 0.0
H1387 H 0.60268 0.09486 0.98455 0.0
H1388 H 0.641 0.12225 0.95565 0.0
C1389 C 0.74393 0.21781 0.83484 0.0
C1390 C 0.68815 0.16039 0.8579 0.0
H1391 H 0.63656 0.15249 0.91585 0.0
C1392 C 0.68904 0.13521 0.85191 0.0
C1393 C 0.66912 0.16669 0.88138 0.0
C1394 C 0.66693 0.19335 0.88816 0.0
C1395 C 0.67144 0.11615 0.86897 0.0
C1396 C 0.65205 0.12236 0.89215 0.0
C1397 C 0.65143 0.14766 0.89823 0.0
C1398 C 0.63154 0.10302 0.90974 0.0
C1399 C 0.67407 0.08966 0.86233 0.0
C1400 C 0.61375 0.0826 0.89373 0.0
C1401 C 0.59197 0.0668 0.91031 0.0
C1402 C 0.58765 0.07115 0.94313 0.0
C1403 C 0.60596 0.09083 0.95926 0.0
C1404 C 0.62773 0.10658 0.94273 0.0
H1405 H 0.6943 0.08967 0.85174 0.0
H1406 H 0.66938 0.08016 0.88407 0.0
H1407 H 0.66011 0.07839 0.84538 0.0
H1408 H 0.61579 0.07975 0.86832 0.0
H1409 H 0.57771 0.05213 0.8974 0.0
H1410 H 0.93603 0.73518 0.84132 0.0
H1411 H 0.9478 0.71082 0.87626 0.0
H1412 H 0.86549 0.67745 0.90576 0.0
H1413 H 0.85339 0.7015 0.87036 0.0
H1414 H 0.91052 0.69674 0.9557 0.0
H1415 H 0.92269 0.62788 0.85115 0.0
H1416 H 0.9362 0.66113 0.84693 0.0
H1417 H 0.90114 0.64758 0.85324 0.0
C1418 C 0.92039 0.72279 0.85536 0.0
C1419 C 0.89375 0.72001 0.85271 0.0
C1420 C 0.92718 0.70909 0.87552 0.0
C1421 C 0.90751 0.69241 0.89352 0.0
C1422 C 0.88093 0.69043 0.89219 0.0
H1423 H 0.92721 0.56314 0.96212 0.0
H1424 H 0.90816 0.59338 0.94673 0.0
C1425 C 0.87407 0.70417 0.87196 0.0
C1426 C 0.91481 0.67504 0.91074 0.0
H1427 H 0.93524 0.62185 0.8984 0.0
C1428 C 0.91581 0.68027 0.94333 0.0
C1429 C 0.92151 0.65356 0.89446 0.0
C1430 C 0.92027 0.64696 0.85952 0.0
C1431 C 0.9238 0.66459 0.96002 0.0
C1432 C 0.93112 0.64344 0.94351 0.0
C1433 C 0.92967 0.63811 0.91101 0.0
C1434 C 0.9404 0.62626 0.95899 0.0
C1435 C 0.92412 0.67055 0.99509 0.0
C1436 C 0.96451 0.63481 0.97206 0.0
C1437 C 0.97553 0.61746 0.98098 0.0
C1438 C 0.96273 0.59133 0.97656 0.0
C1439 C 0.9378 0.5831 0.96541 0.0
C1440 C 0.9268 0.60037 0.95669 0.0
H1441 H 0.91231 0.68373 0.00516 0.0
H1442 H 0.91634 0.65297 0.00679 0.0
H1443 H 0.94475 0.67962 1.00047 0.0
H1444 H 0.97551 0.65468 0.97367 0.0
H1445 H 0.99472 0.62439 0.9896 0.0
H1446 H 0.16468 0.3001 0.13944 0.0
H1447 H 0.14431 0.31291 0.09991 0.0
H1448 H 0.19521 0.3892 0.11528 0.0
H1449 H 0.21569 0.37653 0.15425 0.0
H1450 H 0.11765 0.34983 0.11256 0.0
H1451 H 0.20017 0.37607 0.01945 0.0
H1452 H 0.20022 0.35624 0.04871 0.0
H1453 H 0.20968 0.39018 0.05755 0.0
C1454 C 0.17181 0.31947 0.13388 0.0
C1455 C 0.19165 0.33736 0.15004 0.0
C1456 C 0.16016 0.32676 0.11137 0.0
C1457 C 0.16853 0.35191 0.10429 0.0
C1458 C 0.18881 0.36957 0.11984 0.0
H1459 H 0.13056 0.46923 0.0499 0.0
H1460 H 0.14955 0.43742 0.06077 0.0
C1461 C 0.20027 0.36238 0.14241 0.0
C1462 C 0.15452 0.36072 0.0833 0.0
H1463 H 0.16604 0.39714 0.02329 0.0
C1464 C 0.12794 0.35955 0.09245 0.0
C1465 C 0.16797 0.37326 0.05699 0.0
C1466 C 0.19602 0.37379 0.0449 0.0
C1467 C 0.11519 0.37258 0.0778 0.0
C1468 C 0.12933 0.38679 0.05305 0.0
C1469 C 0.15527 0.38631 0.04234 0.0
C1470 C 0.11919 0.40548 0.04186 0.0
C1471 C 0.0874 0.3727 0.09055 0.0
C1472 C 0.09622 0.3981 0.02656 0.0
C1473 C 0.08514 0.41639 0.02035 0.0
C1474 C 0.0969 0.44225 0.02944 0.0
C1475 C 0.12075 0.44949 0.04298 0.0
C1476 C 0.13176 0.43131 0.04908 0.0
H1477 H 0.08038 0.36313 0.11221 0.0
H1478 H 0.08618 0.39244 0.09586 0.0
H1479 H 0.07385 0.36276 0.07261 0.0
H1480 H 0.08646 0.37824 0.02033 0.0
H1481 H 0.06693 0.41022 0.00953 0.0
H1482 H 0.26058 0.68745 0.79082 0.0
H1483 H 0.2285 0.653 0.81748 0.0
H1484 H 0.18924 0.70629 0.86886 0.0
H1485 H 0.222 0.74068 0.84339 0.0
H1486 H 0.19321 0.67185 0.90572 0.0
H1487 H 0.15304 0.62299 0.7944 0.0
H1488 H 0.18784 0.62818 0.79435 0.0
H1489 H 0.17503 0.65479 0.79742 0.0
C1490 C 0.24534 0.69175 0.80826 0.0
C1491 C 0.24328 0.71653 0.81468 0.0
C1492 C 0.22687 0.67208 0.82316 0.0
C1493 C 0.20605 0.67695 0.84459 0.0
C1494 C 0.2049 0.70199 0.85214 0.0
H1495 H 0.05288 0.58078 0.9033 0.0
H1496 H 0.09187 0.60943 0.87784 0.0
C1497 C 0.22339 0.7216 0.83733 0.0
C1498 C 0.18498 0.65604 0.85859 0.0
H1499 H 0.13482 0.60301 0.84019 0.0
C1500 C 0.18053 0.65668 0.89142 0.0
C1501 C 0.16819 0.6365 0.83989 0.0
C1502 C 0.17101 0.63558 0.80458 0.0
C1503 C 0.15965 0.63848 0.90609 0.0
C1504 C 0.14308 0.61871 0.88737 0.0
C1505 C 0.14769 0.61797 0.85452 0.0
C1506 C 0.11974 0.59973 0.9014 0.0
C1507 C 0.15493 0.64124 0.9415 0.0
C1508 C 0.12238 0.58408 0.92246 0.0
C1509 C 0.10002 0.56771 0.93729 0.0
C1510 C 0.07455 0.56643 0.93106 0.0
C1511 C 0.07211 0.58123 0.90876 0.0
C1512 C 0.09443 0.59768 0.89415 0.0
H1513 H 0.16509 0.6606 0.95194 0.0
H1514 H 0.13353 0.63702 0.94965 0.0
H1515 H 0.16269 0.62768 0.95056 0.0
H1516 H 0.14173 0.58483 0.92784 0.0
H1517 H 0.1027 0.55649 0.95416 0.0
H1518 H 0.38448 0.17801 0.82538 0.0
H1519 H 0.40792 0.16801 0.86352 0.0
H1520 H 0.34364 0.17122 0.93544 0.0
H1521 H 0.31945 0.18013 0.89697 0.0
H1522 H 0.42533 0.19063 0.92101 0.0
H1523 H 0.34697 0.09917 0.93321 0.0
H1524 H 0.34839 0.11871 0.90315 0.0
H1525 H 0.33652 0.12732 0.94304 0.0
C1526 C 0.37528 0.17659 0.8493 0.0
C1527 C 0.34983 0.17936 0.85792 0.0
C1528 C 0.38885 0.17114 0.87119 0.0
C1529 C 0.37735 0.16841 0.90221 0.0
C1530 C 0.35269 0.17278 0.91148 0.0
H1531 H 0.47367 0.11931 0.01818 0.0
H1532 H 0.44649 0.1448 0.00678 0.0
C1533 C 0.33899 0.17811 0.8895 0.0
C1534 C 0.39039 0.15884 0.92362 0.0
H1535 H 0.385 0.10581 0.95737 0.0
C1536 C 0.41636 0.17231 0.92957 0.0
C1537 C 0.37865 0.13487 0.93465 0.0
C1538 C 0.35119 0.11901 0.92809 0.0
C1539 C 0.43141 0.16182 0.9446 0.0
C1540 C 0.42004 0.13736 0.95419 0.0
C1541 C 0.39355 0.12465 0.95014 0.0
C1542 C 0.43636 0.12258 0.96252 0.0
C1543 C 0.45988 0.1761 0.94812 0.0
C1544 C 0.43935 0.1016 0.94171 0.0
C1545 C 0.45448 0.08707 0.94818 0.0
C1546 C 0.46719 0.09313 0.97569 0.0
C1547 C 0.46421 0.11419 0.99675 0.0
C1548 C 0.44879 0.1288 0.99023 0.0
H1549 H 0.46626 0.19415 0.93737 0.0
H1550 H 0.46272 0.18049 0.97342 0.0
H1551 H 0.47283 0.16424 0.93702 0.0
H1552 H 0.43004 0.09651 0.92015 0.0
H1553 H 0.45631 0.07111 0.93127 0.0
H1554 H 0.80078 0.32515 0.83325 0.0
H1555 H 0.82869 0.3585 0.86754 0.0
H1556 H 0.89753 0.33831 0.82069 0.0
H1557 H 0.87017 0.30528 0.78644 0.0
H1558 H 0.86469 0.35329 0.90845 0.0
H1559 H 0.91551 0.41557 0.81611 0.0
H1560 H 0.8848 0.39096 0.81159 0.0
H1561 H 0.91551 0.38318 0.80546 0.0
C1562 C 0.82187 0.32784 0.83023 0.0
C1563 C 0.83321 0.31254 0.80702 0.0
C1564 C 0.83774 0.34687 0.84985 0.0
C1565 C 0.86517 0.35105 0.8463 0.0
C1566 C 0.87645 0.33564 0.82345 0.0
H1567 H 0.99065 0.41725 0.96008 0.0
H1568 H 0.9531 0.39032 0.93345 0.0
C1569 C 0.86068 0.31664 0.804 0.0
C1570 C 0.88233 0.37114 0.86663 0.0
H1571 H 0.93614 0.42311 0.8634 0.0
C1572 C 0.88009 0.3688 0.89877 0.0
C1573 C 0.90212 0.39152 0.85399 0.0
C1574 C 0.90454 0.39567 0.81995 0.0
C1575 C 0.89807 0.3856 0.9183 0.0
C1576 C 0.91896 0.40497 0.90517 0.0
C1577 C 0.92029 0.40809 0.87338 0.0
C1578 C 0.94047 0.42137 0.92342 0.0
C1579 C 0.89472 0.3823 0.95271 0.0
C1580 C 0.9461 0.44781 0.92625 0.0
C1581 C 0.96771 0.46332 0.94128 0.0
C1582 C 0.98426 0.45266 0.95355 0.0
C1583 C 0.97832 0.42613 0.95102 0.0
C1584 C 0.95671 0.41066 0.936 0.0
H1585 H 0.87397 0.37224 0.96078 0.0
H1586 H 0.90734 0.37079 0.95661 0.0
H1587 H 0.90067 0.40085 0.9673 0.0
H1588 H 0.93391 0.45646 0.91651 0.0
H1589 H 0.97164 0.48366 0.94284 0.0
H1590 H 0.76971 0.84289 0.80057 0.0
H1591 H 0.74441 0.87037 0.83073 0.0
H1592 H 0.67513 0.8061 0.83652 0.0
H1593 H 0.70069 0.77847 0.80782 0.0
H1594 H 0.70271 0.88348 0.8198 0.0
H1595 H 0.67302 0.8346 0.92682 0.0
H1596 H 0.69769 0.82782 0.89646 0.0
H1597 H 0.66313 0.81355 0.89237 0.0
C1598 C 0.74918 0.8345 0.80865 0.0
C1599 C 0.73743 0.80827 0.80168 0.0
C1600 C 0.73457 0.85036 0.82579 0.0
C1601 C 0.70768 0.84056 0.83669 0.0
C1602 C 0.69588 0.81438 0.82935 0.0
H1603 H 0.5783 0.89896 0.93002 0.0
H1604 H 0.60757 0.87448 0.90308 0.0
C1605 C 0.71052 0.79851 0.81239 0.0
C1606 C 0.69193 0.85767 0.85494 0.0
H1607 H 0.65024 0.86435 0.92206 0.0
C1608 C 0.69147 0.87934 0.8423 0.0
C1609 C 0.67714 0.85272 0.88456 0.0
C1610 C 0.67795 0.83107 0.90103 0.0
C1611 C 0.67619 0.89539 0.85762 0.0
C1612 C 0.66093 0.89008 0.88685 0.0
C1613 C 0.66168 0.86862 0.89969 0.0
C1614 C 0.64326 0.90579 0.90381 0.0
C1615 C 0.67585 0.91751 0.84176 0.0
C1616 C 0.65319 0.93186 0.91399 0.0
C1617 C 0.63628 0.94612 0.92977 0.0
C1618 C 0.60888 0.93477 0.93576 0.0
C1619 C 0.59915 0.90864 0.9258 0.0
C1620 C 0.61599 0.89445 0.91032 0.0
H1621 H 0.68352 0.91575 0.81651 0.0
H1622 H 0.65554 0.91925 0.84378 0.0
H1623 H 0.68849 0.93521 0.85339 0.0
H1624 H 0.67412 0.94122 0.91001 0.0
H1625 H 0.6447 0.96605 0.93718 0.0
H1626 H 0.79351 0.69035 0.20871 0.0
H1627 H 0.82005 0.6635 0.17998 0.0
H1628 H 0.88771 0.72909 0.1726 0.0
H1629 H 0.8613 0.75605 0.20162 0.0
H1630 H 0.85012 0.66624 0.11757 0.0
H1631 H 0.91432 0.67857 0.21162 0.0
H1632 H 0.88298 0.68546 0.21903 0.0
H1633 H 0.91129 0.70728 0.20066 0.0
C1634 C 0.81411 0.69912 0.20127 0.0
C1635 C 0.82523 0.72547 0.20808 0.0
C1636 C 0.82928 0.68368 0.18454 0.0
C1637 C 0.85615 0.694 0.17428 0.0
C1638 C 0.8672 0.72039 0.18055 0.0
H1639 H 0.98581 0.6347 0.08359 0.0
H1640 H 0.95698 0.65964 0.11021 0.0
C1641 C 0.85198 0.73589 0.19709 0.0
C1642 C 0.87254 0.67722 0.15724 0.0
H1643 H 0.92543 0.65634 0.16324 0.0
C1644 C 0.86652 0.664 0.12765 0.0
C1645 C 0.89405 0.67412 0.1701 0.0
C1646 C 0.90105 0.68689 0.2022 0.0
C1647 C 0.88169 0.64852 0.11039 0.0
C1648 C 0.90324 0.64536 0.12328 0.0
C1649 C 0.90905 0.65848 0.15304 0.0
C1650 C 0.92061 0.62944 0.10606 0.0
C1651 C 0.87497 0.63645 0.07796 0.0
C1652 C 0.91025 0.6037 0.09455 0.0
C1653 C 0.92693 0.58918 0.07895 0.0
C1654 C 0.95454 0.59987 0.07465 0.0
C1655 C 0.96476 0.62555 0.08635 0.0
C1656 C 0.94817 0.63999 0.10176 0.0
H1657 H 0.86349 0.64639 0.06797 0.0
H1658 H 0.89306 0.63644 0.06166 0.0
H1659 H 0.86274 0.61655 0.07928 0.0
H1660 H 0.88923 0.59463 0.09798 0.0
H1661 H 0.91819 0.56953 0.07046 0.0
H1662 H 0.35305 0.83182 0.23891 0.0
H1663 H 0.38462 0.864 0.20904 0.0
H1664 H 0.3306 0.84942 0.13938 0.0
H1665 H 0.29911 0.81636 0.16885 0.0
H1666 H 0.40593 0.85522 0.14268 0.0
H1667 H 0.353 0.92903 0.16481 0.0
H1668 H 0.34717 0.90501 0.1908 0.0
H1669 H 0.33463 0.89679 0.15331 0.0
C1670 C 0.34779 0.83544 0.21727 0.0
C1671 C 0.32331 0.82185 0.20655 0.0
C1672 C 0.36586 0.85392 0.20026 0.0
C1673 C 0.35984 0.85941 0.17223 0.0
C1674 C 0.33546 0.84583 0.16128 0.0
H1675 H 0.45935 0.97007 0.04666 0.0
H1676 H 0.42136 0.94014 0.07287 0.0
C1677 C 0.31742 0.82707 0.1782 0.0
C1678 C 0.37976 0.87861 0.15407 0.0
H1679 H 0.39441 0.93884 0.13442 0.0
C1680 C 0.40336 0.87345 0.14072 0.0
C1681 C 0.3763 0.90231 0.15136 0.0
C1682 C 0.35149 0.90887 0.16588 0.0
C1683 C 0.4237 0.89142 0.12502 0.0
C1684 C 0.42071 0.91554 0.12329 0.0
C1685 C 0.39678 0.92046 0.13588 0.0
C1686 C 0.44267 0.93598 0.10942 0.0
C1687 C 0.44821 0.8843 0.11026 0.0
C1688 C 0.46692 0.94454 0.12205 0.0
C1689 C 0.48859 0.96157 0.1072 0.0
C1690 C 0.48649 0.97073 0.07947 0.0
C1691 C 0.46167 0.9635 0.06802 0.0
C1692 C 0.43995 0.94627 0.08288 0.0
H1693 H 0.44433 0.86343 0.10552 0.0
H1694 H 0.45606 0.89268 0.08788 0.0
H1695 H 0.46363 0.89153 0.1266 0.0
H1696 H 0.46934 0.93742 0.14297 0.0
H1697 H 0.50728 0.96688 0.11689 0.0
H1698 H 0.73587 0.1898 0.2188 0.0
H1699 H 0.7051 0.15889 0.18572 0.0
H1700 H 0.714 0.21522 0.12379 0.0
H1701 H 0.74521 0.24622 0.15674 0.0
H1702 H 0.65746 0.16502 0.17528 0.0
H1703 H 0.71932 0.15234 0.06273 0.0
H1704 H 0.73322 0.16601 0.09914 0.0
H1705 H 0.72158 0.18472 0.07753 0.0
C1706 C 0.73162 0.19552 0.19789 0.0
C1707 C 0.74255 0.22056 0.19068 0.0
C1708 C 0.714 0.17783 0.17901 0.0
C1709 C 0.70727 0.1847 0.15225 0.0
C1710 C 0.71914 0.20939 0.14411 0.0
H1711 H 0.56401 0.11765 0.06393 0.0
H1712 H 0.60181 0.14539 0.08943 0.0
C1713 C 0.7368 0.22712 0.16306 0.0
C1714 C 0.68617 0.1667 0.13459 0.0
H1715 H 0.67278 0.13483 0.0623 0.0
C1716 C 0.66086 0.15831 0.15063 0.0
C1717 C 0.69069 0.15784 0.10248 0.0
C1718 C 0.71771 0.16547 0.08444 0.0
C1719 C 0.63982 0.14167 0.13532 0.0
C1720 C 0.64412 0.13342 0.103 0.0
C1721 C 0.66953 0.14135 0.08704 0.0
C1722 C 0.62218 0.11688 0.08548 0.0
C1723 C 0.61314 0.13294 0.1539 0.0
C1724 C 0.62145 0.09179 0.07404 0.0
C1725 C 0.59974 0.07573 0.05947 0.0
C1726 C 0.5785 0.08459 0.05586 0.0
C1727 C 0.57987 0.11006 0.06641 0.0
C1728 C 0.60145 0.12599 0.08109 0.0
H1729 H 0.61451 0.13629 0.1796 0.0
H1730 H 0.60014 0.14356 0.14858 0.0
H1731 H 0.60373 0.11246 0.14736 0.0
H1732 H 0.63735 0.08445 0.07707 0.0
H1733 H 0.59948 0.05632 0.05137 0.0
H1734 H 0.76663 0.69046 0.80279 0.0
H1735 H 0.73874 0.65539 0.83143 0.0
H1736 H 0.67094 0.68108 0.8288 0.0
H1737 H 0.69884 0.71673 0.8016 0.0
H1738 H 0.67266 0.6696 0.88601 0.0
H1739 H 0.68719 0.59089 0.79706 0.0
H1740 H 0.71725 0.61229 0.80993 0.0
H1741 H 0.69735 0.62337 0.7887 0.0
C1742 C 0.74575 0.68854 0.80821 0.0
C1743 C 0.73484 0.70606 0.79928 0.0
C1744 C 0.72979 0.66837 0.82437 0.0
C1745 C 0.7026 0.66523 0.83169 0.0
C1746 C 0.69179 0.68292 0.82314 0.0
H1747 H 0.57321 0.53826 0.88201 0.0
H1748 H 0.60974 0.56909 0.85602 0.0
C1749 C 0.70774 0.70316 0.80725 0.0
C1750 C 0.68536 0.64404 0.84906 0.0
H1751 H 0.66261 0.57952 0.84544 0.0
C1752 C 0.67053 0.64989 0.8772 0.0
C1753 C 0.6824 0.61832 0.83739 0.0
C1754 C 0.69668 0.61075 0.80647 0.0
C1755 C 0.65256 0.63084 0.89375 0.0
C1756 C 0.64987 0.60509 0.88235 0.0
C1757 C 0.66494 0.59923 0.8544 0.0
C1758 C 0.62984 0.58413 0.89761 0.0
C1759 C 0.63581 0.63854 0.92251 0.0
C1760 C 0.62953 0.58144 0.92939 0.0
C1761 C 0.60845 0.56389 0.9445 0.0
C1762 C 0.58744 0.54846 0.92798 0.0
C1763 C 0.58893 0.54987 0.89557 0.0
C1764 C 0.60985 0.56754 0.88061 0.0
H1765 H 0.6357 0.65852 0.92357 0.0
H1766 H 0.61512 0.62622 0.92301 0.0
H1767 H 0.64387 0.63669 0.94388 0.0
H1768 H 0.64512 0.59353 0.94281 0.0
H1769 H 0.60807 0.56322 0.96941 0.0
H1770 H 0.39953 0.63538 0.74476 0.0
H1771 H 0.42493 0.62362 0.77918 0.0
H1772 H 0.43805 0.69744 0.83235 0.0
H1773 H 0.41244 0.70934 0.79796 0.0
H1774 H 0.4767 0.64512 0.79217 0.0
H1775 H 0.40666 0.64995 0.9002 0.0
H1776 H 0.39801 0.65037 0.86165 0.0
H1777 H 0.41948 0.67817 0.88083 0.0
C1778 C 0.40805 0.64922 0.76355 0.0
C1779 C 0.40392 0.67326 0.76869 0.0
C1780 C 0.42248 0.64245 0.78329 0.0
C1781 C 0.43309 0.65954 0.80856 0.0
C1782 C 0.42957 0.68379 0.81338 0.0
H1783 H 0.53269 0.60627 0.91319 0.0
H1784 H 0.51952 0.63591 0.88687 0.0
C1785 C 0.41499 0.69055 0.79369 0.0
C1786 C 0.44749 0.65146 0.82981 0.0
H1787 H 0.44257 0.63519 0.90377 0.0
C1788 C 0.46952 0.64329 0.81671 0.0
C1789 C 0.43805 0.64919 0.86184 0.0
C1790 C 0.41416 0.65719 0.87706 0.0
C1791 C 0.4815 0.63162 0.83427 0.0
C1792 C 0.47137 0.62838 0.86587 0.0
C1793 C 0.45029 0.63783 0.87952 0.0
C1794 C 0.47956 0.61185 0.88346 0.0
C1795 C 0.5038 0.62139 0.81834 0.0
C1796 C 0.46135 0.58884 0.89061 0.0
C1797 C 0.46881 0.57199 0.90531 0.0
C1798 C 0.49457 0.57794 0.9135 0.0
C1799 C 0.51274 0.60122 0.90694 0.0
C1800 C 0.50528 0.61809 0.89192 0.0
H1801 H 0.50711 0.62271 0.79266 0.0
H1802 H 0.52228 0.63233 0.82864 0.0
H1803 H 0.4997 0.60127 0.82221 0.0
H1804 H 0.44143 0.58367 0.88423 0.0
H1805 H 0.45429 0.55431 0.91038 0.0
H1806 H 0.33134 0.34634 0.79878 0.0
H1807 H 0.36409 0.37384 0.83223 0.0
H1808 H 0.38043 0.30842 0.8563 0.0
H1809 H 0.3485 0.28084 0.82183 0.0
H1810 H 0.36613 0.37764 0.89401 0.0
H1811 H 0.45423 0.35117 0.83339 0.0
H1812 H 0.42344 0.34203 0.81643 0.0
H1813 H 0.42793 0.32458 0.84579 0.0
C1814 C 0.3423 0.33776 0.81058 0.0
C1815 C 0.33758 0.31129 0.80688 0.0
C1816 C 0.36091 0.35357 0.83003 0.0
C1817 C 0.37531 0.34341 0.84647 0.0
C1818 C 0.37028 0.31694 0.84328 0.0
H1819 H 0.49116 0.4147 0.98262 0.0
H1820 H 0.45819 0.38431 0.95113 0.0
C1821 C 0.35177 0.30111 0.82367 0.0
C1822 C 0.39489 0.36049 0.86758 0.0
H1823 H 0.45951 0.37707 0.8822 0.0
C1824 C 0.38655 0.37751 0.89128 0.0
C1825 C 0.42165 0.36046 0.8643 0.0
C1826 C 0.43246 0.34377 0.83843 0.0
C1827 C 0.404 0.39421 0.91169 0.0
C1828 C 0.43071 0.39419 0.90833 0.0
C1829 C 0.43904 0.37702 0.88494 0.0
C1830 C 0.45048 0.41261 0.92798 0.0
C1831 C 0.39367 0.41165 0.93695 0.0
C1832 C 0.45733 0.43865 0.92541 0.0
C1833 C 0.47625 0.45602 0.94318 0.0
C1834 C 0.48886 0.44786 0.96416 0.0
C1835 C 0.48185 0.42174 0.96686 0.0
C1836 C 0.46303 0.4043 0.94879 0.0
H1837 H 0.37179 0.4053 0.94135 0.0
H1838 H 0.40203 0.41288 0.95928 0.0
H1839 H 0.39966 0.43093 0.92947 0.0
H1840 H 0.44824 0.44556 0.90928 0.0
H1841 H 0.48104 0.47592 0.94034 0.0
H1842 H 0.733 0.34239 0.87885 0.0
H1843 H 0.73178 0.36976 0.92679 0.0
H1844 H 0.65874 0.31789 0.9614 0.0
H1845 H 0.66172 0.28807 0.91523 0.0
H1846 H 0.69739 0.39098 0.93099 0.0
H1847 H 0.68516 0.35288 0.04128 0.0
H1848 H 0.6926 0.33428 0.00545 0.0
H1849 H 0.65869 0.33092 0.02183 0.0
C1850 C 0.71734 0.33556 0.89695 0.0
C1851 C 0.69673 0.31294 0.89182 0.0
C1852 C 0.71668 0.3517 0.92472 0.0
C1853 C 0.69485 0.34639 0.94747 0.0
C1854 C 0.67589 0.32262 0.94427 0.0
H1855 H 0.57527 0.40211 0.00648 0.0
H1856 H 0.60893 0.38036 1.003 0.0
C1857 C 0.67719 0.30581 0.91708 0.0
C1858 C 0.68818 0.36754 0.96883 0.0
H1859 H 0.65254 0.37938 0.0385 0.0
C1860 C 0.68865 0.3889 0.95501 0.0
C1861 C 0.67689 0.36518 1.00027 0.0
C1862 C 0.67857 0.34455 0.01789 0.0
C1863 C 0.67538 0.40614 0.97017 0.0
C1864 C 0.66129 0.40197 1.00007 0.0
C1865 C 0.66309 0.38223 0.01537 0.0
C1866 C 0.64069 0.41458 0.01199 0.0
C1867 C 0.67425 0.42713 0.95259 0.0
C1868 C 0.64727 0.44091 0.01958 0.0
C1869 C 0.62817 0.45347 0.02087 0.0
C1870 C 0.60223 0.43978 0.01492 0.0
C1871 C 0.59523 0.41322 0.01039 0.0
C1872 C 0.61434 0.40072 0.00892 0.0
H1873 H 0.68465 0.42638 0.92843 0.0
H1874 H 0.65343 0.42604 0.95093 0.0
H1875 H 0.68359 0.44574 0.96545 0.0
H1876 H 0.66751 0.45185 0.02225 0.0
H1877 H 0.634 0.47394 0.02526 0.0
H1878 H 0.68329 0.36689 0.22121 0.0
H1879 H 0.64777 0.37722 0.20224 0.0
H1880 H 0.69112 0.38215 0.11004 0.0
H1881 H 0.72582 0.36974 0.12812 0.0
H1882 H 0.65224 0.42016 0.18382 0.0
H1883 H 0.61884 0.34727 0.08495 0.0
H1884 H 0.63487 0.34192 0.11607 0.0
H1885 H 0.65404 0.35844 0.0841 0.0
C1886 C 0.68495 0.36921 0.19659 0.0
C1887 C 0.70759 0.36746 0.17625 0.0
C1888 C 0.66461 0.37532 0.18582 0.0
C1889 C 0.66649 0.38011 0.15458 0.0
C1890 C 0.68875 0.37782 0.134 0.0
H1891 H 0.6142 0.49209 0.09457 0.0
H1892 H 0.63631 0.46536 0.11211 0.0
C1893 C 0.70893 0.37128 0.14462 0.0
C1894 C 0.64708 0.39079 0.14476 0.0
H1895 H 0.61013 0.38704 0.08546 0.0
C1896 C 0.64268 0.41259 0.1626 0.0
C1897 C 0.63397 0.38062 0.11759 0.0
C1898 C 0.63532 0.3556 0.09974 0.0
C1899 C 0.62673 0.42524 0.15318 0.0
C1900 C 0.61591 0.41663 0.12424 0.0
C1901 C 0.61899 0.39401 0.10723 0.0
C1902 C 0.60273 0.43181 0.11076 0.0
C1903 C 0.6218 0.44782 0.17441 0.0
C1904 C 0.57697 0.42144 0.1022 0.0
C1905 C 0.56436 0.43668 0.09138 0.0
C1906 C 0.57732 0.46249 0.08933 0.0
C1907 C 0.60338 0.47247 0.09686 0.0
C1908 C 0.61607 0.45721 0.10693 0.0
H1909 H 0.62285 0.44616 0.19937 0.0
H1910 H 0.63728 0.46524 0.16801 0.0
H1911 H 0.60221 0.44996 0.17232 0.0
H1912 H 0.56645 0.40176 0.10453 0.0
H1913 H 0.5444 0.42845 0.08522 0.0
H1914 H 0.74363 0.69348 0.1975 0.0
H1915 H 0.71226 0.66626 0.16223 0.0
H1916 H 0.66951 0.72196 0.17595 0.0
H1917 H 0.70225 0.75005 0.20921 0.0
H1918 H 0.66533 0.64221 0.16746 0.0
H1919 H 0.67155 0.7104 0.08498 0.0
H1920 H 0.69355 0.71756 0.11488 0.0
H1921 H 0.6612 0.72216 0.124 0.0
C1922 C 0.72759 0.69995 0.19283 0.0
C1923 C 0.7255 0.72398 0.206 0.0
C1924 C 0.70957 0.68435 0.17259 0.0
C1925 C 0.68855 0.69204 0.1655 0.0
C1926 C 0.68598 0.71577 0.17968 0.0
H1927 H 0.55122 0.57795 0.09283 0.0
H1928 H 0.58362 0.60741 0.12513 0.0
C1929 C 0.70455 0.73176 0.19912 0.0
C1930 C 0.66905 0.67481 0.14423 0.0
H1931 H 0.63485 0.67299 0.08271 0.0
C1932 C 0.65896 0.64903 0.14875 0.0
C1933 C 0.66084 0.68318 0.11913 0.0
C1934 C 0.6726 0.70976 0.11023 0.0
C1935 C 0.641 0.63169 0.12948 0.0
C1936 C 0.63133 0.64042 0.10589 0.0
C1937 C 0.64169 0.66612 0.10101 0.0
C1938 C 0.61068 0.6233 0.08603 0.0
C1939 C 0.63347 0.60401 0.13412 0.0
C1940 C 0.61383 0.62327 0.05313 0.0
C1941 C 0.5946 0.60707 0.03463 0.0
C1942 C 0.572 0.59016 0.04853 0.0
C1943 C 0.56863 0.59046 0.08136 0.0
C1944 C 0.58739 0.60716 0.09988 0.0
H1945 H 0.64933 0.59952 0.1439 0.0
H1946 H 0.61555 0.59946 0.15122 0.0
H1947 H 0.62946 0.5916 0.11176 0.0
H1948 H 0.63139 0.63555 0.04162 0.0
H1949 H 0.59778 0.60726 0.00938 0.0
H1950 H 0.39621 0.77614 0.08158 0.0
H1951 H 0.41122 0.75456 0.03198 0.0
H1952 H 0.37992 0.68305 0.07003 0.0
H1953 H 0.36695 0.7041 0.11981 0.0
H1954 H 0.44768 0.72673 0.03781 0.0
H1955 H 0.36374 0.6657 0.97623 0.0
H1956 H 0.36267 0.69471 1.00092 0.0
H1957 H 0.35701 0.66586 0.0181 0.0
C1958 C 0.39234 0.75579 0.07939 0.0
C1959 C 0.38051 0.74204 0.10514 0.0
C1960 C 0.40047 0.74348 0.05076 0.0
C1961 C 0.39611 0.71718 0.04717 0.0
C1962 C 0.3827 0.70327 0.07198 0.0
H1963 H 0.43717 0.58992 0.01101 0.0
H1964 H 0.41538 0.62268 0.01147 0.0
C1965 C 0.37528 0.71551 0.10067 0.0
C1966 C 0.41069 0.70463 0.02151 0.0
H1967 H 0.40085 0.64841 0.97475 0.0
C1968 C 0.43781 0.71008 0.02295 0.0
C1969 C 0.39759 0.68307 1.00228 0.0
C1970 C 0.36865 0.67711 0.99902 0.0
C1971 C 0.45142 0.69255 0.00963 0.0
C1972 C 0.43764 0.66954 0.99287 0.0
C1973 C 0.41131 0.66582 0.9879 0.0
C1974 C 0.44856 0.64764 0.98579 0.0
C1975 C 0.47942 0.6977 0.01704 0.0
C1976 C 0.47386 0.65012 0.96988 0.0
C1977 C 0.4868 0.63218 0.97136 0.0
C1978 C 0.47394 0.61059 0.98673 0.0
C1979 C 0.44752 0.60654 0.99927 0.0
C1980 C 0.43502 0.62516 0.99923 0.0
H1981 H 0.48514 0.71416 0.03515 0.0
H1982 H 0.48204 0.68099 0.02568 0.0
H1983 H 0.49324 0.70199 0.99551 0.0
H1984 H 0.48428 0.66672 0.95817 0.0
H1985 H 0.50713 0.63556 0.9612 0.0
H1986 H 0.36579 0.31705 0.21202 0.0
H1987 H 0.39309 0.35231 0.18341 0.0
H1988 H 0.32327 0.37066 0.16952 0.0
H1989 H 0.29594 0.33607 0.19887 0.0
H1990 H 0.39404 0.362 0.12327 0.0
H1991 H 0.36792 0.43824 0.20763 0.0
H1992 H 0.36004 0.40611 0.21675 0.0
H1993 H 0.34 0.41449 0.19282 0.0
C1994 C 0.35625 0.32871 0.20309 0.0
C1995 C 0.3287 0.32394 0.20821 0.0
C1996 C 0.37188 0.34879 0.18661 0.0
C1997 C 0.36029 0.36447 0.17483 0.0
C1998 C 0.33273 0.35925 0.17905 0.0
H1999 H 0.45374 0.4695 0.03966 0.0
H2000 H 0.41741 0.43731 0.0645 0.0
C2001 C 0.31711 0.33928 0.19565 0.0
C2002 C 0.37708 0.38615 0.15802 0.0
H2003 H 0.39401 0.45057 0.1604 0.0
C2004 C 0.39399 0.38137 0.13131 0.0
C2005 C 0.37717 0.41145 0.16872 0.0
C2006 C 0.36051 0.418 0.19821 0.0
C2007 C 0.41113 0.40115 0.11517 0.0
C2008 C 0.41093 0.42643 0.12557 0.0
C2009 C 0.39387 0.43119 0.15215 0.0
C2010 C 0.43009 0.44831 0.11105 0.0
C2011 C 0.43005 0.39482 0.08792 0.0
C2012 C 0.44818 0.46632 0.1293 0.0
C2013 C 0.46864 0.48499 0.11533 0.0
C2014 C 0.47156 0.48605 0.0827 0.0
C2015 C 0.45219 0.46922 0.06482 0.0
C2016 C 0.43158 0.45057 0.07892 0.0
H2017 H 0.43187 0.37548 0.08759 0.0
H2018 H 0.42275 0.39567 0.06559 0.0
H2019 H 0.44997 0.40859 0.08879 0.0
H2020 H 0.44731 0.46515 0.15418 0.0
H2021 H 0.48304 0.49772 0.12991 0.0
H2022 H 0.79161 0.68707 0.69492 0.0
H2023 H 0.81777 0.65975 0.66638 0.0
H2024 H 0.88925 0.71746 0.68805 0.0
H2025 H 0.86329 0.74522 0.71524 0.0
H2026 H 0.85982 0.66842 0.61356 0.0
H2027 H 0.89644 0.65357 0.72021 0.0
H2028 H 0.86811 0.66507 0.72209 0.0
H2029 H 0.9008 0.68602 0.71517 0.0
C2030 C 0.8129 0.69414 0.69345 0.0
C2031 C 0.82514 0.71846 0.70813 0.0
C2032 C 0.82792 0.67834 0.67711 0.0
C2033 C 0.85568 0.68614 0.67529 0.0
C2034 C 0.86794 0.71054 0.68949 0.0
H2035 H 0.98384 0.6179 0.60811 0.0
H2036 H 0.95548 0.64429 0.63128 0.0
C2037 C 0.85295 0.72645 0.70542 0.0
C2038 C 0.87183 0.66888 0.65883 0.0
H2039 H 0.91482 0.63759 0.67146 0.0
C2040 C 0.87175 0.66158 0.62626 0.0
C2041 C 0.88765 0.65988 0.67507 0.0
C2042 C 0.88823 0.6663 0.7101 0.0
C2043 C 0.88746 0.64637 0.60955 0.0
C2044 C 0.90326 0.63721 0.62583 0.0
C2045 C 0.90298 0.64435 0.65853 0.0
C2046 C 0.92083 0.621 0.60969 0.0
C2047 C 0.88771 0.64124 0.57434 0.0
C2048 C 0.91144 0.59872 0.58923 0.0
C2049 C 0.92801 0.58356 0.57535 0.0
C2050 C 0.9544 0.58988 0.58197 0.0
C2051 C 0.96371 0.61216 0.60234 0.0
C2052 C 0.94732 0.62738 0.61583 0.0
H2053 H 0.8817 0.65571 0.56468 0.0
H2054 H 0.90757 0.64093 0.56272 0.0
H2055 H 0.87345 0.62256 0.56823 0.0
H2056 H 0.89105 0.5926 0.58446 0.0
H2057 H 0.91992 0.56654 0.56005 0.0
H2058 H 0.3444 0.8415 0.74426 0.0
H2059 H 0.37786 0.87239 0.71409 0.0
H2060 H 0.36657 0.81939 0.63032 0.0
H2061 H 0.33275 0.78843 0.66055 0.0
H2062 H 0.42641 0.86677 0.67486 0.0
H2063 H 0.35364 0.88565 0.60952 0.0
H2064 H 0.34393 0.87049 0.64513 0.0
H2065 H 0.35287 0.85313 0.60903 0.0
C2066 C 0.34905 0.83646 0.71943 0.0
C2067 C 0.33607 0.81261 0.70472 0.0
C2068 C 0.36827 0.85403 0.70226 0.0
C2069 C 0.37462 0.84822 0.66996 0.0
C2070 C 0.36185 0.8243 0.6552 0.0
H2071 H 0.49581 0.94943 0.54882 0.0
H2072 H 0.46905 0.91122 0.57267 0.0
C2073 C 0.34268 0.80662 0.67247 0.0
C2074 C 0.39388 0.86774 0.65179 0.0
H2075 H 0.39808 0.9093 0.59962 0.0
C2076 C 0.42033 0.87588 0.6581 0.0
C2077 C 0.3858 0.87967 0.63012 0.0
C2078 C 0.35751 0.87201 0.62303 0.0
C2079 C 0.43883 0.89594 0.64362 0.0
C2080 C 0.43059 0.90818 0.62251 0.0
C2081 C 0.4043 0.89973 0.61572 0.0
C2082 C 0.44836 0.93118 0.60927 0.0
C2083 C 0.46686 0.90462 0.65167 0.0
C2084 C 0.44578 0.95498 0.62223 0.0
C2085 C 0.46105 0.9768 0.60889 0.0
C2086 C 0.47916 0.9753 0.58202 0.0
C2087 C 0.48215 0.95137 0.56951 0.0
C2088 C 0.46687 0.92949 0.58305 0.0
H2089 H 0.47009 0.8934 0.669 0.0
H2090 H 0.48051 0.90296 0.63003 0.0
H2091 H 0.47196 0.92489 0.66142 0.0
H2092 H 0.43158 0.95664 0.64246 0.0
H2093 H 0.45811 0.99479 0.61925 0.0
H2094 H 0.23553 0.34415 0.62237 0.0
H2095 H 0.208 0.35259 0.58769 0.0
H2096 H 0.1568 0.37171 0.66809 0.0
H2097 H 0.18288 0.36138 0.70276 0.0
H2098 H 0.12879 0.3487 0.62053 0.0
H2099 H 0.21592 0.42442 0.57719 0.0
H2100 H 0.21977 0.39319 0.56926 0.0
H2101 H 0.21657 0.40758 0.60918 0.0
C2102 C 0.21804 0.34949 0.63273 0.0
C2103 C 0.21186 0.35261 0.66557 0.0
C2104 C 0.20249 0.35467 0.6128 0.0
C2105 C 0.1808 0.36361 0.62528 0.0
C2106 C 0.17362 0.36516 0.65785 0.0
H2107 H 0.12406 0.47287 0.57052 0.0
H2108 H 0.14355 0.44546 0.59112 0.0
C2109 C 0.18884 0.35957 0.67772 0.0
C2110 C 0.16675 0.37334 0.6051 0.0
H2111 H 0.17592 0.41993 0.55828 0.0
C2112 C 0.13909 0.36412 0.60664 0.0
C2113 C 0.1802 0.39358 0.58711 0.0
C2114 C 0.2097 0.40546 0.58572 0.0
C2115 C 0.12447 0.3753 0.59187 0.0
C2116 C 0.13795 0.39585 0.57449 0.0
C2117 C 0.16563 0.40413 0.57159 0.0
C2118 C 0.12407 0.41139 0.56266 0.0
C2119 C 0.09475 0.36597 0.59645 0.0
C2120 C 0.10615 0.40133 0.54005 0.0
C2121 C 0.09454 0.41708 0.52844 0.0
C2122 C 0.10111 0.44313 0.53892 0.0
C2123 C 0.11874 0.45292 0.56177 0.0
C2124 C 0.12994 0.43726 0.57359 0.0
H2125 H 0.08741 0.35308 0.61508 0.0
H2126 H 0.08626 0.38213 0.60273 0.0
H2127 H 0.0874 0.35546 0.57419 0.0
H2128 H 0.10165 0.38151 0.53086 0.0
H2129 H 0.0812 0.40912 0.5106 0.0
H2130 H 0.71232 0.20793 0.71323 0.0
H2131 H 0.68508 0.17622 0.67734 0.0
H2132 H 0.75431 0.17428 0.61306 0.0
H2133 H 0.78189 0.20668 0.64875 0.0
H2134 H 0.68312 0.18048 0.60972 0.0
H2135 H 0.71421 0.0983 0.63087 0.0
H2136 H 0.71797 0.12646 0.65867 0.0
H2137 H 0.73944 0.12714 0.62269 0.0
C2138 C 0.72183 0.20091 0.69141 0.0
C2139 C 0.74931 0.20983 0.68388 0.0
C2140 C 0.7062 0.18274 0.67096 0.0
C2141 C 0.71768 0.17284 0.64268 0.0
C2142 C 0.74511 0.18156 0.63496 0.0
H2143 H 0.63795 0.04777 0.51068 0.0
H2144 H 0.67133 0.08223 0.53632 0.0
C2145 C 0.76082 0.19999 0.65538 0.0
C2146 C 0.70059 0.15353 0.62143 0.0
H2147 H 0.68134 0.09016 0.59708 0.0
C2148 C 0.68284 0.16075 0.60669 0.0
C2149 C 0.70041 0.12789 0.6175 0.0
C2150 C 0.71888 0.11926 0.63331 0.0
C2151 C 0.66462 0.1429 0.58836 0.0
C2152 C 0.66366 0.11703 0.58541 0.0
C2153 C 0.68198 0.10996 0.59945 0.0
C2154 C 0.64326 0.09689 0.56882 0.0
C2155 C 0.6467 0.15199 0.57219 0.0
C2156 C 0.6163 0.09358 0.57857 0.0
C2157 C 0.59711 0.07397 0.56384 0.0
C2158 C 0.60448 0.057 0.5393 0.0
C2159 C 0.63151 0.06044 0.52951 0.0
C2160 C 0.65067 0.08014 0.54416 0.0
H2161 H 0.65535 0.17225 0.56842 0.0
H2162 H 0.6427 0.14066 0.54913 0.0
H2163 H 0.62765 0.1501 0.58716 0.0
H2164 H 0.61007 0.10587 0.59803 0.0
H2165 H 0.57652 0.07182 0.57213 0.0
H2166 H 0.83068 0.29356 0.34194 0.0
H2167 H 0.86 0.32569 0.37552 0.0
H2168 H 0.83415 0.38383 0.34623 0.0
H2169 H 0.80512 0.35195 0.31213 0.0
H2170 H 0.88837 0.3951 0.34184 0.0
H2171 H 0.84323 0.36573 0.45904 0.0
H2172 H 0.85097 0.34083 0.43149 0.0
H2173 H 0.82633 0.35448 0.42425 0.0
C2174 C 0.83096 0.31313 0.34286 0.0
C2175 C 0.8155 0.32011 0.32423 0.0
C2176 C 0.84767 0.33148 0.36224 0.0
C2177 C 0.84908 0.35714 0.36365 0.0
C2178 C 0.83332 0.36412 0.34558 0.0
H2179 H 0.92539 0.48373 0.49297 0.0
H2180 H 0.89434 0.44953 0.46373 0.0
C2181 C 0.81664 0.34581 0.32617 0.0
C2182 C 0.86803 0.3769 0.38258 0.0
H2183 H 0.88492 0.39706 0.45716 0.0
C2184 C 0.88758 0.39557 0.36707 0.0
C2185 C 0.86684 0.3776 0.41553 0.0
C2186 C 0.84558 0.35875 0.43367 0.0
C2187 C 0.90611 0.41478 0.38352 0.0
C2188 C 0.90537 0.41511 0.41635 0.0
C2189 C 0.88564 0.39661 0.43194 0.0
C2190 C 0.92437 0.43503 0.43501 0.0
C2191 C 0.92598 0.43487 0.36568 0.0
C2192 C 0.95158 0.43793 0.42907 0.0
C2193 C 0.96945 0.45753 0.44571 0.0
C2194 C 0.96044 0.47456 0.46877 0.0
C2195 C 0.93308 0.47108 0.47531 0.0
C2196 C 0.91526 0.4515 0.45864 0.0
H2197 H 0.91987 0.43551 0.3425 0.0
H2198 H 0.92886 0.45387 0.37931 0.0
H2199 H 0.94523 0.43065 0.3615 0.0
H2200 H 0.95902 0.42512 0.41139 0.0
H2201 H 0.99034 0.45948 0.44024 0.0
H2202 H 0.70301 0.7845 0.31416 0.0
H2203 H 0.67603 0.81104 0.34274 0.0
H2204 H 0.74024 0.87795 0.32596 0.0
H2205 H 0.7676 0.85154 0.29849 0.0
H2206 H 0.68384 0.84851 0.39683 0.0
H2207 H 0.67838 0.89133 0.29162 0.0
H2208 H 0.68952 0.86357 0.28891 0.0
H2209 H 0.71127 0.89442 0.29953 0.0
C2210 C 0.71155 0.80485 0.31668 0.0
C2211 C 0.73754 0.81569 0.30325 0.0
C2212 C 0.69597 0.82011 0.33307 0.0
C2213 C 0.70569 0.84674 0.33625 0.0
C2214 C 0.73182 0.85757 0.32344 0.0
H2215 H 0.63291 0.95594 0.46099 0.0
H2216 H 0.66206 0.92986 0.43737 0.0
C2217 C 0.7475 0.84233 0.30742 0.0
C2218 C 0.68856 0.86314 0.35254 0.0
H2219 H 0.66037 0.90807 0.34037 0.0
C2220 C 0.67877 0.86155 0.38444 0.0
C2221 C 0.68155 0.88018 0.33663 0.0
C2222 C 0.69048 0.88242 0.30222 0.0
C2223 C 0.66264 0.8765 0.4007 0.0
C2224 C 0.65588 0.89377 0.38486 0.0
C2225 C 0.6655 0.89513 0.35288 0.0
C2226 C 0.63795 0.90966 0.40037 0.0
C2227 C 0.65244 0.87321 0.43462 0.0
C2228 C 0.6146 0.90761 0.38764 0.0
C2229 C 0.59788 0.92251 0.40115 0.0
C2230 C 0.60396 0.94037 0.42777 0.0
C2231 C 0.62738 0.94249 0.4406 0.0
C2232 C 0.64408 0.92737 0.42713 0.0
H2233 H 0.65398 0.85528 0.44121 0.0
H2234 H 0.6643 0.88914 0.44985 0.0
H2235 H 0.63153 0.87337 0.43949 0.0
H2236 H 0.60916 0.8943 0.3671 0.0
H2237 H 0.58019 0.92014 0.39034 0.0
H2238 H 0.25303 0.7213 0.34246 0.0
H2239 H 0.21939 0.68844 0.36953 0.0
H2240 H 0.15843 0.71132 0.33773 0.0
H2241 H 0.19232 0.74332 0.3092 0.0
H2242 H 0.1778 0.68841 0.41557 0.0
H2243 H 0.14141 0.63651 0.30354 0.0
H2244 H 0.17173 0.66197 0.30477 0.0
H2245 H 0.14056 0.66882 0.31077 0.0
C2246 C 0.23247 0.71914 0.34108 0.0
C2247 C 0.22527 0.7344 0.32319 0.0
C2248 C 0.21322 0.70058 0.35687 0.0
C2249 C 0.1863 0.69694 0.35514 0.0
C2250 C 0.17904 0.71333 0.33887 0.0
H2251 H 0.06553 0.58672 0.46694 0.0
H2252 H 0.09084 0.62613 0.44496 0.0
C2253 C 0.19839 0.73185 0.32292 0.0
C2254 C 0.16615 0.67525 0.36913 0.0
H2255 H 0.11978 0.61929 0.35004 0.0
C2256 C 0.16494 0.67339 0.40132 0.0
C2257 C 0.14963 0.65542 0.35043 0.0
C2258 C 0.15095 0.65554 0.31542 0.0
C2259 C 0.14796 0.6522 0.41522 0.0
C2260 C 0.13132 0.63244 0.39655 0.0
C2261 C 0.13229 0.6345 0.36445 0.0
C2262 C 0.11448 0.60852 0.40912 0.0
C2263 C 0.14888 0.65067 0.44947 0.0
C2264 C 0.11848 0.58529 0.3956 0.0
C2265 C 0.10387 0.56274 0.40783 0.0
C2266 C 0.08474 0.56272 0.43398 0.0
C2267 C 0.08011 0.58593 0.4469 0.0
C2268 C 0.09477 0.60856 0.43452 0.0
H2269 H 0.1668 0.66439 0.45853 0.0
H2270 H 0.13138 0.6551 0.46343 0.0
H2271 H 0.14845 0.63133 0.45334 0.0
H2272 H 0.13344 0.58465 0.37593 0.0
H2273 H 0.10805 0.54535 0.3971 0.0
H2274 H 0.38417 0.23551 0.37949 0.0
H2275 H 0.39725 0.21056 0.41236 0.0
H2276 H 0.42244 0.16666 0.32951 0.0
H2277 H 0.4076 0.19013 0.29663 0.0
H2278 H 0.39758 0.13691 0.37156 0.0
H2279 H 0.47041 0.21783 0.42973 0.0
H2280 H 0.4378 0.22136 0.43599 0.0
H2281 H 0.45491 0.22085 0.39694 0.0
C2282 C 0.39209 0.22029 0.36821 0.0
C2283 C 0.39502 0.21507 0.33526 0.0
C2284 C 0.40004 0.20632 0.38709 0.0
C2285 C 0.41157 0.18717 0.37345 0.0
C2286 C 0.41392 0.18154 0.34065 0.0
H2287 H 0.50433 0.11769 0.46019 0.0
H2288 H 0.48881 0.14528 0.43341 0.0
C2289 C 0.40563 0.19519 0.32181 0.0
C2290 C 0.42071 0.17253 0.3931 0.0
H2291 H 0.46094 0.17826 0.44973 0.0
C2292 C 0.41148 0.14599 0.38859 0.0
C2293 C 0.4392 0.18431 0.41502 0.0
C2294 C 0.45138 0.21263 0.41952 0.0
C2295 C 0.42016 0.13092 0.40524 0.0
C2296 C 0.43781 0.14269 0.42808 0.0
C2297 C 0.44715 0.16924 0.43256 0.0
C2298 C 0.44732 0.12769 0.44683 0.0
C2299 C 0.41093 0.10252 0.39732 0.0
C2300 C 0.42929 0.10935 0.46432 0.0
C2301 C 0.43809 0.09334 0.47904 0.0
C2302 C 0.46515 0.09583 0.47735 0.0
C2303 C 0.48335 0.11536 0.4618 0.0
C2304 C 0.47449 0.13108 0.44648 0.0
H2305 H 0.40443 0.09715 0.37341 0.0
H2306 H 0.42676 0.09381 0.39859 0.0
H2307 H 0.39382 0.09442 0.41427 0.0
H2308 H 0.40831 0.10697 0.46595 0.0
H2309 H 0.42365 0.07872 0.4914 0.0
H2310 H 0.67027 0.85322 0.70248 0.0
H2311 H 0.65323 0.8732 0.66726 0.0
H2312 H 0.65232 0.81019 0.59576 0.0
H2313 H 0.66955 0.79005 0.63098 0.0
H2314 H 0.67119 0.85638 0.57181 0.0
H2315 H 0.57704 0.85054 0.64723 0.0
H2316 H 0.60511 0.86618 0.66825 0.0
H2317 H 0.59929 0.83334 0.65288 0.0
C2318 C 0.6664 0.84357 0.67929 0.0
C2319 C 0.67098 0.81991 0.66966 0.0
C2320 C 0.65658 0.85498 0.65921 0.0
C2321 C 0.65086 0.84289 0.62917 0.0
C2322 C 0.65637 0.81974 0.61895 0.0
H2323 H 0.55859 0.90587 0.52851 0.0
H2324 H 0.5732 0.87472 0.54988 0.0
C2325 C 0.66633 0.80833 0.63903 0.0
C2326 C 0.6391 0.85458 0.60868 0.0
H2327 H 0.58824 0.87936 0.60814 0.0
C2328 C 0.65288 0.86112 0.57954 0.0
C2329 C 0.61485 0.86018 0.61836 0.0
C2330 C 0.59806 0.85195 0.64823 0.0
C2331 C 0.64385 0.87446 0.56073 0.0
C2332 C 0.62072 0.88185 0.57167 0.0
C2333 C 0.60614 0.87398 0.5999 0.0
C2334 C 0.61251 0.89952 0.55575 0.0
C2335 C 0.65929 0.88072 0.52945 0.0
C2336 C 0.6297 0.92375 0.55197 0.0
C2337 C 0.62143 0.9415 0.5399 0.0
C2338 C 0.59565 0.93552 0.53155 0.0
C2339 C 0.57855 0.91106 0.53473 0.0
C2340 C 0.58688 0.89326 0.54691 0.0
H2341 H 0.67029 0.86678 0.51978 0.0
H2342 H 0.64619 0.88113 0.51209 0.0
H2343 H 0.67392 0.89964 0.5326 0.0
H2344 H 0.64932 0.92927 0.55931 0.0
H2345 H 0.63517 0.96012 0.53774 0.0
H2346 H 0.73154 0.18964 0.27421 0.0
H2347 H 0.69879 0.15817 0.3039 0.0
H2348 H 0.69202 0.21626 0.37981 0.0
H2349 H 0.72557 0.24789 0.35034 0.0
H2350 H 0.70265 0.14745 0.36647 0.0
H2351 H 0.61397 0.17813 0.3604 0.0
H2352 H 0.64326 0.18644 0.33288 0.0
H2353 H 0.6432 0.20191 0.3723 0.0
C2354 C 0.72306 0.19581 0.29715 0.0
C2355 C 0.73072 0.22143 0.3096 0.0
C2356 C 0.70429 0.17777 0.31409 0.0
C2357 C 0.69262 0.1849 0.34384 0.0
C2358 C 0.70037 0.21041 0.3566 0.0
H2359 H 0.57404 0.08525 0.46832 0.0
H2360 H 0.60335 0.12293 0.44543 0.0
C2361 C 0.71941 0.22849 0.33969 0.0
C2362 C 0.67321 0.16523 0.3617 0.0
H2363 H 0.60756 0.14233 0.38663 0.0
C2364 C 0.68189 0.14642 0.37106 0.0
C2365 C 0.64618 0.16403 0.36786 0.0
C2366 C 0.63587 0.18357 0.35777 0.0
C2367 C 0.66423 0.12622 0.38597 0.0
C2368 C 0.63699 0.1244 0.39102 0.0
C2369 C 0.6284 0.14366 0.38259 0.0
C2370 C 0.61723 0.10198 0.40367 0.0
C2371 C 0.67494 0.10698 0.39622 0.0
C2372 C 0.61451 0.07779 0.38724 0.0
C2373 C 0.59785 0.0563 0.40018 0.0
C2374 C 0.58329 0.05845 0.4298 0.0
C2375 C 0.58491 0.08284 0.44546 0.0
C2376 C 0.60172 0.10442 0.43247 0.0
H2377 H 0.6963 0.11479 0.39901 0.0
H2378 H 0.66421 0.10043 0.41879 0.0
H2379 H 0.67245 0.09032 0.37812 0.0
H2380 H 0.62581 0.07548 0.36465 0.0
H2381 H 0.59695 0.0379 0.38724 0.0
H2382 H 0.88373 0.6745 0.30819 0.0
H2383 H 0.90894 0.66352 0.34333 0.0
H2384 H 0.85592 0.68094 0.42275 0.0
H2385 H 0.82918 0.68984 0.38752 0.0
H2386 H 0.93576 0.68557 0.39161 0.0
H2387 H 0.8482 0.60924 0.43247 0.0
H2388 H 0.84798 0.62654 0.40076 0.0
H2389 H 0.84412 0.64036 0.44088 0.0
C2390 C 0.87715 0.67574 0.33309 0.0
C2391 C 0.85385 0.68237 0.34476 0.0
C2392 C 0.89188 0.6698 0.35326 0.0
C2393 C 0.88396 0.67069 0.38567 0.0
C2394 C 0.86199 0.67932 0.39774 0.0
H2395 H 0.98197 0.62495 0.50224 0.0
H2396 H 0.96167 0.65247 0.48159 0.0
C2397 C 0.8469 0.68479 0.3775 0.0
C2398 C 0.89763 0.66075 0.40608 0.0
H2399 H 0.8877 0.61386 0.4527 0.0
C2400 C 0.92525 0.67002 0.40521 0.0
C2401 C 0.88392 0.64035 0.42372 0.0
C2402 C 0.85448 0.62835 0.42437 0.0
C2403 C 0.93959 0.65877 0.42029 0.0
C2404 C 0.92586 0.63809 0.43737 0.0
C2405 C 0.89819 0.62974 0.43961 0.0
C2406 C 0.9395 0.62254 0.44961 0.0
C2407 C 0.96932 0.66816 0.41634 0.0
C2408 C 0.93369 0.59666 0.43877 0.0
C2409 C 0.94479 0.58104 0.45083 0.0
C2410 C 0.96227 0.59089 0.47384 0.0
C2411 C 0.96875 0.61694 0.48428 0.0
C2412 C 0.95722 0.63265 0.47243 0.0
H2413 H 0.97693 0.681 0.39766 0.0
H2414 H 0.9763 0.67879 0.43872 0.0
H2415 H 0.97791 0.65205 0.41046 0.0
H2416 H 0.92024 0.58842 0.42108 0.0
H2417 H 0.93954 0.56109 0.44212 0.0
H2418 H 0.28267 0.82182 0.36234 0.0
H2419 H 0.30988 0.85379 0.39879 0.0
H2420 H 0.37886 0.8564 0.33234 0.0
H2421 H 0.35192 0.82526 0.29563 0.0
H2422 H 0.38208 0.85105 0.40046 0.0
H2423 H 0.34641 0.93117 0.38191 0.0
H2424 H 0.32248 0.9013 0.38892 0.0
H2425 H 0.34423 0.90375 0.35313 0.0
C2426 C 0.30362 0.82929 0.35549 0.0
C2427 C 0.31511 0.82097 0.32606 0.0
C2428 C 0.31912 0.8475 0.37633 0.0
C2429 C 0.34635 0.85748 0.36816 0.0
C2430 C 0.35789 0.84888 0.3391 0.0
H2431 H 0.48572 0.96177 0.43895 0.0
H2432 H 0.45281 0.92716 0.413 0.0
C2433 C 0.34244 0.83095 0.31821 0.0
C2434 C 0.36308 0.87708 0.38954 0.0
H2435 H 0.37997 0.94033 0.41494 0.0
C2436 C 0.38151 0.87054 0.40389 0.0
C2437 C 0.36215 0.90241 0.39404 0.0
C2438 C 0.34288 0.91032 0.37867 0.0
C2439 C 0.39931 0.88878 0.4224 0.0
C2440 C 0.39917 0.9144 0.42588 0.0
C2441 C 0.38017 0.92075 0.4122 0.0
C2442 C 0.4192 0.93503 0.44248 0.0
C2443 C 0.41795 0.88035 0.43819 0.0
C2444 C 0.41136 0.95146 0.46728 0.0
C2445 C 0.43018 0.97153 0.48198 0.0
C2446 C 0.45729 0.97568 0.4721 0.0
C2447 C 0.46507 0.95909 0.44736 0.0
C2448 C 0.44624 0.93913 0.43259 0.0
H2449 H 0.40997 0.86001 0.44185 0.0
H2450 H 0.43696 0.88278 0.42298 0.0
H2451 H 0.42188 0.89168 0.46126 0.0
H2452 H 0.39063 0.94879 0.47523 0.0
H2453 H 0.42343 0.98391 0.50093 0.0
H2454 H 0.19891 0.29038 0.29395 0.0
H2455 H 0.17363 0.31854 0.3218 0.0
H2456 H 0.24529 0.37194 0.35127 0.0
H2457 H 0.27072 0.34459 0.32187 0.0
H2458 H 0.16403 0.33559 0.3807 0.0
H2459 H 0.21669 0.41998 0.31974 0.0
H2460 H 0.2219 0.38947 0.30663 0.0
H2461 H 0.23839 0.4095 0.33865 0.0
C2462 C 0.20942 0.30817 0.30621 0.0
C2463 C 0.23711 0.31484 0.30567 0.0
C2464 C 0.19481 0.32437 0.32233 0.0
C2465 C 0.20726 0.34791 0.33855 0.0
C2466 C 0.23489 0.35439 0.33848 0.0
H2467 H 0.14252 0.46638 0.45486 0.0
H2468 H 0.17107 0.43957 0.43126 0.0
C2469 C 0.24954 0.33833 0.32203 0.0
C2470 C 0.19129 0.36522 0.35575 0.0
H2471 H 0.18639 0.426 0.36411 0.0
C2472 C 0.16902 0.35533 0.37686 0.0
C2473 C 0.19737 0.3912 0.35119 0.0
C2474 C 0.21971 0.40313 0.3276 0.0
C2475 C 0.15312 0.37036 0.39334 0.0
C2476 C 0.15924 0.39626 0.38878 0.0
C2477 C 0.18162 0.4063 0.36802 0.0
C2478 C 0.14182 0.41269 0.40397 0.0
C2479 C 0.12991 0.35839 0.41587 0.0
C2480 C 0.11574 0.40689 0.3967 0.0
C2481 C 0.09949 0.42229 0.40995 0.0
C2482 C 0.10858 0.44412 0.43114 0.0
C2483 C 0.13465 0.44982 0.43876 0.0
C2484 C 0.15108 0.43446 0.42514 0.0
H2485 H 0.13165 0.34069 0.4229 0.0
H2486 H 0.12797 0.37168 0.43733 0.0
H2487 H 0.11157 0.35358 0.40436 0.0
H2488 H 0.10798 0.39054 0.38026 0.0
H2489 H 0.07966 0.41706 0.40331 0.0
H2490 H 0.36108 0.24954 0.70242 0.0
H2491 H 0.38788 0.22281 0.67374 0.0
H2492 H 0.32198 0.15639 0.68572 0.0
H2493 H 0.29481 0.18302 0.71362 0.0
H2494 H 0.38587 0.16522 0.70337 0.0
H2495 H 0.36489 0.16824 0.58237 0.0
H2496 H 0.36783 0.19577 0.61114 0.0
H2497 H 0.34 0.16842 0.61548 0.0
C2498 C 0.35213 0.22926 0.69885 0.0
C2499 C 0.32564 0.21861 0.71083 0.0
C2500 C 0.3676 0.21392 0.68244 0.0
C2501 C 0.35714 0.18741 0.67746 0.0
C2502 C 0.3307 0.17671 0.6892 0.0
H2503 H 0.42357 0.07096 0.56091 0.0
H2504 H 0.39479 0.09694 0.58648 0.0
C2505 C 0.31517 0.19205 0.70546 0.0
C2506 C 0.37389 0.17091 0.66061 0.0
H2507 H 0.39402 0.14515 0.58749 0.0
C2508 C 0.38768 0.16089 0.67803 0.0
C2509 C 0.37612 0.16481 0.62755 0.0
C2510 C 0.36149 0.17474 0.60775 0.0
C2511 C 0.4036 0.14525 0.66347 0.0
C2512 C 0.4065 0.1396 0.63018 0.0
C2513 C 0.39224 0.14934 0.61284 0.0
C2514 C 0.42439 0.12401 0.61319 0.0
C2515 C 0.41662 0.13442 0.68426 0.0
C2516 C 0.45109 0.13056 0.61849 0.0
C2517 C 0.46751 0.11559 0.60407 0.0
C2518 C 0.4581 0.09359 0.58329 0.0
C2519 C 0.43166 0.08755 0.57686 0.0
C2520 C 0.4151 0.10252 0.59155 0.0
H2521 H 0.40594 0.13346 0.70829 0.0
H2522 H 0.41758 0.11512 0.67441 0.0
H2523 H 0.43701 0.14686 0.68643 0.0
H2524 H 0.45939 0.14737 0.63398 0.0
H2525 H 0.48775 0.12131 0.60945 0.0
H2526 H 0.81732 0.29883 0.64964 0.0
H2527 H 0.85126 0.33212 0.62375 0.0
H2528 H 0.90744 0.32768 0.68285 0.0
H2529 H 0.87279 0.29551 0.71009 0.0
H2530 H 0.90856 0.37454 0.68418 0.0
H2531 H 0.91293 0.33524 0.55943 0.0
H2532 H 0.87982 0.33468 0.57482 0.0
H2533 H 0.89608 0.31595 0.59035 0.0
C2534 C 0.83704 0.3047 0.65666 0.0
C2535 C 0.84249 0.29469 0.68178 0.0
C2536 C 0.85658 0.32356 0.64161 0.0
C2537 C 0.88219 0.33236 0.65095 0.0
C2538 C 0.88794 0.32125 0.67505 0.0
H2539 H 1.00328 0.44939 0.5505 0.0
H2540 H 0.97944 0.40954 0.57229 0.0
C2541 C 0.86824 0.30266 0.69041 0.0
C2542 C 0.90196 0.35484 0.63799 0.0
H2543 H 0.92961 0.38075 0.56982 0.0
C2544 C 0.91342 0.37568 0.65914 0.0
C2545 C 0.90878 0.35644 0.60533 0.0
C2546 C 0.89896 0.33425 0.58122 0.0
C2547 C 0.93056 0.39823 0.64866 0.0
C2548 C 0.93585 0.40048 0.61604 0.0
C2549 C 0.92532 0.3793 0.59483 0.0
C2550 C 0.95121 0.42491 0.6036 0.0
C2551 C 0.94288 0.41937 0.6728 0.0
C2552 C 0.94332 0.44689 0.6137 0.0
C2553 C 0.95705 0.46972 0.60159 0.0
C2554 C 0.97886 0.47117 0.57857 0.0
C2555 C 0.98672 0.4491 0.56832 0.0
C2556 C 0.97303 0.42624 0.58069 0.0
H2557 H 0.94456 0.4119 0.6945 0.0
H2558 H 0.96281 0.4306 0.66358 0.0
H2559 H 0.93016 0.43216 0.67942 0.0
H2560 H 0.92612 0.44632 0.63059 0.0
H2561 H 0.95009 0.48611 0.60983 0.0
H2562 H 0.23577 0.73738 0.67211 0.0
H2563 H 0.20591 0.70509 0.6394 0.0
H2564 H 0.2234 0.64654 0.67912 0.0
H2565 H 0.25289 0.67876 0.71261 0.0
H2566 H 0.214 0.66736 0.59458 0.0
H2567 H 0.14325 0.62673 0.69359 0.0
H2568 H 0.16875 0.65642 0.69867 0.0
H2569 H 0.17653 0.62696 0.69577 0.0
C2570 C 0.23331 0.71764 0.67397 0.0
C2571 C 0.24656 0.7107 0.6953 0.0
C2572 C 0.21624 0.69919 0.65516 0.0
C2573 C 0.21201 0.67338 0.6572 0.0
C2574 C 0.22587 0.66634 0.67766 0.0
H2575 H 0.13787 0.54798 0.52406 0.0
H2576 H 0.16871 0.58137 0.55446 0.0
C2577 C 0.24292 0.68481 0.6966 0.0
C2578 C 0.19304 0.65395 0.63793 0.0
H2579 H 0.13659 0.60459 0.6428 0.0
C2580 C 0.19705 0.65365 0.60511 0.0
C2581 C 0.17064 0.63637 0.65171 0.0
C2582 C 0.16431 0.63671 0.68687 0.0
C2583 C 0.17956 0.63599 0.5857 0.0
C2584 C 0.15772 0.61781 0.59942 0.0
C2585 C 0.15346 0.61838 0.63226 0.0
C2586 C 0.13903 0.59798 0.5802 0.0
C2587 C 0.18437 0.63733 0.55071 0.0
C2588 C 0.11195 0.59586 0.58489 0.0
C2589 C 0.09417 0.57661 0.5677 0.0
C2590 C 0.1031 0.55899 0.54553 0.0
C2591 C 0.13028 0.5613 0.54074 0.0
C2592 C 0.14801 0.58049 0.55802 0.0
H2593 H 0.19696 0.65632 0.54496 0.0
H2594 H 0.19471 0.62324 0.53948 0.0
H2595 H 0.16551 0.63297 0.54035 0.0
H2596 H 0.10455 0.60909 0.60195 0.0
H2597 H 0.07339 0.57542 0.57201 0.0
loop_
_geom_bond_atom_site_label_1
_geom_bond_atom_site_label_2
_geom_bond_distance
_geom_bond_site_symmetry_2
_ccdc_geom_bond_type
Tb0 N29 2.617 . S
Tb0 N35 2.572 . S
Tb0 O44 2.465 . S
Tb0 O45 2.387 . S
Tb0 O47 2.428 . S
Tb0 O48 2.308 . S
Tb0 O52 2.349 . S
Tb0 O55 2.393 . S
Tb0 C64 2.802 . S
C1 N2 1.379 . S
C1 C4 1.416 . S
C1 C8 1.424 . S
N2 C1 1.379 . S
N2 C5 1.334 . S
N2 Tb11 2.617 . S
C3 C5 1.390 . S
C3 C6 1.339 . S
C3 H23 0.930 . S
C4 C1 1.416 . S
C4 C6 1.416 . S
C4 C10 1.448 . S
C5 N2 1.334 . S
C5 C3 1.390 . S
C5 H16 0.930 . S
C6 C3 1.339 . S
C6 C4 1.416 . S
C6 H27 0.930 . S
C7 C8 1.413 . S
C7 C9 1.427 . S
C7 C13 1.416 . S
C8 C1 1.424 . S
C8 C7 1.413 . S
C8 N12 1.361 . S
C9 C7 1.427 . S
C9 C10 1.328 . S
C9 H24 0.929 . S
C10 C4 1.448 . S
C10 C9 1.328 . S
C10 H25 0.930 . S
Tb11 N2 2.617 . S
Tb11 N12 2.572 . S
Tb11 O46 2.349 . S
Tb11 O49 2.393 . S
Tb11 O50 2.465 . S
Tb11 O51 2.387 . S
Tb11 O53 2.428 . S
Tb11 O54 2.308 . S
Tb11 C75 2.802 . S
N12 C8 1.361 . S
N12 Tb11 2.572 . S
N12 C14 1.340 . S
C13 C7 1.416 . S
C13 C15 1.332 . S
C13 H21 0.931 . S
C14 N12 1.340 . S
C14 C15 1.407 . S
C14 H20 0.930 . S
C15 C13 1.332 . S
C15 C14 1.407 . S
C15 H17 0.929 . S
H16 C5 0.930 . S
H17 C15 0.929 . S
H18 C33 0.930 . S
H19 C40 0.929 . S
H20 C14 0.930 . S
H21 C13 0.931 . S
H22 C36 0.930 . S
H23 C3 0.930 . S
H24 C9 0.929 . S
H25 C10 0.930 . S
H26 C31 0.930 . S
H27 C6 0.930 . S
H28 C39 0.931 . S
N29 Tb0 2.617 . S
N29 C30 1.379 . S
N29 C33 1.334 . S
C30 N29 1.379 . S
C30 C32 1.416 . S
C30 C38 1.424 . S
C31 H26 0.930 . S
C31 C33 1.390 . S
C31 C34 1.339 . S
C32 C30 1.416 . S
C32 C34 1.416 . S
C32 C65 1.448 . S
C33 H18 0.930 . S
C33 N29 1.334 . S
C33 C31 1.390 . S
C34 C31 1.339 . S
C34 C32 1.416 . S
C34 H41 0.930 . S
N35 Tb0 2.572 . S
N35 C36 1.340 . S
N35 C38 1.361 . S
C36 H22 0.930 . S
C36 N35 1.340 . S
C36 C40 1.407 . S
C37 C38 1.413 . S
C37 C39 1.416 . S
C37 C66 1.427 . S
C38 C30 1.424 . S
C38 N35 1.361 . S
C38 C37 1.413 . S
C39 H28 0.931 . S
C39 C37 1.416 . S
C39 C40 1.332 . S
C40 H19 0.929 . S
C40 C36 1.407 . S
C40 C39 1.332 . S
H41 C34 0.930 . S
H42 C65 0.930 . S
H43 C66 0.929 . S
O44 Tb0 2.465 . S
O44 C64 1.264 . S
O45 Tb0 2.387 . S
O45 C56 1.264 . S
O46 Tb11 2.349 . S
O46 C56 1.243 . S
O47 Tb0 2.428 . S
O47 C64 1.256 . S
O48 Tb0 2.308 . S
O48 C63 1.266 . S
O49 Tb11 2.393 . S
O49 C63 1.248 . S
O50 Tb11 2.465 . S
O50 C75 1.264 . S
O51 Tb11 2.387 . S
O51 C67 1.264 . S
O52 Tb0 2.349 . S
O52 C67 1.243 . S
O53 Tb11 2.428 . S
O53 C75 1.256 . S
O54 Tb11 2.308 . S
O54 C74 1.266 . S
O55 Tb0 2.393 . S
O55 C74 1.248 . S
C56 O45 1.264 . S
C56 O46 1.243 . S
C57 C60 1.399 . S
C57 C62 1.383 . S
C57 C64 1.496 . S
C58 C59 1.399 . S
C58 C62 1.389 . S
C59 C58 1.399 . S
C59 C61 1.380 . S
C59 H76 0.929 . S
C60 C57 1.399 . S
C60 C61 1.392 . S
C60 H77 0.929 . S
C61 C59 1.380 . S
C61 C60 1.392 . S
C61 H78 0.929 . S
C62 C57 1.383 . S
C62 C58 1.389 . S
C62 H79 0.931 . S
C63 O48 1.266 . S
C63 O49 1.248 . S
C64 Tb0 2.802 . S
C64 O44 1.264 . S
C64 O47 1.256 . S
C64 C57 1.496 . S
C65 C32 1.448 . S
C65 H42 0.930 . S
C65 C66 1.328 . S
C66 C37 1.427 . S
C66 H43 0.929 . S
C66 C65 1.328 . S
C67 O51 1.264 . S
C67 O52 1.243 . S
C68 C71 1.399 . S
C68 C72 1.383 . S
C68 C75 1.496 . S
C69 C70 1.399 . S
C69 C72 1.389 . S
C70 C69 1.399 . S
C70 C73 1.380 . S
C70 H80 0.929 . S
C71 C68 1.399 . S
C71 C73 1.392 . S
C71 H81 0.929 . S
C72 C68 1.383 . S
C72 C69 1.389 . S
C72 H82 0.931 . S
C73 C70 1.380 . S
C73 C71 1.392 . S
C73 H83 0.929 . S
C74 O54 1.266 . S
C74 O55 1.248 . S
C75 Tb11 2.802 . S
C75 O50 1.264 . S
C75 O53 1.256 . S
C75 C68 1.496 . S
H76 C59 0.929 . S
H77 C60 0.929 . S
H78 C61 0.929 . S
H79 C62 0.931 . S
H80 C70 0.929 . S
H81 C71 0.929 . S
H82 C72 0.931 . S
H83 C73 0.929 . S
Tb84 N113 2.617 . S
Tb84 N119 2.572 . S
Tb84 O128 2.465 . S
Tb84 O129 2.387 . S
Tb84 O131 2.428 . S
Tb84 O132 2.308 . S
Tb84 O136 2.349 . S
Tb84 O139 2.393 . S
Tb84 C148 2.802 . S
C85 N86 1.379 . S
C85 C88 1.416 . S
C85 C92 1.424 . S
N86 C85 1.379 . S
N86 C89 1.334 . S
N86 Tb95 2.617 . S
C87 C89 1.390 . S
C87 C90 1.339 . S
C87 H107 0.930 . S
C88 C85 1.416 . S
C88 C90 1.416 . S
C88 C94 1.448 . S
C89 N86 1.334 . S
C89 C87 1.390 . S
C89 H100 0.930 . S
C90 C87 1.339 . S
C90 C88 1.416 . S
C90 H111 0.930 . S
C91 C92 1.413 . S
C91 C93 1.427 . S
C91 C97 1.416 . S
C92 C85 1.424 . S
C92 C91 1.413 . S
C92 N96 1.361 . S
C93 C91 1.427 . S
C93 C94 1.328 . S
C93 H108 0.929 . S
C94 C88 1.448 . S
C94 C93 1.328 . S
C94 H109 0.930 . S
Tb95 N86 2.617 . S
Tb95 N96 2.572 . S
Tb95 O130 2.349 . S
Tb95 O133 2.393 . S
Tb95 O134 2.465 . S
Tb95 O135 2.387 . S
Tb95 O137 2.428 . S
Tb95 O138 2.308 . S
Tb95 C159 2.802 . S
N96 C92 1.361 . S
N96 Tb95 2.572 . S
N96 C98 1.340 . S
C97 C91 1.416 . S
C97 C99 1.332 . S
C97 H105 0.931 . S
C98 N96 1.340 . S
C98 C99 1.407 . S
C98 H104 0.930 . S
C99 C97 1.332 . S
C99 C98 1.407 . S
C99 H101 0.929 . S
H100 C89 0.930 . S
H101 C99 0.929 . S
H102 C117 0.930 . S
H103 C124 0.929 . S
H104 C98 0.930 . S
H105 C97 0.931 . S
H106 C120 0.930 . S
H107 C87 0.930 . S
H108 C93 0.929 . S
H109 C94 0.930 . S
H110 C115 0.930 . S
H111 C90 0.930 . S
H112 C123 0.931 . S
N113 Tb84 2.617 . S
N113 C114 1.379 . S
N113 C117 1.334 . S
C114 N113 1.379 . S
C114 C116 1.416 . S
C114 C122 1.424 . S
C115 H110 0.930 . S
C115 C117 1.390 . S
C115 C118 1.339 . S
C116 C114 1.416 . S
C116 C118 1.416 . S
C116 C149 1.448 . S
C117 H102 0.930 . S
C117 N113 1.334 . S
C117 C115 1.390 . S
C118 C115 1.339 . S
C118 C116 1.416 . S
C118 H125 0.930 . S
N119 Tb84 2.572 . S
N119 C120 1.340 . S
N119 C122 1.361 . S
C120 H106 0.930 . S
C120 N119 1.340 . S
C120 C124 1.407 . S
C121 C122 1.413 . S
C121 C123 1.416 . S
C121 C150 1.427 . S
C122 C114 1.424 . S
C122 N119 1.361 . S
C122 C121 1.413 . S
C123 H112 0.931 . S
C123 C121 1.416 . S
C123 C124 1.332 . S
C124 H103 0.929 . S
C124 C120 1.407 . S
C124 C123 1.332 . S
H125 C118 0.930 . S
H126 C149 0.930 . S
H127 C150 0.929 . S
O128 Tb84 2.465 . S
O128 C148 1.264 . S
O129 Tb84 2.387 . S
O129 C140 1.264 . S
O130 Tb95 2.349 . S
O130 C140 1.243 . S
O131 Tb84 2.428 . S
O131 C148 1.256 . S
O132 Tb84 2.308 . S
O132 C147 1.266 . S
O133 Tb95 2.393 . S
O133 C147 1.248 . S
O134 Tb95 2.465 . S
O134 C159 1.264 . S
O135 Tb95 2.387 . S
O135 C151 1.264 . S
O136 Tb84 2.349 . S
O136 C151 1.243 . S
O137 Tb95 2.428 . S
O137 C159 1.256 . S
O138 Tb95 2.308 . S
O138 C158 1.266 . S
O139 Tb84 2.393 . S
O139 C158 1.248 . S
C140 O129 1.264 . S
C140 O130 1.243 . S
C141 C144 1.399 . S
C141 C146 1.383 . S
C141 C148 1.496 . S
C142 C143 1.399 . S
C142 C146 1.389 . S
C143 C142 1.399 . S
C143 C145 1.380 . S
C143 H160 0.929 . S
C144 C141 1.399 . S
C144 C145 1.392 . S
C144 H161 0.929 . S
C145 C143 1.380 . S
C145 C144 1.392 . S
C145 H162 0.929 . S
C146 C141 1.383 . S
C146 C142 1.389 . S
C146 H163 0.931 . S
C147 O132 1.266 . S
C147 O133 1.248 . S
C148 Tb84 2.802 . S
C148 O128 1.264 . S
C148 O131 1.256 . S
C148 C141 1.496 . S
C149 C116 1.448 . S
C149 H126 0.930 . S
C149 C150 1.328 . S
C150 C121 1.427 . S
C150 H127 0.929 . S
C150 C149 1.328 . S
C151 O135 1.264 . S
C151 O136 1.243 . S
C152 C155 1.399 . S
C152 C156 1.383 . S
C152 C159 1.496 . S
C153 C154 1.399 . S
C153 C156 1.389 . S
C154 C153 1.399 . S
C154 C157 1.380 . S
C154 H164 0.929 . S
C155 C152 1.399 . S
C155 C157 1.392 . S
C155 H165 0.929 . S
C156 C152 1.383 . S
C156 C153 1.389 . S
C156 H166 0.931 . S
C157 C154 1.380 . S
C157 C155 1.392 . S
C157 H167 0.929 . S
C158 O138 1.266 . S
C158 O139 1.248 . S
C159 Tb95 2.802 . S
C159 O134 1.264 . S
C159 O137 1.256 . S
C159 C152 1.496 . S
H160 C143 0.929 . S
H161 C144 0.929 . S
H162 C145 0.929 . S
H163 C146 0.931 . S
H164 C154 0.929 . S
H165 C155 0.929 . S
H166 C156 0.931 . S
H167 C157 0.929 . S
Tb168 N197 2.617 . S
Tb168 N203 2.572 . S
Tb168 O212 2.465 . S
Tb168 O213 2.387 . S
Tb168 O215 2.428 . S
Tb168 O216 2.308 . S
Tb168 O220 2.349 . S
Tb168 O223 2.393 . S
Tb168 C232 2.802 . S
C169 N170 1.379 . S
C169 C172 1.416 . S
C169 C176 1.424 . S
N170 C169 1.379 . S
N170 C173 1.334 . S
N170 Tb179 2.617 . S
C171 C173 1.390 . S
C171 C174 1.339 . S
C171 H191 0.930 . S
C172 C169 1.416 . S
C172 C174 1.416 . S
C172 C178 1.448 . S
C173 N170 1.334 . S
C173 C171 1.390 . S
C173 H184 0.930 . S
C174 C171 1.339 . S
C174 C172 1.416 . S
C174 H195 0.930 . S
C175 C176 1.413 . S
C175 C177 1.427 . S
C175 C181 1.416 . S
C176 C169 1.424 . S
C176 C175 1.413 . S
C176 N180 1.361 . S
C177 C175 1.427 . S
C177 C178 1.328 . S
C177 H192 0.929 . S
C178 C172 1.448 . S
C178 C177 1.328 . S
C178 H193 0.930 . S
Tb179 N170 2.617 . S
Tb179 N180 2.572 . S
Tb179 O214 2.349 . S
Tb179 O217 2.393 . S
Tb179 O218 2.465 . S
Tb179 O219 2.387 . S
Tb179 O221 2.428 . S
Tb179 O222 2.308 . S
Tb179 C243 2.802 . S
N180 C176 1.361 . S
N180 Tb179 2.572 . S
N180 C182 1.340 . S
C181 C175 1.416 . S
C181 C183 1.332 . S
C181 H189 0.931 . S
C182 N180 1.340 . S
C182 C183 1.407 . S
C182 H188 0.930 . S
C183 C181 1.332 . S
C183 C182 1.407 . S
C183 H185 0.929 . S
H184 C173 0.930 . S
H185 C183 0.929 . S
H186 C201 0.930 . S
H187 C208 0.929 . S
H188 C182 0.930 . S
H189 C181 0.931 . S
H190 C204 0.930 . S
H191 C171 0.930 . S
H192 C177 0.929 . S
H193 C178 0.930 . S
H194 C199 0.930 . S
H195 C174 0.930 . S
H196 C207 0.931 . S
N197 Tb168 2.617 . S
N197 C198 1.379 . S
N197 C201 1.334 . S
C198 N197 1.379 . S
C198 C200 1.416 . S
C198 C206 1.424 . S
C199 H194 0.930 . S
C199 C201 1.390 . S
C199 C202 1.339 . S
C200 C198 1.416 . S
C200 C202 1.416 . S
C200 C233 1.448 . S
C201 H186 0.930 . S
C201 N197 1.334 . S
C201 C199 1.390 . S
C202 C199 1.339 . S
C202 C200 1.416 . S
C202 H209 0.930 . S
N203 Tb168 2.572 . S
N203 C204 1.340 . S
N203 C206 1.361 . S
C204 H190 0.930 . S
C204 N203 1.340 . S
C204 C208 1.407 . S
C205 C206 1.413 . S
C205 C207 1.416 . S
C205 C234 1.427 . S
C206 C198 1.424 . S
C206 N203 1.361 . S
C206 C205 1.413 . S
C207 H196 0.931 . S
C207 C205 1.416 . S
C207 C208 1.332 . S
C208 H187 0.929 . S
C208 C204 1.407 . S
C208 C207 1.332 . S
H209 C202 0.930 . S
H210 C233 0.930 . S
H211 C234 0.929 . S
O212 Tb168 2.465 . S
O212 C232 1.264 . S
O213 Tb168 2.387 . S
O213 C224 1.264 . S
O214 Tb179 2.349 . S
O214 C224 1.243 . S
O215 Tb168 2.428 . S
O215 C232 1.256 . S
O216 Tb168 2.308 . S
O216 C231 1.266 . S
O217 Tb179 2.393 . S
O217 C231 1.248 . S
O218 Tb179 2.465 . S
O218 C243 1.264 . S
O219 Tb179 2.387 . S
O219 C235 1.264 . S
O220 Tb168 2.349 . S
O220 C235 1.243 . S
O221 Tb179 2.428 . S
O221 C243 1.256 . S
O222 Tb179 2.308 . S
O222 C242 1.266 . S
O223 Tb168 2.393 . S
O223 C242 1.248 . S
C224 O213 1.264 . S
C224 O214 1.243 . S
C225 C228 1.399 . S
C225 C230 1.383 . S
C225 C232 1.496 . S
C226 C227 1.399 . S
C226 C230 1.389 . S
C227 C226 1.399 . S
C227 C229 1.380 . S
C227 H244 0.929 . S
C228 C225 1.399 . S
C228 C229 1.392 . S
C228 H245 0.929 . S
C229 C227 1.380 . S
C229 C228 1.392 . S
C229 H246 0.929 . S
C230 C225 1.383 . S
C230 C226 1.389 . S
C230 H247 0.931 . S
C231 O216 1.266 . S
C231 O217 1.248 . S
C232 Tb168 2.802 . S
C232 O212 1.264 . S
C232 O215 1.256 . S
C232 C225 1.496 . S
C233 C200 1.448 . S
C233 H210 0.930 . S
C233 C234 1.328 . S
C234 C205 1.427 . S
C234 H211 0.929 . S
C234 C233 1.328 . S
C235 O219 1.264 . S
C235 O220 1.243 . S
C236 C239 1.399 . S
C236 C240 1.383 . S
C236 C243 1.496 . S
C237 C238 1.399 . S
C237 C240 1.389 . S
C238 C237 1.399 . S
C238 C241 1.380 . S
C238 H248 0.929 . S
C239 C236 1.399 . S
C239 C241 1.392 . S
C239 H249 0.929 . S
C240 C236 1.383 . S
C240 C237 1.389 . S
C240 H250 0.931 . S
C241 C238 1.380 . S
C241 C239 1.392 . S
C241 H251 0.929 . S
C242 O222 1.266 . S
C242 O223 1.248 . S
C243 Tb179 2.802 . S
C243 O218 1.264 . S
C243 O221 1.256 . S
C243 C236 1.496 . S
H244 C227 0.929 . S
H245 C228 0.929 . S
H246 C229 0.929 . S
H247 C230 0.931 . S
H248 C238 0.929 . S
H249 C239 0.929 . S
H250 C240 0.931 . S
H251 C241 0.929 . S
Tb252 N281 2.617 . S
Tb252 N287 2.572 . S
Tb252 O296 2.465 . S
Tb252 O297 2.387 . S
Tb252 O299 2.428 . S
Tb252 O300 2.308 . S
Tb252 O304 2.349 . S
Tb252 O307 2.393 . S
Tb252 C316 2.802 . S
C253 N254 1.379 . S
C253 C256 1.416 . S
C253 C260 1.424 . S
N254 C253 1.379 . S
N254 C257 1.334 . S
N254 Tb263 2.617 . S
C255 C257 1.390 . S
C255 C258 1.339 . S
C255 H275 0.930 . S
C256 C253 1.416 . S
C256 C258 1.416 . S
C256 C262 1.448 . S
C257 N254 1.334 . S
C257 C255 1.390 . S
C257 H268 0.930 . S
C258 C255 1.339 . S
C258 C256 1.416 . S
C258 H279 0.930 . S
C259 C260 1.413 . S
C259 C261 1.427 . S
C259 C265 1.416 . S
C260 C253 1.424 . S
C260 C259 1.413 . S
C260 N264 1.361 . S
C261 C259 1.427 . S
C261 C262 1.328 . S
C261 H276 0.929 . S
C262 C256 1.448 . S
C262 C261 1.328 . S
C262 H277 0.930 . S
Tb263 N254 2.617 . S
Tb263 N264 2.572 . S
Tb263 O298 2.349 . S
Tb263 O301 2.393 . S
Tb263 O302 2.465 . S
Tb263 O303 2.387 . S
Tb263 O305 2.428 . S
Tb263 O306 2.308 . S
Tb263 C327 2.802 . S
N264 C260 1.361 . S
N264 Tb263 2.572 . S
N264 C266 1.340 . S
C265 C259 1.416 . S
C265 C267 1.332 . S
C265 H273 0.931 . S
C266 N264 1.340 . S
C266 C267 1.407 . S
C266 H272 0.930 . S
C267 C265 1.332 . S
C267 C266 1.407 . S
C267 H269 0.929 . S
H268 C257 0.930 . S
H269 C267 0.929 . S
H270 C285 0.930 . S
H271 C292 0.929 . S
H272 C266 0.930 . S
H273 C265 0.931 . S
H274 C288 0.930 . S
H275 C255 0.930 . S
H276 C261 0.929 . S
H277 C262 0.930 . S
H278 C283 0.930 . S
H279 C258 0.930 . S
H280 C291 0.931 . S
N281 Tb252 2.617 . S
N281 C282 1.379 . S
N281 C285 1.334 . S
C282 N281 1.379 . S
C282 C284 1.416 . S
C282 C290 1.424 . S
C283 H278 0.930 . S
C283 C285 1.390 . S
C283 C286 1.339 . S
C284 C282 1.416 . S
C284 C286 1.416 . S
C284 C317 1.448 . S
C285 H270 0.930 . S
C285 N281 1.334 . S
C285 C283 1.390 . S
C286 C283 1.339 . S
C286 C284 1.416 . S
C286 H293 0.930 . S
N287 Tb252 2.572 . S
N287 C288 1.340 . S
N287 C290 1.361 . S
C288 H274 0.930 . S
C288 N287 1.340 . S
C288 C292 1.407 . S
C289 C290 1.413 . S
C289 C291 1.416 . S
C289 C318 1.427 . S
C290 C282 1.424 . S
C290 N287 1.361 . S
C290 C289 1.413 . S
C291 H280 0.931 . S
C291 C289 1.416 . S
C291 C292 1.332 . S
C292 H271 0.929 . S
C292 C288 1.407 . S
C292 C291 1.332 . S
H293 C286 0.930 . S
H294 C317 0.930 . S
H295 C318 0.929 . S
O296 Tb252 2.465 . S
O296 C316 1.264 . S
O297 Tb252 2.387 . S
O297 C308 1.264 . S
O298 Tb263 2.349 . S
O298 C308 1.243 . S
O299 Tb252 2.428 . S
O299 C316 1.256 . S
O300 Tb252 2.308 . S
O300 C315 1.266 . S
O301 Tb263 2.393 . S
O301 C315 1.248 . S
O302 Tb263 2.465 . S
O302 C327 1.264 . S
O303 Tb263 2.387 . S
O303 C319 1.264 . S
O304 Tb252 2.349 . S
O304 C319 1.243 . S
O305 Tb263 2.428 . S
O305 C327 1.256 . S
O306 Tb263 2.308 . S
O306 C326 1.266 . S
O307 Tb252 2.393 . S
O307 C326 1.248 . S
C308 O297 1.264 . S
C308 O298 1.243 . S
C309 C312 1.399 . S
C309 C314 1.383 . S
C309 C316 1.496 . S
C310 C311 1.399 . S
C310 C314 1.389 . S
C311 C310 1.399 . S
C311 C313 1.380 . S
C311 H328 0.929 . S
C312 C309 1.399 . S
C312 C313 1.392 . S
C312 H329 0.929 . S
C313 C311 1.380 . S
C313 C312 1.392 . S
C313 H330 0.929 . S
C314 C309 1.383 . S
C314 C310 1.389 . S
C314 H331 0.931 . S
C315 O300 1.266 . S
C315 O301 1.248 . S
C316 Tb252 2.802 . S
C316 O296 1.264 . S
C316 O299 1.256 . S
C316 C309 1.496 . S
C317 C284 1.448 . S
C317 H294 0.930 . S
C317 C318 1.328 . S
C318 C289 1.427 . S
C318 H295 0.929 . S
C318 C317 1.328 . S
C319 O303 1.264 . S
C319 O304 1.243 . S
C320 C323 1.399 . S
C320 C324 1.383 . S
C320 C327 1.496 . S
C321 C322 1.399 . S
C321 C324 1.389 . S
C322 C321 1.399 . S
C322 C325 1.380 . S
C322 H332 0.929 . S
C323 C320 1.399 . S
C323 C325 1.392 . S
C323 H333 0.929 . S
C324 C320 1.383 . S
C324 C321 1.389 . S
C324 H334 0.931 . S
C325 C322 1.380 . S
C325 C323 1.392 . S
C325 H335 0.929 . S
C326 O306 1.266 . S
C326 O307 1.248 . S
C327 Tb263 2.802 . S
C327 O302 1.264 . S
C327 O305 1.256 . S
C327 C320 1.496 . S
H328 C311 0.929 . S
H329 C312 0.929 . S
H330 C313 0.929 . S
H331 C314 0.931 . S
H332 C322 0.929 . S
H333 C323 0.929 . S
H334 C324 0.931 . S
H335 C325 0.929 . S
Tb336 N365 2.617 . S
Tb336 N371 2.572 . S
Tb336 O380 2.465 . S
Tb336 O381 2.387 . S
Tb336 O383 2.428 . S
Tb336 O384 2.308 . S
Tb336 O388 2.349 . S
Tb336 O391 2.393 . S
Tb336 C400 2.802 . S
C337 N338 1.379 . S
C337 C340 1.416 . S
C337 C344 1.424 . S
N338 C337 1.379 . S
N338 C341 1.334 . S
N338 Tb347 2.617 . S
C339 C341 1.390 . S
C339 C342 1.339 . S
C339 H359 0.930 . S
C340 C337 1.416 . S
C340 C342 1.416 . S
C340 C346 1.448 . S
C341 N338 1.334 . S
C341 C339 1.390 . S
C341 H352 0.930 . S
C342 C339 1.339 . S
C342 C340 1.416 . S
C342 H363 0.930 . S
C343 C344 1.413 . S
C343 C345 1.427 . S
C343 C349 1.416 . S
C344 C337 1.424 . S
C344 C343 1.413 . S
C344 N348 1.361 . S
C345 C343 1.427 . S
C345 C346 1.328 . S
C345 H360 0.929 . S
C346 C340 1.448 . S
C346 C345 1.328 . S
C346 H361 0.930 . S
Tb347 N338 2.617 . S
Tb347 N348 2.572 . S
Tb347 O382 2.349 . S
Tb347 O385 2.393 . S
Tb347 O386 2.465 . S
Tb347 O387 2.387 . S
Tb347 O389 2.428 . S
Tb347 O390 2.308 . S
Tb347 C411 2.802 . S
N348 C344 1.361 . S
N348 Tb347 2.572 . S
N348 C350 1.340 . S
C349 C343 1.416 . S
C349 C351 1.332 . S
C349 H357 0.931 . S
C350 N348 1.340 . S
C350 C351 1.407 . S
C350 H356 0.930 . S
C351 C349 1.332 . S
C351 C350 1.407 . S
C351 H353 0.929 . S
H352 C341 0.930 . S
H353 C351 0.929 . S
H354 C369 0.930 . S
H355 C376 0.929 . S
H356 C350 0.930 . S
H357 C349 0.931 . S
H358 C372 0.930 . S
H359 C339 0.930 . S
H360 C345 0.929 . S
H361 C346 0.930 . S
H362 C367 0.930 . S
H363 C342 0.930 . S
H364 C375 0.931 . S
N365 Tb336 2.617 . S
N365 C366 1.379 . S
N365 C369 1.334 . S
C366 N365 1.379 . S
C366 C368 1.416 . S
C366 C374 1.424 . S
C367 H362 0.930 . S
C367 C369 1.390 . S
C367 C370 1.339 . S
C368 C366 1.416 . S
C368 C370 1.416 . S
C368 C401 1.448 . S
C369 H354 0.930 . S
C369 N365 1.334 . S
C369 C367 1.390 . S
C370 C367 1.339 . S
C370 C368 1.416 . S
C370 H377 0.930 . S
N371 Tb336 2.572 . S
N371 C372 1.340 . S
N371 C374 1.361 . S
C372 H358 0.930 . S
C372 N371 1.340 . S
C372 C376 1.407 . S
C373 C374 1.413 . S
C373 C375 1.416 . S
C373 C402 1.427 . S
C374 C366 1.424 . S
C374 N371 1.361 . S
C374 C373 1.413 . S
C375 H364 0.931 . S
C375 C373 1.416 . S
C375 C376 1.332 . S
C376 H355 0.929 . S
C376 C372 1.407 . S
C376 C375 1.332 . S
H377 C370 0.930 . S
H378 C401 0.930 . S
H379 C402 0.929 . S
O380 Tb336 2.465 . S
O380 C400 1.264 . S
O381 Tb336 2.387 . S
O381 C392 1.264 . S
O382 Tb347 2.349 . S
O382 C392 1.243 . S
O383 Tb336 2.428 . S
O383 C400 1.256 . S
O384 Tb336 2.308 . S
O384 C399 1.266 . S
O385 Tb347 2.393 . S
O385 C399 1.248 . S
O386 Tb347 2.465 . S
O386 C411 1.264 . S
O387 Tb347 2.387 . S
O387 C403 1.264 . S
O388 Tb336 2.349 . S
O388 C403 1.243 . S
O389 Tb347 2.428 . S
O389 C411 1.256 . S
O390 Tb347 2.308 . S
O390 C410 1.266 . S
O391 Tb336 2.393 . S
O391 C410 1.248 . S
C392 O381 1.264 . S
C392 O382 1.243 . S
C393 C396 1.399 . S
C393 C398 1.383 . S
C393 C400 1.496 . S
C394 C395 1.399 . S
C394 C398 1.389 . S
C395 C394 1.399 . S
C395 C397 1.380 . S
C395 H412 0.929 . S
C396 C393 1.399 . S
C396 C397 1.392 . S
C396 H413 0.929 . S
C397 C395 1.380 . S
C397 C396 1.392 . S
C397 H414 0.929 . S
C398 C393 1.383 . S
C398 C394 1.389 . S
C398 H415 0.931 . S
C399 O384 1.266 . S
C399 O385 1.248 . S
C400 Tb336 2.802 . S
C400 O380 1.264 . S
C400 O383 1.256 . S
C400 C393 1.496 . S
C401 C368 1.448 . S
C401 H378 0.930 . S
C401 C402 1.328 . S
C402 C373 1.427 . S
C402 H379 0.929 . S
C402 C401 1.328 . S
C403 O387 1.264 . S
C403 O388 1.243 . S
C404 C407 1.399 . S
C404 C408 1.383 . S
C404 C411 1.496 . S
C405 C406 1.399 . S
C405 C408 1.389 . S
C406 C405 1.399 . S
C406 C409 1.380 . S
C406 H416 0.929 . S
C407 C404 1.399 . S
C407 C409 1.392 . S
C407 H417 0.929 . S
C408 C404 1.383 . S
C408 C405 1.389 . S
C408 H418 0.931 . S
C409 C406 1.380 . S
C409 C407 1.392 . S
C409 H419 0.929 . S
C410 O390 1.266 . S
C410 O391 1.248 . S
C411 Tb347 2.802 . S
C411 O386 1.264 . S
C411 O389 1.256 . S
C411 C404 1.496 . S
H412 C395 0.929 . S
H413 C396 0.929 . S
H414 C397 0.929 . S
H415 C398 0.931 . S
H416 C406 0.929 . S
H417 C407 0.929 . S
H418 C408 0.931 . S
H419 C409 0.929 . S
Tb420 N449 2.617 . S
Tb420 N455 2.572 . S
Tb420 O464 2.465 . S
Tb420 O465 2.387 . S
Tb420 O467 2.428 . S
Tb420 O468 2.308 . S
Tb420 O472 2.349 . S
Tb420 O475 2.393 . S
Tb420 C484 2.802 . S
C421 N422 1.379 . S
C421 C424 1.416 . S
C421 C428 1.424 . S
N422 C421 1.379 . S
N422 C425 1.334 . S
N422 Tb431 2.617 . S
C423 C425 1.390 . S
C423 C426 1.339 . S
C423 H443 0.930 . S
C424 C421 1.416 . S
C424 C426 1.416 . S
C424 C430 1.448 . S
C425 N422 1.334 . S
C425 C423 1.390 . S
C425 H436 0.930 . S
C426 C423 1.339 . S
C426 C424 1.416 . S
C426 H447 0.930 . S
C427 C428 1.413 . S
C427 C429 1.427 . S
C427 C433 1.416 . S
C428 C421 1.424 . S
C428 C427 1.413 . S
C428 N432 1.361 . S
C429 C427 1.427 . S
C429 C430 1.328 . S
C429 H444 0.929 . S
C430 C424 1.448 . S
C430 C429 1.328 . S
C430 H445 0.930 . S
Tb431 N422 2.617 . S
Tb431 N432 2.572 . S
Tb431 O466 2.349 . S
Tb431 O469 2.393 . S
Tb431 O470 2.465 . S
Tb431 O471 2.387 . S
Tb431 O473 2.428 . S
Tb431 O474 2.308 . S
Tb431 C495 2.802 . S
N432 C428 1.361 . S
N432 Tb431 2.572 . S
N432 C434 1.340 . S
C433 C427 1.416 . S
C433 C435 1.332 . S
C433 H441 0.931 . S
C434 N432 1.340 . S
C434 C435 1.407 . S
C434 H440 0.930 . S
C435 C433 1.332 . S
C435 C434 1.407 . S
C435 H437 0.929 . S
H436 C425 0.930 . S
H437 C435 0.929 . S
H438 C453 0.930 . S
H439 C460 0.929 . S
H440 C434 0.930 . S
H441 C433 0.931 . S
H442 C456 0.930 . S
H443 C423 0.930 . S
H444 C429 0.929 . S
H445 C430 0.930 . S
H446 C451 0.930 . S
H447 C426 0.930 . S
H448 C459 0.931 . S
N449 Tb420 2.617 . S
N449 C450 1.379 . S
N449 C453 1.334 . S
C450 N449 1.379 . S
C450 C452 1.416 . S
C450 C458 1.424 . S
C451 H446 0.930 . S
C451 C453 1.390 . S
C451 C454 1.339 . S
C452 C450 1.416 . S
C452 C454 1.416 . S
C452 C485 1.448 . S
C453 H438 0.930 . S
C453 N449 1.334 . S
C453 C451 1.390 . S
C454 C451 1.339 . S
C454 C452 1.416 . S
C454 H461 0.930 . S
N455 Tb420 2.572 . S
N455 C456 1.340 . S
N455 C458 1.361 . S
C456 H442 0.930 . S
C456 N455 1.340 . S
C456 C460 1.407 . S
C457 C458 1.413 . S
C457 C459 1.416 . S
C457 C486 1.427 . S
C458 C450 1.424 . S
C458 N455 1.361 . S
C458 C457 1.413 . S
C459 H448 0.931 . S
C459 C457 1.416 . S
C459 C460 1.332 . S
C460 H439 0.929 . S
C460 C456 1.407 . S
C460 C459 1.332 . S
H461 C454 0.930 . S
H462 C485 0.930 . S
H463 C486 0.929 . S
O464 Tb420 2.465 . S
O464 C484 1.264 . S
O465 Tb420 2.387 . S
O465 C476 1.264 . S
O466 Tb431 2.349 . S
O466 C476 1.243 . S
O467 Tb420 2.428 . S
O467 C484 1.256 . S
O468 Tb420 2.308 . S
O468 C483 1.266 . S
O469 Tb431 2.393 . S
O469 C483 1.248 . S
O470 Tb431 2.465 . S
O470 C495 1.264 . S
O471 Tb431 2.387 . S
O471 C487 1.264 . S
O472 Tb420 2.349 . S
O472 C487 1.243 . S
O473 Tb431 2.428 . S
O473 C495 1.256 . S
O474 Tb431 2.308 . S
O474 C494 1.266 . S
O475 Tb420 2.393 . S
O475 C494 1.248 . S
C476 O465 1.264 . S
C476 O466 1.243 . S
C477 C480 1.399 . S
C477 C482 1.383 . S
C477 C484 1.496 . S
C478 C479 1.399 . S
C478 C482 1.389 . S
C479 C478 1.399 . S
C479 C481 1.380 . S
C479 H496 0.929 . S
C480 C477 1.399 . S
C480 C481 1.392 . S
C480 H497 0.929 . S
C481 C479 1.380 . S
C481 C480 1.392 . S
C481 H498 0.929 . S
C482 C477 1.383 . S
C482 C478 1.389 . S
C482 H499 0.931 . S
C483 O468 1.266 . S
C483 O469 1.248 . S
C484 Tb420 2.802 . S
C484 O464 1.264 . S
C484 O467 1.256 . S
C484 C477 1.496 . S
C485 C452 1.448 . S
C485 H462 0.930 . S
C485 C486 1.328 . S
C486 C457 1.427 . S
C486 H463 0.929 . S
C486 C485 1.328 . S
C487 O471 1.264 . S
C487 O472 1.243 . S
C488 C491 1.399 . S
C488 C492 1.383 . S
C488 C495 1.496 . S
C489 C490 1.399 . S
C489 C492 1.389 . S
C490 C489 1.399 . S
C490 C493 1.380 . S
C490 H500 0.929 . S
C491 C488 1.399 . S
C491 C493 1.392 . S
C491 H501 0.929 . S
C492 C488 1.383 . S
C492 C489 1.389 . S
C492 H502 0.931 . S
C493 C490 1.380 . S
C493 C491 1.392 . S
C493 H503 0.929 . S
C494 O474 1.266 . S
C494 O475 1.248 . S
C495 Tb431 2.802 . S
C495 O470 1.264 . S
C495 O473 1.256 . S
C495 C488 1.496 . S
H496 C479 0.929 . S
H497 C480 0.929 . S
H498 C481 0.929 . S
H499 C482 0.931 . S
H500 C490 0.929 . S
H501 C491 0.929 . S
H502 C492 0.931 . S
H503 C493 0.929 . S
Tb504 N533 2.617 . S
Tb504 N539 2.572 . S
Tb504 O548 2.465 . S
Tb504 O549 2.387 . S
Tb504 O551 2.428 . S
Tb504 O552 2.308 . S
Tb504 O556 2.349 . S
Tb504 O559 2.393 . S
Tb504 C568 2.802 . S
C505 N506 1.379 . S
C505 C508 1.416 . S
C505 C512 1.424 . S
N506 C505 1.379 . S
N506 C509 1.334 . S
N506 Tb515 2.617 . S
C507 C509 1.390 . S
C507 C510 1.339 . S
C507 H527 0.930 . S
C508 C505 1.416 . S
C508 C510 1.416 . S
C508 C514 1.448 . S
C509 N506 1.334 . S
C509 C507 1.390 . S
C509 H520 0.930 . S
C510 C507 1.339 . S
C510 C508 1.416 . S
C510 H531 0.930 . S
C511 C512 1.413 . S
C511 C513 1.427 . S
C511 C517 1.416 . S
C512 C505 1.424 . S
C512 C511 1.413 . S
C512 N516 1.361 . S
C513 C511 1.427 . S
C513 C514 1.328 . S
C513 H528 0.929 . S
C514 C508 1.448 . S
C514 C513 1.328 . S
C514 H529 0.930 . S
Tb515 N506 2.617 . S
Tb515 N516 2.572 . S
Tb515 O550 2.349 . S
Tb515 O553 2.393 . S
Tb515 O554 2.465 . S
Tb515 O555 2.387 . S
Tb515 O557 2.428 . S
Tb515 O558 2.308 . S
Tb515 C579 2.802 . S
N516 C512 1.361 . S
N516 Tb515 2.572 . S
N516 C518 1.340 . S
C517 C511 1.416 . S
C517 C519 1.332 . S
C517 H525 0.931 . S
C518 N516 1.340 . S
C518 C519 1.407 . S
C518 H524 0.930 . S
C519 C517 1.332 . S
C519 C518 1.407 . S
C519 H521 0.929 . S
H520 C509 0.930 . S
H521 C519 0.929 . S
H522 C537 0.930 . S
H523 C544 0.929 . S
H524 C518 0.930 . S
H525 C517 0.931 . S
H526 C540 0.930 . S
H527 C507 0.930 . S
H528 C513 0.929 . S
H529 C514 0.930 . S
H530 C535 0.930 . S
H531 C510 0.930 . S
H532 C543 0.931 . S
N533 Tb504 2.617 . S
N533 C534 1.379 . S
N533 C537 1.334 . S
C534 N533 1.379 . S
C534 C536 1.416 . S
C534 C542 1.424 . S
C535 H530 0.930 . S
C535 C537 1.390 . S
C535 C538 1.339 . S
C536 C534 1.416 . S
C536 C538 1.416 . S
C536 C569 1.448 . S
C537 H522 0.930 . S
C537 N533 1.334 . S
C537 C535 1.390 . S
C538 C535 1.339 . S
C538 C536 1.416 . S
C538 H545 0.930 . S
N539 Tb504 2.572 . S
N539 C540 1.340 . S
N539 C542 1.361 . S
C540 H526 0.930 . S
C540 N539 1.340 . S
C540 C544 1.407 . S
C541 C542 1.413 . S
C541 C543 1.416 . S
C541 C570 1.427 . S
C542 C534 1.424 . S
C542 N539 1.361 . S
C542 C541 1.413 . S
C543 H532 0.931 . S
C543 C541 1.416 . S
C543 C544 1.332 . S
C544 H523 0.929 . S
C544 C540 1.407 . S
C544 C543 1.332 . S
H545 C538 0.930 . S
H546 C569 0.930 . S
H547 C570 0.929 . S
O548 Tb504 2.465 . S
O548 C568 1.264 . S
O549 Tb504 2.387 . S
O549 C560 1.264 . S
O550 Tb515 2.349 . S
O550 C560 1.243 . S
O551 Tb504 2.428 . S
O551 C568 1.256 . S
O552 Tb504 2.308 . S
O552 C567 1.266 . S
O553 Tb515 2.393 . S
O553 C567 1.248 . S
O554 Tb515 2.465 . S
O554 C579 1.264 . S
O555 Tb515 2.387 . S
O555 C571 1.264 . S
O556 Tb504 2.349 . S
O556 C571 1.243 . S
O557 Tb515 2.428 . S
O557 C579 1.256 . S
O558 Tb515 2.308 . S
O558 C578 1.266 . S
O559 Tb504 2.393 . S
O559 C578 1.248 . S
C560 O549 1.264 . S
C560 O550 1.243 . S
C561 C564 1.399 . S
C561 C566 1.383 . S
C561 C568 1.496 . S
C562 C563 1.399 . S
C562 C566 1.389 . S
C563 C562 1.399 . S
C563 C565 1.380 . S
C563 H580 0.929 . S
C564 C561 1.399 . S
C564 C565 1.392 . S
C564 H581 0.929 . S
C565 C563 1.380 . S
C565 C564 1.392 . S
C565 H582 0.929 . S
C566 C561 1.383 . S
C566 C562 1.389 . S
C566 H583 0.931 . S
C567 O552 1.266 . S
C567 O553 1.248 . S
C568 Tb504 2.802 . S
C568 O548 1.264 . S
C568 O551 1.256 . S
C568 C561 1.496 . S
C569 C536 1.448 . S
C569 H546 0.930 . S
C569 C570 1.328 . S
C570 C541 1.427 . S
C570 H547 0.929 . S
C570 C569 1.328 . S
C571 O555 1.264 . S
C571 O556 1.243 . S
C572 C575 1.399 . S
C572 C576 1.383 . S
C572 C579 1.496 . S
C573 C574 1.399 . S
C573 C576 1.389 . S
C574 C573 1.399 . S
C574 C577 1.380 . S
C574 H584 0.929 . S
C575 C572 1.399 . S
C575 C577 1.392 . S
C575 H585 0.929 . S
C576 C572 1.383 . S
C576 C573 1.389 . S
C576 H586 0.931 . S
C577 C574 1.380 . S
C577 C575 1.392 . S
C577 H587 0.929 . S
C578 O558 1.266 . S
C578 O559 1.248 . S
C579 Tb515 2.802 . S
C579 O554 1.264 . S
C579 O557 1.256 . S
C579 C572 1.496 . S
H580 C563 0.929 . S
H581 C564 0.929 . S
H582 C565 0.929 . S
H583 C566 0.931 . S
H584 C574 0.929 . S
H585 C575 0.929 . S
H586 C576 0.931 . S
H587 C577 0.929 . S
Tb588 N617 2.617 . S
Tb588 N623 2.572 . S
Tb588 O632 2.465 . S
Tb588 O633 2.387 . S
Tb588 O635 2.428 . S
Tb588 O636 2.308 . S
Tb588 O640 2.349 . S
Tb588 O643 2.393 . S
Tb588 C652 2.802 . S
C589 N590 1.379 . S
C589 C592 1.416 . S
C589 C596 1.424 . S
N590 C589 1.379 . S
N590 C593 1.334 . S
N590 Tb599 2.617 . S
C591 C593 1.390 . S
C591 C594 1.339 . S
C591 H611 0.930 . S
C592 C589 1.416 . S
C592 C594 1.416 . S
C592 C598 1.448 . S
C593 N590 1.334 . S
C593 C591 1.390 . S
C593 H604 0.930 . S
C594 C591 1.339 . S
C594 C592 1.416 . S
C594 H615 0.930 . S
C595 C596 1.413 . S
C595 C597 1.427 . S
C595 C601 1.416 . S
C596 C589 1.424 . S
C596 C595 1.413 . S
C596 N600 1.361 . S
C597 C595 1.427 . S
C597 C598 1.328 . S
C597 H612 0.929 . S
C598 C592 1.448 . S
C598 C597 1.328 . S
C598 H613 0.930 . S
Tb599 N590 2.617 . S
Tb599 N600 2.572 . S
Tb599 O634 2.349 . S
Tb599 O637 2.393 . S
Tb599 O638 2.465 . S
Tb599 O639 2.387 . S
Tb599 O641 2.428 . S
Tb599 O642 2.308 . S
Tb599 C663 2.802 . S
N600 C596 1.361 . S
N600 Tb599 2.572 . S
N600 C602 1.340 . S
C601 C595 1.416 . S
C601 C603 1.332 . S
C601 H609 0.931 . S
C602 N600 1.340 . S
C602 C603 1.407 . S
C602 H608 0.930 . S
C603 C601 1.332 . S
C603 C602 1.407 . S
C603 H605 0.929 . S
H604 C593 0.930 . S
H605 C603 0.929 . S
H606 C621 0.930 . S
H607 C628 0.929 . S
H608 C602 0.930 . S
H609 C601 0.931 . S
H610 C624 0.930 . S
H611 C591 0.930 . S
H612 C597 0.929 . S
H613 C598 0.930 . S
H614 C619 0.930 . S
H615 C594 0.930 . S
H616 C627 0.931 . S
N617 Tb588 2.617 . S
N617 C618 1.379 . S
N617 C621 1.334 . S
C618 N617 1.379 . S
C618 C620 1.416 . S
C618 C626 1.424 . S
C619 H614 0.930 . S
C619 C621 1.390 . S
C619 C622 1.339 . S
C620 C618 1.416 . S
C620 C622 1.416 . S
C620 C653 1.448 . S
C621 H606 0.930 . S
C621 N617 1.334 . S
C621 C619 1.390 . S
C622 C619 1.339 . S
C622 C620 1.416 . S
C622 H629 0.930 . S
N623 Tb588 2.572 . S
N623 C624 1.340 . S
N623 C626 1.361 . S
C624 H610 0.930 . S
C624 N623 1.340 . S
C624 C628 1.407 . S
C625 C626 1.413 . S
C625 C627 1.416 . S
C625 C654 1.427 . S
C626 C618 1.424 . S
C626 N623 1.361 . S
C626 C625 1.413 . S
C627 H616 0.931 . S
C627 C625 1.416 . S
C627 C628 1.332 . S
C628 H607 0.929 . S
C628 C624 1.407 . S
C628 C627 1.332 . S
H629 C622 0.930 . S
H630 C653 0.930 . S
H631 C654 0.929 . S
O632 Tb588 2.465 . S
O632 C652 1.264 . S
O633 Tb588 2.387 . S
O633 C644 1.264 . S
O634 Tb599 2.349 . S
O634 C644 1.243 . S
O635 Tb588 2.428 . S
O635 C652 1.256 . S
O636 Tb588 2.308 . S
O636 C651 1.266 . S
O637 Tb599 2.393 . S
O637 C651 1.248 . S
O638 Tb599 2.465 . S
O638 C663 1.264 . S
O639 Tb599 2.387 . S
O639 C655 1.264 . S
O640 Tb588 2.349 . S
O640 C655 1.243 . S
O641 Tb599 2.428 . S
O641 C663 1.256 . S
O642 Tb599 2.308 . S
O642 C662 1.266 . S
O643 Tb588 2.393 . S
O643 C662 1.248 . S
C644 O633 1.264 . S
C644 O634 1.243 . S
C645 C648 1.399 . S
C645 C650 1.383 . S
C645 C652 1.496 . S
C646 C647 1.399 . S
C646 C650 1.389 . S
C647 C646 1.399 . S
C647 C649 1.380 . S
C647 H664 0.929 . S
C648 C645 1.399 . S
C648 C649 1.392 . S
C648 H665 0.929 . S
C649 C647 1.380 . S
C649 C648 1.392 . S
C649 H666 0.929 . S
C650 C645 1.383 . S
C650 C646 1.389 . S
C650 H667 0.931 . S
C651 O636 1.266 . S
C651 O637 1.248 . S
C652 Tb588 2.802 . S
C652 O632 1.264 . S
C652 O635 1.256 . S
C652 C645 1.496 . S
C653 C620 1.448 . S
C653 H630 0.930 . S
C653 C654 1.328 . S
C654 C625 1.427 . S
C654 H631 0.929 . S
C654 C653 1.328 . S
C655 O639 1.264 . S
C655 O640 1.243 . S
C656 C659 1.399 . S
C656 C660 1.383 . S
C656 C663 1.496 . S
C657 C658 1.399 . S
C657 C660 1.389 . S
C658 C657 1.399 . S
C658 C661 1.380 . S
C658 H668 0.929 . S
C659 C656 1.399 . S
C659 C661 1.392 . S
C659 H669 0.929 . S
C660 C656 1.383 . S
C660 C657 1.389 . S
C660 H670 0.931 . S
C661 C658 1.380 . S
C661 C659 1.392 . S
C661 H671 0.929 . S
C662 O642 1.266 . S
C662 O643 1.248 . S
C663 Tb599 2.802 . S
C663 O638 1.264 . S
C663 O641 1.256 . S
C663 C656 1.496 . S
H664 C647 0.929 . S
H665 C648 0.929 . S
H666 C649 0.929 . S
H667 C650 0.931 . S
H668 C658 0.929 . S
H669 C659 0.929 . S
H670 C660 0.931 . S
H671 C661 0.929 . S
Co672 O675 2.042 . S
Co672 O682 2.264 . S
Co672 O701 2.286 . S
Co672 O702 2.069 . S
Co672 O704 2.015 1_455 S
Co673 O675 2.122 . S
Co673 O681 2.073 . S
Co673 O682 2.327 . S
Co673 O683 1.976 1_455 S
Co674 O675 2.083 1_545 S
Co674 O677 2.091 1_455 S
Co674 O684 2.110 1_445 S
Co674 O685 2.146 . S
Co674 O689 2.113 . S
Co674 O703 2.141 1_445 S
O675 Co672 2.042 . S
O675 Co673 2.122 . S
O675 Co674 2.083 1_565 S
O675 H676 0.980 . S
H676 O675 0.980 . S
O677 Co674 2.091 1_655 S
O677 Co678 2.042 . S
O677 Co679 2.122 . S
O677 H680 0.980 . S
Co678 O677 2.042 . S
Co678 O686 2.286 . S
Co678 O687 2.069 . S
Co678 O688 2.015 1_655 S
Co678 O691 2.264 . S
Co679 O677 2.122 . S
Co679 O690 1.976 1_655 S
Co679 O691 2.327 . S
Co679 O692 2.073 . S
H680 O677 0.980 . S
O681 Co673 2.073 . S
O681 C696 1.245 . S
O682 Co672 2.264 . S
O682 Co673 2.327 . S
O682 C696 1.257 . S
O683 Co673 1.976 1_655 S
O683 C695 1.251 . S
O684 Co674 2.110 1_665 S
O684 C695 1.274 . S
O685 Co674 2.146 . S
O685 C698 1.246 . S
O686 Co678 2.286 . S
O686 C697 1.259 . S
O687 Co678 2.069 . S
O687 C697 1.289 . S
O688 Co678 2.015 1_455 S
O688 C698 1.257 . S
O689 Co674 2.113 . S
O689 C699 1.274 . S
O690 Co679 1.976 1_455 S
O690 C699 1.251 . S
O691 Co678 2.264 . S
O691 Co679 2.327 . S
O691 C700 1.257 . S
O692 Co679 2.073 . S
O692 C700 1.245 . S
C693 O701 1.259 . S
C693 O702 1.289 . S
C694 O703 1.246 . S
C694 O704 1.257 . S
C695 O683 1.251 . S
C695 O684 1.274 . S
C696 O681 1.245 . S
C696 O682 1.257 . S
C697 O686 1.259 . S
C697 O687 1.289 . S
C698 O685 1.246 . S
C698 O688 1.257 . S
C699 O689 1.274 . S
C699 O690 1.251 . S
C700 O691 1.257 . S
C700 O692 1.245 . S
O701 Co672 2.286 . S
O701 C693 1.259 . S
O702 Co672 2.069 . S
O702 C693 1.289 . S
O703 Co674 2.141 1_665 S
O703 C694 1.246 . S
O704 Co672 2.015 1_655 S
O704 C694 1.257 . S
Co705 O708 2.042 1_556 S
Co705 O715 2.264 1_556 S
Co705 O734 2.286 . S
Co705 O735 2.069 . S
Co705 O737 2.015 . S
Co706 O708 2.122 . S
Co706 O714 2.073 . S
Co706 O715 2.327 . S
Co706 O716 1.976 . S
Co707 O708 2.083 1_545 S
Co707 O710 2.091 1_554 S
Co707 O717 2.110 1_545 S
Co707 O718 2.146 . S
Co707 O722 2.113 1_554 S
Co707 O736 2.141 1_544 S
O708 Co705 2.042 1_554 S
O708 Co706 2.122 . S
O708 Co707 2.083 1_565 S
O708 H709 0.980 . S
H709 O708 0.980 . S
O710 Co707 2.091 1_556 S
O710 Co711 2.042 1_556 S
O710 Co712 2.122 . S
O710 H713 0.980 . S
Co711 O710 2.042 1_554 S
Co711 O719 2.286 . S
Co711 O720 2.069 . S
Co711 O721 2.015 . S
Co711 O724 2.264 1_554 S
Co712 O710 2.122 . S
Co712 O723 1.976 . S
Co712 O724 2.327 . S
Co712 O725 2.073 . S
H713 O710 0.980 . S
O714 Co706 2.073 . S
O714 C729 1.245 . S
O715 Co705 2.264 1_554 S
O715 Co706 2.327 . S
O715 C729 1.257 . S
O716 Co706 1.976 . S
O716 C728 1.251 . S
O717 Co707 2.110 1_565 S
O717 C728 1.274 . S
O718 Co707 2.146 . S
O718 C731 1.246 . S
O719 Co711 2.286 . S
O719 C730 1.259 . S
O720 Co711 2.069 . S
O720 C730 1.289 . S
O721 Co711 2.015 . S
O721 C731 1.257 . S
O722 Co707 2.113 1_556 S
O722 C732 1.274 . S
O723 Co712 1.976 . S
O723 C732 1.251 . S
O724 Co711 2.264 1_556 S
O724 Co712 2.327 . S
O724 C733 1.257 . S
O725 Co712 2.073 . S
O725 C733 1.245 . S
C726 O734 1.259 . S
C726 O735 1.289 . S
C727 O736 1.246 . S
C727 O737 1.257 . S
C728 O716 1.251 . S
C728 O717 1.274 . S
C729 O714 1.245 . S
C729 O715 1.257 . S
C730 O719 1.259 . S
C730 O720 1.289 . S
C731 O718 1.246 . S
C731 O721 1.257 . S
C732 O722 1.274 . S
C732 O723 1.251 . S
C733 O724 1.257 . S
C733 O725 1.245 . S
O734 Co705 2.286 . S
O734 C726 1.259 . S
O735 Co705 2.069 . S
O735 C726 1.289 . S
O736 Co707 2.141 1_566 S
O736 C727 1.246 . S
O737 Co705 2.015 . S
O737 C727 1.257 . S
Co738 O741 2.042 1_556 S
Co738 O748 2.264 1_556 S
Co738 O767 2.286 . S
Co738 O768 2.069 . S
Co738 O770 2.015 1_455 S
Co739 O741 2.122 . S
Co739 O747 2.073 . S
Co739 O748 2.327 . S
Co739 O749 1.976 1_455 S
Co740 O741 2.088 . S
Co740 O743 2.086 1_454 S
Co740 O750 2.111 1_455 S
Co740 O751 2.144 . S
Co740 O755 2.112 1_554 S
Co740 O769 2.143 1_454 S
O741 Co738 2.042 1_554 S
O741 Co739 2.122 . S
O741 Co740 2.088 . S
O741 H742 0.980 . S
H742 O741 0.980 . S
O743 Co740 2.086 1_656 S
O743 Co744 2.042 1_556 S
O743 Co745 2.122 . S
O743 H746 0.980 . S
Co744 O743 2.042 1_554 S
Co744 O752 2.286 . S
Co744 O753 2.069 . S
Co744 O754 2.015 1_655 S
Co744 O757 2.264 1_554 S
Co745 O743 2.122 . S
Co745 O756 1.976 1_655 S
Co745 O757 2.327 . S
Co745 O758 2.073 . S
H746 O743 0.980 . S
O747 Co739 2.073 . S
O747 C762 1.245 . S
O748 Co738 2.264 1_554 S
O748 Co739 2.327 . S
O748 C762 1.257 . S
O749 Co739 1.976 1_655 S
O749 C761 1.251 . S
O750 Co740 2.111 1_655 S
O750 C761 1.274 . S
O751 Co740 2.144 . S
O751 C764 1.246 . S
O752 Co744 2.286 . S
O752 C763 1.259 . S
O753 Co744 2.069 . S
O753 C763 1.289 . S
O754 Co744 2.015 1_455 S
O754 C764 1.257 . S
O755 Co740 2.112 1_556 S
O755 C765 1.274 . S
O756 Co745 1.976 1_455 S
O756 C765 1.251 . S
O757 Co744 2.264 1_556 S
O757 Co745 2.327 . S
O757 C766 1.257 . S
O758 Co745 2.073 . S
O758 C766 1.245 . S
C759 O767 1.259 . S
C759 O768 1.289 . S
C760 O769 1.246 . S
C760 O770 1.257 . S
C761 O749 1.251 . S
C761 O750 1.274 . S
C762 O747 1.245 . S
C762 O748 1.257 . S
C763 O752 1.259 . S
C763 O753 1.289 . S
C764 O751 1.246 . S
C764 O754 1.257 . S
C765 O755 1.274 . S
C765 O756 1.251 . S
C766 O757 1.257 . S
C766 O758 1.245 . S
O767 Co738 2.286 . S
O767 C759 1.259 . S
O768 Co738 2.069 . S
O768 C759 1.289 . S
O769 Co740 2.143 1_656 S
O769 C760 1.246 . S
O770 Co738 2.015 1_655 S
O770 C760 1.257 . S
Co771 O774 2.042 1_556 S
Co771 O781 2.264 1_556 S
Co771 O800 2.286 . S
Co771 O801 2.069 . S
Co771 O803 2.015 . S
Co772 O774 2.122 . S
Co772 O780 2.073 . S
Co772 O781 2.327 . S
Co772 O782 1.976 . S
Co773 O774 2.087 . S
Co773 O776 2.087 1_554 S
Co773 O783 2.111 . S
Co773 O784 2.143 . S
Co773 O788 2.111 1_554 S
Co773 O802 2.143 1_554 S
O774 Co771 2.042 1_554 S
O774 Co772 2.122 . S
O774 Co773 2.087 . S
O774 H775 0.980 . S
H775 O774 0.980 . S
O776 Co773 2.087 1_556 S
O776 Co777 2.042 1_556 S
O776 Co778 2.122 . S
O776 H779 0.980 . S
Co777 O776 2.042 1_554 S
Co777 O785 2.286 . S
Co777 O786 2.069 . S
Co777 O787 2.015 . S
Co777 O790 2.264 1_554 S
Co778 O776 2.122 . S
Co778 O789 1.976 . S
Co778 O790 2.327 . S
Co778 O791 2.073 . S
H779 O776 0.980 . S
O780 Co772 2.073 . S
O780 C795 1.245 . S
O781 Co771 2.264 1_554 S
O781 Co772 2.327 . S
O781 C795 1.257 . S
O782 Co772 1.976 . S
O782 C794 1.251 . S
O783 Co773 2.111 . S
O783 C794 1.274 . S
O784 Co773 2.143 . S
O784 C797 1.246 . S
O785 Co777 2.286 . S
O785 C796 1.259 . S
O786 Co777 2.069 . S
O786 C796 1.289 . S
O787 Co777 2.015 . S
O787 C797 1.257 . S
O788 Co773 2.111 1_556 S
O788 C798 1.274 . S
O789 Co778 1.976 . S
O789 C798 1.251 . S
O790 Co777 2.264 1_556 S
O790 Co778 2.327 . S
O790 C799 1.257 . S
O791 Co778 2.073 . S
O791 C799 1.245 . S
C792 O800 1.259 . S
C792 O801 1.289 . S
C793 O802 1.246 . S
C793 O803 1.257 . S
C794 O782 1.251 . S
C794 O783 1.274 . S
C795 O780 1.245 . S
C795 O781 1.257 . S
C796 O785 1.259 . S
C796 O786 1.289 . S
C797 O784 1.246 . S
C797 O787 1.257 . S
C798 O788 1.274 . S
C798 O789 1.251 . S
C799 O790 1.257 . S
C799 O791 1.245 . S
O800 Co771 2.286 . S
O800 C792 1.259 . S
O801 Co771 2.069 . S
O801 C792 1.289 . S
O802 Co773 2.143 1_556 S
O802 C793 1.246 . S
O803 Co771 2.015 . S
O803 C793 1.257 . S
Co804 O807 2.042 . S
Co804 O814 2.264 . S
Co804 O833 2.286 . S
Co804 O834 2.069 . S
Co804 O836 2.015 . S
Co805 O807 2.122 . S
Co805 O813 2.073 . S
Co805 O814 2.327 . S
Co805 O815 1.976 . S
Co806 O807 2.088 . S
Co806 O809 2.086 1_455 S
Co806 O816 2.111 . S
Co806 O817 2.143 1_455 S
Co806 O821 2.111 1_455 S
Co806 O835 2.144 . S
O807 Co804 2.042 . S
O807 Co805 2.122 . S
O807 Co806 2.088 . S
O807 H808 0.980 . S
H808 O807 0.980 . S
O809 Co806 2.086 1_655 S
O809 Co810 2.042 . S
O809 Co811 2.122 . S
O809 H812 0.980 . S
Co810 O809 2.042 . S
Co810 O818 2.286 . S
Co810 O819 2.069 . S
Co810 O820 2.015 . S
Co810 O823 2.264 . S
Co811 O809 2.122 . S
Co811 O822 1.976 . S
Co811 O823 2.327 . S
Co811 O824 2.073 . S
H812 O809 0.980 . S
O813 Co805 2.073 . S
O813 C828 1.245 . S
O814 Co804 2.264 . S
O814 Co805 2.327 . S
O814 C828 1.257 . S
O815 Co805 1.976 . S
O815 C827 1.251 . S
O816 Co806 2.111 . S
O816 C827 1.274 . S
O817 Co806 2.143 1_655 S
O817 C830 1.246 . S
O818 Co810 2.286 . S
O818 C829 1.259 . S
O819 Co810 2.069 . S
O819 C829 1.289 . S
O820 Co810 2.015 . S
O820 C830 1.257 . S
O821 Co806 2.111 1_655 S
O821 C831 1.274 . S
O822 Co811 1.976 . S
O822 C831 1.251 . S
O823 Co810 2.264 . S
O823 Co811 2.327 . S
O823 C832 1.257 . S
O824 Co811 2.073 . S
O824 C832 1.245 . S
C825 O833 1.259 . S
C825 O834 1.289 . S
C826 O835 1.246 . S
C826 O836 1.257 . S
C827 O815 1.251 . S
C827 O816 1.274 . S
C828 O813 1.245 . S
C828 O814 1.257 . S
C829 O818 1.259 . S
C829 O819 1.289 . S
C830 O817 1.246 . S
C830 O820 1.257 . S
C831 O821 1.274 . S
C831 O822 1.251 . S
C832 O823 1.257 . S
C832 O824 1.245 . S
O833 Co804 2.286 . S
O833 C825 1.259 . S
O834 Co804 2.069 . S
O834 C825 1.289 . S
O835 Co806 2.144 . S
O835 C826 1.246 . S
O836 Co804 2.015 . S
O836 C826 1.257 . S
Co837 O840 2.042 . S
Co837 O847 2.264 . S
Co837 O866 2.286 . S
Co837 O867 2.069 . S
Co837 O869 2.015 1_565 S
Co838 O840 2.122 . S
Co838 O846 2.073 . S
Co838 O847 2.327 . S
Co838 O848 1.976 1_565 S
Co839 O840 2.083 1_545 S
Co839 O842 2.091 . S
Co839 O849 2.114 . S
Co839 O850 2.142 1_545 S
Co839 O854 2.108 1_545 S
Co839 O868 2.145 . S
O840 Co837 2.042 . S
O840 Co838 2.122 . S
O840 Co839 2.083 1_565 S
O840 H841 0.980 . S
H841 O840 0.980 . S
O842 Co839 2.091 . S
O842 Co843 2.042 . S
O842 Co844 2.122 . S
O842 H845 0.980 . S
Co843 O842 2.042 . S
Co843 O851 2.286 . S
Co843 O852 2.069 . S
Co843 O853 2.015 1_545 S
Co843 O856 2.264 . S
Co844 O842 2.122 . S
Co844 O855 1.976 1_545 S
Co844 O856 2.327 . S
Co844 O857 2.073 . S
H845 O842 0.980 . S
O846 Co838 2.073 . S
O846 C861 1.245 . S
O847 Co837 2.264 . S
O847 Co838 2.327 . S
O847 C861 1.257 . S
O848 Co838 1.976 1_545 S
O848 C860 1.251 . S
O849 Co839 2.114 . S
O849 C860 1.274 . S
O850 Co839 2.142 1_565 S
O850 C863 1.246 . S
O851 Co843 2.286 . S
O851 C862 1.259 . S
O852 Co843 2.069 . S
O852 C862 1.289 . S
O853 Co843 2.015 1_565 S
O853 C863 1.257 . S
O854 Co839 2.108 1_565 S
O854 C864 1.274 . S
O855 Co844 1.976 1_565 S
O855 C864 1.251 . S
O856 Co843 2.264 . S
O856 Co844 2.327 . S
O856 C865 1.257 . S
O857 Co844 2.073 . S
O857 C865 1.245 . S
C858 O866 1.259 . S
C858 O867 1.289 . S
C859 O868 1.246 . S
C859 O869 1.257 . S
C860 O848 1.251 . S
C860 O849 1.274 . S
C861 O846 1.245 . S
C861 O847 1.257 . S
C862 O851 1.259 . S
C862 O852 1.289 . S
C863 O850 1.246 . S
C863 O853 1.257 . S
C864 O854 1.274 . S
C864 O855 1.251 . S
C865 O856 1.257 . S
C865 O857 1.245 . S
O866 Co837 2.286 . S
O866 C858 1.259 . S
O867 Co837 2.069 . S
O867 C858 1.289 . S
O868 Co839 2.145 . S
O868 C859 1.246 . S
O869 Co837 2.015 1_545 S
O869 C859 1.257 . S
H870 C878 0.929 . S
H871 C880 0.930 . S
H872 C882 0.930 . S
H873 C885 0.929 . S
H874 C888 0.930 . S
H875 C890 0.960 . S
H876 C890 0.960 . S
H877 C890 0.960 . S
C878 H870 0.929 . S
C878 C879 1.377 . S
C878 C880 1.384 . S
C879 C878 1.377 . S
C879 C885 1.390 . S
C880 H871 0.930 . S
C880 C878 1.384 . S
C880 C881 1.372 . S
C881 C880 1.372 . S
C881 C882 1.400 . S
C881 C886 1.490 . S
C882 H872 0.930 . S
C882 C881 1.400 . S
C882 C885 1.386 . S
H883 C899 0.930 . S
H884 C900 0.931 . S
C885 H873 0.929 . S
C885 C879 1.390 . S
C885 C882 1.386 . S
C886 C881 1.490 . S
C886 C888 1.395 . S
C886 C889 1.403 . S
H887 C893 0.930 . S
C888 H874 0.930 . S
C888 C886 1.395 . S
C888 C891 1.403 . S
C889 C886 1.403 . S
C889 C890 1.524 . S
C889 C893 1.400 . S
C890 H875 0.960 . S
C890 H876 0.960 . S
C890 H877 0.960 . S
C890 C889 1.524 . S
C891 C888 1.403 . S
C891 C892 1.392 . S
C891 C895 1.495 . S
C892 C891 1.392 . S
C892 C893 1.385 . S
C892 C894 1.478 . S
C893 H887 0.930 . S
C893 C889 1.400 . S
C893 C892 1.385 . S
C894 C892 1.478 . S
C894 C896 1.381 . S
C894 C900 1.383 . S
C895 C891 1.495 . S
C895 H901 0.959 . S
C895 H902 0.961 . S
C895 H903 0.960 . S
C896 C894 1.381 . S
C896 C897 1.394 . S
C896 H904 0.930 . S
C897 C896 1.394 . S
C897 C898 1.383 . S
C897 H905 0.929 . S
C898 C897 1.383 . S
C898 C899 1.377 . S
C899 H883 0.930 . S
C899 C898 1.377 . S
C899 C900 1.379 . S
C900 H884 0.931 . S
C900 C894 1.383 . S
C900 C899 1.379 . S
H901 C895 0.959 . S
H902 C895 0.961 . S
H903 C895 0.960 . S
H904 C896 0.930 . S
H905 C897 0.929 . S
H906 C914 0.929 . S
H907 C916 0.930 . S
H908 C918 0.930 . S
H909 C921 0.929 . S
H910 C924 0.930 . S
H911 C926 0.960 . S
H912 C926 0.960 . S
H913 C926 0.960 . S
C914 H906 0.929 . S
C914 C915 1.377 . S
C914 C916 1.384 . S
C915 C914 1.377 . S
C915 C921 1.390 . S
C916 H907 0.930 . S
C916 C914 1.384 . S
C916 C917 1.372 . S
C917 C916 1.372 . S
C917 C918 1.400 . S
C917 C922 1.490 . S
C918 H908 0.930 . S
C918 C917 1.400 . S
C918 C921 1.386 . S
H919 C935 0.930 . S
H920 C936 0.931 . S
C921 H909 0.929 . S
C921 C915 1.390 . S
C921 C918 1.386 . S
C922 C917 1.490 . S
C922 C924 1.395 . S
C922 C925 1.403 . S
H923 C929 0.930 . S
C924 H910 0.930 . S
C924 C922 1.395 . S
C924 C927 1.403 . S
C925 C922 1.403 . S
C925 C926 1.524 . S
C925 C929 1.400 . S
C926 H911 0.960 . S
C926 H912 0.960 . S
C926 H913 0.960 . S
C926 C925 1.524 . S
C927 C924 1.403 . S
C927 C928 1.392 . S
C927 C931 1.495 . S
C928 C927 1.392 . S
C928 C929 1.385 . S
C928 C930 1.478 . S
C929 H923 0.930 . S
C929 C925 1.400 . S
C929 C928 1.385 . S
C930 C928 1.478 . S
C930 C932 1.381 . S
C930 C936 1.383 . S
C931 C927 1.495 . S
C931 H937 0.959 . S
C931 H938 0.961 . S
C931 H939 0.960 . S
C932 C930 1.381 . S
C932 C933 1.394 . S
C932 H940 0.930 . S
C933 C932 1.394 . S
C933 C934 1.383 . S
C933 H941 0.929 . S
C934 C933 1.383 . S
C934 C935 1.377 . S
C935 H919 0.930 . S
C935 C934 1.377 . S
C935 C936 1.379 . S
C936 H920 0.931 . S
C936 C930 1.383 . S
C936 C935 1.379 . S
H937 C931 0.959 . S
H938 C931 0.961 . S
H939 C931 0.960 . S
H940 C932 0.930 . S
H941 C933 0.929 . S
H942 C950 0.929 . S
H943 C952 0.930 . S
H944 C954 0.930 . S
H945 C957 0.929 . S
H946 C960 0.930 . S
H947 C962 0.960 . S
H948 C962 0.960 . S
H949 C962 0.960 . S
C950 H942 0.929 . S
C950 C951 1.377 . S
C950 C952 1.384 . S
C951 C950 1.377 . S
C951 C957 1.390 . S
C952 H943 0.930 . S
C952 C950 1.384 . S
C952 C953 1.372 . S
C953 C952 1.372 . S
C953 C954 1.400 . S
C953 C958 1.490 . S
C954 H944 0.930 . S
C954 C953 1.400 . S
C954 C957 1.386 . S
H955 C971 0.930 . S
H956 C972 0.931 . S
C957 H945 0.929 . S
C957 C951 1.390 . S
C957 C954 1.386 . S
C958 C953 1.490 . S
C958 C960 1.395 . S
C958 C961 1.403 . S
H959 C965 0.930 . S
C960 H946 0.930 . S
C960 C958 1.395 . S
C960 C963 1.403 . S
C961 C958 1.403 . S
C961 C962 1.524 . S
C961 C965 1.400 . S
C962 H947 0.960 . S
C962 H948 0.960 . S
C962 H949 0.960 . S
C962 C961 1.524 . S
C963 C960 1.403 . S
C963 C964 1.392 . S
C963 C967 1.495 . S
C964 C963 1.392 . S
C964 C965 1.385 . S
C964 C966 1.478 . S
C965 H959 0.930 . S
C965 C961 1.400 . S
C965 C964 1.385 . S
C966 C964 1.478 . S
C966 C968 1.381 . S
C966 C972 1.383 . S
C967 C963 1.495 . S
C967 H973 0.959 . S
C967 H974 0.961 . S
C967 H975 0.960 . S
C968 C966 1.381 . S
C968 C969 1.394 . S
C968 H976 0.930 . S
C969 C968 1.394 . S
C969 C970 1.383 . S
C969 H977 0.929 . S
C970 C969 1.383 . S
C970 C971 1.377 . S
C971 H955 0.930 . S
C971 C970 1.377 . S
C971 C972 1.379 . S
C972 H956 0.931 . S
C972 C966 1.383 . S
C972 C971 1.379 . S
H973 C967 0.959 . S
H974 C967 0.961 . S
H975 C967 0.960 . S
H976 C968 0.930 . S
H977 C969 0.929 . S
H978 C986 0.929 . S
H979 C988 0.930 . S
H980 C990 0.930 . S
H981 C993 0.929 . S
H982 C996 0.930 . S
H983 C998 0.960 . S
H984 C998 0.960 . S
H985 C998 0.960 . S
C986 H978 0.929 . S
C986 C987 1.377 . S
C986 C988 1.384 . S
C987 C986 1.377 . S
C987 C993 1.390 . S
C988 H979 0.930 . S
C988 C986 1.384 . S
C988 C989 1.372 . S
C989 C988 1.372 . S
C989 C990 1.400 . S
C989 C994 1.490 . S
C990 H980 0.930 . S
C990 C989 1.400 . S
C990 C993 1.386 . S
H991 C1007 0.930 . S
H992 C1008 0.931 . S
C993 H981 0.929 . S
C993 C987 1.390 . S
C993 C990 1.386 . S
C994 C989 1.490 . S
C994 C996 1.395 . S
C994 C997 1.403 . S
H995 C1001 0.930 . S
C996 H982 0.930 . S
C996 C994 1.395 . S
C996 C999 1.403 . S
C997 C994 1.403 . S
C997 C998 1.524 . S
C997 C1001 1.400 . S
C998 H983 0.960 . S
C998 H984 0.960 . S
C998 H985 0.960 . S
C998 C997 1.524 . S
C999 C996 1.403 . S
C999 C1000 1.392 . S
C999 C1003 1.495 . S
C1000 C999 1.392 . S
C1000 C1001 1.385 . S
C1000 C1002 1.478 . S
C1001 H995 0.930 . S
C1001 C997 1.400 . S
C1001 C1000 1.385 . S
C1002 C1000 1.478 . S
C1002 C1004 1.381 . S
C1002 C1008 1.383 . S
C1003 C999 1.495 . S
C1003 H1009 0.959 . S
C1003 H1010 0.961 . S
C1003 H1011 0.960 . S
C1004 C1002 1.381 . S
C1004 C1005 1.394 . S
C1004 H1012 0.930 . S
C1005 C1004 1.394 . S
C1005 C1006 1.383 . S
C1005 H1013 0.929 . S
C1006 C1005 1.383 . S
C1006 C1007 1.377 . S
C1007 H991 0.930 . S
C1007 C1006 1.377 . S
C1007 C1008 1.379 . S
C1008 H992 0.931 . S
C1008 C1002 1.383 . S
C1008 C1007 1.379 . S
H1009 C1003 0.959 . S
H1010 C1003 0.961 . S
H1011 C1003 0.960 . S
H1012 C1004 0.930 . S
H1013 C1005 0.929 . S
H1014 C1022 0.929 . S
H1015 C1024 0.930 . S
H1016 C1026 0.930 . S
H1017 C1029 0.929 . S
H1018 C1032 0.930 . S
H1019 C1034 0.960 . S
H1020 C1034 0.960 . S
H1021 C1034 0.960 . S
C1022 H1014 0.929 . S
C1022 C1023 1.377 . S
C1022 C1024 1.384 . S
C1023 C1022 1.377 . S
C1023 C1029 1.390 . S
C1024 H1015 0.930 . S
C1024 C1022 1.384 . S
C1024 C1025 1.372 . S
C1025 C1024 1.372 . S
C1025 C1026 1.400 . S
C1025 C1030 1.490 . S
C1026 H1016 0.930 . S
C1026 C1025 1.400 . S
C1026 C1029 1.386 . S
H1027 C1043 0.930 . S
H1028 C1044 0.931 . S
C1029 H1017 0.929 . S
C1029 C1023 1.390 . S
C1029 C1026 1.386 . S
C1030 C1025 1.490 . S
C1030 C1032 1.395 . S
C1030 C1033 1.403 . S
H1031 C1037 0.930 . S
C1032 H1018 0.930 . S
C1032 C1030 1.395 . S
C1032 C1035 1.403 . S
C1033 C1030 1.403 . S
C1033 C1034 1.524 . S
C1033 C1037 1.400 . S
C1034 H1019 0.960 . S
C1034 H1020 0.960 . S
C1034 H1021 0.960 . S
C1034 C1033 1.524 . S
C1035 C1032 1.403 . S
C1035 C1036 1.392 . S
C1035 C1039 1.495 . S
C1036 C1035 1.392 . S
C1036 C1037 1.385 . S
C1036 C1038 1.478 . S
C1037 H1031 0.930 . S
C1037 C1033 1.400 . S
C1037 C1036 1.385 . S
C1038 C1036 1.478 . S
C1038 C1040 1.381 . S
C1038 C1044 1.383 . S
C1039 C1035 1.495 . S
C1039 H1045 0.959 . S
C1039 H1046 0.961 . S
C1039 H1047 0.960 . S
C1040 C1038 1.381 . S
C1040 C1041 1.394 . S
C1040 H1048 0.930 . S
C1041 C1040 1.394 . S
C1041 C1042 1.383 . S
C1041 H1049 0.929 . S
C1042 C1041 1.383 . S
C1042 C1043 1.377 . S
C1043 H1027 0.930 . S
C1043 C1042 1.377 . S
C1043 C1044 1.379 . S
C1044 H1028 0.931 . S
C1044 C1038 1.383 . S
C1044 C1043 1.379 . S
H1045 C1039 0.959 . S
H1046 C1039 0.961 . S
H1047 C1039 0.960 . S
H1048 C1040 0.930 . S
H1049 C1041 0.929 . S
H1050 C1058 0.929 . S
H1051 C1060 0.930 . S
H1052 C1062 0.930 . S
H1053 C1065 0.929 . S
H1054 C1068 0.930 . S
H1055 C1070 0.960 . S
H1056 C1070 0.960 . S
H1057 C1070 0.960 . S
C1058 H1050 0.929 . S
C1058 C1059 1.377 . S
C1058 C1060 1.384 . S
C1059 C1058 1.377 . S
C1059 C1065 1.390 . S
C1060 H1051 0.930 . S
C1060 C1058 1.384 . S
C1060 C1061 1.372 . S
C1061 C1060 1.372 . S
C1061 C1062 1.400 . S
C1061 C1066 1.490 . S
C1062 H1052 0.930 . S
C1062 C1061 1.400 . S
C1062 C1065 1.386 . S
H1063 C1079 0.930 . S
H1064 C1080 0.931 . S
C1065 H1053 0.929 . S
C1065 C1059 1.390 . S
C1065 C1062 1.386 . S
C1066 C1061 1.490 . S
C1066 C1068 1.395 . S
C1066 C1069 1.403 . S
H1067 C1073 0.930 . S
C1068 H1054 0.930 . S
C1068 C1066 1.395 . S
C1068 C1071 1.403 . S
C1069 C1066 1.403 . S
C1069 C1070 1.524 . S
C1069 C1073 1.400 . S
C1070 H1055 0.960 . S
C1070 H1056 0.960 . S
C1070 H1057 0.960 . S
C1070 C1069 1.524 . S
C1071 C1068 1.403 . S
C1071 C1072 1.392 . S
C1071 C1075 1.495 . S
C1072 C1071 1.392 . S
C1072 C1073 1.385 . S
C1072 C1074 1.478 . S
C1073 H1067 0.930 . S
C1073 C1069 1.400 . S
C1073 C1072 1.385 . S
C1074 C1072 1.478 . S
C1074 C1076 1.381 . S
C1074 C1080 1.383 . S
C1075 C1071 1.495 . S
C1075 H1081 0.959 . S
C1075 H1082 0.961 . S
C1075 H1083 0.960 . S
C1076 C1074 1.381 . S
C1076 C1077 1.394 . S
C1076 H1084 0.930 . S
C1077 C1076 1.394 . S
C1077 C1078 1.383 . S
C1077 H1085 0.929 . S
C1078 C1077 1.383 . S
C1078 C1079 1.377 . S
C1079 H1063 0.930 . S
C1079 C1078 1.377 . S
C1079 C1080 1.379 . S
C1080 H1064 0.931 . S
C1080 C1074 1.383 . S
C1080 C1079 1.379 . S
H1081 C1075 0.959 . S
H1082 C1075 0.961 . S
H1083 C1075 0.960 . S
H1084 C1076 0.930 . S
H1085 C1077 0.929 . S
H1086 C1094 0.929 . S
H1087 C1096 0.930 . S
H1088 C1098 0.930 . S
H1089 C1101 0.929 . S
H1090 C1104 0.930 . S
H1091 C1106 0.960 . S
H1092 C1106 0.960 . S
H1093 C1106 0.960 . S
C1094 H1086 0.929 . S
C1094 C1095 1.377 . S
C1094 C1096 1.384 . S
C1095 C1094 1.377 . S
C1095 C1101 1.390 . S
C1096 H1087 0.930 . S
C1096 C1094 1.384 . S
C1096 C1097 1.372 . S
C1097 C1096 1.372 . S
C1097 C1098 1.400 . S
C1097 C1102 1.490 . S
C1098 H1088 0.930 . S
C1098 C1097 1.400 . S
C1098 C1101 1.386 . S
H1099 C1115 0.930 . S
H1100 C1116 0.931 . S
C1101 H1089 0.929 . S
C1101 C1095 1.390 . S
C1101 C1098 1.386 . S
C1102 C1097 1.490 . S
C1102 C1104 1.395 . S
C1102 C1105 1.403 . S
H1103 C1109 0.930 . S
C1104 H1090 0.930 . S
C1104 C1102 1.395 . S
C1104 C1107 1.403 . S
C1105 C1102 1.403 . S
C1105 C1106 1.524 . S
C1105 C1109 1.400 . S
C1106 H1091 0.960 . S
C1106 H1092 0.960 . S
C1106 H1093 0.960 . S
C1106 C1105 1.524 . S
C1107 C1104 1.403 . S
C1107 C1108 1.392 . S
C1107 C1111 1.495 . S
C1108 C1107 1.392 . S
C1108 C1109 1.385 . S
C1108 C1110 1.478 . S
C1109 H1103 0.930 . S
C1109 C1105 1.400 . S
C1109 C1108 1.385 . S
C1110 C1108 1.478 . S
C1110 C1112 1.381 . S
C1110 C1116 1.383 . S
C1111 C1107 1.495 . S
C1111 H1117 0.959 . S
C1111 H1118 0.961 . S
C1111 H1119 0.960 . S
C1112 C1110 1.381 . S
C1112 C1113 1.394 . S
C1112 H1120 0.930 . S
C1113 C1112 1.394 . S
C1113 C1114 1.383 . S
C1113 H1121 0.929 . S
C1114 C1113 1.383 . S
C1114 C1115 1.377 . S
C1115 H1099 0.930 . S
C1115 C1114 1.377 . S
C1115 C1116 1.379 . S
C1116 H1100 0.931 . S
C1116 C1110 1.383 . S
C1116 C1115 1.379 . S
H1117 C1111 0.959 . S
H1118 C1111 0.961 . S
H1119 C1111 0.960 . S
H1120 C1112 0.930 . S
H1121 C1113 0.929 . S
H1122 C1130 0.929 . S
H1123 C1132 0.930 . S
H1124 C1134 0.930 . S
H1125 C1137 0.929 . S
H1126 C1140 0.930 . S
H1127 C1142 0.960 . S
H1128 C1142 0.960 . S
H1129 C1142 0.960 . S
C1130 H1122 0.929 . S
C1130 C1131 1.377 . S
C1130 C1132 1.384 . S
C1131 C1130 1.377 . S
C1131 C1137 1.390 . S
C1132 H1123 0.930 . S
C1132 C1130 1.384 . S
C1132 C1133 1.372 . S
C1133 C1132 1.372 . S
C1133 C1134 1.400 . S
C1133 C1138 1.490 . S
C1134 H1124 0.930 . S
C1134 C1133 1.400 . S
C1134 C1137 1.386 . S
H1135 C1151 0.930 . S
H1136 C1152 0.931 . S
C1137 H1125 0.929 . S
C1137 C1131 1.390 . S
C1137 C1134 1.386 . S
C1138 C1133 1.490 . S
C1138 C1140 1.395 . S
C1138 C1141 1.403 . S
H1139 C1145 0.930 . S
C1140 H1126 0.930 . S
C1140 C1138 1.395 . S
C1140 C1143 1.403 . S
C1141 C1138 1.403 . S
C1141 C1142 1.524 . S
C1141 C1145 1.400 . S
C1142 H1127 0.960 . S
C1142 H1128 0.960 . S
C1142 H1129 0.960 . S
C1142 C1141 1.524 . S
C1143 C1140 1.403 . S
C1143 C1144 1.392 . S
C1143 C1147 1.495 . S
C1144 C1143 1.392 . S
C1144 C1145 1.385 . S
C1144 C1146 1.478 . S
C1145 H1139 0.930 . S
C1145 C1141 1.400 . S
C1145 C1144 1.385 . S
C1146 C1144 1.478 . S
C1146 C1148 1.381 . S
C1146 C1152 1.383 . S
C1147 C1143 1.495 . S
C1147 H1153 0.959 . S
C1147 H1154 0.961 . S
C1147 H1155 0.960 . S
C1148 C1146 1.381 . S
C1148 C1149 1.394 . S
C1148 H1156 0.930 . S
C1149 C1148 1.394 . S
C1149 C1150 1.383 . S
C1149 H1157 0.929 . S
C1150 C1149 1.383 . S
C1150 C1151 1.377 . S
C1151 H1135 0.930 . S
C1151 C1150 1.377 . S
C1151 C1152 1.379 . S
C1152 H1136 0.931 . S
C1152 C1146 1.383 . S
C1152 C1151 1.379 . S
H1153 C1147 0.959 . S
H1154 C1147 0.961 . S
H1155 C1147 0.960 . S
H1156 C1148 0.930 . S
H1157 C1149 0.929 . S
H1158 C1166 0.929 . S
H1159 C1168 0.930 . S
H1160 C1170 0.930 . S
H1161 C1173 0.929 . S
H1162 C1176 0.930 . S
H1163 C1178 0.960 . S
H1164 C1178 0.960 . S
H1165 C1178 0.960 . S
C1166 H1158 0.929 . S
C1166 C1167 1.377 . S
C1166 C1168 1.384 . S
C1167 C1166 1.377 . S
C1167 C1173 1.390 . S
C1168 H1159 0.930 . S
C1168 C1166 1.384 . S
C1168 C1169 1.372 . S
C1169 C1168 1.372 . S
C1169 C1170 1.400 . S
C1169 C1174 1.490 . S
C1170 H1160 0.930 . S
C1170 C1169 1.400 . S
C1170 C1173 1.386 . S
H1171 C1187 0.930 . S
H1172 C1188 0.931 . S
C1173 H1161 0.929 . S
C1173 C1167 1.390 . S
C1173 C1170 1.386 . S
C1174 C1169 1.490 . S
C1174 C1176 1.395 . S
C1174 C1177 1.403 . S
H1175 C1181 0.930 . S
C1176 H1162 0.930 . S
C1176 C1174 1.395 . S
C1176 C1179 1.403 . S
C1177 C1174 1.403 . S
C1177 C1178 1.524 . S
C1177 C1181 1.400 . S
C1178 H1163 0.960 . S
C1178 H1164 0.960 . S
C1178 H1165 0.960 . S
C1178 C1177 1.524 . S
C1179 C1176 1.403 . S
C1179 C1180 1.392 . S
C1179 C1183 1.495 . S
C1180 C1179 1.392 . S
C1180 C1181 1.385 . S
C1180 C1182 1.478 . S
C1181 H1175 0.930 . S
C1181 C1177 1.400 . S
C1181 C1180 1.385 . S
C1182 C1180 1.478 . S
C1182 C1184 1.381 . S
C1182 C1188 1.383 . S
C1183 C1179 1.495 . S
C1183 H1189 0.959 . S
C1183 H1190 0.961 . S
C1183 H1191 0.960 . S
C1184 C1182 1.381 . S
C1184 C1185 1.394 . S
C1184 H1192 0.930 . S
C1185 C1184 1.394 . S
C1185 C1186 1.383 . S
C1185 H1193 0.929 . S
C1186 C1185 1.383 . S
C1186 C1187 1.377 . S
C1187 H1171 0.930 . S
C1187 C1186 1.377 . S
C1187 C1188 1.379 . S
C1188 H1172 0.931 . S
C1188 C1182 1.383 . S
C1188 C1187 1.379 . S
H1189 C1183 0.959 . S
H1190 C1183 0.961 . S
H1191 C1183 0.960 . S
H1192 C1184 0.930 . S
H1193 C1185 0.929 . S
H1194 C1202 0.929 . S
H1195 C1204 0.930 . S
H1196 C1206 0.930 . S
H1197 C1209 0.929 . S
H1198 C1212 0.930 . S
H1199 C1214 0.960 . S
H1200 C1214 0.960 . S
H1201 C1214 0.960 . S
C1202 H1194 0.929 . S
C1202 C1203 1.377 . S
C1202 C1204 1.384 . S
C1203 C1202 1.377 . S
C1203 C1209 1.390 . S
C1204 H1195 0.930 . S
C1204 C1202 1.384 . S
C1204 C1205 1.372 . S
C1205 C1204 1.372 . S
C1205 C1206 1.400 . S
C1205 C1210 1.490 . S
C1206 H1196 0.930 . S
C1206 C1205 1.400 . S
C1206 C1209 1.386 . S
H1207 C1223 0.930 . S
H1208 C1224 0.931 . S
C1209 H1197 0.929 . S
C1209 C1203 1.390 . S
C1209 C1206 1.386 . S
C1210 C1205 1.490 . S
C1210 C1212 1.395 . S
C1210 C1213 1.403 . S
H1211 C1217 0.930 . S
C1212 H1198 0.930 . S
C1212 C1210 1.395 . S
C1212 C1215 1.403 . S
C1213 C1210 1.403 . S
C1213 C1214 1.524 . S
C1213 C1217 1.400 . S
C1214 H1199 0.960 . S
C1214 H1200 0.960 . S
C1214 H1201 0.960 . S
C1214 C1213 1.524 . S
C1215 C1212 1.403 . S
C1215 C1216 1.392 . S
C1215 C1219 1.495 . S
C1216 C1215 1.392 . S
C1216 C1217 1.385 . S
C1216 C1218 1.478 . S
C1217 H1211 0.930 . S
C1217 C1213 1.400 . S
C1217 C1216 1.385 . S
C1218 C1216 1.478 . S
C1218 C1220 1.381 . S
C1218 C1224 1.383 . S
C1219 C1215 1.495 . S
C1219 H1225 0.959 . S
C1219 H1226 0.961 . S
C1219 H1227 0.960 . S
C1220 C1218 1.381 . S
C1220 C1221 1.394 . S
C1220 H1228 0.930 . S
C1221 C1220 1.394 . S
C1221 C1222 1.383 . S
C1221 H1229 0.929 . S
C1222 C1221 1.383 . S
C1222 C1223 1.377 . S
C1223 H1207 0.930 . S
C1223 C1222 1.377 . S
C1223 C1224 1.379 . S
C1224 H1208 0.931 . S
C1224 C1218 1.383 . S
C1224 C1223 1.379 . S
H1225 C1219 0.959 . S
H1226 C1219 0.961 . S
H1227 C1219 0.960 . S
H1228 C1220 0.930 . S
H1229 C1221 0.929 . S
H1230 C1238 0.929 . S
H1231 C1240 0.930 . S
H1232 C1242 0.930 . S
H1233 C1245 0.929 . S
H1234 C1248 0.930 . S
H1235 C1250 0.960 . S
H1236 C1250 0.960 . S
H1237 C1250 0.960 . S
C1238 H1230 0.929 . S
C1238 C1239 1.377 . S
C1238 C1240 1.384 . S
C1239 C1238 1.377 . S
C1239 C1245 1.390 . S
C1240 H1231 0.930 . S
C1240 C1238 1.384 . S
C1240 C1241 1.372 . S
C1241 C1240 1.372 . S
C1241 C1242 1.400 . S
C1241 C1246 1.490 . S
C1242 H1232 0.930 . S
C1242 C1241 1.400 . S
C1242 C1245 1.386 . S
H1243 C1259 0.930 . S
H1244 C1260 0.931 . S
C1245 H1233 0.929 . S
C1245 C1239 1.390 . S
C1245 C1242 1.386 . S
C1246 C1241 1.490 . S
C1246 C1248 1.395 . S
C1246 C1249 1.403 . S
H1247 C1253 0.930 . S
C1248 H1234 0.930 . S
C1248 C1246 1.395 . S
C1248 C1251 1.403 . S
C1249 C1246 1.403 . S
C1249 C1250 1.524 . S
C1249 C1253 1.400 . S
C1250 H1235 0.960 . S
C1250 H1236 0.960 . S
C1250 H1237 0.960 . S
C1250 C1249 1.524 . S
C1251 C1248 1.403 . S
C1251 C1252 1.392 . S
C1251 C1255 1.495 . S
C1252 C1251 1.392 . S
C1252 C1253 1.385 . S
C1252 C1254 1.478 . S
C1253 H1247 0.930 . S
C1253 C1249 1.400 . S
C1253 C1252 1.385 . S
C1254 C1252 1.478 . S
C1254 C1256 1.381 . S
C1254 C1260 1.383 . S
C1255 C1251 1.495 . S
C1255 H1261 0.959 . S
C1255 H1262 0.961 . S
C1255 H1263 0.960 . S
C1256 C1254 1.381 . S
C1256 C1257 1.394 . S
C1256 H1264 0.930 . S
C1257 C1256 1.394 . S
C1257 C1258 1.383 . S
C1257 H1265 0.929 . S
C1258 C1257 1.383 . S
C1258 C1259 1.377 . S
C1259 H1243 0.930 . S
C1259 C1258 1.377 . S
C1259 C1260 1.379 . S
C1260 H1244 0.931 . S
C1260 C1254 1.383 . S
C1260 C1259 1.379 . S
H1261 C1255 0.959 . S
H1262 C1255 0.961 . S
H1263 C1255 0.960 . S
H1264 C1256 0.930 . S
H1265 C1257 0.929 . S
H1266 C1274 0.929 . S
H1267 C1276 0.930 . S
H1268 C1278 0.930 . S
H1269 C1281 0.929 . S
H1270 C1284 0.930 . S
H1271 C1286 0.960 . S
H1272 C1286 0.960 . S
H1273 C1286 0.960 . S
C1274 H1266 0.929 . S
C1274 C1275 1.377 . S
C1274 C1276 1.384 . S
C1275 C1274 1.377 . S
C1275 C1281 1.390 . S
C1276 H1267 0.930 . S
C1276 C1274 1.384 . S
C1276 C1277 1.372 . S
C1277 C1276 1.372 . S
C1277 C1278 1.400 . S
C1277 C1282 1.490 . S
C1278 H1268 0.930 . S
C1278 C1277 1.400 . S
C1278 C1281 1.386 . S
H1279 C1295 0.930 . S
H1280 C1296 0.931 . S
C1281 H1269 0.929 . S
C1281 C1275 1.390 . S
C1281 C1278 1.386 . S
C1282 C1277 1.490 . S
C1282 C1284 1.395 . S
C1282 C1285 1.403 . S
H1283 C1289 0.930 . S
C1284 H1270 0.930 . S
C1284 C1282 1.395 . S
C1284 C1287 1.403 . S
C1285 C1282 1.403 . S
C1285 C1286 1.524 . S
C1285 C1289 1.400 . S
C1286 H1271 0.960 . S
C1286 H1272 0.960 . S
C1286 H1273 0.960 . S
C1286 C1285 1.524 . S
C1287 C1284 1.403 . S
C1287 C1288 1.392 . S
C1287 C1291 1.495 . S
C1288 C1287 1.392 . S
C1288 C1289 1.385 . S
C1288 C1290 1.478 . S
C1289 H1283 0.930 . S
C1289 C1285 1.400 . S
C1289 C1288 1.385 . S
C1290 C1288 1.478 . S
C1290 C1292 1.381 . S
C1290 C1296 1.383 . S
C1291 C1287 1.495 . S
C1291 H1297 0.959 . S
C1291 H1298 0.961 . S
C1291 H1299 0.960 . S
C1292 C1290 1.381 . S
C1292 C1293 1.394 . S
C1292 H1300 0.930 . S
C1293 C1292 1.394 . S
C1293 C1294 1.383 . S
C1293 H1301 0.929 . S
C1294 C1293 1.383 . S
C1294 C1295 1.377 . S
C1295 H1279 0.930 . S
C1295 C1294 1.377 . S
C1295 C1296 1.379 . S
C1296 H1280 0.931 . S
C1296 C1290 1.383 . S
C1296 C1295 1.379 . S
H1297 C1291 0.959 . S
H1298 C1291 0.961 . S
H1299 C1291 0.960 . S
H1300 C1292 0.930 . S
H1301 C1293 0.929 . S
H1302 C1310 0.929 . S
H1303 C1312 0.930 . S
H1304 C1314 0.930 . S
H1305 C1317 0.929 . S
H1306 C1320 0.930 . S
H1307 C1322 0.960 . S
H1308 C1322 0.960 . S
H1309 C1322 0.960 . S
C1310 H1302 0.929 . S
C1310 C1311 1.377 . S
C1310 C1312 1.384 . S
C1311 C1310 1.377 . S
C1311 C1317 1.390 . S
C1312 H1303 0.930 . S
C1312 C1310 1.384 . S
C1312 C1313 1.372 . S
C1313 C1312 1.372 . S
C1313 C1314 1.400 . S
C1313 C1318 1.490 . S
C1314 H1304 0.930 . S
C1314 C1313 1.400 . S
C1314 C1317 1.386 . S
H1315 C1331 0.930 . S
H1316 C1332 0.931 . S
C1317 H1305 0.929 . S
C1317 C1311 1.390 . S
C1317 C1314 1.386 . S
C1318 C1313 1.490 . S
C1318 C1320 1.395 . S
C1318 C1321 1.403 . S
H1319 C1325 0.930 . S
C1320 H1306 0.930 . S
C1320 C1318 1.395 . S
C1320 C1323 1.403 . S
C1321 C1318 1.403 . S
C1321 C1322 1.524 . S
C1321 C1325 1.400 . S
C1322 H1307 0.960 . S
C1322 H1308 0.960 . S
C1322 H1309 0.960 . S
C1322 C1321 1.524 . S
C1323 C1320 1.403 . S
C1323 C1324 1.392 . S
C1323 C1327 1.495 . S
C1324 C1323 1.392 . S
C1324 C1325 1.385 . S
C1324 C1326 1.478 . S
C1325 H1319 0.930 . S
C1325 C1321 1.400 . S
C1325 C1324 1.385 . S
C1326 C1324 1.478 . S
C1326 C1328 1.381 . S
C1326 C1332 1.383 . S
C1327 C1323 1.495 . S
C1327 H1333 0.959 . S
C1327 H1334 0.961 . S
C1327 H1335 0.960 . S
C1328 C1326 1.381 . S
C1328 C1329 1.394 . S
C1328 H1336 0.930 . S
C1329 C1328 1.394 . S
C1329 C1330 1.383 . S
C1329 H1337 0.929 . S
C1330 C1329 1.383 . S
C1330 C1331 1.377 . S
C1331 H1315 0.930 . S
C1331 C1330 1.377 . S
C1331 C1332 1.379 . S
C1332 H1316 0.931 . S
C1332 C1326 1.383 . S
C1332 C1331 1.379 . S
H1333 C1327 0.959 . S
H1334 C1327 0.961 . S
H1335 C1327 0.960 . S
H1336 C1328 0.930 . S
H1337 C1329 0.929 . S
H1338 C1346 0.929 . S
H1339 C1348 0.930 . S
H1340 C1350 0.930 . S
H1341 C1353 0.929 . S
H1342 C1356 0.930 . S
H1343 C1358 0.960 . S
H1344 C1358 0.960 . S
H1345 C1358 0.960 . S
C1346 H1338 0.929 . S
C1346 C1347 1.377 . S
C1346 C1348 1.384 . S
C1347 C1346 1.377 . S
C1347 C1353 1.390 . S
C1348 H1339 0.930 . S
C1348 C1346 1.384 . S
C1348 C1349 1.372 . S
C1349 C1348 1.372 . S
C1349 C1350 1.400 . S
C1349 C1354 1.490 . S
C1350 H1340 0.930 . S
C1350 C1349 1.400 . S
C1350 C1353 1.386 . S
H1351 C1367 0.930 . S
H1352 C1368 0.931 . S
C1353 H1341 0.929 . S
C1353 C1347 1.390 . S
C1353 C1350 1.386 . S
C1354 C1349 1.490 . S
C1354 C1356 1.395 . S
C1354 C1357 1.403 . S
H1355 C1361 0.930 . S
C1356 H1342 0.930 . S
C1356 C1354 1.395 . S
C1356 C1359 1.403 . S
C1357 C1354 1.403 . S
C1357 C1358 1.524 . S
C1357 C1361 1.400 . S
C1358 H1343 0.960 . S
C1358 H1344 0.960 . S
C1358 H1345 0.960 . S
C1358 C1357 1.524 . S
C1359 C1356 1.403 . S
C1359 C1360 1.392 . S
C1359 C1363 1.495 . S
C1360 C1359 1.392 . S
C1360 C1361 1.385 . S
C1360 C1362 1.478 . S
C1361 H1355 0.930 . S
C1361 C1357 1.400 . S
C1361 C1360 1.385 . S
C1362 C1360 1.478 . S
C1362 C1364 1.381 . S
C1362 C1368 1.383 . S
C1363 C1359 1.495 . S
C1363 H1369 0.959 . S
C1363 H1370 0.961 . S
C1363 H1371 0.960 . S
C1364 C1362 1.381 . S
C1364 C1365 1.394 . S
C1364 H1372 0.930 . S
C1365 C1364 1.394 . S
C1365 C1366 1.383 . S
C1365 H1373 0.929 . S
C1366 C1365 1.383 . S
C1366 C1367 1.377 . S
C1367 H1351 0.930 . S
C1367 C1366 1.377 . S
C1367 C1368 1.379 . S
C1368 H1352 0.931 . S
C1368 C1362 1.383 . S
C1368 C1367 1.379 . S
H1369 C1363 0.959 . S
H1370 C1363 0.961 . S
H1371 C1363 0.960 . S
H1372 C1364 0.930 . S
H1373 C1365 0.929 . S
H1374 C1382 0.929 . S
H1375 C1384 0.930 . S
H1376 C1386 0.930 . S
H1377 C1389 0.929 . S
H1378 C1392 0.930 . S
H1379 C1394 0.960 . S
H1380 C1394 0.960 . S
H1381 C1394 0.960 . S
C1382 H1374 0.929 . S
C1382 C1383 1.377 . S
C1382 C1384 1.384 . S
C1383 C1382 1.377 . S
C1383 C1389 1.390 . S
C1384 H1375 0.930 . S
C1384 C1382 1.384 . S
C1384 C1385 1.372 . S
C1385 C1384 1.372 . S
C1385 C1386 1.400 . S
C1385 C1390 1.490 . S
C1386 H1376 0.930 . S
C1386 C1385 1.400 . S
C1386 C1389 1.386 . S
H1387 C1403 0.930 . S
H1388 C1404 0.931 . S
C1389 H1377 0.929 . S
C1389 C1383 1.390 . S
C1389 C1386 1.386 . S
C1390 C1385 1.490 . S
C1390 C1392 1.395 . S
C1390 C1393 1.403 . S
H1391 C1397 0.930 . S
C1392 H1378 0.930 . S
C1392 C1390 1.395 . S
C1392 C1395 1.403 . S
C1393 C1390 1.403 . S
C1393 C1394 1.524 . S
C1393 C1397 1.400 . S
C1394 H1379 0.960 . S
C1394 H1380 0.960 . S
C1394 H1381 0.960 . S
C1394 C1393 1.524 . S
C1395 C1392 1.403 . S
C1395 C1396 1.392 . S
C1395 C1399 1.495 . S
C1396 C1395 1.392 . S
C1396 C1397 1.385 . S
C1396 C1398 1.478 . S
C1397 H1391 0.930 . S
C1397 C1393 1.400 . S
C1397 C1396 1.385 . S
C1398 C1396 1.478 . S
C1398 C1400 1.381 . S
C1398 C1404 1.383 . S
C1399 C1395 1.495 . S
C1399 H1405 0.959 . S
C1399 H1406 0.961 . S
C1399 H1407 0.960 . S
C1400 C1398 1.381 . S
C1400 C1401 1.394 . S
C1400 H1408 0.930 . S
C1401 C1400 1.394 . S
C1401 C1402 1.383 . S
C1401 H1409 0.929 . S
C1402 C1401 1.383 . S
C1402 C1403 1.377 . S
C1403 H1387 0.930 . S
C1403 C1402 1.377 . S
C1403 C1404 1.379 . S
C1404 H1388 0.931 . S
C1404 C1398 1.383 . S
C1404 C1403 1.379 . S
H1405 C1399 0.959 . S
H1406 C1399 0.961 . S
H1407 C1399 0.960 . S
H1408 C1400 0.930 . S
H1409 C1401 0.929 . S
H1410 C1418 0.929 . S
H1411 C1420 0.930 . S
H1412 C1422 0.930 . S
H1413 C1425 0.929 . S
H1414 C1428 0.930 . S
H1415 C1430 0.960 . S
H1416 C1430 0.960 . S
H1417 C1430 0.960 . S
C1418 H1410 0.929 . S
C1418 C1419 1.377 . S
C1418 C1420 1.384 . S
C1419 C1418 1.377 . S
C1419 C1425 1.390 . S
C1420 H1411 0.930 . S
C1420 C1418 1.384 . S
C1420 C1421 1.372 . S
C1421 C1420 1.372 . S
C1421 C1422 1.400 . S
C1421 C1426 1.490 . S
C1422 H1412 0.930 . S
C1422 C1421 1.400 . S
C1422 C1425 1.386 . S
H1423 C1439 0.930 . S
H1424 C1440 0.931 . S
C1425 H1413 0.929 . S
C1425 C1419 1.390 . S
C1425 C1422 1.386 . S
C1426 C1421 1.490 . S
C1426 C1428 1.395 . S
C1426 C1429 1.403 . S
H1427 C1433 0.930 . S
C1428 H1414 0.930 . S
C1428 C1426 1.395 . S
C1428 C1431 1.403 . S
C1429 C1426 1.403 . S
C1429 C1430 1.524 . S
C1429 C1433 1.400 . S
C1430 H1415 0.960 . S
C1430 H1416 0.960 . S
C1430 H1417 0.960 . S
C1430 C1429 1.524 . S
C1431 C1428 1.403 . S
C1431 C1432 1.392 . S
C1431 C1435 1.495 . S
C1432 C1431 1.392 . S
C1432 C1433 1.385 . S
C1432 C1434 1.478 . S
C1433 H1427 0.930 . S
C1433 C1429 1.400 . S
C1433 C1432 1.385 . S
C1434 C1432 1.478 . S
C1434 C1436 1.381 . S
C1434 C1440 1.383 . S
C1435 C1431 1.495 . S
C1435 H1441 0.959 . S
C1435 H1442 0.961 . S
C1435 H1443 0.960 . S
C1436 C1434 1.381 . S
C1436 C1437 1.394 . S
C1436 H1444 0.930 . S
C1437 C1436 1.394 . S
C1437 C1438 1.383 . S
C1437 H1445 0.929 . S
C1438 C1437 1.383 . S
C1438 C1439 1.377 . S
C1439 H1423 0.930 . S
C1439 C1438 1.377 . S
C1439 C1440 1.379 . S
C1440 H1424 0.931 . S
C1440 C1434 1.383 . S
C1440 C1439 1.379 . S
H1441 C1435 0.959 . S
H1442 C1435 0.961 . S
H1443 C1435 0.960 . S
H1444 C1436 0.930 . S
H1445 C1437 0.929 . S
H1446 C1454 0.929 . S
H1447 C1456 0.930 . S
H1448 C1458 0.930 . S
H1449 C1461 0.929 . S
H1450 C1464 0.930 . S
H1451 C1466 0.960 . S
H1452 C1466 0.960 . S
H1453 C1466 0.960 . S
C1454 H1446 0.929 . S
C1454 C1455 1.377 . S
C1454 C1456 1.384 . S
C1455 C1454 1.377 . S
C1455 C1461 1.390 . S
C1456 H1447 0.930 . S
C1456 C1454 1.384 . S
C1456 C1457 1.372 . S
C1457 C1456 1.372 . S
C1457 C1458 1.400 . S
C1457 C1462 1.490 . S
C1458 H1448 0.930 . S
C1458 C1457 1.400 . S
C1458 C1461 1.386 . S
H1459 C1475 0.930 . S
H1460 C1476 0.931 . S
C1461 H1449 0.929 . S
C1461 C1455 1.390 . S
C1461 C1458 1.386 . S
C1462 C1457 1.490 . S
C1462 C1464 1.395 . S
C1462 C1465 1.403 . S
H1463 C1469 0.930 . S
C1464 H1450 0.930 . S
C1464 C1462 1.395 . S
C1464 C1467 1.403 . S
C1465 C1462 1.403 . S
C1465 C1466 1.524 . S
C1465 C1469 1.400 . S
C1466 H1451 0.960 . S
C1466 H1452 0.960 . S
C1466 H1453 0.960 . S
C1466 C1465 1.524 . S
C1467 C1464 1.403 . S
C1467 C1468 1.392 . S
C1467 C1471 1.495 . S
C1468 C1467 1.392 . S
C1468 C1469 1.385 . S
C1468 C1470 1.478 . S
C1469 H1463 0.930 . S
C1469 C1465 1.400 . S
C1469 C1468 1.385 . S
C1470 C1468 1.478 . S
C1470 C1472 1.381 . S
C1470 C1476 1.383 . S
C1471 C1467 1.495 . S
C1471 H1477 0.959 . S
C1471 H1478 0.961 . S
C1471 H1479 0.960 . S
C1472 C1470 1.381 . S
C1472 C1473 1.394 . S
C1472 H1480 0.930 . S
C1473 C1472 1.394 . S
C1473 C1474 1.383 . S
C1473 H1481 0.929 . S
C1474 C1473 1.383 . S
C1474 C1475 1.377 . S
C1475 H1459 0.930 . S
C1475 C1474 1.377 . S
C1475 C1476 1.379 . S
C1476 H1460 0.931 . S
C1476 C1470 1.383 . S
C1476 C1475 1.379 . S
H1477 C1471 0.959 . S
H1478 C1471 0.961 . S
H1479 C1471 0.960 . S
H1480 C1472 0.930 . S
H1481 C1473 0.929 . S
H1482 C1490 0.929 . S
H1483 C1492 0.930 . S
H1484 C1494 0.930 . S
H1485 C1497 0.929 . S
H1486 C1500 0.930 . S
H1487 C1502 0.960 . S
H1488 C1502 0.960 . S
H1489 C1502 0.960 . S
C1490 H1482 0.929 . S
C1490 C1491 1.377 . S
C1490 C1492 1.384 . S
C1491 C1490 1.377 . S
C1491 C1497 1.390 . S
C1492 H1483 0.930 . S
C1492 C1490 1.384 . S
C1492 C1493 1.372 . S
C1493 C1492 1.372 . S
C1493 C1494 1.400 . S
C1493 C1498 1.490 . S
C1494 H1484 0.930 . S
C1494 C1493 1.400 . S
C1494 C1497 1.386 . S
H1495 C1511 0.930 . S
H1496 C1512 0.931 . S
C1497 H1485 0.929 . S
C1497 C1491 1.390 . S
C1497 C1494 1.386 . S
C1498 C1493 1.490 . S
C1498 C1500 1.395 . S
C1498 C1501 1.403 . S
H1499 C1505 0.930 . S
C1500 H1486 0.930 . S
C1500 C1498 1.395 . S
C1500 C1503 1.403 . S
C1501 C1498 1.403 . S
C1501 C1502 1.524 . S
C1501 C1505 1.400 . S
C1502 H1487 0.960 . S
C1502 H1488 0.960 . S
C1502 H1489 0.960 . S
C1502 C1501 1.524 . S
C1503 C1500 1.403 . S
C1503 C1504 1.392 . S
C1503 C1507 1.495 . S
C1504 C1503 1.392 . S
C1504 C1505 1.385 . S
C1504 C1506 1.478 . S
C1505 H1499 0.930 . S
C1505 C1501 1.400 . S
C1505 C1504 1.385 . S
C1506 C1504 1.478 . S
C1506 C1508 1.381 . S
C1506 C1512 1.383 . S
C1507 C1503 1.495 . S
C1507 H1513 0.959 . S
C1507 H1514 0.961 . S
C1507 H1515 0.960 . S
C1508 C1506 1.381 . S
C1508 C1509 1.394 . S
C1508 H1516 0.930 . S
C1509 C1508 1.394 . S
C1509 C1510 1.383 . S
C1509 H1517 0.929 . S
C1510 C1509 1.383 . S
C1510 C1511 1.377 . S
C1511 H1495 0.930 . S
C1511 C1510 1.377 . S
C1511 C1512 1.379 . S
C1512 H1496 0.931 . S
C1512 C1506 1.383 . S
C1512 C1511 1.379 . S
H1513 C1507 0.959 . S
H1514 C1507 0.961 . S
H1515 C1507 0.960 . S
H1516 C1508 0.930 . S
H1517 C1509 0.929 . S
H1518 C1526 0.929 . S
H1519 C1528 0.930 . S
H1520 C1530 0.930 . S
H1521 C1533 0.929 . S
H1522 C1536 0.930 . S
H1523 C1538 0.960 . S
H1524 C1538 0.960 . S
H1525 C1538 0.960 . S
C1526 H1518 0.929 . S
C1526 C1527 1.377 . S
C1526 C1528 1.384 . S
C1527 C1526 1.377 . S
C1527 C1533 1.390 . S
C1528 H1519 0.930 . S
C1528 C1526 1.384 . S
C1528 C1529 1.372 . S
C1529 C1528 1.372 . S
C1529 C1530 1.400 . S
C1529 C1534 1.490 . S
C1530 H1520 0.930 . S
C1530 C1529 1.400 . S
C1530 C1533 1.386 . S
H1531 C1547 0.930 1_554 S
H1532 C1548 0.931 . S
C1533 H1521 0.929 . S
C1533 C1527 1.390 . S
C1533 C1530 1.386 . S
C1534 C1529 1.490 . S
C1534 C1536 1.395 . S
C1534 C1537 1.403 . S
H1535 C1541 0.930 . S
C1536 H1522 0.930 . S
C1536 C1534 1.395 . S
C1536 C1539 1.403 . S
C1537 C1534 1.403 . S
C1537 C1538 1.524 . S
C1537 C1541 1.400 . S
C1538 H1523 0.960 . S
C1538 H1524 0.960 . S
C1538 H1525 0.960 . S
C1538 C1537 1.524 . S
C1539 C1536 1.403 . S
C1539 C1540 1.392 . S
C1539 C1543 1.495 . S
C1540 C1539 1.392 . S
C1540 C1541 1.385 . S
C1540 C1542 1.478 . S
C1541 H1535 0.930 . S
C1541 C1537 1.400 . S
C1541 C1540 1.385 . S
C1542 C1540 1.478 . S
C1542 C1544 1.381 . S
C1542 C1548 1.383 . S
C1543 C1539 1.495 . S
C1543 H1549 0.959 . S
C1543 H1550 0.961 . S
C1543 H1551 0.960 . S
C1544 C1542 1.381 . S
C1544 C1545 1.394 . S
C1544 H1552 0.930 . S
C1545 C1544 1.394 . S
C1545 C1546 1.383 . S
C1545 H1553 0.929 . S
C1546 C1545 1.383 . S
C1546 C1547 1.377 . S
C1547 H1531 0.930 1_556 S
C1547 C1546 1.377 . S
C1547 C1548 1.379 . S
C1548 H1532 0.931 . S
C1548 C1542 1.383 . S
C1548 C1547 1.379 . S
H1549 C1543 0.959 . S
H1550 C1543 0.961 . S
H1551 C1543 0.960 . S
H1552 C1544 0.930 . S
H1553 C1545 0.929 . S
H1554 C1562 0.929 . S
H1555 C1564 0.930 . S
H1556 C1566 0.930 . S
H1557 C1569 0.929 . S
H1558 C1572 0.930 . S
H1559 C1574 0.960 . S
H1560 C1574 0.960 . S
H1561 C1574 0.960 . S
C1562 H1554 0.929 . S
C1562 C1563 1.377 . S
C1562 C1564 1.384 . S
C1563 C1562 1.377 . S
C1563 C1569 1.390 . S
C1564 H1555 0.930 . S
C1564 C1562 1.384 . S
C1564 C1565 1.372 . S
C1565 C1564 1.372 . S
C1565 C1566 1.400 . S
C1565 C1570 1.490 . S
C1566 H1556 0.930 . S
C1566 C1565 1.400 . S
C1566 C1569 1.386 . S
H1567 C1583 0.930 . S
H1568 C1584 0.931 . S
C1569 H1557 0.929 . S
C1569 C1563 1.390 . S
C1569 C1566 1.386 . S
C1570 C1565 1.490 . S
C1570 C1572 1.395 . S
C1570 C1573 1.403 . S
H1571 C1577 0.930 . S
C1572 H1558 0.930 . S
C1572 C1570 1.395 . S
C1572 C1575 1.403 . S
C1573 C1570 1.403 . S
C1573 C1574 1.524 . S
C1573 C1577 1.400 . S
C1574 H1559 0.960 . S
C1574 H1560 0.960 . S
C1574 H1561 0.960 . S
C1574 C1573 1.524 . S
C1575 C1572 1.403 . S
C1575 C1576 1.392 . S
C1575 C1579 1.495 . S
C1576 C1575 1.392 . S
C1576 C1577 1.385 . S
C1576 C1578 1.478 . S
C1577 H1571 0.930 . S
C1577 C1573 1.400 . S
C1577 C1576 1.385 . S
C1578 C1576 1.478 . S
C1578 C1580 1.381 . S
C1578 C1584 1.383 . S
C1579 C1575 1.495 . S
C1579 H1585 0.959 . S
C1579 H1586 0.961 . S
C1579 H1587 0.960 . S
C1580 C1578 1.381 . S
C1580 C1581 1.394 . S
C1580 H1588 0.930 . S
C1581 C1580 1.394 . S
C1581 C1582 1.383 . S
C1581 H1589 0.929 . S
C1582 C1581 1.383 . S
C1582 C1583 1.377 . S
C1583 H1567 0.930 . S
C1583 C1582 1.377 . S
C1583 C1584 1.379 . S
C1584 H1568 0.931 . S
C1584 C1578 1.383 . S
C1584 C1583 1.379 . S
H1585 C1579 0.959 . S
H1586 C1579 0.961 . S
H1587 C1579 0.960 . S
H1588 C1580 0.930 . S
H1589 C1581 0.929 . S
H1590 C1598 0.929 . S
H1591 C1600 0.930 . S
H1592 C1602 0.930 . S
H1593 C1605 0.929 . S
H1594 C1608 0.930 . S
H1595 C1610 0.960 . S
H1596 C1610 0.960 . S
H1597 C1610 0.960 . S
C1598 H1590 0.929 . S
C1598 C1599 1.377 . S
C1598 C1600 1.384 . S
C1599 C1598 1.377 . S
C1599 C1605 1.390 . S
C1600 H1591 0.930 . S
C1600 C1598 1.384 . S
C1600 C1601 1.372 . S
C1601 C1600 1.372 . S
C1601 C1602 1.400 . S
C1601 C1606 1.490 . S
C1602 H1592 0.930 . S
C1602 C1601 1.400 . S
C1602 C1605 1.386 . S
H1603 C1619 0.930 . S
H1604 C1620 0.931 . S
C1605 H1593 0.929 . S
C1605 C1599 1.390 . S
C1605 C1602 1.386 . S
C1606 C1601 1.490 . S
C1606 C1608 1.395 . S
C1606 C1609 1.403 . S
H1607 C1613 0.930 . S
C1608 H1594 0.930 . S
C1608 C1606 1.395 . S
C1608 C1611 1.403 . S
C1609 C1606 1.403 . S
C1609 C1610 1.524 . S
C1609 C1613 1.400 . S
C1610 H1595 0.960 . S
C1610 H1596 0.960 . S
C1610 H1597 0.960 . S
C1610 C1609 1.524 . S
C1611 C1608 1.403 . S
C1611 C1612 1.392 . S
C1611 C1615 1.495 . S
C1612 C1611 1.392 . S
C1612 C1613 1.385 . S
C1612 C1614 1.478 . S
C1613 H1607 0.930 . S
C1613 C1609 1.400 . S
C1613 C1612 1.385 . S
C1614 C1612 1.478 . S
C1614 C1616 1.381 . S
C1614 C1620 1.383 . S
C1615 C1611 1.495 . S
C1615 H1621 0.959 . S
C1615 H1622 0.961 . S
C1615 H1623 0.960 . S
C1616 C1614 1.381 . S
C1616 C1617 1.394 . S
C1616 H1624 0.930 . S
C1617 C1616 1.394 . S
C1617 C1618 1.383 . S
C1617 H1625 0.929 . S
C1618 C1617 1.383 . S
C1618 C1619 1.377 . S
C1619 H1603 0.930 . S
C1619 C1618 1.377 . S
C1619 C1620 1.379 . S
C1620 H1604 0.931 . S
C1620 C1614 1.383 . S
C1620 C1619 1.379 . S
H1621 C1615 0.959 . S
H1622 C1615 0.961 . S
H1623 C1615 0.960 . S
H1624 C1616 0.930 . S
H1625 C1617 0.929 . S
H1626 C1634 0.929 . S
H1627 C1636 0.930 . S
H1628 C1638 0.930 . S
H1629 C1641 0.929 . S
H1630 C1644 0.930 . S
H1631 C1646 0.960 . S
H1632 C1646 0.960 . S
H1633 C1646 0.960 . S
C1634 H1626 0.929 . S
C1634 C1635 1.377 . S
C1634 C1636 1.384 . S
C1635 C1634 1.377 . S
C1635 C1641 1.390 . S
C1636 H1627 0.930 . S
C1636 C1634 1.384 . S
C1636 C1637 1.372 . S
C1637 C1636 1.372 . S
C1637 C1638 1.400 . S
C1637 C1642 1.490 . S
C1638 H1628 0.930 . S
C1638 C1637 1.400 . S
C1638 C1641 1.386 . S
H1639 C1655 0.930 . S
H1640 C1656 0.931 . S
C1641 H1629 0.929 . S
C1641 C1635 1.390 . S
C1641 C1638 1.386 . S
C1642 C1637 1.490 . S
C1642 C1644 1.395 . S
C1642 C1645 1.403 . S
H1643 C1649 0.930 . S
C1644 H1630 0.930 . S
C1644 C1642 1.395 . S
C1644 C1647 1.403 . S
C1645 C1642 1.403 . S
C1645 C1646 1.524 . S
C1645 C1649 1.400 . S
C1646 H1631 0.960 . S
C1646 H1632 0.960 . S
C1646 H1633 0.960 . S
C1646 C1645 1.524 . S
C1647 C1644 1.403 . S
C1647 C1648 1.392 . S
C1647 C1651 1.495 . S
C1648 C1647 1.392 . S
C1648 C1649 1.385 . S
C1648 C1650 1.478 . S
C1649 H1643 0.930 . S
C1649 C1645 1.400 . S
C1649 C1648 1.385 . S
C1650 C1648 1.478 . S
C1650 C1652 1.381 . S
C1650 C1656 1.383 . S
C1651 C1647 1.495 . S
C1651 H1657 0.959 . S
C1651 H1658 0.961 . S
C1651 H1659 0.960 . S
C1652 C1650 1.381 . S
C1652 C1653 1.394 . S
C1652 H1660 0.930 . S
C1653 C1652 1.394 . S
C1653 C1654 1.383 . S
C1653 H1661 0.929 . S
C1654 C1653 1.383 . S
C1654 C1655 1.377 . S
C1655 H1639 0.930 . S
C1655 C1654 1.377 . S
C1655 C1656 1.379 . S
C1656 H1640 0.931 . S
C1656 C1650 1.383 . S
C1656 C1655 1.379 . S
H1657 C1651 0.959 . S
H1658 C1651 0.961 . S
H1659 C1651 0.960 . S
H1660 C1652 0.930 . S
H1661 C1653 0.929 . S
H1662 C1670 0.929 . S
H1663 C1672 0.930 . S
H1664 C1674 0.930 . S
H1665 C1677 0.929 . S
H1666 C1680 0.930 . S
H1667 C1682 0.960 . S
H1668 C1682 0.960 . S
H1669 C1682 0.960 . S
C1670 H1662 0.929 . S
C1670 C1671 1.377 . S
C1670 C1672 1.384 . S
C1671 C1670 1.377 . S
C1671 C1677 1.390 . S
C1672 H1663 0.930 . S
C1672 C1670 1.384 . S
C1672 C1673 1.372 . S
C1673 C1672 1.372 . S
C1673 C1674 1.400 . S
C1673 C1678 1.490 . S
C1674 H1664 0.930 . S
C1674 C1673 1.400 . S
C1674 C1677 1.386 . S
H1675 C1691 0.930 . S
H1676 C1692 0.931 . S
C1677 H1665 0.929 . S
C1677 C1671 1.390 . S
C1677 C1674 1.386 . S
C1678 C1673 1.490 . S
C1678 C1680 1.395 . S
C1678 C1681 1.403 . S
H1679 C1685 0.930 . S
C1680 H1666 0.930 . S
C1680 C1678 1.395 . S
C1680 C1683 1.403 . S
C1681 C1678 1.403 . S
C1681 C1682 1.524 . S
C1681 C1685 1.400 . S
C1682 H1667 0.960 . S
C1682 H1668 0.960 . S
C1682 H1669 0.960 . S
C1682 C1681 1.524 . S
C1683 C1680 1.403 . S
C1683 C1684 1.392 . S
C1683 C1687 1.495 . S
C1684 C1683 1.392 . S
C1684 C1685 1.385 . S
C1684 C1686 1.478 . S
C1685 H1679 0.930 . S
C1685 C1681 1.400 . S
C1685 C1684 1.385 . S
C1686 C1684 1.478 . S
C1686 C1688 1.381 . S
C1686 C1692 1.383 . S
C1687 C1683 1.495 . S
C1687 H1693 0.959 . S
C1687 H1694 0.961 . S
C1687 H1695 0.960 . S
C1688 C1686 1.381 . S
C1688 C1689 1.394 . S
C1688 H1696 0.930 . S
C1689 C1688 1.394 . S
C1689 C1690 1.383 . S
C1689 H1697 0.929 . S
C1690 C1689 1.383 . S
C1690 C1691 1.377 . S
C1691 H1675 0.930 . S
C1691 C1690 1.377 . S
C1691 C1692 1.379 . S
C1692 H1676 0.931 . S
C1692 C1686 1.383 . S
C1692 C1691 1.379 . S
H1693 C1687 0.959 . S
H1694 C1687 0.961 . S
H1695 C1687 0.960 . S
H1696 C1688 0.930 . S
H1697 C1689 0.929 . S
H1698 C1706 0.929 . S
H1699 C1708 0.930 . S
H1700 C1710 0.930 . S
H1701 C1713 0.929 . S
H1702 C1716 0.930 . S
H1703 C1718 0.960 . S
H1704 C1718 0.960 . S
H1705 C1718 0.960 . S
C1706 H1698 0.929 . S
C1706 C1707 1.377 . S
C1706 C1708 1.384 . S
C1707 C1706 1.377 . S
C1707 C1713 1.390 . S
C1708 H1699 0.930 . S
C1708 C1706 1.384 . S
C1708 C1709 1.372 . S
C1709 C1708 1.372 . S
C1709 C1710 1.400 . S
C1709 C1714 1.490 . S
C1710 H1700 0.930 . S
C1710 C1709 1.400 . S
C1710 C1713 1.386 . S
H1711 C1727 0.930 . S
H1712 C1728 0.931 . S
C1713 H1701 0.929 . S
C1713 C1707 1.390 . S
C1713 C1710 1.386 . S
C1714 C1709 1.490 . S
C1714 C1716 1.395 . S
C1714 C1717 1.403 . S
H1715 C1721 0.930 . S
C1716 H1702 0.930 . S
C1716 C1714 1.395 . S
C1716 C1719 1.403 . S
C1717 C1714 1.403 . S
C1717 C1718 1.524 . S
C1717 C1721 1.400 . S
C1718 H1703 0.960 . S
C1718 H1704 0.960 . S
C1718 H1705 0.960 . S
C1718 C1717 1.524 . S
C1719 C1716 1.403 . S
C1719 C1720 1.392 . S
C1719 C1723 1.495 . S
C1720 C1719 1.392 . S
C1720 C1721 1.385 . S
C1720 C1722 1.478 . S
C1721 H1715 0.930 . S
C1721 C1717 1.400 . S
C1721 C1720 1.385 . S
C1722 C1720 1.478 . S
C1722 C1724 1.381 . S
C1722 C1728 1.383 . S
C1723 C1719 1.495 . S
C1723 H1729 0.959 . S
C1723 H1730 0.961 . S
C1723 H1731 0.960 . S
C1724 C1722 1.381 . S
C1724 C1725 1.394 . S
C1724 H1732 0.930 . S
C1725 C1724 1.394 . S
C1725 C1726 1.383 . S
C1725 H1733 0.929 . S
C1726 C1725 1.383 . S
C1726 C1727 1.377 . S
C1727 H1711 0.930 . S
C1727 C1726 1.377 . S
C1727 C1728 1.379 . S
C1728 H1712 0.931 . S
C1728 C1722 1.383 . S
C1728 C1727 1.379 . S
H1729 C1723 0.959 . S
H1730 C1723 0.961 . S
H1731 C1723 0.960 . S
H1732 C1724 0.930 . S
H1733 C1725 0.929 . S
H1734 C1742 0.929 . S
H1735 C1744 0.930 . S
H1736 C1746 0.930 . S
H1737 C1749 0.929 . S
H1738 C1752 0.930 . S
H1739 C1754 0.960 . S
H1740 C1754 0.960 . S
H1741 C1754 0.960 . S
C1742 H1734 0.929 . S
C1742 C1743 1.377 . S
C1742 C1744 1.384 . S
C1743 C1742 1.377 . S
C1743 C1749 1.390 . S
C1744 H1735 0.930 . S
C1744 C1742 1.384 . S
C1744 C1745 1.372 . S
C1745 C1744 1.372 . S
C1745 C1746 1.400 . S
C1745 C1750 1.490 . S
C1746 H1736 0.930 . S
C1746 C1745 1.400 . S
C1746 C1749 1.386 . S
H1747 C1763 0.930 . S
H1748 C1764 0.931 . S
C1749 H1737 0.929 . S
C1749 C1743 1.390 . S
C1749 C1746 1.386 . S
C1750 C1745 1.490 . S
C1750 C1752 1.395 . S
C1750 C1753 1.403 . S
H1751 C1757 0.930 . S
C1752 H1738 0.930 . S
C1752 C1750 1.395 . S
C1752 C1755 1.403 . S
C1753 C1750 1.403 . S
C1753 C1754 1.524 . S
C1753 C1757 1.400 . S
C1754 H1739 0.960 . S
C1754 H1740 0.960 . S
C1754 H1741 0.960 . S
C1754 C1753 1.524 . S
C1755 C1752 1.403 . S
C1755 C1756 1.392 . S
C1755 C1759 1.495 . S
C1756 C1755 1.392 . S
C1756 C1757 1.385 . S
C1756 C1758 1.478 . S
C1757 H1751 0.930 . S
C1757 C1753 1.400 . S
C1757 C1756 1.385 . S
C1758 C1756 1.478 . S
C1758 C1760 1.381 . S
C1758 C1764 1.383 . S
C1759 C1755 1.495 . S
C1759 H1765 0.959 . S
C1759 H1766 0.961 . S
C1759 H1767 0.960 . S
C1760 C1758 1.381 . S
C1760 C1761 1.394 . S
C1760 H1768 0.930 . S
C1761 C1760 1.394 . S
C1761 C1762 1.383 . S
C1761 H1769 0.929 . S
C1762 C1761 1.383 . S
C1762 C1763 1.377 . S
C1763 H1747 0.930 . S
C1763 C1762 1.377 . S
C1763 C1764 1.379 . S
C1764 H1748 0.931 . S
C1764 C1758 1.383 . S
C1764 C1763 1.379 . S
H1765 C1759 0.959 . S
H1766 C1759 0.961 . S
H1767 C1759 0.960 . S
H1768 C1760 0.930 . S
H1769 C1761 0.929 . S
H1770 C1778 0.929 . S
H1771 C1780 0.930 . S
H1772 C1782 0.930 . S
H1773 C1785 0.929 . S
H1774 C1788 0.930 . S
H1775 C1790 0.960 . S
H1776 C1790 0.960 . S
H1777 C1790 0.960 . S
C1778 H1770 0.929 . S
C1778 C1779 1.377 . S
C1778 C1780 1.384 . S
C1779 C1778 1.377 . S
C1779 C1785 1.390 . S
C1780 H1771 0.930 . S
C1780 C1778 1.384 . S
C1780 C1781 1.372 . S
C1781 C1780 1.372 . S
C1781 C1782 1.400 . S
C1781 C1786 1.490 . S
C1782 H1772 0.930 . S
C1782 C1781 1.400 . S
C1782 C1785 1.386 . S
H1783 C1799 0.930 . S
H1784 C1800 0.931 . S
C1785 H1773 0.929 . S
C1785 C1779 1.390 . S
C1785 C1782 1.386 . S
C1786 C1781 1.490 . S
C1786 C1788 1.395 . S
C1786 C1789 1.403 . S
H1787 C1793 0.930 . S
C1788 H1774 0.930 . S
C1788 C1786 1.395 . S
C1788 C1791 1.403 . S
C1789 C1786 1.403 . S
C1789 C1790 1.524 . S
C1789 C1793 1.400 . S
C1790 H1775 0.960 . S
C1790 H1776 0.960 . S
C1790 H1777 0.960 . S
C1790 C1789 1.524 . S
C1791 C1788 1.403 . S
C1791 C1792 1.392 . S
C1791 C1795 1.495 . S
C1792 C1791 1.392 . S
C1792 C1793 1.385 . S
C1792 C1794 1.478 . S
C1793 H1787 0.930 . S
C1793 C1789 1.400 . S
C1793 C1792 1.385 . S
C1794 C1792 1.478 . S
C1794 C1796 1.381 . S
C1794 C1800 1.383 . S
C1795 C1791 1.495 . S
C1795 H1801 0.959 . S
C1795 H1802 0.961 . S
C1795 H1803 0.960 . S
C1796 C1794 1.381 . S
C1796 C1797 1.394 . S
C1796 H1804 0.930 . S
C1797 C1796 1.394 . S
C1797 C1798 1.383 . S
C1797 H1805 0.929 . S
C1798 C1797 1.383 . S
C1798 C1799 1.377 . S
C1799 H1783 0.930 . S
C1799 C1798 1.377 . S
C1799 C1800 1.379 . S
C1800 H1784 0.931 . S
C1800 C1794 1.383 . S
C1800 C1799 1.379 . S
H1801 C1795 0.959 . S
H1802 C1795 0.961 . S
H1803 C1795 0.960 . S
H1804 C1796 0.930 . S
H1805 C1797 0.929 . S
H1806 C1814 0.929 . S
H1807 C1816 0.930 . S
H1808 C1818 0.930 . S
H1809 C1821 0.929 . S
H1810 C1824 0.930 . S
H1811 C1826 0.960 . S
H1812 C1826 0.960 . S
H1813 C1826 0.960 . S
C1814 H1806 0.929 . S
C1814 C1815 1.377 . S
C1814 C1816 1.384 . S
C1815 C1814 1.377 . S
C1815 C1821 1.390 . S
C1816 H1807 0.930 . S
C1816 C1814 1.384 . S
C1816 C1817 1.372 . S
C1817 C1816 1.372 . S
C1817 C1818 1.400 . S
C1817 C1822 1.490 . S
C1818 H1808 0.930 . S
C1818 C1817 1.400 . S
C1818 C1821 1.386 . S
H1819 C1835 0.930 . S
H1820 C1836 0.931 . S
C1821 H1809 0.929 . S
C1821 C1815 1.390 . S
C1821 C1818 1.386 . S
C1822 C1817 1.490 . S
C1822 C1824 1.395 . S
C1822 C1825 1.403 . S
H1823 C1829 0.930 . S
C1824 H1810 0.930 . S
C1824 C1822 1.395 . S
C1824 C1827 1.403 . S
C1825 C1822 1.403 . S
C1825 C1826 1.524 . S
C1825 C1829 1.400 . S
C1826 H1811 0.960 . S
C1826 H1812 0.960 . S
C1826 H1813 0.960 . S
C1826 C1825 1.524 . S
C1827 C1824 1.403 . S
C1827 C1828 1.392 . S
C1827 C1831 1.495 . S
C1828 C1827 1.392 . S
C1828 C1829 1.385 . S
C1828 C1830 1.478 . S
C1829 H1823 0.930 . S
C1829 C1825 1.400 . S
C1829 C1828 1.385 . S
C1830 C1828 1.478 . S
C1830 C1832 1.381 . S
C1830 C1836 1.383 . S
C1831 C1827 1.495 . S
C1831 H1837 0.959 . S
C1831 H1838 0.961 . S
C1831 H1839 0.960 . S
C1832 C1830 1.381 . S
C1832 C1833 1.394 . S
C1832 H1840 0.930 . S
C1833 C1832 1.394 . S
C1833 C1834 1.383 . S
C1833 H1841 0.929 . S
C1834 C1833 1.383 . S
C1834 C1835 1.377 . S
C1835 H1819 0.930 . S
C1835 C1834 1.377 . S
C1835 C1836 1.379 . S
C1836 H1820 0.931 . S
C1836 C1830 1.383 . S
C1836 C1835 1.379 . S
H1837 C1831 0.959 . S
H1838 C1831 0.961 . S
H1839 C1831 0.960 . S
H1840 C1832 0.930 . S
H1841 C1833 0.929 . S
H1842 C1850 0.929 . S
H1843 C1852 0.930 . S
H1844 C1854 0.930 . S
H1845 C1857 0.929 . S
H1846 C1860 0.930 . S
H1847 C1862 0.960 . S
H1848 C1862 0.960 . S
H1849 C1862 0.960 . S
C1850 H1842 0.929 . S
C1850 C1851 1.377 . S
C1850 C1852 1.384 . S
C1851 C1850 1.377 . S
C1851 C1857 1.390 . S
C1852 H1843 0.930 . S
C1852 C1850 1.384 . S
C1852 C1853 1.372 . S
C1853 C1852 1.372 . S
C1853 C1854 1.400 . S
C1853 C1858 1.490 . S
C1854 H1844 0.930 . S
C1854 C1853 1.400 . S
C1854 C1857 1.386 . S
H1855 C1871 0.930 . S
H1856 C1872 0.931 . S
C1857 H1845 0.929 . S
C1857 C1851 1.390 . S
C1857 C1854 1.386 . S
C1858 C1853 1.490 . S
C1858 C1860 1.395 . S
C1858 C1861 1.403 . S
H1859 C1865 0.930 . S
C1860 H1846 0.930 . S
C1860 C1858 1.395 . S
C1860 C1863 1.403 . S
C1861 C1858 1.403 . S
C1861 C1862 1.524 . S
C1861 C1865 1.400 . S
C1862 H1847 0.960 . S
C1862 H1848 0.960 . S
C1862 H1849 0.960 . S
C1862 C1861 1.524 . S
C1863 C1860 1.403 . S
C1863 C1864 1.392 . S
C1863 C1867 1.495 . S
C1864 C1863 1.392 . S
C1864 C1865 1.385 . S
C1864 C1866 1.478 . S
C1865 H1859 0.930 . S
C1865 C1861 1.400 . S
C1865 C1864 1.385 . S
C1866 C1864 1.478 . S
C1866 C1868 1.381 . S
C1866 C1872 1.383 . S
C1867 C1863 1.495 . S
C1867 H1873 0.959 . S
C1867 H1874 0.961 . S
C1867 H1875 0.960 . S
C1868 C1866 1.381 . S
C1868 C1869 1.394 . S
C1868 H1876 0.930 . S
C1869 C1868 1.394 . S
C1869 C1870 1.383 . S
C1869 H1877 0.929 . S
C1870 C1869 1.383 . S
C1870 C1871 1.377 . S
C1871 H1855 0.930 . S
C1871 C1870 1.377 . S
C1871 C1872 1.379 . S
C1872 H1856 0.931 . S
C1872 C1866 1.383 . S
C1872 C1871 1.379 . S
H1873 C1867 0.959 . S
H1874 C1867 0.961 . S
H1875 C1867 0.960 . S
H1876 C1868 0.930 . S
H1877 C1869 0.929 . S
H1878 C1886 0.929 . S
H1879 C1888 0.930 . S
H1880 C1890 0.930 . S
H1881 C1893 0.929 . S
H1882 C1896 0.930 . S
H1883 C1898 0.960 . S
H1884 C1898 0.960 . S
H1885 C1898 0.960 . S
C1886 H1878 0.929 . S
C1886 C1887 1.377 . S
C1886 C1888 1.384 . S
C1887 C1886 1.377 . S
C1887 C1893 1.390 . S
C1888 H1879 0.930 . S
C1888 C1886 1.384 . S
C1888 C1889 1.372 . S
C1889 C1888 1.372 . S
C1889 C1890 1.400 . S
C1889 C1894 1.490 . S
C1890 H1880 0.930 . S
C1890 C1889 1.400 . S
C1890 C1893 1.386 . S
H1891 C1907 0.930 . S
H1892 C1908 0.931 . S
C1893 H1881 0.929 . S
C1893 C1887 1.390 . S
C1893 C1890 1.386 . S
C1894 C1889 1.490 . S
C1894 C1896 1.395 . S
C1894 C1897 1.403 . S
H1895 C1901 0.930 . S
C1896 H1882 0.930 . S
C1896 C1894 1.395 . S
C1896 C1899 1.403 . S
C1897 C1894 1.403 . S
C1897 C1898 1.524 . S
C1897 C1901 1.400 . S
C1898 H1883 0.960 . S
C1898 H1884 0.960 . S
C1898 H1885 0.960 . S
C1898 C1897 1.524 . S
C1899 C1896 1.403 . S
C1899 C1900 1.392 . S
C1899 C1903 1.495 . S
C1900 C1899 1.392 . S
C1900 C1901 1.385 . S
C1900 C1902 1.478 . S
C1901 H1895 0.930 . S
C1901 C1897 1.400 . S
C1901 C1900 1.385 . S
C1902 C1900 1.478 . S
C1902 C1904 1.381 . S
C1902 C1908 1.383 . S
C1903 C1899 1.495 . S
C1903 H1909 0.959 . S
C1903 H1910 0.961 . S
C1903 H1911 0.960 . S
C1904 C1902 1.381 . S
C1904 C1905 1.394 . S
C1904 H1912 0.930 . S
C1905 C1904 1.394 . S
C1905 C1906 1.383 . S
C1905 H1913 0.929 . S
C1906 C1905 1.383 . S
C1906 C1907 1.377 . S
C1907 H1891 0.930 . S
C1907 C1906 1.377 . S
C1907 C1908 1.379 . S
C1908 H1892 0.931 . S
C1908 C1902 1.383 . S
C1908 C1907 1.379 . S
H1909 C1903 0.959 . S
H1910 C1903 0.961 . S
H1911 C1903 0.960 . S
H1912 C1904 0.930 . S
H1913 C1905 0.929 . S
H1914 C1922 0.929 . S
H1915 C1924 0.930 . S
H1916 C1926 0.930 . S
H1917 C1929 0.929 . S
H1918 C1932 0.930 . S
H1919 C1934 0.960 . S
H1920 C1934 0.960 . S
H1921 C1934 0.960 . S
C1922 H1914 0.929 . S
C1922 C1923 1.377 . S
C1922 C1924 1.384 . S
C1923 C1922 1.377 . S
C1923 C1929 1.390 . S
C1924 H1915 0.930 . S
C1924 C1922 1.384 . S
C1924 C1925 1.372 . S
C1925 C1924 1.372 . S
C1925 C1926 1.400 . S
C1925 C1930 1.490 . S
C1926 H1916 0.930 . S
C1926 C1925 1.400 . S
C1926 C1929 1.386 . S
H1927 C1943 0.930 . S
H1928 C1944 0.931 . S
C1929 H1917 0.929 . S
C1929 C1923 1.390 . S
C1929 C1926 1.386 . S
C1930 C1925 1.490 . S
C1930 C1932 1.395 . S
C1930 C1933 1.403 . S
H1931 C1937 0.930 . S
C1932 H1918 0.930 . S
C1932 C1930 1.395 . S
C1932 C1935 1.403 . S
C1933 C1930 1.403 . S
C1933 C1934 1.524 . S
C1933 C1937 1.400 . S
C1934 H1919 0.960 . S
C1934 H1920 0.960 . S
C1934 H1921 0.960 . S
C1934 C1933 1.524 . S
C1935 C1932 1.403 . S
C1935 C1936 1.392 . S
C1935 C1939 1.495 . S
C1936 C1935 1.392 . S
C1936 C1937 1.385 . S
C1936 C1938 1.478 . S
C1937 H1931 0.930 . S
C1937 C1933 1.400 . S
C1937 C1936 1.385 . S
C1938 C1936 1.478 . S
C1938 C1940 1.381 . S
C1938 C1944 1.383 . S
C1939 C1935 1.495 . S
C1939 H1945 0.959 . S
C1939 H1946 0.961 . S
C1939 H1947 0.960 . S
C1940 C1938 1.381 . S
C1940 C1941 1.394 . S
C1940 H1948 0.930 . S
C1941 C1940 1.394 . S
C1941 C1942 1.383 . S
C1941 H1949 0.929 . S
C1942 C1941 1.383 . S
C1942 C1943 1.377 . S
C1943 H1927 0.930 . S
C1943 C1942 1.377 . S
C1943 C1944 1.379 . S
C1944 H1928 0.931 . S
C1944 C1938 1.383 . S
C1944 C1943 1.379 . S
H1945 C1939 0.959 . S
H1946 C1939 0.961 . S
H1947 C1939 0.960 . S
H1948 C1940 0.930 . S
H1949 C1941 0.929 . S
H1950 C1958 0.929 . S
H1951 C1960 0.930 . S
H1952 C1962 0.930 . S
H1953 C1965 0.929 . S
H1954 C1968 0.930 . S
H1955 C1970 0.960 . S
H1956 C1970 0.960 . S
H1957 C1970 0.960 . S
C1958 H1950 0.929 . S
C1958 C1959 1.377 . S
C1958 C1960 1.384 . S
C1959 C1958 1.377 . S
C1959 C1965 1.390 . S
C1960 H1951 0.930 . S
C1960 C1958 1.384 . S
C1960 C1961 1.372 . S
C1961 C1960 1.372 . S
C1961 C1962 1.400 . S
C1961 C1966 1.490 . S
C1962 H1952 0.930 . S
C1962 C1961 1.400 . S
C1962 C1965 1.386 . S
H1963 C1979 0.930 . S
H1964 C1980 0.931 . S
C1965 H1953 0.929 . S
C1965 C1959 1.390 . S
C1965 C1962 1.386 . S
C1966 C1961 1.490 . S
C1966 C1968 1.395 . S
C1966 C1969 1.403 . S
H1967 C1973 0.930 . S
C1968 H1954 0.930 . S
C1968 C1966 1.395 . S
C1968 C1971 1.403 . S
C1969 C1966 1.403 . S
C1969 C1970 1.524 . S
C1969 C1973 1.400 . S
C1970 H1955 0.960 . S
C1970 H1956 0.960 . S
C1970 H1957 0.960 . S
C1970 C1969 1.524 . S
C1971 C1968 1.403 . S
C1971 C1972 1.392 . S
C1971 C1975 1.495 . S
C1972 C1971 1.392 . S
C1972 C1973 1.385 . S
C1972 C1974 1.478 . S
C1973 H1967 0.930 . S
C1973 C1969 1.400 . S
C1973 C1972 1.385 . S
C1974 C1972 1.478 . S
C1974 C1976 1.381 . S
C1974 C1980 1.383 . S
C1975 C1971 1.495 . S
C1975 H1981 0.959 . S
C1975 H1982 0.961 . S
C1975 H1983 0.960 . S
C1976 C1974 1.381 . S
C1976 C1977 1.394 . S
C1976 H1984 0.930 . S
C1977 C1976 1.394 . S
C1977 C1978 1.383 . S
C1977 H1985 0.929 . S
C1978 C1977 1.383 . S
C1978 C1979 1.377 . S
C1979 H1963 0.930 . S
C1979 C1978 1.377 . S
C1979 C1980 1.379 . S
C1980 H1964 0.931 . S
C1980 C1974 1.383 . S
C1980 C1979 1.379 . S
H1981 C1975 0.959 . S
H1982 C1975 0.961 . S
H1983 C1975 0.960 . S
H1984 C1976 0.930 . S
H1985 C1977 0.929 . S
H1986 C1994 0.929 . S
H1987 C1996 0.930 . S
H1988 C1998 0.930 . S
H1989 C2001 0.929 . S
H1990 C2004 0.930 . S
H1991 C2006 0.960 . S
H1992 C2006 0.960 . S
H1993 C2006 0.960 . S
C1994 H1986 0.929 . S
C1994 C1995 1.377 . S
C1994 C1996 1.384 . S
C1995 C1994 1.377 . S
C1995 C2001 1.390 . S
C1996 H1987 0.930 . S
C1996 C1994 1.384 . S
C1996 C1997 1.372 . S
C1997 C1996 1.372 . S
C1997 C1998 1.400 . S
C1997 C2002 1.490 . S
C1998 H1988 0.930 . S
C1998 C1997 1.400 . S
C1998 C2001 1.386 . S
H1999 C2015 0.930 . S
H2000 C2016 0.931 . S
C2001 H1989 0.929 . S
C2001 C1995 1.390 . S
C2001 C1998 1.386 . S
C2002 C1997 1.490 . S
C2002 C2004 1.395 . S
C2002 C2005 1.403 . S
H2003 C2009 0.930 . S
C2004 H1990 0.930 . S
C2004 C2002 1.395 . S
C2004 C2007 1.403 . S
C2005 C2002 1.403 . S
C2005 C2006 1.524 . S
C2005 C2009 1.400 . S
C2006 H1991 0.960 . S
C2006 H1992 0.960 . S
C2006 H1993 0.960 . S
C2006 C2005 1.524 . S
C2007 C2004 1.403 . S
C2007 C2008 1.392 . S
C2007 C2011 1.495 . S
C2008 C2007 1.392 . S
C2008 C2009 1.385 . S
C2008 C2010 1.478 . S
C2009 H2003 0.930 . S
C2009 C2005 1.400 . S
C2009 C2008 1.385 . S
C2010 C2008 1.478 . S
C2010 C2012 1.381 . S
C2010 C2016 1.383 . S
C2011 C2007 1.495 . S
C2011 H2017 0.959 . S
C2011 H2018 0.961 . S
C2011 H2019 0.960 . S
C2012 C2010 1.381 . S
C2012 C2013 1.394 . S
C2012 H2020 0.930 . S
C2013 C2012 1.394 . S
C2013 C2014 1.383 . S
C2013 H2021 0.929 . S
C2014 C2013 1.383 . S
C2014 C2015 1.377 . S
C2015 H1999 0.930 . S
C2015 C2014 1.377 . S
C2015 C2016 1.379 . S
C2016 H2000 0.931 . S
C2016 C2010 1.383 . S
C2016 C2015 1.379 . S
H2017 C2011 0.959 . S
H2018 C2011 0.961 . S
H2019 C2011 0.960 . S
H2020 C2012 0.930 . S
H2021 C2013 0.929 . S
H2022 C2030 0.929 . S
H2023 C2032 0.930 . S
H2024 C2034 0.930 . S
H2025 C2037 0.929 . S
H2026 C2040 0.930 . S
H2027 C2042 0.960 . S
H2028 C2042 0.960 . S
H2029 C2042 0.960 . S
C2030 H2022 0.929 . S
C2030 C2031 1.377 . S
C2030 C2032 1.384 . S
C2031 C2030 1.377 . S
C2031 C2037 1.390 . S
C2032 H2023 0.930 . S
C2032 C2030 1.384 . S
C2032 C2033 1.372 . S
C2033 C2032 1.372 . S
C2033 C2034 1.400 . S
C2033 C2038 1.490 . S
C2034 H2024 0.930 . S
C2034 C2033 1.400 . S
C2034 C2037 1.386 . S
H2035 C2051 0.930 . S
H2036 C2052 0.931 . S
C2037 H2025 0.929 . S
C2037 C2031 1.390 . S
C2037 C2034 1.386 . S
C2038 C2033 1.490 . S
C2038 C2040 1.395 . S
C2038 C2041 1.403 . S
H2039 C2045 0.930 . S
C2040 H2026 0.930 . S
C2040 C2038 1.395 . S
C2040 C2043 1.403 . S
C2041 C2038 1.403 . S
C2041 C2042 1.524 . S
C2041 C2045 1.400 . S
C2042 H2027 0.960 . S
C2042 H2028 0.960 . S
C2042 H2029 0.960 . S
C2042 C2041 1.524 . S
C2043 C2040 1.403 . S
C2043 C2044 1.392 . S
C2043 C2047 1.495 . S
C2044 C2043 1.392 . S
C2044 C2045 1.385 . S
C2044 C2046 1.478 . S
C2045 H2039 0.930 . S
C2045 C2041 1.400 . S
C2045 C2044 1.385 . S
C2046 C2044 1.478 . S
C2046 C2048 1.381 . S
C2046 C2052 1.383 . S
C2047 C2043 1.495 . S
C2047 H2053 0.959 . S
C2047 H2054 0.961 . S
C2047 H2055 0.960 . S
C2048 C2046 1.381 . S
C2048 C2049 1.394 . S
C2048 H2056 0.930 . S
C2049 C2048 1.394 . S
C2049 C2050 1.383 . S
C2049 H2057 0.929 . S
C2050 C2049 1.383 . S
C2050 C2051 1.377 . S
C2051 H2035 0.930 . S
C2051 C2050 1.377 . S
C2051 C2052 1.379 . S
C2052 H2036 0.931 . S
C2052 C2046 1.383 . S
C2052 C2051 1.379 . S
H2053 C2047 0.959 . S
H2054 C2047 0.961 . S
H2055 C2047 0.960 . S
H2056 C2048 0.930 . S
H2057 C2049 0.929 . S
H2058 C2066 0.929 . S
H2059 C2068 0.930 . S
H2060 C2070 0.930 . S
H2061 C2073 0.929 . S
H2062 C2076 0.930 . S
H2063 C2078 0.960 . S
H2064 C2078 0.960 . S
H2065 C2078 0.960 . S
C2066 H2058 0.929 . S
C2066 C2067 1.377 . S
C2066 C2068 1.384 . S
C2067 C2066 1.377 . S
C2067 C2073 1.390 . S
C2068 H2059 0.930 . S
C2068 C2066 1.384 . S
C2068 C2069 1.372 . S
C2069 C2068 1.372 . S
C2069 C2070 1.400 . S
C2069 C2074 1.490 . S
C2070 H2060 0.930 . S
C2070 C2069 1.400 . S
C2070 C2073 1.386 . S
H2071 C2087 0.930 . S
H2072 C2088 0.931 . S
C2073 H2061 0.929 . S
C2073 C2067 1.390 . S
C2073 C2070 1.386 . S
C2074 C2069 1.490 . S
C2074 C2076 1.395 . S
C2074 C2077 1.403 . S
H2075 C2081 0.930 . S
C2076 H2062 0.930 . S
C2076 C2074 1.395 . S
C2076 C2079 1.403 . S
C2077 C2074 1.403 . S
C2077 C2078 1.524 . S
C2077 C2081 1.400 . S
C2078 H2063 0.960 . S
C2078 H2064 0.960 . S
C2078 H2065 0.960 . S
C2078 C2077 1.524 . S
C2079 C2076 1.403 . S
C2079 C2080 1.392 . S
C2079 C2083 1.495 . S
C2080 C2079 1.392 . S
C2080 C2081 1.385 . S
C2080 C2082 1.478 . S
C2081 H2075 0.930 . S
C2081 C2077 1.400 . S
C2081 C2080 1.385 . S
C2082 C2080 1.478 . S
C2082 C2084 1.381 . S
C2082 C2088 1.383 . S
C2083 C2079 1.495 . S
C2083 H2089 0.959 . S
C2083 H2090 0.961 . S
C2083 H2091 0.960 . S
C2084 C2082 1.381 . S
C2084 C2085 1.394 . S
C2084 H2092 0.930 . S
C2085 C2084 1.394 . S
C2085 C2086 1.383 . S
C2085 H2093 0.929 . S
C2086 C2085 1.383 . S
C2086 C2087 1.377 . S
C2087 H2071 0.930 . S
C2087 C2086 1.377 . S
C2087 C2088 1.379 . S
C2088 H2072 0.931 . S
C2088 C2082 1.383 . S
C2088 C2087 1.379 . S
H2089 C2083 0.959 . S
H2090 C2083 0.961 . S
H2091 C2083 0.960 . S
H2092 C2084 0.930 . S
H2093 C2085 0.929 . S
H2094 C2102 0.929 . S
H2095 C2104 0.930 . S
H2096 C2106 0.930 . S
H2097 C2109 0.929 . S
H2098 C2112 0.930 . S
H2099 C2114 0.960 . S
H2100 C2114 0.960 . S
H2101 C2114 0.960 . S
C2102 H2094 0.929 . S
C2102 C2103 1.377 . S
C2102 C2104 1.384 . S
C2103 C2102 1.377 . S
C2103 C2109 1.390 . S
C2104 H2095 0.930 . S
C2104 C2102 1.384 . S
C2104 C2105 1.372 . S
C2105 C2104 1.372 . S
C2105 C2106 1.400 . S
C2105 C2110 1.490 . S
C2106 H2096 0.930 . S
C2106 C2105 1.400 . S
C2106 C2109 1.386 . S
H2107 C2123 0.930 . S
H2108 C2124 0.931 . S
C2109 H2097 0.929 . S
C2109 C2103 1.390 . S
C2109 C2106 1.386 . S
C2110 C2105 1.490 . S
C2110 C2112 1.395 . S
C2110 C2113 1.403 . S
H2111 C2117 0.930 . S
C2112 H2098 0.930 . S
C2112 C2110 1.395 . S
C2112 C2115 1.403 . S
C2113 C2110 1.403 . S
C2113 C2114 1.524 . S
C2113 C2117 1.400 . S
C2114 H2099 0.960 . S
C2114 H2100 0.960 . S
C2114 H2101 0.960 . S
C2114 C2113 1.524 . S
C2115 C2112 1.403 . S
C2115 C2116 1.392 . S
C2115 C2119 1.495 . S
C2116 C2115 1.392 . S
C2116 C2117 1.385 . S
C2116 C2118 1.478 . S
C2117 H2111 0.930 . S
C2117 C2113 1.400 . S
C2117 C2116 1.385 . S
C2118 C2116 1.478 . S
C2118 C2120 1.381 . S
C2118 C2124 1.383 . S
C2119 C2115 1.495 . S
C2119 H2125 0.959 . S
C2119 H2126 0.961 . S
C2119 H2127 0.960 . S
C2120 C2118 1.381 . S
C2120 C2121 1.394 . S
C2120 H2128 0.930 . S
C2121 C2120 1.394 . S
C2121 C2122 1.383 . S
C2121 H2129 0.929 . S
C2122 C2121 1.383 . S
C2122 C2123 1.377 . S
C2123 H2107 0.930 . S
C2123 C2122 1.377 . S
C2123 C2124 1.379 . S
C2124 H2108 0.931 . S
C2124 C2118 1.383 . S
C2124 C2123 1.379 . S
H2125 C2119 0.959 . S
H2126 C2119 0.961 . S
H2127 C2119 0.960 . S
H2128 C2120 0.930 . S
H2129 C2121 0.929 . S
H2130 C2138 0.929 . S
H2131 C2140 0.930 . S
H2132 C2142 0.930 . S
H2133 C2145 0.929 . S
H2134 C2148 0.930 . S
H2135 C2150 0.960 . S
H2136 C2150 0.960 . S
H2137 C2150 0.960 . S
C2138 H2130 0.929 . S
C2138 C2139 1.377 . S
C2138 C2140 1.384 . S
C2139 C2138 1.377 . S
C2139 C2145 1.390 . S
C2140 H2131 0.930 . S
C2140 C2138 1.384 . S
C2140 C2141 1.372 . S
C2141 C2140 1.372 . S
C2141 C2142 1.400 . S
C2141 C2146 1.490 . S
C2142 H2132 0.930 . S
C2142 C2141 1.400 . S
C2142 C2145 1.386 . S
H2143 C2159 0.930 . S
H2144 C2160 0.931 . S
C2145 H2133 0.929 . S
C2145 C2139 1.390 . S
C2145 C2142 1.386 . S
C2146 C2141 1.490 . S
C2146 C2148 1.395 . S
C2146 C2149 1.403 . S
H2147 C2153 0.930 . S
C2148 H2134 0.930 . S
C2148 C2146 1.395 . S
C2148 C2151 1.403 . S
C2149 C2146 1.403 . S
C2149 C2150 1.524 . S
C2149 C2153 1.400 . S
C2150 H2135 0.960 . S
C2150 H2136 0.960 . S
C2150 H2137 0.960 . S
C2150 C2149 1.524 . S
C2151 C2148 1.403 . S
C2151 C2152 1.392 . S
C2151 C2155 1.495 . S
C2152 C2151 1.392 . S
C2152 C2153 1.385 . S
C2152 C2154 1.478 . S
C2153 H2147 0.930 . S
C2153 C2149 1.400 . S
C2153 C2152 1.385 . S
C2154 C2152 1.478 . S
C2154 C2156 1.381 . S
C2154 C2160 1.383 . S
C2155 C2151 1.495 . S
C2155 H2161 0.959 . S
C2155 H2162 0.961 . S
C2155 H2163 0.960 . S
C2156 C2154 1.381 . S
C2156 C2157 1.394 . S
C2156 H2164 0.930 . S
C2157 C2156 1.394 . S
C2157 C2158 1.383 . S
C2157 H2165 0.929 . S
C2158 C2157 1.383 . S
C2158 C2159 1.377 . S
C2159 H2143 0.930 . S
C2159 C2158 1.377 . S
C2159 C2160 1.379 . S
C2160 H2144 0.931 . S
C2160 C2154 1.383 . S
C2160 C2159 1.379 . S
H2161 C2155 0.959 . S
H2162 C2155 0.961 . S
H2163 C2155 0.960 . S
H2164 C2156 0.930 . S
H2165 C2157 0.929 . S
H2166 C2174 0.929 . S
H2167 C2176 0.930 . S
H2168 C2178 0.930 . S
H2169 C2181 0.929 . S
H2170 C2184 0.930 . S
H2171 C2186 0.960 . S
H2172 C2186 0.960 . S
H2173 C2186 0.960 . S
C2174 H2166 0.929 . S
C2174 C2175 1.377 . S
C2174 C2176 1.384 . S
C2175 C2174 1.377 . S
C2175 C2181 1.390 . S
C2176 H2167 0.930 . S
C2176 C2174 1.384 . S
C2176 C2177 1.372 . S
C2177 C2176 1.372 . S
C2177 C2178 1.400 . S
C2177 C2182 1.490 . S
C2178 H2168 0.930 . S
C2178 C2177 1.400 . S
C2178 C2181 1.386 . S
H2179 C2195 0.930 . S
H2180 C2196 0.931 . S
C2181 H2169 0.929 . S
C2181 C2175 1.390 . S
C2181 C2178 1.386 . S
C2182 C2177 1.490 . S
C2182 C2184 1.395 . S
C2182 C2185 1.403 . S
H2183 C2189 0.930 . S
C2184 H2170 0.930 . S
C2184 C2182 1.395 . S
C2184 C2187 1.403 . S
C2185 C2182 1.403 . S
C2185 C2186 1.524 . S
C2185 C2189 1.400 . S
C2186 H2171 0.960 . S
C2186 H2172 0.960 . S
C2186 H2173 0.960 . S
C2186 C2185 1.524 . S
C2187 C2184 1.403 . S
C2187 C2188 1.392 . S
C2187 C2191 1.495 . S
C2188 C2187 1.392 . S
C2188 C2189 1.385 . S
C2188 C2190 1.478 . S
C2189 H2183 0.930 . S
C2189 C2185 1.400 . S
C2189 C2188 1.385 . S
C2190 C2188 1.478 . S
C2190 C2192 1.381 . S
C2190 C2196 1.383 . S
C2191 C2187 1.495 . S
C2191 H2197 0.959 . S
C2191 H2198 0.961 . S
C2191 H2199 0.960 . S
C2192 C2190 1.381 . S
C2192 C2193 1.394 . S
C2192 H2200 0.930 . S
C2193 C2192 1.394 . S
C2193 C2194 1.383 . S
C2193 H2201 0.929 . S
C2194 C2193 1.383 . S
C2194 C2195 1.377 . S
C2195 H2179 0.930 . S
C2195 C2194 1.377 . S
C2195 C2196 1.379 . S
C2196 H2180 0.931 . S
C2196 C2190 1.383 . S
C2196 C2195 1.379 . S
H2197 C2191 0.959 . S
H2198 C2191 0.961 . S
H2199 C2191 0.960 . S
H2200 C2192 0.930 . S
H2201 C2193 0.929 . S
H2202 C2210 0.929 . S
H2203 C2212 0.930 . S
H2204 C2214 0.930 . S
H2205 C2217 0.929 . S
H2206 C2220 0.930 . S
H2207 C2222 0.960 . S
H2208 C2222 0.960 . S
H2209 C2222 0.960 . S
C2210 H2202 0.929 . S
C2210 C2211 1.377 . S
C2210 C2212 1.384 . S
C2211 C2210 1.377 . S
C2211 C2217 1.390 . S
C2212 H2203 0.930 . S
C2212 C2210 1.384 . S
C2212 C2213 1.372 . S
C2213 C2212 1.372 . S
C2213 C2214 1.400 . S
C2213 C2218 1.490 . S
C2214 H2204 0.930 . S
C2214 C2213 1.400 . S
C2214 C2217 1.386 . S
H2215 C2231 0.930 . S
H2216 C2232 0.931 . S
C2217 H2205 0.929 . S
C2217 C2211 1.390 . S
C2217 C2214 1.386 . S
C2218 C2213 1.490 . S
C2218 C2220 1.395 . S
C2218 C2221 1.403 . S
H2219 C2225 0.930 . S
C2220 H2206 0.930 . S
C2220 C2218 1.395 . S
C2220 C2223 1.403 . S
C2221 C2218 1.403 . S
C2221 C2222 1.524 . S
C2221 C2225 1.400 . S
C2222 H2207 0.960 . S
C2222 H2208 0.960 . S
C2222 H2209 0.960 . S
C2222 C2221 1.524 . S
C2223 C2220 1.403 . S
C2223 C2224 1.392 . S
C2223 C2227 1.495 . S
C2224 C2223 1.392 . S
C2224 C2225 1.385 . S
C2224 C2226 1.478 . S
C2225 H2219 0.930 . S
C2225 C2221 1.400 . S
C2225 C2224 1.385 . S
C2226 C2224 1.478 . S
C2226 C2228 1.381 . S
C2226 C2232 1.383 . S
C2227 C2223 1.495 . S
C2227 H2233 0.959 . S
C2227 H2234 0.961 . S
C2227 H2235 0.960 . S
C2228 C2226 1.381 . S
C2228 C2229 1.394 . S
C2228 H2236 0.930 . S
C2229 C2228 1.394 . S
C2229 C2230 1.383 . S
C2229 H2237 0.929 . S
C2230 C2229 1.383 . S
C2230 C2231 1.377 . S
C2231 H2215 0.930 . S
C2231 C2230 1.377 . S
C2231 C2232 1.379 . S
C2232 H2216 0.931 . S
C2232 C2226 1.383 . S
C2232 C2231 1.379 . S
H2233 C2227 0.959 . S
H2234 C2227 0.961 . S
H2235 C2227 0.960 . S
H2236 C2228 0.930 . S
H2237 C2229 0.929 . S
H2238 C2246 0.929 . S
H2239 C2248 0.930 . S
H2240 C2250 0.930 . S
H2241 C2253 0.929 . S
H2242 C2256 0.930 . S
H2243 C2258 0.960 . S
H2244 C2258 0.960 . S
H2245 C2258 0.960 . S
C2246 H2238 0.929 . S
C2246 C2247 1.377 . S
C2246 C2248 1.384 . S
C2247 C2246 1.377 . S
C2247 C2253 1.390 . S
C2248 H2239 0.930 . S
C2248 C2246 1.384 . S
C2248 C2249 1.372 . S
C2249 C2248 1.372 . S
C2249 C2250 1.400 . S
C2249 C2254 1.490 . S
C2250 H2240 0.930 . S
C2250 C2249 1.400 . S
C2250 C2253 1.386 . S
H2251 C2267 0.930 . S
H2252 C2268 0.931 . S
C2253 H2241 0.929 . S
C2253 C2247 1.390 . S
C2253 C2250 1.386 . S
C2254 C2249 1.490 . S
C2254 C2256 1.395 . S
C2254 C2257 1.403 . S
H2255 C2261 0.930 . S
C2256 H2242 0.930 . S
C2256 C2254 1.395 . S
C2256 C2259 1.403 . S
C2257 C2254 1.403 . S
C2257 C2258 1.524 . S
C2257 C2261 1.400 . S
C2258 H2243 0.960 . S
C2258 H2244 0.960 . S
C2258 H2245 0.960 . S
C2258 C2257 1.524 . S
C2259 C2256 1.403 . S
C2259 C2260 1.392 . S
C2259 C2263 1.495 . S
C2260 C2259 1.392 . S
C2260 C2261 1.385 . S
C2260 C2262 1.478 . S
C2261 H2255 0.930 . S
C2261 C2257 1.400 . S
C2261 C2260 1.385 . S
C2262 C2260 1.478 . S
C2262 C2264 1.381 . S
C2262 C2268 1.383 . S
C2263 C2259 1.495 . S
C2263 H2269 0.959 . S
C2263 H2270 0.961 . S
C2263 H2271 0.960 . S
C2264 C2262 1.381 . S
C2264 C2265 1.394 . S
C2264 H2272 0.930 . S
C2265 C2264 1.394 . S
C2265 C2266 1.383 . S
C2265 H2273 0.929 . S
C2266 C2265 1.383 . S
C2266 C2267 1.377 . S
C2267 H2251 0.930 . S
C2267 C2266 1.377 . S
C2267 C2268 1.379 . S
C2268 H2252 0.931 . S
C2268 C2262 1.383 . S
C2268 C2267 1.379 . S
H2269 C2263 0.959 . S
H2270 C2263 0.961 . S
H2271 C2263 0.960 . S
H2272 C2264 0.930 . S
H2273 C2265 0.929 . S
H2274 C2282 0.929 . S
H2275 C2284 0.930 . S
H2276 C2286 0.930 . S
H2277 C2289 0.929 . S
H2278 C2292 0.930 . S
H2279 C2294 0.960 . S
H2280 C2294 0.960 . S
H2281 C2294 0.960 . S
C2282 H2274 0.929 . S
C2282 C2283 1.377 . S
C2282 C2284 1.384 . S
C2283 C2282 1.377 . S
C2283 C2289 1.390 . S
C2284 H2275 0.930 . S
C2284 C2282 1.384 . S
C2284 C2285 1.372 . S
C2285 C2284 1.372 . S
C2285 C2286 1.400 . S
C2285 C2290 1.490 . S
C2286 H2276 0.930 . S
C2286 C2285 1.400 . S
C2286 C2289 1.386 . S
H2287 C2303 0.930 . S
H2288 C2304 0.931 . S
C2289 H2277 0.929 . S
C2289 C2283 1.390 . S
C2289 C2286 1.386 . S
C2290 C2285 1.490 . S
C2290 C2292 1.395 . S
C2290 C2293 1.403 . S
H2291 C2297 0.930 . S
C2292 H2278 0.930 . S
C2292 C2290 1.395 . S
C2292 C2295 1.403 . S
C2293 C2290 1.403 . S
C2293 C2294 1.524 . S
C2293 C2297 1.400 . S
C2294 H2279 0.960 . S
C2294 H2280 0.960 . S
C2294 H2281 0.960 . S
C2294 C2293 1.524 . S
C2295 C2292 1.403 . S
C2295 C2296 1.392 . S
C2295 C2299 1.495 . S
C2296 C2295 1.392 . S
C2296 C2297 1.385 . S
C2296 C2298 1.478 . S
C2297 H2291 0.930 . S
C2297 C2293 1.400 . S
C2297 C2296 1.385 . S
C2298 C2296 1.478 . S
C2298 C2300 1.381 . S
C2298 C2304 1.383 . S
C2299 C2295 1.495 . S
C2299 H2305 0.959 . S
C2299 H2306 0.961 . S
C2299 H2307 0.960 . S
C2300 C2298 1.381 . S
C2300 C2301 1.394 . S
C2300 H2308 0.930 . S
C2301 C2300 1.394 . S
C2301 C2302 1.383 . S
C2301 H2309 0.929 . S
C2302 C2301 1.383 . S
C2302 C2303 1.377 . S
C2303 H2287 0.930 . S
C2303 C2302 1.377 . S
C2303 C2304 1.379 . S
C2304 H2288 0.931 . S
C2304 C2298 1.383 . S
C2304 C2303 1.379 . S
H2305 C2299 0.959 . S
H2306 C2299 0.961 . S
H2307 C2299 0.960 . S
H2308 C2300 0.930 . S
H2309 C2301 0.929 . S
H2310 C2318 0.929 . S
H2311 C2320 0.930 . S
H2312 C2322 0.930 . S
H2313 C2325 0.929 . S
H2314 C2328 0.930 . S
H2315 C2330 0.960 . S
H2316 C2330 0.960 . S
H2317 C2330 0.960 . S
C2318 H2310 0.929 . S
C2318 C2319 1.377 . S
C2318 C2320 1.384 . S
C2319 C2318 1.377 . S
C2319 C2325 1.390 . S
C2320 H2311 0.930 . S
C2320 C2318 1.384 . S
C2320 C2321 1.372 . S
C2321 C2320 1.372 . S
C2321 C2322 1.400 . S
C2321 C2326 1.490 . S
C2322 H2312 0.930 . S
C2322 C2321 1.400 . S
C2322 C2325 1.386 . S
H2323 C2339 0.930 . S
H2324 C2340 0.931 . S
C2325 H2313 0.929 . S
C2325 C2319 1.390 . S
C2325 C2322 1.386 . S
C2326 C2321 1.490 . S
C2326 C2328 1.395 . S
C2326 C2329 1.403 . S
H2327 C2333 0.930 . S
C2328 H2314 0.930 . S
C2328 C2326 1.395 . S
C2328 C2331 1.403 . S
C2329 C2326 1.403 . S
C2329 C2330 1.524 . S
C2329 C2333 1.400 . S
C2330 H2315 0.960 . S
C2330 H2316 0.960 . S
C2330 H2317 0.960 . S
C2330 C2329 1.524 . S
C2331 C2328 1.403 . S
C2331 C2332 1.392 . S
C2331 C2335 1.495 . S
C2332 C2331 1.392 . S
C2332 C2333 1.385 . S
C2332 C2334 1.478 . S
C2333 H2327 0.930 . S
C2333 C2329 1.400 . S
C2333 C2332 1.385 . S
C2334 C2332 1.478 . S
C2334 C2336 1.381 . S
C2334 C2340 1.383 . S
C2335 C2331 1.495 . S
C2335 H2341 0.959 . S
C2335 H2342 0.961 . S
C2335 H2343 0.960 . S
C2336 C2334 1.381 . S
C2336 C2337 1.394 . S
C2336 H2344 0.930 . S
C2337 C2336 1.394 . S
C2337 C2338 1.383 . S
C2337 H2345 0.929 . S
C2338 C2337 1.383 . S
C2338 C2339 1.377 . S
C2339 H2323 0.930 . S
C2339 C2338 1.377 . S
C2339 C2340 1.379 . S
C2340 H2324 0.931 . S
C2340 C2334 1.383 . S
C2340 C2339 1.379 . S
H2341 C2335 0.959 . S
H2342 C2335 0.961 . S
H2343 C2335 0.960 . S
H2344 C2336 0.930 . S
H2345 C2337 0.929 . S
H2346 C2354 0.929 . S
H2347 C2356 0.930 . S
H2348 C2358 0.930 . S
H2349 C2361 0.929 . S
H2350 C2364 0.930 . S
H2351 C2366 0.960 . S
H2352 C2366 0.960 . S
H2353 C2366 0.960 . S
C2354 H2346 0.929 . S
C2354 C2355 1.377 . S
C2354 C2356 1.384 . S
C2355 C2354 1.377 . S
C2355 C2361 1.390 . S
C2356 H2347 0.930 . S
C2356 C2354 1.384 . S
C2356 C2357 1.372 . S
C2357 C2356 1.372 . S
C2357 C2358 1.400 . S
C2357 C2362 1.490 . S
C2358 H2348 0.930 . S
C2358 C2357 1.400 . S
C2358 C2361 1.386 . S
H2359 C2375 0.930 . S
H2360 C2376 0.931 . S
C2361 H2349 0.929 . S
C2361 C2355 1.390 . S
C2361 C2358 1.386 . S
C2362 C2357 1.490 . S
C2362 C2364 1.395 . S
C2362 C2365 1.403 . S
H2363 C2369 0.930 . S
C2364 H2350 0.930 . S
C2364 C2362 1.395 . S
C2364 C2367 1.403 . S
C2365 C2362 1.403 . S
C2365 C2366 1.524 . S
C2365 C2369 1.400 . S
C2366 H2351 0.960 . S
C2366 H2352 0.960 . S
C2366 H2353 0.960 . S
C2366 C2365 1.524 . S
C2367 C2364 1.403 . S
C2367 C2368 1.392 . S
C2367 C2371 1.495 . S
C2368 C2367 1.392 . S
C2368 C2369 1.385 . S
C2368 C2370 1.478 . S
C2369 H2363 0.930 . S
C2369 C2365 1.400 . S
C2369 C2368 1.385 . S
C2370 C2368 1.478 . S
C2370 C2372 1.381 . S
C2370 C2376 1.383 . S
C2371 C2367 1.495 . S
C2371 H2377 0.959 . S
C2371 H2378 0.961 . S
C2371 H2379 0.960 . S
C2372 C2370 1.381 . S
C2372 C2373 1.394 . S
C2372 H2380 0.930 . S
C2373 C2372 1.394 . S
C2373 C2374 1.383 . S
C2373 H2381 0.929 . S
C2374 C2373 1.383 . S
C2374 C2375 1.377 . S
C2375 H2359 0.930 . S
C2375 C2374 1.377 . S
C2375 C2376 1.379 . S
C2376 H2360 0.931 . S
C2376 C2370 1.383 . S
C2376 C2375 1.379 . S
H2377 C2371 0.959 . S
H2378 C2371 0.961 . S
H2379 C2371 0.960 . S
H2380 C2372 0.930 . S
H2381 C2373 0.929 . S
H2382 C2390 0.929 . S
H2383 C2392 0.930 . S
H2384 C2394 0.930 . S
H2385 C2397 0.929 . S
H2386 C2400 0.930 . S
H2387 C2402 0.960 . S
H2388 C2402 0.960 . S
H2389 C2402 0.960 . S
C2390 H2382 0.929 . S
C2390 C2391 1.377 . S
C2390 C2392 1.384 . S
C2391 C2390 1.377 . S
C2391 C2397 1.390 . S
C2392 H2383 0.930 . S
C2392 C2390 1.384 . S
C2392 C2393 1.372 . S
C2393 C2392 1.372 . S
C2393 C2394 1.400 . S
C2393 C2398 1.490 . S
C2394 H2384 0.930 . S
C2394 C2393 1.400 . S
C2394 C2397 1.386 . S
H2395 C2411 0.930 . S
H2396 C2412 0.931 . S
C2397 H2385 0.929 . S
C2397 C2391 1.390 . S
C2397 C2394 1.386 . S
C2398 C2393 1.490 . S
C2398 C2400 1.395 . S
C2398 C2401 1.403 . S
H2399 C2405 0.930 . S
C2400 H2386 0.930 . S
C2400 C2398 1.395 . S
C2400 C2403 1.403 . S
C2401 C2398 1.403 . S
C2401 C2402 1.524 . S
C2401 C2405 1.400 . S
C2402 H2387 0.960 . S
C2402 H2388 0.960 . S
C2402 H2389 0.960 . S
C2402 C2401 1.524 . S
C2403 C2400 1.403 . S
C2403 C2404 1.392 . S
C2403 C2407 1.495 . S
C2404 C2403 1.392 . S
C2404 C2405 1.385 . S
C2404 C2406 1.478 . S
C2405 H2399 0.930 . S
C2405 C2401 1.400 . S
C2405 C2404 1.385 . S
C2406 C2404 1.478 . S
C2406 C2408 1.381 . S
C2406 C2412 1.383 . S
C2407 C2403 1.495 . S
C2407 H2413 0.959 . S
C2407 H2414 0.961 . S
C2407 H2415 0.960 . S
C2408 C2406 1.381 . S
C2408 C2409 1.394 . S
C2408 H2416 0.930 . S
C2409 C2408 1.394 . S
C2409 C2410 1.383 . S
C2409 H2417 0.929 . S
C2410 C2409 1.383 . S
C2410 C2411 1.377 . S
C2411 H2395 0.930 . S
C2411 C2410 1.377 . S
C2411 C2412 1.379 . S
C2412 H2396 0.931 . S
C2412 C2406 1.383 . S
C2412 C2411 1.379 . S
H2413 C2407 0.959 . S
H2414 C2407 0.961 . S
H2415 C2407 0.960 . S
H2416 C2408 0.930 . S
H2417 C2409 0.929 . S
H2418 C2426 0.929 . S
H2419 C2428 0.930 . S
H2420 C2430 0.930 . S
H2421 C2433 0.929 . S
H2422 C2436 0.930 . S
H2423 C2438 0.960 . S
H2424 C2438 0.960 . S
H2425 C2438 0.960 . S
C2426 H2418 0.929 . S
C2426 C2427 1.377 . S
C2426 C2428 1.384 . S
C2427 C2426 1.377 . S
C2427 C2433 1.390 . S
C2428 H2419 0.930 . S
C2428 C2426 1.384 . S
C2428 C2429 1.372 . S
C2429 C2428 1.372 . S
C2429 C2430 1.400 . S
C2429 C2434 1.490 . S
C2430 H2420 0.930 . S
C2430 C2429 1.400 . S
C2430 C2433 1.386 . S
H2431 C2447 0.930 . S
H2432 C2448 0.931 . S
C2433 H2421 0.929 . S
C2433 C2427 1.390 . S
C2433 C2430 1.386 . S
C2434 C2429 1.490 . S
C2434 C2436 1.395 . S
C2434 C2437 1.403 . S
H2435 C2441 0.930 . S
C2436 H2422 0.930 . S
C2436 C2434 1.395 . S
C2436 C2439 1.403 . S
C2437 C2434 1.403 . S
C2437 C2438 1.524 . S
C2437 C2441 1.400 . S
C2438 H2423 0.960 . S
C2438 H2424 0.960 . S
C2438 H2425 0.960 . S
C2438 C2437 1.524 . S
C2439 C2436 1.403 . S
C2439 C2440 1.392 . S
C2439 C2443 1.495 . S
C2440 C2439 1.392 . S
C2440 C2441 1.385 . S
C2440 C2442 1.478 . S
C2441 H2435 0.930 . S
C2441 C2437 1.400 . S
C2441 C2440 1.385 . S
C2442 C2440 1.478 . S
C2442 C2444 1.381 . S
C2442 C2448 1.383 . S
C2443 C2439 1.495 . S
C2443 H2449 0.959 . S
C2443 H2450 0.961 . S
C2443 H2451 0.960 . S
C2444 C2442 1.381 . S
C2444 C2445 1.394 . S
C2444 H2452 0.930 . S
C2445 C2444 1.394 . S
C2445 C2446 1.383 . S
C2445 H2453 0.929 . S
C2446 C2445 1.383 . S
C2446 C2447 1.377 . S
C2447 H2431 0.930 . S
C2447 C2446 1.377 . S
C2447 C2448 1.379 . S
C2448 H2432 0.931 . S
C2448 C2442 1.383 . S
C2448 C2447 1.379 . S
H2449 C2443 0.959 . S
H2450 C2443 0.961 . S
H2451 C2443 0.960 . S
H2452 C2444 0.930 . S
H2453 C2445 0.929 . S
H2454 C2462 0.929 . S
H2455 C2464 0.930 . S
H2456 C2466 0.930 . S
H2457 C2469 0.929 . S
H2458 C2472 0.930 . S
H2459 C2474 0.960 . S
H2460 C2474 0.960 . S
H2461 C2474 0.960 . S
C2462 H2454 0.929 . S
C2462 C2463 1.377 . S
C2462 C2464 1.384 . S
C2463 C2462 1.377 . S
C2463 C2469 1.390 . S
C2464 H2455 0.930 . S
C2464 C2462 1.384 . S
C2464 C2465 1.372 . S
C2465 C2464 1.372 . S
C2465 C2466 1.400 . S
C2465 C2470 1.490 . S
C2466 H2456 0.930 . S
C2466 C2465 1.400 . S
C2466 C2469 1.386 . S
H2467 C2483 0.930 . S
H2468 C2484 0.931 . S
C2469 H2457 0.929 . S
C2469 C2463 1.390 . S
C2469 C2466 1.386 . S
C2470 C2465 1.490 . S
C2470 C2472 1.395 . S
C2470 C2473 1.403 . S
H2471 C2477 0.930 . S
C2472 H2458 0.930 . S
C2472 C2470 1.395 . S
C2472 C2475 1.403 . S
C2473 C2470 1.403 . S
C2473 C2474 1.524 . S
C2473 C2477 1.400 . S
C2474 H2459 0.960 . S
C2474 H2460 0.960 . S
C2474 H2461 0.960 . S
C2474 C2473 1.524 . S
C2475 C2472 1.403 . S
C2475 C2476 1.392 . S
C2475 C2479 1.495 . S
C2476 C2475 1.392 . S
C2476 C2477 1.385 . S
C2476 C2478 1.478 . S
C2477 H2471 0.930 . S
C2477 C2473 1.400 . S
C2477 C2476 1.385 . S
C2478 C2476 1.478 . S
C2478 C2480 1.381 . S
C2478 C2484 1.383 . S
C2479 C2475 1.495 . S
C2479 H2485 0.959 . S
C2479 H2486 0.961 . S
C2479 H2487 0.960 . S
C2480 C2478 1.381 . S
C2480 C2481 1.394 . S
C2480 H2488 0.930 . S
C2481 C2480 1.394 . S
C2481 C2482 1.383 . S
C2481 H2489 0.929 . S
C2482 C2481 1.383 . S
C2482 C2483 1.377 . S
C2483 H2467 0.930 . S
C2483 C2482 1.377 . S
C2483 C2484 1.379 . S
C2484 H2468 0.931 . S
C2484 C2478 1.383 . S
C2484 C2483 1.379 . S
H2485 C2479 0.959 . S
H2486 C2479 0.961 . S
H2487 C2479 0.960 . S
H2488 C2480 0.930 . S
H2489 C2481 0.929 . S
H2490 C2498 0.929 . S
H2491 C2500 0.930 . S
H2492 C2502 0.930 . S
H2493 C2505 0.929 . S
H2494 C2508 0.930 . S
H2495 C2510 0.960 . S
H2496 C2510 0.960 . S
H2497 C2510 0.960 . S
C2498 H2490 0.929 . S
C2498 C2499 1.377 . S
C2498 C2500 1.384 . S
C2499 C2498 1.377 . S
C2499 C2505 1.390 . S
C2500 H2491 0.930 . S
C2500 C2498 1.384 . S
C2500 C2501 1.372 . S
C2501 C2500 1.372 . S
C2501 C2502 1.400 . S
C2501 C2506 1.490 . S
C2502 H2492 0.930 . S
C2502 C2501 1.400 . S
C2502 C2505 1.386 . S
H2503 C2519 0.930 . S
H2504 C2520 0.931 . S
C2505 H2493 0.929 . S
C2505 C2499 1.390 . S
C2505 C2502 1.386 . S
C2506 C2501 1.490 . S
C2506 C2508 1.395 . S
C2506 C2509 1.403 . S
H2507 C2513 0.930 . S
C2508 H2494 0.930 . S
C2508 C2506 1.395 . S
C2508 C2511 1.403 . S
C2509 C2506 1.403 . S
C2509 C2510 1.524 . S
C2509 C2513 1.400 . S
C2510 H2495 0.960 . S
C2510 H2496 0.960 . S
C2510 H2497 0.960 . S
C2510 C2509 1.524 . S
C2511 C2508 1.403 . S
C2511 C2512 1.392 . S
C2511 C2515 1.495 . S
C2512 C2511 1.392 . S
C2512 C2513 1.385 . S
C2512 C2514 1.478 . S
C2513 H2507 0.930 . S
C2513 C2509 1.400 . S
C2513 C2512 1.385 . S
C2514 C2512 1.478 . S
C2514 C2516 1.381 . S
C2514 C2520 1.383 . S
C2515 C2511 1.495 . S
C2515 H2521 0.959 . S
C2515 H2522 0.961 . S
C2515 H2523 0.960 . S
C2516 C2514 1.381 . S
C2516 C2517 1.394 . S
C2516 H2524 0.930 . S
C2517 C2516 1.394 . S
C2517 C2518 1.383 . S
C2517 H2525 0.929 . S
C2518 C2517 1.383 . S
C2518 C2519 1.377 . S
C2519 H2503 0.930 . S
C2519 C2518 1.377 . S
C2519 C2520 1.379 . S
C2520 H2504 0.931 . S
C2520 C2514 1.383 . S
C2520 C2519 1.379 . S
H2521 C2515 0.959 . S
H2522 C2515 0.961 . S
H2523 C2515 0.960 . S
H2524 C2516 0.930 . S
H2525 C2517 0.929 . S
H2526 C2534 0.929 . S
H2527 C2536 0.930 . S
H2528 C2538 0.930 . S
H2529 C2541 0.929 . S
H2530 C2544 0.930 . S
H2531 C2546 0.960 . S
H2532 C2546 0.960 . S
H2533 C2546 0.960 . S
C2534 H2526 0.929 . S
C2534 C2535 1.377 . S
C2534 C2536 1.384 . S
C2535 C2534 1.377 . S
C2535 C2541 1.390 . S
C2536 H2527 0.930 . S
C2536 C2534 1.384 . S
C2536 C2537 1.372 . S
C2537 C2536 1.372 . S
C2537 C2538 1.400 . S
C2537 C2542 1.490 . S
C2538 H2528 0.930 . S
C2538 C2537 1.400 . S
C2538 C2541 1.386 . S
H2539 C2555 0.930 . S
H2540 C2556 0.931 . S
C2541 H2529 0.929 . S
C2541 C2535 1.390 . S
C2541 C2538 1.386 . S
C2542 C2537 1.490 . S
C2542 C2544 1.395 . S
C2542 C2545 1.403 . S
H2543 C2549 0.930 . S
C2544 H2530 0.930 . S
C2544 C2542 1.395 . S
C2544 C2547 1.403 . S
C2545 C2542 1.403 . S
C2545 C2546 1.524 . S
C2545 C2549 1.400 . S
C2546 H2531 0.960 . S
C2546 H2532 0.960 . S
C2546 H2533 0.960 . S
C2546 C2545 1.524 . S
C2547 C2544 1.403 . S
C2547 C2548 1.392 . S
C2547 C2551 1.495 . S
C2548 C2547 1.392 . S
C2548 C2549 1.385 . S
C2548 C2550 1.478 . S
C2549 H2543 0.930 . S
C2549 C2545 1.400 . S
C2549 C2548 1.385 . S
C2550 C2548 1.478 . S
C2550 C2552 1.381 . S
C2550 C2556 1.383 . S
C2551 C2547 1.495 . S
C2551 H2557 0.959 . S
C2551 H2558 0.961 . S
C2551 H2559 0.960 . S
C2552 C2550 1.381 . S
C2552 C2553 1.394 . S
C2552 H2560 0.930 . S
C2553 C2552 1.394 . S
C2553 C2554 1.383 . S
C2553 H2561 0.929 . S
C2554 C2553 1.383 . S
C2554 C2555 1.377 . S
C2555 H2539 0.930 . S
C2555 C2554 1.377 . S
C2555 C2556 1.379 . S
C2556 H2540 0.931 . S
C2556 C2550 1.383 . S
C2556 C2555 1.379 . S
H2557 C2551 0.959 . S
H2558 C2551 0.961 . S
H2559 C2551 0.960 . S
H2560 C2552 0.930 . S
H2561 C2553 0.929 . S
H2562 C2570 0.929 . S
H2563 C2572 0.930 . S
H2564 C2574 0.930 . S
H2565 C2577 0.929 . S
H2566 C2580 0.930 . S
H2567 C2582 0.960 . S
H2568 C2582 0.960 . S
H2569 C2582 0.960 . S
C2570 H2562 0.929 . S
C2570 C2571 1.377 . S
C2570 C2572 1.384 . S
C2571 C2570 1.377 . S
C2571 C2577 1.390 . S
C2572 H2563 0.930 . S
C2572 C2570 1.384 . S
C2572 C2573 1.372 . S
C2573 C2572 1.372 . S
C2573 C2574 1.400 . S
C2573 C2578 1.490 . S
C2574 H2564 0.930 . S
C2574 C2573 1.400 . S
C2574 C2577 1.386 . S
H2575 C2591 0.930 . S
H2576 C2592 0.931 . S
C2577 H2565 0.929 . S
C2577 C2571 1.390 . S
C2577 C2574 1.386 . S
C2578 C2573 1.490 . S
C2578 C2580 1.395 . S
C2578 C2581 1.403 . S
H2579 C2585 0.930 . S
C2580 H2566 0.930 . S
C2580 C2578 1.395 . S
C2580 C2583 1.403 . S
C2581 C2578 1.403 . S
C2581 C2582 1.524 . S
C2581 C2585 1.400 . S
C2582 H2567 0.960 . S
C2582 H2568 0.960 . S
C2582 H2569 0.960 . S
C2582 C2581 1.524 . S
C2583 C2580 1.403 . S
C2583 C2584 1.392 . S
C2583 C2587 1.495 . S
C2584 C2583 1.392 . S
C2584 C2585 1.385 . S
C2584 C2586 1.478 . S
C2585 H2579 0.930 . S
C2585 C2581 1.400 . S
C2585 C2584 1.385 . S
C2586 C2584 1.478 . S
C2586 C2588 1.381 . S
C2586 C2592 1.383 . S
C2587 C2583 1.495 . S
C2587 H2593 0.959 . S
C2587 H2594 0.961 . S
C2587 H2595 0.960 . S
C2588 C2586 1.381 . S
C2588 C2589 1.394 . S
C2588 H2596 0.930 . S
C2589 C2588 1.394 . S
C2589 C2590 1.383 . S
C2589 H2597 0.929 . S
C2590 C2589 1.383 . S
C2590 C2591 1.377 . S
C2591 H2575 0.930 . S
C2591 C2590 1.377 . S
C2591 C2592 1.379 . S
C2592 H2576 0.931 . S
C2592 C2586 1.383 . S
C2592 C2591 1.379 . S
H2593 C2587 0.959 . S
H2594 C2587 0.961 . S
H2595 C2587 0.960 . S
H2596 C2588 0.930 . S
H2597 C2589 0.929 . S
C898 C699 1.293 . S
C879 C74 1.365 . S
C934 C700 1.719 . S
C915 C153 1.631 . S
C970 C694 1.486 . S
C951 C231 1.489 . S
C987 C310 0.895 . S
C1006 C693 0.339 . S
C1023 C394 1.634 . S
C1042 C696 1.743 . S
C1078 C698 1.492 . S
C1059 C494 1.489 . S
C1095 C573 0.880 . S
C1114 C697 0.406 . S
C1131 C651 1.363 . S
C1150 C695 1.318 . S
C1186 C730 2.623 . S
C1167 C56 2.633 . S
C1203 C151 1.559 . S
C1222 C761 1.463 . S
C1258 C729 1.387 . S
C1239 C237 1.333 . S
C1294 C764 1.217 . S
C1275 C326 1.212 . S
C1311 C410 1.557 . S
C1330 C727 1.539 . S
C1366 C759 2.643 . S
C1347 C476 2.658 . S
C1383 C571 1.238 . S
C1402 C732 1.183 . S
C1419 C657 1.292 . S
C1438 C766 1.408 . S
C1455 C58 1.300 . S
C1474 C762 1.352 . S
C1491 C392 1.558 . S
C1510 C765 1.479 . S
C1546 C733 1.401 . S
C1527 C478 1.321 . S
C1582 C760 1.252 . S
C1563 C567 1.221 . S
C1599 C655 2.635 . S
C1618 C726 2.627 . S
C1635 C235 2.656 . S
C1654 C763 2.648 . S
C1690 C728 1.135 . S
C1671 C308 1.235 . S
C1707 C147 1.549 . S
C1726 C731 1.536 . S
C1743 C662 1.422 . S
C1762 C798 1.373 . S
C1779 C405 1.236 . S
C1798 C799 1.231 . S
C1834 C793 1.330 . S
C1815 C483 1.311 . S
C1870 C792 0.345 . S
C1851 C562 0.695 . S
C1887 C142 1.242 . S
C1906 C795 1.232 . S
C1942 C797 1.331 . S
C1923 C242 1.313 . S
C1959 C321 0.692 . S
C1978 C796 0.277 . S
C1995 C63 1.415 . S
C2014 C794 1.366 . S
C2031 C644 2.849 . S
C2050 C832 2.762 . S
C2086 C864 1.207 . S
C2067 C403 1.283 . S
C2103 C489 1.199 . S
C2122 C825 1.366 . S
C2139 C578 1.564 . S
C2158 C859 1.582 . S
C2194 C830 1.251 . S
C2175 C158 1.241 . S
C2211 C224 2.859 . S
C2230 C861 2.783 . S
C2266 C827 1.597 . S
C2247 C319 1.646 . S
C2302 C862 1.354 . S
C2283 C69 1.243 . S
C2338 C858 1.357 . S
C2319 C646 1.242 . S
C2355 C140 1.283 . S
C2374 C860 1.220 . S
C2391 C226 1.196 . S
C2410 C829 1.361 . S
C2446 C863 1.588 . S
C2427 C315 1.569 . S
C2463 C67 2.848 . S
C2482 C828 2.759 . S
C2499 C487 2.860 . S
C2518 C865 2.761 . S
C2554 C831 1.549 . S
C2535 C560 1.649 . S
C2590 C826 1.263 . S
C2571 C399 1.232 . S
