# Generated by pormake.
# Topology myd, (4,6)-cn, num edge types: 1
# Building blocks:
#     Node 0, Type 0, BuildingBlock: NAWXER_clean_sbu_0, # of connection points: 4
#     Node 1, Type 0, BuildingBlock: NAWXER_clean_sbu_0, # of connection points: 4
#     Node 2, Type 0, BuildingBlock: NAWXER_clean_sbu_0, # of connection points: 4
#     Node 3, Type 0, BuildingBlock: NAWXER_clean_sbu_0, # of connection points: 4
#     Node 4, Type 0, BuildingBlock: NAWXER_clean_sbu_0, # of connection points: 4
#     Node 5, Type 0, BuildingBlock: NAWXER_clean_sbu_0, # of connection points: 4
#     Node 6, Type 0, BuildingBlock: NAWXER_clean_sbu_0, # of connection points: 4
#     Node 7, Type 0, BuildingBlock: NAWXER_clean_sbu_0, # of connection points: 4
#     Node 8, Type 0, BuildingBlock: NAWXER_clean_sbu_0, # of connection points: 4
#     Node 9, Type 0, BuildingBlock: NAWXER_clean_sbu_0, # of connection points: 4
#     Node 10, Type 0, BuildingBlock: NAWXER_clean_sbu_0, # of connection points: 4
#     Node 11, Type 0, BuildingBlock: NAWXER_clean_sbu_0, # of connection points: 4
#     Node 12, Type 1, BuildingBlock: FUNLAD_clean_sbu_0, # of connection points: 6
#     Node 13, Type 1, BuildingBlock: FUNLAD_clean_sbu_0, # of connection points: 6
#     Node 14, Type 1, BuildingBlock: FUNLAD_clean_sbu_0, # of connection points: 6
#     Node 15, Type 1, BuildingBlock: FUNLAD_clean_sbu_0, # of connection points: 6
#     Node 16, Type 1, BuildingBlock: FUNLAD_clean_sbu_0, # of connection points: 6
#     Node 17, Type 1, BuildingBlock: FUNLAD_clean_sbu_0, # of connection points: 6
#     Node 18, Type 1, BuildingBlock: FUNLAD_clean_sbu_0, # of connection points: 6
#     Node 19, Type 1, BuildingBlock: FUNLAD_clean_sbu_0, # of connection points: 6
#     Edge 20, Type (0, 1), BuildingBlock: XIVTED_clean_linker_0, # of connection points: 2
#     Edge 21, Type (0, 1), BuildingBlock: XIVTED_clean_linker_0, # of connection points: 2
#     Edge 22, Type (0, 1), BuildingBlock: XIVTED_clean_linker_0, # of connection points: 2
#     Edge 23, Type (0, 1), BuildingBlock: XIVTED_clean_linker_0, # of connection points: 2
#     Edge 24, Type (0, 1), BuildingBlock: XIVTED_clean_linker_0, # of connection points: 2
#     Edge 25, Type (0, 1), BuildingBlock: XIVTED_clean_linker_0, # of connection points: 2
#     Edge 26, Type (0, 1), BuildingBlock: XIVTED_clean_linker_0, # of connection points: 2
#     Edge 27, Type (0, 1), BuildingBlock: XIVTED_clean_linker_0, # of connection points: 2
#     Edge 28, Type (0, 1), BuildingBlock: XIVTED_clean_linker_0, # of connection points: 2
#     Edge 29, Type (0, 1), BuildingBlock: XIVTED_clean_linker_0, # of connection points: 2
#     Edge 30, Type (0, 1), BuildingBlock: XIVTED_clean_linker_0, # of connection points: 2
#     Edge 31, Type (0, 1), BuildingBlock: XIVTED_clean_linker_0, # of connection points: 2
#     Edge 32, Type (0, 1), BuildingBlock: XIVTED_clean_linker_0, # of connection points: 2
#     Edge 33, Type (0, 1), BuildingBlock: XIVTED_clean_linker_0, # of connection points: 2
#     Edge 34, Type (0, 1), BuildingBlock: XIVTED_clean_linker_0, # of connection points: 2
#     Edge 35, Type (0, 1), BuildingBlock: XIVTED_clean_linker_0, # of connection points: 2
#     Edge 36, Type (0, 1), BuildingBlock: XIVTED_clean_linker_0, # of connection points: 2
#     Edge 37, Type (0, 1), BuildingBlock: XIVTED_clean_linker_0, # of connection points: 2
#     Edge 38, Type (0, 1), BuildingBlock: XIVTED_clean_linker_0, # of connection points: 2
#     Edge 39, Type (0, 1), BuildingBlock: XIVTED_clean_linker_0, # of connection points: 2
#     Edge 40, Type (0, 1), BuildingBlock: XIVTED_clean_linker_0, # of connection points: 2
#     Edge 41, Type (0, 1), BuildingBlock: XIVTED_clean_linker_0, # of connection points: 2
#     Edge 42, Type (0, 1), BuildingBlock: XIVTED_clean_linker_0, # of connection points: 2
#     Edge 43, Type (0, 1), BuildingBlock: XIVTED_clean_linker_0, # of connection points: 2
#     Edge 44, Type (0, 1), BuildingBlock: XIVTED_clean_linker_0, # of connection points: 2
#     Edge 45, Type (0, 1), BuildingBlock: XIVTED_clean_linker_0, # of connection points: 2
#     Edge 46, Type (0, 1), BuildingBlock: XIVTED_clean_linker_0, # of connection points: 2
#     Edge 47, Type (0, 1), BuildingBlock: XIVTED_clean_linker_0, # of connection points: 2
#     Edge 48, Type (0, 1), BuildingBlock: XIVTED_clean_linker_0, # of connection points: 2
#     Edge 49, Type (0, 1), BuildingBlock: XIVTED_clean_linker_0, # of connection points: 2
#     Edge 50, Type (0, 1), BuildingBlock: XIVTED_clean_linker_0, # of connection points: 2
#     Edge 51, Type (0, 1), BuildingBlock: XIVTED_clean_linker_0, # of connection points: 2
#     Edge 52, Type (0, 1), BuildingBlock: XIVTED_clean_linker_0, # of connection points: 2
#     Edge 53, Type (0, 1), BuildingBlock: XIVTED_clean_linker_0, # of connection points: 2
#     Edge 54, Type (0, 1), BuildingBlock: XIVTED_clean_linker_0, # of connection points: 2
#     Edge 55, Type (0, 1), BuildingBlock: XIVTED_clean_linker_0, # of connection points: 2
#     Edge 56, Type (0, 1), BuildingBlock: XIVTED_clean_linker_0, # of connection points: 2
#     Edge 57, Type (0, 1), BuildingBlock: XIVTED_clean_linker_0, # of connection points: 2
#     Edge 58, Type (0, 1), BuildingBlock: XIVTED_clean_linker_0, # of connection points: 2
#     Edge 59, Type (0, 1), BuildingBlock: XIVTED_clean_linker_0, # of connection points: 2
#     Edge 60, Type (0, 1), BuildingBlock: XIVTED_clean_linker_0, # of connection points: 2
#     Edge 61, Type (0, 1), BuildingBlock: XIVTED_clean_linker_0, # of connection points: 2
#     Edge 62, Type (0, 1), BuildingBlock: XIVTED_clean_linker_0, # of connection points: 2
#     Edge 63, Type (0, 1), BuildingBlock: XIVTED_clean_linker_0, # of connection points: 2
#     Edge 64, Type (0, 1), BuildingBlock: XIVTED_clean_linker_0, # of connection points: 2
#     Edge 65, Type (0, 1), BuildingBlock: XIVTED_clean_linker_0, # of connection points: 2
#     Edge 66, Type (0, 1), BuildingBlock: XIVTED_clean_linker_0, # of connection points: 2
#     Edge 67, Type (0, 1), BuildingBlock: XIVTED_clean_linker_0, # of connection points: 2
# Relax obj value: 0.292
# Max RMSD: 0.235
# Mean RMSD: 0.147
data_MOF--net-myd--node1-NAWXER_clean_sbu_0--node2-FUNLAD_clean_sbu_0--edge1-XIVTED_clean_linker_0
_symmetry_space_group_name_H-M    P1
_symmetry_Int_Tables_number       1
_symmetry_cell_setting            triclinic
loop_
_symmetry_equiv_pos_as_xyz
'x, y, z'
_cell_length_a     46.002669
_cell_length_b     45.869019
_cell_length_c     50.523342
_cell_angle_alpha  83.883896
_cell_angle_beta   83.502634
_cell_angle_gamma 88.373879
loop_
_atom_site_label
_atom_site_type_symbol
_atom_site_fract_x
_atom_site_fract_y
_atom_site_fract_z
_atom_type_partial_charge
C0 C 0.03919 0.22946 0.32308 0.0
C1 C 0.02291 0.30486 0.38485 0.0
O2 O 0.05908 0.24468 0.3303 0.0
Zn3 Zn 0.03236 0.26673 0.35397 0.0
O4 O 0.01233 0.23401 0.33142 0.0
Zn5 Zn 0.98612 0.26074 0.35699 0.0
O6 O 0.96326 0.2825 0.33125 0.0
O7 O 0.01018 0.29317 0.32466 0.0
O8 O 0.99914 0.29331 0.38028 0.0
O9 O 0.0473 0.29563 0.37418 0.0
O10 O 0.01587 0.23095 0.38249 0.0
O11 O 0.96797 0.22995 0.38197 0.0
C12 C 0.98422 0.29691 0.31787 0.0
C13 C 0.99123 0.21862 0.39034 0.0
C14 C 0.04422 0.75987 0.19942 0.0
C15 C 0.01682 0.69754 0.13479 0.0
O16 O 0.06194 0.74617 0.18373 0.0
Zn17 Zn 0.0314 0.73041 0.16593 0.0
O18 O 0.01664 0.75923 0.19815 0.0
Zn19 Zn 0.98645 0.7409 0.17581 0.0
O20 O 0.96313 0.71926 0.20516 0.0
O21 O 0.00858 0.70222 0.19894 0.0
O22 O 0.99448 0.70946 0.14724 0.0
O23 O 0.04237 0.70458 0.13867 0.0
O24 O 0.01702 0.7704 0.14492 0.0
O25 O 0.97013 0.77641 0.15784 0.0
C26 C 0.9829 0.70091 0.21198 0.0
C27 C 0.99345 0.78587 0.14411 0.0
C28 C 0.36401 0.99502 0.18732 0.0
C29 C 0.28901 0.99158 0.26584 0.0
O30 O 0.35481 0.97196 0.20179 0.0
Zn31 Zn 0.32747 0.99104 0.22757 0.0
O32 O 0.35422 0.02016 0.19336 0.0
Zn33 Zn 0.32287 0.03834 0.22162 0.0
O34 O 0.34585 0.0618 0.24156 0.0
O35 O 0.35459 0.01428 0.24955 0.0
O36 O 0.29482 0.01714 0.25393 0.0
O37 O 0.30277 0.96932 0.25726 0.0
O38 O 0.29542 0.00725 0.20225 0.0
O39 O 0.29443 0.05562 0.19787 0.0
C40 C 0.35924 0.04071 0.25381 0.0
C41 C 0.28485 0.03151 0.19217 0.0
C42 C 0.75671 0.50684 0.1852 0.0
C43 C 0.68858 0.52558 0.26298 0.0
O44 O 0.74132 0.4845 0.19492 0.0
Zn45 Zn 0.70768 0.47318 0.22725 0.0
O46 O 0.75372 0.53042 0.19647 0.0
Zn47 Zn 0.72326 0.51698 0.22421 0.0
O48 O 0.74537 0.48518 0.24928 0.0
O49 O 0.72467 0.44214 0.24969 0.0
O50 O 0.70658 0.54354 0.24956 0.0
O51 O 0.68724 0.49955 0.25631 0.0
O52 O 0.67547 0.46412 0.20893 0.0
O53 O 0.68809 0.51065 0.20126 0.0
C54 C 0.74369 0.4578 0.25749 0.0
C55 C 0.67189 0.48966 0.19717 0.0
C56 C 0.22699 0.35346 0.98356 0.0
C57 C 0.30094 0.27493 0.97701 0.0
O58 O 0.23814 0.343 0.96231 0.0
Zn59 Zn 0.26445 0.31476 0.97915 0.0
O60 O 0.23553 0.34353 0.00617 0.0
Zn61 Zn 0.26517 0.31089 0.02179 0.0
O62 O 0.29341 0.3331 0.03718 0.0
O63 O 0.29551 0.34147 0.99315 0.0
O64 O 0.29314 0.28084 1.00103 0.0
O65 O 0.29002 0.28963 0.95761 0.0
O66 O 0.23431 0.28415 0.00161 0.0
O67 O 0.23864 0.28427 0.04466 0.0
C68 C 0.30481 0.34634 0.01522 0.0
C69 C 0.22644 0.27453 0.02606 0.0
C70 C 0.25085 0.75091 0.46368 0.0
C71 C 0.32929 0.68038 0.48848 0.0
O72 O 0.27054 0.74097 0.44694 0.0
Zn73 Zn 0.29127 0.71633 0.47378 0.0
O74 O 0.25161 0.74356 0.48876 0.0
Zn75 Zn 0.27558 0.71679 0.51593 0.0
O76 O 0.29144 0.74545 0.53601 0.0
O77 O 0.30983 0.74876 0.49353 0.0
O78 O 0.31199 0.68842 0.50815 0.0
O79 O 0.32549 0.69089 0.46471 0.0
O80 O 0.25743 0.68617 0.48915 0.0
O81 O 0.24472 0.69029 0.53211 0.0
C82 C 0.30853 0.75782 0.51676 0.0
C83 C 0.24111 0.67862 0.51096 0.0
C84 C 0.71365 0.86652 0.47095 0.0
C85 C 0.78882 0.79019 0.45175 0.0
O86 O 0.72261 0.85852 0.44801 0.0
Zn87 Zn 0.75277 0.82986 0.45897 0.0
O88 O 0.72633 0.85592 0.49127 0.0
Zn89 Zn 0.75984 0.82474 0.50087 0.0
O90 O 0.7914 0.8471 0.51183 0.0
O91 O 0.78844 0.85437 0.46837 0.0
O92 O 0.7852 0.79635 0.47605 0.0
O93 O 0.7738 0.80386 0.43448 0.0
O94 O 0.72689 0.79784 0.48362 0.0
O95 O 0.73688 0.7955 0.5255 0.0
C96 C 0.8015 0.8587 0.4887 0.0
C97 C 0.72248 0.78642 0.50793 0.0
C98 C 0.48781 0.79839 0.82395 0.0
C99 C 0.50489 0.71044 0.88411 0.0
O100 O 0.46826 0.78204 0.83734 0.0
Zn101 Zn 0.49456 0.75704 0.85786 0.0
O102 O 0.51473 0.79383 0.82757 0.0
Zn103 Zn 0.54091 0.76396 0.85048 0.0
O104 O 0.5645 0.74703 0.82131 0.0
O105 O 0.51757 0.73551 0.8263 0.0
O106 O 0.52836 0.72422 0.87488 0.0
O107 O 0.48014 0.72273 0.88119 0.0
O108 O 0.51076 0.78613 0.8826 0.0
O109 O 0.55857 0.78912 0.87246 0.0
C110 C 0.54348 0.73299 0.81453 0.0
C111 C 0.53528 0.79694 0.88606 0.0
C112 C 0.50453 0.20463 0.7179 0.0
C113 C 0.52026 0.29312 0.6541 0.0
O114 O 0.4821 0.21211 0.70554 0.0
Zn115 Zn 0.47043 0.24544 0.67425 0.0
O116 O 0.52824 0.21856 0.71126 0.0
Zn117 Zn 0.51418 0.24644 0.68373 0.0
O118 O 0.48199 0.26926 0.708 0.0
O119 O 0.43837 0.26534 0.6941 0.0
O120 O 0.53889 0.27873 0.66727 0.0
O121 O 0.49459 0.28276 0.65458 0.0
O122 O 0.46211 0.22313 0.64571 0.0
O123 O 0.50845 0.21907 0.65298 0.0
C124 C 0.45446 0.27485 0.71009 0.0
C125 C 0.48743 0.21204 0.64038 0.0
C126 C 0.77861 0.53379 0.69678 0.0
C127 C 0.85487 0.53657 0.75652 0.0
O128 O 0.78738 0.55631 0.70607 0.0
Zn129 Zn 0.816 0.53605 0.72722 0.0
O130 O 0.78929 0.5085 0.70401 0.0
Zn131 Zn 0.82136 0.4896 0.72843 0.0
O132 O 0.79764 0.46475 0.75575 0.0
O133 O 0.78882 0.51183 0.75874 0.0
O134 O 0.85018 0.51055 0.751 0.0
O135 O 0.83998 0.55803 0.74677 0.0
O136 O 0.84628 0.52086 0.69592 0.0
O137 O 0.84742 0.47241 0.70098 0.0
C138 C 0.78376 0.48499 0.76748 0.0
C139 C 0.85577 0.49646 0.68775 0.0
C140 C 0.23352 0.0148 0.69308 0.0
C141 C 0.1572 0.02118 0.76821 0.0
O142 O 0.22529 0.98953 0.70429 0.0
Zn143 Zn 0.19508 0.97205 0.73735 0.0
O144 O 0.22218 0.03776 0.70224 0.0
Zn145 Zn 0.19465 0.01866 0.73027 0.0
O146 O 0.22164 1.0002 0.75959 0.0
O147 O 0.22014 0.95188 0.76216 0.0
O148 O 0.1685 0.04228 0.75231 0.0
O149 O 0.16481 0.99469 0.76436 0.0
O150 O 0.16979 0.94925 0.72022 0.0
O151 O 0.16548 0.99693 0.70899 0.0
C152 C 0.22918 0.97494 0.77027 0.0
C153 C 0.15809 0.97059 0.70688 0.0
C154 C 0.76972 0.17591 0.9586 0.0
C155 C 0.83132 0.25703 0.97125 0.0
O156 O 0.7676 0.1827 0.98269 0.0
Zn157 Zn 0.78392 0.21402 0.00521 0.0
O158 O 0.78637 0.19039 0.94029 0.0
Zn159 Zn 0.80003 0.21729 0.96322 0.0
O160 O 0.82488 0.18882 0.98931 0.0
O161 O 0.80454 0.1891 0.03105 0.0
O162 O 0.82835 0.24753 0.94897 0.0
O163 O 0.81586 0.2464 0.99257 0.0
O164 O 0.74835 0.23658 0.01592 0.0
O165 O 0.76062 0.24162 0.97228 0.0
C166 C 0.82476 0.1801 0.01432 0.0
C167 C 0.7429 0.24716 0.99263 0.0
C168 C 0.11732 0.02946 0.08493 0.0
N169 N 0.07669 0.04134 0.01405 0.0
C170 C 0.10219 0.05108 1.00004 0.0
C171 C 0.10727 0.04948 0.97249 0.0
C172 C 0.08597 0.03767 0.95908 0.0
C173 C 0.06018 0.02697 0.97413 0.0
C174 C 0.05591 0.02914 0.00173 0.0
Zn175 Zn 0.06888 0.04875 0.05357 0.0
C176 C 0.03911 0.9966 0.08776 0.0
N177 N 0.05251 0.06553 0.13516 0.0
C178 C 0.07808 0.07287 0.14382 0.0
C179 C 0.02639 0.06984 0.14993 0.0
C180 C 0.02544 0.08339 0.17367 0.0
C181 C 0.05163 0.09241 0.18204 0.0
C182 C 0.07815 0.08576 0.16736 0.0
Zn183 Zn 0.05696 0.05527 0.09624 0.0
O184 O 0.11272 0.0343 0.0605 0.0
C185 C 0.08807 0.1065 0.06257 0.0
O186 O 0.09688 0.03401 0.10301 0.0
H187 H 0.00624 0.0644 0.14258 0.0
H188 H 0.11844 0.06073 0.01016 0.0
H189 H 0.0987 0.07075 0.13167 0.0
O190 O 0.08501 0.09162 0.04335 0.0
O191 O 0.07874 0.0962 0.0862 0.0
H192 H 0.0357 0.02172 0.0132 0.0
O193 O 0.01649 0.07597 0.08882 0.0
O194 O 0.02547 0.06467 0.04749 0.0
O195 O 0.03598 0.01426 0.10579 0.0
O196 O 0.0526 0.00503 0.06484 0.0
C197 C 0.00838 0.07574 0.06559 0.0
H198 H 0.1277 0.05749 0.96177 0.0
H199 H 0.04313 0.01781 0.96457 0.0
H200 H 0.00445 0.08825 0.18443 0.0
H201 H 0.09888 0.0918 0.17329 0.0
C202 C 0.91979 0.48046 0.04536 0.0
N203 N 0.96727 0.50181 0.9699 0.0
C204 C 0.93952 0.50088 0.9631 0.0
C205 C 0.93283 0.51259 0.93793 0.0
C206 C 0.955 0.52465 0.91902 0.0
C207 C 0.98356 0.52536 0.92623 0.0
C208 C 0.9892 0.51403 0.95212 0.0
Zn209 Zn 0.97409 0.48033 0.00673 0.0
C210 C 0.99381 0.5175 0.04457 0.0
N211 N 0.98253 0.43116 0.08241 0.0
C212 C 0.96015 0.41326 0.09308 0.0
C213 C 0.00547 0.43504 0.0964 0.0
C214 C 0.00618 0.42098 0.12233 0.0
C215 C 0.98286 0.40302 0.13417 0.0
C216 C 0.95974 0.39921 0.11898 0.0
Zn217 Zn 0.97882 0.45388 0.04558 0.0
O218 O 0.93063 0.49353 0.02315 0.0
C219 C 0.95755 0.41713 0.00803 0.0
O220 O 0.93517 0.46185 0.0581 0.0
H221 H 0.02305 0.44935 0.08758 0.0
H222 H 0.92251 0.4901 0.97685 0.0
H223 H 0.94208 0.41036 0.08172 0.0
O224 O 0.95724 0.44195 0.99426 0.0
O225 O 0.96723 0.4151 0.03073 0.0
H226 H 0.0112 0.51427 0.9577 0.0
O227 O 0.02272 0.44602 0.03283 0.0
O228 O 0.01798 0.46681 0.9922 0.0
O229 O 0.98971 0.49362 0.05973 0.0
O230 O 0.99059 0.51832 0.0198 0.0
C231 C 0.03374 0.45315 0.00889 0.0
H232 H 0.9107 0.51102 0.93286 0.0
H233 H 1.00126 0.53428 0.91197 0.0
H234 H 0.0248 0.42424 0.13294 0.0
H235 H 0.94098 0.38614 0.12716 0.0
C236 C 0.03935 0.00639 0.41837 0.0
N237 N 0.05539 0.9431 0.36298 0.0
C238 C 0.02884 0.94123 0.35389 0.0
C239 C 0.02672 0.92868 0.33015 0.0
C240 C 0.05221 0.91831 0.31576 0.0
C241 C 0.07939 0.92326 0.32427 0.0
C242 C 0.08047 0.9354 0.34814 0.0
Zn243 Zn 0.05952 0.94929 0.40178 0.0
C244 C 0.11828 0.97249 0.40456 0.0
N245 N 0.07376 0.95554 0.48191 0.0
C246 C 0.05224 0.96767 0.49824 0.0
C247 C 0.09868 0.94419 0.49132 0.0
C248 C 0.10244 0.94419 0.51828 0.0
C249 C 0.08037 0.95605 0.53572 0.0
C250 C 0.05515 0.96824 0.52537 0.0
Zn251 Zn 0.06761 0.95145 0.44336 0.0
O252 O 0.0373 0.99091 0.39916 0.0
C253 C 0.00822 0.92777 0.43949 0.0
O254 O 0.05212 0.99557 0.43833 0.0
H255 H 0.1155 0.93467 0.47798 0.0
H256 H 0.00916 0.94738 0.36599 0.0
H257 H 0.03254 0.97642 0.49031 0.0
O258 O 0.01892 0.92843 0.4151 0.0
O259 O 0.02357 0.93698 0.45623 0.0
H260 H 0.10137 0.93611 0.35582 0.0
O261 O 0.08315 0.90812 0.44813 0.0
O262 O 0.08338 0.90766 0.40491 0.0
O263 O 0.1122 0.96505 0.42953 0.0
O264 O 0.09892 0.97053 0.389 0.0
C265 C 0.09016 0.89542 0.42721 0.0
H266 H 0.00533 0.92532 0.32409 0.0
H267 H 0.09952 0.91514 0.3141 0.0
H268 H 0.12248 0.93511 0.52538 0.0
H269 H 0.03762 0.97752 0.5382 0.0
C270 C 0.91227 0.60786 0.44405 0.0
N271 N 0.99987 0.58278 0.45769 0.0
C272 C 0.01087 0.6089 0.4461 0.0
C273 C 0.03656 0.61943 0.45384 0.0
C274 C 0.05067 0.60312 0.47397 0.0
C275 C 0.0385 0.57662 0.48594 0.0
C276 C 0.01318 0.56669 0.47729 0.0
Zn277 Zn 0.96353 0.56534 0.44575 0.0
C278 C 0.92581 0.53707 0.49385 0.0
N279 N 0.88817 0.52601 0.42388 0.0
C280 C 0.87311 0.53985 0.40439 0.0
C281 C 0.8831 0.49746 0.43339 0.0
C282 C 0.86397 0.481 0.42169 0.0
C283 C 0.84952 0.49438 0.40058 0.0
C284 C 0.85335 0.52433 0.39248 0.0
Zn285 Zn 0.92324 0.54573 0.43522 0.0
O286 O 0.93875 0.60576 0.44944 0.0
C287 C 0.96047 0.57547 0.38729 0.0
O288 O 0.89996 0.58542 0.43795 0.0
H289 H 0.89524 0.48689 0.44896 0.0
H290 H 0.99997 0.62138 0.43059 0.0
H291 H 0.87765 0.56245 0.39701 0.0
O292 O 0.97645 0.5806 0.40517 0.0
O293 O 0.93763 0.56018 0.39398 0.0
H294 H 0.00445 0.54576 0.486 0.0
O295 O 0.94658 0.5065 0.43242 0.0
O296 O 0.98762 0.52429 0.4413 0.0
O297 O 0.90933 0.53186 0.47638 0.0
O298 O 0.94944 0.5507 0.48633 0.0
C299 C 0.97325 0.50274 0.43602 0.0
H300 H 0.04533 0.64004 0.44419 0.0
H301 H 0.04899 0.56323 0.50123 0.0
H302 H 0.86152 0.45783 0.42817 0.0
H303 H 0.84265 0.53508 0.37596 0.0
C304 C 0.4077 1.00075 0.56142 0.0
N305 N 0.44946 0.00509 0.48195 0.0
C306 C 0.42182 1.00312 0.47512 0.0
C307 C 0.4153 0.01271 0.44925 0.0
C308 C 0.4375 0.02395 0.42981 0.0
C309 C 0.46589 0.02574 0.43725 0.0
C310 C 0.47136 0.0164 0.46362 0.0
Zn311 Zn 0.45709 0.9882 0.52036 0.0
C312 C 0.48523 0.03137 0.55014 0.0
N313 N 0.47051 0.95179 0.60003 0.0
C314 C 0.4459 0.93974 0.61394 0.0
C315 C 0.49628 0.95045 0.61099 0.0
C316 C 0.49791 0.9362 0.63679 0.0
C317 C 0.47274 0.92335 0.65143 0.0
C318 C 0.44646 0.92572 0.63968 0.0
Zn319 Zn 0.4659 0.97023 0.56173 0.0
O320 O 0.41402 1.00314 0.53613 0.0
C321 C 0.43546 0.92785 0.5331 0.0
O322 O 0.42583 0.98856 0.57632 0.0
H323 H 0.51566 0.96001 0.59959 0.0
H324 H 0.40476 0.99347 0.48961 0.0
H325 H 0.42561 0.94067 0.60497 0.0
O326 O 0.43901 0.94805 0.51383 0.0
O327 O 0.4447 0.93146 0.55525 0.0
H328 H 0.49322 0.01775 0.4693 0.0
O329 O 0.50663 0.95286 0.54678 0.0
O330 O 0.50066 0.9723 0.50603 0.0
O331 O 0.48605 0.00932 0.56765 0.0
O332 O 0.47456 0.02872 0.52829 0.0
C333 C 0.51646 0.95768 0.52217 0.0
H334 H 0.39325 0.01044 0.44426 0.0
H335 H 0.48363 0.03428 0.42282 0.0
H336 H 0.51878 0.93471 0.64488 0.0
H337 H 0.42633 0.91681 0.65024 0.0
C338 C 0.6188 0.54698 0.57901 0.0
N339 N 0.58721 0.54281 0.50515 0.0
C340 C 0.61472 0.55057 0.49446 0.0
C341 C 0.62361 0.54871 0.46744 0.0
C342 C 0.60394 0.53907 0.45107 0.0
C343 C 0.57611 0.52985 0.46286 0.0
C344 C 0.56815 0.5319 0.49013 0.0
Zn345 Zn 0.57376 0.55394 0.54255 0.0
C346 C 0.54637 0.50433 0.58008 0.0
N347 N 0.5455 0.58336 0.61831 0.0
C348 C 0.5672 0.59985 0.62497 0.0
C349 C 0.51957 0.58019 0.6342 0.0
C350 C 0.51469 0.59468 0.6575 0.0
C351 C 0.53667 0.61258 0.66385 0.0
C352 C 0.56331 0.61443 0.64762 0.0
Zn353 Zn 0.55585 0.56809 0.58177 0.0
O354 O 0.61569 0.54053 0.55569 0.0
C355 C 0.58596 0.61668 0.54543 0.0
O356 O 0.59741 0.55778 0.59284 0.0
H357 H 0.50253 0.56715 0.62848 0.0
H358 H 0.62945 0.55951 0.50661 0.0
H359 H 0.5876 0.60273 0.61226 0.0
O360 O 0.59087 0.59647 0.53016 0.0
O361 O 0.57002 0.61126 0.56743 0.0
H362 H 0.54632 0.52605 0.49901 0.0
O363 O 0.51403 0.57883 0.57009 0.0
O364 O 0.53175 0.56852 0.52989 0.0
O365 O 0.54288 0.52429 0.59599 0.0
O366 O 0.5573 0.51093 0.55589 0.0
C367 C 0.51061 0.57769 0.54559 0.0
H368 H 0.6455 0.5554 0.45935 0.0
H369 H 0.56021 0.52235 0.45095 0.0
H370 H 0.49385 0.59271 0.66984 0.0
H371 H 0.58099 0.62754 0.65215 0.0
C372 C 0.53173 0.49416 0.9164 0.0
N373 N 0.53144 0.41343 0.88385 0.0
C374 C 0.50491 0.42382 0.8772 0.0
C375 C 0.49062 0.41062 0.85883 0.0
C376 C 0.5035 0.38614 0.84754 0.0
C377 C 0.5312 0.37622 0.85418 0.0
C378 C 0.54497 0.39039 0.87239 0.0
Zn379 Zn 0.54779 0.43075 0.9146 0.0
C380 C 0.60725 0.45204 0.90143 0.0
N381 N 0.57453 0.46608 0.98168 0.0
C382 C 0.55401 0.48062 0.99712 0.0
C383 C 0.60248 0.4623 0.98787 0.0
C384 C 0.61041 0.47251 0.01102 0.0
C385 C 0.5892 0.48627 0.0279 0.0
C386 C 0.56086 0.49073 0.02061 0.0
Zn387 Zn 0.56137 0.4483 0.95023 0.0
O388 O 0.5319 0.47421 0.9007 0.0
C389 C 0.50135 0.42598 0.96166 0.0
O390 O 0.54239 0.48865 0.9384 0.0
H391 H 0.61835 0.45061 0.97529 0.0
H392 H 0.49416 0.44172 0.88692 0.0
H393 H 0.53202 0.48371 0.99164 0.0
O394 O 0.50742 0.42228 0.93717 0.0
O395 O 0.52083 0.43569 0.97416 0.0
H396 H 0.56601 0.38243 0.87797 0.0
O397 O 0.58041 0.40823 0.96282 0.0
O398 O 0.5657 0.38811 0.92927 0.0
O399 O 0.60227 0.46015 0.92499 0.0
O400 O 0.58748 0.43895 0.89196 0.0
C401 C 0.57933 0.38601 0.95008 0.0
H402 H 0.46917 0.4187 0.85438 0.0
H403 H 0.54191 0.35751 0.84562 0.0
H404 H 0.63245 0.46853 0.01632 0.0
H405 H 0.54408 0.5014 0.03321 0.0
C406 C 0.43337 0.10122 0.95301 0.0
N407 N 0.52155 0.07235 0.9535 0.0
C408 C 0.53037 0.0989 0.94106 0.0
C409 C 0.55932 0.10738 0.9405 0.0
C410 C 0.57945 0.0883 0.95273 0.0
C411 C 0.56935 0.06167 0.96659 0.0
C412 C 0.54015 0.05411 0.96674 0.0
Zn413 Zn 0.48206 0.05731 0.94687 0.0
C414 C 0.44837 0.02817 0.99663 0.0
N415 N 0.40132 0.02464 0.9302 0.0
C416 C 0.38409 0.04316 0.9157 0.0
C417 C 0.39466 0.9958 0.93648 0.0
C418 C 0.37065 0.98424 0.92677 0.0
C419 C 0.35314 1.00276 0.91103 0.0
C420 C 0.35966 0.03268 0.90607 0.0
Zn421 Zn 0.43981 0.04024 0.93871 0.0
O422 O 0.46101 0.09908 0.95319 0.0
C423 C 0.4732 0.07094 0.88924 0.0
O424 O 0.4192 0.07943 0.9482 0.0
H425 H 0.40861 0.98149 0.94813 0.0
H426 H 0.51527 0.11301 0.93053 0.0
H427 H 0.38997 0.06588 0.91061 0.0
O428 O 0.49188 0.07213 0.90572 0.0
O429 O 0.44894 0.05856 0.8974 0.0
H430 H 0.5327 0.03302 0.97636 0.0
O431 O 0.46036 1.00081 0.93 0.0
O432 O 0.50223 0.01522 0.94031 0.0
O433 O 0.43115 0.02295 0.97972 0.0
O434 O 0.47149 0.04267 0.98851 0.0
C435 C 0.48692 0.99532 0.93333 0.0
H436 H 0.56598 0.12842 0.93012 0.0
H437 H 0.58409 0.04621 0.9762 0.0
H438 H 0.36619 0.96105 0.931 0.0
H439 H 0.34693 0.04756 0.89362 0.0
H440 H 0.03026 0.19282 0.42293 0.0
H441 H 1.00188 0.03451 0.38474 0.0
H442 H 0.95451 0.17443 0.38481 0.0
H443 H 0.05082 0.04818 0.45027 0.0
H444 H 0.98511 0.08591 0.38324 0.0
H445 H 0.03848 0.14007 0.43325 0.0
C446 C 0.01488 0.17769 0.41741 0.0
C447 C 0.99159 0.18805 0.40312 0.0
C448 C 0.99929 0.07751 0.39811 0.0
C449 C 1.00155 0.12765 0.41386 0.0
C450 C 0.00901 0.04825 0.39885 0.0
C451 C 0.02792 0.03703 0.41755 0.0
C452 C 0.00896 0.09579 0.41586 0.0
C453 C 0.03631 0.05584 0.43546 0.0
C454 C 0.01968 0.14757 0.42314 0.0
C455 C 0.97255 0.16743 0.39613 0.0
N456 N 0.02707 0.08432 0.43396 0.0
N457 N 0.97828 0.13819 0.40107 0.0
H458 H 0.97901 0.31957 0.42191 0.0
H459 H 0.02989 0.48546 0.41871 0.0
H460 H 0.06209 0.34975 0.38163 0.0
H461 H 0.94508 0.452 0.45095 0.0
H462 H 0.04662 0.43487 0.41185 0.0
H463 H 0.97118 0.3664 0.44031 0.0
C464 C 0.99583 0.33597 0.41725 0.0
C465 C 0.02106 0.33088 0.39998 0.0
C466 C 0.0245 0.43869 0.42077 0.0
C467 C 0.01195 0.38513 0.4205 0.0
C468 C 0.01504 0.46746 0.42476 0.0
C469 C 0.98597 0.47287 0.43502 0.0
C470 C 0.00477 0.41542 0.42744 0.0
C471 C 0.96754 0.44888 0.44254 0.0
C472 C 0.99133 0.36282 0.4277 0.0
C473 C 0.04227 0.35285 0.39485 0.0
N474 N 0.97717 0.42138 0.43846 0.0
N475 N 0.03702 0.37928 0.40468 0.0
H476 H 0.03345 0.808 0.10327 0.0
H477 H 1.00098 0.97361 0.13022 0.0
H478 H 0.95827 0.83336 0.15533 0.0
H479 H 0.05288 0.94979 0.0589 0.0
H480 H 0.98591 0.92245 0.14073 0.0
H481 H 0.04152 0.85966 0.08712 0.0
C482 C 0.01831 0.82441 0.11095 0.0
C483 C 0.9951 0.81629 0.13065 0.0
C484 C 1.00038 0.9285 0.12266 0.0
C485 C 0.00472 0.87567 0.11277 0.0
C486 C 0.0091 0.95768 0.11669 0.0
C487 C 0.02834 0.96606 0.09368 0.0
C488 C 0.01136 0.90735 0.10576 0.0
C489 C 0.03803 0.94441 0.07686 0.0
C490 C 0.02298 0.85392 0.10177 0.0
C491 C 0.97629 0.83857 0.13998 0.0
N492 N 0.02972 0.91607 0.08338 0.0
N493 N 0.98178 0.86725 0.13129 0.0
H494 H 0.96952 0.66257 0.13839 0.0
H495 H 0.02163 0.56718 0.02014 0.0
H496 H 0.05492 0.67716 0.09464 0.0
H497 H 0.97805 0.52958 0.09569 0.0
H498 H 0.02769 0.61292 0.04039 0.0
H499 H 0.96482 0.61917 0.11512 0.0
C500 C 0.98709 0.65692 0.12357 0.0
C501 C 0.0127 0.67341 0.11848 0.0
C502 C 0.01696 0.5945 0.05242 0.0
C503 C 0.00729 0.62395 0.09177 0.0
C504 C 0.01347 0.56853 0.04095 0.0
C505 C 0.99947 0.54459 0.05635 0.0
C506 C 0.00551 0.59664 0.07909 0.0
C507 C 0.98921 0.54742 0.08319 0.0
C508 C 0.98446 0.63206 0.11049 0.0
C509 C 0.03488 0.66491 0.09921 0.0
N510 N 0.99211 0.5731 0.09362 0.0
N511 N 0.03164 0.64073 0.08641 0.0
H512 H 0.36568 0.95336 0.15185 0.0
H513 H 0.47201 0.04681 0.03921 0.0
H514 H 0.40445 0.0347 0.16396 0.0
H515 H 0.40711 0.98852 0.02029 0.0
H516 H 0.45619 0.03449 0.08693 0.0
H517 H 0.38991 0.95779 0.10562 0.0
C518 C 0.37992 0.97169 0.14504 0.0
C519 C 0.38307 0.9937 0.16175 0.0
C520 C 0.4456 0.02421 0.07232 0.0
C521 C 0.41062 0.99898 0.10902 0.0
C522 C 0.45467 0.03116 0.04506 0.0
C523 C 0.44072 0.01889 0.02564 0.0
C524 C 0.42266 1.0045 0.08035 0.0
C525 C 0.41833 0.99872 0.03452 0.0
C526 C 0.39346 0.97437 0.1186 0.0
C527 C 0.40139 0.01726 0.15173 0.0
N528 N 0.40996 0.9922 0.0612 0.0
N529 N 0.41438 0.01932 0.12606 0.0
H530 H 0.62863 0.45386 0.18711 0.0
H531 H 0.63386 0.51939 0.0386 0.0
H532 H 0.6702 0.53652 0.15947 0.0
H533 H 0.56003 0.46887 0.07646 0.0
H534 H 0.64781 0.52605 0.08293 0.0
H535 H 0.60236 0.45876 0.14732 0.0
C536 C 0.63183 0.47324 0.17293 0.0
C537 C 0.65193 0.49457 0.17632 0.0
C538 C 0.62824 0.51398 0.08153 0.0
C539 C 0.62249 0.50003 0.13086 0.0
C540 C 0.62045 0.51007 0.05633 0.0
C541 C 0.59594 0.4935 0.05413 0.0
C542 C 0.61179 0.50054 0.10448 0.0
C543 C 0.57907 0.48186 0.07752 0.0
C544 C 0.61679 0.47608 0.15032 0.0
C545 C 0.6551 0.51941 0.1575 0.0
N546 N 0.58762 0.48514 0.10184 0.0
N547 N 0.641 0.52116 0.13523 0.0
H548 H 0.35296 0.08387 0.28786 0.0
H549 H 0.46767 0.0081 0.38344 0.0
H550 H 0.4051 0.00728 0.27024 0.0
H551 H 0.39223 0.05825 0.41238 0.0
H552 H 0.45327 0.01731 0.33792 0.0
H553 H 0.37589 0.08447 0.32947 0.0
C554 C 0.3698 0.0677 0.29235 0.0
C555 C 0.37709 0.04544 0.27561 0.0
C556 C 0.44008 0.02658 0.35421 0.0
C557 C 0.40323 0.04592 0.3231 0.0
C558 C 0.44837 0.02148 0.38014 0.0
C559 C 0.43101 0.03226 0.40175 0.0
C560 C 0.41448 0.04296 0.34976 0.0
C561 C 0.40606 0.04927 0.39633 0.0
C562 C 0.38264 0.06787 0.31621 0.0
C563 C 0.39875 0.02476 0.28263 0.0
N564 N 0.3985 0.05404 0.37091 0.0
N565 N 0.41096 0.02542 0.30586 0.0
H566 H 0.69417 0.57238 0.29181 0.0
H567 H 0.5917 0.49865 0.41772 0.0
H568 H 0.64308 0.49508 0.2907 0.0
H569 H 0.63489 0.58103 0.41761 0.0
H570 H 0.60749 0.49924 0.36993 0.0
H571 H 0.6696 0.57868 0.33654 0.0
C572 C 0.67746 0.55706 0.30075 0.0
C573 C 0.67095 0.53296 0.28769 0.0
C574 C 0.61339 0.5173 0.38032 0.0
C575 C 0.64311 0.53976 0.33878 0.0
C576 C 0.60428 0.51699 0.40762 0.0
C577 C 0.61229 0.53961 0.4218 0.0
C578 C 0.63074 0.54033 0.36709 0.0
C579 C 0.62883 0.56274 0.40763 0.0
C580 C 0.66354 0.56057 0.32631 0.0
C581 C 0.64912 0.51375 0.30019 0.0
N582 N 0.6377 0.56239 0.38111 0.0
N583 N 0.63624 0.51739 0.32512 0.0
H584 H 0.20811 0.38865 0.02219 0.0
H585 H 0.06131 0.44285 0.95913 0.0
H586 H 0.19017 0.36771 0.94443 0.0
H587 H 0.07653 0.44503 0.0416 0.0
H588 H 0.11171 0.4239 0.94947 0.0
H589 H 0.16378 0.41875 0.02523 0.0
C590 C 0.19496 0.39062 0.00558 0.0
C591 C 0.20265 0.37527 0.98319 0.0
C592 C 0.104 0.42888 0.96957 0.0
C593 C 0.15134 0.40957 0.98671 0.0
C594 C 0.07536 0.43977 0.97505 0.0
C595 C 0.06468 0.44516 1.00126 0.0
C596 C 0.12198 0.42386 0.99041 0.0
C597 C 0.08371 0.44079 0.02118 0.0
C598 C 0.16955 0.40781 0.00735 0.0
C599 C 0.18494 0.37906 0.96212 0.0
N600 N 0.11127 0.43034 0.01536 0.0
N601 N 0.15981 0.39553 0.96454 0.0
H602 H 0.23135 0.64685 0.47046 0.0
H603 H 0.06617 0.60656 0.5244 0.0
H604 H 0.19208 0.66928 0.54754 0.0
H605 H 0.09921 0.62077 0.44079 0.0
H606 H 0.11396 0.62049 0.5362 0.0
H607 H 0.18523 0.62617 0.46299 0.0
C608 C 0.21317 0.64698 0.48608 0.0
C609 C 0.21552 0.66022 0.50954 0.0
C610 C 0.11065 0.62055 0.51531 0.0
C611 C 0.16242 0.63671 0.50088 0.0
C612 C 0.08349 0.61263 0.50857 0.0
C613 C 0.07877 0.61273 0.48157 0.0
C614 C 0.13331 0.62798 0.4949 0.0
C615 C 0.10184 0.62077 0.46181 0.0
C616 C 0.18676 0.63534 0.48167 0.0
C617 C 0.19122 0.6594 0.52913 0.0
N618 N 0.12814 0.6279 0.46887 0.0
N619 N 0.16549 0.64809 0.52425 0.0
H620 H 0.84168 0.86493 0.52461 0.0
H621 H 0.96745 0.91503 0.40727 0.0
H622 H 0.82772 0.88547 0.44158 0.0
H623 H 0.97894 0.91853 0.49047 0.0
H624 H 0.91676 0.90108 0.42042 0.0
H625 H 0.89203 0.88277 0.51371 0.0
C626 C 0.84896 0.87359 0.50423 0.0
C627 C 0.83032 0.87355 0.484 0.0
C628 C 0.93028 0.90491 0.43588 0.0
C629 C 0.88806 0.89338 0.47132 0.0
C630 C 0.95938 0.91273 0.42836 0.0
C631 C 0.97764 0.91796 0.44776 0.0
C632 C 0.91911 0.90195 0.46308 0.0
C633 C 0.96571 0.91471 0.47481 0.0
C634 C 0.87776 0.88362 0.498 0.0
C635 C 0.84115 0.88487 0.4579 0.0
N636 N 0.93724 0.90681 0.48168 0.0
N637 N 0.86923 0.894 0.45233 0.0
H638 H 0.33611 0.64785 0.53561 0.0
H639 H 0.49918 0.59066 0.49318 0.0
H640 H 0.37946 0.66726 0.45557 0.0
H641 H 0.45869 0.58984 0.57458 0.0
H642 H 0.45396 0.61233 0.47731 0.0
H643 H 0.37882 0.61969 0.54807 0.0
C644 C 0.35458 0.64605 0.52051 0.0
C645 C 0.3542 0.66031 0.49452 0.0
C646 C 0.45498 0.6072 0.49861 0.0
C647 C 0.40375 0.6279 0.50891 0.0
C648 C 0.48072 0.59473 0.5077 0.0
C649 C 0.48282 0.58851 0.5353 0.0
C650 C 0.43108 0.61319 0.51724 0.0
C651 C 0.45823 0.59437 0.55316 0.0
C652 C 0.37908 0.62993 0.52771 0.0
C653 C 0.37879 0.65673 0.47584 0.0
N654 N 0.43352 0.60635 0.54383 0.0
N655 N 0.40271 0.64106 0.48346 0.0
H656 H 0.55144 0.67477 0.87187 0.0
H657 H 0.49566 0.5269 0.94809 0.0
H658 H 0.46336 0.6727 0.91198 0.0
H659 H 0.54454 0.52989 0.86992 0.0
H660 H 0.48591 0.57991 0.94045 0.0
H661 H 0.55343 0.62146 0.87745 0.0
C662 C 0.53265 0.66318 0.88238 0.0
C663 C 0.50721 0.67839 0.89171 0.0
C664 C 0.49823 0.56882 0.92479 0.0
C665 C 0.50949 0.61702 0.89788 0.0
C666 C 0.50374 0.53869 0.92907 0.0
C667 C 0.52073 0.52414 0.90947 0.0
C668 C 0.51074 0.58458 0.90118 0.0
C669 C 0.53106 0.54031 0.88533 0.0
C670 C 0.53373 0.63268 0.88514 0.0
C671 C 0.48345 0.6619 0.90467 0.0
N672 N 0.52643 0.56986 0.88207 0.0
N673 N 0.48525 0.632 0.90762 0.0
H674 H 0.49391 0.81036 0.9259 0.0
H675 H 0.5443 0.9763 0.92288 0.0
H676 H 0.57512 0.84122 0.8821 0.0
H677 H 0.45559 0.94567 0.93938 0.0
H678 H 0.56116 0.92534 0.91799 0.0
H679 H 0.486 0.85789 0.94313 0.0
C680 C 0.51044 0.82695 0.9204 0.0
C681 C 0.53493 0.82202 0.90217 0.0
C682 C 0.53807 0.92994 0.9229 0.0
C683 C 0.52567 0.87679 0.92133 0.0
C684 C 0.52847 0.9589 0.92564 0.0
C685 C 0.49848 0.96521 0.93111 0.0
C686 C 0.51752 0.90735 0.92632 0.0
C687 C 0.47886 0.94191 0.93469 0.0
C688 C 0.50582 0.85416 0.9301 0.0
C689 C 0.55582 0.84421 0.89599 0.0
N690 N 0.48871 0.91414 0.93223 0.0
N691 N 0.55044 0.87095 0.90514 0.0
H692 H 0.55853 0.33253 0.66713 0.0
H693 H 0.53285 0.45941 0.55192 0.0
H694 H 0.49562 0.32254 0.61174 0.0
H695 H 0.54768 0.47808 0.63114 0.0
H696 H 0.5272 0.40729 0.56874 0.0
H697 H 0.56409 0.3841 0.64886 0.0
C698 C 0.54629 0.34102 0.6508 0.0
C699 C 0.52663 0.32315 0.6409 0.0
C700 C 0.53155 0.42289 0.5824 0.0
C701 C 0.533 0.3821 0.61989 0.0
C702 C 0.53475 0.45259 0.57285 0.0
C703 C 0.54052 0.47318 0.5902 0.0
C704 C 0.53506 0.41358 0.60926 0.0
C705 C 0.54292 0.46305 0.61713 0.0
C706 C 0.54926 0.37051 0.6406 0.0
C707 C 0.51102 0.33552 0.61996 0.0
N708 N 0.54055 0.43396 0.62574 0.0
N709 N 0.51465 0.36417 0.61003 0.0
H710 H 0.53323 0.173 0.63551 0.0
H711 H 0.46593 0.08492 0.52911 0.0
H712 H 0.4522 0.19831 0.6032 0.0
H713 H 0.52006 0.04439 0.5876 0.0
H714 H 0.4704 0.13207 0.54692 0.0
H715 H 0.53776 0.1313 0.60882 0.0
C716 C 0.51662 0.1701 0.62248 0.0
C717 C 0.49214 0.18906 0.62177 0.0
C718 C 0.48166 0.11291 0.55552 0.0
C719 C 0.49737 0.14145 0.5911 0.0
C720 C 0.47935 0.08606 0.54525 0.0
C721 C 0.49251 0.06066 0.55702 0.0
C722 C 0.49763 0.11443 0.5774 0.0
C723 C 0.50941 0.0634 0.57805 0.0
C724 C 0.5192 0.14621 0.60736 0.0
C725 C 0.47129 0.18411 0.60454 0.0
N726 N 0.51138 0.08977 0.58766 0.0
N727 N 0.47433 0.16071 0.58994 0.0
H728 H 0.89504 0.53728 0.66458 0.0
H729 H 0.8831 0.4987 0.51723 0.0
H730 H 0.85355 0.45841 0.64976 0.0
H731 H 0.95063 0.55391 0.53628 0.0
H732 H 0.87026 0.48456 0.56532 0.0
H733 H 0.91496 0.5443 0.61746 0.0
C734 C 0.89066 0.5211 0.65147 0.0
C735 C 0.87277 0.49716 0.66107 0.0
C736 C 0.88803 0.49958 0.55889 0.0
C737 C 0.89465 0.50557 0.60688 0.0
C738 C 0.89523 0.50782 0.53148 0.0
C739 C 0.91784 0.52768 0.5227 0.0
C740 C 0.90325 0.51166 0.57761 0.0
C741 C 0.93298 0.53862 0.54208 0.0
C742 C 0.90193 0.52516 0.62455 0.0
C743 C 0.86754 0.47697 0.64319 0.0
N744 N 0.92522 0.5307 0.56857 0.0
N745 N 0.878 0.48191 0.6168 0.0
H746 H 0.14704 0.91868 0.68783 0.0
H747 H 0.06779 1.00046 0.56755 0.0
H748 H 0.12413 0.0109 0.6804 0.0
H749 H 0.10126 0.9115 0.56919 0.0
H750 H 0.07882 1.00155 0.61361 0.0
H751 H 0.12074 0.91271 0.64935 0.0
C752 C 0.13605 0.93755 0.67842 0.0
C753 C 0.13822 0.96543 0.68698 0.0
C754 C 0.08347 0.98168 0.60399 0.0
C755 C 0.10836 0.95882 0.64297 0.0
C756 C 0.07706 0.98101 0.57775 0.0
C757 C 0.08407 0.95602 0.56442 0.0
C758 C 0.097 0.95719 0.61695 0.0
C759 C 0.09616 0.93146 0.57855 0.0
C760 C 0.12115 0.93416 0.6564 0.0
C761 C 0.12344 0.9891 0.67415 0.0
N762 N 0.10251 0.93276 0.60397 0.0
N763 N 0.10942 0.98532 0.65259 0.0
H764 H 0.85758 0.58266 0.78652 0.0
H765 H 0.97956 0.50477 0.87243 0.0
H766 H 0.89956 0.49992 0.77102 0.0
H767 H 0.91362 0.56462 0.90349 0.0
H768 H 0.96032 0.51254 0.82874 0.0
H769 H 0.88786 0.58551 0.82309 0.0
C770 C 0.87353 0.56538 0.79046 0.0
C771 C 0.87582 0.54084 0.77591 0.0
C772 C 0.95047 0.52441 0.84499 0.0
C773 C 0.91054 0.54407 0.81753 0.0
C774 C 0.96159 0.52019 0.86978 0.0
C775 C 0.94804 0.53403 0.89148 0.0
C776 C 0.92588 0.54284 0.84191 0.0
C777 C 0.92454 0.55349 0.88719 0.0
C778 C 0.89069 0.56697 0.81139 0.0
C779 C 0.89683 0.51905 0.78195 0.0
N780 N 0.91406 0.55718 0.86294 0.0
N781 N 0.91327 0.5211 0.80238 0.0
H782 H 0.14844 0.07291 0.79105 0.0
H783 H 0.07398 0.99308 0.92993 0.0
H784 H 0.12485 0.98166 0.80294 0.0
H785 H 0.1087 0.08043 0.92093 0.0
H786 H 0.08495 0.9912 0.8816 0.0
H787 H 0.12594 0.07879 0.83649 0.0
C788 C 0.13801 0.05427 0.80298 0.0
C789 C 0.13881 0.02668 0.79325 0.0
C790 C 0.09 0.01086 0.89018 0.0
C791 C 0.11337 0.03316 0.84537 0.0
C792 C 0.08362 0.01198 0.91776 0.0
C793 C 0.09075 0.03681 0.92956 0.0
C794 C 0.10349 0.03478 0.87422 0.0
C795 C 0.10339 0.0606 0.91278 0.0
C796 C 0.12536 0.05758 0.82901 0.0
C797 C 0.12502 1.00328 0.80969 0.0
N798 N 0.10948 0.05894 0.88602 0.0
N799 N 0.11313 0.00698 0.835 0.0
H800 H 0.67349 0.88577 0.43556 0.0
H801 H 0.55835 0.93621 0.55335 0.0
H802 H 0.69184 0.88907 0.51708 0.0
H803 H 0.54305 0.9541 0.47043 0.0
H804 H 0.60699 0.91762 0.53936 0.0
H805 H 0.626 0.91038 0.44649 0.0
C806 C 0.66781 0.89203 0.45559 0.0
C807 C 0.68676 0.88512 0.47544 0.0
C808 C 0.59316 0.92567 0.5241 0.0
C809 C 0.6323 0.91283 0.48815 0.0
C810 C 0.56518 0.93623 0.53211 0.0
C811 C 0.54636 0.94671 0.51308 0.0
C812 C 0.6027 0.92515 0.49674 0.0
C813 C 0.55677 0.94625 0.48582 0.0
C814 C 0.64063 0.90597 0.46184 0.0
C815 C 0.67805 0.89367 0.50109 0.0
N816 N 0.58417 0.93545 0.47845 0.0
N817 N 0.65152 0.90675 0.50668 0.0
H818 H 0.74936 0.12843 0.99114 0.0
H819 H 0.61326 0.11498 0.90907 0.0
H820 H 0.74304 0.17435 0.91292 0.0
H821 H 0.6175 0.07844 0.99095 0.0
H822 H 0.66433 0.12939 0.90646 0.0
H823 H 0.70596 0.10088 0.98678 0.0
C824 C 0.73919 0.13215 0.97272 0.0
C825 C 0.74949 0.1539 0.95249 0.0
C826 C 0.65414 0.11798 0.9249 0.0
C827 C 0.6993 0.12312 0.94766 0.0
C828 C 0.62489 0.11001 0.92652 0.0
C829 C 0.61087 0.09587 0.95043 0.0
C830 C 0.66953 0.11175 0.94732 0.0
C831 C 0.62733 0.08923 0.9721 0.0
C832 C 0.71428 0.11658 0.97031 0.0
C833 C 0.73571 0.15776 0.92897 0.0
N834 N 0.65568 0.09744 0.97008 0.0
N835 N 0.71086 0.14292 0.9274 0.0
H836 H 0.34781 0.34403 0.04934 0.0
H837 H 0.45238 0.43678 0.93769 0.0
H838 H 0.3205 0.39134 0.97767 0.0
H839 H 0.48158 0.4034 0.01343 0.0
H840 H 0.40262 0.42396 0.95514 0.0
H841 H 0.39507 0.36915 0.04032 0.0
C842 C 0.35147 0.36023 0.03213 0.0
C843 C 0.33043 0.36535 0.01399 0.0
C844 C 0.41967 0.41957 0.96822 0.0
C845 C 0.38419 0.39377 0.00347 0.0
C846 C 0.44818 0.42684 0.95817 0.0
C847 C 0.4711 0.4208 0.97406 0.0
C848 C 0.41386 0.40547 0.99427 0.0
C849 C 0.46441 0.40829 1.00056 0.0
C850 C 0.37846 0.37443 0.02692 0.0
C851 C 0.33627 0.3864 0.99195 0.0
N852 N 0.43634 0.4005 0.00977 0.0
N853 N 0.36262 0.39953 0.9872 0.0
H854 H 0.8648 0.15012 0.98316 0.0
H855 H 0.96617 0.101 0.09938 0.0
H856 H 0.84111 0.16701 0.0653 0.0
H857 H 0.98492 0.0802 0.01779 0.0
H858 H 0.9197 0.12378 0.08817 0.0
H859 H 0.90783 0.12278 0.99637 0.0
C860 C 0.86852 0.14793 0.00407 0.0
C861 C 0.84928 0.16107 0.02312 0.0
C862 C 0.93393 0.11411 0.07277 0.0
C863 C 0.89905 0.12975 0.03844 0.0
C864 C 0.96051 0.10111 0.07913 0.0
C865 C 0.97963 0.08874 0.05946 0.0
C866 C 0.92639 0.11485 0.04652 0.0
C867 C 0.97102 0.08951 0.03361 0.0
C868 C 0.8932 0.13226 0.01161 0.0
C869 C 0.85529 0.15724 0.04994 0.0
N870 N 0.94516 0.10242 0.0279 0.0
N871 N 0.87978 0.14214 0.05678 0.0
H872 H 0.00935 0.17944 0.32469 0.0
H873 H 0.08538 0.14007 0.18351 0.0
H874 H 0.08341 0.226 0.28188 0.0
H875 H 0.01821 0.08749 0.23106 0.0
H876 H 0.08658 0.17022 0.22011 0.0
H877 H 0.01453 0.14373 0.29209 0.0
C878 C 0.02693 0.18195 0.30846 0.0
C879 C 0.04579 0.20588 0.30567 0.0
C880 C 0.07175 0.15197 0.22269 0.0
C881 C 0.0516 0.16521 0.26807 0.0
C882 C 0.07108 0.13461 0.20182 0.0
C883 C 0.05183 0.11095 0.20433 0.0
C884 C 0.0528 0.14594 0.24624 0.0
C885 C 0.03325 0.10557 0.22821 0.0
C886 C 0.02987 0.16153 0.28987 0.0
C887 C 0.06843 0.20787 0.28463 0.0
N888 N 0.03417 0.12299 0.24825 0.0
N889 N 0.07047 0.18797 0.26633 0.0
H890 H 0.94184 0.29351 0.28432 0.0
H891 H 0.00428 0.42383 0.17735 0.0
H892 H 0.01731 0.34308 0.2947 0.0
H893 H 0.95958 0.34973 0.1556 0.0
H894 H 1.00223 0.40029 0.22322 0.0
H895 H 0.93992 0.32088 0.24002 0.0
C896 C 0.95763 0.31051 0.2775 0.0
C897 C 0.97984 0.31598 0.29311 0.0
C898 C 0.99282 0.38932 0.20833 0.0
C899 C 0.97779 0.34719 0.24267 0.0
C900 C 0.9942 0.40259 0.18202 0.0
C901 C 0.98216 0.38884 0.16227 0.0
C902 C 0.97891 0.36231 0.21516 0.0
C903 C 0.96872 0.36158 0.17002 0.0
C904 C 0.95669 0.3259 0.25217 0.0
C905 C 0.99994 0.33807 0.28321 0.0
N906 N 0.96737 0.34931 0.19582 0.0
N907 N 0.99846 0.35287 0.25862 0.0
H908 H 0.02523 0.75787 0.2517 0.0
H909 H 0.08669 0.91534 0.26786 0.0
H910 H 0.08318 0.80466 0.18957 0.0
H911 H 0.01553 0.87246 0.31902 0.0
H912 H 0.09009 0.87403 0.24043 0.0
H913 H 0.02853 0.79724 0.2799 0.0
C914 C 0.03941 0.77615 0.24441 0.0
C915 C 0.05409 0.77816 0.2185 0.0
C916 C 0.07359 0.8739 0.25752 0.0
C917 C 0.05691 0.82392 0.24998 0.0
C918 C 0.07148 0.89749 0.27302 0.0
C919 C 0.05069 0.89737 0.29567 0.0
C920 C 0.05499 0.84999 0.26498 0.0
C921 C 0.03156 0.87375 0.30153 0.0
C922 C 0.04094 0.79883 0.26029 0.0
C923 C 0.07189 0.80232 0.20966 0.0
N924 N 0.03435 0.85094 0.28642 0.0
N925 N 0.0725 0.82465 0.2253 0.0
H926 H 0.94884 0.70964 0.2583 0.0
H927 H 0.94713 0.55754 0.33983 0.0
H928 H 0.00532 0.64518 0.22145 0.0
H929 H 0.98519 0.62873 0.37264 0.0
H930 H 0.95237 0.58635 0.2954 0.0
H931 H 0.94442 0.67705 0.30044 0.0
C932 C 0.95982 0.6884 0.25893 0.0
C933 C 0.97744 0.68002 0.23639 0.0
C934 C 0.95975 0.59535 0.3124 0.0
C935 C 0.97202 0.64274 0.28417 0.0
C936 C 0.95682 0.57904 0.33763 0.0
C937 C 0.96603 0.59067 0.35986 0.0
C938 C 0.9709 0.62378 0.30977 0.0
C939 C 0.97818 0.61877 0.35599 0.0
C940 C 0.95743 0.67002 0.28294 0.0
C941 C 0.99156 0.65242 0.23842 0.0
N942 N 0.9798 0.63458 0.33154 0.0
N943 N 0.9884 0.63458 0.26191 0.0
H944 H 0.25151 0.98486 0.18746 0.0
H945 H 0.16655 0.06091 0.06802 0.0
H946 H 0.26585 0.07492 0.1552 0.0
H947 H 0.13357 0.9879 0.12284 0.0
H948 H 0.21003 0.06121 0.09234 0.0
H949 H 0.21466 0.98134 0.1571 0.0
C950 C 0.24695 1.00398 0.17395 0.0
C951 C 0.26176 0.03033 0.17404 0.0
C952 C 0.19357 0.04473 0.0986 0.0
C953 C 0.21949 0.0262 0.13881 0.0
C954 C 0.1691 0.04418 0.08446 0.0
C955 C 0.14681 0.02398 0.09322 0.0
C956 C 0.19575 0.02468 0.12138 0.0
C957 C 0.15053 1.00349 0.11524 0.0
C958 C 0.22585 1.00189 0.15658 0.0
C959 C 0.25478 0.05429 0.15599 0.0
N960 N 0.17446 1.0044 0.12859 0.0
N961 N 0.23413 0.05165 0.13902 0.0
H962 H 0.76623 0.46013 0.15608 0.0
H963 H 0.89457 0.53426 0.05281 0.0
H964 H 0.79363 0.54908 0.15807 0.0
H965 H 0.87921 0.4414 0.06749 0.0
H966 H 0.85063 0.54307 0.08385 0.0
H967 H 0.80089 0.45604 0.11658 0.0
C968 C 0.77952 0.47888 0.14822 0.0
C969 C 0.7773 0.50487 0.16071 0.0
C970 C 0.85659 0.52085 0.07978 0.0
C971 C 0.81714 0.50029 0.11517 0.0
C972 C 0.88135 0.51588 0.06188 0.0
C973 C 0.89026 0.4871 0.05772 0.0
C974 C 0.84076 0.49681 0.09318 0.0
C975 C 0.87293 0.46391 0.07026 0.0
C976 C 0.79929 0.47653 0.12555 0.0
C977 C 0.79488 0.52852 0.14927 0.0
N978 N 0.84913 0.46925 0.08754 0.0
N979 N 0.81427 0.5256 0.12721 0.0
H980 H 0.25399 0.03536 0.2844 0.0
H981 H 0.16718 0.9378 0.40735 0.0
H982 H 0.2724 0.94283 0.30142 0.0
H983 H 0.13587 0.02034 0.37128 0.0
H984 H 0.212 0.94236 0.37556 0.0
H985 H 0.21667 0.0327 0.32245 0.0
C986 C 0.25027 0.01436 0.29615 0.0
C987 C 0.26635 0.98918 0.28941 0.0
C988 C 0.19561 0.95978 0.37507 0.0
C989 C 0.22322 0.98613 0.33356 0.0
C990 C 0.17036 0.95746 0.39349 0.0
C991 C 0.1482 0.97908 0.39219 0.0
C992 C 0.19866 0.98401 0.3555 0.0
C993 C 0.15272 1.00351 0.3732 0.0
C994 C 0.22885 0.01293 0.31799 0.0
C995 C 0.26041 0.96274 0.30569 0.0
N996 N 0.17735 0.00527 0.35559 0.0
N997 N 0.23923 0.96187 0.32702 0.0
H998 H 0.72268 0.43501 0.30732 0.0
H999 H 0.87386 0.45944 0.36414 0.0
H1000 H 0.80262 0.458 0.25735 0.0
H1001 H 0.79057 0.49011 0.39968 0.0
H1002 H 0.8488 0.4373 0.33095 0.0
H1003 H 0.74931 0.43306 0.34703 0.0
C1004 C 0.74612 0.43823 0.30469 0.0
C1005 C 0.76069 0.44659 0.27926 0.0
C1006 C 0.83601 0.44817 0.34649 0.0
C1007 C 0.79088 0.44453 0.32408 0.0
C1008 C 0.85019 0.46071 0.36533 0.0
C1009 C 0.83406 0.47658 0.38434 0.0
C1010 C 0.80555 0.45133 0.34703 0.0
C1011 C 0.80357 0.47802 0.38515 0.0
C1012 C 0.76115 0.43742 0.32727 0.0
C1013 C 0.79082 0.45136 0.27674 0.0
N1014 N 0.7902 0.46569 0.36653 0.0
N1015 N 0.80497 0.45051 0.29897 0.0
H1016 H 0.19719 0.24984 0.99028 0.0
H1017 H 0.10534 0.13963 0.09992 0.0
H1018 H 0.20355 0.24739 0.07511 0.0
H1019 H 0.10923 0.13597 0.01455 0.0
H1020 H 0.13703 0.18235 0.09171 0.0
H1021 H 0.16103 0.2114 0.99941 0.0
C1022 C 0.19094 0.24129 0.0109 0.0
C1023 C 0.20363 0.25182 0.03197 0.0
C1024 C 0.13078 0.17231 0.07479 0.0
C1025 C 0.16195 0.20751 0.04257 0.0
C1026 C 0.11256 0.148 0.07944 0.0
C1027 C 0.10465 0.13412 0.05787 0.0
C1028 C 0.14108 0.18291 0.0484 0.0
C1029 C 0.11479 0.14589 0.03179 0.0
C1030 C 0.17023 0.21926 0.01608 0.0
C1031 C 0.19445 0.23988 0.05825 0.0
N1032 N 0.13253 0.1695 0.02781 0.0
N1033 N 0.17422 0.21827 0.0628 0.0
H1034 H 0.20084 0.76218 0.49474 0.0
H1035 H 0.12972 0.87547 0.38774 0.0
H1036 H 0.24272 0.78142 0.41409 0.0
H1037 H 0.09588 0.85642 0.47076 0.0
H1038 H 0.16803 0.83754 0.3941 0.0
H1039 H 0.15976 0.793 0.48351 0.0
C1040 C 0.20152 0.773 0.47454 0.0
C1041 C 0.22568 0.76942 0.45545 0.0
C1042 C 0.15193 0.84141 0.41076 0.0
C1043 C 0.17785 0.80532 0.4423 0.0
C1044 C 0.12989 0.86282 0.4071 0.0
C1045 C 0.10957 0.86911 0.4288 0.0
C1046 C 0.15342 0.82617 0.43624 0.0
C1047 C 0.11109 0.85242 0.45351 0.0
C1048 C 0.17779 0.79064 0.4681 0.0
C1049 C 0.2247 0.78372 0.42951 0.0
N1050 N 0.13265 0.83194 0.45653 0.0
N1051 N 0.20124 0.8013 0.42372 0.0
H1052 H 0.78704 0.75012 0.41495 0.0
H1053 H 0.92715 0.65914 0.46254 0.0
H1054 H 0.83873 0.77621 0.47425 0.0
H1055 H 0.86071 0.62165 0.42325 0.0
H1056 H 0.89968 0.70579 0.46051 0.0
H1057 H 0.81919 0.70662 0.41057 0.0
C1058 C 0.80546 0.74699 0.4266 0.0
C1059 C 0.81015 0.76661 0.4451 0.0
C1060 C 0.89118 0.68733 0.4523 0.0
C1061 C 0.84675 0.71714 0.44037 0.0
C1062 C 0.90683 0.6607 0.4535 0.0
C1063 C 0.89608 0.63633 0.44335 0.0
C1064 C 0.86478 0.68973 0.44056 0.0
C1065 C 0.86968 0.63973 0.43165 0.0
C1066 C 0.82362 0.7221 0.42431 0.0
C1067 C 0.83418 0.76144 0.45993 0.0
N1068 N 0.85497 0.66588 0.43057 0.0
N1069 N 0.85148 0.73722 0.45731 0.0
H1070 H 0.31983 0.77879 0.56376 0.0
H1071 H 0.41778 0.91012 0.48755 0.0
H1072 H 0.33991 0.79319 0.47784 0.0
H1073 H 0.41457 0.88574 0.57275 0.0
H1074 H 0.38712 0.86845 0.48413 0.0
H1075 H 0.35205 0.81945 0.56815 0.0
C1076 C 0.33091 0.7905 0.54587 0.0
C1077 C 0.32717 0.78255 0.52042 0.0
C1078 C 0.39325 0.87208 0.50357 0.0
C1079 C 0.36389 0.8289 0.52526 0.0
C1080 C 0.4108 0.89588 0.50552 0.0
C1081 C 0.41881 0.9014 0.53045 0.0
C1082 C 0.38334 0.85378 0.52675 0.0
C1083 C 0.40903 0.88221 0.55309 0.0
C1084 C 0.34937 0.81358 0.54838 0.0
C1085 C 0.34215 0.79842 0.4979 0.0
N1086 N 0.39164 0.85934 0.55073 0.0
N1087 N 0.35972 0.82081 0.50086 0.0
H1088 H 0.57468 0.74159 0.76496 0.0
H1089 H 0.51931 0.59428 0.71657 0.0
H1090 H 0.52056 0.67938 0.8171 0.0
H1091 H 0.54681 0.6705 0.66302 0.0
H1092 H 0.52379 0.62224 0.75478 0.0
H1093 H 0.57182 0.71131 0.72803 0.0
C1094 C 0.56285 0.72121 0.76869 0.0
C1095 C 0.54772 0.71287 0.7938 0.0
C1096 C 0.52858 0.63285 0.73462 0.0
C1097 C 0.54385 0.6787 0.75211 0.0
C1098 C 0.52564 0.61705 0.71293 0.0
C1099 C 0.53287 0.63015 0.68679 0.0
C1100 C 0.53901 0.66169 0.72989 0.0
C1101 C 0.54135 0.65959 0.68298 0.0
C1102 C 0.56084 0.70418 0.74767 0.0
C1103 C 0.53231 0.68652 0.79779 0.0
N1104 N 0.54451 0.67429 0.7043 0.0
N1105 N 0.53064 0.67037 0.7771 0.0
H1106 H 0.44074 0.80114 0.79471 0.0
H1107 H 0.50466 0.93545 0.69191 0.0
H1108 H 0.5196 0.84627 0.80336 0.0
H1109 H 0.4428 0.8738 0.67293 0.0
H1110 H 0.50529 0.90809 0.73617 0.0
H1111 H 0.43499 0.8339 0.75386 0.0
C1112 C 0.45647 0.81831 0.78834 0.0
C1113 C 0.48078 0.82088 0.8023 0.0
C1114 C 0.49147 0.90071 0.7223 0.0
C1115 C 0.47455 0.85813 0.75562 0.0
C1116 C 0.49128 0.91618 0.69693 0.0
C1117 C 0.47363 0.90705 0.67852 0.0
C1118 C 0.47378 0.87601 0.72944 0.0
C1119 C 0.45637 0.88212 0.6865 0.0
C1120 C 0.45336 0.8368 0.76491 0.0
C1121 C 0.50067 0.84336 0.79303 0.0
N1122 N 0.45688 0.86753 0.7113 0.0
N1123 N 0.49721 0.861 0.77022 0.0
H1124 H 0.44369 0.33342 0.70719 0.0
H1125 H 0.49463 0.3274 0.85062 0.0
H1126 H 0.44289 0.25488 0.76208 0.0
H1127 H 0.47552 0.40903 0.80473 0.0
H1128 H 0.4698 0.30115 0.82037 0.0
H1129 H 0.44693 0.36269 0.74455 0.0
C1130 C 0.4426 0.32251 0.72738 0.0
C1131 C 0.44273 0.29187 0.73181 0.0
C1132 C 0.47069 0.32484 0.81702 0.0
C1133 C 0.44807 0.32476 0.7742 0.0
C1134 C 0.48517 0.33975 0.83411 0.0
C1135 C 0.48753 0.37031 0.82983 0.0
C1136 C 0.45892 0.34053 0.79515 0.0
C1137 C 0.47431 0.3854 0.80855 0.0
C1138 C 0.44492 0.33914 0.74865 0.0
C1139 C 0.44239 0.27856 0.75807 0.0
N1140 N 0.46095 0.37031 0.79171 0.0
N1141 N 0.44572 0.29505 0.77824 0.0
H1142 H 0.54589 0.18541 0.7514 0.0
H1143 H 0.4359 0.07948 0.84999 0.0
H1144 H 0.4569 0.17091 0.73729 0.0
H1145 H 0.52345 0.09786 0.86575 0.0
H1146 H 0.44457 0.1092 0.80664 0.0
H1147 H 0.53946 0.14993 0.79128 0.0
C1148 C 0.52508 0.17461 0.75651 0.0
C1149 C 0.5019 0.18133 0.74092 0.0
C1150 C 0.46196 0.10654 0.8195 0.0
C1151 C 0.49428 0.14064 0.78681 0.0
C1152 C 0.45705 0.08945 0.84424 0.0
C1153 C 0.47892 0.08617 0.86167 0.0
C1154 C 0.48895 0.1205 0.81206 0.0
C1155 C 0.50587 0.09977 0.85309 0.0
C1156 C 0.52138 0.15436 0.77937 0.0
C1157 C 0.47541 0.16656 0.74867 0.0
N1158 N 0.51004 0.11639 0.82904 0.0
N1159 N 0.4723 0.14708 0.77107 0.0
H1160 H 0.7599 0.49004 0.67048 0.0
H1161 H 0.64329 0.59164 0.59784 0.0
H1162 H 0.74912 0.58293 0.67696 0.0
H1163 H 0.65797 0.50071 0.58522 0.0
H1164 H 0.68498 0.58953 0.62371 0.0
H1165 H 0.72509 0.49387 0.63728 0.0
C1166 C 0.75019 0.51129 0.66497 0.0
C1167 C 0.75728 0.53621 0.67677 0.0
C1168 C 0.67949 0.57007 0.61504 0.0
C1169 C 0.71744 0.54067 0.63848 0.0
C1170 C 0.65576 0.5713 0.60019 0.0
C1171 C 0.64731 0.54627 0.58953 0.0
C1172 C 0.69469 0.54343 0.61969 0.0
C1173 C 0.66403 0.52048 0.59304 0.0
C1174 C 0.73041 0.51344 0.64585 0.0
C1175 C 0.74418 0.56313 0.66857 0.0
N1176 N 0.6868 0.51959 0.60822 0.0
N1177 N 0.72478 0.5646 0.65005 0.0
H1178 H 0.24672 0.9745 0.6574 0.0
H1179 H 0.39902 0.03841 0.59933 0.0
H1180 H 0.27182 0.05944 0.67553 0.0
H1181 H 0.35289 0.98401 0.55415 0.0
H1182 H 0.35348 0.04632 0.62806 0.0
H1183 H 0.2862 0.97633 0.62047 0.0
C1184 C 0.26048 0.99361 0.65352 0.0
C1185 C 0.25615 0.01677 0.66968 0.0
C1186 C 0.35312 0.03322 0.61149 0.0
C1187 C 0.30149 0.01884 0.62762 0.0
C1188 C 0.37902 0.0288 0.59508 0.0
C1189 C 0.37945 0.01085 0.57426 0.0
C1190 C 0.32773 0.01871 0.60762 0.0
C1191 C 0.35322 0.99837 0.56979 0.0
C1192 C 0.28283 0.99472 0.63232 0.0
C1193 C 0.27444 0.04111 0.66359 0.0
N1194 N 0.32846 1.00205 0.58672 0.0
N1195 N 0.29665 0.0413 0.64332 0.0
H1196 H 0.75661 0.43258 0.78404 0.0
H1197 H 0.6492 0.49375 0.90298 0.0
H1198 H 0.75885 0.52196 0.80306 0.0
H1199 H 0.63065 0.41927 0.86256 0.0
H1200 H 0.69507 0.50064 0.87276 0.0
H1201 H 0.71602 0.42338 0.81951 0.0
C1202 C 0.7488 0.45018 0.79584 0.0
C1203 C 0.76098 0.47815 0.79038 0.0
C1204 C 0.68093 0.48273 0.87071 0.0
C1205 C 0.7146 0.46775 0.83107 0.0
C1206 C 0.65488 0.47876 0.88796 0.0
C1207 C 0.63595 0.45614 0.88506 0.0
C1208 C 0.68824 0.46355 0.85089 0.0
C1209 C 0.64437 0.43727 0.86528 0.0
C1210 C 0.72556 0.44495 0.81602 0.0
C1211 C 0.74992 0.50013 0.80638 0.0
N1212 N 0.66981 0.44138 0.84903 0.0
N1213 N 0.72733 0.4945 0.82595 0.0
H1214 H 0.26528 0.93076 0.79047 0.0
H1215 H 0.29746 0.02385 0.9089 0.0
H1216 H 0.22827 0.01596 0.80475 0.0
H1217 H 0.35635 0.95559 0.88185 0.0
H1218 H 0.26337 0.01151 0.87832 0.0
H1219 H 0.29169 0.93136 0.83033 0.0
C1220 C 0.26265 0.94943 0.80202 0.0
C1221 C 0.24511 0.97359 0.79407 0.0
C1222 C 0.28356 0.99891 0.87932 0.0
C1223 C 0.27423 0.97405 0.83959 0.0
C1224 C 0.30292 0.0059 0.89682 0.0
C1225 C 0.32987 0.99104 0.89749 0.0
C1226 C 0.29134 0.97712 0.86215 0.0
C1227 C 0.33576 0.96763 0.88177 0.0
C1228 C 0.27759 0.94973 0.82468 0.0
C1229 C 0.2421 0.99715 0.80978 0.0
N1230 N 0.31684 0.96168 0.8643 0.0
N1231 N 0.2565 0.99677 0.83171 0.0
H1232 H 0.69897 0.75627 0.47243 0.0
H1233 H 0.59308 0.6576 0.57987 0.0
H1234 H 0.69719 0.76151 0.55744 0.0
H1235 H 0.61655 0.63865 0.49823 0.0
H1236 H 0.62548 0.69988 0.57161 0.0
H1237 H 0.66368 0.71725 0.48143 0.0
C1238 C 0.69112 0.74928 0.4931 0.0
C1239 C 0.70117 0.76231 0.51425 0.0
C1240 C 0.62333 0.68658 0.55549 0.0
C1241 C 0.66031 0.71721 0.52465 0.0
C1242 C 0.60463 0.6626 0.56007 0.0
C1243 C 0.60203 0.64457 0.53964 0.0
C1244 C 0.63927 0.69275 0.53025 0.0
C1245 C 0.61782 0.65193 0.51454 0.0
C1246 C 0.67093 0.72684 0.49818 0.0
C1247 C 0.69015 0.75203 0.54055 0.0
N1248 N 0.63574 0.6754 0.51058 0.0
N1249 N 0.67019 0.73009 0.54504 0.0
H1250 H 0.70365 0.2721 0.02969 0.0
H1251 H 0.60231 0.3432 0.91912 0.0
H1252 H 0.72022 0.26206 0.94531 0.0
H1253 H 0.59816 0.36973 0.99887 0.0
H1254 H 0.63974 0.30623 0.93067 0.0
H1255 H 0.6598 0.30176 0.02073 0.0
C1256 C 0.69806 0.27603 0.00934 0.0
C1257 C 0.71588 0.2648 0.98822 0.0
C1258 C 0.63032 0.3199 0.94574 0.0
C1259 C 0.66556 0.29836 0.97786 0.0
C1260 C 0.60873 0.34079 0.93923 0.0
C1261 C 0.59717 0.35969 0.95799 0.0
C1262 C 0.64026 0.31776 0.97126 0.0
C1263 C 0.6066 0.35576 0.98369 0.0
C1264 C 0.67303 0.29293 0.00423 0.0
C1265 C 0.70741 0.27051 0.96223 0.0
N1266 N 0.62767 0.33543 0.9895 0.0
N1267 N 0.68297 0.28684 0.95782 0.0
H1268 H 0.33839 0.26582 0.93182 0.0
H1269 H 0.38342 0.10524 0.98585 0.0
H1270 H 0.31163 0.22863 0.01273 0.0
H1271 H 0.44534 0.15794 0.93207 0.0
H1272 H 0.35251 0.1488 0.99168 0.0
H1273 H 0.37376 0.22476 0.92676 0.0
C1274 C 0.33989 0.24903 0.94842 0.0
C1275 C 0.32205 0.25055 0.97271 0.0
C1276 C 0.37299 0.15094 0.9788 0.0
C1277 C 0.36193 0.20389 0.967 0.0
C1278 C 0.3906 0.12616 0.97551 0.0
C1279 C 0.41698 0.12823 0.9587 0.0
C1280 C 0.38138 0.17787 0.96457 0.0
C1281 C 0.42528 0.15571 0.9455 0.0
C1282 C 0.36017 0.22586 0.9456 0.0
C1283 C 0.32499 0.22838 0.99368 0.0
N1284 N 0.40726 0.17955 0.94842 0.0
N1285 N 0.3443 0.20587 0.99025 0.0
H1286 H 0.85803 0.26269 0.01524 0.0
H1287 H 0.93343 0.4139 0.96112 0.0
H1288 H 0.85586 0.30007 0.93339 0.0
H1289 H 0.95139 0.36201 0.0341 0.0
H1290 H 0.90633 0.37282 0.94926 0.0
H1291 H 0.893 0.2992 0.02149 0.0
C1292 C 0.86495 0.27868 0.99851 0.0
C1293 C 0.85374 0.27861 0.97384 0.0
C1294 C 0.91656 0.37035 0.96766 0.0
C1295 C 0.894 0.32078 0.98092 0.0
C1296 C 0.93202 0.39376 0.97448 0.0
C1297 C 0.94443 0.39149 0.99881 0.0
C1298 C 0.91332 0.34467 0.98543 0.0
C1299 C 0.94201 0.36487 0.01526 0.0
C1300 C 0.88513 0.29945 0.00206 0.0
C1301 C 0.86391 0.29952 0.95276 0.0
N1302 N 0.92649 0.34267 0.0084 0.0
N1303 N 0.88326 0.32012 0.95688 0.0
loop_
_geom_bond_atom_site_label_1
_geom_bond_atom_site_label_2
_geom_bond_distance
_geom_bond_site_symmetry_2
_ccdc_geom_bond_type
C0 O2 1.247 . S
C0 O4 1.258 1_455 S
C1 O8 1.247 . S
C1 O9 1.258 1_655 S
O2 C0 1.247 . S
O2 Zn3 2.028 . S
Zn3 O2 2.028 . S
Zn3 O7 2.035 . S
Zn3 O9 2.035 . S
Zn3 O10 2.028 . S
O4 C0 1.258 1_655 S
O4 Zn5 2.035 . S
Zn5 O4 2.035 . S
Zn5 O6 2.028 . S
Zn5 O8 2.028 . S
Zn5 O11 2.035 . S
O6 Zn5 2.028 . S
O6 C12 1.247 . S
O7 Zn3 2.035 . S
O7 C12 1.258 1_455 S
O8 C1 1.247 . S
O8 Zn5 2.028 . S
O9 C1 1.258 1_455 S
O9 Zn3 2.035 . S
O10 Zn3 2.028 . S
O10 C13 1.247 . S
O11 Zn5 2.035 . S
O11 C13 1.258 1_655 S
C12 O6 1.247 . S
C12 O7 1.258 1_655 S
C13 O10 1.247 . S
C13 O11 1.258 1_455 S
C14 O16 1.247 . S
C14 O18 1.258 1_455 S
C15 O22 1.247 . S
C15 O23 1.258 1_655 S
O16 C14 1.247 . S
O16 Zn17 2.028 . S
Zn17 O16 2.028 . S
Zn17 O21 2.035 . S
Zn17 O23 2.035 . S
Zn17 O24 2.028 . S
O18 C14 1.258 1_655 S
O18 Zn19 2.035 . S
Zn19 O18 2.035 . S
Zn19 O20 2.028 . S
Zn19 O22 2.028 . S
Zn19 O25 2.035 . S
O20 Zn19 2.028 . S
O20 C26 1.247 . S
O21 Zn17 2.035 . S
O21 C26 1.258 1_455 S
O22 C15 1.247 . S
O22 Zn19 2.028 . S
O23 C15 1.258 1_455 S
O23 Zn17 2.035 . S
O24 Zn17 2.028 . S
O24 C27 1.247 . S
O25 Zn19 2.035 . S
O25 C27 1.258 1_655 S
C26 O20 1.247 . S
C26 O21 1.258 1_655 S
C27 O24 1.247 . S
C27 O25 1.258 1_455 S
C28 O30 1.247 1_545 S
C28 O32 1.258 . S
C29 O36 1.247 . S
C29 O37 1.258 1_545 S
O30 C28 1.247 1_565 S
O30 Zn31 2.028 . S
Zn31 O30 2.028 . S
Zn31 O35 2.035 . S
Zn31 O37 2.035 . S
Zn31 O38 2.028 . S
O32 C28 1.258 . S
O32 Zn33 2.035 . S
Zn33 O32 2.035 . S
Zn33 O34 2.028 . S
Zn33 O36 2.028 . S
Zn33 O39 2.035 . S
O34 Zn33 2.028 . S
O34 C40 1.247 . S
O35 Zn31 2.035 . S
O35 C40 1.258 1_565 S
O36 C29 1.247 . S
O36 Zn33 2.028 . S
O37 C29 1.258 1_565 S
O37 Zn31 2.035 . S
O38 Zn31 2.028 . S
O38 C41 1.247 1_565 S
O39 Zn33 2.035 . S
O39 C41 1.258 . S
C40 O34 1.247 . S
C40 O35 1.258 1_545 S
C41 O38 1.247 1_545 S
C41 O39 1.258 . S
C42 O44 1.247 . S
C42 O46 1.258 . S
C43 O50 1.247 . S
C43 O51 1.258 . S
O44 C42 1.247 . S
O44 Zn45 2.028 . S
Zn45 O44 2.028 . S
Zn45 O49 2.035 . S
Zn45 O51 2.035 . S
Zn45 O52 2.028 . S
O46 C42 1.258 . S
O46 Zn47 2.035 . S
Zn47 O46 2.035 . S
Zn47 O48 2.028 . S
Zn47 O50 2.028 . S
Zn47 O53 2.035 . S
O48 Zn47 2.028 . S
O48 C54 1.247 . S
O49 Zn45 2.035 . S
O49 C54 1.258 . S
O50 C43 1.247 . S
O50 Zn47 2.028 . S
O51 C43 1.258 . S
O51 Zn45 2.035 . S
O52 Zn45 2.028 . S
O52 C55 1.247 . S
O53 Zn47 2.035 . S
O53 C55 1.258 . S
C54 O48 1.247 . S
C54 O49 1.258 . S
C55 O52 1.247 . S
C55 O53 1.258 . S
C56 O58 1.247 1_554 S
C56 O60 1.258 . S
C57 O64 1.247 1_556 S
C57 O65 1.258 . S
O58 C56 1.247 1_556 S
O58 Zn59 2.028 . S
Zn59 O58 2.028 . S
Zn59 O63 2.035 . S
Zn59 O65 2.035 . S
Zn59 O66 2.028 . S
O60 C56 1.258 . S
O60 Zn61 2.035 . S
Zn61 O60 2.035 . S
Zn61 O62 2.028 . S
Zn61 O64 2.028 . S
Zn61 O67 2.035 . S
O62 Zn61 2.028 . S
O62 C68 1.247 1_554 S
O63 Zn59 2.035 . S
O63 C68 1.258 . S
O64 C57 1.247 1_554 S
O64 Zn61 2.028 . S
O65 C57 1.258 . S
O65 Zn59 2.035 . S
O66 Zn59 2.028 . S
O66 C69 1.247 1_556 S
O67 Zn61 2.035 . S
O67 C69 1.258 . S
C68 O62 1.247 1_556 S
C68 O63 1.258 . S
C69 O66 1.247 1_554 S
C69 O67 1.258 . S
C70 O72 1.247 . S
C70 O74 1.258 . S
C71 O78 1.247 . S
C71 O79 1.258 . S
O72 C70 1.247 . S
O72 Zn73 2.028 . S
Zn73 O72 2.028 . S
Zn73 O77 2.035 . S
Zn73 O79 2.035 . S
Zn73 O80 2.028 . S
O74 C70 1.258 . S
O74 Zn75 2.035 . S
Zn75 O74 2.035 . S
Zn75 O76 2.028 . S
Zn75 O78 2.028 . S
Zn75 O81 2.035 . S
O76 Zn75 2.028 . S
O76 C82 1.247 . S
O77 Zn73 2.035 . S
O77 C82 1.258 . S
O78 C71 1.247 . S
O78 Zn75 2.028 . S
O79 C71 1.258 . S
O79 Zn73 2.035 . S
O80 Zn73 2.028 . S
O80 C83 1.247 . S
O81 Zn75 2.035 . S
O81 C83 1.258 . S
C82 O76 1.247 . S
C82 O77 1.258 . S
C83 O80 1.247 . S
C83 O81 1.258 . S
C84 O86 1.247 . S
C84 O88 1.258 . S
C85 O92 1.247 . S
C85 O93 1.258 . S
O86 C84 1.247 . S
O86 Zn87 2.028 . S
Zn87 O86 2.028 . S
Zn87 O91 2.035 . S
Zn87 O93 2.035 . S
Zn87 O94 2.028 . S
O88 C84 1.258 . S
O88 Zn89 2.035 . S
Zn89 O88 2.035 . S
Zn89 O90 2.028 . S
Zn89 O92 2.028 . S
Zn89 O95 2.035 . S
O90 Zn89 2.028 . S
O90 C96 1.247 . S
O91 Zn87 2.035 . S
O91 C96 1.258 . S
O92 C85 1.247 . S
O92 Zn89 2.028 . S
O93 C85 1.258 . S
O93 Zn87 2.035 . S
O94 Zn87 2.028 . S
O94 C97 1.247 . S
O95 Zn89 2.035 . S
O95 C97 1.258 . S
C96 O90 1.247 . S
C96 O91 1.258 . S
C97 O94 1.247 . S
C97 O95 1.258 . S
C98 O100 1.247 . S
C98 O102 1.258 . S
C99 O106 1.247 . S
C99 O107 1.258 . S
O100 C98 1.247 . S
O100 Zn101 2.028 . S
Zn101 O100 2.028 . S
Zn101 O105 2.035 . S
Zn101 O107 2.035 . S
Zn101 O108 2.028 . S
O102 C98 1.258 . S
O102 Zn103 2.035 . S
Zn103 O102 2.035 . S
Zn103 O104 2.028 . S
Zn103 O106 2.028 . S
Zn103 O109 2.035 . S
O104 Zn103 2.028 . S
O104 C110 1.247 . S
O105 Zn101 2.035 . S
O105 C110 1.258 . S
O106 C99 1.247 . S
O106 Zn103 2.028 . S
O107 C99 1.258 . S
O107 Zn101 2.035 . S
O108 Zn101 2.028 . S
O108 C111 1.247 . S
O109 Zn103 2.035 . S
O109 C111 1.258 . S
C110 O104 1.247 . S
C110 O105 1.258 . S
C111 O108 1.247 . S
C111 O109 1.258 . S
C112 O114 1.247 . S
C112 O116 1.258 . S
C113 O120 1.247 . S
C113 O121 1.258 . S
O114 C112 1.247 . S
O114 Zn115 2.028 . S
Zn115 O114 2.028 . S
Zn115 O119 2.035 . S
Zn115 O121 2.035 . S
Zn115 O122 2.028 . S
O116 C112 1.258 . S
O116 Zn117 2.035 . S
Zn117 O116 2.035 . S
Zn117 O118 2.028 . S
Zn117 O120 2.028 . S
Zn117 O123 2.035 . S
O118 Zn117 2.028 . S
O118 C124 1.247 . S
O119 Zn115 2.035 . S
O119 C124 1.258 . S
O120 C113 1.247 . S
O120 Zn117 2.028 . S
O121 C113 1.258 . S
O121 Zn115 2.035 . S
O122 Zn115 2.028 . S
O122 C125 1.247 . S
O123 Zn117 2.035 . S
O123 C125 1.258 . S
C124 O118 1.247 . S
C124 O119 1.258 . S
C125 O122 1.247 . S
C125 O123 1.258 . S
C126 O128 1.247 . S
C126 O130 1.258 . S
C127 O134 1.247 . S
C127 O135 1.258 . S
O128 C126 1.247 . S
O128 Zn129 2.028 . S
Zn129 O128 2.028 . S
Zn129 O133 2.035 . S
Zn129 O135 2.035 . S
Zn129 O136 2.028 . S
O130 C126 1.258 . S
O130 Zn131 2.035 . S
Zn131 O130 2.035 . S
Zn131 O132 2.028 . S
Zn131 O134 2.028 . S
Zn131 O137 2.035 . S
O132 Zn131 2.028 . S
O132 C138 1.247 . S
O133 Zn129 2.035 . S
O133 C138 1.258 . S
O134 C127 1.247 . S
O134 Zn131 2.028 . S
O135 C127 1.258 . S
O135 Zn129 2.035 . S
O136 Zn129 2.028 . S
O136 C139 1.247 . S
O137 Zn131 2.035 . S
O137 C139 1.258 . S
C138 O132 1.247 . S
C138 O133 1.258 . S
C139 O136 1.247 . S
C139 O137 1.258 . S
C140 O142 1.247 . S
C140 O144 1.258 1_565 S
C141 O148 1.247 . S
C141 O149 1.258 1_545 S
O142 C140 1.247 . S
O142 Zn143 2.028 . S
Zn143 O142 2.028 . S
Zn143 O147 2.035 . S
Zn143 O149 2.035 . S
Zn143 O150 2.028 . S
O144 C140 1.258 1_545 S
O144 Zn145 2.035 . S
Zn145 O144 2.035 . S
Zn145 O146 2.028 . S
Zn145 O148 2.028 . S
Zn145 O151 2.035 . S
O146 Zn145 2.028 . S
O146 C152 1.247 . S
O147 Zn143 2.035 . S
O147 C152 1.258 1_565 S
O148 C141 1.247 . S
O148 Zn145 2.028 . S
O149 C141 1.258 1_565 S
O149 Zn143 2.035 . S
O150 Zn143 2.028 . S
O150 C153 1.247 . S
O151 Zn145 2.035 . S
O151 C153 1.258 1_545 S
C152 O146 1.247 . S
C152 O147 1.258 1_545 S
C153 O150 1.247 . S
C153 O151 1.258 1_565 S
C154 O156 1.247 . S
C154 O158 1.258 1_554 S
C155 O162 1.247 1_554 S
C155 O163 1.258 . S
O156 C154 1.247 . S
O156 Zn157 2.028 . S
Zn157 O156 2.028 . S
Zn157 O161 2.035 . S
Zn157 O163 2.035 . S
Zn157 O164 2.028 . S
O158 C154 1.258 1_556 S
O158 Zn159 2.035 . S
Zn159 O158 2.035 . S
Zn159 O160 2.028 . S
Zn159 O162 2.028 . S
Zn159 O165 2.035 . S
O160 Zn159 2.028 . S
O160 C166 1.247 1_556 S
O161 Zn157 2.035 . S
O161 C166 1.258 . S
O162 C155 1.247 1_556 S
O162 Zn159 2.028 . S
O163 C155 1.258 . S
O163 Zn157 2.035 . S
O164 Zn157 2.028 . S
O164 C167 1.215 1_554 S
O165 Zn159 2.035 . S
O165 C167 1.283 . S
C166 O160 1.247 1_554 S
C166 O161 1.258 . S
C167 O164 1.215 1_556 S
C167 O165 1.283 . S
C168 O184 1.251 . S
C168 O186 1.254 . S
N169 C170 1.333 . S
N169 C174 1.307 . S
N169 Zn175 2.020 1_556 S
C170 N169 1.333 . S
C170 C171 1.379 . S
C170 H188 0.928 1_556 S
C171 C170 1.379 . S
C171 C172 1.390 . S
C171 H198 0.949 . S
C172 C171 1.390 . S
C172 C173 1.357 . S
C173 C172 1.357 . S
C173 C174 1.370 . S
C173 H199 0.950 1_545 S
C174 N169 1.307 . S
C174 C173 1.370 . S
C174 H192 0.948 . S
Zn175 N169 2.020 1_554 S
Zn175 O184 2.039 . S
Zn175 O190 2.034 . S
Zn175 O194 2.025 . S
Zn175 O196 2.024 . S
C176 O195 1.267 . S
C176 O196 1.249 . S
N177 C178 1.307 . S
N177 C179 1.308 1_455 S
N177 Zn183 2.020 . S
C178 N177 1.307 . S
C178 C182 1.370 . S
C178 H189 0.948 . S
C179 N177 1.308 1_655 S
C179 C180 1.388 . S
C179 H187 0.969 . S
C180 C179 1.388 . S
C180 C181 1.390 1_655 S
C180 H200 0.949 . S
C181 C180 1.390 1_455 S
C181 C182 1.357 . S
C182 C178 1.370 . S
C182 C181 1.357 . S
C182 H201 0.950 . S
Zn183 N177 2.020 . S
Zn183 O186 2.025 . S
Zn183 O191 2.024 . S
Zn183 O193 2.039 . S
Zn183 O195 2.034 . S
O184 C168 1.251 . S
O184 Zn175 2.039 . S
C185 O190 1.246 . S
C185 O191 1.249 . S
O186 C168 1.254 . S
O186 Zn183 2.025 . S
H187 C179 0.969 . S
H188 C170 0.928 1_554 S
H189 C178 0.948 . S
O190 Zn175 2.034 . S
O190 C185 1.246 . S
O191 Zn183 2.024 . S
O191 C185 1.249 . S
H192 C174 0.948 . S
O193 Zn183 2.039 . S
O193 C197 1.251 . S
O194 Zn175 2.025 . S
O194 C197 1.254 . S
O195 C176 1.267 . S
O195 Zn183 2.034 . S
O196 Zn175 2.024 . S
O196 C176 1.249 . S
C197 O193 1.251 . S
C197 O194 1.254 . S
H198 C171 0.949 . S
H199 C173 0.950 1_565 S
H200 C180 0.949 . S
H201 C182 0.950 . S
C202 O218 1.251 . S
C202 O220 1.254 . S
N203 C204 1.333 . S
N203 C208 1.307 . S
N203 Zn209 2.020 1_556 S
C204 N203 1.333 . S
C204 C205 1.379 . S
C204 H222 0.952 . S
C205 C204 1.379 . S
C205 C206 1.390 . S
C205 H232 0.949 . S
C206 C205 1.390 . S
C206 C207 1.357 . S
C207 C206 1.357 . S
C207 C208 1.370 . S
C207 H233 0.950 . S
C208 N203 1.307 . S
C208 C207 1.370 . S
C208 H226 0.948 . S
Zn209 N203 2.020 1_554 S
Zn209 O218 2.039 . S
Zn209 O224 2.034 . S
Zn209 O228 2.025 1_655 S
Zn209 O230 2.024 . S
C210 O229 1.246 . S
C210 O230 1.249 . S
N211 C212 1.307 . S
N211 C213 1.333 1_655 S
N211 Zn217 2.020 . S
C212 N211 1.307 . S
C212 C216 1.370 . S
C212 H223 0.948 . S
C213 N211 1.333 1_455 S
C213 C214 1.379 . S
C213 H221 0.952 . S
C214 C213 1.379 . S
C214 C215 1.390 . S
C214 H234 0.949 . S
C215 C214 1.390 . S
C215 C216 1.357 1_455 S
C216 C212 1.370 . S
C216 C215 1.357 1_655 S
C216 H235 0.950 . S
Zn217 N211 2.020 . S
Zn217 O220 2.025 . S
Zn217 O225 2.024 . S
Zn217 O227 2.039 1_655 S
Zn217 O229 2.034 . S
O218 C202 1.251 . S
O218 Zn209 2.039 . S
C219 O224 1.246 . S
C219 O225 1.249 . S
O220 C202 1.254 . S
O220 Zn217 2.025 . S
H221 C213 0.952 . S
H222 C204 0.952 . S
H223 C212 0.948 . S
O224 Zn209 2.034 . S
O224 C219 1.246 . S
O225 Zn217 2.024 . S
O225 C219 1.249 . S
H226 C208 0.948 . S
O227 Zn217 2.039 1_455 S
O227 C231 1.251 . S
O228 Zn209 2.025 1_455 S
O228 C231 1.254 . S
O229 C210 1.246 . S
O229 Zn217 2.034 . S
O230 Zn209 2.024 . S
O230 C210 1.249 . S
C231 O227 1.251 . S
C231 O228 1.254 . S
H232 C205 0.949 . S
H233 C207 0.950 . S
H234 C214 0.949 . S
H235 C216 0.950 . S
C236 O252 1.251 . S
C236 O254 1.254 . S
N237 C238 1.333 . S
N237 C242 1.307 . S
N237 Zn243 2.020 . S
C238 N237 1.333 . S
C238 C239 1.379 . S
C238 H256 0.952 . S
C239 C238 1.379 . S
C239 C240 1.390 . S
C239 H266 0.949 1_455 S
C240 C239 1.390 . S
C240 C241 1.357 . S
C241 C240 1.357 . S
C241 C242 1.370 . S
C241 H267 0.950 . S
C242 N237 1.307 . S
C242 C241 1.370 . S
C242 H260 0.948 . S
Zn243 N237 2.020 . S
Zn243 O252 2.039 . S
Zn243 O258 2.034 . S
Zn243 O262 2.025 . S
Zn243 O264 2.024 . S
C244 O263 1.246 . S
C244 O264 1.249 . S
N245 C246 1.307 . S
N245 C247 1.333 . S
N245 Zn251 2.020 . S
C246 N245 1.307 . S
C246 C250 1.370 1_565 S
C246 H257 0.948 1_565 S
C247 N245 1.333 . S
C247 C248 1.379 . S
C247 H255 0.952 . S
C248 C247 1.379 . S
C248 C249 1.381 1_565 S
C248 H268 0.949 . S
C249 C248 1.381 1_545 S
C249 C250 1.360 . S
C250 C246 1.370 1_545 S
C250 C249 1.360 . S
C250 H269 0.950 . S
Zn251 N245 2.020 . S
Zn251 O254 2.025 . S
Zn251 O259 2.024 . S
Zn251 O261 2.039 . S
Zn251 O263 2.034 . S
O252 C236 1.251 . S
O252 Zn243 2.039 . S
C253 O258 1.246 . S
C253 O259 1.249 . S
O254 C236 1.254 . S
O254 Zn251 2.025 . S
H255 C247 0.952 . S
H256 C238 0.952 . S
H257 C246 0.948 1_545 S
O258 Zn243 2.034 . S
O258 C253 1.246 . S
O259 Zn251 2.024 . S
O259 C253 1.249 . S
H260 C242 0.948 . S
O261 Zn251 2.039 . S
O261 C265 1.251 . S
O262 Zn243 2.025 . S
O262 C265 1.254 . S
O263 C244 1.246 . S
O263 Zn251 2.034 . S
O264 Zn243 2.024 . S
O264 C244 1.249 . S
C265 O261 1.251 . S
C265 O262 1.254 . S
H266 C239 0.949 1_655 S
H267 C241 0.950 . S
H268 C248 0.949 . S
H269 C250 0.950 . S
C270 O286 1.251 . S
C270 O288 1.254 . S
N271 C272 1.333 . S
N271 C276 1.307 . S
N271 Zn277 2.020 1_455 S
C272 N271 1.333 . S
C272 C273 1.379 . S
C272 H290 0.952 . S
C273 C272 1.379 . S
C273 C274 1.390 . S
C273 H300 0.949 . S
C274 C273 1.390 . S
C274 C275 1.357 . S
C275 C274 1.357 . S
C275 C276 1.370 . S
C275 H301 0.950 . S
C276 N271 1.307 . S
C276 C275 1.370 . S
C276 H294 0.948 . S
Zn277 N271 2.020 1_655 S
Zn277 O286 2.039 . S
Zn277 O292 2.034 . S
Zn277 O296 2.025 . S
Zn277 O298 2.024 . S
C278 O297 1.246 . S
C278 O298 1.249 . S
N279 C280 1.307 . S
N279 C281 1.333 . S
N279 Zn285 2.020 . S
C280 N279 1.307 . S
C280 C284 1.370 . S
C280 H291 0.948 . S
C281 N279 1.333 . S
C281 C282 1.379 . S
C281 H289 0.952 . S
C282 C281 1.379 . S
C282 C283 1.390 . S
C282 H302 0.949 . S
C283 C282 1.390 . S
C283 C284 1.357 . S
C284 C280 1.370 . S
C284 C283 1.357 . S
C284 H303 0.950 . S
Zn285 N279 2.020 . S
Zn285 O288 2.025 . S
Zn285 O293 2.024 . S
Zn285 O295 2.039 . S
Zn285 O297 2.034 . S
O286 C270 1.251 . S
O286 Zn277 2.039 . S
C287 O292 1.246 . S
C287 O293 1.249 . S
O288 C270 1.254 . S
O288 Zn285 2.025 . S
H289 C281 0.952 . S
H290 C272 0.952 . S
H291 C280 0.948 . S
O292 Zn277 2.034 . S
O292 C287 1.246 . S
O293 Zn285 2.024 . S
O293 C287 1.249 . S
H294 C276 0.948 . S
O295 Zn285 2.039 . S
O295 C299 1.251 . S
O296 Zn277 2.025 . S
O296 C299 1.254 . S
O297 C278 1.246 . S
O297 Zn285 2.034 . S
O298 Zn277 2.024 . S
O298 C278 1.249 . S
C299 O295 1.251 . S
C299 O296 1.254 . S
H300 C273 0.949 . S
H301 C275 0.950 . S
H302 C282 0.949 . S
H303 C284 0.950 . S
C304 O320 1.251 . S
C304 O322 1.254 . S
N305 C306 1.333 1_565 S
N305 C310 1.307 1_565 S
N305 Zn311 2.020 . S
C306 N305 1.333 1_545 S
C306 C307 1.379 . S
C306 H324 0.952 1_545 S
C307 C306 1.379 . S
C307 C308 1.390 . S
C307 H334 0.949 . S
C308 C307 1.390 . S
C308 C309 1.357 . S
C309 C308 1.357 . S
C309 C310 1.370 . S
C309 H335 0.950 . S
C310 N305 1.307 1_545 S
C310 C309 1.370 . S
C310 H328 0.948 . S
Zn311 N305 2.020 . S
Zn311 O320 2.039 . S
Zn311 O326 2.034 . S
Zn311 O330 2.025 . S
Zn311 O332 2.024 1_565 S
C312 O331 1.246 1_545 S
C312 O332 1.249 . S
N313 C314 1.307 . S
N313 C315 1.333 . S
N313 Zn319 2.020 . S
C314 N313 1.307 . S
C314 C318 1.370 . S
C314 H325 0.948 . S
C315 N313 1.333 . S
C315 C316 1.379 . S
C315 H323 0.952 . S
C316 C315 1.379 . S
C316 C317 1.390 . S
C316 H336 0.949 . S
C317 C316 1.390 . S
C317 C318 1.357 . S
C318 C314 1.370 . S
C318 C317 1.357 . S
C318 H337 0.950 . S
Zn319 N313 2.020 . S
Zn319 O322 2.025 . S
Zn319 O327 2.024 . S
Zn319 O329 2.039 . S
Zn319 O331 2.034 . S
O320 C304 1.251 . S
O320 Zn311 2.039 . S
C321 O326 1.246 . S
C321 O327 1.249 . S
O322 C304 1.254 . S
O322 Zn319 2.025 . S
H323 C315 0.952 . S
H324 C306 0.952 1_565 S
H325 C314 0.948 . S
O326 Zn311 2.034 . S
O326 C321 1.246 . S
O327 Zn319 2.024 . S
O327 C321 1.249 . S
H328 C310 0.948 . S
O329 Zn319 2.039 . S
O329 C333 1.251 . S
O330 Zn311 2.025 . S
O330 C333 1.254 . S
O331 C312 1.246 1_565 S
O331 Zn319 2.034 . S
O332 Zn311 2.024 1_545 S
O332 C312 1.249 . S
C333 O329 1.251 . S
C333 O330 1.254 . S
H334 C307 0.949 . S
H335 C309 0.950 . S
H336 C316 0.949 . S
H337 C318 0.950 . S
C338 O354 1.251 . S
C338 O356 1.254 . S
N339 C340 1.333 . S
N339 C344 1.307 . S
N339 Zn345 2.020 . S
C340 N339 1.333 . S
C340 C341 1.379 . S
C340 H358 0.952 . S
C341 C340 1.379 . S
C341 C342 1.390 . S
C341 H368 0.949 . S
C342 C341 1.390 . S
C342 C343 1.357 . S
C343 C342 1.357 . S
C343 C344 1.370 . S
C343 H369 0.950 . S
C344 N339 1.307 . S
C344 C343 1.370 . S
C344 H362 0.948 . S
Zn345 N339 2.020 . S
Zn345 O354 2.039 . S
Zn345 O360 2.034 . S
Zn345 O364 2.025 . S
Zn345 O366 2.024 . S
C346 O365 1.246 . S
C346 O366 1.249 . S
N347 C348 1.307 . S
N347 C349 1.333 . S
N347 Zn353 2.020 . S
C348 N347 1.307 . S
C348 C352 1.370 . S
C348 H359 0.948 . S
C349 N347 1.333 . S
C349 C350 1.379 . S
C349 H357 0.952 . S
C350 C349 1.379 . S
C350 C351 1.390 . S
C350 H370 0.949 . S
C351 C350 1.390 . S
C351 C352 1.357 . S
C352 C348 1.370 . S
C352 C351 1.357 . S
C352 H371 0.950 . S
Zn353 N347 2.020 . S
Zn353 O356 2.025 . S
Zn353 O361 2.024 . S
Zn353 O363 2.039 . S
Zn353 O365 2.034 . S
O354 C338 1.251 . S
O354 Zn345 2.039 . S
C355 O360 1.246 . S
C355 O361 1.249 . S
O356 C338 1.254 . S
O356 Zn353 2.025 . S
H357 C349 0.952 . S
H358 C340 0.952 . S
H359 C348 0.948 . S
O360 Zn345 2.034 . S
O360 C355 1.246 . S
O361 Zn353 2.024 . S
O361 C355 1.249 . S
H362 C344 0.948 . S
O363 Zn353 2.039 . S
O363 C367 1.251 . S
O364 Zn345 2.025 . S
O364 C367 1.254 . S
O365 C346 1.246 . S
O365 Zn353 2.034 . S
O366 Zn345 2.024 . S
O366 C346 1.249 . S
C367 O363 1.251 . S
C367 O364 1.254 . S
H368 C341 0.949 . S
H369 C343 0.950 . S
H370 C350 0.949 . S
H371 C352 0.950 . S
C372 O388 1.251 . S
C372 O390 1.254 . S
N373 C374 1.333 . S
N373 C378 1.307 . S
N373 Zn379 2.020 . S
C374 N373 1.333 . S
C374 C375 1.379 . S
C374 H392 0.952 . S
C375 C374 1.379 . S
C375 C376 1.390 . S
C375 H402 0.949 . S
C376 C375 1.390 . S
C376 C377 1.357 . S
C377 C376 1.357 . S
C377 C378 1.370 . S
C377 H403 0.950 . S
C378 N373 1.307 . S
C378 C377 1.370 . S
C378 H396 0.948 . S
Zn379 N373 2.020 . S
Zn379 O388 2.039 . S
Zn379 O394 2.034 . S
Zn379 O398 2.025 . S
Zn379 O400 2.024 . S
C380 O399 1.246 . S
C380 O400 1.249 . S
N381 C382 1.307 1_556 S
N381 C383 1.323 1_556 S
N381 Zn387 2.020 . S
C382 N381 1.307 1_554 S
C382 C386 1.370 . S
C382 H393 0.948 1_554 S
C383 N381 1.323 1_554 S
C383 C384 1.397 . S
C383 H391 0.943 1_554 S
C384 C383 1.397 . S
C384 C385 1.390 . S
C384 H404 0.949 . S
C385 C384 1.390 . S
C385 C386 1.357 . S
C386 C382 1.370 . S
C386 C385 1.357 . S
C386 H405 0.950 . S
Zn387 N381 2.020 . S
Zn387 O390 2.025 . S
Zn387 O395 2.024 . S
Zn387 O397 2.039 . S
Zn387 O399 2.034 . S
O388 C372 1.251 . S
O388 Zn379 2.039 . S
C389 O394 1.246 . S
C389 O395 1.249 . S
O390 C372 1.254 . S
O390 Zn387 2.025 . S
H391 C383 0.943 1_556 S
H392 C374 0.952 . S
H393 C382 0.948 1_556 S
O394 Zn379 2.034 . S
O394 C389 1.246 . S
O395 Zn387 2.024 . S
O395 C389 1.249 . S
H396 C378 0.948 . S
O397 Zn387 2.039 . S
O397 C401 1.251 . S
O398 Zn379 2.025 . S
O398 C401 1.254 . S
O399 C380 1.246 . S
O399 Zn387 2.034 . S
O400 Zn379 2.024 . S
O400 C380 1.249 . S
C401 O397 1.251 . S
C401 O398 1.254 . S
H402 C375 0.949 . S
H403 C377 0.950 . S
H404 C384 0.949 . S
H405 C386 0.950 . S
C406 O422 1.251 . S
C406 O424 1.254 . S
N407 C408 1.333 . S
N407 C412 1.307 . S
N407 Zn413 2.020 . S
C408 N407 1.333 . S
C408 C409 1.379 . S
C408 H426 0.952 . S
C409 C408 1.379 . S
C409 C410 1.390 . S
C409 H436 0.949 . S
C410 C409 1.390 . S
C410 C411 1.357 . S
C411 C410 1.357 . S
C411 C412 1.370 . S
C411 H437 0.950 . S
C412 N407 1.307 . S
C412 C411 1.370 . S
C412 H430 0.948 . S
Zn413 N407 2.020 . S
Zn413 O422 2.039 . S
Zn413 O428 2.034 . S
Zn413 O432 2.025 . S
Zn413 O434 2.024 . S
C414 O433 1.246 . S
C414 O434 1.249 . S
N415 C416 1.307 . S
N415 C417 1.333 1_545 S
N415 Zn421 2.020 . S
C416 N415 1.307 . S
C416 C420 1.370 . S
C416 H427 0.948 . S
C417 N415 1.333 1_565 S
C417 C418 1.379 . S
C417 H425 0.952 . S
C418 C417 1.379 . S
C418 C419 1.390 1_565 S
C418 H438 0.949 . S
C419 C418 1.390 1_545 S
C419 C420 1.357 . S
C420 C416 1.370 . S
C420 C419 1.357 . S
C420 H439 0.950 . S
Zn421 N415 2.020 . S
Zn421 O424 2.025 . S
Zn421 O429 2.024 . S
Zn421 O431 2.039 . S
Zn421 O433 2.034 . S
O422 C406 1.251 . S
O422 Zn413 2.039 . S
C423 O428 1.246 . S
C423 O429 1.249 . S
O424 C406 1.254 . S
O424 Zn421 2.025 . S
H425 C417 0.952 . S
H426 C408 0.952 . S
H427 C416 0.948 . S
O428 Zn413 2.034 . S
O428 C423 1.246 . S
O429 Zn421 2.024 . S
O429 C423 1.249 . S
H430 C412 0.948 . S
O431 Zn421 2.039 . S
O431 C435 1.251 1_545 S
O432 Zn413 2.025 . S
O432 C435 1.254 1_545 S
O433 C414 1.246 . S
O433 Zn421 2.034 . S
O434 Zn413 2.024 . S
O434 C414 1.249 . S
C435 O431 1.251 1_565 S
C435 O432 1.254 1_565 S
H436 C409 0.949 . S
H437 C411 0.950 . S
H438 C418 0.949 . S
H439 C420 0.950 . S
H440 C446 0.930 . S
H441 C450 0.930 . S
H442 C455 0.929 . S
H443 C453 0.929 . S
H444 C448 0.929 . S
H445 C454 0.929 . S
C446 H440 0.930 . S
C446 C447 1.367 . S
C446 C454 1.378 . S
C447 C446 1.367 . S
C447 C455 1.433 1_455 S
C448 H444 0.929 . S
C448 C450 1.378 . S
C448 C452 1.350 1_655 S
C449 C452 1.463 . S
C449 C454 1.350 . S
C449 N457 1.427 1_455 S
C450 H441 0.930 . S
C450 C448 1.378 . S
C450 C451 1.367 1_655 S
C451 C450 1.367 1_455 S
C451 C453 1.433 . S
C452 C448 1.350 1_455 S
C452 C449 1.463 . S
C452 N456 1.427 . S
C453 H443 0.929 . S
C453 C451 1.433 . S
C453 N456 1.384 . S
C454 H445 0.929 . S
C454 C446 1.378 . S
C454 C449 1.350 . S
C455 H442 0.929 . S
C455 C447 1.433 1_655 S
C455 N457 1.384 . S
N456 C452 1.427 . S
N456 C453 1.384 . S
N457 C449 1.427 1_655 S
N457 C455 1.384 . S
H458 C464 0.930 . S
H459 C468 0.930 . S
H460 C473 0.929 . S
H461 C471 0.929 . S
H462 C466 0.929 . S
H463 C472 0.929 . S
C464 H458 0.930 . S
C464 C465 1.367 . S
C464 C472 1.378 . S
C465 C464 1.367 . S
C465 C473 1.433 1_655 S
C466 H462 0.929 . S
C466 C468 1.378 . S
C466 C470 1.350 1_455 S
C467 C470 1.463 . S
C467 C472 1.350 . S
C467 N475 1.427 1_655 S
C468 H459 0.930 . S
C468 C466 1.378 . S
C468 C469 1.367 1_455 S
C469 C468 1.367 1_655 S
C469 C471 1.433 . S
C470 C466 1.350 1_655 S
C470 C467 1.463 . S
C470 N474 1.427 . S
C471 H461 0.929 . S
C471 C469 1.433 . S
C471 N474 1.384 . S
C472 H463 0.929 . S
C472 C464 1.378 . S
C472 C467 1.350 . S
C473 H460 0.929 . S
C473 C465 1.433 1_455 S
C473 N475 1.384 . S
N474 C470 1.427 . S
N474 C471 1.384 . S
N475 C467 1.427 1_455 S
N475 C473 1.384 . S
H476 C482 0.930 . S
H477 C486 0.930 . S
H478 C491 0.929 . S
H479 C489 0.929 . S
H480 C484 0.929 . S
H481 C490 0.929 . S
C482 H476 0.930 . S
C482 C483 1.367 . S
C482 C490 1.378 . S
C483 C482 1.367 . S
C483 C491 1.433 1_455 S
C484 H480 0.929 . S
C484 C486 1.378 . S
C484 C488 1.350 1_655 S
C485 C488 1.463 . S
C485 C490 1.350 . S
C485 N493 1.427 1_455 S
C486 H477 0.930 . S
C486 C484 1.378 . S
C486 C487 1.367 1_655 S
C487 C486 1.367 1_455 S
C487 C489 1.433 . S
C488 C484 1.350 1_455 S
C488 C485 1.463 . S
C488 N492 1.427 . S
C489 H479 0.929 . S
C489 C487 1.433 . S
C489 N492 1.384 . S
C490 H481 0.929 . S
C490 C482 1.378 . S
C490 C485 1.350 . S
C491 H478 0.929 . S
C491 C483 1.433 1_655 S
C491 N493 1.384 . S
N492 C488 1.427 . S
N492 C489 1.384 . S
N493 C485 1.427 1_655 S
N493 C491 1.384 . S
H494 C500 0.930 . S
H495 C504 0.930 . S
H496 C509 0.929 . S
H497 C507 0.929 . S
H498 C502 0.929 . S
H499 C508 0.929 . S
C500 H494 0.930 . S
C500 C501 1.367 . S
C500 C508 1.378 . S
C501 C500 1.367 . S
C501 C509 1.433 . S
C502 H498 0.929 . S
C502 C504 1.378 . S
C502 C506 1.350 . S
C503 C506 1.463 . S
C503 C508 1.350 . S
C503 N511 1.427 . S
C504 H495 0.930 . S
C504 C502 1.378 . S
C504 C505 1.367 . S
C505 C504 1.367 . S
C505 C507 1.433 . S
C506 C502 1.350 . S
C506 C503 1.463 . S
C506 N510 1.427 . S
C507 H497 0.929 . S
C507 C505 1.433 . S
C507 N510 1.384 . S
C508 H499 0.929 . S
C508 C500 1.378 . S
C508 C503 1.350 . S
C509 H496 0.929 . S
C509 C501 1.433 . S
C509 N511 1.384 . S
N510 C506 1.427 . S
N510 C507 1.384 . S
N511 C503 1.427 . S
N511 C509 1.384 . S
H512 C518 0.930 . S
H513 C522 0.930 . S
H514 C527 0.929 . S
H515 C525 0.929 . S
H516 C520 0.929 . S
H517 C526 0.929 . S
C518 H512 0.930 . S
C518 C519 1.367 . S
C518 C526 1.378 . S
C519 C518 1.367 . S
C519 C527 1.433 . S
C520 H516 0.929 . S
C520 C522 1.378 . S
C520 C524 1.350 . S
C521 C524 1.463 . S
C521 C526 1.350 . S
C521 N529 1.427 . S
C522 H513 0.930 . S
C522 C520 1.378 . S
C522 C523 1.367 . S
C523 C522 1.367 . S
C523 C525 1.433 . S
C524 C520 1.350 . S
C524 C521 1.463 . S
C524 N528 1.427 . S
C525 H515 0.929 . S
C525 C523 1.433 . S
C525 N528 1.384 . S
C526 H517 0.929 . S
C526 C518 1.378 . S
C526 C521 1.350 . S
C527 H514 0.929 . S
C527 C519 1.433 . S
C527 N529 1.384 . S
N528 C524 1.427 . S
N528 C525 1.384 . S
N529 C521 1.427 . S
N529 C527 1.384 . S
H530 C536 0.930 . S
H531 C540 0.930 . S
H532 C545 0.929 . S
H533 C543 0.929 . S
H534 C538 0.929 . S
H535 C544 0.929 . S
C536 H530 0.930 . S
C536 C537 1.367 . S
C536 C544 1.378 . S
C537 C536 1.367 . S
C537 C545 1.433 . S
C538 H534 0.929 . S
C538 C540 1.378 . S
C538 C542 1.350 . S
C539 C542 1.463 . S
C539 C544 1.350 . S
C539 N547 1.427 . S
C540 H531 0.930 . S
C540 C538 1.378 . S
C540 C541 1.367 . S
C541 C540 1.367 . S
C541 C543 1.433 . S
C542 C538 1.350 . S
C542 C539 1.463 . S
C542 N546 1.427 . S
C543 H533 0.929 . S
C543 C541 1.433 . S
C543 N546 1.384 . S
C544 H535 0.929 . S
C544 C536 1.378 . S
C544 C539 1.350 . S
C545 H532 0.929 . S
C545 C537 1.433 . S
C545 N547 1.384 . S
N546 C542 1.427 . S
N546 C543 1.384 . S
N547 C539 1.427 . S
N547 C545 1.384 . S
H548 C554 0.930 . S
H549 C558 0.930 1_565 S
H550 C563 0.929 . S
H551 C561 0.929 . S
H552 C556 0.929 1_565 S
H553 C562 0.929 . S
C554 H548 0.930 . S
C554 C555 1.367 . S
C554 C562 1.378 . S
C555 C554 1.367 . S
C555 C563 1.433 1_545 S
C556 H552 0.929 1_545 S
C556 C558 1.378 . S
C556 C560 1.350 . S
C557 C560 1.463 . S
C557 C562 1.350 . S
C557 N565 1.427 1_545 S
C558 H549 0.930 1_545 S
C558 C556 1.378 . S
C558 C559 1.367 . S
C559 C558 1.367 . S
C559 C561 1.433 . S
C560 C556 1.350 . S
C560 C557 1.463 . S
C560 N564 1.427 . S
C561 H551 0.929 . S
C561 C559 1.433 . S
C561 N564 1.384 . S
C562 H553 0.929 . S
C562 C554 1.378 . S
C562 C557 1.350 . S
C563 H550 0.929 . S
C563 C555 1.433 1_565 S
C563 N565 1.384 . S
N564 C560 1.427 . S
N564 C561 1.384 . S
N565 C557 1.427 1_565 S
N565 C563 1.384 . S
H566 C572 0.930 . S
H567 C576 0.930 . S
H568 C581 0.929 . S
H569 C579 0.929 . S
H570 C574 0.929 . S
H571 C580 0.929 . S
C572 H566 0.930 . S
C572 C573 1.367 . S
C572 C580 1.378 . S
C573 C572 1.367 . S
C573 C581 1.433 . S
C574 H570 0.929 . S
C574 C576 1.378 . S
C574 C578 1.350 . S
C575 C578 1.463 . S
C575 C580 1.350 . S
C575 N583 1.427 . S
C576 H567 0.930 . S
C576 C574 1.378 . S
C576 C577 1.367 . S
C577 C576 1.367 . S
C577 C579 1.433 . S
C578 C574 1.350 . S
C578 C575 1.463 . S
C578 N582 1.427 . S
C579 H569 0.929 . S
C579 C577 1.433 . S
C579 N582 1.384 . S
C580 H571 0.929 . S
C580 C572 1.378 . S
C580 C575 1.350 . S
C581 H568 0.929 . S
C581 C573 1.433 . S
C581 N583 1.384 . S
N582 C578 1.427 . S
N582 C579 1.384 . S
N583 C575 1.427 . S
N583 C581 1.384 . S
H584 C590 0.930 . S
H585 C594 0.930 . S
H586 C599 0.929 . S
H587 C597 0.929 . S
H588 C592 0.929 . S
H589 C598 0.929 . S
C590 H584 0.930 . S
C590 C591 1.367 . S
C590 C598 1.378 . S
C591 C590 1.367 . S
C591 C599 1.433 1_554 S
C592 H588 0.929 . S
C592 C594 1.378 . S
C592 C596 1.350 1_556 S
C593 C596 1.463 . S
C593 C598 1.350 . S
C593 N601 1.427 1_554 S
C594 H585 0.930 . S
C594 C592 1.378 . S
C594 C595 1.367 1_556 S
C595 C594 1.367 1_554 S
C595 C597 1.433 . S
C596 C592 1.350 1_554 S
C596 C593 1.463 . S
C596 N600 1.427 . S
C597 H587 0.929 . S
C597 C595 1.433 . S
C597 N600 1.384 . S
C598 H589 0.929 . S
C598 C590 1.378 . S
C598 C593 1.350 . S
C599 H586 0.929 . S
C599 C591 1.433 1_556 S
C599 N601 1.384 . S
N600 C596 1.427 . S
N600 C597 1.384 . S
N601 C593 1.427 1_556 S
N601 C599 1.384 . S
H602 C608 0.930 . S
H603 C612 0.930 . S
H604 C617 0.929 . S
H605 C615 0.929 . S
H606 C610 0.929 . S
H607 C616 0.929 . S
C608 H602 0.930 . S
C608 C609 1.367 . S
C608 C616 1.378 . S
C609 C608 1.367 . S
C609 C617 1.433 . S
C610 H606 0.929 . S
C610 C612 1.378 . S
C610 C614 1.350 . S
C611 C614 1.463 . S
C611 C616 1.350 . S
C611 N619 1.427 . S
C612 H603 0.930 . S
C612 C610 1.378 . S
C612 C613 1.367 . S
C613 C612 1.367 . S
C613 C615 1.433 . S
C614 C610 1.350 . S
C614 C611 1.463 . S
C614 N618 1.427 . S
C615 H605 0.929 . S
C615 C613 1.433 . S
C615 N618 1.384 . S
C616 H607 0.929 . S
C616 C608 1.378 . S
C616 C611 1.350 . S
C617 H604 0.929 . S
C617 C609 1.433 . S
C617 N619 1.384 . S
N618 C614 1.427 . S
N618 C615 1.384 . S
N619 C611 1.427 . S
N619 C617 1.384 . S
H620 C626 0.930 . S
H621 C630 0.930 . S
H622 C635 0.929 . S
H623 C633 0.929 . S
H624 C628 0.929 . S
H625 C634 0.929 . S
C626 H620 0.930 . S
C626 C627 1.367 . S
C626 C634 1.378 . S
C627 C626 1.367 . S
C627 C635 1.433 . S
C628 H624 0.929 . S
C628 C630 1.378 . S
C628 C632 1.350 . S
C629 C632 1.463 . S
C629 C634 1.350 . S
C629 N637 1.427 . S
C630 H621 0.930 . S
C630 C628 1.378 . S
C630 C631 1.367 . S
C631 C630 1.367 . S
C631 C633 1.433 . S
C632 C628 1.350 . S
C632 C629 1.463 . S
C632 N636 1.427 . S
C633 H623 0.929 . S
C633 C631 1.433 . S
C633 N636 1.384 . S
C634 H625 0.929 . S
C634 C626 1.378 . S
C634 C629 1.350 . S
C635 H622 0.929 . S
C635 C627 1.433 . S
C635 N637 1.384 . S
N636 C632 1.427 . S
N636 C633 1.384 . S
N637 C629 1.427 . S
N637 C635 1.384 . S
H638 C644 0.930 . S
H639 C648 0.930 . S
H640 C653 0.929 . S
H641 C651 0.929 . S
H642 C646 0.929 . S
H643 C652 0.929 . S
C644 H638 0.930 . S
C644 C645 1.367 . S
C644 C652 1.378 . S
C645 C644 1.367 . S
C645 C653 1.433 . S
C646 H642 0.929 . S
C646 C648 1.378 . S
C646 C650 1.350 . S
C647 C650 1.463 . S
C647 C652 1.350 . S
C647 N655 1.427 . S
C648 H639 0.930 . S
C648 C646 1.378 . S
C648 C649 1.367 . S
C649 C648 1.367 . S
C649 C651 1.433 . S
C650 C646 1.350 . S
C650 C647 1.463 . S
C650 N654 1.427 . S
C651 H641 0.929 . S
C651 C649 1.433 . S
C651 N654 1.384 . S
C652 H643 0.929 . S
C652 C644 1.378 . S
C652 C647 1.350 . S
C653 H640 0.929 . S
C653 C645 1.433 . S
C653 N655 1.384 . S
N654 C650 1.427 . S
N654 C651 1.384 . S
N655 C647 1.427 . S
N655 C653 1.384 . S
H656 C662 0.930 . S
H657 C666 0.930 . S
H658 C671 0.929 . S
H659 C669 0.929 . S
H660 C664 0.929 . S
H661 C670 0.929 . S
C662 H656 0.930 . S
C662 C663 1.367 . S
C662 C670 1.378 . S
C663 C662 1.367 . S
C663 C671 1.433 . S
C664 H660 0.929 . S
C664 C666 1.378 . S
C664 C668 1.350 . S
C665 C668 1.463 . S
C665 C670 1.350 . S
C665 N673 1.427 . S
C666 H657 0.930 . S
C666 C664 1.378 . S
C666 C667 1.367 . S
C667 C666 1.367 . S
C667 C669 1.433 . S
C668 C664 1.350 . S
C668 C665 1.463 . S
C668 N672 1.427 . S
C669 H659 0.929 . S
C669 C667 1.433 . S
C669 N672 1.384 . S
C670 H661 0.929 . S
C670 C662 1.378 . S
C670 C665 1.350 . S
C671 H658 0.929 . S
C671 C663 1.433 . S
C671 N673 1.384 . S
N672 C668 1.427 . S
N672 C669 1.384 . S
N673 C665 1.427 . S
N673 C671 1.384 . S
H674 C680 0.930 . S
H675 C684 0.930 . S
H676 C689 0.929 . S
H677 C687 0.929 . S
H678 C682 0.929 . S
H679 C688 0.929 . S
C680 H674 0.930 . S
C680 C681 1.367 . S
C680 C688 1.378 . S
C681 C680 1.367 . S
C681 C689 1.433 . S
C682 H678 0.929 . S
C682 C684 1.378 . S
C682 C686 1.350 . S
C683 C686 1.463 . S
C683 C688 1.350 . S
C683 N691 1.427 . S
C684 H675 0.930 . S
C684 C682 1.378 . S
C684 C685 1.367 . S
C685 C684 1.367 . S
C685 C687 1.433 . S
C686 C682 1.350 . S
C686 C683 1.463 . S
C686 N690 1.427 . S
C687 H677 0.929 . S
C687 C685 1.433 . S
C687 N690 1.384 . S
C688 H679 0.929 . S
C688 C680 1.378 . S
C688 C683 1.350 . S
C689 H676 0.929 . S
C689 C681 1.433 . S
C689 N691 1.384 . S
N690 C686 1.427 . S
N690 C687 1.384 . S
N691 C683 1.427 . S
N691 C689 1.384 . S
H692 C698 0.930 . S
H693 C702 0.930 . S
H694 C707 0.929 . S
H695 C705 0.929 . S
H696 C700 0.929 . S
H697 C706 0.929 . S
C698 H692 0.930 . S
C698 C699 1.367 . S
C698 C706 1.378 . S
C699 C698 1.367 . S
C699 C707 1.433 . S
C700 H696 0.929 . S
C700 C702 1.378 . S
C700 C704 1.350 . S
C701 C704 1.463 . S
C701 C706 1.350 . S
C701 N709 1.427 . S
C702 H693 0.930 . S
C702 C700 1.378 . S
C702 C703 1.367 . S
C703 C702 1.367 . S
C703 C705 1.433 . S
C704 C700 1.350 . S
C704 C701 1.463 . S
C704 N708 1.427 . S
C705 H695 0.929 . S
C705 C703 1.433 . S
C705 N708 1.384 . S
C706 H697 0.929 . S
C706 C698 1.378 . S
C706 C701 1.350 . S
C707 H694 0.929 . S
C707 C699 1.433 . S
C707 N709 1.384 . S
N708 C704 1.427 . S
N708 C705 1.384 . S
N709 C701 1.427 . S
N709 C707 1.384 . S
H710 C716 0.930 . S
H711 C720 0.930 . S
H712 C725 0.929 . S
H713 C723 0.929 . S
H714 C718 0.929 . S
H715 C724 0.929 . S
C716 H710 0.930 . S
C716 C717 1.367 . S
C716 C724 1.378 . S
C717 C716 1.367 . S
C717 C725 1.433 . S
C718 H714 0.929 . S
C718 C720 1.378 . S
C718 C722 1.350 . S
C719 C722 1.463 . S
C719 C724 1.350 . S
C719 N727 1.427 . S
C720 H711 0.930 . S
C720 C718 1.378 . S
C720 C721 1.367 . S
C721 C720 1.367 . S
C721 C723 1.433 . S
C722 C718 1.350 . S
C722 C719 1.463 . S
C722 N726 1.427 . S
C723 H713 0.929 . S
C723 C721 1.433 . S
C723 N726 1.384 . S
C724 H715 0.929 . S
C724 C716 1.378 . S
C724 C719 1.350 . S
C725 H712 0.929 . S
C725 C717 1.433 . S
C725 N727 1.384 . S
N726 C722 1.427 . S
N726 C723 1.384 . S
N727 C719 1.427 . S
N727 C725 1.384 . S
H728 C734 0.930 . S
H729 C738 0.930 . S
H730 C743 0.929 . S
H731 C741 0.929 . S
H732 C736 0.929 . S
H733 C742 0.929 . S
C734 H728 0.930 . S
C734 C735 1.367 . S
C734 C742 1.378 . S
C735 C734 1.367 . S
C735 C743 1.433 . S
C736 H732 0.929 . S
C736 C738 1.378 . S
C736 C740 1.350 . S
C737 C740 1.463 . S
C737 C742 1.350 . S
C737 N745 1.427 . S
C738 H729 0.930 . S
C738 C736 1.378 . S
C738 C739 1.367 . S
C739 C738 1.367 . S
C739 C741 1.433 . S
C740 C736 1.350 . S
C740 C737 1.463 . S
C740 N744 1.427 . S
C741 H731 0.929 . S
C741 C739 1.433 . S
C741 N744 1.384 . S
C742 H733 0.929 . S
C742 C734 1.378 . S
C742 C737 1.350 . S
C743 H730 0.929 . S
C743 C735 1.433 . S
C743 N745 1.384 . S
N744 C740 1.427 . S
N744 C741 1.384 . S
N745 C737 1.427 . S
N745 C743 1.384 . S
H746 C752 0.930 . S
H747 C756 0.930 . S
H748 C761 0.929 . S
H749 C759 0.929 . S
H750 C754 0.929 . S
H751 C760 0.929 . S
C752 H746 0.930 . S
C752 C753 1.367 . S
C752 C760 1.378 . S
C753 C752 1.367 . S
C753 C761 1.433 1_565 S
C754 H750 0.929 . S
C754 C756 1.378 . S
C754 C758 1.350 . S
C755 C758 1.463 1_565 S
C755 C760 1.350 . S
C755 N763 1.427 1_565 S
C756 H747 0.930 . S
C756 C754 1.378 . S
C756 C757 1.367 . S
C757 C756 1.367 . S
C757 C759 1.433 1_545 S
C758 C754 1.350 . S
C758 C755 1.463 1_545 S
C758 N762 1.427 1_545 S
C759 H749 0.929 . S
C759 C757 1.433 1_565 S
C759 N762 1.384 . S
C760 H751 0.929 . S
C760 C752 1.378 . S
C760 C755 1.350 . S
C761 H748 0.929 . S
C761 C753 1.433 1_545 S
C761 N763 1.384 . S
N762 C758 1.427 1_565 S
N762 C759 1.384 . S
N763 C755 1.427 1_545 S
N763 C761 1.384 . S
H764 C770 0.930 . S
H765 C774 0.930 . S
H766 C779 0.929 . S
H767 C777 0.929 . S
H768 C772 0.929 . S
H769 C778 0.929 . S
C770 H764 0.930 . S
C770 C771 1.367 . S
C770 C778 1.378 . S
C771 C770 1.367 . S
C771 C779 1.433 . S
C772 H768 0.929 . S
C772 C774 1.378 . S
C772 C776 1.350 . S
C773 C776 1.463 . S
C773 C778 1.350 . S
C773 N781 1.427 . S
C774 H765 0.930 . S
C774 C772 1.378 . S
C774 C775 1.367 . S
C775 C774 1.367 . S
C775 C777 1.433 . S
C776 C772 1.350 . S
C776 C773 1.463 . S
C776 N780 1.427 . S
C777 H767 0.929 . S
C777 C775 1.433 . S
C777 N780 1.384 . S
C778 H769 0.929 . S
C778 C770 1.378 . S
C778 C773 1.350 . S
C779 H766 0.929 . S
C779 C771 1.433 . S
C779 N781 1.384 . S
N780 C776 1.427 . S
N780 C777 1.384 . S
N781 C773 1.427 . S
N781 C779 1.384 . S
H782 C788 0.930 . S
H783 C792 0.930 . S
H784 C797 0.929 . S
H785 C795 0.929 . S
H786 C790 0.929 . S
H787 C796 0.929 . S
C788 H782 0.930 . S
C788 C789 1.367 . S
C788 C796 1.378 . S
C789 C788 1.367 . S
C789 C797 1.433 1_545 S
C790 H786 0.929 . S
C790 C792 1.378 . S
C790 C794 1.350 1_565 S
C791 C794 1.463 . S
C791 C796 1.350 . S
C791 N799 1.427 1_545 S
C792 H783 0.930 . S
C792 C790 1.378 . S
C792 C793 1.367 . S
C793 C792 1.367 . S
C793 C795 1.433 1_565 S
C794 C790 1.350 1_545 S
C794 C791 1.463 . S
C794 N798 1.427 . S
C795 H785 0.929 . S
C795 C793 1.433 1_545 S
C795 N798 1.384 . S
C796 H787 0.929 . S
C796 C788 1.378 . S
C796 C791 1.350 . S
C797 H784 0.929 . S
C797 C789 1.433 1_565 S
C797 N799 1.384 . S
N798 C794 1.427 . S
N798 C795 1.384 . S
N799 C791 1.427 1_565 S
N799 C797 1.384 . S
H800 C806 0.930 . S
H801 C810 0.930 . S
H802 C815 0.929 . S
H803 C813 0.929 . S
H804 C808 0.929 . S
H805 C814 0.929 . S
C806 H800 0.930 . S
C806 C807 1.367 . S
C806 C814 1.378 . S
C807 C806 1.367 . S
C807 C815 1.433 . S
C808 H804 0.929 . S
C808 C810 1.378 . S
C808 C812 1.350 . S
C809 C812 1.463 . S
C809 C814 1.350 . S
C809 N817 1.427 . S
C810 H801 0.930 . S
C810 C808 1.378 . S
C810 C811 1.367 . S
C811 C810 1.367 . S
C811 C813 1.433 . S
C812 C808 1.350 . S
C812 C809 1.463 . S
C812 N816 1.427 . S
C813 H803 0.929 . S
C813 C811 1.433 . S
C813 N816 1.384 . S
C814 H805 0.929 . S
C814 C806 1.378 . S
C814 C809 1.350 . S
C815 H802 0.929 . S
C815 C807 1.433 . S
C815 N817 1.384 . S
N816 C812 1.427 . S
N816 C813 1.384 . S
N817 C809 1.427 . S
N817 C815 1.384 . S
H818 C824 0.930 . S
H819 C828 0.930 . S
H820 C833 0.929 . S
H821 C831 0.929 . S
H822 C826 0.929 . S
H823 C832 0.929 . S
C824 H818 0.930 . S
C824 C825 1.367 1_554 S
C824 C832 1.378 . S
C825 C824 1.367 1_556 S
C825 C833 1.433 . S
C826 H822 0.929 . S
C826 C828 1.378 . S
C826 C830 1.350 . S
C827 C830 1.463 . S
C827 C832 1.350 1_556 S
C827 N835 1.427 . S
C828 H819 0.930 . S
C828 C826 1.378 . S
C828 C829 1.367 . S
C829 C828 1.367 . S
C829 C831 1.433 1_556 S
C830 C826 1.350 . S
C830 C827 1.463 . S
C830 N834 1.427 1_556 S
C831 H821 0.929 . S
C831 C829 1.433 1_554 S
C831 N834 1.384 . S
C832 H823 0.929 . S
C832 C824 1.378 . S
C832 C827 1.350 1_554 S
C833 H820 0.929 . S
C833 C825 1.433 . S
C833 N835 1.384 . S
N834 C830 1.427 1_554 S
N834 C831 1.384 . S
N835 C827 1.427 . S
N835 C833 1.384 . S
H836 C842 0.930 . S
H837 C846 0.930 . S
H838 C851 0.929 . S
H839 C849 0.929 . S
H840 C844 0.929 . S
H841 C850 0.929 . S
C842 H836 0.930 . S
C842 C843 1.367 . S
C842 C850 1.378 . S
C843 C842 1.367 . S
C843 C851 1.433 . S
C844 H840 0.929 . S
C844 C846 1.378 . S
C844 C848 1.350 . S
C845 C848 1.463 . S
C845 C850 1.350 . S
C845 N853 1.427 . S
C846 H837 0.930 . S
C846 C844 1.378 . S
C846 C847 1.367 . S
C847 C846 1.367 . S
C847 C849 1.433 . S
C848 C844 1.350 . S
C848 C845 1.463 . S
C848 N852 1.427 . S
C849 H839 0.929 . S
C849 C847 1.433 . S
C849 N852 1.384 . S
C850 H841 0.929 . S
C850 C842 1.378 . S
C850 C845 1.350 . S
C851 H838 0.929 . S
C851 C843 1.433 . S
C851 N853 1.384 . S
N852 C848 1.427 . S
N852 C849 1.384 . S
N853 C845 1.427 . S
N853 C851 1.384 . S
H854 C860 0.930 1_556 S
H855 C864 0.930 . S
H856 C869 0.929 . S
H857 C867 0.922 1_556 S
H858 C862 0.929 . S
H859 C868 0.929 1_556 S
C860 H854 0.930 1_554 S
C860 C861 1.367 . S
C860 C868 1.378 . S
C861 C860 1.367 . S
C861 C869 1.433 . S
C862 H858 0.929 . S
C862 C864 1.378 . S
C862 C866 1.350 . S
C863 C866 1.463 . S
C863 C868 1.350 . S
C863 N871 1.427 . S
C864 H855 0.930 . S
C864 C862 1.378 . S
C864 C865 1.367 . S
C865 C864 1.367 . S
C865 C867 1.433 . S
C866 C862 1.350 . S
C866 C863 1.463 . S
C866 N870 1.427 . S
C867 H857 0.922 1_554 S
C867 C865 1.433 . S
C867 N870 1.384 . S
C868 H859 0.929 1_554 S
C868 C860 1.378 . S
C868 C863 1.350 . S
C869 H856 0.929 . S
C869 C861 1.433 . S
C869 N871 1.384 . S
N870 C866 1.427 . S
N870 C867 1.384 . S
N871 C863 1.427 . S
N871 C869 1.384 . S
H872 C878 0.930 . S
H873 C882 0.930 . S
H874 C887 0.929 . S
H875 C885 0.929 . S
H876 C880 0.929 . S
H877 C886 0.929 . S
C878 H872 0.930 . S
C878 C879 1.367 1_655 S
C878 C886 1.378 . S
C879 C878 1.367 1_455 S
C879 C887 1.433 . S
C880 H876 0.929 . S
C880 C882 1.378 . S
C880 C884 1.350 . S
C881 C884 1.463 . S
C881 C886 1.350 1_455 S
C881 N889 1.427 . S
C882 H873 0.930 . S
C882 C880 1.378 . S
C882 C883 1.347 1_455 S
C883 C882 1.347 1_655 S
C883 C885 1.449 . S
C884 C880 1.350 . S
C884 C881 1.463 . S
C884 N888 1.427 1_455 S
C885 H875 0.929 . S
C885 C883 1.449 . S
C885 N888 1.384 . S
C886 H877 0.929 . S
C886 C878 1.378 . S
C886 C881 1.350 1_655 S
C887 H874 0.929 . S
C887 C879 1.433 . S
C887 N889 1.384 . S
N888 C884 1.427 1_655 S
N888 C885 1.384 . S
N889 C881 1.427 . S
N889 C887 1.384 . S
H890 C896 0.930 . S
H891 C900 0.930 . S
H892 C905 0.929 . S
H893 C903 0.929 . S
H894 C898 0.929 . S
H895 C904 0.929 . S
C896 H890 0.930 . S
C896 C897 1.367 . S
C896 C904 1.378 . S
C897 C896 1.367 . S
C897 C905 1.433 1_655 S
C898 H894 0.929 . S
C898 C900 1.378 . S
C898 C902 1.350 . S
C899 C902 1.463 1_655 S
C899 C904 1.350 . S
C899 N907 1.427 1_655 S
C900 H891 0.930 . S
C900 C898 1.378 . S
C900 C901 1.367 . S
C901 C900 1.367 . S
C901 C903 1.433 1_455 S
C902 C898 1.350 . S
C902 C899 1.463 1_455 S
C902 N906 1.427 1_455 S
C903 H893 0.929 . S
C903 C901 1.433 1_655 S
C903 N906 1.384 . S
C904 H895 0.929 . S
C904 C896 1.378 . S
C904 C899 1.350 . S
C905 H892 0.929 . S
C905 C897 1.433 1_455 S
C905 N907 1.384 . S
N906 C902 1.427 1_655 S
N906 C903 1.384 . S
N907 C899 1.427 1_455 S
N907 C905 1.384 . S
H908 C914 0.930 . S
H909 C918 0.930 . S
H910 C923 0.929 . S
H911 C921 0.929 . S
H912 C916 0.929 . S
H913 C922 0.929 . S
C914 H908 0.930 . S
C914 C915 1.367 1_655 S
C914 C922 1.378 . S
C915 C914 1.367 1_455 S
C915 C923 1.433 . S
C916 H912 0.929 . S
C916 C918 1.378 . S
C916 C920 1.350 . S
C917 C920 1.463 . S
C917 C922 1.350 1_455 S
C917 N925 1.427 . S
C918 H909 0.930 . S
C918 C916 1.378 . S
C918 C919 1.367 . S
C919 C918 1.367 . S
C919 C921 1.433 1_455 S
C920 C916 1.350 . S
C920 C917 1.463 . S
C920 N924 1.427 1_455 S
C921 H911 0.929 . S
C921 C919 1.433 1_655 S
C921 N924 1.384 . S
C922 H913 0.929 . S
C922 C914 1.378 . S
C922 C917 1.350 1_655 S
C923 H910 0.929 . S
C923 C915 1.433 . S
C923 N925 1.384 . S
N924 C920 1.427 1_655 S
N924 C921 1.384 . S
N925 C917 1.427 . S
N925 C923 1.384 . S
H926 C932 0.930 . S
H927 C936 0.930 1_455 S
H928 C941 0.929 . S
H929 C939 0.929 . S
H930 C934 0.929 1_455 S
H931 C940 0.929 . S
C932 H926 0.930 . S
C932 C933 1.367 . S
C932 C940 1.378 . S
C933 C932 1.367 . S
C933 C941 1.433 1_655 S
C934 H930 0.929 1_655 S
C934 C936 1.378 . S
C934 C938 1.350 . S
C935 C938 1.463 . S
C935 C940 1.350 . S
C935 N943 1.422 1_655 S
C936 H927 0.930 1_655 S
C936 C934 1.378 . S
C936 C937 1.367 . S
C937 C936 1.367 . S
C937 C939 1.433 . S
C938 C934 1.350 . S
C938 C935 1.463 . S
C938 N942 1.427 . S
C939 H929 0.929 . S
C939 C937 1.433 . S
C939 N942 1.384 . S
C940 H931 0.929 . S
C940 C932 1.378 . S
C940 C935 1.350 . S
C941 H928 0.929 . S
C941 C933 1.433 1_455 S
C941 N943 1.383 . S
N942 C938 1.427 . S
N942 C939 1.384 . S
N943 C935 1.422 1_455 S
N943 C941 1.383 . S
H944 C950 0.930 . S
H945 C954 0.930 . S
H946 C959 0.929 . S
H947 C957 0.929 . S
H948 C952 0.929 . S
H949 C958 0.929 . S
C950 H944 0.930 . S
C950 C951 1.367 1_565 S
C950 C958 1.378 . S
C951 C950 1.367 1_545 S
C951 C959 1.433 . S
C952 H948 0.929 . S
C952 C954 1.378 . S
C952 C956 1.350 . S
C953 C956 1.463 . S
C953 C958 1.350 1_545 S
C953 N961 1.427 . S
C954 H945 0.930 . S
C954 C952 1.378 . S
C954 C955 1.367 . S
C955 C954 1.367 . S
C955 C957 1.433 1_545 S
C956 C952 1.350 . S
C956 C953 1.463 . S
C956 N960 1.427 1_545 S
C957 H947 0.929 . S
C957 C955 1.433 1_565 S
C957 N960 1.384 . S
C958 H949 0.929 . S
C958 C950 1.378 . S
C958 C953 1.350 1_565 S
C959 H946 0.929 . S
C959 C951 1.433 . S
C959 N961 1.384 . S
N960 C956 1.427 1_565 S
N960 C957 1.384 . S
N961 C953 1.427 . S
N961 C959 1.384 . S
H962 C968 0.930 . S
H963 C972 0.930 . S
H964 C977 0.929 . S
H965 C975 0.929 . S
H966 C970 0.929 . S
H967 C976 0.929 . S
C968 H962 0.930 . S
C968 C969 1.367 . S
C968 C976 1.378 . S
C969 C968 1.367 . S
C969 C977 1.433 . S
C970 H966 0.929 . S
C970 C972 1.378 . S
C970 C974 1.350 . S
C971 C974 1.463 . S
C971 C976 1.350 . S
C971 N979 1.427 . S
C972 H963 0.930 . S
C972 C970 1.378 . S
C972 C973 1.367 . S
C973 C972 1.367 . S
C973 C975 1.433 . S
C974 C970 1.350 . S
C974 C971 1.463 . S
C974 N978 1.427 . S
C975 H965 0.929 . S
C975 C973 1.433 . S
C975 N978 1.384 . S
C976 H967 0.929 . S
C976 C968 1.378 . S
C976 C971 1.350 . S
C977 H964 0.929 . S
C977 C969 1.433 . S
C977 N979 1.384 . S
N978 C974 1.427 . S
N978 C975 1.384 . S
N979 C971 1.427 . S
N979 C977 1.384 . S
H980 C986 0.930 . S
H981 C990 0.930 . S
H982 C995 0.929 . S
H983 C993 0.929 . S
H984 C988 0.929 . S
H985 C994 0.929 . S
C986 H980 0.930 . S
C986 C987 1.367 1_545 S
C986 C994 1.378 . S
C987 C986 1.367 1_565 S
C987 C995 1.433 . S
C988 H984 0.929 . S
C988 C990 1.378 . S
C988 C992 1.350 . S
C989 C992 1.463 . S
C989 C994 1.350 1_565 S
C989 N997 1.427 . S
C990 H981 0.930 . S
C990 C988 1.378 . S
C990 C991 1.367 . S
C991 C990 1.367 . S
C991 C993 1.433 . S
C992 C988 1.350 . S
C992 C989 1.463 . S
C992 N996 1.427 . S
C993 H983 0.929 . S
C993 C991 1.433 . S
C993 N996 1.384 . S
C994 H985 0.929 . S
C994 C986 1.378 . S
C994 C989 1.350 1_545 S
C995 H982 0.929 . S
C995 C987 1.433 . S
C995 N997 1.384 . S
N996 C992 1.427 . S
N996 C993 1.384 . S
N997 C989 1.427 . S
N997 C995 1.384 . S
H998 C1004 0.930 . S
H999 C1008 0.930 . S
H1000 C1013 0.929 . S
H1001 C1011 0.929 . S
H1002 C1006 0.929 . S
H1003 C1012 0.929 . S
C1004 H998 0.930 . S
C1004 C1005 1.367 . S
C1004 C1012 1.378 . S
C1005 C1004 1.367 . S
C1005 C1013 1.433 . S
C1006 H1002 0.929 . S
C1006 C1008 1.378 . S
C1006 C1010 1.350 . S
C1007 C1010 1.463 . S
C1007 C1012 1.350 . S
C1007 N1015 1.427 . S
C1008 H999 0.930 . S
C1008 C1006 1.378 . S
C1008 C1009 1.367 . S
C1009 C1008 1.367 . S
C1009 C1011 1.433 . S
C1010 C1006 1.350 . S
C1010 C1007 1.463 . S
C1010 N1014 1.427 . S
C1011 H1001 0.929 . S
C1011 C1009 1.433 . S
C1011 N1014 1.384 . S
C1012 H1003 0.929 . S
C1012 C1004 1.378 . S
C1012 C1007 1.350 . S
C1013 H1000 0.929 . S
C1013 C1005 1.433 . S
C1013 N1015 1.384 . S
N1014 C1010 1.427 . S
N1014 C1011 1.384 . S
N1015 C1007 1.427 . S
N1015 C1013 1.384 . S
H1016 C1022 0.930 . S
H1017 C1026 0.930 . S
H1018 C1031 0.929 . S
H1019 C1029 0.929 1_556 S
H1020 C1024 0.929 . S
H1021 C1030 0.929 . S
C1022 H1016 0.930 . S
C1022 C1023 1.367 1_556 S
C1022 C1030 1.378 . S
C1023 C1022 1.367 1_554 S
C1023 C1031 1.433 . S
C1024 H1020 0.929 . S
C1024 C1026 1.378 . S
C1024 C1028 1.350 . S
C1025 C1028 1.463 . S
C1025 C1030 1.350 1_554 S
C1025 N1033 1.427 . S
C1026 H1017 0.930 . S
C1026 C1024 1.378 . S
C1026 C1027 1.367 . S
C1027 C1026 1.367 . S
C1027 C1029 1.433 . S
C1028 C1024 1.350 . S
C1028 C1025 1.463 . S
C1028 N1032 1.427 . S
C1029 H1019 0.929 1_554 S
C1029 C1027 1.433 . S
C1029 N1032 1.384 . S
C1030 H1021 0.929 . S
C1030 C1022 1.378 . S
C1030 C1025 1.350 1_556 S
C1031 H1018 0.929 . S
C1031 C1023 1.433 . S
C1031 N1033 1.384 . S
N1032 C1028 1.427 . S
N1032 C1029 1.384 . S
N1033 C1025 1.427 . S
N1033 C1031 1.384 . S
H1034 C1040 0.930 . S
H1035 C1044 0.930 . S
H1036 C1049 0.929 . S
H1037 C1047 0.929 . S
H1038 C1042 0.929 . S
H1039 C1048 0.929 . S
C1040 H1034 0.930 . S
C1040 C1041 1.367 . S
C1040 C1048 1.378 . S
C1041 C1040 1.367 . S
C1041 C1049 1.433 . S
C1042 H1038 0.929 . S
C1042 C1044 1.378 . S
C1042 C1046 1.350 . S
C1043 C1046 1.463 . S
C1043 C1048 1.350 . S
C1043 N1051 1.427 . S
C1044 H1035 0.930 . S
C1044 C1042 1.378 . S
C1044 C1045 1.367 . S
C1045 C1044 1.367 . S
C1045 C1047 1.433 . S
C1046 C1042 1.350 . S
C1046 C1043 1.463 . S
C1046 N1050 1.427 . S
C1047 H1037 0.929 . S
C1047 C1045 1.433 . S
C1047 N1050 1.384 . S
C1048 H1039 0.929 . S
C1048 C1040 1.378 . S
C1048 C1043 1.350 . S
C1049 H1036 0.929 . S
C1049 C1041 1.433 . S
C1049 N1051 1.384 . S
N1050 C1046 1.427 . S
N1050 C1047 1.384 . S
N1051 C1043 1.427 . S
N1051 C1049 1.384 . S
H1052 C1058 0.930 . S
H1053 C1062 0.930 . S
H1054 C1067 0.929 . S
H1055 C1065 0.929 . S
H1056 C1060 0.929 . S
H1057 C1066 0.929 . S
C1058 H1052 0.930 . S
C1058 C1059 1.367 . S
C1058 C1066 1.378 . S
C1059 C1058 1.367 . S
C1059 C1067 1.433 . S
C1060 H1056 0.929 . S
C1060 C1062 1.378 . S
C1060 C1064 1.350 . S
C1061 C1064 1.463 . S
C1061 C1066 1.350 . S
C1061 N1069 1.427 . S
C1062 H1053 0.930 . S
C1062 C1060 1.378 . S
C1062 C1063 1.367 . S
C1063 C1062 1.367 . S
C1063 C1065 1.433 . S
C1064 C1060 1.350 . S
C1064 C1061 1.463 . S
C1064 N1068 1.427 . S
C1065 H1055 0.929 . S
C1065 C1063 1.433 . S
C1065 N1068 1.384 . S
C1066 H1057 0.929 . S
C1066 C1058 1.378 . S
C1066 C1061 1.350 . S
C1067 H1054 0.929 . S
C1067 C1059 1.433 . S
C1067 N1069 1.384 . S
N1068 C1064 1.427 . S
N1068 C1065 1.384 . S
N1069 C1061 1.427 . S
N1069 C1067 1.384 . S
H1070 C1076 0.930 . S
H1071 C1080 0.930 . S
H1072 C1085 0.929 . S
H1073 C1083 0.929 . S
H1074 C1078 0.929 . S
H1075 C1084 0.929 . S
C1076 H1070 0.930 . S
C1076 C1077 1.367 . S
C1076 C1084 1.378 . S
C1077 C1076 1.367 . S
C1077 C1085 1.433 . S
C1078 H1074 0.929 . S
C1078 C1080 1.378 . S
C1078 C1082 1.350 . S
C1079 C1082 1.463 . S
C1079 C1084 1.350 . S
C1079 N1087 1.427 . S
C1080 H1071 0.930 . S
C1080 C1078 1.378 . S
C1080 C1081 1.367 . S
C1081 C1080 1.367 . S
C1081 C1083 1.433 . S
C1082 C1078 1.350 . S
C1082 C1079 1.463 . S
C1082 N1086 1.427 . S
C1083 H1073 0.929 . S
C1083 C1081 1.433 . S
C1083 N1086 1.384 . S
C1084 H1075 0.929 . S
C1084 C1076 1.378 . S
C1084 C1079 1.350 . S
C1085 H1072 0.929 . S
C1085 C1077 1.433 . S
C1085 N1087 1.384 . S
N1086 C1082 1.427 . S
N1086 C1083 1.384 . S
N1087 C1079 1.427 . S
N1087 C1085 1.384 . S
H1088 C1094 0.930 . S
H1089 C1098 0.930 . S
H1090 C1103 0.929 . S
H1091 C1101 0.929 . S
H1092 C1096 0.929 . S
H1093 C1102 0.929 . S
C1094 H1088 0.930 . S
C1094 C1095 1.367 . S
C1094 C1102 1.378 . S
C1095 C1094 1.367 . S
C1095 C1103 1.433 . S
C1096 H1092 0.929 . S
C1096 C1098 1.378 . S
C1096 C1100 1.350 . S
C1097 C1100 1.463 . S
C1097 C1102 1.350 . S
C1097 N1105 1.427 . S
C1098 H1089 0.930 . S
C1098 C1096 1.378 . S
C1098 C1099 1.367 . S
C1099 C1098 1.367 . S
C1099 C1101 1.433 . S
C1100 C1096 1.350 . S
C1100 C1097 1.463 . S
C1100 N1104 1.427 . S
C1101 H1091 0.929 . S
C1101 C1099 1.433 . S
C1101 N1104 1.384 . S
C1102 H1093 0.929 . S
C1102 C1094 1.378 . S
C1102 C1097 1.350 . S
C1103 H1090 0.929 . S
C1103 C1095 1.433 . S
C1103 N1105 1.384 . S
N1104 C1100 1.427 . S
N1104 C1101 1.384 . S
N1105 C1097 1.427 . S
N1105 C1103 1.384 . S
H1106 C1112 0.930 . S
H1107 C1116 0.930 . S
H1108 C1121 0.929 . S
H1109 C1119 0.929 . S
H1110 C1114 0.929 . S
H1111 C1120 0.929 . S
C1112 H1106 0.930 . S
C1112 C1113 1.367 . S
C1112 C1120 1.378 . S
C1113 C1112 1.367 . S
C1113 C1121 1.433 . S
C1114 H1110 0.929 . S
C1114 C1116 1.378 . S
C1114 C1118 1.350 . S
C1115 C1118 1.463 . S
C1115 C1120 1.350 . S
C1115 N1123 1.427 . S
C1116 H1107 0.930 . S
C1116 C1114 1.378 . S
C1116 C1117 1.367 . S
C1117 C1116 1.367 . S
C1117 C1119 1.433 . S
C1118 C1114 1.350 . S
C1118 C1115 1.463 . S
C1118 N1122 1.427 . S
C1119 H1109 0.929 . S
C1119 C1117 1.433 . S
C1119 N1122 1.384 . S
C1120 H1111 0.929 . S
C1120 C1112 1.378 . S
C1120 C1115 1.350 . S
C1121 H1108 0.929 . S
C1121 C1113 1.433 . S
C1121 N1123 1.384 . S
N1122 C1118 1.427 . S
N1122 C1119 1.384 . S
N1123 C1115 1.427 . S
N1123 C1121 1.384 . S
H1124 C1130 0.930 . S
H1125 C1134 0.930 . S
H1126 C1139 0.929 . S
H1127 C1137 0.929 . S
H1128 C1132 0.929 . S
H1129 C1138 0.929 . S
C1130 H1124 0.930 . S
C1130 C1131 1.367 . S
C1130 C1138 1.378 . S
C1131 C1130 1.367 . S
C1131 C1139 1.433 . S
C1132 H1128 0.929 . S
C1132 C1134 1.378 . S
C1132 C1136 1.350 . S
C1133 C1136 1.463 . S
C1133 C1138 1.350 . S
C1133 N1141 1.427 . S
C1134 H1125 0.930 . S
C1134 C1132 1.378 . S
C1134 C1135 1.367 . S
C1135 C1134 1.367 . S
C1135 C1137 1.433 . S
C1136 C1132 1.350 . S
C1136 C1133 1.463 . S
C1136 N1140 1.427 . S
C1137 H1127 0.929 . S
C1137 C1135 1.433 . S
C1137 N1140 1.384 . S
C1138 H1129 0.929 . S
C1138 C1130 1.378 . S
C1138 C1133 1.350 . S
C1139 H1126 0.929 . S
C1139 C1131 1.433 . S
C1139 N1141 1.384 . S
N1140 C1136 1.427 . S
N1140 C1137 1.384 . S
N1141 C1133 1.427 . S
N1141 C1139 1.384 . S
H1142 C1148 0.930 . S
H1143 C1152 0.930 . S
H1144 C1157 0.929 . S
H1145 C1155 0.929 . S
H1146 C1150 0.929 . S
H1147 C1156 0.929 . S
C1148 H1142 0.930 . S
C1148 C1149 1.367 . S
C1148 C1156 1.378 . S
C1149 C1148 1.367 . S
C1149 C1157 1.433 . S
C1150 H1146 0.929 . S
C1150 C1152 1.378 . S
C1150 C1154 1.350 . S
C1151 C1154 1.463 . S
C1151 C1156 1.350 . S
C1151 N1159 1.427 . S
C1152 H1143 0.930 . S
C1152 C1150 1.378 . S
C1152 C1153 1.367 . S
C1153 C1152 1.367 . S
C1153 C1155 1.433 . S
C1154 C1150 1.350 . S
C1154 C1151 1.463 . S
C1154 N1158 1.427 . S
C1155 H1145 0.929 . S
C1155 C1153 1.433 . S
C1155 N1158 1.384 . S
C1156 H1147 0.929 . S
C1156 C1148 1.378 . S
C1156 C1151 1.350 . S
C1157 H1144 0.929 . S
C1157 C1149 1.433 . S
C1157 N1159 1.384 . S
N1158 C1154 1.427 . S
N1158 C1155 1.384 . S
N1159 C1151 1.427 . S
N1159 C1157 1.384 . S
H1160 C1166 0.930 . S
H1161 C1170 0.930 . S
H1162 C1175 0.929 . S
H1163 C1173 0.929 . S
H1164 C1168 0.929 . S
H1165 C1174 0.929 . S
C1166 H1160 0.930 . S
C1166 C1167 1.367 . S
C1166 C1174 1.378 . S
C1167 C1166 1.367 . S
C1167 C1175 1.433 . S
C1168 H1164 0.929 . S
C1168 C1170 1.378 . S
C1168 C1172 1.350 . S
C1169 C1172 1.463 . S
C1169 C1174 1.350 . S
C1169 N1177 1.427 . S
C1170 H1161 0.930 . S
C1170 C1168 1.378 . S
C1170 C1171 1.367 . S
C1171 C1170 1.367 . S
C1171 C1173 1.433 . S
C1172 C1168 1.350 . S
C1172 C1169 1.463 . S
C1172 N1176 1.427 . S
C1173 H1163 0.929 . S
C1173 C1171 1.433 . S
C1173 N1176 1.384 . S
C1174 H1165 0.929 . S
C1174 C1166 1.378 . S
C1174 C1169 1.350 . S
C1175 H1162 0.929 . S
C1175 C1167 1.433 . S
C1175 N1177 1.384 . S
N1176 C1172 1.427 . S
N1176 C1173 1.384 . S
N1177 C1169 1.427 . S
N1177 C1175 1.384 . S
H1178 C1184 0.930 . S
H1179 C1188 0.930 . S
H1180 C1193 0.929 . S
H1181 C1191 0.929 . S
H1182 C1186 0.929 . S
H1183 C1192 0.929 . S
C1184 H1178 0.930 . S
C1184 C1185 1.367 . S
C1184 C1192 1.378 . S
C1185 C1184 1.367 . S
C1185 C1193 1.433 1_565 S
C1186 H1182 0.929 . S
C1186 C1188 1.378 . S
C1186 C1190 1.350 1_545 S
C1187 C1190 1.463 . S
C1187 C1192 1.350 . S
C1187 N1195 1.427 1_565 S
C1188 H1179 0.930 . S
C1188 C1186 1.378 . S
C1188 C1189 1.367 1_545 S
C1189 C1188 1.367 1_565 S
C1189 C1191 1.433 . S
C1190 C1186 1.350 1_565 S
C1190 C1187 1.463 . S
C1190 N1194 1.427 . S
C1191 H1181 0.929 . S
C1191 C1189 1.433 . S
C1191 N1194 1.384 . S
C1192 H1183 0.929 . S
C1192 C1184 1.378 . S
C1192 C1187 1.350 . S
C1193 H1180 0.929 . S
C1193 C1185 1.433 1_545 S
C1193 N1195 1.384 . S
N1194 C1190 1.427 . S
N1194 C1191 1.384 . S
N1195 C1187 1.427 1_545 S
N1195 C1193 1.384 . S
H1196 C1202 0.930 . S
H1197 C1206 0.930 . S
H1198 C1211 0.929 . S
H1199 C1209 0.929 . S
H1200 C1204 0.929 . S
H1201 C1210 0.929 . S
C1202 H1196 0.930 . S
C1202 C1203 1.367 . S
C1202 C1210 1.378 . S
C1203 C1202 1.367 . S
C1203 C1211 1.433 . S
C1204 H1200 0.929 . S
C1204 C1206 1.378 . S
C1204 C1208 1.350 . S
C1205 C1208 1.463 . S
C1205 C1210 1.350 . S
C1205 N1213 1.427 . S
C1206 H1197 0.930 . S
C1206 C1204 1.378 . S
C1206 C1207 1.367 . S
C1207 C1206 1.367 . S
C1207 C1209 1.433 . S
C1208 C1204 1.350 . S
C1208 C1205 1.463 . S
C1208 N1212 1.427 . S
C1209 H1199 0.929 . S
C1209 C1207 1.433 . S
C1209 N1212 1.384 . S
C1210 H1201 0.929 . S
C1210 C1202 1.378 . S
C1210 C1205 1.350 . S
C1211 H1198 0.929 . S
C1211 C1203 1.433 . S
C1211 N1213 1.384 . S
N1212 C1208 1.427 . S
N1212 C1209 1.384 . S
N1213 C1205 1.427 . S
N1213 C1211 1.384 . S
H1214 C1220 0.930 . S
H1215 C1224 0.930 . S
H1216 C1229 0.929 . S
H1217 C1227 0.929 . S
H1218 C1222 0.929 . S
H1219 C1228 0.929 . S
C1220 H1214 0.930 . S
C1220 C1221 1.367 1_565 S
C1220 C1228 1.378 . S
C1221 C1220 1.367 1_545 S
C1221 C1229 1.433 . S
C1222 H1218 0.929 . S
C1222 C1224 1.378 . S
C1222 C1226 1.350 . S
C1223 C1226 1.463 . S
C1223 C1228 1.350 1_545 S
C1223 N1231 1.427 . S
C1224 H1215 0.930 . S
C1224 C1222 1.378 . S
C1224 C1225 1.353 1_545 S
C1225 C1224 1.353 1_565 S
C1225 C1227 1.447 . S
C1226 C1222 1.350 . S
C1226 C1223 1.463 . S
C1226 N1230 1.427 1_545 S
C1227 H1217 0.929 . S
C1227 C1225 1.447 . S
C1227 N1230 1.384 . S
C1228 H1219 0.929 . S
C1228 C1220 1.378 . S
C1228 C1223 1.350 1_565 S
C1229 H1216 0.929 . S
C1229 C1221 1.433 . S
C1229 N1231 1.384 . S
N1230 C1226 1.427 1_565 S
N1230 C1227 1.384 . S
N1231 C1223 1.427 . S
N1231 C1229 1.384 . S
H1232 C1238 0.930 . S
H1233 C1242 0.930 . S
H1234 C1247 0.929 . S
H1235 C1245 0.929 . S
H1236 C1240 0.929 . S
H1237 C1246 0.929 . S
C1238 H1232 0.930 . S
C1238 C1239 1.367 . S
C1238 C1246 1.378 . S
C1239 C1238 1.367 . S
C1239 C1247 1.433 . S
C1240 H1236 0.929 . S
C1240 C1242 1.378 . S
C1240 C1244 1.350 . S
C1241 C1244 1.463 . S
C1241 C1246 1.350 . S
C1241 N1249 1.427 . S
C1242 H1233 0.930 . S
C1242 C1240 1.378 . S
C1242 C1243 1.367 . S
C1243 C1242 1.367 . S
C1243 C1245 1.433 . S
C1244 C1240 1.350 . S
C1244 C1241 1.463 . S
C1244 N1248 1.427 . S
C1245 H1235 0.929 . S
C1245 C1243 1.433 . S
C1245 N1248 1.384 . S
C1246 H1237 0.929 . S
C1246 C1238 1.378 . S
C1246 C1241 1.350 . S
C1247 H1234 0.929 . S
C1247 C1239 1.433 . S
C1247 N1249 1.384 . S
N1248 C1244 1.427 . S
N1248 C1245 1.384 . S
N1249 C1241 1.427 . S
N1249 C1247 1.384 . S
H1250 C1256 0.930 . S
H1251 C1260 0.930 . S
H1252 C1265 0.929 . S
H1253 C1263 0.929 . S
H1254 C1258 0.929 . S
H1255 C1264 0.929 . S
C1256 H1250 0.930 . S
C1256 C1257 1.367 1_554 S
C1256 C1264 1.378 . S
C1257 C1256 1.367 1_556 S
C1257 C1265 1.433 . S
C1258 H1254 0.929 . S
C1258 C1260 1.378 . S
C1258 C1262 1.350 . S
C1259 C1262 1.463 . S
C1259 C1264 1.350 1_556 S
C1259 N1267 1.427 . S
C1260 H1251 0.930 . S
C1260 C1258 1.378 . S
C1260 C1261 1.367 . S
C1261 C1260 1.367 . S
C1261 C1263 1.433 . S
C1262 C1258 1.350 . S
C1262 C1259 1.463 . S
C1262 N1266 1.427 . S
C1263 H1253 0.929 . S
C1263 C1261 1.433 . S
C1263 N1266 1.384 . S
C1264 H1255 0.929 . S
C1264 C1256 1.378 . S
C1264 C1259 1.350 1_554 S
C1265 H1252 0.929 . S
C1265 C1257 1.433 . S
C1265 N1267 1.384 . S
N1266 C1262 1.427 . S
N1266 C1263 1.384 . S
N1267 C1259 1.427 . S
N1267 C1265 1.384 . S
H1268 C1274 0.930 . S
H1269 C1278 0.930 . S
H1270 C1283 0.929 1_554 S
H1271 C1281 0.929 . S
H1272 C1276 0.929 . S
H1273 C1282 0.929 . S
C1274 H1268 0.930 . S
C1274 C1275 1.367 . S
C1274 C1282 1.378 . S
C1275 C1274 1.367 . S
C1275 C1283 1.433 . S
C1276 H1272 0.929 . S
C1276 C1278 1.378 . S
C1276 C1280 1.350 . S
C1277 C1280 1.463 . S
C1277 C1282 1.350 . S
C1277 N1285 1.427 . S
C1278 H1269 0.930 . S
C1278 C1276 1.378 . S
C1278 C1279 1.367 . S
C1279 C1278 1.367 . S
C1279 C1281 1.433 . S
C1280 C1276 1.350 . S
C1280 C1277 1.463 . S
C1280 N1284 1.427 . S
C1281 H1271 0.929 . S
C1281 C1279 1.433 . S
C1281 N1284 1.384 . S
C1282 H1273 0.929 . S
C1282 C1274 1.378 . S
C1282 C1277 1.350 . S
C1283 H1270 0.929 1_556 S
C1283 C1275 1.433 . S
C1283 N1285 1.384 . S
N1284 C1280 1.427 . S
N1284 C1281 1.384 . S
N1285 C1277 1.427 . S
N1285 C1283 1.384 . S
H1286 C1292 0.930 . S
H1287 C1296 0.930 1_556 S
H1288 C1301 0.929 . S
H1289 C1299 0.929 . S
H1290 C1294 0.908 1_556 S
H1291 C1300 0.929 . S
C1292 H1286 0.930 . S
C1292 C1293 1.367 . S
C1292 C1300 1.378 . S
C1293 C1292 1.367 . S
C1293 C1301 1.433 1_554 S
C1294 H1290 0.908 1_554 S
C1294 C1296 1.382 . S
C1294 C1298 1.367 . S
C1295 C1298 1.463 . S
C1295 C1300 1.350 . S
C1295 N1303 1.427 1_554 S
C1296 H1287 0.930 1_554 S
C1296 C1294 1.382 . S
C1296 C1297 1.367 . S
C1297 C1296 1.367 . S
C1297 C1299 1.433 . S
C1298 C1294 1.367 . S
C1298 C1295 1.463 . S
C1298 N1302 1.427 . S
C1299 H1289 0.929 . S
C1299 C1297 1.433 . S
C1299 N1302 1.384 . S
C1300 H1291 0.929 . S
C1300 C1292 1.378 . S
C1300 C1295 1.350 . S
C1301 H1288 0.929 . S
C1301 C1293 1.433 1_556 S
C1301 N1303 1.384 . S
N1302 C1298 1.427 . S
N1302 C1299 1.384 . S
N1303 C1295 1.427 1_556 S
N1303 C1301 1.384 . S
C447 C13 1.533 . S
C451 C236 1.543 1_545 S
C469 C299 1.755 . S
C465 C1 1.762 . S
C487 C176 1.766 1_565 S
C483 C27 1.779 . S
C501 C15 1.672 . S
C505 C210 1.668 . S
C519 C28 1.745 . S
C523 C414 1.738 1_554 S
C537 C55 1.087 . S
C541 C385 1.080 . S
C559 C308 1.923 . S
C555 C40 1.995 . S
C573 C43 1.347 . S
C577 C342 1.332 . S
C595 C231 1.896 . S
C591 C56 1.916 . S
C613 C274 1.337 . S
C609 C83 1.351 . S
C627 C96 1.884 . S
C631 C253 1.845 1_655 S
C645 C71 1.537 . S
C649 C367 1.524 . S
C667 C372 1.539 . S
C663 C99 1.526 . S
C685 C435 1.753 . S
C681 C111 1.761 . S
C699 C113 1.775 . S
C703 C346 1.785 . S
C721 C312 1.667 . S
C717 C125 1.672 . S
C735 C139 1.752 . S
C739 C278 1.743 . S
C753 C153 1.086 . S
C757 C249 1.085 . S
C775 C206 1.923 . S
C771 C127 1.997 . S
C789 C141 1.347 . S
C793 C172 1.330 1_565 S
C811 C333 1.888 . S
C807 C84 1.913 . S
C829 C410 1.330 . S
C825 C154 1.345 1_556 S
C843 C68 1.884 . S
C847 C389 1.849 . S
C861 C166 1.532 . S
C865 C197 1.520 1_655 S
C883 C181 1.050 1_655 S
C879 C0 1.080 . S
C897 C12 1.048 . S
C901 C215 1.053 . S
C919 C240 0.997 . S
C915 C14 1.011 . S
C937 C287 1.826 . S
C933 C26 1.829 . S
C951 C41 1.492 . S
C955 C168 1.463 . S
C969 C42 1.404 . S
C973 C202 1.390 . S
C991 C244 1.515 . S
C987 C29 1.549 1_565 S
C1005 C54 0.947 . S
C1009 C283 0.919 . S
C1023 C69 1.634 . S
C1027 C185 1.585 . S
C1045 C265 1.650 . S
C1041 C70 1.689 . S
C1059 C85 1.560 . S
C1063 C270 1.562 . S
C1077 C82 1.478 . S
C1081 C321 1.450 . S
C1099 C351 1.069 . S
C1095 C110 1.078 . S
C1113 C98 1.046 . S
C1117 C317 1.052 . S
C1131 C124 1.018 . S
C1135 C376 0.987 . S
C1149 C112 1.831 . S
C1153 C423 1.818 . S
C1167 C126 1.498 . S
C1171 C338 1.463 . S
C1189 C304 1.392 . S
C1185 C140 1.403 . S
C1203 C138 1.550 . S
C1207 C380 1.521 . S
C1225 C419 0.909 1_565 S
C1221 C152 0.942 . S
C1243 C355 1.596 . S
C1239 C97 1.631 . S
C1261 C401 1.655 . S
C1257 C167 1.697 . S
C1279 C406 1.558 . S
C1275 C57 1.565 . S
C1293 C155 1.477 . S
C1297 C219 1.450 . S
