# Generated by pormake.
# Topology ocu, (6,8)-cn, num edge types: 1
# Building blocks:
#     Node 0, Type 0, BuildingBlock: MIFKUJ_clean_sbu_0, # of connection points: 6
#     Node 1, Type 0, BuildingBlock: MIFKUJ_clean_sbu_0, # of connection points: 6
#     Node 2, Type 0, BuildingBlock: MIFKUJ_clean_sbu_0, # of connection points: 6
#     Node 3, Type 0, BuildingBlock: MIFKUJ_clean_sbu_0, # of connection points: 6
#     Node 4, Type 0, BuildingBlock: MIFKUJ_clean_sbu_0, # of connection points: 6
#     Node 5, Type 0, BuildingBlock: MIFKUJ_clean_sbu_0, # of connection points: 6
#     Node 6, Type 0, BuildingBlock: MIFKUJ_clean_sbu_0, # of connection points: 6
#     Node 7, Type 0, BuildingBlock: MIFKUJ_clean_sbu_0, # of connection points: 6
#     Node 8, Type 1, BuildingBlock: TAGTUT_clean_sbu_1, # of connection points: 8
#     Node 9, Type 1, BuildingBlock: TAGTUT_clean_sbu_1, # of connection points: 8
#     Node 10, Type 1, BuildingBlock: TAGTUT_clean_sbu_1, # of connection points: 8
#     Node 11, Type 1, BuildingBlock: TAGTUT_clean_sbu_1, # of connection points: 8
#     Node 12, Type 1, BuildingBlock: TAGTUT_clean_sbu_1, # of connection points: 8
#     Node 13, Type 1, BuildingBlock: TAGTUT_clean_sbu_1, # of connection points: 8
#     Edge 14, Type (0, 1), BuildingBlock: XIVTED_clean_linker_0, # of connection points: 2
#     Edge 15, Type (0, 1), BuildingBlock: XIVTED_clean_linker_0, # of connection points: 2
#     Edge 16, Type (0, 1), BuildingBlock: XIVTED_clean_linker_0, # of connection points: 2
#     Edge 17, Type (0, 1), BuildingBlock: XIVTED_clean_linker_0, # of connection points: 2
#     Edge 18, Type (0, 1), BuildingBlock: XIVTED_clean_linker_0, # of connection points: 2
#     Edge 19, Type (0, 1), BuildingBlock: XIVTED_clean_linker_0, # of connection points: 2
#     Edge 20, Type (0, 1), BuildingBlock: XIVTED_clean_linker_0, # of connection points: 2
#     Edge 21, Type (0, 1), BuildingBlock: XIVTED_clean_linker_0, # of connection points: 2
#     Edge 22, Type (0, 1), BuildingBlock: XIVTED_clean_linker_0, # of connection points: 2
#     Edge 23, Type (0, 1), BuildingBlock: XIVTED_clean_linker_0, # of connection points: 2
#     Edge 24, Type (0, 1), BuildingBlock: XIVTED_clean_linker_0, # of connection points: 2
#     Edge 25, Type (0, 1), BuildingBlock: XIVTED_clean_linker_0, # of connection points: 2
#     Edge 26, Type (0, 1), BuildingBlock: XIVTED_clean_linker_0, # of connection points: 2
#     Edge 27, Type (0, 1), BuildingBlock: XIVTED_clean_linker_0, # of connection points: 2
#     Edge 28, Type (0, 1), BuildingBlock: XIVTED_clean_linker_0, # of connection points: 2
#     Edge 29, Type (0, 1), BuildingBlock: XIVTED_clean_linker_0, # of connection points: 2
#     Edge 30, Type (0, 1), BuildingBlock: XIVTED_clean_linker_0, # of connection points: 2
#     Edge 31, Type (0, 1), BuildingBlock: XIVTED_clean_linker_0, # of connection points: 2
#     Edge 32, Type (0, 1), BuildingBlock: XIVTED_clean_linker_0, # of connection points: 2
#     Edge 33, Type (0, 1), BuildingBlock: XIVTED_clean_linker_0, # of connection points: 2
#     Edge 34, Type (0, 1), BuildingBlock: XIVTED_clean_linker_0, # of connection points: 2
#     Edge 35, Type (0, 1), BuildingBlock: XIVTED_clean_linker_0, # of connection points: 2
#     Edge 36, Type (0, 1), BuildingBlock: XIVTED_clean_linker_0, # of connection points: 2
#     Edge 37, Type (0, 1), BuildingBlock: XIVTED_clean_linker_0, # of connection points: 2
#     Edge 38, Type (0, 1), BuildingBlock: XIVTED_clean_linker_0, # of connection points: 2
#     Edge 39, Type (0, 1), BuildingBlock: XIVTED_clean_linker_0, # of connection points: 2
#     Edge 40, Type (0, 1), BuildingBlock: XIVTED_clean_linker_0, # of connection points: 2
#     Edge 41, Type (0, 1), BuildingBlock: XIVTED_clean_linker_0, # of connection points: 2
#     Edge 42, Type (0, 1), BuildingBlock: XIVTED_clean_linker_0, # of connection points: 2
#     Edge 43, Type (0, 1), BuildingBlock: XIVTED_clean_linker_0, # of connection points: 2
#     Edge 44, Type (0, 1), BuildingBlock: XIVTED_clean_linker_0, # of connection points: 2
#     Edge 45, Type (0, 1), BuildingBlock: XIVTED_clean_linker_0, # of connection points: 2
#     Edge 46, Type (0, 1), BuildingBlock: XIVTED_clean_linker_0, # of connection points: 2
#     Edge 47, Type (0, 1), BuildingBlock: XIVTED_clean_linker_0, # of connection points: 2
#     Edge 48, Type (0, 1), BuildingBlock: XIVTED_clean_linker_0, # of connection points: 2
#     Edge 49, Type (0, 1), BuildingBlock: XIVTED_clean_linker_0, # of connection points: 2
#     Edge 50, Type (0, 1), BuildingBlock: XIVTED_clean_linker_0, # of connection points: 2
#     Edge 51, Type (0, 1), BuildingBlock: XIVTED_clean_linker_0, # of connection points: 2
#     Edge 52, Type (0, 1), BuildingBlock: XIVTED_clean_linker_0, # of connection points: 2
#     Edge 53, Type (0, 1), BuildingBlock: XIVTED_clean_linker_0, # of connection points: 2
#     Edge 54, Type (0, 1), BuildingBlock: XIVTED_clean_linker_0, # of connection points: 2
#     Edge 55, Type (0, 1), BuildingBlock: XIVTED_clean_linker_0, # of connection points: 2
#     Edge 56, Type (0, 1), BuildingBlock: XIVTED_clean_linker_0, # of connection points: 2
#     Edge 57, Type (0, 1), BuildingBlock: XIVTED_clean_linker_0, # of connection points: 2
#     Edge 58, Type (0, 1), BuildingBlock: XIVTED_clean_linker_0, # of connection points: 2
#     Edge 59, Type (0, 1), BuildingBlock: XIVTED_clean_linker_0, # of connection points: 2
#     Edge 60, Type (0, 1), BuildingBlock: XIVTED_clean_linker_0, # of connection points: 2
#     Edge 61, Type (0, 1), BuildingBlock: XIVTED_clean_linker_0, # of connection points: 2
# Relax obj value: 0.061
# Max RMSD: 0.225
# Mean RMSD: 0.124
data_MOF--net-ocu--node1-MIFKUJ_clean_sbu_0--node2-TAGTUT_clean_sbu_1--edge1-XIVTED_clean_linker_0
_symmetry_space_group_name_H-M    P1
_symmetry_Int_Tables_number       1
_symmetry_cell_setting            triclinic
loop_
_symmetry_equiv_pos_as_xyz
'x, y, z'
_cell_length_a     38.833205
_cell_length_b     38.855162
_cell_length_c     39.482126
_cell_angle_alpha  91.747357
_cell_angle_beta   95.578315
_cell_angle_gamma 107.984
loop_
_atom_site_label
_atom_site_type_symbol
_atom_site_fract_x
_atom_site_fract_y
_atom_site_fract_z
_atom_type_partial_charge
Zn0 Zn 0.21455 0.25186 0.22938 0.0
Zn1 Zn 0.28184 0.22852 0.25543 0.0
C2 C 0.18479 0.2782 0.27886 0.0
O3 O 0.16013 0.24951 0.26319 0.0
C4 C 0.30831 0.19892 0.20509 0.0
O5 O 0.33495 0.22657 0.21995 0.0
O6 O 0.17774 0.26786 0.19928 0.0
O7 O 0.25788 0.26603 0.2001 0.0
O8 O 0.30512 0.27973 0.23884 0.0
C9 C 0.19164 0.30183 0.19641 0.0
O10 O 0.22546 0.31791 0.20957 0.0
O11 O 0.21747 0.28581 0.27136 0.0
C12 C 0.30547 0.17905 0.28954 0.0
O13 O 0.27157 0.16212 0.27713 0.0
O14 O 0.3188 0.21279 0.28534 0.0
O15 O 0.23894 0.2157 0.28512 0.0
O16 O 0.19246 0.20009 0.24552 0.0
O17 O 0.27635 0.19353 0.21378 0.0
C18 C 0.29126 0.28363 0.20917 0.0
C19 C 0.2059 0.19716 0.27566 0.0
Zn20 Zn 0.74334 0.28145 0.20252 0.0
Zn21 Zn 0.75541 0.20471 0.27393 0.0
C22 C 0.69884 0.31725 0.16497 0.0
O23 O 0.72893 0.32976 0.15048 0.0
C24 C 0.79743 0.17111 0.31733 0.0
O25 O 0.76851 0.16497 0.33377 0.0
O26 O 0.78911 0.31826 0.19474 0.0
O27 O 0.74887 0.27035 0.25129 0.0
O28 O 0.75901 0.25114 0.30095 0.0
C29 C 0.7993 0.35194 0.20285 0.0
O30 O 0.77701 0.3667 0.21607 0.0
O31 O 0.69787 0.29555 0.18857 0.0
C32 C 0.69839 0.1363 0.27819 0.0
O33 O 0.72208 0.12015 0.27065 0.0
O34 O 0.70804 0.17052 0.28214 0.0
O35 O 0.75047 0.21195 0.22311 0.0
O36 O 0.74275 0.23655 0.17512 0.0
O37 O 0.7985 0.18776 0.29002 0.0
C38 C 0.75515 0.27666 0.28327 0.0
C39 C 0.7465 0.2095 0.19069 0.0
Zn40 Zn 0.80237 0.74527 0.21734 0.0
Zn41 Zn 0.71507 0.76285 0.24717 0.0
C42 C 0.84721 0.72628 0.26813 0.0
O43 O 0.86912 0.75588 0.25728 0.0
C44 C 0.65544 0.7742 0.2048 0.0
O45 O 0.63631 0.74604 0.21986 0.0
O46 O 0.8243 0.73247 0.17703 0.0
O47 O 0.7489 0.73456 0.20284 0.0
O48 O 0.70431 0.71017 0.23207 0.0
C49 C 0.81441 0.69824 0.1713 0.0
O50 O 0.79363 0.67756 0.19191 0.0
O51 O 0.81405 0.71507 0.25514 0.0
C52 C 0.69805 0.80412 0.29542 0.0
O53 O 0.71227 0.82689 0.2728 0.0
O54 O 0.69549 0.7709 0.29063 0.0
O55 O 0.76909 0.79093 0.25141 0.0
O56 O 0.82346 0.79687 0.23649 0.0
O57 O 0.68992 0.78524 0.21138 0.0
C58 C 0.72487 0.7062 0.21021 0.0
C59 C 0.80296 0.8084 0.25392 0.0
Zn60 Zn 0.22641 0.77917 0.24266 0.0
Zn61 Zn 0.27084 0.72684 0.23876 0.0
C62 C 0.16682 0.73063 0.27199 0.0
O63 O 0.1474 0.7444 0.25054 0.0
C64 C 0.33151 0.7748 0.21096 0.0
O65 O 0.34991 0.76207 0.23436 0.0
O66 O 0.20262 0.8178 0.24983 0.0
O67 O 0.27896 0.79952 0.26266 0.0
O68 O 0.28128 0.74975 0.28651 0.0
C69 C 0.21051 0.82985 0.28085 0.0
O70 O 0.23142 0.81676 0.30114 0.0
O71 O 0.2013 0.74108 0.27277 0.0
C72 C 0.28572 0.67656 0.19901 0.0
O73 O 0.26991 0.69454 0.17861 0.0
O74 O 0.29146 0.68576 0.23081 0.0
O75 O 0.21822 0.70765 0.21968 0.0
O76 O 0.21713 0.75691 0.19465 0.0
O77 O 0.29693 0.76442 0.20872 0.0
C78 C 0.28883 0.78409 0.28811 0.0
C79 C 0.20935 0.7226 0.19354 0.0
Zn80 Zn 0.28103 0.76687 0.71863 0.0
Zn81 Zn 0.22478 0.71705 0.75645 0.0
C82 C 0.2224 0.78276 0.67446 0.0
O83 O 0.22857 0.75968 0.65272 0.0
C84 C 0.27374 0.69765 0.80942 0.0
O85 O 0.25852 0.71395 0.83032 0.0
O86 O 0.32746 0.79807 0.7047 0.0
O87 O 0.29165 0.77074 0.76974 0.0
O88 O 0.23575 0.76971 0.77266 0.0
C89 C 0.34417 0.82774 0.72184 0.0
O90 O 0.32926 0.83835 0.74698 0.0
O91 O 0.24118 0.79005 0.7036 0.0
C92 C 0.14862 0.67684 0.7565 0.0
O93 O 0.14699 0.67553 0.72312 0.0
O94 O 0.17854 0.69239 0.77482 0.0
O95 O 0.21516 0.70098 0.70702 0.0
O96 O 0.27137 0.71801 0.69395 0.0
O97 O 0.26366 0.69554 0.77753 0.0
C98 C 0.26902 0.78185 0.78419 0.0
C99 C 0.23901 0.69664 0.68908 0.0
Zn100 Zn 0.29945 0.24041 0.74221 0.0
Zn101 Zn 0.19554 0.25725 0.73778 0.0
C102 C 0.35666 0.22924 0.78857 0.0
O103 O 0.37749 0.25381 0.7709 0.0
C104 C 0.13656 0.26941 0.69351 0.0
O105 O 0.11602 0.24344 0.71006 0.0
O106 O 0.31829 0.2271 0.70056 0.0
O107 O 0.24554 0.2206 0.73862 0.0
O108 O 0.1874 0.20382 0.72498 0.0
C109 C 0.31611 0.19388 0.69743 0.0
O110 O 0.3015 0.17206 0.72058 0.0
O111 O 0.32222 0.2205 0.78194 0.0
C112 C 0.17743 0.29789 0.78577 0.0
O113 O 0.18925 0.32052 0.76228 0.0
O114 O 0.17561 0.26491 0.78087 0.0
O115 O 0.2504 0.28519 0.74499 0.0
O116 O 0.30952 0.29433 0.74919 0.0
O117 O 0.17104 0.27875 0.70025 0.0
C118 C 0.21717 0.19672 0.7249 0.0
C119 C 0.28285 0.30665 0.75127 0.0
Zn120 Zn 0.7084 0.26882 0.74223 0.0
Zn121 Zn 0.77374 0.2165 0.72185 0.0
C122 C 0.65455 0.20523 0.76363 0.0
O123 O 0.64049 0.20067 0.73157 0.0
C124 C 0.83319 0.26728 0.69271 0.0
O125 O 0.85219 0.26586 0.72173 0.0
O126 O 0.69389 0.31227 0.75595 0.0
O127 O 0.76378 0.27979 0.75066 0.0
O128 O 0.79079 0.24051 0.76864 0.0
C129 C 0.70166 0.31983 0.78791 0.0
O130 O 0.71841 0.30065 0.80583 0.0
O131 O 0.68369 0.23092 0.773 0.0
C132 C 0.81349 0.16683 0.72265 0.0
O133 O 0.83569 0.19254 0.74399 0.0
O134 O 0.78193 0.16864 0.71335 0.0
O135 O 0.72254 0.21557 0.71586 0.0
O136 O 0.69324 0.24969 0.69277 0.0
O137 O 0.79959 0.24909 0.68783 0.0
C138 C 0.78026 0.26785 0.77481 0.0
C139 C 0.70837 0.22533 0.68911 0.0
Zn140 Zn 0.72033 0.7667 0.74069 0.0
Zn141 Zn 0.78375 0.72247 0.75312 0.0
C142 C 0.69785 0.7858 0.79999 0.0
O143 O 0.66955 0.7612 0.78341 0.0
C144 C 0.813 0.70415 0.69798 0.0
O145 O 0.83902 0.72917 0.71689 0.0
O146 O 0.68647 0.78978 0.71598 0.0
O147 O 0.76356 0.78098 0.71194 0.0
O148 O 0.80974 0.77628 0.74616 0.0
C149 C 0.70103 0.82398 0.71616 0.0
O150 O 0.73472 0.83862 0.73033 0.0
O151 O 0.72815 0.79408 0.78734 0.0
C152 C 0.80682 0.66791 0.77899 0.0
O153 O 0.77377 0.65136 0.76409 0.0
O154 O 0.8189 0.70238 0.78006 0.0
O155 O 0.7381 0.70436 0.77881 0.0
O156 O 0.69204 0.71374 0.74768 0.0
O157 O 0.78087 0.69542 0.70695 0.0
C158 C 0.79783 0.7892 0.71994 0.0
C159 C 0.70388 0.6983 0.7721 0.0
C160 C 0.93617 0.0692 0.55057 0.0
C161 C 0.9671 0.07057 0.44771 0.0
C162 C 0.95073 0.92919 0.45958 0.0
Mg163 Mg 0.00832 0.07519 0.51911 0.0
O164 O 0.98837 0.02478 0.52229 0.0
Mg165 Mg 0.93865 5e-05 0.49774 0.0
Mg166 Mg 0.0148 0.99247 0.50574 0.0
O167 O 0.04148 0.96045 0.48936 0.0
Mg168 Mg 0.02175 0.91022 0.49189 0.0
Mg169 Mg 0.09154 0.98532 0.51305 0.0
C170 C 0.08077 0.05624 0.54779 0.0
C171 C 0.076 0.04031 0.45624 0.0
O172 O 0.91997 0.03943 0.53237 0.0
O173 O 0.97001 0.0868 0.54985 0.0
O174 O 0.94656 0.04029 0.45613 0.0
O175 O 0.99514 0.0893 0.46743 0.0
O176 O 0.06446 0.07989 0.54067 0.0
O177 O 0.06515 0.02207 0.54169 0.0
C178 C 0.9524 0.94473 0.55406 0.0
O179 O 0.98594 0.95196 0.54777 0.0
O180 O 0.93136 0.96001 0.53835 0.0
O181 O 0.10958 0.94672 0.47786 0.0
O182 O 0.05976 0.89896 0.46099 0.0
O183 O 0.08566 0.94399 0.5549 0.0
C184 C 0.09334 0.91698 0.45973 0.0
O185 O 0.03604 0.89589 0.54301 0.0
O186 O 0.96687 0.9055 0.4671 0.0
C187 C 0.06499 0.91323 0.56243 0.0
O188 O 0.96513 0.96292 0.46916 0.0
O189 O 0.04274 0.03262 0.46332 0.0
O190 O 0.09784 0.02579 0.47186 0.0
C191 C 0.42229 0.07054 0.04984 0.0
C192 C 0.45821 0.08182 0.94954 0.0
C193 C 0.43395 0.93462 0.95288 0.0
Mg194 Mg 0.49607 0.07766 0.02096 0.0
O195 O 0.47563 0.02708 0.0163 0.0
Mg196 Mg 0.42556 0.00567 -0.00836 0.0
Mg197 Mg 0.50094 -0.00371 -0.00574 0.0
O198 O 0.52683 0.96505 0.97287 0.0
Mg199 Mg 0.50767 0.91491 0.97539 0.0
Mg200 Mg 0.57719 0.98809 -0.00268 0.0
C201 C 0.56691 0.05495 0.04386 0.0
C202 C 0.55679 0.04328 0.94456 0.0
O203 O 0.40642 0.04254 0.02925 0.0
O204 O 0.45663 0.08712 0.05169 0.0
O205 O 0.43553 0.05091 0.954 0.0
O206 O 0.48601 0.09686 0.97116 0.0
O207 O 0.55061 0.0792 0.04409 0.0
O208 O 0.55221 0.0235 0.02878 0.0
C209 C 0.44286 0.94636 0.04059 0.0
O210 O 0.47562 0.95466 0.03263 0.0
O211 O 0.42023 0.96215 0.02866 0.0
O212 O 0.59621 0.9488 0.96283 0.0
O213 O 0.54662 0.90065 0.94669 0.0
O214 O 0.57051 0.94723 0.03882 0.0
C215 C 0.58067 0.91784 0.94643 0.0
O216 O 0.51893 0.90149 0.02699 0.0
O217 O 0.45145 0.91147 0.95714 0.0
C218 C 0.54785 0.91779 0.04666 0.0
O219 O 0.44915 0.96894 0.95926 0.0
O220 O 0.5256 0.0373 0.95561 0.0
O221 O 0.57995 0.02785 0.95599 0.0
C222 C 0.91824 0.57098 0.00764 0.0
C223 C 0.94352 0.53802 0.91148 0.0
C224 C 0.93821 0.41258 0.96408 0.0
Mg225 Mg 0.98885 0.56794 0.9797 0.0
O226 O 0.97442 0.52273 -0.00185 0.0
Mg227 Mg 0.92439 0.48999 0.98109 0.0
Mg228 Mg 0.00249 0.48915 0.98907 0.0
O229 O 0.03042 0.4559 0.97881 0.0
Mg230 Mg 0.01556 0.40961 -0.00484 0.0
Mg231 Mg 0.08036 0.48877 -0.00426 0.0
C232 C 0.06687 0.56554 0.00977 0.0
C233 C 0.04901 0.5193 0.92783 0.0
O234 O 0.90441 0.53655 0.00092 0.0
O235 O 0.95082 0.5887 0.00227 0.0
O236 O 0.92344 0.51247 0.92732 0.0
O237 O 0.97253 0.5607 0.92639 0.0
O238 O 0.04647 0.58383 -0.0022 0.0
O239 O 0.05435 0.53125 0.01319 0.0
C240 C 0.95661 0.4639 0.05151 0.0
O241 O 0.98685 0.46677 0.03973 0.0
O242 O 0.92996 0.47064 0.03428 0.0
O243 O 0.10086 0.44331 0.97509 0.0
O244 O 0.05542 0.39039 0.97352 0.0
O245 O 0.07983 0.4634 0.04855 0.0
C246 C 0.08792 0.40884 0.96848 0.0
O247 O 0.02965 0.41592 0.04878 0.0
O248 O 0.9583 0.39339 0.97461 0.0
C249 C 0.05914 0.43772 0.06393 0.0
O250 O 0.95074 0.44731 0.96454 0.0
O251 O 0.01846 0.51278 0.93992 0.0
O252 O 0.07652 0.51241 0.94336 0.0
C253 C 0.4096 0.57106 0.03959 0.0
C254 C 0.43744 0.58181 0.93614 0.0
C255 C 0.4236 0.44071 0.93627 0.0
Mg256 Mg 0.48099 0.58058 0.00598 0.0
O257 O 0.46127 0.53017 0.00555 0.0
Mg258 Mg 0.41102 0.50666 0.98126 0.0
Mg259 Mg 0.4878 0.49835 0.98805 0.0
O260 O 0.51316 0.46591 0.97005 0.0
Mg261 Mg 0.49057 0.41528 0.96815 0.0
Mg262 Mg 0.56174 0.48736 -0.00273 0.0
C263 C 0.55264 0.55944 0.03372 0.0
C264 C 0.55302 0.54617 0.94268 0.0
O265 O 0.39275 0.54309 0.01923 0.0
O266 O 0.44344 0.58873 0.0392 0.0
O267 O 0.41714 0.55023 0.94186 0.0
O268 O 0.4658 0.5986 0.95652 0.0
O269 O 0.53676 0.58355 0.02711 0.0
O270 O 0.53691 0.5254 0.02621 0.0
C271 C 0.42492 0.44807 0.03493 0.0
O272 O 0.45828 0.4561 0.02821 0.0
O273 O 0.40355 0.4635 0.01998 0.0
O274 O 0.58075 0.44866 0.96259 0.0
O275 O 0.53068 0.40409 0.93957 0.0
O276 O 0.54808 0.44423 0.03616 0.0
C277 C 0.56508 0.42056 0.94209 0.0
O278 O 0.49862 0.39715 0.01935 0.0
O279 O 0.43807 0.41519 0.94039 0.0
C280 C 0.52537 0.41375 0.04156 0.0
O281 O 0.43859 0.47275 0.94994 0.0
O282 O 0.51936 0.54014 0.94821 0.0
O283 O 0.57266 0.52939 0.95842 0.0
C284 C 0.92219 0.57462 0.53616 0.0
C285 C 0.94866 0.58121 0.43266 0.0
C286 C 0.92626 0.43948 0.43214 0.0
Mg287 Mg 0.99229 0.57879 0.50121 0.0
O288 O 0.97138 0.52848 0.50121 0.0
Mg289 Mg 0.92008 0.50743 0.4783 0.0
Mg290 Mg 0.9953 0.49662 0.47859 0.0
O291 O 0.01851 0.4642 0.456 0.0
Mg292 Mg 0.99568 0.41386 0.4554 0.0
Mg293 Mg 0.06884 0.48383 0.48083 0.0
C294 C 0.06448 0.55587 0.52075 0.0
C295 C 0.05404 0.54424 0.43158 0.0
O296 O 0.90426 0.54556 0.51754 0.0
O297 O 0.95623 0.59075 0.5346 0.0
O298 O 0.92649 0.55115 0.43971 0.0
O299 O 0.97843 0.59637 0.45165 0.0
O300 O 0.04858 0.58042 0.51764 0.0
O301 O 0.04759 0.522 0.51341 0.0
C302 C 0.93774 0.44686 0.52578 0.0
O303 O 0.96978 0.45465 0.51631 0.0
O304 O 0.91528 0.46342 0.51531 0.0
O305 O 0.08506 0.44426 0.44391 0.0
O306 O 0.03311 0.40008 0.42467 0.0
O307 O 0.05824 0.44029 0.51985 0.0
C308 C 0.06758 0.41535 0.425 0.0
O309 O 0.00571 0.39615 0.50596 0.0
O310 O 0.9409 0.41394 0.43445 0.0
C311 C 0.03465 0.41078 0.52629 0.0
O312 O 0.94301 0.47216 0.44365 0.0
O313 O 0.02195 0.53828 0.44078 0.0
O314 O 0.07531 0.52666 0.44285 0.0
C315 C 0.43085 0.08493 0.52792 0.0
C316 C 0.44726 0.05377 0.42736 0.0
C317 C 0.44375 0.92562 0.47796 0.0
Mg318 Mg 0.49805 0.08267 0.49307 0.0
O319 O 0.48509 0.03637 0.50946 0.0
Mg320 Mg 0.43385 0.00421 0.49701 0.0
Mg321 Mg 0.51069 0.00166 0.49671 0.0
O322 O 0.5362 0.96678 0.48425 0.0
Mg323 Mg 0.52274 0.92061 0.50082 0.0
Mg324 Mg 0.58747 -0.00136 0.49664 0.0
C325 C 0.5777 0.0777 0.51292 0.0
C326 C 0.54868 0.02403 0.4293 0.0
O327 O 0.41693 0.05076 0.52015 0.0
O328 O 0.46279 0.10321 0.52114 0.0
O329 O 0.4288 0.02772 0.44383 0.0
O330 O 0.47711 0.07645 0.44077 0.0
O331 O 0.55679 0.09691 0.50503 0.0
O332 O 0.56506 0.04334 0.51597 0.0
C333 C 0.47148 0.97673 0.56352 0.0
O334 O 0.50017 0.98038 0.54869 0.0
O335 O 0.44343 0.98374 0.54942 0.0
O336 O 0.60424 0.95115 0.47437 0.0
O337 O 0.55776 0.89926 0.47366 0.0
O338 O 0.59245 0.97667 0.55055 0.0
C339 C 0.5899 0.91691 0.46701 0.0
O340 O 0.54397 0.92786 0.55305 0.0
O341 O 0.46421 0.90612 0.48647 0.0
C342 C 0.57344 0.95084 0.56692 0.0
O343 O 0.45675 0.96023 0.477 0.0
O344 O 0.52052 0.02212 0.44436 0.0
O345 O 0.57667 0.01707 0.44369 0.0
H346 H 0.13138 0.15809 0.26984 0.0
H347 H 0.14638 0.08189 0.45647 0.0
H348 H 0.22927 0.18387 0.34016 0.0
H349 H 0.0423 0.05918 0.39615 0.0
H350 H 0.17536 0.11959 0.41295 0.0
H351 H 0.09719 0.12198 0.31336 0.0
C352 C 0.14578 0.15622 0.29426 0.0
C353 C 0.18357 0.17429 0.30099 0.0
C354 C 0.14616 0.10665 0.40895 0.0
C355 C 0.14431 0.13286 0.35121 0.0
C356 C 0.12938 0.08492 0.43404 0.0
C357 C 0.09161 0.06685 0.43026 0.0
C358 C 0.12549 0.11071 0.37897 0.0
C359 C 0.07142 0.07252 0.40044 0.0
C360 C 0.12614 0.13564 0.3192 0.0
C361 C 0.20037 0.17072 0.33338 0.0
N362 N 0.08861 0.09363 0.37585 0.0
N363 N 0.18083 0.15063 0.35686 0.0
H364 H 0.87131 0.20313 0.3171 0.0
H365 H 0.91774 0.03422 0.39482 0.0
H366 H 0.79139 0.10784 0.34678 0.0
H367 H 0.98308 0.14245 0.43257 0.0
H368 H 0.88024 0.05987 0.35673 0.0
H369 H 0.9201 0.17986 0.34195 0.0
C370 C 0.8641 0.17716 0.3284 0.0
C371 C 0.82738 0.1573 0.33002 0.0
C372 C 0.90333 0.07799 0.3728 0.0
C373 C 0.88245 0.13043 0.35726 0.0
C374 C 0.92492 0.06345 0.39445 0.0
C375 C 0.95315 0.0862 0.41756 0.0
C376 C 0.91014 0.11558 0.37384 0.0
C377 C 0.9614 0.1239 0.41541 0.0
C378 C 0.89182 0.16407 0.34258 0.0
C379 C 0.81935 0.12402 0.34517 0.0
N380 N 0.93952 0.13752 0.39432 0.0
N381 N 0.84662 0.11152 0.35795 0.0
H382 H 0.87177 0.85773 0.26141 0.0
H383 H 0.92353 0.97273 0.41852 0.0
H384 H 0.77194 0.82513 0.30847 0.0
H385 H 0.90679 0.86057 0.43939 0.0
H386 H 0.88264 0.95261 0.36518 0.0
H387 H 0.90172 0.89638 0.31307 0.0
C388 C 0.85577 0.85968 0.28196 0.0
C389 C 0.81912 0.83824 0.28052 0.0
C390 C 0.88751 0.93269 0.38201 0.0
C391 C 0.85314 0.882 0.33914 0.0
C392 C 0.91046 0.94398 0.41252 0.0
C393 C 0.91894 0.91823 0.43327 0.0
C394 C 0.87261 0.89558 0.37287 0.0
C395 C 0.9013 0.88134 0.42409 0.0
C396 C 0.87282 0.88181 0.31123 0.0
C397 C 0.79986 0.84158 0.30813 0.0
N398 N 0.87922 0.8711 0.39433 0.0
N399 N 0.81735 0.86224 0.33675 0.0
H400 H 0.13745 0.81678 0.27854 0.0
H401 H 0.16181 0.95147 0.44259 0.0
H402 H 0.24113 0.89034 0.32191 0.0
H403 H 0.06751 0.85734 0.41491 0.0
H404 H 0.18876 0.93644 0.39307 0.0
H405 H 0.10772 0.84088 0.32136 0.0
C406 C 0.15364 0.83916 0.29613 0.0
C407 C 0.19156 0.85203 0.29674 0.0
C408 C 0.1622 0.91909 0.39797 0.0
C409 C 0.15835 0.87864 0.34613 0.0
C410 C 0.14693 0.92743 0.42639 0.0
C411 C 0.11232 0.90564 0.43298 0.0
C412 C 0.14265 0.88888 0.37593 0.0
C413 C 0.09423 0.87498 0.41088 0.0
C414 C 0.13686 0.85241 0.32091 0.0
C415 C 0.2117 0.88013 0.32063 0.0
N416 N 0.10956 0.8676 0.38326 0.0
N417 N 0.19488 0.89233 0.34466 0.0
H418 H 0.164 0.75791 0.62602 0.0
H419 H 0.12064 0.94247 0.61391 0.0
H420 H 0.21658 0.84757 0.69968 0.0
H421 H 0.04455 0.84032 0.57205 0.0
H422 H 0.15513 0.90943 0.64731 0.0
H423 H 0.12003 0.78834 0.6064 0.0
C424 C 0.1662 0.78397 0.63822 0.0
C425 C 0.1942 0.80028 0.66441 0.0
C426 C 0.13046 0.89427 0.63137 0.0
C427 C 0.14391 0.83563 0.64171 0.0
C428 C 0.1106 0.91311 0.61235 0.0
C429 C 0.07974 0.89422 0.58971 0.0
C430 C 0.11982 0.85626 0.6273 0.0
C431 C 0.06815 0.85615 0.58895 0.0
C432 C 0.1409 0.80126 0.62711 0.0
C433 C 0.19545 0.83401 0.6794 0.0
N434 N 0.08859 0.83851 0.60682 0.0
N435 N 0.17102 0.85085 0.66748 0.0
H436 H 0.24758 0.20831 0.66627 0.0
H437 H 0.11275 0.01957 0.59212 0.0
H438 H 0.18873 0.12338 0.72601 0.0
H439 H 0.13302 0.12143 0.54462 0.0
H440 H 0.16636 0.04701 0.63349 0.0
H441 H 0.23281 0.16514 0.61657 0.0
C442 C 0.23298 0.18009 0.66922 0.0
C443 C 0.21915 0.16911 0.69993 0.0
C444 C 0.15974 0.06287 0.61323 0.0
C445 C 0.20107 0.1203 0.64332 0.0
C446 C 0.12918 0.04734 0.58968 0.0
C447 C 0.11782 0.06882 0.56585 0.0
C448 C 0.17896 0.09985 0.6125 0.0
C449 C 0.14026 0.10439 0.56341 0.0
C450 C 0.22444 0.15557 0.64089 0.0
C451 C 0.19965 0.13265 0.70252 0.0
N452 N 0.16948 0.11905 0.58692 0.0
N453 N 0.19051 0.10953 0.67425 0.0
H454 H 0.77795 0.11672 0.66989 0.0
H455 H 0.96431 0.1237 0.60039 0.0
H456 H 0.88342 0.16487 0.72755 0.0
H457 H 0.86308 0.04364 0.5592 0.0
H458 H 0.93324 0.14159 0.64493 0.0
H459 H 0.80667 0.08975 0.62836 0.0
C460 C 0.80699 0.121 0.67425 0.0
C461 C 0.8284 0.14352 0.70206 0.0
C462 C 0.91778 0.12003 0.62624 0.0
C463 C 0.86133 0.11347 0.6543 0.0
C464 C 0.93544 0.10997 0.60049 0.0
C465 C 0.91633 0.08205 0.57586 0.0
C466 C 0.88052 0.10242 0.62737 0.0
C467 C 0.87892 0.0653 0.57762 0.0
C468 C 0.82334 0.10574 0.65042 0.0
C469 C 0.86585 0.14804 0.70639 0.0
N470 N 0.86214 0.07585 0.6029 0.0
N471 N 0.88117 0.13366 0.68247 0.0
H472 H 0.77963 0.81602 0.66 0.0
H473 H 0.9815 0.92443 0.61593 0.0
H474 H 0.87413 0.81398 0.72606 0.0
H475 H 0.88209 0.90278 0.54829 0.0
H476 H 0.94602 0.88574 0.65762 0.0
H477 H 0.81924 0.8506 0.62082 0.0
C478 C 0.80881 0.82288 0.66646 0.0
C479 C 0.82322 0.81177 0.6967 0.0
C480 C 0.93222 0.88935 0.63346 0.0
C481 C 0.86976 0.85219 0.65097 0.0
C482 C 0.95254 0.91122 0.60954 0.0
C483 C 0.93488 0.91734 0.57847 0.0
C484 C 0.89406 0.8736 0.6262 0.0
C485 C 0.89712 0.89955 0.57191 0.0
C486 C 0.83164 0.84271 0.6438 0.0
C487 C 0.86159 0.82186 0.70317 0.0
N488 N 0.87829 0.87904 0.59538 0.0
N489 N 0.88349 0.84151 0.68061 0.0
H490 H 0.36625 0.17631 0.21948 0.0
H491 H 0.3481 0.06071 0.04373 0.0
H492 H 0.27356 0.16027 0.14425 0.0
H493 H 0.44786 0.11117 0.10946 0.0
H494 H 0.31512 0.08627 0.08292 0.0
H495 H 0.39008 0.13978 0.18307 0.0
C496 C 0.35075 0.1648 0.19521 0.0
C497 C 0.31824 0.1718 0.18454 0.0
C498 C 0.34419 0.09149 0.08864 0.0
C499 C 0.34579 0.13014 0.14218 0.0
C500 C 0.363 0.0769 0.06642 0.0
C501 C 0.40089 0.08404 0.07318 0.0
C502 C 0.3634 0.11268 0.11803 0.0
C503 C 0.4188 0.1052 0.1029 0.0
C504 C 0.36444 0.14397 0.17437 0.0
C505 C 0.29887 0.15556 0.15323 0.0
N506 N 0.39994 0.11861 0.12409 0.0
N507 N 0.31323 0.13576 0.13276 0.0
H508 H 0.85551 0.32748 0.19015 0.0
H509 H 0.93971 0.50414 0.09972 0.0
H510 H 0.8269 0.42578 0.20151 0.0
H511 H 0.96398 0.40446 0.0827 0.0
H512 H 0.91696 0.4833 0.15332 0.0
H513 H 0.91137 0.36166 0.16785 0.0
C514 C 0.86128 0.35645 0.18841 0.0
C515 C 0.83595 0.37373 0.19632 0.0
C516 C 0.92805 0.46624 0.13841 0.0
C517 C 0.8997 0.41283 0.17077 0.0
C518 C 0.94094 0.47811 0.10789 0.0
C519 C 0.95255 0.45534 0.08679 0.0
C520 C 0.9256 0.43087 0.147 0.0
C521 C 0.95453 0.42233 0.09832 0.0
C522 C 0.89333 0.37596 0.1759 0.0
C523 C 0.8453 0.41134 0.19477 0.0
N524 N 0.94008 0.4105 0.1274 0.0
N525 N 0.87614 0.42958 0.18134 0.0
H526 H 0.58313 0.75561 0.17984 0.0
H527 H 0.608 0.94388 0.09333 0.0
H528 H 0.68574 0.84076 0.1809 0.0
H529 H 0.5128 0.85026 0.06778 0.0
H530 H 0.63214 0.90948 0.1345 0.0
H531 H 0.55327 0.79232 0.14583 0.0
C532 C 0.59938 0.78195 0.1729 0.0
C533 C 0.63703 0.79507 0.1831 0.0
C534 C 0.60582 0.89653 0.12011 0.0
C535 C 0.60299 0.83728 0.14482 0.0
C536 C 0.59184 0.91624 0.0967 0.0
C537 C 0.55857 0.89974 0.07653 0.0
C538 C 0.58642 0.86004 0.12355 0.0
C539 C 0.53875 0.86396 0.08247 0.0
C540 C 0.5823 0.80288 0.15359 0.0
C541 C 0.65672 0.82942 0.17345 0.0
N542 N 0.55318 0.84512 0.1052 0.0
N543 N 0.63946 0.84933 0.15496 0.0
H544 H 0.20311 0.74531 0.12853 0.0
H545 H 0.11334 0.54249 0.05352 0.0
H546 H 0.18869 0.64918 0.18482 0.0
H547 H 0.10553 0.63565 0.00021 0.0
H548 H 0.16234 0.58253 0.09327 0.0
H549 H 0.18473 0.70669 0.07536 0.0
C550 C 0.19591 0.71617 0.12972 0.0
C551 C 0.19659 0.70038 0.16115 0.0
C552 C 0.15042 0.59412 0.07239 0.0
C553 C 0.17678 0.65638 0.10073 0.0
C554 C 0.12261 0.57121 0.04954 0.0
C555 C 0.10408 0.58608 0.02476 0.0
C556 C 0.15912 0.63187 0.07047 0.0
C557 C 0.11801 0.62332 0.02009 0.0
C558 C 0.18602 0.69423 0.09942 0.0
C559 C 0.18792 0.66253 0.16121 0.0
N560 N 0.14402 0.64521 0.04347 0.0
N561 N 0.17821 0.64188 0.13152 0.0
H562 H 0.24927 0.84111 0.80303 0.0
H563 H 0.38542 0.87448 0.97253 0.0
H564 H 0.31674 0.77609 0.83629 0.0
H565 H 0.39465 0.96068 0.90438 0.0
H566 H 0.32987 0.8381 0.93774 0.0
H567 H 0.27657 0.88364 0.85355 0.0
C568 C 0.26903 0.83535 0.82142 0.0
C569 C 0.28099 0.80527 0.81574 0.0
C570 C 0.34326 0.86554 0.9312 0.0
C571 C 0.31057 0.85219 0.87326 0.0
C572 C 0.37492 0.88623 0.9509 0.0
C573 C 0.39506 0.91995 0.94043 0.0
C574 C 0.33212 0.87858 0.90073 0.0
C575 C 0.38007 0.9344 0.91274 0.0
C576 C 0.2844 0.85944 0.85 0.0
C577 C 0.30681 0.79894 0.83985 0.0
N578 N 0.34986 0.91304 0.89298 0.0
N579 N 0.32064 0.82215 0.86761 0.0
H580 H 0.1418 0.25927 0.83588 0.0
H581 H 0.154 0.43946 0.94508 0.0
H582 H 0.19855 0.36805 0.81065 0.0
H583 H 0.07239 0.33607 0.95288 0.0
H584 H 0.18379 0.40998 0.90719 0.0
H585 H 0.12853 0.28423 0.88912 0.0
C586 C 0.15161 0.28832 0.84165 0.0
C587 C 0.1705 0.31175 0.81858 0.0
C588 C 0.15964 0.3937 0.91762 0.0
C589 C 0.15609 0.34018 0.87922 0.0
C590 C 0.14264 0.41047 0.93931 0.0
C591 C 0.11001 0.39037 0.95133 0.0
C592 C 0.14388 0.35667 0.90792 0.0
C593 C 0.09698 0.35278 0.94348 0.0
C594 C 0.14418 0.30249 0.87199 0.0
C595 C 0.18312 0.3491 0.82738 0.0
N596 N 0.11366 0.33719 0.92177 0.0
N597 N 0.17549 0.36219 0.85694 0.0
H598 H 0.6534 0.22374 0.83041 0.0
H599 H 0.58429 0.02794 0.88803 0.0
H600 H 0.61304 0.13408 0.75466 0.0
H601 H 0.54971 0.11068 0.93654 0.0
H602 H 0.60288 0.06743 0.84151 0.0
H603 H 0.62332 0.18406 0.87317 0.0
C604 C 0.63819 0.19569 0.82285 0.0
C605 C 0.63583 0.1819 0.78915 0.0
C606 C 0.59088 0.07675 0.86218 0.0
C607 C 0.60201 0.13678 0.83768 0.0
C608 C 0.58054 0.05445 0.88871 0.0
C609 C 0.5657 0.06637 0.91598 0.0
C610 C 0.58738 0.11154 0.86356 0.0
C611 C 0.56105 0.10071 0.91578 0.0
C612 C 0.62084 0.17331 0.84709 0.0
C613 C 0.6155 0.14559 0.78044 0.0
N614 N 0.57256 0.12257 0.89015 0.0
N615 N 0.59984 0.12399 0.80477 0.0
H616 H 0.87971 0.69145 0.80202 0.0
H617 H 0.87692 0.50429 0.87503 0.0
H618 H 0.78651 0.59481 0.78429 0.0
H619 H 0.97553 0.594 0.87293 0.0
H620 H 0.84549 0.53329 0.83414 0.0
H621 H 0.91684 0.65431 0.8231 0.0
C622 C 0.86709 0.66244 0.80256 0.0
C623 C 0.8299 0.64625 0.79186 0.0
C624 C 0.87423 0.54625 0.84206 0.0
C625 C 0.87217 0.60356 0.81557 0.0
C626 C 0.89231 0.52952 0.86524 0.0
C627 C 0.9286 0.54734 0.8784 0.0
C628 C 0.89256 0.58109 0.83234 0.0
C629 C 0.94725 0.5797 0.86425 0.0
C630 C 0.88834 0.64118 0.81425 0.0
C631 C 0.81503 0.60848 0.79262 0.0
N632 N 0.92876 0.59605 0.8427 0.0
N633 N 0.83611 0.58847 0.80462 0.0
H634 H 0.21709 0.37288 0.18361 0.0
H635 H 0.02499 0.38269 0.10273 0.0
H636 H 0.11761 0.28278 0.1772 0.0
H637 H 0.12735 0.46693 0.09867 0.0
H638 H 0.05595 0.35156 0.14185 0.0
H639 H 0.18248 0.41154 0.16213 0.0
C640 C 0.18787 0.36114 0.17763 0.0
C641 C 0.17023 0.32437 0.18187 0.0
C642 C 0.07147 0.37721 0.13291 0.0
C643 C 0.13028 0.36889 0.15738 0.0
C644 C 0.05378 0.39525 0.11078 0.0
C645 C 0.07386 0.42689 0.09641 0.0
C646 C 0.10937 0.39106 0.14081 0.0
C647 C 0.11087 0.4422 0.10844 0.0
C648 C 0.16809 0.38339 0.16552 0.0
C649 C 0.13232 0.31085 0.17387 0.0
N650 N 0.12761 0.4237 0.12937 0.0
N651 N 0.11356 0.33312 0.1618 0.0
H652 H 0.10523 0.60814 0.73753 0.0
H653 H 0.04194 0.5853 0.92323 0.0
H654 H 0.1249 0.69561 0.81411 0.0
H655 H 0.06738 0.50186 0.86594 0.0
H656 H 0.05074 0.62281 0.87436 0.0
H657 H 0.06856 0.56646 0.77548 0.0
C658 C 0.10059 0.61873 0.76179 0.0
C659 C 0.11829 0.65492 0.77327 0.0
C660 C 0.05376 0.59605 0.87224 0.0
C661 C 0.07714 0.60808 0.81616 0.0
C662 C 0.04868 0.57472 0.89994 0.0
C663 C 0.05385 0.5407 0.89812 0.0
C664 C 0.06433 0.58323 0.8427 0.0
C665 C 0.06349 0.52823 0.86803 0.0
C666 C 0.08005 0.595 0.78342 0.0
C667 C 0.1119 0.66762 0.80479 0.0
N668 N 0.0687 0.54974 0.84129 0.0
N669 N 0.09212 0.64404 0.82545 0.0
H670 H 0.32169 0.16815 0.81929 0.0
H671 H 0.4959 0.15044 0.93188 0.0
H672 H 0.42878 0.24342 0.813 0.0
H673 H 0.39754 0.06102 0.90321 0.0
H674 H 0.47269 0.18744 0.89188 0.0
H675 H 0.3491 0.13194 0.85574 0.0
C676 C 0.35098 0.17723 0.82575 0.0
C677 C 0.37296 0.20883 0.81293 0.0
C678 C 0.45651 0.15957 0.89419 0.0
C679 C 0.40462 0.16723 0.85463 0.0
C680 C 0.46976 0.13838 0.91688 0.0
C681 C 0.4485 0.10263 0.92129 0.0
C682 C 0.42162 0.14498 0.87622 0.0
C683 C 0.41486 0.08848 0.90104 0.0
C684 C 0.36665 0.15636 0.84636 0.0
C685 C 0.41081 0.21916 0.82221 0.0
N686 N 0.40231 0.10981 0.87982 0.0
N687 N 0.4255 0.19845 0.84261 0.0
H688 H 0.79116 0.34021 0.78733 0.0
H689 H 0.89715 0.34234 0.96935 0.0
H690 H 0.79854 0.24462 0.83642 0.0
H691 H 0.89648 0.43869 0.91809 0.0
H692 H 0.84704 0.30661 0.92817 0.0
H693 H 0.81672 0.37633 0.8408 0.0
C694 C 0.79789 0.32679 0.8095 0.0
C695 C 0.79322 0.28947 0.80745 0.0
C696 C 0.85733 0.33568 0.9263 0.0
C697 C 0.82273 0.33064 0.86853 0.0
C698 C 0.88587 0.35613 0.94989 0.0
C699 C 0.90169 0.39338 0.94649 0.0
C700 C 0.84493 0.35255 0.89889 0.0
C701 C 0.8855 0.40995 0.92131 0.0
C702 C 0.81235 0.34739 0.84003 0.0
C703 C 0.80224 0.27343 0.83686 0.0
N704 N 0.85853 0.38926 0.89789 0.0
N705 N 0.81693 0.29418 0.86613 0.0
H706 H 0.65433 0.75788 0.84798 0.0
H707 H 0.64902 0.94862 0.92587 0.0
H708 H 0.72503 0.85907 0.81856 0.0
H709 H 0.56332 0.84653 0.92526 0.0
H710 H 0.68466 0.91746 0.89567 0.0
H711 H 0.63026 0.79114 0.88783 0.0
C712 C 0.66541 0.7872 0.85057 0.0
C713 C 0.69157 0.80579 0.82993 0.0
C714 C 0.65809 0.90203 0.90231 0.0
C715 C 0.66323 0.84427 0.8748 0.0
C716 C 0.63772 0.91973 0.91949 0.0
C717 C 0.60293 0.90023 0.92791 0.0
C718 C 0.6438 0.86452 0.89412 0.0
C719 C 0.58975 0.86285 0.91905 0.0
C720 C 0.6514 0.80622 0.87309 0.0
C721 C 0.70502 0.84378 0.83427 0.0
N722 N 0.61017 0.84633 0.9028 0.0
N723 N 0.69026 0.86193 0.85593 0.0
H724 H 0.86319 0.73104 0.12726 0.0
H725 H 0.85337 0.54234 0.03389 0.0
H726 H 0.79069 0.62703 0.14901 0.0
H727 H 0.93495 0.64418 0.02069 0.0
H728 H 0.82342 0.57463 0.0689 0.0
H729 H 0.88358 0.7011 0.08132 0.0
C730 C 0.85144 0.70198 0.12224 0.0
C731 C 0.82565 0.6814 0.14223 0.0
C732 C 0.84768 0.58994 0.05805 0.0
C733 C 0.84864 0.6471 0.08988 0.0
C734 C 0.86473 0.57153 0.03795 0.0
C735 C 0.89704 0.59051 0.02477 0.0
C736 C 0.86305 0.62756 0.06499 0.0
C737 C 0.91039 0.62836 0.03075 0.0
C738 C 0.86304 0.68491 0.09604 0.0
C739 C 0.81105 0.64388 0.13452 0.0
N740 N 0.89352 0.64561 0.05071 0.0
N741 N 0.82293 0.6279 0.10908 0.0
H742 H 0.40524 0.8052 0.20868 0.0
H743 H 0.37384 0.90237 0.03841 0.0
H744 H 0.30052 0.79889 0.1558 0.0
H745 H 0.48072 0.92303 0.09314 0.0
H746 H 0.34842 0.85835 0.07862 0.0
H747 H 0.43501 0.84397 0.16511 0.0
C748 C 0.38855 0.81198 0.18798 0.0
C749 C 0.35035 0.79893 0.18589 0.0
C750 C 0.37746 0.87236 0.08204 0.0
C751 C 0.38406 0.84264 0.13615 0.0
C752 C 0.39201 0.89755 0.05904 0.0
C753 C 0.42927 0.91688 0.06301 0.0
C754 C 0.40021 0.8665 0.10956 0.0
C755 C 0.45173 0.90885 0.08955 0.0
C756 C 0.40555 0.83398 0.16317 0.0
C757 C 0.33001 0.80842 0.15858 0.0
N758 N 0.43672 0.88444 0.11228 0.0
N759 N 0.34714 0.82964 0.13486 0.0
H760 H 0.71534 0.14248 0.21241 0.0
H761 H 0.63458 0.07677 0.02236 0.0
H762 H 0.75612 0.1968 0.12443 0.0
H763 H 0.57837 0.05017 0.11151 0.0
H764 H 0.69262 0.10049 0.0595 0.0
H765 H 0.68151 0.08854 0.17586 0.0
C766 C 0.71848 0.14244 0.18564 0.0
C767 C 0.73758 0.17428 0.17135 0.0
C768 C 0.66767 0.08853 0.07082 0.0
C769 C 0.69837 0.11341 0.12913 0.0
C770 C 0.63476 0.07525 0.04973 0.0
C771 C 0.60211 0.06258 0.0643 0.0
C772 C 0.66742 0.08911 0.10643 0.0
C773 C 0.60324 0.06049 0.09964 0.0
C774 C 0.69892 0.11178 0.16464 0.0
C775 C 0.7407 0.17299 0.13629 0.0
N776 N 0.63538 0.07421 0.11963 0.0
N777 N 0.72047 0.14331 0.11616 0.0
H778 H 0.6283 0.68124 0.7704 0.0
H779 H 0.62546 0.5799 0.94487 0.0
H780 H 0.72111 0.66296 0.82704 0.0
H781 H 0.5248 0.57314 0.88409 0.0
H782 H 0.6593 0.61583 0.90311 0.0
H783 H 0.58906 0.64634 0.81133 0.0
C784 C 0.64049 0.6698 0.79119 0.0
C785 C 0.67838 0.6753 0.79501 0.0
C786 C 0.62984 0.60676 0.89861 0.0
C787 C 0.63342 0.63557 0.84232 0.0
C788 C 0.61021 0.5861 0.92272 0.0
C789 C 0.57186 0.57278 0.91818 0.0
C790 C 0.61157 0.61493 0.86905 0.0
C791 C 0.55423 0.58266 0.88887 0.0
C792 C 0.61798 0.64991 0.81461 0.0
C793 C 0.6923 0.65977 0.82271 0.0
N794 N 0.5742 0.60296 0.86531 0.0
N795 N 0.67004 0.64099 0.84505 0.0
H796 H 0.2937 0.64175 0.78165 0.0
H797 H 0.45131 0.65518 0.93309 0.0
H798 H 0.31972 0.71906 0.8684 0.0
H799 H 0.38886 0.55331 0.8793 0.0
H800 H 0.41536 0.68556 0.89799 0.0
H801 H 0.33949 0.61529 0.80704 0.0
C802 C 0.30929 0.6534 0.80581 0.0
C803 C 0.30265 0.68247 0.82308 0.0
C804 C 0.41003 0.65665 0.89349 0.0
C805 C 0.35551 0.65293 0.85175 0.0
C806 C 0.43084 0.63932 0.91324 0.0
C807 C 0.423 0.60153 0.90937 0.0
C808 C 0.38154 0.63624 0.86927 0.0
C809 C 0.39574 0.58245 0.88335 0.0
C810 C 0.33532 0.63826 0.82026 0.0
C811 C 0.32364 0.69646 0.85434 0.0
N812 N 0.37583 0.59993 0.86446 0.0
N813 N 0.34914 0.68167 0.86758 0.0
H814 H 0.24898 0.32209 0.80327 0.0
H815 H 0.43284 0.46561 0.87421 0.0
H816 H 0.33592 0.36983 0.74282 0.0
H817 H 0.35049 0.40533 0.93438 0.0
H818 H 0.38836 0.44931 0.8234 0.0
H819 H 0.27394 0.3722 0.84585 0.0
C820 C 0.27197 0.34439 0.79788 0.0
C821 C 0.29013 0.34208 0.76938 0.0
C822 C 0.37964 0.44046 0.8478 0.0
C823 C 0.32105 0.39776 0.81956 0.0
C824 C 0.40498 0.44962 0.87669 0.0
C825 C 0.39511 0.43599 0.90797 0.0
C826 C 0.34435 0.41729 0.85041 0.0
C827 C 0.35902 0.41559 0.91034 0.0
C828 C 0.28689 0.37264 0.8227 0.0
C829 C 0.32136 0.37059 0.76473 0.0
N830 N 0.33492 0.40637 0.88169 0.0
N831 N 0.33645 0.39689 0.79008 0.0
H832 H 0.72973 0.35804 0.84833 0.0
H833 H 0.54003 0.37691 0.88367 0.0
H834 H 0.63901 0.33623 0.76984 0.0
H835 H 0.63957 0.43766 0.94555 0.0
H836 H 0.57593 0.35969 0.84286 0.0
H837 H 0.69819 0.3875 0.88472 0.0
C838 C 0.70345 0.36016 0.83854 0.0
C839 C 0.68673 0.34452 0.80621 0.0
C840 C 0.58993 0.37695 0.86527 0.0
C841 C 0.65022 0.37717 0.84792 0.0
C842 C 0.56946 0.38647 0.88883 0.0
C843 C 0.58682 0.40857 0.91826 0.0
C844 C 0.62806 0.3891 0.87135 0.0
C845 C 0.62506 0.42048 0.92328 0.0
C846 C 0.68548 0.37688 0.85931 0.0
C847 C 0.65279 0.34802 0.79461 0.0
N848 N 0.64444 0.41032 0.90017 0.0
N849 N 0.63528 0.36339 0.81576 0.0
H850 H 0.70124 0.38467 0.148 0.0
H851 H 0.51155 0.3405 0.04856 0.0
H852 H 0.62556 0.27877 0.15808 0.0
H853 H 0.56498 0.44513 0.10131 0.0
H854 H 0.54896 0.31425 0.08714 0.0
H855 H 0.6504 0.40573 0.12747 0.0
C856 C 0.67379 0.36592 0.14606 0.0
C857 C 0.66751 0.33002 0.15472 0.0
C858 C 0.55153 0.3427 0.09089 0.0
C859 C 0.60914 0.35373 0.13069 0.0
C860 C 0.53 0.35766 0.06907 0.0
C861 C 0.53578 0.39523 0.07125 0.0
C862 C 0.57908 0.36569 0.11446 0.0
C863 C 0.5602 0.41618 0.09824 0.0
C864 C 0.64476 0.37799 0.1346 0.0
C865 C 0.63138 0.30677 0.15178 0.0
N866 N 0.58165 0.40136 0.11814 0.0
N867 N 0.60343 0.31883 0.13931 0.0
H868 H 0.67624 0.63904 0.21701 0.0
H869 H 0.60899 0.61985 0.02627 0.0
H870 H 0.74155 0.70259 0.14477 0.0
H871 H 0.57734 0.52741 0.08722 0.0
H872 H 0.66184 0.64755 0.06808 0.0
H873 H 0.64367 0.59415 0.17047 0.0
C874 C 0.68432 0.64312 0.19156 0.0
C875 C 0.71113 0.67497 0.18469 0.0
C876 C 0.64393 0.62078 0.07197 0.0
C877 C 0.67377 0.62417 0.13142 0.0
C878 C 0.61377 0.60505 0.04812 0.0
C879 C 0.58875 0.57161 0.05364 0.0
C880 C 0.64827 0.60352 0.10212 0.0
C881 C 0.59609 0.55336 0.08222 0.0
C882 C 0.66584 0.61744 0.16503 0.0
C883 C 0.72078 0.67869 0.15127 0.0
N884 N 0.62469 0.57004 0.10602 0.0
N885 N 0.70155 0.65406 0.12578 0.0
H886 H 0.34623 0.65779 0.22159 0.0
H887 H 0.43975 0.61734 0.09547 0.0
H888 H 0.25788 0.63519 0.14055 0.0
H889 H 0.33607 0.54879 0.04585 0.0
H890 H 0.40883 0.63436 0.14052 0.0
H891 H 0.37651 0.62464 0.1872 0.0
C892 C 0.33292 0.64519 0.1969 0.0
C893 C 0.30005 0.64978 0.18346 0.0
C894 C 0.39283 0.61492 0.12029 0.0
C895 C 0.33475 0.61331 0.14372 0.0
C896 C 0.41042 0.60568 0.09409 0.0
C897 C 0.39044 0.58176 0.0666 0.0
C898 C 0.35487 0.60036 0.11904 0.0
C899 C 0.35253 0.56741 0.06646 0.0
C900 C 0.35041 0.62684 0.17705 0.0
C901 C 0.2837 0.63284 0.15144 0.0
N902 N 0.33588 0.57736 0.09209 0.0
N903 N 0.30144 0.61569 0.13244 0.0
H904 H 0.26654 0.30055 0.14662 0.0
H905 H 0.45922 0.4227 0.09063 0.0
H906 H 0.36627 0.32066 0.21347 0.0
H907 H 0.35337 0.41107 0.03768 0.0
H908 H 0.42889 0.38234 0.13375 0.0
H909 H 0.30054 0.33764 0.10506 0.0
C910 C 0.2957 0.31274 0.15273 0.0
C911 C 0.31324 0.30721 0.18404 0.0
C912 C 0.41244 0.38862 0.11257 0.0
C913 C 0.35321 0.35061 0.13545 0.0
C914 C 0.4298 0.41151 0.08776 0.0
C915 C 0.40903 0.42078 0.06028 0.0
C916 C 0.37403 0.37447 0.10971 0.0
C917 C 0.37086 0.40531 0.05831 0.0
C918 C 0.31527 0.33414 0.12875 0.0
C919 C 0.35133 0.32411 0.1899 0.0
N920 N 0.35492 0.38329 0.08238 0.0
N921 N 0.36998 0.34493 0.16594 0.0
H922 H 0.77442 0.6381 0.6628 0.0
H923 H 0.95365 0.62932 0.58489 0.0
H924 H 0.87615 0.72533 0.66968 0.0
H925 H 0.84825 0.55736 0.54282 0.0
H926 H 0.92414 0.65915 0.62202 0.0
H927 H 0.79868 0.60396 0.62243 0.0
C928 C 0.8015 0.65027 0.65549 0.0
C929 C 0.82339 0.68452 0.66988 0.0
C930 C 0.90727 0.63696 0.6046 0.0
C931 C 0.85132 0.64558 0.6247 0.0
C932 C 0.92418 0.61974 0.58332 0.0
C933 C 0.90347 0.591 0.56017 0.0
C934 C 0.86913 0.62563 0.60309 0.0
C935 C 0.86531 0.57957 0.56007 0.0
C936 C 0.81536 0.63073 0.63267 0.0
C937 C 0.85834 0.69891 0.65968 0.0
N938 N 0.84927 0.59702 0.58116 0.0
N939 N 0.8712 0.67932 0.63811 0.0
H940 H 0.39023 0.80909 0.68262 0.0
H941 H 0.45047 0.00255 0.61994 0.0
H942 H 0.37501 0.9006 0.73667 0.0
H943 H 0.48593 0.91578 0.58147 0.0
H944 H 0.43541 0.97005 0.67131 0.0
H945 H 0.43824 0.85044 0.65485 0.0
C946 C 0.39746 0.83794 0.68901 0.0
C947 C 0.37788 0.85167 0.71092 0.0
C948 C 0.4476 0.95858 0.65218 0.0
C949 C 0.43222 0.89913 0.67894 0.0
C950 C 0.45597 0.97704 0.6229 0.0
C951 C 0.46936 0.96154 0.59681 0.0
C952 C 0.45157 0.92395 0.65455 0.0
C953 C 0.47626 0.9287 0.60147 0.0
C954 C 0.42502 0.86158 0.67332 0.0
C955 C 0.38892 0.88907 0.7192 0.0
N956 N 0.46656 0.91053 0.62954 0.0
N957 N 0.4148 0.91169 0.70244 0.0
H958 H 0.17069 0.33141 0.66375 0.0
H959 H 0.99669 0.34331 0.54654 0.0
H960 H 0.06433 0.25415 0.66865 0.0
H961 H 0.09485 0.43355 0.57296 0.0
H962 H 0.01961 0.30833 0.58898 0.0
H963 H 0.14292 0.36648 0.62634 0.0
C964 C 0.14147 0.3217 0.65686 0.0
C965 C 0.11984 0.28978 0.66943 0.0
C966 C 0.03581 0.33594 0.58563 0.0
C967 C 0.08769 0.33008 0.62653 0.0
C968 C 0.02272 0.35597 0.56152 0.0
C969 C 0.04409 0.39128 0.55572 0.0
C970 C 0.07059 0.35128 0.60366 0.0
C971 C 0.07754 0.40631 0.57608 0.0
C972 C 0.12556 0.34192 0.63566 0.0
C973 C 0.08204 0.27865 0.65959 0.0
N974 N 0.08989 0.38611 0.5987 0.0
N975 N 0.06713 0.29872 0.63857 0.0
H976 H 0.7246 0.16345 0.67557 0.0
H977 H 0.61722 0.14461 0.49542 0.0
H978 H 0.69378 0.2485 0.62586 0.0
H979 H 0.6266 0.05599 0.55492 0.0
H980 H 0.67047 0.18515 0.53015 0.0
H981 H 0.7145 0.12933 0.6209 0.0
C982 C 0.71699 0.1756 0.65297 0.0
C983 C 0.7095 0.20862 0.65536 0.0
C984 C 0.6616 0.15661 0.53495 0.0
C985 C 0.69646 0.16898 0.59281 0.0
C986 C 0.6312 0.13341 0.51514 0.0
C987 C 0.61646 0.09735 0.52355 0.0
C988 C 0.6768 0.14361 0.56353 0.0
C989 C 0.63636 0.08394 0.54838 0.0
C990 C 0.71097 0.15592 0.62173 0.0
C991 C 0.69903 0.22271 0.62525 0.0
N992 N 0.66494 0.1074 0.56833 0.0
N993 N 0.69204 0.20242 0.59526 0.0
H994 H 0.72889 0.29972 0.33795 0.0
H995 H 0.91004 0.4665 0.37251 0.0
H996 H 0.8083 0.33507 0.26721 0.0
H997 H 0.86226 0.3927 0.4468 0.0
H998 H 0.85524 0.43918 0.33209 0.0
H999 H 0.7602 0.35496 0.37458 0.0
C1000 C 0.7519 0.32001 0.32939 0.0
C1001 C 0.76585 0.31346 0.29931 0.0
C1002 C 0.85621 0.43003 0.35772 0.0
C1003 C 0.80186 0.37573 0.34097 0.0
C1004 C 0.8873 0.44555 0.3807 0.0
C1005 C 0.89043 0.43123 0.41257 0.0
C1006 C 0.82827 0.40046 0.36713 0.0
C1007 C 0.86071 0.40399 0.42217 0.0
C1008 C 0.76968 0.35137 0.3502 0.0
C1009 C 0.79595 0.34006 0.28941 0.0
N1010 N 0.83089 0.3891 0.39932 0.0
N1011 N 0.81343 0.36985 0.3105 0.0
H1012 H 0.65027 0.76573 0.33793 0.0
H1013 H 0.65775 0.94525 0.44671 0.0
H1014 H 0.71899 0.87349 0.32202 0.0
H1015 H 0.56884 0.84514 0.44423 0.0
H1016 H 0.68822 0.91535 0.41011 0.0
H1017 H 0.62755 0.79099 0.38565 0.0
C1018 C 0.66081 0.79458 0.34473 0.0
C1019 C 0.68612 0.81769 0.32586 0.0
C1020 C 0.66216 0.89985 0.41779 0.0
C1021 C 0.66068 0.84649 0.3801 0.0
C1022 C 0.64473 0.91688 0.43875 0.0
C1023 C 0.61037 0.89785 0.44815 0.0
C1024 C 0.64518 0.86351 0.40608 0.0
C1025 C 0.59511 0.86099 0.4373 0.0
C1026 C 0.64782 0.80895 0.37181 0.0
C1027 C 0.69903 0.85482 0.33562 0.0
N1028 N 0.61249 0.84506 0.41653 0.0
N1029 N 0.68607 0.86808 0.362 0.0
H1030 H 0.19974 0.69718 0.31828 0.0
H1031 H 0.01693 0.58159 0.3916 0.0
H1032 H 0.09389 0.70296 0.27946 0.0
H1033 H 0.12412 0.57235 0.41872 0.0
H1034 H 0.0433 0.62825 0.35243 0.0
H1035 H 0.17115 0.65324 0.35746 0.0
C1036 C 0.17039 0.68915 0.31796 0.0
C1037 C 0.14916 0.70368 0.29551 0.0
C1038 C 0.06084 0.61584 0.36703 0.0
C1039 C 0.116 0.65311 0.34053 0.0
C1040 C 0.04587 0.58935 0.38938 0.0
C1041 C 0.06828 0.57281 0.40821 0.0
C1042 C 0.09837 0.62579 0.36392 0.0
C1043 C 0.1056 0.58391 0.40448 0.0
C1044 C 0.154 0.66398 0.3404 0.0
C1045 C 0.11123 0.69229 0.29634 0.0
N1046 N 0.11934 0.60958 0.38282 0.0
N1047 N 0.09575 0.66756 0.31856 0.0
H1048 H 0.28175 0.1089 0.306 0.0
H1049 H 0.47766 0.10708 0.38541 0.0
H1050 H 0.37958 0.20032 0.30803 0.0
H1051 H 0.37712 0.02327 0.39725 0.0
H1052 H 0.44403 0.13528 0.34581 0.0
H1053 H 0.31797 0.07271 0.33019 0.0
C1054 C 0.31093 0.12143 0.31156 0.0
C1055 C 0.32766 0.15785 0.3053 0.0
C1056 C 0.42945 0.11038 0.35662 0.0
C1057 C 0.36939 0.11625 0.3328 0.0
C1058 C 0.44865 0.09402 0.37905 0.0
C1059 C 0.43001 0.06329 0.3955 0.0
C1060 C 0.39143 0.0958 0.35051 0.0
C1061 C 0.39257 0.04728 0.38569 0.0
C1062 C 0.3316 0.10062 0.32524 0.0
C1063 C 0.36555 0.17248 0.31285 0.0
N1064 N 0.37438 0.06414 0.36432 0.0
N1065 N 0.38518 0.15163 0.32637 0.0
H1066 H 0.72786 0.89593 0.70547 0.0
H1067 H 0.53946 0.90129 0.61043 0.0
H1068 H 0.6284 0.80553 0.69306 0.0
H1069 H 0.64315 0.98025 0.59874 0.0
H1070 H 0.56931 0.8749 0.6547 0.0
H1071 H 0.69487 0.93404 0.67861 0.0
C1072 C 0.69901 0.88412 0.69729 0.0
C1073 C 0.68089 0.84735 0.70107 0.0
C1074 C 0.58542 0.89842 0.6429 0.0
C1075 C 0.64304 0.89097 0.67075 0.0
C1076 C 0.56836 0.91379 0.61776 0.0
C1077 C 0.58896 0.94256 0.60018 0.0
C1078 C 0.62336 0.91182 0.65049 0.0
C1079 C 0.62626 0.95775 0.61121 0.0
C1080 C 0.68024 0.90596 0.68206 0.0
C1081 C 0.64351 0.8336 0.69023 0.0
N1082 N 0.64246 0.94169 0.63525 0.0
N1083 N 0.62583 0.85541 0.67538 0.0
H1084 H 0.64342 0.16236 0.29263 0.0
H1085 H 0.5582 0.98323 0.37703 0.0
H1086 H 0.66822 0.06255 0.27648 0.0
H1087 H 0.53974 0.08443 0.40151 0.0
H1088 H 0.57628 0.00482 0.3221 0.0
H1089 H 0.58666 0.1284 0.31368 0.0
C1090 C 0.63666 0.13317 0.293 0.0
C1091 C 0.66127 0.1153 0.28431 0.0
C1092 C 0.56739 0.02206 0.33899 0.0
C1093 C 0.59644 0.07647 0.3083 0.0
C1094 C 0.55717 0.00975 0.37026 0.0
C1095 C 0.54887 0.03279 0.39378 0.0
C1096 C 0.57085 0.05815 0.33219 0.0
C1097 C 0.54689 0.06641 0.38401 0.0
C1098 C 0.60407 0.11379 0.30478 0.0
C1099 C 0.65058 0.07748 0.28412 0.0
N1100 N 0.55904 0.0787 0.35417 0.0
N1101 N 0.61925 0.05934 0.29678 0.0
H1102 H 0.91373 0.74787 0.30593 0.0
H1103 H 0.88751 0.55648 0.38685 0.0
H1104 H 0.81511 0.657 0.28666 0.0
H1105 H 0.98171 0.65056 0.41449 0.0
H1106 H 0.86282 0.59159 0.34677 0.0
H1107 H 0.94022 0.71195 0.34375 0.0
C1108 C 0.89756 0.72035 0.30972 0.0
C1109 C 0.86215 0.70536 0.29298 0.0
C1110 C 0.88899 0.60453 0.36143 0.0
C1111 C 0.89257 0.66392 0.33611 0.0
C1112 C 0.9033 0.58443 0.38424 0.0
C1113 C 0.93671 0.60064 0.40439 0.0
C1114 C 0.90817 0.64118 0.35856 0.0
C1115 C 0.95585 0.63692 0.39962 0.0
C1116 C 0.91278 0.69984 0.33131 0.0
C1117 C 0.84247 0.66966 0.29907 0.0
N1118 N 0.94118 0.65603 0.37737 0.0
N1119 N 0.85802 0.65009 0.32002 0.0
H1120 H 0.31103 0.85767 0.29816 0.0
H1121 H 0.39449 0.95435 0.44438 0.0
H1122 H 0.29978 0.76037 0.35191 0.0
H1123 H 0.40663 0.85318 0.47666 0.0
H1124 H 0.34379 0.92059 0.40294 0.0
H1125 H 0.33408 0.89371 0.35123 0.0
C1126 C 0.31329 0.84385 0.32129 0.0
C1127 C 0.30401 0.80592 0.32047 0.0
C1128 C 0.35756 0.90568 0.41895 0.0
C1129 C 0.32958 0.84727 0.3822 0.0
C1130 C 0.38616 0.92503 0.44315 0.0
C1131 C 0.40615 0.90662 0.46265 0.0
C1132 C 0.34973 0.8679 0.41393 0.0
C1133 C 0.39309 0.86858 0.46097 0.0
C1134 C 0.32585 0.86454 0.35194 0.0
C1135 C 0.30721 0.78956 0.35127 0.0
N1136 N 0.36636 0.85046 0.43623 0.0
N1137 N 0.32017 0.81039 0.38084 0.0
H1138 H 0.22329 0.33126 0.32993 0.0
H1139 H 0.03829 0.3666 0.371 0.0
H1140 H 0.1166 0.28191 0.27505 0.0
H1141 H 0.14181 0.42628 0.42707 0.0
H1142 H 0.0692 0.33726 0.335 0.0
H1143 H 0.197 0.36849 0.36522 0.0
C1144 C 0.19456 0.32838 0.32523 0.0
C1145 C 0.17199 0.30295 0.29997 0.0
C1146 C 0.08545 0.35678 0.35508 0.0
C1147 C 0.14205 0.3452 0.33962 0.0
C1148 C 0.06765 0.37356 0.37582 0.0
C1149 C 0.08736 0.3988 0.40236 0.0
C1150 C 0.12348 0.3648 0.36081 0.0
C1151 C 0.12552 0.40692 0.40691 0.0
C1152 C 0.1796 0.34953 0.3453 0.0
C1153 C 0.13502 0.30045 0.2947 0.0
N1154 N 0.1424 0.38974 0.38648 0.0
N1155 N 0.12138 0.32108 0.31429 0.0
H1156 H 0.36331 0.23226 0.65494 0.0
H1157 H 0.3637 0.05438 0.54879 0.0
H1158 H 0.2991 0.12357 0.6736 0.0
H1159 H 0.4502 0.15639 0.55155 0.0
H1160 H 0.33221 0.08248 0.58589 0.0
H1161 H 0.38811 0.20742 0.60868 0.0
C1162 C 0.35424 0.20322 0.64909 0.0
C1163 C 0.32952 0.17981 0.66826 0.0
C1164 C 0.35798 0.09876 0.5782 0.0
C1165 C 0.35741 0.15147 0.61558 0.0
C1166 C 0.376 0.08279 0.55693 0.0
C1167 C 0.40995 0.10294 0.54737 0.0
C1168 C 0.37389 0.13517 0.58997 0.0
C1169 C 0.42426 0.13974 0.55853 0.0
C1170 C 0.36844 0.18911 0.62283 0.0
C1171 C 0.31854 0.14247 0.65971 0.0
N1172 N 0.40623 0.15467 0.57949 0.0
N1173 N 0.33264 0.12942 0.63399 0.0
H1174 H 0.80132 0.27544 0.63012 0.0
H1175 H 0.97851 0.42021 0.57288 0.0
H1176 H 0.90414 0.3109 0.69416 0.0
H1177 H 0.86815 0.40551 0.52942 0.0
H1178 H 0.95487 0.37244 0.61192 0.0
H1179 H 0.82893 0.31527 0.5871 0.0
C1180 C 0.82976 0.29156 0.63514 0.0
C1181 C 0.85034 0.29019 0.66599 0.0
C1182 C 0.93598 0.37972 0.5937 0.0
C1183 C 0.88215 0.33589 0.61671 0.0
C1184 C 0.94943 0.40676 0.57141 0.0
C1185 C 0.92517 0.41709 0.54832 0.0
C1186 C 0.89819 0.36278 0.59233 0.0
C1187 C 0.88776 0.39886 0.54729 0.0
C1188 C 0.84551 0.3143 0.61053 0.0
C1189 C 0.88721 0.3114 0.67085 0.0
N1190 N 0.87546 0.37268 0.56901 0.0
N1191 N 0.90196 0.3336 0.64649 0.0
H1192 H 0.26283 0.69856 0.62563 0.0
H1193 H 0.11731 0.61738 0.50868 0.0
H1194 H 0.18899 0.63043 0.68899 0.0
H1195 H 0.09868 0.52164 0.56563 0.0
H1196 H 0.17465 0.6451 0.54461 0.0
H1197 H 0.23307 0.65577 0.57635 0.0
C1198 C 0.24097 0.67419 0.62926 0.0
C1199 C 0.22752 0.66835 0.661 0.0
C1200 C 0.15892 0.61746 0.54845 0.0
C1201 C 0.1937 0.61982 0.60538 0.0
C1202 C 0.126 0.60178 0.52812 0.0
C1203 C 0.10304 0.56762 0.53487 0.0
C1204 C 0.16826 0.59919 0.57628 0.0
C1205 C 0.11553 0.54828 0.56 0.0
C1206 C 0.22396 0.64996 0.60122 0.0
C1207 C 0.19945 0.63629 0.66464 0.0
N1208 N 0.14678 0.56489 0.5807 0.0
N1209 N 0.18319 0.6134 0.63706 0.0
loop_
_geom_bond_atom_site_label_1
_geom_bond_atom_site_label_2
_geom_bond_distance
_geom_bond_site_symmetry_2
_ccdc_geom_bond_type
Zn0 O6 1.969 . S
Zn0 O7 1.965 . S
Zn0 O11 2.024 . S
Zn0 O16 1.969 . S
Zn1 O8 1.969 . S
Zn1 O14 1.969 . S
Zn1 O15 1.965 . S
Zn1 O17 2.024 . S
C2 O3 1.229 . S
C2 O11 1.058 . S
O3 C2 1.229 . S
C4 O5 1.229 . S
C4 O17 1.058 . S
O5 C4 1.229 . S
O6 Zn0 1.969 . S
O6 C9 1.267 . S
O7 Zn0 1.965 . S
O7 C18 1.260 . S
O8 Zn1 1.969 . S
O8 C18 1.258 . S
C9 O6 1.267 . S
C9 O10 1.228 . S
O10 C9 1.228 . S
O11 Zn0 2.024 . S
O11 C2 1.058 . S
C12 O13 1.228 . S
C12 O14 1.267 . S
O13 C12 1.228 . S
O14 Zn1 1.969 . S
O14 C12 1.267 . S
O15 Zn1 1.965 . S
O15 C19 1.260 . S
O16 Zn0 1.969 . S
O16 C19 1.258 . S
O17 Zn1 2.024 . S
O17 C4 1.058 . S
C18 O7 1.260 . S
C18 O8 1.258 . S
C19 O15 1.260 . S
C19 O16 1.258 . S
Zn20 O26 1.969 . S
Zn20 O27 1.965 . S
Zn20 O31 2.024 . S
Zn20 O36 1.969 . S
Zn21 O28 1.969 . S
Zn21 O34 1.969 . S
Zn21 O35 1.965 . S
Zn21 O37 2.024 . S
C22 O23 1.229 . S
C22 O31 1.058 . S
O23 C22 1.229 . S
C24 O25 1.229 . S
C24 O37 1.058 . S
O25 C24 1.229 . S
O26 Zn20 1.969 . S
O26 C29 1.267 . S
O27 Zn20 1.965 . S
O27 C38 1.260 . S
O28 Zn21 1.969 . S
O28 C38 1.258 . S
C29 O26 1.267 . S
C29 O30 1.228 . S
O30 C29 1.228 . S
O31 Zn20 2.024 . S
O31 C22 1.058 . S
C32 O33 1.228 . S
C32 O34 1.267 . S
O33 C32 1.228 . S
O34 Zn21 1.969 . S
O34 C32 1.267 . S
O35 Zn21 1.965 . S
O35 C39 1.260 . S
O36 Zn20 1.969 . S
O36 C39 1.258 . S
O37 Zn21 2.024 . S
O37 C24 1.058 . S
C38 O27 1.260 . S
C38 O28 1.258 . S
C39 O35 1.260 . S
C39 O36 1.258 . S
Zn40 O46 1.969 . S
Zn40 O47 1.965 . S
Zn40 O51 2.024 . S
Zn40 O56 1.969 . S
Zn41 O48 1.969 . S
Zn41 O54 1.969 . S
Zn41 O55 1.965 . S
Zn41 O57 2.024 . S
C42 O43 1.229 . S
C42 O51 1.058 . S
O43 C42 1.229 . S
C44 O45 1.229 . S
C44 O57 1.058 . S
O45 C44 1.229 . S
O46 Zn40 1.969 . S
O46 C49 1.267 . S
O47 Zn40 1.965 . S
O47 C58 1.260 . S
O48 Zn41 1.969 . S
O48 C58 1.258 . S
C49 O46 1.267 . S
C49 O50 1.228 . S
O50 C49 1.228 . S
O51 Zn40 2.024 . S
O51 C42 1.058 . S
C52 O53 1.228 . S
C52 O54 1.267 . S
O53 C52 1.228 . S
O54 Zn41 1.969 . S
O54 C52 1.267 . S
O55 Zn41 1.965 . S
O55 C59 1.260 . S
O56 Zn40 1.969 . S
O56 C59 1.258 . S
O57 Zn41 2.024 . S
O57 C44 1.058 . S
C58 O47 1.260 . S
C58 O48 1.258 . S
C59 O55 1.260 . S
C59 O56 1.258 . S
Zn60 O66 1.969 . S
Zn60 O67 1.965 . S
Zn60 O71 2.024 . S
Zn60 O76 1.969 . S
Zn61 O68 1.969 . S
Zn61 O74 1.969 . S
Zn61 O75 1.965 . S
Zn61 O77 2.024 . S
C62 O63 1.229 . S
C62 O71 1.058 . S
O63 C62 1.229 . S
C64 O65 1.229 . S
C64 O77 1.058 . S
O65 C64 1.229 . S
O66 Zn60 1.969 . S
O66 C69 1.267 . S
O67 Zn60 1.965 . S
O67 C78 1.260 . S
O68 Zn61 1.969 . S
O68 C78 1.258 . S
C69 O66 1.267 . S
C69 O70 1.228 . S
O70 C69 1.228 . S
O71 Zn60 2.024 . S
O71 C62 1.058 . S
C72 O73 1.228 . S
C72 O74 1.267 . S
O73 C72 1.228 . S
O74 Zn61 1.969 . S
O74 C72 1.267 . S
O75 Zn61 1.965 . S
O75 C79 1.260 . S
O76 Zn60 1.969 . S
O76 C79 1.258 . S
O77 Zn61 2.024 . S
O77 C64 1.058 . S
C78 O67 1.260 . S
C78 O68 1.258 . S
C79 O75 1.260 . S
C79 O76 1.258 . S
Zn80 O86 1.969 . S
Zn80 O87 1.965 . S
Zn80 O91 2.024 . S
Zn80 O96 1.969 . S
Zn81 O88 1.969 . S
Zn81 O94 1.969 . S
Zn81 O95 1.965 . S
Zn81 O97 2.024 . S
C82 O83 1.229 . S
C82 O91 1.058 . S
O83 C82 1.229 . S
C84 O85 1.229 . S
C84 O97 1.058 . S
O85 C84 1.229 . S
O86 Zn80 1.969 . S
O86 C89 1.267 . S
O87 Zn80 1.965 . S
O87 C98 1.260 . S
O88 Zn81 1.969 . S
O88 C98 1.258 . S
C89 O86 1.267 . S
C89 O90 1.228 . S
O90 C89 1.228 . S
O91 Zn80 2.024 . S
O91 C82 1.058 . S
C92 O93 1.228 . S
C92 O94 1.267 . S
O93 C92 1.228 . S
O94 Zn81 1.969 . S
O94 C92 1.267 . S
O95 Zn81 1.965 . S
O95 C99 1.260 . S
O96 Zn80 1.969 . S
O96 C99 1.258 . S
O97 Zn81 2.024 . S
O97 C84 1.058 . S
C98 O87 1.260 . S
C98 O88 1.258 . S
C99 O95 1.260 . S
C99 O96 1.258 . S
Zn100 O106 1.969 . S
Zn100 O107 1.965 . S
Zn100 O111 2.024 . S
Zn100 O116 1.969 . S
Zn101 O108 1.969 . S
Zn101 O114 1.969 . S
Zn101 O115 1.965 . S
Zn101 O117 2.024 . S
C102 O103 1.229 . S
C102 O111 1.058 . S
O103 C102 1.229 . S
C104 O105 1.229 . S
C104 O117 1.058 . S
O105 C104 1.229 . S
O106 Zn100 1.969 . S
O106 C109 1.267 . S
O107 Zn100 1.965 . S
O107 C118 1.260 . S
O108 Zn101 1.969 . S
O108 C118 1.258 . S
C109 O106 1.267 . S
C109 O110 1.228 . S
O110 C109 1.228 . S
O111 Zn100 2.024 . S
O111 C102 1.058 . S
C112 O113 1.228 . S
C112 O114 1.267 . S
O113 C112 1.228 . S
O114 Zn101 1.969 . S
O114 C112 1.267 . S
O115 Zn101 1.965 . S
O115 C119 1.260 . S
O116 Zn100 1.969 . S
O116 C119 1.258 . S
O117 Zn101 2.024 . S
O117 C104 1.058 . S
C118 O107 1.260 . S
C118 O108 1.258 . S
C119 O115 1.260 . S
C119 O116 1.258 . S
Zn120 O126 1.969 . S
Zn120 O127 1.965 . S
Zn120 O131 2.024 . S
Zn120 O136 1.969 . S
Zn121 O128 1.969 . S
Zn121 O134 1.969 . S
Zn121 O135 1.965 . S
Zn121 O137 2.024 . S
C122 O123 1.229 . S
C122 O131 1.058 . S
O123 C122 1.229 . S
C124 O125 1.229 . S
C124 O137 1.058 . S
O125 C124 1.229 . S
O126 Zn120 1.969 . S
O126 C129 1.267 . S
O127 Zn120 1.965 . S
O127 C138 1.260 . S
O128 Zn121 1.969 . S
O128 C138 1.258 . S
C129 O126 1.267 . S
C129 O130 1.228 . S
O130 C129 1.228 . S
O131 Zn120 2.024 . S
O131 C122 1.058 . S
C132 O133 1.228 . S
C132 O134 1.267 . S
O133 C132 1.228 . S
O134 Zn121 1.969 . S
O134 C132 1.267 . S
O135 Zn121 1.965 . S
O135 C139 1.260 . S
O136 Zn120 1.969 . S
O136 C139 1.258 . S
O137 Zn121 2.024 . S
O137 C124 1.058 . S
C138 O127 1.260 . S
C138 O128 1.258 . S
C139 O135 1.260 . S
C139 O136 1.258 . S
Zn140 O146 1.969 . S
Zn140 O147 1.965 . S
Zn140 O151 2.024 . S
Zn140 O156 1.969 . S
Zn141 O148 1.969 . S
Zn141 O154 1.969 . S
Zn141 O155 1.965 . S
Zn141 O157 2.024 . S
C142 O143 1.229 . S
C142 O151 1.058 . S
O143 C142 1.229 . S
C144 O145 1.229 . S
C144 O157 1.058 . S
O145 C144 1.229 . S
O146 Zn140 1.969 . S
O146 C149 1.267 . S
O147 Zn140 1.965 . S
O147 C158 1.260 . S
O148 Zn141 1.969 . S
O148 C158 1.258 . S
C149 O146 1.267 . S
C149 O150 1.228 . S
O150 C149 1.228 . S
O151 Zn140 2.024 . S
O151 C142 1.058 . S
C152 O153 1.228 . S
C152 O154 1.267 . S
O153 C152 1.228 . S
O154 Zn141 1.969 . S
O154 C152 1.267 . S
O155 Zn141 1.965 . S
O155 C159 1.260 . S
O156 Zn140 1.969 . S
O156 C159 1.258 . S
O157 Zn141 2.024 . S
O157 C144 1.058 . S
C158 O147 1.260 . S
C158 O148 1.258 . S
C159 O155 1.260 . S
C159 O156 1.258 . S
C160 O172 1.241 . S
C160 O173 1.280 . S
C161 O174 1.277 . S
C161 O175 1.245 . S
C162 O186 1.247 . S
C162 O188 1.289 . S
Mg163 O164 1.926 . S
Mg163 O173 1.984 . S
Mg163 O175 1.988 . S
Mg163 O176 2.061 1_655 S
O164 Mg163 1.926 . S
O164 Mg165 1.986 . S
O164 Mg166 1.917 1_655 S
Mg165 O164 1.986 . S
Mg165 O172 2.042 . S
Mg165 O174 2.041 . S
Mg165 O180 2.038 1_545 S
Mg165 O188 2.238 1_545 S
Mg166 O164 1.917 1_455 S
Mg166 O167 1.917 1_545 S
Mg166 O177 2.106 . S
Mg166 O179 2.079 1_445 S
Mg166 O188 2.106 1_445 S
Mg166 O189 2.079 . S
O167 Mg166 1.917 1_565 S
O167 Mg168 1.926 . S
O167 Mg169 1.986 . S
Mg168 O167 1.926 . S
Mg168 O182 1.984 . S
Mg168 O185 1.988 . S
Mg168 O186 2.061 1_455 S
Mg169 O167 1.986 . S
Mg169 O177 2.238 1_565 S
Mg169 O181 2.042 . S
Mg169 O183 2.041 . S
Mg169 O190 2.038 1_565 S
C170 O176 1.247 . S
C170 O177 1.289 . S
C171 O189 1.245 . S
C171 O190 1.274 . S
O172 C160 1.241 . S
O172 Mg165 2.042 . S
O173 C160 1.280 . S
O173 Mg163 1.984 . S
O174 C161 1.277 . S
O174 Mg165 2.041 . S
O175 C161 1.245 . S
O175 Mg163 1.988 . S
O176 Mg163 2.061 1_455 S
O176 C170 1.247 . S
O177 Mg166 2.106 . S
O177 Mg169 2.238 1_545 S
O177 C170 1.289 . S
C178 O179 1.245 . S
C178 O180 1.274 . S
O179 Mg166 2.079 1_665 S
O179 C178 1.245 . S
O180 Mg165 2.038 1_565 S
O180 C178 1.274 . S
O181 Mg169 2.042 . S
O181 C184 1.241 . S
O182 Mg168 1.984 . S
O182 C184 1.280 . S
O183 Mg169 2.041 . S
O183 C187 1.277 . S
C184 O181 1.241 . S
C184 O182 1.280 . S
O185 Mg168 1.988 . S
O185 C187 1.245 . S
O186 C162 1.247 . S
O186 Mg168 2.061 1_655 S
C187 O183 1.277 . S
C187 O185 1.245 . S
O188 C162 1.289 . S
O188 Mg165 2.238 1_565 S
O188 Mg166 2.106 1_665 S
O189 Mg166 2.079 . S
O189 C171 1.245 . S
O190 Mg169 2.038 1_545 S
O190 C171 1.274 . S
C191 O203 1.241 . S
C191 O204 1.280 . S
C192 O205 1.277 . S
C192 O206 1.245 . S
C193 O217 1.247 . S
C193 O219 1.289 . S
Mg194 O195 1.926 . S
Mg194 O204 1.984 . S
Mg194 O206 1.988 1_554 S
Mg194 O207 2.061 . S
O195 Mg194 1.926 . S
O195 Mg196 1.986 1_554 S
O195 Mg197 1.917 . S
Mg196 O195 1.986 1_556 S
Mg196 O203 2.042 1_556 S
Mg196 O205 2.041 . S
Mg196 O211 2.038 1_546 S
Mg196 O219 2.238 1_545 S
Mg197 O195 1.917 . S
Mg197 O198 1.917 1_544 S
Mg197 O208 2.107 . S
Mg197 O210 2.079 1_545 S
Mg197 O219 2.106 1_544 S
Mg197 O220 2.078 1_554 S
O198 Mg197 1.917 1_566 S
O198 Mg199 1.926 . S
O198 Mg200 1.986 1_556 S
Mg199 O198 1.926 . S
Mg199 O213 1.984 . S
Mg199 O216 1.988 1_556 S
Mg199 O217 2.061 . S
Mg200 O198 1.986 1_554 S
Mg200 O208 2.238 1_565 S
Mg200 O212 2.042 1_554 S
Mg200 O214 2.041 . S
Mg200 O221 2.038 1_564 S
C201 O207 1.247 . S
C201 O208 1.289 . S
C202 O220 1.245 . S
C202 O221 1.274 . S
O203 C191 1.241 . S
O203 Mg196 2.042 1_554 S
O204 C191 1.280 . S
O204 Mg194 1.984 . S
O205 C192 1.277 . S
O205 Mg196 2.041 . S
O206 C192 1.245 . S
O206 Mg194 1.988 1_556 S
O207 Mg194 2.061 . S
O207 C201 1.247 . S
O208 Mg197 2.107 . S
O208 Mg200 2.238 1_545 S
O208 C201 1.289 . S
C209 O210 1.245 . S
C209 O211 1.274 . S
O210 Mg197 2.079 1_565 S
O210 C209 1.245 . S
O211 Mg196 2.038 1_564 S
O211 C209 1.274 . S
O212 Mg200 2.042 1_556 S
O212 C215 1.241 . S
O213 Mg199 1.984 . S
O213 C215 1.280 . S
O214 Mg200 2.041 . S
O214 C218 1.277 . S
C215 O212 1.241 . S
C215 O213 1.280 . S
O216 Mg199 1.988 1_554 S
O216 C218 1.245 . S
O217 C193 1.247 . S
O217 Mg199 2.061 . S
C218 O214 1.277 . S
C218 O216 1.245 . S
O219 C193 1.289 . S
O219 Mg196 2.238 1_565 S
O219 Mg197 2.106 1_566 S
O220 Mg197 2.078 1_556 S
O220 C202 1.245 . S
O221 Mg200 2.038 1_546 S
O221 C202 1.274 . S
C222 O234 1.241 . S
C222 O235 1.280 . S
C223 O236 1.277 . S
C223 O237 1.245 . S
C224 O248 1.247 . S
C224 O250 1.289 . S
Mg225 O226 1.926 . S
Mg225 O235 1.984 . S
Mg225 O237 1.988 1_554 S
Mg225 O238 2.061 1_655 S
O226 Mg225 1.926 . S
O226 Mg227 1.986 1_554 S
O226 Mg228 1.917 1_655 S
Mg227 O226 1.986 1_556 S
Mg227 O234 2.042 1_556 S
Mg227 O236 2.041 . S
Mg227 O242 2.038 1_556 S
Mg227 O250 2.238 . S
Mg228 O226 1.917 1_455 S
Mg228 O229 1.917 1_554 S
Mg228 O239 2.107 . S
Mg228 O241 2.079 1_455 S
Mg228 O250 2.106 1_454 S
Mg228 O251 2.078 1_554 S
O229 Mg228 1.917 1_556 S
O229 Mg230 1.926 . S
O229 Mg231 1.986 1_556 S
Mg230 O229 1.926 . S
Mg230 O244 1.984 . S
Mg230 O247 1.988 1_556 S
Mg230 O248 2.061 1_455 S
Mg231 O229 1.986 1_554 S
Mg231 O239 2.238 . S
Mg231 O243 2.042 1_554 S
Mg231 O245 2.041 . S
Mg231 O252 2.038 1_554 S
C232 O238 1.247 . S
C232 O239 1.289 . S
C233 O251 1.245 . S
C233 O252 1.274 . S
O234 C222 1.241 . S
O234 Mg227 2.042 1_554 S
O235 C222 1.280 . S
O235 Mg225 1.984 . S
O236 C223 1.277 . S
O236 Mg227 2.041 . S
O237 C223 1.245 . S
O237 Mg225 1.988 1_556 S
O238 Mg225 2.061 1_455 S
O238 C232 1.247 . S
O239 Mg228 2.107 . S
O239 Mg231 2.238 . S
O239 C232 1.289 . S
C240 O241 1.245 . S
C240 O242 1.274 . S
O241 Mg228 2.079 1_655 S
O241 C240 1.245 . S
O242 Mg227 2.038 1_554 S
O242 C240 1.274 . S
O243 Mg231 2.042 1_556 S
O243 C246 1.241 . S
O244 Mg230 1.984 . S
O244 C246 1.280 . S
O245 Mg231 2.041 . S
O245 C249 1.277 . S
C246 O243 1.241 . S
C246 O244 1.280 . S
O247 Mg230 1.988 1_554 S
O247 C249 1.245 . S
O248 C224 1.247 . S
O248 Mg230 2.061 1_655 S
C249 O245 1.277 . S
C249 O247 1.245 . S
O250 C224 1.289 . S
O250 Mg227 2.238 . S
O250 Mg228 2.106 1_656 S
O251 Mg228 2.078 1_556 S
O251 C233 1.245 . S
O252 Mg231 2.038 1_556 S
O252 C233 1.274 . S
C253 O265 1.241 . S
C253 O266 1.280 . S
C254 O267 1.277 . S
C254 O268 1.245 . S
C255 O279 1.247 . S
C255 O281 1.289 . S
Mg256 O257 1.926 . S
Mg256 O266 1.984 . S
Mg256 O268 1.988 1_554 S
Mg256 O269 2.061 . S
O257 Mg256 1.926 . S
O257 Mg258 1.986 1_554 S
O257 Mg259 1.917 . S
Mg258 O257 1.986 1_556 S
Mg258 O265 2.042 1_556 S
Mg258 O267 2.041 . S
Mg258 O273 2.038 1_556 S
Mg258 O281 2.238 . S
Mg259 O257 1.917 . S
Mg259 O260 1.917 1_554 S
Mg259 O270 2.107 . S
Mg259 O272 2.079 . S
Mg259 O281 2.106 1_554 S
Mg259 O282 2.078 1_554 S
O260 Mg259 1.917 1_556 S
O260 Mg261 1.926 . S
O260 Mg262 1.986 1_556 S
Mg261 O260 1.926 . S
Mg261 O275 1.984 . S
Mg261 O278 1.988 1_556 S
Mg261 O279 2.061 . S
Mg262 O260 1.986 1_554 S
Mg262 O270 2.238 . S
Mg262 O274 2.042 1_554 S
Mg262 O276 2.041 . S
Mg262 O283 2.038 1_554 S
C263 O269 1.247 . S
C263 O270 1.289 . S
C264 O282 1.245 . S
C264 O283 1.274 . S
O265 C253 1.241 . S
O265 Mg258 2.042 1_554 S
O266 C253 1.280 . S
O266 Mg256 1.984 . S
O267 C254 1.277 . S
O267 Mg258 2.041 . S
O268 C254 1.245 . S
O268 Mg256 1.988 1_556 S
O269 Mg256 2.061 . S
O269 C263 1.247 . S
O270 Mg259 2.107 . S
O270 Mg262 2.238 . S
O270 C263 1.289 . S
C271 O272 1.245 . S
C271 O273 1.274 . S
O272 Mg259 2.079 . S
O272 C271 1.245 . S
O273 Mg258 2.038 1_554 S
O273 C271 1.274 . S
O274 Mg262 2.042 1_556 S
O274 C277 1.241 . S
O275 Mg261 1.984 . S
O275 C277 1.280 . S
O276 Mg262 2.041 . S
O276 C280 1.277 . S
C277 O274 1.241 . S
C277 O275 1.280 . S
O278 Mg261 1.988 1_554 S
O278 C280 1.245 . S
O279 C255 1.247 . S
O279 Mg261 2.061 . S
C280 O276 1.277 . S
C280 O278 1.245 . S
O281 C255 1.289 . S
O281 Mg258 2.238 . S
O281 Mg259 2.106 1_556 S
O282 Mg259 2.078 1_556 S
O282 C264 1.245 . S
O283 Mg262 2.038 1_556 S
O283 C264 1.274 . S
C284 O296 1.241 . S
C284 O297 1.280 . S
C285 O298 1.277 . S
C285 O299 1.245 . S
C286 O310 1.247 . S
C286 O312 1.289 . S
Mg287 O288 1.926 . S
Mg287 O297 1.984 . S
Mg287 O299 1.988 . S
Mg287 O300 2.061 1_655 S
O288 Mg287 1.926 . S
O288 Mg289 1.986 . S
O288 Mg290 1.917 1_655 S
Mg289 O288 1.986 . S
Mg289 O296 2.042 . S
Mg289 O298 2.041 . S
Mg289 O304 2.038 . S
Mg289 O312 2.238 . S
Mg290 O288 1.917 1_455 S
Mg290 O291 1.917 . S
Mg290 O301 2.106 . S
Mg290 O303 2.079 1_455 S
Mg290 O312 2.106 1_455 S
Mg290 O313 2.079 . S
O291 Mg290 1.917 . S
O291 Mg292 1.926 . S
O291 Mg293 1.986 . S
Mg292 O291 1.926 . S
Mg292 O306 1.984 . S
Mg292 O309 1.988 . S
Mg292 O310 2.061 1_455 S
Mg293 O291 1.986 . S
Mg293 O301 2.238 . S
Mg293 O305 2.042 . S
Mg293 O307 2.041 . S
Mg293 O314 2.038 . S
C294 O300 1.247 . S
C294 O301 1.289 . S
C295 O313 1.245 . S
C295 O314 1.274 . S
O296 C284 1.241 . S
O296 Mg289 2.042 . S
O297 C284 1.280 . S
O297 Mg287 1.984 . S
O298 C285 1.277 . S
O298 Mg289 2.041 . S
O299 C285 1.245 . S
O299 Mg287 1.988 . S
O300 Mg287 2.061 1_455 S
O300 C294 1.247 . S
O301 Mg290 2.106 . S
O301 Mg293 2.238 . S
O301 C294 1.289 . S
C302 O303 1.245 . S
C302 O304 1.274 . S
O303 Mg290 2.079 1_655 S
O303 C302 1.245 . S
O304 Mg289 2.038 . S
O304 C302 1.274 . S
O305 Mg293 2.042 . S
O305 C308 1.241 . S
O306 Mg292 1.984 . S
O306 C308 1.280 . S
O307 Mg293 2.041 . S
O307 C311 1.277 . S
C308 O305 1.241 . S
C308 O306 1.280 . S
O309 Mg292 1.988 . S
O309 C311 1.245 . S
O310 C286 1.247 . S
O310 Mg292 2.061 1_655 S
C311 O307 1.277 . S
C311 O309 1.245 . S
O312 C286 1.289 . S
O312 Mg289 2.238 . S
O312 Mg290 2.106 1_655 S
O313 Mg290 2.079 . S
O313 C295 1.245 . S
O314 Mg293 2.038 . S
O314 C295 1.274 . S
C315 O327 1.241 . S
C315 O328 1.280 . S
C316 O329 1.277 . S
C316 O330 1.245 . S
C317 O341 1.247 . S
C317 O343 1.289 . S
Mg318 O319 1.926 . S
Mg318 O328 1.984 . S
Mg318 O330 1.988 . S
Mg318 O331 2.061 . S
O319 Mg318 1.926 . S
O319 Mg320 1.986 . S
O319 Mg321 1.917 . S
Mg320 O319 1.986 . S
Mg320 O327 2.042 . S
Mg320 O329 2.041 . S
Mg320 O335 2.038 1_545 S
Mg320 O343 2.238 1_545 S
Mg321 O319 1.917 . S
Mg321 O322 1.917 1_545 S
Mg321 O332 2.106 . S
Mg321 O334 2.079 1_545 S
Mg321 O343 2.106 1_545 S
Mg321 O344 2.079 . S
O322 Mg321 1.917 1_565 S
O322 Mg323 1.926 . S
O322 Mg324 1.986 . S
Mg323 O322 1.926 . S
Mg323 O337 1.984 . S
Mg323 O340 1.988 . S
Mg323 O341 2.061 . S
Mg324 O322 1.986 . S
Mg324 O332 2.238 1_565 S
Mg324 O336 2.042 . S
Mg324 O338 2.041 . S
Mg324 O345 2.038 1_565 S
C325 O331 1.247 . S
C325 O332 1.289 . S
C326 O344 1.245 . S
C326 O345 1.274 . S
O327 C315 1.241 . S
O327 Mg320 2.042 . S
O328 C315 1.280 . S
O328 Mg318 1.984 . S
O329 C316 1.277 . S
O329 Mg320 2.041 . S
O330 C316 1.245 . S
O330 Mg318 1.988 . S
O331 Mg318 2.061 . S
O331 C325 1.247 . S
O332 Mg321 2.106 . S
O332 Mg324 2.238 1_545 S
O332 C325 1.289 . S
C333 O334 1.245 . S
C333 O335 1.274 . S
O334 Mg321 2.079 1_565 S
O334 C333 1.245 . S
O335 Mg320 2.038 1_565 S
O335 C333 1.274 . S
O336 Mg324 2.042 . S
O336 C339 1.241 . S
O337 Mg323 1.984 . S
O337 C339 1.280 . S
O338 Mg324 2.041 . S
O338 C342 1.277 . S
C339 O336 1.241 . S
C339 O337 1.280 . S
O340 Mg323 1.988 . S
O340 C342 1.245 . S
O341 C317 1.247 . S
O341 Mg323 2.061 . S
C342 O338 1.277 . S
C342 O340 1.245 . S
O343 C317 1.289 . S
O343 Mg320 2.238 1_565 S
O343 Mg321 2.106 1_565 S
O344 Mg321 2.079 . S
O344 C326 1.245 . S
O345 Mg324 2.038 1_545 S
O345 C326 1.274 . S
H346 C352 0.930 . S
H347 C356 0.930 . S
H348 C361 0.929 . S
H349 C359 0.929 . S
H350 C354 0.929 . S
H351 C360 0.929 . S
C352 H346 0.930 . S
C352 C353 1.367 . S
C352 C360 1.378 . S
C353 C352 1.367 . S
C353 C361 1.433 . S
C354 H350 0.929 . S
C354 C356 1.378 . S
C354 C358 1.350 . S
C355 C358 1.463 . S
C355 C360 1.350 . S
C355 N363 1.427 . S
C356 H347 0.930 . S
C356 C354 1.378 . S
C356 C357 1.367 . S
C357 C356 1.367 . S
C357 C359 1.433 . S
C358 C354 1.350 . S
C358 C355 1.463 . S
C358 N362 1.427 . S
C359 H349 0.929 . S
C359 C357 1.433 . S
C359 N362 1.384 . S
C360 H351 0.929 . S
C360 C352 1.378 . S
C360 C355 1.350 . S
C361 H348 0.929 . S
C361 C353 1.433 . S
C361 N363 1.384 . S
N362 C358 1.427 . S
N362 C359 1.384 . S
N363 C355 1.427 . S
N363 C361 1.384 . S
H364 C370 0.930 . S
H365 C374 0.930 . S
H366 C379 0.929 . S
H367 C377 0.929 . S
H368 C372 0.929 . S
H369 C378 0.929 . S
C370 H364 0.930 . S
C370 C371 1.367 . S
C370 C378 1.378 . S
C371 C370 1.367 . S
C371 C379 1.433 . S
C372 H368 0.929 . S
C372 C374 1.378 . S
C372 C376 1.350 . S
C373 C376 1.463 . S
C373 C378 1.350 . S
C373 N381 1.427 . S
C374 H365 0.930 . S
C374 C372 1.378 . S
C374 C375 1.367 . S
C375 C374 1.367 . S
C375 C377 1.433 . S
C376 C372 1.350 . S
C376 C373 1.463 . S
C376 N380 1.427 . S
C377 H367 0.929 . S
C377 C375 1.433 . S
C377 N380 1.384 . S
C378 H369 0.929 . S
C378 C370 1.378 . S
C378 C373 1.350 . S
C379 H366 0.929 . S
C379 C371 1.433 . S
C379 N381 1.384 . S
N380 C376 1.427 . S
N380 C377 1.384 . S
N381 C373 1.427 . S
N381 C379 1.384 . S
H382 C388 0.930 . S
H383 C392 0.930 . S
H384 C397 0.929 . S
H385 C395 0.929 . S
H386 C390 0.929 . S
H387 C396 0.929 . S
C388 H382 0.930 . S
C388 C389 1.367 . S
C388 C396 1.378 . S
C389 C388 1.367 . S
C389 C397 1.433 . S
C390 H386 0.929 . S
C390 C392 1.378 . S
C390 C394 1.350 . S
C391 C394 1.463 . S
C391 C396 1.350 . S
C391 N399 1.427 . S
C392 H383 0.930 . S
C392 C390 1.378 . S
C392 C393 1.367 . S
C393 C392 1.367 . S
C393 C395 1.433 . S
C394 C390 1.350 . S
C394 C391 1.463 . S
C394 N398 1.427 . S
C395 H385 0.929 . S
C395 C393 1.433 . S
C395 N398 1.384 . S
C396 H387 0.929 . S
C396 C388 1.378 . S
C396 C391 1.350 . S
C397 H384 0.929 . S
C397 C389 1.433 . S
C397 N399 1.384 . S
N398 C394 1.427 . S
N398 C395 1.384 . S
N399 C391 1.427 . S
N399 C397 1.384 . S
H400 C406 0.930 . S
H401 C410 0.930 . S
H402 C415 0.929 . S
H403 C413 0.929 . S
H404 C408 0.929 . S
H405 C414 0.929 . S
C406 H400 0.930 . S
C406 C407 1.367 . S
C406 C414 1.378 . S
C407 C406 1.367 . S
C407 C415 1.433 . S
C408 H404 0.929 . S
C408 C410 1.378 . S
C408 C412 1.350 . S
C409 C412 1.463 . S
C409 C414 1.350 . S
C409 N417 1.427 . S
C410 H401 0.930 . S
C410 C408 1.378 . S
C410 C411 1.367 . S
C411 C410 1.367 . S
C411 C413 1.433 . S
C412 C408 1.350 . S
C412 C409 1.463 . S
C412 N416 1.427 . S
C413 H403 0.929 . S
C413 C411 1.433 . S
C413 N416 1.384 . S
C414 H405 0.929 . S
C414 C406 1.378 . S
C414 C409 1.350 . S
C415 H402 0.929 . S
C415 C407 1.433 . S
C415 N417 1.384 . S
N416 C412 1.427 . S
N416 C413 1.384 . S
N417 C409 1.427 . S
N417 C415 1.384 . S
H418 C424 0.930 . S
H419 C428 0.930 . S
H420 C433 0.929 . S
H421 C431 0.929 . S
H422 C426 0.929 . S
H423 C432 0.929 . S
C424 H418 0.930 . S
C424 C425 1.367 . S
C424 C432 1.378 . S
C425 C424 1.367 . S
C425 C433 1.433 . S
C426 H422 0.929 . S
C426 C428 1.378 . S
C426 C430 1.350 . S
C427 C430 1.463 . S
C427 C432 1.350 . S
C427 N435 1.427 . S
C428 H419 0.930 . S
C428 C426 1.378 . S
C428 C429 1.367 . S
C429 C428 1.367 . S
C429 C431 1.433 . S
C430 C426 1.350 . S
C430 C427 1.463 . S
C430 N434 1.427 . S
C431 H421 0.929 . S
C431 C429 1.433 . S
C431 N434 1.384 . S
C432 H423 0.929 . S
C432 C424 1.378 . S
C432 C427 1.350 . S
C433 H420 0.929 . S
C433 C425 1.433 . S
C433 N435 1.384 . S
N434 C430 1.427 . S
N434 C431 1.384 . S
N435 C427 1.427 . S
N435 C433 1.384 . S
H436 C442 0.930 . S
H437 C446 0.930 . S
H438 C451 0.929 . S
H439 C449 0.929 . S
H440 C444 0.929 . S
H441 C450 0.929 . S
C442 H436 0.930 . S
C442 C443 1.367 . S
C442 C450 1.378 . S
C443 C442 1.367 . S
C443 C451 1.433 . S
C444 H440 0.929 . S
C444 C446 1.378 . S
C444 C448 1.350 . S
C445 C448 1.463 . S
C445 C450 1.350 . S
C445 N453 1.427 . S
C446 H437 0.930 . S
C446 C444 1.378 . S
C446 C447 1.367 . S
C447 C446 1.367 . S
C447 C449 1.433 . S
C448 C444 1.350 . S
C448 C445 1.463 . S
C448 N452 1.427 . S
C449 H439 0.929 . S
C449 C447 1.433 . S
C449 N452 1.384 . S
C450 H441 0.929 . S
C450 C442 1.378 . S
C450 C445 1.350 . S
C451 H438 0.929 . S
C451 C443 1.433 . S
C451 N453 1.384 . S
N452 C448 1.427 . S
N452 C449 1.384 . S
N453 C445 1.427 . S
N453 C451 1.384 . S
H454 C460 0.930 . S
H455 C464 0.930 . S
H456 C469 0.929 . S
H457 C467 0.929 . S
H458 C462 0.929 . S
H459 C468 0.929 . S
C460 H454 0.930 . S
C460 C461 1.367 . S
C460 C468 1.378 . S
C461 C460 1.367 . S
C461 C469 1.433 . S
C462 H458 0.929 . S
C462 C464 1.378 . S
C462 C466 1.350 . S
C463 C466 1.463 . S
C463 C468 1.350 . S
C463 N471 1.427 . S
C464 H455 0.930 . S
C464 C462 1.378 . S
C464 C465 1.367 . S
C465 C464 1.367 . S
C465 C467 1.433 . S
C466 C462 1.350 . S
C466 C463 1.463 . S
C466 N470 1.427 . S
C467 H457 0.929 . S
C467 C465 1.433 . S
C467 N470 1.384 . S
C468 H459 0.929 . S
C468 C460 1.378 . S
C468 C463 1.350 . S
C469 H456 0.929 . S
C469 C461 1.433 . S
C469 N471 1.384 . S
N470 C466 1.427 . S
N470 C467 1.384 . S
N471 C463 1.427 . S
N471 C469 1.384 . S
H472 C478 0.930 . S
H473 C482 0.930 . S
H474 C487 0.929 . S
H475 C485 0.929 . S
H476 C480 0.929 . S
H477 C486 0.929 . S
C478 H472 0.930 . S
C478 C479 1.367 . S
C478 C486 1.378 . S
C479 C478 1.367 . S
C479 C487 1.433 . S
C480 H476 0.929 . S
C480 C482 1.378 . S
C480 C484 1.350 . S
C481 C484 1.463 . S
C481 C486 1.350 . S
C481 N489 1.427 . S
C482 H473 0.930 . S
C482 C480 1.378 . S
C482 C483 1.367 . S
C483 C482 1.367 . S
C483 C485 1.433 . S
C484 C480 1.350 . S
C484 C481 1.463 . S
C484 N488 1.427 . S
C485 H475 0.929 . S
C485 C483 1.433 . S
C485 N488 1.384 . S
C486 H477 0.929 . S
C486 C478 1.378 . S
C486 C481 1.350 . S
C487 H474 0.929 . S
C487 C479 1.433 . S
C487 N489 1.384 . S
N488 C484 1.427 . S
N488 C485 1.384 . S
N489 C481 1.427 . S
N489 C487 1.384 . S
H490 C496 0.930 . S
H491 C500 0.930 . S
H492 C505 0.929 . S
H493 C503 0.929 . S
H494 C498 0.929 . S
H495 C504 0.929 . S
C496 H490 0.930 . S
C496 C497 1.367 . S
C496 C504 1.378 . S
C497 C496 1.367 . S
C497 C505 1.433 . S
C498 H494 0.929 . S
C498 C500 1.378 . S
C498 C502 1.350 . S
C499 C502 1.463 . S
C499 C504 1.350 . S
C499 N507 1.427 . S
C500 H491 0.930 . S
C500 C498 1.378 . S
C500 C501 1.367 . S
C501 C500 1.367 . S
C501 C503 1.433 . S
C502 C498 1.350 . S
C502 C499 1.463 . S
C502 N506 1.427 . S
C503 H493 0.929 . S
C503 C501 1.433 . S
C503 N506 1.384 . S
C504 H495 0.929 . S
C504 C496 1.378 . S
C504 C499 1.350 . S
C505 H492 0.929 . S
C505 C497 1.433 . S
C505 N507 1.384 . S
N506 C502 1.427 . S
N506 C503 1.384 . S
N507 C499 1.427 . S
N507 C505 1.384 . S
H508 C514 0.930 . S
H509 C518 0.930 . S
H510 C523 0.929 . S
H511 C521 0.929 . S
H512 C516 0.929 . S
H513 C522 0.929 . S
C514 H508 0.930 . S
C514 C515 1.367 . S
C514 C522 1.378 . S
C515 C514 1.367 . S
C515 C523 1.433 . S
C516 H512 0.929 . S
C516 C518 1.378 . S
C516 C520 1.350 . S
C517 C520 1.463 . S
C517 C522 1.350 . S
C517 N525 1.427 . S
C518 H509 0.930 . S
C518 C516 1.378 . S
C518 C519 1.367 . S
C519 C518 1.367 . S
C519 C521 1.433 . S
C520 C516 1.350 . S
C520 C517 1.463 . S
C520 N524 1.427 . S
C521 H511 0.929 . S
C521 C519 1.433 . S
C521 N524 1.384 . S
C522 H513 0.929 . S
C522 C514 1.378 . S
C522 C517 1.350 . S
C523 H510 0.929 . S
C523 C515 1.433 . S
C523 N525 1.384 . S
N524 C520 1.427 . S
N524 C521 1.384 . S
N525 C517 1.427 . S
N525 C523 1.384 . S
H526 C532 0.930 . S
H527 C536 0.930 . S
H528 C541 0.929 . S
H529 C539 0.929 . S
H530 C534 0.929 . S
H531 C540 0.929 . S
C532 H526 0.930 . S
C532 C533 1.367 . S
C532 C540 1.378 . S
C533 C532 1.367 . S
C533 C541 1.433 . S
C534 H530 0.929 . S
C534 C536 1.378 . S
C534 C538 1.350 . S
C535 C538 1.463 . S
C535 C540 1.350 . S
C535 N543 1.427 . S
C536 H527 0.930 . S
C536 C534 1.378 . S
C536 C537 1.367 . S
C537 C536 1.367 . S
C537 C539 1.433 . S
C538 C534 1.350 . S
C538 C535 1.463 . S
C538 N542 1.427 . S
C539 H529 0.929 . S
C539 C537 1.433 . S
C539 N542 1.384 . S
C540 H531 0.929 . S
C540 C532 1.378 . S
C540 C535 1.350 . S
C541 H528 0.929 . S
C541 C533 1.433 . S
C541 N543 1.384 . S
N542 C538 1.427 . S
N542 C539 1.384 . S
N543 C535 1.427 . S
N543 C541 1.384 . S
H544 C550 0.930 . S
H545 C554 0.930 . S
H546 C559 0.929 . S
H547 C557 0.929 . S
H548 C552 0.929 . S
H549 C558 0.929 . S
C550 H544 0.930 . S
C550 C551 1.367 . S
C550 C558 1.378 . S
C551 C550 1.367 . S
C551 C559 1.433 . S
C552 H548 0.929 . S
C552 C554 1.378 . S
C552 C556 1.350 . S
C553 C556 1.463 . S
C553 C558 1.350 . S
C553 N561 1.427 . S
C554 H545 0.930 . S
C554 C552 1.378 . S
C554 C555 1.367 . S
C555 C554 1.367 . S
C555 C557 1.433 . S
C556 C552 1.350 . S
C556 C553 1.463 . S
C556 N560 1.427 . S
C557 H547 0.929 . S
C557 C555 1.433 . S
C557 N560 1.384 . S
C558 H549 0.929 . S
C558 C550 1.378 . S
C558 C553 1.350 . S
C559 H546 0.929 . S
C559 C551 1.433 . S
C559 N561 1.384 . S
N560 C556 1.427 . S
N560 C557 1.384 . S
N561 C553 1.427 . S
N561 C559 1.384 . S
H562 C568 0.930 . S
H563 C572 0.930 . S
H564 C577 0.929 . S
H565 C575 0.929 . S
H566 C570 0.929 . S
H567 C576 0.929 . S
C568 H562 0.930 . S
C568 C569 1.367 . S
C568 C576 1.378 . S
C569 C568 1.367 . S
C569 C577 1.433 . S
C570 H566 0.929 . S
C570 C572 1.378 . S
C570 C574 1.350 . S
C571 C574 1.463 . S
C571 C576 1.350 . S
C571 N579 1.427 . S
C572 H563 0.930 . S
C572 C570 1.378 . S
C572 C573 1.367 . S
C573 C572 1.367 . S
C573 C575 1.433 . S
C574 C570 1.350 . S
C574 C571 1.463 . S
C574 N578 1.427 . S
C575 H565 0.929 . S
C575 C573 1.433 . S
C575 N578 1.384 . S
C576 H567 0.929 . S
C576 C568 1.378 . S
C576 C571 1.350 . S
C577 H564 0.929 . S
C577 C569 1.433 . S
C577 N579 1.384 . S
N578 C574 1.427 . S
N578 C575 1.384 . S
N579 C571 1.427 . S
N579 C577 1.384 . S
H580 C586 0.930 . S
H581 C590 0.930 . S
H582 C595 0.929 . S
H583 C593 0.929 . S
H584 C588 0.929 . S
H585 C594 0.929 . S
C586 H580 0.930 . S
C586 C587 1.367 . S
C586 C594 1.378 . S
C587 C586 1.367 . S
C587 C595 1.433 . S
C588 H584 0.929 . S
C588 C590 1.378 . S
C588 C592 1.350 . S
C589 C592 1.463 . S
C589 C594 1.350 . S
C589 N597 1.427 . S
C590 H581 0.930 . S
C590 C588 1.378 . S
C590 C591 1.367 . S
C591 C590 1.367 . S
C591 C593 1.433 . S
C592 C588 1.350 . S
C592 C589 1.463 . S
C592 N596 1.427 . S
C593 H583 0.929 . S
C593 C591 1.433 . S
C593 N596 1.384 . S
C594 H585 0.929 . S
C594 C586 1.378 . S
C594 C589 1.350 . S
C595 H582 0.929 . S
C595 C587 1.433 . S
C595 N597 1.384 . S
N596 C592 1.427 . S
N596 C593 1.384 . S
N597 C589 1.427 . S
N597 C595 1.384 . S
H598 C604 0.930 . S
H599 C608 0.930 . S
H600 C613 0.929 . S
H601 C611 0.929 . S
H602 C606 0.929 . S
H603 C612 0.929 . S
C604 H598 0.930 . S
C604 C605 1.367 . S
C604 C612 1.378 . S
C605 C604 1.367 . S
C605 C613 1.433 . S
C606 H602 0.929 . S
C606 C608 1.378 . S
C606 C610 1.350 . S
C607 C610 1.463 . S
C607 C612 1.350 . S
C607 N615 1.427 . S
C608 H599 0.930 . S
C608 C606 1.378 . S
C608 C609 1.367 . S
C609 C608 1.367 . S
C609 C611 1.433 . S
C610 C606 1.350 . S
C610 C607 1.463 . S
C610 N614 1.427 . S
C611 H601 0.929 . S
C611 C609 1.433 . S
C611 N614 1.384 . S
C612 H603 0.929 . S
C612 C604 1.378 . S
C612 C607 1.350 . S
C613 H600 0.929 . S
C613 C605 1.433 . S
C613 N615 1.384 . S
N614 C610 1.427 . S
N614 C611 1.384 . S
N615 C607 1.427 . S
N615 C613 1.384 . S
H616 C622 0.930 . S
H617 C626 0.930 . S
H618 C631 0.929 . S
H619 C629 0.929 . S
H620 C624 0.929 . S
H621 C630 0.929 . S
C622 H616 0.930 . S
C622 C623 1.367 . S
C622 C630 1.378 . S
C623 C622 1.367 . S
C623 C631 1.433 . S
C624 H620 0.929 . S
C624 C626 1.378 . S
C624 C628 1.350 . S
C625 C628 1.463 . S
C625 C630 1.350 . S
C625 N633 1.427 . S
C626 H617 0.930 . S
C626 C624 1.378 . S
C626 C627 1.367 . S
C627 C626 1.367 . S
C627 C629 1.433 . S
C628 C624 1.350 . S
C628 C625 1.463 . S
C628 N632 1.427 . S
C629 H619 0.929 . S
C629 C627 1.433 . S
C629 N632 1.384 . S
C630 H621 0.929 . S
C630 C622 1.378 . S
C630 C625 1.350 . S
C631 H618 0.929 . S
C631 C623 1.433 . S
C631 N633 1.384 . S
N632 C628 1.427 . S
N632 C629 1.384 . S
N633 C625 1.427 . S
N633 C631 1.384 . S
H634 C640 0.930 . S
H635 C644 0.930 . S
H636 C649 0.929 . S
H637 C647 0.929 . S
H638 C642 0.929 . S
H639 C648 0.929 . S
C640 H634 0.930 . S
C640 C641 1.367 . S
C640 C648 1.378 . S
C641 C640 1.367 . S
C641 C649 1.433 . S
C642 H638 0.929 . S
C642 C644 1.378 . S
C642 C646 1.350 . S
C643 C646 1.463 . S
C643 C648 1.350 . S
C643 N651 1.427 . S
C644 H635 0.930 . S
C644 C642 1.378 . S
C644 C645 1.367 . S
C645 C644 1.367 . S
C645 C647 1.433 . S
C646 C642 1.350 . S
C646 C643 1.463 . S
C646 N650 1.427 . S
C647 H637 0.929 . S
C647 C645 1.433 . S
C647 N650 1.384 . S
C648 H639 0.929 . S
C648 C640 1.378 . S
C648 C643 1.350 . S
C649 H636 0.929 . S
C649 C641 1.433 . S
C649 N651 1.384 . S
N650 C646 1.427 . S
N650 C647 1.384 . S
N651 C643 1.427 . S
N651 C649 1.384 . S
H652 C658 0.930 . S
H653 C662 0.930 . S
H654 C667 0.929 . S
H655 C665 0.929 . S
H656 C660 0.929 . S
H657 C666 0.929 . S
C658 H652 0.930 . S
C658 C659 1.367 . S
C658 C666 1.378 . S
C659 C658 1.367 . S
C659 C667 1.433 . S
C660 H656 0.929 . S
C660 C662 1.378 . S
C660 C664 1.350 . S
C661 C664 1.463 . S
C661 C666 1.350 . S
C661 N669 1.427 . S
C662 H653 0.930 . S
C662 C660 1.378 . S
C662 C663 1.367 . S
C663 C662 1.367 . S
C663 C665 1.433 . S
C664 C660 1.350 . S
C664 C661 1.463 . S
C664 N668 1.427 . S
C665 H655 0.929 . S
C665 C663 1.433 . S
C665 N668 1.384 . S
C666 H657 0.929 . S
C666 C658 1.378 . S
C666 C661 1.350 . S
C667 H654 0.929 . S
C667 C659 1.433 . S
C667 N669 1.384 . S
N668 C664 1.427 . S
N668 C665 1.384 . S
N669 C661 1.427 . S
N669 C667 1.384 . S
H670 C676 0.930 . S
H671 C680 0.930 . S
H672 C685 0.929 . S
H673 C683 0.929 . S
H674 C678 0.929 . S
H675 C684 0.929 . S
C676 H670 0.930 . S
C676 C677 1.367 . S
C676 C684 1.378 . S
C677 C676 1.367 . S
C677 C685 1.433 . S
C678 H674 0.929 . S
C678 C680 1.378 . S
C678 C682 1.350 . S
C679 C682 1.463 . S
C679 C684 1.350 . S
C679 N687 1.427 . S
C680 H671 0.930 . S
C680 C678 1.378 . S
C680 C681 1.367 . S
C681 C680 1.367 . S
C681 C683 1.433 . S
C682 C678 1.350 . S
C682 C679 1.463 . S
C682 N686 1.427 . S
C683 H673 0.929 . S
C683 C681 1.433 . S
C683 N686 1.384 . S
C684 H675 0.929 . S
C684 C676 1.378 . S
C684 C679 1.350 . S
C685 H672 0.929 . S
C685 C677 1.433 . S
C685 N687 1.384 . S
N686 C682 1.427 . S
N686 C683 1.384 . S
N687 C679 1.427 . S
N687 C685 1.384 . S
H688 C694 0.930 . S
H689 C698 0.930 . S
H690 C703 0.929 . S
H691 C701 0.929 . S
H692 C696 0.929 . S
H693 C702 0.929 . S
C694 H688 0.930 . S
C694 C695 1.367 . S
C694 C702 1.378 . S
C695 C694 1.367 . S
C695 C703 1.433 . S
C696 H692 0.929 . S
C696 C698 1.378 . S
C696 C700 1.350 . S
C697 C700 1.463 . S
C697 C702 1.350 . S
C697 N705 1.427 . S
C698 H689 0.930 . S
C698 C696 1.378 . S
C698 C699 1.367 . S
C699 C698 1.367 . S
C699 C701 1.433 . S
C700 C696 1.350 . S
C700 C697 1.463 . S
C700 N704 1.427 . S
C701 H691 0.929 . S
C701 C699 1.433 . S
C701 N704 1.384 . S
C702 H693 0.929 . S
C702 C694 1.378 . S
C702 C697 1.350 . S
C703 H690 0.929 . S
C703 C695 1.433 . S
C703 N705 1.384 . S
N704 C700 1.427 . S
N704 C701 1.384 . S
N705 C697 1.427 . S
N705 C703 1.384 . S
H706 C712 0.930 . S
H707 C716 0.930 . S
H708 C721 0.929 . S
H709 C719 0.929 . S
H710 C714 0.929 . S
H711 C720 0.929 . S
C712 H706 0.930 . S
C712 C713 1.367 . S
C712 C720 1.378 . S
C713 C712 1.367 . S
C713 C721 1.433 . S
C714 H710 0.929 . S
C714 C716 1.378 . S
C714 C718 1.350 . S
C715 C718 1.463 . S
C715 C720 1.350 . S
C715 N723 1.427 . S
C716 H707 0.930 . S
C716 C714 1.378 . S
C716 C717 1.367 . S
C717 C716 1.367 . S
C717 C719 1.433 . S
C718 C714 1.350 . S
C718 C715 1.463 . S
C718 N722 1.427 . S
C719 H709 0.929 . S
C719 C717 1.433 . S
C719 N722 1.384 . S
C720 H711 0.929 . S
C720 C712 1.378 . S
C720 C715 1.350 . S
C721 H708 0.929 . S
C721 C713 1.433 . S
C721 N723 1.384 . S
N722 C718 1.427 . S
N722 C719 1.384 . S
N723 C715 1.427 . S
N723 C721 1.384 . S
H724 C730 0.930 . S
H725 C734 0.930 . S
H726 C739 0.929 . S
H727 C737 0.929 . S
H728 C732 0.929 . S
H729 C738 0.929 . S
C730 H724 0.930 . S
C730 C731 1.367 . S
C730 C738 1.378 . S
C731 C730 1.367 . S
C731 C739 1.433 . S
C732 H728 0.929 . S
C732 C734 1.378 . S
C732 C736 1.350 . S
C733 C736 1.463 . S
C733 C738 1.350 . S
C733 N741 1.427 . S
C734 H725 0.930 . S
C734 C732 1.378 . S
C734 C735 1.367 . S
C735 C734 1.367 . S
C735 C737 1.433 . S
C736 C732 1.350 . S
C736 C733 1.463 . S
C736 N740 1.427 . S
C737 H727 0.929 . S
C737 C735 1.433 . S
C737 N740 1.384 . S
C738 H729 0.929 . S
C738 C730 1.378 . S
C738 C733 1.350 . S
C739 H726 0.929 . S
C739 C731 1.433 . S
C739 N741 1.384 . S
N740 C736 1.427 . S
N740 C737 1.384 . S
N741 C733 1.427 . S
N741 C739 1.384 . S
H742 C748 0.930 . S
H743 C752 0.930 . S
H744 C757 0.929 . S
H745 C755 0.929 . S
H746 C750 0.929 . S
H747 C756 0.929 . S
C748 H742 0.930 . S
C748 C749 1.367 . S
C748 C756 1.378 . S
C749 C748 1.367 . S
C749 C757 1.433 . S
C750 H746 0.929 . S
C750 C752 1.378 . S
C750 C754 1.350 . S
C751 C754 1.463 . S
C751 C756 1.350 . S
C751 N759 1.427 . S
C752 H743 0.930 . S
C752 C750 1.378 . S
C752 C753 1.367 . S
C753 C752 1.367 . S
C753 C755 1.433 . S
C754 C750 1.350 . S
C754 C751 1.463 . S
C754 N758 1.427 . S
C755 H745 0.929 . S
C755 C753 1.433 . S
C755 N758 1.384 . S
C756 H747 0.929 . S
C756 C748 1.378 . S
C756 C751 1.350 . S
C757 H744 0.929 . S
C757 C749 1.433 . S
C757 N759 1.384 . S
N758 C754 1.427 . S
N758 C755 1.384 . S
N759 C751 1.427 . S
N759 C757 1.384 . S
H760 C766 0.930 . S
H761 C770 0.930 . S
H762 C775 0.929 . S
H763 C773 0.929 . S
H764 C768 0.929 . S
H765 C774 0.929 . S
C766 H760 0.930 . S
C766 C767 1.367 . S
C766 C774 1.378 . S
C767 C766 1.367 . S
C767 C775 1.433 . S
C768 H764 0.929 . S
C768 C770 1.378 . S
C768 C772 1.350 . S
C769 C772 1.463 . S
C769 C774 1.350 . S
C769 N777 1.427 . S
C770 H761 0.930 . S
C770 C768 1.378 . S
C770 C771 1.367 . S
C771 C770 1.367 . S
C771 C773 1.433 . S
C772 C768 1.350 . S
C772 C769 1.463 . S
C772 N776 1.427 . S
C773 H763 0.929 . S
C773 C771 1.433 . S
C773 N776 1.384 . S
C774 H765 0.929 . S
C774 C766 1.378 . S
C774 C769 1.350 . S
C775 H762 0.929 . S
C775 C767 1.433 . S
C775 N777 1.384 . S
N776 C772 1.427 . S
N776 C773 1.384 . S
N777 C769 1.427 . S
N777 C775 1.384 . S
H778 C784 0.930 . S
H779 C788 0.930 . S
H780 C793 0.929 . S
H781 C791 0.929 . S
H782 C786 0.929 . S
H783 C792 0.929 . S
C784 H778 0.930 . S
C784 C785 1.367 . S
C784 C792 1.378 . S
C785 C784 1.367 . S
C785 C793 1.433 . S
C786 H782 0.929 . S
C786 C788 1.378 . S
C786 C790 1.350 . S
C787 C790 1.463 . S
C787 C792 1.350 . S
C787 N795 1.427 . S
C788 H779 0.930 . S
C788 C786 1.378 . S
C788 C789 1.367 . S
C789 C788 1.367 . S
C789 C791 1.433 . S
C790 C786 1.350 . S
C790 C787 1.463 . S
C790 N794 1.427 . S
C791 H781 0.929 . S
C791 C789 1.433 . S
C791 N794 1.384 . S
C792 H783 0.929 . S
C792 C784 1.378 . S
C792 C787 1.350 . S
C793 H780 0.929 . S
C793 C785 1.433 . S
C793 N795 1.384 . S
N794 C790 1.427 . S
N794 C791 1.384 . S
N795 C787 1.427 . S
N795 C793 1.384 . S
H796 C802 0.930 . S
H797 C806 0.930 . S
H798 C811 0.929 . S
H799 C809 0.929 . S
H800 C804 0.929 . S
H801 C810 0.929 . S
C802 H796 0.930 . S
C802 C803 1.367 . S
C802 C810 1.378 . S
C803 C802 1.367 . S
C803 C811 1.433 . S
C804 H800 0.929 . S
C804 C806 1.378 . S
C804 C808 1.350 . S
C805 C808 1.463 . S
C805 C810 1.350 . S
C805 N813 1.427 . S
C806 H797 0.930 . S
C806 C804 1.378 . S
C806 C807 1.367 . S
C807 C806 1.367 . S
C807 C809 1.433 . S
C808 C804 1.350 . S
C808 C805 1.463 . S
C808 N812 1.427 . S
C809 H799 0.929 . S
C809 C807 1.433 . S
C809 N812 1.384 . S
C810 H801 0.929 . S
C810 C802 1.378 . S
C810 C805 1.350 . S
C811 H798 0.929 . S
C811 C803 1.433 . S
C811 N813 1.384 . S
N812 C808 1.427 . S
N812 C809 1.384 . S
N813 C805 1.427 . S
N813 C811 1.384 . S
H814 C820 0.930 . S
H815 C824 0.930 . S
H816 C829 0.929 . S
H817 C827 0.929 . S
H818 C822 0.929 . S
H819 C828 0.929 . S
C820 H814 0.930 . S
C820 C821 1.367 . S
C820 C828 1.378 . S
C821 C820 1.367 . S
C821 C829 1.433 . S
C822 H818 0.929 . S
C822 C824 1.378 . S
C822 C826 1.350 . S
C823 C826 1.463 . S
C823 C828 1.350 . S
C823 N831 1.427 . S
C824 H815 0.930 . S
C824 C822 1.378 . S
C824 C825 1.367 . S
C825 C824 1.367 . S
C825 C827 1.433 . S
C826 C822 1.350 . S
C826 C823 1.463 . S
C826 N830 1.427 . S
C827 H817 0.929 . S
C827 C825 1.433 . S
C827 N830 1.384 . S
C828 H819 0.929 . S
C828 C820 1.378 . S
C828 C823 1.350 . S
C829 H816 0.929 . S
C829 C821 1.433 . S
C829 N831 1.384 . S
N830 C826 1.427 . S
N830 C827 1.384 . S
N831 C823 1.427 . S
N831 C829 1.384 . S
H832 C838 0.930 . S
H833 C842 0.930 . S
H834 C847 0.929 . S
H835 C845 0.929 . S
H836 C840 0.929 . S
H837 C846 0.929 . S
C838 H832 0.930 . S
C838 C839 1.367 . S
C838 C846 1.378 . S
C839 C838 1.367 . S
C839 C847 1.433 . S
C840 H836 0.929 . S
C840 C842 1.378 . S
C840 C844 1.350 . S
C841 C844 1.463 . S
C841 C846 1.350 . S
C841 N849 1.427 . S
C842 H833 0.930 . S
C842 C840 1.378 . S
C842 C843 1.367 . S
C843 C842 1.367 . S
C843 C845 1.433 . S
C844 C840 1.350 . S
C844 C841 1.463 . S
C844 N848 1.427 . S
C845 H835 0.929 . S
C845 C843 1.433 . S
C845 N848 1.384 . S
C846 H837 0.929 . S
C846 C838 1.378 . S
C846 C841 1.350 . S
C847 H834 0.929 . S
C847 C839 1.433 . S
C847 N849 1.384 . S
N848 C844 1.427 . S
N848 C845 1.384 . S
N849 C841 1.427 . S
N849 C847 1.384 . S
H850 C856 0.930 . S
H851 C860 0.930 . S
H852 C865 0.929 . S
H853 C863 0.929 . S
H854 C858 0.929 . S
H855 C864 0.929 . S
C856 H850 0.930 . S
C856 C857 1.367 . S
C856 C864 1.378 . S
C857 C856 1.367 . S
C857 C865 1.433 . S
C858 H854 0.929 . S
C858 C860 1.378 . S
C858 C862 1.350 . S
C859 C862 1.463 . S
C859 C864 1.350 . S
C859 N867 1.427 . S
C860 H851 0.930 . S
C860 C858 1.378 . S
C860 C861 1.367 . S
C861 C860 1.367 . S
C861 C863 1.433 . S
C862 C858 1.350 . S
C862 C859 1.463 . S
C862 N866 1.427 . S
C863 H853 0.929 . S
C863 C861 1.433 . S
C863 N866 1.384 . S
C864 H855 0.929 . S
C864 C856 1.378 . S
C864 C859 1.350 . S
C865 H852 0.929 . S
C865 C857 1.433 . S
C865 N867 1.384 . S
N866 C862 1.427 . S
N866 C863 1.384 . S
N867 C859 1.427 . S
N867 C865 1.384 . S
H868 C874 0.930 . S
H869 C878 0.930 . S
H870 C883 0.929 . S
H871 C881 0.929 . S
H872 C876 0.929 . S
H873 C882 0.929 . S
C874 H868 0.930 . S
C874 C875 1.367 . S
C874 C882 1.378 . S
C875 C874 1.367 . S
C875 C883 1.433 . S
C876 H872 0.929 . S
C876 C878 1.378 . S
C876 C880 1.350 . S
C877 C880 1.463 . S
C877 C882 1.350 . S
C877 N885 1.427 . S
C878 H869 0.930 . S
C878 C876 1.378 . S
C878 C879 1.367 . S
C879 C878 1.367 . S
C879 C881 1.433 . S
C880 C876 1.350 . S
C880 C877 1.463 . S
C880 N884 1.427 . S
C881 H871 0.929 . S
C881 C879 1.433 . S
C881 N884 1.384 . S
C882 H873 0.929 . S
C882 C874 1.378 . S
C882 C877 1.350 . S
C883 H870 0.929 . S
C883 C875 1.433 . S
C883 N885 1.384 . S
N884 C880 1.427 . S
N884 C881 1.384 . S
N885 C877 1.427 . S
N885 C883 1.384 . S
H886 C892 0.930 . S
H887 C896 0.930 . S
H888 C901 0.929 . S
H889 C899 0.929 . S
H890 C894 0.929 . S
H891 C900 0.929 . S
C892 H886 0.930 . S
C892 C893 1.367 . S
C892 C900 1.378 . S
C893 C892 1.367 . S
C893 C901 1.433 . S
C894 H890 0.929 . S
C894 C896 1.378 . S
C894 C898 1.350 . S
C895 C898 1.463 . S
C895 C900 1.350 . S
C895 N903 1.427 . S
C896 H887 0.930 . S
C896 C894 1.378 . S
C896 C897 1.367 . S
C897 C896 1.367 . S
C897 C899 1.433 . S
C898 C894 1.350 . S
C898 C895 1.463 . S
C898 N902 1.427 . S
C899 H889 0.929 . S
C899 C897 1.433 . S
C899 N902 1.384 . S
C900 H891 0.929 . S
C900 C892 1.378 . S
C900 C895 1.350 . S
C901 H888 0.929 . S
C901 C893 1.433 . S
C901 N903 1.384 . S
N902 C898 1.427 . S
N902 C899 1.384 . S
N903 C895 1.427 . S
N903 C901 1.384 . S
H904 C910 0.930 . S
H905 C914 0.930 . S
H906 C919 0.929 . S
H907 C917 0.929 . S
H908 C912 0.929 . S
H909 C918 0.929 . S
C910 H904 0.930 . S
C910 C911 1.367 . S
C910 C918 1.378 . S
C911 C910 1.367 . S
C911 C919 1.433 . S
C912 H908 0.929 . S
C912 C914 1.378 . S
C912 C916 1.350 . S
C913 C916 1.463 . S
C913 C918 1.350 . S
C913 N921 1.427 . S
C914 H905 0.930 . S
C914 C912 1.378 . S
C914 C915 1.367 . S
C915 C914 1.367 . S
C915 C917 1.433 . S
C916 C912 1.350 . S
C916 C913 1.463 . S
C916 N920 1.427 . S
C917 H907 0.929 . S
C917 C915 1.433 . S
C917 N920 1.384 . S
C918 H909 0.929 . S
C918 C910 1.378 . S
C918 C913 1.350 . S
C919 H906 0.929 . S
C919 C911 1.433 . S
C919 N921 1.384 . S
N920 C916 1.427 . S
N920 C917 1.384 . S
N921 C913 1.427 . S
N921 C919 1.384 . S
H922 C928 0.930 . S
H923 C932 0.930 . S
H924 C937 0.929 . S
H925 C935 0.929 . S
H926 C930 0.929 . S
H927 C936 0.929 . S
C928 H922 0.930 . S
C928 C929 1.367 . S
C928 C936 1.378 . S
C929 C928 1.367 . S
C929 C937 1.433 . S
C930 H926 0.929 . S
C930 C932 1.378 . S
C930 C934 1.350 . S
C931 C934 1.463 . S
C931 C936 1.350 . S
C931 N939 1.427 . S
C932 H923 0.930 . S
C932 C930 1.378 . S
C932 C933 1.367 . S
C933 C932 1.367 . S
C933 C935 1.433 . S
C934 C930 1.350 . S
C934 C931 1.463 . S
C934 N938 1.427 . S
C935 H925 0.929 . S
C935 C933 1.433 . S
C935 N938 1.384 . S
C936 H927 0.929 . S
C936 C928 1.378 . S
C936 C931 1.350 . S
C937 H924 0.929 . S
C937 C929 1.433 . S
C937 N939 1.384 . S
N938 C934 1.427 . S
N938 C935 1.384 . S
N939 C931 1.427 . S
N939 C937 1.384 . S
H940 C946 0.930 . S
H941 C950 0.930 . S
H942 C955 0.929 . S
H943 C953 0.929 . S
H944 C948 0.929 . S
H945 C954 0.929 . S
C946 H940 0.930 . S
C946 C947 1.367 . S
C946 C954 1.378 . S
C947 C946 1.367 . S
C947 C955 1.433 . S
C948 H944 0.929 . S
C948 C950 1.378 . S
C948 C952 1.350 . S
C949 C952 1.463 . S
C949 C954 1.350 . S
C949 N957 1.427 . S
C950 H941 0.930 . S
C950 C948 1.378 . S
C950 C951 1.367 . S
C951 C950 1.367 . S
C951 C953 1.433 . S
C952 C948 1.350 . S
C952 C949 1.463 . S
C952 N956 1.427 . S
C953 H943 0.929 . S
C953 C951 1.433 . S
C953 N956 1.384 . S
C954 H945 0.929 . S
C954 C946 1.378 . S
C954 C949 1.350 . S
C955 H942 0.929 . S
C955 C947 1.433 . S
C955 N957 1.384 . S
N956 C952 1.427 . S
N956 C953 1.384 . S
N957 C949 1.427 . S
N957 C955 1.384 . S
H958 C964 0.930 . S
H959 C968 0.930 . S
H960 C973 0.929 . S
H961 C971 0.929 . S
H962 C966 0.929 . S
H963 C972 0.929 . S
C964 H958 0.930 . S
C964 C965 1.367 . S
C964 C972 1.378 . S
C965 C964 1.367 . S
C965 C973 1.433 . S
C966 H962 0.929 . S
C966 C968 1.378 . S
C966 C970 1.350 . S
C967 C970 1.463 . S
C967 C972 1.350 . S
C967 N975 1.427 . S
C968 H959 0.930 . S
C968 C966 1.378 . S
C968 C969 1.367 . S
C969 C968 1.367 . S
C969 C971 1.433 . S
C970 C966 1.350 . S
C970 C967 1.463 . S
C970 N974 1.427 . S
C971 H961 0.929 . S
C971 C969 1.433 . S
C971 N974 1.384 . S
C972 H963 0.929 . S
C972 C964 1.378 . S
C972 C967 1.350 . S
C973 H960 0.929 . S
C973 C965 1.433 . S
C973 N975 1.384 . S
N974 C970 1.427 . S
N974 C971 1.384 . S
N975 C967 1.427 . S
N975 C973 1.384 . S
H976 C982 0.930 . S
H977 C986 0.930 . S
H978 C991 0.929 . S
H979 C989 0.929 . S
H980 C984 0.929 . S
H981 C990 0.929 . S
C982 H976 0.930 . S
C982 C983 1.367 . S
C982 C990 1.378 . S
C983 C982 1.367 . S
C983 C991 1.433 . S
C984 H980 0.929 . S
C984 C986 1.378 . S
C984 C988 1.350 . S
C985 C988 1.463 . S
C985 C990 1.350 . S
C985 N993 1.427 . S
C986 H977 0.930 . S
C986 C984 1.378 . S
C986 C987 1.367 . S
C987 C986 1.367 . S
C987 C989 1.433 . S
C988 C984 1.350 . S
C988 C985 1.463 . S
C988 N992 1.427 . S
C989 H979 0.929 . S
C989 C987 1.433 . S
C989 N992 1.384 . S
C990 H981 0.929 . S
C990 C982 1.378 . S
C990 C985 1.350 . S
C991 H978 0.929 . S
C991 C983 1.433 . S
C991 N993 1.384 . S
N992 C988 1.427 . S
N992 C989 1.384 . S
N993 C985 1.427 . S
N993 C991 1.384 . S
H994 C1000 0.930 . S
H995 C1004 0.930 . S
H996 C1009 0.929 . S
H997 C1007 0.929 . S
H998 C1002 0.929 . S
H999 C1008 0.929 . S
C1000 H994 0.930 . S
C1000 C1001 1.367 . S
C1000 C1008 1.378 . S
C1001 C1000 1.367 . S
C1001 C1009 1.433 . S
C1002 H998 0.929 . S
C1002 C1004 1.378 . S
C1002 C1006 1.350 . S
C1003 C1006 1.463 . S
C1003 C1008 1.350 . S
C1003 N1011 1.427 . S
C1004 H995 0.930 . S
C1004 C1002 1.378 . S
C1004 C1005 1.367 . S
C1005 C1004 1.367 . S
C1005 C1007 1.433 . S
C1006 C1002 1.350 . S
C1006 C1003 1.463 . S
C1006 N1010 1.427 . S
C1007 H997 0.929 . S
C1007 C1005 1.433 . S
C1007 N1010 1.384 . S
C1008 H999 0.929 . S
C1008 C1000 1.378 . S
C1008 C1003 1.350 . S
C1009 H996 0.929 . S
C1009 C1001 1.433 . S
C1009 N1011 1.384 . S
N1010 C1006 1.427 . S
N1010 C1007 1.384 . S
N1011 C1003 1.427 . S
N1011 C1009 1.384 . S
H1012 C1018 0.930 . S
H1013 C1022 0.930 . S
H1014 C1027 0.929 . S
H1015 C1025 0.929 . S
H1016 C1020 0.929 . S
H1017 C1026 0.929 . S
C1018 H1012 0.930 . S
C1018 C1019 1.367 . S
C1018 C1026 1.378 . S
C1019 C1018 1.367 . S
C1019 C1027 1.433 . S
C1020 H1016 0.929 . S
C1020 C1022 1.378 . S
C1020 C1024 1.350 . S
C1021 C1024 1.463 . S
C1021 C1026 1.350 . S
C1021 N1029 1.427 . S
C1022 H1013 0.930 . S
C1022 C1020 1.378 . S
C1022 C1023 1.367 . S
C1023 C1022 1.367 . S
C1023 C1025 1.433 . S
C1024 C1020 1.350 . S
C1024 C1021 1.463 . S
C1024 N1028 1.427 . S
C1025 H1015 0.929 . S
C1025 C1023 1.433 . S
C1025 N1028 1.384 . S
C1026 H1017 0.929 . S
C1026 C1018 1.378 . S
C1026 C1021 1.350 . S
C1027 H1014 0.929 . S
C1027 C1019 1.433 . S
C1027 N1029 1.384 . S
N1028 C1024 1.427 . S
N1028 C1025 1.384 . S
N1029 C1021 1.427 . S
N1029 C1027 1.384 . S
H1030 C1036 0.930 . S
H1031 C1040 0.930 . S
H1032 C1045 0.929 . S
H1033 C1043 0.929 . S
H1034 C1038 0.929 . S
H1035 C1044 0.929 . S
C1036 H1030 0.930 . S
C1036 C1037 1.367 . S
C1036 C1044 1.378 . S
C1037 C1036 1.367 . S
C1037 C1045 1.433 . S
C1038 H1034 0.929 . S
C1038 C1040 1.378 . S
C1038 C1042 1.350 . S
C1039 C1042 1.463 . S
C1039 C1044 1.350 . S
C1039 N1047 1.427 . S
C1040 H1031 0.930 . S
C1040 C1038 1.378 . S
C1040 C1041 1.367 . S
C1041 C1040 1.367 . S
C1041 C1043 1.433 . S
C1042 C1038 1.350 . S
C1042 C1039 1.463 . S
C1042 N1046 1.427 . S
C1043 H1033 0.929 . S
C1043 C1041 1.433 . S
C1043 N1046 1.384 . S
C1044 H1035 0.929 . S
C1044 C1036 1.378 . S
C1044 C1039 1.350 . S
C1045 H1032 0.929 . S
C1045 C1037 1.433 . S
C1045 N1047 1.384 . S
N1046 C1042 1.427 . S
N1046 C1043 1.384 . S
N1047 C1039 1.427 . S
N1047 C1045 1.384 . S
H1048 C1054 0.930 . S
H1049 C1058 0.930 . S
H1050 C1063 0.929 . S
H1051 C1061 0.929 . S
H1052 C1056 0.929 . S
H1053 C1062 0.929 . S
C1054 H1048 0.930 . S
C1054 C1055 1.367 . S
C1054 C1062 1.378 . S
C1055 C1054 1.367 . S
C1055 C1063 1.433 . S
C1056 H1052 0.929 . S
C1056 C1058 1.378 . S
C1056 C1060 1.350 . S
C1057 C1060 1.463 . S
C1057 C1062 1.350 . S
C1057 N1065 1.427 . S
C1058 H1049 0.930 . S
C1058 C1056 1.378 . S
C1058 C1059 1.367 . S
C1059 C1058 1.367 . S
C1059 C1061 1.433 . S
C1060 C1056 1.350 . S
C1060 C1057 1.463 . S
C1060 N1064 1.427 . S
C1061 H1051 0.929 . S
C1061 C1059 1.433 . S
C1061 N1064 1.384 . S
C1062 H1053 0.929 . S
C1062 C1054 1.378 . S
C1062 C1057 1.350 . S
C1063 H1050 0.929 . S
C1063 C1055 1.433 . S
C1063 N1065 1.384 . S
N1064 C1060 1.427 . S
N1064 C1061 1.384 . S
N1065 C1057 1.427 . S
N1065 C1063 1.384 . S
H1066 C1072 0.930 . S
H1067 C1076 0.930 . S
H1068 C1081 0.929 . S
H1069 C1079 0.929 . S
H1070 C1074 0.929 . S
H1071 C1080 0.929 . S
C1072 H1066 0.930 . S
C1072 C1073 1.367 . S
C1072 C1080 1.378 . S
C1073 C1072 1.367 . S
C1073 C1081 1.433 . S
C1074 H1070 0.929 . S
C1074 C1076 1.378 . S
C1074 C1078 1.350 . S
C1075 C1078 1.463 . S
C1075 C1080 1.350 . S
C1075 N1083 1.427 . S
C1076 H1067 0.930 . S
C1076 C1074 1.378 . S
C1076 C1077 1.367 . S
C1077 C1076 1.367 . S
C1077 C1079 1.433 . S
C1078 C1074 1.350 . S
C1078 C1075 1.463 . S
C1078 N1082 1.427 . S
C1079 H1069 0.929 . S
C1079 C1077 1.433 . S
C1079 N1082 1.384 . S
C1080 H1071 0.929 . S
C1080 C1072 1.378 . S
C1080 C1075 1.350 . S
C1081 H1068 0.929 . S
C1081 C1073 1.433 . S
C1081 N1083 1.384 . S
N1082 C1078 1.427 . S
N1082 C1079 1.384 . S
N1083 C1075 1.427 . S
N1083 C1081 1.384 . S
H1084 C1090 0.930 . S
H1085 C1094 0.930 . S
H1086 C1099 0.929 . S
H1087 C1097 0.929 . S
H1088 C1092 0.929 . S
H1089 C1098 0.929 . S
C1090 H1084 0.930 . S
C1090 C1091 1.367 . S
C1090 C1098 1.378 . S
C1091 C1090 1.367 . S
C1091 C1099 1.433 . S
C1092 H1088 0.929 . S
C1092 C1094 1.378 . S
C1092 C1096 1.350 . S
C1093 C1096 1.463 . S
C1093 C1098 1.350 . S
C1093 N1101 1.427 . S
C1094 H1085 0.930 . S
C1094 C1092 1.378 . S
C1094 C1095 1.367 . S
C1095 C1094 1.367 . S
C1095 C1097 1.433 . S
C1096 C1092 1.350 . S
C1096 C1093 1.463 . S
C1096 N1100 1.427 . S
C1097 H1087 0.929 . S
C1097 C1095 1.433 . S
C1097 N1100 1.384 . S
C1098 H1089 0.929 . S
C1098 C1090 1.378 . S
C1098 C1093 1.350 . S
C1099 H1086 0.929 . S
C1099 C1091 1.433 . S
C1099 N1101 1.384 . S
N1100 C1096 1.427 . S
N1100 C1097 1.384 . S
N1101 C1093 1.427 . S
N1101 C1099 1.384 . S
H1102 C1108 0.930 . S
H1103 C1112 0.930 . S
H1104 C1117 0.929 . S
H1105 C1115 0.929 . S
H1106 C1110 0.929 . S
H1107 C1116 0.929 . S
C1108 H1102 0.930 . S
C1108 C1109 1.367 . S
C1108 C1116 1.378 . S
C1109 C1108 1.367 . S
C1109 C1117 1.433 . S
C1110 H1106 0.929 . S
C1110 C1112 1.378 . S
C1110 C1114 1.350 . S
C1111 C1114 1.463 . S
C1111 C1116 1.350 . S
C1111 N1119 1.427 . S
C1112 H1103 0.930 . S
C1112 C1110 1.378 . S
C1112 C1113 1.367 . S
C1113 C1112 1.367 . S
C1113 C1115 1.433 . S
C1114 C1110 1.350 . S
C1114 C1111 1.463 . S
C1114 N1118 1.427 . S
C1115 H1105 0.929 . S
C1115 C1113 1.433 . S
C1115 N1118 1.384 . S
C1116 H1107 0.929 . S
C1116 C1108 1.378 . S
C1116 C1111 1.350 . S
C1117 H1104 0.929 . S
C1117 C1109 1.433 . S
C1117 N1119 1.384 . S
N1118 C1114 1.427 . S
N1118 C1115 1.384 . S
N1119 C1111 1.427 . S
N1119 C1117 1.384 . S
H1120 C1126 0.930 . S
H1121 C1130 0.930 . S
H1122 C1135 0.929 . S
H1123 C1133 0.929 . S
H1124 C1128 0.929 . S
H1125 C1134 0.929 . S
C1126 H1120 0.930 . S
C1126 C1127 1.367 . S
C1126 C1134 1.378 . S
C1127 C1126 1.367 . S
C1127 C1135 1.433 . S
C1128 H1124 0.929 . S
C1128 C1130 1.378 . S
C1128 C1132 1.350 . S
C1129 C1132 1.463 . S
C1129 C1134 1.350 . S
C1129 N1137 1.427 . S
C1130 H1121 0.930 . S
C1130 C1128 1.378 . S
C1130 C1131 1.367 . S
C1131 C1130 1.367 . S
C1131 C1133 1.433 . S
C1132 C1128 1.350 . S
C1132 C1129 1.463 . S
C1132 N1136 1.427 . S
C1133 H1123 0.929 . S
C1133 C1131 1.433 . S
C1133 N1136 1.384 . S
C1134 H1125 0.929 . S
C1134 C1126 1.378 . S
C1134 C1129 1.350 . S
C1135 H1122 0.929 . S
C1135 C1127 1.433 . S
C1135 N1137 1.384 . S
N1136 C1132 1.427 . S
N1136 C1133 1.384 . S
N1137 C1129 1.427 . S
N1137 C1135 1.384 . S
H1138 C1144 0.930 . S
H1139 C1148 0.930 . S
H1140 C1153 0.929 . S
H1141 C1151 0.929 . S
H1142 C1146 0.929 . S
H1143 C1152 0.929 . S
C1144 H1138 0.930 . S
C1144 C1145 1.367 . S
C1144 C1152 1.378 . S
C1145 C1144 1.367 . S
C1145 C1153 1.433 . S
C1146 H1142 0.929 . S
C1146 C1148 1.378 . S
C1146 C1150 1.350 . S
C1147 C1150 1.463 . S
C1147 C1152 1.350 . S
C1147 N1155 1.427 . S
C1148 H1139 0.930 . S
C1148 C1146 1.378 . S
C1148 C1149 1.367 . S
C1149 C1148 1.367 . S
C1149 C1151 1.433 . S
C1150 C1146 1.350 . S
C1150 C1147 1.463 . S
C1150 N1154 1.427 . S
C1151 H1141 0.929 . S
C1151 C1149 1.433 . S
C1151 N1154 1.384 . S
C1152 H1143 0.929 . S
C1152 C1144 1.378 . S
C1152 C1147 1.350 . S
C1153 H1140 0.929 . S
C1153 C1145 1.433 . S
C1153 N1155 1.384 . S
N1154 C1150 1.427 . S
N1154 C1151 1.384 . S
N1155 C1147 1.427 . S
N1155 C1153 1.384 . S
H1156 C1162 0.930 . S
H1157 C1166 0.930 . S
H1158 C1171 0.929 . S
H1159 C1169 0.929 . S
H1160 C1164 0.929 . S
H1161 C1170 0.929 . S
C1162 H1156 0.930 . S
C1162 C1163 1.367 . S
C1162 C1170 1.378 . S
C1163 C1162 1.367 . S
C1163 C1171 1.433 . S
C1164 H1160 0.929 . S
C1164 C1166 1.378 . S
C1164 C1168 1.350 . S
C1165 C1168 1.463 . S
C1165 C1170 1.350 . S
C1165 N1173 1.427 . S
C1166 H1157 0.930 . S
C1166 C1164 1.378 . S
C1166 C1167 1.367 . S
C1167 C1166 1.367 . S
C1167 C1169 1.433 . S
C1168 C1164 1.350 . S
C1168 C1165 1.463 . S
C1168 N1172 1.427 . S
C1169 H1159 0.929 . S
C1169 C1167 1.433 . S
C1169 N1172 1.384 . S
C1170 H1161 0.929 . S
C1170 C1162 1.378 . S
C1170 C1165 1.350 . S
C1171 H1158 0.929 . S
C1171 C1163 1.433 . S
C1171 N1173 1.384 . S
N1172 C1168 1.427 . S
N1172 C1169 1.384 . S
N1173 C1165 1.427 . S
N1173 C1171 1.384 . S
H1174 C1180 0.930 . S
H1175 C1184 0.930 . S
H1176 C1189 0.929 . S
H1177 C1187 0.929 . S
H1178 C1182 0.929 . S
H1179 C1188 0.929 . S
C1180 H1174 0.930 . S
C1180 C1181 1.367 . S
C1180 C1188 1.378 . S
C1181 C1180 1.367 . S
C1181 C1189 1.433 . S
C1182 H1178 0.929 . S
C1182 C1184 1.378 . S
C1182 C1186 1.350 . S
C1183 C1186 1.463 . S
C1183 C1188 1.350 . S
C1183 N1191 1.427 . S
C1184 H1175 0.930 . S
C1184 C1182 1.378 . S
C1184 C1185 1.367 . S
C1185 C1184 1.367 . S
C1185 C1187 1.433 . S
C1186 C1182 1.350 . S
C1186 C1183 1.463 . S
C1186 N1190 1.427 . S
C1187 H1177 0.929 . S
C1187 C1185 1.433 . S
C1187 N1190 1.384 . S
C1188 H1179 0.929 . S
C1188 C1180 1.378 . S
C1188 C1183 1.350 . S
C1189 H1176 0.929 . S
C1189 C1181 1.433 . S
C1189 N1191 1.384 . S
N1190 C1186 1.427 . S
N1190 C1187 1.384 . S
N1191 C1183 1.427 . S
N1191 C1189 1.384 . S
H1192 C1198 0.930 . S
H1193 C1202 0.930 . S
H1194 C1207 0.929 . S
H1195 C1205 0.929 . S
H1196 C1200 0.929 . S
H1197 C1206 0.929 . S
C1198 H1192 0.930 . S
C1198 C1199 1.367 . S
C1198 C1206 1.378 . S
C1199 C1198 1.367 . S
C1199 C1207 1.433 . S
C1200 H1196 0.929 . S
C1200 C1202 1.378 . S
C1200 C1204 1.350 . S
C1201 C1204 1.463 . S
C1201 C1206 1.350 . S
C1201 N1209 1.427 . S
C1202 H1193 0.930 . S
C1202 C1200 1.378 . S
C1202 C1203 1.367 . S
C1203 C1202 1.367 . S
C1203 C1205 1.433 . S
C1204 C1200 1.350 . S
C1204 C1201 1.463 . S
C1204 N1208 1.427 . S
C1205 H1195 0.929 . S
C1205 C1203 1.433 . S
C1205 N1208 1.384 . S
C1206 H1197 0.929 . S
C1206 C1198 1.378 . S
C1206 C1201 1.350 . S
C1207 H1194 0.929 . S
C1207 C1199 1.433 . S
C1207 N1209 1.384 . S
N1208 C1204 1.427 . S
N1208 C1205 1.384 . S
N1209 C1201 1.427 . S
N1209 C1207 1.384 . S
C357 C171 2.140 . S
C353 C19 2.134 . S
C375 C161 1.638 . S
C371 C24 1.593 . S
C393 C162 1.013 . S
C389 C59 1.003 . S
C407 C69 1.392 . S
C411 C184 1.414 . S
C425 C82 1.584 . S
C429 C187 1.644 . S
C447 C170 1.011 . S
C443 C118 1.000 . S
C461 C132 1.399 . S
C465 C160 1.402 . S
C479 C158 2.127 . S
C483 C178 2.148 . S
C501 C191 1.716 . S
C497 C4 1.614 . S
C515 C29 0.985 . S
C519 C240 0.959 . S
C537 C218 1.654 . S
C533 C44 1.564 . S
C555 C232 0.998 . S
C551 C79 1.015 . S
C569 C98 1.011 . S
C573 C193 0.988 . S
C591 C246 1.415 . S
C587 C112 1.400 . S
C605 C122 1.200 . S
C609 C202 1.228 . S
C623 C152 1.359 . S
C627 C223 1.392 . S
C641 C9 1.353 . S
C645 C249 1.392 . S
C659 C92 0.979 . S
C663 C233 0.953 . S
C681 C192 1.658 . S
C677 C102 1.574 . S
C699 C224 0.980 . S
C695 C138 1.004 . S
C713 C142 1.621 . S
C717 C215 1.726 . S
C731 C49 1.403 . S
C735 C222 1.423 . S
C753 C209 1.219 . S
C749 C64 1.202 . S
C767 C39 0.994 . S
C771 C201 1.005 . S
C785 C159 2.127 . S
C789 C264 2.141 . S
C803 C84 1.594 . S
C807 C254 1.637 . S
C825 C255 1.001 . S
C821 C119 1.011 . S
C843 C277 1.413 . S
C839 C129 1.392 . S
C857 C22 1.579 . S
C861 C280 1.647 . S
C879 C263 0.995 . S
C875 C58 1.017 . S
C893 C72 1.407 . S
C897 C253 1.398 . S
C911 C18 2.131 . S
C915 C271 2.147 . S
C929 C144 1.632 . S
C933 C284 1.726 . S
C951 C333 0.977 . S
C947 C89 0.978 . S
C965 C104 1.575 . S
C969 C311 1.658 . S
C983 C139 1.000 . S
C987 C325 0.985 . S
C1005 C286 0.990 . S
C1001 C38 1.013 . S
C1019 C52 1.404 . S
C1023 C339 1.423 . S
C1041 C295 1.238 . S
C1037 C62 1.217 . S
C1059 C316 1.393 . S
C1055 C12 1.352 . S
C1077 C342 1.387 . S
C1073 C149 1.345 . S
C1091 C32 0.985 . S
C1095 C326 0.967 . S
C1109 C42 1.565 . S
C1113 C285 1.656 . S
C1131 C317 0.979 . S
C1127 C78 1.004 . S
C1145 C2 1.633 . S
C1149 C308 1.724 . S
C1163 C109 1.396 . S
C1167 C315 1.409 . S
C1185 C302 1.233 . S
C1181 C124 1.205 . S
C1203 C294 0.988 . S
C1199 C99 1.010 . S
