# Generated by pormake.
# Topology ocu, (6,8)-cn, num edge types: 1
# Building blocks:
#     Node 0, Type 0, BuildingBlock: PAMTOO_clean_sbu_0, # of connection points: 6
#     Node 1, Type 0, BuildingBlock: PAMTOO_clean_sbu_0, # of connection points: 6
#     Node 2, Type 0, BuildingBlock: PAMTOO_clean_sbu_0, # of connection points: 6
#     Node 3, Type 0, BuildingBlock: PAMTOO_clean_sbu_0, # of connection points: 6
#     Node 4, Type 0, BuildingBlock: PAMTOO_clean_sbu_0, # of connection points: 6
#     Node 5, Type 0, BuildingBlock: PAMTOO_clean_sbu_0, # of connection points: 6
#     Node 6, Type 0, BuildingBlock: PAMTOO_clean_sbu_0, # of connection points: 6
#     Node 7, Type 0, BuildingBlock: PAMTOO_clean_sbu_0, # of connection points: 6
#     Node 8, Type 1, BuildingBlock: GIZVER_clean_sbu_0, # of connection points: 8
#     Node 9, Type 1, BuildingBlock: GIZVER_clean_sbu_0, # of connection points: 8
#     Node 10, Type 1, BuildingBlock: GIZVER_clean_sbu_0, # of connection points: 8
#     Node 11, Type 1, BuildingBlock: GIZVER_clean_sbu_0, # of connection points: 8
#     Node 12, Type 1, BuildingBlock: GIZVER_clean_sbu_0, # of connection points: 8
#     Node 13, Type 1, BuildingBlock: GIZVER_clean_sbu_0, # of connection points: 8
#     Edge 14, Type (0, 1), BuildingBlock: ZUJKAS_clean_linker_0, # of connection points: 2
#     Edge 15, Type (0, 1), BuildingBlock: ZUJKAS_clean_linker_0, # of connection points: 2
#     Edge 16, Type (0, 1), BuildingBlock: ZUJKAS_clean_linker_0, # of connection points: 2
#     Edge 17, Type (0, 1), BuildingBlock: ZUJKAS_clean_linker_0, # of connection points: 2
#     Edge 18, Type (0, 1), BuildingBlock: ZUJKAS_clean_linker_0, # of connection points: 2
#     Edge 19, Type (0, 1), BuildingBlock: ZUJKAS_clean_linker_0, # of connection points: 2
#     Edge 20, Type (0, 1), BuildingBlock: ZUJKAS_clean_linker_0, # of connection points: 2
#     Edge 21, Type (0, 1), BuildingBlock: ZUJKAS_clean_linker_0, # of connection points: 2
#     Edge 22, Type (0, 1), BuildingBlock: ZUJKAS_clean_linker_0, # of connection points: 2
#     Edge 23, Type (0, 1), BuildingBlock: ZUJKAS_clean_linker_0, # of connection points: 2
#     Edge 24, Type (0, 1), BuildingBlock: ZUJKAS_clean_linker_0, # of connection points: 2
#     Edge 25, Type (0, 1), BuildingBlock: ZUJKAS_clean_linker_0, # of connection points: 2
#     Edge 26, Type (0, 1), BuildingBlock: ZUJKAS_clean_linker_0, # of connection points: 2
#     Edge 27, Type (0, 1), BuildingBlock: ZUJKAS_clean_linker_0, # of connection points: 2
#     Edge 28, Type (0, 1), BuildingBlock: ZUJKAS_clean_linker_0, # of connection points: 2
#     Edge 29, Type (0, 1), BuildingBlock: ZUJKAS_clean_linker_0, # of connection points: 2
#     Edge 30, Type (0, 1), BuildingBlock: ZUJKAS_clean_linker_0, # of connection points: 2
#     Edge 31, Type (0, 1), BuildingBlock: ZUJKAS_clean_linker_0, # of connection points: 2
#     Edge 32, Type (0, 1), BuildingBlock: ZUJKAS_clean_linker_0, # of connection points: 2
#     Edge 33, Type (0, 1), BuildingBlock: ZUJKAS_clean_linker_0, # of connection points: 2
#     Edge 34, Type (0, 1), BuildingBlock: ZUJKAS_clean_linker_0, # of connection points: 2
#     Edge 35, Type (0, 1), BuildingBlock: ZUJKAS_clean_linker_0, # of connection points: 2
#     Edge 36, Type (0, 1), BuildingBlock: ZUJKAS_clean_linker_0, # of connection points: 2
#     Edge 37, Type (0, 1), BuildingBlock: ZUJKAS_clean_linker_0, # of connection points: 2
#     Edge 38, Type (0, 1), BuildingBlock: ZUJKAS_clean_linker_0, # of connection points: 2
#     Edge 39, Type (0, 1), BuildingBlock: ZUJKAS_clean_linker_0, # of connection points: 2
#     Edge 40, Type (0, 1), BuildingBlock: ZUJKAS_clean_linker_0, # of connection points: 2
#     Edge 41, Type (0, 1), BuildingBlock: ZUJKAS_clean_linker_0, # of connection points: 2
#     Edge 42, Type (0, 1), BuildingBlock: ZUJKAS_clean_linker_0, # of connection points: 2
#     Edge 43, Type (0, 1), BuildingBlock: ZUJKAS_clean_linker_0, # of connection points: 2
#     Edge 44, Type (0, 1), BuildingBlock: ZUJKAS_clean_linker_0, # of connection points: 2
#     Edge 45, Type (0, 1), BuildingBlock: ZUJKAS_clean_linker_0, # of connection points: 2
#     Edge 46, Type (0, 1), BuildingBlock: ZUJKAS_clean_linker_0, # of connection points: 2
#     Edge 47, Type (0, 1), BuildingBlock: ZUJKAS_clean_linker_0, # of connection points: 2
#     Edge 48, Type (0, 1), BuildingBlock: ZUJKAS_clean_linker_0, # of connection points: 2
#     Edge 49, Type (0, 1), BuildingBlock: ZUJKAS_clean_linker_0, # of connection points: 2
#     Edge 50, Type (0, 1), BuildingBlock: ZUJKAS_clean_linker_0, # of connection points: 2
#     Edge 51, Type (0, 1), BuildingBlock: ZUJKAS_clean_linker_0, # of connection points: 2
#     Edge 52, Type (0, 1), BuildingBlock: ZUJKAS_clean_linker_0, # of connection points: 2
#     Edge 53, Type (0, 1), BuildingBlock: ZUJKAS_clean_linker_0, # of connection points: 2
#     Edge 54, Type (0, 1), BuildingBlock: ZUJKAS_clean_linker_0, # of connection points: 2
#     Edge 55, Type (0, 1), BuildingBlock: ZUJKAS_clean_linker_0, # of connection points: 2
#     Edge 56, Type (0, 1), BuildingBlock: ZUJKAS_clean_linker_0, # of connection points: 2
#     Edge 57, Type (0, 1), BuildingBlock: ZUJKAS_clean_linker_0, # of connection points: 2
#     Edge 58, Type (0, 1), BuildingBlock: ZUJKAS_clean_linker_0, # of connection points: 2
#     Edge 59, Type (0, 1), BuildingBlock: ZUJKAS_clean_linker_0, # of connection points: 2
#     Edge 60, Type (0, 1), BuildingBlock: ZUJKAS_clean_linker_0, # of connection points: 2
#     Edge 61, Type (0, 1), BuildingBlock: ZUJKAS_clean_linker_0, # of connection points: 2
# Relax obj value: 0.231
# Max RMSD: 0.300
# Mean RMSD: 0.197
data_MOF--net-ocu--node1-PAMTOO_clean_sbu_0--node2-GIZVER_clean_sbu_0--edge1-ZUJKAS_clean_linker_0
_symmetry_space_group_name_H-M    P1
_symmetry_Int_Tables_number       1
_symmetry_cell_setting            triclinic
loop_
_symmetry_equiv_pos_as_xyz
'x, y, z'
_cell_length_a     53.147898
_cell_length_b     58.052887
_cell_length_c     41.362536
_cell_angle_alpha  91.913035
_cell_angle_beta   93.658516
_cell_angle_gamma 103.66924
loop_
_atom_site_label
_atom_site_type_symbol
_atom_site_fract_x
_atom_site_fract_y
_atom_site_fract_z
_atom_type_partial_charge
Dy0 Dy 0.31024 0.29566 0.31092 0.0
Dy1 Dy 0.268 0.28737 0.25081 0.0
C2 C 0.31567 0.25851 0.25008 0.0
O3 O 0.32931 0.32334 0.27667 0.0
O4 O 0.29611 0.32124 0.23784 0.0
O5 O 0.34969 0.29993 0.33114 0.0
O6 O 0.31963 0.30343 0.36225 0.0
O7 O 0.25271 0.31299 0.28432 0.0
O8 O 0.28546 0.3218 0.32464 0.0
O9 O 0.25073 0.25678 0.28177 0.0
O10 O 0.27961 0.26436 0.32658 0.0
O11 O 0.22872 0.28346 0.23003 0.0
O12 O 0.25899 0.27962 0.19943 0.0
C13 C 0.32005 0.33092 0.24974 0.0
O14 O 0.32275 0.26652 0.28059 0.0
O15 O 0.29593 0.26493 0.23472 0.0
C16 C 0.35238 0.28651 0.38372 0.0
C17 C 0.37052 0.25623 0.42617 0.0
C18 C 0.35003 0.24704 0.40256 0.0
C19 C 0.34105 0.26208 0.38148 0.0
C20 C 0.37233 0.29588 0.40766 0.0
C21 C 0.38138 0.28085 0.42878 0.0
C22 C 0.34363 0.30216 0.36087 0.0
C23 C 0.2628 0.32462 0.31215 0.0
C24 C 0.25775 0.25191 0.31147 0.0
C25 C 0.22757 0.29842 0.1783 0.0
C26 C 0.21045 0.33286 0.14269 0.0
C27 C 0.23592 0.33773 0.15708 0.0
C28 C 0.24437 0.32066 0.17485 0.0
C29 C 0.20264 0.29301 0.16255 0.0
C30 C 0.19412 0.31011 0.14478 0.0
C31 C 0.23522 0.2817 0.20042 0.0
H32 H 0.34157 0.22813 0.39955 0.0
H33 H 0.32559 0.2546 0.36304 0.0
H34 H 0.38113 0.31477 0.40974 0.0
H35 H 0.39705 0.28842 0.44688 0.0
H36 H 0.24896 0.35504 0.15563 0.0
H37 H 0.26372 0.32514 0.18683 0.0
H38 H 0.18943 0.27594 0.16511 0.0
H39 H 0.17427 0.30597 0.13432 0.0
Dy40 Dy 0.80593 0.29552 0.25026 0.0
Dy41 Dy 0.77354 0.29479 0.3108 0.0
C42 C 0.82509 0.33335 0.30759 0.0
O43 O 0.81988 0.26671 0.27926 0.0
O44 O 0.80439 0.27396 0.32782 0.0
O45 O 0.83553 0.31443 0.22123 0.0
O46 O 0.81482 0.27848 0.2065 0.0
O47 O 0.75143 0.26147 0.28265 0.0
O48 O 0.76723 0.27171 0.23384 0.0
O49 O 0.75015 0.31307 0.27487 0.0
O50 O 0.78136 0.32335 0.23905 0.0
O51 O 0.7423 0.28291 0.34202 0.0
O52 O 0.77346 0.31352 0.35654 0.0
C53 C 0.81904 0.26296 0.3108 0.0
O54 O 0.83295 0.3177 0.28989 0.0
O55 O 0.80016 0.33075 0.30901 0.0
C56 C 0.82346 0.30638 0.16629 0.0
C57 C 0.81848 0.33647 0.11557 0.0
C58 C 0.79915 0.33082 0.13782 0.0
C59 C 0.80151 0.31569 0.16262 0.0
C60 C 0.84077 0.30902 0.14187 0.0
C61 C 0.83785 0.32342 0.11609 0.0
C62 C 0.83023 0.29793 0.19791 0.0
C63 C 0.75038 0.25799 0.25097 0.0
C64 C 0.75855 0.3252 0.24934 0.0
C65 C 0.75683 0.28858 0.39716 0.0
C66 C 0.75978 0.26227 0.45235 0.0
C67 C 0.73757 0.27087 0.44446 0.0
C68 C 0.73612 0.28388 0.417 0.0
C69 C 0.78001 0.28217 0.40662 0.0
C70 C 0.78154 0.26925 0.43421 0.0
C71 C 0.75333 0.29827 0.36545 0.0
H72 H 0.7835 0.33974 0.13861 0.0
H73 H 0.7874 0.31308 0.18068 0.0
H74 H 0.85748 0.30135 0.14385 0.0
H75 H 0.85216 0.32578 0.09828 0.0
H76 H 0.72026 0.26565 0.45753 0.0
H77 H 0.71821 0.2889 0.41013 0.0
H78 H 0.79639 0.28596 0.39172 0.0
H79 H 0.79896 0.26308 0.4398 0.0
Dy80 Dy 0.77863 0.77732 0.30402 0.0
Dy81 Dy 0.79305 0.80891 0.24015 0.0
C82 C 0.82947 0.82047 0.30582 0.0
O83 O 0.75007 0.79997 0.29937 0.0
O84 O 0.77557 0.83034 0.274 0.0
O85 O 0.76974 0.77535 0.35421 0.0
O86 O 0.7691 0.74328 0.32559 0.0
O87 O 0.75202 0.78782 0.22948 0.0
O88 O 0.75489 0.75705 0.2615 0.0
O89 O 0.80699 0.77595 0.23349 0.0
O90 O 0.81352 0.76703 0.28637 0.0
O91 O 0.80203 0.81 0.19005 0.0
O92 O 0.80108 0.84237 0.21673 0.0
C93 C 0.75622 0.82232 0.29193 0.0
O94 O 0.8102 0.80863 0.3215 0.0
O95 O 0.82886 0.81942 0.27396 0.0
C96 C 0.78619 0.74567 0.37932 0.0
C97 C 0.8217 0.72889 0.41993 0.0
C98 C 0.82931 0.75098 0.40601 0.0
C99 C 0.81174 0.75924 0.38574 0.0
C100 C 0.7782 0.72406 0.39411 0.0
C101 C 0.79582 0.71571 0.4143 0.0
C102 C 0.76889 0.75272 0.35457 0.0
C103 C 0.74367 0.76567 0.23716 0.0
C104 C 0.81776 0.76495 0.25561 0.0
C105 C 0.78613 0.83851 0.16178 0.0
C106 C 0.75394 0.85159 0.11263 0.0
C107 C 0.74412 0.83255 0.13201 0.0
C108 C 0.76007 0.82611 0.15643 0.0
C109 C 0.79623 0.85718 0.14215 0.0
C110 C 0.78024 0.86371 0.11773 0.0
C111 C 0.80253 0.83246 0.18842 0.0
H112 H 0.84919 0.76136 0.40947 0.0
H113 H 0.8184 0.77582 0.3741 0.0
H114 H 0.75859 0.7133 0.38917 0.0
H115 H 0.78938 0.69871 0.42494 0.0
H116 H 0.72386 0.82315 0.12912 0.0
H117 H 0.75192 0.81172 0.17152 0.0
H118 H 0.81634 0.8669 0.14602 0.0
H119 H 0.78835 0.87838 0.10307 0.0
Dy120 Dy 0.26754 0.80411 0.28241 0.0
Dy121 Dy 0.30645 0.7704 0.27412 0.0
C122 C 0.32069 0.81268 0.32862 0.0
O123 O 0.29453 0.82289 0.24497 0.0
O124 O 0.32701 0.80325 0.24865 0.0
O125 O 0.24761 0.82586 0.30929 0.0
O126 O 0.24268 0.82257 0.2564 0.0
O127 O 0.27858 0.76347 0.2296 0.0
O128 O 0.24504 0.77147 0.25491 0.0
O129 O 0.27683 0.74928 0.30691 0.0
O130 O 0.25145 0.77525 0.31745 0.0
O131 O 0.31102 0.73453 0.26894 0.0
O132 O 0.34412 0.76406 0.26612 0.0
C133 C 0.31808 0.82125 0.2381 0.0
O134 O 0.30239 0.82158 0.31487 0.0
O135 O 0.32294 0.7912 0.32046 0.0
C136 C 0.20742 0.83016 0.28379 0.0
C137 C 0.16023 0.84351 0.28786 0.0
C138 C 0.17233 0.83584 0.31538 0.0
C139 C 0.19582 0.82933 0.31338 0.0
C140 C 0.19356 0.83461 0.25554 0.0
C141 C 0.16999 0.84103 0.25752 0.0
C142 C 0.23525 0.8308 0.28301 0.0
C143 C 0.25353 0.76039 0.23161 0.0
C144 C 0.25705 0.75434 0.32136 0.0
C145 C 0.33799 0.7323 0.22763 0.0
C146 C 0.33639 0.71127 0.16512 0.0
C147 C 0.33001 0.73324 0.16926 0.0
C148 C 0.33075 0.74364 0.20029 0.0
C149 C 0.34515 0.71078 0.22362 0.0
C150 C 0.34449 0.70038 0.19256 0.0
C151 C 0.33455 0.74142 0.26003 0.0
H152 H 0.16544 0.83753 0.33922 0.0
H153 H 0.20589 0.82573 0.33554 0.0
H154 H 0.20196 0.83515 0.23231 0.0
H155 H 0.16086 0.84645 0.23584 0.0
H156 H 0.32361 0.74199 0.14866 0.0
H157 H 0.32482 0.76018 0.20303 0.0
H158 H 0.35054 0.70172 0.2445 0.0
H159 H 0.35009 0.68368 0.19004 0.0
Dy160 Dy 0.29634 0.78616 0.74307 0.0
Dy161 Dy 0.27275 0.79155 0.81059 0.0
C162 C 0.32045 0.83253 0.78981 0.0
O163 O 0.31395 0.76096 0.7762 0.0
O164 O 0.30369 0.77131 0.82654 0.0
O165 O 0.32842 0.78697 0.71336 0.0
O166 O 0.28924 0.77004 0.69453 0.0
O167 O 0.25782 0.75394 0.79128 0.0
O168 O 0.2556 0.76528 0.74033 0.0
O169 O 0.25184 0.81377 0.77611 0.0
O170 O 0.27311 0.81383 0.72949 0.0
O171 O 0.23773 0.78678 0.83578 0.0
O172 O 0.27521 0.8012 0.86175 0.0
C173 C 0.31626 0.75916 0.80832 0.0
O174 O 0.31988 0.82191 0.76118 0.0
O175 O 0.30512 0.82355 0.81212 0.0
C176 C 0.31832 0.78944 0.65806 0.0
C177 C 0.33628 0.81964 0.60864 0.0
C178 C 0.31494 0.82259 0.62538 0.0
C179 C 0.30615 0.80769 0.65017 0.0
C180 C 0.33781 0.78498 0.63937 0.0
C181 C 0.34675 0.79995 0.61479 0.0
C182 C 0.31342 0.77709 0.68804 0.0
C183 C 0.24823 0.74945 0.76137 0.0
C184 C 0.25548 0.82112 0.746 0.0
C185 C 0.24476 0.77363 0.88763 0.0
C186 C 0.23086 0.73688 0.93043 0.0
C187 C 0.23983 0.73243 0.90011 0.0
C188 C 0.24687 0.75065 0.87907 0.0
C189 C 0.23704 0.77858 0.9183 0.0
C190 C 0.23023 0.76032 0.93967 0.0
C191 C 0.25056 0.79208 0.86412 0.0
H192 H 0.30629 0.83741 0.62089 0.0
H193 H 0.29097 0.81131 0.66439 0.0
H194 H 0.34735 0.77093 0.64526 0.0
H195 H 0.36339 0.79727 0.60271 0.0
H196 H 0.24017 0.71464 0.89174 0.0
H197 H 0.25316 0.74662 0.85559 0.0
H198 H 0.23576 0.79637 0.92541 0.0
H199 H 0.22377 0.76442 0.96302 0.0
Dy200 Dy 0.30945 0.28838 0.7537 0.0
Dy201 Dy 0.27077 0.28434 0.81296 0.0
C202 C 0.25836 0.24712 0.7514 0.0
O203 O 0.27769 0.30616 0.73589 0.0
O204 O 0.26168 0.31431 0.78405 0.0
O205 O 0.31428 0.28681 0.70238 0.0
O206 O 0.34807 0.29518 0.73664 0.0
O207 O 0.3074 0.31042 0.83048 0.0
O208 O 0.32294 0.32295 0.78219 0.0
O209 O 0.29285 0.25606 0.82363 0.0
O210 O 0.32718 0.26854 0.79217 0.0
O211 O 0.26476 0.28923 0.86364 0.0
O212 O 0.232 0.27482 0.82944 0.0
C213 C 0.26303 0.31697 0.75255 0.0
O214 O 0.28297 0.25242 0.74576 0.0
O215 O 0.24917 0.25936 0.77296 0.0
C216 C 0.35074 0.27236 0.68897 0.0
C217 C 0.37335 0.23929 0.65702 0.0
C218 C 0.34622 0.23615 0.65538 0.0
C219 C 0.33502 0.25246 0.67124 0.0
C220 C 0.3778 0.27574 0.69019 0.0
C221 C 0.38898 0.25935 0.67457 0.0
C222 C 0.33937 0.28961 0.70649 0.0
C223 C 0.32313 0.32559 0.81382 0.0
C224 C 0.31643 0.25554 0.81562 0.0
C225 C 0.22583 0.3006 0.87144 0.0
C226 C 0.19826 0.33322 0.89388 0.0
C227 C 0.2212 0.3411 0.87807 0.0
C228 C 0.23478 0.32493 0.86682 0.0
C229 C 0.20305 0.29261 0.88717 0.0
C230 C 0.18935 0.30875 0.89826 0.0
C231 C 0.23957 0.28343 0.85882 0.0
H232 H 0.33358 0.2211 0.64177 0.0
H233 H 0.31406 0.24936 0.66971 0.0
H234 H 0.39034 0.29094 0.70365 0.0
H235 H 0.40991 0.26218 0.67691 0.0
H236 H 0.22883 0.3598 0.87462 0.0
H237 H 0.25226 0.33142 0.85446 0.0
H238 H 0.19572 0.27386 0.89059 0.0
H239 H 0.17154 0.30199 0.9098 0.0
Dy240 Dy 0.76806 0.29604 0.76362 0.0
Dy241 Dy 0.8113 0.26811 0.7872 0.0
C242 C 0.80841 0.316 0.82409 0.0
O243 O 0.80386 0.31626 0.74083 0.0
O244 O 0.8331 0.29339 0.75175 0.0
O245 O 0.75759 0.32917 0.75507 0.0
O246 O 0.7284 0.29612 0.74826 0.0
O247 O 0.78372 0.24406 0.75026 0.0
O248 O 0.76834 0.27121 0.72116 0.0
O249 O 0.77845 0.25462 0.81931 0.0
O250 O 0.74542 0.26472 0.78937 0.0
O251 O 0.83261 0.24189 0.77795 0.0
O252 O 0.83674 0.25965 0.82585 0.0
C253 C 0.82707 0.31206 0.7385 0.0
O254 O 0.78382 0.3115 0.81355 0.0
O255 O 0.8238 0.3038 0.81234 0.0
C256 C 0.71826 0.32792 0.77704 0.0
C257 C 0.70333 0.35063 0.83104 0.0
C258 C 0.70786 0.32789 0.83333 0.0
C259 C 0.7153 0.31664 0.80657 0.0
C260 C 0.71207 0.34992 0.77402 0.0
C261 C 0.70451 0.36119 0.80086 0.0
C262 C 0.73286 0.31912 0.75249 0.0
C263 C 0.77157 0.24962 0.7241 0.0
C264 C 0.7534 0.25237 0.81237 0.0
C265 C 0.87232 0.24538 0.80845 0.0
C266 C 0.91753 0.22991 0.7992 0.0
C267 C 0.90954 0.24559 0.77768 0.0
C268 C 0.88707 0.25331 0.78233 0.0
C269 C 0.88254 0.23322 0.83272 0.0
C270 C 0.9053 0.2258 0.82836 0.0
C271 C 0.84455 0.24474 0.80692 0.0
H272 H 0.7068 0.31927 0.85621 0.0
H273 H 0.72035 0.29978 0.8096 0.0
H274 H 0.7147 0.35905 0.75161 0.0
H275 H 0.70128 0.37882 0.79853 0.0
H276 H 0.91849 0.24948 0.75507 0.0
H277 H 0.87973 0.26317 0.76364 0.0
H278 H 0.8716 0.22736 0.85339 0.0
H279 H 0.91151 0.21452 0.846 0.0
Dy280 Dy 0.81415 0.79236 0.8077 0.0
Dy281 Dy 0.77375 0.77988 0.74728 0.0
C282 C 0.82503 0.75448 0.74871 0.0
O283 O 0.83387 0.81757 0.77106 0.0
O284 O 0.80263 0.8113 0.72897 0.0
O285 O 0.84234 0.78311 0.84123 0.0
O286 O 0.83582 0.81847 0.8442 0.0
O287 O 0.7549 0.80535 0.77815 0.0
O288 O 0.78497 0.81523 0.82124 0.0
O289 O 0.75544 0.75277 0.78254 0.0
O290 O 0.78237 0.76464 0.82839 0.0
O291 O 0.74331 0.78751 0.71574 0.0
O292 O 0.75474 0.7545 0.70845 0.0
C293 C 0.82561 0.82281 0.74211 0.0
O294 O 0.83044 0.76385 0.77908 0.0
O295 O 0.80518 0.75996 0.73174 0.0
C296 C 0.84599 0.80169 0.89305 0.0
C297 C 0.85011 0.79152 0.95891 0.0
C298 C 0.82857 0.77936 0.93835 0.0
C299 C 0.82649 0.78448 0.90575 0.0
C300 C 0.86601 0.81556 0.91397 0.0
C301 C 0.86793 0.81068 0.94679 0.0
C302 C 0.84714 0.80333 0.85784 0.0
C303 C 0.76272 0.81762 0.80644 0.0
C304 C 0.76124 0.75072 0.81361 0.0
C305 C 0.74151 0.77253 0.66225 0.0
C306 C 0.73591 0.78651 0.59831 0.0
C307 C 0.75703 0.79859 0.61957 0.0
C308 C 0.75985 0.79157 0.65121 0.0
C309 C 0.72196 0.75899 0.64044 0.0
C310 C 0.71931 0.76578 0.60854 0.0
C311 C 0.74092 0.76853 0.697 0.0
H312 H 0.8145 0.76439 0.94647 0.0
H313 H 0.81067 0.7738 0.88998 0.0
H314 H 0.881 0.82919 0.90458 0.0
H315 H 0.8844 0.8208 0.96208 0.0
H316 H 0.77014 0.81471 0.6129 0.0
H317 H 0.77527 0.80206 0.6677 0.0
H318 H 0.70786 0.744 0.64855 0.0
H319 H 0.70322 0.75574 0.5926 0.0
Co320 Co 0.07608 1.00076 0.52317 0.0
Co321 Co 0.06923 1.00773 0.57951 0.0
Co322 Co 0.03754 0.04131 0.52739 0.0
O323 O 0.06963 0.02873 0.54496 0.0
H324 H 0.08509 0.04154 0.5475 0.0
O325 O 1.0057 0.05455 0.51033 0.0
Co326 Co 1.00159 0.08396 0.53188 0.0
Co327 Co 1.00631 0.07531 0.47519 0.0
H328 H 0.98979 0.04224 0.50889 0.0
O329 O 0.0977 1.00416 0.6094 0.0
O330 O 0.08314 0.98166 0.56427 0.0
O331 O 0.03378 0.99813 0.5906 0.0
O332 O 1.01241 0.01953 0.55857 0.0
O333 O 0.04769 0.06784 0.56102 0.0
O334 O 0.9959 0.10801 0.55417 0.0
O335 O 0.96718 0.07404 0.5362 0.0
O336 O 0.03823 0.09714 0.53306 0.0
O337 O 0.06271 0.06278 0.49599 0.0
O338 O 0.04165 0.08376 0.46286 0.0
O339 O 0.99405 0.10248 0.49031 0.0
O340 O 0.97733 0.07938 0.44639 0.0
C341 C 0.10654 0.99274 0.50313 0.0
C342 C 0.02478 0.99262 0.49944 0.0
C343 C 1.0129 1.00379 0.5806 0.0
C344 C 0.09818 0.98535 0.59175 0.0
C345 C 0.97263 0.09438 0.5527 0.0
C346 C 0.05287 0.08961 0.55385 0.0
C347 C 0.06242 0.07801 0.47322 0.0
C348 C 0.97795 0.09863 0.4637 0.0
O349 O 0.08393 0.97791 0.50044 0.0
O350 O 0.11041 1.01248 0.52072 0.0
O351 O 0.02719 1.01456 0.49371 0.0
O352 O 0.04005 0.98612 0.52045 0.0
Co353 Co 0.56661 1.00038 0.97185 0.0
Co354 Co 0.5428 0.99336 0.02349 0.0
Co355 Co 0.52679 0.04313 0.01385 0.0
O356 O 0.5573 0.02401 0.00982 0.0
H357 H 0.57254 0.03152 0.02373 0.0
O358 O 0.496 0.06097 0.01715 0.0
Co359 Co 0.49447 0.09146 0.04368 0.0
Co360 Co 0.49558 0.08208 0.98407 0.0
H361 H 0.47942 0.04959 0.01634 0.0
O362 O 0.5641 0.9808 0.05043 0.0
O363 O 0.55361 0.97271 0.99678 0.0
O364 O 0.50651 0.98333 0.03029 0.0
O365 O 0.50471 0.01965 0.04666 0.0
O366 O 0.54657 0.06577 0.05099 0.0
O367 O 0.49179 0.11837 0.06894 0.0
O368 O 0.45834 0.08869 0.05304 0.0
O369 O 0.53195 0.09901 0.04142 0.0
O370 O 0.54896 0.06646 0.98297 0.0
O371 O 0.52683 0.09136 0.96204 0.0
O372 O 0.48727 0.10908 1.00243 0.0
O373 O 0.46488 0.08321 0.96254 0.0
C374 C 0.59814 0.98049 0.95293 0.0
C375 C 0.51105 1.00695 0.95558 0.0
C376 C 0.49565 0.9966 0.04639 0.0
C377 C 0.56526 0.96852 0.02393 0.0
C378 C 0.46691 0.10945 0.06901 0.0
C379 C 0.54836 0.08847 0.05521 0.0
C380 C 0.54747 0.08401 0.96495 0.0
C381 C 0.4686 0.10352 0.97862 0.0
O382 O 0.57529 0.97924 0.93875 0.0
O383 O 0.60297 0.9949 0.97926 0.0
O384 O 0.5069 0.02273 0.97582 0.0
O385 O 0.53216 0.99992 0.95554 0.0
Co386 Co 1.02072 0.50098 0.04377 0.0
Co387 Co 1.024 0.51624 0.10306 0.0
Co388 Co 0.99893 0.55035 0.05743 0.0
O389 O 0.02478 0.53125 0.06445 0.0
H390 H 0.04214 0.54089 0.06268 0.0
O391 O 0.97352 0.56997 0.05115 0.0
Co392 Co 0.98114 0.60039 0.07333 0.0
Co393 Co 0.97211 0.58543 0.01315 0.0
H394 H 0.95622 0.56094 0.05445 0.0
O395 O 0.05465 0.51276 0.1226 0.0
O396 O 0.02707 0.48748 0.08625 0.0
O397 O 0.99335 0.51352 0.12622 0.0
O398 O 0.97788 0.538 0.09448 0.0
O399 O 1.02347 0.57534 0.08682 0.0
O400 O 0.98462 0.6279 0.09561 0.0
O401 O 0.94899 0.5979 0.08592 0.0
O402 O 1.01627 0.60677 0.06331 0.0
O403 O 1.01925 0.56282 0.01991 0.0
O404 O 1.00174 0.58633 0.98802 0.0
O405 O 0.97355 0.61478 0.03284 0.0
O406 O 0.9408 0.59326 0.99953 0.0
C407 C 0.04474 0.48347 0.0218 0.0
C408 C 0.96929 0.50268 0.03205 0.0
C409 C 0.97606 0.52453 0.11841 0.0
C410 C 0.04857 0.49299 0.10498 0.0
C411 C 0.96035 0.6185 0.09998 0.0
C412 C 0.0318 0.59642 0.07796 0.0
C413 C 1.01963 0.57575 0.99542 0.0
C414 C 0.95057 0.612 0.01843 0.0
O415 O 1.02019 0.47349 0.02323 0.0
O416 O 0.05423 0.50466 0.03526 0.0
O417 O 0.97495 0.52498 0.02773 0.0
O418 O 0.98464 0.4935 0.04932 0.0
Co419 Co 0.58075 0.50442 0.02679 0.0
Co420 Co 0.56676 0.50672 0.08139 0.0
Co421 Co 0.53751 0.54208 0.02886 0.0
O422 O 0.56906 0.52986 0.04937 0.0
H423 H 0.58348 0.54316 0.05548 0.0
O424 O 0.50594 0.5538 0.00739 0.0
Co425 Co 0.48883 0.57572 0.02884 0.0
Co426 Co 0.50913 0.57835 0.97724 0.0
H427 H 0.49296 0.54014 0.99826 0.0
O428 O 0.59431 0.50295 0.11308 0.0
O429 O 0.58309 0.48239 0.066 0.0
O430 O 0.53034 0.49501 0.08716 0.0
O431 O 0.51065 0.51835 0.05613 0.0
O432 O 0.54409 0.5674 0.06464 0.0
O433 O 0.47051 0.59237 0.04935 0.0
O434 O 0.45634 0.56119 0.0133 0.0
O435 O 0.52149 0.5934 0.04776 0.0
O436 O 0.56446 0.56577 1.00203 0.0
O437 O 0.54573 0.59129 0.97413 0.0
O438 O 0.49009 0.60054 0.99227 0.0
O439 O 0.48347 0.58261 0.94316 0.0
C440 C 0.61542 0.49927 0.01535 0.0
C441 C 0.5291 0.49508 0.99681 0.0
C442 C 0.50994 0.50112 0.07623 0.0
C443 C 0.59693 0.48539 0.09431 0.0
C444 C 0.45161 0.57785 0.03217 0.0
C445 C 0.54079 0.58854 0.06366 0.0
C446 C 0.56575 0.58416 0.98397 0.0
C447 C 0.47858 0.59882 0.96259 0.0
O448 O 0.59392 0.4846 1.00428 0.0
O449 O 0.61503 0.51758 0.03425 0.0
O450 O 0.53126 0.51714 0.99294 0.0
O451 O 0.54547 0.48781 0.01531 0.0
Co452 Co 0.10168 0.4971 0.55914 0.0
Co453 Co 0.09065 0.50456 0.50211 0.0
Co454 Co 0.0525 0.5318 0.54839 0.0
O455 O 0.06828 0.50218 0.53662 0.0
H456 H 0.05488 0.4876 0.53422 0.0
O457 O 0.03698 0.56086 0.56219 0.0
Co458 Co 1.00713 0.56837 0.53796 0.0
Co459 Co 1.01332 0.56066 0.59554 0.0
H460 H 0.05098 0.57494 0.56571 0.0
O461 O 0.09121 0.47852 0.47327 0.0
O462 O 0.11971 0.49186 0.51599 0.0
O463 O 0.10104 0.53706 0.48852 0.0
O464 O 0.07642 0.55558 0.51744 0.0
O465 O 1.02424 0.52134 0.51257 0.0
O466 O 0.98336 0.57756 0.51349 0.0
O467 O 1.01963 0.60006 0.54037 0.0
O468 O 0.99093 0.53464 0.53043 0.0
O469 O 0.02829 0.50904 0.5788 0.0
O470 O 1.00321 0.5277 0.60781 0.0
O471 O 0.98435 0.5731 0.57816 0.0
O472 O 1.00942 0.58838 0.62227 0.0
C473 C 0.11719 0.46929 0.5795 0.0
C474 C 0.10516 0.54443 0.58063 0.0
C475 C 0.09419 0.55599 0.49657 0.0
C476 C 0.11284 0.47774 0.48924 0.0
C477 C 0.99846 0.5983 0.52172 0.0
C478 C 0.99976 0.51954 0.51382 0.0
C479 C 1.01036 0.5089 0.59921 0.0
C480 C 0.98876 0.58857 0.6038 0.0
O481 O 0.12976 0.49142 0.58134 0.0
O482 O 0.09405 0.46396 0.56378 0.0
O483 O 0.08075 0.54171 0.58357 0.0
O484 O 0.11421 0.53102 0.56143 0.0
Co485 Co 0.6209 1.00034 0.50035 0.0
Co486 Co 0.59533 1.00443 0.44653 0.0
Co487 Co 0.5696 0.02603 0.50498 0.0
O488 O 0.58586 1.00125 0.48867 0.0
H489 H 0.5743 0.98582 0.48988 0.0
O490 O 0.55365 0.05116 0.52093 0.0
Co491 Co 0.51826 0.05052 0.50999 0.0
Co492 Co 0.54641 0.0498 0.56409 0.0
H493 H 0.56471 0.0667 0.5181 0.0
O494 O 0.59455 0.97792 0.42117 0.0
O495 O 0.62835 0.99975 0.45339 0.0
O496 O 0.59779 0.03452 0.4283 0.0
O497 O 0.5835 0.04924 0.47199 0.0
O498 O 0.53796 1.01102 0.47583 0.0
O499 O 0.48617 0.05341 0.49993 0.0
O500 O 0.52325 0.08199 0.50832 0.0
O501 O 0.50863 1.01661 0.50897 0.0
O502 O 0.55557 1.00299 0.53833 0.0
O503 O 0.54572 0.0202 0.58331 0.0
O504 O 0.51248 0.05237 0.55686 0.0
O505 O 0.54484 0.07734 0.5873 0.0
C506 C 0.63912 0.97358 0.50734 0.0
C507 C 0.62375 0.04757 0.52525 0.0
C508 C 0.59311 0.05174 0.44449 0.0
C509 C 0.61874 0.98211 0.43219 0.0
C510 C 0.49821 0.07578 0.5015 0.0
C511 C 0.5157 1.00407 0.487 0.0
C512 C 0.54784 1.00192 0.56699 0.0
C513 C 0.52082 0.07154 0.57552 0.0
O514 O 0.65231 0.9956 0.51105 0.0
O515 O 0.61427 0.96877 0.49935 0.0
O516 O 0.60083 0.04071 0.53442 0.0
O517 O 0.63229 0.03482 0.50474 0.0
H518 H 0.21038 0.22192 0.28909 0.0
H519 H 0.18091 0.19176 0.31786 0.0
H520 H 0.23465 0.20641 0.40257 0.0
H521 H 0.26403 0.2368 0.37406 0.0
H522 H 0.18348 0.15058 0.34369 0.0
H523 H 0.17025 0.20974 0.44556 0.0
H524 H 0.18604 0.22106 0.41006 0.0
H525 H 0.20357 0.20936 0.44166 0.0
C526 C 0.21609 0.21883 0.31386 0.0
C527 C 0.23995 0.23227 0.3289 0.0
C528 C 0.19901 0.20138 0.33049 0.0
C529 C 0.20479 0.19665 0.36309 0.0
C530 C 0.22886 0.20975 0.37795 0.0
H531 H 0.11307 0.0981 0.50087 0.0
H532 H 0.14864 0.12538 0.47555 0.0
C533 C 0.24599 0.22718 0.3613 0.0
C534 C 0.18596 0.17792 0.38096 0.0
H535 H 0.15188 0.16867 0.44957 0.0
C536 C 0.17665 0.15473 0.36682 0.0
C537 C 0.17668 0.18263 0.4115 0.0
C538 C 0.18441 0.20708 0.42801 0.0
C539 C 0.15903 0.1366 0.38195 0.0
C540 C 0.14938 0.14141 0.41221 0.0
C541 C 0.15896 0.16448 0.42662 0.0
C542 C 0.12835 0.12332 0.428 0.0
C543 C 0.15138 0.11216 0.36539 0.0
C544 C 0.10467 0.11253 0.41041 0.0
C545 C 0.08449 0.09682 0.42481 0.0
C546 C 0.08674 0.09098 0.45765 0.0
C547 C 0.11058 0.10139 0.47538 0.0
C548 C 0.13093 0.11739 0.46087 0.0
H549 H 0.16666 0.10902 0.34984 0.0
H550 H 0.14777 0.0981 0.38324 0.0
H551 H 0.13337 0.11056 0.34949 0.0
H552 H 0.10129 0.11688 0.38552 0.0
H553 H 0.06648 0.08973 0.41021 0.0
H554 H 0.8313 0.25608 0.37743 0.0
H555 H 0.85746 0.23075 0.40259 0.0
H556 H 0.86891 0.20392 0.30787 0.0
H557 H 0.84431 0.2302 0.28298 0.0
H558 H 0.86086 0.19042 0.41541 0.0
H559 H 0.9396 0.20736 0.33316 0.0
H560 H 0.91493 0.22386 0.33139 0.0
H561 H 0.90936 0.19504 0.31044 0.0
C562 C 0.83958 0.24506 0.36162 0.0
C563 C 0.83523 0.2462 0.32738 0.0
C564 C 0.85489 0.2301 0.37639 0.0
C565 C 0.86703 0.21494 0.35817 0.0
C566 C 0.86182 0.2156 0.32392 0.0
H567 H 0.9543 0.10042 0.40156 0.0
H568 H 0.9294 0.1274 0.37879 0.0
C569 C 0.84693 0.23082 0.30919 0.0
C570 C 0.88413 0.19853 0.37464 0.0
H571 H 0.93789 0.17449 0.36623 0.0
C572 C 0.87779 0.1874 0.40431 0.0
C573 C 0.90705 0.19358 0.36195 0.0
C574 C 0.91834 0.20577 0.33273 0.0
C575 C 0.89223 0.17202 0.42007 0.0
C576 C 0.91462 0.16663 0.40682 0.0
C577 C 0.92103 0.17773 0.37731 0.0
C578 C 0.93104 0.1495 0.42233 0.0
C579 C 0.88266 0.16098 0.4508 0.0
C580 C 0.94185 0.15179 0.45521 0.0
C581 C 0.957 0.13614 0.46857 0.0
C582 C 0.96217 0.11677 0.45019 0.0
C583 C 0.95133 0.1146 0.41743 0.0
C584 C 0.93671 0.13043 0.40399 0.0
H585 H 0.8621 0.16134 0.4536 0.0
H586 H 0.88439 0.14231 0.45134 0.0
H587 H 0.89464 0.17112 0.4719 0.0
H588 H 0.93897 0.16611 0.47086 0.0
H589 H 0.96452 0.13919 0.49368 0.0
H590 H 0.8392 0.82379 0.37164 0.0
H591 H 0.87364 0.8521 0.40381 0.0
H592 H 0.90469 0.88158 0.31633 0.0
H593 H 0.87029 0.85306 0.28366 0.0
H594 H 0.94292 0.87518 0.36482 0.0
H595 H 0.8737 0.92299 0.41432 0.0
H596 H 0.8658 0.89163 0.42 0.0
H597 H 0.86503 0.90219 0.37968 0.0
C598 C 0.85338 0.83618 0.3591 0.0
C599 C 0.85178 0.83632 0.325 0.0
C600 C 0.87301 0.85241 0.3776 0.0
C601 C 0.89137 0.86922 0.36246 0.0
C602 C 0.89055 0.86882 0.32845 0.0
H603 H 0.98933 0.99952 0.45204 0.0
H604 H 0.9577 0.96935 0.4185 0.0
C605 C 0.87089 0.85252 0.30984 0.0
C606 C 0.91092 0.88758 0.38224 0.0
H607 H 0.91708 0.93398 0.43748 0.0
C608 C 0.93733 0.88809 0.38066 0.0
C609 C 0.90352 0.90455 0.40258 0.0
C610 C 0.8755 0.90554 0.40413 0.0
C611 C 0.95658 0.90492 0.39935 0.0
C612 C 0.94912 0.92145 0.42039 0.0
C613 C 0.92272 0.92115 0.42155 0.0
C614 C 0.96839 0.93956 0.44094 0.0
C615 C 0.98474 0.90512 0.39603 0.0
C616 C 0.98459 0.9328 0.46509 0.0
C617 C 1.00274 0.95001 0.48435 0.0
C618 C 1.00494 0.97432 0.47989 0.0
C619 C 0.98829 0.98099 0.45606 0.0
C620 C 0.97017 0.96377 0.43684 0.0
H621 H 0.98741 0.89538 0.37341 0.0
H622 H 0.99677 0.92358 0.3961 0.0
H623 H 0.992 0.89636 0.41689 0.0
H624 H 0.98313 0.91422 0.46914 0.0
H625 H 1.01511 0.94423 0.50261 0.0
H626 H 0.12049 0.83977 0.32834 0.0
H627 H 0.10955 0.87417 0.35443 0.0
H628 H 0.15181 0.91956 0.28582 0.0
H629 H 0.16305 0.88567 0.25988 0.0
H630 H 0.17385 0.91967 0.35671 0.0
H631 H 0.07386 0.9338 0.34006 0.0
H632 H 0.07726 0.90367 0.34164 0.0
H633 H 0.08878 0.92096 0.30813 0.0
C634 C 0.12629 0.85688 0.31777 0.0
C635 C 0.14331 0.86009 0.29275 0.0
C636 C 0.11994 0.87649 0.33261 0.0
C637 C 0.13029 0.89931 0.32221 0.0
C638 C 0.14369 0.90201 0.29405 0.0
H639 H 0.12688 0.01826 0.45394 0.0
H640 H 0.14045 1.00036 0.40552 0.0
C641 C 0.14998 0.88246 0.27916 0.0
C642 C 0.13369 0.91976 0.34536 0.0
H643 H 0.10073 0.95394 0.38554 0.0
C644 C 0.15806 0.92762 0.36258 0.0
C645 C 0.11301 0.92981 0.35284 0.0
C646 C 0.08671 0.92181 0.33466 0.0
C647 C 0.16186 0.94448 0.3885 0.0
C648 C 0.14085 0.95374 0.39699 0.0
C649 C 0.11688 0.94689 0.37858 0.0
C650 C 0.14178 0.96744 0.42774 0.0
C651 C 0.18784 0.95144 0.40766 0.0
C652 C 0.13969 0.95528 0.45653 0.0
C653 C 0.13171 0.96533 0.48392 0.0
C654 C 0.12618 0.98773 0.4828 0.0
C655 C 0.13162 1.00114 0.45541 0.0
C656 C 0.13908 0.99088 0.42771 0.0
H657 H 0.20348 0.94691 0.39396 0.0
H658 H 0.19306 0.97077 0.41427 0.0
H659 H 0.1867 0.94183 0.43047 0.0
H660 H 0.14146 0.93706 0.45677 0.0
H661 H 0.12714 0.9546 0.50466 0.0
H662 H 0.24814 0.83204 0.6804 0.0
H663 H 0.22243 0.85769 0.65498 0.0
H664 H 0.19928 0.8753 0.74846 0.0
H665 H 0.22445 0.84919 0.77385 0.0
H666 H 0.1682 0.85886 0.6503 0.0
H667 H 0.22227 0.94242 0.71492 0.0
H668 H 0.23481 0.9161 0.71396 0.0
H669 H 0.21017 0.91861 0.74073 0.0
C670 C 0.23767 0.84126 0.69593 0.0
C671 C 0.23914 0.83785 0.72993 0.0
C672 C 0.22259 0.85624 0.68101 0.0
C673 C 0.20833 0.86949 0.69899 0.0
C674 C 0.20986 0.86616 0.733 0.0
H675 H 0.12031 0.98307 0.65459 0.0
H676 H 0.1445 0.95593 0.67795 0.0
C677 C 0.2245 0.85077 0.74786 0.0
C678 C 0.19212 0.88627 0.68246 0.0
H679 H 0.18489 0.94428 0.6824 0.0
C680 C 0.17211 0.87756 0.65752 0.0
C681 C 0.19601 0.91107 0.69089 0.0
C682 C 0.21707 0.92281 0.71637 0.0
C683 C 0.15621 0.8919 0.64229 0.0
C684 C 0.16039 0.91696 0.65022 0.0
C685 C 0.18062 0.92559 0.67513 0.0
C686 C 0.14412 0.93416 0.63426 0.0
C687 C 0.13407 0.87926 0.61877 0.0
C688 C 0.13463 0.93268 0.60083 0.0
C689 C 0.11975 0.9484 0.58718 0.0
C690 C 0.11384 0.96732 0.60563 0.0
C691 C 0.12382 0.96915 0.63869 0.0
C692 C 0.13819 0.95324 0.65242 0.0
H693 H 0.12784 0.86009 0.6235 0.0
H694 H 0.11699 0.88706 0.6202 0.0
H695 H 0.14051 0.88055 0.59377 0.0
H696 H 0.13906 0.91953 0.58451 0.0
H697 H 0.11324 0.94587 0.56171 0.0
H698 H 0.20925 0.22417 0.76397 0.0
H699 H 0.17694 0.19681 0.72756 0.0
H700 H 0.23263 0.20172 0.65509 0.0
H701 H 0.26536 0.2285 0.69188 0.0
H702 H 0.15678 0.20602 0.67045 0.0
H703 H 0.20388 0.13125 0.65323 0.0
H704 H 0.21554 0.15454 0.68433 0.0
H705 H 0.22348 0.15933 0.64306 0.0
C706 C 0.21478 0.2191 0.7405 0.0
C707 C 0.2399 0.22842 0.73087 0.0
C708 C 0.19625 0.20351 0.71965 0.0
C709 C 0.20236 0.19703 0.68863 0.0
C710 C 0.22759 0.20599 0.67914 0.0
H711 H 0.07616 0.13528 0.53938 0.0
H712 H 0.11373 0.16228 0.56896 0.0
C713 C 0.24628 0.22136 0.7002 0.0
C714 C 0.18179 0.182 0.66583 0.0
H715 H 0.16558 0.12997 0.61982 0.0
C716 C 0.1587 0.18938 0.65938 0.0
C717 C 0.18428 0.16026 0.65145 0.0
C718 C 0.20802 0.15073 0.65857 0.0
C719 C 0.13787 0.17546 0.63951 0.0
C720 C 0.14046 0.15386 0.62484 0.0
C721 C 0.16372 0.14666 0.63082 0.0
C722 C 0.11855 0.13748 0.6055 0.0
C723 C 0.11294 0.18361 0.63552 0.0
C724 C 0.10936 0.11435 0.61549 0.0
C725 C 0.08823 0.09887 0.59846 0.0
C726 C 0.07566 0.10619 0.57108 0.0
C727 C 0.08517 0.12924 0.56065 0.0
C728 C 0.10657 0.1447 0.5776 0.0
H729 H 0.11203 0.19735 0.65448 0.0
H730 H 0.11167 0.19145 0.61155 0.0
H731 H 0.09579 0.16849 0.63661 0.0
H732 H 0.11829 0.10835 0.63688 0.0
H733 H 0.08153 0.08123 0.60715 0.0
H734 H 0.90892 0.18242 0.80882 0.0
H735 H 0.91853 0.15324 0.77142 0.0
H736 H 0.96691 0.20889 0.7213 0.0
H737 H 0.95831 0.23861 0.75963 0.0
H738 H 0.90942 0.17638 0.69279 0.0
H739 H 0.9866 0.13076 0.73247 0.0
H740 H 0.96637 0.13987 0.76145 0.0
H741 H 0.98994 0.16185 0.7431 0.0
C742 C 0.92289 0.18864 0.79122 0.0
C743 C 0.93221 0.21307 0.78667 0.0
C744 C 0.92819 0.17176 0.76964 0.0
C745 C 0.94298 0.17904 0.74346 0.0
C746 C 0.9553 0.20307 0.74143 0.0
H747 H 0.96226 0.13749 0.55546 0.0
H748 H 0.94669 0.15477 0.60233 0.0
C749 C 0.95025 0.22001 0.76326 0.0
C750 C 0.94038 0.16273 0.71486 0.0
H751 H 0.96524 0.1197 0.68052 0.0
C752 C 0.92149 0.16385 0.69007 0.0
C753 C 0.95571 0.14615 0.71207 0.0
C754 C 0.97587 0.14439 0.73859 0.0
C755 C 0.91816 0.14928 0.66174 0.0
C756 C 0.93446 0.13352 0.65805 0.0
C757 C 0.95261 0.13169 0.68355 0.0
C758 C 0.93603 0.12166 0.6264 0.0
C759 C 0.89759 0.15119 0.63579 0.0
C760 C 0.93394 0.0971 0.62364 0.0
C761 C 0.94259 0.08712 0.59648 0.0
C762 C 0.9538 0.10179 0.57238 0.0
C763 C 0.95337 0.12585 0.57365 0.0
C764 C 0.9445 0.13573 0.60047 0.0
H765 H 0.88131 0.15705 0.6464 0.0
H766 H 0.9062 0.16463 0.61864 0.0
H767 H 0.88972 0.134 0.62193 0.0
H768 H 0.92756 0.08602 0.64354 0.0
H769 H 0.9432 0.06859 0.59617 0.0
H770 H 0.81756 0.83843 0.67997 0.0
H771 H 0.84624 0.86923 0.65095 0.0
H772 H 0.90173 0.88303 0.73397 0.0
H773 H 0.87356 0.85208 0.76265 0.0
H774 H 0.86583 0.91631 0.6586 0.0
H775 H 0.95003 0.87601 0.66698 0.0
H776 H 0.91845 0.86044 0.67795 0.0
H777 H 0.93982 0.88159 0.70634 0.0
C778 C 0.83592 0.8479 0.69213 0.0
C779 C 0.843 0.84222 0.72392 0.0
C780 C 0.85246 0.86574 0.67536 0.0
C781 C 0.87688 0.87859 0.68952 0.0
C782 C 0.88363 0.87325 0.72154 0.0
H783 H 1.00902 0.99131 0.64325 0.0
H784 H 0.97525 0.96222 0.66689 0.0
C785 C 0.86719 0.85543 0.73824 0.0
C786 C 0.89513 0.89748 0.67125 0.0
H787 H 0.95842 0.91603 0.65116 0.0
C788 C 0.88602 0.91602 0.65683 0.0
C789 C 0.9217 0.89759 0.66818 0.0
C790 C 0.93303 0.87772 0.68037 0.0
C791 C 0.90255 0.93467 0.64107 0.0
C792 C 0.92928 0.93508 0.63887 0.0
C793 C 0.93819 0.91628 0.65271 0.0
C794 C 0.94872 0.95508 0.62396 0.0
C795 C 0.89135 0.9543 0.62789 0.0
C796 C 0.94558 0.96193 0.5916 0.0
C797 C 0.96524 0.97913 0.57776 0.0
C798 C 0.98878 0.99005 0.5958 0.0
C799 C 0.99129 0.98369 0.62837 0.0
C800 C 0.97185 0.9667 0.64204 0.0
H801 H 0.87272 0.95478 0.63833 0.0
H802 H 0.90517 0.97184 0.63298 0.0
H803 H 0.88755 0.95136 0.6012 0.0
H804 H 0.9284 0.95323 0.57642 0.0
H805 H 0.96262 0.98282 0.55244 0.0
H806 H 0.35415 0.23531 0.27332 0.0
H807 H 0.37762 0.21033 0.24373 0.0
H808 H 0.3352 0.21903 0.1548 0.0
H809 H 0.31169 0.24373 0.18419 0.0
H810 H 0.36577 0.16738 0.20772 0.0
H811 H 0.40689 0.23511 0.12266 0.0
H812 H 0.39132 0.24227 0.15788 0.0
H813 H 0.37212 0.22881 0.12173 0.0
C814 C 0.34963 0.23203 0.24744 0.0
C815 C 0.33048 0.24219 0.23185 0.0
C816 C 0.3633 0.21743 0.23019 0.0
C817 C 0.35918 0.21241 0.19608 0.0
C818 C 0.3399 0.22243 0.18062 0.0
H819 H 0.41406 0.0959 0.08499 0.0
H820 H 0.38847 0.11902 0.1144 0.0
C821 C 0.32601 0.23672 0.19787 0.0
C822 C 0.37463 0.19695 0.17702 0.0
H823 H 0.41244 0.19638 0.11161 0.0
C824 C 0.37584 0.17395 0.18668 0.0
C825 C 0.3886 0.20464 0.14929 0.0
C826 C 0.38997 0.22912 0.13735 0.0
C827 C 0.38951 0.15901 0.16988 0.0
C828 C 0.40306 0.16653 0.14176 0.0
C829 C 0.40225 0.18971 0.13252 0.0
C830 C 0.41884 0.15138 0.12266 0.0
C831 C 0.38983 0.13526 0.18328 0.0
C832 C 0.44492 0.16093 0.1156 0.0
C833 C 0.45978 0.14745 0.09867 0.0
C834 C 0.44959 0.12352 0.08691 0.0
C835 C 0.42329 0.11399 0.09328 0.0
C836 C 0.40844 0.12745 0.1107 0.0
H837 H 0.38515 0.13456 0.20907 0.0
H838 H 0.37502 0.12125 0.16912 0.0
H839 H 0.40908 0.13115 0.18141 0.0
H840 H 0.45421 0.17904 0.12373 0.0
H841 H 0.47967 0.15608 0.0947 0.0
H842 H 0.78145 0.36162 0.09698 0.0
H843 H 0.79118 0.40455 0.09258 0.0
H844 H 0.87212 0.406 0.08671 0.0
H845 H 0.86359 0.36425 0.09438 0.0
H846 H 0.82977 0.42981 0.14698 0.0
H847 H 0.85781 0.45849 0.02555 0.0
H848 H 0.83409 0.43119 0.03151 0.0
H849 H 0.86826 0.43244 0.03697 0.0
C850 C 0.80138 0.37089 0.09462 0.0
C851 C 0.82183 0.35918 0.09824 0.0
C852 C 0.80674 0.39547 0.09149 0.0
C853 C 0.83238 0.40838 0.08985 0.0
C854 C 0.85213 0.39627 0.08793 0.0
H855 H 0.95828 0.48788 0.15748 0.0
H856 H 0.91293 0.46719 0.1584 0.0
C857 C 0.84701 0.372 0.09225 0.0
C858 C 0.84013 0.43417 0.09759 0.0
H859 H 0.88276 0.48198 0.07161 0.0
C860 C 0.84043 0.44176 0.13026 0.0
C861 C 0.85379 0.44971 0.0758 0.0
C862 C 0.8533 0.44262 0.0404 0.0
C863 C 0.85713 0.46317 0.1425 0.0
C864 C 0.87352 0.47715 0.1214 0.0
C865 C 0.87029 0.47117 0.08793 0.0
C866 C 0.89801 0.49397 0.13348 0.0
C867 C 0.85886 0.46956 0.1783 0.0
C868 C 0.90454 0.51671 0.12144 0.0
C869 C 0.93058 0.52866 0.121 0.0
C870 C 0.95036 0.5177 0.13187 0.0
C871 C 0.94358 0.49667 0.14848 0.0
C872 C 0.91752 0.48484 0.14918 0.0
H873 H 0.83986 0.4628 0.18861 0.0
H874 H 0.87323 0.4612 0.19092 0.0
H875 H 0.86519 0.48908 0.18323 0.0
H876 H 0.88977 0.52407 0.1093 0.0
H877 H 0.93513 0.54518 0.10875 0.0
H878 H 0.71573 0.82466 0.07022 0.0
H879 H 0.68191 0.8382 0.03854 0.0
H880 H 0.71781 0.91054 0.07126 0.0
H881 H 0.75145 0.8972 0.10288 0.0
H882 H 0.64874 0.85939 0.06738 0.0
H883 H 0.69766 0.91849 0.97707 0.0
H884 H 0.71307 0.89799 0.99782 0.0
H885 H 0.71404 0.92675 0.01647 0.0
C886 C 0.71664 0.8435 0.07013 0.0
C887 C 0.73615 0.85987 0.08916 0.0
C888 C 0.69743 0.8512 0.05188 0.0
C889 C 0.69753 0.87539 0.05221 0.0
C890 C 0.71773 0.89185 0.0699 0.0
H891 H 0.59713 0.96047 0.07417 0.0
H892 H 0.62559 0.93318 0.07474 0.0
C893 C 0.73694 0.88419 0.08809 0.0
C894 C 0.6747 0.88322 0.03857 0.0
H895 H 0.65845 0.92799 0.99719 0.0
C896 C 0.65063 0.87385 0.05107 0.0
C897 C 0.67708 0.90196 0.01713 0.0
C898 C 0.70184 0.91168 1.00112 0.0
C899 C 0.62957 0.88412 0.04493 0.0
C900 C 0.63279 0.90426 0.02608 0.0
C901 C 0.65611 0.91246 0.01149 0.0
C902 C 0.61388 0.91916 0.02558 0.0
C903 C 0.6045 0.87438 0.06026 0.0
C904 C 0.59773 0.92001 0.99775 0.0
C905 C 0.58101 0.93538 0.99748 0.0
C906 C 0.58087 0.95054 0.02472 0.0
C907 C 0.59678 0.94914 0.05272 0.0
C908 C 0.61309 0.93358 0.05312 0.0
H909 H 0.60305 0.85598 0.06795 0.0
H910 H 0.6035 0.88577 0.08201 0.0
H911 H 0.58757 0.87452 0.04313 0.0
H912 H 0.59824 0.90899 0.97625 0.0
H913 H 0.56868 0.93577 0.97574 0.0
H914 H 0.20161 0.74608 0.2372 0.0
H915 H 0.16944 0.71699 0.20376 0.0
H916 H 0.22846 0.70617 0.14199 0.0
H917 H 0.26146 0.73511 0.17655 0.0
H918 H 0.15311 0.71745 0.14245 0.0
H919 H 0.19376 0.63837 0.15876 0.0
H920 H 0.20587 0.66562 0.18304 0.0
H921 H 0.21481 0.66334 0.1421 0.0
C922 C 0.20797 0.73761 0.21655 0.0
C923 C 0.23425 0.74307 0.20962 0.0
C924 C 0.18941 0.72087 0.19735 0.0
C925 C 0.19637 0.70908 0.17041 0.0
C926 C 0.22258 0.71461 0.163 0.0
H927 H 0.06129 0.63086 0.04398 0.0
H928 H 0.10393 0.65665 0.06098 0.0
C929 C 0.24141 0.73134 0.1826 0.0
C930 C 0.17562 0.69156 0.15033 0.0
H931 H 0.15416 0.63264 0.12698 0.0
C932 C 0.15348 0.69894 0.13884 0.0
C933 C 0.17594 0.66733 0.14568 0.0
C934 C 0.19874 0.65804 0.15822 0.0
C935 C 0.13135 0.68281 0.12428 0.0
C936 C 0.13152 0.65852 0.11987 0.0
C937 C 0.15401 0.65122 0.13024 0.0
C938 C 0.10785 0.64037 0.10678 0.0
C939 C 0.10751 0.69184 0.11548 0.0
C940 C 0.09659 0.62144 0.12565 0.0
C941 C 0.07244 0.60625 0.11556 0.0
C942 C 0.05894 0.60994 0.08661 0.0
C943 C 0.07096 0.62795 0.06681 0.0
C944 C 0.0953 0.64278 0.07657 0.0
H945 H 0.10842 0.70931 0.12794 0.0
H946 H 0.10597 0.69414 0.08897 0.0
H947 H 0.08961 0.67913 0.12188 0.0
H948 H 0.10594 0.61903 0.14892 0.0
H949 H 0.06375 0.59244 0.13121 0.0
H950 H 0.34136 0.8673 0.74901 0.0
H951 H 0.37046 0.90626 0.76483 0.0
H952 H 0.3707 0.88757 0.86499 0.0
H953 H 0.34115 0.84951 0.84963 0.0
H954 H 0.36423 0.9316 0.85901 0.0
H955 H 0.44713 0.91951 0.78961 0.0
H956 H 0.41682 0.91821 0.76688 0.0
H957 H 0.41943 0.89535 0.79424 0.0
C958 C 0.34781 0.87159 0.77433 0.0
C959 C 0.33906 0.85544 0.79811 0.0
C960 C 0.36442 0.89379 0.78333 0.0
C961 C 0.37287 0.89979 0.81609 0.0
C962 C 0.36425 0.88347 0.83961 0.0
H963 H 0.50265 0.96247 0.92853 0.0
H964 H 0.468 0.94242 0.88899 0.0
C965 C 0.34744 0.86164 0.83078 0.0
C966 C 0.39113 0.92263 0.82687 0.0
H967 H 0.45515 0.95102 0.82827 0.0
C968 C 0.38405 0.93621 0.85194 0.0
C969 C 0.41681 0.9287 0.81721 0.0
C970 C 0.42569 0.91468 0.79065 0.0
C971 C 0.40257 0.9539 0.87012 0.0
C972 C 0.4287 0.95877 0.86201 0.0
C973 C 0.43513 0.94704 0.83457 0.0
C974 C 0.45022 0.97225 0.88476 0.0
C975 C 0.39438 0.96557 0.89953 0.0
C976 C 0.45184 0.99579 0.89567 0.0
C977 C 0.47143 1.00717 0.9191 0.0
C978 C 0.49003 0.99536 0.9312 0.0
C979 C 0.48869 0.97208 0.91955 0.0
C980 C 0.46894 0.96063 0.8968 0.0
H981 H 0.37433 0.95685 0.90532 0.0
H982 H 0.40778 0.96514 0.92111 0.0
H983 H 0.39497 0.9844 0.89494 0.0
H984 H 0.43795 1.00529 0.88624 0.0
H985 H 0.47225 0.02525 0.92742 0.0
H986 H 0.17373 0.33281 0.95022 0.0
H987 H 0.14879 0.36034 0.96883 0.0
H988 H 0.16599 0.40089 0.8841 0.0
H989 H 0.18984 0.37271 0.86438 0.0
H990 H 0.16408 0.40724 0.98421 0.0
H991 H 0.08801 0.39064 0.8821 0.0
H992 H 0.11034 0.37187 0.88839 0.0
H993 H 0.12054 0.39983 0.86988 0.0
C994 C 0.17187 0.34734 0.93522 0.0
C995 C 0.18363 0.35038 0.90563 0.0
C996 C 0.15779 0.3632 0.94605 0.0
C997 C 0.15516 0.38247 0.92761 0.0
C998 C 0.16727 0.38586 0.89839 0.0
H999 H 0.09644 0.49898 0.0117 0.0
H1000 H 0.12441 0.47618 0.98737 0.0
C1001 C 0.18122 0.3699 0.88739 0.0
C1002 C 0.14009 0.39911 0.93945 0.0
H1003 H 0.0872 0.42135 0.92084 0.0
C1004 C 0.1473 0.41039 0.97032 0.0
C1005 C 0.11807 0.40302 0.92139 0.0
C1006 C 0.10858 0.39056 0.88873 0.0
C1007 C 0.13293 0.42519 0.98384 0.0
C1008 C 0.11111 0.42935 0.96569 0.0
C1009 C 0.10407 0.41832 0.93462 0.0
C1010 C 0.09427 0.44374 0.97935 0.0
C1011 C 0.14065 0.43544 0.01795 0.0
C1012 C 0.06791 0.4333 0.98211 0.0
C1013 C 0.05185 0.44634 0.99553 0.0
C1014 C 0.06181 0.47013 1.00657 0.0
C1015 C 0.08819 0.48067 1.00352 0.0
C1016 C 0.10424 0.46762 0.98981 0.0
H1017 H 0.15364 0.4259 0.03111 0.0
H1018 H 0.15124 0.4543 0.01716 0.0
H1019 H 0.12326 0.43466 0.03177 0.0
H1020 H 0.05979 0.4149 0.97426 0.0
H1021 H 0.03166 0.43762 0.99761 0.0
H1022 H 0.6997 0.24278 0.80502 0.0
H1023 H 0.66764 0.21338 0.83148 0.0
H1024 H 0.72934 0.19155 0.88536 0.0
H1025 H 0.76151 0.2212 0.85933 0.0
H1026 H 0.65681 0.16603 0.83069 0.0
H1027 H 0.68525 0.1976 0.95854 0.0
H1028 H 0.69762 0.21488 0.92506 0.0
H1029 H 0.71135 0.1908 0.93762 0.0
C1030 C 0.7066 0.23194 0.82273 0.0
C1031 C 0.73355 0.23481 0.82994 0.0
C1032 C 0.68806 0.21491 0.83793 0.0
C1033 C 0.69559 0.2001 0.86118 0.0
C1034 C 0.72253 0.2029 0.86836 0.0
H1035 H 0.60078 0.08573 0.97487 0.0
H1036 H 0.63719 0.11206 0.94989 0.0
C1037 C 0.74111 0.21994 0.85315 0.0
C1038 C 0.67533 0.18139 0.87676 0.0
H1039 H 0.65385 0.16101 0.94985 0.0
C1040 C 0.65628 0.16511 0.85679 0.0
C1041 C 0.67423 0.17954 0.91093 0.0
C1042 C 0.69303 0.19675 0.93434 0.0
C1043 C 0.63672 0.14742 0.8696 0.0
C1044 C 0.6353 0.14584 0.90373 0.0
C1045 C 0.65459 0.16183 0.92377 0.0
C1046 C 0.61316 0.12881 0.91879 0.0
C1047 C 0.61798 0.13022 0.8461 0.0
C1048 C 0.58718 0.12907 0.91022 0.0
C1049 C 0.56642 0.11399 0.92433 0.0
C1050 C 0.5705 0.0979 0.94795 0.0
C1051 C 0.59654 0.09744 0.95655 0.0
C1052 C 0.6175 0.11275 0.94236 0.0
H1053 H 0.6266 0.12826 0.82269 0.0
H1054 H 0.61195 0.11243 0.85617 0.0
H1055 H 0.60041 0.13707 0.8409 0.0
H1056 H 0.58282 0.14144 0.89294 0.0
H1057 H 0.54692 0.11533 0.91693 0.0
H1058 H 0.89823 0.78872 0.98332 0.0
H1059 H 0.90708 0.75857 0.01818 0.0
H1060 H 0.82638 0.73791 0.0377 0.0
H1061 H 0.81721 0.76893 1.00338 0.0
H1062 H 0.89472 0.73551 0.08186 0.0
H1063 H 0.84076 0.68714 0.9698 0.0
H1064 H 0.85222 0.719 0.97177 0.0
H1065 H 0.82537 0.70523 0.99426 0.0
C1066 C 0.88246 0.77885 0.99633 0.0
C1067 C 0.85675 0.78071 0.98947 0.0
C1068 C 0.88764 0.76146 0.01636 0.0
C1069 C 0.86725 0.74563 0.02966 0.0
C1070 C 0.84229 0.7498 0.02714 0.0
H1071 H 0.89793 0.60466 0.01868 0.0
H1072 H 0.87322 0.63405 0.03159 0.0
C1073 C 0.83708 0.7674 0.00728 0.0
C1074 C 0.87127 0.72215 0.03783 0.0
H1075 H 0.86811 0.66862 0.99943 0.0
C1076 C 0.88832 0.72054 0.06444 0.0
C1077 C 0.8627 0.7026 0.01518 0.0
C1078 C 0.84431 0.70339 0.98604 0.0
C1079 C 0.89849 0.70045 0.06773 0.0
C1080 C 0.89212 0.68198 0.04313 0.0
C1081 C 0.87325 0.68278 0.01816 0.0
C1082 C 0.90704 0.66345 0.04005 0.0
C1083 C 0.91645 0.69957 0.09706 0.0
C1084 C 0.93426 0.67008 0.04048 0.0
C1085 C 0.94834 0.65329 0.03361 0.0
C1086 C 0.93545 0.62965 0.02507 0.0
C1087 C 0.90827 0.6229 0.02462 0.0
C1088 C 0.89419 0.63962 0.03231 0.0
H1089 H 0.91028 0.70793 0.1188 0.0
H1090 H 0.91691 0.68105 0.10201 0.0
H1091 H 0.93636 0.70973 0.09293 0.0
H1092 H 0.94468 0.68843 0.04508 0.0
H1093 H 0.96931 0.65893 0.0342 0.0
H1094 H 0.21692 0.37745 0.16939 0.0
H1095 H 0.19268 0.40666 0.15414 0.0
H1096 H 0.15518 0.36135 0.07159 0.0
H1097 H 0.17937 0.33175 0.08688 0.0
H1098 H 0.18408 0.43165 0.09856 0.0
H1099 H 0.0959 0.36524 0.1292 0.0
H1100 H 0.12827 0.36159 0.13864 0.0
H1101 H 0.11364 0.35572 0.0979 0.0
C1102 C 0.20412 0.37397 0.14742 0.0
C1103 C 0.19976 0.3522 0.12951 0.0
C1104 C 0.19025 0.39067 0.13881 0.0
C1105 C 0.17183 0.38588 0.11219 0.0
C1106 C 0.169 0.36508 0.09262 0.0
H1107 H 0.04267 0.4504 0.07139 0.0
H1108 H 0.07418 0.42608 0.06904 0.0
C1109 C 0.18277 0.34824 0.10135 0.0
C1110 C 0.15364 0.4013 0.10753 0.0
H1111 H 0.09027 0.4022 0.11367 0.0
C1112 C 0.16352 0.42527 0.10161 0.0
C1113 C 0.12692 0.39284 0.11185 0.0
C1114 C 0.11549 0.36751 0.12003 0.0
C1115 C 0.14724 0.44106 0.09954 0.0
C1116 C 0.12052 0.43262 0.10419 0.0
C1117 C 0.1107 0.40858 0.10983 0.0
C1118 C 0.10231 0.44834 0.10412 0.0
C1119 C 0.15879 0.46639 0.09157 0.0
C1120 C 0.10748 0.46879 0.12484 0.0
C1121 C 0.0899 0.4832 0.12531 0.0
C1122 C 0.06647 0.47704 0.10574 0.0
C1123 C 0.06081 0.45599 0.08612 0.0
C1124 C 0.07875 0.44197 0.08491 0.0
H1125 H 0.17641 0.46775 0.07797 0.0
H1126 H 0.14464 0.47384 0.07691 0.0
H1127 H 0.16469 0.47743 0.11444 0.0
H1128 H 0.12501 0.47354 0.14089 0.0
H1129 H 0.09471 0.49914 0.14107 0.0
H1130 H 0.18769 0.73201 0.96449 0.0
H1131 H 0.16151 0.69533 0.98272 0.0
H1132 H 0.21907 0.65822 0.95625 0.0
H1133 H 0.24632 0.69532 0.9393 0.0
H1134 H 0.16893 0.6442 0.92053 0.0
H1135 H 0.16023 0.6456 0.05324 0.0
H1136 H 0.15827 0.67314 0.03602 0.0
H1137 H 0.18791 0.66332 0.03493 0.0
C1138 C 0.19557 0.71643 0.96402 0.0
C1139 C 0.21892 0.71657 0.94975 0.0
C1140 C 0.18047 0.69538 0.97447 0.0
C1141 C 0.18837 0.67413 0.97071 0.0
C1142 C 0.21272 0.67452 0.95934 0.0
H1143 H 0.06022 0.55458 1.00234 0.0
H1144 H 0.105 0.57249 0.99169 0.0
C1145 C 0.22809 0.69569 0.94937 0.0
C1146 C 0.16886 0.65153 0.97201 0.0
H1147 H 0.12287 0.62273 0.0198 0.0
C1148 C 0.15932 0.63895 0.94242 0.0
C1149 C 0.15642 0.64483 1.00056 0.0
C1150 C 0.1664 0.65732 0.03305 0.0
C1151 C 0.1362 0.6212 0.94016 0.0
C1152 C 0.12265 0.61594 0.96818 0.0
C1153 C 0.13339 0.62699 0.99829 0.0
C1154 C 0.09572 0.60172 0.96642 0.0
C1155 C 0.12557 0.60916 0.90762 0.0
C1156 C 0.0757 0.61176 0.95428 0.0
C1157 C 0.05003 0.6018 0.96067 0.0
C1158 C 0.04423 0.58174 0.97941 0.0
C1159 C 0.06408 0.57029 0.98827 0.0
C1160 C 0.0897 0.5804 0.98218 0.0
H1161 H 0.14084 0.6111 0.8901 0.0
H1162 H 0.11687 0.58999 0.91013 0.0
H1163 H 0.11005 0.61733 0.89754 0.0
H1164 H 0.08016 0.62838 0.94225 0.0
H1165 H 0.03524 0.61101 0.95342 0.0
H1166 H 0.36388 0.24619 0.80309 0.0
H1167 H 0.38871 0.22205 0.83292 0.0
H1168 H 0.32974 0.20683 0.90112 0.0
H1169 H 0.30448 0.2303 0.87079 0.0
H1170 H 0.41248 0.22383 0.89057 0.0
H1171 H 0.33523 0.14099 0.88403 0.0
H1172 H 0.33207 0.16626 0.86141 0.0
H1173 H 0.32537 0.16508 0.90358 0.0
C1174 C 0.35595 0.23757 0.82427 0.0
C1175 C 0.33171 0.24024 0.83396 0.0
C1176 C 0.37039 0.22369 0.84159 0.0
C1177 C 0.36127 0.21182 0.86938 0.0
C1178 C 0.33727 0.21487 0.87941 0.0
H1179 H 0.468 0.1498 1.00163 0.0
H1180 H 0.44274 0.17664 0.97817 0.0
C1181 C 0.32273 0.2286 0.86197 0.0
C1182 C 0.3769 0.19663 0.88773 0.0
H1183 H 0.37257 0.14168 0.91887 0.0
C1184 C 0.40361 0.20585 0.89666 0.0
C1185 C 0.366 0.17286 0.89579 0.0
C1186 C 0.33819 0.1606 0.88544 0.0
C1187 C 0.41928 0.19239 0.91303 0.0
C1188 C 0.40819 0.16883 0.9218 0.0
C1189 C 0.38149 0.15966 0.91285 0.0
C1190 C 0.42395 0.15267 0.93771 0.0
C1191 C 0.4479 0.20342 0.91963 0.0
C1192 C 0.42169 0.12962 0.92421 0.0
C1193 C 0.4358 0.11417 0.93792 0.0
C1194 C 0.45308 0.12084 0.96597 0.0
C1195 C 0.45522 0.14382 0.98001 0.0
C1196 C 0.44081 0.15939 0.96623 0.0
H1197 H 0.45462 0.21848 0.90391 0.0
H1198 H 0.45173 0.21038 0.94523 0.0
H1199 H 0.45956 0.19016 0.91571 0.0
H1200 H 0.4091 0.1235 0.90245 0.0
H1201 H 0.43321 0.09681 0.92596 0.0
H1202 H 0.8519 0.32076 0.86453 0.0
H1203 H 0.87364 0.35454 0.90075 0.0
H1204 H 0.81375 0.39061 0.87381 0.0
H1205 H 0.79123 0.35618 0.8383 0.0
H1206 H 0.89505 0.39754 0.88559 0.0
H1207 H 0.81925 0.40352 0.9696 0.0
H1208 H 0.81621 0.3783 0.94168 0.0
H1209 H 0.80908 0.40527 0.92774 0.0
C1210 C 0.84308 0.33571 0.86666 0.0
C1211 C 0.81978 0.33572 0.84853 0.0
C1212 C 0.85561 0.35511 0.88737 0.0
C1213 C 0.8454 0.37525 0.89036 0.0
C1214 C 0.82184 0.37518 0.87265 0.0
H1215 H 0.94039 0.51178 0.9783 0.0
H1216 H 0.90785 0.48282 0.94337 0.0
C1217 C 0.80899 0.3555 0.85222 0.0
C1218 C 0.86047 0.39652 0.9106 0.0
H1219 H 0.85763 0.4345 0.9746 0.0
C1220 C 0.88677 0.40554 0.90507 0.0
C1221 C 0.84982 0.40719 0.93608 0.0
C1222 C 0.82212 0.39797 0.94439 0.0
C1223 C 0.90269 0.42436 0.92458 0.0
C1224 C 0.89211 0.43482 0.95011 0.0
C1225 C 0.86573 0.42638 0.95517 0.0
C1226 C 0.90895 0.45315 0.9732 0.0
C1227 C 0.93101 0.43263 0.91845 0.0
C1228 C 0.91988 0.44619 1.00191 0.0
C1229 C 0.93854 0.46258 0.02175 0.0
C1230 C 0.94667 0.48641 0.01343 0.0
C1231 C 0.93461 0.49363 0.98551 0.0
C1232 C 0.91603 0.4771 0.96548 0.0
H1233 H 0.93636 0.42262 0.89764 0.0
H1234 H 0.93558 0.45179 0.91347 0.0
H1235 H 0.94321 0.4305 0.94044 0.0
H1236 H 0.9147 0.42781 0.00833 0.0
H1237 H 0.94721 0.45638 0.04315 0.0
H1238 H 0.71321 0.82664 0.78657 0.0
H1239 H 0.68816 0.85268 0.8108 0.0
H1240 H 0.748 0.8742 0.888 0.0
H1241 H 0.77303 0.84845 0.86367 0.0
H1242 H 0.66192 0.85891 0.86029 0.0
H1243 H 0.7415 0.93914 0.88035 0.0
H1244 H 0.74535 0.91346 0.8573 0.0
H1245 H 0.74852 0.9145 0.90104 0.0
C1246 C 0.72147 0.83691 0.80865 0.0
C1247 C 0.7462 0.83459 0.8221 0.0
C1248 C 0.70666 0.85226 0.82301 0.0
C1249 C 0.7153 0.86707 0.85192 0.0
C1250 C 0.73992 0.86448 0.86551 0.0
H1251 H 0.65036 0.97598 0.97294 0.0
H1252 H 0.67675 0.95046 0.94997 0.0
C1253 C 0.75463 0.84903 0.8513 0.0
C1254 C 0.69872 0.88421 0.86758 0.0
H1255 H 0.70254 0.94048 0.90411 0.0
C1256 C 0.67127 0.87677 0.8695 0.0
C1257 C 0.70921 0.90815 0.88089 0.0
C1258 C 0.73769 0.91946 0.8796 0.0
C1259 C 0.65528 0.89111 0.88385 0.0
C1260 C 0.66565 0.91524 0.8966 0.0
C1261 C 0.69317 0.92263 0.89488 0.0
C1262 C 0.64878 0.93252 0.91132 0.0
C1263 C 0.62709 0.87924 0.88644 0.0
C1264 C 0.62343 0.9333 0.89823 0.0
C1265 C 0.6081 0.94843 0.91151 0.0
C1266 C 0.61652 0.9646 0.93908 0.0
C1267 C 0.64208 0.96436 0.952 0.0
C1268 C 0.6576 0.94923 0.93844 0.0
H1269 H 0.62405 0.85967 0.88725 0.0
H1270 H 0.61957 0.88577 0.90851 0.0
H1271 H 0.61555 0.88284 0.86471 0.0
H1272 H 0.61515 0.92235 0.87677 0.0
H1273 H 0.58908 0.94735 0.89964 0.0
H1274 H 0.84005 0.7652 0.19832 0.0
H1275 H 0.8639 0.73753 0.17776 0.0
H1276 H 0.85579 0.70074 0.26681 0.0
H1277 H 0.83228 0.729 0.28812 0.0
H1278 H 0.90408 0.70548 0.24525 0.0
H1279 H 0.83014 0.6707 0.14437 0.0
H1280 H 0.84181 0.70225 0.14348 0.0
H1281 H 0.82444 0.68962 0.17722 0.0
C1282 C 0.84334 0.75127 0.21366 0.0
C1283 C 0.83398 0.7491 0.24472 0.0
C1284 C 0.85687 0.73537 0.20175 0.0
C1285 C 0.86094 0.71664 0.22033 0.0
C1286 C 0.85257 0.71492 0.25191 0.0
H1287 H 0.91042 0.60322 0.1168 0.0
H1288 H 0.88644 0.62448 0.1507 0.0
C1289 C 0.83919 0.73107 0.26407 0.0
C1290 C 0.87392 0.699 0.20641 0.0
H1291 H 0.87212 0.66289 0.13912 0.0
C1292 C 0.89693 0.69588 0.22227 0.0
C1293 C 0.8643 0.68608 0.17677 0.0
C1294 C 0.83866 0.68713 0.15968 0.0
C1295 C 0.91122 0.68104 0.20851 0.0
C1296 C 0.90257 0.66951 0.17769 0.0
C1297 C 0.87894 0.67184 0.1626 0.0
C1298 C 0.91804 0.65574 0.15984 0.0
C1299 C 0.93537 0.67786 0.22726 0.0
C1300 C 0.94376 0.66624 0.15347 0.0
C1301 C 0.95749 0.65414 0.13406 0.0
C1302 C 0.94575 0.63131 0.12046 0.0
C1303 C 0.92003 0.62079 0.12689 0.0
C1304 C 0.90633 0.63289 0.14638 0.0
H1305 H 0.93409 0.68041 0.2538 0.0
H1306 H 0.93876 0.65999 0.22217 0.0
H1307 H 0.95238 0.69142 0.22032 0.0
H1308 H 0.95294 0.68418 0.16247 0.0
H1309 H 0.97721 0.66284 0.12936 0.0
H1310 H 0.30701 0.86144 0.21009 0.0
H1311 H 0.33467 0.89225 0.1802 0.0
H1312 H 0.39676 0.8565 0.19106 0.0
H1313 H 0.36921 0.82578 0.2213 0.0
H1314 H 0.41819 0.90298 0.19859 0.0
H1315 H 0.35189 0.89333 0.08809 0.0
H1316 H 0.33713 0.90032 0.12376 0.0
H1317 H 0.34635 0.87249 0.11973 0.0
C1318 C 0.32647 0.85986 0.20605 0.0
C1319 C 0.33525 0.84041 0.21842 0.0
C1320 C 0.34251 0.87771 0.18846 0.0
C1321 C 0.36831 0.87719 0.18209 0.0
C1322 C 0.37721 0.85793 0.19489 0.0
H1323 H 0.46055 0.95444 0.03021 0.0
H1324 H 0.43104 0.92804 0.06314 0.0
C1325 C 0.36114 0.84002 0.21235 0.0
C1326 C 0.3859 0.89648 0.1627 0.0
H1327 H 0.38845 0.92604 0.09123 0.0
C1328 C 0.41144 0.90792 0.17515 0.0
C1329 C 0.37812 0.90345 0.13154 0.0
C1330 C 0.35201 0.89163 0.11477 0.0
C1331 C 0.42863 0.92556 0.15819 0.0
C1332 C 0.42063 0.93288 0.12732 0.0
C1333 C 0.39518 0.92126 0.11479 0.0
C1334 C 0.43861 0.95095 0.10668 0.0
C1335 C 0.45573 0.93562 0.17331 0.0
C1336 C 0.45308 0.9739 0.11863 0.0
C1337 C 0.47027 0.98962 0.09915 0.0
C1338 C 0.47384 0.98317 0.06672 0.0
C1339 C 0.45867 0.96061 0.05474 0.0
C1340 C 0.44152 0.94515 0.07392 0.0
H1341 H 0.46127 0.92407 0.19203 0.0
H1342 H 0.47015 0.93792 0.15468 0.0
H1343 H 0.45673 0.95324 0.18525 0.0
H1344 H 0.45128 0.97977 0.14328 0.0
H1345 H 0.48152 1.00643 0.11001 0.0
H1346 H 0.71187 0.22397 0.27634 0.0
H1347 H 0.67865 0.19231 0.24661 0.0
H1348 H 0.70844 0.21682 0.15617 0.0
H1349 H 0.74171 0.24796 0.18544 0.0
H1350 H 0.63947 0.19355 0.20233 0.0
H1351 H 0.70567 0.14727 0.14418 0.0
H1352 H 0.71678 0.16955 0.17673 0.0
H1353 H 0.7127 0.17811 0.13562 0.0
C1354 C 0.71146 0.22254 0.25014 0.0
C1355 C 0.72976 0.23857 0.23348 0.0
C1356 C 0.6924 0.20438 0.2331 0.0
C1357 C 0.69122 0.20166 0.19899 0.0
C1358 C 0.70923 0.2179 0.18241 0.0
H1359 H 0.5603 0.13688 0.065 0.0
H1360 H 0.59438 0.16216 0.101 0.0
C1361 C 0.72824 0.23594 0.19934 0.0
C1362 C 0.67071 0.18257 0.18051 0.0
H1363 H 0.66163 0.13816 0.12103 0.0
C1364 C 0.6444 0.18132 0.18481 0.0
C1365 C 0.67684 0.16613 0.15792 0.0
C1366 C 0.70453 0.16513 0.15356 0.0
C1367 C 0.62428 0.16496 0.16637 0.0
C1368 C 0.63043 0.14956 0.14231 0.0
C1369 C 0.65672 0.15008 0.13901 0.0
C1370 C 0.60991 0.13359 0.11959 0.0
C1371 C 0.59655 0.16431 0.17306 0.0
C1372 C 0.60763 0.10891 0.11664 0.0
C1373 C 0.58803 0.09415 0.09554 0.0
C1374 C 0.57032 0.10375 0.07668 0.0
C1375 C 0.57322 0.12857 0.07919 0.0
C1376 C 0.59272 0.1432 0.10011 0.0
H1377 H 0.59519 0.17104 0.1982 0.0
H1378 H 0.58884 0.17588 0.15619 0.0
H1379 H 0.58405 0.14603 0.16949 0.0
H1380 H 0.62076 0.10097 0.13107 0.0
H1381 H 0.58658 0.07521 0.09433 0.0
H1382 H 0.76491 0.74107 0.87911 0.0
H1383 H 0.73496 0.71226 0.90924 0.0
H1384 H 0.68602 0.68929 0.8215 0.0
H1385 H 0.71559 0.71836 0.79147 0.0
H1386 H 0.65585 0.69211 0.86791 0.0
H1387 H 0.72522 0.64268 0.91773 0.0
H1388 H 0.73502 0.67373 0.92925 0.0
H1389 H 0.73351 0.66409 0.88718 0.0
C1390 C 0.74789 0.72982 0.86602 0.0
C1391 C 0.74312 0.73232 0.83243 0.0
C1392 C 0.73068 0.713 0.88342 0.0
C1393 C 0.70799 0.69778 0.868 0.0
C1394 C 0.70317 0.70041 0.8345 0.0
H1395 H 0.60532 0.57104 0.95109 0.0
H1396 H 0.64012 0.59764 0.92372 0.0
C1397 C 0.72034 0.7172 0.81712 0.0
C1398 C 0.68884 0.67989 0.88661 0.0
H1399 H 0.68366 0.63449 0.93946 0.0
C1400 C 0.66215 0.67955 0.88343 0.0
C1401 C 0.69628 0.66283 0.90682 0.0
C1402 C 0.72401 0.66061 0.91025 0.0
C1403 C 0.6433 0.6635 0.89989 0.0
C1404 C 0.65086 0.6471 0.92114 0.0
C1405 C 0.67744 0.647 0.92377 0.0
C1406 C 0.63144 0.6304 0.9408 0.0
C1407 C 0.61517 0.664 0.89358 0.0
C1408 C 0.61535 0.6394 0.96115 0.0
C1409 C 0.59557 0.6242 0.97686 0.0
C1410 C 0.59115 0.59922 0.9736 0.0
C1411 C 0.60822 0.59006 0.95488 0.0
C1412 C 0.62809 0.60541 0.93886 0.0
H1413 H 0.61164 0.67167 0.86994 0.0
H1414 H 0.60224 0.64592 0.89362 0.0
H1415 H 0.60976 0.67528 0.91287 0.0
H1416 H 0.6176 0.65838 0.96434 0.0
H1417 H 0.58293 0.63211 0.99084 0.0
H1418 H 0.33243 0.75535 0.87421 0.0
H1419 H 0.35893 0.73037 0.89931 0.0
H1420 H 0.36407 0.69846 0.80538 0.0
H1421 H 0.33892 0.72433 0.7803 0.0
H1422 H 0.36083 0.69004 0.91428 0.0
H1423 H 0.43561 0.70139 0.82647 0.0
H1424 H 0.41153 0.71856 0.82507 0.0
H1425 H 0.40432 0.68892 0.8063 0.0
C1426 C 0.33938 0.74327 0.85851 0.0
C1427 C 0.3331 0.74284 0.82443 0.0
C1428 C 0.35486 0.72853 0.87325 0.0
C1429 C 0.36526 0.71202 0.85517 0.0
C1430 C 0.35825 0.71117 0.82112 0.0
H1431 H 0.45481 0.59966 0.90032 0.0
H1432 H 0.42902 0.62575 0.87716 0.0
C1433 C 0.34311 0.72617 0.80634 0.0
C1434 C 0.38243 0.69583 0.87177 0.0
H1435 H 0.43488 0.67028 0.86232 0.0
C1436 C 0.37709 0.68613 0.90255 0.0
C1437 C 0.40447 0.68979 0.8582 0.0
C1438 C 0.41453 0.7004 0.82741 0.0
C1439 C 0.39167 0.67104 0.91866 0.0
C1440 C 0.41326 0.66462 0.90465 0.0
C1441 C 0.41865 0.67433 0.87401 0.0
C1442 C 0.42994 0.64787 0.92052 0.0
C1443 C 0.38307 0.66159 0.95066 0.0
C1444 C 0.44059 0.65046 0.95344 0.0
C1445 C 0.45593 0.63512 0.96716 0.0
C1446 C 0.46179 0.61605 0.94895 0.0
C1447 C 0.45128 0.61365 0.91607 0.0
C1448 C 0.43616 0.62898 0.9024 0.0
H1449 H 0.3625 0.66174 0.95374 0.0
H1450 H 0.38532 0.6432 0.95309 0.0
H1451 H 0.39521 0.67306 0.97057 0.0
H1452 H 0.43755 0.66485 0.96879 0.0
H1453 H 0.46335 0.63838 0.99229 0.0
H1454 H 0.36272 0.35837 0.78954 0.0
H1455 H 0.39716 0.388 0.82039 0.0
H1456 H 0.36292 0.36595 0.90946 0.0
H1457 H 0.32829 0.3367 0.87899 0.0
H1458 H 0.37867 0.41445 0.90754 0.0
H1459 H 0.45725 0.37185 0.87441 0.0
H1460 H 0.43855 0.37925 0.84031 0.0
H1461 H 0.42329 0.35728 0.86709 0.0
C1462 C 0.36239 0.35996 0.81566 0.0
C1463 C 0.34282 0.345 0.83176 0.0
C1464 C 0.38221 0.37677 0.83328 0.0
C1465 C 0.38289 0.37884 0.86729 0.0
C1466 C 0.36288 0.36455 0.88327 0.0
H1467 H 0.51532 0.44659 1.00094 0.0
H1468 H 0.47934 0.41836 0.9704 0.0
C1469 C 0.34309 0.34779 0.86574 0.0
C1470 C 0.40453 0.39567 0.88643 0.0
H1471 H 0.47022 0.40897 0.90392 0.0
C1472 C 0.39869 0.41326 0.90675 0.0
C1473 C 0.43057 0.39379 0.88588 0.0
C1474 C 0.43786 0.3744 0.86601 0.0
C1475 C 0.41824 0.42928 0.92612 0.0
C1476 C 0.44439 0.42793 0.92468 0.0
C1477 C 0.45018 0.41009 0.90478 0.0
C1478 C 0.46606 0.44504 0.94335 0.0
C1479 C 0.41063 0.44721 0.94839 0.0
C1480 C 0.4707 0.46935 0.938 0.0
C1481 C 0.49113 0.48551 0.95537 0.0
C1482 C 0.50761 0.47767 0.9783 0.0
C1483 C 0.50308 0.45325 0.98339 0.0
C1484 C 0.48253 0.43707 0.96601 0.0
H1485 H 0.38984 0.44166 0.95346 0.0
H1486 H 0.42266 0.44993 0.97179 0.0
H1487 H 0.41368 0.46447 0.93666 0.0
H1488 H 0.4586 0.47585 0.92013 0.0
H1489 H 0.49405 0.50414 0.95067 0.0
H1490 H 0.66788 0.37707 0.83956 0.0
H1491 H 0.66571 0.40289 0.88687 0.0
H1492 H 0.72961 0.38124 0.93625 0.0
H1493 H 0.73205 0.35544 0.88894 0.0
H1494 H 0.66592 0.38753 0.96272 0.0
H1495 H 0.74616 0.4594 0.92396 0.0
H1496 H 0.72598 0.43889 0.89371 0.0
H1497 H 0.74762 0.42862 0.92161 0.0
C1498 C 0.68129 0.37766 0.8606 0.0
C1499 C 0.70009 0.36429 0.86064 0.0
C1500 C 0.67998 0.39227 0.88756 0.0
C1501 C 0.69754 0.39385 0.91479 0.0
C1502 C 0.71588 0.38008 0.91539 0.0
H1503 H 0.65121 0.48784 0.05767 0.0
H1504 H 0.68195 0.46419 0.04296 0.0
C1505 C 0.71712 0.36532 0.88847 0.0
C1506 C 0.69729 0.41114 0.94148 0.0
H1507 H 0.71782 0.47051 0.96002 0.0
C1508 C 0.67784 0.40552 0.96318 0.0
C1509 C 0.7131 0.43441 0.94185 0.0
C1510 C 0.73451 0.44088 0.91916 0.0
C1511 C 0.67209 0.42325 0.9832 0.0
C1512 C 0.68614 0.44707 0.98108 0.0
C1513 C 0.70726 0.45221 0.96167 0.0
C1514 C 0.6747 0.46667 0.99125 0.0
C1515 C 0.64927 0.41683 1.00388 0.0
C1516 C 0.6618 0.47691 0.96709 0.0
C1517 C 0.64421 0.49004 0.9754 0.0
C1518 C 0.63976 0.4935 0.00797 0.0
C1519 C 0.65474 0.48555 0.0324 0.0
C1520 C 0.67213 0.472 0.02405 0.0
H1521 H 0.6401 0.39749 1.0022 0.0
H1522 H 0.65575 0.42219 0.02964 0.0
H1523 H 0.63435 0.42651 0.9963 0.0
H1524 H 0.66345 0.47286 0.94166 0.0
H1525 H 0.63255 0.49582 0.95629 0.0
H1526 H 0.70857 0.33156 0.26044 0.0
H1527 H 0.68276 0.35659 0.23424 0.0
H1528 H 0.74395 0.38195 0.17183 0.0
H1529 H 0.7699 0.35684 0.19819 0.0
H1530 H 0.72459 0.41935 0.1853 0.0
H1531 H 0.6362 0.34873 0.15401 0.0
H1532 H 0.64516 0.35129 0.19674 0.0
H1533 H 0.6662 0.34217 0.16905 0.0
C1534 C 0.7168 0.34227 0.24104 0.0
C1535 C 0.74203 0.34136 0.23213 0.0
C1536 C 0.70154 0.35682 0.22544 0.0
C1537 C 0.71026 0.37171 0.19966 0.0
C1538 C 0.73569 0.3711 0.19109 0.0
H1539 H 0.60393 0.44059 0.06916 0.0
H1540 H 0.63012 0.41434 0.09262 0.0
C1541 C 0.75088 0.35635 0.2065 0.0
C1542 C 0.69348 0.38786 0.18246 0.0
H1543 H 0.63206 0.38826 0.14752 0.0
C1544 C 0.70436 0.41219 0.17723 0.0
C1545 C 0.66671 0.37971 0.17055 0.0
C1546 C 0.65287 0.35402 0.17251 0.0
C1547 C 0.68997 0.42783 0.1622 0.0
C1548 C 0.66299 0.41987 0.15125 0.0
C1549 C 0.65228 0.39539 0.15563 0.0
C1550 C 0.64599 0.43649 0.13581 0.0
C1551 C 0.70442 0.45299 0.15748 0.0
C1552 C 0.64475 0.45848 0.15106 0.0
C1553 C 0.62936 0.47362 0.13755 0.0
C1554 C 0.61392 0.46818 0.10755 0.0
C1555 C 0.61507 0.44618 0.09208 0.0
C1556 C 0.63036 0.4308 0.10587 0.0
H1557 H 0.72565 0.45458 0.15712 0.0
H1558 H 0.69742 0.45957 0.13452 0.0
H1559 H 0.70132 0.4646 0.17795 0.0
H1560 H 0.6555 0.46403 0.17421 0.0
H1561 H 0.62959 0.48994 0.15113 0.0
H1562 H 0.7085 0.77695 0.1921 0.0
H1563 H 0.67136 0.74938 0.16217 0.0
H1564 H 0.69285 0.69048 0.20802 0.0
H1565 H 0.72917 0.7176 0.23833 0.0
H1566 H 0.6689 0.71167 0.1191 0.0
H1567 H 0.6177 0.6794 0.2271 0.0
H1568 H 0.6443 0.70542 0.22903 0.0
H1569 H 0.65049 0.67624 0.23002 0.0
C1570 C 0.70518 0.75812 0.19586 0.0
C1571 C 0.72157 0.74953 0.21798 0.0
C1572 C 0.68398 0.74241 0.17876 0.0
C1573 C 0.67892 0.71791 0.18351 0.0
C1574 C 0.69581 0.70934 0.20475 0.0
H1575 H 0.58248 0.5856 0.10475 0.0
H1576 H 0.61491 0.61838 0.13287 0.0
C1577 C 0.71671 0.72493 0.22197 0.0
C1578 C 0.65643 0.70098 0.16599 0.0
H1579 H 0.60486 0.65502 0.17797 0.0
C1580 C 0.65465 0.69952 0.13193 0.0
C1581 C 0.63776 0.68517 0.18277 0.0
C1582 C 0.63748 0.68679 0.21924 0.0
C1583 C 0.63545 0.68195 0.11427 0.0
C1584 C 0.61755 0.66556 0.13118 0.0
C1585 C 0.61882 0.66747 0.16514 0.0
C1586 C 0.59771 0.64591 0.11411 0.0
C1587 C 0.63498 0.68046 0.07774 0.0
C1588 C 0.57711 0.65056 0.09464 0.0
C1589 C 0.55842 0.63192 0.07866 0.0
C1590 C 0.55999 0.60819 0.0819 0.0
C1591 C 0.58059 0.60363 0.10172 0.0
C1592 C 0.59919 0.6223 0.11781 0.0
H1593 H 0.65279 0.69175 0.0687 0.0
H1594 H 0.63292 0.66184 0.06867 0.0
H1595 H 0.61798 0.68648 0.06738 0.0
H1596 H 0.57545 0.66867 0.09183 0.0
H1597 H 0.54293 0.63614 0.06357 0.0
H1598 H 0.35144 0.73154 0.10828 0.0
H1599 H 0.35507 0.71079 0.05698 0.0
H1600 H 0.32192 0.64386 0.09791 0.0
H1601 H 0.31695 0.66448 0.14807 0.0
H1602 H 0.38754 0.68569 0.05685 0.0
H1603 H 0.29791 0.62526 0.00669 0.0
H1604 H 0.29735 0.65041 0.03341 0.0
H1605 H 0.29814 0.62197 0.04952 0.0
C1606 C 0.34397 0.71247 0.10579 0.0
C1607 C 0.33455 0.69953 0.13243 0.0
C1608 C 0.34595 0.70064 0.0764 0.0
C1609 C 0.33864 0.67571 0.0733 0.0
C1610 C 0.32713 0.66307 0.09909 0.0
H1611 H 0.42652 0.58928 0.08263 0.0
H1612 H 0.39287 0.61151 0.07953 0.0
C1613 C 0.32493 0.67486 0.12822 0.0
C1614 C 0.34915 0.66264 0.04809 0.0
H1615 H 0.33675 0.60617 0.01476 0.0
C1616 C 0.37616 0.66881 0.04621 0.0
C1617 C 0.33459 0.6408 0.03329 0.0
C1618 C 0.30534 0.63448 0.03059 0.0
C1619 C 0.38923 0.65214 0.03543 0.0
C1620 C 0.37487 0.62886 0.02617 0.0
C1621 C 0.34771 0.62386 0.02288 0.0
C1622 C 0.38799 0.60922 0.02708 0.0
C1623 C 0.41853 0.65883 0.03799 0.0
C1624 C 0.39479 0.59918 0.99863 0.0
C1625 C 0.41357 0.58585 1.00049 0.0
C1626 C 0.42597 0.58314 0.0307 0.0
C1627 C 0.41716 0.59117 0.05915 0.0
C1628 C 0.39803 0.60388 0.05735 0.0
H1629 H 0.42591 0.6776 0.03187 0.0
H1630 H 0.42568 0.65708 0.06339 0.0
H1631 H 0.42668 0.64726 0.0219 0.0
H1632 H 0.38726 0.60324 0.97511 0.0
H1633 H 0.42029 0.57989 0.97823 0.0
H1634 H 0.3719 0.35397 0.26426 0.0
H1635 H 0.40043 0.38364 0.23391 0.0
H1636 H 0.33706 0.38237 0.16309 0.0
H1637 H 0.30856 0.35227 0.19305 0.0
H1638 H 0.37837 0.38403 0.13149 0.0
H1639 H 0.40994 0.45327 0.22997 0.0
H1640 H 0.41733 0.42587 0.241 0.0
H1641 H 0.38397 0.4274 0.23384 0.0
C1642 C 0.36379 0.36009 0.24242 0.0
C1643 C 0.33746 0.35045 0.23168 0.0
C1644 C 0.3803 0.37741 0.22496 0.0
C1645 C 0.37128 0.38615 0.19603 0.0
C1646 C 0.34499 0.37643 0.1852 0.0
H1647 H 0.46816 0.51352 0.10553 0.0
H1648 H 0.43327 0.48684 0.13273 0.0
C1649 C 0.32847 0.35907 0.20263 0.0
C1650 C 0.38922 0.40457 0.17663 0.0
H1651 H 0.43449 0.45835 0.18312 0.0
C1652 C 0.39046 0.40028 0.14301 0.0
C1653 C 0.40505 0.4264 0.19066 0.0
C1654 C 0.40385 0.43367 0.22575 0.0
C1655 C 0.40714 0.41631 0.12382 0.0
C1656 C 0.42397 0.43752 0.1382 0.0
C1657 C 0.42214 0.44222 0.17158 0.0
C1658 C 0.44419 0.45429 0.11946 0.0
C1659 C 0.4061 0.41036 0.08791 0.0
C1660 C 0.46231 0.44553 0.10227 0.0
C1661 C 0.48205 0.46076 0.08652 0.0
C1662 C 0.48485 0.48562 0.08702 0.0
C1663 C 0.46645 0.49456 0.10359 0.0
C1664 C 0.44658 0.47917 0.11966 0.0
H1665 H 0.38685 0.39901 0.07894 0.0
H1666 H 0.41002 0.42662 0.07383 0.0
H1667 H 0.42092 0.40029 0.08315 0.0
H1668 H 0.46191 0.4268 0.10199 0.0
H1669 H 0.49597 0.45303 0.07475 0.0
H1670 H 0.85867 0.72796 0.77829 0.0
H1671 H 0.8826 0.70099 0.7554 0.0
H1672 H 0.85568 0.71437 0.65926 0.0
H1673 H 0.82996 0.73998 0.68267 0.0
H1674 H 0.86456 0.67711 0.64525 0.0
H1675 H 0.94918 0.69975 0.73338 0.0
H1676 H 0.92051 0.68861 0.75391 0.0
H1677 H 0.92452 0.71619 0.73336 0.0
C1678 C 0.85767 0.72551 0.75214 0.0
C1679 C 0.84156 0.73736 0.73329 0.0
C1680 C 0.87232 0.70979 0.73838 0.0
C1681 C 0.87324 0.70494 0.7042 0.0
C1682 C 0.85681 0.71672 0.6854 0.0
H1683 H 1.00067 0.63014 0.64464 0.0
H1684 H 0.97449 0.65601 0.665 0.0
C1685 C 0.84163 0.732 0.69923 0.0
C1686 C 0.8901 0.68784 0.68838 0.0
H1687 H 0.94565 0.66549 0.69989 0.0
C1688 C 0.88236 0.67503 0.65772 0.0
C1689 C 0.91447 0.68405 0.7021 0.0
C1690 C 0.92787 0.69804 0.73226 0.0
C1691 C 0.89673 0.65971 0.64189 0.0
C1692 C 0.92021 0.65473 0.65667 0.0
C1693 C 0.92806 0.66776 0.68712 0.0
C1694 C 0.93722 0.63752 0.64142 0.0
C1695 C 0.88664 0.64995 0.60814 0.0
C1696 C 0.92729 0.61688 0.61979 0.0
C1697 C 0.94316 0.60183 0.60678 0.0
C1698 C 0.97042 0.60548 0.61493 0.0
C1699 C 0.98021 0.62576 0.63677 0.0
C1700 C 0.96457 0.64102 0.64909 0.0
H1701 H 0.87443 0.66082 0.59627 0.0
H1702 H 0.90278 0.64941 0.59261 0.0
H1703 H 0.87428 0.63175 0.60944 0.0
H1704 H 0.90672 0.61151 0.61317 0.0
H1705 H 0.93361 0.58669 0.59088 0.0
H1706 H 0.34671 0.86675 0.62537 0.0
H1707 H 0.38222 0.89699 0.60813 0.0
H1708 H 0.39705 0.84774 0.53552 0.0
H1709 H 0.36096 0.81702 0.55262 0.0
H1710 H 0.43759 0.86306 0.58043 0.0
H1711 H 0.40471 0.94042 0.53601 0.0
H1712 H 0.39005 0.93094 0.57269 0.0
H1713 H 0.38302 0.91137 0.53681 0.0
C1714 C 0.3565 0.86256 0.60458 0.0
C1715 C 0.35124 0.83932 0.59068 0.0
C1716 C 0.37694 0.87998 0.59473 0.0
C1717 C 0.39231 0.87457 0.57065 0.0
C1718 C 0.38539 0.85218 0.55426 0.0
H1719 H 0.5449 0.95882 0.53639 0.0
H1720 H 0.5087 0.9244 0.53846 0.0
C1721 C 0.36485 0.83467 0.56409 0.0
C1722 C 0.41806 0.89048 0.56772 0.0
H1723 H 0.44838 0.94863 0.56166 0.0
C1724 C 0.44003 0.88169 0.57568 0.0
C1725 C 0.42109 0.91476 0.56181 0.0
C1726 C 0.39843 0.92484 0.55102 0.0
C1727 C 0.4649 0.89686 0.57958 0.0
C1728 C 0.46769 0.92126 0.57519 0.0
C1729 C 0.44593 0.9299 0.56582 0.0
C1730 C 0.49301 0.93841 0.57969 0.0
C1731 C 0.48785 0.88694 0.58965 0.0
C1732 C 0.49687 0.95693 0.60345 0.0
C1733 C 0.5175 0.97675 0.60232 0.0
C1734 C 0.53418 0.97836 0.577 0.0
C1735 C 0.53219 0.95831 0.55595 0.0
C1736 C 0.5115 0.93856 0.55705 0.0
H1737 H 0.48178 0.86852 0.59775 0.0
H1738 H 0.49992 0.88678 0.56876 0.0
H1739 H 0.50016 0.8983 0.60959 0.0
H1740 H 0.48277 0.9569 0.62125 0.0
H1741 H 0.51861 0.99173 0.61914 0.0
H1742 H 0.2631 0.32965 0.68846 0.0
H1743 H 0.23731 0.35367 0.6601 0.0
H1744 H 0.19985 0.36209 0.74756 0.0
H1745 H 0.22615 0.33869 0.77626 0.0
H1746 H 0.18797 0.34978 0.64357 0.0
H1747 H 0.21816 0.42966 0.72635 0.0
H1748 H 0.23362 0.40525 0.72911 0.0
H1749 H 0.20331 0.40387 0.74705 0.0
C1750 C 0.24956 0.33674 0.7019 0.0
C1751 C 0.24722 0.33219 0.73508 0.0
C1752 C 0.23458 0.35054 0.68544 0.0
C1753 C 0.2166 0.36046 0.70139 0.0
C1754 C 0.21392 0.35556 0.73442 0.0
H1755 H 0.09708 0.42103 0.59083 0.0
H1756 H 0.11917 0.39397 0.61969 0.0
C1757 C 0.22902 0.34188 0.75096 0.0
C1758 C 0.20072 0.37558 0.68342 0.0
H1759 H 0.18353 0.42912 0.6871 0.0
C1760 C 0.1871 0.36713 0.65325 0.0
C1761 C 0.19941 0.39856 0.6952 0.0
C1762 C 0.2146 0.41 0.72601 0.0
C1763 C 0.1725 0.3806 0.63507 0.0
C1764 C 0.17067 0.40332 0.64728 0.0
C1765 C 0.18435 0.41176 0.6774 0.0
C1766 C 0.15633 0.41936 0.62866 0.0
C1767 C 0.15991 0.37056 0.60229 0.0
C1768 C 0.16907 0.44307 0.62407 0.0
C1769 C 0.15635 0.45859 0.60788 0.0
C1770 C 0.13014 0.45129 0.59539 0.0
C1771 C 0.11723 0.42748 0.59967 0.0
C1772 C 0.13006 0.41184 0.61616 0.0
H1773 H 0.16888 0.35658 0.59252 0.0
H1774 H 0.13906 0.36239 0.60461 0.0
H1775 H 0.16137 0.38467 0.58455 0.0
H1776 H 0.18917 0.44975 0.63304 0.0
H1777 H 0.16731 0.47661 0.6053 0.0
H1778 H 0.77747 0.20404 0.7204 0.0
H1779 H 0.75514 0.17148 0.68242 0.0
H1780 H 0.71492 0.2183 0.63366 0.0
H1781 H 0.73764 0.25122 0.67132 0.0
H1782 H 0.70418 0.15176 0.67404 0.0
H1783 H 0.73856 0.18591 0.55736 0.0
H1784 H 0.7536 0.19914 0.59596 0.0
H1785 H 0.72411 0.20585 0.57966 0.0
C1786 C 0.76414 0.20759 0.70136 0.0
C1787 C 0.75947 0.2304 0.69901 0.0
C1788 C 0.75131 0.18885 0.67962 0.0
C1789 C 0.73345 0.19233 0.65482 0.0
C1790 C 0.72899 0.21516 0.65205 0.0
H1791 H 0.60893 0.08122 0.56213 0.0
H1792 H 0.63608 0.11658 0.5909 0.0
C1793 C 0.74194 0.23401 0.67377 0.0
C1794 C 0.7185 0.1717 0.63332 0.0
H1795 H 0.70297 0.15155 0.55405 0.0
C1796 C 0.70412 0.15172 0.64781 0.0
C1797 C 0.71854 0.17135 0.59903 0.0
C1798 C 0.73472 0.1916 0.58203 0.0
C1799 C 0.68951 0.13175 0.62916 0.0
C1800 C 0.68872 0.13175 0.59485 0.0
C1801 C 0.70346 0.15151 0.58027 0.0
C1802 C 0.67217 0.1115 0.57412 0.0
C1803 C 0.67515 0.11068 0.64647 0.0
C1804 C 0.68318 0.09725 0.55374 0.0
C1805 C 0.66755 0.07682 0.53693 0.0
C1806 C 0.64061 0.07025 0.54024 0.0
C1807 C 0.62962 0.08532 0.5594 0.0
C1808 C 0.64516 0.10565 0.57597 0.0
H1809 H 0.68308 0.11084 0.67201 0.0
H1810 H 0.65442 0.11119 0.64676 0.0
H1811 H 0.67612 0.09375 0.63387 0.0
H1812 H 0.70396 0.10146 0.55173 0.0
H1813 H 0.67668 0.06582 0.52219 0.0
H1814 H 0.87875 0.34335 0.31443 0.0
H1815 H 0.90824 0.37451 0.34968 0.0
H1816 H 0.84281 0.39912 0.38066 0.0
H1817 H 0.81339 0.36808 0.34605 0.0
H1818 H 0.91717 0.42365 0.35135 0.0
H1819 H 0.87916 0.39073 0.46713 0.0
H1820 H 0.87133 0.37313 0.42944 0.0
H1821 H 0.85452 0.39582 0.43843 0.0
C1822 C 0.87064 0.35543 0.32869 0.0
C1823 C 0.84359 0.35302 0.32737 0.0
C1824 C 0.88755 0.37326 0.34892 0.0
C1825 C 0.87783 0.38899 0.36852 0.0
C1826 C 0.85089 0.38694 0.36657 0.0
H1827 H 0.94608 0.50985 0.50571 0.0
H1828 H 0.91678 0.47855 0.4706 0.0
C1829 C 0.83404 0.3692 0.34643 0.0
C1830 C 0.8957 0.40775 0.3906 0.0
H1831 H 0.90801 0.42904 0.4698 0.0
C1832 C 0.91524 0.42469 0.37727 0.0
C1833 C 0.89327 0.40935 0.42453 0.0
C1834 C 0.87361 0.39117 0.44083 0.0
C1835 C 0.93192 0.44331 0.39663 0.0
C1836 C 0.92945 0.44493 0.43054 0.0
C1837 C 0.90994 0.42798 0.44388 0.0
C1838 C 0.94725 0.46378 0.45255 0.0
C1839 C 0.95165 0.46145 0.38037 0.0
C1840 C 0.97417 0.46574 0.45487 0.0
C1841 C 0.99095 0.48359 0.47492 0.0
C1842 C 0.98136 0.50003 0.49347 0.0
C1843 C 0.95429 0.49769 0.49175 0.0
C1844 C 0.93746 0.47974 0.47164 0.0
H1845 H 0.94632 0.46172 0.35399 0.0
H1846 H 0.95373 0.47953 0.39154 0.0
H1847 H 0.9708 0.45693 0.38319 0.0
H1848 H 0.98228 0.45338 0.44116 0.0
H1849 H 1.01158 0.4845 0.47571 0.0
H1850 H 0.71856 0.81409 0.33544 0.0
H1851 H 0.69731 0.84296 0.35954 0.0
H1852 H 0.74141 0.89784 0.30391 0.0
H1853 H 0.76257 0.86922 0.27952 0.0
H1854 H 0.72204 0.88654 0.3959 0.0
H1855 H 0.66525 0.90166 0.28436 0.0
H1856 H 0.67931 0.87634 0.2878 0.0
H1857 H 0.69943 0.90498 0.28076 0.0
C1858 C 0.72356 0.83224 0.32808 0.0
C1859 C 0.74218 0.83928 0.30539 0.0
C1860 C 0.7115 0.84873 0.34199 0.0
C1861 C 0.71765 0.87247 0.33328 0.0
C1862 C 0.73612 0.87953 0.31061 0.0
H1863 H 0.67201 0.98929 0.43883 0.0
H1864 H 0.69823 0.96414 0.41564 0.0
C1865 C 0.74824 0.86312 0.29676 0.0
C1866 C 0.70498 0.88992 0.34824 0.0
H1867 H 0.66367 0.92555 0.33111 0.0
C1868 C 0.70931 0.89514 0.38179 0.0
C1869 C 0.68842 0.90108 0.32971 0.0
C1870 C 0.68259 0.89567 0.29369 0.0
C1871 C 0.69727 0.91108 0.3974 0.0
C1872 C 0.68053 0.92213 0.37894 0.0
C1873 C 0.67654 0.91712 0.34527 0.0
C1874 C 0.66524 0.93742 0.39414 0.0
C1875 C 0.70179 0.91526 0.43363 0.0
C1876 C 0.63808 0.93097 0.38954 0.0
C1877 C 0.62319 0.9454 0.40226 0.0
C1878 C 0.63506 0.96669 0.42003 0.0
C1879 C 0.66229 0.973 0.42525 0.0
C1880 C 0.67728 0.95856 0.41219 0.0
H1881 H 0.71101 0.90191 0.44493 0.0
H1882 H 0.71486 0.93305 0.43944 0.0
H1883 H 0.68314 0.91476 0.44448 0.0
H1884 H 0.62833 0.91471 0.37587 0.0
H1885 H 0.60227 0.93983 0.39801 0.0
H1886 H 0.21432 0.75678 0.35716 0.0
H1887 H 0.18702 0.72608 0.38787 0.0
H1888 H 0.23214 0.6769 0.36088 0.0
H1889 H 0.25977 0.7076 0.33118 0.0
H1890 H 0.15383 0.6851 0.37752 0.0
H1891 H 0.23317 0.66286 0.45274 0.0
H1892 H 0.23886 0.68794 0.42742 0.0
H1893 H 0.23737 0.65853 0.41055 0.0
C1894 C 0.21878 0.73955 0.35798 0.0
C1895 C 0.24004 0.73538 0.34152 0.0
C1896 C 0.20282 0.72166 0.37571 0.0
C1897 C 0.20722 0.69856 0.37816 0.0
C1898 C 0.22819 0.69434 0.36115 0.0
H1899 H 0.13584 0.56101 0.45872 0.0
H1900 H 0.16049 0.59499 0.43267 0.0
C1901 C 0.24417 0.7122 0.3436 0.0
C1902 C 0.18993 0.67906 0.39764 0.0
H1903 H 0.19199 0.63539 0.45207 0.0
C1904 C 0.16243 0.67448 0.394 0.0
C1905 C 0.20015 0.66462 0.41987 0.0
C1906 C 0.22897 0.66888 0.42819 0.0
C1907 C 0.14561 0.65606 0.41024 0.0
C1908 C 0.1559 0.64126 0.43178 0.0
C1909 C 0.18336 0.64611 0.43579 0.0
C1910 C 0.13911 0.62001 0.44883 0.0
C1911 C 0.11671 0.65209 0.40307 0.0
C1912 C 0.11805 0.62154 0.46786 0.0
C1913 C 0.10338 0.60146 0.48351 0.0
C1914 C 0.10898 0.57878 0.4808 0.0
C1915 C 0.13014 0.5776 0.46189 0.0
C1916 C 0.14471 0.59746 0.44667 0.0
H1917 H 0.1119 0.6603 0.38033 0.0
H1918 H 0.10717 0.63284 0.4009 0.0
H1919 H 0.10849 0.66027 0.42324 0.0
H1920 H 0.11307 0.63844 0.4712 0.0
H1921 H 0.08766 0.60376 0.4977 0.0
H1922 H 0.34492 0.21693 0.45596 0.0
H1923 H 0.36398 0.18643 0.48021 0.0
H1924 H 0.44058 0.22784 0.46435 0.0
H1925 H 0.4218 0.2582 0.44008 0.0
H1926 H 0.39251 0.16318 0.44257 0.0
H1927 H 0.45228 0.20347 0.5541 0.0
H1928 H 0.42498 0.21415 0.53781 0.0
H1929 H 0.45577 0.22227 0.5203 0.0
C1930 C 0.36585 0.21971 0.45824 0.0
C1931 C 0.38187 0.23987 0.44594 0.0
C1932 C 0.37669 0.20239 0.47229 0.0
C1933 C 0.40368 0.20505 0.47442 0.0
C1934 C 0.41975 0.22574 0.46375 0.0
H1935 H 0.51697 0.12306 0.49375 0.0
H1936 H 0.49216 0.15343 0.48924 0.0
C1937 C 0.40896 0.24306 0.44976 0.0
C1938 C 0.41484 0.18481 0.48262 0.0
H1939 H 0.46225 0.16918 0.53023 0.0
C1940 C 0.40741 0.16424 0.46213 0.0
C1941 C 0.43444 0.18648 0.50787 0.0
C1942 C 0.44221 0.2077 0.5315 0.0
C1943 C 0.41997 0.14569 0.46518 0.0
C1944 C 0.44005 0.14756 0.49 0.0
C1945 C 0.44694 0.16786 0.51112 0.0
C1946 C 0.45489 0.12913 0.49357 0.0
C1947 C 0.41254 0.12493 0.44063 0.0
C1948 C 0.44218 0.10547 0.49789 0.0
C1949 C 0.45623 0.08804 0.49985 0.0
C1950 C 0.4833 0.09407 0.49817 0.0
C1951 C 0.49609 0.11786 0.49477 0.0
C1952 C 0.48197 0.13524 0.49239 0.0
H1953 H 0.40224 0.12937 0.41833 0.0
H1954 H 0.42989 0.11899 0.43358 0.0
H1955 H 0.39926 0.1099 0.45135 0.0
H1956 H 0.4214 0.10051 0.4999 0.0
H1957 H 0.44592 0.06993 0.50324 0.0
H1958 H 0.68698 0.78769 0.57515 0.0
H1959 H 0.67563 0.81724 0.54108 0.0
H1960 H 0.75604 0.84352 0.52265 0.0
H1961 H 0.76771 0.8131 0.55605 0.0
H1962 H 0.73486 0.87488 0.55856 0.0
H1963 H 0.6705 0.84023 0.44894 0.0
H1964 H 0.66099 0.82306 0.48333 0.0
H1965 H 0.69208 0.82392 0.46782 0.0
C1966 C 0.70222 0.79873 0.5625 0.0
C1967 C 0.72842 0.79833 0.5691 0.0
C1968 C 0.6956 0.81574 0.54288 0.0
C1969 C 0.715 0.83266 0.52952 0.0
C1970 C 0.74079 0.8306 0.53284 0.0
H1971 H 0.69077 0.97593 0.50381 0.0
H1972 H 0.71216 0.943 0.5054 0.0
C1973 C 0.74743 0.81334 0.55218 0.0
C1974 C 0.709 0.85511 0.51971 0.0
H1975 H 0.66426 0.87642 0.47498 0.0
C1976 C 0.71997 0.87552 0.53963 0.0
C1977 C 0.68936 0.85568 0.49538 0.0
C1978 C 0.67774 0.83457 0.47245 0.0
C1979 C 0.71042 0.89598 0.53756 0.0
C1980 C 0.68983 0.89619 0.51423 0.0
C1981 C 0.67989 0.87618 0.49306 0.0
C1982 C 0.67716 0.91631 0.51273 0.0
C1983 C 0.72122 0.91641 0.562 0.0
C1984 C 0.65028 0.91215 0.51527 0.0
C1985 C 0.63797 0.93084 0.51379 0.0
C1986 C 0.65238 0.95407 0.51003 0.0
C1987 C 0.67929 0.95826 0.50741 0.0
C1988 C 0.69154 0.93948 0.50844 0.0
H1989 H 0.73178 0.9109 0.5833 0.0
H1990 H 0.73515 0.93048 0.55041 0.0
H1991 H 0.70554 0.92415 0.57079 0.0
H1992 H 0.63879 0.89442 0.51854 0.0
H1993 H 0.61719 0.92708 0.51574 0.0
H1994 H 0.73615 0.2546 0.50962 0.0
H1995 H 0.71112 0.21537 0.52182 0.0
H1996 H 0.75175 0.18335 0.45281 0.0
H1997 H 0.77626 0.22207 0.44018 0.0
H1998 H 0.68241 0.19969 0.46554 0.0
H1999 H 0.72709 0.1289 0.5095 0.0
H2000 H 0.74416 0.15979 0.51408 0.0
H2001 H 0.74411 0.14297 0.47672 0.0
C2002 C 0.74079 0.23911 0.49845 0.0
C2003 C 0.75711 0.24144 0.47272 0.0
C2004 C 0.72656 0.21667 0.50558 0.0
C2005 C 0.72908 0.19653 0.48754 0.0
C2006 C 0.7494 0.19861 0.46702 0.0
H2007 H 0.63246 0.06611 0.40478 0.0
H2008 H 0.66431 0.10412 0.41206 0.0
C2009 C 0.7635 0.22101 0.45975 0.0
C2010 C 0.70636 0.17628 0.48132 0.0
H2011 H 0.6879 0.11598 0.47266 0.0
C2012 C 0.68344 0.18136 0.46778 0.0
C2013 C 0.70807 0.15245 0.48308 0.0
C2014 C 0.73219 0.1458 0.4969 0.0
C2015 C 0.6625 0.16334 0.45496 0.0
C2016 C 0.6642 0.13954 0.4567 0.0
C2017 C 0.68681 0.13434 0.471 0.0
C2018 C 0.64235 0.11959 0.44535 0.0
C2019 C 0.63925 0.17005 0.43849 0.0
C2020 C 0.61867 0.11656 0.45965 0.0
C2021 C 0.60018 0.09512 0.45493 0.0
C2022 C 0.60556 0.07617 0.43673 0.0
C2023 C 0.62781 0.0803 0.41911 0.0
C2024 C 0.64621 0.1019 0.42359 0.0
H2025 H 0.64447 0.18832 0.42967 0.0
H2026 H 0.63056 0.15755 0.41763 0.0
H2027 H 0.62431 0.16956 0.45618 0.0
H2028 H 0.61537 0.12991 0.47669 0.0
H2029 H 0.58305 0.09254 0.46852 0.0
H2030 H 0.82782 0.68373 0.41417 0.0
H2031 H 0.86227 0.66782 0.43985 0.0
H2032 H 0.89505 0.73539 0.49071 0.0
H2033 H 0.86037 0.75151 0.46516 0.0
H2034 H 0.93096 0.71579 0.4567 0.0
H2035 H 0.8732 0.64987 0.534 0.0
H2036 H 0.85969 0.64857 0.49294 0.0
H2037 H 0.8617 0.67463 0.51868 0.0
C2038 C 0.84196 0.69506 0.43143 0.0
C2039 C 0.84128 0.71881 0.43787 0.0
C2040 C 0.86166 0.68596 0.44602 0.0
C2041 C 0.88092 0.70035 0.46751 0.0
C2042 C 0.88022 0.724 0.47432 0.0
H2043 H 1.00349 0.63937 0.55815 0.0
H2044 H 0.97907 0.66983 0.54802 0.0
C2045 C 0.86048 0.73316 0.45968 0.0
C2046 C 0.90256 0.69088 0.48109 0.0
H2047 H 0.91506 0.64446 0.52232 0.0
C2048 C 0.92767 0.70053 0.47167 0.0
C2049 C 0.89814 0.67104 0.50069 0.0
C2050 C 0.87177 0.66053 0.51245 0.0
C2051 C 0.94813 0.68977 0.47959 0.0
C2052 C 0.94323 0.66913 0.49744 0.0
C2053 C 0.9186 0.66036 0.50858 0.0
C2054 C 0.9621 0.65435 0.50103 0.0
C2055 C 0.97451 0.69964 0.46754 0.0
C2056 C 0.96095 0.63613 0.47753 0.0
C2057 C 0.97449 0.61871 0.48338 0.0
C2058 C 0.98958 0.61945 0.51265 0.0
C2059 C 0.99227 0.63868 0.53519 0.0
C2060 C 0.97831 0.65597 0.52953 0.0
H2061 H 0.97598 0.71722 0.457 0.0
H2062 H 0.98976 0.70137 0.48772 0.0
H2063 H 0.97837 0.68712 0.44867 0.0
H2064 H 0.94833 0.6346 0.45553 0.0
H2065 H 0.97211 0.60399 0.46573 0.0
H2066 H 0.31957 0.85632 0.35448 0.0
H2067 H 0.35463 0.88517 0.38481 0.0
H2068 H 0.40264 0.83486 0.38468 0.0
H2069 H 0.36744 0.80558 0.35408 0.0
H2070 H 0.40511 0.86352 0.44628 0.0
H2071 H 0.42028 0.91756 0.33787 0.0
H2072 H 0.38731 0.9099 0.34899 0.0
H2073 H 0.40227 0.88692 0.33555 0.0
C2074 C 0.33741 0.85114 0.36116 0.0
C2075 C 0.34068 0.82859 0.35146 0.0
C2076 C 0.35751 0.86776 0.37848 0.0
C2077 C 0.38142 0.86235 0.38652 0.0
C2078 C 0.38437 0.83946 0.37856 0.0
H2079 H 0.5216 0.97503 0.43576 0.0
H2080 H 0.49109 0.93877 0.41326 0.0
C2081 C 0.36419 0.82272 0.36112 0.0
C2082 C 0.40358 0.88117 0.40152 0.0
H2083 H 0.44181 0.93561 0.38766 0.0
C2084 C 0.41333 0.87919 0.43341 0.0
C2085 C 0.41454 0.90149 0.38459 0.0
C2086 C 0.40578 0.9041 0.34975 0.0
C2087 C 0.43312 0.8974 0.44914 0.0
C2088 C 0.44318 0.91825 0.43271 0.0
C2089 C 0.43401 0.91978 0.40044 0.0
C2090 C 0.46275 0.93901 0.44849 0.0
C2091 C 0.44302 0.89418 0.48324 0.0
C2092 C 0.45713 0.95125 0.47596 0.0
C2093 C 0.4745 0.97209 0.48882 0.0
C2094 C 0.49788 0.98125 0.4744 0.0
C2095 C 0.50376 0.96861 0.44741 0.0
C2096 C 0.48633 0.94783 0.43451 0.0
H2097 H 0.43889 0.87516 0.48903 0.0
H2098 H 0.46423 0.90198 0.48727 0.0
H2099 H 0.43303 0.90341 0.50028 0.0
H2100 H 0.43891 0.94512 0.48691 0.0
H2101 H 0.46939 0.98121 0.50976 0.0
H2102 H 0.27659 0.3518 0.37128 0.0
H2103 H 0.253 0.37646 0.40087 0.0
H2104 H 0.19139 0.36068 0.325 0.0
H2105 H 0.21469 0.33568 0.29578 0.0
H2106 H 0.23736 0.41559 0.39661 0.0
H2107 H 0.14452 0.34873 0.39497 0.0
H2108 H 0.17336 0.34136 0.38154 0.0
H2109 H 0.15374 0.35506 0.35471 0.0
C2110 C 0.25797 0.35337 0.36063 0.0
C2111 C 0.24808 0.34102 0.33046 0.0
C2112 C 0.24419 0.36781 0.37794 0.0
C2113 C 0.21937 0.37076 0.36654 0.0
C2114 C 0.20973 0.35876 0.33603 0.0
H2115 H 0.10261 0.44927 0.43228 0.0
H2116 H 0.12797 0.42538 0.40548 0.0
C2117 C 0.22351 0.34434 0.31871 0.0
C2118 C 0.20416 0.38635 0.38601 0.0
H2119 H 0.14366 0.38791 0.4121 0.0
C2120 C 0.21688 0.4092 0.39995 0.0
C2121 C 0.17711 0.37908 0.39148 0.0
C2122 C 0.16141 0.35465 0.38022 0.0
C2123 C 0.20389 0.42448 0.41732 0.0
C2124 C 0.17678 0.41726 0.42255 0.0
C2125 C 0.16415 0.39435 0.40881 0.0
C2126 C 0.16103 0.43303 0.44078 0.0
C2127 C 0.21956 0.44886 0.42879 0.0
C2128 C 0.16974 0.44613 0.47094 0.0
C2129 C 0.15479 0.46035 0.48684 0.0
C2130 C 0.13003 0.46229 0.47373 0.0
C2131 C 0.12131 0.44889 0.44395 0.0
C2132 C 0.13613 0.4348 0.42821 0.0
H2133 H 0.23696 0.45458 0.41484 0.0
H2134 H 0.20778 0.46224 0.42657 0.0
H2135 H 0.2264 0.44853 0.45464 0.0
H2136 H 0.18816 0.44518 0.48282 0.0
H2137 H 0.16274 0.46981 0.50961 0.0
H2138 H 0.41856 0.24711 0.62611 0.0
H2139 H 0.44084 0.21759 0.60696 0.0
H2140 H 0.3776 0.16139 0.63264 0.0
H2141 H 0.35561 0.19075 0.65328 0.0
H2142 H 0.45372 0.18305 0.65038 0.0
H2143 H 0.394 0.1408 0.53929 0.0
H2144 H 0.39288 0.16974 0.55575 0.0
H2145 H 0.3767 0.14352 0.57468 0.0
C2146 C 0.4093 0.22848 0.62766 0.0
C2147 C 0.38537 0.22137 0.6416 0.0
C2148 C 0.42193 0.21163 0.61629 0.0
C2149 C 0.41068 0.18733 0.61794 0.0
C2150 C 0.38635 0.18008 0.63055 0.0
H2151 H 0.4682 0.06057 0.57998 0.0
H2152 H 0.44069 0.08835 0.58957 0.0
C2153 C 0.37381 0.19693 0.64232 0.0
C2154 C 0.4258 0.16975 0.61016 0.0
H2155 H 0.4276 0.1231 0.55869 0.0
C2156 C 0.44818 0.17006 0.63015 0.0
C2157 C 0.4181 0.15253 0.58425 0.0
C2158 C 0.3942 0.1516 0.56204 0.0
C2159 C 0.46312 0.15353 0.62509 0.0
C2160 C 0.45604 0.13674 0.59843 0.0
C2161 C 0.43329 0.13616 0.57877 0.0
C2162 C 0.4722 0.11987 0.59068 0.0
C2163 C 0.48579 0.15382 0.64917 0.0
C2164 C 0.49886 0.12832 0.58715 0.0
C2165 C 0.51462 0.11252 0.58286 0.0
C2166 C 0.50389 0.08794 0.5807 0.0
C2167 C 0.47698 0.07945 0.5822 0.0
C2168 C 0.46127 0.0953 0.58744 0.0
H2169 H 0.48312 0.16171 0.67319 0.0
H2170 H 0.48856 0.13567 0.65262 0.0
H2171 H 0.50375 0.16489 0.64024 0.0
H2172 H 0.50759 0.1472 0.5881 0.0
H2173 H 0.53519 0.11956 0.58068 0.0
H2174 H 0.87971 0.31421 0.73372 0.0
H2175 H 0.91238 0.34445 0.7091 0.0
H2176 H 0.85366 0.38123 0.6806 0.0
H2177 H 0.82097 0.35107 0.70485 0.0
H2178 H 0.88582 0.38115 0.63176 0.0
H2179 H 0.94712 0.41052 0.74586 0.0
H2180 H 0.94214 0.37944 0.73529 0.0
H2181 H 0.91504 0.39121 0.74529 0.0
C2182 C 0.8736 0.32864 0.72211 0.0
C2183 C 0.84732 0.32985 0.72162 0.0
C2184 C 0.89253 0.34622 0.70816 0.0
C2185 C 0.88601 0.36579 0.69315 0.0
C2186 C 0.85966 0.36665 0.69193 0.0
H2187 H 0.98508 0.50409 0.65526 0.0
H2188 H 0.95688 0.46913 0.67588 0.0
C2189 C 0.84079 0.34919 0.70599 0.0
C2190 C 0.90633 0.38533 0.67894 0.0
H2191 H 0.96321 0.4277 0.69806 0.0
C2192 C 0.90279 0.39118 0.64635 0.0
C2193 C 0.92861 0.39902 0.69757 0.0
C2194 C 0.93345 0.39496 0.73301 0.0
C2195 C 0.92051 0.40979 0.63218 0.0
C2196 C 0.94295 0.42329 0.65072 0.0
C2197 C 0.94643 0.41747 0.68332 0.0
C2198 C 0.96182 0.44456 0.63777 0.0
C2199 C 0.91445 0.41539 0.59763 0.0
C2200 C 0.97518 0.44303 0.60947 0.0
C2201 C 0.99186 0.46339 0.59748 0.0
C2202 C 0.9957 0.48604 0.6133 0.0
C2203 C 0.98285 0.48723 0.64203 0.0
C2204 C 0.9665 0.46701 0.65404 0.0
H2205 H 0.89386 0.40742 0.5892 0.0
H2206 H 0.91847 0.43486 0.59497 0.0
H2207 H 0.92691 0.40807 0.58156 0.0
H2208 H 0.97265 0.42607 0.59645 0.0
H2209 H 1.00108 0.46148 0.57527 0.0
H2210 H 0.24427 0.70694 0.79024 0.0
H2211 H 0.2244 0.66724 0.76513 0.0
H2212 H 0.19792 0.69922 0.6809 0.0
H2213 H 0.21787 0.73856 0.70535 0.0
H2214 H 0.17384 0.64492 0.74104 0.0
H2215 H 0.24044 0.65631 0.64247 0.0
H2216 H 0.2464 0.67568 0.67865 0.0
H2217 H 0.2249 0.68049 0.64546 0.0
C2218 C 0.23387 0.70542 0.76658 0.0
C2219 C 0.23284 0.72577 0.74954 0.0
C2220 C 0.22271 0.68279 0.75222 0.0
C2221 C 0.21046 0.68038 0.72076 0.0
C2222 C 0.20803 0.70072 0.70475 0.0
H2223 H 0.09356 0.58158 0.61309 0.0
H2224 H 0.12203 0.61128 0.65011 0.0
C2225 C 0.21925 0.72318 0.71888 0.0
C2226 C 0.20005 0.65679 0.70412 0.0
H2227 H 0.19974 0.62699 0.63155 0.0
C2228 C 0.17982 0.64073 0.7174 0.0
C2229 C 0.20838 0.65105 0.67369 0.0
C2230 C 0.23143 0.6667 0.65942 0.0
C2231 C 0.16625 0.61996 0.69979 0.0
C2232 C 0.17279 0.61555 0.66788 0.0
C2233 C 0.19443 0.63061 0.65577 0.0
C2234 C 0.15585 0.59703 0.64555 0.0
C2235 C 0.14461 0.60329 0.71522 0.0
C2236 C 0.16573 0.57978 0.62939 0.0
C2237 C 0.14949 0.56284 0.60763 0.0
C2238 C 0.12317 0.56299 0.60176 0.0
C2239 C 0.11362 0.5807 0.61742 0.0
C2240 C 0.12982 0.5976 0.63887 0.0
H2241 H 0.14825 0.60418 0.74204 0.0
H2242 H 0.12614 0.60859 0.70959 0.0
H2243 H 0.14224 0.58466 0.70601 0.0
H2244 H 0.1859 0.5793 0.63384 0.0
H2245 H 0.1574 0.54943 0.59592 0.0
loop_
_geom_bond_atom_site_label_1
_geom_bond_atom_site_label_2
_geom_bond_distance
_geom_bond_site_symmetry_2
_ccdc_geom_bond_type
Dy0 O3 2.307 . S
Dy0 O5 2.395 . S
Dy0 O6 2.379 . S
Dy0 O8 2.339 . S
Dy0 O10 2.298 . S
Dy0 O14 2.275 . S
Dy0 C22 2.738 . S
Dy1 O4 2.298 . S
Dy1 O7 2.275 . S
Dy1 O9 2.307 . S
Dy1 O11 2.395 . S
Dy1 O12 2.379 . S
Dy1 O15 2.339 . S
Dy1 C31 2.738 . S
C2 O14 1.254 . S
C2 O15 1.257 . S
O3 Dy0 2.307 . S
O3 C13 1.266 . S
O4 Dy1 2.298 . S
O4 C13 1.236 . S
O5 Dy0 2.395 . S
O5 C22 1.255 . S
O6 Dy0 2.379 . S
O6 C22 1.249 . S
O7 Dy1 2.275 . S
O7 C23 1.254 . S
O8 Dy0 2.339 . S
O8 C23 1.257 . S
O9 Dy1 2.307 . S
O9 C24 1.266 . S
O10 Dy0 2.298 . S
O10 C24 1.236 . S
O11 Dy1 2.395 . S
O11 C31 1.255 . S
O12 Dy1 2.379 . S
O12 C31 1.249 . S
C13 O3 1.266 . S
C13 O4 1.236 . S
O14 Dy0 2.275 . S
O14 C2 1.254 . S
O15 Dy1 2.339 . S
O15 C2 1.257 . S
C16 C19 1.344 . S
C16 C20 1.328 . S
C16 C22 1.516 . S
C17 C18 1.304 . S
C17 C21 1.323 . S
C18 C17 1.304 . S
C18 C19 1.371 . S
C18 H32 0.930 . S
C19 C16 1.344 . S
C19 C18 1.371 . S
C19 H33 0.931 . S
C20 C16 1.328 . S
C20 C21 1.433 . S
C20 H34 0.931 . S
C21 C17 1.323 . S
C21 C20 1.433 . S
C21 H35 0.933 . S
C22 Dy0 2.738 . S
C22 O5 1.255 . S
C22 O6 1.249 . S
C22 C16 1.516 . S
C23 O7 1.254 . S
C23 O8 1.257 . S
C24 O9 1.266 . S
C24 O10 1.236 . S
C25 C28 1.344 . S
C25 C29 1.328 . S
C25 C31 1.516 . S
C26 C27 1.304 . S
C26 C30 1.323 . S
C27 C26 1.304 . S
C27 C28 1.371 . S
C27 H36 0.930 . S
C28 C25 1.344 . S
C28 C27 1.371 . S
C28 H37 0.931 . S
C29 C25 1.328 . S
C29 C30 1.433 . S
C29 H38 0.931 . S
C30 C26 1.323 . S
C30 C29 1.433 . S
C30 H39 0.933 . S
C31 Dy1 2.738 . S
C31 O11 1.255 . S
C31 O12 1.249 . S
C31 C25 1.516 . S
H32 C18 0.930 . S
H33 C19 0.931 . S
H34 C20 0.931 . S
H35 C21 0.933 . S
H36 C27 0.930 . S
H37 C28 0.931 . S
H38 C29 0.931 . S
H39 C30 0.933 . S
Dy40 O43 2.307 . S
Dy40 O45 2.395 . S
Dy40 O46 2.379 . S
Dy40 O48 2.339 . S
Dy40 O50 2.298 . S
Dy40 O54 2.275 . S
Dy40 C62 2.738 . S
Dy41 O44 2.298 . S
Dy41 O47 2.275 . S
Dy41 O49 2.307 . S
Dy41 O51 2.395 . S
Dy41 O52 2.379 . S
Dy41 O55 2.339 . S
Dy41 C71 2.738 . S
C42 O54 1.254 . S
C42 O55 1.257 . S
O43 Dy40 2.307 . S
O43 C53 1.266 . S
O44 Dy41 2.298 . S
O44 C53 1.236 . S
O45 Dy40 2.395 . S
O45 C62 1.255 . S
O46 Dy40 2.379 . S
O46 C62 1.249 . S
O47 Dy41 2.275 . S
O47 C63 1.254 . S
O48 Dy40 2.339 . S
O48 C63 1.257 . S
O49 Dy41 2.307 . S
O49 C64 1.266 . S
O50 Dy40 2.298 . S
O50 C64 1.236 . S
O51 Dy41 2.395 . S
O51 C71 1.255 . S
O52 Dy41 2.379 . S
O52 C71 1.249 . S
C53 O43 1.266 . S
C53 O44 1.236 . S
O54 Dy40 2.275 . S
O54 C42 1.254 . S
O55 Dy41 2.339 . S
O55 C42 1.257 . S
C56 C59 1.344 . S
C56 C60 1.328 . S
C56 C62 1.516 . S
C57 C58 1.304 . S
C57 C61 1.323 . S
C58 C57 1.304 . S
C58 C59 1.371 . S
C58 H72 0.930 . S
C59 C56 1.344 . S
C59 C58 1.371 . S
C59 H73 0.931 . S
C60 C56 1.328 . S
C60 C61 1.433 . S
C60 H74 0.931 . S
C61 C57 1.323 . S
C61 C60 1.433 . S
C61 H75 0.933 . S
C62 Dy40 2.738 . S
C62 O45 1.255 . S
C62 O46 1.249 . S
C62 C56 1.516 . S
C63 O47 1.254 . S
C63 O48 1.257 . S
C64 O49 1.266 . S
C64 O50 1.236 . S
C65 C68 1.344 . S
C65 C69 1.328 . S
C65 C71 1.516 . S
C66 C67 1.304 . S
C66 C70 1.323 . S
C67 C66 1.304 . S
C67 C68 1.371 . S
C67 H76 0.930 . S
C68 C65 1.344 . S
C68 C67 1.371 . S
C68 H77 0.931 . S
C69 C65 1.328 . S
C69 C70 1.433 . S
C69 H78 0.931 . S
C70 C66 1.323 . S
C70 C69 1.433 . S
C70 H79 0.933 . S
C71 Dy41 2.738 . S
C71 O51 1.255 . S
C71 O52 1.249 . S
C71 C65 1.516 . S
H72 C58 0.930 . S
H73 C59 0.931 . S
H74 C60 0.931 . S
H75 C61 0.933 . S
H76 C67 0.930 . S
H77 C68 0.931 . S
H78 C69 0.931 . S
H79 C70 0.933 . S
Dy80 O83 2.307 . S
Dy80 O85 2.395 . S
Dy80 O86 2.379 . S
Dy80 O88 2.339 . S
Dy80 O90 2.298 . S
Dy80 O94 2.275 . S
Dy80 C102 2.738 . S
Dy81 O84 2.298 . S
Dy81 O87 2.275 . S
Dy81 O89 2.307 . S
Dy81 O91 2.395 . S
Dy81 O92 2.379 . S
Dy81 O95 2.339 . S
Dy81 C111 2.738 . S
C82 O94 1.254 . S
C82 O95 1.257 . S
O83 Dy80 2.307 . S
O83 C93 1.266 . S
O84 Dy81 2.298 . S
O84 C93 1.236 . S
O85 Dy80 2.395 . S
O85 C102 1.255 . S
O86 Dy80 2.379 . S
O86 C102 1.249 . S
O87 Dy81 2.275 . S
O87 C103 1.254 . S
O88 Dy80 2.339 . S
O88 C103 1.257 . S
O89 Dy81 2.307 . S
O89 C104 1.266 . S
O90 Dy80 2.298 . S
O90 C104 1.236 . S
O91 Dy81 2.395 . S
O91 C111 1.255 . S
O92 Dy81 2.379 . S
O92 C111 1.249 . S
C93 O83 1.266 . S
C93 O84 1.236 . S
O94 Dy80 2.275 . S
O94 C82 1.254 . S
O95 Dy81 2.339 . S
O95 C82 1.257 . S
C96 C99 1.344 . S
C96 C100 1.328 . S
C96 C102 1.516 . S
C97 C98 1.304 . S
C97 C101 1.323 . S
C98 C97 1.304 . S
C98 C99 1.371 . S
C98 H112 0.930 . S
C99 C96 1.344 . S
C99 C98 1.371 . S
C99 H113 0.931 . S
C100 C96 1.328 . S
C100 C101 1.433 . S
C100 H114 0.931 . S
C101 C97 1.323 . S
C101 C100 1.433 . S
C101 H115 0.933 . S
C102 Dy80 2.738 . S
C102 O85 1.255 . S
C102 O86 1.249 . S
C102 C96 1.516 . S
C103 O87 1.254 . S
C103 O88 1.257 . S
C104 O89 1.266 . S
C104 O90 1.236 . S
C105 C108 1.344 . S
C105 C109 1.328 . S
C105 C111 1.516 . S
C106 C107 1.304 . S
C106 C110 1.323 . S
C107 C106 1.304 . S
C107 C108 1.371 . S
C107 H116 0.930 . S
C108 C105 1.344 . S
C108 C107 1.371 . S
C108 H117 0.931 . S
C109 C105 1.328 . S
C109 C110 1.433 . S
C109 H118 0.931 . S
C110 C106 1.323 . S
C110 C109 1.433 . S
C110 H119 0.933 . S
C111 Dy81 2.738 . S
C111 O91 1.255 . S
C111 O92 1.249 . S
C111 C105 1.516 . S
H112 C98 0.930 . S
H113 C99 0.931 . S
H114 C100 0.931 . S
H115 C101 0.933 . S
H116 C107 0.930 . S
H117 C108 0.931 . S
H118 C109 0.931 . S
H119 C110 0.933 . S
Dy120 O123 2.307 . S
Dy120 O125 2.395 . S
Dy120 O126 2.379 . S
Dy120 O128 2.339 . S
Dy120 O130 2.298 . S
Dy120 O134 2.275 . S
Dy120 C142 2.738 . S
Dy121 O124 2.298 . S
Dy121 O127 2.275 . S
Dy121 O129 2.307 . S
Dy121 O131 2.395 . S
Dy121 O132 2.379 . S
Dy121 O135 2.339 . S
Dy121 C151 2.738 . S
C122 O134 1.254 . S
C122 O135 1.257 . S
O123 Dy120 2.307 . S
O123 C133 1.266 . S
O124 Dy121 2.298 . S
O124 C133 1.236 . S
O125 Dy120 2.395 . S
O125 C142 1.255 . S
O126 Dy120 2.379 . S
O126 C142 1.249 . S
O127 Dy121 2.275 . S
O127 C143 1.254 . S
O128 Dy120 2.339 . S
O128 C143 1.257 . S
O129 Dy121 2.307 . S
O129 C144 1.266 . S
O130 Dy120 2.298 . S
O130 C144 1.236 . S
O131 Dy121 2.395 . S
O131 C151 1.255 . S
O132 Dy121 2.379 . S
O132 C151 1.249 . S
C133 O123 1.266 . S
C133 O124 1.236 . S
O134 Dy120 2.275 . S
O134 C122 1.254 . S
O135 Dy121 2.339 . S
O135 C122 1.257 . S
C136 C139 1.344 . S
C136 C140 1.328 . S
C136 C142 1.516 . S
C137 C138 1.304 . S
C137 C141 1.323 . S
C138 C137 1.304 . S
C138 C139 1.371 . S
C138 H152 0.930 . S
C139 C136 1.344 . S
C139 C138 1.371 . S
C139 H153 0.931 . S
C140 C136 1.328 . S
C140 C141 1.433 . S
C140 H154 0.931 . S
C141 C137 1.323 . S
C141 C140 1.433 . S
C141 H155 0.933 . S
C142 Dy120 2.738 . S
C142 O125 1.255 . S
C142 O126 1.249 . S
C142 C136 1.516 . S
C143 O127 1.254 . S
C143 O128 1.257 . S
C144 O129 1.266 . S
C144 O130 1.236 . S
C145 C148 1.344 . S
C145 C149 1.328 . S
C145 C151 1.516 . S
C146 C147 1.304 . S
C146 C150 1.323 . S
C147 C146 1.304 . S
C147 C148 1.371 . S
C147 H156 0.930 . S
C148 C145 1.344 . S
C148 C147 1.371 . S
C148 H157 0.931 . S
C149 C145 1.328 . S
C149 C150 1.433 . S
C149 H158 0.931 . S
C150 C146 1.323 . S
C150 C149 1.433 . S
C150 H159 0.933 . S
C151 Dy121 2.738 . S
C151 O131 1.255 . S
C151 O132 1.249 . S
C151 C145 1.516 . S
H152 C138 0.930 . S
H153 C139 0.931 . S
H154 C140 0.931 . S
H155 C141 0.933 . S
H156 C147 0.930 . S
H157 C148 0.931 . S
H158 C149 0.931 . S
H159 C150 0.933 . S
Dy160 O163 2.307 . S
Dy160 O165 2.395 . S
Dy160 O166 2.379 . S
Dy160 O168 2.339 . S
Dy160 O170 2.298 . S
Dy160 O174 2.275 . S
Dy160 C182 2.738 . S
Dy161 O164 2.298 . S
Dy161 O167 2.275 . S
Dy161 O169 2.307 . S
Dy161 O171 2.395 . S
Dy161 O172 2.379 . S
Dy161 O175 2.339 . S
Dy161 C191 2.738 . S
C162 O174 1.254 . S
C162 O175 1.257 . S
O163 Dy160 2.307 . S
O163 C173 1.266 . S
O164 Dy161 2.298 . S
O164 C173 1.236 . S
O165 Dy160 2.395 . S
O165 C182 1.255 . S
O166 Dy160 2.379 . S
O166 C182 1.249 . S
O167 Dy161 2.275 . S
O167 C183 1.254 . S
O168 Dy160 2.339 . S
O168 C183 1.257 . S
O169 Dy161 2.307 . S
O169 C184 1.266 . S
O170 Dy160 2.298 . S
O170 C184 1.236 . S
O171 Dy161 2.395 . S
O171 C191 1.255 . S
O172 Dy161 2.379 . S
O172 C191 1.249 . S
C173 O163 1.266 . S
C173 O164 1.236 . S
O174 Dy160 2.275 . S
O174 C162 1.254 . S
O175 Dy161 2.339 . S
O175 C162 1.257 . S
C176 C179 1.344 . S
C176 C180 1.328 . S
C176 C182 1.516 . S
C177 C178 1.304 . S
C177 C181 1.323 . S
C178 C177 1.304 . S
C178 C179 1.371 . S
C178 H192 0.930 . S
C179 C176 1.344 . S
C179 C178 1.371 . S
C179 H193 0.931 . S
C180 C176 1.328 . S
C180 C181 1.433 . S
C180 H194 0.931 . S
C181 C177 1.323 . S
C181 C180 1.433 . S
C181 H195 0.933 . S
C182 Dy160 2.738 . S
C182 O165 1.255 . S
C182 O166 1.249 . S
C182 C176 1.516 . S
C183 O167 1.254 . S
C183 O168 1.257 . S
C184 O169 1.266 . S
C184 O170 1.236 . S
C185 C188 1.344 . S
C185 C189 1.328 . S
C185 C191 1.516 . S
C186 C187 1.304 . S
C186 C190 1.323 . S
C187 C186 1.304 . S
C187 C188 1.371 . S
C187 H196 0.930 . S
C188 C185 1.344 . S
C188 C187 1.371 . S
C188 H197 0.931 . S
C189 C185 1.328 . S
C189 C190 1.433 . S
C189 H198 0.931 . S
C190 C186 1.323 . S
C190 C189 1.433 . S
C190 H199 0.933 . S
C191 Dy161 2.738 . S
C191 O171 1.255 . S
C191 O172 1.249 . S
C191 C185 1.516 . S
H192 C178 0.930 . S
H193 C179 0.931 . S
H194 C180 0.931 . S
H195 C181 0.933 . S
H196 C187 0.930 . S
H197 C188 0.931 . S
H198 C189 0.931 . S
H199 C190 0.933 . S
Dy200 O203 2.307 . S
Dy200 O205 2.395 . S
Dy200 O206 2.379 . S
Dy200 O208 2.339 . S
Dy200 O210 2.298 . S
Dy200 O214 2.275 . S
Dy200 C222 2.738 . S
Dy201 O204 2.298 . S
Dy201 O207 2.275 . S
Dy201 O209 2.307 . S
Dy201 O211 2.395 . S
Dy201 O212 2.379 . S
Dy201 O215 2.339 . S
Dy201 C231 2.738 . S
C202 O214 1.254 . S
C202 O215 1.257 . S
O203 Dy200 2.307 . S
O203 C213 1.266 . S
O204 Dy201 2.298 . S
O204 C213 1.236 . S
O205 Dy200 2.395 . S
O205 C222 1.255 . S
O206 Dy200 2.379 . S
O206 C222 1.249 . S
O207 Dy201 2.275 . S
O207 C223 1.254 . S
O208 Dy200 2.339 . S
O208 C223 1.257 . S
O209 Dy201 2.307 . S
O209 C224 1.266 . S
O210 Dy200 2.298 . S
O210 C224 1.236 . S
O211 Dy201 2.395 . S
O211 C231 1.255 . S
O212 Dy201 2.379 . S
O212 C231 1.249 . S
C213 O203 1.266 . S
C213 O204 1.236 . S
O214 Dy200 2.275 . S
O214 C202 1.254 . S
O215 Dy201 2.339 . S
O215 C202 1.257 . S
C216 C219 1.344 . S
C216 C220 1.328 . S
C216 C222 1.516 . S
C217 C218 1.304 . S
C217 C221 1.323 . S
C218 C217 1.304 . S
C218 C219 1.371 . S
C218 H232 0.930 . S
C219 C216 1.344 . S
C219 C218 1.371 . S
C219 H233 0.931 . S
C220 C216 1.328 . S
C220 C221 1.433 . S
C220 H234 0.931 . S
C221 C217 1.323 . S
C221 C220 1.433 . S
C221 H235 0.933 . S
C222 Dy200 2.738 . S
C222 O205 1.255 . S
C222 O206 1.249 . S
C222 C216 1.516 . S
C223 O207 1.254 . S
C223 O208 1.257 . S
C224 O209 1.266 . S
C224 O210 1.236 . S
C225 C228 1.344 . S
C225 C229 1.328 . S
C225 C231 1.516 . S
C226 C227 1.304 . S
C226 C230 1.323 . S
C227 C226 1.304 . S
C227 C228 1.371 . S
C227 H236 0.930 . S
C228 C225 1.344 . S
C228 C227 1.371 . S
C228 H237 0.931 . S
C229 C225 1.328 . S
C229 C230 1.433 . S
C229 H238 0.931 . S
C230 C226 1.323 . S
C230 C229 1.433 . S
C230 H239 0.933 . S
C231 Dy201 2.738 . S
C231 O211 1.255 . S
C231 O212 1.249 . S
C231 C225 1.516 . S
H232 C218 0.930 . S
H233 C219 0.931 . S
H234 C220 0.931 . S
H235 C221 0.933 . S
H236 C227 0.930 . S
H237 C228 0.931 . S
H238 C229 0.931 . S
H239 C230 0.933 . S
Dy240 O243 2.307 . S
Dy240 O245 2.395 . S
Dy240 O246 2.379 . S
Dy240 O248 2.339 . S
Dy240 O250 2.298 . S
Dy240 O254 2.275 . S
Dy240 C262 2.738 . S
Dy241 O244 2.298 . S
Dy241 O247 2.275 . S
Dy241 O249 2.307 . S
Dy241 O251 2.395 . S
Dy241 O252 2.379 . S
Dy241 O255 2.339 . S
Dy241 C271 2.738 . S
C242 O254 1.254 . S
C242 O255 1.257 . S
O243 Dy240 2.307 . S
O243 C253 1.266 . S
O244 Dy241 2.298 . S
O244 C253 1.236 . S
O245 Dy240 2.395 . S
O245 C262 1.255 . S
O246 Dy240 2.379 . S
O246 C262 1.249 . S
O247 Dy241 2.275 . S
O247 C263 1.254 . S
O248 Dy240 2.339 . S
O248 C263 1.257 . S
O249 Dy241 2.307 . S
O249 C264 1.266 . S
O250 Dy240 2.298 . S
O250 C264 1.236 . S
O251 Dy241 2.395 . S
O251 C271 1.255 . S
O252 Dy241 2.379 . S
O252 C271 1.249 . S
C253 O243 1.266 . S
C253 O244 1.236 . S
O254 Dy240 2.275 . S
O254 C242 1.254 . S
O255 Dy241 2.339 . S
O255 C242 1.257 . S
C256 C259 1.344 . S
C256 C260 1.328 . S
C256 C262 1.516 . S
C257 C258 1.304 . S
C257 C261 1.323 . S
C258 C257 1.304 . S
C258 C259 1.371 . S
C258 H272 0.930 . S
C259 C256 1.344 . S
C259 C258 1.371 . S
C259 H273 0.931 . S
C260 C256 1.328 . S
C260 C261 1.433 . S
C260 H274 0.931 . S
C261 C257 1.323 . S
C261 C260 1.433 . S
C261 H275 0.933 . S
C262 Dy240 2.738 . S
C262 O245 1.255 . S
C262 O246 1.249 . S
C262 C256 1.516 . S
C263 O247 1.254 . S
C263 O248 1.257 . S
C264 O249 1.266 . S
C264 O250 1.236 . S
C265 C268 1.344 . S
C265 C269 1.328 . S
C265 C271 1.516 . S
C266 C267 1.304 . S
C266 C270 1.323 . S
C267 C266 1.304 . S
C267 C268 1.371 . S
C267 H276 0.930 . S
C268 C265 1.344 . S
C268 C267 1.371 . S
C268 H277 0.931 . S
C269 C265 1.328 . S
C269 C270 1.433 . S
C269 H278 0.931 . S
C270 C266 1.323 . S
C270 C269 1.433 . S
C270 H279 0.933 . S
C271 Dy241 2.738 . S
C271 O251 1.255 . S
C271 O252 1.249 . S
C271 C265 1.516 . S
H272 C258 0.930 . S
H273 C259 0.931 . S
H274 C260 0.931 . S
H275 C261 0.933 . S
H276 C267 0.930 . S
H277 C268 0.931 . S
H278 C269 0.931 . S
H279 C270 0.933 . S
Dy280 O283 2.307 . S
Dy280 O285 2.395 . S
Dy280 O286 2.379 . S
Dy280 O288 2.339 . S
Dy280 O290 2.298 . S
Dy280 O294 2.275 . S
Dy280 C302 2.738 . S
Dy281 O284 2.298 . S
Dy281 O287 2.275 . S
Dy281 O289 2.307 . S
Dy281 O291 2.395 . S
Dy281 O292 2.379 . S
Dy281 O295 2.339 . S
Dy281 C311 2.738 . S
C282 O294 1.254 . S
C282 O295 1.257 . S
O283 Dy280 2.307 . S
O283 C293 1.266 . S
O284 Dy281 2.298 . S
O284 C293 1.236 . S
O285 Dy280 2.395 . S
O285 C302 1.255 . S
O286 Dy280 2.379 . S
O286 C302 1.249 . S
O287 Dy281 2.275 . S
O287 C303 1.254 . S
O288 Dy280 2.339 . S
O288 C303 1.257 . S
O289 Dy281 2.307 . S
O289 C304 1.266 . S
O290 Dy280 2.298 . S
O290 C304 1.236 . S
O291 Dy281 2.395 . S
O291 C311 1.255 . S
O292 Dy281 2.379 . S
O292 C311 1.249 . S
C293 O283 1.266 . S
C293 O284 1.236 . S
O294 Dy280 2.275 . S
O294 C282 1.254 . S
O295 Dy281 2.339 . S
O295 C282 1.257 . S
C296 C299 1.344 . S
C296 C300 1.328 . S
C296 C302 1.516 . S
C297 C298 1.304 . S
C297 C301 1.323 . S
C298 C297 1.304 . S
C298 C299 1.371 . S
C298 H312 0.930 . S
C299 C296 1.344 . S
C299 C298 1.371 . S
C299 H313 0.931 . S
C300 C296 1.328 . S
C300 C301 1.433 . S
C300 H314 0.931 . S
C301 C297 1.323 . S
C301 C300 1.433 . S
C301 H315 0.933 . S
C302 Dy280 2.738 . S
C302 O285 1.255 . S
C302 O286 1.249 . S
C302 C296 1.516 . S
C303 O287 1.254 . S
C303 O288 1.257 . S
C304 O289 1.266 . S
C304 O290 1.236 . S
C305 C308 1.344 . S
C305 C309 1.328 . S
C305 C311 1.516 . S
C306 C307 1.304 . S
C306 C310 1.323 . S
C307 C306 1.304 . S
C307 C308 1.371 . S
C307 H316 0.930 . S
C308 C305 1.344 . S
C308 C307 1.371 . S
C308 H317 0.931 . S
C309 C305 1.328 . S
C309 C310 1.433 . S
C309 H318 0.931 . S
C310 C306 1.323 . S
C310 C309 1.433 . S
C310 H319 0.933 . S
C311 Dy281 2.738 . S
C311 O291 1.255 . S
C311 O292 1.249 . S
C311 C305 1.516 . S
H312 C298 0.930 . S
H313 C299 0.931 . S
H314 C300 0.931 . S
H315 C301 0.933 . S
H316 C307 0.930 . S
H317 C308 0.931 . S
H318 C309 0.931 . S
H319 C310 0.933 . S
Co320 O323 2.042 . S
Co320 O330 2.264 . S
Co320 O349 2.286 . S
Co320 O350 2.069 . S
Co320 O352 2.015 1_455 S
Co321 O323 2.122 . S
Co321 O329 2.073 . S
Co321 O330 2.327 . S
Co321 O331 1.976 . S
Co322 O323 2.087 1_545 S
Co322 O325 2.087 1_455 S
Co322 O332 2.111 1_455 S
Co322 O333 2.143 . S
Co322 O337 2.111 . S
Co322 O351 2.143 1_445 S
O323 Co320 2.042 . S
O323 Co321 2.122 . S
O323 Co322 2.087 1_565 S
O323 H324 0.980 1_565 S
H324 O323 0.980 1_545 S
O325 Co322 2.087 1_655 S
O325 Co326 2.042 . S
O325 Co327 2.122 . S
O325 H328 0.980 . S
Co326 O325 2.042 . S
Co326 O334 2.286 . S
Co326 O335 2.069 . S
Co326 O336 2.015 1_655 S
Co326 O339 2.264 . S
Co327 O325 2.122 . S
Co327 O338 1.976 1_655 S
Co327 O339 2.327 . S
Co327 O340 2.073 . S
H328 O325 0.980 . S
O329 Co321 2.073 . S
O329 C344 1.245 . S
O330 Co320 2.264 . S
O330 Co321 2.327 . S
O330 C344 1.257 . S
O331 Co321 1.976 . S
O331 C343 1.251 1_455 S
O332 Co322 2.111 1_655 S
O332 C343 1.274 1_545 S
O333 Co322 2.143 . S
O333 C346 1.246 . S
O334 Co326 2.286 . S
O334 C345 1.259 . S
O335 Co326 2.069 . S
O335 C345 1.289 . S
O336 Co326 2.015 1_455 S
O336 C346 1.257 . S
O337 Co322 2.111 . S
O337 C347 1.274 . S
O338 Co327 1.976 1_455 S
O338 C347 1.251 . S
O339 Co326 2.264 . S
O339 Co327 2.327 . S
O339 C348 1.257 . S
O340 Co327 2.073 . S
O340 C348 1.245 . S
C341 O349 1.259 . S
C341 O350 1.289 . S
C342 O351 1.246 . S
C342 O352 1.257 . S
C343 O331 1.251 1_655 S
C343 O332 1.274 1_565 S
C344 O329 1.245 . S
C344 O330 1.257 . S
C345 O334 1.259 . S
C345 O335 1.289 . S
C346 O333 1.246 . S
C346 O336 1.257 . S
C347 O337 1.274 . S
C347 O338 1.251 . S
C348 O339 1.257 . S
C348 O340 1.245 . S
O349 Co320 2.286 . S
O349 C341 1.259 . S
O350 Co320 2.069 . S
O350 C341 1.289 . S
O351 Co322 2.143 1_665 S
O351 C342 1.246 . S
O352 Co320 2.015 1_655 S
O352 C342 1.257 . S
Co353 O356 2.042 1_566 S
Co353 O363 2.264 1_556 S
Co353 O382 2.286 . S
Co353 O383 2.069 . S
Co353 O385 2.015 . S
Co354 O356 2.122 1_565 S
Co354 O362 2.073 . S
Co354 O363 2.327 . S
Co354 O364 1.976 . S
Co355 O356 2.087 . S
Co355 O358 2.087 1_554 S
Co355 O365 2.111 . S
Co355 O366 2.143 . S
Co355 O370 2.111 1_554 S
Co355 O384 2.143 1_554 S
O356 Co353 2.042 1_544 S
O356 Co354 2.122 1_545 S
O356 Co355 2.087 . S
O356 H357 0.980 . S
H357 O356 0.980 . S
O358 Co355 2.087 1_556 S
O358 Co359 2.042 1_556 S
O358 Co360 2.122 . S
O358 H361 0.980 . S
Co359 O358 2.042 1_554 S
Co359 O367 2.286 . S
Co359 O368 2.069 . S
Co359 O369 2.015 . S
Co359 O372 2.264 1_554 S
Co360 O358 2.122 . S
Co360 O371 1.976 . S
Co360 O372 2.327 . S
Co360 O373 2.073 . S
H361 O358 0.980 . S
O362 Co354 2.073 . S
O362 C377 1.245 . S
O363 Co353 2.264 1_554 S
O363 Co354 2.327 . S
O363 C377 1.257 . S
O364 Co354 1.976 . S
O364 C376 1.251 . S
O365 Co355 2.111 . S
O365 C376 1.274 1_545 S
O366 Co355 2.143 . S
O366 C379 1.246 . S
O367 Co359 2.286 . S
O367 C378 1.259 . S
O368 Co359 2.069 . S
O368 C378 1.289 . S
O369 Co359 2.015 . S
O369 C379 1.257 . S
O370 Co355 2.111 1_556 S
O370 C380 1.274 . S
O371 Co360 1.976 . S
O371 C380 1.251 . S
O372 Co359 2.264 1_556 S
O372 Co360 2.327 . S
O372 C381 1.257 . S
O373 Co360 2.073 . S
O373 C381 1.245 . S
C374 O382 1.259 . S
C374 O383 1.289 . S
C375 O384 1.246 1_565 S
C375 O385 1.257 . S
C376 O364 1.251 . S
C376 O365 1.274 1_565 S
C377 O362 1.245 . S
C377 O363 1.257 . S
C378 O367 1.259 . S
C378 O368 1.289 . S
C379 O366 1.246 . S
C379 O369 1.257 . S
C380 O370 1.274 . S
C380 O371 1.251 . S
C381 O372 1.257 . S
C381 O373 1.245 . S
O382 Co353 2.286 . S
O382 C374 1.259 . S
O383 Co353 2.069 . S
O383 C374 1.289 . S
O384 Co355 2.143 1_556 S
O384 C375 1.246 1_545 S
O385 Co353 2.015 . S
O385 C375 1.257 . S
Co386 O389 2.042 . S
Co386 O396 2.264 . S
Co386 O415 2.286 1_554 S
Co386 O416 2.069 . S
Co386 O418 2.015 1_455 S
Co387 O389 2.122 . S
Co387 O395 2.073 . S
Co387 O396 2.327 . S
Co387 O397 1.976 1_455 S
Co388 O389 2.087 . S
Co388 O391 2.087 1_455 S
Co388 O398 2.111 1_455 S
Co388 O399 2.143 . S
Co388 O403 2.111 . S
Co388 O417 2.143 1_455 S
O389 Co386 2.042 . S
O389 Co387 2.122 . S
O389 Co388 2.087 . S
O389 H390 0.980 . S
H390 O389 0.980 . S
O391 Co388 2.087 1_655 S
O391 Co392 2.042 . S
O391 Co393 2.122 1_554 S
O391 H394 0.980 . S
Co392 O391 2.042 . S
Co392 O400 2.286 . S
Co392 O401 2.069 . S
Co392 O402 2.015 1_655 S
Co392 O405 2.264 . S
Co393 O391 2.122 1_556 S
Co393 O404 1.976 1_656 S
Co393 O405 2.327 1_556 S
Co393 O406 2.073 . S
H394 O391 0.980 . S
O395 Co387 2.073 . S
O395 C410 1.245 . S
O396 Co386 2.264 . S
O396 Co387 2.327 . S
O396 C410 1.257 . S
O397 Co387 1.976 1_655 S
O397 C409 1.251 . S
O398 Co388 2.111 1_655 S
O398 C409 1.274 . S
O399 Co388 2.143 . S
O399 C412 1.246 . S
O400 Co392 2.286 . S
O400 C411 1.259 . S
O401 Co392 2.069 . S
O401 C411 1.289 . S
O402 Co392 2.015 1_455 S
O402 C412 1.257 . S
O403 Co388 2.111 . S
O403 C413 1.274 . S
O404 Co393 1.976 1_454 S
O404 C413 1.252 . S
O405 Co392 2.264 . S
O405 Co393 2.327 1_554 S
O405 C414 1.257 . S
O406 Co393 2.073 . S
O406 C414 1.245 1_556 S
C407 O415 1.259 1_554 S
C407 O416 1.289 . S
C408 O417 1.246 . S
C408 O418 1.257 . S
C409 O397 1.251 . S
C409 O398 1.274 . S
C410 O395 1.245 . S
C410 O396 1.257 . S
C411 O400 1.259 . S
C411 O401 1.289 . S
C412 O399 1.246 . S
C412 O402 1.257 . S
C413 O403 1.274 . S
C413 O404 1.252 . S
C414 O405 1.257 . S
C414 O406 1.245 1_554 S
O415 Co386 2.286 1_556 S
O415 C407 1.259 1_556 S
O416 Co386 2.069 . S
O416 C407 1.289 . S
O417 Co388 2.143 1_655 S
O417 C408 1.246 . S
O418 Co386 2.015 1_655 S
O418 C408 1.257 . S
Co419 O422 2.035 1_556 S
Co419 O429 2.253 1_556 S
Co419 O448 2.292 . S
Co419 O449 2.072 . S
Co419 O451 2.016 . S
Co420 O422 2.122 . S
Co420 O428 2.073 . S
Co420 O429 2.327 . S
Co420 O430 1.976 . S
Co421 O422 2.087 . S
Co421 O424 2.087 . S
Co421 O431 2.111 . S
Co421 O432 2.143 . S
Co421 O436 2.111 1_554 S
Co421 O450 2.143 1_554 S
O422 Co419 2.035 1_554 S
O422 Co420 2.122 . S
O422 Co421 2.087 . S
O422 H423 0.980 . S
H423 O422 0.980 . S
O424 Co421 2.087 . S
O424 Co425 2.042 . S
O424 Co426 2.122 1_554 S
O424 H427 0.980 . S
Co425 O424 2.042 . S
Co425 O433 2.286 . S
Co425 O434 2.069 . S
Co425 O435 2.015 . S
Co425 O438 2.264 1_554 S
Co426 O424 2.122 1_556 S
Co426 O437 1.976 . S
Co426 O438 2.327 . S
Co426 O439 2.073 . S
H427 O424 0.980 . S
O428 Co420 2.073 . S
O428 C443 1.245 . S
O429 Co419 2.253 1_554 S
O429 Co420 2.327 . S
O429 C443 1.257 . S
O430 Co420 1.976 . S
O430 C442 1.251 . S
O431 Co421 2.111 . S
O431 C442 1.274 . S
O432 Co421 2.143 . S
O432 C445 1.246 . S
O433 Co425 2.286 . S
O433 C444 1.259 . S
O434 Co425 2.069 . S
O434 C444 1.289 . S
O435 Co425 2.015 . S
O435 C445 1.257 . S
O436 Co421 2.111 1_556 S
O436 C446 1.274 . S
O437 Co426 1.976 . S
O437 C446 1.251 . S
O438 Co425 2.264 1_556 S
O438 Co426 2.327 . S
O438 C447 1.257 . S
O439 Co426 2.073 . S
O439 C447 1.245 . S
C440 O448 1.259 . S
C440 O449 1.289 . S
C441 O450 1.246 . S
C441 O451 1.257 . S
C442 O430 1.251 . S
C442 O431 1.274 . S
C443 O428 1.245 . S
C443 O429 1.257 . S
C444 O433 1.259 . S
C444 O434 1.289 . S
C445 O432 1.246 . S
C445 O435 1.257 . S
C446 O436 1.274 . S
C446 O437 1.251 . S
C447 O438 1.257 . S
C447 O439 1.245 . S
O448 Co419 2.292 . S
O448 C440 1.259 . S
O449 Co419 2.072 . S
O449 C440 1.289 . S
O450 Co421 2.143 1_556 S
O450 C441 1.246 . S
O451 Co419 2.016 . S
O451 C441 1.257 . S
Co452 O455 2.042 . S
Co452 O462 2.264 . S
Co452 O481 2.286 . S
Co452 O482 2.069 . S
Co452 O484 2.015 . S
Co453 O455 2.122 . S
Co453 O461 2.073 . S
Co453 O462 2.327 . S
Co453 O463 1.976 . S
Co454 O455 2.087 . S
Co454 O457 2.087 . S
Co454 O464 2.111 . S
Co454 O465 2.143 . S
Co454 O469 2.111 . S
Co454 O483 2.143 . S
O455 Co452 2.042 . S
O455 Co453 2.122 . S
O455 Co454 2.087 . S
O455 H456 0.980 . S
H456 O455 0.980 . S
O457 Co454 2.087 . S
O457 Co458 2.042 1_455 S
O457 Co459 2.122 1_455 S
O457 H460 0.980 . S
Co458 O457 2.042 1_655 S
Co458 O466 2.286 . S
Co458 O467 2.069 . S
Co458 O468 2.015 . S
Co458 O471 2.264 . S
Co459 O457 2.122 1_655 S
Co459 O470 1.976 . S
Co459 O471 2.327 . S
Co459 O472 2.073 . S
H460 O457 0.980 . S
O461 Co453 2.073 . S
O461 C476 1.245 . S
O462 Co452 2.264 . S
O462 Co453 2.327 . S
O462 C476 1.257 . S
O463 Co453 1.976 . S
O463 C475 1.251 . S
O464 Co454 2.111 . S
O464 C475 1.274 . S
O465 Co454 2.143 . S
O465 C478 1.246 1_455 S
O466 Co458 2.286 . S
O466 C477 1.259 . S
O467 Co458 2.069 . S
O467 C477 1.289 . S
O468 Co458 2.015 . S
O468 C478 1.257 . S
O469 Co454 2.111 . S
O469 C479 1.274 1_455 S
O470 Co459 1.976 . S
O470 C479 1.251 . S
O471 Co458 2.264 . S
O471 Co459 2.327 . S
O471 C480 1.257 . S
O472 Co459 2.073 . S
O472 C480 1.245 . S
C473 O481 1.259 . S
C473 O482 1.289 . S
C474 O483 1.246 . S
C474 O484 1.257 . S
C475 O463 1.251 . S
C475 O464 1.274 . S
C476 O461 1.245 . S
C476 O462 1.257 . S
C477 O466 1.259 . S
C477 O467 1.289 . S
C478 O465 1.246 1_655 S
C478 O468 1.257 . S
C479 O469 1.274 1_655 S
C479 O470 1.251 . S
C480 O471 1.257 . S
C480 O472 1.245 . S
O481 Co452 2.286 . S
O481 C473 1.259 . S
O482 Co452 2.069 . S
O482 C473 1.289 . S
O483 Co454 2.143 . S
O483 C474 1.246 . S
O484 Co452 2.015 . S
O484 C474 1.257 . S
Co485 O488 2.042 . S
Co485 O495 2.264 . S
Co485 O514 2.286 . S
Co485 O515 2.069 . S
Co485 O517 2.015 1_565 S
Co486 O488 2.122 . S
Co486 O494 2.073 . S
Co486 O495 2.327 . S
Co486 O496 1.976 1_565 S
Co487 O488 2.087 1_545 S
Co487 O490 2.087 . S
Co487 O497 2.111 . S
Co487 O498 2.143 1_545 S
Co487 O502 2.111 1_545 S
Co487 O516 2.143 . S
O488 Co485 2.042 . S
O488 Co486 2.122 . S
O488 Co487 2.087 1_565 S
O488 H489 0.980 . S
H489 O488 0.980 . S
O490 Co487 2.087 . S
O490 Co491 2.042 . S
O490 Co492 2.122 . S
O490 H493 0.980 . S
Co491 O490 2.042 . S
Co491 O499 2.286 . S
Co491 O500 2.069 . S
Co491 O501 2.015 1_545 S
Co491 O504 2.264 . S
Co492 O490 2.122 . S
Co492 O503 1.976 1_545 S
Co492 O504 2.327 . S
Co492 O505 2.073 . S
H493 O490 0.980 . S
O494 Co486 2.073 . S
O494 C509 1.245 . S
O495 Co485 2.264 . S
O495 Co486 2.327 . S
O495 C509 1.257 . S
O496 Co486 1.976 1_545 S
O496 C508 1.251 . S
O497 Co487 2.111 . S
O497 C508 1.274 . S
O498 Co487 2.143 1_565 S
O498 C511 1.246 . S
O499 Co491 2.286 . S
O499 C510 1.259 . S
O500 Co491 2.069 . S
O500 C510 1.289 . S
O501 Co491 2.015 1_565 S
O501 C511 1.257 . S
O502 Co487 2.111 1_565 S
O502 C512 1.274 . S
O503 Co492 1.976 1_565 S
O503 C512 1.251 . S
O504 Co491 2.264 . S
O504 Co492 2.327 . S
O504 C513 1.257 . S
O505 Co492 2.073 . S
O505 C513 1.245 . S
C506 O514 1.259 . S
C506 O515 1.289 . S
C507 O516 1.246 . S
C507 O517 1.257 . S
C508 O496 1.251 . S
C508 O497 1.274 . S
C509 O494 1.245 . S
C509 O495 1.257 . S
C510 O499 1.259 . S
C510 O500 1.289 . S
C511 O498 1.246 . S
C511 O501 1.257 . S
C512 O502 1.274 . S
C512 O503 1.251 . S
C513 O504 1.257 . S
C513 O505 1.245 . S
O514 Co485 2.286 . S
O514 C506 1.259 . S
O515 Co485 2.069 . S
O515 C506 1.289 . S
O516 Co487 2.143 . S
O516 C507 1.246 . S
O517 Co485 2.015 1_545 S
O517 C507 1.257 . S
H518 C526 0.929 . S
H519 C528 0.930 . S
H520 C530 0.930 . S
H521 C533 0.929 . S
H522 C536 0.930 . S
H523 C538 0.960 . S
H524 C538 0.960 . S
H525 C538 0.960 . S
C526 H518 0.929 . S
C526 C527 1.377 . S
C526 C528 1.384 . S
C527 C526 1.377 . S
C527 C533 1.390 . S
C528 H519 0.930 . S
C528 C526 1.384 . S
C528 C529 1.372 . S
C529 C528 1.372 . S
C529 C530 1.400 . S
C529 C534 1.490 . S
C530 H520 0.930 . S
C530 C529 1.400 . S
C530 C533 1.386 . S
H531 C547 0.930 . S
H532 C548 0.931 . S
C533 H521 0.929 . S
C533 C527 1.390 . S
C533 C530 1.386 . S
C534 C529 1.490 . S
C534 C536 1.395 . S
C534 C537 1.403 . S
H535 C541 0.930 . S
C536 H522 0.930 . S
C536 C534 1.395 . S
C536 C539 1.403 . S
C537 C534 1.403 . S
C537 C538 1.524 . S
C537 C541 1.400 . S
C538 H523 0.960 . S
C538 H524 0.960 . S
C538 H525 0.960 . S
C538 C537 1.524 . S
C539 C536 1.403 . S
C539 C540 1.392 . S
C539 C543 1.495 . S
C540 C539 1.392 . S
C540 C541 1.385 . S
C540 C542 1.478 . S
C541 H535 0.930 . S
C541 C537 1.400 . S
C541 C540 1.385 . S
C542 C540 1.478 . S
C542 C544 1.381 . S
C542 C548 1.383 . S
C543 C539 1.495 . S
C543 H549 0.959 . S
C543 H550 0.961 . S
C543 H551 0.960 . S
C544 C542 1.381 . S
C544 C545 1.394 . S
C544 H552 0.930 . S
C545 C544 1.394 . S
C545 C546 1.383 . S
C545 H553 0.929 . S
C546 C545 1.383 . S
C546 C547 1.377 . S
C547 H531 0.930 . S
C547 C546 1.377 . S
C547 C548 1.379 . S
C548 H532 0.931 . S
C548 C542 1.383 . S
C548 C547 1.379 . S
H549 C543 0.959 . S
H550 C543 0.961 . S
H551 C543 0.960 . S
H552 C544 0.930 . S
H553 C545 0.929 . S
H554 C562 0.929 . S
H555 C564 0.930 . S
H556 C566 0.930 . S
H557 C569 0.929 . S
H558 C572 0.930 . S
H559 C574 0.960 . S
H560 C574 0.960 . S
H561 C574 0.960 . S
C562 H554 0.929 . S
C562 C563 1.377 . S
C562 C564 1.384 . S
C563 C562 1.377 . S
C563 C569 1.390 . S
C564 H555 0.930 . S
C564 C562 1.384 . S
C564 C565 1.372 . S
C565 C564 1.372 . S
C565 C566 1.400 . S
C565 C570 1.490 . S
C566 H556 0.930 . S
C566 C565 1.400 . S
C566 C569 1.386 . S
H567 C583 0.930 . S
H568 C584 0.931 . S
C569 H557 0.929 . S
C569 C563 1.390 . S
C569 C566 1.386 . S
C570 C565 1.490 . S
C570 C572 1.395 . S
C570 C573 1.403 . S
H571 C577 0.930 . S
C572 H558 0.930 . S
C572 C570 1.395 . S
C572 C575 1.403 . S
C573 C570 1.403 . S
C573 C574 1.524 . S
C573 C577 1.400 . S
C574 H559 0.960 . S
C574 H560 0.960 . S
C574 H561 0.960 . S
C574 C573 1.524 . S
C575 C572 1.403 . S
C575 C576 1.392 . S
C575 C579 1.495 . S
C576 C575 1.392 . S
C576 C577 1.385 . S
C576 C578 1.478 . S
C577 H571 0.930 . S
C577 C573 1.400 . S
C577 C576 1.385 . S
C578 C576 1.478 . S
C578 C580 1.381 . S
C578 C584 1.383 . S
C579 C575 1.495 . S
C579 H585 0.959 . S
C579 H586 0.961 . S
C579 H587 0.960 . S
C580 C578 1.381 . S
C580 C581 1.394 . S
C580 H588 0.930 . S
C581 C580 1.394 . S
C581 C582 1.383 . S
C581 H589 0.929 . S
C582 C581 1.383 . S
C582 C583 1.377 . S
C583 H567 0.930 . S
C583 C582 1.377 . S
C583 C584 1.379 . S
C584 H568 0.931 . S
C584 C578 1.383 . S
C584 C583 1.379 . S
H585 C579 0.959 . S
H586 C579 0.961 . S
H587 C579 0.960 . S
H588 C580 0.930 . S
H589 C581 0.929 . S
H590 C598 0.929 . S
H591 C600 0.930 . S
H592 C602 0.930 . S
H593 C605 0.929 . S
H594 C608 0.930 . S
H595 C610 0.960 . S
H596 C610 0.960 . S
H597 C610 0.960 . S
C598 H590 0.929 . S
C598 C599 1.377 . S
C598 C600 1.384 . S
C599 C598 1.377 . S
C599 C605 1.390 . S
C600 H591 0.930 . S
C600 C598 1.384 . S
C600 C601 1.372 . S
C601 C600 1.372 . S
C601 C602 1.400 . S
C601 C606 1.490 . S
C602 H592 0.930 . S
C602 C601 1.400 . S
C602 C605 1.386 . S
H603 C619 0.930 . S
H604 C620 0.931 . S
C605 H593 0.929 . S
C605 C599 1.390 . S
C605 C602 1.386 . S
C606 C601 1.490 . S
C606 C608 1.395 . S
C606 C609 1.403 . S
H607 C613 0.930 . S
C608 H594 0.930 . S
C608 C606 1.395 . S
C608 C611 1.403 . S
C609 C606 1.403 . S
C609 C610 1.524 . S
C609 C613 1.400 . S
C610 H595 0.960 . S
C610 H596 0.960 . S
C610 H597 0.960 . S
C610 C609 1.524 . S
C611 C608 1.403 . S
C611 C612 1.392 . S
C611 C615 1.495 . S
C612 C611 1.392 . S
C612 C613 1.385 . S
C612 C614 1.478 . S
C613 H607 0.930 . S
C613 C609 1.400 . S
C613 C612 1.385 . S
C614 C612 1.478 . S
C614 C616 1.381 . S
C614 C620 1.383 . S
C615 C611 1.495 . S
C615 H621 0.959 . S
C615 H622 0.961 . S
C615 H623 0.960 . S
C616 C614 1.381 . S
C616 C617 1.394 . S
C616 H624 0.930 . S
C617 C616 1.394 . S
C617 C618 1.383 . S
C617 H625 0.929 . S
C618 C617 1.383 . S
C618 C619 1.377 . S
C619 H603 0.930 . S
C619 C618 1.377 . S
C619 C620 1.379 . S
C620 H604 0.931 . S
C620 C614 1.383 . S
C620 C619 1.379 . S
H621 C615 0.959 . S
H622 C615 0.961 . S
H623 C615 0.960 . S
H624 C616 0.930 . S
H625 C617 0.929 . S
H626 C634 0.929 . S
H627 C636 0.930 . S
H628 C638 0.930 . S
H629 C641 0.929 . S
H630 C644 0.930 . S
H631 C646 0.960 . S
H632 C646 0.960 . S
H633 C646 0.960 . S
C634 H626 0.929 . S
C634 C635 1.377 . S
C634 C636 1.384 . S
C635 C634 1.377 . S
C635 C641 1.390 . S
C636 H627 0.930 . S
C636 C634 1.384 . S
C636 C637 1.372 . S
C637 C636 1.372 . S
C637 C638 1.400 . S
C637 C642 1.490 . S
C638 H628 0.930 . S
C638 C637 1.400 . S
C638 C641 1.386 . S
H639 C655 0.930 . S
H640 C656 0.931 . S
C641 H629 0.929 . S
C641 C635 1.390 . S
C641 C638 1.386 . S
C642 C637 1.490 . S
C642 C644 1.395 . S
C642 C645 1.403 . S
H643 C649 0.930 . S
C644 H630 0.930 . S
C644 C642 1.395 . S
C644 C647 1.403 . S
C645 C642 1.403 . S
C645 C646 1.524 . S
C645 C649 1.400 . S
C646 H631 0.960 . S
C646 H632 0.960 . S
C646 H633 0.960 . S
C646 C645 1.524 . S
C647 C644 1.403 . S
C647 C648 1.392 . S
C647 C651 1.495 . S
C648 C647 1.392 . S
C648 C649 1.385 . S
C648 C650 1.478 . S
C649 H643 0.930 . S
C649 C645 1.400 . S
C649 C648 1.385 . S
C650 C648 1.478 . S
C650 C652 1.381 . S
C650 C656 1.383 . S
C651 C647 1.495 . S
C651 H657 0.959 . S
C651 H658 0.961 . S
C651 H659 0.960 . S
C652 C650 1.381 . S
C652 C653 1.394 . S
C652 H660 0.930 . S
C653 C652 1.394 . S
C653 C654 1.383 . S
C653 H661 0.929 . S
C654 C653 1.383 . S
C654 C655 1.377 . S
C655 H639 0.930 . S
C655 C654 1.377 . S
C655 C656 1.379 . S
C656 H640 0.931 . S
C656 C650 1.383 . S
C656 C655 1.379 . S
H657 C651 0.959 . S
H658 C651 0.961 . S
H659 C651 0.960 . S
H660 C652 0.930 . S
H661 C653 0.929 . S
H662 C670 0.929 . S
H663 C672 0.930 . S
H664 C674 0.930 . S
H665 C677 0.929 . S
H666 C680 0.930 . S
H667 C682 0.960 . S
H668 C682 0.960 . S
H669 C682 0.960 . S
C670 H662 0.929 . S
C670 C671 1.377 . S
C670 C672 1.384 . S
C671 C670 1.377 . S
C671 C677 1.390 . S
C672 H663 0.930 . S
C672 C670 1.384 . S
C672 C673 1.372 . S
C673 C672 1.372 . S
C673 C674 1.400 . S
C673 C678 1.490 . S
C674 H664 0.930 . S
C674 C673 1.400 . S
C674 C677 1.386 . S
H675 C691 0.930 . S
H676 C692 0.931 . S
C677 H665 0.929 . S
C677 C671 1.390 . S
C677 C674 1.386 . S
C678 C673 1.490 . S
C678 C680 1.395 . S
C678 C681 1.403 . S
H679 C685 0.930 . S
C680 H666 0.930 . S
C680 C678 1.395 . S
C680 C683 1.403 . S
C681 C678 1.403 . S
C681 C682 1.524 . S
C681 C685 1.400 . S
C682 H667 0.960 . S
C682 H668 0.960 . S
C682 H669 0.960 . S
C682 C681 1.524 . S
C683 C680 1.403 . S
C683 C684 1.392 . S
C683 C687 1.495 . S
C684 C683 1.392 . S
C684 C685 1.385 . S
C684 C686 1.478 . S
C685 H679 0.930 . S
C685 C681 1.400 . S
C685 C684 1.385 . S
C686 C684 1.478 . S
C686 C688 1.381 . S
C686 C692 1.383 . S
C687 C683 1.495 . S
C687 H693 0.959 . S
C687 H694 0.961 . S
C687 H695 0.960 . S
C688 C686 1.381 . S
C688 C689 1.394 . S
C688 H696 0.930 . S
C689 C688 1.394 . S
C689 C690 1.383 . S
C689 H697 0.929 . S
C690 C689 1.383 . S
C690 C691 1.377 . S
C691 H675 0.930 . S
C691 C690 1.377 . S
C691 C692 1.379 . S
C692 H676 0.931 . S
C692 C686 1.383 . S
C692 C691 1.379 . S
H693 C687 0.959 . S
H694 C687 0.961 . S
H695 C687 0.960 . S
H696 C688 0.930 . S
H697 C689 0.929 . S
H698 C706 0.929 . S
H699 C708 0.930 . S
H700 C710 0.930 . S
H701 C713 0.929 . S
H702 C716 0.930 . S
H703 C718 0.960 . S
H704 C718 0.960 . S
H705 C718 0.960 . S
C706 H698 0.929 . S
C706 C707 1.377 . S
C706 C708 1.384 . S
C707 C706 1.377 . S
C707 C713 1.390 . S
C708 H699 0.930 . S
C708 C706 1.384 . S
C708 C709 1.372 . S
C709 C708 1.372 . S
C709 C710 1.400 . S
C709 C714 1.490 . S
C710 H700 0.930 . S
C710 C709 1.400 . S
C710 C713 1.386 . S
H711 C727 0.930 . S
H712 C728 0.931 . S
C713 H701 0.929 . S
C713 C707 1.390 . S
C713 C710 1.386 . S
C714 C709 1.490 . S
C714 C716 1.395 . S
C714 C717 1.403 . S
H715 C721 0.930 . S
C716 H702 0.930 . S
C716 C714 1.395 . S
C716 C719 1.403 . S
C717 C714 1.403 . S
C717 C718 1.524 . S
C717 C721 1.400 . S
C718 H703 0.960 . S
C718 H704 0.960 . S
C718 H705 0.960 . S
C718 C717 1.524 . S
C719 C716 1.403 . S
C719 C720 1.392 . S
C719 C723 1.495 . S
C720 C719 1.392 . S
C720 C721 1.385 . S
C720 C722 1.478 . S
C721 H715 0.930 . S
C721 C717 1.400 . S
C721 C720 1.385 . S
C722 C720 1.478 . S
C722 C724 1.381 . S
C722 C728 1.383 . S
C723 C719 1.495 . S
C723 H729 0.959 . S
C723 H730 0.961 . S
C723 H731 0.960 . S
C724 C722 1.381 . S
C724 C725 1.394 . S
C724 H732 0.930 . S
C725 C724 1.394 . S
C725 C726 1.383 . S
C725 H733 0.929 . S
C726 C725 1.383 . S
C726 C727 1.377 . S
C727 H711 0.930 . S
C727 C726 1.377 . S
C727 C728 1.379 . S
C728 H712 0.931 . S
C728 C722 1.383 . S
C728 C727 1.379 . S
H729 C723 0.959 . S
H730 C723 0.961 . S
H731 C723 0.960 . S
H732 C724 0.930 . S
H733 C725 0.929 . S
H734 C742 0.929 . S
H735 C744 0.930 . S
H736 C746 0.930 . S
H737 C749 0.929 . S
H738 C752 0.930 . S
H739 C754 0.960 . S
H740 C754 0.960 . S
H741 C754 0.960 . S
C742 H734 0.929 . S
C742 C743 1.377 . S
C742 C744 1.384 . S
C743 C742 1.377 . S
C743 C749 1.390 . S
C744 H735 0.930 . S
C744 C742 1.384 . S
C744 C745 1.372 . S
C745 C744 1.372 . S
C745 C746 1.400 . S
C745 C750 1.490 . S
C746 H736 0.930 . S
C746 C745 1.400 . S
C746 C749 1.386 . S
H747 C763 0.930 . S
H748 C764 0.931 . S
C749 H737 0.929 . S
C749 C743 1.390 . S
C749 C746 1.386 . S
C750 C745 1.490 . S
C750 C752 1.395 . S
C750 C753 1.403 . S
H751 C757 0.930 . S
C752 H738 0.930 . S
C752 C750 1.395 . S
C752 C755 1.403 . S
C753 C750 1.403 . S
C753 C754 1.524 . S
C753 C757 1.400 . S
C754 H739 0.960 . S
C754 H740 0.960 . S
C754 H741 0.960 . S
C754 C753 1.524 . S
C755 C752 1.403 . S
C755 C756 1.392 . S
C755 C759 1.495 . S
C756 C755 1.392 . S
C756 C757 1.385 . S
C756 C758 1.478 . S
C757 H751 0.930 . S
C757 C753 1.400 . S
C757 C756 1.385 . S
C758 C756 1.478 . S
C758 C760 1.381 . S
C758 C764 1.383 . S
C759 C755 1.495 . S
C759 H765 0.959 . S
C759 H766 0.961 . S
C759 H767 0.960 . S
C760 C758 1.381 . S
C760 C761 1.394 . S
C760 H768 0.930 . S
C761 C760 1.394 . S
C761 C762 1.383 . S
C761 H769 0.929 . S
C762 C761 1.383 . S
C762 C763 1.377 . S
C763 H747 0.930 . S
C763 C762 1.377 . S
C763 C764 1.379 . S
C764 H748 0.931 . S
C764 C758 1.383 . S
C764 C763 1.379 . S
H765 C759 0.959 . S
H766 C759 0.961 . S
H767 C759 0.960 . S
H768 C760 0.930 . S
H769 C761 0.929 . S
H770 C778 0.929 . S
H771 C780 0.930 . S
H772 C782 0.930 . S
H773 C785 0.929 . S
H774 C788 0.930 . S
H775 C790 0.960 . S
H776 C790 0.960 . S
H777 C790 0.960 . S
C778 H770 0.929 . S
C778 C779 1.377 . S
C778 C780 1.384 . S
C779 C778 1.377 . S
C779 C785 1.390 . S
C780 H771 0.930 . S
C780 C778 1.384 . S
C780 C781 1.372 . S
C781 C780 1.372 . S
C781 C782 1.400 . S
C781 C786 1.490 . S
C782 H772 0.930 . S
C782 C781 1.400 . S
C782 C785 1.386 . S
H783 C799 0.930 . S
H784 C800 0.931 . S
C785 H773 0.929 . S
C785 C779 1.390 . S
C785 C782 1.386 . S
C786 C781 1.490 . S
C786 C788 1.395 . S
C786 C789 1.403 . S
H787 C793 0.930 . S
C788 H774 0.930 . S
C788 C786 1.395 . S
C788 C791 1.403 . S
C789 C786 1.403 . S
C789 C790 1.524 . S
C789 C793 1.400 . S
C790 H775 0.960 . S
C790 H776 0.960 . S
C790 H777 0.960 . S
C790 C789 1.524 . S
C791 C788 1.403 . S
C791 C792 1.392 . S
C791 C795 1.495 . S
C792 C791 1.392 . S
C792 C793 1.385 . S
C792 C794 1.478 . S
C793 H787 0.930 . S
C793 C789 1.400 . S
C793 C792 1.385 . S
C794 C792 1.478 . S
C794 C796 1.381 . S
C794 C800 1.383 . S
C795 C791 1.495 . S
C795 H801 0.959 . S
C795 H802 0.961 . S
C795 H803 0.960 . S
C796 C794 1.381 . S
C796 C797 1.394 . S
C796 H804 0.930 . S
C797 C796 1.394 . S
C797 C798 1.383 . S
C797 H805 0.929 . S
C798 C797 1.383 . S
C798 C799 1.377 . S
C799 H783 0.930 . S
C799 C798 1.377 . S
C799 C800 1.379 . S
C800 H784 0.931 . S
C800 C794 1.383 . S
C800 C799 1.379 . S
H801 C795 0.959 . S
H802 C795 0.961 . S
H803 C795 0.960 . S
H804 C796 0.930 . S
H805 C797 0.929 . S
H806 C814 0.929 . S
H807 C816 0.930 . S
H808 C818 0.930 . S
H809 C821 0.929 . S
H810 C824 0.930 . S
H811 C826 0.960 . S
H812 C826 0.960 . S
H813 C826 0.960 . S
C814 H806 0.929 . S
C814 C815 1.377 . S
C814 C816 1.384 . S
C815 C814 1.377 . S
C815 C821 1.390 . S
C816 H807 0.930 . S
C816 C814 1.384 . S
C816 C817 1.372 . S
C817 C816 1.372 . S
C817 C818 1.400 . S
C817 C822 1.490 . S
C818 H808 0.930 . S
C818 C817 1.400 . S
C818 C821 1.386 . S
H819 C835 0.930 . S
H820 C836 0.931 . S
C821 H809 0.929 . S
C821 C815 1.390 . S
C821 C818 1.386 . S
C822 C817 1.490 . S
C822 C824 1.395 . S
C822 C825 1.403 . S
H823 C829 0.930 . S
C824 H810 0.930 . S
C824 C822 1.395 . S
C824 C827 1.403 . S
C825 C822 1.403 . S
C825 C826 1.524 . S
C825 C829 1.400 . S
C826 H811 0.960 . S
C826 H812 0.960 . S
C826 H813 0.960 . S
C826 C825 1.524 . S
C827 C824 1.403 . S
C827 C828 1.392 . S
C827 C831 1.495 . S
C828 C827 1.392 . S
C828 C829 1.385 . S
C828 C830 1.478 . S
C829 H823 0.930 . S
C829 C825 1.400 . S
C829 C828 1.385 . S
C830 C828 1.478 . S
C830 C832 1.381 . S
C830 C836 1.383 . S
C831 C827 1.495 . S
C831 H837 0.959 . S
C831 H838 0.961 . S
C831 H839 0.960 . S
C832 C830 1.381 . S
C832 C833 1.394 . S
C832 H840 0.930 . S
C833 C832 1.394 . S
C833 C834 1.383 . S
C833 H841 0.929 . S
C834 C833 1.383 . S
C834 C835 1.377 . S
C835 H819 0.930 . S
C835 C834 1.377 . S
C835 C836 1.379 . S
C836 H820 0.931 . S
C836 C830 1.383 . S
C836 C835 1.379 . S
H837 C831 0.959 . S
H838 C831 0.961 . S
H839 C831 0.960 . S
H840 C832 0.930 . S
H841 C833 0.929 . S
H842 C850 0.929 . S
H843 C852 0.930 . S
H844 C854 0.930 . S
H845 C857 0.929 . S
H846 C860 0.930 . S
H847 C862 0.960 . S
H848 C862 0.960 . S
H849 C862 0.960 . S
C850 H842 0.929 . S
C850 C851 1.377 . S
C850 C852 1.384 . S
C851 C850 1.377 . S
C851 C857 1.390 . S
C852 H843 0.930 . S
C852 C850 1.384 . S
C852 C853 1.372 . S
C853 C852 1.372 . S
C853 C854 1.400 . S
C853 C858 1.490 . S
C854 H844 0.930 . S
C854 C853 1.400 . S
C854 C857 1.386 . S
H855 C871 0.930 . S
H856 C872 0.931 . S
C857 H845 0.929 . S
C857 C851 1.390 . S
C857 C854 1.386 . S
C858 C853 1.490 . S
C858 C860 1.395 . S
C858 C861 1.403 . S
H859 C865 0.930 . S
C860 H846 0.930 . S
C860 C858 1.395 . S
C860 C863 1.403 . S
C861 C858 1.403 . S
C861 C862 1.524 . S
C861 C865 1.400 . S
C862 H847 0.960 . S
C862 H848 0.960 . S
C862 H849 0.960 . S
C862 C861 1.524 . S
C863 C860 1.403 . S
C863 C864 1.392 . S
C863 C867 1.495 . S
C864 C863 1.392 . S
C864 C865 1.385 . S
C864 C866 1.478 . S
C865 H859 0.930 . S
C865 C861 1.400 . S
C865 C864 1.385 . S
C866 C864 1.478 . S
C866 C868 1.381 . S
C866 C872 1.383 . S
C867 C863 1.495 . S
C867 H873 0.959 . S
C867 H874 0.961 . S
C867 H875 0.960 . S
C868 C866 1.381 . S
C868 C869 1.394 . S
C868 H876 0.930 . S
C869 C868 1.394 . S
C869 C870 1.383 . S
C869 H877 0.929 . S
C870 C869 1.383 . S
C870 C871 1.377 . S
C871 H855 0.930 . S
C871 C870 1.377 . S
C871 C872 1.379 . S
C872 H856 0.931 . S
C872 C866 1.383 . S
C872 C871 1.379 . S
H873 C867 0.959 . S
H874 C867 0.961 . S
H875 C867 0.960 . S
H876 C868 0.930 . S
H877 C869 0.929 . S
H878 C886 0.929 . S
H879 C888 0.930 . S
H880 C890 0.930 . S
H881 C893 0.929 . S
H882 C896 0.930 . S
H883 C898 0.960 . S
H884 C898 0.960 . S
H885 C898 0.960 . S
C886 H878 0.929 . S
C886 C887 1.377 . S
C886 C888 1.384 . S
C887 C886 1.377 . S
C887 C893 1.390 . S
C888 H879 0.930 . S
C888 C886 1.384 . S
C888 C889 1.372 . S
C889 C888 1.372 . S
C889 C890 1.400 . S
C889 C894 1.490 . S
C890 H880 0.930 . S
C890 C889 1.400 . S
C890 C893 1.386 . S
H891 C907 0.930 . S
H892 C908 0.931 . S
C893 H881 0.929 . S
C893 C887 1.390 . S
C893 C890 1.386 . S
C894 C889 1.490 . S
C894 C896 1.395 . S
C894 C897 1.403 . S
H895 C901 0.930 . S
C896 H882 0.930 . S
C896 C894 1.395 . S
C896 C899 1.403 . S
C897 C894 1.403 . S
C897 C898 1.524 . S
C897 C901 1.400 . S
C898 H883 0.960 . S
C898 H884 0.960 . S
C898 H885 0.960 . S
C898 C897 1.524 . S
C899 C896 1.403 . S
C899 C900 1.392 . S
C899 C903 1.495 . S
C900 C899 1.392 . S
C900 C901 1.385 . S
C900 C902 1.478 . S
C901 H895 0.930 . S
C901 C897 1.400 . S
C901 C900 1.385 . S
C902 C900 1.478 . S
C902 C904 1.381 . S
C902 C908 1.383 . S
C903 C899 1.495 . S
C903 H909 0.959 . S
C903 H910 0.961 . S
C903 H911 0.960 . S
C904 C902 1.381 . S
C904 C905 1.394 . S
C904 H912 0.930 . S
C905 C904 1.394 . S
C905 C906 1.383 . S
C905 H913 0.929 . S
C906 C905 1.383 . S
C906 C907 1.377 . S
C907 H891 0.930 . S
C907 C906 1.377 . S
C907 C908 1.379 . S
C908 H892 0.931 . S
C908 C902 1.383 . S
C908 C907 1.379 . S
H909 C903 0.959 . S
H910 C903 0.961 . S
H911 C903 0.960 . S
H912 C904 0.930 . S
H913 C905 0.929 . S
H914 C922 0.929 . S
H915 C924 0.930 . S
H916 C926 0.930 . S
H917 C929 0.929 . S
H918 C932 0.930 . S
H919 C934 0.960 . S
H920 C934 0.960 . S
H921 C934 0.960 . S
C922 H914 0.929 . S
C922 C923 1.377 . S
C922 C924 1.384 . S
C923 C922 1.377 . S
C923 C929 1.390 . S
C924 H915 0.930 . S
C924 C922 1.384 . S
C924 C925 1.372 . S
C925 C924 1.372 . S
C925 C926 1.400 . S
C925 C930 1.490 . S
C926 H916 0.930 . S
C926 C925 1.400 . S
C926 C929 1.386 . S
H927 C943 0.930 . S
H928 C944 0.931 . S
C929 H917 0.929 . S
C929 C923 1.390 . S
C929 C926 1.386 . S
C930 C925 1.490 . S
C930 C932 1.395 . S
C930 C933 1.403 . S
H931 C937 0.930 . S
C932 H918 0.930 . S
C932 C930 1.395 . S
C932 C935 1.403 . S
C933 C930 1.403 . S
C933 C934 1.524 . S
C933 C937 1.400 . S
C934 H919 0.960 . S
C934 H920 0.960 . S
C934 H921 0.960 . S
C934 C933 1.524 . S
C935 C932 1.403 . S
C935 C936 1.392 . S
C935 C939 1.495 . S
C936 C935 1.392 . S
C936 C937 1.385 . S
C936 C938 1.478 . S
C937 H931 0.930 . S
C937 C933 1.400 . S
C937 C936 1.385 . S
C938 C936 1.478 . S
C938 C940 1.381 . S
C938 C944 1.383 . S
C939 C935 1.495 . S
C939 H945 0.959 . S
C939 H946 0.961 . S
C939 H947 0.960 . S
C940 C938 1.381 . S
C940 C941 1.394 . S
C940 H948 0.930 . S
C941 C940 1.394 . S
C941 C942 1.383 . S
C941 H949 0.929 . S
C942 C941 1.383 . S
C942 C943 1.377 . S
C943 H927 0.930 . S
C943 C942 1.377 . S
C943 C944 1.379 . S
C944 H928 0.931 . S
C944 C938 1.383 . S
C944 C943 1.379 . S
H945 C939 0.959 . S
H946 C939 0.961 . S
H947 C939 0.960 . S
H948 C940 0.930 . S
H949 C941 0.929 . S
H950 C958 0.929 . S
H951 C960 0.930 . S
H952 C962 0.930 . S
H953 C965 0.929 . S
H954 C968 0.930 . S
H955 C970 0.960 . S
H956 C970 0.960 . S
H957 C970 0.960 . S
C958 H950 0.929 . S
C958 C959 1.377 . S
C958 C960 1.384 . S
C959 C958 1.377 . S
C959 C965 1.390 . S
C960 H951 0.930 . S
C960 C958 1.384 . S
C960 C961 1.372 . S
C961 C960 1.372 . S
C961 C962 1.400 . S
C961 C966 1.490 . S
C962 H952 0.930 . S
C962 C961 1.400 . S
C962 C965 1.386 . S
H963 C979 0.930 . S
H964 C980 0.931 . S
C965 H953 0.929 . S
C965 C959 1.390 . S
C965 C962 1.386 . S
C966 C961 1.490 . S
C966 C968 1.395 . S
C966 C969 1.403 . S
H967 C973 0.930 . S
C968 H954 0.930 . S
C968 C966 1.395 . S
C968 C971 1.403 . S
C969 C966 1.403 . S
C969 C970 1.524 . S
C969 C973 1.400 . S
C970 H955 0.960 . S
C970 H956 0.960 . S
C970 H957 0.960 . S
C970 C969 1.524 . S
C971 C968 1.403 . S
C971 C972 1.392 . S
C971 C975 1.495 . S
C972 C971 1.392 . S
C972 C973 1.385 . S
C972 C974 1.478 . S
C973 H967 0.930 . S
C973 C969 1.400 . S
C973 C972 1.385 . S
C974 C972 1.478 . S
C974 C976 1.381 . S
C974 C980 1.383 . S
C975 C971 1.495 . S
C975 H981 0.959 . S
C975 H982 0.961 . S
C975 H983 0.960 . S
C976 C974 1.381 . S
C976 C977 1.394 . S
C976 H984 0.930 . S
C977 C976 1.394 . S
C977 C978 1.383 . S
C977 H985 0.929 . S
C978 C977 1.383 . S
C978 C979 1.377 . S
C979 H963 0.930 . S
C979 C978 1.377 . S
C979 C980 1.379 . S
C980 H964 0.931 . S
C980 C974 1.383 . S
C980 C979 1.379 . S
H981 C975 0.959 . S
H982 C975 0.961 . S
H983 C975 0.960 . S
H984 C976 0.930 . S
H985 C977 0.929 . S
H986 C994 0.929 . S
H987 C996 0.930 . S
H988 C998 0.930 . S
H989 C1001 0.929 . S
H990 C1004 0.930 . S
H991 C1006 0.960 . S
H992 C1006 0.960 . S
H993 C1006 0.960 . S
C994 H986 0.929 . S
C994 C995 1.377 . S
C994 C996 1.384 . S
C995 C994 1.377 . S
C995 C1001 1.390 . S
C996 H987 0.930 . S
C996 C994 1.384 . S
C996 C997 1.372 . S
C997 C996 1.372 . S
C997 C998 1.400 . S
C997 C1002 1.490 . S
C998 H988 0.930 . S
C998 C997 1.400 . S
C998 C1001 1.386 . S
H999 C1015 0.930 . S
H1000 C1016 0.931 . S
C1001 H989 0.929 . S
C1001 C995 1.390 . S
C1001 C998 1.386 . S
C1002 C997 1.490 . S
C1002 C1004 1.395 . S
C1002 C1005 1.403 . S
H1003 C1009 0.930 . S
C1004 H990 0.930 . S
C1004 C1002 1.395 . S
C1004 C1007 1.403 . S
C1005 C1002 1.403 . S
C1005 C1006 1.524 . S
C1005 C1009 1.400 . S
C1006 H991 0.960 . S
C1006 H992 0.960 . S
C1006 H993 0.960 . S
C1006 C1005 1.524 . S
C1007 C1004 1.403 . S
C1007 C1008 1.392 . S
C1007 C1011 1.495 1_556 S
C1008 C1007 1.392 . S
C1008 C1009 1.385 . S
C1008 C1010 1.478 . S
C1009 H1003 0.930 . S
C1009 C1005 1.400 . S
C1009 C1008 1.385 . S
C1010 C1008 1.478 . S
C1010 C1012 1.362 1_556 S
C1010 C1016 1.383 . S
C1011 C1007 1.495 1_554 S
C1011 H1017 0.959 . S
C1011 H1018 0.961 . S
C1011 H1019 0.960 . S
C1012 C1010 1.362 1_554 S
C1012 C1013 1.403 . S
C1012 H1020 0.941 . S
C1013 C1012 1.403 . S
C1013 C1014 1.380 1_554 S
C1013 H1021 0.929 . S
C1014 C1013 1.380 1_556 S
C1014 C1015 1.383 . S
C1015 H999 0.930 . S
C1015 C1014 1.383 . S
C1015 C1016 1.379 . S
C1016 H1000 0.931 . S
C1016 C1010 1.383 . S
C1016 C1015 1.379 . S
H1017 C1011 0.959 . S
H1018 C1011 0.961 . S
H1019 C1011 0.960 . S
H1020 C1012 0.941 . S
H1021 C1013 0.929 . S
H1022 C1030 0.929 . S
H1023 C1032 0.930 . S
H1024 C1034 0.930 . S
H1025 C1037 0.929 . S
H1026 C1040 0.930 . S
H1027 C1042 0.960 . S
H1028 C1042 0.960 . S
H1029 C1042 0.960 . S
C1030 H1022 0.929 . S
C1030 C1031 1.377 . S
C1030 C1032 1.384 . S
C1031 C1030 1.377 . S
C1031 C1037 1.390 . S
C1032 H1023 0.930 . S
C1032 C1030 1.384 . S
C1032 C1033 1.372 . S
C1033 C1032 1.372 . S
C1033 C1034 1.400 . S
C1033 C1038 1.490 . S
C1034 H1024 0.930 . S
C1034 C1033 1.400 . S
C1034 C1037 1.386 . S
H1035 C1051 0.930 . S
H1036 C1052 0.931 . S
C1037 H1025 0.929 . S
C1037 C1031 1.390 . S
C1037 C1034 1.386 . S
C1038 C1033 1.490 . S
C1038 C1040 1.395 . S
C1038 C1041 1.403 . S
H1039 C1045 0.930 . S
C1040 H1026 0.930 . S
C1040 C1038 1.395 . S
C1040 C1043 1.403 . S
C1041 C1038 1.403 . S
C1041 C1042 1.524 . S
C1041 C1045 1.400 . S
C1042 H1027 0.960 . S
C1042 H1028 0.960 . S
C1042 H1029 0.960 . S
C1042 C1041 1.524 . S
C1043 C1040 1.403 . S
C1043 C1044 1.392 . S
C1043 C1047 1.495 . S
C1044 C1043 1.392 . S
C1044 C1045 1.385 . S
C1044 C1046 1.478 . S
C1045 H1039 0.930 . S
C1045 C1041 1.400 . S
C1045 C1044 1.385 . S
C1046 C1044 1.478 . S
C1046 C1048 1.381 . S
C1046 C1052 1.383 . S
C1047 C1043 1.495 . S
C1047 H1053 0.959 . S
C1047 H1054 0.961 . S
C1047 H1055 0.960 . S
C1048 C1046 1.381 . S
C1048 C1049 1.394 . S
C1048 H1056 0.930 . S
C1049 C1048 1.394 . S
C1049 C1050 1.383 . S
C1049 H1057 0.929 . S
C1050 C1049 1.383 . S
C1050 C1051 1.377 . S
C1051 H1035 0.930 . S
C1051 C1050 1.377 . S
C1051 C1052 1.379 . S
C1052 H1036 0.931 . S
C1052 C1046 1.383 . S
C1052 C1051 1.379 . S
H1053 C1047 0.959 . S
H1054 C1047 0.961 . S
H1055 C1047 0.960 . S
H1056 C1048 0.930 . S
H1057 C1049 0.929 . S
H1058 C1066 0.929 . S
H1059 C1068 0.930 . S
H1060 C1070 0.930 . S
H1061 C1073 0.929 . S
H1062 C1076 0.930 . S
H1063 C1078 0.960 . S
H1064 C1078 0.960 . S
H1065 C1078 0.960 . S
C1066 H1058 0.929 . S
C1066 C1067 1.377 . S
C1066 C1068 1.384 . S
C1067 C1066 1.377 . S
C1067 C1073 1.390 . S
C1068 H1059 0.930 . S
C1068 C1066 1.384 . S
C1068 C1069 1.372 . S
C1069 C1068 1.372 . S
C1069 C1070 1.400 . S
C1069 C1074 1.490 . S
C1070 H1060 0.930 . S
C1070 C1069 1.400 . S
C1070 C1073 1.386 . S
H1071 C1087 0.930 . S
H1072 C1088 0.931 . S
C1073 H1061 0.929 . S
C1073 C1067 1.390 . S
C1073 C1070 1.386 . S
C1074 C1069 1.490 . S
C1074 C1076 1.395 . S
C1074 C1077 1.403 . S
H1075 C1081 0.930 . S
C1076 H1062 0.930 . S
C1076 C1074 1.395 . S
C1076 C1079 1.403 . S
C1077 C1074 1.403 . S
C1077 C1078 1.524 . S
C1077 C1081 1.400 . S
C1078 H1063 0.960 . S
C1078 H1064 0.960 . S
C1078 H1065 0.960 . S
C1078 C1077 1.524 . S
C1079 C1076 1.403 . S
C1079 C1080 1.392 . S
C1079 C1083 1.495 . S
C1080 C1079 1.392 . S
C1080 C1081 1.385 . S
C1080 C1082 1.478 . S
C1081 H1075 0.930 . S
C1081 C1077 1.400 . S
C1081 C1080 1.385 . S
C1082 C1080 1.478 . S
C1082 C1084 1.381 . S
C1082 C1088 1.383 1_556 S
C1083 C1079 1.495 . S
C1083 H1089 0.959 . S
C1083 H1090 0.961 1_556 S
C1083 H1091 0.960 . S
C1084 C1082 1.381 . S
C1084 C1085 1.394 . S
C1084 H1092 0.930 . S
C1085 C1084 1.394 . S
C1085 C1086 1.383 1_556 S
C1085 H1093 0.929 . S
C1086 C1085 1.383 1_554 S
C1086 C1087 1.377 . S
C1087 H1071 0.930 . S
C1087 C1086 1.377 . S
C1087 C1088 1.379 . S
C1088 H1072 0.931 . S
C1088 C1082 1.383 1_554 S
C1088 C1087 1.379 . S
H1089 C1083 0.959 . S
H1090 C1083 0.961 1_554 S
H1091 C1083 0.960 . S
H1092 C1084 0.930 . S
H1093 C1085 0.929 . S
H1094 C1102 0.929 . S
H1095 C1104 0.930 . S
H1096 C1106 0.930 . S
H1097 C1109 0.929 . S
H1098 C1112 0.930 . S
H1099 C1114 0.960 . S
H1100 C1114 0.960 . S
H1101 C1114 0.960 . S
C1102 H1094 0.929 . S
C1102 C1103 1.377 . S
C1102 C1104 1.384 . S
C1103 C1102 1.377 . S
C1103 C1109 1.390 . S
C1104 H1095 0.930 . S
C1104 C1102 1.384 . S
C1104 C1105 1.372 . S
C1105 C1104 1.372 . S
C1105 C1106 1.400 . S
C1105 C1110 1.490 . S
C1106 H1096 0.930 . S
C1106 C1105 1.400 . S
C1106 C1109 1.386 . S
H1107 C1123 0.930 . S
H1108 C1124 0.931 . S
C1109 H1097 0.929 . S
C1109 C1103 1.390 . S
C1109 C1106 1.386 . S
C1110 C1105 1.490 . S
C1110 C1112 1.395 . S
C1110 C1113 1.403 . S
H1111 C1117 0.930 . S
C1112 H1098 0.930 . S
C1112 C1110 1.395 . S
C1112 C1115 1.403 . S
C1113 C1110 1.403 . S
C1113 C1114 1.524 . S
C1113 C1117 1.400 . S
C1114 H1099 0.960 . S
C1114 H1100 0.960 . S
C1114 H1101 0.960 . S
C1114 C1113 1.524 . S
C1115 C1112 1.403 . S
C1115 C1116 1.392 . S
C1115 C1119 1.495 . S
C1116 C1115 1.392 . S
C1116 C1117 1.385 . S
C1116 C1118 1.478 . S
C1117 H1111 0.930 . S
C1117 C1113 1.400 . S
C1117 C1116 1.385 . S
C1118 C1116 1.478 . S
C1118 C1120 1.381 . S
C1118 C1124 1.383 . S
C1119 C1115 1.495 . S
C1119 H1125 0.959 . S
C1119 H1126 0.961 . S
C1119 H1127 0.960 . S
C1120 C1118 1.381 . S
C1120 C1121 1.394 . S
C1120 H1128 0.930 . S
C1121 C1120 1.394 . S
C1121 C1122 1.383 . S
C1121 H1129 0.929 . S
C1122 C1121 1.383 . S
C1122 C1123 1.377 . S
C1123 H1107 0.930 . S
C1123 C1122 1.377 . S
C1123 C1124 1.379 . S
C1124 H1108 0.931 . S
C1124 C1118 1.383 . S
C1124 C1123 1.379 . S
H1125 C1119 0.959 . S
H1126 C1119 0.961 . S
H1127 C1119 0.960 . S
H1128 C1120 0.930 . S
H1129 C1121 0.929 . S
H1130 C1138 0.929 . S
H1131 C1140 0.930 . S
H1132 C1142 0.930 . S
H1133 C1145 0.929 . S
H1134 C1148 0.930 . S
H1135 C1150 0.960 . S
H1136 C1150 0.960 . S
H1137 C1150 0.960 . S
C1138 H1130 0.929 . S
C1138 C1139 1.377 . S
C1138 C1140 1.384 . S
C1139 C1138 1.377 . S
C1139 C1145 1.390 . S
C1140 H1131 0.930 . S
C1140 C1138 1.384 . S
C1140 C1141 1.372 . S
C1141 C1140 1.372 . S
C1141 C1142 1.400 . S
C1141 C1146 1.490 . S
C1142 H1132 0.930 . S
C1142 C1141 1.400 . S
C1142 C1145 1.386 . S
H1143 C1159 0.930 . S
H1144 C1160 0.931 . S
C1145 H1133 0.929 . S
C1145 C1139 1.390 . S
C1145 C1142 1.386 . S
C1146 C1141 1.490 . S
C1146 C1148 1.395 . S
C1146 C1149 1.403 . S
H1147 C1153 0.930 . S
C1148 H1134 0.930 . S
C1148 C1146 1.395 . S
C1148 C1151 1.403 . S
C1149 C1146 1.403 . S
C1149 C1150 1.524 . S
C1149 C1153 1.400 . S
C1150 H1135 0.960 . S
C1150 H1136 0.960 . S
C1150 H1137 0.960 . S
C1150 C1149 1.524 . S
C1151 C1148 1.403 . S
C1151 C1152 1.392 . S
C1151 C1155 1.495 . S
C1152 C1151 1.392 . S
C1152 C1153 1.385 . S
C1152 C1154 1.478 . S
C1153 H1147 0.930 . S
C1153 C1149 1.400 . S
C1153 C1152 1.385 . S
C1154 C1152 1.478 . S
C1154 C1156 1.381 1_556 S
C1154 C1160 1.383 . S
C1155 C1151 1.495 . S
C1155 H1161 0.959 . S
C1155 H1162 0.961 . S
C1155 H1163 0.960 . S
C1156 C1154 1.381 1_554 S
C1156 C1157 1.394 . S
C1156 H1164 0.930 . S
C1157 C1156 1.394 . S
C1157 C1158 1.383 . S
C1157 H1165 0.929 . S
C1158 C1157 1.383 . S
C1158 C1159 1.377 1_554 S
C1159 H1143 0.930 . S
C1159 C1158 1.377 1_556 S
C1159 C1160 1.379 . S
C1160 H1144 0.931 . S
C1160 C1154 1.383 . S
C1160 C1159 1.379 . S
H1161 C1155 0.959 . S
H1162 C1155 0.961 . S
H1163 C1155 0.960 . S
H1164 C1156 0.930 . S
H1165 C1157 0.929 . S
H1166 C1174 0.929 . S
H1167 C1176 0.930 . S
H1168 C1178 0.930 . S
H1169 C1181 0.929 . S
H1170 C1184 0.930 . S
H1171 C1186 0.960 . S
H1172 C1186 0.960 . S
H1173 C1186 0.960 . S
C1174 H1166 0.929 . S
C1174 C1175 1.377 . S
C1174 C1176 1.384 . S
C1175 C1174 1.377 . S
C1175 C1181 1.390 . S
C1176 H1167 0.930 . S
C1176 C1174 1.384 . S
C1176 C1177 1.372 . S
C1177 C1176 1.372 . S
C1177 C1178 1.400 . S
C1177 C1182 1.490 . S
C1178 H1168 0.930 . S
C1178 C1177 1.400 . S
C1178 C1181 1.386 . S
H1179 C1195 0.930 . S
H1180 C1196 0.931 . S
C1181 H1169 0.929 . S
C1181 C1175 1.390 . S
C1181 C1178 1.386 . S
C1182 C1177 1.490 . S
C1182 C1184 1.395 . S
C1182 C1185 1.403 . S
H1183 C1189 0.930 . S
C1184 H1170 0.930 . S
C1184 C1182 1.395 . S
C1184 C1187 1.403 . S
C1185 C1182 1.403 . S
C1185 C1186 1.524 . S
C1185 C1189 1.400 . S
C1186 H1171 0.960 . S
C1186 H1172 0.960 . S
C1186 H1173 0.960 . S
C1186 C1185 1.524 . S
C1187 C1184 1.403 . S
C1187 C1188 1.392 . S
C1187 C1191 1.495 . S
C1188 C1187 1.392 . S
C1188 C1189 1.385 . S
C1188 C1190 1.478 . S
C1189 H1183 0.930 . S
C1189 C1185 1.400 . S
C1189 C1188 1.385 . S
C1190 C1188 1.478 . S
C1190 C1192 1.381 . S
C1190 C1196 1.383 . S
C1191 C1187 1.495 . S
C1191 H1197 0.959 . S
C1191 H1198 0.961 . S
C1191 H1199 0.960 . S
C1192 C1190 1.381 . S
C1192 C1193 1.394 . S
C1192 H1200 0.930 . S
C1193 C1192 1.394 . S
C1193 C1194 1.383 . S
C1193 H1201 0.929 . S
C1194 C1193 1.383 . S
C1194 C1195 1.377 . S
C1195 H1179 0.930 . S
C1195 C1194 1.377 . S
C1195 C1196 1.379 . S
C1196 H1180 0.931 . S
C1196 C1190 1.383 . S
C1196 C1195 1.379 . S
H1197 C1191 0.959 . S
H1198 C1191 0.961 . S
H1199 C1191 0.960 . S
H1200 C1192 0.930 . S
H1201 C1193 0.929 . S
H1202 C1210 0.929 . S
H1203 C1212 0.930 . S
H1204 C1214 0.930 . S
H1205 C1217 0.929 . S
H1206 C1220 0.930 . S
H1207 C1222 0.960 . S
H1208 C1222 0.960 . S
H1209 C1222 0.960 . S
C1210 H1202 0.929 . S
C1210 C1211 1.377 . S
C1210 C1212 1.384 . S
C1211 C1210 1.377 . S
C1211 C1217 1.390 . S
C1212 H1203 0.930 . S
C1212 C1210 1.384 . S
C1212 C1213 1.372 . S
C1213 C1212 1.372 . S
C1213 C1214 1.400 . S
C1213 C1218 1.490 . S
C1214 H1204 0.930 . S
C1214 C1213 1.400 . S
C1214 C1217 1.386 . S
H1215 C1231 0.930 . S
H1216 C1232 0.931 . S
C1217 H1205 0.929 . S
C1217 C1211 1.390 . S
C1217 C1214 1.386 . S
C1218 C1213 1.490 . S
C1218 C1220 1.395 . S
C1218 C1221 1.403 . S
H1219 C1225 0.930 . S
C1220 H1206 0.930 . S
C1220 C1218 1.395 . S
C1220 C1223 1.403 . S
C1221 C1218 1.403 . S
C1221 C1222 1.524 . S
C1221 C1225 1.400 . S
C1222 H1207 0.960 . S
C1222 H1208 0.960 . S
C1222 H1209 0.960 . S
C1222 C1221 1.524 . S
C1223 C1220 1.403 . S
C1223 C1224 1.392 . S
C1223 C1227 1.495 . S
C1224 C1223 1.392 . S
C1224 C1225 1.385 . S
C1224 C1226 1.478 . S
C1225 H1219 0.930 . S
C1225 C1221 1.400 . S
C1225 C1224 1.385 . S
C1226 C1224 1.478 . S
C1226 C1228 1.381 . S
C1226 C1232 1.383 . S
C1227 C1223 1.495 . S
C1227 H1233 0.959 . S
C1227 H1234 0.961 . S
C1227 H1235 0.960 . S
C1228 C1226 1.381 . S
C1228 C1229 1.394 . S
C1228 H1236 0.930 . S
C1229 C1228 1.394 . S
C1229 C1230 1.383 . S
C1229 H1237 0.929 1_556 S
C1230 C1229 1.383 . S
C1230 C1231 1.377 . S
C1231 H1215 0.930 . S
C1231 C1230 1.377 . S
C1231 C1232 1.379 . S
C1232 H1216 0.931 . S
C1232 C1226 1.383 . S
C1232 C1231 1.379 . S
H1233 C1227 0.959 . S
H1234 C1227 0.961 . S
H1235 C1227 0.960 . S
H1236 C1228 0.930 . S
H1237 C1229 0.929 1_554 S
H1238 C1246 0.929 . S
H1239 C1248 0.930 . S
H1240 C1250 0.930 . S
H1241 C1253 0.929 . S
H1242 C1256 0.930 . S
H1243 C1258 0.960 . S
H1244 C1258 0.960 . S
H1245 C1258 0.960 . S
C1246 H1238 0.929 . S
C1246 C1247 1.377 . S
C1246 C1248 1.384 . S
C1247 C1246 1.377 . S
C1247 C1253 1.390 . S
C1248 H1239 0.930 . S
C1248 C1246 1.384 . S
C1248 C1249 1.372 . S
C1249 C1248 1.372 . S
C1249 C1250 1.400 . S
C1249 C1254 1.490 . S
C1250 H1240 0.930 . S
C1250 C1249 1.400 . S
C1250 C1253 1.386 . S
H1251 C1267 0.930 . S
H1252 C1268 0.931 . S
C1253 H1241 0.929 . S
C1253 C1247 1.390 . S
C1253 C1250 1.386 . S
C1254 C1249 1.490 . S
C1254 C1256 1.395 . S
C1254 C1257 1.403 . S
H1255 C1261 0.930 . S
C1256 H1242 0.930 . S
C1256 C1254 1.395 . S
C1256 C1259 1.403 . S
C1257 C1254 1.403 . S
C1257 C1258 1.524 . S
C1257 C1261 1.400 . S
C1258 H1243 0.960 . S
C1258 H1244 0.960 . S
C1258 H1245 0.960 . S
C1258 C1257 1.524 . S
C1259 C1256 1.403 . S
C1259 C1260 1.392 . S
C1259 C1263 1.495 . S
C1260 C1259 1.392 . S
C1260 C1261 1.385 . S
C1260 C1262 1.478 . S
C1261 H1255 0.930 . S
C1261 C1257 1.400 . S
C1261 C1260 1.385 . S
C1262 C1260 1.478 . S
C1262 C1264 1.381 . S
C1262 C1268 1.383 . S
C1263 C1259 1.495 . S
C1263 H1269 0.959 . S
C1263 H1270 0.961 . S
C1263 H1271 0.960 . S
C1264 C1262 1.381 . S
C1264 C1265 1.394 . S
C1264 H1272 0.930 . S
C1265 C1264 1.394 . S
C1265 C1266 1.383 . S
C1265 H1273 0.929 . S
C1266 C1265 1.383 . S
C1266 C1267 1.377 . S
C1267 H1251 0.930 . S
C1267 C1266 1.377 . S
C1267 C1268 1.379 . S
C1268 H1252 0.931 . S
C1268 C1262 1.383 . S
C1268 C1267 1.379 . S
H1269 C1263 0.959 . S
H1270 C1263 0.961 . S
H1271 C1263 0.960 . S
H1272 C1264 0.930 . S
H1273 C1265 0.929 . S
H1274 C1282 0.929 . S
H1275 C1284 0.930 . S
H1276 C1286 0.930 . S
H1277 C1289 0.929 . S
H1278 C1292 0.930 . S
H1279 C1294 0.960 . S
H1280 C1294 0.960 . S
H1281 C1294 0.960 . S
C1282 H1274 0.929 . S
C1282 C1283 1.377 . S
C1282 C1284 1.384 . S
C1283 C1282 1.377 . S
C1283 C1289 1.390 . S
C1284 H1275 0.930 . S
C1284 C1282 1.384 . S
C1284 C1285 1.372 . S
C1285 C1284 1.372 . S
C1285 C1286 1.400 . S
C1285 C1290 1.490 . S
C1286 H1276 0.930 . S
C1286 C1285 1.400 . S
C1286 C1289 1.386 . S
H1287 C1303 0.930 . S
H1288 C1304 0.931 . S
C1289 H1277 0.929 . S
C1289 C1283 1.390 . S
C1289 C1286 1.386 . S
C1290 C1285 1.490 . S
C1290 C1292 1.395 . S
C1290 C1293 1.403 . S
H1291 C1297 0.930 . S
C1292 H1278 0.930 . S
C1292 C1290 1.395 . S
C1292 C1295 1.403 . S
C1293 C1290 1.403 . S
C1293 C1294 1.524 . S
C1293 C1297 1.400 . S
C1294 H1279 0.960 . S
C1294 H1280 0.960 . S
C1294 H1281 0.960 . S
C1294 C1293 1.524 . S
C1295 C1292 1.403 . S
C1295 C1296 1.392 . S
C1295 C1299 1.495 . S
C1296 C1295 1.392 . S
C1296 C1297 1.385 . S
C1296 C1298 1.478 . S
C1297 H1291 0.930 . S
C1297 C1293 1.400 . S
C1297 C1296 1.385 . S
C1298 C1296 1.478 . S
C1298 C1300 1.381 . S
C1298 C1304 1.383 . S
C1299 C1295 1.495 . S
C1299 H1305 0.959 . S
C1299 H1306 0.961 . S
C1299 H1307 0.960 . S
C1300 C1298 1.381 . S
C1300 C1301 1.394 . S
C1300 H1308 0.930 . S
C1301 C1300 1.394 . S
C1301 C1302 1.383 . S
C1301 H1309 0.929 . S
C1302 C1301 1.383 . S
C1302 C1303 1.377 . S
C1303 H1287 0.930 . S
C1303 C1302 1.377 . S
C1303 C1304 1.379 . S
C1304 H1288 0.931 . S
C1304 C1298 1.383 . S
C1304 C1303 1.379 . S
H1305 C1299 0.959 . S
H1306 C1299 0.961 . S
H1307 C1299 0.960 . S
H1308 C1300 0.930 . S
H1309 C1301 0.929 . S
H1310 C1318 0.929 . S
H1311 C1320 0.930 . S
H1312 C1322 0.930 . S
H1313 C1325 0.929 . S
H1314 C1328 0.930 . S
H1315 C1330 0.960 . S
H1316 C1330 0.960 . S
H1317 C1330 0.960 . S
C1318 H1310 0.929 . S
C1318 C1319 1.377 . S
C1318 C1320 1.384 . S
C1319 C1318 1.377 . S
C1319 C1325 1.390 . S
C1320 H1311 0.930 . S
C1320 C1318 1.384 . S
C1320 C1321 1.372 . S
C1321 C1320 1.372 . S
C1321 C1322 1.400 . S
C1321 C1326 1.490 . S
C1322 H1312 0.930 . S
C1322 C1321 1.400 . S
C1322 C1325 1.386 . S
H1323 C1339 0.930 . S
H1324 C1340 0.931 . S
C1325 H1313 0.929 . S
C1325 C1319 1.390 . S
C1325 C1322 1.386 . S
C1326 C1321 1.490 . S
C1326 C1328 1.395 . S
C1326 C1329 1.403 . S
H1327 C1333 0.930 . S
C1328 H1314 0.930 . S
C1328 C1326 1.395 . S
C1328 C1331 1.403 . S
C1329 C1326 1.403 . S
C1329 C1330 1.524 . S
C1329 C1333 1.400 . S
C1330 H1315 0.960 . S
C1330 H1316 0.960 . S
C1330 H1317 0.960 . S
C1330 C1329 1.524 . S
C1331 C1328 1.403 . S
C1331 C1332 1.392 . S
C1331 C1335 1.495 . S
C1332 C1331 1.392 . S
C1332 C1333 1.385 . S
C1332 C1334 1.478 . S
C1333 H1327 0.930 . S
C1333 C1329 1.400 . S
C1333 C1332 1.385 . S
C1334 C1332 1.478 . S
C1334 C1336 1.381 . S
C1334 C1340 1.383 . S
C1335 C1331 1.495 . S
C1335 H1341 0.959 . S
C1335 H1342 0.961 . S
C1335 H1343 0.960 . S
C1336 C1334 1.381 . S
C1336 C1337 1.394 . S
C1336 H1344 0.930 . S
C1337 C1336 1.394 . S
C1337 C1338 1.383 . S
C1337 H1345 0.929 . S
C1338 C1337 1.383 . S
C1338 C1339 1.377 . S
C1339 H1323 0.930 . S
C1339 C1338 1.377 . S
C1339 C1340 1.379 . S
C1340 H1324 0.931 . S
C1340 C1334 1.383 . S
C1340 C1339 1.379 . S
H1341 C1335 0.959 . S
H1342 C1335 0.961 . S
H1343 C1335 0.960 . S
H1344 C1336 0.930 . S
H1345 C1337 0.929 . S
H1346 C1354 0.929 . S
H1347 C1356 0.930 . S
H1348 C1358 0.930 . S
H1349 C1361 0.929 . S
H1350 C1364 0.930 . S
H1351 C1366 0.960 . S
H1352 C1366 0.960 . S
H1353 C1366 0.960 . S
C1354 H1346 0.929 . S
C1354 C1355 1.377 . S
C1354 C1356 1.384 . S
C1355 C1354 1.377 . S
C1355 C1361 1.390 . S
C1356 H1347 0.930 . S
C1356 C1354 1.384 . S
C1356 C1357 1.372 . S
C1357 C1356 1.372 . S
C1357 C1358 1.400 . S
C1357 C1362 1.490 . S
C1358 H1348 0.930 . S
C1358 C1357 1.400 . S
C1358 C1361 1.386 . S
H1359 C1375 0.930 . S
H1360 C1376 0.931 . S
C1361 H1349 0.929 . S
C1361 C1355 1.390 . S
C1361 C1358 1.386 . S
C1362 C1357 1.490 . S
C1362 C1364 1.395 . S
C1362 C1365 1.403 . S
H1363 C1369 0.930 . S
C1364 H1350 0.930 . S
C1364 C1362 1.395 . S
C1364 C1367 1.403 . S
C1365 C1362 1.403 . S
C1365 C1366 1.524 . S
C1365 C1369 1.400 . S
C1366 H1351 0.960 . S
C1366 H1352 0.960 . S
C1366 H1353 0.960 . S
C1366 C1365 1.524 . S
C1367 C1364 1.403 . S
C1367 C1368 1.392 . S
C1367 C1371 1.495 . S
C1368 C1367 1.392 . S
C1368 C1369 1.385 . S
C1368 C1370 1.478 . S
C1369 H1363 0.930 . S
C1369 C1365 1.400 . S
C1369 C1368 1.385 . S
C1370 C1368 1.478 . S
C1370 C1372 1.381 . S
C1370 C1376 1.383 . S
C1371 C1367 1.495 . S
C1371 H1377 0.959 . S
C1371 H1378 0.961 . S
C1371 H1379 0.960 . S
C1372 C1370 1.381 . S
C1372 C1373 1.394 . S
C1372 H1380 0.930 . S
C1373 C1372 1.394 . S
C1373 C1374 1.383 . S
C1373 H1381 0.929 . S
C1374 C1373 1.383 . S
C1374 C1375 1.377 . S
C1375 H1359 0.930 . S
C1375 C1374 1.377 . S
C1375 C1376 1.379 . S
C1376 H1360 0.931 . S
C1376 C1370 1.383 . S
C1376 C1375 1.379 . S
H1377 C1371 0.959 . S
H1378 C1371 0.961 . S
H1379 C1371 0.960 . S
H1380 C1372 0.930 . S
H1381 C1373 0.929 . S
H1382 C1390 0.929 . S
H1383 C1392 0.930 . S
H1384 C1394 0.930 . S
H1385 C1397 0.929 . S
H1386 C1400 0.930 . S
H1387 C1402 0.960 . S
H1388 C1402 0.960 . S
H1389 C1402 0.960 . S
C1390 H1382 0.929 . S
C1390 C1391 1.377 . S
C1390 C1392 1.384 . S
C1391 C1390 1.377 . S
C1391 C1397 1.390 . S
C1392 H1383 0.930 . S
C1392 C1390 1.384 . S
C1392 C1393 1.372 . S
C1393 C1392 1.372 . S
C1393 C1394 1.400 . S
C1393 C1398 1.490 . S
C1394 H1384 0.930 . S
C1394 C1393 1.400 . S
C1394 C1397 1.386 . S
H1395 C1411 0.930 . S
H1396 C1412 0.931 . S
C1397 H1385 0.929 . S
C1397 C1391 1.390 . S
C1397 C1394 1.386 . S
C1398 C1393 1.490 . S
C1398 C1400 1.395 . S
C1398 C1401 1.403 . S
H1399 C1405 0.930 . S
C1400 H1386 0.930 . S
C1400 C1398 1.395 . S
C1400 C1403 1.403 . S
C1401 C1398 1.403 . S
C1401 C1402 1.524 . S
C1401 C1405 1.400 . S
C1402 H1387 0.960 . S
C1402 H1388 0.960 . S
C1402 H1389 0.960 . S
C1402 C1401 1.524 . S
C1403 C1400 1.403 . S
C1403 C1404 1.392 . S
C1403 C1407 1.495 . S
C1404 C1403 1.392 . S
C1404 C1405 1.385 . S
C1404 C1406 1.478 . S
C1405 H1399 0.930 . S
C1405 C1401 1.400 . S
C1405 C1404 1.385 . S
C1406 C1404 1.478 . S
C1406 C1408 1.381 . S
C1406 C1412 1.383 . S
C1407 C1403 1.495 . S
C1407 H1413 0.959 . S
C1407 H1414 0.961 . S
C1407 H1415 0.960 . S
C1408 C1406 1.381 . S
C1408 C1409 1.394 . S
C1408 H1416 0.930 . S
C1409 C1408 1.394 . S
C1409 C1410 1.383 . S
C1409 H1417 0.929 . S
C1410 C1409 1.383 . S
C1410 C1411 1.377 . S
C1411 H1395 0.930 . S
C1411 C1410 1.377 . S
C1411 C1412 1.379 . S
C1412 H1396 0.931 . S
C1412 C1406 1.383 . S
C1412 C1411 1.379 . S
H1413 C1407 0.959 . S
H1414 C1407 0.961 . S
H1415 C1407 0.960 . S
H1416 C1408 0.930 . S
H1417 C1409 0.929 . S
H1418 C1426 0.929 . S
H1419 C1428 0.930 . S
H1420 C1430 0.930 . S
H1421 C1433 0.929 . S
H1422 C1436 0.930 . S
H1423 C1438 0.960 . S
H1424 C1438 0.960 . S
H1425 C1438 0.960 . S
C1426 H1418 0.929 . S
C1426 C1427 1.377 . S
C1426 C1428 1.384 . S
C1427 C1426 1.377 . S
C1427 C1433 1.390 . S
C1428 H1419 0.930 . S
C1428 C1426 1.384 . S
C1428 C1429 1.372 . S
C1429 C1428 1.372 . S
C1429 C1430 1.400 . S
C1429 C1434 1.490 . S
C1430 H1420 0.930 . S
C1430 C1429 1.400 . S
C1430 C1433 1.386 . S
H1431 C1447 0.930 . S
H1432 C1448 0.931 . S
C1433 H1421 0.929 . S
C1433 C1427 1.390 . S
C1433 C1430 1.386 . S
C1434 C1429 1.490 . S
C1434 C1436 1.395 . S
C1434 C1437 1.403 . S
H1435 C1441 0.930 . S
C1436 H1422 0.930 . S
C1436 C1434 1.395 . S
C1436 C1439 1.403 . S
C1437 C1434 1.403 . S
C1437 C1438 1.524 . S
C1437 C1441 1.400 . S
C1438 H1423 0.960 . S
C1438 H1424 0.960 . S
C1438 H1425 0.960 . S
C1438 C1437 1.524 . S
C1439 C1436 1.403 . S
C1439 C1440 1.392 . S
C1439 C1443 1.495 . S
C1440 C1439 1.392 . S
C1440 C1441 1.385 . S
C1440 C1442 1.478 . S
C1441 H1435 0.930 . S
C1441 C1437 1.400 . S
C1441 C1440 1.385 . S
C1442 C1440 1.478 . S
C1442 C1444 1.381 . S
C1442 C1448 1.383 . S
C1443 C1439 1.495 . S
C1443 H1449 0.959 . S
C1443 H1450 0.961 . S
C1443 H1451 0.960 . S
C1444 C1442 1.381 . S
C1444 C1445 1.394 . S
C1444 H1452 0.930 . S
C1445 C1444 1.394 . S
C1445 C1446 1.383 . S
C1445 H1453 0.929 . S
C1446 C1445 1.383 . S
C1446 C1447 1.377 . S
C1447 H1431 0.930 . S
C1447 C1446 1.377 . S
C1447 C1448 1.379 . S
C1448 H1432 0.931 . S
C1448 C1442 1.383 . S
C1448 C1447 1.379 . S
H1449 C1443 0.959 . S
H1450 C1443 0.961 . S
H1451 C1443 0.960 . S
H1452 C1444 0.930 . S
H1453 C1445 0.929 . S
H1454 C1462 0.929 . S
H1455 C1464 0.930 . S
H1456 C1466 0.930 . S
H1457 C1469 0.929 . S
H1458 C1472 0.930 . S
H1459 C1474 0.960 . S
H1460 C1474 0.960 . S
H1461 C1474 0.960 . S
C1462 H1454 0.929 . S
C1462 C1463 1.377 . S
C1462 C1464 1.384 . S
C1463 C1462 1.377 . S
C1463 C1469 1.390 . S
C1464 H1455 0.930 . S
C1464 C1462 1.384 . S
C1464 C1465 1.372 . S
C1465 C1464 1.372 . S
C1465 C1466 1.400 . S
C1465 C1470 1.490 . S
C1466 H1456 0.930 . S
C1466 C1465 1.400 . S
C1466 C1469 1.386 . S
H1467 C1483 0.932 1_554 S
H1468 C1484 0.931 . S
C1469 H1457 0.929 . S
C1469 C1463 1.390 . S
C1469 C1466 1.386 . S
C1470 C1465 1.490 . S
C1470 C1472 1.395 . S
C1470 C1473 1.403 . S
H1471 C1477 0.930 . S
C1472 H1458 0.930 . S
C1472 C1470 1.395 . S
C1472 C1475 1.403 . S
C1473 C1470 1.403 . S
C1473 C1474 1.524 . S
C1473 C1477 1.400 . S
C1474 H1459 0.960 . S
C1474 H1460 0.960 . S
C1474 H1461 0.960 . S
C1474 C1473 1.524 . S
C1475 C1472 1.403 . S
C1475 C1476 1.392 . S
C1475 C1479 1.495 . S
C1476 C1475 1.392 . S
C1476 C1477 1.385 . S
C1476 C1478 1.478 . S
C1477 H1471 0.930 . S
C1477 C1473 1.400 . S
C1477 C1476 1.385 . S
C1478 C1476 1.478 . S
C1478 C1480 1.381 . S
C1478 C1484 1.383 . S
C1479 C1475 1.495 . S
C1479 H1485 0.959 . S
C1479 H1486 0.961 . S
C1479 H1487 0.960 . S
C1480 C1478 1.381 . S
C1480 C1481 1.394 . S
C1480 H1488 0.930 . S
C1481 C1480 1.394 . S
C1481 C1482 1.383 . S
C1481 H1489 0.929 . S
C1482 C1481 1.383 . S
C1482 C1483 1.377 . S
C1483 H1467 0.932 1_556 S
C1483 C1482 1.377 . S
C1483 C1484 1.379 . S
C1484 H1468 0.931 . S
C1484 C1478 1.383 . S
C1484 C1483 1.379 . S
H1485 C1479 0.959 . S
H1486 C1479 0.961 . S
H1487 C1479 0.960 . S
H1488 C1480 0.930 . S
H1489 C1481 0.929 . S
H1490 C1498 0.929 . S
H1491 C1500 0.930 . S
H1492 C1502 0.930 . S
H1493 C1505 0.929 . S
H1494 C1508 0.930 . S
H1495 C1510 0.960 . S
H1496 C1510 0.960 . S
H1497 C1510 0.960 . S
C1498 H1490 0.929 . S
C1498 C1499 1.377 . S
C1498 C1500 1.384 . S
C1499 C1498 1.377 . S
C1499 C1505 1.390 . S
C1500 H1491 0.930 . S
C1500 C1498 1.384 . S
C1500 C1501 1.372 . S
C1501 C1500 1.372 . S
C1501 C1502 1.400 . S
C1501 C1506 1.490 . S
C1502 H1492 0.930 . S
C1502 C1501 1.400 . S
C1502 C1505 1.386 . S
H1503 C1519 0.930 1_554 S
H1504 C1520 0.931 . S
C1505 H1493 0.929 . S
C1505 C1499 1.390 . S
C1505 C1502 1.386 . S
C1506 C1501 1.490 . S
C1506 C1508 1.395 . S
C1506 C1509 1.403 . S
H1507 C1513 0.930 . S
C1508 H1494 0.930 . S
C1508 C1506 1.395 . S
C1508 C1511 1.403 . S
C1509 C1506 1.403 . S
C1509 C1510 1.524 . S
C1509 C1513 1.400 . S
C1510 H1495 0.960 . S
C1510 H1496 0.960 . S
C1510 H1497 0.960 . S
C1510 C1509 1.524 . S
C1511 C1508 1.403 . S
C1511 C1512 1.392 . S
C1511 C1515 1.495 . S
C1512 C1511 1.392 . S
C1512 C1513 1.385 . S
C1512 C1514 1.478 . S
C1513 H1507 0.930 . S
C1513 C1509 1.400 . S
C1513 C1512 1.385 . S
C1514 C1512 1.478 . S
C1514 C1516 1.381 . S
C1514 C1520 1.383 . S
C1515 C1511 1.495 . S
C1515 H1521 0.959 . S
C1515 H1522 0.961 . S
C1515 H1523 0.960 . S
C1516 C1514 1.381 . S
C1516 C1517 1.394 . S
C1516 H1524 0.930 . S
C1517 C1516 1.394 . S
C1517 C1518 1.383 . S
C1517 H1525 0.929 . S
C1518 C1517 1.383 . S
C1518 C1519 1.377 . S
C1519 H1503 0.930 1_556 S
C1519 C1518 1.377 . S
C1519 C1520 1.379 . S
C1520 H1504 0.931 . S
C1520 C1514 1.383 . S
C1520 C1519 1.379 . S
H1521 C1515 0.959 . S
H1522 C1515 0.961 . S
H1523 C1515 0.960 . S
H1524 C1516 0.930 . S
H1525 C1517 0.929 . S
H1526 C1534 0.929 . S
H1527 C1536 0.930 . S
H1528 C1538 0.930 . S
H1529 C1541 0.929 . S
H1530 C1544 0.930 . S
H1531 C1546 0.960 . S
H1532 C1546 0.960 . S
H1533 C1546 0.960 . S
C1534 H1526 0.929 . S
C1534 C1535 1.377 . S
C1534 C1536 1.384 . S
C1535 C1534 1.377 . S
C1535 C1541 1.390 . S
C1536 H1527 0.930 . S
C1536 C1534 1.384 . S
C1536 C1537 1.372 . S
C1537 C1536 1.372 . S
C1537 C1538 1.400 . S
C1537 C1542 1.490 . S
C1538 H1528 0.930 . S
C1538 C1537 1.400 . S
C1538 C1541 1.386 . S
H1539 C1555 0.930 . S
H1540 C1556 0.931 . S
C1541 H1529 0.929 . S
C1541 C1535 1.390 . S
C1541 C1538 1.386 . S
C1542 C1537 1.490 . S
C1542 C1544 1.395 . S
C1542 C1545 1.403 . S
H1543 C1549 0.930 . S
C1544 H1530 0.930 . S
C1544 C1542 1.395 . S
C1544 C1547 1.403 . S
C1545 C1542 1.403 . S
C1545 C1546 1.524 . S
C1545 C1549 1.400 . S
C1546 H1531 0.960 . S
C1546 H1532 0.960 . S
C1546 H1533 0.960 . S
C1546 C1545 1.524 . S
C1547 C1544 1.403 . S
C1547 C1548 1.392 . S
C1547 C1551 1.495 . S
C1548 C1547 1.392 . S
C1548 C1549 1.385 . S
C1548 C1550 1.478 . S
C1549 H1543 0.930 . S
C1549 C1545 1.400 . S
C1549 C1548 1.385 . S
C1550 C1548 1.478 . S
C1550 C1552 1.381 . S
C1550 C1556 1.383 . S
C1551 C1547 1.495 . S
C1551 H1557 0.959 . S
C1551 H1558 0.961 . S
C1551 H1559 0.960 . S
C1552 C1550 1.381 . S
C1552 C1553 1.394 . S
C1552 H1560 0.930 . S
C1553 C1552 1.394 . S
C1553 C1554 1.383 . S
C1553 H1561 0.929 . S
C1554 C1553 1.383 . S
C1554 C1555 1.377 . S
C1555 H1539 0.930 . S
C1555 C1554 1.377 . S
C1555 C1556 1.379 . S
C1556 H1540 0.931 . S
C1556 C1550 1.383 . S
C1556 C1555 1.379 . S
H1557 C1551 0.959 . S
H1558 C1551 0.961 . S
H1559 C1551 0.960 . S
H1560 C1552 0.930 . S
H1561 C1553 0.929 . S
H1562 C1570 0.929 . S
H1563 C1572 0.930 . S
H1564 C1574 0.930 . S
H1565 C1577 0.929 . S
H1566 C1580 0.930 . S
H1567 C1582 0.960 . S
H1568 C1582 0.960 . S
H1569 C1582 0.960 . S
C1570 H1562 0.929 . S
C1570 C1571 1.377 . S
C1570 C1572 1.384 . S
C1571 C1570 1.377 . S
C1571 C1577 1.390 . S
C1572 H1563 0.930 . S
C1572 C1570 1.384 . S
C1572 C1573 1.372 . S
C1573 C1572 1.372 . S
C1573 C1574 1.400 . S
C1573 C1578 1.490 . S
C1574 H1564 0.930 . S
C1574 C1573 1.400 . S
C1574 C1577 1.386 . S
H1575 C1591 0.930 . S
H1576 C1592 0.931 . S
C1577 H1565 0.929 . S
C1577 C1571 1.390 . S
C1577 C1574 1.386 . S
C1578 C1573 1.490 . S
C1578 C1580 1.395 . S
C1578 C1581 1.403 . S
H1579 C1585 0.930 . S
C1580 H1566 0.930 . S
C1580 C1578 1.395 . S
C1580 C1583 1.403 . S
C1581 C1578 1.403 . S
C1581 C1582 1.524 . S
C1581 C1585 1.400 . S
C1582 H1567 0.960 . S
C1582 H1568 0.960 . S
C1582 H1569 0.960 . S
C1582 C1581 1.524 . S
C1583 C1580 1.403 . S
C1583 C1584 1.392 . S
C1583 C1587 1.495 . S
C1584 C1583 1.392 . S
C1584 C1585 1.385 . S
C1584 C1586 1.478 . S
C1585 H1579 0.930 . S
C1585 C1581 1.400 . S
C1585 C1584 1.385 . S
C1586 C1584 1.478 . S
C1586 C1588 1.381 . S
C1586 C1592 1.383 . S
C1587 C1583 1.495 . S
C1587 H1593 0.959 . S
C1587 H1594 0.961 . S
C1587 H1595 0.960 . S
C1588 C1586 1.381 . S
C1588 C1589 1.394 . S
C1588 H1596 0.930 . S
C1589 C1588 1.394 . S
C1589 C1590 1.383 . S
C1589 H1597 0.929 . S
C1590 C1589 1.383 . S
C1590 C1591 1.377 . S
C1591 H1575 0.930 . S
C1591 C1590 1.377 . S
C1591 C1592 1.379 . S
C1592 H1576 0.931 . S
C1592 C1586 1.383 . S
C1592 C1591 1.379 . S
H1593 C1587 0.959 . S
H1594 C1587 0.961 . S
H1595 C1587 0.960 . S
H1596 C1588 0.930 . S
H1597 C1589 0.929 . S
H1598 C1606 0.929 . S
H1599 C1608 0.930 . S
H1600 C1610 0.930 . S
H1601 C1613 0.929 . S
H1602 C1616 0.930 . S
H1603 C1618 0.960 . S
H1604 C1618 0.960 . S
H1605 C1618 0.960 . S
C1606 H1598 0.929 . S
C1606 C1607 1.377 . S
C1606 C1608 1.384 . S
C1607 C1606 1.377 . S
C1607 C1613 1.390 . S
C1608 H1599 0.930 . S
C1608 C1606 1.384 . S
C1608 C1609 1.372 . S
C1609 C1608 1.372 . S
C1609 C1610 1.400 . S
C1609 C1614 1.490 . S
C1610 H1600 0.930 . S
C1610 C1609 1.400 . S
C1610 C1613 1.386 . S
H1611 C1627 0.930 . S
H1612 C1628 0.931 . S
C1613 H1601 0.929 . S
C1613 C1607 1.390 . S
C1613 C1610 1.386 . S
C1614 C1609 1.490 . S
C1614 C1616 1.395 . S
C1614 C1617 1.403 . S
H1615 C1621 0.930 . S
C1616 H1602 0.930 . S
C1616 C1614 1.395 . S
C1616 C1619 1.403 . S
C1617 C1614 1.403 . S
C1617 C1618 1.524 . S
C1617 C1621 1.400 . S
C1618 H1603 0.960 . S
C1618 H1604 0.960 . S
C1618 H1605 0.960 . S
C1618 C1617 1.524 . S
C1619 C1616 1.403 . S
C1619 C1620 1.392 . S
C1619 C1623 1.495 . S
C1620 C1619 1.392 . S
C1620 C1621 1.385 . S
C1620 C1622 1.478 . S
C1621 H1615 0.930 . S
C1621 C1617 1.400 . S
C1621 C1620 1.385 . S
C1622 C1620 1.478 . S
C1622 C1624 1.381 . S
C1622 C1628 1.383 . S
C1623 C1619 1.495 . S
C1623 H1629 0.959 . S
C1623 H1630 0.961 . S
C1623 H1631 0.960 . S
C1624 C1622 1.381 . S
C1624 C1625 1.394 . S
C1624 H1632 0.930 . S
C1625 C1624 1.394 . S
C1625 C1626 1.383 . S
C1625 H1633 0.929 . S
C1626 C1625 1.383 . S
C1626 C1627 1.377 . S
C1627 H1611 0.930 . S
C1627 C1626 1.377 . S
C1627 C1628 1.379 . S
C1628 H1612 0.931 . S
C1628 C1622 1.383 . S
C1628 C1627 1.379 . S
H1629 C1623 0.959 . S
H1630 C1623 0.961 . S
H1631 C1623 0.960 . S
H1632 C1624 0.930 . S
H1633 C1625 0.929 . S
H1634 C1642 0.929 . S
H1635 C1644 0.930 . S
H1636 C1646 0.930 . S
H1637 C1649 0.929 . S
H1638 C1652 0.930 . S
H1639 C1654 0.960 . S
H1640 C1654 0.960 . S
H1641 C1654 0.960 . S
C1642 H1634 0.929 . S
C1642 C1643 1.377 . S
C1642 C1644 1.384 . S
C1643 C1642 1.377 . S
C1643 C1649 1.390 . S
C1644 H1635 0.930 . S
C1644 C1642 1.384 . S
C1644 C1645 1.372 . S
C1645 C1644 1.372 . S
C1645 C1646 1.400 . S
C1645 C1650 1.490 . S
C1646 H1636 0.930 . S
C1646 C1645 1.400 . S
C1646 C1649 1.386 . S
H1647 C1663 0.930 . S
H1648 C1664 0.931 . S
C1649 H1637 0.929 . S
C1649 C1643 1.390 . S
C1649 C1646 1.386 . S
C1650 C1645 1.490 . S
C1650 C1652 1.395 . S
C1650 C1653 1.403 . S
H1651 C1657 0.930 . S
C1652 H1638 0.930 . S
C1652 C1650 1.395 . S
C1652 C1655 1.403 . S
C1653 C1650 1.403 . S
C1653 C1654 1.524 . S
C1653 C1657 1.400 . S
C1654 H1639 0.960 . S
C1654 H1640 0.960 . S
C1654 H1641 0.960 . S
C1654 C1653 1.524 . S
C1655 C1652 1.403 . S
C1655 C1656 1.392 . S
C1655 C1659 1.495 . S
C1656 C1655 1.392 . S
C1656 C1657 1.385 . S
C1656 C1658 1.478 . S
C1657 H1651 0.930 . S
C1657 C1653 1.400 . S
C1657 C1656 1.385 . S
C1658 C1656 1.478 . S
C1658 C1660 1.381 . S
C1658 C1664 1.383 . S
C1659 C1655 1.495 . S
C1659 H1665 0.959 . S
C1659 H1666 0.961 . S
C1659 H1667 0.960 . S
C1660 C1658 1.381 . S
C1660 C1661 1.394 . S
C1660 H1668 0.930 . S
C1661 C1660 1.394 . S
C1661 C1662 1.383 . S
C1661 H1669 0.929 . S
C1662 C1661 1.383 . S
C1662 C1663 1.377 . S
C1663 H1647 0.930 . S
C1663 C1662 1.377 . S
C1663 C1664 1.379 . S
C1664 H1648 0.931 . S
C1664 C1658 1.383 . S
C1664 C1663 1.379 . S
H1665 C1659 0.959 . S
H1666 C1659 0.961 . S
H1667 C1659 0.960 . S
H1668 C1660 0.930 . S
H1669 C1661 0.929 . S
H1670 C1678 0.929 . S
H1671 C1680 0.930 . S
H1672 C1682 0.930 . S
H1673 C1685 0.929 . S
H1674 C1688 0.930 . S
H1675 C1690 0.960 . S
H1676 C1690 0.960 . S
H1677 C1690 0.960 . S
C1678 H1670 0.929 . S
C1678 C1679 1.377 . S
C1678 C1680 1.384 . S
C1679 C1678 1.377 . S
C1679 C1685 1.390 . S
C1680 H1671 0.930 . S
C1680 C1678 1.384 . S
C1680 C1681 1.372 . S
C1681 C1680 1.372 . S
C1681 C1682 1.400 . S
C1681 C1686 1.490 . S
C1682 H1672 0.930 . S
C1682 C1681 1.400 . S
C1682 C1685 1.386 . S
H1683 C1699 0.930 . S
H1684 C1700 0.931 . S
C1685 H1673 0.929 . S
C1685 C1679 1.390 . S
C1685 C1682 1.386 . S
C1686 C1681 1.490 . S
C1686 C1688 1.395 . S
C1686 C1689 1.403 . S
H1687 C1693 0.930 . S
C1688 H1674 0.930 . S
C1688 C1686 1.395 . S
C1688 C1691 1.403 . S
C1689 C1686 1.403 . S
C1689 C1690 1.524 . S
C1689 C1693 1.400 . S
C1690 H1675 0.960 . S
C1690 H1676 0.960 . S
C1690 H1677 0.960 . S
C1690 C1689 1.524 . S
C1691 C1688 1.403 . S
C1691 C1692 1.392 . S
C1691 C1695 1.495 . S
C1692 C1691 1.392 . S
C1692 C1693 1.385 . S
C1692 C1694 1.478 . S
C1693 H1687 0.930 . S
C1693 C1689 1.400 . S
C1693 C1692 1.385 . S
C1694 C1692 1.478 . S
C1694 C1696 1.381 . S
C1694 C1700 1.383 . S
C1695 C1691 1.495 . S
C1695 H1701 0.959 . S
C1695 H1702 0.961 . S
C1695 H1703 0.960 . S
C1696 C1694 1.381 . S
C1696 C1697 1.394 . S
C1696 H1704 0.930 . S
C1697 C1696 1.394 . S
C1697 C1698 1.383 . S
C1697 H1705 0.929 . S
C1698 C1697 1.383 . S
C1698 C1699 1.377 . S
C1699 H1683 0.930 . S
C1699 C1698 1.377 . S
C1699 C1700 1.379 . S
C1700 H1684 0.931 . S
C1700 C1694 1.383 . S
C1700 C1699 1.379 . S
H1701 C1695 0.959 . S
H1702 C1695 0.961 . S
H1703 C1695 0.960 . S
H1704 C1696 0.930 . S
H1705 C1697 0.929 . S
H1706 C1714 0.929 . S
H1707 C1716 0.930 . S
H1708 C1718 0.930 . S
H1709 C1721 0.929 . S
H1710 C1724 0.930 . S
H1711 C1726 0.960 . S
H1712 C1726 0.960 . S
H1713 C1726 0.960 . S
C1714 H1706 0.929 . S
C1714 C1715 1.377 . S
C1714 C1716 1.384 . S
C1715 C1714 1.377 . S
C1715 C1721 1.390 . S
C1716 H1707 0.930 . S
C1716 C1714 1.384 . S
C1716 C1717 1.372 . S
C1717 C1716 1.372 . S
C1717 C1718 1.400 . S
C1717 C1722 1.490 . S
C1718 H1708 0.930 . S
C1718 C1717 1.400 . S
C1718 C1721 1.386 . S
H1719 C1735 0.930 . S
H1720 C1736 0.931 . S
C1721 H1709 0.929 . S
C1721 C1715 1.390 . S
C1721 C1718 1.386 . S
C1722 C1717 1.490 . S
C1722 C1724 1.395 . S
C1722 C1725 1.403 . S
H1723 C1729 0.930 . S
C1724 H1710 0.930 . S
C1724 C1722 1.395 . S
C1724 C1727 1.403 . S
C1725 C1722 1.403 . S
C1725 C1726 1.524 . S
C1725 C1729 1.400 . S
C1726 H1711 0.960 . S
C1726 H1712 0.960 . S
C1726 H1713 0.960 . S
C1726 C1725 1.524 . S
C1727 C1724 1.403 . S
C1727 C1728 1.392 . S
C1727 C1731 1.495 . S
C1728 C1727 1.392 . S
C1728 C1729 1.385 . S
C1728 C1730 1.478 . S
C1729 H1723 0.930 . S
C1729 C1725 1.400 . S
C1729 C1728 1.385 . S
C1730 C1728 1.478 . S
C1730 C1732 1.381 . S
C1730 C1736 1.383 . S
C1731 C1727 1.495 . S
C1731 H1737 0.959 . S
C1731 H1738 0.961 . S
C1731 H1739 0.960 . S
C1732 C1730 1.381 . S
C1732 C1733 1.394 . S
C1732 H1740 0.930 . S
C1733 C1732 1.394 . S
C1733 C1734 1.383 . S
C1733 H1741 0.929 . S
C1734 C1733 1.383 . S
C1734 C1735 1.377 . S
C1735 H1719 0.930 . S
C1735 C1734 1.377 . S
C1735 C1736 1.379 . S
C1736 H1720 0.931 . S
C1736 C1730 1.383 . S
C1736 C1735 1.379 . S
H1737 C1731 0.959 . S
H1738 C1731 0.961 . S
H1739 C1731 0.960 . S
H1740 C1732 0.930 . S
H1741 C1733 0.929 . S
H1742 C1750 0.929 . S
H1743 C1752 0.930 . S
H1744 C1754 0.930 . S
H1745 C1757 0.929 . S
H1746 C1760 0.930 . S
H1747 C1762 0.960 . S
H1748 C1762 0.960 . S
H1749 C1762 0.960 . S
C1750 H1742 0.929 . S
C1750 C1751 1.377 . S
C1750 C1752 1.384 . S
C1751 C1750 1.377 . S
C1751 C1757 1.390 . S
C1752 H1743 0.930 . S
C1752 C1750 1.384 . S
C1752 C1753 1.372 . S
C1753 C1752 1.372 . S
C1753 C1754 1.400 . S
C1753 C1758 1.490 . S
C1754 H1744 0.930 . S
C1754 C1753 1.400 . S
C1754 C1757 1.386 . S
H1755 C1771 0.930 . S
H1756 C1772 0.931 . S
C1757 H1745 0.929 . S
C1757 C1751 1.390 . S
C1757 C1754 1.386 . S
C1758 C1753 1.490 . S
C1758 C1760 1.395 . S
C1758 C1761 1.403 . S
H1759 C1765 0.930 . S
C1760 H1746 0.930 . S
C1760 C1758 1.395 . S
C1760 C1763 1.403 . S
C1761 C1758 1.403 . S
C1761 C1762 1.524 . S
C1761 C1765 1.400 . S
C1762 H1747 0.960 . S
C1762 H1748 0.960 . S
C1762 H1749 0.960 . S
C1762 C1761 1.524 . S
C1763 C1760 1.403 . S
C1763 C1764 1.392 . S
C1763 C1767 1.495 . S
C1764 C1763 1.392 . S
C1764 C1765 1.385 . S
C1764 C1766 1.478 . S
C1765 H1759 0.930 . S
C1765 C1761 1.400 . S
C1765 C1764 1.385 . S
C1766 C1764 1.478 . S
C1766 C1768 1.381 . S
C1766 C1772 1.383 . S
C1767 C1763 1.495 . S
C1767 H1773 0.959 . S
C1767 H1774 0.961 . S
C1767 H1775 0.960 . S
C1768 C1766 1.381 . S
C1768 C1769 1.394 . S
C1768 H1776 0.930 . S
C1769 C1768 1.394 . S
C1769 C1770 1.383 . S
C1769 H1777 0.929 . S
C1770 C1769 1.383 . S
C1770 C1771 1.377 . S
C1771 H1755 0.930 . S
C1771 C1770 1.377 . S
C1771 C1772 1.379 . S
C1772 H1756 0.931 . S
C1772 C1766 1.383 . S
C1772 C1771 1.379 . S
H1773 C1767 0.959 . S
H1774 C1767 0.961 . S
H1775 C1767 0.960 . S
H1776 C1768 0.930 . S
H1777 C1769 0.929 . S
H1778 C1786 0.929 . S
H1779 C1788 0.930 . S
H1780 C1790 0.930 . S
H1781 C1793 0.929 . S
H1782 C1796 0.930 . S
H1783 C1798 0.960 . S
H1784 C1798 0.960 . S
H1785 C1798 0.960 . S
C1786 H1778 0.929 . S
C1786 C1787 1.377 . S
C1786 C1788 1.384 . S
C1787 C1786 1.377 . S
C1787 C1793 1.390 . S
C1788 H1779 0.930 . S
C1788 C1786 1.384 . S
C1788 C1789 1.372 . S
C1789 C1788 1.372 . S
C1789 C1790 1.400 . S
C1789 C1794 1.490 . S
C1790 H1780 0.930 . S
C1790 C1789 1.400 . S
C1790 C1793 1.386 . S
H1791 C1807 0.930 . S
H1792 C1808 0.931 . S
C1793 H1781 0.929 . S
C1793 C1787 1.390 . S
C1793 C1790 1.386 . S
C1794 C1789 1.490 . S
C1794 C1796 1.395 . S
C1794 C1797 1.403 . S
H1795 C1801 0.930 . S
C1796 H1782 0.930 . S
C1796 C1794 1.395 . S
C1796 C1799 1.403 . S
C1797 C1794 1.403 . S
C1797 C1798 1.524 . S
C1797 C1801 1.400 . S
C1798 H1783 0.960 . S
C1798 H1784 0.960 . S
C1798 H1785 0.960 . S
C1798 C1797 1.524 . S
C1799 C1796 1.403 . S
C1799 C1800 1.392 . S
C1799 C1803 1.495 . S
C1800 C1799 1.392 . S
C1800 C1801 1.385 . S
C1800 C1802 1.478 . S
C1801 H1795 0.930 . S
C1801 C1797 1.400 . S
C1801 C1800 1.385 . S
C1802 C1800 1.478 . S
C1802 C1804 1.381 . S
C1802 C1808 1.383 . S
C1803 C1799 1.495 . S
C1803 H1809 0.959 . S
C1803 H1810 0.961 . S
C1803 H1811 0.960 . S
C1804 C1802 1.381 . S
C1804 C1805 1.394 . S
C1804 H1812 0.930 . S
C1805 C1804 1.394 . S
C1805 C1806 1.383 . S
C1805 H1813 0.929 . S
C1806 C1805 1.383 . S
C1806 C1807 1.377 . S
C1807 H1791 0.930 . S
C1807 C1806 1.377 . S
C1807 C1808 1.379 . S
C1808 H1792 0.931 . S
C1808 C1802 1.383 . S
C1808 C1807 1.379 . S
H1809 C1803 0.959 . S
H1810 C1803 0.961 . S
H1811 C1803 0.960 . S
H1812 C1804 0.930 . S
H1813 C1805 0.929 . S
H1814 C1822 0.929 . S
H1815 C1824 0.930 . S
H1816 C1826 0.930 . S
H1817 C1829 0.929 . S
H1818 C1832 0.930 . S
H1819 C1834 0.960 . S
H1820 C1834 0.960 . S
H1821 C1834 0.960 . S
C1822 H1814 0.929 . S
C1822 C1823 1.377 . S
C1822 C1824 1.384 . S
C1823 C1822 1.377 . S
C1823 C1829 1.390 . S
C1824 H1815 0.930 . S
C1824 C1822 1.384 . S
C1824 C1825 1.372 . S
C1825 C1824 1.372 . S
C1825 C1826 1.400 . S
C1825 C1830 1.490 . S
C1826 H1816 0.930 . S
C1826 C1825 1.400 . S
C1826 C1829 1.386 . S
H1827 C1843 0.930 . S
H1828 C1844 0.931 . S
C1829 H1817 0.929 . S
C1829 C1823 1.390 . S
C1829 C1826 1.386 . S
C1830 C1825 1.490 . S
C1830 C1832 1.395 . S
C1830 C1833 1.403 . S
H1831 C1837 0.930 . S
C1832 H1818 0.930 . S
C1832 C1830 1.395 . S
C1832 C1835 1.403 . S
C1833 C1830 1.403 . S
C1833 C1834 1.524 . S
C1833 C1837 1.400 . S
C1834 H1819 0.960 . S
C1834 H1820 0.960 . S
C1834 H1821 0.960 . S
C1834 C1833 1.524 . S
C1835 C1832 1.403 . S
C1835 C1836 1.392 . S
C1835 C1839 1.495 . S
C1836 C1835 1.392 . S
C1836 C1837 1.385 . S
C1836 C1838 1.478 . S
C1837 H1831 0.930 . S
C1837 C1833 1.400 . S
C1837 C1836 1.385 . S
C1838 C1836 1.478 . S
C1838 C1840 1.381 . S
C1838 C1844 1.383 . S
C1839 C1835 1.495 . S
C1839 H1845 0.959 . S
C1839 H1846 0.961 . S
C1839 H1847 0.960 . S
C1840 C1838 1.381 . S
C1840 C1841 1.394 . S
C1840 H1848 0.930 . S
C1841 C1840 1.394 . S
C1841 C1842 1.383 . S
C1841 H1849 0.929 . S
C1842 C1841 1.383 . S
C1842 C1843 1.377 . S
C1843 H1827 0.930 . S
C1843 C1842 1.377 . S
C1843 C1844 1.379 . S
C1844 H1828 0.931 . S
C1844 C1838 1.383 . S
C1844 C1843 1.379 . S
H1845 C1839 0.959 . S
H1846 C1839 0.961 . S
H1847 C1839 0.960 . S
H1848 C1840 0.930 . S
H1849 C1841 0.929 . S
H1850 C1858 0.929 . S
H1851 C1860 0.930 . S
H1852 C1862 0.930 . S
H1853 C1865 0.929 . S
H1854 C1868 0.930 . S
H1855 C1870 0.960 . S
H1856 C1870 0.960 . S
H1857 C1870 0.960 . S
C1858 H1850 0.929 . S
C1858 C1859 1.377 . S
C1858 C1860 1.384 . S
C1859 C1858 1.377 . S
C1859 C1865 1.390 . S
C1860 H1851 0.930 . S
C1860 C1858 1.384 . S
C1860 C1861 1.372 . S
C1861 C1860 1.372 . S
C1861 C1862 1.400 . S
C1861 C1866 1.490 . S
C1862 H1852 0.930 . S
C1862 C1861 1.400 . S
C1862 C1865 1.386 . S
H1863 C1879 0.930 . S
H1864 C1880 0.931 . S
C1865 H1853 0.929 . S
C1865 C1859 1.390 . S
C1865 C1862 1.386 . S
C1866 C1861 1.490 . S
C1866 C1868 1.395 . S
C1866 C1869 1.403 . S
H1867 C1873 0.930 . S
C1868 H1854 0.930 . S
C1868 C1866 1.395 . S
C1868 C1871 1.403 . S
C1869 C1866 1.403 . S
C1869 C1870 1.524 . S
C1869 C1873 1.400 . S
C1870 H1855 0.960 . S
C1870 H1856 0.960 . S
C1870 H1857 0.960 . S
C1870 C1869 1.524 . S
C1871 C1868 1.403 . S
C1871 C1872 1.392 . S
C1871 C1875 1.495 . S
C1872 C1871 1.392 . S
C1872 C1873 1.385 . S
C1872 C1874 1.478 . S
C1873 H1867 0.930 . S
C1873 C1869 1.400 . S
C1873 C1872 1.385 . S
C1874 C1872 1.478 . S
C1874 C1876 1.381 . S
C1874 C1880 1.383 . S
C1875 C1871 1.495 . S
C1875 H1881 0.959 . S
C1875 H1882 0.961 . S
C1875 H1883 0.960 . S
C1876 C1874 1.381 . S
C1876 C1877 1.394 . S
C1876 H1884 0.930 . S
C1877 C1876 1.394 . S
C1877 C1878 1.383 . S
C1877 H1885 0.929 . S
C1878 C1877 1.383 . S
C1878 C1879 1.377 . S
C1879 H1863 0.930 . S
C1879 C1878 1.377 . S
C1879 C1880 1.379 . S
C1880 H1864 0.931 . S
C1880 C1874 1.383 . S
C1880 C1879 1.379 . S
H1881 C1875 0.959 . S
H1882 C1875 0.961 . S
H1883 C1875 0.960 . S
H1884 C1876 0.930 . S
H1885 C1877 0.929 . S
H1886 C1894 0.929 . S
H1887 C1896 0.930 . S
H1888 C1898 0.930 . S
H1889 C1901 0.929 . S
H1890 C1904 0.930 . S
H1891 C1906 0.960 . S
H1892 C1906 0.960 . S
H1893 C1906 0.960 . S
C1894 H1886 0.929 . S
C1894 C1895 1.377 . S
C1894 C1896 1.384 . S
C1895 C1894 1.377 . S
C1895 C1901 1.390 . S
C1896 H1887 0.930 . S
C1896 C1894 1.384 . S
C1896 C1897 1.372 . S
C1897 C1896 1.372 . S
C1897 C1898 1.400 . S
C1897 C1902 1.490 . S
C1898 H1888 0.930 . S
C1898 C1897 1.400 . S
C1898 C1901 1.386 . S
H1899 C1915 0.930 . S
H1900 C1916 0.931 . S
C1901 H1889 0.929 . S
C1901 C1895 1.390 . S
C1901 C1898 1.386 . S
C1902 C1897 1.490 . S
C1902 C1904 1.395 . S
C1902 C1905 1.403 . S
H1903 C1909 0.930 . S
C1904 H1890 0.930 . S
C1904 C1902 1.395 . S
C1904 C1907 1.403 . S
C1905 C1902 1.403 . S
C1905 C1906 1.524 . S
C1905 C1909 1.400 . S
C1906 H1891 0.960 . S
C1906 H1892 0.960 . S
C1906 H1893 0.960 . S
C1906 C1905 1.524 . S
C1907 C1904 1.403 . S
C1907 C1908 1.392 . S
C1907 C1911 1.495 . S
C1908 C1907 1.392 . S
C1908 C1909 1.385 . S
C1908 C1910 1.478 . S
C1909 H1903 0.930 . S
C1909 C1905 1.400 . S
C1909 C1908 1.385 . S
C1910 C1908 1.478 . S
C1910 C1912 1.381 . S
C1910 C1916 1.383 . S
C1911 C1907 1.495 . S
C1911 H1917 0.959 . S
C1911 H1918 0.961 . S
C1911 H1919 0.960 . S
C1912 C1910 1.381 . S
C1912 C1913 1.394 . S
C1912 H1920 0.930 . S
C1913 C1912 1.394 . S
C1913 C1914 1.383 . S
C1913 H1921 0.929 . S
C1914 C1913 1.383 . S
C1914 C1915 1.377 . S
C1915 H1899 0.930 . S
C1915 C1914 1.377 . S
C1915 C1916 1.379 . S
C1916 H1900 0.931 . S
C1916 C1910 1.383 . S
C1916 C1915 1.379 . S
H1917 C1911 0.959 . S
H1918 C1911 0.961 . S
H1919 C1911 0.960 . S
H1920 C1912 0.930 . S
H1921 C1913 0.929 . S
H1922 C1930 0.929 . S
H1923 C1932 0.930 . S
H1924 C1934 0.930 . S
H1925 C1937 0.929 . S
H1926 C1940 0.930 . S
H1927 C1942 0.960 . S
H1928 C1942 0.960 . S
H1929 C1942 0.960 . S
C1930 H1922 0.929 . S
C1930 C1931 1.377 . S
C1930 C1932 1.384 . S
C1931 C1930 1.377 . S
C1931 C1937 1.390 . S
C1932 H1923 0.930 . S
C1932 C1930 1.384 . S
C1932 C1933 1.372 . S
C1933 C1932 1.372 . S
C1933 C1934 1.400 . S
C1933 C1938 1.490 . S
C1934 H1924 0.930 . S
C1934 C1933 1.400 . S
C1934 C1937 1.386 . S
H1935 C1951 0.930 . S
H1936 C1952 0.931 . S
C1937 H1925 0.929 . S
C1937 C1931 1.390 . S
C1937 C1934 1.386 . S
C1938 C1933 1.490 . S
C1938 C1940 1.395 . S
C1938 C1941 1.403 . S
H1939 C1945 0.930 . S
C1940 H1926 0.930 . S
C1940 C1938 1.395 . S
C1940 C1943 1.403 . S
C1941 C1938 1.403 . S
C1941 C1942 1.524 . S
C1941 C1945 1.400 . S
C1942 H1927 0.960 . S
C1942 H1928 0.960 . S
C1942 H1929 0.960 . S
C1942 C1941 1.524 . S
C1943 C1940 1.403 . S
C1943 C1944 1.392 . S
C1943 C1947 1.495 . S
C1944 C1943 1.392 . S
C1944 C1945 1.385 . S
C1944 C1946 1.478 . S
C1945 H1939 0.930 . S
C1945 C1941 1.400 . S
C1945 C1944 1.385 . S
C1946 C1944 1.478 . S
C1946 C1948 1.381 . S
C1946 C1952 1.383 . S
C1947 C1943 1.495 . S
C1947 H1953 0.959 . S
C1947 H1954 0.961 . S
C1947 H1955 0.960 . S
C1948 C1946 1.381 . S
C1948 C1949 1.394 . S
C1948 H1956 0.930 . S
C1949 C1948 1.394 . S
C1949 C1950 1.383 . S
C1949 H1957 0.929 . S
C1950 C1949 1.383 . S
C1950 C1951 1.377 . S
C1951 H1935 0.930 . S
C1951 C1950 1.377 . S
C1951 C1952 1.379 . S
C1952 H1936 0.931 . S
C1952 C1946 1.383 . S
C1952 C1951 1.379 . S
H1953 C1947 0.959 . S
H1954 C1947 0.961 . S
H1955 C1947 0.960 . S
H1956 C1948 0.930 . S
H1957 C1949 0.929 . S
H1958 C1966 0.929 . S
H1959 C1968 0.930 . S
H1960 C1970 0.930 . S
H1961 C1973 0.929 . S
H1962 C1976 0.930 . S
H1963 C1978 0.960 . S
H1964 C1978 0.960 . S
H1965 C1978 0.960 . S
C1966 H1958 0.929 . S
C1966 C1967 1.377 . S
C1966 C1968 1.384 . S
C1967 C1966 1.377 . S
C1967 C1973 1.390 . S
C1968 H1959 0.930 . S
C1968 C1966 1.384 . S
C1968 C1969 1.372 . S
C1969 C1968 1.372 . S
C1969 C1970 1.400 . S
C1969 C1974 1.490 . S
C1970 H1960 0.930 . S
C1970 C1969 1.400 . S
C1970 C1973 1.386 . S
H1971 C1987 0.930 . S
H1972 C1988 0.931 . S
C1973 H1961 0.929 . S
C1973 C1967 1.390 . S
C1973 C1970 1.386 . S
C1974 C1969 1.490 . S
C1974 C1976 1.395 . S
C1974 C1977 1.403 . S
H1975 C1981 0.930 . S
C1976 H1962 0.930 . S
C1976 C1974 1.395 . S
C1976 C1979 1.403 . S
C1977 C1974 1.403 . S
C1977 C1978 1.524 . S
C1977 C1981 1.400 . S
C1978 H1963 0.960 . S
C1978 H1964 0.960 . S
C1978 H1965 0.960 . S
C1978 C1977 1.524 . S
C1979 C1976 1.403 . S
C1979 C1980 1.392 . S
C1979 C1983 1.495 . S
C1980 C1979 1.392 . S
C1980 C1981 1.385 . S
C1980 C1982 1.478 . S
C1981 H1975 0.930 . S
C1981 C1977 1.400 . S
C1981 C1980 1.385 . S
C1982 C1980 1.478 . S
C1982 C1984 1.381 . S
C1982 C1988 1.383 . S
C1983 C1979 1.495 . S
C1983 H1989 0.959 . S
C1983 H1990 0.961 . S
C1983 H1991 0.960 . S
C1984 C1982 1.381 . S
C1984 C1985 1.394 . S
C1984 H1992 0.930 . S
C1985 C1984 1.394 . S
C1985 C1986 1.383 . S
C1985 H1993 0.929 . S
C1986 C1985 1.383 . S
C1986 C1987 1.377 . S
C1987 H1971 0.930 . S
C1987 C1986 1.377 . S
C1987 C1988 1.379 . S
C1988 H1972 0.931 . S
C1988 C1982 1.383 . S
C1988 C1987 1.379 . S
H1989 C1983 0.959 . S
H1990 C1983 0.961 . S
H1991 C1983 0.960 . S
H1992 C1984 0.930 . S
H1993 C1985 0.929 . S
H1994 C2002 0.929 . S
H1995 C2004 0.930 . S
H1996 C2006 0.930 . S
H1997 C2009 0.929 . S
H1998 C2012 0.930 . S
H1999 C2014 0.960 . S
H2000 C2014 0.960 . S
H2001 C2014 0.960 . S
C2002 H1994 0.929 . S
C2002 C2003 1.377 . S
C2002 C2004 1.384 . S
C2003 C2002 1.377 . S
C2003 C2009 1.390 . S
C2004 H1995 0.930 . S
C2004 C2002 1.384 . S
C2004 C2005 1.372 . S
C2005 C2004 1.372 . S
C2005 C2006 1.400 . S
C2005 C2010 1.490 . S
C2006 H1996 0.930 . S
C2006 C2005 1.400 . S
C2006 C2009 1.386 . S
H2007 C2023 0.930 . S
H2008 C2024 0.931 . S
C2009 H1997 0.929 . S
C2009 C2003 1.390 . S
C2009 C2006 1.386 . S
C2010 C2005 1.490 . S
C2010 C2012 1.395 . S
C2010 C2013 1.403 . S
H2011 C2017 0.930 . S
C2012 H1998 0.930 . S
C2012 C2010 1.395 . S
C2012 C2015 1.403 . S
C2013 C2010 1.403 . S
C2013 C2014 1.524 . S
C2013 C2017 1.400 . S
C2014 H1999 0.960 . S
C2014 H2000 0.960 . S
C2014 H2001 0.960 . S
C2014 C2013 1.524 . S
C2015 C2012 1.403 . S
C2015 C2016 1.392 . S
C2015 C2019 1.495 . S
C2016 C2015 1.392 . S
C2016 C2017 1.385 . S
C2016 C2018 1.478 . S
C2017 H2011 0.930 . S
C2017 C2013 1.400 . S
C2017 C2016 1.385 . S
C2018 C2016 1.478 . S
C2018 C2020 1.381 . S
C2018 C2024 1.383 . S
C2019 C2015 1.495 . S
C2019 H2025 0.959 . S
C2019 H2026 0.961 . S
C2019 H2027 0.960 . S
C2020 C2018 1.381 . S
C2020 C2021 1.394 . S
C2020 H2028 0.930 . S
C2021 C2020 1.394 . S
C2021 C2022 1.383 . S
C2021 H2029 0.929 . S
C2022 C2021 1.383 . S
C2022 C2023 1.377 . S
C2023 H2007 0.930 . S
C2023 C2022 1.377 . S
C2023 C2024 1.379 . S
C2024 H2008 0.931 . S
C2024 C2018 1.383 . S
C2024 C2023 1.379 . S
H2025 C2019 0.959 . S
H2026 C2019 0.961 . S
H2027 C2019 0.960 . S
H2028 C2020 0.930 . S
H2029 C2021 0.929 . S
H2030 C2038 0.929 . S
H2031 C2040 0.930 . S
H2032 C2042 0.930 . S
H2033 C2045 0.929 . S
H2034 C2048 0.930 . S
H2035 C2050 0.960 . S
H2036 C2050 0.960 . S
H2037 C2050 0.960 . S
C2038 H2030 0.929 . S
C2038 C2039 1.377 . S
C2038 C2040 1.384 . S
C2039 C2038 1.377 . S
C2039 C2045 1.390 . S
C2040 H2031 0.930 . S
C2040 C2038 1.384 . S
C2040 C2041 1.372 . S
C2041 C2040 1.372 . S
C2041 C2042 1.400 . S
C2041 C2046 1.490 . S
C2042 H2032 0.930 . S
C2042 C2041 1.400 . S
C2042 C2045 1.386 . S
H2043 C2059 0.930 . S
H2044 C2060 0.931 . S
C2045 H2033 0.929 . S
C2045 C2039 1.390 . S
C2045 C2042 1.386 . S
C2046 C2041 1.490 . S
C2046 C2048 1.395 . S
C2046 C2049 1.403 . S
H2047 C2053 0.930 . S
C2048 H2034 0.930 . S
C2048 C2046 1.395 . S
C2048 C2051 1.403 . S
C2049 C2046 1.403 . S
C2049 C2050 1.524 . S
C2049 C2053 1.400 . S
C2050 H2035 0.960 . S
C2050 H2036 0.960 . S
C2050 H2037 0.960 . S
C2050 C2049 1.524 . S
C2051 C2048 1.403 . S
C2051 C2052 1.392 . S
C2051 C2055 1.495 . S
C2052 C2051 1.392 . S
C2052 C2053 1.385 . S
C2052 C2054 1.478 . S
C2053 H2047 0.930 . S
C2053 C2049 1.400 . S
C2053 C2052 1.385 . S
C2054 C2052 1.478 . S
C2054 C2056 1.381 . S
C2054 C2060 1.383 . S
C2055 C2051 1.495 . S
C2055 H2061 0.959 . S
C2055 H2062 0.961 . S
C2055 H2063 0.960 . S
C2056 C2054 1.381 . S
C2056 C2057 1.394 . S
C2056 H2064 0.930 . S
C2057 C2056 1.394 . S
C2057 C2058 1.383 . S
C2057 H2065 0.929 . S
C2058 C2057 1.383 . S
C2058 C2059 1.377 . S
C2059 H2043 0.930 . S
C2059 C2058 1.377 . S
C2059 C2060 1.379 . S
C2060 H2044 0.931 . S
C2060 C2054 1.383 . S
C2060 C2059 1.379 . S
H2061 C2055 0.959 . S
H2062 C2055 0.961 . S
H2063 C2055 0.960 . S
H2064 C2056 0.930 . S
H2065 C2057 0.929 . S
H2066 C2074 0.929 . S
H2067 C2076 0.930 . S
H2068 C2078 0.930 . S
H2069 C2081 0.929 . S
H2070 C2084 0.930 . S
H2071 C2086 0.960 . S
H2072 C2086 0.960 . S
H2073 C2086 0.960 . S
C2074 H2066 0.929 . S
C2074 C2075 1.377 . S
C2074 C2076 1.384 . S
C2075 C2074 1.377 . S
C2075 C2081 1.390 . S
C2076 H2067 0.930 . S
C2076 C2074 1.384 . S
C2076 C2077 1.372 . S
C2077 C2076 1.372 . S
C2077 C2078 1.400 . S
C2077 C2082 1.490 . S
C2078 H2068 0.930 . S
C2078 C2077 1.400 . S
C2078 C2081 1.386 . S
H2079 C2095 0.930 . S
H2080 C2096 0.931 . S
C2081 H2069 0.929 . S
C2081 C2075 1.390 . S
C2081 C2078 1.386 . S
C2082 C2077 1.490 . S
C2082 C2084 1.395 . S
C2082 C2085 1.403 . S
H2083 C2089 0.930 . S
C2084 H2070 0.930 . S
C2084 C2082 1.395 . S
C2084 C2087 1.403 . S
C2085 C2082 1.403 . S
C2085 C2086 1.524 . S
C2085 C2089 1.400 . S
C2086 H2071 0.960 . S
C2086 H2072 0.960 . S
C2086 H2073 0.960 . S
C2086 C2085 1.524 . S
C2087 C2084 1.403 . S
C2087 C2088 1.392 . S
C2087 C2091 1.495 . S
C2088 C2087 1.392 . S
C2088 C2089 1.385 . S
C2088 C2090 1.478 . S
C2089 H2083 0.930 . S
C2089 C2085 1.400 . S
C2089 C2088 1.385 . S
C2090 C2088 1.478 . S
C2090 C2092 1.381 . S
C2090 C2096 1.383 . S
C2091 C2087 1.495 . S
C2091 H2097 0.959 . S
C2091 H2098 0.961 . S
C2091 H2099 0.960 . S
C2092 C2090 1.381 . S
C2092 C2093 1.394 . S
C2092 H2100 0.930 . S
C2093 C2092 1.394 . S
C2093 C2094 1.383 . S
C2093 H2101 0.929 . S
C2094 C2093 1.383 . S
C2094 C2095 1.377 . S
C2095 H2079 0.930 . S
C2095 C2094 1.377 . S
C2095 C2096 1.379 . S
C2096 H2080 0.931 . S
C2096 C2090 1.383 . S
C2096 C2095 1.379 . S
H2097 C2091 0.959 . S
H2098 C2091 0.961 . S
H2099 C2091 0.960 . S
H2100 C2092 0.930 . S
H2101 C2093 0.929 . S
H2102 C2110 0.929 . S
H2103 C2112 0.930 . S
H2104 C2114 0.930 . S
H2105 C2117 0.929 . S
H2106 C2120 0.930 . S
H2107 C2122 0.960 . S
H2108 C2122 0.960 . S
H2109 C2122 0.960 . S
C2110 H2102 0.929 . S
C2110 C2111 1.377 . S
C2110 C2112 1.384 . S
C2111 C2110 1.377 . S
C2111 C2117 1.390 . S
C2112 H2103 0.930 . S
C2112 C2110 1.384 . S
C2112 C2113 1.372 . S
C2113 C2112 1.372 . S
C2113 C2114 1.400 . S
C2113 C2118 1.490 . S
C2114 H2104 0.930 . S
C2114 C2113 1.400 . S
C2114 C2117 1.386 . S
H2115 C2131 0.930 . S
H2116 C2132 0.931 . S
C2117 H2105 0.929 . S
C2117 C2111 1.390 . S
C2117 C2114 1.386 . S
C2118 C2113 1.490 . S
C2118 C2120 1.395 . S
C2118 C2121 1.403 . S
H2119 C2125 0.930 . S
C2120 H2106 0.930 . S
C2120 C2118 1.395 . S
C2120 C2123 1.403 . S
C2121 C2118 1.403 . S
C2121 C2122 1.524 . S
C2121 C2125 1.400 . S
C2122 H2107 0.960 . S
C2122 H2108 0.960 . S
C2122 H2109 0.960 . S
C2122 C2121 1.524 . S
C2123 C2120 1.403 . S
C2123 C2124 1.392 . S
C2123 C2127 1.495 . S
C2124 C2123 1.392 . S
C2124 C2125 1.385 . S
C2124 C2126 1.478 . S
C2125 H2119 0.930 . S
C2125 C2121 1.400 . S
C2125 C2124 1.385 . S
C2126 C2124 1.478 . S
C2126 C2128 1.381 . S
C2126 C2132 1.383 . S
C2127 C2123 1.495 . S
C2127 H2133 0.959 . S
C2127 H2134 0.961 . S
C2127 H2135 0.960 . S
C2128 C2126 1.381 . S
C2128 C2129 1.394 . S
C2128 H2136 0.930 . S
C2129 C2128 1.394 . S
C2129 C2130 1.383 . S
C2129 H2137 0.929 . S
C2130 C2129 1.383 . S
C2130 C2131 1.377 . S
C2131 H2115 0.930 . S
C2131 C2130 1.377 . S
C2131 C2132 1.379 . S
C2132 H2116 0.931 . S
C2132 C2126 1.383 . S
C2132 C2131 1.379 . S
H2133 C2127 0.959 . S
H2134 C2127 0.961 . S
H2135 C2127 0.960 . S
H2136 C2128 0.930 . S
H2137 C2129 0.929 . S
H2138 C2146 0.929 . S
H2139 C2148 0.930 . S
H2140 C2150 0.930 . S
H2141 C2153 0.929 . S
H2142 C2156 0.930 . S
H2143 C2158 0.960 . S
H2144 C2158 0.960 . S
H2145 C2158 0.960 . S
C2146 H2138 0.929 . S
C2146 C2147 1.377 . S
C2146 C2148 1.384 . S
C2147 C2146 1.377 . S
C2147 C2153 1.390 . S
C2148 H2139 0.930 . S
C2148 C2146 1.384 . S
C2148 C2149 1.372 . S
C2149 C2148 1.372 . S
C2149 C2150 1.400 . S
C2149 C2154 1.490 . S
C2150 H2140 0.930 . S
C2150 C2149 1.400 . S
C2150 C2153 1.386 . S
H2151 C2167 0.930 . S
H2152 C2168 0.931 . S
C2153 H2141 0.929 . S
C2153 C2147 1.390 . S
C2153 C2150 1.386 . S
C2154 C2149 1.490 . S
C2154 C2156 1.395 . S
C2154 C2157 1.403 . S
H2155 C2161 0.930 . S
C2156 H2142 0.930 . S
C2156 C2154 1.395 . S
C2156 C2159 1.403 . S
C2157 C2154 1.403 . S
C2157 C2158 1.524 . S
C2157 C2161 1.400 . S
C2158 H2143 0.960 . S
C2158 H2144 0.960 . S
C2158 H2145 0.960 . S
C2158 C2157 1.524 . S
C2159 C2156 1.403 . S
C2159 C2160 1.392 . S
C2159 C2163 1.495 . S
C2160 C2159 1.392 . S
C2160 C2161 1.385 . S
C2160 C2162 1.478 . S
C2161 H2155 0.930 . S
C2161 C2157 1.400 . S
C2161 C2160 1.385 . S
C2162 C2160 1.478 . S
C2162 C2164 1.381 . S
C2162 C2168 1.383 . S
C2163 C2159 1.495 . S
C2163 H2169 0.959 . S
C2163 H2170 0.961 . S
C2163 H2171 0.960 . S
C2164 C2162 1.381 . S
C2164 C2165 1.394 . S
C2164 H2172 0.930 . S
C2165 C2164 1.394 . S
C2165 C2166 1.383 . S
C2165 H2173 0.929 . S
C2166 C2165 1.383 . S
C2166 C2167 1.377 . S
C2167 H2151 0.930 . S
C2167 C2166 1.377 . S
C2167 C2168 1.379 . S
C2168 H2152 0.931 . S
C2168 C2162 1.383 . S
C2168 C2167 1.379 . S
H2169 C2163 0.959 . S
H2170 C2163 0.961 . S
H2171 C2163 0.960 . S
H2172 C2164 0.930 . S
H2173 C2165 0.929 . S
H2174 C2182 0.929 . S
H2175 C2184 0.930 . S
H2176 C2186 0.930 . S
H2177 C2189 0.929 . S
H2178 C2192 0.930 . S
H2179 C2194 0.960 . S
H2180 C2194 0.960 . S
H2181 C2194 0.960 . S
C2182 H2174 0.929 . S
C2182 C2183 1.377 . S
C2182 C2184 1.384 . S
C2183 C2182 1.377 . S
C2183 C2189 1.390 . S
C2184 H2175 0.930 . S
C2184 C2182 1.384 . S
C2184 C2185 1.372 . S
C2185 C2184 1.372 . S
C2185 C2186 1.400 . S
C2185 C2190 1.490 . S
C2186 H2176 0.930 . S
C2186 C2185 1.400 . S
C2186 C2189 1.386 . S
H2187 C2203 0.930 . S
H2188 C2204 0.931 . S
C2189 H2177 0.929 . S
C2189 C2183 1.390 . S
C2189 C2186 1.386 . S
C2190 C2185 1.490 . S
C2190 C2192 1.395 . S
C2190 C2193 1.403 . S
H2191 C2197 0.930 . S
C2192 H2178 0.930 . S
C2192 C2190 1.395 . S
C2192 C2195 1.403 . S
C2193 C2190 1.403 . S
C2193 C2194 1.524 . S
C2193 C2197 1.400 . S
C2194 H2179 0.960 . S
C2194 H2180 0.960 . S
C2194 H2181 0.960 . S
C2194 C2193 1.524 . S
C2195 C2192 1.403 . S
C2195 C2196 1.392 . S
C2195 C2199 1.495 . S
C2196 C2195 1.392 . S
C2196 C2197 1.385 . S
C2196 C2198 1.478 . S
C2197 H2191 0.930 . S
C2197 C2193 1.400 . S
C2197 C2196 1.385 . S
C2198 C2196 1.478 . S
C2198 C2200 1.381 . S
C2198 C2204 1.383 . S
C2199 C2195 1.495 . S
C2199 H2205 0.959 . S
C2199 H2206 0.961 . S
C2199 H2207 0.960 . S
C2200 C2198 1.381 . S
C2200 C2201 1.394 . S
C2200 H2208 0.930 . S
C2201 C2200 1.394 . S
C2201 C2202 1.383 . S
C2201 H2209 0.929 . S
C2202 C2201 1.383 . S
C2202 C2203 1.377 . S
C2203 H2187 0.930 . S
C2203 C2202 1.377 . S
C2203 C2204 1.379 . S
C2204 H2188 0.931 . S
C2204 C2198 1.383 . S
C2204 C2203 1.379 . S
H2205 C2199 0.959 . S
H2206 C2199 0.961 . S
H2207 C2199 0.960 . S
H2208 C2200 0.930 . S
H2209 C2201 0.929 . S
H2210 C2218 0.929 . S
H2211 C2220 0.930 . S
H2212 C2222 0.930 . S
H2213 C2225 0.929 . S
H2214 C2228 0.930 . S
H2215 C2230 0.960 . S
H2216 C2230 0.960 . S
H2217 C2230 0.960 . S
C2218 H2210 0.929 . S
C2218 C2219 1.377 . S
C2218 C2220 1.384 . S
C2219 C2218 1.377 . S
C2219 C2225 1.390 . S
C2220 H2211 0.930 . S
C2220 C2218 1.384 . S
C2220 C2221 1.372 . S
C2221 C2220 1.372 . S
C2221 C2222 1.400 . S
C2221 C2226 1.490 . S
C2222 H2212 0.930 . S
C2222 C2221 1.400 . S
C2222 C2225 1.386 . S
H2223 C2239 0.930 . S
H2224 C2240 0.931 . S
C2225 H2213 0.929 . S
C2225 C2219 1.390 . S
C2225 C2222 1.386 . S
C2226 C2221 1.490 . S
C2226 C2228 1.395 . S
C2226 C2229 1.403 . S
H2227 C2233 0.930 . S
C2228 H2214 0.930 . S
C2228 C2226 1.395 . S
C2228 C2231 1.403 . S
C2229 C2226 1.403 . S
C2229 C2230 1.524 . S
C2229 C2233 1.400 . S
C2230 H2215 0.960 . S
C2230 H2216 0.960 . S
C2230 H2217 0.960 . S
C2230 C2229 1.524 . S
C2231 C2228 1.403 . S
C2231 C2232 1.392 . S
C2231 C2235 1.495 . S
C2232 C2231 1.392 . S
C2232 C2233 1.385 . S
C2232 C2234 1.478 . S
C2233 H2227 0.930 . S
C2233 C2229 1.400 . S
C2233 C2232 1.385 . S
C2234 C2232 1.478 . S
C2234 C2236 1.381 . S
C2234 C2240 1.383 . S
C2235 C2231 1.495 . S
C2235 H2241 0.959 . S
C2235 H2242 0.961 . S
C2235 H2243 0.960 . S
C2236 C2234 1.381 . S
C2236 C2237 1.394 . S
C2236 H2244 0.930 . S
C2237 C2236 1.394 . S
C2237 C2238 1.383 . S
C2237 H2245 0.929 . S
C2238 C2237 1.383 . S
C2238 C2239 1.377 . S
C2239 H2223 0.930 . S
C2239 C2238 1.377 . S
C2239 C2240 1.379 . S
C2240 H2224 0.931 . S
C2240 C2234 1.383 . S
C2240 C2239 1.379 . S
H2241 C2235 0.959 . S
H2242 C2235 0.961 . S
H2243 C2235 0.960 . S
H2244 C2236 0.930 . S
H2245 C2237 0.929 . S
C546 C347 2.257 . S
C527 C24 2.396 . S
C582 C348 3.458 . S
C563 C53 3.544 . S
C618 C342 1.160 . S
C599 C82 1.209 . S
C635 C137 0.586 . S
C654 C341 0.646 . S
C671 C184 3.293 . S
C690 C344 3.188 . S
C726 C346 0.985 . S
C707 C202 1.037 . S
C743 C266 0.386 . S
C762 C345 0.441 . S
C779 C293 2.386 . S
C798 C343 2.271 . S
C834 C378 2.811 . S
C815 C2 2.809 . S
C851 C57 0.634 . S
C870 C409 0.781 . S
C906 C377 0.727 . S
C887 C106 0.770 . S
C942 C412 0.655 . S
C923 C143 0.703 . S
C959 C162 1.057 . S
C978 C375 1.065 . S
C1014 C407 0.895 1_556 S
C995 C226 0.878 . S
C1031 C264 2.216 . S
C1050 C380 2.175 . S
C1067 C297 0.416 . S
C1086 C414 0.349 . S
C1103 C26 0.789 . S
C1122 C410 0.831 . S
C1139 C186 0.323 . S
C1158 C413 0.390 . S
C1194 C381 2.294 . S
C1175 C224 2.388 . S
C1230 C408 1.349 1_556 S
C1211 C242 1.422 . S
C1247 C303 3.455 . S
C1266 C374 3.460 . S
C1283 C104 2.215 . S
C1302 C411 2.220 . S
C1338 C376 2.408 . S
C1319 C133 2.509 . S
C1355 C63 1.595 . S
C1374 C379 1.550 . S
C1391 C304 2.506 . S
C1410 C446 2.377 . S
C1427 C173 2.854 . S
C1446 C447 2.770 . S
C1482 C441 1.208 . S
C1463 C223 1.196 . S
C1518 C440 0.399 . S
C1499 C257 0.416 . S
C1535 C64 3.149 . S
C1554 C443 3.069 . S
C1590 C445 1.030 . S
C1571 C103 1.060 . S
C1607 C146 0.209 . S
C1626 C444 0.136 . S
C1643 C13 2.470 . S
C1662 C442 2.362 . S
C1679 C282 3.632 . S
C1698 C480 3.555 . S
C1734 C512 0.695 . S
C1715 C177 0.477 . S
C1751 C213 2.327 . S
C1770 C473 2.329 . S
C1787 C263 1.763 . S
C1806 C507 1.764 . S
C1842 C478 1.302 . S
C1823 C42 1.344 . S
C1859 C93 2.364 . S
C1878 C509 2.332 . S
C1914 C475 2.789 . S
C1895 C144 2.848 . S
C1950 C510 0.818 . S
C1931 C17 0.797 . S
C1986 C506 0.109 . S
C1967 C306 0.445 . S
C2003 C66 0.840 . S
C2022 C508 0.738 . S
C2039 C97 0.704 . S
C2058 C477 0.707 . S
C2094 C511 1.088 . S
C2075 C122 1.068 . S
C2111 C23 3.017 . S
C2130 C476 2.901 . S
C2147 C217 1.017 . S
C2166 C513 0.970 . S
C2202 C479 2.467 . S
C2183 C253 2.506 . S
C2238 C474 0.765 . S
C2219 C183 0.763 . S
