# Generated by pormake.
# Topology zzz, (3,6)-cn, num edge types: 1
# Building blocks:
#     Node 0, Type 0, BuildingBlock: WUSLED_clean_sbu_0, # of connection points: 3
#     Node 1, Type 0, BuildingBlock: WUSLED_clean_sbu_0, # of connection points: 3
#     Node 2, Type 0, BuildingBlock: WUSLED_clean_sbu_0, # of connection points: 3
#     Node 3, Type 0, BuildingBlock: WUSLED_clean_sbu_0, # of connection points: 3
#     Node 4, Type 0, BuildingBlock: WUSLED_clean_sbu_0, # of connection points: 3
#     Node 5, Type 0, BuildingBlock: WUSLED_clean_sbu_0, # of connection points: 3
#     Node 6, Type 0, BuildingBlock: WUSLED_clean_sbu_0, # of connection points: 3
#     Node 7, Type 0, BuildingBlock: WUSLED_clean_sbu_0, # of connection points: 3
#     Node 8, Type 1, BuildingBlock: BETDEL_clean_sbu_0, # of connection points: 6
#     Node 9, Type 1, BuildingBlock: BETDEL_clean_sbu_0, # of connection points: 6
#     Node 10, Type 1, BuildingBlock: BETDEL_clean_sbu_0, # of connection points: 6
#     Node 11, Type 1, BuildingBlock: BETDEL_clean_sbu_0, # of connection points: 6
#     Edge 12, Type (0, 1), BuildingBlock: EZIPEK_clean_linker_0, # of connection points: 2
#     Edge 13, Type (0, 1), BuildingBlock: EZIPEK_clean_linker_0, # of connection points: 2
#     Edge 14, Type (0, 1), BuildingBlock: EZIPEK_clean_linker_0, # of connection points: 2
#     Edge 15, Type (0, 1), BuildingBlock: EZIPEK_clean_linker_0, # of connection points: 2
#     Edge 16, Type (0, 1), BuildingBlock: EZIPEK_clean_linker_0, # of connection points: 2
#     Edge 17, Type (0, 1), BuildingBlock: EZIPEK_clean_linker_0, # of connection points: 2
#     Edge 18, Type (0, 1), BuildingBlock: EZIPEK_clean_linker_0, # of connection points: 2
#     Edge 19, Type (0, 1), BuildingBlock: EZIPEK_clean_linker_0, # of connection points: 2
#     Edge 20, Type (0, 1), BuildingBlock: EZIPEK_clean_linker_0, # of connection points: 2
#     Edge 21, Type (0, 1), BuildingBlock: EZIPEK_clean_linker_0, # of connection points: 2
#     Edge 22, Type (0, 1), BuildingBlock: EZIPEK_clean_linker_0, # of connection points: 2
#     Edge 23, Type (0, 1), BuildingBlock: EZIPEK_clean_linker_0, # of connection points: 2
#     Edge 24, Type (0, 1), BuildingBlock: EZIPEK_clean_linker_0, # of connection points: 2
#     Edge 25, Type (0, 1), BuildingBlock: EZIPEK_clean_linker_0, # of connection points: 2
#     Edge 26, Type (0, 1), BuildingBlock: EZIPEK_clean_linker_0, # of connection points: 2
#     Edge 27, Type (0, 1), BuildingBlock: EZIPEK_clean_linker_0, # of connection points: 2
#     Edge 28, Type (0, 1), BuildingBlock: EZIPEK_clean_linker_0, # of connection points: 2
#     Edge 29, Type (0, 1), BuildingBlock: EZIPEK_clean_linker_0, # of connection points: 2
#     Edge 30, Type (0, 1), BuildingBlock: EZIPEK_clean_linker_0, # of connection points: 2
#     Edge 31, Type (0, 1), BuildingBlock: EZIPEK_clean_linker_0, # of connection points: 2
#     Edge 32, Type (0, 1), BuildingBlock: EZIPEK_clean_linker_0, # of connection points: 2
#     Edge 33, Type (0, 1), BuildingBlock: EZIPEK_clean_linker_0, # of connection points: 2
#     Edge 34, Type (0, 1), BuildingBlock: EZIPEK_clean_linker_0, # of connection points: 2
#     Edge 35, Type (0, 1), BuildingBlock: EZIPEK_clean_linker_0, # of connection points: 2
# Relax obj value: 0.325
# Max RMSD: 0.220
# Mean RMSD: 0.205
data_MOF--net-zzz--node1-WUSLED_clean_sbu_0--node2-BETDEL_clean_sbu_0--edge1-EZIPEK_clean_linker_0
_symmetry_space_group_name_H-M    P1
_symmetry_Int_Tables_number       1
_symmetry_cell_setting            triclinic
loop_
_symmetry_equiv_pos_as_xyz
'x, y, z'
_cell_length_a     48.261174
_cell_length_b     47.863112
_cell_length_c     16.491734
_cell_angle_alpha  90.788538
_cell_angle_beta   89.684643
_cell_angle_gamma 94.987272
loop_
_atom_site_label
_atom_site_type_symbol
_atom_site_fract_x
_atom_site_fract_y
_atom_site_fract_z
_atom_type_partial_charge
C0 C 0.80768 0.51271 0.24614 0.0
C1 C 0.83138 0.52004 0.19834 0.0
C2 C 0.86124 0.51278 0.31302 0.0
C3 C 0.85802 0.52011 0.23168 0.0
C4 C 0.8376 0.50497 0.36013 0.0
C5 C 0.81104 0.50496 0.32693 0.0
U6 U 0.75317 0.50433 0.07658 0.0
O7 O 0.70889 0.48888 0.08183 0.0
O8 O 0.72098 0.53271 0.05064 0.0
C9 C 0.70065 0.51274 0.0565 0.0
C10 C 0.77932 0.51403 0.21456 0.0
C11 C 0.68083 0.51094 0.9888 0.0
C12 C 0.63874 0.52586 0.92946 0.0
C13 C 0.65757 0.52648 0.99355 0.0
C14 C 0.66615 0.494 0.8546 0.0
C15 C 0.64287 0.50963 0.85959 0.0
C16 C 0.68514 0.49475 0.9188 0.0
C17 C 0.8114 0.48152 0.94106 0.0
C18 C 0.85026 0.47938 0.84841 0.0
C19 C 0.857 0.47295 0.99245 0.0
C20 C 0.82883 0.47637 1.00627 0.0
C21 C 0.86787 0.47485 0.9134 0.0
C22 C 0.82222 0.48273 0.86218 0.0
C23 C 0.78233 0.48716 0.9541 0.0
O24 O 0.77621 0.53355 0.16086 0.0
O25 O 0.76553 0.48986 0.19644 0.0
O26 O 0.76771 0.46991 1.00257 0.0
O27 O 0.77839 0.51365 0.9674 0.0
H28 H 0.82929 0.52603 0.13572 0.0
H29 H 0.87607 0.52612 0.19448 0.0
H30 H 0.83976 0.49922 0.42296 0.0
H31 H 0.79305 0.49926 0.36474 0.0
H32 H 0.62085 0.53799 0.93437 0.0
H33 H 0.65401 0.53919 0.04685 0.0
H34 H 0.66957 0.48129 0.80121 0.0
H35 H 0.70314 0.48279 0.91385 0.0
H36 H 0.85838 0.48082 0.78707 0.0
H37 H 0.87037 0.46939 0.04314 0.0
H38 H 0.82074 0.47541 0.06765 0.0
H39 H 0.80906 0.48674 0.81134 0.0
C40 C 0.97496 0.79129 0.28035 0.0
C41 C 0.9726 0.81376 0.22745 0.0
C42 C 0.98195 0.84711 0.3388 0.0
C43 C 0.97601 0.84149 0.25656 0.0
C44 C 0.98435 0.82467 0.39145 0.0
C45 C 0.98087 0.79699 0.36243 0.0
U46 U 0.98292 0.73458 0.11775 0.0
O47 O 0.95432 0.69789 0.08387 0.0
O48 O 0.99572 0.6919 0.1312 0.0
C49 C 0.97323 0.68021 0.09546 0.0
C50 C 0.97163 0.76186 0.25148 0.0
C51 C 0.97821 0.66164 0.02573 0.0
C52 C 0.96669 0.61847 0.94871 0.0
C53 C 0.9623 0.63584 1.01591 0.0
C54 C 1.003 0.65252 0.90071 0.0
C55 C 0.98716 0.62671 0.89091 0.0
C56 C 0.99847 0.66993 0.96732 0.0
C57 C 0.01305 0.79377 0.9804 0.0
C58 C 0.01969 0.83042 0.88068 0.0
C59 C 0.02565 0.84195 0.02363 0.0
C60 C 0.0193 0.81367 0.04259 0.0
C61 C 0.02561 0.85043 0.94244 0.0
C62 C 0.01343 0.8023 0.89955 0.0
C63 C 1.00512 0.76418 0.99765 0.0
O64 O 0.95337 0.75597 0.19344 0.0
O65 O 0.99487 0.74985 0.24035 0.0
O66 O 0.97825 0.75748 1.00483 0.0
O67 O 0.01997 0.75253 0.05236 0.0
H68 H 0.96816 0.80989 0.16377 0.0
H69 H 0.97411 0.85855 0.21505 0.0
H70 H 0.98892 0.82861 0.45504 0.0
H71 H 0.98282 0.77999 0.40414 0.0
H72 H 0.95428 0.59861 0.94189 0.0
H73 H 0.94645 0.62919 0.06002 0.0
H74 H 0.0188 0.65922 0.85648 0.0
H75 H 0.01076 0.68989 0.97319 0.0
H76 H 0.01963 0.83668 0.81777 0.0
H77 H 0.03024 0.8572 0.0719 0.0
H78 H 0.01907 0.80738 0.10544 0.0
H79 H 1.00859 0.78722 0.85097 0.0
C80 C 0.71528 1.00438 0.25849 0.0
C81 C 0.69121 0.99724 0.21223 0.0
C82 C 0.66189 1.00354 0.33092 0.0
C83 C 0.66475 0.99684 0.2482 0.0
C84 C 0.68585 0.0116 0.37637 0.0
C85 C 0.71227 0.01195 0.34051 0.0
U86 U 0.77534 0.01332 0.09829 0.0
O87 O 0.80375 0.98132 0.0674 0.0
O88 O 0.82066 0.02198 0.11674 0.0
C89 C 0.82616 0.99828 0.08138 0.0
C90 C 0.74362 1.00138 0.22582 0.0
C91 C 0.84702 1.00039 1.01483 0.0
C92 C 0.89524 1.00872 0.97015 0.0
C93 C 0.87524 1.00749 0.03235 0.0
C94 C 0.85915 0.99575 0.87181 0.0
C95 C 0.88735 1.00262 0.88953 0.0
C96 C 0.83914 0.99482 0.93372 0.0
C97 C 0.7298 0.05136 0.94992 0.0
C98 C 0.70711 0.07669 0.84655 0.0
C99 C 0.67944 0.04824 0.94301 0.0
C100 C 0.70373 0.04138 0.98104 0.0
C101 C 0.68112 0.06509 0.87382 0.0
C102 C 0.73134 0.06984 0.88452 0.0
C103 C 0.75542 0.04008 0.97687 0.0
O104 O 0.74559 0.98425 0.16342 0.0
O105 O 0.76069 0.02428 0.22105 0.0
O106 O 0.76852 0.05302 0.03815 0.0
O107 O 0.75449 0.01259 0.98055 0.0
H108 H 0.69283 0.99121 0.14897 0.0
H109 H 0.64653 0.9906 0.21205 0.0
H110 H 0.68411 0.01688 0.44018 0.0
H111 H 0.73046 0.01734 0.37762 0.0
H112 H 0.9169 0.01413 0.98493 0.0
H113 H 0.88181 0.01191 0.09425 0.0
H114 H 0.85266 0.99112 0.80994 0.0
H115 H 0.81754 0.98951 0.91813 0.0
H116 H 0.70869 0.08949 0.79278 0.0
H117 H 0.65948 0.03894 0.96415 0.0
H118 H 0.70222 0.02707 0.03149 0.0
H119 H 0.75133 0.07765 0.85977 0.0
C120 C 0.55865 0.72768 0.30377 0.0
C121 C 0.56455 0.70545 0.25161 0.0
C122 C 0.55102 0.67197 0.35707 0.0
C123 C 0.56083 0.67775 0.27824 0.0
C124 C 0.5452 0.69418 0.40909 0.0
C125 C 0.54901 0.72184 0.38259 0.0
U126 U 0.55748 0.78282 0.13922 0.0
O127 O 0.54205 0.82474 0.14541 0.0
O128 O 0.58618 0.8204 0.12034 0.0
C129 C 0.56616 0.83733 0.12343 0.0
C130 C 0.56205 0.75697 0.27702 0.0
C131 C 0.56528 0.85633 0.05451 0.0
C132 C 0.56811 0.90354 1.00238 0.0
C133 C 0.56812 0.88526 0.0677 0.0
C134 C 0.56089 0.86412 0.91021 0.0
C135 C 0.56679 0.89349 0.92097 0.0
C136 C 0.56087 0.84583 0.97566 0.0
C137 C 0.5366 0.72205 0.99193 0.0
C138 C 0.53218 0.68491 0.89037 0.0
C139 C 0.51914 0.67481 0.02991 0.0
C140 C 0.52654 0.70288 0.0513 0.0
C141 C 0.52175 0.6658 0.94907 0.0
C142 C 0.53958 0.71283 0.9117 0.0
C143 C 0.54342 0.75186 1.0112 0.0
O144 O 0.58326 0.76356 0.22852 0.0
O145 O 0.53907 0.76751 0.25454 0.0
O146 O 0.52533 0.76379 0.05706 0.0
O147 O 0.56941 0.75906 0.0312 0.0
H148 H 0.57191 0.70951 0.19037 0.0
H149 H 0.56536 0.66082 0.23734 0.0
H150 H 0.53759 0.69003 0.47006 0.0
H151 H 0.54432 0.73871 0.42355 0.0
H152 H 0.56841 0.92551 1.01777 0.0
H153 H 0.57007 0.8938 0.12882 0.0
H154 H 0.5555 0.85473 0.852 0.0
H155 H 0.55713 0.82344 0.96476 0.0
H156 H 0.53425 0.67823 0.82773 0.0
H157 H 0.51104 0.66027 0.07579 0.0
H158 H 0.52406 0.70971 0.1136 0.0
H159 H 0.54731 0.72734 0.86525 0.0
C160 C 0.23282 0.50318 0.83988 0.0
C161 C 0.21575 0.52375 0.86718 0.0
C162 C 0.17894 0.50483 0.77676 0.0
C163 C 0.18894 0.52456 0.83578 0.0
C164 C 0.19595 0.48424 0.74984 0.0
C165 C 0.2227 0.48343 0.78125 0.0
U166 U 0.28692 0.51427 1.00902 0.0
O167 O 0.31836 0.48589 0.04158 0.0
O168 O 0.33149 0.52879 1.00394 0.0
C169 C 0.33903 0.50546 0.03504 0.0
C170 C 0.26105 0.5017 0.87201 0.0
C171 C 0.35705 0.50884 0.10669 0.0
C172 C 0.40022 0.5007 0.17393 0.0
C173 C 0.38368 0.49923 0.10431 0.0
C174 C 0.36372 0.52167 0.24877 0.0
C175 C 0.39024 0.51176 0.24665 0.0
C176 C 0.3472 0.5202 0.17919 0.0
C177 C 0.22922 0.54106 0.14218 0.0
C178 C 0.19593 0.56141 0.23091 0.0
C179 C 0.17968 0.53074 0.11952 0.0
C180 C 0.20723 0.52777 0.09663 0.0
C181 C 0.17396 0.54685 0.18844 0.0
C182 C 0.22342 0.55854 0.20783 0.0
C183 C 0.25808 0.53482 0.12747 0.0
O184 O 0.27564 0.52581 0.88565 0.0
O185 O 0.26319 0.4835 0.93009 0.0
O186 O 0.26183 0.50805 0.11949 0.0
O187 O 0.2723 0.5507 0.07469 0.0
H188 H 0.22314 0.53917 0.91254 0.0
H189 H 0.17603 0.54057 0.8572 0.0
H190 H 0.18853 0.4689 0.70429 0.0
H191 H 0.23555 0.46738 0.75964 0.0
H192 H 0.42065 0.49296 0.17144 0.0
H193 H 0.3915 0.49024 0.04899 0.0
H194 H 0.35574 0.53024 0.30447 0.0
H195 H 0.32659 0.52754 0.18216 0.0
H196 H 0.19182 0.57376 0.2845 0.0
H197 H 0.16291 0.51922 0.08654 0.0
H198 H 0.21136 0.51405 0.04606 0.0
H199 H 0.24016 0.56889 0.24359 0.0
C200 C 0.07658 0.21715 0.89275 0.0
C201 C 0.05207 0.20098 0.91489 0.0
C202 C 0.06506 0.16244 0.82908 0.0
C203 C 0.04641 0.17378 0.88351 0.0
C204 C 0.08982 0.17837 0.80833 0.0
C205 C 0.09556 0.20552 0.84012 0.0
U206 U 0.06702 0.27622 0.04628 0.0
O207 O 0.0594 0.32022 0.02538 0.0
O208 O 0.09726 0.31036 0.08795 0.0
C209 C 0.08129 0.32998 0.0675 0.0
C210 C 0.08207 0.24646 0.92113 0.0
C211 C 0.07574 0.35008 0.13262 0.0
C212 C 0.07908 0.39784 0.18569 0.0
C213 C 0.08494 0.37852 0.12485 0.0
C214 C 0.05507 0.36039 0.26332 0.0
C215 C 0.06394 0.38892 0.255 0.0
C216 C 0.06092 0.34108 0.20246 0.0
C217 C 0.02623 0.22037 0.17222 0.0
C218 C 0.99825 0.18703 0.2545 0.0
C219 C 0.0329 0.17076 0.16218 0.0
C220 C 0.03964 0.19826 0.13705 0.0
C221 C 0.01285 0.16519 0.22307 0.0
C222 C 1.00492 0.21452 0.22909 0.0
C223 C 0.0364 0.24961 0.15731 0.0
O224 O 0.06057 0.26154 0.92052 0.0
O225 O 0.0972 0.25037 0.98703 0.0
O226 O 0.0635 0.25491 0.16293 0.0
O227 O 0.02569 0.26155 0.09488 0.0
H228 H 0.03706 0.2096 0.95505 0.0
H229 H 0.02714 0.16184 0.8999 0.0
H230 H 0.10437 0.17001 0.7661 0.0
H231 H 0.11454 0.21767 0.82222 0.0
H232 H 0.08596 0.41982 0.17826 0.0
H233 H 0.0964 0.38581 0.07141 0.0
H234 H 0.04325 0.35321 0.31622 0.0
H235 H 0.05366 0.31917 0.20939 0.0
H236 H 0.98291 0.18302 0.30209 0.0
H237 H 0.04452 0.15411 0.13803 0.0
H238 H 0.05637 0.20246 0.09371 0.0
H239 H 0.99447 0.23137 0.25696 0.0
C240 C 0.31991 0.01842 0.90061 0.0
C241 C 0.34423 0.02565 0.94569 0.0
C242 C 0.37291 0.0181 0.82638 0.0
C243 C 0.3705 0.02552 0.90876 0.0
C244 C 0.34868 0.00997 0.78224 0.0
C245 C 0.32246 0.01022 0.81897 0.0
U246 U 0.2615 0.0101 0.06516 0.0
O247 O 0.23178 0.04083 0.09776 0.0
O248 O 0.2165 0.99976 0.04787 0.0
C249 C 0.20996 0.02321 0.08257 0.0
C250 C 0.29175 0.02141 0.93442 0.0
C251 C 0.18928 0.02008 0.14885 0.0
C252 C 0.144 0.029 0.20442 0.0
C253 C 0.16349 0.03123 0.14099 0.0
C254 C 0.17584 1.00436 0.2844 0.0
C255 C 0.15006 0.01561 0.27665 0.0
C256 C 0.19533 1.00659 0.22098 0.0
C257 C 0.31026 0.97441 0.21044 0.0
C258 C 0.33359 0.93679 0.27083 0.0
C259 C 0.35823 0.98274 0.25493 0.0
C260 C 0.33483 0.99231 0.21856 0.0
C261 C 0.35745 0.95519 0.2832 0.0
C262 C 0.31007 0.94642 0.23514 0.0
C263 C 0.28387 0.98516 0.18599 0.0
O264 O 0.27523 0.99827 0.94235 0.0
O265 O 0.28989 0.03919 0.99535 0.0
O266 O 0.28361 0.01254 0.1811 0.0
O267 O 0.26988 0.97133 0.12774 0.0
H268 H 0.34294 0.03203 1.00877 0.0
H269 H 0.38895 0.03181 0.94393 0.0
H270 H 0.35006 1.00414 0.71873 0.0
H271 H 0.30406 1.00467 0.78286 0.0
H272 H 0.12424 0.03781 0.19737 0.0
H273 H 0.15849 0.04178 0.08595 0.0
H274 H 0.18089 0.99398 0.33968 0.0
H275 H 0.21516 0.99795 0.22831 0.0
H276 H 0.33276 0.91544 0.29225 0.0
H277 H 0.37661 0.99712 0.2638 0.0
H278 H 0.33566 0.01397 0.19989 0.0
H279 H 0.29134 0.93231 0.22989 0.0
C280 C 0.46308 0.29529 0.85128 0.0
C281 C 0.44598 0.30373 0.7893 0.0
C282 C 0.47012 0.35046 0.79284 0.0
C283 C 0.44954 0.33111 0.75997 0.0
C284 C 0.48676 0.34225 0.85633 0.0
C285 C 0.48345 0.31479 0.8848 0.0
U286 U 0.4659 0.23937 1.01415 0.0
O287 O 0.43943 0.20009 0.0321 0.0
O288 O 0.48369 0.19876 1.0025 0.0
C289 C 0.46063 0.18462 0.02677 0.0
C290 C 0.46013 0.2659 0.87784 0.0
C291 C 0.464 0.16468 0.09317 0.0
C292 C 0.49046 0.12924 0.15307 0.0
C293 C 0.48624 0.14759 0.09011 0.0
C294 C 0.44975 0.14397 0.22267 0.0
C295 C 0.47233 0.12738 0.21991 0.0
C296 C 0.44565 0.16257 0.15996 0.0
C297 C 0.4842 0.29998 0.16232 0.0
C298 C 0.50122 0.33715 0.25527 0.0
C299 C 0.48302 0.34868 0.12419 0.0
C300 C 0.47741 0.32011 0.10642 0.0
C301 C 0.49474 0.35735 0.19911 0.0
C302 C 0.49613 0.30862 0.23673 0.0
C303 C 0.47915 0.26993 0.14374 0.0
O304 O 0.4833 0.25545 0.89901 0.0
O305 O 0.43919 0.25896 0.92703 0.0
O306 O 0.45339 0.26123 0.12468 0.0
O307 O 0.49769 0.25952 0.09607 0.0
H308 H 0.43024 0.28897 0.76245 0.0
H309 H 0.43663 0.33706 0.71067 0.0
H310 H 0.50281 0.35689 0.88215 0.0
H311 H 0.49713 0.30869 0.93204 0.0
H312 H 0.5079 0.11644 0.14973 0.0
H313 H 0.50055 0.1486 0.03916 0.0
H314 H 0.43545 0.14262 0.27361 0.0
H315 H 0.42822 0.17532 0.16413 0.0
H316 H 0.51028 0.34353 0.31331 0.0
H317 H 0.47784 0.36401 0.08027 0.0
H318 H 0.46764 0.3137 0.04951 0.0
H319 H 0.50143 0.29331 0.28055 0.0
Dy320 Dy 0.03003 0.98947 0.64829 0.0
C321 C 1.00175 0.06125 0.39772 0.0
C322 C 0.035 0.95211 0.76975 0.0
Dy323 Dy 1.007 0.02265 0.51549 0.0
O324 O 0.01311 0.95388 0.72583 0.0
O325 O 0.05434 0.97121 0.74849 0.0
O326 O 0.07406 1.00329 0.6128 0.0
O327 O 0.04327 0.9985 0.52377 0.0
C328 C 0.0683 1.00718 0.53723 0.0
C329 C 0.96914 1.0046 0.62841 0.0
O330 O 0.99907 0.98133 0.45279 0.0
O331 O 0.01134 0.95525 0.56302 0.0
O332 O 0.98776 0.05981 0.46508 0.0
O333 O 0.01817 0.0412 0.39384 0.0
O334 O 0.96336 1.00736 0.55209 0.0
O335 O 0.99408 0.0138 0.64097 0.0
O336 O 0.03142 0.03156 0.70995 0.0
O337 O 0.03243 0.05533 0.58927 0.0
C338 C 1.00155 0.95706 0.48817 0.0
C339 C 0.03594 0.05507 0.66873 0.0
Dy340 Dy 0.49848 0.98624 0.53348 0.0
C341 C 0.57973 0.06067 0.69122 0.0
C342 C 0.45474 0.95358 0.46638 0.0
Dy343 Dy 0.53495 0.03274 0.61728 0.0
O344 O 0.45491 0.96557 0.53752 0.0
O345 O 0.47866 0.95992 0.43194 0.0
O346 O 0.53646 0.96744 0.48374 0.0
O347 O 0.53717 0.01089 0.50144 0.0
C348 C 0.55175 0.9912 0.48172 0.0
C349 C 0.48192 0.02791 0.66929 0.0
O350 O 0.52232 0.0572 0.51174 0.0
O351 O 0.48475 0.02562 0.47829 0.0
O352 O 0.55911 0.04706 0.72802 0.0
O353 O 0.57507 0.06054 0.61371 0.0
O354 O 0.4973 0.05165 0.66793 0.0
O355 O 0.49641 1.00813 0.64965 0.0
O356 O 0.51164 0.96193 0.63902 0.0
O357 O 0.55048 0.99277 0.66195 0.0
C358 C 0.49946 0.05014 0.46938 0.0
C359 C 0.53571 0.96863 0.67542 0.0
Dy360 Dy 0.49869 0.52685 0.6444 0.0
C361 C 0.51484 0.46248 0.35635 0.0
C362 C 0.50029 0.56359 0.7723 0.0
Dy363 Dy 0.51954 0.49456 0.495 0.0
O364 O 0.4785 0.54728 0.75091 0.0
O365 O 0.5212 0.55911 0.72562 0.0
O366 O 0.45416 0.51836 0.60459 0.0
O367 O 0.48644 0.52148 0.51894 0.0
C368 C 0.46089 0.51474 0.5289 0.0
C369 C 0.55792 0.50768 0.6106 0.0
O370 O 0.52872 0.53775 0.44725 0.0
O371 O 0.51796 0.56178 0.56581 0.0
O372 O 0.53798 0.46934 0.39497 0.0
O373 O 0.49457 0.47251 0.396 0.0
O374 O 0.56404 0.50339 0.53445 0.0
O375 O 0.53235 0.5006 0.62064 0.0
O376 O 0.49214 0.48307 0.6921 0.0
O377 O 0.4995 0.45944 0.57029 0.0
C378 C 0.52748 0.56125 0.49003 0.0
C379 C 0.49187 0.45972 0.64773 0.0
Dy380 Dy 1.00504 0.4947 0.6237 0.0
C381 C 0.07033 0.54527 0.36296 0.0
C382 C 0.97021 0.48176 0.7503 0.0
Dy383 Dy 0.03402 0.52997 0.48543 0.0
O384 O 0.98874 0.46573 0.72309 0.0
O385 O 0.97137 0.50486 0.70966 0.0
O386 O 0.02241 0.45526 0.57564 0.0
O387 O 0.01531 0.48746 0.49718 0.0
C388 C 0.02639 0.4647 0.50227 0.0
C389 C 0.01447 0.56049 0.60753 0.0
O390 O 0.99026 0.52621 0.43684 0.0
O391 O 0.96845 0.50276 0.54653 0.0
O392 O 0.07259 0.55397 0.43758 0.0
O393 O 0.04755 0.52903 0.3545 0.0
O394 O 0.01817 0.56982 0.53399 0.0
O395 O 0.02468 0.53716 0.61237 0.0
O396 O 0.04702 0.50452 0.67765 0.0
O397 O 0.06862 0.51131 0.55285 0.0
C398 C 0.9677 0.51494 0.47497 0.0
C399 C 0.06977 0.507 0.63215 0.0
C400 C 0.12606 0.03719 0.39538 0.0
C401 C 0.12945 0.01348 0.34461 0.0
C402 C 0.09614 0.98488 0.42873 0.0
C403 C 0.09015 1.00926 0.4731 0.0
N404 N 0.09888 0.05884 0.49956 0.0
N405 N 0.11521 0.96562 0.30598 0.0
C406 C 0.10505 0.03549 0.45681 0.0
C407 C 0.11382 0.98754 0.35946 0.0
N408 N 0.14358 0.061 0.3865 0.0
N409 N 0.08606 0.959 0.45517 0.0
H410 H 0.128 0.96667 0.25472 0.0
H411 H 0.10201 0.94725 0.3087 0.0
H412 H 0.07334 0.95613 0.50625 0.0
H413 H 0.0922 0.94032 0.43071 0.0
H414 H 0.14428 0.07803 0.42654 0.0
H415 H 0.15904 0.06302 0.34202 0.0
H416 H 0.10644 0.07916 0.48475 0.0
H417 H 0.0849 0.05805 0.54802 0.0
C418 C 0.48619 0.11799 0.3635 0.0
C419 C 0.47704 0.10765 0.28629 0.0
C420 C 0.48373 0.05977 0.32748 0.0
C421 C 0.49063 0.06977 0.40724 0.0
N422 N 0.49151 0.10779 0.50552 0.0
N423 N 0.46047 0.06831 0.20168 0.0
C424 C 0.48985 0.09873 0.42661 0.0
C425 C 0.47368 0.07839 0.27055 0.0
N426 N 0.4924 0.14612 0.37592 0.0
N427 N 0.48829 0.03304 0.30386 0.0
H428 H 0.4526 0.08133 0.15881 0.0
H429 H 0.45484 0.04705 0.19128 0.0
H430 H 0.49677 0.01873 0.34139 0.0
H431 H 0.48641 0.02594 0.24398 0.0
H432 H 0.50208 0.1545 0.42822 0.0
H433 H 0.49015 0.16095 0.33123 0.0
H434 H 0.48822 0.12819 0.52356 0.0
H435 H 0.49321 0.09433 0.55401 0.0
C436 C 0.40964 0.48762 0.36544 0.0
C437 C 0.40745 0.5126 0.32123 0.0
C438 C 0.43602 0.53947 0.4226 0.0
C439 C 0.44076 0.5141 0.46155 0.0
N440 N 0.43384 0.46377 0.46907 0.0
N441 N 0.42118 0.56167 0.30094 0.0
C442 C 0.42795 0.48808 0.43292 0.0
C443 C 0.42128 0.53841 0.34813 0.0
N444 N 0.39363 0.46369 0.34415 0.0
N445 N 0.44504 0.56462 0.45796 0.0
H446 H 0.41053 0.56174 0.24609 0.0
H447 H 0.43343 0.58027 0.31265 0.0
H448 H 0.456 0.5662 0.51241 0.0
H449 H 0.43979 0.58388 0.437 0.0
H450 H 0.39208 0.44556 0.37859 0.0
H451 H 0.38014 0.46253 0.29479 0.0
H452 H 0.42816 0.44389 0.44502 0.0
H453 H 0.44595 0.46349 0.52117 0.0
C454 C 0.03429 0.42673 0.29945 0.0
C455 C 0.05602 0.40977 0.31672 0.0
C456 C 0.06158 0.4321 0.45139 0.0
C457 C 0.03955 0.44913 0.43408 0.0
N458 N 0.01452 0.47018 0.32641 0.0
N459 N 0.09421 0.39973 0.40143 0.0
C460 C 0.02875 0.44882 0.35369 0.0
C461 C 0.07081 0.41343 0.39064 0.0
N462 N 0.01823 0.4213 0.23203 0.0
N463 N 0.07426 0.43438 0.52528 0.0
H464 H 0.1013 0.38582 0.35837 0.0
H465 H 0.10774 0.40343 0.45003 0.0
H466 H 0.07171 0.45096 0.56526 0.0
H467 H 0.08732 0.42001 0.547 0.0
H468 H 0.99996 0.43084 0.2219 0.0
H469 H 0.02161 0.40543 0.19008 0.0
H470 H 1.00886 0.47203 0.26595 0.0
H471 H 0.01147 0.48796 0.36033 0.0
C472 C 0.92354 0.97955 0.80792 0.0
C473 C 0.90854 1.00333 0.82312 0.0
C474 C 0.93342 0.02817 0.71107 0.0
C475 C 0.94744 1.00385 0.69336 0.0
N476 N 0.95229 0.95491 0.71488 0.0
N477 N 0.89669 0.04924 0.78527 0.0
C478 C 0.94156 0.97914 0.73923 0.0
C479 C 0.91279 0.02736 0.7735 0.0
N480 N 0.92077 0.95742 0.85981 0.0
N481 N 0.94031 0.05229 0.66933 0.0
H482 H 0.88244 0.05005 0.83282 0.0
H483 H 0.89618 0.06589 0.74556 0.0
H484 H 0.95387 0.05326 0.61993 0.0
H485 H 0.93379 0.07173 0.68583 0.0
H486 H 0.93343 0.94089 0.85795 0.0
H487 H 0.90694 0.9564 0.90871 0.0
H488 H 0.94662 0.93538 0.73985 0.0
H489 H 0.96538 0.95393 0.66475 0.0
C490 C 0.57099 0.94294 0.86189 0.0
C491 C 0.56793 0.91356 0.8496 0.0
C492 C 0.55135 0.92119 0.7118 0.0
C493 C 0.54691 0.94929 0.73429 0.0
N494 N 0.55139 0.98635 0.83671 0.0
N495 N 0.57765 0.88177 0.74127 0.0
C496 C 0.55668 0.96013 0.81065 0.0
C497 C 0.56429 0.90414 0.76805 0.0
N498 N 0.59076 0.9547 0.91364 0.0
N499 N 0.54367 0.91074 0.63703 0.0
H500 H 0.59161 0.87241 0.77823 0.0
H501 H 0.57815 0.87534 0.68071 0.0
H502 H 0.53626 0.92292 0.59144 0.0
H503 H 0.54347 0.88951 0.62187 0.0
H504 H 0.5955 0.97633 0.91904 0.0
H505 H 0.60479 0.94257 0.94186 0.0
H506 H 0.55656 0.99382 0.8949 0.0
H507 H 0.53936 0.99932 0.8042 0.0
C508 C 0.59513 0.49567 0.80782 0.0
C509 C 0.62203 0.50873 0.79325 0.0
C510 C 0.60668 0.52404 0.66025 0.0
C511 C 0.57916 0.51206 0.6773 0.0
N512 N 0.54655 0.49896 0.78542 0.0
N513 N 0.65261 0.53961 0.71228 0.0
C514 C 0.57308 0.50136 0.75616 0.0
C515 C 0.62768 0.52403 0.72104 0.0
N516 N 0.59049 0.47788 0.87152 0.0
N517 N 0.6127 0.53622 0.58709 0.0
H518 H 0.66849 0.53986 0.75498 0.0
H519 H 0.65698 0.55382 0.66575 0.0
H520 H 0.59749 0.54141 0.54681 0.0
H521 H 0.6329 0.54116 0.56609 0.0
H522 H 0.57172 0.46573 0.87988 0.0
H523 H 0.60624 0.47311 0.91082 0.0
H524 H 0.54141 0.49238 0.84401 0.0
H525 H 0.53085 0.50888 0.75822 0.0
C526 C 0.01244 0.58886 0.82492 0.0
C527 C 0.99234 0.60854 0.81946 0.0
C528 C 0.98567 0.59647 0.67505 0.0
C529 C 1.00751 0.57828 0.67913 0.0
N530 N 0.0478 0.56594 0.75288 0.0
N531 N 0.96206 0.63404 0.73827 0.0
C532 C 0.02247 0.57664 0.75286 0.0
C533 C 0.97958 0.61318 0.74414 0.0
N534 N 0.02232 0.58206 0.89892 0.0
N535 N 0.97023 0.59745 0.60612 0.0
H536 H 0.95602 0.64569 0.78827 0.0
H537 H 0.95488 0.64107 0.68342 0.0
H538 H 0.97448 0.58685 0.55269 0.0
H539 H 0.95189 0.60733 0.60314 0.0
H540 H 0.03475 0.56557 0.90691 0.0
H541 H 0.01607 0.59118 0.95308 0.0
H542 H 0.06056 0.56628 0.8037 0.0
H543 H 0.05797 0.56071 0.69978 0.0
C544 C 0.98779 0.11767 0.24637 0.0
C545 C 0.01049 0.13768 0.26363 0.0
C546 C 0.02908 0.10581 0.36036 0.0
C547 C 1.00519 0.08675 0.34817 0.0
N548 N 0.96047 0.07502 0.28667 0.0
N549 N 0.0505 0.15308 0.34512 0.0
C550 C 0.98412 0.09281 0.29311 0.0
C551 C 0.03065 0.1323 0.32242 0.0
N552 N 0.97019 0.12228 0.18424 0.0
N553 N 0.05029 0.09872 0.4086 0.0
H554 H 0.05265 0.17281 0.31865 0.0
H555 H 0.06354 0.15172 0.39471 0.0
H556 H 0.04931 0.08055 0.44284 0.0
H557 H 0.06973 0.10997 0.41086 0.0
H558 H 0.95482 0.10741 0.16304 0.0
H559 H 0.97225 0.14043 0.14964 0.0
H560 H 0.94299 0.07961 0.25443 0.0
H561 H 0.95766 0.05614 0.31775 0.0
C562 C 0.37921 0.94675 0.41736 0.0
C563 C 0.38101 0.94649 0.33129 0.0
C564 C 0.42989 0.93658 0.33872 0.0
C565 C 0.42909 0.94208 0.42323 0.0
N566 N 0.40134 0.93677 0.5442 0.0
N567 N 0.40676 0.93871 0.20866 0.0
C568 C 0.40313 0.94217 0.46318 0.0
C569 C 0.4059 0.94015 0.29146 0.0
N570 N 0.35527 0.95321 0.45528 0.0
N571 N 0.45306 0.9266 0.30511 0.0
H572 H 0.38915 0.93988 0.17286 0.0
H573 H 0.42496 0.93746 0.17518 0.0
H574 H 0.46948 0.92105 0.34067 0.0
H575 H 0.45471 0.92061 0.24452 0.0
H576 H 0.35392 0.95713 0.51738 0.0
H577 H 0.33713 0.95654 0.42418 0.0
H578 H 0.38264 0.93448 0.57618 0.0
H579 H 0.41832 0.93088 0.57684 0.0
C580 C 0.52813 0.39973 0.2253 0.0
C581 C 0.50022 0.38759 0.21982 0.0
C582 C 0.4834 0.43191 0.26532 0.0
C583 C 0.51079 0.44132 0.28919 0.0
N584 N 0.55939 0.44107 0.2578 0.0
N585 N 0.4509 0.39186 0.23616 0.0
C586 C 0.5334 0.42729 0.2588 0.0
C587 C 0.47768 0.40378 0.23861 0.0
N588 N 0.54941 0.38454 0.20028 0.0
N589 N 0.46325 0.45025 0.26461 0.0
H590 H 0.44563 0.37117 0.21774 0.0
H591 H 0.43407 0.40187 0.25862 0.0
H592 H 0.46774 0.47169 0.27552 0.0
H593 H 0.4433 0.44507 0.24217 0.0
H594 H 0.57035 0.39063 0.2098 0.0
H595 H 0.54602 0.36513 0.17073 0.0
H596 H 0.57699 0.43275 0.23431 0.0
H597 H 0.56278 0.46234 0.27261 0.0
C598 C 0.13625 0.52147 0.27034 0.0
C599 C 0.14557 0.54522 0.22384 0.0
C600 C 0.1043 0.56865 0.26415 0.0
C601 C 0.09462 0.54454 0.30841 0.0
N602 N 0.09866 0.49612 0.34342 0.0
N603 N 0.137 0.58928 0.16443 0.0
C604 C 0.10963 0.52028 0.30763 0.0
C605 C 0.12908 0.56819 0.21696 0.0
N606 N 0.15357 0.50078 0.28318 0.0
N607 N 0.09013 0.59215 0.26891 0.0
H608 H 0.1551 0.58945 0.12948 0.0
H609 H 0.12473 0.6054 0.15066 0.0
H610 H 0.07133 0.59268 0.30022 0.0
H611 H 0.0976 0.61147 0.24564 0.0
H612 H 0.14947 0.48483 0.32497 0.0
H613 H 0.17324 0.50059 0.25687 0.0
H614 H 0.10678 0.47681 0.33527 0.0
H615 H 0.08029 0.49467 0.37702 0.0
C616 C 0.05701 0.88851 0.88082 0.0
C617 C 0.03146 0.88021 0.91971 0.0
C618 C 0.01407 0.92505 0.88569 0.0
C619 C 0.03697 0.93044 0.83217 0.0
N620 N 0.08034 0.9167 0.77625 0.0
N621 N 0.98518 0.89017 0.95996 0.0
C622 C 0.05889 0.91243 0.83036 0.0
C623 C 0.01 0.89859 0.92379 0.0
N624 N 0.07928 0.87319 0.89148 0.0
N625 N 0.9964 0.94539 0.90033 0.0
H626 H 0.98164 0.87121 0.99028 0.0
H627 H 0.96757 0.9012 0.95584 0.0
H628 H 0.99932 0.96524 0.8746 0.0
H629 H 0.98072 0.94366 0.94406 0.0
H630 H 0.09926 0.87952 0.87094 0.0
H631 H 0.07826 0.85549 0.92805 0.0
H632 H 0.09487 0.90221 0.76544 0.0
H633 H 0.08275 0.93375 0.73767 0.0
C634 C 0.65146 0.04562 0.75956 0.0
C635 C 0.6564 0.06626 0.82161 0.0
C636 C 0.6122 0.08551 0.79173 0.0
C637 C 0.60752 0.06524 0.72857 0.0
N638 N 0.62419 0.02834 0.64397 0.0
N639 N 0.64455 0.10846 0.88936 0.0
C640 C 0.62774 0.04621 0.70937 0.0
C641 C 0.63769 0.08709 0.83533 0.0
N642 N 0.66874 0.0245 0.75143 0.0
N643 N 0.59193 0.10275 0.8111 0.0
H644 H 0.66285 0.10979 0.92311 0.0
H645 H 0.63322 0.12585 0.89688 0.0
H646 H 0.57371 0.10313 0.77748 0.0
H647 H 0.59247 0.11576 0.86225 0.0
H648 H 0.66429 1.00667 0.71542 0.0
H649 H 0.68686 0.02362 0.78506 0.0
H650 H 0.63987 0.01697 0.62032 0.0
H651 H 0.60621 0.02585 0.60924 0.0
C652 C 0.53114 0.61541 0.92794 0.0
C653 C 0.51261 0.6367 0.92313 0.0
C654 C 0.48244 0.60762 0.83092 0.0
C655 C 0.50127 0.58639 0.83422 0.0
N656 N 0.53865 0.56655 0.90319 0.0
N657 N 0.46709 0.65015 0.89139 0.0
C658 C 0.52405 0.58917 0.88864 0.0
C659 C 0.48695 0.63166 0.8821 0.0
N660 N 0.55601 0.62073 0.96684 0.0
N661 N 0.46166 0.60615 0.77458 0.0
H662 H 0.47002 0.6681 0.92809 0.0
H663 H 0.4469 0.64631 0.86949 0.0
H664 H 0.45754 0.58932 0.73462 0.0
H665 H 0.44972 0.62273 0.76292 0.0
H666 H 0.57187 0.60732 0.96406 0.0
H667 H 0.56139 0.6394 0.99855 0.0
H668 H 0.55408 0.56647 0.94706 0.0
H669 H 0.53331 0.54688 0.87691 0.0
C670 C 0.91686 0.49696 0.90544 0.0
C671 C 0.89782 0.47287 0.89646 0.0
C672 C 0.93084 0.45014 0.81008 0.0
C673 C 0.9491 0.47509 0.81431 0.0
N674 N 0.9642 0.51756 0.88711 0.0
N675 N 0.88974 0.42376 0.86444 0.0
C676 C 0.94365 0.4969 0.8696 0.0
C677 C 0.90603 0.44842 0.85727 0.0
N678 N 0.90875 0.52043 0.94373 0.0
N679 N 0.93587 0.42905 0.75673 0.0
H680 H 0.87141 0.42222 0.89862 0.0
H681 H 0.89567 0.40452 0.84356 0.0
H682 H 0.95401 0.42877 0.72258 0.0
H683 H 0.92136 0.41227 0.7432 0.0
H684 H 0.92046 0.53976 0.94335 0.0
H685 H 0.88952 0.521 0.97254 0.0
H686 H 0.96235 0.53297 0.93152 0.0
H687 H 0.98419 0.51751 0.86261 0.0
C688 C 0.07168 0.111 0.81026 0.0
C689 C 0.05767 0.13471 0.78915 0.0
C690 C 0.02733 0.10531 0.69781 0.0
C691 C 0.04322 0.08221 0.71207 0.0
N692 N 0.08391 0.06465 0.77078 0.0
N693 N 0.02592 0.15571 0.70061 0.0
C694 C 0.0663 0.08541 0.76558 0.0
C695 C 0.03658 0.13223 0.72935 0.0
N696 N 0.08968 0.11273 0.87416 0.0
N697 N 1.00265 0.10138 0.65725 0.0
H698 H 0.0322 0.17591 0.72167 0.0
H699 H 0.01281 0.1554 0.65056 0.0
H700 H 0.99457 0.08189 0.63534 0.0
H701 H 0.98881 0.11682 0.65281 0.0
H702 H 0.09825 0.09538 0.89795 0.0
H703 H 0.09421 0.13114 0.90792 0.0
H704 H 0.10264 0.06701 0.80221 0.0
H705 H 0.08121 0.04597 0.73739 0.0
C706 C 0.40762 0.0417 0.72871 0.0
C707 C 0.40068 0.02005 0.78517 0.0
C708 C 0.44773 1.00458 0.77074 0.0
C709 C 0.45373 0.02441 0.70801 0.0
N710 N 0.43694 0.05801 0.61646 0.0
N711 N 0.41224 0.9775 0.8483 0.0
C712 C 0.43297 0.04191 0.68401 0.0
C713 C 0.42017 1.00044 0.80255 0.0
N714 N 0.39044 0.06269 0.71963 0.0
N715 N 0.46856 0.99093 0.80391 0.0
H716 H 0.39232 0.97383 0.87292 0.0
H717 H 0.42457 0.96089 0.85553 0.0
H718 H 0.4893 0.99437 0.78634 0.0
H719 H 0.46582 0.97849 0.85515 0.0
H720 H 0.39589 0.08066 0.6862 0.0
H721 H 0.37179 0.06346 0.75151 0.0
H722 H 0.42139 0.06885 0.59105 0.0
H723 H 0.45484 0.05831 0.5809 0.0
C724 C 0.50055 0.38541 0.71321 0.0
C725 C 0.47554 0.37879 0.75717 0.0
C726 C 0.46021 0.425 0.72577 0.0
C727 C 0.48629 0.43237 0.68819 0.0
N728 N 0.53381 0.42209 0.66445 0.0
N729 N 0.43367 0.39384 0.81798 0.0
C730 C 0.50721 0.41329 0.68713 0.0
C731 C 0.45593 0.39906 0.76717 0.0
N732 N 0.51751 0.36485 0.69366 0.0
N733 N 0.43921 0.44223 0.71926 0.0
H734 H 0.42998 0.37513 0.84955 0.0
H735 H 0.42027 0.40891 0.83425 0.0
H736 H 0.44154 0.4613 0.68904 0.0
H737 H 0.41886 0.43657 0.73784 0.0
H738 H 0.53442 0.36798 0.65429 0.0
H739 H 0.51319 0.34397 0.71022 0.0
H740 H 0.55046 0.40982 0.67065 0.0
H741 H 0.53988 0.44265 0.64761 0.0
C742 C 0.12877 0.48615 0.76645 0.0
C743 C 0.15072 0.50588 0.74193 0.0
C744 C 0.11862 0.52851 0.65478 0.0
C745 C 0.09746 0.50671 0.67132 0.0
N746 N 0.08386 0.46221 0.73441 0.0
N747 N 0.16793 0.54313 0.65314 0.0
C748 C 0.10286 0.48487 0.72521 0.0
C749 C 0.14605 0.52628 0.68326 0.0
N750 N 0.13249 0.46902 0.83045 0.0
N751 N 0.11231 0.55214 0.61568 0.0
H752 H 0.18832 0.5424 0.6731 0.0
H753 H 0.16622 0.5561 0.60351 0.0
H754 H 0.0923 0.55545 0.59692 0.0
H755 H 0.12628 0.56985 0.60969 0.0
H756 H 0.11636 0.45642 0.85706 0.0
H757 H 0.15125 0.46924 0.86171 0.0
H758 H 0.08807 0.44426 0.7654 0.0
H759 H 0.06472 0.46006 0.70512 0.0
C760 C 0.01035 0.89363 0.35267 0.0
C761 C 0.98561 0.87651 0.37048 0.0
C762 C 0.96966 0.91373 0.45887 0.0
C763 C 0.99448 0.93069 0.44122 0.0
N764 N 0.03432 0.94028 0.35411 0.0
N765 N 0.93931 0.87184 0.4269 0.0
C766 C 0.01352 0.92174 0.38256 0.0
C767 C 0.96453 0.88703 0.41981 0.0
N768 N 0.03139 0.88264 0.31036 0.0
N769 N 0.95093 0.92337 0.51254 0.0
H770 H 0.93482 0.85238 0.39842 0.0
H771 H 0.9221 0.8792 0.45574 0.0
H772 H 0.95249 0.94404 0.53391 0.0
H773 H 0.93425 0.91097 0.53698 0.0
H774 H 0.05115 0.89299 0.30372 0.0
H775 H 0.02991 0.86218 0.28716 0.0
H776 H 0.04707 0.93591 0.30526 0.0
H777 H 0.03718 0.96106 0.37422 0.0
C778 C 0.62668 0.97835 0.42419 0.0
C779 C 0.6339 1.00089 0.3709 0.0
C780 C 0.5866 0.01572 0.38414 0.0
C781 C 0.58017 0.99492 0.44406 0.0
N782 N 0.59649 0.95989 0.53191 0.0
N783 N 0.62252 0.04423 0.31228 0.0
C784 C 0.60089 0.97717 0.46701 0.0
C785 C 0.6144 0.02057 0.35472 0.0
N786 N 0.64404 0.95745 0.43196 0.0
N787 N 0.56595 0.02963 0.35103 0.0
H788 H 0.64262 0.04841 0.28934 0.0
H789 H 0.61012 0.06085 0.30635 0.0
H790 H 0.54508 0.0256 0.36629 0.0
H791 H 0.56905 0.04287 0.30159 0.0
H792 H 0.63847 0.93891 0.46261 0.0
H793 H 0.66306 0.95744 0.40166 0.0
H794 H 0.61199 0.94897 0.55725 0.0
H795 H 0.57814 0.95846 0.56548 0.0
C796 C 0.56463 0.63284 0.44399 0.0
C797 C 0.54644 0.64262 0.38557 0.0
C798 C 0.51895 0.59704 0.38493 0.0
C799 C 0.53515 0.58847 0.45044 0.0
N800 N 0.57209 0.5988 0.54733 0.0
N801 N 0.50429 0.63575 0.30724 0.0
C802 C 0.55762 0.60656 0.48144 0.0
C803 C 0.52319 0.6251 0.35725 0.0
N804 N 0.58903 0.64836 0.46182 0.0
N805 N 0.49936 0.57853 0.34932 0.0
H806 H 0.5066 0.65616 0.2854 0.0
H807 H 0.48516 0.6252 0.2925 0.0
H808 H 0.49418 0.55833 0.37026 0.0
H809 H 0.48946 0.58249 0.29527 0.0
H810 H 0.6046 0.64114 0.49738 0.0
H811 H 0.59487 0.66763 0.43512 0.0
H812 H 0.58636 0.61238 0.57885 0.0
H813 H 0.56866 0.57917 0.57395 0.0
C814 C 0.90647 0.49163 0.33653 0.0
C815 C 0.88927 0.51384 0.35052 0.0
C816 C 0.9216 0.5342 0.45381 0.0
C817 C 0.9403 0.51393 0.43389 0.0
N818 N 0.95003 0.47156 0.36322 0.0
N819 N 0.88225 0.55862 0.4125 0.0
C820 C 0.93264 0.4922 0.37664 0.0
C821 C 0.8974 0.53584 0.40621 0.0
N822 N 0.89712 0.46943 0.28788 0.0
N823 N 0.92609 0.55073 0.5214 0.0
H824 H 0.86437 0.5606 0.37849 0.0
H825 H 0.88877 0.57663 0.44579 0.0
H826 H 0.94253 0.54848 0.56077 0.0
H827 H 0.91187 0.56415 0.54358 0.0
H828 H 0.90724 0.45126 0.28026 0.0
H829 H 0.87818 0.46845 0.25737 0.0
H830 H 0.948 0.4571 0.31554 0.0
H831 H 0.96686 0.46897 0.4008 0.0
loop_
_geom_bond_atom_site_label_1
_geom_bond_atom_site_label_2
_geom_bond_distance
_geom_bond_site_symmetry_2
_ccdc_geom_bond_type
C0 C1 1.264 . S
C0 C5 1.479 . S
C0 C10 1.465 . S
C1 C0 1.264 . S
C1 C3 1.339 . S
C1 H28 0.931 . S
C2 C3 1.395 . S
C2 C4 1.320 . S
C3 C1 1.339 . S
C3 C2 1.395 . S
C3 H29 0.929 . S
C4 C2 1.320 . S
C4 C5 1.405 . S
C4 H30 0.930 . S
C5 C0 1.479 . S
C5 C4 1.405 . S
C5 H31 0.931 . S
U6 O7 2.454 . S
U6 O8 2.458 1_554 S
U6 C9 2.984 1_554 S
U6 C10 2.847 . S
U6 C23 2.882 1_554 S
U6 O24 2.441 . S
U6 O25 2.420 . S
U6 O26 2.455 1_554 S
U6 O27 2.449 1_554 S
O7 U6 2.454 . S
O7 C9 1.353 1_554 S
O8 U6 2.458 1_556 S
O8 C9 1.286 . S
C9 U6 2.984 1_556 S
C9 O7 1.353 1_556 S
C9 O8 1.286 . S
C9 C11 1.363 . S
C10 C0 1.465 . S
C10 U6 2.847 . S
C10 O24 1.249 . S
C10 O25 1.202 . S
C11 C9 1.363 . S
C11 C13 1.408 1_556 S
C11 C16 1.342 . S
C12 C13 1.310 . S
C12 C15 1.461 1_554 S
C12 H32 0.932 . S
C13 C11 1.408 1_554 S
C13 C12 1.310 . S
C13 H33 0.930 . S
C14 C15 1.474 . S
C14 C16 1.285 . S
C14 H34 0.929 . S
C15 C12 1.461 1_556 S
C15 C14 1.474 . S
C16 C11 1.342 . S
C16 C14 1.285 . S
C16 H35 0.930 . S
C17 C20 1.424 . S
C17 C22 1.245 . S
C17 C23 1.428 . S
C18 C21 1.260 . S
C18 C22 1.477 . S
C18 H36 0.932 . S
C19 C20 1.384 . S
C19 C21 1.479 . S
C19 H37 0.929 . S
C20 C17 1.424 . S
C20 C19 1.384 . S
C20 H38 0.928 . S
C21 C18 1.260 . S
C21 C19 1.479 . S
C22 C17 1.245 . S
C22 C18 1.477 . S
C22 H39 0.932 . S
C23 U6 2.882 1_556 S
C23 C17 1.428 . S
C23 O26 1.301 . S
C23 O27 1.282 . S
O24 U6 2.441 . S
O24 C10 1.249 . S
O25 U6 2.420 . S
O25 C10 1.202 . S
O26 U6 2.455 1_556 S
O26 C23 1.301 . S
O27 U6 2.449 1_556 S
O27 C23 1.282 . S
H28 C1 0.931 . S
H29 C3 0.929 . S
H30 C4 0.930 . S
H31 C5 0.931 . S
H32 C12 0.932 . S
H33 C13 0.930 . S
H34 C14 0.929 . S
H35 C16 0.930 . S
H36 C18 0.932 . S
H37 C19 0.929 . S
H38 C20 0.928 . S
H39 C22 0.932 . S
C40 C41 1.264 . S
C40 C45 1.479 . S
C40 C50 1.465 . S
C41 C40 1.264 . S
C41 C43 1.339 . S
C41 H68 0.931 . S
C42 C43 1.395 . S
C42 C44 1.320 . S
C43 C41 1.339 . S
C43 C42 1.395 . S
C43 H69 0.929 . S
C44 C42 1.320 . S
C44 C45 1.405 . S
C44 H70 0.930 . S
C45 C40 1.479 . S
C45 C44 1.405 . S
C45 H71 0.931 . S
U46 O47 2.454 . S
U46 O48 2.458 1_554 S
U46 C49 2.984 1_554 S
U46 C50 2.847 . S
U46 C63 2.882 1_554 S
U46 O64 2.441 . S
U46 O65 2.420 . S
U46 O66 2.455 1_554 S
U46 O67 2.449 1_554 S
O47 U46 2.454 . S
O47 C49 1.353 1_554 S
O48 U46 2.458 1_556 S
O48 C49 1.286 . S
C49 U46 2.984 1_556 S
C49 O47 1.353 1_556 S
C49 O48 1.286 . S
C49 C51 1.363 . S
C50 C40 1.465 . S
C50 U46 2.847 . S
C50 O64 1.249 . S
C50 O65 1.202 . S
C51 C49 1.363 . S
C51 C53 1.408 1_556 S
C51 C56 1.342 . S
C52 C53 1.310 1_556 S
C52 C55 1.461 . S
C52 H72 0.932 1_556 S
C53 C51 1.408 1_554 S
C53 C52 1.310 1_554 S
C53 H73 0.930 . S
C54 C55 1.474 . S
C54 C56 1.285 . S
C54 H74 0.929 . S
C55 C52 1.461 . S
C55 C54 1.474 . S
C56 C51 1.342 . S
C56 C54 1.285 . S
C56 H75 0.930 . S
C57 C60 1.424 . S
C57 C62 1.245 . S
C57 C63 1.428 . S
C58 C61 1.260 . S
C58 C62 1.477 . S
C58 H76 0.932 . S
C59 C60 1.384 . S
C59 C61 1.479 . S
C59 H77 0.929 . S
C60 C57 1.424 . S
C60 C59 1.384 . S
C60 H78 0.928 . S
C61 C58 1.260 . S
C61 C59 1.479 . S
C62 C57 1.245 . S
C62 C58 1.477 . S
C62 H79 0.932 . S
C63 U46 2.882 1_556 S
C63 C57 1.428 . S
C63 O66 1.301 . S
C63 O67 1.282 . S
O64 U46 2.441 . S
O64 C50 1.249 . S
O65 U46 2.420 . S
O65 C50 1.202 . S
O66 U46 2.455 1_556 S
O66 C63 1.301 . S
O67 U46 2.449 1_556 S
O67 C63 1.282 . S
H68 C41 0.931 . S
H69 C43 0.929 . S
H70 C44 0.930 . S
H71 C45 0.931 . S
H72 C52 0.932 1_554 S
H73 C53 0.930 . S
H74 C54 0.929 . S
H75 C56 0.930 . S
H76 C58 0.932 . S
H77 C59 0.929 . S
H78 C60 0.928 . S
H79 C62 0.932 . S
C80 C81 1.264 . S
C80 C85 1.479 . S
C80 C90 1.465 . S
C81 C80 1.264 . S
C81 C83 1.339 . S
C81 H108 0.931 . S
C82 C83 1.395 . S
C82 C84 1.320 . S
C83 C81 1.339 . S
C83 C82 1.395 . S
C83 H109 0.929 . S
C84 C82 1.320 . S
C84 C85 1.405 . S
C84 H110 0.930 1_545 S
C85 C80 1.479 . S
C85 C84 1.405 . S
C85 H111 0.931 . S
U86 O87 2.454 . S
U86 O88 2.458 1_554 S
U86 C89 2.984 1_554 S
U86 C90 2.847 . S
U86 C103 2.882 1_554 S
U86 O104 2.441 . S
U86 O105 2.420 . S
U86 O106 2.455 1_554 S
U86 O107 2.449 1_554 S
O87 U86 2.454 . S
O87 C89 1.353 1_554 S
O88 U86 2.458 1_556 S
O88 C89 1.286 . S
C89 U86 2.984 1_556 S
C89 O87 1.353 1_556 S
C89 O88 1.286 . S
C89 C91 1.363 . S
C90 C80 1.465 . S
C90 U86 2.847 . S
C90 O104 1.249 . S
C90 O105 1.202 . S
C91 C89 1.363 . S
C91 C93 1.408 1_556 S
C91 C96 1.342 . S
C92 C93 1.310 . S
C92 C95 1.461 1_554 S
C92 H112 0.932 . S
C93 C91 1.408 1_554 S
C93 C92 1.310 . S
C93 H113 0.930 . S
C94 C95 1.475 1_565 S
C94 C96 1.284 1_565 S
C94 H114 0.930 . S
C95 C92 1.461 1_556 S
C95 C94 1.475 1_545 S
C96 C91 1.342 . S
C96 C94 1.284 1_545 S
C96 H115 0.929 . S
C97 C100 1.424 . S
C97 C102 1.245 . S
C97 C103 1.428 . S
C98 C101 1.260 . S
C98 C102 1.477 . S
C98 H116 0.932 . S
C99 C100 1.384 . S
C99 C101 1.479 . S
C99 H117 0.929 . S
C100 C97 1.424 . S
C100 C99 1.384 . S
C100 H118 0.928 . S
C101 C98 1.260 . S
C101 C99 1.479 . S
C102 C97 1.245 . S
C102 C98 1.477 . S
C102 H119 0.932 . S
C103 U86 2.882 1_556 S
C103 C97 1.428 . S
C103 O106 1.301 . S
C103 O107 1.282 . S
O104 U86 2.441 . S
O104 C90 1.249 . S
O105 U86 2.420 . S
O105 C90 1.202 . S
O106 U86 2.455 1_556 S
O106 C103 1.301 . S
O107 U86 2.449 1_556 S
O107 C103 1.282 . S
H108 C81 0.931 . S
H109 C83 0.929 . S
H110 C84 0.930 1_565 S
H111 C85 0.931 . S
H112 C92 0.932 . S
H113 C93 0.930 . S
H114 C94 0.930 . S
H115 C96 0.929 . S
H116 C98 0.932 . S
H117 C99 0.929 . S
H118 C100 0.928 . S
H119 C102 0.932 . S
C120 C121 1.264 . S
C120 C125 1.479 . S
C120 C130 1.465 . S
C121 C120 1.264 . S
C121 C123 1.339 . S
C121 H148 0.931 . S
C122 C123 1.395 . S
C122 C124 1.320 . S
C123 C121 1.339 . S
C123 C122 1.395 . S
C123 H149 0.929 . S
C124 C122 1.320 . S
C124 C125 1.405 . S
C124 H150 0.930 . S
C125 C120 1.479 . S
C125 C124 1.405 . S
C125 H151 0.931 . S
U126 O127 2.454 . S
U126 O128 2.458 1_554 S
U126 C129 2.984 . S
U126 C130 2.847 . S
U126 C143 2.882 1_554 S
U126 O144 2.441 . S
U126 O145 2.420 . S
U126 O146 2.455 1_554 S
U126 O147 2.449 . S
O127 U126 2.454 . S
O127 C129 1.353 . S
O128 U126 2.458 1_556 S
O128 C129 1.286 1_556 S
C129 U126 2.984 . S
C129 O127 1.353 . S
C129 O128 1.286 1_554 S
C129 C131 1.363 . S
C130 C120 1.465 . S
C130 U126 2.847 . S
C130 O144 1.249 . S
C130 O145 1.202 . S
C131 C129 1.363 . S
C131 C133 1.408 . S
C131 C136 1.342 1_554 S
C132 C133 1.310 . S
C132 C135 1.461 1_554 S
C132 H152 0.932 . S
C133 C131 1.408 . S
C133 C132 1.310 . S
C133 H153 0.930 . S
C134 C135 1.474 . S
C134 C136 1.285 . S
C134 H154 0.929 . S
C135 C132 1.461 1_556 S
C135 C134 1.474 . S
C136 C131 1.342 1_556 S
C136 C134 1.285 . S
C136 H155 0.930 . S
C137 C140 1.424 . S
C137 C142 1.245 . S
C137 C143 1.428 . S
C138 C141 1.260 . S
C138 C142 1.477 . S
C138 H156 0.932 . S
C139 C140 1.384 . S
C139 C141 1.479 . S
C139 H157 0.929 . S
C140 C137 1.424 . S
C140 C139 1.384 . S
C140 H158 0.928 . S
C141 C138 1.260 . S
C141 C139 1.479 . S
C142 C137 1.245 . S
C142 C138 1.477 . S
C142 H159 0.932 . S
C143 U126 2.882 1_556 S
C143 C137 1.428 . S
C143 O146 1.301 . S
C143 O147 1.282 1_556 S
O144 U126 2.441 . S
O144 C130 1.249 . S
O145 U126 2.420 . S
O145 C130 1.202 . S
O146 U126 2.455 1_556 S
O146 C143 1.301 . S
O147 U126 2.449 . S
O147 C143 1.282 1_554 S
H148 C121 0.931 . S
H149 C123 0.929 . S
H150 C124 0.930 . S
H151 C125 0.931 . S
H152 C132 0.932 . S
H153 C133 0.930 . S
H154 C134 0.929 . S
H155 C136 0.930 . S
H156 C138 0.932 . S
H157 C139 0.929 . S
H158 C140 0.928 . S
H159 C142 0.932 . S
C160 C161 1.264 . S
C160 C165 1.479 . S
C160 C170 1.465 . S
C161 C160 1.264 . S
C161 C163 1.339 . S
C161 H188 0.931 . S
C162 C163 1.395 . S
C162 C164 1.320 . S
C163 C161 1.339 . S
C163 C162 1.395 . S
C163 H189 0.929 . S
C164 C162 1.320 . S
C164 C165 1.405 . S
C164 H190 0.930 . S
C165 C160 1.479 . S
C165 C164 1.405 . S
C165 H191 0.931 . S
U166 O167 2.454 . S
U166 O168 2.458 . S
U166 C169 2.984 . S
U166 C170 2.847 1_554 S
U166 C183 2.882 . S
U166 O184 2.441 1_554 S
U166 O185 2.420 1_554 S
U166 O186 2.455 . S
U166 O187 2.449 . S
O167 U166 2.454 . S
O167 C169 1.353 . S
O168 U166 2.458 . S
O168 C169 1.286 . S
C169 U166 2.984 . S
C169 O167 1.353 . S
C169 O168 1.286 . S
C169 C171 1.363 . S
C170 C160 1.465 . S
C170 U166 2.847 1_556 S
C170 O184 1.249 . S
C170 O185 1.202 . S
C171 C169 1.363 . S
C171 C173 1.408 . S
C171 C176 1.342 . S
C172 C173 1.310 . S
C172 C175 1.461 . S
C172 H192 0.932 . S
C173 C171 1.408 . S
C173 C172 1.310 . S
C173 H193 0.930 . S
C174 C175 1.474 . S
C174 C176 1.285 . S
C174 H194 0.929 . S
C175 C172 1.461 . S
C175 C174 1.474 . S
C176 C171 1.342 . S
C176 C174 1.285 . S
C176 H195 0.930 . S
C177 C180 1.424 . S
C177 C182 1.245 . S
C177 C183 1.428 . S
C178 C181 1.260 . S
C178 C182 1.477 . S
C178 H196 0.932 . S
C179 C180 1.384 . S
C179 C181 1.479 . S
C179 H197 0.929 . S
C180 C177 1.424 . S
C180 C179 1.384 . S
C180 H198 0.928 . S
C181 C178 1.260 . S
C181 C179 1.479 . S
C182 C177 1.245 . S
C182 C178 1.477 . S
C182 H199 0.932 . S
C183 U166 2.882 . S
C183 C177 1.428 . S
C183 O186 1.301 . S
C183 O187 1.282 . S
O184 U166 2.441 1_556 S
O184 C170 1.249 . S
O185 U166 2.420 1_556 S
O185 C170 1.202 . S
O186 U166 2.455 . S
O186 C183 1.301 . S
O187 U166 2.449 . S
O187 C183 1.282 . S
H188 C161 0.931 . S
H189 C163 0.929 . S
H190 C164 0.930 . S
H191 C165 0.931 . S
H192 C172 0.932 . S
H193 C173 0.930 . S
H194 C174 0.929 . S
H195 C176 0.930 . S
H196 C178 0.932 . S
H197 C179 0.929 . S
H198 C180 0.928 . S
H199 C182 0.932 . S
C200 C201 1.264 . S
C200 C205 1.479 . S
C200 C210 1.465 . S
C201 C200 1.264 . S
C201 C203 1.339 . S
C201 H228 0.931 . S
C202 C203 1.395 . S
C202 C204 1.320 . S
C203 C201 1.339 . S
C203 C202 1.395 . S
C203 H229 0.929 . S
C204 C202 1.320 . S
C204 C205 1.405 . S
C204 H230 0.930 . S
C205 C200 1.479 . S
C205 C204 1.405 . S
C205 H231 0.931 . S
U206 O207 2.454 . S
U206 O208 2.458 . S
U206 C209 2.984 . S
U206 C210 2.847 1_554 S
U206 C223 2.882 . S
U206 O224 2.441 1_554 S
U206 O225 2.420 1_554 S
U206 O226 2.455 . S
U206 O227 2.449 . S
O207 U206 2.454 . S
O207 C209 1.353 . S
O208 U206 2.458 . S
O208 C209 1.286 . S
C209 U206 2.984 . S
C209 O207 1.353 . S
C209 O208 1.286 . S
C209 C211 1.363 . S
C210 C200 1.465 . S
C210 U206 2.847 1_556 S
C210 O224 1.249 . S
C210 O225 1.202 . S
C211 C209 1.363 . S
C211 C213 1.408 . S
C211 C216 1.342 . S
C212 C213 1.310 . S
C212 C215 1.461 . S
C212 H232 0.932 . S
C213 C211 1.408 . S
C213 C212 1.310 . S
C213 H233 0.930 . S
C214 C215 1.474 . S
C214 C216 1.285 . S
C214 H234 0.929 . S
C215 C212 1.461 . S
C215 C214 1.474 . S
C216 C211 1.342 . S
C216 C214 1.285 . S
C216 H235 0.930 . S
C217 C220 1.424 . S
C217 C222 1.245 . S
C217 C223 1.428 . S
C218 C221 1.260 . S
C218 C222 1.477 . S
C218 H236 0.932 . S
C219 C220 1.384 . S
C219 C221 1.479 . S
C219 H237 0.929 . S
C220 C217 1.424 . S
C220 C219 1.384 . S
C220 H238 0.928 . S
C221 C218 1.260 . S
C221 C219 1.479 . S
C222 C217 1.245 . S
C222 C218 1.477 . S
C222 H239 0.932 . S
C223 U206 2.882 . S
C223 C217 1.428 . S
C223 O226 1.301 . S
C223 O227 1.282 . S
O224 U206 2.441 1_556 S
O224 C210 1.249 . S
O225 U206 2.420 1_556 S
O225 C210 1.202 . S
O226 U206 2.455 . S
O226 C223 1.301 . S
O227 U206 2.449 . S
O227 C223 1.282 . S
H228 C201 0.931 . S
H229 C203 0.929 . S
H230 C204 0.930 . S
H231 C205 0.931 . S
H232 C212 0.932 . S
H233 C213 0.930 . S
H234 C214 0.929 . S
H235 C216 0.930 . S
H236 C218 0.932 . S
H237 C219 0.929 . S
H238 C220 0.928 . S
H239 C222 0.932 . S
C240 C241 1.264 . S
C240 C245 1.479 . S
C240 C250 1.465 . S
C241 C240 1.264 . S
C241 C243 1.339 . S
C241 H268 0.931 . S
C242 C243 1.395 . S
C242 C244 1.320 . S
C243 C241 1.339 . S
C243 C242 1.395 . S
C243 H269 0.929 . S
C244 C242 1.320 . S
C244 C245 1.405 . S
C244 H270 0.926 1_545 S
C245 C240 1.479 . S
C245 C244 1.405 . S
C245 H271 0.931 . S
U246 O247 2.454 . S
U246 O248 2.458 . S
U246 C249 2.984 . S
U246 C250 2.847 1_554 S
U246 C263 2.882 . S
U246 O264 2.441 1_554 S
U246 O265 2.420 1_554 S
U246 O266 2.455 . S
U246 O267 2.449 . S
O247 U246 2.454 . S
O247 C249 1.353 . S
O248 U246 2.458 . S
O248 C249 1.286 . S
C249 U246 2.984 . S
C249 O247 1.353 . S
C249 O248 1.286 . S
C249 C251 1.363 . S
C250 C240 1.465 . S
C250 U246 2.847 1_556 S
C250 O264 1.249 . S
C250 O265 1.202 . S
C251 C249 1.363 . S
C251 C253 1.408 . S
C251 C256 1.342 . S
C252 C253 1.310 . S
C252 C255 1.462 . S
C252 H272 0.932 . S
C253 C251 1.408 . S
C253 C252 1.310 . S
C253 H273 0.930 . S
C254 C255 1.472 1_565 S
C254 C256 1.285 1_565 S
C254 H274 0.929 . S
C255 C252 1.462 . S
C255 C254 1.472 1_545 S
C256 C251 1.342 . S
C256 C254 1.285 1_545 S
C256 H275 0.930 . S
C257 C260 1.424 . S
C257 C262 1.245 . S
C257 C263 1.428 . S
C258 C261 1.260 . S
C258 C262 1.477 . S
C258 H276 0.932 . S
C259 C260 1.384 . S
C259 C261 1.479 . S
C259 H277 0.929 . S
C260 C257 1.424 . S
C260 C259 1.384 . S
C260 H278 0.928 . S
C261 C258 1.260 . S
C261 C259 1.479 . S
C262 C257 1.245 . S
C262 C258 1.477 . S
C262 H279 0.932 . S
C263 U246 2.882 . S
C263 C257 1.428 . S
C263 O266 1.301 . S
C263 O267 1.282 . S
O264 U246 2.441 1_556 S
O264 C250 1.249 . S
O265 U246 2.420 1_556 S
O265 C250 1.202 . S
O266 U246 2.455 . S
O266 C263 1.301 . S
O267 U246 2.449 . S
O267 C263 1.282 . S
H268 C241 0.931 . S
H269 C243 0.929 . S
H270 C244 0.926 1_565 S
H271 C245 0.931 . S
H272 C252 0.932 . S
H273 C253 0.930 . S
H274 C254 0.929 . S
H275 C256 0.930 . S
H276 C258 0.932 . S
H277 C259 0.929 . S
H278 C260 0.928 . S
H279 C262 0.932 . S
C280 C281 1.264 . S
C280 C285 1.479 . S
C280 C290 1.465 . S
C281 C280 1.264 . S
C281 C283 1.339 . S
C281 H308 0.931 . S
C282 C283 1.395 . S
C282 C284 1.320 . S
C283 C281 1.339 . S
C283 C282 1.395 . S
C283 H309 0.929 . S
C284 C282 1.320 . S
C284 C285 1.405 . S
C284 H310 0.930 . S
C285 C280 1.479 . S
C285 C284 1.405 . S
C285 H311 0.931 . S
U286 O287 2.454 . S
U286 O288 2.458 . S
U286 C289 2.984 . S
U286 C290 2.847 1_554 S
U286 C303 2.882 . S
U286 O304 2.441 1_554 S
U286 O305 2.420 1_554 S
U286 O306 2.455 . S
U286 O307 2.449 . S
O287 U286 2.454 . S
O287 C289 1.353 . S
O288 U286 2.458 . S
O288 C289 1.286 . S
C289 U286 2.984 . S
C289 O287 1.353 . S
C289 O288 1.286 . S
C289 C291 1.363 . S
C290 C280 1.465 . S
C290 U286 2.847 1_556 S
C290 O304 1.249 . S
C290 O305 1.202 . S
C291 C289 1.363 . S
C291 C293 1.408 . S
C291 C296 1.342 . S
C292 C293 1.310 . S
C292 C295 1.461 . S
C292 H312 0.932 . S
C293 C291 1.408 . S
C293 C292 1.310 . S
C293 H313 0.930 1_554 S
C294 C295 1.474 . S
C294 C296 1.285 . S
C294 H314 0.929 . S
C295 C292 1.461 . S
C295 C294 1.474 . S
C296 C291 1.342 . S
C296 C294 1.285 . S
C296 H315 0.930 . S
C297 C300 1.424 . S
C297 C302 1.245 . S
C297 C303 1.428 . S
C298 C301 1.260 . S
C298 C302 1.477 . S
C298 H316 0.932 . S
C299 C300 1.384 . S
C299 C301 1.479 . S
C299 H317 0.929 . S
C300 C297 1.424 . S
C300 C299 1.384 . S
C300 H318 0.928 . S
C301 C298 1.260 . S
C301 C299 1.479 . S
C302 C297 1.245 . S
C302 C298 1.477 . S
C302 H319 0.932 . S
C303 U286 2.882 . S
C303 C297 1.428 . S
C303 O306 1.301 . S
C303 O307 1.282 . S
O304 U286 2.441 1_556 S
O304 C290 1.249 . S
O305 U286 2.420 1_556 S
O305 C290 1.202 . S
O306 U286 2.455 . S
O306 C303 1.301 . S
O307 U286 2.449 . S
O307 C303 1.282 . S
H308 C281 0.931 . S
H309 C283 0.929 . S
H310 C284 0.930 . S
H311 C285 0.931 . S
H312 C292 0.932 . S
H313 C293 0.930 1_556 S
H314 C294 0.929 . S
H315 C296 0.930 . S
H316 C298 0.932 . S
H317 C299 0.929 . S
H318 C300 0.928 . S
H319 C302 0.932 . S
Dy320 O324 2.398 . S
Dy320 O325 2.491 1_455 S
Dy320 O326 2.403 . S
Dy320 O327 2.664 1_565 S
Dy320 O331 2.326 . S
Dy320 O335 2.310 1_455 S
Dy320 O336 2.351 1_565 S
C321 O332 1.185 1_455 S
C321 O333 1.355 . S
C322 O324 1.185 . S
C322 O325 1.355 1_455 S
Dy323 O327 2.310 1_655 S
Dy323 O330 2.351 1_545 S
Dy323 O332 2.398 . S
Dy323 O333 2.491 1_655 S
Dy323 O334 2.403 . S
Dy323 O335 2.664 1_545 S
Dy323 O337 2.326 1_655 S
O324 Dy320 2.398 . S
O324 C322 1.185 . S
O325 Dy320 2.491 1_655 S
O325 C322 1.355 1_655 S
O326 Dy320 2.403 . S
O326 C328 1.254 . S
O327 Dy320 2.664 1_545 S
O327 Dy323 2.310 1_455 S
O327 C328 1.268 1_545 S
C328 O326 1.254 . S
C328 O327 1.268 1_565 S
C329 O334 1.254 . S
C329 O335 1.268 1_545 S
O330 Dy323 2.351 1_565 S
O330 C338 1.249 . S
O331 Dy320 2.326 . S
O331 C338 1.267 1_455 S
O332 C321 1.185 1_655 S
O332 Dy323 2.398 . S
O333 C321 1.355 . S
O333 Dy323 2.491 1_455 S
O334 Dy323 2.403 . S
O334 C329 1.254 . S
O335 Dy320 2.310 1_655 S
O335 Dy323 2.664 1_565 S
O335 C329 1.268 1_565 S
O336 Dy320 2.351 1_545 S
O336 C339 1.249 . S
O337 Dy323 2.326 1_455 S
O337 C339 1.267 . S
C338 O330 1.249 . S
C338 O331 1.267 1_655 S
C339 O336 1.249 . S
C339 O337 1.267 . S
Dy340 O344 2.398 . S
Dy340 O345 2.491 . S
Dy340 O346 2.403 . S
Dy340 O347 2.664 . S
Dy340 O351 2.326 1_565 S
Dy340 O355 2.310 1_565 S
Dy340 O356 2.351 . S
C341 O352 1.185 . S
C341 O353 1.355 . S
C342 O344 1.185 . S
C342 O345 1.355 . S
Dy343 O347 2.310 1_545 S
Dy343 O350 2.351 . S
Dy343 O352 2.398 . S
Dy343 O353 2.491 . S
Dy343 O354 2.403 . S
Dy343 O355 2.664 . S
Dy343 O357 2.326 1_545 S
O344 Dy340 2.398 . S
O344 C342 1.185 . S
O345 Dy340 2.491 . S
O345 C342 1.355 . S
O346 Dy340 2.403 . S
O346 C348 1.254 . S
O347 Dy340 2.664 . S
O347 Dy343 2.310 1_565 S
O347 C348 1.268 . S
C348 O346 1.254 . S
C348 O347 1.268 . S
C349 O354 1.254 . S
C349 O355 1.268 . S
O350 Dy343 2.351 . S
O350 C358 1.249 . S
O351 Dy340 2.326 1_545 S
O351 C358 1.267 . S
O352 C341 1.185 . S
O352 Dy343 2.398 . S
O353 C341 1.355 . S
O353 Dy343 2.491 . S
O354 Dy343 2.403 . S
O354 C349 1.254 . S
O355 Dy340 2.310 1_545 S
O355 Dy343 2.664 . S
O355 C349 1.268 . S
O356 Dy340 2.351 . S
O356 C359 1.249 . S
O357 Dy343 2.326 1_565 S
O357 C359 1.267 . S
C358 O350 1.249 . S
C358 O351 1.267 . S
C359 O356 1.249 . S
C359 O357 1.267 . S
Dy360 O364 2.398 . S
Dy360 O365 2.491 . S
Dy360 O366 2.403 . S
Dy360 O367 2.664 . S
Dy360 O371 2.326 . S
Dy360 O375 2.310 . S
Dy360 O376 2.351 . S
C361 O372 1.185 . S
C361 O373 1.355 . S
C362 O364 1.185 . S
C362 O365 1.355 . S
Dy363 O367 2.310 . S
Dy363 O370 2.351 . S
Dy363 O372 2.398 . S
Dy363 O373 2.491 . S
Dy363 O374 2.403 . S
Dy363 O375 2.664 . S
Dy363 O377 2.326 . S
O364 Dy360 2.398 . S
O364 C362 1.185 . S
O365 Dy360 2.491 . S
O365 C362 1.355 . S
O366 Dy360 2.403 . S
O366 C368 1.254 . S
O367 Dy360 2.664 . S
O367 Dy363 2.310 . S
O367 C368 1.268 . S
C368 O366 1.254 . S
C368 O367 1.268 . S
C369 O374 1.254 . S
C369 O375 1.268 . S
O370 Dy363 2.351 . S
O370 C378 1.249 . S
O371 Dy360 2.326 . S
O371 C378 1.267 . S
O372 C361 1.185 . S
O372 Dy363 2.398 . S
O373 C361 1.355 . S
O373 Dy363 2.491 . S
O374 Dy363 2.403 . S
O374 C369 1.254 . S
O375 Dy360 2.310 . S
O375 Dy363 2.664 . S
O375 C369 1.268 . S
O376 Dy360 2.351 . S
O376 C379 1.249 . S
O377 Dy363 2.326 . S
O377 C379 1.267 . S
C378 O370 1.249 . S
C378 O371 1.267 . S
C379 O376 1.249 . S
C379 O377 1.267 . S
Dy380 O384 2.398 . S
Dy380 O385 2.491 . S
Dy380 O386 2.403 1_655 S
Dy380 O387 2.664 1_655 S
Dy380 O391 2.326 . S
Dy380 O395 2.310 . S
Dy380 O396 2.351 1_655 S
C381 O392 1.185 . S
C381 O393 1.355 . S
C382 O384 1.185 . S
C382 O385 1.355 . S
Dy383 O387 2.310 . S
Dy383 O390 2.351 1_455 S
Dy383 O392 2.398 . S
Dy383 O393 2.491 . S
Dy383 O394 2.403 . S
Dy383 O395 2.664 1_455 S
Dy383 O397 2.326 . S
O384 Dy380 2.398 . S
O384 C382 1.185 . S
O385 Dy380 2.491 . S
O385 C382 1.355 . S
O386 Dy380 2.403 1_455 S
O386 C388 1.254 . S
O387 Dy380 2.664 1_455 S
O387 Dy383 2.310 . S
O387 C388 1.268 . S
C388 O386 1.254 . S
C388 O387 1.268 . S
C389 O394 1.254 1_655 S
C389 O395 1.268 . S
O390 Dy383 2.351 1_655 S
O390 C398 1.249 . S
O391 Dy380 2.326 . S
O391 C398 1.267 . S
O392 C381 1.185 . S
O392 Dy383 2.398 . S
O393 C381 1.355 . S
O393 Dy383 2.491 . S
O394 Dy383 2.403 . S
O394 C389 1.254 1_455 S
O395 Dy380 2.310 . S
O395 Dy383 2.664 1_655 S
O395 C389 1.268 . S
O396 Dy380 2.351 1_455 S
O396 C399 1.249 . S
O397 Dy383 2.326 . S
O397 C399 1.267 . S
C398 O390 1.249 . S
C398 O391 1.267 . S
C399 O396 1.249 . S
C399 O397 1.267 . S
C400 C401 1.336 1_545 S
C400 C406 1.379 . S
C400 N408 1.356 . S
C401 C400 1.336 1_565 S
C401 C407 1.391 . S
C402 C403 1.363 . S
C402 C407 1.379 . S
C402 N409 1.356 . S
C403 C402 1.363 . S
C403 C406 1.363 1_565 S
N404 C406 1.356 . S
N404 H416 0.984 . S
N404 H417 0.985 . S
N405 C407 1.356 . S
N405 H410 0.984 . S
N405 H411 0.985 . S
C406 C400 1.379 . S
C406 C403 1.363 1_545 S
C406 N404 1.356 . S
C407 C401 1.391 . S
C407 C402 1.379 . S
C407 N405 1.356 . S
N408 C400 1.356 . S
N408 H414 0.984 . S
N408 H415 0.984 . S
N409 C402 1.356 . S
N409 H412 0.984 . S
N409 H413 0.985 . S
H410 N405 0.984 . S
H411 N405 0.985 . S
H412 N409 0.984 . S
H413 N409 0.985 . S
H414 N408 0.984 . S
H415 N408 0.984 . S
H416 N404 0.984 . S
H417 N404 0.985 . S
C418 C419 1.363 . S
C418 C424 1.379 . S
C418 N426 1.356 . S
C419 C418 1.363 . S
C419 C425 1.363 . S
C420 C421 1.363 . S
C420 C425 1.379 . S
C420 N427 1.356 . S
C421 C420 1.363 . S
C421 C424 1.363 . S
N422 C424 1.356 . S
N422 H434 0.984 . S
N422 H435 0.985 . S
N423 C425 1.356 . S
N423 H428 0.984 . S
N423 H429 0.985 . S
C424 C418 1.379 . S
C424 C421 1.363 . S
C424 N422 1.356 . S
C425 C419 1.363 . S
C425 C420 1.379 . S
C425 N423 1.356 . S
N426 C418 1.356 . S
N426 H432 0.984 . S
N426 H433 0.984 . S
N427 C420 1.356 . S
N427 H430 0.984 . S
N427 H431 0.985 . S
H428 N423 0.984 . S
H429 N423 0.985 . S
H430 N427 0.984 . S
H431 N427 0.985 . S
H432 N426 0.984 . S
H433 N426 0.984 . S
H434 N422 0.984 . S
H435 N422 0.985 . S
C436 C437 1.363 . S
C436 C442 1.379 . S
C436 N444 1.356 . S
C437 C436 1.363 . S
C437 C443 1.363 . S
C438 C439 1.363 . S
C438 C443 1.379 . S
C438 N445 1.356 . S
C439 C438 1.363 . S
C439 C442 1.363 . S
N440 C442 1.356 . S
N440 H452 0.984 . S
N440 H453 0.985 . S
N441 C443 1.356 . S
N441 H446 0.984 . S
N441 H447 0.985 . S
C442 C436 1.379 . S
C442 C439 1.363 . S
C442 N440 1.356 . S
C443 C437 1.363 . S
C443 C438 1.379 . S
C443 N441 1.356 . S
N444 C436 1.356 . S
N444 H450 0.984 . S
N444 H451 0.984 . S
N445 C438 1.356 . S
N445 H448 0.984 . S
N445 H449 0.985 . S
H446 N441 0.984 . S
H447 N441 0.985 . S
H448 N445 0.984 . S
H449 N445 0.985 . S
H450 N444 0.984 . S
H451 N444 0.984 . S
H452 N440 0.984 . S
H453 N440 0.985 . S
C454 C455 1.363 . S
C454 C460 1.379 . S
C454 N462 1.356 . S
C455 C454 1.363 . S
C455 C461 1.363 . S
C456 C457 1.363 . S
C456 C461 1.379 . S
C456 N463 1.356 . S
C457 C456 1.363 . S
C457 C460 1.363 . S
N458 C460 1.356 . S
N458 H470 0.984 . S
N458 H471 0.985 . S
N459 C461 1.356 . S
N459 H464 0.984 . S
N459 H465 0.985 . S
C460 C454 1.379 . S
C460 C457 1.363 . S
C460 N458 1.356 . S
C461 C455 1.363 . S
C461 C456 1.379 . S
C461 N459 1.356 . S
N462 C454 1.356 . S
N462 H468 0.984 . S
N462 H469 0.984 . S
N463 C456 1.356 . S
N463 H466 0.984 . S
N463 H467 0.985 . S
H464 N459 0.984 . S
H465 N459 0.985 . S
H466 N463 0.984 . S
H467 N463 0.985 . S
H468 N462 0.984 . S
H469 N462 0.984 . S
H470 N458 0.984 . S
H471 N458 0.985 . S
C472 C473 1.363 1_565 S
C472 C478 1.379 . S
C472 N480 1.356 . S
C473 C472 1.363 1_545 S
C473 C479 1.363 . S
C474 C475 1.363 . S
C474 C479 1.379 . S
C474 N481 1.356 . S
C475 C474 1.363 . S
C475 C478 1.363 1_545 S
N476 C478 1.356 . S
N476 H488 0.984 . S
N476 H489 0.985 . S
N477 C479 1.356 . S
N477 H482 0.984 . S
N477 H483 0.985 . S
C478 C472 1.379 . S
C478 C475 1.363 1_565 S
C478 N476 1.356 . S
C479 C473 1.363 . S
C479 C474 1.379 . S
C479 N477 1.356 . S
N480 C472 1.356 . S
N480 H486 0.984 . S
N480 H487 0.984 . S
N481 C474 1.356 . S
N481 H484 0.984 . S
N481 H485 0.985 . S
H482 N477 0.984 . S
H483 N477 0.985 . S
H484 N481 0.984 . S
H485 N481 0.985 . S
H486 N480 0.984 . S
H487 N480 0.984 . S
H488 N476 0.984 . S
H489 N476 0.985 . S
C490 C491 1.363 . S
C490 C496 1.379 . S
C490 N498 1.356 . S
C491 C490 1.363 . S
C491 C497 1.363 . S
C492 C493 1.363 . S
C492 C497 1.379 . S
C492 N499 1.356 . S
C493 C492 1.363 . S
C493 C496 1.363 . S
N494 C496 1.356 . S
N494 H506 0.984 . S
N494 H507 0.985 . S
N495 C497 1.356 . S
N495 H500 0.984 . S
N495 H501 0.985 . S
C496 C490 1.379 . S
C496 C493 1.363 . S
C496 N494 1.356 . S
C497 C491 1.363 . S
C497 C492 1.379 . S
C497 N495 1.356 . S
N498 C490 1.356 . S
N498 H504 0.984 . S
N498 H505 0.984 . S
N499 C492 1.356 . S
N499 H502 0.984 . S
N499 H503 0.985 . S
H500 N495 0.984 . S
H501 N495 0.985 . S
H502 N499 0.984 . S
H503 N499 0.985 . S
H504 N498 0.984 . S
H505 N498 0.984 . S
H506 N494 0.984 . S
H507 N494 0.985 . S
C508 C509 1.363 . S
C508 C514 1.379 . S
C508 N516 1.356 . S
C509 C508 1.363 . S
C509 C515 1.363 . S
C510 C511 1.363 . S
C510 C515 1.379 . S
C510 N517 1.356 . S
C511 C510 1.363 . S
C511 C514 1.363 . S
N512 C514 1.356 . S
N512 H524 0.984 . S
N512 H525 0.985 . S
N513 C515 1.356 . S
N513 H518 0.984 . S
N513 H519 0.985 . S
C514 C508 1.379 . S
C514 C511 1.363 . S
C514 N512 1.356 . S
C515 C509 1.363 . S
C515 C510 1.379 . S
C515 N513 1.356 . S
N516 C508 1.356 . S
N516 H522 0.984 . S
N516 H523 0.984 . S
N517 C510 1.356 . S
N517 H520 0.984 . S
N517 H521 0.985 . S
H518 N513 0.984 . S
H519 N513 0.985 . S
H520 N517 0.984 . S
H521 N517 0.985 . S
H522 N516 0.984 . S
H523 N516 0.984 . S
H524 N512 0.984 . S
H525 N512 0.985 . S
C526 C527 1.363 . S
C526 C532 1.379 . S
C526 N534 1.356 . S
C527 C526 1.363 . S
C527 C533 1.363 . S
C528 C529 1.363 . S
C528 C533 1.379 . S
C528 N535 1.356 . S
C529 C528 1.363 . S
C529 C532 1.363 . S
N530 C532 1.380 . S
N530 H542 0.972 1_655 S
N530 H543 0.974 1_655 S
N531 C533 1.356 . S
N531 H536 0.984 . S
N531 H537 0.985 . S
C532 C526 1.379 . S
C532 C529 1.363 . S
C532 N530 1.380 . S
C533 C527 1.363 . S
C533 C528 1.379 . S
C533 N531 1.356 . S
N534 C526 1.356 . S
N534 H540 0.984 . S
N534 H541 0.984 . S
N535 C528 1.356 . S
N535 H538 0.984 . S
N535 H539 0.985 . S
H536 N531 0.984 . S
H537 N531 0.985 . S
H538 N535 0.984 . S
H539 N535 0.985 . S
H540 N534 0.984 . S
H541 N534 0.984 . S
H542 N530 0.972 1_455 S
H543 N530 0.974 1_455 S
C544 C545 1.363 . S
C544 C550 1.379 . S
C544 N552 1.356 . S
C545 C544 1.363 . S
C545 C551 1.363 . S
C546 C547 1.363 . S
C546 C551 1.379 . S
C546 N553 1.356 . S
C547 C546 1.363 . S
C547 C550 1.363 . S
N548 C550 1.356 . S
N548 H560 0.984 . S
N548 H561 0.985 1_455 S
N549 C551 1.356 . S
N549 H554 0.984 . S
N549 H555 0.985 . S
C550 C544 1.379 . S
C550 C547 1.363 . S
C550 N548 1.356 . S
C551 C545 1.363 . S
C551 C546 1.379 . S
C551 N549 1.356 . S
N552 C544 1.356 . S
N552 H558 0.984 . S
N552 H559 0.984 . S
N553 C546 1.356 . S
N553 H556 0.984 . S
N553 H557 0.985 . S
H554 N549 0.984 . S
H555 N549 0.985 . S
H556 N553 0.984 . S
H557 N553 0.985 . S
H558 N552 0.984 . S
H559 N552 0.984 . S
H560 N548 0.984 . S
H561 N548 0.985 1_655 S
C562 C563 1.363 1_565 S
C562 C568 1.379 . S
C562 N570 1.356 . S
C563 C562 1.363 1_545 S
C563 C569 1.363 1_545 S
C564 C565 1.363 . S
C564 C569 1.382 . S
C564 N571 1.356 . S
C565 C564 1.363 . S
C565 C568 1.363 . S
N566 C568 1.356 . S
N566 H578 0.984 . S
N566 H579 0.985 . S
N567 C569 1.353 1_545 S
N567 H572 0.984 . S
N567 H573 0.985 . S
C568 C562 1.379 . S
C568 C565 1.363 . S
C568 N566 1.356 . S
C569 C563 1.363 1_565 S
C569 C564 1.382 . S
C569 N567 1.353 1_565 S
N570 C562 1.356 . S
N570 H576 0.984 . S
N570 H577 0.984 1_565 S
N571 C564 1.356 . S
N571 H574 0.984 . S
N571 H575 0.985 . S
H572 N567 0.984 . S
H573 N567 0.985 . S
H574 N571 0.984 . S
H575 N571 0.985 . S
H576 N570 0.984 . S
H577 N570 0.984 1_545 S
H578 N566 0.984 . S
H579 N566 0.985 . S
C580 C581 1.363 . S
C580 C586 1.379 . S
C580 N588 1.356 . S
C581 C580 1.363 . S
C581 C587 1.363 . S
C582 C583 1.363 . S
C582 C587 1.379 . S
C582 N589 1.356 . S
C583 C582 1.363 . S
C583 C586 1.363 . S
N584 C586 1.356 . S
N584 H596 0.984 . S
N584 H597 0.985 . S
N585 C587 1.356 . S
N585 H590 0.984 . S
N585 H591 0.985 . S
C586 C580 1.379 . S
C586 C583 1.363 . S
C586 N584 1.356 . S
C587 C581 1.363 . S
C587 C582 1.379 . S
C587 N585 1.356 . S
N588 C580 1.356 . S
N588 H594 0.984 . S
N588 H595 0.984 . S
N589 C582 1.356 . S
N589 H592 0.984 . S
N589 H593 0.985 . S
H590 N585 0.984 . S
H591 N585 0.985 . S
H592 N589 0.984 . S
H593 N589 0.985 . S
H594 N588 0.984 . S
H595 N588 0.984 . S
H596 N584 0.984 . S
H597 N584 0.985 . S
C598 C599 1.363 . S
C598 C604 1.379 . S
C598 N606 1.356 . S
C599 C598 1.363 . S
C599 C605 1.363 . S
C600 C601 1.363 . S
C600 C605 1.379 . S
C600 N607 1.356 . S
C601 C600 1.363 . S
C601 C604 1.363 . S
N602 C604 1.356 . S
N602 H614 0.984 . S
N602 H615 0.985 . S
N603 C605 1.356 . S
N603 H608 0.984 . S
N603 H609 0.985 . S
C604 C598 1.379 . S
C604 C601 1.363 . S
C604 N602 1.356 . S
C605 C599 1.363 . S
C605 C600 1.379 . S
C605 N603 1.356 . S
N606 C598 1.356 . S
N606 H612 0.984 . S
N606 H613 0.984 . S
N607 C600 1.356 . S
N607 H610 0.984 . S
N607 H611 0.985 . S
H608 N603 0.984 . S
H609 N603 0.985 . S
H610 N607 0.984 . S
H611 N607 0.985 . S
H612 N606 0.984 . S
H613 N606 0.984 . S
H614 N602 0.984 . S
H615 N602 0.985 . S
C616 C617 1.363 . S
C616 C622 1.379 . S
C616 N624 1.356 . S
C617 C616 1.363 . S
C617 C623 1.363 . S
C618 C619 1.363 . S
C618 C623 1.379 . S
C618 N625 1.356 . S
C619 C618 1.363 . S
C619 C622 1.363 . S
N620 C622 1.356 1_455 S
N620 H632 0.984 . S
N620 H633 0.985 . S
N621 C623 1.356 . S
N621 H626 0.984 . S
N621 H627 0.985 . S
C622 C616 1.379 . S
C622 C619 1.363 . S
C622 N620 1.356 1_655 S
C623 C617 1.363 . S
C623 C618 1.379 . S
C623 N621 1.356 . S
N624 C616 1.356 . S
N624 H630 0.984 . S
N624 H631 0.984 . S
N625 C618 1.356 . S
N625 H628 0.984 . S
N625 H629 0.985 . S
H626 N621 0.984 . S
H627 N621 0.985 . S
H628 N625 0.984 . S
H629 N625 0.985 . S
H630 N624 0.984 . S
H631 N624 0.984 . S
H632 N620 0.984 . S
H633 N620 0.985 . S
C634 C635 1.363 1_565 S
C634 C640 1.379 . S
C634 N642 1.356 . S
C635 C634 1.363 1_545 S
C635 C641 1.363 . S
C636 C637 1.363 . S
C636 C641 1.379 . S
C636 N643 1.356 . S
C637 C636 1.363 . S
C637 C640 1.363 1_545 S
N638 C640 1.356 . S
N638 H650 0.984 . S
N638 H651 0.985 . S
N639 C641 1.356 . S
N639 H644 0.984 . S
N639 H645 0.985 . S
C640 C634 1.379 . S
C640 C637 1.363 1_565 S
C640 N638 1.356 . S
C641 C635 1.363 . S
C641 C636 1.379 . S
C641 N639 1.356 . S
N642 C634 1.356 . S
N642 H648 0.984 . S
N642 H649 0.984 . S
N643 C636 1.356 . S
N643 H646 0.984 . S
N643 H647 0.985 . S
H644 N639 0.984 . S
H645 N639 0.985 . S
H646 N643 0.984 . S
H647 N643 0.985 . S
H648 N642 0.984 . S
H649 N642 0.984 . S
H650 N638 0.984 . S
H651 N638 0.985 . S
C652 C653 1.363 . S
C652 C658 1.379 . S
C652 N660 1.356 . S
C653 C652 1.363 . S
C653 C659 1.363 . S
C654 C655 1.363 . S
C654 C659 1.379 . S
C654 N661 1.356 . S
C655 C654 1.363 . S
C655 C658 1.363 . S
N656 C658 1.356 . S
N656 H668 0.984 . S
N656 H669 0.985 . S
N657 C659 1.356 . S
N657 H662 0.984 . S
N657 H663 0.985 . S
C658 C652 1.379 . S
C658 C655 1.363 . S
C658 N656 1.356 . S
C659 C653 1.363 . S
C659 C654 1.379 . S
C659 N657 1.356 . S
N660 C652 1.356 . S
N660 H666 0.984 . S
N660 H667 0.984 . S
N661 C654 1.356 . S
N661 H664 0.984 . S
N661 H665 0.985 . S
H662 N657 0.984 . S
H663 N657 0.985 . S
H664 N661 0.984 . S
H665 N661 0.985 . S
H666 N660 0.984 . S
H667 N660 0.984 . S
H668 N656 0.984 . S
H669 N656 0.985 . S
C670 C671 1.363 . S
C670 C676 1.379 . S
C670 N678 1.356 . S
C671 C670 1.363 . S
C671 C677 1.363 . S
C672 C673 1.363 . S
C672 C677 1.379 . S
C672 N679 1.356 . S
C673 C672 1.363 . S
C673 C676 1.363 . S
N674 C676 1.356 . S
N674 H686 0.984 . S
N674 H687 0.985 . S
N675 C677 1.356 . S
N675 H680 0.984 . S
N675 H681 0.985 . S
C676 C670 1.379 . S
C676 C673 1.363 . S
C676 N674 1.356 . S
C677 C671 1.363 . S
C677 C672 1.379 . S
C677 N675 1.356 . S
N678 C670 1.356 . S
N678 H684 0.984 . S
N678 H685 0.984 . S
N679 C672 1.356 . S
N679 H682 0.984 . S
N679 H683 0.985 . S
H680 N675 0.984 . S
H681 N675 0.985 . S
H682 N679 0.984 . S
H683 N679 0.985 . S
H684 N678 0.984 . S
H685 N678 0.984 . S
H686 N674 0.984 . S
H687 N674 0.985 . S
C688 C689 1.363 . S
C688 C694 1.379 . S
C688 N696 1.356 . S
C689 C688 1.363 . S
C689 C695 1.363 . S
C690 C691 1.363 . S
C690 C695 1.379 . S
C690 N697 1.356 . S
C691 C690 1.363 . S
C691 C694 1.363 . S
N692 C694 1.356 . S
N692 H704 0.984 . S
N692 H705 0.985 . S
N693 C695 1.356 . S
N693 H698 0.984 . S
N693 H699 0.985 . S
C694 C688 1.379 . S
C694 C691 1.363 . S
C694 N692 1.356 . S
C695 C689 1.363 . S
C695 C690 1.379 . S
C695 N693 1.356 . S
N696 C688 1.356 . S
N696 H702 0.984 . S
N696 H703 0.984 . S
N697 C690 1.356 . S
N697 H700 0.984 . S
N697 H701 0.985 . S
H698 N693 0.984 . S
H699 N693 0.985 . S
H700 N697 0.984 . S
H701 N697 0.985 . S
H702 N696 0.984 . S
H703 N696 0.984 . S
H704 N692 0.984 . S
H705 N692 0.985 . S
C706 C707 1.363 . S
C706 C712 1.379 . S
C706 N714 1.356 . S
C707 C706 1.363 . S
C707 C713 1.363 1_545 S
C708 C709 1.363 1_565 S
C708 C713 1.379 . S
C708 N715 1.356 . S
C709 C708 1.363 1_545 S
C709 C712 1.363 . S
N710 C712 1.356 . S
N710 H722 0.984 . S
N710 H723 0.985 . S
N711 C713 1.356 . S
N711 H716 0.984 . S
N711 H717 0.985 . S
C712 C706 1.379 . S
C712 C709 1.363 . S
C712 N710 1.356 . S
C713 C707 1.363 1_565 S
C713 C708 1.379 . S
C713 N711 1.356 . S
N714 C706 1.356 . S
N714 H720 0.984 . S
N714 H721 0.984 . S
N715 C708 1.356 . S
N715 H718 0.984 . S
N715 H719 0.985 . S
H716 N711 0.984 . S
H717 N711 0.985 . S
H718 N715 0.984 . S
H719 N715 0.985 . S
H720 N714 0.984 . S
H721 N714 0.984 . S
H722 N710 0.984 . S
H723 N710 0.985 . S
C724 C725 1.363 . S
C724 C730 1.379 . S
C724 N732 1.356 . S
C725 C724 1.363 . S
C725 C731 1.363 . S
C726 C727 1.363 . S
C726 C731 1.379 . S
C726 N733 1.356 . S
C727 C726 1.363 . S
C727 C730 1.363 . S
N728 C730 1.356 . S
N728 H740 0.984 . S
N728 H741 0.985 . S
N729 C731 1.356 . S
N729 H734 0.984 . S
N729 H735 0.985 . S
C730 C724 1.379 . S
C730 C727 1.363 . S
C730 N728 1.356 . S
C731 C725 1.363 . S
C731 C726 1.379 . S
C731 N729 1.356 . S
N732 C724 1.356 . S
N732 H738 0.984 . S
N732 H739 0.984 . S
N733 C726 1.356 . S
N733 H736 0.984 . S
N733 H737 0.985 . S
H734 N729 0.984 . S
H735 N729 0.985 . S
H736 N733 0.984 . S
H737 N733 0.985 . S
H738 N732 0.984 . S
H739 N732 0.984 . S
H740 N728 0.984 . S
H741 N728 0.985 . S
C742 C743 1.363 . S
C742 C748 1.379 . S
C742 N750 1.356 . S
C743 C742 1.363 . S
C743 C749 1.363 . S
C744 C745 1.363 . S
C744 C749 1.379 . S
C744 N751 1.356 . S
C745 C744 1.363 . S
C745 C748 1.363 . S
N746 C748 1.356 . S
N746 H758 0.984 . S
N746 H759 0.985 . S
N747 C749 1.356 . S
N747 H752 0.984 . S
N747 H753 0.985 . S
C748 C742 1.379 . S
C748 C745 1.363 . S
C748 N746 1.356 . S
C749 C743 1.363 . S
C749 C744 1.379 . S
C749 N747 1.356 . S
N750 C742 1.356 . S
N750 H756 0.984 . S
N750 H757 0.984 . S
N751 C744 1.356 . S
N751 H754 0.984 . S
N751 H755 0.985 . S
H752 N747 0.984 . S
H753 N747 0.985 . S
H754 N751 0.984 . S
H755 N751 0.985 . S
H756 N750 0.984 . S
H757 N750 0.984 . S
H758 N746 0.984 . S
H759 N746 0.985 . S
C760 C761 1.363 . S
C760 C766 1.379 . S
C760 N768 1.356 . S
C761 C760 1.363 . S
C761 C767 1.363 . S
C762 C763 1.363 . S
C762 C767 1.379 . S
C762 N769 1.356 . S
C763 C762 1.363 . S
C763 C766 1.363 . S
N764 C766 1.356 . S
N764 H776 0.984 1_655 S
N764 H777 0.985 . S
N765 C767 1.356 . S
N765 H770 0.984 . S
N765 H771 0.985 . S
C766 C760 1.379 . S
C766 C763 1.363 . S
C766 N764 1.356 . S
C767 C761 1.363 . S
C767 C762 1.379 . S
C767 N765 1.356 . S
N768 C760 1.356 . S
N768 H774 0.984 . S
N768 H775 0.984 . S
N769 C762 1.356 . S
N769 H772 0.984 . S
N769 H773 0.985 . S
H770 N765 0.984 . S
H771 N765 0.985 . S
H772 N769 0.984 . S
H773 N769 0.985 . S
H774 N768 0.984 . S
H775 N768 0.984 . S
H776 N764 0.984 1_455 S
H777 N764 0.985 . S
C778 C779 1.363 . S
C778 C784 1.379 . S
C778 N786 1.356 . S
C779 C778 1.363 . S
C779 C785 1.363 1_565 S
C780 C781 1.363 1_545 S
C780 C785 1.379 . S
C780 N787 1.356 . S
C781 C780 1.363 1_565 S
C781 C784 1.363 . S
N782 C784 1.356 . S
N782 H794 0.984 . S
N782 H795 0.985 . S
N783 C785 1.356 . S
N783 H788 0.984 . S
N783 H789 0.985 . S
C784 C778 1.379 . S
C784 C781 1.363 . S
C784 N782 1.356 . S
C785 C779 1.363 1_545 S
C785 C780 1.379 . S
C785 N783 1.356 . S
N786 C778 1.356 . S
N786 H792 0.984 . S
N786 H793 0.984 . S
N787 C780 1.356 . S
N787 H790 0.984 . S
N787 H791 0.985 . S
H788 N783 0.984 . S
H789 N783 0.985 . S
H790 N787 0.984 . S
H791 N787 0.985 . S
H792 N786 0.984 . S
H793 N786 0.984 . S
H794 N782 0.984 . S
H795 N782 0.985 . S
C796 C797 1.363 . S
C796 C802 1.379 . S
C796 N804 1.356 . S
C797 C796 1.363 . S
C797 C803 1.363 . S
C798 C799 1.363 . S
C798 C803 1.379 . S
C798 N805 1.356 . S
C799 C798 1.363 . S
C799 C802 1.363 . S
N800 C802 1.356 . S
N800 H812 0.984 . S
N800 H813 0.985 . S
N801 C803 1.356 . S
N801 H806 0.984 . S
N801 H807 0.985 . S
C802 C796 1.379 . S
C802 C799 1.363 . S
C802 N800 1.356 . S
C803 C797 1.363 . S
C803 C798 1.379 . S
C803 N801 1.356 . S
N804 C796 1.356 . S
N804 H810 0.984 . S
N804 H811 0.984 . S
N805 C798 1.356 . S
N805 H808 0.984 . S
N805 H809 0.985 . S
H806 N801 0.984 . S
H807 N801 0.985 . S
H808 N805 0.984 . S
H809 N805 0.985 . S
H810 N804 0.984 . S
H811 N804 0.984 . S
H812 N800 0.984 . S
H813 N800 0.985 . S
C814 C815 1.363 . S
C814 C820 1.379 . S
C814 N822 1.356 . S
C815 C814 1.363 . S
C815 C821 1.363 . S
C816 C817 1.363 . S
C816 C821 1.379 . S
C816 N823 1.356 . S
C817 C816 1.363 . S
C817 C820 1.363 . S
N818 C820 1.356 . S
N818 H830 0.984 . S
N818 H831 0.985 . S
N819 C821 1.356 . S
N819 H824 0.984 . S
N819 H825 0.985 . S
C820 C814 1.379 . S
C820 C817 1.363 . S
C820 N818 1.356 . S
C821 C815 1.363 . S
C821 C816 1.379 . S
C821 N819 1.356 . S
N822 C814 1.356 . S
N822 H828 0.984 . S
N822 H829 0.984 . S
N823 C816 1.356 . S
N823 H826 0.984 . S
N823 H827 0.985 . S
H824 N819 0.984 . S
H825 N819 0.985 . S
H826 N823 0.984 . S
H827 N823 0.985 . S
H828 N822 0.984 . S
H829 N822 0.984 . S
H830 N818 0.984 . S
H831 N818 0.985 . S
C401 C255 1.940 1_565 S
C403 C328 2.102 . S
C421 C358 2.707 . S
C419 C295 2.533 . S
C439 C368 2.245 . S
C437 C175 2.072 . S
C457 C388 2.202 . S
C455 C215 1.957 . S
C475 C329 2.101 . S
C473 C95 1.936 . S
C491 C135 2.521 . S
C493 C359 2.709 . S
C509 C15 2.083 . S
C511 C369 2.245 . S
C527 C55 1.945 . S
C529 C389 2.202 . S
C547 C321 1.317 . S
C545 C221 1.252 . S
C565 C342 0.751 . S
C563 C261 0.751 . S
C583 C361 1.570 . S
C581 C301 1.494 . S
C599 C181 0.837 . S
C601 C381 0.892 . S
C617 C61 1.087 . S
C619 C322 1.321 1_655 S
C637 C341 0.751 . S
C635 C101 0.749 . S
C655 C362 1.570 . S
C653 C141 1.288 . S
C671 C21 0.862 . S
C673 C382 0.892 . S
C689 C202 2.701 . S
C691 C339 2.944 . S
C707 C242 2.330 . S
C709 C349 2.659 . S
C727 C379 3.228 . S
C725 C282 2.947 . S
C745 C399 3.038 . S
C743 C162 2.708 . S
C761 C42 2.606 . S
C763 C338 2.953 . S
C781 C348 2.659 . S
C779 C82 2.341 1_565 S
C799 C378 3.227 . S
C797 C122 2.827 . S
C815 C2 2.823 . S
C817 C398 3.038 . S
