# Generated by pormake.
# Topology nia, (6,6)-cn, num edge types: 1
# Building blocks:
#     Node 0, Type 0, BuildingBlock: BETDEL_clean_sbu_0, # of connection points: 6
#     Node 1, Type 0, BuildingBlock: BETDEL_clean_sbu_0, # of connection points: 6
#     Node 2, Type 1, BuildingBlock: MIDCAF_clean_sbu_0, # of connection points: 6
#     Node 3, Type 1, BuildingBlock: MIDCAF_clean_sbu_0, # of connection points: 6
#     Edge 4, Type (0, 1), BuildingBlock: ZUJKAS_clean_linker_0, # of connection points: 2
#     Edge 5, Type (0, 1), BuildingBlock: ZUJKAS_clean_linker_0, # of connection points: 2
#     Edge 6, Type (0, 1), BuildingBlock: ZUJKAS_clean_linker_0, # of connection points: 2
#     Edge 7, Type (0, 1), BuildingBlock: ZUJKAS_clean_linker_0, # of connection points: 2
#     Edge 8, Type (0, 1), BuildingBlock: ZUJKAS_clean_linker_0, # of connection points: 2
#     Edge 9, Type (0, 1), BuildingBlock: ZUJKAS_clean_linker_0, # of connection points: 2
#     Edge 10, Type (0, 1), BuildingBlock: ZUJKAS_clean_linker_0, # of connection points: 2
#     Edge 11, Type (0, 1), BuildingBlock: ZUJKAS_clean_linker_0, # of connection points: 2
#     Edge 12, Type (0, 1), BuildingBlock: ZUJKAS_clean_linker_0, # of connection points: 2
#     Edge 13, Type (0, 1), BuildingBlock: ZUJKAS_clean_linker_0, # of connection points: 2
#     Edge 14, Type (0, 1), BuildingBlock: ZUJKAS_clean_linker_0, # of connection points: 2
#     Edge 15, Type (0, 1), BuildingBlock: ZUJKAS_clean_linker_0, # of connection points: 2
# Relax obj value: 0.202
# Max RMSD: 0.244
# Mean RMSD: 0.202
data_MOF--net-nia--node1-BETDEL_clean_sbu_0--node2-MIDCAF_clean_sbu_0--edge1-ZUJKAS_clean_linker_0
_symmetry_space_group_name_H-M    P1
_symmetry_Int_Tables_number       1
_symmetry_cell_setting            triclinic
loop_
_symmetry_equiv_pos_as_xyz
'x, y, z'
_cell_length_a     31.114647
_cell_length_b     32.061292
_cell_length_c     40.258028
_cell_angle_alpha  85.236256
_cell_angle_beta   91.397458
_cell_angle_gamma 125.03605
loop_
_atom_site_label
_atom_site_type_symbol
_atom_site_fract_x
_atom_site_fract_y
_atom_site_fract_z
_atom_type_partial_charge
Dy0 Dy 0.01971 0.03745 0.03792 0.0
C1 C 0.88599 0.8472 0.9764 0.0
C2 C 0.08271 0.11804 0.07506 0.0
Dy3 Dy 0.95667 0.93972 1.00041 0.0
O4 O 0.04974 0.07099 0.0868 0.0
O5 O 0.08237 0.12125 0.04259 0.0
O6 O 0.94426 0.02431 0.05333 0.0
O7 O 0.94577 0.96072 0.04837 0.0
C8 C 0.91664 0.97492 0.05456 0.0
C9 C 0.0516 0.0043 0.96944 0.0
O10 O 0.92801 -0.01344 0.97878 0.0
O11 O -0.0017 0.06643 0.99253 0.0
O12 O 0.88215 0.88566 0.97378 0.0
O13 O 0.92705 0.85892 0.99324 0.0
O14 O 0.01563 0.95993 0.95973 0.0
O15 O 0.03437 0.01119 0.99482 0.0
O16 O 0.05337 -0.00529 0.05801 0.0
O17 O -0.01344 0.91423 0.04305 0.0
C18 C 0.95512 0.03729 0.97559 0.0
C19 C 0.02953 0.94449 0.05984 0.0
Dy20 Dy 0.97343 0.0206 0.54052 0.0
C21 C 0.03546 0.90258 0.4747 0.0
C22 C 0.95819 0.08508 0.56939 0.0
Dy23 Dy 0.01682 0.96735 0.49941 0.0
O24 O -0.01706 0.06648 0.58251 0.0
O25 O 0.94246 0.06932 0.53983 0.0
O26 O 0.9201 0.95118 0.5767 0.0
O27 O 0.96547 0.94918 0.54149 0.0
C28 C 0.93347 0.92324 0.5654 0.0
C29 C 0.05501 0.06385 0.47349 0.0
O30 O 0.94072 0.94171 0.47488 0.0
O31 O 0.91913 -0.00691 0.49742 0.0
O32 O -0.00983 0.89608 0.47475 0.0
O33 O 0.07002 0.94363 0.48902 0.0
O34 O 0.06642 0.03496 0.46124 0.0
O35 O 0.02536 0.03906 0.49862 0.0
O36 O 0.05482 0.05318 0.55888 0.0
O37 O 0.06371 -0.01112 0.54585 0.0
C38 C 0.91158 0.95982 0.4762 0.0
C39 C 0.0781 0.02899 0.56246 0.0
Zn40 Zn 0.31744 0.67015 0.20616 0.0
Zn41 Zn 0.31849 0.66779 0.33212 0.0
Zn42 Zn 0.31999 0.66762 0.26953 0.0
C43 C 0.42289 0.71494 0.31506 0.0
C44 C 0.25611 0.56581 0.32139 0.0
O45 O 0.27748 0.70251 0.24864 0.0
O46 O 0.26639 0.68681 0.19557 0.0
C47 C 0.42251 0.73221 0.22079 0.0
O48 O 0.404 0.71195 0.28574 0.0
O49 O 0.39226 0.69456 0.34031 0.0
O50 O 0.26534 0.59421 0.34433 0.0
O51 O 0.27547 0.58599 0.2917 0.0
O52 O 0.39272 0.72417 0.19666 0.0
O53 O 0.40276 0.71258 0.25043 0.0
O54 O 0.28135 0.58762 0.25717 0.0
O55 O 0.29568 0.59951 0.20254 0.0
C56 C 0.27928 0.57018 0.22903 0.0
O57 O 0.27963 0.70301 0.28339 0.0
O58 O 0.29741 0.71431 0.33671 0.0
C59 C 0.25863 0.70423 0.21993 0.0
C60 C 0.27747 0.72021 0.3107 0.0
Zn61 Zn 0.67549 0.32405 0.83458 0.0
Zn62 Zn 0.65559 0.3168 0.71021 0.0
Zn63 Zn 0.66405 0.31912 0.77225 0.0
C64 C 0.69977 0.41665 0.7189 0.0
C65 C 0.55503 0.24843 0.73373 0.0
O66 O 0.70543 0.28207 0.79089 0.0
O67 O 0.69613 0.27688 0.84562 0.0
C68 C 0.73082 0.42361 0.80931 0.0
O69 O 0.7033 0.39924 0.74818 0.0
O70 O 0.67387 0.38606 0.69699 0.0
O71 O 0.58165 0.25854 0.70744 0.0
O72 O 0.57826 0.26987 0.76046 0.0
O73 O 0.72931 0.39843 0.83562 0.0
O74 O 0.70684 0.40026 0.78333 0.0
O75 O 0.58337 0.2777 0.79447 0.0
O76 O 0.60266 0.29977 0.84613 0.0
C77 C 0.56889 0.27838 0.82405 0.0
O78 O 0.70629 0.28703 0.75597 0.0
O79 O 0.70999 0.30545 0.70152 0.0
C80 C 0.71102 0.26691 0.82047 0.0
C81 C 0.72301 0.28901 0.72649 0.0
H82 H -0.00239 0.84455 0.06643 0.0
H83 H 0.03448 0.8071 0.10144 0.0
H84 H 0.14763 0.95389 0.13803 0.0
H85 H 0.11171 -0.00801 0.1025 0.0
H86 H 0.19368 0.90871 0.12181 0.0
H87 H 0.01693 0.76823 0.20024 0.0
H88 H 0.00414 0.76098 0.15668 0.0
H89 H 0.02167 0.81895 0.17361 0.0
C90 C 0.03014 0.86893 0.08205 0.0
C91 C 0.05147 0.92138 0.08161 0.0
C92 C 0.05096 0.84729 0.10234 0.0
C93 C 0.09322 0.87731 0.12305 0.0
C94 C 0.11479 0.92973 0.12254 0.0
H95 H 0.27807 0.79139 0.2439 0.0
H96 H 0.23709 0.83601 0.22593 0.0
C97 C 0.09415 0.9515 0.10213 0.0
C98 C 0.11647 0.85451 0.14388 0.0
H99 H 0.08526 0.75449 0.20039 0.0
C100 C 0.17012 0.87551 0.1394 0.0
C101 C 0.08598 0.81132 0.1671 0.0
C102 C 0.02913 0.78889 0.17498 0.0
C103 C 0.19332 0.85305 0.15607 0.0
C104 C 0.16224 0.80857 0.17809 0.0
C105 C 0.10907 0.78855 0.18349 0.0
C106 C 0.18297 0.77944 0.19281 0.0
C107 C 0.25039 0.87563 0.14884 0.0
C108 C 0.16483 0.73204 0.18123 0.0
C109 C 0.18791 0.70662 0.19153 0.0
C110 C 0.22921 0.72759 0.21405 0.0
C111 C 0.24576 0.7739 0.22698 0.0
C112 C 0.22276 0.79964 0.21644 0.0
H113 H 0.26725 0.90614 0.12797 0.0
H114 H 0.27331 0.89235 0.17141 0.0
H115 H 0.25516 0.84539 0.14256 0.0
H116 H 0.13422 0.71567 0.16306 0.0
H117 H 0.17445 0.67109 0.18106 0.0
H118 H 0.11934 0.10922 0.60177 0.0
H119 H 0.19407 0.14167 0.63859 0.0
H120 H 0.21112 0.02369 0.61349 0.0
H121 H 0.13692 -0.00883 0.57645 0.0
H122 H 0.21399 0.09213 0.69491 0.0
H123 H 0.35529 0.15936 0.58851 0.0
H124 H 0.28954 0.14266 0.58319 0.0
H125 H 0.30069 0.09343 0.5891 0.0
C126 C 0.13886 0.09003 0.60407 0.0
C127 C 0.12233 0.04784 0.58576 0.0
C128 C 0.18144 0.10854 0.6253 0.0
C129 C 0.20848 0.08543 0.62853 0.0
C130 C 0.19121 0.04251 0.61105 0.0
H131 H 0.49741 0.15527 0.71035 0.0
H132 H 0.40768 0.11144 0.6907 0.0
C133 C 0.1487 0.02396 0.58986 0.0
C134 C 0.25628 0.10746 0.64884 0.0
H135 H 0.38779 0.16185 0.64247 0.0
C136 C 0.2521 0.10755 0.68353 0.0
C137 C 0.30598 0.12799 0.63389 0.0
C138 C 0.31349 0.13141 0.5966 0.0
C139 C 0.29618 0.12607 0.70379 0.0
C140 C 0.34565 0.14552 0.68881 0.0
C141 C 0.34976 0.14633 0.65404 0.0
C142 C 0.39423 0.16522 0.70811 0.0
C143 C 0.28926 0.12352 0.74102 0.0
C144 C 0.41574 0.2087 0.72598 0.0
C145 C 0.46701 0.23338 0.73778 0.0
C146 C 0.4974 0.2151 0.73155 0.0
C147 C 0.4745 0.16973 0.71577 0.0
C148 C 0.42335 0.14486 0.70437 0.0
H149 H 0.24748 0.09618 0.74933 0.0
H150 H 0.31302 0.11208 0.75449 0.0
H151 H 0.30282 0.16188 0.74819 0.0
H152 H 0.39452 0.2257 0.7287 0.0
H153 H 0.48428 0.26891 0.74928 0.0
H154 H 0.08512 0.11368 0.14263 0.0
H155 H 0.11722 0.18407 0.17796 0.0
H156 H 0.17096 0.2905 0.09041 0.0
H157 H 0.1385 0.22001 0.05483 0.0
H158 H 0.21745 0.27672 0.18411 0.0
H159 H 0.06826 0.30943 0.13921 0.0
H160 H 0.06427 0.25244 0.13207 0.0
H161 H 0.10728 0.31082 0.1064 0.0
C162 C 0.10442 0.1522 0.13092 0.0
C163 C 0.10908 0.16148 0.096 0.0
C164 C 0.12264 0.1923 0.15114 0.0
C165 C 0.14547 0.24223 0.13676 0.0
C166 C 0.15252 0.25199 0.10193 0.0
H167 H 0.32963 0.53792 0.19862 0.0
H168 H 0.29385 0.45142 0.18439 0.0
C169 C 0.1344 0.21186 0.08166 0.0
C170 C 0.16035 0.28383 0.15809 0.0
H171 H 0.13726 0.37329 0.17094 0.0
C172 C 0.1996 0.29755 0.18151 0.0
C173 C 0.13594 0.30994 0.15533 0.0
C174 C 0.09121 0.29467 0.13215 0.0
C175 C 0.21729 0.33884 0.20082 0.0
C176 C 0.19542 0.36721 0.1963 0.0
C177 C 0.15408 0.35157 0.17431 0.0
C178 C 0.21932 0.41698 0.21045 0.0
C179 C 0.25988 0.35238 0.22544 0.0
C180 C 0.18942 0.42633 0.23014 0.0
C181 C 0.21003 0.47605 0.2384 0.0
C182 C 0.26042 0.51676 0.22668 0.0
C183 C 0.29082 0.5069 0.20815 0.0
C184 C 0.27055 0.45748 0.20021 0.0
H185 H 0.26 0.31857 0.23392 0.0
H186 H 0.29864 0.38183 0.21324 0.0
H187 H 0.25513 0.36807 0.24755 0.0
H188 H 0.14954 0.39559 0.23796 0.0
H189 H 0.18574 0.48309 0.25231 0.0
H190 H 0.90036 0.121 0.54767 0.0
H191 H 0.86811 0.1589 0.58101 0.0
H192 H 0.94833 0.14734 0.66639 0.0
H193 H -0.01844 0.11074 0.63309 0.0
H194 H 0.80432 0.11221 0.63712 0.0
H195 H -0.0093 0.29282 0.66663 0.0
H196 H -0.01316 0.25492 0.63444 0.0
H197 H -0.01105 0.2364 0.67752 0.0
C198 C 0.91189 0.12754 0.57336 0.0
C199 C 0.94354 0.11318 0.5878 0.0
C200 C 0.89331 0.14892 0.5924 0.0
C201 C 0.90622 0.15633 0.6261 0.0
C202 C 0.93875 0.14295 0.64031 0.0
H203 H 0.71607 0.20472 0.75541 0.0
H204 H 0.76483 0.17086 0.73769 0.0
C205 C 0.95752 0.12185 0.62126 0.0
C206 C 0.88302 0.17512 0.64685 0.0
H207 H 0.91341 0.27182 0.69412 0.0
C208 C 0.82811 0.14704 0.64967 0.0
C209 C 0.91428 0.22047 0.66326 0.0
C210 C 0.97345 0.25321 0.66015 0.0
C211 C 0.80347 0.1637 0.66778 0.0
C212 C 0.8347 0.20914 0.68413 0.0
C213 C 0.88964 0.2366 0.68197 0.0
C214 C 0.81129 0.23249 0.69939 0.0
C215 C 0.74433 0.13381 0.6679 0.0
C216 C 0.82335 0.27949 0.68501 0.0
C217 C 0.79639 0.29902 0.69542 0.0
C218 C 0.75706 0.27214 0.72057 0.0
C219 C 0.74683 0.22645 0.73633 0.0
C220 C 0.77413 0.20687 0.72594 0.0
H221 H 0.7269 0.10513 0.64912 0.0
H222 H 0.72817 0.11319 0.69285 0.0
H223 H 0.73176 0.15982 0.66277 0.0
H224 H 0.85186 0.2999 0.66453 0.0
H225 H 0.80492 0.33435 0.68287 0.0
H226 H 0.85959 0.87192 0.07413 0.0
H227 H 0.77783 0.82199 0.10851 0.0
H228 H 0.77756 0.95611 0.11032 0.0
H229 H 0.85825 0.00572 0.07614 0.0
H230 H 0.76351 0.8972 0.17605 0.0
H231 H 0.62814 0.78252 0.07664 0.0
H232 H 0.68808 0.78657 0.08199 0.0
H233 H 0.69096 0.84228 0.06674 0.0
C234 C 0.84167 0.89045 0.08164 0.0
C235 C 0.86525 0.94268 0.07253 0.0
C236 C 0.79523 0.86203 0.10133 0.0
C237 C 0.77202 0.88559 0.11209 0.0
C238 C 0.79514 0.9374 0.10249 0.0
H239 H 0.47999 0.81208 0.17481 0.0
H240 H 0.56799 0.84655 0.15311 0.0
C241 C 0.8411 0.96559 0.08281 0.0
C242 C 0.72326 0.85692 0.13307 0.0
H243 H 0.59015 0.77576 0.1282 0.0
C244 C 0.72558 0.86985 0.1659 0.0
C245 C 0.67403 0.82163 0.11957 0.0
C246 C 0.6696 0.80729 0.08427 0.0
C247 C 0.67958 0.84969 0.1852 0.0
C248 C 0.63034 0.81606 0.17115 0.0
C249 C 0.62815 0.80158 0.13883 0.0
C250 C 0.5805 0.7996 0.18791 0.0
C251 C 0.68358 0.86633 0.21976 0.0
C252 C 0.55912 0.76287 0.21539 0.0
C253 C 0.50864 0.74313 0.22795 0.0
C254 C 0.47923 0.76009 0.2132 0.0
C255 C 0.50195 0.7986 0.18678 0.0
C256 C 0.55208 0.81816 0.17428 0.0
H257 H 0.72479 0.89562 0.22616 0.0
H258 H 0.66009 0.88214 0.22189 0.0
H259 H 0.66706 0.83274 0.23832 0.0
H260 H 0.58037 0.7478 0.22604 0.0
H261 H 0.49153 0.71268 0.24787 0.0
H262 H 0.85622 0.86542 0.612 0.0
H263 H 0.82769 0.78278 0.63994 0.0
H264 H 0.94133 0.78173 0.5814 0.0
H265 H 0.96941 0.86486 0.55249 0.0
H266 H 0.8487 0.68997 0.58563 0.0
H267 H 0.90006 0.75375 0.7125 0.0
H268 H 0.85803 0.77012 0.69411 0.0
H269 H 0.92235 0.79822 0.67583 0.0
C270 C 0.87517 0.84763 0.60498 0.0
C271 C 0.91517 0.87163 0.58015 0.0
C272 C 0.8592 0.80058 0.62129 0.0
C273 C 0.8834 0.77662 0.61362 0.0
C274 C 0.92256 0.79983 0.58812 0.0
H275 H 0.79666 0.49624 0.7379 0.0
H276 H 0.84704 0.58538 0.71336 0.0
C277 C 0.93843 0.84711 0.57151 0.0
C278 C 0.86558 0.72631 0.6314 0.0
H279 H 0.83521 0.66298 0.7092 0.0
C280 C 0.84654 0.68428 0.61264 0.0
C281 C 0.86377 0.71877 0.6667 0.0
C282 C 0.88773 0.76279 0.6884 0.0
C283 C 0.82292 0.63466 0.62813 0.0
C284 C 0.81674 0.62651 0.66338 0.0
C285 C 0.83876 0.66892 0.6822 0.0
C286 C 0.78537 0.57412 0.68078 0.0
C287 C 0.80457 0.59143 0.60644 0.0
C288 C 0.73321 0.53893 0.67197 0.0
C289 C 0.70474 0.48838 0.68577 0.0
C290 C 0.72727 0.47202 0.70933 0.0
C291 C 0.77824 0.50794 0.71995 0.0
C292 C 0.8071 0.55872 0.70577 0.0
H293 H 0.8276 0.60539 0.58253 0.0
H294 H 0.80787 0.56137 0.61923 0.0
H295 H 0.76284 0.57397 0.60038 0.0
H296 H 0.71483 0.55026 0.6537 0.0
H297 H 0.66534 0.46162 0.67734 0.0
H298 H 0.97463 0.83185 0.43057 0.0
H299 H 0.00112 0.79116 0.39489 0.0
H300 H 0.15189 0.86756 0.44102 0.0
H301 H 0.12601 0.90855 0.47638 0.0
H302 H 0.09897 0.85033 0.3498 0.0
H303 H 0.09179 0.71068 0.44496 0.0
H304 H 0.05476 0.73744 0.44952 0.0
H305 H 0.12363 0.77412 0.45799 0.0
C306 C 0.01309 0.83924 0.4334 0.0
C307 C 0.04829 0.87311 0.45627 0.0
C308 C 0.0282 0.81629 0.41291 0.0
C309 C 0.07831 0.82636 0.41548 0.0
C310 C 0.11289 0.8591 0.43891 0.0
H311 H 0.30767 0.80339 0.34243 0.0
H312 H 0.25121 0.82789 0.36045 0.0
C313 C 0.09806 0.88239 0.45909 0.0
C314 C 0.096 0.80441 0.39314 0.0
H315 H 0.14368 0.73154 0.39541 0.0
C316 C 0.10764 0.82339 0.35944 0.0
C317 C 0.10692 0.76916 0.40587 0.0
C318 C 0.09324 0.74622 0.44151 0.0
C319 C 0.13345 0.81055 0.33874 0.0
C320 C 0.14754 0.77812 0.35225 0.0
C321 C 0.13285 0.75664 0.38527 0.0
C322 C 0.18336 0.77092 0.33441 0.0
C323 C 0.14838 0.83382 0.30324 0.0
C324 C 0.1642 0.73217 0.31269 0.0
C325 C 0.19667 0.71836 0.30211 0.0
C326 C 0.24822 0.74301 0.31346 0.0
C327 C 0.26812 0.78408 0.33327 0.0
C328 C 0.23598 0.79805 0.34355 0.0
H329 H 0.13199 0.85608 0.29584 0.0
H330 H 0.19183 0.8595 0.30029 0.0
H331 H 0.13417 0.80327 0.28606 0.0
H332 H 0.12346 0.71062 0.30568 0.0
H333 H 0.18035 0.68606 0.28723 0.0
H334 H 0.1356 0.09795 0.98713 0.0
H335 H 0.22265 0.15232 0.95872 0.0
H336 H 0.17099 0.04196 0.8861 0.0
H337 H 0.08484 -0.01146 0.91376 0.0
H338 H 0.29121 0.12546 0.94895 0.0
H339 H 0.23827 0.17371 0.82654 0.0
H340 H 0.19448 0.14785 0.8627 0.0
H341 H 0.19946 0.10625 0.83817 0.0
C342 C 0.14288 0.08585 0.96487 0.0
C343 C 0.10357 0.03921 0.95257 0.0
C344 C 0.19242 0.1168 0.94866 0.0
C345 C 0.20296 0.10166 0.91985 0.0
C346 C 0.16345 0.05518 0.90766 0.0
H347 H 0.47978 0.19133 0.8031 0.0
H348 H 0.38927 0.15009 0.82439 0.0
C349 C 0.1143 0.02444 0.92373 0.0
C350 C 0.25619 0.13192 0.90382 0.0
H351 H 0.32236 0.18697 0.82887 0.0
C352 C 0.29816 0.13953 0.92282 0.0
C353 C 0.26505 0.14965 0.86957 0.0
C354 C 0.22199 0.14439 0.84814 0.0
C355 C 0.34843 0.16325 0.90838 0.0
C356 C 0.35721 0.18063 0.87411 0.0
C357 C 0.31541 0.17338 0.85509 0.0
C358 C 0.41014 0.20783 0.85814 0.0
C359 C 0.39151 0.16836 0.92977 0.0
C360 C 0.45114 0.25468 0.8691 0.0
C361 C 0.50228 0.27816 0.85691 0.0
C362 C 0.51347 0.25563 0.83316 0.0
C363 C 0.47205 0.20991 0.82092 0.0
C364 C 0.42055 0.18622 0.83325 0.0
H365 H 0.37551 0.1419 0.95281 0.0
H366 H 0.41622 0.16063 0.91577 0.0
H367 H 0.41706 0.20799 0.93731 0.0
H368 H 0.44378 0.27245 0.88781 0.0
H369 H 0.5334 0.31363 0.8666 0.0
H370 H 0.02883 0.12744 0.49265 0.0
H371 H 0.0551 0.21022 0.46413 0.0
H372 H 0.14444 0.19657 0.39097 0.0
H373 H 0.11799 0.11441 0.41885 0.0
H374 H 0.15554 0.29914 0.45113 0.0
H375 H 0.0565 0.22764 0.33219 0.0
H376 H 0.0416 0.18579 0.36953 0.0
H377 H 0.09855 0.20774 0.34387 0.0
C378 C 0.05391 0.1422 0.47044 0.0
C379 C 0.07112 0.11442 0.45785 0.0
C380 C 0.06883 0.18935 0.45413 0.0
C381 C 0.10079 0.20908 0.42492 0.0
C382 C 0.11862 0.18159 0.41285 0.0
H383 H 0.27124 0.49605 0.29955 0.0
H384 H 0.22955 0.40716 0.32291 0.0
C385 C 0.10379 0.13477 0.42903 0.0
C386 C 0.11771 0.25935 0.40763 0.0
H387 H 0.12075 0.31792 0.33175 0.0
C388 C 0.1474 0.30316 0.42516 0.0
C389 C 0.10745 0.26468 0.37359 0.0
C390 C 0.07385 0.21891 0.35376 0.0
C391 C 0.16826 0.35218 0.40943 0.0
C392 C 0.15844 0.35755 0.37533 0.0
C393 C 0.12842 0.31376 0.35782 0.0
C394 C 0.17859 0.40848 0.35783 0.0
C395 C 0.2019 0.398 0.42924 0.0
C396 C 0.16208 0.43776 0.3686 0.0
C397 C 0.18541 0.48804 0.35515 0.0
C398 C 0.22532 0.50999 0.33031 0.0
C399 C 0.23982 0.47977 0.31813 0.0
C400 C 0.21639 0.42921 0.33169 0.0
H401 H 0.21636 0.38855 0.45215 0.0
H402 H 0.23622 0.42976 0.414 0.0
H403 H 0.17828 0.41167 0.43693 0.0
H404 H 0.13231 0.42226 0.38826 0.0
H405 H 0.17343 0.51043 0.36501 0.0
H406 H 0.86567 -0.00901 0.93889 0.0
H407 H 0.83011 0.03139 0.90569 0.0
H408 H 0.96292 0.17987 0.92897 0.0
H409 H -0.00156 0.1398 0.96266 0.0
H410 H 0.87159 0.1688 0.93946 0.0
H411 H 0.87074 0.10898 0.8142 0.0
H412 H 0.83733 0.05618 0.84547 0.0
H413 H 0.90678 0.10366 0.84816 0.0
C414 C 0.88773 0.0323 0.93671 0.0
C415 C 0.93505 0.06202 0.95358 0.0
C416 C 0.86746 0.05542 0.91741 0.0
C417 C 0.89415 0.10884 0.91427 0.0
C418 C 0.94168 0.13863 0.93077 0.0
H419 H 0.80282 0.28833 0.79339 0.0
H420 H 0.84954 0.24987 0.81284 0.0
C421 C 0.96197 0.11556 0.95008 0.0
C422 C 0.87058 0.13337 0.89602 0.0
H423 H 0.81975 0.14229 0.82142 0.0
C424 C 0.86079 0.16333 0.91356 0.0
C425 C 0.85686 0.12687 0.86205 0.0
C426 C 0.86893 0.09761 0.84124 0.0
C427 C 0.83622 0.18537 0.89855 0.0
C428 C 0.82015 0.17679 0.86514 0.0
C429 C 0.83154 0.14842 0.84712 0.0
C430 C 0.78941 0.19527 0.84948 0.0
C431 C 0.82733 0.21754 0.91873 0.0
C432 C 0.73934 0.17599 0.86257 0.0
C433 C 0.71274 0.19753 0.85139 0.0
C434 C 0.73518 0.23846 0.82652 0.0
C435 C 0.78412 0.2561 0.81206 0.0
C436 C 0.81094 0.23442 0.82334 0.0
H437 H 0.85342 0.23123 0.94043 0.0
H438 H 0.83412 0.25116 0.90314 0.0
H439 H 0.78607 0.19421 0.92835 0.0
H440 H 0.72165 0.14545 0.88244 0.0
H441 H 0.67522 0.18336 0.86312 0.0
H442 H 0.82043 0.95293 0.48383 0.0
H443 H 0.74609 0.91684 0.44652 0.0
H444 H 0.83102 0.89169 0.37713 0.0
H445 H 0.9042 0.92522 0.41514 0.0
H446 H 0.73108 0.94036 0.38532 0.0
H447 H 0.70034 0.75161 0.3884 0.0
H448 H 0.74565 0.79978 0.41523 0.0
H449 H 0.76409 0.80354 0.37244 0.0
C450 C 0.82322 0.93968 0.46062 0.0
C451 C 0.86785 0.94119 0.4527 0.0
C452 C 0.78072 0.91914 0.43923 0.0
C453 C 0.78221 0.9003 0.40925 0.0
C454 C 0.82794 0.90421 0.40057 0.0
H455 H 0.50749 0.80005 0.27987 0.0
H456 H 0.60043 0.84723 0.29509 0.0
C457 C 0.86995 0.9237 0.42227 0.0
C458 C 0.73535 0.87551 0.38775 0.0
H459 H 0.64577 0.76351 0.3537 0.0
C460 C 0.71252 0.90174 0.37827 0.0
C461 C 0.71099 0.82503 0.37851 0.0
C462 C 0.73117 0.79313 0.38941 0.0
C463 C 0.66509 0.87833 0.36112 0.0
C464 C 0.64052 0.82769 0.35219 0.0
C465 C 0.66474 0.80243 0.36027 0.0
C466 C 0.58608 0.79727 0.33949 0.0
C467 C 0.64031 0.90705 0.3545 0.0
C468 C 0.54758 0.75209 0.35812 0.0
C469 C 0.49534 0.72454 0.34887 0.0
C470 C 0.47983 0.74138 0.32077 0.0
C471 C 0.51842 0.78563 0.30126 0.0
C472 C 0.57135 0.81311 0.31035 0.0
H473 H 0.65896 0.94143 0.36873 0.0
H474 H 0.64486 0.91984 0.32757 0.0
H475 H 0.59772 0.8821 0.36116 0.0
H476 H 0.55764 0.73884 0.38063 0.0
H477 H 0.46665 0.69053 0.36443 0.0
H478 H 0.81714 0.82902 0.92653 0.0
H479 H 0.78522 0.76416 0.88621 0.0
H480 H 0.86111 0.70236 0.93991 0.0
H481 H 0.89295 0.76662 0.98004 0.0
H482 H 0.88825 0.73712 0.86568 0.0
H483 H 0.67481 0.60057 0.89877 0.0
H484 H 0.70542 0.66855 0.8968 0.0
H485 H 0.72147 0.63873 0.92955 0.0
C486 C 0.82574 0.80069 0.93016 0.0
C487 C 0.85751 0.80277 0.95634 0.0
C488 C 0.80775 0.76393 0.90707 0.0
C489 C 0.82119 0.72885 0.91007 0.0
C490 C 0.85057 0.72932 0.93717 0.0
H491 H 0.81523 0.49039 0.84427 0.0
H492 H 0.83983 0.57356 0.85891 0.0
C493 C 0.86847 0.76585 0.96015 0.0
C494 C 0.80809 0.69356 0.8841 0.0
H495 H 0.71051 0.57645 0.86013 0.0
C496 C 0.84917 0.7024 0.86393 0.0
C497 C 0.75702 0.64886 0.8816 0.0
C498 C 0.71186 0.63813 0.90277 0.0
C499 C 0.84108 0.66611 0.84268 0.0
C500 C 0.79092 0.61946 0.84218 0.0
C501 C 0.74899 0.61227 0.86056 0.0
C502 C 0.783 0.57474 0.82747 0.0
C503 C 0.88673 0.67726 0.82184 0.0
C504 C 0.7436 0.54816 0.80433 0.0
C505 C 0.72957 0.50042 0.79583 0.0
C506 C 0.75432 0.4785 0.81074 0.0
C507 C 0.79581 0.50662 0.83226 0.0
C508 C 0.81005 0.55429 0.84051 0.0
H509 H 0.91537 0.71903 0.81569 0.0
H510 H 0.90749 0.6631 0.83619 0.0
H511 H 0.87337 0.65808 0.79829 0.0
H512 H 0.72198 0.56312 0.79421 0.0
H513 H 0.69682 0.47912 0.77962 0.0
loop_
_geom_bond_atom_site_label_1
_geom_bond_atom_site_label_2
_geom_bond_distance
_geom_bond_site_symmetry_2
_ccdc_geom_bond_type
Dy0 O4 2.398 . S
Dy0 O5 2.491 . S
Dy0 O6 2.403 1_455 S
Dy0 O7 2.664 1_445 S
Dy0 O11 2.326 1_455 S
Dy0 O15 2.310 1_554 S
Dy0 O16 2.351 1_545 S
C1 O12 1.185 . S
C1 O13 1.355 . S
C2 O4 1.185 . S
C2 O5 1.355 . S
Dy3 O7 2.310 1_556 S
Dy3 O10 2.351 1_565 S
Dy3 O12 2.398 . S
Dy3 O13 2.491 . S
Dy3 O14 2.403 1_665 S
Dy3 O15 2.664 1_665 S
Dy3 O17 2.326 1_656 S
O4 Dy0 2.398 . S
O4 C2 1.185 . S
O5 Dy0 2.491 . S
O5 C2 1.355 . S
O6 Dy0 2.403 1_655 S
O6 C8 1.254 1_545 S
O7 Dy0 2.664 1_665 S
O7 Dy3 2.310 1_554 S
O7 C8 1.268 . S
C8 O6 1.254 1_565 S
C8 O7 1.268 . S
C9 O14 1.254 . S
C9 O15 1.268 . S
O10 Dy3 2.351 1_545 S
O10 C18 1.249 . S
O11 Dy0 2.326 1_655 S
O11 C18 1.267 1_554 S
O12 C1 1.185 . S
O12 Dy3 2.398 . S
O13 C1 1.355 . S
O13 Dy3 2.491 . S
O14 Dy3 2.403 1_445 S
O14 C9 1.254 . S
O15 Dy0 2.310 1_556 S
O15 Dy3 2.664 1_445 S
O15 C9 1.268 . S
O16 Dy0 2.351 1_565 S
O16 C19 1.249 . S
O17 Dy3 2.326 1_454 S
O17 C19 1.268 . S
C18 O10 1.249 . S
C18 O11 1.267 1_556 S
C19 O16 1.249 . S
C19 O17 1.268 . S
Dy20 O24 2.398 . S
Dy20 O25 2.491 . S
Dy20 O26 2.403 1_545 S
Dy20 O27 2.662 1_645 S
Dy20 O31 2.326 1_545 S
Dy20 O35 2.310 1_655 S
Dy20 O36 2.351 1_655 S
C21 O32 1.185 . S
C21 O33 1.355 . S
C22 O24 1.185 . S
C22 O25 1.355 . S
Dy23 O27 2.311 . S
Dy23 O30 2.351 1_455 S
Dy23 O32 2.398 . S
Dy23 O33 2.491 . S
Dy23 O34 2.403 1_565 S
Dy23 O35 2.664 1_565 S
Dy23 O37 2.326 1_565 S
O24 Dy20 2.398 . S
O24 C22 1.185 . S
O25 Dy20 2.491 . S
O25 C22 1.355 . S
O26 Dy20 2.403 1_565 S
O26 C28 1.254 . S
O27 Dy20 2.662 1_465 S
O27 Dy23 2.311 . S
O27 C28 1.267 1_455 S
C28 O26 1.254 . S
C28 O27 1.267 1_655 S
C29 O34 1.254 . S
C29 O35 1.268 . S
O30 Dy23 2.351 1_655 S
O30 C38 1.249 . S
O31 Dy20 2.326 1_565 S
O31 C38 1.267 . S
O32 C21 1.185 . S
O32 Dy23 2.398 . S
O33 C21 1.355 . S
O33 Dy23 2.491 . S
O34 Dy23 2.403 1_545 S
O34 C29 1.254 . S
O35 Dy20 2.310 1_455 S
O35 Dy23 2.664 1_545 S
O35 C29 1.268 . S
O36 Dy20 2.351 1_455 S
O36 C39 1.249 . S
O37 Dy23 2.326 1_545 S
O37 C39 1.267 . S
C38 O30 1.249 . S
C38 O31 1.267 . S
C39 O36 1.249 . S
C39 O37 1.267 . S
Zn40 O46 1.920 . S
Zn40 O52 1.898 . S
Zn40 O55 1.905 . S
Zn41 O49 1.905 . S
Zn41 O50 1.898 . S
Zn41 O58 1.920 . S
Zn42 O45 2.080 . S
Zn42 O48 2.114 . S
Zn42 O51 2.120 . S
Zn42 O53 2.120 . S
Zn42 O54 2.114 . S
Zn42 O57 2.080 . S
C43 O48 1.166 . S
C43 O49 1.182 . S
C44 O50 1.167 . S
C44 O51 1.299 . S
O45 Zn42 2.080 . S
O45 C59 1.305 . S
O46 Zn40 1.920 . S
O46 C59 1.234 . S
C47 O52 1.167 . S
C47 O53 1.299 . S
O48 Zn42 2.114 . S
O48 C43 1.166 . S
O49 Zn41 1.905 . S
O49 C43 1.182 . S
O50 Zn41 1.898 . S
O50 C44 1.167 . S
O51 Zn42 2.120 . S
O51 C44 1.299 . S
O52 Zn40 1.898 . S
O52 C47 1.167 . S
O53 Zn42 2.120 . S
O53 C47 1.299 . S
O54 Zn42 2.114 . S
O54 C56 1.166 . S
O55 Zn40 1.905 . S
O55 C56 1.182 . S
C56 O54 1.166 . S
C56 O55 1.182 . S
O57 Zn42 2.080 . S
O57 C60 1.305 . S
O58 Zn41 1.920 . S
O58 C60 1.234 . S
C59 O45 1.305 . S
C59 O46 1.234 . S
C60 O57 1.305 . S
C60 O58 1.234 . S
Zn61 O67 1.920 . S
Zn61 O73 1.898 . S
Zn61 O76 1.905 . S
Zn62 O70 1.905 . S
Zn62 O71 1.898 . S
Zn62 O79 1.920 . S
Zn63 O66 2.080 . S
Zn63 O69 2.114 . S
Zn63 O72 2.120 . S
Zn63 O74 2.120 . S
Zn63 O75 2.114 . S
Zn63 O78 2.080 . S
C64 O69 1.166 . S
C64 O70 1.182 . S
C65 O71 1.167 . S
C65 O72 1.299 . S
O66 Zn63 2.080 . S
O66 C80 1.305 . S
O67 Zn61 1.920 . S
O67 C80 1.234 . S
C68 O73 1.167 . S
C68 O74 1.299 . S
O69 Zn63 2.114 . S
O69 C64 1.166 . S
O70 Zn62 1.905 . S
O70 C64 1.182 . S
O71 Zn62 1.898 . S
O71 C65 1.167 . S
O72 Zn63 2.120 . S
O72 C65 1.299 . S
O73 Zn61 1.898 . S
O73 C68 1.167 . S
O74 Zn63 2.120 . S
O74 C68 1.299 . S
O75 Zn63 2.114 . S
O75 C77 1.166 . S
O76 Zn61 1.905 . S
O76 C77 1.182 . S
C77 O75 1.166 . S
C77 O76 1.182 . S
O78 Zn63 2.080 . S
O78 C81 1.305 . S
O79 Zn62 1.920 . S
O79 C81 1.234 . S
C80 O66 1.305 . S
C80 O67 1.234 . S
C81 O78 1.305 . S
C81 O79 1.234 . S
H82 C90 0.929 . S
H83 C92 0.930 . S
H84 C94 0.930 . S
H85 C97 0.929 . S
H86 C100 0.930 . S
H87 C102 0.960 . S
H88 C102 0.960 . S
H89 C102 0.960 . S
C90 H82 0.929 . S
C90 C91 1.377 . S
C90 C92 1.384 . S
C91 C90 1.377 . S
C91 C97 1.390 . S
C92 H83 0.930 . S
C92 C90 1.384 . S
C92 C93 1.372 . S
C93 C92 1.372 . S
C93 C94 1.400 . S
C93 C98 1.490 . S
C94 H84 0.930 . S
C94 C93 1.400 . S
C94 C97 1.386 . S
H95 C111 0.930 . S
H96 C112 0.931 . S
C97 H85 0.929 . S
C97 C91 1.390 . S
C97 C94 1.386 . S
C98 C93 1.490 . S
C98 C100 1.395 . S
C98 C101 1.403 . S
H99 C105 0.930 . S
C100 H86 0.930 . S
C100 C98 1.395 . S
C100 C103 1.403 . S
C101 C98 1.403 . S
C101 C102 1.524 . S
C101 C105 1.400 . S
C102 H87 0.960 . S
C102 H88 0.960 . S
C102 H89 0.960 . S
C102 C101 1.524 . S
C103 C100 1.403 . S
C103 C104 1.392 . S
C103 C107 1.495 . S
C104 C103 1.392 . S
C104 C105 1.385 . S
C104 C106 1.478 . S
C105 H99 0.930 . S
C105 C101 1.400 . S
C105 C104 1.385 . S
C106 C104 1.478 . S
C106 C108 1.381 . S
C106 C112 1.383 . S
C107 C103 1.495 . S
C107 H113 0.959 . S
C107 H114 0.961 . S
C107 H115 0.960 . S
C108 C106 1.381 . S
C108 C109 1.394 . S
C108 H116 0.930 . S
C109 C108 1.394 . S
C109 C110 1.383 . S
C109 H117 0.929 . S
C110 C109 1.383 . S
C110 C111 1.377 . S
C111 H95 0.930 . S
C111 C110 1.377 . S
C111 C112 1.379 . S
C112 H96 0.931 . S
C112 C106 1.383 . S
C112 C111 1.379 . S
H113 C107 0.959 . S
H114 C107 0.961 . S
H115 C107 0.960 . S
H116 C108 0.930 . S
H117 C109 0.929 . S
H118 C126 0.929 . S
H119 C128 0.930 . S
H120 C130 0.930 . S
H121 C133 0.929 1_565 S
H122 C136 0.930 . S
H123 C138 0.960 . S
H124 C138 0.960 . S
H125 C138 0.960 . S
C126 H118 0.929 . S
C126 C127 1.377 . S
C126 C128 1.384 . S
C127 C126 1.377 . S
C127 C133 1.390 . S
C128 H119 0.930 . S
C128 C126 1.384 . S
C128 C129 1.372 . S
C129 C128 1.372 . S
C129 C130 1.400 . S
C129 C134 1.490 . S
C130 H120 0.930 . S
C130 C129 1.400 . S
C130 C133 1.386 . S
H131 C147 0.930 . S
H132 C148 0.931 . S
C133 H121 0.929 1_545 S
C133 C127 1.390 . S
C133 C130 1.386 . S
C134 C129 1.490 . S
C134 C136 1.395 . S
C134 C137 1.403 . S
H135 C141 0.930 . S
C136 H122 0.930 . S
C136 C134 1.395 . S
C136 C139 1.403 . S
C137 C134 1.403 . S
C137 C138 1.524 . S
C137 C141 1.400 . S
C138 H123 0.960 . S
C138 H124 0.960 . S
C138 H125 0.960 . S
C138 C137 1.524 . S
C139 C136 1.403 . S
C139 C140 1.392 . S
C139 C143 1.495 . S
C140 C139 1.392 . S
C140 C141 1.385 . S
C140 C142 1.478 . S
C141 H135 0.930 . S
C141 C137 1.400 . S
C141 C140 1.385 . S
C142 C140 1.478 . S
C142 C144 1.381 . S
C142 C148 1.383 . S
C143 C139 1.495 . S
C143 H149 0.959 . S
C143 H150 0.961 . S
C143 H151 0.960 . S
C144 C142 1.381 . S
C144 C145 1.394 . S
C144 H152 0.930 . S
C145 C144 1.394 . S
C145 C146 1.383 . S
C145 H153 0.929 . S
C146 C145 1.383 . S
C146 C147 1.377 . S
C147 H131 0.930 . S
C147 C146 1.377 . S
C147 C148 1.379 . S
C148 H132 0.931 . S
C148 C142 1.383 . S
C148 C147 1.379 . S
H149 C143 0.959 . S
H150 C143 0.961 . S
H151 C143 0.960 . S
H152 C144 0.930 . S
H153 C145 0.929 . S
H154 C162 0.929 . S
H155 C164 0.930 . S
H156 C166 0.930 . S
H157 C169 0.929 . S
H158 C172 0.930 . S
H159 C174 0.960 . S
H160 C174 0.960 . S
H161 C174 0.960 . S
C162 H154 0.929 . S
C162 C163 1.377 . S
C162 C164 1.384 . S
C163 C162 1.377 . S
C163 C169 1.390 . S
C164 H155 0.930 . S
C164 C162 1.384 . S
C164 C165 1.372 . S
C165 C164 1.372 . S
C165 C166 1.400 . S
C165 C170 1.490 . S
C166 H156 0.930 . S
C166 C165 1.400 . S
C166 C169 1.386 . S
H167 C183 0.930 . S
H168 C184 0.931 . S
C169 H157 0.929 . S
C169 C163 1.390 . S
C169 C166 1.386 . S
C170 C165 1.490 . S
C170 C172 1.395 . S
C170 C173 1.403 . S
H171 C177 0.930 . S
C172 H158 0.930 . S
C172 C170 1.395 . S
C172 C175 1.403 . S
C173 C170 1.403 . S
C173 C174 1.524 . S
C173 C177 1.400 . S
C174 H159 0.960 . S
C174 H160 0.960 . S
C174 H161 0.960 . S
C174 C173 1.524 . S
C175 C172 1.403 . S
C175 C176 1.392 . S
C175 C179 1.495 . S
C176 C175 1.392 . S
C176 C177 1.385 . S
C176 C178 1.478 . S
C177 H171 0.930 . S
C177 C173 1.400 . S
C177 C176 1.385 . S
C178 C176 1.478 . S
C178 C180 1.381 . S
C178 C184 1.383 . S
C179 C175 1.495 . S
C179 H185 0.959 . S
C179 H186 0.961 . S
C179 H187 0.960 . S
C180 C178 1.381 . S
C180 C181 1.394 . S
C180 H188 0.930 . S
C181 C180 1.394 . S
C181 C182 1.383 . S
C181 H189 0.929 . S
C182 C181 1.383 . S
C182 C183 1.377 . S
C183 H167 0.930 . S
C183 C182 1.377 . S
C183 C184 1.379 . S
C184 H168 0.931 . S
C184 C178 1.383 . S
C184 C183 1.379 . S
H185 C179 0.959 . S
H186 C179 0.961 . S
H187 C179 0.960 . S
H188 C180 0.930 . S
H189 C181 0.929 . S
H190 C198 0.929 . S
H191 C200 0.930 . S
H192 C202 0.930 . S
H193 C205 0.929 . S
H194 C208 0.930 . S
H195 C210 0.960 . S
H196 C210 0.960 . S
H197 C210 0.960 . S
C198 H190 0.929 . S
C198 C199 1.377 . S
C198 C200 1.384 . S
C199 C198 1.377 . S
C199 C205 1.390 . S
C200 H191 0.930 . S
C200 C198 1.384 . S
C200 C201 1.372 . S
C201 C200 1.372 . S
C201 C202 1.400 . S
C201 C206 1.490 . S
C202 H192 0.930 . S
C202 C201 1.400 . S
C202 C205 1.386 . S
H203 C219 0.930 . S
H204 C220 0.931 . S
C205 H193 0.929 . S
C205 C199 1.390 . S
C205 C202 1.386 . S
C206 C201 1.490 . S
C206 C208 1.395 . S
C206 C209 1.403 . S
H207 C213 0.930 . S
C208 H194 0.930 . S
C208 C206 1.395 . S
C208 C211 1.403 . S
C209 C206 1.403 . S
C209 C210 1.524 . S
C209 C213 1.400 . S
C210 H195 0.960 . S
C210 H196 0.960 . S
C210 H197 0.960 . S
C210 C209 1.524 . S
C211 C208 1.403 . S
C211 C212 1.392 . S
C211 C215 1.495 . S
C212 C211 1.392 . S
C212 C213 1.385 . S
C212 C214 1.478 . S
C213 H207 0.930 . S
C213 C209 1.400 . S
C213 C212 1.385 . S
C214 C212 1.478 . S
C214 C216 1.381 . S
C214 C220 1.383 . S
C215 C211 1.495 . S
C215 H221 0.959 . S
C215 H222 0.961 . S
C215 H223 0.960 . S
C216 C214 1.381 . S
C216 C217 1.394 . S
C216 H224 0.930 . S
C217 C216 1.394 . S
C217 C218 1.383 . S
C217 H225 0.929 . S
C218 C217 1.383 . S
C218 C219 1.377 . S
C219 H203 0.930 . S
C219 C218 1.377 . S
C219 C220 1.379 . S
C220 H204 0.931 . S
C220 C214 1.383 . S
C220 C219 1.379 . S
H221 C215 0.959 . S
H222 C215 0.961 . S
H223 C215 0.960 . S
H224 C216 0.930 . S
H225 C217 0.929 . S
H226 C234 0.929 . S
H227 C236 0.930 . S
H228 C238 0.930 . S
H229 C241 0.929 . S
H230 C244 0.930 . S
H231 C246 0.960 . S
H232 C246 0.960 . S
H233 C246 0.960 . S
C234 H226 0.929 . S
C234 C235 1.377 . S
C234 C236 1.384 . S
C235 C234 1.377 . S
C235 C241 1.390 . S
C236 H227 0.930 . S
C236 C234 1.384 . S
C236 C237 1.372 . S
C237 C236 1.372 . S
C237 C238 1.400 . S
C237 C242 1.490 . S
C238 H228 0.930 . S
C238 C237 1.400 . S
C238 C241 1.386 . S
H239 C255 0.930 . S
H240 C256 0.931 . S
C241 H229 0.929 . S
C241 C235 1.390 . S
C241 C238 1.386 . S
C242 C237 1.490 . S
C242 C244 1.395 . S
C242 C245 1.403 . S
H243 C249 0.930 . S
C244 H230 0.930 . S
C244 C242 1.395 . S
C244 C247 1.403 . S
C245 C242 1.403 . S
C245 C246 1.524 . S
C245 C249 1.400 . S
C246 H231 0.960 . S
C246 H232 0.960 . S
C246 H233 0.960 . S
C246 C245 1.524 . S
C247 C244 1.403 . S
C247 C248 1.392 . S
C247 C251 1.495 . S
C248 C247 1.392 . S
C248 C249 1.385 . S
C248 C250 1.478 . S
C249 H243 0.930 . S
C249 C245 1.400 . S
C249 C248 1.385 . S
C250 C248 1.478 . S
C250 C252 1.381 . S
C250 C256 1.383 . S
C251 C247 1.495 . S
C251 H257 0.959 . S
C251 H258 0.961 . S
C251 H259 0.960 . S
C252 C250 1.381 . S
C252 C253 1.394 . S
C252 H260 0.930 . S
C253 C252 1.394 . S
C253 C254 1.383 . S
C253 H261 0.929 . S
C254 C253 1.383 . S
C254 C255 1.377 . S
C255 H239 0.930 . S
C255 C254 1.377 . S
C255 C256 1.379 . S
C256 H240 0.931 . S
C256 C250 1.383 . S
C256 C255 1.379 . S
H257 C251 0.959 . S
H258 C251 0.961 . S
H259 C251 0.960 . S
H260 C252 0.930 . S
H261 C253 0.929 . S
H262 C270 0.929 . S
H263 C272 0.930 . S
H264 C274 0.930 . S
H265 C277 0.929 . S
H266 C280 0.930 . S
H267 C282 0.960 . S
H268 C282 0.960 . S
H269 C282 0.960 . S
C270 H262 0.929 . S
C270 C271 1.377 . S
C270 C272 1.384 . S
C271 C270 1.377 . S
C271 C277 1.390 . S
C272 H263 0.930 . S
C272 C270 1.384 . S
C272 C273 1.372 . S
C273 C272 1.372 . S
C273 C274 1.400 . S
C273 C278 1.490 . S
C274 H264 0.930 . S
C274 C273 1.400 . S
C274 C277 1.386 . S
H275 C291 0.930 . S
H276 C292 0.931 . S
C277 H265 0.929 . S
C277 C271 1.390 . S
C277 C274 1.386 . S
C278 C273 1.490 . S
C278 C280 1.395 . S
C278 C281 1.403 . S
H279 C285 0.930 . S
C280 H266 0.930 . S
C280 C278 1.395 . S
C280 C283 1.403 . S
C281 C278 1.403 . S
C281 C282 1.524 . S
C281 C285 1.400 . S
C282 H267 0.960 . S
C282 H268 0.960 . S
C282 H269 0.960 . S
C282 C281 1.524 . S
C283 C280 1.403 . S
C283 C284 1.392 . S
C283 C287 1.495 . S
C284 C283 1.392 . S
C284 C285 1.385 . S
C284 C286 1.478 . S
C285 H279 0.930 . S
C285 C281 1.400 . S
C285 C284 1.385 . S
C286 C284 1.478 . S
C286 C288 1.381 . S
C286 C292 1.383 . S
C287 C283 1.495 . S
C287 H293 0.959 . S
C287 H294 0.961 . S
C287 H295 0.960 . S
C288 C286 1.381 . S
C288 C289 1.394 . S
C288 H296 0.930 . S
C289 C288 1.394 . S
C289 C290 1.383 . S
C289 H297 0.929 . S
C290 C289 1.383 . S
C290 C291 1.377 . S
C291 H275 0.930 . S
C291 C290 1.377 . S
C291 C292 1.379 . S
C292 H276 0.931 . S
C292 C286 1.383 . S
C292 C291 1.379 . S
H293 C287 0.959 . S
H294 C287 0.961 . S
H295 C287 0.960 . S
H296 C288 0.930 . S
H297 C289 0.929 . S
H298 C306 0.929 . S
H299 C308 0.930 . S
H300 C310 0.930 . S
H301 C313 0.929 . S
H302 C316 0.930 . S
H303 C318 0.960 . S
H304 C318 0.960 . S
H305 C318 0.960 . S
C306 H298 0.929 . S
C306 C307 1.377 . S
C306 C308 1.384 . S
C307 C306 1.377 . S
C307 C313 1.390 . S
C308 H299 0.930 . S
C308 C306 1.384 . S
C308 C309 1.372 . S
C309 C308 1.372 . S
C309 C310 1.400 . S
C309 C314 1.490 . S
C310 H300 0.930 . S
C310 C309 1.400 . S
C310 C313 1.386 . S
H311 C327 0.930 . S
H312 C328 0.931 . S
C313 H301 0.929 . S
C313 C307 1.390 . S
C313 C310 1.386 . S
C314 C309 1.490 . S
C314 C316 1.395 . S
C314 C317 1.403 . S
H315 C321 0.930 . S
C316 H302 0.930 . S
C316 C314 1.395 . S
C316 C319 1.403 . S
C317 C314 1.403 . S
C317 C318 1.524 . S
C317 C321 1.400 . S
C318 H303 0.960 . S
C318 H304 0.960 . S
C318 H305 0.960 . S
C318 C317 1.524 . S
C319 C316 1.403 . S
C319 C320 1.392 . S
C319 C323 1.495 . S
C320 C319 1.392 . S
C320 C321 1.385 . S
C320 C322 1.478 . S
C321 H315 0.930 . S
C321 C317 1.400 . S
C321 C320 1.385 . S
C322 C320 1.478 . S
C322 C324 1.381 . S
C322 C328 1.383 . S
C323 C319 1.495 . S
C323 H329 0.959 . S
C323 H330 0.961 . S
C323 H331 0.960 . S
C324 C322 1.381 . S
C324 C325 1.394 . S
C324 H332 0.930 . S
C325 C324 1.394 . S
C325 C326 1.383 . S
C325 H333 0.929 . S
C326 C325 1.383 . S
C326 C327 1.377 . S
C327 H311 0.930 . S
C327 C326 1.377 . S
C327 C328 1.379 . S
C328 H312 0.931 . S
C328 C322 1.383 . S
C328 C327 1.379 . S
H329 C323 0.959 . S
H330 C323 0.961 . S
H331 C323 0.960 . S
H332 C324 0.930 . S
H333 C325 0.929 . S
H334 C342 0.929 . S
H335 C344 0.930 . S
H336 C346 0.930 . S
H337 C349 0.929 . S
H338 C352 0.930 . S
H339 C354 0.960 . S
H340 C354 0.960 . S
H341 C354 0.960 . S
C342 H334 0.929 . S
C342 C343 1.377 . S
C342 C344 1.384 . S
C343 C342 1.377 . S
C343 C349 1.390 . S
C344 H335 0.930 . S
C344 C342 1.384 . S
C344 C345 1.372 . S
C345 C344 1.372 . S
C345 C346 1.400 . S
C345 C350 1.490 . S
C346 H336 0.930 . S
C346 C345 1.400 . S
C346 C349 1.386 . S
H347 C363 0.930 . S
H348 C364 0.931 . S
C349 H337 0.929 . S
C349 C343 1.390 . S
C349 C346 1.386 . S
C350 C345 1.490 . S
C350 C352 1.395 . S
C350 C353 1.403 . S
H351 C357 0.930 . S
C352 H338 0.930 . S
C352 C350 1.395 . S
C352 C355 1.403 . S
C353 C350 1.403 . S
C353 C354 1.524 . S
C353 C357 1.400 . S
C354 H339 0.960 . S
C354 H340 0.960 . S
C354 H341 0.960 . S
C354 C353 1.524 . S
C355 C352 1.403 . S
C355 C356 1.392 . S
C355 C359 1.495 . S
C356 C355 1.392 . S
C356 C357 1.385 . S
C356 C358 1.478 . S
C357 H351 0.930 . S
C357 C353 1.400 . S
C357 C356 1.385 . S
C358 C356 1.478 . S
C358 C360 1.381 . S
C358 C364 1.383 . S
C359 C355 1.495 . S
C359 H365 0.959 . S
C359 H366 0.961 . S
C359 H367 0.960 . S
C360 C358 1.381 . S
C360 C361 1.394 . S
C360 H368 0.930 . S
C361 C360 1.394 . S
C361 C362 1.383 . S
C361 H369 0.929 . S
C362 C361 1.383 . S
C362 C363 1.377 . S
C363 H347 0.930 . S
C363 C362 1.377 . S
C363 C364 1.379 . S
C364 H348 0.931 . S
C364 C358 1.383 . S
C364 C363 1.379 . S
H365 C359 0.959 . S
H366 C359 0.961 . S
H367 C359 0.960 . S
H368 C360 0.930 . S
H369 C361 0.929 . S
H370 C378 0.929 . S
H371 C380 0.930 . S
H372 C382 0.930 . S
H373 C385 0.929 . S
H374 C388 0.930 . S
H375 C390 0.960 . S
H376 C390 0.960 . S
H377 C390 0.960 . S
C378 H370 0.929 . S
C378 C379 1.377 . S
C378 C380 1.384 . S
C379 C378 1.377 . S
C379 C385 1.390 . S
C380 H371 0.930 . S
C380 C378 1.384 . S
C380 C381 1.372 . S
C381 C380 1.372 . S
C381 C382 1.400 . S
C381 C386 1.490 . S
C382 H372 0.930 . S
C382 C381 1.400 . S
C382 C385 1.386 . S
H383 C399 0.930 . S
H384 C400 0.931 . S
C385 H373 0.929 . S
C385 C379 1.390 . S
C385 C382 1.386 . S
C386 C381 1.490 . S
C386 C388 1.395 . S
C386 C389 1.403 . S
H387 C393 0.930 . S
C388 H374 0.930 . S
C388 C386 1.395 . S
C388 C391 1.403 . S
C389 C386 1.403 . S
C389 C390 1.524 . S
C389 C393 1.400 . S
C390 H375 0.960 . S
C390 H376 0.960 . S
C390 H377 0.960 . S
C390 C389 1.524 . S
C391 C388 1.403 . S
C391 C392 1.392 . S
C391 C395 1.495 . S
C392 C391 1.392 . S
C392 C393 1.385 . S
C392 C394 1.478 . S
C393 H387 0.930 . S
C393 C389 1.400 . S
C393 C392 1.385 . S
C394 C392 1.478 . S
C394 C396 1.381 . S
C394 C400 1.383 . S
C395 C391 1.495 . S
C395 H401 0.959 . S
C395 H402 0.961 . S
C395 H403 0.960 . S
C396 C394 1.381 . S
C396 C397 1.394 . S
C396 H404 0.930 . S
C397 C396 1.394 . S
C397 C398 1.383 . S
C397 H405 0.929 . S
C398 C397 1.383 . S
C398 C399 1.377 . S
C399 H383 0.930 . S
C399 C398 1.377 . S
C399 C400 1.379 . S
C400 H384 0.931 . S
C400 C394 1.383 . S
C400 C399 1.379 . S
H401 C395 0.959 . S
H402 C395 0.961 . S
H403 C395 0.960 . S
H404 C396 0.930 . S
H405 C397 0.929 . S
H406 C414 0.929 . S
H407 C416 0.930 . S
H408 C418 0.930 . S
H409 C421 0.929 1_455 S
H410 C424 0.930 . S
H411 C426 0.960 . S
H412 C426 0.960 . S
H413 C426 0.960 . S
C414 H406 0.929 . S
C414 C415 1.377 . S
C414 C416 1.384 . S
C415 C414 1.377 . S
C415 C421 1.390 . S
C416 H407 0.930 . S
C416 C414 1.384 . S
C416 C417 1.372 . S
C417 C416 1.372 . S
C417 C418 1.400 . S
C417 C422 1.490 . S
C418 H408 0.930 . S
C418 C417 1.400 . S
C418 C421 1.386 . S
H419 C435 0.930 . S
H420 C436 0.931 . S
C421 H409 0.929 1_655 S
C421 C415 1.390 . S
C421 C418 1.386 . S
C422 C417 1.490 . S
C422 C424 1.395 . S
C422 C425 1.403 . S
H423 C429 0.930 . S
C424 H410 0.930 . S
C424 C422 1.395 . S
C424 C427 1.403 . S
C425 C422 1.403 . S
C425 C426 1.524 . S
C425 C429 1.400 . S
C426 H411 0.960 . S
C426 H412 0.960 . S
C426 H413 0.960 . S
C426 C425 1.524 . S
C427 C424 1.403 . S
C427 C428 1.392 . S
C427 C431 1.495 . S
C428 C427 1.392 . S
C428 C429 1.385 . S
C428 C430 1.478 . S
C429 H423 0.930 . S
C429 C425 1.400 . S
C429 C428 1.385 . S
C430 C428 1.478 . S
C430 C432 1.381 . S
C430 C436 1.383 . S
C431 C427 1.495 . S
C431 H437 0.959 . S
C431 H438 0.961 . S
C431 H439 0.960 . S
C432 C430 1.381 . S
C432 C433 1.394 . S
C432 H440 0.930 . S
C433 C432 1.394 . S
C433 C434 1.383 . S
C433 H441 0.929 . S
C434 C433 1.383 . S
C434 C435 1.377 . S
C435 H419 0.930 . S
C435 C434 1.377 . S
C435 C436 1.379 . S
C436 H420 0.931 . S
C436 C430 1.383 . S
C436 C435 1.379 . S
H437 C431 0.959 . S
H438 C431 0.961 . S
H439 C431 0.960 . S
H440 C432 0.930 . S
H441 C433 0.929 . S
H442 C450 0.929 . S
H443 C452 0.930 . S
H444 C454 0.930 . S
H445 C457 0.929 . S
H446 C460 0.930 . S
H447 C462 0.960 . S
H448 C462 0.960 . S
H449 C462 0.960 . S
C450 H442 0.929 . S
C450 C451 1.377 . S
C450 C452 1.384 . S
C451 C450 1.377 . S
C451 C457 1.390 . S
C452 H443 0.930 . S
C452 C450 1.384 . S
C452 C453 1.372 . S
C453 C452 1.372 . S
C453 C454 1.400 . S
C453 C458 1.490 . S
C454 H444 0.930 . S
C454 C453 1.400 . S
C454 C457 1.386 . S
H455 C471 0.930 . S
H456 C472 0.931 . S
C457 H445 0.929 . S
C457 C451 1.390 . S
C457 C454 1.386 . S
C458 C453 1.490 . S
C458 C460 1.395 . S
C458 C461 1.403 . S
H459 C465 0.930 . S
C460 H446 0.930 . S
C460 C458 1.395 . S
C460 C463 1.403 . S
C461 C458 1.403 . S
C461 C462 1.524 . S
C461 C465 1.400 . S
C462 H447 0.960 . S
C462 H448 0.960 . S
C462 H449 0.960 . S
C462 C461 1.524 . S
C463 C460 1.403 . S
C463 C464 1.392 . S
C463 C467 1.495 . S
C464 C463 1.392 . S
C464 C465 1.385 . S
C464 C466 1.478 . S
C465 H459 0.930 . S
C465 C461 1.400 . S
C465 C464 1.385 . S
C466 C464 1.478 . S
C466 C468 1.381 . S
C466 C472 1.383 . S
C467 C463 1.495 . S
C467 H473 0.959 . S
C467 H474 0.961 . S
C467 H475 0.960 . S
C468 C466 1.381 . S
C468 C469 1.394 . S
C468 H476 0.930 . S
C469 C468 1.394 . S
C469 C470 1.383 . S
C469 H477 0.929 . S
C470 C469 1.383 . S
C470 C471 1.377 . S
C471 H455 0.930 . S
C471 C470 1.377 . S
C471 C472 1.379 . S
C472 H456 0.931 . S
C472 C466 1.383 . S
C472 C471 1.379 . S
H473 C467 0.959 . S
H474 C467 0.961 . S
H475 C467 0.960 . S
H476 C468 0.930 . S
H477 C469 0.929 . S
H478 C486 0.931 . S
H479 C488 0.930 . S
H480 C490 0.930 . S
H481 C493 0.929 . S
H482 C496 0.930 . S
H483 C498 0.960 . S
H484 C498 0.960 . S
H485 C498 0.960 . S
C486 H478 0.931 . S
C486 C487 1.377 . S
C486 C488 1.384 . S
C487 C486 1.377 . S
C487 C493 1.390 . S
C488 H479 0.930 . S
C488 C486 1.384 . S
C488 C489 1.372 . S
C489 C488 1.372 . S
C489 C490 1.400 . S
C489 C494 1.490 . S
C490 H480 0.930 . S
C490 C489 1.400 . S
C490 C493 1.386 . S
H491 C507 0.930 . S
H492 C508 0.931 . S
C493 H481 0.929 . S
C493 C487 1.390 . S
C493 C490 1.386 . S
C494 C489 1.490 . S
C494 C496 1.395 . S
C494 C497 1.403 . S
H495 C501 0.930 . S
C496 H482 0.930 . S
C496 C494 1.395 . S
C496 C499 1.403 . S
C497 C494 1.403 . S
C497 C498 1.524 . S
C497 C501 1.400 . S
C498 H483 0.960 . S
C498 H484 0.960 . S
C498 H485 0.960 . S
C498 C497 1.524 . S
C499 C496 1.403 . S
C499 C500 1.392 . S
C499 C503 1.495 . S
C500 C499 1.392 . S
C500 C501 1.385 . S
C500 C502 1.478 . S
C501 H495 0.930 . S
C501 C497 1.400 . S
C501 C500 1.385 . S
C502 C500 1.478 . S
C502 C504 1.381 . S
C502 C508 1.383 . S
C503 C499 1.495 . S
C503 H509 0.959 . S
C503 H510 0.961 . S
C503 H511 0.960 . S
C504 C502 1.381 . S
C504 C505 1.394 . S
C504 H512 0.930 . S
C505 C504 1.394 . S
C505 C506 1.383 . S
C505 H513 0.929 . S
C506 C505 1.383 . S
C506 C507 1.377 . S
C507 H491 0.930 . S
C507 C506 1.377 . S
C507 C508 1.379 . S
C508 H492 0.931 . S
C508 C502 1.383 . S
C508 C507 1.379 . S
H509 C503 0.959 . S
H510 C503 0.961 . S
H511 C503 0.960 . S
H512 C504 0.930 . S
H513 C505 0.929 . S
C91 C19 1.655 . S
C110 C59 1.508 . S
C127 C39 1.187 . S
C146 C65 1.123 . S
C163 C2 0.987 . S
C182 C56 1.001 . S
C199 C22 1.307 . S
C218 C81 1.195 . S
C235 C8 1.804 . S
C254 C47 1.719 . S
C290 C64 1.810 . S
C271 C28 1.920 . S
C307 C21 1.268 . S
C326 C60 1.243 . S
C362 C77 1.601 . S
C343 C9 1.730 . S
C398 C44 1.751 . S
C379 C29 1.911 . S
C434 C80 1.556 . S
C415 C18 1.682 . S
C470 C43 1.121 . S
C451 C38 1.231 . S
C506 C68 0.951 . S
C487 C1 0.997 . S
