# Generated by pormake.
# Topology cor, (4,6)-cn, num edge types: 1
# Building blocks:
#     Node 0, Type 0, BuildingBlock: KUFVIS_clean_sbu_0, # of connection points: 4
#     Node 1, Type 0, BuildingBlock: KUFVIS_clean_sbu_0, # of connection points: 4
#     Node 2, Type 0, BuildingBlock: KUFVIS_clean_sbu_0, # of connection points: 4
#     Node 3, Type 0, BuildingBlock: KUFVIS_clean_sbu_0, # of connection points: 4
#     Node 4, Type 0, BuildingBlock: KUFVIS_clean_sbu_0, # of connection points: 4
#     Node 5, Type 0, BuildingBlock: KUFVIS_clean_sbu_0, # of connection points: 4
#     Node 6, Type 0, BuildingBlock: KUFVIS_clean_sbu_0, # of connection points: 4
#     Node 7, Type 0, BuildingBlock: KUFVIS_clean_sbu_0, # of connection points: 4
#     Node 8, Type 0, BuildingBlock: KUFVIS_clean_sbu_0, # of connection points: 4
#     Node 9, Type 0, BuildingBlock: KUFVIS_clean_sbu_0, # of connection points: 4
#     Node 10, Type 0, BuildingBlock: KUFVIS_clean_sbu_0, # of connection points: 4
#     Node 11, Type 0, BuildingBlock: KUFVIS_clean_sbu_0, # of connection points: 4
#     Node 12, Type 0, BuildingBlock: KUFVIS_clean_sbu_0, # of connection points: 4
#     Node 13, Type 0, BuildingBlock: KUFVIS_clean_sbu_0, # of connection points: 4
#     Node 14, Type 0, BuildingBlock: KUFVIS_clean_sbu_0, # of connection points: 4
#     Node 15, Type 0, BuildingBlock: KUFVIS_clean_sbu_0, # of connection points: 4
#     Node 16, Type 0, BuildingBlock: KUFVIS_clean_sbu_0, # of connection points: 4
#     Node 17, Type 0, BuildingBlock: KUFVIS_clean_sbu_0, # of connection points: 4
#     Node 18, Type 1, BuildingBlock: MIDCAF_clean_sbu_0, # of connection points: 6
#     Node 19, Type 1, BuildingBlock: MIDCAF_clean_sbu_0, # of connection points: 6
#     Node 20, Type 1, BuildingBlock: MIDCAF_clean_sbu_0, # of connection points: 6
#     Node 21, Type 1, BuildingBlock: MIDCAF_clean_sbu_0, # of connection points: 6
#     Node 22, Type 1, BuildingBlock: MIDCAF_clean_sbu_0, # of connection points: 6
#     Node 23, Type 1, BuildingBlock: MIDCAF_clean_sbu_0, # of connection points: 6
#     Node 24, Type 1, BuildingBlock: MIDCAF_clean_sbu_0, # of connection points: 6
#     Node 25, Type 1, BuildingBlock: MIDCAF_clean_sbu_0, # of connection points: 6
#     Node 26, Type 1, BuildingBlock: MIDCAF_clean_sbu_0, # of connection points: 6
#     Node 27, Type 1, BuildingBlock: MIDCAF_clean_sbu_0, # of connection points: 6
#     Node 28, Type 1, BuildingBlock: MIDCAF_clean_sbu_0, # of connection points: 6
#     Node 29, Type 1, BuildingBlock: MIDCAF_clean_sbu_0, # of connection points: 6
#     Edge 30, Type (0, 1), BuildingBlock: ZUJKAS_clean_linker_0, # of connection points: 2
#     Edge 31, Type (0, 1), BuildingBlock: ZUJKAS_clean_linker_0, # of connection points: 2
#     Edge 32, Type (0, 1), BuildingBlock: ZUJKAS_clean_linker_0, # of connection points: 2
#     Edge 33, Type (0, 1), BuildingBlock: ZUJKAS_clean_linker_0, # of connection points: 2
#     Edge 34, Type (0, 1), BuildingBlock: ZUJKAS_clean_linker_0, # of connection points: 2
#     Edge 35, Type (0, 1), BuildingBlock: ZUJKAS_clean_linker_0, # of connection points: 2
#     Edge 36, Type (0, 1), BuildingBlock: ZUJKAS_clean_linker_0, # of connection points: 2
#     Edge 37, Type (0, 1), BuildingBlock: ZUJKAS_clean_linker_0, # of connection points: 2
#     Edge 38, Type (0, 1), BuildingBlock: ZUJKAS_clean_linker_0, # of connection points: 2
#     Edge 39, Type (0, 1), BuildingBlock: ZUJKAS_clean_linker_0, # of connection points: 2
#     Edge 40, Type (0, 1), BuildingBlock: ZUJKAS_clean_linker_0, # of connection points: 2
#     Edge 41, Type (0, 1), BuildingBlock: ZUJKAS_clean_linker_0, # of connection points: 2
#     Edge 42, Type (0, 1), BuildingBlock: ZUJKAS_clean_linker_0, # of connection points: 2
#     Edge 43, Type (0, 1), BuildingBlock: ZUJKAS_clean_linker_0, # of connection points: 2
#     Edge 44, Type (0, 1), BuildingBlock: ZUJKAS_clean_linker_0, # of connection points: 2
#     Edge 45, Type (0, 1), BuildingBlock: ZUJKAS_clean_linker_0, # of connection points: 2
#     Edge 46, Type (0, 1), BuildingBlock: ZUJKAS_clean_linker_0, # of connection points: 2
#     Edge 47, Type (0, 1), BuildingBlock: ZUJKAS_clean_linker_0, # of connection points: 2
#     Edge 48, Type (0, 1), BuildingBlock: ZUJKAS_clean_linker_0, # of connection points: 2
#     Edge 49, Type (0, 1), BuildingBlock: ZUJKAS_clean_linker_0, # of connection points: 2
#     Edge 50, Type (0, 1), BuildingBlock: ZUJKAS_clean_linker_0, # of connection points: 2
#     Edge 51, Type (0, 1), BuildingBlock: ZUJKAS_clean_linker_0, # of connection points: 2
#     Edge 52, Type (0, 1), BuildingBlock: ZUJKAS_clean_linker_0, # of connection points: 2
#     Edge 53, Type (0, 1), BuildingBlock: ZUJKAS_clean_linker_0, # of connection points: 2
#     Edge 54, Type (0, 1), BuildingBlock: ZUJKAS_clean_linker_0, # of connection points: 2
#     Edge 55, Type (0, 1), BuildingBlock: ZUJKAS_clean_linker_0, # of connection points: 2
#     Edge 56, Type (0, 1), BuildingBlock: ZUJKAS_clean_linker_0, # of connection points: 2
#     Edge 57, Type (0, 1), BuildingBlock: ZUJKAS_clean_linker_0, # of connection points: 2
#     Edge 58, Type (0, 1), BuildingBlock: ZUJKAS_clean_linker_0, # of connection points: 2
#     Edge 59, Type (0, 1), BuildingBlock: ZUJKAS_clean_linker_0, # of connection points: 2
#     Edge 60, Type (0, 1), BuildingBlock: ZUJKAS_clean_linker_0, # of connection points: 2
#     Edge 61, Type (0, 1), BuildingBlock: ZUJKAS_clean_linker_0, # of connection points: 2
#     Edge 62, Type (0, 1), BuildingBlock: ZUJKAS_clean_linker_0, # of connection points: 2
#     Edge 63, Type (0, 1), BuildingBlock: ZUJKAS_clean_linker_0, # of connection points: 2
#     Edge 64, Type (0, 1), BuildingBlock: ZUJKAS_clean_linker_0, # of connection points: 2
#     Edge 65, Type (0, 1), BuildingBlock: ZUJKAS_clean_linker_0, # of connection points: 2
#     Edge 66, Type (0, 1), BuildingBlock: ZUJKAS_clean_linker_0, # of connection points: 2
#     Edge 67, Type (0, 1), BuildingBlock: ZUJKAS_clean_linker_0, # of connection points: 2
#     Edge 68, Type (0, 1), BuildingBlock: ZUJKAS_clean_linker_0, # of connection points: 2
#     Edge 69, Type (0, 1), BuildingBlock: ZUJKAS_clean_linker_0, # of connection points: 2
#     Edge 70, Type (0, 1), BuildingBlock: ZUJKAS_clean_linker_0, # of connection points: 2
#     Edge 71, Type (0, 1), BuildingBlock: ZUJKAS_clean_linker_0, # of connection points: 2
#     Edge 72, Type (0, 1), BuildingBlock: ZUJKAS_clean_linker_0, # of connection points: 2
#     Edge 73, Type (0, 1), BuildingBlock: ZUJKAS_clean_linker_0, # of connection points: 2
#     Edge 74, Type (0, 1), BuildingBlock: ZUJKAS_clean_linker_0, # of connection points: 2
#     Edge 75, Type (0, 1), BuildingBlock: ZUJKAS_clean_linker_0, # of connection points: 2
#     Edge 76, Type (0, 1), BuildingBlock: ZUJKAS_clean_linker_0, # of connection points: 2
#     Edge 77, Type (0, 1), BuildingBlock: ZUJKAS_clean_linker_0, # of connection points: 2
#     Edge 78, Type (0, 1), BuildingBlock: ZUJKAS_clean_linker_0, # of connection points: 2
#     Edge 79, Type (0, 1), BuildingBlock: ZUJKAS_clean_linker_0, # of connection points: 2
#     Edge 80, Type (0, 1), BuildingBlock: ZUJKAS_clean_linker_0, # of connection points: 2
#     Edge 81, Type (0, 1), BuildingBlock: ZUJKAS_clean_linker_0, # of connection points: 2
#     Edge 82, Type (0, 1), BuildingBlock: ZUJKAS_clean_linker_0, # of connection points: 2
#     Edge 83, Type (0, 1), BuildingBlock: ZUJKAS_clean_linker_0, # of connection points: 2
#     Edge 84, Type (0, 1), BuildingBlock: ZUJKAS_clean_linker_0, # of connection points: 2
#     Edge 85, Type (0, 1), BuildingBlock: ZUJKAS_clean_linker_0, # of connection points: 2
#     Edge 86, Type (0, 1), BuildingBlock: ZUJKAS_clean_linker_0, # of connection points: 2
#     Edge 87, Type (0, 1), BuildingBlock: ZUJKAS_clean_linker_0, # of connection points: 2
#     Edge 88, Type (0, 1), BuildingBlock: ZUJKAS_clean_linker_0, # of connection points: 2
#     Edge 89, Type (0, 1), BuildingBlock: ZUJKAS_clean_linker_0, # of connection points: 2
#     Edge 90, Type (0, 1), BuildingBlock: ZUJKAS_clean_linker_0, # of connection points: 2
#     Edge 91, Type (0, 1), BuildingBlock: ZUJKAS_clean_linker_0, # of connection points: 2
#     Edge 92, Type (0, 1), BuildingBlock: ZUJKAS_clean_linker_0, # of connection points: 2
#     Edge 93, Type (0, 1), BuildingBlock: ZUJKAS_clean_linker_0, # of connection points: 2
#     Edge 94, Type (0, 1), BuildingBlock: ZUJKAS_clean_linker_0, # of connection points: 2
#     Edge 95, Type (0, 1), BuildingBlock: ZUJKAS_clean_linker_0, # of connection points: 2
#     Edge 96, Type (0, 1), BuildingBlock: ZUJKAS_clean_linker_0, # of connection points: 2
#     Edge 97, Type (0, 1), BuildingBlock: ZUJKAS_clean_linker_0, # of connection points: 2
#     Edge 98, Type (0, 1), BuildingBlock: ZUJKAS_clean_linker_0, # of connection points: 2
#     Edge 99, Type (0, 1), BuildingBlock: ZUJKAS_clean_linker_0, # of connection points: 2
#     Edge 100, Type (0, 1), BuildingBlock: ZUJKAS_clean_linker_0, # of connection points: 2
#     Edge 101, Type (0, 1), BuildingBlock: ZUJKAS_clean_linker_0, # of connection points: 2
# Relax obj value: 0.120
# Max RMSD: 0.161
# Mean RMSD: 0.124
data_MOF--net-cor--node1-KUFVIS_clean_sbu_0--node2-MIDCAF_clean_sbu_0--edge1-ZUJKAS_clean_linker_0
_symmetry_space_group_name_H-M    P1
_symmetry_Int_Tables_number       1
_symmetry_cell_setting            triclinic
loop_
_symmetry_equiv_pos_as_xyz
'x, y, z'
_cell_length_a     49.485534
_cell_length_b     49.399338
_cell_length_c     129.44309
_cell_angle_alpha  89.680367
_cell_angle_beta   90.618782
_cell_angle_gamma 120.0507
loop_
_atom_site_label
_atom_site_type_symbol
_atom_site_fract_x
_atom_site_fract_y
_atom_site_fract_z
_atom_type_partial_charge
Mn0 Mn 0.74462 0.01585 0.25837 0.0
Mn1 Mn 0.81166 0.08204 0.26411 0.0
C2 C 0.77825 0.01536 0.27088 0.0
C3 C 0.69185 0.98128 0.26197 0.0
C4 C 0.80278 0.04396 0.2447 0.0
O5 O 0.7373 0.04964 0.25195 0.0
O6 O 0.7822 0.09239 0.25693 0.0
C7 C 0.78718 0.10818 0.27951 0.0
N8 N 0.80737 0.09816 0.27699 0.0
C9 C 0.83075 0.11048 0.29396 0.0
C10 C 0.81034 0.12114 0.29672 0.0
C11 C 0.78842 0.11991 0.28947 0.0
C12 C 0.82852 0.09918 0.28391 0.0
H13 H 0.77025 0.1072 0.27396 0.0
C14 C 0.75553 0.07931 0.25233 0.0
O15 O 0.7037 0.98067 0.2531 0.0
O16 O 0.70999 0.00326 0.26829 0.0
N17 N 0.8421 0.07539 0.27111 0.0
C18 C 0.85876 0.06245 0.26741 0.0
C19 C 0.88094 0.06079 0.27383 0.0
C20 C 0.88596 0.07269 0.28394 0.0
C21 C 0.86876 0.08619 0.28753 0.0
C22 C 0.84701 0.08724 0.28078 0.0
H23 H 0.85495 0.05327 0.25965 0.0
O24 O 0.75823 0.98981 0.26625 0.0
O25 O 0.7781 0.04056 0.26801 0.0
O26 O 0.77486 0.02212 0.24651 0.0
O27 O 0.81839 0.06695 0.25083 0.0
C28 C 0.87196 0.09818 0.2976 0.0
C29 C 0.85289 0.1102 0.30083 0.0
H30 H 0.81113 0.13007 0.30441 0.0
H31 H 0.77249 0.12795 0.29155 0.0
H32 H 0.89409 0.0503 0.27101 0.0
H33 H 0.90293 0.07116 0.2889 0.0
H34 H 0.88879 0.09796 0.30297 0.0
H35 H 0.85524 0.1189 0.30864 0.0
Mn36 Mn 0.01343 0.74404 0.25531 0.0
Mn37 Mn 0.07821 0.81298 0.25048 0.0
C38 C 0.01142 0.77912 0.24384 0.0
C39 C 0.98041 0.69168 0.25072 0.0
C40 C 0.04116 0.79931 0.27034 0.0
O41 O 0.04823 0.7371 0.2609 0.0
O42 O 0.09017 0.78293 0.25623 0.0
C43 C 0.10394 0.79315 0.23349 0.0
N44 N 0.09342 0.81205 0.23706 0.0
C45 C 0.10279 0.83841 0.22068 0.0
C46 C 0.11392 0.81936 0.21684 0.0
C47 C 0.11445 0.79661 0.22327 0.0
C48 C 0.09282 0.83403 0.23095 0.0
H49 H 0.10422 0.77554 0.23839 0.0
C50 C 0.07773 0.75565 0.26036 0.0
O51 O 0.97954 0.70173 0.25991 0.0
O52 O 0.00165 0.71146 0.24457 0.0
N53 N 0.06981 0.84399 0.24489 0.0
C54 C 0.05677 0.85924 0.24961 0.0
C55 C 0.05378 0.88226 0.24416 0.0
C56 C 0.06432 0.88945 0.23393 0.0
C57 C 0.07778 0.87354 0.22926 0.0
C58 C 0.08045 0.85106 0.23511 0.0
H59 H 0.0486 0.85376 0.25746 0.0
O60 O 0.98622 0.75784 0.24822 0.0
O61 O 0.03699 0.77932 0.24638 0.0
O62 O 0.01937 0.77176 0.26796 0.0
O63 O 0.06388 0.81626 0.26434 0.0
C64 C 0.08814 0.87871 0.21896 0.0
C65 C 0.1006 0.86113 0.21467 0.0
H66 H 0.12185 0.82181 0.20894 0.0
H67 H 0.12285 0.78171 0.22034 0.0
H68 H 0.04329 0.89438 0.24781 0.0
H69 H 0.0618 0.9071 0.22974 0.0
H70 H 0.08623 0.89583 0.21422 0.0
H71 H 0.10808 0.865 0.2067 0.0
Mn72 Mn 0.29349 0.29008 0.25896 0.0
Mn73 Mn 0.29447 0.22334 0.26335 0.0
C74 C 0.25726 0.25259 0.27 0.0
C75 C 0.30977 0.34169 0.26378 0.0
C76 C 0.26996 0.2365 0.24339 0.0
O77 O 0.33626 0.30014 0.25357 0.0
O78 O 0.33612 0.25605 0.25837 0.0
C79 C 0.33854 0.24374 0.28108 0.0
N80 N 0.30992 0.22375 0.27696 0.0
C81 C 0.29324 0.19427 0.29277 0.0
C82 C 0.32261 0.21445 0.29717 0.0
C83 C 0.34532 0.23933 0.29131 0.0
C84 C 0.28785 0.19984 0.28255 0.0
H85 H 0.35601 0.26289 0.27658 0.0
C86 C 0.34928 0.28341 0.2543 0.0
O87 O 0.29925 0.33162 0.25452 0.0
O88 O 0.31256 0.32245 0.26992 0.0
N89 N 0.25562 0.18983 0.26817 0.0
C90 C 0.22808 0.17343 0.26292 0.0
C91 C 0.20284 0.14777 0.26769 0.0
C92 C 0.20624 0.13918 0.27777 0.0
C93 C 0.23473 0.15661 0.28306 0.0
C94 C 0.25916 0.18171 0.27786 0.0
H95 H 0.22544 0.17976 0.25513 0.0
O96 O 0.25202 0.27333 0.26574 0.0
O97 O 0.28364 0.25449 0.26765 0.0
O98 O 0.27294 0.26274 0.24609 0.0
O99 O 0.27773 0.2205 0.24923 0.0
C100 C 0.23982 0.15017 0.29329 0.0
C101 C 0.26899 0.1691 0.29816 0.0
H102 H 0.32791 0.21117 0.30506 0.0
H103 H 0.36799 0.25507 0.29466 0.0
H104 H 0.18087 0.13453 0.26358 0.0
H105 H 0.18677 0.11918 0.28137 0.0
H106 H 0.22136 0.13091 0.29751 0.0
H107 H 0.27249 0.16417 0.30607 0.0
Mn108 Mn 0.29498 0.02263 0.75178 0.0
Mn109 Mn 0.22046 0.96482 0.74941 0.0
C110 C 0.26065 0.02885 0.74116 0.0
C111 C 0.34646 0.05007 0.74598 0.0
C112 C 0.24331 0.00799 0.76761 0.0
O113 O 0.29794 0.9855 0.7572 0.0
O114 O 0.24641 0.95043 0.75696 0.0
C115 C 0.23308 0.92592 0.73512 0.0
N116 N 0.21768 0.94157 0.7373 0.0
C117 C 0.18996 0.92631 0.72105 0.0
C118 C 0.2054 0.90989 0.71866 0.0
C119 C 0.22711 0.90976 0.72572 0.0
C120 C 0.19683 0.94193 0.73055 0.0
H121 H 0.24981 0.92579 0.74051 0.0
C122 C 0.27473 0.95876 0.75939 0.0
O123 O 0.33958 0.05312 0.75542 0.0
O124 O 0.32392 0.02954 0.74028 0.0
N125 N 0.19255 0.97496 0.74233 0.0
C126 C 0.18052 0.99284 0.74565 0.0
C127 C 0.15857 0.99561 0.73944 0.0
C128 C 0.14903 0.97974 0.72995 0.0
C129 C 0.16173 0.96148 0.72671 0.0
C130 C 0.18328 0.95934 0.73326 0.0
H131 H 0.18768 0.00494 0.75296 0.0
O132 O 0.28475 0.05285 0.74518 0.0
O133 O 0.25681 0.00155 0.74366 0.0
O134 O 0.27218 0.0219 0.76517 0.0
O135 O 0.22136 0.98792 0.76186 0.0
C136 C 0.15412 0.94559 0.71717 0.0
C137 C 0.1683 0.9281 0.71433 0.0
H138 H 0.20092 0.89747 0.7114 0.0
H139 H 0.23921 0.89724 0.72391 0.0
H140 H 0.14896 0.00987 0.74198 0.0
H141 H 0.13203 0.98184 0.7252 0.0
H142 H 0.13763 0.94692 0.71193 0.0
H143 H 0.16251 0.91624 0.70694 0.0
Mn144 Mn 0.02522 0.29791 0.75159 0.0
Mn145 Mn 0.08779 0.28979 0.74728 0.0
C146 C 0.02144 0.25986 0.74034 0.0
C147 C 0.99394 0.31916 0.74684 0.0
C148 C 0.04954 0.26709 0.76687 0.0
O149 O 0.06112 0.3391 0.75708 0.0
O150 O 0.10138 0.33161 0.75342 0.0
C151 C 0.11713 0.33733 0.73083 0.0
N152 N 0.10479 0.30722 0.7341 0.0
C153 C 0.11508 0.29142 0.71775 0.0
C154 C 0.12807 0.32231 0.71422 0.0
C155 C 0.12903 0.34534 0.72078 0.0
C156 C 0.10366 0.28486 0.72784 0.0
H157 H 0.11786 0.35508 0.73585 0.0
C158 C 0.09026 0.34802 0.75713 0.0
O159 O 0.99277 0.30825 0.75609 0.0
O160 O 0.01459 0.31955 0.7407 0.0
N161 N 0.07792 0.25046 0.74135 0.0
C162 C 0.06307 0.22152 0.74575 0.0
C163 C 0.05922 0.19564 0.74007 0.0
C164 C 0.07093 0.19985 0.72999 0.0
C165 C 0.08641 0.22992 0.72568 0.0
C166 C 0.08956 0.25482 0.7317 0.0
H167 H 0.05405 0.2182 0.75349 0.0
O168 O 0.99673 0.25716 0.74468 0.0
O169 O 0.04768 0.28463 0.74282 0.0
O170 O 0.02965 0.27544 0.76442 0.0
O171 O 0.07161 0.27087 0.76091 0.0
C172 C 0.09847 0.23612 0.71559 0.0
C173 C 0.11264 0.26682 0.7116 0.0
H174 H 0.13718 0.32857 0.70646 0.0
H175 H 0.1389 0.36921 0.7181 0.0
H176 H 0.04722 0.17251 0.74346 0.0
H177 H 0.06776 0.17982 0.72562 0.0
H178 H 0.09666 0.21739 0.71078 0.0
H179 H 0.12138 0.27119 0.70378 0.0
Mn180 Mn 0.75533 0.74993 0.75796 0.0
Mn181 Mn 0.82315 0.75094 0.76203 0.0
C182 C 0.79205 0.78504 0.76963 0.0
C183 C 0.70357 0.73333 0.76259 0.0
C184 C 0.81127 0.77986 0.74313 0.0
O185 O 0.74549 0.70766 0.75193 0.0
O186 O 0.79257 0.71213 0.75473 0.0
C187 C 0.79964 0.69856 0.77695 0.0
N188 N 0.82004 0.72895 0.77455 0.0
C189 C 0.84709 0.73722 0.79079 0.0
C190 C 0.82645 0.70597 0.79345 0.0
C191 C 0.80252 0.6866 0.78651 0.0
C192 C 0.84285 0.74789 0.78121 0.0
H193 H 0.78138 0.68355 0.77161 0.0
C194 C 0.76462 0.69751 0.75111 0.0
O195 O 0.71397 0.74465 0.75346 0.0
O196 O 0.7225 0.72975 0.76866 0.0
N197 N 0.85504 0.78701 0.76901 0.0
C198 C 0.87214 0.81686 0.76543 0.0
C199 C 0.89672 0.8394 0.77151 0.0
C200 C 0.90379 0.83086 0.7811 0.0
C201 C 0.88594 0.79993 0.78459 0.0
C202 C 0.86158 0.77858 0.77824 0.0
H203 H 0.86707 0.82337 0.75799 0.0
O204 O 0.7716 0.79065 0.76534 0.0
O205 O 0.79067 0.75908 0.76689 0.0
O206 O 0.78309 0.77206 0.7453 0.0
O207 O 0.8286 0.77426 0.74911 0.0
C208 C 0.89136 0.78942 0.79411 0.0
C209 C 0.87173 0.75819 0.79727 0.0
H210 H 0.82871 0.69662 0.80079 0.0
H211 H 0.78645 0.66248 0.78851 0.0
H212 H 0.91037 0.86322 0.76878 0.0
H213 H 0.92294 0.84826 0.78573 0.0
H214 H 0.91037 0.80523 0.79912 0.0
H215 H 0.87581 0.75055 0.80469 0.0
Mn216 Mn 0.41443 0.35242 0.58937 0.0
Mn217 Mn 0.48293 0.41837 0.59375 0.0
C218 C 0.45118 0.35165 0.60053 0.0
C219 C 0.36258 0.31849 0.59424 0.0
C220 C 0.46817 0.38043 0.57393 0.0
O221 O 0.40609 0.38656 0.58387 0.0
O222 O 0.45166 0.42916 0.58843 0.0
C223 C 0.46412 0.44377 0.61114 0.0
N224 N 0.48322 0.43398 0.60723 0.0
C225 C 0.51275 0.44623 0.62311 0.0
C226 C 0.49348 0.45658 0.6273 0.0
C227 C 0.46901 0.45525 0.62129 0.0
C228 C 0.50669 0.43496 0.61296 0.0
H229 H 0.44532 0.44278 0.60653 0.0
C230 C 0.42419 0.41622 0.5844 0.0
O231 O 0.37211 0.31772 0.58498 0.0
O232 O 0.38252 0.34015 0.60032 0.0
N233 N 0.51534 0.41142 0.59885 0.0
C234 C 0.53101 0.39948 0.59377 0.0
C235 C 0.55642 0.39936 0.59863 0.0
C236 C 0.56552 0.41163 0.60864 0.0
C237 C 0.54873 0.42337 0.61378 0.0
C238 C 0.52392 0.42331 0.60848 0.0
H239 H 0.52437 0.39039 0.58602 0.0
O240 O 0.42968 0.32614 0.59626 0.0
O241 O 0.45053 0.3769 0.59811 0.0
O242 O 0.44115 0.35825 0.57651 0.0
O243 O 0.48508 0.40373 0.5798 0.0
C244 C 0.55562 0.43511 0.62395 0.0
C245 C 0.53751 0.44634 0.62864 0.0
H246 H 0.49716 0.46544 0.63513 0.0
H247 H 0.45398 0.4631 0.62449 0.0
H248 H 0.56915 0.39008 0.59465 0.0
H249 H 0.58542 0.41187 0.6123 0.0
H250 H 0.5746 0.43533 0.62827 0.0
H251 H 0.54279 0.45496 0.6365 0.0
Mn252 Mn 0.69138 0.08481 0.58518 0.0
Mn253 Mn 0.75895 0.15205 0.58145 0.0
C254 C 0.69364 0.1216 0.57345 0.0
C255 C 0.65633 0.03304 0.58041 0.0
C256 C 0.71844 0.14024 0.60026 0.0
O257 O 0.72329 0.07484 0.59158 0.0
O258 O 0.76702 0.12062 0.58828 0.0
C259 C 0.78669 0.1291 0.5661 0.0
N260 N 0.77709 0.14953 0.5688 0.0
C261 C 0.79542 0.17763 0.55281 0.0
C262 C 0.80564 0.15699 0.54986 0.0
C263 C 0.8011 0.13251 0.55652 0.0
C264 C 0.78097 0.17289 0.56241 0.0
H265 H 0.78342 0.1104 0.57123 0.0
C266 C 0.7529 0.09287 0.59203 0.0
O267 O 0.65515 0.04359 0.58948 0.0
O268 O 0.67893 0.05191 0.57448 0.0
N269 N 0.75473 0.18449 0.57486 0.0
C270 C 0.74197 0.20123 0.57863 0.0
C271 C 0.74365 0.22604 0.57277 0.0
C272 C 0.7589 0.23368 0.56321 0.0
C273 C 0.77201 0.21619 0.55953 0.0
C274 C 0.7693 0.19153 0.56565 0.0
H275 H 0.7306 0.19568 0.58604 0.0
O276 O 0.66737 0.10124 0.57752 0.0
O277 O 0.71798 0.11998 0.57643 0.0
O278 O 0.69704 0.11265 0.59776 0.0
O279 O 0.742 0.15707 0.59457 0.0
C280 C 0.78759 0.22218 0.55002 0.0
C281 C 0.79897 0.20271 0.5466 0.0
H282 H 0.8169 0.15963 0.5425 0.0
H283 H 0.80885 0.11643 0.55429 0.0
H284 H 0.73345 0.23941 0.57566 0.0
H285 H 0.76031 0.25295 0.55874 0.0
H286 H 0.79063 0.24149 0.5452 0.0
H287 H 0.81036 0.20719 0.53918 0.0
Mn288 Mn 0.96627 0.63065 0.59284 0.0
Mn289 Mn 0.96535 0.5636 0.59862 0.0
C290 C 0.93147 0.59658 0.6049 0.0
C291 C 0.98427 0.68334 0.59651 0.0
C292 C 0.9366 0.57248 0.57896 0.0
O293 O 0.00764 0.63846 0.58694 0.0
O294 O 0.00518 0.59326 0.59168 0.0
C295 C 0.0159 0.58867 0.61435 0.0
N296 N 0.98574 0.5682 0.61164 0.0
C297 C 0.97472 0.54503 0.62858 0.0
C298 C 0.00572 0.56573 0.63154 0.0
C299 C 0.02637 0.58769 0.6244 0.0
C300 C 0.96566 0.54703 0.61845 0.0
H301 H 0.03181 0.60563 0.60889 0.0
C302 C 0.01896 0.62019 0.5873 0.0
O303 O 0.9722 0.67152 0.58753 0.0
O304 O 0.98769 0.66517 0.60297 0.0
N305 N 0.92833 0.53288 0.60539 0.0
C306 C 0.89882 0.51575 0.60147 0.0
C307 C 0.87504 0.49339 0.60774 0.0
C308 C 0.88192 0.48866 0.61792 0.0
C309 C 0.91255 0.50629 0.62174 0.0
C310 C 0.93528 0.52819 0.61512 0.0
H311 H 0.89344 0.51932 0.59365 0.0
O312 O 0.92619 0.61669 0.60019 0.0
O313 O 0.95707 0.59696 0.60241 0.0
O314 O 0.94313 0.60059 0.58074 0.0
O315 O 0.94348 0.55667 0.58522 0.0
C316 C 0.92132 0.50336 0.63189 0.0
C317 C 0.95235 0.5228 0.63532 0.0
H318 H 0.01386 0.56513 0.6393 0.0
H319 H 0.0503 0.60384 0.62664 0.0
H320 H 0.85146 0.47989 0.60474 0.0
H321 H 0.86347 0.47156 0.62276 0.0
H322 H 0.90432 0.48645 0.63716 0.0
H323 H 0.9587 0.52063 0.64319 0.0
Mn324 Mn 0.96502 0.36377 0.08607 0.0
Mn325 Mn 0.89802 0.29739 0.08053 0.0
C326 C 0.93089 0.36396 0.07376 0.0
C327 C 0.01759 0.39804 0.08239 0.0
C328 C 0.90769 0.33516 0.10007 0.0
O329 O 0.97272 0.33017 0.09228 0.0
O330 O 0.92795 0.28707 0.08742 0.0
C331 C 0.92202 0.27199 0.0647 0.0
N332 N 0.9019 0.28186 0.06747 0.0
C333 C 0.87881 0.27144 0.05045 0.0
C334 C 0.89917 0.26097 0.04744 0.0
C335 C 0.92088 0.26129 0.05459 0.0
C336 C 0.88089 0.28164 0.06065 0.0
H337 H 0.93886 0.27239 0.07017 0.0
C338 C 0.95478 0.30048 0.09192 0.0
O339 O 0.00598 0.39873 0.09129 0.0
O340 O 0.99921 0.37637 0.07602 0.0
N341 N 0.86723 0.30418 0.07384 0.0
C342 C 0.85032 0.31644 0.07785 0.0
C343 C 0.82797 0.31844 0.07163 0.0
C344 C 0.82316 0.30772 0.06137 0.0
C345 C 0.8407 0.295 0.05744 0.0
C346 C 0.8624 0.29329 0.06405 0.0
H347 H 0.85401 0.32479 0.08572 0.0
O348 O 0.95091 0.38967 0.07831 0.0
O349 O 0.93132 0.33894 0.07664 0.0
O350 O 0.93537 0.35719 0.0981 0.0
O351 O 0.89186 0.31212 0.09397 0.0
C352 C 0.83788 0.28443 0.04719 0.0
C353 C 0.85696 0.2727 0.04369 0.0
H354 H 0.89851 0.25289 0.03962 0.0
H355 H 0.93678 0.2534 0.0523 0.0
H356 H 0.81456 0.32833 0.07471 0.0
H357 H 0.80606 0.30951 0.05658 0.0
H358 H 0.8214 0.2856 0.04188 0.0
H359 H 0.85485 0.26503 0.03575 0.0
Mn360 Mn 0.69012 0.62395 0.08488 0.0
Mn361 Mn 0.7533 0.61647 0.08094 0.0
C362 C 0.68707 0.58607 0.07365 0.0
C363 C 0.65777 0.64406 0.08018 0.0
C364 C 0.71395 0.59239 0.10016 0.0
O365 O 0.72543 0.66553 0.0904 0.0
O366 O 0.76563 0.65728 0.08765 0.0
C367 C 0.7837 0.66625 0.06522 0.0
N368 N 0.77182 0.63587 0.06812 0.0
C369 C 0.78559 0.62289 0.05186 0.0
C370 C 0.79816 0.65409 0.04871 0.0
C371 C 0.79713 0.67584 0.05541 0.0
C372 C 0.77263 0.61474 0.06173 0.0
H373 H 0.78291 0.683 0.07035 0.0
C374 C 0.75438 0.67388 0.09107 0.0
O375 O 0.65708 0.63329 0.08942 0.0
O376 O 0.67863 0.64504 0.07399 0.0
N377 N 0.74512 0.57826 0.07455 0.0
C378 C 0.73038 0.54878 0.07854 0.0
C379 C 0.72888 0.52411 0.07275 0.0
C380 C 0.74273 0.53007 0.06296 0.0
C381 C 0.75763 0.56057 0.059 0.0
C382 C 0.7587 0.58427 0.06517 0.0
H383 H 0.71989 0.54417 0.08609 0.0
O384 O 0.66226 0.58306 0.078 0.0
O385 O 0.71323 0.61108 0.07612 0.0
O386 O 0.69487 0.60182 0.09778 0.0
O387 O 0.73579 0.5956 0.09421 0.0
C388 C 0.77106 0.56833 0.04911 0.0
C389 C 0.78495 0.59945 0.04553 0.0
H390 H 0.80841 0.66156 0.04114 0.0
H391 H 0.80666 0.69993 0.05302 0.0
H392 H 0.71718 0.50058 0.07582 0.0
H393 H 0.74163 0.51101 0.05852 0.0
H394 H 0.77047 0.55046 0.04414 0.0
H395 H 0.79481 0.60505 0.03786 0.0
Mn396 Mn 0.41895 0.08507 0.09181 0.0
Mn397 Mn 0.4837 0.08127 0.09728 0.0
C398 C 0.45384 0.11735 0.10443 0.0
C399 C 0.36657 0.06888 0.09524 0.0
C400 C 0.4771 0.11352 0.07814 0.0
O401 O 0.40917 0.04365 0.08508 0.0
O402 O 0.45254 0.0427 0.08999 0.0
C403 C 0.45668 0.02947 0.11243 0.0
N404 N 0.47835 0.05945 0.10999 0.0
C405 C 0.50377 0.06712 0.12653 0.0
C406 C 0.48181 0.03628 0.12922 0.0
C407 C 0.45806 0.01743 0.12215 0.0
C408 C 0.50101 0.07791 0.11678 0.0
H409 H 0.43855 0.01486 0.10698 0.0
C410 C 0.42596 0.03066 0.08539 0.0
O411 O 0.37926 0.08213 0.08653 0.0
O412 O 0.38369 0.06349 0.1016 0.0
N413 N 0.51586 0.11693 0.10435 0.0
C414 C 0.53414 0.14658 0.10076 0.0
C415 C 0.55858 0.1687 0.10699 0.0
C416 C 0.56428 0.15993 0.11675 0.0
C417 C 0.5452 0.12921 0.12026 0.0
C418 C 0.52103 0.1083 0.11376 0.0
H419 H 0.53013 0.15326 0.09319 0.0
O420 O 0.43468 0.12444 0.09994 0.0
O421 O 0.45195 0.09136 0.10143 0.0
O422 O 0.44978 0.10888 0.08005 0.0
O423 O 0.49165 0.10438 0.08413 0.0
C424 C 0.54919 0.11849 0.12996 0.0
C425 C 0.52827 0.0876 0.13314 0.0
H426 H 0.4829 0.02687 0.13669 0.0
H427 H 0.44098 0.99364 0.12417 0.0
H428 H 0.57317 0.19237 0.10423 0.0
H429 H 0.58329 0.177 0.1215 0.0
H430 H 0.56806 0.13393 0.13508 0.0
H431 H 0.53123 0.07984 0.1407 0.0
Mn432 Mn 0.08994 0.69047 0.92371 0.0
Mn433 Mn 0.15954 0.75471 0.9286 0.0
C434 C 0.12491 0.68771 0.93517 0.0
C435 C 0.03743 0.65772 0.92811 0.0
C436 C 0.14541 0.71672 0.90885 0.0
O437 O 0.08333 0.72562 0.91819 0.0
O438 O 0.13011 0.76693 0.92248 0.0
C439 C 0.13981 0.78192 0.94517 0.0
N440 N 0.15868 0.77112 0.94184 0.0
C441 C 0.18603 0.78317 0.95815 0.0
C442 C 0.167 0.79458 0.96175 0.0
C443 C 0.14373 0.79388 0.95524 0.0
C444 C 0.18104 0.77157 0.94804 0.0
H445 H 0.12189 0.78138 0.94019 0.0
C446 C 0.10265 0.75504 0.91851 0.0
O447 O 0.04745 0.65701 0.91893 0.0
O448 O 0.05736 0.67868 0.93439 0.0
N449 N 0.19033 0.74657 0.93452 0.0
C450 C 0.20566 0.73329 0.93002 0.0
C451 C 0.22966 0.73207 0.9355 0.0
C452 C 0.23773 0.74464 0.94551 0.0
C453 C 0.22138 0.75785 0.95002 0.0
C454 C 0.198 0.75882 0.94413 0.0
H455 H 0.19973 0.72388 0.92229 0.0
O456 O 0.10327 0.6628 0.93065 0.0
O457 O 0.12559 0.71368 0.9328 0.0
O458 O 0.11737 0.69595 0.91105 0.0
O459 O 0.16287 0.73923 0.91493 0.0
C460 C 0.22721 0.76989 0.96015 0.0
C461 C 0.20944 0.78241 0.96423 0.0
H462 H 0.16989 0.80374 0.96952 0.0
H463 H 0.12887 0.80252 0.95798 0.0
H464 H 0.24206 0.72166 0.932 0.0
H465 H 0.25647 0.74393 0.94967 0.0
H466 H 0.24505 0.76932 0.96491 0.0
H467 H 0.21386 0.79124 0.97207 0.0
Mn468 Mn 0.35234 0.4206 0.92032 0.0
Mn469 Mn 0.41752 0.48986 0.91625 0.0
C470 C 0.35089 0.45717 0.90937 0.0
C471 C 0.31866 0.36876 0.91529 0.0
C472 C 0.38 0.4742 0.93602 0.0
O473 O 0.38677 0.41244 0.92546 0.0
O474 O 0.42888 0.45896 0.92155 0.0
C475 C 0.44378 0.47175 0.89894 0.0
N476 N 0.43342 0.49045 0.90282 0.0
C477 C 0.44506 0.51975 0.88698 0.0
C478 C 0.456 0.50089 0.88282 0.0
C479 C 0.45529 0.47675 0.88882 0.0
C480 C 0.43393 0.51369 0.89711 0.0
H481 H 0.44322 0.45317 0.90354 0.0
C482 C 0.4163 0.43106 0.92517 0.0
O483 O 0.3182 0.37813 0.92462 0.0
O484 O 0.33985 0.3889 0.9092 0.0
N485 N 0.40981 0.52177 0.91113 0.0
C486 C 0.39694 0.53674 0.91612 0.0
C487 C 0.39579 0.56153 0.91119 0.0
C488 C 0.40794 0.57067 0.90121 0.0
C489 C 0.42066 0.5546 0.89618 0.0
C490 C 0.42162 0.53043 0.90154 0.0
H491 H 0.38781 0.52996 0.92383 0.0
O492 O 0.32564 0.4357 0.91368 0.0
O493 O 0.37633 0.45686 0.91173 0.0
O494 O 0.35843 0.44685 0.93338 0.0
O495 O 0.40276 0.49182 0.93016 0.0
C496 C 0.43222 0.56148 0.88603 0.0
C497 C 0.44429 0.54397 0.88141 0.0
H498 H 0.46479 0.50459 0.875 0.0
H499 H 0.46358 0.46203 0.88565 0.0
H500 H 0.38574 0.57368 0.91509 0.0
H501 H 0.40726 0.59 0.89748 0.0
H502 H 0.43162 0.57994 0.88166 0.0
H503 H 0.45274 0.5492 0.87356 0.0
Mn504 Mn 0.63025 0.95814 0.92458 0.0
Mn505 Mn 0.62581 0.88832 0.9276 0.0
C506 C 0.59188 0.92018 0.93494 0.0
C507 C 0.64911 0.0092 0.9306 0.0
C508 C 0.60408 0.90682 0.90811 0.0
O509 O 0.6725 0.9665 0.9193 0.0
O510 O 0.66827 0.9197 0.92277 0.0
C511 C 0.66973 0.90396 0.94522 0.0
N512 N 0.64073 0.8859 0.94104 0.0
C513 C 0.62251 0.85485 0.9565 0.0
C514 C 0.65223 0.87301 0.96096 0.0
C515 C 0.67591 0.89772 0.9553 0.0
C516 C 0.61774 0.86219 0.94644 0.0
H517 H 0.68794 0.92298 0.94089 0.0
C518 C 0.68338 0.94785 0.91935 0.0
O519 O 0.63921 0.00157 0.92113 0.0
O520 O 0.64986 0.98785 0.93622 0.0
N521 N 0.58602 0.85588 0.9322 0.0
C522 C 0.55835 0.84154 0.92693 0.0
C523 C 0.53221 0.8163 0.93149 0.0
C524 C 0.53483 0.80601 0.94138 0.0
C525 C 0.56348 0.82136 0.94671 0.0
C526 C 0.58883 0.8461 0.94171 0.0
H527 H 0.55628 0.8492 0.91928 0.0
O528 O 0.58858 0.94262 0.93108 0.0
O529 O 0.61756 0.92063 0.93257 0.0
O530 O 0.6097 0.93375 0.91117 0.0
O531 O 0.60941 0.8885 0.91366 0.0
C532 C 0.56787 0.81319 0.95678 0.0
C533 C 0.59731 0.83004 0.9617 0.0
H534 H 0.65708 0.86832 0.96874 0.0
H535 H 0.69887 0.91191 0.95871 0.0
H536 H 0.51013 0.80468 0.92736 0.0
H537 H 0.51466 0.78633 0.94482 0.0
H538 H 0.54868 0.7942 0.96086 0.0
H539 H 0.6003 0.8238 0.96949 0.0
Mn540 Mn 0.62811 0.68953 0.41844 0.0
Mn541 Mn 0.55726 0.62687 0.41386 0.0
C542 C 0.59475 0.69219 0.40637 0.0
C543 C 0.68079 0.72136 0.41433 0.0
C544 C 0.57121 0.66766 0.43265 0.0
O545 O 0.63338 0.65428 0.42455 0.0
O546 O 0.58405 0.61476 0.42195 0.0
C547 C 0.57787 0.59389 0.39976 0.0
N548 N 0.55976 0.60689 0.4016 0.0
C549 C 0.53668 0.593 0.38461 0.0
C550 C 0.55494 0.5793 0.38256 0.0
C551 C 0.57567 0.57981 0.39016 0.0
C552 C 0.53979 0.60659 0.39433 0.0
H553 H 0.59387 0.5943 0.40558 0.0
C554 C 0.61179 0.62583 0.42561 0.0
O555 O 0.67031 0.72283 0.42336 0.0
O556 O 0.66123 0.69993 0.4081 0.0
N557 N 0.52899 0.63516 0.40615 0.0
C558 C 0.51423 0.65076 0.40918 0.0
C559 C 0.49338 0.6533 0.40234 0.0
C560 C 0.48769 0.63948 0.39251 0.0
C561 C 0.50285 0.62317 0.38962 0.0
C562 C 0.52335 0.6214 0.39676 0.0
H563 H 0.51857 0.66143 0.41673 0.0
O564 O 0.61614 0.71728 0.41088 0.0
O565 O 0.59301 0.66608 0.40923 0.0
O566 O 0.60025 0.68564 0.4308 0.0
O567 O 0.55258 0.64616 0.42646 0.0
C568 C 0.49881 0.60903 0.37987 0.0
C569 C 0.5158 0.59407 0.37735 0.0
H570 H 0.5534 0.56851 0.37515 0.0
H571 H 0.58995 0.5694 0.38862 0.0
H572 H 0.48179 0.66593 0.40463 0.0
H573 H 0.47176 0.64167 0.38722 0.0
H574 H 0.48293 0.60978 0.3742 0.0
H575 H 0.51281 0.58366 0.36978 0.0
Mn576 Mn 0.35539 0.96154 0.41733 0.0
Mn577 Mn 0.42037 0.95825 0.41229 0.0
C578 C 0.35354 0.92523 0.40567 0.0
C579 C 0.32128 0.97998 0.41324 0.0
C580 C 0.38312 0.93245 0.43196 0.0
O581 O 0.38985 0.00334 0.42298 0.0
O582 O 0.43175 0.99911 0.41879 0.0
C583 C 0.44681 0.00723 0.39616 0.0
N584 N 0.43633 0.97716 0.39918 0.0
C585 C 0.44783 0.96391 0.38257 0.0
C586 C 0.45894 0.9948 0.37931 0.0
C587 C 0.45835 0.01652 0.38613 0.0
C588 C 0.43672 0.95605 0.39268 0.0
H589 H 0.44633 0.02397 0.40138 0.0
C590 C 0.41931 0.01394 0.4228 0.0
O591 O 0.32137 0.96878 0.42235 0.0
O592 O 0.34231 0.98233 0.40685 0.0
N593 N 0.41276 0.92012 0.40596 0.0
C594 C 0.39946 0.89088 0.41011 0.0
C595 C 0.39716 0.86611 0.40416 0.0
C596 C 0.40882 0.87175 0.39405 0.0
C597 C 0.4227 0.90212 0.38999 0.0
C598 C 0.42436 0.92586 0.39629 0.0
H599 H 0.39048 0.88646 0.41788 0.0
O600 O 0.32846 0.92076 0.41023 0.0
O601 O 0.37911 0.95079 0.40814 0.0
O602 O 0.36207 0.93944 0.42981 0.0
O603 O 0.40543 0.9379 0.42585 0.0
C604 C 0.43451 0.90968 0.37988 0.0
C605 C 0.44694 0.94052 0.37616 0.0
H606 H 0.46775 0.00202 0.37156 0.0
H607 H 0.46675 0.04036 0.38365 0.0
H608 H 0.38638 0.84273 0.40734 0.0
H609 H 0.40682 0.85255 0.38945 0.0
H610 H 0.43385 0.89189 0.37486 0.0
H611 H 0.4555 0.94593 0.36832 0.0
Mn612 Mn 0.08317 0.41807 0.42556 0.0
Mn613 Mn 0.14953 0.41643 0.42997 0.0
C614 C 0.12033 0.45301 0.43714 0.0
C615 C 0.0316 0.40212 0.4302 0.0
C616 C 0.13841 0.4447 0.41061 0.0
O617 O 0.07251 0.37554 0.41961 0.0
O618 O 0.11751 0.37651 0.42354 0.0
C619 C 0.12608 0.36704 0.44599 0.0
N620 N 0.14689 0.39671 0.44294 0.0
C621 C 0.17524 0.40739 0.45902 0.0
C622 C 0.15422 0.37689 0.46232 0.0
C623 C 0.12944 0.35669 0.45579 0.0
C624 C 0.17055 0.41646 0.44921 0.0
H625 H 0.10713 0.35141 0.44097 0.0
C626 C 0.08989 0.3632 0.41964 0.0
O627 O 0.04204 0.41341 0.42106 0.0
O628 O 0.05042 0.39842 0.43627 0.0
N629 N 0.18252 0.45339 0.43621 0.0
C630 C 0.19963 0.48254 0.43209 0.0
C631 C 0.2248 0.50589 0.43776 0.0
C632 C 0.23241 0.49886 0.44752 0.0
C633 C 0.21454 0.46862 0.45157 0.0
C634 C 0.18955 0.44643 0.44561 0.0
H635 H 0.1941 0.48789 0.42452 0.0
O636 O 0.10016 0.45902 0.43284 0.0
O637 O 0.11822 0.42663 0.43452 0.0
O638 O 0.11113 0.43948 0.41293 0.0
O639 O 0.15463 0.43743 0.41654 0.0
C640 C 0.22047 0.45963 0.4613 0.0
C641 C 0.20063 0.42916 0.46508 0.0
H642 H 0.15682 0.36878 0.46986 0.0
H643 H 0.11306 0.33316 0.45829 0.0
H644 H 0.23846 0.52917 0.43458 0.0
H645 H 0.25195 0.51689 0.45185 0.0
H646 H 0.24001 0.47608 0.46601 0.0
H647 H 0.20508 0.42273 0.47265 0.0
Zn648 Zn 0.01855 0.01841 0.13093 0.0
Zn649 Zn 0.02864 0.02811 0.16581 0.0
Zn650 Zn 0.02453 0.02398 0.14885 0.0
C651 C 0.02177 0.97246 0.16282 0.0
C652 C 0.08223 0.07548 0.16009 0.0
O653 O 0.00508 0.05429 0.14419 0.0
O654 O 0.01988 0.05841 0.12802 0.0
C655 C 0.97354 0.96215 0.138 0.0
O656 O 0.00639 0.97637 0.15543 0.0
O657 O 0.04116 0.99593 0.16798 0.0
O658 O 0.06131 0.07305 0.16613 0.0
O659 O 0.0749 0.05438 0.15309 0.0
O660 O 0.97702 0.97979 0.13044 0.0
O661 O 0.99276 0.97298 0.14571 0.0
O662 O 0.07286 0.04176 0.14315 0.0
O663 O 0.0568 0.01541 0.12858 0.0
C664 C 0.07868 0.03102 0.13494 0.0
O665 O 0.99566 0.04432 0.15433 0.0
O666 O 0.98479 0.0166 0.1686 0.0
C667 C 0.00962 0.06762 0.13528 0.0
C668 C 0.97858 0.03256 0.16241 0.0
Zn669 Zn 0.01898 0.01782 0.34219 0.0
Zn670 Zn 0.01981 0.02126 0.3815 0.0
Zn671 Zn 0.01909 0.01942 0.36146 0.0
C672 C 0.04534 0.08293 0.37515 0.0
C673 C 0.95746 0.98409 0.37582 0.0
O674 O 0.04202 0.9923 0.35649 0.0
O675 O 0.04515 0.99928 0.33959 0.0
C676 C 0.04893 0.08018 0.34636 0.0
O677 O 0.04039 0.06952 0.36625 0.0
O678 O 0.03869 0.0668 0.3833 0.0
O679 O 0.97456 0.99481 0.38376 0.0
O680 O 0.96972 0.99132 0.36676 0.0
O681 O 0.03697 0.06214 0.33874 0.0
O682 O 0.04535 0.06875 0.35556 0.0
O683 O 0.96931 0.99577 0.35593 0.0
O684 O 0.97441 0.99122 0.33921 0.0
C685 C 0.95707 0.98664 0.34686 0.0
O686 O 0.04764 0.99874 0.3672 0.0
O687 O 0.04643 0.00271 0.38416 0.0
C688 C 0.0503 0.98769 0.34755 0.0
C689 C 0.05601 0.99501 0.37633 0.0
Zn690 Zn 0.02455 0.02607 0.88092 0.0
Zn691 Zn 0.03067 0.02936 0.84107 0.0
Zn692 Zn 0.02705 0.02813 0.86069 0.0
C693 C 0.05548 0.09101 0.84665 0.0
C694 C 0.96769 0.99442 0.84498 0.0
O695 O 0.04906 1.00074 0.86641 0.0
O696 O 0.04411 1.00017 0.88338 0.0
C697 C 0.06 0.08921 0.8756 0.0
O698 O 0.04818 0.07815 0.85566 0.0
O699 O 0.05128 0.0745 0.83876 0.0
O700 O 0.9862 0.0053 0.83749 0.0
O701 O 0.97836 1.0003 0.85434 0.0
O702 O 0.05002 0.0716 0.88342 0.0
O703 O 0.05296 0.07733 0.86644 0.0
O704 O 0.9768 0.0043 0.86503 0.0
O705 O 0.97869 0.00562 0.88212 0.0
C706 C 0.96295 0.99846 0.87383 0.0
O707 O 0.05719 0.00837 0.85596 0.0
O708 O 0.05619 0.0099 0.83889 0.0
C709 C 0.05267 0.99178 0.87546 0.0
C710 C 0.06582 0.00364 0.8471 0.0
Zn711 Zn 0.02851 0.01918 0.66884 0.0
Zn712 Zn 0.02004 0.02307 0.62955 0.0
Zn713 Zn 0.02455 0.02157 0.64964 0.0
C714 C 0.99677 0.96046 0.6348 0.0
C715 C 0.08344 0.05961 0.63407 0.0
O716 O 1.00156 0.04633 0.65655 0.0
O717 O 0.00243 0.03652 0.67317 0.0
C718 C 0.99667 0.95801 0.66369 0.0
O719 O 0.00329 0.9725 0.64395 0.0
O720 O 1.00122 0.9777 0.62703 0.0
O721 O 0.06481 0.05017 0.62646 0.0
O722 O 0.07293 0.05089 0.64331 0.0
O723 O 0.01123 0.97451 0.67141 0.0
O724 O 0.99871 0.97123 0.65487 0.0
O725 O 0.07531 0.04614 0.65394 0.0
O726 O 0.07336 0.04606 0.67099 0.0
C727 C 0.08913 0.05374 0.66284 0.0
O728 O 0.99514 0.04272 0.64586 0.0
O729 O 0.99309 0.04194 0.62878 0.0
C730 C 0.99492 0.04887 0.66598 0.0
C731 C 0.98524 0.0482 0.63729 0.0
Zn732 Zn 0.6901 0.35608 0.50276 0.0
Zn733 Zn 0.69237 0.35634 0.46347 0.0
Zn734 Zn 0.69111 0.35619 0.48338 0.0
C735 C 0.75424 0.38354 0.46947 0.0
C736 C 0.65681 0.29397 0.46894 0.0
O737 O 0.66289 0.37784 0.48858 0.0
O738 O 0.67004 0.38075 0.5055 0.0
C739 C 0.75235 0.38763 0.49836 0.0
O740 O 0.74132 0.37864 0.47843 0.0
O741 O 0.73759 0.37613 0.46139 0.0
O742 O 0.66685 0.31093 0.46099 0.0
O743 O 0.66399 0.30656 0.47799 0.0
O744 O 0.73469 0.37581 0.50601 0.0
O745 O 0.74063 0.38344 0.48916 0.0
O746 O 0.66834 0.30645 0.48876 0.0
O747 O 0.66482 0.31119 0.50557 0.0
C748 C 0.65979 0.29401 0.4978 0.0
O749 O 0.66875 0.38337 0.47785 0.0
O750 O 0.673 0.38217 0.46091 0.0
C751 C 0.65792 0.38549 0.4976 0.0
C752 C 0.66472 0.39137 0.4687 0.0
Zn753 Zn 0.6848 0.35151 0.71115 0.0
Zn754 Zn 0.68752 0.34648 0.67332 0.0
Zn755 Zn 0.68683 0.34914 0.69258 0.0
C756 C 0.62528 0.31609 0.67766 0.0
C757 C 0.71808 0.40941 0.6774 0.0
O758 O 0.71909 0.33378 0.69898 0.0
O759 O 0.72473 0.35355 0.71461 0.0
C760 C 0.62879 0.30137 0.70606 0.0
O761 O 0.63699 0.32353 0.68688 0.0
O762 O 0.643 0.32244 0.67002 0.0
O763 O 0.70874 0.39094 0.66982 0.0
O764 O 0.71188 0.39852 0.6867 0.0
O765 O 0.64751 0.31085 0.71362 0.0
O766 O 0.63746 0.31593 0.69735 0.0
O767 O 0.70308 0.39878 0.697 0.0
O768 O 0.68105 0.38943 0.7123 0.0
C769 C 0.6945 0.40813 0.70495 0.0
O770 O 0.71266 0.32401 0.68857 0.0
O771 O 0.71141 0.32523 0.67151 0.0
C772 C 0.73296 0.34081 0.70787 0.0
C773 C 0.71921 0.31698 0.67971 0.0
Zn774 Zn 0.68905 0.35111 0.21373 0.0
Zn775 Zn 0.68694 0.35684 0.17426 0.0
Zn776 Zn 0.68824 0.35468 0.19364 0.0
C777 C 0.71868 0.41836 0.18 0.0
C778 C 0.62536 0.3254 0.17931 0.0
O779 O 0.7101 0.32596 0.19801 0.0
O780 O 0.70902 0.32526 0.21508 0.0
C781 C 0.72411 0.41456 0.20891 0.0
O782 O 0.71109 0.40513 0.18895 0.0
O783 O 0.71258 0.40192 0.17197 0.0
O784 O 0.64211 0.33822 0.17153 0.0
O785 O 0.6383 0.32858 0.18828 0.0
O786 O 0.71477 0.39632 0.21658 0.0
O787 O 0.71617 0.40348 0.19967 0.0
O788 O 0.63901 0.33251 0.19911 0.0
O789 O 0.64367 0.33103 0.21607 0.0
C790 C 0.62665 0.32587 0.20816 0.0
O791 O 0.71466 0.33254 0.18732 0.0
O792 O 0.70578 0.33158 0.17054 0.0
C793 C 0.7156 0.31685 0.20675 0.0
C794 C 0.71822 0.32544 0.17805 0.0
Zn795 Zn 0.6989 0.36235 0.99709 0.0
Zn796 Zn 0.69054 0.35104 0.96189 0.0
Zn797 Zn 0.69398 0.35563 0.98005 0.0
C798 C 0.68356 0.29506 0.96886 0.0
C799 C 0.74934 0.40022 0.96503 0.0
O800 O 0.67212 0.3835 0.98522 0.0
O801 O 0.70716 0.40603 0.99756 0.0
C802 C 0.65096 0.30419 0.99507 0.0
O803 O 0.67705 0.30499 0.97714 0.0
O804 O 0.69346 0.31274 0.96108 0.0
O805 O 0.72854 0.3906 0.95806 0.0
O806 O 0.74222 0.38751 0.97408 0.0
O807 O 0.65619 0.32776 1.00033 0.0
O808 O 0.66789 0.30804 0.98708 0.0
O809 O 0.74461 0.37869 0.98406 0.0
O810 O 0.73432 0.3551 0.99917 0.0
C811 C 0.75363 0.36987 0.99214 0.0
O812 O 0.66045 0.37099 0.97535 0.0
O813 O 0.64886 0.34727 0.96026 0.0
C814 C 0.68577 0.40539 0.99201 0.0
C815 C 0.6428 0.36109 0.96725 0.0
Zn816 Zn 0.36823 0.69513 0.83469 0.0
Zn817 Zn 0.36452 0.69569 0.79528 0.0
Zn818 Zn 0.36465 0.69451 0.81517 0.0
C819 C 0.42647 0.72063 0.80043 0.0
C820 C 0.3282 0.63298 0.80065 0.0
O821 O 0.33725 0.71603 0.8212 0.0
O822 O 0.34646 0.71795 0.838 0.0
C823 C 0.42892 0.72842 0.82904 0.0
O824 O 0.41421 0.71602 0.8095 0.0
O825 O 0.4093 0.71402 0.7925 0.0
O826 O 0.33745 0.65043 0.79279 0.0
O827 O 0.33672 0.64499 0.80976 0.0
O828 O 0.41328 0.71692 0.83712 0.0
O829 O 0.415 0.7227 0.82015 0.0
O830 O 0.34188 0.64472 0.82043 0.0
O831 O 0.34513 0.65018 0.83741 0.0
C832 C 0.33651 0.63276 0.82957 0.0
O833 O 0.34138 0.72151 0.8104 0.0
O834 O 0.34575 0.72231 0.79342 0.0
C835 C 0.33325 0.72295 0.83046 0.0
C836 C 0.33714 0.73031 0.80142 0.0
Zn837 Zn 0.36067 0.69394 0.04821 0.0
Zn838 Zn 0.35598 0.68443 0.00897 0.0
Zn839 Zn 0.35784 0.68883 0.02812 0.0
C840 C 0.29465 0.65298 0.01416 0.0
C841 C 0.38483 0.74721 0.01209 0.0
O842 O 0.38705 0.66907 0.03405 0.0
O843 O 0.38774 0.67587 0.05094 0.0
C844 C 0.29769 0.65581 0.04312 0.0
O845 O 0.30759 0.66424 0.02301 0.0
O846 O 0.31137 0.65592 0.0065 0.0
O847 O 0.37193 0.72801 1.0048 0.0
O848 O 0.38291 0.73717 0.02143 0.0
O849 O 0.31552 0.66762 0.05086 0.0
O850 O 0.30911 0.66166 0.03394 0.0
O851 O 0.37932 0.73947 0.03213 0.0
O852 O 0.37953 0.73979 0.04921 0.0
C853 C 0.38516 0.75441 0.04076 0.0
O854 O 0.38078 0.66144 0.02342 0.0
O855 O 0.3834 0.66726 0.00647 0.0
C856 C 0.39644 0.66686 0.0432 0.0
C857 C 0.38901 0.65642 0.01452 0.0
Zn858 Zn 0.35947 0.6926 0.54611 0.0
Zn859 Zn 0.35828 0.69529 0.50663 0.0
Zn860 Zn 0.35875 0.69417 0.52597 0.0
C861 C 0.39047 0.75702 0.51186 0.0
C862 C 0.29649 0.66513 0.51138 0.0
O863 O 0.37968 0.66507 0.5309 0.0
O864 O 0.37855 0.66606 0.54796 0.0
C865 C 0.39536 0.75539 0.54076 0.0
O866 O 0.38217 0.74432 0.52087 0.0
O867 O 0.38479 0.74008 0.50398 0.0
O868 O 0.31368 0.67747 0.50365 0.0
O869 O 0.30895 0.66836 0.52043 0.0
O870 O 0.38579 0.73796 0.54862 0.0
O871 O 0.38718 0.7434 0.53164 0.0
O872 O 0.30937 0.67241 0.53124 0.0
O873 O 0.31404 0.67305 0.54826 0.0
C874 C 0.29701 0.66673 0.54029 0.0
O875 O 0.38498 0.67123 0.5202 0.0
O876 O 0.37637 0.66905 0.50337 0.0
C877 C 0.38477 0.65647 0.5398 0.0
C878 C 0.38859 0.66334 0.51104 0.0
Zn879 Zn 0.35025 0.6828 0.29613 0.0
Zn880 Zn 0.35551 0.68231 0.33539 0.0
Zn881 Zn 0.35346 0.68294 0.31625 0.0
C882 C 0.41681 0.71568 0.33004 0.0
C883 C 0.32457 0.6207 0.33087 0.0
O884 O 0.3249 0.70446 0.31166 0.0
O885 O 0.32343 0.70168 0.2946 0.0
C886 C 0.41342 0.71954 0.30109 0.0
O887 O 0.4038 0.70687 0.32105 0.0
O888 O 0.40014 0.70981 0.33794 0.0
O889 O 0.33859 0.63796 0.3385 0.0
O890 O 0.32699 0.63304 0.32185 0.0
O891 O 0.39524 0.70966 0.29337 0.0
O892 O 0.40234 0.71143 0.31029 0.0
O893 O 0.33189 0.63325 0.31099 0.0
O894 O 0.33161 0.63732 0.29399 0.0
C895 C 0.32618 0.62056 0.30195 0.0
O896 O 0.33085 0.70919 0.32239 0.0
O897 O 0.32884 0.69948 0.3391 0.0
C898 C 0.31543 0.70911 0.30286 0.0
C899 C 0.32302 0.7122 0.33161 0.0
H900 H 0.2694 0.18703 0.23386 0.0
H901 H 0.24838 0.1651 0.21691 0.0
H902 H 0.2203 0.23403 0.2122 0.0
H903 H 0.24209 0.25681 0.22916 0.0
H904 H 0.18921 0.13861 0.21081 0.0
H905 H 0.2605 0.23807 0.18478 0.0
H906 H 0.27094 0.23753 0.19816 0.0
H907 H 0.24184 0.24777 0.19474 0.0
C908 C 0.25898 0.1978 0.22923 0.0
C909 C 0.25741 0.22374 0.23293 0.0
C910 C 0.24704 0.18522 0.21949 0.0
C911 C 0.23317 0.19814 0.21318 0.0
C912 C 0.23163 0.22412 0.2168 0.0
H913 H 0.10307 0.13607 0.16441 0.0
H914 H 0.14751 0.16852 0.17565 0.0
C915 C 0.24383 0.23695 0.22655 0.0
C916 C 0.21809 0.18265 0.20323 0.0
H917 H 0.21409 0.19531 0.17739 0.0
C918 C 0.19505 0.1509 0.20348 0.0
C919 C 0.22569 0.19867 0.19365 0.0
C920 C 0.25131 0.23231 0.19277 0.0
C921 C 0.1785 0.13506 0.19455 0.0
C922 C 0.18549 0.15125 0.185 0.0
C923 C 0.20902 0.18284 0.18468 0.0
C924 C 0.16554 0.13668 0.17572 0.0
C925 C 0.1525 0.10152 0.19551 0.0
C926 C 0.16239 0.10922 0.17133 0.0
C927 C 0.137 0.09068 0.16478 0.0
C928 C 0.1146 0.09948 0.16261 0.0
C929 C 0.12012 0.12886 0.16595 0.0
C930 C 0.14545 0.14737 0.17242 0.0
H931 H 0.14675 0.09418 0.2037 0.0
H932 H 0.13103 0.09809 0.19152 0.0
H933 H 0.15969 0.08592 0.19182 0.0
H934 H 0.17797 0.1008 0.17367 0.0
H935 H 0.13309 0.06801 0.16238 0.0
H936 H 0.7838 0.99636 0.23038 0.0
H937 H 0.81019 0.99711 0.21432 0.0
H938 H 0.88161 0.09234 0.22047 0.0
H939 H 0.85619 0.09161 0.23652 0.0
H940 H 0.82593 0.03434 0.19679 0.0
H941 H 0.93305 0.05077 0.21651 0.0
H942 H 0.89765 0.04023 0.2234 0.0
H943 H 0.92379 0.08033 0.21988 0.0
C944 C 0.80521 0.01739 0.22834 0.0
C945 C 0.81804 0.04373 0.23486 0.0
C946 C 0.82021 0.01783 0.21913 0.0
C947 C 0.84825 0.04459 0.21628 0.0
C948 C 0.8605 0.07113 0.22262 0.0
H949 H 0.98575 0.08844 0.16836 0.0
H950 H 0.95054 0.0945 0.18012 0.0
C951 C 0.84579 0.07064 0.23182 0.0
C952 C 0.86512 0.04494 0.20677 0.0
H953 H 0.93573 0.05764 0.19833 0.0
C954 C 0.8499 0.03933 0.19712 0.0
C955 C 0.89643 0.05141 0.20718 0.0
C956 C 0.91359 0.05571 0.2173 0.0
C957 C 0.86532 0.04049 0.18789 0.0
C958 C 0.8967 0.04734 0.18834 0.0
C959 C 0.91185 0.05297 0.19797 0.0
C960 C 0.91373 0.04613 0.17911 0.0
C961 C 0.84808 0.03463 0.17774 0.0
C962 C 0.90413 0.01735 0.17426 0.0
C963 C 0.92417 0.01395 0.16754 0.0
C964 C 0.95402 0.03931 0.16548 0.0
C965 C 0.96249 0.0688 0.16956 0.0
C966 C 0.94253 0.07215 0.17639 0.0
H967 H 0.82754 0.03792 0.17838 0.0
H968 H 0.86372 0.05042 0.17164 0.0
H969 H 0.83962 0.01016 0.17529 0.0
H970 H 0.88237 0.99681 0.17638 0.0
H971 H 0.9175 0.99081 0.1647 0.0
H972 H 0.98173 0.81268 0.24199 0.0
H973 H 0.97586 0.83752 0.22628 0.0
H974 H 0.02812 0.80457 0.20915 0.0
H975 H 0.03316 0.77913 0.22476 0.0
H976 H 0.02174 0.8835 0.21528 0.0
H977 H 0.95474 0.78074 0.18991 0.0
H978 H 0.95894 0.77719 0.20365 0.0
H979 H 0.98965 0.78296 0.19501 0.0
C980 C 0.99185 0.81081 0.23484 0.0
C981 C 0.00883 0.79508 0.23459 0.0
C982 C 0.98841 0.82481 0.22588 0.0
C983 C 1.00121 0.82258 0.2165 0.0
C984 C 0.01747 0.80608 0.21622 0.0
H985 H 0.06395 0.95522 0.16777 0.0
H986 H 0.05542 0.91311 0.17964 0.0
C987 C 0.02089 0.79211 0.22517 0.0
C988 C 0.99966 0.8395 0.2072 0.0
H989 H 0.97949 0.83103 0.18156 0.0
C990 C 0.01221 0.87192 0.20795 0.0
C991 C 0.98691 0.82436 0.19764 0.0
C992 C 0.9715 0.78934 0.19651 0.0
C993 C 0.01337 0.88978 0.19935 0.0
C994 C 0.00205 0.8749 0.18968 0.0
C995 C 0.98847 0.84235 0.18896 0.0
C996 C 0.00542 0.89358 0.18031 0.0
C997 C 0.02711 0.92461 0.20064 0.0
C998 C 0.97978 0.89496 0.17617 0.0
C999 C 0.98458 0.9188 0.1692 0.0
C1000 C 0.01508 0.94148 0.16646 0.0
C1001 C 0.04023 0.93791 0.16977 0.0
C1002 C 0.03541 0.914 0.17658 0.0
H1003 H 0.02826 0.93128 0.20889 0.0
H1004 H 0.05121 0.93689 0.19756 0.0
H1005 H 0.0132 0.93292 0.19628 0.0
H1006 H 0.95645 0.87933 0.17897 0.0
H1007 H 0.96491 0.92135 0.16683 0.0
H1008 H 0.27734 0.24957 0.28938 0.0
H1009 H 0.24517 0.2254 0.3047 0.0
H1010 H 0.162 0.19523 0.28615 0.0
H1011 H 0.19415 0.21828 0.2708 0.0
H1012 H 0.20334 0.23942 0.3138 0.0
H1013 H 0.14175 0.11546 0.30123 0.0
H1014 H 0.17719 0.1451 0.29535 0.0
H1015 H 0.1403 0.14144 0.29177 0.0
C1016 C 0.25216 0.23672 0.28854 0.0
C1017 C 0.23811 0.23454 0.27886 0.0
C1018 C 0.23382 0.22339 0.29732 0.0
C1019 C 0.20111 0.20805 0.29657 0.0
C1020 C 0.18712 0.20617 0.28689 0.0
H1021 H 0.04032 0.11856 0.33351 0.0
H1022 H 0.08182 0.15872 0.32299 0.0
C1023 C 0.20546 0.21936 0.27813 0.0
C1024 C 0.18148 0.19497 0.30593 0.0
H1025 H 0.12038 0.12795 0.31551 0.0
C1026 C 0.18539 0.21498 0.31423 0.0
C1027 C 0.15819 0.16305 0.30654 0.0
C1028 C 0.15417 0.13988 0.29829 0.0
C1029 C 0.16584 0.20401 0.32292 0.0
C1030 C 0.14191 0.17243 0.32327 0.0
C1031 C 0.13857 0.15234 0.31513 0.0
C1032 C 0.1193 0.15907 0.33182 0.0
C1033 C 0.17014 0.22613 0.33157 0.0
C1034 C 0.12681 0.14778 0.34074 0.0
C1035 C 0.10299 0.12505 0.34688 0.0
C1036 C 0.07158 0.11308 0.344 0.0
C1037 C 0.06436 0.12757 0.33592 0.0
C1038 C 0.08808 0.15039 0.32986 0.0
H1039 H 0.1893 0.25033 0.33002 0.0
H1040 H 0.14811 0.22647 0.33273 0.0
H1041 H 0.17545 0.21773 0.33886 0.0
H1042 H 0.15078 0.15399 0.34231 0.0
H1043 H 0.10914 0.11395 0.35298 0.0
H1044 H 0.80994 0.98423 0.27358 0.0
H1045 H 0.83033 0.97549 0.28988 0.0
H1046 H 0.79924 0.03086 0.30608 0.0
H1047 H 0.77809 0.03891 0.28981 0.0
H1048 H 0.8654 0.0443 0.30987 0.0
H1049 H 0.77388 0.92 0.31482 0.0
H1050 H 0.7906 0.93071 0.30214 0.0
H1051 H 0.76807 0.94713 0.30699 0.0
C1052 C 0.80779 0.99476 0.28062 0.0
C1053 C 0.79355 0.01319 0.28042 0.0
C1054 C 0.81919 0.98959 0.28991 0.0
C1055 C 0.81606 0.00235 0.29917 0.0
C1056 C 0.80185 0.02081 0.299 0.0
H1057 H 0.92111 0.0086 0.35517 0.0
H1058 H 0.87801 0.00939 0.34585 0.0
C1059 C 0.79022 0.02576 0.28971 0.0
C1060 C 0.82817 0.99667 0.30897 0.0
H1061 H 0.81976 0.93836 0.32526 0.0
C1062 C 0.85517 0.02136 0.31339 0.0
C1063 C 0.81462 0.96663 0.3135 0.0
C1064 C 0.78503 0.93956 0.3092 0.0
C1065 C 0.87027 0.01645 0.32184 0.0
C1066 C 0.85743 0.98604 0.32616 0.0
C1067 C 0.82945 0.96167 0.32203 0.0
C1068 C 0.87547 0.97825 0.33368 0.0
C1069 C 0.90104 0.04341 0.32554 0.0
C1070 C 0.88586 0.95787 0.33057 0.0
C1071 C 0.90992 0.95696 0.33597 0.0
C1072 C 0.92407 0.97646 0.34456 0.0
C1073 C 0.91063 0.99334 0.34856 0.0
C1074 C 0.88637 0.99422 0.34314 0.0
H1075 H 0.91016 0.06374 0.3202 0.0
H1076 H 0.89788 0.05125 0.33321 0.0
H1077 H 0.91885 0.03612 0.32634 0.0
H1078 H 0.87756 0.94497 0.32339 0.0
H1079 H 0.91975 0.94358 0.33276 0.0
H1080 H 0.08161 0.85802 0.27751 0.0
H1081 H 0.08425 0.8793 0.29459 0.0
H1082 H 0.0045 0.79232 0.304 0.0
H1083 H 1.00144 0.77051 0.28672 0.0
H1084 H 1.00078 0.84465 0.30941 0.0
H1085 H 0.11531 0.86116 0.32158 0.0
H1086 H 0.11722 0.87794 0.30909 0.0
H1087 H 0.09325 0.83632 0.31086 0.0
C1088 C 0.06459 0.84317 0.28317 0.0
C1089 C 0.04137 0.81237 0.2807 0.0
C1090 C 0.06637 0.85537 0.29301 0.0
C1091 C 0.04516 0.83715 0.30068 0.0
C1092 C 0.02144 0.80664 0.29823 0.0
H1093 H 0.02564 0.92924 0.35584 0.0
H1094 H 0.02561 0.88522 0.34709 0.0
C1095 C 0.01963 0.79427 0.28834 0.0
C1096 C 0.04696 0.85117 0.31098 0.0
H1097 H 0.09916 0.89459 0.32996 0.0
C1098 C 0.02192 0.85482 0.31409 0.0
C1099 C 0.07452 0.86428 0.3171 0.0
C1100 C 0.10146 0.85944 0.31454 0.0
C1101 C 0.02469 0.87354 0.32263 0.0
C1102 C 0.05314 0.88857 0.32831 0.0
C1103 C 0.07738 0.88307 0.32562 0.0
C1104 C 0.05982 0.91413 0.3357 0.0
C1105 C 0.99802 0.87909 0.32498 0.0
C1106 C 0.08113 0.94498 0.33281 0.0
C1107 C 0.08133 0.97 0.33783 0.0
C1108 C 0.06036 0.96458 0.34586 0.0
C1109 C 0.04218 0.93405 0.34971 0.0
C1110 C 0.04182 0.90886 0.34461 0.0
H1111 H 0.97919 0.86878 0.31903 0.0
H1112 H 0.98779 0.86838 0.33254 0.0
H1113 H 0.00652 0.90455 0.3255 0.0
H1114 H 0.09543 0.94964 0.32602 0.0
H1115 H 0.09554 0.99333 0.33472 0.0
H1116 H 0.82294 0.84803 0.77204 0.0
H1117 H 0.84358 0.8775 0.78817 0.0
H1118 H 0.81675 0.79155 0.80455 0.0
H1119 H 0.79614 0.76211 0.78841 0.0
H1120 H 0.80866 0.86966 0.80635 0.0
H1121 H 0.90717 0.84805 0.81428 0.0
H1122 H 0.8907 0.84456 0.80154 0.0
H1123 H 0.86983 0.81484 0.81107 0.0
C1124 C 0.82216 0.83558 0.77905 0.0
C1125 C 0.80896 0.80297 0.77893 0.0
C1126 C 0.83371 0.85236 0.78827 0.0
C1127 C 0.83198 0.83681 0.79757 0.0
C1128 C 0.81897 0.80417 0.79745 0.0
H1129 H 0.93058 0.93676 0.85346 0.0
H1130 H 0.88694 0.89308 0.8443 0.0
C1131 C 0.80744 0.78739 0.78822 0.0
C1132 C 0.84284 0.85488 0.80738 0.0
H1133 H 0.90039 0.88025 0.82574 0.0
C1134 C 0.8285 0.8717 0.81067 0.0
C1135 C 0.86832 0.85714 0.81315 0.0
C1136 C 0.88513 0.84035 0.80987 0.0
C1137 C 0.83987 0.89175 0.81927 0.0
C1138 C 0.86663 0.89553 0.82463 0.0
C1139 C 0.87973 0.87725 0.82171 0.0
C1140 C 0.88478 0.92176 0.83196 0.0
C1141 C 0.82345 0.90915 0.8224 0.0
C1142 C 0.89675 0.95257 0.82845 0.0
C1143 C 0.92146 0.97736 0.83368 0.0
C1144 C 0.93479 0.97185 0.8425 0.0
C1145 C 0.92048 0.94165 0.84674 0.0
C1146 C 0.89573 0.91666 0.84145 0.0
H1147 H 0.79801 0.89505 0.82073 0.0
H1148 H 0.8269 0.91522 0.83074 0.0
H1149 H 0.83279 0.93107 0.81784 0.0
H1150 H 0.8893 0.95724 0.82109 0.0
H1151 H 0.93226 1.00044 0.83022 0.0
H1152 H 0.26505 0.99977 0.78603 0.0
H1153 H 0.24095 0.99423 0.80299 0.0
H1154 H 0.17752 0.02083 0.78947 0.0
H1155 H 0.20022 0.02431 0.77247 0.0
H1156 H 0.2305 0.02674 0.81652 0.0
H1157 H 0.11648 0.93789 0.80078 0.0
H1158 H 0.15176 0.95321 0.79337 0.0
H1159 H 0.13004 0.97361 0.79374 0.0
C1160 C 0.24638 0.00505 0.78677 0.0
C1161 C 0.23436 0.01241 0.778 0.0
C1162 C 0.2325 0.0017 0.79644 0.0
C1163 C 0.20665 0.00601 0.79746 0.0
C1164 C 0.19658 0.01611 0.78882 0.0
H1165 H 0.1263 0.04663 0.84691 0.0
H1166 H 0.16492 0.04228 0.83682 0.0
C1167 C 0.20983 0.01859 0.77914 0.0
C1168 C 0.18915 0.99866 0.80734 0.0
H1169 H 0.11504 0.96239 0.81663 0.0
C1170 C 0.20527 0.01228 0.81659 0.0
C1171 C 0.15638 0.97854 0.80762 0.0
C1172 C 0.13777 0.95969 0.79836 0.0
C1173 C 0.18925 0.00822 0.82592 0.0
C1174 C 0.15612 0.99122 0.8259 0.0
C1175 C 0.14034 0.97584 0.81677 0.0
C1176 C 0.13705 0.99207 0.83464 0.0
C1177 C 0.20816 0.02221 0.83564 0.0
C1178 C 0.10855 0.96527 0.83723 0.0
C1179 C 0.08583 0.96807 0.84273 0.0
C1180 C 0.09176 0.9975 0.84607 0.0
C1181 C 0.12157 0.02353 0.84467 0.0
C1182 C 0.14381 0.02099 0.83887 0.0
H1183 H 0.22976 0.02059 0.83557 0.0
H1184 H 0.21552 0.04742 0.83599 0.0
H1185 H 0.19479 0.0104 0.84269 0.0
H1186 H 0.10266 0.94259 0.83416 0.0
H1187 H 0.06274 0.9478 0.84351 0.0
H1188 H 0.00863 0.25673 0.78278 0.0
H1189 H 0.00986 0.23785 0.80028 0.0
H1190 H 0.08932 0.22904 0.79213 0.0
H1191 H 0.08839 0.24763 0.77478 0.0
H1192 H 0.00559 0.1804 0.80617 0.0
H1193 H 0.11823 0.28038 0.819 0.0
H1194 H 0.09644 0.28266 0.80806 0.0
H1195 H 0.12088 0.26555 0.80665 0.0
C1196 C 0.02634 0.25072 0.7847 0.0
C1197 C 0.04849 0.2539 0.77733 0.0
C1198 C 0.02709 0.24009 0.79473 0.0
C1199 C 0.0502 0.23283 0.79759 0.0
C1200 C 0.07183 0.23534 0.79019 0.0
H1201 H 0.10203 0.13258 0.83458 0.0
H1202 H 0.10095 0.17493 0.8252 0.0
C1203 C 0.07103 0.24575 0.78021 0.0
C1204 C 0.05112 0.22089 0.80807 0.0
H1205 H 0.10143 0.23146 0.82797 0.0
C1206 C 0.02615 0.19189 0.81111 0.0
C1207 C 0.07793 0.23604 0.81451 0.0
C1208 C 0.10477 0.26805 0.81195 0.0
C1209 C 0.02835 0.17634 0.81993 0.0
C1210 C 0.0561 0.19056 0.826 0.0
C1211 C 0.08017 0.22059 0.82335 0.0
C1212 C 0.06254 0.17233 0.83384 0.0
C1213 C 0.00196 0.14374 0.82218 0.0
C1214 C 0.04315 0.15864 0.84243 0.0
C1215 C 0.04402 0.13448 0.84792 0.0
C1216 C 0.06421 0.12384 0.84481 0.0
C1217 C 0.08632 0.14044 0.83714 0.0
C1218 C 0.08555 0.16454 0.83172 0.0
H1219 H 0.9841 0.13455 0.8159 0.0
H1220 H 0.01102 0.12739 0.82326 0.0
H1221 H 0.9903 0.14398 0.82942 0.0
H1222 H 0.02565 0.16479 0.84435 0.0
H1223 H 0.02655 0.12186 0.85374 0.0
H1224 H 0.78218 0.7915 0.72672 0.0
H1225 H 0.80401 0.81189 0.70957 0.0
H1226 H 0.89184 0.82127 0.71933 0.0
H1227 H 0.87064 0.80124 0.73632 0.0
H1228 H 0.85787 0.87002 0.70428 0.0
H1229 H 0.87167 0.7703 0.69241 0.0
H1230 H 0.84668 0.76777 0.7029 0.0
H1231 H 0.8881 0.78505 0.70496 0.0
C1232 C 0.80618 0.79804 0.72523 0.0
C1233 C 0.82449 0.79446 0.73294 0.0
C1234 C 0.81856 0.80954 0.71541 0.0
C1235 C 0.84931 0.81731 0.71308 0.0
C1236 C 0.8678 0.8146 0.72084 0.0
H1237 H 0.00244 0.91718 0.67625 0.0
H1238 H 0.95963 0.87576 0.68597 0.0
C1239 C 0.85561 0.80332 0.73061 0.0
C1240 C 0.86302 0.82955 0.70275 0.0
H1241 H 0.90359 0.81902 0.68348 0.0
C1242 C 0.86719 0.85857 0.69957 0.0
C1243 C 0.87509 0.81449 0.6966 0.0
C1244 C 0.8699 0.78252 0.69933 0.0
C1245 C 0.88523 0.87409 0.69086 0.0
C1246 C 0.89892 0.85984 0.68505 0.0
C1247 C 0.89307 0.82992 0.68789 0.0
C1248 C 0.92323 0.87776 0.67718 0.0
C1249 C 0.8914 0.90662 0.68844 0.0
C1250 C 0.91696 0.89076 0.66842 0.0
C1251 C 0.94161 0.91437 0.66274 0.0
C1252 C 0.9727 0.92525 0.66583 0.0
C1253 C 0.97869 0.90922 0.67371 0.0
C1254 C 0.95418 0.88566 0.67932 0.0
H1255 H 0.88298 0.91604 0.69461 0.0
H1256 H 0.91677 0.92292 0.68738 0.0
H1257 H 0.87921 0.90613 0.68114 0.0
H1258 H 0.89319 0.88448 0.66647 0.0
H1259 H 0.9363 0.92644 0.65675 0.0
H1260 H 0.24461 0.0736 0.73904 0.0
H1261 H 0.22524 0.08683 0.72345 0.0
H1262 H 0.22351 0.00966 0.70737 0.0
H1263 H 0.24549 0.99826 0.72271 0.0
H1264 H 0.24594 0.05834 0.69521 0.0
H1265 H 0.13879 0.04552 0.71283 0.0
H1266 H 0.17304 0.07627 0.71893 0.0
H1267 H 0.16482 0.03653 0.71988 0.0
C1268 C 0.23961 0.05923 0.73221 0.0
C1269 C 0.24497 0.03389 0.73222 0.0
C1270 C 0.22845 0.06671 0.72331 0.0
C1271 C 0.22196 0.0487 0.71429 0.0
C1272 C 0.22788 0.02369 0.71425 0.0
H1273 H 0.12193 0.02508 0.65857 0.0
H1274 H 0.16442 0.03081 0.66979 0.0
C1275 C 0.23977 0.0167 0.72309 0.0
C1276 C 0.20963 0.0563 0.70483 0.0
H1277 H 0.15092 0.0678 0.69604 0.0
C1278 C 0.22513 0.06039 0.69539 0.0
C1279 C 0.18256 0.05916 0.70503 0.0
C1280 C 0.16371 0.05383 0.71469 0.0
C1281 C 0.21428 0.06719 0.68619 0.0
C1282 C 0.18719 0.06987 0.68643 0.0
C1283 C 0.17202 0.06623 0.69588 0.0
C1284 C 0.17193 0.07351 0.677 0.0
C1285 C 0.23188 0.07153 0.67632 0.0
C1286 C 0.16362 0.09685 0.67673 0.0
C1287 C 0.13915 0.0934 0.67035 0.0
C1288 C 0.12287 0.06672 0.66413 0.0
C1289 C 0.1345 0.04614 0.66317 0.0
C1290 C 0.15875 0.04932 0.66966 0.0
H1291 H 0.25663 0.07844 0.67789 0.0
H1292 H 0.22089 0.04909 0.67202 0.0
H1293 H 0.23122 0.08952 0.67131 0.0
H1294 H 0.17352 0.11575 0.6823 0.0
H1295 H 0.13032 0.10936 0.67131 0.0
H1296 H 0.04507 0.28032 0.72122 0.0
H1297 H 0.0349 0.24884 0.70553 0.0
H1298 H 0.97706 0.16508 0.72303 0.0
H1299 H 0.98727 0.19662 0.7387 0.0
H1300 H 0.04715 0.20156 0.70144 0.0
H1301 H 0.92016 0.15684 0.69877 0.0
H1302 H 0.9458 0.18923 0.707 0.0
H1303 H 0.93185 0.14961 0.71117 0.0
C1304 C 0.03067 0.25512 0.72172 0.0
C1305 C 0.01771 0.24067 0.73119 0.0
C1306 C 0.02456 0.23722 0.71275 0.0
C1307 C 0.00475 0.20466 0.71306 0.0
C1308 C 0.99184 0.19023 0.72255 0.0
H1309 H 0.9567 0.04093 0.68188 0.0
H1310 H 0.95521 0.08288 0.69117 0.0
C1311 C 0.99794 0.20815 0.73151 0.0
C1312 C 0.99846 0.18554 0.70358 0.0
H1313 H 0.93956 0.12905 0.68892 0.0
C1314 C 0.02371 0.18606 0.69859 0.0
C1315 C 0.96782 0.16567 0.69977 0.0
C1316 C 0.93988 0.16549 0.70439 0.0
C1317 C 0.0191 0.16555 0.69043 0.0
C1318 C 0.98831 0.1445 0.68694 0.0
C1319 C 0.96313 0.14524 0.69155 0.0
C1320 C 0.98174 0.11843 0.67978 0.0
C1321 C 0.04714 0.16517 0.68611 0.0
C1322 C 0.99487 0.12388 0.66987 0.0
C1323 C 0.99564 0.09969 0.66449 0.0
C1324 C 0.98331 0.06995 0.66901 0.0
C1325 C 0.96662 0.06374 0.67827 0.0
C1326 C 0.96583 0.08776 0.6836 0.0
H1327 H 0.06855 0.17929 0.69084 0.0
H1328 H 0.0428 0.14086 0.68568 0.0
H1329 H 0.05167 0.175 0.67818 0.0
H1330 H 0.0066 0.14727 0.66666 0.0
H1331 H 0.00863 0.10509 0.65736 0.0
H1332 H 0.92245 0.59807 0.56216 0.0
H1333 H 0.89766 0.57206 0.54579 0.0
H1334 H 0.89171 0.48683 0.55686 0.0
H1335 H 0.91588 0.5121 0.57315 0.0
H1336 H 0.91628 0.53883 0.53093 0.0
H1337 H 0.80096 0.46244 0.54878 0.0
H1338 H 0.83102 0.49743 0.55499 0.0
H1339 H 0.83273 0.46193 0.55543 0.0
C1340 C 0.91572 0.57375 0.56113 0.0
C1341 C 0.921 0.55719 0.56905 0.0
C1342 C 0.90177 0.55901 0.55174 0.0
C1343 C 0.89268 0.52748 0.55015 0.0
C1344 C 0.89826 0.51109 0.55797 0.0
H1345 H 0.79228 0.37625 0.50932 0.0
H1346 H 0.83395 0.41511 0.5203 0.0
C1347 C 0.91213 0.52568 0.5673 0.0
C1348 C 0.87642 0.5109 0.54052 0.0
H1349 H 0.80864 0.44797 0.53204 0.0
C1350 C 0.89261 0.51919 0.53111 0.0
C1351 C 0.84551 0.48542 0.54077 0.0
C1352 C 0.82638 0.4764 0.55051 0.0
C1353 C 0.87902 0.50164 0.52205 0.0
C1354 C 0.84864 0.47537 0.52247 0.0
C1355 C 0.83218 0.46787 0.53179 0.0
C1356 C 0.8329 0.45464 0.51348 0.0
C1357 C 0.89739 0.51051 0.51218 0.0
C1358 C 0.8202 0.46425 0.50547 0.0
C1359 C 0.79667 0.44195 0.49903 0.0
C1360 C 0.78537 0.40993 0.50068 0.0
C1361 C 0.80087 0.40083 0.50782 0.0
C1362 C 0.82449 0.42302 0.51416 0.0
H1363 H 0.92197 0.52935 0.5134 0.0
H1364 H 0.89721 0.48976 0.50884 0.0
H1365 H 0.88624 0.51874 0.50646 0.0
H1366 H 0.82608 0.48847 0.50489 0.0
H1367 H 0.78465 0.44948 0.49372 0.0
H1368 H 0.52573 0.42204 0.56645 0.0
H1369 H 0.54707 0.42304 0.54957 0.0
H1370 H 0.46182 0.33974 0.5408 0.0
H1371 H 0.43997 0.33828 0.5579 0.0
H1372 H 0.51462 0.33714 0.53599 0.0
H1373 H 0.52822 0.4488 0.52185 0.0
H1374 H 0.54543 0.45329 0.53443 0.0
H1375 H 0.50393 0.42812 0.53273 0.0
C1376 C 0.51122 0.40392 0.56096 0.0
C1377 C 0.48093 0.38012 0.56358 0.0
C1378 C 0.52346 0.40475 0.55124 0.0
C1379 C 0.50579 0.38201 0.54379 0.0
C1380 C 0.47572 0.35784 0.54637 0.0
H1381 H 0.59885 0.35861 0.48957 0.0
H1382 H 0.55469 0.35817 0.49826 0.0
C1383 C 0.46332 0.35697 0.55617 0.0
C1384 C 0.52005 0.38273 0.53365 0.0
H1385 H 0.56293 0.43286 0.5143 0.0
C1386 C 0.52443 0.35767 0.53106 0.0
C1387 C 0.5327 0.40947 0.52719 0.0
C1388 C 0.52703 0.43629 0.52914 0.0
C1389 C 0.54336 0.35972 0.52272 0.0
C1390 C 0.55793 0.38745 0.51673 0.0
C1391 C 0.55178 0.41164 0.51889 0.0
C1392 C 0.58349 0.39357 0.50948 0.0
C1393 C 0.54956 0.33316 0.5209 0.0
C1394 C 0.61426 0.41542 0.51235 0.0
C1395 C 0.63933 0.41578 0.50738 0.0
C1396 C 0.63409 0.3945 0.4994 0.0
C1397 C 0.60352 0.37544 0.49564 0.0
C1398 C 0.57828 0.37488 0.5007 0.0
H1399 H 0.53938 0.31495 0.52701 0.0
H1400 H 0.53922 0.32197 0.51336 0.0
H1401 H 0.57507 0.34208 0.52059 0.0
H1402 H 0.61886 0.43021 0.51905 0.0
H1403 H 0.66268 0.4306 0.51045 0.0
H1404 H 0.72088 0.12498 0.55497 0.0
H1405 H 0.71236 0.14507 0.53861 0.0
H1406 H 0.65326 0.17257 0.55418 0.0
H1407 H 0.66206 0.15278 0.57056 0.0
H1408 H 0.62657 0.13487 0.53565 0.0
H1409 H 0.74552 0.23662 0.52908 0.0
H1410 H 0.74224 0.19989 0.53272 0.0
H1411 H 0.73192 0.22062 0.54177 0.0
C1412 C 0.70706 0.13641 0.55495 0.0
C1413 C 0.69301 0.13839 0.56407 0.0
C1414 C 0.70191 0.14754 0.54559 0.0
C1415 C 0.68228 0.16046 0.54518 0.0
C1416 C 0.66851 0.16272 0.55432 0.0
H1417 H 0.61613 0.25613 0.51145 0.0
H1418 H 0.61656 0.21308 0.52043 0.0
C1419 C 0.67373 0.15167 0.56367 0.0
C1420 C 0.67506 0.17069 0.53523 0.0
H1421 H 0.7066 0.22862 0.51717 0.0
C1422 C 0.64412 0.15514 0.53152 0.0
C1423 C 0.69801 0.19674 0.52974 0.0
C1424 C 0.73134 0.21467 0.53349 0.0
C1425 C 0.63534 0.16585 0.52272 0.0
C1426 C 0.65797 0.19316 0.51763 0.0
C1427 C 0.68922 0.20752 0.52099 0.0
C1428 C 0.64944 0.21061 0.51012 0.0
C1429 C 0.60179 0.14816 0.51912 0.0
C1430 C 0.66634 0.22256 0.50092 0.0
C1431 C 0.66604 0.2474 0.49573 0.0
C1432 C 0.64923 0.26079 0.49979 0.0
C1433 C 0.62925 0.24615 0.50816 0.0
C1434 C 0.62944 0.22137 0.5133 0.0
H1435 H 0.59134 0.12273 0.52068 0.0
H1436 H 0.58812 0.15646 0.52347 0.0
H1437 H 0.59954 0.1516 0.51074 0.0
H1438 H 0.68195 0.21464 0.49832 0.0
H1439 H 0.68181 0.25841 0.48933 0.0
H1440 H 0.86847 0.56406 0.60638 0.0
H1441 H 0.83746 0.54218 0.62206 0.0
H1442 H 0.92195 0.57327 0.63994 0.0
H1443 H 0.95304 0.59578 0.62426 0.0
H1444 H 0.87136 0.50791 0.64306 0.0
H1445 H 0.83214 0.5947 0.64662 0.0
H1446 H 0.82738 0.57807 0.63395 0.0
H1447 H 0.86594 0.60203 0.63923 0.0
C1448 C 0.88032 0.5659 0.61365 0.0
C1449 C 0.91299 0.58051 0.6141 0.0
C1450 C 0.86268 0.55368 0.62259 0.0
C1451 C 0.87746 0.5564 0.63216 0.0
C1452 C 0.91014 0.57099 0.63263 0.0
H1453 H 0.77452 0.44783 0.68657 0.0
H1454 H 0.81821 0.49223 0.67785 0.0
C1455 C 0.9278 0.58341 0.62368 0.0
C1456 C 0.85849 0.54329 0.64159 0.0
H1457 H 0.80422 0.54766 0.65646 0.0
C1458 C 0.85715 0.51689 0.64616 0.0
C1459 C 0.84005 0.55521 0.64558 0.0
C1460 C 0.84155 0.58424 0.64117 0.0
C1461 C 0.83624 0.50072 0.65418 0.0
C1462 C 0.81672 0.51185 0.65792 0.0
C1463 C 0.81931 0.53928 0.65367 0.0
C1464 C 0.79025 0.49256 0.66492 0.0
C1465 C 0.83372 0.47064 0.65804 0.0
C1466 C 0.7597 0.48027 0.66109 0.0
C1467 C 0.73479 0.45548 0.66615 0.0
C1468 C 0.73999 0.44259 0.67513 0.0
C1469 C 0.76984 0.45754 0.67971 0.0
C1470 C 0.7949 0.48253 0.67463 0.0
H1471 H 0.84663 0.4627 0.6531 0.0
H1472 H 0.84364 0.47424 0.66597 0.0
H1473 H 0.80891 0.45174 0.65833 0.0
H1474 H 0.75544 0.4878 0.65367 0.0
H1475 H 0.71199 0.44427 0.66245 0.0
H1476 H 0.4565 0.37567 0.6198 0.0
H1477 H 0.48066 0.36676 0.63514 0.0
H1478 H 0.50507 0.30934 0.61696 0.0
H1479 H 0.4823 0.31954 0.60157 0.0
H1480 H 0.46551 0.31185 0.64499 0.0
H1481 H 0.58716 0.36649 0.631 0.0
H1482 H 0.55804 0.3734 0.62511 0.0
H1483 H 0.55929 0.33858 0.62205 0.0
C1484 C 0.46813 0.36216 0.61903 0.0
C1485 C 0.46889 0.34947 0.60943 0.0
C1486 C 0.48142 0.35662 0.62783 0.0
C1487 C 0.49521 0.3378 0.62719 0.0
C1488 C 0.49543 0.32467 0.61761 0.0
H1489 H 0.58625 0.26778 0.66543 0.0
H1490 H 0.54551 0.26803 0.65469 0.0
C1491 C 0.48238 0.33044 0.60882 0.0
C1492 C 0.50862 0.33109 0.63656 0.0
H1493 H 0.57499 0.33417 0.6458 0.0
C1494 C 0.48952 0.31695 0.6452 0.0
C1495 C 0.54001 0.33791 0.63691 0.0
C1496 C 0.56248 0.35519 0.62831 0.0
C1497 C 0.50082 0.30865 0.654 0.0
C1498 C 0.53181 0.31453 0.65411 0.0
C1499 C 0.551 0.32921 0.6456 0.0
C1500 C 0.54566 0.30612 0.66288 0.0
C1501 C 0.47963 0.29307 0.66304 0.0
C1502 C 0.5575 0.32586 0.67153 0.0
C1503 C 0.58059 0.32543 0.67779 0.0
C1504 C 0.5923 0.30559 0.67532 0.0
C1505 C 0.57738 0.28307 0.66754 0.0
C1506 C 0.55423 0.28334 0.66136 0.0
H1507 H 0.45545 0.28814 0.6615 0.0
H1508 H 0.47901 0.2708 0.66491 0.0
H1509 H 0.48902 0.30841 0.66993 0.0
H1510 H 0.55144 0.34384 0.67277 0.0
H1511 H 0.59207 0.34336 0.68364 0.0
H1512 H 0.67999 0.10958 0.61668 0.0
H1513 H 0.68182 0.13056 0.63397 0.0
H1514 H 0.75642 0.22075 0.62437 0.0
H1515 H 0.75507 0.20012 0.60721 0.0
H1516 H 0.768 0.2008 0.64354 0.0
H1517 H 0.65049 0.1901 0.64213 0.0
H1518 H 0.65196 0.15512 0.63962 0.0
H1519 H 0.66937 0.18718 0.63069 0.0
C1520 C 0.69655 0.13397 0.61821 0.0
C1521 C 0.71731 0.15313 0.61051 0.0
C1522 C 0.69759 0.14591 0.62811 0.0
C1523 C 0.7192 0.17727 0.63046 0.0
C1524 C 0.73966 0.19645 0.62276 0.0
H1525 H 0.76979 0.32699 0.66899 0.0
H1526 H 0.77257 0.28611 0.65949 0.0
C1527 C 0.73872 0.18459 0.61291 0.0
C1528 C 0.72076 0.19062 0.64087 0.0
H1529 H 0.6815 0.21375 0.65674 0.0
C1530 C 0.74892 0.20325 0.64651 0.0
C1531 C 0.69579 0.19352 0.64481 0.0
C1532 C 0.66522 0.18099 0.639 0.0
C1533 C 0.75323 0.21989 0.65574 0.0
C1534 C 0.72892 0.22444 0.65934 0.0
C1535 C 0.70013 0.21017 0.65403 0.0
C1536 C 0.73406 0.2478 0.66747 0.0
C1537 C 0.78405 0.23307 0.66139 0.0
C1538 C 0.71278 0.24008 0.67561 0.0
C1539 C 0.71147 0.26368 0.68116 0.0
C1540 C 0.73107 0.2952 0.67851 0.0
C1541 C 0.7548 0.30286 0.67129 0.0
C1542 C 0.75627 0.27938 0.66581 0.0
H1543 H 0.79468 0.21813 0.66024 0.0
H1544 H 0.80046 0.2566 0.65826 0.0
H1545 H 0.78142 0.23527 0.66981 0.0
H1546 H 0.69535 0.21589 0.67702 0.0
H1547 H 0.69257 0.25716 0.68655 0.0
H1548 H 0.48705 0.18003 0.10722 0.0
H1549 H 0.50616 0.20827 0.12362 0.0
H1550 H 0.47369 0.12077 0.13967 0.0
H1551 H 0.45421 0.09248 0.12326 0.0
H1552 H 0.46642 0.19789 0.14163 0.0
H1553 H 0.56514 0.17705 0.15025 0.0
H1554 H 0.5508 0.17545 0.13727 0.0
H1555 H 0.52819 0.14453 0.14624 0.0
C1556 C 0.48468 0.16694 0.11423 0.0
C1557 C 0.47016 0.1342 0.11395 0.0
C1558 C 0.49536 0.18302 0.12359 0.0
C1559 C 0.49149 0.16666 0.13287 0.0
C1560 C 0.47736 0.13392 0.13259 0.0
H1561 H 0.58998 0.26807 0.18826 0.0
H1562 H 0.54609 0.22354 0.17956 0.0
C1563 C 0.46658 0.1178 0.12321 0.0
C1564 C 0.50131 0.1841 0.1428 0.0
H1565 H 0.5585 0.21032 0.16127 0.0
C1566 C 0.48629 0.20029 0.14603 0.0
C1567 C 0.52676 0.18673 0.14865 0.0
C1568 C 0.54388 0.17015 0.14548 0.0
C1569 C 0.49706 0.22024 0.15467 0.0
C1570 C 0.52404 0.22471 0.16006 0.0
C1571 C 0.53773 0.20689 0.15721 0.0
C1572 C 0.54186 0.25127 0.16731 0.0
C1573 C 0.47979 0.23679 0.15778 0.0
C1574 C 0.55258 0.28187 0.16378 0.0
C1575 C 0.57736 0.30721 0.16878 0.0
C1576 C 0.59217 0.30244 0.17734 0.0
C1577 C 0.57889 0.27243 0.18171 0.0
C1578 C 0.55398 0.24692 0.17667 0.0
H1579 H 0.45434 0.2218 0.15627 0.0
H1580 H 0.48349 0.24341 0.16607 0.0
H1581 H 0.48808 0.25829 0.15305 0.0
H1582 H 0.5442 0.28604 0.15652 0.0
H1583 H 0.58718 0.33014 0.16526 0.0
H1584 H 0.93505 0.37343 0.11698 0.0
H1585 H 0.91153 0.36957 0.13392 0.0
H1586 H 0.8245 0.29262 0.12285 0.0
H1587 H 0.84756 0.29602 0.10606 0.0
H1588 H 0.86033 0.3748 0.13909 0.0
H1589 H 0.83835 0.25694 0.14947 0.0
H1590 H 0.86427 0.27967 0.13917 0.0
H1591 H 0.82274 0.25732 0.13694 0.0
C1592 C 0.91088 0.35574 0.11814 0.0
C1593 C 0.89333 0.33491 0.11014 0.0
C1594 C 0.89754 0.35346 0.12785 0.0
C1595 C 0.86652 0.3302 0.12975 0.0
C1596 C 0.84877 0.31007 0.12169 0.0
H1597 H 0.71071 0.28214 0.16391 0.0
H1598 H 0.75305 0.2816 0.15462 0.0
C1599 C 0.86199 0.31229 0.11203 0.0
C1600 C 0.85178 0.32767 0.13993 0.0
H1601 H 0.80651 0.27425 0.15817 0.0
C1602 C 0.84924 0.35311 0.14343 0.0
C1603 C 0.83751 0.2994 0.14563 0.0
C1604 C 0.84113 0.2719 0.14267 0.0
C1605 C 0.83068 0.35024 0.15197 0.0
C1606 C 0.81464 0.32125 0.15725 0.0
C1607 C 0.81883 0.29644 0.15415 0.0
C1608 C 0.78957 0.31495 0.16472 0.0
C1609 C 0.82653 0.37755 0.1548 0.0
C1610 C 0.79581 0.33192 0.17398 0.0
C1611 C 0.7714 0.3319 0.17941 0.0
C1612 C 0.74067 0.31513 0.17555 0.0
C1613 C 0.73422 0.29525 0.16703 0.0
C1614 C 0.75845 0.29507 0.16169 0.0
H1615 H 0.83753 0.39696 0.14912 0.0
H1616 H 0.80133 0.36999 0.1553 0.0
H1617 H 0.83736 0.3867 0.16248 0.0
H1618 H 0.81967 0.34704 0.17654 0.0
H1619 H 0.777 0.3476 0.18591 0.0
H1620 H 0.74699 0.56524 0.10724 0.0
H1621 H 0.74837 0.547 0.12463 0.0
H1622 H 0.67984 0.57083 0.13434 0.0
H1623 H 0.67813 0.58926 0.11682 0.0
H1624 H 0.76383 0.58318 0.14351 0.0
H1625 H 0.6443 0.47853 0.1437 0.0
H1626 H 0.66331 0.49769 0.13184 0.0
H1627 H 0.64819 0.51564 0.14023 0.0
C1628 C 0.73197 0.5665 0.11301 0.0
C1629 C 0.71239 0.57876 0.11057 0.0
C1630 C 0.73294 0.55615 0.12298 0.0
C1631 C 0.71428 0.55759 0.13079 0.0
C1632 C 0.69429 0.56931 0.12841 0.0
H1633 H 0.69194 0.45108 0.18709 0.0
H1634 H 0.69342 0.49512 0.17772 0.0
C1635 C 0.69329 0.57976 0.11838 0.0
C1636 C 0.71611 0.54656 0.14133 0.0
H1637 H 0.67731 0.48462 0.15763 0.0
C1638 C 0.74473 0.56193 0.14671 0.0
C1639 C 0.69109 0.51911 0.14556 0.0
C1640 C 0.65997 0.50155 0.14006 0.0
C1641 C 0.74952 0.54961 0.15591 0.0
C1642 C 0.72526 0.52085 0.15973 0.0
C1643 C 0.69595 0.50671 0.15474 0.0
C1644 C 0.73099 0.50219 0.16762 0.0
C1645 C 0.78085 0.56705 0.16127 0.0
C1646 C 0.75292 0.49286 0.16552 0.0
C1647 C 0.75214 0.4679 0.17088 0.0
C1648 C 0.7294 0.45175 0.17842 0.0
C1649 C 0.71005 0.46349 0.18143 0.0
C1650 C 0.71063 0.48841 0.17598 0.0
H1651 H 0.79143 0.59269 0.16016 0.0
H1652 H 0.77899 0.56193 0.16968 0.0
H1653 H 0.79689 0.56004 0.15785 0.0
H1654 H 0.76848 0.50257 0.15901 0.0
H1655 H 0.76699 0.45898 0.16833 0.0
H1656 H 0.45907 0.143 0.06374 0.0
H1657 H 0.48536 0.1681 0.04759 0.0
H1658 H 0.55615 0.14363 0.05403 0.0
H1659 H 0.53077 0.11946 0.0702 0.0
H1660 H 0.58189 0.20255 0.04818 0.0
H1661 H 0.48733 0.13022 0.02035 0.0
H1662 H 0.47546 0.14814 0.02995 0.0
H1663 H 0.48601 0.11952 0.03377 0.0
C1664 C 0.48019 0.14291 0.0617 0.0
C1665 C 0.49272 0.12918 0.06832 0.0
C1666 C 0.49505 0.157 0.05241 0.0
C1667 C 0.52246 0.15724 0.04946 0.0
C1668 C 0.53497 0.14363 0.05607 0.0
H1669 H 0.65738 0.25351 0.99967 0.0
H1670 H 0.62407 0.21147 0.01176 0.0
C1671 C 0.52037 0.12984 0.06537 0.0
C1672 C 0.53925 0.17313 0.03981 0.0
H1673 H 0.53061 0.17701 0.01367 0.0
C1674 C 0.57075 0.19662 0.04062 0.0
C1675 C 0.52481 0.1654 0.02992 0.0
C1676 C 0.49164 0.13923 0.0284 0.0
C1677 C 0.58784 0.21327 0.03193 0.0
C1678 C 0.57321 0.20607 0.02208 0.0
C1679 C 0.54186 0.18228 0.0212 0.0
C1680 C 0.58925 0.22559 0.01291 0.0
C1681 C 0.62111 0.23939 0.03341 0.0
C1682 C 0.57965 0.24603 0.00906 0.0
C1683 C 0.5985 0.2698 1.0022 0.0
C1684 C 0.62709 0.27332 0.99894 0.0
C1685 C 0.63521 0.25096 1.00195 0.0
C1686 C 0.61639 0.22722 0.00893 0.0
H1687 H 0.62734 0.24513 0.0417 0.0
H1688 H 0.63722 0.23231 0.03009 0.0
H1689 H 0.62493 0.26085 0.02933 0.0
H1690 H 0.55883 0.2452 0.012 0.0
H1691 H 0.59192 0.28698 1.00006 0.0
H1692 H 0.93538 0.34293 0.05495 0.0
H1693 H 0.91314 0.34815 0.03852 0.0
H1694 H 0.8732 0.39647 0.05424 0.0
H1695 H 0.8953 0.39102 0.0707 0.0
H1696 H 0.83117 0.34644 0.04112 0.0
H1697 H 0.94119 0.42873 0.0211 0.0
H1698 H 0.93974 0.39451 0.0266 0.0
H1699 H 0.93914 0.42312 0.03494 0.0
C1700 C 0.92152 0.35433 0.05487 0.0
C1701 C 0.91603 0.36567 0.06407 0.0
C1702 C 0.90928 0.35773 0.04549 0.0
C1703 C 0.89181 0.37298 0.04516 0.0
C1704 C 0.8867 0.3847 0.05434 0.0
H1705 H 0.80083 0.42489 0.99922 0.0
H1706 H 0.84177 0.4281 0.01084 0.0
C1707 C 0.89914 0.38149 0.06371 0.0
C1708 C 0.87759 0.37546 0.03533 0.0
H1709 H 0.89432 0.40819 0.0112 0.0
C1710 C 0.84497 0.35989 0.03458 0.0
C1711 C 0.89574 0.39319 0.02683 0.0
C1712 C 0.93091 0.41109 0.02738 0.0
C1713 C 0.8299 0.36141 0.02556 0.0
C1714 C 0.84796 0.37882 0.01701 0.0
C1715 C 0.88063 0.39462 0.01773 0.0
C1716 C 0.83253 0.38137 0.00749 0.0
C1717 C 0.79466 0.34463 0.02526 0.0
C1718 C 0.8156 0.355 1.0012 0.0
C1719 C 0.79239 0.35324 0.99453 0.0
C1720 C 0.78604 0.37791 0.99405 0.0
C1721 C 0.80582 0.40589 0.99929 0.0
C1722 C 0.829 0.40761 0.00601 0.0
H1723 H 0.78436 0.33618 0.03301 0.0
H1724 H 0.78638 0.36026 0.02217 0.0
H1725 H 0.7858 0.32412 0.02003 0.0
H1726 H 0.81799 0.33452 1.00226 0.0
H1727 H 0.77695 0.33121 0.99074 0.0
H1728 H 0.64707 0.52372 0.07142 0.0
H1729 H 0.63652 0.49223 0.05578 0.0
H1730 H 0.70757 0.57307 0.0397 0.0
H1731 H 0.71532 0.60509 0.055 0.0
H1732 H 0.66271 0.54409 0.02732 0.0
H1733 H 0.68221 0.45327 0.04531 0.0
H1734 H 0.64916 0.45323 0.05082 0.0
H1735 H 0.68757 0.48667 0.05248 0.0
C1736 C 0.66066 0.53456 0.06456 0.0
C1737 C 0.68341 0.56643 0.06458 0.0
C1738 C 0.65478 0.51651 0.05563 0.0
C1739 C 0.67207 0.52979 0.0466 0.0
C1740 C 0.69421 0.56193 0.04657 0.0
H1741 H 0.71871 0.46835 0.99307 0.0
H1742 H 0.70772 0.49976 1.00497 0.0
C1743 C 0.69927 0.58015 0.0554 0.0
C1744 C 0.6667 0.51064 0.03708 0.0
H1745 H 0.66313 0.44398 0.02807 0.0
C1746 C 0.66285 0.52221 0.02753 0.0
C1747 C 0.66648 0.48179 0.03725 0.0
C1748 C 0.67188 0.4682 0.047 0.0
C1749 C 0.65965 0.50628 0.01822 0.0
C1750 C 0.65992 0.47786 0.01844 0.0
C1751 C 0.66255 0.46565 0.02795 0.0
C1752 C 0.66165 0.46223 0.00892 0.0
C1753 C 0.65646 0.52008 0.00818 0.0
C1754 C 0.63867 0.43119 0.00673 0.0
C1755 C 0.64469 0.41338 0.99971 0.0
C1756 C 0.67403 0.42626 0.99502 0.0
C1757 C 0.69571 0.45813 0.99645 0.0
C1758 C 0.68949 0.47604 1.0033 0.0
H1759 H 0.64921 0.53776 0.00944 0.0
H1760 H 0.67931 0.5317 1.00421 0.0
H1761 H 0.63919 0.50148 1.00299 0.0
H1762 H 0.61715 0.42003 0.01106 0.0
H1763 H 0.62791 0.38867 0.9989 0.0
H1764 H 0.59748 0.94023 0.89203 0.0
H1765 H 0.57923 0.92182 0.87434 0.0
H1766 H 0.56451 0.83072 0.88252 0.0
H1767 H 0.58274 0.84867 0.9 0.0
H1768 H 0.59661 0.85414 0.86364 0.0
H1769 H 0.4881 0.86179 0.86545 0.0
H1770 H 0.52453 0.89644 0.86847 0.0
H1771 H 0.50978 0.86326 0.87693 0.0
C1772 C 0.59015 0.91622 0.89008 0.0
C1773 C 0.59157 0.89598 0.89749 0.0
C1774 C 0.57975 0.90576 0.87996 0.0
C1775 C 0.57046 0.87486 0.87712 0.0
C1776 C 0.57176 0.8547 0.88451 0.0
H1777 H 0.47193 0.72319 0.84051 0.0
H1778 H 0.51574 0.76662 0.84933 0.0
C1779 C 0.58211 0.86506 0.89455 0.0
C1780 C 0.55871 0.86264 0.86656 0.0
H1781 H 0.49408 0.83674 0.85115 0.0
C1782 C 0.57448 0.85089 0.86079 0.0
C1783 C 0.53004 0.85871 0.86278 0.0
C1784 C 0.5119 0.87051 0.86871 0.0
C1785 C 0.5614 0.83362 0.85169 0.0
C1786 C 0.53158 0.82755 0.84836 0.0
C1787 C 0.51698 0.84141 0.85368 0.0
C1788 C 0.51257 0.80265 0.84071 0.0
C1789 C 0.57914 0.82104 0.84596 0.0
C1790 C 0.49714 0.80826 0.8325 0.0
C1791 C 0.47217 0.78319 0.82733 0.0
C1792 C 0.46199 0.75232 0.83047 0.0
C1793 C 0.47962 0.74678 0.83786 0.0
C1794 C 0.5047 0.7717 0.84293 0.0
H1795 H 0.60473 0.83691 0.84681 0.0
H1796 H 0.57347 0.79804 0.84928 0.0
H1797 H 0.57294 0.81788 0.83761 0.0
H1798 H 0.5027 0.83192 0.83069 0.0
H1799 H 0.45861 0.78806 0.82178 0.0
H1800 H 0.1154 0.67943 0.8919 0.0
H1801 H 0.13789 0.68095 0.87493 0.0
H1802 H 0.22781 0.75354 0.88581 0.0
H1803 H 0.20579 0.75249 0.9026 0.0
H1804 H 0.21097 0.7666 0.86639 0.0
H1805 H 0.19622 0.64717 0.8677 0.0
H1806 H 0.16188 0.65016 0.86963 0.0
H1807 H 0.19275 0.66608 0.87909 0.0
C1808 C 0.14001 0.69554 0.8907 0.0
C1809 C 0.1587 0.71579 0.89867 0.0
C1810 C 0.15284 0.69637 0.88099 0.0
C1811 C 0.18461 0.7173 0.8791 0.0
C1812 C 0.20323 0.7373 0.88705 0.0
H1813 H 0.34012 0.7681 0.84367 0.0
H1814 H 0.29801 0.76871 0.85304 0.0
C1815 C 0.19052 0.73655 0.8967 0.0
C1816 C 0.19908 0.71876 0.86893 0.0
H1817 H 0.22374 0.67914 0.85375 0.0
C1818 C 0.21333 0.74729 0.86353 0.0
C1819 C 0.20193 0.69352 0.86512 0.0
C1820 C 0.1876 0.66251 0.87068 0.0
C1821 C 0.2316 0.75173 0.85475 0.0
C1822 C 0.23614 0.72715 0.85135 0.0
C1823 C 0.22022 0.69799 0.85634 0.0
C1824 C 0.26089 0.73239 0.84384 0.0
C1825 C 0.24661 0.78302 0.84938 0.0
C1826 C 0.25427 0.71275 0.83522 0.0
C1827 C 0.27858 0.71274 0.82972 0.0
C1828 C 0.30973 0.73188 0.83294 0.0
C1829 C 0.31633 0.75342 0.84095 0.0
C1830 C 0.29218 0.75372 0.84633 0.0
H1831 H 0.23241 0.79455 0.85027 0.0
H1832 H 0.26986 0.79852 0.85294 0.0
H1833 H 0.24981 0.78069 0.84102 0.0
H1834 H 0.23032 0.69597 0.83318 0.0
H1835 H 0.27285 0.69552 0.82369 0.0
H1836 H 0.37662 0.46256 0.89051 0.0
H1837 H 0.36883 0.48609 0.87488 0.0
H1838 H 0.30557 0.50598 0.89149 0.0
H1839 H 0.31552 0.48479 0.9073 0.0
H1840 H 0.31953 0.47071 0.86341 0.0
H1841 H 0.35945 0.58896 0.879 0.0
H1842 H 0.36394 0.56001 0.88608 0.0
H1843 H 0.32743 0.55972 0.8863 0.0
C1844 C 0.3622 0.47329 0.8909 0.0
C1845 C 0.34813 0.47361 0.90023 0.0
C1846 C 0.35719 0.4861 0.88192 0.0
C1847 C 0.33716 0.49856 0.88202 0.0
C1848 C 0.32204 0.49764 0.89127 0.0
H1849 H 0.28237 0.594 0.83902 0.0
H1850 H 0.27587 0.55132 0.85026 0.0
C1851 C 0.32762 0.48545 0.9003 0.0
C1852 C 0.33165 0.51195 0.87242 0.0
H1853 H 0.33257 0.57694 0.86287 0.0
C1854 C 0.3225 0.494 0.86329 0.0
C1855 C 0.33562 0.54241 0.87219 0.0
C1856 C 0.34745 0.56401 0.88139 0.0
C1857 C 0.31687 0.50557 0.85403 0.0
C1858 C 0.32029 0.53568 0.85394 0.0
C1859 C 0.32943 0.55357 0.86302 0.0
C1860 C 0.31632 0.55051 0.84451 0.0
C1861 C 0.30708 0.48564 0.84443 0.0
C1862 C 0.3397 0.56239 0.83697 0.0
C1863 C 0.34314 0.58656 0.83042 0.0
C1864 C 0.32346 0.5992 0.83147 0.0
C1865 C 0.29755 0.58431 0.83799 0.0
C1866 C 0.29398 0.56008 0.84447 0.0
H1867 H 0.30052 0.46104 0.84615 0.0
H1868 H 0.28703 0.48595 0.84062 0.0
H1869 H 0.32671 0.49541 0.8389 0.0
H1870 H 0.35742 0.55563 0.83696 0.0
H1871 H 0.36363 0.59811 0.82559 0.0
H1872 H 0.61033 0.91282 0.95409 0.0
H1873 H 0.57722 0.88843 0.9692 0.0
H1874 H 0.49569 0.86669 0.95076 0.0
H1875 H 0.52869 0.88983 0.93559 0.0
H1876 H 0.53847 0.90525 0.97889 0.0
H1877 H 0.46914 0.78351 0.96446 0.0
H1878 H 0.50574 0.81204 0.95891 0.0
H1879 H 0.4704 0.81204 0.95552 0.0
C1880 C 0.58522 0.9017 0.95321 0.0
C1881 C 0.57184 0.90188 0.9436 0.0
C1882 C 0.56639 0.88828 0.96187 0.0
C1883 C 0.53388 0.87526 0.9611 0.0
C1884 C 0.52059 0.87578 0.9515 0.0
H1885 H 0.37351 0.78269 0.99874 0.0
H1886 H 0.41329 0.82278 0.98773 0.0
C1887 C 0.5394 0.88901 0.94284 0.0
C1888 C 0.51384 0.86207 0.97036 0.0
H1889 H 0.45006 0.79613 0.97926 0.0
C1890 C 0.51926 0.88133 0.97902 0.0
C1891 C 0.48891 0.8308 0.97056 0.0
C1892 C 0.48325 0.80823 0.96191 0.0
C1893 C 0.49973 0.87031 0.98771 0.0
C1894 C 0.47428 0.83941 0.9877 0.0
C1895 C 0.46932 0.82006 0.97915 0.0
C1896 C 0.45225 0.82575 0.99641 0.0
C1897 C 0.50585 0.89174 0.99676 0.0
C1898 C 0.46108 0.816 0.00541 0.0
C1899 C 0.43823 0.79333 0.01184 0.0
C1900 C 0.40649 0.7799 0.00918 0.0
C1901 C 0.39784 0.7928 1.00098 0.0
C1902 C 0.42057 0.81558 0.99464 0.0
H1903 H 0.5242 0.9162 0.99507 0.0
H1904 H 0.48405 0.89145 0.99893 0.0
H1905 H 0.51349 0.88326 1.00352 0.0
H1906 H 0.48539 0.82333 0.00686 0.0
H1907 H 0.44547 0.78347 0.01804 0.0
H1908 H 0.13225 0.71339 0.95429 0.0
H1909 H 0.15577 0.70401 0.96967 0.0
H1910 H 0.17136 0.63884 0.95229 0.0
H1911 H 0.15048 0.6505 0.93675 0.0
H1912 H 0.13945 0.65475 0.98086 0.0
H1913 H 0.25485 0.68826 0.96471 0.0
H1914 H 0.22648 0.69355 0.95757 0.0
H1915 H 0.22477 0.65629 0.95752 0.0
C1916 C 0.14214 0.69827 0.95368 0.0
C1917 C 0.14137 0.68416 0.94421 0.0
C1918 C 0.15492 0.69233 0.96252 0.0
C1919 C 0.16621 0.67129 0.96214 0.0
C1920 C 0.16408 0.65612 0.95274 0.0
H1921 H 0.25343 0.60202 1.00329 0.0
H1922 H 0.21321 0.60144 0.99206 0.0
C1923 C 0.15202 0.66268 0.94386 0.0
C1924 C 0.17934 0.66449 0.9716 0.0
H1925 H 0.24178 0.65927 0.98052 0.0
C1926 C 0.16194 0.65596 0.98079 0.0
C1927 C 0.20875 0.66608 0.9716 0.0
C1928 C 0.22989 0.67686 0.96234 0.0
C1929 C 0.17289 0.64843 0.98984 0.0
C1930 C 0.20183 0.64935 0.98969 0.0
C1931 C 0.21928 0.65809 0.98057 0.0
C1932 C 0.21569 0.64251 0.99886 0.0
C1933 C 0.15336 0.63909 0.99946 0.0
C1934 C 0.22851 0.66423 0.00698 0.0
C1935 C 0.25124 0.66423 0.01356 0.0
C1936 C 0.2617 0.6429 0.01191 0.0
C1937 C 0.24563 0.61859 1.00475 0.0
C1938 C 0.22282 0.61841 0.99827 0.0
H1939 H 0.12926 0.63434 0.99787 0.0
H1940 H 0.15216 0.61795 1.00297 0.0
H1941 H 0.16442 0.65828 0.00521 0.0
H1942 H 0.2236 0.68322 0.00752 0.0
H1943 H 0.26356 0.68348 0.01891 0.0
H1944 H 0.34307 0.44242 0.95269 0.0
H1945 H 0.34579 0.46281 0.97017 0.0
H1946 H 0.41927 0.55356 0.96052 0.0
H1947 H 0.41705 0.5336 0.94322 0.0
H1948 H 0.43209 0.53352 0.97946 0.0
H1949 H 0.314 0.52174 0.97886 0.0
H1950 H 0.31618 0.4872 0.9762 0.0
H1951 H 0.33242 0.51922 0.96724 0.0
C1952 C 0.35964 0.46677 0.95427 0.0
C1953 C 0.37978 0.48632 0.9465 0.0
C1954 C 0.36117 0.47838 0.96427 0.0
C1955 C 0.3827 0.50976 0.96665 0.0
C1956 C 0.40262 0.52924 0.9589 0.0
H1957 H 0.43648 0.66334 1.00259 0.0
H1958 H 0.43754 0.62057 0.99373 0.0
C1959 C 0.40118 0.51773 0.94897 0.0
C1960 C 0.38464 0.52306 0.97709 0.0
H1961 H 0.34671 0.54798 0.99288 0.0
C1962 C 0.41321 0.53619 0.98251 0.0
C1963 C 0.35994 0.52625 0.98112 0.0
C1964 C 0.32892 0.51307 0.97557 0.0
C1965 C 0.4183 0.55394 0.99151 0.0
C1966 C 0.39437 0.55906 0.99512 0.0
C1967 C 0.36507 0.544 0.99014 0.0
C1968 C 0.40051 0.584 1.00274 0.0
C1969 C 0.44964 0.56792 0.99688 0.0
C1970 C 0.38058 0.57793 0.01118 0.0
C1971 C 0.3803 0.60263 0.01638 0.0
C1972 C 0.39944 0.63356 0.01302 0.0
C1973 C 0.42176 0.63971 0.00539 0.0
C1974 C 0.4223 0.61516 1.0003 0.0
H1975 H 0.46017 0.55283 0.9959 0.0
H1976 H 0.46572 0.59098 0.99337 0.0
H1977 H 0.44779 0.57133 0.00526 0.0
H1978 H 0.36349 0.55408 0.01318 0.0
H1979 H 0.36254 0.59726 0.02212 0.0
H1980 H 0.15271 0.51609 0.43911 0.0
H1981 H 0.17365 0.54634 0.45509 0.0
H1982 H 0.14526 0.46103 0.47206 0.0
H1983 H 0.124 0.43076 0.4561 0.0
H1984 H 0.13699 0.53808 0.47349 0.0
H1985 H 0.23728 0.51914 0.48129 0.0
H1986 H 0.22092 0.51567 0.46851 0.0
H1987 H 0.20017 0.48569 0.47797 0.0
C1988 C 0.15165 0.50393 0.44622 0.0
C1989 C 0.13777 0.47124 0.44633 0.0
C1990 C 0.16337 0.52116 0.45534 0.0
C1991 C 0.16119 0.50598 0.46476 0.0
C1992 C 0.14768 0.47329 0.46487 0.0
H1993 H 0.26038 0.60767 0.52012 0.0
H1994 H 0.21674 0.5636 0.51116 0.0
C1995 C 0.13587 0.45605 0.45573 0.0
C1996 C 0.17206 0.52449 0.47447 0.0
H1997 H 0.23026 0.55154 0.49262 0.0
C1998 C 0.15717 0.54076 0.47776 0.0
C1999 C 0.19801 0.52759 0.48015 0.0
C2000 C 0.21526 0.51126 0.47684 0.0
C2001 C 0.16835 0.56101 0.48632 0.0
C2002 C 0.19551 0.56557 0.49161 0.0
C2003 C 0.20929 0.54793 0.48865 0.0
C2004 C 0.21324 0.59188 0.49895 0.0
C2005 C 0.15124 0.57768 0.4895 0.0
C2006 C 0.22429 0.62263 0.49551 0.0
C2007 C 0.24897 0.64771 0.50065 0.0
C2008 C 0.26329 0.64252 0.50927 0.0
C2009 C 0.24964 0.61235 0.51353 0.0
C2010 C 0.22488 0.58711 0.50835 0.0
H2011 H 0.12581 0.56297 0.48791 0.0
H2012 H 0.15482 0.58393 0.49782 0.0
H2013 H 0.15989 0.59943 0.48489 0.0
H2014 H 0.21625 0.62709 0.48823 0.0
H2015 H 0.25912 0.67076 0.4972 0.0
H2016 H 0.60284 0.7043 0.44954 0.0
H2017 H 0.58172 0.70237 0.4668 0.0
H2018 H 0.4901 0.63313 0.45607 0.0
H2019 H 0.51058 0.63488 0.43894 0.0
H2020 H 0.53112 0.71243 0.47264 0.0
H2021 H 0.5053 0.59247 0.48198 0.0
H2022 H 0.53214 0.6158 0.47194 0.0
H2023 H 0.49072 0.59524 0.46949 0.0
C2024 C 0.57815 0.68886 0.45083 0.0
C2025 C 0.55852 0.6696 0.44282 0.0
C2026 C 0.56618 0.68767 0.46071 0.0
C2027 C 0.53452 0.66697 0.46277 0.0
C2028 C 0.51477 0.64864 0.45472 0.0
H2029 H 0.38129 0.6192 0.4973 0.0
H2030 H 0.42383 0.61862 0.4882 0.0
C2031 C 0.52656 0.6499 0.44488 0.0
C2032 C 0.52129 0.66487 0.47318 0.0
H2033 H 0.47613 0.61136 0.49139 0.0
C2034 C 0.51981 0.69065 0.47693 0.0
C2035 C 0.50675 0.63644 0.47877 0.0
C2036 C 0.50903 0.60849 0.4754 0.0
C2037 C 0.50178 0.68795 0.48561 0.0
C2038 C 0.48531 0.65878 0.49078 0.0
C2039 C 0.48876 0.63369 0.48746 0.0
C2040 C 0.46018 0.6525 0.49823 0.0
C2041 C 0.49844 0.71561 0.48864 0.0
C2042 C 0.46622 0.66969 0.50744 0.0
C2043 C 0.44167 0.66976 0.51275 0.0
C2044 C 0.41101 0.65278 0.50884 0.0
C2045 C 0.40474 0.63251 0.50045 0.0
C2046 C 0.42911 0.63232 0.49521 0.0
H2047 H 0.50956 0.73512 0.483 0.0
H2048 H 0.47341 0.70857 0.48927 0.0
H2049 H 0.50968 0.72445 0.49629 0.0
H2050 H 0.49002 0.68493 0.51003 0.0
H2051 H 0.44713 0.68571 0.51917 0.0
H2052 H 0.41976 0.90867 0.43854 0.0
H2053 H 0.42244 0.88958 0.45569 0.0
H2054 H 0.35011 0.90704 0.46611 0.0
H2055 H 0.34693 0.926 0.44885 0.0
H2056 H 0.43641 0.92164 0.47476 0.0
H2057 H 0.31785 0.81581 0.47454 0.0
H2058 H 0.33593 0.83729 0.4629 0.0
H2059 H 0.3199 0.8526 0.47201 0.0
C2060 C 0.4042 0.90833 0.44442 0.0
C2061 C 0.38301 0.91882 0.44225 0.0
C2062 C 0.4059 0.89751 0.45426 0.0
C2063 C 0.38644 0.89678 0.46219 0.0
C2064 C 0.3651 0.90703 0.46008 0.0
H2065 H 0.36452 0.7908 0.51866 0.0
H2066 H 0.36645 0.83464 0.50902 0.0
C2067 C 0.3633 0.91784 0.4502 0.0
C2068 C 0.3887 0.88499 0.47257 0.0
H2069 H 0.35011 0.82278 0.4888 0.0
C2070 C 0.41739 0.90026 0.47792 0.0
C2071 C 0.36379 0.85731 0.47675 0.0
C2072 C 0.33265 0.83957 0.47126 0.0
C2073 C 0.42227 0.8878 0.48708 0.0
C2074 C 0.39799 0.85909 0.49091 0.0
C2075 C 0.36871 0.84489 0.48591 0.0
C2076 C 0.40357 0.8406 0.49889 0.0
C2077 C 0.45365 0.90512 0.49241 0.0
C2078 C 0.42512 0.83074 0.49686 0.0
C2079 C 0.42406 0.80585 0.50237 0.0
C2080 C 0.40142 0.79035 0.50999 0.0
C2081 C 0.38251 0.80267 0.51292 0.0
C2082 C 0.38336 0.82749 0.50733 0.0
H2083 H 0.46459 0.93075 0.49117 0.0
H2084 H 0.45175 0.90035 0.50084 0.0
H2085 H 0.46942 0.89759 0.48908 0.0
H2086 H 0.44057 0.83997 0.49031 0.0
H2087 H 0.43861 0.79651 0.49988 0.0
H2088 H 0.11064 0.45779 0.39416 0.0
H2089 H 0.1329 0.47744 0.37701 0.0
H2090 H 0.21886 0.48251 0.38678 0.0
H2091 H 0.19713 0.463 0.40376 0.0
H2092 H 0.18629 0.53338 0.37162 0.0
H2093 H 0.19914 0.43308 0.3599 0.0
H2094 H 0.17477 0.43099 0.37052 0.0
H2095 H 0.21626 0.44787 0.37236 0.0
C2096 C 0.1343 0.46315 0.39266 0.0
C2097 C 0.15193 0.45853 0.40037 0.0
C2098 C 0.14693 0.47423 0.38284 0.0
C2099 C 0.17726 0.48062 0.38051 0.0
C2100 C 0.19508 0.47682 0.38827 0.0
H2101 H 0.33095 0.58119 0.34389 0.0
H2102 H 0.28836 0.53978 0.35369 0.0
C2103 C 0.18261 0.46587 0.39804 0.0
C2104 C 0.1913 0.49279 0.37021 0.0
H2105 H 0.23201 0.48192 0.35106 0.0
C2106 C 0.19561 0.52181 0.36696 0.0
C2107 C 0.20335 0.47758 0.36412 0.0
C2108 C 0.19786 0.44549 0.36684 0.0
C2109 C 0.21372 0.53717 0.35826 0.0
C2110 C 0.22742 0.5228 0.35253 0.0
C2111 C 0.2215 0.49291 0.35542 0.0
C2112 C 0.25173 0.54059 0.34466 0.0
C2113 C 0.21991 0.56965 0.35573 0.0
C2114 C 0.24528 0.55293 0.33576 0.0
C2115 C 0.2698 0.57648 0.33003 0.0
C2116 C 0.30092 0.588 0.3332 0.0
C2117 C 0.30716 0.5727 0.34127 0.0
C2118 C 0.28279 0.54915 0.34693 0.0
H2119 H 0.21126 0.57913 0.36181 0.0
H2120 H 0.24531 0.58595 0.35475 0.0
H2121 H 0.20798 0.56905 0.34836 0.0
H2122 H 0.22143 0.54619 0.33374 0.0
H2123 H 0.26431 0.58803 0.3239 0.0
H2124 H 0.59157 0.66518 0.38783 0.0
H2125 H 0.5715 0.67354 0.37141 0.0
H2126 H 0.54932 0.73746 0.38654 0.0
H2127 H 0.56873 0.72855 0.40302 0.0
H2128 H 0.50884 0.66419 0.36766 0.0
H2129 H 0.60302 0.78623 0.36078 0.0
H2130 H 0.60774 0.75987 0.36937 0.0
H2131 H 0.58662 0.77862 0.37352 0.0
C2132 C 0.58171 0.68043 0.38767 0.0
C2133 C 0.5805 0.69533 0.39672 0.0
C2134 C 0.57073 0.68554 0.37828 0.0
C2135 C 0.55931 0.7064 0.37775 0.0
C2136 C 0.55844 0.72159 0.38677 0.0
H2137 H 0.45496 0.7617 0.34313 0.0
H2138 H 0.49831 0.76238 0.35244 0.0
C2139 C 0.56922 0.7163 0.39617 0.0
C2140 C 0.54706 0.71142 0.36787 0.0
H2141 H 0.55646 0.768 0.35062 0.0
C2142 C 0.51951 0.68663 0.36378 0.0
C2143 C 0.56117 0.74082 0.36288 0.0
C2144 C 0.59144 0.76791 0.36679 0.0
C2145 C 0.50446 0.69089 0.3552 0.0
C2146 C 0.51791 0.72068 0.35039 0.0
C2147 C 0.54635 0.74513 0.35422 0.0
C2148 C 0.50006 0.72794 0.34265 0.0
C2149 C 0.47315 0.66401 0.35186 0.0
C2150 C 0.48873 0.7107 0.33344 0.0
C2151 C 0.46385 0.71043 0.32804 0.0
C2152 C 0.45029 0.7274 0.33185 0.0
C2153 C 0.46496 0.7483 0.34008 0.0
C2154 C 0.48967 0.74855 0.34545 0.0
H2155 H 0.4638 0.6444 0.3575 0.0
H2156 H 0.45583 0.67189 0.35089 0.0
H2157 H 0.47559 0.6549 0.34432 0.0
H2158 H 0.49703 0.69525 0.33099 0.0
H2159 H 0.45292 0.6941 0.32172 0.0
H2160 H 0.37662 0.94642 0.3865 0.0
H2161 H 0.36757 0.9152 0.37078 0.0
H2162 H 0.31141 0.83085 0.38819 0.0
H2163 H 0.32109 0.86201 0.40394 0.0
H2164 H 0.38022 0.86298 0.36793 0.0
H2165 H 0.25548 0.82807 0.36292 0.0
H2166 H 0.28253 0.86156 0.37051 0.0
H2167 H 0.26659 0.82281 0.37572 0.0
C2168 C 0.36304 0.92116 0.38699 0.0
C2169 C 0.35051 0.90643 0.39646 0.0
C2170 C 0.35752 0.90342 0.378 0.0
C2171 C 0.33855 0.87077 0.37832 0.0
C2172 C 0.32584 0.85606 0.38777 0.0
H2173 H 0.28197 0.70591 0.34634 0.0
H2174 H 0.28283 0.74919 0.35556 0.0
C2175 C 0.33156 0.87378 0.39676 0.0
C2176 C 0.33246 0.85181 0.36883 0.0
H2177 H 0.27372 0.79981 0.35305 0.0
C2178 C 0.35713 0.84962 0.36453 0.0
C2179 C 0.30223 0.83447 0.36444 0.0
C2180 C 0.27516 0.83694 0.36856 0.0
C2181 C 0.35209 0.82903 0.35634 0.0
C2182 C 0.32156 0.81071 0.35215 0.0
C2183 C 0.29712 0.81403 0.35618 0.0
C2184 C 0.31394 0.78468 0.34485 0.0
C2185 C 0.37911 0.82554 0.35273 0.0
C2186 C 0.32891 0.78988 0.33526 0.0
C2187 C 0.32826 0.76493 0.32991 0.0
C2188 C 0.31269 0.73467 0.33414 0.0
C2189 C 0.2943 0.72907 0.34295 0.0
C2190 C 0.2949 0.75386 0.34826 0.0
H2191 H 0.39975 0.83749 0.35796 0.0
H2192 H 0.37224 0.80046 0.35224 0.0
H2193 H 0.38623 0.83595 0.34493 0.0
H2194 H 0.34312 0.81345 0.33235 0.0
H2195 H 0.34267 0.76989 0.32313 0.0
H2196 H 0.33005 0.03082 0.11067 0.0
H2197 H 0.28207 0.02632 0.11745 0.0
H2198 H 0.28636 0.09214 0.09456 0.0
H2199 H 0.33372 0.09568 0.08747 0.0
H2200 H 0.27274 0.06863 0.12632 0.0
H2201 H 0.19731 0.02607 0.09137 0.0
H2202 H 0.23449 0.02773 0.09216 0.0
H2203 H 0.23258 0.06245 0.08928 0.0
C2204 C 0.32041 0.04386 0.10694 0.0
C2205 C 0.3355 0.06334 0.09845 0.0
C2206 C 0.29307 0.04144 0.11088 0.0
C2207 C 0.28026 0.05865 0.10649 0.0
C2208 C 0.29519 0.07798 0.09794 0.0
H2209 H 0.13662 0.08201 0.13939 0.0
H2210 H 0.18729 0.09142 0.13297 0.0
C2211 C 0.32233 0.08002 0.09389 0.0
C2212 C 0.2519 0.05693 0.11111 0.0
H2213 H 0.17769 0.04084 0.10554 0.0
C2214 C 0.25191 0.06246 0.12177 0.0
C2215 C 0.22459 0.04876 0.10523 0.0
C2216 C 0.22204 0.04061 0.0939 0.0
C2217 C 0.22537 0.05959 0.12671 0.0
C2218 C 0.19823 0.05185 0.12079 0.0
C2219 C 0.19848 0.04693 0.1101 0.0
C2220 C 0.16842 0.04624 0.1255 0.0
C2221 C 0.22634 0.06372 0.13828 0.0
C2222 C 0.14093 0.01789 0.12349 0.0
C2223 C 0.11219 0.01287 0.12694 0.0
C2224 C 0.11007 0.03587 0.13263 0.0
C2225 C 0.13763 0.06379 0.1351 0.0
C2226 C 0.16658 0.06909 0.13145 0.0
H2227 H 0.24548 0.06137 0.14194 0.0
H2228 H 0.23049 0.08746 0.14005 0.0
H2229 H 0.2039 0.04633 0.14182 0.0
H2230 H 0.14158 0.99974 0.11902 0.0
H2231 H 0.0914 0.991 0.12498 0.0
H2232 H 0.92839 0.23703 0.09051 0.0
H2233 H 0.93984 0.20285 0.101 0.0
H2234 H 0.0128 0.28295 0.11698 0.0
H2235 H 0.0018 0.31763 0.10636 0.0
H2236 H 0.03095 0.24143 0.1119 0.0
H2237 H 0.91614 0.17826 0.13084 0.0
H2238 H 0.9119 0.1772 0.11705 0.0
H2239 H 0.92874 0.21412 0.12373 0.0
C2240 C 0.94694 0.24752 0.09624 0.0
C2241 C 0.96402 0.28015 0.09763 0.0
C2242 C 0.95323 0.22785 0.10231 0.0
C2243 C 0.9765 0.24024 0.11001 0.0
C2244 C 0.9944 0.27284 0.11119 0.0
H2245 H 0.99505 0.10125 0.14901 0.0
H2246 H 0.98875 0.14664 0.14492 0.0
C2247 C 0.98821 0.29264 0.10507 0.0
C2248 C 0.98275 0.21895 0.11645 0.0
H2249 H 0.94611 0.15162 0.13065 0.0
C2250 C 0.01256 0.22218 0.11617 0.0
C2251 C 0.95902 0.19421 0.12226 0.0
C2252 C 0.92727 0.19094 0.12359 0.0
C2253 C 0.01854 0.19997 0.12084 0.0
C2254 C 0.99394 0.17359 0.12576 0.0
C2255 C 0.96484 0.17164 0.12676 0.0
C2256 C 0.99691 0.14602 0.12854 0.0
C2257 C 0.05091 0.20436 0.12014 0.0
C2258 C 0.00252 0.13018 0.12068 0.0
C2259 C 0.00592 0.1045 0.12296 0.0
C2260 C 0.00364 0.09374 0.13318 0.0
C2261 C 0.997 0.10898 0.14107 0.0
C2262 C 0.99352 0.13493 0.13875 0.0
H2263 H 0.06882 0.22949 0.11939 0.0
H2264 H 0.0566 0.19461 0.12703 0.0
H2265 H 0.05223 0.19206 0.11319 0.0
H2266 H 0.00437 0.13778 0.11272 0.0
H2267 H 0.01063 0.09323 0.11664 0.0
H2268 H 0.74481 0.72174 0.09739 0.0
H2269 H 0.78114 0.76877 0.10716 0.0
H2270 H 0.8487 0.73796 0.10782 0.0
H2271 H 0.81341 0.69192 0.09784 0.0
H2272 H 0.80713 0.77607 0.1262 0.0
H2273 H 0.90142 0.82499 0.09721 0.0
H2274 H 0.86289 0.79298 0.0943 0.0
H2275 H 0.89102 0.78598 0.10092 0.0
C2276 C 0.76755 0.72519 0.09951 0.0
C2277 C 0.77625 0.70317 0.09667 0.0
C2278 C 0.78825 0.75202 0.10514 0.0
C2279 C 0.81797 0.75727 0.10807 0.0
C2280 C 0.82637 0.73502 0.1054 0.0
H2281 H 0.97549 0.90855 0.14206 0.0
H2282 H 0.93605 0.85533 0.13652 0.0
C2283 C 0.80597 0.70853 0.0997 0.0
C2284 C 0.84014 0.78569 0.11403 0.0
H2285 H 0.91443 0.8483 0.11388 0.0
C2286 C 0.83056 0.79188 0.12348 0.0
C2287 C 0.87079 0.80642 0.11051 0.0
C2288 C 0.88205 0.80247 0.10013 0.0
C2289 C 0.85081 0.81809 0.1295 0.0
C2290 C 0.88141 0.83849 0.126 0.0
C2291 C 0.89112 0.8322 0.11663 0.0
C2292 C 0.90258 0.86854 0.13125 0.0
C2293 C 0.83943 0.82398 0.13953 0.0
C2294 C 0.89645 0.89322 0.13034 0.0
C2295 C 0.91893 0.92339 0.13334 0.0
C2296 C 0.94785 0.92942 0.13742 0.0
C2297 C 0.95321 0.90437 0.13905 0.0
C2298 C 0.93081 0.87409 0.13585 0.0
H2299 H 0.81767 0.80305 0.14217 0.0
H2300 H 0.85763 0.83102 0.14565 0.0
H2301 H 0.83459 0.84346 0.13845 0.0
H2302 H 0.87503 0.88954 0.12671 0.0
H2303 H 0.91434 0.94239 0.13196 0.0
H2304 H 0.04777 0.33727 0.40356 0.0
H2305 H 0.03595 0.29022 0.39358 0.0
H2306 H 0.09652 0.27426 0.41372 0.0
H2307 H 0.10857 0.32093 0.42361 0.0
H2308 H 0.08685 0.27927 0.38394 0.0
H2309 H 0.00926 0.18932 0.41212 0.0
H2310 H 0.01485 0.2284 0.41184 0.0
H2311 H 0.04409 0.2215 0.41756 0.0
C2312 C 0.0581 0.32339 0.40595 0.0
C2313 C 0.07906 0.3328 0.41439 0.0
C2314 C 0.05155 0.29672 0.4002 0.0
C2315 C 0.0654 0.27885 0.40292 0.0
C2316 C 0.08552 0.2877 0.41151 0.0
H2317 H 0.08211 0.12173 0.39028 0.0
H2318 H 0.08717 0.17166 0.39516 0.0
C2319 C 0.09235 0.31438 0.41716 0.0
C2320 C 0.05985 0.25124 0.39678 0.0
H2321 H 0.03153 0.17281 0.39912 0.0
C2322 C 0.07425 0.25584 0.38712 0.0
C2323 C 0.04343 0.22081 0.40098 0.0
C2324 C 0.02676 0.2145 0.41116 0.0
C2325 C 0.07417 0.23091 0.38185 0.0
C2326 C 0.05908 0.20076 0.38633 0.0
C2327 C 0.04333 0.19601 0.39572 0.0
C2328 C 0.06121 0.17411 0.38199 0.0
C2329 C 0.09157 0.23721 0.37182 0.0
C2330 C 0.04627 0.15961 0.37266 0.0
C2331 C 0.04372 0.13104 0.36975 0.0
C2332 C 0.05569 0.11653 0.37624 0.0
C2333 C 0.07261 0.13234 0.38514 0.0
C2334 C 0.07538 0.16081 0.38797 0.0
H2335 H 0.10566 0.26262 0.37011 0.0
H2336 H 0.10727 0.2272 0.37206 0.0
H2337 H 0.0746 0.22571 0.3654 0.0
H2338 H 0.03491 0.1693 0.36797 0.0
H2339 H 0.03024 0.11916 0.36291 0.0
H2340 H 0.72305 0.776 0.42394 0.0
H2341 H 0.7692 0.82017 0.4162 0.0
H2342 H 0.75421 0.76657 0.38841 0.0
H2343 H 0.70804 0.72254 0.39601 0.0
H2344 H 0.82426 0.82616 0.40777 0.0
H2345 H 0.754 0.84499 0.37784 0.0
H2346 H 0.73663 0.82045 0.389 0.0
H2347 H 0.74849 0.80619 0.37822 0.0
C2348 C 0.72989 0.77342 0.41625 0.0
C2349 C 0.71173 0.74582 0.41057 0.0
C2350 C 0.75616 0.79874 0.41181 0.0
C2351 C 0.76464 0.79693 0.40162 0.0
C2352 C 0.74762 0.76877 0.39617 0.0
H2353 H 0.91942 0.93332 0.36367 0.0
H2354 H 0.87031 0.88733 0.36911 0.0
C2355 C 0.72139 0.74351 0.40059 0.0
C2356 C 0.79094 0.82465 0.39664 0.0
H2357 H 0.80897 0.87672 0.37674 0.0
C2358 C 0.8209 0.8372 0.401 0.0
C2359 C 0.78654 0.83898 0.38776 0.0
C2360 C 0.75466 0.8272 0.38296 0.0
C2361 C 0.84658 0.8636 0.39671 0.0
C2362 C 0.84212 0.87822 0.38793 0.0
C2363 C 0.81228 0.86545 0.38346 0.0
C2364 C 0.86817 0.90754 0.38366 0.0
C2365 C 0.87842 0.87557 0.40158 0.0
C2366 C 0.88206 0.93465 0.38973 0.0
C2367 C 0.90986 0.96076 0.38665 0.0
C2368 C 0.92424 0.96042 0.37738 0.0
C2369 C 0.90878 0.93435 0.37081 0.0
C2370 C 0.88088 0.90799 0.37395 0.0
H2371 H 0.87931 0.85755 0.40651 0.0
H2372 H 0.8967 0.88319 0.39559 0.0
H2373 H 0.88401 0.89605 0.40652 0.0
H2374 H 0.87227 0.935 0.39714 0.0
H2375 H 0.92109 0.98062 0.39183 0.0
H2376 H 0.31685 0.00435 0.39477 0.0
H2377 H 0.27194 0.00656 0.38777 0.0
H2378 H 0.22276 0.96911 0.4163 0.0
H2379 H 0.26784 0.96721 0.42342 0.0
H2380 H 0.21262 0.95633 0.38465 0.0
H2381 H 0.2092 0.04272 0.41097 0.0
H2382 H 0.24282 0.03773 0.41008 0.0
H2383 H 0.20967 0.01096 0.4176 0.0
C2384 C 0.29673 0.99715 0.39964 0.0
C2385 C 0.296 0.98573 0.40969 0.0
C2386 C 0.27099 0.99827 0.3956 0.0
C2387 C 0.24402 0.98816 0.40151 0.0
C2388 C 0.24351 0.97755 0.41165 0.0
H2389 H 0.0613 0.96461 0.39301 0.0
H2390 H 0.10649 0.9601 0.39808 0.0
C2391 C 0.26931 0.97647 0.41572 0.0
C2392 C 0.21594 0.98728 0.39689 0.0
H2393 H 0.16469 0.01366 0.40017 0.0
C2394 C 0.20223 0.96903 0.388 0.0
C2395 C 0.20248 0.00394 0.40123 0.0
C2396 C 0.21694 0.02519 0.41044 0.0
C2397 C 0.1749 0.96625 0.38353 0.0
C2398 C 0.16114 0.98243 0.38801 0.0
C2399 C 0.17515 0.00107 0.39679 0.0
C2400 C 0.13179 0.98003 0.38395 0.0
C2401 C 0.16046 0.94537 0.37425 0.0
C2402 C 0.13036 0.99152 0.37411 0.0
C2403 C 0.10423 0.99385 0.37113 0.0
C2404 C 0.07941 0.98507 0.37801 0.0
C2405 C 0.08011 0.97167 0.38755 0.0
C2406 C 0.10599 0.96918 0.39048 0.0
H2407 H 0.16982 0.92931 0.37315 0.0
H2408 H 0.13469 0.93124 0.375 0.0
H2409 H 0.16568 0.96005 0.36722 0.0
H2410 H 0.15017 1.00041 0.36899 0.0
H2411 H 0.10457 0.00469 0.3638 0.0
H2412 H 0.7218 0.9237 0.92237 0.0
H2413 H 0.76689 0.93335 0.91213 0.0
H2414 H 0.75746 0.00182 0.89405 0.0
H2415 H 0.71266 0.99282 0.90446 0.0
H2416 H 0.76645 0.92269 0.89162 0.0
H2417 H 0.85014 0.04791 0.89997 0.0
H2418 H 0.81559 0.02505 0.90756 0.0
H2419 H 0.81271 0.04 0.89516 0.0
C2420 C 0.72967 0.94129 0.91635 0.0
C2421 C 0.71364 0.95756 0.91427 0.0
C2422 C 0.75539 0.94667 0.91046 0.0
C2423 C 0.76569 0.96836 0.90232 0.0
C2424 C 0.75036 0.98538 0.9004 0.0
H2425 H 0.92618 0.01379 0.86208 0.0
H2426 H 0.87411 0.00446 0.86682 0.0
C2427 C 0.72474 0.98022 0.90638 0.0
C2428 C 0.79139 0.97165 0.89559 0.0
H2429 H 0.86578 0.02302 0.88788 0.0
C2430 C 0.78808 0.94471 0.89075 0.0
C2431 C 0.81952 1.00043 0.89435 0.0
C2432 C 0.82494 0.02997 0.89959 0.0
C2433 C 0.81244 0.94555 0.88503 0.0
C2434 C 0.8409 0.97401 0.88412 0.0
C2435 C 0.84378 0.00126 0.88853 0.0
C2436 C 0.8693 0.97521 0.87997 0.0
C2437 C 0.80789 0.91583 0.8802 0.0
C2438 C 0.88332 0.96111 0.88561 0.0
C2439 C 0.91293 0.96664 0.883 0.0
C2440 C 0.92902 0.98612 0.87463 0.0
C2441 C 0.91407 0.99835 0.86849 0.0
C2442 C 0.8845 0.99325 0.87123 0.0
H2443 H 0.78274 0.89831 0.87917 0.0
H2444 H 0.81952 0.92063 0.87258 0.0
H2445 H 0.81848 0.90546 0.88531 0.0
H2446 H 0.87219 0.94741 0.89244 0.0
H2447 H 0.92403 0.95708 0.88789 0.0
H2448 H 0.05696 0.74203 0.90385 0.0
H2449 H 0.04889 0.77985 0.89387 0.0
H2450 H 0.12152 0.85533 0.91161 0.0
H2451 H 0.13007 0.81804 0.92144 0.0
H2452 H 0.03316 0.82377 0.89921 0.0
H2453 H 0.15135 0.88304 0.88242 0.0
H2454 H 0.13547 0.846 0.88905 0.0
H2455 H 0.15279 0.88202 0.89625 0.0
C2456 C 0.07099 0.76666 0.90569 0.0
C2457 C 0.09441 0.77698 0.91338 0.0
C2458 C 0.06647 0.78827 0.89994 0.0
C2459 C 0.08528 0.82053 0.90176 0.0
C2460 C 0.10746 0.83067 0.9098 0.0
H2461 H 0.08541 0.98818 0.89179 0.0
H2462 H 0.09421 0.94503 0.89618 0.0
C2463 C 0.11212 0.80923 0.91549 0.0
C2464 C 0.08174 0.84383 0.89543 0.0
H2465 H 0.12363 0.91165 0.88175 0.0
C2466 C 0.05276 0.8426 0.89522 0.0
C2467 C 0.10725 0.86832 0.8901 0.0
C2468 C 0.13836 0.86977 0.88936 0.0
C2469 C 0.0492 0.86621 0.89039 0.0
C2470 C 0.07521 0.89161 0.88565 0.0
C2471 C 0.10376 0.89215 0.88542 0.0
C2472 C 0.0739 0.91947 0.88205 0.0
C2473 C 0.01808 0.86482 0.8908 0.0
C2474 C 0.06064 0.9199 0.87244 0.0
C2475 C 0.0559 0.94486 0.86983 0.0
C2476 C 0.06406 0.96943 0.87687 0.0
C2477 C 0.07889 0.96959 0.88621 0.0
C2478 C 0.08389 0.94495 0.88875 0.0
H2479 H 1.0 0.84332 0.89469 0.0
H2480 H 0.02068 0.88554 0.895 0.0
H2481 H 0.0099 0.86559 0.88284 0.0
H2482 H 0.05279 0.90037 0.86717 0.0
H2483 H 0.04399 0.94389 0.86266 0.0
H2484 H 0.26432 0.32579 0.92467 0.0
H2485 H 0.22031 0.27949 0.91672 0.0
H2486 H 0.27238 0.29741 0.88856 0.0
H2487 H 0.31639 0.34331 0.89645 0.0
H2488 H 0.18772 0.28054 0.89875 0.0
H2489 H 0.23878 0.20396 0.89326 0.0
H2490 H 0.25574 0.23702 0.90194 0.0
H2491 H 0.26189 0.24289 0.88826 0.0
C2492 C 0.26665 0.31945 0.91687 0.0
C2493 C 0.29391 0.33819 0.91121 0.0
C2494 C 0.24141 0.29312 0.91231 0.0
C2495 C 0.24311 0.28487 0.90206 0.0
C2496 C 0.27068 0.30299 0.89652 0.0
H2497 H 0.1081 0.12999 0.86316 0.0
H2498 H 0.15206 0.18112 0.8683 0.0
C2499 C 0.29583 0.3293 0.90105 0.0
C2500 C 0.21549 0.2585 0.89695 0.0
H2501 H 0.18964 0.18764 0.88536 0.0
C2502 C 0.18811 0.26019 0.89583 0.0
C2503 C 0.21616 0.23217 0.89302 0.0
C2504 C 0.24461 0.22864 0.89424 0.0
C2505 C 0.16135 0.23622 0.89094 0.0
C2506 C 0.16179 0.20958 0.88721 0.0
C2507 C 0.18938 0.20818 0.88814 0.0
C2508 C 0.13317 0.18156 0.88326 0.0
C2509 C 0.13291 0.23975 0.88977 0.0
C2510 C 0.1076 0.16528 0.88983 0.0
C2511 C 0.08258 0.13629 0.88691 0.0
C2512 C 0.08255 0.1228 0.87736 0.0
C2513 C 0.10722 0.13994 0.8705 0.0
C2514 C 0.13248 0.16901 0.87347 0.0
H2515 H 0.13931 0.26475 0.8898 0.0
H2516 H 0.11995 0.22878 0.8825 0.0
H2517 H 0.11707 0.22811 0.89636 0.0
H2518 H 0.10777 0.17411 0.89748 0.0
H2519 H 0.06396 0.12363 0.89238 0.0
H2520 H 0.01215 0.71374 0.6144 0.0
H2521 H 0.01331 0.75992 0.62157 0.0
H2522 H 0.96882 0.76868 0.59395 0.0
H2523 H 0.96778 0.72242 0.58664 0.0
H2524 H 0.01808 0.82612 0.6016 0.0
H2525 H 0.93471 0.75764 0.63265 0.0
H2526 H 0.96861 0.75333 0.63211 0.0
H2527 H 0.94095 0.73944 0.62158 0.0
C2528 C 0.00297 0.7257 0.60977 0.0
C2529 C 0.98968 0.71426 0.59996 0.0
C2530 C 0.0034 0.75194 0.61394 0.0
C2531 C 0.99039 0.76723 0.60842 0.0
C2532 C 0.97867 0.75699 0.59839 0.0
H2533 H 0.96322 0.92435 0.61857 0.0
H2534 H 0.95968 0.87564 0.6129 0.0
C2535 C 0.97825 0.73066 0.59419 0.0
C2536 C 0.98868 0.79363 0.61319 0.0
H2537 H 0.95749 0.8128 0.63343 0.0
C2538 C 0.00475 0.82318 0.60853 0.0
C2539 C 0.97138 0.78978 0.62228 0.0
C2540 C 0.95268 0.7583 0.62742 0.0
C2541 C 0.00429 0.84906 0.61277 0.0
C2542 C 0.98676 0.84517 0.62179 0.0
C2543 C 0.97089 0.8157 0.62652 0.0
C2544 C 0.98418 0.87148 0.6262 0.0
C2545 C 0.02299 0.88053 0.60761 0.0
C2546 C 0.99719 0.88413 0.63592 0.0
C2547 C 0.99891 0.91194 0.63927 0.0
C2548 C 0.98769 0.92741 0.63291 0.0
C2549 C 0.97236 0.91316 0.6236 0.0
C2550 C 0.9705 0.88542 0.62031 0.0
H2551 H 0.04126 0.88128 0.6025 0.0
H2552 H 0.00714 0.88527 0.60279 0.0
H2553 H 0.03439 0.89948 0.61343 0.0
H2554 H 0.0076 0.87351 0.64063 0.0
H2555 H 0.01101 0.92244 0.64645 0.0
H2556 H 0.31948 0.2638 0.58478 0.0
H2557 H 0.27314 0.21997 0.5926 0.0
H2558 H 0.29153 0.27252 0.62083 0.0
H2559 H 0.33738 0.31636 0.61306 0.0
H2560 H 0.27307 0.18681 0.61024 0.0
H2561 H 0.19874 0.23999 0.61626 0.0
H2562 H 0.23188 0.25694 0.60775 0.0
H2563 H 0.23755 0.26245 0.62148 0.0
C2564 C 0.31324 0.26627 0.59257 0.0
C2565 C 0.33208 0.29367 0.59826 0.0
C2566 C 0.28687 0.24112 0.59706 0.0
C2567 C 0.27866 0.243 0.60729 0.0
C2568 C 0.29698 0.27066 0.61288 0.0
H2569 H 0.12519 0.10824 0.64639 0.0
H2570 H 0.17582 0.15233 0.64106 0.0
C2571 C 0.3233 0.29573 0.60841 0.0
C2572 C 0.2521 0.21548 0.61233 0.0
H2573 H 0.18202 0.1907 0.6241 0.0
C2574 C 0.25312 0.18765 0.61325 0.0
C2575 C 0.22625 0.21665 0.61638 0.0
C2576 C 0.22328 0.2455 0.61536 0.0
C2577 C 0.22903 0.16101 0.61807 0.0
C2578 C 0.20291 0.162 0.62196 0.0
C2579 C 0.20215 0.19 0.62121 0.0
C2580 C 0.17481 0.13356 0.6259 0.0
C2581 C 0.23186 0.13208 0.61903 0.0
C2582 C 0.15777 0.10808 0.61926 0.0
C2583 C 0.12908 0.08301 0.62229 0.0
C2584 C 0.11664 0.08275 0.63204 0.0
C2585 C 0.13439 0.10747 0.63892 0.0
C2586 C 0.16317 0.13282 0.63583 0.0
H2587 H 0.25665 0.13793 0.61881 0.0
H2588 H 0.2213 0.11929 0.6263 0.0
H2589 H 0.21945 0.11626 0.61244 0.0
H2590 H 0.16587 0.10828 0.61151 0.0
H2591 H 0.11591 0.0644 0.61679 0.0
H2592 H 0.81495 0.11448 0.58972 0.0
H2593 H 0.84916 0.10488 0.60091 0.0
H2594 H 0.7701 0.04057 0.61909 0.0
H2595 H 0.73536 0.04973 0.60774 0.0
H2596 H 0.85761 0.11801 0.62192 0.0
H2597 H 0.81616 0.99215 0.61449 0.0
H2598 H 0.80629 0.01513 0.60602 0.0
H2599 H 0.78717 0.00188 0.61823 0.0
C2600 C 0.80467 0.09787 0.59599 0.0
C2601 C 0.7724 0.08288 0.59784 0.0
C2602 C 0.82431 0.0925 0.60241 0.0
C2603 C 0.81225 0.07208 0.61085 0.0
C2604 C 0.77989 0.05615 0.61254 0.0
H2605 H 0.9348 0.03033 0.6498 0.0
H2606 H 0.89 0.03775 0.64611 0.0
C2607 C 0.76006 0.06134 0.60604 0.0
C2608 C 0.83421 0.06902 0.61803 0.0
H2609 H 0.85922 0.01888 0.62568 0.0
C2610 C 0.85767 0.0962 0.62287 0.0
C2611 C 0.83408 0.04051 0.61936 0.0
C2612 C 0.80976 0.01073 0.61422 0.0
C2613 C 0.88193 0.09601 0.62852 0.0
C2614 C 0.88286 0.06797 0.62931 0.0
C2615 C 0.85833 0.04033 0.62508 0.0
C2616 C 0.91133 0.06787 0.63291 0.0
C2617 C 0.90707 0.12606 0.63327 0.0
C2618 C 0.93833 0.08302 0.6269 0.0
C2619 C 0.96356 0.07855 0.62891 0.0
C2620 C 0.96243 0.05911 0.63704 0.0
C2621 C 0.93637 0.04576 0.64357 0.0
C2622 C 0.91074 0.04979 0.64142 0.0
H2623 H 0.89855 0.14267 0.63468 0.0
H2624 H 0.91565 0.12153 0.64068 0.0
H2625 H 0.92706 0.1374 0.6279 0.0
H2626 H 0.93914 0.09673 0.62022 0.0
H2627 H 0.98332 0.08896 0.62374 0.0
H2628 H 0.00397 0.37591 0.44852 0.0
H2629 H 0.95794 0.37379 0.45609 0.0
H2630 H 0.94563 0.4167 0.4287 0.0
H2631 H 0.9915 0.41845 0.42099 0.0
H2632 H 0.94937 0.42292 0.46079 0.0
H2633 H 0.85829 0.3436 0.43301 0.0
H2634 H 0.89677 0.34803 0.43348 0.0
H2635 H 0.8904 0.37661 0.42693 0.0
C2636 C 0.99117 0.38441 0.44401 0.0
C2637 C 1.00134 0.39719 0.4341 0.0
C2638 C 0.96493 0.38333 0.44839 0.0
C2639 C 0.94813 0.39488 0.44297 0.0
C2640 C 0.95783 0.4071 0.43298 0.0
H2641 H 0.79113 0.41936 0.45395 0.0
H2642 H 0.8408 0.42482 0.44872 0.0
C2643 C 0.98409 0.4081 0.42857 0.0
C2644 C 0.92127 0.39523 0.44793 0.0
H2645 H 0.84375 0.37069 0.44481 0.0
C2646 C 0.92621 0.41132 0.45733 0.0
C2647 C 0.89099 0.37996 0.44347 0.0
C2648 C 0.88363 0.36081 0.43372 0.0
C2649 C 0.90195 0.41335 0.4622 0.0
C2650 C 0.87191 0.39866 0.4576 0.0
C2651 C 0.86687 0.38215 0.4483 0.0
C2652 C 0.8453 0.40065 0.46202 0.0
C2653 C 0.9088 0.43187 0.47206 0.0
C2654 C 0.83195 0.38655 0.47153 0.0
C2655 C 0.80349 0.3837 0.47462 0.0
C2656 C 0.78789 0.39457 0.46817 0.0
C2657 C 0.80257 0.41071 0.45908 0.0
C2658 C 0.83091 0.41371 0.45604 0.0
H2659 H 0.93428 0.44696 0.47347 0.0
H2660 H 0.89788 0.44678 0.47185 0.0
H2661 H 0.89876 0.4155 0.47867 0.0
H2662 H 0.84245 0.37599 0.47622 0.0
H2663 H 0.79253 0.37079 0.4816 0.0
H2664 H 0.57296 0.5848 0.43973 0.0
H2665 H 0.58037 0.54776 0.45017 0.0
H2666 H 0.67021 0.58021 0.43611 0.0
H2667 H 0.66355 0.61891 0.42611 0.0
H2668 H 0.58263 0.50064 0.44458 0.0
H2669 H 0.69405 0.57577 0.46497 0.0
H2670 H 0.67368 0.5918 0.45789 0.0
H2671 H 0.69909 0.58134 0.4513 0.0
C2672 C 0.59448 0.58428 0.43897 0.0
C2673 C 0.61767 0.60459 0.4321 0.0
C2674 C 0.59873 0.56311 0.44495 0.0
C2675 C 0.62601 0.56124 0.44407 0.0
C2676 C 0.64935 0.58172 0.43721 0.0
H2677 H 0.63892 0.39796 0.45103 0.0
H2678 H 0.62694 0.4386 0.44666 0.0
C2679 C 0.64545 0.60362 0.43141 0.0
C2680 C 0.62854 0.53611 0.44967 0.0
H2681 H 0.67793 0.52087 0.46394 0.0
C2682 C 0.60335 0.5053 0.44895 0.0
C2683 C 0.65514 0.54191 0.45561 0.0
C2684 C 0.68182 0.57457 0.45759 0.0
C2685 C 0.60454 0.48017 0.45357 0.0
C2686 C 0.63222 0.48563 0.4587 0.0
C2687 C 0.65684 0.51654 0.45989 0.0
C2688 C 0.63721 0.45948 0.46189 0.0
C2689 C 0.57605 0.44799 0.45284 0.0
C2690 C 0.64751 0.45773 0.47192 0.0
C2691 C 0.65497 0.43452 0.47443 0.0
C2692 C 0.65232 0.41282 0.46693 0.0
C2693 C 0.6411 0.41418 0.45702 0.0
C2694 C 0.63394 0.43733 0.45452 0.0
H2695 H 0.55433 0.4494 0.45256 0.0
H2696 H 0.57695 0.43661 0.44559 0.0
H2697 H 0.57465 0.43302 0.45948 0.0
H2698 H 0.65053 0.47477 0.47772 0.0
H2699 H 0.66426 0.43461 0.48204 0.0
H2700 H 0.40572 0.04343 0.43816 0.0
H2701 H 0.44289 0.09008 0.44799 0.0
H2702 H 0.5182 0.09839 0.42928 0.0
H2703 H 0.48159 0.05201 0.41951 0.0
H2704 H 0.50314 0.09762 0.45871 0.0
H2705 H 0.52145 0.18665 0.42897 0.0
H2706 H 0.48643 0.14871 0.42945 0.0
H2707 H 0.52179 0.1525 0.42439 0.0
C2708 C 0.43013 0.05547 0.43605 0.0
C2709 C 0.44066 0.044 0.42803 0.0
C2710 C 0.45133 0.08193 0.44172 0.0
C2711 C 0.48324 0.09757 0.43936 0.0
C2712 C 0.49364 0.08665 0.43121 0.0
H2713 H 0.65721 0.25691 0.45374 0.0
H2714 H 0.61369 0.2067 0.44817 0.0
C2715 C 0.47264 0.06013 0.42563 0.0
C2716 C 0.50616 0.12518 0.44538 0.0
H2717 H 0.55802 0.20309 0.44281 0.0
C2718 C 0.51491 0.12083 0.45534 0.0
C2719 C 0.52138 0.15531 0.44092 0.0
C2720 C 0.51223 0.16131 0.43037 0.0
C2721 C 0.53968 0.14569 0.46076 0.0
C2722 C 0.55569 0.17562 0.45612 0.0
C2723 C 0.54594 0.18008 0.44633 0.0
C2724 C 0.58374 0.2025 0.46086 0.0
C2725 C 0.54945 0.13948 0.47117 0.0
C2726 C 0.58202 0.21614 0.47017 0.0
C2727 C 0.60728 0.24481 0.47348 0.0
C2728 C 0.63427 0.26035 0.46742 0.0
C2729 C 0.63666 0.24548 0.45854 0.0
C2730 C 0.61173 0.21685 0.45532 0.0
H2731 H 0.539 0.11405 0.47272 0.0
H2732 H 0.57527 0.15071 0.47172 0.0
H2733 H 0.54168 0.14964 0.47729 0.0
H2734 H 0.56055 0.20572 0.47451 0.0
H2735 H 0.60468 0.25595 0.48028 0.0
H2736 H 0.70553 0.65003 0.74555 0.0
H2737 H 0.6923 0.60194 0.73597 0.0
H2738 H 0.79021 0.6324 0.73329 0.0
H2739 H 0.80348 0.67937 0.74299 0.0
H2740 H 0.70706 0.59138 0.71652 0.0
H2741 H 0.75797 0.54725 0.74576 0.0
H2742 H 0.7516 0.57946 0.74831 0.0
H2743 H 0.78578 0.5858 0.74145 0.0
C2744 C 0.72416 0.64631 0.74296 0.0
C2745 C 0.75552 0.66834 0.74523 0.0
C2746 C 0.7166 0.61889 0.73747 0.0
C2747 C 0.74026 0.61317 0.73412 0.0
C2748 C 0.77149 0.63571 0.73607 0.0
H2749 H 0.74791 0.46357 0.70079 0.0
H2750 H 0.75933 0.51599 0.70629 0.0
C2751 C 0.77901 0.6627 0.74162 0.0
C2752 C 0.73277 0.5838 0.72862 0.0
H2753 H 0.74624 0.52234 0.7293 0.0
C2754 C 0.71547 0.5762 0.71934 0.0
C2755 C 0.74368 0.56387 0.73231 0.0
C2756 C 0.76049 0.56931 0.74256 0.0
C2757 C 0.7093 0.54954 0.7136 0.0
C2758 C 0.72086 0.53018 0.71719 0.0
C2759 C 0.73802 0.53767 0.72646 0.0
C2760 C 0.71291 0.50028 0.71208 0.0
C2761 C 0.6906 0.54218 0.7037 0.0
C2762 C 0.68298 0.47439 0.71333 0.0
C2763 C 0.67665 0.44467 0.71034 0.0
C2764 C 0.69999 0.44027 0.70591 0.0
C2765 C 0.72942 0.46645 0.70403 0.0
C2766 C 0.73596 0.49628 0.70721 0.0
H2767 H 0.68771 0.56203 0.70107 0.0
H2768 H 0.70203 0.53614 0.69751 0.0
H2769 H 0.66709 0.52155 0.70494 0.0
H2770 H 0.66501 0.4769 0.71718 0.0
H2771 H 0.65378 0.42481 0.71191 0.0
H2772 H 0.39594 0.10193 0.75477 0.0
H2773 H 0.44231 0.14243 0.74592 0.0
H2774 H 0.41151 0.08917 0.71767 0.0
H2775 H 0.36561 0.04844 0.72646 0.0
H2776 H 0.47382 0.11462 0.72064 0.0
H2777 H 0.44008 0.205 0.72581 0.0
H2778 H 0.4429 0.18808 0.7378 0.0
H2779 H 0.41372 0.16409 0.72838 0.0
C2780 C 0.39933 0.09861 0.74672 0.0
C2781 C 0.37699 0.07204 0.74131 0.0
C2782 C 0.42563 0.12196 0.74164 0.0
C2783 C 0.42992 0.11925 0.73105 0.0
C2784 C 0.40852 0.09196 0.7258 0.0
H2785 H 0.5722 0.28317 0.69618 0.0
H2786 H 0.52138 0.23682 0.70028 0.0
C2787 C 0.38232 0.06863 0.73086 0.0
C2788 C 0.45656 0.14485 0.72542 0.0
H2789 H 0.49211 0.22299 0.71998 0.0
C2790 C 0.47762 0.13823 0.72041 0.0
C2791 C 0.4611 0.1755 0.72485 0.0
C2792 C 0.43808 0.18359 0.7294 0.0
C2793 C 0.50397 0.16178 0.71536 0.0
C2794 C 0.50969 0.19287 0.71545 0.0
C2795 C 0.48779 0.19918 0.71996 0.0
C2796 C 0.54008 0.21955 0.71216 0.0
C2797 C 0.52577 0.15325 0.71012 0.0
C2798 C 0.56719 0.22515 0.71746 0.0
C2799 C 0.59579 0.25128 0.71517 0.0
C2800 C 0.59815 0.27269 0.70752 0.0
C2801 C 0.57114 0.26689 0.70201 0.0
C2802 C 0.54216 0.24058 0.70439 0.0
H2803 H 0.51334 0.12833 0.70769 0.0
H2804 H 0.53673 0.16817 0.70324 0.0
H2805 H 0.54456 0.15666 0.71563 0.0
H2806 H 0.56611 0.20968 0.72361 0.0
H2807 H 0.61615 0.25494 0.71954 0.0
H2808 H 0.98967 0.33849 0.72743 0.0
H2809 H 0.94692 0.34373 0.72002 0.0
H2810 H 0.90127 0.32134 0.74956 0.0
H2811 H 0.94405 0.31592 0.75708 0.0
H2812 H 0.88254 0.29439 0.71966 0.0
H2813 H 0.89974 0.40099 0.73977 0.0
H2814 H 0.93023 0.39118 0.73884 0.0
H2815 H 0.89942 0.37146 0.74803 0.0
C2816 C 0.97083 0.33519 0.73243 0.0
C2817 C 0.97032 0.32684 0.74287 0.0
C2818 C 0.94633 0.33805 0.72815 0.0
C2819 C 0.92097 0.333 0.73423 0.0
C2820 C 0.92081 0.32567 0.74475 0.0
H2821 H 0.74744 0.32907 0.7269 0.0
H2822 H 0.79294 0.32571 0.73226 0.0
C2823 C 0.94528 0.32262 0.74904 0.0
C2824 C 0.894 0.33386 0.72945 0.0
H2825 H 0.85259 0.372 0.73028 0.0
C2826 C 0.87604 0.31146 0.72191 0.0
C2827 C 0.88573 0.35624 0.73237 0.0
C2828 C 0.90488 0.38154 0.74013 0.0
C2829 C 0.84924 0.31008 0.71751 0.0
C2830 C 0.8406 0.33213 0.72058 0.0
C2831 C 0.85912 0.35502 0.72793 0.0
C2832 C 0.81146 0.33093 0.71686 0.0
C2833 C 0.82979 0.28434 0.70992 0.0
C2834 C 0.80614 0.33416 0.70633 0.0
C2835 C 0.77965 0.3357 0.70319 0.0
C2836 C 0.75848 0.33454 0.71058 0.0
C2837 C 0.76345 0.33028 0.72103 0.0
C2838 C 0.78951 0.32841 0.72412 0.0
H2839 H 0.83542 0.26522 0.71023 0.0
H2840 H 0.8045 0.27427 0.71143 0.0
H2841 H 0.83447 0.2941 0.70198 0.0
H2842 H 0.823 0.33666 0.70059 0.0
H2843 H 0.77662 0.33936 0.69511 0.0
H2844 H 0.39189 0.26563 0.25906 0.0
H2845 H 0.4385 0.27685 0.24944 0.0
H2846 H 0.4226 0.33583 0.22856 0.0
H2847 H 0.37563 0.32475 0.23821 0.0
H2848 H 0.43253 0.28689 0.21903 0.0
H2849 H 0.52404 0.35999 0.24773 0.0
H2850 H 0.49222 0.32484 0.25298 0.0
H2851 H 0.48519 0.35475 0.24794 0.0
C2852 C 0.39853 0.28144 0.25253 0.0
C2853 C 0.38006 0.29438 0.24943 0.0
C2854 C 0.42521 0.28783 0.24704 0.0
C2855 C 0.43404 0.30721 0.2383 0.0
C2856 C 0.41619 0.32085 0.2353 0.0
H2857 H 0.58921 0.34177 0.19694 0.0
H2858 H 0.53993 0.33699 0.20282 0.0
C2859 C 0.38955 0.31473 0.24088 0.0
C2860 C 0.46117 0.3118 0.23216 0.0
H2861 H 0.53904 0.33738 0.23434 0.0
C2862 C 0.45597 0.29837 0.22227 0.0
C2863 C 0.49164 0.32679 0.23642 0.0
C2864 C 0.49879 0.34269 0.24681 0.0
C2865 C 0.48024 0.29805 0.21678 0.0
C2866 C 0.51043 0.31185 0.22126 0.0
C2867 C 0.5158 0.3265 0.23094 0.0
C2868 C 0.53663 0.30999 0.21647 0.0
C2869 C 0.47314 0.28171 0.20647 0.0
C2870 C 0.55055 0.29556 0.22198 0.0
C2871 C 0.57859 0.29842 0.21868 0.0
C2872 C 0.59334 0.31569 0.20978 0.0
C2873 C 0.57817 0.328 0.20377 0.0
C2874 C 0.55006 0.32537 0.20714 0.0
H2875 H 0.44763 0.26734 0.20496 0.0
H2876 H 0.48355 0.29944 0.20024 0.0
H2877 H 0.48359 0.26641 0.20606 0.0
H2878 H 0.54052 0.28342 0.22916 0.0
H2879 H 0.5897 0.28861 0.22346 0.0
H2880 H 0.77863 0.14165 0.25539 0.0
H2881 H 0.77086 0.17783 0.24462 0.0
H2882 H 0.70717 0.10146 0.22507 0.0
H2883 H 0.71442 0.06475 0.23599 0.0
H2884 H 0.78547 0.18997 0.22413 0.0
H2885 H 0.65908 0.14703 0.22987 0.0
H2886 H 0.68095 0.13528 0.23816 0.0
H2887 H 0.66865 0.1184 0.22552 0.0
C2888 C 0.76257 0.13236 0.24889 0.0
C2889 C 0.74713 0.10022 0.24657 0.0
C2890 C 0.75825 0.15316 0.24271 0.0
C2891 C 0.73841 0.14246 0.23403 0.0
C2892 C 0.72223 0.11026 0.23181 0.0
H2893 H 0.6992 0.26576 0.19446 0.0
H2894 H 0.70663 0.22125 0.19876 0.0
C2895 C 0.72638 0.08928 0.23807 0.0
C2896 C 0.73609 0.16555 0.22718 0.0
H2897 H 0.68626 0.19038 0.2189 0.0
C2898 C 0.76368 0.18983 0.2229 0.0
C2899 C 0.70764 0.16527 0.22546 0.0
C2900 C 0.67738 0.14028 0.23004 0.0
C2901 C 0.76382 0.21443 0.21736 0.0
C2902 C 0.73569 0.21493 0.21608 0.0
C2903 C 0.7078 0.18984 0.21985 0.0
C2904 C 0.7354 0.24321 0.21227 0.0
C2905 C 0.79424 0.24018 0.21314 0.0
C2906 C 0.7498 0.27053 0.21826 0.0
C2907 C 0.74539 0.29564 0.21588 0.0
C2908 C 0.7267 0.29412 0.20741 0.0
C2909 C 0.71407 0.2677 0.20095 0.0
C2910 C 0.71808 0.2422 0.20345 0.0
H2911 H 0.81132 0.23212 0.21203 0.0
H2912 H 0.79052 0.24901 0.20566 0.0
H2913 H 0.80454 0.25993 0.2187 0.0
H2914 H 0.76292 0.27171 0.22516 0.0
H2915 H 0.75523 0.31564 0.22102 0.0
H2916 H 0.92499 0.6496 0.25978 0.0
H2917 H 0.88132 0.60333 0.25167 0.0
H2918 H 0.93619 0.61916 0.22429 0.0
H2919 H 0.97982 0.66486 0.23235 0.0
H2920 H 0.85087 0.60432 0.23341 0.0
H2921 H 0.90021 0.52592 0.2291 0.0
H2922 H 0.91727 0.55932 0.23762 0.0
H2923 H 0.92444 0.56448 0.22397 0.0
C2924 C 0.928 0.64273 0.25214 0.0
C2925 C 0.95593 0.66086 0.24673 0.0
C2926 C 0.90296 0.61644 0.24748 0.0
C2927 C 0.90554 0.60765 0.23739 0.0
C2928 C 0.93378 0.6251 0.23214 0.0
H2929 H 0.77306 0.45599 0.1969 0.0
H2930 H 0.81688 0.50665 0.20255 0.0
C2931 C 0.95872 0.65133 0.23676 0.0
C2932 C 0.87815 0.58159 0.23206 0.0
H2933 H 0.85255 0.51105 0.22026 0.0
C2934 C 0.85121 0.58388 0.23056 0.0
C2935 C 0.87873 0.55512 0.22822 0.0
C2936 C 0.90659 0.55082 0.22987 0.0
C2937 C 0.82484 0.5604 0.22535 0.0
C2938 C 0.82524 0.53371 0.22166 0.0
C2939 C 0.85237 0.53167 0.223 0.0
C2940 C 0.79684 0.50617 0.21738 0.0
C2941 C 0.79682 0.56447 0.2238 0.0
C2942 C 0.77074 0.48959 0.22371 0.0
C2943 C 0.74589 0.46086 0.22051 0.0
C2944 C 0.74654 0.44801 0.21091 0.0
C2945 C 0.77172 0.4655 0.20427 0.0
C2946 C 0.79686 0.49429 0.20753 0.0
H2947 H 0.80347 0.58954 0.22402 0.0
H2948 H 0.78487 0.55429 0.21633 0.0
H2949 H 0.77998 0.5523 0.23012 0.0
H2950 H 0.77036 0.49795 0.23139 0.0
H2951 H 0.72683 0.44787 0.22581 0.0
H2952 H 0.66692 0.02806 0.95046 0.0
H2953 H 0.67091 0.07363 0.9591 0.0
H2954 H 0.65002 0.10408 0.93034 0.0
H2955 H 0.64505 0.05775 0.92165 0.0
H2956 H 0.70816 0.13444 0.9567 0.0
H2957 H 0.58643 0.10601 0.94913 0.0
H2958 H 0.5996 0.07853 0.94675 0.0
H2959 H 0.60691 0.10868 0.93747 0.0
C2960 C 0.66334 0.0445 0.94592 0.0
C2961 C 0.65551 0.03915 0.93535 0.0
C2962 C 0.66555 0.07056 0.9509 0.0
C2963 C 0.66001 0.09195 0.94545 0.0
C2964 C 0.65348 0.08742 0.93479 0.0
H2965 H 0.71849 0.28039 0.95694 0.0
H2966 H 0.7116 0.22922 0.95331 0.0
C2967 C 0.65106 0.06115 0.92979 0.0
C2968 C 0.6617 0.11919 0.95094 0.0
H2969 H 0.62174 0.1579 0.95524 0.0
C2970 C 0.68909 0.13931 0.95646 0.0
C2971 C 0.63655 0.12523 0.95091 0.0
C2972 C 0.60559 0.10328 0.94584 0.0
C2973 C 0.69263 0.16607 0.96146 0.0
C2974 C 0.66841 0.17335 0.96077 0.0
C2975 C 0.64038 0.15242 0.95573 0.0
C2976 C 0.67344 0.20443 0.96393 0.0
C2977 C 0.72258 0.18663 0.9673 0.0
C2978 C 0.65409 0.2077 0.97112 0.0
C2979 C 0.65802 0.23739 0.97326 0.0
C2980 C 0.68091 0.26392 0.96805 0.0
C2981 C 0.70052 0.26041 0.96107 0.0
C2982 C 0.6968 0.23113 0.95902 0.0
H2983 H 0.73337 0.17296 0.97019 0.0
H2984 H 0.73947 0.20498 0.96204 0.0
H2985 H 0.71859 0.19824 0.97396 0.0
H2986 H 0.63573 0.18729 0.97494 0.0
H2987 H 0.64243 0.23939 0.97861 0.0
H2988 H 0.01358 0.65242 0.94739 0.0
H2989 H 0.96602 0.60892 0.95443 0.0
H2990 H 0.94272 0.56451 0.92452 0.0
H2991 H 0.99096 0.60774 0.91745 0.0
H2992 H 0.90493 0.58402 0.95039 0.0
H2993 H 0.93988 0.49584 0.94229 0.0
H2994 H 0.96653 0.53728 0.94103 0.0
H2995 H 0.93867 0.51611 0.93091 0.0
C2996 C 0.99825 0.63356 0.94225 0.0
C2997 C 0.00625 0.63348 0.93185 0.0
C2998 C 0.97102 0.60862 0.94632 0.0
C2999 C 0.95111 0.58298 0.9401 0.0
C3000 C 0.95816 0.58357 0.92957 0.0
H3001 H 0.7736 0.4183 0.94588 0.0
H3002 H 0.82387 0.46244 0.94105 0.0
C3003 C 0.98558 0.60849 0.92549 0.0
C3004 C 0.92328 0.5556 0.94471 0.0
H3005 H 0.88746 0.47626 0.94777 0.0
C3006 C 0.90129 0.56051 0.94991 0.0
C3007 C 0.91865 0.5249 0.94421 0.0
C3008 C 0.94233 0.51819 0.9394 0.0
C3009 C 0.87431 0.53548 0.95424 0.0
C3010 C 0.86924 0.50476 0.95341 0.0
C3011 C 0.89147 0.49988 0.94842 0.0
C3012 C 0.83955 0.4771 0.95673 0.0
C3013 C 0.85079 0.5418 0.95936 0.0
C3014 C 0.83186 0.47023 0.96722 0.0
C3015 C 0.80293 0.44458 0.97007 0.0
C3016 C 0.78125 0.42574 0.96244 0.0
C3017 C 0.78957 0.43243 0.95198 0.0
C3018 C 0.81837 0.45766 0.94917 0.0
H3019 H 0.85664 0.56653 0.95845 0.0
H3020 H 0.82714 0.52635 0.95605 0.0
H3021 H 0.8499 0.53649 0.96773 0.0
H3022 H 0.84806 0.48485 0.97318 0.0
H3023 H 0.79723 0.44007 0.97818 0.0
H3024 H 0.48001 0.46198 0.92446 0.0
H3025 H 0.51549 0.44825 0.93304 0.0
H3026 H 0.43723 0.36428 0.94503 0.0
H3027 H 0.40114 0.37806 0.93655 0.0
H3028 H 0.48582 0.39976 0.95997 0.0
H3029 H 0.53225 0.37855 0.92397 0.0
H3030 H 0.5341 0.41577 0.92431 0.0
H3031 H 0.49675 0.38041 0.92419 0.0
C3032 C 0.47014 0.44044 0.92886 0.0
C3033 C 0.43758 0.42106 0.92976 0.0
C3034 C 0.49056 0.43263 0.93375 0.0
C3035 C 0.47901 0.40516 0.93961 0.0
C3036 C 0.4466 0.38561 0.94053 0.0
H3037 H 0.58985 0.32281 0.95681 0.0
H3038 H 0.54821 0.33271 0.95159 0.0
C3039 C 0.42602 0.39341 0.93562 0.0
C3040 C 0.50103 0.39704 0.94468 0.0
H3041 H 0.55966 0.38199 0.9395 0.0
C3042 C 0.50186 0.39564 0.95552 0.0
C3043 C 0.52181 0.39157 0.93885 0.0
C3044 C 0.52109 0.39134 0.92718 0.0
C3045 C 0.52329 0.38931 0.96068 0.0
C3046 C 0.54458 0.38463 0.95483 0.0
C3047 C 0.54347 0.38579 0.94399 0.0
C3048 C 0.56737 0.37696 0.9596 0.0
C3049 C 0.52265 0.38716 0.97231 0.0
C3050 C 0.59157 0.39808 0.96617 0.0
C3051 C 0.61546 0.39223 0.9693 0.0
C3052 C 0.61562 0.36551 0.96572 0.0
C3053 C 0.59054 0.34381 0.95959 0.0
C3054 C 0.56668 0.34941 0.9566 0.0
H3055 H 0.5005 0.3841 0.97547 0.0
H3056 H 0.52562 0.36737 0.97495 0.0
H3057 H 0.54221 0.40905 0.97556 0.0
H3058 H 0.59283 0.41973 0.96846 0.0
H3059 H 0.63461 0.40939 0.97399 0.0
H3060 H 0.66216 0.74711 0.75294 0.0
H3061 H 0.61652 0.74616 0.76057 0.0
H3062 H 0.63141 0.70858 0.78881 0.0
H3063 H 0.67708 0.70974 0.78131 0.0
H3064 H 0.56155 0.69757 0.76893 0.0
H3065 H 0.63014 0.78615 0.79899 0.0
H3066 H 0.64816 0.77913 0.78806 0.0
H3067 H 0.63568 0.75289 0.79891 0.0
C3068 C 0.65549 0.73828 0.76073 0.0
C3069 C 0.6734 0.72864 0.76652 0.0
C3070 C 0.62948 0.73789 0.7651 0.0
C3071 C 0.62097 0.72803 0.77536 0.0
C3072 C 0.63797 0.71707 0.78098 0.0
H3073 H 0.46485 0.70847 0.81279 0.0
H3074 H 0.51406 0.71179 0.80748 0.0
C3075 C 0.66393 0.71746 0.77663 0.0
C3076 C 0.59433 0.7292 0.78017 0.0
H3077 H 0.57503 0.76213 0.79991 0.0
C3078 C 0.56455 0.71173 0.77569 0.0
C3079 C 0.59817 0.74756 0.78905 0.0
C3080 C 0.62978 0.76773 0.794 0.0
C3081 C 0.53854 0.71198 0.77983 0.0
C3082 C 0.54243 0.73069 0.7886 0.0
C3083 C 0.57209 0.74782 0.7932 0.0
C3084 C 0.51598 0.73351 0.79273 0.0
C3085 C 0.50695 0.69195 0.77482 0.0
C3086 C 0.50183 0.74628 0.78649 0.0
C3087 C 0.47398 0.74448 0.7895 0.0
C3088 C 0.45972 0.73012 0.79887 0.0
C3089 C 0.47535 0.71986 0.80557 0.0
C3090 C 0.50333 0.72152 0.8025 0.0
H3091 H 0.5064 0.67313 0.77001 0.0
H3092 H 0.48838 0.6811 0.78072 0.0
H3093 H 0.50152 0.70679 0.76973 0.0
H3094 H 0.51154 0.75628 0.77903 0.0
H3095 H 0.46265 0.75283 0.78421 0.0
H3096 H 0.23568 0.91713 0.77351 0.0
H3097 H 0.24356 0.88045 0.78398 0.0
H3098 H 0.33271 0.91233 0.76952 0.0
H3099 H 0.32562 0.9505 0.75943 0.0
H3100 H 0.24641 0.83298 0.77895 0.0
H3101 H 0.35834 0.9116 0.79844 0.0
H3102 H 0.33697 0.92631 0.79126 0.0
H3103 H 0.36279 0.91627 0.78473 0.0
C3104 C 0.25709 0.91647 0.77261 0.0
C3105 C 0.28003 0.93661 0.76562 0.0
C3106 C 0.26162 0.89552 0.77863 0.0
C3107 C 0.28898 0.89382 0.77772 0.0
C3108 C 0.31186 0.91381 0.77066 0.0
H3109 H 0.30888 0.73574 0.78421 0.0
H3110 H 0.294 0.77458 0.7804 0.0
C3111 C 0.30766 0.93538 0.7648 0.0
C3112 C 0.29233 0.86955 0.78357 0.0
H3113 H 0.344 0.857 0.79757 0.0
C3114 C 0.26761 0.83846 0.78317 0.0
C3115 C 0.31952 0.87647 0.78936 0.0
C3116 C 0.34571 0.90955 0.79108 0.0
C3117 C 0.27 0.81405 0.78784 0.0
C3118 C 0.29837 0.82059 0.79272 0.0
C3119 C 0.32239 0.85183 0.79369 0.0
C3120 C 0.30487 0.79524 0.79566 0.0
C3121 C 0.24211 0.78142 0.78738 0.0
C3122 C 0.31646 0.79398 0.80553 0.0
C3123 C 0.32557 0.77178 0.80772 0.0
C3124 C 0.32336 0.75071 0.80004 0.0
C3125 C 0.31084 0.75154 0.79032 0.0
C3126 C 0.30198 0.77363 0.78814 0.0
H3127 H 0.21998 0.78205 0.78738 0.0
H3128 H 0.24268 0.77005 0.78008 0.0
H3129 H 0.24191 0.76689 0.79398 0.0
H3130 H 0.31922 0.81066 0.81143 0.0
H3131 H 0.33572 0.77217 0.8152 0.0
H3132 H 0.15397 0.37669 0.75756 0.0
H3133 H 0.19059 0.42225 0.76757 0.0
H3134 H 0.11462 0.43249 0.77892 0.0
H3135 H 0.07743 0.38665 0.76885 0.0
H3136 H 0.16623 0.4888 0.77249 0.0
H3137 H 0.20369 0.42514 0.79896 0.0
H3138 H 0.20651 0.41741 0.78561 0.0
H3139 H 0.16885 0.40549 0.79104 0.0
C3140 C 0.14486 0.38854 0.76215 0.0
C3141 C 0.11258 0.37771 0.76243 0.0
C3142 C 0.16591 0.41449 0.76795 0.0
C3143 C 0.15528 0.43024 0.77421 0.0
C3144 C 0.12327 0.42037 0.77424 0.0
H3145 H 0.28146 0.59222 0.8136 0.0
H3146 H 0.23732 0.54056 0.80885 0.0
C3147 C 0.10207 0.39426 0.76843 0.0
C3148 C 0.17799 0.45761 0.78042 0.0
H3149 H 0.23771 0.481 0.798 0.0
C3150 C 0.18144 0.487 0.77821 0.0
C3151 C 0.19766 0.45523 0.78797 0.0
C3152 C 0.19383 0.42406 0.79112 0.0
C3153 C 0.20527 0.51426 0.78288 0.0
C3154 C 0.22618 0.51205 0.78989 0.0
C3155 C 0.22171 0.48257 0.79256 0.0
C3156 C 0.25459 0.54048 0.79358 0.0
C3157 C 0.20876 0.54547 0.77999 0.0
C3158 C 0.27933 0.55668 0.78673 0.0
C3159 C 0.30444 0.58582 0.78942 0.0
C3160 C 0.30539 0.5994 0.79904 0.0
C3161 C 0.2816 0.58219 0.8062 0.0
C3162 C 0.25627 0.55284 0.80347 0.0
H3163 H 0.18754 0.54288 0.77604 0.0
H3164 H 0.21365 0.56027 0.78696 0.0
H3165 H 0.22882 0.55787 0.77469 0.0
H3166 H 0.27853 0.54737 0.7791 0.0
H3167 H 0.32247 0.59841 0.78376 0.0
H3168 H 0.38585 0.00725 0.06866 0.0
H3169 H 0.37731 0.96345 0.05751 0.0
H3170 H 0.43593 0.94466 0.07767 0.0
H3171 H 0.44479 0.98818 0.08869 0.0
H3172 H 0.45307 0.95108 0.05679 0.0
H3173 H 0.32593 0.86792 0.06175 0.0
H3174 H 0.33741 0.90747 0.05817 0.0
H3175 H 0.34805 0.89964 0.07066 0.0
C3176 C 0.39632 0.99331 0.07082 0.0
C3177 C 0.41609 0.00131 0.07955 0.0
C3178 C 0.39148 0.96833 0.06444 0.0
C3179 C 0.40605 0.9508 0.06675 0.0
C3180 C 0.42463 0.95797 0.07569 0.0
H3181 H 0.42435 0.79637 0.05481 0.0
H3182 H 0.43124 0.84786 0.05842 0.0
C3183 C 0.42959 0.98286 0.08201 0.0
C3184 C 0.40364 0.92594 0.05973 0.0
H3185 H 0.35389 0.85126 0.05157 0.0
C3186 C 0.43128 0.92943 0.05552 0.0
C3187 C 0.37518 0.89783 0.05797 0.0
C3188 C 0.34489 0.89269 0.0624 0.0
C3189 C 0.43149 0.90503 0.05008 0.0
C3190 C 0.4034 0.87626 0.04887 0.0
C3191 C 0.37541 0.8734 0.05249 0.0
C3192 C 0.40333 0.84762 0.0454 0.0
C3193 C 0.46198 0.90986 0.04595 0.0
C3194 C 0.38597 0.83063 0.03671 0.0
C3195 C 0.38239 0.80118 0.03452 0.0
C3196 C 0.39551 0.78812 0.04117 0.0
C3197 C 0.41414 0.80594 0.04953 0.0
C3198 C 0.4181 0.8354 0.0516 0.0
H3199 H 0.4788 0.93504 0.0446 0.0
H3200 H 0.47258 0.90109 0.05169 0.0
H3201 H 0.45834 0.89686 0.03862 0.0
H3202 H 0.37423 0.83959 0.03186 0.0
H3203 H 0.36754 0.78773 0.02812 0.0
H3204 H 0.04759 0.39932 0.06473 0.0
H3205 H 0.09472 0.4433 0.05761 0.0
H3206 H 0.10446 0.49786 0.08474 0.0
H3207 H 0.05734 0.45367 0.092 0.0
H3208 H 0.10256 0.50154 0.05291 0.0
H3209 H 0.19246 0.51206 0.08115 0.0
H3210 H 0.15417 0.4777 0.08033 0.0
H3211 H 0.15962 0.51205 0.08692 0.0
C3212 C 0.06006 0.42045 0.0693 0.0
C3213 C 0.04875 0.42296 0.07896 0.0
C3214 C 0.08693 0.44564 0.06518 0.0
C3215 C 0.1032 0.47384 0.07064 0.0
C3216 C 0.09256 0.47615 0.08045 0.0
H3217 H 0.26325 0.65474 0.0594 0.0
H3218 H 0.21362 0.61105 0.0651 0.0
C3219 C 0.06564 0.45087 0.0846 0.0
C3220 C 0.13026 0.50125 0.06582 0.0
H3221 H 0.20787 0.55351 0.06911 0.0
C3222 C 0.12565 0.51285 0.05642 0.0
C3223 C 0.16036 0.51589 0.07038 0.0
C3224 C 0.16713 0.50366 0.0802 0.0
C3225 C 0.15016 0.53918 0.0516 0.0
C3226 C 0.18015 0.55404 0.05625 0.0
C3227 C 0.1848 0.54221 0.06558 0.0
C3228 C 0.20716 0.58223 0.05174 0.0
C3229 C 0.14361 0.55136 0.04174 0.0
C3230 C 0.21946 0.58111 0.04211 0.0
C3231 C 0.24786 0.60636 0.03876 0.0
C3232 C 0.26448 0.63285 0.04508 0.0
C3233 C 0.25104 0.63459 0.05438 0.0
C3234 C 0.22272 0.60959 0.05767 0.0
H3235 H 0.11822 0.5421 0.04051 0.0
H3236 H 0.15575 0.57732 0.04177 0.0
H3237 H 0.15239 0.54398 0.0351 0.0
H3238 H 0.20809 0.56007 0.03747 0.0
H3239 H 0.25785 0.60415 0.03163 0.0
H3240 H 0.65386 0.66613 0.06116 0.0
H3241 H 0.61029 0.67039 0.05394 0.0
H3242 H 0.56215 0.63998 0.08296 0.0
H3243 H 0.60586 0.63605 0.0903 0.0
H3244 H 0.54938 0.6226 0.05152 0.0
H3245 H 0.55406 0.7161 0.07624 0.0
H3246 H 0.58595 0.70831 0.07556 0.0
H3247 H 0.5527 0.6844 0.0835 0.0
C3248 C 0.63428 0.66092 0.06609 0.0
C3249 C 0.63344 0.6509 0.07634 0.0
C3250 C 0.60929 0.6632 0.06191 0.0
C3251 C 0.583 0.65571 0.06791 0.0
C3252 C 0.58241 0.64643 0.07823 0.0
H3253 H 0.40326 0.63911 0.06034 0.0
H3254 H 0.44827 0.63409 0.06523 0.0
C3255 C 0.60743 0.64417 0.08242 0.0
C3256 C 0.5556 0.65614 0.06323 0.0
H3257 H 0.50785 0.68688 0.06614 0.0
C3258 C 0.54043 0.63685 0.05466 0.0
C3259 C 0.54402 0.67485 0.06728 0.0
C3260 C 0.56019 0.69732 0.07608 0.0
C3261 C 0.51335 0.63494 0.05028 0.0
C3262 C 0.50134 0.65303 0.05452 0.0
C3263 C 0.51693 0.67282 0.06294 0.0
C3264 C 0.47203 0.65122 0.05069 0.0
C3265 C 0.49722 0.61288 0.04138 0.0
C3266 C 0.46979 0.66139 0.04071 0.0
C3267 C 0.44375 0.66406 0.03784 0.0
C3268 C 0.41982 0.65689 0.04496 0.0
C3269 C 0.42136 0.64491 0.05469 0.0
C3270 C 0.44714 0.64212 0.05752 0.0
H3271 H 0.50563 0.596 0.0404 0.0
H3272 H 0.47155 0.59963 0.04252 0.0
H3273 H 0.50191 0.62657 0.03414 0.0
H3274 H 0.4889 0.66894 0.03535 0.0
H3275 H 0.44349 0.67383 0.03035 0.0
H3276 H 0.05801 0.59684 0.59041 0.0
H3277 H 0.10382 0.60741 0.58041 0.0
H3278 H 0.0926 0.67347 0.56162 0.0
H3279 H 0.0465 0.66316 0.57167 0.0
H3280 H 0.10098 0.62247 0.55083 0.0
H3281 H 0.19086 0.69275 0.58046 0.0
H3282 H 0.15761 0.65755 0.5851 0.0
H3283 H 0.15253 0.68884 0.58023 0.0
C3284 C 0.06535 0.61385 0.58422 0.0
C3285 C 0.04857 0.62922 0.58187 0.0
C3286 C 0.09155 0.61983 0.57851 0.0
C3287 C 0.10153 0.64117 0.57028 0.0
C3288 C 0.08519 0.65689 0.56795 0.0
H3289 H 0.25894 0.6819 0.52911 0.0
H3290 H 0.20885 0.67533 0.53493 0.0
C3291 C 0.05904 0.65116 0.57375 0.0
C3292 C 0.12894 0.6465 0.56417 0.0
H3293 H 0.20698 0.67324 0.56654 0.0
C3294 C 0.1243 0.63396 0.55416 0.0
C3295 C 0.15922 0.66151 0.56856 0.0
C3296 C 0.16558 0.6762 0.57915 0.0
C3297 C 0.14904 0.63466 0.54864 0.0
C3298 C 0.17911 0.64859 0.55323 0.0
C3299 C 0.18386 0.6623 0.56306 0.0
C3300 C 0.20584 0.64779 0.54841 0.0
C3301 C 0.14259 0.61927 0.53818 0.0
C3302 C 0.22024 0.63368 0.55383 0.0
C3303 C 0.24877 0.63764 0.55059 0.0
C3304 C 0.26349 0.65563 0.5418 0.0
C3305 C 0.24791 0.6676 0.53585 0.0
C3306 C 0.21933 0.66392 0.53919 0.0
H3307 H 0.11717 0.60449 0.53658 0.0
H3308 H 0.15275 0.63759 0.53212 0.0
H3309 H 0.15366 0.60458 0.53757 0.0
H3310 H 0.21021 0.62098 0.56092 0.0
H3311 H 0.26022 0.62808 0.55531 0.0
H3312 H 0.37911 0.40202 0.56938 0.0
H3313 H 0.37125 0.4393 0.55894 0.0
H3314 H 0.44087 0.51548 0.57724 0.0
H3315 H 0.44899 0.47879 0.58759 0.0
H3316 H 0.35539 0.48556 0.5639 0.0
H3317 H 0.47431 0.53948 0.54774 0.0
H3318 H 0.45634 0.50237 0.5544 0.0
H3319 H 0.47446 0.5384 0.56159 0.0
C3320 C 0.39234 0.42666 0.57129 0.0
C3321 C 0.41494 0.4374 0.57926 0.0
C3322 C 0.38797 0.44794 0.56527 0.0
C3323 C 0.40617 0.48025 0.56712 0.0
C3324 C 0.42724 0.49075 0.57547 0.0
H3325 H 0.4206 0.65279 0.55507 0.0
H3326 H 0.42622 0.60772 0.55948 0.0
C3327 C 0.43167 0.46965 0.58144 0.0
C3328 C 0.40377 0.50338 0.56033 0.0
H3329 H 0.44844 0.56963 0.54624 0.0
C3330 C 0.3755 0.50354 0.55985 0.0
C3331 C 0.42999 0.52671 0.55495 0.0
C3332 C 0.4604 0.5266 0.55459 0.0
C3333 C 0.3734 0.52762 0.55471 0.0
C3334 C 0.40017 0.55196 0.5499 0.0
C3335 C 0.42796 0.55094 0.54993 0.0
C3336 C 0.40073 0.58062 0.5461 0.0
C3337 C 0.34311 0.52798 0.55494 0.0
C3338 C 0.38576 0.58085 0.53684 0.0
C3339 C 0.38294 0.60695 0.53419 0.0
C3340 C 0.39467 0.63285 0.54087 0.0
C3341 C 0.41132 0.63317 0.54978 0.0
C3342 C 0.41448 0.6074 0.55233 0.0
H3343 H 0.3247 0.50785 0.5593 0.0
H3344 H 0.34699 0.55 0.55855 0.0
H3345 H 0.3346 0.52729 0.54693 0.0
H3346 H 0.37513 0.56039 0.53191 0.0
H3347 H 0.3697 0.60593 0.52734 0.0
H3348 H 0.60041 0.99229 0.58944 0.0
H3349 H 0.5561 0.94636 0.58145 0.0
H3350 H 0.61028 0.96045 0.55401 0.0
H3351 H 0.6546 0.00589 0.56196 0.0
H3352 H 0.5255 0.94699 0.56312 0.0
H3353 H 0.57345 0.86718 0.5594 0.0
H3354 H 0.5909 0.90095 0.56777 0.0
H3355 H 0.59779 0.90548 0.55409 0.0
C3356 C 0.6031 0.98518 0.5818 0.0
C3357 C 0.6311 0.00269 0.57636 0.0
C3358 C 0.5777 0.95906 0.57721 0.0
C3359 C 0.57992 0.94982 0.56715 0.0
C3360 C 0.60814 0.96675 0.56184 0.0
H3361 H 0.44414 0.79491 0.52833 0.0
H3362 H 0.48871 0.8458 0.53338 0.0
C3363 C 0.63347 0.99282 0.5664 0.0
C3364 C 0.55225 0.92365 0.56197 0.0
H3365 H 0.52528 0.85187 0.55092 0.0
C3366 C 0.52544 0.92617 0.56047 0.0
C3367 C 0.5523 0.89666 0.55839 0.0
C3368 C 0.58003 0.89216 0.56006 0.0
C3369 C 0.49865 0.90239 0.55553 0.0
C3370 C 0.49848 0.87514 0.55213 0.0
C3371 C 0.52551 0.87289 0.55344 0.0
C3372 C 0.46965 0.84734 0.54819 0.0
C3373 C 0.47079 0.90671 0.55396 0.0
C3374 C 0.44384 0.83177 0.55471 0.0
C3375 C 0.41852 0.80291 0.55185 0.0
C3376 C 0.4184 0.78889 0.54241 0.0
C3377 C 0.44334 0.80533 0.53558 0.0
C3378 C 0.46894 0.83425 0.5385 0.0
H3379 H 0.47777 0.93187 0.55386 0.0
H3380 H 0.45828 0.89576 0.54663 0.0
H3381 H 0.45436 0.89548 0.56044 0.0
H3382 H 0.44402 0.84105 0.56228 0.0
H3383 H 0.39968 0.79076 0.55729 0.0
H3384 H 0.33446 0.36877 0.28242 0.0
H3385 H 0.33515 0.41417 0.29012 0.0
H3386 H 0.29615 0.42833 0.26205 0.0
H3387 H 0.29511 0.38261 0.25429 0.0
H3388 H 0.36325 0.47713 0.28406 0.0
H3389 H 0.23408 0.42096 0.28438 0.0
H3390 H 0.25392 0.39925 0.28217 0.0
H3391 H 0.2502 0.42191 0.27193 0.0
C3392 C 0.32636 0.38173 0.27782 0.0
C3393 C 0.31456 0.37194 0.26774 0.0
C3394 C 0.32671 0.40766 0.28225 0.0
C3395 C 0.31507 0.42424 0.27675 0.0
C3396 C 0.30462 0.41545 0.26652 0.0
H3397 H 0.29535 0.58422 0.28543 0.0
H3398 H 0.29074 0.53439 0.28071 0.0
C3399 C 0.30434 0.38952 0.26205 0.0
C3400 C 0.31348 0.45038 0.28181 0.0
H3401 H 0.26277 0.47474 0.28894 0.0
C3402 C 0.34128 0.47655 0.28521 0.0
C3403 C 0.28475 0.44943 0.28338 0.0
C3404 C 0.25398 0.42128 0.28037 0.0
C3405 C 0.34128 0.50236 0.28975 0.0
C3406 C 0.31259 0.50169 0.29114 0.0
C3407 C 0.28472 0.47518 0.28794 0.0
C3408 C 0.31136 0.52946 0.2949 0.0
C3409 C 0.37213 0.53066 0.29261 0.0
C3410 C 0.32304 0.5426 0.3047 0.0
C3411 C 0.32566 0.57129 0.30745 0.0
C3412 C 0.3166 0.58718 0.30044 0.0
C3413 C 0.30275 0.57269 0.29098 0.0
C3414 C 0.3001 0.54416 0.28826 0.0
H3415 H 0.39218 0.52987 0.28915 0.0
H3416 H 0.37283 0.55249 0.29005 0.0
H3417 H 0.37513 0.53165 0.30113 0.0
H3418 H 0.33126 0.53131 0.31005 0.0
H3419 H 0.33659 0.58189 0.31476 0.0
H3420 H 0.66212 0.9789 0.27983 0.0
H3421 H 0.61652 0.93387 0.28723 0.0
H3422 H 0.60613 0.88041 0.25976 0.0
H3423 H 0.65233 0.92541 0.25234 0.0
H3424 H 0.5554 0.89856 0.2812 0.0
H3425 H 0.61162 0.82561 0.28239 0.0
H3426 H 0.63315 0.86705 0.27977 0.0
H3427 H 0.61013 0.83995 0.26974 0.0
C3428 C 0.64996 0.95771 0.27528 0.0
C3429 C 0.66105 0.95573 0.2655 0.0
C3430 C 0.62388 0.93192 0.27955 0.0
C3431 C 0.60831 0.90346 0.27418 0.0
C3432 C 0.61824 0.90187 0.26417 0.0
H3433 H 0.447 0.72406 0.28412 0.0
H3434 H 0.49648 0.76873 0.27879 0.0
C3435 C 0.64443 0.92774 0.25988 0.0
C3436 C 0.58211 0.87551 0.27918 0.0
H3437 H 0.55795 0.80044 0.28682 0.0
C3438 C 0.55605 0.87718 0.2825 0.0
C3439 C 0.58306 0.84767 0.28096 0.0
C3440 C 0.6111 0.84494 0.27813 0.0
C3441 C 0.53053 0.85151 0.28721 0.0
C3442 C 0.53126 0.8235 0.28883 0.0
C3443 C 0.55749 0.82196 0.28564 0.0
C3444 C 0.50382 0.79475 0.29292 0.0
C3445 C 0.50249 0.85419 0.29009 0.0
C3446 C 0.49218 0.79376 0.30288 0.0
C3447 C 0.46379 0.76796 0.306 0.0
C3448 C 0.44664 0.74288 0.29918 0.0
C3449 C 0.45958 0.74308 0.28953 0.0
C3450 C 0.48788 0.76864 0.28646 0.0
H3451 H 0.50317 0.87509 0.28656 0.0
H3452 H 0.48055 0.83304 0.28761 0.0
H3453 H 0.50189 0.85618 0.2986 0.0
H3454 H 0.50441 0.81344 0.30807 0.0
H3455 H 0.45433 0.76863 0.31344 0.0
H3456 H 0.13964 0.77918 0.25659 0.0
H3457 H 0.17672 0.77036 0.2665 0.0
H3458 H 0.10228 0.70496 0.28605 0.0
H3459 H 0.06474 0.71312 0.27598 0.0
H3460 H 0.19117 0.78327 0.28685 0.0
H3461 H 0.1464 0.6569 0.27957 0.0
H3462 H 0.13376 0.67944 0.27203 0.0
H3463 H 0.11837 0.66605 0.28472 0.0
C3464 C 0.131 0.7625 0.26289 0.0
C3465 C 0.09917 0.7468 0.26547 0.0
C3466 C 0.15228 0.75758 0.26858 0.0
C3467 C 0.14235 0.73694 0.27701 0.0
C3468 C 0.11046 0.72058 0.27947 0.0
H3469 H 0.26596 0.69532 0.31543 0.0
H3470 H 0.22224 0.70417 0.31138 0.0
C3471 C 0.08901 0.72527 0.2737 0.0
C3472 C 0.16586 0.73394 0.28341 0.0
H3473 H 0.18989 0.68271 0.29073 0.0
C3474 C 0.1907 0.7612 0.28776 0.0
C3475 C 0.16516 0.70511 0.2847 0.0
C3476 C 0.13967 0.67522 0.27995 0.0
C3477 C 0.21536 0.7606 0.29302 0.0
C3478 C 0.21524 0.73206 0.29395 0.0
C3479 C 0.18973 0.70453 0.29006 0.0
C3480 C 0.24321 0.73097 0.29753 0.0
C3481 C 0.24186 0.79064 0.29731 0.0
C3482 C 0.26965 0.74377 0.29123 0.0
C3483 C 0.29427 0.7385 0.29346 0.0
C3484 C 0.2931 0.7206 0.30209 0.0
C3485 C 0.2676 0.70955 0.30881 0.0
C3486 C 0.24257 0.71438 0.30647 0.0
H3487 H 0.23491 0.80862 0.29836 0.0
H3488 H 0.25016 0.78648 0.30484 0.0
H3489 H 0.26167 0.80005 0.29185 0.0
H3490 H 0.27046 0.75635 0.28425 0.0
H3491 H 0.31361 0.74718 0.28814 0.0
loop_
_geom_bond_atom_site_label_1
_geom_bond_atom_site_label_2
_geom_bond_distance
_geom_bond_site_symmetry_2
_ccdc_geom_bond_type
Mn0 O5 2.095 . S
Mn0 O15 2.162 1_545 S
Mn0 O16 2.297 . S
Mn0 O24 2.385 1_545 S
Mn0 O25 2.209 . S
Mn0 O26 2.094 1_545 S
Mn1 O6 2.121 . S
Mn1 N8 2.257 . S
Mn1 N17 2.282 . S
Mn1 O25 2.215 . S
Mn1 O27 2.117 . S
C2 O24 1.234 1_545 S
C2 O25 1.283 . S
C3 O15 1.281 . S
C3 O16 1.234 1_565 S
C4 O26 1.240 1_545 S
C4 O27 1.264 . S
O5 Mn0 2.095 . S
O5 C14 1.250 . S
O6 Mn1 2.121 . S
O6 C14 1.258 . S
C7 N8 1.326 . S
C7 C11 1.460 . S
C7 H13 0.929 . S
N8 Mn1 2.257 . S
N8 C7 1.326 . S
N8 C12 1.362 . S
C9 C10 1.258 . S
C9 C12 1.431 . S
C9 C29 1.449 . S
C10 C9 1.258 . S
C10 C11 1.477 . S
C10 H30 0.931 . S
C11 C7 1.460 . S
C11 C10 1.477 . S
C11 H31 0.930 . S
C12 N8 1.362 . S
C12 C9 1.431 . S
C12 C22 1.476 . S
H13 C7 0.929 . S
C14 O5 1.250 . S
C14 O6 1.258 . S
O15 Mn0 2.162 1_565 S
O15 C3 1.281 . S
O16 Mn0 2.297 . S
O16 C3 1.234 1_545 S
N17 Mn1 2.282 . S
N17 C18 1.328 . S
N17 C22 1.318 . S
C18 N17 1.328 . S
C18 C19 1.457 . S
C18 H23 0.929 . S
C19 C18 1.457 . S
C19 C20 1.291 . S
C19 H32 0.931 . S
C20 C19 1.291 . S
C20 C21 1.373 . S
C20 H33 0.929 . S
C21 C20 1.373 . S
C21 C22 1.396 . S
C21 C28 1.403 . S
C22 C12 1.476 . S
C22 N17 1.318 . S
C22 C21 1.396 . S
H23 C18 0.929 . S
O24 Mn0 2.385 1_565 S
O24 C2 1.234 1_565 S
O25 Mn0 2.209 . S
O25 Mn1 2.215 . S
O25 C2 1.283 . S
O26 Mn0 2.094 1_565 S
O26 C4 1.240 1_565 S
O27 Mn1 2.117 . S
O27 C4 1.264 . S
C28 C21 1.403 . S
C28 C29 1.399 . S
C28 H34 0.929 . S
C29 C9 1.449 . S
C29 C28 1.399 . S
C29 H35 0.930 . S
H30 C10 0.931 . S
H31 C11 0.930 . S
H32 C19 0.931 . S
H33 C20 0.929 . S
H34 C28 0.929 . S
H35 C29 0.930 . S
Mn36 O41 2.095 . S
Mn36 O51 2.162 1_455 S
Mn36 O52 2.297 . S
Mn36 O60 2.385 1_455 S
Mn36 O61 2.209 . S
Mn36 O62 2.094 . S
Mn37 O42 2.121 . S
Mn37 N44 2.257 . S
Mn37 N53 2.282 . S
Mn37 O61 2.215 . S
Mn37 O63 2.117 . S
C38 O60 1.234 1_455 S
C38 O61 1.283 . S
C39 O51 1.281 . S
C39 O52 1.236 1_655 S
C40 O62 1.240 . S
C40 O63 1.264 . S
O41 Mn36 2.095 . S
O41 C50 1.250 . S
O42 Mn37 2.121 . S
O42 C50 1.258 . S
C43 N44 1.326 . S
C43 C47 1.460 . S
C43 H49 0.929 . S
N44 Mn37 2.257 . S
N44 C43 1.326 . S
N44 C48 1.362 . S
C45 C46 1.258 . S
C45 C48 1.431 . S
C45 C65 1.449 . S
C46 C45 1.258 . S
C46 C47 1.477 . S
C46 H66 0.931 . S
C47 C43 1.460 . S
C47 C46 1.477 . S
C47 H67 0.930 . S
C48 N44 1.362 . S
C48 C45 1.431 . S
C48 C58 1.476 . S
H49 C43 0.929 . S
C50 O41 1.250 . S
C50 O42 1.258 . S
O51 Mn36 2.162 1_655 S
O51 C39 1.281 . S
O52 Mn36 2.297 . S
O52 C39 1.236 1_455 S
N53 Mn37 2.282 . S
N53 C54 1.328 . S
N53 C58 1.318 . S
C54 N53 1.328 . S
C54 C55 1.457 . S
C54 H59 0.929 . S
C55 C54 1.457 . S
C55 C56 1.291 . S
C55 H68 0.931 . S
C56 C55 1.291 . S
C56 C57 1.373 . S
C56 H69 0.929 . S
C57 C56 1.373 . S
C57 C58 1.396 . S
C57 C64 1.403 . S
C58 C48 1.476 . S
C58 N53 1.318 . S
C58 C57 1.396 . S
H59 C54 0.929 . S
O60 Mn36 2.385 1_655 S
O60 C38 1.234 1_655 S
O61 Mn36 2.209 . S
O61 Mn37 2.215 . S
O61 C38 1.283 . S
O62 Mn36 2.094 . S
O62 C40 1.240 . S
O63 Mn37 2.117 . S
O63 C40 1.264 . S
C64 C57 1.403 . S
C64 C65 1.399 . S
C64 H70 0.929 . S
C65 C45 1.449 . S
C65 C64 1.399 . S
C65 H71 0.930 . S
H66 C46 0.931 . S
H67 C47 0.930 . S
H68 C55 0.931 . S
H69 C56 0.929 . S
H70 C64 0.929 . S
H71 C65 0.930 . S
Mn72 O77 2.095 . S
Mn72 O87 2.162 . S
Mn72 O88 2.297 . S
Mn72 O96 2.385 . S
Mn72 O97 2.209 . S
Mn72 O98 2.094 . S
Mn73 O78 2.121 . S
Mn73 N80 2.257 . S
Mn73 N89 2.282 . S
Mn73 O97 2.215 . S
Mn73 O99 2.117 . S
C74 O96 1.234 . S
C74 O97 1.283 . S
C75 O87 1.281 . S
C75 O88 1.236 . S
C76 O98 1.240 . S
C76 O99 1.264 . S
O77 Mn72 2.095 . S
O77 C86 1.250 . S
O78 Mn73 2.121 . S
O78 C86 1.258 . S
C79 N80 1.326 . S
C79 C83 1.460 . S
C79 H85 0.929 . S
N80 Mn73 2.257 . S
N80 C79 1.326 . S
N80 C84 1.362 . S
C81 C82 1.258 . S
C81 C84 1.431 . S
C81 C101 1.449 . S
C82 C81 1.258 . S
C82 C83 1.477 . S
C82 H102 0.931 . S
C83 C79 1.460 . S
C83 C82 1.477 . S
C83 H103 0.930 . S
C84 N80 1.362 . S
C84 C81 1.431 . S
C84 C94 1.476 . S
H85 C79 0.929 . S
C86 O77 1.250 . S
C86 O78 1.258 . S
O87 Mn72 2.162 . S
O87 C75 1.281 . S
O88 Mn72 2.297 . S
O88 C75 1.236 . S
N89 Mn73 2.282 . S
N89 C90 1.328 . S
N89 C94 1.318 . S
C90 N89 1.328 . S
C90 C91 1.457 . S
C90 H95 0.929 . S
C91 C90 1.457 . S
C91 C92 1.291 . S
C91 H104 0.931 . S
C92 C91 1.291 . S
C92 C93 1.373 . S
C92 H105 0.929 . S
C93 C92 1.373 . S
C93 C94 1.396 . S
C93 C100 1.403 . S
C94 C84 1.476 . S
C94 N89 1.318 . S
C94 C93 1.396 . S
H95 C90 0.929 . S
O96 Mn72 2.385 . S
O96 C74 1.234 . S
O97 Mn72 2.209 . S
O97 Mn73 2.215 . S
O97 C74 1.283 . S
O98 Mn72 2.094 . S
O98 C76 1.240 . S
O99 Mn73 2.117 . S
O99 C76 1.264 . S
C100 C93 1.403 . S
C100 C101 1.399 . S
C100 H106 0.929 . S
C101 C81 1.449 . S
C101 C100 1.399 . S
C101 H107 0.930 . S
H102 C82 0.931 . S
H103 C83 0.930 . S
H104 C91 0.931 . S
H105 C92 0.929 . S
H106 C100 0.929 . S
H107 C101 0.930 . S
Mn108 O113 2.071 1_545 S
Mn108 O123 2.162 . S
Mn108 O124 2.297 . S
Mn108 O132 2.385 . S
Mn108 O133 2.209 1_545 S
Mn108 O134 2.094 . S
Mn109 O114 2.121 . S
Mn109 N116 2.257 . S
Mn109 N125 2.282 . S
Mn109 O133 2.215 . S
Mn109 O135 2.117 . S
C110 O132 1.234 . S
C110 O133 1.283 1_545 S
C111 O123 1.281 . S
C111 O124 1.236 . S
C112 O134 1.240 . S
C112 O135 1.264 1_545 S
O113 Mn108 2.071 1_565 S
O113 C122 1.276 . S
O114 Mn109 2.121 . S
O114 C122 1.258 . S
C115 N116 1.326 . S
C115 C119 1.460 . S
C115 H121 0.929 . S
N116 Mn109 2.257 . S
N116 C115 1.326 . S
N116 C120 1.362 . S
C117 C118 1.258 . S
C117 C120 1.431 . S
C117 C137 1.449 . S
C118 C117 1.258 . S
C118 C119 1.477 . S
C118 H138 0.931 . S
C119 C115 1.460 . S
C119 C118 1.477 . S
C119 H139 0.930 . S
C120 N116 1.362 . S
C120 C117 1.431 . S
C120 C130 1.476 . S
H121 C115 0.929 . S
C122 O113 1.276 . S
C122 O114 1.258 . S
O123 Mn108 2.162 . S
O123 C111 1.281 . S
O124 Mn108 2.297 . S
O124 C111 1.236 . S
N125 Mn109 2.282 . S
N125 C126 1.328 . S
N125 C130 1.318 . S
C126 N125 1.328 . S
C126 C127 1.457 . S
C126 H131 0.929 1_565 S
C127 C126 1.457 . S
C127 C128 1.291 . S
C127 H140 0.931 1_565 S
C128 C127 1.291 . S
C128 C129 1.373 . S
C128 H141 0.929 . S
C129 C128 1.373 . S
C129 C130 1.396 . S
C129 C136 1.403 . S
C130 C120 1.476 . S
C130 N125 1.318 . S
C130 C129 1.396 . S
H131 C126 0.929 1_545 S
O132 Mn108 2.385 . S
O132 C110 1.234 . S
O133 Mn108 2.209 1_565 S
O133 Mn109 2.215 . S
O133 C110 1.283 1_565 S
O134 Mn108 2.094 . S
O134 C112 1.240 . S
O135 Mn109 2.117 . S
O135 C112 1.264 1_565 S
C136 C129 1.403 . S
C136 C137 1.399 . S
C136 H142 0.929 . S
C137 C117 1.449 . S
C137 C136 1.399 . S
C137 H143 0.930 . S
H138 C118 0.931 . S
H139 C119 0.930 . S
H140 C127 0.931 1_545 S
H141 C128 0.929 . S
H142 C136 0.929 . S
H143 C137 0.930 . S
Mn144 O149 2.095 . S
Mn144 O159 2.162 1_455 S
Mn144 O160 2.297 . S
Mn144 O168 2.385 1_455 S
Mn144 O169 2.209 . S
Mn144 O170 2.094 . S
Mn145 O150 2.121 . S
Mn145 N152 2.257 . S
Mn145 N161 2.282 . S
Mn145 O169 2.215 . S
Mn145 O171 2.117 . S
C146 O168 1.234 1_455 S
C146 O169 1.283 . S
C147 O159 1.281 . S
C147 O160 1.236 1_655 S
C148 O170 1.240 . S
C148 O171 1.264 . S
O149 Mn144 2.095 . S
O149 C158 1.250 . S
O150 Mn145 2.121 . S
O150 C158 1.258 . S
C151 N152 1.326 . S
C151 C155 1.460 . S
C151 H157 0.929 . S
N152 Mn145 2.257 . S
N152 C151 1.326 . S
N152 C156 1.362 . S
C153 C154 1.258 . S
C153 C156 1.431 . S
C153 C173 1.449 . S
C154 C153 1.258 . S
C154 C155 1.477 . S
C154 H174 0.931 . S
C155 C151 1.460 . S
C155 C154 1.477 . S
C155 H175 0.930 . S
C156 N152 1.362 . S
C156 C153 1.431 . S
C156 C166 1.476 . S
H157 C151 0.929 . S
C158 O149 1.250 . S
C158 O150 1.258 . S
O159 Mn144 2.162 1_655 S
O159 C147 1.281 . S
O160 Mn144 2.297 . S
O160 C147 1.236 1_455 S
N161 Mn145 2.282 . S
N161 C162 1.328 . S
N161 C166 1.318 . S
C162 N161 1.328 . S
C162 C163 1.457 . S
C162 H167 0.929 . S
C163 C162 1.457 . S
C163 C164 1.291 . S
C163 H176 0.931 . S
C164 C163 1.291 . S
C164 C165 1.373 . S
C164 H177 0.929 . S
C165 C164 1.373 . S
C165 C166 1.396 . S
C165 C172 1.403 . S
C166 C156 1.476 . S
C166 N161 1.318 . S
C166 C165 1.396 . S
H167 C162 0.929 . S
O168 Mn144 2.385 1_655 S
O168 C146 1.234 1_655 S
O169 Mn144 2.209 . S
O169 Mn145 2.215 . S
O169 C146 1.283 . S
O170 Mn144 2.094 . S
O170 C148 1.240 . S
O171 Mn145 2.117 . S
O171 C148 1.264 . S
C172 C165 1.403 . S
C172 C173 1.399 . S
C172 H178 0.929 . S
C173 C153 1.449 . S
C173 C172 1.399 . S
C173 H179 0.930 . S
H174 C154 0.931 . S
H175 C155 0.930 . S
H176 C163 0.931 . S
H177 C164 0.929 . S
H178 C172 0.929 . S
H179 C173 0.930 . S
Mn180 O185 2.095 . S
Mn180 O195 2.162 . S
Mn180 O196 2.297 . S
Mn180 O204 2.385 . S
Mn180 O205 2.209 . S
Mn180 O206 2.094 . S
Mn181 O186 2.121 . S
Mn181 N188 2.257 . S
Mn181 N197 2.282 . S
Mn181 O205 2.215 . S
Mn181 O207 2.117 . S
C182 O204 1.234 . S
C182 O205 1.283 . S
C183 O195 1.281 . S
C183 O196 1.236 . S
C184 O206 1.240 . S
C184 O207 1.264 . S
O185 Mn180 2.095 . S
O185 C194 1.250 . S
O186 Mn181 2.121 . S
O186 C194 1.258 . S
C187 N188 1.326 . S
C187 C191 1.460 . S
C187 H193 0.929 . S
N188 Mn181 2.257 . S
N188 C187 1.326 . S
N188 C192 1.362 . S
C189 C190 1.258 . S
C189 C192 1.431 . S
C189 C209 1.449 . S
C190 C189 1.258 . S
C190 C191 1.477 . S
C190 H210 0.931 . S
C191 C187 1.460 . S
C191 C190 1.477 . S
C191 H211 0.930 . S
C192 N188 1.362 . S
C192 C189 1.431 . S
C192 C202 1.476 . S
H193 C187 0.929 . S
C194 O185 1.250 . S
C194 O186 1.258 . S
O195 Mn180 2.162 . S
O195 C183 1.281 . S
O196 Mn180 2.297 . S
O196 C183 1.236 . S
N197 Mn181 2.282 . S
N197 C198 1.328 . S
N197 C202 1.318 . S
C198 N197 1.328 . S
C198 C199 1.457 . S
C198 H203 0.929 . S
C199 C198 1.457 . S
C199 C200 1.291 . S
C199 H212 0.931 . S
C200 C199 1.291 . S
C200 C201 1.373 . S
C200 H213 0.929 . S
C201 C200 1.373 . S
C201 C202 1.396 . S
C201 C208 1.403 . S
C202 C192 1.476 . S
C202 N197 1.318 . S
C202 C201 1.396 . S
H203 C198 0.929 . S
O204 Mn180 2.385 . S
O204 C182 1.234 . S
O205 Mn180 2.209 . S
O205 Mn181 2.215 . S
O205 C182 1.283 . S
O206 Mn180 2.094 . S
O206 C184 1.240 . S
O207 Mn181 2.117 . S
O207 C184 1.264 . S
C208 C201 1.403 . S
C208 C209 1.399 . S
C208 H214 0.929 . S
C209 C189 1.449 . S
C209 C208 1.399 . S
C209 H215 0.930 . S
H210 C190 0.931 . S
H211 C191 0.930 . S
H212 C199 0.931 . S
H213 C200 0.929 . S
H214 C208 0.929 . S
H215 C209 0.930 . S
Mn216 O221 2.095 . S
Mn216 O231 2.162 . S
Mn216 O232 2.297 . S
Mn216 O240 2.385 . S
Mn216 O241 2.209 . S
Mn216 O242 2.094 . S
Mn217 O222 2.121 . S
Mn217 N224 2.257 . S
Mn217 N233 2.282 . S
Mn217 O241 2.215 . S
Mn217 O243 2.117 . S
C218 O240 1.234 . S
C218 O241 1.283 . S
C219 O231 1.281 . S
C219 O232 1.236 . S
C220 O242 1.240 . S
C220 O243 1.264 . S
O221 Mn216 2.095 . S
O221 C230 1.250 . S
O222 Mn217 2.121 . S
O222 C230 1.258 . S
C223 N224 1.326 . S
C223 C227 1.460 . S
C223 H229 0.929 . S
N224 Mn217 2.257 . S
N224 C223 1.326 . S
N224 C228 1.362 . S
C225 C226 1.258 . S
C225 C228 1.431 . S
C225 C245 1.449 . S
C226 C225 1.258 . S
C226 C227 1.477 . S
C226 H246 0.931 . S
C227 C223 1.460 . S
C227 C226 1.477 . S
C227 H247 0.930 . S
C228 N224 1.362 . S
C228 C225 1.431 . S
C228 C238 1.476 . S
H229 C223 0.929 . S
C230 O221 1.250 . S
C230 O222 1.258 . S
O231 Mn216 2.162 . S
O231 C219 1.281 . S
O232 Mn216 2.297 . S
O232 C219 1.236 . S
N233 Mn217 2.282 . S
N233 C234 1.328 . S
N233 C238 1.318 . S
C234 N233 1.328 . S
C234 C235 1.457 . S
C234 H239 0.929 . S
C235 C234 1.457 . S
C235 C236 1.291 . S
C235 H248 0.931 . S
C236 C235 1.291 . S
C236 C237 1.373 . S
C236 H249 0.929 . S
C237 C236 1.373 . S
C237 C238 1.396 . S
C237 C244 1.403 . S
C238 C228 1.476 . S
C238 N233 1.318 . S
C238 C237 1.396 . S
H239 C234 0.929 . S
O240 Mn216 2.385 . S
O240 C218 1.234 . S
O241 Mn216 2.209 . S
O241 Mn217 2.215 . S
O241 C218 1.283 . S
O242 Mn216 2.094 . S
O242 C220 1.240 . S
O243 Mn217 2.117 . S
O243 C220 1.264 . S
C244 C237 1.403 . S
C244 C245 1.399 . S
C244 H250 0.929 . S
C245 C225 1.449 . S
C245 C244 1.399 . S
C245 H251 0.930 . S
H246 C226 0.931 . S
H247 C227 0.930 . S
H248 C235 0.931 . S
H249 C236 0.929 . S
H250 C244 0.929 . S
H251 C245 0.930 . S
Mn252 O257 2.095 . S
Mn252 O267 2.162 . S
Mn252 O268 2.297 . S
Mn252 O276 2.385 . S
Mn252 O277 2.209 . S
Mn252 O278 2.094 . S
Mn253 O258 2.121 . S
Mn253 N260 2.257 . S
Mn253 N269 2.282 . S
Mn253 O277 2.215 . S
Mn253 O279 2.117 . S
C254 O276 1.234 . S
C254 O277 1.283 . S
C255 O267 1.281 . S
C255 O268 1.236 . S
C256 O278 1.240 . S
C256 O279 1.264 . S
O257 Mn252 2.095 . S
O257 C266 1.250 . S
O258 Mn253 2.121 . S
O258 C266 1.258 . S
C259 N260 1.326 . S
C259 C263 1.460 . S
C259 H265 0.929 . S
N260 Mn253 2.257 . S
N260 C259 1.326 . S
N260 C264 1.362 . S
C261 C262 1.258 . S
C261 C264 1.431 . S
C261 C281 1.449 . S
C262 C261 1.258 . S
C262 C263 1.477 . S
C262 H282 0.931 . S
C263 C259 1.460 . S
C263 C262 1.477 . S
C263 H283 0.930 . S
C264 N260 1.362 . S
C264 C261 1.431 . S
C264 C274 1.476 . S
H265 C259 0.929 . S
C266 O257 1.250 . S
C266 O258 1.258 . S
O267 Mn252 2.162 . S
O267 C255 1.281 . S
O268 Mn252 2.297 . S
O268 C255 1.236 . S
N269 Mn253 2.282 . S
N269 C270 1.328 . S
N269 C274 1.318 . S
C270 N269 1.328 . S
C270 C271 1.457 . S
C270 H275 0.929 . S
C271 C270 1.457 . S
C271 C272 1.291 . S
C271 H284 0.931 . S
C272 C271 1.291 . S
C272 C273 1.373 . S
C272 H285 0.929 . S
C273 C272 1.373 . S
C273 C274 1.396 . S
C273 C280 1.403 . S
C274 C264 1.476 . S
C274 N269 1.318 . S
C274 C273 1.396 . S
H275 C270 0.929 . S
O276 Mn252 2.385 . S
O276 C254 1.234 . S
O277 Mn252 2.209 . S
O277 Mn253 2.215 . S
O277 C254 1.283 . S
O278 Mn252 2.094 . S
O278 C256 1.240 . S
O279 Mn253 2.117 . S
O279 C256 1.264 . S
C280 C273 1.403 . S
C280 C281 1.399 . S
C280 H286 0.929 . S
C281 C261 1.449 . S
C281 C280 1.399 . S
C281 H287 0.930 . S
H282 C262 0.931 . S
H283 C263 0.930 . S
H284 C271 0.931 . S
H285 C272 0.929 . S
H286 C280 0.929 . S
H287 C281 0.930 . S
Mn288 O293 2.095 1_655 S
Mn288 O303 2.162 . S
Mn288 O304 2.297 . S
Mn288 O312 2.385 . S
Mn288 O313 2.209 . S
Mn288 O314 2.094 . S
Mn289 O294 2.121 1_655 S
Mn289 N296 2.257 . S
Mn289 N305 2.282 . S
Mn289 O313 2.215 . S
Mn289 O315 2.117 . S
C290 O312 1.234 . S
C290 O313 1.283 . S
C291 O303 1.281 . S
C291 O304 1.236 . S
C292 O314 1.240 . S
C292 O315 1.264 . S
O293 Mn288 2.095 1_455 S
O293 C302 1.250 . S
O294 Mn289 2.121 1_455 S
O294 C302 1.258 . S
C295 N296 1.326 1_455 S
C295 C299 1.460 . S
C295 H301 0.929 . S
N296 Mn289 2.257 . S
N296 C295 1.326 1_655 S
N296 C300 1.362 . S
C297 C298 1.258 . S
C297 C300 1.431 . S
C297 C317 1.449 . S
C298 C297 1.258 . S
C298 C299 1.477 1_655 S
C298 H318 0.931 . S
C299 C295 1.460 . S
C299 C298 1.477 1_455 S
C299 H319 0.930 . S
C300 N296 1.362 . S
C300 C297 1.431 . S
C300 C310 1.476 . S
H301 C295 0.929 . S
C302 O293 1.250 . S
C302 O294 1.258 . S
O303 Mn288 2.162 . S
O303 C291 1.281 . S
O304 Mn288 2.297 . S
O304 C291 1.236 . S
N305 Mn289 2.282 . S
N305 C306 1.328 . S
N305 C310 1.318 . S
C306 N305 1.328 . S
C306 C307 1.457 . S
C306 H311 0.929 . S
C307 C306 1.457 . S
C307 C308 1.291 . S
C307 H320 0.931 . S
C308 C307 1.291 . S
C308 C309 1.373 . S
C308 H321 0.929 . S
C309 C308 1.373 . S
C309 C310 1.396 . S
C309 C316 1.403 . S
C310 C300 1.476 . S
C310 N305 1.318 . S
C310 C309 1.396 . S
H311 C306 0.929 . S
O312 Mn288 2.385 . S
O312 C290 1.234 . S
O313 Mn288 2.209 . S
O313 Mn289 2.215 . S
O313 C290 1.283 . S
O314 Mn288 2.094 . S
O314 C292 1.240 . S
O315 Mn289 2.117 . S
O315 C292 1.264 . S
C316 C309 1.403 . S
C316 C317 1.399 . S
C316 H322 0.929 . S
C317 C297 1.449 . S
C317 C316 1.399 . S
C317 H323 0.930 . S
H318 C298 0.931 . S
H319 C299 0.930 . S
H320 C307 0.931 . S
H321 C308 0.929 . S
H322 C316 0.929 . S
H323 C317 0.930 . S
Mn324 O329 2.095 . S
Mn324 O339 2.162 1_655 S
Mn324 O340 2.297 1_655 S
Mn324 O348 2.385 . S
Mn324 O349 2.209 . S
Mn324 O350 2.094 . S
Mn325 O330 2.121 . S
Mn325 N332 2.257 . S
Mn325 N341 2.282 . S
Mn325 O349 2.215 . S
Mn325 O351 2.117 . S
C326 O348 1.234 . S
C326 O349 1.283 . S
C327 O339 1.281 . S
C327 O340 1.236 . S
C328 O350 1.240 . S
C328 O351 1.264 . S
O329 Mn324 2.095 . S
O329 C338 1.250 . S
O330 Mn325 2.121 . S
O330 C338 1.258 . S
C331 N332 1.326 . S
C331 C335 1.460 . S
C331 H337 0.929 . S
N332 Mn325 2.257 . S
N332 C331 1.326 . S
N332 C336 1.362 . S
C333 C334 1.258 . S
C333 C336 1.431 . S
C333 C353 1.449 . S
C334 C333 1.258 . S
C334 C335 1.477 . S
C334 H354 0.931 . S
C335 C331 1.460 . S
C335 C334 1.477 . S
C335 H355 0.930 . S
C336 N332 1.362 . S
C336 C333 1.431 . S
C336 C346 1.476 . S
H337 C331 0.929 . S
C338 O329 1.250 . S
C338 O330 1.258 . S
O339 Mn324 2.162 1_455 S
O339 C327 1.281 . S
O340 Mn324 2.297 1_455 S
O340 C327 1.236 . S
N341 Mn325 2.282 . S
N341 C342 1.328 . S
N341 C346 1.318 . S
C342 N341 1.328 . S
C342 C343 1.457 . S
C342 H347 0.929 . S
C343 C342 1.457 . S
C343 C344 1.291 . S
C343 H356 0.931 . S
C344 C343 1.291 . S
C344 C345 1.373 . S
C344 H357 0.929 . S
C345 C344 1.373 . S
C345 C346 1.396 . S
C345 C352 1.403 . S
C346 C336 1.476 . S
C346 N341 1.318 . S
C346 C345 1.396 . S
H347 C342 0.929 . S
O348 Mn324 2.385 . S
O348 C326 1.234 . S
O349 Mn324 2.209 . S
O349 Mn325 2.215 . S
O349 C326 1.283 . S
O350 Mn324 2.094 . S
O350 C328 1.240 . S
O351 Mn325 2.117 . S
O351 C328 1.264 . S
C352 C345 1.403 . S
C352 C353 1.399 . S
C352 H358 0.929 . S
C353 C333 1.449 . S
C353 C352 1.399 . S
C353 H359 0.930 . S
H354 C334 0.931 . S
H355 C335 0.930 . S
H356 C343 0.931 . S
H357 C344 0.929 . S
H358 C352 0.929 . S
H359 C353 0.930 . S
Mn360 O365 2.095 . S
Mn360 O375 2.162 . S
Mn360 O376 2.297 . S
Mn360 O384 2.385 . S
Mn360 O385 2.209 . S
Mn360 O386 2.094 . S
Mn361 O366 2.121 . S
Mn361 N368 2.257 . S
Mn361 N377 2.282 . S
Mn361 O385 2.215 . S
Mn361 O387 2.117 . S
C362 O384 1.234 . S
C362 O385 1.283 . S
C363 O375 1.281 . S
C363 O376 1.236 . S
C364 O386 1.240 . S
C364 O387 1.264 . S
O365 Mn360 2.095 . S
O365 C374 1.250 . S
O366 Mn361 2.121 . S
O366 C374 1.258 . S
C367 N368 1.326 . S
C367 C371 1.460 . S
C367 H373 0.929 . S
N368 Mn361 2.257 . S
N368 C367 1.326 . S
N368 C372 1.362 . S
C369 C370 1.258 . S
C369 C372 1.431 . S
C369 C389 1.449 . S
C370 C369 1.258 . S
C370 C371 1.477 . S
C370 H390 0.931 . S
C371 C367 1.460 . S
C371 C370 1.477 . S
C371 H391 0.930 . S
C372 N368 1.362 . S
C372 C369 1.431 . S
C372 C382 1.476 . S
H373 C367 0.929 . S
C374 O365 1.250 . S
C374 O366 1.258 . S
O375 Mn360 2.162 . S
O375 C363 1.281 . S
O376 Mn360 2.297 . S
O376 C363 1.236 . S
N377 Mn361 2.282 . S
N377 C378 1.328 . S
N377 C382 1.318 . S
C378 N377 1.328 . S
C378 C379 1.457 . S
C378 H383 0.929 . S
C379 C378 1.457 . S
C379 C380 1.291 . S
C379 H392 0.931 . S
C380 C379 1.291 . S
C380 C381 1.373 . S
C380 H393 0.929 . S
C381 C380 1.373 . S
C381 C382 1.396 . S
C381 C388 1.403 . S
C382 C372 1.476 . S
C382 N377 1.318 . S
C382 C381 1.396 . S
H383 C378 0.929 . S
O384 Mn360 2.385 . S
O384 C362 1.234 . S
O385 Mn360 2.209 . S
O385 Mn361 2.215 . S
O385 C362 1.283 . S
O386 Mn360 2.094 . S
O386 C364 1.240 . S
O387 Mn361 2.117 . S
O387 C364 1.264 . S
C388 C381 1.403 . S
C388 C389 1.399 . S
C388 H394 0.929 . S
C389 C369 1.449 . S
C389 C388 1.399 . S
C389 H395 0.930 . S
H390 C370 0.931 . S
H391 C371 0.930 . S
H392 C379 0.931 . S
H393 C380 0.929 . S
H394 C388 0.929 . S
H395 C389 0.930 . S
Mn396 O401 2.095 . S
Mn396 O411 2.162 . S
Mn396 O412 2.297 . S
Mn396 O420 2.385 . S
Mn396 O421 2.209 . S
Mn396 O422 2.094 . S
Mn397 O402 2.121 . S
Mn397 N404 2.257 . S
Mn397 N413 2.282 . S
Mn397 O421 2.215 . S
Mn397 O423 2.117 . S
C398 O420 1.234 . S
C398 O421 1.283 . S
C399 O411 1.281 . S
C399 O412 1.236 . S
C400 O422 1.240 . S
C400 O423 1.264 . S
O401 Mn396 2.095 . S
O401 C410 1.250 . S
O402 Mn397 2.121 . S
O402 C410 1.258 . S
C403 N404 1.326 . S
C403 C407 1.460 . S
C403 H409 0.929 . S
N404 Mn397 2.257 . S
N404 C403 1.326 . S
N404 C408 1.362 . S
C405 C406 1.258 . S
C405 C408 1.431 . S
C405 C425 1.449 . S
C406 C405 1.258 . S
C406 C407 1.477 . S
C406 H426 0.931 . S
C407 C403 1.460 . S
C407 C406 1.477 . S
C407 H427 0.930 . S
C408 N404 1.362 . S
C408 C405 1.431 . S
C408 C418 1.476 . S
H409 C403 0.929 . S
C410 O401 1.250 . S
C410 O402 1.258 . S
O411 Mn396 2.162 . S
O411 C399 1.281 . S
O412 Mn396 2.297 . S
O412 C399 1.236 . S
N413 Mn397 2.282 . S
N413 C414 1.328 . S
N413 C418 1.318 . S
C414 N413 1.328 . S
C414 C415 1.457 . S
C414 H419 0.929 . S
C415 C414 1.457 . S
C415 C416 1.291 . S
C415 H428 0.931 . S
C416 C415 1.291 . S
C416 C417 1.373 . S
C416 H429 0.929 . S
C417 C416 1.373 . S
C417 C418 1.396 . S
C417 C424 1.403 . S
C418 C408 1.476 . S
C418 N413 1.318 . S
C418 C417 1.396 . S
H419 C414 0.929 . S
O420 Mn396 2.385 . S
O420 C398 1.234 . S
O421 Mn396 2.209 . S
O421 Mn397 2.215 . S
O421 C398 1.283 . S
O422 Mn396 2.094 . S
O422 C400 1.240 . S
O423 Mn397 2.117 . S
O423 C400 1.264 . S
C424 C417 1.403 . S
C424 C425 1.399 . S
C424 H430 0.929 . S
C425 C405 1.449 . S
C425 C424 1.399 . S
C425 H431 0.930 . S
H426 C406 0.931 . S
H427 C407 0.930 . S
H428 C415 0.931 . S
H429 C416 0.929 . S
H430 C424 0.929 . S
H431 C425 0.930 . S
Mn432 O437 2.095 . S
Mn432 O447 2.162 . S
Mn432 O448 2.297 . S
Mn432 O456 2.385 . S
Mn432 O457 2.209 . S
Mn432 O458 2.094 . S
Mn433 O438 2.121 . S
Mn433 N440 2.257 . S
Mn433 N449 2.282 . S
Mn433 O457 2.215 . S
Mn433 O459 2.117 . S
C434 O456 1.234 . S
C434 O457 1.283 . S
C435 O447 1.281 . S
C435 O448 1.236 . S
C436 O458 1.240 . S
C436 O459 1.264 . S
O437 Mn432 2.095 . S
O437 C446 1.250 . S
O438 Mn433 2.121 . S
O438 C446 1.258 . S
C439 N440 1.326 . S
C439 C443 1.460 . S
C439 H445 0.929 . S
N440 Mn433 2.257 . S
N440 C439 1.326 . S
N440 C444 1.362 . S
C441 C442 1.258 . S
C441 C444 1.431 . S
C441 C461 1.449 . S
C442 C441 1.258 . S
C442 C443 1.477 . S
C442 H462 0.931 . S
C443 C439 1.460 . S
C443 C442 1.477 . S
C443 H463 0.930 . S
C444 N440 1.362 . S
C444 C441 1.431 . S
C444 C454 1.476 . S
H445 C439 0.929 . S
C446 O437 1.250 . S
C446 O438 1.258 . S
O447 Mn432 2.162 . S
O447 C435 1.281 . S
O448 Mn432 2.297 . S
O448 C435 1.236 . S
N449 Mn433 2.282 . S
N449 C450 1.328 . S
N449 C454 1.318 . S
C450 N449 1.328 . S
C450 C451 1.457 . S
C450 H455 0.929 . S
C451 C450 1.457 . S
C451 C452 1.291 . S
C451 H464 0.931 . S
C452 C451 1.291 . S
C452 C453 1.373 . S
C452 H465 0.929 . S
C453 C452 1.373 . S
C453 C454 1.396 . S
C453 C460 1.403 . S
C454 C444 1.476 . S
C454 N449 1.318 . S
C454 C453 1.396 . S
H455 C450 0.929 . S
O456 Mn432 2.385 . S
O456 C434 1.234 . S
O457 Mn432 2.209 . S
O457 Mn433 2.215 . S
O457 C434 1.283 . S
O458 Mn432 2.094 . S
O458 C436 1.240 . S
O459 Mn433 2.117 . S
O459 C436 1.264 . S
C460 C453 1.403 . S
C460 C461 1.399 . S
C460 H466 0.929 . S
C461 C441 1.449 . S
C461 C460 1.399 . S
C461 H467 0.930 . S
H462 C442 0.931 . S
H463 C443 0.930 . S
H464 C451 0.931 . S
H465 C452 0.929 . S
H466 C460 0.929 . S
H467 C461 0.930 . S
Mn468 O473 2.095 . S
Mn468 O483 2.162 . S
Mn468 O484 2.297 . S
Mn468 O492 2.385 . S
Mn468 O493 2.209 . S
Mn468 O494 2.094 . S
Mn469 O474 2.121 . S
Mn469 N476 2.257 . S
Mn469 N485 2.282 . S
Mn469 O493 2.215 . S
Mn469 O495 2.117 . S
C470 O492 1.234 . S
C470 O493 1.283 . S
C471 O483 1.281 . S
C471 O484 1.236 . S
C472 O494 1.240 . S
C472 O495 1.264 . S
O473 Mn468 2.095 . S
O473 C482 1.250 . S
O474 Mn469 2.121 . S
O474 C482 1.258 . S
C475 N476 1.326 . S
C475 C479 1.460 . S
C475 H481 0.929 . S
N476 Mn469 2.257 . S
N476 C475 1.326 . S
N476 C480 1.362 . S
C477 C478 1.258 . S
C477 C480 1.431 . S
C477 C497 1.449 . S
C478 C477 1.258 . S
C478 C479 1.477 . S
C478 H498 0.931 . S
C479 C475 1.460 . S
C479 C478 1.477 . S
C479 H499 0.930 . S
C480 N476 1.362 . S
C480 C477 1.431 . S
C480 C490 1.476 . S
H481 C475 0.929 . S
C482 O473 1.250 . S
C482 O474 1.258 . S
O483 Mn468 2.162 . S
O483 C471 1.281 . S
O484 Mn468 2.297 . S
O484 C471 1.236 . S
N485 Mn469 2.282 . S
N485 C486 1.328 . S
N485 C490 1.318 . S
C486 N485 1.328 . S
C486 C487 1.457 . S
C486 H491 0.929 . S
C487 C486 1.457 . S
C487 C488 1.291 . S
C487 H500 0.931 . S
C488 C487 1.291 . S
C488 C489 1.373 . S
C488 H501 0.929 . S
C489 C488 1.373 . S
C489 C490 1.396 . S
C489 C496 1.403 . S
C490 C480 1.476 . S
C490 N485 1.318 . S
C490 C489 1.396 . S
H491 C486 0.929 . S
O492 Mn468 2.385 . S
O492 C470 1.234 . S
O493 Mn468 2.209 . S
O493 Mn469 2.215 . S
O493 C470 1.283 . S
O494 Mn468 2.094 . S
O494 C472 1.240 . S
O495 Mn469 2.117 . S
O495 C472 1.264 . S
C496 C489 1.403 . S
C496 C497 1.399 . S
C496 H502 0.929 . S
C497 C477 1.449 . S
C497 C496 1.399 . S
C497 H503 0.930 . S
H498 C478 0.931 . S
H499 C479 0.930 . S
H500 C487 0.931 . S
H501 C488 0.929 . S
H502 C496 0.929 . S
H503 C497 0.930 . S
Mn504 O509 2.095 . S
Mn504 O519 2.162 1_565 S
Mn504 O520 2.297 1_565 S
Mn504 O528 2.385 . S
Mn504 O529 2.209 . S
Mn504 O530 2.094 . S
Mn505 O510 2.121 . S
Mn505 N512 2.257 . S
Mn505 N521 2.282 . S
Mn505 O529 2.215 . S
Mn505 O531 2.117 . S
C506 O528 1.234 . S
C506 O529 1.283 . S
C507 O519 1.281 . S
C507 O520 1.236 . S
C508 O530 1.240 . S
C508 O531 1.264 . S
O509 Mn504 2.095 . S
O509 C518 1.250 . S
O510 Mn505 2.121 . S
O510 C518 1.258 . S
C511 N512 1.326 . S
C511 C515 1.460 . S
C511 H517 0.929 . S
N512 Mn505 2.257 . S
N512 C511 1.326 . S
N512 C516 1.362 . S
C513 C514 1.258 . S
C513 C516 1.431 . S
C513 C533 1.449 . S
C514 C513 1.258 . S
C514 C515 1.477 . S
C514 H534 0.931 . S
C515 C511 1.460 . S
C515 C514 1.477 . S
C515 H535 0.930 . S
C516 N512 1.362 . S
C516 C513 1.431 . S
C516 C526 1.476 . S
H517 C511 0.929 . S
C518 O509 1.250 . S
C518 O510 1.258 . S
O519 Mn504 2.162 1_545 S
O519 C507 1.281 . S
O520 Mn504 2.297 1_545 S
O520 C507 1.236 . S
N521 Mn505 2.282 . S
N521 C522 1.328 . S
N521 C526 1.318 . S
C522 N521 1.328 . S
C522 C523 1.457 . S
C522 H527 0.929 . S
C523 C522 1.457 . S
C523 C524 1.291 . S
C523 H536 0.931 . S
C524 C523 1.291 . S
C524 C525 1.373 . S
C524 H537 0.929 . S
C525 C524 1.373 . S
C525 C526 1.396 . S
C525 C532 1.403 . S
C526 C516 1.476 . S
C526 N521 1.318 . S
C526 C525 1.396 . S
H527 C522 0.929 . S
O528 Mn504 2.385 . S
O528 C506 1.234 . S
O529 Mn504 2.209 . S
O529 Mn505 2.215 . S
O529 C506 1.283 . S
O530 Mn504 2.094 . S
O530 C508 1.240 . S
O531 Mn505 2.117 . S
O531 C508 1.264 . S
C532 C525 1.403 . S
C532 C533 1.399 . S
C532 H538 0.929 . S
C533 C513 1.449 . S
C533 C532 1.399 . S
C533 H539 0.930 . S
H534 C514 0.931 . S
H535 C515 0.930 . S
H536 C523 0.931 . S
H537 C524 0.929 . S
H538 C532 0.929 . S
H539 C533 0.930 . S
Mn540 O545 2.095 . S
Mn540 O555 2.162 . S
Mn540 O556 2.297 . S
Mn540 O564 2.385 . S
Mn540 O565 2.209 . S
Mn540 O566 2.094 . S
Mn541 O546 2.121 . S
Mn541 N548 2.257 . S
Mn541 N557 2.282 . S
Mn541 O565 2.215 . S
Mn541 O567 2.117 . S
C542 O564 1.234 . S
C542 O565 1.283 . S
C543 O555 1.281 . S
C543 O556 1.236 . S
C544 O566 1.240 . S
C544 O567 1.264 . S
O545 Mn540 2.095 . S
O545 C554 1.250 . S
O546 Mn541 2.121 . S
O546 C554 1.258 . S
C547 N548 1.326 . S
C547 C551 1.460 . S
C547 H553 0.929 . S
N548 Mn541 2.257 . S
N548 C547 1.326 . S
N548 C552 1.362 . S
C549 C550 1.258 . S
C549 C552 1.431 . S
C549 C569 1.449 . S
C550 C549 1.258 . S
C550 C551 1.477 . S
C550 H570 0.931 . S
C551 C547 1.460 . S
C551 C550 1.477 . S
C551 H571 0.930 . S
C552 N548 1.362 . S
C552 C549 1.431 . S
C552 C562 1.476 . S
H553 C547 0.929 . S
C554 O545 1.250 . S
C554 O546 1.258 . S
O555 Mn540 2.162 . S
O555 C543 1.281 . S
O556 Mn540 2.297 . S
O556 C543 1.236 . S
N557 Mn541 2.282 . S
N557 C558 1.328 . S
N557 C562 1.318 . S
C558 N557 1.328 . S
C558 C559 1.457 . S
C558 H563 0.929 . S
C559 C558 1.457 . S
C559 C560 1.291 . S
C559 H572 0.931 . S
C560 C559 1.291 . S
C560 C561 1.373 . S
C560 H573 0.929 . S
C561 C560 1.373 . S
C561 C562 1.396 . S
C561 C568 1.403 . S
C562 C552 1.476 . S
C562 N557 1.318 . S
C562 C561 1.396 . S
H563 C558 0.929 . S
O564 Mn540 2.385 . S
O564 C542 1.234 . S
O565 Mn540 2.209 . S
O565 Mn541 2.215 . S
O565 C542 1.283 . S
O566 Mn540 2.094 . S
O566 C544 1.240 . S
O567 Mn541 2.117 . S
O567 C544 1.264 . S
C568 C561 1.403 . S
C568 C569 1.399 . S
C568 H574 0.929 . S
C569 C549 1.449 . S
C569 C568 1.399 . S
C569 H575 0.930 . S
H570 C550 0.931 . S
H571 C551 0.930 . S
H572 C559 0.931 . S
H573 C560 0.929 . S
H574 C568 0.929 . S
H575 C569 0.930 . S
Mn576 O581 2.095 1_565 S
Mn576 O591 2.162 . S
Mn576 O592 2.297 . S
Mn576 O600 2.385 . S
Mn576 O601 2.209 . S
Mn576 O602 2.094 . S
Mn577 O582 2.121 1_565 S
Mn577 N584 2.257 . S
Mn577 N593 2.282 . S
Mn577 O601 2.215 . S
Mn577 O603 2.117 . S
C578 O600 1.234 . S
C578 O601 1.283 . S
C579 O591 1.281 . S
C579 O592 1.236 . S
C580 O602 1.240 . S
C580 O603 1.264 . S
O581 Mn576 2.095 1_545 S
O581 C590 1.250 . S
O582 Mn577 2.121 1_545 S
O582 C590 1.258 . S
C583 N584 1.326 1_545 S
C583 C587 1.460 . S
C583 H589 0.929 . S
N584 Mn577 2.257 . S
N584 C583 1.326 1_565 S
N584 C588 1.362 . S
C585 C586 1.258 . S
C585 C588 1.431 . S
C585 C605 1.449 . S
C586 C585 1.258 . S
C586 C587 1.477 1_565 S
C586 H606 0.931 . S
C587 C583 1.460 . S
C587 C586 1.477 1_545 S
C587 H607 0.930 . S
C588 N584 1.362 . S
C588 C585 1.431 . S
C588 C598 1.476 . S
H589 C583 0.929 . S
C590 O581 1.250 . S
C590 O582 1.258 . S
O591 Mn576 2.162 . S
O591 C579 1.281 . S
O592 Mn576 2.297 . S
O592 C579 1.236 . S
N593 Mn577 2.282 . S
N593 C594 1.328 . S
N593 C598 1.318 . S
C594 N593 1.328 . S
C594 C595 1.457 . S
C594 H599 0.929 . S
C595 C594 1.457 . S
C595 C596 1.291 . S
C595 H608 0.931 . S
C596 C595 1.291 . S
C596 C597 1.373 . S
C596 H609 0.929 . S
C597 C596 1.373 . S
C597 C598 1.396 . S
C597 C604 1.403 . S
C598 C588 1.476 . S
C598 N593 1.318 . S
C598 C597 1.396 . S
H599 C594 0.929 . S
O600 Mn576 2.385 . S
O600 C578 1.234 . S
O601 Mn576 2.209 . S
O601 Mn577 2.215 . S
O601 C578 1.283 . S
O602 Mn576 2.094 . S
O602 C580 1.240 . S
O603 Mn577 2.117 . S
O603 C580 1.264 . S
C604 C597 1.403 . S
C604 C605 1.399 . S
C604 H610 0.929 . S
C605 C585 1.449 . S
C605 C604 1.399 . S
C605 H611 0.930 . S
H606 C586 0.931 . S
H607 C587 0.930 . S
H608 C595 0.931 . S
H609 C596 0.929 . S
H610 C604 0.929 . S
H611 C605 0.930 . S
Mn612 O617 2.095 . S
Mn612 O627 2.162 . S
Mn612 O628 2.297 . S
Mn612 O636 2.385 . S
Mn612 O637 2.209 . S
Mn612 O638 2.094 . S
Mn613 O618 2.121 . S
Mn613 N620 2.257 . S
Mn613 N629 2.282 . S
Mn613 O637 2.215 . S
Mn613 O639 2.117 . S
C614 O636 1.234 . S
C614 O637 1.283 . S
C615 O627 1.281 . S
C615 O628 1.236 . S
C616 O638 1.240 . S
C616 O639 1.264 . S
O617 Mn612 2.095 . S
O617 C626 1.250 . S
O618 Mn613 2.121 . S
O618 C626 1.258 . S
C619 N620 1.326 . S
C619 C623 1.460 . S
C619 H625 0.929 . S
N620 Mn613 2.257 . S
N620 C619 1.326 . S
N620 C624 1.362 . S
C621 C622 1.258 . S
C621 C624 1.431 . S
C621 C641 1.449 . S
C622 C621 1.258 . S
C622 C623 1.477 . S
C622 H642 0.931 . S
C623 C619 1.460 . S
C623 C622 1.477 . S
C623 H643 0.930 . S
C624 N620 1.362 . S
C624 C621 1.431 . S
C624 C634 1.476 . S
H625 C619 0.929 . S
C626 O617 1.250 . S
C626 O618 1.258 . S
O627 Mn612 2.162 . S
O627 C615 1.281 . S
O628 Mn612 2.297 . S
O628 C615 1.236 . S
N629 Mn613 2.282 . S
N629 C630 1.328 . S
N629 C634 1.318 . S
C630 N629 1.328 . S
C630 C631 1.457 . S
C630 H635 0.929 . S
C631 C630 1.457 . S
C631 C632 1.291 . S
C631 H644 0.931 . S
C632 C631 1.291 . S
C632 C633 1.373 . S
C632 H645 0.929 . S
C633 C632 1.373 . S
C633 C634 1.396 . S
C633 C640 1.403 . S
C634 C624 1.476 . S
C634 N629 1.318 . S
C634 C633 1.396 . S
H635 C630 0.929 . S
O636 Mn612 2.385 . S
O636 C614 1.234 . S
O637 Mn612 2.209 . S
O637 Mn613 2.215 . S
O637 C614 1.283 . S
O638 Mn612 2.094 . S
O638 C616 1.240 . S
O639 Mn613 2.117 . S
O639 C616 1.264 . S
C640 C633 1.403 . S
C640 C641 1.399 . S
C640 H646 0.929 . S
C641 C621 1.449 . S
C641 C640 1.399 . S
C641 H647 0.930 . S
H642 C622 0.931 . S
H643 C623 0.930 . S
H644 C631 0.931 . S
H645 C632 0.929 . S
H646 C640 0.929 . S
H647 C641 0.930 . S
Zn648 O654 1.920 . S
Zn648 O660 1.898 1_445 S
Zn648 O663 1.905 . S
Zn649 O657 1.905 1_545 S
Zn649 O658 1.898 . S
Zn649 O666 1.920 1_455 S
Zn650 O653 2.080 . S
Zn650 O656 2.114 1_545 S
Zn650 O659 2.120 . S
Zn650 O661 2.120 1_445 S
Zn650 O662 2.114 . S
Zn650 O665 2.080 1_455 S
C651 O656 1.166 . S
C651 O657 1.182 . S
C652 O658 1.167 . S
C652 O659 1.299 . S
O653 Zn650 2.080 . S
O653 C667 1.305 . S
O654 Zn648 1.920 . S
O654 C667 1.234 . S
C655 O660 1.167 . S
C655 O661 1.299 . S
O656 Zn650 2.114 1_565 S
O656 C651 1.166 . S
O657 Zn649 1.905 1_565 S
O657 C651 1.182 . S
O658 Zn649 1.898 . S
O658 C652 1.167 . S
O659 Zn650 2.120 . S
O659 C652 1.299 . S
O660 Zn648 1.898 1_665 S
O660 C655 1.167 . S
O661 Zn650 2.120 1_665 S
O661 C655 1.299 . S
O662 Zn650 2.114 . S
O662 C664 1.166 . S
O663 Zn648 1.905 . S
O663 C664 1.182 . S
C664 O662 1.166 . S
C664 O663 1.182 . S
O665 Zn650 2.080 1_655 S
O665 C668 1.305 . S
O666 Zn649 1.920 1_655 S
O666 C668 1.234 . S
C667 O653 1.305 . S
C667 O654 1.234 . S
C668 O665 1.305 . S
C668 O666 1.234 . S
Zn669 O675 1.920 1_545 S
Zn669 O681 1.898 . S
Zn669 O684 1.905 1_455 S
Zn670 O678 1.905 . S
Zn670 O679 1.904 1_455 S
Zn670 O687 1.920 . S
Zn671 O674 2.080 1_545 S
Zn671 O677 2.114 . S
Zn671 O680 2.120 1_445 S
Zn671 O682 2.120 . S
Zn671 O683 2.114 1_455 S
Zn671 O686 2.080 . S
C672 O677 1.166 . S
C672 O678 1.182 . S
C673 O679 1.156 1_565 S
C673 O680 1.299 . S
O674 Zn671 2.080 1_565 S
O674 C688 1.305 . S
O675 Zn669 1.920 1_565 S
O675 C688 1.234 . S
C676 O681 1.167 . S
C676 O682 1.299 . S
O677 Zn671 2.114 . S
O677 C672 1.166 . S
O678 Zn670 1.905 . S
O678 C672 1.182 . S
O679 Zn670 1.904 1_655 S
O679 C673 1.156 1_545 S
O680 Zn671 2.120 1_665 S
O680 C673 1.299 . S
O681 Zn669 1.898 . S
O681 C676 1.167 . S
O682 Zn671 2.120 . S
O682 C676 1.299 . S
O683 Zn671 2.114 1_655 S
O683 C685 1.166 . S
O684 Zn669 1.905 1_655 S
O684 C685 1.182 . S
C685 O683 1.166 . S
C685 O684 1.182 . S
O686 Zn671 2.080 . S
O686 C689 1.305 . S
O687 Zn670 1.920 . S
O687 C689 1.234 . S
C688 O674 1.305 . S
C688 O675 1.234 . S
C689 O686 1.305 . S
C689 O687 1.234 . S
Zn690 O696 1.920 1_545 S
Zn690 O702 1.898 . S
Zn690 O705 1.905 1_445 S
Zn691 O699 1.905 . S
Zn691 O700 1.898 1_445 S
Zn691 O708 1.920 . S
Zn692 O695 2.080 1_545 S
Zn692 O698 2.114 . S
Zn692 O701 2.120 1_445 S
Zn692 O703 2.120 . S
Zn692 O704 2.114 1_455 S
Zn692 O707 2.080 . S
C693 O698 1.166 . S
C693 O699 1.182 . S
C694 O700 1.167 . S
C694 O701 1.299 . S
O695 Zn692 2.080 1_565 S
O695 C709 1.305 . S
O696 Zn690 1.920 1_565 S
O696 C709 1.234 . S
C697 O702 1.167 . S
C697 O703 1.299 . S
O698 Zn692 2.114 . S
O698 C693 1.166 . S
O699 Zn691 1.905 . S
O699 C693 1.182 . S
O700 Zn691 1.898 1_665 S
O700 C694 1.167 . S
O701 Zn692 2.120 1_665 S
O701 C694 1.299 . S
O702 Zn690 1.898 . S
O702 C697 1.167 . S
O703 Zn692 2.120 . S
O703 C697 1.299 . S
O704 Zn692 2.114 1_655 S
O704 C706 1.166 . S
O705 Zn690 1.905 1_665 S
O705 C706 1.182 1_565 S
C706 O704 1.166 . S
C706 O705 1.182 1_545 S
O707 Zn692 2.080 . S
O707 C710 1.305 . S
O708 Zn691 1.920 . S
O708 C710 1.234 . S
C709 O695 1.305 . S
C709 O696 1.234 . S
C710 O707 1.305 . S
C710 O708 1.234 . S
Zn711 O717 1.920 . S
Zn711 O723 1.898 1_445 S
Zn711 O726 1.905 . S
Zn712 O720 1.905 1_545 S
Zn712 O721 1.898 . S
Zn712 O729 1.920 1_455 S
Zn713 O716 2.080 . S
Zn713 O719 2.114 1_545 S
Zn713 O722 2.120 . S
Zn713 O724 2.120 1_445 S
Zn713 O725 2.114 . S
Zn713 O728 2.080 1_455 S
C714 O719 1.166 . S
C714 O720 1.182 . S
C715 O721 1.167 . S
C715 O722 1.299 . S
O716 Zn713 2.080 . S
O716 C730 1.305 . S
O717 Zn711 1.920 . S
O717 C730 1.234 . S
C718 O723 1.167 . S
C718 O724 1.299 . S
O719 Zn713 2.114 1_565 S
O719 C714 1.166 . S
O720 Zn712 1.905 1_565 S
O720 C714 1.182 . S
O721 Zn712 1.898 . S
O721 C715 1.167 . S
O722 Zn713 2.120 . S
O722 C715 1.299 . S
O723 Zn711 1.898 1_665 S
O723 C718 1.167 . S
O724 Zn713 2.120 1_665 S
O724 C718 1.299 . S
O725 Zn713 2.114 . S
O725 C727 1.166 . S
O726 Zn711 1.905 . S
O726 C727 1.182 . S
C727 O725 1.166 . S
C727 O726 1.182 . S
O728 Zn713 2.080 1_655 S
O728 C731 1.305 . S
O729 Zn712 1.920 1_655 S
O729 C731 1.234 . S
C730 O716 1.305 . S
C730 O717 1.234 . S
C731 O728 1.305 . S
C731 O729 1.234 . S
Zn732 O738 1.920 . S
Zn732 O744 1.898 . S
Zn732 O747 1.905 . S
Zn733 O741 1.905 . S
Zn733 O742 1.898 . S
Zn733 O750 1.920 . S
Zn734 O737 2.080 . S
Zn734 O740 2.114 . S
Zn734 O743 2.120 . S
Zn734 O745 2.120 . S
Zn734 O746 2.114 . S
Zn734 O749 2.080 . S
C735 O740 1.166 . S
C735 O741 1.182 . S
C736 O742 1.167 . S
C736 O743 1.299 . S
O737 Zn734 2.080 . S
O737 C751 1.305 . S
O738 Zn732 1.920 . S
O738 C751 1.234 . S
C739 O744 1.167 . S
C739 O745 1.299 . S
O740 Zn734 2.114 . S
O740 C735 1.166 . S
O741 Zn733 1.905 . S
O741 C735 1.182 . S
O742 Zn733 1.898 . S
O742 C736 1.167 . S
O743 Zn734 2.120 . S
O743 C736 1.299 . S
O744 Zn732 1.898 . S
O744 C739 1.167 . S
O745 Zn734 2.120 . S
O745 C739 1.299 . S
O746 Zn734 2.114 . S
O746 C748 1.166 . S
O747 Zn732 1.905 . S
O747 C748 1.182 . S
C748 O746 1.166 . S
C748 O747 1.182 . S
O749 Zn734 2.080 . S
O749 C752 1.305 . S
O750 Zn733 1.920 . S
O750 C752 1.234 . S
C751 O737 1.305 . S
C751 O738 1.234 . S
C752 O749 1.305 . S
C752 O750 1.234 . S
Zn753 O759 1.920 . S
Zn753 O765 1.898 . S
Zn753 O768 1.905 . S
Zn754 O762 1.905 . S
Zn754 O763 1.898 . S
Zn754 O771 1.920 . S
Zn755 O758 2.080 . S
Zn755 O761 2.114 . S
Zn755 O764 2.120 . S
Zn755 O766 2.120 . S
Zn755 O767 2.114 . S
Zn755 O770 2.080 . S
C756 O761 1.166 . S
C756 O762 1.182 . S
C757 O763 1.167 . S
C757 O764 1.299 . S
O758 Zn755 2.080 . S
O758 C772 1.305 . S
O759 Zn753 1.920 . S
O759 C772 1.234 . S
C760 O765 1.167 . S
C760 O766 1.299 . S
O761 Zn755 2.114 . S
O761 C756 1.166 . S
O762 Zn754 1.905 . S
O762 C756 1.182 . S
O763 Zn754 1.898 . S
O763 C757 1.167 . S
O764 Zn755 2.120 . S
O764 C757 1.299 . S
O765 Zn753 1.898 . S
O765 C760 1.167 . S
O766 Zn755 2.120 . S
O766 C760 1.299 . S
O767 Zn755 2.114 . S
O767 C769 1.166 . S
O768 Zn753 1.905 . S
O768 C769 1.182 . S
C769 O767 1.166 . S
C769 O768 1.182 . S
O770 Zn755 2.080 . S
O770 C773 1.305 . S
O771 Zn754 1.920 . S
O771 C773 1.234 . S
C772 O758 1.305 . S
C772 O759 1.234 . S
C773 O770 1.305 . S
C773 O771 1.234 . S
Zn774 O780 1.920 . S
Zn774 O786 1.898 . S
Zn774 O789 1.905 . S
Zn775 O783 1.905 . S
Zn775 O784 1.898 . S
Zn775 O792 1.920 . S
Zn776 O779 2.080 . S
Zn776 O782 2.114 . S
Zn776 O785 2.120 . S
Zn776 O787 2.120 . S
Zn776 O788 2.114 . S
Zn776 O791 2.080 . S
C777 O782 1.166 . S
C777 O783 1.182 . S
C778 O784 1.167 . S
C778 O785 1.299 . S
O779 Zn776 2.080 . S
O779 C793 1.305 . S
O780 Zn774 1.920 . S
O780 C793 1.234 . S
C781 O786 1.167 . S
C781 O787 1.299 . S
O782 Zn776 2.114 . S
O782 C777 1.166 . S
O783 Zn775 1.905 . S
O783 C777 1.182 . S
O784 Zn775 1.898 . S
O784 C778 1.167 . S
O785 Zn776 2.120 . S
O785 C778 1.299 . S
O786 Zn774 1.898 . S
O786 C781 1.167 . S
O787 Zn776 2.120 . S
O787 C781 1.299 . S
O788 Zn776 2.114 . S
O788 C790 1.166 . S
O789 Zn774 1.905 . S
O789 C790 1.182 . S
C790 O788 1.166 . S
C790 O789 1.182 . S
O791 Zn776 2.080 . S
O791 C794 1.305 . S
O792 Zn775 1.920 . S
O792 C794 1.234 . S
C793 O779 1.305 . S
C793 O780 1.234 . S
C794 O791 1.305 . S
C794 O792 1.234 . S
Zn795 O801 1.920 . S
Zn795 O807 1.898 . S
Zn795 O810 1.905 . S
Zn796 O804 1.905 . S
Zn796 O805 1.898 . S
Zn796 O813 1.920 . S
Zn797 O800 2.080 . S
Zn797 O803 2.114 . S
Zn797 O806 2.120 . S
Zn797 O808 2.120 . S
Zn797 O809 2.114 . S
Zn797 O812 2.080 . S
C798 O803 1.166 . S
C798 O804 1.182 . S
C799 O805 1.167 . S
C799 O806 1.299 . S
O800 Zn797 2.080 . S
O800 C814 1.269 1_556 S
O801 Zn795 1.920 . S
O801 C814 1.277 . S
C802 O807 1.226 . S
C802 O808 1.250 1_554 S
O803 Zn797 2.114 . S
O803 C798 1.166 . S
O804 Zn796 1.905 . S
O804 C798 1.182 . S
O805 Zn796 1.898 . S
O805 C799 1.167 . S
O806 Zn797 2.120 . S
O806 C799 1.299 . S
O807 Zn795 1.898 . S
O807 C802 1.226 . S
O808 Zn797 2.120 . S
O808 C802 1.250 1_556 S
O809 Zn797 2.114 . S
O809 C811 1.139 1_556 S
O810 Zn795 1.905 . S
O810 C811 1.214 . S
C811 O809 1.139 1_554 S
C811 O810 1.214 . S
O812 Zn797 2.080 . S
O812 C815 1.305 . S
O813 Zn796 1.920 . S
O813 C815 1.234 . S
C814 O800 1.269 1_554 S
C814 O801 1.277 . S
C815 O812 1.305 . S
C815 O813 1.234 . S
Zn816 O822 1.920 . S
Zn816 O828 1.898 . S
Zn816 O831 1.905 . S
Zn817 O825 1.905 . S
Zn817 O826 1.898 . S
Zn817 O834 1.920 . S
Zn818 O821 2.080 . S
Zn818 O824 2.114 . S
Zn818 O827 2.120 . S
Zn818 O829 2.120 . S
Zn818 O830 2.114 . S
Zn818 O833 2.080 . S
C819 O824 1.166 . S
C819 O825 1.182 . S
C820 O826 1.167 . S
C820 O827 1.299 . S
O821 Zn818 2.080 . S
O821 C835 1.305 . S
O822 Zn816 1.920 . S
O822 C835 1.234 . S
C823 O828 1.167 . S
C823 O829 1.299 . S
O824 Zn818 2.114 . S
O824 C819 1.166 . S
O825 Zn817 1.905 . S
O825 C819 1.182 . S
O826 Zn817 1.898 . S
O826 C820 1.167 . S
O827 Zn818 2.120 . S
O827 C820 1.299 . S
O828 Zn816 1.898 . S
O828 C823 1.167 . S
O829 Zn818 2.120 . S
O829 C823 1.299 . S
O830 Zn818 2.114 . S
O830 C832 1.166 . S
O831 Zn816 1.905 . S
O831 C832 1.182 . S
C832 O830 1.166 . S
C832 O831 1.182 . S
O833 Zn818 2.080 . S
O833 C836 1.305 . S
O834 Zn817 1.920 . S
O834 C836 1.234 . S
C835 O821 1.305 . S
C835 O822 1.234 . S
C836 O833 1.305 . S
C836 O834 1.234 . S
Zn837 O843 1.920 . S
Zn837 O849 1.898 . S
Zn837 O852 1.905 . S
Zn838 O846 1.905 . S
Zn838 O847 1.898 . S
Zn838 O855 1.920 . S
Zn839 O842 2.080 . S
Zn839 O845 2.114 . S
Zn839 O848 2.120 . S
Zn839 O850 2.120 . S
Zn839 O851 2.114 . S
Zn839 O854 2.080 . S
C840 O845 1.138 1_556 S
C840 O846 1.215 . S
C841 O847 1.229 . S
C841 O848 1.247 1_556 S
O842 Zn839 2.080 . S
O842 C856 1.305 . S
O843 Zn837 1.920 . S
O843 C856 1.234 . S
C844 O849 1.167 . S
C844 O850 1.299 . S
O845 Zn839 2.114 . S
O845 C840 1.138 1_554 S
O846 Zn838 1.905 . S
O846 C840 1.215 . S
O847 Zn838 1.898 . S
O847 C841 1.229 . S
O848 Zn839 2.120 . S
O848 C841 1.247 1_554 S
O849 Zn837 1.898 . S
O849 C844 1.167 . S
O850 Zn839 2.120 . S
O850 C844 1.299 . S
O851 Zn839 2.114 . S
O851 C853 1.166 . S
O852 Zn837 1.905 . S
O852 C853 1.182 . S
C853 O851 1.166 . S
C853 O852 1.182 . S
O854 Zn839 2.080 . S
O854 C857 1.272 1_554 S
O855 Zn838 1.920 . S
O855 C857 1.273 . S
C856 O842 1.305 . S
C856 O843 1.234 . S
C857 O854 1.272 1_556 S
C857 O855 1.273 . S
Zn858 O864 1.920 . S
Zn858 O870 1.898 . S
Zn858 O873 1.905 . S
Zn859 O867 1.905 . S
Zn859 O868 1.898 . S
Zn859 O876 1.920 . S
Zn860 O863 2.080 . S
Zn860 O866 2.114 . S
Zn860 O869 2.120 . S
Zn860 O871 2.120 . S
Zn860 O872 2.114 . S
Zn860 O875 2.080 . S
C861 O866 1.166 . S
C861 O867 1.182 . S
C862 O868 1.167 . S
C862 O869 1.299 . S
O863 Zn860 2.080 . S
O863 C877 1.305 . S
O864 Zn858 1.920 . S
O864 C877 1.234 . S
C865 O870 1.167 . S
C865 O871 1.299 . S
O866 Zn860 2.114 . S
O866 C861 1.166 . S
O867 Zn859 1.905 . S
O867 C861 1.182 . S
O868 Zn859 1.898 . S
O868 C862 1.167 . S
O869 Zn860 2.120 . S
O869 C862 1.299 . S
O870 Zn858 1.898 . S
O870 C865 1.167 . S
O871 Zn860 2.120 . S
O871 C865 1.299 . S
O872 Zn860 2.114 . S
O872 C874 1.166 . S
O873 Zn858 1.905 . S
O873 C874 1.182 . S
C874 O872 1.166 . S
C874 O873 1.182 . S
O875 Zn860 2.080 . S
O875 C878 1.305 . S
O876 Zn859 1.920 . S
O876 C878 1.234 . S
C877 O863 1.305 . S
C877 O864 1.234 . S
C878 O875 1.305 . S
C878 O876 1.234 . S
Zn879 O885 1.920 . S
Zn879 O891 1.898 . S
Zn879 O894 1.905 . S
Zn880 O888 1.905 . S
Zn880 O889 1.898 . S
Zn880 O897 1.920 . S
Zn881 O884 2.080 . S
Zn881 O887 2.114 . S
Zn881 O890 2.120 . S
Zn881 O892 2.120 . S
Zn881 O893 2.114 . S
Zn881 O896 2.080 . S
C882 O887 1.166 . S
C882 O888 1.182 . S
C883 O889 1.167 . S
C883 O890 1.299 . S
O884 Zn881 2.080 . S
O884 C898 1.305 . S
O885 Zn879 1.920 . S
O885 C898 1.234 . S
C886 O891 1.167 . S
C886 O892 1.299 . S
O887 Zn881 2.114 . S
O887 C882 1.166 . S
O888 Zn880 1.905 . S
O888 C882 1.182 . S
O889 Zn880 1.898 . S
O889 C883 1.167 . S
O890 Zn881 2.120 . S
O890 C883 1.299 . S
O891 Zn879 1.898 . S
O891 C886 1.167 . S
O892 Zn881 2.120 . S
O892 C886 1.299 . S
O893 Zn881 2.114 . S
O893 C895 1.166 . S
O894 Zn879 1.905 . S
O894 C895 1.182 . S
C895 O893 1.166 . S
C895 O894 1.182 . S
O896 Zn881 2.080 . S
O896 C899 1.305 . S
O897 Zn880 1.920 . S
O897 C899 1.234 . S
C898 O884 1.305 . S
C898 O885 1.234 . S
C899 O896 1.305 . S
C899 O897 1.234 . S
H900 C908 0.929 . S
H901 C910 0.930 . S
H902 C912 0.930 . S
H903 C915 0.929 . S
H904 C918 0.930 . S
H905 C920 0.960 . S
H906 C920 0.960 . S
H907 C920 0.960 . S
C908 H900 0.929 . S
C908 C909 1.377 . S
C908 C910 1.384 . S
C909 C908 1.377 . S
C909 C915 1.390 . S
C910 H901 0.930 . S
C910 C908 1.384 . S
C910 C911 1.372 . S
C911 C910 1.372 . S
C911 C912 1.400 . S
C911 C916 1.490 . S
C912 H902 0.930 . S
C912 C911 1.400 . S
C912 C915 1.386 . S
H913 C929 0.930 . S
H914 C930 0.931 . S
C915 H903 0.929 . S
C915 C909 1.390 . S
C915 C912 1.386 . S
C916 C911 1.490 . S
C916 C918 1.395 . S
C916 C919 1.403 . S
H917 C923 0.930 . S
C918 H904 0.930 . S
C918 C916 1.395 . S
C918 C921 1.403 . S
C919 C916 1.403 . S
C919 C920 1.524 . S
C919 C923 1.400 . S
C920 H905 0.960 . S
C920 H906 0.960 . S
C920 H907 0.960 . S
C920 C919 1.524 . S
C921 C918 1.403 . S
C921 C922 1.392 . S
C921 C925 1.495 . S
C922 C921 1.392 . S
C922 C923 1.385 . S
C922 C924 1.478 . S
C923 H917 0.930 . S
C923 C919 1.400 . S
C923 C922 1.385 . S
C924 C922 1.478 . S
C924 C926 1.381 . S
C924 C930 1.383 . S
C925 C921 1.495 . S
C925 H931 0.959 . S
C925 H932 0.961 . S
C925 H933 0.960 . S
C926 C924 1.381 . S
C926 C927 1.394 . S
C926 H934 0.930 . S
C927 C926 1.394 . S
C927 C928 1.383 . S
C927 H935 0.929 . S
C928 C927 1.383 . S
C928 C929 1.377 . S
C929 H913 0.930 . S
C929 C928 1.377 . S
C929 C930 1.379 . S
C930 H914 0.931 . S
C930 C924 1.383 . S
C930 C929 1.379 . S
H931 C925 0.959 . S
H932 C925 0.961 . S
H933 C925 0.960 . S
H934 C926 0.930 . S
H935 C927 0.929 . S
H936 C944 0.929 . S
H937 C946 0.930 . S
H938 C948 0.930 . S
H939 C951 0.929 . S
H940 C954 0.930 . S
H941 C956 0.960 . S
H942 C956 0.960 . S
H943 C956 0.960 . S
C944 H936 0.929 . S
C944 C945 1.377 1_565 S
C944 C946 1.384 . S
C945 C944 1.377 1_545 S
C945 C951 1.390 . S
C946 H937 0.930 . S
C946 C944 1.384 . S
C946 C947 1.372 1_565 S
C947 C946 1.372 1_545 S
C947 C948 1.400 . S
C947 C952 1.490 . S
C948 H938 0.930 . S
C948 C947 1.400 . S
C948 C951 1.386 . S
H949 C965 0.930 . S
H950 C966 0.931 . S
C951 H939 0.929 . S
C951 C945 1.390 . S
C951 C948 1.386 . S
C952 C947 1.490 . S
C952 C954 1.395 . S
C952 C955 1.403 . S
H953 C959 0.930 . S
C954 H940 0.930 . S
C954 C952 1.395 . S
C954 C957 1.403 . S
C955 C952 1.403 . S
C955 C956 1.524 . S
C955 C959 1.400 . S
C956 H941 0.960 . S
C956 H942 0.960 . S
C956 H943 0.960 . S
C956 C955 1.524 . S
C957 C954 1.403 . S
C957 C958 1.392 . S
C957 C961 1.495 . S
C958 C957 1.392 . S
C958 C959 1.385 . S
C958 C960 1.478 . S
C959 H953 0.930 . S
C959 C955 1.400 . S
C959 C958 1.385 . S
C960 C958 1.478 . S
C960 C962 1.381 1_545 S
C960 C966 1.383 . S
C961 C957 1.495 . S
C961 H967 0.959 1_545 S
C961 H968 0.961 . S
C961 H969 0.960 1_545 S
C962 C960 1.381 1_565 S
C962 C963 1.396 1_565 S
C962 H970 0.930 . S
C963 C962 1.396 1_545 S
C963 C964 1.386 . S
C963 H971 0.925 1_545 S
C964 C963 1.386 . S
C964 C965 1.377 . S
C965 H949 0.930 . S
C965 C964 1.377 . S
C965 C966 1.379 . S
C966 H950 0.931 . S
C966 C960 1.383 . S
C966 C965 1.379 . S
H967 C961 0.959 1_565 S
H968 C961 0.961 . S
H969 C961 0.960 1_565 S
H970 C962 0.930 . S
H971 C963 0.925 1_565 S
H972 C980 0.929 . S
H973 C982 0.930 1_655 S
H974 C984 0.930 . S
H975 C987 0.929 . S
H976 C990 0.930 . S
H977 C992 0.960 . S
H978 C992 0.960 . S
H979 C992 0.960 . S
C980 H972 0.929 . S
C980 C981 1.377 . S
C980 C982 1.384 . S
C981 C980 1.377 . S
C981 C987 1.390 . S
C982 H973 0.930 1_455 S
C982 C980 1.384 . S
C982 C983 1.372 . S
C983 C982 1.372 . S
C983 C984 1.400 . S
C983 C988 1.490 . S
C984 H974 0.930 . S
C984 C983 1.400 . S
C984 C987 1.386 . S
H985 C1001 0.930 . S
H986 C1002 0.931 . S
C987 H975 0.929 . S
C987 C981 1.390 . S
C987 C984 1.386 . S
C988 C983 1.490 . S
C988 C990 1.395 1_455 S
C988 C991 1.403 . S
H989 C995 0.930 . S
C990 H976 0.930 . S
C990 C988 1.395 1_655 S
C990 C993 1.403 . S
C991 C988 1.403 . S
C991 C992 1.524 . S
C991 C995 1.400 . S
C992 H977 0.960 . S
C992 H978 0.960 . S
C992 H979 0.960 . S
C992 C991 1.524 . S
C993 C990 1.403 . S
C993 C994 1.392 1_655 S
C993 C997 1.495 . S
C994 C993 1.392 1_455 S
C994 C995 1.385 . S
C994 C996 1.478 . S
C995 H989 0.930 . S
C995 C991 1.400 . S
C995 C994 1.385 . S
C996 C994 1.478 . S
C996 C998 1.381 1_455 S
C996 C1002 1.383 . S
C997 C993 1.495 . S
C997 H1003 0.959 . S
C997 H1004 0.961 . S
C997 H1005 0.960 . S
C998 C996 1.381 1_655 S
C998 C999 1.394 . S
C998 H1006 0.930 . S
C999 C998 1.394 . S
C999 C1000 1.383 1_655 S
C999 H1007 0.929 . S
C1000 C999 1.383 1_455 S
C1000 C1001 1.377 . S
C1001 H985 0.930 . S
C1001 C1000 1.377 . S
C1001 C1002 1.379 . S
C1002 H986 0.931 . S
C1002 C996 1.383 . S
C1002 C1001 1.379 . S
H1003 C997 0.959 . S
H1004 C997 0.961 . S
H1005 C997 0.960 . S
H1006 C998 0.930 . S
H1007 C999 0.929 . S
H1008 C1016 0.929 . S
H1009 C1018 0.930 . S
H1010 C1020 0.930 . S
H1011 C1023 0.929 . S
H1012 C1026 0.930 . S
H1013 C1028 0.960 . S
H1014 C1028 0.960 . S
H1015 C1028 0.960 . S
C1016 H1008 0.929 . S
C1016 C1017 1.377 . S
C1016 C1018 1.384 . S
C1017 C1016 1.377 . S
C1017 C1023 1.390 . S
C1018 H1009 0.930 . S
C1018 C1016 1.384 . S
C1018 C1019 1.372 . S
C1019 C1018 1.372 . S
C1019 C1020 1.400 . S
C1019 C1024 1.490 . S
C1020 H1010 0.930 . S
C1020 C1019 1.400 . S
C1020 C1023 1.386 . S
H1021 C1037 0.930 . S
H1022 C1038 0.931 . S
C1023 H1011 0.929 . S
C1023 C1017 1.390 . S
C1023 C1020 1.386 . S
C1024 C1019 1.490 . S
C1024 C1026 1.395 . S
C1024 C1027 1.403 . S
H1025 C1031 0.930 . S
C1026 H1012 0.930 . S
C1026 C1024 1.395 . S
C1026 C1029 1.403 . S
C1027 C1024 1.403 . S
C1027 C1028 1.524 . S
C1027 C1031 1.400 . S
C1028 H1013 0.960 . S
C1028 H1014 0.960 . S
C1028 H1015 0.960 . S
C1028 C1027 1.524 . S
C1029 C1026 1.403 . S
C1029 C1030 1.392 . S
C1029 C1033 1.495 . S
C1030 C1029 1.392 . S
C1030 C1031 1.385 . S
C1030 C1032 1.478 . S
C1031 H1025 0.930 . S
C1031 C1027 1.400 . S
C1031 C1030 1.385 . S
C1032 C1030 1.478 . S
C1032 C1034 1.381 . S
C1032 C1038 1.383 . S
C1033 C1029 1.495 . S
C1033 H1039 0.959 . S
C1033 H1040 0.961 . S
C1033 H1041 0.960 . S
C1034 C1032 1.381 . S
C1034 C1035 1.394 . S
C1034 H1042 0.930 . S
C1035 C1034 1.394 . S
C1035 C1036 1.383 . S
C1035 H1043 0.929 . S
C1036 C1035 1.383 . S
C1036 C1037 1.377 . S
C1037 H1021 0.930 . S
C1037 C1036 1.377 . S
C1037 C1038 1.379 . S
C1038 H1022 0.931 . S
C1038 C1032 1.383 . S
C1038 C1037 1.379 . S
H1039 C1033 0.959 . S
H1040 C1033 0.961 . S
H1041 C1033 0.960 . S
H1042 C1034 0.930 . S
H1043 C1035 0.929 . S
H1044 C1052 0.929 1_565 S
H1045 C1054 0.893 1_565 S
H1046 C1056 0.930 . S
H1047 C1059 0.929 . S
H1048 C1062 0.930 . S
H1049 C1064 0.960 . S
H1050 C1064 0.960 1_565 S
H1051 C1064 0.960 . S
C1052 H1044 0.929 1_545 S
C1052 C1053 1.377 . S
C1052 C1054 1.400 . S
C1053 C1052 1.377 . S
C1053 C1059 1.390 . S
C1054 H1045 0.893 1_545 S
C1054 C1052 1.400 . S
C1054 C1055 1.393 . S
C1055 C1054 1.393 . S
C1055 C1056 1.400 . S
C1055 C1060 1.490 . S
C1056 H1046 0.930 . S
C1056 C1055 1.400 . S
C1056 C1059 1.386 . S
H1057 C1073 0.930 . S
H1058 C1074 0.931 . S
C1059 H1047 0.929 . S
C1059 C1053 1.390 . S
C1059 C1056 1.386 . S
C1060 C1055 1.490 . S
C1060 C1062 1.395 . S
C1060 C1063 1.403 . S
H1061 C1067 0.930 . S
C1062 H1048 0.930 . S
C1062 C1060 1.395 . S
C1062 C1065 1.403 . S
C1063 C1060 1.403 . S
C1063 C1064 1.524 . S
C1063 C1067 1.400 . S
C1064 H1049 0.960 . S
C1064 H1050 0.960 1_545 S
C1064 H1051 0.960 . S
C1064 C1063 1.524 . S
C1065 C1062 1.403 . S
C1065 C1066 1.392 . S
C1065 C1069 1.495 . S
C1066 C1065 1.392 . S
C1066 C1067 1.385 . S
C1066 C1068 1.478 . S
C1067 H1061 0.930 . S
C1067 C1063 1.400 . S
C1067 C1066 1.385 . S
C1068 C1066 1.478 . S
C1068 C1070 1.381 1_545 S
C1068 C1074 1.383 . S
C1069 C1065 1.495 . S
C1069 H1075 0.959 . S
C1069 H1076 0.961 . S
C1069 H1077 0.960 . S
C1070 C1068 1.381 1_565 S
C1070 C1071 1.394 . S
C1070 H1078 0.930 . S
C1071 C1070 1.394 . S
C1071 C1072 1.383 1_565 S
C1071 H1079 0.929 . S
C1072 C1071 1.383 1_545 S
C1072 C1073 1.377 . S
C1073 H1057 0.930 . S
C1073 C1072 1.377 . S
C1073 C1074 1.379 . S
C1074 H1058 0.931 . S
C1074 C1068 1.383 . S
C1074 C1073 1.379 . S
H1075 C1069 0.959 . S
H1076 C1069 0.961 . S
H1077 C1069 0.960 . S
H1078 C1070 0.930 . S
H1079 C1071 0.929 . S
H1080 C1088 0.929 . S
H1081 C1090 0.930 . S
H1082 C1092 0.930 . S
H1083 C1095 0.929 . S
H1084 C1098 0.930 1_655 S
H1085 C1100 0.960 . S
H1086 C1100 0.960 . S
H1087 C1100 0.960 . S
C1088 H1080 0.929 . S
C1088 C1089 1.377 . S
C1088 C1090 1.384 . S
C1089 C1088 1.377 . S
C1089 C1095 1.390 . S
C1090 H1081 0.930 . S
C1090 C1088 1.384 . S
C1090 C1091 1.372 . S
C1091 C1090 1.372 . S
C1091 C1092 1.400 . S
C1091 C1096 1.490 . S
C1092 H1082 0.930 . S
C1092 C1091 1.400 . S
C1092 C1095 1.386 . S
H1093 C1109 0.930 . S
H1094 C1110 0.931 . S
C1095 H1083 0.929 . S
C1095 C1089 1.390 . S
C1095 C1092 1.386 . S
C1096 C1091 1.490 . S
C1096 C1098 1.395 . S
C1096 C1099 1.403 . S
H1097 C1103 0.930 . S
C1098 H1084 0.930 1_455 S
C1098 C1096 1.395 . S
C1098 C1101 1.403 . S
C1099 C1096 1.403 . S
C1099 C1100 1.524 . S
C1099 C1103 1.400 . S
C1100 H1085 0.960 . S
C1100 H1086 0.960 . S
C1100 H1087 0.960 . S
C1100 C1099 1.524 . S
C1101 C1098 1.403 . S
C1101 C1102 1.392 . S
C1101 C1105 1.495 1_455 S
C1102 C1101 1.392 . S
C1102 C1103 1.385 . S
C1102 C1104 1.478 . S
C1103 H1097 0.930 . S
C1103 C1099 1.400 . S
C1103 C1102 1.385 . S
C1104 C1102 1.478 . S
C1104 C1106 1.381 . S
C1104 C1110 1.383 . S
C1105 C1101 1.495 1_655 S
C1105 H1111 0.959 . S
C1105 H1112 0.961 . S
C1105 H1113 0.960 . S
C1106 C1104 1.381 . S
C1106 C1107 1.394 . S
C1106 H1114 0.930 . S
C1107 C1106 1.394 . S
C1107 C1108 1.383 . S
C1107 H1115 0.929 . S
C1108 C1107 1.383 . S
C1108 C1109 1.377 . S
C1109 H1093 0.930 . S
C1109 C1108 1.377 . S
C1109 C1110 1.379 . S
C1110 H1094 0.931 . S
C1110 C1104 1.383 . S
C1110 C1109 1.379 . S
H1111 C1105 0.959 . S
H1112 C1105 0.961 . S
H1113 C1105 0.960 . S
H1114 C1106 0.930 . S
H1115 C1107 0.929 . S
H1116 C1124 0.929 . S
H1117 C1126 0.930 . S
H1118 C1128 0.930 . S
H1119 C1131 0.929 . S
H1120 C1134 0.930 . S
H1121 C1136 0.960 . S
H1122 C1136 0.960 . S
H1123 C1136 0.960 . S
C1124 H1116 0.929 . S
C1124 C1125 1.377 . S
C1124 C1126 1.384 . S
C1125 C1124 1.377 . S
C1125 C1131 1.390 . S
C1126 H1117 0.930 . S
C1126 C1124 1.384 . S
C1126 C1127 1.372 . S
C1127 C1126 1.372 . S
C1127 C1128 1.400 . S
C1127 C1132 1.490 . S
C1128 H1118 0.930 . S
C1128 C1127 1.400 . S
C1128 C1131 1.386 . S
H1129 C1145 0.930 . S
H1130 C1146 0.931 . S
C1131 H1119 0.929 . S
C1131 C1125 1.390 . S
C1131 C1128 1.386 . S
C1132 C1127 1.490 . S
C1132 C1134 1.395 . S
C1132 C1135 1.403 . S
H1133 C1139 0.930 . S
C1134 H1120 0.930 . S
C1134 C1132 1.395 . S
C1134 C1137 1.403 . S
C1135 C1132 1.403 . S
C1135 C1136 1.524 . S
C1135 C1139 1.400 . S
C1136 H1121 0.960 . S
C1136 H1122 0.960 . S
C1136 H1123 0.960 . S
C1136 C1135 1.524 . S
C1137 C1134 1.403 . S
C1137 C1138 1.392 . S
C1137 C1141 1.495 . S
C1138 C1137 1.392 . S
C1138 C1139 1.385 . S
C1138 C1140 1.478 . S
C1139 H1133 0.930 . S
C1139 C1135 1.400 . S
C1139 C1138 1.385 . S
C1140 C1138 1.478 . S
C1140 C1142 1.381 . S
C1140 C1146 1.383 . S
C1141 C1137 1.495 . S
C1141 H1147 0.959 . S
C1141 H1148 0.961 . S
C1141 H1149 0.960 . S
C1142 C1140 1.381 . S
C1142 C1143 1.394 . S
C1142 H1150 0.930 . S
C1143 C1142 1.394 . S
C1143 C1144 1.383 . S
C1143 H1151 0.929 . S
C1144 C1143 1.383 . S
C1144 C1145 1.377 . S
C1145 H1129 0.930 . S
C1145 C1144 1.377 . S
C1145 C1146 1.379 . S
C1146 H1130 0.931 . S
C1146 C1140 1.383 . S
C1146 C1145 1.379 . S
H1147 C1141 0.959 . S
H1148 C1141 0.961 . S
H1149 C1141 0.960 . S
H1150 C1142 0.930 . S
H1151 C1143 0.929 . S
H1152 C1160 0.929 . S
H1153 C1162 0.930 1_565 S
H1154 C1164 0.930 . S
H1155 C1167 0.929 . S
H1156 C1170 0.930 . S
H1157 C1172 0.960 . S
H1158 C1172 0.960 . S
H1159 C1172 0.960 . S
C1160 H1152 0.929 . S
C1160 C1161 1.377 . S
C1160 C1162 1.384 . S
C1161 C1160 1.377 . S
C1161 C1167 1.390 . S
C1162 H1153 0.930 1_545 S
C1162 C1160 1.384 . S
C1162 C1163 1.372 . S
C1163 C1162 1.372 . S
C1163 C1164 1.400 . S
C1163 C1168 1.490 . S
C1164 H1154 0.930 . S
C1164 C1163 1.400 . S
C1164 C1167 1.386 . S
H1165 C1181 0.930 . S
H1166 C1182 0.931 . S
C1167 H1155 0.929 . S
C1167 C1161 1.390 . S
C1167 C1164 1.386 . S
C1168 C1163 1.490 . S
C1168 C1170 1.395 . S
C1168 C1171 1.403 1_545 S
H1169 C1175 0.930 . S
C1170 H1156 0.930 . S
C1170 C1168 1.395 . S
C1170 C1173 1.403 . S
C1171 C1168 1.403 1_565 S
C1171 C1172 1.524 . S
C1171 C1175 1.406 . S
C1172 H1157 0.960 . S
C1172 H1158 0.960 . S
C1172 H1159 0.960 . S
C1172 C1171 1.524 . S
C1173 C1170 1.403 . S
C1173 C1174 1.392 . S
C1173 C1177 1.495 . S
C1174 C1173 1.392 . S
C1174 C1175 1.379 1_545 S
C1174 C1176 1.478 . S
C1175 H1169 0.930 . S
C1175 C1171 1.406 . S
C1175 C1174 1.379 1_565 S
C1176 C1174 1.478 . S
C1176 C1178 1.381 1_545 S
C1176 C1182 1.383 . S
C1177 C1173 1.495 . S
C1177 H1183 0.959 . S
C1177 H1184 0.961 . S
C1177 H1185 0.960 . S
C1178 C1176 1.381 1_565 S
C1178 C1179 1.394 . S
C1178 H1186 0.930 . S
C1179 C1178 1.394 . S
C1179 C1180 1.383 1_565 S
C1179 H1187 0.929 . S
C1180 C1179 1.383 1_545 S
C1180 C1181 1.377 . S
C1181 H1165 0.930 . S
C1181 C1180 1.377 . S
C1181 C1182 1.379 . S
C1182 H1166 0.931 . S
C1182 C1176 1.383 . S
C1182 C1181 1.379 . S
H1183 C1177 0.959 . S
H1184 C1177 0.961 . S
H1185 C1177 0.960 . S
H1186 C1178 0.930 . S
H1187 C1179 0.929 . S
H1188 C1196 0.929 . S
H1189 C1198 0.930 . S
H1190 C1200 0.930 . S
H1191 C1203 0.929 . S
H1192 C1206 0.930 . S
H1193 C1208 0.960 . S
H1194 C1208 0.960 . S
H1195 C1208 0.960 . S
C1196 H1188 0.929 . S
C1196 C1197 1.377 1_655 S
C1196 C1198 1.384 . S
C1197 C1196 1.377 1_455 S
C1197 C1203 1.390 . S
C1198 H1189 0.930 . S
C1198 C1196 1.384 . S
C1198 C1199 1.372 1_655 S
C1199 C1198 1.372 1_455 S
C1199 C1200 1.400 . S
C1199 C1204 1.490 . S
C1200 H1190 0.930 . S
C1200 C1199 1.400 . S
C1200 C1203 1.386 . S
H1201 C1217 0.930 . S
H1202 C1218 0.931 . S
C1203 H1191 0.929 . S
C1203 C1197 1.390 . S
C1203 C1200 1.386 . S
C1204 C1199 1.490 . S
C1204 C1206 1.395 . S
C1204 C1207 1.403 . S
H1205 C1211 0.930 . S
C1206 H1192 0.930 . S
C1206 C1204 1.395 . S
C1206 C1209 1.403 . S
C1207 C1204 1.403 . S
C1207 C1208 1.524 . S
C1207 C1211 1.400 . S
C1208 H1193 0.960 . S
C1208 H1194 0.960 . S
C1208 H1195 0.960 . S
C1208 C1207 1.524 . S
C1209 C1206 1.403 . S
C1209 C1210 1.392 . S
C1209 C1213 1.495 . S
C1210 C1209 1.392 . S
C1210 C1211 1.385 . S
C1210 C1212 1.478 . S
C1211 H1205 0.930 . S
C1211 C1207 1.400 . S
C1211 C1210 1.385 . S
C1212 C1210 1.478 . S
C1212 C1214 1.381 1_455 S
C1212 C1218 1.383 . S
C1213 C1209 1.495 . S
C1213 H1219 0.959 1_455 S
C1213 H1220 0.961 . S
C1213 H1221 0.960 1_455 S
C1214 C1212 1.381 1_655 S
C1214 C1215 1.394 1_655 S
C1214 H1222 0.930 . S
C1215 C1214 1.394 1_455 S
C1215 C1216 1.383 . S
C1215 H1223 0.929 1_455 S
C1216 C1215 1.383 . S
C1216 C1217 1.377 . S
C1217 H1201 0.930 . S
C1217 C1216 1.377 . S
C1217 C1218 1.379 . S
C1218 H1202 0.931 . S
C1218 C1212 1.383 . S
C1218 C1217 1.379 . S
H1219 C1213 0.959 1_655 S
H1220 C1213 0.961 . S
H1221 C1213 0.960 1_655 S
H1222 C1214 0.930 . S
H1223 C1215 0.929 1_655 S
H1224 C1232 0.929 . S
H1225 C1234 0.930 . S
H1226 C1236 0.930 . S
H1227 C1239 0.929 . S
H1228 C1242 0.930 . S
H1229 C1244 0.960 . S
H1230 C1244 0.960 . S
H1231 C1244 0.960 . S
C1232 H1224 0.929 . S
C1232 C1233 1.377 . S
C1232 C1234 1.384 . S
C1233 C1232 1.377 . S
C1233 C1239 1.390 . S
C1234 H1225 0.930 . S
C1234 C1232 1.384 . S
C1234 C1235 1.372 . S
C1235 C1234 1.372 . S
C1235 C1236 1.400 . S
C1235 C1240 1.490 . S
C1236 H1226 0.930 . S
C1236 C1235 1.400 . S
C1236 C1239 1.386 . S
H1237 C1253 0.930 . S
H1238 C1254 0.931 . S
C1239 H1227 0.929 . S
C1239 C1233 1.390 . S
C1239 C1236 1.386 . S
C1240 C1235 1.490 . S
C1240 C1242 1.395 . S
C1240 C1243 1.403 . S
H1241 C1247 0.930 . S
C1242 H1228 0.930 . S
C1242 C1240 1.395 . S
C1242 C1245 1.403 . S
C1243 C1240 1.403 . S
C1243 C1244 1.524 . S
C1243 C1247 1.400 . S
C1244 H1229 0.960 . S
C1244 H1230 0.960 . S
C1244 H1231 0.960 . S
C1244 C1243 1.524 . S
C1245 C1242 1.403 . S
C1245 C1246 1.392 . S
C1245 C1249 1.495 . S
C1246 C1245 1.392 . S
C1246 C1247 1.385 . S
C1246 C1248 1.478 . S
C1247 H1241 0.930 . S
C1247 C1243 1.400 . S
C1247 C1246 1.385 . S
C1248 C1246 1.478 . S
C1248 C1250 1.381 . S
C1248 C1254 1.383 . S
C1249 C1245 1.495 . S
C1249 H1255 0.959 . S
C1249 H1256 0.961 . S
C1249 H1257 0.960 . S
C1250 C1248 1.381 . S
C1250 C1251 1.394 . S
C1250 H1258 0.930 . S
C1251 C1250 1.394 . S
C1251 C1252 1.383 . S
C1251 H1259 0.929 . S
C1252 C1251 1.383 . S
C1252 C1253 1.377 . S
C1253 H1237 0.930 . S
C1253 C1252 1.377 . S
C1253 C1254 1.379 . S
C1254 H1238 0.931 . S
C1254 C1248 1.383 . S
C1254 C1253 1.379 . S
H1255 C1249 0.959 . S
H1256 C1249 0.961 . S
H1257 C1249 0.960 . S
H1258 C1250 0.930 . S
H1259 C1251 0.929 . S
H1260 C1268 0.929 . S
H1261 C1270 0.930 . S
H1262 C1272 0.930 . S
H1263 C1275 0.929 . S
H1264 C1278 0.930 . S
H1265 C1280 0.960 . S
H1266 C1280 0.960 . S
H1267 C1280 0.960 . S
C1268 H1260 0.929 . S
C1268 C1269 1.377 . S
C1268 C1270 1.384 . S
C1269 C1268 1.377 . S
C1269 C1275 1.390 1_545 S
C1270 H1261 0.930 . S
C1270 C1268 1.384 . S
C1270 C1271 1.372 . S
C1271 C1270 1.372 . S
C1271 C1272 1.400 1_545 S
C1271 C1276 1.490 . S
C1272 H1262 0.930 . S
C1272 C1271 1.400 1_565 S
C1272 C1275 1.386 . S
H1273 C1289 0.930 1_565 S
H1274 C1290 0.931 1_565 S
C1275 H1263 0.929 . S
C1275 C1269 1.390 1_565 S
C1275 C1272 1.386 . S
C1276 C1271 1.490 . S
C1276 C1278 1.395 . S
C1276 C1279 1.403 . S
H1277 C1283 0.930 . S
C1278 H1264 0.930 . S
C1278 C1276 1.395 . S
C1278 C1281 1.403 . S
C1279 C1276 1.403 . S
C1279 C1280 1.524 . S
C1279 C1283 1.400 . S
C1280 H1265 0.960 . S
C1280 H1266 0.960 . S
C1280 H1267 0.960 . S
C1280 C1279 1.524 . S
C1281 C1278 1.403 . S
C1281 C1282 1.392 . S
C1281 C1285 1.495 . S
C1282 C1281 1.392 . S
C1282 C1283 1.385 . S
C1282 C1284 1.478 . S
C1283 H1277 0.930 . S
C1283 C1279 1.400 . S
C1283 C1282 1.385 . S
C1284 C1282 1.478 . S
C1284 C1286 1.381 . S
C1284 C1290 1.383 . S
C1285 C1281 1.495 . S
C1285 H1291 0.959 . S
C1285 H1292 0.961 . S
C1285 H1293 0.960 . S
C1286 C1284 1.381 . S
C1286 C1287 1.394 . S
C1286 H1294 0.930 . S
C1287 C1286 1.394 . S
C1287 C1288 1.383 . S
C1287 H1295 0.929 . S
C1288 C1287 1.383 . S
C1288 C1289 1.377 . S
C1289 H1273 0.930 1_545 S
C1289 C1288 1.377 . S
C1289 C1290 1.379 . S
C1290 H1274 0.931 1_545 S
C1290 C1284 1.383 . S
C1290 C1289 1.379 . S
H1291 C1285 0.959 . S
H1292 C1285 0.961 . S
H1293 C1285 0.960 . S
H1294 C1286 0.930 . S
H1295 C1287 0.929 . S
H1296 C1304 0.929 . S
H1297 C1306 0.930 . S
H1298 C1308 0.930 1_655 S
H1299 C1311 0.929 1_655 S
H1300 C1314 0.930 . S
H1301 C1316 0.960 . S
H1302 C1316 0.960 . S
H1303 C1316 0.960 . S
C1304 H1296 0.929 . S
C1304 C1305 1.377 . S
C1304 C1306 1.384 . S
C1305 C1304 1.377 . S
C1305 C1311 1.390 . S
C1306 H1297 0.930 . S
C1306 C1304 1.384 . S
C1306 C1307 1.372 . S
C1307 C1306 1.372 . S
C1307 C1308 1.400 . S
C1307 C1312 1.490 . S
C1308 H1298 0.930 1_455 S
C1308 C1307 1.400 . S
C1308 C1311 1.386 . S
H1309 C1325 0.930 . S
H1310 C1326 0.931 . S
C1311 H1299 0.929 1_455 S
C1311 C1305 1.390 . S
C1311 C1308 1.386 . S
C1312 C1307 1.490 . S
C1312 C1314 1.395 . S
C1312 C1315 1.403 . S
H1313 C1319 0.930 1_655 S
C1314 H1300 0.930 . S
C1314 C1312 1.395 . S
C1314 C1317 1.403 . S
C1315 C1312 1.403 . S
C1315 C1316 1.524 1_455 S
C1315 C1319 1.400 . S
C1316 H1301 0.960 . S
C1316 H1302 0.960 . S
C1316 H1303 0.960 . S
C1316 C1315 1.524 1_655 S
C1317 C1314 1.403 . S
C1317 C1318 1.392 . S
C1317 C1321 1.495 . S
C1318 C1317 1.392 . S
C1318 C1319 1.385 . S
C1318 C1320 1.478 . S
C1319 H1313 0.930 1_455 S
C1319 C1315 1.400 . S
C1319 C1318 1.385 . S
C1320 C1318 1.478 . S
C1320 C1322 1.381 . S
C1320 C1326 1.383 1_455 S
C1321 C1317 1.495 . S
C1321 H1327 0.959 . S
C1321 H1328 0.961 . S
C1321 H1329 0.960 . S
C1322 C1320 1.381 . S
C1322 C1323 1.394 . S
C1322 H1330 0.930 . S
C1323 C1322 1.394 . S
C1323 C1324 1.383 . S
C1323 H1331 0.929 . S
C1324 C1323 1.383 . S
C1324 C1325 1.377 1_455 S
C1325 H1309 0.930 . S
C1325 C1324 1.377 1_655 S
C1325 C1326 1.379 . S
C1326 H1310 0.931 . S
C1326 C1320 1.383 1_655 S
C1326 C1325 1.379 . S
H1327 C1321 0.959 . S
H1328 C1321 0.961 . S
H1329 C1321 0.960 . S
H1330 C1322 0.930 . S
H1331 C1323 0.929 . S
H1332 C1340 0.929 . S
H1333 C1342 0.930 . S
H1334 C1344 0.930 . S
H1335 C1347 0.929 . S
H1336 C1350 0.930 . S
H1337 C1352 0.960 . S
H1338 C1352 0.960 . S
H1339 C1352 0.960 . S
C1340 H1332 0.929 . S
C1340 C1341 1.377 . S
C1340 C1342 1.384 . S
C1341 C1340 1.377 . S
C1341 C1347 1.390 . S
C1342 H1333 0.930 . S
C1342 C1340 1.384 . S
C1342 C1343 1.372 . S
C1343 C1342 1.372 . S
C1343 C1344 1.400 . S
C1343 C1348 1.490 . S
C1344 H1334 0.930 . S
C1344 C1343 1.400 . S
C1344 C1347 1.386 . S
H1345 C1361 0.930 . S
H1346 C1362 0.931 . S
C1347 H1335 0.929 . S
C1347 C1341 1.390 . S
C1347 C1344 1.386 . S
C1348 C1343 1.490 . S
C1348 C1350 1.395 . S
C1348 C1351 1.403 . S
H1349 C1355 0.930 . S
C1350 H1336 0.930 . S
C1350 C1348 1.395 . S
C1350 C1353 1.403 . S
C1351 C1348 1.403 . S
C1351 C1352 1.524 . S
C1351 C1355 1.400 . S
C1352 H1337 0.960 . S
C1352 H1338 0.960 . S
C1352 H1339 0.960 . S
C1352 C1351 1.524 . S
C1353 C1350 1.403 . S
C1353 C1354 1.392 . S
C1353 C1357 1.495 . S
C1354 C1353 1.392 . S
C1354 C1355 1.385 . S
C1354 C1356 1.478 . S
C1355 H1349 0.930 . S
C1355 C1351 1.400 . S
C1355 C1354 1.385 . S
C1356 C1354 1.478 . S
C1356 C1358 1.381 . S
C1356 C1362 1.383 . S
C1357 C1353 1.495 . S
C1357 H1363 0.959 . S
C1357 H1364 0.961 . S
C1357 H1365 0.960 . S
C1358 C1356 1.381 . S
C1358 C1359 1.394 . S
C1358 H1366 0.930 . S
C1359 C1358 1.394 . S
C1359 C1360 1.383 . S
C1359 H1367 0.929 . S
C1360 C1359 1.383 . S
C1360 C1361 1.377 . S
C1361 H1345 0.930 . S
C1361 C1360 1.377 . S
C1361 C1362 1.379 . S
C1362 H1346 0.931 . S
C1362 C1356 1.383 . S
C1362 C1361 1.379 . S
H1363 C1357 0.959 . S
H1364 C1357 0.961 . S
H1365 C1357 0.960 . S
H1366 C1358 0.930 . S
H1367 C1359 0.929 . S
H1368 C1376 0.929 . S
H1369 C1378 0.930 . S
H1370 C1380 0.930 . S
H1371 C1383 0.929 . S
H1372 C1386 0.930 . S
H1373 C1388 0.960 . S
H1374 C1388 0.960 . S
H1375 C1388 0.960 . S
C1376 H1368 0.929 . S
C1376 C1377 1.377 . S
C1376 C1378 1.384 . S
C1377 C1376 1.377 . S
C1377 C1383 1.390 . S
C1378 H1369 0.930 . S
C1378 C1376 1.384 . S
C1378 C1379 1.372 . S
C1379 C1378 1.372 . S
C1379 C1380 1.400 . S
C1379 C1384 1.490 . S
C1380 H1370 0.930 . S
C1380 C1379 1.400 . S
C1380 C1383 1.386 . S
H1381 C1397 0.930 . S
H1382 C1398 0.931 . S
C1383 H1371 0.929 . S
C1383 C1377 1.390 . S
C1383 C1380 1.386 . S
C1384 C1379 1.490 . S
C1384 C1386 1.395 . S
C1384 C1387 1.403 . S
H1385 C1391 0.930 . S
C1386 H1372 0.930 . S
C1386 C1384 1.395 . S
C1386 C1389 1.403 . S
C1387 C1384 1.403 . S
C1387 C1388 1.524 . S
C1387 C1391 1.400 . S
C1388 H1373 0.960 . S
C1388 H1374 0.960 . S
C1388 H1375 0.960 . S
C1388 C1387 1.524 . S
C1389 C1386 1.403 . S
C1389 C1390 1.392 . S
C1389 C1393 1.495 . S
C1390 C1389 1.392 . S
C1390 C1391 1.385 . S
C1390 C1392 1.478 . S
C1391 H1385 0.930 . S
C1391 C1387 1.400 . S
C1391 C1390 1.385 . S
C1392 C1390 1.478 . S
C1392 C1394 1.381 . S
C1392 C1398 1.383 . S
C1393 C1389 1.495 . S
C1393 H1399 0.959 . S
C1393 H1400 0.961 . S
C1393 H1401 0.960 . S
C1394 C1392 1.381 . S
C1394 C1395 1.394 . S
C1394 H1402 0.930 . S
C1395 C1394 1.394 . S
C1395 C1396 1.383 . S
C1395 H1403 0.929 . S
C1396 C1395 1.383 . S
C1396 C1397 1.377 . S
C1397 H1381 0.930 . S
C1397 C1396 1.377 . S
C1397 C1398 1.379 . S
C1398 H1382 0.931 . S
C1398 C1392 1.383 . S
C1398 C1397 1.379 . S
H1399 C1393 0.959 . S
H1400 C1393 0.961 . S
H1401 C1393 0.960 . S
H1402 C1394 0.930 . S
H1403 C1395 0.929 . S
H1404 C1412 0.929 . S
H1405 C1414 0.930 . S
H1406 C1416 0.930 . S
H1407 C1419 0.929 . S
H1408 C1422 0.930 . S
H1409 C1424 0.960 . S
H1410 C1424 0.960 . S
H1411 C1424 0.960 . S
C1412 H1404 0.929 . S
C1412 C1413 1.377 . S
C1412 C1414 1.384 . S
C1413 C1412 1.377 . S
C1413 C1419 1.390 . S
C1414 H1405 0.930 . S
C1414 C1412 1.384 . S
C1414 C1415 1.372 . S
C1415 C1414 1.372 . S
C1415 C1416 1.400 . S
C1415 C1420 1.490 . S
C1416 H1406 0.930 . S
C1416 C1415 1.400 . S
C1416 C1419 1.386 . S
H1417 C1433 0.930 . S
H1418 C1434 0.931 . S
C1419 H1407 0.929 . S
C1419 C1413 1.390 . S
C1419 C1416 1.386 . S
C1420 C1415 1.490 . S
C1420 C1422 1.395 . S
C1420 C1423 1.403 . S
H1421 C1427 0.930 . S
C1422 H1408 0.930 . S
C1422 C1420 1.395 . S
C1422 C1425 1.403 . S
C1423 C1420 1.403 . S
C1423 C1424 1.524 . S
C1423 C1427 1.400 . S
C1424 H1409 0.960 . S
C1424 H1410 0.960 . S
C1424 H1411 0.960 . S
C1424 C1423 1.524 . S
C1425 C1422 1.403 . S
C1425 C1426 1.392 . S
C1425 C1429 1.495 . S
C1426 C1425 1.392 . S
C1426 C1427 1.385 . S
C1426 C1428 1.478 . S
C1427 H1421 0.930 . S
C1427 C1423 1.400 . S
C1427 C1426 1.385 . S
C1428 C1426 1.478 . S
C1428 C1430 1.381 . S
C1428 C1434 1.383 . S
C1429 C1425 1.495 . S
C1429 H1435 0.959 . S
C1429 H1436 0.961 . S
C1429 H1437 0.960 . S
C1430 C1428 1.381 . S
C1430 C1431 1.394 . S
C1430 H1438 0.930 . S
C1431 C1430 1.394 . S
C1431 C1432 1.383 . S
C1431 H1439 0.929 . S
C1432 C1431 1.383 . S
C1432 C1433 1.377 . S
C1433 H1417 0.930 . S
C1433 C1432 1.377 . S
C1433 C1434 1.379 . S
C1434 H1418 0.931 . S
C1434 C1428 1.383 . S
C1434 C1433 1.379 . S
H1435 C1429 0.959 . S
H1436 C1429 0.961 . S
H1437 C1429 0.960 . S
H1438 C1430 0.930 . S
H1439 C1431 0.929 . S
H1440 C1448 0.929 . S
H1441 C1450 0.930 . S
H1442 C1452 0.930 . S
H1443 C1455 0.929 . S
H1444 C1458 0.930 . S
H1445 C1460 0.960 . S
H1446 C1460 0.960 . S
H1447 C1460 0.960 . S
C1448 H1440 0.929 . S
C1448 C1449 1.377 . S
C1448 C1450 1.384 . S
C1449 C1448 1.377 . S
C1449 C1455 1.390 . S
C1450 H1441 0.930 . S
C1450 C1448 1.384 . S
C1450 C1451 1.372 . S
C1451 C1450 1.372 . S
C1451 C1452 1.400 . S
C1451 C1456 1.490 . S
C1452 H1442 0.930 . S
C1452 C1451 1.400 . S
C1452 C1455 1.386 . S
H1453 C1469 0.930 . S
H1454 C1470 0.931 . S
C1455 H1443 0.929 . S
C1455 C1449 1.390 . S
C1455 C1452 1.386 . S
C1456 C1451 1.490 . S
C1456 C1458 1.395 . S
C1456 C1459 1.403 . S
H1457 C1463 0.930 . S
C1458 H1444 0.930 . S
C1458 C1456 1.395 . S
C1458 C1461 1.403 . S
C1459 C1456 1.403 . S
C1459 C1460 1.524 . S
C1459 C1463 1.400 . S
C1460 H1445 0.960 . S
C1460 H1446 0.960 . S
C1460 H1447 0.960 . S
C1460 C1459 1.524 . S
C1461 C1458 1.403 . S
C1461 C1462 1.392 . S
C1461 C1465 1.495 . S
C1462 C1461 1.392 . S
C1462 C1463 1.385 . S
C1462 C1464 1.478 . S
C1463 H1457 0.930 . S
C1463 C1459 1.400 . S
C1463 C1462 1.385 . S
C1464 C1462 1.478 . S
C1464 C1466 1.381 . S
C1464 C1470 1.383 . S
C1465 C1461 1.495 . S
C1465 H1471 0.959 . S
C1465 H1472 0.961 . S
C1465 H1473 0.960 . S
C1466 C1464 1.381 . S
C1466 C1467 1.394 . S
C1466 H1474 0.930 . S
C1467 C1466 1.394 . S
C1467 C1468 1.383 . S
C1467 H1475 0.929 . S
C1468 C1467 1.383 . S
C1468 C1469 1.377 . S
C1469 H1453 0.930 . S
C1469 C1468 1.377 . S
C1469 C1470 1.379 . S
C1470 H1454 0.931 . S
C1470 C1464 1.383 . S
C1470 C1469 1.379 . S
H1471 C1465 0.959 . S
H1472 C1465 0.961 . S
H1473 C1465 0.960 . S
H1474 C1466 0.930 . S
H1475 C1467 0.929 . S
H1476 C1484 0.929 . S
H1477 C1486 0.930 . S
H1478 C1488 0.930 . S
H1479 C1491 0.929 . S
H1480 C1494 0.930 . S
H1481 C1496 0.960 . S
H1482 C1496 0.960 . S
H1483 C1496 0.960 . S
C1484 H1476 0.929 . S
C1484 C1485 1.377 . S
C1484 C1486 1.384 . S
C1485 C1484 1.377 . S
C1485 C1491 1.390 . S
C1486 H1477 0.930 . S
C1486 C1484 1.384 . S
C1486 C1487 1.372 . S
C1487 C1486 1.372 . S
C1487 C1488 1.400 . S
C1487 C1492 1.490 . S
C1488 H1478 0.930 . S
C1488 C1487 1.400 . S
C1488 C1491 1.386 . S
H1489 C1505 0.930 . S
H1490 C1506 0.931 . S
C1491 H1479 0.929 . S
C1491 C1485 1.390 . S
C1491 C1488 1.386 . S
C1492 C1487 1.490 . S
C1492 C1494 1.395 . S
C1492 C1495 1.403 . S
H1493 C1499 0.930 . S
C1494 H1480 0.930 . S
C1494 C1492 1.395 . S
C1494 C1497 1.403 . S
C1495 C1492 1.403 . S
C1495 C1496 1.524 . S
C1495 C1499 1.400 . S
C1496 H1481 0.960 . S
C1496 H1482 0.960 . S
C1496 H1483 0.960 . S
C1496 C1495 1.524 . S
C1497 C1494 1.403 . S
C1497 C1498 1.392 . S
C1497 C1501 1.495 . S
C1498 C1497 1.392 . S
C1498 C1499 1.385 . S
C1498 C1500 1.478 . S
C1499 H1493 0.930 . S
C1499 C1495 1.400 . S
C1499 C1498 1.385 . S
C1500 C1498 1.478 . S
C1500 C1502 1.381 . S
C1500 C1506 1.383 . S
C1501 C1497 1.495 . S
C1501 H1507 0.959 . S
C1501 H1508 0.961 . S
C1501 H1509 0.960 . S
C1502 C1500 1.381 . S
C1502 C1503 1.394 . S
C1502 H1510 0.930 . S
C1503 C1502 1.394 . S
C1503 C1504 1.383 . S
C1503 H1511 0.929 . S
C1504 C1503 1.383 . S
C1504 C1505 1.377 . S
C1505 H1489 0.930 . S
C1505 C1504 1.377 . S
C1505 C1506 1.379 . S
C1506 H1490 0.931 . S
C1506 C1500 1.383 . S
C1506 C1505 1.379 . S
H1507 C1501 0.959 . S
H1508 C1501 0.961 . S
H1509 C1501 0.960 . S
H1510 C1502 0.930 . S
H1511 C1503 0.929 . S
H1512 C1520 0.929 . S
H1513 C1522 0.930 . S
H1514 C1524 0.930 . S
H1515 C1527 0.929 . S
H1516 C1530 0.930 . S
H1517 C1532 0.960 . S
H1518 C1532 0.960 . S
H1519 C1532 0.960 . S
C1520 H1512 0.929 . S
C1520 C1521 1.377 . S
C1520 C1522 1.384 . S
C1521 C1520 1.377 . S
C1521 C1527 1.390 . S
C1522 H1513 0.930 . S
C1522 C1520 1.384 . S
C1522 C1523 1.372 . S
C1523 C1522 1.372 . S
C1523 C1524 1.400 . S
C1523 C1528 1.490 . S
C1524 H1514 0.930 . S
C1524 C1523 1.400 . S
C1524 C1527 1.386 . S
H1525 C1541 0.930 . S
H1526 C1542 0.931 . S
C1527 H1515 0.929 . S
C1527 C1521 1.390 . S
C1527 C1524 1.386 . S
C1528 C1523 1.490 . S
C1528 C1530 1.395 . S
C1528 C1531 1.403 . S
H1529 C1535 0.930 . S
C1530 H1516 0.930 . S
C1530 C1528 1.395 . S
C1530 C1533 1.403 . S
C1531 C1528 1.403 . S
C1531 C1532 1.524 . S
C1531 C1535 1.400 . S
C1532 H1517 0.960 . S
C1532 H1518 0.960 . S
C1532 H1519 0.960 . S
C1532 C1531 1.524 . S
C1533 C1530 1.403 . S
C1533 C1534 1.392 . S
C1533 C1537 1.495 . S
C1534 C1533 1.392 . S
C1534 C1535 1.385 . S
C1534 C1536 1.478 . S
C1535 H1529 0.930 . S
C1535 C1531 1.400 . S
C1535 C1534 1.385 . S
C1536 C1534 1.478 . S
C1536 C1538 1.381 . S
C1536 C1542 1.383 . S
C1537 C1533 1.495 . S
C1537 H1543 0.959 . S
C1537 H1544 0.961 . S
C1537 H1545 0.960 . S
C1538 C1536 1.381 . S
C1538 C1539 1.394 . S
C1538 H1546 0.930 . S
C1539 C1538 1.394 . S
C1539 C1540 1.383 . S
C1539 H1547 0.929 . S
C1540 C1539 1.383 . S
C1540 C1541 1.377 . S
C1541 H1525 0.930 . S
C1541 C1540 1.377 . S
C1541 C1542 1.379 . S
C1542 H1526 0.931 . S
C1542 C1536 1.383 . S
C1542 C1541 1.379 . S
H1543 C1537 0.959 . S
H1544 C1537 0.961 . S
H1545 C1537 0.960 . S
H1546 C1538 0.930 . S
H1547 C1539 0.929 . S
H1548 C1556 0.929 . S
H1549 C1558 0.930 . S
H1550 C1560 0.930 . S
H1551 C1563 0.929 . S
H1552 C1566 0.930 . S
H1553 C1568 0.960 . S
H1554 C1568 0.960 . S
H1555 C1568 0.960 . S
C1556 H1548 0.929 . S
C1556 C1557 1.377 . S
C1556 C1558 1.384 . S
C1557 C1556 1.377 . S
C1557 C1563 1.390 . S
C1558 H1549 0.930 . S
C1558 C1556 1.384 . S
C1558 C1559 1.372 . S
C1559 C1558 1.372 . S
C1559 C1560 1.400 . S
C1559 C1564 1.490 . S
C1560 H1550 0.930 . S
C1560 C1559 1.400 . S
C1560 C1563 1.386 . S
H1561 C1577 0.930 . S
H1562 C1578 0.931 . S
C1563 H1551 0.929 . S
C1563 C1557 1.390 . S
C1563 C1560 1.386 . S
C1564 C1559 1.490 . S
C1564 C1566 1.395 . S
C1564 C1567 1.403 . S
H1565 C1571 0.930 . S
C1566 H1552 0.930 . S
C1566 C1564 1.395 . S
C1566 C1569 1.403 . S
C1567 C1564 1.403 . S
C1567 C1568 1.524 . S
C1567 C1571 1.400 . S
C1568 H1553 0.960 . S
C1568 H1554 0.960 . S
C1568 H1555 0.960 . S
C1568 C1567 1.524 . S
C1569 C1566 1.403 . S
C1569 C1570 1.392 . S
C1569 C1573 1.495 . S
C1570 C1569 1.392 . S
C1570 C1571 1.385 . S
C1570 C1572 1.478 . S
C1571 H1565 0.930 . S
C1571 C1567 1.400 . S
C1571 C1570 1.385 . S
C1572 C1570 1.478 . S
C1572 C1574 1.381 . S
C1572 C1578 1.383 . S
C1573 C1569 1.495 . S
C1573 H1579 0.959 . S
C1573 H1580 0.961 . S
C1573 H1581 0.960 . S
C1574 C1572 1.381 . S
C1574 C1575 1.394 . S
C1574 H1582 0.930 . S
C1575 C1574 1.394 . S
C1575 C1576 1.383 . S
C1575 H1583 0.929 . S
C1576 C1575 1.383 . S
C1576 C1577 1.377 . S
C1577 H1561 0.930 . S
C1577 C1576 1.377 . S
C1577 C1578 1.379 . S
C1578 H1562 0.931 . S
C1578 C1572 1.383 . S
C1578 C1577 1.379 . S
H1579 C1573 0.959 . S
H1580 C1573 0.961 . S
H1581 C1573 0.960 . S
H1582 C1574 0.930 . S
H1583 C1575 0.929 . S
H1584 C1592 0.929 . S
H1585 C1594 0.930 . S
H1586 C1596 0.930 . S
H1587 C1599 0.929 . S
H1588 C1602 0.930 . S
H1589 C1604 0.960 . S
H1590 C1604 0.960 . S
H1591 C1604 0.960 . S
C1592 H1584 0.929 . S
C1592 C1593 1.377 . S
C1592 C1594 1.384 . S
C1593 C1592 1.377 . S
C1593 C1599 1.390 . S
C1594 H1585 0.930 . S
C1594 C1592 1.384 . S
C1594 C1595 1.372 . S
C1595 C1594 1.372 . S
C1595 C1596 1.400 . S
C1595 C1600 1.490 . S
C1596 H1586 0.930 . S
C1596 C1595 1.400 . S
C1596 C1599 1.386 . S
H1597 C1613 0.930 . S
H1598 C1614 0.931 . S
C1599 H1587 0.929 . S
C1599 C1593 1.390 . S
C1599 C1596 1.386 . S
C1600 C1595 1.490 . S
C1600 C1602 1.395 . S
C1600 C1603 1.403 . S
H1601 C1607 0.930 . S
C1602 H1588 0.930 . S
C1602 C1600 1.395 . S
C1602 C1605 1.403 . S
C1603 C1600 1.403 . S
C1603 C1604 1.524 . S
C1603 C1607 1.400 . S
C1604 H1589 0.960 . S
C1604 H1590 0.960 . S
C1604 H1591 0.960 . S
C1604 C1603 1.524 . S
C1605 C1602 1.403 . S
C1605 C1606 1.392 . S
C1605 C1609 1.495 . S
C1606 C1605 1.392 . S
C1606 C1607 1.385 . S
C1606 C1608 1.478 . S
C1607 H1601 0.930 . S
C1607 C1603 1.400 . S
C1607 C1606 1.385 . S
C1608 C1606 1.478 . S
C1608 C1610 1.381 . S
C1608 C1614 1.383 . S
C1609 C1605 1.495 . S
C1609 H1615 0.959 . S
C1609 H1616 0.961 . S
C1609 H1617 0.960 . S
C1610 C1608 1.381 . S
C1610 C1611 1.394 . S
C1610 H1618 0.930 . S
C1611 C1610 1.394 . S
C1611 C1612 1.383 . S
C1611 H1619 0.929 . S
C1612 C1611 1.383 . S
C1612 C1613 1.377 . S
C1613 H1597 0.930 . S
C1613 C1612 1.377 . S
C1613 C1614 1.379 . S
C1614 H1598 0.931 . S
C1614 C1608 1.383 . S
C1614 C1613 1.379 . S
H1615 C1609 0.959 . S
H1616 C1609 0.961 . S
H1617 C1609 0.960 . S
H1618 C1610 0.930 . S
H1619 C1611 0.929 . S
H1620 C1628 0.929 . S
H1621 C1630 0.930 . S
H1622 C1632 0.930 . S
H1623 C1635 0.929 . S
H1624 C1638 0.930 . S
H1625 C1640 0.960 . S
H1626 C1640 0.960 . S
H1627 C1640 0.960 . S
C1628 H1620 0.929 . S
C1628 C1629 1.377 . S
C1628 C1630 1.384 . S
C1629 C1628 1.377 . S
C1629 C1635 1.390 . S
C1630 H1621 0.930 . S
C1630 C1628 1.384 . S
C1630 C1631 1.372 . S
C1631 C1630 1.372 . S
C1631 C1632 1.400 . S
C1631 C1636 1.490 . S
C1632 H1622 0.930 . S
C1632 C1631 1.400 . S
C1632 C1635 1.386 . S
H1633 C1649 0.930 . S
H1634 C1650 0.931 . S
C1635 H1623 0.929 . S
C1635 C1629 1.390 . S
C1635 C1632 1.386 . S
C1636 C1631 1.490 . S
C1636 C1638 1.395 . S
C1636 C1639 1.403 . S
H1637 C1643 0.930 . S
C1638 H1624 0.930 . S
C1638 C1636 1.395 . S
C1638 C1641 1.403 . S
C1639 C1636 1.403 . S
C1639 C1640 1.524 . S
C1639 C1643 1.400 . S
C1640 H1625 0.960 . S
C1640 H1626 0.960 . S
C1640 H1627 0.960 . S
C1640 C1639 1.524 . S
C1641 C1638 1.403 . S
C1641 C1642 1.392 . S
C1641 C1645 1.495 . S
C1642 C1641 1.392 . S
C1642 C1643 1.385 . S
C1642 C1644 1.478 . S
C1643 H1637 0.930 . S
C1643 C1639 1.400 . S
C1643 C1642 1.385 . S
C1644 C1642 1.478 . S
C1644 C1646 1.381 . S
C1644 C1650 1.383 . S
C1645 C1641 1.495 . S
C1645 H1651 0.959 . S
C1645 H1652 0.961 . S
C1645 H1653 0.960 . S
C1646 C1644 1.381 . S
C1646 C1647 1.394 . S
C1646 H1654 0.930 . S
C1647 C1646 1.394 . S
C1647 C1648 1.383 . S
C1647 H1655 0.929 . S
C1648 C1647 1.383 . S
C1648 C1649 1.377 . S
C1649 H1633 0.930 . S
C1649 C1648 1.377 . S
C1649 C1650 1.379 . S
C1650 H1634 0.931 . S
C1650 C1644 1.383 . S
C1650 C1649 1.379 . S
H1651 C1645 0.959 . S
H1652 C1645 0.961 . S
H1653 C1645 0.960 . S
H1654 C1646 0.930 . S
H1655 C1647 0.929 . S
H1656 C1664 0.929 . S
H1657 C1666 0.930 . S
H1658 C1668 0.930 . S
H1659 C1671 0.929 . S
H1660 C1674 0.930 . S
H1661 C1676 0.960 . S
H1662 C1676 0.960 . S
H1663 C1676 0.960 . S
C1664 H1656 0.929 . S
C1664 C1665 1.377 . S
C1664 C1666 1.384 . S
C1665 C1664 1.377 . S
C1665 C1671 1.390 . S
C1666 H1657 0.930 . S
C1666 C1664 1.384 . S
C1666 C1667 1.372 . S
C1667 C1666 1.372 . S
C1667 C1668 1.400 . S
C1667 C1672 1.490 . S
C1668 H1658 0.930 . S
C1668 C1667 1.400 . S
C1668 C1671 1.386 . S
H1669 C1685 0.913 1_556 S
H1670 C1686 0.931 . S
C1671 H1659 0.929 . S
C1671 C1665 1.390 . S
C1671 C1668 1.386 . S
C1672 C1667 1.490 . S
C1672 C1674 1.395 . S
C1672 C1675 1.403 . S
H1673 C1679 0.930 . S
C1674 H1660 0.930 . S
C1674 C1672 1.395 . S
C1674 C1677 1.403 . S
C1675 C1672 1.403 . S
C1675 C1676 1.524 . S
C1675 C1679 1.400 . S
C1676 H1661 0.960 . S
C1676 H1662 0.960 . S
C1676 H1663 0.960 . S
C1676 C1675 1.524 . S
C1677 C1674 1.403 . S
C1677 C1678 1.392 . S
C1677 C1681 1.495 . S
C1678 C1677 1.392 . S
C1678 C1679 1.385 . S
C1678 C1680 1.478 . S
C1679 H1673 0.930 . S
C1679 C1675 1.400 . S
C1679 C1678 1.385 . S
C1680 C1678 1.478 . S
C1680 C1682 1.381 . S
C1680 C1686 1.383 . S
C1681 C1677 1.495 . S
C1681 H1687 0.959 . S
C1681 H1688 0.961 . S
C1681 H1689 0.960 . S
C1682 C1680 1.381 . S
C1682 C1683 1.394 . S
C1682 H1690 0.930 . S
C1683 C1682 1.394 . S
C1683 C1684 1.383 . S
C1683 H1691 0.929 . S
C1684 C1683 1.383 . S
C1684 C1685 1.379 . S
C1685 H1669 0.913 1_554 S
C1685 C1684 1.379 . S
C1685 C1686 1.394 . S
C1686 H1670 0.931 . S
C1686 C1680 1.383 . S
C1686 C1685 1.394 . S
H1687 C1681 0.959 . S
H1688 C1681 0.961 . S
H1689 C1681 0.960 . S
H1690 C1682 0.930 . S
H1691 C1683 0.929 . S
H1692 C1700 0.929 . S
H1693 C1702 0.930 . S
H1694 C1704 0.930 . S
H1695 C1707 0.929 . S
H1696 C1710 0.930 . S
H1697 C1712 0.960 . S
H1698 C1712 0.960 . S
H1699 C1712 0.960 . S
C1700 H1692 0.929 . S
C1700 C1701 1.377 . S
C1700 C1702 1.384 . S
C1701 C1700 1.377 . S
C1701 C1707 1.390 . S
C1702 H1693 0.930 . S
C1702 C1700 1.384 . S
C1702 C1703 1.372 . S
C1703 C1702 1.372 . S
C1703 C1704 1.400 . S
C1703 C1708 1.490 . S
C1704 H1694 0.930 . S
C1704 C1703 1.400 . S
C1704 C1707 1.386 . S
H1705 C1721 0.930 . S
H1706 C1722 0.931 . S
C1707 H1695 0.929 . S
C1707 C1701 1.390 . S
C1707 C1704 1.386 . S
C1708 C1703 1.490 . S
C1708 C1710 1.395 . S
C1708 C1711 1.403 . S
H1709 C1715 0.930 . S
C1710 H1696 0.930 . S
C1710 C1708 1.395 . S
C1710 C1713 1.403 . S
C1711 C1708 1.403 . S
C1711 C1712 1.524 . S
C1711 C1715 1.400 . S
C1712 H1697 0.960 . S
C1712 H1698 0.960 . S
C1712 H1699 0.960 . S
C1712 C1711 1.524 . S
C1713 C1710 1.403 . S
C1713 C1714 1.392 . S
C1713 C1717 1.495 . S
C1714 C1713 1.392 . S
C1714 C1715 1.385 . S
C1714 C1716 1.478 . S
C1715 H1709 0.930 . S
C1715 C1711 1.400 . S
C1715 C1714 1.385 . S
C1716 C1714 1.478 . S
C1716 C1718 1.381 . S
C1716 C1722 1.383 . S
C1717 C1713 1.495 . S
C1717 H1723 0.959 . S
C1717 H1724 0.961 . S
C1717 H1725 0.960 . S
C1718 C1716 1.381 . S
C1718 C1719 1.394 . S
C1718 H1726 0.930 . S
C1719 C1718 1.394 . S
C1719 C1720 1.383 . S
C1719 H1727 0.929 . S
C1720 C1719 1.383 . S
C1720 C1721 1.377 . S
C1721 H1705 0.930 . S
C1721 C1720 1.377 . S
C1721 C1722 1.379 . S
C1722 H1706 0.931 . S
C1722 C1716 1.383 . S
C1722 C1721 1.379 . S
H1723 C1717 0.959 . S
H1724 C1717 0.961 . S
H1725 C1717 0.960 . S
H1726 C1718 0.930 . S
H1727 C1719 0.929 . S
H1728 C1736 0.929 . S
H1729 C1738 0.930 . S
H1730 C1740 0.930 . S
H1731 C1743 0.929 . S
H1732 C1746 0.930 . S
H1733 C1748 0.960 . S
H1734 C1748 0.960 . S
H1735 C1748 0.960 . S
C1736 H1728 0.929 . S
C1736 C1737 1.377 . S
C1736 C1738 1.384 . S
C1737 C1736 1.377 . S
C1737 C1743 1.390 . S
C1738 H1729 0.930 . S
C1738 C1736 1.384 . S
C1738 C1739 1.372 . S
C1739 C1738 1.372 . S
C1739 C1740 1.400 . S
C1739 C1744 1.490 . S
C1740 H1730 0.930 . S
C1740 C1739 1.400 . S
C1740 C1743 1.386 . S
H1741 C1757 0.930 . S
H1742 C1758 0.931 . S
C1743 H1731 0.929 . S
C1743 C1737 1.390 . S
C1743 C1740 1.386 . S
C1744 C1739 1.490 . S
C1744 C1746 1.395 . S
C1744 C1747 1.403 . S
H1745 C1751 0.930 . S
C1746 H1732 0.930 . S
C1746 C1744 1.395 . S
C1746 C1749 1.403 . S
C1747 C1744 1.403 . S
C1747 C1748 1.524 . S
C1747 C1751 1.400 . S
C1748 H1733 0.960 . S
C1748 H1734 0.960 . S
C1748 H1735 0.960 . S
C1748 C1747 1.524 . S
C1749 C1746 1.403 . S
C1749 C1750 1.392 . S
C1749 C1753 1.495 . S
C1750 C1749 1.392 . S
C1750 C1751 1.385 . S
C1750 C1752 1.478 . S
C1751 H1745 0.930 . S
C1751 C1747 1.400 . S
C1751 C1750 1.385 . S
C1752 C1750 1.478 . S
C1752 C1754 1.381 . S
C1752 C1758 1.383 . S
C1753 C1749 1.495 . S
C1753 H1759 0.959 . S
C1753 H1760 0.961 . S
C1753 H1761 0.960 . S
C1754 C1752 1.381 . S
C1754 C1755 1.394 . S
C1754 H1762 0.930 . S
C1755 C1754 1.394 . S
C1755 C1756 1.383 . S
C1755 H1763 0.929 . S
C1756 C1755 1.383 . S
C1756 C1757 1.377 . S
C1757 H1741 0.930 . S
C1757 C1756 1.377 . S
C1757 C1758 1.379 . S
C1758 H1742 0.931 . S
C1758 C1752 1.383 . S
C1758 C1757 1.379 . S
H1759 C1753 0.959 . S
H1760 C1753 0.961 . S
H1761 C1753 0.960 . S
H1762 C1754 0.930 . S
H1763 C1755 0.929 . S
H1764 C1772 0.929 . S
H1765 C1774 0.930 . S
H1766 C1776 0.930 . S
H1767 C1779 0.929 . S
H1768 C1782 0.930 . S
H1769 C1784 0.960 . S
H1770 C1784 0.960 . S
H1771 C1784 0.960 . S
C1772 H1764 0.929 . S
C1772 C1773 1.377 . S
C1772 C1774 1.384 . S
C1773 C1772 1.377 . S
C1773 C1779 1.390 . S
C1774 H1765 0.930 . S
C1774 C1772 1.384 . S
C1774 C1775 1.372 . S
C1775 C1774 1.372 . S
C1775 C1776 1.400 . S
C1775 C1780 1.490 . S
C1776 H1766 0.930 . S
C1776 C1775 1.400 . S
C1776 C1779 1.386 . S
H1777 C1793 0.930 . S
H1778 C1794 0.931 . S
C1779 H1767 0.929 . S
C1779 C1773 1.390 . S
C1779 C1776 1.386 . S
C1780 C1775 1.490 . S
C1780 C1782 1.395 . S
C1780 C1783 1.403 . S
H1781 C1787 0.930 . S
C1782 H1768 0.930 . S
C1782 C1780 1.395 . S
C1782 C1785 1.403 . S
C1783 C1780 1.403 . S
C1783 C1784 1.524 . S
C1783 C1787 1.400 . S
C1784 H1769 0.960 . S
C1784 H1770 0.960 . S
C1784 H1771 0.960 . S
C1784 C1783 1.524 . S
C1785 C1782 1.403 . S
C1785 C1786 1.392 . S
C1785 C1789 1.495 . S
C1786 C1785 1.392 . S
C1786 C1787 1.385 . S
C1786 C1788 1.478 . S
C1787 H1781 0.930 . S
C1787 C1783 1.400 . S
C1787 C1786 1.385 . S
C1788 C1786 1.478 . S
C1788 C1790 1.381 . S
C1788 C1794 1.383 . S
C1789 C1785 1.495 . S
C1789 H1795 0.959 . S
C1789 H1796 0.961 . S
C1789 H1797 0.960 . S
C1790 C1788 1.381 . S
C1790 C1791 1.394 . S
C1790 H1798 0.930 . S
C1791 C1790 1.394 . S
C1791 C1792 1.383 . S
C1791 H1799 0.929 . S
C1792 C1791 1.383 . S
C1792 C1793 1.377 . S
C1793 H1777 0.930 . S
C1793 C1792 1.377 . S
C1793 C1794 1.379 . S
C1794 H1778 0.931 . S
C1794 C1788 1.383 . S
C1794 C1793 1.379 . S
H1795 C1789 0.959 . S
H1796 C1789 0.961 . S
H1797 C1789 0.960 . S
H1798 C1790 0.930 . S
H1799 C1791 0.929 . S
H1800 C1808 0.929 . S
H1801 C1810 0.930 . S
H1802 C1812 0.930 . S
H1803 C1815 0.929 . S
H1804 C1818 0.930 . S
H1805 C1820 0.960 . S
H1806 C1820 0.960 . S
H1807 C1820 0.960 . S
C1808 H1800 0.929 . S
C1808 C1809 1.377 . S
C1808 C1810 1.384 . S
C1809 C1808 1.377 . S
C1809 C1815 1.390 . S
C1810 H1801 0.930 . S
C1810 C1808 1.384 . S
C1810 C1811 1.372 . S
C1811 C1810 1.372 . S
C1811 C1812 1.400 . S
C1811 C1816 1.490 . S
C1812 H1802 0.930 . S
C1812 C1811 1.400 . S
C1812 C1815 1.386 . S
H1813 C1829 0.930 . S
H1814 C1830 0.931 . S
C1815 H1803 0.929 . S
C1815 C1809 1.390 . S
C1815 C1812 1.386 . S
C1816 C1811 1.490 . S
C1816 C1818 1.395 . S
C1816 C1819 1.403 . S
H1817 C1823 0.930 . S
C1818 H1804 0.930 . S
C1818 C1816 1.395 . S
C1818 C1821 1.403 . S
C1819 C1816 1.403 . S
C1819 C1820 1.524 . S
C1819 C1823 1.400 . S
C1820 H1805 0.960 . S
C1820 H1806 0.960 . S
C1820 H1807 0.960 . S
C1820 C1819 1.524 . S
C1821 C1818 1.403 . S
C1821 C1822 1.392 . S
C1821 C1825 1.495 . S
C1822 C1821 1.392 . S
C1822 C1823 1.385 . S
C1822 C1824 1.478 . S
C1823 H1817 0.930 . S
C1823 C1819 1.400 . S
C1823 C1822 1.385 . S
C1824 C1822 1.478 . S
C1824 C1826 1.381 . S
C1824 C1830 1.383 . S
C1825 C1821 1.495 . S
C1825 H1831 0.959 . S
C1825 H1832 0.961 . S
C1825 H1833 0.960 . S
C1826 C1824 1.381 . S
C1826 C1827 1.394 . S
C1826 H1834 0.930 . S
C1827 C1826 1.394 . S
C1827 C1828 1.383 . S
C1827 H1835 0.929 . S
C1828 C1827 1.383 . S
C1828 C1829 1.377 . S
C1829 H1813 0.930 . S
C1829 C1828 1.377 . S
C1829 C1830 1.379 . S
C1830 H1814 0.931 . S
C1830 C1824 1.383 . S
C1830 C1829 1.379 . S
H1831 C1825 0.959 . S
H1832 C1825 0.961 . S
H1833 C1825 0.960 . S
H1834 C1826 0.930 . S
H1835 C1827 0.929 . S
H1836 C1844 0.929 . S
H1837 C1846 0.930 . S
H1838 C1848 0.930 . S
H1839 C1851 0.929 . S
H1840 C1854 0.930 . S
H1841 C1856 0.960 . S
H1842 C1856 0.960 . S
H1843 C1856 0.960 . S
C1844 H1836 0.929 . S
C1844 C1845 1.377 . S
C1844 C1846 1.384 . S
C1845 C1844 1.377 . S
C1845 C1851 1.390 . S
C1846 H1837 0.930 . S
C1846 C1844 1.384 . S
C1846 C1847 1.372 . S
C1847 C1846 1.372 . S
C1847 C1848 1.400 . S
C1847 C1852 1.490 . S
C1848 H1838 0.930 . S
C1848 C1847 1.400 . S
C1848 C1851 1.386 . S
H1849 C1865 0.930 . S
H1850 C1866 0.931 . S
C1851 H1839 0.929 . S
C1851 C1845 1.390 . S
C1851 C1848 1.386 . S
C1852 C1847 1.490 . S
C1852 C1854 1.395 . S
C1852 C1855 1.403 . S
H1853 C1859 0.930 . S
C1854 H1840 0.930 . S
C1854 C1852 1.395 . S
C1854 C1857 1.403 . S
C1855 C1852 1.403 . S
C1855 C1856 1.524 . S
C1855 C1859 1.400 . S
C1856 H1841 0.960 . S
C1856 H1842 0.960 . S
C1856 H1843 0.960 . S
C1856 C1855 1.524 . S
C1857 C1854 1.403 . S
C1857 C1858 1.392 . S
C1857 C1861 1.495 . S
C1858 C1857 1.392 . S
C1858 C1859 1.385 . S
C1858 C1860 1.478 . S
C1859 H1853 0.930 . S
C1859 C1855 1.400 . S
C1859 C1858 1.385 . S
C1860 C1858 1.478 . S
C1860 C1862 1.381 . S
C1860 C1866 1.383 . S
C1861 C1857 1.495 . S
C1861 H1867 0.959 . S
C1861 H1868 0.961 . S
C1861 H1869 0.960 . S
C1862 C1860 1.381 . S
C1862 C1863 1.394 . S
C1862 H1870 0.930 . S
C1863 C1862 1.394 . S
C1863 C1864 1.383 . S
C1863 H1871 0.929 . S
C1864 C1863 1.383 . S
C1864 C1865 1.377 . S
C1865 H1849 0.930 . S
C1865 C1864 1.377 . S
C1865 C1866 1.379 . S
C1866 H1850 0.931 . S
C1866 C1860 1.383 . S
C1866 C1865 1.379 . S
H1867 C1861 0.959 . S
H1868 C1861 0.961 . S
H1869 C1861 0.960 . S
H1870 C1862 0.930 . S
H1871 C1863 0.929 . S
H1872 C1880 0.929 . S
H1873 C1882 0.930 . S
H1874 C1884 0.930 . S
H1875 C1887 0.929 . S
H1876 C1890 0.930 . S
H1877 C1892 0.960 . S
H1878 C1892 0.960 . S
H1879 C1892 0.960 . S
C1880 H1872 0.929 . S
C1880 C1881 1.377 . S
C1880 C1882 1.384 . S
C1881 C1880 1.377 . S
C1881 C1887 1.390 . S
C1882 H1873 0.930 . S
C1882 C1880 1.384 . S
C1882 C1883 1.372 . S
C1883 C1882 1.372 . S
C1883 C1884 1.400 . S
C1883 C1888 1.490 . S
C1884 H1874 0.930 . S
C1884 C1883 1.400 . S
C1884 C1887 1.386 . S
H1885 C1901 0.930 . S
H1886 C1902 0.931 . S
C1887 H1875 0.929 . S
C1887 C1881 1.390 . S
C1887 C1884 1.386 . S
C1888 C1883 1.490 . S
C1888 C1890 1.395 . S
C1888 C1891 1.403 . S
H1889 C1895 0.930 . S
C1890 H1876 0.930 . S
C1890 C1888 1.395 . S
C1890 C1893 1.403 . S
C1891 C1888 1.403 . S
C1891 C1892 1.524 . S
C1891 C1895 1.400 . S
C1892 H1877 0.960 . S
C1892 H1878 0.960 . S
C1892 H1879 0.960 . S
C1892 C1891 1.524 . S
C1893 C1890 1.403 . S
C1893 C1894 1.392 . S
C1893 C1897 1.495 . S
C1894 C1893 1.392 . S
C1894 C1895 1.385 . S
C1894 C1896 1.478 . S
C1895 H1889 0.930 . S
C1895 C1891 1.400 . S
C1895 C1894 1.385 . S
C1896 C1894 1.478 . S
C1896 C1898 1.381 . S
C1896 C1902 1.383 . S
C1897 C1893 1.495 . S
C1897 H1903 0.959 . S
C1897 H1904 0.961 . S
C1897 H1905 0.960 . S
C1898 C1896 1.381 . S
C1898 C1899 1.394 . S
C1898 H1906 0.930 . S
C1899 C1898 1.394 . S
C1899 C1900 1.383 . S
C1899 H1907 0.929 1_556 S
C1900 C1899 1.383 . S
C1900 C1901 1.377 . S
C1901 H1885 0.930 . S
C1901 C1900 1.377 . S
C1901 C1902 1.379 . S
C1902 H1886 0.931 . S
C1902 C1896 1.383 . S
C1902 C1901 1.379 . S
H1903 C1897 0.959 . S
H1904 C1897 0.961 . S
H1905 C1897 0.960 . S
H1906 C1898 0.930 . S
H1907 C1899 0.929 1_554 S
H1908 C1916 0.929 . S
H1909 C1918 0.930 . S
H1910 C1920 0.930 . S
H1911 C1923 0.929 . S
H1912 C1926 0.930 . S
H1913 C1928 0.960 . S
H1914 C1928 0.960 . S
H1915 C1928 0.960 . S
C1916 H1908 0.929 . S
C1916 C1917 1.377 . S
C1916 C1918 1.384 . S
C1917 C1916 1.377 . S
C1917 C1923 1.390 . S
C1918 H1909 0.930 . S
C1918 C1916 1.384 . S
C1918 C1919 1.372 . S
C1919 C1918 1.372 . S
C1919 C1920 1.400 . S
C1919 C1924 1.490 . S
C1920 H1910 0.930 . S
C1920 C1919 1.400 . S
C1920 C1923 1.386 . S
H1921 C1937 0.930 . S
H1922 C1938 0.931 . S
C1923 H1911 0.929 . S
C1923 C1917 1.390 . S
C1923 C1920 1.386 . S
C1924 C1919 1.490 . S
C1924 C1926 1.395 . S
C1924 C1927 1.403 . S
H1925 C1931 0.930 . S
C1926 H1912 0.930 . S
C1926 C1924 1.395 . S
C1926 C1929 1.403 . S
C1927 C1924 1.403 . S
C1927 C1928 1.524 . S
C1927 C1931 1.400 . S
C1928 H1913 0.960 . S
C1928 H1914 0.960 . S
C1928 H1915 0.960 . S
C1928 C1927 1.524 . S
C1929 C1926 1.403 . S
C1929 C1930 1.392 . S
C1929 C1933 1.495 . S
C1930 C1929 1.392 . S
C1930 C1931 1.385 . S
C1930 C1932 1.478 . S
C1931 H1925 0.930 . S
C1931 C1927 1.400 . S
C1931 C1930 1.385 . S
C1932 C1930 1.478 . S
C1932 C1934 1.381 . S
C1932 C1938 1.383 . S
C1933 C1929 1.495 . S
C1933 H1939 0.959 . S
C1933 H1940 0.961 . S
C1933 H1941 0.960 . S
C1934 C1932 1.381 . S
C1934 C1935 1.468 . S
C1934 H1942 0.930 . S
C1935 C1934 1.468 . S
C1935 C1936 1.391 . S
C1935 H1943 0.859 1_556 S
C1936 C1935 1.391 . S
C1936 C1937 1.377 . S
C1937 H1921 0.930 . S
C1937 C1936 1.377 . S
C1937 C1938 1.379 . S
C1938 H1922 0.931 . S
C1938 C1932 1.383 . S
C1938 C1937 1.379 . S
H1939 C1933 0.959 . S
H1940 C1933 0.961 . S
H1941 C1933 0.960 . S
H1942 C1934 0.930 . S
H1943 C1935 0.859 1_554 S
H1944 C1952 0.929 . S
H1945 C1954 0.930 . S
H1946 C1956 0.930 . S
H1947 C1959 0.929 . S
H1948 C1962 0.930 . S
H1949 C1964 0.960 . S
H1950 C1964 0.960 . S
H1951 C1964 0.960 . S
C1952 H1944 0.929 . S
C1952 C1953 1.377 . S
C1952 C1954 1.384 . S
C1953 C1952 1.377 . S
C1953 C1959 1.390 . S
C1954 H1945 0.930 . S
C1954 C1952 1.384 . S
C1954 C1955 1.372 . S
C1955 C1954 1.372 . S
C1955 C1956 1.400 . S
C1955 C1960 1.490 . S
C1956 H1946 0.930 . S
C1956 C1955 1.400 . S
C1956 C1959 1.386 . S
H1957 C1973 0.930 . S
H1958 C1974 0.931 . S
C1959 H1947 0.929 . S
C1959 C1953 1.390 . S
C1959 C1956 1.386 . S
C1960 C1955 1.490 . S
C1960 C1962 1.395 . S
C1960 C1963 1.403 . S
H1961 C1967 0.930 . S
C1962 H1948 0.930 . S
C1962 C1960 1.395 . S
C1962 C1965 1.403 . S
C1963 C1960 1.403 . S
C1963 C1964 1.524 . S
C1963 C1967 1.400 . S
C1964 H1949 0.960 . S
C1964 H1950 0.960 . S
C1964 H1951 0.960 . S
C1964 C1963 1.524 . S
C1965 C1962 1.403 . S
C1965 C1966 1.392 . S
C1965 C1969 1.495 . S
C1966 C1965 1.392 . S
C1966 C1967 1.385 . S
C1966 C1968 1.478 . S
C1967 H1961 0.930 . S
C1967 C1963 1.400 . S
C1967 C1966 1.385 . S
C1968 C1966 1.478 . S
C1968 C1970 1.381 . S
C1968 C1974 1.383 . S
C1969 C1965 1.495 . S
C1969 H1975 0.959 . S
C1969 H1976 0.961 . S
C1969 H1977 0.960 . S
C1970 C1968 1.381 . S
C1970 C1971 1.394 1_556 S
C1970 H1978 0.930 . S
C1971 C1970 1.394 1_554 S
C1971 C1972 1.362 1_554 S
C1971 H1979 0.929 . S
C1972 C1971 1.362 1_556 S
C1972 C1973 1.481 . S
C1973 H1957 0.930 . S
C1973 C1972 1.481 . S
C1973 C1974 1.379 . S
C1974 H1958 0.931 . S
C1974 C1968 1.383 . S
C1974 C1973 1.379 . S
H1975 C1969 0.959 . S
H1976 C1969 0.961 . S
H1977 C1969 0.960 . S
H1978 C1970 0.930 . S
H1979 C1971 0.929 . S
H1980 C1988 0.929 . S
H1981 C1990 0.930 . S
H1982 C1992 0.930 . S
H1983 C1995 0.929 . S
H1984 C1998 0.930 . S
H1985 C2000 0.960 . S
H1986 C2000 0.960 . S
H1987 C2000 0.960 . S
C1988 H1980 0.929 . S
C1988 C1989 1.377 . S
C1988 C1990 1.384 . S
C1989 C1988 1.377 . S
C1989 C1995 1.390 . S
C1990 H1981 0.930 . S
C1990 C1988 1.384 . S
C1990 C1991 1.372 . S
C1991 C1990 1.372 . S
C1991 C1992 1.400 . S
C1991 C1996 1.490 . S
C1992 H1982 0.930 . S
C1992 C1991 1.400 . S
C1992 C1995 1.386 . S
H1993 C2009 0.930 . S
H1994 C2010 0.931 . S
C1995 H1983 0.929 . S
C1995 C1989 1.390 . S
C1995 C1992 1.386 . S
C1996 C1991 1.490 . S
C1996 C1998 1.395 . S
C1996 C1999 1.403 . S
H1997 C2003 0.930 . S
C1998 H1984 0.930 . S
C1998 C1996 1.395 . S
C1998 C2001 1.403 . S
C1999 C1996 1.403 . S
C1999 C2000 1.524 . S
C1999 C2003 1.400 . S
C2000 H1985 0.960 . S
C2000 H1986 0.960 . S
C2000 H1987 0.960 . S
C2000 C1999 1.524 . S
C2001 C1998 1.403 . S
C2001 C2002 1.392 . S
C2001 C2005 1.495 . S
C2002 C2001 1.392 . S
C2002 C2003 1.385 . S
C2002 C2004 1.478 . S
C2003 H1997 0.930 . S
C2003 C1999 1.400 . S
C2003 C2002 1.385 . S
C2004 C2002 1.478 . S
C2004 C2006 1.381 . S
C2004 C2010 1.383 . S
C2005 C2001 1.495 . S
C2005 H2011 0.959 . S
C2005 H2012 0.961 . S
C2005 H2013 0.960 . S
C2006 C2004 1.381 . S
C2006 C2007 1.394 . S
C2006 H2014 0.930 . S
C2007 C2006 1.394 . S
C2007 C2008 1.383 . S
C2007 H2015 0.929 . S
C2008 C2007 1.383 . S
C2008 C2009 1.377 . S
C2009 H1993 0.930 . S
C2009 C2008 1.377 . S
C2009 C2010 1.379 . S
C2010 H1994 0.931 . S
C2010 C2004 1.383 . S
C2010 C2009 1.379 . S
H2011 C2005 0.959 . S
H2012 C2005 0.961 . S
H2013 C2005 0.960 . S
H2014 C2006 0.930 . S
H2015 C2007 0.929 . S
H2016 C2024 0.929 . S
H2017 C2026 0.930 . S
H2018 C2028 0.930 . S
H2019 C2031 0.929 . S
H2020 C2034 0.930 . S
H2021 C2036 0.960 . S
H2022 C2036 0.960 . S
H2023 C2036 0.960 . S
C2024 H2016 0.929 . S
C2024 C2025 1.377 . S
C2024 C2026 1.384 . S
C2025 C2024 1.377 . S
C2025 C2031 1.390 . S
C2026 H2017 0.930 . S
C2026 C2024 1.384 . S
C2026 C2027 1.372 . S
C2027 C2026 1.372 . S
C2027 C2028 1.400 . S
C2027 C2032 1.490 . S
C2028 H2018 0.930 . S
C2028 C2027 1.400 . S
C2028 C2031 1.386 . S
H2029 C2045 0.930 . S
H2030 C2046 0.931 . S
C2031 H2019 0.929 . S
C2031 C2025 1.390 . S
C2031 C2028 1.386 . S
C2032 C2027 1.490 . S
C2032 C2034 1.395 . S
C2032 C2035 1.403 . S
H2033 C2039 0.930 . S
C2034 H2020 0.930 . S
C2034 C2032 1.395 . S
C2034 C2037 1.403 . S
C2035 C2032 1.403 . S
C2035 C2036 1.524 . S
C2035 C2039 1.400 . S
C2036 H2021 0.960 . S
C2036 H2022 0.960 . S
C2036 H2023 0.960 . S
C2036 C2035 1.524 . S
C2037 C2034 1.403 . S
C2037 C2038 1.392 . S
C2037 C2041 1.495 . S
C2038 C2037 1.392 . S
C2038 C2039 1.385 . S
C2038 C2040 1.478 . S
C2039 H2033 0.930 . S
C2039 C2035 1.400 . S
C2039 C2038 1.385 . S
C2040 C2038 1.478 . S
C2040 C2042 1.381 . S
C2040 C2046 1.383 . S
C2041 C2037 1.495 . S
C2041 H2047 0.959 . S
C2041 H2048 0.961 . S
C2041 H2049 0.960 . S
C2042 C2040 1.381 . S
C2042 C2043 1.394 . S
C2042 H2050 0.930 . S
C2043 C2042 1.394 . S
C2043 C2044 1.383 . S
C2043 H2051 0.929 . S
C2044 C2043 1.383 . S
C2044 C2045 1.377 . S
C2045 H2029 0.930 . S
C2045 C2044 1.377 . S
C2045 C2046 1.379 . S
C2046 H2030 0.931 . S
C2046 C2040 1.383 . S
C2046 C2045 1.379 . S
H2047 C2041 0.959 . S
H2048 C2041 0.961 . S
H2049 C2041 0.960 . S
H2050 C2042 0.930 . S
H2051 C2043 0.929 . S
H2052 C2060 0.929 . S
H2053 C2062 0.930 . S
H2054 C2064 0.930 . S
H2055 C2067 0.929 . S
H2056 C2070 0.930 . S
H2057 C2072 0.960 . S
H2058 C2072 0.960 . S
H2059 C2072 0.960 . S
C2060 H2052 0.929 . S
C2060 C2061 1.377 . S
C2060 C2062 1.384 . S
C2061 C2060 1.377 . S
C2061 C2067 1.390 . S
C2062 H2053 0.930 . S
C2062 C2060 1.384 . S
C2062 C2063 1.372 . S
C2063 C2062 1.372 . S
C2063 C2064 1.400 . S
C2063 C2068 1.490 . S
C2064 H2054 0.930 . S
C2064 C2063 1.400 . S
C2064 C2067 1.386 . S
H2065 C2081 0.930 . S
H2066 C2082 0.931 . S
C2067 H2055 0.929 . S
C2067 C2061 1.390 . S
C2067 C2064 1.386 . S
C2068 C2063 1.490 . S
C2068 C2070 1.395 . S
C2068 C2071 1.403 . S
H2069 C2075 0.930 . S
C2070 H2056 0.930 . S
C2070 C2068 1.395 . S
C2070 C2073 1.403 . S
C2071 C2068 1.403 . S
C2071 C2072 1.524 . S
C2071 C2075 1.400 . S
C2072 H2057 0.960 . S
C2072 H2058 0.960 . S
C2072 H2059 0.960 . S
C2072 C2071 1.524 . S
C2073 C2070 1.403 . S
C2073 C2074 1.392 . S
C2073 C2077 1.495 . S
C2074 C2073 1.392 . S
C2074 C2075 1.385 . S
C2074 C2076 1.478 . S
C2075 H2069 0.930 . S
C2075 C2071 1.400 . S
C2075 C2074 1.385 . S
C2076 C2074 1.478 . S
C2076 C2078 1.381 . S
C2076 C2082 1.383 . S
C2077 C2073 1.495 . S
C2077 H2083 0.959 . S
C2077 H2084 0.961 . S
C2077 H2085 0.960 . S
C2078 C2076 1.381 . S
C2078 C2079 1.394 . S
C2078 H2086 0.930 . S
C2079 C2078 1.394 . S
C2079 C2080 1.383 . S
C2079 H2087 0.929 . S
C2080 C2079 1.383 . S
C2080 C2081 1.377 . S
C2081 H2065 0.930 . S
C2081 C2080 1.377 . S
C2081 C2082 1.379 . S
C2082 H2066 0.931 . S
C2082 C2076 1.383 . S
C2082 C2081 1.379 . S
H2083 C2077 0.959 . S
H2084 C2077 0.961 . S
H2085 C2077 0.960 . S
H2086 C2078 0.930 . S
H2087 C2079 0.929 . S
H2088 C2096 0.929 . S
H2089 C2098 0.930 . S
H2090 C2100 0.930 . S
H2091 C2103 0.929 . S
H2092 C2106 0.930 . S
H2093 C2108 0.960 . S
H2094 C2108 0.960 . S
H2095 C2108 0.960 . S
C2096 H2088 0.929 . S
C2096 C2097 1.377 . S
C2096 C2098 1.384 . S
C2097 C2096 1.377 . S
C2097 C2103 1.390 . S
C2098 H2089 0.930 . S
C2098 C2096 1.384 . S
C2098 C2099 1.372 . S
C2099 C2098 1.372 . S
C2099 C2100 1.400 . S
C2099 C2104 1.490 . S
C2100 H2090 0.930 . S
C2100 C2099 1.400 . S
C2100 C2103 1.386 . S
H2101 C2117 0.930 . S
H2102 C2118 0.931 . S
C2103 H2091 0.929 . S
C2103 C2097 1.390 . S
C2103 C2100 1.386 . S
C2104 C2099 1.490 . S
C2104 C2106 1.395 . S
C2104 C2107 1.403 . S
H2105 C2111 0.930 . S
C2106 H2092 0.930 . S
C2106 C2104 1.395 . S
C2106 C2109 1.403 . S
C2107 C2104 1.403 . S
C2107 C2108 1.524 . S
C2107 C2111 1.400 . S
C2108 H2093 0.960 . S
C2108 H2094 0.960 . S
C2108 H2095 0.960 . S
C2108 C2107 1.524 . S
C2109 C2106 1.403 . S
C2109 C2110 1.392 . S
C2109 C2113 1.495 . S
C2110 C2109 1.392 . S
C2110 C2111 1.385 . S
C2110 C2112 1.478 . S
C2111 H2105 0.930 . S
C2111 C2107 1.400 . S
C2111 C2110 1.385 . S
C2112 C2110 1.478 . S
C2112 C2114 1.381 . S
C2112 C2118 1.383 . S
C2113 C2109 1.495 . S
C2113 H2119 0.959 . S
C2113 H2120 0.961 . S
C2113 H2121 0.960 . S
C2114 C2112 1.381 . S
C2114 C2115 1.394 . S
C2114 H2122 0.930 . S
C2115 C2114 1.394 . S
C2115 C2116 1.383 . S
C2115 H2123 0.929 . S
C2116 C2115 1.383 . S
C2116 C2117 1.377 . S
C2117 H2101 0.930 . S
C2117 C2116 1.377 . S
C2117 C2118 1.379 . S
C2118 H2102 0.931 . S
C2118 C2112 1.383 . S
C2118 C2117 1.379 . S
H2119 C2113 0.959 . S
H2120 C2113 0.961 . S
H2121 C2113 0.960 . S
H2122 C2114 0.930 . S
H2123 C2115 0.929 . S
H2124 C2132 0.929 . S
H2125 C2134 0.930 . S
H2126 C2136 0.930 . S
H2127 C2139 0.929 . S
H2128 C2142 0.930 . S
H2129 C2144 0.960 . S
H2130 C2144 0.960 . S
H2131 C2144 0.960 . S
C2132 H2124 0.929 . S
C2132 C2133 1.377 . S
C2132 C2134 1.384 . S
C2133 C2132 1.377 . S
C2133 C2139 1.390 . S
C2134 H2125 0.930 . S
C2134 C2132 1.384 . S
C2134 C2135 1.372 . S
C2135 C2134 1.372 . S
C2135 C2136 1.400 . S
C2135 C2140 1.490 . S
C2136 H2126 0.930 . S
C2136 C2135 1.400 . S
C2136 C2139 1.386 . S
H2137 C2153 0.930 . S
H2138 C2154 0.931 . S
C2139 H2127 0.929 . S
C2139 C2133 1.390 . S
C2139 C2136 1.386 . S
C2140 C2135 1.490 . S
C2140 C2142 1.395 . S
C2140 C2143 1.403 . S
H2141 C2147 0.930 . S
C2142 H2128 0.930 . S
C2142 C2140 1.395 . S
C2142 C2145 1.403 . S
C2143 C2140 1.403 . S
C2143 C2144 1.524 . S
C2143 C2147 1.400 . S
C2144 H2129 0.960 . S
C2144 H2130 0.960 . S
C2144 H2131 0.960 . S
C2144 C2143 1.524 . S
C2145 C2142 1.403 . S
C2145 C2146 1.392 . S
C2145 C2149 1.495 . S
C2146 C2145 1.392 . S
C2146 C2147 1.385 . S
C2146 C2148 1.478 . S
C2147 H2141 0.930 . S
C2147 C2143 1.400 . S
C2147 C2146 1.385 . S
C2148 C2146 1.478 . S
C2148 C2150 1.381 . S
C2148 C2154 1.383 . S
C2149 C2145 1.495 . S
C2149 H2155 0.959 . S
C2149 H2156 0.961 . S
C2149 H2157 0.960 . S
C2150 C2148 1.381 . S
C2150 C2151 1.394 . S
C2150 H2158 0.930 . S
C2151 C2150 1.394 . S
C2151 C2152 1.383 . S
C2151 H2159 0.929 . S
C2152 C2151 1.383 . S
C2152 C2153 1.377 . S
C2153 H2137 0.930 . S
C2153 C2152 1.377 . S
C2153 C2154 1.379 . S
C2154 H2138 0.931 . S
C2154 C2148 1.383 . S
C2154 C2153 1.379 . S
H2155 C2149 0.959 . S
H2156 C2149 0.961 . S
H2157 C2149 0.960 . S
H2158 C2150 0.930 . S
H2159 C2151 0.929 . S
H2160 C2168 0.929 . S
H2161 C2170 0.930 . S
H2162 C2172 0.930 . S
H2163 C2175 0.929 . S
H2164 C2178 0.930 . S
H2165 C2180 0.960 . S
H2166 C2180 0.960 . S
H2167 C2180 0.960 . S
C2168 H2160 0.929 . S
C2168 C2169 1.377 . S
C2168 C2170 1.384 . S
C2169 C2168 1.377 . S
C2169 C2175 1.390 . S
C2170 H2161 0.930 . S
C2170 C2168 1.384 . S
C2170 C2171 1.372 . S
C2171 C2170 1.372 . S
C2171 C2172 1.400 . S
C2171 C2176 1.490 . S
C2172 H2162 0.930 . S
C2172 C2171 1.400 . S
C2172 C2175 1.386 . S
H2173 C2189 0.930 . S
H2174 C2190 0.931 . S
C2175 H2163 0.929 . S
C2175 C2169 1.390 . S
C2175 C2172 1.386 . S
C2176 C2171 1.490 . S
C2176 C2178 1.395 . S
C2176 C2179 1.403 . S
H2177 C2183 0.930 . S
C2178 H2164 0.930 . S
C2178 C2176 1.395 . S
C2178 C2181 1.403 . S
C2179 C2176 1.403 . S
C2179 C2180 1.524 . S
C2179 C2183 1.400 . S
C2180 H2165 0.960 . S
C2180 H2166 0.960 . S
C2180 H2167 0.960 . S
C2180 C2179 1.524 . S
C2181 C2178 1.403 . S
C2181 C2182 1.392 . S
C2181 C2185 1.495 . S
C2182 C2181 1.392 . S
C2182 C2183 1.385 . S
C2182 C2184 1.478 . S
C2183 H2177 0.930 . S
C2183 C2179 1.400 . S
C2183 C2182 1.385 . S
C2184 C2182 1.478 . S
C2184 C2186 1.381 . S
C2184 C2190 1.383 . S
C2185 C2181 1.495 . S
C2185 H2191 0.959 . S
C2185 H2192 0.961 . S
C2185 H2193 0.960 . S
C2186 C2184 1.381 . S
C2186 C2187 1.394 . S
C2186 H2194 0.930 . S
C2187 C2186 1.394 . S
C2187 C2188 1.383 . S
C2187 H2195 0.929 . S
C2188 C2187 1.383 . S
C2188 C2189 1.377 . S
C2189 H2173 0.930 . S
C2189 C2188 1.377 . S
C2189 C2190 1.379 . S
C2190 H2174 0.931 . S
C2190 C2184 1.383 . S
C2190 C2189 1.379 . S
H2191 C2185 0.959 . S
H2192 C2185 0.961 . S
H2193 C2185 0.960 . S
H2194 C2186 0.930 . S
H2195 C2187 0.929 . S
H2196 C2204 0.929 . S
H2197 C2206 0.930 . S
H2198 C2208 0.930 . S
H2199 C2211 0.929 . S
H2200 C2214 0.930 . S
H2201 C2216 0.960 . S
H2202 C2216 0.960 . S
H2203 C2216 0.960 . S
C2204 H2196 0.929 . S
C2204 C2205 1.377 . S
C2204 C2206 1.384 . S
C2205 C2204 1.377 . S
C2205 C2211 1.390 . S
C2206 H2197 0.930 . S
C2206 C2204 1.384 . S
C2206 C2207 1.372 . S
C2207 C2206 1.372 . S
C2207 C2208 1.400 . S
C2207 C2212 1.490 . S
C2208 H2198 0.930 . S
C2208 C2207 1.400 . S
C2208 C2211 1.386 . S
H2209 C2225 0.930 . S
H2210 C2226 0.931 . S
C2211 H2199 0.929 . S
C2211 C2205 1.390 . S
C2211 C2208 1.386 . S
C2212 C2207 1.490 . S
C2212 C2214 1.395 . S
C2212 C2215 1.403 . S
H2213 C2219 0.930 . S
C2214 H2200 0.930 . S
C2214 C2212 1.395 . S
C2214 C2217 1.403 . S
C2215 C2212 1.403 . S
C2215 C2216 1.524 . S
C2215 C2219 1.400 . S
C2216 H2201 0.960 . S
C2216 H2202 0.960 . S
C2216 H2203 0.960 . S
C2216 C2215 1.524 . S
C2217 C2214 1.403 . S
C2217 C2218 1.392 . S
C2217 C2221 1.495 . S
C2218 C2217 1.392 . S
C2218 C2219 1.385 . S
C2218 C2220 1.478 . S
C2219 H2213 0.930 . S
C2219 C2215 1.400 . S
C2219 C2218 1.385 . S
C2220 C2218 1.478 . S
C2220 C2222 1.381 . S
C2220 C2226 1.383 . S
C2221 C2217 1.495 . S
C2221 H2227 0.959 1_545 S
C2221 H2228 0.961 . S
C2221 H2229 0.960 1_545 S
C2222 C2220 1.381 . S
C2222 C2223 1.394 . S
C2222 H2230 0.930 1_545 S
C2223 C2222 1.394 . S
C2223 C2224 1.383 . S
C2223 H2231 0.929 1_545 S
C2224 C2223 1.383 . S
C2224 C2225 1.377 . S
C2225 H2209 0.930 . S
C2225 C2224 1.377 . S
C2225 C2226 1.379 . S
C2226 H2210 0.931 . S
C2226 C2220 1.383 . S
C2226 C2225 1.379 . S
H2227 C2221 0.959 1_565 S
H2228 C2221 0.961 . S
H2229 C2221 0.960 1_565 S
H2230 C2222 0.930 1_565 S
H2231 C2223 0.929 1_565 S
H2232 C2240 0.929 . S
H2233 C2242 0.930 . S
H2234 C2244 0.930 . S
H2235 C2247 0.929 . S
H2236 C2250 0.930 . S
H2237 C2252 0.960 . S
H2238 C2252 0.960 . S
H2239 C2252 0.960 1_455 S
C2240 H2232 0.929 . S
C2240 C2241 1.377 . S
C2240 C2242 1.384 . S
C2241 C2240 1.377 . S
C2241 C2247 1.390 1_655 S
C2242 H2233 0.930 . S
C2242 C2240 1.384 . S
C2242 C2243 1.372 . S
C2243 C2242 1.372 . S
C2243 C2244 1.400 1_655 S
C2243 C2248 1.490 . S
C2244 H2234 0.930 . S
C2244 C2243 1.400 1_455 S
C2244 C2247 1.386 . S
H2245 C2261 0.930 . S
H2246 C2262 0.931 . S
C2247 H2235 0.929 . S
C2247 C2241 1.390 1_455 S
C2247 C2244 1.386 . S
C2248 C2243 1.490 . S
C2248 C2250 1.395 . S
C2248 C2251 1.403 . S
H2249 C2255 0.930 . S
C2250 H2236 0.930 . S
C2250 C2248 1.395 . S
C2250 C2253 1.403 . S
C2251 C2248 1.403 . S
C2251 C2252 1.524 . S
C2251 C2255 1.400 . S
C2252 H2237 0.960 . S
C2252 H2238 0.960 . S
C2252 H2239 0.960 1_655 S
C2252 C2251 1.524 . S
C2253 C2250 1.403 . S
C2253 C2254 1.392 . S
C2253 C2257 1.495 . S
C2254 C2253 1.392 . S
C2254 C2255 1.385 . S
C2254 C2256 1.478 . S
C2255 H2249 0.930 . S
C2255 C2251 1.400 . S
C2255 C2254 1.385 . S
C2256 C2254 1.478 . S
C2256 C2258 1.381 . S
C2256 C2262 1.383 1_655 S
C2257 C2253 1.495 . S
C2257 H2263 0.959 . S
C2257 H2264 0.961 1_655 S
C2257 H2265 0.960 . S
C2258 C2256 1.381 . S
C2258 C2259 1.394 . S
C2258 H2266 0.930 . S
C2259 C2258 1.394 . S
C2259 C2260 1.402 . S
C2259 H2267 0.929 . S
C2260 C2259 1.402 . S
C2260 C2261 1.369 1_655 S
C2261 H2245 0.930 . S
C2261 C2260 1.369 1_455 S
C2261 C2262 1.379 . S
C2262 H2246 0.931 . S
C2262 C2256 1.383 1_455 S
C2262 C2261 1.379 . S
H2263 C2257 0.959 . S
H2264 C2257 0.961 1_455 S
H2265 C2257 0.960 . S
H2266 C2258 0.930 . S
H2267 C2259 0.929 . S
H2268 C2276 0.929 . S
H2269 C2278 0.930 . S
H2270 C2280 0.930 . S
H2271 C2283 0.929 . S
H2272 C2286 0.930 . S
H2273 C2288 0.960 . S
H2274 C2288 0.960 . S
H2275 C2288 0.960 . S
C2276 H2268 0.929 . S
C2276 C2277 1.377 . S
C2276 C2278 1.384 . S
C2277 C2276 1.377 . S
C2277 C2283 1.390 . S
C2278 H2269 0.930 . S
C2278 C2276 1.384 . S
C2278 C2279 1.372 . S
C2279 C2278 1.372 . S
C2279 C2280 1.400 . S
C2279 C2284 1.490 . S
C2280 H2270 0.930 . S
C2280 C2279 1.400 . S
C2280 C2283 1.386 . S
H2281 C2297 0.930 . S
H2282 C2298 0.931 . S
C2283 H2271 0.929 . S
C2283 C2277 1.390 . S
C2283 C2280 1.386 . S
C2284 C2279 1.490 . S
C2284 C2286 1.395 . S
C2284 C2287 1.403 . S
H2285 C2291 0.930 . S
C2286 H2272 0.930 . S
C2286 C2284 1.395 . S
C2286 C2289 1.403 . S
C2287 C2284 1.403 . S
C2287 C2288 1.524 . S
C2287 C2291 1.400 . S
C2288 H2273 0.960 . S
C2288 H2274 0.960 . S
C2288 H2275 0.960 . S
C2288 C2287 1.524 . S
C2289 C2286 1.403 . S
C2289 C2290 1.392 . S
C2289 C2293 1.495 . S
C2290 C2289 1.392 . S
C2290 C2291 1.385 . S
C2290 C2292 1.478 . S
C2291 H2285 0.930 . S
C2291 C2287 1.400 . S
C2291 C2290 1.385 . S
C2292 C2290 1.478 . S
C2292 C2294 1.381 . S
C2292 C2298 1.383 . S
C2293 C2289 1.495 . S
C2293 H2299 0.959 . S
C2293 H2300 0.961 . S
C2293 H2301 0.960 . S
C2294 C2292 1.381 . S
C2294 C2295 1.394 . S
C2294 H2302 0.930 . S
C2295 C2294 1.394 . S
C2295 C2296 1.383 . S
C2295 H2303 0.929 . S
C2296 C2295 1.383 . S
C2296 C2297 1.377 . S
C2297 H2281 0.930 . S
C2297 C2296 1.377 . S
C2297 C2298 1.379 . S
C2298 H2282 0.931 . S
C2298 C2292 1.383 . S
C2298 C2297 1.379 . S
H2299 C2293 0.959 . S
H2300 C2293 0.961 . S
H2301 C2293 0.960 . S
H2302 C2294 0.930 . S
H2303 C2295 0.929 . S
H2304 C2312 0.929 . S
H2305 C2314 0.930 . S
H2306 C2316 0.930 . S
H2307 C2319 0.929 . S
H2308 C2322 0.930 . S
H2309 C2324 0.960 . S
H2310 C2324 0.960 . S
H2311 C2324 0.960 . S
C2312 H2304 0.929 . S
C2312 C2313 1.377 . S
C2312 C2314 1.384 . S
C2313 C2312 1.377 . S
C2313 C2319 1.390 . S
C2314 H2305 0.930 . S
C2314 C2312 1.384 . S
C2314 C2315 1.372 . S
C2315 C2314 1.372 . S
C2315 C2316 1.400 . S
C2315 C2320 1.490 . S
C2316 H2306 0.930 . S
C2316 C2315 1.400 . S
C2316 C2319 1.386 . S
H2317 C2333 0.930 . S
H2318 C2334 0.931 . S
C2319 H2307 0.929 . S
C2319 C2313 1.390 . S
C2319 C2316 1.386 . S
C2320 C2315 1.490 . S
C2320 C2322 1.395 . S
C2320 C2323 1.403 . S
H2321 C2327 0.930 . S
C2322 H2308 0.930 . S
C2322 C2320 1.395 . S
C2322 C2325 1.403 . S
C2323 C2320 1.403 . S
C2323 C2324 1.524 . S
C2323 C2327 1.400 . S
C2324 H2309 0.960 . S
C2324 H2310 0.960 . S
C2324 H2311 0.960 . S
C2324 C2323 1.524 . S
C2325 C2322 1.403 . S
C2325 C2326 1.392 . S
C2325 C2329 1.495 . S
C2326 C2325 1.392 . S
C2326 C2327 1.385 . S
C2326 C2328 1.478 . S
C2327 H2321 0.930 . S
C2327 C2323 1.400 . S
C2327 C2326 1.385 . S
C2328 C2326 1.478 . S
C2328 C2330 1.381 . S
C2328 C2334 1.383 . S
C2329 C2325 1.495 . S
C2329 H2335 0.959 . S
C2329 H2336 0.961 . S
C2329 H2337 0.960 . S
C2330 C2328 1.381 . S
C2330 C2331 1.394 . S
C2330 H2338 0.930 . S
C2331 C2330 1.394 . S
C2331 C2332 1.383 . S
C2331 H2339 0.953 . S
C2332 C2331 1.383 . S
C2332 C2333 1.377 . S
C2333 H2317 0.930 . S
C2333 C2332 1.377 . S
C2333 C2334 1.379 . S
C2334 H2318 0.931 . S
C2334 C2328 1.383 . S
C2334 C2333 1.379 . S
H2335 C2329 0.959 . S
H2336 C2329 0.961 . S
H2337 C2329 0.960 . S
H2338 C2330 0.930 . S
H2339 C2331 0.953 . S
H2340 C2348 0.929 . S
H2341 C2350 0.930 . S
H2342 C2352 0.930 . S
H2343 C2355 0.929 . S
H2344 C2358 0.930 . S
H2345 C2360 0.960 . S
H2346 C2360 0.960 . S
H2347 C2360 0.960 . S
C2348 H2340 0.929 . S
C2348 C2349 1.377 . S
C2348 C2350 1.384 . S
C2349 C2348 1.377 . S
C2349 C2355 1.390 . S
C2350 H2341 0.930 . S
C2350 C2348 1.384 . S
C2350 C2351 1.372 . S
C2351 C2350 1.372 . S
C2351 C2352 1.400 . S
C2351 C2356 1.490 . S
C2352 H2342 0.930 . S
C2352 C2351 1.400 . S
C2352 C2355 1.386 . S
H2353 C2369 0.930 . S
H2354 C2370 0.931 . S
C2355 H2343 0.929 . S
C2355 C2349 1.390 . S
C2355 C2352 1.386 . S
C2356 C2351 1.490 . S
C2356 C2358 1.395 . S
C2356 C2359 1.403 . S
H2357 C2363 0.930 . S
C2358 H2344 0.930 . S
C2358 C2356 1.395 . S
C2358 C2361 1.403 . S
C2359 C2356 1.403 . S
C2359 C2360 1.524 . S
C2359 C2363 1.400 . S
C2360 H2345 0.960 . S
C2360 H2346 0.960 . S
C2360 H2347 0.960 . S
C2360 C2359 1.524 . S
C2361 C2358 1.403 . S
C2361 C2362 1.392 . S
C2361 C2365 1.495 . S
C2362 C2361 1.392 . S
C2362 C2363 1.385 . S
C2362 C2364 1.478 . S
C2363 H2357 0.930 . S
C2363 C2359 1.400 . S
C2363 C2362 1.385 . S
C2364 C2362 1.478 . S
C2364 C2366 1.381 . S
C2364 C2370 1.383 . S
C2365 C2361 1.495 . S
C2365 H2371 0.959 . S
C2365 H2372 0.961 . S
C2365 H2373 0.960 . S
C2366 C2364 1.381 . S
C2366 C2367 1.394 . S
C2366 H2374 0.930 . S
C2367 C2366 1.394 . S
C2367 C2368 1.383 . S
C2367 H2375 0.929 . S
C2368 C2367 1.383 . S
C2368 C2369 1.377 . S
C2369 H2353 0.930 . S
C2369 C2368 1.377 . S
C2369 C2370 1.379 . S
C2370 H2354 0.931 . S
C2370 C2364 1.383 . S
C2370 C2369 1.379 . S
H2371 C2365 0.959 . S
H2372 C2365 0.961 . S
H2373 C2365 0.960 . S
H2374 C2366 0.930 . S
H2375 C2367 0.929 . S
H2376 C2384 0.929 . S
H2377 C2386 0.930 . S
H2378 C2388 0.930 . S
H2379 C2391 0.929 . S
H2380 C2394 0.930 . S
H2381 C2396 0.960 . S
H2382 C2396 0.960 . S
H2383 C2396 0.960 1_565 S
C2384 H2376 0.929 . S
C2384 C2385 1.377 1_545 S
C2384 C2386 1.384 . S
C2385 C2384 1.377 1_565 S
C2385 C2391 1.390 . S
C2386 H2377 0.930 . S
C2386 C2384 1.384 . S
C2386 C2387 1.372 1_545 S
C2387 C2386 1.372 1_565 S
C2387 C2388 1.400 . S
C2387 C2392 1.490 . S
C2388 H2378 0.930 . S
C2388 C2387 1.400 . S
C2388 C2391 1.386 . S
H2389 C2405 0.930 . S
H2390 C2406 0.931 . S
C2391 H2379 0.929 . S
C2391 C2385 1.390 . S
C2391 C2388 1.386 . S
C2392 C2387 1.490 . S
C2392 C2394 1.395 . S
C2392 C2395 1.403 1_565 S
H2393 C2399 0.930 . S
C2394 H2380 0.930 . S
C2394 C2392 1.395 . S
C2394 C2397 1.403 . S
C2395 C2392 1.403 1_545 S
C2395 C2396 1.524 . S
C2395 C2399 1.400 . S
C2396 H2381 0.960 . S
C2396 H2382 0.960 . S
C2396 H2383 0.960 1_545 S
C2396 C2395 1.524 . S
C2397 C2394 1.403 . S
C2397 C2398 1.392 . S
C2397 C2401 1.495 . S
C2398 C2397 1.392 . S
C2398 C2399 1.385 1_565 S
C2398 C2400 1.478 . S
C2399 H2393 0.930 . S
C2399 C2395 1.400 . S
C2399 C2398 1.385 1_545 S
C2400 C2398 1.478 . S
C2400 C2402 1.381 1_565 S
C2400 C2406 1.383 . S
C2401 C2397 1.495 . S
C2401 H2407 0.959 . S
C2401 H2408 0.961 . S
C2401 H2409 0.960 . S
C2402 C2400 1.381 1_545 S
C2402 C2403 1.394 . S
C2402 H2410 0.930 . S
C2403 C2402 1.394 . S
C2403 C2404 1.383 . S
C2403 H2411 0.929 . S
C2404 C2403 1.383 . S
C2404 C2405 1.377 1_545 S
C2405 H2389 0.930 . S
C2405 C2404 1.377 1_565 S
C2405 C2406 1.379 . S
C2406 H2390 0.931 . S
C2406 C2400 1.383 . S
C2406 C2405 1.379 . S
H2407 C2401 0.959 . S
H2408 C2401 0.961 . S
H2409 C2401 0.960 . S
H2410 C2402 0.930 . S
H2411 C2403 0.929 . S
H2412 C2420 0.929 . S
H2413 C2422 0.930 . S
H2414 C2424 0.930 . S
H2415 C2427 0.929 . S
H2416 C2430 0.930 . S
H2417 C2432 0.960 . S
H2418 C2432 0.960 . S
H2419 C2432 0.960 . S
C2420 H2412 0.929 . S
C2420 C2421 1.377 . S
C2420 C2422 1.384 . S
C2421 C2420 1.377 . S
C2421 C2427 1.390 1_565 S
C2422 H2413 0.930 . S
C2422 C2420 1.384 . S
C2422 C2423 1.372 . S
C2423 C2422 1.372 . S
C2423 C2424 1.400 1_565 S
C2423 C2428 1.490 . S
C2424 H2414 0.930 . S
C2424 C2423 1.400 1_545 S
C2424 C2427 1.386 . S
H2425 C2441 0.930 . S
H2426 C2442 0.931 . S
C2427 H2415 0.929 . S
C2427 C2421 1.390 1_545 S
C2427 C2424 1.386 . S
C2428 C2423 1.490 . S
C2428 C2430 1.395 . S
C2428 C2431 1.403 1_565 S
H2429 C2435 0.930 . S
C2430 H2416 0.930 . S
C2430 C2428 1.395 . S
C2430 C2433 1.403 . S
C2431 C2428 1.403 1_545 S
C2431 C2432 1.524 . S
C2431 C2435 1.400 . S
C2432 H2417 0.960 . S
C2432 H2418 0.960 . S
C2432 H2419 0.960 . S
C2432 C2431 1.524 . S
C2433 C2430 1.403 . S
C2433 C2434 1.392 . S
C2433 C2437 1.495 . S
C2434 C2433 1.392 . S
C2434 C2435 1.385 1_565 S
C2434 C2436 1.478 . S
C2435 H2429 0.930 . S
C2435 C2431 1.400 . S
C2435 C2434 1.385 1_545 S
C2436 C2434 1.478 . S
C2436 C2438 1.381 . S
C2436 C2442 1.383 1_565 S
C2437 C2433 1.495 . S
C2437 H2443 0.959 . S
C2437 H2444 0.961 . S
C2437 H2445 0.960 . S
C2438 C2436 1.381 . S
C2438 C2439 1.394 . S
C2438 H2446 0.930 . S
C2439 C2438 1.394 . S
C2439 C2440 1.383 . S
C2439 H2447 0.929 . S
C2440 C2439 1.383 . S
C2440 C2441 1.377 1_565 S
C2441 H2425 0.930 . S
C2441 C2440 1.377 1_545 S
C2441 C2442 1.379 . S
C2442 H2426 0.931 . S
C2442 C2436 1.383 1_545 S
C2442 C2441 1.379 . S
H2443 C2437 0.959 . S
H2444 C2437 0.961 . S
H2445 C2437 0.960 . S
H2446 C2438 0.930 . S
H2447 C2439 0.929 . S
H2448 C2456 0.929 . S
H2449 C2458 0.930 . S
H2450 C2460 0.930 . S
H2451 C2463 0.929 . S
H2452 C2466 0.930 . S
H2453 C2468 0.960 . S
H2454 C2468 0.960 . S
H2455 C2468 0.960 . S
C2456 H2448 0.929 . S
C2456 C2457 1.377 . S
C2456 C2458 1.384 . S
C2457 C2456 1.377 . S
C2457 C2463 1.390 . S
C2458 H2449 0.930 . S
C2458 C2456 1.384 . S
C2458 C2459 1.372 . S
C2459 C2458 1.372 . S
C2459 C2460 1.400 . S
C2459 C2464 1.490 . S
C2460 H2450 0.930 . S
C2460 C2459 1.400 . S
C2460 C2463 1.386 . S
H2461 C2477 0.930 . S
H2462 C2478 0.931 . S
C2463 H2451 0.929 . S
C2463 C2457 1.390 . S
C2463 C2460 1.386 . S
C2464 C2459 1.490 . S
C2464 C2466 1.395 . S
C2464 C2467 1.403 . S
H2465 C2471 0.930 . S
C2466 H2452 0.930 . S
C2466 C2464 1.395 . S
C2466 C2469 1.403 . S
C2467 C2464 1.403 . S
C2467 C2468 1.524 . S
C2467 C2471 1.400 . S
C2468 H2453 0.960 . S
C2468 H2454 0.960 . S
C2468 H2455 0.960 . S
C2468 C2467 1.524 . S
C2469 C2466 1.403 . S
C2469 C2470 1.392 . S
C2469 C2473 1.495 1_455 S
C2470 C2469 1.392 . S
C2470 C2471 1.385 . S
C2470 C2472 1.478 . S
C2471 H2465 0.930 . S
C2471 C2467 1.400 . S
C2471 C2470 1.385 . S
C2472 C2470 1.478 . S
C2472 C2474 1.381 . S
C2472 C2478 1.383 . S
C2473 C2469 1.495 1_655 S
C2473 H2479 0.959 . S
C2473 H2480 0.961 . S
C2473 H2481 0.960 . S
C2474 C2472 1.381 . S
C2474 C2475 1.394 . S
C2474 H2482 0.930 . S
C2475 C2474 1.394 . S
C2475 C2476 1.383 . S
C2475 H2483 0.929 . S
C2476 C2475 1.383 . S
C2476 C2477 1.377 . S
C2477 H2461 0.930 . S
C2477 C2476 1.377 . S
C2477 C2478 1.379 . S
C2478 H2462 0.931 . S
C2478 C2472 1.383 . S
C2478 C2477 1.379 . S
H2479 C2473 0.959 . S
H2480 C2473 0.961 . S
H2481 C2473 0.960 . S
H2482 C2474 0.930 . S
H2483 C2475 0.929 . S
H2484 C2492 0.929 . S
H2485 C2494 0.930 . S
H2486 C2496 0.930 . S
H2487 C2499 0.929 . S
H2488 C2502 0.930 . S
H2489 C2504 0.960 . S
H2490 C2504 0.960 . S
H2491 C2504 0.960 . S
C2492 H2484 0.929 . S
C2492 C2493 1.377 . S
C2492 C2494 1.384 . S
C2493 C2492 1.377 . S
C2493 C2499 1.390 . S
C2494 H2485 0.930 . S
C2494 C2492 1.384 . S
C2494 C2495 1.372 . S
C2495 C2494 1.372 . S
C2495 C2496 1.400 . S
C2495 C2500 1.490 . S
C2496 H2486 0.930 . S
C2496 C2495 1.400 . S
C2496 C2499 1.386 . S
H2497 C2513 0.930 . S
H2498 C2514 0.931 . S
C2499 H2487 0.929 . S
C2499 C2493 1.390 . S
C2499 C2496 1.386 . S
C2500 C2495 1.490 . S
C2500 C2502 1.395 . S
C2500 C2503 1.403 . S
H2501 C2507 0.930 . S
C2502 H2488 0.930 . S
C2502 C2500 1.395 . S
C2502 C2505 1.403 . S
C2503 C2500 1.403 . S
C2503 C2504 1.524 . S
C2503 C2507 1.400 . S
C2504 H2489 0.960 . S
C2504 H2490 0.960 . S
C2504 H2491 0.960 . S
C2504 C2503 1.524 . S
C2505 C2502 1.403 . S
C2505 C2506 1.392 . S
C2505 C2509 1.495 . S
C2506 C2505 1.392 . S
C2506 C2507 1.385 . S
C2506 C2508 1.478 . S
C2507 H2501 0.930 . S
C2507 C2503 1.400 . S
C2507 C2506 1.385 . S
C2508 C2506 1.478 . S
C2508 C2510 1.381 . S
C2508 C2514 1.383 . S
C2509 C2505 1.495 . S
C2509 H2515 0.959 . S
C2509 H2516 0.961 . S
C2509 H2517 0.960 . S
C2510 C2508 1.381 . S
C2510 C2511 1.394 . S
C2510 H2518 0.930 . S
C2511 C2510 1.394 . S
C2511 C2512 1.383 . S
C2511 H2519 0.929 . S
C2512 C2511 1.383 . S
C2512 C2513 1.377 . S
C2513 H2497 0.930 . S
C2513 C2512 1.377 . S
C2513 C2514 1.379 . S
C2514 H2498 0.931 . S
C2514 C2508 1.383 . S
C2514 C2513 1.379 . S
H2515 C2509 0.959 . S
H2516 C2509 0.961 . S
H2517 C2509 0.960 . S
H2518 C2510 0.930 . S
H2519 C2511 0.929 . S
H2520 C2528 0.929 . S
H2521 C2530 0.930 . S
H2522 C2532 0.930 . S
H2523 C2535 0.929 . S
H2524 C2538 0.930 . S
H2525 C2540 0.960 . S
H2526 C2540 0.960 . S
H2527 C2540 0.960 . S
C2528 H2520 0.929 . S
C2528 C2529 1.377 1_455 S
C2528 C2530 1.384 . S
C2529 C2528 1.377 1_655 S
C2529 C2535 1.390 . S
C2530 H2521 0.930 . S
C2530 C2528 1.384 . S
C2530 C2531 1.372 1_455 S
C2531 C2530 1.372 1_655 S
C2531 C2532 1.400 . S
C2531 C2536 1.490 . S
C2532 H2522 0.930 . S
C2532 C2531 1.400 . S
C2532 C2535 1.386 . S
H2533 C2549 0.930 . S
H2534 C2550 0.931 . S
C2535 H2523 0.929 . S
C2535 C2529 1.390 . S
C2535 C2532 1.386 . S
C2536 C2531 1.490 . S
C2536 C2538 1.395 1_655 S
C2536 C2539 1.403 . S
H2537 C2543 0.930 . S
C2538 H2524 0.930 . S
C2538 C2536 1.395 1_455 S
C2538 C2541 1.403 . S
C2539 C2536 1.403 . S
C2539 C2540 1.524 . S
C2539 C2543 1.400 . S
C2540 H2525 0.960 . S
C2540 H2526 0.960 . S
C2540 H2527 0.960 . S
C2540 C2539 1.524 . S
C2541 C2538 1.403 . S
C2541 C2542 1.392 . S
C2541 C2545 1.495 . S
C2542 C2541 1.392 . S
C2542 C2543 1.385 1_455 S
C2542 C2544 1.478 . S
C2543 H2537 0.930 . S
C2543 C2539 1.400 . S
C2543 C2542 1.385 1_655 S
C2544 C2542 1.478 . S
C2544 C2546 1.381 . S
C2544 C2550 1.383 1_455 S
C2545 C2541 1.495 . S
C2545 H2551 0.959 . S
C2545 H2552 0.961 . S
C2545 H2553 0.960 . S
C2546 C2544 1.381 . S
C2546 C2547 1.394 . S
C2546 H2554 0.930 . S
C2547 C2546 1.394 . S
C2547 C2548 1.383 . S
C2547 H2555 0.929 . S
C2548 C2547 1.383 . S
C2548 C2549 1.377 1_455 S
C2549 H2533 0.930 . S
C2549 C2548 1.377 1_655 S
C2549 C2550 1.379 . S
C2550 H2534 0.931 . S
C2550 C2544 1.383 1_655 S
C2550 C2549 1.379 . S
H2551 C2545 0.959 . S
H2552 C2545 0.961 . S
H2553 C2545 0.960 . S
H2554 C2546 0.930 . S
H2555 C2547 0.929 . S
H2556 C2564 0.929 . S
H2557 C2566 0.930 . S
H2558 C2568 0.930 . S
H2559 C2571 0.929 . S
H2560 C2574 0.930 . S
H2561 C2576 0.960 . S
H2562 C2576 0.960 . S
H2563 C2576 0.960 . S
C2564 H2556 0.929 . S
C2564 C2565 1.377 . S
C2564 C2566 1.384 . S
C2565 C2564 1.377 . S
C2565 C2571 1.390 . S
C2566 H2557 0.930 . S
C2566 C2564 1.384 . S
C2566 C2567 1.372 . S
C2567 C2566 1.372 . S
C2567 C2568 1.400 . S
C2567 C2572 1.490 . S
C2568 H2558 0.930 . S
C2568 C2567 1.400 . S
C2568 C2571 1.386 . S
H2569 C2585 0.930 . S
H2570 C2586 0.931 . S
C2571 H2559 0.929 . S
C2571 C2565 1.390 . S
C2571 C2568 1.386 . S
C2572 C2567 1.490 . S
C2572 C2574 1.395 . S
C2572 C2575 1.403 . S
H2573 C2579 0.930 . S
C2574 H2560 0.930 . S
C2574 C2572 1.395 . S
C2574 C2577 1.403 . S
C2575 C2572 1.403 . S
C2575 C2576 1.524 . S
C2575 C2579 1.400 . S
C2576 H2561 0.960 . S
C2576 H2562 0.960 . S
C2576 H2563 0.960 . S
C2576 C2575 1.524 . S
C2577 C2574 1.403 . S
C2577 C2578 1.392 . S
C2577 C2581 1.495 . S
C2578 C2577 1.392 . S
C2578 C2579 1.385 . S
C2578 C2580 1.478 . S
C2579 H2573 0.930 . S
C2579 C2575 1.400 . S
C2579 C2578 1.385 . S
C2580 C2578 1.478 . S
C2580 C2582 1.381 . S
C2580 C2586 1.383 . S
C2581 C2577 1.495 . S
C2581 H2587 0.959 . S
C2581 H2588 0.961 . S
C2581 H2589 0.960 . S
C2582 C2580 1.381 . S
C2582 C2583 1.394 . S
C2582 H2590 0.930 . S
C2583 C2582 1.394 . S
C2583 C2584 1.383 . S
C2583 H2591 0.929 . S
C2584 C2583 1.383 . S
C2584 C2585 1.377 . S
C2585 H2569 0.930 . S
C2585 C2584 1.377 . S
C2585 C2586 1.379 . S
C2586 H2570 0.931 . S
C2586 C2580 1.383 . S
C2586 C2585 1.379 . S
H2587 C2581 0.959 . S
H2588 C2581 0.961 . S
H2589 C2581 0.960 . S
H2590 C2582 0.930 . S
H2591 C2583 0.929 . S
H2592 C2600 0.929 . S
H2593 C2602 0.930 . S
H2594 C2604 0.930 . S
H2595 C2607 0.929 . S
H2596 C2610 0.930 . S
H2597 C2612 0.960 . S
H2598 C2612 0.960 . S
H2599 C2612 0.960 . S
C2600 H2592 0.929 . S
C2600 C2601 1.377 . S
C2600 C2602 1.384 . S
C2601 C2600 1.377 . S
C2601 C2607 1.390 . S
C2602 H2593 0.930 . S
C2602 C2600 1.384 . S
C2602 C2603 1.372 . S
C2603 C2602 1.372 . S
C2603 C2604 1.400 . S
C2603 C2608 1.490 . S
C2604 H2594 0.930 . S
C2604 C2603 1.400 . S
C2604 C2607 1.386 . S
H2605 C2621 0.930 . S
H2606 C2622 0.931 . S
C2607 H2595 0.929 . S
C2607 C2601 1.390 . S
C2607 C2604 1.386 . S
C2608 C2603 1.490 . S
C2608 C2610 1.395 . S
C2608 C2611 1.403 . S
H2609 C2615 0.930 . S
C2610 H2596 0.930 . S
C2610 C2608 1.395 . S
C2610 C2613 1.403 . S
C2611 C2608 1.403 . S
C2611 C2612 1.524 . S
C2611 C2615 1.400 . S
C2612 H2597 0.960 . S
C2612 H2598 0.960 . S
C2612 H2599 0.960 . S
C2612 C2611 1.524 . S
C2613 C2610 1.403 . S
C2613 C2614 1.392 . S
C2613 C2617 1.495 . S
C2614 C2613 1.392 . S
C2614 C2615 1.385 . S
C2614 C2616 1.478 . S
C2615 H2609 0.930 . S
C2615 C2611 1.400 . S
C2615 C2614 1.385 . S
C2616 C2614 1.478 . S
C2616 C2618 1.381 . S
C2616 C2622 1.383 . S
C2617 C2613 1.495 . S
C2617 H2623 0.959 . S
C2617 H2624 0.961 . S
C2617 H2625 0.960 . S
C2618 C2616 1.381 . S
C2618 C2619 1.394 . S
C2618 H2626 0.930 . S
C2619 C2618 1.394 . S
C2619 C2620 1.383 . S
C2619 H2627 0.929 . S
C2620 C2619 1.383 . S
C2620 C2621 1.377 . S
C2621 H2605 0.930 . S
C2621 C2620 1.377 . S
C2621 C2622 1.379 . S
C2622 H2606 0.931 . S
C2622 C2616 1.383 . S
C2622 C2621 1.379 . S
H2623 C2617 0.959 . S
H2624 C2617 0.961 . S
H2625 C2617 0.960 . S
H2626 C2618 0.930 . S
H2627 C2619 0.929 . S
H2628 C2636 0.929 . S
H2629 C2638 0.930 . S
H2630 C2640 0.930 . S
H2631 C2643 0.942 . S
H2632 C2646 0.930 . S
H2633 C2648 0.960 . S
H2634 C2648 0.960 . S
H2635 C2648 0.960 . S
C2636 H2628 0.929 . S
C2636 C2637 1.377 . S
C2636 C2638 1.384 . S
C2637 C2636 1.377 . S
C2637 C2643 1.390 . S
C2638 H2629 0.930 . S
C2638 C2636 1.384 . S
C2638 C2639 1.372 . S
C2639 C2638 1.372 . S
C2639 C2640 1.400 . S
C2639 C2644 1.490 . S
C2640 H2630 0.930 . S
C2640 C2639 1.400 . S
C2640 C2643 1.386 . S
H2641 C2657 0.930 . S
H2642 C2658 0.931 . S
C2643 H2631 0.942 . S
C2643 C2637 1.390 . S
C2643 C2640 1.386 . S
C2644 C2639 1.490 . S
C2644 C2646 1.395 . S
C2644 C2647 1.403 . S
H2645 C2651 0.930 . S
C2646 H2632 0.930 . S
C2646 C2644 1.395 . S
C2646 C2649 1.403 . S
C2647 C2644 1.403 . S
C2647 C2648 1.524 . S
C2647 C2651 1.400 . S
C2648 H2633 0.960 . S
C2648 H2634 0.960 . S
C2648 H2635 0.960 . S
C2648 C2647 1.524 . S
C2649 C2646 1.403 . S
C2649 C2650 1.392 . S
C2649 C2653 1.495 . S
C2650 C2649 1.392 . S
C2650 C2651 1.385 . S
C2650 C2652 1.478 . S
C2651 H2645 0.930 . S
C2651 C2647 1.400 . S
C2651 C2650 1.385 . S
C2652 C2650 1.478 . S
C2652 C2654 1.381 . S
C2652 C2658 1.383 . S
C2653 C2649 1.495 . S
C2653 H2659 0.959 . S
C2653 H2660 0.961 . S
C2653 H2661 0.960 . S
C2654 C2652 1.381 . S
C2654 C2655 1.394 . S
C2654 H2662 0.930 . S
C2655 C2654 1.394 . S
C2655 C2656 1.383 . S
C2655 H2663 0.929 . S
C2656 C2655 1.383 . S
C2656 C2657 1.377 . S
C2657 H2641 0.930 . S
C2657 C2656 1.377 . S
C2657 C2658 1.379 . S
C2658 H2642 0.931 . S
C2658 C2652 1.383 . S
C2658 C2657 1.379 . S
H2659 C2653 0.959 . S
H2660 C2653 0.961 . S
H2661 C2653 0.960 . S
H2662 C2654 0.930 . S
H2663 C2655 0.929 . S
H2664 C2672 0.929 . S
H2665 C2674 0.930 . S
H2666 C2676 0.930 . S
H2667 C2679 0.929 . S
H2668 C2682 0.930 . S
H2669 C2684 0.960 . S
H2670 C2684 0.960 . S
H2671 C2684 0.960 . S
C2672 H2664 0.929 . S
C2672 C2673 1.377 . S
C2672 C2674 1.384 . S
C2673 C2672 1.377 . S
C2673 C2679 1.390 . S
C2674 H2665 0.930 . S
C2674 C2672 1.384 . S
C2674 C2675 1.372 . S
C2675 C2674 1.372 . S
C2675 C2676 1.400 . S
C2675 C2680 1.490 . S
C2676 H2666 0.930 . S
C2676 C2675 1.400 . S
C2676 C2679 1.386 . S
H2677 C2693 0.930 . S
H2678 C2694 0.931 . S
C2679 H2667 0.929 . S
C2679 C2673 1.390 . S
C2679 C2676 1.386 . S
C2680 C2675 1.490 . S
C2680 C2682 1.395 . S
C2680 C2683 1.403 . S
H2681 C2687 0.930 . S
C2682 H2668 0.930 . S
C2682 C2680 1.395 . S
C2682 C2685 1.403 . S
C2683 C2680 1.403 . S
C2683 C2684 1.524 . S
C2683 C2687 1.400 . S
C2684 H2669 0.960 . S
C2684 H2670 0.960 . S
C2684 H2671 0.960 . S
C2684 C2683 1.524 . S
C2685 C2682 1.403 . S
C2685 C2686 1.392 . S
C2685 C2689 1.495 . S
C2686 C2685 1.392 . S
C2686 C2687 1.385 . S
C2686 C2688 1.478 . S
C2687 H2681 0.930 . S
C2687 C2683 1.400 . S
C2687 C2686 1.385 . S
C2688 C2686 1.478 . S
C2688 C2690 1.381 . S
C2688 C2694 1.383 . S
C2689 C2685 1.495 . S
C2689 H2695 0.959 . S
C2689 H2696 0.961 . S
C2689 H2697 0.960 . S
C2690 C2688 1.381 . S
C2690 C2691 1.394 . S
C2690 H2698 0.930 . S
C2691 C2690 1.394 . S
C2691 C2692 1.383 . S
C2691 H2699 0.929 . S
C2692 C2691 1.383 . S
C2692 C2693 1.377 . S
C2693 H2677 0.930 . S
C2693 C2692 1.377 . S
C2693 C2694 1.379 . S
C2694 H2678 0.931 . S
C2694 C2688 1.383 . S
C2694 C2693 1.379 . S
H2695 C2689 0.959 . S
H2696 C2689 0.961 . S
H2697 C2689 0.960 . S
H2698 C2690 0.930 . S
H2699 C2691 0.929 . S
H2700 C2708 0.929 . S
H2701 C2710 0.930 . S
H2702 C2712 0.930 . S
H2703 C2715 0.929 . S
H2704 C2718 0.930 . S
H2705 C2720 0.960 . S
H2706 C2720 0.960 . S
H2707 C2720 0.960 . S
C2708 H2700 0.929 . S
C2708 C2709 1.377 . S
C2708 C2710 1.384 . S
C2709 C2708 1.377 . S
C2709 C2715 1.390 . S
C2710 H2701 0.930 . S
C2710 C2708 1.384 . S
C2710 C2711 1.372 . S
C2711 C2710 1.372 . S
C2711 C2712 1.400 . S
C2711 C2716 1.490 . S
C2712 H2702 0.930 . S
C2712 C2711 1.400 . S
C2712 C2715 1.386 . S
H2713 C2729 0.930 . S
H2714 C2730 0.931 . S
C2715 H2703 0.929 . S
C2715 C2709 1.390 . S
C2715 C2712 1.386 . S
C2716 C2711 1.490 . S
C2716 C2718 1.395 . S
C2716 C2719 1.403 . S
H2717 C2723 0.930 . S
C2718 H2704 0.930 . S
C2718 C2716 1.395 . S
C2718 C2721 1.403 . S
C2719 C2716 1.403 . S
C2719 C2720 1.524 . S
C2719 C2723 1.400 . S
C2720 H2705 0.960 . S
C2720 H2706 0.960 . S
C2720 H2707 0.960 . S
C2720 C2719 1.524 . S
C2721 C2718 1.403 . S
C2721 C2722 1.392 . S
C2721 C2725 1.495 . S
C2722 C2721 1.392 . S
C2722 C2723 1.385 . S
C2722 C2724 1.478 . S
C2723 H2717 0.930 . S
C2723 C2719 1.400 . S
C2723 C2722 1.385 . S
C2724 C2722 1.478 . S
C2724 C2726 1.381 . S
C2724 C2730 1.383 . S
C2725 C2721 1.495 . S
C2725 H2731 0.959 . S
C2725 H2732 0.961 . S
C2725 H2733 0.960 . S
C2726 C2724 1.381 . S
C2726 C2727 1.394 . S
C2726 H2734 0.930 . S
C2727 C2726 1.394 . S
C2727 C2728 1.383 . S
C2727 H2735 0.929 . S
C2728 C2727 1.383 . S
C2728 C2729 1.377 . S
C2729 H2713 0.930 . S
C2729 C2728 1.377 . S
C2729 C2730 1.379 . S
C2730 H2714 0.931 . S
C2730 C2724 1.383 . S
C2730 C2729 1.379 . S
H2731 C2725 0.959 . S
H2732 C2725 0.961 . S
H2733 C2725 0.960 . S
H2734 C2726 0.930 . S
H2735 C2727 0.929 . S
H2736 C2744 0.929 . S
H2737 C2746 0.930 . S
H2738 C2748 0.930 . S
H2739 C2751 0.929 . S
H2740 C2754 0.930 . S
H2741 C2756 0.960 . S
H2742 C2756 0.960 . S
H2743 C2756 0.960 . S
C2744 H2736 0.929 . S
C2744 C2745 1.377 . S
C2744 C2746 1.384 . S
C2745 C2744 1.377 . S
C2745 C2751 1.390 . S
C2746 H2737 0.930 . S
C2746 C2744 1.384 . S
C2746 C2747 1.372 . S
C2747 C2746 1.372 . S
C2747 C2748 1.400 . S
C2747 C2752 1.490 . S
C2748 H2738 0.930 . S
C2748 C2747 1.400 . S
C2748 C2751 1.386 . S
H2749 C2765 0.930 . S
H2750 C2766 0.931 . S
C2751 H2739 0.929 . S
C2751 C2745 1.390 . S
C2751 C2748 1.386 . S
C2752 C2747 1.490 . S
C2752 C2754 1.395 . S
C2752 C2755 1.403 . S
H2753 C2759 0.930 . S
C2754 H2740 0.930 . S
C2754 C2752 1.395 . S
C2754 C2757 1.403 . S
C2755 C2752 1.403 . S
C2755 C2756 1.524 . S
C2755 C2759 1.400 . S
C2756 H2741 0.960 . S
C2756 H2742 0.960 . S
C2756 H2743 0.960 . S
C2756 C2755 1.524 . S
C2757 C2754 1.403 . S
C2757 C2758 1.392 . S
C2757 C2761 1.495 . S
C2758 C2757 1.392 . S
C2758 C2759 1.385 . S
C2758 C2760 1.478 . S
C2759 H2753 0.930 . S
C2759 C2755 1.400 . S
C2759 C2758 1.385 . S
C2760 C2758 1.478 . S
C2760 C2762 1.381 . S
C2760 C2766 1.383 . S
C2761 C2757 1.495 . S
C2761 H2767 0.959 . S
C2761 H2768 0.961 . S
C2761 H2769 0.960 . S
C2762 C2760 1.381 . S
C2762 C2763 1.394 . S
C2762 H2770 0.930 . S
C2763 C2762 1.394 . S
C2763 C2764 1.383 . S
C2763 H2771 0.929 . S
C2764 C2763 1.383 . S
C2764 C2765 1.377 . S
C2765 H2749 0.930 . S
C2765 C2764 1.377 . S
C2765 C2766 1.379 . S
C2766 H2750 0.931 . S
C2766 C2760 1.383 . S
C2766 C2765 1.379 . S
H2767 C2761 0.959 . S
H2768 C2761 0.961 . S
H2769 C2761 0.960 . S
H2770 C2762 0.930 . S
H2771 C2763 0.929 . S
H2772 C2780 0.929 . S
H2773 C2782 0.930 . S
H2774 C2784 0.930 . S
H2775 C2787 0.929 . S
H2776 C2790 0.930 . S
H2777 C2792 0.960 . S
H2778 C2792 0.960 . S
H2779 C2792 0.960 . S
C2780 H2772 0.929 . S
C2780 C2781 1.377 . S
C2780 C2782 1.384 . S
C2781 C2780 1.377 . S
C2781 C2787 1.390 . S
C2782 H2773 0.930 . S
C2782 C2780 1.384 . S
C2782 C2783 1.372 . S
C2783 C2782 1.372 . S
C2783 C2784 1.400 . S
C2783 C2788 1.490 . S
C2784 H2774 0.930 . S
C2784 C2783 1.400 . S
C2784 C2787 1.386 . S
H2785 C2801 0.930 . S
H2786 C2802 0.931 . S
C2787 H2775 0.929 . S
C2787 C2781 1.390 . S
C2787 C2784 1.386 . S
C2788 C2783 1.490 . S
C2788 C2790 1.395 . S
C2788 C2791 1.403 . S
H2789 C2795 0.930 . S
C2790 H2776 0.930 . S
C2790 C2788 1.395 . S
C2790 C2793 1.403 . S
C2791 C2788 1.403 . S
C2791 C2792 1.524 . S
C2791 C2795 1.400 . S
C2792 H2777 0.960 . S
C2792 H2778 0.960 . S
C2792 H2779 0.960 . S
C2792 C2791 1.524 . S
C2793 C2790 1.403 . S
C2793 C2794 1.392 . S
C2793 C2797 1.495 . S
C2794 C2793 1.392 . S
C2794 C2795 1.385 . S
C2794 C2796 1.478 . S
C2795 H2789 0.930 . S
C2795 C2791 1.400 . S
C2795 C2794 1.385 . S
C2796 C2794 1.478 . S
C2796 C2798 1.381 . S
C2796 C2802 1.383 . S
C2797 C2793 1.495 . S
C2797 H2803 0.959 . S
C2797 H2804 0.961 . S
C2797 H2805 0.960 . S
C2798 C2796 1.381 . S
C2798 C2799 1.394 . S
C2798 H2806 0.930 . S
C2799 C2798 1.394 . S
C2799 C2800 1.383 . S
C2799 H2807 0.929 . S
C2800 C2799 1.383 . S
C2800 C2801 1.377 . S
C2801 H2785 0.930 . S
C2801 C2800 1.377 . S
C2801 C2802 1.379 . S
C2802 H2786 0.931 . S
C2802 C2796 1.383 . S
C2802 C2801 1.379 . S
H2803 C2797 0.959 . S
H2804 C2797 0.961 . S
H2805 C2797 0.960 . S
H2806 C2798 0.930 . S
H2807 C2799 0.929 . S
H2808 C2816 0.929 . S
H2809 C2818 0.930 . S
H2810 C2820 0.930 . S
H2811 C2823 0.929 . S
H2812 C2826 0.930 . S
H2813 C2828 0.960 . S
H2814 C2828 0.960 . S
H2815 C2828 0.960 . S
C2816 H2808 0.929 . S
C2816 C2817 1.377 . S
C2816 C2818 1.384 . S
C2817 C2816 1.377 . S
C2817 C2823 1.390 . S
C2818 H2809 0.930 . S
C2818 C2816 1.384 . S
C2818 C2819 1.372 . S
C2819 C2818 1.372 . S
C2819 C2820 1.400 . S
C2819 C2824 1.490 . S
C2820 H2810 0.930 . S
C2820 C2819 1.400 . S
C2820 C2823 1.386 . S
H2821 C2837 0.930 . S
H2822 C2838 0.931 . S
C2823 H2811 0.929 . S
C2823 C2817 1.390 . S
C2823 C2820 1.386 . S
C2824 C2819 1.490 . S
C2824 C2826 1.395 . S
C2824 C2827 1.403 . S
H2825 C2831 0.930 . S
C2826 H2812 0.930 . S
C2826 C2824 1.395 . S
C2826 C2829 1.403 . S
C2827 C2824 1.403 . S
C2827 C2828 1.524 . S
C2827 C2831 1.400 . S
C2828 H2813 0.960 . S
C2828 H2814 0.960 . S
C2828 H2815 0.960 . S
C2828 C2827 1.524 . S
C2829 C2826 1.403 . S
C2829 C2830 1.392 . S
C2829 C2833 1.495 . S
C2830 C2829 1.392 . S
C2830 C2831 1.385 . S
C2830 C2832 1.478 . S
C2831 H2825 0.930 . S
C2831 C2827 1.400 . S
C2831 C2830 1.385 . S
C2832 C2830 1.478 . S
C2832 C2834 1.381 . S
C2832 C2838 1.383 . S
C2833 C2829 1.495 . S
C2833 H2839 0.959 . S
C2833 H2840 0.961 . S
C2833 H2841 0.960 . S
C2834 C2832 1.381 . S
C2834 C2835 1.394 . S
C2834 H2842 0.930 . S
C2835 C2834 1.394 . S
C2835 C2836 1.383 . S
C2835 H2843 0.929 . S
C2836 C2835 1.383 . S
C2836 C2837 1.377 . S
C2837 H2821 0.930 . S
C2837 C2836 1.377 . S
C2837 C2838 1.379 . S
C2838 H2822 0.931 . S
C2838 C2832 1.383 . S
C2838 C2837 1.379 . S
H2839 C2833 0.959 . S
H2840 C2833 0.961 . S
H2841 C2833 0.960 . S
H2842 C2834 0.930 . S
H2843 C2835 0.929 . S
H2844 C2852 0.929 . S
H2845 C2854 0.930 . S
H2846 C2856 0.930 . S
H2847 C2859 0.929 . S
H2848 C2862 0.930 . S
H2849 C2864 0.960 . S
H2850 C2864 0.960 . S
H2851 C2864 0.960 . S
C2852 H2844 0.929 . S
C2852 C2853 1.377 . S
C2852 C2854 1.384 . S
C2853 C2852 1.377 . S
C2853 C2859 1.390 . S
C2854 H2845 0.930 . S
C2854 C2852 1.384 . S
C2854 C2855 1.372 . S
C2855 C2854 1.372 . S
C2855 C2856 1.400 . S
C2855 C2860 1.490 . S
C2856 H2846 0.930 . S
C2856 C2855 1.400 . S
C2856 C2859 1.386 . S
H2857 C2873 0.930 . S
H2858 C2874 0.931 . S
C2859 H2847 0.929 . S
C2859 C2853 1.390 . S
C2859 C2856 1.386 . S
C2860 C2855 1.490 . S
C2860 C2862 1.395 . S
C2860 C2863 1.403 . S
H2861 C2867 0.930 . S
C2862 H2848 0.930 . S
C2862 C2860 1.395 . S
C2862 C2865 1.403 . S
C2863 C2860 1.403 . S
C2863 C2864 1.524 . S
C2863 C2867 1.400 . S
C2864 H2849 0.960 . S
C2864 H2850 0.960 . S
C2864 H2851 0.960 . S
C2864 C2863 1.524 . S
C2865 C2862 1.403 . S
C2865 C2866 1.392 . S
C2865 C2869 1.495 . S
C2866 C2865 1.392 . S
C2866 C2867 1.385 . S
C2866 C2868 1.478 . S
C2867 H2861 0.930 . S
C2867 C2863 1.400 . S
C2867 C2866 1.385 . S
C2868 C2866 1.478 . S
C2868 C2870 1.381 . S
C2868 C2874 1.383 . S
C2869 C2865 1.495 . S
C2869 H2875 0.959 . S
C2869 H2876 0.961 . S
C2869 H2877 0.960 . S
C2870 C2868 1.381 . S
C2870 C2871 1.394 . S
C2870 H2878 0.930 . S
C2871 C2870 1.394 . S
C2871 C2872 1.383 . S
C2871 H2879 0.929 . S
C2872 C2871 1.383 . S
C2872 C2873 1.377 . S
C2873 H2857 0.930 . S
C2873 C2872 1.377 . S
C2873 C2874 1.379 . S
C2874 H2858 0.931 . S
C2874 C2868 1.383 . S
C2874 C2873 1.379 . S
H2875 C2869 0.959 . S
H2876 C2869 0.961 . S
H2877 C2869 0.960 . S
H2878 C2870 0.930 . S
H2879 C2871 0.929 . S
H2880 C2888 0.929 . S
H2881 C2890 0.930 . S
H2882 C2892 0.930 . S
H2883 C2895 0.929 . S
H2884 C2898 0.930 . S
H2885 C2900 0.960 . S
H2886 C2900 0.960 . S
H2887 C2900 0.960 . S
C2888 H2880 0.929 . S
C2888 C2889 1.377 . S
C2888 C2890 1.384 . S
C2889 C2888 1.377 . S
C2889 C2895 1.390 . S
C2890 H2881 0.930 . S
C2890 C2888 1.384 . S
C2890 C2891 1.372 . S
C2891 C2890 1.372 . S
C2891 C2892 1.400 . S
C2891 C2896 1.490 . S
C2892 H2882 0.930 . S
C2892 C2891 1.400 . S
C2892 C2895 1.386 . S
H2893 C2909 0.930 . S
H2894 C2910 0.931 . S
C2895 H2883 0.929 . S
C2895 C2889 1.390 . S
C2895 C2892 1.386 . S
C2896 C2891 1.490 . S
C2896 C2898 1.395 . S
C2896 C2899 1.403 . S
H2897 C2903 0.930 . S
C2898 H2884 0.930 . S
C2898 C2896 1.395 . S
C2898 C2901 1.403 . S
C2899 C2896 1.403 . S
C2899 C2900 1.524 . S
C2899 C2903 1.400 . S
C2900 H2885 0.960 . S
C2900 H2886 0.960 . S
C2900 H2887 0.960 . S
C2900 C2899 1.524 . S
C2901 C2898 1.403 . S
C2901 C2902 1.392 . S
C2901 C2905 1.495 . S
C2902 C2901 1.392 . S
C2902 C2903 1.385 . S
C2902 C2904 1.478 . S
C2903 H2897 0.930 . S
C2903 C2899 1.400 . S
C2903 C2902 1.385 . S
C2904 C2902 1.478 . S
C2904 C2906 1.381 . S
C2904 C2910 1.383 . S
C2905 C2901 1.495 . S
C2905 H2911 0.959 . S
C2905 H2912 0.961 . S
C2905 H2913 0.960 . S
C2906 C2904 1.381 . S
C2906 C2907 1.394 . S
C2906 H2914 0.930 . S
C2907 C2906 1.394 . S
C2907 C2908 1.383 . S
C2907 H2915 0.929 . S
C2908 C2907 1.383 . S
C2908 C2909 1.377 . S
C2909 H2893 0.930 . S
C2909 C2908 1.377 . S
C2909 C2910 1.379 . S
C2910 H2894 0.931 . S
C2910 C2904 1.383 . S
C2910 C2909 1.379 . S
H2911 C2905 0.959 . S
H2912 C2905 0.961 . S
H2913 C2905 0.960 . S
H2914 C2906 0.930 . S
H2915 C2907 0.929 . S
H2916 C2924 0.929 . S
H2917 C2926 0.930 . S
H2918 C2928 0.930 . S
H2919 C2931 0.929 . S
H2920 C2934 0.930 . S
H2921 C2936 0.960 . S
H2922 C2936 0.960 . S
H2923 C2936 0.960 . S
C2924 H2916 0.929 . S
C2924 C2925 1.377 . S
C2924 C2926 1.384 . S
C2925 C2924 1.377 . S
C2925 C2931 1.390 . S
C2926 H2917 0.930 . S
C2926 C2924 1.384 . S
C2926 C2927 1.372 . S
C2927 C2926 1.372 . S
C2927 C2928 1.400 . S
C2927 C2932 1.490 . S
C2928 H2918 0.930 . S
C2928 C2927 1.400 . S
C2928 C2931 1.386 . S
H2929 C2945 0.930 . S
H2930 C2946 0.931 . S
C2931 H2919 0.929 . S
C2931 C2925 1.390 . S
C2931 C2928 1.386 . S
C2932 C2927 1.490 . S
C2932 C2934 1.395 . S
C2932 C2935 1.403 . S
H2933 C2939 0.930 . S
C2934 H2920 0.930 . S
C2934 C2932 1.395 . S
C2934 C2937 1.403 . S
C2935 C2932 1.403 . S
C2935 C2936 1.524 . S
C2935 C2939 1.400 . S
C2936 H2921 0.960 . S
C2936 H2922 0.960 . S
C2936 H2923 0.960 . S
C2936 C2935 1.524 . S
C2937 C2934 1.403 . S
C2937 C2938 1.392 . S
C2937 C2941 1.495 . S
C2938 C2937 1.392 . S
C2938 C2939 1.385 . S
C2938 C2940 1.478 . S
C2939 H2933 0.930 . S
C2939 C2935 1.400 . S
C2939 C2938 1.385 . S
C2940 C2938 1.478 . S
C2940 C2942 1.381 . S
C2940 C2946 1.383 . S
C2941 C2937 1.495 . S
C2941 H2947 0.959 . S
C2941 H2948 0.961 . S
C2941 H2949 0.960 . S
C2942 C2940 1.381 . S
C2942 C2943 1.394 . S
C2942 H2950 0.930 . S
C2943 C2942 1.394 . S
C2943 C2944 1.383 . S
C2943 H2951 0.929 . S
C2944 C2943 1.383 . S
C2944 C2945 1.377 . S
C2945 H2929 0.930 . S
C2945 C2944 1.377 . S
C2945 C2946 1.379 . S
C2946 H2930 0.931 . S
C2946 C2940 1.383 . S
C2946 C2945 1.379 . S
H2947 C2941 0.959 . S
H2948 C2941 0.961 . S
H2949 C2941 0.960 . S
H2950 C2942 0.930 . S
H2951 C2943 0.929 . S
H2952 C2960 0.929 . S
H2953 C2962 0.930 . S
H2954 C2964 0.930 . S
H2955 C2967 0.929 . S
H2956 C2970 0.930 . S
H2957 C2972 0.960 . S
H2958 C2972 0.960 . S
H2959 C2972 0.960 . S
C2960 H2952 0.929 . S
C2960 C2961 1.377 . S
C2960 C2962 1.384 . S
C2961 C2960 1.377 . S
C2961 C2967 1.390 . S
C2962 H2953 0.930 . S
C2962 C2960 1.384 . S
C2962 C2963 1.372 . S
C2963 C2962 1.372 . S
C2963 C2964 1.400 . S
C2963 C2968 1.490 . S
C2964 H2954 0.930 . S
C2964 C2963 1.400 . S
C2964 C2967 1.386 . S
H2965 C2981 0.930 . S
H2966 C2982 0.931 . S
C2967 H2955 0.929 . S
C2967 C2961 1.390 . S
C2967 C2964 1.386 . S
C2968 C2963 1.490 . S
C2968 C2970 1.395 . S
C2968 C2971 1.403 . S
H2969 C2975 0.930 . S
C2970 H2956 0.930 . S
C2970 C2968 1.395 . S
C2970 C2973 1.403 . S
C2971 C2968 1.403 . S
C2971 C2972 1.524 . S
C2971 C2975 1.400 . S
C2972 H2957 0.960 . S
C2972 H2958 0.960 . S
C2972 H2959 0.960 . S
C2972 C2971 1.524 . S
C2973 C2970 1.403 . S
C2973 C2974 1.392 . S
C2973 C2977 1.495 . S
C2974 C2973 1.392 . S
C2974 C2975 1.385 . S
C2974 C2976 1.478 . S
C2975 H2969 0.930 . S
C2975 C2971 1.400 . S
C2975 C2974 1.385 . S
C2976 C2974 1.478 . S
C2976 C2978 1.381 . S
C2976 C2982 1.383 . S
C2977 C2973 1.495 . S
C2977 H2983 0.959 . S
C2977 H2984 0.961 . S
C2977 H2985 0.960 . S
C2978 C2976 1.381 . S
C2978 C2979 1.394 . S
C2978 H2986 0.930 . S
C2979 C2978 1.394 . S
C2979 C2980 1.383 . S
C2979 H2987 0.929 . S
C2980 C2979 1.383 . S
C2980 C2981 1.377 . S
C2981 H2965 0.930 . S
C2981 C2980 1.377 . S
C2981 C2982 1.379 . S
C2982 H2966 0.931 . S
C2982 C2976 1.383 . S
C2982 C2981 1.379 . S
H2983 C2977 0.959 . S
H2984 C2977 0.961 . S
H2985 C2977 0.960 . S
H2986 C2978 0.930 . S
H2987 C2979 0.929 . S
H2988 C2996 0.929 1_455 S
H2989 C2998 0.930 . S
H2990 C3000 0.930 . S
H2991 C3003 0.929 . S
H2992 C3006 0.930 . S
H2993 C3008 0.960 . S
H2994 C3008 0.960 . S
H2995 C3008 0.960 . S
C2996 H2988 0.929 1_655 S
C2996 C2997 1.377 . S
C2996 C2998 1.384 . S
C2997 C2996 1.377 . S
C2997 C3003 1.390 . S
C2998 H2989 0.930 . S
C2998 C2996 1.384 . S
C2998 C2999 1.372 . S
C2999 C2998 1.372 . S
C2999 C3000 1.400 . S
C2999 C3004 1.490 . S
C3000 H2990 0.930 . S
C3000 C2999 1.400 . S
C3000 C3003 1.386 . S
H3001 C3017 0.930 . S
H3002 C3018 0.931 . S
C3003 H2991 0.929 . S
C3003 C2997 1.390 . S
C3003 C3000 1.386 . S
C3004 C2999 1.490 . S
C3004 C3006 1.395 . S
C3004 C3007 1.403 . S
H3005 C3011 0.930 . S
C3006 H2992 0.930 . S
C3006 C3004 1.395 . S
C3006 C3009 1.403 . S
C3007 C3004 1.403 . S
C3007 C3008 1.524 . S
C3007 C3011 1.400 . S
C3008 H2993 0.960 . S
C3008 H2994 0.960 . S
C3008 H2995 0.960 . S
C3008 C3007 1.524 . S
C3009 C3006 1.403 . S
C3009 C3010 1.392 . S
C3009 C3013 1.495 . S
C3010 C3009 1.392 . S
C3010 C3011 1.385 . S
C3010 C3012 1.478 . S
C3011 H3005 0.930 . S
C3011 C3007 1.400 . S
C3011 C3010 1.385 . S
C3012 C3010 1.478 . S
C3012 C3014 1.381 . S
C3012 C3018 1.383 . S
C3013 C3009 1.495 . S
C3013 H3019 0.959 . S
C3013 H3020 0.961 . S
C3013 H3021 0.960 . S
C3014 C3012 1.381 . S
C3014 C3015 1.394 . S
C3014 H3022 0.930 . S
C3015 C3014 1.394 . S
C3015 C3016 1.383 . S
C3015 H3023 0.929 . S
C3016 C3015 1.383 . S
C3016 C3017 1.377 . S
C3017 H3001 0.930 . S
C3017 C3016 1.377 . S
C3017 C3018 1.379 . S
C3018 H3002 0.931 . S
C3018 C3012 1.383 . S
C3018 C3017 1.379 . S
H3019 C3013 0.959 . S
H3020 C3013 0.961 . S
H3021 C3013 0.960 . S
H3022 C3014 0.930 . S
H3023 C3015 0.929 . S
H3024 C3032 0.929 . S
H3025 C3034 0.930 . S
H3026 C3036 0.930 . S
H3027 C3039 0.929 . S
H3028 C3042 0.930 . S
H3029 C3044 0.960 . S
H3030 C3044 0.960 . S
H3031 C3044 0.960 . S
C3032 H3024 0.929 . S
C3032 C3033 1.377 . S
C3032 C3034 1.384 . S
C3033 C3032 1.377 . S
C3033 C3039 1.390 . S
C3034 H3025 0.930 . S
C3034 C3032 1.384 . S
C3034 C3035 1.372 . S
C3035 C3034 1.372 . S
C3035 C3036 1.400 . S
C3035 C3040 1.490 . S
C3036 H3026 0.930 . S
C3036 C3035 1.400 . S
C3036 C3039 1.386 . S
H3037 C3053 0.930 . S
H3038 C3054 0.931 . S
C3039 H3027 0.929 . S
C3039 C3033 1.390 . S
C3039 C3036 1.386 . S
C3040 C3035 1.490 . S
C3040 C3042 1.395 . S
C3040 C3043 1.403 . S
H3041 C3047 0.930 . S
C3042 H3028 0.930 . S
C3042 C3040 1.395 . S
C3042 C3045 1.403 . S
C3043 C3040 1.403 . S
C3043 C3044 1.524 . S
C3043 C3047 1.400 . S
C3044 H3029 0.960 . S
C3044 H3030 0.960 . S
C3044 H3031 0.960 . S
C3044 C3043 1.524 . S
C3045 C3042 1.403 . S
C3045 C3046 1.392 . S
C3045 C3049 1.495 . S
C3046 C3045 1.392 . S
C3046 C3047 1.385 . S
C3046 C3048 1.478 . S
C3047 H3041 0.930 . S
C3047 C3043 1.400 . S
C3047 C3046 1.385 . S
C3048 C3046 1.478 . S
C3048 C3050 1.381 . S
C3048 C3054 1.383 . S
C3049 C3045 1.495 . S
C3049 H3055 0.959 . S
C3049 H3056 0.961 . S
C3049 H3057 0.960 . S
C3050 C3048 1.381 . S
C3050 C3051 1.394 . S
C3050 H3058 0.930 . S
C3051 C3050 1.394 . S
C3051 C3052 1.383 . S
C3051 H3059 0.929 . S
C3052 C3051 1.383 . S
C3052 C3053 1.377 . S
C3053 H3037 0.930 . S
C3053 C3052 1.377 . S
C3053 C3054 1.379 . S
C3054 H3038 0.931 . S
C3054 C3048 1.383 . S
C3054 C3053 1.379 . S
H3055 C3049 0.959 . S
H3056 C3049 0.961 . S
H3057 C3049 0.960 . S
H3058 C3050 0.930 . S
H3059 C3051 0.929 . S
H3060 C3068 0.929 . S
H3061 C3070 0.930 . S
H3062 C3072 0.930 . S
H3063 C3075 0.929 . S
H3064 C3078 0.930 . S
H3065 C3080 0.960 . S
H3066 C3080 0.960 . S
H3067 C3080 0.960 . S
C3068 H3060 0.929 . S
C3068 C3069 1.377 . S
C3068 C3070 1.384 . S
C3069 C3068 1.377 . S
C3069 C3075 1.390 . S
C3070 H3061 0.930 . S
C3070 C3068 1.384 . S
C3070 C3071 1.372 . S
C3071 C3070 1.372 . S
C3071 C3072 1.400 . S
C3071 C3076 1.490 . S
C3072 H3062 0.930 . S
C3072 C3071 1.400 . S
C3072 C3075 1.386 . S
H3073 C3089 0.930 . S
H3074 C3090 0.931 . S
C3075 H3063 0.929 . S
C3075 C3069 1.390 . S
C3075 C3072 1.386 . S
C3076 C3071 1.490 . S
C3076 C3078 1.395 . S
C3076 C3079 1.403 . S
H3077 C3083 0.930 . S
C3078 H3064 0.930 . S
C3078 C3076 1.395 . S
C3078 C3081 1.403 . S
C3079 C3076 1.403 . S
C3079 C3080 1.524 . S
C3079 C3083 1.400 . S
C3080 H3065 0.960 . S
C3080 H3066 0.960 . S
C3080 H3067 0.960 . S
C3080 C3079 1.524 . S
C3081 C3078 1.403 . S
C3081 C3082 1.392 . S
C3081 C3085 1.495 . S
C3082 C3081 1.392 . S
C3082 C3083 1.385 . S
C3082 C3084 1.478 . S
C3083 H3077 0.930 . S
C3083 C3079 1.400 . S
C3083 C3082 1.385 . S
C3084 C3082 1.478 . S
C3084 C3086 1.381 . S
C3084 C3090 1.383 . S
C3085 C3081 1.495 . S
C3085 H3091 0.959 . S
C3085 H3092 0.961 . S
C3085 H3093 0.960 . S
C3086 C3084 1.381 . S
C3086 C3087 1.394 . S
C3086 H3094 0.930 . S
C3087 C3086 1.394 . S
C3087 C3088 1.383 . S
C3087 H3095 0.929 . S
C3088 C3087 1.383 . S
C3088 C3089 1.377 . S
C3089 H3073 0.930 . S
C3089 C3088 1.377 . S
C3089 C3090 1.379 . S
C3090 H3074 0.931 . S
C3090 C3084 1.383 . S
C3090 C3089 1.379 . S
H3091 C3085 0.959 . S
H3092 C3085 0.961 . S
H3093 C3085 0.960 . S
H3094 C3086 0.930 . S
H3095 C3087 0.929 . S
H3096 C3104 0.929 . S
H3097 C3106 0.930 . S
H3098 C3108 0.930 . S
H3099 C3111 0.929 . S
H3100 C3114 0.930 . S
H3101 C3116 0.960 . S
H3102 C3116 0.960 . S
H3103 C3116 0.960 . S
C3104 H3096 0.929 . S
C3104 C3105 1.377 . S
C3104 C3106 1.384 . S
C3105 C3104 1.377 . S
C3105 C3111 1.390 . S
C3106 H3097 0.930 . S
C3106 C3104 1.384 . S
C3106 C3107 1.372 . S
C3107 C3106 1.372 . S
C3107 C3108 1.400 . S
C3107 C3112 1.490 . S
C3108 H3098 0.930 . S
C3108 C3107 1.400 . S
C3108 C3111 1.386 . S
H3109 C3125 0.930 . S
H3110 C3126 0.931 . S
C3111 H3099 0.929 . S
C3111 C3105 1.390 . S
C3111 C3108 1.386 . S
C3112 C3107 1.490 . S
C3112 C3114 1.395 . S
C3112 C3115 1.403 . S
H3113 C3119 0.930 . S
C3114 H3100 0.930 . S
C3114 C3112 1.395 . S
C3114 C3117 1.403 . S
C3115 C3112 1.403 . S
C3115 C3116 1.524 . S
C3115 C3119 1.400 . S
C3116 H3101 0.960 . S
C3116 H3102 0.960 . S
C3116 H3103 0.960 . S
C3116 C3115 1.524 . S
C3117 C3114 1.403 . S
C3117 C3118 1.392 . S
C3117 C3121 1.495 . S
C3118 C3117 1.392 . S
C3118 C3119 1.385 . S
C3118 C3120 1.478 . S
C3119 H3113 0.930 . S
C3119 C3115 1.400 . S
C3119 C3118 1.385 . S
C3120 C3118 1.478 . S
C3120 C3122 1.381 . S
C3120 C3126 1.383 . S
C3121 C3117 1.495 . S
C3121 H3127 0.959 . S
C3121 H3128 0.961 . S
C3121 H3129 0.960 . S
C3122 C3120 1.381 . S
C3122 C3123 1.394 . S
C3122 H3130 0.930 . S
C3123 C3122 1.394 . S
C3123 C3124 1.383 . S
C3123 H3131 0.929 . S
C3124 C3123 1.383 . S
C3124 C3125 1.377 . S
C3125 H3109 0.930 . S
C3125 C3124 1.377 . S
C3125 C3126 1.379 . S
C3126 H3110 0.931 . S
C3126 C3120 1.383 . S
C3126 C3125 1.379 . S
H3127 C3121 0.959 . S
H3128 C3121 0.961 . S
H3129 C3121 0.960 . S
H3130 C3122 0.930 . S
H3131 C3123 0.929 . S
H3132 C3140 0.929 . S
H3133 C3142 0.930 . S
H3134 C3144 0.930 . S
H3135 C3147 0.929 . S
H3136 C3150 0.930 . S
H3137 C3152 0.960 . S
H3138 C3152 0.960 . S
H3139 C3152 0.960 . S
C3140 H3132 0.929 . S
C3140 C3141 1.377 . S
C3140 C3142 1.384 . S
C3141 C3140 1.377 . S
C3141 C3147 1.390 . S
C3142 H3133 0.930 . S
C3142 C3140 1.384 . S
C3142 C3143 1.372 . S
C3143 C3142 1.372 . S
C3143 C3144 1.400 . S
C3143 C3148 1.490 . S
C3144 H3134 0.930 . S
C3144 C3143 1.400 . S
C3144 C3147 1.386 . S
H3145 C3161 0.930 . S
H3146 C3162 0.931 . S
C3147 H3135 0.929 . S
C3147 C3141 1.390 . S
C3147 C3144 1.386 . S
C3148 C3143 1.490 . S
C3148 C3150 1.395 . S
C3148 C3151 1.403 . S
H3149 C3155 0.930 . S
C3150 H3136 0.930 . S
C3150 C3148 1.395 . S
C3150 C3153 1.403 . S
C3151 C3148 1.403 . S
C3151 C3152 1.524 . S
C3151 C3155 1.400 . S
C3152 H3137 0.960 . S
C3152 H3138 0.960 . S
C3152 H3139 0.960 . S
C3152 C3151 1.524 . S
C3153 C3150 1.403 . S
C3153 C3154 1.392 . S
C3153 C3157 1.495 . S
C3154 C3153 1.392 . S
C3154 C3155 1.385 . S
C3154 C3156 1.478 . S
C3155 H3149 0.930 . S
C3155 C3151 1.400 . S
C3155 C3154 1.385 . S
C3156 C3154 1.478 . S
C3156 C3158 1.381 . S
C3156 C3162 1.383 . S
C3157 C3153 1.495 . S
C3157 H3163 0.959 . S
C3157 H3164 0.961 . S
C3157 H3165 0.960 . S
C3158 C3156 1.381 . S
C3158 C3159 1.394 . S
C3158 H3166 0.930 . S
C3159 C3158 1.394 . S
C3159 C3160 1.383 . S
C3159 H3167 0.929 . S
C3160 C3159 1.383 . S
C3160 C3161 1.377 . S
C3161 H3145 0.930 . S
C3161 C3160 1.377 . S
C3161 C3162 1.379 . S
C3162 H3146 0.931 . S
C3162 C3156 1.383 . S
C3162 C3161 1.379 . S
H3163 C3157 0.959 . S
H3164 C3157 0.961 . S
H3165 C3157 0.960 . S
H3166 C3158 0.930 . S
H3167 C3159 0.929 . S
H3168 C3176 0.929 1_545 S
H3169 C3178 0.930 . S
H3170 C3180 0.930 . S
H3171 C3183 0.929 . S
H3172 C3186 0.930 . S
H3173 C3188 0.960 . S
H3174 C3188 0.960 . S
H3175 C3188 0.960 . S
C3176 H3168 0.929 1_565 S
C3176 C3177 1.377 . S
C3176 C3178 1.384 . S
C3177 C3176 1.377 . S
C3177 C3183 1.390 . S
C3178 H3169 0.930 . S
C3178 C3176 1.384 . S
C3178 C3179 1.372 . S
C3179 C3178 1.372 . S
C3179 C3180 1.400 . S
C3179 C3184 1.490 . S
C3180 H3170 0.930 . S
C3180 C3179 1.400 . S
C3180 C3183 1.386 . S
H3181 C3197 0.930 . S
H3182 C3198 0.931 . S
C3183 H3171 0.929 . S
C3183 C3177 1.390 . S
C3183 C3180 1.386 . S
C3184 C3179 1.490 . S
C3184 C3186 1.395 . S
C3184 C3187 1.403 . S
H3185 C3191 0.930 . S
C3186 H3172 0.930 . S
C3186 C3184 1.395 . S
C3186 C3189 1.403 . S
C3187 C3184 1.403 . S
C3187 C3188 1.524 . S
C3187 C3191 1.400 . S
C3188 H3173 0.960 . S
C3188 H3174 0.960 . S
C3188 H3175 0.960 . S
C3188 C3187 1.524 . S
C3189 C3186 1.403 . S
C3189 C3190 1.392 . S
C3189 C3193 1.495 . S
C3190 C3189 1.392 . S
C3190 C3191 1.385 . S
C3190 C3192 1.478 . S
C3191 H3185 0.930 . S
C3191 C3187 1.400 . S
C3191 C3190 1.385 . S
C3192 C3190 1.478 . S
C3192 C3194 1.381 . S
C3192 C3198 1.383 . S
C3193 C3189 1.495 . S
C3193 H3199 0.959 . S
C3193 H3200 0.961 . S
C3193 H3201 0.960 . S
C3194 C3192 1.381 . S
C3194 C3195 1.394 . S
C3194 H3202 0.930 . S
C3195 C3194 1.394 . S
C3195 C3196 1.383 . S
C3195 H3203 0.929 . S
C3196 C3195 1.383 . S
C3196 C3197 1.377 . S
C3197 H3181 0.930 . S
C3197 C3196 1.377 . S
C3197 C3198 1.379 . S
C3198 H3182 0.931 . S
C3198 C3192 1.383 . S
C3198 C3197 1.379 . S
H3199 C3193 0.959 . S
H3200 C3193 0.961 . S
H3201 C3193 0.960 . S
H3202 C3194 0.930 . S
H3203 C3195 0.929 . S
H3204 C3212 0.929 . S
H3205 C3214 0.930 . S
H3206 C3216 0.930 . S
H3207 C3219 0.929 . S
H3208 C3222 0.930 . S
H3209 C3224 0.960 . S
H3210 C3224 0.960 . S
H3211 C3224 0.960 . S
C3212 H3204 0.929 . S
C3212 C3213 1.377 . S
C3212 C3214 1.384 . S
C3213 C3212 1.377 . S
C3213 C3219 1.390 . S
C3214 H3205 0.930 . S
C3214 C3212 1.384 . S
C3214 C3215 1.372 . S
C3215 C3214 1.372 . S
C3215 C3216 1.400 . S
C3215 C3220 1.490 . S
C3216 H3206 0.930 . S
C3216 C3215 1.400 . S
C3216 C3219 1.386 . S
H3217 C3233 0.930 . S
H3218 C3234 0.931 . S
C3219 H3207 0.929 . S
C3219 C3213 1.390 . S
C3219 C3216 1.386 . S
C3220 C3215 1.490 . S
C3220 C3222 1.395 . S
C3220 C3223 1.403 . S
H3221 C3227 0.930 . S
C3222 H3208 0.930 . S
C3222 C3220 1.395 . S
C3222 C3225 1.403 . S
C3223 C3220 1.403 . S
C3223 C3224 1.524 . S
C3223 C3227 1.400 . S
C3224 H3209 0.960 . S
C3224 H3210 0.960 . S
C3224 H3211 0.960 . S
C3224 C3223 1.524 . S
C3225 C3222 1.403 . S
C3225 C3226 1.392 . S
C3225 C3229 1.495 . S
C3226 C3225 1.392 . S
C3226 C3227 1.385 . S
C3226 C3228 1.478 . S
C3227 H3221 0.930 . S
C3227 C3223 1.400 . S
C3227 C3226 1.385 . S
C3228 C3226 1.478 . S
C3228 C3230 1.381 . S
C3228 C3234 1.383 . S
C3229 C3225 1.495 . S
C3229 H3235 0.959 . S
C3229 H3236 0.961 . S
C3229 H3237 0.960 . S
C3230 C3228 1.381 . S
C3230 C3231 1.394 . S
C3230 H3238 0.930 . S
C3231 C3230 1.394 . S
C3231 C3232 1.383 . S
C3231 H3239 0.929 . S
C3232 C3231 1.383 . S
C3232 C3233 1.377 . S
C3233 H3217 0.930 . S
C3233 C3232 1.377 . S
C3233 C3234 1.379 . S
C3234 H3218 0.931 . S
C3234 C3228 1.383 . S
C3234 C3233 1.379 . S
H3235 C3229 0.959 . S
H3236 C3229 0.961 . S
H3237 C3229 0.960 . S
H3238 C3230 0.930 . S
H3239 C3231 0.929 . S
H3240 C3248 0.929 . S
H3241 C3250 0.930 . S
H3242 C3252 0.930 . S
H3243 C3255 0.929 . S
H3244 C3258 0.930 . S
H3245 C3260 0.960 . S
H3246 C3260 0.960 . S
H3247 C3260 0.960 . S
C3248 H3240 0.929 . S
C3248 C3249 1.377 . S
C3248 C3250 1.384 . S
C3249 C3248 1.377 . S
C3249 C3255 1.390 . S
C3250 H3241 0.930 . S
C3250 C3248 1.384 . S
C3250 C3251 1.372 . S
C3251 C3250 1.372 . S
C3251 C3252 1.400 . S
C3251 C3256 1.490 . S
C3252 H3242 0.930 . S
C3252 C3251 1.400 . S
C3252 C3255 1.386 . S
H3253 C3269 0.930 . S
H3254 C3270 0.931 . S
C3255 H3243 0.929 . S
C3255 C3249 1.390 . S
C3255 C3252 1.386 . S
C3256 C3251 1.490 . S
C3256 C3258 1.395 . S
C3256 C3259 1.403 . S
H3257 C3263 0.930 . S
C3258 H3244 0.930 . S
C3258 C3256 1.395 . S
C3258 C3261 1.403 . S
C3259 C3256 1.403 . S
C3259 C3260 1.524 . S
C3259 C3263 1.400 . S
C3260 H3245 0.960 . S
C3260 H3246 0.960 . S
C3260 H3247 0.960 . S
C3260 C3259 1.524 . S
C3261 C3258 1.403 . S
C3261 C3262 1.392 . S
C3261 C3265 1.495 . S
C3262 C3261 1.392 . S
C3262 C3263 1.385 . S
C3262 C3264 1.478 . S
C3263 H3257 0.930 . S
C3263 C3259 1.400 . S
C3263 C3262 1.385 . S
C3264 C3262 1.478 . S
C3264 C3266 1.381 . S
C3264 C3270 1.383 . S
C3265 C3261 1.495 . S
C3265 H3271 0.959 . S
C3265 H3272 0.961 . S
C3265 H3273 0.960 . S
C3266 C3264 1.381 . S
C3266 C3267 1.394 . S
C3266 H3274 0.930 . S
C3267 C3266 1.394 . S
C3267 C3268 1.383 . S
C3267 H3275 0.929 . S
C3268 C3267 1.383 . S
C3268 C3269 1.377 . S
C3269 H3253 0.930 . S
C3269 C3268 1.377 . S
C3269 C3270 1.379 . S
C3270 H3254 0.931 . S
C3270 C3264 1.383 . S
C3270 C3269 1.379 . S
H3271 C3265 0.959 . S
H3272 C3265 0.961 . S
H3273 C3265 0.960 . S
H3274 C3266 0.930 . S
H3275 C3267 0.929 . S
H3276 C3284 0.929 . S
H3277 C3286 0.930 . S
H3278 C3288 0.930 . S
H3279 C3291 0.929 . S
H3280 C3294 0.930 . S
H3281 C3296 0.960 . S
H3282 C3296 0.960 . S
H3283 C3296 0.960 . S
C3284 H3276 0.929 . S
C3284 C3285 1.377 . S
C3284 C3286 1.384 . S
C3285 C3284 1.377 . S
C3285 C3291 1.390 . S
C3286 H3277 0.930 . S
C3286 C3284 1.384 . S
C3286 C3287 1.372 . S
C3287 C3286 1.372 . S
C3287 C3288 1.400 . S
C3287 C3292 1.490 . S
C3288 H3278 0.930 . S
C3288 C3287 1.400 . S
C3288 C3291 1.386 . S
H3289 C3305 0.930 . S
H3290 C3306 0.931 . S
C3291 H3279 0.929 . S
C3291 C3285 1.390 . S
C3291 C3288 1.386 . S
C3292 C3287 1.490 . S
C3292 C3294 1.395 . S
C3292 C3295 1.403 . S
H3293 C3299 0.930 . S
C3294 H3280 0.930 . S
C3294 C3292 1.395 . S
C3294 C3297 1.403 . S
C3295 C3292 1.403 . S
C3295 C3296 1.524 . S
C3295 C3299 1.400 . S
C3296 H3281 0.960 . S
C3296 H3282 0.960 . S
C3296 H3283 0.960 . S
C3296 C3295 1.524 . S
C3297 C3294 1.403 . S
C3297 C3298 1.392 . S
C3297 C3301 1.495 . S
C3298 C3297 1.392 . S
C3298 C3299 1.385 . S
C3298 C3300 1.478 . S
C3299 H3293 0.930 . S
C3299 C3295 1.400 . S
C3299 C3298 1.385 . S
C3300 C3298 1.478 . S
C3300 C3302 1.381 . S
C3300 C3306 1.383 . S
C3301 C3297 1.495 . S
C3301 H3307 0.959 . S
C3301 H3308 0.961 . S
C3301 H3309 0.960 . S
C3302 C3300 1.381 . S
C3302 C3303 1.394 . S
C3302 H3310 0.930 . S
C3303 C3302 1.394 . S
C3303 C3304 1.383 . S
C3303 H3311 0.929 . S
C3304 C3303 1.383 . S
C3304 C3305 1.377 . S
C3305 H3289 0.930 . S
C3305 C3304 1.377 . S
C3305 C3306 1.379 . S
C3306 H3290 0.931 . S
C3306 C3300 1.383 . S
C3306 C3305 1.379 . S
H3307 C3301 0.959 . S
H3308 C3301 0.961 . S
H3309 C3301 0.960 . S
H3310 C3302 0.930 . S
H3311 C3303 0.929 . S
H3312 C3320 0.929 . S
H3313 C3322 0.930 . S
H3314 C3324 0.930 . S
H3315 C3327 0.929 . S
H3316 C3330 0.930 . S
H3317 C3332 0.960 . S
H3318 C3332 0.960 . S
H3319 C3332 0.960 . S
C3320 H3312 0.929 . S
C3320 C3321 1.377 . S
C3320 C3322 1.384 . S
C3321 C3320 1.377 . S
C3321 C3327 1.390 . S
C3322 H3313 0.930 . S
C3322 C3320 1.384 . S
C3322 C3323 1.372 . S
C3323 C3322 1.372 . S
C3323 C3324 1.400 . S
C3323 C3328 1.490 . S
C3324 H3314 0.930 . S
C3324 C3323 1.400 . S
C3324 C3327 1.386 . S
H3325 C3341 0.930 . S
H3326 C3342 0.931 . S
C3327 H3315 0.929 . S
C3327 C3321 1.390 . S
C3327 C3324 1.386 . S
C3328 C3323 1.490 . S
C3328 C3330 1.395 . S
C3328 C3331 1.403 . S
H3329 C3335 0.930 . S
C3330 H3316 0.930 . S
C3330 C3328 1.395 . S
C3330 C3333 1.403 . S
C3331 C3328 1.403 . S
C3331 C3332 1.524 . S
C3331 C3335 1.400 . S
C3332 H3317 0.960 . S
C3332 H3318 0.960 . S
C3332 H3319 0.960 . S
C3332 C3331 1.524 . S
C3333 C3330 1.403 . S
C3333 C3334 1.392 . S
C3333 C3337 1.495 . S
C3334 C3333 1.392 . S
C3334 C3335 1.385 . S
C3334 C3336 1.478 . S
C3335 H3329 0.930 . S
C3335 C3331 1.400 . S
C3335 C3334 1.385 . S
C3336 C3334 1.478 . S
C3336 C3338 1.381 . S
C3336 C3342 1.383 . S
C3337 C3333 1.495 . S
C3337 H3343 0.959 . S
C3337 H3344 0.961 . S
C3337 H3345 0.960 . S
C3338 C3336 1.381 . S
C3338 C3339 1.394 . S
C3338 H3346 0.930 . S
C3339 C3338 1.394 . S
C3339 C3340 1.383 . S
C3339 H3347 0.929 . S
C3340 C3339 1.383 . S
C3340 C3341 1.377 . S
C3341 H3325 0.930 . S
C3341 C3340 1.377 . S
C3341 C3342 1.379 . S
C3342 H3326 0.931 . S
C3342 C3336 1.383 . S
C3342 C3341 1.379 . S
H3343 C3337 0.959 . S
H3344 C3337 0.961 . S
H3345 C3337 0.960 . S
H3346 C3338 0.930 . S
H3347 C3339 0.929 . S
H3348 C3356 0.929 . S
H3349 C3358 0.930 . S
H3350 C3360 0.930 . S
H3351 C3363 0.929 1_545 S
H3352 C3366 0.930 . S
H3353 C3368 0.960 . S
H3354 C3368 0.960 . S
H3355 C3368 0.960 . S
C3356 H3348 0.929 . S
C3356 C3357 1.377 . S
C3356 C3358 1.384 . S
C3357 C3356 1.377 . S
C3357 C3363 1.390 . S
C3358 H3349 0.930 . S
C3358 C3356 1.384 . S
C3358 C3359 1.372 . S
C3359 C3358 1.372 . S
C3359 C3360 1.400 . S
C3359 C3364 1.490 . S
C3360 H3350 0.930 . S
C3360 C3359 1.400 . S
C3360 C3363 1.386 . S
H3361 C3377 0.930 . S
H3362 C3378 0.931 . S
C3363 H3351 0.929 1_565 S
C3363 C3357 1.390 . S
C3363 C3360 1.386 . S
C3364 C3359 1.490 . S
C3364 C3366 1.395 . S
C3364 C3367 1.403 . S
H3365 C3371 0.930 . S
C3366 H3352 0.930 . S
C3366 C3364 1.395 . S
C3366 C3369 1.403 . S
C3367 C3364 1.403 . S
C3367 C3368 1.524 . S
C3367 C3371 1.400 . S
C3368 H3353 0.960 . S
C3368 H3354 0.960 . S
C3368 H3355 0.960 . S
C3368 C3367 1.524 . S
C3369 C3366 1.403 . S
C3369 C3370 1.392 . S
C3369 C3373 1.495 . S
C3370 C3369 1.392 . S
C3370 C3371 1.385 . S
C3370 C3372 1.478 . S
C3371 H3365 0.930 . S
C3371 C3367 1.400 . S
C3371 C3370 1.385 . S
C3372 C3370 1.478 . S
C3372 C3374 1.381 . S
C3372 C3378 1.383 . S
C3373 C3369 1.495 . S
C3373 H3379 0.959 . S
C3373 H3380 0.961 . S
C3373 H3381 0.960 . S
C3374 C3372 1.381 . S
C3374 C3375 1.394 . S
C3374 H3382 0.930 . S
C3375 C3374 1.394 . S
C3375 C3376 1.383 . S
C3375 H3383 0.929 . S
C3376 C3375 1.383 . S
C3376 C3377 1.377 . S
C3377 H3361 0.930 . S
C3377 C3376 1.377 . S
C3377 C3378 1.379 . S
C3378 H3362 0.931 . S
C3378 C3372 1.383 . S
C3378 C3377 1.379 . S
H3379 C3373 0.959 . S
H3380 C3373 0.961 . S
H3381 C3373 0.960 . S
H3382 C3374 0.930 . S
H3383 C3375 0.929 . S
H3384 C3392 0.929 . S
H3385 C3394 0.930 . S
H3386 C3396 0.930 . S
H3387 C3399 0.929 . S
H3388 C3402 0.930 . S
H3389 C3404 0.960 . S
H3390 C3404 0.960 . S
H3391 C3404 0.960 . S
C3392 H3384 0.929 . S
C3392 C3393 1.377 . S
C3392 C3394 1.384 . S
C3393 C3392 1.377 . S
C3393 C3399 1.390 . S
C3394 H3385 0.930 . S
C3394 C3392 1.384 . S
C3394 C3395 1.372 . S
C3395 C3394 1.372 . S
C3395 C3396 1.400 . S
C3395 C3400 1.490 . S
C3396 H3386 0.930 . S
C3396 C3395 1.400 . S
C3396 C3399 1.386 . S
H3397 C3413 0.930 . S
H3398 C3414 0.931 . S
C3399 H3387 0.929 . S
C3399 C3393 1.390 . S
C3399 C3396 1.386 . S
C3400 C3395 1.490 . S
C3400 C3402 1.395 . S
C3400 C3403 1.403 . S
H3401 C3407 0.930 . S
C3402 H3388 0.930 . S
C3402 C3400 1.395 . S
C3402 C3405 1.403 . S
C3403 C3400 1.403 . S
C3403 C3404 1.524 . S
C3403 C3407 1.400 . S
C3404 H3389 0.960 . S
C3404 H3390 0.960 . S
C3404 H3391 0.960 . S
C3404 C3403 1.524 . S
C3405 C3402 1.403 . S
C3405 C3406 1.392 . S
C3405 C3409 1.495 . S
C3406 C3405 1.392 . S
C3406 C3407 1.385 . S
C3406 C3408 1.478 . S
C3407 H3401 0.930 . S
C3407 C3403 1.400 . S
C3407 C3406 1.385 . S
C3408 C3406 1.478 . S
C3408 C3410 1.381 . S
C3408 C3414 1.383 . S
C3409 C3405 1.495 . S
C3409 H3415 0.959 . S
C3409 H3416 0.961 . S
C3409 H3417 0.960 . S
C3410 C3408 1.381 . S
C3410 C3411 1.394 . S
C3410 H3418 0.930 . S
C3411 C3410 1.394 . S
C3411 C3412 1.383 . S
C3411 H3419 0.929 . S
C3412 C3411 1.383 . S
C3412 C3413 1.377 . S
C3413 H3397 0.930 . S
C3413 C3412 1.377 . S
C3413 C3414 1.379 . S
C3414 H3398 0.931 . S
C3414 C3408 1.383 . S
C3414 C3413 1.379 . S
H3415 C3409 0.959 . S
H3416 C3409 0.961 . S
H3417 C3409 0.960 . S
H3418 C3410 0.930 . S
H3419 C3411 0.929 . S
H3420 C3428 0.929 . S
H3421 C3430 0.930 . S
H3422 C3432 0.930 . S
H3423 C3435 0.929 . S
H3424 C3438 0.930 . S
H3425 C3440 0.960 . S
H3426 C3440 0.960 . S
H3427 C3440 0.960 . S
C3428 H3420 0.929 . S
C3428 C3429 1.377 . S
C3428 C3430 1.384 . S
C3429 C3428 1.377 . S
C3429 C3435 1.390 . S
C3430 H3421 0.930 . S
C3430 C3428 1.384 . S
C3430 C3431 1.372 . S
C3431 C3430 1.372 . S
C3431 C3432 1.400 . S
C3431 C3436 1.490 . S
C3432 H3422 0.930 . S
C3432 C3431 1.400 . S
C3432 C3435 1.386 . S
H3433 C3449 0.930 . S
H3434 C3450 0.931 . S
C3435 H3423 0.929 . S
C3435 C3429 1.390 . S
C3435 C3432 1.386 . S
C3436 C3431 1.490 . S
C3436 C3438 1.395 . S
C3436 C3439 1.403 . S
H3437 C3443 0.930 . S
C3438 H3424 0.930 . S
C3438 C3436 1.395 . S
C3438 C3441 1.403 . S
C3439 C3436 1.403 . S
C3439 C3440 1.524 . S
C3439 C3443 1.400 . S
C3440 H3425 0.960 . S
C3440 H3426 0.960 . S
C3440 H3427 0.960 . S
C3440 C3439 1.524 . S
C3441 C3438 1.403 . S
C3441 C3442 1.392 . S
C3441 C3445 1.495 . S
C3442 C3441 1.392 . S
C3442 C3443 1.385 . S
C3442 C3444 1.478 . S
C3443 H3437 0.930 . S
C3443 C3439 1.400 . S
C3443 C3442 1.385 . S
C3444 C3442 1.478 . S
C3444 C3446 1.381 . S
C3444 C3450 1.383 . S
C3445 C3441 1.495 . S
C3445 H3451 0.959 . S
C3445 H3452 0.961 . S
C3445 H3453 0.960 . S
C3446 C3444 1.381 . S
C3446 C3447 1.394 . S
C3446 H3454 0.930 . S
C3447 C3446 1.394 . S
C3447 C3448 1.383 . S
C3447 H3455 0.929 . S
C3448 C3447 1.383 . S
C3448 C3449 1.377 . S
C3449 H3433 0.930 . S
C3449 C3448 1.377 . S
C3449 C3450 1.379 . S
C3450 H3434 0.931 . S
C3450 C3444 1.383 . S
C3450 C3449 1.379 . S
H3451 C3445 0.959 . S
H3452 C3445 0.961 . S
H3453 C3445 0.960 . S
H3454 C3446 0.930 . S
H3455 C3447 0.929 . S
H3456 C3464 0.929 . S
H3457 C3466 0.930 . S
H3458 C3468 0.930 . S
H3459 C3471 0.929 . S
H3460 C3474 0.930 . S
H3461 C3476 0.960 . S
H3462 C3476 0.960 . S
H3463 C3476 0.960 . S
C3464 H3456 0.929 . S
C3464 C3465 1.377 . S
C3464 C3466 1.384 . S
C3465 C3464 1.377 . S
C3465 C3471 1.390 . S
C3466 H3457 0.930 . S
C3466 C3464 1.384 . S
C3466 C3467 1.372 . S
C3467 C3466 1.372 . S
C3467 C3468 1.400 . S
C3467 C3472 1.490 . S
C3468 H3458 0.930 . S
C3468 C3467 1.400 . S
C3468 C3471 1.386 . S
H3469 C3485 0.930 . S
H3470 C3486 0.931 . S
C3471 H3459 0.929 . S
C3471 C3465 1.390 . S
C3471 C3468 1.386 . S
C3472 C3467 1.490 . S
C3472 C3474 1.395 . S
C3472 C3475 1.403 . S
H3473 C3479 0.930 . S
C3474 H3460 0.930 . S
C3474 C3472 1.395 . S
C3474 C3477 1.403 . S
C3475 C3472 1.403 . S
C3475 C3476 1.524 . S
C3475 C3479 1.400 . S
C3476 H3461 0.960 . S
C3476 H3462 0.960 . S
C3476 H3463 0.960 . S
C3476 C3475 1.524 . S
C3477 C3474 1.403 . S
C3477 C3478 1.392 . S
C3477 C3481 1.495 . S
C3478 C3477 1.392 . S
C3478 C3479 1.385 . S
C3478 C3480 1.478 . S
C3479 H3473 0.930 . S
C3479 C3475 1.400 . S
C3479 C3478 1.385 . S
C3480 C3478 1.478 . S
C3480 C3482 1.381 . S
C3480 C3486 1.383 . S
C3481 C3477 1.495 . S
C3481 H3487 0.959 . S
C3481 H3488 0.961 . S
C3481 H3489 0.960 . S
C3482 C3480 1.381 . S
C3482 C3483 1.394 . S
C3482 H3490 0.930 . S
C3483 C3482 1.394 . S
C3483 C3484 1.383 . S
C3483 H3491 0.929 . S
C3484 C3483 1.383 . S
C3484 C3485 1.377 . S
C3485 H3469 0.930 . S
C3485 C3484 1.377 . S
C3485 C3486 1.379 . S
C3486 H3470 0.931 . S
C3486 C3480 1.383 . S
C3486 C3485 1.379 . S
H3487 C3481 0.959 . S
H3488 C3481 0.961 . S
H3489 C3481 0.960 . S
H3490 C3482 0.930 . S
H3491 C3483 0.929 . S
C909 C76 1.151 . S
C928 C652 1.007 . S
C945 C4 1.137 . S
C964 C668 1.065 . S
C1000 C651 1.139 . S
C981 C38 1.284 . S
C1036 C676 1.172 . S
C1017 C74 1.268 . S
C1053 C2 1.218 . S
C1072 C685 1.031 . S
C1108 C688 0.933 . S
C1089 C40 1.100 . S
C1125 C182 1.257 . S
C1144 C694 1.160 . S
C1180 C710 1.065 . S
C1161 C112 1.158 . S
C1216 C693 0.956 . S
C1197 C148 1.148 . S
C1233 C184 1.130 . S
C1252 C718 0.934 . S
C1288 C727 1.163 . S
C1269 C110 1.238 . S
C1324 C730 1.033 . S
C1305 C146 1.222 . S
C1360 C739 1.045 . S
C1341 C292 1.145 . S
C1396 C751 0.955 . S
C1377 C220 1.136 . S
C1432 C748 1.147 . S
C1413 C254 1.285 . S
C1449 C290 1.258 . S
C1468 C757 1.063 . S
C1504 C756 1.147 . S
C1485 C218 1.226 . S
C1521 C256 1.107 . S
C1540 C773 1.050 . S
C1576 C778 1.163 . S
C1557 C398 1.256 . S
C1612 C794 1.051 . S
C1593 C328 1.159 . S
C1629 C364 1.138 . S
C1648 C777 1.080 . S
C1684 C802 0.976 . S
C1665 C400 1.129 . S
C1720 C811 1.057 . S
C1701 C326 1.248 . S
C1737 C362 1.214 . S
C1756 C814 1.147 . S
C1773 C508 1.151 . S
C1792 C823 1.015 . S
C1828 C835 1.050 . S
C1809 C436 1.141 . S
C1864 C832 1.181 . S
C1845 C470 1.282 . S
C1881 C506 1.267 . S
C1900 C841 1.180 . S
C1936 C840 1.153 . S
C1917 C434 1.225 . S
C1953 C472 1.109 . S
C1972 C857 0.999 . S
C2008 C862 1.151 . S
C1989 C614 1.259 . S
C2044 C878 1.028 . S
C2025 C544 1.161 . S
C2061 C580 1.143 . S
C2080 C861 1.020 . S
C2116 C883 0.933 . S
C2097 C616 1.131 . S
C2152 C882 1.052 . S
C2133 C542 1.248 . S
C2188 C899 1.022 . S
C2169 C578 1.224 . S
C2224 C664 1.456 . S
C2205 C399 1.537 . S
C2241 C338 1.534 . S
C2260 C667 1.471 1_655 S
C2296 C655 1.433 . S
C2277 C374 1.454 . S
C2313 C626 1.499 . S
C2332 C672 1.493 . S
C2349 C543 1.623 . S
C2368 C673 1.476 . S
C2404 C689 1.425 . S
C2385 C579 1.487 . S
C2440 C706 1.569 1_565 S
C2421 C518 1.571 . S
C2476 C709 1.371 . S
C2457 C446 1.399 . S
C2493 C471 1.557 . S
C2512 C697 1.454 . S
C2548 C714 1.463 . S
C2529 C291 1.603 . S
C2565 C219 1.478 . S
C2584 C715 1.402 . S
C2601 C266 1.519 . S
C2620 C731 1.525 . S
C2637 C615 1.537 1_655 S
C2656 C735 1.462 . S
C2673 C554 1.540 . S
C2692 C752 1.521 . S
C2728 C736 1.446 . S
C2709 C590 1.456 . S
C2764 C769 1.463 . S
C2745 C194 1.494 . S
C2800 C760 1.513 . S
C2781 C111 1.624 . S
C2817 C147 1.487 . S
C2836 C772 1.424 . S
C2872 C790 1.571 . S
C2853 C86 1.565 . S
C2908 C793 1.409 . S
C2889 C14 1.405 . S
C2925 C39 1.557 . S
C2944 C781 1.442 . S
C2980 C798 1.528 . S
C2961 C507 1.601 . S
C3016 C799 1.403 . S
C2997 C435 1.476 1_655 S
C3052 C815 1.517 . S
C3033 C482 1.516 . S
C3088 C819 1.405 . S
C3069 C183 1.535 . S
C3124 C836 1.516 . S
C3105 C122 1.539 . S
C3141 C158 1.444 . S
C3160 C820 1.381 . S
C3177 C410 1.494 1_565 S
C3196 C853 1.480 . S
C3213 C327 1.625 . S
C3232 C844 1.529 . S
C3268 C856 1.417 . S
C3249 C363 1.487 . S
C3285 C302 1.564 . S
C3304 C874 1.563 . S
C3321 C230 1.401 . S
C3340 C877 1.352 . S
C3376 C865 1.428 . S
C3357 C255 1.557 1_565 S
C3412 C895 1.470 . S
C3393 C75 1.602 . S
C3448 C886 1.342 . S
C3429 C3 1.478 . S
C3465 C50 1.518 . S
C3484 C898 1.524 . S
