# Generated by pormake.
# Topology gar, (4,6)-cn, num edge types: 1
# Building blocks:
#     Node 0, Type 0, BuildingBlock: QUQFOY_clean_sbu_3, # of connection points: 4
#     Node 1, Type 0, BuildingBlock: QUQFOY_clean_sbu_3, # of connection points: 4
#     Node 2, Type 0, BuildingBlock: QUQFOY_clean_sbu_3, # of connection points: 4
#     Node 3, Type 0, BuildingBlock: QUQFOY_clean_sbu_3, # of connection points: 4
#     Node 4, Type 0, BuildingBlock: QUQFOY_clean_sbu_3, # of connection points: 4
#     Node 5, Type 0, BuildingBlock: QUQFOY_clean_sbu_3, # of connection points: 4
#     Node 6, Type 0, BuildingBlock: QUQFOY_clean_sbu_3, # of connection points: 4
#     Node 7, Type 0, BuildingBlock: QUQFOY_clean_sbu_3, # of connection points: 4
#     Node 8, Type 0, BuildingBlock: QUQFOY_clean_sbu_3, # of connection points: 4
#     Node 9, Type 0, BuildingBlock: QUQFOY_clean_sbu_3, # of connection points: 4
#     Node 10, Type 0, BuildingBlock: QUQFOY_clean_sbu_3, # of connection points: 4
#     Node 11, Type 0, BuildingBlock: QUQFOY_clean_sbu_3, # of connection points: 4
#     Node 12, Type 0, BuildingBlock: QUQFOY_clean_sbu_3, # of connection points: 4
#     Node 13, Type 0, BuildingBlock: QUQFOY_clean_sbu_3, # of connection points: 4
#     Node 14, Type 0, BuildingBlock: QUQFOY_clean_sbu_3, # of connection points: 4
#     Node 15, Type 0, BuildingBlock: QUQFOY_clean_sbu_3, # of connection points: 4
#     Node 16, Type 0, BuildingBlock: QUQFOY_clean_sbu_3, # of connection points: 4
#     Node 17, Type 0, BuildingBlock: QUQFOY_clean_sbu_3, # of connection points: 4
#     Node 18, Type 0, BuildingBlock: QUQFOY_clean_sbu_3, # of connection points: 4
#     Node 19, Type 0, BuildingBlock: QUQFOY_clean_sbu_3, # of connection points: 4
#     Node 20, Type 0, BuildingBlock: QUQFOY_clean_sbu_3, # of connection points: 4
#     Node 21, Type 0, BuildingBlock: QUQFOY_clean_sbu_3, # of connection points: 4
#     Node 22, Type 0, BuildingBlock: QUQFOY_clean_sbu_3, # of connection points: 4
#     Node 23, Type 0, BuildingBlock: QUQFOY_clean_sbu_3, # of connection points: 4
#     Node 24, Type 1, BuildingBlock: KUMBUR_clean_sbu_1, # of connection points: 6
#     Node 25, Type 1, BuildingBlock: KUMBUR_clean_sbu_1, # of connection points: 6
#     Node 26, Type 1, BuildingBlock: KUMBUR_clean_sbu_1, # of connection points: 6
#     Node 27, Type 1, BuildingBlock: KUMBUR_clean_sbu_1, # of connection points: 6
#     Node 28, Type 1, BuildingBlock: KUMBUR_clean_sbu_1, # of connection points: 6
#     Node 29, Type 1, BuildingBlock: KUMBUR_clean_sbu_1, # of connection points: 6
#     Node 30, Type 1, BuildingBlock: KUMBUR_clean_sbu_1, # of connection points: 6
#     Node 31, Type 1, BuildingBlock: KUMBUR_clean_sbu_1, # of connection points: 6
#     Node 32, Type 1, BuildingBlock: KUMBUR_clean_sbu_1, # of connection points: 6
#     Node 33, Type 1, BuildingBlock: KUMBUR_clean_sbu_1, # of connection points: 6
#     Node 34, Type 1, BuildingBlock: KUMBUR_clean_sbu_1, # of connection points: 6
#     Node 35, Type 1, BuildingBlock: KUMBUR_clean_sbu_1, # of connection points: 6
#     Node 36, Type 1, BuildingBlock: KUMBUR_clean_sbu_1, # of connection points: 6
#     Node 37, Type 1, BuildingBlock: KUMBUR_clean_sbu_1, # of connection points: 6
#     Node 38, Type 1, BuildingBlock: KUMBUR_clean_sbu_1, # of connection points: 6
#     Node 39, Type 1, BuildingBlock: KUMBUR_clean_sbu_1, # of connection points: 6
#     Edge 40, Type (0, 1), BuildingBlock: ZUJKAS_clean_linker_0, # of connection points: 2
#     Edge 41, Type (0, 1), BuildingBlock: ZUJKAS_clean_linker_0, # of connection points: 2
#     Edge 42, Type (0, 1), BuildingBlock: ZUJKAS_clean_linker_0, # of connection points: 2
#     Edge 43, Type (0, 1), BuildingBlock: ZUJKAS_clean_linker_0, # of connection points: 2
#     Edge 44, Type (0, 1), BuildingBlock: ZUJKAS_clean_linker_0, # of connection points: 2
#     Edge 45, Type (0, 1), BuildingBlock: ZUJKAS_clean_linker_0, # of connection points: 2
#     Edge 46, Type (0, 1), BuildingBlock: ZUJKAS_clean_linker_0, # of connection points: 2
#     Edge 47, Type (0, 1), BuildingBlock: ZUJKAS_clean_linker_0, # of connection points: 2
#     Edge 48, Type (0, 1), BuildingBlock: ZUJKAS_clean_linker_0, # of connection points: 2
#     Edge 49, Type (0, 1), BuildingBlock: ZUJKAS_clean_linker_0, # of connection points: 2
#     Edge 50, Type (0, 1), BuildingBlock: ZUJKAS_clean_linker_0, # of connection points: 2
#     Edge 51, Type (0, 1), BuildingBlock: ZUJKAS_clean_linker_0, # of connection points: 2
#     Edge 52, Type (0, 1), BuildingBlock: ZUJKAS_clean_linker_0, # of connection points: 2
#     Edge 53, Type (0, 1), BuildingBlock: ZUJKAS_clean_linker_0, # of connection points: 2
#     Edge 54, Type (0, 1), BuildingBlock: ZUJKAS_clean_linker_0, # of connection points: 2
#     Edge 55, Type (0, 1), BuildingBlock: ZUJKAS_clean_linker_0, # of connection points: 2
#     Edge 56, Type (0, 1), BuildingBlock: ZUJKAS_clean_linker_0, # of connection points: 2
#     Edge 57, Type (0, 1), BuildingBlock: ZUJKAS_clean_linker_0, # of connection points: 2
#     Edge 58, Type (0, 1), BuildingBlock: ZUJKAS_clean_linker_0, # of connection points: 2
#     Edge 59, Type (0, 1), BuildingBlock: ZUJKAS_clean_linker_0, # of connection points: 2
#     Edge 60, Type (0, 1), BuildingBlock: ZUJKAS_clean_linker_0, # of connection points: 2
#     Edge 61, Type (0, 1), BuildingBlock: ZUJKAS_clean_linker_0, # of connection points: 2
#     Edge 62, Type (0, 1), BuildingBlock: ZUJKAS_clean_linker_0, # of connection points: 2
#     Edge 63, Type (0, 1), BuildingBlock: ZUJKAS_clean_linker_0, # of connection points: 2
#     Edge 64, Type (0, 1), BuildingBlock: ZUJKAS_clean_linker_0, # of connection points: 2
#     Edge 65, Type (0, 1), BuildingBlock: ZUJKAS_clean_linker_0, # of connection points: 2
#     Edge 66, Type (0, 1), BuildingBlock: ZUJKAS_clean_linker_0, # of connection points: 2
#     Edge 67, Type (0, 1), BuildingBlock: ZUJKAS_clean_linker_0, # of connection points: 2
#     Edge 68, Type (0, 1), BuildingBlock: ZUJKAS_clean_linker_0, # of connection points: 2
#     Edge 69, Type (0, 1), BuildingBlock: ZUJKAS_clean_linker_0, # of connection points: 2
#     Edge 70, Type (0, 1), BuildingBlock: ZUJKAS_clean_linker_0, # of connection points: 2
#     Edge 71, Type (0, 1), BuildingBlock: ZUJKAS_clean_linker_0, # of connection points: 2
#     Edge 72, Type (0, 1), BuildingBlock: ZUJKAS_clean_linker_0, # of connection points: 2
#     Edge 73, Type (0, 1), BuildingBlock: ZUJKAS_clean_linker_0, # of connection points: 2
#     Edge 74, Type (0, 1), BuildingBlock: ZUJKAS_clean_linker_0, # of connection points: 2
#     Edge 75, Type (0, 1), BuildingBlock: ZUJKAS_clean_linker_0, # of connection points: 2
#     Edge 76, Type (0, 1), BuildingBlock: ZUJKAS_clean_linker_0, # of connection points: 2
#     Edge 77, Type (0, 1), BuildingBlock: ZUJKAS_clean_linker_0, # of connection points: 2
#     Edge 78, Type (0, 1), BuildingBlock: ZUJKAS_clean_linker_0, # of connection points: 2
#     Edge 79, Type (0, 1), BuildingBlock: ZUJKAS_clean_linker_0, # of connection points: 2
#     Edge 80, Type (0, 1), BuildingBlock: ZUJKAS_clean_linker_0, # of connection points: 2
#     Edge 81, Type (0, 1), BuildingBlock: ZUJKAS_clean_linker_0, # of connection points: 2
#     Edge 82, Type (0, 1), BuildingBlock: ZUJKAS_clean_linker_0, # of connection points: 2
#     Edge 83, Type (0, 1), BuildingBlock: ZUJKAS_clean_linker_0, # of connection points: 2
#     Edge 84, Type (0, 1), BuildingBlock: ZUJKAS_clean_linker_0, # of connection points: 2
#     Edge 85, Type (0, 1), BuildingBlock: ZUJKAS_clean_linker_0, # of connection points: 2
#     Edge 86, Type (0, 1), BuildingBlock: ZUJKAS_clean_linker_0, # of connection points: 2
#     Edge 87, Type (0, 1), BuildingBlock: ZUJKAS_clean_linker_0, # of connection points: 2
#     Edge 88, Type (0, 1), BuildingBlock: ZUJKAS_clean_linker_0, # of connection points: 2
#     Edge 89, Type (0, 1), BuildingBlock: ZUJKAS_clean_linker_0, # of connection points: 2
#     Edge 90, Type (0, 1), BuildingBlock: ZUJKAS_clean_linker_0, # of connection points: 2
#     Edge 91, Type (0, 1), BuildingBlock: ZUJKAS_clean_linker_0, # of connection points: 2
#     Edge 92, Type (0, 1), BuildingBlock: ZUJKAS_clean_linker_0, # of connection points: 2
#     Edge 93, Type (0, 1), BuildingBlock: ZUJKAS_clean_linker_0, # of connection points: 2
#     Edge 94, Type (0, 1), BuildingBlock: ZUJKAS_clean_linker_0, # of connection points: 2
#     Edge 95, Type (0, 1), BuildingBlock: ZUJKAS_clean_linker_0, # of connection points: 2
#     Edge 96, Type (0, 1), BuildingBlock: ZUJKAS_clean_linker_0, # of connection points: 2
#     Edge 97, Type (0, 1), BuildingBlock: ZUJKAS_clean_linker_0, # of connection points: 2
#     Edge 98, Type (0, 1), BuildingBlock: ZUJKAS_clean_linker_0, # of connection points: 2
#     Edge 99, Type (0, 1), BuildingBlock: ZUJKAS_clean_linker_0, # of connection points: 2
#     Edge 100, Type (0, 1), BuildingBlock: ZUJKAS_clean_linker_0, # of connection points: 2
#     Edge 101, Type (0, 1), BuildingBlock: ZUJKAS_clean_linker_0, # of connection points: 2
#     Edge 102, Type (0, 1), BuildingBlock: ZUJKAS_clean_linker_0, # of connection points: 2
#     Edge 103, Type (0, 1), BuildingBlock: ZUJKAS_clean_linker_0, # of connection points: 2
#     Edge 104, Type (0, 1), BuildingBlock: ZUJKAS_clean_linker_0, # of connection points: 2
#     Edge 105, Type (0, 1), BuildingBlock: ZUJKAS_clean_linker_0, # of connection points: 2
#     Edge 106, Type (0, 1), BuildingBlock: ZUJKAS_clean_linker_0, # of connection points: 2
#     Edge 107, Type (0, 1), BuildingBlock: ZUJKAS_clean_linker_0, # of connection points: 2
#     Edge 108, Type (0, 1), BuildingBlock: ZUJKAS_clean_linker_0, # of connection points: 2
#     Edge 109, Type (0, 1), BuildingBlock: ZUJKAS_clean_linker_0, # of connection points: 2
#     Edge 110, Type (0, 1), BuildingBlock: ZUJKAS_clean_linker_0, # of connection points: 2
#     Edge 111, Type (0, 1), BuildingBlock: ZUJKAS_clean_linker_0, # of connection points: 2
#     Edge 112, Type (0, 1), BuildingBlock: ZUJKAS_clean_linker_0, # of connection points: 2
#     Edge 113, Type (0, 1), BuildingBlock: ZUJKAS_clean_linker_0, # of connection points: 2
#     Edge 114, Type (0, 1), BuildingBlock: ZUJKAS_clean_linker_0, # of connection points: 2
#     Edge 115, Type (0, 1), BuildingBlock: ZUJKAS_clean_linker_0, # of connection points: 2
#     Edge 116, Type (0, 1), BuildingBlock: ZUJKAS_clean_linker_0, # of connection points: 2
#     Edge 117, Type (0, 1), BuildingBlock: ZUJKAS_clean_linker_0, # of connection points: 2
#     Edge 118, Type (0, 1), BuildingBlock: ZUJKAS_clean_linker_0, # of connection points: 2
#     Edge 119, Type (0, 1), BuildingBlock: ZUJKAS_clean_linker_0, # of connection points: 2
#     Edge 120, Type (0, 1), BuildingBlock: ZUJKAS_clean_linker_0, # of connection points: 2
#     Edge 121, Type (0, 1), BuildingBlock: ZUJKAS_clean_linker_0, # of connection points: 2
#     Edge 122, Type (0, 1), BuildingBlock: ZUJKAS_clean_linker_0, # of connection points: 2
#     Edge 123, Type (0, 1), BuildingBlock: ZUJKAS_clean_linker_0, # of connection points: 2
#     Edge 124, Type (0, 1), BuildingBlock: ZUJKAS_clean_linker_0, # of connection points: 2
#     Edge 125, Type (0, 1), BuildingBlock: ZUJKAS_clean_linker_0, # of connection points: 2
#     Edge 126, Type (0, 1), BuildingBlock: ZUJKAS_clean_linker_0, # of connection points: 2
#     Edge 127, Type (0, 1), BuildingBlock: ZUJKAS_clean_linker_0, # of connection points: 2
#     Edge 128, Type (0, 1), BuildingBlock: ZUJKAS_clean_linker_0, # of connection points: 2
#     Edge 129, Type (0, 1), BuildingBlock: ZUJKAS_clean_linker_0, # of connection points: 2
#     Edge 130, Type (0, 1), BuildingBlock: ZUJKAS_clean_linker_0, # of connection points: 2
#     Edge 131, Type (0, 1), BuildingBlock: ZUJKAS_clean_linker_0, # of connection points: 2
#     Edge 132, Type (0, 1), BuildingBlock: ZUJKAS_clean_linker_0, # of connection points: 2
#     Edge 133, Type (0, 1), BuildingBlock: ZUJKAS_clean_linker_0, # of connection points: 2
#     Edge 134, Type (0, 1), BuildingBlock: ZUJKAS_clean_linker_0, # of connection points: 2
#     Edge 135, Type (0, 1), BuildingBlock: ZUJKAS_clean_linker_0, # of connection points: 2
# Relax obj value: 0.055
# Max RMSD: 0.176
# Mean RMSD: 0.103
data_MOF--net-gar--node1-QUQFOY_clean_sbu_3--node2-KUMBUR_clean_sbu_1--edge1-ZUJKAS_clean_linker_0
_symmetry_space_group_name_H-M    P1
_symmetry_Int_Tables_number       1
_symmetry_cell_setting            triclinic
loop_
_symmetry_equiv_pos_as_xyz
'x, y, z'
_cell_length_a     76.691993
_cell_length_b     77.847968
_cell_length_c     72.749291
_cell_angle_alpha  96.337404
_cell_angle_beta   95.476194
_cell_angle_gamma 100.55723
loop_
_atom_site_label
_atom_site_type_symbol
_atom_site_fract_x
_atom_site_fract_y
_atom_site_fract_z
_atom_type_partial_charge
C0 C 0.99923 0.29713 0.33278 0.0
O1 O 0.00913 0.30691 0.32352 0.0
Cd2 Cd 0.04064 0.31599 0.33345 0.0
O3 O 0.00648 0.29101 0.34659 0.0
Cd4 Cd 0.03913 0.29334 0.3618 0.0
C5 C 0.0413 0.33716 0.37714 0.0
O6 O 0.05693 0.29177 0.33434 0.0
O7 O 0.07236 0.30168 0.36082 0.0
O8 O 0.03253 0.26118 0.36372 0.0
C9 C 0.07226 0.29592 0.34379 0.0
O10 O 0.0434 0.33892 0.36026 0.0
C11 C 0.03679 0.26224 0.38116 0.0
O12 O 0.0389 0.32176 0.38215 0.0
O13 O 0.04192 0.27773 0.3898 0.0
C14 C 0.97855 0.74681 0.70229 0.0
O15 O 0.9864 0.73651 0.71086 0.0
Cd16 Cd 0.01569 0.73186 0.70374 0.0
O17 O 0.98629 0.75456 0.68977 0.0
Cd18 Cd 0.0164 0.75448 0.67597 0.0
C19 C 0.01124 0.71022 0.66013 0.0
O20 O 0.03926 0.75788 0.70453 0.0
O21 O 0.04794 0.75056 0.678 0.0
O22 O 0.01873 0.78637 0.67376 0.0
C23 C 0.0521 0.75548 0.6953 0.0
O24 O 0.0141 0.70893 0.6774 0.0
C25 C 0.01833 0.78525 0.65619 0.0
O26 O 0.00987 0.72518 0.65508 0.0
O27 O 0.0172 0.76987 0.64765 0.0
C28 C 0.49953 0.79716 0.83234 0.0
O29 O 0.50955 0.807 0.82325 0.0
Cd30 Cd 0.5411 0.81633 0.83387 0.0
O31 O 0.50661 0.79111 0.8463 0.0
Cd32 Cd 0.53901 0.79336 0.86198 0.0
C33 C 0.54172 0.83741 0.87743 0.0
O34 O 0.55724 0.79208 0.83486 0.0
O35 O 0.57247 0.80193 0.86149 0.0
O36 O 0.53469 0.76117 0.86408 0.0
C37 C 0.57249 0.79625 0.84445 0.0
O38 O 0.54478 0.83946 0.86084 0.0
C39 C 0.53647 0.76238 0.88173 0.0
O40 O 0.53828 0.82186 0.88195 0.0
O41 O 0.53926 0.7779 0.8904 0.0
C42 C 0.47929 0.24682 0.20443 0.0
O43 O 0.48753 0.23696 0.21329 0.0
Cd44 Cd 0.51605 0.2306 0.2046 0.0
O45 O 0.48641 0.25381 0.19111 0.0
Cd46 Cd 0.51624 0.25407 0.17661 0.0
C47 C 0.51218 0.2098 0.16053 0.0
O48 O 0.53962 0.25608 0.20492 0.0
O49 O 0.54864 0.25361 0.17772 0.0
O50 O 0.52045 0.2861 0.17433 0.0
C51 C 0.55259 0.2557 0.19524 0.0
O52 O 0.51512 0.20837 0.17775 0.0
C53 C 0.51681 0.28471 0.15678 0.0
O54 O 0.51024 0.22467 0.15559 0.0
O55 O 0.5129 0.26912 0.14823 0.0
C56 C 0.01879 0.77793 0.13347 0.0
O57 O 0.02778 0.76865 0.14229 0.0
Cd58 Cd 0.05771 0.76583 0.13825 0.0
O59 O 0.02525 0.78629 0.1207 0.0
Cd60 Cd 0.05374 0.79032 0.10485 0.0
C61 C 0.05014 0.74419 0.09339 0.0
O62 O 0.0738 0.79422 0.1344 0.0
O63 O 0.08684 0.79017 0.10999 0.0
O64 O 0.0482 0.82115 0.10547 0.0
C65 C 0.08823 0.79324 0.12763 0.0
O66 O 0.05537 0.74457 0.11059 0.0
C67 C 0.05063 0.82361 0.08888 0.0
O68 O 0.0468 0.7582 0.087 0.0
O69 O 0.05468 0.81063 0.07903 0.0
C70 C 0.46711 0.76515 0.40004 0.0
O71 O 0.4789 0.77468 0.39251 0.0
Cd72 Cd 0.50986 0.78256 0.40155 0.0
O73 O 0.47174 0.7576 0.41413 0.0
Cd74 Cd 0.50302 0.7578 0.43338 0.0
C75 C 0.50824 0.80434 0.44516 0.0
O76 O 0.52017 0.75616 0.40651 0.0
O77 O 0.5363 0.76672 0.43239 0.0
O78 O 0.50079 0.72489 0.43275 0.0
C79 C 0.53565 0.76073 0.41532 0.0
O80 O 0.51117 0.80472 0.42828 0.0
C81 C 0.50222 0.72389 0.4501 0.0
O82 O 0.50461 0.78943 0.45152 0.0
O83 O 0.503 0.73845 0.46038 0.0
C84 C 0.52018 0.27782 0.63513 0.0
O85 O 0.53052 0.27035 0.64478 0.0
Cd86 Cd 0.55963 0.26636 0.63954 0.0
O87 O 0.52538 0.28488 0.62095 0.0
Cd88 Cd 0.55399 0.28965 0.60411 0.0
C89 C 0.54894 0.24292 0.5948 0.0
O90 O 0.57471 0.29417 0.63333 0.0
O91 O 0.58749 0.29014 0.60882 0.0
O92 O 0.5468 0.3201 0.6038 0.0
C93 C 0.58911 0.29335 0.62645 0.0
O94 O 0.55352 0.24414 0.61226 0.0
C95 C 0.55008 0.32283 0.58748 0.0
O96 O 0.54734 0.25687 0.58722 0.0
O97 O 0.55523 0.31019 0.57816 0.0
C98 C 0.96656 0.26238 0.9003 0.0
O99 O 0.977 0.27163 0.89104 0.0
Cd100 Cd 0.00835 0.28238 0.8985 0.0
O101 O 0.97261 0.25682 0.91521 0.0
Cd102 Cd 0.00402 0.2581 0.93406 0.0
C103 C 0.00858 0.30465 0.94318 0.0
O104 O 0.01982 0.25765 0.90609 0.0
O105 O 0.03713 0.26233 0.9318 0.0
O106 O 0.99563 0.22531 0.9352 0.0
C107 C 0.03559 0.26017 0.91416 0.0
O108 O 0.01034 0.30387 0.92589 0.0
C109 C 0.00205 0.225 0.9519 0.0
O110 O 0.00556 0.29031 0.95071 0.0
O111 O 0.00836 0.24011 0.96116 0.0
C112 C 0.40977 0.00642 0.32268 0.0
O113 O 0.42018 1.0012 0.31166 0.0
Cd114 Cd 0.41457 0.99806 0.2788 0.0
O115 O 0.39596 0.01193 0.31696 0.0
Cd116 Cd 0.37941 0.01649 0.2893 0.0
C117 C 0.3732 0.97346 0.28269 0.0
O118 O 0.40297 0.02283 0.27201 0.0
O119 O 0.3769 0.0154 0.25589 0.0
O120 O 0.37909 0.04499 0.30309 0.0
C121 C 0.3937 0.01995 0.25626 0.0
O122 O 0.38886 0.97476 0.27781 0.0
C123 C 0.3623 0.04341 0.29953 0.0
O124 O 0.36676 0.98681 0.28798 0.0
O125 O 0.35323 0.02851 0.29201 0.0
C126 C 0.29381 0.14198 0.51148 0.0
O127 O 0.28337 0.13216 0.52019 0.0
Cd128 Cd 0.25383 0.13529 0.52483 0.0
O129 O 0.289 0.15475 0.50416 0.0
Cd130 Cd 0.26167 0.16793 0.50142 0.0
C131 C 0.26437 0.17761 0.54845 0.0
O132 O 0.23969 0.14051 0.49602 0.0
O133 O 0.22933 0.1639 0.50341 0.0
O134 O 0.26733 0.16939 0.46925 0.0
C135 C 0.22622 0.14741 0.49837 0.0
O136 O 0.25848 0.16115 0.54794 0.0
C137 C 0.26596 0.18532 0.46883 0.0
O138 O 0.26801 0.18416 0.53359 0.0
O139 O 0.26273 0.19359 0.48383 0.0
C140 C 0.10625 0.03815 0.8151 0.0
O141 O 0.09686 0.0461 0.80492 0.0
Cd142 Cd 0.10373 0.05378 0.77488 0.0
O143 O 0.11976 0.03287 0.8092 0.0
Cd144 Cd 0.13381 0.03203 0.77916 0.0
C145 C 0.14739 0.0764 0.78298 0.0
O146 O 0.10691 0.0276 0.7561 0.0
O147 O 0.13236 0.03411 0.74558 0.0
O148 O 0.13507 1.00117 0.78168 0.0
C149 C 0.11554 0.0296 0.74221 0.0
O150 O 0.13095 0.07645 0.77834 0.0
C151 C 0.15165 0.00273 0.78035 0.0
O152 O 0.15242 0.06206 0.78574 0.0
O153 O 0.16011 0.01804 0.77882 0.0
C154 C 0.31765 0.94816 0.98951 0.0
O155 O 0.308 0.9578 0.98215 0.0
Cd156 Cd 0.27632 0.94947 0.97802 0.0
O157 O 0.31089 0.93475 0.99666 0.0
Cd158 Cd 0.28468 0.91681 0.00334 0.0
C159 C 0.27915 0.90838 0.95719 0.0
O160 O 0.26882 0.9392 0.00621 0.0
O161 O 0.25287 0.91278 0.00254 0.0
O162 O 0.29729 0.91637 0.0345 0.0
C163 C 0.25357 0.92929 0.00439 0.0
O164 O 0.275 0.92336 0.95589 0.0
C165 C 0.29302 0.89968 0.03333 0.0
O166 O 0.28351 0.90351 0.97278 0.0
O167 O 0.2858 0.89114 0.01772 0.0
C168 C 0.32263 0.41011 0.027 0.0
O169 O 0.31279 0.41789 0.01714 0.0
Cd170 Cd 0.28134 0.41107 0.01007 0.0
O171 O 0.31593 0.39694 0.03485 0.0
Cd172 Cd 0.28473 0.37957 0.03541 0.0
C173 C 0.28069 0.36936 0.98803 0.0
O174 O 0.27041 0.40496 0.03847 0.0
O175 O 0.25243 0.37989 0.03268 0.0
O176 O 0.2951 0.37617 0.06772 0.0
C177 C 0.25449 0.39646 0.03639 0.0
O178 O 0.27831 0.38507 0.98754 0.0
C179 C 0.28566 0.36089 0.06732 0.0
O180 O 0.28399 0.36368 0.00357 0.0
O181 O 0.2767 0.3539 0.05187 0.0
C182 C 0.78942 0.10156 0.04819 0.0
O183 O 0.7783 0.09188 0.05636 0.0
Cd184 Cd 0.74845 0.09571 0.05799 0.0
O185 O 0.78552 0.11424 0.04021 0.0
Cd186 Cd 0.76238 0.12984 0.03449 0.0
C187 C 0.76326 0.13759 0.08031 0.0
O188 O 0.73985 0.10484 0.02922 0.0
O189 O 0.7313 0.12976 0.03451 0.0
O190 O 0.77227 0.13271 0.00456 0.0
C191 C 0.72728 0.11313 0.031 0.0
O192 O 0.7543 0.12209 0.0803 0.0
C193 C 0.76962 0.14834 0.00476 0.0
O194 O 0.76901 0.143 0.06573 0.0
O195 O 0.76448 0.15558 0.01925 0.0
C196 C 0.14632 0.54349 0.27631 0.0
O197 O 0.13608 0.54901 0.26451 0.0
Cd198 Cd 0.1395 0.54805 0.23208 0.0
O199 O 0.15925 0.53667 0.27148 0.0
Cd200 Cd 0.17342 0.52978 0.24468 0.0
C201 C 0.18229 0.57159 0.23998 0.0
O202 O 0.14766 0.5207 0.22381 0.0
O203 O 0.17217 0.52608 0.21126 0.0
O204 O 0.175 0.5025 0.25468 0.0
C205 C 0.15535 0.52102 0.20922 0.0
O206 O 0.16628 0.57017 0.23255 0.0
C207 C 0.19132 0.50369 0.25232 0.0
O208 O 0.18778 0.55912 0.24709 0.0
O209 O 0.19971 0.51773 0.24737 0.0
C210 C 0.82295 0.90985 0.52727 0.0
O211 O 0.8133 0.91681 0.51629 0.0
Cd212 Cd 0.78195 0.90905 0.50858 0.0
O213 O 0.81604 0.89725 0.53578 0.0
Cd214 Cd 0.78474 0.87973 0.53553 0.0
C215 C 0.7808 0.86692 0.48837 0.0
O216 O 0.76941 0.90436 0.53679 0.0
O217 O 0.75222 0.87888 0.52909 0.0
O218 O 0.78571 0.87942 0.56926 0.0
C219 C 0.75368 0.89535 0.53365 0.0
O220 O 0.77918 0.88265 0.48665 0.0
C221 C 0.78502 0.86302 0.56908 0.0
O222 O 0.78348 0.86201 0.50441 0.0
O223 O 0.78476 0.85412 0.55328 0.0
C224 C 0.94622 0.01013 0.29351 0.0
O225 O 0.95456 1.00148 0.28277 0.0
Cd226 Cd 0.94394 0.99108 0.25095 0.0
O227 O 0.93202 0.01496 0.28709 0.0
Cd228 Cd 0.91471 0.0138 0.25514 0.0
C229 C 0.90092 0.96966 0.25414 0.0
O230 O 0.9403 0.01679 0.23678 0.0
O231 O 0.91427 0.00951 0.22099 0.0
O232 O 0.91348 0.0446 0.266 0.0
C233 C 0.93099 0.01413 0.22101 0.0
O234 O 0.91699 0.96883 0.25178 0.0
C235 C 0.89771 0.04389 0.25843 0.0
O236 O 0.89601 0.98447 0.25609 0.0
O237 O 0.88953 0.02906 0.24992 0.0
C238 C 0.2891 0.60043 0.54865 0.0
O239 O 0.27694 0.58951 0.55417 0.0
Cd240 Cd 0.24775 0.5953 0.55571 0.0
O241 O 0.28591 0.61412 0.54221 0.0
Cd242 Cd 0.26328 0.62964 0.53528 0.0
C243 C 0.26334 0.63639 0.58029 0.0
O244 O 0.24015 0.60557 0.52732 0.0
O245 O 0.23266 0.63032 0.53686 0.0
O246 O 0.27244 0.6324 0.50519 0.0
C247 C 0.22802 0.61422 0.53011 0.0
O248 O 0.25366 0.62107 0.57926 0.0
C249 C 0.26986 0.64809 0.50577 0.0
O250 O 0.27007 0.64224 0.56639 0.0
O251 O 0.26584 0.6555 0.5208 0.0
C252 C 0.44491 0.50797 0.79356 0.0
O253 O 0.45144 0.49731 0.78303 0.0
Cd254 Cd 0.44404 0.49055 0.74993 0.0
O255 O 0.4331 0.51587 0.78678 0.0
Cd256 Cd 0.41665 0.51432 0.75477 0.0
C257 C 0.40128 0.46977 0.74998 0.0
O258 O 0.44226 0.51722 0.73679 0.0
O259 O 0.4165 0.50905 0.72046 0.0
O260 O 0.41555 0.54574 0.75835 0.0
C261 C 0.43321 0.51442 0.72087 0.0
O262 O 0.4166 0.46841 0.74533 0.0
C263 C 0.39867 0.54366 0.75731 0.0
O264 O 0.39794 0.48484 0.75542 0.0
O265 O 0.39 0.5279 0.75548 0.0
C266 C 0.64356 0.0433 0.77437 0.0
O267 O 0.63323 0.04706 0.76135 0.0
Cd268 Cd 0.63974 0.04765 0.73044 0.0
O269 O 0.6583 0.0388 0.77144 0.0
Cd270 Cd 0.67628 0.03302 0.74656 0.0
C271 C 0.68171 0.07473 0.741 0.0
O272 O 0.65116 0.02181 0.72619 0.0
O273 O 0.67478 0.0278 0.7126 0.0
O274 O 0.68003 0.0079 0.76078 0.0
C275 C 0.65804 0.02238 0.7112 0.0
O276 O 0.66544 0.07176 0.73381 0.0
C277 C 0.6952 0.00764 0.75531 0.0
O278 O 0.6887 0.06291 0.74785 0.0
O279 O 0.70244 0.02054 0.74758 0.0
C280 C 0.79546 0.64272 0.01436 0.0
O281 O 0.78487 0.63356 0.02354 0.0
Cd282 Cd 0.75495 0.6361 0.02746 0.0
O283 O 0.79086 0.65519 0.00627 0.0
Cd284 Cd 0.76397 0.66915 0.00325 0.0
C285 C 0.76439 0.67857 0.05059 0.0
O286 O 0.74243 0.6418 -0.00162 0.0
O287 O 0.73116 0.66509 0.00228 0.0
O288 O 0.77006 0.6699 0.97112 0.0
C289 C 0.7286 0.64843 -0.00096 0.0
O290 O 0.75835 0.66212 0.04995 0.0
C291 C 0.76853 0.68573 0.97016 0.0
O292 O 0.76907 0.68509 0.03598 0.0
O293 O 0.76543 0.6944 0.98497 0.0
C294 C 0.91241 0.50764 0.81951 0.0
O295 O 0.92174 0.50248 0.80731 0.0
Cd296 Cd 0.91123 0.49948 0.77525 0.0
O297 O 0.89812 0.51292 0.81499 0.0
Cd298 Cd 0.87952 0.51768 0.78885 0.0
C299 C 0.87052 0.47518 0.78135 0.0
O300 O 0.90192 0.52619 0.76998 0.0
O301 O 0.87584 0.5146 0.75527 0.0
O302 O 0.87765 0.54598 0.804 0.0
C303 C 0.89169 0.52269 0.75482 0.0
O304 O 0.88525 0.4761 0.77444 0.0
C305 C 0.86107 0.54402 0.79867 0.0
O306 O 0.86548 0.48855 0.78893 0.0
O307 O 0.85303 0.52919 0.79003 0.0
C308 C 0.81678 0.45052 0.49214 0.0
O309 O 0.80783 0.46053 0.48448 0.0
Cd310 Cd 0.77691 0.4481 0.47719 0.0
O311 O 0.80917 0.43655 0.49767 0.0
Cd312 Cd 0.78317 0.41733 0.50167 0.0
C313 C 0.78376 0.40807 0.45719 0.0
O314 O 0.76617 0.43884 0.50531 0.0
O315 O 0.75142 0.41223 0.49529 0.0
O316 O 0.79424 0.41629 0.53333 0.0
C317 C 0.75143 0.42799 0.50191 0.0
O318 O 0.77916 0.42271 0.45497 0.0
C319 C 0.78879 0.39972 0.5319 0.0
O320 O 0.7866 0.40347 0.47315 0.0
O321 O 0.78178 0.39158 0.51609 0.0
C322 C 0.6052 0.53819 0.31369 0.0
O323 O 0.59598 0.5462 0.30341 0.0
Cd324 Cd 0.60256 0.55262 0.27295 0.0
O325 O 0.61841 0.5324 0.30769 0.0
Cd326 Cd 0.63238 0.53133 0.2777 0.0
C327 C 0.64591 0.57542 0.28186 0.0
O328 O 0.60551 0.52624 0.25417 0.0
O329 O 0.63101 0.53407 0.24436 0.0
O330 O 0.63553 0.50134 0.28312 0.0
C331 C 0.61428 0.52895 0.24047 0.0
O332 O 0.62964 0.57536 0.27629 0.0
C333 C 0.6514 0.50291 0.27899 0.0
O334 O 0.6508 0.5612 0.2853 0.0
O335 O 0.65853 0.51772 0.27463 0.0
Tb336 Tb 0.04888 0.03368 0.03453 0.0
C337 C 0.98921 0.97431 0.98887 0.0
N338 N 0.99807 0.98977 0.9843 0.0
C339 C 0.99754 0.97626 0.95288 0.0
C340 C 0.98399 0.95924 0.97547 0.0
C341 C 0.00234 0.99091 0.96657 0.0
C342 C 0.98825 0.96039 0.95731 0.0
C343 C 0.97593 0.95785 0.01223 0.0
C344 C 0.98514 0.97366 0.00706 0.0
C345 C 0.97057 0.94288 -0.00114 0.0
C346 C 0.97453 0.94359 0.98052 0.0
Tb347 Tb 0.00165 0.01324 0.00708 0.0
N348 N 0.99019 0.98852 0.01962 0.0
C349 C 0.97217 0.9576 0.03064 0.0
C350 C 0.98587 0.98843 0.03737 0.0
C351 C 0.97718 0.97296 0.04326 0.0
H352 H 0.0084 0.00333 0.96259 0.0
H353 H 0.97398 0.97302 0.05744 0.0
H354 H 0.04341 0.04547 0.07877 0.0
H355 H 0.08383 0.06971 0.98508 0.0
H356 H 0.98852 1.0002 0.04699 0.0
H357 H 0.96515 0.94571 0.03517 0.0
H358 H 0.06778 0.04368 0.99644 0.0
H359 H 0.00065 0.97735 0.9388 0.0
H360 H 0.96328 0.9307 0.00254 0.0
H361 H 0.97022 0.93195 0.97035 0.0
H362 H 0.05198 0.07182 0.102 0.0
H363 H 0.98434 0.94914 0.94658 0.0
H364 H 0.09196 0.09804 0.00582 0.0
N365 N 0.05447 0.05785 0.05682 0.0
C366 C 0.06422 0.07273 0.05202 0.0
C367 C 0.0553 0.07235 0.08792 0.0
C368 C 0.06982 0.08809 0.06501 0.0
C369 C 0.05005 0.05748 0.07456 0.0
C370 C 0.06521 0.08775 0.08313 0.0
N371 N 0.06369 0.05722 0.02214 0.0
C372 C 0.06964 0.05603 0.00504 0.0
C373 C 0.0792 0.08758 0.02862 0.0
C374 C 0.06891 0.07244 0.03408 0.0
C375 C 0.08409 0.0867 0.01057 0.0
C376 C 0.07942 0.07079 -0.00121 0.0
H377 H 0.06942 0.0992 0.09357 0.0
H378 H 0.08453 0.11505 0.06943 0.0
H379 H 0.09265 0.11465 0.03751 0.0
O380 O 0.07194 0.02372 0.02917 0.0
O381 O 0.03302 0.05365 0.02699 0.0
O382 O 0.01252 0.04032 0.00155 0.0
O383 O 0.06786 0.03391 0.05734 0.0
O384 O 0.04724 0.01925 0.00616 0.0
O385 O 0.02167 0.0242 0.99022 0.0
O386 O 0.97676 0.01908 0.01258 0.0
O387 O 0.01957 0.99463 0.01355 0.0
O388 O 0.03531 0.00804 0.04128 0.0
O389 O 0.98158 0.01026 0.9848 0.0
O390 O 0.00205 0.02834 0.03477 0.0
O391 O 0.02791 0.02488 0.05137 0.0
C392 C 0.02165 0.05454 0.01241 0.0
C393 C 0.09501 0.02303 0.05439 0.0
C394 C 0.12177 0.01193 0.04922 0.0
C395 C 0.12732 0.01486 0.06843 0.0
C396 C 0.10048 0.02586 0.07367 0.0
C397 C 0.11661 0.02176 0.08063 0.0
C398 C 0.10568 0.01601 0.04227 0.0
C399 C 0.03784 0.02091 0.99052 0.0
C400 C 0.07804 0.02689 0.04683 0.0
C401 C 0.08004 0.10318 0.05961 0.0
C402 C 0.08465 0.10295 0.04144 0.0
C403 C 0.02901 0.99377 0.0294 0.0
C404 C 0.96194 0.02988 0.98764 0.0
C405 C 0.93941 0.04774 0.99012 0.0
C406 C 0.94271 0.05359 0.97301 0.0
C407 C 0.9655 0.036 0.9706 0.0
C408 C 0.949 0.03595 0.99738 0.0
C409 C 0.95588 0.04782 0.96336 0.0
C410 C 0.01187 0.02857 0.05071 0.0
C411 C 0.97059 0.01636 0.99496 0.0
H412 H 0.13972 0.01151 0.07395 0.0
H413 H 0.09227 0.03112 0.08333 0.0
H414 H 0.12076 0.02383 0.09548 0.0
H415 H 0.10151 0.01366 0.02737 0.0
H416 H 0.93524 0.06269 0.96726 0.0
H417 H 0.97549 0.03151 0.96275 0.0
H418 H 0.94607 0.03118 0.01044 0.0
H419 H 0.95854 0.05241 0.95021 0.0
Tb420 Tb 0.25972 0.78085 0.29693 0.0
C421 C 0.2977 0.74083 0.22822 0.0
N422 N 0.30429 0.75399 0.2423 0.0
C423 C 0.33014 0.74135 0.24855 0.0
C424 C 0.30685 0.72702 0.22402 0.0
C425 C 0.32043 0.75463 0.2523 0.0
C426 C 0.32324 0.72737 0.23447 0.0
C427 C 0.27506 0.72863 0.2023 0.0
C428 C 0.28212 0.74168 0.21754 0.0
C429 C 0.28358 0.71432 0.19857 0.0
C430 C 0.29952 0.71358 0.20935 0.0
Tb431 Tb 0.28728 0.77466 0.24795 0.0
N432 N 0.27457 0.75594 0.22139 0.0
C433 C 0.26008 0.73072 0.19086 0.0
C434 C 0.26122 0.75894 0.20899 0.0
C435 C 0.25339 0.74615 0.19398 0.0
H436 H 0.32598 0.76547 0.26303 0.0
H437 H 0.24239 0.74836 0.18464 0.0
H438 H 0.21913 0.78856 0.28482 0.0
H439 H 0.31579 0.81847 0.34518 0.0
H440 H 0.25652 0.77121 0.21037 0.0
H441 H 0.25416 0.72094 0.17909 0.0
H442 H 0.30079 0.79415 0.32185 0.0
H443 H 0.34295 0.74192 0.2565 0.0
H444 H 0.27827 0.70408 0.18703 0.0
H445 H 0.30624 0.70275 0.206 0.0
H446 H 0.20139 0.8106 0.2942 0.0
H447 H 0.33079 0.7171 0.23159 0.0
H448 H 0.2996 0.84137 0.35668 0.0
N449 N 0.24226 0.80099 0.30352 0.0
C450 C 0.2494 0.81429 0.31742 0.0
C451 C 0.21492 0.81187 0.30074 0.0
C452 C 0.2396 0.82712 0.3233 0.0
C453 C 0.22517 0.79951 0.29529 0.0
C454 C 0.22216 0.82574 0.3148 0.0
N455 N 0.27615 0.80315 0.31862 0.0
C456 C 0.29343 0.80403 0.32598 0.0
C457 C 0.27503 0.82955 0.33904 0.0
C458 C 0.26688 0.81542 0.32527 0.0
C459 C 0.29285 0.83068 0.34614 0.0
C460 C 0.30205 0.81784 0.3396 0.0
H461 H 0.21419 0.83531 0.31896 0.0
H462 H 0.24023 0.85096 0.34201 0.0
H463 H 0.27126 0.85315 0.3557 0.0
O464 O 0.26009 0.76955 0.32169 0.0
O465 O 0.26968 0.80636 0.28916 0.0
O466 O 0.27863 0.78756 0.27077 0.0
O467 O 0.23534 0.76818 0.30443 0.0
O468 O 0.28541 0.77066 0.29936 0.0
O469 O 0.30297 0.78029 0.276 0.0
O470 O 0.28739 0.79587 0.23279 0.0
O471 O 0.27938 0.75053 0.25959 0.0
O472 O 0.25695 0.75979 0.27362 0.0
O473 O 0.31207 0.7884 0.2422 0.0
O474 O 0.25891 0.77765 0.24266 0.0
O475 O 0.24328 0.77981 0.26946 0.0
C476 C 0.27828 0.80391 0.27532 0.0
C477 C 0.23625 0.74664 0.32486 0.0
C478 C 0.23691 0.7277 0.34896 0.0
C479 C 0.22109 0.71672 0.34011 0.0
C480 C 0.22051 0.73554 0.31579 0.0
C481 C 0.21306 0.72054 0.32339 0.0
C482 C 0.2445 0.74242 0.34122 0.0
C483 C 0.30078 0.7732 0.29172 0.0
C484 C 0.24287 0.76399 0.31954 0.0
C485 C 0.24756 0.841 0.33729 0.0
C486 C 0.26523 0.84223 0.3451 0.0
C487 C 0.26699 0.7481 0.27081 0.0
C488 C 0.30976 0.79958 0.21324 0.0
C489 C 0.30423 0.81006 0.18361 0.0
C490 C 0.31706 0.80131 0.17647 0.0
C491 C 0.32275 0.79091 0.2062 0.0
C492 C 0.30089 0.80946 0.20198 0.0
C493 C 0.32645 0.79192 0.18785 0.0
C494 C 0.24451 0.77946 0.25116 0.0
C495 C 0.30451 0.79822 0.2319 0.0
H496 H 0.21505 0.70527 0.34612 0.0
H497 H 0.21372 0.73869 0.30322 0.0
H498 H 0.20084 0.71209 0.31654 0.0
H499 H 0.25641 0.75113 0.34856 0.0
H500 H 0.31992 0.80195 0.16223 0.0
H501 H 0.32989 0.78329 0.21473 0.0
H502 H 0.29097 0.81635 0.20735 0.0
H503 H 0.33646 0.78529 0.1824 0.0
Tb504 Tb 0.5033 0.02276 0.52953 0.0
C505 C 0.56828 0.0582 0.49043 0.0
N506 N 0.55604 0.04294 0.48543 0.0
C507 C 0.55272 0.04938 0.45389 0.0
C508 C 0.57271 0.06994 0.4774 0.0
C509 C 0.54875 0.03813 0.46727 0.0
C510 C 0.56464 0.06541 0.459 0.0
C511 C 0.58847 0.07819 0.51462 0.0
C512 C 0.57629 0.06219 0.50878 0.0
C513 C 0.59286 0.08991 0.50167 0.0
C514 C 0.58505 0.08578 0.48311 0.0
Tb515 Tb 0.55187 0.02555 0.5086 0.0
N516 N 0.57137 0.05078 0.52112 0.0
C517 C 0.59564 0.08205 0.53337 0.0
C518 C 0.57842 0.05441 0.53939 0.0
C519 C 0.59059 0.07012 0.54579 0.0
H520 H 0.54025 0.02542 0.46275 0.0
H521 H 0.59607 0.07301 0.56031 0.0
H522 H 0.50393 0.02678 0.57554 0.0
H523 H 0.45548 0.98053 0.47642 0.0
H524 H 0.57471 0.04534 0.54913 0.0
H525 H 0.60501 0.09424 0.53841 0.0
H526 H 0.47772 0.00726 0.48944 0.0
H527 H 0.54677 0.04555 0.43958 0.0
H528 H 0.60223 0.10226 0.50589 0.0
H529 H 0.58859 0.09497 0.4733 0.0
H530 H 0.49263 0.00825 0.59903 0.0
H531 H 0.56771 0.07407 0.44857 0.0
H532 H 0.44555 0.95799 0.49671 0.0
N533 N 0.49235 0.00754 0.55249 0.0
C534 C 0.48087 0.99203 0.54672 0.0
C535 C 0.48939 0.00341 0.58435 0.0
C536 C 0.47385 0.9811 0.55953 0.0
C537 C 0.4959 0.01379 0.57103 0.0
C538 C 0.47861 0.98681 0.57858 0.0
N539 N 0.48124 0.99945 0.51639 0.0
C540 C 0.47374 0.99739 0.49826 0.0
C541 C 0.46215 0.97251 0.5213 0.0
C542 C 0.47502 0.98785 0.52796 0.0
C543 C 0.45545 0.96962 0.5024 0.0
C544 C 0.46102 0.98231 0.49091 0.0
H545 H 0.47349 0.97883 0.58891 0.0
H546 H 0.45643 0.95653 0.56254 0.0
H547 H 0.44623 0.94895 0.52897 0.0
O548 O 0.48259 0.03439 0.51789 0.0
O549 O 0.50786 0.99804 0.51369 0.0
O550 O 0.53869 0.99985 0.516 0.0
O551 O 0.49342 0.04115 0.54664 0.0
O552 O 0.51196 0.03317 0.50495 0.0
O553 O 0.52793 0.01591 0.48956 0.0
O554 O 0.57744 0.0193 0.51489 0.0
O555 O 0.54248 0.05057 0.5161 0.0
O556 O 0.52602 0.04459 0.54024 0.0
O557 O 0.56235 0.01178 0.48723 0.0
O558 O 0.55092 0.02032 0.53699 0.0
O559 O 0.52401 0.01878 0.55033 0.0
C560 C 0.52211 0.99068 0.5131 0.0
C561 C 0.46354 0.04366 0.53941 0.0
C562 C 0.4375 0.05741 0.53831 0.0
C563 C 0.43215 0.04942 0.55377 0.0
C564 C 0.45778 0.0354 0.55461 0.0
C565 C 0.44216 0.03831 0.56173 0.0
C566 C 0.45313 0.0544 0.53105 0.0
C567 C 0.51406 0.02332 0.49006 0.0
C568 C 0.48139 0.04328 0.53377 0.0
C569 C 0.46178 0.96525 0.55294 0.0
C570 C 0.45596 0.96094 0.53383 0.0
C571 C 0.5346 0.05598 0.53046 0.0
C572 C 0.59129 0.00361 0.49104 0.0
C573 C 0.6141 0.98584 0.49498 0.0
C574 C 0.61681 0.98635 0.47621 0.0
C575 C 0.59423 0.00398 0.47232 0.0
C576 C 0.60151 0.99477 0.50251 0.0
C577 C 0.60702 0.9955 0.46502 0.0
C578 C 0.54106 0.01794 0.55071 0.0
C579 C 0.57683 0.01158 0.49798 0.0
H580 H 0.42018 0.05176 0.55961 0.0
H581 H 0.46557 0.02713 0.56137 0.0
H582 H 0.43798 0.03218 0.57366 0.0
H583 H 0.45756 0.06102 0.51947 0.0
H584 H 0.62656 0.97966 0.47023 0.0
H585 H 0.58654 0.01078 0.46331 0.0
H586 H 0.59922 0.99424 0.51694 0.0
H587 H 0.60922 0.99584 0.45057 0.0
Tb588 Tb 0.29947 0.26611 0.77212 0.0
C589 C 0.23611 0.29182 0.72929 0.0
N590 N 0.24609 0.29939 0.74562 0.0
C591 C 0.24859 0.32785 0.73525 0.0
C592 C 0.23216 0.302 0.71516 0.0
C593 C 0.25183 0.31725 0.74901 0.0
C594 C 0.23884 0.32019 0.71819 0.0
C595 C 0.21808 0.2656 0.7108 0.0
C596 C 0.22936 0.27381 0.72699 0.0
C597 C 0.2143 0.27565 0.69654 0.0
C598 C 0.22143 0.29378 0.69867 0.0
Tb599 Tb 0.25111 0.28033 0.76639 0.0
N600 N 0.23375 0.26441 0.74085 0.0
C601 C 0.21063 0.24765 0.70965 0.0
C602 C 0.22572 0.24722 0.74031 0.0
C603 C 0.21424 0.23849 0.7246 0.0
H604 H 0.25859 0.32347 0.76243 0.0
H605 H 0.20798 0.22479 0.72417 0.0
H606 H 0.29317 0.22376 0.77895 0.0
H607 H 0.33762 0.32549 0.81322 0.0
H608 H 0.22771 0.2404 0.75218 0.0
H609 H 0.20169 0.24087 0.69753 0.0
H610 H 0.31948 0.30799 0.78545 0.0
H611 H 0.25338 0.34197 0.73792 0.0
H612 H 0.20573 0.26956 0.68393 0.0
H613 H 0.21827 0.30138 0.68763 0.0
H614 H 0.30123 0.20685 0.80404 0.0
H615 H 0.23619 0.32848 0.70764 0.0
H616 H 0.34603 0.31084 0.84029 0.0
N617 N 0.30568 0.24869 0.79412 0.0
C618 C 0.31586 0.25734 0.80994 0.0
C619 C 0.30532 0.22106 0.80592 0.0
C620 C 0.32112 0.24811 0.82445 0.0
C621 C 0.30053 0.23074 0.79182 0.0
C622 C 0.31562 0.22977 0.82231 0.0
N623 N 0.31569 0.28407 0.79725 0.0
C624 C 0.32205 0.30163 0.79745 0.0
C625 C 0.33203 0.28493 0.8275 0.0
C626 C 0.32116 0.27557 0.81149 0.0
C627 C 0.33761 0.30317 0.82827 0.0
C628 C 0.33278 0.31151 0.81307 0.0
H629 H 0.31942 0.22219 0.83313 0.0
H630 H 0.336 0.25055 0.85179 0.0
H631 H 0.3456 0.28276 0.85443 0.0
O632 O 0.32036 0.27598 0.75648 0.0
O633 O 0.2861 0.27205 0.79716 0.0
O634 O 0.26935 0.293 0.79091 0.0
O635 O 0.31993 0.252 0.76842 0.0
O636 O 0.29605 0.28941 0.75866 0.0
O637 O 0.27461 0.30174 0.77263 0.0
O638 O 0.23163 0.27118 0.78391 0.0
O639 O 0.26291 0.27241 0.74091 0.0
O640 O 0.282 0.25316 0.74707 0.0
O641 O 0.23017 0.29386 0.77009 0.0
O642 O 0.25311 0.25529 0.77734 0.0
O643 O 0.27667 0.24402 0.7657 0.0
C644 C 0.27821 0.28509 0.80263 0.0
C645 C 0.33632 0.25493 0.74245 0.0
C646 C 0.36116 0.25563 0.72323 0.0
C647 C 0.35472 0.23771 0.71674 0.0
C648 C 0.33006 0.23711 0.73523 0.0
C649 C 0.33924 0.22861 0.72255 0.0
C650 C 0.35182 0.26429 0.7361 0.0
C651 C 0.28911 0.3031 0.76405 0.0
C652 C 0.32843 0.26285 0.75848 0.0
C653 C 0.33178 0.25743 0.84051 0.0
C654 C 0.33723 0.27578 0.84203 0.0
C655 C 0.27191 0.26021 0.73556 0.0
C656 C 0.21506 0.29206 0.79702 0.0
C657 C 0.1901 0.29266 0.81589 0.0
C658 C 0.19748 0.31034 0.8227 0.0
C659 C 0.22225 0.30964 0.80448 0.0
C660 C 0.19902 0.28348 0.80304 0.0
C661 C 0.21348 0.31867 0.81718 0.0
C662 C 0.26134 0.24221 0.77283 0.0
C663 C 0.22269 0.28356 0.78117 0.0
H664 H 0.36171 0.23072 0.70705 0.0
H665 H 0.31836 0.22954 0.73986 0.0
H666 H 0.3345 0.21479 0.71742 0.0
H667 H 0.35699 0.27796 0.74171 0.0
H668 H 0.19084 0.31772 0.83241 0.0
H669 H 0.23439 0.31659 0.80005 0.0
H670 H 0.19318 0.27 0.79725 0.0
H671 H 0.21898 0.33232 0.82255 0.0
Tb672 Tb 0.03614 0.9999 0.51632 0.0
C673 C 0.00832 0.06491 0.55767 0.0
N674 N 0.00073 0.0526 0.54301 0.0
C675 C 0.97261 0.04942 0.55545 0.0
C676 C 0.99835 0.06982 0.57198 0.0
C677 C 0.983 0.04511 0.5415 0.0
C678 C 0.98033 0.06176 0.57081 0.0
C679 C 0.03459 0.0855 0.57318 0.0
C680 C 0.02624 0.07251 0.55835 0.0
C681 C 0.02472 0.09049 0.58747 0.0
C682 C 0.00667 0.08261 0.58692 0.0
Tb683 Tb 0.01923 0.04674 0.52135 0.0
N684 N 0.03558 0.06673 0.54475 0.0
C685 C 0.05268 0.09289 0.57327 0.0
C686 C 0.05299 0.0744 0.54436 0.0
C687 C 0.06186 0.08741 0.55871 0.0
H688 H 0.97666 0.03613 0.52934 0.0
H689 H 0.07573 0.09336 0.55842 0.0
H690 H 0.07835 0.00923 0.50721 0.0
H691 H 0.97648 0.95949 0.47721 0.0
H692 H 0.05995 0.07088 0.53281 0.0
H693 H 0.0596 0.10293 0.58439 0.0
H694 H 0.994 0.97894 0.50422 0.0
H695 H 0.9586 0.04336 0.55424 0.0
H696 H 0.03093 0.10036 0.59905 0.0
H697 H 0.99923 0.08655 0.59807 0.0
H698 H 0.09548 0.00161 0.48153 0.0
H699 H 0.97221 0.06513 0.58155 0.0
H700 H 0.99138 0.95046 0.45004 0.0
N701 N 0.05358 0.99413 0.4936 0.0
C702 C 0.04509 0.98292 0.47841 0.0
C703 C 0.08129 0.99634 0.48044 0.0
C704 C 0.0544 0.97807 0.46351 0.0
C705 C 0.07149 1.0008 0.49488 0.0
C706 C 0.07273 0.98493 0.46468 0.0
N707 N 0.01821 0.98224 0.49203 0.0
C708 C 1.00049 0.97579 0.49224 0.0
C709 C 0.01746 0.96529 0.462 0.0
C710 C 0.02683 0.97668 0.47764 0.0
C711 C 0.99908 0.95927 0.46178 0.0
C712 C 0.9906 0.96443 0.47704 0.0
H713 H 0.08038 0.9815 0.45353 0.0
H714 H 0.05205 0.96274 0.43633 0.0
H715 H 0.01974 0.95151 0.43503 0.0
O716 O 0.02785 0.97734 0.53012 0.0
O717 O 0.02947 0.01145 0.4905 0.0
O718 O 0.00757 0.02591 0.49881 0.0
O719 O 0.05512 0.98503 0.52378 0.0
O720 O 0.01252 1.00152 0.53084 0.0
O721 O 0.99952 0.022 0.51689 0.0
O722 O 0.02697 0.06684 0.50404 0.0
O723 O 0.02831 0.03779 0.54797 0.0
O724 O 0.04747 0.01886 0.54083 0.0
O725 O 0.00063 0.06177 0.51337 0.0
O726 O 0.04406 0.04517 0.50886 0.0
O727 O 0.0566 0.02394 0.52247 0.0
C728 C 0.01639 0.0196 0.48601 0.0
C729 C 0.04964 0.959 0.53952 0.0
C730 C 0.04433 0.9327 0.55555 0.0
C731 C 0.06224 0.93131 0.55483 0.0
C732 C 0.06752 0.95715 0.53915 0.0
C733 C 0.07372 0.94346 0.54675 0.0
C734 C 0.03796 0.9467 0.54795 0.0
C735 C 0.99879 0.00901 0.52714 0.0
C736 C 0.04391 0.97394 0.5311 0.0
C737 C 0.04512 0.96666 0.44791 0.0
C738 C 0.02671 0.96028 0.44716 0.0
C739 C 0.03964 0.02774 0.55292 0.0
C740 C 0.00537 0.08532 0.49411 0.0
C741 C 0.01029 0.11074 0.47663 0.0
C742 C 0.99225 0.11179 0.47684 0.0
C743 C 0.98735 0.08685 0.49393 0.0
C744 C 0.01695 0.0974 0.48529 0.0
C745 C 0.9809 0.09994 0.48539 0.0
C746 C 0.05779 0.03803 0.51384 0.0
C747 C 0.01137 0.07126 0.504 0.0
H748 H 0.06739 0.92075 0.56065 0.0
H749 H 0.07685 0.96634 0.53293 0.0
H750 H 0.08752 0.94225 0.54636 0.0
H751 H 0.02416 0.94789 0.54847 0.0
H752 H 0.98692 0.12193 0.47038 0.0
H753 H 0.97809 0.07792 0.5005 0.0
H754 H 0.03091 0.09658 0.48533 0.0
H755 H 0.96702 0.10095 0.48548 0.0
Tb756 Tb 0.27717 0.79787 0.75722 0.0
C757 C 0.23659 0.73405 0.79191 0.0
N758 N 0.25222 0.7456 0.79807 0.0
C759 C 0.24366 0.74807 0.82908 0.0
C760 C 0.2237 0.72949 0.80407 0.0
C761 C 0.25626 0.75177 0.81667 0.0
C762 C 0.22721 0.73709 0.82271 0.0
C763 C 0.21883 0.71242 0.76731 0.0
C764 C 0.23406 0.72562 0.77369 0.0
C765 C 0.20573 0.70834 0.77922 0.0
C766 C 0.20812 0.71692 0.79751 0.0
Tb767 Tb 0.27158 0.7494 0.77598 0.0
N768 N 0.24687 0.72994 0.76238 0.0
C769 C 0.21745 0.70342 0.74929 0.0
C770 C 0.24613 0.72058 0.7452 0.0
C771 C 0.23125 0.70741 0.73826 0.0
H772 H 0.26935 0.75909 0.82237 0.0
H773 H 0.23051 0.70022 0.7245 0.0
H774 H 0.27978 0.78712 0.71124 0.0
H775 H 0.32113 0.84335 0.81071 0.0
H776 H 0.25705 0.72334 0.73694 0.0
H777 H 0.20599 0.69314 0.74391 0.0
H778 H 0.29342 0.82236 0.79767 0.0
H779 H 0.24686 0.75329 0.84368 0.0
H780 H 0.19387 0.69832 0.77453 0.0
H781 H 0.19809 0.71331 0.80667 0.0
H782 H 0.30224 0.79307 0.68987 0.0
H783 H 0.21765 0.73394 0.83247 0.0
H784 H 0.34507 0.85089 0.79076 0.0
N785 N 0.29651 0.80166 0.73524 0.0
C786 C 0.31198 0.81348 0.74133 0.0
C787 C 0.30527 0.79866 0.70437 0.0
C788 C 0.325 0.81775 0.72923 0.0
C789 C 0.29268 0.79494 0.71678 0.0
C790 C 0.32158 0.80995 0.71065 0.0
N791 N 0.30205 0.8171 0.77122 0.0
C792 C 0.30401 0.82501 0.78916 0.0
C793 C 0.33068 0.83372 0.76649 0.0
C794 C 0.31476 0.82155 0.75977 0.0
C795 C 0.33303 0.84145 0.78509 0.0
C796 C 0.31959 0.83715 0.79643 0.0
H797 H 0.33123 0.81291 0.70093 0.0
H798 H 0.35101 0.83324 0.72682 0.0
H799 H 0.35602 0.84712 0.75941 0.0
O800 O 0.27125 0.82343 0.76348 0.0
O801 O 0.30221 0.78837 0.76642 0.0
O802 O 0.29714 0.76723 0.78694 0.0
O803 O 0.26403 0.80816 0.73577 0.0
O804 O 0.26571 0.79215 0.78243 0.0
O805 O 0.27877 0.77234 0.79713 0.0
O806 O 0.2868 0.73106 0.76571 0.0
O807 O 0.2482 0.75515 0.75867 0.0
O808 O 0.25089 0.78528 0.76456 0.0
O809 O 0.27502 0.72877 0.79116 0.0
O810 O 0.28365 0.75689 0.7515 0.0
O811 O 0.26834 0.77501 0.73686 0.0
C812 C 0.30791 0.7789 0.7791 0.0
C813 C 0.25625 0.83697 0.73908 0.0
C814 C 0.24186 0.86241 0.74303 0.0
C815 C 0.24189 0.86366 0.72392 0.0
C816 C 0.25601 0.83845 0.72 0.0
C817 C 0.24888 0.85172 0.7125 0.0
C818 C 0.24904 0.84897 0.75065 0.0
C819 C 0.27371 0.78754 0.79717 0.0
C820 C 0.26384 0.82269 0.74645 0.0
C821 C 0.34087 0.82984 0.73593 0.0
C822 C 0.34372 0.83778 0.75449 0.0
C823 C 0.24123 0.76946 0.75844 0.0
C824 C 0.30032 0.71605 0.78835 0.0
C825 C 0.31823 0.69326 0.78869 0.0
C826 C 0.32585 0.70039 0.80685 0.0
C827 C 0.30836 0.72328 0.80641 0.0
C828 C 0.3055 0.70114 0.77942 0.0
C829 C 0.32104 0.71542 0.81559 0.0
C830 C 0.27491 0.76071 0.73672 0.0
C831 C 0.28482 0.72219 0.77976 0.0
H832 H 0.23631 0.87383 0.71779 0.0
H833 H 0.26144 0.82937 0.71084 0.0
H834 H 0.24875 0.85275 0.69778 0.0
H835 H 0.24901 0.84789 0.76537 0.0
H836 H 0.3355 0.69428 0.81426 0.0
H837 H 0.30445 0.73464 0.81363 0.0
H838 H 0.29916 0.69529 0.76562 0.0
H839 H 0.32692 0.7208 0.82963 0.0
Tb840 Tb 0.52493 0.03779 0.99336 0.0
C841 C 0.55986 0.9996 0.06344 0.0
N842 N 0.54684 0.99309 0.04905 0.0
C843 C 0.55932 0.96714 0.04354 0.0
C844 C 0.57361 0.99046 0.06793 0.0
C845 C 0.54613 0.97684 0.03943 0.0
C846 C 0.57326 0.97407 0.05769 0.0
C847 C 0.57291 0.02308 0.08834 0.0
C848 C 0.55945 0.01562 0.07357 0.0
C849 C 0.58692 0.01427 0.09256 0.0
C850 C 0.58723 0.99796 0.08242 0.0
Tb851 Tb 0.52677 0.01071 0.04266 0.0
N852 N 0.54598 0.02401 0.06863 0.0
C853 C 0.57182 0.03914 0.09844 0.0
C854 C 0.54412 0.03894 0.07943 0.0
C855 C 0.55718 0.04692 0.09417 0.0
H856 H 0.53525 0.97107 0.0288 0.0
H857 H 0.55587 0.05902 0.10233 0.0
H858 H 0.51795 0.07793 0.00482 0.0
H859 H 0.49286 0.9865 0.937 0.0
H860 H 0.53254 0.04473 0.07704 0.0
H861 H 0.58193 0.04537 0.10983 0.0
H862 H 0.5171 1.00145 0.96067 0.0
H863 H 0.55871 0.95431 0.0358 0.0
H864 H 0.59748 0.01988 0.10375 0.0
H865 H 0.59803 0.99122 0.08594 0.0
H866 H 0.49498 0.09518 0.99712 0.0
H867 H 0.58353 0.96658 0.06075 0.0
H868 H 0.46699 1.00037 0.92945 0.0
N869 N 0.50544 0.05539 0.98562 0.0
C870 C 0.49167 0.04827 0.97229 0.0
C871 C 0.49384 0.08196 0.99006 0.0
C872 C 0.47811 0.05756 0.96758 0.0
C873 C 0.50683 0.07211 0.9944 0.0
C874 C 0.47932 0.07461 0.97669 0.0
N875 N 0.50481 0.02331 0.96838 0.0
C876 C 0.50579 0.00759 0.95844 0.0
C877 C 0.47717 0.02359 0.94947 0.0
C878 C 0.49124 0.03157 0.96346 0.0
C879 C 0.47756 0.00698 0.94024 0.0
C880 C 0.4921 0.99909 0.94453 0.0
H881 H 0.46919 0.08222 0.97345 0.0
H882 H 0.45316 0.05638 0.95031 0.0
H883 H 0.45232 0.02657 0.93442 0.0
O884 O 0.54562 0.03684 0.97697 0.0
O885 O 0.49928 0.03101 0.00365 0.0
O886 O 0.50886 0.00957 0.01728 0.0
O887 O 0.54096 0.06179 0.98912 0.0
O888 O 0.53221 0.01117 0.98986 0.0
O889 O 0.52531 0.99457 0.01477 0.0
O890 O 0.50617 0.01187 0.05933 0.0
O891 O 0.55363 0.02285 0.03832 0.0
O892 O 0.53626 0.02954 0.01696 0.0
O893 O 0.51435 0.98727 0.05156 0.0
O894 O 0.52081 0.03812 0.04564 0.0
O895 O 0.52833 0.05464 0.0207 0.0
C896 C 0.49691 0.01932 0.01519 0.0
C897 C 0.55106 0.06001 0.95924 0.0
C898 C 0.55972 0.05488 0.92819 0.0
C899 C 0.5538 0.07011 0.92369 0.0
C900 C 0.54532 0.07533 0.95477 0.0
C901 C 0.5467 0.08032 0.93699 0.0
C902 C 0.55832 0.04999 0.94593 0.0
C903 C 0.53028 0.99628 0.99774 0.0
C904 C 0.54963 0.05386 0.97747 0.0
C905 C 0.46382 0.04953 0.95401 0.0
C906 C 0.46333 0.03256 0.94499 0.0
C907 C 0.55243 0.03053 0.02378 0.0
C908 C 0.50259 0.99078 0.08027 0.0
C909 C 0.49056 0.9962 0.10932 0.0
C910 C 0.49556 0.98102 0.11509 0.0
C911 C 0.50753 0.97547 0.08594 0.0
C912 C 0.49403 1.00103 0.09203 0.0
C913 C 0.50404 0.97066 0.10336 0.0
C914 C 0.52349 0.05299 0.03769 0.0
C915 C 0.50431 0.99526 0.06147 0.0
H916 H 0.55508 0.07434 0.9101 0.0
H917 H 0.53975 0.08338 0.96489 0.0
H918 H 0.54234 0.09216 0.93356 0.0
H919 H 0.56286 0.0382 0.94936 0.0
H920 H 0.49247 0.97698 0.12839 0.0
H921 H 0.51374 0.96705 0.07684 0.0
H922 H 0.48956 0.01253 0.08759 0.0
H923 H 0.50761 0.95875 0.10763 0.0
Tb924 Tb 0.26552 0.25031 0.25456 0.0
C925 C 0.32541 0.30942 0.2973 0.0
N926 N 0.31012 0.30045 0.30253 0.0
C927 C 0.32513 0.30021 0.33297 0.0
C928 C 0.34125 0.31402 0.30979 0.0
C929 C 0.30973 0.29592 0.32014 0.0
C930 C 0.34095 0.30932 0.3278 0.0
C931 C 0.34086 0.32323 0.27346 0.0
C932 C 0.32515 0.31409 0.27931 0.0
C933 C 0.35664 0.32784 0.28591 0.0
C934 C 0.35681 0.32334 0.30403 0.0
Tb935 Tb 0.28547 0.2982 0.28168 0.0
N936 N 0.3095 0.30989 0.2677 0.0
C937 C 0.34017 0.32779 0.25538 0.0
C938 C 0.30864 0.31512 0.2504 0.0
C939 C 0.32399 0.32375 0.24383 0.0
H940 H 0.29741 0.28989 0.32473 0.0
H941 H 0.3232 0.32775 0.23004 0.0
H942 H 0.25539 0.25755 0.21055 0.0
H943 H 0.22788 0.21235 0.30042 0.0
H944 H 0.29616 0.31356 0.24191 0.0
H945 H 0.35196 0.3348 0.25036 0.0
H946 H 0.25434 0.23073 0.29119 0.0
H947 H 0.32467 0.29682 0.34698 0.0
H948 H 0.36876 0.33504 0.28169 0.0
H949 H 0.36906 0.32714 0.3135 0.0
H950 H 0.22945 0.24949 0.18661 0.0
H951 H 0.3528 0.31281 0.33786 0.0
H952 H 0.20026 0.20341 0.2783 0.0
N953 N 0.24195 0.24538 0.2315 0.0
C954 C 0.22686 0.23475 0.23518 0.0
C955 C 0.22844 0.2455 0.20032 0.0
C956 C 0.21185 0.2293 0.22162 0.0
C957 C 0.24304 0.25046 0.21416 0.0
C958 C 0.21275 0.23494 0.20408 0.0
N959 N 0.24148 0.23413 0.26507 0.0
C960 C 0.2422 0.22787 0.28186 0.0
C961 C 0.21139 0.21761 0.25679 0.0
C962 C 0.22667 0.2288 0.25245 0.0
C963 C 0.21175 0.21195 0.2744 0.0
C964 C 0.22727 0.21705 0.28695 0.0
H965 H 0.20156 0.23094 0.19324 0.0
H966 H 0.18497 0.21376 0.21559 0.0
H967 H 0.1845 0.20369 0.24646 0.0
O968 O 0.2777 0.22893 0.26012 0.0
O969 O 0.24463 0.26249 0.26689 0.0
O970 O 0.25625 0.29127 0.28108 0.0
O971 O 0.26533 0.23091 0.23221 0.0
O972 O 0.27936 0.25305 0.28297 0.0
O973 O 0.27376 0.2786 0.29835 0.0
O974 O 0.28641 0.32512 0.2805 0.0
O975 O 0.30381 0.27962 0.27605 0.0
O976 O 0.29115 0.26469 0.24784 0.0
O977 O 0.28453 0.31441 0.3064 0.0
O978 O 0.26984 0.2975 0.25437 0.0
O979 O 0.27422 0.27169 0.23879 0.0
C980 C 0.24285 0.27774 0.27578 0.0
C981 C 0.27846 0.20549 0.23523 0.0
C982 C 0.28969 0.17933 0.24055 0.0
C983 C 0.28679 0.1734 0.22141 0.0
C984 C 0.27561 0.19967 0.21598 0.0
C985 C 0.27983 0.18366 0.20912 0.0
C986 C 0.28564 0.19532 0.24743 0.0
C987 C 0.2764 0.26242 0.29816 0.0
C988 C 0.2738 0.22198 0.2427 0.0
C989 C 0.1966 0.21812 0.22585 0.0
C990 C 0.19634 0.21234 0.24341 0.0
C991 C 0.3054 0.27098 0.25987 0.0
C992 C 0.27081 0.33863 0.30261 0.0
C993 C 0.25411 0.36098 0.29522 0.0
C994 C 0.24706 0.36057 0.31227 0.0
C995 C 0.26361 0.33815 0.31967 0.0
C996 C 0.26586 0.35003 0.29038 0.0
C997 C 0.2517 0.34904 0.3244 0.0
C998 C 0.26908 0.28681 0.23884 0.0
C999 C 0.28434 0.32825 0.29803 0.0
H1000 H 0.28999 0.16095 0.21605 0.0
H1001 H 0.27012 0.20745 0.20628 0.0
H1002 H 0.27765 0.17918 0.19432 0.0
H1003 H 0.28788 0.19966 0.26232 0.0
H1004 H 0.23799 0.36915 0.31613 0.0
H1005 H 0.26733 0.32955 0.32946 0.0
H1006 H 0.27147 0.3508 0.27728 0.0
H1007 H 0.24625 0.34869 0.33757 0.0
Tb1008 Tb 0.53537 0.49997 0.01618 0.0
C1009 C 0.50743 0.56304 0.05773 0.0
N1010 N 0.50005 0.55214 0.0419 0.0
C1011 C 0.47114 0.54936 0.05257 0.0
C1012 C 0.49695 0.5671 0.0719 0.0
C1013 C 0.48206 0.54573 0.0389 0.0
C1014 C 0.47862 0.55999 0.0692 0.0
C1015 C 0.5338 0.58112 0.07617 0.0
C1016 C 0.52562 0.5701 0.05976 0.0
C1017 C 0.52343 0.58509 0.09037 0.0
C1018 C 0.50505 0.57814 0.08823 0.0
Tb1019 Tb 0.51923 0.54775 0.02055 0.0
N1020 N 0.53532 0.5658 0.04581 0.0
C1021 C 0.55219 0.58777 0.07784 0.0
C1022 C 0.55319 0.57259 0.04724 0.0
C1023 C 0.56189 0.58353 0.06329 0.0
H1024 H 0.47594 0.53803 0.02586 0.0
H1025 H 0.57609 0.58877 0.06437 0.0
H1026 H 0.578 0.506 0.0077 0.0
H1027 H 0.47838 0.45187 0.98263 0.0
H1028 H 0.56087 0.56985 0.0361 0.0
H1029 H 0.55898 0.59627 0.09024 0.0
H1030 H 0.49569 0.47386 0.00802 0.0
H1031 H 0.45692 0.54411 0.0502 0.0
H1032 H 0.52948 0.59356 0.10307 0.0
H1033 H 0.49721 0.58139 0.09927 0.0
H1034 H 0.59486 0.49908 0.98171 0.0
H1035 H 0.47011 0.56282 0.07975 0.0
H1036 H 0.49216 0.44406 0.95422 0.0
N1037 N 0.55265 0.49392 0.99309 0.0
C1038 C 0.54414 0.48243 0.97812 0.0
C1039 C 0.58051 0.49468 0.98027 0.0
C1040 C 0.55335 0.47726 0.96321 0.0
C1041 C 0.57081 0.49917 0.99479 0.0
C1042 C 0.57168 0.48394 0.96423 0.0
N1043 N 0.51829 0.47964 0.9934 0.0
C1044 C 0.50153 0.47102 0.99542 0.0
C1045 C 0.51732 0.46194 0.96381 0.0
C1046 C 0.52645 0.47476 0.97844 0.0
C1047 C 0.49967 0.45394 0.96519 0.0
C1048 C 0.49182 0.45836 0.98117 0.0
H1049 H 0.57927 0.48021 0.95314 0.0
H1050 H 0.55098 0.46096 0.93658 0.0
H1051 H 0.51935 0.44764 0.93704 0.0
O1052 O 0.52804 0.48177 0.03586 0.0
O1053 O 0.51782 0.50551 0.99257 0.0
O1054 O 0.52666 0.53529 0.99485 0.0
O1055 O 0.55189 0.48244 0.02205 0.0
O1056 O 0.51152 0.50364 0.0294 0.0
O1057 O 0.4987 0.52364 0.01397 0.0
O1058 O 0.52416 0.57422 0.01427 0.0
O1059 O 0.52493 0.53537 0.04585 0.0
O1060 O 0.54755 0.52093 0.0387 0.0
O1061 O 0.49886 0.55616 0.00455 0.0
O1062 O 0.5452 0.54801 0.01055 0.0
O1063 O 0.55726 0.52355 0.01773 0.0
C1064 C 0.51825 0.52034 0.9854 0.0
C1065 C 0.54776 0.46047 0.04298 0.0
C1066 C 0.54301 0.43561 0.06127 0.0
C1067 C 0.56033 0.43302 0.05889 0.0
C1068 C 0.56508 0.45739 0.04107 0.0
C1069 C 0.57122 0.4438 0.04889 0.0
C1070 C 0.53658 0.4494 0.05319 0.0
C1071 C 0.49752 0.50937 0.02237 0.0
C1072 C 0.54203 0.47488 0.03347 0.0
C1073 C 0.54416 0.46499 0.94821 0.0
C1074 C 0.52617 0.45736 0.94851 0.0
C1075 C 0.53892 0.52861 0.05089 0.0
C1076 C 0.50138 0.58576 0.99567 0.0
C1077 C 0.50491 0.61253 0.98015 0.0
C1078 C 0.48636 0.6115 0.9791 0.0
C1079 C 0.48289 0.58513 0.99415 0.0
C1080 C 0.51249 0.59954 0.98851 0.0
C1081 C 0.47548 0.59791 0.98598 0.0
C1082 C 0.55865 0.53967 0.01274 0.0
C1083 C 0.50846 0.57187 0.00481 0.0
H1084 H 0.56545 0.42249 0.06482 0.0
H1085 H 0.57401 0.46548 0.03337 0.0
H1086 H 0.58454 0.4416 0.04717 0.0
H1087 H 0.52318 0.45143 0.05479 0.0
H1088 H 0.48022 0.62123 0.97275 0.0
H1089 H 0.47409 0.57479 -0.00051 0.0
H1090 H 0.52679 0.60018 0.98945 0.0
H1091 H 0.4612 0.59729 0.98499 0.0
Tb1092 Tb 0.78042 0.30131 0.25469 0.0
C1093 C 0.74413 0.23074 0.29397 0.0
N1094 N 0.75948 0.24272 0.29931 0.0
C1095 C 0.75539 0.24102 0.3314 0.0
C1096 C 0.73332 0.22394 0.30712 0.0
C1097 C 0.76569 0.24726 0.31776 0.0
C1098 C 0.73896 0.22955 0.32605 0.0
C1099 C 0.72471 0.21119 0.26908 0.0
C1100 C 0.73992 0.22444 0.27531 0.0
C1101 C 0.71332 0.205 0.28195 0.0
C1102 C 0.71762 0.21138 0.30096 0.0
Tb1103 Tb 0.77444 0.25312 0.27585 0.0
N1104 N 0.75118 0.23089 0.26334 0.0
C1105 C 0.72166 0.20438 0.25017 0.0
C1106 C 0.74891 0.22352 0.24515 0.0
C1107 C 0.73399 0.21038 0.23821 0.0
H1108 H 0.77843 0.25609 0.32195 0.0
H1109 H 0.73209 0.2048 0.22369 0.0
H1110 H 0.7831 0.28792 0.20935 0.0
H1111 H 0.82713 0.34309 0.30863 0.0
H1112 H 0.75867 0.22766 0.23608 0.0
H1113 H 0.71013 0.19417 0.24478 0.0
H1114 H 0.79904 0.32233 0.29616 0.0
H1115 H 0.76012 0.24507 0.34601 0.0
H1116 H 0.70142 0.195 0.27743 0.0
H1117 H 0.70898 0.20617 0.31082 0.0
H1118 H 0.80517 0.29358 0.18746 0.0
H1119 H 0.73103 0.22469 0.33663 0.0
H1120 H 0.85002 0.35158 0.28778 0.0
N1121 N 0.79976 0.3037 0.23267 0.0
C1122 C 0.81533 0.31546 0.23842 0.0
C1123 C 0.80828 0.29964 0.20181 0.0
C1124 C 0.82811 0.31952 0.22605 0.0
C1125 C 0.79591 0.29613 0.21449 0.0
C1126 C 0.82446 0.31134 0.2076 0.0
N1127 N 0.80629 0.31874 0.2687 0.0
C1128 C 0.80903 0.32577 0.28701 0.0
C1129 C 0.83472 0.3353 0.26341 0.0
C1130 C 0.81858 0.32342 0.2569 0.0
C1131 C 0.83776 0.34242 0.28224 0.0
C1132 C 0.82489 0.3376 0.29408 0.0
H1133 H 0.83393 0.31414 0.19767 0.0
H1134 H 0.85399 0.33496 0.22308 0.0
H1135 H 0.85981 0.34866 0.25575 0.0
O1136 O 0.77261 0.32542 0.26289 0.0
O1137 O 0.80442 0.29057 0.26373 0.0
O1138 O 0.79572 0.27554 0.28765 0.0
O1139 O 0.77444 0.31688 0.23419 0.0
O1140 O 0.77174 0.30067 0.28196 0.0
O1141 O 0.76931 0.27429 0.29547 0.0
O1142 O 0.78673 0.23285 0.26409 0.0
O1143 O 0.74875 0.25806 0.26279 0.0
O1144 O 0.75254 0.28679 0.25417 0.0
O1145 O 0.79303 0.24369 0.29293 0.0
O1146 O 0.78425 0.26164 0.25073 0.0
O1147 O 0.76893 0.27854 0.23505 0.0
C1148 C 0.80838 0.2827 0.27834 0.0
C1149 C 0.75325 0.33471 0.24015 0.0
C1150 C 0.73509 0.35728 0.243 0.0
C1151 C 0.724 0.34875 0.2269 0.0
C1152 C 0.74177 0.32616 0.22422 0.0
C1153 C 0.72725 0.33319 0.21768 0.0
C1154 C 0.74967 0.35018 0.24969 0.0
C1155 C 0.76779 0.29091 0.29522 0.0
C1156 C 0.76988 0.32868 0.24582 0.0
C1157 C 0.84407 0.33162 0.23242 0.0
C1158 C 0.84736 0.33948 0.25103 0.0
C1159 C 0.74247 0.27159 0.25686 0.0
C1160 C 0.79544 0.21409 0.28576 0.0
C1161 C 0.8095 0.1884 0.28648 0.0
C1162 C 0.79942 0.18309 0.30071 0.0
C1163 C 0.7852 0.20826 0.29972 0.0
C1164 C 0.8074 0.20389 0.27891 0.0
C1165 C 0.78723 0.19289 0.30714 0.0
C1166 C 0.77383 0.26354 0.23619 0.0
C1167 C 0.79545 0.23173 0.28005 0.0
H1168 H 0.71278 0.35414 0.22151 0.0
H1169 H 0.74417 0.31424 0.21657 0.0
H1170 H 0.71861 0.32667 0.20528 0.0
H1171 H 0.7585 0.35699 0.26188 0.0
H1172 H 0.80088 0.17123 0.30674 0.0
H1173 H 0.77598 0.21579 0.30532 0.0
H1174 H 0.8155 0.20831 0.26827 0.0
H1175 H 0.77948 0.18868 0.31809 0.0
Tb1176 Tb 0.0244 0.53682 0.49328 0.0
C1177 C 0.05923 0.49918 0.56573 0.0
N1178 N 0.04572 0.49244 0.55192 0.0
C1179 C 0.05452 0.46431 0.55051 0.0
C1180 C 0.07136 0.48889 0.57201 0.0
C1181 C 0.04301 0.47512 0.54458 0.0
C1182 C 0.06889 0.47127 0.56415 0.0
C1183 C 0.07518 0.52425 0.58739 0.0
C1184 C 0.06096 0.5165 0.57348 0.0
C1185 C 0.08748 0.51417 0.59351 0.0
C1186 C 0.08553 0.4965 0.58589 0.0
Tb1187 Tb 0.02777 0.51119 0.54282 0.0
N1188 N 0.04915 0.52598 0.56664 0.0
C1189 C 0.07675 0.54195 0.59455 0.0
C1190 C 0.0504 0.54316 0.57409 0.0
C1191 C 0.06422 0.55139 0.58795 0.0
H1192 H 0.03154 0.46944 0.53471 0.0
H1193 H 0.06523 0.56507 0.5935 0.0
H1194 H 0.02309 0.57911 0.49966 0.0
H1195 H 0.98171 0.48184 0.44795 0.0
H1196 H 0.04104 0.55081 0.56943 0.0
H1197 H 0.08754 0.54842 0.60517 0.0
H1198 H 0.00738 0.49592 0.47015 0.0
H1199 H 0.0522 0.45058 0.54465 0.0
H1200 H 0.09854 0.51992 0.6041 0.0
H1201 H 0.09507 0.48885 0.59078 0.0
H1202 H 0.00306 0.59861 0.48982 0.0
H1203 H 0.07785 0.4629 0.56866 0.0
H1204 H 0.96019 0.49924 0.43616 0.0
N1205 N 0.00736 0.55603 0.48373 0.0
C1206 C 0.99286 0.54923 0.47118 0.0
C1207 C 0.99995 0.58472 0.48454 0.0
C1208 C 0.98097 0.55986 0.46513 0.0
C1209 C 0.01122 0.57358 0.49022 0.0
C1210 C 0.98466 0.5778 0.47204 0.0
N1211 N 0.00155 0.52181 0.47112 0.0
C1212 C 0.99867 0.5041 0.46517 0.0
C1213 C 0.97461 0.52376 0.45192 0.0
C1214 C 0.98984 0.53152 0.4646 0.0
C1215 C 0.97174 0.50571 0.44584 0.0
C1216 C 0.98386 0.49586 0.45247 0.0
H1217 H 0.97587 0.58642 0.46775 0.0
H1218 H 0.95644 0.56015 0.4478 0.0
H1219 H 0.9508 0.52846 0.43628 0.0
O1220 O 0.04136 0.53477 0.4728 0.0
O1221 O 0.99885 0.52888 0.5034 0.0
O1222 O 0.01028 0.5084 0.51691 0.0
O1223 O 0.04373 0.55922 0.49097 0.0
O1224 O 0.03269 0.51067 0.4896 0.0
O1225 O 0.02942 0.49467 0.51571 0.0
O1226 O 0.00971 0.51425 0.5624 0.0
O1227 O 0.05437 0.52394 0.53873 0.0
O1228 O 0.03661 0.52931 0.51688 0.0
O1229 O 0.01231 0.48853 0.55014 0.0
O1230 O 0.01907 0.53742 0.54456 0.0
O1231 O 0.02699 0.55424 0.5201 0.0
C1232 C 0.99721 0.51668 0.51443 0.0
C1233 C 0.05234 0.56085 0.46057 0.0
C1234 C 0.06324 0.56051 0.43031 0.0
C1235 C 0.06371 0.57874 0.43119 0.0
C1236 C 0.05295 0.57906 0.46146 0.0
C1237 C 0.05838 0.5879 0.44664 0.0
C1238 C 0.057 0.55169 0.44479 0.0
C1239 C 0.03283 0.4962 0.49805 0.0
C1240 C 0.04921 0.5513 0.47658 0.0
C1241 C 0.9658 0.55224 0.45251 0.0
C1242 C 0.96261 0.53421 0.44593 0.0
C1243 C 0.05285 0.53126 0.52398 0.0
C1244 C 0.0061 0.49135 0.58114 0.0
C1245 C 0.99502 0.49175 0.61113 0.0
C1246 C 0.00465 0.47882 0.61567 0.0
C1247 C 0.0159 0.47849 0.58577 0.0
C1248 C 0.99587 0.49805 0.59396 0.0
C1249 C 0.01519 0.47232 0.60304 0.0
C1250 C 0.02182 0.5525 0.53696 0.0
C1251 C 0.00547 0.49733 0.56279 0.0
H1252 H 0.06875 0.58603 0.42033 0.0
H1253 H 0.04963 0.5865 0.47367 0.0
H1254 H 0.05903 0.60197 0.44738 0.0
H1255 H 0.05642 0.5376 0.44411 0.0
H1256 H 0.00397 0.47378 0.62894 0.0
H1257 H 0.02388 0.473 0.57606 0.0
H1258 H 0.98807 0.50777 0.59035 0.0
H1259 H 0.02263 0.46234 0.60652 0.0
Tb1260 Tb 0.80049 0.76556 0.27208 0.0
C1261 C 0.73395 0.79211 0.23415 0.0
N1262 N 0.74471 0.79908 0.25017 0.0
C1263 C 0.74824 0.82777 0.24018 0.0
C1264 C 0.73045 0.80261 0.22015 0.0
C1265 C 0.75121 0.81682 0.25369 0.0
C1266 C 0.73804 0.8206 0.22322 0.0
C1267 C 0.71453 0.76669 0.21579 0.0
C1268 C 0.72622 0.77439 0.23194 0.0
C1269 C 0.71137 0.77696 0.20156 0.0
C1270 C 0.71937 0.79487 0.20371 0.0
Tb1271 Tb 0.75037 0.77946 0.27016 0.0
N1272 N 0.72996 0.7648 0.24581 0.0
C1273 C 0.70617 0.749 0.21459 0.0
C1274 C 0.72106 0.74781 0.24512 0.0
C1275 C 0.70921 0.73961 0.22947 0.0
H1276 H 0.75869 0.8227 0.26691 0.0
H1277 H 0.70233 0.7261 0.22897 0.0
H1278 H 0.7929 0.72303 0.2807 0.0
H1279 H 0.85005 0.82074 0.30618 0.0
H1280 H 0.72263 0.74058 0.25676 0.0
H1281 H 0.697 0.74261 0.20248 0.0
H1282 H 0.82838 0.80356 0.28018 0.0
H1283 H 0.75377 0.84175 0.24289 0.0
H1284 H 0.70258 0.77124 0.18897 0.0
H1285 H 0.71665 0.80269 0.19273 0.0
H1286 H 0.79851 0.70705 0.30707 0.0
H1287 H 0.73575 0.82911 0.21279 0.0
H1288 H 0.85561 0.8078 0.33529 0.0
N1289 N 0.80526 0.74841 0.29529 0.0
C1290 C 0.81637 0.75688 0.31062 0.0
C1291 C 0.80328 0.72116 0.30844 0.0
C1292 C 0.82054 0.74802 0.32587 0.0
C1293 C 0.7997 0.73048 0.29361 0.0
C1294 C 0.81342 0.73002 0.3248 0.0
N1295 N 0.82095 0.78198 0.2951 0.0
C1296 C 0.83048 0.79812 0.29304 0.0
C1297 C 0.83711 0.78324 0.32544 0.0
C1298 C 0.82473 0.77417 0.3104 0.0
C1299 C 0.84598 0.80037 0.32404 0.0
C1300 C 0.84285 0.80773 0.30764 0.0
H1301 H 0.81637 0.72271 0.33616 0.0
H1302 H 0.83552 0.75062 0.35319 0.0
H1303 H 0.84993 0.78155 0.35288 0.0
O1304 O 0.81903 0.7725 0.25225 0.0
O1305 O 0.7949 0.78309 0.29565 0.0
O1306 O 0.76568 0.77128 0.29334 0.0
O1307 O 0.81858 0.74945 0.2665 0.0
O1308 O 0.79623 0.78954 0.26018 0.0
O1309 O 0.77449 0.8005 0.27583 0.0
O1310 O 0.7258 0.77236 0.28063 0.0
O1311 O 0.7621 0.77491 0.24377 0.0
O1312 O 0.77957 0.75427 0.24919 0.0
O1313 O 0.74172 0.7983 0.28861 0.0
O1314 O 0.75039 0.75236 0.27557 0.0
O1315 O 0.77725 0.74336 0.26956 0.0
C1316 C 0.77985 0.78123 0.30292 0.0
C1317 C 0.84083 0.75311 0.24531 0.0
C1318 C 0.86518 0.75726 0.22569 0.0
C1319 C 0.86851 0.74059 0.22868 0.0
C1320 C 0.84463 0.73646 0.24795 0.0
C1321 C 0.85834 0.73032 0.23974 0.0
C1322 C 0.85131 0.76366 0.23414 0.0
C1323 C 0.78885 0.8026 0.26694 0.0
C1324 C 0.82609 0.75884 0.25477 0.0
C1325 C 0.8323 0.75718 0.34129 0.0
C1326 C 0.84056 0.77478 0.34109 0.0
C1327 C 0.77098 0.76275 0.2379 0.0
C1328 C 0.71033 0.79421 0.29185 0.0
C1329 C 0.68232 0.7939 0.30587 0.0
C1330 C 0.67913 0.80766 0.29581 0.0
C1331 C 0.70667 0.80779 0.28188 0.0
C1332 C 0.69796 0.78709 0.30365 0.0
C1333 C 0.69112 0.81442 0.28385 0.0
C1334 C 0.76043 0.74039 0.27333 0.0
C1335 C 0.72708 0.78748 0.29062 0.0
H1336 H 0.87919 0.73555 0.2225 0.0
H1337 H 0.83699 0.72804 0.25644 0.0
H1338 H 0.86112 0.71752 0.242 0.0
H1339 H 0.84872 0.77656 0.23201 0.0
H1340 H 0.66723 0.81313 0.29711 0.0
H1341 H 0.71586 0.81333 0.27268 0.0
H1342 H 0.70075 0.77662 0.31145 0.0
H1343 H 0.6884 0.82496 0.27617 0.0
Tb1344 Tb 0.75782 0.27345 0.79299 0.0
C1345 C 0.80004 0.24079 0.72256 0.0
N1346 N 0.80627 0.25338 0.73736 0.0
C1347 C 0.83357 0.24251 0.74119 0.0
C1348 C 0.81016 0.2282 0.71682 0.0
C1349 C 0.82296 0.25457 0.74651 0.0
C1350 C 0.8271 0.22917 0.72638 0.0
C1351 C 0.77621 0.22733 0.69806 0.0
C1352 C 0.78332 0.24042 0.71326 0.0
C1353 C 0.7861 0.21458 0.69249 0.0
C1354 C 0.80306 0.21504 0.70181 0.0
Tb1355 Tb 0.78742 0.27185 0.74539 0.0
N1356 N 0.77391 0.25271 0.7194 0.0
C1357 C 0.75936 0.22745 0.6889 0.0
C1358 C 0.75791 0.25343 0.70973 0.0
C1359 C 0.7503 0.2407 0.69461 0.0
H1360 H 0.82835 0.26499 0.75778 0.0
H1361 H 0.73748 0.24121 0.68728 0.0
H1362 H 0.71903 0.28256 0.77809 0.0
H1363 H 0.80329 0.30074 0.85569 0.0
H1364 H 0.75089 0.26384 0.71314 0.0
H1365 H 0.7534 0.21758 0.67721 0.0
H1366 H 0.78843 0.27721 0.83088 0.0
H1367 H 0.84676 0.24352 0.74852 0.0
H1368 H 0.7808 0.20435 0.68093 0.0
H1369 H 0.81058 0.20517 0.69731 0.0
H1370 H 0.70259 0.3067 0.78379 0.0
H1371 H 0.83531 0.21978 0.72237 0.0
H1372 H 0.79223 0.32866 0.86021 0.0
N1373 N 0.74074 0.2941 0.79881 0.0
C1374 C 0.74757 0.30761 0.81246 0.0
C1375 C 0.71531 0.30718 0.79188 0.0
C1376 C 0.73888 0.32186 0.81599 0.0
C1377 C 0.72467 0.29352 0.78868 0.0
C1378 C 0.72254 0.32153 0.80545 0.0
N1379 N 0.77049 0.29238 0.8195 0.0
C1380 C 0.78395 0.28959 0.83189 0.0
C1381 C 0.77082 0.32045 0.83756 0.0
C1382 C 0.76324 0.30689 0.82298 0.0
C1383 C 0.7859 0.3185 0.84893 0.0
C1384 C 0.7922 0.30279 0.84637 0.0
H1385 H 0.71533 0.33216 0.8078 0.0
H1386 H 0.74039 0.34703 0.83274 0.0
H1387 H 0.76848 0.34584 0.85164 0.0
O1388 O 0.75728 0.25255 0.80875 0.0
O1389 O 0.76455 0.29811 0.7821 0.0
O1390 O 0.78855 0.29032 0.77053 0.0
O1391 O 0.73282 0.25861 0.79655 0.0
O1392 O 0.786 0.26952 0.79874 0.0
O1393 O 0.80283 0.27045 0.77278 0.0
O1394 O 0.78649 0.29116 0.72766 0.0
O1395 O 0.77569 0.24502 0.74925 0.0
O1396 O 0.76794 0.26229 0.77019 0.0
O1397 O 0.81166 0.28589 0.73902 0.0
O1398 O 0.76033 0.27931 0.7426 0.0
O1399 O 0.74215 0.26802 0.76485 0.0
C1400 C 0.77802 0.3016 0.77255 0.0
C1401 C 0.733 0.24805 0.82585 0.0
C1402 C 0.7347 0.23628 0.85522 0.0
C1403 C 0.72125 0.24496 0.86084 0.0
C1404 C 0.71966 0.25698 0.83152 0.0
C1405 C 0.71378 0.25535 0.84899 0.0
C1406 C 0.74038 0.23771 0.83776 0.0
C1407 C 0.8009 0.26883 0.79065 0.0
C1408 C 0.73997 0.24942 0.80792 0.0
C1409 C 0.74672 0.33582 0.82995 0.0
C1410 C 0.76273 0.33516 0.84067 0.0
C1411 C 0.76734 0.24623 0.76355 0.0
C1412 C 0.80988 0.29465 0.709 0.0
C1413 C 0.80807 0.30616 0.67958 0.0
C1414 C 0.82219 0.29829 0.67437 0.0
C1415 C 0.82394 0.28652 0.70378 0.0
C1416 C 0.80193 0.3043 0.69674 0.0
C1417 C 0.83002 0.28835 0.68645 0.0
C1418 C 0.74454 0.27482 0.74899 0.0
C1419 C 0.80372 0.29424 0.72738 0.0
H1420 H 0.71676 0.2439 0.87442 0.0
H1421 H 0.71386 0.26522 0.82259 0.0
H1422 H 0.70352 0.26221 0.85338 0.0
H1423 H 0.75071 0.2308 0.83349 0.0
H1424 H 0.82715 0.29991 0.66109 0.0
H1425 H 0.83034 0.27899 0.71309 0.0
H1426 H 0.79125 0.31082 0.70075 0.0
H1427 H 0.84094 0.28226 0.68248 0.0
Tb1428 Tb 0.76238 0.74643 0.75354 0.0
C1429 C 0.82175 0.80945 0.79767 0.0
N1430 N 0.80686 0.79895 0.80203 0.0
C1431 C 0.82194 0.79822 0.8324 0.0
C1432 C 0.83745 0.81437 0.81038 0.0
C1433 C 0.80665 0.79381 0.81941 0.0
C1434 C 0.83745 0.80842 0.82783 0.0
C1435 C 0.83594 0.82731 0.77582 0.0
C1436 C 0.82098 0.81604 0.78071 0.0
C1437 C 0.85171 0.83186 0.78826 0.0
C1438 C 0.85244 0.82547 0.80552 0.0
Tb1439 Tb 0.78218 0.79504 0.78037 0.0
N1440 N 0.80546 0.81148 0.76905 0.0
C1441 C 0.83448 0.83384 0.75868 0.0
C1442 C 0.80364 0.8187 0.7529 0.0
C1443 C 0.81821 0.8296 0.74722 0.0
H1444 H 0.79453 0.78717 0.82383 0.0
H1445 H 0.81675 0.83505 0.73423 0.0
H1446 H 0.75074 0.75659 0.71073 0.0
H1447 H 0.72449 0.71249 0.80222 0.0
H1448 H 0.79087 0.81658 0.74468 0.0
H1449 H 0.84568 0.84247 0.75437 0.0
H1450 H 0.75112 0.7299 0.79237 0.0
H1451 H 0.82159 0.79412 0.84612 0.0
H1452 H 0.86333 0.84053 0.78477 0.0
H1453 H 0.86459 0.82939 0.81513 0.0
H1454 H 0.72399 0.74949 0.68795 0.0
H1455 H 0.84918 0.81203 0.83804 0.0
H1456 H 0.6967 0.70357 0.7804 0.0
N1457 N 0.73812 0.74399 0.73196 0.0
C1458 C 0.72307 0.73365 0.7362 0.0
C1459 C 0.72348 0.74518 0.70157 0.0
C1460 C 0.70758 0.7288 0.72322 0.0
C1461 C 0.73858 0.74958 0.7148 0.0
C1462 C 0.70792 0.73476 0.70578 0.0
N1463 N 0.73834 0.73274 0.766 0.0
C1464 C 0.73896 0.72714 0.78313 0.0
C1465 C 0.70782 0.71706 0.75842 0.0
C1466 C 0.72323 0.72775 0.75364 0.0
C1467 C 0.70829 0.71171 0.77617 0.0
C1468 C 0.72391 0.71682 0.78858 0.0
H1469 H 0.69632 0.7312 0.69538 0.0
H1470 H 0.68034 0.71406 0.71805 0.0
H1471 H 0.68051 0.70393 0.74888 0.0
O1472 O 0.76408 0.72 0.75545 0.0
O1473 O 0.74267 0.76302 0.7615 0.0
O1474 O 0.75643 0.78184 0.78768 0.0
O1475 O 0.76271 0.72984 0.72898 0.0
O1476 O 0.77751 0.74787 0.78106 0.0
O1477 O 0.77405 0.7741 0.79708 0.0
O1478 O 0.77059 0.81702 0.7757 0.0
O1479 O 0.80219 0.78327 0.766 0.0
O1480 O 0.79174 0.75342 0.7552 0.0
O1481 O 0.78382 0.81452 0.80304 0.0
O1482 O 0.7669 0.79111 0.75257 0.0
O1483 O 0.77355 0.76633 0.73687 0.0
C1484 C 0.74198 0.77409 0.77648 0.0
C1485 C 0.77888 0.70716 0.73191 0.0
C1486 C 0.79723 0.68542 0.73704 0.0
C1487 C 0.80306 0.68674 0.71947 0.0
C1488 C 0.78491 0.70844 0.71434 0.0
C1489 C 0.79701 0.69834 0.70824 0.0
C1490 C 0.78525 0.69569 0.74328 0.0
C1491 C 0.77745 0.75815 0.79665 0.0
C1492 C 0.76491 0.71656 0.73766 0.0
C1493 C 0.69232 0.718 0.72791 0.0
C1494 C 0.69243 0.71218 0.74546 0.0
C1495 C 0.80456 0.76765 0.75878 0.0
C1496 C 0.77186 0.84078 0.80096 0.0
C1497 C 0.75881 0.86634 0.79695 0.0
C1498 C 0.76534 0.87347 0.81547 0.0
C1499 C 0.77836 0.84792 0.81946 0.0
C1500 C 0.76199 0.84993 0.78989 0.0
C1501 C 0.77504 0.86422 0.82667 0.0
C1502 C 0.77097 0.78256 0.73746 0.0
C1503 C 0.77548 0.82392 0.79303 0.0
H1504 H 0.81225 0.67877 0.71445 0.0
H1505 H 0.78006 0.71701 0.70515 0.0
H1506 H 0.80149 0.69931 0.69467 0.0
H1507 H 0.78044 0.69424 0.75668 0.0
H1508 H 0.76322 0.88627 0.82117 0.0
H1509 H 0.78607 0.841 0.82829 0.0
H1510 H 0.7567 0.84423 0.77572 0.0
H1511 H 0.78011 0.86975 0.8409 0.0
Tb1512 Tb 0.5512 0.5333 0.53364 0.0
C1513 C 0.48556 0.4778 0.48775 0.0
N1514 N 0.49688 0.49221 0.48401 0.0
C1515 C 0.4994 0.47716 0.45402 0.0
C1516 C 0.48122 0.4622 0.475 0.0
C1517 C 0.50345 0.49224 0.46719 0.0
C1518 C 0.48845 0.46198 0.45804 0.0
C1519 C 0.46528 0.46454 0.50813 0.0
C1520 C 0.47763 0.479 0.50405 0.0
C1521 C 0.46162 0.44867 0.49595 0.0
C1522 C 0.4695 0.44754 0.47937 0.0
Tb1523 Tb 0.50292 0.51574 0.50694 0.0
N1524 N 0.48122 0.49465 0.51531 0.0
C1525 C 0.45653 0.46666 0.52401 0.0
C1526 C 0.47148 0.49723 0.52983 0.0
C1527 C 0.45941 0.48317 0.53471 0.0
H1528 H 0.51136 0.50398 0.46357 0.0
H1529 H 0.45224 0.48512 0.54664 0.0
H1530 H 0.5478 0.54351 0.57908 0.0
H1531 H 0.59172 0.568 0.48742 0.0
H1532 H 0.47322 0.51006 0.53794 0.0
H1533 H 0.44706 0.45584 0.52772 0.0
H1534 H 0.5734 0.54219 0.49769 0.0
H1535 H 0.50463 0.47731 0.44072 0.0
H1536 H 0.4523 0.43737 0.49895 0.0
H1537 H 0.46615 0.43538 0.46984 0.0
H1538 H 0.55671 0.56957 0.60276 0.0
H1539 H 0.4853 0.45032 0.44779 0.0
H1540 H 0.59929 0.59637 0.50817 0.0
N1541 N 0.55813 0.55669 0.55704 0.0
C1542 C 0.56821 0.57159 0.55262 0.0
C1543 C 0.5598 0.57042 0.58864 0.0
C1544 C 0.57384 0.58675 0.56587 0.0
C1545 C 0.55456 0.55572 0.57506 0.0
C1546 C 0.56927 0.58609 0.58397 0.0
N1547 N 0.5692 0.55607 0.52318 0.0
C1548 C 0.57607 0.55459 0.50654 0.0
C1549 C 0.58484 0.58625 0.53012 0.0
C1550 C 0.57389 0.57129 0.53511 0.0
C1551 C 0.59091 0.58514 0.51256 0.0
C1552 C 0.58666 0.56916 0.5008 0.0
H1553 H 0.57346 0.59742 0.59457 0.0
H1554 H 0.58872 0.61366 0.57078 0.0
H1555 H 0.59814 0.6133 0.53937 0.0
O1556 O 0.5761 0.52643 0.5306 0.0
O1557 O 0.54162 0.55172 0.51584 0.0
O1558 O 0.51205 0.54399 0.51859 0.0
O1559 O 0.56501 0.5263 0.5572 0.0
O1560 O 0.54864 0.51775 0.50594 0.0
O1561 O 0.52421 0.5254 0.4908 0.0
O1562 O 0.48337 0.53058 0.51069 0.0
O1563 O 0.51882 0.49483 0.51054 0.0
O1564 O 0.53735 0.50656 0.53763 0.0
O1565 O 0.48732 0.51987 0.48296 0.0
O1566 O 0.50547 0.51444 0.53693 0.0
O1567 O 0.52853 0.53748 0.54892 0.0
C1568 C 0.52549 0.55528 0.51411 0.0
C1569 C 0.59402 0.51847 0.55643 0.0
C1570 C 0.62264 0.51053 0.5526 0.0
C1571 C 0.62326 0.50505 0.5704 0.0
C1572 C 0.59466 0.51304 0.57421 0.0
C1573 C 0.60937 0.50649 0.58122 0.0
C1574 C 0.60823 0.51769 0.54602 0.0
C1575 C 0.53977 0.52079 0.49063 0.0
C1576 C 0.57823 0.52394 0.54802 0.0
C1577 C 0.58437 0.60186 0.56083 0.0
C1578 C 0.58977 0.60165 0.54296 0.0
C1579 C 0.5292 0.49292 0.5255 0.0
C1580 C 0.45886 0.52672 0.48758 0.0
C1581 C 0.43151 0.53594 0.49433 0.0
C1582 C 0.42332 0.52848 0.47649 0.0
C1583 C 0.45078 0.51932 0.4696 0.0
C1584 C 0.44905 0.53491 0.49987 0.0
C1585 C 0.43297 0.52011 0.46415 0.0
C1586 C 0.51398 0.52618 0.55073 0.0
C1587 C 0.47807 0.52895 0.4929 0.0
H1588 H 0.63414 0.49917 0.57571 0.0
H1589 H 0.58371 0.51353 0.58249 0.0
H1590 H 0.60977 0.5021 0.59483 0.0
H1591 H 0.60783 0.52222 0.53244 0.0
H1592 H 0.40973 0.52957 0.472 0.0
H1593 H 0.45831 0.51344 0.45963 0.0
H1594 H 0.45527 0.5413 0.51355 0.0
H1595 H 0.42682 0.51467 0.45021 0.0
Tb1596 Tb 0.00095 0.52074 0.0316 0.0
C1597 C 0.06637 0.55839 0.99237 0.0
N1598 N 0.05356 0.54363 0.98686 0.0
C1599 C 0.04963 0.55231 0.95626 0.0
C1600 C 0.0708 0.57102 0.98023 0.0
C1601 C 0.04583 0.54008 0.96874 0.0
C1602 C 0.06197 0.56797 0.9621 0.0
C1603 C 0.08947 0.57522 0.01613 0.0
C1604 C 0.07567 0.5605 0.01006 0.0
C1605 C 0.09352 0.5881 0.00428 0.0
C1606 C 0.08419 0.58601 0.98638 0.0
Tb1607 Tb 0.04903 0.52488 0.00894 0.0
N1608 N 0.07108 0.54803 0.02136 0.0
C1609 C 0.09888 0.57642 0.03386 0.0
C1610 C 0.08084 0.54855 0.03815 0.0
C1611 C 0.09468 0.56291 0.04482 0.0
H1612 H 0.03711 0.52765 0.96352 0.0
H1613 H 0.10221 0.56344 0.0583 0.0
H1614 H 0.01243 0.51872 0.07714 0.0
H1615 H 0.95673 0.47612 0.97754 0.0
H1616 H 0.07813 0.53775 0.0462 0.0
H1617 H 0.1096 0.58752 0.03904 0.0
H1618 H 0.97783 0.50353 0.99044 0.0
H1619 H 0.04327 0.5495 0.94203 0.0
H1620 H 0.10399 0.5996 0.00873 0.0
H1621 H 0.08768 0.5959 0.97728 0.0
H1622 H 0.00472 0.49757 0.09908 0.0
H1623 H 0.065 0.57733 0.95233 0.0
H1624 H 0.9479 0.4534 0.99795 0.0
N1625 N 0.99668 0.50232 0.05365 0.0
C1626 C 0.98452 0.48716 0.04762 0.0
C1627 C 0.99912 0.4944 0.08461 0.0
C1628 C 0.9795 0.47486 0.05993 0.0
C1629 C 0.00371 0.50626 0.07196 0.0
C1630 C 0.98703 0.47862 0.07858 0.0
N1631 N 0.98221 0.49589 0.01726 0.0
C1632 C 0.97479 0.49346 -0.00084 0.0
C1633 C 0.96463 0.46818 0.02234 0.0
C1634 C 0.97703 0.48387 0.02896 0.0
C1635 C 0.95749 0.4653 0.00356 0.0
C1636 C 0.96252 0.47804 0.99196 0.0
H1637 H 0.98343 0.46953 0.08847 0.0
H1638 H 0.96304 0.4497 0.06263 0.0
H1639 H 0.95013 0.44382 0.02978 0.0
O1640 O 0.9761 0.5278 0.0233 0.0
O1641 O 0.01165 0.49625 0.02413 0.0
O1642 O 0.02897 0.50048 -0.00013 0.0
O1643 O 0.98759 0.53107 0.05258 0.0
O1644 O 0.00735 0.533 0.00727 0.0
O1645 O 0.02459 0.51852 0.98984 0.0
O1646 O 0.06845 0.50993 0.01791 0.0
O1647 O 0.04437 0.55048 0.02296 0.0
O1648 O 0.01549 0.548 0.03203 0.0
O1649 O 0.06496 0.51663 0.98962 0.0
O1650 O 0.04263 0.51598 0.03519 0.0
O1651 O 0.0243 0.53035 0.05118 0.0
C1652 C 0.01966 0.49007 0.01014 0.0
C1653 C 0.95918 0.53987 0.04696 0.0
C1654 C 0.93687 0.55826 0.04341 0.0
C1655 C 0.93271 0.55593 0.06148 0.0
C1656 C 0.95473 0.53765 0.06494 0.0
C1657 C 0.9415 0.54556 0.07209 0.0
C1658 C 0.94995 0.54994 0.036 0.0
C1659 C 0.01029 0.52521 0.99154 0.0
C1660 C 0.97455 0.53302 0.04066 0.0
C1661 C 0.96706 0.45927 0.05334 0.0
C1662 C 0.95969 0.45593 0.03461 0.0
C1663 C 0.03117 0.55734 0.02947 0.0
C1664 C 0.08741 0.49933 0.99504 0.0
C1665 C 0.11275 0.48498 0.0009 0.0
C1666 C 0.1137 0.48215 0.98166 0.0
C1667 C 0.08865 0.49625 0.9758 0.0
C1668 C 0.09948 0.49349 0.00766 0.0
C1669 C 0.10167 0.4877 0.96921 0.0
C1670 C 0.03987 0.52627 0.0496 0.0
C1671 C 0.07356 0.5088 0.00129 0.0
H1672 H 0.92256 0.56209 0.06736 0.0
H1673 H 0.96167 0.52995 0.0736 0.0
H1674 H 0.93819 0.54383 0.08599 0.0
H1675 H 0.95345 0.55193 0.02219 0.0
H1676 H 0.12378 0.47554 0.97628 0.0
H1677 H 0.07951 0.50045 0.96574 0.0
H1678 H 0.09877 0.49575 0.02252 0.0
H1679 H 0.10247 0.48541 0.9544 0.0
H1680 H 0.01836 0.2195 0.98599 0.0
H1681 H 0.02196 0.1914 0.99688 0.0
H1682 H 0.99159 0.16319 0.94616 0.0
H1683 H 0.98836 0.1911 0.93509 0.0
H1684 H 1.00033 0.16275 0.00487 0.0
H1685 H 0.03413 0.14065 0.94544 0.0
H1686 H 0.03005 0.16276 0.94951 0.0
H1687 H 0.01264 0.14506 0.9379 0.0
C1688 C 0.01239 0.20733 0.97714 0.0
C1689 C 0.00313 0.2078 0.95952 0.0
C1690 C 0.01448 0.19115 0.98341 0.0
C1691 C 0.00749 0.17486 0.97225 0.0
C1692 C 0.99771 0.17535 0.95495 0.0
H1693 H 0.00201 0.06236 0.98165 0.0
H1694 H 0.99895 0.09122 0.97288 0.0
C1695 C 0.99568 0.19147 0.94866 0.0
C1696 C 0.01032 0.15747 0.9786 0.0
H1697 H 0.02422 0.11896 0.96483 0.0
C1698 C 0.0057 0.15329 0.99612 0.0
C1699 C 0.01742 0.14484 0.96743 0.0
C1700 C 0.02403 0.1486 0.94913 0.0
C1701 C 0.00739 0.13695 0.00238 0.0
C1702 C 0.01413 0.12423 0.99102 0.0
C1703 C 0.01893 0.12847 0.97361 0.0
C1704 C 0.01608 0.10642 0.99673 0.0
C1705 C 0.0014 0.13324 0.02094 0.0
C1706 C 0.02688 0.10492 0.01307 0.0
C1707 C 0.02865 0.08827 0.01819 0.0
C1708 C 0.01978 0.07247 0.0071 0.0
C1709 C 0.00908 0.07404 0.99069 0.0
C1710 C 0.00733 0.09067 0.98558 0.0
H1711 H 0.99258 0.1422 0.02584 0.0
H1712 H 0.99415 0.11941 0.02016 0.0
H1713 H 0.01328 0.13522 0.03147 0.0
H1714 H 0.03415 0.11667 0.02185 0.0
H1715 H 0.03698 0.08784 0.03093 0.0
H1716 H 0.10181 0.81238 0.16139 0.0
H1717 H 0.12833 0.8099 0.18181 0.0
H1718 H 0.13693 0.7672 0.14278 0.0
H1719 H 0.11132 0.77073 0.12174 0.0
H1720 H 0.13673 0.78697 0.20076 0.0
H1721 H 0.18604 0.79279 0.14996 0.0
H1722 H 0.16381 0.79669 0.14454 0.0
H1723 H 0.168 0.77452 0.14241 0.0
C1724 C 0.1096 0.8027 0.15703 0.0
C1725 C 0.10468 0.79202 0.13976 0.0
C1726 C 0.12475 0.80119 0.16879 0.0
C1727 C 0.13519 0.78864 0.16383 0.0
C1728 C 0.12984 0.77757 0.14676 0.0
H1729 H 0.22718 0.7558 0.2215 0.0
H1730 H 0.20049 0.75775 0.20093 0.0
C1731 C 0.11503 0.77949 0.13473 0.0
C1732 C 0.15121 0.78689 0.17678 0.0
H1733 H 0.19529 0.7834 0.17868 0.0
C1734 C 0.14954 0.78635 0.19585 0.0
C1735 C 0.16813 0.786 0.17066 0.0
C1736 C 0.17166 0.78771 0.15082 0.0
C1737 C 0.16399 0.78479 0.20873 0.0
C1738 C 0.18077 0.78374 0.20253 0.0
C1739 C 0.18245 0.78412 0.1835 0.0
C1740 C 0.1968 0.78238 0.21549 0.0
C1741 C 0.16102 0.78394 0.22884 0.0
C1742 C 0.20381 0.79555 0.23059 0.0
C1743 C 0.21913 0.79444 0.24232 0.0
C1744 C 0.22798 0.7803 0.23906 0.0
C1745 C 0.22094 0.76708 0.22406 0.0
C1746 C 0.20558 0.76814 0.21238 0.0
H1747 H 0.14661 0.78024 0.23047 0.0
H1748 H 0.16816 0.7743 0.23489 0.0
H1749 H 0.16627 0.7971 0.23698 0.0
H1750 H 0.19764 0.80689 0.23314 0.0
H1751 H 0.22433 0.80488 0.2537 0.0
H1752 H 0.52721 0.82085 0.47912 0.0
H1753 H 0.52911 0.85171 0.49302 0.0
H1754 H 0.49023 0.85839 0.44895 0.0
H1755 H 0.48855 0.82797 0.43504 0.0
H1756 H 0.53876 0.88338 0.4739 0.0
H1757 H 0.47135 0.87867 0.49683 0.0
H1758 H 0.48146 0.85963 0.49244 0.0
H1759 H 0.4718 0.86894 0.47334 0.0
C1760 C 0.51873 0.82877 0.4727 0.0
C1761 C 0.50746 0.82172 0.4561 0.0
C1762 C 0.51994 0.84652 0.48055 0.0
C1763 C 0.50968 0.85757 0.47221 0.0
C1764 C 0.49812 0.8503 0.45594 0.0
H1765 H 0.49421 0.96736 0.49134 0.0
H1766 H 0.49171 0.93566 0.48188 0.0
C1767 C 0.49714 0.83279 0.44798 0.0
C1768 C 0.51156 0.87685 0.4797 0.0
H1769 H 0.48813 0.90744 0.49684 0.0
C1770 C 0.52774 0.8886 0.47911 0.0
C1771 C 0.49716 0.88395 0.48619 0.0
C1772 C 0.47948 0.87218 0.48742 0.0
C1773 C 0.52976 0.90703 0.48429 0.0
C1774 C 0.51541 0.91418 0.49108 0.0
C1775 C 0.49926 0.90232 0.49177 0.0
C1776 C 0.51676 0.93377 0.49731 0.0
C1777 C 0.54709 0.91864 0.48148 0.0
C1778 C 0.53138 0.94369 0.50959 0.0
C1779 C 0.53297 0.96196 0.51471 0.0
C1780 C 0.5197 0.97096 0.5083 0.0
C1781 C 0.50466 0.96098 0.4967 0.0
C1782 C 0.50326 0.94272 0.49122 0.0
H1783 H 0.55383 0.91222 0.47055 0.0
H1784 H 0.54494 0.9315 0.47742 0.0
H1785 H 0.5563 0.92108 0.49462 0.0
H1786 H 0.54168 0.93733 0.51534 0.0
H1787 H 0.54463 0.96905 0.52387 0.0
H1788 H 0.49664 0.29997 0.62686 0.0
H1789 H 0.46859 0.30182 0.64045 0.0
H1790 H 0.47511 0.25834 0.67057 0.0
H1791 H 0.50269 0.25638 0.65728 0.0
H1792 H 0.43535 0.27175 0.64225 0.0
H1793 H 0.47287 0.30222 0.71056 0.0
H1794 H 0.4825 0.30338 0.68889 0.0
H1795 H 0.48052 0.28355 0.69966 0.0
C1796 C 0.49194 0.29068 0.63619 0.0
C1797 C 0.50212 0.2782 0.64115 0.0
C1798 C 0.47594 0.29177 0.64398 0.0
C1799 C 0.4699 0.28039 0.65681 0.0
C1800 C 0.47961 0.26744 0.66098 0.0
H1801 H 0.39448 0.24865 0.72991 0.0
H1802 H 0.42051 0.25815 0.71383 0.0
C1803 C 0.49545 0.26637 0.65332 0.0
C1804 C 0.45394 0.28208 0.66666 0.0
H1805 H 0.44209 0.28958 0.71057 0.0
C1806 C 0.43674 0.27602 0.65711 0.0
C1807 C 0.45577 0.28757 0.68607 0.0
C1808 C 0.47389 0.2947 0.69694 0.0
C1809 C 0.42142 0.2743 0.66664 0.0
C1810 C 0.42332 0.27903 0.68627 0.0
C1811 C 0.44052 0.2859 0.6956 0.0
C1812 C 0.408 0.27522 0.69757 0.0
C1813 C 0.40346 0.26643 0.65576 0.0
C1814 C 0.39244 0.28224 0.69456 0.0
C1815 C 0.37754 0.27692 0.70397 0.0
C1816 C 0.37792 0.26451 0.71659 0.0
C1817 C 0.39382 0.2583 0.72034 0.0
C1818 C 0.4087 0.26368 0.71107 0.0
H1819 H 0.40471 0.26019 0.64158 0.0
H1820 H 0.39578 0.25639 0.66315 0.0
H1821 H 0.39568 0.277 0.65424 0.0
H1822 H 0.39162 0.29146 0.68455 0.0
H1823 H 0.36541 0.28179 0.70066 0.0
H1824 H 0.01832 0.78695 0.61868 0.0
H1825 H 0.01904 0.81298 0.60242 0.0
H1826 H 0.01977 0.84527 0.6547 0.0
H1827 H 0.01938 0.8194 0.67107 0.0
H1828 H 0.99542 0.83576 0.60012 0.0
H1829 H 0.06189 0.87237 0.6336 0.0
H1830 H 0.05407 0.84935 0.63527 0.0
H1831 H 0.04634 0.86599 0.64972 0.0
C1832 C 0.01873 0.7996 0.62674 0.0
C1833 C 0.01889 0.80106 0.64622 0.0
C1834 C 0.01909 0.81449 0.61741 0.0
C1835 C 0.01971 0.83119 0.62731 0.0
C1836 C 0.01968 0.83264 0.64674 0.0
H1837 H 0.03409 0.9359 0.59048 0.0
H1838 H 0.02469 0.91151 0.60839 0.0
C1839 C 0.01936 0.81778 0.65609 0.0
C1840 C 0.02023 0.847 0.61727 0.0
H1841 H 0.04543 0.88736 0.61393 0.0
C1842 C 0.00636 0.84705 0.60316 0.0
C1843 C 0.03442 0.86183 0.62125 0.0
C1844 C 0.05011 0.8624 0.63566 0.0
C1845 C 0.00631 0.86144 0.59298 0.0
C1846 C 0.02066 0.87613 0.59675 0.0
C1847 C 0.03434 0.87621 0.61108 0.0
C1848 C 0.02259 0.89097 0.5852 0.0
C1849 C 0.99077 0.86081 0.57839 0.0
C1850 C 0.02391 0.88768 0.56604 0.0
C1851 C 0.0291 0.9016 0.55582 0.0
C1852 C 0.03307 0.91914 0.56449 0.0
C1853 C 0.03066 0.92255 0.58335 0.0
C1854 C 0.0255 0.90859 0.59362 0.0
H1855 H 0.97857 0.85191 0.58133 0.0
H1856 H 0.98774 0.87413 0.57751 0.0
H1857 H 0.99414 0.85563 0.56462 0.0
H1858 H 0.02218 0.87428 0.55924 0.0
H1859 H 0.03133 0.8986 0.54143 0.0
H1860 H 0.4724 0.78429 0.85275 0.0
H1861 H 0.43995 0.78059 0.84427 0.0
H1862 H 0.44904 0.79857 0.79145 0.0
H1863 H 0.48127 0.80239 0.7998 0.0
H1864 H 0.41974 0.80677 0.83458 0.0
H1865 H 0.41167 0.75245 0.77649 0.0
H1866 H 0.43102 0.75795 0.7938 0.0
H1867 H 0.42916 0.77089 0.77497 0.0
C1868 C 0.4675 0.78726 0.83924 0.0
C1869 C 0.47962 0.79357 0.82697 0.0
C1870 C 0.44888 0.78522 0.83442 0.0
C1871 C 0.44186 0.7891 0.81708 0.0
C1872 C 0.45394 0.7952 0.80478 0.0
H1873 H 0.33627 0.79381 0.76142 0.0
H1874 H 0.36836 0.79672 0.77103 0.0
C1875 C 0.47248 0.79744 0.80965 0.0
C1876 C 0.42203 0.78735 0.81196 0.0
H1877 H 0.38699 0.76671 0.77937 0.0
C1878 C 0.41259 0.7979 0.82259 0.0
C1879 C 0.41251 0.77583 0.79627 0.0
C1880 C 0.42152 0.7635 0.78479 0.0
C1881 C 0.39418 0.79751 0.81776 0.0
C1882 C 0.38475 0.78617 0.80194 0.0
C1883 C 0.39414 0.77553 0.79139 0.0
C1884 C 0.36509 0.78494 0.79635 0.0
C1885 C 0.38499 0.80958 0.82935 0.0
C1886 C 0.35236 0.77733 0.80728 0.0
C1887 C 0.33395 0.77558 0.80178 0.0
C1888 C 0.32765 0.78152 0.78521 0.0
C1889 C 0.34046 0.78931 0.77437 0.0
C1890 C 0.3589 0.79088 0.7798 0.0
H1891 H 0.39465 0.81965 0.83914 0.0
H1892 H 0.37681 0.81638 0.82023 0.0
H1893 H 0.37586 0.80167 0.83758 0.0
H1894 H 0.35666 0.77246 0.82 0.0
H1895 H 0.32463 0.7695 0.81056 0.0
H1896 H 0.4942 0.20069 0.12481 0.0
H1897 H 0.49431 0.17426 0.10283 0.0
H1898 H 0.53205 0.15834 0.14211 0.0
H1899 H 0.53106 0.18384 0.16429 0.0
H1900 H 0.51749 0.16166 0.08435 0.0
H1901 H 0.49771 0.11358 0.13246 0.0
H1902 H 0.49718 0.13659 0.13796 0.0
H1903 H 0.51767 0.12869 0.14253 0.0
C1904 C 0.50237 0.19142 0.12877 0.0
C1905 C 0.51234 0.19425 0.1465 0.0
C1906 C 0.50247 0.17629 0.11617 0.0
C1907 C 0.51276 0.16378 0.12088 0.0
C1908 C 0.52333 0.16715 0.13827 0.0
H1909 H 0.54703 0.07281 0.06613 0.0
H1910 H 0.54365 0.09983 0.08526 0.0
C1911 C 0.52287 0.18192 0.15097 0.0
C1912 C 0.51281 0.14738 0.10773 0.0
H1913 H 0.51104 0.10286 0.10603 0.0
C1914 C 0.51584 0.1488 0.08909 0.0
C1915 C 0.51046 0.13036 0.1136 0.0
C1916 C 0.50537 0.12719 0.13266 0.0
C1917 C 0.5173 0.13398 0.07662 0.0
C1918 C 0.51587 0.11725 0.08288 0.0
C1919 C 0.51243 0.11572 0.10128 0.0
C1920 C 0.5181 0.10116 0.07068 0.0
C1921 C 0.52084 0.13632 0.05693 0.0
C1922 C 0.50487 0.0928 0.05608 0.0
C1923 C 0.50665 0.07715 0.04538 0.0
C1924 C 0.52167 0.06953 0.04906 0.0
C1925 C 0.53507 0.07809 0.06336 0.0
C1926 C 0.53322 0.09363 0.07417 0.0
H1927 H 0.52354 0.15042 0.05473 0.0
H1928 H 0.5324 0.13039 0.05341 0.0
H1929 H 0.50903 0.12935 0.04715 0.0
H1930 H 0.49302 0.09823 0.05316 0.0
H1931 H 0.49619 0.07088 0.03434 0.0
H1932 H 0.1058 0.31625 0.35359 0.0
H1933 H 0.13355 0.31321 0.34059 0.0
H1934 H 0.10525 0.26739 0.30358 0.0
H1935 H 0.07729 0.27134 0.31558 0.0
H1936 H 0.15344 0.2914 0.34097 0.0
H1937 H 0.13125 0.28846 0.26595 0.0
H1938 H 0.1174 0.29392 0.2835 0.0
H1939 H 0.1181 0.27121 0.27588 0.0
C1940 C 0.10545 0.30568 0.34246 0.0
C1941 C 0.08919 0.29418 0.33551 0.0
C1942 C 0.12142 0.30388 0.33502 0.0
C1943 C 0.12183 0.29026 0.32063 0.0
C1944 C 0.10556 0.27851 0.31401 0.0
H1945 H 0.21038 0.25404 0.26805 0.0
H1946 H 0.18167 0.25673 0.27892 0.0
C1947 C 0.08946 0.28065 0.32106 0.0
C1948 C 0.13934 0.28805 0.31334 0.0
H1949 H 0.15935 0.28061 0.27364 0.0
C1950 C 0.15462 0.28921 0.3262 0.0
C1951 C 0.14131 0.28505 0.29404 0.0
C1952 C 0.12619 0.28477 0.27907 0.0
C1953 C 0.1714 0.28738 0.3205 0.0
C1954 C 0.17331 0.2843 0.30127 0.0
C1955 C 0.15806 0.28291 0.28838 0.0
C1956 C 0.191 0.28274 0.29432 0.0
C1957 C 0.1869 0.28841 0.33528 0.0
C1958 C 0.20604 0.2965 0.29889 0.0
C1959 C 0.22261 0.29494 0.2927 0.0
C1960 C 0.22477 0.27958 0.28158 0.0
C1961 C 0.20955 0.26598 0.27667 0.0
C1962 C 0.19296 0.26755 0.28288 0.0
H1963 H 0.18232 0.28589 0.34894 0.0
H1964 H 0.19536 0.27881 0.33122 0.0
H1965 H 0.19528 0.30185 0.33712 0.0
H1966 H 0.20499 0.30858 0.30725 0.0
H1967 H 0.23379 0.30583 0.29679 0.0
H1968 H 0.91402 0.01059 0.18558 0.0
H1969 H 0.92762 0.01385 0.15671 0.0
H1970 H 0.98003 0.02494 0.1878 0.0
H1971 H 0.96656 0.02176 0.21679 0.0
H1972 H 0.95421 0.04584 0.14955 0.0
H1973 H 0.97933 0.98299 0.14491 0.0
H1974 H 0.96147 0.98661 0.15847 0.0
H1975 H 0.98409 0.99705 0.16687 0.0
C1976 C 0.92844 0.0137 0.1863 0.0
C1977 C 0.93921 0.0159 0.2035 0.0
C1978 C 0.93618 0.01559 0.16979 0.0
C1979 C 0.9548 0.01956 0.17013 0.0
C1980 C 0.96561 0.02175 0.18724 0.0
H1981 H 0.02515 0.02134 0.08468 0.0
H1982 H 0.01162 0.02171 0.11332 0.0
C1983 C 0.95789 0.01996 0.20378 0.0
C1984 C 0.96291 0.02148 0.15258 0.0
H1985 H 0.98632 1.00139 0.12209 0.0
C1986 C 0.96128 0.03618 0.14348 0.0
C1987 C 0.97219 0.0089 0.14484 0.0
C1988 C 0.97436 0.99291 0.15414 0.0
C1989 C 0.96909 0.0389 0.12703 0.0
C1990 C 0.97813 0.02612 0.11899 0.0
C1991 C 0.97948 0.01127 0.12811 0.0
C1992 C 0.98685 0.02795 0.10158 0.0
C1993 C 0.96808 0.05579 0.11897 0.0
C1994 C 0.97775 0.03169 0.0852 0.0
C1995 C 0.98606 0.03268 0.06886 0.0
C1996 C 0.00342 0.02927 0.06835 0.0
C1997 C 0.01221 0.02501 0.08462 0.0
C1998 C 0.00425 0.02479 0.10105 0.0
H1999 H 0.9662 0.06633 0.12977 0.0
H2000 H 0.98034 0.06063 0.1126 0.0
H2001 H 0.95641 0.05342 0.10812 0.0
H2002 H 0.96406 0.03345 0.08484 0.0
H2003 H 0.97868 0.03554 0.05649 0.0
H2004 H 0.24595 0.6673 0.49533 0.0
H2005 H 0.24426 0.68174 0.46727 0.0
H2006 H 0.29022 0.66198 0.45053 0.0
H2007 H 0.29141 0.64675 0.47832 0.0
H2008 H 0.27231 0.7076 0.46154 0.0
H2009 H 0.25579 0.65326 0.40228 0.0
H2010 H 0.25157 0.64991 0.42574 0.0
H2011 H 0.27384 0.65187 0.41938 0.0
C2012 C 0.25567 0.66608 0.48562 0.0
C2013 C 0.26916 0.6565 0.489 0.0
C2014 C 0.25459 0.67412 0.46961 0.0
C2015 C 0.26718 0.6729 0.45705 0.0
C2016 C 0.2803 0.66282 0.46007 0.0
H2017 H 0.27021 0.72135 0.35592 0.0
H2018 H 0.28348 0.71311 0.3849 0.0
C2019 C 0.28112 0.65439 0.47594 0.0
C2020 C 0.26762 0.68382 0.44199 0.0
H2021 H 0.26146 0.68219 0.39497 0.0
C2022 C 0.27011 0.70211 0.44694 0.0
C2023 C 0.26481 0.67645 0.42312 0.0
C2024 C 0.2612 0.6568 0.41722 0.0
C2025 C 0.26918 0.71332 0.43336 0.0
C2026 C 0.26588 0.70591 0.41452 0.0
C2027 C 0.2643 0.68772 0.40954 0.0
C2028 C 0.26083 0.71594 0.39978 0.0
C2029 C 0.27103 0.7328 0.43927 0.0
C2030 C 0.24398 0.72055 0.39897 0.0
C2031 C 0.23623 0.7247 0.38239 0.0
C2032 C 0.24541 0.7244 0.36667 0.0
C2033 C 0.26288 0.72127 0.36794 0.0
C2034 C 0.27054 0.71687 0.38444 0.0
H2035 H 0.27876 0.73691 0.45328 0.0
H2036 H 0.27766 0.74061 0.42911 0.0
H2037 H 0.25753 0.73591 0.44001 0.0
H2038 H 0.23627 0.71961 0.41068 0.0
H2039 H 0.22291 0.7276 0.38166 0.0
H2040 H 0.62229 0.0132 0.70594 0.0
H2041 H 0.60237 0.0185 0.68019 0.0
H2042 H 0.64755 0.04106 0.65365 0.0
H2043 H 0.66794 0.03635 0.67995 0.0
H2044 H 0.6015 0.05189 0.65759 0.0
H2045 H 0.61845 0.98923 0.62572 0.0
H2046 H 0.62215 0.99567 0.65058 0.0
H2047 H 0.63606 0.0074 0.63576 0.0
C2048 C 0.62805 0.01941 0.69472 0.0
C2049 C 0.64661 0.02405 0.69466 0.0
C2050 C 0.61666 0.02278 0.68031 0.0
C2051 C 0.62368 0.03039 0.66548 0.0
C2052 C 0.64214 0.03546 0.66538 0.0
H2053 H 0.57555 0.01431 0.55593 0.0
H2054 H 0.5941 0.01817 0.58506 0.0
C2055 C 0.65366 0.03232 0.68004 0.0
C2056 C 0.61171 0.02878 0.64855 0.0
H2057 H 0.59428 0.99865 0.61108 0.0
C2058 C 0.60004 0.04055 0.64706 0.0
C2059 C 0.60982 0.01362 0.6355 0.0
C2060 C 0.62221 1.00066 0.63687 0.0
C2061 C 0.58651 0.03766 0.63215 0.0
C2062 C 0.5845 0.02229 0.6192 0.0
C2063 C 0.59595 0.01037 0.62116 0.0
C2064 C 0.57246 0.01935 0.60198 0.0
C2065 C 0.57481 0.05115 0.63022 0.0
C2066 C 0.55403 0.01815 0.60193 0.0
C2067 C 0.54331 0.01666 0.58507 0.0
C2068 C 0.55096 0.01598 0.56829 0.0
C2069 C 0.56918 0.01541 0.56856 0.0
C2070 C 0.57988 0.01753 0.58524 0.0
H2071 H 0.58056 0.06381 0.63919 0.0
H2072 H 0.57284 0.05378 0.61555 0.0
H2073 H 0.56153 0.04602 0.63447 0.0
H2074 H 0.54807 0.01882 0.61483 0.0
H2075 H 0.52934 0.01667 0.58536 0.0
H2076 H 0.28407 0.38056 0.95424 0.0
H2077 H 0.28474 0.36312 0.92452 0.0
H2078 H 0.27826 0.31575 0.95083 0.0
H2079 H 0.27771 0.33328 0.98104 0.0
H2080 H 0.30968 0.33937 0.91645 0.0
H2081 H 0.23772 0.30705 0.90466 0.0
H2082 H 0.24589 0.32709 0.9205 0.0
H2083 H 0.24988 0.30647 0.92697 0.0
C2084 C 0.28267 0.36642 0.9538 0.0
C2085 C 0.28073 0.3583 0.97006 0.0
C2086 C 0.28315 0.35648 0.93676 0.0
C2087 C 0.28147 0.33816 0.93545 0.0
C2088 C 0.27947 0.3299 0.95157 0.0
H2089 H 0.28435 0.26759 0.8326 0.0
H2090 H 0.28622 0.27908 0.86578 0.0
C2091 C 0.2792 0.33991 0.96879 0.0
C2092 C 0.28198 0.32799 0.9171 0.0
H2093 H 0.25545 0.30083 0.88101 0.0
C2094 C 0.2979 0.33073 0.90881 0.0
C2095 C 0.26653 0.31693 0.90708 0.0
C2096 C 0.24895 0.3142 0.9151 0.0
C2097 C 0.29868 0.32287 0.89064 0.0
C2098 C 0.28317 0.31208 0.88055 0.0
C2099 C 0.26736 0.30899 0.88894 0.0
C2100 C 0.28273 0.30516 0.8607 0.0
C2101 C 0.31592 0.32648 0.88207 0.0
C2102 C 0.28026 0.31608 0.847 0.0
C2103 C 0.27898 0.30955 0.82815 0.0
C2104 C 0.28032 0.292 0.82266 0.0
C2105 C 0.28327 0.28117 0.83644 0.0
C2106 C 0.28431 0.28768 0.85535 0.0
H2107 H 0.32735 0.33321 0.89249 0.0
H2108 H 0.31897 0.31396 0.8755 0.0
H2109 H 0.31445 0.33497 0.87096 0.0
H2110 H 0.27909 0.32963 0.8509 0.0
H2111 H 0.27694 0.31828 0.81787 0.0
H2112 H 0.97986 0.01038 0.30944 0.0
H2113 H 0.99087 0.01403 0.3425 0.0
H2114 H 0.9394 0.02224 0.35653 0.0
H2115 H 0.92819 0.0186 0.32322 0.0
H2116 H 0.99244 0.04234 0.37175 0.0
H2117 H 0.94898 0.98 0.38374 0.0
H2118 H 0.95273 0.9852 0.36068 0.0
H2119 H 0.93787 0.99572 0.37355 0.0
C2120 C 0.97086 0.01305 0.31952 0.0
C2121 C 0.95307 0.01403 0.31366 0.0
C2122 C 0.97722 0.0152 0.33844 0.0
C2123 C 0.96592 0.01816 0.35201 0.0
C2124 C 0.9483 0.01973 0.34629 0.0
H2125 H 0.98489 0.0277 0.47267 0.0
H2126 H 0.97303 0.02772 0.44038 0.0
C2127 C 0.94194 0.01775 0.32726 0.0
C2128 C 0.97262 0.01891 0.37204 0.0
H2129 H 0.96808 0.99631 0.40961 0.0
C2130 C 0.98709 0.0323 0.38004 0.0
C2131 C 0.96567 0.00577 0.38284 0.0
C2132 C 0.95054 0.99075 0.37481 0.0
C2133 C 0.99476 0.03288 0.39853 0.0
C2134 C 0.98797 0.0196 0.40918 0.0
C2135 C 0.97335 0.00638 0.40131 0.0
C2136 C 0.99553 0.01952 0.42874 0.0
C2137 C 0.00994 0.04777 0.4067 0.0
C2138 C 0.01213 0.01472 0.43294 0.0
C2139 C 0.01896 0.01451 0.45152 0.0
C2140 C 0.00935 0.01925 0.46618 0.0
C2141 C 0.99273 0.02402 0.4618 0.0
C2142 C 0.98587 0.02404 0.44332 0.0
H2143 H 0.01218 0.05823 0.39747 0.0
H2144 H 0.00721 0.05374 0.42046 0.0
H2145 H 0.02239 0.04255 0.40895 0.0
H2146 H 0.01974 0.01108 0.42184 0.0
H2147 H 0.0318 0.0108 0.45439 0.0
H2148 H 0.29402 0.65826 0.59501 0.0
H2149 H 0.298 0.68082 0.62209 0.0
H2150 H 0.24266 0.66431 0.63021 0.0
H2151 H 0.23883 0.64124 0.60358 0.0
H2152 H 0.27944 0.70791 0.62474 0.0
H2153 H 0.26891 0.6666 0.68188 0.0
H2154 H 0.27311 0.65777 0.65908 0.0
H2155 H 0.25116 0.66132 0.66302 0.0
C2156 C 0.28287 0.65928 0.60289 0.0
C2157 C 0.2662 0.64813 0.59759 0.0
C2158 C 0.28512 0.67211 0.61818 0.0
C2159 C 0.27064 0.67395 0.62804 0.0
C2160 C 0.25403 0.66266 0.6229 0.0
H2161 H 0.24896 0.75257 0.70788 0.0
H2162 H 0.24962 0.7339 0.6786 0.0
C2163 C 0.25186 0.64958 0.60782 0.0
C2164 C 0.27269 0.68833 0.6431 0.0
H2165 H 0.26899 0.69717 0.68914 0.0
C2166 C 0.2773 0.70563 0.63887 0.0
C2167 C 0.26992 0.68507 0.66138 0.0
C2168 C 0.26567 0.66668 0.66668 0.0
C2169 C 0.27892 0.71994 0.65266 0.0
C2170 C 0.27573 0.71658 0.67072 0.0
C2171 C 0.27132 0.69938 0.67502 0.0
C2172 C 0.27678 0.73067 0.68568 0.0
C2173 C 0.28396 0.73849 0.64806 0.0
C2174 C 0.29193 0.7348 0.69883 0.0
C2175 C 0.29145 0.74502 0.71551 0.0
C2176 C 0.27586 0.75114 0.71889 0.0
C2177 C 0.26106 0.74785 0.70528 0.0
C2178 C 0.26147 0.73744 0.68866 0.0
H2179 H 0.2866 0.73881 0.63333 0.0
H2180 H 0.27302 0.74569 0.65065 0.0
H2181 H 0.29607 0.7456 0.65734 0.0
H2182 H 0.30369 0.72936 0.69656 0.0
H2183 H 0.30306 0.74782 0.72589 0.0
H2184 H 0.60961 0.04069 0.783 0.0
H2185 H 0.59921 0.0356 0.81296 0.0
H2186 H 0.65338 0.03785 0.83695 0.0
H2187 H 0.66401 0.04301 0.80697 0.0
H2188 H 0.60614 0.00642 0.83444 0.0
H2189 H 0.63193 0.07493 0.87008 0.0
H2190 H 0.62848 0.0699 0.84504 0.0
H2191 H 0.64704 0.06391 0.85799 0.0
C2192 C 0.61934 0.04033 0.7947 0.0
C2193 C 0.63759 0.04223 0.79275 0.0
C2194 C 0.61337 0.03723 0.81167 0.0
C2195 C 0.62559 0.03618 0.82687 0.0
C2196 C 0.64385 0.03851 0.82518 0.0
H2197 H 0.59047 0.04295 0.93541 0.0
H2198 H 0.60754 0.03021 0.91275 0.0
C2199 C 0.64985 0.04151 0.80815 0.0
C2200 C 0.61901 0.03324 0.84465 0.0
H2201 H 0.61367 0.05564 0.88578 0.0
C2202 C 0.60803 0.01699 0.84592 0.0
C2203 C 0.62168 0.04714 0.85938 0.0
C2204 C 0.63284 0.06502 0.85817 0.0
C2205 C 0.59864 0.01467 0.8613 0.0
C2206 C 0.60049 0.02894 0.87549 0.0
C2207 C 0.61253 0.04469 0.87483 0.0
C2208 C 0.58785 0.02953 0.88923 0.0
C2209 C 0.58615 0.99744 0.86192 0.0
C2210 C 0.5709 0.0327 0.8834 0.0
C2211 C 0.56123 0.04027 0.89623 0.0
C2212 C 0.56843 0.04457 0.91497 0.0
C2213 C 0.58464 0.03977 0.92099 0.0
C2214 C 0.59432 0.03232 0.90816 0.0
H2215 H 0.58937 0.98658 0.8524 0.0
H2216 H 0.58676 0.9939 0.87631 0.0
H2217 H 0.57226 0.9988 0.85756 0.0
H2218 H 0.56591 0.03088 0.86872 0.0
H2219 H 0.5486 0.04355 0.89138 0.0
H2220 H 0.25547 0.34194 0.07712 0.0
H2221 H 0.25127 0.33018 0.10654 0.0
H2222 H 0.30748 0.34822 0.12514 0.0
H2223 H 0.31139 0.36116 0.09619 0.0
H2224 H 0.26273 0.30589 0.12203 0.0
H2225 H 0.28879 0.36784 0.16965 0.0
H2226 H 0.2851 0.36754 0.14475 0.0
H2227 H 0.30513 0.36189 0.15545 0.0
C2228 C 0.26693 0.34336 0.08751 0.0
C2229 C 0.28375 0.35246 0.08443 0.0
C2230 C 0.26451 0.33668 0.10435 0.0
C2231 C 0.27895 0.33863 0.11837 0.0
C2232 C 0.29596 0.34711 0.11495 0.0
H2233 H 0.28908 0.28081 0.21096 0.0
H2234 H 0.28952 0.29313 0.18162 0.0
C2235 C 0.29826 0.3543 0.0983 0.0
C2236 C 0.27613 0.33136 0.13624 0.0
H2237 H 0.28367 0.34138 0.1837 0.0
C2238 C 0.26719 0.31376 0.13547 0.0
C2239 C 0.28177 0.34158 0.15392 0.0
C2240 C 0.29056 0.3608 0.15601 0.0
C2241 C 0.26411 0.30608 0.15175 0.0
C2242 C 0.27027 0.31614 0.16928 0.0
C2243 C 0.27891 0.33375 0.17017 0.0
C2244 C 0.26908 0.30822 0.18682 0.0
C2245 C 0.25429 0.28723 0.15017 0.0
C2246 C 0.25755 0.31282 0.19963 0.0
C2247 C 0.25733 0.30585 0.21662 0.0
C2248 C 0.26857 0.29415 0.2209 0.0
C2249 C 0.28 0.28956 0.20794 0.0
C2250 C 0.28031 0.29658 0.19115 0.0
H2251 H 0.2481 0.28204 0.13571 0.0
H2252 H 0.26375 0.27881 0.1545 0.0
H2253 H 0.2437 0.28613 0.15962 0.0
H2254 H 0.24881 0.32184 0.19649 0.0
H2255 H 0.24837 0.30951 0.22634 0.0
H2256 H 0.21968 0.91104 0.99385 0.0
H2257 H 0.1929 0.92355 0.98887 0.0
H2258 H 0.22509 0.97601 0.00063 0.0
H2259 H 0.25186 0.96374 0.00533 0.0
H2260 H 0.18704 0.94446 0.02042 0.0
H2261 H 0.18691 0.98106 0.95912 0.0
H2262 H 0.19891 0.96327 0.96119 0.0
H2263 H 0.20805 0.9849 0.97336 0.0
C2264 C 0.22103 0.92523 0.99502 0.0
C2265 C 0.23766 0.93649 0.00031 0.0
C2266 C 0.20584 0.93229 0.99187 0.0
C2267 C 0.20723 0.9506 0.99402 0.0
C2268 C 0.22393 0.96184 -0.00165 0.0
H2269 H 0.156 0.02434 0.04395 0.0
H2270 H 0.17451 0.00919 0.02458 0.0
C2271 C 0.23911 0.95481 0.00142 0.0
C2272 C 0.19135 0.95794 0.99643 0.0
H2273 H 0.16963 0.98986 0.98346 0.0
C2274 C 0.18279 0.95397 0.01201 0.0
C2275 C 0.18645 0.97065 0.98565 0.0
C2276 C 0.19548 0.97515 0.96879 0.0
C2277 C 0.1699 0.96308 0.01774 0.0
C2278 C 0.16517 0.97605 0.0072 0.0
C2279 C 0.17325 0.97966 0.99121 0.0
C2280 C 0.15314 0.98702 0.01404 0.0
C2281 C 0.16223 0.95958 0.03567 0.0
C2282 C 0.13508 0.97958 0.01388 0.0
C2283 C 0.12464 0.98808 0.02497 0.0
C2284 C 0.13231 0.00395 0.03629 0.0
C2285 C 0.15007 0.01193 0.03548 0.0
C2286 C 0.16047 0.0035 0.02427 0.0
H2287 H 0.16942 0.95102 0.04355 0.0
H2288 H 0.16284 0.97214 0.0448 0.0
H2289 H 0.14799 0.95296 0.03245 0.0
H2290 H 0.12944 0.96671 0.00621 0.0
H2291 H 0.11088 0.98183 0.02545 0.0
H2292 H 0.69679 0.65895 0.00259 0.0
H2293 H 0.66779 0.64018 0.00459 0.0
H2294 H 0.69152 0.59408 -0.00162 0.0
H2295 H 0.72047 0.61262 0.99635 0.0
H2296 H 0.64928 0.60939 0.97641 0.0
H2297 H 0.66602 0.59221 0.04734 0.0
H2298 H 0.67823 0.61132 0.03892 0.0
H2299 H 0.68185 0.58974 0.031 0.0
C2300 C 0.69581 0.64481 0.00159 0.0
C2301 C 0.7109 0.63725 -0.00065 0.0
C2302 C 0.67928 0.63415 0.00276 0.0
C2303 C 0.67768 0.61583 0.00186 0.0
C2304 C 0.69262 0.60823 -0.00064 0.0
H2305 H 0.59232 0.53202 0.02044 0.0
H2306 H 0.62082 0.54927 0.01512 0.0
C2307 C 0.7091 0.61884 -0.00189 0.0
C2308 C 0.66031 0.60452 0.00318 0.0
H2309 H 0.6383 0.57774 0.03102 0.0
C2310 C 0.64678 0.60243 0.98831 0.0
C2311 C 0.65732 0.5954 0.01866 0.0
C2312 C 0.67155 0.5973 0.03499 0.0
C2313 C 0.63032 0.59106 0.98827 0.0
C2314 C 0.62708 0.58213 0.00399 0.0
C2315 C 0.64071 0.58442 0.01893 0.0
C2316 C 0.60959 0.57079 0.00556 0.0
C2317 C 0.61696 0.58841 0.97105 0.0
C2318 C 0.59371 0.57695 0.00196 0.0
C2319 C 0.57732 0.56646 0.00356 0.0
C2320 C 0.57634 0.54988 0.00994 0.0
C2321 C 0.59232 0.54408 0.01444 0.0
C2322 C 0.60873 0.55423 0.01185 0.0
H2323 H 0.62375 0.59052 0.95843 0.0
H2324 H 0.60854 0.57498 0.96877 0.0
H2325 H 0.60822 0.59825 0.97252 0.0
H2326 H 0.59392 0.59002 -0.00185 0.0
H2327 H 0.56543 0.57172 0.0003 0.0
H2328 H 0.67725 0.49681 0.25748 0.0
H2329 H 0.69269 0.47198 0.25626 0.0
H2330 H 0.66337 0.45126 0.29938 0.0
H2331 H 0.6471 0.4756 0.29981 0.0
H2332 H 0.71445 0.46243 0.28139 0.0
H2333 H 0.65527 0.40798 0.26294 0.0
H2334 H 0.65369 0.43075 0.26251 0.0
H2335 H 0.65481 0.42175 0.28425 0.0
C2336 C 0.67406 0.48691 0.26664 0.0
C2337 C 0.66097 0.48808 0.27871 0.0
C2338 C 0.68289 0.47273 0.26595 0.0
C2339 C 0.67905 0.45957 0.27754 0.0
C2340 C 0.66621 0.46092 0.28991 0.0
H2341 H 0.72232 0.36243 0.2764 0.0
H2342 H 0.71071 0.38828 0.28873 0.0
C2343 C 0.65703 0.47491 0.29026 0.0
C2344 C 0.68884 0.44474 0.27673 0.0
H2345 H 0.6833 0.39993 0.26781 0.0
C2346 C 0.7076 0.44876 0.2785 0.0
C2347 C 0.67995 0.42685 0.27315 0.0
C2348 C 0.65983 0.42154 0.27044 0.0
C2349 C 0.71768 0.4355 0.27621 0.0
C2350 C 0.70876 0.41774 0.27201 0.0
C2351 C 0.69008 0.4136 0.2711 0.0
C2352 C 0.71827 0.4034 0.2665 0.0
C2353 C 0.73776 0.44066 0.27806 0.0
C2354 C 0.7266 0.4035 0.25013 0.0
C2355 C 0.73305 0.38878 0.24307 0.0
C2356 C 0.73137 0.37379 0.25232 0.0
C2357 C 0.72389 0.37397 0.26919 0.0
C2358 C 0.71723 0.38866 0.27617 0.0
H2359 H 0.74264 0.45354 0.28691 0.0
H2360 H 0.74417 0.43053 0.28409 0.0
H2361 H 0.74206 0.44196 0.26405 0.0
H2362 H 0.72724 0.41459 0.24227 0.0
H2363 H 0.73866 0.3888 0.22996 0.0
H2364 H 0.83812 0.42752 0.49912 0.0
H2365 H 0.87025 0.4342 0.5076 0.0
H2366 H 0.87143 0.4885 0.49959 0.0
H2367 H 0.83893 0.48206 0.49126 0.0
H2368 H 0.89728 0.45186 0.48524 0.0
H2369 H 0.89419 0.48662 0.55545 0.0
H2370 H 0.87566 0.4707 0.54263 0.0
H2371 H 0.8804 0.49281 0.53686 0.0
C2372 C 0.84518 0.44093 0.49915 0.0
C2373 C 0.83613 0.45448 0.49498 0.0
C2374 C 0.86344 0.44461 0.50395 0.0
C2375 C 0.87271 0.4618 0.50457 0.0
C2376 C 0.86403 0.4752 0.49946 0.0
H2377 H 0.96689 0.52994 0.51215 0.0
H2378 H 0.93671 0.51333 0.51327 0.0
C2379 C 0.84566 0.47154 0.49462 0.0
C2380 C 0.89165 0.46589 0.5105 0.0
H2381 H 0.92221 0.49259 0.54302 0.0
C2382 C 0.90292 0.46041 0.49804 0.0
C2383 C 0.89849 0.47668 0.5274 0.0
C2384 C 0.88657 0.48193 0.54147 0.0
C2385 C 0.92118 0.46712 0.50124 0.0
C2386 C 0.92782 0.4792 0.5174 0.0
C2387 C 0.91672 0.48337 0.53064 0.0
C2388 C 0.94568 0.48952 0.51938 0.0
C2389 C 0.93296 0.46242 0.48672 0.0
C2390 C 0.96017 0.48143 0.52282 0.0
C2391 C 0.97714 0.49066 0.52187 0.0
C2392 C 0.97968 0.50816 0.51791 0.0
C2393 C 0.96514 0.51652 0.51539 0.0
C2394 C 0.94808 0.50714 0.51608 0.0
H2395 H 0.92521 0.45393 0.47424 0.0
H2396 H 0.94041 0.47458 0.48224 0.0
H2397 H 0.9429 0.45527 0.49278 0.0
H2398 H 0.95827 0.46777 0.52527 0.0
H2399 H 0.98806 0.48368 0.52316 0.0
H2400 H 0.3269 0.04457 0.29463 0.0
H2401 H 0.31446 0.07087 0.29028 0.0
H2402 H 0.36726 0.10322 0.3023 0.0
H2403 H 0.37983 0.07728 0.30688 0.0
H2404 H 0.32167 0.10712 0.31653 0.0
H2405 H 0.34432 0.10591 0.24584 0.0
H2406 H 0.34055 0.08653 0.25759 0.0
H2407 H 0.36018 0.10327 0.26472 0.0
C2408 C 0.33575 0.05736 0.29686 0.0
C2409 C 0.35427 0.05898 0.30106 0.0
C2410 C 0.32867 0.07224 0.29432 0.0
C2411 C 0.34011 0.08867 0.29589 0.0
C2412 C 0.35841 0.09049 0.3011 0.0
H2413 H 0.32321 0.18551 0.25807 0.0
H2414 H 0.3363 0.16582 0.27709 0.0
C2415 C 0.36548 0.0757 0.3038 0.0
C2416 C 0.33318 0.10384 0.29083 0.0
H2417 H 0.33139 0.12974 0.25639 0.0
C2418 C 0.32376 0.1122 0.30345 0.0
C2419 C 0.33613 0.1101 0.27372 0.0
C2420 C 0.34574 0.10098 0.25957 0.0
C2421 C 0.31705 0.12698 0.29927 0.0
C2422 C 0.31994 0.13321 0.28216 0.0
C2423 C 0.32956 0.12493 0.26965 0.0
C2424 C 0.31147 0.14703 0.27567 0.0
C2425 C 0.30686 0.13577 0.31299 0.0
C2426 C 0.29326 0.14285 0.26903 0.0
C2427 C 0.28597 0.15375 0.25791 0.0
C2428 C 0.29689 0.16883 0.25354 0.0
C2429 C 0.31478 0.1737 0.26127 0.0
C2430 C 0.32213 0.1627 0.27223 0.0
H2431 H 0.30884 0.13148 0.32699 0.0
H2432 H 0.31105 0.15032 0.31428 0.0
H2433 H 0.29239 0.13233 0.30788 0.0
H2434 H 0.28503 0.13057 0.27135 0.0
H2435 H 0.27204 0.15011 0.25215 0.0
H2436 H 0.30802 0.1309 0.48045 0.0
H2437 H 0.33545 0.11869 0.47989 0.0
H2438 H 0.34716 0.13302 0.5394 0.0
H2439 H 0.31951 0.14446 0.54004 0.0
H2440 H 0.37296 0.13053 0.49282 0.0
H2441 H 0.33984 0.07911 0.53196 0.0
H2442 H 0.32792 0.09393 0.52097 0.0
H2443 H 0.34104 0.10103 0.54329 0.0
C2444 C 0.31675 0.13178 0.49327 0.0
C2445 C 0.3118 0.13844 0.51031 0.0
C2446 C 0.33234 0.12483 0.49296 0.0
C2447 C 0.34307 0.12467 0.50966 0.0
C2448 C 0.33883 0.13274 0.52643 0.0
H2449 H 0.43307 0.08903 0.55455 0.0
H2450 H 0.4114 0.10639 0.54367 0.0
C2451 C 0.32315 0.13932 0.52679 0.0
C2452 C 0.35752 0.11446 0.51013 0.0
H2453 H 0.37108 0.081 0.53057 0.0
C2454 C 0.37251 0.11957 0.50087 0.0
C2455 C 0.35668 0.09993 0.52035 0.0
C2456 C 0.34043 0.09304 0.52954 0.0
C2457 C 0.38716 0.11107 0.50251 0.0
C2458 C 0.38665 0.09732 0.51366 0.0
C2459 C 0.37138 0.09172 0.52218 0.0
C2460 C 0.40216 0.08912 0.51785 0.0
C2461 C 0.4033 0.11704 0.49286 0.0
C2462 C 0.40427 0.07395 0.50666 0.0
C2463 C 0.4167 0.06412 0.5128 0.0
C2464 C 0.42686 0.06926 0.53028 0.0
C2465 C 0.42531 0.0849 0.54102 0.0
C2466 C 0.41306 0.09481 0.5348 0.0
H2467 H 0.40131 0.12739 0.48395 0.0
H2468 H 0.41504 0.1223 0.50344 0.0
H2469 H 0.4064 0.10563 0.48411 0.0
H2470 H 0.39569 0.06927 0.49368 0.0
H2471 H 0.41764 0.05198 0.50443 0.0
H2472 H 0.64111 0.60603 0.2691 0.0
H2473 H 0.66302 0.63316 0.27022 0.0
H2474 H 0.70263 0.61028 0.29976 0.0
H2475 H 0.6808 0.58271 0.29822 0.0
H2476 H 0.68158 0.65592 0.29923 0.0
H2477 H 0.72835 0.62696 0.257 0.0
H2478 H 0.70624 0.61508 0.25899 0.0
H2479 H 0.72395 0.617 0.27762 0.0
C2480 C 0.65446 0.60671 0.27589 0.0
C2481 C 0.6592 0.59212 0.28349 0.0
C2482 C 0.66699 0.62227 0.27652 0.0
C2483 C 0.68455 0.62369 0.28482 0.0
C2484 C 0.68927 0.60934 0.29289 0.0
H2485 H 0.76262 0.72363 0.30388 0.0
H2486 H 0.74532 0.69468 0.308 0.0
C2487 C 0.67675 0.59363 0.2921 0.0
C2488 C 0.69774 0.64025 0.28482 0.0
H2489 H 0.73659 0.65727 0.2682 0.0
C2490 C 0.69369 0.65618 0.29259 0.0
C2491 C 0.71347 0.6406 0.27599 0.0
C2492 C 0.71825 0.62403 0.26677 0.0
C2493 C 0.70478 0.67243 0.29154 0.0
C2494 C 0.72037 0.67273 0.28261 0.0
C2495 C 0.72464 0.65687 0.27513 0.0
C2496 C 0.73177 0.68951 0.2799 0.0
C2497 C 0.69952 0.68926 0.29935 0.0
C2498 C 0.73013 0.69584 0.26263 0.0
C2499 C 0.74018 0.71213 0.26019 0.0
C2500 C 0.75191 0.72229 0.27503 0.0
C2501 C 0.75383 0.71581 0.2922 0.0
C2502 C 0.74389 0.69943 0.29459 0.0
H2503 H 0.68671 0.68678 0.30548 0.0
H2504 H 0.71013 0.6967 0.31028 0.0
H2505 H 0.69819 0.69771 0.28815 0.0
H2506 H 0.72078 0.68835 0.25117 0.0
H2507 H 0.73848 0.71699 0.24688 0.0
H2508 H 0.86965 0.45681 0.81035 0.0
H2509 H 0.85171 0.42732 0.81098 0.0
H2510 H 0.8287 0.42699 0.75434 0.0
H2511 H 0.84697 0.45625 0.75358 0.0
H2512 H 0.81322 0.41426 0.80277 0.0
H2513 H 0.85452 0.38429 0.7543 0.0
H2514 H 0.8616 0.40617 0.76691 0.0
H2515 H 0.84582 0.4024 0.74627 0.0
C2516 C 0.8607 0.4503 0.79814 0.0
C2517 C 0.85964 0.45819 0.7818 0.0
C2518 C 0.85047 0.43372 0.79855 0.0
C2519 C 0.8392 0.42523 0.78264 0.0
C2520 C 0.8376 0.4335 0.76659 0.0
H2521 H 0.77217 0.32441 0.74859 0.0
H2522 H 0.78615 0.3559 0.75236 0.0
C2523 C 0.84796 0.44998 0.76612 0.0
C2524 C 0.83003 0.40715 0.78222 0.0
H2525 H 0.82784 0.36593 0.76011 0.0
C2526 C 0.81638 0.40362 0.79355 0.0
C2527 C 0.83463 0.39353 0.77035 0.0
C2528 C 0.85006 0.39671 0.75889 0.0
C2529 C 0.80662 0.38653 0.79275 0.0
C2530 C 0.81078 0.37314 0.78029 0.0
C2531 C 0.82467 0.37659 0.76932 0.0
C2532 C 0.80133 0.35513 0.77884 0.0
C2533 C 0.79186 0.38281 0.80493 0.0
C2534 C 0.80567 0.34481 0.79247 0.0
C2535 C 0.798 0.3271 0.79022 0.0
C2536 C 0.78607 0.31983 0.77434 0.0
C2537 C 0.78151 0.33012 0.7608 0.0
C2538 C 0.78929 0.34788 0.763 0.0
H2539 H 0.78906 0.39507 0.81237 0.0
H2540 H 0.77943 0.37539 0.7964 0.0
H2541 H 0.79572 0.37442 0.81541 0.0
H2542 H 0.8152 0.35041 0.80457 0.0
H2543 H 0.80135 0.31904 0.80077 0.0
H2544 H 0.03848 0.85141 0.10646 0.0
H2545 H 0.03497 0.87927 0.09546 0.0
H2546 H 0.05533 0.86346 0.04438 0.0
H2547 H 0.05839 0.83521 0.05517 0.0
H2548 H 0.05772 0.90618 0.08721 0.0
H2549 H 0.01243 0.8794 0.02245 0.0
H2550 H 0.01773 0.86564 0.03973 0.0
H2551 H 0.03321 0.87191 0.02341 0.0
C2552 C 0.04213 0.85373 0.0928 0.0
C2553 C 0.04862 0.84078 0.08172 0.0
C2554 C 0.04013 0.86982 0.08649 0.0
C2555 C 0.0445 0.87367 0.06882 0.0
C2556 C 0.05127 0.86087 0.0578 0.0
H2557 H 0.03688 0.96533 0.00815 0.0
H2558 H 0.04139 0.93704 0.0178 0.0
C2559 C 0.05317 0.84465 0.06408 0.0
C2560 C 0.0424 0.89121 0.06241 0.0
H2561 H 0.02309 0.91018 0.0273 0.0
C2562 C 0.05009 0.90698 0.0741 0.0
C2563 C 0.03259 0.89263 0.04522 0.0
C2564 C 0.02337 0.87651 0.03204 0.0
C2565 C 0.04855 0.92379 0.06914 0.0
C2566 C 0.03843 0.92523 0.05211 0.0
C2567 C 0.03084 0.90944 0.04035 0.0
C2568 C 0.03559 0.94279 0.04617 0.0
C2569 C 0.05844 0.93981 0.08212 0.0
C2570 C 0.03043 0.95577 0.0585 0.0
C2571 C 0.02848 0.97224 0.05312 0.0
C2572 C 0.03082 0.97608 0.03495 0.0
C2573 C 0.03505 0.96288 0.02228 0.0
C2574 C 0.0376 0.9466 0.02784 0.0
H2575 H 0.07013 0.93683 0.09054 0.0
H2576 H 0.06324 0.95093 0.0744 0.0
H2577 H 0.04939 0.944 0.09201 0.0
H2578 H 0.02779 0.9532 0.07238 0.0
H2579 H 0.0248 0.98192 0.06314 0.0
H2580 H 0.9485 0.23747 0.87232 0.0
H2581 H 0.91928 0.23725 0.85503 0.0
H2582 H 0.91242 0.28088 0.89374 0.0
H2583 H 0.94162 0.28104 0.91103 0.0
H2584 H 0.88332 0.23471 0.86405 0.0
H2585 H 0.90979 0.29993 0.84301 0.0
H2586 H 0.92407 0.28667 0.85333 0.0
H2587 H 0.91189 0.29928 0.86772 0.0
C2588 C 0.94044 0.24657 0.87753 0.0
C2589 C 0.94718 0.25897 0.89334 0.0
C2590 C 0.92379 0.24657 0.86752 0.0
C2591 C 0.91364 0.25923 0.87281 0.0
C2592 C 0.92 0.2711 0.88915 0.0
H2593 H 0.81811 0.29072 0.82175 0.0
H2594 H 0.84486 0.28781 0.84158 0.0
C2595 C 0.93659 0.27101 0.89923 0.0
C2596 C 0.89704 0.26065 0.86071 0.0
H2597 H 0.87904 0.28828 0.83414 0.0
C2598 C 0.88241 0.24642 0.8575 0.0
C2599 C 0.89575 0.27586 0.85197 0.0
C2600 C 0.91124 0.29127 0.85399 0.0
C2601 C 0.86651 0.24715 0.84629 0.0
C2602 C 0.86519 0.2624 0.8376 0.0
C2603 C 0.87988 0.27659 0.84075 0.0
C2604 C 0.84866 0.26399 0.82542 0.0
C2605 C 0.85105 0.23173 0.84429 0.0
C2606 C 0.84183 0.25182 0.80941 0.0
C2607 C 0.82633 0.25339 0.79819 0.0
C2608 C 0.81721 0.26711 0.80271 0.0
C2609 C 0.8243 0.27955 0.81838 0.0
C2610 C 0.83981 0.27802 0.82958 0.0
H2611 H 0.85226 0.22344 0.85566 0.0
H2612 H 0.83813 0.23624 0.84431 0.0
H2613 H 0.85083 0.22335 0.83088 0.0
H2614 H 0.84857 0.24116 0.80545 0.0
H2615 H 0.82138 0.24377 0.78603 0.0
H2616 H 0.55478 0.23066 0.55852 0.0
H2617 H 0.55124 0.19956 0.54455 0.0
H2618 H 0.53088 0.18242 0.59404 0.0
H2619 H 0.53432 0.21294 0.60781 0.0
H2620 H 0.56742 0.17249 0.5583 0.0
H2621 H 0.49402 0.15245 0.55372 0.0
H2622 H 0.50519 0.17529 0.55686 0.0
H2623 H 0.50388 0.16305 0.57645 0.0
C2624 C 0.54919 0.22026 0.56622 0.0
C2625 C 0.54476 0.2245 0.58433 0.0
C2626 C 0.54729 0.20241 0.55828 0.0
C2627 C 0.54056 0.18838 0.56808 0.0
C2628 C 0.53577 0.19274 0.58591 0.0
H2629 H 0.52294 0.07331 0.56087 0.0
H2630 H 0.52465 0.10508 0.56889 0.0
C2631 C 0.53785 0.21037 0.59385 0.0
C2632 C 0.53928 0.16922 0.56047 0.0
H2633 H 0.51042 0.12912 0.55217 0.0
C2634 C 0.55489 0.16307 0.5567 0.0
C2635 C 0.52302 0.15665 0.55848 0.0
C2636 C 0.50554 0.16219 0.56141 0.0
C2637 C 0.55484 0.14491 0.55178 0.0
C2638 C 0.53861 0.1323 0.55009 0.0
C2639 C 0.52294 0.13853 0.5535 0.0
C2640 C 0.5376 0.11269 0.54505 0.0
C2641 C 0.5724 0.13938 0.54926 0.0
C2642 C 0.544 0.10595 0.52877 0.0
C2643 C 0.5431 0.08772 0.52419 0.0
C2644 C 0.53564 0.07549 0.53562 0.0
C2645 C 0.52892 0.08219 0.55173 0.0
C2646 C 0.52986 0.10046 0.55634 0.0
H2647 H 0.5839 0.14953 0.5563 0.0
H2648 H 0.57302 0.12675 0.5548 0.0
H2649 H 0.57392 0.13757 0.53419 0.0
H2650 H 0.54951 0.11479 0.51938 0.0
H2651 H 0.54809 0.08323 0.51146 0.0
H2652 H 0.54294 0.73617 0.38899 0.0
H2653 H 0.56922 0.73798 0.37198 0.0
H2654 H 0.58994 0.79036 0.4007 0.0
H2655 H 0.56438 0.78792 0.41866 0.0
H2656 H 0.58133 0.75675 0.3481 0.0
H2657 H 0.63402 0.77224 0.4078 0.0
H2658 H 0.6108 0.76559 0.41077 0.0
H2659 H 0.62008 0.78831 0.40894 0.0
C2660 C 0.55331 0.74794 0.39186 0.0
C2661 C 0.55179 0.76177 0.40539 0.0
C2662 C 0.56833 0.74901 0.38208 0.0
C2663 C 0.58203 0.76414 0.38528 0.0
C2664 C 0.58015 0.77819 0.39845 0.0
H2665 H 0.67012 0.81321 0.33359 0.0
H2666 H 0.64663 0.80349 0.35278 0.0
C2667 C 0.56541 0.77687 0.40865 0.0
C2668 C 0.59782 0.76556 0.37433 0.0
H2669 H 0.64326 0.7793 0.37831 0.0
C2670 C 0.59488 0.76144 0.35479 0.0
C2671 C 0.61569 0.77138 0.38286 0.0
C2672 C 0.62034 0.77442 0.40375 0.0
C2673 C 0.609 0.76394 0.34364 0.0
C2674 C 0.62668 0.77081 0.35215 0.0
C2675 C 0.62973 0.77424 0.37169 0.0
C2676 C 0.6419 0.77604 0.34109 0.0
C2677 C 0.60474 0.75986 0.32275 0.0
C2678 C 0.64763 0.7638 0.32842 0.0
C2679 C 0.66129 0.76937 0.31748 0.0
C2680 C 0.66938 0.7873 0.31888 0.0
C2681 C 0.66404 0.79935 0.33203 0.0
C2682 C 0.6506 0.79378 0.34305 0.0
H2683 H 0.5902 0.758 0.31821 0.0
H2684 H 0.61191 0.77055 0.31576 0.0
H2685 H 0.60919 0.7475 0.31798 0.0
H2686 H 0.64142 0.74998 0.32685 0.0
H2687 H 0.66508 0.75977 0.30747 0.0
H2688 H 0.02983 0.22758 0.36554 0.0
H2689 H 0.02854 0.20128 0.38146 0.0
H2690 H 0.04081 0.23417 0.4345 0.0
H2691 H 0.04212 0.26052 0.41871 0.0
H2692 H 0.05507 0.1913 0.40641 0.0
H2693 H 0.99473 0.19931 0.44025 0.0
H2694 H 0.00127 0.21081 0.42101 0.0
H2695 H 0.01224 0.21857 0.44417 0.0
C2696 C 0.03221 0.22924 0.38061 0.0
C2697 C 0.03597 0.24622 0.39084 0.0
C2698 C 0.03153 0.21416 0.38969 0.0
C2699 C 0.03438 0.21568 0.40922 0.0
C2700 C 0.0383 0.23261 0.41945 0.0
H2701 H 0.02743 0.14348 0.49219 0.0
H2702 H 0.03597 0.16884 0.47547 0.0
C2703 C 0.0391 0.24769 0.41038 0.0
C2704 C 0.03317 0.19962 0.41894 0.0
H2705 H 0.01019 0.17767 0.45014 0.0
C2706 C 0.04523 0.18828 0.41593 0.0
C2707 C 0.02026 0.19556 0.43128 0.0
C2708 C 0.00626 0.20658 0.43429 0.0
C2709 C 0.04501 0.1733 0.4253 0.0
C2710 C 0.03228 0.16945 0.4379 0.0
C2711 C 0.02012 0.1807 0.4407 0.0
C2712 C 0.03088 0.15366 0.44809 0.0
C2713 C 0.05863 0.16194 0.42197 0.0
C2714 C 0.02582 0.13651 0.43839 0.0
C2715 C 0.02108 0.12197 0.44801 0.0
C2716 C 0.0214 0.12427 0.46749 0.0
C2717 C 0.02758 0.14125 0.47725 0.0
C2718 C 0.03225 0.15578 0.46765 0.0
H2719 H 0.06995 0.16883 0.41541 0.0
H2720 H 0.06394 0.15793 0.43523 0.0
H2721 H 0.05217 0.14982 0.4125 0.0
H2722 H 0.02428 0.1345 0.42331 0.0
H2723 H 0.0158 0.10914 0.4401 0.0
H2724 H 0.56723 0.2335 0.21617 0.0
H2725 H 0.59895 0.23549 0.22763 0.0
H2726 H 0.61254 0.28426 0.20472 0.0
H2727 H 0.58098 0.28196 0.19273 0.0
H2728 H 0.62976 0.23882 0.20455 0.0
H2729 H 0.63631 0.29448 0.26106 0.0
H2730 H 0.61499 0.28092 0.25141 0.0
H2731 H 0.62579 0.29757 0.2388 0.0
C2732 C 0.57697 0.24475 0.21379 0.0
C2733 C 0.57154 0.25769 0.20373 0.0
C2734 C 0.59514 0.24583 0.22027 0.0
C2735 C 0.60828 0.26012 0.21725 0.0
C2736 C 0.60277 0.27318 0.20743 0.0
H2737 H 0.72381 0.29551 0.24321 0.0
H2738 H 0.69179 0.29197 0.23388 0.0
C2739 C 0.58469 0.27187 0.20058 0.0
C2740 C 0.62775 0.26118 0.22383 0.0
H2741 H 0.66305 0.28566 0.25376 0.0
C2742 C 0.63699 0.24898 0.21542 0.0
C2743 C 0.63737 0.27445 0.23796 0.0
C2744 C 0.62816 0.28756 0.248 0.0
C2745 C 0.6555 0.24997 0.22036 0.0
C2746 C 0.66517 0.26332 0.23445 0.0
C2747 C 0.65584 0.27541 0.24297 0.0
C2748 C 0.68496 0.26525 0.24026 0.0
C2749 C 0.66468 0.23705 0.20993 0.0
C2750 C 0.69216 0.25155 0.24729 0.0
C2751 C 0.71065 0.25355 0.2527 0.0
C2752 C 0.7226 0.26933 0.25133 0.0
C2753 C 0.71528 0.28308 0.24448 0.0
C2754 C 0.69681 0.2811 0.23912 0.0
H2755 H 0.65666 0.23074 0.19656 0.0
H2756 H 0.67803 0.24364 0.20695 0.0
H2757 H 0.66654 0.2265 0.21858 0.0
H2758 H 0.68344 0.23929 0.24879 0.0
H2759 H 0.71552 0.24269 0.25801 0.0
H2760 H 0.55535 0.8721 0.87503 0.0
H2761 H 0.55361 0.89816 0.89627 0.0
H2762 H 0.52455 0.86505 0.93142 0.0
H2763 H 0.52686 0.83882 0.91053 0.0
H2764 H 0.52628 0.91151 0.90547 0.0
H2765 H 0.55987 0.89563 0.97053 0.0
H2766 H 0.56007 0.88312 0.94818 0.0
H2767 H 0.54086 0.87906 0.96068 0.0
C2768 C 0.54877 0.87029 0.8874 0.0
C2769 C 0.54139 0.85324 0.89107 0.0
C2770 C 0.54774 0.88529 0.89957 0.0
C2771 C 0.53921 0.88376 0.91577 0.0
C2772 C 0.53171 0.86673 0.91942 0.0
H2773 H 0.5145 0.96217 0.00053 0.0
H2774 H 0.51655 0.93521 0.98084 0.0
C2775 C 0.53295 0.85167 0.90735 0.0
C2776 C 0.53764 0.90004 0.92826 0.0
H2777 H 0.54578 0.92034 0.97338 0.0
C2778 C 0.53067 0.91342 0.9203 0.0
C2779 C 0.54321 0.9027 0.94772 0.0
C2780 C 0.55158 0.88945 0.95727 0.0
C2781 C 0.52901 0.92911 0.9311 0.0
C2782 C 0.5347 0.93179 0.95049 0.0
C2783 C 0.54145 0.91838 0.95853 0.0
C2784 C 0.53375 0.94838 0.96265 0.0
C2785 C 0.52082 0.94254 0.92167 0.0
C2786 C 0.54296 0.9649 0.95931 0.0
C2787 C 0.54195 0.9804 0.97072 0.0
C2788 C 0.53177 0.97979 0.98584 0.0
C2789 C 0.52271 0.96321 0.98925 0.0
C2790 C 0.52377 0.94773 0.97789 0.0
H2791 H 0.51281 0.93661 0.90818 0.0
H2792 H 0.5121 0.94863 0.93069 0.0
H2793 H 0.53162 0.95314 0.9188 0.0
H2794 H 0.55107 0.96582 0.94794 0.0
H2795 H 0.54922 0.99289 0.96772 0.0
H2796 H 0.96127 0.77442 0.6961 0.0
H2797 H 0.93244 0.77912 0.70576 0.0
H2798 H 0.92552 0.72957 0.72802 0.0
H2799 H 0.95449 0.7253 0.71929 0.0
H2800 H 0.89903 0.76372 0.69777 0.0
H2801 H 0.91565 0.75852 0.77215 0.0
H2802 H 0.93225 0.75957 0.75616 0.0
H2803 H 0.91788 0.73887 0.75804 0.0
C2804 C 0.95363 0.76456 0.70313 0.0
C2805 C 0.96047 0.74957 0.70709 0.0
C2806 C 0.93706 0.76726 0.70869 0.0
C2807 C 0.92675 0.75499 0.71825 0.0
C2808 C 0.9333 0.7397 0.72146 0.0
H2809 H 0.81833 0.73766 0.7507 0.0
H2810 H 0.84758 0.7353 0.74073 0.0
C2811 C 0.94993 0.73716 0.71624 0.0
C2812 C 0.90911 0.75791 0.72458 0.0
H2813 H 0.88461 0.75613 0.76177 0.0
C2814 C 0.89604 0.76221 0.71184 0.0
C2815 C 0.9049 0.75619 0.74302 0.0
C2816 C 0.9185 0.75324 0.75816 0.0
C2817 C 0.87902 0.76421 0.71678 0.0
C2818 C 0.87467 0.76175 0.73493 0.0
C2819 C 0.88774 0.75776 0.74776 0.0
C2820 C 0.85666 0.7633 0.74088 0.0
C2821 C 0.86558 0.76862 0.70245 0.0
C2822 C 0.85184 0.77982 0.74445 0.0
C2823 C 0.83511 0.78123 0.75033 0.0
C2824 C 0.82263 0.76617 0.75285 0.0
C2825 C 0.82749 0.74961 0.7491 0.0
C2826 C 0.84428 0.74822 0.74336 0.0
H2827 H 0.87016 0.7682 0.6884 0.0
H2828 H 0.85262 0.7593 0.70163 0.0
H2829 H 0.86322 0.78207 0.7067 0.0
H2830 H 0.86106 0.7917 0.74272 0.0
H2831 H 0.83188 0.79415 0.75256 0.0
H2832 H 0.07292 0.03429 0.82602 0.0
H2833 H 0.06402 0.02919 0.8567 0.0
H2834 H 0.11868 0.02946 0.8772 0.0
H2835 H 0.12769 0.0342 0.84627 0.0
H2836 H 0.07288 0.99938 0.87959 0.0
H2837 H 0.09813 0.06891 0.91195 0.0
H2838 H 0.09244 0.06317 0.88708 0.0
H2839 H 0.11233 0.05802 0.89827 0.0
C2840 C 0.08307 0.03324 0.83703 0.0
C2841 C 0.10103 0.03471 0.83372 0.0
C2842 C 0.07794 0.03026 0.85453 0.0
C2843 C 0.09068 0.029 0.86923 0.0
C2844 C 0.10864 0.03038 0.86603 0.0
H2845 H 0.06712 0.007 0.98208 0.0
H2846 H 0.08121 0.00768 0.95308 0.0
C2847 C 0.11376 0.03306 0.84836 0.0
C2848 C 0.08505 0.02665 0.88794 0.0
H2849 H 0.08293 0.04949 0.93034 0.0
C2850 C 0.07529 0.01024 0.89079 0.0
C2851 C 0.08808 0.0409 0.90246 0.0
C2852 C 0.09825 0.05882 0.89993 0.0
C2853 C 0.06825 0.00781 0.90772 0.0
C2854 C 0.07096 0.02217 0.92207 0.0
C2855 C 0.08098 0.03848 0.91933 0.0
C2856 C 0.06223 0.02093 0.93938 0.0
C2857 C 0.05741 0.99014 0.91003 0.0
C2858 C 0.04691 0.02809 0.94123 0.0
C2859 C 0.03886 0.02771 0.95767 0.0
C2860 C 0.04597 0.02018 0.97271 0.0
C2861 C 0.06127 0.01283 0.97075 0.0
C2862 C 0.06932 0.0132 0.95421 0.0
H2863 H 0.05631 0.98032 0.89747 0.0
H2864 H 0.06365 0.98501 0.92214 0.0
H2865 H 0.04377 0.99162 0.91295 0.0
H2866 H 0.04125 0.03414 0.92996 0.0
H2867 H 0.02722 0.03366 0.9587 0.0
H2868 H 0.76571 0.37025 0.53563 0.0
H2869 H 0.7621 0.35647 0.5638 0.0
H2870 H 0.80669 0.39479 0.59328 0.0
H2871 H 0.80995 0.40923 0.56511 0.0
H2872 H 0.78773 0.34226 0.58088 0.0
H2873 H 0.76891 0.394 0.62967 0.0
H2874 H 0.76729 0.39442 0.60477 0.0
H2875 H 0.78856 0.40124 0.6188 0.0
C2876 C 0.77479 0.37572 0.5481 0.0
C2877 C 0.78816 0.39068 0.54833 0.0
C2878 C 0.77255 0.36799 0.56417 0.0
C2879 C 0.78383 0.37496 0.58058 0.0
C2880 C 0.7975 0.38969 0.58081 0.0
H2881 H 0.82272 0.33914 0.67473 0.0
H2882 H 0.81091 0.35725 0.65298 0.0
C2883 C 0.79953 0.39768 0.56474 0.0
C2884 C 0.78251 0.36542 0.59672 0.0
H2885 H 0.77768 0.36954 0.64293 0.0
C2886 C 0.78517 0.34806 0.59438 0.0
C2887 C 0.77918 0.37322 0.61416 0.0
C2888 C 0.77566 0.3917 0.61702 0.0
C2889 C 0.78551 0.33841 0.60933 0.0
C2890 C 0.78278 0.34635 0.62697 0.0
C2891 C 0.77946 0.36353 0.62924 0.0
C2892 C 0.78663 0.33802 0.64348 0.0
C2893 C 0.78993 0.32024 0.60637 0.0
C2894 C 0.77639 0.32169 0.64573 0.0
C2895 C 0.78324 0.31131 0.65789 0.0
C2896 C 0.80028 0.31732 0.66774 0.0
C2897 C 0.80977 0.33424 0.66669 0.0
C2898 C 0.80291 0.34463 0.65463 0.0
H2899 H 0.79426 0.31724 0.59242 0.0
H2900 H 0.80073 0.3189 0.6171 0.0
H2901 H 0.77793 0.31022 0.60758 0.0
H2902 H 0.76377 0.31652 0.63715 0.0
H2903 H 0.77566 0.29835 0.65902 0.0
H2904 H 0.42439 0.98241 0.33962 0.0
H2905 H 0.43603 0.98545 0.37251 0.0
H2906 H 0.41589 0.03347 0.38278 0.0
H2907 H 0.40358 0.03012 0.35006 0.0
H2908 H 0.46109 0.01958 0.37883 0.0
H2909 H 0.41443 0.01084 0.43302 0.0
H2910 H 0.40909 0.99845 0.40999 0.0
H2911 H 0.40856 0.02149 0.41318 0.0
C2912 C 0.42201 0.99328 0.34908 0.0
C2913 C 0.41376 0.00639 0.34252 0.0
C2914 C 0.42832 0.99482 0.36778 0.0
C2915 C 0.42676 0.00969 0.37977 0.0
C2916 C 0.41689 0.0218 0.37364 0.0
H2917 H 0.49612 0.04904 0.48268 0.0
H2918 H 0.47544 0.04891 0.455 0.0
C2919 C 0.41019 0.02004 0.35498 0.0
C2920 C 0.43976 0.01513 0.39615 0.0
H2921 H 0.44526 0.0196 0.44336 0.0
C2922 C 0.45767 0.01967 0.39298 0.0
C2923 C 0.43495 0.01572 0.41434 0.0
C2924 C 0.41572 0.01135 0.418 0.0
C2925 C 0.47121 0.02379 0.40775 0.0
C2926 C 0.4665 0.02324 0.4259 0.0
C2927 C 0.44855 0.01983 0.4292 0.0
C2928 C 0.48005 0.02426 0.44145 0.0
C2929 C 0.4904 0.02813 0.40384 0.0
C2930 C 0.48939 0.01047 0.44248 0.0
C2931 C 0.50116 0.01047 0.45815 0.0
C2932 C 0.50341 0.02419 0.47282 0.0
C2933 C 0.49441 0.03825 0.47148 0.0
C2934 C 0.4827 0.03826 0.4558 0.0
H2935 H 0.49146 0.03263 0.38994 0.0
H2936 H 0.49843 0.03849 0.41464 0.0
H2937 H 0.49628 0.01613 0.40401 0.0
H2938 H 0.48712 0.99948 0.43145 0.0
H2939 H 0.5079 0.99947 0.45913 0.0
H2940 H 0.74949 0.66945 0.08143 0.0
H2941 H 0.75265 0.68644 0.11202 0.0
H2942 H 0.78633 0.7298 0.09268 0.0
H2943 H 0.78297 0.71279 0.06152 0.0
H2944 H 0.78335 0.69945 0.13602 0.0
H2945 H 0.74989 0.75387 0.11745 0.0
H2946 H 0.74811 0.73378 0.10181 0.0
H2947 H 0.7682 0.75031 0.10477 0.0
C2948 C 0.75754 0.68263 0.08352 0.0
C2949 C 0.76598 0.68973 0.0689 0.0
C2950 C 0.75934 0.69234 0.10113 0.0
C2951 C 0.76963 0.70945 0.10472 0.0
C2952 C 0.77807 0.71672 0.09019 0.0
H2953 H 0.785 0.78044 0.21075 0.0
H2954 H 0.78611 0.76825 0.17825 0.0
C2955 C 0.77618 0.70698 0.07239 0.0
C2956 C 0.77153 0.71924 0.12385 0.0
H2957 H 0.76059 0.75468 0.14903 0.0
C2958 C 0.77847 0.7116 0.13885 0.0
C2959 C 0.76527 0.73513 0.12758 0.0
C2960 C 0.75732 0.74376 0.11211 0.0
C2961 C 0.77902 0.71919 0.1574 0.0
C2962 C 0.77209 0.73472 0.16118 0.0
C2963 C 0.76576 0.74272 0.14617 0.0
C2964 C 0.77077 0.74247 0.18059 0.0
C2965 C 0.78712 0.7105 0.17275 0.0
C2966 C 0.76135 0.73225 0.19259 0.0
C2967 C 0.76089 0.73915 0.21109 0.0
C2968 C 0.7694 0.75653 0.21783 0.0
C2969 C 0.77813 0.76706 0.20571 0.0
C2970 C 0.77884 0.76007 0.18723 0.0
H2971 H 0.79664 0.70245 0.1676 0.0
H2972 H 0.79424 0.72041 0.18448 0.0
H2973 H 0.77634 0.70155 0.17812 0.0
H2974 H 0.75455 0.71884 0.18771 0.0
H2975 H 0.75408 0.73081 0.22024 0.0
H2976 H 0.10332 0.05638 0.7278 0.0
H2977 H 0.08934 0.05634 0.69592 0.0
H2978 H 0.094 0.00212 0.68237 0.0
H2979 H 0.10793 0.00221 0.71427 0.0
H2980 H 0.1036 0.0496 0.66216 0.0
H2981 H 0.04122 1.00141 0.66509 0.0
H2982 H 0.05577 0.01215 0.68573 0.0
H2983 H 0.06132 0.99378 0.67185 0.0
C2984 C 0.10115 0.04445 0.718 0.0
C2985 C 0.10645 0.02924 0.72338 0.0
C2986 C 0.09325 0.04443 0.69982 0.0
C2987 C 0.09038 0.02916 0.68681 0.0
C2988 C 0.09575 0.01395 0.69225 0.0
H2989 H 0.05493 0.00325 0.5688 0.0
H2990 H 0.06702 0.00411 0.6013 0.0
C2991 C 0.10374 0.014 0.71041 0.0
C2992 C 0.08224 0.02927 0.66742 0.0
H2993 H 0.0468 0.00941 0.63526 0.0
C2994 C 0.09111 0.04091 0.65633 0.0
C2995 C 0.06594 0.01793 0.6598 0.0
C2996 C 0.05539 0.00571 0.67125 0.0
C2997 C 0.08431 0.04123 0.63773 0.0
C2998 C 0.06813 0.02975 0.6301 0.0
C2999 C 0.05921 0.01819 0.64118 0.0
C3000 C 0.06049 0.02928 0.61047 0.0
C3001 C 0.0946 0.05354 0.62619 0.0
C3002 C 0.05246 0.04299 0.60491 0.0
C3003 C 0.04522 0.04239 0.58636 0.0
C3004 C 0.04624 0.02828 0.57293 0.0
C3005 C 0.05413 0.01448 0.57868 0.0
C3006 C 0.06104 0.01491 0.59727 0.0
H3007 H 0.10812 0.05977 0.63329 0.0
H3008 H 0.09601 0.04633 0.61253 0.0
H3009 H 0.08714 0.06411 0.62343 0.0
H3010 H 0.05173 0.05413 0.61495 0.0
H3011 H 0.0391 0.05307 0.58257 0.0
H3012 H 0.78064 0.37302 0.45672 0.0
H3013 H 0.77953 0.35126 0.4298 0.0
H3014 H 0.78829 0.39259 0.39486 0.0
H3015 H 0.78944 0.41481 0.42196 0.0
H3016 H 0.75159 0.35953 0.39343 0.0
H3017 H 0.81977 0.34529 0.3875 0.0
H3018 H 0.81279 0.35138 0.40994 0.0
H3019 H 0.81677 0.36751 0.39431 0.0
C3020 C 0.78275 0.37757 0.44341 0.0
C3021 C 0.78488 0.39552 0.44122 0.0
C3022 C 0.78223 0.36514 0.42817 0.0
C3023 C 0.78398 0.37056 0.41071 0.0
C3024 C 0.78707 0.38846 0.4085 0.0
H3025 H 0.76506 0.32547 0.30095 0.0
H3026 H 0.76578 0.34289 0.33079 0.0
C3027 C 0.78751 0.401 0.42381 0.0
C3028 C 0.77929 0.35736 0.39453 0.0
H3029 H 0.79619 0.32941 0.36522 0.0
C3030 C 0.76126 0.35286 0.3872 0.0
C3031 C 0.79207 0.34871 0.38705 0.0
C3032 C 0.81149 0.35336 0.39502 0.0
C3033 C 0.75567 0.33999 0.3719 0.0
C3034 C 0.76851 0.33172 0.36403 0.0
C3035 C 0.78648 0.33584 0.37168 0.0
C3036 C 0.76409 0.32063 0.34629 0.0
C3037 C 0.73627 0.33552 0.36386 0.0
C3038 C 0.76204 0.30238 0.34545 0.0
C3039 C 0.7616 0.2923 0.32838 0.0
C3040 C 0.76371 0.3005 0.31227 0.0
C3041 C 0.76395 0.31868 0.31313 0.0
C3042 C 0.76427 0.32871 0.33012 0.0
H3043 H 0.72763 0.34147 0.37309 0.0
H3044 H 0.7348 0.34044 0.35016 0.0
H3045 H 0.73157 0.32099 0.36149 0.0
H3046 H 0.76169 0.29611 0.35803 0.0
H3047 H 0.76058 0.27835 0.32811 0.0
H3048 H 0.37791 0.00621 0.22123 0.0
H3049 H 0.39304 0.00241 0.1933 0.0
H3050 H 0.44386 0.02439 0.22588 0.0
H3051 H 0.42905 0.02807 0.25371 0.0
H3052 H 0.41385 0.0314 0.18013 0.0
H3053 H 0.45305 0.98032 0.1951 0.0
H3054 H 0.434 0.98352 0.20693 0.0
H3055 H 0.45547 0.9976 0.21418 0.0
C3056 C 0.3923 0.01019 0.22237 0.0
C3057 C 0.40235 0.01768 0.23945 0.0
C3058 C 0.40086 0.00788 0.20654 0.0
C3059 C 0.41945 0.01298 0.20779 0.0
C3060 C 0.4295 0.02011 0.22487 0.0
H3061 H 0.50276 0.01869 0.14077 0.0
H3062 H 0.48421 0.02957 0.16329 0.0
C3063 C 0.42101 0.02239 0.24064 0.0
C3064 C 0.4284 0.0128 0.19104 0.0
H3065 H 0.46287 0.99859 0.17234 0.0
C3066 C 0.42445 0.02411 0.17819 0.0
C3067 C 0.44215 0.00325 0.18886 0.0
C3068 C 0.44631 0.99036 0.20192 0.0
C3069 C 0.43455 0.02668 0.16338 0.0
C3070 C 0.44871 0.01762 0.16161 0.0
C3071 C 0.45225 0.0059 0.17417 0.0
C3072 C 0.45925 0.0185 0.14598 0.0
C3073 C 0.43029 0.03924 0.15004 0.0
C3074 C 0.45121 0.00985 0.1285 0.0
C3075 C 0.46175 0.00372 0.11574 0.0
C3076 C 0.48023 0.00614 0.1206 0.0
C3077 C 0.48843 0.01656 0.13712 0.0
C3078 C 0.47792 0.02292 0.14976 0.0
H3079 H 0.42201 0.04831 0.15594 0.0
H3080 H 0.44273 0.04716 0.14633 0.0
H3081 H 0.4227 0.03157 0.13705 0.0
H3082 H 0.43681 0.00613 0.12553 0.0
H3083 H 0.45538 0.99578 0.10284 0.0
H3084 H 0.77764 0.67061 0.93772 0.0
H3085 H 0.77944 0.68268 0.9082 0.0
H3086 H 0.76339 0.72961 0.93236 0.0
H3087 H 0.76188 0.71774 0.96215 0.0
H3088 H 0.75368 0.69298 0.88497 0.0
H3089 H 0.80905 0.74952 0.91134 0.0
H3090 H 0.80298 0.73132 0.92434 0.0
H3091 H 0.7901 0.74843 0.92417 0.0
C3092 C 0.7746 0.68356 0.93683 0.0
C3093 C 0.76984 0.69332 0.95239 0.0
C3094 C 0.77556 0.6904 0.9199 0.0
C3095 C 0.77182 0.70715 0.91813 0.0
C3096 C 0.76673 0.71681 0.93352 0.0
H3097 H 0.76484 0.7699 0.82858 0.0
H3098 H 0.76413 0.75692 0.85753 0.0
C3099 C 0.76584 0.71001 0.95053 0.0
C3100 C 0.77333 0.71446 0.90018 0.0
H3101 H 0.79509 0.74899 0.88066 0.0
C3102 C 0.76281 0.70517 0.884 0.0
C3103 C 0.78532 0.73032 0.89891 0.0
C3104 C 0.79764 0.74042 0.91556 0.0
C3105 C 0.76368 0.71154 0.86669 0.0
C3106 C 0.77551 0.72748 0.86553 0.0
C3107 C 0.78609 0.73672 0.88163 0.0
C3108 C 0.77644 0.73528 0.84789 0.0
C3109 C 0.75164 0.70148 0.84982 0.0
C3110 C 0.78381 0.72748 0.8329 0.0
C3111 C 0.78448 0.73501 0.81629 0.0
C3112 C 0.77778 0.75046 0.81444 0.0
C3113 C 0.77045 0.75818 0.82957 0.0
C3114 C 0.76991 0.75074 0.84614 0.0
H3115 H 0.74147 0.69073 0.85354 0.0
H3116 H 0.74471 0.71053 0.84242 0.0
H3117 H 0.75982 0.69559 0.84001 0.0
H3118 H 0.78904 0.71558 0.83407 0.0
H3119 H 0.79013 0.72872 0.80488 0.0
H3120 H 0.80598 0.09979 0.01761 0.0
H3121 H 0.83582 0.09375 0.01524 0.0
H3122 H 0.84296 0.09119 0.07446 0.0
H3123 H 0.81251 0.09645 0.07668 0.0
H3124 H 0.8693 0.11035 0.03232 0.0
H3125 H 0.84805 0.0425 0.05071 0.0
H3126 H 0.8323 0.05631 0.04526 0.0
H3127 H 0.84585 0.06057 0.06741 0.0
C3128 C 0.81397 0.09787 0.03006 0.0
C3129 C 0.80714 0.09803 0.04721 0.0
C3130 C 0.83097 0.09465 0.02876 0.0
C3131 C 0.84134 0.0919 0.04468 0.0
C3132 C 0.83487 0.09298 0.06205 0.0
H3133 H 0.94447 0.06554 0.02485 0.0
H3134 H 0.92169 0.0762 0.04213 0.0
C3135 C 0.81761 0.09582 0.06328 0.0
C3136 C 0.85812 0.08615 0.04232 0.0
H3137 H 0.87583 0.04905 0.03941 0.0
C3138 C 0.87105 0.09714 0.03433 0.0
C3139 C 0.85989 0.06875 0.04464 0.0
C3140 C 0.84577 0.05625 0.05234 0.0
C3141 C 0.8854 0.09078 0.02763 0.0
C3142 C 0.88688 0.07327 0.02949 0.0
C3143 C 0.87452 0.06256 0.03833 0.0
C3144 C 0.90006 0.06537 0.02031 0.0
C3145 C 0.89821 0.10231 0.01746 0.0
C3146 C 0.89506 0.05574 0.00257 0.0
C3147 C 0.90796 0.04999 0.99263 0.0
C3148 C 0.92583 0.05371 0.00052 0.0
C3149 C 0.93068 0.06275 0.01858 0.0
C3150 C 0.91781 0.06869 0.02843 0.0
H3151 H 0.89471 0.11544 0.01657 0.0
H3152 H 0.91196 0.10418 0.02471 0.0
H3153 H 0.89825 0.09575 0.00311 0.0
H3154 H 0.88129 0.05317 0.99626 0.0
H3155 H 0.90405 0.04271 0.97882 0.0
H3156 H 0.34127 0.41847 -0.00126 0.0
H3157 H 0.37239 0.43331 0.00055 0.0
H3158 H 0.37893 0.43152 0.05983 0.0
H3159 H 0.34761 0.41604 0.05793 0.0
H3160 H 0.38375 0.46619 0.02188 0.0
H3161 H 0.42548 0.41863 0.04307 0.0
H3162 H 0.4024 0.41163 0.03314 0.0
H3163 H 0.4078 0.42189 0.05684 0.0
C3164 C 0.34946 0.42089 0.0121 0.0
C3165 C 0.3421 0.41625 0.02822 0.0
C3166 C 0.36722 0.42936 0.01311 0.0
C3167 C 0.37796 0.43355 0.0303 0.0
C3168 C 0.37093 0.42817 0.04638 0.0
H3169 H 0.48681 0.49543 0.05295 0.0
H3170 H 0.45751 0.47786 0.05606 0.0
C3171 C 0.35308 0.41939 0.04531 0.0
C3172 C 0.39568 0.44527 0.03132 0.0
H3173 H 0.44057 0.44703 0.03935 0.0
C3174 C 0.3962 0.46204 0.02577 0.0
C3175 C 0.41184 0.43989 0.03663 0.0
C3176 C 0.41199 0.42199 0.04266 0.0
C3177 C 0.41241 0.47352 0.02509 0.0
C3178 C 0.42864 0.46789 0.02962 0.0
C3179 C 0.42814 0.45129 0.03572 0.0
C3180 C 0.44624 0.47892 0.02785 0.0
C3181 C 0.41187 0.49162 0.01973 0.0
C3182 C 0.4497 0.48534 0.01096 0.0
C3183 C 0.4662 0.49583 0.00938 0.0
C3184 C 0.47973 0.4995 0.02445 0.0
C3185 C 0.47648 0.49278 0.04118 0.0
C3186 C 0.45981 0.48271 0.04293 0.0
H3187 H 0.39931 0.49588 0.02292 0.0
H3188 H 0.42334 0.50162 0.02706 0.0
H3189 H 0.41233 0.49126 0.00449 0.0
H3190 H 0.43971 0.48208 -0.0011 0.0
H3191 H 0.46862 0.50056 0.99621 0.0
H3192 H 0.36639 0.54581 0.76929 0.0
H3193 H 0.3518 0.57143 0.7709 0.0
H3194 H 0.39574 0.60124 0.74801 0.0
H3195 H 0.41062 0.57584 0.74676 0.0
H3196 H 0.37422 0.61026 0.79024 0.0
H3197 H 0.34234 0.60227 0.71684 0.0
H3198 H 0.34643 0.58352 0.72801 0.0
H3199 H 0.36479 0.59855 0.72163 0.0
C3200 C 0.37288 0.5578 0.76452 0.0
C3201 C 0.38964 0.55888 0.75795 0.0
C3202 C 0.36455 0.57237 0.76543 0.0
C3203 C 0.37267 0.58808 0.75941 0.0
C3204 C 0.38927 0.58916 0.75262 0.0
H3205 H 0.34247 0.69104 0.76408 0.0
H3206 H 0.3551 0.66501 0.75451 0.0
C3207 C 0.39776 0.5747 0.75201 0.0
C3208 C 0.36418 0.60365 0.7612 0.0
H3209 H 0.33752 0.62637 0.73721 0.0
C3210 C 0.36621 0.61382 0.77867 0.0
C3211 C 0.35395 0.60827 0.74598 0.0
C3212 C 0.35162 0.59763 0.72699 0.0
C3213 C 0.35805 0.62845 0.7814 0.0
C3214 C 0.34734 0.63279 0.76635 0.0
C3215 C 0.34562 0.62286 0.74873 0.0
C3216 C 0.33771 0.6475 0.76907 0.0
C3217 C 0.36097 0.63927 0.80037 0.0
C3218 C 0.3234 0.64603 0.77984 0.0
C3219 C 0.31629 0.66081 0.78533 0.0
C3220 C 0.3233 0.67719 0.77996 0.0
C3221 C 0.33684 0.67844 0.76821 0.0
C3222 C 0.34401 0.66364 0.76276 0.0
H3223 H 0.37211 0.63614 0.8095 0.0
H3224 H 0.3639 0.65356 0.79906 0.0
H3225 H 0.34862 0.63655 0.80723 0.0
H3226 H 0.31836 0.63364 0.78477 0.0
H3227 H 0.30588 0.65964 0.79445 0.0
H3228 H 0.2115 0.5851 0.50769 0.0
H3229 H 0.18102 0.56923 0.50807 0.0
H3230 H 0.17485 0.60558 0.55523 0.0
H3231 H 0.2053 0.62184 0.55465 0.0
H3232 H 0.16064 0.55453 0.53722 0.0
H3233 H 0.14096 0.61316 0.50937 0.0
H3234 H 0.16366 0.60972 0.51075 0.0
H3235 H 0.15458 0.61684 0.53149 0.0
C3236 C 0.20362 0.58956 0.51818 0.0
C3237 C 0.2102 0.60481 0.53076 0.0
C3238 C 0.18648 0.58041 0.51857 0.0
C3239 C 0.17605 0.58646 0.53164 0.0
C3240 C 0.18298 0.60099 0.54507 0.0
H3241 H 0.06689 0.56402 0.53821 0.0
H3242 H 0.09774 0.57802 0.53684 0.0
C3243 C 0.20007 0.61033 0.5445 0.0
C3244 C 0.15713 0.57945 0.52881 0.0
H3245 H 0.11822 0.58891 0.51044 0.0
C3246 C 0.15121 0.56195 0.53152 0.0
C3247 C 0.14534 0.5894 0.52112 0.0
C3248 C 0.1514 0.6083 0.51787 0.0
C3249 C 0.13329 0.55407 0.52695 0.0
C3250 C 0.12153 0.56399 0.51899 0.0
C3251 C 0.12757 0.58143 0.51619 0.0
C3252 C 0.10244 0.55755 0.51621 0.0
C3253 C 0.12706 0.5355 0.53117 0.0
C3254 C 0.09494 0.54214 0.50415 0.0
C3255 C 0.07741 0.53413 0.50507 0.0
C3256 C 0.06761 0.5419 0.51771 0.0
C3257 C 0.07448 0.55822 0.5282 0.0
C3258 C 0.09198 0.56607 0.52749 0.0
H3259 H 0.13729 0.5311 0.54042 0.0
H3260 H 0.11458 0.53447 0.53791 0.0
H3261 H 0.12424 0.52633 0.51796 0.0
H3262 H 0.10299 0.53571 0.4952 0.0
H3263 H 0.07203 0.5213 0.49717 0.0
H3264 H 0.71302 0.99527 0.72819 0.0
H3265 H 0.71889 0.96543 0.72255 0.0
H3266 H 0.69745 0.95334 0.77343 0.0
H3267 H 0.69087 0.98291 0.77872 0.0
H3268 H 0.74065 0.95194 0.7447 0.0
H3269 H 0.67347 0.91011 0.73794 0.0
H3270 H 0.67698 0.93327 0.73523 0.0
H3271 H 0.67677 0.92635 0.75807 0.0
C3272 C 0.70983 0.98628 0.73829 0.0
C3273 C 0.70183 0.99129 0.75406 0.0
C3274 C 0.71282 0.96922 0.73484 0.0
C3275 C 0.70799 0.95714 0.74722 0.0
C3276 C 0.70054 0.96233 0.76331 0.0
H3277 H 0.73303 0.88447 0.8058 0.0
H3278 H 0.71869 0.90271 0.78637 0.0
C3279 C 0.69723 0.97927 0.76659 0.0
C3280 C 0.71309 0.93991 0.74497 0.0
H3281 H 0.69808 0.89747 0.75159 0.0
C3282 C 0.73135 0.93981 0.74551 0.0
C3283 C 0.70077 0.92423 0.74577 0.0
C3284 C 0.68088 0.92348 0.74401 0.0
C3285 C 0.73795 0.92494 0.74944 0.0
C3286 C 0.72575 0.90977 0.75232 0.0
C3287 C 0.70731 0.90922 0.74947 0.0
C3288 C 0.73195 0.89628 0.76225 0.0
C3289 C 0.75796 0.92632 0.75255 0.0
C3290 C 0.74376 0.88643 0.75485 0.0
C3291 C 0.7524 0.87651 0.76612 0.0
C3292 C 0.74896 0.87603 0.78475 0.0
C3293 C 0.73622 0.88499 0.79166 0.0
C3294 C 0.72781 0.89512 0.78049 0.0
H3295 H 0.7654 0.93986 0.75192 0.0
H3296 H 0.76197 0.92246 0.76634 0.0
H3297 H 0.76208 0.91727 0.74166 0.0
H3298 H 0.74692 0.88712 0.74072 0.0
H3299 H 0.76223 0.86974 0.76045 0.0
H3300 H 0.71955 0.88183 0.51718 0.0
H3301 H 0.69435 0.89719 0.51511 0.0
H3302 H 0.72729 0.94341 0.54777 0.0
H3303 H 0.75261 0.92842 0.5493 0.0
H3304 H 0.67648 0.91209 0.54141 0.0
H3305 H 0.70993 0.96347 0.50238 0.0
H3306 H 0.71864 0.94394 0.50596 0.0
H3307 H 0.72247 0.96232 0.52416 0.0
C3308 C 0.72138 0.89526 0.52393 0.0
C3309 C 0.73808 0.90401 0.53323 0.0
C3310 C 0.70699 0.904 0.52276 0.0
C3311 C 0.70905 0.92156 0.53098 0.0
C3312 C 0.72553 0.93004 0.54089 0.0
H3313 H 0.63972 0.99824 0.52444 0.0
H3314 H 0.66179 0.98213 0.53732 0.0
C3315 C 0.73996 0.92142 0.54183 0.0
C3316 C 0.69409 0.93114 0.52895 0.0
H3317 H 0.68249 0.96746 0.5127 0.0
C3318 C 0.67778 0.92421 0.53515 0.0
C3319 C 0.69581 0.94694 0.52074 0.0
C3320 C 0.71259 0.95453 0.51276 0.0
C3321 C 0.66316 0.93272 0.53345 0.0
C3322 C 0.66491 0.94849 0.52524 0.0
C3323 C 0.68128 0.95551 0.51926 0.0
C3324 C 0.64961 0.95714 0.52094 0.0
C3325 C 0.646 0.9248 0.54046 0.0
C3326 C 0.6352 0.94829 0.50795 0.0
C3327 C 0.62273 0.95746 0.50059 0.0
C3328 C 0.62444 0.97559 0.50614 0.0
C3329 C 0.63808 0.98421 0.52013 0.0
C3330 C 0.65068 0.97504 0.52741 0.0
H3331 H 0.64837 0.91612 0.5512 0.0
H3332 H 0.63924 0.93521 0.54644 0.0
H3333 H 0.63685 0.91667 0.52867 0.0
H3334 H 0.63429 0.93459 0.5025 0.0
H3335 H 0.61235 0.95063 0.48972 0.0
H3336 H 0.39969 0.43744 0.73047 0.0
H3337 H 0.37919 0.40993 0.73258 0.0
H3338 H 0.35278 0.43736 0.77291 0.0
H3339 H 0.37286 0.4651 0.77033 0.0
H3340 H 0.3753 0.39274 0.76197 0.0
H3341 H 0.3104 0.40996 0.73881 0.0
H3342 H 0.33149 0.42353 0.73607 0.0
H3343 H 0.32284 0.42478 0.75823 0.0
C3344 C 0.38934 0.43767 0.73958 0.0
C3345 C 0.38783 0.45348 0.75014 0.0
C3346 C 0.37765 0.42192 0.74081 0.0
C3347 C 0.36426 0.42156 0.75272 0.0
C3348 C 0.36266 0.43735 0.76324 0.0
H3349 H 0.28785 0.3349 0.78362 0.0
H3350 H 0.30626 0.36368 0.78136 0.0
C3351 C 0.3742 0.4532 0.7618 0.0
C3352 C 0.35265 0.40448 0.75474 0.0
H3353 H 0.30918 0.38295 0.75135 0.0
C3354 C 0.36084 0.3906 0.75956 0.0
C3355 C 0.33376 0.40167 0.75172 0.0
C3356 C 0.32409 0.41572 0.74575 0.0
C3357 C 0.35072 0.37408 0.76152 0.0
C3358 C 0.33186 0.37126 0.75834 0.0
C3359 C 0.32364 0.38516 0.75377 0.0
C3360 C 0.32042 0.35389 0.75938 0.0
C3361 C 0.36033 0.35989 0.76724 0.0
C3362 C 0.32198 0.33893 0.74747 0.0
C3363 C 0.31145 0.32252 0.74868 0.0
C3364 C 0.29899 0.32078 0.76167 0.0
C3365 C 0.29712 0.33587 0.77326 0.0
C3366 C 0.30772 0.35228 0.77209 0.0
H3367 H 0.37408 0.36551 0.7741 0.0
H3368 H 0.35294 0.35202 0.77689 0.0
H3369 H 0.36141 0.35086 0.75466 0.0
H3370 H 0.33139 0.33993 0.73726 0.0
H3371 H 0.31318 0.31116 0.73952 0.0
H3372 H 0.18501 0.59627 0.21634 0.0
H3373 H 0.20163 0.62672 0.22373 0.0
H3374 H 0.22058 0.61579 0.27826 0.0
H3375 H 0.20491 0.58535 0.27061 0.0
H3376 H 0.1938 0.64858 0.25162 0.0
H3377 H 0.26516 0.64336 0.26324 0.0
H3378 H 0.24804 0.62532 0.25166 0.0
H3379 H 0.25132 0.6298 0.2767 0.0
C3380 C 0.19318 0.60037 0.22965 0.0
C3381 C 0.19392 0.58874 0.24292 0.0
C3382 C 0.20258 0.6176 0.23384 0.0
C3383 C 0.2124 0.62322 0.25141 0.0
C3384 C 0.2135 0.61143 0.26444 0.0
H3385 H 0.26067 0.73107 0.30052 0.0
H3386 H 0.24476 0.70033 0.29935 0.0
C3387 C 0.2045 0.59415 0.26009 0.0
C3388 C 0.21974 0.64183 0.25702 0.0
H3389 H 0.25808 0.67101 0.27361 0.0
C3390 C 0.20785 0.65352 0.25643 0.0
C3391 C 0.238 0.64797 0.2635 0.0
C3392 C 0.25138 0.63596 0.26365 0.0
C3393 C 0.21395 0.67149 0.26172 0.0
C3394 C 0.2322 0.67758 0.26789 0.0
C3395 C 0.24397 0.66592 0.2692 0.0
C3396 C 0.24002 0.69605 0.26922 0.0
C3397 C 0.20113 0.68395 0.25994 0.0
C3398 C 0.24248 0.70316 0.25263 0.0
C3399 C 0.25165 0.72022 0.25328 0.0
C3400 C 0.25834 0.73015 0.27053 0.0
C3401 C 0.25561 0.72324 0.28719 0.0
C3402 C 0.24654 0.70597 0.28654 0.0
H3403 H 0.18701 0.67701 0.25918 0.0
H3404 H 0.20402 0.69468 0.27185 0.0
H3405 H 0.20275 0.69009 0.24697 0.0
H3406 H 0.23759 0.69537 0.23922 0.0
H3407 H 0.2534 0.72571 0.24036 0.0
H3408 H 0.51497 0.69605 0.43349 0.0
H3409 H 0.51855 0.66837 0.44521 0.0
H3410 H 0.49676 0.6844 0.49523 0.0
H3411 H 0.49364 0.71253 0.48379 0.0
H3412 H 0.53819 0.66593 0.48702 0.0
H3413 H 0.46781 0.63065 0.46765 0.0
H3414 H 0.47775 0.64791 0.45497 0.0
H3415 H 0.47237 0.6534 0.47804 0.0
C3416 C 0.51085 0.69376 0.44699 0.0
C3417 C 0.50394 0.70673 0.45759 0.0
C3418 C 0.51297 0.67782 0.45372 0.0
C3419 C 0.50788 0.67401 0.47114 0.0
C3420 C 0.50082 0.68684 0.48175 0.0
H3421 H 0.49819 0.57345 0.52011 0.0
H3422 H 0.4945 0.60203 0.51073 0.0
C3423 C 0.49905 0.70301 0.47518 0.0
C3424 C 0.51019 0.65679 0.47816 0.0
H3425 H 0.48776 0.61502 0.48162 0.0
C3426 C 0.52714 0.65482 0.48587 0.0
C3427 C 0.49587 0.64217 0.47694 0.0
C3428 C 0.47736 0.64343 0.46893 0.0
C3429 C 0.53011 0.63895 0.49245 0.0
C3430 C 0.51588 0.62398 0.49067 0.0
C3431 C 0.49886 0.62611 0.48306 0.0
C3432 C 0.51828 0.60619 0.49661 0.0
C3433 C 0.54847 0.63881 0.50189 0.0
C3434 C 0.53268 0.59827 0.49179 0.0
C3435 C 0.53507 0.58207 0.49767 0.0
C3436 C 0.52281 0.5727 0.50803 0.0
C3437 C 0.50802 0.58019 0.51227 0.0
C3438 C 0.50587 0.59666 0.50679 0.0
H3439 H 0.55545 0.65229 0.50809 0.0
H3440 H 0.54785 0.6302 0.5131 0.0
H3441 H 0.55666 0.63399 0.49141 0.0
H3442 H 0.54211 0.6045 0.48324 0.0
H3443 H 0.54645 0.57669 0.49374 0.0
H3444 H 0.60271 0.26365 0.63013 0.0
H3445 H 0.6284 0.26036 0.65146 0.0
H3446 H 0.63858 0.31612 0.67057 0.0
H3447 H 0.61233 0.31913 0.64999 0.0
H3448 H 0.66257 0.27182 0.65486 0.0
H3449 H 0.64016 0.29938 0.71981 0.0
H3450 H 0.62581 0.29457 0.69802 0.0
H3451 H 0.64204 0.31489 0.70331 0.0
C3452 C 0.61048 0.27519 0.6389 0.0
C3453 C 0.60551 0.29166 0.63838 0.0
C3454 C 0.62519 0.27331 0.65116 0.0
C3455 C 0.63543 0.28789 0.66316 0.0
C3456 C 0.63071 0.30447 0.66212 0.0
H3457 H 0.73928 0.30296 0.73119 0.0
H3458 H 0.71273 0.30596 0.71085 0.0
C3459 C 0.61579 0.30627 0.65013 0.0
C3460 C 0.65113 0.28578 0.6764 0.0
H3461 H 0.67044 0.29555 0.72189 0.0
C3462 C 0.66414 0.27695 0.66951 0.0
C3463 C 0.65338 0.29224 0.69573 0.0
C3464 C 0.63951 0.30062 0.7047 0.0
C3465 C 0.67926 0.27483 0.68113 0.0
C3466 C 0.68171 0.28175 0.70022 0.0
C3467 C 0.66871 0.29039 0.70722 0.0
C3468 C 0.69768 0.28007 0.71305 0.0
C3469 C 0.6927 0.26525 0.67297 0.0
C3470 C 0.69806 0.26463 0.72135 0.0
C3471 C 0.71309 0.26304 0.73329 0.0
C3472 C 0.72826 0.27673 0.73692 0.0
C3473 C 0.72787 0.29215 0.72857 0.0
C3474 C 0.71269 0.29388 0.71696 0.0
H3475 H 0.68964 0.26167 0.65763 0.0
H3476 H 0.7063 0.27357 0.67615 0.0
H3477 H 0.69287 0.25302 0.67946 0.0
H3478 H 0.68671 0.25376 0.71854 0.0
H3479 H 0.71302 0.25094 0.73935 0.0
H3480 H 0.00627 0.31549 0.98108 0.0
H3481 H 0.0072 0.34586 0.99607 0.0
H3482 H 0.01405 0.36535 0.94358 0.0
H3483 H 0.01317 0.3358 0.92875 0.0
H3484 H 0.03447 0.37895 0.99782 0.0
H3485 H 0.97014 0.38412 0.9595 0.0
H3486 H 0.97664 0.36321 0.96167 0.0
H3487 H 0.98525 0.37648 0.94459 0.0
C3488 C 0.008 0.32624 0.97275 0.0
C3489 C 0.00953 0.32285 0.95355 0.0
C3490 C 0.00856 0.34367 0.98136 0.0
C3491 C 0.01044 0.35806 0.97094 0.0
C3492 C 0.01229 0.35464 0.95198 0.0
H3493 H 0.02719 0.4716 0.97829 0.0
H3494 H 0.02462 0.4397 0.97069 0.0
C3495 C 0.01183 0.3375 0.94349 0.0
C3496 C 0.01034 0.37671 0.97927 0.0
H3497 H 0.98929 0.41133 0.97302 0.0
C3498 C 0.02439 0.38591 0.99266 0.0
C3499 C 0.9973 0.38605 0.97257 0.0
C3500 C 0.98138 0.37694 0.95892 0.0
C3501 C 0.02606 0.40414 -0.00118 0.0
C3502 C 0.01339 0.41356 0.99153 0.0
C3503 C 0.9991 0.40426 0.97858 0.0
C3504 C 0.01511 0.43315 0.99656 0.0
C3505 C 0.04176 0.41351 0.01259 0.0
C3506 C 0.01047 0.44032 0.01361 0.0
C3507 C 0.01173 0.45867 0.01796 0.0
C3508 C 0.01781 0.47041 0.00543 0.0
C3509 C 0.02248 0.46313 0.98838 0.0
C3510 C 0.02102 0.4448 0.98397 0.0
H3511 H 0.05106 0.40468 0.01622 0.0
H3512 H 0.04922 0.42488 0.00678 0.0
H3513 H 0.03689 0.41878 0.02553 0.0
H3514 H 0.00578 0.4317 0.02357 0.0
H3515 H 0.00814 0.46365 0.03128 0.0
H3516 H 0.00613 0.80759 0.14463 0.0
H3517 H 0.97865 0.80883 0.15927 0.0
H3518 H 0.96363 0.75215 0.14857 0.0
H3519 H 0.99142 0.75089 0.13496 0.0
H3520 H 0.94273 0.79844 0.14957 0.0
H3521 H 0.96412 0.75966 0.20392 0.0
H3522 H 0.97886 0.76826 0.18779 0.0
H3523 H 0.96268 0.74809 0.18096 0.0
C3524 C 0.99676 0.79546 0.14516 0.0
C3525 C 0.00087 0.77913 0.13877 0.0
C3526 C 0.98111 0.79616 0.15358 0.0
C3527 C 0.96927 0.78054 0.15556 0.0
C3528 C 0.9728 0.76435 0.14785 0.0
H3529 H 0.86569 0.75023 0.18848 0.0
H3530 H 0.8908 0.75986 0.17111 0.0
C3531 C 0.98859 0.76363 0.13987 0.0
C3532 C 0.9537 0.78097 0.16638 0.0
H3533 H 0.93383 0.76335 0.20204 0.0
C3534 C 0.94087 0.79088 0.16113 0.0
C3535 C 0.95136 0.77139 0.18176 0.0
C3536 C 0.96509 0.76141 0.18907 0.0
C3537 C 0.92544 0.79076 0.17029 0.0
C3538 C 0.92278 0.78051 0.185 0.0
C3539 C 0.93587 0.77115 0.19068 0.0
C3540 C 0.90603 0.77822 0.194 0.0
C3541 C 0.91197 0.80147 0.1642 0.0
C3542 C 0.90598 0.7858 0.21245 0.0
C3543 C 0.89147 0.7805 0.22231 0.0
C3544 C 0.87692 0.76739 0.21392 0.0
C3545 C 0.87653 0.76068 0.1951 0.0
C3546 C 0.89091 0.7661 0.18521 0.0
H3547 H 0.91683 0.81024 0.15395 0.0
H3548 H 0.8994 0.79247 0.15781 0.0
H3549 H 0.90879 0.80962 0.17649 0.0
H3550 H 0.91761 0.79502 0.21955 0.0
H3551 H 0.8923 0.78553 0.23692 0.0
H3552 H 0.50026 0.28669 0.12211 0.0
H3553 H 0.50098 0.3129 0.10597 0.0
H3554 H 0.53514 0.34457 0.15265 0.0
H3555 H 0.53419 0.31856 0.16902 0.0
H3556 H 0.49204 0.34879 0.12123 0.0
H3557 H 0.56122 0.35084 0.10328 0.0
H3558 H 0.54734 0.33097 0.1084 0.0
H3559 H 0.55766 0.34797 0.12696 0.0
C3560 C 0.50792 0.29924 0.12894 0.0
C3561 C 0.5172 0.30052 0.14686 0.0
C3562 C 0.50825 0.31422 0.11973 0.0
C3563 C 0.51815 0.33069 0.12807 0.0
C3564 C 0.52743 0.332 0.14593 0.0
H3565 H 0.54814 0.43525 0.09851 0.0
H3566 H 0.53942 0.40982 0.11501 0.0
C3567 C 0.52685 0.31711 0.15528 0.0
C3568 C 0.51916 0.34648 0.11802 0.0
H3569 H 0.54787 0.37496 0.09704 0.0
C3570 C 0.50419 0.35446 0.11581 0.0
C3571 C 0.535 0.35385 0.11094 0.0
C3572 C 0.55123 0.34547 0.11233 0.0
C3573 C 0.50484 0.36985 0.10708 0.0
C3574 C 0.52079 0.37736 0.1003 0.0
C3575 C 0.53565 0.36923 0.10231 0.0
C3576 C 0.52268 0.39387 0.09138 0.0
C3577 C 0.48869 0.37831 0.10556 0.0
C3578 C 0.5156 0.39365 0.07277 0.0
C3579 C 0.52052 0.4083 0.06331 0.0
C3580 C 0.53253 0.42339 0.07235 0.0
C3581 C 0.53852 0.42399 0.09134 0.0
C3582 C 0.5337 0.40938 0.10073 0.0
H3583 H 0.47776 0.37169 0.11283 0.0
H3584 H 0.49245 0.39242 0.11155 0.0
H3585 H 0.48363 0.37777 0.09065 0.0
H3586 H 0.50725 0.38176 0.06521 0.0
H3587 H 0.51613 0.40726 0.04856 0.0
H3588 H 0.97262 0.27463 0.34673 0.0
H3589 H 0.94009 0.26994 0.33813 0.0
H3590 H 0.94812 0.30795 0.29943 0.0
H3591 H 0.9803 0.31236 0.30753 0.0
H3592 H 0.91641 0.2925 0.34054 0.0
H3593 H 0.91583 0.26767 0.26627 0.0
H3594 H 0.93524 0.26972 0.28305 0.0
H3595 H 0.93043 0.28867 0.27292 0.0
C3596 C 0.96747 0.28187 0.33627 0.0
C3597 C 0.97929 0.29372 0.32771 0.0
C3598 C 0.9488 0.27921 0.33137 0.0
C3599 C 0.94146 0.28827 0.31776 0.0
C3600 C 0.95326 0.30032 0.30951 0.0
H3601 H 0.8384 0.29822 0.26389 0.0
H3602 H 0.86964 0.29928 0.27466 0.0
C3603 C 0.97181 0.30291 0.31429 0.0
C3604 C 0.92156 0.28564 0.31241 0.0
H3605 H 0.88926 0.27647 0.27484 0.0
C3606 C 0.91045 0.28883 0.32619 0.0
C3607 C 0.91359 0.28086 0.29368 0.0
C3608 C 0.92436 0.27636 0.27816 0.0
C3609 C 0.89193 0.28818 0.32174 0.0
C3610 C 0.88399 0.28372 0.30292 0.0
C3611 C 0.8951 0.28006 0.28924 0.0
C3612 C 0.86447 0.28334 0.29687 0.0
C3613 C 0.88134 0.29308 0.33727 0.0
C3614 C 0.85068 0.27397 0.30549 0.0
C3615 C 0.83259 0.27395 0.29973 0.0
C3616 C 0.82766 0.28281 0.28476 0.0
C3617 C 0.84146 0.29162 0.27575 0.0
C3618 C 0.8595 0.29205 0.28182 0.0
H3619 H 0.89009 0.30123 0.34936 0.0
H3620 H 0.87107 0.30049 0.33252 0.0
H3621 H 0.87456 0.28088 0.34222 0.0
H3622 H 0.85382 0.26648 0.3166 0.0
H3623 H 0.82248 0.26683 0.30697 0.0
H3624 H 0.01139 0.70817 0.62189 0.0
H3625 H 0.01206 0.68205 0.59978 0.0
H3626 H 0.01042 0.65023 0.64465 0.0
H3627 H 0.00979 0.67606 0.66671 0.0
H3628 H 0.03859 0.65903 0.60169 0.0
H3629 H 0.96982 0.62246 0.60445 0.0
H3630 H 0.97654 0.64589 0.61176 0.0
H3631 H 0.98274 0.63053 0.62666 0.0
C3632 C 0.01097 0.69558 0.62704 0.0
C3633 C 0.01044 0.69432 0.64616 0.0
C3634 C 0.01143 0.68065 0.61437 0.0
C3635 C 0.0111 0.66405 0.62046 0.0
C3636 C 0.01041 0.66276 0.63949 0.0
H3637 H 0.0088 0.55602 0.57111 0.0
H3638 H 0.007 0.58309 0.59069 0.0
C3639 C 0.0101 0.67764 0.65214 0.0
C3640 C 0.01207 0.64816 0.6072 0.0
H3641 H 0.98914 0.60686 0.58909 0.0
C3642 C 0.02774 0.64764 0.5988 0.0
C3643 C 0.99803 0.63319 0.60357 0.0
C3644 C 0.98075 0.63299 0.61194 0.0
C3645 C 0.03001 0.63247 0.58744 0.0
C3646 C 0.01587 0.61743 0.58363 0.0
C3647 C 1.00007 0.61816 0.59187 0.0
C3648 C 0.01718 0.60077 0.57148 0.0
C3649 C 0.04794 0.6326 0.58046 0.0
C3650 C 0.02332 0.60127 0.55389 0.0
C3651 C 0.02501 0.58577 0.54294 0.0
C3652 C 0.01979 0.56907 0.54871 0.0
C3653 C 0.01301 0.56851 0.56604 0.0
C3654 C 0.01189 0.5841 0.57729 0.0
H3655 H 0.05873 0.64206 0.58962 0.0
H3656 H 0.05149 0.61936 0.57962 0.0
H3657 H 0.04756 0.63688 0.5664 0.0
H3658 H 0.02689 0.61369 0.54851 0.0
H3659 H 0.03069 0.58702 0.53004 0.0
H3660 H 0.60155 0.82212 0.8422 0.0
H3661 H 0.62935 0.81906 0.82903 0.0
H3662 H 0.61017 0.7629 0.81679 0.0
H3663 H 0.58196 0.76623 0.8287 0.0
H3664 H 0.6554 0.80442 0.83809 0.0
H3665 H 0.62689 0.76931 0.76852 0.0
H3666 H 0.61332 0.77874 0.78421 0.0
H3667 H 0.61873 0.75745 0.78667 0.0
C3668 C 0.60321 0.80916 0.83644 0.0
C3669 C 0.58941 0.79445 0.83628 0.0
C3670 C 0.61918 0.80737 0.82892 0.0
C3671 C 0.62204 0.79075 0.82133 0.0
C3672 C 0.60833 0.776 0.82168 0.0
H3673 H 0.71116 0.74975 0.77755 0.0
H3674 H 0.68297 0.75442 0.78807 0.0
C3675 C 0.59216 0.77787 0.82871 0.0
C3676 C 0.63955 0.78886 0.81388 0.0
H3677 H 0.6577 0.76989 0.77725 0.0
C3678 C 0.65581 0.79698 0.82469 0.0
C3679 C 0.64047 0.77913 0.79636 0.0
C3680 C 0.62392 0.77082 0.7832 0.0
C3681 C 0.67262 0.79528 0.81893 0.0
C3682 C 0.67354 0.78542 0.80151 0.0
C3683 C 0.65729 0.77742 0.79061 0.0
C3684 C 0.69104 0.78276 0.79453 0.0
C3685 C 0.68919 0.80363 0.83205 0.0
C3686 C 0.70533 0.79698 0.79412 0.0
C3687 C 0.72173 0.79415 0.78826 0.0
C3688 C 0.72421 0.77708 0.78196 0.0
C3689 C 0.70976 0.76301 0.7818 0.0
C3690 C 0.69352 0.76575 0.78802 0.0
H3691 H 0.68617 0.80582 0.84667 0.0
H3692 H 0.69952 0.79536 0.83154 0.0
H3693 H 0.69478 0.81669 0.82804 0.0
H3694 H 0.70386 0.81036 0.7983 0.0
H3695 H 0.73246 0.80539 0.78849 0.0
H3696 H 0.4669 0.53187 0.71804 0.0
H3697 H 0.48138 0.53542 0.68978 0.0
H3698 H 0.43415 0.50435 0.65668 0.0
H3699 H 0.41936 0.5013 0.68486 0.0
H3700 H 0.49012 0.51181 0.66468 0.0
H3701 H 0.44232 0.54629 0.62901 0.0
H3702 H 0.44205 0.54292 0.65313 0.0
H3703 H 0.43174 0.52544 0.6349 0.0
C3704 C 0.45956 0.52587 0.70472 0.0
C3705 C 0.44194 0.5164 0.70368 0.0
C3706 C 0.46786 0.5279 0.68857 0.0
C3707 C 0.45878 0.52044 0.671 0.0
C3708 C 0.44128 0.51069 0.66997 0.0
H3709 H 0.49616 0.49798 0.56483 0.0
H3710 H 0.48425 0.49749 0.59485 0.0
C3711 C 0.43287 0.50885 0.68611 0.0
C3712 C 0.46781 0.5225 0.65389 0.0
H3713 H 0.46339 0.53584 0.6107 0.0
C3714 C 0.48431 0.51719 0.65295 0.0
C3715 C 0.46038 0.52971 0.63859 0.0
C3716 C 0.44324 0.53658 0.63899 0.0
C3717 C 0.49324 0.51839 0.63699 0.0
C3718 C 0.48547 0.525 0.62154 0.0
C3719 C 0.46925 0.53071 0.62258 0.0
C3720 C 0.49359 0.52535 0.60385 0.0
C3721 C 0.51091 0.51256 0.6366 0.0
C3722 C 0.5028 0.5412 0.59899 0.0
C3723 C 0.50967 0.54152 0.58182 0.0
C3724 C 0.50726 0.52601 0.56917 0.0
C3725 C 0.49811 0.51017 0.57419 0.0
C3726 C 0.49139 0.50984 0.59138 0.0
H3727 H 0.51613 0.50957 0.65042 0.0
H3728 H 0.50929 0.50055 0.62635 0.0
H3729 H 0.5209 0.52296 0.63205 0.0
H3730 H 0.50453 0.55333 0.60842 0.0
H3731 H 0.51649 0.55395 0.57826 0.0
H3732 H 0.79596 0.15134 0.98219 0.0
H3733 H 0.7964 0.16588 0.9538 0.0
H3734 H 0.74407 0.17692 0.96073 0.0
H3735 H 0.74412 0.16346 0.9895 0.0
H3736 H 0.77341 0.15964 0.9207 0.0
H3737 H 0.77331 0.22523 0.959 0.0
H3738 H 0.77767 0.20695 0.97077 0.0
H3739 H 0.75507 0.20884 0.96339 0.0
C3740 C 0.78473 0.15711 0.97763 0.0
C3741 C 0.77025 0.1569 0.98804 0.0
C3742 C 0.78492 0.16523 0.96148 0.0
C3743 C 0.77047 0.17279 0.95557 0.0
C3744 C 0.75559 0.17167 0.9655 0.0
H3745 H 0.71974 0.20535 0.8659 0.0
H3746 H 0.73392 0.1883 0.88726 0.0
C3747 C 0.75564 0.16406 0.98186 0.0
C3748 C 0.7709 0.18238 0.93934 0.0
H3749 H 0.76413 0.22136 0.92598 0.0
C3750 C 0.77177 0.17325 0.92181 0.0
C3751 C 0.76909 0.20021 0.94101 0.0
C3752 C 0.76891 0.21091 0.9596 0.0
C3753 C 0.76944 0.18121 0.90564 0.0
C3754 C 0.76618 0.19852 0.90732 0.0
C3755 C 0.76665 0.20803 0.92489 0.0
C3756 C 0.75952 0.20627 0.89132 0.0
C3757 C 0.76981 0.17102 0.88688 0.0
C3758 C 0.76937 0.22183 0.88664 0.0
C3759 C 0.7613 0.23152 0.87458 0.0
C3760 C 0.74324 0.22586 0.86749 0.0
C3761 C 0.7336 0.20997 0.8716 0.0
C3762 C 0.74175 0.20014 0.88343 0.0
H3763 H 0.77617 0.1594 0.8881 0.0
H3764 H 0.75594 0.1663 0.88002 0.0
H3765 H 0.77715 0.17962 0.87778 0.0
H3766 H 0.78301 0.22681 0.89294 0.0
H3767 H 0.76892 0.24372 0.87126 0.0
H3768 H 0.16654 0.53733 0.18002 0.0
H3769 H 0.14738 0.54216 0.15294 0.0
H3770 H 0.10165 0.51161 0.17254 0.0
H3771 H 0.12056 0.50681 0.19964 0.0
H3772 H 0.1253 0.51454 0.12685 0.0
H3773 H 0.08671 0.55896 0.16302 0.0
H3774 H 0.10828 0.55581 0.17285 0.0
H3775 H 0.08852 0.53964 0.1739 0.0
C3776 C 0.15246 0.53142 0.17835 0.0
C3777 C 0.1449 0.52163 0.19171 0.0
C3778 C 0.14159 0.53439 0.16312 0.0
C3779 C 0.12325 0.52757 0.16128 0.0
C3780 C 0.1158 0.5173 0.17422 0.0
H3781 H 0.0463 0.49872 0.06627 0.0
H3782 H 0.0663 0.50004 0.09495 0.0
C3783 C 0.12659 0.51439 0.18943 0.0
C3784 C 0.11185 0.52998 0.14511 0.0
H3785 H 0.07412 0.5449 0.1325 0.0
C3786 C 0.11428 0.52143 0.1279 0.0
C3787 C 0.09767 0.53905 0.14688 0.0
C3788 C 0.09519 0.54904 0.16514 0.0
C3789 C 0.10228 0.52109 0.11224 0.0
C3790 C 0.08748 0.5293 0.11423 0.0
C3791 C 0.08546 0.53848 0.1313 0.0
C3792 C 0.07398 0.52854 0.09862 0.0
C3793 C 0.10544 0.51181 0.09386 0.0
C3794 C 0.07102 0.54422 0.09227 0.0
C3795 C 0.05921 0.54347 0.07643 0.0
C3796 C 0.05092 0.52707 0.06677 0.0
C3797 C 0.05321 0.51142 0.07352 0.0
C3798 C 0.06452 0.51217 0.0897 0.0
H3799 H 0.11967 0.51069 0.09369 0.0
H3800 H 0.0973 0.49825 0.09159 0.0
H3801 H 0.10155 0.5188 0.08208 0.0
H3802 H 0.0782 0.55692 0.09924 0.0
H3803 H 0.0572 0.55558 0.07123 0.0
H3804 H 0.75596 0.83782 0.47272 0.0
H3805 H 0.7548 0.82137 0.44148 0.0
H3806 H 0.80498 0.85375 0.43406 0.0
H3807 H 0.80596 0.87028 0.46496 0.0
H3808 H 0.75642 0.8387 0.40674 0.0
H3809 H 0.81073 0.80152 0.41934 0.0
H3810 H 0.79935 0.81012 0.43786 0.0
H3811 H 0.81613 0.82458 0.42827 0.0
C3812 C 0.76689 0.84107 0.46453 0.0
C3813 C 0.78118 0.85507 0.47123 0.0
C3814 C 0.76617 0.83181 0.44669 0.0
C3815 C 0.77988 0.83626 0.43551 0.0
C3816 C 0.79438 0.84995 0.44251 0.0
H3817 H 0.80613 0.80512 0.32527 0.0
H3818 H 0.80512 0.81864 0.35703 0.0
C3819 C 0.79495 0.85934 0.46014 0.0
C3820 C 0.77874 0.82742 0.41613 0.0
H3821 H 0.79998 0.80224 0.38779 0.0
C3822 C 0.76579 0.83055 0.40259 0.0
C3823 C 0.79112 0.817 0.41074 0.0
C3824 C 0.80506 0.81294 0.4248 0.0
C3825 C 0.7652 0.82391 0.38369 0.0
C3826 C 0.77766 0.81351 0.37826 0.0
C3827 C 0.79046 0.81023 0.3919 0.0
C3828 C 0.77779 0.80598 0.35854 0.0
C3829 C 0.75169 0.82866 0.36963 0.0
C3830 C 0.76276 0.79439 0.3487 0.0
C3831 C 0.7633 0.78664 0.33051 0.0
C3832 C 0.77896 0.79019 0.32181 0.0
C3833 C 0.79391 0.80198 0.33158 0.0
C3834 C 0.79335 0.80974 0.34976 0.0
H3835 H 0.7467 0.84051 0.37512 0.0
H3836 H 0.75748 0.83117 0.35653 0.0
H3837 H 0.74008 0.81754 0.36626 0.0
H3838 H 0.75072 0.79099 0.35525 0.0
H3839 H 0.75156 0.77759 0.32341 0.0
H3840 H 0.45898 0.48534 0.81367 0.0
H3841 H 0.46976 0.48948 0.84677 0.0
H3842 H 0.45593 0.54093 0.8526 0.0
H3843 H 0.44436 0.53649 0.8194 0.0
H3844 H 0.49671 0.51299 0.86496 0.0
H3845 H 0.43524 0.52173 0.89647 0.0
H3846 H 0.43483 0.51398 0.87209 0.0
H3847 H 0.44173 0.53708 0.88051 0.0
C3848 C 0.45811 0.49751 0.822 0.0
C3849 C 0.45087 0.51062 0.81388 0.0
C3850 C 0.46428 0.49986 0.84096 0.0
C3851 C 0.46357 0.51545 0.85233 0.0
C3852 C 0.45626 0.5286 0.84429 0.0
H3853 H 0.51352 0.54877 0.96774 0.0
H3854 H 0.50009 0.5487 0.93579 0.0
C3855 C 0.44977 0.52611 0.82527 0.0
C3856 C 0.47137 0.51803 0.87227 0.0
H3857 H 0.46188 0.52563 0.91716 0.0
C3858 C 0.48904 0.51576 0.87632 0.0
C3859 C 0.46144 0.52172 0.88721 0.0
C3860 C 0.44221 0.52362 0.88392 0.0
C3861 C 0.49693 0.5168 0.89475 0.0
C3862 C 0.48695 0.52025 0.90959 0.0
C3863 C 0.46947 0.52299 0.90569 0.0
C3864 C 0.49434 0.52033 0.92921 0.0
C3865 C 0.51585 0.51402 0.8983 0.0
C3866 C 0.49526 0.50439 0.93618 0.0
C3867 C 0.50267 0.50436 0.95452 0.0
C3868 C 0.50968 0.52027 0.96615 0.0
C3869 C 0.50848 0.53624 0.95914 0.0
C3870 C 0.50077 0.53626 0.94089 0.0
H3871 H 0.52269 0.51414 0.88551 0.0
H3872 H 0.52369 0.52438 0.90923 0.0
H3873 H 0.5157 0.50109 0.90345 0.0
H3874 H 0.49025 0.49194 0.92741 0.0
H3875 H 0.50297 0.49187 0.95948 0.0
H3876 H 0.79062 0.16543 0.08945 0.0
H3877 H 0.7948 0.18779 0.11662 0.0
H3878 H 0.74761 0.16001 0.13632 0.0
H3879 H 0.74345 0.13737 0.1093 0.0
H3880 H 0.76807 0.20779 0.12401 0.0
H3881 H 0.78638 0.17109 0.18208 0.0
H3882 H 0.78819 0.16366 0.15805 0.0
H3883 H 0.76677 0.16038 0.16662 0.0
C3884 C 0.78128 0.164 0.09971 0.0
C3885 C 0.76668 0.14984 0.0974 0.0
C3886 C 0.78371 0.17669 0.11513 0.0
C3887 C 0.77155 0.17529 0.12827 0.0
C3888 C 0.75723 0.16096 0.12631 0.0
H3889 H 0.74651 0.25187 0.20911 0.0
H3890 H 0.74686 0.23195 0.18059 0.0
C3891 C 0.75487 0.14814 0.11095 0.0
C3892 C 0.77308 0.18959 0.14328 0.0
H3893 H 0.77955 0.19923 0.19034 0.0
C3894 C 0.77073 0.20606 0.13854 0.0
C3895 C 0.77661 0.18701 0.16202 0.0
C3896 C 0.77979 0.16962 0.16756 0.0
C3897 C 0.77157 0.22018 0.15234 0.0
C3898 C 0.77463 0.21744 0.17107 0.0
C3899 C 0.77721 0.20105 0.1758 0.0
C3900 C 0.77496 0.23126 0.18625 0.0
C3901 C 0.76927 0.23786 0.14692 0.0
C3902 C 0.79063 0.23712 0.19851 0.0
C3903 C 0.79031 0.24792 0.21484 0.0
C3904 C 0.77434 0.25301 0.21876 0.0
C3905 C 0.75888 0.24793 0.20606 0.0
C3906 C 0.75911 0.2368 0.18986 0.0
H3907 H 0.77035 0.23857 0.13188 0.0
H3908 H 0.75588 0.24019 0.1498 0.0
H3909 H 0.77943 0.24859 0.15526 0.0
H3910 H 0.80289 0.23279 0.19575 0.0
H3911 H 0.80243 0.25213 0.22446 0.0
H3912 H 0.15798 0.52318 0.301 0.0
H3913 H 0.14634 0.51772 0.33033 0.0
H3914 H 0.11392 0.557 0.32422 0.0
H3915 H 0.12522 0.5624 0.29463 0.0
H3916 H 0.14219 0.54282 0.36468 0.0
H3917 H 0.07991 0.50616 0.32219 0.0
H3918 H 0.10126 0.51017 0.31315 0.0
H3919 H 0.0884 0.52726 0.31526 0.0
C3920 C 0.14865 0.53094 0.30609 0.0
C3921 C 0.1421 0.54291 0.29541 0.0
C3922 C 0.14208 0.52778 0.3228 0.0
C3923 C 0.12909 0.53669 0.32895 0.0
C3924 C 0.12376 0.54982 0.31926 0.0
H3925 H 0.06051 0.56439 0.39332 0.0
H3926 H 0.07599 0.55097 0.36955 0.0
C3927 C 0.13017 0.55286 0.30245 0.0
C3928 C 0.11965 0.5313 0.34445 0.0
H3929 H 0.07727 0.51717 0.3539 0.0
C3930 C 0.12812 0.53675 0.36256 0.0
C3931 C 0.10151 0.52292 0.34129 0.0
C3932 C 0.09224 0.51611 0.32191 0.0
C3933 C 0.11818 0.53615 0.37769 0.0
C3934 C 0.09949 0.52974 0.37427 0.0
C3935 C 0.09157 0.52221 0.35635 0.0
C3936 C 0.08769 0.53479 0.38774 0.0
C3937 C 0.12744 0.54403 0.39683 0.0
C3938 C 0.08876 0.52966 0.40554 0.0
C3939 C 0.08054 0.53782 0.41931 0.0
C3940 C 0.0706 0.5508 0.41525 0.0
C3941 C 0.0684 0.55481 0.39697 0.0
C3942 C 0.07698 0.54692 0.38333 0.0
H3943 H 0.14175 0.54989 0.39658 0.0
H3944 H 0.12075 0.55444 0.40292 0.0
H3945 H 0.12674 0.53362 0.40614 0.0
H3946 H 0.09675 0.5201 0.40905 0.0
H3947 H 0.0827 0.53451 0.4333 0.0
H3948 H 0.79898 0.8348 0.57864 0.0
H3949 H 0.79661 0.82134 0.60763 0.0
H3950 H 0.76534 0.85879 0.62719 0.0
H3951 H 0.76809 0.87257 0.59859 0.0
H3952 H 0.80428 0.84556 0.65029 0.0
H3953 H 0.73838 0.80144 0.62589 0.0
H3954 H 0.75411 0.8083 0.60988 0.0
H3955 H 0.74219 0.82378 0.62041 0.0
C3956 C 0.79163 0.84014 0.58915 0.0
C3957 C 0.78375 0.85474 0.58641 0.0
C3958 C 0.79032 0.83249 0.60568 0.0
C3959 C 0.78079 0.83909 0.6195 0.0
C3960 C 0.77282 0.85358 0.61673 0.0
H3961 H 0.75289 0.80765 0.72632 0.0
H3962 H 0.75503 0.82168 0.69771 0.0
C3963 C 0.77443 0.86144 0.60041 0.0
C3964 C 0.77895 0.83078 0.63679 0.0
H3965 H 0.7506 0.80117 0.65687 0.0
C3966 C 0.7926 0.83582 0.65174 0.0
C3967 C 0.76361 0.81822 0.63865 0.0
C3968 C 0.74867 0.81247 0.6229 0.0
C3969 C 0.79127 0.82853 0.66853 0.0
C3970 C 0.776 0.81582 0.67031 0.0
C3971 C 0.76229 0.81091 0.65543 0.0
C3972 C 0.77435 0.80715 0.68739 0.0
C3973 C 0.80608 0.83451 0.68439 0.0
C3974 C 0.78434 0.79422 0.69089 0.0
C3975 C 0.78299 0.78608 0.70704 0.0
C3976 C 0.77177 0.79087 0.72011 0.0
C3977 C 0.7617 0.80377 0.71653 0.0
C3978 C 0.76289 0.81176 0.70022 0.0
H3979 H 0.81576 0.84623 0.68182 0.0
H3980 H 0.80046 0.83773 0.69757 0.0
H3981 H 0.81339 0.82366 0.6863 0.0
H3982 H 0.79322 0.79045 0.68113 0.0
H3983 H 0.79099 0.77625 0.70948 0.0
H3984 H 0.74274 0.44884 0.52968 0.0
H3985 H 0.71834 0.46503 0.52784 0.0
H3986 H 0.70054 0.43953 0.47164 0.0
H3987 H 0.7247 0.42275 0.47374 0.0
H3988 H 0.71459 0.48799 0.4995 0.0
H3989 H 0.65543 0.43414 0.49976 0.0
H3990 H 0.6777 0.4318 0.50807 0.0
H3991 H 0.67135 0.43117 0.48361 0.0
C3992 C 0.73328 0.44642 0.51717 0.0
C3993 C 0.73518 0.43466 0.5019 0.0
C3994 C 0.71959 0.45571 0.51605 0.0
C3995 C 0.70798 0.45347 0.49953 0.0
C3996 C 0.70945 0.44122 0.48445 0.0
H3997 H 0.61651 0.49879 0.51543 0.0
H3998 H 0.63781 0.49016 0.49538 0.0
C3999 C 0.72302 0.43163 0.48571 0.0
C4000 C 0.69457 0.46438 0.4984 0.0
H4001 H 0.65133 0.46313 0.50514 0.0
C4002 C 0.70058 0.48267 0.50015 0.0
C4003 C 0.67649 0.45715 0.49911 0.0
C4004 C 0.66974 0.4375 0.4976 0.0
C4005 C 0.68912 0.49411 0.50444 0.0
C4006 C 0.67139 0.48687 0.5069 0.0
C4007 C 0.66498 0.46859 0.50315 0.0
C4008 C 0.6603 0.49718 0.51688 0.0
C4009 C 0.69639 0.51368 0.50753 0.0
C4010 C 0.66616 0.50448 0.53544 0.0
C4011 C 0.65408 0.50969 0.54695 0.0
C4012 C 0.636 0.50738 0.54005 0.0
C4013 C 0.63043 0.50101 0.52112 0.0
C4014 C 0.64255 0.49609 0.50959 0.0
H4015 H 0.707 0.51725 0.49845 0.0
H4016 H 0.68571 0.52127 0.50478 0.0
H4017 H 0.70252 0.51759 0.52219 0.0
H4018 H 0.67975 0.50495 0.54144 0.0
H4019 H 0.65872 0.51479 0.56139 0.0
H4020 H 0.21268 0.11492 0.47928 0.0
H4021 H 0.18389 0.09593 0.48137 0.0
H4022 H 0.172 0.13537 0.52224 0.0
H4023 H 0.20032 0.15473 0.51945 0.0
H4024 H 0.17146 0.08132 0.50991 0.0
H4025 H 0.12692 0.12567 0.48748 0.0
H4026 H 0.15049 0.13001 0.48524 0.0
H4027 H 0.14267 0.13556 0.50729 0.0
C4028 C 0.20377 0.1196 0.4885 0.0
C4029 C 0.20856 0.13635 0.499 0.0
C4030 C 0.18738 0.10874 0.48974 0.0
C4031 C 0.17562 0.11434 0.50172 0.0
C4032 C 0.18056 0.13098 0.51246 0.0
H4033 H 0.08571 0.04902 0.54079 0.0
H4034 H 0.11497 0.0669 0.53783 0.0
C4035 C 0.19677 0.14201 0.5109 0.0
C4036 C 0.15844 0.10254 0.50329 0.0
H4037 H 0.11333 0.10028 0.5 0.0
C4038 C 0.15875 0.08545 0.50767 0.0
C4039 C 0.14182 0.10789 0.50024 0.0
C4040 C 0.1404 0.12572 0.49462 0.0
C4041 C 0.14293 0.07364 0.50924 0.0
C4042 C 0.12644 0.07917 0.50657 0.0
C4043 C 0.12607 0.09616 0.5021 0.0
C4044 C 0.10931 0.06749 0.50821 0.0
C4045 C 0.14387 0.05524 0.51334 0.0
C4046 C 0.09643 0.06218 0.49259 0.0
C4047 C 0.07964 0.05235 0.49435 0.0
C4048 C 0.07567 0.04754 0.5117 0.0
C4049 C 0.08869 0.05244 0.52723 0.0
C4050 C 0.10534 0.06257 0.52555 0.0
H4051 H 0.15739 0.05222 0.51231 0.0
H4052 H 0.14051 0.05377 0.52765 0.0
H4053 H 0.13399 0.0454 0.50353 0.0
H4054 H 0.0993 0.06586 0.4791 0.0
H4055 H 0.06977 0.04852 0.48221 0.0
H4056 H 0.13723 0.96909 0.78575 0.0
H4057 H 0.15177 0.94355 0.78482 0.0
H4058 H 0.20034 0.97583 0.77296 0.0
H4059 H 0.18602 1.00146 0.77416 0.0
H4060 H 0.16664 0.9282 0.75556 0.0
H4061 H 0.21799 0.95197 0.8163 0.0
H4062 H 0.1987 0.96187 0.81208 0.0
H4063 H 0.2178 0.96747 0.79979 0.0
C4064 C 0.15106 0.97078 0.7831 0.0
C4065 C 0.16053 0.98735 0.7802 0.0
C4066 C 0.15933 0.95617 0.78257 0.0
C4067 C 0.17724 0.95787 0.7792 0.0
C4068 C 0.18666 0.97433 0.77609 0.0
H4069 H 0.2531 0.89777 0.74909 0.0
H4070 H 0.23651 0.91964 0.76131 0.0
C4071 C 0.17843 0.98895 0.77668 0.0
C4072 C 0.18593 0.94231 0.77813 0.0
H4073 H 0.22284 0.92778 0.79528 0.0
C4074 C 0.17876 0.92794 0.76444 0.0
C4075 C 0.20166 0.94198 0.78981 0.0
C4076 C 0.20941 0.95657 0.80545 0.0
C4077 C 0.1875 0.91369 0.7614 0.0
C4078 C 0.20368 0.91373 0.77257 0.0
C4079 C 0.21043 0.92777 0.78676 0.0
C4080 C 0.21479 0.90042 0.76826 0.0
C4081 C 0.17985 0.8992 0.74561 0.0
C4082 C 0.20851 0.8824 0.76898 0.0
C4083 C 0.21809 0.86987 0.76211 0.0
C4084 C 0.23402 0.87527 0.75444 0.0
C4085 C 0.24085 0.89334 0.75496 0.0
C4086 C 0.23137 0.90581 0.7619 0.0
H4087 H 0.16906 0.90273 0.73632 0.0
H4088 H 0.19045 0.89613 0.73712 0.0
H4089 H 0.17416 0.88708 0.75141 0.0
H4090 H 0.19586 0.878 0.77411 0.0
H4091 H 0.21252 0.85598 0.76171 0.0
H4092 H 0.33782 0.97479 0.97489 0.0
H4093 H 0.37024 0.98449 0.98139 0.0
H4094 H 0.37327 0.94116 0.013 0.0
H4095 H 0.3412 0.93116 0.00646 0.0
H4096 H 0.38268 0.99181 0.02233 0.0
H4097 H 0.41716 0.94533 0.98241 0.0
H4098 H 0.39507 0.9484 0.97423 0.0
H4099 H 0.39816 0.93632 0.99349 0.0
C4100 C 0.34546 0.96715 0.98289 0.0
C4101 C 0.33704 0.95259 0.99064 0.0
C4102 C 0.36386 0.9726 0.98644 0.0
C4103 C 0.37377 0.96346 0.99765 0.0
C4104 C 0.36564 0.94815 0.00415 0.0
H4105 H 0.48502 0.9891 0.0289 0.0
H4106 H 0.45481 0.9773 0.03399 0.0
C4107 C 0.34732 0.94264 0.00055 0.0
C4108 C 0.39189 0.9716 0.0053 0.0
H4109 H 0.43502 0.96842 0.00317 0.0
C4110 C 0.39424 0.98676 0.01829 0.0
C4111 C 0.40652 0.96439 0.00031 0.0
C4112 C 0.40424 0.94774 0.98679 0.0
C4113 C 0.41126 0.9955 0.02603 0.0
C4114 C 0.42605 0.98899 0.02015 0.0
C4115 C 0.42357 0.97331 0.00773 0.0
C4116 C 0.44421 0.99915 0.02458 0.0
C4117 C 0.4132 0.01165 0.04015 0.0
C4118 C 0.44833 0.01598 0.019 0.0
C4119 C 0.46595 0.02341 0.01751 0.0
C4120 C 0.47933 0.01371 0.02085 0.0
C4121 C 0.47521 0.99733 0.02734 0.0
C4122 C 0.45785 0.9904 0.02991 0.0
H4123 H 0.40171 0.01063 0.04845 0.0
H4124 H 0.42574 0.01374 0.04979 0.0
H4125 H 0.41331 0.02339 0.03275 0.0
H4126 H 0.4379 0.02268 0.01424 0.0
H4127 H 0.46884 0.03602 0.01229 0.0
H4128 H 0.87023 0.57451 0.82271 0.0
H4129 H 0.85866 0.60163 0.81979 0.0
H4130 H 0.82266 0.57506 0.77163 0.0
H4131 H 0.83352 0.54801 0.77488 0.0
H4132 H 0.8599 0.61941 0.78841 0.0
H4133 H 0.79001 0.59817 0.80244 0.0
H4134 H 0.80758 0.58673 0.80929 0.0
H4135 H 0.79676 0.58274 0.78572 0.0
C4136 C 0.85945 0.57442 0.8119 0.0
C4137 C 0.85242 0.55919 0.79928 0.0
C4138 C 0.85299 0.58984 0.81019 0.0
C4139 C 0.83958 0.59009 0.79578 0.0
C4140 C 0.83255 0.57486 0.78325 0.0
H4141 H 0.79266 0.65029 0.72727 0.0
H4142 H 0.80304 0.62882 0.74567 0.0
C4143 C 0.83873 0.55943 0.78515 0.0
C4144 C 0.83357 0.60645 0.79277 0.0
H4145 H 0.79553 0.62228 0.78403 0.0
C4146 C 0.84593 0.62037 0.78797 0.0
C4147 C 0.81533 0.60742 0.79217 0.0
C4148 C 0.8017 0.59302 0.79786 0.0
C4149 C 0.84023 0.6348 0.78122 0.0
C4150 C 0.82182 0.63521 0.77955 0.0
C4151 C 0.80965 0.62182 0.78542 0.0
C4152 C 0.81471 0.64814 0.76942 0.0
C4153 C 0.85366 0.64888 0.77472 0.0
C4154 C 0.81764 0.6659 0.77701 0.0
C4155 C 0.81165 0.67812 0.76657 0.0
C4156 C 0.80291 0.67261 0.74845 0.0
C4157 C 0.79965 0.65476 0.74112 0.0
C4158 C 0.80544 0.64256 0.7516 0.0
H4159 H 0.86715 0.64552 0.77507 0.0
H4160 H 0.8492 0.65094 0.76029 0.0
H4161 H 0.85469 0.66152 0.78384 0.0
H4162 H 0.82471 0.67028 0.79083 0.0
H4163 H 0.81417 0.69188 0.77243 0.0
H4164 H 0.81222 0.63775 0.9832 0.0
H4165 H 0.83919 0.62493 0.98109 0.0
H4166 H 0.84543 0.62553 0.04073 0.0
H4167 H 0.8183 0.63758 0.04276 0.0
H4168 H 0.87612 0.63425 -0.00092 0.0
H4169 H 0.83811 0.57307 0.01973 0.0
H4170 H 0.82738 0.59025 0.01202 0.0
H4171 H 0.83793 0.59239 0.03556 0.0
C4172 C 0.81963 0.63545 0.99583 0.0
C4173 C 0.81322 0.63842 0.01313 0.0
C4174 C 0.83496 0.62814 0.99462 0.0
C4175 C 0.84403 0.62397 0.01072 0.0
C4176 C 0.83837 0.62831 0.02811 0.0
H4177 H 0.93539 0.59246 0.05359 0.0
H4178 H 0.91431 0.60898 0.03995 0.0
C4179 C 0.82295 0.63523 0.02928 0.0
C4180 C 0.85843 0.61374 0.00955 0.0
H4181 H 0.86986 0.57596 0.02205 0.0
C4182 C 0.87471 0.62138 0.00379 0.0
C4183 C 0.85641 0.5968 0.01537 0.0
C4184 C 0.83895 0.58756 0.02085 0.0
C4185 C 0.88944 0.61295 0.00497 0.0
C4186 C 0.88771 0.59661 0.01202 0.0
C4187 C 0.87112 0.58852 0.01664 0.0
C4188 C 0.90323 0.58857 0.01702 0.0
C4189 C 0.90688 0.62167 -0.00087 0.0
C4190 C 0.90428 0.57182 0.00833 0.0
C4191 C 0.91643 0.56241 0.01603 0.0
C4192 C 0.92736 0.56953 0.03272 0.0
C4193 C 0.92707 0.58674 0.04069 0.0
C4194 C 0.91514 0.59621 0.03286 0.0
H4195 H 0.90513 0.63228 0.99051 0.0
H4196 H 0.91631 0.62754 0.01174 0.0
H4197 H 0.913 0.61179 0.99115 0.0
H4198 H 0.89501 0.56565 0.99622 0.0
H4199 H 0.91636 0.54911 0.00975 0.0
H4200 H 0.18351 0.08275 0.79476 0.0
H4201 H 0.20516 0.1104 0.7957 0.0
H4202 H 0.16304 0.13528 0.77439 0.0
H4203 H 0.14141 0.10803 0.77372 0.0
H4204 H 0.21416 0.12936 0.76657 0.0
H4205 H 0.18668 0.1702 0.81948 0.0
H4206 H 0.18062 0.14644 0.81581 0.0
H4207 H 0.17017 0.15933 0.80063 0.0
C4208 C 0.17884 0.09416 0.79044 0.0
C4209 C 0.16066 0.09316 0.78431 0.0
C4210 C 0.19123 0.10994 0.79095 0.0
C4211 C 0.18567 0.12501 0.78541 0.0
C4212 C 0.16759 0.12398 0.77918 0.0
H4213 H 0.24408 0.2164 0.74565 0.0
H4214 H 0.22663 0.18764 0.74958 0.0
C4215 C 0.15522 0.10831 0.77874 0.0
C4216 C 0.19874 0.14169 0.78543 0.0
H4217 H 0.20692 0.18574 0.80111 0.0
C4218 C 0.21271 0.14167 0.77429 0.0
C4219 C 0.19701 0.15771 0.79568 0.0
C4220 C 0.18292 0.15845 0.80872 0.0
C4221 C 0.22456 0.15733 0.77256 0.0
C4222 C 0.2222 0.17351 0.782 0.0
C4223 C 0.20865 0.1734 0.79371 0.0
C4224 C 0.23326 0.19075 0.77955 0.0
C4225 C 0.23954 0.15638 0.76069 0.0
C4226 C 0.24236 0.20238 0.7951 0.0
C4227 C 0.25173 0.2191 0.7929 0.0
C4228 C 0.25236 0.22432 0.7751 0.0
C4229 C 0.24374 0.21258 0.75951 0.0
C4230 C 0.23395 0.19608 0.76174 0.0
H4231 H 0.2427 0.14297 0.75904 0.0
H4232 H 0.23546 0.15953 0.74661 0.0
H4233 H 0.25184 0.16598 0.76679 0.0
H4234 H 0.24205 0.19858 0.80897 0.0
H4235 H 0.25846 0.22797 0.80507 0.0
H4236 H 0.38499 0.94262 0.28122 0.0
H4237 H 0.36696 0.91337 0.2812 0.0
H4238 H 0.32008 0.93598 0.28658 0.0
H4239 H 0.33788 0.96538 0.28655 0.0
H4240 H 0.33888 0.89961 0.30772 0.0
H4241 H 0.31572 0.90346 0.23336 0.0
H4242 H 0.33574 0.91765 0.24547 0.0
H4243 H 0.31425 0.92127 0.25082 0.0
C4244 C 0.37087 0.94138 0.28246 0.0
C4245 C 0.36267 0.95609 0.2834 0.0
C4246 C 0.36073 0.92479 0.28274 0.0
C4247 C 0.34242 0.9229 0.28385 0.0
C4248 C 0.33431 0.93754 0.28578 0.0
H4249 H 0.26339 0.82874 0.26151 0.0
H4250 H 0.27949 0.85884 0.2613 0.0
C4251 C 0.34443 0.95416 0.28556 0.0
C4252 C 0.33152 0.90545 0.28014 0.0
H4253 H 0.30699 0.87654 0.24461 0.0
C4254 C 0.33172 0.89448 0.29405 0.0
C4255 C 0.32237 0.89925 0.26222 0.0
C4256 C 0.32198 0.91094 0.24701 0.0
C4257 C 0.32295 0.87696 0.29033 0.0
C4258 C 0.31449 0.87053 0.27208 0.0
C4259 C 0.31388 0.88169 0.25839 0.0
C4260 C 0.30556 0.85233 0.2672 0.0
C4261 C 0.32274 0.8656 0.30591 0.0
C4262 C 0.31521 0.83894 0.26916 0.0
C4263 C 0.30608 0.82198 0.26963 0.0
C4264 C 0.28741 0.81845 0.26732 0.0
C4265 C 0.27787 0.83141 0.26295 0.0
C4266 C 0.28698 0.84846 0.26293 0.0
H4267 H 0.32573 0.87368 0.31982 0.0
H4268 H 0.30958 0.85663 0.30525 0.0
H4269 H 0.3331 0.85742 0.30461 0.0
H4270 H 0.32964 0.84192 0.27213 0.0
H4271 H 0.31359 0.81223 0.27362 0.0
H4272 H 0.56213 0.3365 0.55602 0.0
H4273 H 0.55919 0.36483 0.54525 0.0
H4274 H 0.52929 0.37608 0.59082 0.0
H4275 H 0.53292 0.34837 0.60201 0.0
H4276 H 0.53377 0.37944 0.53235 0.0
H4277 H 0.56205 0.42174 0.59818 0.0
H4278 H 0.56295 0.39867 0.59475 0.0
H4279 H 0.54315 0.40572 0.60172 0.0
C4280 C 0.55502 0.34505 0.56384 0.0
C4281 C 0.54795 0.33997 0.5801 0.0
C4282 C 0.55331 0.36139 0.55762 0.0
C4283 C 0.5444 0.37327 0.56736 0.0
C4284 C 0.53688 0.36786 0.58326 0.0
H4285 H 0.51339 0.47531 0.55218 0.0
H4286 H 0.51694 0.44655 0.56139 0.0
C4287 C 0.53881 0.35172 0.58961 0.0
C4288 C 0.54258 0.39094 0.56077 0.0
H4289 H 0.54626 0.43517 0.5757 0.0
C4290 C 0.5367 0.39159 0.5419 0.0
C4291 C 0.54636 0.40719 0.5729 0.0
C4292 C 0.55416 0.40835 0.59295 0.0
C4293 C 0.53402 0.40749 0.53512 0.0
C4294 C 0.5374 0.4236 0.54737 0.0
C4295 C 0.54343 0.423 0.56617 0.0
C4296 C 0.53475 0.44112 0.54108 0.0
C4297 C 0.52701 0.40673 0.5149 0.0
C4298 C 0.54348 0.44813 0.52651 0.0
C4299 C 0.54122 0.46457 0.52106 0.0
C4300 C 0.53035 0.47471 0.53012 0.0
C4301 C 0.52174 0.46784 0.54476 0.0
C4302 C 0.52385 0.45134 0.5501 0.0
H4303 H 0.52065 0.39309 0.50861 0.0
H4304 H 0.51712 0.41539 0.51322 0.0
H4305 H 0.53828 0.41131 0.50701 0.0
H4306 H 0.55241 0.44107 0.51955 0.0
H4307 H 0.5484 0.4696 0.51004 0.0
H4308 H 0.45399 0.79002 0.38303 0.0
H4309 H 0.42471 0.78832 0.36618 0.0
H4310 H 0.40719 0.73663 0.3816 0.0
H4311 H 0.437 0.73824 0.39881 0.0
H4312 H 0.40934 0.76178 0.33543 0.0
H4313 H 0.36553 0.76346 0.39207 0.0
H4314 H 0.38941 0.77136 0.39646 0.0
H4315 H 0.38051 0.74814 0.392 0.0
C4316 C 0.44395 0.77825 0.38306 0.0
C4317 C 0.44806 0.76416 0.39221 0.0
C4318 C 0.42712 0.77734 0.37335 0.0
C4319 C 0.41363 0.76236 0.37244 0.0
C4320 C 0.4173 0.74843 0.38216 0.0
H4321 H 0.30373 0.74859 0.31558 0.0
H4322 H 0.33073 0.74432 0.3341 0.0
C4323 C 0.43435 0.74935 0.39204 0.0
C4324 C 0.39636 0.76134 0.36035 0.0
H4325 H 0.35214 0.76293 0.36154 0.0
C4326 C 0.39679 0.76186 0.34114 0.0
C4327 C 0.37991 0.7614 0.36766 0.0
C4328 C 0.37865 0.76115 0.38818 0.0
C4329 C 0.38143 0.76256 0.32912 0.0
C4330 C 0.36507 0.76339 0.33652 0.0
C4331 C 0.36455 0.7624 0.35571 0.0
C4332 C 0.34855 0.7657 0.32477 0.0
C4333 C 0.38299 0.76212 0.30855 0.0
C4334 C 0.34923 0.77922 0.31332 0.0
C4335 C 0.33386 0.7814 0.3024 0.0
C4336 C 0.31718 0.77047 0.303 0.0
C4337 C 0.31635 0.75723 0.31476 0.0
C4338 C 0.33183 0.7548 0.3254 0.0
H4339 H 0.39378 0.75521 0.3045 0.0
H4340 H 0.37031 0.75545 0.29999 0.0
H4341 H 0.38651 0.77581 0.30524 0.0
H4342 H 0.36165 0.78833 0.31297 0.0
H4343 H 0.33498 0.79195 0.29378 0.0
H4344 H 0.02038 0.72389 0.07122 0.0
H4345 H 0.01649 0.69249 0.05851 0.0
H4346 H 0.07188 0.69362 0.07676 0.0
H4347 H 0.07554 0.7245 0.08991 0.0
H4348 H 0.03049 0.67195 0.03319 0.0
H4349 H 0.04908 0.65442 0.1029 0.0
H4350 H 0.04494 0.67597 0.0995 0.0
H4351 H 0.06643 0.67055 0.09639 0.0
C4352 C 0.03181 0.71753 0.07206 0.0
C4353 C 0.04834 0.72683 0.08145 0.0
C4354 C 0.02955 0.69947 0.06494 0.0
C4355 C 0.04375 0.6903 0.06708 0.0
C4356 C 0.06049 0.7 0.07537 0.0
H4357 H 0.06225 0.58256 0.03981 0.0
H4358 H 0.06505 0.61457 0.0479 0.0
C4359 C 0.06267 0.71783 0.08266 0.0
C4360 C 0.0412 0.67062 0.06133 0.0
H4361 H 0.04859 0.63232 0.07724 0.0
C4362 C 0.03435 0.66332 0.0429 0.0
C4363 C 0.04596 0.65903 0.07391 0.0
C4364 C 0.05181 0.66534 0.09432 0.0
C4365 C 0.03281 0.64514 0.03664 0.0
C4366 C 0.03822 0.63375 0.04907 0.0
C4367 C 0.04475 0.64097 0.06754 0.0
C4368 C 0.03668 0.61426 0.0434 0.0
C4369 C 0.02574 0.63827 0.01661 0.0
C4370 C 0.01986 0.6032 0.03827 0.0
C4371 C 0.01826 0.58491 0.0337 0.0
C4372 C 0.03344 0.57701 0.034 0.0
C4373 C 0.05031 0.5881 0.03906 0.0
C4374 C 0.0519 0.60645 0.04383 0.0
H4375 H 0.02589 0.64909 0.00783 0.0
H4376 H 0.0337 0.6289 0.01069 0.0
H4377 H 0.01174 0.63109 0.0159 0.0
H4378 H 0.00785 0.60868 0.03808 0.0
H4379 H 0.00501 0.57693 0.02988 0.0
H4380 H 0.04215 0.28005 0.88605 0.0
H4381 H 0.06816 0.28308 0.86845 0.0
H4382 H 0.09025 0.247 0.90033 0.0
H4383 H 0.06453 0.24444 0.91843 0.0
H4384 H 0.11059 0.29048 0.88987 0.0
H4385 H 0.08444 0.23195 0.83667 0.0
H4386 H 0.06962 0.24431 0.84768 0.0
H4387 H 0.0811 0.23072 0.86077 0.0
C4388 C 0.05256 0.27277 0.88928 0.0
C4389 C 0.05135 0.26202 0.9036 0.0
C4390 C 0.06741 0.27451 0.87924 0.0
C4391 C 0.08111 0.26519 0.88298 0.0
C4392 C 0.07986 0.25434 0.89721 0.0
H4393 H 0.18467 0.26777 0.83966 0.0
H4394 H 0.15783 0.25935 0.85531 0.0
C4395 C 0.06521 0.25292 0.90756 0.0
C4396 C 0.09682 0.26703 0.87218 0.0
H4397 H 0.11295 0.24856 0.83397 0.0
C4398 C 0.11114 0.28128 0.87771 0.0
C4399 C 0.09752 0.25504 0.85628 0.0
C4400 C 0.08239 0.2396 0.84983 0.0
C4401 C 0.12608 0.28388 0.86772 0.0
C4402 C 0.12676 0.27199 0.85173 0.0
C4403 C 0.11248 0.25765 0.84624 0.0
C4404 C 0.14204 0.27485 0.84038 0.0
C4405 C 0.14112 0.29941 0.8742 0.0
C4406 C 0.14197 0.286 0.82647 0.0
C4407 C 0.15728 0.29085 0.8176 0.0
C4408 C 0.17294 0.28448 0.82228 0.0
C4409 C 0.17271 0.2726 0.83553 0.0
C4410 C 0.15741 0.26786 0.84453 0.0
H4411 H 0.13882 0.30727 0.88713 0.0
H4412 H 0.15386 0.29473 0.87679 0.0
H4413 H 0.14266 0.30811 0.86311 0.0
H4414 H 0.13032 0.2916 0.82306 0.0
H4415 H 0.15714 0.30018 0.80762 0.0
H4416 H 0.52696 0.75853 0.91665 0.0
H4417 H 0.52503 0.7322 0.93273 0.0
H4418 H 0.5421 0.70406 0.88553 0.0
H4419 H 0.54363 0.7302 0.86917 0.0
H4420 H 0.50379 0.69274 0.91257 0.0
H4421 H 0.57588 0.70258 0.93953 0.0
H4422 H 0.56539 0.72102 0.93546 0.0
H4423 H 0.56944 0.70659 0.9161 0.0
C4424 C 0.53035 0.74676 0.90971 0.0
C4425 C 0.53545 0.74648 0.89162 0.0
C4426 C 0.52922 0.73171 0.91891 0.0
C4427 C 0.53352 0.71618 0.91039 0.0
C4428 C 0.53874 0.71589 0.89239 0.0
H4429 H 0.52196 0.61127 0.94865 0.0
H4430 H 0.5313 0.63613 0.93116 0.0
C4431 C 0.53956 0.73083 0.88304 0.0
C4432 C 0.53217 0.70022 0.92023 0.0
H4433 H 0.55659 0.67804 0.94782 0.0
C4434 C 0.51534 0.68946 0.92016 0.0
C4435 C 0.54726 0.6959 0.93007 0.0
C4436 C 0.56559 0.70707 0.93045 0.0
C4437 C 0.51319 0.67467 0.92988 0.0
C4438 C 0.52819 0.67058 0.94015 0.0
C4439 C 0.5451 0.68115 0.93995 0.0
C4440 C 0.52602 0.65599 0.95198 0.0
C4441 C 0.49481 0.66353 0.92939 0.0
C4442 C 0.52061 0.65895 0.96976 0.0
C4443 C 0.51537 0.64484 0.97973 0.0
C4444 C 0.51551 0.62742 0.97223 0.0
C4445 C 0.52207 0.62456 0.95496 0.0
C4446 C 0.52727 0.63875 0.9449 0.0
H4447 H 0.48474 0.66757 0.91962 0.0
H4448 H 0.49515 0.64946 0.92516 0.0
H4449 H 0.49053 0.66464 0.94355 0.0
H4450 H 0.51946 0.6721 0.97547 0.0
H4451 H 0.51011 0.6474 0.99285 0.0
H4452 H 0.0713 0.72939 0.69591 0.0
H4453 H 0.10265 0.7316 0.70817 0.0
H4454 H 0.10709 0.7873 0.72488 0.0
H4455 H 0.07535 0.78473 0.71372 0.0
H4456 H 0.13152 0.74708 0.6982 0.0
H4457 H 0.13211 0.7772 0.77074 0.0
H4458 H 0.11159 0.76889 0.75561 0.0
H4459 H 0.12439 0.79053 0.75441 0.0
C4460 C 0.0789 0.74202 0.70259 0.0
C4461 C 0.07077 0.75681 0.70414 0.0
C4462 C 0.09692 0.74333 0.70953 0.0
C4463 C 0.1075 0.75958 0.71789 0.0
C4464 C 0.09932 0.77444 0.71924 0.0
H4465 H 0.22181 0.79585 0.75663 0.0
H4466 H 0.18997 0.79319 0.74644 0.0
C4467 C 0.08113 0.77301 0.71272 0.0
C4468 C 0.12718 0.761 0.72412 0.0
H4469 H 0.16052 0.77722 0.76007 0.0
C4470 C 0.13774 0.75356 0.71183 0.0
C4471 C 0.13565 0.76946 0.74188 0.0
C4472 C 0.1253 0.7768 0.75648 0.0
C4473 C 0.15625 0.7546 0.71653 0.0
C4474 C 0.16473 0.76324 0.73419 0.0
C4475 C 0.15421 0.77068 0.7465 0.0
C4476 C 0.18439 0.76476 0.74018 0.0
C4477 C 0.1666 0.74677 0.70225 0.0
C4478 C 0.19219 0.74973 0.74019 0.0
C4479 C 0.21054 0.75127 0.74575 0.0
C4480 C 0.22165 0.76779 0.75205 0.0
C4481 C 0.2138 0.78282 0.75211 0.0
C4482 C 0.19548 0.78132 0.74628 0.0
H4483 H 0.15954 0.74532 0.68793 0.0
H4484 H 0.18011 0.75498 0.70255 0.0
H4485 H 0.16815 0.73344 0.70532 0.0
H4486 H 0.18406 0.73672 0.73599 0.0
H4487 H 0.21598 0.73945 0.74499 0.0
H4488 H 0.04386 0.34092 0.41569 0.0
H4489 H 0.04257 0.36743 0.43699 0.0
H4490 H 0.036 0.3959 0.3901 0.0
H4491 H 0.03747 0.36977 0.36888 0.0
H4492 H 0.06532 0.40326 0.44011 0.0
H4493 H 0.99338 0.40243 0.42058 0.0
H4494 H 0.0032 0.3832 0.4162 0.0
H4495 H 0.00615 0.40015 0.40128 0.0
C4496 C 0.04216 0.35283 0.40992 0.0
C4497 C 0.04081 0.35312 0.3905 0.0
C4498 C 0.04145 0.368 0.42213 0.0
C4499 C 0.03903 0.38368 0.41518 0.0
C4500 C 0.0377 0.38398 0.39584 0.0
H4501 H 0.04335 0.49299 0.46269 0.0
H4502 H 0.04501 0.46589 0.44274 0.0
C4503 C 0.03865 0.36897 0.3837 0.0
C4504 C 0.03801 0.39984 0.42794 0.0
H4505 H 0.01028 0.42835 0.43893 0.0
C4506 C 0.05327 0.40868 0.4399 0.0
C4507 C 0.02226 0.40695 0.42779 0.0
C4508 C 0.00524 0.39766 0.41591 0.0
C4509 C 0.05328 0.4246 0.45128 0.0
C4510 C 0.03768 0.43188 0.45077 0.0
C4511 C 0.02233 0.4229 0.43911 0.0
C4512 C 0.0369 0.44846 0.46285 0.0
C4513 C 0.06996 0.43368 0.46381 0.0
C4514 C 0.03157 0.4477 0.48068 0.0
C4515 C 0.03033 0.46311 0.49199 0.0
C4516 C 0.03479 0.47982 0.48604 0.0
C4517 C 0.0401 0.4805 0.46803 0.0
C4518 C 0.04106 0.46499 0.45655 0.0
H4519 H 0.08126 0.42675 0.46217 0.0
H4520 H 0.07398 0.44742 0.46075 0.0
H4521 H 0.06719 0.43438 0.47856 0.0
H4522 H 0.02808 0.4351 0.48576 0.0
H4523 H 0.02526 0.46172 0.50513 0.0
H4524 H 0.46601 0.24375 0.23796 0.0
H4525 H 0.43711 0.24864 0.24697 0.0
H4526 H 0.42287 0.26184 0.19234 0.0
H4527 H 0.45204 0.25738 0.18332 0.0
H4528 H 0.42102 0.28223 0.24397 0.0
H4529 H 0.3806 0.22067 0.20362 0.0
H4530 H 0.40424 0.22303 0.21076 0.0
H4531 H 0.39673 0.23406 0.19204 0.0
C4532 C 0.45679 0.24772 0.2278 0.0
C4533 C 0.46153 0.25014 0.20984 0.0
C4534 C 0.4402 0.25055 0.23303 0.0
C4535 C 0.42759 0.25553 0.22038 0.0
C4536 C 0.43223 0.25794 0.20241 0.0
H4537 H 0.3149 0.2633 0.22483 0.0
H4538 H 0.34427 0.26061 0.21577 0.0
C4539 C 0.449 0.25544 0.19727 0.0
C4540 C 0.4097 0.25817 0.22604 0.0
H4541 H 0.36508 0.23951 0.22003 0.0
C4542 C 0.40878 0.2729 0.23873 0.0
C4543 C 0.3936 0.24613 0.21919 0.0
C4544 C 0.39367 0.22999 0.20571 0.0
C4545 C 0.39235 0.27607 0.24444 0.0
C4546 C 0.37618 0.26379 0.23793 0.0
C4547 C 0.37721 0.24903 0.22521 0.0
C4548 C 0.35811 0.26601 0.24379 0.0
C4549 C 0.39257 0.29298 0.25686 0.0
C4550 C 0.35554 0.26991 0.26266 0.0
C4551 C 0.33865 0.27184 0.26786 0.0
C4552 C 0.3236 0.26942 0.25445 0.0
C4553 C 0.32607 0.26523 0.23564 0.0
C4554 C 0.343 0.26364 0.23041 0.0
H4555 H 0.40421 0.30331 0.25527 0.0
H4556 H 0.38021 0.29818 0.25379 0.0
H4557 H 0.39374 0.29051 0.27162 0.0
H4558 H 0.36653 0.2712 0.27352 0.0
H4559 H 0.33733 0.27487 0.2825 0.0
H4560 H 0.57448 0.54301 0.32787 0.0
H4561 H 0.56593 0.53828 0.35867 0.0
H4562 H 0.61588 0.52245 0.37336 0.0
H4563 H 0.6246 0.52709 0.34238 0.0
H4564 H 0.56302 0.50585 0.37499 0.0
H4565 H 0.61208 0.56125 0.41683 0.0
H4566 H 0.60632 0.56037 0.39204 0.0
H4567 H 0.62085 0.54672 0.40073 0.0
C4568 C 0.58374 0.53859 0.33763 0.0
C4569 C 0.60026 0.53544 0.3326 0.0
C4570 C 0.57879 0.53586 0.35525 0.0
C4571 C 0.5903 0.53014 0.36838 0.0
C4572 C 0.60686 0.52704 0.36351 0.0
H4573 H 0.56876 0.50672 0.48132 0.0
H4574 H 0.58215 0.50746 0.45188 0.0
C4575 C 0.61178 0.52961 0.34576 0.0
C4576 C 0.58462 0.52708 0.38693 0.0
H4577 H 0.59264 0.54326 0.43325 0.0
C4578 C 0.5696 0.51392 0.38774 0.0
C4579 C 0.59318 0.53766 0.40356 0.0
C4580 C 0.60894 0.5524 0.40339 0.0
C4581 C 0.56279 0.51124 0.40469 0.0
C4582 C 0.57114 0.52202 0.42123 0.0
C4583 C 0.5864 0.5349 0.42054 0.0
C4584 C 0.56318 0.52122 0.43898 0.0
C4585 C 0.54648 0.49712 0.40482 0.0
C4586 C 0.54822 0.5288 0.44145 0.0
C4587 C 0.54073 0.52859 0.45819 0.0
C4588 C 0.54792 0.52062 0.47285 0.0
C4589 C 0.5629 0.51293 0.47032 0.0
C4590 C 0.57054 0.51334 0.45354 0.0
H4591 H 0.54335 0.488 0.39156 0.0
H4592 H 0.54842 0.48936 0.41653 0.0
H4593 H 0.53482 0.5034 0.40694 0.0
H4594 H 0.54243 0.53506 0.43043 0.0
H4595 H 0.52932 0.53481 0.45964 0.0
H4596 H 0.30922 0.91375 0.06813 0.0
H4597 H 0.30646 0.89995 0.09671 0.0
H4598 H 0.27534 0.85247 0.06458 0.0
H4599 H 0.27827 0.86587 0.03607 0.0
H4600 H 0.27186 0.88406 0.11011 0.0
H4601 H 0.31776 0.83798 0.09533 0.0
H4602 H 0.31799 0.85768 0.08432 0.0
H4603 H 0.30117 0.83831 0.07626 0.0
C4604 C 0.30203 0.90028 0.06718 0.0
C4605 C 0.29398 0.89082 0.04997 0.0
C4606 C 0.30031 0.89255 0.08345 0.0
C4607 C 0.29057 0.87538 0.08253 0.0
C4608 C 0.28291 0.86579 0.06537 0.0
H4609 H 0.28011 0.79738 0.15339 0.0
H4610 H 0.26853 0.8148 0.13076 0.0
C4611 C 0.28473 0.8734 0.04914 0.0
C4612 C 0.28874 0.86697 0.09937 0.0
H4613 H 0.29978 0.83254 0.11936 0.0
C4614 C 0.27794 0.87281 0.1123 0.0
C4615 C 0.29684 0.85246 0.10196 0.0
C4616 C 0.30922 0.8463 0.08884 0.0
C4617 C 0.27465 0.86399 0.12778 0.0
C4618 C 0.2824 0.84916 0.13004 0.0
C4619 C 0.29342 0.84363 0.1172 0.0
C4620 C 0.28127 0.83996 0.14649 0.0
C4621 C 0.26294 0.87042 0.14146 0.0
C4622 C 0.29103 0.84849 0.16331 0.0
C4623 C 0.29755 0.83857 0.17618 0.0
C4624 C 0.29447 0.82018 0.17209 0.0
C4625 C 0.28291 0.81162 0.1564 0.0
C4626 C 0.27605 0.82152 0.14374 0.0
H4627 H 0.25438 0.87889 0.1353 0.0
H4628 H 0.25431 0.85916 0.14634 0.0
H4629 H 0.27151 0.87833 0.15377 0.0
H4630 H 0.29537 0.86269 0.16553 0.0
H4631 H 0.30624 0.84526 0.1885 0.0
H4632 H 0.89418 0.51593 0.84839 0.0
H4633 H 0.90543 0.52076 0.8814 0.0
H4634 H 0.95456 0.50543 0.86833 0.0
H4635 H 0.94361 0.50065 0.83517 0.0
H4636 H 0.92368 0.49536 0.90486 0.0
H4637 H 0.96399 0.56004 0.89483 0.0
H4638 H 0.94402 0.54939 0.87959 0.0
H4639 H 0.96464 0.54193 0.87745 0.0
C4640 C 0.90733 0.51342 0.85252 0.0
C4641 C 0.91827 0.50831 0.83926 0.0
C4642 C 0.9136 0.5161 0.87132 0.0
C4643 C 0.93075 0.51363 0.87688 0.0
C4644 C 0.94128 0.50748 0.86391 0.0
H4645 H 0.00663 0.50487 0.95817 0.0
H4646 H 0.98365 0.50389 0.93211 0.0
C4647 C 0.93505 0.5048 0.8451 0.0
C4648 C 0.93846 0.51874 0.89607 0.0
H4649 H 0.97305 0.54746 0.92187 0.0
C4650 C 0.93414 0.50697 0.90888 0.0
C4651 C 0.95181 0.53406 0.90098 0.0
C4652 C 0.95633 0.54719 0.88755 0.0
C4653 C 0.94424 0.50936 0.92625 0.0
C4654 C 0.95869 0.52377 0.9304 0.0
C4655 C 0.96189 0.53641 0.91829 0.0
C4656 C 0.97219 0.52455 0.94586 0.0
C4657 C 0.9403 0.49598 0.93955 0.0
C4658 C 0.97338 0.53698 0.96146 0.0
C4659 C 0.98649 0.53774 0.97611 0.0
C4660 C 0.99845 0.52607 0.97509 0.0
C4661 C 0.99762 0.51407 0.95908 0.0
C4662 C 0.98445 0.51332 0.94444 0.0
H4663 H 0.92663 0.48787 0.93605 0.0
H4664 H 0.95003 0.48705 0.93884 0.0
H4665 H 0.94177 0.5026 0.9541 0.0
H4666 H 0.96404 0.54585 0.96238 0.0
H4667 H 0.98697 0.54715 0.98837 0.0
H4668 H 0.27378 0.21394 0.5563 0.0
H4669 H 0.27722 0.23174 0.58707 0.0
H4670 H 0.26413 0.18435 0.61258 0.0
H4671 H 0.26072 0.16663 0.58236 0.0
H4672 H 0.25012 0.23133 0.61316 0.0
H4673 H 0.31135 0.21149 0.64327 0.0
H4674 H 0.30459 0.20886 0.61848 0.0
H4675 H 0.29428 0.19322 0.63256 0.0
C4676 C 0.27174 0.20734 0.56849 0.0
C4677 C 0.26699 0.18884 0.5668 0.0
C4678 C 0.2737 0.21752 0.58604 0.0
C4679 C 0.27117 0.20933 0.60212 0.0
C4680 C 0.26646 0.19093 0.60041 0.0
H4681 H 0.2701 0.2266 0.71966 0.0
H4682 H 0.26947 0.21606 0.68662 0.0
C4683 C 0.26442 0.18082 0.58302 0.0
C4684 C 0.27268 0.21971 0.62079 0.0
H4685 H 0.29401 0.22389 0.66487 0.0
C4686 C 0.25987 0.22999 0.62447 0.0
C4687 C 0.28538 0.21784 0.63547 0.0
C4688 C 0.29979 0.20738 0.63225 0.0
C4689 C 0.25872 0.23758 0.64269 0.0
C4690 C 0.27106 0.23518 0.65754 0.0
C4691 C 0.28441 0.22559 0.6536 0.0
C4692 C 0.27002 0.24167 0.6774 0.0
C4693 C 0.24371 0.24725 0.64591 0.0
C4694 C 0.27021 0.25954 0.68331 0.0
C4695 C 0.27005 0.26547 0.70218 0.0
C4696 C 0.27035 0.25376 0.71552 0.0
C4697 C 0.27005 0.23592 0.70964 0.0
C4698 C 0.26972 0.22991 0.69077 0.0
H4699 H 0.23272 0.24366 0.63423 0.0
H4700 H 0.2381 0.24445 0.65902 0.0
H4701 H 0.24889 0.26164 0.64694 0.0
H4702 H 0.27095 0.269 0.67343 0.0
H4703 H 0.27043 0.27933 0.70642 0.0
H4704 H 0.57862 0.51843 0.22748 0.0
H4705 H 0.56437 0.51763 0.19561 0.0
H4706 H 0.61569 0.53718 0.17823 0.0
H4707 H 0.62999 0.53777 0.20981 0.0
H4708 H 0.56434 0.54544 0.17383 0.0
H4709 H 0.5962 0.49386 0.13995 0.0
H4710 H 0.59632 0.49787 0.16489 0.0
H4711 H 0.61182 0.51193 0.15334 0.0
C4712 C 0.58687 0.52244 0.21683 0.0
C4713 C 0.60546 0.52804 0.22118 0.0
C4714 C 0.57871 0.52201 0.19863 0.0
C4715 C 0.58898 0.52707 0.18443 0.0
C4716 C 0.60752 0.53282 0.18882 0.0
H4717 H 0.57336 0.53455 0.06665 0.0
H4718 H 0.58439 0.53486 0.09938 0.0
C4719 C 0.61567 0.53322 0.20694 0.0
C4720 C 0.5804 0.5268 0.1651 0.0
H4721 H 0.58104 0.50984 0.11988 0.0
C4722 C 0.56787 0.53756 0.16201 0.0
C4723 C 0.58504 0.51656 0.14969 0.0
C4724 C 0.59795 0.50427 0.1521 0.0
C4725 C 0.56038 0.53891 0.1439 0.0
C4726 C 0.56516 0.52879 0.12841 0.0
C4727 C 0.5774 0.51771 0.13163 0.0
C4728 C 0.55815 0.52975 0.10872 0.0
C4729 C 0.548 0.55172 0.14159 0.0
C4730 C 0.53969 0.52699 0.10289 0.0
C4731 C 0.5334 0.52734 0.0842 0.0
C4732 C 0.54541 0.5298 0.07088 0.0
C4733 C 0.56381 0.53251 0.07665 0.0
C4734 C 0.57011 0.53265 0.09536 0.0
H4735 H 0.55009 0.5621 0.1538 0.0
H4736 H 0.5499 0.5582 0.12888 0.0
H4737 H 0.53397 0.5445 0.1404 0.0
H4738 H 0.53011 0.52415 0.11267 0.0
H4739 H 0.51913 0.52499 0.08004 0.0
H4740 H 0.27059 0.91334 0.92108 0.0
H4741 H 0.27216 0.8932 0.89319 0.0
H4742 H 0.29199 0.85758 0.92757 0.0
H4743 H 0.29035 0.87725 0.95539 0.0
H4744 H 0.30365 0.87681 0.88218 0.0
H4745 H 0.243 0.83108 0.89637 0.0
H4746 H 0.24874 0.85391 0.90655 0.0
H4747 H 0.26022 0.838 0.91572 0.0
C4748 C 0.27528 0.90123 0.92266 0.0
C4749 C 0.28006 0.89669 0.94035 0.0
C4750 C 0.27631 0.88991 0.90681 0.0
C4751 C 0.28211 0.87411 0.90866 0.0
C4752 C 0.28743 0.86981 0.92616 0.0
H4753 H 0.29633 0.78866 0.82857 0.0
H4754 H 0.30015 0.81041 0.85655 0.0
C4755 C 0.28634 0.881 0.94195 0.0
C4756 C 0.28129 0.86127 0.89245 0.0
H4757 H 0.25878 0.82084 0.87241 0.0
C4758 C 0.29389 0.86455 0.87993 0.0
C4759 C 0.26837 0.84552 0.88983 0.0
C4760 C 0.2542 0.84191 0.90273 0.0
C4761 C 0.29397 0.85208 0.86464 0.0
C4762 C 0.28127 0.83624 0.86231 0.0
C4763 C 0.26865 0.83302 0.87475 0.0
C4764 C 0.27951 0.82352 0.84591 0.0
C4765 C 0.30722 0.85589 0.85084 0.0
C4766 C 0.26632 0.82379 0.83143 0.0
C4767 C 0.26387 0.81139 0.81586 0.0
C4768 C 0.27474 0.79874 0.81466 0.0
C4769 C 0.28772 0.79824 0.82942 0.0
C4770 C 0.29008 0.81068 0.84514 0.0
H4771 H 0.31634 0.86889 0.85482 0.0
H4772 H 0.31531 0.84545 0.84975 0.0
H4773 H 0.29996 0.85569 0.83683 0.0
H4774 H 0.25801 0.83366 0.83217 0.0
H4775 H 0.25377 0.81201 0.8046 0.0
H4776 H 0.91418 0.54937 0.74416 0.0
H4777 H 0.93062 0.54802 0.71691 0.0
H4778 H 0.90503 0.49341 0.70135 0.0
H4779 H 0.888 0.49502 0.72807 0.0
H4780 H 0.9539 0.52611 0.71003 0.0
H4781 H 0.89785 0.51388 0.653 0.0
H4782 H 0.89533 0.52152 0.67678 0.0
H4783 H 0.89517 0.4986 0.66973 0.0
C4784 C 0.91177 0.5373 0.73452 0.0
C4785 C 0.89958 0.52249 0.73758 0.0
C4786 C 0.92117 0.5365 0.71916 0.0
C4787 C 0.91861 0.52076 0.70701 0.0
C4788 C 0.90659 0.50583 0.71025 0.0
H4789 H 0.96732 0.47211 0.62406 0.0
H4790 H 0.94788 0.48236 0.64588 0.0
C4791 C 0.8969 0.50676 0.72538 0.0
C4792 C 0.9293 0.51966 0.69151 0.0
H4793 H 0.9261 0.50869 0.64458 0.0
C4794 C 0.94791 0.52263 0.69566 0.0
C4795 C 0.92126 0.51507 0.67292 0.0
C4796 C 0.90131 0.51224 0.6678 0.0
C4797 C 0.95877 0.52028 0.68163 0.0
C4798 C 0.95067 0.51514 0.6631 0.0
C4799 C 0.93213 0.5128 0.65887 0.0
C4800 C 0.96102 0.50976 0.64842 0.0
C4801 C 0.97867 0.52241 0.68681 0.0
C4802 C 0.9744 0.52197 0.64248 0.0
C4803 C 0.9855 0.51612 0.63012 0.0
C4804 C 0.98327 0.49807 0.62381 0.0
C4805 C 0.96943 0.48602 0.62922 0.0
C4806 C 0.95828 0.49186 0.64142 0.0
H4807 H 0.98234 0.52357 0.70211 0.0
H4808 H 0.98367 0.51106 0.68006 0.0
H4809 H 0.98561 0.53453 0.68184 0.0
H4810 H 0.97649 0.53585 0.64773 0.0
H4811 H 0.99604 0.52557 0.62581 0.0
H4812 H 0.25961 0.21771 0.46184 0.0
H4813 H 0.26194 0.23065 0.43269 0.0
H4814 H 0.27921 0.18469 0.40779 0.0
H4815 H 0.27653 0.17156 0.4366 0.0
H4816 H 0.29091 0.23915 0.41372 0.0
H4817 H 0.23898 0.18863 0.36931 0.0
H4818 H 0.24162 0.19023 0.39439 0.0
H4819 H 0.25614 0.17957 0.38105 0.0
C4820 C 0.26387 0.21036 0.45014 0.0
C4821 C 0.26779 0.19357 0.45151 0.0
C4822 C 0.26519 0.21776 0.43349 0.0
C4823 C 0.27042 0.20849 0.41792 0.0
C4824 C 0.27469 0.19189 0.41942 0.0
H4825 H 0.28979 0.23348 0.30658 0.0
H4826 H 0.28944 0.22062 0.33587 0.0
C4827 C 0.27327 0.18446 0.43597 0.0
C4828 C 0.27187 0.21634 0.40027 0.0
H4829 H 0.25693 0.20924 0.35373 0.0
C4830 C 0.28341 0.23265 0.40063 0.0
C4831 C 0.26213 0.20781 0.38315 0.0
C4832 C 0.24889 0.19068 0.38192 0.0
C4833 C 0.28559 0.24057 0.38434 0.0
C4834 C 0.27588 0.23203 0.36728 0.0
C4835 C 0.26444 0.21569 0.36685 0.0
C4836 C 0.2768 0.24019 0.34983 0.0
C4837 C 0.29844 0.25792 0.38541 0.0
C4838 C 0.2697 0.25535 0.34798 0.0
C4839 C 0.26972 0.26262 0.33125 0.0
C4840 C 0.27689 0.25488 0.31604 0.0
C4841 C 0.28414 0.23974 0.31801 0.0
C4842 C 0.28398 0.2324 0.33473 0.0
H4843 H 0.30766 0.26087 0.39858 0.0
H4844 H 0.30645 0.25792 0.37347 0.0
H4845 H 0.29077 0.26867 0.38473 0.0
H4846 H 0.26384 0.26139 0.35938 0.0
H4847 H 0.2639 0.27419 0.33019 0.0
H4848 H 0.31885 0.62465 0.54707 0.0
H4849 H 0.34836 0.61886 0.5423 0.0
H4850 H 0.32961 0.56365 0.5456 0.0
H4851 H 0.29984 0.56921 0.55018 0.0
H4852 H 0.37208 0.59958 0.56463 0.0
H4853 H 0.34632 0.56961 0.49193 0.0
H4854 H 0.33521 0.58433 0.50538 0.0
H4855 H 0.33276 0.56164 0.50919 0.0
C4856 C 0.32108 0.61129 0.54703 0.0
C4857 C 0.30715 0.59725 0.54875 0.0
C4858 C 0.33789 0.6081 0.5444 0.0
C4859 C 0.3408 0.5909 0.54351 0.0
C4860 C 0.32728 0.577 0.54625 0.0
H4861 H 0.40579 0.52355 0.51498 0.0
H4862 H 0.3882 0.54112 0.53292 0.0
C4863 C 0.31043 0.58017 0.54891 0.0
C4864 C 0.35757 0.5871 0.53829 0.0
H4865 H 0.37412 0.56368 0.5044 0.0
C4866 C 0.37277 0.59193 0.55142 0.0
C4867 C 0.35815 0.57763 0.5208 0.0
C4868 C 0.34229 0.57313 0.50592 0.0
C4869 C 0.38845 0.58606 0.54798 0.0
C4870 C 0.38848 0.57527 0.53115 0.0
C4871 C 0.3737 0.57171 0.51748 0.0
C4872 C 0.40294 0.56617 0.52745 0.0
C4873 C 0.40452 0.59064 0.56249 0.0
C4874 C 0.4173 0.57472 0.51928 0.0
C4875 C 0.42722 0.56473 0.50906 0.0
C4876 C 0.42251 0.54628 0.50681 0.0
C4877 C 0.40918 0.53781 0.51634 0.0
C4878 C 0.39948 0.54778 0.5268 0.0
H4879 H 0.40231 0.59949 0.57475 0.0
H4880 H 0.40776 0.57839 0.56721 0.0
H4881 H 0.41623 0.59723 0.55629 0.0
H4882 H 0.41983 0.5889 0.51947 0.0
H4883 H 0.43781 0.57133 0.50198 0.0
H4884 H 0.84703 0.91548 0.55896 0.0
H4885 H 0.87846 0.93105 0.56212 0.0
H4886 H 0.87389 0.93403 0.50307 0.0
H4887 H 0.8427 0.91904 0.49995 0.0
H4888 H 0.90999 0.92512 0.5417 0.0
H4889 H 0.88541 0.98609 0.52898 0.0
H4890 H 0.87125 0.96712 0.53562 0.0
H4891 H 0.87636 0.96722 0.51203 0.0
C4892 C 0.85291 0.9192 0.54667 0.0
C4893 C 0.84244 0.91636 0.52927 0.0
C4894 C 0.87079 0.92807 0.54847 0.0
C4895 C 0.87832 0.93395 0.53286 0.0
C4896 C 0.86821 0.92989 0.51532 0.0
H4897 H 0.96841 0.00274 0.50304 0.0
H4898 H 0.93985 0.98402 0.50597 0.0
C4899 C 0.85041 0.92134 0.51357 0.0
C4900 C 0.89614 0.94561 0.5348 0.0
H4901 H 0.91633 0.98696 0.52833 0.0
C4902 C 0.91148 0.93871 0.539 0.0
C4903 C 0.89794 0.96328 0.53116 0.0
C4904 C 0.88187 0.97146 0.52684 0.0
C4905 C 0.92866 0.94883 0.53882 0.0
C4906 C 0.93045 0.96649 0.53489 0.0
C4907 C 0.91502 0.97346 0.53129 0.0
C4908 C 0.94802 0.97778 0.53341 0.0
C4909 C 0.94459 0.94019 0.54192 0.0
C4910 C 0.96214 0.98076 0.54793 0.0
C4911 C 0.97866 0.99112 0.54603 0.0
C4912 C 0.9811 0.99919 0.5299 0.0
C4913 C 0.96679 0.99683 0.51573 0.0
C4914 C 0.95049 0.98607 0.51738 0.0
H4915 H 0.94071 0.92558 0.53937 0.0
H4916 H 0.95483 0.94449 0.53271 0.0
H4917 H 0.9507 0.94389 0.5566 0.0
H4918 H 0.96042 0.97508 0.56071 0.0
H4919 H 0.98952 0.99289 0.55718 0.0
H4920 H 0.9052 0.07291 0.28471 0.0
H4921 H 0.89156 0.09903 0.28564 0.0
H4922 H 0.85944 0.07742 0.2334 0.0
H4923 H 0.87227 0.05084 0.23304 0.0
H4924 H 0.89096 0.12388 0.26406 0.0
H4925 H 0.82119 0.08808 0.26299 0.0
H4926 H 0.84 0.07737 0.26598 0.0
H4927 H 0.83148 0.08111 0.24312 0.0
C4928 C 0.89509 0.07368 0.27353 0.0
C4929 C 0.88954 0.05971 0.25899 0.0
C4930 C 0.88736 0.08865 0.27402 0.0
C4931 C 0.87413 0.09008 0.25981 0.0
C4932 C 0.8691 0.0764 0.24489 0.0
H4933 H 0.80871 0.17096 0.25173 0.0
H4934 H 0.82614 0.14851 0.2426 0.0
C4935 C 0.8765 0.06124 0.24464 0.0
C4936 C 0.86561 0.10583 0.26079 0.0
H4937 H 0.82532 0.11861 0.26145 0.0
C4938 C 0.8766 0.1227 0.26346 0.0
C4939 C 0.84683 0.10436 0.25992 0.0
C4940 C 0.8342 0.08677 0.25802 0.0
C4941 C 0.86938 0.13805 0.26554 0.0
C4942 C 0.85068 0.13652 0.26498 0.0
C4943 C 0.83966 0.11973 0.26174 0.0
C4944 C 0.84225 0.15195 0.26933 0.0
C4945 C 0.88182 0.15578 0.26839 0.0
C4946 C 0.84571 0.16147 0.28727 0.0
C4947 C 0.83569 0.1741 0.2925 0.0
C4948 C 0.82213 0.17752 0.27985 0.0
C4949 C 0.81926 0.16867 0.26162 0.0
C4950 C 0.82915 0.15584 0.25644 0.0
H4951 H 0.89474 0.15497 0.26295 0.0
H4952 H 0.8757 0.16563 0.26148 0.0
H4953 H 0.88466 0.16054 0.28353 0.0
H4954 H 0.85552 0.15847 0.29754 0.0
H4955 H 0.83804 0.18071 0.30668 0.0
H4956 H 0.71344 0.07896 0.01891 0.0
H4957 H 0.6828 0.06386 0.01985 0.0
H4958 H 0.67153 0.11064 0.05023 0.0
H4959 H 0.70215 0.12602 0.04913 0.0
H4960 H 0.65724 0.05944 0.04885 0.0
H4961 H 0.64485 0.10324 0.99521 0.0
H4962 H 0.66698 0.10013 0.00294 0.0
H4963 H 0.65592 0.11364 0.01765 0.0
C4964 C 0.70449 0.0859 0.02605 0.0
C4965 C 0.70972 0.10372 0.03335 0.0
C4966 C 0.6872 0.07723 0.0268 0.0
C4967 C 0.67521 0.08637 0.03492 0.0
C4968 C 0.68084 0.10362 0.04383 0.0
H4969 H 0.56418 0.06525 0.02914 0.0
H4970 H 0.59492 0.07952 0.02724 0.0
C4971 C 0.69811 0.11239 0.04292 0.0
C4972 C 0.65635 0.07916 0.03045 0.0
H4973 H 0.62034 0.08248 0.00096 0.0
C4974 C 0.64905 0.06442 0.03848 0.0
C4975 C 0.64615 0.08581 0.0167 0.0
C4976 C 0.65384 0.10151 0.00749 0.0
C4977 C 0.6313 0.05616 0.03324 0.0
C4978 C 0.62117 0.06272 0.0193 0.0
C4979 C 0.62851 0.07746 0.01132 0.0
C4980 C 0.60225 0.05573 0.01462 0.0
C4981 C 0.62344 0.04085 0.04294 0.0
C4982 C 0.59632 0.03813 0.00682 0.0
C4983 C 0.57889 0.03001 0.00804 0.0
C4984 C 0.56761 0.03973 0.01662 0.0
C4985 C 0.57289 0.05781 0.02225 0.0
C4986 C 0.59032 0.06588 0.0212 0.0
H4987 H 0.63223 0.0396 0.05559 0.0
H4988 H 0.61017 0.04234 0.04706 0.0
H4989 H 0.62161 0.02843 0.03328 0.0
H4990 H 0.60555 0.03035 0.00154 0.0
H4991 H 0.57471 0.01595 0.00378 0.0
H4992 H 0.18887 0.4808 0.22188 0.0
H4993 H 0.19824 0.45221 0.21986 0.0
H4994 H 0.21871 0.46293 0.27823 0.0
H4995 H 0.20918 0.49151 0.28026 0.0
H4996 H 0.23566 0.44669 0.23209 0.0
H4997 H 0.18114 0.4143 0.26923 0.0
H4998 H 0.17953 0.43338 0.25753 0.0
H4999 H 0.19244 0.43588 0.27994 0.0
C5000 C 0.19564 0.47702 0.23413 0.0
C5001 C 0.1987 0.48802 0.25116 0.0
C5002 C 0.20084 0.46084 0.23298 0.0
C5003 C 0.20894 0.4557 0.24892 0.0
C5004 C 0.21229 0.46688 0.2659 0.0
H5005 H 0.26462 0.39626 0.30058 0.0
H5006 H 0.25465 0.41715 0.28106 0.0
C5007 C 0.20705 0.48307 0.26705 0.0
C5008 C 0.214 0.43859 0.24801 0.0
H5009 H 0.2068 0.4009 0.26785 0.0
C5010 C 0.22915 0.43637 0.23943 0.0
C5011 C 0.20515 0.42533 0.25741 0.0
C5012 C 0.18856 0.42722 0.26644 0.0
C5013 C 0.23681 0.42169 0.24165 0.0
C5014 C 0.22884 0.40918 0.25244 0.0
C5015 C 0.21271 0.41061 0.25945 0.0
C5016 C 0.23865 0.39686 0.26028 0.0
C5017 C 0.25398 0.42021 0.2337 0.0
C5018 C 0.2331 0.37876 0.25466 0.0
C5019 C 0.23883 0.3669 0.26572 0.0
C5020 C 0.2497 0.37322 0.2826 0.0
C5021 C 0.25603 0.39131 0.28766 0.0
C5022 C 0.2506 0.40312 0.27644 0.0
H5023 H 0.25638 0.42881 0.22261 0.0
H5024 H 0.26528 0.42425 0.24499 0.0
H5025 H 0.25376 0.40635 0.22791 0.0
H5026 H 0.22359 0.37389 0.24238 0.0
H5027 H 0.23404 0.35288 0.26166 0.0
H5028 H 0.21937 0.38234 0.03779 0.0
H5029 H 0.19393 0.39739 0.0352 0.0
H5030 H 0.22961 0.44574 0.02967 0.0
H5031 H 0.25507 0.43093 0.03244 0.0
H5032 H 0.19036 0.43119 0.05892 0.0
H5033 H 0.18948 0.43456 0.98287 0.0
H5034 H 0.1995 0.41871 0.99436 0.0
H5035 H 0.211 0.44123 0.9965 0.0
C5036 C 0.22177 0.39619 0.03608 0.0
C5037 C 0.23918 0.40549 0.03535 0.0
C5038 C 0.20727 0.40474 0.03464 0.0
C5039 C 0.20997 0.4226 0.03217 0.0
C5040 C 0.22732 0.43192 0.03151 0.0
H5041 H 0.14767 0.4997 0.00949 0.0
H5042 H 0.17125 0.48469 0.02064 0.0
C5043 C 0.24182 0.42346 0.03317 0.0
C5044 C 0.19471 0.43162 0.03016 0.0
H5045 H 0.17137 0.4511 -0.00097 0.0
C5046 C 0.18606 0.43546 0.04582 0.0
C5047 C 0.1892 0.43705 0.01302 0.0
C5048 C 0.19764 0.43259 0.99565 0.0
C5049 C 0.17231 0.44516 0.0449 0.0
C5050 C 0.16712 0.45096 0.02787 0.0
C5051 C 0.17555 0.44676 0.01213 0.0
C5052 C 0.15303 0.4615 0.02579 0.0
C5053 C 0.16379 0.4496 0.06218 0.0
C5054 C 0.135 0.45372 0.02581 0.0
C5055 C 0.12152 0.46237 0.01959 0.0
C5056 C 0.12598 0.47883 0.01327 0.0
C5057 C 0.14398 0.48714 0.01462 0.0
C5058 C 0.15742 0.47854 0.02085 0.0
H5059 H 0.17118 0.44646 0.07488 0.0
H5060 H 0.16315 0.46382 0.06408 0.0
H5061 H 0.14991 0.44195 0.06065 0.0
H5062 H 0.13137 0.44045 0.02928 0.0
H5063 H 0.10771 0.45558 0.01823 0.0
H5064 H 0.90773 0.94132 0.27014 0.0
H5065 H 0.88702 0.91363 0.27169 0.0
H5066 H 0.84478 0.93267 0.24171 0.0
H5067 H 0.86541 0.96069 0.24047 0.0
H5068 H 0.84353 0.91431 0.28336 0.0
H5069 H 0.85774 0.87812 0.21777 0.0
H5070 H 0.875 0.89462 0.23173 0.0
H5071 H 0.85651 0.90117 0.21934 0.0
C5072 C 0.89403 0.9396 0.26386 0.0
C5073 C 0.88815 0.95314 0.2552 0.0
C5074 C 0.88224 0.92381 0.26477 0.0
C5075 C 0.86444 0.92113 0.25675 0.0
C5076 C 0.85849 0.93457 0.24803 0.0
H5077 H 0.78938 0.82008 0.23663 0.0
H5078 H 0.8062 0.84967 0.23447 0.0
C5079 C 0.87023 0.95053 0.24738 0.0
C5080 C 0.8521 0.9043 0.25775 0.0
H5081 H 0.83844 0.86224 0.23586 0.0
C5082 C 0.84225 0.9029 0.27295 0.0
C5083 C 0.85041 0.8896 0.24405 0.0
C5084 C 0.86042 0.89077 0.22722 0.0
C5085 C 0.83071 0.8871 0.27488 0.0
C5086 C 0.82949 0.87201 0.26155 0.0
C5087 C 0.83928 0.87362 0.24618 0.0
C5088 C 0.81833 0.85444 0.26322 0.0
C5089 C 0.81968 0.88709 0.291 0.0
C5090 C 0.81926 0.84711 0.28006 0.0
C5091 C 0.80888 0.83065 0.28149 0.0
C5092 C 0.79824 0.82066 0.26583 0.0
C5093 C 0.79751 0.82764 0.24889 0.0
C5094 C 0.80723 0.84449 0.24766 0.0
H5095 H 0.81718 0.90047 0.29536 0.0
H5096 H 0.8066 0.8779 0.28747 0.0
H5097 H 0.82714 0.88311 0.30313 0.0
H5098 H 0.82822 0.85395 0.29209 0.0
H5099 H 0.80968 0.82543 0.29468 0.0
H5100 H 0.67053 0.1042 0.73156 0.0
H5101 H 0.68659 0.13458 0.74027 0.0
H5102 H 0.7321 0.11603 0.76453 0.0
H5103 H 0.7164 0.08568 0.75579 0.0
H5104 H 0.69992 0.14766 0.77974 0.0
H5105 H 0.75188 0.15361 0.73097 0.0
H5106 H 0.73136 0.13739 0.72617 0.0
H5107 H 0.74916 0.13417 0.74251 0.0
C5108 C 0.68407 0.10658 0.73843 0.0
C5109 C 0.69215 0.09264 0.74325 0.0
C5110 C 0.69314 0.12386 0.74342 0.0
C5111 C 0.71032 0.12724 0.75306 0.0
C5112 C 0.71881 0.11343 0.75699 0.0
H5113 H 0.78254 0.22526 0.78405 0.0
H5114 H 0.76791 0.19608 0.79029 0.0
C5115 C 0.7098 0.09617 0.75202 0.0
C5116 C 0.71903 0.14523 0.76014 0.0
H5117 H 0.75386 0.1772 0.7547 0.0
C5118 C 0.71179 0.1542 0.77442 0.0
C5119 C 0.73446 0.15335 0.75307 0.0
C5120 C 0.74215 0.14424 0.73723 0.0
C5121 C 0.7196 0.17153 0.78171 0.0
C5122 C 0.73489 0.17972 0.77447 0.0
C5123 C 0.74235 0.17055 0.76051 0.0
C5124 C 0.74167 0.1986 0.77839 0.0
C5125 C 0.71131 0.18111 0.79668 0.0
C5126 C 0.73142 0.20966 0.77049 0.0
C5127 C 0.73974 0.22603 0.76672 0.0
C5128 C 0.75822 0.23131 0.77108 0.0
C5129 C 0.7682 0.22109 0.78067 0.0
C5130 C 0.75988 0.2047 0.78445 0.0
H5131 H 0.70297 0.17177 0.80433 0.0
H5132 H 0.72173 0.19007 0.80676 0.0
H5133 H 0.70259 0.18922 0.79015 0.0
H5134 H 0.71744 0.2049 0.76531 0.0
H5135 H 0.73202 0.23384 0.7591 0.0
loop_
_geom_bond_atom_site_label_1
_geom_bond_atom_site_label_2
_geom_bond_distance
_geom_bond_site_symmetry_2
_ccdc_geom_bond_type
C0 O1 1.306 . S
C0 O3 1.160 . S
O1 C0 1.306 . S
O1 Cd2 2.228 . S
Cd2 O1 2.228 . S
Cd2 O6 2.273 . S
Cd2 O10 2.277 . S
O3 C0 1.160 . S
O3 Cd4 2.203 . S
Cd4 O3 2.203 . S
Cd4 O6 2.411 . S
Cd4 O7 2.333 . S
Cd4 O8 2.352 . S
Cd4 O12 2.277 . S
Cd4 O13 2.356 . S
C5 O10 1.209 . S
C5 O12 1.226 . S
O6 Cd2 2.273 . S
O6 Cd4 2.411 . S
O6 C9 1.320 . S
O7 Cd4 2.333 . S
O7 C9 1.214 . S
O8 Cd4 2.352 . S
O8 C11 1.258 . S
C9 O6 1.320 . S
C9 O7 1.214 . S
O10 Cd2 2.277 . S
O10 C5 1.209 . S
C11 O8 1.258 . S
C11 O13 1.282 . S
O12 Cd4 2.277 . S
O12 C5 1.226 . S
O13 Cd4 2.356 . S
O13 C11 1.282 . S
C14 O15 1.306 . S
C14 O17 1.160 . S
O15 C14 1.306 . S
O15 Cd16 2.228 1_655 S
Cd16 O15 2.228 1_455 S
Cd16 O20 2.273 . S
Cd16 O24 2.277 . S
O17 C14 1.160 . S
O17 Cd18 2.203 1_655 S
Cd18 O17 2.203 1_455 S
Cd18 O20 2.411 . S
Cd18 O21 2.333 . S
Cd18 O22 2.352 . S
Cd18 O26 2.277 . S
Cd18 O27 2.356 . S
C19 O24 1.209 . S
C19 O26 1.226 . S
O20 Cd16 2.273 . S
O20 Cd18 2.411 . S
O20 C23 1.320 . S
O21 Cd18 2.333 . S
O21 C23 1.214 . S
O22 Cd18 2.352 . S
O22 C25 1.258 . S
C23 O20 1.320 . S
C23 O21 1.214 . S
O24 Cd16 2.277 . S
O24 C19 1.209 . S
C25 O22 1.258 . S
C25 O27 1.282 . S
O26 Cd18 2.277 . S
O26 C19 1.226 . S
O27 Cd18 2.356 . S
O27 C25 1.282 . S
C28 O29 1.306 . S
C28 O31 1.160 . S
O29 C28 1.306 . S
O29 Cd30 2.228 . S
Cd30 O29 2.228 . S
Cd30 O34 2.273 . S
Cd30 O38 2.277 . S
O31 C28 1.160 . S
O31 Cd32 2.203 . S
Cd32 O31 2.203 . S
Cd32 O34 2.411 . S
Cd32 O35 2.333 . S
Cd32 O36 2.352 . S
Cd32 O40 2.277 . S
Cd32 O41 2.356 . S
C33 O38 1.209 . S
C33 O40 1.226 . S
O34 Cd30 2.273 . S
O34 Cd32 2.411 . S
O34 C37 1.320 . S
O35 Cd32 2.333 . S
O35 C37 1.214 . S
O36 Cd32 2.352 . S
O36 C39 1.258 . S
C37 O34 1.320 . S
C37 O35 1.214 . S
O38 Cd30 2.277 . S
O38 C33 1.209 . S
C39 O36 1.258 . S
C39 O41 1.282 . S
O40 Cd32 2.277 . S
O40 C33 1.226 . S
O41 Cd32 2.356 . S
O41 C39 1.282 . S
C42 O43 1.306 . S
C42 O45 1.160 . S
O43 C42 1.306 . S
O43 Cd44 2.228 . S
Cd44 O43 2.228 . S
Cd44 O48 2.273 . S
Cd44 O52 2.277 . S
O45 C42 1.160 . S
O45 Cd46 2.203 . S
Cd46 O45 2.203 . S
Cd46 O48 2.411 . S
Cd46 O49 2.333 . S
Cd46 O50 2.352 . S
Cd46 O54 2.277 . S
Cd46 O55 2.356 . S
C47 O52 1.209 . S
C47 O54 1.226 . S
O48 Cd44 2.273 . S
O48 Cd46 2.411 . S
O48 C51 1.320 . S
O49 Cd46 2.333 . S
O49 C51 1.214 . S
O50 Cd46 2.352 . S
O50 C53 1.258 . S
C51 O48 1.320 . S
C51 O49 1.214 . S
O52 Cd44 2.277 . S
O52 C47 1.209 . S
C53 O50 1.258 . S
C53 O55 1.282 . S
O54 Cd46 2.277 . S
O54 C47 1.226 . S
O55 Cd46 2.356 . S
O55 C53 1.282 . S
C56 O57 1.306 . S
C56 O59 1.160 . S
O57 C56 1.306 . S
O57 Cd58 2.228 . S
Cd58 O57 2.228 . S
Cd58 O62 2.273 . S
Cd58 O66 2.277 . S
O59 C56 1.160 . S
O59 Cd60 2.203 . S
Cd60 O59 2.203 . S
Cd60 O62 2.411 . S
Cd60 O63 2.333 . S
Cd60 O64 2.352 . S
Cd60 O68 2.277 . S
Cd60 O69 2.356 . S
C61 O66 1.209 . S
C61 O68 1.226 . S
O62 Cd58 2.273 . S
O62 Cd60 2.411 . S
O62 C65 1.320 . S
O63 Cd60 2.333 . S
O63 C65 1.214 . S
O64 Cd60 2.352 . S
O64 C67 1.258 . S
C65 O62 1.320 . S
C65 O63 1.214 . S
O66 Cd58 2.277 . S
O66 C61 1.209 . S
C67 O64 1.258 . S
C67 O69 1.282 . S
O68 Cd60 2.277 . S
O68 C61 1.226 . S
O69 Cd60 2.356 . S
O69 C67 1.282 . S
C70 O71 1.306 . S
C70 O73 1.160 . S
O71 C70 1.306 . S
O71 Cd72 2.228 . S
Cd72 O71 2.228 . S
Cd72 O76 2.273 . S
Cd72 O80 2.277 . S
O73 C70 1.160 . S
O73 Cd74 2.203 . S
Cd74 O73 2.203 . S
Cd74 O76 2.411 . S
Cd74 O77 2.333 . S
Cd74 O78 2.352 . S
Cd74 O82 2.277 . S
Cd74 O83 2.356 . S
C75 O80 1.209 . S
C75 O82 1.226 . S
O76 Cd72 2.273 . S
O76 Cd74 2.411 . S
O76 C79 1.320 . S
O77 Cd74 2.333 . S
O77 C79 1.214 . S
O78 Cd74 2.352 . S
O78 C81 1.258 . S
C79 O76 1.320 . S
C79 O77 1.214 . S
O80 Cd72 2.277 . S
O80 C75 1.209 . S
C81 O78 1.258 . S
C81 O83 1.282 . S
O82 Cd74 2.277 . S
O82 C75 1.226 . S
O83 Cd74 2.356 . S
O83 C81 1.282 . S
C84 O85 1.306 . S
C84 O87 1.160 . S
O85 C84 1.306 . S
O85 Cd86 2.228 . S
Cd86 O85 2.228 . S
Cd86 O90 2.273 . S
Cd86 O94 2.277 . S
O87 C84 1.160 . S
O87 Cd88 2.203 . S
Cd88 O87 2.203 . S
Cd88 O90 2.411 . S
Cd88 O91 2.333 . S
Cd88 O92 2.352 . S
Cd88 O96 2.277 . S
Cd88 O97 2.356 . S
C89 O94 1.209 . S
C89 O96 1.226 . S
O90 Cd86 2.273 . S
O90 Cd88 2.411 . S
O90 C93 1.320 . S
O91 Cd88 2.333 . S
O91 C93 1.214 . S
O92 Cd88 2.352 . S
O92 C95 1.258 . S
C93 O90 1.320 . S
C93 O91 1.214 . S
O94 Cd86 2.277 . S
O94 C89 1.209 . S
C95 O92 1.258 . S
C95 O97 1.282 . S
O96 Cd88 2.277 . S
O96 C89 1.226 . S
O97 Cd88 2.356 . S
O97 C95 1.282 . S
C98 O99 1.306 . S
C98 O101 1.160 . S
O99 C98 1.306 . S
O99 Cd100 2.228 1_655 S
Cd100 O99 2.228 1_455 S
Cd100 O104 2.273 . S
Cd100 O108 2.277 . S
O101 C98 1.160 . S
O101 Cd102 2.203 1_655 S
Cd102 O101 2.203 1_455 S
Cd102 O104 2.411 . S
Cd102 O105 2.333 . S
Cd102 O106 2.352 1_455 S
Cd102 O110 2.277 . S
Cd102 O111 2.356 . S
C103 O108 1.209 . S
C103 O110 1.226 . S
O104 Cd100 2.273 . S
O104 Cd102 2.411 . S
O104 C107 1.320 . S
O105 Cd102 2.333 . S
O105 C107 1.214 . S
O106 Cd102 2.352 1_655 S
O106 C109 1.263 . S
C107 O104 1.320 . S
C107 O105 1.214 . S
O108 Cd100 2.277 . S
O108 C103 1.209 . S
C109 O106 1.263 . S
C109 O111 1.280 1_655 S
O110 Cd102 2.277 . S
O110 C103 1.226 . S
O111 Cd102 2.356 . S
O111 C109 1.280 1_455 S
C112 O113 1.306 . S
C112 O115 1.160 . S
O113 C112 1.306 . S
O113 Cd114 2.228 1_545 S
Cd114 O113 2.228 1_565 S
Cd114 O118 2.273 1_565 S
Cd114 O122 2.277 . S
O115 C112 1.160 . S
O115 Cd116 2.203 . S
Cd116 O115 2.203 . S
Cd116 O118 2.411 . S
Cd116 O119 2.333 . S
Cd116 O120 2.352 . S
Cd116 O124 2.277 1_545 S
Cd116 O125 2.356 . S
C117 O122 1.209 . S
C117 O124 1.226 . S
O118 Cd114 2.273 1_545 S
O118 Cd116 2.411 . S
O118 C121 1.320 . S
O119 Cd116 2.333 . S
O119 C121 1.214 . S
O120 Cd116 2.352 . S
O120 C123 1.258 . S
C121 O118 1.320 . S
C121 O119 1.214 . S
O122 Cd114 2.277 . S
O122 C117 1.209 . S
C123 O120 1.258 . S
C123 O125 1.282 . S
O124 Cd116 2.277 1_565 S
O124 C117 1.226 . S
O125 Cd116 2.356 . S
O125 C123 1.282 . S
C126 O127 1.306 . S
C126 O129 1.160 . S
O127 C126 1.306 . S
O127 Cd128 2.228 . S
Cd128 O127 2.228 . S
Cd128 O132 2.273 . S
Cd128 O136 2.277 . S
O129 C126 1.160 . S
O129 Cd130 2.203 . S
Cd130 O129 2.203 . S
Cd130 O132 2.411 . S
Cd130 O133 2.333 . S
Cd130 O134 2.352 . S
Cd130 O138 2.277 . S
Cd130 O139 2.356 . S
C131 O136 1.209 . S
C131 O138 1.226 . S
O132 Cd128 2.273 . S
O132 Cd130 2.411 . S
O132 C135 1.320 . S
O133 Cd130 2.333 . S
O133 C135 1.214 . S
O134 Cd130 2.352 . S
O134 C137 1.258 . S
C135 O132 1.320 . S
C135 O133 1.214 . S
O136 Cd128 2.277 . S
O136 C131 1.209 . S
C137 O134 1.258 . S
C137 O139 1.282 . S
O138 Cd130 2.277 . S
O138 C131 1.226 . S
O139 Cd130 2.356 . S
O139 C137 1.282 . S
C140 O141 1.306 . S
C140 O143 1.160 . S
O141 C140 1.306 . S
O141 Cd142 2.228 . S
Cd142 O141 2.228 . S
Cd142 O146 2.273 . S
Cd142 O150 2.277 . S
O143 C140 1.160 . S
O143 Cd144 2.203 . S
Cd144 O143 2.203 . S
Cd144 O146 2.411 . S
Cd144 O147 2.333 . S
Cd144 O148 2.303 1_545 S
Cd144 O152 2.277 . S
Cd144 O153 2.356 . S
C145 O150 1.209 . S
C145 O152 1.226 . S
O146 Cd142 2.273 . S
O146 Cd144 2.411 . S
O146 C149 1.320 . S
O147 Cd144 2.333 . S
O147 C149 1.214 . S
O148 Cd144 2.303 1_565 S
O148 C151 1.258 . S
C149 O146 1.320 . S
C149 O147 1.214 . S
O150 Cd142 2.277 . S
O150 C145 1.209 . S
C151 O148 1.258 . S
C151 O153 1.248 1_565 S
O152 Cd144 2.277 . S
O152 C145 1.226 . S
O153 Cd144 2.356 . S
O153 C151 1.248 1_545 S
C154 O155 1.299 1_554 S
C154 O157 1.166 . S
O155 C154 1.299 1_556 S
O155 Cd156 2.228 . S
Cd156 O155 2.228 . S
Cd156 O160 2.283 . S
Cd156 O164 2.277 . S
O157 C154 1.166 . S
O157 Cd158 2.203 . S
Cd158 O157 2.203 . S
Cd158 O160 2.409 1_554 S
Cd158 O161 2.331 . S
Cd158 O162 2.352 . S
Cd158 O166 2.277 1_554 S
Cd158 O167 2.356 . S
C159 O164 1.209 . S
C159 O166 1.226 . S
O160 Cd156 2.283 . S
O160 Cd158 2.409 1_556 S
O160 C163 1.321 . S
O161 Cd158 2.331 . S
O161 C163 1.202 1_554 S
O162 Cd158 2.352 . S
O162 C165 1.258 . S
C163 O160 1.321 . S
C163 O161 1.202 1_556 S
O164 Cd156 2.277 . S
O164 C159 1.209 . S
C165 O162 1.258 . S
C165 O167 1.282 . S
O166 Cd158 2.277 1_556 S
O166 C159 1.226 . S
O167 Cd158 2.356 . S
O167 C165 1.282 . S
C168 O169 1.306 . S
C168 O171 1.160 . S
O169 C168 1.306 . S
O169 Cd170 2.228 . S
Cd170 O169 2.228 . S
Cd170 O174 2.273 . S
Cd170 O178 2.277 . S
O171 C168 1.160 . S
O171 Cd172 2.203 . S
Cd172 O171 2.203 . S
Cd172 O174 2.411 . S
Cd172 O175 2.333 . S
Cd172 O176 2.352 . S
Cd172 O180 2.277 . S
Cd172 O181 2.356 . S
C173 O178 1.208 1_556 S
C173 O180 1.186 1_556 S
O174 Cd170 2.273 . S
O174 Cd172 2.411 . S
O174 C177 1.320 . S
O175 Cd172 2.333 . S
O175 C177 1.214 . S
O176 Cd172 2.352 . S
O176 C179 1.258 . S
C177 O174 1.320 . S
C177 O175 1.214 . S
O178 Cd170 2.277 . S
O178 C173 1.208 1_554 S
C179 O176 1.258 . S
C179 O181 1.282 . S
O180 Cd172 2.277 . S
O180 C173 1.186 1_554 S
O181 Cd172 2.356 . S
O181 C179 1.282 . S
C182 O183 1.306 . S
C182 O185 1.160 . S
O183 C182 1.306 . S
O183 Cd184 2.228 . S
Cd184 O183 2.228 . S
Cd184 O188 2.273 . S
Cd184 O192 2.277 . S
O185 C182 1.160 . S
O185 Cd186 2.203 . S
Cd186 O185 2.203 . S
Cd186 O188 2.411 . S
Cd186 O189 2.333 . S
Cd186 O190 2.352 . S
Cd186 O194 2.277 . S
Cd186 O195 2.356 . S
C187 O192 1.209 . S
C187 O194 1.226 . S
O188 Cd184 2.273 . S
O188 Cd186 2.411 . S
O188 C191 1.320 . S
O189 Cd186 2.333 . S
O189 C191 1.214 . S
O190 Cd186 2.352 . S
O190 C193 1.258 . S
C191 O188 1.320 . S
C191 O189 1.214 . S
O192 Cd184 2.277 . S
O192 C187 1.209 . S
C193 O190 1.258 . S
C193 O195 1.282 . S
O194 Cd186 2.277 . S
O194 C187 1.226 . S
O195 Cd186 2.356 . S
O195 C193 1.282 . S
C196 O197 1.306 . S
C196 O199 1.160 . S
O197 C196 1.306 . S
O197 Cd198 2.228 . S
Cd198 O197 2.228 . S
Cd198 O202 2.273 . S
Cd198 O206 2.277 . S
O199 C196 1.160 . S
O199 Cd200 2.203 . S
Cd200 O199 2.203 . S
Cd200 O202 2.411 . S
Cd200 O203 2.333 . S
Cd200 O204 2.352 . S
Cd200 O208 2.277 . S
Cd200 O209 2.356 . S
C201 O206 1.209 . S
C201 O208 1.226 . S
O202 Cd198 2.273 . S
O202 Cd200 2.411 . S
O202 C205 1.320 . S
O203 Cd200 2.333 . S
O203 C205 1.214 . S
O204 Cd200 2.352 . S
O204 C207 1.258 . S
C205 O202 1.320 . S
C205 O203 1.214 . S
O206 Cd198 2.277 . S
O206 C201 1.209 . S
C207 O204 1.258 . S
C207 O209 1.282 . S
O208 Cd200 2.277 . S
O208 C201 1.226 . S
O209 Cd200 2.356 . S
O209 C207 1.282 . S
C210 O211 1.306 . S
C210 O213 1.160 . S
O211 C210 1.306 . S
O211 Cd212 2.228 . S
Cd212 O211 2.228 . S
Cd212 O216 2.273 . S
Cd212 O220 2.277 . S
O213 C210 1.160 . S
O213 Cd214 2.203 . S
Cd214 O213 2.203 . S
Cd214 O216 2.411 . S
Cd214 O217 2.333 . S
Cd214 O218 2.352 . S
Cd214 O222 2.277 . S
Cd214 O223 2.356 . S
C215 O220 1.209 . S
C215 O222 1.226 . S
O216 Cd212 2.273 . S
O216 Cd214 2.411 . S
O216 C219 1.320 . S
O217 Cd214 2.333 . S
O217 C219 1.214 . S
O218 Cd214 2.352 . S
O218 C221 1.258 . S
C219 O216 1.320 . S
C219 O217 1.214 . S
O220 Cd212 2.277 . S
O220 C215 1.209 . S
C221 O218 1.258 . S
C221 O223 1.282 . S
O222 Cd214 2.277 . S
O222 C215 1.226 . S
O223 Cd214 2.356 . S
O223 C221 1.282 . S
C224 O225 1.306 . S
C224 O227 1.160 . S
O225 C224 1.306 . S
O225 Cd226 2.228 1_545 S
Cd226 O225 2.228 1_565 S
Cd226 O230 2.273 1_565 S
Cd226 O234 2.277 . S
O227 C224 1.160 . S
O227 Cd228 2.203 . S
Cd228 O227 2.203 . S
Cd228 O230 2.411 . S
Cd228 O231 2.333 . S
Cd228 O232 2.352 . S
Cd228 O236 2.277 1_545 S
Cd228 O237 2.356 . S
C229 O234 1.209 . S
C229 O236 1.226 . S
O230 Cd226 2.273 1_545 S
O230 Cd228 2.411 . S
O230 C233 1.320 . S
O231 Cd228 2.333 . S
O231 C233 1.214 . S
O232 Cd228 2.352 . S
O232 C235 1.258 . S
C233 O230 1.320 . S
C233 O231 1.214 . S
O234 Cd226 2.277 . S
O234 C229 1.209 . S
C235 O232 1.258 . S
C235 O237 1.282 . S
O236 Cd228 2.277 1_565 S
O236 C229 1.226 . S
O237 Cd228 2.356 . S
O237 C235 1.282 . S
C238 O239 1.306 . S
C238 O241 1.160 . S
O239 C238 1.306 . S
O239 Cd240 2.228 . S
Cd240 O239 2.228 . S
Cd240 O244 2.273 . S
Cd240 O248 2.277 . S
O241 C238 1.160 . S
O241 Cd242 2.203 . S
Cd242 O241 2.203 . S
Cd242 O244 2.411 . S
Cd242 O245 2.333 . S
Cd242 O246 2.352 . S
Cd242 O250 2.277 . S
Cd242 O251 2.356 . S
C243 O248 1.209 . S
C243 O250 1.226 . S
O244 Cd240 2.273 . S
O244 Cd242 2.411 . S
O244 C247 1.320 . S
O245 Cd242 2.333 . S
O245 C247 1.214 . S
O246 Cd242 2.352 . S
O246 C249 1.258 . S
C247 O244 1.320 . S
C247 O245 1.214 . S
O248 Cd240 2.277 . S
O248 C243 1.209 . S
C249 O246 1.258 . S
C249 O251 1.282 . S
O250 Cd242 2.277 . S
O250 C243 1.226 . S
O251 Cd242 2.356 . S
O251 C249 1.282 . S
C252 O253 1.306 . S
C252 O255 1.160 . S
O253 C252 1.306 . S
O253 Cd254 2.228 . S
Cd254 O253 2.228 . S
Cd254 O258 2.273 . S
Cd254 O262 2.277 . S
O255 C252 1.160 . S
O255 Cd256 2.203 . S
Cd256 O255 2.203 . S
Cd256 O258 2.411 . S
Cd256 O259 2.333 . S
Cd256 O260 2.352 . S
Cd256 O264 2.277 . S
Cd256 O265 2.356 . S
C257 O262 1.209 . S
C257 O264 1.226 . S
O258 Cd254 2.273 . S
O258 Cd256 2.411 . S
O258 C261 1.320 . S
O259 Cd256 2.333 . S
O259 C261 1.214 . S
O260 Cd256 2.352 . S
O260 C263 1.258 . S
C261 O258 1.320 . S
C261 O259 1.214 . S
O262 Cd254 2.277 . S
O262 C257 1.209 . S
C263 O260 1.258 . S
C263 O265 1.282 . S
O264 Cd256 2.277 . S
O264 C257 1.226 . S
O265 Cd256 2.356 . S
O265 C263 1.282 . S
C266 O267 1.306 . S
C266 O269 1.160 . S
O267 C266 1.306 . S
O267 Cd268 2.228 . S
Cd268 O267 2.228 . S
Cd268 O272 2.273 . S
Cd268 O276 2.277 . S
O269 C266 1.160 . S
O269 Cd270 2.203 . S
Cd270 O269 2.203 . S
Cd270 O272 2.411 . S
Cd270 O273 2.333 . S
Cd270 O274 2.352 . S
Cd270 O278 2.277 . S
Cd270 O279 2.356 . S
C271 O276 1.209 . S
C271 O278 1.226 . S
O272 Cd268 2.273 . S
O272 Cd270 2.411 . S
O272 C275 1.320 . S
O273 Cd270 2.333 . S
O273 C275 1.214 . S
O274 Cd270 2.352 . S
O274 C277 1.258 . S
C275 O272 1.320 . S
C275 O273 1.214 . S
O276 Cd268 2.277 . S
O276 C271 1.209 . S
C277 O274 1.258 . S
C277 O279 1.282 . S
O278 Cd270 2.277 . S
O278 C271 1.226 . S
O279 Cd270 2.356 . S
O279 C277 1.282 . S
C280 O281 1.306 . S
C280 O283 1.160 . S
O281 C280 1.306 . S
O281 Cd282 2.228 . S
Cd282 O281 2.228 . S
Cd282 O286 2.273 . S
Cd282 O290 2.277 . S
O283 C280 1.160 . S
O283 Cd284 2.203 . S
Cd284 O283 2.203 . S
Cd284 O286 2.411 . S
Cd284 O287 2.333 . S
Cd284 O288 2.352 1_554 S
Cd284 O292 2.277 . S
Cd284 O293 2.356 1_554 S
C285 O290 1.209 . S
C285 O292 1.226 . S
O286 Cd282 2.273 . S
O286 Cd284 2.411 . S
O286 C289 1.320 . S
O287 Cd284 2.333 . S
O287 C289 1.214 . S
O288 Cd284 2.352 1_556 S
O288 C291 1.258 . S
C289 O286 1.320 . S
C289 O287 1.214 . S
O290 Cd282 2.277 . S
O290 C285 1.209 . S
C291 O288 1.258 . S
C291 O293 1.282 . S
O292 Cd284 2.277 . S
O292 C285 1.226 . S
O293 Cd284 2.356 1_556 S
O293 C291 1.282 . S
C294 O295 1.306 . S
C294 O297 1.160 . S
O295 C294 1.306 . S
O295 Cd296 2.228 . S
Cd296 O295 2.228 . S
Cd296 O300 2.273 . S
Cd296 O304 2.277 . S
O297 C294 1.160 . S
O297 Cd298 2.203 . S
Cd298 O297 2.203 . S
Cd298 O300 2.411 . S
Cd298 O301 2.333 . S
Cd298 O302 2.352 . S
Cd298 O306 2.277 . S
Cd298 O307 2.356 . S
C299 O304 1.209 . S
C299 O306 1.226 . S
O300 Cd296 2.273 . S
O300 Cd298 2.411 . S
O300 C303 1.320 . S
O301 Cd298 2.333 . S
O301 C303 1.214 . S
O302 Cd298 2.352 . S
O302 C305 1.258 . S
C303 O300 1.320 . S
C303 O301 1.214 . S
O304 Cd296 2.277 . S
O304 C299 1.209 . S
C305 O302 1.258 . S
C305 O307 1.282 . S
O306 Cd298 2.277 . S
O306 C299 1.226 . S
O307 Cd298 2.356 . S
O307 C305 1.282 . S
C308 O309 1.306 . S
C308 O311 1.160 . S
O309 C308 1.306 . S
O309 Cd310 2.228 . S
Cd310 O309 2.228 . S
Cd310 O314 2.273 . S
Cd310 O318 2.277 . S
O311 C308 1.160 . S
O311 Cd312 2.203 . S
Cd312 O311 2.203 . S
Cd312 O314 2.411 . S
Cd312 O315 2.333 . S
Cd312 O316 2.352 . S
Cd312 O320 2.277 . S
Cd312 O321 2.356 . S
C313 O318 1.209 . S
C313 O320 1.226 . S
O314 Cd310 2.273 . S
O314 Cd312 2.411 . S
O314 C317 1.320 . S
O315 Cd312 2.333 . S
O315 C317 1.214 . S
O316 Cd312 2.352 . S
O316 C319 1.258 . S
C317 O314 1.320 . S
C317 O315 1.214 . S
O318 Cd310 2.277 . S
O318 C313 1.209 . S
C319 O316 1.258 . S
C319 O321 1.282 . S
O320 Cd312 2.277 . S
O320 C313 1.226 . S
O321 Cd312 2.356 . S
O321 C319 1.282 . S
C322 O323 1.306 . S
C322 O325 1.160 . S
O323 C322 1.306 . S
O323 Cd324 2.228 . S
Cd324 O323 2.228 . S
Cd324 O328 2.273 . S
Cd324 O332 2.277 . S
O325 C322 1.160 . S
O325 Cd326 2.203 . S
Cd326 O325 2.203 . S
Cd326 O328 2.411 . S
Cd326 O329 2.333 . S
Cd326 O330 2.352 . S
Cd326 O334 2.277 . S
Cd326 O335 2.356 . S
C327 O332 1.209 . S
C327 O334 1.226 . S
O328 Cd324 2.273 . S
O328 Cd326 2.411 . S
O328 C331 1.320 . S
O329 Cd326 2.333 . S
O329 C331 1.214 . S
O330 Cd326 2.352 . S
O330 C333 1.258 . S
C331 O328 1.320 . S
C331 O329 1.214 . S
O332 Cd324 2.277 . S
O332 C327 1.209 . S
C333 O330 1.258 . S
C333 O335 1.282 . S
O334 Cd326 2.277 . S
O334 C327 1.226 . S
O335 Cd326 2.356 . S
O335 C333 1.282 . S
Tb336 N365 2.617 . S
Tb336 N371 2.572 . S
Tb336 O380 2.465 . S
Tb336 O381 2.387 . S
Tb336 O383 2.428 . S
Tb336 O384 2.308 . S
Tb336 O388 2.349 . S
Tb336 O391 2.393 . S
Tb336 C400 2.802 . S
C337 N338 1.379 . S
C337 C340 1.416 . S
C337 C344 1.424 1_556 S
N338 C337 1.379 . S
N338 C341 1.334 . S
N338 Tb347 2.619 1_566 S
C339 C341 1.390 . S
C339 C342 1.339 . S
C339 H359 0.930 . S
C340 C337 1.416 . S
C340 C342 1.416 . S
C340 C346 1.448 . S
C341 N338 1.334 . S
C341 C339 1.390 . S
C341 H352 0.930 . S
C342 C339 1.339 . S
C342 C340 1.416 . S
C342 H363 0.930 . S
C343 C344 1.413 . S
C343 C345 1.427 1_554 S
C343 C349 1.416 . S
C344 C337 1.424 1_554 S
C344 C343 1.413 . S
C344 N348 1.361 . S
C345 C343 1.427 1_556 S
C345 C346 1.328 . S
C345 H360 0.927 1_556 S
C346 C340 1.448 . S
C346 C345 1.328 . S
C346 H361 0.930 . S
Tb347 N338 2.619 1_544 S
Tb347 N348 2.579 1_545 S
Tb347 O382 2.347 1_655 S
Tb347 O385 2.384 1_654 S
Tb347 O386 2.477 . S
Tb347 O387 2.378 1_645 S
Tb347 O389 2.437 1_554 S
Tb347 O390 2.306 1_655 S
Tb347 C411 2.814 . S
N348 C344 1.361 . S
N348 Tb347 2.579 1_565 S
N348 C350 1.340 . S
C349 C343 1.416 . S
C349 C351 1.332 . S
C349 H357 0.931 . S
C350 N348 1.340 . S
C350 C351 1.407 . S
C350 H356 0.930 . S
C351 C349 1.332 . S
C351 C350 1.407 . S
C351 H353 0.929 . S
H352 C341 0.930 . S
H353 C351 0.929 . S
H354 C369 0.930 . S
H355 C376 0.929 1_556 S
H356 C350 0.930 . S
H357 C349 0.931 . S
H358 C372 0.930 . S
H359 C339 0.930 . S
H360 C345 0.927 1_554 S
H361 C346 0.930 . S
H362 C367 0.930 . S
H363 C342 0.930 . S
H364 C375 0.931 . S
N365 Tb336 2.617 . S
N365 C366 1.379 . S
N365 C369 1.334 . S
C366 N365 1.379 . S
C366 C368 1.416 . S
C366 C374 1.424 . S
C367 H362 0.930 . S
C367 C369 1.390 . S
C367 C370 1.339 . S
C368 C366 1.416 . S
C368 C370 1.416 . S
C368 C401 1.448 . S
C369 H354 0.930 . S
C369 N365 1.334 . S
C369 C367 1.390 . S
C370 C367 1.339 . S
C370 C368 1.416 . S
C370 H377 0.930 . S
N371 Tb336 2.572 . S
N371 C372 1.340 . S
N371 C374 1.361 . S
C372 H358 0.930 . S
C372 N371 1.340 . S
C372 C376 1.407 . S
C373 C374 1.413 . S
C373 C375 1.416 . S
C373 C402 1.427 . S
C374 C366 1.424 . S
C374 N371 1.361 . S
C374 C373 1.413 . S
C375 H364 0.931 . S
C375 C373 1.416 . S
C375 C376 1.332 . S
C376 H355 0.929 1_554 S
C376 C372 1.407 . S
C376 C375 1.332 . S
H377 C370 0.930 . S
H378 C401 0.930 . S
H379 C402 0.929 . S
O380 Tb336 2.465 . S
O380 C400 1.264 . S
O381 Tb336 2.387 . S
O381 C392 1.264 . S
O382 Tb347 2.347 1_455 S
O382 C392 1.243 . S
O383 Tb336 2.428 . S
O383 C400 1.256 . S
O384 Tb336 2.308 . S
O384 C399 1.266 1_554 S
O385 Tb347 2.384 1_456 S
O385 C399 1.248 . S
O386 Tb347 2.477 . S
O386 C411 1.264 . S
O387 Tb347 2.378 1_465 S
O387 C403 1.264 . S
O388 Tb336 2.349 . S
O388 C403 1.243 1_545 S
O389 Tb347 2.437 1_556 S
O389 C411 1.256 1_556 S
O390 Tb347 2.306 1_455 S
O390 C410 1.266 . S
O391 Tb336 2.393 . S
O391 C410 1.248 . S
C392 O381 1.264 . S
C392 O382 1.243 . S
C393 C396 1.399 . S
C393 C398 1.383 . S
C393 C400 1.496 . S
C394 C395 1.405 . S
C394 C398 1.394 . S
C395 C394 1.405 . S
C395 C397 1.394 . S
C395 H412 0.909 1_545 S
C396 C393 1.399 . S
C396 C397 1.392 . S
C396 H413 0.929 . S
C397 C395 1.394 . S
C397 C396 1.392 . S
C397 H414 0.929 . S
C398 C393 1.383 . S
C398 C394 1.394 . S
C398 H415 0.931 . S
C399 O384 1.266 1_556 S
C399 O385 1.248 . S
C400 Tb336 2.802 . S
C400 O380 1.264 . S
C400 O383 1.256 . S
C400 C393 1.496 . S
C401 C368 1.448 . S
C401 H378 0.930 . S
C401 C402 1.328 . S
C402 C373 1.427 . S
C402 H379 0.929 . S
C402 C401 1.328 . S
C403 O387 1.264 . S
C403 O388 1.243 1_565 S
C404 C407 1.417 . S
C404 C408 1.368 1_556 S
C404 C411 1.494 1_556 S
C405 C406 1.399 1_554 S
C405 C408 1.389 . S
C406 C405 1.399 1_556 S
C406 C409 1.380 . S
C406 H416 0.929 . S
C407 C404 1.417 . S
C407 C409 1.392 . S
C407 H417 0.929 . S
C408 C404 1.368 1_554 S
C408 C405 1.389 . S
C408 H418 0.931 . S
C409 C406 1.380 . S
C409 C407 1.392 . S
C409 H419 0.929 . S
C410 O390 1.266 . S
C410 O391 1.248 . S
C411 Tb347 2.814 . S
C411 O386 1.264 . S
C411 O389 1.256 1_554 S
C411 C404 1.494 1_554 S
H412 C395 0.909 1_565 S
H413 C396 0.929 . S
H414 C397 0.929 . S
H415 C398 0.931 . S
H416 C406 0.929 . S
H417 C407 0.929 . S
H418 C408 0.931 . S
H419 C409 0.929 . S
Tb420 N449 2.617 . S
Tb420 N455 2.572 . S
Tb420 O464 2.465 . S
Tb420 O465 2.387 . S
Tb420 O467 2.428 . S
Tb420 O468 2.308 . S
Tb420 O472 2.349 . S
Tb420 O475 2.393 . S
Tb420 C484 2.802 . S
C421 N422 1.379 . S
C421 C424 1.416 . S
C421 C428 1.424 . S
N422 C421 1.379 . S
N422 C425 1.334 . S
N422 Tb431 2.617 . S
C423 C425 1.390 . S
C423 C426 1.339 . S
C423 H443 0.930 . S
C424 C421 1.416 . S
C424 C426 1.416 . S
C424 C430 1.448 . S
C425 N422 1.334 . S
C425 C423 1.390 . S
C425 H436 0.930 . S
C426 C423 1.339 . S
C426 C424 1.416 . S
C426 H447 0.930 . S
C427 C428 1.413 . S
C427 C429 1.427 . S
C427 C433 1.416 . S
C428 C421 1.424 . S
C428 C427 1.413 . S
C428 N432 1.361 . S
C429 C427 1.427 . S
C429 C430 1.328 . S
C429 H444 0.929 . S
C430 C424 1.448 . S
C430 C429 1.328 . S
C430 H445 0.930 . S
Tb431 N422 2.617 . S
Tb431 N432 2.572 . S
Tb431 O466 2.349 . S
Tb431 O469 2.393 . S
Tb431 O470 2.465 . S
Tb431 O471 2.387 . S
Tb431 O473 2.428 . S
Tb431 O474 2.308 . S
Tb431 C495 2.802 . S
N432 C428 1.361 . S
N432 Tb431 2.572 . S
N432 C434 1.340 . S
C433 C427 1.416 . S
C433 C435 1.332 . S
C433 H441 0.931 . S
C434 N432 1.340 . S
C434 C435 1.407 . S
C434 H440 0.930 . S
C435 C433 1.332 . S
C435 C434 1.407 . S
C435 H437 0.929 . S
H436 C425 0.930 . S
H437 C435 0.929 . S
H438 C453 0.930 . S
H439 C460 0.929 . S
H440 C434 0.930 . S
H441 C433 0.931 . S
H442 C456 0.930 . S
H443 C423 0.930 . S
H444 C429 0.929 . S
H445 C430 0.930 . S
H446 C451 0.930 . S
H447 C426 0.930 . S
H448 C459 0.931 . S
N449 Tb420 2.617 . S
N449 C450 1.379 . S
N449 C453 1.334 . S
C450 N449 1.379 . S
C450 C452 1.416 . S
C450 C458 1.424 . S
C451 H446 0.930 . S
C451 C453 1.390 . S
C451 C454 1.339 . S
C452 C450 1.416 . S
C452 C454 1.416 . S
C452 C485 1.448 . S
C453 H438 0.930 . S
C453 N449 1.334 . S
C453 C451 1.390 . S
C454 C451 1.339 . S
C454 C452 1.416 . S
C454 H461 0.930 . S
N455 Tb420 2.572 . S
N455 C456 1.340 . S
N455 C458 1.361 . S
C456 H442 0.930 . S
C456 N455 1.340 . S
C456 C460 1.407 . S
C457 C458 1.413 . S
C457 C459 1.416 . S
C457 C486 1.427 . S
C458 C450 1.424 . S
C458 N455 1.361 . S
C458 C457 1.413 . S
C459 H448 0.931 . S
C459 C457 1.416 . S
C459 C460 1.332 . S
C460 H439 0.929 . S
C460 C456 1.407 . S
C460 C459 1.332 . S
H461 C454 0.930 . S
H462 C485 0.930 . S
H463 C486 0.929 . S
O464 Tb420 2.465 . S
O464 C484 1.264 . S
O465 Tb420 2.387 . S
O465 C476 1.264 . S
O466 Tb431 2.349 . S
O466 C476 1.243 . S
O467 Tb420 2.428 . S
O467 C484 1.256 . S
O468 Tb420 2.308 . S
O468 C483 1.266 . S
O469 Tb431 2.393 . S
O469 C483 1.248 . S
O470 Tb431 2.465 . S
O470 C495 1.264 . S
O471 Tb431 2.387 . S
O471 C487 1.264 . S
O472 Tb420 2.349 . S
O472 C487 1.243 . S
O473 Tb431 2.428 . S
O473 C495 1.256 . S
O474 Tb431 2.308 . S
O474 C494 1.266 . S
O475 Tb420 2.393 . S
O475 C494 1.248 . S
C476 O465 1.264 . S
C476 O466 1.243 . S
C477 C480 1.399 . S
C477 C482 1.383 . S
C477 C484 1.496 . S
C478 C479 1.399 . S
C478 C482 1.389 . S
C479 C478 1.399 . S
C479 C481 1.380 . S
C479 H496 0.929 . S
C480 C477 1.399 . S
C480 C481 1.392 . S
C480 H497 0.929 . S
C481 C479 1.380 . S
C481 C480 1.392 . S
C481 H498 0.929 . S
C482 C477 1.383 . S
C482 C478 1.389 . S
C482 H499 0.931 . S
C483 O468 1.266 . S
C483 O469 1.248 . S
C484 Tb420 2.802 . S
C484 O464 1.264 . S
C484 O467 1.256 . S
C484 C477 1.496 . S
C485 C452 1.448 . S
C485 H462 0.930 . S
C485 C486 1.328 . S
C486 C457 1.427 . S
C486 H463 0.929 . S
C486 C485 1.328 . S
C487 O471 1.264 . S
C487 O472 1.243 . S
C488 C491 1.399 . S
C488 C492 1.383 . S
C488 C495 1.496 . S
C489 C490 1.399 . S
C489 C492 1.389 . S
C490 C489 1.399 . S
C490 C493 1.380 . S
C490 H500 0.929 . S
C491 C488 1.399 . S
C491 C493 1.392 . S
C491 H501 0.929 . S
C492 C488 1.383 . S
C492 C489 1.389 . S
C492 H502 0.931 . S
C493 C490 1.380 . S
C493 C491 1.392 . S
C493 H503 0.929 . S
C494 O474 1.266 . S
C494 O475 1.248 . S
C495 Tb431 2.802 . S
C495 O470 1.264 . S
C495 O473 1.256 . S
C495 C488 1.496 . S
H496 C479 0.929 . S
H497 C480 0.929 . S
H498 C481 0.929 . S
H499 C482 0.931 . S
H500 C490 0.929 . S
H501 C491 0.929 . S
H502 C492 0.931 . S
H503 C493 0.929 . S
Tb504 N533 2.617 1_545 S
Tb504 N539 2.572 1_545 S
Tb504 O548 2.465 . S
Tb504 O549 2.387 1_545 S
Tb504 O551 2.428 . S
Tb504 O552 2.308 . S
Tb504 O556 2.349 . S
Tb504 O559 2.393 . S
Tb504 C568 2.802 . S
C505 N506 1.379 . S
C505 C508 1.416 . S
C505 C512 1.424 . S
N506 C505 1.379 . S
N506 C509 1.334 . S
N506 Tb515 2.617 . S
C507 C509 1.390 . S
C507 C510 1.339 . S
C507 H527 0.930 . S
C508 C505 1.416 . S
C508 C510 1.416 . S
C508 C514 1.448 . S
C509 N506 1.334 . S
C509 C507 1.390 . S
C509 H520 0.930 . S
C510 C507 1.339 . S
C510 C508 1.416 . S
C510 H531 0.930 . S
C511 C512 1.413 . S
C511 C513 1.427 . S
C511 C517 1.416 . S
C512 C505 1.424 . S
C512 C511 1.413 . S
C512 N516 1.361 . S
C513 C511 1.427 . S
C513 C514 1.328 . S
C513 H528 0.929 . S
C514 C508 1.448 . S
C514 C513 1.328 . S
C514 H529 0.930 . S
Tb515 N506 2.617 . S
Tb515 N516 2.572 . S
Tb515 O550 2.349 1_545 S
Tb515 O553 2.393 . S
Tb515 O554 2.465 . S
Tb515 O555 2.387 . S
Tb515 O557 2.428 . S
Tb515 O558 2.308 . S
Tb515 C579 2.802 . S
N516 C512 1.361 . S
N516 Tb515 2.572 . S
N516 C518 1.340 . S
C517 C511 1.416 . S
C517 C519 1.332 . S
C517 H525 0.931 . S
C518 N516 1.340 . S
C518 C519 1.407 . S
C518 H524 0.930 . S
C519 C517 1.332 . S
C519 C518 1.407 . S
C519 H521 0.929 . S
H520 C509 0.930 . S
H521 C519 0.929 . S
H522 C537 0.934 . S
H523 C544 0.929 . S
H524 C518 0.930 . S
H525 C517 0.931 . S
H526 C540 0.930 . S
H527 C507 0.930 . S
H528 C513 0.929 . S
H529 C514 0.930 . S
H530 C535 0.930 . S
H531 C510 0.930 . S
H532 C543 0.931 . S
N533 Tb504 2.617 1_565 S
N533 C534 1.379 . S
N533 C537 1.335 1_565 S
C534 N533 1.379 . S
C534 C536 1.416 . S
C534 C542 1.424 . S
C535 H530 0.930 . S
C535 C537 1.386 1_565 S
C535 C538 1.339 . S
C536 C534 1.416 . S
C536 C538 1.416 . S
C536 C569 1.448 . S
C537 H522 0.934 . S
C537 N533 1.335 1_545 S
C537 C535 1.386 1_545 S
C538 C535 1.339 . S
C538 C536 1.416 . S
C538 H545 0.930 . S
N539 Tb504 2.572 1_565 S
N539 C540 1.340 . S
N539 C542 1.361 . S
C540 H526 0.930 . S
C540 N539 1.340 . S
C540 C544 1.407 . S
C541 C542 1.413 . S
C541 C543 1.416 . S
C541 C570 1.427 . S
C542 C534 1.424 . S
C542 N539 1.361 . S
C542 C541 1.413 . S
C543 H532 0.931 . S
C543 C541 1.416 . S
C543 C544 1.332 . S
C544 H523 0.929 . S
C544 C540 1.407 . S
C544 C543 1.332 . S
H545 C538 0.930 . S
H546 C569 0.930 . S
H547 C570 0.929 . S
O548 Tb504 2.465 . S
O548 C568 1.264 . S
O549 Tb504 2.387 1_565 S
O549 C560 1.264 . S
O550 Tb515 2.349 1_565 S
O550 C560 1.243 . S
O551 Tb504 2.428 . S
O551 C568 1.256 . S
O552 Tb504 2.308 . S
O552 C567 1.266 . S
O553 Tb515 2.393 . S
O553 C567 1.248 . S
O554 Tb515 2.465 . S
O554 C579 1.264 . S
O555 Tb515 2.387 . S
O555 C571 1.264 . S
O556 Tb504 2.349 . S
O556 C571 1.243 . S
O557 Tb515 2.428 . S
O557 C579 1.256 . S
O558 Tb515 2.308 . S
O558 C578 1.266 . S
O559 Tb504 2.393 . S
O559 C578 1.248 . S
C560 O549 1.264 . S
C560 O550 1.243 . S
C561 C564 1.399 . S
C561 C566 1.383 . S
C561 C568 1.496 . S
C562 C563 1.399 . S
C562 C566 1.389 . S
C563 C562 1.399 . S
C563 C565 1.380 . S
C563 H580 0.929 . S
C564 C561 1.399 . S
C564 C565 1.392 . S
C564 H581 0.929 . S
C565 C563 1.380 . S
C565 C564 1.392 . S
C565 H582 0.929 . S
C566 C561 1.383 . S
C566 C562 1.389 . S
C566 H583 0.931 . S
C567 O552 1.266 . S
C567 O553 1.248 . S
C568 Tb504 2.802 . S
C568 O548 1.264 . S
C568 O551 1.256 . S
C568 C561 1.496 . S
C569 C536 1.448 . S
C569 H546 0.930 . S
C569 C570 1.328 . S
C570 C541 1.427 . S
C570 H547 0.929 . S
C570 C569 1.328 . S
C571 O555 1.264 . S
C571 O556 1.243 . S
C572 C575 1.399 . S
C572 C576 1.383 . S
C572 C579 1.496 1_565 S
C573 C574 1.399 . S
C573 C576 1.389 . S
C574 C573 1.399 . S
C574 C577 1.380 . S
C574 H584 0.929 . S
C575 C572 1.399 . S
C575 C577 1.392 . S
C575 H585 0.929 . S
C576 C572 1.383 . S
C576 C573 1.389 . S
C576 H586 0.931 . S
C577 C574 1.380 . S
C577 C575 1.392 . S
C577 H587 0.929 . S
C578 O558 1.266 . S
C578 O559 1.248 . S
C579 Tb515 2.802 . S
C579 O554 1.264 . S
C579 O557 1.256 . S
C579 C572 1.496 1_545 S
H580 C563 0.929 . S
H581 C564 0.929 . S
H582 C565 0.929 . S
H583 C566 0.931 . S
H584 C574 0.929 . S
H585 C575 0.929 . S
H586 C576 0.931 . S
H587 C577 0.929 . S
Tb588 N617 2.617 . S
Tb588 N623 2.572 . S
Tb588 O632 2.465 . S
Tb588 O633 2.387 . S
Tb588 O635 2.428 . S
Tb588 O636 2.308 . S
Tb588 O640 2.349 . S
Tb588 O643 2.393 . S
Tb588 C652 2.802 . S
C589 N590 1.379 . S
C589 C592 1.416 . S
C589 C596 1.424 . S
N590 C589 1.379 . S
N590 C593 1.334 . S
N590 Tb599 2.617 . S
C591 C593 1.390 . S
C591 C594 1.339 . S
C591 H611 0.930 . S
C592 C589 1.416 . S
C592 C594 1.416 . S
C592 C598 1.448 . S
C593 N590 1.334 . S
C593 C591 1.390 . S
C593 H604 0.930 . S
C594 C591 1.339 . S
C594 C592 1.416 . S
C594 H615 0.930 . S
C595 C596 1.413 . S
C595 C597 1.427 . S
C595 C601 1.416 . S
C596 C589 1.424 . S
C596 C595 1.413 . S
C596 N600 1.361 . S
C597 C595 1.427 . S
C597 C598 1.328 . S
C597 H612 0.929 . S
C598 C592 1.448 . S
C598 C597 1.328 . S
C598 H613 0.930 . S
Tb599 N590 2.617 . S
Tb599 N600 2.572 . S
Tb599 O634 2.349 . S
Tb599 O637 2.393 . S
Tb599 O638 2.465 . S
Tb599 O639 2.387 . S
Tb599 O641 2.428 . S
Tb599 O642 2.308 . S
Tb599 C663 2.802 . S
N600 C596 1.361 . S
N600 Tb599 2.572 . S
N600 C602 1.340 . S
C601 C595 1.416 . S
C601 C603 1.332 . S
C601 H609 0.931 . S
C602 N600 1.340 . S
C602 C603 1.407 . S
C602 H608 0.930 . S
C603 C601 1.332 . S
C603 C602 1.407 . S
C603 H605 0.929 . S
H604 C593 0.930 . S
H605 C603 0.929 . S
H606 C621 0.930 . S
H607 C628 0.929 . S
H608 C602 0.930 . S
H609 C601 0.931 . S
H610 C624 0.930 . S
H611 C591 0.930 . S
H612 C597 0.929 . S
H613 C598 0.930 . S
H614 C619 0.930 . S
H615 C594 0.930 . S
H616 C627 0.931 . S
N617 Tb588 2.617 . S
N617 C618 1.379 . S
N617 C621 1.334 . S
C618 N617 1.379 . S
C618 C620 1.416 . S
C618 C626 1.424 . S
C619 H614 0.930 . S
C619 C621 1.390 . S
C619 C622 1.339 . S
C620 C618 1.416 . S
C620 C622 1.416 . S
C620 C653 1.448 . S
C621 H606 0.930 . S
C621 N617 1.334 . S
C621 C619 1.390 . S
C622 C619 1.339 . S
C622 C620 1.416 . S
C622 H629 0.930 . S
N623 Tb588 2.572 . S
N623 C624 1.340 . S
N623 C626 1.361 . S
C624 H610 0.930 . S
C624 N623 1.340 . S
C624 C628 1.407 . S
C625 C626 1.413 . S
C625 C627 1.416 . S
C625 C654 1.427 . S
C626 C618 1.424 . S
C626 N623 1.361 . S
C626 C625 1.413 . S
C627 H616 0.931 . S
C627 C625 1.416 . S
C627 C628 1.332 . S
C628 H607 0.929 . S
C628 C624 1.407 . S
C628 C627 1.332 . S
H629 C622 0.930 . S
H630 C653 0.930 . S
H631 C654 0.929 . S
O632 Tb588 2.465 . S
O632 C652 1.264 . S
O633 Tb588 2.387 . S
O633 C644 1.264 . S
O634 Tb599 2.349 . S
O634 C644 1.243 . S
O635 Tb588 2.428 . S
O635 C652 1.256 . S
O636 Tb588 2.308 . S
O636 C651 1.266 . S
O637 Tb599 2.393 . S
O637 C651 1.248 . S
O638 Tb599 2.465 . S
O638 C663 1.264 . S
O639 Tb599 2.387 . S
O639 C655 1.264 . S
O640 Tb588 2.349 . S
O640 C655 1.243 . S
O641 Tb599 2.428 . S
O641 C663 1.256 . S
O642 Tb599 2.308 . S
O642 C662 1.266 . S
O643 Tb588 2.393 . S
O643 C662 1.248 . S
C644 O633 1.264 . S
C644 O634 1.243 . S
C645 C648 1.399 . S
C645 C650 1.383 . S
C645 C652 1.496 . S
C646 C647 1.399 . S
C646 C650 1.389 . S
C647 C646 1.399 . S
C647 C649 1.380 . S
C647 H664 0.929 . S
C648 C645 1.399 . S
C648 C649 1.392 . S
C648 H665 0.929 . S
C649 C647 1.380 . S
C649 C648 1.392 . S
C649 H666 0.929 . S
C650 C645 1.383 . S
C650 C646 1.389 . S
C650 H667 0.931 . S
C651 O636 1.266 . S
C651 O637 1.248 . S
C652 Tb588 2.802 . S
C652 O632 1.264 . S
C652 O635 1.256 . S
C652 C645 1.496 . S
C653 C620 1.448 . S
C653 H630 0.930 . S
C653 C654 1.328 . S
C654 C625 1.427 . S
C654 H631 0.929 . S
C654 C653 1.328 . S
C655 O639 1.264 . S
C655 O640 1.243 . S
C656 C659 1.399 . S
C656 C660 1.383 . S
C656 C663 1.496 . S
C657 C658 1.399 . S
C657 C660 1.389 . S
C658 C657 1.399 . S
C658 C661 1.380 . S
C658 H668 0.929 . S
C659 C656 1.399 . S
C659 C661 1.392 . S
C659 H669 0.929 . S
C660 C656 1.383 . S
C660 C657 1.389 . S
C660 H670 0.931 . S
C661 C658 1.380 . S
C661 C659 1.392 . S
C661 H671 0.929 . S
C662 O642 1.266 . S
C662 O643 1.248 . S
C663 Tb599 2.802 . S
C663 O638 1.264 . S
C663 O641 1.256 . S
C663 C656 1.496 . S
H664 C647 0.929 . S
H665 C648 0.929 . S
H666 C649 0.929 . S
H667 C650 0.931 . S
H668 C658 0.929 . S
H669 C659 0.929 . S
H670 C660 0.931 . S
H671 C661 0.929 . S
Tb672 N701 2.617 . S
Tb672 N707 2.572 . S
Tb672 O716 2.465 . S
Tb672 O717 2.387 1_565 S
Tb672 O719 2.428 . S
Tb672 O720 2.308 1_565 S
Tb672 O724 2.349 1_565 S
Tb672 O727 2.393 1_565 S
Tb672 C736 2.802 . S
C673 N674 1.379 1_455 S
C673 C676 1.416 1_455 S
C673 C680 1.424 . S
N674 C673 1.379 1_655 S
N674 C677 1.334 . S
N674 Tb683 2.617 1_655 S
C675 C677 1.390 . S
C675 C678 1.339 . S
C675 H695 0.930 . S
C676 C673 1.416 1_655 S
C676 C678 1.416 . S
C676 C682 1.448 1_655 S
C677 N674 1.334 . S
C677 C675 1.390 . S
C677 H688 0.930 . S
C678 C675 1.339 . S
C678 C676 1.416 . S
C678 H699 0.930 . S
C679 C680 1.413 . S
C679 C681 1.427 . S
C679 C685 1.416 . S
C680 C673 1.424 . S
C680 C679 1.413 . S
C680 N684 1.361 . S
C681 C679 1.427 . S
C681 C682 1.328 . S
C681 H696 0.929 . S
C682 C676 1.448 1_455 S
C682 C681 1.328 . S
C682 H697 0.951 . S
Tb683 N674 2.617 1_455 S
Tb683 N684 2.572 . S
Tb683 O718 2.349 . S
Tb683 O721 2.393 1_455 S
Tb683 O722 2.465 . S
Tb683 O723 2.387 . S
Tb683 O725 2.428 1_455 S
Tb683 O726 2.308 . S
Tb683 C747 2.802 . S
N684 C680 1.361 . S
N684 Tb683 2.572 . S
N684 C686 1.340 . S
C685 C679 1.416 . S
C685 C687 1.332 . S
C685 H693 0.931 . S
C686 N684 1.340 . S
C686 C687 1.407 . S
C686 H692 0.930 . S
C687 C685 1.332 . S
C687 C686 1.407 . S
C687 H689 0.929 . S
H688 C677 0.930 . S
H689 C687 0.929 . S
H690 C705 0.930 1_545 S
H691 C712 0.929 . S
H692 C686 0.930 . S
H693 C685 0.931 . S
H694 C708 0.930 1_655 S
H695 C675 0.930 . S
H696 C681 0.929 . S
H697 C682 0.951 . S
H698 C703 0.930 . S
H699 C678 0.930 . S
H700 C711 0.931 1_655 S
N701 Tb672 2.617 . S
N701 C702 1.379 . S
N701 C705 1.334 . S
C702 N701 1.379 . S
C702 C704 1.416 . S
C702 C710 1.424 . S
C703 H698 0.930 . S
C703 C705 1.390 . S
C703 C706 1.339 . S
C704 C702 1.416 . S
C704 C706 1.416 . S
C704 C737 1.448 . S
C705 H690 0.930 1_565 S
C705 N701 1.334 . S
C705 C703 1.390 . S
C706 C703 1.339 . S
C706 C704 1.416 . S
C706 H713 0.930 . S
N707 Tb672 2.572 . S
N707 C708 1.340 . S
N707 C710 1.361 . S
C708 H694 0.930 1_455 S
C708 N707 1.340 . S
C708 C712 1.407 1_455 S
C709 C710 1.413 . S
C709 C711 1.416 . S
C709 C738 1.427 . S
C710 C702 1.424 . S
C710 N707 1.361 . S
C710 C709 1.413 . S
C711 H700 0.931 1_455 S
C711 C709 1.416 . S
C711 C712 1.332 1_455 S
C712 H691 0.929 . S
C712 C708 1.407 1_655 S
C712 C711 1.332 1_655 S
H713 C706 0.930 . S
H714 C737 0.930 . S
H715 C738 0.929 . S
O716 Tb672 2.465 . S
O716 C736 1.264 . S
O717 Tb672 2.387 1_545 S
O717 C728 1.264 . S
O718 Tb683 2.349 . S
O718 C728 1.243 . S
O719 Tb672 2.428 . S
O719 C736 1.256 . S
O720 Tb672 2.308 1_545 S
O720 C735 1.266 1_455 S
O721 Tb683 2.393 1_655 S
O721 C735 1.248 . S
O722 Tb683 2.465 . S
O722 C747 1.264 . S
O723 Tb683 2.387 . S
O723 C739 1.264 . S
O724 Tb672 2.349 1_545 S
O724 C739 1.243 . S
O725 Tb683 2.428 1_655 S
O725 C747 1.256 1_655 S
O726 Tb683 2.308 . S
O726 C746 1.266 . S
O727 Tb672 2.393 1_545 S
O727 C746 1.248 . S
C728 O717 1.264 . S
C728 O718 1.243 . S
C729 C732 1.399 . S
C729 C734 1.383 . S
C729 C736 1.496 . S
C730 C731 1.399 . S
C730 C734 1.389 . S
C731 C730 1.399 . S
C731 C733 1.380 . S
C731 H748 0.929 . S
C732 C729 1.399 . S
C732 C733 1.392 . S
C732 H749 0.929 . S
C733 C731 1.380 . S
C733 C732 1.392 . S
C733 H750 0.929 . S
C734 C729 1.383 . S
C734 C730 1.389 . S
C734 H751 0.931 . S
C735 O720 1.266 1_655 S
C735 O721 1.248 . S
C736 Tb672 2.802 . S
C736 O716 1.264 . S
C736 O719 1.256 . S
C736 C729 1.496 . S
C737 C704 1.448 . S
C737 H714 0.930 . S
C737 C738 1.328 . S
C738 C709 1.427 . S
C738 H715 0.929 . S
C738 C737 1.328 . S
C739 O723 1.264 . S
C739 O724 1.243 . S
C740 C743 1.399 1_455 S
C740 C744 1.383 . S
C740 C747 1.496 . S
C741 C742 1.399 . S
C741 C744 1.389 . S
C742 C741 1.399 . S
C742 C745 1.380 1_455 S
C742 H752 0.921 1_455 S
C743 C740 1.399 1_655 S
C743 C745 1.392 . S
C743 H753 0.929 . S
C744 C740 1.383 . S
C744 C741 1.389 . S
C744 H754 0.931 . S
C745 C742 1.380 1_655 S
C745 C743 1.392 . S
C745 H755 0.929 . S
C746 O726 1.266 . S
C746 O727 1.248 . S
C747 Tb683 2.802 . S
C747 O722 1.264 . S
C747 O725 1.256 1_455 S
C747 C740 1.496 . S
H748 C731 0.929 . S
H749 C732 0.929 . S
H750 C733 0.929 . S
H751 C734 0.931 . S
H752 C742 0.921 1_655 S
H753 C743 0.929 . S
H754 C744 0.931 . S
H755 C745 0.929 . S
Tb756 N785 2.617 . S
Tb756 N791 2.572 . S
Tb756 O800 2.465 . S
Tb756 O801 2.387 . S
Tb756 O803 2.428 . S
Tb756 O804 2.308 . S
Tb756 O808 2.349 . S
Tb756 O811 2.393 . S
Tb756 C820 2.802 . S
C757 N758 1.379 . S
C757 C760 1.416 . S
C757 C764 1.424 . S
N758 C757 1.379 . S
N758 C761 1.334 . S
N758 Tb767 2.617 . S
C759 C761 1.390 . S
C759 C762 1.339 . S
C759 H779 0.930 . S
C760 C757 1.416 . S
C760 C762 1.416 . S
C760 C766 1.448 . S
C761 N758 1.334 . S
C761 C759 1.390 . S
C761 H772 0.930 . S
C762 C759 1.339 . S
C762 C760 1.416 . S
C762 H783 0.930 . S
C763 C764 1.413 . S
C763 C765 1.427 . S
C763 C769 1.416 . S
C764 C757 1.424 . S
C764 C763 1.413 . S
C764 N768 1.361 . S
C765 C763 1.427 . S
C765 C766 1.328 . S
C765 H780 0.929 . S
C766 C760 1.448 . S
C766 C765 1.328 . S
C766 H781 0.930 . S
Tb767 N758 2.617 . S
Tb767 N768 2.572 . S
Tb767 O802 2.349 . S
Tb767 O805 2.393 . S
Tb767 O806 2.465 . S
Tb767 O807 2.387 . S
Tb767 O809 2.428 . S
Tb767 O810 2.308 . S
Tb767 C831 2.802 . S
N768 C764 1.361 . S
N768 Tb767 2.572 . S
N768 C770 1.340 . S
C769 C763 1.416 . S
C769 C771 1.332 . S
C769 H777 0.931 . S
C770 N768 1.340 . S
C770 C771 1.407 . S
C770 H776 0.930 . S
C771 C769 1.332 . S
C771 C770 1.407 . S
C771 H773 0.929 . S
H772 C761 0.930 . S
H773 C771 0.929 . S
H774 C789 0.930 . S
H775 C796 0.929 . S
H776 C770 0.930 . S
H777 C769 0.931 . S
H778 C792 0.930 . S
H779 C759 0.930 . S
H780 C765 0.929 . S
H781 C766 0.930 . S
H782 C787 0.930 . S
H783 C762 0.930 . S
H784 C795 0.931 . S
N785 Tb756 2.617 . S
N785 C786 1.379 . S
N785 C789 1.334 . S
C786 N785 1.379 . S
C786 C788 1.416 . S
C786 C794 1.424 . S
C787 H782 0.930 . S
C787 C789 1.390 . S
C787 C790 1.339 . S
C788 C786 1.416 . S
C788 C790 1.416 . S
C788 C821 1.448 . S
C789 H774 0.930 . S
C789 N785 1.334 . S
C789 C787 1.390 . S
C790 C787 1.339 . S
C790 C788 1.416 . S
C790 H797 0.930 . S
N791 Tb756 2.572 . S
N791 C792 1.340 . S
N791 C794 1.361 . S
C792 H778 0.930 . S
C792 N791 1.340 . S
C792 C796 1.407 . S
C793 C794 1.413 . S
C793 C795 1.416 . S
C793 C822 1.427 . S
C794 C786 1.424 . S
C794 N791 1.361 . S
C794 C793 1.413 . S
C795 H784 0.931 . S
C795 C793 1.416 . S
C795 C796 1.332 . S
C796 H775 0.929 . S
C796 C792 1.407 . S
C796 C795 1.332 . S
H797 C790 0.930 . S
H798 C821 0.930 . S
H799 C822 0.929 . S
O800 Tb756 2.465 . S
O800 C820 1.264 . S
O801 Tb756 2.387 . S
O801 C812 1.264 . S
O802 Tb767 2.349 . S
O802 C812 1.243 . S
O803 Tb756 2.428 . S
O803 C820 1.256 . S
O804 Tb756 2.308 . S
O804 C819 1.266 . S
O805 Tb767 2.393 . S
O805 C819 1.248 . S
O806 Tb767 2.465 . S
O806 C831 1.264 . S
O807 Tb767 2.387 . S
O807 C823 1.264 . S
O808 Tb756 2.349 . S
O808 C823 1.243 . S
O809 Tb767 2.428 . S
O809 C831 1.256 . S
O810 Tb767 2.308 . S
O810 C830 1.266 . S
O811 Tb756 2.393 . S
O811 C830 1.248 . S
C812 O801 1.264 . S
C812 O802 1.243 . S
C813 C816 1.399 . S
C813 C818 1.383 . S
C813 C820 1.496 . S
C814 C815 1.399 . S
C814 C818 1.389 . S
C815 C814 1.399 . S
C815 C817 1.380 . S
C815 H832 0.929 . S
C816 C813 1.399 . S
C816 C817 1.392 . S
C816 H833 0.929 . S
C817 C815 1.380 . S
C817 C816 1.392 . S
C817 H834 0.929 . S
C818 C813 1.383 . S
C818 C814 1.389 . S
C818 H835 0.931 . S
C819 O804 1.266 . S
C819 O805 1.248 . S
C820 Tb756 2.802 . S
C820 O800 1.264 . S
C820 O803 1.256 . S
C820 C813 1.496 . S
C821 C788 1.448 . S
C821 H798 0.930 . S
C821 C822 1.328 . S
C822 C793 1.427 . S
C822 H799 0.929 . S
C822 C821 1.328 . S
C823 O807 1.264 . S
C823 O808 1.243 . S
C824 C827 1.399 . S
C824 C828 1.383 . S
C824 C831 1.496 . S
C825 C826 1.399 . S
C825 C828 1.389 . S
C826 C825 1.399 . S
C826 C829 1.380 . S
C826 H836 0.929 . S
C827 C824 1.399 . S
C827 C829 1.392 . S
C827 H837 0.929 . S
C828 C824 1.383 . S
C828 C825 1.389 . S
C828 H838 0.931 . S
C829 C826 1.380 . S
C829 C827 1.392 . S
C829 H839 0.929 . S
C830 O810 1.266 . S
C830 O811 1.248 . S
C831 Tb767 2.802 . S
C831 O806 1.264 . S
C831 O809 1.256 . S
C831 C824 1.496 . S
H832 C815 0.929 . S
H833 C816 0.929 . S
H834 C817 0.929 . S
H835 C818 0.931 . S
H836 C826 0.929 . S
H837 C827 0.929 . S
H838 C828 0.931 . S
H839 C829 0.929 . S
Tb840 N869 2.617 . S
Tb840 N875 2.572 . S
Tb840 O884 2.465 . S
Tb840 O885 2.387 1_556 S
Tb840 O887 2.428 . S
Tb840 O888 2.308 . S
Tb840 O892 2.349 1_556 S
Tb840 O895 2.393 1_556 S
Tb840 C904 2.802 . S
C841 N842 1.373 1_545 S
C841 C844 1.397 1_545 S
C841 C848 1.449 . S
N842 C841 1.373 1_565 S
N842 C845 1.334 . S
N842 Tb851 2.617 1_565 S
C843 C845 1.390 . S
C843 C846 1.339 . S
C843 H863 0.930 . S
C844 C841 1.397 1_565 S
C844 C846 1.416 . S
C844 C850 1.442 1_565 S
C845 N842 1.334 . S
C845 C843 1.390 . S
C845 H856 0.930 . S
C846 C843 1.339 . S
C846 C844 1.416 . S
C846 H867 0.930 . S
C847 C848 1.413 . S
C847 C849 1.427 . S
C847 C853 1.416 . S
C848 C841 1.449 . S
C848 C847 1.413 . S
C848 N852 1.361 . S
C849 C847 1.427 . S
C849 C850 1.351 . S
C849 H864 0.929 . S
C850 C844 1.442 1_545 S
C850 C849 1.351 . S
C850 H865 0.914 1_545 S
Tb851 N842 2.617 1_545 S
Tb851 N852 2.572 . S
Tb851 O886 2.349 . S
Tb851 O889 2.393 1_545 S
Tb851 O890 2.465 . S
Tb851 O891 2.387 . S
Tb851 O893 2.428 1_545 S
Tb851 O894 2.308 . S
Tb851 C915 2.802 . S
N852 C848 1.361 . S
N852 Tb851 2.572 . S
N852 C854 1.340 . S
C853 C847 1.416 . S
C853 C855 1.332 . S
C853 H861 0.931 . S
C854 N852 1.340 . S
C854 C855 1.407 . S
C854 H860 0.930 . S
C855 C853 1.332 . S
C855 C854 1.407 . S
C855 H857 0.929 . S
H856 C845 0.930 . S
H857 C855 0.929 . S
H858 C873 0.907 1_554 S
H859 C880 0.929 . S
H860 C854 0.930 . S
H861 C853 0.931 . S
H862 C876 0.930 1_565 S
H863 C843 0.930 . S
H864 C849 0.929 . S
H865 C850 0.914 1_565 S
H866 C871 0.930 . S
H867 C846 0.930 . S
H868 C879 0.931 1_565 S
N869 Tb840 2.617 . S
N869 C870 1.379 . S
N869 C873 1.334 . S
C870 N869 1.379 . S
C870 C872 1.416 . S
C870 C878 1.424 . S
C871 H866 0.930 . S
C871 C873 1.390 . S
C871 C874 1.339 . S
C872 C870 1.416 . S
C872 C874 1.416 . S
C872 C905 1.448 . S
C873 H858 0.907 1_556 S
C873 N869 1.334 . S
C873 C871 1.390 . S
C874 C871 1.339 . S
C874 C872 1.416 . S
C874 H881 0.930 . S
N875 Tb840 2.572 . S
N875 C876 1.340 . S
N875 C878 1.361 . S
C876 H862 0.930 1_545 S
C876 N875 1.340 . S
C876 C880 1.407 1_545 S
C877 C878 1.413 . S
C877 C879 1.416 . S
C877 C906 1.427 . S
C878 C870 1.424 . S
C878 N875 1.361 . S
C878 C877 1.413 . S
C879 H868 0.931 1_545 S
C879 C877 1.416 . S
C879 C880 1.332 1_545 S
C880 H859 0.929 . S
C880 C876 1.407 1_565 S
C880 C879 1.332 1_565 S
H881 C874 0.930 . S
H882 C905 0.930 . S
H883 C906 0.929 . S
O884 Tb840 2.465 . S
O884 C904 1.264 . S
O885 Tb840 2.387 1_554 S
O885 C896 1.264 . S
O886 Tb851 2.349 . S
O886 C896 1.243 . S
O887 Tb840 2.428 . S
O887 C904 1.256 . S
O888 Tb840 2.308 . S
O888 C903 1.266 1_546 S
O889 Tb851 2.393 1_565 S
O889 C903 1.248 . S
O890 Tb851 2.465 . S
O890 C915 1.264 . S
O891 Tb851 2.387 . S
O891 C907 1.264 . S
O892 Tb840 2.349 1_554 S
O892 C907 1.243 . S
O893 Tb851 2.428 1_565 S
O893 C915 1.256 1_565 S
O894 Tb851 2.308 . S
O894 C914 1.266 . S
O895 Tb840 2.393 1_554 S
O895 C914 1.248 . S
C896 O885 1.264 . S
C896 O886 1.243 . S
C897 C900 1.399 . S
C897 C902 1.383 . S
C897 C904 1.496 . S
C898 C899 1.399 . S
C898 C902 1.389 . S
C899 C898 1.399 . S
C899 C901 1.380 . S
C899 H916 0.929 . S
C900 C897 1.399 . S
C900 C901 1.392 . S
C900 H917 0.929 . S
C901 C899 1.380 . S
C901 C900 1.392 . S
C901 H918 0.929 . S
C902 C897 1.383 . S
C902 C898 1.389 . S
C902 H919 0.931 . S
C903 O888 1.266 1_564 S
C903 O889 1.248 . S
C904 Tb840 2.802 . S
C904 O884 1.264 . S
C904 O887 1.256 . S
C904 C897 1.496 . S
C905 C872 1.448 . S
C905 H882 0.930 . S
C905 C906 1.328 . S
C906 C877 1.427 . S
C906 H883 0.929 . S
C906 C905 1.328 . S
C907 O891 1.264 . S
C907 O892 1.243 . S
C908 C911 1.399 . S
C908 C912 1.383 1_565 S
C908 C915 1.496 1_565 S
C909 C910 1.399 1_545 S
C909 C912 1.389 . S
C910 C909 1.399 1_565 S
C910 C913 1.380 . S
C910 H920 0.929 . S
C911 C908 1.399 . S
C911 C913 1.392 . S
C911 H921 0.929 . S
C912 C908 1.383 1_545 S
C912 C909 1.389 . S
C912 H922 0.931 . S
C913 C910 1.380 . S
C913 C911 1.392 . S
C913 H923 0.929 . S
C914 O894 1.266 . S
C914 O895 1.248 . S
C915 Tb851 2.802 . S
C915 O890 1.264 . S
C915 O893 1.256 1_545 S
C915 C908 1.496 1_545 S
H916 C899 0.929 . S
H917 C900 0.929 . S
H918 C901 0.929 . S
H919 C902 0.931 . S
H920 C910 0.929 . S
H921 C911 0.929 . S
H922 C912 0.931 . S
H923 C913 0.929 . S
Tb924 N953 2.617 . S
Tb924 N959 2.572 . S
Tb924 O968 2.465 . S
Tb924 O969 2.387 . S
Tb924 O971 2.428 . S
Tb924 O972 2.308 . S
Tb924 O976 2.349 . S
Tb924 O979 2.393 . S
Tb924 C988 2.802 . S
C925 N926 1.379 . S
C925 C928 1.416 . S
C925 C932 1.424 . S
N926 C925 1.379 . S
N926 C929 1.334 . S
N926 Tb935 2.617 . S
C927 C929 1.390 . S
C927 C930 1.339 . S
C927 H947 0.930 . S
C928 C925 1.416 . S
C928 C930 1.416 . S
C928 C934 1.448 . S
C929 N926 1.334 . S
C929 C927 1.390 . S
C929 H940 0.930 . S
C930 C927 1.339 . S
C930 C928 1.416 . S
C930 H951 0.930 . S
C931 C932 1.413 . S
C931 C933 1.427 . S
C931 C937 1.416 . S
C932 C925 1.424 . S
C932 C931 1.413 . S
C932 N936 1.361 . S
C933 C931 1.427 . S
C933 C934 1.328 . S
C933 H948 0.929 . S
C934 C928 1.448 . S
C934 C933 1.328 . S
C934 H949 0.930 . S
Tb935 N926 2.617 . S
Tb935 N936 2.572 . S
Tb935 O970 2.349 . S
Tb935 O973 2.393 . S
Tb935 O974 2.465 . S
Tb935 O975 2.387 . S
Tb935 O977 2.428 . S
Tb935 O978 2.308 . S
Tb935 C999 2.802 . S
N936 C932 1.361 . S
N936 Tb935 2.572 . S
N936 C938 1.340 . S
C937 C931 1.416 . S
C937 C939 1.332 . S
C937 H945 0.931 . S
C938 N936 1.340 . S
C938 C939 1.407 . S
C938 H944 0.930 . S
C939 C937 1.332 . S
C939 C938 1.407 . S
C939 H941 0.929 . S
H940 C929 0.930 . S
H941 C939 0.929 . S
H942 C957 0.930 . S
H943 C964 0.929 . S
H944 C938 0.930 . S
H945 C937 0.931 . S
H946 C960 0.930 . S
H947 C927 0.930 . S
H948 C933 0.929 . S
H949 C934 0.930 . S
H950 C955 0.930 . S
H951 C930 0.930 . S
H952 C963 0.931 . S
N953 Tb924 2.617 . S
N953 C954 1.379 . S
N953 C957 1.334 . S
C954 N953 1.379 . S
C954 C956 1.416 . S
C954 C962 1.424 . S
C955 H950 0.930 . S
C955 C957 1.390 . S
C955 C958 1.339 . S
C956 C954 1.416 . S
C956 C958 1.416 . S
C956 C989 1.448 . S
C957 H942 0.930 . S
C957 N953 1.334 . S
C957 C955 1.390 . S
C958 C955 1.339 . S
C958 C956 1.416 . S
C958 H965 0.930 . S
N959 Tb924 2.572 . S
N959 C960 1.340 . S
N959 C962 1.361 . S
C960 H946 0.930 . S
C960 N959 1.340 . S
C960 C964 1.407 . S
C961 C962 1.413 . S
C961 C963 1.416 . S
C961 C990 1.427 . S
C962 C954 1.424 . S
C962 N959 1.361 . S
C962 C961 1.413 . S
C963 H952 0.931 . S
C963 C961 1.416 . S
C963 C964 1.332 . S
C964 H943 0.929 . S
C964 C960 1.407 . S
C964 C963 1.332 . S
H965 C958 0.930 . S
H966 C989 0.930 . S
H967 C990 0.929 . S
O968 Tb924 2.465 . S
O968 C988 1.264 . S
O969 Tb924 2.387 . S
O969 C980 1.264 . S
O970 Tb935 2.349 . S
O970 C980 1.243 . S
O971 Tb924 2.428 . S
O971 C988 1.256 . S
O972 Tb924 2.308 . S
O972 C987 1.266 . S
O973 Tb935 2.393 . S
O973 C987 1.248 . S
O974 Tb935 2.465 . S
O974 C999 1.264 . S
O975 Tb935 2.387 . S
O975 C991 1.264 . S
O976 Tb924 2.349 . S
O976 C991 1.243 . S
O977 Tb935 2.428 . S
O977 C999 1.256 . S
O978 Tb935 2.308 . S
O978 C998 1.266 . S
O979 Tb924 2.393 . S
O979 C998 1.248 . S
C980 O969 1.264 . S
C980 O970 1.243 . S
C981 C984 1.399 . S
C981 C986 1.383 . S
C981 C988 1.496 . S
C982 C983 1.399 . S
C982 C986 1.389 . S
C983 C982 1.399 . S
C983 C985 1.380 . S
C983 H1000 0.929 . S
C984 C981 1.399 . S
C984 C985 1.392 . S
C984 H1001 0.929 . S
C985 C983 1.380 . S
C985 C984 1.392 . S
C985 H1002 0.929 . S
C986 C981 1.383 . S
C986 C982 1.389 . S
C986 H1003 0.931 . S
C987 O972 1.266 . S
C987 O973 1.248 . S
C988 Tb924 2.802 . S
C988 O968 1.264 . S
C988 O971 1.256 . S
C988 C981 1.496 . S
C989 C956 1.448 . S
C989 H966 0.930 . S
C989 C990 1.328 . S
C990 C961 1.427 . S
C990 H967 0.929 . S
C990 C989 1.328 . S
C991 O975 1.264 . S
C991 O976 1.243 . S
C992 C995 1.399 . S
C992 C996 1.383 . S
C992 C999 1.496 . S
C993 C994 1.399 . S
C993 C996 1.389 . S
C994 C993 1.399 . S
C994 C997 1.380 . S
C994 H1004 0.929 . S
C995 C992 1.399 . S
C995 C997 1.392 . S
C995 H1005 0.929 . S
C996 C992 1.383 . S
C996 C993 1.389 . S
C996 H1006 0.931 . S
C997 C994 1.380 . S
C997 C995 1.392 . S
C997 H1007 0.929 . S
C998 O978 1.266 . S
C998 O979 1.248 . S
C999 Tb935 2.802 . S
C999 O974 1.264 . S
C999 O977 1.256 . S
C999 C992 1.496 . S
H1000 C983 0.929 . S
H1001 C984 0.929 . S
H1002 C985 0.929 . S
H1003 C986 0.931 . S
H1004 C994 0.929 . S
H1005 C995 0.929 . S
H1006 C996 0.931 . S
H1007 C997 0.929 . S
Tb1008 N1037 2.617 1_554 S
Tb1008 N1043 2.572 1_554 S
Tb1008 O1052 2.465 . S
Tb1008 O1053 2.387 1_554 S
Tb1008 O1055 2.428 . S
Tb1008 O1056 2.308 . S
Tb1008 O1060 2.349 . S
Tb1008 O1063 2.393 . S
Tb1008 C1072 2.802 . S
C1009 N1010 1.379 . S
C1009 C1012 1.416 . S
C1009 C1016 1.424 . S
N1010 C1009 1.379 . S
N1010 C1013 1.334 . S
N1010 Tb1019 2.617 . S
C1011 C1013 1.390 . S
C1011 C1014 1.339 . S
C1011 H1031 0.930 . S
C1012 C1009 1.416 . S
C1012 C1014 1.416 . S
C1012 C1018 1.448 . S
C1013 N1010 1.334 . S
C1013 C1011 1.390 . S
C1013 H1024 0.930 . S
C1014 C1011 1.339 . S
C1014 C1012 1.416 . S
C1014 H1035 0.930 . S
C1015 C1016 1.413 . S
C1015 C1017 1.427 . S
C1015 C1021 1.416 . S
C1016 C1009 1.424 . S
C1016 C1015 1.413 . S
C1016 N1020 1.361 . S
C1017 C1015 1.427 . S
C1017 C1018 1.328 . S
C1017 H1032 0.929 . S
C1018 C1012 1.448 . S
C1018 C1017 1.328 . S
C1018 H1033 0.930 . S
Tb1019 N1010 2.617 . S
Tb1019 N1020 2.572 . S
Tb1019 O1054 2.349 1_554 S
Tb1019 O1057 2.393 . S
Tb1019 O1058 2.465 . S
Tb1019 O1059 2.387 . S
Tb1019 O1061 2.428 . S
Tb1019 O1062 2.308 . S
Tb1019 C1083 2.802 . S
N1020 C1016 1.361 . S
N1020 Tb1019 2.572 . S
N1020 C1022 1.340 . S
C1021 C1015 1.416 . S
C1021 C1023 1.332 . S
C1021 H1029 0.931 . S
C1022 N1020 1.340 . S
C1022 C1023 1.407 . S
C1022 H1028 0.930 . S
C1023 C1021 1.332 . S
C1023 C1022 1.407 . S
C1023 H1025 0.929 . S
H1024 C1013 0.930 . S
H1025 C1023 0.929 . S
H1026 C1041 0.893 1_554 S
H1027 C1048 0.929 . S
H1028 C1022 0.930 . S
H1029 C1021 0.931 . S
H1030 C1044 0.937 . S
H1031 C1011 0.930 . S
H1032 C1017 0.929 . S
H1033 C1018 0.930 . S
H1034 C1039 0.930 . S
H1035 C1014 0.930 . S
H1036 C1047 0.931 . S
N1037 Tb1008 2.617 1_556 S
N1037 C1038 1.379 . S
N1037 C1041 1.334 . S
C1038 N1037 1.379 . S
C1038 C1040 1.416 . S
C1038 C1046 1.424 . S
C1039 H1034 0.930 . S
C1039 C1041 1.390 . S
C1039 C1042 1.339 . S
C1040 C1038 1.416 . S
C1040 C1042 1.416 . S
C1040 C1073 1.448 . S
C1041 H1026 0.893 1_556 S
C1041 N1037 1.334 . S
C1041 C1039 1.390 . S
C1042 C1039 1.339 . S
C1042 C1040 1.416 . S
C1042 H1049 0.930 . S
N1043 Tb1008 2.572 1_556 S
N1043 C1044 1.340 . S
N1043 C1046 1.361 . S
C1044 H1030 0.937 . S
C1044 N1043 1.340 . S
C1044 C1048 1.407 . S
C1045 C1046 1.413 . S
C1045 C1047 1.416 . S
C1045 C1074 1.427 . S
C1046 C1038 1.424 . S
C1046 N1043 1.361 . S
C1046 C1045 1.413 . S
C1047 H1036 0.931 . S
C1047 C1045 1.416 . S
C1047 C1048 1.332 . S
C1048 H1027 0.929 . S
C1048 C1044 1.407 . S
C1048 C1047 1.332 . S
H1049 C1042 0.930 . S
H1050 C1073 0.930 . S
H1051 C1074 0.929 . S
O1052 Tb1008 2.465 . S
O1052 C1072 1.264 . S
O1053 Tb1008 2.387 1_556 S
O1053 C1064 1.264 . S
O1054 Tb1019 2.349 1_556 S
O1054 C1064 1.243 . S
O1055 Tb1008 2.428 . S
O1055 C1072 1.256 . S
O1056 Tb1008 2.308 . S
O1056 C1071 1.266 . S
O1057 Tb1019 2.393 . S
O1057 C1071 1.248 . S
O1058 Tb1019 2.465 . S
O1058 C1083 1.264 . S
O1059 Tb1019 2.387 . S
O1059 C1075 1.264 . S
O1060 Tb1008 2.349 . S
O1060 C1075 1.243 . S
O1061 Tb1019 2.428 . S
O1061 C1083 1.256 . S
O1062 Tb1019 2.308 . S
O1062 C1082 1.266 . S
O1063 Tb1008 2.393 . S
O1063 C1082 1.248 . S
C1064 O1053 1.264 . S
C1064 O1054 1.243 . S
C1065 C1068 1.399 . S
C1065 C1070 1.383 . S
C1065 C1072 1.496 . S
C1066 C1067 1.399 . S
C1066 C1070 1.389 . S
C1067 C1066 1.399 . S
C1067 C1069 1.380 . S
C1067 H1084 0.929 . S
C1068 C1065 1.399 . S
C1068 C1069 1.392 . S
C1068 H1085 0.929 . S
C1069 C1067 1.380 . S
C1069 C1068 1.392 . S
C1069 H1086 0.929 . S
C1070 C1065 1.383 . S
C1070 C1066 1.389 . S
C1070 H1087 0.931 . S
C1071 O1056 1.266 . S
C1071 O1057 1.248 . S
C1072 Tb1008 2.802 . S
C1072 O1052 1.264 . S
C1072 O1055 1.256 . S
C1072 C1065 1.496 . S
C1073 C1040 1.448 . S
C1073 H1050 0.930 . S
C1073 C1074 1.328 . S
C1074 C1045 1.427 . S
C1074 H1051 0.929 . S
C1074 C1073 1.328 . S
C1075 O1059 1.264 . S
C1075 O1060 1.243 . S
C1076 C1079 1.399 . S
C1076 C1080 1.383 . S
C1076 C1083 1.496 1_556 S
C1077 C1078 1.399 . S
C1077 C1080 1.389 . S
C1078 C1077 1.399 . S
C1078 C1081 1.380 . S
C1078 H1088 0.929 . S
C1079 C1076 1.399 . S
C1079 C1081 1.392 . S
C1079 H1089 0.929 . S
C1080 C1076 1.383 . S
C1080 C1077 1.389 . S
C1080 H1090 0.931 . S
C1081 C1078 1.380 . S
C1081 C1079 1.392 . S
C1081 H1091 0.929 . S
C1082 O1062 1.266 . S
C1082 O1063 1.248 . S
C1083 Tb1019 2.802 . S
C1083 O1058 1.264 . S
C1083 O1061 1.256 . S
C1083 C1076 1.496 1_554 S
H1084 C1067 0.929 . S
H1085 C1068 0.929 . S
H1086 C1069 0.929 . S
H1087 C1070 0.931 . S
H1088 C1078 0.929 . S
H1089 C1079 0.929 . S
H1090 C1080 0.931 . S
H1091 C1081 0.929 . S
Tb1092 N1121 2.617 . S
Tb1092 N1127 2.572 . S
Tb1092 O1136 2.465 . S
Tb1092 O1137 2.387 . S
Tb1092 O1139 2.428 . S
Tb1092 O1140 2.308 . S
Tb1092 O1144 2.349 . S
Tb1092 O1147 2.393 . S
Tb1092 C1156 2.802 . S
C1093 N1094 1.379 . S
C1093 C1096 1.416 . S
C1093 C1100 1.424 . S
N1094 C1093 1.379 . S
N1094 C1097 1.334 . S
N1094 Tb1103 2.617 . S
C1095 C1097 1.390 . S
C1095 C1098 1.339 . S
C1095 H1115 0.930 . S
C1096 C1093 1.416 . S
C1096 C1098 1.416 . S
C1096 C1102 1.448 . S
C1097 N1094 1.334 . S
C1097 C1095 1.390 . S
C1097 H1108 0.930 . S
C1098 C1095 1.339 . S
C1098 C1096 1.416 . S
C1098 H1119 0.930 . S
C1099 C1100 1.413 . S
C1099 C1101 1.427 . S
C1099 C1105 1.416 . S
C1100 C1093 1.424 . S
C1100 C1099 1.413 . S
C1100 N1104 1.361 . S
C1101 C1099 1.427 . S
C1101 C1102 1.328 . S
C1101 H1116 0.929 . S
C1102 C1096 1.448 . S
C1102 C1101 1.328 . S
C1102 H1117 0.930 . S
Tb1103 N1094 2.617 . S
Tb1103 N1104 2.572 . S
Tb1103 O1138 2.349 . S
Tb1103 O1141 2.393 . S
Tb1103 O1142 2.465 . S
Tb1103 O1143 2.387 . S
Tb1103 O1145 2.428 . S
Tb1103 O1146 2.308 . S
Tb1103 C1167 2.802 . S
N1104 C1100 1.361 . S
N1104 Tb1103 2.572 . S
N1104 C1106 1.340 . S
C1105 C1099 1.416 . S
C1105 C1107 1.332 . S
C1105 H1113 0.931 . S
C1106 N1104 1.340 . S
C1106 C1107 1.407 . S
C1106 H1112 0.930 . S
C1107 C1105 1.332 . S
C1107 C1106 1.407 . S
C1107 H1109 0.929 . S
H1108 C1097 0.930 . S
H1109 C1107 0.929 . S
H1110 C1125 0.930 . S
H1111 C1132 0.929 . S
H1112 C1106 0.930 . S
H1113 C1105 0.931 . S
H1114 C1128 0.930 . S
H1115 C1095 0.930 . S
H1116 C1101 0.929 . S
H1117 C1102 0.930 . S
H1118 C1123 0.930 . S
H1119 C1098 0.930 . S
H1120 C1131 0.931 . S
N1121 Tb1092 2.617 . S
N1121 C1122 1.379 . S
N1121 C1125 1.334 . S
C1122 N1121 1.379 . S
C1122 C1124 1.416 . S
C1122 C1130 1.424 . S
C1123 H1118 0.930 . S
C1123 C1125 1.390 . S
C1123 C1126 1.339 . S
C1124 C1122 1.416 . S
C1124 C1126 1.416 . S
C1124 C1157 1.448 . S
C1125 H1110 0.930 . S
C1125 N1121 1.334 . S
C1125 C1123 1.390 . S
C1126 C1123 1.339 . S
C1126 C1124 1.416 . S
C1126 H1133 0.930 . S
N1127 Tb1092 2.572 . S
N1127 C1128 1.340 . S
N1127 C1130 1.361 . S
C1128 H1114 0.930 . S
C1128 N1127 1.340 . S
C1128 C1132 1.407 . S
C1129 C1130 1.413 . S
C1129 C1131 1.416 . S
C1129 C1158 1.427 . S
C1130 C1122 1.424 . S
C1130 N1127 1.361 . S
C1130 C1129 1.413 . S
C1131 H1120 0.931 . S
C1131 C1129 1.416 . S
C1131 C1132 1.332 . S
C1132 H1111 0.929 . S
C1132 C1128 1.407 . S
C1132 C1131 1.332 . S
H1133 C1126 0.930 . S
H1134 C1157 0.930 . S
H1135 C1158 0.929 . S
O1136 Tb1092 2.465 . S
O1136 C1156 1.264 . S
O1137 Tb1092 2.387 . S
O1137 C1148 1.264 . S
O1138 Tb1103 2.349 . S
O1138 C1148 1.243 . S
O1139 Tb1092 2.428 . S
O1139 C1156 1.256 . S
O1140 Tb1092 2.308 . S
O1140 C1155 1.266 . S
O1141 Tb1103 2.393 . S
O1141 C1155 1.248 . S
O1142 Tb1103 2.465 . S
O1142 C1167 1.264 . S
O1143 Tb1103 2.387 . S
O1143 C1159 1.264 . S
O1144 Tb1092 2.349 . S
O1144 C1159 1.243 . S
O1145 Tb1103 2.428 . S
O1145 C1167 1.256 . S
O1146 Tb1103 2.308 . S
O1146 C1166 1.266 . S
O1147 Tb1092 2.393 . S
O1147 C1166 1.248 . S
C1148 O1137 1.264 . S
C1148 O1138 1.243 . S
C1149 C1152 1.399 . S
C1149 C1154 1.383 . S
C1149 C1156 1.496 . S
C1150 C1151 1.399 . S
C1150 C1154 1.389 . S
C1151 C1150 1.399 . S
C1151 C1153 1.380 . S
C1151 H1168 0.929 . S
C1152 C1149 1.399 . S
C1152 C1153 1.392 . S
C1152 H1169 0.929 . S
C1153 C1151 1.380 . S
C1153 C1152 1.392 . S
C1153 H1170 0.929 . S
C1154 C1149 1.383 . S
C1154 C1150 1.389 . S
C1154 H1171 0.931 . S
C1155 O1140 1.266 . S
C1155 O1141 1.248 . S
C1156 Tb1092 2.802 . S
C1156 O1136 1.264 . S
C1156 O1139 1.256 . S
C1156 C1149 1.496 . S
C1157 C1124 1.448 . S
C1157 H1134 0.930 . S
C1157 C1158 1.328 . S
C1158 C1129 1.427 . S
C1158 H1135 0.929 . S
C1158 C1157 1.328 . S
C1159 O1143 1.264 . S
C1159 O1144 1.243 . S
C1160 C1163 1.399 . S
C1160 C1164 1.383 . S
C1160 C1167 1.496 . S
C1161 C1162 1.399 . S
C1161 C1164 1.389 . S
C1162 C1161 1.399 . S
C1162 C1165 1.380 . S
C1162 H1172 0.929 . S
C1163 C1160 1.399 . S
C1163 C1165 1.392 . S
C1163 H1173 0.929 . S
C1164 C1160 1.383 . S
C1164 C1161 1.389 . S
C1164 H1174 0.931 . S
C1165 C1162 1.380 . S
C1165 C1163 1.392 . S
C1165 H1175 0.929 . S
C1166 O1146 1.266 . S
C1166 O1147 1.248 . S
C1167 Tb1103 2.802 . S
C1167 O1142 1.264 . S
C1167 O1145 1.256 . S
C1167 C1160 1.496 . S
H1168 C1151 0.929 . S
H1169 C1152 0.929 . S
H1170 C1153 0.929 . S
H1171 C1154 0.931 . S
H1172 C1162 0.929 . S
H1173 C1163 0.929 . S
H1174 C1164 0.931 . S
H1175 C1165 0.929 . S
Tb1176 N1205 2.617 1_455 S
Tb1176 N1211 2.572 1_455 S
Tb1176 O1220 2.465 . S
Tb1176 O1221 2.387 1_455 S
Tb1176 O1223 2.428 . S
Tb1176 O1224 2.308 . S
Tb1176 O1228 2.349 . S
Tb1176 O1231 2.393 . S
Tb1176 C1240 2.802 . S
C1177 N1178 1.379 . S
C1177 C1180 1.416 . S
C1177 C1184 1.424 . S
N1178 C1177 1.379 . S
N1178 C1181 1.334 . S
N1178 Tb1187 2.617 . S
C1179 C1181 1.390 . S
C1179 C1182 1.339 . S
C1179 H1199 0.930 . S
C1180 C1177 1.416 . S
C1180 C1182 1.416 . S
C1180 C1186 1.448 . S
C1181 N1178 1.334 . S
C1181 C1179 1.390 . S
C1181 H1192 0.930 . S
C1182 C1179 1.339 . S
C1182 C1180 1.416 . S
C1182 H1203 0.930 . S
C1183 C1184 1.413 . S
C1183 C1185 1.427 . S
C1183 C1189 1.416 . S
C1184 C1177 1.424 . S
C1184 C1183 1.413 . S
C1184 N1188 1.361 . S
C1185 C1183 1.427 . S
C1185 C1186 1.328 . S
C1185 H1200 0.929 . S
C1186 C1180 1.448 . S
C1186 C1185 1.328 . S
C1186 H1201 0.930 . S
Tb1187 N1178 2.617 . S
Tb1187 N1188 2.572 . S
Tb1187 O1222 2.349 1_455 S
Tb1187 O1225 2.393 . S
Tb1187 O1226 2.465 . S
Tb1187 O1227 2.387 . S
Tb1187 O1229 2.428 . S
Tb1187 O1230 2.308 . S
Tb1187 C1251 2.802 . S
N1188 C1184 1.361 . S
N1188 Tb1187 2.572 . S
N1188 C1190 1.340 . S
C1189 C1183 1.416 . S
C1189 C1191 1.332 . S
C1189 H1197 0.931 . S
C1190 N1188 1.340 . S
C1190 C1191 1.407 . S
C1190 H1196 0.930 . S
C1191 C1189 1.332 . S
C1191 C1190 1.407 . S
C1191 H1193 0.929 . S
H1192 C1181 0.930 . S
H1193 C1191 0.929 . S
H1194 C1209 0.901 1_455 S
H1195 C1216 0.929 . S
H1196 C1190 0.930 . S
H1197 C1189 0.931 . S
H1198 C1212 0.930 1_455 S
H1199 C1179 0.930 . S
H1200 C1185 0.929 . S
H1201 C1186 0.930 . S
H1202 C1207 0.930 . S
H1203 C1182 0.930 . S
H1204 C1215 0.931 . S
N1205 Tb1176 2.617 1_655 S
N1205 C1206 1.379 . S
N1205 C1209 1.327 . S
C1206 N1205 1.379 . S
C1206 C1208 1.416 . S
C1206 C1214 1.424 . S
C1207 H1202 0.930 . S
C1207 C1209 1.427 . S
C1207 C1210 1.339 . S
C1208 C1206 1.416 . S
C1208 C1210 1.416 . S
C1208 C1241 1.448 . S
C1209 H1194 0.901 1_655 S
C1209 N1205 1.327 . S
C1209 C1207 1.427 . S
C1210 C1207 1.339 . S
C1210 C1208 1.416 . S
C1210 H1217 0.930 . S
N1211 Tb1176 2.572 1_655 S
N1211 C1212 1.340 . S
N1211 C1214 1.361 . S
C1212 H1198 0.930 1_655 S
C1212 N1211 1.340 . S
C1212 C1216 1.407 . S
C1213 C1214 1.413 . S
C1213 C1215 1.416 . S
C1213 C1242 1.427 . S
C1214 C1206 1.424 . S
C1214 N1211 1.361 . S
C1214 C1213 1.413 . S
C1215 H1204 0.931 . S
C1215 C1213 1.416 . S
C1215 C1216 1.332 . S
C1216 H1195 0.929 . S
C1216 C1212 1.407 . S
C1216 C1215 1.332 . S
H1217 C1210 0.930 . S
H1218 C1241 0.930 . S
H1219 C1242 0.929 . S
O1220 Tb1176 2.465 . S
O1220 C1240 1.264 . S
O1221 Tb1176 2.387 1_655 S
O1221 C1232 1.264 . S
O1222 Tb1187 2.349 1_655 S
O1222 C1232 1.243 . S
O1223 Tb1176 2.428 . S
O1223 C1240 1.256 . S
O1224 Tb1176 2.308 . S
O1224 C1239 1.266 . S
O1225 Tb1187 2.393 . S
O1225 C1239 1.248 . S
O1226 Tb1187 2.465 . S
O1226 C1251 1.264 . S
O1227 Tb1187 2.387 . S
O1227 C1243 1.264 . S
O1228 Tb1176 2.349 . S
O1228 C1243 1.243 . S
O1229 Tb1187 2.428 . S
O1229 C1251 1.256 . S
O1230 Tb1187 2.308 . S
O1230 C1250 1.266 . S
O1231 Tb1176 2.393 . S
O1231 C1250 1.248 . S
C1232 O1221 1.264 . S
C1232 O1222 1.243 . S
C1233 C1236 1.399 . S
C1233 C1238 1.383 . S
C1233 C1240 1.496 . S
C1234 C1235 1.399 . S
C1234 C1238 1.389 . S
C1235 C1234 1.399 . S
C1235 C1237 1.380 . S
C1235 H1252 0.929 . S
C1236 C1233 1.399 . S
C1236 C1237 1.392 . S
C1236 H1253 0.929 . S
C1237 C1235 1.380 . S
C1237 C1236 1.392 . S
C1237 H1254 0.929 . S
C1238 C1233 1.383 . S
C1238 C1234 1.389 . S
C1238 H1255 0.931 . S
C1239 O1224 1.266 . S
C1239 O1225 1.248 . S
C1240 Tb1176 2.802 . S
C1240 O1220 1.264 . S
C1240 O1223 1.256 . S
C1240 C1233 1.496 . S
C1241 C1208 1.448 . S
C1241 H1218 0.930 . S
C1241 C1242 1.328 . S
C1242 C1213 1.427 . S
C1242 H1219 0.929 . S
C1242 C1241 1.328 . S
C1243 O1227 1.264 . S
C1243 O1228 1.243 . S
C1244 C1247 1.399 . S
C1244 C1248 1.383 . S
C1244 C1251 1.496 1_655 S
C1245 C1246 1.399 . S
C1245 C1248 1.389 . S
C1246 C1245 1.399 . S
C1246 C1249 1.380 . S
C1246 H1256 0.929 . S
C1247 C1244 1.399 . S
C1247 C1249 1.392 . S
C1247 H1257 0.929 . S
C1248 C1244 1.383 . S
C1248 C1245 1.389 . S
C1248 H1258 0.931 . S
C1249 C1246 1.380 . S
C1249 C1247 1.392 . S
C1249 H1259 0.929 . S
C1250 O1230 1.266 . S
C1250 O1231 1.248 . S
C1251 Tb1187 2.802 . S
C1251 O1226 1.264 . S
C1251 O1229 1.256 . S
C1251 C1244 1.496 1_455 S
H1252 C1235 0.929 . S
H1253 C1236 0.929 . S
H1254 C1237 0.929 . S
H1255 C1238 0.931 . S
H1256 C1246 0.929 . S
H1257 C1247 0.929 . S
H1258 C1248 0.931 . S
H1259 C1249 0.929 . S
Tb1260 N1289 2.617 . S
Tb1260 N1295 2.572 . S
Tb1260 O1304 2.465 . S
Tb1260 O1305 2.387 . S
Tb1260 O1307 2.428 . S
Tb1260 O1308 2.308 . S
Tb1260 O1312 2.349 . S
Tb1260 O1315 2.393 . S
Tb1260 C1324 2.802 . S
C1261 N1262 1.379 . S
C1261 C1264 1.416 . S
C1261 C1268 1.424 . S
N1262 C1261 1.379 . S
N1262 C1265 1.334 . S
N1262 Tb1271 2.617 . S
C1263 C1265 1.390 . S
C1263 C1266 1.339 . S
C1263 H1283 0.930 . S
C1264 C1261 1.416 . S
C1264 C1266 1.416 . S
C1264 C1270 1.448 . S
C1265 N1262 1.334 . S
C1265 C1263 1.390 . S
C1265 H1276 0.930 . S
C1266 C1263 1.339 . S
C1266 C1264 1.416 . S
C1266 H1287 0.930 . S
C1267 C1268 1.413 . S
C1267 C1269 1.427 . S
C1267 C1273 1.416 . S
C1268 C1261 1.424 . S
C1268 C1267 1.413 . S
C1268 N1272 1.361 . S
C1269 C1267 1.427 . S
C1269 C1270 1.328 . S
C1269 H1284 0.929 . S
C1270 C1264 1.448 . S
C1270 C1269 1.328 . S
C1270 H1285 0.930 . S
Tb1271 N1262 2.617 . S
Tb1271 N1272 2.572 . S
Tb1271 O1306 2.349 . S
Tb1271 O1309 2.393 . S
Tb1271 O1310 2.465 . S
Tb1271 O1311 2.387 . S
Tb1271 O1313 2.428 . S
Tb1271 O1314 2.308 . S
Tb1271 C1335 2.802 . S
N1272 C1268 1.361 . S
N1272 Tb1271 2.572 . S
N1272 C1274 1.340 . S
C1273 C1267 1.416 . S
C1273 C1275 1.332 . S
C1273 H1281 0.931 . S
C1274 N1272 1.340 . S
C1274 C1275 1.407 . S
C1274 H1280 0.930 . S
C1275 C1273 1.332 . S
C1275 C1274 1.407 . S
C1275 H1277 0.929 . S
H1276 C1265 0.930 . S
H1277 C1275 0.929 . S
H1278 C1293 0.930 . S
H1279 C1300 0.929 . S
H1280 C1274 0.930 . S
H1281 C1273 0.931 . S
H1282 C1296 0.930 . S
H1283 C1263 0.930 . S
H1284 C1269 0.929 . S
H1285 C1270 0.930 . S
H1286 C1291 0.930 . S
H1287 C1266 0.930 . S
H1288 C1299 0.931 . S
N1289 Tb1260 2.617 . S
N1289 C1290 1.379 . S
N1289 C1293 1.334 . S
C1290 N1289 1.379 . S
C1290 C1292 1.416 . S
C1290 C1298 1.424 . S
C1291 H1286 0.930 . S
C1291 C1293 1.390 . S
C1291 C1294 1.339 . S
C1292 C1290 1.416 . S
C1292 C1294 1.416 . S
C1292 C1325 1.448 . S
C1293 H1278 0.930 . S
C1293 N1289 1.334 . S
C1293 C1291 1.390 . S
C1294 C1291 1.339 . S
C1294 C1292 1.416 . S
C1294 H1301 0.930 . S
N1295 Tb1260 2.572 . S
N1295 C1296 1.340 . S
N1295 C1298 1.361 . S
C1296 H1282 0.930 . S
C1296 N1295 1.340 . S
C1296 C1300 1.407 . S
C1297 C1298 1.413 . S
C1297 C1299 1.416 . S
C1297 C1326 1.427 . S
C1298 C1290 1.424 . S
C1298 N1295 1.361 . S
C1298 C1297 1.413 . S
C1299 H1288 0.931 . S
C1299 C1297 1.416 . S
C1299 C1300 1.332 . S
C1300 H1279 0.929 . S
C1300 C1296 1.407 . S
C1300 C1299 1.332 . S
H1301 C1294 0.930 . S
H1302 C1325 0.930 . S
H1303 C1326 0.929 . S
O1304 Tb1260 2.465 . S
O1304 C1324 1.264 . S
O1305 Tb1260 2.387 . S
O1305 C1316 1.264 . S
O1306 Tb1271 2.349 . S
O1306 C1316 1.243 . S
O1307 Tb1260 2.428 . S
O1307 C1324 1.256 . S
O1308 Tb1260 2.308 . S
O1308 C1323 1.266 . S
O1309 Tb1271 2.393 . S
O1309 C1323 1.248 . S
O1310 Tb1271 2.465 . S
O1310 C1335 1.264 . S
O1311 Tb1271 2.387 . S
O1311 C1327 1.264 . S
O1312 Tb1260 2.349 . S
O1312 C1327 1.243 . S
O1313 Tb1271 2.428 . S
O1313 C1335 1.256 . S
O1314 Tb1271 2.308 . S
O1314 C1334 1.266 . S
O1315 Tb1260 2.393 . S
O1315 C1334 1.248 . S
C1316 O1305 1.264 . S
C1316 O1306 1.243 . S
C1317 C1320 1.399 . S
C1317 C1322 1.383 . S
C1317 C1324 1.496 . S
C1318 C1319 1.399 . S
C1318 C1322 1.389 . S
C1319 C1318 1.399 . S
C1319 C1321 1.380 . S
C1319 H1336 0.929 . S
C1320 C1317 1.399 . S
C1320 C1321 1.392 . S
C1320 H1337 0.929 . S
C1321 C1319 1.380 . S
C1321 C1320 1.392 . S
C1321 H1338 0.929 . S
C1322 C1317 1.383 . S
C1322 C1318 1.389 . S
C1322 H1339 0.931 . S
C1323 O1308 1.266 . S
C1323 O1309 1.248 . S
C1324 Tb1260 2.802 . S
C1324 O1304 1.264 . S
C1324 O1307 1.256 . S
C1324 C1317 1.496 . S
C1325 C1292 1.448 . S
C1325 H1302 0.930 . S
C1325 C1326 1.328 . S
C1326 C1297 1.427 . S
C1326 H1303 0.929 . S
C1326 C1325 1.328 . S
C1327 O1311 1.264 . S
C1327 O1312 1.243 . S
C1328 C1331 1.399 . S
C1328 C1332 1.383 . S
C1328 C1335 1.496 . S
C1329 C1330 1.399 . S
C1329 C1332 1.389 . S
C1330 C1329 1.399 . S
C1330 C1333 1.380 . S
C1330 H1340 0.929 . S
C1331 C1328 1.399 . S
C1331 C1333 1.392 . S
C1331 H1341 0.929 . S
C1332 C1328 1.383 . S
C1332 C1329 1.389 . S
C1332 H1342 0.931 . S
C1333 C1330 1.380 . S
C1333 C1331 1.392 . S
C1333 H1343 0.929 . S
C1334 O1314 1.266 . S
C1334 O1315 1.248 . S
C1335 Tb1271 2.802 . S
C1335 O1310 1.264 . S
C1335 O1313 1.256 . S
C1335 C1328 1.496 . S
H1336 C1319 0.929 . S
H1337 C1320 0.929 . S
H1338 C1321 0.929 . S
H1339 C1322 0.931 . S
H1340 C1330 0.929 . S
H1341 C1331 0.929 . S
H1342 C1332 0.931 . S
H1343 C1333 0.929 . S
Tb1344 N1373 2.617 . S
Tb1344 N1379 2.572 . S
Tb1344 O1388 2.465 . S
Tb1344 O1389 2.387 . S
Tb1344 O1391 2.428 . S
Tb1344 O1392 2.308 . S
Tb1344 O1396 2.349 . S
Tb1344 O1399 2.393 . S
Tb1344 C1408 2.802 . S
C1345 N1346 1.379 . S
C1345 C1348 1.416 . S
C1345 C1352 1.424 . S
N1346 C1345 1.379 . S
N1346 C1349 1.334 . S
N1346 Tb1355 2.617 . S
C1347 C1349 1.390 . S
C1347 C1350 1.339 . S
C1347 H1367 0.930 . S
C1348 C1345 1.416 . S
C1348 C1350 1.416 . S
C1348 C1354 1.448 . S
C1349 N1346 1.334 . S
C1349 C1347 1.390 . S
C1349 H1360 0.930 . S
C1350 C1347 1.339 . S
C1350 C1348 1.416 . S
C1350 H1371 0.930 . S
C1351 C1352 1.413 . S
C1351 C1353 1.427 . S
C1351 C1357 1.416 . S
C1352 C1345 1.424 . S
C1352 C1351 1.413 . S
C1352 N1356 1.361 . S
C1353 C1351 1.427 . S
C1353 C1354 1.328 . S
C1353 H1368 0.929 . S
C1354 C1348 1.448 . S
C1354 C1353 1.328 . S
C1354 H1369 0.930 . S
Tb1355 N1346 2.617 . S
Tb1355 N1356 2.572 . S
Tb1355 O1390 2.349 . S
Tb1355 O1393 2.393 . S
Tb1355 O1394 2.465 . S
Tb1355 O1395 2.387 . S
Tb1355 O1397 2.428 . S
Tb1355 O1398 2.308 . S
Tb1355 C1419 2.802 . S
N1356 C1352 1.361 . S
N1356 Tb1355 2.572 . S
N1356 C1358 1.340 . S
C1357 C1351 1.416 . S
C1357 C1359 1.332 . S
C1357 H1365 0.931 . S
C1358 N1356 1.340 . S
C1358 C1359 1.407 . S
C1358 H1364 0.930 . S
C1359 C1357 1.332 . S
C1359 C1358 1.407 . S
C1359 H1361 0.929 . S
H1360 C1349 0.930 . S
H1361 C1359 0.929 . S
H1362 C1377 0.930 . S
H1363 C1384 0.929 . S
H1364 C1358 0.930 . S
H1365 C1357 0.931 . S
H1366 C1380 0.930 . S
H1367 C1347 0.930 . S
H1368 C1353 0.929 . S
H1369 C1354 0.930 . S
H1370 C1375 0.930 . S
H1371 C1350 0.930 . S
H1372 C1383 0.931 . S
N1373 Tb1344 2.617 . S
N1373 C1374 1.379 . S
N1373 C1377 1.334 . S
C1374 N1373 1.379 . S
C1374 C1376 1.416 . S
C1374 C1382 1.424 . S
C1375 H1370 0.930 . S
C1375 C1377 1.390 . S
C1375 C1378 1.339 . S
C1376 C1374 1.416 . S
C1376 C1378 1.416 . S
C1376 C1409 1.448 . S
C1377 H1362 0.930 . S
C1377 N1373 1.334 . S
C1377 C1375 1.390 . S
C1378 C1375 1.339 . S
C1378 C1376 1.416 . S
C1378 H1385 0.930 . S
N1379 Tb1344 2.572 . S
N1379 C1380 1.340 . S
N1379 C1382 1.361 . S
C1380 H1366 0.930 . S
C1380 N1379 1.340 . S
C1380 C1384 1.407 . S
C1381 C1382 1.413 . S
C1381 C1383 1.416 . S
C1381 C1410 1.427 . S
C1382 C1374 1.424 . S
C1382 N1379 1.361 . S
C1382 C1381 1.413 . S
C1383 H1372 0.931 . S
C1383 C1381 1.416 . S
C1383 C1384 1.332 . S
C1384 H1363 0.929 . S
C1384 C1380 1.407 . S
C1384 C1383 1.332 . S
H1385 C1378 0.930 . S
H1386 C1409 0.930 . S
H1387 C1410 0.929 . S
O1388 Tb1344 2.465 . S
O1388 C1408 1.264 . S
O1389 Tb1344 2.387 . S
O1389 C1400 1.264 . S
O1390 Tb1355 2.349 . S
O1390 C1400 1.243 . S
O1391 Tb1344 2.428 . S
O1391 C1408 1.256 . S
O1392 Tb1344 2.308 . S
O1392 C1407 1.266 . S
O1393 Tb1355 2.393 . S
O1393 C1407 1.248 . S
O1394 Tb1355 2.465 . S
O1394 C1419 1.264 . S
O1395 Tb1355 2.387 . S
O1395 C1411 1.264 . S
O1396 Tb1344 2.349 . S
O1396 C1411 1.243 . S
O1397 Tb1355 2.428 . S
O1397 C1419 1.256 . S
O1398 Tb1355 2.308 . S
O1398 C1418 1.266 . S
O1399 Tb1344 2.393 . S
O1399 C1418 1.248 . S
C1400 O1389 1.264 . S
C1400 O1390 1.243 . S
C1401 C1404 1.399 . S
C1401 C1406 1.383 . S
C1401 C1408 1.496 . S
C1402 C1403 1.399 . S
C1402 C1406 1.389 . S
C1403 C1402 1.399 . S
C1403 C1405 1.380 . S
C1403 H1420 0.929 . S
C1404 C1401 1.399 . S
C1404 C1405 1.392 . S
C1404 H1421 0.929 . S
C1405 C1403 1.380 . S
C1405 C1404 1.392 . S
C1405 H1422 0.929 . S
C1406 C1401 1.383 . S
C1406 C1402 1.389 . S
C1406 H1423 0.931 . S
C1407 O1392 1.266 . S
C1407 O1393 1.248 . S
C1408 Tb1344 2.802 . S
C1408 O1388 1.264 . S
C1408 O1391 1.256 . S
C1408 C1401 1.496 . S
C1409 C1376 1.448 . S
C1409 H1386 0.930 . S
C1409 C1410 1.328 . S
C1410 C1381 1.427 . S
C1410 H1387 0.929 . S
C1410 C1409 1.328 . S
C1411 O1395 1.264 . S
C1411 O1396 1.243 . S
C1412 C1415 1.399 . S
C1412 C1416 1.383 . S
C1412 C1419 1.496 . S
C1413 C1414 1.399 . S
C1413 C1416 1.389 . S
C1414 C1413 1.399 . S
C1414 C1417 1.380 . S
C1414 H1424 0.929 . S
C1415 C1412 1.399 . S
C1415 C1417 1.392 . S
C1415 H1425 0.929 . S
C1416 C1412 1.383 . S
C1416 C1413 1.389 . S
C1416 H1426 0.931 . S
C1417 C1414 1.380 . S
C1417 C1415 1.392 . S
C1417 H1427 0.929 . S
C1418 O1398 1.266 . S
C1418 O1399 1.248 . S
C1419 Tb1355 2.802 . S
C1419 O1394 1.264 . S
C1419 O1397 1.256 . S
C1419 C1412 1.496 . S
H1420 C1403 0.929 . S
H1421 C1404 0.929 . S
H1422 C1405 0.929 . S
H1423 C1406 0.931 . S
H1424 C1414 0.929 . S
H1425 C1415 0.929 . S
H1426 C1416 0.931 . S
H1427 C1417 0.929 . S
Tb1428 N1457 2.617 . S
Tb1428 N1463 2.572 . S
Tb1428 O1472 2.465 . S
Tb1428 O1473 2.387 . S
Tb1428 O1475 2.428 . S
Tb1428 O1476 2.308 . S
Tb1428 O1480 2.349 . S
Tb1428 O1483 2.393 . S
Tb1428 C1492 2.802 . S
C1429 N1430 1.379 . S
C1429 C1432 1.416 . S
C1429 C1436 1.424 . S
N1430 C1429 1.379 . S
N1430 C1433 1.334 . S
N1430 Tb1439 2.617 . S
C1431 C1433 1.390 . S
C1431 C1434 1.339 . S
C1431 H1451 0.930 . S
C1432 C1429 1.416 . S
C1432 C1434 1.416 . S
C1432 C1438 1.448 . S
C1433 N1430 1.334 . S
C1433 C1431 1.390 . S
C1433 H1444 0.930 . S
C1434 C1431 1.339 . S
C1434 C1432 1.416 . S
C1434 H1455 0.930 . S
C1435 C1436 1.413 . S
C1435 C1437 1.427 . S
C1435 C1441 1.416 . S
C1436 C1429 1.424 . S
C1436 C1435 1.413 . S
C1436 N1440 1.361 . S
C1437 C1435 1.427 . S
C1437 C1438 1.328 . S
C1437 H1452 0.929 . S
C1438 C1432 1.448 . S
C1438 C1437 1.328 . S
C1438 H1453 0.930 . S
Tb1439 N1430 2.617 . S
Tb1439 N1440 2.572 . S
Tb1439 O1474 2.349 . S
Tb1439 O1477 2.393 . S
Tb1439 O1478 2.465 . S
Tb1439 O1479 2.387 . S
Tb1439 O1481 2.428 . S
Tb1439 O1482 2.308 . S
Tb1439 C1503 2.802 . S
N1440 C1436 1.361 . S
N1440 Tb1439 2.572 . S
N1440 C1442 1.340 . S
C1441 C1435 1.416 . S
C1441 C1443 1.332 . S
C1441 H1449 0.931 . S
C1442 N1440 1.340 . S
C1442 C1443 1.407 . S
C1442 H1448 0.930 . S
C1443 C1441 1.332 . S
C1443 C1442 1.407 . S
C1443 H1445 0.929 . S
H1444 C1433 0.930 . S
H1445 C1443 0.929 . S
H1446 C1461 0.930 . S
H1447 C1468 0.929 . S
H1448 C1442 0.930 . S
H1449 C1441 0.931 . S
H1450 C1464 0.930 . S
H1451 C1431 0.930 . S
H1452 C1437 0.929 . S
H1453 C1438 0.930 . S
H1454 C1459 0.930 . S
H1455 C1434 0.930 . S
H1456 C1467 0.931 . S
N1457 Tb1428 2.617 . S
N1457 C1458 1.379 . S
N1457 C1461 1.334 . S
C1458 N1457 1.379 . S
C1458 C1460 1.416 . S
C1458 C1466 1.424 . S
C1459 H1454 0.930 . S
C1459 C1461 1.390 . S
C1459 C1462 1.339 . S
C1460 C1458 1.416 . S
C1460 C1462 1.416 . S
C1460 C1493 1.448 . S
C1461 H1446 0.930 . S
C1461 N1457 1.334 . S
C1461 C1459 1.390 . S
C1462 C1459 1.339 . S
C1462 C1460 1.416 . S
C1462 H1469 0.930 . S
N1463 Tb1428 2.572 . S
N1463 C1464 1.340 . S
N1463 C1466 1.361 . S
C1464 H1450 0.930 . S
C1464 N1463 1.340 . S
C1464 C1468 1.407 . S
C1465 C1466 1.413 . S
C1465 C1467 1.416 . S
C1465 C1494 1.427 . S
C1466 C1458 1.424 . S
C1466 N1463 1.361 . S
C1466 C1465 1.413 . S
C1467 H1456 0.931 . S
C1467 C1465 1.416 . S
C1467 C1468 1.332 . S
C1468 H1447 0.929 . S
C1468 C1464 1.407 . S
C1468 C1467 1.332 . S
H1469 C1462 0.930 . S
H1470 C1493 0.930 . S
H1471 C1494 0.929 . S
O1472 Tb1428 2.465 . S
O1472 C1492 1.264 . S
O1473 Tb1428 2.387 . S
O1473 C1484 1.264 . S
O1474 Tb1439 2.349 . S
O1474 C1484 1.243 . S
O1475 Tb1428 2.428 . S
O1475 C1492 1.256 . S
O1476 Tb1428 2.308 . S
O1476 C1491 1.266 . S
O1477 Tb1439 2.393 . S
O1477 C1491 1.248 . S
O1478 Tb1439 2.465 . S
O1478 C1503 1.264 . S
O1479 Tb1439 2.387 . S
O1479 C1495 1.264 . S
O1480 Tb1428 2.349 . S
O1480 C1495 1.243 . S
O1481 Tb1439 2.428 . S
O1481 C1503 1.256 . S
O1482 Tb1439 2.308 . S
O1482 C1502 1.266 . S
O1483 Tb1428 2.393 . S
O1483 C1502 1.248 . S
C1484 O1473 1.264 . S
C1484 O1474 1.243 . S
C1485 C1488 1.399 . S
C1485 C1490 1.383 . S
C1485 C1492 1.496 . S
C1486 C1487 1.399 . S
C1486 C1490 1.389 . S
C1487 C1486 1.399 . S
C1487 C1489 1.380 . S
C1487 H1504 0.929 . S
C1488 C1485 1.399 . S
C1488 C1489 1.392 . S
C1488 H1505 0.929 . S
C1489 C1487 1.380 . S
C1489 C1488 1.392 . S
C1489 H1506 0.929 . S
C1490 C1485 1.383 . S
C1490 C1486 1.389 . S
C1490 H1507 0.931 . S
C1491 O1476 1.266 . S
C1491 O1477 1.248 . S
C1492 Tb1428 2.802 . S
C1492 O1472 1.264 . S
C1492 O1475 1.256 . S
C1492 C1485 1.496 . S
C1493 C1460 1.448 . S
C1493 H1470 0.930 . S
C1493 C1494 1.328 . S
C1494 C1465 1.427 . S
C1494 H1471 0.929 . S
C1494 C1493 1.328 . S
C1495 O1479 1.264 . S
C1495 O1480 1.243 . S
C1496 C1499 1.399 . S
C1496 C1500 1.383 . S
C1496 C1503 1.496 . S
C1497 C1498 1.399 . S
C1497 C1500 1.389 . S
C1498 C1497 1.399 . S
C1498 C1501 1.380 . S
C1498 H1508 0.929 . S
C1499 C1496 1.399 . S
C1499 C1501 1.392 . S
C1499 H1509 0.929 . S
C1500 C1496 1.383 . S
C1500 C1497 1.389 . S
C1500 H1510 0.931 . S
C1501 C1498 1.380 . S
C1501 C1499 1.392 . S
C1501 H1511 0.929 . S
C1502 O1482 1.266 . S
C1502 O1483 1.248 . S
C1503 Tb1439 2.802 . S
C1503 O1478 1.264 . S
C1503 O1481 1.256 . S
C1503 C1496 1.496 . S
H1504 C1487 0.929 . S
H1505 C1488 0.929 . S
H1506 C1489 0.929 . S
H1507 C1490 0.931 . S
H1508 C1498 0.929 . S
H1509 C1499 0.929 . S
H1510 C1500 0.931 . S
H1511 C1501 0.929 . S
Tb1512 N1541 2.617 . S
Tb1512 N1547 2.572 . S
Tb1512 O1556 2.465 . S
Tb1512 O1557 2.387 . S
Tb1512 O1559 2.428 . S
Tb1512 O1560 2.308 . S
Tb1512 O1564 2.349 . S
Tb1512 O1567 2.393 . S
Tb1512 C1576 2.802 . S
C1513 N1514 1.379 . S
C1513 C1516 1.416 . S
C1513 C1520 1.424 . S
N1514 C1513 1.379 . S
N1514 C1517 1.334 . S
N1514 Tb1523 2.617 . S
C1515 C1517 1.390 . S
C1515 C1518 1.339 . S
C1515 H1535 0.930 . S
C1516 C1513 1.416 . S
C1516 C1518 1.416 . S
C1516 C1522 1.448 . S
C1517 N1514 1.334 . S
C1517 C1515 1.390 . S
C1517 H1528 0.930 . S
C1518 C1515 1.339 . S
C1518 C1516 1.416 . S
C1518 H1539 0.930 . S
C1519 C1520 1.413 . S
C1519 C1521 1.427 . S
C1519 C1525 1.416 . S
C1520 C1513 1.424 . S
C1520 C1519 1.413 . S
C1520 N1524 1.361 . S
C1521 C1519 1.427 . S
C1521 C1522 1.328 . S
C1521 H1536 0.929 . S
C1522 C1516 1.448 . S
C1522 C1521 1.328 . S
C1522 H1537 0.930 . S
Tb1523 N1514 2.617 . S
Tb1523 N1524 2.572 . S
Tb1523 O1558 2.349 . S
Tb1523 O1561 2.393 . S
Tb1523 O1562 2.465 . S
Tb1523 O1563 2.387 . S
Tb1523 O1565 2.428 . S
Tb1523 O1566 2.308 . S
Tb1523 C1587 2.802 . S
N1524 C1520 1.361 . S
N1524 Tb1523 2.572 . S
N1524 C1526 1.340 . S
C1525 C1519 1.416 . S
C1525 C1527 1.332 . S
C1525 H1533 0.931 . S
C1526 N1524 1.340 . S
C1526 C1527 1.407 . S
C1526 H1532 0.930 . S
C1527 C1525 1.332 . S
C1527 C1526 1.407 . S
C1527 H1529 0.929 . S
H1528 C1517 0.930 . S
H1529 C1527 0.929 . S
H1530 C1545 0.930 . S
H1531 C1552 0.929 . S
H1532 C1526 0.930 . S
H1533 C1525 0.931 . S
H1534 C1548 0.930 . S
H1535 C1515 0.930 . S
H1536 C1521 0.929 . S
H1537 C1522 0.930 . S
H1538 C1543 0.930 . S
H1539 C1518 0.930 . S
H1540 C1551 0.931 . S
N1541 Tb1512 2.617 . S
N1541 C1542 1.379 . S
N1541 C1545 1.334 . S
C1542 N1541 1.379 . S
C1542 C1544 1.416 . S
C1542 C1550 1.424 . S
C1543 H1538 0.930 . S
C1543 C1545 1.390 . S
C1543 C1546 1.339 . S
C1544 C1542 1.416 . S
C1544 C1546 1.416 . S
C1544 C1577 1.448 . S
C1545 H1530 0.930 . S
C1545 N1541 1.334 . S
C1545 C1543 1.390 . S
C1546 C1543 1.339 . S
C1546 C1544 1.416 . S
C1546 H1553 0.930 . S
N1547 Tb1512 2.572 . S
N1547 C1548 1.340 . S
N1547 C1550 1.361 . S
C1548 H1534 0.930 . S
C1548 N1547 1.340 . S
C1548 C1552 1.407 . S
C1549 C1550 1.413 . S
C1549 C1551 1.416 . S
C1549 C1578 1.427 . S
C1550 C1542 1.424 . S
C1550 N1547 1.361 . S
C1550 C1549 1.413 . S
C1551 H1540 0.931 . S
C1551 C1549 1.416 . S
C1551 C1552 1.332 . S
C1552 H1531 0.929 . S
C1552 C1548 1.407 . S
C1552 C1551 1.332 . S
H1553 C1546 0.930 . S
H1554 C1577 0.930 . S
H1555 C1578 0.929 . S
O1556 Tb1512 2.465 . S
O1556 C1576 1.264 . S
O1557 Tb1512 2.387 . S
O1557 C1568 1.264 . S
O1558 Tb1523 2.349 . S
O1558 C1568 1.243 . S
O1559 Tb1512 2.428 . S
O1559 C1576 1.256 . S
O1560 Tb1512 2.308 . S
O1560 C1575 1.266 . S
O1561 Tb1523 2.393 . S
O1561 C1575 1.248 . S
O1562 Tb1523 2.465 . S
O1562 C1587 1.264 . S
O1563 Tb1523 2.387 . S
O1563 C1579 1.264 . S
O1564 Tb1512 2.349 . S
O1564 C1579 1.243 . S
O1565 Tb1523 2.428 . S
O1565 C1587 1.256 . S
O1566 Tb1523 2.308 . S
O1566 C1586 1.266 . S
O1567 Tb1512 2.393 . S
O1567 C1586 1.248 . S
C1568 O1557 1.264 . S
C1568 O1558 1.243 . S
C1569 C1572 1.399 . S
C1569 C1574 1.383 . S
C1569 C1576 1.496 . S
C1570 C1571 1.399 . S
C1570 C1574 1.389 . S
C1571 C1570 1.399 . S
C1571 C1573 1.380 . S
C1571 H1588 0.929 . S
C1572 C1569 1.399 . S
C1572 C1573 1.392 . S
C1572 H1589 0.929 . S
C1573 C1571 1.380 . S
C1573 C1572 1.392 . S
C1573 H1590 0.929 . S
C1574 C1569 1.383 . S
C1574 C1570 1.389 . S
C1574 H1591 0.931 . S
C1575 O1560 1.266 . S
C1575 O1561 1.248 . S
C1576 Tb1512 2.802 . S
C1576 O1556 1.264 . S
C1576 O1559 1.256 . S
C1576 C1569 1.496 . S
C1577 C1544 1.448 . S
C1577 H1554 0.930 . S
C1577 C1578 1.328 . S
C1578 C1549 1.427 . S
C1578 H1555 0.929 . S
C1578 C1577 1.328 . S
C1579 O1563 1.264 . S
C1579 O1564 1.243 . S
C1580 C1583 1.399 . S
C1580 C1584 1.383 . S
C1580 C1587 1.496 . S
C1581 C1582 1.399 . S
C1581 C1584 1.389 . S
C1582 C1581 1.399 . S
C1582 C1585 1.380 . S
C1582 H1592 0.929 . S
C1583 C1580 1.399 . S
C1583 C1585 1.392 . S
C1583 H1593 0.929 . S
C1584 C1580 1.383 . S
C1584 C1581 1.389 . S
C1584 H1594 0.931 . S
C1585 C1582 1.380 . S
C1585 C1583 1.392 . S
C1585 H1595 0.929 . S
C1586 O1566 1.266 . S
C1586 O1567 1.248 . S
C1587 Tb1523 2.802 . S
C1587 O1562 1.264 . S
C1587 O1565 1.256 . S
C1587 C1580 1.496 . S
H1588 C1571 0.929 . S
H1589 C1572 0.929 . S
H1590 C1573 0.929 . S
H1591 C1574 0.931 . S
H1592 C1582 0.929 . S
H1593 C1583 0.929 . S
H1594 C1584 0.931 . S
H1595 C1585 0.929 . S
Tb1596 N1625 2.603 1_455 S
Tb1596 N1631 2.539 1_455 S
Tb1596 O1640 2.421 1_455 S
Tb1596 O1641 2.415 . S
Tb1596 O1643 2.391 1_455 S
Tb1596 O1644 2.319 . S
Tb1596 O1648 2.365 . S
Tb1596 O1651 2.429 . S
Tb1596 C1660 2.757 1_455 S
C1597 N1598 1.379 . S
C1597 C1600 1.416 . S
C1597 C1604 1.424 1_556 S
N1598 C1597 1.379 . S
N1598 C1601 1.334 . S
N1598 Tb1607 2.617 1_556 S
C1599 C1601 1.390 . S
C1599 C1602 1.339 . S
C1599 H1619 0.930 . S
C1600 C1597 1.416 . S
C1600 C1602 1.416 . S
C1600 C1606 1.448 . S
C1601 N1598 1.334 . S
C1601 C1599 1.390 . S
C1601 H1612 0.930 . S
C1602 C1599 1.339 . S
C1602 C1600 1.416 . S
C1602 H1623 0.930 . S
C1603 C1604 1.413 . S
C1603 C1605 1.427 . S
C1603 C1609 1.416 . S
C1604 C1597 1.424 1_554 S
C1604 C1603 1.413 . S
C1604 N1608 1.361 . S
C1605 C1603 1.427 . S
C1605 C1606 1.328 1_554 S
C1605 H1620 0.929 . S
C1606 C1600 1.448 . S
C1606 C1605 1.328 1_556 S
C1606 H1621 0.930 . S
Tb1607 N1598 2.617 1_554 S
Tb1607 N1608 2.572 . S
Tb1607 O1642 2.349 . S
Tb1607 O1645 2.393 1_554 S
Tb1607 O1646 2.465 . S
Tb1607 O1647 2.387 . S
Tb1607 O1649 2.428 1_554 S
Tb1607 O1650 2.308 . S
Tb1607 C1671 2.802 . S
N1608 C1604 1.361 . S
N1608 Tb1607 2.572 . S
N1608 C1610 1.340 . S
C1609 C1603 1.416 . S
C1609 C1611 1.332 . S
C1609 H1617 0.931 . S
C1610 N1608 1.340 . S
C1610 C1611 1.407 . S
C1610 H1616 0.930 . S
C1611 C1609 1.332 . S
C1611 C1610 1.407 . S
C1611 H1613 0.929 . S
H1612 C1601 0.930 . S
H1613 C1611 0.929 . S
H1614 C1629 0.930 1_455 S
H1615 C1636 0.929 . S
H1616 C1610 0.930 . S
H1617 C1609 0.931 . S
H1618 C1632 0.930 1_556 S
H1619 C1599 0.930 . S
H1620 C1605 0.929 . S
H1621 C1606 0.930 . S
H1622 C1627 0.930 . S
H1623 C1602 0.930 . S
H1624 C1635 0.931 . S
N1625 Tb1596 2.603 1_655 S
N1625 C1626 1.379 . S
N1625 C1629 1.334 . S
C1626 N1625 1.379 . S
C1626 C1628 1.416 . S
C1626 C1634 1.424 . S
C1627 H1622 0.930 . S
C1627 C1629 1.390 . S
C1627 C1630 1.339 . S
C1628 C1626 1.416 . S
C1628 C1630 1.416 . S
C1628 C1661 1.448 . S
C1629 H1614 0.930 1_655 S
C1629 N1625 1.334 . S
C1629 C1627 1.390 . S
C1630 C1627 1.339 . S
C1630 C1628 1.416 . S
C1630 H1637 0.930 . S
N1631 Tb1596 2.539 1_655 S
N1631 C1632 1.340 . S
N1631 C1634 1.361 . S
C1632 H1618 0.930 1_554 S
C1632 N1631 1.340 . S
C1632 C1636 1.407 1_554 S
C1633 C1634 1.413 . S
C1633 C1635 1.416 . S
C1633 C1662 1.427 . S
C1634 C1626 1.424 . S
C1634 N1631 1.361 . S
C1634 C1633 1.413 . S
C1635 H1624 0.931 . S
C1635 C1633 1.416 . S
C1635 C1636 1.332 1_554 S
C1636 H1615 0.929 . S
C1636 C1632 1.407 1_556 S
C1636 C1635 1.332 1_556 S
H1637 C1630 0.930 . S
H1638 C1661 0.930 . S
H1639 C1662 0.929 . S
O1640 Tb1596 2.421 1_655 S
O1640 C1660 1.264 . S
O1641 Tb1596 2.415 . S
O1641 C1652 1.264 . S
O1642 Tb1607 2.349 . S
O1642 C1652 1.243 . S
O1643 Tb1596 2.391 1_655 S
O1643 C1660 1.256 . S
O1644 Tb1596 2.319 . S
O1644 C1659 1.266 1_554 S
O1645 Tb1607 2.393 1_556 S
O1645 C1659 1.248 . S
O1646 Tb1607 2.465 . S
O1646 C1671 1.264 . S
O1647 Tb1607 2.387 . S
O1647 C1663 1.264 . S
O1648 Tb1596 2.365 . S
O1648 C1663 1.243 . S
O1649 Tb1607 2.428 1_556 S
O1649 C1671 1.256 1_556 S
O1650 Tb1607 2.308 . S
O1650 C1670 1.266 . S
O1651 Tb1596 2.429 . S
O1651 C1670 1.248 . S
C1652 O1641 1.264 . S
C1652 O1642 1.243 . S
C1653 C1656 1.399 . S
C1653 C1658 1.383 . S
C1653 C1660 1.496 . S
C1654 C1655 1.399 . S
C1654 C1658 1.389 . S
C1655 C1654 1.399 . S
C1655 C1657 1.380 . S
C1655 H1672 0.929 . S
C1656 C1653 1.399 . S
C1656 C1657 1.392 . S
C1656 H1673 0.929 . S
C1657 C1655 1.380 . S
C1657 C1656 1.392 . S
C1657 H1674 0.929 . S
C1658 C1653 1.383 . S
C1658 C1654 1.389 . S
C1658 H1675 0.931 . S
C1659 O1644 1.266 1_556 S
C1659 O1645 1.248 . S
C1660 Tb1596 2.757 1_655 S
C1660 O1640 1.264 . S
C1660 O1643 1.256 . S
C1660 C1653 1.496 . S
C1661 C1628 1.448 . S
C1661 H1638 0.930 . S
C1661 C1662 1.328 . S
C1662 C1633 1.427 . S
C1662 H1639 0.929 . S
C1662 C1661 1.328 . S
C1663 O1647 1.264 . S
C1663 O1648 1.243 . S
C1664 C1667 1.444 . S
C1664 C1668 1.350 1_556 S
C1664 C1671 1.487 1_556 S
C1665 C1666 1.399 1_554 S
C1665 C1668 1.389 . S
C1666 C1665 1.399 1_556 S
C1666 C1669 1.380 . S
C1666 H1676 0.929 . S
C1667 C1664 1.444 . S
C1667 C1669 1.392 . S
C1667 H1677 0.929 . S
C1668 C1664 1.350 1_554 S
C1668 C1665 1.389 . S
C1668 H1678 0.931 . S
C1669 C1666 1.380 . S
C1669 C1667 1.392 . S
C1669 H1679 0.929 . S
C1670 O1650 1.266 . S
C1670 O1651 1.248 . S
C1671 Tb1607 2.802 . S
C1671 O1646 1.264 . S
C1671 O1649 1.256 1_554 S
C1671 C1664 1.487 1_554 S
H1672 C1655 0.929 . S
H1673 C1656 0.929 . S
H1674 C1657 0.929 . S
H1675 C1658 0.931 . S
H1676 C1666 0.929 . S
H1677 C1667 0.929 . S
H1678 C1668 0.931 . S
H1679 C1669 0.929 . S
H1680 C1688 0.929 . S
H1681 C1690 0.930 . S
H1682 C1692 0.930 . S
H1683 C1695 0.929 . S
H1684 C1698 0.930 1_654 S
H1685 C1700 0.960 . S
H1686 C1700 0.960 . S
H1687 C1700 0.960 . S
C1688 H1680 0.929 . S
C1688 C1689 1.406 . S
C1688 C1690 1.384 . S
C1689 C1688 1.406 . S
C1689 C1695 1.380 1_455 S
C1690 H1681 0.930 . S
C1690 C1688 1.384 . S
C1690 C1691 1.372 . S
C1691 C1690 1.372 . S
C1691 C1692 1.400 1_455 S
C1691 C1696 1.490 . S
C1692 H1682 0.930 . S
C1692 C1691 1.400 1_655 S
C1692 C1695 1.386 . S
H1693 C1709 0.930 . S
H1694 C1710 0.931 1_655 S
C1695 H1683 0.929 . S
C1695 C1689 1.380 1_655 S
C1695 C1692 1.386 . S
C1696 C1691 1.490 . S
C1696 C1698 1.395 . S
C1696 C1699 1.403 . S
H1697 C1703 0.930 . S
C1698 H1684 0.930 1_456 S
C1698 C1696 1.395 . S
C1698 C1701 1.403 1_556 S
C1699 C1696 1.403 . S
C1699 C1700 1.524 . S
C1699 C1703 1.400 . S
C1700 H1685 0.960 . S
C1700 H1686 0.960 . S
C1700 H1687 0.960 . S
C1700 C1699 1.524 . S
C1701 C1698 1.403 1_554 S
C1701 C1702 1.392 1_554 S
C1701 C1705 1.495 1_455 S
C1702 C1701 1.392 1_556 S
C1702 C1703 1.385 . S
C1702 C1704 1.478 1_556 S
C1703 H1697 0.930 . S
C1703 C1699 1.400 . S
C1703 C1702 1.385 . S
C1704 C1702 1.478 1_554 S
C1704 C1706 1.381 . S
C1704 C1710 1.383 1_554 S
C1705 C1701 1.495 1_655 S
C1705 H1711 0.959 . S
C1705 H1712 0.961 . S
C1705 H1713 0.960 1_655 S
C1706 C1704 1.381 . S
C1706 C1707 1.394 . S
C1706 H1714 0.930 . S
C1707 C1706 1.394 . S
C1707 C1708 1.383 . S
C1707 H1715 0.929 . S
C1708 C1707 1.383 . S
C1708 C1709 1.377 1_554 S
C1709 H1693 0.930 . S
C1709 C1708 1.377 1_556 S
C1709 C1710 1.379 . S
C1710 H1694 0.931 1_455 S
C1710 C1704 1.383 1_556 S
C1710 C1709 1.379 . S
H1711 C1705 0.959 . S
H1712 C1705 0.961 . S
H1713 C1705 0.960 1_455 S
H1714 C1706 0.930 . S
H1715 C1707 0.929 . S
H1716 C1724 0.929 . S
H1717 C1726 0.930 . S
H1718 C1728 0.930 . S
H1719 C1731 0.929 . S
H1720 C1734 0.930 . S
H1721 C1736 0.960 . S
H1722 C1736 0.960 . S
H1723 C1736 0.960 . S
C1724 H1716 0.929 . S
C1724 C1725 1.377 . S
C1724 C1726 1.384 . S
C1725 C1724 1.377 . S
C1725 C1731 1.390 . S
C1726 H1717 0.930 . S
C1726 C1724 1.384 . S
C1726 C1727 1.372 . S
C1727 C1726 1.372 . S
C1727 C1728 1.400 . S
C1727 C1732 1.490 . S
C1728 H1718 0.930 . S
C1728 C1727 1.400 . S
C1728 C1731 1.386 . S
H1729 C1745 0.930 . S
H1730 C1746 0.931 . S
C1731 H1719 0.929 . S
C1731 C1725 1.390 . S
C1731 C1728 1.386 . S
C1732 C1727 1.490 . S
C1732 C1734 1.395 . S
C1732 C1735 1.403 . S
H1733 C1739 0.930 . S
C1734 H1720 0.930 . S
C1734 C1732 1.395 . S
C1734 C1737 1.403 . S
C1735 C1732 1.403 . S
C1735 C1736 1.524 . S
C1735 C1739 1.400 . S
C1736 H1721 0.960 . S
C1736 H1722 0.960 . S
C1736 H1723 0.960 . S
C1736 C1735 1.524 . S
C1737 C1734 1.403 . S
C1737 C1738 1.392 . S
C1737 C1741 1.495 . S
C1738 C1737 1.392 . S
C1738 C1739 1.385 . S
C1738 C1740 1.478 . S
C1739 H1733 0.930 . S
C1739 C1735 1.400 . S
C1739 C1738 1.385 . S
C1740 C1738 1.478 . S
C1740 C1742 1.381 . S
C1740 C1746 1.383 . S
C1741 C1737 1.495 . S
C1741 H1747 0.959 . S
C1741 H1748 0.961 . S
C1741 H1749 0.960 . S
C1742 C1740 1.381 . S
C1742 C1743 1.394 . S
C1742 H1750 0.930 . S
C1743 C1742 1.394 . S
C1743 C1744 1.383 . S
C1743 H1751 0.929 . S
C1744 C1743 1.383 . S
C1744 C1745 1.377 . S
C1745 H1729 0.930 . S
C1745 C1744 1.377 . S
C1745 C1746 1.379 . S
C1746 H1730 0.931 . S
C1746 C1740 1.383 . S
C1746 C1745 1.379 . S
H1747 C1741 0.959 . S
H1748 C1741 0.961 . S
H1749 C1741 0.960 . S
H1750 C1742 0.930 . S
H1751 C1743 0.929 . S
H1752 C1760 0.929 . S
H1753 C1762 0.930 . S
H1754 C1764 0.930 . S
H1755 C1767 0.929 . S
H1756 C1770 0.930 . S
H1757 C1772 0.960 . S
H1758 C1772 0.960 . S
H1759 C1772 0.960 . S
C1760 H1752 0.929 . S
C1760 C1761 1.377 . S
C1760 C1762 1.384 . S
C1761 C1760 1.377 . S
C1761 C1767 1.390 . S
C1762 H1753 0.930 . S
C1762 C1760 1.384 . S
C1762 C1763 1.372 . S
C1763 C1762 1.372 . S
C1763 C1764 1.400 . S
C1763 C1768 1.490 . S
C1764 H1754 0.930 . S
C1764 C1763 1.400 . S
C1764 C1767 1.386 . S
H1765 C1781 0.930 . S
H1766 C1782 0.931 . S
C1767 H1755 0.929 . S
C1767 C1761 1.390 . S
C1767 C1764 1.386 . S
C1768 C1763 1.490 . S
C1768 C1770 1.395 . S
C1768 C1771 1.403 . S
H1769 C1775 0.930 . S
C1770 H1756 0.930 . S
C1770 C1768 1.395 . S
C1770 C1773 1.403 . S
C1771 C1768 1.403 . S
C1771 C1772 1.524 . S
C1771 C1775 1.400 . S
C1772 H1757 0.960 . S
C1772 H1758 0.960 . S
C1772 H1759 0.960 . S
C1772 C1771 1.524 . S
C1773 C1770 1.403 . S
C1773 C1774 1.392 . S
C1773 C1777 1.495 . S
C1774 C1773 1.392 . S
C1774 C1775 1.385 . S
C1774 C1776 1.478 . S
C1775 H1769 0.930 . S
C1775 C1771 1.400 . S
C1775 C1774 1.385 . S
C1776 C1774 1.478 . S
C1776 C1778 1.381 . S
C1776 C1782 1.383 . S
C1777 C1773 1.495 . S
C1777 H1783 0.959 . S
C1777 H1784 0.961 . S
C1777 H1785 0.960 . S
C1778 C1776 1.381 . S
C1778 C1779 1.394 . S
C1778 H1786 0.930 . S
C1779 C1778 1.394 . S
C1779 C1780 1.383 . S
C1779 H1787 0.929 . S
C1780 C1779 1.383 . S
C1780 C1781 1.377 . S
C1781 H1765 0.930 . S
C1781 C1780 1.377 . S
C1781 C1782 1.379 . S
C1782 H1766 0.931 . S
C1782 C1776 1.383 . S
C1782 C1781 1.379 . S
H1783 C1777 0.959 . S
H1784 C1777 0.961 . S
H1785 C1777 0.960 . S
H1786 C1778 0.930 . S
H1787 C1779 0.929 . S
H1788 C1796 0.929 . S
H1789 C1798 0.930 . S
H1790 C1800 0.930 . S
H1791 C1803 0.929 . S
H1792 C1806 0.930 . S
H1793 C1808 0.960 . S
H1794 C1808 0.960 . S
H1795 C1808 0.960 . S
C1796 H1788 0.929 . S
C1796 C1797 1.377 . S
C1796 C1798 1.384 . S
C1797 C1796 1.377 . S
C1797 C1803 1.390 . S
C1798 H1789 0.930 . S
C1798 C1796 1.384 . S
C1798 C1799 1.372 . S
C1799 C1798 1.372 . S
C1799 C1800 1.400 . S
C1799 C1804 1.490 . S
C1800 H1790 0.930 . S
C1800 C1799 1.400 . S
C1800 C1803 1.386 . S
H1801 C1817 0.930 . S
H1802 C1818 0.931 . S
C1803 H1791 0.929 . S
C1803 C1797 1.390 . S
C1803 C1800 1.386 . S
C1804 C1799 1.490 . S
C1804 C1806 1.395 . S
C1804 C1807 1.403 . S
H1805 C1811 0.930 . S
C1806 H1792 0.930 . S
C1806 C1804 1.395 . S
C1806 C1809 1.403 . S
C1807 C1804 1.403 . S
C1807 C1808 1.524 . S
C1807 C1811 1.400 . S
C1808 H1793 0.960 . S
C1808 H1794 0.960 . S
C1808 H1795 0.960 . S
C1808 C1807 1.524 . S
C1809 C1806 1.403 . S
C1809 C1810 1.392 . S
C1809 C1813 1.495 . S
C1810 C1809 1.392 . S
C1810 C1811 1.385 . S
C1810 C1812 1.478 . S
C1811 H1805 0.930 . S
C1811 C1807 1.400 . S
C1811 C1810 1.385 . S
C1812 C1810 1.478 . S
C1812 C1814 1.381 . S
C1812 C1818 1.383 . S
C1813 C1809 1.495 . S
C1813 H1819 0.959 . S
C1813 H1820 0.961 . S
C1813 H1821 0.960 . S
C1814 C1812 1.381 . S
C1814 C1815 1.394 . S
C1814 H1822 0.930 . S
C1815 C1814 1.394 . S
C1815 C1816 1.383 . S
C1815 H1823 0.929 . S
C1816 C1815 1.383 . S
C1816 C1817 1.377 . S
C1817 H1801 0.930 . S
C1817 C1816 1.377 . S
C1817 C1818 1.379 . S
C1818 H1802 0.931 . S
C1818 C1812 1.383 . S
C1818 C1817 1.379 . S
H1819 C1813 0.959 . S
H1820 C1813 0.961 . S
H1821 C1813 0.960 . S
H1822 C1814 0.930 . S
H1823 C1815 0.929 . S
H1824 C1832 0.929 . S
H1825 C1834 0.930 . S
H1826 C1836 0.930 . S
H1827 C1839 0.929 . S
H1828 C1842 0.930 1_655 S
H1829 C1844 0.960 . S
H1830 C1844 0.960 . S
H1831 C1844 0.960 . S
C1832 H1824 0.929 . S
C1832 C1833 1.377 . S
C1832 C1834 1.384 . S
C1833 C1832 1.377 . S
C1833 C1839 1.390 . S
C1834 H1825 0.930 . S
C1834 C1832 1.384 . S
C1834 C1835 1.372 . S
C1835 C1834 1.372 . S
C1835 C1836 1.400 . S
C1835 C1840 1.490 . S
C1836 H1826 0.930 . S
C1836 C1835 1.400 . S
C1836 C1839 1.386 . S
H1837 C1853 0.930 . S
H1838 C1854 0.931 . S
C1839 H1827 0.929 . S
C1839 C1833 1.390 . S
C1839 C1836 1.386 . S
C1840 C1835 1.490 . S
C1840 C1842 1.395 . S
C1840 C1843 1.403 . S
H1841 C1847 0.930 . S
C1842 H1828 0.930 1_455 S
C1842 C1840 1.395 . S
C1842 C1845 1.403 . S
C1843 C1840 1.403 . S
C1843 C1844 1.524 . S
C1843 C1847 1.400 . S
C1844 H1829 0.960 . S
C1844 H1830 0.960 . S
C1844 H1831 0.960 . S
C1844 C1843 1.524 . S
C1845 C1842 1.403 . S
C1845 C1846 1.392 . S
C1845 C1849 1.495 1_455 S
C1846 C1845 1.392 . S
C1846 C1847 1.385 . S
C1846 C1848 1.478 . S
C1847 H1841 0.930 . S
C1847 C1843 1.400 . S
C1847 C1846 1.385 . S
C1848 C1846 1.478 . S
C1848 C1850 1.381 . S
C1848 C1854 1.383 . S
C1849 C1845 1.495 1_655 S
C1849 H1855 0.959 . S
C1849 H1856 0.961 . S
C1849 H1857 0.960 . S
C1850 C1848 1.381 . S
C1850 C1851 1.394 . S
C1850 H1858 0.930 . S
C1851 C1850 1.394 . S
C1851 C1852 1.383 . S
C1851 H1859 0.929 . S
C1852 C1851 1.383 . S
C1852 C1853 1.377 . S
C1853 H1837 0.930 . S
C1853 C1852 1.377 . S
C1853 C1854 1.379 . S
C1854 H1838 0.931 . S
C1854 C1848 1.383 . S
C1854 C1853 1.379 . S
H1855 C1849 0.959 . S
H1856 C1849 0.961 . S
H1857 C1849 0.960 . S
H1858 C1850 0.930 . S
H1859 C1851 0.929 . S
H1860 C1868 0.929 . S
H1861 C1870 0.930 . S
H1862 C1872 0.930 . S
H1863 C1875 0.929 . S
H1864 C1878 0.930 . S
H1865 C1880 0.960 . S
H1866 C1880 0.960 . S
H1867 C1880 0.960 . S
C1868 H1860 0.929 . S
C1868 C1869 1.377 . S
C1868 C1870 1.384 . S
C1869 C1868 1.377 . S
C1869 C1875 1.390 . S
C1870 H1861 0.930 . S
C1870 C1868 1.384 . S
C1870 C1871 1.372 . S
C1871 C1870 1.372 . S
C1871 C1872 1.400 . S
C1871 C1876 1.490 . S
C1872 H1862 0.930 . S
C1872 C1871 1.400 . S
C1872 C1875 1.386 . S
H1873 C1889 0.930 . S
H1874 C1890 0.931 . S
C1875 H1863 0.929 . S
C1875 C1869 1.390 . S
C1875 C1872 1.386 . S
C1876 C1871 1.490 . S
C1876 C1878 1.395 . S
C1876 C1879 1.403 . S
H1877 C1883 0.930 . S
C1878 H1864 0.930 . S
C1878 C1876 1.395 . S
C1878 C1881 1.403 . S
C1879 C1876 1.403 . S
C1879 C1880 1.524 . S
C1879 C1883 1.400 . S
C1880 H1865 0.960 . S
C1880 H1866 0.960 . S
C1880 H1867 0.960 . S
C1880 C1879 1.524 . S
C1881 C1878 1.403 . S
C1881 C1882 1.392 . S
C1881 C1885 1.495 . S
C1882 C1881 1.392 . S
C1882 C1883 1.385 . S
C1882 C1884 1.478 . S
C1883 H1877 0.930 . S
C1883 C1879 1.400 . S
C1883 C1882 1.385 . S
C1884 C1882 1.478 . S
C1884 C1886 1.381 . S
C1884 C1890 1.383 . S
C1885 C1881 1.495 . S
C1885 H1891 0.959 . S
C1885 H1892 0.961 . S
C1885 H1893 0.960 . S
C1886 C1884 1.381 . S
C1886 C1887 1.394 . S
C1886 H1894 0.930 . S
C1887 C1886 1.394 . S
C1887 C1888 1.383 . S
C1887 H1895 0.929 . S
C1888 C1887 1.383 . S
C1888 C1889 1.377 . S
C1889 H1873 0.930 . S
C1889 C1888 1.377 . S
C1889 C1890 1.379 . S
C1890 H1874 0.931 . S
C1890 C1884 1.383 . S
C1890 C1889 1.379 . S
H1891 C1885 0.959 . S
H1892 C1885 0.961 . S
H1893 C1885 0.960 . S
H1894 C1886 0.930 . S
H1895 C1887 0.929 . S
H1896 C1904 0.929 . S
H1897 C1906 0.930 . S
H1898 C1908 0.930 . S
H1899 C1911 0.929 . S
H1900 C1914 0.930 . S
H1901 C1916 0.960 . S
H1902 C1916 0.960 . S
H1903 C1916 0.960 . S
C1904 H1896 0.929 . S
C1904 C1905 1.377 . S
C1904 C1906 1.384 . S
C1905 C1904 1.377 . S
C1905 C1911 1.390 . S
C1906 H1897 0.930 . S
C1906 C1904 1.384 . S
C1906 C1907 1.372 . S
C1907 C1906 1.372 . S
C1907 C1908 1.400 . S
C1907 C1912 1.490 . S
C1908 H1898 0.930 . S
C1908 C1907 1.400 . S
C1908 C1911 1.386 . S
H1909 C1925 0.930 . S
H1910 C1926 0.931 . S
C1911 H1899 0.929 . S
C1911 C1905 1.390 . S
C1911 C1908 1.386 . S
C1912 C1907 1.490 . S
C1912 C1914 1.395 . S
C1912 C1915 1.403 . S
H1913 C1919 0.930 . S
C1914 H1900 0.930 . S
C1914 C1912 1.395 . S
C1914 C1917 1.403 . S
C1915 C1912 1.403 . S
C1915 C1916 1.524 . S
C1915 C1919 1.400 . S
C1916 H1901 0.960 . S
C1916 H1902 0.960 . S
C1916 H1903 0.960 . S
C1916 C1915 1.524 . S
C1917 C1914 1.403 . S
C1917 C1918 1.392 . S
C1917 C1921 1.495 . S
C1918 C1917 1.392 . S
C1918 C1919 1.385 . S
C1918 C1920 1.478 . S
C1919 H1913 0.930 . S
C1919 C1915 1.400 . S
C1919 C1918 1.385 . S
C1920 C1918 1.478 . S
C1920 C1922 1.381 . S
C1920 C1926 1.383 . S
C1921 C1917 1.495 . S
C1921 H1927 0.959 . S
C1921 H1928 0.961 . S
C1921 H1929 0.960 . S
C1922 C1920 1.381 . S
C1922 C1923 1.394 . S
C1922 H1930 0.930 . S
C1923 C1922 1.394 . S
C1923 C1924 1.383 . S
C1923 H1931 0.929 . S
C1924 C1923 1.383 . S
C1924 C1925 1.377 . S
C1925 H1909 0.930 . S
C1925 C1924 1.377 . S
C1925 C1926 1.379 . S
C1926 H1910 0.931 . S
C1926 C1920 1.383 . S
C1926 C1925 1.379 . S
H1927 C1921 0.959 . S
H1928 C1921 0.961 . S
H1929 C1921 0.960 . S
H1930 C1922 0.930 . S
H1931 C1923 0.929 . S
H1932 C1940 0.929 . S
H1933 C1942 0.930 . S
H1934 C1944 0.930 . S
H1935 C1947 0.929 . S
H1936 C1950 0.930 . S
H1937 C1952 0.960 . S
H1938 C1952 0.960 . S
H1939 C1952 0.960 . S
C1940 H1932 0.929 . S
C1940 C1941 1.377 . S
C1940 C1942 1.384 . S
C1941 C1940 1.377 . S
C1941 C1947 1.390 . S
C1942 H1933 0.930 . S
C1942 C1940 1.384 . S
C1942 C1943 1.372 . S
C1943 C1942 1.372 . S
C1943 C1944 1.400 . S
C1943 C1948 1.490 . S
C1944 H1934 0.930 . S
C1944 C1943 1.400 . S
C1944 C1947 1.386 . S
H1945 C1961 0.930 . S
H1946 C1962 0.931 . S
C1947 H1935 0.929 . S
C1947 C1941 1.390 . S
C1947 C1944 1.386 . S
C1948 C1943 1.490 . S
C1948 C1950 1.395 . S
C1948 C1951 1.403 . S
H1949 C1955 0.930 . S
C1950 H1936 0.930 . S
C1950 C1948 1.395 . S
C1950 C1953 1.403 . S
C1951 C1948 1.403 . S
C1951 C1952 1.524 . S
C1951 C1955 1.400 . S
C1952 H1937 0.960 . S
C1952 H1938 0.960 . S
C1952 H1939 0.960 . S
C1952 C1951 1.524 . S
C1953 C1950 1.403 . S
C1953 C1954 1.392 . S
C1953 C1957 1.495 . S
C1954 C1953 1.392 . S
C1954 C1955 1.385 . S
C1954 C1956 1.478 . S
C1955 H1949 0.930 . S
C1955 C1951 1.400 . S
C1955 C1954 1.385 . S
C1956 C1954 1.478 . S
C1956 C1958 1.381 . S
C1956 C1962 1.383 . S
C1957 C1953 1.495 . S
C1957 H1963 0.959 . S
C1957 H1964 0.961 . S
C1957 H1965 0.960 . S
C1958 C1956 1.381 . S
C1958 C1959 1.394 . S
C1958 H1966 0.930 . S
C1959 C1958 1.394 . S
C1959 C1960 1.383 . S
C1959 H1967 0.929 . S
C1960 C1959 1.383 . S
C1960 C1961 1.377 . S
C1961 H1945 0.930 . S
C1961 C1960 1.377 . S
C1961 C1962 1.379 . S
C1962 H1946 0.931 . S
C1962 C1956 1.383 . S
C1962 C1961 1.379 . S
H1963 C1957 0.959 . S
H1964 C1957 0.961 . S
H1965 C1957 0.960 . S
H1966 C1958 0.930 . S
H1967 C1959 0.929 . S
H1968 C1976 0.929 . S
H1969 C1978 0.930 . S
H1970 C1980 0.930 . S
H1971 C1983 0.929 . S
H1972 C1986 0.930 . S
H1973 C1988 0.960 . S
H1974 C1988 0.960 . S
H1975 C1988 0.960 . S
C1976 H1968 0.929 . S
C1976 C1977 1.377 . S
C1976 C1978 1.384 . S
C1977 C1976 1.377 . S
C1977 C1983 1.390 . S
C1978 H1969 0.930 . S
C1978 C1976 1.384 . S
C1978 C1979 1.372 . S
C1979 C1978 1.372 . S
C1979 C1980 1.400 . S
C1979 C1984 1.490 . S
C1980 H1970 0.930 . S
C1980 C1979 1.400 . S
C1980 C1983 1.386 . S
H1981 C1997 0.930 . S
H1982 C1998 0.931 . S
C1983 H1971 0.929 . S
C1983 C1977 1.390 . S
C1983 C1980 1.386 . S
C1984 C1979 1.490 . S
C1984 C1986 1.395 . S
C1984 C1987 1.403 . S
H1985 C1991 0.930 . S
C1986 H1972 0.930 . S
C1986 C1984 1.395 . S
C1986 C1989 1.403 . S
C1987 C1984 1.403 . S
C1987 C1988 1.524 1_545 S
C1987 C1991 1.400 . S
C1988 H1973 0.960 . S
C1988 H1974 0.960 . S
C1988 H1975 0.960 . S
C1988 C1987 1.524 1_565 S
C1989 C1986 1.403 . S
C1989 C1990 1.392 . S
C1989 C1993 1.495 . S
C1990 C1989 1.392 . S
C1990 C1991 1.385 . S
C1990 C1992 1.478 . S
C1991 H1985 0.930 . S
C1991 C1987 1.400 . S
C1991 C1990 1.385 . S
C1992 C1990 1.478 . S
C1992 C1994 1.381 . S
C1992 C1998 1.383 1_655 S
C1993 C1989 1.495 . S
C1993 H1999 0.959 . S
C1993 H2000 0.961 . S
C1993 H2001 0.960 . S
C1994 C1992 1.381 . S
C1994 C1995 1.394 . S
C1994 H2002 0.930 . S
C1995 C1994 1.394 . S
C1995 C1996 1.383 1_655 S
C1995 H2003 0.929 . S
C1996 C1995 1.383 1_455 S
C1996 C1997 1.377 . S
C1997 H1981 0.930 . S
C1997 C1996 1.377 . S
C1997 C1998 1.379 . S
C1998 H1982 0.931 . S
C1998 C1992 1.383 1_455 S
C1998 C1997 1.379 . S
H1999 C1993 0.959 . S
H2000 C1993 0.961 . S
H2001 C1993 0.960 . S
H2002 C1994 0.930 . S
H2003 C1995 0.929 . S
H2004 C2012 0.929 . S
H2005 C2014 0.930 . S
H2006 C2016 0.930 . S
H2007 C2019 0.929 . S
H2008 C2022 0.930 . S
H2009 C2024 0.960 . S
H2010 C2024 0.960 . S
H2011 C2024 0.960 . S
C2012 H2004 0.929 . S
C2012 C2013 1.377 . S
C2012 C2014 1.384 . S
C2013 C2012 1.377 . S
C2013 C2019 1.390 . S
C2014 H2005 0.930 . S
C2014 C2012 1.384 . S
C2014 C2015 1.372 . S
C2015 C2014 1.372 . S
C2015 C2016 1.400 . S
C2015 C2020 1.490 . S
C2016 H2006 0.930 . S
C2016 C2015 1.400 . S
C2016 C2019 1.386 . S
H2017 C2033 0.930 . S
H2018 C2034 0.931 . S
C2019 H2007 0.929 . S
C2019 C2013 1.390 . S
C2019 C2016 1.386 . S
C2020 C2015 1.490 . S
C2020 C2022 1.395 . S
C2020 C2023 1.403 . S
H2021 C2027 0.930 . S
C2022 H2008 0.930 . S
C2022 C2020 1.395 . S
C2022 C2025 1.403 . S
C2023 C2020 1.403 . S
C2023 C2024 1.524 . S
C2023 C2027 1.400 . S
C2024 H2009 0.960 . S
C2024 H2010 0.960 . S
C2024 H2011 0.960 . S
C2024 C2023 1.524 . S
C2025 C2022 1.403 . S
C2025 C2026 1.392 . S
C2025 C2029 1.495 . S
C2026 C2025 1.392 . S
C2026 C2027 1.385 . S
C2026 C2028 1.478 . S
C2027 H2021 0.930 . S
C2027 C2023 1.400 . S
C2027 C2026 1.385 . S
C2028 C2026 1.478 . S
C2028 C2030 1.381 . S
C2028 C2034 1.383 . S
C2029 C2025 1.495 . S
C2029 H2035 0.959 . S
C2029 H2036 0.961 . S
C2029 H2037 0.960 . S
C2030 C2028 1.381 . S
C2030 C2031 1.394 . S
C2030 H2038 0.930 . S
C2031 C2030 1.394 . S
C2031 C2032 1.383 . S
C2031 H2039 0.929 . S
C2032 C2031 1.383 . S
C2032 C2033 1.377 . S
C2033 H2017 0.930 . S
C2033 C2032 1.377 . S
C2033 C2034 1.379 . S
C2034 H2018 0.931 . S
C2034 C2028 1.383 . S
C2034 C2033 1.379 . S
H2035 C2029 0.959 . S
H2036 C2029 0.961 . S
H2037 C2029 0.960 . S
H2038 C2030 0.930 . S
H2039 C2031 0.929 . S
H2040 C2048 0.929 . S
H2041 C2050 0.930 . S
H2042 C2052 0.930 . S
H2043 C2055 0.929 . S
H2044 C2058 0.930 . S
H2045 C2060 0.960 1_565 S
H2046 C2060 0.960 1_565 S
H2047 C2060 0.960 . S
C2048 H2040 0.929 . S
C2048 C2049 1.377 . S
C2048 C2050 1.384 . S
C2049 C2048 1.377 . S
C2049 C2055 1.390 . S
C2050 H2041 0.930 . S
C2050 C2048 1.384 . S
C2050 C2051 1.372 . S
C2051 C2050 1.372 . S
C2051 C2052 1.400 . S
C2051 C2056 1.490 . S
C2052 H2042 0.930 . S
C2052 C2051 1.400 . S
C2052 C2055 1.386 . S
H2053 C2069 0.930 . S
H2054 C2070 0.931 . S
C2055 H2043 0.929 . S
C2055 C2049 1.390 . S
C2055 C2052 1.386 . S
C2056 C2051 1.490 . S
C2056 C2058 1.395 . S
C2056 C2059 1.403 . S
H2057 C2063 0.930 . S
C2058 H2044 0.930 . S
C2058 C2056 1.395 . S
C2058 C2061 1.403 . S
C2059 C2056 1.403 . S
C2059 C2060 1.524 . S
C2059 C2063 1.400 . S
C2060 H2045 0.960 1_545 S
C2060 H2046 0.960 1_545 S
C2060 H2047 0.960 . S
C2060 C2059 1.524 . S
C2061 C2058 1.403 . S
C2061 C2062 1.392 . S
C2061 C2065 1.495 . S
C2062 C2061 1.392 . S
C2062 C2063 1.385 . S
C2062 C2064 1.478 . S
C2063 H2057 0.930 . S
C2063 C2059 1.400 . S
C2063 C2062 1.385 . S
C2064 C2062 1.478 . S
C2064 C2066 1.381 . S
C2064 C2070 1.383 . S
C2065 C2061 1.495 . S
C2065 H2071 0.959 . S
C2065 H2072 0.961 . S
C2065 H2073 0.960 . S
C2066 C2064 1.381 . S
C2066 C2067 1.394 . S
C2066 H2074 0.930 . S
C2067 C2066 1.394 . S
C2067 C2068 1.383 . S
C2067 H2075 0.929 . S
C2068 C2067 1.383 . S
C2068 C2069 1.377 . S
C2069 H2053 0.930 . S
C2069 C2068 1.377 . S
C2069 C2070 1.379 . S
C2070 H2054 0.931 . S
C2070 C2064 1.383 . S
C2070 C2069 1.379 . S
H2071 C2065 0.959 . S
H2072 C2065 0.961 . S
H2073 C2065 0.960 . S
H2074 C2066 0.930 . S
H2075 C2067 0.929 . S
H2076 C2084 0.929 . S
H2077 C2086 0.930 . S
H2078 C2088 0.930 . S
H2079 C2091 0.929 . S
H2080 C2094 0.930 . S
H2081 C2096 0.960 . S
H2082 C2096 0.960 . S
H2083 C2096 0.960 . S
C2084 H2076 0.929 . S
C2084 C2085 1.377 . S
C2084 C2086 1.384 . S
C2085 C2084 1.377 . S
C2085 C2091 1.390 . S
C2086 H2077 0.930 . S
C2086 C2084 1.384 . S
C2086 C2087 1.372 . S
C2087 C2086 1.372 . S
C2087 C2088 1.400 . S
C2087 C2092 1.490 . S
C2088 H2078 0.930 . S
C2088 C2087 1.400 . S
C2088 C2091 1.386 . S
H2089 C2105 0.930 . S
H2090 C2106 0.931 . S
C2091 H2079 0.929 . S
C2091 C2085 1.390 . S
C2091 C2088 1.386 . S
C2092 C2087 1.490 . S
C2092 C2094 1.395 . S
C2092 C2095 1.403 . S
H2093 C2099 0.930 . S
C2094 H2080 0.930 . S
C2094 C2092 1.395 . S
C2094 C2097 1.403 . S
C2095 C2092 1.403 . S
C2095 C2096 1.524 . S
C2095 C2099 1.400 . S
C2096 H2081 0.960 . S
C2096 H2082 0.960 . S
C2096 H2083 0.960 . S
C2096 C2095 1.524 . S
C2097 C2094 1.403 . S
C2097 C2098 1.392 . S
C2097 C2101 1.495 . S
C2098 C2097 1.392 . S
C2098 C2099 1.385 . S
C2098 C2100 1.478 . S
C2099 H2093 0.930 . S
C2099 C2095 1.400 . S
C2099 C2098 1.385 . S
C2100 C2098 1.478 . S
C2100 C2102 1.381 . S
C2100 C2106 1.383 . S
C2101 C2097 1.495 . S
C2101 H2107 0.959 . S
C2101 H2108 0.961 . S
C2101 H2109 0.960 . S
C2102 C2100 1.381 . S
C2102 C2103 1.394 . S
C2102 H2110 0.930 . S
C2103 C2102 1.394 . S
C2103 C2104 1.383 . S
C2103 H2111 0.929 . S
C2104 C2103 1.383 . S
C2104 C2105 1.377 . S
C2105 H2089 0.930 . S
C2105 C2104 1.377 . S
C2105 C2106 1.379 . S
C2106 H2090 0.931 . S
C2106 C2100 1.383 . S
C2106 C2105 1.379 . S
H2107 C2101 0.959 . S
H2108 C2101 0.961 . S
H2109 C2101 0.960 . S
H2110 C2102 0.930 . S
H2111 C2103 0.929 . S
H2112 C2120 0.929 . S
H2113 C2122 0.930 . S
H2114 C2124 0.930 . S
H2115 C2127 0.929 . S
H2116 C2130 0.930 . S
H2117 C2132 0.960 . S
H2118 C2132 0.960 . S
H2119 C2132 0.960 . S
C2120 H2112 0.929 . S
C2120 C2121 1.377 . S
C2120 C2122 1.384 . S
C2121 C2120 1.377 . S
C2121 C2127 1.390 . S
C2122 H2113 0.930 . S
C2122 C2120 1.384 . S
C2122 C2123 1.372 . S
C2123 C2122 1.372 . S
C2123 C2124 1.400 . S
C2123 C2128 1.490 . S
C2124 H2114 0.930 . S
C2124 C2123 1.400 . S
C2124 C2127 1.386 . S
H2125 C2141 0.930 . S
H2126 C2142 0.931 . S
C2127 H2115 0.929 . S
C2127 C2121 1.390 . S
C2127 C2124 1.386 . S
C2128 C2123 1.490 . S
C2128 C2130 1.395 . S
C2128 C2131 1.403 . S
H2129 C2135 0.930 1_565 S
C2130 H2116 0.930 . S
C2130 C2128 1.395 . S
C2130 C2133 1.403 . S
C2131 C2128 1.403 . S
C2131 C2132 1.524 1_545 S
C2131 C2135 1.400 . S
C2132 H2117 0.960 . S
C2132 H2118 0.960 . S
C2132 H2119 0.960 . S
C2132 C2131 1.524 1_565 S
C2133 C2130 1.403 . S
C2133 C2134 1.392 . S
C2133 C2137 1.495 1_655 S
C2134 C2133 1.392 . S
C2134 C2135 1.385 . S
C2134 C2136 1.478 . S
C2135 H2129 0.930 1_545 S
C2135 C2131 1.400 . S
C2135 C2134 1.385 . S
C2136 C2134 1.478 . S
C2136 C2138 1.381 1_655 S
C2136 C2142 1.383 . S
C2137 C2133 1.495 1_455 S
C2137 H2143 0.959 . S
C2137 H2144 0.961 . S
C2137 H2145 0.960 . S
C2138 C2136 1.381 1_455 S
C2138 C2139 1.394 . S
C2138 H2146 0.930 . S
C2139 C2138 1.394 . S
C2139 C2140 1.383 . S
C2139 H2147 0.929 . S
C2140 C2139 1.383 . S
C2140 C2141 1.377 1_455 S
C2141 H2125 0.930 . S
C2141 C2140 1.377 1_655 S
C2141 C2142 1.379 . S
C2142 H2126 0.931 . S
C2142 C2136 1.383 . S
C2142 C2141 1.379 . S
H2143 C2137 0.959 . S
H2144 C2137 0.961 . S
H2145 C2137 0.960 . S
H2146 C2138 0.930 . S
H2147 C2139 0.929 . S
H2148 C2156 0.929 . S
H2149 C2158 0.930 . S
H2150 C2160 0.930 . S
H2151 C2163 0.929 . S
H2152 C2166 0.930 . S
H2153 C2168 0.960 . S
H2154 C2168 0.960 . S
H2155 C2168 0.960 . S
C2156 H2148 0.929 . S
C2156 C2157 1.377 . S
C2156 C2158 1.384 . S
C2157 C2156 1.377 . S
C2157 C2163 1.390 . S
C2158 H2149 0.930 . S
C2158 C2156 1.384 . S
C2158 C2159 1.372 . S
C2159 C2158 1.372 . S
C2159 C2160 1.400 . S
C2159 C2164 1.490 . S
C2160 H2150 0.930 . S
C2160 C2159 1.400 . S
C2160 C2163 1.386 . S
H2161 C2177 0.930 . S
H2162 C2178 0.931 . S
C2163 H2151 0.929 . S
C2163 C2157 1.390 . S
C2163 C2160 1.386 . S
C2164 C2159 1.490 . S
C2164 C2166 1.395 . S
C2164 C2167 1.403 . S
H2165 C2171 0.930 . S
C2166 H2152 0.930 . S
C2166 C2164 1.395 . S
C2166 C2169 1.403 . S
C2167 C2164 1.403 . S
C2167 C2168 1.524 . S
C2167 C2171 1.400 . S
C2168 H2153 0.960 . S
C2168 H2154 0.960 . S
C2168 H2155 0.960 . S
C2168 C2167 1.524 . S
C2169 C2166 1.403 . S
C2169 C2170 1.392 . S
C2169 C2173 1.495 . S
C2170 C2169 1.392 . S
C2170 C2171 1.385 . S
C2170 C2172 1.478 . S
C2171 H2165 0.930 . S
C2171 C2167 1.400 . S
C2171 C2170 1.385 . S
C2172 C2170 1.478 . S
C2172 C2174 1.381 . S
C2172 C2178 1.383 . S
C2173 C2169 1.495 . S
C2173 H2179 0.959 . S
C2173 H2180 0.961 . S
C2173 H2181 0.960 . S
C2174 C2172 1.381 . S
C2174 C2175 1.394 . S
C2174 H2182 0.930 . S
C2175 C2174 1.394 . S
C2175 C2176 1.383 . S
C2175 H2183 0.929 . S
C2176 C2175 1.383 . S
C2176 C2177 1.377 . S
C2177 H2161 0.930 . S
C2177 C2176 1.377 . S
C2177 C2178 1.379 . S
C2178 H2162 0.931 . S
C2178 C2172 1.383 . S
C2178 C2177 1.379 . S
H2179 C2173 0.959 . S
H2180 C2173 0.961 . S
H2181 C2173 0.960 . S
H2182 C2174 0.930 . S
H2183 C2175 0.929 . S
H2184 C2192 0.929 . S
H2185 C2194 0.930 . S
H2186 C2196 0.930 . S
H2187 C2199 0.929 . S
H2188 C2202 0.930 . S
H2189 C2204 0.960 . S
H2190 C2204 0.960 . S
H2191 C2204 0.960 . S
C2192 H2184 0.929 . S
C2192 C2193 1.377 . S
C2192 C2194 1.384 . S
C2193 C2192 1.377 . S
C2193 C2199 1.390 . S
C2194 H2185 0.930 . S
C2194 C2192 1.384 . S
C2194 C2195 1.372 . S
C2195 C2194 1.372 . S
C2195 C2196 1.400 . S
C2195 C2200 1.490 . S
C2196 H2186 0.930 . S
C2196 C2195 1.400 . S
C2196 C2199 1.386 . S
H2197 C2213 0.930 . S
H2198 C2214 0.931 . S
C2199 H2187 0.929 . S
C2199 C2193 1.390 . S
C2199 C2196 1.386 . S
C2200 C2195 1.490 . S
C2200 C2202 1.395 . S
C2200 C2203 1.403 . S
H2201 C2207 0.930 . S
C2202 H2188 0.930 . S
C2202 C2200 1.395 . S
C2202 C2205 1.403 . S
C2203 C2200 1.403 . S
C2203 C2204 1.524 . S
C2203 C2207 1.400 . S
C2204 H2189 0.960 . S
C2204 H2190 0.960 . S
C2204 H2191 0.960 . S
C2204 C2203 1.524 . S
C2205 C2202 1.403 . S
C2205 C2206 1.392 . S
C2205 C2209 1.495 . S
C2206 C2205 1.392 . S
C2206 C2207 1.385 . S
C2206 C2208 1.478 . S
C2207 H2201 0.930 . S
C2207 C2203 1.400 . S
C2207 C2206 1.385 . S
C2208 C2206 1.478 . S
C2208 C2210 1.381 . S
C2208 C2214 1.383 . S
C2209 C2205 1.495 . S
C2209 H2215 0.959 1_545 S
C2209 H2216 0.961 1_545 S
C2209 H2217 0.960 . S
C2210 C2208 1.381 . S
C2210 C2211 1.394 . S
C2210 H2218 0.930 . S
C2211 C2210 1.394 . S
C2211 C2212 1.383 . S
C2211 H2219 0.929 . S
C2212 C2211 1.383 . S
C2212 C2213 1.377 . S
C2213 H2197 0.930 . S
C2213 C2212 1.377 . S
C2213 C2214 1.379 . S
C2214 H2198 0.931 . S
C2214 C2208 1.383 . S
C2214 C2213 1.379 . S
H2215 C2209 0.959 1_565 S
H2216 C2209 0.961 1_565 S
H2217 C2209 0.960 . S
H2218 C2210 0.930 . S
H2219 C2211 0.929 . S
H2220 C2228 0.929 . S
H2221 C2230 0.930 . S
H2222 C2232 0.930 . S
H2223 C2235 0.929 . S
H2224 C2238 0.930 . S
H2225 C2240 0.960 . S
H2226 C2240 0.960 . S
H2227 C2240 0.960 . S
C2228 H2220 0.929 . S
C2228 C2229 1.377 . S
C2228 C2230 1.384 . S
C2229 C2228 1.377 . S
C2229 C2235 1.390 . S
C2230 H2221 0.930 . S
C2230 C2228 1.384 . S
C2230 C2231 1.372 . S
C2231 C2230 1.372 . S
C2231 C2232 1.400 . S
C2231 C2236 1.490 . S
C2232 H2222 0.930 . S
C2232 C2231 1.400 . S
C2232 C2235 1.386 . S
H2233 C2249 0.930 . S
H2234 C2250 0.931 . S
C2235 H2223 0.929 . S
C2235 C2229 1.390 . S
C2235 C2232 1.386 . S
C2236 C2231 1.490 . S
C2236 C2238 1.395 . S
C2236 C2239 1.403 . S
H2237 C2243 0.930 . S
C2238 H2224 0.930 . S
C2238 C2236 1.395 . S
C2238 C2241 1.403 . S
C2239 C2236 1.403 . S
C2239 C2240 1.524 . S
C2239 C2243 1.400 . S
C2240 H2225 0.960 . S
C2240 H2226 0.960 . S
C2240 H2227 0.960 . S
C2240 C2239 1.524 . S
C2241 C2238 1.403 . S
C2241 C2242 1.392 . S
C2241 C2245 1.495 . S
C2242 C2241 1.392 . S
C2242 C2243 1.385 . S
C2242 C2244 1.478 . S
C2243 H2237 0.930 . S
C2243 C2239 1.400 . S
C2243 C2242 1.385 . S
C2244 C2242 1.478 . S
C2244 C2246 1.381 . S
C2244 C2250 1.383 . S
C2245 C2241 1.495 . S
C2245 H2251 0.959 . S
C2245 H2252 0.961 . S
C2245 H2253 0.960 . S
C2246 C2244 1.381 . S
C2246 C2247 1.394 . S
C2246 H2254 0.930 . S
C2247 C2246 1.394 . S
C2247 C2248 1.383 . S
C2247 H2255 0.929 . S
C2248 C2247 1.383 . S
C2248 C2249 1.377 . S
C2249 H2233 0.930 . S
C2249 C2248 1.377 . S
C2249 C2250 1.379 . S
C2250 H2234 0.931 . S
C2250 C2244 1.383 . S
C2250 C2249 1.379 . S
H2251 C2245 0.959 . S
H2252 C2245 0.961 . S
H2253 C2245 0.960 . S
H2254 C2246 0.930 . S
H2255 C2247 0.929 . S
H2256 C2264 0.929 . S
H2257 C2266 0.930 . S
H2258 C2268 0.930 . S
H2259 C2271 0.929 . S
H2260 C2274 0.930 . S
H2261 C2276 0.960 . S
H2262 C2276 0.960 . S
H2263 C2276 0.960 . S
C2264 H2256 0.929 . S
C2264 C2265 1.377 . S
C2264 C2266 1.384 1_556 S
C2265 C2264 1.377 . S
C2265 C2271 1.390 1_556 S
C2266 H2257 0.930 . S
C2266 C2264 1.384 1_554 S
C2266 C2267 1.372 . S
C2267 C2266 1.372 . S
C2267 C2268 1.400 . S
C2267 C2272 1.490 . S
C2268 H2258 0.930 . S
C2268 C2267 1.400 . S
C2268 C2271 1.386 . S
H2269 C2285 0.930 . S
H2270 C2286 0.931 1_545 S
C2271 H2259 0.929 . S
C2271 C2265 1.390 1_554 S
C2271 C2268 1.386 . S
C2272 C2267 1.490 . S
C2272 C2274 1.395 . S
C2272 C2275 1.403 1_554 S
H2273 C2279 0.930 1_556 S
C2274 H2260 0.930 . S
C2274 C2272 1.395 . S
C2274 C2277 1.403 . S
C2275 C2272 1.403 1_556 S
C2275 C2276 1.524 . S
C2275 C2279 1.400 1_556 S
C2276 H2261 0.960 . S
C2276 H2262 0.960 . S
C2276 H2263 0.960 . S
C2276 C2275 1.524 . S
C2277 C2274 1.403 . S
C2277 C2278 1.392 . S
C2277 C2281 1.495 . S
C2278 C2277 1.392 . S
C2278 C2279 1.385 . S
C2278 C2280 1.478 . S
C2279 H2273 0.930 1_554 S
C2279 C2275 1.400 1_554 S
C2279 C2278 1.385 . S
C2280 C2278 1.478 . S
C2280 C2282 1.381 . S
C2280 C2286 1.383 . S
C2281 C2277 1.495 . S
C2281 H2287 0.959 . S
C2281 H2288 0.961 . S
C2281 H2289 0.960 . S
C2282 C2280 1.381 . S
C2282 C2283 1.394 . S
C2282 H2290 0.930 . S
C2283 C2282 1.394 . S
C2283 C2284 1.383 . S
C2283 H2291 0.929 . S
C2284 C2283 1.383 . S
C2284 C2285 1.377 1_565 S
C2285 H2269 0.930 . S
C2285 C2284 1.377 1_545 S
C2285 C2286 1.379 1_545 S
C2286 H2270 0.931 1_565 S
C2286 C2280 1.383 . S
C2286 C2285 1.379 1_565 S
H2287 C2281 0.959 . S
H2288 C2281 0.961 . S
H2289 C2281 0.960 . S
H2290 C2282 0.930 . S
H2291 C2283 0.929 . S
H2292 C2300 0.929 . S
H2293 C2302 0.930 . S
H2294 C2304 0.930 . S
H2295 C2307 0.929 . S
H2296 C2310 0.930 . S
H2297 C2312 0.960 . S
H2298 C2312 0.960 . S
H2299 C2312 0.960 . S
C2300 H2292 0.929 . S
C2300 C2301 1.377 . S
C2300 C2302 1.384 . S
C2301 C2300 1.377 . S
C2301 C2307 1.390 . S
C2302 H2293 0.930 . S
C2302 C2300 1.384 . S
C2302 C2303 1.372 . S
C2303 C2302 1.372 . S
C2303 C2304 1.400 . S
C2303 C2308 1.490 . S
C2304 H2294 0.930 . S
C2304 C2303 1.400 . S
C2304 C2307 1.386 . S
H2305 C2321 0.930 . S
H2306 C2322 0.931 . S
C2307 H2295 0.929 . S
C2307 C2301 1.390 . S
C2307 C2304 1.386 . S
C2308 C2303 1.490 . S
C2308 C2310 1.395 1_554 S
C2308 C2311 1.403 . S
H2309 C2315 0.930 . S
C2310 H2296 0.930 . S
C2310 C2308 1.395 1_556 S
C2310 C2313 1.403 . S
C2311 C2308 1.403 . S
C2311 C2312 1.524 . S
C2311 C2315 1.400 . S
C2312 H2297 0.960 . S
C2312 H2298 0.960 . S
C2312 H2299 0.960 . S
C2312 C2311 1.524 . S
C2313 C2310 1.403 . S
C2313 C2314 1.392 1_556 S
C2313 C2317 1.495 . S
C2314 C2313 1.392 1_554 S
C2314 C2315 1.385 . S
C2314 C2316 1.478 . S
C2315 H2309 0.930 . S
C2315 C2311 1.400 . S
C2315 C2314 1.385 . S
C2316 C2314 1.478 . S
C2316 C2318 1.381 . S
C2316 C2322 1.383 . S
C2317 C2313 1.495 . S
C2317 H2323 0.959 . S
C2317 H2324 0.961 . S
C2317 H2325 0.960 . S
C2318 C2316 1.381 . S
C2318 C2319 1.394 . S
C2318 H2326 0.930 . S
C2319 C2318 1.394 . S
C2319 C2320 1.383 . S
C2319 H2327 0.929 . S
C2320 C2319 1.383 . S
C2320 C2321 1.377 . S
C2321 H2305 0.930 . S
C2321 C2320 1.377 . S
C2321 C2322 1.379 . S
C2322 H2306 0.931 . S
C2322 C2316 1.383 . S
C2322 C2321 1.379 . S
H2323 C2317 0.959 . S
H2324 C2317 0.961 . S
H2325 C2317 0.960 . S
H2326 C2318 0.930 . S
H2327 C2319 0.929 . S
H2328 C2336 0.929 . S
H2329 C2338 0.930 . S
H2330 C2340 0.930 . S
H2331 C2343 0.929 . S
H2332 C2346 0.930 . S
H2333 C2348 0.960 . S
H2334 C2348 0.960 . S
H2335 C2348 0.960 . S
C2336 H2328 0.929 . S
C2336 C2337 1.377 . S
C2336 C2338 1.384 . S
C2337 C2336 1.377 . S
C2337 C2343 1.390 . S
C2338 H2329 0.930 . S
C2338 C2336 1.384 . S
C2338 C2339 1.372 . S
C2339 C2338 1.372 . S
C2339 C2340 1.400 . S
C2339 C2344 1.490 . S
C2340 H2330 0.930 . S
C2340 C2339 1.400 . S
C2340 C2343 1.386 . S
H2341 C2357 0.930 . S
H2342 C2358 0.931 . S
C2343 H2331 0.929 . S
C2343 C2337 1.390 . S
C2343 C2340 1.386 . S
C2344 C2339 1.490 . S
C2344 C2346 1.395 . S
C2344 C2347 1.403 . S
H2345 C2351 0.930 . S
C2346 H2332 0.930 . S
C2346 C2344 1.395 . S
C2346 C2349 1.403 . S
C2347 C2344 1.403 . S
C2347 C2348 1.524 . S
C2347 C2351 1.400 . S
C2348 H2333 0.960 . S
C2348 H2334 0.960 . S
C2348 H2335 0.960 . S
C2348 C2347 1.524 . S
C2349 C2346 1.403 . S
C2349 C2350 1.392 . S
C2349 C2353 1.495 . S
C2350 C2349 1.392 . S
C2350 C2351 1.385 . S
C2350 C2352 1.478 . S
C2351 H2345 0.930 . S
C2351 C2347 1.400 . S
C2351 C2350 1.385 . S
C2352 C2350 1.478 . S
C2352 C2354 1.381 . S
C2352 C2358 1.383 . S
C2353 C2349 1.495 . S
C2353 H2359 0.959 . S
C2353 H2360 0.961 . S
C2353 H2361 0.960 . S
C2354 C2352 1.381 . S
C2354 C2355 1.394 . S
C2354 H2362 0.930 . S
C2355 C2354 1.394 . S
C2355 C2356 1.383 . S
C2355 H2363 0.929 . S
C2356 C2355 1.383 . S
C2356 C2357 1.377 . S
C2357 H2341 0.930 . S
C2357 C2356 1.377 . S
C2357 C2358 1.379 . S
C2358 H2342 0.931 . S
C2358 C2352 1.383 . S
C2358 C2357 1.379 . S
H2359 C2353 0.959 . S
H2360 C2353 0.961 . S
H2361 C2353 0.960 . S
H2362 C2354 0.930 . S
H2363 C2355 0.929 . S
H2364 C2372 0.929 . S
H2365 C2374 0.930 . S
H2366 C2376 0.930 . S
H2367 C2379 0.929 . S
H2368 C2382 0.930 . S
H2369 C2384 0.960 . S
H2370 C2384 0.960 . S
H2371 C2384 0.960 . S
C2372 H2364 0.929 . S
C2372 C2373 1.377 . S
C2372 C2374 1.384 . S
C2373 C2372 1.377 . S
C2373 C2379 1.390 . S
C2374 H2365 0.930 . S
C2374 C2372 1.384 . S
C2374 C2375 1.372 . S
C2375 C2374 1.372 . S
C2375 C2376 1.400 . S
C2375 C2380 1.490 . S
C2376 H2366 0.930 . S
C2376 C2375 1.400 . S
C2376 C2379 1.386 . S
H2377 C2393 0.930 . S
H2378 C2394 0.931 . S
C2379 H2367 0.929 . S
C2379 C2373 1.390 . S
C2379 C2376 1.386 . S
C2380 C2375 1.490 . S
C2380 C2382 1.395 . S
C2380 C2383 1.403 . S
H2381 C2387 0.930 . S
C2382 H2368 0.930 . S
C2382 C2380 1.395 . S
C2382 C2385 1.403 . S
C2383 C2380 1.403 . S
C2383 C2384 1.524 . S
C2383 C2387 1.400 . S
C2384 H2369 0.960 . S
C2384 H2370 0.960 . S
C2384 H2371 0.960 . S
C2384 C2383 1.524 . S
C2385 C2382 1.403 . S
C2385 C2386 1.392 . S
C2385 C2389 1.495 . S
C2386 C2385 1.392 . S
C2386 C2387 1.385 . S
C2386 C2388 1.478 . S
C2387 H2381 0.930 . S
C2387 C2383 1.400 . S
C2387 C2386 1.385 . S
C2388 C2386 1.478 . S
C2388 C2390 1.381 . S
C2388 C2394 1.383 . S
C2389 C2385 1.495 . S
C2389 H2395 0.959 . S
C2389 H2396 0.961 . S
C2389 H2397 0.960 . S
C2390 C2388 1.381 . S
C2390 C2391 1.394 . S
C2390 H2398 0.930 . S
C2391 C2390 1.394 . S
C2391 C2392 1.383 . S
C2391 H2399 0.929 . S
C2392 C2391 1.383 . S
C2392 C2393 1.377 . S
C2393 H2377 0.930 . S
C2393 C2392 1.377 . S
C2393 C2394 1.379 . S
C2394 H2378 0.931 . S
C2394 C2388 1.383 . S
C2394 C2393 1.379 . S
H2395 C2389 0.959 . S
H2396 C2389 0.961 . S
H2397 C2389 0.960 . S
H2398 C2390 0.930 . S
H2399 C2391 0.929 . S
H2400 C2408 0.929 . S
H2401 C2410 0.930 . S
H2402 C2412 0.930 . S
H2403 C2415 0.929 . S
H2404 C2418 0.930 . S
H2405 C2420 0.960 . S
H2406 C2420 0.960 . S
H2407 C2420 0.960 . S
C2408 H2400 0.929 . S
C2408 C2409 1.377 . S
C2408 C2410 1.384 . S
C2409 C2408 1.377 . S
C2409 C2415 1.390 . S
C2410 H2401 0.930 . S
C2410 C2408 1.384 . S
C2410 C2411 1.372 . S
C2411 C2410 1.372 . S
C2411 C2412 1.400 . S
C2411 C2416 1.490 . S
C2412 H2402 0.930 . S
C2412 C2411 1.400 . S
C2412 C2415 1.386 . S
H2413 C2429 0.930 . S
H2414 C2430 0.931 . S
C2415 H2403 0.929 . S
C2415 C2409 1.390 . S
C2415 C2412 1.386 . S
C2416 C2411 1.490 . S
C2416 C2418 1.395 . S
C2416 C2419 1.403 . S
H2417 C2423 0.930 . S
C2418 H2404 0.930 . S
C2418 C2416 1.395 . S
C2418 C2421 1.403 . S
C2419 C2416 1.403 . S
C2419 C2420 1.524 . S
C2419 C2423 1.400 . S
C2420 H2405 0.960 . S
C2420 H2406 0.960 . S
C2420 H2407 0.960 . S
C2420 C2419 1.524 . S
C2421 C2418 1.403 . S
C2421 C2422 1.392 . S
C2421 C2425 1.495 . S
C2422 C2421 1.392 . S
C2422 C2423 1.385 . S
C2422 C2424 1.478 . S
C2423 H2417 0.930 . S
C2423 C2419 1.400 . S
C2423 C2422 1.385 . S
C2424 C2422 1.478 . S
C2424 C2426 1.381 . S
C2424 C2430 1.383 . S
C2425 C2421 1.495 . S
C2425 H2431 0.959 . S
C2425 H2432 0.961 . S
C2425 H2433 0.960 . S
C2426 C2424 1.381 . S
C2426 C2427 1.394 . S
C2426 H2434 0.930 . S
C2427 C2426 1.394 . S
C2427 C2428 1.383 . S
C2427 H2435 0.929 . S
C2428 C2427 1.383 . S
C2428 C2429 1.377 . S
C2429 H2413 0.930 . S
C2429 C2428 1.377 . S
C2429 C2430 1.379 . S
C2430 H2414 0.931 . S
C2430 C2424 1.383 . S
C2430 C2429 1.379 . S
H2431 C2425 0.959 . S
H2432 C2425 0.961 . S
H2433 C2425 0.960 . S
H2434 C2426 0.930 . S
H2435 C2427 0.929 . S
H2436 C2444 0.929 . S
H2437 C2446 0.930 . S
H2438 C2448 0.930 . S
H2439 C2451 0.929 . S
H2440 C2454 0.930 . S
H2441 C2456 0.960 . S
H2442 C2456 0.960 . S
H2443 C2456 0.960 . S
C2444 H2436 0.929 . S
C2444 C2445 1.377 . S
C2444 C2446 1.384 . S
C2445 C2444 1.377 . S
C2445 C2451 1.390 . S
C2446 H2437 0.930 . S
C2446 C2444 1.384 . S
C2446 C2447 1.372 . S
C2447 C2446 1.372 . S
C2447 C2448 1.400 . S
C2447 C2452 1.490 . S
C2448 H2438 0.930 . S
C2448 C2447 1.400 . S
C2448 C2451 1.386 . S
H2449 C2465 0.930 . S
H2450 C2466 0.931 . S
C2451 H2439 0.929 . S
C2451 C2445 1.390 . S
C2451 C2448 1.386 . S
C2452 C2447 1.490 . S
C2452 C2454 1.395 . S
C2452 C2455 1.403 . S
H2453 C2459 0.930 . S
C2454 H2440 0.930 . S
C2454 C2452 1.395 . S
C2454 C2457 1.403 . S
C2455 C2452 1.403 . S
C2455 C2456 1.524 . S
C2455 C2459 1.400 . S
C2456 H2441 0.960 . S
C2456 H2442 0.960 . S
C2456 H2443 0.960 . S
C2456 C2455 1.524 . S
C2457 C2454 1.403 . S
C2457 C2458 1.392 . S
C2457 C2461 1.495 . S
C2458 C2457 1.392 . S
C2458 C2459 1.385 . S
C2458 C2460 1.478 . S
C2459 H2453 0.930 . S
C2459 C2455 1.400 . S
C2459 C2458 1.385 . S
C2460 C2458 1.478 . S
C2460 C2462 1.381 . S
C2460 C2466 1.383 . S
C2461 C2457 1.495 . S
C2461 H2467 0.959 . S
C2461 H2468 0.961 . S
C2461 H2469 0.960 . S
C2462 C2460 1.381 . S
C2462 C2463 1.394 . S
C2462 H2470 0.930 . S
C2463 C2462 1.394 . S
C2463 C2464 1.383 . S
C2463 H2471 0.929 . S
C2464 C2463 1.383 . S
C2464 C2465 1.377 . S
C2465 H2449 0.930 . S
C2465 C2464 1.377 . S
C2465 C2466 1.379 . S
C2466 H2450 0.931 . S
C2466 C2460 1.383 . S
C2466 C2465 1.379 . S
H2467 C2461 0.959 . S
H2468 C2461 0.961 . S
H2469 C2461 0.960 . S
H2470 C2462 0.930 . S
H2471 C2463 0.929 . S
H2472 C2480 0.929 . S
H2473 C2482 0.930 . S
H2474 C2484 0.930 . S
H2475 C2487 0.929 . S
H2476 C2490 0.930 . S
H2477 C2492 0.960 . S
H2478 C2492 0.960 . S
H2479 C2492 0.960 . S
C2480 H2472 0.929 . S
C2480 C2481 1.377 . S
C2480 C2482 1.384 . S
C2481 C2480 1.377 . S
C2481 C2487 1.390 . S
C2482 H2473 0.930 . S
C2482 C2480 1.384 . S
C2482 C2483 1.372 . S
C2483 C2482 1.372 . S
C2483 C2484 1.400 . S
C2483 C2488 1.490 . S
C2484 H2474 0.930 . S
C2484 C2483 1.400 . S
C2484 C2487 1.386 . S
H2485 C2501 0.930 . S
H2486 C2502 0.931 . S
C2487 H2475 0.929 . S
C2487 C2481 1.390 . S
C2487 C2484 1.386 . S
C2488 C2483 1.490 . S
C2488 C2490 1.395 . S
C2488 C2491 1.403 . S
H2489 C2495 0.930 . S
C2490 H2476 0.930 . S
C2490 C2488 1.395 . S
C2490 C2493 1.403 . S
C2491 C2488 1.403 . S
C2491 C2492 1.524 . S
C2491 C2495 1.400 . S
C2492 H2477 0.960 . S
C2492 H2478 0.960 . S
C2492 H2479 0.960 . S
C2492 C2491 1.524 . S
C2493 C2490 1.403 . S
C2493 C2494 1.392 . S
C2493 C2497 1.495 . S
C2494 C2493 1.392 . S
C2494 C2495 1.385 . S
C2494 C2496 1.478 . S
C2495 H2489 0.930 . S
C2495 C2491 1.400 . S
C2495 C2494 1.385 . S
C2496 C2494 1.478 . S
C2496 C2498 1.381 . S
C2496 C2502 1.383 . S
C2497 C2493 1.495 . S
C2497 H2503 0.959 . S
C2497 H2504 0.961 . S
C2497 H2505 0.960 . S
C2498 C2496 1.381 . S
C2498 C2499 1.394 . S
C2498 H2506 0.930 . S
C2499 C2498 1.394 . S
C2499 C2500 1.383 . S
C2499 H2507 0.929 . S
C2500 C2499 1.383 . S
C2500 C2501 1.377 . S
C2501 H2485 0.930 . S
C2501 C2500 1.377 . S
C2501 C2502 1.379 . S
C2502 H2486 0.931 . S
C2502 C2496 1.383 . S
C2502 C2501 1.379 . S
H2503 C2497 0.959 . S
H2504 C2497 0.961 . S
H2505 C2497 0.960 . S
H2506 C2498 0.930 . S
H2507 C2499 0.929 . S
H2508 C2516 0.929 . S
H2509 C2518 0.930 . S
H2510 C2520 0.930 . S
H2511 C2523 0.929 . S
H2512 C2526 0.930 . S
H2513 C2528 0.960 . S
H2514 C2528 0.960 . S
H2515 C2528 0.960 . S
C2516 H2508 0.929 . S
C2516 C2517 1.377 . S
C2516 C2518 1.384 . S
C2517 C2516 1.377 . S
C2517 C2523 1.390 . S
C2518 H2509 0.930 . S
C2518 C2516 1.384 . S
C2518 C2519 1.372 . S
C2519 C2518 1.372 . S
C2519 C2520 1.400 . S
C2519 C2524 1.490 . S
C2520 H2510 0.930 . S
C2520 C2519 1.400 . S
C2520 C2523 1.386 . S
H2521 C2537 0.930 . S
H2522 C2538 0.931 . S
C2523 H2511 0.929 . S
C2523 C2517 1.390 . S
C2523 C2520 1.386 . S
C2524 C2519 1.490 . S
C2524 C2526 1.395 . S
C2524 C2527 1.403 . S
H2525 C2531 0.930 . S
C2526 H2512 0.930 . S
C2526 C2524 1.395 . S
C2526 C2529 1.403 . S
C2527 C2524 1.403 . S
C2527 C2528 1.524 . S
C2527 C2531 1.400 . S
C2528 H2513 0.960 . S
C2528 H2514 0.960 . S
C2528 H2515 0.960 . S
C2528 C2527 1.524 . S
C2529 C2526 1.403 . S
C2529 C2530 1.392 . S
C2529 C2533 1.495 . S
C2530 C2529 1.392 . S
C2530 C2531 1.385 . S
C2530 C2532 1.478 . S
C2531 H2525 0.930 . S
C2531 C2527 1.400 . S
C2531 C2530 1.385 . S
C2532 C2530 1.478 . S
C2532 C2534 1.381 . S
C2532 C2538 1.383 . S
C2533 C2529 1.495 . S
C2533 H2539 0.959 . S
C2533 H2540 0.961 . S
C2533 H2541 0.960 . S
C2534 C2532 1.381 . S
C2534 C2535 1.394 . S
C2534 H2542 0.930 . S
C2535 C2534 1.394 . S
C2535 C2536 1.383 . S
C2535 H2543 0.929 . S
C2536 C2535 1.383 . S
C2536 C2537 1.377 . S
C2537 H2521 0.930 . S
C2537 C2536 1.377 . S
C2537 C2538 1.379 . S
C2538 H2522 0.931 . S
C2538 C2532 1.383 . S
C2538 C2537 1.379 . S
H2539 C2533 0.959 . S
H2540 C2533 0.961 . S
H2541 C2533 0.960 . S
H2542 C2534 0.930 . S
H2543 C2535 0.929 . S
H2544 C2552 0.929 . S
H2545 C2554 0.930 . S
H2546 C2556 0.930 . S
H2547 C2559 0.929 . S
H2548 C2562 0.930 . S
H2549 C2564 0.960 . S
H2550 C2564 0.960 . S
H2551 C2564 0.960 . S
C2552 H2544 0.929 . S
C2552 C2553 1.377 . S
C2552 C2554 1.384 . S
C2553 C2552 1.377 . S
C2553 C2559 1.390 . S
C2554 H2545 0.930 . S
C2554 C2552 1.384 . S
C2554 C2555 1.372 . S
C2555 C2554 1.372 . S
C2555 C2556 1.400 . S
C2555 C2560 1.490 . S
C2556 H2546 0.930 . S
C2556 C2555 1.400 . S
C2556 C2559 1.386 . S
H2557 C2573 0.930 . S
H2558 C2574 0.931 . S
C2559 H2547 0.929 . S
C2559 C2553 1.390 . S
C2559 C2556 1.386 . S
C2560 C2555 1.490 . S
C2560 C2562 1.395 . S
C2560 C2563 1.403 . S
H2561 C2567 0.930 . S
C2562 H2548 0.930 . S
C2562 C2560 1.395 . S
C2562 C2565 1.403 . S
C2563 C2560 1.403 . S
C2563 C2564 1.524 . S
C2563 C2567 1.400 . S
C2564 H2549 0.960 . S
C2564 H2550 0.960 . S
C2564 H2551 0.960 . S
C2564 C2563 1.524 . S
C2565 C2562 1.403 . S
C2565 C2566 1.392 . S
C2565 C2569 1.495 . S
C2566 C2565 1.392 . S
C2566 C2567 1.385 . S
C2566 C2568 1.478 . S
C2567 H2561 0.930 . S
C2567 C2563 1.400 . S
C2567 C2566 1.385 . S
C2568 C2566 1.478 . S
C2568 C2570 1.381 . S
C2568 C2574 1.383 . S
C2569 C2565 1.495 . S
C2569 H2575 0.959 . S
C2569 H2576 0.961 . S
C2569 H2577 0.960 . S
C2570 C2568 1.381 . S
C2570 C2571 1.394 . S
C2570 H2578 0.930 . S
C2571 C2570 1.394 . S
C2571 C2572 1.383 . S
C2571 H2579 0.929 . S
C2572 C2571 1.383 . S
C2572 C2573 1.377 . S
C2573 H2557 0.930 . S
C2573 C2572 1.377 . S
C2573 C2574 1.379 . S
C2574 H2558 0.931 . S
C2574 C2568 1.383 . S
C2574 C2573 1.379 . S
H2575 C2569 0.959 . S
H2576 C2569 0.961 . S
H2577 C2569 0.960 . S
H2578 C2570 0.930 . S
H2579 C2571 0.929 . S
H2580 C2588 0.929 . S
H2581 C2590 0.930 . S
H2582 C2592 0.930 . S
H2583 C2595 0.929 . S
H2584 C2598 0.930 . S
H2585 C2600 0.960 . S
H2586 C2600 0.960 . S
H2587 C2600 0.960 . S
C2588 H2580 0.929 . S
C2588 C2589 1.377 . S
C2588 C2590 1.384 . S
C2589 C2588 1.377 . S
C2589 C2595 1.390 . S
C2590 H2581 0.930 . S
C2590 C2588 1.384 . S
C2590 C2591 1.372 . S
C2591 C2590 1.372 . S
C2591 C2592 1.400 . S
C2591 C2596 1.490 . S
C2592 H2582 0.930 . S
C2592 C2591 1.400 . S
C2592 C2595 1.386 . S
H2593 C2609 0.930 . S
H2594 C2610 0.931 . S
C2595 H2583 0.929 . S
C2595 C2589 1.390 . S
C2595 C2592 1.386 . S
C2596 C2591 1.490 . S
C2596 C2598 1.395 . S
C2596 C2599 1.403 . S
H2597 C2603 0.930 . S
C2598 H2584 0.930 . S
C2598 C2596 1.395 . S
C2598 C2601 1.403 . S
C2599 C2596 1.403 . S
C2599 C2600 1.524 . S
C2599 C2603 1.400 . S
C2600 H2585 0.960 . S
C2600 H2586 0.960 . S
C2600 H2587 0.960 . S
C2600 C2599 1.524 . S
C2601 C2598 1.403 . S
C2601 C2602 1.392 . S
C2601 C2605 1.495 . S
C2602 C2601 1.392 . S
C2602 C2603 1.385 . S
C2602 C2604 1.478 . S
C2603 H2597 0.930 . S
C2603 C2599 1.400 . S
C2603 C2602 1.385 . S
C2604 C2602 1.478 . S
C2604 C2606 1.381 . S
C2604 C2610 1.383 . S
C2605 C2601 1.495 . S
C2605 H2611 0.959 . S
C2605 H2612 0.961 . S
C2605 H2613 0.960 . S
C2606 C2604 1.381 . S
C2606 C2607 1.394 . S
C2606 H2614 0.930 . S
C2607 C2606 1.394 . S
C2607 C2608 1.383 . S
C2607 H2615 0.929 . S
C2608 C2607 1.383 . S
C2608 C2609 1.377 . S
C2609 H2593 0.930 . S
C2609 C2608 1.377 . S
C2609 C2610 1.379 . S
C2610 H2594 0.931 . S
C2610 C2604 1.383 . S
C2610 C2609 1.379 . S
H2611 C2605 0.959 . S
H2612 C2605 0.961 . S
H2613 C2605 0.960 . S
H2614 C2606 0.930 . S
H2615 C2607 0.929 . S
H2616 C2624 0.929 . S
H2617 C2626 0.930 . S
H2618 C2628 0.930 . S
H2619 C2631 0.929 . S
H2620 C2634 0.930 . S
H2621 C2636 0.960 . S
H2622 C2636 0.960 . S
H2623 C2636 0.960 . S
C2624 H2616 0.929 . S
C2624 C2625 1.377 . S
C2624 C2626 1.384 . S
C2625 C2624 1.377 . S
C2625 C2631 1.390 . S
C2626 H2617 0.930 . S
C2626 C2624 1.384 . S
C2626 C2627 1.372 . S
C2627 C2626 1.372 . S
C2627 C2628 1.400 . S
C2627 C2632 1.490 . S
C2628 H2618 0.930 . S
C2628 C2627 1.400 . S
C2628 C2631 1.386 . S
H2629 C2645 0.930 . S
H2630 C2646 0.931 . S
C2631 H2619 0.929 . S
C2631 C2625 1.390 . S
C2631 C2628 1.386 . S
C2632 C2627 1.490 . S
C2632 C2634 1.395 . S
C2632 C2635 1.403 . S
H2633 C2639 0.930 . S
C2634 H2620 0.930 . S
C2634 C2632 1.395 . S
C2634 C2637 1.403 . S
C2635 C2632 1.403 . S
C2635 C2636 1.524 . S
C2635 C2639 1.400 . S
C2636 H2621 0.960 . S
C2636 H2622 0.960 . S
C2636 H2623 0.960 . S
C2636 C2635 1.524 . S
C2637 C2634 1.403 . S
C2637 C2638 1.392 . S
C2637 C2641 1.495 . S
C2638 C2637 1.392 . S
C2638 C2639 1.385 . S
C2638 C2640 1.478 . S
C2639 H2633 0.930 . S
C2639 C2635 1.400 . S
C2639 C2638 1.385 . S
C2640 C2638 1.478 . S
C2640 C2642 1.381 . S
C2640 C2646 1.383 . S
C2641 C2637 1.495 . S
C2641 H2647 0.959 . S
C2641 H2648 0.961 . S
C2641 H2649 0.960 . S
C2642 C2640 1.381 . S
C2642 C2643 1.394 . S
C2642 H2650 0.930 . S
C2643 C2642 1.394 . S
C2643 C2644 1.383 . S
C2643 H2651 0.929 . S
C2644 C2643 1.383 . S
C2644 C2645 1.377 . S
C2645 H2629 0.930 . S
C2645 C2644 1.377 . S
C2645 C2646 1.379 . S
C2646 H2630 0.931 . S
C2646 C2640 1.383 . S
C2646 C2645 1.379 . S
H2647 C2641 0.959 . S
H2648 C2641 0.961 . S
H2649 C2641 0.960 . S
H2650 C2642 0.930 . S
H2651 C2643 0.929 . S
H2652 C2660 0.929 . S
H2653 C2662 0.930 . S
H2654 C2664 0.930 . S
H2655 C2667 0.929 . S
H2656 C2670 0.930 . S
H2657 C2672 0.960 . S
H2658 C2672 0.960 . S
H2659 C2672 0.960 . S
C2660 H2652 0.929 . S
C2660 C2661 1.377 . S
C2660 C2662 1.384 . S
C2661 C2660 1.377 . S
C2661 C2667 1.390 . S
C2662 H2653 0.930 . S
C2662 C2660 1.384 . S
C2662 C2663 1.372 . S
C2663 C2662 1.372 . S
C2663 C2664 1.400 . S
C2663 C2668 1.490 . S
C2664 H2654 0.930 . S
C2664 C2663 1.400 . S
C2664 C2667 1.386 . S
H2665 C2681 0.930 . S
H2666 C2682 0.931 . S
C2667 H2655 0.929 . S
C2667 C2661 1.390 . S
C2667 C2664 1.386 . S
C2668 C2663 1.490 . S
C2668 C2670 1.395 . S
C2668 C2671 1.403 . S
H2669 C2675 0.930 . S
C2670 H2656 0.930 . S
C2670 C2668 1.395 . S
C2670 C2673 1.403 . S
C2671 C2668 1.403 . S
C2671 C2672 1.524 . S
C2671 C2675 1.400 . S
C2672 H2657 0.960 . S
C2672 H2658 0.960 . S
C2672 H2659 0.960 . S
C2672 C2671 1.524 . S
C2673 C2670 1.403 . S
C2673 C2674 1.392 . S
C2673 C2677 1.495 . S
C2674 C2673 1.392 . S
C2674 C2675 1.385 . S
C2674 C2676 1.478 . S
C2675 H2669 0.930 . S
C2675 C2671 1.400 . S
C2675 C2674 1.385 . S
C2676 C2674 1.478 . S
C2676 C2678 1.381 . S
C2676 C2682 1.383 . S
C2677 C2673 1.495 . S
C2677 H2683 0.959 . S
C2677 H2684 0.961 . S
C2677 H2685 0.960 . S
C2678 C2676 1.381 . S
C2678 C2679 1.394 . S
C2678 H2686 0.930 . S
C2679 C2678 1.394 . S
C2679 C2680 1.383 . S
C2679 H2687 0.929 . S
C2680 C2679 1.383 . S
C2680 C2681 1.377 . S
C2681 H2665 0.930 . S
C2681 C2680 1.377 . S
C2681 C2682 1.379 . S
C2682 H2666 0.931 . S
C2682 C2676 1.383 . S
C2682 C2681 1.379 . S
H2683 C2677 0.959 . S
H2684 C2677 0.961 . S
H2685 C2677 0.960 . S
H2686 C2678 0.930 . S
H2687 C2679 0.929 . S
H2688 C2696 0.929 . S
H2689 C2698 0.930 . S
H2690 C2700 0.930 . S
H2691 C2703 0.929 . S
H2692 C2706 0.930 . S
H2693 C2708 0.960 1_655 S
H2694 C2708 0.960 1_655 S
H2695 C2708 0.960 . S
C2696 H2688 0.929 . S
C2696 C2697 1.377 . S
C2696 C2698 1.384 . S
C2697 C2696 1.377 . S
C2697 C2703 1.390 . S
C2698 H2689 0.930 . S
C2698 C2696 1.384 . S
C2698 C2699 1.372 . S
C2699 C2698 1.372 . S
C2699 C2700 1.400 . S
C2699 C2704 1.490 . S
C2700 H2690 0.930 . S
C2700 C2699 1.400 . S
C2700 C2703 1.386 . S
H2701 C2717 0.930 . S
H2702 C2718 0.931 . S
C2703 H2691 0.929 . S
C2703 C2697 1.390 . S
C2703 C2700 1.386 . S
C2704 C2699 1.490 . S
C2704 C2706 1.395 . S
C2704 C2707 1.403 . S
H2705 C2711 0.930 . S
C2706 H2692 0.930 . S
C2706 C2704 1.395 . S
C2706 C2709 1.403 . S
C2707 C2704 1.403 . S
C2707 C2708 1.524 . S
C2707 C2711 1.400 . S
C2708 H2693 0.960 1_455 S
C2708 H2694 0.960 1_455 S
C2708 H2695 0.960 . S
C2708 C2707 1.524 . S
C2709 C2706 1.403 . S
C2709 C2710 1.392 . S
C2709 C2713 1.495 . S
C2710 C2709 1.392 . S
C2710 C2711 1.385 . S
C2710 C2712 1.478 . S
C2711 H2705 0.930 . S
C2711 C2707 1.400 . S
C2711 C2710 1.385 . S
C2712 C2710 1.478 . S
C2712 C2714 1.381 . S
C2712 C2718 1.383 . S
C2713 C2709 1.495 . S
C2713 H2719 0.959 . S
C2713 H2720 0.961 . S
C2713 H2721 0.960 . S
C2714 C2712 1.381 . S
C2714 C2715 1.394 . S
C2714 H2722 0.930 . S
C2715 C2714 1.394 . S
C2715 C2716 1.383 . S
C2715 H2723 0.929 . S
C2716 C2715 1.383 . S
C2716 C2717 1.377 . S
C2717 H2701 0.930 . S
C2717 C2716 1.377 . S
C2717 C2718 1.379 . S
C2718 H2702 0.931 . S
C2718 C2712 1.383 . S
C2718 C2717 1.379 . S
H2719 C2713 0.959 . S
H2720 C2713 0.961 . S
H2721 C2713 0.960 . S
H2722 C2714 0.930 . S
H2723 C2715 0.929 . S
H2724 C2732 0.929 . S
H2725 C2734 0.930 . S
H2726 C2736 0.930 . S
H2727 C2739 0.929 . S
H2728 C2742 0.930 . S
H2729 C2744 0.960 . S
H2730 C2744 0.960 . S
H2731 C2744 0.960 . S
C2732 H2724 0.929 . S
C2732 C2733 1.377 . S
C2732 C2734 1.384 . S
C2733 C2732 1.377 . S
C2733 C2739 1.390 . S
C2734 H2725 0.930 . S
C2734 C2732 1.384 . S
C2734 C2735 1.372 . S
C2735 C2734 1.372 . S
C2735 C2736 1.400 . S
C2735 C2740 1.490 . S
C2736 H2726 0.930 . S
C2736 C2735 1.400 . S
C2736 C2739 1.386 . S
H2737 C2753 0.930 . S
H2738 C2754 0.931 . S
C2739 H2727 0.929 . S
C2739 C2733 1.390 . S
C2739 C2736 1.386 . S
C2740 C2735 1.490 . S
C2740 C2742 1.395 . S
C2740 C2743 1.403 . S
H2741 C2747 0.930 . S
C2742 H2728 0.930 . S
C2742 C2740 1.395 . S
C2742 C2745 1.403 . S
C2743 C2740 1.403 . S
C2743 C2744 1.524 . S
C2743 C2747 1.400 . S
C2744 H2729 0.960 . S
C2744 H2730 0.960 . S
C2744 H2731 0.960 . S
C2744 C2743 1.524 . S
C2745 C2742 1.403 . S
C2745 C2746 1.392 . S
C2745 C2749 1.495 . S
C2746 C2745 1.392 . S
C2746 C2747 1.385 . S
C2746 C2748 1.478 . S
C2747 H2741 0.930 . S
C2747 C2743 1.400 . S
C2747 C2746 1.385 . S
C2748 C2746 1.478 . S
C2748 C2750 1.381 . S
C2748 C2754 1.383 . S
C2749 C2745 1.495 . S
C2749 H2755 0.959 . S
C2749 H2756 0.961 . S
C2749 H2757 0.960 . S
C2750 C2748 1.381 . S
C2750 C2751 1.394 . S
C2750 H2758 0.930 . S
C2751 C2750 1.394 . S
C2751 C2752 1.383 . S
C2751 H2759 0.929 . S
C2752 C2751 1.383 . S
C2752 C2753 1.377 . S
C2753 H2737 0.930 . S
C2753 C2752 1.377 . S
C2753 C2754 1.379 . S
C2754 H2738 0.931 . S
C2754 C2748 1.383 . S
C2754 C2753 1.379 . S
H2755 C2749 0.959 . S
H2756 C2749 0.961 . S
H2757 C2749 0.960 . S
H2758 C2750 0.930 . S
H2759 C2751 0.929 . S
H2760 C2768 0.929 . S
H2761 C2770 0.930 . S
H2762 C2772 0.930 . S
H2763 C2775 0.929 . S
H2764 C2778 0.930 . S
H2765 C2780 0.960 . S
H2766 C2780 0.960 . S
H2767 C2780 0.960 . S
C2768 H2760 0.929 . S
C2768 C2769 1.377 . S
C2768 C2770 1.384 . S
C2769 C2768 1.377 . S
C2769 C2775 1.390 . S
C2770 H2761 0.930 . S
C2770 C2768 1.384 . S
C2770 C2771 1.372 . S
C2771 C2770 1.372 . S
C2771 C2772 1.400 . S
C2771 C2776 1.490 . S
C2772 H2762 0.930 . S
C2772 C2771 1.400 . S
C2772 C2775 1.386 . S
H2773 C2789 0.930 . S
H2774 C2790 0.931 . S
C2775 H2763 0.929 . S
C2775 C2769 1.390 . S
C2775 C2772 1.386 . S
C2776 C2771 1.490 . S
C2776 C2778 1.395 . S
C2776 C2779 1.403 . S
H2777 C2783 0.930 . S
C2778 H2764 0.930 . S
C2778 C2776 1.395 . S
C2778 C2781 1.403 . S
C2779 C2776 1.403 . S
C2779 C2780 1.524 . S
C2779 C2783 1.400 . S
C2780 H2765 0.960 . S
C2780 H2766 0.960 . S
C2780 H2767 0.960 . S
C2780 C2779 1.524 . S
C2781 C2778 1.403 . S
C2781 C2782 1.392 . S
C2781 C2785 1.495 . S
C2782 C2781 1.392 . S
C2782 C2783 1.385 . S
C2782 C2784 1.478 . S
C2783 H2777 0.930 . S
C2783 C2779 1.400 . S
C2783 C2782 1.385 . S
C2784 C2782 1.478 . S
C2784 C2786 1.381 . S
C2784 C2790 1.383 . S
C2785 C2781 1.495 . S
C2785 H2791 0.959 . S
C2785 H2792 0.961 . S
C2785 H2793 0.960 . S
C2786 C2784 1.381 . S
C2786 C2787 1.394 . S
C2786 H2794 0.930 . S
C2787 C2786 1.394 . S
C2787 C2788 1.383 . S
C2787 H2795 0.929 . S
C2788 C2787 1.383 . S
C2788 C2789 1.377 . S
C2789 H2773 0.930 . S
C2789 C2788 1.377 . S
C2789 C2790 1.379 . S
C2790 H2774 0.931 . S
C2790 C2784 1.383 . S
C2790 C2789 1.379 . S
H2791 C2785 0.959 . S
H2792 C2785 0.961 . S
H2793 C2785 0.960 . S
H2794 C2786 0.930 . S
H2795 C2787 0.929 . S
H2796 C2804 0.929 . S
H2797 C2806 0.930 . S
H2798 C2808 0.930 . S
H2799 C2811 0.929 . S
H2800 C2814 0.930 . S
H2801 C2816 0.960 . S
H2802 C2816 0.960 . S
H2803 C2816 0.960 . S
C2804 H2796 0.929 . S
C2804 C2805 1.377 . S
C2804 C2806 1.384 . S
C2805 C2804 1.377 . S
C2805 C2811 1.390 . S
C2806 H2797 0.930 . S
C2806 C2804 1.384 . S
C2806 C2807 1.372 . S
C2807 C2806 1.372 . S
C2807 C2808 1.400 . S
C2807 C2812 1.490 . S
C2808 H2798 0.930 . S
C2808 C2807 1.400 . S
C2808 C2811 1.386 . S
H2809 C2825 0.930 . S
H2810 C2826 0.931 . S
C2811 H2799 0.929 . S
C2811 C2805 1.390 . S
C2811 C2808 1.386 . S
C2812 C2807 1.490 . S
C2812 C2814 1.395 . S
C2812 C2815 1.403 . S
H2813 C2819 0.930 . S
C2814 H2800 0.930 . S
C2814 C2812 1.395 . S
C2814 C2817 1.403 . S
C2815 C2812 1.403 . S
C2815 C2816 1.524 . S
C2815 C2819 1.400 . S
C2816 H2801 0.960 . S
C2816 H2802 0.960 . S
C2816 H2803 0.960 . S
C2816 C2815 1.524 . S
C2817 C2814 1.403 . S
C2817 C2818 1.392 . S
C2817 C2821 1.495 . S
C2818 C2817 1.392 . S
C2818 C2819 1.385 . S
C2818 C2820 1.478 . S
C2819 H2813 0.930 . S
C2819 C2815 1.400 . S
C2819 C2818 1.385 . S
C2820 C2818 1.478 . S
C2820 C2822 1.381 . S
C2820 C2826 1.383 . S
C2821 C2817 1.495 . S
C2821 H2827 0.959 . S
C2821 H2828 0.961 . S
C2821 H2829 0.960 . S
C2822 C2820 1.381 . S
C2822 C2823 1.394 . S
C2822 H2830 0.930 . S
C2823 C2822 1.394 . S
C2823 C2824 1.383 . S
C2823 H2831 0.929 . S
C2824 C2823 1.383 . S
C2824 C2825 1.377 . S
C2825 H2809 0.930 . S
C2825 C2824 1.377 . S
C2825 C2826 1.379 . S
C2826 H2810 0.931 . S
C2826 C2820 1.383 . S
C2826 C2825 1.379 . S
H2827 C2821 0.959 . S
H2828 C2821 0.961 . S
H2829 C2821 0.960 . S
H2830 C2822 0.930 . S
H2831 C2823 0.929 . S
H2832 C2840 0.929 . S
H2833 C2842 0.930 . S
H2834 C2844 0.930 . S
H2835 C2847 0.929 . S
H2836 C2850 0.959 . S
H2837 C2852 0.960 . S
H2838 C2852 0.960 . S
H2839 C2852 0.960 . S
C2840 H2832 0.929 . S
C2840 C2841 1.377 . S
C2840 C2842 1.384 . S
C2841 C2840 1.377 . S
C2841 C2847 1.390 . S
C2842 H2833 0.930 . S
C2842 C2840 1.384 . S
C2842 C2843 1.372 . S
C2843 C2842 1.372 . S
C2843 C2844 1.400 . S
C2843 C2848 1.490 . S
C2844 H2834 0.930 . S
C2844 C2843 1.400 . S
C2844 C2847 1.386 . S
H2845 C2861 0.930 . S
H2846 C2862 0.931 . S
C2847 H2835 0.929 . S
C2847 C2841 1.390 . S
C2847 C2844 1.386 . S
C2848 C2843 1.490 . S
C2848 C2850 1.395 . S
C2848 C2851 1.403 . S
H2849 C2855 0.930 . S
C2850 H2836 0.959 . S
C2850 C2848 1.395 . S
C2850 C2853 1.403 . S
C2851 C2848 1.403 . S
C2851 C2852 1.524 . S
C2851 C2855 1.400 . S
C2852 H2837 0.960 . S
C2852 H2838 0.960 . S
C2852 H2839 0.960 . S
C2852 C2851 1.524 . S
C2853 C2850 1.403 . S
C2853 C2854 1.392 . S
C2853 C2857 1.495 1_545 S
C2854 C2853 1.392 . S
C2854 C2855 1.385 . S
C2854 C2856 1.478 . S
C2855 H2849 0.930 . S
C2855 C2851 1.400 . S
C2855 C2854 1.385 . S
C2856 C2854 1.478 . S
C2856 C2858 1.381 . S
C2856 C2862 1.383 . S
C2857 C2853 1.495 1_565 S
C2857 H2863 0.959 . S
C2857 H2864 0.961 . S
C2857 H2865 0.960 . S
C2858 C2856 1.381 . S
C2858 C2859 1.394 . S
C2858 H2866 0.930 . S
C2859 C2858 1.394 . S
C2859 C2860 1.383 . S
C2859 H2867 0.929 . S
C2860 C2859 1.383 . S
C2860 C2861 1.377 . S
C2861 H2845 0.930 . S
C2861 C2860 1.377 . S
C2861 C2862 1.379 . S
C2862 H2846 0.931 . S
C2862 C2856 1.383 . S
C2862 C2861 1.379 . S
H2863 C2857 0.959 . S
H2864 C2857 0.961 . S
H2865 C2857 0.960 . S
H2866 C2858 0.930 . S
H2867 C2859 0.929 . S
H2868 C2876 0.929 . S
H2869 C2878 0.930 . S
H2870 C2880 0.930 . S
H2871 C2883 0.929 . S
H2872 C2886 0.930 . S
H2873 C2888 0.960 . S
H2874 C2888 0.960 . S
H2875 C2888 0.960 . S
C2876 H2868 0.929 . S
C2876 C2877 1.377 . S
C2876 C2878 1.384 . S
C2877 C2876 1.377 . S
C2877 C2883 1.390 . S
C2878 H2869 0.930 . S
C2878 C2876 1.384 . S
C2878 C2879 1.372 . S
C2879 C2878 1.372 . S
C2879 C2880 1.400 . S
C2879 C2884 1.490 . S
C2880 H2870 0.930 . S
C2880 C2879 1.400 . S
C2880 C2883 1.386 . S
H2881 C2897 0.930 . S
H2882 C2898 0.931 . S
C2883 H2871 0.929 . S
C2883 C2877 1.390 . S
C2883 C2880 1.386 . S
C2884 C2879 1.490 . S
C2884 C2886 1.395 . S
C2884 C2887 1.403 . S
H2885 C2891 0.930 . S
C2886 H2872 0.930 . S
C2886 C2884 1.395 . S
C2886 C2889 1.403 . S
C2887 C2884 1.403 . S
C2887 C2888 1.524 . S
C2887 C2891 1.400 . S
C2888 H2873 0.960 . S
C2888 H2874 0.960 . S
C2888 H2875 0.960 . S
C2888 C2887 1.524 . S
C2889 C2886 1.403 . S
C2889 C2890 1.392 . S
C2889 C2893 1.495 . S
C2890 C2889 1.392 . S
C2890 C2891 1.385 . S
C2890 C2892 1.478 . S
C2891 H2885 0.930 . S
C2891 C2887 1.400 . S
C2891 C2890 1.385 . S
C2892 C2890 1.478 . S
C2892 C2894 1.381 . S
C2892 C2898 1.383 . S
C2893 C2889 1.495 . S
C2893 H2899 0.959 . S
C2893 H2900 0.961 . S
C2893 H2901 0.960 . S
C2894 C2892 1.381 . S
C2894 C2895 1.394 . S
C2894 H2902 0.930 . S
C2895 C2894 1.394 . S
C2895 C2896 1.383 . S
C2895 H2903 0.929 . S
C2896 C2895 1.383 . S
C2896 C2897 1.377 . S
C2897 H2881 0.930 . S
C2897 C2896 1.377 . S
C2897 C2898 1.379 . S
C2898 H2882 0.931 . S
C2898 C2892 1.383 . S
C2898 C2897 1.379 . S
H2899 C2893 0.959 . S
H2900 C2893 0.961 . S
H2901 C2893 0.960 . S
H2902 C2894 0.930 . S
H2903 C2895 0.929 . S
H2904 C2912 0.929 . S
H2905 C2914 0.946 . S
H2906 C2916 0.930 . S
H2907 C2919 0.929 . S
H2908 C2922 0.930 . S
H2909 C2924 0.960 . S
H2910 C2924 0.919 1_565 S
H2911 C2924 0.960 . S
C2912 H2904 0.929 . S
C2912 C2913 1.377 1_565 S
C2912 C2914 1.381 . S
C2913 C2912 1.377 1_545 S
C2913 C2919 1.390 . S
C2914 H2905 0.946 . S
C2914 C2912 1.381 . S
C2914 C2915 1.359 1_565 S
C2915 C2914 1.359 1_545 S
C2915 C2916 1.400 . S
C2915 C2920 1.490 . S
C2916 H2906 0.930 . S
C2916 C2915 1.400 . S
C2916 C2919 1.386 . S
H2917 C2933 0.930 . S
H2918 C2934 0.931 . S
C2919 H2907 0.929 . S
C2919 C2913 1.390 . S
C2919 C2916 1.386 . S
C2920 C2915 1.490 . S
C2920 C2922 1.395 . S
C2920 C2923 1.403 . S
H2921 C2927 0.930 . S
C2922 H2908 0.930 . S
C2922 C2920 1.395 . S
C2922 C2925 1.403 . S
C2923 C2920 1.403 . S
C2923 C2924 1.524 . S
C2923 C2927 1.400 . S
C2924 H2909 0.960 . S
C2924 H2910 0.919 1_545 S
C2924 H2911 0.960 . S
C2924 C2923 1.524 . S
C2925 C2922 1.403 . S
C2925 C2926 1.392 . S
C2925 C2929 1.495 . S
C2926 C2925 1.392 . S
C2926 C2927 1.385 . S
C2926 C2928 1.478 . S
C2927 H2921 0.930 . S
C2927 C2923 1.400 . S
C2927 C2926 1.385 . S
C2928 C2926 1.478 . S
C2928 C2930 1.381 . S
C2928 C2934 1.383 . S
C2929 C2925 1.495 . S
C2929 H2935 0.959 . S
C2929 H2936 0.961 . S
C2929 H2937 0.960 . S
C2930 C2928 1.381 . S
C2930 C2931 1.394 . S
C2930 H2938 0.930 1_545 S
C2931 C2930 1.394 . S
C2931 C2932 1.383 . S
C2931 H2939 0.897 1_545 S
C2932 C2931 1.383 . S
C2932 C2933 1.377 . S
C2933 H2917 0.930 . S
C2933 C2932 1.377 . S
C2933 C2934 1.379 . S
C2934 H2918 0.931 . S
C2934 C2928 1.383 . S
C2934 C2933 1.379 . S
H2935 C2929 0.959 . S
H2936 C2929 0.961 . S
H2937 C2929 0.960 . S
H2938 C2930 0.930 1_565 S
H2939 C2931 0.897 1_565 S
H2940 C2948 0.929 . S
H2941 C2950 0.930 . S
H2942 C2952 0.930 . S
H2943 C2955 0.929 . S
H2944 C2958 0.930 . S
H2945 C2960 0.960 . S
H2946 C2960 0.960 . S
H2947 C2960 0.960 . S
C2948 H2940 0.929 . S
C2948 C2949 1.377 . S
C2948 C2950 1.384 . S
C2949 C2948 1.377 . S
C2949 C2955 1.390 . S
C2950 H2941 0.930 . S
C2950 C2948 1.384 . S
C2950 C2951 1.372 . S
C2951 C2950 1.372 . S
C2951 C2952 1.400 . S
C2951 C2956 1.490 . S
C2952 H2942 0.930 . S
C2952 C2951 1.400 . S
C2952 C2955 1.386 . S
H2953 C2969 0.930 . S
H2954 C2970 0.931 . S
C2955 H2943 0.929 . S
C2955 C2949 1.390 . S
C2955 C2952 1.386 . S
C2956 C2951 1.490 . S
C2956 C2958 1.395 . S
C2956 C2959 1.403 . S
H2957 C2963 0.930 . S
C2958 H2944 0.930 . S
C2958 C2956 1.395 . S
C2958 C2961 1.403 . S
C2959 C2956 1.403 . S
C2959 C2960 1.524 . S
C2959 C2963 1.400 . S
C2960 H2945 0.960 . S
C2960 H2946 0.960 . S
C2960 H2947 0.960 . S
C2960 C2959 1.524 . S
C2961 C2958 1.403 . S
C2961 C2962 1.392 . S
C2961 C2965 1.495 . S
C2962 C2961 1.392 . S
C2962 C2963 1.385 . S
C2962 C2964 1.478 . S
C2963 H2957 0.930 . S
C2963 C2959 1.400 . S
C2963 C2962 1.385 . S
C2964 C2962 1.478 . S
C2964 C2966 1.381 . S
C2964 C2970 1.383 . S
C2965 C2961 1.495 . S
C2965 H2971 0.959 . S
C2965 H2972 0.961 . S
C2965 H2973 0.960 . S
C2966 C2964 1.381 . S
C2966 C2967 1.394 . S
C2966 H2974 0.930 . S
C2967 C2966 1.394 . S
C2967 C2968 1.383 . S
C2967 H2975 0.929 . S
C2968 C2967 1.383 . S
C2968 C2969 1.377 . S
C2969 H2953 0.930 . S
C2969 C2968 1.377 . S
C2969 C2970 1.379 . S
C2970 H2954 0.931 . S
C2970 C2964 1.383 . S
C2970 C2969 1.379 . S
H2971 C2965 0.959 . S
H2972 C2965 0.961 . S
H2973 C2965 0.960 . S
H2974 C2966 0.930 . S
H2975 C2967 0.929 . S
H2976 C2984 0.929 . S
H2977 C2986 0.930 . S
H2978 C2988 0.930 . S
H2979 C2991 0.929 . S
H2980 C2994 0.930 . S
H2981 C2996 0.960 1_565 S
H2982 C2996 0.960 . S
H2983 C2996 0.960 1_565 S
C2984 H2976 0.929 . S
C2984 C2985 1.377 . S
C2984 C2986 1.384 . S
C2985 C2984 1.377 . S
C2985 C2991 1.390 . S
C2986 H2977 0.930 . S
C2986 C2984 1.384 . S
C2986 C2987 1.372 . S
C2987 C2986 1.372 . S
C2987 C2988 1.400 . S
C2987 C2992 1.490 . S
C2988 H2978 0.930 . S
C2988 C2987 1.400 . S
C2988 C2991 1.386 . S
H2989 C3005 0.930 . S
H2990 C3006 0.931 . S
C2991 H2979 0.929 . S
C2991 C2985 1.390 . S
C2991 C2988 1.386 . S
C2992 C2987 1.490 . S
C2992 C2994 1.395 . S
C2992 C2995 1.403 . S
H2993 C2999 0.930 . S
C2994 H2980 0.930 . S
C2994 C2992 1.395 . S
C2994 C2997 1.403 . S
C2995 C2992 1.403 . S
C2995 C2996 1.524 . S
C2995 C2999 1.400 . S
C2996 H2981 0.960 1_545 S
C2996 H2982 0.960 . S
C2996 H2983 0.960 1_545 S
C2996 C2995 1.524 . S
C2997 C2994 1.403 . S
C2997 C2998 1.392 . S
C2997 C3001 1.495 . S
C2998 C2997 1.392 . S
C2998 C2999 1.385 . S
C2998 C3000 1.478 . S
C2999 H2993 0.930 . S
C2999 C2995 1.400 . S
C2999 C2998 1.385 . S
C3000 C2998 1.478 . S
C3000 C3002 1.381 . S
C3000 C3006 1.383 . S
C3001 C2997 1.495 . S
C3001 H3007 0.959 . S
C3001 H3008 0.961 . S
C3001 H3009 0.960 . S
C3002 C3000 1.381 . S
C3002 C3003 1.394 . S
C3002 H3010 0.930 . S
C3003 C3002 1.394 . S
C3003 C3004 1.383 . S
C3003 H3011 0.929 . S
C3004 C3003 1.383 . S
C3004 C3005 1.377 . S
C3005 H2989 0.930 . S
C3005 C3004 1.377 . S
C3005 C3006 1.379 . S
C3006 H2990 0.931 . S
C3006 C3000 1.383 . S
C3006 C3005 1.379 . S
H3007 C3001 0.959 . S
H3008 C3001 0.961 . S
H3009 C3001 0.960 . S
H3010 C3002 0.930 . S
H3011 C3003 0.929 . S
H3012 C3020 0.929 . S
H3013 C3022 0.930 . S
H3014 C3024 0.930 . S
H3015 C3027 0.929 . S
H3016 C3030 0.930 . S
H3017 C3032 0.960 . S
H3018 C3032 0.960 . S
H3019 C3032 0.960 . S
C3020 H3012 0.929 . S
C3020 C3021 1.377 . S
C3020 C3022 1.384 . S
C3021 C3020 1.377 . S
C3021 C3027 1.390 . S
C3022 H3013 0.930 . S
C3022 C3020 1.384 . S
C3022 C3023 1.372 . S
C3023 C3022 1.372 . S
C3023 C3024 1.400 . S
C3023 C3028 1.490 . S
C3024 H3014 0.930 . S
C3024 C3023 1.400 . S
C3024 C3027 1.386 . S
H3025 C3041 0.930 . S
H3026 C3042 0.931 . S
C3027 H3015 0.929 . S
C3027 C3021 1.390 . S
C3027 C3024 1.386 . S
C3028 C3023 1.490 . S
C3028 C3030 1.395 . S
C3028 C3031 1.403 . S
H3029 C3035 0.930 . S
C3030 H3016 0.930 . S
C3030 C3028 1.395 . S
C3030 C3033 1.403 . S
C3031 C3028 1.403 . S
C3031 C3032 1.524 . S
C3031 C3035 1.400 . S
C3032 H3017 0.960 . S
C3032 H3018 0.960 . S
C3032 H3019 0.960 . S
C3032 C3031 1.524 . S
C3033 C3030 1.403 . S
C3033 C3034 1.392 . S
C3033 C3037 1.495 . S
C3034 C3033 1.392 . S
C3034 C3035 1.385 . S
C3034 C3036 1.478 . S
C3035 H3029 0.930 . S
C3035 C3031 1.400 . S
C3035 C3034 1.385 . S
C3036 C3034 1.478 . S
C3036 C3038 1.381 . S
C3036 C3042 1.383 . S
C3037 C3033 1.495 . S
C3037 H3043 0.959 . S
C3037 H3044 0.961 . S
C3037 H3045 0.960 . S
C3038 C3036 1.381 . S
C3038 C3039 1.394 . S
C3038 H3046 0.930 . S
C3039 C3038 1.394 . S
C3039 C3040 1.383 . S
C3039 H3047 0.929 . S
C3040 C3039 1.383 . S
C3040 C3041 1.377 . S
C3041 H3025 0.930 . S
C3041 C3040 1.377 . S
C3041 C3042 1.379 . S
C3042 H3026 0.931 . S
C3042 C3036 1.383 . S
C3042 C3041 1.379 . S
H3043 C3037 0.959 . S
H3044 C3037 0.961 . S
H3045 C3037 0.960 . S
H3046 C3038 0.930 . S
H3047 C3039 0.929 . S
H3048 C3056 0.926 1_565 S
H3049 C3058 0.930 1_565 S
H3050 C3060 0.930 . S
H3051 C3063 0.929 . S
H3052 C3066 0.930 . S
H3053 C3068 0.960 . S
H3054 C3068 0.960 . S
H3055 C3068 0.960 . S
C3056 H3048 0.926 1_545 S
C3056 C3057 1.380 . S
C3056 C3058 1.385 . S
C3057 C3056 1.380 . S
C3057 C3063 1.390 . S
C3058 H3049 0.930 1_545 S
C3058 C3056 1.385 . S
C3058 C3059 1.372 . S
C3059 C3058 1.372 . S
C3059 C3060 1.400 . S
C3059 C3064 1.490 . S
C3060 H3050 0.930 . S
C3060 C3059 1.400 . S
C3060 C3063 1.386 . S
H3061 C3077 0.930 . S
H3062 C3078 0.931 . S
C3063 H3051 0.929 . S
C3063 C3057 1.390 . S
C3063 C3060 1.386 . S
C3064 C3059 1.490 . S
C3064 C3066 1.395 . S
C3064 C3067 1.363 1_545 S
H3065 C3071 0.930 1_565 S
C3066 H3052 0.930 . S
C3066 C3064 1.395 . S
C3066 C3069 1.403 . S
C3067 C3064 1.363 1_565 S
C3067 C3068 1.572 . S
C3067 C3071 1.394 1_565 S
C3068 H3053 0.960 . S
C3068 H3054 0.960 . S
C3068 H3055 0.960 . S
C3068 C3067 1.572 . S
C3069 C3066 1.403 . S
C3069 C3070 1.392 . S
C3069 C3073 1.495 . S
C3070 C3069 1.392 . S
C3070 C3071 1.385 . S
C3070 C3072 1.478 . S
C3071 H3065 0.930 1_545 S
C3071 C3067 1.394 1_545 S
C3071 C3070 1.385 . S
C3072 C3070 1.478 . S
C3072 C3074 1.381 . S
C3072 C3078 1.383 . S
C3073 C3069 1.495 . S
C3073 H3079 0.959 . S
C3073 H3080 0.961 . S
C3073 H3081 0.960 . S
C3074 C3072 1.381 . S
C3074 C3075 1.394 . S
C3074 H3082 0.934 . S
C3075 C3074 1.394 . S
C3075 C3076 1.383 . S
C3075 H3083 0.931 1_545 S
C3076 C3075 1.383 . S
C3076 C3077 1.377 . S
C3077 H3061 0.930 . S
C3077 C3076 1.377 . S
C3077 C3078 1.379 . S
C3078 H3062 0.931 . S
C3078 C3072 1.383 . S
C3078 C3077 1.379 . S
H3079 C3073 0.959 . S
H3080 C3073 0.961 . S
H3081 C3073 0.960 . S
H3082 C3074 0.934 . S
H3083 C3075 0.931 1_565 S
H3084 C3092 0.929 . S
H3085 C3094 0.930 . S
H3086 C3096 0.930 . S
H3087 C3099 0.929 . S
H3088 C3102 0.930 . S
H3089 C3104 0.960 . S
H3090 C3104 0.960 . S
H3091 C3104 0.960 . S
C3092 H3084 0.929 . S
C3092 C3093 1.377 . S
C3092 C3094 1.384 . S
C3093 C3092 1.377 . S
C3093 C3099 1.390 . S
C3094 H3085 0.930 . S
C3094 C3092 1.384 . S
C3094 C3095 1.372 . S
C3095 C3094 1.372 . S
C3095 C3096 1.400 . S
C3095 C3100 1.490 . S
C3096 H3086 0.930 . S
C3096 C3095 1.400 . S
C3096 C3099 1.386 . S
H3097 C3113 0.930 . S
H3098 C3114 0.931 . S
C3099 H3087 0.929 . S
C3099 C3093 1.390 . S
C3099 C3096 1.386 . S
C3100 C3095 1.490 . S
C3100 C3102 1.395 . S
C3100 C3103 1.403 . S
H3101 C3107 0.930 . S
C3102 H3088 0.930 . S
C3102 C3100 1.395 . S
C3102 C3105 1.403 . S
C3103 C3100 1.403 . S
C3103 C3104 1.524 . S
C3103 C3107 1.400 . S
C3104 H3089 0.960 . S
C3104 H3090 0.960 . S
C3104 H3091 0.960 . S
C3104 C3103 1.524 . S
C3105 C3102 1.403 . S
C3105 C3106 1.392 . S
C3105 C3109 1.495 . S
C3106 C3105 1.392 . S
C3106 C3107 1.385 . S
C3106 C3108 1.478 . S
C3107 H3101 0.930 . S
C3107 C3103 1.400 . S
C3107 C3106 1.385 . S
C3108 C3106 1.478 . S
C3108 C3110 1.381 . S
C3108 C3114 1.383 . S
C3109 C3105 1.495 . S
C3109 H3115 0.959 . S
C3109 H3116 0.961 . S
C3109 H3117 0.960 . S
C3110 C3108 1.381 . S
C3110 C3111 1.394 . S
C3110 H3118 0.930 . S
C3111 C3110 1.394 . S
C3111 C3112 1.383 . S
C3111 H3119 0.929 . S
C3112 C3111 1.383 . S
C3112 C3113 1.377 . S
C3113 H3097 0.930 . S
C3113 C3112 1.377 . S
C3113 C3114 1.379 . S
C3114 H3098 0.931 . S
C3114 C3108 1.383 . S
C3114 C3113 1.379 . S
H3115 C3109 0.959 . S
H3116 C3109 0.961 . S
H3117 C3109 0.960 . S
H3118 C3110 0.930 . S
H3119 C3111 0.929 . S
H3120 C3128 0.929 . S
H3121 C3130 0.930 . S
H3122 C3132 0.930 . S
H3123 C3135 0.929 . S
H3124 C3138 0.930 . S
H3125 C3140 0.960 . S
H3126 C3140 0.960 . S
H3127 C3140 0.960 . S
C3128 H3120 0.929 . S
C3128 C3129 1.377 . S
C3128 C3130 1.384 . S
C3129 C3128 1.377 . S
C3129 C3135 1.390 . S
C3130 H3121 0.930 . S
C3130 C3128 1.384 . S
C3130 C3131 1.372 . S
C3131 C3130 1.372 . S
C3131 C3132 1.400 . S
C3131 C3136 1.490 . S
C3132 H3122 0.930 . S
C3132 C3131 1.400 . S
C3132 C3135 1.386 . S
H3133 C3149 0.930 . S
H3134 C3150 0.931 . S
C3135 H3123 0.929 . S
C3135 C3129 1.390 . S
C3135 C3132 1.386 . S
C3136 C3131 1.490 . S
C3136 C3138 1.395 . S
C3136 C3139 1.403 . S
H3137 C3143 0.930 . S
C3138 H3124 0.930 . S
C3138 C3136 1.395 . S
C3138 C3141 1.403 . S
C3139 C3136 1.403 . S
C3139 C3140 1.524 . S
C3139 C3143 1.400 . S
C3140 H3125 0.960 . S
C3140 H3126 0.960 . S
C3140 H3127 0.960 . S
C3140 C3139 1.524 . S
C3141 C3138 1.403 . S
C3141 C3142 1.392 . S
C3141 C3145 1.495 . S
C3142 C3141 1.392 . S
C3142 C3143 1.385 . S
C3142 C3144 1.478 . S
C3143 H3137 0.930 . S
C3143 C3139 1.400 . S
C3143 C3142 1.385 . S
C3144 C3142 1.478 . S
C3144 C3146 1.381 . S
C3144 C3150 1.383 . S
C3145 C3141 1.495 . S
C3145 H3151 0.959 . S
C3145 H3152 0.961 . S
C3145 H3153 0.960 1_554 S
C3146 C3144 1.381 . S
C3146 C3147 1.394 . S
C3146 H3154 0.930 1_554 S
C3147 C3146 1.394 . S
C3147 C3148 1.383 . S
C3147 H3155 0.929 1_554 S
C3148 C3147 1.383 . S
C3148 C3149 1.377 . S
C3149 H3133 0.930 . S
C3149 C3148 1.377 . S
C3149 C3150 1.379 . S
C3150 H3134 0.931 . S
C3150 C3144 1.383 . S
C3150 C3149 1.379 . S
H3151 C3145 0.959 . S
H3152 C3145 0.961 . S
H3153 C3145 0.960 1_556 S
H3154 C3146 0.930 1_556 S
H3155 C3147 0.929 1_556 S
H3156 C3164 0.929 . S
H3157 C3166 0.930 . S
H3158 C3168 0.930 . S
H3159 C3171 0.929 . S
H3160 C3174 0.930 . S
H3161 C3176 0.960 . S
H3162 C3176 0.960 . S
H3163 C3176 0.960 . S
C3164 H3156 0.929 . S
C3164 C3165 1.377 . S
C3164 C3166 1.384 . S
C3165 C3164 1.377 . S
C3165 C3171 1.390 . S
C3166 H3157 0.930 . S
C3166 C3164 1.384 . S
C3166 C3167 1.372 . S
C3167 C3166 1.372 . S
C3167 C3168 1.400 . S
C3167 C3172 1.490 . S
C3168 H3158 0.930 . S
C3168 C3167 1.400 . S
C3168 C3171 1.386 . S
H3169 C3185 0.930 . S
H3170 C3186 0.931 . S
C3171 H3159 0.929 . S
C3171 C3165 1.390 . S
C3171 C3168 1.386 . S
C3172 C3167 1.490 . S
C3172 C3174 1.395 . S
C3172 C3175 1.403 . S
H3173 C3179 0.930 . S
C3174 H3160 0.930 . S
C3174 C3172 1.395 . S
C3174 C3177 1.403 . S
C3175 C3172 1.403 . S
C3175 C3176 1.524 . S
C3175 C3179 1.400 . S
C3176 H3161 0.960 . S
C3176 H3162 0.960 . S
C3176 H3163 0.960 . S
C3176 C3175 1.524 . S
C3177 C3174 1.403 . S
C3177 C3178 1.392 . S
C3177 C3181 1.495 . S
C3178 C3177 1.392 . S
C3178 C3179 1.385 . S
C3178 C3180 1.478 . S
C3179 H3173 0.930 . S
C3179 C3175 1.400 . S
C3179 C3178 1.385 . S
C3180 C3178 1.478 . S
C3180 C3182 1.381 . S
C3180 C3186 1.383 . S
C3181 C3177 1.495 . S
C3181 H3187 0.959 . S
C3181 H3188 0.961 . S
C3181 H3189 0.960 . S
C3182 C3180 1.381 . S
C3182 C3183 1.394 . S
C3182 H3190 0.930 . S
C3183 C3182 1.394 . S
C3183 C3184 1.383 . S
C3183 H3191 0.948 . S
C3184 C3183 1.383 . S
C3184 C3185 1.377 . S
C3185 H3169 0.930 . S
C3185 C3184 1.377 . S
C3185 C3186 1.379 . S
C3186 H3170 0.931 . S
C3186 C3180 1.383 . S
C3186 C3185 1.379 . S
H3187 C3181 0.959 . S
H3188 C3181 0.961 . S
H3189 C3181 0.960 . S
H3190 C3182 0.930 . S
H3191 C3183 0.948 . S
H3192 C3200 0.929 . S
H3193 C3202 0.930 . S
H3194 C3204 0.930 . S
H3195 C3207 0.929 . S
H3196 C3210 0.930 . S
H3197 C3212 0.960 . S
H3198 C3212 0.960 . S
H3199 C3212 0.960 . S
C3200 H3192 0.929 . S
C3200 C3201 1.377 . S
C3200 C3202 1.384 . S
C3201 C3200 1.377 . S
C3201 C3207 1.390 . S
C3202 H3193 0.930 . S
C3202 C3200 1.384 . S
C3202 C3203 1.372 . S
C3203 C3202 1.372 . S
C3203 C3204 1.400 . S
C3203 C3208 1.490 . S
C3204 H3194 0.930 . S
C3204 C3203 1.400 . S
C3204 C3207 1.386 . S
H3205 C3221 0.930 . S
H3206 C3222 0.931 . S
C3207 H3195 0.929 . S
C3207 C3201 1.390 . S
C3207 C3204 1.386 . S
C3208 C3203 1.490 . S
C3208 C3210 1.395 . S
C3208 C3211 1.403 . S
H3209 C3215 0.930 . S
C3210 H3196 0.930 . S
C3210 C3208 1.395 . S
C3210 C3213 1.403 . S
C3211 C3208 1.403 . S
C3211 C3212 1.524 . S
C3211 C3215 1.400 . S
C3212 H3197 0.960 . S
C3212 H3198 0.960 . S
C3212 H3199 0.960 . S
C3212 C3211 1.524 . S
C3213 C3210 1.403 . S
C3213 C3214 1.392 . S
C3213 C3217 1.495 . S
C3214 C3213 1.392 . S
C3214 C3215 1.385 . S
C3214 C3216 1.478 . S
C3215 H3209 0.930 . S
C3215 C3211 1.400 . S
C3215 C3214 1.385 . S
C3216 C3214 1.478 . S
C3216 C3218 1.381 . S
C3216 C3222 1.383 . S
C3217 C3213 1.495 . S
C3217 H3223 0.959 . S
C3217 H3224 0.961 . S
C3217 H3225 0.960 . S
C3218 C3216 1.381 . S
C3218 C3219 1.394 . S
C3218 H3226 0.930 . S
C3219 C3218 1.394 . S
C3219 C3220 1.383 . S
C3219 H3227 0.929 . S
C3220 C3219 1.383 . S
C3220 C3221 1.377 . S
C3221 H3205 0.930 . S
C3221 C3220 1.377 . S
C3221 C3222 1.379 . S
C3222 H3206 0.931 . S
C3222 C3216 1.383 . S
C3222 C3221 1.379 . S
H3223 C3217 0.959 . S
H3224 C3217 0.961 . S
H3225 C3217 0.960 . S
H3226 C3218 0.930 . S
H3227 C3219 0.929 . S
H3228 C3236 0.929 . S
H3229 C3238 0.930 . S
H3230 C3240 0.930 . S
H3231 C3243 0.929 . S
H3232 C3246 0.930 . S
H3233 C3248 0.960 . S
H3234 C3248 0.960 . S
H3235 C3248 0.960 . S
C3236 H3228 0.929 . S
C3236 C3237 1.377 . S
C3236 C3238 1.384 . S
C3237 C3236 1.377 . S
C3237 C3243 1.390 . S
C3238 H3229 0.930 . S
C3238 C3236 1.384 . S
C3238 C3239 1.372 . S
C3239 C3238 1.372 . S
C3239 C3240 1.400 . S
C3239 C3244 1.490 . S
C3240 H3230 0.930 . S
C3240 C3239 1.400 . S
C3240 C3243 1.386 . S
H3241 C3257 0.930 . S
H3242 C3258 0.931 . S
C3243 H3231 0.929 . S
C3243 C3237 1.390 . S
C3243 C3240 1.386 . S
C3244 C3239 1.490 . S
C3244 C3246 1.395 . S
C3244 C3247 1.403 . S
H3245 C3251 0.930 . S
C3246 H3232 0.930 . S
C3246 C3244 1.395 . S
C3246 C3249 1.403 . S
C3247 C3244 1.403 . S
C3247 C3248 1.524 . S
C3247 C3251 1.400 . S
C3248 H3233 0.960 . S
C3248 H3234 0.960 . S
C3248 H3235 0.960 . S
C3248 C3247 1.524 . S
C3249 C3246 1.403 . S
C3249 C3250 1.392 . S
C3249 C3253 1.495 . S
C3250 C3249 1.392 . S
C3250 C3251 1.385 . S
C3250 C3252 1.478 . S
C3251 H3245 0.930 . S
C3251 C3247 1.400 . S
C3251 C3250 1.385 . S
C3252 C3250 1.478 . S
C3252 C3254 1.381 . S
C3252 C3258 1.383 . S
C3253 C3249 1.495 . S
C3253 H3259 0.959 . S
C3253 H3260 0.961 . S
C3253 H3261 0.960 . S
C3254 C3252 1.381 . S
C3254 C3255 1.394 . S
C3254 H3262 0.930 . S
C3255 C3254 1.394 . S
C3255 C3256 1.383 . S
C3255 H3263 0.929 . S
C3256 C3255 1.383 . S
C3256 C3257 1.377 . S
C3257 H3241 0.930 . S
C3257 C3256 1.377 . S
C3257 C3258 1.379 . S
C3258 H3242 0.931 . S
C3258 C3252 1.383 . S
C3258 C3257 1.379 . S
H3259 C3253 0.959 . S
H3260 C3253 0.961 . S
H3261 C3253 0.960 . S
H3262 C3254 0.930 . S
H3263 C3255 0.929 . S
H3264 C3272 0.929 . S
H3265 C3274 0.930 . S
H3266 C3276 0.930 . S
H3267 C3279 0.929 . S
H3268 C3282 0.930 . S
H3269 C3284 0.960 . S
H3270 C3284 0.960 . S
H3271 C3284 0.960 . S
C3272 H3264 0.929 . S
C3272 C3273 1.377 . S
C3272 C3274 1.384 . S
C3273 C3272 1.377 . S
C3273 C3279 1.390 . S
C3274 H3265 0.930 . S
C3274 C3272 1.384 . S
C3274 C3275 1.372 . S
C3275 C3274 1.372 . S
C3275 C3276 1.400 . S
C3275 C3280 1.490 . S
C3276 H3266 0.930 . S
C3276 C3275 1.400 . S
C3276 C3279 1.386 . S
H3277 C3293 0.930 . S
H3278 C3294 0.931 . S
C3279 H3267 0.929 . S
C3279 C3273 1.390 . S
C3279 C3276 1.386 . S
C3280 C3275 1.490 . S
C3280 C3282 1.395 . S
C3280 C3283 1.403 . S
H3281 C3287 0.930 . S
C3282 H3268 0.930 . S
C3282 C3280 1.395 . S
C3282 C3285 1.403 . S
C3283 C3280 1.403 . S
C3283 C3284 1.524 . S
C3283 C3287 1.400 . S
C3284 H3269 0.960 . S
C3284 H3270 0.960 . S
C3284 H3271 0.960 . S
C3284 C3283 1.524 . S
C3285 C3282 1.403 . S
C3285 C3286 1.392 . S
C3285 C3289 1.495 . S
C3286 C3285 1.392 . S
C3286 C3287 1.385 . S
C3286 C3288 1.478 . S
C3287 H3281 0.930 . S
C3287 C3283 1.400 . S
C3287 C3286 1.385 . S
C3288 C3286 1.478 . S
C3288 C3290 1.381 . S
C3288 C3294 1.383 . S
C3289 C3285 1.495 . S
C3289 H3295 0.959 . S
C3289 H3296 0.961 . S
C3289 H3297 0.960 . S
C3290 C3288 1.381 . S
C3290 C3291 1.394 . S
C3290 H3298 0.930 . S
C3291 C3290 1.394 . S
C3291 C3292 1.383 . S
C3291 H3299 0.929 . S
C3292 C3291 1.383 . S
C3292 C3293 1.377 . S
C3293 H3277 0.930 . S
C3293 C3292 1.377 . S
C3293 C3294 1.379 . S
C3294 H3278 0.931 . S
C3294 C3288 1.383 . S
C3294 C3293 1.379 . S
H3295 C3289 0.959 . S
H3296 C3289 0.961 . S
H3297 C3289 0.960 . S
H3298 C3290 0.930 . S
H3299 C3291 0.929 . S
H3300 C3308 0.929 . S
H3301 C3310 0.930 . S
H3302 C3312 0.930 . S
H3303 C3315 0.929 . S
H3304 C3318 0.930 . S
H3305 C3320 0.960 . S
H3306 C3320 0.960 . S
H3307 C3320 0.960 . S
C3308 H3300 0.929 . S
C3308 C3309 1.377 . S
C3308 C3310 1.384 . S
C3309 C3308 1.377 . S
C3309 C3315 1.390 . S
C3310 H3301 0.930 . S
C3310 C3308 1.384 . S
C3310 C3311 1.372 . S
C3311 C3310 1.372 . S
C3311 C3312 1.400 . S
C3311 C3316 1.490 . S
C3312 H3302 0.930 . S
C3312 C3311 1.400 . S
C3312 C3315 1.386 . S
H3313 C3329 0.930 . S
H3314 C3330 0.931 . S
C3315 H3303 0.929 . S
C3315 C3309 1.390 . S
C3315 C3312 1.386 . S
C3316 C3311 1.490 . S
C3316 C3318 1.395 . S
C3316 C3319 1.403 . S
H3317 C3323 0.930 . S
C3318 H3304 0.930 . S
C3318 C3316 1.395 . S
C3318 C3321 1.403 . S
C3319 C3316 1.403 . S
C3319 C3320 1.524 . S
C3319 C3323 1.400 . S
C3320 H3305 0.960 . S
C3320 H3306 0.960 . S
C3320 H3307 0.960 . S
C3320 C3319 1.524 . S
C3321 C3318 1.403 . S
C3321 C3322 1.392 . S
C3321 C3325 1.495 . S
C3322 C3321 1.392 . S
C3322 C3323 1.385 . S
C3322 C3324 1.478 . S
C3323 H3317 0.930 . S
C3323 C3319 1.400 . S
C3323 C3322 1.385 . S
C3324 C3322 1.478 . S
C3324 C3326 1.381 . S
C3324 C3330 1.383 . S
C3325 C3321 1.495 . S
C3325 H3331 0.959 . S
C3325 H3332 0.961 . S
C3325 H3333 0.960 . S
C3326 C3324 1.381 . S
C3326 C3327 1.394 . S
C3326 H3334 0.930 . S
C3327 C3326 1.394 . S
C3327 C3328 1.383 . S
C3327 H3335 0.929 . S
C3328 C3327 1.383 . S
C3328 C3329 1.377 . S
C3329 H3313 0.930 . S
C3329 C3328 1.377 . S
C3329 C3330 1.379 . S
C3330 H3314 0.931 . S
C3330 C3324 1.383 . S
C3330 C3329 1.379 . S
H3331 C3325 0.959 . S
H3332 C3325 0.961 . S
H3333 C3325 0.960 . S
H3334 C3326 0.930 . S
H3335 C3327 0.929 . S
H3336 C3344 0.929 . S
H3337 C3346 0.930 . S
H3338 C3348 0.930 . S
H3339 C3351 0.929 . S
H3340 C3354 0.930 . S
H3341 C3356 0.960 . S
H3342 C3356 0.960 . S
H3343 C3356 0.960 . S
C3344 H3336 0.929 . S
C3344 C3345 1.377 . S
C3344 C3346 1.384 . S
C3345 C3344 1.377 . S
C3345 C3351 1.390 . S
C3346 H3337 0.930 . S
C3346 C3344 1.384 . S
C3346 C3347 1.372 . S
C3347 C3346 1.372 . S
C3347 C3348 1.400 . S
C3347 C3352 1.490 . S
C3348 H3338 0.930 . S
C3348 C3347 1.400 . S
C3348 C3351 1.386 . S
H3349 C3365 0.930 . S
H3350 C3366 0.931 . S
C3351 H3339 0.929 . S
C3351 C3345 1.390 . S
C3351 C3348 1.386 . S
C3352 C3347 1.490 . S
C3352 C3354 1.395 . S
C3352 C3355 1.403 . S
H3353 C3359 0.930 . S
C3354 H3340 0.930 . S
C3354 C3352 1.395 . S
C3354 C3357 1.403 . S
C3355 C3352 1.403 . S
C3355 C3356 1.524 . S
C3355 C3359 1.400 . S
C3356 H3341 0.960 . S
C3356 H3342 0.960 . S
C3356 H3343 0.960 . S
C3356 C3355 1.524 . S
C3357 C3354 1.403 . S
C3357 C3358 1.392 . S
C3357 C3361 1.495 . S
C3358 C3357 1.392 . S
C3358 C3359 1.385 . S
C3358 C3360 1.478 . S
C3359 H3353 0.930 . S
C3359 C3355 1.400 . S
C3359 C3358 1.385 . S
C3360 C3358 1.478 . S
C3360 C3362 1.381 . S
C3360 C3366 1.383 . S
C3361 C3357 1.495 . S
C3361 H3367 0.959 . S
C3361 H3368 0.961 . S
C3361 H3369 0.960 . S
C3362 C3360 1.381 . S
C3362 C3363 1.394 . S
C3362 H3370 0.930 . S
C3363 C3362 1.394 . S
C3363 C3364 1.383 . S
C3363 H3371 0.929 . S
C3364 C3363 1.383 . S
C3364 C3365 1.377 . S
C3365 H3349 0.930 . S
C3365 C3364 1.377 . S
C3365 C3366 1.379 . S
C3366 H3350 0.931 . S
C3366 C3360 1.383 . S
C3366 C3365 1.379 . S
H3367 C3361 0.959 . S
H3368 C3361 0.961 . S
H3369 C3361 0.960 . S
H3370 C3362 0.930 . S
H3371 C3363 0.929 . S
H3372 C3380 0.929 . S
H3373 C3382 0.930 . S
H3374 C3384 0.930 . S
H3375 C3387 0.929 . S
H3376 C3390 0.930 . S
H3377 C3392 0.960 . S
H3378 C3392 0.960 . S
H3379 C3392 0.960 . S
C3380 H3372 0.929 . S
C3380 C3381 1.377 . S
C3380 C3382 1.384 . S
C3381 C3380 1.377 . S
C3381 C3387 1.390 . S
C3382 H3373 0.930 . S
C3382 C3380 1.384 . S
C3382 C3383 1.372 . S
C3383 C3382 1.372 . S
C3383 C3384 1.400 . S
C3383 C3388 1.490 . S
C3384 H3374 0.930 . S
C3384 C3383 1.400 . S
C3384 C3387 1.386 . S
H3385 C3401 0.930 . S
H3386 C3402 0.931 . S
C3387 H3375 0.929 . S
C3387 C3381 1.390 . S
C3387 C3384 1.386 . S
C3388 C3383 1.490 . S
C3388 C3390 1.395 . S
C3388 C3391 1.403 . S
H3389 C3395 0.930 . S
C3390 H3376 0.930 . S
C3390 C3388 1.395 . S
C3390 C3393 1.403 . S
C3391 C3388 1.403 . S
C3391 C3392 1.524 . S
C3391 C3395 1.400 . S
C3392 H3377 0.960 . S
C3392 H3378 0.960 . S
C3392 H3379 0.960 . S
C3392 C3391 1.524 . S
C3393 C3390 1.403 . S
C3393 C3394 1.392 . S
C3393 C3397 1.495 . S
C3394 C3393 1.392 . S
C3394 C3395 1.385 . S
C3394 C3396 1.478 . S
C3395 H3389 0.930 . S
C3395 C3391 1.400 . S
C3395 C3394 1.385 . S
C3396 C3394 1.478 . S
C3396 C3398 1.381 . S
C3396 C3402 1.383 . S
C3397 C3393 1.495 . S
C3397 H3403 0.959 . S
C3397 H3404 0.961 . S
C3397 H3405 0.960 . S
C3398 C3396 1.381 . S
C3398 C3399 1.394 . S
C3398 H3406 0.930 . S
C3399 C3398 1.394 . S
C3399 C3400 1.383 . S
C3399 H3407 0.929 . S
C3400 C3399 1.383 . S
C3400 C3401 1.377 . S
C3401 H3385 0.930 . S
C3401 C3400 1.377 . S
C3401 C3402 1.379 . S
C3402 H3386 0.931 . S
C3402 C3396 1.383 . S
C3402 C3401 1.379 . S
H3403 C3397 0.959 . S
H3404 C3397 0.961 . S
H3405 C3397 0.960 . S
H3406 C3398 0.930 . S
H3407 C3399 0.929 . S
H3408 C3416 0.929 . S
H3409 C3418 0.930 . S
H3410 C3420 0.930 . S
H3411 C3423 0.929 . S
H3412 C3426 0.930 . S
H3413 C3428 0.960 . S
H3414 C3428 0.960 . S
H3415 C3428 0.960 . S
C3416 H3408 0.929 . S
C3416 C3417 1.377 . S
C3416 C3418 1.384 . S
C3417 C3416 1.377 . S
C3417 C3423 1.390 . S
C3418 H3409 0.930 . S
C3418 C3416 1.384 . S
C3418 C3419 1.372 . S
C3419 C3418 1.372 . S
C3419 C3420 1.400 . S
C3419 C3424 1.490 . S
C3420 H3410 0.930 . S
C3420 C3419 1.400 . S
C3420 C3423 1.386 . S
H3421 C3437 0.930 . S
H3422 C3438 0.931 . S
C3423 H3411 0.929 . S
C3423 C3417 1.390 . S
C3423 C3420 1.386 . S
C3424 C3419 1.490 . S
C3424 C3426 1.395 . S
C3424 C3427 1.403 . S
H3425 C3431 0.930 . S
C3426 H3412 0.930 . S
C3426 C3424 1.395 . S
C3426 C3429 1.403 . S
C3427 C3424 1.403 . S
C3427 C3428 1.524 . S
C3427 C3431 1.400 . S
C3428 H3413 0.960 . S
C3428 H3414 0.960 . S
C3428 H3415 0.960 . S
C3428 C3427 1.524 . S
C3429 C3426 1.403 . S
C3429 C3430 1.392 . S
C3429 C3433 1.495 . S
C3430 C3429 1.392 . S
C3430 C3431 1.385 . S
C3430 C3432 1.478 . S
C3431 H3425 0.930 . S
C3431 C3427 1.400 . S
C3431 C3430 1.385 . S
C3432 C3430 1.478 . S
C3432 C3434 1.381 . S
C3432 C3438 1.383 . S
C3433 C3429 1.495 . S
C3433 H3439 0.959 . S
C3433 H3440 0.961 . S
C3433 H3441 0.960 . S
C3434 C3432 1.381 . S
C3434 C3435 1.394 . S
C3434 H3442 0.930 . S
C3435 C3434 1.394 . S
C3435 C3436 1.383 . S
C3435 H3443 0.929 . S
C3436 C3435 1.383 . S
C3436 C3437 1.377 . S
C3437 H3421 0.930 . S
C3437 C3436 1.377 . S
C3437 C3438 1.379 . S
C3438 H3422 0.931 . S
C3438 C3432 1.383 . S
C3438 C3437 1.379 . S
H3439 C3433 0.959 . S
H3440 C3433 0.961 . S
H3441 C3433 0.960 . S
H3442 C3434 0.930 . S
H3443 C3435 0.929 . S
H3444 C3452 0.929 . S
H3445 C3454 0.930 . S
H3446 C3456 0.930 . S
H3447 C3459 0.929 . S
H3448 C3462 0.930 . S
H3449 C3464 0.960 . S
H3450 C3464 0.960 . S
H3451 C3464 0.960 . S
C3452 H3444 0.929 . S
C3452 C3453 1.377 . S
C3452 C3454 1.384 . S
C3453 C3452 1.377 . S
C3453 C3459 1.390 . S
C3454 H3445 0.930 . S
C3454 C3452 1.384 . S
C3454 C3455 1.372 . S
C3455 C3454 1.372 . S
C3455 C3456 1.400 . S
C3455 C3460 1.490 . S
C3456 H3446 0.930 . S
C3456 C3455 1.400 . S
C3456 C3459 1.386 . S
H3457 C3473 0.930 . S
H3458 C3474 0.931 . S
C3459 H3447 0.929 . S
C3459 C3453 1.390 . S
C3459 C3456 1.386 . S
C3460 C3455 1.490 . S
C3460 C3462 1.395 . S
C3460 C3463 1.403 . S
H3461 C3467 0.930 . S
C3462 H3448 0.930 . S
C3462 C3460 1.395 . S
C3462 C3465 1.403 . S
C3463 C3460 1.403 . S
C3463 C3464 1.524 . S
C3463 C3467 1.400 . S
C3464 H3449 0.960 . S
C3464 H3450 0.960 . S
C3464 H3451 0.960 . S
C3464 C3463 1.524 . S
C3465 C3462 1.403 . S
C3465 C3466 1.392 . S
C3465 C3469 1.495 . S
C3466 C3465 1.392 . S
C3466 C3467 1.385 . S
C3466 C3468 1.478 . S
C3467 H3461 0.930 . S
C3467 C3463 1.400 . S
C3467 C3466 1.385 . S
C3468 C3466 1.478 . S
C3468 C3470 1.381 . S
C3468 C3474 1.383 . S
C3469 C3465 1.495 . S
C3469 H3475 0.959 . S
C3469 H3476 0.961 . S
C3469 H3477 0.960 . S
C3470 C3468 1.381 . S
C3470 C3471 1.394 . S
C3470 H3478 0.930 . S
C3471 C3470 1.394 . S
C3471 C3472 1.383 . S
C3471 H3479 0.929 . S
C3472 C3471 1.383 . S
C3472 C3473 1.377 . S
C3473 H3457 0.930 . S
C3473 C3472 1.377 . S
C3473 C3474 1.379 . S
C3474 H3458 0.931 . S
C3474 C3468 1.383 . S
C3474 C3473 1.379 . S
H3475 C3469 0.959 . S
H3476 C3469 0.961 . S
H3477 C3469 0.960 . S
H3478 C3470 0.930 . S
H3479 C3471 0.929 . S
H3480 C3488 0.929 . S
H3481 C3490 0.930 . S
H3482 C3492 0.930 . S
H3483 C3495 0.929 . S
H3484 C3498 0.930 . S
H3485 C3500 0.960 . S
H3486 C3500 0.960 . S
H3487 C3500 0.960 . S
C3488 H3480 0.929 . S
C3488 C3489 1.377 . S
C3488 C3490 1.384 . S
C3489 C3488 1.377 . S
C3489 C3495 1.390 . S
C3490 H3481 0.930 . S
C3490 C3488 1.384 . S
C3490 C3491 1.372 . S
C3491 C3490 1.372 . S
C3491 C3492 1.400 . S
C3491 C3496 1.490 . S
C3492 H3482 0.930 . S
C3492 C3491 1.400 . S
C3492 C3495 1.386 . S
H3493 C3509 0.930 . S
H3494 C3510 0.931 . S
C3495 H3483 0.929 . S
C3495 C3489 1.390 . S
C3495 C3492 1.386 . S
C3496 C3491 1.490 . S
C3496 C3498 1.395 . S
C3496 C3499 1.403 1_455 S
H3497 C3503 0.930 1_655 S
C3498 H3484 0.930 . S
C3498 C3496 1.395 . S
C3498 C3501 1.403 . S
C3499 C3496 1.403 1_655 S
C3499 C3500 1.524 . S
C3499 C3503 1.400 1_655 S
C3500 H3485 0.960 . S
C3500 H3486 0.960 . S
C3500 H3487 0.960 . S
C3500 C3499 1.524 . S
C3501 C3498 1.403 . S
C3501 C3502 1.392 . S
C3501 C3505 1.495 1_556 S
C3502 C3501 1.392 . S
C3502 C3503 1.385 . S
C3502 C3504 1.478 . S
C3503 H3497 0.930 1_455 S
C3503 C3499 1.400 1_455 S
C3503 C3502 1.385 . S
C3504 C3502 1.478 . S
C3504 C3506 1.381 1_556 S
C3504 C3510 1.383 . S
C3505 C3501 1.495 1_554 S
C3505 H3511 0.959 . S
C3505 H3512 0.961 . S
C3505 H3513 0.960 . S
C3506 C3504 1.381 1_554 S
C3506 C3507 1.394 . S
C3506 H3514 0.930 . S
C3507 C3506 1.394 . S
C3507 C3508 1.383 . S
C3507 H3515 0.929 . S
C3508 C3507 1.383 . S
C3508 C3509 1.377 1_554 S
C3509 H3493 0.930 . S
C3509 C3508 1.377 1_556 S
C3509 C3510 1.379 . S
C3510 H3494 0.931 . S
C3510 C3504 1.383 . S
C3510 C3509 1.379 . S
H3511 C3505 0.959 . S
H3512 C3505 0.961 . S
H3513 C3505 0.960 . S
H3514 C3506 0.930 . S
H3515 C3507 0.929 . S
H3516 C3524 0.929 1_455 S
H3517 C3526 0.930 . S
H3518 C3528 0.930 . S
H3519 C3531 0.929 . S
H3520 C3534 0.930 . S
H3521 C3536 0.960 . S
H3522 C3536 0.960 . S
H3523 C3536 0.960 . S
C3524 H3516 0.929 1_655 S
C3524 C3525 1.356 1_655 S
C3524 C3526 1.384 . S
C3525 C3524 1.356 1_455 S
C3525 C3531 1.356 1_455 S
C3526 H3517 0.930 . S
C3526 C3524 1.384 . S
C3526 C3527 1.372 . S
C3527 C3526 1.372 . S
C3527 C3528 1.400 . S
C3527 C3532 1.490 . S
C3528 H3518 0.930 . S
C3528 C3527 1.400 . S
C3528 C3531 1.386 . S
H3529 C3545 0.930 . S
H3530 C3546 0.931 . S
C3531 H3519 0.929 . S
C3531 C3525 1.356 1_655 S
C3531 C3528 1.386 . S
C3532 C3527 1.490 . S
C3532 C3534 1.395 . S
C3532 C3535 1.403 . S
H3533 C3539 0.930 . S
C3534 H3520 0.930 . S
C3534 C3532 1.395 . S
C3534 C3537 1.403 . S
C3535 C3532 1.403 . S
C3535 C3536 1.524 . S
C3535 C3539 1.400 . S
C3536 H3521 0.960 . S
C3536 H3522 0.960 . S
C3536 H3523 0.960 . S
C3536 C3535 1.524 . S
C3537 C3534 1.403 . S
C3537 C3538 1.392 . S
C3537 C3541 1.495 . S
C3538 C3537 1.392 . S
C3538 C3539 1.385 . S
C3538 C3540 1.478 . S
C3539 H3533 0.930 . S
C3539 C3535 1.400 . S
C3539 C3538 1.385 . S
C3540 C3538 1.478 . S
C3540 C3542 1.381 . S
C3540 C3546 1.383 . S
C3541 C3537 1.495 . S
C3541 H3547 0.959 . S
C3541 H3548 0.961 . S
C3541 H3549 0.960 . S
C3542 C3540 1.381 . S
C3542 C3543 1.394 . S
C3542 H3550 0.930 . S
C3543 C3542 1.394 . S
C3543 C3544 1.383 . S
C3543 H3551 0.929 . S
C3544 C3543 1.383 . S
C3544 C3545 1.377 . S
C3545 H3529 0.930 . S
C3545 C3544 1.377 . S
C3545 C3546 1.379 . S
C3546 H3530 0.931 . S
C3546 C3540 1.383 . S
C3546 C3545 1.379 . S
H3547 C3541 0.959 . S
H3548 C3541 0.961 . S
H3549 C3541 0.960 . S
H3550 C3542 0.930 . S
H3551 C3543 0.929 . S
H3552 C3560 0.929 . S
H3553 C3562 0.930 . S
H3554 C3564 0.930 . S
H3555 C3567 0.929 . S
H3556 C3570 0.930 . S
H3557 C3572 0.960 . S
H3558 C3572 0.960 . S
H3559 C3572 0.960 . S
C3560 H3552 0.929 . S
C3560 C3561 1.377 . S
C3560 C3562 1.384 . S
C3561 C3560 1.377 . S
C3561 C3567 1.390 . S
C3562 H3553 0.930 . S
C3562 C3560 1.384 . S
C3562 C3563 1.372 . S
C3563 C3562 1.372 . S
C3563 C3564 1.400 . S
C3563 C3568 1.490 . S
C3564 H3554 0.930 . S
C3564 C3563 1.400 . S
C3564 C3567 1.386 . S
H3565 C3581 0.930 . S
H3566 C3582 0.931 . S
C3567 H3555 0.929 . S
C3567 C3561 1.390 . S
C3567 C3564 1.386 . S
C3568 C3563 1.490 . S
C3568 C3570 1.395 . S
C3568 C3571 1.403 . S
H3569 C3575 0.930 . S
C3570 H3556 0.930 . S
C3570 C3568 1.395 . S
C3570 C3573 1.403 . S
C3571 C3568 1.403 . S
C3571 C3572 1.524 . S
C3571 C3575 1.400 . S
C3572 H3557 0.960 . S
C3572 H3558 0.960 . S
C3572 H3559 0.960 . S
C3572 C3571 1.524 . S
C3573 C3570 1.403 . S
C3573 C3574 1.392 . S
C3573 C3577 1.495 . S
C3574 C3573 1.392 . S
C3574 C3575 1.385 . S
C3574 C3576 1.478 . S
C3575 H3569 0.930 . S
C3575 C3571 1.400 . S
C3575 C3574 1.385 . S
C3576 C3574 1.478 . S
C3576 C3578 1.381 . S
C3576 C3582 1.383 . S
C3577 C3573 1.495 . S
C3577 H3583 0.959 . S
C3577 H3584 0.961 . S
C3577 H3585 0.960 . S
C3578 C3576 1.381 . S
C3578 C3579 1.394 . S
C3578 H3586 0.930 . S
C3579 C3578 1.394 . S
C3579 C3580 1.383 . S
C3579 H3587 0.929 . S
C3580 C3579 1.383 . S
C3580 C3581 1.377 . S
C3581 H3565 0.930 . S
C3581 C3580 1.377 . S
C3581 C3582 1.379 . S
C3582 H3566 0.931 . S
C3582 C3576 1.383 . S
C3582 C3581 1.379 . S
H3583 C3577 0.959 . S
H3584 C3577 0.961 . S
H3585 C3577 0.960 . S
H3586 C3578 0.930 . S
H3587 C3579 0.929 . S
H3588 C3596 0.929 . S
H3589 C3598 0.930 . S
H3590 C3600 0.930 . S
H3591 C3603 0.929 . S
H3592 C3606 0.930 . S
H3593 C3608 0.960 . S
H3594 C3608 0.960 . S
H3595 C3608 0.960 . S
C3596 H3588 0.929 . S
C3596 C3597 1.377 . S
C3596 C3598 1.384 . S
C3597 C3596 1.377 . S
C3597 C3603 1.390 . S
C3598 H3589 0.930 . S
C3598 C3596 1.384 . S
C3598 C3599 1.372 . S
C3599 C3598 1.372 . S
C3599 C3600 1.400 . S
C3599 C3604 1.490 . S
C3600 H3590 0.930 . S
C3600 C3599 1.400 . S
C3600 C3603 1.386 . S
H3601 C3617 0.930 . S
H3602 C3618 0.931 . S
C3603 H3591 0.929 . S
C3603 C3597 1.390 . S
C3603 C3600 1.386 . S
C3604 C3599 1.490 . S
C3604 C3606 1.395 . S
C3604 C3607 1.403 . S
H3605 C3611 0.930 . S
C3606 H3592 0.930 . S
C3606 C3604 1.395 . S
C3606 C3609 1.403 . S
C3607 C3604 1.403 . S
C3607 C3608 1.524 . S
C3607 C3611 1.400 . S
C3608 H3593 0.960 . S
C3608 H3594 0.960 . S
C3608 H3595 0.960 . S
C3608 C3607 1.524 . S
C3609 C3606 1.403 . S
C3609 C3610 1.392 . S
C3609 C3613 1.495 . S
C3610 C3609 1.392 . S
C3610 C3611 1.385 . S
C3610 C3612 1.478 . S
C3611 H3605 0.930 . S
C3611 C3607 1.400 . S
C3611 C3610 1.385 . S
C3612 C3610 1.478 . S
C3612 C3614 1.381 . S
C3612 C3618 1.383 . S
C3613 C3609 1.495 . S
C3613 H3619 0.959 . S
C3613 H3620 0.961 . S
C3613 H3621 0.960 . S
C3614 C3612 1.381 . S
C3614 C3615 1.394 . S
C3614 H3622 0.930 . S
C3615 C3614 1.394 . S
C3615 C3616 1.383 . S
C3615 H3623 0.929 . S
C3616 C3615 1.383 . S
C3616 C3617 1.377 . S
C3617 H3601 0.930 . S
C3617 C3616 1.377 . S
C3617 C3618 1.379 . S
C3618 H3602 0.931 . S
C3618 C3612 1.383 . S
C3618 C3617 1.379 . S
H3619 C3613 0.959 . S
H3620 C3613 0.961 . S
H3621 C3613 0.960 . S
H3622 C3614 0.930 . S
H3623 C3615 0.929 . S
H3624 C3632 0.929 . S
H3625 C3634 0.930 . S
H3626 C3636 0.930 . S
H3627 C3639 0.929 . S
H3628 C3642 0.930 . S
H3629 C3644 0.960 . S
H3630 C3644 0.960 . S
H3631 C3644 0.960 . S
C3632 H3624 0.929 . S
C3632 C3633 1.377 . S
C3632 C3634 1.384 . S
C3633 C3632 1.377 . S
C3633 C3639 1.390 . S
C3634 H3625 0.930 . S
C3634 C3632 1.384 . S
C3634 C3635 1.372 . S
C3635 C3634 1.372 . S
C3635 C3636 1.400 . S
C3635 C3640 1.490 . S
C3636 H3626 0.930 . S
C3636 C3635 1.400 . S
C3636 C3639 1.386 . S
H3637 C3653 0.930 . S
H3638 C3654 0.931 . S
C3639 H3627 0.929 . S
C3639 C3633 1.390 . S
C3639 C3636 1.386 . S
C3640 C3635 1.490 . S
C3640 C3642 1.395 . S
C3640 C3643 1.392 1_455 S
H3641 C3647 0.930 1_655 S
C3642 H3628 0.930 . S
C3642 C3640 1.395 . S
C3642 C3645 1.403 . S
C3643 C3640 1.392 1_655 S
C3643 C3644 1.541 . S
C3643 C3647 1.393 1_655 S
C3644 H3629 0.960 . S
C3644 H3630 0.960 . S
C3644 H3631 0.960 . S
C3644 C3643 1.541 . S
C3645 C3642 1.403 . S
C3645 C3646 1.392 . S
C3645 C3649 1.495 . S
C3646 C3645 1.392 . S
C3646 C3647 1.385 . S
C3646 C3648 1.478 . S
C3647 H3641 0.930 1_455 S
C3647 C3643 1.393 1_455 S
C3647 C3646 1.385 . S
C3648 C3646 1.478 . S
C3648 C3650 1.381 . S
C3648 C3654 1.383 . S
C3649 C3645 1.495 . S
C3649 H3655 0.959 . S
C3649 H3656 0.961 . S
C3649 H3657 0.960 . S
C3650 C3648 1.381 . S
C3650 C3651 1.394 . S
C3650 H3658 0.930 . S
C3651 C3650 1.394 . S
C3651 C3652 1.383 . S
C3651 H3659 0.929 . S
C3652 C3651 1.383 . S
C3652 C3653 1.377 . S
C3653 H3637 0.930 . S
C3653 C3652 1.377 . S
C3653 C3654 1.379 . S
C3654 H3638 0.931 . S
C3654 C3648 1.383 . S
C3654 C3653 1.379 . S
H3655 C3649 0.959 . S
H3656 C3649 0.961 . S
H3657 C3649 0.960 . S
H3658 C3650 0.930 . S
H3659 C3651 0.929 . S
H3660 C3668 0.929 . S
H3661 C3670 0.930 . S
H3662 C3672 0.930 . S
H3663 C3675 0.929 . S
H3664 C3678 0.930 . S
H3665 C3680 0.960 . S
H3666 C3680 0.960 . S
H3667 C3680 0.960 . S
C3668 H3660 0.929 . S
C3668 C3669 1.377 . S
C3668 C3670 1.384 . S
C3669 C3668 1.377 . S
C3669 C3675 1.390 . S
C3670 H3661 0.930 . S
C3670 C3668 1.384 . S
C3670 C3671 1.372 . S
C3671 C3670 1.372 . S
C3671 C3672 1.400 . S
C3671 C3676 1.490 . S
C3672 H3662 0.930 . S
C3672 C3671 1.400 . S
C3672 C3675 1.386 . S
H3673 C3689 0.930 . S
H3674 C3690 0.931 . S
C3675 H3663 0.929 . S
C3675 C3669 1.390 . S
C3675 C3672 1.386 . S
C3676 C3671 1.490 . S
C3676 C3678 1.395 . S
C3676 C3679 1.403 . S
H3677 C3683 0.930 . S
C3678 H3664 0.930 . S
C3678 C3676 1.395 . S
C3678 C3681 1.403 . S
C3679 C3676 1.403 . S
C3679 C3680 1.524 . S
C3679 C3683 1.400 . S
C3680 H3665 0.960 . S
C3680 H3666 0.960 . S
C3680 H3667 0.960 . S
C3680 C3679 1.524 . S
C3681 C3678 1.403 . S
C3681 C3682 1.392 . S
C3681 C3685 1.495 . S
C3682 C3681 1.392 . S
C3682 C3683 1.385 . S
C3682 C3684 1.478 . S
C3683 H3677 0.930 . S
C3683 C3679 1.400 . S
C3683 C3682 1.385 . S
C3684 C3682 1.478 . S
C3684 C3686 1.381 . S
C3684 C3690 1.383 . S
C3685 C3681 1.495 . S
C3685 H3691 0.959 . S
C3685 H3692 0.961 . S
C3685 H3693 0.960 . S
C3686 C3684 1.381 . S
C3686 C3687 1.394 . S
C3686 H3694 0.930 . S
C3687 C3686 1.394 . S
C3687 C3688 1.383 . S
C3687 H3695 0.929 . S
C3688 C3687 1.383 . S
C3688 C3689 1.377 . S
C3689 H3673 0.930 . S
C3689 C3688 1.377 . S
C3689 C3690 1.379 . S
C3690 H3674 0.931 . S
C3690 C3684 1.383 . S
C3690 C3689 1.379 . S
H3691 C3685 0.959 . S
H3692 C3685 0.961 . S
H3693 C3685 0.960 . S
H3694 C3686 0.930 . S
H3695 C3687 0.929 . S
H3696 C3704 0.929 . S
H3697 C3706 0.930 . S
H3698 C3708 0.930 . S
H3699 C3711 0.929 . S
H3700 C3714 0.930 . S
H3701 C3716 0.960 . S
H3702 C3716 0.960 . S
H3703 C3716 0.960 . S
C3704 H3696 0.929 . S
C3704 C3705 1.377 . S
C3704 C3706 1.384 . S
C3705 C3704 1.377 . S
C3705 C3711 1.390 . S
C3706 H3697 0.930 . S
C3706 C3704 1.384 . S
C3706 C3707 1.372 . S
C3707 C3706 1.372 . S
C3707 C3708 1.400 . S
C3707 C3712 1.490 . S
C3708 H3698 0.930 . S
C3708 C3707 1.400 . S
C3708 C3711 1.386 . S
H3709 C3725 0.930 . S
H3710 C3726 0.931 . S
C3711 H3699 0.929 . S
C3711 C3705 1.390 . S
C3711 C3708 1.386 . S
C3712 C3707 1.490 . S
C3712 C3714 1.395 . S
C3712 C3715 1.403 . S
H3713 C3719 0.930 . S
C3714 H3700 0.930 . S
C3714 C3712 1.395 . S
C3714 C3717 1.403 . S
C3715 C3712 1.403 . S
C3715 C3716 1.524 . S
C3715 C3719 1.400 . S
C3716 H3701 0.960 . S
C3716 H3702 0.960 . S
C3716 H3703 0.960 . S
C3716 C3715 1.524 . S
C3717 C3714 1.403 . S
C3717 C3718 1.392 . S
C3717 C3721 1.495 . S
C3718 C3717 1.392 . S
C3718 C3719 1.385 . S
C3718 C3720 1.478 . S
C3719 H3713 0.930 . S
C3719 C3715 1.400 . S
C3719 C3718 1.385 . S
C3720 C3718 1.478 . S
C3720 C3722 1.381 . S
C3720 C3726 1.383 . S
C3721 C3717 1.495 . S
C3721 H3727 0.959 . S
C3721 H3728 0.961 . S
C3721 H3729 0.960 . S
C3722 C3720 1.381 . S
C3722 C3723 1.394 . S
C3722 H3730 0.930 . S
C3723 C3722 1.394 . S
C3723 C3724 1.383 . S
C3723 H3731 0.929 . S
C3724 C3723 1.383 . S
C3724 C3725 1.377 . S
C3725 H3709 0.930 . S
C3725 C3724 1.377 . S
C3725 C3726 1.379 . S
C3726 H3710 0.931 . S
C3726 C3720 1.383 . S
C3726 C3725 1.379 . S
H3727 C3721 0.959 . S
H3728 C3721 0.961 . S
H3729 C3721 0.960 . S
H3730 C3722 0.930 . S
H3731 C3723 0.929 . S
H3732 C3740 0.929 . S
H3733 C3742 0.930 . S
H3734 C3744 0.930 . S
H3735 C3747 0.929 . S
H3736 C3750 0.930 . S
H3737 C3752 0.960 . S
H3738 C3752 0.960 . S
H3739 C3752 0.960 . S
C3740 H3732 0.929 . S
C3740 C3741 1.377 . S
C3740 C3742 1.384 . S
C3741 C3740 1.377 . S
C3741 C3747 1.390 . S
C3742 H3733 0.930 . S
C3742 C3740 1.384 . S
C3742 C3743 1.372 . S
C3743 C3742 1.372 . S
C3743 C3744 1.400 . S
C3743 C3748 1.490 . S
C3744 H3734 0.930 . S
C3744 C3743 1.400 . S
C3744 C3747 1.386 . S
H3745 C3761 0.930 . S
H3746 C3762 0.931 . S
C3747 H3735 0.929 . S
C3747 C3741 1.390 . S
C3747 C3744 1.386 . S
C3748 C3743 1.490 . S
C3748 C3750 1.395 . S
C3748 C3751 1.403 . S
H3749 C3755 0.930 . S
C3750 H3736 0.930 . S
C3750 C3748 1.395 . S
C3750 C3753 1.403 . S
C3751 C3748 1.403 . S
C3751 C3752 1.524 . S
C3751 C3755 1.400 . S
C3752 H3737 0.960 . S
C3752 H3738 0.960 . S
C3752 H3739 0.960 . S
C3752 C3751 1.524 . S
C3753 C3750 1.403 . S
C3753 C3754 1.392 . S
C3753 C3757 1.495 . S
C3754 C3753 1.392 . S
C3754 C3755 1.385 . S
C3754 C3756 1.478 . S
C3755 H3749 0.930 . S
C3755 C3751 1.400 . S
C3755 C3754 1.385 . S
C3756 C3754 1.478 . S
C3756 C3758 1.381 . S
C3756 C3762 1.383 . S
C3757 C3753 1.495 . S
C3757 H3763 0.959 . S
C3757 H3764 0.961 . S
C3757 H3765 0.960 . S
C3758 C3756 1.381 . S
C3758 C3759 1.394 . S
C3758 H3766 0.930 . S
C3759 C3758 1.394 . S
C3759 C3760 1.383 . S
C3759 H3767 0.929 . S
C3760 C3759 1.383 . S
C3760 C3761 1.377 . S
C3761 H3745 0.930 . S
C3761 C3760 1.377 . S
C3761 C3762 1.379 . S
C3762 H3746 0.931 . S
C3762 C3756 1.383 . S
C3762 C3761 1.379 . S
H3763 C3757 0.959 . S
H3764 C3757 0.961 . S
H3765 C3757 0.960 . S
H3766 C3758 0.930 . S
H3767 C3759 0.929 . S
H3768 C3776 0.929 . S
H3769 C3778 0.930 . S
H3770 C3780 0.930 . S
H3771 C3783 0.929 . S
H3772 C3786 0.930 . S
H3773 C3788 0.960 . S
H3774 C3788 0.960 . S
H3775 C3788 0.960 . S
C3776 H3768 0.929 . S
C3776 C3777 1.377 . S
C3776 C3778 1.384 . S
C3777 C3776 1.377 . S
C3777 C3783 1.390 . S
C3778 H3769 0.930 . S
C3778 C3776 1.384 . S
C3778 C3779 1.372 . S
C3779 C3778 1.372 . S
C3779 C3780 1.400 . S
C3779 C3784 1.490 . S
C3780 H3770 0.930 . S
C3780 C3779 1.400 . S
C3780 C3783 1.386 . S
H3781 C3797 0.930 . S
H3782 C3798 0.931 . S
C3783 H3771 0.929 . S
C3783 C3777 1.390 . S
C3783 C3780 1.386 . S
C3784 C3779 1.490 . S
C3784 C3786 1.395 . S
C3784 C3787 1.403 . S
H3785 C3791 0.930 . S
C3786 H3772 0.930 . S
C3786 C3784 1.395 . S
C3786 C3789 1.403 . S
C3787 C3784 1.403 . S
C3787 C3788 1.524 . S
C3787 C3791 1.400 . S
C3788 H3773 0.960 . S
C3788 H3774 0.960 . S
C3788 H3775 0.960 . S
C3788 C3787 1.524 . S
C3789 C3786 1.403 . S
C3789 C3790 1.392 . S
C3789 C3793 1.495 . S
C3790 C3789 1.392 . S
C3790 C3791 1.385 . S
C3790 C3792 1.478 . S
C3791 H3785 0.930 . S
C3791 C3787 1.400 . S
C3791 C3790 1.385 . S
C3792 C3790 1.478 . S
C3792 C3794 1.381 . S
C3792 C3798 1.383 . S
C3793 C3789 1.495 . S
C3793 H3799 0.959 . S
C3793 H3800 0.961 . S
C3793 H3801 0.960 . S
C3794 C3792 1.381 . S
C3794 C3795 1.394 . S
C3794 H3802 0.930 . S
C3795 C3794 1.394 . S
C3795 C3796 1.383 . S
C3795 H3803 0.929 . S
C3796 C3795 1.383 . S
C3796 C3797 1.377 . S
C3797 H3781 0.930 . S
C3797 C3796 1.377 . S
C3797 C3798 1.379 . S
C3798 H3782 0.931 . S
C3798 C3792 1.383 . S
C3798 C3797 1.379 . S
H3799 C3793 0.959 . S
H3800 C3793 0.961 . S
H3801 C3793 0.960 . S
H3802 C3794 0.930 . S
H3803 C3795 0.929 . S
H3804 C3812 0.929 . S
H3805 C3814 0.930 . S
H3806 C3816 0.930 . S
H3807 C3819 0.929 . S
H3808 C3822 0.930 . S
H3809 C3824 0.960 . S
H3810 C3824 0.960 . S
H3811 C3824 0.960 . S
C3812 H3804 0.929 . S
C3812 C3813 1.377 . S
C3812 C3814 1.384 . S
C3813 C3812 1.377 . S
C3813 C3819 1.390 . S
C3814 H3805 0.930 . S
C3814 C3812 1.384 . S
C3814 C3815 1.372 . S
C3815 C3814 1.372 . S
C3815 C3816 1.400 . S
C3815 C3820 1.490 . S
C3816 H3806 0.930 . S
C3816 C3815 1.400 . S
C3816 C3819 1.386 . S
H3817 C3833 0.930 . S
H3818 C3834 0.931 . S
C3819 H3807 0.929 . S
C3819 C3813 1.390 . S
C3819 C3816 1.386 . S
C3820 C3815 1.490 . S
C3820 C3822 1.395 . S
C3820 C3823 1.403 . S
H3821 C3827 0.930 . S
C3822 H3808 0.930 . S
C3822 C3820 1.395 . S
C3822 C3825 1.403 . S
C3823 C3820 1.403 . S
C3823 C3824 1.524 . S
C3823 C3827 1.400 . S
C3824 H3809 0.960 . S
C3824 H3810 0.960 . S
C3824 H3811 0.960 . S
C3824 C3823 1.524 . S
C3825 C3822 1.403 . S
C3825 C3826 1.392 . S
C3825 C3829 1.495 . S
C3826 C3825 1.392 . S
C3826 C3827 1.385 . S
C3826 C3828 1.478 . S
C3827 H3821 0.930 . S
C3827 C3823 1.400 . S
C3827 C3826 1.385 . S
C3828 C3826 1.478 . S
C3828 C3830 1.381 . S
C3828 C3834 1.383 . S
C3829 C3825 1.495 . S
C3829 H3835 0.959 . S
C3829 H3836 0.961 . S
C3829 H3837 0.960 . S
C3830 C3828 1.381 . S
C3830 C3831 1.394 . S
C3830 H3838 0.930 . S
C3831 C3830 1.394 . S
C3831 C3832 1.383 . S
C3831 H3839 0.929 . S
C3832 C3831 1.383 . S
C3832 C3833 1.377 . S
C3833 H3817 0.930 . S
C3833 C3832 1.377 . S
C3833 C3834 1.379 . S
C3834 H3818 0.931 . S
C3834 C3828 1.383 . S
C3834 C3833 1.379 . S
H3835 C3829 0.959 . S
H3836 C3829 0.961 . S
H3837 C3829 0.960 . S
H3838 C3830 0.930 . S
H3839 C3831 0.929 . S
H3840 C3848 0.929 . S
H3841 C3850 0.930 . S
H3842 C3852 0.930 . S
H3843 C3855 0.929 . S
H3844 C3858 0.930 . S
H3845 C3860 0.960 . S
H3846 C3860 0.960 . S
H3847 C3860 0.960 . S
C3848 H3840 0.929 . S
C3848 C3849 1.377 . S
C3848 C3850 1.384 . S
C3849 C3848 1.377 . S
C3849 C3855 1.390 . S
C3850 H3841 0.930 . S
C3850 C3848 1.384 . S
C3850 C3851 1.372 . S
C3851 C3850 1.372 . S
C3851 C3852 1.400 . S
C3851 C3856 1.490 . S
C3852 H3842 0.930 . S
C3852 C3851 1.400 . S
C3852 C3855 1.386 . S
H3853 C3869 0.930 . S
H3854 C3870 0.931 . S
C3855 H3843 0.929 . S
C3855 C3849 1.390 . S
C3855 C3852 1.386 . S
C3856 C3851 1.490 . S
C3856 C3858 1.395 . S
C3856 C3859 1.403 . S
H3857 C3863 0.930 . S
C3858 H3844 0.930 . S
C3858 C3856 1.395 . S
C3858 C3861 1.403 . S
C3859 C3856 1.403 . S
C3859 C3860 1.524 . S
C3859 C3863 1.400 . S
C3860 H3845 0.960 . S
C3860 H3846 0.960 . S
C3860 H3847 0.960 . S
C3860 C3859 1.524 . S
C3861 C3858 1.403 . S
C3861 C3862 1.392 . S
C3861 C3865 1.495 . S
C3862 C3861 1.392 . S
C3862 C3863 1.385 . S
C3862 C3864 1.478 . S
C3863 H3857 0.930 . S
C3863 C3859 1.400 . S
C3863 C3862 1.385 . S
C3864 C3862 1.478 . S
C3864 C3866 1.381 . S
C3864 C3870 1.383 . S
C3865 C3861 1.495 . S
C3865 H3871 0.959 . S
C3865 H3872 0.961 . S
C3865 H3873 0.960 . S
C3866 C3864 1.381 . S
C3866 C3867 1.394 . S
C3866 H3874 0.930 . S
C3867 C3866 1.394 . S
C3867 C3868 1.383 . S
C3867 H3875 0.929 . S
C3868 C3867 1.383 . S
C3868 C3869 1.377 . S
C3869 H3853 0.930 . S
C3869 C3868 1.377 . S
C3869 C3870 1.379 . S
C3870 H3854 0.931 . S
C3870 C3864 1.383 . S
C3870 C3869 1.379 . S
H3871 C3865 0.959 . S
H3872 C3865 0.961 . S
H3873 C3865 0.960 . S
H3874 C3866 0.930 . S
H3875 C3867 0.929 . S
H3876 C3884 0.929 . S
H3877 C3886 0.930 . S
H3878 C3888 0.930 . S
H3879 C3891 0.929 . S
H3880 C3894 0.930 . S
H3881 C3896 0.960 . S
H3882 C3896 0.960 . S
H3883 C3896 0.960 . S
C3884 H3876 0.929 . S
C3884 C3885 1.377 . S
C3884 C3886 1.384 . S
C3885 C3884 1.377 . S
C3885 C3891 1.390 . S
C3886 H3877 0.930 . S
C3886 C3884 1.384 . S
C3886 C3887 1.372 . S
C3887 C3886 1.372 . S
C3887 C3888 1.400 . S
C3887 C3892 1.490 . S
C3888 H3878 0.930 . S
C3888 C3887 1.400 . S
C3888 C3891 1.386 . S
H3889 C3905 0.930 . S
H3890 C3906 0.931 . S
C3891 H3879 0.929 . S
C3891 C3885 1.390 . S
C3891 C3888 1.386 . S
C3892 C3887 1.490 . S
C3892 C3894 1.395 . S
C3892 C3895 1.403 . S
H3893 C3899 0.930 . S
C3894 H3880 0.930 . S
C3894 C3892 1.395 . S
C3894 C3897 1.403 . S
C3895 C3892 1.403 . S
C3895 C3896 1.524 . S
C3895 C3899 1.400 . S
C3896 H3881 0.960 . S
C3896 H3882 0.960 . S
C3896 H3883 0.960 . S
C3896 C3895 1.524 . S
C3897 C3894 1.403 . S
C3897 C3898 1.392 . S
C3897 C3901 1.495 . S
C3898 C3897 1.392 . S
C3898 C3899 1.385 . S
C3898 C3900 1.478 . S
C3899 H3893 0.930 . S
C3899 C3895 1.400 . S
C3899 C3898 1.385 . S
C3900 C3898 1.478 . S
C3900 C3902 1.381 . S
C3900 C3906 1.383 . S
C3901 C3897 1.495 . S
C3901 H3907 0.959 . S
C3901 H3908 0.961 . S
C3901 H3909 0.960 . S
C3902 C3900 1.381 . S
C3902 C3903 1.394 . S
C3902 H3910 0.930 . S
C3903 C3902 1.394 . S
C3903 C3904 1.383 . S
C3903 H3911 0.929 . S
C3904 C3903 1.383 . S
C3904 C3905 1.377 . S
C3905 H3889 0.930 . S
C3905 C3904 1.377 . S
C3905 C3906 1.379 . S
C3906 H3890 0.931 . S
C3906 C3900 1.383 . S
C3906 C3905 1.379 . S
H3907 C3901 0.959 . S
H3908 C3901 0.961 . S
H3909 C3901 0.960 . S
H3910 C3902 0.930 . S
H3911 C3903 0.929 . S
H3912 C3920 0.929 . S
H3913 C3922 0.930 . S
H3914 C3924 0.930 . S
H3915 C3927 0.929 . S
H3916 C3930 0.930 . S
H3917 C3932 0.960 . S
H3918 C3932 0.960 . S
H3919 C3932 0.960 . S
C3920 H3912 0.929 . S
C3920 C3921 1.377 . S
C3920 C3922 1.384 . S
C3921 C3920 1.377 . S
C3921 C3927 1.390 . S
C3922 H3913 0.930 . S
C3922 C3920 1.384 . S
C3922 C3923 1.372 . S
C3923 C3922 1.372 . S
C3923 C3924 1.400 . S
C3923 C3928 1.490 . S
C3924 H3914 0.930 . S
C3924 C3923 1.400 . S
C3924 C3927 1.386 . S
H3925 C3941 0.930 . S
H3926 C3942 0.931 . S
C3927 H3915 0.929 . S
C3927 C3921 1.390 . S
C3927 C3924 1.386 . S
C3928 C3923 1.490 . S
C3928 C3930 1.395 . S
C3928 C3931 1.403 . S
H3929 C3935 0.930 . S
C3930 H3916 0.930 . S
C3930 C3928 1.395 . S
C3930 C3933 1.403 . S
C3931 C3928 1.403 . S
C3931 C3932 1.524 . S
C3931 C3935 1.400 . S
C3932 H3917 0.960 . S
C3932 H3918 0.960 . S
C3932 H3919 0.960 . S
C3932 C3931 1.524 . S
C3933 C3930 1.403 . S
C3933 C3934 1.392 . S
C3933 C3937 1.495 . S
C3934 C3933 1.392 . S
C3934 C3935 1.385 . S
C3934 C3936 1.478 . S
C3935 H3929 0.930 . S
C3935 C3931 1.400 . S
C3935 C3934 1.385 . S
C3936 C3934 1.478 . S
C3936 C3938 1.381 . S
C3936 C3942 1.383 . S
C3937 C3933 1.495 . S
C3937 H3943 0.959 . S
C3937 H3944 0.961 . S
C3937 H3945 0.960 . S
C3938 C3936 1.381 . S
C3938 C3939 1.394 . S
C3938 H3946 0.930 . S
C3939 C3938 1.394 . S
C3939 C3940 1.383 . S
C3939 H3947 0.929 . S
C3940 C3939 1.383 . S
C3940 C3941 1.377 . S
C3941 H3925 0.930 . S
C3941 C3940 1.377 . S
C3941 C3942 1.379 . S
C3942 H3926 0.931 . S
C3942 C3936 1.383 . S
C3942 C3941 1.379 . S
H3943 C3937 0.959 . S
H3944 C3937 0.961 . S
H3945 C3937 0.960 . S
H3946 C3938 0.930 . S
H3947 C3939 0.929 . S
H3948 C3956 0.929 . S
H3949 C3958 0.930 . S
H3950 C3960 0.930 . S
H3951 C3963 0.929 . S
H3952 C3966 0.930 . S
H3953 C3968 0.960 . S
H3954 C3968 0.960 . S
H3955 C3968 0.960 . S
C3956 H3948 0.929 . S
C3956 C3957 1.377 . S
C3956 C3958 1.384 . S
C3957 C3956 1.377 . S
C3957 C3963 1.390 . S
C3958 H3949 0.930 . S
C3958 C3956 1.384 . S
C3958 C3959 1.372 . S
C3959 C3958 1.372 . S
C3959 C3960 1.400 . S
C3959 C3964 1.490 . S
C3960 H3950 0.930 . S
C3960 C3959 1.400 . S
C3960 C3963 1.386 . S
H3961 C3977 0.930 . S
H3962 C3978 0.931 . S
C3963 H3951 0.929 . S
C3963 C3957 1.390 . S
C3963 C3960 1.386 . S
C3964 C3959 1.490 . S
C3964 C3966 1.395 . S
C3964 C3967 1.403 . S
H3965 C3971 0.930 . S
C3966 H3952 0.930 . S
C3966 C3964 1.395 . S
C3966 C3969 1.403 . S
C3967 C3964 1.403 . S
C3967 C3968 1.524 . S
C3967 C3971 1.400 . S
C3968 H3953 0.960 . S
C3968 H3954 0.960 . S
C3968 H3955 0.960 . S
C3968 C3967 1.524 . S
C3969 C3966 1.403 . S
C3969 C3970 1.392 . S
C3969 C3973 1.495 . S
C3970 C3969 1.392 . S
C3970 C3971 1.385 . S
C3970 C3972 1.478 . S
C3971 H3965 0.930 . S
C3971 C3967 1.400 . S
C3971 C3970 1.385 . S
C3972 C3970 1.478 . S
C3972 C3974 1.381 . S
C3972 C3978 1.383 . S
C3973 C3969 1.495 . S
C3973 H3979 0.959 . S
C3973 H3980 0.961 . S
C3973 H3981 0.960 . S
C3974 C3972 1.381 . S
C3974 C3975 1.394 . S
C3974 H3982 0.930 . S
C3975 C3974 1.394 . S
C3975 C3976 1.383 . S
C3975 H3983 0.929 . S
C3976 C3975 1.383 . S
C3976 C3977 1.377 . S
C3977 H3961 0.930 . S
C3977 C3976 1.377 . S
C3977 C3978 1.379 . S
C3978 H3962 0.931 . S
C3978 C3972 1.383 . S
C3978 C3977 1.379 . S
H3979 C3973 0.959 . S
H3980 C3973 0.961 . S
H3981 C3973 0.960 . S
H3982 C3974 0.930 . S
H3983 C3975 0.929 . S
H3984 C3992 0.929 . S
H3985 C3994 0.930 . S
H3986 C3996 0.930 . S
H3987 C3999 0.929 . S
H3988 C4002 0.930 . S
H3989 C4004 0.960 . S
H3990 C4004 0.960 . S
H3991 C4004 0.960 . S
C3992 H3984 0.929 . S
C3992 C3993 1.377 . S
C3992 C3994 1.384 . S
C3993 C3992 1.377 . S
C3993 C3999 1.390 . S
C3994 H3985 0.930 . S
C3994 C3992 1.384 . S
C3994 C3995 1.372 . S
C3995 C3994 1.372 . S
C3995 C3996 1.400 . S
C3995 C4000 1.490 . S
C3996 H3986 0.930 . S
C3996 C3995 1.400 . S
C3996 C3999 1.386 . S
H3997 C4013 0.930 . S
H3998 C4014 0.931 . S
C3999 H3987 0.929 . S
C3999 C3993 1.390 . S
C3999 C3996 1.386 . S
C4000 C3995 1.490 . S
C4000 C4002 1.395 . S
C4000 C4003 1.403 . S
H4001 C4007 0.930 . S
C4002 H3988 0.930 . S
C4002 C4000 1.395 . S
C4002 C4005 1.403 . S
C4003 C4000 1.403 . S
C4003 C4004 1.524 . S
C4003 C4007 1.400 . S
C4004 H3989 0.960 . S
C4004 H3990 0.960 . S
C4004 H3991 0.960 . S
C4004 C4003 1.524 . S
C4005 C4002 1.403 . S
C4005 C4006 1.392 . S
C4005 C4009 1.495 . S
C4006 C4005 1.392 . S
C4006 C4007 1.385 . S
C4006 C4008 1.478 . S
C4007 H4001 0.930 . S
C4007 C4003 1.400 . S
C4007 C4006 1.385 . S
C4008 C4006 1.478 . S
C4008 C4010 1.381 . S
C4008 C4014 1.383 . S
C4009 C4005 1.495 . S
C4009 H4015 0.959 . S
C4009 H4016 0.961 . S
C4009 H4017 0.960 . S
C4010 C4008 1.381 . S
C4010 C4011 1.394 . S
C4010 H4018 0.930 . S
C4011 C4010 1.394 . S
C4011 C4012 1.383 . S
C4011 H4019 0.929 . S
C4012 C4011 1.383 . S
C4012 C4013 1.377 . S
C4013 H3997 0.930 . S
C4013 C4012 1.377 . S
C4013 C4014 1.379 . S
C4014 H3998 0.931 . S
C4014 C4008 1.383 . S
C4014 C4013 1.379 . S
H4015 C4009 0.959 . S
H4016 C4009 0.961 . S
H4017 C4009 0.960 . S
H4018 C4010 0.930 . S
H4019 C4011 0.929 . S
H4020 C4028 0.929 . S
H4021 C4030 0.930 . S
H4022 C4032 0.930 . S
H4023 C4035 0.929 . S
H4024 C4038 0.930 . S
H4025 C4040 0.960 . S
H4026 C4040 0.960 . S
H4027 C4040 0.960 . S
C4028 H4020 0.929 . S
C4028 C4029 1.377 . S
C4028 C4030 1.384 . S
C4029 C4028 1.377 . S
C4029 C4035 1.390 . S
C4030 H4021 0.930 . S
C4030 C4028 1.384 . S
C4030 C4031 1.372 . S
C4031 C4030 1.372 . S
C4031 C4032 1.400 . S
C4031 C4036 1.490 . S
C4032 H4022 0.930 . S
C4032 C4031 1.400 . S
C4032 C4035 1.386 . S
H4033 C4049 0.930 . S
H4034 C4050 0.931 . S
C4035 H4023 0.929 . S
C4035 C4029 1.390 . S
C4035 C4032 1.386 . S
C4036 C4031 1.490 . S
C4036 C4038 1.395 . S
C4036 C4039 1.403 . S
H4037 C4043 0.930 . S
C4038 H4024 0.930 . S
C4038 C4036 1.395 . S
C4038 C4041 1.403 . S
C4039 C4036 1.403 . S
C4039 C4040 1.524 . S
C4039 C4043 1.400 . S
C4040 H4025 0.960 . S
C4040 H4026 0.960 . S
C4040 H4027 0.960 . S
C4040 C4039 1.524 . S
C4041 C4038 1.403 . S
C4041 C4042 1.392 . S
C4041 C4045 1.495 . S
C4042 C4041 1.392 . S
C4042 C4043 1.385 . S
C4042 C4044 1.478 . S
C4043 H4037 0.930 . S
C4043 C4039 1.400 . S
C4043 C4042 1.385 . S
C4044 C4042 1.478 . S
C4044 C4046 1.381 . S
C4044 C4050 1.383 . S
C4045 C4041 1.495 . S
C4045 H4051 0.959 . S
C4045 H4052 0.961 . S
C4045 H4053 0.960 . S
C4046 C4044 1.381 . S
C4046 C4047 1.394 . S
C4046 H4054 0.930 . S
C4047 C4046 1.394 . S
C4047 C4048 1.383 . S
C4047 H4055 0.929 . S
C4048 C4047 1.383 . S
C4048 C4049 1.377 . S
C4049 H4033 0.930 . S
C4049 C4048 1.377 . S
C4049 C4050 1.379 . S
C4050 H4034 0.931 . S
C4050 C4044 1.383 . S
C4050 C4049 1.379 . S
H4051 C4045 0.959 . S
H4052 C4045 0.961 . S
H4053 C4045 0.960 . S
H4054 C4046 0.930 . S
H4055 C4047 0.929 . S
H4056 C4064 0.929 . S
H4057 C4066 0.930 . S
H4058 C4068 0.930 . S
H4059 C4071 0.929 . S
H4060 C4074 0.930 . S
H4061 C4076 0.960 . S
H4062 C4076 0.960 . S
H4063 C4076 0.960 . S
C4064 H4056 0.929 . S
C4064 C4065 1.377 . S
C4064 C4066 1.384 . S
C4065 C4064 1.377 . S
C4065 C4071 1.390 . S
C4066 H4057 0.930 . S
C4066 C4064 1.384 . S
C4066 C4067 1.372 . S
C4067 C4066 1.372 . S
C4067 C4068 1.400 . S
C4067 C4072 1.490 . S
C4068 H4058 0.930 . S
C4068 C4067 1.400 . S
C4068 C4071 1.386 . S
H4069 C4085 0.930 . S
H4070 C4086 0.931 . S
C4071 H4059 0.929 . S
C4071 C4065 1.390 . S
C4071 C4068 1.386 . S
C4072 C4067 1.490 . S
C4072 C4074 1.395 . S
C4072 C4075 1.403 . S
H4073 C4079 0.930 . S
C4074 H4060 0.930 . S
C4074 C4072 1.395 . S
C4074 C4077 1.403 . S
C4075 C4072 1.403 . S
C4075 C4076 1.524 . S
C4075 C4079 1.400 . S
C4076 H4061 0.960 . S
C4076 H4062 0.960 . S
C4076 H4063 0.960 . S
C4076 C4075 1.524 . S
C4077 C4074 1.403 . S
C4077 C4078 1.392 . S
C4077 C4081 1.495 . S
C4078 C4077 1.392 . S
C4078 C4079 1.385 . S
C4078 C4080 1.478 . S
C4079 H4073 0.930 . S
C4079 C4075 1.400 . S
C4079 C4078 1.385 . S
C4080 C4078 1.478 . S
C4080 C4082 1.381 . S
C4080 C4086 1.383 . S
C4081 C4077 1.495 . S
C4081 H4087 0.959 . S
C4081 H4088 0.961 . S
C4081 H4089 0.960 . S
C4082 C4080 1.381 . S
C4082 C4083 1.394 . S
C4082 H4090 0.930 . S
C4083 C4082 1.394 . S
C4083 C4084 1.383 . S
C4083 H4091 0.929 . S
C4084 C4083 1.383 . S
C4084 C4085 1.377 . S
C4085 H4069 0.930 . S
C4085 C4084 1.377 . S
C4085 C4086 1.379 . S
C4086 H4070 0.931 . S
C4086 C4080 1.383 . S
C4086 C4085 1.379 . S
H4087 C4081 0.959 . S
H4088 C4081 0.961 . S
H4089 C4081 0.960 . S
H4090 C4082 0.930 . S
H4091 C4083 0.929 . S
H4092 C4100 0.929 . S
H4093 C4102 0.930 . S
H4094 C4104 0.930 . S
H4095 C4107 0.929 . S
H4096 C4110 0.930 . S
H4097 C4112 0.960 . S
H4098 C4112 0.960 . S
H4099 C4112 0.960 . S
C4100 H4092 0.929 . S
C4100 C4101 1.377 1_556 S
C4100 C4102 1.384 . S
C4101 C4100 1.377 1_554 S
C4101 C4107 1.390 . S
C4102 H4093 0.930 . S
C4102 C4100 1.384 . S
C4102 C4103 1.372 1_556 S
C4103 C4102 1.372 1_554 S
C4103 C4104 1.400 . S
C4103 C4108 1.490 . S
C4104 H4094 0.930 . S
C4104 C4103 1.400 . S
C4104 C4107 1.386 . S
H4105 C4121 0.930 . S
H4106 C4122 0.931 . S
C4107 H4095 0.929 . S
C4107 C4101 1.390 . S
C4107 C4104 1.386 . S
C4108 C4103 1.490 . S
C4108 C4110 1.395 . S
C4108 C4111 1.402 1_554 S
H4109 C4115 0.930 1_556 S
C4110 H4096 0.930 . S
C4110 C4108 1.395 . S
C4110 C4113 1.403 . S
C4111 C4108 1.402 1_556 S
C4111 C4112 1.524 . S
C4111 C4115 1.400 1_556 S
C4112 H4097 0.960 . S
C4112 H4098 0.960 . S
C4112 H4099 0.960 . S
C4112 C4111 1.524 . S
C4113 C4110 1.403 . S
C4113 C4114 1.392 . S
C4113 C4117 1.495 1_565 S
C4114 C4113 1.392 . S
C4114 C4115 1.385 . S
C4114 C4116 1.478 . S
C4115 H4109 0.930 1_554 S
C4115 C4111 1.400 1_554 S
C4115 C4114 1.385 . S
C4116 C4114 1.478 . S
C4116 C4118 1.381 1_565 S
C4116 C4122 1.383 . S
C4117 C4113 1.495 1_545 S
C4117 H4123 0.959 . S
C4117 H4124 0.961 . S
C4117 H4125 0.960 . S
C4118 C4116 1.381 1_545 S
C4118 C4119 1.394 . S
C4118 H4126 0.930 1_554 S
C4119 C4118 1.394 . S
C4119 C4120 1.383 . S
C4119 H4127 0.930 1_554 S
C4120 C4119 1.383 . S
C4120 C4121 1.377 1_545 S
C4121 H4105 0.930 . S
C4121 C4120 1.377 1_565 S
C4121 C4122 1.379 . S
C4122 H4106 0.931 . S
C4122 C4116 1.383 . S
C4122 C4121 1.379 . S
H4123 C4117 0.959 . S
H4124 C4117 0.961 . S
H4125 C4117 0.960 . S
H4126 C4118 0.930 1_556 S
H4127 C4119 0.930 1_556 S
H4128 C4136 0.929 . S
H4129 C4138 0.930 . S
H4130 C4140 0.930 . S
H4131 C4143 0.929 . S
H4132 C4146 0.930 . S
H4133 C4148 0.960 . S
H4134 C4148 0.960 . S
H4135 C4148 0.960 . S
C4136 H4128 0.929 . S
C4136 C4137 1.377 . S
C4136 C4138 1.384 . S
C4137 C4136 1.377 . S
C4137 C4143 1.390 . S
C4138 H4129 0.930 . S
C4138 C4136 1.384 . S
C4138 C4139 1.372 . S
C4139 C4138 1.372 . S
C4139 C4140 1.400 . S
C4139 C4144 1.490 . S
C4140 H4130 0.930 . S
C4140 C4139 1.400 . S
C4140 C4143 1.386 . S
H4141 C4157 0.930 . S
H4142 C4158 0.931 . S
C4143 H4131 0.929 . S
C4143 C4137 1.390 . S
C4143 C4140 1.386 . S
C4144 C4139 1.490 . S
C4144 C4146 1.395 . S
C4144 C4147 1.403 . S
H4145 C4151 0.930 . S
C4146 H4132 0.930 . S
C4146 C4144 1.395 . S
C4146 C4149 1.403 . S
C4147 C4144 1.403 . S
C4147 C4148 1.524 . S
C4147 C4151 1.400 . S
C4148 H4133 0.960 . S
C4148 H4134 0.960 . S
C4148 H4135 0.960 . S
C4148 C4147 1.524 . S
C4149 C4146 1.403 . S
C4149 C4150 1.392 . S
C4149 C4153 1.495 . S
C4150 C4149 1.392 . S
C4150 C4151 1.385 . S
C4150 C4152 1.478 . S
C4151 H4145 0.930 . S
C4151 C4147 1.400 . S
C4151 C4150 1.385 . S
C4152 C4150 1.478 . S
C4152 C4154 1.381 . S
C4152 C4158 1.383 . S
C4153 C4149 1.495 . S
C4153 H4159 0.959 . S
C4153 H4160 0.961 . S
C4153 H4161 0.960 . S
C4154 C4152 1.381 . S
C4154 C4155 1.394 . S
C4154 H4162 0.930 . S
C4155 C4154 1.394 . S
C4155 C4156 1.383 . S
C4155 H4163 0.929 . S
C4156 C4155 1.383 . S
C4156 C4157 1.377 . S
C4157 H4141 0.930 . S
C4157 C4156 1.377 . S
C4157 C4158 1.379 . S
C4158 H4142 0.931 . S
C4158 C4152 1.383 . S
C4158 C4157 1.379 . S
H4159 C4153 0.959 . S
H4160 C4153 0.961 . S
H4161 C4153 0.960 . S
H4162 C4154 0.930 . S
H4163 C4155 0.929 . S
H4164 C4172 0.929 . S
H4165 C4174 0.930 . S
H4166 C4176 0.930 . S
H4167 C4179 0.929 . S
H4168 C4182 0.930 . S
H4169 C4184 0.960 . S
H4170 C4184 0.960 . S
H4171 C4184 0.960 . S
C4172 H4164 0.929 . S
C4172 C4173 1.377 1_556 S
C4172 C4174 1.384 . S
C4173 C4172 1.377 1_554 S
C4173 C4179 1.390 . S
C4174 H4165 0.930 . S
C4174 C4172 1.384 . S
C4174 C4175 1.372 1_556 S
C4175 C4174 1.372 1_554 S
C4175 C4176 1.400 . S
C4175 C4180 1.490 . S
C4176 H4166 0.930 . S
C4176 C4175 1.400 . S
C4176 C4179 1.386 . S
H4177 C4193 0.930 . S
H4178 C4194 0.931 . S
C4179 H4167 0.929 . S
C4179 C4173 1.390 . S
C4179 C4176 1.386 . S
C4180 C4175 1.490 . S
C4180 C4182 1.395 . S
C4180 C4183 1.403 . S
H4181 C4187 0.930 . S
C4182 H4168 0.930 . S
C4182 C4180 1.395 . S
C4182 C4185 1.403 . S
C4183 C4180 1.403 . S
C4183 C4184 1.524 . S
C4183 C4187 1.400 . S
C4184 H4169 0.960 . S
C4184 H4170 0.960 . S
C4184 H4171 0.960 . S
C4184 C4183 1.524 . S
C4185 C4182 1.403 . S
C4185 C4186 1.392 . S
C4185 C4189 1.495 . S
C4186 C4185 1.392 . S
C4186 C4187 1.385 . S
C4186 C4188 1.478 . S
C4187 H4181 0.930 . S
C4187 C4183 1.400 . S
C4187 C4186 1.385 . S
C4188 C4186 1.478 . S
C4188 C4190 1.381 . S
C4188 C4194 1.383 . S
C4189 C4185 1.495 . S
C4189 H4195 0.959 1_554 S
C4189 H4196 0.961 . S
C4189 H4197 0.960 1_554 S
C4190 C4188 1.381 . S
C4190 C4191 1.394 . S
C4190 H4198 0.930 1_554 S
C4191 C4190 1.394 . S
C4191 C4192 1.383 . S
C4191 H4199 0.929 1_554 S
C4192 C4191 1.383 . S
C4192 C4193 1.377 . S
C4193 H4177 0.930 . S
C4193 C4192 1.377 . S
C4193 C4194 1.379 . S
C4194 H4178 0.931 . S
C4194 C4188 1.383 . S
C4194 C4193 1.379 . S
H4195 C4189 0.959 1_556 S
H4196 C4189 0.961 . S
H4197 C4189 0.960 1_556 S
H4198 C4190 0.930 1_556 S
H4199 C4191 0.929 1_556 S
H4200 C4208 0.929 . S
H4201 C4210 0.930 . S
H4202 C4212 0.930 . S
H4203 C4215 0.929 . S
H4204 C4218 0.930 . S
H4205 C4220 0.960 . S
H4206 C4220 0.960 . S
H4207 C4220 0.960 . S
C4208 H4200 0.929 . S
C4208 C4209 1.377 . S
C4208 C4210 1.384 . S
C4209 C4208 1.377 . S
C4209 C4215 1.390 . S
C4210 H4201 0.930 . S
C4210 C4208 1.384 . S
C4210 C4211 1.372 . S
C4211 C4210 1.372 . S
C4211 C4212 1.400 . S
C4211 C4216 1.490 . S
C4212 H4202 0.930 . S
C4212 C4211 1.400 . S
C4212 C4215 1.386 . S
H4213 C4229 0.930 . S
H4214 C4230 0.931 . S
C4215 H4203 0.929 . S
C4215 C4209 1.390 . S
C4215 C4212 1.386 . S
C4216 C4211 1.490 . S
C4216 C4218 1.395 . S
C4216 C4219 1.403 . S
H4217 C4223 0.930 . S
C4218 H4204 0.930 . S
C4218 C4216 1.395 . S
C4218 C4221 1.403 . S
C4219 C4216 1.403 . S
C4219 C4220 1.524 . S
C4219 C4223 1.400 . S
C4220 H4205 0.960 . S
C4220 H4206 0.960 . S
C4220 H4207 0.960 . S
C4220 C4219 1.524 . S
C4221 C4218 1.403 . S
C4221 C4222 1.392 . S
C4221 C4225 1.495 . S
C4222 C4221 1.392 . S
C4222 C4223 1.385 . S
C4222 C4224 1.478 . S
C4223 H4217 0.930 . S
C4223 C4219 1.400 . S
C4223 C4222 1.385 . S
C4224 C4222 1.478 . S
C4224 C4226 1.381 . S
C4224 C4230 1.383 . S
C4225 C4221 1.495 . S
C4225 H4231 0.959 . S
C4225 H4232 0.961 . S
C4225 H4233 0.960 . S
C4226 C4224 1.381 . S
C4226 C4227 1.394 . S
C4226 H4234 0.930 . S
C4227 C4226 1.394 . S
C4227 C4228 1.383 . S
C4227 H4235 0.929 . S
C4228 C4227 1.383 . S
C4228 C4229 1.377 . S
C4229 H4213 0.930 . S
C4229 C4228 1.377 . S
C4229 C4230 1.379 . S
C4230 H4214 0.931 . S
C4230 C4224 1.383 . S
C4230 C4229 1.379 . S
H4231 C4225 0.959 . S
H4232 C4225 0.961 . S
H4233 C4225 0.960 . S
H4234 C4226 0.930 . S
H4235 C4227 0.929 . S
H4236 C4244 0.929 . S
H4237 C4246 0.930 . S
H4238 C4248 0.930 . S
H4239 C4251 0.929 . S
H4240 C4254 0.930 . S
H4241 C4256 0.960 . S
H4242 C4256 0.960 . S
H4243 C4256 0.960 . S
C4244 H4236 0.929 . S
C4244 C4245 1.377 . S
C4244 C4246 1.384 . S
C4245 C4244 1.377 . S
C4245 C4251 1.390 . S
C4246 H4237 0.930 . S
C4246 C4244 1.384 . S
C4246 C4247 1.372 . S
C4247 C4246 1.372 . S
C4247 C4248 1.400 . S
C4247 C4252 1.490 . S
C4248 H4238 0.930 . S
C4248 C4247 1.400 . S
C4248 C4251 1.386 . S
H4249 C4265 0.930 . S
H4250 C4266 0.931 . S
C4251 H4239 0.929 . S
C4251 C4245 1.390 . S
C4251 C4248 1.386 . S
C4252 C4247 1.490 . S
C4252 C4254 1.395 . S
C4252 C4255 1.403 . S
H4253 C4259 0.930 . S
C4254 H4240 0.930 . S
C4254 C4252 1.395 . S
C4254 C4257 1.403 . S
C4255 C4252 1.403 . S
C4255 C4256 1.524 . S
C4255 C4259 1.400 . S
C4256 H4241 0.960 . S
C4256 H4242 0.960 . S
C4256 H4243 0.960 . S
C4256 C4255 1.524 . S
C4257 C4254 1.403 . S
C4257 C4258 1.392 . S
C4257 C4261 1.495 . S
C4258 C4257 1.392 . S
C4258 C4259 1.385 . S
C4258 C4260 1.478 . S
C4259 H4253 0.930 . S
C4259 C4255 1.400 . S
C4259 C4258 1.385 . S
C4260 C4258 1.478 . S
C4260 C4262 1.381 . S
C4260 C4266 1.383 . S
C4261 C4257 1.495 . S
C4261 H4267 0.959 . S
C4261 H4268 0.961 . S
C4261 H4269 0.960 . S
C4262 C4260 1.381 . S
C4262 C4263 1.394 . S
C4262 H4270 0.930 . S
C4263 C4262 1.394 . S
C4263 C4264 1.383 . S
C4263 H4271 0.929 . S
C4264 C4263 1.383 . S
C4264 C4265 1.377 . S
C4265 H4249 0.930 . S
C4265 C4264 1.377 . S
C4265 C4266 1.379 . S
C4266 H4250 0.931 . S
C4266 C4260 1.383 . S
C4266 C4265 1.379 . S
H4267 C4261 0.959 . S
H4268 C4261 0.961 . S
H4269 C4261 0.960 . S
H4270 C4262 0.930 . S
H4271 C4263 0.929 . S
H4272 C4280 0.929 . S
H4273 C4282 0.930 . S
H4274 C4284 0.930 . S
H4275 C4287 0.929 . S
H4276 C4290 0.930 . S
H4277 C4292 0.960 . S
H4278 C4292 0.960 . S
H4279 C4292 0.960 . S
C4280 H4272 0.929 . S
C4280 C4281 1.377 . S
C4280 C4282 1.384 . S
C4281 C4280 1.377 . S
C4281 C4287 1.390 . S
C4282 H4273 0.930 . S
C4282 C4280 1.384 . S
C4282 C4283 1.372 . S
C4283 C4282 1.372 . S
C4283 C4284 1.400 . S
C4283 C4288 1.490 . S
C4284 H4274 0.930 . S
C4284 C4283 1.400 . S
C4284 C4287 1.386 . S
H4285 C4301 0.930 . S
H4286 C4302 0.931 . S
C4287 H4275 0.929 . S
C4287 C4281 1.390 . S
C4287 C4284 1.386 . S
C4288 C4283 1.490 . S
C4288 C4290 1.395 . S
C4288 C4291 1.403 . S
H4289 C4295 0.930 . S
C4290 H4276 0.930 . S
C4290 C4288 1.395 . S
C4290 C4293 1.403 . S
C4291 C4288 1.403 . S
C4291 C4292 1.524 . S
C4291 C4295 1.400 . S
C4292 H4277 0.960 . S
C4292 H4278 0.960 . S
C4292 H4279 0.960 . S
C4292 C4291 1.524 . S
C4293 C4290 1.403 . S
C4293 C4294 1.392 . S
C4293 C4297 1.495 . S
C4294 C4293 1.392 . S
C4294 C4295 1.385 . S
C4294 C4296 1.478 . S
C4295 H4289 0.930 . S
C4295 C4291 1.400 . S
C4295 C4294 1.385 . S
C4296 C4294 1.478 . S
C4296 C4298 1.381 . S
C4296 C4302 1.383 . S
C4297 C4293 1.495 . S
C4297 H4303 0.959 . S
C4297 H4304 0.961 . S
C4297 H4305 0.960 . S
C4298 C4296 1.381 . S
C4298 C4299 1.394 . S
C4298 H4306 0.930 . S
C4299 C4298 1.394 . S
C4299 C4300 1.383 . S
C4299 H4307 0.929 . S
C4300 C4299 1.383 . S
C4300 C4301 1.377 . S
C4301 H4285 0.930 . S
C4301 C4300 1.377 . S
C4301 C4302 1.379 . S
C4302 H4286 0.931 . S
C4302 C4296 1.383 . S
C4302 C4301 1.379 . S
H4303 C4297 0.959 . S
H4304 C4297 0.961 . S
H4305 C4297 0.960 . S
H4306 C4298 0.930 . S
H4307 C4299 0.929 . S
H4308 C4316 0.929 . S
H4309 C4318 0.930 . S
H4310 C4320 0.930 . S
H4311 C4323 0.929 . S
H4312 C4326 0.930 . S
H4313 C4328 0.960 . S
H4314 C4328 0.960 . S
H4315 C4328 0.960 . S
C4316 H4308 0.929 . S
C4316 C4317 1.377 . S
C4316 C4318 1.384 . S
C4317 C4316 1.377 . S
C4317 C4323 1.390 . S
C4318 H4309 0.930 . S
C4318 C4316 1.384 . S
C4318 C4319 1.372 . S
C4319 C4318 1.372 . S
C4319 C4320 1.400 . S
C4319 C4324 1.490 . S
C4320 H4310 0.930 . S
C4320 C4319 1.400 . S
C4320 C4323 1.386 . S
H4321 C4337 0.930 . S
H4322 C4338 0.931 . S
C4323 H4311 0.929 . S
C4323 C4317 1.390 . S
C4323 C4320 1.386 . S
C4324 C4319 1.490 . S
C4324 C4326 1.395 . S
C4324 C4327 1.403 . S
H4325 C4331 0.930 . S
C4326 H4312 0.930 . S
C4326 C4324 1.395 . S
C4326 C4329 1.403 . S
C4327 C4324 1.403 . S
C4327 C4328 1.524 . S
C4327 C4331 1.400 . S
C4328 H4313 0.960 . S
C4328 H4314 0.960 . S
C4328 H4315 0.960 . S
C4328 C4327 1.524 . S
C4329 C4326 1.403 . S
C4329 C4330 1.392 . S
C4329 C4333 1.495 . S
C4330 C4329 1.392 . S
C4330 C4331 1.385 . S
C4330 C4332 1.478 . S
C4331 H4325 0.930 . S
C4331 C4327 1.400 . S
C4331 C4330 1.385 . S
C4332 C4330 1.478 . S
C4332 C4334 1.381 . S
C4332 C4338 1.383 . S
C4333 C4329 1.495 . S
C4333 H4339 0.959 . S
C4333 H4340 0.961 . S
C4333 H4341 0.960 . S
C4334 C4332 1.381 . S
C4334 C4335 1.394 . S
C4334 H4342 0.930 . S
C4335 C4334 1.394 . S
C4335 C4336 1.383 . S
C4335 H4343 0.929 . S
C4336 C4335 1.383 . S
C4336 C4337 1.377 . S
C4337 H4321 0.930 . S
C4337 C4336 1.377 . S
C4337 C4338 1.379 . S
C4338 H4322 0.931 . S
C4338 C4332 1.383 . S
C4338 C4337 1.379 . S
H4339 C4333 0.959 . S
H4340 C4333 0.961 . S
H4341 C4333 0.960 . S
H4342 C4334 0.930 . S
H4343 C4335 0.929 . S
H4344 C4352 0.929 . S
H4345 C4354 0.930 . S
H4346 C4356 0.930 . S
H4347 C4359 0.929 . S
H4348 C4362 0.930 . S
H4349 C4364 0.960 . S
H4350 C4364 0.960 . S
H4351 C4364 0.960 . S
C4352 H4344 0.929 . S
C4352 C4353 1.377 . S
C4352 C4354 1.384 . S
C4353 C4352 1.377 . S
C4353 C4359 1.390 . S
C4354 H4345 0.930 . S
C4354 C4352 1.384 . S
C4354 C4355 1.372 . S
C4355 C4354 1.372 . S
C4355 C4356 1.400 . S
C4355 C4360 1.490 . S
C4356 H4346 0.930 . S
C4356 C4355 1.400 . S
C4356 C4359 1.386 . S
H4357 C4373 0.930 . S
H4358 C4374 0.931 . S
C4359 H4347 0.929 . S
C4359 C4353 1.390 . S
C4359 C4356 1.386 . S
C4360 C4355 1.490 . S
C4360 C4362 1.395 . S
C4360 C4363 1.403 . S
H4361 C4367 0.930 . S
C4362 H4348 0.930 . S
C4362 C4360 1.395 . S
C4362 C4365 1.403 . S
C4363 C4360 1.403 . S
C4363 C4364 1.524 . S
C4363 C4367 1.400 . S
C4364 H4349 0.960 . S
C4364 H4350 0.960 . S
C4364 H4351 0.960 . S
C4364 C4363 1.524 . S
C4365 C4362 1.403 . S
C4365 C4366 1.392 . S
C4365 C4369 1.495 . S
C4366 C4365 1.392 . S
C4366 C4367 1.385 . S
C4366 C4368 1.478 . S
C4367 H4361 0.930 . S
C4367 C4363 1.400 . S
C4367 C4366 1.385 . S
C4368 C4366 1.478 . S
C4368 C4370 1.381 . S
C4368 C4374 1.383 . S
C4369 C4365 1.495 . S
C4369 H4375 0.959 . S
C4369 H4376 0.961 . S
C4369 H4377 0.960 . S
C4370 C4368 1.381 . S
C4370 C4371 1.394 . S
C4370 H4378 0.930 . S
C4371 C4370 1.394 . S
C4371 C4372 1.383 . S
C4371 H4379 0.929 . S
C4372 C4371 1.383 . S
C4372 C4373 1.377 . S
C4373 H4357 0.930 . S
C4373 C4372 1.377 . S
C4373 C4374 1.379 . S
C4374 H4358 0.931 . S
C4374 C4368 1.383 . S
C4374 C4373 1.379 . S
H4375 C4369 0.959 . S
H4376 C4369 0.961 . S
H4377 C4369 0.960 . S
H4378 C4370 0.930 . S
H4379 C4371 0.929 . S
H4380 C4388 0.929 . S
H4381 C4390 0.930 . S
H4382 C4392 0.930 . S
H4383 C4395 0.929 . S
H4384 C4398 0.930 . S
H4385 C4400 0.960 . S
H4386 C4400 0.960 . S
H4387 C4400 0.960 . S
C4388 H4380 0.929 . S
C4388 C4389 1.377 . S
C4388 C4390 1.384 . S
C4389 C4388 1.377 . S
C4389 C4395 1.390 . S
C4390 H4381 0.930 . S
C4390 C4388 1.384 . S
C4390 C4391 1.372 . S
C4391 C4390 1.372 . S
C4391 C4392 1.400 . S
C4391 C4396 1.490 . S
C4392 H4382 0.930 . S
C4392 C4391 1.400 . S
C4392 C4395 1.386 . S
H4393 C4409 0.930 . S
H4394 C4410 0.931 . S
C4395 H4383 0.929 . S
C4395 C4389 1.390 . S
C4395 C4392 1.386 . S
C4396 C4391 1.490 . S
C4396 C4398 1.395 . S
C4396 C4399 1.403 . S
H4397 C4403 0.930 . S
C4398 H4384 0.930 . S
C4398 C4396 1.395 . S
C4398 C4401 1.403 . S
C4399 C4396 1.403 . S
C4399 C4400 1.524 . S
C4399 C4403 1.400 . S
C4400 H4385 0.960 . S
C4400 H4386 0.960 . S
C4400 H4387 0.960 . S
C4400 C4399 1.524 . S
C4401 C4398 1.403 . S
C4401 C4402 1.392 . S
C4401 C4405 1.495 . S
C4402 C4401 1.392 . S
C4402 C4403 1.385 . S
C4402 C4404 1.478 . S
C4403 H4397 0.930 . S
C4403 C4399 1.400 . S
C4403 C4402 1.385 . S
C4404 C4402 1.478 . S
C4404 C4406 1.381 . S
C4404 C4410 1.383 . S
C4405 C4401 1.495 . S
C4405 H4411 0.959 . S
C4405 H4412 0.961 . S
C4405 H4413 0.960 . S
C4406 C4404 1.381 . S
C4406 C4407 1.394 . S
C4406 H4414 0.930 . S
C4407 C4406 1.394 . S
C4407 C4408 1.383 . S
C4407 H4415 0.929 . S
C4408 C4407 1.383 . S
C4408 C4409 1.377 . S
C4409 H4393 0.930 . S
C4409 C4408 1.377 . S
C4409 C4410 1.379 . S
C4410 H4394 0.931 . S
C4410 C4404 1.383 . S
C4410 C4409 1.379 . S
H4411 C4405 0.959 . S
H4412 C4405 0.961 . S
H4413 C4405 0.960 . S
H4414 C4406 0.930 . S
H4415 C4407 0.929 . S
H4416 C4424 0.929 . S
H4417 C4426 0.930 . S
H4418 C4428 0.930 . S
H4419 C4431 0.929 . S
H4420 C4434 0.930 . S
H4421 C4436 0.960 . S
H4422 C4436 0.960 . S
H4423 C4436 0.960 . S
C4424 H4416 0.929 . S
C4424 C4425 1.377 . S
C4424 C4426 1.384 . S
C4425 C4424 1.377 . S
C4425 C4431 1.390 . S
C4426 H4417 0.930 . S
C4426 C4424 1.384 . S
C4426 C4427 1.372 . S
C4427 C4426 1.372 . S
C4427 C4428 1.400 . S
C4427 C4432 1.490 . S
C4428 H4418 0.930 . S
C4428 C4427 1.400 . S
C4428 C4431 1.386 . S
H4429 C4445 0.930 . S
H4430 C4446 0.931 . S
C4431 H4419 0.929 . S
C4431 C4425 1.390 . S
C4431 C4428 1.386 . S
C4432 C4427 1.490 . S
C4432 C4434 1.395 . S
C4432 C4435 1.403 . S
H4433 C4439 0.930 . S
C4434 H4420 0.930 . S
C4434 C4432 1.395 . S
C4434 C4437 1.403 . S
C4435 C4432 1.403 . S
C4435 C4436 1.524 . S
C4435 C4439 1.400 . S
C4436 H4421 0.960 . S
C4436 H4422 0.960 . S
C4436 H4423 0.960 . S
C4436 C4435 1.524 . S
C4437 C4434 1.403 . S
C4437 C4438 1.392 . S
C4437 C4441 1.495 . S
C4438 C4437 1.392 . S
C4438 C4439 1.385 . S
C4438 C4440 1.478 . S
C4439 H4433 0.930 . S
C4439 C4435 1.400 . S
C4439 C4438 1.385 . S
C4440 C4438 1.478 . S
C4440 C4442 1.381 . S
C4440 C4446 1.383 . S
C4441 C4437 1.495 . S
C4441 H4447 0.959 . S
C4441 H4448 0.961 . S
C4441 H4449 0.960 . S
C4442 C4440 1.381 . S
C4442 C4443 1.394 . S
C4442 H4450 0.930 . S
C4443 C4442 1.394 . S
C4443 C4444 1.383 . S
C4443 H4451 0.929 . S
C4444 C4443 1.383 . S
C4444 C4445 1.377 . S
C4445 H4429 0.930 . S
C4445 C4444 1.377 . S
C4445 C4446 1.379 . S
C4446 H4430 0.931 . S
C4446 C4440 1.383 . S
C4446 C4445 1.379 . S
H4447 C4441 0.959 . S
H4448 C4441 0.961 . S
H4449 C4441 0.960 . S
H4450 C4442 0.930 . S
H4451 C4443 0.929 . S
H4452 C4460 0.929 . S
H4453 C4462 0.930 . S
H4454 C4464 0.930 . S
H4455 C4467 0.929 . S
H4456 C4470 0.930 . S
H4457 C4472 0.960 . S
H4458 C4472 0.960 . S
H4459 C4472 0.960 . S
C4460 H4452 0.929 . S
C4460 C4461 1.377 . S
C4460 C4462 1.384 . S
C4461 C4460 1.377 . S
C4461 C4467 1.390 . S
C4462 H4453 0.930 . S
C4462 C4460 1.384 . S
C4462 C4463 1.372 . S
C4463 C4462 1.372 . S
C4463 C4464 1.400 . S
C4463 C4468 1.490 . S
C4464 H4454 0.930 . S
C4464 C4463 1.400 . S
C4464 C4467 1.386 . S
H4465 C4481 0.930 . S
H4466 C4482 0.931 . S
C4467 H4455 0.929 . S
C4467 C4461 1.390 . S
C4467 C4464 1.386 . S
C4468 C4463 1.490 . S
C4468 C4470 1.395 . S
C4468 C4471 1.403 . S
H4469 C4475 0.930 . S
C4470 H4456 0.930 . S
C4470 C4468 1.395 . S
C4470 C4473 1.403 . S
C4471 C4468 1.403 . S
C4471 C4472 1.524 . S
C4471 C4475 1.400 . S
C4472 H4457 0.960 . S
C4472 H4458 0.960 . S
C4472 H4459 0.960 . S
C4472 C4471 1.524 . S
C4473 C4470 1.403 . S
C4473 C4474 1.392 . S
C4473 C4477 1.495 . S
C4474 C4473 1.392 . S
C4474 C4475 1.385 . S
C4474 C4476 1.478 . S
C4475 H4469 0.930 . S
C4475 C4471 1.400 . S
C4475 C4474 1.385 . S
C4476 C4474 1.478 . S
C4476 C4478 1.381 . S
C4476 C4482 1.383 . S
C4477 C4473 1.495 . S
C4477 H4483 0.959 . S
C4477 H4484 0.961 . S
C4477 H4485 0.960 . S
C4478 C4476 1.381 . S
C4478 C4479 1.394 . S
C4478 H4486 0.930 . S
C4479 C4478 1.394 . S
C4479 C4480 1.383 . S
C4479 H4487 0.929 . S
C4480 C4479 1.383 . S
C4480 C4481 1.377 . S
C4481 H4465 0.930 . S
C4481 C4480 1.377 . S
C4481 C4482 1.379 . S
C4482 H4466 0.931 . S
C4482 C4476 1.383 . S
C4482 C4481 1.379 . S
H4483 C4477 0.959 . S
H4484 C4477 0.961 . S
H4485 C4477 0.960 . S
H4486 C4478 0.930 . S
H4487 C4479 0.929 . S
H4488 C4496 0.929 . S
H4489 C4498 0.930 . S
H4490 C4500 0.930 . S
H4491 C4503 0.929 . S
H4492 C4506 0.930 . S
H4493 C4508 0.960 1_655 S
H4494 C4508 0.960 . S
H4495 C4508 0.960 . S
C4496 H4488 0.929 . S
C4496 C4497 1.377 . S
C4496 C4498 1.384 . S
C4497 C4496 1.377 . S
C4497 C4503 1.390 . S
C4498 H4489 0.930 . S
C4498 C4496 1.384 . S
C4498 C4499 1.372 . S
C4499 C4498 1.372 . S
C4499 C4500 1.400 . S
C4499 C4504 1.490 . S
C4500 H4490 0.930 . S
C4500 C4499 1.400 . S
C4500 C4503 1.386 . S
H4501 C4517 0.930 . S
H4502 C4518 0.931 . S
C4503 H4491 0.929 . S
C4503 C4497 1.390 . S
C4503 C4500 1.386 . S
C4504 C4499 1.490 . S
C4504 C4506 1.395 . S
C4504 C4507 1.403 . S
H4505 C4511 0.930 . S
C4506 H4492 0.930 . S
C4506 C4504 1.395 . S
C4506 C4509 1.403 . S
C4507 C4504 1.403 . S
C4507 C4508 1.524 . S
C4507 C4511 1.400 . S
C4508 H4493 0.960 1_455 S
C4508 H4494 0.960 . S
C4508 H4495 0.960 . S
C4508 C4507 1.524 . S
C4509 C4506 1.403 . S
C4509 C4510 1.392 . S
C4509 C4513 1.495 . S
C4510 C4509 1.392 . S
C4510 C4511 1.385 . S
C4510 C4512 1.478 . S
C4511 H4505 0.930 . S
C4511 C4507 1.400 . S
C4511 C4510 1.385 . S
C4512 C4510 1.478 . S
C4512 C4514 1.381 . S
C4512 C4518 1.383 . S
C4513 C4509 1.495 . S
C4513 H4519 0.959 . S
C4513 H4520 0.961 . S
C4513 H4521 0.960 . S
C4514 C4512 1.381 . S
C4514 C4515 1.394 . S
C4514 H4522 0.930 . S
C4515 C4514 1.394 . S
C4515 C4516 1.383 . S
C4515 H4523 0.929 . S
C4516 C4515 1.383 . S
C4516 C4517 1.377 . S
C4517 H4501 0.930 . S
C4517 C4516 1.377 . S
C4517 C4518 1.379 . S
C4518 H4502 0.931 . S
C4518 C4512 1.383 . S
C4518 C4517 1.379 . S
H4519 C4513 0.959 . S
H4520 C4513 0.961 . S
H4521 C4513 0.960 . S
H4522 C4514 0.930 . S
H4523 C4515 0.929 . S
H4524 C4532 0.929 . S
H4525 C4534 0.930 . S
H4526 C4536 0.930 . S
H4527 C4539 0.929 . S
H4528 C4542 0.930 . S
H4529 C4544 0.960 . S
H4530 C4544 0.960 . S
H4531 C4544 0.960 . S
C4532 H4524 0.929 . S
C4532 C4533 1.377 . S
C4532 C4534 1.384 . S
C4533 C4532 1.377 . S
C4533 C4539 1.390 . S
C4534 H4525 0.930 . S
C4534 C4532 1.384 . S
C4534 C4535 1.372 . S
C4535 C4534 1.372 . S
C4535 C4536 1.400 . S
C4535 C4540 1.490 . S
C4536 H4526 0.930 . S
C4536 C4535 1.400 . S
C4536 C4539 1.386 . S
H4537 C4553 0.930 . S
H4538 C4554 0.931 . S
C4539 H4527 0.929 . S
C4539 C4533 1.390 . S
C4539 C4536 1.386 . S
C4540 C4535 1.490 . S
C4540 C4542 1.395 . S
C4540 C4543 1.403 . S
H4541 C4547 0.930 . S
C4542 H4528 0.930 . S
C4542 C4540 1.395 . S
C4542 C4545 1.403 . S
C4543 C4540 1.403 . S
C4543 C4544 1.524 . S
C4543 C4547 1.400 . S
C4544 H4529 0.960 . S
C4544 H4530 0.960 . S
C4544 H4531 0.960 . S
C4544 C4543 1.524 . S
C4545 C4542 1.403 . S
C4545 C4546 1.392 . S
C4545 C4549 1.495 . S
C4546 C4545 1.392 . S
C4546 C4547 1.385 . S
C4546 C4548 1.478 . S
C4547 H4541 0.930 . S
C4547 C4543 1.400 . S
C4547 C4546 1.385 . S
C4548 C4546 1.478 . S
C4548 C4550 1.381 . S
C4548 C4554 1.383 . S
C4549 C4545 1.495 . S
C4549 H4555 0.959 . S
C4549 H4556 0.961 . S
C4549 H4557 0.960 . S
C4550 C4548 1.381 . S
C4550 C4551 1.394 . S
C4550 H4558 0.930 . S
C4551 C4550 1.394 . S
C4551 C4552 1.383 . S
C4551 H4559 0.929 . S
C4552 C4551 1.383 . S
C4552 C4553 1.377 . S
C4553 H4537 0.930 . S
C4553 C4552 1.377 . S
C4553 C4554 1.379 . S
C4554 H4538 0.931 . S
C4554 C4548 1.383 . S
C4554 C4553 1.379 . S
H4555 C4549 0.959 . S
H4556 C4549 0.961 . S
H4557 C4549 0.960 . S
H4558 C4550 0.930 . S
H4559 C4551 0.929 . S
H4560 C4568 0.929 . S
H4561 C4570 0.930 . S
H4562 C4572 0.930 . S
H4563 C4575 0.929 . S
H4564 C4578 0.930 . S
H4565 C4580 0.960 . S
H4566 C4580 0.960 . S
H4567 C4580 0.960 . S
C4568 H4560 0.929 . S
C4568 C4569 1.377 . S
C4568 C4570 1.384 . S
C4569 C4568 1.377 . S
C4569 C4575 1.390 . S
C4570 H4561 0.930 . S
C4570 C4568 1.384 . S
C4570 C4571 1.372 . S
C4571 C4570 1.372 . S
C4571 C4572 1.400 . S
C4571 C4576 1.490 . S
C4572 H4562 0.930 . S
C4572 C4571 1.400 . S
C4572 C4575 1.386 . S
H4573 C4589 0.930 . S
H4574 C4590 0.931 . S
C4575 H4563 0.929 . S
C4575 C4569 1.390 . S
C4575 C4572 1.386 . S
C4576 C4571 1.490 . S
C4576 C4578 1.395 . S
C4576 C4579 1.403 . S
H4577 C4583 0.930 . S
C4578 H4564 0.930 . S
C4578 C4576 1.395 . S
C4578 C4581 1.403 . S
C4579 C4576 1.403 . S
C4579 C4580 1.524 . S
C4579 C4583 1.400 . S
C4580 H4565 0.960 . S
C4580 H4566 0.960 . S
C4580 H4567 0.960 . S
C4580 C4579 1.524 . S
C4581 C4578 1.403 . S
C4581 C4582 1.392 . S
C4581 C4585 1.495 . S
C4582 C4581 1.392 . S
C4582 C4583 1.385 . S
C4582 C4584 1.478 . S
C4583 H4577 0.930 . S
C4583 C4579 1.400 . S
C4583 C4582 1.385 . S
C4584 C4582 1.478 . S
C4584 C4586 1.381 . S
C4584 C4590 1.383 . S
C4585 C4581 1.495 . S
C4585 H4591 0.959 . S
C4585 H4592 0.961 . S
C4585 H4593 0.960 . S
C4586 C4584 1.381 . S
C4586 C4587 1.394 . S
C4586 H4594 0.930 . S
C4587 C4586 1.394 . S
C4587 C4588 1.383 . S
C4587 H4595 0.929 . S
C4588 C4587 1.383 . S
C4588 C4589 1.377 . S
C4589 H4573 0.930 . S
C4589 C4588 1.377 . S
C4589 C4590 1.379 . S
C4590 H4574 0.931 . S
C4590 C4584 1.383 . S
C4590 C4589 1.379 . S
H4591 C4585 0.959 . S
H4592 C4585 0.961 . S
H4593 C4585 0.960 . S
H4594 C4586 0.930 . S
H4595 C4587 0.929 . S
H4596 C4604 0.929 . S
H4597 C4606 0.930 . S
H4598 C4608 0.930 . S
H4599 C4611 0.929 . S
H4600 C4614 0.930 . S
H4601 C4616 0.960 . S
H4602 C4616 0.960 . S
H4603 C4616 0.960 . S
C4604 H4596 0.929 . S
C4604 C4605 1.377 . S
C4604 C4606 1.384 . S
C4605 C4604 1.377 . S
C4605 C4611 1.390 . S
C4606 H4597 0.930 . S
C4606 C4604 1.384 . S
C4606 C4607 1.372 . S
C4607 C4606 1.372 . S
C4607 C4608 1.400 . S
C4607 C4612 1.490 . S
C4608 H4598 0.930 . S
C4608 C4607 1.400 . S
C4608 C4611 1.386 . S
H4609 C4625 0.930 . S
H4610 C4626 0.931 . S
C4611 H4599 0.929 . S
C4611 C4605 1.390 . S
C4611 C4608 1.386 . S
C4612 C4607 1.490 . S
C4612 C4614 1.395 . S
C4612 C4615 1.403 . S
H4613 C4619 0.930 . S
C4614 H4600 0.930 . S
C4614 C4612 1.395 . S
C4614 C4617 1.403 . S
C4615 C4612 1.403 . S
C4615 C4616 1.524 . S
C4615 C4619 1.400 . S
C4616 H4601 0.960 . S
C4616 H4602 0.960 . S
C4616 H4603 0.960 . S
C4616 C4615 1.524 . S
C4617 C4614 1.403 . S
C4617 C4618 1.392 . S
C4617 C4621 1.495 . S
C4618 C4617 1.392 . S
C4618 C4619 1.385 . S
C4618 C4620 1.478 . S
C4619 H4613 0.930 . S
C4619 C4615 1.400 . S
C4619 C4618 1.385 . S
C4620 C4618 1.478 . S
C4620 C4622 1.381 . S
C4620 C4626 1.383 . S
C4621 C4617 1.495 . S
C4621 H4627 0.959 . S
C4621 H4628 0.961 . S
C4621 H4629 0.960 . S
C4622 C4620 1.381 . S
C4622 C4623 1.394 . S
C4622 H4630 0.930 . S
C4623 C4622 1.394 . S
C4623 C4624 1.383 . S
C4623 H4631 0.929 . S
C4624 C4623 1.383 . S
C4624 C4625 1.377 . S
C4625 H4609 0.930 . S
C4625 C4624 1.377 . S
C4625 C4626 1.379 . S
C4626 H4610 0.931 . S
C4626 C4620 1.383 . S
C4626 C4625 1.379 . S
H4627 C4621 0.959 . S
H4628 C4621 0.961 . S
H4629 C4621 0.960 . S
H4630 C4622 0.930 . S
H4631 C4623 0.929 . S
H4632 C4640 0.929 . S
H4633 C4642 0.930 . S
H4634 C4644 0.930 . S
H4635 C4647 0.929 . S
H4636 C4650 0.930 . S
H4637 C4652 0.960 . S
H4638 C4652 0.960 . S
H4639 C4652 0.960 . S
C4640 H4632 0.929 . S
C4640 C4641 1.377 . S
C4640 C4642 1.384 . S
C4641 C4640 1.377 . S
C4641 C4647 1.390 . S
C4642 H4633 0.930 . S
C4642 C4640 1.384 . S
C4642 C4643 1.372 . S
C4643 C4642 1.372 . S
C4643 C4644 1.400 . S
C4643 C4648 1.490 . S
C4644 H4634 0.930 . S
C4644 C4643 1.400 . S
C4644 C4647 1.386 . S
H4645 C4661 0.930 . S
H4646 C4662 0.931 . S
C4647 H4635 0.929 . S
C4647 C4641 1.390 . S
C4647 C4644 1.386 . S
C4648 C4643 1.490 . S
C4648 C4650 1.395 . S
C4648 C4651 1.403 . S
H4649 C4655 0.930 . S
C4650 H4636 0.930 . S
C4650 C4648 1.395 . S
C4650 C4653 1.403 . S
C4651 C4648 1.403 . S
C4651 C4652 1.524 . S
C4651 C4655 1.400 . S
C4652 H4637 0.960 . S
C4652 H4638 0.960 . S
C4652 H4639 0.960 . S
C4652 C4651 1.524 . S
C4653 C4650 1.403 . S
C4653 C4654 1.392 . S
C4653 C4657 1.495 . S
C4654 C4653 1.392 . S
C4654 C4655 1.385 . S
C4654 C4656 1.478 . S
C4655 H4649 0.930 . S
C4655 C4651 1.400 . S
C4655 C4654 1.385 . S
C4656 C4654 1.478 . S
C4656 C4658 1.381 . S
C4656 C4662 1.383 . S
C4657 C4653 1.495 . S
C4657 H4663 0.959 . S
C4657 H4664 0.961 . S
C4657 H4665 0.960 . S
C4658 C4656 1.381 . S
C4658 C4659 1.394 . S
C4658 H4666 0.930 . S
C4659 C4658 1.394 . S
C4659 C4660 1.447 . S
C4659 H4667 0.929 . S
C4660 C4659 1.447 . S
C4660 C4661 1.352 1_655 S
C4661 H4645 0.930 . S
C4661 C4660 1.352 1_455 S
C4661 C4662 1.379 1_455 S
C4662 H4646 0.931 . S
C4662 C4656 1.383 . S
C4662 C4661 1.379 1_655 S
H4663 C4657 0.959 . S
H4664 C4657 0.961 . S
H4665 C4657 0.960 . S
H4666 C4658 0.930 . S
H4667 C4659 0.929 . S
H4668 C4676 0.929 . S
H4669 C4678 0.930 . S
H4670 C4680 0.930 . S
H4671 C4683 0.929 . S
H4672 C4686 0.930 . S
H4673 C4688 0.960 . S
H4674 C4688 0.960 . S
H4675 C4688 0.960 . S
C4676 H4668 0.929 . S
C4676 C4677 1.377 . S
C4676 C4678 1.384 . S
C4677 C4676 1.377 . S
C4677 C4683 1.390 . S
C4678 H4669 0.930 . S
C4678 C4676 1.384 . S
C4678 C4679 1.372 . S
C4679 C4678 1.372 . S
C4679 C4680 1.400 . S
C4679 C4684 1.490 . S
C4680 H4670 0.930 . S
C4680 C4679 1.400 . S
C4680 C4683 1.386 . S
H4681 C4697 0.930 . S
H4682 C4698 0.931 . S
C4683 H4671 0.929 . S
C4683 C4677 1.390 . S
C4683 C4680 1.386 . S
C4684 C4679 1.490 . S
C4684 C4686 1.395 . S
C4684 C4687 1.403 . S
H4685 C4691 0.930 . S
C4686 H4672 0.930 . S
C4686 C4684 1.395 . S
C4686 C4689 1.403 . S
C4687 C4684 1.403 . S
C4687 C4688 1.524 . S
C4687 C4691 1.400 . S
C4688 H4673 0.960 . S
C4688 H4674 0.960 . S
C4688 H4675 0.960 . S
C4688 C4687 1.524 . S
C4689 C4686 1.403 . S
C4689 C4690 1.392 . S
C4689 C4693 1.495 . S
C4690 C4689 1.392 . S
C4690 C4691 1.385 . S
C4690 C4692 1.478 . S
C4691 H4685 0.930 . S
C4691 C4687 1.400 . S
C4691 C4690 1.385 . S
C4692 C4690 1.478 . S
C4692 C4694 1.381 . S
C4692 C4698 1.383 . S
C4693 C4689 1.495 . S
C4693 H4699 0.959 . S
C4693 H4700 0.961 . S
C4693 H4701 0.960 . S
C4694 C4692 1.381 . S
C4694 C4695 1.394 . S
C4694 H4702 0.930 . S
C4695 C4694 1.394 . S
C4695 C4696 1.383 . S
C4695 H4703 0.929 . S
C4696 C4695 1.383 . S
C4696 C4697 1.377 . S
C4697 H4681 0.930 . S
C4697 C4696 1.377 . S
C4697 C4698 1.379 . S
C4698 H4682 0.931 . S
C4698 C4692 1.383 . S
C4698 C4697 1.379 . S
H4699 C4693 0.959 . S
H4700 C4693 0.961 . S
H4701 C4693 0.960 . S
H4702 C4694 0.930 . S
H4703 C4695 0.929 . S
H4704 C4712 0.929 . S
H4705 C4714 0.930 . S
H4706 C4716 0.930 . S
H4707 C4719 0.929 . S
H4708 C4722 0.930 . S
H4709 C4724 0.960 . S
H4710 C4724 0.960 . S
H4711 C4724 0.960 . S
C4712 H4704 0.929 . S
C4712 C4713 1.377 . S
C4712 C4714 1.384 . S
C4713 C4712 1.377 . S
C4713 C4719 1.390 . S
C4714 H4705 0.930 . S
C4714 C4712 1.384 . S
C4714 C4715 1.372 . S
C4715 C4714 1.372 . S
C4715 C4716 1.400 . S
C4715 C4720 1.490 . S
C4716 H4706 0.930 . S
C4716 C4715 1.400 . S
C4716 C4719 1.386 . S
H4717 C4733 0.930 . S
H4718 C4734 0.931 . S
C4719 H4707 0.929 . S
C4719 C4713 1.390 . S
C4719 C4716 1.386 . S
C4720 C4715 1.490 . S
C4720 C4722 1.395 . S
C4720 C4723 1.403 . S
H4721 C4727 0.930 . S
C4722 H4708 0.930 . S
C4722 C4720 1.395 . S
C4722 C4725 1.403 . S
C4723 C4720 1.403 . S
C4723 C4724 1.524 . S
C4723 C4727 1.400 . S
C4724 H4709 0.960 . S
C4724 H4710 0.960 . S
C4724 H4711 0.960 . S
C4724 C4723 1.524 . S
C4725 C4722 1.403 . S
C4725 C4726 1.392 . S
C4725 C4729 1.495 . S
C4726 C4725 1.392 . S
C4726 C4727 1.385 . S
C4726 C4728 1.478 . S
C4727 H4721 0.930 . S
C4727 C4723 1.400 . S
C4727 C4726 1.385 . S
C4728 C4726 1.478 . S
C4728 C4730 1.381 . S
C4728 C4734 1.383 . S
C4729 C4725 1.495 . S
C4729 H4735 0.959 . S
C4729 H4736 0.961 . S
C4729 H4737 0.960 . S
C4730 C4728 1.381 . S
C4730 C4731 1.394 . S
C4730 H4738 0.930 . S
C4731 C4730 1.394 . S
C4731 C4732 1.383 . S
C4731 H4739 0.929 . S
C4732 C4731 1.383 . S
C4732 C4733 1.377 . S
C4733 H4717 0.930 . S
C4733 C4732 1.377 . S
C4733 C4734 1.379 . S
C4734 H4718 0.931 . S
C4734 C4728 1.383 . S
C4734 C4733 1.379 . S
H4735 C4729 0.959 . S
H4736 C4729 0.961 . S
H4737 C4729 0.960 . S
H4738 C4730 0.930 . S
H4739 C4731 0.929 . S
H4740 C4748 0.929 . S
H4741 C4750 0.930 . S
H4742 C4752 0.930 . S
H4743 C4755 0.929 . S
H4744 C4758 0.930 . S
H4745 C4760 0.960 . S
H4746 C4760 0.960 . S
H4747 C4760 0.960 . S
C4748 H4740 0.929 . S
C4748 C4749 1.377 . S
C4748 C4750 1.384 . S
C4749 C4748 1.377 . S
C4749 C4755 1.390 . S
C4750 H4741 0.930 . S
C4750 C4748 1.384 . S
C4750 C4751 1.372 . S
C4751 C4750 1.372 . S
C4751 C4752 1.400 . S
C4751 C4756 1.490 . S
C4752 H4742 0.930 . S
C4752 C4751 1.400 . S
C4752 C4755 1.386 . S
H4753 C4769 0.930 . S
H4754 C4770 0.931 . S
C4755 H4743 0.929 . S
C4755 C4749 1.390 . S
C4755 C4752 1.386 . S
C4756 C4751 1.490 . S
C4756 C4758 1.395 . S
C4756 C4759 1.403 . S
H4757 C4763 0.930 . S
C4758 H4744 0.930 . S
C4758 C4756 1.395 . S
C4758 C4761 1.403 . S
C4759 C4756 1.403 . S
C4759 C4760 1.524 . S
C4759 C4763 1.400 . S
C4760 H4745 0.960 . S
C4760 H4746 0.960 . S
C4760 H4747 0.960 . S
C4760 C4759 1.524 . S
C4761 C4758 1.403 . S
C4761 C4762 1.392 . S
C4761 C4765 1.495 . S
C4762 C4761 1.392 . S
C4762 C4763 1.385 . S
C4762 C4764 1.478 . S
C4763 H4757 0.930 . S
C4763 C4759 1.400 . S
C4763 C4762 1.385 . S
C4764 C4762 1.478 . S
C4764 C4766 1.381 . S
C4764 C4770 1.383 . S
C4765 C4761 1.495 . S
C4765 H4771 0.959 . S
C4765 H4772 0.961 . S
C4765 H4773 0.960 . S
C4766 C4764 1.381 . S
C4766 C4767 1.394 . S
C4766 H4774 0.930 . S
C4767 C4766 1.394 . S
C4767 C4768 1.383 . S
C4767 H4775 0.929 . S
C4768 C4767 1.383 . S
C4768 C4769 1.377 . S
C4769 H4753 0.930 . S
C4769 C4768 1.377 . S
C4769 C4770 1.379 . S
C4770 H4754 0.931 . S
C4770 C4764 1.383 . S
C4770 C4769 1.379 . S
H4771 C4765 0.959 . S
H4772 C4765 0.961 . S
H4773 C4765 0.960 . S
H4774 C4766 0.930 . S
H4775 C4767 0.929 . S
H4776 C4784 0.929 . S
H4777 C4786 0.930 . S
H4778 C4788 0.930 . S
H4779 C4791 0.929 . S
H4780 C4794 0.930 . S
H4781 C4796 0.960 . S
H4782 C4796 0.960 . S
H4783 C4796 0.960 . S
C4784 H4776 0.929 . S
C4784 C4785 1.377 . S
C4784 C4786 1.384 . S
C4785 C4784 1.377 . S
C4785 C4791 1.390 . S
C4786 H4777 0.930 . S
C4786 C4784 1.384 . S
C4786 C4787 1.372 . S
C4787 C4786 1.372 . S
C4787 C4788 1.400 . S
C4787 C4792 1.490 . S
C4788 H4778 0.930 . S
C4788 C4787 1.400 . S
C4788 C4791 1.386 . S
H4789 C4805 0.930 . S
H4790 C4806 0.931 . S
C4791 H4779 0.929 . S
C4791 C4785 1.390 . S
C4791 C4788 1.386 . S
C4792 C4787 1.490 . S
C4792 C4794 1.395 . S
C4792 C4795 1.403 . S
H4793 C4799 0.930 . S
C4794 H4780 0.930 . S
C4794 C4792 1.395 . S
C4794 C4797 1.403 . S
C4795 C4792 1.403 . S
C4795 C4796 1.524 . S
C4795 C4799 1.400 . S
C4796 H4781 0.960 . S
C4796 H4782 0.960 . S
C4796 H4783 0.960 . S
C4796 C4795 1.524 . S
C4797 C4794 1.403 . S
C4797 C4798 1.392 . S
C4797 C4801 1.495 . S
C4798 C4797 1.392 . S
C4798 C4799 1.385 . S
C4798 C4800 1.478 . S
C4799 H4793 0.930 . S
C4799 C4795 1.400 . S
C4799 C4798 1.385 . S
C4800 C4798 1.478 . S
C4800 C4802 1.381 . S
C4800 C4806 1.383 . S
C4801 C4797 1.495 . S
C4801 H4807 0.959 . S
C4801 H4808 0.961 . S
C4801 H4809 0.960 . S
C4802 C4800 1.381 . S
C4802 C4803 1.394 . S
C4802 H4810 0.930 . S
C4803 C4802 1.394 . S
C4803 C4804 1.383 . S
C4803 H4811 0.929 . S
C4804 C4803 1.383 . S
C4804 C4805 1.377 . S
C4805 H4789 0.930 . S
C4805 C4804 1.377 . S
C4805 C4806 1.379 . S
C4806 H4790 0.931 . S
C4806 C4800 1.383 . S
C4806 C4805 1.379 . S
H4807 C4801 0.959 . S
H4808 C4801 0.961 . S
H4809 C4801 0.960 . S
H4810 C4802 0.930 . S
H4811 C4803 0.929 . S
H4812 C4820 0.929 . S
H4813 C4822 0.930 . S
H4814 C4824 0.930 . S
H4815 C4827 0.929 . S
H4816 C4830 0.930 . S
H4817 C4832 0.960 . S
H4818 C4832 0.960 . S
H4819 C4832 0.960 . S
C4820 H4812 0.929 . S
C4820 C4821 1.377 . S
C4820 C4822 1.384 . S
C4821 C4820 1.377 . S
C4821 C4827 1.390 . S
C4822 H4813 0.930 . S
C4822 C4820 1.384 . S
C4822 C4823 1.372 . S
C4823 C4822 1.372 . S
C4823 C4824 1.400 . S
C4823 C4828 1.490 . S
C4824 H4814 0.930 . S
C4824 C4823 1.400 . S
C4824 C4827 1.386 . S
H4825 C4841 0.930 . S
H4826 C4842 0.931 . S
C4827 H4815 0.929 . S
C4827 C4821 1.390 . S
C4827 C4824 1.386 . S
C4828 C4823 1.490 . S
C4828 C4830 1.395 . S
C4828 C4831 1.403 . S
H4829 C4835 0.930 . S
C4830 H4816 0.930 . S
C4830 C4828 1.395 . S
C4830 C4833 1.403 . S
C4831 C4828 1.403 . S
C4831 C4832 1.524 . S
C4831 C4835 1.400 . S
C4832 H4817 0.960 . S
C4832 H4818 0.960 . S
C4832 H4819 0.960 . S
C4832 C4831 1.524 . S
C4833 C4830 1.403 . S
C4833 C4834 1.392 . S
C4833 C4837 1.495 . S
C4834 C4833 1.392 . S
C4834 C4835 1.385 . S
C4834 C4836 1.478 . S
C4835 H4829 0.930 . S
C4835 C4831 1.400 . S
C4835 C4834 1.385 . S
C4836 C4834 1.478 . S
C4836 C4838 1.381 . S
C4836 C4842 1.383 . S
C4837 C4833 1.495 . S
C4837 H4843 0.959 . S
C4837 H4844 0.961 . S
C4837 H4845 0.960 . S
C4838 C4836 1.381 . S
C4838 C4839 1.394 . S
C4838 H4846 0.930 . S
C4839 C4838 1.394 . S
C4839 C4840 1.383 . S
C4839 H4847 0.929 . S
C4840 C4839 1.383 . S
C4840 C4841 1.377 . S
C4841 H4825 0.930 . S
C4841 C4840 1.377 . S
C4841 C4842 1.379 . S
C4842 H4826 0.931 . S
C4842 C4836 1.383 . S
C4842 C4841 1.379 . S
H4843 C4837 0.959 . S
H4844 C4837 0.961 . S
H4845 C4837 0.960 . S
H4846 C4838 0.930 . S
H4847 C4839 0.929 . S
H4848 C4856 0.929 . S
H4849 C4858 0.930 . S
H4850 C4860 0.930 . S
H4851 C4863 0.929 . S
H4852 C4866 0.930 . S
H4853 C4868 0.960 . S
H4854 C4868 0.960 . S
H4855 C4868 0.960 . S
C4856 H4848 0.929 . S
C4856 C4857 1.377 . S
C4856 C4858 1.384 . S
C4857 C4856 1.377 . S
C4857 C4863 1.390 . S
C4858 H4849 0.930 . S
C4858 C4856 1.384 . S
C4858 C4859 1.372 . S
C4859 C4858 1.372 . S
C4859 C4860 1.400 . S
C4859 C4864 1.490 . S
C4860 H4850 0.930 . S
C4860 C4859 1.400 . S
C4860 C4863 1.386 . S
H4861 C4877 0.930 . S
H4862 C4878 0.931 . S
C4863 H4851 0.929 . S
C4863 C4857 1.390 . S
C4863 C4860 1.386 . S
C4864 C4859 1.490 . S
C4864 C4866 1.395 . S
C4864 C4867 1.403 . S
H4865 C4871 0.930 . S
C4866 H4852 0.930 . S
C4866 C4864 1.395 . S
C4866 C4869 1.403 . S
C4867 C4864 1.403 . S
C4867 C4868 1.524 . S
C4867 C4871 1.400 . S
C4868 H4853 0.960 . S
C4868 H4854 0.960 . S
C4868 H4855 0.960 . S
C4868 C4867 1.524 . S
C4869 C4866 1.403 . S
C4869 C4870 1.392 . S
C4869 C4873 1.495 . S
C4870 C4869 1.392 . S
C4870 C4871 1.385 . S
C4870 C4872 1.478 . S
C4871 H4865 0.930 . S
C4871 C4867 1.400 . S
C4871 C4870 1.385 . S
C4872 C4870 1.478 . S
C4872 C4874 1.381 . S
C4872 C4878 1.383 . S
C4873 C4869 1.495 . S
C4873 H4879 0.959 . S
C4873 H4880 0.961 . S
C4873 H4881 0.960 . S
C4874 C4872 1.381 . S
C4874 C4875 1.394 . S
C4874 H4882 0.930 . S
C4875 C4874 1.394 . S
C4875 C4876 1.383 . S
C4875 H4883 0.929 . S
C4876 C4875 1.383 . S
C4876 C4877 1.377 . S
C4877 H4861 0.930 . S
C4877 C4876 1.377 . S
C4877 C4878 1.379 . S
C4878 H4862 0.931 . S
C4878 C4872 1.383 . S
C4878 C4877 1.379 . S
H4879 C4873 0.959 . S
H4880 C4873 0.961 . S
H4881 C4873 0.960 . S
H4882 C4874 0.930 . S
H4883 C4875 0.929 . S
H4884 C4892 0.929 . S
H4885 C4894 0.930 . S
H4886 C4896 0.930 . S
H4887 C4899 0.929 . S
H4888 C4902 0.930 . S
H4889 C4904 0.960 . S
H4890 C4904 0.960 . S
H4891 C4904 0.960 . S
C4892 H4884 0.929 . S
C4892 C4893 1.377 . S
C4892 C4894 1.384 . S
C4893 C4892 1.377 . S
C4893 C4899 1.390 . S
C4894 H4885 0.930 . S
C4894 C4892 1.384 . S
C4894 C4895 1.372 . S
C4895 C4894 1.372 . S
C4895 C4896 1.400 . S
C4895 C4900 1.490 . S
C4896 H4886 0.930 . S
C4896 C4895 1.400 . S
C4896 C4899 1.386 . S
H4897 C4913 0.930 . S
H4898 C4914 0.931 . S
C4899 H4887 0.929 . S
C4899 C4893 1.390 . S
C4899 C4896 1.386 . S
C4900 C4895 1.490 . S
C4900 C4902 1.395 . S
C4900 C4903 1.403 . S
H4901 C4907 0.930 . S
C4902 H4888 0.930 . S
C4902 C4900 1.395 . S
C4902 C4905 1.403 . S
C4903 C4900 1.403 . S
C4903 C4904 1.524 . S
C4903 C4907 1.400 . S
C4904 H4889 0.960 . S
C4904 H4890 0.960 . S
C4904 H4891 0.960 . S
C4904 C4903 1.524 . S
C4905 C4902 1.403 . S
C4905 C4906 1.392 . S
C4905 C4909 1.495 . S
C4906 C4905 1.392 . S
C4906 C4907 1.385 . S
C4906 C4908 1.478 . S
C4907 H4901 0.930 . S
C4907 C4903 1.400 . S
C4907 C4906 1.385 . S
C4908 C4906 1.478 . S
C4908 C4910 1.381 . S
C4908 C4914 1.383 . S
C4909 C4905 1.495 . S
C4909 H4915 0.959 . S
C4909 H4916 0.961 . S
C4909 H4917 0.960 . S
C4910 C4908 1.381 . S
C4910 C4911 1.394 . S
C4910 H4918 0.930 . S
C4911 C4910 1.394 . S
C4911 C4912 1.383 . S
C4911 H4919 0.929 . S
C4912 C4911 1.383 . S
C4912 C4913 1.377 . S
C4913 H4897 0.930 . S
C4913 C4912 1.377 . S
C4913 C4914 1.379 . S
C4914 H4898 0.931 . S
C4914 C4908 1.383 . S
C4914 C4913 1.379 . S
H4915 C4909 0.959 . S
H4916 C4909 0.961 . S
H4917 C4909 0.960 . S
H4918 C4910 0.930 . S
H4919 C4911 0.929 . S
H4920 C4928 0.929 . S
H4921 C4930 0.930 . S
H4922 C4932 0.930 . S
H4923 C4935 0.929 . S
H4924 C4938 0.930 . S
H4925 C4940 0.960 . S
H4926 C4940 0.960 . S
H4927 C4940 0.960 . S
C4928 H4920 0.929 . S
C4928 C4929 1.377 . S
C4928 C4930 1.384 . S
C4929 C4928 1.377 . S
C4929 C4935 1.390 . S
C4930 H4921 0.930 . S
C4930 C4928 1.384 . S
C4930 C4931 1.372 . S
C4931 C4930 1.372 . S
C4931 C4932 1.400 . S
C4931 C4936 1.490 . S
C4932 H4922 0.930 . S
C4932 C4931 1.400 . S
C4932 C4935 1.386 . S
H4933 C4949 0.930 . S
H4934 C4950 0.931 . S
C4935 H4923 0.929 . S
C4935 C4929 1.390 . S
C4935 C4932 1.386 . S
C4936 C4931 1.490 . S
C4936 C4938 1.395 . S
C4936 C4939 1.403 . S
H4937 C4943 0.930 . S
C4938 H4924 0.930 . S
C4938 C4936 1.395 . S
C4938 C4941 1.403 . S
C4939 C4936 1.403 . S
C4939 C4940 1.524 . S
C4939 C4943 1.400 . S
C4940 H4925 0.960 . S
C4940 H4926 0.960 . S
C4940 H4927 0.960 . S
C4940 C4939 1.524 . S
C4941 C4938 1.403 . S
C4941 C4942 1.392 . S
C4941 C4945 1.495 . S
C4942 C4941 1.392 . S
C4942 C4943 1.385 . S
C4942 C4944 1.478 . S
C4943 H4937 0.930 . S
C4943 C4939 1.400 . S
C4943 C4942 1.385 . S
C4944 C4942 1.478 . S
C4944 C4946 1.381 . S
C4944 C4950 1.383 . S
C4945 C4941 1.495 . S
C4945 H4951 0.959 . S
C4945 H4952 0.961 . S
C4945 H4953 0.960 . S
C4946 C4944 1.381 . S
C4946 C4947 1.394 . S
C4946 H4954 0.930 . S
C4947 C4946 1.394 . S
C4947 C4948 1.383 . S
C4947 H4955 0.929 . S
C4948 C4947 1.383 . S
C4948 C4949 1.377 . S
C4949 H4933 0.930 . S
C4949 C4948 1.377 . S
C4949 C4950 1.379 . S
C4950 H4934 0.931 . S
C4950 C4944 1.383 . S
C4950 C4949 1.379 . S
H4951 C4945 0.959 . S
H4952 C4945 0.961 . S
H4953 C4945 0.960 . S
H4954 C4946 0.930 . S
H4955 C4947 0.929 . S
H4956 C4964 0.929 . S
H4957 C4966 0.930 . S
H4958 C4968 0.930 . S
H4959 C4971 0.929 . S
H4960 C4974 0.930 . S
H4961 C4976 0.960 . S
H4962 C4976 0.960 . S
H4963 C4976 0.960 . S
C4964 H4956 0.929 . S
C4964 C4965 1.377 . S
C4964 C4966 1.384 . S
C4965 C4964 1.377 . S
C4965 C4971 1.390 . S
C4966 H4957 0.930 . S
C4966 C4964 1.384 . S
C4966 C4967 1.372 . S
C4967 C4966 1.372 . S
C4967 C4968 1.400 . S
C4967 C4972 1.490 . S
C4968 H4958 0.930 . S
C4968 C4967 1.400 . S
C4968 C4971 1.386 . S
H4969 C4985 0.930 . S
H4970 C4986 0.931 . S
C4971 H4959 0.929 . S
C4971 C4965 1.390 . S
C4971 C4968 1.386 . S
C4972 C4967 1.490 . S
C4972 C4974 1.395 . S
C4972 C4975 1.403 . S
H4973 C4979 0.930 . S
C4974 H4960 0.930 . S
C4974 C4972 1.395 . S
C4974 C4977 1.403 . S
C4975 C4972 1.403 . S
C4975 C4976 1.524 . S
C4975 C4979 1.400 . S
C4976 H4961 0.960 . S
C4976 H4962 0.960 . S
C4976 H4963 0.960 . S
C4976 C4975 1.524 . S
C4977 C4974 1.403 . S
C4977 C4978 1.392 . S
C4977 C4981 1.495 . S
C4978 C4977 1.392 . S
C4978 C4979 1.385 . S
C4978 C4980 1.478 . S
C4979 H4973 0.930 . S
C4979 C4975 1.400 . S
C4979 C4978 1.385 . S
C4980 C4978 1.478 . S
C4980 C4982 1.381 . S
C4980 C4986 1.383 . S
C4981 C4977 1.495 . S
C4981 H4987 0.959 . S
C4981 H4988 0.961 . S
C4981 H4989 0.960 . S
C4982 C4980 1.381 . S
C4982 C4983 1.394 . S
C4982 H4990 0.930 . S
C4983 C4982 1.394 . S
C4983 C4984 1.383 . S
C4983 H4991 0.929 . S
C4984 C4983 1.383 . S
C4984 C4985 1.377 . S
C4985 H4969 0.930 . S
C4985 C4984 1.377 . S
C4985 C4986 1.379 . S
C4986 H4970 0.931 . S
C4986 C4980 1.383 . S
C4986 C4985 1.379 . S
H4987 C4981 0.959 . S
H4988 C4981 0.961 . S
H4989 C4981 0.960 . S
H4990 C4982 0.930 . S
H4991 C4983 0.929 . S
H4992 C5000 0.929 . S
H4993 C5002 0.930 . S
H4994 C5004 0.930 . S
H4995 C5007 0.929 . S
H4996 C5010 0.930 . S
H4997 C5012 0.960 . S
H4998 C5012 0.960 . S
H4999 C5012 0.960 . S
C5000 H4992 0.929 . S
C5000 C5001 1.377 . S
C5000 C5002 1.384 . S
C5001 C5000 1.377 . S
C5001 C5007 1.390 . S
C5002 H4993 0.930 . S
C5002 C5000 1.384 . S
C5002 C5003 1.372 . S
C5003 C5002 1.372 . S
C5003 C5004 1.400 . S
C5003 C5008 1.490 . S
C5004 H4994 0.930 . S
C5004 C5003 1.400 . S
C5004 C5007 1.386 . S
H5005 C5021 0.930 . S
H5006 C5022 0.931 . S
C5007 H4995 0.929 . S
C5007 C5001 1.390 . S
C5007 C5004 1.386 . S
C5008 C5003 1.490 . S
C5008 C5010 1.395 . S
C5008 C5011 1.403 . S
H5009 C5015 0.930 . S
C5010 H4996 0.930 . S
C5010 C5008 1.395 . S
C5010 C5013 1.403 . S
C5011 C5008 1.403 . S
C5011 C5012 1.524 . S
C5011 C5015 1.400 . S
C5012 H4997 0.960 . S
C5012 H4998 0.960 . S
C5012 H4999 0.960 . S
C5012 C5011 1.524 . S
C5013 C5010 1.403 . S
C5013 C5014 1.392 . S
C5013 C5017 1.495 . S
C5014 C5013 1.392 . S
C5014 C5015 1.385 . S
C5014 C5016 1.478 . S
C5015 H5009 0.930 . S
C5015 C5011 1.400 . S
C5015 C5014 1.385 . S
C5016 C5014 1.478 . S
C5016 C5018 1.381 . S
C5016 C5022 1.383 . S
C5017 C5013 1.495 . S
C5017 H5023 0.959 . S
C5017 H5024 0.961 . S
C5017 H5025 0.960 . S
C5018 C5016 1.381 . S
C5018 C5019 1.394 . S
C5018 H5026 0.930 . S
C5019 C5018 1.394 . S
C5019 C5020 1.383 . S
C5019 H5027 0.929 . S
C5020 C5019 1.383 . S
C5020 C5021 1.377 . S
C5021 H5005 0.930 . S
C5021 C5020 1.377 . S
C5021 C5022 1.379 . S
C5022 H5006 0.931 . S
C5022 C5016 1.383 . S
C5022 C5021 1.379 . S
H5023 C5017 0.959 . S
H5024 C5017 0.961 . S
H5025 C5017 0.960 . S
H5026 C5018 0.930 . S
H5027 C5019 0.929 . S
H5028 C5036 0.929 . S
H5029 C5038 0.930 . S
H5030 C5040 0.930 . S
H5031 C5043 0.929 . S
H5032 C5046 0.930 . S
H5033 C5048 0.960 . S
H5034 C5048 0.960 . S
H5035 C5048 0.960 . S
C5036 H5028 0.929 . S
C5036 C5037 1.377 . S
C5036 C5038 1.384 . S
C5037 C5036 1.377 . S
C5037 C5043 1.390 . S
C5038 H5029 0.930 . S
C5038 C5036 1.384 . S
C5038 C5039 1.372 . S
C5039 C5038 1.372 . S
C5039 C5040 1.400 . S
C5039 C5044 1.490 . S
C5040 H5030 0.930 . S
C5040 C5039 1.400 . S
C5040 C5043 1.386 . S
H5041 C5057 0.930 . S
H5042 C5058 0.931 . S
C5043 H5031 0.929 . S
C5043 C5037 1.390 . S
C5043 C5040 1.386 . S
C5044 C5039 1.490 . S
C5044 C5046 1.395 . S
C5044 C5047 1.403 . S
H5045 C5051 0.963 . S
C5046 H5032 0.930 . S
C5046 C5044 1.395 . S
C5046 C5049 1.403 . S
C5047 C5044 1.403 . S
C5047 C5048 1.524 1_554 S
C5047 C5051 1.400 . S
C5048 H5033 0.960 . S
C5048 H5034 0.960 . S
C5048 H5035 0.960 . S
C5048 C5047 1.524 1_556 S
C5049 C5046 1.403 . S
C5049 C5050 1.392 . S
C5049 C5053 1.495 . S
C5050 C5049 1.392 . S
C5050 C5051 1.385 . S
C5050 C5052 1.478 . S
C5051 H5045 0.963 . S
C5051 C5047 1.400 . S
C5051 C5050 1.385 . S
C5052 C5050 1.478 . S
C5052 C5054 1.381 . S
C5052 C5058 1.383 . S
C5053 C5049 1.495 . S
C5053 H5059 0.959 . S
C5053 H5060 0.961 . S
C5053 H5061 0.960 . S
C5054 C5052 1.381 . S
C5054 C5055 1.394 . S
C5054 H5062 0.930 . S
C5055 C5054 1.394 . S
C5055 C5056 1.383 . S
C5055 H5063 0.929 . S
C5056 C5055 1.383 . S
C5056 C5057 1.377 . S
C5057 H5041 0.930 . S
C5057 C5056 1.377 . S
C5057 C5058 1.379 . S
C5058 H5042 0.931 . S
C5058 C5052 1.383 . S
C5058 C5057 1.379 . S
H5059 C5053 0.959 . S
H5060 C5053 0.961 . S
H5061 C5053 0.960 . S
H5062 C5054 0.930 . S
H5063 C5055 0.929 . S
H5064 C5072 0.929 . S
H5065 C5074 0.930 . S
H5066 C5076 0.930 . S
H5067 C5079 0.929 . S
H5068 C5082 0.930 . S
H5069 C5084 0.960 . S
H5070 C5084 0.960 . S
H5071 C5084 0.960 . S
C5072 H5064 0.929 . S
C5072 C5073 1.377 . S
C5072 C5074 1.384 . S
C5073 C5072 1.377 . S
C5073 C5079 1.390 . S
C5074 H5065 0.930 . S
C5074 C5072 1.384 . S
C5074 C5075 1.372 . S
C5075 C5074 1.372 . S
C5075 C5076 1.400 . S
C5075 C5080 1.490 . S
C5076 H5066 0.930 . S
C5076 C5075 1.400 . S
C5076 C5079 1.386 . S
H5077 C5093 0.930 . S
H5078 C5094 0.931 . S
C5079 H5067 0.929 . S
C5079 C5073 1.390 . S
C5079 C5076 1.386 . S
C5080 C5075 1.490 . S
C5080 C5082 1.395 . S
C5080 C5083 1.403 . S
H5081 C5087 0.930 . S
C5082 H5068 0.930 . S
C5082 C5080 1.395 . S
C5082 C5085 1.403 . S
C5083 C5080 1.403 . S
C5083 C5084 1.524 . S
C5083 C5087 1.400 . S
C5084 H5069 0.960 . S
C5084 H5070 0.960 . S
C5084 H5071 0.960 . S
C5084 C5083 1.524 . S
C5085 C5082 1.403 . S
C5085 C5086 1.392 . S
C5085 C5089 1.495 . S
C5086 C5085 1.392 . S
C5086 C5087 1.385 . S
C5086 C5088 1.478 . S
C5087 H5081 0.930 . S
C5087 C5083 1.400 . S
C5087 C5086 1.385 . S
C5088 C5086 1.478 . S
C5088 C5090 1.381 . S
C5088 C5094 1.383 . S
C5089 C5085 1.495 . S
C5089 H5095 0.959 . S
C5089 H5096 0.961 . S
C5089 H5097 0.960 . S
C5090 C5088 1.381 . S
C5090 C5091 1.394 . S
C5090 H5098 0.930 . S
C5091 C5090 1.394 . S
C5091 C5092 1.383 . S
C5091 H5099 0.929 . S
C5092 C5091 1.383 . S
C5092 C5093 1.377 . S
C5093 H5077 0.930 . S
C5093 C5092 1.377 . S
C5093 C5094 1.379 . S
C5094 H5078 0.931 . S
C5094 C5088 1.383 . S
C5094 C5093 1.379 . S
H5095 C5089 0.959 . S
H5096 C5089 0.961 . S
H5097 C5089 0.960 . S
H5098 C5090 0.930 . S
H5099 C5091 0.929 . S
H5100 C5108 0.929 . S
H5101 C5110 0.930 . S
H5102 C5112 0.930 . S
H5103 C5115 0.929 . S
H5104 C5118 0.930 . S
H5105 C5120 0.960 . S
H5106 C5120 0.960 . S
H5107 C5120 0.960 . S
C5108 H5100 0.929 . S
C5108 C5109 1.377 . S
C5108 C5110 1.384 . S
C5109 C5108 1.377 . S
C5109 C5115 1.390 . S
C5110 H5101 0.930 . S
C5110 C5108 1.384 . S
C5110 C5111 1.372 . S
C5111 C5110 1.372 . S
C5111 C5112 1.400 . S
C5111 C5116 1.490 . S
C5112 H5102 0.930 . S
C5112 C5111 1.400 . S
C5112 C5115 1.386 . S
H5113 C5129 0.930 . S
H5114 C5130 0.931 . S
C5115 H5103 0.929 . S
C5115 C5109 1.390 . S
C5115 C5112 1.386 . S
C5116 C5111 1.490 . S
C5116 C5118 1.395 . S
C5116 C5119 1.403 . S
H5117 C5123 0.930 . S
C5118 H5104 0.930 . S
C5118 C5116 1.395 . S
C5118 C5121 1.403 . S
C5119 C5116 1.403 . S
C5119 C5120 1.524 . S
C5119 C5123 1.400 . S
C5120 H5105 0.960 . S
C5120 H5106 0.960 . S
C5120 H5107 0.960 . S
C5120 C5119 1.524 . S
C5121 C5118 1.403 . S
C5121 C5122 1.392 . S
C5121 C5125 1.495 . S
C5122 C5121 1.392 . S
C5122 C5123 1.385 . S
C5122 C5124 1.478 . S
C5123 H5117 0.930 . S
C5123 C5119 1.400 . S
C5123 C5122 1.385 . S
C5124 C5122 1.478 . S
C5124 C5126 1.381 . S
C5124 C5130 1.383 . S
C5125 C5121 1.495 . S
C5125 H5131 0.959 . S
C5125 H5132 0.961 . S
C5125 H5133 0.960 . S
C5126 C5124 1.381 . S
C5126 C5127 1.394 . S
C5126 H5134 0.930 . S
C5127 C5126 1.394 . S
C5127 C5128 1.383 . S
C5127 H5135 0.929 . S
C5128 C5127 1.383 . S
C5128 C5129 1.377 . S
C5129 H5113 0.930 . S
C5129 C5128 1.377 . S
C5129 C5130 1.379 . S
C5130 H5114 0.931 . S
C5130 C5124 1.383 . S
C5130 C5129 1.379 . S
H5131 C5125 0.959 . S
H5132 C5125 0.961 . S
H5133 C5125 0.960 . S
H5134 C5126 0.930 . S
H5135 C5127 0.929 . S
C1689 C109 1.929 1_455 S
C1708 C392 1.950 . S
C1725 C65 1.833 . S
C1744 C494 1.805 . S
C1761 C75 1.802 . S
C1780 C560 1.795 . S
C1816 C646 1.473 . S
C1797 C84 1.596 . S
C1833 C25 1.567 . S
C1852 C730 1.493 . S
C1888 C812 1.740 . S
C1869 C28 1.737 . S
C1924 C914 1.828 . S
C1905 C47 1.849 . S
C1941 C9 1.940 . S
C1960 C980 1.953 . S
C1996 C410 1.637 . S
C1977 C233 1.654 . S
C2013 C249 0.835 . S
C2032 C478 0.815 . S
C2068 C578 1.085 . S
C2049 C275 1.122 . S
C2104 C644 1.610 . S
C2085 C173 1.655 . S
C2121 C224 1.650 . S
C2140 C728 1.650 . S
C2176 C830 1.109 . S
C2157 C243 1.124 . S
C2212 C898 0.907 . S
C2193 C266 0.875 . S
C2248 C998 1.471 . S
C2229 C179 1.502 . S
C2284 C394 0.856 1_565 S
C2265 C163 0.939 . S
C2301 C289 1.671 . S
C2320 C1082 1.659 . S
C2356 C1150 1.253 . S
C2337 C333 1.319 . S
C2392 C1232 0.739 . S
C2373 C308 0.735 . S
C2409 C123 0.899 . S
C2428 C982 0.931 . S
C2445 C126 1.402 . S
C2464 C562 1.350 . S
C2481 C327 1.703 . S
C2500 C1334 1.695 . S
C2536 C1400 0.873 . S
C2517 C299 0.867 . S
C2572 C403 1.970 . S
C2553 C67 1.978 . S
C2608 C1407 1.865 . S
C2589 C98 1.836 . S
C2625 C89 1.840 . S
C2644 C571 1.844 . S
C2661 C79 1.655 . S
C2680 C1329 1.530 . S
C2716 C741 1.520 . S
C2697 C11 1.603 . S
C2733 C51 1.774 . S
C2752 C1159 1.788 . S
C2788 C903 1.896 1_556 S
C2769 C33 1.910 . S
C2824 C1495 1.968 . S
C2805 C14 1.977 . S
C2860 C399 1.631 . S
C2841 C140 1.658 . S
C2896 C1413 0.814 . S
C2877 C319 0.856 . S
C2913 C112 1.135 . S
C2932 C567 1.128 . S
C2949 C285 1.638 . S
C2968 C1327 1.631 . S
C2985 C149 1.705 . S
C3004 C739 1.707 . S
C3040 C1155 1.186 . S
C3021 C313 1.175 . S
C3057 C121 0.955 . S
C3076 C909 0.953 . S
C3093 C291 1.555 . S
C3112 C1491 1.514 . S
C3129 C182 0.935 . S
C3148 C405 0.878 . S
C3165 C168 1.679 . S
C3184 C1071 1.659 . S
C3201 C263 1.360 . S
C3220 C825 1.243 . S
C3237 C247 0.791 . S
C3256 C1243 0.795 . S
C3292 C1497 0.889 . S
C3273 C277 0.913 1_565 S
C3309 C219 1.448 . S
C3328 C573 1.367 . S
C3364 C651 1.735 . S
C3345 C257 1.756 . S
C3400 C487 0.885 . S
C3381 C201 0.884 . S
C3417 C81 1.948 . S
C3436 C1568 1.958 . S
C3472 C1418 1.811 . S
C3453 C93 1.831 . S
C3489 C103 1.802 . S
C3508 C1652 1.795 . S
C3525 C56 1.655 . S
C3544 C1318 1.507 . S
C3561 C53 1.566 . S
C3580 C1066 1.495 . S
C3616 C1148 1.737 . S
C3597 C0 1.738 1_655 S
C3652 C1250 1.824 . S
C3633 C19 1.848 . S
C3688 C1484 1.950 . S
C3669 C37 1.940 . S
C3724 C1586 1.600 . S
C3705 C261 1.651 . S
C3741 C193 0.831 1_556 S
C3760 C1402 0.832 . S
C3796 C1670 1.127 . S
C3777 C205 1.124 . S
C3832 C1316 1.600 . S
C3813 C215 1.611 . S
C3868 C1064 1.656 . S
C3849 C252 1.651 . S
C3885 C187 1.122 . S
C3904 C1166 1.099 . S
C3940 C1234 0.842 . S
C3921 C196 0.880 . S
C3957 C221 1.500 . S
C3976 C1502 1.461 . S
C4012 C1570 0.905 . S
C3993 C317 0.931 . S
C4029 C135 1.672 . S
C4048 C746 1.631 . S
C4084 C814 1.216 . S
C4065 C151 1.368 . S
C4120 C896 0.727 . S
C4101 C154 0.729 . S
C4156 C1486 0.871 . S
C4137 C305 0.907 . S
C4173 C280 1.402 . S
C4192 C1654 1.343 . S
C4228 C662 1.666 . S
C4209 C145 1.705 . S
C4264 C476 0.874 . S
C4245 C117 0.867 . S
C4281 C95 1.980 . S
C4300 C1579 1.979 . S
C4336 C483 1.848 . S
C4317 C70 1.837 . S
C4353 C61 1.838 . S
C4372 C1663 1.837 . S
C4389 C107 1.656 . S
C4408 C657 1.500 . S
C4425 C39 1.599 . S
C4444 C1077 1.453 . S
C4480 C823 1.788 . S
C4461 C23 1.774 . S
C4497 C5 1.906 . S
C4516 C1239 1.905 . S
C4533 C42 1.978 . S
C4552 C991 1.975 . S
C4588 C1575 1.624 . S
C4569 C322 1.659 . S
C4605 C165 0.857 . S
C4624 C489 0.871 . S
C4660 C1659 1.079 1_655 S
C4641 C294 1.140 . S
C4677 C131 1.640 . S
C4696 C655 1.639 . S
C4713 C331 1.703 . S
C4732 C1075 1.706 . S
C4768 C819 1.154 . S
C4749 C159 1.187 . S
C4785 C303 0.952 . S
C4804 C1245 0.912 . S
C4840 C987 1.526 . S
C4821 C137 1.555 . S
C4876 C1581 0.948 . S
C4857 C238 0.937 . S
C4912 C735 1.683 1_565 S
C4893 C210 1.680 . S
C4929 C235 1.361 . S
C4948 C1161 1.276 . S
C4984 C907 0.798 . S
C4965 C191 0.793 . S
C5001 C207 0.913 . S
C5020 C993 0.915 . S
C5037 C177 1.449 . S
C5056 C1665 1.387 . S
C5092 C1323 1.715 . S
C5073 C229 1.756 . S
C5128 C1411 0.877 . S
C5109 C271 0.883 . S
