# Generated by pormake.
# Topology zzz, (3,6)-cn, num edge types: 1
# Building blocks:
#     Node 0, Type 0, BuildingBlock: WUSLED_clean_sbu_0, # of connection points: 3
#     Node 1, Type 0, BuildingBlock: WUSLED_clean_sbu_0, # of connection points: 3
#     Node 2, Type 0, BuildingBlock: WUSLED_clean_sbu_0, # of connection points: 3
#     Node 3, Type 0, BuildingBlock: WUSLED_clean_sbu_0, # of connection points: 3
#     Node 4, Type 0, BuildingBlock: WUSLED_clean_sbu_0, # of connection points: 3
#     Node 5, Type 0, BuildingBlock: WUSLED_clean_sbu_0, # of connection points: 3
#     Node 6, Type 0, BuildingBlock: WUSLED_clean_sbu_0, # of connection points: 3
#     Node 7, Type 0, BuildingBlock: WUSLED_clean_sbu_0, # of connection points: 3
#     Node 8, Type 1, BuildingBlock: BETDAH_clean_sbu_0, # of connection points: 6
#     Node 9, Type 1, BuildingBlock: BETDAH_clean_sbu_0, # of connection points: 6
#     Node 10, Type 1, BuildingBlock: BETDAH_clean_sbu_0, # of connection points: 6
#     Node 11, Type 1, BuildingBlock: BETDAH_clean_sbu_0, # of connection points: 6
#     Edge 12, Type (0, 1), BuildingBlock: OJICUG_clean_linker_0, # of connection points: 2
#     Edge 13, Type (0, 1), BuildingBlock: OJICUG_clean_linker_0, # of connection points: 2
#     Edge 14, Type (0, 1), BuildingBlock: OJICUG_clean_linker_0, # of connection points: 2
#     Edge 15, Type (0, 1), BuildingBlock: OJICUG_clean_linker_0, # of connection points: 2
#     Edge 16, Type (0, 1), BuildingBlock: OJICUG_clean_linker_0, # of connection points: 2
#     Edge 17, Type (0, 1), BuildingBlock: OJICUG_clean_linker_0, # of connection points: 2
#     Edge 18, Type (0, 1), BuildingBlock: OJICUG_clean_linker_0, # of connection points: 2
#     Edge 19, Type (0, 1), BuildingBlock: OJICUG_clean_linker_0, # of connection points: 2
#     Edge 20, Type (0, 1), BuildingBlock: OJICUG_clean_linker_0, # of connection points: 2
#     Edge 21, Type (0, 1), BuildingBlock: OJICUG_clean_linker_0, # of connection points: 2
#     Edge 22, Type (0, 1), BuildingBlock: OJICUG_clean_linker_0, # of connection points: 2
#     Edge 23, Type (0, 1), BuildingBlock: OJICUG_clean_linker_0, # of connection points: 2
#     Edge 24, Type (0, 1), BuildingBlock: OJICUG_clean_linker_0, # of connection points: 2
#     Edge 25, Type (0, 1), BuildingBlock: OJICUG_clean_linker_0, # of connection points: 2
#     Edge 26, Type (0, 1), BuildingBlock: OJICUG_clean_linker_0, # of connection points: 2
#     Edge 27, Type (0, 1), BuildingBlock: OJICUG_clean_linker_0, # of connection points: 2
#     Edge 28, Type (0, 1), BuildingBlock: OJICUG_clean_linker_0, # of connection points: 2
#     Edge 29, Type (0, 1), BuildingBlock: OJICUG_clean_linker_0, # of connection points: 2
#     Edge 30, Type (0, 1), BuildingBlock: OJICUG_clean_linker_0, # of connection points: 2
#     Edge 31, Type (0, 1), BuildingBlock: OJICUG_clean_linker_0, # of connection points: 2
#     Edge 32, Type (0, 1), BuildingBlock: OJICUG_clean_linker_0, # of connection points: 2
#     Edge 33, Type (0, 1), BuildingBlock: OJICUG_clean_linker_0, # of connection points: 2
#     Edge 34, Type (0, 1), BuildingBlock: OJICUG_clean_linker_0, # of connection points: 2
#     Edge 35, Type (0, 1), BuildingBlock: OJICUG_clean_linker_0, # of connection points: 2
# Relax obj value: 0.457
# Max RMSD: 0.263
# Mean RMSD: 0.251
data_MOF--net-zzz--node1-WUSLED_clean_sbu_0--node2-BETDAH_clean_sbu_0--edge1-OJICUG_clean_linker_0
_symmetry_space_group_name_H-M    P1
_symmetry_Int_Tables_number       1
_symmetry_cell_setting            triclinic
loop_
_symmetry_equiv_pos_as_xyz
'x, y, z'
_cell_length_a     50.711852
_cell_length_b     50.76594
_cell_length_c     15.430455
_cell_angle_alpha  89.997745
_cell_angle_beta   90.03075
_cell_angle_gamma 90.098426
loop_
_atom_site_label
_atom_site_type_symbol
_atom_site_fract_x
_atom_site_fract_y
_atom_site_fract_z
_atom_type_partial_charge
C0 C 0.7899 0.51174 0.54731 0.0
C1 C 0.80791 0.49188 0.52268 0.0
C2 C 0.84462 0.51294 0.60351 0.0
C3 C 0.83466 0.49247 0.55018 0.0
C4 C 0.82648 0.5327 0.628 0.0
C5 C 0.79981 0.53206 0.60073 0.0
U6 U 0.72694 0.50958 0.39232 0.0
O7 O 0.6893 0.53142 0.39421 0.0
O8 O 0.68874 0.48842 0.39933 0.0
C9 C 0.67499 0.50994 0.38442 0.0
C10 C 0.76056 0.51082 0.52543 0.0
C11 C 0.65662 0.50938 0.30706 0.0
C12 C 0.61212 0.50338 0.24592 0.0
C13 C 0.62973 0.50304 0.31716 0.0
C14 C 0.64777 0.5163 0.15166 0.0
C15 C 0.62071 0.51042 0.16207 0.0
C16 C 0.66545 0.51558 0.22265 0.0
C17 C 0.77238 0.50564 0.20065 0.0
C18 C 0.79829 0.49212 0.07938 0.0
C19 C 0.81946 0.50486 0.21502 0.0
C20 C 0.79496 0.50958 0.25118 0.0
C21 C 0.82104 0.49589 0.12924 0.0
C22 C 0.77395 0.49713 0.11513 0.0
C23 C 0.74682 0.50759 0.23806 0.0
O24 O 0.74985 0.53197 0.4908 0.0
O25 O 0.75049 0.48897 0.49313 0.0
O26 O 0.7418 0.52995 0.27748 0.0
O27 O 0.7399 0.48645 0.28151 0.0
H28 H 0.80133 0.47568 0.4824 0.0
H29 H 0.84762 0.47689 0.52855 0.0
H30 H 0.83269 0.5486 0.67008 0.0
H31 H 0.78669 0.54746 0.62287 0.0
H32 H 0.59153 0.49886 0.25706 0.0
H33 H 0.6222 0.4981 0.3808 0.0
H34 H 0.65529 0.52154 0.08824 0.0
H35 H 0.68602 0.52025 0.21165 0.0
H36 H 0.79929 0.48462 1.01371 0.0
H37 H 0.83702 0.50785 0.25391 0.0
H38 H 0.79356 0.51572 0.31833 0.0
H39 H 0.75632 0.49358 0.07707 0.0
C40 C 1.01398 0.78979 0.54775 0.0
C41 C 0.03435 0.80752 0.52474 0.0
C42 C 1.01288 0.84477 0.60106 0.0
C43 C 0.03383 0.83437 0.55101 0.0
C44 C 0.99253 0.827 0.62373 0.0
C45 C 0.99317 0.80017 0.59815 0.0
U46 U 0.01622 0.72583 0.39681 0.0
O47 O 0.99448 0.6881 0.40133 0.0
O48 O 0.03752 0.68783 0.40517 0.0
C49 C 0.01599 0.67394 0.39095 0.0
C50 C 0.01495 0.76028 0.5277 0.0
C51 C 0.01638 0.65571 0.31323 0.0
C52 C 0.02162 0.61138 0.25055 0.0
C53 C 0.02213 0.62873 0.32247 0.0
C54 C 1.01031 0.64764 0.15702 0.0
C55 C 0.01533 0.62032 0.16615 0.0
C56 C 1.01079 0.66493 0.22895 0.0
C57 C 0.01891 0.77084 0.20582 0.0
C58 C 0.02007 0.79823 0.07994 0.0
C59 C 0.02687 0.81703 0.22371 0.0
C60 C 0.02345 0.79243 0.26009 0.0
C61 C 0.02541 0.81985 0.13345 0.0
C62 C 0.01691 0.77361 0.11636 0.0
C63 C 0.01764 0.74505 0.24155 0.0
O64 O 0.9938 0.74918 0.494 0.0
O65 O 0.03682 0.75014 0.49596 0.0
O66 O 0.99542 0.73972 0.28157 0.0
O67 O 0.03897 0.73835 0.28444 0.0
H68 H 0.05093 0.80064 0.48689 0.0
H69 H 0.04988 0.84711 0.53122 0.0
H70 H 0.97621 0.8337 0.66316 0.0
H71 H 0.97737 0.7873 0.61921 0.0
H72 H 0.02551 0.59072 0.26199 0.0
H73 H 0.0267 0.62089 0.386 0.0
H74 H 1.00606 0.6559 0.09389 0.0
H75 H 1.00658 0.6856 0.21854 0.0
H76 H 0.01864 0.80036 1.01022 0.0
H77 H 0.03132 0.83361 0.26553 0.0
H78 H 0.02503 0.79007 0.32975 0.0
H79 H 1.01338 0.75673 0.07492 0.0
C80 C 0.73843 1.01181 0.54753 0.0
C81 C 0.72039 0.03126 0.51974 0.0
C82 C 0.68371 1.01136 0.60376 0.0
C83 C 0.69365 0.03103 0.54724 0.0
C84 C 0.70189 0.99199 0.63137 0.0
C85 C 0.72855 0.99228 0.60405 0.0
U86 U 0.80148 1.01313 0.39279 0.0
O87 O 0.83962 0.03436 0.40023 0.0
O88 O 0.83916 0.99136 0.39571 0.0
C89 C 0.85345 1.01286 0.38613 0.0
C90 C 0.76776 1.01248 0.52558 0.0
C91 C 0.87216 1.01343 0.30969 0.0
C92 C 0.91677 0.02047 0.25103 0.0
C93 C 0.89883 0.0204 0.32124 0.0
C94 C 0.88194 1.00661 0.15477 0.0
C95 C 0.90874 1.01328 0.16682 0.0
C96 C 0.8639 1.00688 0.22484 0.0
C97 C 0.75656 0.01666 0.19914 0.0
C98 C 0.73136 0.03032 0.07629 0.0
C99 C 0.70947 0.01848 0.21153 0.0
C100 C 0.73372 1.01327 0.24879 0.0
C101 C 0.70842 0.02729 0.12551 0.0
C102 C 0.75547 0.02493 0.11323 0.0
C103 C 0.78193 0.01466 0.23792 0.0
O104 O 0.77837 0.99116 0.49182 0.0
O105 O 0.7779 0.03417 0.4924 0.0
O106 O 0.78881 0.03591 0.28086 0.0
O107 O 0.78669 0.99241 0.27843 0.0
H108 H 0.72694 0.04685 0.47694 0.0
H109 H 0.68067 0.04625 0.5231 0.0
H110 H 0.6957 0.97671 0.6759 0.0
H111 H 0.74171 0.97723 0.62861 0.0
H112 H 0.93716 0.02571 0.26299 0.0
H113 H 0.90592 0.02565 0.38517 0.0
H114 H 0.87493 1.00123 0.09083 0.0
H115 H 0.84349 1.00171 0.21275 0.0
H116 H 0.73069 0.03766 1.01036 0.0
H117 H 0.6917 0.01613 0.24979 0.0
H118 H 0.73476 1.00733 0.31621 0.0
H119 H 0.7733 0.02806 0.07586 0.0
C120 C 0.51205 0.73804 0.55329 0.0
C121 C 0.49141 0.72031 0.53293 0.0
C122 C 0.51357 0.6833 0.60824 0.0
C123 C 0.49215 0.69355 0.55993 0.0
C124 C 0.53411 0.70112 0.62848 0.0
C125 C 0.53329 0.72782 0.60199 0.0
U126 U 0.50895 0.80107 0.39922 0.0
O127 O 0.53159 0.83825 0.39978 0.0
O128 O 0.48859 0.83961 0.40711 0.0
C129 C 0.51035 0.85289 0.39051 0.0
C130 C 0.51112 0.76741 0.53195 0.0
C131 C 0.50985 0.87093 0.31233 0.0
C132 C 0.50204 0.91458 0.24762 0.0
C133 C 0.50181 0.89733 0.31978 0.0
C134 C 0.51829 0.87944 0.15764 0.0
C135 C 0.51057 0.90624 0.16448 0.0
C136 C 0.51773 0.86218 0.22962 0.0
C137 C 0.50375 0.75505 0.21109 0.0
C138 C 0.50308 0.7272 0.08643 0.0
C139 C 0.4942 0.70918 0.23004 0.0
C140 C 0.49811 0.73381 0.26578 0.0
C141 C 0.49641 0.70596 0.14007 0.0
C142 C 0.50655 0.75184 0.12209 0.0
C143 C 0.50569 0.78096 0.24555 0.0
O144 O 0.53204 0.77804 0.49538 0.0
O145 O 0.48904 0.77762 0.502 0.0
O146 O 0.52837 0.78617 0.28285 0.0
O147 O 0.48488 0.78823 0.29016 0.0
H148 H 0.47449 0.72712 0.49648 0.0
H149 H 0.47594 0.68077 0.54194 0.0
H150 H 0.55079 0.69457 0.66662 0.0
H151 H 0.54932 0.74071 0.62094 0.0
H152 H 0.49529 0.9345 0.25796 0.0
H153 H 0.49538 0.90478 0.38205 0.0
H154 H 0.52549 0.87153 0.09713 0.0
H155 H 0.52392 0.84195 0.22064 0.0
H156 H 0.50531 0.72479 0.01705 0.0
H157 H 0.48881 0.69294 0.27209 0.0
H158 H 0.49604 0.73648 0.33516 0.0
H159 H 0.51104 0.76842 0.08034 0.0
C160 C 0.23869 0.50773 0.92674 0.0
C161 C 0.21998 0.49124 0.96744 0.0
C162 C 0.18431 0.50678 0.87103 0.0
C163 C 0.1933 0.49076 0.94001 0.0
C164 C 0.20313 0.52319 0.83057 0.0
C165 C 0.22973 0.52357 0.85773 0.0
U166 U 0.30054 0.50769 0.08452 0.0
O167 O 0.338 0.52997 0.07873 0.0
O168 O 0.33879 0.48694 0.08097 0.0
C169 C 0.35243 0.50881 0.09155 0.0
C170 C 0.26776 0.50769 0.94972 0.0
C171 C 0.37072 0.50964 0.16849 0.0
C172 C 0.41544 0.51349 0.22865 0.0
C173 C 0.39803 0.51312 0.15711 0.0
C174 C 0.37864 0.5071 0.32544 0.0
C175 C 0.40613 0.51015 0.31412 0.0
C176 C 0.36122 0.50698 0.25395 0.0
C177 C 0.25489 0.50965 0.27766 0.0
C178 C 0.23001 0.52321 0.4014 0.0
C179 C 0.20799 0.51436 0.26401 0.0
C180 C 0.23207 0.50815 0.22699 0.0
C181 C 0.20707 0.52247 0.35091 0.0
C182 C 0.25388 0.51663 0.36478 0.0
C183 C 0.28034 0.50799 0.23876 0.0
O184 O 0.2778 0.52926 0.98387 0.0
O185 O 0.27783 0.4862 0.98415 0.0
O186 O 0.28717 0.52955 0.19748 0.0
O187 O 0.2854 0.48606 0.19678 0.0
H188 H 0.22597 0.47851 0.02015 0.0
H189 H 0.1796 0.47798 0.97367 0.0
H190 H 0.1974 0.53551 0.77648 0.0
H191 H 0.24351 0.53617 0.82362 0.0
H192 H 0.43636 0.51571 0.21668 0.0
H193 H 0.406 0.51534 0.09242 0.0
H194 H 0.37051 0.50484 0.38994 0.0
H195 H 0.34029 0.50457 0.26554 0.0
H196 H 0.22968 0.52992 0.46805 0.0
H197 H 0.19032 0.5135 0.22455 0.0
H198 H 0.23306 0.50321 0.15879 0.0
H199 H 0.27171 0.51828 0.40321 0.0
C200 C 0.02363 0.23815 0.92516 0.0
C201 C 0.03662 0.21885 0.9749 0.0
C202 C 0.02406 0.18324 0.87289 0.0
C203 C 0.03665 0.19199 0.94985 0.0
C204 C 1.01166 0.20289 0.82218 0.0
C205 C 1.01144 0.22965 0.8479 0.0
U206 U 0.02419 0.30018 0.08347 0.0
O207 O 1.00109 0.33702 0.07836 0.0
O208 O 0.04411 0.33896 0.07756 0.0
C209 C 0.02199 0.35202 0.08973 0.0
C210 C 0.02344 0.26719 0.94879 0.0
C211 C 0.02119 0.37028 0.16689 0.0
C212 C 0.02125 0.41506 0.22779 0.0
C213 C 0.02179 0.39778 0.15588 0.0
C214 C 0.01914 0.37776 0.32427 0.0
C215 C 0.02014 0.40546 0.31372 0.0
C216 C 0.01968 0.36053 0.25233 0.0
C217 C 0.0242 0.25554 0.28042 0.0
C218 C 1.0065 0.23046 0.39836 0.0
C219 C 0.02316 0.2084 0.26943 0.0
C220 C 0.02966 0.23259 0.23401 0.0
C221 C 1.01086 0.20738 0.35078 0.0
C222 C 1.01329 0.25453 0.36318 0.0
C223 C 0.02542 0.28072 0.23902 0.0
O224 O 1.00207 0.27675 0.98555 0.0
O225 O 0.04509 0.27758 0.98144 0.0
O226 O 0.04694 0.28581 0.19462 0.0
O227 O 1.00345 0.2869 0.19891 0.0
H228 H 0.04727 0.22454 0.03244 0.0
H229 H 0.0472 0.17824 0.99057 0.0
H230 H 1.00157 0.19771 0.76281 0.0
H231 H 1.00167 0.24388 0.80664 0.0
H232 H 0.02231 0.43603 0.21574 0.0
H233 H 0.02287 0.406 0.09122 0.0
H234 H 0.01775 0.36923 0.38842 0.0
H235 H 0.01895 0.33949 0.26367 0.0
H236 H 0.99667 0.23003 0.46065 0.0
H237 H 0.02695 0.19066 0.23241 0.0
H238 H 0.03788 0.23354 0.16967 0.0
H239 H 1.00865 0.27241 0.39836 0.0
C240 C 0.28953 0.02335 0.92707 0.0
C241 C 0.30816 0.0405 0.96507 0.0
C242 C 0.34399 0.02401 0.87036 0.0
C243 C 0.33485 0.04071 0.93768 0.0
C244 C 0.32504 1.00711 0.83226 0.0
C245 C 0.29854 1.00673 0.86033 0.0
U246 U 0.22773 0.02436 0.08489 0.0
O247 O 0.19054 1.00175 0.08025 0.0
O248 O 0.18924 0.0448 0.07973 0.0
C249 C 0.17586 0.02283 0.09146 0.0
C250 C 0.26049 0.02345 0.95023 0.0
C251 C 0.15727 0.02222 0.16761 0.0
C252 C 0.11279 0.02827 0.22717 0.0
C253 C 0.13054 0.0288 0.15674 0.0
C254 C 0.14792 0.01408 0.32172 0.0
C255 C 0.1211 0.02078 0.31073 0.0
C256 C 0.16578 0.015 0.25146 0.0
C257 C 0.27337 0.02391 0.27822 0.0
C258 C 0.29807 1.01063 0.40278 0.0
C259 C 0.3201 0.01784 0.26445 0.0
C260 C 0.29616 0.02447 0.22721 0.0
C261 C 0.32092 1.01028 0.35191 0.0
C262 C 0.27434 0.01761 0.36591 0.0
C263 C 0.2479 0.02533 0.2392 0.0
O264 O 0.25059 1.00211 0.9863 0.0
O265 O 0.25031 0.04517 0.98272 0.0
O266 O 0.24285 0.04691 0.19533 0.0
O267 O 0.24108 1.00344 0.19975 0.0
H268 H 0.30213 0.05386 0.016 0.0
H269 H 0.3483 0.05389 0.97057 0.0
H270 H 0.33036 0.99432 0.77909 0.0
H271 H 0.28481 0.99356 0.82831 0.0
H272 H 0.09234 0.03335 0.21588 0.0
H273 H 0.12331 0.03434 0.09329 0.0
H274 H 0.15517 1.00843 0.3851 0.0
H275 H 0.18625 1.00997 0.26271 0.0
H276 H 0.29831 1.00437 0.46989 0.0
H277 H 0.33772 0.01785 0.22471 0.0
H278 H 0.29518 0.02886 0.15858 0.0
H279 H 0.25652 0.01665 0.40461 0.0
C280 C 0.50826 0.28878 0.92448 0.0
C281 C 0.49219 0.30744 0.96663 0.0
C282 C 0.5068 0.34328 0.86843 0.0
C283 C 0.49166 0.33414 0.93976 0.0
C284 C 0.52262 0.32427 0.82614 0.0
C285 C 0.52343 0.29776 0.85394 0.0
U286 U 0.50858 0.22714 0.08283 0.0
O287 O 0.53092 0.18982 0.07764 0.0
O288 O 0.48786 0.1888 0.08019 0.0
C289 C 0.50978 0.1753 0.09092 0.0
C290 C 0.50839 0.25974 0.94762 0.0
C291 C 0.51069 0.15715 0.16825 0.0
C292 C 0.51243 0.11243 0.22913 0.0
C293 C 0.51211 0.12969 0.15721 0.0
C294 C 0.51034 0.14971 0.32572 0.0
C295 C 0.51123 0.12203 0.31498 0.0
C296 C 0.51009 0.16694 0.25376 0.0
C297 C 0.51072 0.27296 0.27552 0.0
C298 C 0.52538 0.29806 0.39751 0.0
C299 C 0.51411 0.31993 0.26192 0.0
C300 C 0.50803 0.29575 0.22542 0.0
C301 C 0.52331 0.321 0.34764 0.0
C302 C 0.5189 0.27408 0.36151 0.0
C303 C 0.509 0.24751 0.23677 0.0
O304 O 0.53004 0.24991 0.98183 0.0
O305 O 0.48694 0.24954 0.98221 0.0
O306 O 0.48701 0.24234 0.19501 0.0
O307 O 0.53056 0.24075 0.19539 0.0
H308 H 0.47985 0.30143 0.02033 0.0
H309 H 0.4794 0.34757 0.97616 0.0
H310 H 0.5342 0.32954 0.76994 0.0
H311 H 0.53572 0.28401 0.8187 0.0
H312 H 0.51294 0.09144 0.21708 0.0
H313 H 0.51272 0.12148 0.09247 0.0
H314 H 0.50992 0.15819 0.39009 0.0
H315 H 0.50928 0.18797 0.26511 0.0
H316 H 0.53298 0.2985 0.46313 0.0
H317 H 0.51225 0.3376 0.22293 0.0
H318 H 0.5022 0.29468 0.15802 0.0
H319 H 0.5215 0.25628 0.39938 0.0
Ho320 Ho 0.04036 1.0104 0.78809 0.0
Ho321 Ho 0.99134 0.01816 0.69042 0.0
C322 C 1.01132 0.95817 0.70206 0.0
C323 C 0.071 0.99454 0.90668 0.0
C324 C 0.06444 0.97106 0.95467 0.0
C325 C 0.03762 0.96437 0.96231 0.0
C326 C 0.0304 0.939 0.98389 0.0
C327 C 0.04993 0.92017 0.99879 0.0
C328 C 0.07669 0.9267 0.99125 0.0
C329 C 0.08394 0.95215 0.96885 0.0
C330 C 0.05717 0.02038 0.62497 0.0
C331 C 0.0211 0.06996 0.7755 0.0
C332 C 0.96073 0.03341 0.57017 0.0
C333 C 0.96539 0.05744 0.52218 0.0
C334 C 0.99162 0.06562 0.50966 0.0
C335 C 0.99696 0.09131 0.48588 0.0
C336 C 0.97615 0.10888 0.4744 0.0
C337 C 0.94998 0.10093 0.48538 0.0
C338 C 0.94459 0.07516 0.51002 0.0
C339 C 0.97445 1.00999 0.85527 0.0
O340 O 0.0297 0.96767 0.75476 0.0
O341 O 0.99371 0.97413 0.66715 0.0
O342 O 0.07526 0.98933 0.82513 0.0
O343 O 0.05525 0.01464 0.9187 0.0
O344 O 0.07219 0.01815 0.69167 0.0
O345 O 0.03308 0.01957 0.64869 0.0
O346 O 1.00404 0.06097 0.71713 0.0
O347 O 0.03681 0.05362 0.81697 0.0
O348 O 0.95588 0.03802 0.65178 0.0
O349 O 0.97795 0.01453 0.55807 0.0
O350 O 0.95942 1.01228 0.78859 0.0
O351 O 0.99856 1.01014 0.83099 0.0
H352 H 0.02218 0.97834 0.94713 0.0
H353 H 1.00963 0.93399 0.988 0.0
H354 H 0.09191 0.91217 1.00289 0.0
H355 H 0.10456 0.95678 0.95871 0.0
H356 H 1.00805 0.05259 0.52245 0.0
H357 H 0.01726 0.09755 0.4771 0.0
H358 H 0.93394 0.11475 0.47665 0.0
H359 H 0.92444 0.06938 0.52348 0.0
Ho360 Ho 0.51634 0.03631 0.78525 0.0
Ho361 Ho 0.5111 0.99361 0.69526 0.0
C362 C 0.57062 1.00981 0.70656 0.0
C363 C 0.53324 0.06829 0.89906 0.0
C364 C 0.55881 0.06437 0.93762 0.0
C365 C 0.56832 0.03842 0.94431 0.0
C366 C 0.5943 0.034 0.9653 0.0
C367 C 0.61083 0.05544 0.98079 0.0
C368 C 0.60158 0.08133 0.9743 0.0
C369 C 0.57549 0.08581 0.95169 0.0
C370 C 0.50469 0.05196 0.62108 0.0
C371 C 0.45705 0.02185 0.7711 0.0
C372 C 0.49393 0.96129 0.58221 0.0
C373 C 0.4689 0.9657 0.54003 0.0
C374 C 0.46011 0.99183 0.53164 0.0
C375 C 0.43438 0.99686 0.50871 0.0
C376 C 0.41732 0.97583 0.49268 0.0
C377 C 0.42598 0.94974 0.49934 0.0
C378 C 0.45181 0.94465 0.52419 0.0
C379 C 0.52141 0.9778 0.86082 0.0
O380 O 0.56017 0.02826 0.75616 0.0
O381 O 0.5549 0.99211 0.67249 0.0
O382 O 0.53433 0.07366 0.81663 0.0
O383 O 0.51617 0.04991 0.91754 0.0
O384 O 0.49356 0.06081 0.69066 0.0
O385 O 0.52059 0.03357 0.64155 0.0
O386 O 0.46724 1.0037 0.71939 0.0
O387 O 0.47304 0.03844 0.80894 0.0
O388 O 0.49173 0.95685 0.66496 0.0
O389 O 0.51189 0.97884 0.56419 0.0
O390 O 0.53263 0.96857 0.79191 0.0
O391 O 0.50611 0.99649 0.83848 0.0
H392 H 0.5559 0.02152 0.93079 0.0
H393 H 0.60133 0.0139 0.97121 0.0
H394 H 0.61453 0.09791 0.98657 0.0
H395 H 0.5685 0.1058 0.94348 0.0
H396 H 0.47284 1.00844 0.54591 0.0
H397 H 0.42786 0.01713 0.50259 0.0
H398 H 0.41268 0.93348 0.48652 0.0
H399 H 0.45824 0.92451 0.53326 0.0
Ho400 Ho 0.49132 0.51523 0.78374 0.0
Ho401 Ho 0.53429 0.51107 0.69466 0.0
C402 C 0.51736 0.57015 0.70809 0.0
C403 C 0.45828 0.53139 0.89504 0.0
C404 C 0.46282 0.5561 0.93867 0.0
C405 C 0.48904 0.56352 0.95604 0.0
C406 C 0.49468 0.58874 0.98284 0.0
C407 C 0.47415 0.60669 0.99331 0.0
C408 C 0.44805 0.59971 0.97412 0.0
C409 C 0.4424 0.57434 0.94628 0.0
C410 C 0.47639 0.50376 0.61855 0.0
C411 C 0.50683 0.45641 0.76957 0.0
C412 C 0.56751 0.49477 0.58304 0.0
C413 C 0.56368 0.46982 0.53984 0.0
C414 C 0.53772 0.46041 0.53068 0.0
C415 C 0.53327 0.43476 0.5057 0.0
C416 C 0.55471 0.41849 0.48799 0.0
C417 C 0.58063 0.42776 0.4951 0.0
C418 C 0.58514 0.45347 0.52233 0.0
C419 C 0.54907 0.5212 0.86146 0.0
O420 O 0.50001 0.55935 0.76137 0.0
O421 O 0.53444 0.5547 0.66986 0.0
O422 O 0.45417 0.53401 0.81219 0.0
O423 O 0.4755 0.51317 0.91323 0.0
O424 O 0.46756 0.49218 0.68731 0.0
O425 O 0.49432 0.52001 0.64036 0.0
O426 O 0.52441 0.46699 0.7164 0.0
O427 O 0.49033 0.47206 0.80902 0.0
O428 O 0.57158 0.4925 0.66598 0.0
O429 O 0.54974 0.5124 0.5645 0.0
O430 O 0.55787 0.53358 0.79404 0.0
O431 O 0.53118 0.50525 0.83726 0.0
H432 H 0.50538 0.55012 0.94621 0.0
H433 H 0.51501 0.59422 0.99549 0.0
H434 H 0.43211 0.6137 0.9818 0.0
H435 H 0.42235 0.56912 0.92903 0.0
H436 H 0.52082 0.4726 0.54574 0.0
H437 H 0.51316 0.42769 0.49937 0.0
H438 H 0.59718 0.41501 0.48091 0.0
H439 H 0.60515 0.46037 0.53166 0.0
Ho440 Ho 1.01284 0.49119 0.78408 0.0
Ho441 Ho 0.01679 0.53391 0.69612 0.0
C442 C 0.95777 0.51634 0.70589 0.0
C443 C 0.99674 0.45879 0.89797 0.0
C444 C 0.97133 0.46231 0.93784 0.0
C445 C 0.96117 0.48803 0.94294 0.0
C446 C 0.93528 0.49196 0.96607 0.0
C447 C 0.91952 0.47024 0.98542 0.0
C448 C 0.92943 0.44455 0.9807 0.0
C449 C 0.95541 0.44056 0.95581 0.0
C450 C 0.02493 0.47574 0.62019 0.0
C451 C 0.0717 0.50714 0.77112 0.0
C452 C 0.03312 0.56697 0.58399 0.0
C453 C 0.05821 0.56317 0.54168 0.0
C454 C 0.06778 0.53728 0.53454 0.0
C455 C 0.09353 0.5329 0.51046 0.0
C456 C 0.10981 0.55434 0.49197 0.0
C457 C 0.10037 0.5802 0.49735 0.0
C458 C 0.07453 0.58464 0.52342 0.0
C459 C 1.00592 0.54907 0.86167 0.0
O460 O 0.96876 0.49786 0.75415 0.0
O461 O 0.97301 0.5347 0.67341 0.0
O462 O 0.99531 0.45364 0.81545 0.0
O463 O 1.01364 0.47736 0.91609 0.0
O464 O 0.03616 0.46715 0.68998 0.0
O465 O 1.00865 0.49386 0.64024 0.0
O466 O 0.06092 0.52574 0.72265 0.0
O467 O 0.05629 0.48938 0.80561 0.0
O468 O 0.03522 0.57124 0.66685 0.0
O469 O 0.01558 0.54904 0.56553 0.0
O470 O 0.99382 0.55751 0.79323 0.0
O471 O 0.02205 0.53112 0.83915 0.0
H472 H 0.97301 0.50511 0.92668 0.0
H473 H 0.92772 0.5119 0.97047 0.0
H474 H 0.91706 0.42777 0.9959 0.0
H475 H 0.96289 0.42071 0.94901 0.0
H476 H 0.05564 0.52039 0.55045 0.0
H477 H 0.10064 0.51282 0.50538 0.0
H478 H 0.11308 0.59677 0.48262 0.0
H479 H 0.06749 0.60462 0.53133 0.0
C480 C 0.08574 0.04155 0.40668 0.0
C481 C 0.10198 0.01985 0.38588 0.0
H482 H 0.05856 0.05887 0.49818 0.0
C483 C 0.10036 0.99743 0.4393 0.0
H484 H 0.0866 0.05925 0.36766 0.0
C485 C 0.08389 0.99707 0.51273 0.0
C486 C 0.0684 0.01905 0.53537 0.0
H487 H 0.11225 0.98025 0.42518 0.0
H488 H 0.08407 0.97983 0.55419 0.0
C489 C 0.06936 0.04125 0.48093 0.0
C490 C 0.49425 0.10978 0.46507 0.0
C491 C 0.50989 0.10347 0.3925 0.0
H492 H 0.48016 0.09879 0.59083 0.0
C493 C 0.52368 0.07922 0.39518 0.0
H494 H 0.48289 0.12781 0.46611 0.0
C495 C 0.52207 0.06225 0.46811 0.0
C496 C 0.50635 0.06881 0.54035 0.0
H497 H 0.53613 0.0735 0.34143 0.0
H498 H 0.53323 0.04408 0.46805 0.0
C499 C 0.49247 0.09284 0.537 0.0
C500 C 0.42131 0.48951 0.45541 0.0
C501 C 0.42491 0.5087 0.3906 0.0
H502 H 0.43469 0.47266 0.57497 0.0
C503 C 0.44661 0.52605 0.39991 0.0
H504 H 0.40526 0.47549 0.45055 0.0
C505 C 0.46372 0.52446 0.47245 0.0
C506 C 0.45983 0.50524 0.53732 0.0
H507 H 0.45006 0.54124 0.35192 0.0
H508 H 0.47973 0.53849 0.47829 0.0
C509 C 0.43844 0.48776 0.52692 0.0
C510 C 1.00925 0.44935 0.39029 0.0
C511 C 0.02088 0.42397 0.39164 0.0
H512 H 1.00103 0.48545 0.45983 0.0
C513 C 0.03375 0.41646 0.4688 0.0
H514 H 0.99891 0.45607 0.33306 0.0
C515 C 0.03508 0.43339 0.54091 0.0
C516 C 0.02346 0.45862 0.53995 0.0
H517 H 0.04338 0.39751 0.47347 0.0
H518 H 0.04527 0.42647 0.59823 0.0
C519 C 1.01036 0.46631 0.46339 0.0
C520 C 0.93517 0.98817 0.05345 0.0
C521 C 0.92822 1.0123 0.09241 0.0
H522 H 0.95612 0.96839 0.9507 0.0
C523 C 0.93956 0.03544 0.058 0.0
H524 H 0.9269 0.96996 0.07796 0.0
C525 C 0.95644 0.0345 0.98496 0.0
C526 C 0.96315 1.01034 0.9454 0.0
H527 H 0.93451 0.05441 0.08548 0.0
H528 H 0.96332 0.05283 0.95696 0.0
C529 C 0.9523 0.98722 0.98118 0.0
C530 C 0.51303 0.91562 1.0003 0.0
C531 C 0.51181 0.92516 0.08644 0.0
H532 H 0.5172 0.92413 0.86461 0.0
C533 C 0.51232 0.95303 0.09606 0.0
H534 H 0.51169 0.89479 0.9867 0.0
C535 C 0.51453 0.97019 0.02372 0.0
C536 C 0.51702 0.96026 0.93896 0.0
H537 H 0.51169 0.96191 0.15963 0.0
H538 H 0.51516 0.99126 0.03454 0.0
C539 C 0.51595 0.93269 0.92878 0.0
C540 C 0.60061 0.53615 0.03707 0.0
C541 C 0.60149 0.5129 0.08686 0.0
H542 H 0.58331 0.55705 0.93001 0.0
C543 C 0.58388 0.49243 0.06379 0.0
H544 H 0.61347 0.55249 0.05308 0.0
C545 C 0.56638 0.49507 0.99245 0.0
C546 C 0.56577 0.51838 0.94236 0.0
H547 H 0.58404 0.47412 0.09983 0.0
H548 H 0.55377 0.47863 0.97535 0.0
C549 C 0.58312 0.53883 0.96649 0.0
C550 C 0.99542 0.60644 0.02049 0.0
C551 C 1.01322 0.60143 0.08894 0.0
H552 H 0.97912 0.5943 0.89851 0.0
C553 C 0.02849 0.57812 0.08233 0.0
H554 H 0.98278 0.62357 0.02218 0.0
C555 C 0.02614 0.56086 1.01015 0.0
C556 C 1.00831 0.56617 0.94206 0.0
H557 H 0.04268 0.57331 0.13225 0.0
H558 H 0.03847 0.54349 1.00739 0.0
C559 C 0.99306 0.58928 0.94905 0.0
C560 C 1.00439 0.17621 0.47154 0.0
C561 C 1.00098 0.18254 0.38384 0.0
H562 H 0.99817 0.14728 0.56986 0.0
C563 C 0.98741 0.16539 0.32816 0.0
H564 H 0.01485 0.18928 0.51523 0.0
C565 C 0.97804 0.14166 0.35945 0.0
C566 C 0.98212 0.13518 0.44624 0.0
H567 H 0.98415 0.17027 0.26063 0.0
H568 H 0.96842 0.128 0.31561 0.0
C569 C 0.99493 0.15248 0.50272 0.0
C570 C 0.35237 1.00851 0.47326 0.0
C571 C 0.34516 1.00055 0.3896 0.0
H572 H 0.3812 1.00581 0.57351 0.0
C573 C 0.36062 0.98251 0.34346 0.0
H574 H 0.3406 0.0225 0.50948 0.0
C575 C 0.38367 0.97312 0.37984 0.0
C576 C 0.39114 0.98168 0.46232 0.0
H577 H 0.35499 0.9758 0.27939 0.0
H578 H 0.39617 0.96009 0.34243 0.0
C579 C 0.37531 0.99899 0.50978 0.0
C580 C 0.52532 0.35195 0.47019 0.0
C581 C 0.53204 0.34574 0.38452 0.0
H582 H 0.5283 0.38032 0.57173 0.0
C583 C 0.54795 0.36271 0.33549 0.0
H584 H 0.51291 0.33905 0.5086 0.0
C585 C 0.55661 0.3861 0.37147 0.0
C586 C 0.54946 0.39238 0.45634 0.0
H587 H 0.55364 0.35793 0.26967 0.0
H588 H 0.56806 0.39967 0.33237 0.0
C589 C 0.5341 0.37525 0.5062 0.0
C590 C 0.17584 0.52384 0.47284 0.0
C591 C 0.18254 0.5315 0.38843 0.0
H592 H 0.1472 0.52618 0.57368 0.0
C593 C 0.16624 0.54855 0.34127 0.0
H594 H 0.18823 0.51059 0.50983 0.0
C595 C 0.14294 0.5573 0.37755 0.0
C596 C 0.13605 0.54911 0.46094 0.0
H597 H 0.17144 0.555 0.27655 0.0
H598 H 0.12984 0.56958 0.33952 0.0
C599 C 0.15265 0.53274 0.50924 0.0
C600 C 0.01845 0.86757 0.1301 0.0
C601 C 0.03042 0.84524 0.09492 0.0
H602 H 0.01579 0.90932 0.12669 0.0
C603 C 0.04795 0.84729 0.02508 0.0
H604 H 1.00474 0.8661 0.18376 0.0
C605 C 0.05384 0.87183 0.99142 0.0
C606 C 0.04235 0.89423 0.02823 0.0
H607 H 0.05753 0.83006 0.99817 0.0
H608 H 0.06757 0.87338 0.93787 0.0
C609 C 0.0245 0.89205 0.09704 0.0
C610 C 0.66704 0.05197 0.13261 0.0
C611 C 0.68359 0.03472 0.08767 0.0
H612 H 0.63042 0.07248 0.13123 0.0
C613 C 0.67702 0.02559 1.00482 0.0
H614 H 0.67223 0.05939 0.19625 0.0
C615 C 0.6536 0.03343 0.96735 0.0
C616 C 0.6369 0.05038 1.01299 0.0
H617 H 0.68981 1.01221 0.9699 0.0
H618 H 0.6482 0.02589 0.90402 0.0
C619 C 0.64364 0.05981 0.09514 0.0
C620 C 0.4755 0.67914 0.02647 0.0
C621 C 0.49099 0.68062 0.10161 0.0
H622 H 0.45843 0.65383 0.93134 0.0
C623 C 0.50104 0.65787 0.14039 0.0
H624 H 0.46731 0.69663 0.99663 0.0
C625 C 0.49539 0.63366 0.10465 0.0
C626 C 0.48002 0.63219 0.02941 0.0
H627 H 0.51324 0.65881 0.198 0.0
H628 H 0.50285 0.61608 0.13604 0.0
C629 C 0.47017 0.65489 0.98994 0.0
C630 C 0.86384 0.47364 0.13931 0.0
C631 C 0.84625 0.48928 0.09212 0.0
H632 H 0.90148 0.45501 0.13993 0.0
C633 C 0.85222 0.49756 1.00778 0.0
H634 H 0.85922 0.46687 0.20416 0.0
C635 C 0.87589 0.49031 0.97081 0.0
C636 C 0.8935 0.47489 0.01848 0.0
H637 H 0.83873 0.50978 0.97108 0.0
H638 H 0.8807 0.49709 0.90608 0.0
C639 C 0.88753 0.46647 0.1024 0.0
C640 C 0.02603 0.13375 0.90878 0.0
C641 C 0.02369 0.15406 0.84644 0.0
H642 H 0.02739 0.09217 0.93566 0.0
C643 C 0.02069 0.14591 0.75897 0.0
H644 H 0.02776 0.1384 0.97692 0.0
C645 C 0.01954 0.1189 0.73566 0.0
C646 C 0.02206 0.09892 0.79844 0.0
H647 H 0.0195 0.16036 0.70767 0.0
H648 H 0.01721 0.11363 0.66809 0.0
C649 C 0.02559 0.10688 0.88514 0.0
C650 C 0.38946 0.04614 0.85188 0.0
C651 C 0.37286 0.02395 0.84068 0.0
H652 H 0.42826 0.06297 0.83951 0.0
C653 C 0.38446 1.00152 0.80146 0.0
H654 H 0.38179 0.0642 0.87911 0.0
C655 C 0.41125 1.00116 0.77612 0.0
C656 C 0.42781 0.02301 0.79022 0.0
H657 H 0.37314 0.98369 0.79204 0.0
H658 H 0.4192 0.98334 0.74786 0.0
C659 C 0.41636 0.04558 0.82803 0.0
C660 C 0.52737 0.38364 0.79156 0.0
C661 C 0.50626 0.37217 0.83879 0.0
H662 H 0.54402 0.41827 0.73176 0.0
C663 C 0.48476 0.38893 0.85796 0.0
H664 H 0.54465 0.37221 0.77542 0.0
C665 C 0.48481 0.4158 0.83416 0.0
C666 C 0.50611 0.42715 0.78857 0.0
H667 H 0.46759 0.38145 0.89146 0.0
H668 H 0.46801 0.42778 0.85206 0.0
C669 C 0.52718 0.41045 0.76646 0.0
C670 C 0.14256 0.53019 0.81851 0.0
C671 C 0.15561 0.50664 0.84184 0.0
H672 H 0.10645 0.54888 0.7781 0.0
C673 C 0.1408 0.48309 0.83746 0.0
H674 H 0.15292 0.54883 0.82178 0.0
C675 C 0.11394 0.48319 0.81281 0.0
C676 C 0.1009 0.50681 0.79074 0.0
H677 H 0.15 0.46444 0.85296 0.0
H678 H 0.10333 0.46466 0.81116 0.0
C679 C 0.11576 0.53025 0.79323 0.0
C680 C 0.98862 0.88862 0.62847 0.0
C681 C 1.01223 0.87376 0.62924 0.0
H682 H 0.96971 0.92624 0.64841 0.0
C683 C 0.03525 0.88711 0.65682 0.0
H684 H 0.97037 0.87946 0.6078 0.0
C685 C 0.03472 0.91396 0.68221 0.0
C686 C 1.01128 0.92894 0.67925 0.0
H687 H 0.05384 0.8767 0.65968 0.0
H688 H 0.05297 0.92318 0.70257 0.0
C689 C 0.98823 0.91569 0.65168 0.0
C690 C 0.64113 0.98698 0.64836 0.0
C691 C 0.65479 1.01092 0.63321 0.0
H692 H 0.60449 0.96772 0.68157 0.0
C693 C 0.64027 0.03439 0.64593 0.0
H694 H 0.65108 0.96834 0.63941 0.0
C695 C 0.61348 0.03394 0.672 0.0
C696 C 0.5998 1.01004 0.68477 0.0
H697 H 0.64964 0.05333 0.63647 0.0
H698 H 0.60322 0.05248 0.68007 0.0
C699 C 0.61415 0.98656 0.67238 0.0
C700 C 0.53859 0.64008 0.63685 0.0
C701 C 0.51466 0.65439 0.63678 0.0
H702 H 0.55827 0.60294 0.65752 0.0
C703 C 0.49185 0.64058 0.6639 0.0
H704 H 0.55669 0.64955 0.61639 0.0
C705 C 0.49292 0.61378 0.68961 0.0
C706 C 0.51672 0.59941 0.68742 0.0
H707 H 0.47301 0.65055 0.66604 0.0
H708 H 0.47485 0.60408 0.7092 0.0
C709 C 0.53953 0.61311 0.66041 0.0
C710 C 0.88811 0.49062 0.64965 0.0
C711 C 0.87355 0.51384 0.63282 0.0
H712 H 0.92519 0.47315 0.68697 0.0
C713 C 0.88718 0.53799 0.64379 0.0
H714 H 0.87874 0.47154 0.64348 0.0
C715 C 0.91415 0.53884 0.66786 0.0
C716 C 0.92856 0.51561 0.68429 0.0
H717 H 0.87722 0.55646 0.63152 0.0
H718 H 0.92376 0.55783 0.67376 0.0
C719 C 0.91491 0.49151 0.67566 0.0
loop_
_geom_bond_atom_site_label_1
_geom_bond_atom_site_label_2
_geom_bond_distance
_geom_bond_site_symmetry_2
_ccdc_geom_bond_type
C0 C1 1.264 . S
C0 C5 1.479 . S
C0 C10 1.465 . S
C1 C0 1.264 . S
C1 C3 1.339 . S
C1 H28 0.931 . S
C2 C3 1.395 . S
C2 C4 1.320 . S
C3 C1 1.339 . S
C3 C2 1.395 . S
C3 H29 0.929 . S
C4 C2 1.320 . S
C4 C5 1.405 . S
C4 H30 0.930 . S
C5 C0 1.479 . S
C5 C4 1.405 . S
C5 H31 0.931 . S
U6 O7 2.454 . S
U6 O8 2.458 . S
U6 C9 2.984 . S
U6 C10 2.847 . S
U6 C23 2.882 . S
U6 O24 2.441 . S
U6 O25 2.420 . S
U6 O26 2.455 . S
U6 O27 2.449 . S
O7 U6 2.454 . S
O7 C9 1.353 . S
O8 U6 2.458 . S
O8 C9 1.286 . S
C9 U6 2.984 . S
C9 O7 1.353 . S
C9 O8 1.286 . S
C9 C11 1.363 . S
C10 C0 1.465 . S
C10 U6 2.847 . S
C10 O24 1.249 . S
C10 O25 1.202 . S
C11 C9 1.363 . S
C11 C13 1.408 . S
C11 C16 1.342 . S
C12 C13 1.310 . S
C12 C15 1.461 . S
C12 H32 0.932 . S
C13 C11 1.408 . S
C13 C12 1.310 . S
C13 H33 0.930 . S
C14 C15 1.474 . S
C14 C16 1.285 . S
C14 H34 0.929 . S
C15 C12 1.461 . S
C15 C14 1.474 . S
C16 C11 1.342 . S
C16 C14 1.285 . S
C16 H35 0.930 . S
C17 C20 1.424 . S
C17 C22 1.245 . S
C17 C23 1.428 . S
C18 C21 1.260 . S
C18 C22 1.477 . S
C18 H36 0.932 . S
C19 C20 1.384 . S
C19 C21 1.479 . S
C19 H37 0.929 . S
C20 C17 1.424 . S
C20 C19 1.384 . S
C20 H38 0.928 . S
C21 C18 1.260 . S
C21 C19 1.479 . S
C22 C17 1.245 . S
C22 C18 1.477 . S
C22 H39 0.932 . S
C23 U6 2.882 . S
C23 C17 1.428 . S
C23 O26 1.301 . S
C23 O27 1.282 . S
O24 U6 2.441 . S
O24 C10 1.249 . S
O25 U6 2.420 . S
O25 C10 1.202 . S
O26 U6 2.455 . S
O26 C23 1.301 . S
O27 U6 2.449 . S
O27 C23 1.282 . S
H28 C1 0.931 . S
H29 C3 0.929 . S
H30 C4 0.930 . S
H31 C5 0.931 . S
H32 C12 0.932 . S
H33 C13 0.930 . S
H34 C14 0.929 . S
H35 C16 0.930 . S
H36 C18 0.932 . S
H37 C19 0.929 . S
H38 C20 0.928 . S
H39 C22 0.932 . S
C40 C41 1.264 . S
C40 C45 1.479 . S
C40 C50 1.465 . S
C41 C40 1.264 . S
C41 C43 1.339 . S
C41 H68 0.931 . S
C42 C43 1.395 . S
C42 C44 1.320 . S
C43 C41 1.339 . S
C43 C42 1.395 . S
C43 H69 0.929 . S
C44 C42 1.320 . S
C44 C45 1.405 . S
C44 H70 0.921 1_455 S
C45 C40 1.479 . S
C45 C44 1.405 . S
C45 H71 0.931 . S
U46 O47 2.454 . S
U46 O48 2.458 . S
U46 C49 2.984 . S
U46 C50 2.847 . S
U46 C63 2.882 . S
U46 O64 2.441 . S
U46 O65 2.420 . S
U46 O66 2.455 . S
U46 O67 2.449 . S
O47 U46 2.454 . S
O47 C49 1.353 . S
O48 U46 2.458 . S
O48 C49 1.286 . S
C49 U46 2.984 . S
C49 O47 1.353 . S
C49 O48 1.286 . S
C49 C51 1.363 . S
C50 C40 1.465 . S
C50 U46 2.847 . S
C50 O64 1.249 . S
C50 O65 1.202 . S
C51 C49 1.363 . S
C51 C53 1.408 . S
C51 C56 1.342 . S
C52 C53 1.310 . S
C52 C55 1.461 . S
C52 H72 0.932 . S
C53 C51 1.408 . S
C53 C52 1.310 . S
C53 H73 0.930 . S
C54 C55 1.474 1_655 S
C54 C56 1.285 1_655 S
C54 H74 0.930 . S
C55 C52 1.461 . S
C55 C54 1.474 1_455 S
C56 C51 1.342 . S
C56 C54 1.285 1_455 S
C56 H75 0.933 . S
C57 C60 1.424 . S
C57 C62 1.245 . S
C57 C63 1.428 . S
C58 C61 1.260 . S
C58 C62 1.477 . S
C58 H76 0.932 . S
C59 C60 1.384 . S
C59 C61 1.479 . S
C59 H77 0.929 . S
C60 C57 1.424 . S
C60 C59 1.384 . S
C60 H78 0.928 . S
C61 C58 1.260 . S
C61 C59 1.479 . S
C62 C57 1.245 . S
C62 C58 1.477 . S
C62 H79 0.932 . S
C63 U46 2.882 . S
C63 C57 1.428 . S
C63 O66 1.301 . S
C63 O67 1.282 . S
O64 U46 2.441 . S
O64 C50 1.249 . S
O65 U46 2.420 . S
O65 C50 1.202 . S
O66 U46 2.455 . S
O66 C63 1.301 . S
O67 U46 2.449 . S
O67 C63 1.282 . S
H68 C41 0.931 . S
H69 C43 0.929 . S
H70 C44 0.921 1_655 S
H71 C45 0.931 . S
H72 C52 0.932 . S
H73 C53 0.930 . S
H74 C54 0.930 . S
H75 C56 0.933 . S
H76 C58 0.932 . S
H77 C59 0.929 . S
H78 C60 0.928 . S
H79 C62 0.932 . S
C80 C81 1.264 . S
C80 C85 1.479 . S
C80 C90 1.465 . S
C81 C80 1.264 . S
C81 C83 1.339 . S
C81 H108 0.931 . S
C82 C83 1.395 . S
C82 C84 1.320 . S
C83 C81 1.339 . S
C83 C82 1.395 . S
C83 H109 0.929 . S
C84 C82 1.320 . S
C84 C85 1.405 . S
C84 H110 0.921 1_545 S
C85 C80 1.479 . S
C85 C84 1.405 . S
C85 H111 0.931 . S
U86 O87 2.454 . S
U86 O88 2.458 . S
U86 C89 2.984 . S
U86 C90 2.847 . S
U86 C103 2.882 . S
U86 O104 2.441 . S
U86 O105 2.420 . S
U86 O106 2.455 . S
U86 O107 2.449 . S
O87 U86 2.454 . S
O87 C89 1.353 . S
O88 U86 2.458 . S
O88 C89 1.286 . S
C89 U86 2.984 . S
C89 O87 1.353 . S
C89 O88 1.286 . S
C89 C91 1.363 . S
C90 C80 1.465 . S
C90 U86 2.847 . S
C90 O104 1.249 . S
C90 O105 1.202 . S
C91 C89 1.363 . S
C91 C93 1.408 . S
C91 C96 1.342 . S
C92 C93 1.310 . S
C92 C95 1.461 . S
C92 H112 0.932 . S
C93 C91 1.408 . S
C93 C92 1.310 . S
C93 H113 0.930 . S
C94 C95 1.474 1_565 S
C94 C96 1.285 1_565 S
C94 H114 0.930 . S
C95 C92 1.461 . S
C95 C94 1.474 1_545 S
C96 C91 1.342 . S
C96 C94 1.285 1_545 S
C96 H115 0.933 . S
C97 C100 1.424 . S
C97 C102 1.245 . S
C97 C103 1.428 . S
C98 C101 1.260 . S
C98 C102 1.477 . S
C98 H116 0.932 . S
C99 C100 1.384 . S
C99 C101 1.479 . S
C99 H117 0.929 . S
C100 C97 1.424 . S
C100 C99 1.384 . S
C100 H118 0.928 . S
C101 C98 1.260 . S
C101 C99 1.479 . S
C102 C97 1.245 . S
C102 C98 1.477 . S
C102 H119 0.932 . S
C103 U86 2.882 . S
C103 C97 1.428 . S
C103 O106 1.301 . S
C103 O107 1.282 . S
O104 U86 2.441 . S
O104 C90 1.249 . S
O105 U86 2.420 . S
O105 C90 1.202 . S
O106 U86 2.455 . S
O106 C103 1.301 . S
O107 U86 2.449 . S
O107 C103 1.282 . S
H108 C81 0.931 . S
H109 C83 0.929 . S
H110 C84 0.921 1_565 S
H111 C85 0.931 . S
H112 C92 0.932 . S
H113 C93 0.930 . S
H114 C94 0.930 . S
H115 C96 0.933 . S
H116 C98 0.932 . S
H117 C99 0.929 . S
H118 C100 0.928 . S
H119 C102 0.932 . S
C120 C121 1.264 . S
C120 C125 1.479 . S
C120 C130 1.465 . S
C121 C120 1.264 . S
C121 C123 1.339 . S
C121 H148 0.931 . S
C122 C123 1.395 . S
C122 C124 1.320 . S
C123 C121 1.339 . S
C123 C122 1.395 . S
C123 H149 0.929 . S
C124 C122 1.320 . S
C124 C125 1.405 . S
C124 H150 0.930 . S
C125 C120 1.479 . S
C125 C124 1.405 . S
C125 H151 0.931 . S
U126 O127 2.454 . S
U126 O128 2.458 . S
U126 C129 2.984 . S
U126 C130 2.847 . S
U126 C143 2.882 . S
U126 O144 2.441 . S
U126 O145 2.420 . S
U126 O146 2.455 . S
U126 O147 2.449 . S
O127 U126 2.454 . S
O127 C129 1.353 . S
O128 U126 2.458 . S
O128 C129 1.286 . S
C129 U126 2.984 . S
C129 O127 1.353 . S
C129 O128 1.286 . S
C129 C131 1.363 . S
C130 C120 1.465 . S
C130 U126 2.847 . S
C130 O144 1.249 . S
C130 O145 1.202 . S
C131 C129 1.363 . S
C131 C133 1.408 . S
C131 C136 1.342 . S
C132 C133 1.310 . S
C132 C135 1.461 . S
C132 H152 0.932 . S
C133 C131 1.408 . S
C133 C132 1.310 . S
C133 H153 0.930 . S
C134 C135 1.474 . S
C134 C136 1.285 . S
C134 H154 0.929 . S
C135 C132 1.461 . S
C135 C134 1.474 . S
C136 C131 1.342 . S
C136 C134 1.285 . S
C136 H155 0.930 . S
C137 C140 1.424 . S
C137 C142 1.245 . S
C137 C143 1.428 . S
C138 C141 1.260 . S
C138 C142 1.477 . S
C138 H156 0.932 . S
C139 C140 1.384 . S
C139 C141 1.479 . S
C139 H157 0.929 . S
C140 C137 1.424 . S
C140 C139 1.384 . S
C140 H158 0.928 . S
C141 C138 1.260 . S
C141 C139 1.479 . S
C142 C137 1.245 . S
C142 C138 1.477 . S
C142 H159 0.932 . S
C143 U126 2.882 . S
C143 C137 1.428 . S
C143 O146 1.301 . S
C143 O147 1.282 . S
O144 U126 2.441 . S
O144 C130 1.249 . S
O145 U126 2.420 . S
O145 C130 1.202 . S
O146 U126 2.455 . S
O146 C143 1.301 . S
O147 U126 2.449 . S
O147 C143 1.282 . S
H148 C121 0.931 . S
H149 C123 0.929 . S
H150 C124 0.930 . S
H151 C125 0.931 . S
H152 C132 0.932 . S
H153 C133 0.930 . S
H154 C134 0.929 . S
H155 C136 0.930 . S
H156 C138 0.932 . S
H157 C139 0.929 . S
H158 C140 0.928 . S
H159 C142 0.932 . S
C160 C161 1.264 . S
C160 C165 1.479 . S
C160 C170 1.465 . S
C161 C160 1.264 . S
C161 C163 1.339 . S
C161 H188 0.931 . S
C162 C163 1.395 . S
C162 C164 1.320 . S
C163 C161 1.339 . S
C163 C162 1.395 . S
C163 H189 0.929 . S
C164 C162 1.320 . S
C164 C165 1.405 . S
C164 H190 0.930 . S
C165 C160 1.479 . S
C165 C164 1.405 . S
C165 H191 0.931 . S
U166 O167 2.454 . S
U166 O168 2.458 . S
U166 C169 2.984 . S
U166 C170 2.847 1_554 S
U166 C183 2.882 . S
U166 O184 2.441 1_554 S
U166 O185 2.420 1_554 S
U166 O186 2.455 . S
U166 O187 2.449 . S
O167 U166 2.454 . S
O167 C169 1.353 . S
O168 U166 2.458 . S
O168 C169 1.286 . S
C169 U166 2.984 . S
C169 O167 1.353 . S
C169 O168 1.286 . S
C169 C171 1.363 . S
C170 C160 1.465 . S
C170 U166 2.847 1_556 S
C170 O184 1.249 . S
C170 O185 1.202 . S
C171 C169 1.363 . S
C171 C173 1.408 . S
C171 C176 1.342 . S
C172 C173 1.310 . S
C172 C175 1.461 . S
C172 H192 0.932 . S
C173 C171 1.408 . S
C173 C172 1.310 . S
C173 H193 0.930 1_554 S
C174 C175 1.474 . S
C174 C176 1.285 . S
C174 H194 0.929 . S
C175 C172 1.461 . S
C175 C174 1.474 . S
C176 C171 1.342 . S
C176 C174 1.285 . S
C176 H195 0.930 . S
C177 C180 1.424 . S
C177 C182 1.245 . S
C177 C183 1.428 . S
C178 C181 1.260 . S
C178 C182 1.477 . S
C178 H196 0.932 . S
C179 C180 1.384 . S
C179 C181 1.479 . S
C179 H197 0.929 . S
C180 C177 1.424 . S
C180 C179 1.384 . S
C180 H198 0.928 . S
C181 C178 1.260 . S
C181 C179 1.479 . S
C182 C177 1.245 . S
C182 C178 1.477 . S
C182 H199 0.932 . S
C183 U166 2.882 . S
C183 C177 1.428 . S
C183 O186 1.301 . S
C183 O187 1.282 . S
O184 U166 2.441 1_556 S
O184 C170 1.249 . S
O185 U166 2.420 1_556 S
O185 C170 1.202 . S
O186 U166 2.455 . S
O186 C183 1.301 . S
O187 U166 2.449 . S
O187 C183 1.282 . S
H188 C161 0.931 . S
H189 C163 0.929 . S
H190 C164 0.930 . S
H191 C165 0.931 . S
H192 C172 0.932 . S
H193 C173 0.930 1_556 S
H194 C174 0.929 . S
H195 C176 0.930 . S
H196 C178 0.932 . S
H197 C179 0.929 . S
H198 C180 0.928 . S
H199 C182 0.932 . S
C200 C201 1.264 . S
C200 C205 1.479 . S
C200 C210 1.465 . S
C201 C200 1.264 . S
C201 C203 1.339 . S
C201 H228 0.931 . S
C202 C203 1.395 . S
C202 C204 1.320 . S
C203 C201 1.339 . S
C203 C202 1.395 . S
C203 H229 0.929 . S
C204 C202 1.320 . S
C204 C205 1.405 . S
C204 H230 0.923 1_455 S
C205 C200 1.479 . S
C205 C204 1.405 . S
C205 H231 0.931 . S
U206 O207 2.454 . S
U206 O208 2.458 . S
U206 C209 2.984 . S
U206 C210 2.847 1_554 S
U206 C223 2.882 . S
U206 O224 2.441 1_554 S
U206 O225 2.420 1_554 S
U206 O226 2.455 . S
U206 O227 2.449 . S
O207 U206 2.454 . S
O207 C209 1.353 . S
O208 U206 2.458 . S
O208 C209 1.286 . S
C209 U206 2.984 . S
C209 O207 1.353 . S
C209 O208 1.286 . S
C209 C211 1.363 . S
C210 C200 1.465 . S
C210 U206 2.847 1_556 S
C210 O224 1.249 . S
C210 O225 1.202 . S
C211 C209 1.363 . S
C211 C213 1.408 . S
C211 C216 1.342 . S
C212 C213 1.310 . S
C212 C215 1.462 . S
C212 H232 0.932 . S
C213 C211 1.408 . S
C213 C212 1.310 . S
C213 H233 0.930 1_554 S
C214 C215 1.474 1_655 S
C214 C216 1.286 1_655 S
C214 H234 0.929 . S
C215 C212 1.462 . S
C215 C214 1.474 1_455 S
C216 C211 1.342 . S
C216 C214 1.286 1_455 S
C216 H235 0.930 . S
C217 C220 1.424 . S
C217 C222 1.245 . S
C217 C223 1.428 . S
C218 C221 1.260 . S
C218 C222 1.477 . S
C218 H236 0.932 . S
C219 C220 1.384 . S
C219 C221 1.479 . S
C219 H237 0.929 . S
C220 C217 1.424 . S
C220 C219 1.384 . S
C220 H238 0.928 . S
C221 C218 1.260 . S
C221 C219 1.479 . S
C222 C217 1.245 . S
C222 C218 1.477 . S
C222 H239 0.932 . S
C223 U206 2.882 . S
C223 C217 1.428 . S
C223 O226 1.301 . S
C223 O227 1.282 . S
O224 U206 2.441 1_556 S
O224 C210 1.249 . S
O225 U206 2.420 1_556 S
O225 C210 1.202 . S
O226 U206 2.455 . S
O226 C223 1.301 . S
O227 U206 2.449 . S
O227 C223 1.282 . S
H228 C201 0.931 . S
H229 C203 0.929 . S
H230 C204 0.923 1_655 S
H231 C205 0.931 . S
H232 C212 0.932 . S
H233 C213 0.930 1_556 S
H234 C214 0.929 . S
H235 C216 0.930 . S
H236 C218 0.932 . S
H237 C219 0.929 . S
H238 C220 0.928 . S
H239 C222 0.932 . S
C240 C241 1.264 . S
C240 C245 1.479 . S
C240 C250 1.465 . S
C241 C240 1.264 . S
C241 C243 1.339 . S
C241 H268 0.931 . S
C242 C243 1.395 . S
C242 C244 1.320 . S
C243 C241 1.339 . S
C243 C242 1.395 . S
C243 H269 0.929 . S
C244 C242 1.320 . S
C244 C245 1.405 . S
C244 H270 0.923 1_545 S
C245 C240 1.479 . S
C245 C244 1.405 . S
C245 H271 0.931 . S
U246 O247 2.454 . S
U246 O248 2.458 . S
U246 C249 2.984 . S
U246 C250 2.847 1_554 S
U246 C263 2.882 . S
U246 O264 2.441 1_554 S
U246 O265 2.420 1_554 S
U246 O266 2.455 . S
U246 O267 2.449 . S
O247 U246 2.454 . S
O247 C249 1.353 . S
O248 U246 2.458 . S
O248 C249 1.286 . S
C249 U246 2.984 . S
C249 O247 1.353 . S
C249 O248 1.286 . S
C249 C251 1.363 . S
C250 C240 1.465 . S
C250 U246 2.847 1_556 S
C250 O264 1.249 . S
C250 O265 1.202 . S
C251 C249 1.363 . S
C251 C253 1.408 . S
C251 C256 1.342 . S
C252 C253 1.310 . S
C252 C255 1.462 . S
C252 H272 0.932 . S
C253 C251 1.408 . S
C253 C252 1.310 . S
C253 H273 0.930 1_554 S
C254 C255 1.474 1_565 S
C254 C256 1.286 1_565 S
C254 H274 0.929 . S
C255 C252 1.462 . S
C255 C254 1.474 1_545 S
C256 C251 1.342 . S
C256 C254 1.286 1_545 S
C256 H275 0.930 . S
C257 C260 1.424 . S
C257 C262 1.245 . S
C257 C263 1.428 . S
C258 C261 1.260 . S
C258 C262 1.477 . S
C258 H276 0.932 . S
C259 C260 1.384 . S
C259 C261 1.479 . S
C259 H277 0.929 . S
C260 C257 1.424 . S
C260 C259 1.384 . S
C260 H278 0.928 . S
C261 C258 1.260 . S
C261 C259 1.479 . S
C262 C257 1.245 . S
C262 C258 1.477 . S
C262 H279 0.932 . S
C263 U246 2.882 . S
C263 C257 1.428 . S
C263 O266 1.301 . S
C263 O267 1.282 . S
O264 U246 2.441 1_556 S
O264 C250 1.249 . S
O265 U246 2.420 1_556 S
O265 C250 1.202 . S
O266 U246 2.455 . S
O266 C263 1.301 . S
O267 U246 2.449 . S
O267 C263 1.282 . S
H268 C241 0.931 . S
H269 C243 0.929 . S
H270 C244 0.923 1_565 S
H271 C245 0.931 . S
H272 C252 0.932 . S
H273 C253 0.930 1_556 S
H274 C254 0.929 . S
H275 C256 0.930 . S
H276 C258 0.932 . S
H277 C259 0.929 . S
H278 C260 0.928 . S
H279 C262 0.932 . S
C280 C281 1.264 . S
C280 C285 1.479 . S
C280 C290 1.465 . S
C281 C280 1.264 . S
C281 C283 1.339 . S
C281 H308 0.931 . S
C282 C283 1.395 . S
C282 C284 1.320 . S
C283 C281 1.339 . S
C283 C282 1.395 . S
C283 H309 0.929 . S
C284 C282 1.320 . S
C284 C285 1.405 . S
C284 H310 0.930 . S
C285 C280 1.479 . S
C285 C284 1.405 . S
C285 H311 0.931 . S
U286 O287 2.455 . S
U286 O288 2.458 . S
U286 C289 2.984 . S
U286 C290 2.847 1_554 S
U286 C303 2.882 . S
U286 O304 2.441 1_554 S
U286 O305 2.420 1_554 S
U286 O306 2.455 . S
U286 O307 2.449 . S
O287 U286 2.455 . S
O287 C289 1.357 . S
O288 U286 2.458 . S
O288 C289 1.286 . S
C289 U286 2.984 . S
C289 O287 1.357 . S
C289 O288 1.286 . S
C289 C291 1.363 . S
C290 C280 1.465 . S
C290 U286 2.847 1_556 S
C290 O304 1.249 . S
C290 O305 1.202 . S
C291 C289 1.363 . S
C291 C293 1.408 . S
C291 C296 1.342 . S
C292 C293 1.310 . S
C292 C295 1.461 . S
C292 H312 0.932 . S
C293 C291 1.408 . S
C293 C292 1.310 . S
C293 H313 0.930 1_554 S
C294 C295 1.474 . S
C294 C296 1.285 . S
C294 H314 0.929 . S
C295 C292 1.461 . S
C295 C294 1.474 . S
C296 C291 1.342 . S
C296 C294 1.285 . S
C296 H315 0.930 . S
C297 C300 1.424 . S
C297 C302 1.245 . S
C297 C303 1.428 . S
C298 C301 1.260 . S
C298 C302 1.477 . S
C298 H316 0.932 . S
C299 C300 1.384 . S
C299 C301 1.479 . S
C299 H317 0.929 . S
C300 C297 1.424 . S
C300 C299 1.384 . S
C300 H318 0.928 . S
C301 C298 1.260 . S
C301 C299 1.479 . S
C302 C297 1.245 . S
C302 C298 1.477 . S
C302 H319 0.932 . S
C303 U286 2.882 . S
C303 C297 1.428 . S
C303 O306 1.301 . S
C303 O307 1.282 . S
O304 U286 2.441 1_556 S
O304 C290 1.249 . S
O305 U286 2.420 1_556 S
O305 C290 1.202 . S
O306 U286 2.455 . S
O306 C303 1.301 . S
O307 U286 2.449 . S
O307 C303 1.282 . S
H308 C281 0.931 . S
H309 C283 0.929 . S
H310 C284 0.930 . S
H311 C285 0.931 . S
H312 C292 0.932 . S
H313 C293 0.930 1_556 S
H314 C294 0.929 . S
H315 C296 0.930 . S
H316 C298 0.932 . S
H317 C299 0.929 . S
H318 C300 0.928 . S
H319 C302 0.932 . S
Ho320 C323 2.811 . S
Ho320 O340 2.322 . S
Ho320 O342 2.378 . S
Ho320 O343 2.524 . S
Ho320 O344 2.381 . S
Ho320 O345 2.669 1_565 S
Ho320 O347 2.346 1_565 S
Ho320 O351 2.305 1_455 S
Ho321 C332 2.811 . S
Ho321 O341 2.346 1_545 S
Ho321 O345 2.305 1_655 S
Ho321 O346 2.322 . S
Ho321 O348 2.378 . S
Ho321 O349 2.524 . S
Ho321 O350 2.381 . S
Ho321 O351 2.669 1_545 S
C322 O340 1.259 1_655 S
C322 O341 1.268 . S
C323 Ho320 2.811 . S
C323 C324 1.488 . S
C323 O342 1.215 . S
C323 O343 1.289 . S
C324 C323 1.488 . S
C324 C325 1.348 . S
C324 C329 1.413 . S
C325 C324 1.348 . S
C325 C326 1.442 1_556 S
C325 H352 0.930 1_455 S
C326 C325 1.442 1_554 S
C326 C327 1.381 . S
C326 H353 0.940 . S
C327 C326 1.381 . S
C327 C328 1.321 1_554 S
C328 C327 1.321 1_556 S
C328 C329 1.403 . S
C328 H354 0.934 . S
C329 C324 1.413 . S
C329 C328 1.403 . S
C329 H355 0.930 . S
C330 O344 1.275 . S
C330 O345 1.256 1_565 S
C331 O346 1.259 1_455 S
C331 O347 1.268 . S
C332 Ho321 2.811 . S
C332 C333 1.488 . S
C332 O348 1.215 . S
C332 O349 1.289 . S
C333 C332 1.488 . S
C333 C334 1.348 . S
C333 C338 1.413 . S
C334 C333 1.348 . S
C334 C335 1.442 . S
C334 H356 0.930 1_655 S
C335 C334 1.442 . S
C335 C336 1.381 . S
C335 H357 0.932 . S
C336 C335 1.381 . S
C336 C337 1.321 . S
C337 C336 1.321 . S
C337 C338 1.403 . S
C337 H358 0.934 . S
C338 C333 1.413 . S
C338 C337 1.403 . S
C338 H359 0.930 . S
C339 O350 1.275 . S
C339 O351 1.256 1_545 S
O340 Ho320 2.322 . S
O340 C322 1.259 1_455 S
O341 Ho321 2.346 1_565 S
O341 C322 1.268 . S
O342 Ho320 2.378 . S
O342 C323 1.215 . S
O343 Ho320 2.524 . S
O343 C323 1.289 . S
O344 Ho320 2.381 . S
O344 C330 1.275 . S
O345 Ho320 2.669 1_545 S
O345 Ho321 2.305 1_455 S
O345 C330 1.256 1_545 S
O346 Ho321 2.322 . S
O346 C331 1.259 1_655 S
O347 Ho320 2.346 1_545 S
O347 C331 1.268 . S
O348 Ho321 2.378 . S
O348 C332 1.215 . S
O349 Ho321 2.524 . S
O349 C332 1.289 . S
O350 Ho321 2.381 . S
O350 C339 1.275 . S
O351 Ho320 2.305 1_655 S
O351 Ho321 2.669 1_565 S
O351 C339 1.256 1_565 S
H352 C325 0.930 1_655 S
H353 C326 0.940 . S
H354 C328 0.934 . S
H355 C329 0.930 . S
H356 C334 0.930 1_455 S
H357 C335 0.932 . S
H358 C337 0.934 . S
H359 C338 0.930 . S
Ho360 C363 2.811 . S
Ho360 O380 2.322 . S
Ho360 O382 2.378 . S
Ho360 O383 2.524 . S
Ho360 O384 2.381 . S
Ho360 O385 2.669 . S
Ho360 O387 2.346 . S
Ho360 O391 2.305 1_545 S
Ho361 C372 2.811 . S
Ho361 O381 2.346 . S
Ho361 O385 2.305 1_565 S
Ho361 O386 2.322 . S
Ho361 O388 2.378 . S
Ho361 O389 2.524 . S
Ho361 O390 2.381 . S
Ho361 O391 2.669 . S
C362 O380 1.259 1_565 S
C362 O381 1.268 . S
C363 Ho360 2.811 . S
C363 C364 1.488 . S
C363 O382 1.215 . S
C363 O383 1.289 . S
C364 C363 1.488 . S
C364 C365 1.348 . S
C364 C369 1.413 . S
C365 C364 1.348 . S
C365 C366 1.442 1_556 S
C365 H392 0.930 1_545 S
C366 C365 1.442 1_554 S
C366 C367 1.381 . S
C366 H393 0.921 1_545 S
C367 C366 1.381 . S
C367 C368 1.321 1_554 S
C368 C367 1.321 1_556 S
C368 C369 1.403 . S
C368 H394 0.934 . S
C369 C364 1.413 . S
C369 C368 1.403 . S
C369 H395 0.930 . S
C370 O384 1.275 . S
C370 O385 1.256 . S
C371 O386 1.259 1_545 S
C371 O387 1.268 . S
C372 Ho361 2.811 . S
C372 C373 1.488 . S
C372 O388 1.215 . S
C372 O389 1.289 . S
C373 C372 1.488 . S
C373 C374 1.348 . S
C373 C378 1.413 . S
C374 C373 1.348 . S
C374 C375 1.442 . S
C374 H396 0.930 1_565 S
C375 C374 1.442 . S
C375 C376 1.381 . S
C375 H397 0.913 1_565 S
C376 C375 1.381 . S
C376 C377 1.321 . S
C377 C376 1.321 . S
C377 C378 1.403 . S
C377 H398 0.934 . S
C378 C373 1.413 . S
C378 C377 1.403 . S
C378 H399 0.930 . S
C379 O390 1.275 . S
C379 O391 1.256 . S
O380 Ho360 2.322 . S
O380 C362 1.259 1_545 S
O381 Ho361 2.346 . S
O381 C362 1.268 . S
O382 Ho360 2.378 . S
O382 C363 1.215 . S
O383 Ho360 2.524 . S
O383 C363 1.289 . S
O384 Ho360 2.381 . S
O384 C370 1.275 . S
O385 Ho360 2.669 . S
O385 Ho361 2.305 1_545 S
O385 C370 1.256 . S
O386 Ho361 2.322 . S
O386 C371 1.259 1_565 S
O387 Ho360 2.346 . S
O387 C371 1.268 . S
O388 Ho361 2.378 . S
O388 C372 1.215 . S
O389 Ho361 2.524 . S
O389 C372 1.289 . S
O390 Ho361 2.381 . S
O390 C379 1.275 . S
O391 Ho360 2.305 1_565 S
O391 Ho361 2.669 . S
O391 C379 1.256 . S
H392 C365 0.930 1_565 S
H393 C366 0.921 1_565 S
H394 C368 0.934 . S
H395 C369 0.930 . S
H396 C374 0.930 1_545 S
H397 C375 0.913 1_545 S
H398 C377 0.934 . S
H399 C378 0.930 . S
Ho400 C403 2.811 . S
Ho400 O420 2.322 . S
Ho400 O422 2.378 . S
Ho400 O423 2.524 . S
Ho400 O424 2.381 . S
Ho400 O425 2.669 . S
Ho400 O427 2.346 . S
Ho400 O431 2.305 . S
Ho401 C412 2.811 . S
Ho401 O421 2.346 . S
Ho401 O425 2.305 . S
Ho401 O426 2.322 . S
Ho401 O428 2.378 . S
Ho401 O429 2.524 . S
Ho401 O430 2.381 . S
Ho401 O431 2.669 . S
C402 O420 1.259 . S
C402 O421 1.268 . S
C403 Ho400 2.811 . S
C403 C404 1.488 . S
C403 O422 1.215 . S
C403 O423 1.289 . S
C404 C403 1.488 . S
C404 C405 1.348 . S
C404 C409 1.413 . S
C405 C404 1.348 . S
C405 C406 1.442 1_556 S
C405 H432 0.930 . S
C406 C405 1.442 1_554 S
C406 C407 1.381 . S
C406 H433 0.931 . S
C407 C406 1.381 . S
C407 C408 1.321 1_554 S
C408 C407 1.321 1_556 S
C408 C409 1.403 . S
C408 H434 0.934 1_556 S
C409 C404 1.413 . S
C409 C408 1.403 . S
C409 H435 0.930 . S
C410 O424 1.275 . S
C410 O425 1.256 . S
C411 O426 1.259 . S
C411 O427 1.268 . S
C412 Ho401 2.811 . S
C412 C413 1.488 . S
C412 O428 1.215 . S
C412 O429 1.289 . S
C413 C412 1.488 . S
C413 C414 1.348 . S
C413 C418 1.413 . S
C414 C413 1.348 . S
C414 C415 1.442 . S
C414 H436 0.930 . S
C415 C414 1.442 . S
C415 C416 1.381 . S
C415 H437 0.931 . S
C416 C415 1.381 . S
C416 C417 1.321 . S
C417 C416 1.321 . S
C417 C418 1.403 . S
C417 H438 0.934 . S
C418 C413 1.413 . S
C418 C417 1.403 . S
C418 H439 0.930 . S
C419 O430 1.275 . S
C419 O431 1.256 . S
O420 Ho400 2.322 . S
O420 C402 1.259 . S
O421 Ho401 2.346 . S
O421 C402 1.268 . S
O422 Ho400 2.378 . S
O422 C403 1.215 . S
O423 Ho400 2.524 . S
O423 C403 1.289 . S
O424 Ho400 2.381 . S
O424 C410 1.275 . S
O425 Ho400 2.669 . S
O425 Ho401 2.305 . S
O425 C410 1.256 . S
O426 Ho401 2.322 . S
O426 C411 1.259 . S
O427 Ho400 2.346 . S
O427 C411 1.268 . S
O428 Ho401 2.378 . S
O428 C412 1.215 . S
O429 Ho401 2.524 . S
O429 C412 1.289 . S
O430 Ho401 2.381 . S
O430 C419 1.275 . S
O431 Ho400 2.305 . S
O431 Ho401 2.669 . S
O431 C419 1.256 . S
H432 C405 0.930 . S
H433 C406 0.931 . S
H434 C408 0.934 1_554 S
H435 C409 0.930 . S
H436 C414 0.930 . S
H437 C415 0.931 . S
H438 C417 0.934 . S
H439 C418 0.930 . S
Ho440 C443 2.811 . S
Ho440 O460 2.322 . S
Ho440 O462 2.378 . S
Ho440 O463 2.524 . S
Ho440 O464 2.381 . S
Ho440 O465 2.669 1_655 S
Ho440 O467 2.346 1_655 S
Ho440 O471 2.305 . S
Ho441 C452 2.811 . S
Ho441 O461 2.346 1_455 S
Ho441 O465 2.305 . S
Ho441 O466 2.322 . S
Ho441 O468 2.378 . S
Ho441 O469 2.524 . S
Ho441 O470 2.381 . S
Ho441 O471 2.669 1_455 S
C442 O460 1.259 . S
C442 O461 1.268 . S
C443 Ho440 2.811 . S
C443 C444 1.488 . S
C443 O462 1.215 . S
C443 O463 1.289 . S
C444 C443 1.488 . S
C444 C445 1.348 . S
C444 C449 1.413 . S
C445 C444 1.348 . S
C445 C446 1.442 1_556 S
C445 H472 0.930 . S
C446 C445 1.442 1_554 S
C446 C447 1.381 . S
C446 H473 0.931 . S
C447 C446 1.381 . S
C447 C448 1.321 1_554 S
C448 C447 1.321 1_556 S
C448 C449 1.403 . S
C448 H474 0.935 . S
C449 C444 1.413 . S
C449 C448 1.403 . S
C449 H475 0.930 . S
C450 O464 1.286 . S
C450 O465 1.250 1_655 S
C451 O466 1.259 . S
C451 O467 1.268 . S
C452 Ho441 2.811 . S
C452 C453 1.488 . S
C452 O468 1.215 . S
C452 O469 1.289 . S
C453 C452 1.488 . S
C453 C454 1.348 . S
C453 C458 1.413 . S
C454 C453 1.348 . S
C454 C455 1.442 . S
C454 H476 0.930 . S
C455 C454 1.442 . S
C455 C456 1.381 . S
C455 H477 0.931 . S
C456 C455 1.381 . S
C456 C457 1.321 . S
C457 C456 1.321 . S
C457 C458 1.403 . S
C457 H478 0.934 . S
C458 C453 1.413 . S
C458 C457 1.403 . S
C458 H479 0.930 . S
C459 O470 1.291 . S
C459 O471 1.247 1_455 S
O460 Ho440 2.322 . S
O460 C442 1.259 . S
O461 Ho441 2.346 1_655 S
O461 C442 1.268 . S
O462 Ho440 2.378 . S
O462 C443 1.215 . S
O463 Ho440 2.524 . S
O463 C443 1.289 . S
O464 Ho440 2.381 . S
O464 C450 1.286 . S
O465 Ho440 2.669 1_455 S
O465 Ho441 2.305 . S
O465 C450 1.250 1_455 S
O466 Ho441 2.322 . S
O466 C451 1.259 . S
O467 Ho440 2.346 1_455 S
O467 C451 1.268 . S
O468 Ho441 2.378 . S
O468 C452 1.215 . S
O469 Ho441 2.524 . S
O469 C452 1.289 . S
O470 Ho441 2.381 . S
O470 C459 1.291 . S
O471 Ho440 2.305 . S
O471 Ho441 2.669 1_655 S
O471 C459 1.247 1_655 S
H472 C445 0.930 . S
H473 C446 0.931 . S
H474 C448 0.935 . S
H475 C449 0.930 . S
H476 C454 0.930 . S
H477 C455 0.931 . S
H478 C457 0.934 . S
H479 C458 0.930 . S
C480 C481 1.410 . S
C480 H484 0.950 . S
C480 C489 1.390 . S
C481 C480 1.410 . S
C481 C483 1.366 1_545 S
H482 C489 0.950 . S
C483 C481 1.366 1_565 S
C483 C485 1.390 . S
C483 H487 0.950 . S
H484 C480 0.950 . S
C485 C483 1.390 . S
C485 C486 1.387 1_565 S
C485 H488 0.950 . S
C486 C485 1.387 1_545 S
C486 C489 1.387 . S
H487 C483 0.950 . S
H488 C485 0.950 . S
C489 C480 1.390 . S
C489 H482 0.950 . S
C489 C486 1.387 . S
C490 C491 1.387 . S
C490 H494 0.950 . S
C490 C499 1.390 . S
C491 C490 1.387 . S
C491 C493 1.387 . S
H492 C499 0.950 . S
C493 C491 1.387 . S
C493 C495 1.390 . S
C493 H497 0.950 . S
H494 C490 0.950 . S
C495 C493 1.390 . S
C495 C496 1.387 . S
C495 H498 0.950 . S
C496 C495 1.387 . S
C496 C499 1.387 . S
H497 C493 0.950 . S
H498 C495 0.950 . S
C499 C490 1.390 . S
C499 H492 0.950 . S
C499 C496 1.387 . S
C500 C501 1.387 . S
C500 H504 0.950 . S
C500 C509 1.390 . S
C501 C500 1.387 . S
C501 C503 1.387 . S
H502 C509 0.950 . S
C503 C501 1.387 . S
C503 C505 1.390 . S
C503 H507 0.950 . S
H504 C500 0.950 . S
C505 C503 1.390 . S
C505 C506 1.387 . S
C505 H508 0.950 . S
C506 C505 1.387 . S
C506 C509 1.387 . S
H507 C503 0.950 . S
H508 C505 0.950 . S
C509 C500 1.390 . S
C509 H502 0.950 . S
C509 C506 1.387 . S
C510 C511 1.371 1_655 S
C510 H514 0.950 . S
C510 C519 1.390 . S
C511 C510 1.371 1_455 S
C511 C513 1.406 . S
H512 C519 0.950 . S
C513 C511 1.406 . S
C513 C515 1.390 . S
C513 H517 0.950 . S
H514 C510 0.950 . S
C515 C513 1.390 . S
C515 C516 1.387 . S
C515 H518 0.950 . S
C516 C515 1.387 . S
C516 C519 1.387 1_455 S
H517 C513 0.950 . S
H518 C515 0.950 . S
C519 C510 1.390 . S
C519 H512 0.950 . S
C519 C516 1.387 1_655 S
C520 C521 1.400 . S
C520 H524 0.950 . S
C520 C529 1.390 . S
C521 C520 1.400 . S
C521 C523 1.375 1_565 S
H522 C529 0.950 1_556 S
C523 C521 1.375 1_545 S
C523 C525 1.390 . S
C523 H527 0.950 . S
H524 C520 0.950 . S
C525 C523 1.390 . S
C525 C526 1.348 1_544 S
C525 H528 0.950 1_554 S
C526 C525 1.348 1_566 S
C526 C529 1.426 1_556 S
H527 C523 0.950 . S
H528 C525 0.950 1_556 S
C529 C520 1.390 . S
C529 H522 0.950 1_554 S
C529 C526 1.426 1_554 S
C530 C531 1.387 . S
C530 H534 0.950 . S
C530 C539 1.390 . S
C531 C530 1.387 . S
C531 C533 1.387 . S
H532 C539 0.950 1_556 S
C533 C531 1.387 . S
C533 C535 1.390 . S
C533 H537 0.950 . S
H534 C530 0.950 . S
C535 C533 1.390 . S
C535 C536 1.387 1_554 S
C535 H538 0.950 . S
C536 C535 1.387 1_556 S
C536 C539 1.387 1_556 S
H537 C533 0.950 . S
H538 C535 0.950 . S
C539 C530 1.390 . S
C539 H532 0.950 1_554 S
C539 C536 1.387 1_554 S
C540 C541 1.387 . S
C540 H544 0.950 . S
C540 C549 1.390 . S
C541 C540 1.387 . S
C541 C543 1.387 . S
H542 C549 0.950 1_556 S
C543 C541 1.387 . S
C543 C545 1.390 . S
C543 H547 0.950 . S
H544 C540 0.950 . S
C545 C543 1.390 . S
C545 C546 1.387 1_554 S
C545 H548 0.950 1_554 S
C546 C545 1.387 1_556 S
C546 C549 1.387 1_556 S
H547 C543 0.950 . S
H548 C545 0.950 1_556 S
C549 C540 1.390 . S
C549 H542 0.950 1_554 S
C549 C546 1.387 1_554 S
C550 C551 1.414 . S
C550 H554 0.950 . S
C550 C559 1.390 . S
C551 C550 1.414 . S
C551 C553 1.362 1_655 S
H552 C559 0.950 1_556 S
C553 C551 1.362 1_455 S
C553 C555 1.390 . S
C553 H557 0.950 . S
H554 C550 0.950 . S
C555 C553 1.390 . S
C555 C556 1.387 1_454 S
C555 H558 0.950 1_554 S
C556 C555 1.387 1_656 S
C556 C559 1.387 1_556 S
H557 C553 0.950 . S
H558 C555 0.950 1_556 S
C559 C550 1.390 . S
C559 H552 0.950 1_554 S
C559 C556 1.387 1_554 S
C560 C561 1.387 . S
C560 H564 0.950 . S
C560 C569 1.390 . S
C561 C560 1.387 . S
C561 C563 1.387 . S
H562 C569 0.950 . S
C563 C561 1.387 . S
C563 C565 1.390 . S
C563 H567 0.932 1_655 S
H564 C560 0.950 . S
C565 C563 1.390 . S
C565 C566 1.387 . S
C565 H568 0.950 . S
C566 C565 1.387 . S
C566 C569 1.387 . S
H567 C563 0.932 1_455 S
H568 C565 0.950 . S
C569 C560 1.390 . S
C569 H562 0.950 . S
C569 C566 1.387 . S
C570 C571 1.387 . S
C570 H574 0.950 1_565 S
C570 C579 1.390 . S
C571 C570 1.387 . S
C571 C573 1.387 . S
H572 C579 0.950 . S
C573 C571 1.387 . S
C573 C575 1.390 . S
C573 H577 0.950 . S
H574 C570 0.950 1_545 S
C575 C573 1.390 . S
C575 C576 1.387 . S
C575 H578 0.950 . S
C576 C575 1.387 . S
C576 C579 1.387 . S
H577 C573 0.950 . S
H578 C575 0.950 . S
C579 C570 1.390 . S
C579 H572 0.950 . S
C579 C576 1.387 . S
C580 C581 1.387 . S
C580 H584 0.950 . S
C580 C589 1.390 . S
C581 C580 1.387 . S
C581 C583 1.387 . S
H582 C589 0.950 . S
C583 C581 1.387 . S
C583 C585 1.390 . S
C583 H587 0.950 . S
H584 C580 0.950 . S
C585 C583 1.390 . S
C585 C586 1.387 . S
C585 H588 0.950 . S
C586 C585 1.387 . S
C586 C589 1.387 . S
H587 C583 0.950 . S
H588 C585 0.950 . S
C589 C580 1.390 . S
C589 H582 0.950 . S
C589 C586 1.387 . S
C590 C591 1.387 . S
C590 H594 0.950 . S
C590 C599 1.390 . S
C591 C590 1.387 . S
C591 C593 1.387 . S
H592 C599 0.950 . S
C593 C591 1.387 . S
C593 C595 1.390 . S
C593 H597 0.950 . S
H594 C590 0.950 . S
C595 C593 1.390 . S
C595 C596 1.387 . S
C595 H598 0.950 . S
C596 C595 1.387 . S
C596 C599 1.387 . S
H597 C593 0.950 . S
H598 C595 0.950 . S
C599 C590 1.390 . S
C599 H592 0.950 . S
C599 C596 1.387 . S
C600 C601 1.387 . S
C600 H604 0.950 1_455 S
C600 C609 1.390 . S
C601 C600 1.387 . S
C601 C603 1.387 1_554 S
H602 C609 0.950 . S
C603 C601 1.387 1_556 S
C603 C605 1.390 . S
C603 H607 0.950 . S
H604 C600 0.950 1_655 S
C605 C603 1.390 . S
C605 C606 1.387 1_556 S
C605 H608 0.950 . S
C606 C605 1.387 1_554 S
C606 C609 1.387 . S
H607 C603 0.950 . S
H608 C605 0.950 . S
C609 C600 1.390 . S
C609 H602 0.950 . S
C609 C606 1.387 . S
C610 C611 1.387 . S
C610 H614 0.950 . S
C610 C619 1.390 . S
C611 C610 1.387 . S
C611 C613 1.387 1_554 S
H612 C619 0.950 . S
C613 C611 1.387 1_556 S
C613 C615 1.390 . S
C613 H617 0.950 1_545 S
H614 C610 0.950 . S
C615 C613 1.390 . S
C615 C616 1.387 1_556 S
C615 H618 0.950 . S
C616 C615 1.387 1_554 S
C616 C619 1.387 . S
H617 C613 0.950 1_565 S
H618 C615 0.950 . S
C619 C610 1.390 . S
C619 H612 0.950 . S
C619 C616 1.387 . S
C620 C621 1.387 1_556 S
C620 H624 0.950 . S
C620 C629 1.390 . S
C621 C620 1.387 1_554 S
C621 C623 1.387 . S
H622 C629 0.950 . S
C623 C621 1.387 . S
C623 C625 1.390 . S
C623 H627 0.950 . S
H624 C620 0.950 . S
C625 C623 1.390 . S
C625 C626 1.387 . S
C625 H628 0.950 . S
C626 C625 1.387 . S
C626 C629 1.387 1_554 S
H627 C623 0.950 . S
H628 C625 0.950 . S
C629 C620 1.390 . S
C629 H622 0.950 . S
C629 C626 1.387 1_556 S
C630 C631 1.387 . S
C630 H634 0.950 . S
C630 C639 1.390 . S
C631 C630 1.387 . S
C631 C633 1.387 1_554 S
H632 C639 0.950 . S
C633 C631 1.387 1_556 S
C633 C635 1.390 . S
C633 H637 0.950 . S
H634 C630 0.950 . S
C635 C633 1.390 . S
C635 C636 1.387 1_556 S
C635 H638 0.950 . S
C636 C635 1.387 1_554 S
C636 C639 1.387 . S
H637 C633 0.950 . S
H638 C635 0.950 . S
C639 C630 1.390 . S
C639 H632 0.950 . S
C639 C636 1.387 . S
C640 C641 1.387 . S
C640 H644 0.947 1_455 S
C640 C649 1.390 . S
C641 C640 1.387 . S
C641 C643 1.387 . S
H642 C649 0.950 . S
C643 C641 1.387 . S
C643 C645 1.390 . S
C643 H647 0.950 . S
H644 C640 0.947 1_655 S
C645 C643 1.390 . S
C645 C646 1.387 . S
C645 H648 0.950 . S
C646 C645 1.387 . S
C646 C649 1.387 . S
H647 C643 0.950 . S
H648 C645 0.950 . S
C649 C640 1.390 . S
C649 H642 0.950 . S
C649 C646 1.387 . S
C650 C651 1.387 . S
C650 H654 0.950 . S
C650 C659 1.390 . S
C651 C650 1.387 . S
C651 C653 1.387 1_545 S
H652 C659 0.950 . S
C653 C651 1.387 1_565 S
C653 C655 1.390 . S
C653 H657 0.950 . S
H654 C650 0.950 . S
C655 C653 1.390 . S
C655 C656 1.387 1_565 S
C655 H658 0.950 . S
C656 C655 1.387 1_545 S
C656 C659 1.387 . S
H657 C653 0.950 . S
H658 C655 0.950 . S
C659 C650 1.390 . S
C659 H652 0.950 . S
C659 C656 1.387 . S
C660 C661 1.387 . S
C660 H664 0.950 . S
C660 C669 1.390 . S
C661 C660 1.387 . S
C661 C663 1.387 . S
H662 C669 0.950 . S
C663 C661 1.387 . S
C663 C665 1.390 . S
C663 H667 0.950 . S
H664 C660 0.950 . S
C665 C663 1.390 . S
C665 C666 1.387 . S
C665 H668 0.950 . S
C666 C665 1.387 . S
C666 C669 1.387 . S
H667 C663 0.950 . S
H668 C665 0.950 . S
C669 C660 1.390 . S
C669 H662 0.950 . S
C669 C666 1.387 . S
C670 C671 1.387 . S
C670 H674 0.950 . S
C670 C679 1.390 . S
C671 C670 1.387 . S
C671 C673 1.387 . S
H672 C679 0.950 . S
C673 C671 1.387 . S
C673 C675 1.390 . S
C673 H677 0.950 . S
H674 C670 0.950 . S
C675 C673 1.390 . S
C675 C676 1.387 . S
C675 H678 0.950 . S
C676 C675 1.387 . S
C676 C679 1.387 . S
H677 C673 0.950 . S
H678 C675 0.950 . S
C679 C670 1.390 . S
C679 H672 0.950 . S
C679 C676 1.387 . S
C680 C681 1.387 . S
C680 H684 0.950 . S
C680 C689 1.390 . S
C681 C680 1.387 . S
C681 C683 1.387 1_655 S
H682 C689 0.950 . S
C683 C681 1.387 1_455 S
C683 C685 1.390 . S
C683 H687 0.950 . S
H684 C680 0.950 . S
C685 C683 1.390 . S
C685 C686 1.387 1_455 S
C685 H688 0.950 . S
C686 C685 1.387 1_655 S
C686 C689 1.387 . S
H687 C683 0.950 . S
H688 C685 0.950 . S
C689 C680 1.390 . S
C689 H682 0.950 . S
C689 C686 1.387 . S
C690 C691 1.387 . S
C690 H694 0.950 . S
C690 C699 1.390 . S
C691 C690 1.387 . S
C691 C693 1.387 1_565 S
H692 C699 0.950 . S
C693 C691 1.387 1_545 S
C693 C695 1.390 . S
C693 H697 0.950 . S
H694 C690 0.950 . S
C695 C693 1.390 . S
C695 C696 1.387 1_545 S
C695 H698 0.950 . S
C696 C695 1.387 1_565 S
C696 C699 1.387 . S
H697 C693 0.950 . S
H698 C695 0.950 . S
C699 C690 1.390 . S
C699 H692 0.950 . S
C699 C696 1.387 . S
C700 C701 1.387 . S
C700 H704 0.950 . S
C700 C709 1.390 . S
C701 C700 1.387 . S
C701 C703 1.387 . S
H702 C709 0.950 . S
C703 C701 1.387 . S
C703 C705 1.390 . S
C703 H707 0.950 . S
H704 C700 0.950 . S
C705 C703 1.390 . S
C705 C706 1.387 . S
C705 H708 0.950 . S
C706 C705 1.387 . S
C706 C709 1.387 . S
H707 C703 0.950 . S
H708 C705 0.950 . S
C709 C700 1.390 . S
C709 H702 0.950 . S
C709 C706 1.387 . S
C710 C711 1.387 . S
C710 H714 0.950 . S
C710 C719 1.390 . S
C711 C710 1.387 . S
C711 C713 1.387 . S
H712 C719 0.950 . S
C713 C711 1.387 . S
C713 C715 1.390 . S
C713 H717 0.950 . S
H714 C710 0.950 . S
C715 C713 1.390 . S
C715 C716 1.387 . S
C715 H718 0.950 . S
C716 C715 1.387 . S
C716 C719 1.387 . S
H717 C713 0.950 . S
H718 C715 0.950 . S
C719 C710 1.390 . S
C719 H712 0.950 . S
C719 C716 1.387 . S
C481 C255 2.635 . S
C486 C330 2.970 1_545 S
C496 C370 2.981 . S
C491 C295 2.645 . S
C506 C410 2.984 . S
C501 C175 2.650 . S
C516 C450 2.973 1_455 S
C511 C215 2.640 . S
C526 C339 2.973 1_565 S
C521 C95 2.641 1_565 S
C531 C135 2.650 . S
C536 C379 2.983 . S
C541 C15 2.653 . S
C546 C419 2.984 . S
C551 C55 2.641 1_655 S
C556 C459 2.973 1_655 S
C566 C336 0.817 . S
C561 C221 0.831 1_655 S
C576 C376 0.816 . S
C571 C261 0.830 1_565 S
C586 C416 0.798 . S
C581 C301 0.807 . S
C591 C181 0.809 . S
C596 C456 0.794 . S
C601 C61 0.800 . S
C606 C327 0.821 . S
C616 C367 0.815 . S
C611 C101 0.796 . S
C626 C407 0.790 . S
C621 C141 0.779 . S
C631 C21 0.786 . S
C636 C447 0.803 . S
C641 C202 3.622 . S
C646 C331 4.101 . S
C651 C242 3.608 . S
C656 C371 4.091 . S
C666 C411 4.088 . S
C661 C282 3.598 . S
C676 C451 4.103 . S
C671 C162 3.609 . S
C681 C42 3.646 1_655 S
C686 C322 4.110 . S
C696 C362 4.091 . S
C691 C82 3.630 1_565 S
C706 C402 4.088 . S
C701 C122 3.631 . S
C711 C2 3.649 . S
C716 C442 4.108 . S
