# Generated by pormake.
# Topology gar, (4,6)-cn, num edge types: 1
# Building blocks:
#     Node 0, Type 0, BuildingBlock: QUQFOY_clean_sbu_1, # of connection points: 4
#     Node 1, Type 0, BuildingBlock: QUQFOY_clean_sbu_1, # of connection points: 4
#     Node 2, Type 0, BuildingBlock: QUQFOY_clean_sbu_1, # of connection points: 4
#     Node 3, Type 0, BuildingBlock: QUQFOY_clean_sbu_1, # of connection points: 4
#     Node 4, Type 0, BuildingBlock: QUQFOY_clean_sbu_1, # of connection points: 4
#     Node 5, Type 0, BuildingBlock: QUQFOY_clean_sbu_1, # of connection points: 4
#     Node 6, Type 0, BuildingBlock: QUQFOY_clean_sbu_1, # of connection points: 4
#     Node 7, Type 0, BuildingBlock: QUQFOY_clean_sbu_1, # of connection points: 4
#     Node 8, Type 0, BuildingBlock: QUQFOY_clean_sbu_1, # of connection points: 4
#     Node 9, Type 0, BuildingBlock: QUQFOY_clean_sbu_1, # of connection points: 4
#     Node 10, Type 0, BuildingBlock: QUQFOY_clean_sbu_1, # of connection points: 4
#     Node 11, Type 0, BuildingBlock: QUQFOY_clean_sbu_1, # of connection points: 4
#     Node 12, Type 0, BuildingBlock: QUQFOY_clean_sbu_1, # of connection points: 4
#     Node 13, Type 0, BuildingBlock: QUQFOY_clean_sbu_1, # of connection points: 4
#     Node 14, Type 0, BuildingBlock: QUQFOY_clean_sbu_1, # of connection points: 4
#     Node 15, Type 0, BuildingBlock: QUQFOY_clean_sbu_1, # of connection points: 4
#     Node 16, Type 0, BuildingBlock: QUQFOY_clean_sbu_1, # of connection points: 4
#     Node 17, Type 0, BuildingBlock: QUQFOY_clean_sbu_1, # of connection points: 4
#     Node 18, Type 0, BuildingBlock: QUQFOY_clean_sbu_1, # of connection points: 4
#     Node 19, Type 0, BuildingBlock: QUQFOY_clean_sbu_1, # of connection points: 4
#     Node 20, Type 0, BuildingBlock: QUQFOY_clean_sbu_1, # of connection points: 4
#     Node 21, Type 0, BuildingBlock: QUQFOY_clean_sbu_1, # of connection points: 4
#     Node 22, Type 0, BuildingBlock: QUQFOY_clean_sbu_1, # of connection points: 4
#     Node 23, Type 0, BuildingBlock: QUQFOY_clean_sbu_1, # of connection points: 4
#     Node 24, Type 1, BuildingBlock: KUMJIN_clean_sbu_0, # of connection points: 6
#     Node 25, Type 1, BuildingBlock: KUMJIN_clean_sbu_0, # of connection points: 6
#     Node 26, Type 1, BuildingBlock: KUMJIN_clean_sbu_0, # of connection points: 6
#     Node 27, Type 1, BuildingBlock: KUMJIN_clean_sbu_0, # of connection points: 6
#     Node 28, Type 1, BuildingBlock: KUMJIN_clean_sbu_0, # of connection points: 6
#     Node 29, Type 1, BuildingBlock: KUMJIN_clean_sbu_0, # of connection points: 6
#     Node 30, Type 1, BuildingBlock: KUMJIN_clean_sbu_0, # of connection points: 6
#     Node 31, Type 1, BuildingBlock: KUMJIN_clean_sbu_0, # of connection points: 6
#     Node 32, Type 1, BuildingBlock: KUMJIN_clean_sbu_0, # of connection points: 6
#     Node 33, Type 1, BuildingBlock: KUMJIN_clean_sbu_0, # of connection points: 6
#     Node 34, Type 1, BuildingBlock: KUMJIN_clean_sbu_0, # of connection points: 6
#     Node 35, Type 1, BuildingBlock: KUMJIN_clean_sbu_0, # of connection points: 6
#     Node 36, Type 1, BuildingBlock: KUMJIN_clean_sbu_0, # of connection points: 6
#     Node 37, Type 1, BuildingBlock: KUMJIN_clean_sbu_0, # of connection points: 6
#     Node 38, Type 1, BuildingBlock: KUMJIN_clean_sbu_0, # of connection points: 6
#     Node 39, Type 1, BuildingBlock: KUMJIN_clean_sbu_0, # of connection points: 6
#     Edge 40, Type (0, 1), BuildingBlock: OJICUG_clean_linker_0, # of connection points: 2
#     Edge 41, Type (0, 1), BuildingBlock: OJICUG_clean_linker_0, # of connection points: 2
#     Edge 42, Type (0, 1), BuildingBlock: OJICUG_clean_linker_0, # of connection points: 2
#     Edge 43, Type (0, 1), BuildingBlock: OJICUG_clean_linker_0, # of connection points: 2
#     Edge 44, Type (0, 1), BuildingBlock: OJICUG_clean_linker_0, # of connection points: 2
#     Edge 45, Type (0, 1), BuildingBlock: OJICUG_clean_linker_0, # of connection points: 2
#     Edge 46, Type (0, 1), BuildingBlock: OJICUG_clean_linker_0, # of connection points: 2
#     Edge 47, Type (0, 1), BuildingBlock: OJICUG_clean_linker_0, # of connection points: 2
#     Edge 48, Type (0, 1), BuildingBlock: OJICUG_clean_linker_0, # of connection points: 2
#     Edge 49, Type (0, 1), BuildingBlock: OJICUG_clean_linker_0, # of connection points: 2
#     Edge 50, Type (0, 1), BuildingBlock: OJICUG_clean_linker_0, # of connection points: 2
#     Edge 51, Type (0, 1), BuildingBlock: OJICUG_clean_linker_0, # of connection points: 2
#     Edge 52, Type (0, 1), BuildingBlock: OJICUG_clean_linker_0, # of connection points: 2
#     Edge 53, Type (0, 1), BuildingBlock: OJICUG_clean_linker_0, # of connection points: 2
#     Edge 54, Type (0, 1), BuildingBlock: OJICUG_clean_linker_0, # of connection points: 2
#     Edge 55, Type (0, 1), BuildingBlock: OJICUG_clean_linker_0, # of connection points: 2
#     Edge 56, Type (0, 1), BuildingBlock: OJICUG_clean_linker_0, # of connection points: 2
#     Edge 57, Type (0, 1), BuildingBlock: OJICUG_clean_linker_0, # of connection points: 2
#     Edge 58, Type (0, 1), BuildingBlock: OJICUG_clean_linker_0, # of connection points: 2
#     Edge 59, Type (0, 1), BuildingBlock: OJICUG_clean_linker_0, # of connection points: 2
#     Edge 60, Type (0, 1), BuildingBlock: OJICUG_clean_linker_0, # of connection points: 2
#     Edge 61, Type (0, 1), BuildingBlock: OJICUG_clean_linker_0, # of connection points: 2
#     Edge 62, Type (0, 1), BuildingBlock: OJICUG_clean_linker_0, # of connection points: 2
#     Edge 63, Type (0, 1), BuildingBlock: OJICUG_clean_linker_0, # of connection points: 2
#     Edge 64, Type (0, 1), BuildingBlock: OJICUG_clean_linker_0, # of connection points: 2
#     Edge 65, Type (0, 1), BuildingBlock: OJICUG_clean_linker_0, # of connection points: 2
#     Edge 66, Type (0, 1), BuildingBlock: OJICUG_clean_linker_0, # of connection points: 2
#     Edge 67, Type (0, 1), BuildingBlock: OJICUG_clean_linker_0, # of connection points: 2
#     Edge 68, Type (0, 1), BuildingBlock: OJICUG_clean_linker_0, # of connection points: 2
#     Edge 69, Type (0, 1), BuildingBlock: OJICUG_clean_linker_0, # of connection points: 2
#     Edge 70, Type (0, 1), BuildingBlock: OJICUG_clean_linker_0, # of connection points: 2
#     Edge 71, Type (0, 1), BuildingBlock: OJICUG_clean_linker_0, # of connection points: 2
#     Edge 72, Type (0, 1), BuildingBlock: OJICUG_clean_linker_0, # of connection points: 2
#     Edge 73, Type (0, 1), BuildingBlock: OJICUG_clean_linker_0, # of connection points: 2
#     Edge 74, Type (0, 1), BuildingBlock: OJICUG_clean_linker_0, # of connection points: 2
#     Edge 75, Type (0, 1), BuildingBlock: OJICUG_clean_linker_0, # of connection points: 2
#     Edge 76, Type (0, 1), BuildingBlock: OJICUG_clean_linker_0, # of connection points: 2
#     Edge 77, Type (0, 1), BuildingBlock: OJICUG_clean_linker_0, # of connection points: 2
#     Edge 78, Type (0, 1), BuildingBlock: OJICUG_clean_linker_0, # of connection points: 2
#     Edge 79, Type (0, 1), BuildingBlock: OJICUG_clean_linker_0, # of connection points: 2
#     Edge 80, Type (0, 1), BuildingBlock: OJICUG_clean_linker_0, # of connection points: 2
#     Edge 81, Type (0, 1), BuildingBlock: OJICUG_clean_linker_0, # of connection points: 2
#     Edge 82, Type (0, 1), BuildingBlock: OJICUG_clean_linker_0, # of connection points: 2
#     Edge 83, Type (0, 1), BuildingBlock: OJICUG_clean_linker_0, # of connection points: 2
#     Edge 84, Type (0, 1), BuildingBlock: OJICUG_clean_linker_0, # of connection points: 2
#     Edge 85, Type (0, 1), BuildingBlock: OJICUG_clean_linker_0, # of connection points: 2
#     Edge 86, Type (0, 1), BuildingBlock: OJICUG_clean_linker_0, # of connection points: 2
#     Edge 87, Type (0, 1), BuildingBlock: OJICUG_clean_linker_0, # of connection points: 2
#     Edge 88, Type (0, 1), BuildingBlock: OJICUG_clean_linker_0, # of connection points: 2
#     Edge 89, Type (0, 1), BuildingBlock: OJICUG_clean_linker_0, # of connection points: 2
#     Edge 90, Type (0, 1), BuildingBlock: OJICUG_clean_linker_0, # of connection points: 2
#     Edge 91, Type (0, 1), BuildingBlock: OJICUG_clean_linker_0, # of connection points: 2
#     Edge 92, Type (0, 1), BuildingBlock: OJICUG_clean_linker_0, # of connection points: 2
#     Edge 93, Type (0, 1), BuildingBlock: OJICUG_clean_linker_0, # of connection points: 2
#     Edge 94, Type (0, 1), BuildingBlock: OJICUG_clean_linker_0, # of connection points: 2
#     Edge 95, Type (0, 1), BuildingBlock: OJICUG_clean_linker_0, # of connection points: 2
#     Edge 96, Type (0, 1), BuildingBlock: OJICUG_clean_linker_0, # of connection points: 2
#     Edge 97, Type (0, 1), BuildingBlock: OJICUG_clean_linker_0, # of connection points: 2
#     Edge 98, Type (0, 1), BuildingBlock: OJICUG_clean_linker_0, # of connection points: 2
#     Edge 99, Type (0, 1), BuildingBlock: OJICUG_clean_linker_0, # of connection points: 2
#     Edge 100, Type (0, 1), BuildingBlock: OJICUG_clean_linker_0, # of connection points: 2
#     Edge 101, Type (0, 1), BuildingBlock: OJICUG_clean_linker_0, # of connection points: 2
#     Edge 102, Type (0, 1), BuildingBlock: OJICUG_clean_linker_0, # of connection points: 2
#     Edge 103, Type (0, 1), BuildingBlock: OJICUG_clean_linker_0, # of connection points: 2
#     Edge 104, Type (0, 1), BuildingBlock: OJICUG_clean_linker_0, # of connection points: 2
#     Edge 105, Type (0, 1), BuildingBlock: OJICUG_clean_linker_0, # of connection points: 2
#     Edge 106, Type (0, 1), BuildingBlock: OJICUG_clean_linker_0, # of connection points: 2
#     Edge 107, Type (0, 1), BuildingBlock: OJICUG_clean_linker_0, # of connection points: 2
#     Edge 108, Type (0, 1), BuildingBlock: OJICUG_clean_linker_0, # of connection points: 2
#     Edge 109, Type (0, 1), BuildingBlock: OJICUG_clean_linker_0, # of connection points: 2
#     Edge 110, Type (0, 1), BuildingBlock: OJICUG_clean_linker_0, # of connection points: 2
#     Edge 111, Type (0, 1), BuildingBlock: OJICUG_clean_linker_0, # of connection points: 2
#     Edge 112, Type (0, 1), BuildingBlock: OJICUG_clean_linker_0, # of connection points: 2
#     Edge 113, Type (0, 1), BuildingBlock: OJICUG_clean_linker_0, # of connection points: 2
#     Edge 114, Type (0, 1), BuildingBlock: OJICUG_clean_linker_0, # of connection points: 2
#     Edge 115, Type (0, 1), BuildingBlock: OJICUG_clean_linker_0, # of connection points: 2
#     Edge 116, Type (0, 1), BuildingBlock: OJICUG_clean_linker_0, # of connection points: 2
#     Edge 117, Type (0, 1), BuildingBlock: OJICUG_clean_linker_0, # of connection points: 2
#     Edge 118, Type (0, 1), BuildingBlock: OJICUG_clean_linker_0, # of connection points: 2
#     Edge 119, Type (0, 1), BuildingBlock: OJICUG_clean_linker_0, # of connection points: 2
#     Edge 120, Type (0, 1), BuildingBlock: OJICUG_clean_linker_0, # of connection points: 2
#     Edge 121, Type (0, 1), BuildingBlock: OJICUG_clean_linker_0, # of connection points: 2
#     Edge 122, Type (0, 1), BuildingBlock: OJICUG_clean_linker_0, # of connection points: 2
#     Edge 123, Type (0, 1), BuildingBlock: OJICUG_clean_linker_0, # of connection points: 2
#     Edge 124, Type (0, 1), BuildingBlock: OJICUG_clean_linker_0, # of connection points: 2
#     Edge 125, Type (0, 1), BuildingBlock: OJICUG_clean_linker_0, # of connection points: 2
#     Edge 126, Type (0, 1), BuildingBlock: OJICUG_clean_linker_0, # of connection points: 2
#     Edge 127, Type (0, 1), BuildingBlock: OJICUG_clean_linker_0, # of connection points: 2
#     Edge 128, Type (0, 1), BuildingBlock: OJICUG_clean_linker_0, # of connection points: 2
#     Edge 129, Type (0, 1), BuildingBlock: OJICUG_clean_linker_0, # of connection points: 2
#     Edge 130, Type (0, 1), BuildingBlock: OJICUG_clean_linker_0, # of connection points: 2
#     Edge 131, Type (0, 1), BuildingBlock: OJICUG_clean_linker_0, # of connection points: 2
#     Edge 132, Type (0, 1), BuildingBlock: OJICUG_clean_linker_0, # of connection points: 2
#     Edge 133, Type (0, 1), BuildingBlock: OJICUG_clean_linker_0, # of connection points: 2
#     Edge 134, Type (0, 1), BuildingBlock: OJICUG_clean_linker_0, # of connection points: 2
#     Edge 135, Type (0, 1), BuildingBlock: OJICUG_clean_linker_0, # of connection points: 2
# Relax obj value: 0.161
# Max RMSD: 0.361
# Mean RMSD: 0.181
data_MOF--net-gar--node1-QUQFOY_clean_sbu_1--node2-KUMJIN_clean_sbu_0--edge1-OJICUG_clean_linker_0
_symmetry_space_group_name_H-M    P1
_symmetry_Int_Tables_number       1
_symmetry_cell_setting            triclinic
loop_
_symmetry_equiv_pos_as_xyz
'x, y, z'
_cell_length_a     48.274216
_cell_length_b     42.61508
_cell_length_c     42.628524
_cell_angle_alpha  101.69271
_cell_angle_beta   94.439031
_cell_angle_gamma 105.36501
loop_
_atom_site_label
_atom_site_type_symbol
_atom_site_fract_x
_atom_site_fract_y
_atom_site_fract_z
_atom_type_partial_charge
O0 O 0.13991 0.28195 0.40036 0.0
Cd1 Cd 0.14865 0.308 0.36456 0.0
Cd2 Cd 0.14722 0.36342 0.41673 0.0
O3 O 0.15475 0.3279 0.43939 0.0
O4 O 0.17425 0.2927 0.33439 0.0
O5 O 0.18764 0.34102 0.37137 0.0
C6 C 0.19379 0.32041 0.34811 0.0
C7 C 0.14586 0.41052 0.45463 0.0
C8 C 0.14663 0.29626 0.43027 0.0
C9 C 0.10292 0.33802 0.35335 0.0
O10 O 0.11284 0.35514 0.38184 0.0
O11 O 0.11497 0.31706 0.33946 0.0
O12 O 0.16612 0.41279 0.43648 0.0
O13 O 0.12772 0.38179 0.45196 0.0
O14 O 0.99955 0.69417 0.68834 0.0
Cd15 Cd 1.00754 0.74045 0.71867 0.0
Cd16 Cd 0.02161 0.75706 0.66491 0.0
O17 O 0.99207 0.71186 0.64476 0.0
O18 O 0.98057 0.74178 0.75075 0.0
O19 O 0.98385 0.77062 0.71226 0.0
C20 C 0.9717 0.7622 0.73657 0.0
C21 C 0.0322 0.79499 0.63191 0.0
C22 C 0.99457 0.68828 0.65773 0.0
C23 C 0.06711 0.75495 0.71809 0.0
O24 O 0.05869 0.75306 0.68861 0.0
O25 O 0.0499 0.75724 0.73889 0.0
O26 O 0.0367 0.7662 0.6248 0.0
O27 O 0.0205 0.80224 0.65758 0.0
O28 O 0.70789 0.85175 0.89612 0.0
Cd29 Cd 0.67544 0.85002 0.92559 0.0
Cd30 Cd 0.65121 0.87144 0.87053 0.0
O31 O 0.68706 0.86291 0.85323 0.0
O32 O 0.68716 0.83326 0.96327 0.0
O33 O 0.6472 0.80701 0.9286 0.0
C34 C 0.66321 0.80944 0.95524 0.0
C35 C 0.61134 0.86618 0.83407 0.0
C36 C 0.7082 0.85664 0.8676 0.0
C37 C 0.65891 0.9145 0.93726 0.0
O38 O 0.65469 0.9117 0.90708 0.0
O39 O 0.66638 0.89234 0.94873 0.0
O40 O 0.63542 0.88886 0.83597 0.0
O41 O 0.61051 0.84417 0.85109 0.0
O42 O 0.49395 0.17857 0.18085 0.0
Cd43 Cd 0.50114 0.21964 0.21772 0.0
Cd44 Cd 0.53277 0.25599 0.18069 0.0
O45 O 0.51507 0.2101 0.14952 0.0
O46 O 0.46843 0.21828 0.24268 0.0
O47 O 0.48276 0.25495 0.21228 0.0
C48 C 0.46512 0.24315 0.23126 0.0
C49 C 0.54889 0.29532 0.14983 0.0
C50 C 0.50223 0.18155 0.15385 0.0
C51 C 0.56307 0.2448 0.2411 0.0
O52 O 0.56465 0.25829 0.21706 0.0
O53 O 0.53881 0.22868 0.24715 0.0
O54 O 0.55981 0.27121 0.15076 0.0
O55 O 0.52877 0.29826 0.16741 0.0
O56 O 0.12097 0.77476 0.12253 0.0
Cd57 Cd 0.12535 0.8208 0.15124 0.0
Cd58 Cd 0.14482 0.84398 0.09796 0.0
O59 O 0.12814 0.78853 0.07609 0.0
O60 O 0.10574 0.80512 0.18707 0.0
O61 O 0.09007 0.83739 0.16015 0.0
C62 C 0.08662 0.82013 0.18189 0.0
C63 C 0.12824 0.89285 0.08453 0.0
C64 C 0.12247 0.76574 0.09268 0.0
C65 C 0.18955 0.85049 0.15868 0.0
O66 O 0.18593 0.8527 0.12899 0.0
O67 O 0.16746 0.84282 0.1731 0.0
O68 O 0.14457 0.8786 0.06751 0.0
O69 O 0.12053 0.87937 0.10834 0.0
O70 O 0.59025 0.78299 0.44065 0.0
Cd71 Cd 0.57072 0.78416 0.48311 0.0
Cd72 Cd 0.5253 0.80255 0.42424 0.0
O73 O 0.55941 0.79038 0.4026 0.0
O74 O 0.59375 0.76183 0.51211 0.0
O75 O 0.54898 0.73658 0.49045 0.0
C76 C 0.57211 0.73504 0.50683 0.0
C77 C 0.48281 0.80187 0.3885 0.0
C78 C 0.58353 0.78564 0.41187 0.0
C79 C 0.55751 0.85577 0.48979 0.0
O80 O 0.54119 0.84407 0.46253 0.0
O81 O 0.56933 0.83661 0.50308 0.0
O82 O 0.50804 0.82217 0.38959 0.0
O83 O 0.48118 0.78158 0.40744 0.0
O84 O 0.63621 0.27822 0.64156 0.0
Cd85 Cd 0.64243 0.32488 0.66993 0.0
Cd86 Cd 0.6594 0.34442 0.61526 0.0
O87 O 0.64201 0.28893 0.59386 0.0
O88 O 0.62088 0.31106 0.7053 0.0
O89 O 0.60788 0.34348 0.67647 0.0
C90 C 0.60258 0.32651 0.69828 0.0
C91 C 0.64068 0.3921 0.60056 0.0
C92 C 0.63643 0.26733 0.61166 0.0
C93 C 0.70642 0.35055 0.6757 0.0
O94 O 0.7015 0.35209 0.64581 0.0
O95 O 0.68509 0.34488 0.69163 0.0
O96 O 0.65738 0.37817 0.58387 0.0
O97 O 0.63417 0.37945 0.62518 0.0
O98 O 0.04482 0.22146 0.94567 0.0
Cd99 Cd 0.04362 0.25627 0.91794 0.0
Cd100 Cd 0.02801 0.29258 0.97559 0.0
O101 O 0.04029 0.2503 0.99313 0.0
O102 O 0.06556 0.24341 0.88187 0.0
O103 O 0.08094 0.29166 0.91798 0.0
C104 C 0.08507 0.2717 0.89279 0.0
C105 C 0.04806 0.35356 0.99749 0.0
C106 C 0.04507 0.22385 0.97598 0.0
C107 C 0.98643 0.27339 0.90914 0.0
O108 O 0.99032 0.28434 0.94004 0.0
O109 O 1.00519 0.26112 0.89587 0.0
O110 O 0.0295 0.33512 1.01141 0.0
O111 O 0.05728 0.33748 0.97334 0.0
O112 O 0.43682 0.02647 0.28704 0.0
Cd113 Cd 0.41468 0.0416 0.32372 0.0
Cd114 Cd 0.46906 0.05224 0.34872 0.0
O115 O 0.47323 0.0702 0.30805 0.0
O116 O 0.40492 0.08385 0.32651 0.0
O117 O 0.37551 0.03334 0.30212 0.0
C118 C 0.3805 0.06538 0.30963 0.0
C119 C 0.50771 0.07196 0.38873 0.0
C120 C 0.46078 0.04617 0.28429 0.0
C121 C 0.42155 0.9938 0.3508 0.0
O122 O 0.44681 1.00237 0.34302 0.0
O123 O 0.4097 1.01664 0.35932 0.0
O124 O 0.50895 0.05264 0.36178 0.0
O125 O 0.48439 0.08095 0.39251 0.0
O126 O 0.32962 0.21814 0.57934 0.0
Cd127 Cd 0.32826 0.18586 0.53621 0.0
Cd128 Cd 0.30476 0.23514 0.5176 0.0
O129 O 0.31774 0.26142 0.56816 0.0
O130 O 0.34314 0.15466 0.55697 0.0
O131 O 0.36568 0.17796 0.52098 0.0
C132 C 0.36495 0.1593 0.54139 0.0
C133 C 0.31798 0.25309 0.46871 0.0
C134 C 0.32525 0.24635 0.58912 0.0
C135 C 0.26475 0.16407 0.51187 0.0
O136 O 0.26698 0.19461 0.51157 0.0
O137 O 0.28731 0.15498 0.51756 0.0
O138 O 0.30066 0.26502 0.48605 0.0
O139 O 0.32917 0.23238 0.47977 0.0
O140 O 0.20034 1.01763 0.71992 0.0
Cd141 Cd 0.23736 1.018 0.75527 0.0
Cd142 Cd 0.18536 0.05529 0.79868 0.0
O143 O 0.1674 0.03883 0.74527 0.0
O144 O 0.26539 0.98778 0.7351 0.0
O145 O 0.24417 0.97681 0.77559 0.0
C146 C 0.26131 0.96869 0.75547 0.0
C147 C 0.16077 0.05476 0.85155 0.0
C148 C 0.17685 0.02737 0.71853 0.0
C149 C 0.25032 0.09829 0.78951 0.0
O150 O 0.22522 0.09393 0.79954 0.0
O151 O 0.2587 0.07283 0.77538 0.0
O152 O 0.15678 0.07257 0.83124 0.0
O153 O 0.1775 0.03647 0.84216 0.0
O154 O 0.37335 0.98499 0.07107 0.0
Cd155 Cd 0.36787 1.00184 0.03013 0.0
Cd156 Cd 0.35803 0.93932 1.0062 0.0
O157 O 0.34477 0.93439 0.04977 0.0
O158 O 0.35452 0.04191 0.04331 0.0
O159 O 0.32675 0.99366 1.01203 0.0
C160 C 0.32916 0.02343 0.02888 0.0
C161 C 0.34059 0.90003 0.95827 0.0
C162 C 0.35916 0.95649 0.07442 0.0
C163 C 0.41578 0.98599 1.00366 0.0
O164 O 0.40167 0.95752 1.00696 0.0
O165 O 0.40394 1.00957 1.00671 0.0
O166 O 0.35421 0.89332 0.98204 0.0
O167 O 0.33372 0.92778 0.96309 0.0
O168 O 0.35638 0.40413 0.10753 0.0
Cd169 Cd 0.36372 0.43087 0.07244 0.0
Cd170 Cd 0.37282 0.37258 0.03851 0.0
O171 O 0.35512 0.35427 0.07898 0.0
O172 O 0.34632 0.46838 0.08627 0.0
O173 O 0.33056 0.43016 0.04033 0.0
C174 C 0.32815 0.45635 0.06002 0.0
C175 C 0.35593 0.35533 0.98112 0.0
C176 C 0.35248 0.37309 0.10562 0.0
C177 C 0.4245 0.43545 0.05853 0.0
O178 O 0.41577 0.40366 0.04839 0.0
O179 O 0.40657 0.45156 0.06732 0.0
O180 O 0.36879 0.33802 0.9955 0.0
O181 O 0.3504 0.38041 0.99953 0.0
O182 O 0.81678 0.14288 0.12219 0.0
Cd183 Cd 0.80206 0.09968 0.0865 0.0
Cd184 Cd 0.79953 0.14882 0.05641 0.0
O185 O 0.83763 0.1676 0.08693 0.0
O186 O 0.8245 0.06682 0.08591 0.0
O187 O 0.82455 0.09777 0.04959 0.0
C188 C 0.83413 0.07593 0.06064 0.0
C189 C 0.79503 0.17882 0.01834 0.0
C190 C 0.83321 0.16871 0.11582 0.0
C191 C 0.74575 0.10636 0.07661 0.0
O192 O 0.76042 0.13453 0.07308 0.0
O193 O 0.75762 0.08308 0.07677 0.0
O194 O 0.79387 0.19051 0.04823 0.0
O195 O 0.79981 0.15013 1.00971 0.0
O196 O 0.20332 0.53917 0.21232 0.0
Cd197 Cd 0.24682 0.55693 0.22356 0.0
Cd198 Cd 0.2381 0.59997 0.27186 0.0
O199 O 0.20323 0.58973 0.23671 0.0
O200 O 0.27081 0.52577 0.21967 0.0
O201 O 0.26165 0.55311 0.26629 0.0
C202 C 0.27476 0.53328 0.25101 0.0
C203 C 0.2249 0.61496 0.32172 0.0
C204 C 0.19043 0.56166 0.21765 0.0
C205 C 0.28098 0.62438 0.23588 0.0
O206 O 0.27956 0.61996 0.26419 0.0
O207 O 0.26514 0.60193 0.21249 0.0
O208 O 0.23077 0.63608 0.30372 0.0
O209 O 0.22893 0.5859 0.31225 0.0
O210 O 0.86206 0.90638 0.61632 0.0
Cd211 Cd 0.86912 0.93159 0.58019 0.0
Cd212 Cd 0.87716 0.8728 0.54697 0.0
O213 O 0.85983 0.85597 0.58832 0.0
O214 O 0.85185 0.96945 0.5923 0.0
O215 O 0.83577 0.92922 0.54777 0.0
C216 C 0.83355 0.95622 0.56624 0.0
C217 C 0.85873 0.85599 0.49003 0.0
C218 C 0.85768 0.87537 0.61485 0.0
C219 C 0.92923 0.93489 0.56447 0.0
O220 O 0.92033 0.90305 0.55517 0.0
O221 O 0.91162 0.95132 0.57356 0.0
O222 O 0.87131 0.83797 0.50372 0.0
O223 O 0.85429 0.88146 0.50897 0.0
O224 O 0.97321 0.08602 0.22539 0.0
Cd225 Cd 0.93657 0.09032 0.25534 0.0
Cd226 Cd 0.99546 0.05862 0.29795 0.0
O227 O 1.00889 0.07035 0.25045 0.0
O228 O 0.90705 0.1147 0.23456 0.0
O229 O 0.93047 0.13775 0.28196 0.0
C230 C 0.91207 0.13986 0.25925 0.0
C231 C 0.02287 0.0595 0.35278 0.0
C232 C 0.99782 0.07838 0.22512 0.0
C233 C 0.92578 1.01808 0.27865 0.0
O234 O 0.95295 0.02471 0.28891 0.0
O235 O 0.91588 0.03991 0.26715 0.0
O236 O 0.02338 0.03899 0.32603 0.0
O237 O 1.00895 0.08082 0.34872 0.0
O238 O 0.32927 0.64777 0.60451 0.0
Cd239 Cd 0.31177 0.60576 0.56766 0.0
Cd240 Cd 0.30969 0.65493 0.54112 0.0
O241 O 0.34734 0.67805 0.57157 0.0
O242 O 0.33165 0.57062 0.56786 0.0
O243 O 0.33236 0.59879 0.52915 0.0
C244 C 0.34068 0.57672 0.54128 0.0
C245 C 0.30187 0.67872 0.49884 0.0
C246 C 0.34418 0.67551 0.60014 0.0
C247 C 0.25662 0.61641 0.56514 0.0
O248 O 0.27197 0.6439 0.56085 0.0
O249 O 0.26705 0.5917 0.56303 0.0
O250 O 0.30282 0.6941 0.5282 0.0
O251 O 0.30694 0.65003 0.49299 0.0
O252 O 0.47969 0.58927 0.73205 0.0
Cd253 Cd 0.44073 0.59246 0.7584 0.0
Cd254 Cd 0.49878 0.56081 0.80489 0.0
O255 O 0.51439 0.57369 0.75916 0.0
O256 O 0.41184 0.6162 0.7352 0.0
O257 O 0.43223 0.63909 0.78381 0.0
C258 C 0.415 0.64099 0.75983 0.0
C259 C 0.52466 0.56008 0.85974 0.0
C260 C 0.50449 0.58202 0.73349 0.0
C261 C 0.42954 0.51972 0.78084 0.0
O262 O 0.45631 0.52697 0.79303 0.0
O263 O 0.41992 0.54129 0.76852 0.0
O264 O 0.52563 0.54006 0.83287 0.0
O265 O 0.51101 0.58168 0.85586 0.0
O266 O 0.7272 0.02855 0.68404 0.0
Cd267 Cd 0.76685 0.04738 0.71246 0.0
Cd268 Cd 0.73317 0.07112 0.76024 0.0
O269 O 0.70232 0.04167 0.72359 0.0
O270 O 0.7911 1.01702 0.71814 0.0
O271 O 0.76552 0.03614 0.75475 0.0
C272 C 0.78282 1.01857 0.74644 0.0
C273 C 0.71302 0.08652 0.80613 0.0
C274 C 0.70315 0.02846 0.6944 0.0
C275 C 0.78182 0.11888 0.73488 0.0
O276 O 0.76227 0.11157 0.75246 0.0
O277 O 0.78874 0.09648 0.71534 0.0
O278 O 0.70938 0.0978 0.78094 0.0
O279 O 0.72822 0.06573 0.80554 0.0
O280 O 0.82306 0.71869 0.09003 0.0
Cd281 Cd 0.82515 0.68895 0.04649 0.0
Cd282 Cd 0.80087 0.73729 0.02752 0.0
O283 O 0.81261 0.7626 0.07809 0.0
O284 O 0.841 0.6559 0.06341 0.0
O285 O 0.86502 0.6878 0.03415 0.0
C286 C 0.86406 0.66538 0.05063 0.0
C287 C 0.81374 0.75714 0.97976 0.0
C288 C 0.81857 0.74697 0.09928 0.0
C289 C 0.76262 0.66517 0.01873 0.0
O290 O 0.76395 0.69576 0.01993 0.0
O291 O 0.78562 0.65688 0.02429 0.0
O292 O 0.79566 0.76759 0.99698 0.0
O293 O 0.8259 0.73699 0.99047 0.0
O294 O 0.92981 0.54736 0.78899 0.0
Cd295 Cd 0.91492 0.54987 0.83327 0.0
Cd296 Cd 0.97118 0.55991 0.84189 0.0
O297 O 0.96457 0.59071 0.8134 0.0
O298 O 0.9028 0.5892 0.85287 0.0
O299 O 0.87324 0.54124 0.82284 0.0
C300 C 0.87715 0.57164 0.8385 0.0
C301 C 1.00611 0.57387 0.88379 0.0
C302 C 0.95236 0.56997 0.78728 0.0
C303 C 0.93113 0.49544 0.8403 0.0
O304 O 0.95219 0.50891 0.8268 0.0
O305 O 0.91805 0.51383 0.85641 0.0
O306 O 1.01249 0.56721 0.85478 0.0
O307 O 0.98029 0.57553 0.88848 0.0
O308 O 0.88432 0.47434 0.58738 0.0
Cd309 Cd 0.87793 0.49362 0.54814 0.0
Cd310 Cd 0.87302 0.43363 0.51938 0.0
O311 O 0.86104 0.42273 0.56168 0.0
O312 O 0.8632 0.5321 0.56342 0.0
O313 O 0.8367 0.48444 0.52994 0.0
C314 C 0.83836 0.51352 0.54776 0.0
C315 C 0.85496 0.39758 0.46964 0.0
C316 C 0.87289 0.44401 0.58787 0.0
C317 C 0.92822 0.48651 0.5208 0.0
O318 O 0.91618 0.45622 0.52065 0.0
O319 O 0.91405 0.50778 0.52629 0.0
O320 O 0.87081 0.39005 0.49096 0.0
O321 O 0.84699 0.42442 0.47774 0.0
O322 O 0.70122 0.51848 0.2272 0.0
Cd323 Cd 0.73804 0.51926 0.26291 0.0
Cd324 Cd 0.68615 0.55441 0.30615 0.0
O325 O 0.66789 0.53865 0.2527 0.0
O326 O 0.76642 0.48943 0.24323 0.0
O327 O 0.74484 0.47837 0.28352 0.0
C328 C 0.76223 0.47041 0.26365 0.0
C329 C 0.66329 0.55326 0.35983 0.0
C330 C 0.67755 0.52783 0.22587 0.0
C331 C 0.75007 0.59903 0.29742 0.0
O332 O 0.725 0.59391 0.30741 0.0
O333 O 0.75894 0.57406 0.28311 0.0
O334 O 0.6581 0.57081 0.33976 0.0
O335 O 0.68007 0.53533 0.34961 0.0
Eu336 Eu 0.05056 0.03551 0.01832 0.0
C337 C 0.11735 0.16021 0.10143 0.0
C338 C 0.12325 0.19666 0.0641 0.0
C339 C 0.11738 0.21821 0.11962 0.0
C340 C 0.12011 0.16469 0.07044 0.0
C341 C 0.11689 0.18728 0.12657 0.0
C342 C 0.12072 0.22295 0.08846 0.0
C343 C 0.12122 0.15355 0.16474 0.0
N344 N 0.11817 0.13049 0.10771 0.0
C345 C 0.1224 0.12783 0.13919 0.0
C346 C 0.11754 0.18307 0.15828 0.0
Eu347 Eu 0.11521 0.08624 0.06179 0.0
N348 N 0.1224 0.13876 0.04727 0.0
C349 C 0.13125 0.14442 0.01864 0.0
C350 C 0.12999 0.20167 0.03386 0.0
C351 C 0.13475 0.17566 1.01136 0.0
H352 H 0.12577 0.10521 0.1445 0.0
H353 H 0.141 0.17958 0.9883 0.0
H354 H 0.12246 0.24741 0.08377 0.0
H355 H 0.12329 0.15064 0.18938 0.0
H356 H 0.13553 0.12521 1.00087 0.0
H357 H 0.0218 0.95315 0.10204 0.0
H358 H 0.13261 0.22582 0.02809 0.0
H359 H 0.0471 1.00808 0.93588 0.0
H360 H 0.02714 1.00394 0.08262 0.0
H361 H 0.05191 0.95947 0.89735 0.0
H362 H 0.11665 0.23911 0.13854 0.0
H363 H 0.03141 0.90387 0.06827 0.0
H364 H 0.04371 0.87672 0.01574 0.0
H365 H 0.11668 0.20306 0.17809 0.0
H366 H 0.05278 0.87879 0.96021 0.0
N367 N 0.04229 0.98591 0.03861 0.0
C368 C 0.03259 0.98367 0.06766 0.0
C369 C 0.03427 0.92658 0.0596 0.0
C370 C 0.04215 0.92801 0.02897 0.0
C371 C 0.02892 0.95434 0.07874 0.0
C372 C 0.04566 0.95826 0.01877 0.0
H373 H 0.05549 0.90923 0.91584 0.0
N374 N 0.05166 0.98791 0.97755 0.0
C375 C 0.0523 0.95929 0.92274 0.0
C376 C 0.05093 0.95946 0.98753 0.0
C377 C 0.05018 0.98717 0.94503 0.0
C378 C 0.05427 0.93103 0.93326 0.0
C379 C 0.05263 0.93041 0.96573 0.0
O380 O 1.01281 1.01413 0.9815 0.0
O381 O 0.0727 0.09146 0.03847 0.0
O382 O 0.0846 0.07605 0.10146 0.0
O383 O 0.03976 0.05618 0.07065 0.0
O384 O 0.05327 0.07582 0.99051 0.0
O385 O 1.00707 0.03704 0.03024 0.0
O386 O 0.15685 0.10913 0.0928 0.0
O387 O 0.09341 0.03063 0.0411 0.0
O388 O 0.07973 0.04747 0.97815 0.0
O389 O 0.12488 0.07103 1.00797 0.0
O390 O 0.11228 0.04489 0.08907 0.0
O391 O 0.15542 0.07911 0.04532 0.0
C392 C 0.06629 0.10196 1.0131 0.0
C393 C 0.96374 1.01259 0.98967 0.0
C394 C 0.91603 1.01948 0.9962 0.0
C395 C 0.94557 0.02736 1.00791 0.0
C396 C 0.90463 0.99663 0.96653 0.0
C397 C 0.952 0.98957 0.95997 0.0
C398 C 0.92256 0.98162 0.94854 0.0
C399 C 0.0558 0.0679 0.0999 0.0
C400 C 0.99496 1.02154 1.00086 0.0
C401 C 0.05109 0.90109 0.9765 0.0
C402 C 0.04583 0.89988 1.00806 0.0
C403 C 0.0997 1.01912 0.06582 0.0
C404 C 0.19083 0.07819 0.08597 0.0
C405 C 0.21345 0.07241 0.06903 0.0
C406 C 0.23211 0.05598 0.08078 0.0
C407 C 0.22832 0.04557 0.10973 0.0
C408 C 0.18709 0.06751 0.11489 0.0
C409 C 0.2059 0.0514 0.12673 0.0
C410 C 0.10833 0.05857 0.97914 0.0
C411 C 0.17131 0.09504 0.07282 0.0
H412 H 0.95436 0.04532 0.03076 0.0
H413 H 0.88187 0.99053 0.95747 0.0
H414 H 0.96556 0.97773 0.94552 0.0
H415 H 0.91375 0.96397 0.92561 0.0
H416 H 0.21643 0.08047 0.04664 0.0
H417 H 0.24275 0.03301 0.11915 0.0
H418 H 0.16969 0.07156 0.12831 0.0
H419 H 0.20305 0.04335 0.14907 0.0
Eu420 Eu 0.35584 0.81078 0.23 0.0
C421 C 0.29675 0.88074 0.33622 0.0
C422 C 0.33785 0.91901 0.37323 0.0
C423 C 0.29219 0.93261 0.3688 0.0
C424 C 0.32542 0.88911 0.3493 0.0
C425 C 0.27946 0.90177 0.34672 0.0
C426 C 0.32138 0.94122 0.38206 0.0
C427 C 0.23757 0.85809 0.31689 0.0
N428 N 0.28508 0.85059 0.31542 0.0
C429 C 0.25567 0.8382 0.30728 0.0
C430 C 0.24962 0.89039 0.33606 0.0
Eu431 Eu 0.31622 0.81722 0.2999 0.0
N432 N 0.34064 0.86702 0.34018 0.0
C433 C 0.36791 0.87255 0.35591 0.0
C434 C 0.36616 0.92526 0.38826 0.0
C435 C 0.38107 0.90164 0.37988 0.0
H436 H 0.24626 0.81318 0.2924 0.0
H437 H 0.40284 0.90589 0.39173 0.0
H438 H 0.33073 0.96455 0.39993 0.0
H439 H 0.21437 0.8485 0.30945 0.0
H440 H 0.38011 0.85503 0.35025 0.0
H441 H 0.28175 0.76777 0.11514 0.0
H442 H 0.37647 0.94788 0.40673 0.0
H443 H 0.40285 0.76956 0.25472 0.0
H444 H 0.31644 0.80923 0.15918 0.0
H445 H 0.40661 0.71292 0.24708 0.0
H446 H 0.27938 0.94935 0.37674 0.0
H447 H 0.27634 0.7075 0.10967 0.0
H448 H 0.29482 0.66328 0.12717 0.0
H449 H 0.23558 0.90573 0.34361 0.0
H450 H 0.32977 0.64856 0.16233 0.0
N451 N 0.32626 0.773 0.1825 0.0
C452 C 0.31248 0.78303 0.15874 0.0
C453 C 0.2907 0.72566 0.12988 0.0
C454 C 0.30814 0.71585 0.15147 0.0
C455 C 0.29355 0.75958 0.133 0.0
C456 C 0.32622 0.74049 0.17768 0.0
H457 H 0.37167 0.66687 0.20662 0.0
N458 N 0.36329 0.7565 0.22219 0.0
C459 C 0.38891 0.71774 0.2335 0.0
C460 C 0.34571 0.73214 0.19765 0.0
C461 C 0.38601 0.75006 0.23848 0.0
C462 C 0.36934 0.69191 0.21048 0.0
C463 C 0.34782 0.69902 0.19166 0.0
O464 O 0.4027 0.83277 0.23334 0.0
O465 O 0.35174 0.84247 0.27616 0.0
O466 O 0.29198 0.83518 0.26147 0.0
O467 O 0.31426 0.82572 0.21478 0.0
O468 O 0.35639 0.86522 0.23755 0.0
O469 O 0.37606 0.81577 0.1868 0.0
O470 O 0.28073 0.7806 0.31279 0.0
O471 O 0.32851 0.78343 0.26004 0.0
O472 O 0.38673 0.81425 0.27513 0.0
O473 O 0.35716 0.8027 0.3144 0.0
O474 O 0.28467 0.77506 0.26249 0.0
O475 O 0.32233 0.79893 0.34328 0.0
C476 C 0.3541 0.86974 0.26813 0.0
C477 C 0.41601 0.8631 0.19419 0.0
C478 C 0.41217 0.90897 0.17014 0.0
C479 C 0.39923 0.8814 0.18232 0.0
C480 C 0.44259 0.91982 0.17232 0.0
C481 C 0.44626 0.87385 0.19618 0.0
C482 C 0.4595 0.90234 0.18545 0.0
C483 C 0.29318 0.83427 0.2301 0.0
C484 C 0.40171 0.83185 0.20267 0.0
C485 C 0.32881 0.67418 0.16677 0.0
C486 C 0.30888 0.68254 0.14682 0.0
C487 C 0.3039 0.7637 0.24843 0.0
C488 C 0.28135 0.77996 0.36786 0.0
C489 C 0.28503 0.75725 0.38584 0.0
C490 C 0.27321 0.75657 0.41462 0.0
C491 C 0.25637 0.77812 0.42467 0.0
C492 C 0.26503 0.80193 0.37808 0.0
C493 C 0.25228 0.80068 0.40632 0.0
C494 C 0.38256 0.80662 0.30343 0.0
C495 C 0.29573 0.78003 0.33916 0.0
H496 H 0.37582 0.87315 0.18101 0.0
H497 H 0.45322 0.94076 0.16257 0.0
H498 H 0.4595 0.8599 0.2054 0.0
H499 H 0.48284 0.91025 0.18637 0.0
H500 H 0.29755 0.74023 0.3775 0.0
H501 H 0.24708 0.77814 0.447 0.0
H502 H 0.26229 0.82 0.36456 0.0
H503 H 0.23962 0.81756 0.41427 0.0
Eu504 Eu 0.63686 0.0662 0.539 0.0
C505 C 0.53519 1.00722 0.60994 0.0
C506 C 0.50624 0.9557 0.57311 0.0
C507 C 0.50614 0.96231 0.63109 0.0
C508 C 0.52597 0.98794 0.57868 0.0
C509 C 0.52502 0.99482 0.63645 0.0
C510 C 0.4968 0.94278 0.59949 0.0
C511 C 0.55099 0.04857 0.67139 0.0
N512 N 0.55278 0.03889 0.61426 0.0
C513 C 0.56028 0.05988 0.64434 0.0
C514 C 0.53343 1.01583 0.66747 0.0
Eu515 Eu 0.56694 0.05632 0.56716 0.0
N516 N 0.53475 1.00153 0.55367 0.0
C517 C 0.5235 0.98493 0.52252 0.0
C518 C 0.49579 0.93787 0.54115 0.0
C519 C 0.50422 0.95272 0.51576 0.0
H520 H 0.57375 0.08526 0.6476 0.0
H521 H 0.49582 0.93942 0.49097 0.0
H522 H 0.48171 0.91804 0.59567 0.0
H523 H 0.55727 0.06515 0.69522 0.0
H524 H 0.52964 0.99621 0.50267 0.0
H525 H 0.70218 0.1857 0.61636 0.0
H526 H 0.48065 0.91302 0.53585 0.0
H527 H 0.63545 0.03615 0.45972 0.0
H528 H 0.67067 0.12757 0.60414 0.0
H529 H 0.65333 0.05641 0.41264 0.0
H530 H 0.49813 0.95231 0.65115 0.0
H531 H 0.71777 0.21238 0.57176 0.0
H532 H 0.71877 0.20703 0.51211 0.0
H533 H 0.52604 1.00724 0.68845 0.0
H534 H 0.70564 0.17184 0.45672 0.0
N535 N 0.66731 0.12185 0.55311 0.0
C536 C 0.67708 0.13901 0.58444 0.0
C537 C 0.70369 0.18694 0.56624 0.0
C538 C 0.6949 0.16855 0.5342 0.0
C539 C 0.69501 0.17195 0.59148 0.0
C540 C 0.67649 0.13556 0.52832 0.0
H541 H 0.6816 0.11557 0.41947 0.0
N542 N 0.65242 0.08367 0.49254 0.0
C543 C 0.65768 0.07345 0.4362 0.0
C544 C 0.6689 0.11587 0.49709 0.0
C545 C 0.64755 0.06207 0.4629 0.0
C546 C 0.67358 0.10688 0.44016 0.0
C547 C 0.67976 0.12844 0.47095 0.0
O548 O 0.65891 0.02835 0.52356 0.0
O549 O 0.59739 0.02802 0.54717 0.0
O550 O 0.59338 0.03565 0.59894 0.0
O551 O 0.63752 0.06992 0.59302 0.0
O552 O 0.61386 1.01514 0.50521 0.0
O553 O 0.67909 0.06944 0.56459 0.0
O554 O 0.54318 0.09148 0.58597 0.0
O555 O 0.6059 0.09497 0.55778 0.0
O556 O 0.6097 0.08158 0.50333 0.0
O557 O 0.56456 0.05185 0.5131 0.0
O558 O 0.59086 0.10664 0.60093 0.0
O559 O 0.52727 0.05707 0.53931 0.0
C560 C 0.59415 1.00433 0.52234 0.0
C561 C 0.70985 0.04494 0.5334 0.0
C562 C 0.75274 0.02517 0.53012 0.0
C563 C 0.72716 0.02605 0.54352 0.0
C564 C 0.76101 0.04368 0.50691 0.0
C565 C 0.7187 0.0637 0.51059 0.0
C566 C 0.74418 0.06306 0.49744 0.0
C567 C 0.62157 0.04817 0.60724 0.0
C568 C 0.68175 0.04291 0.54509 0.0
C569 C 0.69723 0.16166 0.47653 0.0
C570 C 0.70472 0.1817 0.50808 0.0
C571 C 0.60922 0.1185 0.58286 0.0
C572 C 0.49275 0.0743 0.56937 0.0
C573 C 0.47553 0.09416 0.56116 0.0
C574 C 0.44738 0.0893 0.56975 0.0
C575 C 0.43661 0.06389 0.58599 0.0
C576 C 0.48161 0.04936 0.58575 0.0
C577 C 0.45366 0.04413 0.59391 0.0
C578 C 0.58135 0.06963 0.49611 0.0
C579 C 0.52248 0.08027 0.56147 0.0
H580 H 0.72037 1.01139 0.56108 0.0
H581 H 0.7807 0.04342 0.49639 0.0
H582 H 0.70584 0.07847 0.5026 0.0
H583 H 0.75077 0.07743 0.47968 0.0
H584 H 0.48426 0.11376 0.54886 0.0
H585 H 0.41489 0.0592 0.59251 0.0
H586 H 0.49449 0.03402 0.59233 0.0
H587 H 0.44521 0.02477 0.60654 0.0
Eu588 Eu 0.30372 0.31553 0.77963 0.0
C589 C 0.39945 0.2721 0.84618 0.0
C590 C 0.41589 0.31595 0.89518 0.0
C591 C 0.4196 0.26019 0.89503 0.0
C592 C 0.40297 0.30469 0.86252 0.0
C593 C 0.40864 0.24979 0.86195 0.0
C594 C 0.42323 0.29325 0.91162 0.0
C595 C 0.39978 0.21042 0.81022 0.0
N596 N 0.38983 0.26328 0.81404 0.0
C597 C 0.39136 0.23362 0.79564 0.0
C598 C 0.40798 0.2183 0.84364 0.0
Eu599 Eu 0.37467 0.30315 0.79084 0.0
N600 N 0.39623 0.32613 0.84569 0.0
C601 C 0.40414 0.35971 0.85942 0.0
C602 C 0.42216 0.34996 0.90993 0.0
C603 C 0.41672 0.37201 0.89178 0.0
H604 H 0.38495 0.22741 0.76974 0.0
H605 H 0.42214 0.3985 0.90271 0.0
H606 H 0.43276 0.30134 0.93682 0.0
H607 H 0.40002 0.18655 0.79566 0.0
H608 H 0.40003 0.37722 0.84599 0.0
H609 H 0.25443 0.21201 0.67396 0.0
H610 H 0.43202 0.35959 0.93496 0.0
H611 H 0.29462 0.39201 0.79481 0.0
H612 H 0.27834 0.23773 0.72933 0.0
H613 H 0.27748 0.42921 0.76531 0.0
H614 H 0.42643 0.24328 0.90766 0.0
H615 H 0.24213 0.24701 0.63853 0.0
H616 H 0.23972 0.3034 0.63224 0.0
H617 H 0.41485 0.20045 0.85486 0.0
H618 H 0.24618 0.36268 0.65701 0.0
N619 N 0.28056 0.28772 0.7261 0.0
C620 C 0.27312 0.25372 0.71471 0.0
C621 C 0.25274 0.25866 0.66306 0.0
C622 C 0.25875 0.29312 0.67537 0.0
C623 C 0.25951 0.23882 0.68302 0.0
C624 C 0.2727 0.30712 0.70748 0.0
H625 H 0.2597 0.40959 0.70671 0.0
N626 N 0.28805 0.35263 0.75289 0.0
C627 C 0.2774 0.40449 0.75254 0.0
C628 C 0.27668 0.34061 0.72125 0.0
C629 C 0.28707 0.38343 0.76912 0.0
C630 C 0.26749 0.39336 0.71945 0.0
C631 C 0.26637 0.36081 0.70354 0.0
O632 O 0.27628 0.33343 0.81331 0.0
O633 O 0.33743 0.31112 0.81685 0.0
O634 O 0.34327 0.25252 0.79469 0.0
O635 O 0.29796 0.26035 0.78355 0.0
O636 O 0.3212 0.35191 0.82795 0.0
O637 O 0.26048 0.28383 0.78242 0.0
O638 O 0.40542 0.28849 0.75964 0.0
O639 O 0.34074 0.30705 0.75345 0.0
O640 O 0.33505 0.36469 0.77225 0.0
O641 O 0.37966 0.35918 0.79077 0.0
O642 O 0.35836 0.26743 0.74233 0.0
O643 O 0.41597 0.33878 0.78834 0.0
C644 C 0.3375 0.33605 0.83925 0.0
C645 C 0.22551 0.311 0.79998 0.0
C646 C 0.17871 0.30848 0.81895 0.0
C647 C 0.20588 0.30219 0.82168 0.0
C648 C 0.17132 0.32346 0.79435 0.0
C649 C 0.21743 0.32522 0.7751 0.0
C650 C 0.19052 0.33154 0.77242 0.0
C651 C 0.31439 0.24092 0.78959 0.0
C652 C 0.25461 0.30635 0.80436 0.0
C653 C 0.25394 0.34744 0.67108 0.0
C654 C 0.25021 0.31367 0.657 0.0
C655 C 0.34093 0.28208 0.73125 0.0
C656 C 0.45483 0.31566 0.77946 0.0
C657 C 0.47576 0.31721 0.75802 0.0
C658 C 0.50361 0.3149 0.76804 0.0
C659 C 0.51011 0.31134 0.79966 0.0
C660 C 0.46218 0.31249 0.81089 0.0
C661 C 0.48954 0.31019 0.82086 0.0
C662 C 0.36361 0.37753 0.78107 0.0
C663 C 0.42532 0.31705 0.76928 0.0
H664 H 0.21181 0.2909 0.84082 0.0
H665 H 0.15046 0.32839 0.79183 0.0
H666 H 0.23185 0.33158 0.75783 0.0
H667 H 0.18454 0.34273 0.75327 0.0
H668 H 0.4703 0.31968 0.73367 0.0
H669 H 0.53136 0.30987 0.80819 0.0
H670 H 0.44686 0.31203 0.82789 0.0
H671 H 0.49488 0.30766 0.84518 0.0
Eu672 Eu 0.09254 0.08055 0.55234 0.0
C673 C 0.10963 0.99395 0.43805 0.0
C674 C 0.0608 0.97248 0.40853 0.0
C675 C 0.10206 0.98183 0.37905 0.0
C676 C 0.07976 0.98394 0.43817 0.0
C677 C 0.12094 0.99228 0.40828 0.0
C678 C 0.0721 0.9719 0.37917 0.0
C679 C 0.16897 1.00757 0.43778 0.0
N680 N 0.12765 1.00384 0.46662 0.0
C681 C 0.15689 1.00835 0.4665 0.0
C682 C 0.15097 1.00013 0.40856 0.0
Eu683 Eu 0.10451 1.00422 0.51421 0.0
N684 N 0.06914 0.98519 0.46691 0.0
C685 C 0.03982 0.97378 0.46728 0.0
C686 C 0.03091 0.96203 0.40911 0.0
C687 C 0.02042 0.96249 0.43861 0.0
H688 H 0.17114 1.01167 0.48848 0.0
H689 H 0.99731 0.95406 0.43932 0.0
H690 H 0.05782 0.96351 0.35635 0.0
H691 H 0.19215 1.01196 0.43816 0.0
H692 H 0.03063 0.97339 0.48931 0.0
H693 H 0.19076 0.11962 0.6401 0.0
H694 H 0.01576 0.95329 0.38692 0.0
H695 H 0.02713 0.09045 0.56232 0.0
H696 H 0.16173 0.09826 0.5861 0.0
H697 H 1.00051 0.10778 0.60692 0.0
H698 H 0.11044 0.98069 0.35612 0.0
H699 H 0.16696 0.13332 0.6883 0.0
H700 H 0.12162 0.13845 0.71136 0.0
H701 H 0.16039 0.99912 0.38624 0.0
H702 H 0.06983 0.13497 0.70238 0.0
N703 N 0.12167 0.09855 0.60345 0.0
C704 C 0.15103 0.1039 0.60686 0.0
C705 C 0.15407 0.12378 0.66462 0.0
C706 C 0.1242 0.11988 0.66076 0.0
C707 C 0.16759 0.11611 0.63748 0.0
C708 C 0.1084 0.1073 0.62939 0.0
H709 H 0.0246 0.12392 0.66355 0.0
N710 N 0.06523 0.09523 0.59365 0.0
C711 C 0.02258 0.10702 0.6122 0.0
C712 C 0.07927 0.10539 0.62435 0.0
C713 C 0.03766 0.09721 0.58706 0.0
C714 C 0.03623 0.11603 0.64412 0.0
C715 C 0.06509 0.11589 0.65051 0.0
O716 O 0.07494 0.11866 0.5384 0.0
O717 O 0.09089 0.04854 0.50156 0.0
O718 O 0.14825 0.04408 0.52226 0.0
O719 O 0.13309 0.0916 0.52874 0.0
O720 O 0.05489 0.06465 0.51127 0.0
O721 O 0.12109 0.13074 0.55612 0.0
O722 O 0.1267 0.96591 0.50343 0.0
O723 O 0.1106 0.03928 0.56378 0.0
O724 O 0.05431 0.04186 0.56216 0.0
O725 O 0.06247 0.99224 0.53625 0.0
O726 O 0.12974 1.00199 0.56117 0.0
O727 O 0.08239 0.95238 0.51378 0.0
C728 C 0.06649 0.05042 0.48817 0.0
C729 C 0.10241 0.17595 0.55041 0.0
C730 C 0.11405 0.22688 0.53076 0.0
C731 C 0.11283 0.19319 0.52723 0.0
C732 C 0.10538 0.24349 0.55868 0.0
C733 C 0.09367 0.19235 0.57806 0.0
C734 C 0.09535 0.22625 0.58222 0.0
C735 C 0.15282 0.07604 0.5224 0.0
C736 C 0.10034 0.14059 0.54367 0.0
C737 C 0.0804 0.12701 0.68196 0.0
C738 C 0.1099 0.12902 0.68707 0.0
C739 C 0.12489 0.0258 0.58192 0.0
C740 C 0.11391 0.92441 0.53325 0.0
C741 C 0.0923 0.90407 0.54653 0.0
C742 C 0.1 0.88776 0.56968 0.0
C743 C 0.12929 0.89139 0.57947 0.0
C744 C 0.14328 0.9277 0.5431 0.0
C745 C 0.15084 0.91128 0.56614 0.0
C746 C 0.04669 1.00895 0.55281 0.0
C747 C 0.10574 0.94282 0.51001 0.0
H748 H 0.11994 0.1801 0.50621 0.0
H749 H 0.10584 0.2695 0.56205 0.0
H750 H 0.08551 0.17901 0.59609 0.0
H751 H 0.08855 0.23911 0.60351 0.0
H752 H 0.06956 0.90093 0.539 0.0
H753 H 0.13541 0.87853 0.59714 0.0
H754 H 0.16046 0.94312 0.53325 0.0
H755 H 0.17345 0.91395 0.57365 0.0
Eu756 Eu 0.37291 0.83024 0.76573 0.0
C757 C 0.30276 0.73168 0.81415 0.0
C758 C 0.31085 0.68056 0.78499 0.0
C759 C 0.30767 0.68877 0.84245 0.0
C760 C 0.30736 0.71258 0.78579 0.0
C761 C 0.30172 0.71928 0.84251 0.0
C762 C 0.31215 0.66938 0.81369 0.0
C763 C 0.28333 0.76437 0.86699 0.0
N764 N 0.29606 0.76047 0.8131 0.0
C765 C 0.28405 0.77515 0.83815 0.0
C766 C 0.29296 0.73681 0.8695 0.0
Eu767 Eu 0.30185 0.77909 0.76391 0.0
N768 N 0.30578 0.72391 0.75837 0.0
C769 C 0.30473 0.70317 0.72898 0.0
C770 C 0.31163 0.66009 0.75514 0.0
C771 C 0.3078 0.67115 0.72693 0.0
H772 H 0.27531 0.79569 0.8363 0.0
H773 H 0.30742 0.65513 0.70359 0.0
H774 H 0.31538 0.64515 0.81363 0.0
H775 H 0.27494 0.77706 0.88707 0.0
H776 H 0.30146 0.71095 0.70687 0.0
H777 H 0.35214 0.94822 0.8188 0.0
H778 H 0.31415 0.63532 0.7535 0.0
H779 H 0.41785 0.81994 0.7111 0.0
H780 H 0.35612 0.89142 0.81673 0.0
H781 H 0.43688 0.84511 0.66679 0.0
H782 H 0.30741 0.67915 0.86412 0.0
H783 H 0.36247 0.97394 0.77233 0.0
H784 H 0.37996 0.97062 0.71815 0.0
H785 H 0.29193 0.72813 0.89169 0.0
H786 H 0.40252 0.94185 0.6759 0.0
N787 N 0.36716 0.8842 0.76903 0.0
C788 C 0.36022 0.90207 0.79614 0.0
C789 C 0.36399 0.94883 0.77119 0.0
C790 C 0.37292 0.93122 0.74433 0.0
C791 C 0.35821 0.93445 0.7975 0.0
C792 C 0.37468 0.89864 0.74412 0.0
H793 H 0.42455 0.89539 0.65695 0.0
N794 N 0.39275 0.85354 0.72369 0.0
C795 C 0.42269 0.85563 0.68135 0.0
C796 C 0.38758 0.88256 0.72044 0.0
C797 C 0.41176 0.84132 0.70623 0.0
C798 C 0.41558 0.88392 0.67582 0.0
C799 C 0.39872 0.89847 0.69622 0.0
O800 O 0.41647 0.82587 0.77661 0.0
O801 O 0.34995 0.77777 0.77322 0.0
O802 O 0.31322 0.82014 0.80864 0.0
O803 O 0.36239 0.82931 0.81658 0.0
O804 O 0.38317 0.78161 0.74469 0.0
O805 O 0.40529 0.86856 0.8025 0.0
O806 O 0.25753 0.77252 0.7728 0.0
O807 O 0.32568 0.83166 0.75927 0.0
O808 O 0.3581 0.80763 0.71269 0.0
O809 O 0.3137 0.76986 0.71363 0.0
O810 O 0.2818 0.82053 0.75565 0.0
O811 O 0.26603 0.74878 0.72579 0.0
C812 C 0.36536 0.76052 0.75698 0.0
C813 C 0.45293 0.87662 0.78906 0.0
C814 C 0.50446 0.88592 0.78502 0.0
C815 C 0.47894 0.86899 0.79547 0.0
C816 C 0.50324 0.91049 0.76766 0.0
C817 C 0.45258 0.9024 0.77329 0.0
C818 C 0.47754 0.91892 0.76227 0.0
C819 C 0.33805 0.83129 0.8274 0.0
C820 C 0.42607 0.85518 0.79617 0.0
C821 C 0.39449 0.92949 0.69462 0.0
C822 C 0.38168 0.94589 0.71871 0.0
C823 C 0.30418 0.84473 0.75517 0.0
C824 C 0.22038 0.72693 0.74319 0.0
C825 C 0.19417 0.73431 0.73834 0.0
C826 C 0.16828 0.71239 0.74231 0.0
C827 C 0.16846 0.68214 0.75041 0.0
C828 C 0.22083 0.69685 0.75148 0.0
C829 C 0.19475 0.67431 0.75471 0.0
C830 C 0.33536 0.78243 0.69863 0.0
C831 C 0.2465 0.75387 0.74418 0.0
H832 H 0.47909 0.84991 0.8088 0.0
H833 H 0.52211 0.92338 0.75829 0.0
H834 H 0.43299 0.90943 0.769 0.0
H835 H 0.47694 0.93819 0.74936 0.0
H836 H 0.19399 0.75795 0.73255 0.0
H837 H 0.14844 0.66468 0.75312 0.0
H838 H 0.24115 0.69118 0.75599 0.0
H839 H 0.19494 0.65098 0.76094 0.0
Eu840 Eu 0.58055 0.02761 0.07989 0.0
C841 C 0.52474 0.08078 0.97227 0.0
C842 C 0.49871 0.02819 0.93516 0.0
C843 C 0.48041 0.07644 0.93822 0.0
C844 C 0.52231 0.0476 0.95901 0.0
C845 C 0.50432 0.09585 0.96126 0.0
C846 C 0.47753 0.04262 0.92532 0.0
C847 C 0.53394 0.14884 0.99451 0.0
N848 N 0.54772 0.09877 0.99498 0.0
C849 C 0.55339 0.1327 1.00492 0.0
C850 C 0.50897 0.13022 0.97306 0.0
Eu851 Eu 0.58006 0.07022 1.01158 0.0
N852 N 0.54307 0.03434 0.96921 0.0
C853 C 0.54214 1.00213 0.95503 0.0
C854 C 0.49716 0.99493 0.92168 0.0
C855 C 0.51915 0.98197 0.93143 0.0
H856 H 0.57268 0.14718 0.02164 0.0
H857 H 0.5183 0.95632 0.92096 0.0
H858 H 0.45915 0.02801 0.90727 0.0
H859 H 0.53816 0.17559 1.00315 0.0
H860 H 0.55836 0.99098 0.96228 0.0
H861 H 0.63466 0.14885 0.16488 0.0
H862 H 0.47931 0.97919 0.90347 0.0
H863 H 0.59664 0.95508 0.0751 0.0
H864 H 0.59573 0.10827 0.12594 0.0
H865 H 0.63686 0.93456 0.09341 0.0
H866 H 0.46431 0.08748 0.92978 0.0
H867 H 0.67815 0.13365 0.18294 0.0
H868 H 0.7046 0.09028 0.18092 0.0
H869 H 0.49385 0.14274 0.9651 0.0
H870 H 0.70549 0.03225 0.16116 0.0
N871 N 0.61588 0.06875 0.12113 0.0
C872 C 0.6139 0.10026 0.13353 0.0
C873 C 0.66078 0.11522 0.16586 0.0
C874 C 0.66244 0.0828 0.1541 0.0
C875 C 0.63627 0.12385 0.15576 0.0
C876 C 0.63926 0.05975 0.13174 0.0
H877 H 0.6803 0.97403 0.12886 0.0
N878 N 0.61757 1.00591 0.09871 0.0
C879 C 0.63826 0.96083 0.10086 0.0
C880 C 0.64009 0.02737 0.12017 0.0
C881 C 0.6156 0.9726 0.09043 0.0
C882 C 0.66268 0.98315 0.12087 0.0
C883 C 0.66363 1.01677 0.13125 0.0
O884 O 0.5579 0.98276 0.09488 0.0
O885 O 0.5553 0.03592 0.03856 0.0
O886 O 0.55712 0.09567 0.0487 0.0
O887 O 0.55788 0.06816 0.09108 0.0
O888 O 0.5449 0.98753 0.04385 0.0
O889 O 0.55456 0.03156 0.11886 0.0
O890 O 0.60878 0.11354 0.99953 0.0
O891 O 0.60565 0.06066 0.05187 0.0
O892 O 0.60006 0.9993 0.04148 0.0
O893 O 0.59808 0.02583 0.99854 0.0
O894 O 0.6157 0.10955 0.04786 0.0
O895 O 0.60316 0.06348 0.97019 0.0
C896 C 0.53784 1.00744 0.02764 0.0
C897 C 0.5513 0.99193 0.1502 0.0
C898 C 0.53649 0.99774 0.20345 0.0
C899 C 0.53572 1.00495 0.17303 0.0
C900 C 0.55299 0.97709 0.21122 0.0
C901 C 0.56833 0.97176 0.15804 0.0
C902 C 0.56913 0.96442 0.18858 0.0
C903 C 0.55074 0.09072 0.07733 0.0
C904 C 0.5485 0.99978 0.11854 0.0
C905 C 0.68706 0.03982 0.15276 0.0
C906 C 0.68651 0.07281 0.16407 0.0
C907 C 0.62345 0.08895 0.06263 0.0
C908 C 0.61476 0.10789 0.94459 0.0
C909 C 0.63684 0.10507 0.92609 0.0
C910 C 0.63717 0.11467 0.89667 0.0
C911 C 0.61545 0.12823 0.88632 0.0
C912 C 0.59289 0.12098 0.93408 0.0
C913 C 0.59345 0.13142 0.90508 0.0
C914 C 0.60459 1.00276 1.012 0.0
C915 C 0.61493 0.09554 0.97394 0.0
H916 H 0.52229 1.02022 0.16681 0.0
H917 H 0.55341 0.97093 0.23466 0.0
H918 H 0.58069 0.96149 0.1407 0.0
H919 H 0.58205 0.94869 0.19459 0.0
H920 H 0.6537 0.095 0.93456 0.0
H921 H 0.61507 0.13555 0.86344 0.0
H922 H 0.57543 0.12295 0.94793 0.0
H923 H 0.57658 0.1415 0.89691 0.0
Eu924 Eu 0.36543 0.34655 0.30422 0.0
C925 C 0.23804 0.25358 0.23417 0.0
C926 C 0.20865 0.24197 0.27624 0.0
C927 C 0.18529 0.23535 0.22197 0.0
C928 C 0.23619 0.25231 0.26608 0.0
C929 C 0.21252 0.24447 0.21162 0.0
C930 C 0.18333 0.23392 0.25416 0.0
C931 C 0.24239 0.24941 0.16922 0.0
N932 N 0.26466 0.26167 0.22466 0.0
C933 C 0.26689 0.25762 0.19227 0.0
C934 C 0.21503 0.24329 0.179 0.0
Eu935 Eu 0.30565 0.26982 0.26388 0.0
N936 N 0.26112 0.26062 0.28707 0.0
C937 C 0.25941 0.25861 0.31863 0.0
C938 C 0.20722 0.23971 0.30829 0.0
C939 C 0.23272 0.24827 0.32958 0.0
H940 H 0.28768 0.25969 0.18396 0.0
H941 H 0.23188 0.247 0.35461 0.0
H942 H 0.16212 0.22621 0.26167 0.0
H943 H 0.24462 0.24686 0.14383 0.0
H944 H 0.27815 0.26535 0.33631 0.0
H945 H 0.44758 0.35851 0.22161 0.0
H946 H 0.18656 0.23157 0.31688 0.0
H947 H 0.38142 0.36346 0.38602 0.0
H948 H 0.40163 0.36047 0.23992 0.0
H949 H 0.41937 0.36151 0.42691 0.0
H950 H 0.16562 0.22863 0.20506 0.0
H951 H 0.48477 0.34617 0.25625 0.0
H952 H 0.5014 0.33772 0.30991 0.0
H953 H 0.19596 0.23622 0.16103 0.0
H954 H 0.49358 0.3382 0.36619 0.0
N955 N 0.41002 0.34533 0.28393 0.0
C956 C 0.41645 0.35332 0.2552 0.0
C957 C 0.46403 0.34612 0.26435 0.0
C958 C 0.45867 0.34141 0.29504 0.0
C959 C 0.44311 0.35304 0.24474 0.0
C960 C 0.43127 0.34171 0.30456 0.0
H961 H 0.46338 0.3477 0.41012 0.0
N962 N 0.40166 0.34634 0.34572 0.0
C963 C 0.42152 0.35517 0.40149 0.0
C964 C 0.42682 0.34182 0.33629 0.0
C965 C 0.39983 0.35567 0.37811 0.0
C966 C 0.44628 0.34735 0.3919 0.0
C967 C 0.44968 0.34179 0.35914 0.0
O968 O 0.39139 0.39543 0.33261 0.0
O969 O 0.31761 0.32358 0.28997 0.0
O970 O 0.31022 0.30605 0.23005 0.0
O971 O 0.35543 0.34459 0.25026 0.0
O972 O 0.331 0.36002 0.33299 0.0
O973 O 0.3646 0.39179 0.2882 0.0
O974 O 0.30115 0.22599 0.22513 0.0
O975 O 0.35381 0.29252 0.27905 0.0
O976 O 0.351 0.31867 0.34337 0.0
O977 O 0.32035 0.26634 0.3159 0.0
O978 O 0.33979 0.26426 0.23176 0.0
O979 O 0.30036 0.22102 0.27547 0.0
C980 C 0.30875 0.3397 0.31347 0.0
C981 C 0.37744 0.44353 0.32784 0.0
C982 C 0.35531 0.48762 0.32306 0.0
C983 C 0.35708 0.45504 0.31198 0.0
C984 C 0.37346 0.50839 0.35107 0.0
C985 C 0.39559 0.46458 0.35569 0.0
C986 C 0.39339 0.49675 0.36739 0.0
C987 C 0.3333 0.32976 0.22685 0.0
C988 C 0.38251 0.41165 0.31316 0.0
C989 C 0.47599 0.33865 0.34903 0.0
C990 C 0.48047 0.33845 0.31702 0.0
C991 C 0.36199 0.28093 0.25289 0.0
C992 C 0.29362 0.17047 0.23369 0.0
C993 C 0.30566 0.15407 0.25363 0.0
C994 C 0.30631 0.12126 0.24186 0.0
C995 C 0.29241 0.10379 0.21057 0.0
C996 C 0.28007 0.15326 0.20228 0.0
C997 C 0.27902 0.11974 0.191 0.0
C998 C 0.33522 0.28797 0.34288 0.0
C999 C 0.29815 0.2063 0.24497 0.0
H1000 H 0.34296 0.43886 0.29053 0.0
H1001 H 0.37274 0.53381 0.35988 0.0
H1002 H 0.41198 0.45643 0.36784 0.0
H1003 H 0.40767 0.513 0.38864 0.0
H1004 H 0.3161 0.1676 0.27787 0.0
H1005 H 0.29283 0.07841 0.20085 0.0
H1006 H 0.2707 0.16581 0.18644 0.0
H1007 H 0.26871 0.10647 0.16673 0.0
Eu1008 Eu 0.59256 0.58047 0.05859 0.0
C1009 C 0.61529 0.49153 0.94718 0.0
C1010 C 0.56827 0.4707 0.9136 0.0
C1011 C 0.61212 0.47818 0.88835 0.0
C1012 C 0.58517 0.48253 0.94454 0.0
C1013 C 0.62893 0.48869 0.91895 0.0
C1014 C 0.5819 0.46914 0.88569 0.0
C1015 C 0.67482 0.50237 0.95277 0.0
N1016 N 0.63121 0.50097 0.97704 0.0
C1017 C 0.66041 0.50414 0.97992 0.0
C1018 C 0.65908 0.49521 0.92215 0.0
Eu1019 Eu 0.60438 0.50356 0.02182 0.0
N1020 N 0.57231 0.48456 0.9719 0.0
C1021 C 0.54268 0.47313 0.96962 0.0
C1022 C 0.53806 0.46056 0.91144 0.0
C1023 C 0.52526 0.46152 0.93958 0.0
H1024 H 0.67271 0.50746 1.00325 0.0
H1025 H 0.50188 0.4532 0.9382 0.0
H1026 H 0.56921 0.46044 0.86187 0.0
H1027 H 0.69798 0.5058 0.95546 0.0
H1028 H 0.53171 0.47306 0.99051 0.0
H1029 H 0.69346 0.62031 0.14239 0.0
H1030 H 0.52445 0.45148 0.88817 0.0
H1031 H 0.52789 0.59107 0.072 0.0
H1032 H 0.66277 0.59922 0.08944 0.0
H1033 H 0.50276 0.60765 0.11823 0.0
H1034 H 0.6223 0.4761 0.86654 0.0
H1035 H 0.67134 0.63332 0.19206 0.0
H1036 H 0.62692 0.63782 0.21745 0.0
H1037 H 0.67026 0.49331 0.90106 0.0
H1038 H 0.57498 0.63406 0.21091 0.0
N1039 N 0.62341 0.59881 0.10869 0.0
C1040 C 0.65276 0.60448 0.11079 0.0
C1041 C 0.65772 0.62386 0.16881 0.0
C1042 C 0.62784 0.61976 0.16632 0.0
C1043 C 0.67029 0.61658 0.14084 0.0
C1044 C 0.61105 0.60729 0.13546 0.0
H1045 H 0.52861 0.62319 0.17405 0.0
N1046 N 0.56688 0.59535 0.10156 0.0
C1047 C 0.52493 0.60684 0.12244 0.0
C1048 C 0.58186 0.60525 0.1318 0.0
C1049 C 0.53917 0.59739 0.09639 0.0
C1050 C 0.53958 0.61553 0.1539 0.0
C1051 C 0.56857 0.61545 0.15887 0.0
O1052 O 0.57483 0.61994 0.04782 0.0
O1053 O 0.59032 0.54726 1.00836 0.0
O1054 O 0.64789 0.54381 0.02993 0.0
O1055 O 0.6312 0.58972 0.0316 0.0
O1056 O 0.55478 0.56434 0.01774 0.0
O1057 O 0.62148 0.62907 0.05783 0.0
O1058 O 0.62061 0.46061 1.00757 0.0
O1059 O 0.61051 0.53927 0.07101 0.0
O1060 O 0.55277 0.54209 0.0661 0.0
O1061 O 0.56028 0.49249 0.03937 0.0
O1062 O 0.63175 0.50379 0.06833 0.0
O1063 O 0.5822 0.45537 0.03147 0.0
C1064 C 0.566 0.54914 0.99486 0.0
C1065 C 0.60446 0.6764 0.05938 0.0
C1066 C 0.61994 0.73059 0.04592 0.0
C1067 C 0.61449 0.69581 0.03755 0.0
C1068 C 0.61515 0.74583 0.07671 0.0
C1069 C 0.59957 0.69158 0.08994 0.0
C1070 C 0.60488 0.72633 0.0985 0.0
C1071 C 0.65163 0.57487 0.02722 0.0
C1072 C 0.6004 0.64057 0.04919 0.0
C1073 C 0.58486 0.62636 0.18982 0.0
C1074 C 0.61444 0.62854 0.19353 0.0
C1075 C 0.62594 0.52688 0.08914 0.0
C1076 C 0.61502 0.42613 0.0448 0.0
C1077 C 0.59667 0.40448 0.06014 0.0
C1078 C 0.60844 0.38919 0.08177 0.0
C1079 C 0.63864 0.39584 0.08839 0.0
C1080 C 0.64531 0.4328 0.05181 0.0
C1081 C 0.65697 0.41775 0.07359 0.0
C1082 C 0.54435 0.50929 0.0554 0.0
C1083 C 0.60241 0.44196 0.02199 0.0
H1084 H 0.61867 0.68378 0.01413 0.0
H1085 H 0.6191 0.77269 0.08377 0.0
H1086 H 0.59191 0.67669 0.10702 0.0
H1087 H 0.60114 0.73821 0.12211 0.0
H1088 H 0.57331 0.39901 0.0548 0.0
H1089 H 0.64798 0.38396 0.10495 0.0
H1090 H 0.66006 0.44967 0.0406 0.0
H1091 H 0.68025 0.4229 0.07885 0.0
Eu1092 Eu 0.87311 0.33094 0.27021 0.0
C1093 C 0.80526 0.23477 0.32425 0.0
C1094 C 0.81222 0.1832 0.29455 0.0
C1095 C 0.81107 0.19207 0.35242 0.0
C1096 C 0.80885 0.2153 0.29555 0.0
C1097 C 0.80511 0.22263 0.35274 0.0
C1098 C 0.81454 0.17233 0.32333 0.0
C1099 C 0.7872 0.26787 0.37793 0.0
N1100 N 0.79843 0.26354 0.32344 0.0
C1101 C 0.787 0.27835 0.34894 0.0
C1102 C 0.79708 0.2404 0.38014 0.0
Eu1103 Eu 0.80228 0.28147 0.27374 0.0
N1104 N 0.80616 0.22628 0.26807 0.0
C1105 C 0.80404 0.20524 0.23857 0.0
C1106 C 0.81175 0.16232 0.26449 0.0
C1107 C 0.80689 0.1731 0.23633 0.0
H1108 H 0.77818 0.2989 0.34734 0.0
H1109 H 0.80568 0.15683 0.21288 0.0
H1110 H 0.8177 0.14804 0.3231 0.0
H1111 H 0.77934 0.28071 0.39838 0.0
H1112 H 0.80029 0.21303 0.21655 0.0
H1113 H 0.85576 0.45029 0.32514 0.0
H1114 H 0.81415 0.13747 0.26271 0.0
H1115 H 0.91427 0.31705 0.2124 0.0
H1116 H 0.85809 0.39275 0.32235 0.0
H1117 H 0.93281 0.34175 0.16762 0.0
H1118 H 0.8115 0.18267 0.37419 0.0
H1119 H 0.86657 0.47618 0.27886 0.0
H1120 H 0.88352 0.4725 0.22442 0.0
H1121 H 0.79674 0.23193 0.40245 0.0
H1122 H 0.904 0.44247 0.18092 0.0
N1123 N 0.86863 0.3854 0.27443 0.0
C1124 C 0.86242 0.40353 0.30187 0.0
C1125 C 0.86737 0.45076 0.27741 0.0
C1126 C 0.87557 0.43279 0.2502 0.0
C1127 C 0.86132 0.43628 0.30361 0.0
C1128 C 0.87635 0.39979 0.24954 0.0
H1129 H 0.92301 0.39398 0.15983 0.0
N1130 N 0.89171 0.35289 0.22716 0.0
C1131 C 0.91982 0.35327 0.1832 0.0
C1132 C 0.88798 0.38288 0.225 0.0
C1133 C 0.90906 0.33915 0.20825 0.0
C1134 C 0.91419 0.38273 0.17888 0.0
C1135 C 0.89894 0.39851 0.20054 0.0
O1136 O 0.91457 0.32218 0.28326 0.0
O1137 O 0.85032 0.27905 0.27885 0.0
O1138 O 0.81647 0.32197 0.31894 0.0
O1139 O 0.86581 0.33218 0.32223 0.0
O1140 O 0.88103 0.28163 0.24691 0.0
O1141 O 0.90931 0.371 0.30038 0.0
O1142 O 0.75876 0.27914 0.28381 0.0
O1143 O 0.82616 0.33331 0.26752 0.0
O1144 O 0.85509 0.30855 0.21784 0.0
O1145 O 0.81074 0.27239 0.22212 0.0
O1146 O 0.7825 0.32332 0.26667 0.0
O1147 O 0.76469 0.2481 0.23932 0.0
C1148 C 0.86426 0.26118 0.26084 0.0
C1149 C 0.95591 0.36748 0.28927 0.0
C1150 C 1.00657 0.36858 0.29152 0.0
C1151 C 0.97918 0.35738 0.30087 0.0
C1152 C 1.01057 0.38965 0.26988 0.0
C1153 C 0.96027 0.38958 0.26854 0.0
C1154 C 0.98745 0.40026 0.2586 0.0
C1155 C 0.84237 0.33338 0.33548 0.0
C1156 C 0.92728 0.35302 0.29803 0.0
C1157 C 0.89603 0.43026 0.19974 0.0
C1158 C 0.8844 0.44739 0.22455 0.0
C1159 C 0.80485 0.34689 0.2648 0.0
C1160 C 0.72152 0.23056 0.26284 0.0
C1161 C 0.69434 0.23602 0.25874 0.0
C1162 C 0.67072 0.2178 0.27115 0.0
C1163 C 0.67448 0.19212 0.28582 0.0
C1164 C 0.72503 0.20503 0.2775 0.0
C1165 C 0.70136 0.18552 0.28847 0.0
C1166 C 0.83128 0.28413 0.20535 0.0
C1167 C 0.74624 0.25645 0.25777 0.0
H1168 H 0.97598 0.34065 0.31724 0.0
H1169 H 0.03169 0.39867 0.26258 0.0
H1170 H 0.9428 0.39843 0.2599 0.0
H1171 H 0.99065 0.41702 0.24235 0.0
H1172 H 0.69213 0.25562 0.24689 0.0
H1173 H 0.65699 0.17764 0.29599 0.0
H1174 H 0.74609 0.20099 0.28143 0.0
H1175 H 0.70411 0.16601 0.30013 0.0
Eu1176 Eu 0.09649 0.55265 0.59879 0.0
C1177 C 0.03337 0.60216 0.49326 0.0
C1178 C 1.00173 0.5507 0.4587 0.0
C1179 C 0.98785 0.60215 0.46448 0.0
C1180 C 0.02754 0.56819 0.48004 0.0
C1181 C 1.01405 0.61971 0.48472 0.0
C1182 C 0.98164 0.56769 0.45162 0.0
C1183 C 0.04924 0.67116 0.51417 0.0
N1184 N 0.05874 0.61848 0.51294 0.0
C1185 C 0.06761 0.65266 0.52213 0.0
C1186 C 0.0221 0.65455 0.49588 0.0
Eu1187 Eu 0.0886 0.58551 0.52507 0.0
N1188 N 0.04746 0.55245 0.48717 0.0
C1189 C 0.0437 0.51976 0.47208 0.0
C1190 C 0.99712 0.51679 0.44456 0.0
C1191 C 0.01838 0.5014 0.45094 0.0
H1192 H 0.08856 0.66542 0.53646 0.0
H1193 H 0.01522 0.4753 0.43976 0.0
H1194 H 0.96159 0.55459 0.43555 0.0
H1195 H 0.05597 0.69815 0.52222 0.0
H1196 H 0.05959 0.50714 0.47685 0.0
H1197 H 0.16417 0.67792 0.66421 0.0
H1198 H 0.97751 0.50246 0.42821 0.0
H1199 H 0.10831 0.47874 0.59797 0.0
H1200 H 0.11999 0.63671 0.63382 0.0
H1201 H 0.1471 0.4561 0.61642 0.0
H1202 H 0.97256 0.61513 0.458 0.0
H1203 H 0.20587 0.66017 0.68256 0.0
H1204 H 0.22758 0.61366 0.68623 0.0
H1205 H 1.0079 0.66892 0.48975 0.0
H1206 H 0.22319 0.55345 0.67304 0.0
N1207 N 0.13636 0.59468 0.63344 0.0
C1208 C 0.13755 0.62785 0.64189 0.0
C1209 C 0.18638 0.64157 0.66932 0.0
C1210 C 0.18467 0.60763 0.66206 0.0
C1211 C 0.16271 0.65167 0.65923 0.0
C1212 C 0.15913 0.58451 0.64374 0.0
H1213 H 0.1933 0.49461 0.64718 0.0
N1214 N 0.13254 0.52956 0.61731 0.0
C1215 C 0.15032 0.48285 0.62178 0.0
C1216 C 0.15705 0.55089 0.63559 0.0
C1217 C 0.12845 0.49578 0.61129 0.0
C1218 C 0.17632 0.50465 0.63915 0.0
C1219 C 0.17988 0.53912 0.64652 0.0
O1220 O 0.074 0.51285 0.62053 0.0
O1221 O 0.0676 0.55471 0.55704 0.0
O1222 O 0.06364 0.60961 0.56056 0.0
O1223 O 0.07675 0.59612 0.60911 0.0
O1224 O 0.06045 0.5086 0.56802 0.0
O1225 O 0.07309 0.5641 0.63897 0.0
O1226 O 0.11919 0.62388 0.50857 0.0
O1227 O 0.11789 0.57968 0.56428 0.0
O1228 O 0.11207 0.51992 0.56023 0.0
O1229 O 0.10218 0.53747 0.51271 0.0
O1230 O 0.12712 0.62663 0.55543 0.0
O1231 O 0.10307 0.57297 0.47837 0.0
C1232 C 0.0513 0.52525 0.54943 0.0
C1233 C 0.06524 0.52824 0.67456 0.0
C1234 C 0.04123 0.53211 0.72218 0.0
C1235 C 0.04511 0.53917 0.69212 0.0
C1236 C 0.05806 0.51433 0.73522 0.0
C1237 C 0.08264 0.51106 0.68763 0.0
C1238 C 0.07906 0.50427 0.71808 0.0
C1239 C 0.06313 0.61167 0.5919 0.0
C1240 C 0.06524 0.53323 0.64186 0.0
C1241 C 0.20534 0.56199 0.66466 0.0
C1242 C 0.2078 0.59623 0.67225 0.0
C1243 C 0.13655 0.60759 0.57093 0.0
C1244 C 0.11837 0.61717 0.45267 0.0
C1245 C 0.1419 0.61859 0.43577 0.0
C1246 C 0.1428 0.63089 0.40786 0.0
C1247 C 0.12015 0.64305 0.3975 0.0
C1248 C 0.09548 0.62877 0.44228 0.0
C1249 C 0.09654 0.64197 0.41478 0.0
C1250 C 0.1113 0.51758 0.52875 0.0
C1251 C 0.11912 0.60363 0.48115 0.0
H1252 H 0.03145 0.5521 0.68171 0.0
H1253 H 0.05498 0.50836 0.75845 0.0
H1254 H 0.09844 0.50249 0.67421 0.0
H1255 H 0.09218 0.49072 0.72814 0.0
H1256 H 0.15957 0.60974 0.44428 0.0
H1257 H 0.12033 0.65246 0.37573 0.0
H1258 H 0.07701 0.62767 0.45523 0.0
H1259 H 0.07893 0.65097 0.40664 0.0
Eu1260 Eu 0.79886 0.81735 0.29094 0.0
C1261 C 0.8987 0.7813 0.35663 0.0
C1262 C 0.91707 0.82971 0.40144 0.0
C1263 C 0.92166 0.77574 0.40727 0.0
C1264 C 0.90279 0.8149 0.36959 0.0
C1265 C 0.90905 0.76161 0.37496 0.0
C1266 C 0.92567 0.80976 0.42049 0.0
C1267 C 0.89794 0.71706 0.32672 0.0
N1268 N 0.88728 0.76872 0.3251 0.0
C1269 C 0.88845 0.73776 0.30951 0.0
C1270 C 0.90778 0.72881 0.35978 0.0
Eu1271 Eu 0.87022 0.80454 0.29741 0.0
N1272 N 0.89443 0.83352 0.35041 0.0
C1273 C 0.90162 0.86759 0.36105 0.0
C1274 C 0.92302 0.86429 0.41291 0.0
C1275 C 0.91564 0.88335 0.39244 0.0
H1276 H 0.88105 0.72862 0.28383 0.0
H1277 H 0.92062 0.91021 0.40085 0.0
H1278 H 0.93628 0.82061 0.44514 0.0
H1279 H 0.89783 0.69216 0.31444 0.0
H1280 H 0.89593 0.88298 0.34602 0.0
H1281 H 0.74369 0.70945 0.19067 0.0
H1282 H 0.93389 0.87658 0.43723 0.0
H1283 H 0.78873 0.89364 0.30234 0.0
H1284 H 0.76849 0.73739 0.24503 0.0
H1285 H 0.7726 0.92935 0.27024 0.0
H1286 H 0.92938 0.76089 0.42184 0.0
H1287 H 0.7335 0.74251 0.15219 0.0
H1288 H 0.73383 0.7984 0.142 0.0
H1289 H 0.91548 0.71289 0.37302 0.0
H1290 H 0.74189 0.85861 0.16365 0.0
N1291 N 0.77353 0.78703 0.23856 0.0
C1292 C 0.76447 0.75279 0.22918 0.0
C1293 C 0.74457 0.75523 0.17634 0.0
C1294 C 0.75211 0.79005 0.18658 0.0
C1295 C 0.75017 0.7365 0.19801 0.0
C1296 C 0.76644 0.80542 0.21835 0.0
H1297 H 0.7556 0.90744 0.21164 0.0
N1298 N 0.78215 0.85248 0.262 0.0
C1299 C 0.77227 0.90416 0.25864 0.0
C1300 C 0.77106 0.83928 0.23043 0.0
C1301 C 0.78128 0.88384 0.27673 0.0
C1302 C 0.76284 0.89176 0.22557 0.0
C1303 C 0.76137 0.85868 0.21122 0.0
O1304 O 0.77008 0.83771 0.32134 0.0
O1305 O 0.83443 0.81315 0.32591 0.0
O1306 O 0.83963 0.75374 0.30113 0.0
O1307 O 0.79412 0.76251 0.29568 0.0
O1308 O 0.81813 0.85363 0.33891 0.0
O1309 O 0.75918 0.78474 0.30159 0.0
O1310 O 0.89801 0.78526 0.26492 0.0
O1311 O 0.83438 0.80827 0.26234 0.0
O1312 O 0.82998 0.86748 0.28447 0.0
O1313 O 0.87536 0.85895 0.2921 0.0
O1314 O 0.85078 0.7676 0.25026 0.0
O1315 O 0.91106 0.83725 0.28944 0.0
C1316 C 0.83525 0.83794 0.3488 0.0
C1317 C 0.72019 0.80765 0.31016 0.0
C1318 C 0.67117 0.80176 0.32498 0.0
C1319 C 0.70066 0.80359 0.33311 0.0
C1320 C 0.66182 0.80363 0.29341 0.0
C1321 C 0.71013 0.80981 0.27919 0.0
C1322 C 0.68116 0.80782 0.27092 0.0
C1323 C 0.81091 0.74264 0.29896 0.0
C1324 C 0.75085 0.80896 0.31816 0.0
C1325 C 0.74908 0.84399 0.17889 0.0
C1326 C 0.74446 0.80971 0.16658 0.0
C1327 C 0.83316 0.78263 0.24025 0.0
C1328 C 0.94817 0.81172 0.27868 0.0
C1329 C 0.96715 0.81249 0.25517 0.0
C1330 C 0.9953 0.80981 0.26258 0.0
C1331 C 1.00407 0.80653 0.29373 0.0
C1332 C 0.95765 0.80889 0.30962 0.0
C1333 C 0.98536 0.80613 0.31702 0.0
C1334 C 0.85885 0.87853 0.28697 0.0
C1335 C 0.91844 0.81343 0.27087 0.0
H1336 H 0.70852 0.80226 0.35717 0.0
H1337 H 0.63934 0.80147 0.28581 0.0
H1338 H 0.72461 0.81269 0.26125 0.0
H1339 H 0.67358 0.80928 0.24684 0.0
H1340 H 0.95993 0.81467 0.2312 0.0
H1341 H 0.02565 0.80478 0.30027 0.0
H1342 H 0.94373 0.809 0.32814 0.0
H1343 H 0.99242 0.80385 0.34097 0.0
Eu1344 Eu 0.86707 0.29733 0.74728 0.0
C1345 C 0.80979 0.38155 0.84737 0.0
C1346 C 0.85038 0.42549 0.88007 0.0
C1347 C 0.80243 0.43363 0.87582 0.0
C1348 C 0.83895 0.39337 0.85933 0.0
C1349 C 0.79102 0.40117 0.8562 0.0
C1350 C 0.83208 0.44579 0.88769 0.0
C1351 C 0.75069 0.35374 0.82895 0.0
N1352 N 0.7994 0.34993 0.82895 0.0
C1353 C 0.77019 0.33525 0.821 0.0
C1354 C 0.76119 0.38704 0.84619 0.0
Eu1355 Eu 0.83271 0.3185 0.81901 0.0
N1356 N 0.85594 0.37296 0.85175 0.0
C1357 C 0.88446 0.38283 0.86518 0.0
C1358 C 0.87972 0.43598 0.8931 0.0
C1359 C 0.89677 0.41443 0.88578 0.0
H1360 H 0.76204 0.30935 0.808 0.0
H1361 H 0.91948 0.42221 0.8958 0.0
H1362 H 0.84052 0.47061 0.90336 0.0
H1363 H 0.72761 0.34225 0.82192 0.0
H1364 H 0.89831 0.36701 0.85957 0.0
H1365 H 0.76258 0.229 0.66588 0.0
H1366 H 0.88933 0.46048 0.90904 0.0
H1367 H 0.92526 0.27021 0.75709 0.0
H1368 H 0.79293 0.27129 0.70967 0.0
H1369 H 0.94181 0.22108 0.73797 0.0
H1370 H 0.7884 0.44919 0.88266 0.0
H1371 H 0.77889 0.1813 0.63995 0.0
H1372 H 0.81598 0.1507 0.63867 0.0
H1373 H 0.74605 0.40126 0.85256 0.0
H1374 H 0.86353 0.14724 0.65972 0.0
N1375 N 0.83094 0.25382 0.70675 0.0
C1376 C 0.80293 0.25374 0.69736 0.0
C1377 C 0.79359 0.20134 0.65847 0.0
C1378 C 0.82098 0.19963 0.66937 0.0
C1379 C 0.78443 0.22832 0.67283 0.0
C1380 C 0.83943 0.22644 0.69371 0.0
H1381 H 0.91002 0.17278 0.69699 0.0
N1382 N 0.88296 0.24923 0.72998 0.0
C1383 C 0.92024 0.22123 0.72908 0.0
C1384 C 0.86599 0.22401 0.70591 0.0
C1385 C 0.91041 0.24887 0.74037 0.0
C1386 C 0.90234 0.19419 0.70585 0.0
C1387 C 0.87507 0.19549 0.6936 0.0
O1388 O 0.91344 0.32297 0.75413 0.0
O1389 O 0.86872 0.33538 0.79187 0.0
O1390 O 0.80933 0.33471 0.77812 0.0
O1391 O 0.82892 0.31778 0.73062 0.0
O1392 O 0.86998 0.3511 0.7484 0.0
O1393 O 0.88963 0.3037 0.70572 0.0
O1394 O 0.80165 0.28223 0.83787 0.0
O1395 O 0.84164 0.27833 0.78284 0.0
O1396 O 0.89007 0.28362 0.79101 0.0
O1397 O 0.87552 0.31038 0.83717 0.0
O1398 O 0.7984 0.27285 0.78866 0.0
O1399 O 0.84115 0.31377 0.86845 0.0
C1400 C 0.87125 0.36022 0.77937 0.0
C1401 C 0.92688 0.35492 0.71622 0.0
C1402 C 0.92229 0.39915 0.68981 0.0
C1403 C 0.91025 0.36835 0.69726 0.0
C1404 C 0.95109 0.41737 0.70284 0.0
C1405 C 0.95555 0.37331 0.72918 0.0
C1406 C 0.96751 0.40458 0.72268 0.0
C1407 C 0.80954 0.33056 0.74613 0.0
C1408 C 0.91393 0.32244 0.72356 0.0
C1409 C 0.85691 0.16927 0.6693 0.0
C1410 C 0.82994 0.17134 0.65721 0.0
C1411 C 0.81644 0.25926 0.77459 0.0
C1412 C 0.80108 0.29308 0.89379 0.0
C1413 C 0.79927 0.26844 0.91098 0.0
C1414 C 0.78658 0.27011 0.93936 0.0
C1415 C 0.77394 0.29606 0.94934 0.0
C1416 C 0.78877 0.31913 0.90372 0.0
C1417 C 0.77487 0.32031 0.93133 0.0
C1418 C 0.89284 0.2941 0.82319 0.0
C1419 C 0.81686 0.29067 0.86626 0.0
H1420 H 0.88778 0.35472 0.68811 0.0
H1421 H 0.96117 0.44093 0.69692 0.0
H1422 H 0.96859 0.36353 0.74436 0.0
H1423 H 0.98968 0.41868 0.73259 0.0
H1424 H 0.80831 0.24804 0.90231 0.0
H1425 H 0.76405 0.29811 0.97132 0.0
H1426 H 0.79008 0.33845 0.89046 0.0
H1427 H 0.76533 0.34037 0.93916 0.0
Eu1428 Eu 0.863 0.85107 0.81626 0.0
C1429 C 0.74797 0.76841 0.73505 0.0
C1430 C 0.71368 0.77161 0.7734 0.0
C1431 C 0.69788 0.7642 0.71628 0.0
C1432 C 0.74214 0.77264 0.76679 0.0
C1433 C 0.72555 0.76292 0.70942 0.0
C1434 C 0.69194 0.76847 0.74817 0.0
C1435 C 0.7577 0.74907 0.67175 0.0
N1436 N 0.77455 0.76584 0.7289 0.0
C1437 C 0.77896 0.754 0.69785 0.0
C1438 C 0.73103 0.75418 0.67753 0.0
Eu1439 Eu 0.80915 0.77276 0.77439 0.0
N1440 N 0.76341 0.77482 0.79077 0.0
C1441 C 0.75686 0.77378 0.82129 0.0
C1442 C 0.70747 0.77222 0.80495 0.0
C1443 C 0.72906 0.77283 0.82885 0.0
H1444 H 0.79916 0.74862 0.69337 0.0
H1445 H 0.72432 0.7726 0.85322 0.0
H1446 H 0.67012 0.768 0.75294 0.0
H1447 H 0.76171 0.74069 0.64726 0.0
H1448 H 0.77269 0.77389 0.84037 0.0
H1449 H 0.9365 0.90906 0.73795 0.0
H1450 H 0.68592 0.77139 0.81093 0.0
H1451 H 0.88526 0.82985 0.88597 0.0
H1452 H 0.89325 0.89907 0.76503 0.0
H1453 H 0.92585 0.81499 0.9092 0.0
H1454 H 0.68059 0.76047 0.69695 0.0
H1455 H 0.97696 0.88734 0.75315 0.0
H1456 H 0.99914 0.85979 0.79051 0.0
H1457 H 0.71431 0.74961 0.65728 0.0
H1458 H 0.99643 0.83472 0.83759 0.0
N1459 N 0.90619 0.86665 0.79177 0.0
C1460 C 0.90957 0.88715 0.77046 0.0
C1461 C 0.9574 0.88172 0.76436 0.0
C1462 C 0.95543 0.86438 0.78899 0.0
C1463 C 0.93459 0.89386 0.75561 0.0
C1464 C 0.92932 0.8574 0.80267 0.0
H1465 H 0.96951 0.81841 0.88208 0.0
N1466 N 0.90263 0.83741 0.84228 0.0
C1467 C 0.92638 0.82176 0.88605 0.0
C1468 C 0.92759 0.84266 0.82881 0.0
C1469 C 0.90266 0.82929 0.87185 0.0
C1470 C 0.95102 0.82396 0.87083 0.0
C1471 C 0.95219 0.83532 0.84233 0.0
O1472 O 0.86212 0.87947 0.8649 0.0
O1473 O 0.81618 0.82229 0.80724 0.0
O1474 O 0.81898 0.80403 0.73633 0.0
O1475 O 0.85335 0.85404 0.76328 0.0
O1476 O 0.82592 0.87001 0.79995 0.0
O1477 O 0.88334 0.9049 0.83066 0.0
O1478 O 0.78089 0.72249 0.7518 0.0
O1479 O 0.85641 0.79799 0.7914 0.0
O1480 O 0.8437 0.82379 0.85433 0.0
O1481 O 0.81764 0.76939 0.8273 0.0
O1482 O 0.8444 0.77031 0.74327 0.0
O1483 O 0.82141 0.72891 0.7824 0.0
C1484 C 0.80501 0.8443 0.80117 0.0
C1485 C 0.85736 0.93298 0.86538 0.0
C1486 C 0.82965 0.96748 0.84665 0.0
C1487 C 0.84591 0.94468 0.84031 0.0
C1488 C 0.82516 0.9788 0.87869 0.0
C1489 C 0.852 0.94379 0.897 0.0
C1490 C 0.8361 0.96679 0.90361 0.0
C1491 C 0.83688 0.8337 0.73666 0.0
C1492 C 0.87355 0.90822 0.85836 0.0
C1493 C 0.97758 0.84069 0.82778 0.0
C1494 C 0.97914 0.855 0.80102 0.0
C1495 C 0.8657 0.78844 0.76526 0.0
C1496 C 0.7923 0.67235 0.75807 0.0
C1497 C 0.80239 0.65904 0.78224 0.0
C1498 C 0.80095 0.62519 0.7762 0.0
C1499 C 0.78701 0.60407 0.74609 0.0
C1500 C 0.77818 0.65138 0.72822 0.0
C1501 C 0.77529 0.61715 0.72242 0.0
C1502 C 0.82989 0.79238 0.85431 0.0
C1503 C 0.79837 0.70842 0.76398 0.0
H1504 H 0.84907 0.9354 0.81565 0.0
H1505 H 0.81324 0.99696 0.88456 0.0
H1506 H 0.86 0.93431 0.91651 0.0
H1507 H 0.83215 0.97527 0.9281 0.0
H1508 H 0.8124 0.67552 0.80554 0.0
H1509 H 0.7861 0.57785 0.74034 0.0
H1510 H 0.77015 0.66155 0.70925 0.0
H1511 H 0.76491 0.60096 0.69919 0.0
Eu1512 Eu 0.55936 0.53831 0.53196 0.0
C1513 C 0.6335 0.65778 0.61663 0.0
C1514 C 0.64175 0.69633 0.58124 0.0
C1515 C 0.63697 0.71649 0.63743 0.0
C1516 C 0.63683 0.66358 0.58608 0.0
C1517 C 0.63498 0.68463 0.64292 0.0
C1518 C 0.64051 0.72238 0.60667 0.0
C1519 C 0.63835 0.64845 0.67897 0.0
N1520 N 0.63238 0.62691 0.62137 0.0
C1521 C 0.63738 0.62283 0.65225 0.0
C1522 C 0.63633 0.67924 0.67424 0.0
Eu1523 Eu 0.62846 0.58437 0.57368 0.0
N1524 N 0.63788 0.63793 0.56181 0.0
C1525 C 0.64695 0.64412 0.53348 0.0
C1526 C 0.64901 0.70227 0.55142 0.0
C1527 C 0.65242 0.67622 0.52778 0.0
H1528 H 0.63935 0.59912 0.65606 0.0
H1529 H 0.65901 0.68076 0.50502 0.0
H1530 H 0.64352 0.74748 0.60314 0.0
H1531 H 0.64091 0.6445 0.7032 0.0
H1532 H 0.65003 0.62461 0.51497 0.0
H1533 H 0.5355 0.45015 0.61086 0.0
H1534 H 0.65305 0.72707 0.54682 0.0
H1535 H 0.55014 0.51676 0.44891 0.0
H1536 H 0.54228 0.50375 0.59638 0.0
H1537 H 0.54949 0.46892 0.40565 0.0
H1538 H 0.63726 0.73715 0.65714 0.0
H1539 H 0.54034 0.4014 0.57149 0.0
H1540 H 0.54782 0.37667 0.51571 0.0
H1541 H 0.63753 0.69925 0.69502 0.0
H1542 H 0.55245 0.38203 0.45997 0.0
N1543 N 0.5519 0.48705 0.5488 0.0
C1544 C 0.54481 0.48336 0.57861 0.0
C1545 C 0.54344 0.42518 0.5648 0.0
C1546 C 0.54923 0.42846 0.53382 0.0
C1547 C 0.54065 0.45259 0.58704 0.0
C1548 C 0.55303 0.46 0.5262 0.0
H1549 H 0.55256 0.41598 0.41871 0.0
N1550 N 0.55674 0.49286 0.48733 0.0
C1551 C 0.55182 0.46706 0.43061 0.0
C1552 C 0.55581 0.46308 0.49473 0.0
C1553 C 0.55257 0.49433 0.45548 0.0
C1554 C 0.55357 0.43728 0.43809 0.0
C1555 C 0.55466 0.43463 0.47028 0.0
O1556 O 0.52752 0.54284 0.49528 0.0
O1557 O 0.59274 0.58934 0.53902 0.0
O1558 O 0.59553 0.57881 0.61293 0.0
O1559 O 0.54953 0.55589 0.58408 0.0
O1560 O 0.55174 0.58945 0.54866 0.0
O1561 O 0.51275 0.52061 0.53502 0.0
O1562 O 0.67133 0.61025 0.60097 0.0
O1563 O 0.5983 0.53177 0.56161 0.0
O1564 O 0.58813 0.55015 0.49132 0.0
O1565 O 0.63472 0.56839 0.51861 0.0
O1566 O 0.63497 0.54078 0.59382 0.0
O1567 O 0.66714 0.57272 0.55712 0.0
C1568 C 0.57653 0.60858 0.54602 0.0
C1569 C 0.4765 0.51682 0.49115 0.0
C1570 C 0.42612 0.51805 0.4856 0.0
C1571 C 0.45381 0.52779 0.50374 0.0
C1572 C 0.42125 0.49655 0.45475 0.0
C1573 C 0.47136 0.49519 0.46048 0.0
C1574 C 0.44372 0.48494 0.44249 0.0
C1575 C 0.56655 0.56972 0.61226 0.0
C1576 C 0.50561 0.53094 0.50967 0.0
C1577 C 0.55295 0.40393 0.47837 0.0
C1578 C 0.55023 0.40085 0.51007 0.0
C1579 C 0.61346 0.5169 0.57711 0.0
C1580 C 0.70352 0.57717 0.59912 0.0
C1581 C 0.72549 0.56805 0.58324 0.0
C1582 C 0.74304 0.55196 0.59751 0.0
C1583 C 0.7389 0.54539 0.62802 0.0
C1584 C 0.69962 0.57076 0.62983 0.0
C1585 C 0.71734 0.55499 0.64419 0.0
C1586 C 0.61671 0.55811 0.4906 0.0
C1587 C 0.68434 0.59215 0.58269 0.0
H1588 H 0.45802 0.54502 0.52728 0.0
H1589 H 0.40006 0.48853 0.44034 0.0
H1590 H 0.48868 0.48661 0.45036 0.0
H1591 H 0.43983 0.46817 0.41887 0.0
H1592 H 0.72859 0.5729 0.55954 0.0
H1593 H 0.7525 0.53313 0.63939 0.0
H1594 H 0.68276 0.5776 0.64257 0.0
H1595 H 0.71427 0.55007 0.6678 0.0
Eu1596 Eu 0.12694 0.5613 0.04027 0.0
C1597 C 0.03407 0.49227 0.09248 0.0
C1598 C 1.00143 0.45122 0.04809 0.0
C1599 C 1.01247 0.43554 0.09822 0.0
C1600 C 0.02028 0.48373 0.06106 0.0
C1601 C 0.02925 0.4686 0.11187 0.0
C1602 C 0.99856 0.42685 0.06634 0.0
C1603 C 0.05323 0.51322 0.15808 0.0
N1604 N 0.04967 0.52455 0.10507 0.0
C1605 C 0.057 0.5357 0.13796 0.0
C1606 C 0.04005 0.47929 0.14482 0.0
Eu1607 Eu 0.05917 0.55996 0.06773 0.0
N1608 N 0.02316 0.50801 0.04428 0.0
C1609 C 1.00439 0.50266 0.01669 0.0
C1610 C 0.98496 0.44463 0.01781 0.0
C1611 C 0.9858 0.47077 1.0025 0.0
H1612 H 0.06625 0.56198 0.14908 0.0
H1613 H 0.97176 0.46655 0.98007 0.0
H1614 H 0.98465 0.40161 0.05652 0.0
H1615 H 0.06023 0.52217 0.18386 0.0
H1616 H 1.0033 0.52301 1.00562 0.0
H1617 H 0.18684 0.67241 0.13322 0.0
H1618 H 0.9703 0.42001 1.00698 0.0
H1619 H 0.13373 0.54315 0.96125 0.0
H1620 H 0.15662 0.61411 0.11217 0.0
H1621 H 0.15375 0.5729 0.92009 0.0
H1622 H 1.00902 0.41692 0.11257 0.0
H1623 H 0.20368 0.70793 0.09524 0.0
H1624 H 0.20686 0.71303 0.03794 0.0
H1625 H 0.03683 0.46194 0.16051 0.0
H1626 H 0.19758 0.68603 0.9799 0.0
N1627 N 0.15549 0.61685 0.06292 0.0
C1628 C 0.16352 0.62943 0.09542 0.0
C1629 C 0.19025 0.68239 0.08589 0.0
C1630 C 0.18308 0.66881 0.05254 0.0
C1631 C 0.18084 0.66241 0.10741 0.0
C1632 C 0.16568 0.63535 0.04159 0.0
H1633 H 0.17822 0.63375 0.93583 0.0
N1634 N 0.14538 0.58722 0.99917 0.0
C1635 C 0.1555 0.58654 0.94486 0.0
C1636 C 0.16031 0.62017 1.00878 0.0
C1637 C 0.14424 0.56981 0.96812 0.0
C1638 C 0.16922 0.62091 0.95384 0.0
C1639 C 0.1724 0.63801 0.98624 0.0
O1640 O 0.15091 0.5274 0.01892 0.0
O1641 O 0.08664 0.52515 0.0509 0.0
O1642 O 0.09575 0.5776 0.10933 0.0
O1643 O 0.12312 0.54521 0.08687 0.0
O1644 O 0.10061 0.51291 1.00612 0.0
O1645 O 0.16841 0.56124 0.06525 0.0
O1646 O 0.04698 0.59095 0.10864 0.0
O1647 O 0.10274 0.5962 0.06562 0.0
O1648 O 0.09948 0.5695 0.99952 0.0
O1649 O 0.05333 0.55087 0.01343 0.0
O1650 O 0.06592 0.60596 0.04673 0.0
O1651 O 0.01758 0.5718 0.06295 0.0
C1652 C 0.08215 0.50211 0.02474 0.0
C1653 C 0.20171 0.54348 0.03291 0.0
C1654 C 0.24614 0.5266 0.03013 0.0
C1655 C 0.21909 0.5238 0.04122 0.0
C1656 C 0.25577 0.54945 1.011 0.0
C1657 C 0.21198 0.56666 0.01434 0.0
C1658 C 0.23885 0.56956 1.00342 0.0
C1659 C 0.11439 0.56057 0.1122 0.0
C1660 C 0.17245 0.53826 0.04236 0.0
C1661 C 0.18838 0.67184 0.99692 0.0
C1662 C 0.1937 0.68721 0.02998 0.0
C1663 C 0.09375 0.6177 0.05351 0.0
C1664 C 1.00215 0.60673 0.10704 0.0
C1665 C 0.97975 0.6122 0.08756 0.0
C1666 C 0.96104 0.6293 0.10189 0.0
C1667 C 0.96474 0.64081 0.13562 0.0
C1668 C 1.00559 0.61861 0.14077 0.0
C1669 C 0.98695 0.63552 0.15492 0.0
C1670 C 0.07111 0.55947 0.99268 0.0
C1671 C 0.0226 0.58977 0.09249 0.0
H1672 H 0.21135 0.50586 0.05564 0.0
H1673 H 0.27656 0.552 1.00228 0.0
H1674 H 0.19921 0.58229 1.00799 0.0
H1675 H 0.24653 0.58733 0.98889 0.0
H1676 H 0.97687 0.6033 0.0615 0.0
H1677 H 0.95038 0.6539 0.14701 0.0
H1678 H 0.0227 0.61482 0.15627 0.0
H1679 H 0.98971 0.64455 0.18092 0.0
C1680 C 0.06033 0.17001 0.96773 0.0
C1681 C 0.05205 0.19486 0.98925 0.0
H1682 H 0.07154 0.12386 0.95846 0.0
C1683 C 0.05054 0.18996 0.02126 0.0
H1684 H 0.06222 0.17179 0.94297 0.0
C1685 C 0.05623 0.16116 0.03047 0.0
C1686 C 0.06416 0.13636 1.0082 0.0
H1687 H 0.04437 0.20792 0.03906 0.0
H1688 H 0.05375 0.15801 0.05476 0.0
C1689 C 0.06597 0.14193 0.97679 0.0
C1690 C 0.24242 0.84719 0.16084 0.0
C1691 C 0.21863 0.85209 0.1765 0.0
H1692 H 0.28448 0.83867 0.16479 0.0
C1693 C 0.22119 0.85381 0.21002 0.0
H1694 H 0.24157 0.84554 0.13508 0.0
C1695 C 0.24555 0.84939 0.22684 0.0
C1696 C 0.26877 0.84263 0.21133 0.0
H1697 H 0.20374 0.85762 0.22346 0.0
H1698 H 0.24563 0.85064 0.25218 0.0
C1699 C 0.26708 0.84267 0.17798 0.0
C1700 C 0.55894 0.91279 0.47977 0.0
C1701 C 0.56509 0.894 0.50197 0.0
H1702 H 0.5631 0.9606 0.46871 0.0
C1703 C 0.5791 0.9128 0.53318 0.0
H1704 H 0.54851 0.90035 0.45534 0.0
C1705 C 0.58673 0.94866 0.54126 0.0
C1706 C 0.58112 0.96682 0.5182 0.0
H1707 H 0.58459 0.89995 0.55114 0.0
H1708 H 0.59827 0.96216 0.565 0.0
C1709 C 0.56724 0.94795 0.48743 0.0
C1710 C 0.55867 0.34495 0.7133 0.0
C1711 C 0.57579 0.32291 0.71378 0.0
H1712 H 0.52208 0.35972 0.7302 0.0
C1713 C 0.56701 0.29646 0.72921 0.0
H1714 H 0.56472 0.36533 0.70126 0.0
C1715 C 0.54259 0.29294 0.74508 0.0
C1716 C 0.52637 0.31597 0.74633 0.0
H1717 H 0.5792 0.27847 0.72931 0.0
H1718 H 0.53679 0.27255 0.75718 0.0
C1719 C 0.53416 0.34156 0.72957 0.0
C1720 C 0.05074 0.80873 0.5822 0.0
C1721 C 0.0435 0.8197 0.61303 0.0
H1722 H 0.07438 0.82236 0.54413 0.0
C1723 C 0.05149 0.85412 0.62734 0.0
H1724 H 0.04469 0.78234 0.57055 0.0
C1725 C 0.06869 0.8769 0.61225 0.0
C1726 C 0.0776 0.8654 0.58262 0.0
H1727 H 0.04629 0.86317 0.65114 0.0
H1728 H 0.0763 0.90317 0.62441 0.0
C1729 C 0.06767 0.83147 0.56708 0.0
C1730 C 0.55924 0.84236 0.80942 0.0
C1731 C 0.58483 0.86896 0.81691 0.0
H1732 H 0.51394 0.82619 0.79173 0.0
C1733 C 0.5843 0.90016 0.81135 0.0
H1734 H 0.55914 0.81804 0.81347 0.0
C1735 C 0.55839 0.90532 0.80028 0.0
C1736 C 0.53241 0.87913 0.79362 0.0
H1737 H 0.60364 0.92133 0.81734 0.0
H1738 H 0.5587 0.93037 0.79849 0.0
C1739 C 0.53331 0.84726 0.79739 0.0
C1740 C 0.51042 0.15513 0.09942 0.0
C1741 C 0.50523 0.15237 0.13082 0.0
H1742 H 0.52891 0.138 0.05807 0.0
C1743 C 0.51122 0.12606 0.14259 0.0
H1744 H 0.50596 0.17519 0.08974 0.0
C1745 C 0.52518 0.10526 0.1247 0.0
C1746 C 0.53304 0.11017 0.09457 0.0
H1747 H 0.50769 0.12349 0.16685 0.0
H1748 H 0.53106 0.08649 0.13533 0.0
C1749 C 0.52412 0.13415 0.08146 0.0
C1750 C 0.24706 0.33594 0.36264 0.0
C1751 C 0.22304 0.32738 0.33875 0.0
H1752 H 0.29294 0.34557 0.37291 0.0
C1753 C 0.22722 0.32417 0.30613 0.0
H1754 H 0.24427 0.33857 0.38793 0.0
C1755 C 0.25524 0.32882 0.2975 0.0
C1756 C 0.27904 0.33522 0.32133 0.0
H1757 H 0.20886 0.31785 0.28737 0.0
H1758 H 0.25823 0.3265 0.2723 0.0
C1759 C 0.2748 0.33975 0.354 0.0
C1760 C 0.04255 0.0763 0.19253 0.0
C1761 C 1.01313 0.07677 0.19322 0.0
H1762 H 0.0785 0.07393 0.16522 0.0
C1763 C 0.99828 0.07425 0.16208 0.0
H1764 H 0.05555 0.07789 0.21497 0.0
C1765 C 1.01157 0.07115 0.13273 0.0
C1766 C 0.04105 0.07107 0.13211 0.0
H1767 H 0.97575 0.07408 0.16009 0.0
H1768 H 0.99844 0.069 0.1102 0.0
C1769 C 0.05603 0.07398 0.16329 0.0
C1770 C 0.31516 0.71117 0.458 0.0
C1771 C 0.29371 0.69359 0.47323 0.0
H1772 H 0.32557 0.74608 0.42823 0.0
C1773 C 0.26524 0.69563 0.46852 0.0
H1774 H 0.3374 0.7105 0.46232 0.0
C1775 C 0.25828 0.7157 0.44895 0.0
C1776 C 0.27992 0.73429 0.43441 0.0
H1777 H 0.24864 0.68251 0.4808 0.0
H1778 H 0.23618 0.71702 0.44554 0.0
C1779 C 0.30835 0.73157 0.43878 0.0
C1780 C 0.67781 1.01287 0.63815 0.0
C1781 C 0.67671 1.02131 0.67145 0.0
H1782 H 0.65967 1.01396 0.59127 0.0
C1783 C 0.65269 0.03104 0.68243 0.0
H1784 H 0.69561 1.00463 0.62889 0.0
C1785 C 0.63281 0.03744 0.66092 0.0
C1786 C 0.63663 0.03351 0.62843 0.0
H1787 H 0.65087 0.03716 0.70798 0.0
H1788 H 0.61618 0.04811 0.67007 0.0
C1789 C 0.65769 1.01885 0.61674 0.0
C1790 C 0.34672 0.37457 0.93 0.0
C1791 C 0.35012 0.3488 0.94466 0.0
H1792 H 0.34112 0.39091 0.88618 0.0
C1793 C 0.34941 0.31801 0.92401 0.0
H1794 H 0.34732 0.3987 0.94476 0.0
C1795 C 0.34517 0.31325 0.88986 0.0
C1796 C 0.34273 0.33958 0.87541 0.0
H1797 H 0.35196 0.2975 0.93424 0.0
H1798 H 0.34394 0.28905 0.87481 0.0
C1799 C 0.34328 0.37011 0.89618 0.0
C1800 C 0.06361 0.05447 0.3952 0.0
C1801 C 0.03519 0.05692 0.38698 0.0
H1802 H 0.09664 0.0529 0.43222 0.0
C1803 C 0.0181 0.05677 0.41252 0.0
H1804 H 0.07806 0.05474 0.377 0.0
C1805 C 0.02828 0.05362 0.44382 0.0
C1806 C 0.05662 0.05131 0.45242 0.0
H1807 H 0.99624 0.05858 0.40816 0.0
H1808 H 1.01358 0.05332 0.46178 0.0
C1809 C 0.07432 0.05284 0.42725 0.0
C1810 C 0.3672 0.73238 0.63599 0.0
C1811 C 0.34261 0.70552 0.62277 0.0
H1812 H 0.38417 0.77885 0.67053 0.0
C1813 C 0.31516 0.70791 0.62956 0.0
H1814 H 0.38843 0.73133 0.63016 0.0
C1815 C 0.31248 0.73565 0.6513 0.0
C1816 C 0.3373 0.76108 0.66749 0.0
H1817 H 0.29572 0.68789 0.61857 0.0
H1818 H 0.2911 0.73584 0.65731 0.0
C1819 C 0.36459 0.75993 0.65852 0.0
C1820 C 0.69171 0.12655 0.83858 0.0
C1821 C 0.69813 0.0958 0.83345 0.0
H1822 H 0.66762 0.15689 0.86323 0.0
C1823 C 0.68663 0.07251 0.85135 0.0
H1824 H 0.70067 0.14498 0.82511 0.0
C1825 C 0.66722 0.07899 0.87255 0.0
C1826 C 0.65952 0.10907 0.87639 0.0
H1827 H 0.69113 0.04852 0.84741 0.0
H1828 H 0.65724 0.0598 0.88474 0.0
C1829 C 0.67264 0.13322 0.86004 0.0
C1830 C 0.33683 0.32637 0.13616 0.0
C1831 C 0.34618 0.36056 0.13586 0.0
H1832 H 0.32565 0.28976 0.16477 0.0
C1833 C 0.35018 0.38399 0.16576 0.0
H1834 H 0.33375 0.30749 0.11394 0.0
C1835 C 0.34538 0.37384 0.19474 0.0
C1836 C 0.33575 0.33985 0.19509 0.0
H1837 H 0.35763 0.41059 0.16706 0.0
H1838 H 0.34938 0.39279 0.2171 0.0
C1839 C 0.33164 0.31618 0.16536 0.0
C1840 C 0.30616 0.06624 0.05504 0.0
C1841 C 0.30313 0.03403 0.03616 0.0
H1842 H 0.28559 0.09838 0.08401 0.0
C1843 C 0.27558 1.01041 0.02915 0.0
H1844 H 0.3271 0.08496 0.06096 0.0
C1845 C 0.25203 1.01809 0.04264 0.0
C1846 C 0.25565 0.04957 0.06298 0.0
H1847 H 0.27256 0.98532 0.01491 0.0
H1848 H 0.2313 0.99905 0.03831 0.0
C1849 C 0.28254 0.07395 0.06833 0.0
C1850 C 0.70812 0.64813 1.0102 0.0
C1851 C 0.73399 0.63973 0.0157 0.0
H1852 H 0.66215 0.63423 1.009 0.0
C1853 C 0.73227 0.60809 0.02216 0.0
H1854 H 0.7085 0.67213 1.00512 0.0
C1855 C 0.70552 0.58627 0.02479 0.0
C1856 C 0.67985 0.59548 0.02082 0.0
H1857 H 0.75176 0.60075 0.02671 0.0
H1858 H 0.70519 0.56292 0.0313 0.0
C1859 C 0.68147 0.62632 1.01264 0.0
C1860 C 0.79161 0.42779 0.23977 0.0
C1861 C 0.7764 0.44078 0.26447 0.0
H1862 H 0.81246 0.38992 0.21969 0.0
C1863 C 0.77433 0.42394 0.29016 0.0
H1864 H 0.79405 0.43889 0.21908 0.0
C1865 C 0.78589 0.3962 0.29093 0.0
C1866 C 0.80081 0.3828 0.26632 0.0
H1867 H 0.76305 0.43185 0.30991 0.0
H1868 H 0.78212 0.38417 0.31091 0.0
C1869 C 0.80288 0.39945 0.24035 0.0
C1870 C 0.97509 0.47316 0.5157 0.0
C1871 C 0.95983 0.49729 0.52096 0.0
H1872 H 0.01634 0.46341 0.52084 0.0
C1873 C 0.97537 0.53116 0.5318 0.0
H1874 H 0.96368 0.44679 0.50724 0.0
C1875 C 1.0054 0.54044 0.53971 0.0
C1876 C 0.02047 0.51618 0.53626 0.0
H1877 H 0.96427 0.55031 0.53625 0.0
H1878 H 0.01642 0.56646 0.54986 0.0
C1879 C 1.00516 0.48254 0.52359 0.0
C1880 C 0.33238 0.06034 0.28057 0.0
C1881 C 0.35996 0.08045 0.29611 0.0
H1882 H 0.29342 0.05773 0.25124 0.0
C1883 C 0.36908 0.11422 0.2952 0.0
H1884 H 0.32492 0.03414 0.28103 0.0
C1885 C 0.35145 0.12736 0.27767 0.0
C1886 C 0.32412 0.10712 0.26133 0.0
H1887 H 0.39039 0.13012 0.30664 0.0
H1888 H 0.3597 0.15314 0.27605 0.0
C1889 C 0.31452 0.07365 0.26331 0.0
C1890 C 0.40558 0.13518 0.52516 0.0
C1891 C 0.38854 0.14467 0.54855 0.0
H1892 H 0.43765 0.1096 0.5134 0.0
C1893 C 0.39318 0.13883 0.5795 0.0
H1894 H 0.40247 0.13959 0.50117 0.0
C1895 C 0.41334 0.12237 0.58659 0.0
C1896 C 0.42911 0.11081 0.56278 0.0
H1897 H 0.38086 0.14662 0.59827 0.0
H1898 H 0.4161 0.11799 0.61065 0.0
C1899 C 0.4257 0.11818 0.53221 0.0
C1900 C 0.75385 0.66183 0.30742 0.0
C1901 C 0.76727 0.63588 0.29957 0.0
H1902 H 0.75602 0.71393 0.31303 0.0
C1903 C 0.79589 0.64601 0.29197 0.0
H1904 H 0.73186 0.65597 0.31313 0.0
C1905 C 0.81018 0.68019 0.29243 0.0
C1906 C 0.7964 0.7059 0.29983 0.0
H1907 H 0.8073 0.62747 0.28539 0.0
H1908 H 0.83193 0.68628 0.28613 0.0
C1909 C 0.76784 0.69565 0.30724 0.0
C1910 C 0.8856 0.45079 0.81784 0.0
C1911 C 0.91574 0.46018 0.82745 0.0
H1912 H 0.84782 0.41117 0.79389 0.0
C1913 C 0.93109 0.43651 0.82093 0.0
H1914 H 0.87348 0.46898 0.82185 0.0
C1915 C 0.91627 0.40349 0.80565 0.0
C1916 C 0.8862 0.39429 0.79632 0.0
H1917 H 0.95441 0.44359 0.82749 0.0
H1918 H 0.92825 0.38523 0.80083 0.0
C1919 C 0.87097 0.41805 0.80172 0.0
C1920 C 0.10905 0.94447 0.10191 0.0
C1921 C 0.11949 0.92402 0.07795 0.0
H1922 H 0.09527 0.98883 0.11703 0.0
C1923 C 0.12193 0.93471 0.04841 0.0
H1924 H 0.10675 0.93812 0.1251 0.0
C1925 C 0.11444 0.96406 0.04335 0.0
C1926 C 0.10439 0.98465 0.06772 0.0
H1927 H 0.12982 0.92037 0.02898 0.0
H1928 H 0.11724 0.97105 0.0205 0.0
C1929 C 0.10227 0.97399 0.09715 0.0
C1930 C 0.95696 0.26405 0.85372 0.0
C1931 C 0.96116 0.27691 0.88763 0.0
H1932 H 0.93278 0.25852 0.80743 0.0
C1933 C 0.94208 0.29483 0.89992 0.0
H1934 H 0.97099 0.25017 0.84287 0.0
C1935 C 0.92011 0.30001 0.8792 0.0
C1936 C 0.91614 0.28749 0.8452 0.0
H1937 H 0.94441 0.30545 0.92564 0.0
H1938 H 0.90635 0.31431 0.89001 0.0
C1939 C 0.93492 0.26909 0.83304 0.0
C1940 C 0.63 0.21099 0.62534 0.0
C1941 C 0.63131 0.22915 0.60079 0.0
H1942 H 0.62311 0.16419 0.6389 0.0
C1943 C 0.62767 0.20985 0.56859 0.0
H1944 H 0.63296 0.22372 0.6506 0.0
C1945 C 0.62186 0.17402 0.56176 0.0
C1946 C 0.61979 0.15649 0.58697 0.0
H1947 H 0.62869 0.22218 0.5487 0.0
H1948 H 0.61817 0.16007 0.53685 0.0
C1949 C 0.62444 0.17611 0.61866 0.0
C1950 C 0.6062 0.80928 0.36794 0.0
C1951 C 0.60602 0.78858 0.38976 0.0
H1952 H 0.6274 0.83113 0.33224 0.0
C1953 C 0.62848 0.77336 0.39153 0.0
H1954 H 0.58987 0.82235 0.36665 0.0
C1955 C 0.65001 0.77786 0.371 0.0
C1956 C 0.64979 0.79818 0.34871 0.0
H1957 H 0.62917 0.75763 0.40844 0.0
H1958 H 0.66644 0.76492 0.37217 0.0
C1959 C 0.62787 0.81433 0.3481 0.0
C1960 C 0.1505 0.29335 0.48829 0.0
C1961 C 0.14137 0.27696 0.45547 0.0
H1962 H 0.14919 0.2904 0.53769 0.0
C1963 C 0.12423 0.24352 0.44759 0.0
H1964 H 0.16378 0.31916 0.49525 0.0
C1965 C 0.11547 0.22726 0.47204 0.0
C1966 C 0.12388 0.24402 0.50488 0.0
H1967 H 0.11655 0.23034 0.42261 0.0
H1968 H 0.10136 0.20184 0.46516 0.0
C1969 C 0.14186 0.27706 0.5127 0.0
C1970 C 0.58994 0.20826 0.25907 0.0
C1971 C 0.58968 0.24043 0.25622 0.0
H1972 H 0.61554 0.1754 0.26437 0.0
C1973 C 0.61583 0.26597 0.26173 0.0
H1974 H 0.56999 0.18794 0.25418 0.0
C1975 C 0.64202 0.2591 0.26878 0.0
C1976 C 0.64264 0.22616 0.26886 0.0
H1977 H 0.61607 0.29092 0.25949 0.0
H1978 H 0.66179 0.27955 0.27309 0.0
C1979 C 0.61616 0.20106 0.26487 0.0
C1980 C 0.64353 0.96656 0.94672 0.0
C1981 C 0.64947 0.94022 0.95849 0.0
H1982 H 0.62455 1.00683 0.95422 0.0
C1983 C 0.64176 0.93552 0.98862 0.0
H1984 H 0.64918 0.9707 0.92348 0.0
C1985 C 0.62704 0.9557 1.00587 0.0
C1986 C 0.62017 0.98135 0.99369 0.0
H1987 H 0.64564 0.9151 0.99813 0.0
H1988 H 0.62042 0.95041 0.02825 0.0
C1989 C 0.62909 0.98701 0.9642 0.0
C1990 C 0.93525 0.76618 0.77438 0.0
C1991 C 0.94688 0.77368 0.74664 0.0
H1992 H 0.90012 0.7656 0.8023 0.0
C1993 C 0.93303 0.78955 0.72717 0.0
H1994 H 0.94551 0.75405 0.78988 0.0
C1995 C 0.90714 0.79611 0.73438 0.0
C1996 C 0.89526 0.78773 0.76158 0.0
H1997 H 0.94144 0.79551 0.70559 0.0
H1998 H 0.89596 0.80688 0.71828 0.0
C1999 C 0.90949 0.77297 0.78167 0.0
C2000 C 0.16102 0.04964 0.91241 0.0
C2001 C 0.14727 0.05568 0.88431 0.0
H2002 H 0.16118 0.04676 0.96285 0.0
C2003 C 0.12044 0.06292 0.88856 0.0
H2004 H 0.18159 0.04407 0.91135 0.0
C2005 C 0.10802 0.0633 0.91833 0.0
C2006 C 0.12202 0.05785 0.94658 0.0
H2007 H 0.10852 0.06785 0.86843 0.0
H2008 H 0.08729 0.0685 0.9193 0.0
C2009 C 0.14914 0.05132 0.94258 0.0
C2010 C 0.8749 0.39812 0.61483 0.0
C2011 C 0.8793 0.43241 0.61705 0.0
H2012 H 0.88602 0.3609 0.63539 0.0
C2013 C 0.8947 0.45554 0.64543 0.0
H2014 H 0.86315 0.37967 0.59329 0.0
C2015 C 0.90763 0.44471 0.66997 0.0
C2016 C 0.90538 0.41063 0.66642 0.0
H2017 H 0.89821 0.48216 0.6479 0.0
H2018 H 0.92024 0.46309 0.69113 0.0
C2019 C 0.88805 0.38736 0.63911 0.0
C2020 C 0.52585 0.09224 0.44719 0.0
C2021 C 0.53073 0.07945 0.41581 0.0
H2022 H 0.53882 0.09905 0.49771 0.0
C2023 C 0.55558 0.06868 0.41119 0.0
H2024 H 0.507 0.10091 0.45141 0.0
C2025 C 0.57372 0.06766 0.43772 0.0
C2026 C 0.56698 0.0773 0.46882 0.0
H2027 H 0.55991 0.0589 0.38715 0.0
H2028 H 0.5915 0.05698 0.43381 0.0
C2029 C 0.54384 0.09094 0.47359 0.0
C2030 C 0.82414 0.79232 0.15214 0.0
C2031 C 0.8185 0.75862 0.13519 0.0
H2032 H 0.83298 0.82706 0.19913 0.0
C2033 C 0.81407 0.73408 0.15351 0.0
H2034 H 0.82757 0.81198 0.13903 0.0
C2035 C 0.81711 0.74257 0.18718 0.0
C2036 C 0.8241 0.77597 0.20446 0.0
H2037 H 0.80901 0.70778 0.14183 0.0
H2038 H 0.81473 0.72267 0.19997 0.0
C2039 C 0.82707 0.80096 0.18657 0.0
C2040 C 0.13583 0.03686 0.67822 0.0
C2041 C 0.16225 0.02839 0.68427 0.0
H2042 H 0.1029 0.04264 0.64331 0.0
C2043 C 0.17602 0.02237 0.65636 0.0
H2044 H 0.12393 0.04206 0.69819 0.0
C2045 C 0.16445 0.02411 0.62503 0.0
C2046 C 0.13806 0.03206 0.61847 0.0
H2047 H 0.19628 1.01607 0.65852 0.0
H2048 H 0.17635 1.01827 0.60518 0.0
C2049 C 0.12383 0.03802 0.64626 0.0
C2050 C 0.86884 0.36033 0.42477 0.0
C2051 C 0.84968 0.3785 0.4359 0.0
H2052 H 0.88196 0.33243 0.38381 0.0
C2053 C 0.82774 0.38105 0.41388 0.0
H2054 H 0.88622 0.35833 0.44121 0.0
C2055 C 0.82517 0.36589 0.38116 0.0
C2056 C 0.84493 0.34869 0.36997 0.0
H2057 H 0.81286 0.39511 0.42187 0.0
H2058 H 0.80819 0.36835 0.36447 0.0
C2059 C 0.86669 0.34587 0.39196 0.0
C2060 C 0.50183 0.05672 0.25242 0.0
C2061 C 0.4787 0.03408 0.26133 0.0
H2062 H 0.53867 0.06259 0.2268 0.0
C2063 C 0.47548 0.99958 0.25219 0.0
H2064 H 0.50494 0.08344 0.25971 0.0
C2065 C 0.49544 0.98794 0.23493 0.0
C2066 C 0.51826 1.01047 0.22566 0.0
H2067 H 0.45821 0.98162 0.25945 0.0
H2068 H 0.49286 0.96137 0.22843 0.0
C2069 C 0.52127 0.04492 0.2342 0.0
C2070 C 0.82397 0.74375 0.92157 0.0
C2071 C 0.81908 0.76662 0.94801 0.0
H2072 H 0.83024 0.73333 0.87134 0.0
C2073 C 0.81799 0.79805 0.94318 0.0
H2074 H 0.82471 0.71921 0.92414 0.0
C2075 C 0.82208 0.80652 0.91317 0.0
C2076 C 0.82622 0.78337 0.8865 0.0
H2077 H 0.81421 0.81631 0.96279 0.0
H2078 H 0.8214 0.8311 0.91068 0.0
C2079 C 0.82695 0.75177 0.89116 0.0
C2080 C 0.86922 0.07562 0.02052 0.0
C2081 C 0.85597 0.06217 0.04501 0.0
H2082 H 0.89911 0.07255 0.98607 0.0
C2083 C 0.86395 0.03567 0.05449 0.0
H2084 H 0.86381 0.0963 1.01296 0.0
C2085 C 0.88428 0.02238 0.03922 0.0
C2086 C 0.89687 0.03544 0.01437 0.0
H2087 H 0.85419 0.02487 0.07334 0.0
H2088 H 0.8897 1.00145 0.04628 0.0
C2089 C 0.88949 0.06227 1.00528 0.0
C2090 C 0.46552 0.48904 0.07122 0.0
C2091 C 0.45564 0.45404 0.05961 0.0
H2092 H 0.50083 0.53367 0.07941 0.0
C2093 C 0.47572 0.43726 0.04844 0.0
H2094 H 0.4508 0.50291 0.08016 0.0
C2095 C 0.50464 0.45504 0.04812 0.0
C2096 C 0.51437 0.49017 0.05895 0.0
H2097 H 0.46903 0.41035 0.03941 0.0
H2098 H 0.51922 0.44117 0.03873 0.0
C2099 C 0.49443 0.50679 0.07093 0.0
C2100 C 0.38955 0.67789 0.73121 0.0
C2101 C 0.40008 0.67039 0.76012 0.0
H2102 H 0.37136 0.71005 0.70765 0.0
C2103 C 0.39635 0.69221 0.78884 0.0
H2104 H 0.39154 0.66294 0.70819 0.0
C2105 C 0.38336 0.71935 0.78851 0.0
C2106 C 0.37334 0.72706 0.75938 0.0
H2107 H 0.40378 0.68853 0.81206 0.0
H2108 H 0.38221 0.73517 0.8114 0.0
C2109 C 0.37743 0.70542 0.73092 0.0
C2110 C 0.20648 0.58339 0.57013 0.0
C2111 C 0.22661 0.61421 0.57152 0.0
H2112 H 0.16232 0.55719 0.56919 0.0
C2113 C 0.21741 0.64341 0.57713 0.0
H2114 H 0.21289 0.56054 0.56611 0.0
C2115 C 0.18832 0.64152 0.57913 0.0
C2116 C 0.16787 0.61045 0.5757 0.0
H2117 H 0.2325 0.66776 0.57883 0.0
H2118 H 0.18165 0.66417 0.58196 0.0
C2119 C 0.17739 0.58155 0.57202 0.0
C2120 C 0.77805 0.99586 0.79541 0.0
C2121 C 0.79364 1.00228 0.76983 0.0
H2122 H 0.7768 0.97894 0.83918 0.0
C2123 C 0.82053 0.99578 0.76863 0.0
H2124 H 0.75707 1.00042 0.79667 0.0
C2125 C 0.83229 0.98443 0.79356 0.0
C2126 C 0.81704 0.97882 0.81973 0.0
H2127 H 0.83301 1.00084 0.74923 0.0
H2128 H 0.85369 0.98103 0.79272 0.0
C2129 C 0.7895 0.98395 0.81996 0.0
C2130 C 0.80356 0.99539 0.58107 0.0
C2131 C 0.8111 0.97194 0.55756 0.0
H2132 H 0.77844 0.03013 0.59079 0.0
C2133 C 0.79758 0.96434 0.52546 0.0
H2134 H 0.81342 1.00148 0.60607 0.0
C2135 C 0.77797 0.98105 0.51675 0.0
C2136 C 0.77106 1.00511 0.54008 0.0
H2137 H 0.80287 0.94628 0.50687 0.0
H2138 H 0.76849 0.97557 0.49166 0.0
C2139 C 0.78346 1.0116 0.57244 0.0
C2140 C 0.42387 0.46212 0.79363 0.0
C2141 C 0.41073 0.48384 0.78076 0.0
H2142 H 0.42053 0.41397 0.80373 0.0
C2143 C 0.38095 0.46969 0.76784 0.0
H2144 H 0.44654 0.47084 0.80391 0.0
C2145 C 0.36552 0.4358 0.76788 0.0
C2146 C 0.3791 0.41432 0.78068 0.0
H2147 H 0.36952 0.48468 0.75748 0.0
H2148 H 0.3429 0.42637 0.75752 0.0
C2149 C 0.40868 0.42869 0.79351 0.0
C2150 C 0.31361 0.68125 0.25569 0.0
C2151 C 0.29078 0.65895 0.23307 0.0
H2152 H 0.33525 0.73216 0.27852 0.0
C2153 C 0.27297 0.67127 0.21402 0.0
H2154 H 0.32709 0.6722 0.27113 0.0
C2155 C 0.27723 0.70567 0.2187 0.0
C2156 C 0.29981 0.72778 0.24172 0.0
H2157 H 0.2546 0.6544 0.19717 0.0
H2158 H 0.26283 0.71498 0.20471 0.0
C2159 C 0.31802 0.71542 0.2601 0.0
C2160 C 0.56787 0.69728 0.54778 0.0
C2161 C 0.57429 0.70313 0.51731 0.0
H2162 H 0.56367 0.66398 0.58044 0.0
C2163 C 0.58249 0.67759 0.49664 0.0
H2164 H 0.56134 0.71582 0.56454 0.0
C2165 C 0.58411 0.64767 0.50595 0.0
C2166 C 0.57795 0.64199 0.5366 0.0
H2167 H 0.5875 0.68062 0.47291 0.0
H2168 H 0.58991 0.62872 0.48888 0.0
C2169 C 0.56933 0.66733 0.557 0.0
C2170 C 0.75568 0.33674 0.67557 0.0
C2171 C 0.73597 0.35096 0.69215 0.0
H2172 H 0.79372 0.31904 0.67873 0.0
C2173 C 0.74255 0.36071 0.72623 0.0
H2174 H 0.75147 0.3282 0.64949 0.0
C2175 C 0.76693 0.35574 0.74299 0.0
C2176 C 0.7858 0.33984 0.72685 0.0
H2177 H 0.72825 0.37162 0.7403 0.0
H2178 H 0.77056 0.36395 0.76902 0.0
C2179 C 0.78001 0.33121 0.69256 0.0
C2180 C 0.05681 0.40913 0.98119 0.0
C2181 C 0.05586 0.39171 1.00605 0.0
H2182 H 0.06402 0.45628 0.96774 0.0
C2183 C 0.06178 0.41131 0.03823 0.0
H2184 H 0.0522 0.39536 0.95616 0.0
C2185 C 0.06959 0.447 0.04502 0.0
C2186 C 0.07008 0.46426 0.01988 0.0
H2187 H 0.06137 0.39913 0.05821 0.0
H2188 H 0.07592 0.46102 0.06988 0.0
C2189 C 0.06339 0.44436 0.98794 0.0
C2190 C 0.04393 0.83822 0.20142 0.0
C2191 C 0.0614 0.81643 0.19999 0.0
H2192 H 1.00905 0.85327 0.22254 0.0
C2193 C 0.05491 0.79063 0.21657 0.0
H2194 H 0.04826 0.85815 0.18863 0.0
C2195 C 0.03245 0.78759 0.23543 0.0
C2196 C 0.01599 0.81043 0.23848 0.0
H2197 H 0.06746 0.77288 0.21536 0.0
H2198 H 0.02839 0.76771 0.2483 0.0
C2199 C 0.02139 0.83528 0.22061 0.0
C2200 C 0.57635 0.3088 0.10534 0.0
C2201 C 0.56011 0.3186 0.12953 0.0
H2202 H 0.60422 0.32383 0.07116 0.0
C2203 C 0.55702 0.35106 0.13532 0.0
H2204 H 0.57862 0.28372 0.09985 0.0
C2205 C 0.5717 0.37402 0.11857 0.0
C2206 C 0.58948 0.36455 0.09609 0.0
H2207 H 0.54451 0.3591 0.15374 0.0
H2208 H 0.5703 0.39947 0.12423 0.0
C2209 C 0.59097 0.33161 0.08887 0.0
C2210 C 0.06082 0.361 0.35527 0.0
C2211 C 0.07756 0.34398 0.3368 0.0
H2212 H 0.02532 0.38209 0.35508 0.0
C2213 C 0.07061 0.33464 0.30295 0.0
H2214 H 0.06556 0.36849 0.38141 0.0
C2215 C 0.04763 0.34294 0.28785 0.0
C2216 C 0.03117 0.36008 0.30655 0.0
H2217 H 0.08325 0.32161 0.28819 0.0
H2218 H 0.04256 0.3358 0.26173 0.0
C2219 C 0.0378 0.36881 0.34029 0.0
C2220 C 0.02217 0.64626 0.65612 0.0
C2221 C 1.00602 0.66225 0.63925 0.0
H2222 H 0.05374 0.61947 0.65507 0.0
C2223 C 1.00711 0.65915 0.60594 0.0
H2224 H 0.02202 0.64804 0.68182 0.0
C2225 C 0.02539 0.64244 0.59046 0.0
C2226 C 0.04335 0.62894 0.60801 0.0
H2227 H 0.99498 0.6711 0.59215 0.0
H2228 H 0.02576 0.6407 0.56488 0.0
C2229 C 0.04083 0.63021 0.64082 0.0
C2230 C 0.73237 0.85578 0.81762 0.0
C2231 C 0.73358 0.85557 0.85076 0.0
H2232 H 0.75436 0.85217 0.7756 0.0
C2233 C 0.75925 0.85439 0.86757 0.0
H2234 H 0.71289 0.85692 0.80404 0.0
C2235 C 0.78279 0.85211 0.85133 0.0
C2236 C 0.78094 0.85032 0.81794 0.0
H2237 H 0.76109 0.8548 0.89315 0.0
H2238 H 0.80222 0.85087 0.86478 0.0
C2239 C 0.75599 0.85319 0.8013 0.0
C2240 C 0.50771 0.57803 0.67135 0.0
C2241 C 0.52137 0.58067 0.70299 0.0
H2242 H 0.50983 0.57221 0.61993 0.0
C2243 C 0.5509 0.58015 0.70407 0.0
H2244 H 0.4852 0.57787 0.66812 0.0
C2245 C 0.56562 0.57753 0.67575 0.0
C2246 C 0.55167 0.5743 0.64406 0.0
H2247 H 0.56294 0.5818 0.72714 0.0
H2248 H 0.58801 0.57727 0.67877 0.0
C2249 C 0.52215 0.57459 0.64305 0.0
C2250 C 0.81442 0.2106 0.97887 0.0
C2251 C 0.79144 0.19865 0.99526 0.0
H2252 H 0.83164 0.24429 0.94993 0.0
C2253 C 0.76654 0.20953 0.99307 0.0
H2254 H 0.83407 0.20299 0.98115 0.0
C2255 C 0.76462 0.23245 0.9745 0.0
C2256 C 0.78797 0.24535 0.95868 0.0
H2257 H 0.74876 0.20056 1.00605 0.0
H2258 H 0.74502 0.24014 0.97268 0.0
C2259 C 0.81291 0.2342 0.9611 0.0
C2260 C 0.15167 0.52861 0.17264 0.0
C2261 C 0.16385 0.55815 0.19653 0.0
H2262 H 0.12572 0.50645 0.12667 0.0
C2263 C 0.15385 0.58627 0.19604 0.0
H2264 H 0.15846 0.50635 0.17282 0.0
C2265 C 0.13501 0.58623 0.16957 0.0
C2266 C 0.12629 0.55815 0.14369 0.0
H2267 H 0.16256 0.60925 0.21451 0.0
H2268 H 0.1296 0.60902 0.16798 0.0
C2269 C 0.13307 0.52869 0.14624 0.0
C2270 C 0.85052 0.8191 0.43251 0.0
C2271 C 0.852 0.84985 0.45372 0.0
H2272 H 0.8433 0.79049 0.38298 0.0
C2273 C 0.84838 0.87598 0.43975 0.0
H2274 H 0.85325 0.79835 0.44221 0.0
C2275 C 0.84379 0.87183 0.40602 0.0
C2276 C 0.84232 0.8413 0.3847 0.0
H2277 H 0.84958 0.90011 0.45495 0.0
H2278 H 0.84136 0.89283 0.39653 0.0
C2279 C 0.84515 0.81468 0.39847 0.0
C2280 C 0.56387 0.55185 0.90173 0.0
C2281 C 0.53636 0.55682 0.89381 0.0
H2282 H 0.59589 0.54807 0.93858 0.0
C2283 C 0.51956 0.5586 0.91953 0.0
H2284 H 0.57804 0.55054 0.88334 0.0
C2285 C 0.52912 0.55492 0.95078 0.0
C2286 C 0.55661 0.55026 0.95913 0.0
H2287 H 0.49838 0.56235 0.91535 0.0
H2288 H 0.51468 0.5562 0.96891 0.0
C2289 C 0.57409 0.54978 0.93376 0.0
C2290 C 0.80628 0.20639 0.14112 0.0
C2291 C 0.83302 0.20111 0.13501 0.0
H2292 H 0.78454 0.23906 0.16638 0.0
C2293 C 0.85851 0.22749 0.14512 0.0
H2294 H 0.78615 0.18675 0.13201 0.0
C2295 C 0.85762 0.25756 0.16486 0.0
C2296 C 0.83117 0.26151 0.17425 0.0
H2297 H 0.87917 0.22416 0.13938 0.0
H2298 H 0.87792 0.27615 0.17509 0.0
C2299 C 0.80532 0.23661 0.16008 0.0
C2300 C 0.20232 0.6523 0.35692 0.0
C2301 C 0.20902 0.62171 0.34902 0.0
H2302 H 0.1756 0.67911 0.38179 0.0
C2303 C 0.19593 0.59556 0.36314 0.0
H2304 H 0.21228 0.67298 0.34648 0.0
C2305 C 0.17477 0.59895 0.38276 0.0
C2306 C 0.16662 0.6287 0.38889 0.0
H2307 H 0.20059 0.57169 0.3574 0.0
H2308 H 0.16384 0.5777 0.39194 0.0
C2309 C 0.18112 0.65572 0.37668 0.0
C2310 C 0.84253 0.82941 0.64622 0.0
C2311 C 0.85115 0.86345 0.64532 0.0
H2312 H 0.8312 0.79335 0.67535 0.0
C2313 C 0.854 0.88725 0.67474 0.0
H2314 H 0.84012 0.81027 0.62436 0.0
C2315 C 0.84893 0.8776 0.7039 0.0
C2316 C 0.84043 0.84371 0.70493 0.0
H2317 H 0.86061 0.91377 0.6755 0.0
H2318 H 0.85165 0.89686 0.72576 0.0
C2319 C 0.83712 0.81971 0.67556 0.0
C2320 C 0.78653 0.49889 0.55583 0.0
C2321 C 0.81209 0.52339 0.55435 0.0
H2322 H 0.74458 0.48907 0.57164 0.0
C2323 C 0.81372 0.55737 0.56454 0.0
H2324 H 0.78495 0.47252 0.54859 0.0
C2325 C 0.79054 0.56671 0.57726 0.0
C2326 C 0.76585 0.54217 0.58064 0.0
H2327 H 0.8333 0.57666 0.56379 0.0
H2328 H 0.79243 0.59303 0.58586 0.0
C2329 C 0.76365 0.50825 0.56928 0.0
C2330 C 0.2103 0.14961 0.50696 0.0
C2331 C 0.23569 0.13968 0.51 0.0
H2332 H 0.16462 0.13746 0.50818 0.0
C2333 C 0.23325 0.10729 0.51487 0.0
H2334 H 0.2112 0.17425 0.50326 0.0
C2335 C 0.20636 0.08605 0.51801 0.0
C2336 C 0.18121 0.09662 0.51627 0.0
H2337 H 0.25233 0.09871 0.51751 0.0
H2338 H 0.20554 0.06193 0.52301 0.0
C2339 C 0.18351 0.12844 0.51004 0.0
C2340 C 0.29041 0.92591 0.73104 0.0
C2341 C 0.27534 0.93882 0.75594 0.0
H2342 H 0.31118 0.88813 0.71054 0.0
C2343 C 0.27329 0.92166 0.78141 0.0
H2344 H 0.2928 0.93717 0.71045 0.0
C2345 C 0.2848 0.89377 0.78184 0.0
C2346 C 0.2998 0.88063 0.75715 0.0
H2347 H 0.26205 0.9294 0.80125 0.0
H2348 H 0.28095 0.88147 0.8016 0.0
C2349 C 0.30166 0.89749 0.73131 0.0
C2350 C 0.4589 0.965 0.99607 0.0
C2351 C 0.44709 0.9922 1.00218 0.0
H2352 H 0.49722 0.94869 0.99925 0.0
C2353 C 0.4658 0.0247 1.01232 0.0
H2354 H 0.44494 0.93956 0.98804 0.0
C2355 C 0.49553 0.02967 0.01901 0.0
C2356 C 0.50727 1.00245 0.01497 0.0
H2357 H 0.45741 0.04612 0.01732 0.0
H2358 H 0.50899 0.05488 0.02852 0.0
C2359 C 0.48876 0.9701 1.00256 0.0
C2360 C 0.82623 0.56762 0.82031 0.0
C2361 C 0.85447 0.58758 0.83352 0.0
H2362 H 0.78656 0.56424 0.792 0.0
C2363 C 0.86268 0.62158 0.83342 0.0
H2364 H 0.8194 0.54131 0.82048 0.0
C2365 C 0.84447 0.63428 0.81617 0.0
C2366 C 0.81733 0.6134 0.79972 0.0
H2367 H 0.8844 0.63744 0.84332 0.0
H2368 H 0.85293 0.65967 0.81355 0.0
C2369 C 0.80767 0.58054 0.80358 0.0
C2370 C 0.88485 0.6241 0.07027 0.0
C2371 C 0.88906 0.65268 0.05746 0.0
H2372 H 0.9047 0.59412 0.09399 0.0
C2373 C 0.9175 0.67086 0.05526 0.0
H2374 H 0.86322 0.60945 0.07212 0.0
C2375 C 0.94127 0.6619 0.0678 0.0
C2376 C 0.93682 0.63457 0.0824 0.0
H2377 H 0.92141 0.69311 0.04572 0.0
H2378 H 0.96306 0.67737 0.06776 0.0
C2379 C 0.9085 0.61519 0.08267 0.0
C2380 C 0.25513 0.16126 0.79712 0.0
C2381 C 0.26827 0.13488 0.79125 0.0
H2382 H 0.25826 0.21336 0.80079 0.0
C2383 C 0.2975 0.14433 0.78523 0.0
H2384 H 0.23276 0.15595 0.80151 0.0
C2385 C 0.31261 0.17825 0.7854 0.0
C2386 C 0.29911 0.20438 0.79079 0.0
H2387 H 0.30879 0.12545 0.78022 0.0
H2388 H 0.3348 0.18379 0.78043 0.0
C2389 C 0.26994 0.19476 0.79656 0.0
C2390 C 0.3739 0.95645 0.32106 0.0
C2391 C 0.40289 0.96055 0.33358 0.0
H2392 H 0.3357 0.92425 0.28948 0.0
C2393 C 0.41528 0.93442 0.32431 0.0
H2394 H 0.36387 0.97637 0.3273 0.0
C2395 C 0.39913 0.9049 0.3028 0.0
C2396 C 0.37042 0.90113 0.29021 0.0
H2397 H 0.43765 0.93714 0.33312 0.0
H2398 H 0.40909 0.885 0.29587 0.0
C2399 C 0.35787 0.92699 0.29913 0.0
C2400 C 0.61809 0.442 0.61509 0.0
C2401 C 0.62996 0.42175 0.5924 0.0
H2402 H 0.60343 0.48617 0.62827 0.0
C2403 C 0.63215 0.43137 0.56233 0.0
H2404 H 0.61598 0.43664 0.63869 0.0
C2405 C 0.62365 0.45967 0.5558 0.0
C2406 C 0.61225 0.48029 0.57879 0.0
H2407 H 0.6412 0.41738 0.54379 0.0
H2408 H 0.62753 0.46649 0.53307 0.0
C2409 C 0.61026 0.47062 0.60879 0.0
C2410 C 0.46072 0.81895 0.34097 0.0
C2411 C 0.45696 0.80225 0.36641 0.0
H2412 H 0.44076 0.833 0.30123 0.0
C2413 C 0.42831 0.78654 0.3706 0.0
H2414 H 0.48233 0.83137 0.33683 0.0
C2415 C 0.40428 0.78795 0.35035 0.0
C2416 C 0.4081 0.80451 0.32481 0.0
H2417 H 0.4244 0.77353 0.38989 0.0
H2418 H 0.38264 0.77586 0.35464 0.0
C2419 C 0.43676 0.81979 0.32037 0.0
C2420 C 0.12268 0.70883 0.10258 0.0
C2421 C 0.11871 0.72819 0.07998 0.0
H2422 H 0.11836 0.66028 0.11252 0.0
C2423 C 0.10953 0.71035 0.04747 0.0
H2424 H 0.12981 0.72088 0.12792 0.0
C2425 C 0.10329 0.67475 0.03858 0.0
C2426 C 0.10667 0.65564 0.06158 0.0
H2427 H 0.10589 0.72362 0.02913 0.0
H2428 H 0.09482 0.66192 0.01366 0.0
C2429 C 0.11661 0.67362 0.09371 0.0
C2430 C 0.12756 0.31453 0.88134 0.0
C2431 C 0.11095 0.28096 0.87631 0.0
H2432 H 0.16216 0.34956 0.86674 0.0
C2433 C 0.11858 0.2563 0.85425 0.0
H2434 H 0.12224 0.33407 0.89816 0.0
C2435 C 0.14174 0.26514 0.83688 0.0
C2436 C 0.1574 0.2988 0.84089 0.0
H2437 H 0.10633 0.23019 0.85 0.0
H2438 H 0.14668 0.24583 0.81935 0.0
C2439 C 0.15039 0.3234 0.86348 0.0
C2440 C 0.62929 0.75919 0.96771 0.0
C2441 C 0.6532 0.78785 0.97766 0.0
H2442 H 0.59996 0.71865 0.98163 0.0
C2443 C 0.66617 0.79741 1.01017 0.0
H2444 H 0.61877 0.75131 0.94288 0.0
C2445 C 0.65514 0.77908 0.03241 0.0
C2446 C 0.63114 0.75057 0.02253 0.0
H2447 H 0.68448 0.81956 0.01868 0.0
H2448 H 0.66554 0.78703 0.05729 0.0
C2449 C 0.61851 0.74058 0.98989 0.0
C2450 C 0.1041 0.74553 0.75731 0.0
C2451 C 0.0943 0.74683 0.72579 0.0
H2452 H 0.13543 0.73277 0.78728 0.0
C2453 C 0.10873 0.73598 0.70016 0.0
H2454 H 0.09338 0.75371 0.77751 0.0
C2455 C 0.13208 0.72374 0.70571 0.0
C2456 C 0.14148 0.72172 0.73687 0.0
H2457 H 0.10172 0.73626 0.67548 0.0
H2458 H 0.14304 0.71631 0.68558 0.0
C2459 C 0.12768 0.73306 0.76283 0.0
C2460 C 0.1465 0.47044 0.46688 0.0
C2461 C 0.14124 0.43973 0.4759 0.0
H2462 H 0.14029 0.51936 0.47638 0.0
C2463 C 0.1272 0.43538 0.50298 0.0
H2464 H 0.15691 0.47408 0.44574 0.0
C2465 C 0.11781 0.46098 0.52031 0.0
C2466 C 0.12193 0.49119 0.51059 0.0
H2467 H 0.12271 0.41177 0.5102 0.0
H2468 H 0.10639 0.45663 0.5406 0.0
C2469 C 0.13661 0.496 0.48399 0.0
C2470 C 0.42637 0.26712 0.21448 0.0
C2471 C 0.44058 0.25629 0.23831 0.0
H2472 H 0.3896 0.28297 0.20058 0.0
C2473 C 0.42975 0.25556 0.26787 0.0
H2474 H 0.43419 0.26751 0.19138 0.0
C2475 C 0.40477 0.26521 0.27341 0.0
C2476 C 0.39023 0.27526 0.24925 0.0
H2477 H 0.44042 0.24719 0.28653 0.0
H2478 H 0.39636 0.26393 0.29611 0.0
C2479 C 0.40095 0.27581 0.21966 0.0
C2480 C 0.66615 0.54834 0.42073 0.0
C2481 C 0.6512 0.55424 0.39333 0.0
H2482 H 0.66851 0.54578 0.47131 0.0
C2483 C 0.62465 0.56155 0.39904 0.0
H2484 H 0.68662 0.54275 0.41852 0.0
C2485 C 0.6136 0.56221 0.42959 0.0
C2486 C 0.62881 0.55692 0.45714 0.0
H2487 H 0.6119 0.56637 0.3795 0.0
H2488 H 0.59302 0.56752 0.43171 0.0
C2489 C 0.65562 0.55022 0.45163 0.0
C2490 C 0.38708 0.969 0.12923 0.0
C2491 C 0.36591 0.94649 0.10449 0.0
H2492 H 0.41855 0.97464 0.16981 0.0
C2493 C 0.3563 0.91272 0.10558 0.0
H2494 H 0.39464 0.99532 0.12929 0.0
C2495 C 0.3702 0.90094 0.12849 0.0
C2496 C 0.39369 0.92284 0.15095 0.0
H2497 H 0.33988 0.8948 0.08702 0.0
H2498 H 0.36401 0.87423 0.12679 0.0
C2499 C 0.401 0.9572 0.15222 0.0
C2500 C 1.01448 0.54213 0.92281 0.0
C2501 C 0.02472 0.57004 0.90999 0.0
H2502 H 0.02291 0.51541 0.9577 0.0
C2503 C 0.05248 0.59208 0.92122 0.0
H2504 H 0.99345 0.52424 0.91333 0.0
C2505 C 0.06903 0.58754 0.94735 0.0
C2506 C 0.0578 0.56062 0.96146 0.0
H2507 H 0.06072 0.61325 0.91073 0.0
H2508 H 0.0897 0.60583 0.95752 0.0
C2509 C 0.03119 0.53712 0.94805 0.0
C2510 C 0.32932 0.29113 0.64252 0.0
C2511 C 0.32685 0.2581 0.62548 0.0
H2512 H 0.33569 0.32544 0.68958 0.0
C2513 C 0.32632 0.23408 0.64406 0.0
H2514 H 0.3296 0.31039 0.62935 0.0
C2515 C 0.3294 0.24246 0.67774 0.0
C2516 C 0.33297 0.27527 0.69508 0.0
H2517 H 0.32388 0.2082 0.63259 0.0
H2518 H 0.3295 0.22287 0.69045 0.0
C2519 C 0.3326 0.29971 0.67707 0.0
C2520 C 0.63632 0.53701 0.18543 0.0
C2521 C 0.66301 0.52912 0.19163 0.0
H2522 H 0.60328 0.54244 0.1504 0.0
C2523 C 0.67713 0.52393 0.16384 0.0
H2524 H 0.62412 0.54156 0.20527 0.0
C2525 C 0.66565 0.52587 0.13254 0.0
C2526 C 0.63898 0.5332 0.12581 0.0
H2527 H 0.6976 0.51811 0.16609 0.0
H2528 H 0.67784 0.52063 0.11282 0.0
C2529 C 0.6244 0.53835 0.15346 0.0
C2530 C 0.31768 0.8813 0.90069 0.0
C2531 C 0.33752 0.87934 0.92545 0.0
H2532 H 0.30233 0.86722 0.85004 0.0
C2533 C 0.35725 0.86075 0.91788 0.0
H2534 H 0.30249 0.89573 0.90588 0.0
C2535 C 0.35779 0.84534 0.88586 0.0
C2536 C 0.33812 0.84762 0.86115 0.0
H2537 H 0.37313 0.85928 0.93651 0.0
H2538 H 0.37346 0.83163 0.88045 0.0
C2539 C 0.31775 0.86519 0.86882 0.0
C2540 C 0.97049 0.5263 0.75457 0.0
C2541 C 0.97192 0.56033 0.76493 0.0
H2542 H 0.99249 0.49097 0.7345 0.0
C2543 C 0.99611 0.58491 0.76033 0.0
H2544 H 0.95235 0.50671 0.7582 0.0
C2545 C 0.01891 0.57569 0.74668 0.0
C2546 C 0.01809 0.54185 0.73822 0.0
H2547 H 0.99787 0.61124 0.76853 0.0
H2548 H 0.03748 0.59494 0.74333 0.0
C2549 C 0.99363 0.5172 0.74169 0.0
C2550 C 0.32598 0.238 0.40956 0.0
C2551 C 0.32384 0.26206 0.43676 0.0
H2552 H 0.33027 0.22665 0.35868 0.0
C2553 C 0.32604 0.29455 0.4326 0.0
H2554 H 0.32412 0.21262 0.41158 0.0
C2555 C 0.33062 0.30286 0.40261 0.0
C2556 C 0.33201 0.2787 0.37516 0.0
H2557 H 0.32442 0.31377 0.45274 0.0
H2558 H 0.33232 0.32824 0.40072 0.0
C2559 C 0.32941 0.24601 0.3791 0.0
C2560 C 0.36668 0.56109 0.49431 0.0
C2561 C 0.36114 0.55995 0.52604 0.0
H2562 H 0.39136 0.5482 0.45643 0.0
C2563 C 0.3763 0.54378 0.54377 0.0
H2564 H 0.35537 0.57343 0.48007 0.0
C2565 C 0.39708 0.5298 0.53042 0.0
C2566 C 0.40281 0.53116 0.49884 0.0
H2567 H 0.37267 0.54262 0.56832 0.0
H2568 H 0.40881 0.51802 0.54487 0.0
C2569 C 0.38715 0.54655 0.48073 0.0
C2570 C 0.97009 0.98829 0.57528 0.0
C2571 C 0.96006 0.95331 0.56378 0.0
H2572 H 1.00493 0.03295 0.58145 0.0
C2573 C 0.97953 0.93654 0.55071 0.0
H2574 H 0.95587 1.00215 0.58569 0.0
C2575 C 1.00793 0.95441 0.54825 0.0
C2576 C 0.01767 0.98956 0.55881 0.0
H2577 H 0.97266 0.90964 0.54168 0.0
H2578 H 0.022 0.94064 0.53731 0.0
C2579 C 0.99844 1.00609 0.5729 0.0
C2580 C 0.89581 0.19206 0.2902 0.0
C2581 C 0.89788 0.1699 0.26088 0.0
H2582 H 0.88335 0.23574 0.31422 0.0
C2583 C 0.88637 0.17764 0.2326 0.0
H2584 H 0.9041 0.18819 0.31299 0.0
C2585 C 0.87481 0.20568 0.23338 0.0
C2586 C 0.87227 0.22761 0.26245 0.0
H2587 H 0.88711 0.16242 0.2092 0.0
H2588 H 0.86779 0.21038 0.21048 0.0
C2589 C 0.88334 0.21974 0.29099 0.0
C2590 C 0.69512 0.06909 0.06958 0.0
C2591 C 0.71459 0.10122 0.07848 0.0
H2592 H 0.65103 0.04009 0.05725 0.0
C2593 C 0.70378 0.1291 0.086 0.0
H2594 H 0.7028 0.04721 0.06358 0.0
C2595 C 0.67397 0.12498 0.0828 0.0
C2596 C 0.65447 0.09296 0.07201 0.0
H2597 H 0.71838 0.15427 0.09323 0.0
H2598 H 0.66618 0.14688 0.08745 0.0
C2599 C 0.66536 0.06507 0.06597 0.0
C2600 C 0.2987 0.52946 0.30325 0.0
C2601 C 0.29485 0.52093 0.26926 0.0
H2602 H 0.32077 0.52531 0.34696 0.0
C2603 C 0.31132 0.50195 0.25306 0.0
H2604 H 0.28639 0.54429 0.31638 0.0
C2605 C 0.33133 0.49162 0.2706 0.0
C2606 C 0.33497 0.49981 0.30462 0.0
H2607 H 0.30902 0.4954 0.22688 0.0
H2608 H 0.3441 0.47742 0.25748 0.0
C2609 C 0.31857 0.51892 0.32079 0.0
C2610 C 0.29776 0.49451 0.07746 0.0
C2611 C 0.30547 0.47241 0.05272 0.0
H2612 H 0.27219 0.5284 0.08966 0.0
C2613 C 0.29181 0.46645 0.02089 0.0
H2614 H 0.30773 0.49937 0.10228 0.0
C2615 C 0.27186 0.48342 0.01371 0.0
C2616 C 0.2647 0.50602 0.03832 0.0
H2617 H 0.29722 0.4495 1.00135 0.0
H2618 H 0.26232 0.47932 0.98883 0.0
C2619 C 0.27733 0.51093 0.07035 0.0
C2620 C 0.92062 0.95894 0.28728 0.0
C2621 C 0.90678 0.98265 0.27994 0.0
H2622 H 0.91762 0.90996 0.29497 0.0
C2623 C 0.87597 0.97119 0.27453 0.0
H2624 H 0.94407 0.96551 0.29156 0.0
C2625 C 0.86024 0.93804 0.27674 0.0
C2626 C 0.8745 0.91459 0.28418 0.0
H2627 H 0.8639 0.98786 0.26883 0.0
H2628 H 0.83681 0.93084 0.27252 0.0
C2629 C 0.90513 0.92624 0.28923 0.0
C2630 C 0.7735 0.17217 0.73228 0.0
C2631 C 0.79359 0.15429 0.73626 0.0
H2632 H 0.76497 0.21964 0.74235 0.0
C2633 C 0.82212 0.17134 0.75056 0.0
H2634 H 0.75116 0.15915 0.72195 0.0
C2635 C 0.82996 0.206 0.76241 0.0
C2636 C 0.80936 0.22359 0.75967 0.0
H2637 H 0.83754 0.15774 0.75481 0.0
H2638 H 0.85167 0.21876 0.7749 0.0
C2639 C 0.78119 0.20651 0.74438 0.0
loop_
_geom_bond_atom_site_label_1
_geom_bond_atom_site_label_2
_geom_bond_distance
_geom_bond_site_symmetry_2
_ccdc_geom_bond_type
O0 Cd1 2.223 . S
O0 C8 1.315 . S
Cd1 O0 2.223 . S
Cd1 O4 2.297 . S
Cd1 O5 2.439 . S
Cd1 O11 2.240 . S
Cd2 O3 2.240 . S
Cd2 O10 2.223 . S
Cd2 O12 2.297 . S
Cd2 O13 2.439 . S
O3 Cd2 2.240 . S
O3 C8 1.279 . S
O4 Cd1 2.297 . S
O4 C6 1.247 . S
O5 Cd1 2.439 . S
O5 C6 1.208 . S
C6 O4 1.247 . S
C6 O5 1.208 . S
C7 O12 1.247 . S
C7 O13 1.208 . S
C8 O0 1.315 . S
C8 O3 1.279 . S
C9 O10 1.315 . S
C9 O11 1.279 . S
O10 Cd2 2.223 . S
O10 C9 1.315 . S
O11 Cd1 2.240 . S
O11 C9 1.279 . S
O12 Cd2 2.297 . S
O12 C7 1.247 . S
O13 Cd2 2.439 . S
O13 C7 1.208 . S
O14 Cd15 2.223 . S
O14 C22 1.315 . S
Cd15 O14 2.223 . S
Cd15 O18 2.297 . S
Cd15 O19 2.439 . S
Cd15 O25 2.240 1_655 S
Cd16 O17 2.240 1_455 S
Cd16 O24 2.223 . S
Cd16 O26 2.297 . S
Cd16 O27 2.460 . S
O17 Cd16 2.240 1_655 S
O17 C22 1.279 . S
O18 Cd15 2.297 . S
O18 C20 1.247 . S
O19 Cd15 2.439 . S
O19 C20 1.208 . S
C20 O18 1.247 . S
C20 O19 1.208 . S
C21 O26 1.247 . S
C21 O27 1.232 . S
C22 O14 1.315 . S
C22 O17 1.279 . S
C23 O24 1.315 . S
C23 O25 1.279 . S
O24 Cd16 2.223 . S
O24 C23 1.315 . S
O25 Cd15 2.240 1_455 S
O25 C23 1.279 . S
O26 Cd16 2.297 . S
O26 C21 1.247 . S
O27 Cd16 2.460 . S
O27 C21 1.232 . S
O28 Cd29 2.223 . S
O28 C36 1.315 . S
Cd29 O28 2.223 . S
Cd29 O32 2.297 . S
Cd29 O33 2.439 . S
Cd29 O39 2.240 . S
Cd30 O31 2.240 . S
Cd30 O38 2.223 . S
Cd30 O40 2.297 . S
Cd30 O41 2.439 . S
O31 Cd30 2.240 . S
O31 C36 1.279 . S
O32 Cd29 2.297 . S
O32 C34 1.247 . S
O33 Cd29 2.439 . S
O33 C34 1.208 . S
C34 O32 1.247 . S
C34 O33 1.208 . S
C35 O40 1.247 . S
C35 O41 1.208 . S
C36 O28 1.315 . S
C36 O31 1.279 . S
C37 O38 1.315 . S
C37 O39 1.279 . S
O38 Cd30 2.223 . S
O38 C37 1.315 . S
O39 Cd29 2.240 . S
O39 C37 1.279 . S
O40 Cd30 2.297 . S
O40 C35 1.247 . S
O41 Cd30 2.439 . S
O41 C35 1.208 . S
O42 Cd43 2.223 . S
O42 C50 1.315 . S
Cd43 O42 2.223 . S
Cd43 O46 2.297 . S
Cd43 O47 2.439 . S
Cd43 O53 2.240 . S
Cd44 O45 2.240 . S
Cd44 O52 2.223 . S
Cd44 O54 2.297 . S
Cd44 O55 2.439 . S
O45 Cd44 2.240 . S
O45 C50 1.279 . S
O46 Cd43 2.297 . S
O46 C48 1.247 . S
O47 Cd43 2.439 . S
O47 C48 1.208 . S
C48 O46 1.247 . S
C48 O47 1.208 . S
C49 O54 1.247 . S
C49 O55 1.208 . S
C50 O42 1.315 . S
C50 O45 1.279 . S
C51 O52 1.315 . S
C51 O53 1.279 . S
O52 Cd44 2.223 . S
O52 C51 1.315 . S
O53 Cd43 2.240 . S
O53 C51 1.279 . S
O54 Cd44 2.297 . S
O54 C49 1.247 . S
O55 Cd44 2.439 . S
O55 C49 1.208 . S
O56 Cd57 2.223 . S
O56 C64 1.315 . S
Cd57 O56 2.223 . S
Cd57 O60 2.297 . S
Cd57 O61 2.439 . S
Cd57 O67 2.240 . S
Cd58 O59 2.240 . S
Cd58 O66 2.223 . S
Cd58 O68 2.297 . S
Cd58 O69 2.439 . S
O59 Cd58 2.240 . S
O59 C64 1.279 . S
O60 Cd57 2.297 . S
O60 C62 1.247 . S
O61 Cd57 2.439 . S
O61 C62 1.208 . S
C62 O60 1.247 . S
C62 O61 1.208 . S
C63 O68 1.247 . S
C63 O69 1.208 . S
C64 O56 1.315 . S
C64 O59 1.279 . S
C65 O66 1.315 . S
C65 O67 1.279 . S
O66 Cd58 2.223 . S
O66 C65 1.315 . S
O67 Cd57 2.240 . S
O67 C65 1.279 . S
O68 Cd58 2.297 . S
O68 C63 1.247 . S
O69 Cd58 2.439 . S
O69 C63 1.208 . S
O70 Cd71 2.223 . S
O70 C78 1.315 . S
Cd71 O70 2.223 . S
Cd71 O74 2.297 . S
Cd71 O75 2.439 . S
Cd71 O81 2.240 . S
Cd72 O73 2.240 . S
Cd72 O80 2.223 . S
Cd72 O82 2.297 . S
Cd72 O83 2.439 . S
O73 Cd72 2.240 . S
O73 C78 1.279 . S
O74 Cd71 2.297 . S
O74 C76 1.247 . S
O75 Cd71 2.439 . S
O75 C76 1.208 . S
C76 O74 1.247 . S
C76 O75 1.208 . S
C77 O82 1.247 . S
C77 O83 1.208 . S
C78 O70 1.315 . S
C78 O73 1.279 . S
C79 O80 1.315 . S
C79 O81 1.279 . S
O80 Cd72 2.223 . S
O80 C79 1.315 . S
O81 Cd71 2.240 . S
O81 C79 1.279 . S
O82 Cd72 2.297 . S
O82 C77 1.247 . S
O83 Cd72 2.439 . S
O83 C77 1.208 . S
O84 Cd85 2.223 . S
O84 C92 1.315 . S
Cd85 O84 2.223 . S
Cd85 O88 2.297 . S
Cd85 O89 2.439 . S
Cd85 O95 2.240 . S
Cd86 O87 2.240 . S
Cd86 O94 2.223 . S
Cd86 O96 2.297 . S
Cd86 O97 2.439 . S
O87 Cd86 2.240 . S
O87 C92 1.279 . S
O88 Cd85 2.297 . S
O88 C90 1.247 . S
O89 Cd85 2.439 . S
O89 C90 1.208 . S
C90 O88 1.247 . S
C90 O89 1.208 . S
C91 O96 1.247 . S
C91 O97 1.208 . S
C92 O84 1.315 . S
C92 O87 1.279 . S
C93 O94 1.315 . S
C93 O95 1.279 . S
O94 Cd86 2.223 . S
O94 C93 1.315 . S
O95 Cd85 2.240 . S
O95 C93 1.279 . S
O96 Cd86 2.297 . S
O96 C91 1.247 . S
O97 Cd86 2.439 . S
O97 C91 1.208 . S
O98 Cd99 2.223 . S
O98 C106 1.315 . S
Cd99 O98 2.223 . S
Cd99 O102 2.297 . S
Cd99 O103 2.439 . S
Cd99 O109 2.240 . S
Cd100 O101 2.240 . S
Cd100 O108 2.223 1_455 S
Cd100 O110 2.297 1_556 S
Cd100 O111 2.439 . S
O101 Cd100 2.240 . S
O101 C106 1.279 . S
O102 Cd99 2.297 . S
O102 C104 1.247 . S
O103 Cd99 2.439 . S
O103 C104 1.208 . S
C104 O102 1.247 . S
C104 O103 1.208 . S
C105 O110 1.247 1_556 S
C105 O111 1.208 . S
C106 O98 1.315 . S
C106 O101 1.279 . S
C107 O108 1.315 . S
C107 O109 1.279 1_655 S
O108 Cd100 2.223 1_655 S
O108 C107 1.315 . S
O109 Cd99 2.240 . S
O109 C107 1.279 1_455 S
O110 Cd100 2.297 1_554 S
O110 C105 1.247 1_554 S
O111 Cd100 2.439 . S
O111 C105 1.208 . S
O112 Cd113 2.223 1_565 S
O112 C120 1.315 1_565 S
Cd113 O112 2.223 1_545 S
Cd113 O116 2.297 . S
Cd113 O117 2.439 . S
Cd113 O123 2.240 1_545 S
Cd114 O115 2.240 . S
Cd114 O122 2.223 1_545 S
Cd114 O124 2.297 1_545 S
Cd114 O125 2.439 . S
O115 Cd114 2.240 . S
O115 C120 1.279 . S
O116 Cd113 2.297 . S
O116 C118 1.247 . S
O117 Cd113 2.439 . S
O117 C118 1.208 . S
C118 O116 1.247 . S
C118 O117 1.208 . S
C119 O124 1.247 1_545 S
C119 O125 1.208 . S
C120 O112 1.315 1_545 S
C120 O115 1.279 . S
C121 O122 1.315 . S
C121 O123 1.279 . S
O122 Cd114 2.223 1_565 S
O122 C121 1.315 . S
O123 Cd113 2.240 1_565 S
O123 C121 1.279 . S
O124 Cd114 2.297 1_565 S
O124 C119 1.247 1_565 S
O125 Cd114 2.439 . S
O125 C119 1.208 . S
O126 Cd127 2.223 . S
O126 C134 1.315 . S
Cd127 O126 2.223 . S
Cd127 O130 2.297 . S
Cd127 O131 2.439 . S
Cd127 O137 2.240 . S
Cd128 O129 2.240 . S
Cd128 O136 2.223 . S
Cd128 O138 2.297 . S
Cd128 O139 2.439 . S
O129 Cd128 2.240 . S
O129 C134 1.279 . S
O130 Cd127 2.297 . S
O130 C132 1.247 . S
O131 Cd127 2.439 . S
O131 C132 1.208 . S
C132 O130 1.247 . S
C132 O131 1.208 . S
C133 O138 1.247 . S
C133 O139 1.208 . S
C134 O126 1.315 . S
C134 O129 1.279 . S
C135 O136 1.315 . S
C135 O137 1.279 . S
O136 Cd128 2.223 . S
O136 C135 1.315 . S
O137 Cd127 2.240 . S
O137 C135 1.279 . S
O138 Cd128 2.297 . S
O138 C133 1.247 . S
O139 Cd128 2.439 . S
O139 C133 1.208 . S
O140 Cd141 2.223 1_545 S
O140 C148 1.315 1_545 S
Cd141 O140 2.223 1_565 S
Cd141 O144 2.297 . S
Cd141 O145 2.439 . S
Cd141 O151 2.240 1_565 S
Cd142 O143 2.240 1_545 S
Cd142 O150 2.223 . S
Cd142 O152 2.297 . S
Cd142 O153 2.439 1_545 S
O143 Cd142 2.240 1_565 S
O143 C148 1.279 . S
O144 Cd141 2.297 . S
O144 C146 1.247 . S
O145 Cd141 2.439 . S
O145 C146 1.208 . S
C146 O144 1.247 . S
C146 O145 1.208 . S
C147 O152 1.247 . S
C147 O153 1.208 1_545 S
C148 O140 1.315 1_565 S
C148 O143 1.279 . S
C149 O150 1.315 . S
C149 O151 1.279 . S
O150 Cd142 2.223 . S
O150 C149 1.315 . S
O151 Cd141 2.240 1_545 S
O151 C149 1.279 . S
O152 Cd142 2.297 . S
O152 C147 1.247 . S
O153 Cd142 2.439 1_565 S
O153 C147 1.208 1_565 S
O154 Cd155 2.223 . S
O154 C162 1.315 . S
Cd155 O154 2.223 . S
Cd155 O158 2.297 . S
Cd155 O159 2.439 1_554 S
Cd155 O165 2.227 1_554 S
Cd156 O157 2.240 1_556 S
Cd156 O164 2.223 1_556 S
Cd156 O166 2.297 . S
Cd156 O167 2.439 . S
O157 Cd156 2.240 1_554 S
O157 C162 1.279 . S
O158 Cd155 2.297 . S
O158 C160 1.247 . S
O159 Cd155 2.439 1_556 S
O159 C160 1.208 1_556 S
C160 O158 1.247 . S
C160 O159 1.208 1_554 S
C161 O166 1.247 . S
C161 O167 1.208 . S
C162 O154 1.315 . S
C162 O157 1.279 . S
C163 O164 1.315 . S
C163 O165 1.271 1_554 S
O164 Cd156 2.223 1_554 S
O164 C163 1.315 . S
O165 Cd155 2.227 1_556 S
O165 C163 1.271 1_556 S
O166 Cd156 2.297 . S
O166 C161 1.247 . S
O167 Cd156 2.439 . S
O167 C161 1.208 . S
O168 Cd169 2.223 . S
O168 C176 1.315 . S
Cd169 O168 2.223 . S
Cd169 O172 2.297 . S
Cd169 O173 2.439 . S
Cd169 O179 2.240 . S
Cd170 O171 2.240 . S
Cd170 O178 2.223 . S
Cd170 O180 2.297 1_554 S
Cd170 O181 2.439 1_554 S
O171 Cd170 2.240 . S
O171 C176 1.279 . S
O172 Cd169 2.297 . S
O172 C174 1.247 . S
O173 Cd169 2.439 . S
O173 C174 1.208 . S
C174 O172 1.247 . S
C174 O173 1.208 . S
C175 O180 1.247 . S
C175 O181 1.208 . S
C176 O168 1.315 . S
C176 O171 1.279 . S
C177 O178 1.315 . S
C177 O179 1.279 . S
O178 Cd170 2.223 . S
O178 C177 1.315 . S
O179 Cd169 2.240 . S
O179 C177 1.279 . S
O180 Cd170 2.297 1_556 S
O180 C175 1.247 . S
O181 Cd170 2.439 1_556 S
O181 C175 1.208 . S
O182 Cd183 2.223 . S
O182 C190 1.315 . S
Cd183 O182 2.223 . S
Cd183 O186 2.297 . S
Cd183 O187 2.439 . S
Cd183 O193 2.240 . S
Cd184 O185 2.240 . S
Cd184 O192 2.223 . S
Cd184 O194 2.297 1_554 S
Cd184 O195 2.439 1_554 S
O185 Cd184 2.240 . S
O185 C190 1.279 . S
O186 Cd183 2.297 . S
O186 C188 1.247 . S
O187 Cd183 2.439 . S
O187 C188 1.208 . S
C188 O186 1.247 . S
C188 O187 1.208 . S
C189 O194 1.247 . S
C189 O195 1.208 . S
C190 O182 1.315 . S
C190 O185 1.279 . S
C191 O192 1.315 . S
C191 O193 1.279 . S
O192 Cd184 2.223 . S
O192 C191 1.315 . S
O193 Cd183 2.240 . S
O193 C191 1.279 . S
O194 Cd184 2.297 1_556 S
O194 C189 1.247 . S
O195 Cd184 2.439 1_556 S
O195 C189 1.208 . S
O196 Cd197 2.223 . S
O196 C204 1.315 . S
Cd197 O196 2.223 . S
Cd197 O200 2.297 . S
Cd197 O201 2.439 . S
Cd197 O207 2.240 . S
Cd198 O199 2.240 . S
Cd198 O206 2.223 . S
Cd198 O208 2.297 . S
Cd198 O209 2.439 . S
O199 Cd198 2.240 . S
O199 C204 1.279 . S
O200 Cd197 2.297 . S
O200 C202 1.247 . S
O201 Cd197 2.439 . S
O201 C202 1.208 . S
C202 O200 1.247 . S
C202 O201 1.208 . S
C203 O208 1.247 . S
C203 O209 1.208 . S
C204 O196 1.315 . S
C204 O199 1.279 . S
C205 O206 1.315 . S
C205 O207 1.279 . S
O206 Cd198 2.223 . S
O206 C205 1.315 . S
O207 Cd197 2.240 . S
O207 C205 1.279 . S
O208 Cd198 2.297 . S
O208 C203 1.247 . S
O209 Cd198 2.439 . S
O209 C203 1.208 . S
O210 Cd211 2.223 . S
O210 C218 1.315 . S
Cd211 O210 2.223 . S
Cd211 O214 2.297 . S
Cd211 O215 2.439 . S
Cd211 O221 2.240 . S
Cd212 O213 2.240 . S
Cd212 O220 2.223 . S
Cd212 O222 2.297 . S
Cd212 O223 2.439 . S
O213 Cd212 2.240 . S
O213 C218 1.279 . S
O214 Cd211 2.297 . S
O214 C216 1.247 . S
O215 Cd211 2.439 . S
O215 C216 1.208 . S
C216 O214 1.247 . S
C216 O215 1.208 . S
C217 O222 1.247 . S
C217 O223 1.208 . S
C218 O210 1.315 . S
C218 O213 1.279 . S
C219 O220 1.315 . S
C219 O221 1.279 . S
O220 Cd212 2.223 . S
O220 C219 1.315 . S
O221 Cd211 2.240 . S
O221 C219 1.279 . S
O222 Cd212 2.297 . S
O222 C217 1.247 . S
O223 Cd212 2.439 . S
O223 C217 1.208 . S
O224 Cd225 2.223 . S
O224 C232 1.315 . S
Cd225 O224 2.223 . S
Cd225 O228 2.297 . S
Cd225 O229 2.439 . S
Cd225 O235 2.240 . S
Cd226 O227 2.245 . S
Cd226 O234 2.226 . S
Cd226 O236 2.295 1_655 S
Cd226 O237 2.444 . S
O227 Cd226 2.245 . S
O227 C232 1.279 . S
O228 Cd225 2.297 . S
O228 C230 1.247 . S
O229 Cd225 2.439 . S
O229 C230 1.208 . S
C230 O228 1.247 . S
C230 O229 1.208 . S
C231 O236 1.247 1_655 S
C231 O237 1.208 . S
C232 O224 1.315 . S
C232 O227 1.279 . S
C233 O234 1.315 . S
C233 O235 1.279 . S
O234 Cd226 2.226 . S
O234 C233 1.315 . S
O235 Cd225 2.240 . S
O235 C233 1.279 . S
O236 Cd226 2.295 1_455 S
O236 C231 1.247 1_455 S
O237 Cd226 2.444 . S
O237 C231 1.208 . S
O238 Cd239 2.223 . S
O238 C246 1.315 . S
Cd239 O238 2.223 . S
Cd239 O242 2.297 . S
Cd239 O243 2.439 . S
Cd239 O249 2.240 . S
Cd240 O241 2.240 . S
Cd240 O248 2.223 . S
Cd240 O250 2.297 . S
Cd240 O251 2.439 . S
O241 Cd240 2.240 . S
O241 C246 1.279 . S
O242 Cd239 2.297 . S
O242 C244 1.247 . S
O243 Cd239 2.439 . S
O243 C244 1.208 . S
C244 O242 1.247 . S
C244 O243 1.208 . S
C245 O250 1.247 . S
C245 O251 1.208 . S
C246 O238 1.315 . S
C246 O241 1.279 . S
C247 O248 1.315 . S
C247 O249 1.279 . S
O248 Cd240 2.223 . S
O248 C247 1.315 . S
O249 Cd239 2.240 . S
O249 C247 1.279 . S
O250 Cd240 2.297 . S
O250 C245 1.247 . S
O251 Cd240 2.439 . S
O251 C245 1.208 . S
O252 Cd253 2.223 . S
O252 C260 1.315 . S
Cd253 O252 2.223 . S
Cd253 O256 2.297 . S
Cd253 O257 2.439 . S
Cd253 O263 2.240 . S
Cd254 O255 2.240 . S
Cd254 O262 2.223 . S
Cd254 O264 2.297 . S
Cd254 O265 2.439 . S
O255 Cd254 2.240 . S
O255 C260 1.279 . S
O256 Cd253 2.297 . S
O256 C258 1.247 . S
O257 Cd253 2.439 . S
O257 C258 1.208 . S
C258 O256 1.247 . S
C258 O257 1.208 . S
C259 O264 1.247 . S
C259 O265 1.208 . S
C260 O252 1.315 . S
C260 O255 1.279 . S
C261 O262 1.315 . S
C261 O263 1.279 . S
O262 Cd254 2.223 . S
O262 C261 1.315 . S
O263 Cd253 2.240 . S
O263 C261 1.279 . S
O264 Cd254 2.297 . S
O264 C259 1.247 . S
O265 Cd254 2.439 . S
O265 C259 1.208 . S
O266 Cd267 2.223 . S
O266 C274 1.315 . S
Cd267 O266 2.223 . S
Cd267 O270 2.297 . S
Cd267 O271 2.439 . S
Cd267 O277 2.240 . S
Cd268 O269 2.240 . S
Cd268 O276 2.223 . S
Cd268 O278 2.297 . S
Cd268 O279 2.439 . S
O269 Cd268 2.240 . S
O269 C274 1.279 . S
O270 Cd267 2.297 . S
O270 C272 1.247 . S
O271 Cd267 2.439 . S
O271 C272 1.208 . S
C272 O270 1.247 . S
C272 O271 1.208 . S
C273 O278 1.247 . S
C273 O279 1.208 . S
C274 O266 1.315 . S
C274 O269 1.279 . S
C275 O276 1.315 . S
C275 O277 1.279 . S
O276 Cd268 2.223 . S
O276 C275 1.315 . S
O277 Cd267 2.240 . S
O277 C275 1.279 . S
O278 Cd268 2.297 . S
O278 C273 1.247 . S
O279 Cd268 2.439 . S
O279 C273 1.208 . S
O280 Cd281 2.223 . S
O280 C288 1.315 . S
Cd281 O280 2.223 . S
Cd281 O284 2.297 . S
Cd281 O285 2.439 . S
Cd281 O291 2.240 1_554 S
Cd282 O283 2.240 . S
Cd282 O290 2.223 . S
Cd282 O292 2.297 1_554 S
Cd282 O293 2.439 1_554 S
O283 Cd282 2.240 . S
O283 C288 1.279 . S
O284 Cd281 2.297 . S
O284 C286 1.247 . S
O285 Cd281 2.439 . S
O285 C286 1.208 . S
C286 O284 1.247 . S
C286 O285 1.208 . S
C287 O292 1.247 . S
C287 O293 1.208 . S
C288 O280 1.315 . S
C288 O283 1.279 . S
C289 O290 1.315 . S
C289 O291 1.279 1_554 S
O290 Cd282 2.223 . S
O290 C289 1.315 . S
O291 Cd281 2.240 1_556 S
O291 C289 1.279 1_556 S
O292 Cd282 2.297 1_556 S
O292 C287 1.247 . S
O293 Cd282 2.439 1_556 S
O293 C287 1.208 . S
O294 Cd295 2.223 . S
O294 C302 1.315 . S
Cd295 O294 2.223 . S
Cd295 O298 2.297 . S
Cd295 O299 2.439 . S
Cd295 O305 2.240 . S
Cd296 O297 2.240 . S
Cd296 O304 2.223 . S
Cd296 O306 2.297 . S
Cd296 O307 2.439 . S
O297 Cd296 2.240 . S
O297 C302 1.279 . S
O298 Cd295 2.297 . S
O298 C300 1.247 . S
O299 Cd295 2.439 . S
O299 C300 1.208 . S
C300 O298 1.247 . S
C300 O299 1.208 . S
C301 O306 1.247 . S
C301 O307 1.208 . S
C302 O294 1.315 . S
C302 O297 1.279 . S
C303 O304 1.315 . S
C303 O305 1.279 . S
O304 Cd296 2.223 . S
O304 C303 1.315 . S
O305 Cd295 2.240 . S
O305 C303 1.279 . S
O306 Cd296 2.297 . S
O306 C301 1.247 . S
O307 Cd296 2.439 . S
O307 C301 1.208 . S
O308 Cd309 2.223 . S
O308 C316 1.315 . S
Cd309 O308 2.223 . S
Cd309 O312 2.297 . S
Cd309 O313 2.439 . S
Cd309 O319 2.240 . S
Cd310 O311 2.240 . S
Cd310 O318 2.223 . S
Cd310 O320 2.297 . S
Cd310 O321 2.439 . S
O311 Cd310 2.240 . S
O311 C316 1.279 . S
O312 Cd309 2.297 . S
O312 C314 1.247 . S
O313 Cd309 2.439 . S
O313 C314 1.208 . S
C314 O312 1.247 . S
C314 O313 1.208 . S
C315 O320 1.247 . S
C315 O321 1.208 . S
C316 O308 1.315 . S
C316 O311 1.279 . S
C317 O318 1.315 . S
C317 O319 1.279 . S
O318 Cd310 2.223 . S
O318 C317 1.315 . S
O319 Cd309 2.240 . S
O319 C317 1.279 . S
O320 Cd310 2.297 . S
O320 C315 1.247 . S
O321 Cd310 2.439 . S
O321 C315 1.208 . S
O322 Cd323 2.223 . S
O322 C330 1.315 . S
Cd323 O322 2.223 . S
Cd323 O326 2.297 . S
Cd323 O327 2.439 . S
Cd323 O333 2.240 . S
Cd324 O325 2.240 . S
Cd324 O332 2.223 . S
Cd324 O334 2.297 . S
Cd324 O335 2.439 . S
O325 Cd324 2.240 . S
O325 C330 1.279 . S
O326 Cd323 2.297 . S
O326 C328 1.247 . S
O327 Cd323 2.439 . S
O327 C328 1.208 . S
C328 O326 1.247 . S
C328 O327 1.208 . S
C329 O334 1.247 . S
C329 O335 1.208 . S
C330 O322 1.315 . S
C330 O325 1.279 . S
C331 O332 1.315 . S
C331 O333 1.279 . S
O332 Cd324 2.223 . S
O332 C331 1.315 . S
O333 Cd323 2.240 . S
O333 C331 1.279 . S
O334 Cd324 2.297 . S
O334 C329 1.247 . S
O335 Cd324 2.439 . S
O335 C329 1.208 . S
Eu336 N367 2.657 1_545 S
Eu336 N374 2.609 1_544 S
Eu336 O380 2.558 1_454 S
Eu336 O381 2.612 . S
Eu336 O383 2.339 . S
Eu336 O384 2.563 . S
Eu336 O385 2.419 1_455 S
Eu336 O387 2.380 . S
Eu336 O388 2.432 1_554 S
Eu336 C400 2.848 1_454 S
C337 C340 1.429 . S
C337 C341 1.411 . S
C337 N344 1.377 . S
C338 C340 1.420 . S
C338 C342 1.423 . S
C338 C350 1.392 . S
C339 C341 1.420 . S
C339 C342 1.351 . S
C339 H362 0.931 . S
C340 C337 1.429 . S
C340 C338 1.420 . S
C340 N348 1.362 . S
C341 C337 1.411 . S
C341 C339 1.420 . S
C341 C346 1.395 . S
C342 C338 1.423 . S
C342 C339 1.351 . S
C342 H354 0.930 . S
C343 C345 1.400 . S
C343 C346 1.386 . S
C343 H355 0.930 . S
N344 C337 1.377 . S
N344 C345 1.321 . S
N344 Eu347 2.609 . S
C345 C343 1.400 . S
C345 N344 1.321 . S
C345 H352 0.930 . S
C346 C341 1.395 . S
C346 C343 1.386 . S
C346 H365 0.930 . S
Eu347 N344 2.609 . S
Eu347 N348 2.657 . S
Eu347 O381 2.380 . S
Eu347 O382 2.432 . S
Eu347 O386 2.558 . S
Eu347 O387 2.612 . S
Eu347 O389 2.318 1_554 S
Eu347 O390 2.563 . S
Eu347 O391 2.419 . S
Eu347 C411 2.848 . S
N348 C340 1.362 . S
N348 Eu347 2.657 . S
N348 C349 1.334 . S
C349 N348 1.334 . S
C349 C351 1.413 1_554 S
C349 H356 0.929 1_554 S
C350 C338 1.392 . S
C350 C351 1.367 1_554 S
C350 H358 0.930 . S
C351 C349 1.413 1_556 S
C351 C350 1.367 1_556 S
C351 H353 0.930 . S
H352 C345 0.930 . S
H353 C351 0.930 . S
H354 C342 0.930 . S
H355 C343 0.930 . S
H356 C349 0.929 1_556 S
H357 C371 0.930 . S
H358 C350 0.930 . S
H359 C377 0.930 . S
H360 C368 0.929 . S
H361 C375 0.930 . S
H362 C339 0.931 . S
H363 C369 0.930 . S
H364 C402 0.930 . S
H365 C346 0.930 . S
H366 C401 0.931 . S
N367 Eu336 2.657 1_565 S
N367 C368 1.334 . S
N367 C372 1.362 . S
C368 H360 0.929 . S
C368 N367 1.334 . S
C368 C371 1.413 . S
C369 H363 0.930 . S
C369 C370 1.392 . S
C369 C371 1.367 1_655 S
C370 C369 1.392 . S
C370 C372 1.420 1_655 S
C370 C402 1.423 . S
C371 H357 0.930 . S
C371 C368 1.413 . S
C371 C369 1.367 1_455 S
C372 N367 1.362 . S
C372 C370 1.420 1_455 S
C372 C376 1.429 1_554 S
H373 C378 0.930 . S
N374 Eu336 2.609 1_566 S
N374 C376 1.377 . S
N374 C377 1.321 . S
C375 H361 0.930 . S
C375 C377 1.400 1_655 S
C375 C378 1.386 . S
C376 C372 1.429 1_556 S
C376 N374 1.377 . S
C376 C379 1.411 1_455 S
C377 H359 0.930 . S
C377 N374 1.321 . S
C377 C375 1.400 1_455 S
C378 H373 0.930 . S
C378 C375 1.386 . S
C378 C379 1.395 . S
C379 C376 1.411 1_655 S
C379 C378 1.395 . S
C379 C401 1.420 . S
O380 Eu336 2.558 1_656 S
O380 C400 1.257 . S
O381 Eu336 2.612 . S
O381 Eu347 2.380 . S
O381 C392 1.276 . S
O382 Eu347 2.432 . S
O382 C399 1.264 . S
O383 Eu336 2.339 . S
O383 C399 1.254 . S
O384 Eu336 2.563 . S
O384 C392 1.235 . S
O385 Eu336 2.419 1_655 S
O385 C400 1.249 1_554 S
O386 Eu347 2.558 . S
O386 C411 1.257 . S
O387 Eu336 2.380 . S
O387 Eu347 2.612 . S
O387 C403 1.276 1_545 S
O388 Eu336 2.432 1_556 S
O388 C410 1.264 . S
O389 Eu347 2.318 1_556 S
O389 C410 1.267 . S
O390 Eu347 2.563 . S
O390 C403 1.235 1_545 S
O391 Eu347 2.419 . S
O391 C411 1.249 . S
C392 O381 1.276 . S
C392 O384 1.235 . S
C393 C395 1.393 1_556 S
C393 C397 1.395 . S
C393 C400 1.492 . S
C394 C395 1.392 . S
C394 C396 1.386 1_554 S
C395 C393 1.393 1_554 S
C395 C394 1.392 . S
C395 H412 0.930 . S
C396 C394 1.386 1_556 S
C396 C398 1.395 . S
C396 H413 0.930 . S
C397 C393 1.395 . S
C397 C398 1.379 . S
C397 H414 0.930 1_545 S
C398 C396 1.395 . S
C398 C397 1.379 . S
C398 H415 0.930 . S
C399 O382 1.264 . S
C399 O383 1.254 . S
C400 Eu336 2.848 1_656 S
C400 O380 1.257 . S
C400 O385 1.249 1_556 S
C400 C393 1.492 . S
C401 H366 0.931 . S
C401 C379 1.420 . S
C401 C402 1.351 1_556 S
C402 H364 0.930 . S
C402 C370 1.423 . S
C402 C401 1.351 1_554 S
C403 O387 1.276 1_565 S
C403 O390 1.235 1_565 S
C404 C405 1.393 . S
C404 C408 1.395 . S
C404 C411 1.492 . S
C405 C404 1.393 . S
C405 C406 1.392 . S
C405 H416 0.930 . S
C406 C405 1.392 . S
C406 C407 1.386 . S
C407 C406 1.386 . S
C407 C409 1.395 . S
C407 H417 0.930 . S
C408 C404 1.395 . S
C408 C409 1.379 . S
C408 H418 0.930 . S
C409 C407 1.395 . S
C409 C408 1.379 . S
C409 H419 0.930 . S
C410 O388 1.264 . S
C410 O389 1.267 . S
C411 Eu347 2.848 . S
C411 O386 1.257 . S
C411 O391 1.249 . S
C411 C404 1.492 . S
H412 C395 0.930 . S
H413 C396 0.930 . S
H414 C397 0.930 1_565 S
H415 C398 0.930 . S
H416 C405 0.930 . S
H417 C407 0.930 . S
H418 C408 0.930 . S
H419 C409 0.930 . S
Eu420 N451 2.657 . S
Eu420 N458 2.609 . S
Eu420 O464 2.558 . S
Eu420 O465 2.612 . S
Eu420 O467 2.339 . S
Eu420 O468 2.563 . S
Eu420 O469 2.419 . S
Eu420 O471 2.380 . S
Eu420 O472 2.432 . S
Eu420 C484 2.848 . S
C421 C424 1.429 . S
C421 C425 1.411 . S
C421 N428 1.377 . S
C422 C424 1.420 . S
C422 C426 1.423 . S
C422 C434 1.392 . S
C423 C425 1.420 . S
C423 C426 1.351 . S
C423 H446 0.931 . S
C424 C421 1.429 . S
C424 C422 1.420 . S
C424 N432 1.362 . S
C425 C421 1.411 . S
C425 C423 1.420 . S
C425 C430 1.395 . S
C426 C422 1.423 . S
C426 C423 1.351 . S
C426 H438 0.930 . S
C427 C429 1.400 . S
C427 C430 1.386 . S
C427 H439 0.930 . S
N428 C421 1.377 . S
N428 C429 1.321 . S
N428 Eu431 2.609 . S
C429 C427 1.400 . S
C429 N428 1.321 . S
C429 H436 0.930 . S
C430 C425 1.395 . S
C430 C427 1.386 . S
C430 H449 0.930 . S
Eu431 N428 2.609 . S
Eu431 N432 2.657 . S
Eu431 O465 2.380 . S
Eu431 O466 2.432 . S
Eu431 O470 2.558 . S
Eu431 O471 2.612 . S
Eu431 O473 2.339 . S
Eu431 O474 2.563 . S
Eu431 O475 2.419 . S
Eu431 C495 2.848 . S
N432 C424 1.362 . S
N432 Eu431 2.657 . S
N432 C433 1.334 . S
C433 N432 1.334 . S
C433 C435 1.413 . S
C433 H440 0.929 . S
C434 C422 1.392 . S
C434 C435 1.367 . S
C434 H442 0.930 . S
C435 C433 1.413 . S
C435 C434 1.367 . S
C435 H437 0.930 . S
H436 C429 0.930 . S
H437 C435 0.930 . S
H438 C426 0.930 . S
H439 C427 0.930 . S
H440 C433 0.929 . S
H441 C455 0.930 . S
H442 C434 0.930 . S
H443 C461 0.930 . S
H444 C452 0.929 . S
H445 C459 0.930 . S
H446 C423 0.931 . S
H447 C453 0.930 . S
H448 C486 0.930 . S
H449 C430 0.930 . S
H450 C485 0.931 . S
N451 Eu420 2.657 . S
N451 C452 1.334 . S
N451 C456 1.362 . S
C452 H444 0.929 . S
C452 N451 1.334 . S
C452 C455 1.413 . S
C453 H447 0.930 . S
C453 C454 1.392 . S
C453 C455 1.367 . S
C454 C453 1.392 . S
C454 C456 1.420 . S
C454 C486 1.423 . S
C455 H441 0.930 . S
C455 C452 1.413 . S
C455 C453 1.367 . S
C456 N451 1.362 . S
C456 C454 1.420 . S
C456 C460 1.429 . S
H457 C462 0.930 . S
N458 Eu420 2.609 . S
N458 C460 1.377 . S
N458 C461 1.321 . S
C459 H445 0.930 . S
C459 C461 1.400 . S
C459 C462 1.386 . S
C460 C456 1.429 . S
C460 N458 1.377 . S
C460 C463 1.411 . S
C461 H443 0.930 . S
C461 N458 1.321 . S
C461 C459 1.400 . S
C462 H457 0.930 . S
C462 C459 1.386 . S
C462 C463 1.395 . S
C463 C460 1.411 . S
C463 C462 1.395 . S
C463 C485 1.420 . S
O464 Eu420 2.558 . S
O464 C484 1.257 . S
O465 Eu420 2.612 . S
O465 Eu431 2.380 . S
O465 C476 1.276 . S
O466 Eu431 2.432 . S
O466 C483 1.264 . S
O467 Eu420 2.339 . S
O467 C483 1.254 . S
O468 Eu420 2.563 . S
O468 C476 1.235 . S
O469 Eu420 2.419 . S
O469 C484 1.249 . S
O470 Eu431 2.558 . S
O470 C495 1.257 . S
O471 Eu420 2.380 . S
O471 Eu431 2.612 . S
O471 C487 1.276 . S
O472 Eu420 2.432 . S
O472 C494 1.264 . S
O473 Eu431 2.339 . S
O473 C494 1.254 . S
O474 Eu431 2.563 . S
O474 C487 1.235 . S
O475 Eu431 2.419 . S
O475 C495 1.249 . S
C476 O465 1.276 . S
C476 O468 1.235 . S
C477 C479 1.393 . S
C477 C481 1.395 . S
C477 C484 1.492 . S
C478 C479 1.392 . S
C478 C480 1.386 . S
C479 C477 1.393 . S
C479 C478 1.392 . S
C479 H496 0.930 . S
C480 C478 1.386 . S
C480 C482 1.395 . S
C480 H497 0.930 . S
C481 C477 1.395 . S
C481 C482 1.379 . S
C481 H498 0.930 . S
C482 C480 1.395 . S
C482 C481 1.379 . S
C482 H499 0.930 . S
C483 O466 1.264 . S
C483 O467 1.254 . S
C484 Eu420 2.848 . S
C484 O464 1.257 . S
C484 O469 1.249 . S
C484 C477 1.492 . S
C485 H450 0.931 . S
C485 C463 1.420 . S
C485 C486 1.351 . S
C486 H448 0.930 . S
C486 C454 1.423 . S
C486 C485 1.351 . S
C487 O471 1.276 . S
C487 O474 1.235 . S
C488 C489 1.393 . S
C488 C492 1.395 . S
C488 C495 1.492 . S
C489 C488 1.393 . S
C489 C490 1.392 . S
C489 H500 0.930 . S
C490 C489 1.392 . S
C490 C491 1.386 . S
C491 C490 1.386 . S
C491 C493 1.395 . S
C491 H501 0.930 . S
C492 C488 1.395 . S
C492 C493 1.379 . S
C492 H502 0.930 . S
C493 C491 1.395 . S
C493 C492 1.379 . S
C493 H503 0.930 . S
C494 O472 1.264 . S
C494 O473 1.254 . S
C495 Eu431 2.848 . S
C495 O470 1.257 . S
C495 O475 1.249 . S
C495 C488 1.492 . S
H496 C479 0.930 . S
H497 C480 0.930 . S
H498 C481 0.930 . S
H499 C482 0.930 . S
H500 C489 0.930 . S
H501 C491 0.930 . S
H502 C492 0.930 . S
H503 C493 0.930 . S
Eu504 N535 2.657 . S
Eu504 N542 2.609 . S
Eu504 O548 2.558 . S
Eu504 O549 2.620 . S
Eu504 O551 2.339 . S
Eu504 O552 2.563 1_545 S
Eu504 O553 2.419 . S
Eu504 O555 2.380 . S
Eu504 O556 2.432 . S
Eu504 C568 2.848 . S
C505 C508 1.429 . S
C505 C509 1.411 . S
C505 N512 1.377 . S
C506 C508 1.420 . S
C506 C510 1.423 . S
C506 C518 1.392 . S
C507 C509 1.420 . S
C507 C510 1.351 . S
C507 H530 0.931 . S
C508 C505 1.429 . S
C508 C506 1.420 . S
C508 N516 1.362 . S
C509 C505 1.411 . S
C509 C507 1.420 . S
C509 C514 1.395 . S
C510 C506 1.423 . S
C510 C507 1.351 . S
C510 H522 0.930 . S
C511 C513 1.400 1_565 S
C511 C514 1.386 . S
C511 H523 0.930 1_565 S
N512 C505 1.377 . S
N512 C513 1.321 1_565 S
N512 Eu515 2.609 1_565 S
C513 C511 1.400 1_545 S
C513 N512 1.321 1_545 S
C513 H520 0.930 . S
C514 C509 1.395 . S
C514 C511 1.386 . S
C514 H533 0.930 . S
Eu515 N512 2.609 1_545 S
Eu515 N516 2.657 1_545 S
Eu515 O549 2.392 . S
Eu515 O550 2.432 . S
Eu515 O554 2.558 . S
Eu515 O555 2.612 . S
Eu515 O557 2.339 . S
Eu515 O558 2.563 . S
Eu515 O559 2.419 . S
Eu515 C579 2.848 . S
N516 C508 1.362 . S
N516 Eu515 2.657 1_565 S
N516 C517 1.334 . S
C517 N516 1.334 . S
C517 C519 1.413 . S
C517 H524 0.929 . S
C518 C506 1.392 . S
C518 C519 1.367 . S
C518 H526 0.930 . S
C519 C517 1.413 . S
C519 C518 1.367 . S
C519 H521 0.930 . S
H520 C513 0.930 . S
H521 C519 0.930 . S
H522 C510 0.930 . S
H523 C511 0.930 1_545 S
H524 C517 0.929 . S
H525 C539 0.930 . S
H526 C518 0.930 . S
H527 C545 0.930 . S
H528 C536 0.929 . S
H529 C543 0.930 . S
H530 C507 0.931 . S
H531 C537 0.930 . S
H532 C570 0.930 . S
H533 C514 0.930 . S
H534 C569 0.931 . S
N535 Eu504 2.657 . S
N535 C536 1.334 . S
N535 C540 1.362 . S
C536 H528 0.929 . S
C536 N535 1.334 . S
C536 C539 1.413 . S
C537 H531 0.930 . S
C537 C538 1.392 . S
C537 C539 1.367 . S
C538 C537 1.392 . S
C538 C540 1.420 . S
C538 C570 1.423 . S
C539 H525 0.930 . S
C539 C536 1.413 . S
C539 C537 1.367 . S
C540 N535 1.362 . S
C540 C538 1.420 . S
C540 C544 1.429 . S
H541 C546 0.930 . S
N542 Eu504 2.609 . S
N542 C544 1.377 . S
N542 C545 1.321 . S
C543 H529 0.930 . S
C543 C545 1.400 . S
C543 C546 1.386 . S
C544 C540 1.429 . S
C544 N542 1.377 . S
C544 C547 1.411 . S
C545 H527 0.930 . S
C545 N542 1.321 . S
C545 C543 1.400 . S
C546 H541 0.930 . S
C546 C543 1.386 . S
C546 C547 1.395 . S
C547 C544 1.411 . S
C547 C546 1.395 . S
C547 C569 1.420 . S
O548 Eu504 2.558 . S
O548 C568 1.257 . S
O549 Eu504 2.620 . S
O549 Eu515 2.392 . S
O549 C560 1.262 1_545 S
O550 Eu515 2.432 . S
O550 C567 1.264 . S
O551 Eu504 2.339 . S
O551 C567 1.254 . S
O552 Eu504 2.563 1_565 S
O552 C560 1.235 . S
O553 Eu504 2.419 . S
O553 C568 1.249 . S
O554 Eu515 2.558 . S
O554 C579 1.257 . S
O555 Eu504 2.380 . S
O555 Eu515 2.612 . S
O555 C571 1.276 . S
O556 Eu504 2.432 . S
O556 C578 1.264 . S
O557 Eu515 2.339 . S
O557 C578 1.254 . S
O558 Eu515 2.563 . S
O558 C571 1.235 . S
O559 Eu515 2.419 . S
O559 C579 1.249 . S
C560 O549 1.262 1_565 S
C560 O552 1.235 . S
C561 C563 1.408 . S
C561 C565 1.394 . S
C561 C568 1.478 1_565 S
C562 C563 1.392 . S
C562 C564 1.386 . S
C563 C561 1.408 . S
C563 C562 1.392 . S
C563 H580 0.930 . S
C564 C562 1.386 . S
C564 C566 1.395 . S
C564 H581 0.930 . S
C565 C561 1.394 . S
C565 C566 1.379 . S
C565 H582 0.930 1_565 S
C566 C564 1.395 . S
C566 C565 1.379 . S
C566 H583 0.930 . S
C567 O550 1.264 . S
C567 O551 1.254 . S
C568 Eu504 2.848 . S
C568 O548 1.257 . S
C568 O553 1.249 . S
C568 C561 1.478 1_545 S
C569 H534 0.931 . S
C569 C547 1.420 . S
C569 C570 1.351 . S
C570 H532 0.930 . S
C570 C538 1.423 . S
C570 C569 1.351 . S
C571 O555 1.276 . S
C571 O558 1.235 . S
C572 C573 1.393 . S
C572 C576 1.395 . S
C572 C579 1.492 . S
C573 C572 1.393 . S
C573 C574 1.392 . S
C573 H584 0.930 . S
C574 C573 1.392 . S
C574 C575 1.386 . S
C575 C574 1.386 . S
C575 C577 1.395 . S
C575 H585 0.930 . S
C576 C572 1.395 . S
C576 C577 1.379 . S
C576 H586 0.930 . S
C577 C575 1.395 . S
C577 C576 1.379 . S
C577 H587 0.930 . S
C578 O556 1.264 . S
C578 O557 1.254 . S
C579 Eu515 2.848 . S
C579 O554 1.257 . S
C579 O559 1.249 . S
C579 C572 1.492 . S
H580 C563 0.930 . S
H581 C564 0.930 . S
H582 C565 0.930 1_545 S
H583 C566 0.930 . S
H584 C573 0.930 . S
H585 C575 0.930 . S
H586 C576 0.930 . S
H587 C577 0.930 . S
Eu588 N619 2.657 . S
Eu588 N626 2.609 . S
Eu588 O632 2.558 . S
Eu588 O633 2.612 . S
Eu588 O635 2.339 . S
Eu588 O636 2.563 . S
Eu588 O637 2.419 . S
Eu588 O639 2.380 . S
Eu588 O640 2.432 . S
Eu588 C652 2.848 . S
C589 C592 1.429 . S
C589 C593 1.411 . S
C589 N596 1.377 . S
C590 C592 1.420 . S
C590 C594 1.423 . S
C590 C602 1.392 . S
C591 C593 1.420 . S
C591 C594 1.351 . S
C591 H614 0.931 . S
C592 C589 1.429 . S
C592 C590 1.420 . S
C592 N600 1.362 . S
C593 C589 1.411 . S
C593 C591 1.420 . S
C593 C598 1.395 . S
C594 C590 1.423 . S
C594 C591 1.351 . S
C594 H606 0.930 . S
C595 C597 1.400 . S
C595 C598 1.386 . S
C595 H607 0.930 . S
N596 C589 1.377 . S
N596 C597 1.321 . S
N596 Eu599 2.609 . S
C597 C595 1.400 . S
C597 N596 1.321 . S
C597 H604 0.930 . S
C598 C593 1.395 . S
C598 C595 1.386 . S
C598 H617 0.930 . S
Eu599 N596 2.609 . S
Eu599 N600 2.657 . S
Eu599 O633 2.380 . S
Eu599 O634 2.432 . S
Eu599 O638 2.558 . S
Eu599 O639 2.612 . S
Eu599 O641 2.339 . S
Eu599 O642 2.563 . S
Eu599 O643 2.419 . S
Eu599 C663 2.848 . S
N600 C592 1.362 . S
N600 Eu599 2.657 . S
N600 C601 1.334 . S
C601 N600 1.334 . S
C601 C603 1.413 . S
C601 H608 0.929 . S
C602 C590 1.392 . S
C602 C603 1.367 . S
C602 H610 0.930 . S
C603 C601 1.413 . S
C603 C602 1.367 . S
C603 H605 0.930 . S
H604 C597 0.930 . S
H605 C603 0.930 . S
H606 C594 0.930 . S
H607 C595 0.930 . S
H608 C601 0.929 . S
H609 C623 0.930 . S
H610 C602 0.930 . S
H611 C629 0.930 . S
H612 C620 0.929 . S
H613 C627 0.930 . S
H614 C591 0.931 . S
H615 C621 0.930 . S
H616 C654 0.930 . S
H617 C598 0.930 . S
H618 C653 0.931 . S
N619 Eu588 2.657 . S
N619 C620 1.334 . S
N619 C624 1.362 . S
C620 H612 0.929 . S
C620 N619 1.334 . S
C620 C623 1.413 . S
C621 H615 0.930 . S
C621 C622 1.392 . S
C621 C623 1.367 . S
C622 C621 1.392 . S
C622 C624 1.420 . S
C622 C654 1.423 . S
C623 H609 0.930 . S
C623 C620 1.413 . S
C623 C621 1.367 . S
C624 N619 1.362 . S
C624 C622 1.420 . S
C624 C628 1.429 . S
H625 C630 0.930 . S
N626 Eu588 2.609 . S
N626 C628 1.377 . S
N626 C629 1.321 . S
C627 H613 0.930 . S
C627 C629 1.400 . S
C627 C630 1.386 . S
C628 C624 1.429 . S
C628 N626 1.377 . S
C628 C631 1.411 . S
C629 H611 0.930 . S
C629 N626 1.321 . S
C629 C627 1.400 . S
C630 H625 0.930 . S
C630 C627 1.386 . S
C630 C631 1.395 . S
C631 C628 1.411 . S
C631 C630 1.395 . S
C631 C653 1.420 . S
O632 Eu588 2.558 . S
O632 C652 1.257 . S
O633 Eu588 2.612 . S
O633 Eu599 2.380 . S
O633 C644 1.276 . S
O634 Eu599 2.432 . S
O634 C651 1.264 . S
O635 Eu588 2.339 . S
O635 C651 1.254 . S
O636 Eu588 2.563 . S
O636 C644 1.235 . S
O637 Eu588 2.419 . S
O637 C652 1.249 . S
O638 Eu599 2.558 . S
O638 C663 1.257 . S
O639 Eu588 2.380 . S
O639 Eu599 2.612 . S
O639 C655 1.276 . S
O640 Eu588 2.432 . S
O640 C662 1.264 . S
O641 Eu599 2.339 . S
O641 C662 1.254 . S
O642 Eu599 2.563 . S
O642 C655 1.235 . S
O643 Eu599 2.419 . S
O643 C663 1.249 . S
C644 O633 1.276 . S
C644 O636 1.235 . S
C645 C647 1.393 . S
C645 C649 1.395 . S
C645 C652 1.492 . S
C646 C647 1.392 . S
C646 C648 1.386 . S
C647 C645 1.393 . S
C647 C646 1.392 . S
C647 H664 0.930 . S
C648 C646 1.386 . S
C648 C650 1.395 . S
C648 H665 0.930 . S
C649 C645 1.395 . S
C649 C650 1.379 . S
C649 H666 0.930 . S
C650 C648 1.395 . S
C650 C649 1.379 . S
C650 H667 0.930 . S
C651 O634 1.264 . S
C651 O635 1.254 . S
C652 Eu588 2.848 . S
C652 O632 1.257 . S
C652 O637 1.249 . S
C652 C645 1.492 . S
C653 H618 0.931 . S
C653 C631 1.420 . S
C653 C654 1.351 . S
C654 H616 0.930 . S
C654 C622 1.423 . S
C654 C653 1.351 . S
C655 O639 1.276 . S
C655 O642 1.235 . S
C656 C657 1.393 . S
C656 C660 1.395 . S
C656 C663 1.492 . S
C657 C656 1.393 . S
C657 C658 1.392 . S
C657 H668 0.930 . S
C658 C657 1.392 . S
C658 C659 1.386 . S
C659 C658 1.386 . S
C659 C661 1.395 . S
C659 H669 0.930 . S
C660 C656 1.395 . S
C660 C661 1.379 . S
C660 H670 0.930 . S
C661 C659 1.395 . S
C661 C660 1.379 . S
C661 H671 0.930 . S
C662 O640 1.264 . S
C662 O641 1.254 . S
C663 Eu599 2.848 . S
C663 O638 1.257 . S
C663 O643 1.249 . S
C663 C656 1.492 . S
H664 C647 0.930 . S
H665 C648 0.930 . S
H666 C649 0.930 . S
H667 C650 0.930 . S
H668 C657 0.930 . S
H669 C659 0.930 . S
H670 C660 0.930 . S
H671 C661 0.930 . S
Eu672 N703 2.657 . S
Eu672 N710 2.609 . S
Eu672 O716 2.558 . S
Eu672 O717 2.612 . S
Eu672 O719 2.339 . S
Eu672 O720 2.563 . S
Eu672 O721 2.419 . S
Eu672 O723 2.380 . S
Eu672 O724 2.432 . S
Eu672 C736 2.848 . S
C673 C676 1.429 . S
C673 C677 1.411 . S
C673 N680 1.377 . S
C674 C676 1.420 . S
C674 C678 1.423 . S
C674 C686 1.392 . S
C675 C677 1.420 . S
C675 C678 1.351 . S
C675 H698 0.931 . S
C676 C673 1.429 . S
C676 C674 1.420 . S
C676 N684 1.362 . S
C677 C673 1.411 . S
C677 C675 1.420 . S
C677 C682 1.395 . S
C678 C674 1.423 . S
C678 C675 1.351 . S
C678 H690 0.930 . S
C679 C681 1.400 . S
C679 C682 1.386 . S
C679 H691 0.930 . S
N680 C673 1.377 . S
N680 C681 1.321 . S
N680 Eu683 2.609 . S
C681 C679 1.400 . S
C681 N680 1.321 . S
C681 H688 0.930 . S
C682 C677 1.395 . S
C682 C679 1.386 . S
C682 H701 0.930 . S
Eu683 N680 2.609 . S
Eu683 N684 2.657 . S
Eu683 O717 2.380 1_565 S
Eu683 O718 2.432 1_565 S
Eu683 O722 2.558 . S
Eu683 O723 2.612 1_565 S
Eu683 O725 2.339 . S
Eu683 O726 2.561 . S
Eu683 O727 2.419 . S
Eu683 C747 2.848 . S
N684 C676 1.362 . S
N684 Eu683 2.657 . S
N684 C685 1.334 . S
C685 N684 1.334 . S
C685 C687 1.413 1_455 S
C685 H692 0.929 . S
C686 C674 1.392 . S
C686 C687 1.367 1_455 S
C686 H694 0.930 1_455 S
C687 C685 1.413 1_655 S
C687 C686 1.367 1_655 S
C687 H689 0.930 . S
H688 C681 0.930 . S
H689 C687 0.930 . S
H690 C678 0.930 . S
H691 C679 0.930 . S
H692 C685 0.929 . S
H693 C707 0.930 . S
H694 C686 0.930 1_655 S
H695 C713 0.930 . S
H696 C704 0.929 . S
H697 C711 0.930 1_655 S
H698 C675 0.931 . S
H699 C705 0.930 . S
H700 C738 0.930 . S
H701 C682 0.930 . S
H702 C737 0.931 . S
N703 Eu672 2.657 . S
N703 C704 1.334 . S
N703 C708 1.362 . S
C704 H696 0.929 . S
C704 N703 1.334 . S
C704 C707 1.413 . S
C705 H699 0.930 . S
C705 C706 1.392 . S
C705 C707 1.367 . S
C706 C705 1.392 . S
C706 C708 1.420 . S
C706 C738 1.423 . S
C707 H693 0.930 . S
C707 C704 1.413 . S
C707 C705 1.367 . S
C708 N703 1.362 . S
C708 C706 1.420 . S
C708 C712 1.429 . S
H709 C714 0.930 . S
N710 Eu672 2.609 . S
N710 C712 1.377 . S
N710 C713 1.321 . S
C711 H697 0.930 1_455 S
C711 C713 1.400 . S
C711 C714 1.386 . S
C712 C708 1.429 . S
C712 N710 1.377 . S
C712 C715 1.411 . S
C713 H695 0.930 . S
C713 N710 1.321 . S
C713 C711 1.400 . S
C714 H709 0.930 . S
C714 C711 1.386 . S
C714 C715 1.395 . S
C715 C712 1.411 . S
C715 C714 1.395 . S
C715 C737 1.420 . S
O716 Eu672 2.558 . S
O716 C736 1.257 . S
O717 Eu672 2.612 . S
O717 Eu683 2.380 1_545 S
O717 C728 1.276 . S
O718 Eu683 2.432 1_545 S
O718 C735 1.264 . S
O719 Eu672 2.339 . S
O719 C735 1.254 . S
O720 Eu672 2.563 . S
O720 C728 1.235 . S
O721 Eu672 2.419 . S
O721 C736 1.249 . S
O722 Eu683 2.558 . S
O722 C747 1.257 . S
O723 Eu672 2.380 . S
O723 Eu683 2.612 1_545 S
O723 C739 1.276 . S
O724 Eu672 2.432 . S
O724 C746 1.264 . S
O725 Eu683 2.339 . S
O725 C746 1.254 1_565 S
O726 Eu683 2.561 . S
O726 C739 1.225 1_565 S
O727 Eu683 2.419 . S
O727 C747 1.249 . S
C728 O717 1.276 . S
C728 O720 1.235 . S
C729 C731 1.393 . S
C729 C733 1.395 . S
C729 C736 1.492 . S
C730 C731 1.392 . S
C730 C732 1.386 . S
C731 C729 1.393 . S
C731 C730 1.392 . S
C731 H748 0.930 . S
C732 C730 1.386 . S
C732 C734 1.395 . S
C732 H749 0.930 . S
C733 C729 1.395 . S
C733 C734 1.379 . S
C733 H750 0.930 . S
C734 C732 1.395 . S
C734 C733 1.379 . S
C734 H751 0.930 . S
C735 O718 1.264 . S
C735 O719 1.254 . S
C736 Eu672 2.848 . S
C736 O716 1.257 . S
C736 O721 1.249 . S
C736 C729 1.492 . S
C737 H702 0.931 . S
C737 C715 1.420 . S
C737 C738 1.351 . S
C738 H700 0.930 . S
C738 C706 1.423 . S
C738 C737 1.351 . S
C739 O723 1.276 . S
C739 O726 1.225 1_545 S
C740 C741 1.393 . S
C740 C744 1.395 . S
C740 C747 1.492 . S
C741 C740 1.393 . S
C741 C742 1.392 . S
C741 H752 0.930 . S
C742 C741 1.392 . S
C742 C743 1.386 . S
C743 C742 1.386 . S
C743 C745 1.395 . S
C743 H753 0.930 . S
C744 C740 1.395 . S
C744 C745 1.379 . S
C744 H754 0.930 . S
C745 C743 1.395 . S
C745 C744 1.379 . S
C745 H755 0.930 . S
C746 O724 1.264 . S
C746 O725 1.254 1_545 S
C747 Eu683 2.848 . S
C747 O722 1.257 . S
C747 O727 1.249 . S
C747 C740 1.492 . S
H748 C731 0.930 . S
H749 C732 0.930 . S
H750 C733 0.930 . S
H751 C734 0.930 . S
H752 C741 0.930 . S
H753 C743 0.930 . S
H754 C744 0.930 . S
H755 C745 0.930 . S
Eu756 N787 2.657 . S
Eu756 N794 2.609 . S
Eu756 O800 2.558 . S
Eu756 O801 2.612 . S
Eu756 O803 2.339 . S
Eu756 O804 2.563 . S
Eu756 O805 2.419 . S
Eu756 O807 2.380 . S
Eu756 O808 2.432 . S
Eu756 C820 2.848 . S
C757 C760 1.429 . S
C757 C761 1.411 . S
C757 N764 1.377 . S
C758 C760 1.420 . S
C758 C762 1.423 . S
C758 C770 1.392 . S
C759 C761 1.420 . S
C759 C762 1.351 . S
C759 H782 0.931 . S
C760 C757 1.429 . S
C760 C758 1.420 . S
C760 N768 1.362 . S
C761 C757 1.411 . S
C761 C759 1.420 . S
C761 C766 1.395 . S
C762 C758 1.423 . S
C762 C759 1.351 . S
C762 H774 0.930 . S
C763 C765 1.400 . S
C763 C766 1.386 . S
C763 H775 0.930 . S
N764 C757 1.377 . S
N764 C765 1.321 . S
N764 Eu767 2.609 . S
C765 C763 1.400 . S
C765 N764 1.321 . S
C765 H772 0.930 . S
C766 C761 1.395 . S
C766 C763 1.386 . S
C766 H785 0.930 . S
Eu767 N764 2.609 . S
Eu767 N768 2.657 . S
Eu767 O801 2.380 . S
Eu767 O802 2.432 . S
Eu767 O806 2.558 . S
Eu767 O807 2.612 . S
Eu767 O809 2.339 . S
Eu767 O810 2.563 . S
Eu767 O811 2.419 . S
Eu767 C831 2.848 . S
N768 C760 1.362 . S
N768 Eu767 2.657 . S
N768 C769 1.334 . S
C769 N768 1.334 . S
C769 C771 1.413 . S
C769 H776 0.929 . S
C770 C758 1.392 . S
C770 C771 1.367 . S
C770 H778 0.930 . S
C771 C769 1.413 . S
C771 C770 1.367 . S
C771 H773 0.930 . S
H772 C765 0.930 . S
H773 C771 0.930 . S
H774 C762 0.930 . S
H775 C763 0.930 . S
H776 C769 0.929 . S
H777 C791 0.930 . S
H778 C770 0.930 . S
H779 C797 0.930 . S
H780 C788 0.929 . S
H781 C795 0.930 . S
H782 C759 0.931 . S
H783 C789 0.930 . S
H784 C822 0.930 . S
H785 C766 0.930 . S
H786 C821 0.931 . S
N787 Eu756 2.657 . S
N787 C788 1.334 . S
N787 C792 1.362 . S
C788 H780 0.929 . S
C788 N787 1.334 . S
C788 C791 1.413 . S
C789 H783 0.930 . S
C789 C790 1.392 . S
C789 C791 1.367 . S
C790 C789 1.392 . S
C790 C792 1.420 . S
C790 C822 1.423 . S
C791 H777 0.930 . S
C791 C788 1.413 . S
C791 C789 1.367 . S
C792 N787 1.362 . S
C792 C790 1.420 . S
C792 C796 1.429 . S
H793 C798 0.930 . S
N794 Eu756 2.609 . S
N794 C796 1.377 . S
N794 C797 1.321 . S
C795 H781 0.930 . S
C795 C797 1.400 . S
C795 C798 1.386 . S
C796 C792 1.429 . S
C796 N794 1.377 . S
C796 C799 1.411 . S
C797 H779 0.930 . S
C797 N794 1.321 . S
C797 C795 1.400 . S
C798 H793 0.930 . S
C798 C795 1.386 . S
C798 C799 1.395 . S
C799 C796 1.411 . S
C799 C798 1.395 . S
C799 C821 1.420 . S
O800 Eu756 2.558 . S
O800 C820 1.257 . S
O801 Eu756 2.612 . S
O801 Eu767 2.380 . S
O801 C812 1.276 . S
O802 Eu767 2.432 . S
O802 C819 1.264 . S
O803 Eu756 2.339 . S
O803 C819 1.254 . S
O804 Eu756 2.563 . S
O804 C812 1.235 . S
O805 Eu756 2.419 . S
O805 C820 1.249 . S
O806 Eu767 2.558 . S
O806 C831 1.257 . S
O807 Eu756 2.380 . S
O807 Eu767 2.612 . S
O807 C823 1.276 . S
O808 Eu756 2.432 . S
O808 C830 1.264 . S
O809 Eu767 2.339 . S
O809 C830 1.254 . S
O810 Eu767 2.563 . S
O810 C823 1.235 . S
O811 Eu767 2.419 . S
O811 C831 1.249 . S
C812 O801 1.276 . S
C812 O804 1.235 . S
C813 C815 1.393 . S
C813 C817 1.395 . S
C813 C820 1.492 . S
C814 C815 1.392 . S
C814 C816 1.386 . S
C815 C813 1.393 . S
C815 C814 1.392 . S
C815 H832 0.930 . S
C816 C814 1.386 . S
C816 C818 1.395 . S
C816 H833 0.930 . S
C817 C813 1.395 . S
C817 C818 1.379 . S
C817 H834 0.930 . S
C818 C816 1.395 . S
C818 C817 1.379 . S
C818 H835 0.930 . S
C819 O802 1.264 . S
C819 O803 1.254 . S
C820 Eu756 2.848 . S
C820 O800 1.257 . S
C820 O805 1.249 . S
C820 C813 1.492 . S
C821 H786 0.931 . S
C821 C799 1.420 . S
C821 C822 1.351 . S
C822 H784 0.930 . S
C822 C790 1.423 . S
C822 C821 1.351 . S
C823 O807 1.276 . S
C823 O810 1.235 . S
C824 C825 1.393 . S
C824 C828 1.395 . S
C824 C831 1.492 . S
C825 C824 1.393 . S
C825 C826 1.392 . S
C825 H836 0.930 . S
C826 C825 1.392 . S
C826 C827 1.386 . S
C827 C826 1.386 . S
C827 C829 1.395 . S
C827 H837 0.930 . S
C828 C824 1.395 . S
C828 C829 1.379 . S
C828 H838 0.930 . S
C829 C827 1.395 . S
C829 C828 1.379 . S
C829 H839 0.930 . S
C830 O808 1.264 . S
C830 O809 1.254 . S
C831 Eu767 2.848 . S
C831 O806 1.257 . S
C831 O811 1.249 . S
C831 C824 1.492 . S
H832 C815 0.930 . S
H833 C816 0.930 . S
H834 C817 0.930 . S
H835 C818 0.930 . S
H836 C825 0.930 . S
H837 C827 0.930 . S
H838 C828 0.930 . S
H839 C829 0.930 . S
Eu840 N871 2.657 . S
Eu840 N878 2.609 . S
Eu840 O884 2.558 1_545 S
Eu840 O885 2.612 . S
Eu840 O887 2.339 . S
Eu840 O888 2.561 1_545 S
Eu840 O889 2.419 . S
Eu840 O891 2.380 . S
Eu840 O892 2.432 1_545 S
Eu840 C904 2.848 . S
C841 C844 1.429 . S
C841 C845 1.411 . S
C841 N848 1.377 . S
C842 C844 1.423 . S
C842 C846 1.430 . S
C842 C854 1.381 1_545 S
C843 C845 1.420 . S
C843 C846 1.351 . S
C843 H866 0.931 . S
C844 C841 1.429 . S
C844 C842 1.423 . S
C844 N852 1.362 . S
C845 C841 1.411 . S
C845 C843 1.420 . S
C845 C850 1.395 . S
C846 C842 1.430 . S
C846 C843 1.351 . S
C846 H858 0.930 1_545 S
C847 C849 1.400 . S
C847 C850 1.386 . S
C847 H859 0.930 . S
N848 C841 1.377 . S
N848 C849 1.321 . S
N848 Eu851 2.609 . S
C849 C847 1.400 . S
C849 N848 1.321 . S
C849 H856 0.930 . S
C850 C845 1.395 . S
C850 C847 1.386 . S
C850 H869 0.930 . S
Eu851 N848 2.609 . S
Eu851 N852 2.657 . S
Eu851 O885 2.380 1_556 S
Eu851 O886 2.432 1_556 S
Eu851 O890 2.558 . S
Eu851 O891 2.612 1_556 S
Eu851 O893 2.339 . S
Eu851 O894 2.563 1_556 S
Eu851 O895 2.419 . S
Eu851 C915 2.848 . S
N852 C844 1.362 . S
N852 Eu851 2.657 . S
N852 C853 1.334 1_545 S
C853 N852 1.334 1_565 S
C853 C855 1.413 . S
C853 H860 0.929 . S
C854 C842 1.381 1_565 S
C854 C855 1.367 . S
C854 H862 0.930 . S
C855 C853 1.413 . S
C855 C854 1.367 . S
C855 H857 0.930 . S
H856 C849 0.930 . S
H857 C855 0.930 . S
H858 C846 0.930 1_565 S
H859 C847 0.930 . S
H860 C853 0.929 . S
H861 C875 0.930 . S
H862 C854 0.930 . S
H863 C881 0.930 . S
H864 C872 0.929 . S
H865 C879 0.930 . S
H866 C843 0.931 . S
H867 C873 0.930 . S
H868 C906 0.930 . S
H869 C850 0.930 . S
H870 C905 0.931 . S
N871 Eu840 2.657 . S
N871 C872 1.334 . S
N871 C876 1.362 . S
C872 H864 0.929 . S
C872 N871 1.334 . S
C872 C875 1.413 . S
C873 H867 0.930 . S
C873 C874 1.392 . S
C873 C875 1.367 . S
C874 C873 1.392 . S
C874 C876 1.420 . S
C874 C906 1.423 . S
C875 H861 0.930 . S
C875 C872 1.413 . S
C875 C873 1.367 . S
C876 N871 1.362 . S
C876 C874 1.420 . S
C876 C880 1.429 . S
H877 C882 0.930 . S
N878 Eu840 2.609 . S
N878 C880 1.377 . S
N878 C881 1.321 1_545 S
C879 H865 0.930 . S
C879 C881 1.400 . S
C879 C882 1.386 . S
C880 C876 1.429 . S
C880 N878 1.377 . S
C880 C883 1.411 . S
C881 H863 0.930 . S
C881 N878 1.321 1_565 S
C881 C879 1.400 . S
C882 H877 0.930 . S
C882 C879 1.386 . S
C882 C883 1.395 1_565 S
C883 C880 1.411 . S
C883 C882 1.395 1_545 S
C883 C905 1.420 . S
O884 Eu840 2.558 1_565 S
O884 C904 1.257 1_565 S
O885 Eu840 2.612 . S
O885 Eu851 2.380 1_554 S
O885 C896 1.276 . S
O886 Eu851 2.432 1_554 S
O886 C903 1.264 . S
O887 Eu840 2.339 . S
O887 C903 1.254 . S
O888 Eu840 2.561 1_565 S
O888 C896 1.215 1_565 S
O889 Eu840 2.419 . S
O889 C904 1.249 . S
O890 Eu851 2.558 . S
O890 C915 1.257 . S
O891 Eu840 2.380 . S
O891 Eu851 2.612 1_554 S
O891 C907 1.276 . S
O892 Eu840 2.432 1_565 S
O892 C914 1.264 . S
O893 Eu851 2.339 . S
O893 C914 1.254 1_546 S
O894 Eu851 2.563 1_554 S
O894 C907 1.235 . S
O895 Eu851 2.419 . S
O895 C915 1.249 . S
C896 O885 1.276 . S
C896 O888 1.215 1_545 S
C897 C899 1.393 1_565 S
C897 C901 1.395 . S
C897 C904 1.492 1_565 S
C898 C899 1.399 . S
C898 C900 1.367 1_545 S
C899 C897 1.393 1_545 S
C899 C898 1.399 . S
C899 H916 0.930 . S
C900 C898 1.367 1_565 S
C900 C902 1.395 . S
C900 H917 0.930 . S
C901 C897 1.395 . S
C901 C902 1.379 . S
C901 H918 0.930 . S
C902 C900 1.395 . S
C902 C901 1.379 . S
C902 H919 0.930 . S
C903 O886 1.264 . S
C903 O887 1.254 . S
C904 Eu840 2.848 . S
C904 O884 1.257 1_545 S
C904 O889 1.249 . S
C904 C897 1.492 1_545 S
C905 H870 0.931 . S
C905 C883 1.420 . S
C905 C906 1.351 . S
C906 H868 0.930 . S
C906 C874 1.423 . S
C906 C905 1.351 . S
C907 O891 1.276 . S
C907 O894 1.235 . S
C908 C909 1.393 . S
C908 C912 1.395 . S
C908 C915 1.492 . S
C909 C908 1.393 . S
C909 C910 1.392 . S
C909 H920 0.930 . S
C910 C909 1.392 . S
C910 C911 1.386 . S
C911 C910 1.386 . S
C911 C913 1.395 . S
C911 H921 0.930 . S
C912 C908 1.395 . S
C912 C913 1.379 . S
C912 H922 0.930 . S
C913 C911 1.395 . S
C913 C912 1.379 . S
C913 H923 0.930 . S
C914 O892 1.264 . S
C914 O893 1.254 1_564 S
C915 Eu851 2.848 . S
C915 O890 1.257 . S
C915 O895 1.249 . S
C915 C908 1.492 . S
H916 C899 0.930 . S
H917 C900 0.930 . S
H918 C901 0.930 . S
H919 C902 0.930 . S
H920 C909 0.930 . S
H921 C911 0.930 . S
H922 C912 0.930 . S
H923 C913 0.930 . S
Eu924 N955 2.657 . S
Eu924 N962 2.609 . S
Eu924 O968 2.558 . S
Eu924 O969 2.612 . S
Eu924 O971 2.339 . S
Eu924 O972 2.563 . S
Eu924 O973 2.419 . S
Eu924 O975 2.380 . S
Eu924 O976 2.432 . S
Eu924 C988 2.848 . S
C925 C928 1.429 . S
C925 C929 1.411 . S
C925 N932 1.377 . S
C926 C928 1.420 . S
C926 C930 1.423 . S
C926 C938 1.392 . S
C927 C929 1.420 . S
C927 C930 1.351 . S
C927 H950 0.931 . S
C928 C925 1.429 . S
C928 C926 1.420 . S
C928 N936 1.362 . S
C929 C925 1.411 . S
C929 C927 1.420 . S
C929 C934 1.395 . S
C930 C926 1.423 . S
C930 C927 1.351 . S
C930 H942 0.930 . S
C931 C933 1.400 . S
C931 C934 1.386 . S
C931 H943 0.930 . S
N932 C925 1.377 . S
N932 C933 1.321 . S
N932 Eu935 2.609 . S
C933 C931 1.400 . S
C933 N932 1.321 . S
C933 H940 0.930 . S
C934 C929 1.395 . S
C934 C931 1.386 . S
C934 H953 0.930 . S
Eu935 N932 2.609 . S
Eu935 N936 2.657 . S
Eu935 O969 2.380 . S
Eu935 O970 2.432 . S
Eu935 O974 2.558 . S
Eu935 O975 2.612 . S
Eu935 O977 2.339 . S
Eu935 O978 2.563 . S
Eu935 O979 2.419 . S
Eu935 C999 2.848 . S
N936 C928 1.362 . S
N936 Eu935 2.657 . S
N936 C937 1.334 . S
C937 N936 1.334 . S
C937 C939 1.413 . S
C937 H944 0.929 . S
C938 C926 1.392 . S
C938 C939 1.367 . S
C938 H946 0.930 . S
C939 C937 1.413 . S
C939 C938 1.367 . S
C939 H941 0.930 . S
H940 C933 0.930 . S
H941 C939 0.930 . S
H942 C930 0.930 . S
H943 C931 0.930 . S
H944 C937 0.929 . S
H945 C959 0.930 . S
H946 C938 0.930 . S
H947 C965 0.930 . S
H948 C956 0.929 . S
H949 C963 0.930 . S
H950 C927 0.931 . S
H951 C957 0.930 . S
H952 C990 0.930 . S
H953 C934 0.930 . S
H954 C989 0.931 . S
N955 Eu924 2.657 . S
N955 C956 1.334 . S
N955 C960 1.362 . S
C956 H948 0.929 . S
C956 N955 1.334 . S
C956 C959 1.413 . S
C957 H951 0.930 . S
C957 C958 1.392 . S
C957 C959 1.367 . S
C958 C957 1.392 . S
C958 C960 1.420 . S
C958 C990 1.423 . S
C959 H945 0.930 . S
C959 C956 1.413 . S
C959 C957 1.367 . S
C960 N955 1.362 . S
C960 C958 1.420 . S
C960 C964 1.429 . S
H961 C966 0.930 . S
N962 Eu924 2.609 . S
N962 C964 1.377 . S
N962 C965 1.321 . S
C963 H949 0.930 . S
C963 C965 1.400 . S
C963 C966 1.386 . S
C964 C960 1.429 . S
C964 N962 1.377 . S
C964 C967 1.411 . S
C965 H947 0.930 . S
C965 N962 1.321 . S
C965 C963 1.400 . S
C966 H961 0.930 . S
C966 C963 1.386 . S
C966 C967 1.395 . S
C967 C964 1.411 . S
C967 C966 1.395 . S
C967 C989 1.420 . S
O968 Eu924 2.558 . S
O968 C988 1.257 . S
O969 Eu924 2.612 . S
O969 Eu935 2.380 . S
O969 C980 1.276 . S
O970 Eu935 2.432 . S
O970 C987 1.264 . S
O971 Eu924 2.339 . S
O971 C987 1.254 . S
O972 Eu924 2.563 . S
O972 C980 1.235 . S
O973 Eu924 2.419 . S
O973 C988 1.249 . S
O974 Eu935 2.558 . S
O974 C999 1.257 . S
O975 Eu924 2.380 . S
O975 Eu935 2.612 . S
O975 C991 1.276 . S
O976 Eu924 2.432 . S
O976 C998 1.264 . S
O977 Eu935 2.339 . S
O977 C998 1.254 . S
O978 Eu935 2.563 . S
O978 C991 1.235 . S
O979 Eu935 2.419 . S
O979 C999 1.249 . S
C980 O969 1.276 . S
C980 O972 1.235 . S
C981 C983 1.393 . S
C981 C985 1.395 . S
C981 C988 1.492 . S
C982 C983 1.392 . S
C982 C984 1.386 . S
C983 C981 1.393 . S
C983 C982 1.392 . S
C983 H1000 0.930 . S
C984 C982 1.386 . S
C984 C986 1.395 . S
C984 H1001 0.930 . S
C985 C981 1.395 . S
C985 C986 1.379 . S
C985 H1002 0.930 . S
C986 C984 1.395 . S
C986 C985 1.379 . S
C986 H1003 0.930 . S
C987 O970 1.264 . S
C987 O971 1.254 . S
C988 Eu924 2.848 . S
C988 O968 1.257 . S
C988 O973 1.249 . S
C988 C981 1.492 . S
C989 H954 0.931 . S
C989 C967 1.420 . S
C989 C990 1.351 . S
C990 H952 0.930 . S
C990 C958 1.423 . S
C990 C989 1.351 . S
C991 O975 1.276 . S
C991 O978 1.235 . S
C992 C993 1.393 . S
C992 C996 1.395 . S
C992 C999 1.492 . S
C993 C992 1.393 . S
C993 C994 1.392 . S
C993 H1004 0.930 . S
C994 C993 1.392 . S
C994 C995 1.386 . S
C995 C994 1.386 . S
C995 C997 1.395 . S
C995 H1005 0.930 . S
C996 C992 1.395 . S
C996 C997 1.379 . S
C996 H1006 0.930 . S
C997 C995 1.395 . S
C997 C996 1.379 . S
C997 H1007 0.930 . S
C998 O976 1.264 . S
C998 O977 1.254 . S
C999 Eu935 2.848 . S
C999 O974 1.257 . S
C999 O979 1.249 . S
C999 C992 1.492 . S
H1000 C983 0.930 . S
H1001 C984 0.930 . S
H1002 C985 0.930 . S
H1003 C986 0.930 . S
H1004 C993 0.930 . S
H1005 C995 0.930 . S
H1006 C996 0.930 . S
H1007 C997 0.930 . S
Eu1008 N1039 2.657 . S
Eu1008 N1046 2.609 . S
Eu1008 O1052 2.558 . S
Eu1008 O1053 2.612 1_554 S
Eu1008 O1055 2.339 . S
Eu1008 O1056 2.563 1_554 S
Eu1008 O1057 2.419 . S
Eu1008 O1059 2.380 . S
Eu1008 O1060 2.432 . S
Eu1008 C1072 2.848 . S
C1009 C1012 1.429 . S
C1009 C1013 1.411 . S
C1009 N1016 1.377 . S
C1010 C1012 1.420 . S
C1010 C1014 1.423 . S
C1010 C1022 1.392 . S
C1011 C1013 1.420 . S
C1011 C1014 1.351 . S
C1011 H1034 0.931 . S
C1012 C1009 1.429 . S
C1012 C1010 1.420 . S
C1012 N1020 1.362 . S
C1013 C1009 1.411 . S
C1013 C1011 1.420 . S
C1013 C1018 1.395 . S
C1014 C1010 1.423 . S
C1014 C1011 1.351 . S
C1014 H1026 0.930 . S
C1015 C1017 1.400 . S
C1015 C1018 1.386 . S
C1015 H1027 0.930 . S
N1016 C1009 1.377 . S
N1016 C1017 1.321 . S
N1016 Eu1019 2.609 1_556 S
C1017 C1015 1.400 . S
C1017 N1016 1.321 . S
C1017 H1024 0.930 . S
C1018 C1013 1.395 . S
C1018 C1015 1.386 . S
C1018 H1037 0.930 . S
Eu1019 N1016 2.609 1_554 S
Eu1019 N1020 2.657 1_554 S
Eu1019 O1053 2.380 1_554 S
Eu1019 O1054 2.432 . S
Eu1019 O1058 2.558 . S
Eu1019 O1059 2.612 . S
Eu1019 O1061 2.339 . S
Eu1019 O1062 2.563 . S
Eu1019 O1063 2.419 . S
Eu1019 C1083 2.848 . S
N1020 C1012 1.362 . S
N1020 Eu1019 2.657 1_556 S
N1020 C1021 1.334 . S
C1021 N1020 1.334 . S
C1021 C1023 1.413 . S
C1021 H1028 0.929 . S
C1022 C1010 1.392 . S
C1022 C1023 1.367 . S
C1022 H1030 0.930 . S
C1023 C1021 1.413 . S
C1023 C1022 1.367 . S
C1023 H1025 0.930 . S
H1024 C1017 0.930 . S
H1025 C1023 0.930 . S
H1026 C1014 0.930 . S
H1027 C1015 0.930 . S
H1028 C1021 0.929 . S
H1029 C1043 0.930 . S
H1030 C1022 0.930 . S
H1031 C1049 0.930 . S
H1032 C1040 0.929 . S
H1033 C1047 0.930 . S
H1034 C1011 0.931 . S
H1035 C1041 0.930 . S
H1036 C1074 0.930 . S
H1037 C1018 0.930 . S
H1038 C1073 0.931 . S
N1039 Eu1008 2.657 . S
N1039 C1040 1.334 . S
N1039 C1044 1.362 . S
C1040 H1032 0.929 . S
C1040 N1039 1.334 . S
C1040 C1043 1.413 . S
C1041 H1035 0.930 . S
C1041 C1042 1.392 . S
C1041 C1043 1.367 . S
C1042 C1041 1.392 . S
C1042 C1044 1.420 . S
C1042 C1074 1.423 . S
C1043 H1029 0.930 . S
C1043 C1040 1.413 . S
C1043 C1041 1.367 . S
C1044 N1039 1.362 . S
C1044 C1042 1.420 . S
C1044 C1048 1.429 . S
H1045 C1050 0.930 . S
N1046 Eu1008 2.609 . S
N1046 C1048 1.377 . S
N1046 C1049 1.321 . S
C1047 H1033 0.930 . S
C1047 C1049 1.400 . S
C1047 C1050 1.386 . S
C1048 C1044 1.429 . S
C1048 N1046 1.377 . S
C1048 C1051 1.411 . S
C1049 H1031 0.930 . S
C1049 N1046 1.321 . S
C1049 C1047 1.400 . S
C1050 H1045 0.930 . S
C1050 C1047 1.386 . S
C1050 C1051 1.395 . S
C1051 C1048 1.411 . S
C1051 C1050 1.395 . S
C1051 C1073 1.420 . S
O1052 Eu1008 2.558 . S
O1052 C1072 1.257 . S
O1053 Eu1008 2.612 1_556 S
O1053 Eu1019 2.380 1_556 S
O1053 C1064 1.276 . S
O1054 Eu1019 2.432 . S
O1054 C1071 1.264 . S
O1055 Eu1008 2.339 . S
O1055 C1071 1.254 . S
O1056 Eu1008 2.563 1_556 S
O1056 C1064 1.235 . S
O1057 Eu1008 2.419 . S
O1057 C1072 1.249 . S
O1058 Eu1019 2.558 . S
O1058 C1083 1.257 . S
O1059 Eu1008 2.380 . S
O1059 Eu1019 2.612 . S
O1059 C1075 1.276 . S
O1060 Eu1008 2.432 . S
O1060 C1082 1.264 . S
O1061 Eu1019 2.339 . S
O1061 C1082 1.254 . S
O1062 Eu1019 2.563 . S
O1062 C1075 1.235 . S
O1063 Eu1019 2.419 . S
O1063 C1083 1.249 . S
C1064 O1053 1.276 . S
C1064 O1056 1.235 . S
C1065 C1067 1.393 . S
C1065 C1069 1.395 . S
C1065 C1072 1.492 . S
C1066 C1067 1.392 . S
C1066 C1068 1.386 . S
C1067 C1065 1.393 . S
C1067 C1066 1.392 . S
C1067 H1084 0.930 . S
C1068 C1066 1.386 . S
C1068 C1070 1.395 . S
C1068 H1085 0.930 . S
C1069 C1065 1.395 . S
C1069 C1070 1.379 . S
C1069 H1086 0.930 . S
C1070 C1068 1.395 . S
C1070 C1069 1.379 . S
C1070 H1087 0.930 . S
C1071 O1054 1.264 . S
C1071 O1055 1.254 . S
C1072 Eu1008 2.848 . S
C1072 O1052 1.257 . S
C1072 O1057 1.249 . S
C1072 C1065 1.492 . S
C1073 H1038 0.931 . S
C1073 C1051 1.420 . S
C1073 C1074 1.351 . S
C1074 H1036 0.930 . S
C1074 C1042 1.423 . S
C1074 C1073 1.351 . S
C1075 O1059 1.276 . S
C1075 O1062 1.235 . S
C1076 C1077 1.393 . S
C1076 C1080 1.395 . S
C1076 C1083 1.492 . S
C1077 C1076 1.393 . S
C1077 C1078 1.392 . S
C1077 H1088 0.930 . S
C1078 C1077 1.392 . S
C1078 C1079 1.386 . S
C1079 C1078 1.386 . S
C1079 C1081 1.395 . S
C1079 H1089 0.930 . S
C1080 C1076 1.395 . S
C1080 C1081 1.379 . S
C1080 H1090 0.930 . S
C1081 C1079 1.395 . S
C1081 C1080 1.379 . S
C1081 H1091 0.930 . S
C1082 O1060 1.264 . S
C1082 O1061 1.254 . S
C1083 Eu1019 2.848 . S
C1083 O1058 1.257 . S
C1083 O1063 1.249 . S
C1083 C1076 1.492 . S
H1084 C1067 0.930 . S
H1085 C1068 0.930 . S
H1086 C1069 0.930 . S
H1087 C1070 0.930 . S
H1088 C1077 0.930 . S
H1089 C1079 0.930 . S
H1090 C1080 0.930 . S
H1091 C1081 0.930 . S
Eu1092 N1123 2.657 . S
Eu1092 N1130 2.609 . S
Eu1092 O1136 2.558 . S
Eu1092 O1137 2.612 . S
Eu1092 O1139 2.339 . S
Eu1092 O1140 2.563 . S
Eu1092 O1141 2.419 . S
Eu1092 O1143 2.380 . S
Eu1092 O1144 2.432 . S
Eu1092 C1156 2.848 . S
C1093 C1096 1.429 . S
C1093 C1097 1.411 . S
C1093 N1100 1.377 . S
C1094 C1096 1.420 . S
C1094 C1098 1.423 . S
C1094 C1106 1.392 . S
C1095 C1097 1.420 . S
C1095 C1098 1.351 . S
C1095 H1118 0.931 . S
C1096 C1093 1.429 . S
C1096 C1094 1.420 . S
C1096 N1104 1.362 . S
C1097 C1093 1.411 . S
C1097 C1095 1.420 . S
C1097 C1102 1.395 . S
C1098 C1094 1.423 . S
C1098 C1095 1.351 . S
C1098 H1110 0.930 . S
C1099 C1101 1.400 . S
C1099 C1102 1.386 . S
C1099 H1111 0.930 . S
N1100 C1093 1.377 . S
N1100 C1101 1.321 . S
N1100 Eu1103 2.609 . S
C1101 C1099 1.400 . S
C1101 N1100 1.321 . S
C1101 H1108 0.930 . S
C1102 C1097 1.395 . S
C1102 C1099 1.386 . S
C1102 H1121 0.930 . S
Eu1103 N1100 2.609 . S
Eu1103 N1104 2.657 . S
Eu1103 O1137 2.380 . S
Eu1103 O1138 2.432 . S
Eu1103 O1142 2.558 . S
Eu1103 O1143 2.612 . S
Eu1103 O1145 2.339 . S
Eu1103 O1146 2.563 . S
Eu1103 O1147 2.419 . S
Eu1103 C1167 2.848 . S
N1104 C1096 1.362 . S
N1104 Eu1103 2.657 . S
N1104 C1105 1.334 . S
C1105 N1104 1.334 . S
C1105 C1107 1.413 . S
C1105 H1112 0.929 . S
C1106 C1094 1.392 . S
C1106 C1107 1.367 . S
C1106 H1114 0.930 . S
C1107 C1105 1.413 . S
C1107 C1106 1.367 . S
C1107 H1109 0.930 . S
H1108 C1101 0.930 . S
H1109 C1107 0.930 . S
H1110 C1098 0.930 . S
H1111 C1099 0.930 . S
H1112 C1105 0.929 . S
H1113 C1127 0.930 . S
H1114 C1106 0.930 . S
H1115 C1133 0.930 . S
H1116 C1124 0.929 . S
H1117 C1131 0.930 . S
H1118 C1095 0.931 . S
H1119 C1125 0.930 . S
H1120 C1158 0.930 . S
H1121 C1102 0.930 . S
H1122 C1157 0.931 . S
N1123 Eu1092 2.657 . S
N1123 C1124 1.334 . S
N1123 C1128 1.362 . S
C1124 H1116 0.929 . S
C1124 N1123 1.334 . S
C1124 C1127 1.413 . S
C1125 H1119 0.930 . S
C1125 C1126 1.392 . S
C1125 C1127 1.367 . S
C1126 C1125 1.392 . S
C1126 C1128 1.420 . S
C1126 C1158 1.423 . S
C1127 H1113 0.930 . S
C1127 C1124 1.413 . S
C1127 C1125 1.367 . S
C1128 N1123 1.362 . S
C1128 C1126 1.420 . S
C1128 C1132 1.429 . S
H1129 C1134 0.930 . S
N1130 Eu1092 2.609 . S
N1130 C1132 1.377 . S
N1130 C1133 1.321 . S
C1131 H1117 0.930 . S
C1131 C1133 1.400 . S
C1131 C1134 1.386 . S
C1132 C1128 1.429 . S
C1132 N1130 1.377 . S
C1132 C1135 1.411 . S
C1133 H1115 0.930 . S
C1133 N1130 1.321 . S
C1133 C1131 1.400 . S
C1134 H1129 0.930 . S
C1134 C1131 1.386 . S
C1134 C1135 1.395 . S
C1135 C1132 1.411 . S
C1135 C1134 1.395 . S
C1135 C1157 1.420 . S
O1136 Eu1092 2.558 . S
O1136 C1156 1.257 . S
O1137 Eu1092 2.612 . S
O1137 Eu1103 2.380 . S
O1137 C1148 1.276 . S
O1138 Eu1103 2.432 . S
O1138 C1155 1.264 . S
O1139 Eu1092 2.339 . S
O1139 C1155 1.254 . S
O1140 Eu1092 2.563 . S
O1140 C1148 1.235 . S
O1141 Eu1092 2.419 . S
O1141 C1156 1.249 . S
O1142 Eu1103 2.558 . S
O1142 C1167 1.257 . S
O1143 Eu1092 2.380 . S
O1143 Eu1103 2.612 . S
O1143 C1159 1.276 . S
O1144 Eu1092 2.432 . S
O1144 C1166 1.264 . S
O1145 Eu1103 2.339 . S
O1145 C1166 1.254 . S
O1146 Eu1103 2.563 . S
O1146 C1159 1.235 . S
O1147 Eu1103 2.419 . S
O1147 C1167 1.249 . S
C1148 O1137 1.276 . S
C1148 O1140 1.235 . S
C1149 C1151 1.393 . S
C1149 C1153 1.395 . S
C1149 C1156 1.492 . S
C1150 C1151 1.392 1_455 S
C1150 C1152 1.386 . S
C1151 C1149 1.393 . S
C1151 C1150 1.392 1_655 S
C1151 H1168 0.930 . S
C1152 C1150 1.386 . S
C1152 C1154 1.395 . S
C1152 H1169 0.930 . S
C1153 C1149 1.395 . S
C1153 C1154 1.379 1_655 S
C1153 H1170 0.930 . S
C1154 C1152 1.395 . S
C1154 C1153 1.379 1_455 S
C1154 H1171 0.930 . S
C1155 O1138 1.264 . S
C1155 O1139 1.254 . S
C1156 Eu1092 2.848 . S
C1156 O1136 1.257 . S
C1156 O1141 1.249 . S
C1156 C1149 1.492 . S
C1157 H1122 0.931 . S
C1157 C1135 1.420 . S
C1157 C1158 1.351 . S
C1158 H1120 0.930 . S
C1158 C1126 1.423 . S
C1158 C1157 1.351 . S
C1159 O1143 1.276 . S
C1159 O1146 1.235 . S
C1160 C1161 1.393 . S
C1160 C1164 1.395 . S
C1160 C1167 1.492 . S
C1161 C1160 1.393 . S
C1161 C1162 1.392 . S
C1161 H1172 0.930 . S
C1162 C1161 1.392 . S
C1162 C1163 1.386 . S
C1163 C1162 1.386 . S
C1163 C1165 1.395 . S
C1163 H1173 0.930 . S
C1164 C1160 1.395 . S
C1164 C1165 1.379 . S
C1164 H1174 0.930 . S
C1165 C1163 1.395 . S
C1165 C1164 1.379 . S
C1165 H1175 0.930 . S
C1166 O1144 1.264 . S
C1166 O1145 1.254 . S
C1167 Eu1103 2.848 . S
C1167 O1142 1.257 . S
C1167 O1147 1.249 . S
C1167 C1160 1.492 . S
H1168 C1151 0.930 . S
H1169 C1152 0.930 . S
H1170 C1153 0.930 . S
H1171 C1154 0.930 . S
H1172 C1161 0.930 . S
H1173 C1163 0.930 . S
H1174 C1164 0.930 . S
H1175 C1165 0.930 . S
Eu1176 N1207 2.657 . S
Eu1176 N1214 2.609 . S
Eu1176 O1220 2.558 . S
Eu1176 O1221 2.612 . S
Eu1176 O1223 2.339 . S
Eu1176 O1224 2.563 . S
Eu1176 O1225 2.419 . S
Eu1176 O1227 2.380 . S
Eu1176 O1228 2.432 . S
Eu1176 C1240 2.848 . S
C1177 C1180 1.429 . S
C1177 C1181 1.411 1_455 S
C1177 N1184 1.377 . S
C1178 C1180 1.420 1_655 S
C1178 C1182 1.423 . S
C1178 C1190 1.392 . S
C1179 C1181 1.420 . S
C1179 C1182 1.351 . S
C1179 H1202 0.931 . S
C1180 C1177 1.429 . S
C1180 C1178 1.420 1_455 S
C1180 N1188 1.362 . S
C1181 C1177 1.411 1_655 S
C1181 C1179 1.420 . S
C1181 C1186 1.395 . S
C1182 C1178 1.423 . S
C1182 C1179 1.351 . S
C1182 H1194 0.930 . S
C1183 C1185 1.400 . S
C1183 C1186 1.386 1_455 S
C1183 H1195 0.930 . S
N1184 C1177 1.377 . S
N1184 C1185 1.321 . S
N1184 Eu1187 2.609 . S
C1185 C1183 1.400 . S
C1185 N1184 1.321 . S
C1185 H1192 0.930 . S
C1186 C1181 1.395 . S
C1186 C1183 1.386 1_655 S
C1186 H1205 0.930 . S
Eu1187 N1184 2.609 . S
Eu1187 N1188 2.657 . S
Eu1187 O1221 2.380 . S
Eu1187 O1222 2.432 . S
Eu1187 O1226 2.558 . S
Eu1187 O1227 2.612 . S
Eu1187 O1229 2.339 . S
Eu1187 O1230 2.563 . S
Eu1187 O1231 2.419 . S
Eu1187 C1251 2.848 . S
N1188 C1180 1.362 . S
N1188 Eu1187 2.657 . S
N1188 C1189 1.334 . S
C1189 N1188 1.334 . S
C1189 C1191 1.413 1_455 S
C1189 H1196 0.929 . S
C1190 C1178 1.392 . S
C1190 C1191 1.367 . S
C1190 H1198 0.930 . S
C1191 C1189 1.413 1_655 S
C1191 C1190 1.367 . S
C1191 H1193 0.930 . S
H1192 C1185 0.930 . S
H1193 C1191 0.930 . S
H1194 C1182 0.930 . S
H1195 C1183 0.930 . S
H1196 C1189 0.929 . S
H1197 C1211 0.930 . S
H1198 C1190 0.930 . S
H1199 C1217 0.930 . S
H1200 C1208 0.929 . S
H1201 C1215 0.930 . S
H1202 C1179 0.931 . S
H1203 C1209 0.930 . S
H1204 C1242 0.930 . S
H1205 C1186 0.930 . S
H1206 C1241 0.931 . S
N1207 Eu1176 2.657 . S
N1207 C1208 1.334 . S
N1207 C1212 1.362 . S
C1208 H1200 0.929 . S
C1208 N1207 1.334 . S
C1208 C1211 1.413 . S
C1209 H1203 0.930 . S
C1209 C1210 1.392 . S
C1209 C1211 1.367 . S
C1210 C1209 1.392 . S
C1210 C1212 1.420 . S
C1210 C1242 1.423 . S
C1211 H1197 0.930 . S
C1211 C1208 1.413 . S
C1211 C1209 1.367 . S
C1212 N1207 1.362 . S
C1212 C1210 1.420 . S
C1212 C1216 1.429 . S
H1213 C1218 0.930 . S
N1214 Eu1176 2.609 . S
N1214 C1216 1.377 . S
N1214 C1217 1.321 . S
C1215 H1201 0.930 . S
C1215 C1217 1.400 . S
C1215 C1218 1.386 . S
C1216 C1212 1.429 . S
C1216 N1214 1.377 . S
C1216 C1219 1.411 . S
C1217 H1199 0.930 . S
C1217 N1214 1.321 . S
C1217 C1215 1.400 . S
C1218 H1213 0.930 . S
C1218 C1215 1.386 . S
C1218 C1219 1.395 . S
C1219 C1216 1.411 . S
C1219 C1218 1.395 . S
C1219 C1241 1.420 . S
O1220 Eu1176 2.558 . S
O1220 C1240 1.257 . S
O1221 Eu1176 2.612 . S
O1221 Eu1187 2.380 . S
O1221 C1232 1.276 . S
O1222 Eu1187 2.432 . S
O1222 C1239 1.264 . S
O1223 Eu1176 2.339 . S
O1223 C1239 1.254 . S
O1224 Eu1176 2.563 . S
O1224 C1232 1.235 . S
O1225 Eu1176 2.419 . S
O1225 C1240 1.249 . S
O1226 Eu1187 2.558 . S
O1226 C1251 1.257 . S
O1227 Eu1176 2.380 . S
O1227 Eu1187 2.612 . S
O1227 C1243 1.276 . S
O1228 Eu1176 2.432 . S
O1228 C1250 1.264 . S
O1229 Eu1187 2.339 . S
O1229 C1250 1.254 . S
O1230 Eu1187 2.563 . S
O1230 C1243 1.235 . S
O1231 Eu1187 2.419 . S
O1231 C1251 1.249 . S
C1232 O1221 1.276 . S
C1232 O1224 1.235 . S
C1233 C1235 1.393 . S
C1233 C1237 1.395 . S
C1233 C1240 1.492 . S
C1234 C1235 1.392 . S
C1234 C1236 1.386 . S
C1235 C1233 1.393 . S
C1235 C1234 1.392 . S
C1235 H1252 0.930 . S
C1236 C1234 1.386 . S
C1236 C1238 1.395 . S
C1236 H1253 0.930 . S
C1237 C1233 1.395 . S
C1237 C1238 1.379 . S
C1237 H1254 0.930 . S
C1238 C1236 1.395 . S
C1238 C1237 1.379 . S
C1238 H1255 0.930 . S
C1239 O1222 1.264 . S
C1239 O1223 1.254 . S
C1240 Eu1176 2.848 . S
C1240 O1220 1.257 . S
C1240 O1225 1.249 . S
C1240 C1233 1.492 . S
C1241 H1206 0.931 . S
C1241 C1219 1.420 . S
C1241 C1242 1.351 . S
C1242 H1204 0.930 . S
C1242 C1210 1.423 . S
C1242 C1241 1.351 . S
C1243 O1227 1.276 . S
C1243 O1230 1.235 . S
C1244 C1245 1.393 . S
C1244 C1248 1.395 . S
C1244 C1251 1.492 . S
C1245 C1244 1.393 . S
C1245 C1246 1.392 . S
C1245 H1256 0.930 . S
C1246 C1245 1.392 . S
C1246 C1247 1.386 . S
C1247 C1246 1.386 . S
C1247 C1249 1.395 . S
C1247 H1257 0.930 . S
C1248 C1244 1.395 . S
C1248 C1249 1.379 . S
C1248 H1258 0.930 . S
C1249 C1247 1.395 . S
C1249 C1248 1.379 . S
C1249 H1259 0.930 . S
C1250 O1228 1.264 . S
C1250 O1229 1.254 . S
C1251 Eu1187 2.848 . S
C1251 O1226 1.257 . S
C1251 O1231 1.249 . S
C1251 C1244 1.492 . S
H1252 C1235 0.930 . S
H1253 C1236 0.930 . S
H1254 C1237 0.930 . S
H1255 C1238 0.930 . S
H1256 C1245 0.930 . S
H1257 C1247 0.930 . S
H1258 C1248 0.930 . S
H1259 C1249 0.930 . S
Eu1260 N1291 2.657 . S
Eu1260 N1298 2.609 . S
Eu1260 O1304 2.558 . S
Eu1260 O1305 2.612 . S
Eu1260 O1307 2.339 . S
Eu1260 O1308 2.563 . S
Eu1260 O1309 2.419 . S
Eu1260 O1311 2.380 . S
Eu1260 O1312 2.432 . S
Eu1260 C1324 2.848 . S
C1261 C1264 1.429 . S
C1261 C1265 1.411 . S
C1261 N1268 1.377 . S
C1262 C1264 1.420 . S
C1262 C1266 1.423 . S
C1262 C1274 1.392 . S
C1263 C1265 1.420 . S
C1263 C1266 1.351 . S
C1263 H1286 0.931 . S
C1264 C1261 1.429 . S
C1264 C1262 1.420 . S
C1264 N1272 1.362 . S
C1265 C1261 1.411 . S
C1265 C1263 1.420 . S
C1265 C1270 1.395 . S
C1266 C1262 1.423 . S
C1266 C1263 1.351 . S
C1266 H1278 0.930 . S
C1267 C1269 1.400 . S
C1267 C1270 1.386 . S
C1267 H1279 0.930 . S
N1268 C1261 1.377 . S
N1268 C1269 1.321 . S
N1268 Eu1271 2.609 . S
C1269 C1267 1.400 . S
C1269 N1268 1.321 . S
C1269 H1276 0.930 . S
C1270 C1265 1.395 . S
C1270 C1267 1.386 . S
C1270 H1289 0.930 . S
Eu1271 N1268 2.609 . S
Eu1271 N1272 2.657 . S
Eu1271 O1305 2.380 . S
Eu1271 O1306 2.432 . S
Eu1271 O1310 2.558 . S
Eu1271 O1311 2.612 . S
Eu1271 O1313 2.339 . S
Eu1271 O1314 2.563 . S
Eu1271 O1315 2.419 . S
Eu1271 C1335 2.848 . S
N1272 C1264 1.362 . S
N1272 Eu1271 2.657 . S
N1272 C1273 1.334 . S
C1273 N1272 1.334 . S
C1273 C1275 1.413 . S
C1273 H1280 0.929 . S
C1274 C1262 1.392 . S
C1274 C1275 1.367 . S
C1274 H1282 0.930 . S
C1275 C1273 1.413 . S
C1275 C1274 1.367 . S
C1275 H1277 0.930 . S
H1276 C1269 0.930 . S
H1277 C1275 0.930 . S
H1278 C1266 0.930 . S
H1279 C1267 0.930 . S
H1280 C1273 0.929 . S
H1281 C1295 0.930 . S
H1282 C1274 0.930 . S
H1283 C1301 0.930 . S
H1284 C1292 0.929 . S
H1285 C1299 0.930 . S
H1286 C1263 0.931 . S
H1287 C1293 0.930 . S
H1288 C1326 0.930 . S
H1289 C1270 0.930 . S
H1290 C1325 0.931 . S
N1291 Eu1260 2.657 . S
N1291 C1292 1.334 . S
N1291 C1296 1.362 . S
C1292 H1284 0.929 . S
C1292 N1291 1.334 . S
C1292 C1295 1.413 . S
C1293 H1287 0.930 . S
C1293 C1294 1.392 . S
C1293 C1295 1.367 . S
C1294 C1293 1.392 . S
C1294 C1296 1.420 . S
C1294 C1326 1.423 . S
C1295 H1281 0.930 . S
C1295 C1292 1.413 . S
C1295 C1293 1.367 . S
C1296 N1291 1.362 . S
C1296 C1294 1.420 . S
C1296 C1300 1.429 . S
H1297 C1302 0.930 . S
N1298 Eu1260 2.609 . S
N1298 C1300 1.377 . S
N1298 C1301 1.321 . S
C1299 H1285 0.930 . S
C1299 C1301 1.400 . S
C1299 C1302 1.386 . S
C1300 C1296 1.429 . S
C1300 N1298 1.377 . S
C1300 C1303 1.411 . S
C1301 H1283 0.930 . S
C1301 N1298 1.321 . S
C1301 C1299 1.400 . S
C1302 H1297 0.930 . S
C1302 C1299 1.386 . S
C1302 C1303 1.395 . S
C1303 C1300 1.411 . S
C1303 C1302 1.395 . S
C1303 C1325 1.420 . S
O1304 Eu1260 2.558 . S
O1304 C1324 1.257 . S
O1305 Eu1260 2.612 . S
O1305 Eu1271 2.380 . S
O1305 C1316 1.276 . S
O1306 Eu1271 2.432 . S
O1306 C1323 1.264 . S
O1307 Eu1260 2.339 . S
O1307 C1323 1.254 . S
O1308 Eu1260 2.563 . S
O1308 C1316 1.235 . S
O1309 Eu1260 2.419 . S
O1309 C1324 1.249 . S
O1310 Eu1271 2.558 . S
O1310 C1335 1.257 . S
O1311 Eu1260 2.380 . S
O1311 Eu1271 2.612 . S
O1311 C1327 1.276 . S
O1312 Eu1260 2.432 . S
O1312 C1334 1.264 . S
O1313 Eu1271 2.339 . S
O1313 C1334 1.254 . S
O1314 Eu1271 2.563 . S
O1314 C1327 1.235 . S
O1315 Eu1271 2.419 . S
O1315 C1335 1.249 . S
C1316 O1305 1.276 . S
C1316 O1308 1.235 . S
C1317 C1319 1.393 . S
C1317 C1321 1.395 . S
C1317 C1324 1.492 . S
C1318 C1319 1.392 . S
C1318 C1320 1.386 . S
C1319 C1317 1.393 . S
C1319 C1318 1.392 . S
C1319 H1336 0.930 . S
C1320 C1318 1.386 . S
C1320 C1322 1.395 . S
C1320 H1337 0.930 . S
C1321 C1317 1.395 . S
C1321 C1322 1.379 . S
C1321 H1338 0.930 . S
C1322 C1320 1.395 . S
C1322 C1321 1.379 . S
C1322 H1339 0.930 . S
C1323 O1306 1.264 . S
C1323 O1307 1.254 . S
C1324 Eu1260 2.848 . S
C1324 O1304 1.257 . S
C1324 O1309 1.249 . S
C1324 C1317 1.492 . S
C1325 H1290 0.931 . S
C1325 C1303 1.420 . S
C1325 C1326 1.351 . S
C1326 H1288 0.930 . S
C1326 C1294 1.423 . S
C1326 C1325 1.351 . S
C1327 O1311 1.276 . S
C1327 O1314 1.235 . S
C1328 C1329 1.393 . S
C1328 C1332 1.395 . S
C1328 C1335 1.492 . S
C1329 C1328 1.393 . S
C1329 C1330 1.392 . S
C1329 H1340 0.930 . S
C1330 C1329 1.392 . S
C1330 C1331 1.386 . S
C1331 C1330 1.386 . S
C1331 C1333 1.395 . S
C1331 H1341 0.930 . S
C1332 C1328 1.395 . S
C1332 C1333 1.379 . S
C1332 H1342 0.930 . S
C1333 C1331 1.395 . S
C1333 C1332 1.379 . S
C1333 H1343 0.930 . S
C1334 O1312 1.264 . S
C1334 O1313 1.254 . S
C1335 Eu1271 2.848 . S
C1335 O1310 1.257 . S
C1335 O1315 1.249 . S
C1335 C1328 1.492 . S
H1336 C1319 0.930 . S
H1337 C1320 0.930 . S
H1338 C1321 0.930 . S
H1339 C1322 0.930 . S
H1340 C1329 0.930 . S
H1341 C1331 0.930 . S
H1342 C1332 0.930 . S
H1343 C1333 0.930 . S
Eu1344 N1375 2.657 . S
Eu1344 N1382 2.609 . S
Eu1344 O1388 2.558 . S
Eu1344 O1389 2.612 . S
Eu1344 O1391 2.339 . S
Eu1344 O1392 2.563 . S
Eu1344 O1393 2.419 . S
Eu1344 O1395 2.380 . S
Eu1344 O1396 2.432 . S
Eu1344 C1408 2.848 . S
C1345 C1348 1.429 . S
C1345 C1349 1.411 . S
C1345 N1352 1.377 . S
C1346 C1348 1.420 . S
C1346 C1350 1.423 . S
C1346 C1358 1.392 . S
C1347 C1349 1.420 . S
C1347 C1350 1.351 . S
C1347 H1370 0.931 . S
C1348 C1345 1.429 . S
C1348 C1346 1.420 . S
C1348 N1356 1.362 . S
C1349 C1345 1.411 . S
C1349 C1347 1.420 . S
C1349 C1354 1.395 . S
C1350 C1346 1.423 . S
C1350 C1347 1.351 . S
C1350 H1362 0.930 . S
C1351 C1353 1.400 . S
C1351 C1354 1.386 . S
C1351 H1363 0.930 . S
N1352 C1345 1.377 . S
N1352 C1353 1.321 . S
N1352 Eu1355 2.609 . S
C1353 C1351 1.400 . S
C1353 N1352 1.321 . S
C1353 H1360 0.930 . S
C1354 C1349 1.395 . S
C1354 C1351 1.386 . S
C1354 H1373 0.930 . S
Eu1355 N1352 2.609 . S
Eu1355 N1356 2.657 . S
Eu1355 O1389 2.380 . S
Eu1355 O1390 2.432 . S
Eu1355 O1394 2.558 . S
Eu1355 O1395 2.612 . S
Eu1355 O1397 2.339 . S
Eu1355 O1398 2.563 . S
Eu1355 O1399 2.419 . S
Eu1355 C1419 2.848 . S
N1356 C1348 1.362 . S
N1356 Eu1355 2.657 . S
N1356 C1357 1.334 . S
C1357 N1356 1.334 . S
C1357 C1359 1.413 . S
C1357 H1364 0.929 . S
C1358 C1346 1.392 . S
C1358 C1359 1.367 . S
C1358 H1366 0.930 . S
C1359 C1357 1.413 . S
C1359 C1358 1.367 . S
C1359 H1361 0.930 . S
H1360 C1353 0.930 . S
H1361 C1359 0.930 . S
H1362 C1350 0.930 . S
H1363 C1351 0.930 . S
H1364 C1357 0.929 . S
H1365 C1379 0.930 . S
H1366 C1358 0.930 . S
H1367 C1385 0.930 . S
H1368 C1376 0.929 . S
H1369 C1383 0.930 . S
H1370 C1347 0.931 . S
H1371 C1377 0.930 . S
H1372 C1410 0.930 . S
H1373 C1354 0.930 . S
H1374 C1409 0.931 . S
N1375 Eu1344 2.657 . S
N1375 C1376 1.334 . S
N1375 C1380 1.362 . S
C1376 H1368 0.929 . S
C1376 N1375 1.334 . S
C1376 C1379 1.413 . S
C1377 H1371 0.930 . S
C1377 C1378 1.392 . S
C1377 C1379 1.367 . S
C1378 C1377 1.392 . S
C1378 C1380 1.420 . S
C1378 C1410 1.423 . S
C1379 H1365 0.930 . S
C1379 C1376 1.413 . S
C1379 C1377 1.367 . S
C1380 N1375 1.362 . S
C1380 C1378 1.420 . S
C1380 C1384 1.429 . S
H1381 C1386 0.930 . S
N1382 Eu1344 2.609 . S
N1382 C1384 1.377 . S
N1382 C1385 1.321 . S
C1383 H1369 0.930 . S
C1383 C1385 1.400 . S
C1383 C1386 1.386 . S
C1384 C1380 1.429 . S
C1384 N1382 1.377 . S
C1384 C1387 1.411 . S
C1385 H1367 0.930 . S
C1385 N1382 1.321 . S
C1385 C1383 1.400 . S
C1386 H1381 0.930 . S
C1386 C1383 1.386 . S
C1386 C1387 1.395 . S
C1387 C1384 1.411 . S
C1387 C1386 1.395 . S
C1387 C1409 1.420 . S
O1388 Eu1344 2.558 . S
O1388 C1408 1.257 . S
O1389 Eu1344 2.612 . S
O1389 Eu1355 2.380 . S
O1389 C1400 1.276 . S
O1390 Eu1355 2.432 . S
O1390 C1407 1.264 . S
O1391 Eu1344 2.339 . S
O1391 C1407 1.254 . S
O1392 Eu1344 2.563 . S
O1392 C1400 1.235 . S
O1393 Eu1344 2.419 . S
O1393 C1408 1.249 . S
O1394 Eu1355 2.558 . S
O1394 C1419 1.257 . S
O1395 Eu1344 2.380 . S
O1395 Eu1355 2.612 . S
O1395 C1411 1.276 . S
O1396 Eu1344 2.432 . S
O1396 C1418 1.264 . S
O1397 Eu1355 2.339 . S
O1397 C1418 1.254 . S
O1398 Eu1355 2.563 . S
O1398 C1411 1.235 . S
O1399 Eu1355 2.419 . S
O1399 C1419 1.249 . S
C1400 O1389 1.276 . S
C1400 O1392 1.235 . S
C1401 C1403 1.393 . S
C1401 C1405 1.395 . S
C1401 C1408 1.492 . S
C1402 C1403 1.392 . S
C1402 C1404 1.386 . S
C1403 C1401 1.393 . S
C1403 C1402 1.392 . S
C1403 H1420 0.930 . S
C1404 C1402 1.386 . S
C1404 C1406 1.395 . S
C1404 H1421 0.930 . S
C1405 C1401 1.395 . S
C1405 C1406 1.379 . S
C1405 H1422 0.930 . S
C1406 C1404 1.395 . S
C1406 C1405 1.379 . S
C1406 H1423 0.930 . S
C1407 O1390 1.264 . S
C1407 O1391 1.254 . S
C1408 Eu1344 2.848 . S
C1408 O1388 1.257 . S
C1408 O1393 1.249 . S
C1408 C1401 1.492 . S
C1409 H1374 0.931 . S
C1409 C1387 1.420 . S
C1409 C1410 1.351 . S
C1410 H1372 0.930 . S
C1410 C1378 1.423 . S
C1410 C1409 1.351 . S
C1411 O1395 1.276 . S
C1411 O1398 1.235 . S
C1412 C1413 1.393 . S
C1412 C1416 1.395 . S
C1412 C1419 1.492 . S
C1413 C1412 1.393 . S
C1413 C1414 1.392 . S
C1413 H1424 0.930 . S
C1414 C1413 1.392 . S
C1414 C1415 1.386 . S
C1415 C1414 1.386 . S
C1415 C1417 1.395 . S
C1415 H1425 0.930 . S
C1416 C1412 1.395 . S
C1416 C1417 1.379 . S
C1416 H1426 0.930 . S
C1417 C1415 1.395 . S
C1417 C1416 1.379 . S
C1417 H1427 0.930 . S
C1418 O1396 1.264 . S
C1418 O1397 1.254 . S
C1419 Eu1355 2.848 . S
C1419 O1394 1.257 . S
C1419 O1399 1.249 . S
C1419 C1412 1.492 . S
H1420 C1403 0.930 . S
H1421 C1404 0.930 . S
H1422 C1405 0.930 . S
H1423 C1406 0.930 . S
H1424 C1413 0.930 . S
H1425 C1415 0.930 . S
H1426 C1416 0.930 . S
H1427 C1417 0.930 . S
Eu1428 N1459 2.657 . S
Eu1428 N1466 2.609 . S
Eu1428 O1472 2.558 . S
Eu1428 O1473 2.612 . S
Eu1428 O1475 2.339 . S
Eu1428 O1476 2.563 . S
Eu1428 O1477 2.419 . S
Eu1428 O1479 2.380 . S
Eu1428 O1480 2.432 . S
Eu1428 C1492 2.848 . S
C1429 C1432 1.429 . S
C1429 C1433 1.411 . S
C1429 N1436 1.377 . S
C1430 C1432 1.420 . S
C1430 C1434 1.423 . S
C1430 C1442 1.392 . S
C1431 C1433 1.420 . S
C1431 C1434 1.351 . S
C1431 H1454 0.931 . S
C1432 C1429 1.429 . S
C1432 C1430 1.420 . S
C1432 N1440 1.362 . S
C1433 C1429 1.411 . S
C1433 C1431 1.420 . S
C1433 C1438 1.395 . S
C1434 C1430 1.423 . S
C1434 C1431 1.351 . S
C1434 H1446 0.930 . S
C1435 C1437 1.400 . S
C1435 C1438 1.386 . S
C1435 H1447 0.930 . S
N1436 C1429 1.377 . S
N1436 C1437 1.321 . S
N1436 Eu1439 2.609 . S
C1437 C1435 1.400 . S
C1437 N1436 1.321 . S
C1437 H1444 0.930 . S
C1438 C1433 1.395 . S
C1438 C1435 1.386 . S
C1438 H1457 0.930 . S
Eu1439 N1436 2.609 . S
Eu1439 N1440 2.657 . S
Eu1439 O1473 2.380 . S
Eu1439 O1474 2.432 . S
Eu1439 O1478 2.558 . S
Eu1439 O1479 2.612 . S
Eu1439 O1481 2.339 . S
Eu1439 O1482 2.563 . S
Eu1439 O1483 2.419 . S
Eu1439 C1503 2.848 . S
N1440 C1432 1.362 . S
N1440 Eu1439 2.657 . S
N1440 C1441 1.334 . S
C1441 N1440 1.334 . S
C1441 C1443 1.413 . S
C1441 H1448 0.929 . S
C1442 C1430 1.392 . S
C1442 C1443 1.367 . S
C1442 H1450 0.930 . S
C1443 C1441 1.413 . S
C1443 C1442 1.367 . S
C1443 H1445 0.930 . S
H1444 C1437 0.930 . S
H1445 C1443 0.930 . S
H1446 C1434 0.930 . S
H1447 C1435 0.930 . S
H1448 C1441 0.929 . S
H1449 C1463 0.930 . S
H1450 C1442 0.930 . S
H1451 C1469 0.930 . S
H1452 C1460 0.929 . S
H1453 C1467 0.930 . S
H1454 C1431 0.931 . S
H1455 C1461 0.930 . S
H1456 C1494 0.930 . S
H1457 C1438 0.930 . S
H1458 C1493 0.931 . S
N1459 Eu1428 2.657 . S
N1459 C1460 1.334 . S
N1459 C1464 1.362 . S
C1460 H1452 0.929 . S
C1460 N1459 1.334 . S
C1460 C1463 1.413 . S
C1461 H1455 0.930 . S
C1461 C1462 1.392 . S
C1461 C1463 1.367 . S
C1462 C1461 1.392 . S
C1462 C1464 1.420 . S
C1462 C1494 1.423 . S
C1463 H1449 0.930 . S
C1463 C1460 1.413 . S
C1463 C1461 1.367 . S
C1464 N1459 1.362 . S
C1464 C1462 1.420 . S
C1464 C1468 1.429 . S
H1465 C1470 0.930 . S
N1466 Eu1428 2.609 . S
N1466 C1468 1.377 . S
N1466 C1469 1.321 . S
C1467 H1453 0.930 . S
C1467 C1469 1.400 . S
C1467 C1470 1.386 . S
C1468 C1464 1.429 . S
C1468 N1466 1.377 . S
C1468 C1471 1.411 . S
C1469 H1451 0.930 . S
C1469 N1466 1.321 . S
C1469 C1467 1.400 . S
C1470 H1465 0.930 . S
C1470 C1467 1.386 . S
C1470 C1471 1.395 . S
C1471 C1468 1.411 . S
C1471 C1470 1.395 . S
C1471 C1493 1.420 . S
O1472 Eu1428 2.558 . S
O1472 C1492 1.257 . S
O1473 Eu1428 2.612 . S
O1473 Eu1439 2.380 . S
O1473 C1484 1.276 . S
O1474 Eu1439 2.432 . S
O1474 C1491 1.264 . S
O1475 Eu1428 2.339 . S
O1475 C1491 1.254 . S
O1476 Eu1428 2.563 . S
O1476 C1484 1.235 . S
O1477 Eu1428 2.419 . S
O1477 C1492 1.249 . S
O1478 Eu1439 2.558 . S
O1478 C1503 1.257 . S
O1479 Eu1428 2.380 . S
O1479 Eu1439 2.612 . S
O1479 C1495 1.276 . S
O1480 Eu1428 2.432 . S
O1480 C1502 1.264 . S
O1481 Eu1439 2.339 . S
O1481 C1502 1.254 . S
O1482 Eu1439 2.563 . S
O1482 C1495 1.235 . S
O1483 Eu1439 2.419 . S
O1483 C1503 1.249 . S
C1484 O1473 1.276 . S
C1484 O1476 1.235 . S
C1485 C1487 1.393 . S
C1485 C1489 1.395 . S
C1485 C1492 1.492 . S
C1486 C1487 1.392 . S
C1486 C1488 1.386 . S
C1487 C1485 1.393 . S
C1487 C1486 1.392 . S
C1487 H1504 0.930 . S
C1488 C1486 1.386 . S
C1488 C1490 1.395 . S
C1488 H1505 0.930 1_565 S
C1489 C1485 1.395 . S
C1489 C1490 1.379 . S
C1489 H1506 0.930 . S
C1490 C1488 1.395 . S
C1490 C1489 1.379 . S
C1490 H1507 0.930 . S
C1491 O1474 1.264 . S
C1491 O1475 1.254 . S
C1492 Eu1428 2.848 . S
C1492 O1472 1.257 . S
C1492 O1477 1.249 . S
C1492 C1485 1.492 . S
C1493 H1458 0.931 . S
C1493 C1471 1.420 . S
C1493 C1494 1.351 . S
C1494 H1456 0.930 . S
C1494 C1462 1.423 . S
C1494 C1493 1.351 . S
C1495 O1479 1.276 . S
C1495 O1482 1.235 . S
C1496 C1497 1.393 . S
C1496 C1500 1.395 . S
C1496 C1503 1.492 . S
C1497 C1496 1.393 . S
C1497 C1498 1.392 . S
C1497 H1508 0.930 . S
C1498 C1497 1.392 . S
C1498 C1499 1.386 . S
C1499 C1498 1.386 . S
C1499 C1501 1.395 . S
C1499 H1509 0.930 . S
C1500 C1496 1.395 . S
C1500 C1501 1.379 . S
C1500 H1510 0.930 . S
C1501 C1499 1.395 . S
C1501 C1500 1.379 . S
C1501 H1511 0.930 . S
C1502 O1480 1.264 . S
C1502 O1481 1.254 . S
C1503 Eu1439 2.848 . S
C1503 O1478 1.257 . S
C1503 O1483 1.249 . S
C1503 C1496 1.492 . S
H1504 C1487 0.930 . S
H1505 C1488 0.930 1_545 S
H1506 C1489 0.930 . S
H1507 C1490 0.930 . S
H1508 C1497 0.930 . S
H1509 C1499 0.930 . S
H1510 C1500 0.930 . S
H1511 C1501 0.930 . S
Eu1512 N1543 2.657 . S
Eu1512 N1550 2.609 . S
Eu1512 O1556 2.558 . S
Eu1512 O1557 2.612 . S
Eu1512 O1559 2.339 . S
Eu1512 O1560 2.563 . S
Eu1512 O1561 2.419 . S
Eu1512 O1563 2.380 . S
Eu1512 O1564 2.432 . S
Eu1512 C1576 2.848 . S
C1513 C1516 1.429 . S
C1513 C1517 1.411 . S
C1513 N1520 1.377 . S
C1514 C1516 1.420 . S
C1514 C1518 1.423 . S
C1514 C1526 1.392 . S
C1515 C1517 1.420 . S
C1515 C1518 1.351 . S
C1515 H1538 0.931 . S
C1516 C1513 1.429 . S
C1516 C1514 1.420 . S
C1516 N1524 1.362 . S
C1517 C1513 1.411 . S
C1517 C1515 1.420 . S
C1517 C1522 1.395 . S
C1518 C1514 1.423 . S
C1518 C1515 1.351 . S
C1518 H1530 0.930 . S
C1519 C1521 1.400 . S
C1519 C1522 1.386 . S
C1519 H1531 0.930 . S
N1520 C1513 1.377 . S
N1520 C1521 1.321 . S
N1520 Eu1523 2.609 . S
C1521 C1519 1.400 . S
C1521 N1520 1.321 . S
C1521 H1528 0.930 . S
C1522 C1517 1.395 . S
C1522 C1519 1.386 . S
C1522 H1541 0.930 . S
Eu1523 N1520 2.609 . S
Eu1523 N1524 2.657 . S
Eu1523 O1557 2.380 . S
Eu1523 O1558 2.432 . S
Eu1523 O1562 2.558 . S
Eu1523 O1563 2.612 . S
Eu1523 O1565 2.339 . S
Eu1523 O1566 2.563 . S
Eu1523 O1567 2.419 . S
Eu1523 C1587 2.848 . S
N1524 C1516 1.362 . S
N1524 Eu1523 2.657 . S
N1524 C1525 1.334 . S
C1525 N1524 1.334 . S
C1525 C1527 1.413 . S
C1525 H1532 0.929 . S
C1526 C1514 1.392 . S
C1526 C1527 1.367 . S
C1526 H1534 0.930 . S
C1527 C1525 1.413 . S
C1527 C1526 1.367 . S
C1527 H1529 0.930 . S
H1528 C1521 0.930 . S
H1529 C1527 0.930 . S
H1530 C1518 0.930 . S
H1531 C1519 0.930 . S
H1532 C1525 0.929 . S
H1533 C1547 0.930 . S
H1534 C1526 0.930 . S
H1535 C1553 0.930 . S
H1536 C1544 0.929 . S
H1537 C1551 0.930 . S
H1538 C1515 0.931 . S
H1539 C1545 0.930 . S
H1540 C1578 0.930 . S
H1541 C1522 0.930 . S
H1542 C1577 0.931 . S
N1543 Eu1512 2.657 . S
N1543 C1544 1.334 . S
N1543 C1548 1.362 . S
C1544 H1536 0.929 . S
C1544 N1543 1.334 . S
C1544 C1547 1.413 . S
C1545 H1539 0.930 . S
C1545 C1546 1.392 . S
C1545 C1547 1.367 . S
C1546 C1545 1.392 . S
C1546 C1548 1.420 . S
C1546 C1578 1.423 . S
C1547 H1533 0.930 . S
C1547 C1544 1.413 . S
C1547 C1545 1.367 . S
C1548 N1543 1.362 . S
C1548 C1546 1.420 . S
C1548 C1552 1.429 . S
H1549 C1554 0.930 . S
N1550 Eu1512 2.609 . S
N1550 C1552 1.377 . S
N1550 C1553 1.321 . S
C1551 H1537 0.930 . S
C1551 C1553 1.400 . S
C1551 C1554 1.386 . S
C1552 C1548 1.429 . S
C1552 N1550 1.377 . S
C1552 C1555 1.411 . S
C1553 H1535 0.930 . S
C1553 N1550 1.321 . S
C1553 C1551 1.400 . S
C1554 H1549 0.930 . S
C1554 C1551 1.386 . S
C1554 C1555 1.395 . S
C1555 C1552 1.411 . S
C1555 C1554 1.395 . S
C1555 C1577 1.420 . S
O1556 Eu1512 2.558 . S
O1556 C1576 1.257 . S
O1557 Eu1512 2.612 . S
O1557 Eu1523 2.380 . S
O1557 C1568 1.276 . S
O1558 Eu1523 2.432 . S
O1558 C1575 1.264 . S
O1559 Eu1512 2.339 . S
O1559 C1575 1.254 . S
O1560 Eu1512 2.563 . S
O1560 C1568 1.235 . S
O1561 Eu1512 2.419 . S
O1561 C1576 1.249 . S
O1562 Eu1523 2.558 . S
O1562 C1587 1.257 . S
O1563 Eu1512 2.380 . S
O1563 Eu1523 2.612 . S
O1563 C1579 1.276 . S
O1564 Eu1512 2.432 . S
O1564 C1586 1.264 . S
O1565 Eu1523 2.339 . S
O1565 C1586 1.254 . S
O1566 Eu1523 2.563 . S
O1566 C1579 1.235 . S
O1567 Eu1523 2.419 . S
O1567 C1587 1.249 . S
C1568 O1557 1.276 . S
C1568 O1560 1.235 . S
C1569 C1571 1.393 . S
C1569 C1573 1.395 . S
C1569 C1576 1.492 . S
C1570 C1571 1.392 . S
C1570 C1572 1.386 . S
C1571 C1569 1.393 . S
C1571 C1570 1.392 . S
C1571 H1588 0.930 . S
C1572 C1570 1.386 . S
C1572 C1574 1.395 . S
C1572 H1589 0.930 . S
C1573 C1569 1.395 . S
C1573 C1574 1.379 . S
C1573 H1590 0.930 . S
C1574 C1572 1.395 . S
C1574 C1573 1.379 . S
C1574 H1591 0.930 . S
C1575 O1558 1.264 . S
C1575 O1559 1.254 . S
C1576 Eu1512 2.848 . S
C1576 O1556 1.257 . S
C1576 O1561 1.249 . S
C1576 C1569 1.492 . S
C1577 H1542 0.931 . S
C1577 C1555 1.420 . S
C1577 C1578 1.351 . S
C1578 H1540 0.930 . S
C1578 C1546 1.423 . S
C1578 C1577 1.351 . S
C1579 O1563 1.276 . S
C1579 O1566 1.235 . S
C1580 C1581 1.393 . S
C1580 C1584 1.395 . S
C1580 C1587 1.492 . S
C1581 C1580 1.393 . S
C1581 C1582 1.392 . S
C1581 H1592 0.930 . S
C1582 C1581 1.392 . S
C1582 C1583 1.386 . S
C1583 C1582 1.386 . S
C1583 C1585 1.395 . S
C1583 H1593 0.930 . S
C1584 C1580 1.395 . S
C1584 C1585 1.379 . S
C1584 H1594 0.930 . S
C1585 C1583 1.395 . S
C1585 C1584 1.379 . S
C1585 H1595 0.930 . S
C1586 O1564 1.264 . S
C1586 O1565 1.254 . S
C1587 Eu1523 2.848 . S
C1587 O1562 1.257 . S
C1587 O1567 1.249 . S
C1587 C1580 1.492 . S
H1588 C1571 0.930 . S
H1589 C1572 0.930 . S
H1590 C1573 0.930 . S
H1591 C1574 0.930 . S
H1592 C1581 0.930 . S
H1593 C1583 0.930 . S
H1594 C1584 0.930 . S
H1595 C1585 0.930 . S
Eu1596 N1627 2.657 . S
Eu1596 N1634 2.609 1_554 S
Eu1596 O1640 2.558 1_554 S
Eu1596 O1641 2.612 . S
Eu1596 O1643 2.339 . S
Eu1596 O1644 2.563 . S
Eu1596 O1645 2.419 . S
Eu1596 O1647 2.380 . S
Eu1596 O1648 2.432 1_554 S
Eu1596 C1660 2.848 . S
C1597 C1600 1.429 . S
C1597 C1601 1.411 . S
C1597 N1604 1.377 1_655 S
C1598 C1600 1.420 . S
C1598 C1602 1.423 . S
C1598 C1610 1.392 . S
C1599 C1601 1.420 . S
C1599 C1602 1.351 . S
C1599 H1622 0.931 . S
C1600 C1597 1.429 . S
C1600 C1598 1.420 . S
C1600 N1608 1.362 1_655 S
C1601 C1597 1.411 . S
C1601 C1599 1.420 . S
C1601 C1606 1.395 . S
C1602 C1598 1.423 . S
C1602 C1599 1.351 . S
C1602 H1614 0.930 . S
C1603 C1605 1.400 . S
C1603 C1606 1.386 1_455 S
C1603 H1615 0.930 . S
N1604 C1597 1.377 1_455 S
N1604 C1605 1.321 . S
N1604 Eu1607 2.609 . S
C1605 C1603 1.400 . S
C1605 N1604 1.321 . S
C1605 H1612 0.930 . S
C1606 C1601 1.395 . S
C1606 C1603 1.386 1_655 S
C1606 H1625 0.930 . S
Eu1607 N1604 2.609 . S
Eu1607 N1608 2.657 . S
Eu1607 O1641 2.380 . S
Eu1607 O1642 2.432 . S
Eu1607 O1646 2.558 . S
Eu1607 O1647 2.612 . S
Eu1607 O1649 2.339 . S
Eu1607 O1650 2.563 . S
Eu1607 O1651 2.419 1_455 S
Eu1607 C1671 2.848 1_455 S
N1608 C1600 1.362 1_455 S
N1608 Eu1607 2.657 . S
N1608 C1609 1.334 1_455 S
C1609 N1608 1.334 1_655 S
C1609 C1611 1.413 . S
C1609 H1616 0.929 1_655 S
C1610 C1598 1.392 . S
C1610 C1611 1.367 . S
C1610 H1618 0.930 . S
C1611 C1609 1.413 . S
C1611 C1610 1.367 . S
C1611 H1613 0.930 1_554 S
H1612 C1605 0.930 . S
H1613 C1611 0.930 1_556 S
H1614 C1602 0.930 . S
H1615 C1603 0.930 . S
H1616 C1609 0.929 1_455 S
H1617 C1631 0.930 . S
H1618 C1610 0.930 . S
H1619 C1637 0.930 . S
H1620 C1628 0.929 . S
H1621 C1635 0.930 . S
H1622 C1599 0.931 . S
H1623 C1629 0.930 . S
H1624 C1662 0.930 . S
H1625 C1606 0.930 . S
H1626 C1661 0.931 1_556 S
N1627 Eu1596 2.657 . S
N1627 C1628 1.334 . S
N1627 C1632 1.362 . S
C1628 H1620 0.929 . S
C1628 N1627 1.334 . S
C1628 C1631 1.413 . S
C1629 H1623 0.930 . S
C1629 C1630 1.392 . S
C1629 C1631 1.367 . S
C1630 C1629 1.392 . S
C1630 C1632 1.420 . S
C1630 C1662 1.423 . S
C1631 H1617 0.930 . S
C1631 C1628 1.413 . S
C1631 C1629 1.367 . S
C1632 N1627 1.362 . S
C1632 C1630 1.420 . S
C1632 C1636 1.429 . S
H1633 C1638 0.930 . S
N1634 Eu1596 2.609 1_556 S
N1634 C1636 1.377 1_556 S
N1634 C1637 1.321 . S
C1635 H1621 0.930 . S
C1635 C1637 1.400 . S
C1635 C1638 1.386 . S
C1636 C1632 1.429 . S
C1636 N1634 1.377 1_554 S
C1636 C1639 1.411 1_554 S
C1637 H1619 0.930 . S
C1637 N1634 1.321 . S
C1637 C1635 1.400 . S
C1638 H1633 0.930 . S
C1638 C1635 1.386 . S
C1638 C1639 1.395 . S
C1639 C1636 1.411 1_556 S
C1639 C1638 1.395 . S
C1639 C1661 1.420 1_556 S
O1640 Eu1596 2.558 1_556 S
O1640 C1660 1.257 1_556 S
O1641 Eu1596 2.612 . S
O1641 Eu1607 2.380 . S
O1641 C1652 1.276 . S
O1642 Eu1607 2.432 . S
O1642 C1659 1.264 . S
O1643 Eu1596 2.339 . S
O1643 C1659 1.254 . S
O1644 Eu1596 2.563 . S
O1644 C1652 1.235 . S
O1645 Eu1596 2.419 . S
O1645 C1660 1.249 . S
O1646 Eu1607 2.558 . S
O1646 C1671 1.257 1_455 S
O1647 Eu1596 2.380 . S
O1647 Eu1607 2.612 . S
O1647 C1663 1.276 . S
O1648 Eu1596 2.432 1_556 S
O1648 C1670 1.264 . S
O1649 Eu1607 2.339 . S
O1649 C1670 1.254 1_554 S
O1650 Eu1607 2.563 . S
O1650 C1663 1.235 . S
O1651 Eu1607 2.419 1_655 S
O1651 C1671 1.249 . S
C1652 O1641 1.276 . S
C1652 O1644 1.235 . S
C1653 C1655 1.393 . S
C1653 C1657 1.395 1_554 S
C1653 C1660 1.492 . S
C1654 C1655 1.392 . S
C1654 C1656 1.386 1_554 S
C1655 C1653 1.393 . S
C1655 C1654 1.392 . S
C1655 H1672 0.930 . S
C1656 C1654 1.386 1_556 S
C1656 C1658 1.395 . S
C1656 H1673 0.930 . S
C1657 C1653 1.395 1_556 S
C1657 C1658 1.379 . S
C1657 H1674 0.930 . S
C1658 C1656 1.395 . S
C1658 C1657 1.379 . S
C1658 H1675 0.930 . S
C1659 O1642 1.264 . S
C1659 O1643 1.254 . S
C1660 Eu1596 2.848 . S
C1660 O1640 1.257 1_554 S
C1660 O1645 1.249 . S
C1660 C1653 1.492 . S
C1661 H1626 0.931 1_554 S
C1661 C1639 1.420 1_554 S
C1661 C1662 1.351 . S
C1662 H1624 0.930 . S
C1662 C1630 1.423 . S
C1662 C1661 1.351 . S
C1663 O1647 1.276 . S
C1663 O1650 1.235 . S
C1664 C1665 1.393 . S
C1664 C1668 1.395 . S
C1664 C1671 1.492 . S
C1665 C1664 1.393 . S
C1665 C1666 1.392 . S
C1665 H1676 0.930 . S
C1666 C1665 1.392 . S
C1666 C1667 1.386 . S
C1667 C1666 1.386 . S
C1667 C1669 1.395 . S
C1667 H1677 0.930 . S
C1668 C1664 1.395 . S
C1668 C1669 1.379 . S
C1668 H1678 0.930 . S
C1669 C1667 1.395 . S
C1669 C1668 1.379 . S
C1669 H1679 0.930 . S
C1670 O1648 1.264 . S
C1670 O1649 1.254 1_556 S
C1671 Eu1607 2.848 1_655 S
C1671 O1646 1.257 1_655 S
C1671 O1651 1.249 . S
C1671 C1664 1.492 . S
H1672 C1655 0.930 . S
H1673 C1656 0.930 . S
H1674 C1657 0.930 . S
H1675 C1658 0.930 . S
H1676 C1665 0.930 . S
H1677 C1667 0.930 . S
H1678 C1668 0.930 . S
H1679 C1669 0.930 . S
C1680 C1681 1.387 . S
C1680 H1684 0.950 . S
C1680 C1689 1.390 . S
C1681 C1680 1.387 . S
C1681 C1683 1.387 1_556 S
H1682 C1689 0.950 . S
C1683 C1681 1.387 1_554 S
C1683 C1685 1.390 . S
C1683 H1687 0.950 . S
H1684 C1680 0.950 . S
C1685 C1683 1.390 . S
C1685 C1686 1.387 . S
C1685 H1688 0.950 . S
C1686 C1685 1.387 . S
C1686 C1689 1.387 1_554 S
H1687 C1683 0.950 . S
H1688 C1685 0.950 . S
C1689 C1680 1.390 . S
C1689 H1682 0.950 . S
C1689 C1686 1.387 1_556 S
C1690 C1691 1.387 . S
C1690 H1694 0.950 . S
C1690 C1699 1.390 . S
C1691 C1690 1.387 . S
C1691 C1693 1.387 . S
H1692 C1699 0.950 . S
C1693 C1691 1.387 . S
C1693 C1695 1.390 . S
C1693 H1697 0.950 . S
H1694 C1690 0.950 . S
C1695 C1693 1.390 . S
C1695 C1696 1.387 . S
C1695 H1698 0.950 . S
C1696 C1695 1.387 . S
C1696 C1699 1.387 . S
H1697 C1693 0.950 . S
H1698 C1695 0.950 . S
C1699 C1690 1.390 . S
C1699 H1692 0.950 . S
C1699 C1696 1.387 . S
C1700 C1701 1.387 . S
C1700 H1704 0.950 . S
C1700 C1709 1.390 . S
C1701 C1700 1.387 . S
C1701 C1703 1.387 . S
H1702 C1709 0.950 . S
C1703 C1701 1.387 . S
C1703 C1705 1.390 . S
C1703 H1707 0.950 . S
H1704 C1700 0.950 . S
C1705 C1703 1.390 . S
C1705 C1706 1.387 . S
C1705 H1708 0.950 . S
C1706 C1705 1.387 . S
C1706 C1709 1.387 . S
H1707 C1703 0.950 . S
H1708 C1705 0.950 . S
C1709 C1700 1.390 . S
C1709 H1702 0.950 . S
C1709 C1706 1.387 . S
C1710 C1711 1.387 . S
C1710 H1714 0.950 . S
C1710 C1719 1.390 . S
C1711 C1710 1.387 . S
C1711 C1713 1.387 . S
H1712 C1719 0.950 . S
C1713 C1711 1.387 . S
C1713 C1715 1.390 . S
C1713 H1717 0.950 . S
H1714 C1710 0.950 . S
C1715 C1713 1.390 . S
C1715 C1716 1.387 . S
C1715 H1718 0.950 . S
C1716 C1715 1.387 . S
C1716 C1719 1.387 . S
H1717 C1713 0.950 . S
H1718 C1715 0.950 . S
C1719 C1710 1.390 . S
C1719 H1712 0.950 . S
C1719 C1716 1.387 . S
C1720 C1721 1.387 . S
C1720 H1724 0.950 . S
C1720 C1729 1.390 . S
C1721 C1720 1.387 . S
C1721 C1723 1.387 . S
H1722 C1729 0.950 . S
C1723 C1721 1.387 . S
C1723 C1725 1.390 . S
C1723 H1727 0.950 . S
H1724 C1720 0.950 . S
C1725 C1723 1.390 . S
C1725 C1726 1.387 . S
C1725 H1728 0.950 . S
C1726 C1725 1.387 . S
C1726 C1729 1.387 . S
H1727 C1723 0.950 . S
H1728 C1725 0.950 . S
C1729 C1720 1.390 . S
C1729 H1722 0.950 . S
C1729 C1726 1.387 . S
C1730 C1731 1.387 . S
C1730 H1734 0.950 . S
C1730 C1739 1.390 . S
C1731 C1730 1.387 . S
C1731 C1733 1.387 . S
H1732 C1739 0.950 . S
C1733 C1731 1.387 . S
C1733 C1735 1.390 . S
C1733 H1737 0.950 . S
H1734 C1730 0.950 . S
C1735 C1733 1.390 . S
C1735 C1736 1.387 . S
C1735 H1738 0.950 . S
C1736 C1735 1.387 . S
C1736 C1739 1.387 . S
H1737 C1733 0.950 . S
H1738 C1735 0.950 . S
C1739 C1730 1.390 . S
C1739 H1732 0.950 . S
C1739 C1736 1.387 . S
C1740 C1741 1.387 . S
C1740 H1744 0.950 . S
C1740 C1749 1.390 . S
C1741 C1740 1.387 . S
C1741 C1743 1.387 . S
H1742 C1749 0.950 . S
C1743 C1741 1.387 . S
C1743 C1745 1.390 . S
C1743 H1747 0.950 . S
H1744 C1740 0.950 . S
C1745 C1743 1.390 . S
C1745 C1746 1.387 . S
C1745 H1748 0.950 . S
C1746 C1745 1.387 . S
C1746 C1749 1.387 . S
H1747 C1743 0.950 . S
H1748 C1745 0.950 . S
C1749 C1740 1.390 . S
C1749 H1742 0.950 . S
C1749 C1746 1.387 . S
C1750 C1751 1.387 . S
C1750 H1754 0.950 . S
C1750 C1759 1.390 . S
C1751 C1750 1.387 . S
C1751 C1753 1.387 . S
H1752 C1759 0.950 . S
C1753 C1751 1.387 . S
C1753 C1755 1.390 . S
C1753 H1757 0.950 . S
H1754 C1750 0.950 . S
C1755 C1753 1.390 . S
C1755 C1756 1.387 . S
C1755 H1758 0.950 . S
C1756 C1755 1.387 . S
C1756 C1759 1.387 . S
H1757 C1753 0.950 . S
H1758 C1755 0.950 . S
C1759 C1750 1.390 . S
C1759 H1752 0.950 . S
C1759 C1756 1.387 . S
C1760 C1761 1.393 . S
C1760 H1764 0.950 . S
C1760 C1769 1.390 . S
C1761 C1760 1.393 . S
C1761 C1763 1.398 . S
H1762 C1769 0.950 . S
C1763 C1761 1.398 . S
C1763 C1765 1.390 . S
C1763 H1767 0.950 1_455 S
H1764 C1760 0.950 . S
C1765 C1763 1.390 . S
C1765 C1766 1.387 . S
C1765 H1768 0.950 . S
C1766 C1765 1.387 . S
C1766 C1769 1.387 . S
H1767 C1763 0.950 1_655 S
H1768 C1765 0.950 . S
C1769 C1760 1.390 . S
C1769 H1762 0.950 . S
C1769 C1766 1.387 . S
C1770 C1771 1.387 . S
C1770 H1774 0.950 . S
C1770 C1779 1.390 . S
C1771 C1770 1.387 . S
C1771 C1773 1.387 . S
H1772 C1779 0.950 . S
C1773 C1771 1.387 . S
C1773 C1775 1.390 . S
C1773 H1777 0.950 . S
H1774 C1770 0.950 . S
C1775 C1773 1.390 . S
C1775 C1776 1.387 . S
C1775 H1778 0.950 . S
C1776 C1775 1.387 . S
C1776 C1779 1.387 . S
H1777 C1773 0.950 . S
H1778 C1775 0.950 . S
C1779 C1770 1.390 . S
C1779 H1772 0.950 . S
C1779 C1776 1.387 . S
C1780 C1781 1.387 . S
C1780 H1784 0.950 . S
C1780 C1789 1.390 . S
C1781 C1780 1.387 . S
C1781 C1783 1.387 . S
H1782 C1789 0.950 1_565 S
C1783 C1781 1.387 . S
C1783 C1785 1.390 . S
C1783 H1787 0.950 . S
H1784 C1780 0.950 . S
C1785 C1783 1.390 . S
C1785 C1786 1.387 . S
C1785 H1788 0.950 . S
C1786 C1785 1.387 . S
C1786 C1789 1.387 . S
H1787 C1783 0.950 . S
H1788 C1785 0.950 . S
C1789 C1780 1.390 . S
C1789 H1782 0.950 1_545 S
C1789 C1786 1.387 . S
C1790 C1791 1.387 . S
C1790 H1794 0.950 . S
C1790 C1799 1.390 . S
C1791 C1790 1.387 . S
C1791 C1793 1.387 . S
H1792 C1799 0.950 . S
C1793 C1791 1.387 . S
C1793 C1795 1.390 . S
C1793 H1797 0.950 . S
H1794 C1790 0.950 . S
C1795 C1793 1.390 . S
C1795 C1796 1.387 . S
C1795 H1798 0.950 . S
C1796 C1795 1.387 . S
C1796 C1799 1.387 . S
H1797 C1793 0.950 . S
H1798 C1795 0.950 . S
C1799 C1790 1.390 . S
C1799 H1792 0.950 . S
C1799 C1796 1.387 . S
C1800 C1801 1.387 . S
C1800 H1804 0.950 . S
C1800 C1809 1.390 . S
C1801 C1800 1.387 . S
C1801 C1803 1.387 . S
H1802 C1809 0.950 . S
C1803 C1801 1.387 . S
C1803 C1805 1.390 . S
C1803 H1807 0.950 . S
H1804 C1800 0.950 . S
C1805 C1803 1.390 . S
C1805 C1806 1.387 . S
C1805 H1808 0.950 . S
C1806 C1805 1.387 . S
C1806 C1809 1.387 . S
H1807 C1803 0.950 . S
H1808 C1805 0.950 . S
C1809 C1800 1.390 . S
C1809 H1802 0.950 . S
C1809 C1806 1.387 . S
C1810 C1811 1.387 . S
C1810 H1814 0.950 . S
C1810 C1819 1.390 . S
C1811 C1810 1.387 . S
C1811 C1813 1.387 . S
H1812 C1819 0.950 . S
C1813 C1811 1.387 . S
C1813 C1815 1.390 . S
C1813 H1817 0.950 . S
H1814 C1810 0.950 . S
C1815 C1813 1.390 . S
C1815 C1816 1.387 . S
C1815 H1818 0.950 . S
C1816 C1815 1.387 . S
C1816 C1819 1.387 . S
H1817 C1813 0.950 . S
H1818 C1815 0.950 . S
C1819 C1810 1.390 . S
C1819 H1812 0.950 . S
C1819 C1816 1.387 . S
C1820 C1821 1.387 . S
C1820 H1824 0.950 . S
C1820 C1829 1.390 . S
C1821 C1820 1.387 . S
C1821 C1823 1.387 . S
H1822 C1829 0.950 . S
C1823 C1821 1.387 . S
C1823 C1825 1.390 . S
C1823 H1827 0.950 . S
H1824 C1820 0.950 . S
C1825 C1823 1.390 . S
C1825 C1826 1.387 . S
C1825 H1828 0.950 . S
C1826 C1825 1.387 . S
C1826 C1829 1.387 . S
H1827 C1823 0.950 . S
H1828 C1825 0.950 . S
C1829 C1820 1.390 . S
C1829 H1822 0.950 . S
C1829 C1826 1.387 . S
C1830 C1831 1.387 . S
C1830 H1834 0.950 . S
C1830 C1839 1.390 . S
C1831 C1830 1.387 . S
C1831 C1833 1.387 . S
H1832 C1839 0.950 . S
C1833 C1831 1.387 . S
C1833 C1835 1.390 . S
C1833 H1837 0.950 . S
H1834 C1830 0.950 . S
C1835 C1833 1.390 . S
C1835 C1836 1.387 . S
C1835 H1838 0.950 . S
C1836 C1835 1.387 . S
C1836 C1839 1.387 . S
H1837 C1833 0.950 . S
H1838 C1835 0.950 . S
C1839 C1830 1.390 . S
C1839 H1832 0.950 . S
C1839 C1836 1.387 . S
C1840 C1841 1.387 1_545 S
C1840 H1844 0.950 1_554 S
C1840 C1849 1.390 . S
C1841 C1840 1.387 1_565 S
C1841 C1843 1.387 . S
H1842 C1849 0.950 . S
C1843 C1841 1.387 . S
C1843 C1845 1.390 . S
C1843 H1847 0.950 . S
H1844 C1840 0.950 1_556 S
C1845 C1843 1.390 . S
C1845 C1846 1.387 1_565 S
C1845 H1848 0.950 . S
C1846 C1845 1.387 1_545 S
C1846 C1849 1.387 . S
H1847 C1843 0.950 . S
H1848 C1845 0.950 . S
C1849 C1840 1.390 . S
C1849 H1842 0.950 . S
C1849 C1846 1.387 . S
C1850 C1851 1.387 1_556 S
C1850 H1854 0.950 . S
C1850 C1859 1.390 . S
C1851 C1850 1.387 1_554 S
C1851 C1853 1.387 . S
H1852 C1859 0.950 . S
C1853 C1851 1.387 . S
C1853 C1855 1.390 . S
C1853 H1857 0.950 . S
H1854 C1850 0.950 . S
C1855 C1853 1.390 . S
C1855 C1856 1.387 . S
C1855 H1858 0.950 . S
C1856 C1855 1.387 . S
C1856 C1859 1.387 1_554 S
H1857 C1853 0.950 . S
H1858 C1855 0.950 . S
C1859 C1850 1.390 . S
C1859 H1852 0.950 . S
C1859 C1856 1.387 1_556 S
C1860 C1861 1.387 . S
C1860 H1864 0.950 . S
C1860 C1869 1.390 . S
C1861 C1860 1.387 . S
C1861 C1863 1.387 . S
H1862 C1869 0.950 . S
C1863 C1861 1.387 . S
C1863 C1865 1.390 . S
C1863 H1867 0.950 . S
H1864 C1860 0.950 . S
C1865 C1863 1.390 . S
C1865 C1866 1.387 . S
C1865 H1868 0.950 . S
C1866 C1865 1.387 . S
C1866 C1869 1.387 . S
H1867 C1863 0.950 . S
H1868 C1865 0.950 . S
C1869 C1860 1.390 . S
C1869 H1862 0.950 . S
C1869 C1866 1.387 . S
C1870 C1871 1.387 . S
C1870 H1874 0.950 . S
C1870 C1879 1.390 . S
C1871 C1870 1.387 . S
C1871 C1873 1.387 . S
H1872 C1879 0.943 1_455 S
C1873 C1871 1.387 . S
C1873 C1875 1.390 . S
C1873 H1877 0.950 . S
H1874 C1870 0.950 . S
C1875 C1873 1.390 . S
C1875 C1876 1.387 1_655 S
C1875 H1878 0.949 . S
C1876 C1875 1.387 1_455 S
C1876 C1879 1.387 1_455 S
H1877 C1873 0.950 . S
H1878 C1875 0.949 . S
C1879 C1870 1.390 . S
C1879 H1872 0.943 1_655 S
C1879 C1876 1.387 1_655 S
C1880 C1881 1.387 . S
C1880 H1884 0.950 . S
C1880 C1889 1.390 . S
C1881 C1880 1.387 . S
C1881 C1883 1.387 . S
H1882 C1889 0.950 . S
C1883 C1881 1.387 . S
C1883 C1885 1.390 . S
C1883 H1887 0.950 . S
H1884 C1880 0.950 . S
C1885 C1883 1.390 . S
C1885 C1886 1.387 . S
C1885 H1888 0.950 . S
C1886 C1885 1.387 . S
C1886 C1889 1.387 . S
H1887 C1883 0.950 . S
H1888 C1885 0.950 . S
C1889 C1880 1.390 . S
C1889 H1882 0.950 . S
C1889 C1886 1.387 . S
C1890 C1891 1.387 . S
C1890 H1894 0.950 . S
C1890 C1899 1.390 . S
C1891 C1890 1.387 . S
C1891 C1893 1.387 . S
H1892 C1899 0.950 . S
C1893 C1891 1.387 . S
C1893 C1895 1.390 . S
C1893 H1897 0.950 . S
H1894 C1890 0.950 . S
C1895 C1893 1.390 . S
C1895 C1896 1.387 . S
C1895 H1898 0.950 . S
C1896 C1895 1.387 . S
C1896 C1899 1.387 . S
H1897 C1893 0.950 . S
H1898 C1895 0.950 . S
C1899 C1890 1.390 . S
C1899 H1892 0.950 . S
C1899 C1896 1.387 . S
C1900 C1901 1.387 . S
C1900 H1904 0.950 . S
C1900 C1909 1.390 . S
C1901 C1900 1.387 . S
C1901 C1903 1.387 . S
H1902 C1909 0.950 . S
C1903 C1901 1.387 . S
C1903 C1905 1.390 . S
C1903 H1907 0.950 . S
H1904 C1900 0.950 . S
C1905 C1903 1.390 . S
C1905 C1906 1.387 . S
C1905 H1908 0.950 . S
C1906 C1905 1.387 . S
C1906 C1909 1.387 . S
H1907 C1903 0.950 . S
H1908 C1905 0.950 . S
C1909 C1900 1.390 . S
C1909 H1902 0.950 . S
C1909 C1906 1.387 . S
C1910 C1911 1.387 . S
C1910 H1914 0.950 . S
C1910 C1919 1.390 . S
C1911 C1910 1.387 . S
C1911 C1913 1.387 . S
H1912 C1919 0.950 . S
C1913 C1911 1.387 . S
C1913 C1915 1.390 . S
C1913 H1917 0.950 . S
H1914 C1910 0.950 . S
C1915 C1913 1.390 . S
C1915 C1916 1.387 . S
C1915 H1918 0.950 . S
C1916 C1915 1.387 . S
C1916 C1919 1.387 . S
H1917 C1913 0.950 . S
H1918 C1915 0.950 . S
C1919 C1910 1.390 . S
C1919 H1912 0.950 . S
C1919 C1916 1.387 . S
C1920 C1921 1.387 . S
C1920 H1924 0.950 . S
C1920 C1929 1.390 . S
C1921 C1920 1.387 . S
C1921 C1923 1.387 . S
H1922 C1929 0.950 . S
C1923 C1921 1.387 . S
C1923 C1925 1.390 . S
C1923 H1927 0.950 . S
H1924 C1920 0.950 . S
C1925 C1923 1.390 . S
C1925 C1926 1.387 . S
C1925 H1928 0.950 . S
C1926 C1925 1.387 . S
C1926 C1929 1.387 . S
H1927 C1923 0.950 . S
H1928 C1925 0.950 . S
C1929 C1920 1.390 . S
C1929 H1922 0.950 . S
C1929 C1926 1.387 . S
C1930 C1931 1.387 . S
C1930 H1934 0.950 . S
C1930 C1939 1.390 . S
C1931 C1930 1.387 . S
C1931 C1933 1.387 . S
H1932 C1939 0.950 . S
C1933 C1931 1.387 . S
C1933 C1935 1.390 . S
C1933 H1937 0.950 . S
H1934 C1930 0.950 . S
C1935 C1933 1.390 . S
C1935 C1936 1.387 . S
C1935 H1938 0.950 . S
C1936 C1935 1.387 . S
C1936 C1939 1.387 . S
H1937 C1933 0.950 . S
H1938 C1935 0.950 . S
C1939 C1930 1.390 . S
C1939 H1932 0.950 . S
C1939 C1936 1.387 . S
C1940 C1941 1.387 . S
C1940 H1944 0.950 . S
C1940 C1949 1.390 . S
C1941 C1940 1.387 . S
C1941 C1943 1.387 . S
H1942 C1949 0.950 . S
C1943 C1941 1.387 . S
C1943 C1945 1.390 . S
C1943 H1947 0.950 . S
H1944 C1940 0.950 . S
C1945 C1943 1.390 . S
C1945 C1946 1.387 . S
C1945 H1948 0.950 . S
C1946 C1945 1.387 . S
C1946 C1949 1.387 . S
H1947 C1943 0.950 . S
H1948 C1945 0.950 . S
C1949 C1940 1.390 . S
C1949 H1942 0.950 . S
C1949 C1946 1.387 . S
C1950 C1951 1.387 . S
C1950 H1954 0.950 . S
C1950 C1959 1.390 . S
C1951 C1950 1.387 . S
C1951 C1953 1.387 . S
H1952 C1959 0.950 . S
C1953 C1951 1.387 . S
C1953 C1955 1.390 . S
C1953 H1957 0.950 . S
H1954 C1950 0.950 . S
C1955 C1953 1.390 . S
C1955 C1956 1.387 . S
C1955 H1958 0.950 . S
C1956 C1955 1.387 . S
C1956 C1959 1.387 . S
H1957 C1953 0.950 . S
H1958 C1955 0.950 . S
C1959 C1950 1.390 . S
C1959 H1952 0.950 . S
C1959 C1956 1.387 . S
C1960 C1961 1.387 . S
C1960 H1964 0.950 . S
C1960 C1969 1.390 . S
C1961 C1960 1.387 . S
C1961 C1963 1.387 . S
H1962 C1969 0.950 . S
C1963 C1961 1.387 . S
C1963 C1965 1.390 . S
C1963 H1967 0.950 . S
H1964 C1960 0.950 . S
C1965 C1963 1.390 . S
C1965 C1966 1.387 . S
C1965 H1968 0.950 . S
C1966 C1965 1.387 . S
C1966 C1969 1.387 . S
H1967 C1963 0.950 . S
H1968 C1965 0.950 . S
C1969 C1960 1.390 . S
C1969 H1962 0.950 . S
C1969 C1966 1.387 . S
C1970 C1971 1.387 . S
C1970 H1974 0.950 . S
C1970 C1979 1.390 . S
C1971 C1970 1.387 . S
C1971 C1973 1.387 . S
H1972 C1979 0.950 . S
C1973 C1971 1.387 . S
C1973 C1975 1.390 . S
C1973 H1977 0.950 . S
H1974 C1970 0.950 . S
C1975 C1973 1.390 . S
C1975 C1976 1.387 . S
C1975 H1978 0.950 . S
C1976 C1975 1.387 . S
C1976 C1979 1.387 . S
H1977 C1973 0.950 . S
H1978 C1975 0.950 . S
C1979 C1970 1.390 . S
C1979 H1972 0.950 . S
C1979 C1976 1.387 . S
C1980 C1981 1.387 . S
C1980 H1984 0.950 . S
C1980 C1989 1.390 . S
C1981 C1980 1.387 . S
C1981 C1983 1.387 . S
H1982 C1989 0.950 1_545 S
C1983 C1981 1.387 . S
C1983 C1985 1.390 . S
C1983 H1987 0.950 . S
H1984 C1980 0.950 . S
C1985 C1983 1.390 . S
C1985 C1986 1.387 . S
C1985 H1988 0.950 . S
C1986 C1985 1.387 . S
C1986 C1989 1.387 . S
H1987 C1983 0.950 . S
H1988 C1985 0.950 . S
C1989 C1980 1.390 . S
C1989 H1982 0.950 1_565 S
C1989 C1986 1.387 . S
C1990 C1991 1.387 . S
C1990 H1994 0.950 . S
C1990 C1999 1.390 . S
C1991 C1990 1.387 . S
C1991 C1993 1.387 . S
H1992 C1999 0.950 . S
C1993 C1991 1.387 . S
C1993 C1995 1.390 . S
C1993 H1997 0.950 . S
H1994 C1990 0.950 . S
C1995 C1993 1.390 . S
C1995 C1996 1.387 . S
C1995 H1998 0.950 . S
C1996 C1995 1.387 . S
C1996 C1999 1.387 . S
H1997 C1993 0.950 . S
H1998 C1995 0.950 . S
C1999 C1990 1.390 . S
C1999 H1992 0.950 . S
C1999 C1996 1.387 . S
C2000 C2001 1.387 1_565 S
C2000 H2004 0.950 . S
C2000 C2009 1.390 . S
C2001 C2000 1.387 1_545 S
C2001 C2003 1.387 . S
H2002 C2009 0.950 . S
C2003 C2001 1.387 . S
C2003 C2005 1.390 . S
C2003 H2007 0.950 . S
H2004 C2000 0.950 . S
C2005 C2003 1.390 . S
C2005 C2006 1.387 . S
C2005 H2008 0.950 . S
C2006 C2005 1.387 . S
C2006 C2009 1.387 1_545 S
H2007 C2003 0.950 . S
H2008 C2005 0.950 . S
C2009 C2000 1.390 . S
C2009 H2002 0.950 . S
C2009 C2006 1.387 1_565 S
C2010 C2011 1.387 . S
C2010 H2014 0.950 . S
C2010 C2019 1.390 . S
C2011 C2010 1.387 . S
C2011 C2013 1.387 . S
H2012 C2019 0.950 . S
C2013 C2011 1.387 . S
C2013 C2015 1.390 . S
C2013 H2017 0.950 . S
H2014 C2010 0.950 . S
C2015 C2013 1.390 . S
C2015 C2016 1.387 . S
C2015 H2018 0.950 . S
C2016 C2015 1.387 . S
C2016 C2019 1.387 . S
H2017 C2013 0.950 . S
H2018 C2015 0.950 . S
C2019 C2010 1.390 . S
C2019 H2012 0.950 . S
C2019 C2016 1.387 . S
C2020 C2021 1.387 . S
C2020 H2024 0.950 . S
C2020 C2029 1.390 . S
C2021 C2020 1.387 . S
C2021 C2023 1.387 1_545 S
H2022 C2029 0.950 . S
C2023 C2021 1.387 1_565 S
C2023 C2025 1.390 1_565 S
C2023 H2027 0.950 . S
H2024 C2020 0.950 . S
C2025 C2023 1.390 1_545 S
C2025 C2026 1.387 . S
C2025 H2028 0.950 1_545 S
C2026 C2025 1.387 . S
C2026 C2029 1.387 . S
H2027 C2023 0.950 . S
H2028 C2025 0.950 1_565 S
C2029 C2020 1.390 . S
C2029 H2022 0.950 . S
C2029 C2026 1.387 . S
C2030 C2031 1.387 . S
C2030 H2034 0.950 . S
C2030 C2039 1.390 . S
C2031 C2030 1.387 . S
C2031 C2033 1.387 . S
H2032 C2039 0.950 . S
C2033 C2031 1.387 . S
C2033 C2035 1.390 . S
C2033 H2037 0.950 . S
H2034 C2030 0.950 . S
C2035 C2033 1.390 . S
C2035 C2036 1.387 . S
C2035 H2038 0.950 . S
C2036 C2035 1.387 . S
C2036 C2039 1.387 . S
H2037 C2033 0.950 . S
H2038 C2035 0.950 . S
C2039 C2030 1.390 . S
C2039 H2032 0.950 . S
C2039 C2036 1.387 . S
C2040 C2041 1.387 . S
C2040 H2044 0.950 . S
C2040 C2049 1.390 . S
C2041 C2040 1.387 . S
C2041 C2043 1.387 1_545 S
H2042 C2049 0.950 . S
C2043 C2041 1.387 1_565 S
C2043 C2045 1.390 . S
C2043 H2047 0.950 . S
H2044 C2040 0.950 . S
C2045 C2043 1.390 . S
C2045 C2046 1.387 1_565 S
C2045 H2048 0.950 . S
C2046 C2045 1.387 1_545 S
C2046 C2049 1.387 . S
H2047 C2043 0.950 . S
H2048 C2045 0.950 . S
C2049 C2040 1.390 . S
C2049 H2042 0.950 . S
C2049 C2046 1.387 . S
C2050 C2051 1.387 . S
C2050 H2054 0.950 . S
C2050 C2059 1.390 . S
C2051 C2050 1.387 . S
C2051 C2053 1.387 . S
H2052 C2059 0.950 . S
C2053 C2051 1.387 . S
C2053 C2055 1.390 . S
C2053 H2057 0.950 . S
H2054 C2050 0.950 . S
C2055 C2053 1.390 . S
C2055 C2056 1.387 . S
C2055 H2058 0.950 . S
C2056 C2055 1.387 . S
C2056 C2059 1.387 . S
H2057 C2053 0.950 . S
H2058 C2055 0.950 . S
C2059 C2050 1.390 . S
C2059 H2052 0.950 . S
C2059 C2056 1.387 . S
C2060 C2061 1.392 . S
C2060 H2064 0.950 . S
C2060 C2069 1.390 . S
C2061 C2060 1.392 . S
C2061 C2063 1.384 1_545 S
H2062 C2069 0.950 . S
C2063 C2061 1.384 1_565 S
C2063 C2065 1.390 . S
C2063 H2067 0.950 . S
H2064 C2060 0.950 . S
C2065 C2063 1.390 . S
C2065 C2066 1.387 1_565 S
C2065 H2068 0.950 . S
C2066 C2065 1.387 1_545 S
C2066 C2069 1.387 . S
H2067 C2063 0.950 . S
H2068 C2065 0.950 . S
C2069 C2060 1.390 . S
C2069 H2062 0.950 . S
C2069 C2066 1.387 . S
C2070 C2071 1.387 . S
C2070 H2074 0.950 . S
C2070 C2079 1.390 . S
C2071 C2070 1.387 . S
C2071 C2073 1.387 . S
H2072 C2079 0.950 . S
C2073 C2071 1.387 . S
C2073 C2075 1.390 . S
C2073 H2077 0.950 . S
H2074 C2070 0.950 . S
C2075 C2073 1.390 . S
C2075 C2076 1.387 . S
C2075 H2078 0.950 . S
C2076 C2075 1.387 . S
C2076 C2079 1.387 . S
H2077 C2073 0.950 . S
H2078 C2075 0.950 . S
C2079 C2070 1.390 . S
C2079 H2072 0.950 . S
C2079 C2076 1.387 . S
C2080 C2081 1.387 . S
C2080 H2084 0.950 . S
C2080 C2089 1.390 . S
C2081 C2080 1.387 . S
C2081 C2083 1.387 . S
H2082 C2089 0.950 . S
C2083 C2081 1.387 . S
C2083 C2085 1.390 . S
C2083 H2087 0.950 . S
H2084 C2080 0.950 . S
C2085 C2083 1.390 . S
C2085 C2086 1.387 . S
C2085 H2088 0.957 . S
C2086 C2085 1.387 . S
C2086 C2089 1.387 . S
H2087 C2083 0.950 . S
H2088 C2085 0.957 . S
C2089 C2080 1.390 . S
C2089 H2082 0.950 . S
C2089 C2086 1.387 . S
C2090 C2091 1.387 . S
C2090 H2094 0.950 . S
C2090 C2099 1.390 . S
C2091 C2090 1.387 . S
C2091 C2093 1.387 . S
H2092 C2099 0.950 . S
C2093 C2091 1.387 . S
C2093 C2095 1.390 . S
C2093 H2097 0.950 . S
H2094 C2090 0.950 . S
C2095 C2093 1.390 . S
C2095 C2096 1.387 . S
C2095 H2098 0.950 . S
C2096 C2095 1.387 . S
C2096 C2099 1.387 . S
H2097 C2093 0.950 . S
H2098 C2095 0.950 . S
C2099 C2090 1.390 . S
C2099 H2092 0.950 . S
C2099 C2096 1.387 . S
C2100 C2101 1.387 . S
C2100 H2104 0.950 . S
C2100 C2109 1.390 . S
C2101 C2100 1.387 . S
C2101 C2103 1.387 . S
H2102 C2109 0.950 . S
C2103 C2101 1.387 . S
C2103 C2105 1.390 . S
C2103 H2107 0.950 . S
H2104 C2100 0.950 . S
C2105 C2103 1.390 . S
C2105 C2106 1.387 . S
C2105 H2108 0.950 . S
C2106 C2105 1.387 . S
C2106 C2109 1.387 . S
H2107 C2103 0.950 . S
H2108 C2105 0.950 . S
C2109 C2100 1.390 . S
C2109 H2102 0.950 . S
C2109 C2106 1.387 . S
C2110 C2111 1.387 . S
C2110 H2114 0.950 . S
C2110 C2119 1.390 . S
C2111 C2110 1.387 . S
C2111 C2113 1.387 . S
H2112 C2119 0.950 . S
C2113 C2111 1.387 . S
C2113 C2115 1.390 . S
C2113 H2117 0.950 . S
H2114 C2110 0.950 . S
C2115 C2113 1.390 . S
C2115 C2116 1.387 . S
C2115 H2118 0.950 . S
C2116 C2115 1.387 . S
C2116 C2119 1.387 . S
H2117 C2113 0.950 . S
H2118 C2115 0.950 . S
C2119 C2110 1.390 . S
C2119 H2112 0.950 . S
C2119 C2116 1.387 . S
C2120 C2121 1.387 . S
C2120 H2124 0.950 . S
C2120 C2129 1.390 . S
C2121 C2120 1.387 . S
C2121 C2123 1.387 1_565 S
H2122 C2129 0.950 . S
C2123 C2121 1.387 1_545 S
C2123 C2125 1.390 1_545 S
C2123 H2127 0.950 . S
H2124 C2120 0.950 . S
C2125 C2123 1.390 1_565 S
C2125 C2126 1.387 . S
C2125 H2128 0.950 1_565 S
C2126 C2125 1.387 . S
C2126 C2129 1.387 . S
H2127 C2123 0.950 . S
H2128 C2125 0.950 1_545 S
C2129 C2120 1.390 . S
C2129 H2122 0.950 . S
C2129 C2126 1.387 . S
C2130 C2131 1.387 . S
C2130 H2134 0.950 . S
C2130 C2139 1.390 . S
C2131 C2130 1.387 . S
C2131 C2133 1.387 . S
H2132 C2139 0.950 . S
C2133 C2131 1.387 . S
C2133 C2135 1.390 . S
C2133 H2137 0.950 . S
H2134 C2130 0.950 . S
C2135 C2133 1.390 . S
C2135 C2136 1.387 . S
C2135 H2138 0.950 . S
C2136 C2135 1.387 . S
C2136 C2139 1.387 . S
H2137 C2133 0.950 . S
H2138 C2135 0.950 . S
C2139 C2130 1.390 . S
C2139 H2132 0.950 . S
C2139 C2136 1.387 . S
C2140 C2141 1.387 . S
C2140 H2144 0.950 . S
C2140 C2149 1.390 . S
C2141 C2140 1.387 . S
C2141 C2143 1.387 . S
H2142 C2149 0.950 . S
C2143 C2141 1.387 . S
C2143 C2145 1.390 . S
C2143 H2147 0.950 . S
H2144 C2140 0.950 . S
C2145 C2143 1.390 . S
C2145 C2146 1.387 . S
C2145 H2148 0.950 . S
C2146 C2145 1.387 . S
C2146 C2149 1.387 . S
H2147 C2143 0.950 . S
H2148 C2145 0.950 . S
C2149 C2140 1.390 . S
C2149 H2142 0.950 . S
C2149 C2146 1.387 . S
C2150 C2151 1.387 . S
C2150 H2154 0.950 . S
C2150 C2159 1.390 . S
C2151 C2150 1.387 . S
C2151 C2153 1.387 . S
H2152 C2159 0.950 . S
C2153 C2151 1.387 . S
C2153 C2155 1.390 . S
C2153 H2157 0.950 . S
H2154 C2150 0.950 . S
C2155 C2153 1.390 . S
C2155 C2156 1.387 . S
C2155 H2158 0.950 . S
C2156 C2155 1.387 . S
C2156 C2159 1.387 . S
H2157 C2153 0.950 . S
H2158 C2155 0.950 . S
C2159 C2150 1.390 . S
C2159 H2152 0.950 . S
C2159 C2156 1.387 . S
C2160 C2161 1.387 . S
C2160 H2164 0.950 . S
C2160 C2169 1.390 . S
C2161 C2160 1.387 . S
C2161 C2163 1.387 . S
H2162 C2169 0.950 . S
C2163 C2161 1.387 . S
C2163 C2165 1.390 . S
C2163 H2167 0.950 . S
H2164 C2160 0.950 . S
C2165 C2163 1.390 . S
C2165 C2166 1.387 . S
C2165 H2168 0.950 . S
C2166 C2165 1.387 . S
C2166 C2169 1.387 . S
H2167 C2163 0.950 . S
H2168 C2165 0.950 . S
C2169 C2160 1.390 . S
C2169 H2162 0.950 . S
C2169 C2166 1.387 . S
C2170 C2171 1.387 . S
C2170 H2174 0.950 . S
C2170 C2179 1.390 . S
C2171 C2170 1.387 . S
C2171 C2173 1.387 . S
H2172 C2179 0.950 . S
C2173 C2171 1.387 . S
C2173 C2175 1.390 . S
C2173 H2177 0.950 . S
H2174 C2170 0.950 . S
C2175 C2173 1.390 . S
C2175 C2176 1.387 . S
C2175 H2178 0.950 . S
C2176 C2175 1.387 . S
C2176 C2179 1.387 . S
H2177 C2173 0.950 . S
H2178 C2175 0.950 . S
C2179 C2170 1.390 . S
C2179 H2172 0.950 . S
C2179 C2176 1.387 . S
C2180 C2181 1.387 . S
C2180 H2184 0.950 1_554 S
C2180 C2189 1.390 . S
C2181 C2180 1.387 . S
C2181 C2183 1.387 . S
H2182 C2189 0.950 . S
C2183 C2181 1.387 . S
C2183 C2185 1.390 . S
C2183 H2187 0.950 . S
H2184 C2180 0.950 1_556 S
C2185 C2183 1.390 . S
C2185 C2186 1.387 . S
C2185 H2188 0.950 . S
C2186 C2185 1.387 . S
C2186 C2189 1.387 . S
H2187 C2183 0.950 . S
H2188 C2185 0.950 . S
C2189 C2180 1.390 . S
C2189 H2182 0.950 . S
C2189 C2186 1.387 . S
C2190 C2191 1.387 . S
C2190 H2194 0.950 . S
C2190 C2199 1.390 . S
C2191 C2190 1.387 . S
C2191 C2193 1.387 . S
H2192 C2199 0.950 1_655 S
C2193 C2191 1.387 . S
C2193 C2195 1.390 1_455 S
C2193 H2197 0.950 . S
H2194 C2190 0.950 . S
C2195 C2193 1.390 1_655 S
C2195 C2196 1.387 . S
C2195 H2198 0.950 . S
C2196 C2195 1.387 . S
C2196 C2199 1.387 1_655 S
H2197 C2193 0.950 . S
H2198 C2195 0.950 . S
C2199 C2190 1.390 . S
C2199 H2192 0.950 1_455 S
C2199 C2196 1.387 1_455 S
C2200 C2201 1.387 . S
C2200 H2204 0.950 . S
C2200 C2209 1.390 . S
C2201 C2200 1.387 . S
C2201 C2203 1.387 . S
H2202 C2209 0.950 . S
C2203 C2201 1.387 . S
C2203 C2205 1.390 . S
C2203 H2207 0.950 . S
H2204 C2200 0.950 . S
C2205 C2203 1.390 . S
C2205 C2206 1.387 . S
C2205 H2208 0.950 . S
C2206 C2205 1.387 . S
C2206 C2209 1.387 . S
H2207 C2203 0.950 . S
H2208 C2205 0.950 . S
C2209 C2200 1.390 . S
C2209 H2202 0.950 . S
C2209 C2206 1.387 . S
C2210 C2211 1.387 . S
C2210 H2214 0.950 . S
C2210 C2219 1.390 . S
C2211 C2210 1.387 . S
C2211 C2213 1.387 . S
H2212 C2219 0.950 . S
C2213 C2211 1.387 . S
C2213 C2215 1.390 . S
C2213 H2217 0.950 . S
H2214 C2210 0.950 . S
C2215 C2213 1.390 . S
C2215 C2216 1.387 . S
C2215 H2218 0.950 . S
C2216 C2215 1.387 . S
C2216 C2219 1.387 . S
H2217 C2213 0.950 . S
H2218 C2215 0.950 . S
C2219 C2210 1.390 . S
C2219 H2212 0.950 . S
C2219 C2216 1.387 . S
C2220 C2221 1.387 . S
C2220 H2224 0.935 1_455 S
C2220 C2229 1.390 . S
C2221 C2220 1.387 . S
C2221 C2223 1.387 . S
H2222 C2229 0.950 . S
C2223 C2221 1.387 . S
C2223 C2225 1.390 . S
C2223 H2227 0.950 . S
H2224 C2220 0.935 1_655 S
C2225 C2223 1.390 . S
C2225 C2226 1.387 . S
C2225 H2228 0.950 . S
C2226 C2225 1.387 . S
C2226 C2229 1.387 . S
H2227 C2223 0.950 . S
H2228 C2225 0.950 . S
C2229 C2220 1.390 . S
C2229 H2222 0.950 . S
C2229 C2226 1.387 . S
C2230 C2231 1.387 . S
C2230 H2234 0.950 . S
C2230 C2239 1.390 . S
C2231 C2230 1.387 . S
C2231 C2233 1.387 . S
H2232 C2239 0.950 . S
C2233 C2231 1.387 . S
C2233 C2235 1.390 . S
C2233 H2237 0.950 . S
H2234 C2230 0.950 . S
C2235 C2233 1.390 . S
C2235 C2236 1.387 . S
C2235 H2238 0.950 . S
C2236 C2235 1.387 . S
C2236 C2239 1.387 . S
H2237 C2233 0.950 . S
H2238 C2235 0.950 . S
C2239 C2230 1.390 . S
C2239 H2232 0.950 . S
C2239 C2236 1.387 . S
C2240 C2241 1.387 . S
C2240 H2244 0.950 . S
C2240 C2249 1.390 . S
C2241 C2240 1.387 . S
C2241 C2243 1.387 . S
H2242 C2249 0.950 . S
C2243 C2241 1.387 . S
C2243 C2245 1.390 . S
C2243 H2247 0.950 . S
H2244 C2240 0.950 . S
C2245 C2243 1.390 . S
C2245 C2246 1.387 . S
C2245 H2248 0.950 . S
C2246 C2245 1.387 . S
C2246 C2249 1.387 . S
H2247 C2243 0.950 . S
H2248 C2245 0.950 . S
C2249 C2240 1.390 . S
C2249 H2242 0.950 . S
C2249 C2246 1.387 . S
C2250 C2251 1.387 . S
C2250 H2254 0.950 . S
C2250 C2259 1.390 . S
C2251 C2250 1.387 . S
C2251 C2253 1.387 . S
H2252 C2259 0.950 . S
C2253 C2251 1.387 . S
C2253 C2255 1.390 . S
C2253 H2257 0.950 . S
H2254 C2250 0.950 . S
C2255 C2253 1.390 . S
C2255 C2256 1.387 . S
C2255 H2258 0.950 . S
C2256 C2255 1.387 . S
C2256 C2259 1.387 . S
H2257 C2253 0.950 . S
H2258 C2255 0.950 . S
C2259 C2250 1.390 . S
C2259 H2252 0.950 . S
C2259 C2256 1.387 . S
C2260 C2261 1.387 . S
C2260 H2264 0.950 . S
C2260 C2269 1.390 . S
C2261 C2260 1.387 . S
C2261 C2263 1.387 . S
H2262 C2269 0.950 . S
C2263 C2261 1.387 . S
C2263 C2265 1.390 . S
C2263 H2267 0.950 . S
H2264 C2260 0.950 . S
C2265 C2263 1.390 . S
C2265 C2266 1.387 . S
C2265 H2268 0.950 . S
C2266 C2265 1.387 . S
C2266 C2269 1.387 . S
H2267 C2263 0.950 . S
H2268 C2265 0.950 . S
C2269 C2260 1.390 . S
C2269 H2262 0.950 . S
C2269 C2266 1.387 . S
C2270 C2271 1.387 . S
C2270 H2274 0.950 . S
C2270 C2279 1.390 . S
C2271 C2270 1.387 . S
C2271 C2273 1.387 . S
H2272 C2279 0.950 . S
C2273 C2271 1.387 . S
C2273 C2275 1.390 . S
C2273 H2277 0.950 . S
H2274 C2270 0.950 . S
C2275 C2273 1.390 . S
C2275 C2276 1.387 . S
C2275 H2278 0.950 . S
C2276 C2275 1.387 . S
C2276 C2279 1.387 . S
H2277 C2273 0.950 . S
H2278 C2275 0.950 . S
C2279 C2270 1.390 . S
C2279 H2272 0.950 . S
C2279 C2276 1.387 . S
C2280 C2281 1.387 . S
C2280 H2284 0.950 . S
C2280 C2289 1.390 . S
C2281 C2280 1.387 . S
C2281 C2283 1.387 . S
H2282 C2289 0.950 . S
C2283 C2281 1.387 . S
C2283 C2285 1.390 . S
C2283 H2287 0.950 . S
H2284 C2280 0.950 . S
C2285 C2283 1.390 . S
C2285 C2286 1.387 . S
C2285 H2288 0.950 . S
C2286 C2285 1.387 . S
C2286 C2289 1.387 . S
H2287 C2283 0.950 . S
H2288 C2285 0.950 . S
C2289 C2280 1.390 . S
C2289 H2282 0.950 . S
C2289 C2286 1.387 . S
C2290 C2291 1.387 . S
C2290 H2294 0.950 . S
C2290 C2299 1.390 . S
C2291 C2290 1.387 . S
C2291 C2293 1.387 . S
H2292 C2299 0.950 . S
C2293 C2291 1.387 . S
C2293 C2295 1.390 . S
C2293 H2297 0.950 . S
H2294 C2290 0.950 . S
C2295 C2293 1.390 . S
C2295 C2296 1.387 . S
C2295 H2298 0.950 . S
C2296 C2295 1.387 . S
C2296 C2299 1.387 . S
H2297 C2293 0.950 . S
H2298 C2295 0.950 . S
C2299 C2290 1.390 . S
C2299 H2292 0.950 . S
C2299 C2296 1.387 . S
C2300 C2301 1.387 . S
C2300 H2304 0.950 . S
C2300 C2309 1.390 . S
C2301 C2300 1.387 . S
C2301 C2303 1.387 . S
H2302 C2309 0.950 . S
C2303 C2301 1.387 . S
C2303 C2305 1.390 . S
C2303 H2307 0.950 . S
H2304 C2300 0.950 . S
C2305 C2303 1.390 . S
C2305 C2306 1.387 . S
C2305 H2308 0.950 . S
C2306 C2305 1.387 . S
C2306 C2309 1.387 . S
H2307 C2303 0.950 . S
H2308 C2305 0.950 . S
C2309 C2300 1.390 . S
C2309 H2302 0.950 . S
C2309 C2306 1.387 . S
C2310 C2311 1.387 . S
C2310 H2314 0.950 . S
C2310 C2319 1.390 . S
C2311 C2310 1.387 . S
C2311 C2313 1.387 . S
H2312 C2319 0.950 . S
C2313 C2311 1.387 . S
C2313 C2315 1.390 . S
C2313 H2317 0.950 . S
H2314 C2310 0.950 . S
C2315 C2313 1.390 . S
C2315 C2316 1.387 . S
C2315 H2318 0.950 . S
C2316 C2315 1.387 . S
C2316 C2319 1.387 . S
H2317 C2313 0.950 . S
H2318 C2315 0.950 . S
C2319 C2310 1.390 . S
C2319 H2312 0.950 . S
C2319 C2316 1.387 . S
C2320 C2321 1.387 . S
C2320 H2324 0.950 . S
C2320 C2329 1.390 . S
C2321 C2320 1.387 . S
C2321 C2323 1.387 . S
H2322 C2329 0.950 . S
C2323 C2321 1.387 . S
C2323 C2325 1.390 . S
C2323 H2327 0.950 . S
H2324 C2320 0.950 . S
C2325 C2323 1.390 . S
C2325 C2326 1.387 . S
C2325 H2328 0.950 . S
C2326 C2325 1.387 . S
C2326 C2329 1.387 . S
H2327 C2323 0.950 . S
H2328 C2325 0.950 . S
C2329 C2320 1.390 . S
C2329 H2322 0.950 . S
C2329 C2326 1.387 . S
C2330 C2331 1.387 . S
C2330 H2334 0.950 . S
C2330 C2339 1.390 . S
C2331 C2330 1.387 . S
C2331 C2333 1.387 . S
H2332 C2339 0.950 . S
C2333 C2331 1.387 . S
C2333 C2335 1.390 . S
C2333 H2337 0.950 . S
H2334 C2330 0.950 . S
C2335 C2333 1.390 . S
C2335 C2336 1.387 . S
C2335 H2338 0.950 . S
C2336 C2335 1.387 . S
C2336 C2339 1.387 . S
H2337 C2333 0.950 . S
H2338 C2335 0.950 . S
C2339 C2330 1.390 . S
C2339 H2332 0.950 . S
C2339 C2336 1.387 . S
C2340 C2341 1.387 . S
C2340 H2344 0.950 . S
C2340 C2349 1.390 . S
C2341 C2340 1.387 . S
C2341 C2343 1.387 . S
H2342 C2349 0.950 . S
C2343 C2341 1.387 . S
C2343 C2345 1.390 . S
C2343 H2347 0.950 . S
H2344 C2340 0.950 . S
C2345 C2343 1.390 . S
C2345 C2346 1.387 . S
C2345 H2348 0.950 . S
C2346 C2345 1.387 . S
C2346 C2349 1.387 . S
H2347 C2343 0.950 . S
H2348 C2345 0.950 . S
C2349 C2340 1.390 . S
C2349 H2342 0.950 . S
C2349 C2346 1.387 . S
C2350 C2351 1.387 . S
C2350 H2354 0.950 . S
C2350 C2359 1.390 . S
C2351 C2350 1.387 . S
C2351 C2353 1.387 1_554 S
H2352 C2359 0.950 . S
C2353 C2351 1.387 1_556 S
C2353 C2355 1.390 1_566 S
C2353 H2357 0.950 . S
H2354 C2350 0.950 . S
C2355 C2353 1.390 1_544 S
C2355 C2356 1.403 . S
C2355 H2358 0.935 1_554 S
C2356 C2355 1.403 . S
C2356 C2359 1.387 1_545 S
H2357 C2353 0.950 . S
H2358 C2355 0.935 1_556 S
C2359 C2350 1.390 . S
C2359 H2352 0.950 . S
C2359 C2356 1.387 1_565 S
C2360 C2361 1.387 . S
C2360 H2364 0.950 . S
C2360 C2369 1.390 . S
C2361 C2360 1.387 . S
C2361 C2363 1.387 . S
H2362 C2369 0.950 . S
C2363 C2361 1.387 . S
C2363 C2365 1.390 . S
C2363 H2367 0.950 . S
H2364 C2360 0.950 . S
C2365 C2363 1.390 . S
C2365 C2366 1.387 . S
C2365 H2368 0.950 . S
C2366 C2365 1.387 . S
C2366 C2369 1.387 . S
H2367 C2363 0.950 . S
H2368 C2365 0.950 . S
C2369 C2360 1.390 . S
C2369 H2362 0.950 . S
C2369 C2366 1.387 . S
C2370 C2371 1.387 . S
C2370 H2374 0.957 . S
C2370 C2379 1.390 . S
C2371 C2370 1.387 . S
C2371 C2373 1.387 . S
H2372 C2379 0.950 . S
C2373 C2371 1.387 . S
C2373 C2375 1.390 . S
C2373 H2377 0.950 . S
H2374 C2370 0.957 . S
C2375 C2373 1.390 . S
C2375 C2376 1.387 . S
C2375 H2378 0.950 . S
C2376 C2375 1.387 . S
C2376 C2379 1.387 . S
H2377 C2373 0.950 . S
H2378 C2375 0.950 . S
C2379 C2370 1.390 . S
C2379 H2372 0.950 . S
C2379 C2376 1.387 . S
C2380 C2381 1.387 . S
C2380 H2384 0.950 . S
C2380 C2389 1.390 . S
C2381 C2380 1.387 . S
C2381 C2383 1.387 . S
H2382 C2389 0.950 . S
C2383 C2381 1.387 . S
C2383 C2385 1.390 . S
C2383 H2387 0.950 . S
H2384 C2380 0.950 . S
C2385 C2383 1.390 . S
C2385 C2386 1.387 . S
C2385 H2388 0.950 . S
C2386 C2385 1.387 . S
C2386 C2389 1.387 . S
H2387 C2383 0.950 . S
H2388 C2385 0.950 . S
C2389 C2380 1.390 . S
C2389 H2382 0.950 . S
C2389 C2386 1.387 . S
C2390 C2391 1.387 . S
C2390 H2394 0.950 . S
C2390 C2399 1.390 . S
C2391 C2390 1.387 . S
C2391 C2393 1.387 . S
H2392 C2399 0.950 . S
C2393 C2391 1.387 . S
C2393 C2395 1.390 . S
C2393 H2397 0.950 . S
H2394 C2390 0.950 . S
C2395 C2393 1.390 . S
C2395 C2396 1.387 . S
C2395 H2398 0.950 . S
C2396 C2395 1.387 . S
C2396 C2399 1.387 . S
H2397 C2393 0.950 . S
H2398 C2395 0.950 . S
C2399 C2390 1.390 . S
C2399 H2392 0.950 . S
C2399 C2396 1.387 . S
C2400 C2401 1.387 . S
C2400 H2404 0.950 . S
C2400 C2409 1.390 . S
C2401 C2400 1.387 . S
C2401 C2403 1.387 . S
H2402 C2409 0.950 . S
C2403 C2401 1.387 . S
C2403 C2405 1.390 . S
C2403 H2407 0.950 . S
H2404 C2400 0.950 . S
C2405 C2403 1.390 . S
C2405 C2406 1.387 . S
C2405 H2408 0.950 . S
C2406 C2405 1.387 . S
C2406 C2409 1.387 . S
H2407 C2403 0.950 . S
H2408 C2405 0.950 . S
C2409 C2400 1.390 . S
C2409 H2402 0.950 . S
C2409 C2406 1.387 . S
C2410 C2411 1.387 . S
C2410 H2414 0.950 . S
C2410 C2419 1.390 . S
C2411 C2410 1.387 . S
C2411 C2413 1.387 . S
H2412 C2419 0.950 . S
C2413 C2411 1.387 . S
C2413 C2415 1.390 . S
C2413 H2417 0.950 . S
H2414 C2410 0.950 . S
C2415 C2413 1.390 . S
C2415 C2416 1.387 . S
C2415 H2418 0.950 . S
C2416 C2415 1.387 . S
C2416 C2419 1.387 . S
H2417 C2413 0.950 . S
H2418 C2415 0.950 . S
C2419 C2410 1.390 . S
C2419 H2412 0.950 . S
C2419 C2416 1.387 . S
C2420 C2421 1.387 . S
C2420 H2424 0.950 . S
C2420 C2429 1.390 . S
C2421 C2420 1.387 . S
C2421 C2423 1.387 . S
H2422 C2429 0.950 . S
C2423 C2421 1.387 . S
C2423 C2425 1.390 . S
C2423 H2427 0.950 . S
H2424 C2420 0.950 . S
C2425 C2423 1.390 . S
C2425 C2426 1.387 . S
C2425 H2428 0.950 . S
C2426 C2425 1.387 . S
C2426 C2429 1.387 . S
H2427 C2423 0.950 . S
H2428 C2425 0.950 . S
C2429 C2420 1.390 . S
C2429 H2422 0.950 . S
C2429 C2426 1.387 . S
C2430 C2431 1.387 . S
C2430 H2434 0.950 . S
C2430 C2439 1.390 . S
C2431 C2430 1.387 . S
C2431 C2433 1.387 . S
H2432 C2439 0.950 . S
C2433 C2431 1.387 . S
C2433 C2435 1.390 . S
C2433 H2437 0.950 . S
H2434 C2430 0.950 . S
C2435 C2433 1.390 . S
C2435 C2436 1.387 . S
C2435 H2438 0.950 . S
C2436 C2435 1.387 . S
C2436 C2439 1.387 . S
H2437 C2433 0.950 . S
H2438 C2435 0.950 . S
C2439 C2430 1.390 . S
C2439 H2432 0.950 . S
C2439 C2436 1.387 . S
C2440 C2441 1.387 . S
C2440 H2444 0.950 . S
C2440 C2449 1.390 . S
C2441 C2440 1.387 . S
C2441 C2443 1.387 . S
H2442 C2449 0.950 . S
C2443 C2441 1.387 . S
C2443 C2445 1.390 . S
C2443 H2447 0.950 . S
H2444 C2440 0.950 . S
C2445 C2443 1.390 . S
C2445 C2446 1.387 . S
C2445 H2448 0.950 1_556 S
C2446 C2445 1.387 . S
C2446 C2449 1.387 . S
H2447 C2443 0.950 . S
H2448 C2445 0.950 1_554 S
C2449 C2440 1.390 . S
C2449 H2442 0.950 . S
C2449 C2446 1.387 . S
C2450 C2451 1.387 . S
C2450 H2454 0.950 . S
C2450 C2459 1.390 . S
C2451 C2450 1.387 . S
C2451 C2453 1.387 . S
H2452 C2459 0.950 . S
C2453 C2451 1.387 . S
C2453 C2455 1.390 . S
C2453 H2457 0.950 . S
H2454 C2450 0.950 . S
C2455 C2453 1.390 . S
C2455 C2456 1.387 . S
C2455 H2458 0.950 . S
C2456 C2455 1.387 . S
C2456 C2459 1.387 . S
H2457 C2453 0.950 . S
H2458 C2455 0.950 . S
C2459 C2450 1.390 . S
C2459 H2452 0.950 . S
C2459 C2456 1.387 . S
C2460 C2461 1.387 . S
C2460 H2464 0.950 . S
C2460 C2469 1.390 . S
C2461 C2460 1.387 . S
C2461 C2463 1.387 . S
H2462 C2469 0.950 . S
C2463 C2461 1.387 . S
C2463 C2465 1.390 . S
C2463 H2467 0.950 . S
H2464 C2460 0.950 . S
C2465 C2463 1.390 . S
C2465 C2466 1.387 . S
C2465 H2468 0.950 . S
C2466 C2465 1.387 . S
C2466 C2469 1.387 . S
H2467 C2463 0.950 . S
H2468 C2465 0.950 . S
C2469 C2460 1.390 . S
C2469 H2462 0.950 . S
C2469 C2466 1.387 . S
C2470 C2471 1.387 . S
C2470 H2474 0.950 . S
C2470 C2479 1.390 . S
C2471 C2470 1.387 . S
C2471 C2473 1.387 . S
H2472 C2479 0.950 . S
C2473 C2471 1.387 . S
C2473 C2475 1.390 . S
C2473 H2477 0.950 . S
H2474 C2470 0.950 . S
C2475 C2473 1.390 . S
C2475 C2476 1.387 . S
C2475 H2478 0.950 . S
C2476 C2475 1.387 . S
C2476 C2479 1.387 . S
H2477 C2473 0.950 . S
H2478 C2475 0.950 . S
C2479 C2470 1.390 . S
C2479 H2472 0.950 . S
C2479 C2476 1.387 . S
C2480 C2481 1.387 . S
C2480 H2484 0.950 . S
C2480 C2489 1.390 . S
C2481 C2480 1.387 . S
C2481 C2483 1.387 . S
H2482 C2489 0.950 . S
C2483 C2481 1.387 . S
C2483 C2485 1.390 . S
C2483 H2487 0.950 . S
H2484 C2480 0.950 . S
C2485 C2483 1.390 . S
C2485 C2486 1.387 . S
C2485 H2488 0.950 . S
C2486 C2485 1.387 . S
C2486 C2489 1.387 . S
H2487 C2483 0.950 . S
H2488 C2485 0.950 . S
C2489 C2480 1.390 . S
C2489 H2482 0.950 . S
C2489 C2486 1.387 . S
C2490 C2491 1.387 . S
C2490 H2494 0.950 . S
C2490 C2499 1.390 . S
C2491 C2490 1.387 . S
C2491 C2493 1.387 . S
H2492 C2499 0.950 . S
C2493 C2491 1.387 . S
C2493 C2495 1.390 . S
C2493 H2497 0.950 . S
H2494 C2490 0.950 . S
C2495 C2493 1.390 . S
C2495 C2496 1.387 . S
C2495 H2498 0.950 . S
C2496 C2495 1.387 . S
C2496 C2499 1.387 . S
H2497 C2493 0.950 . S
H2498 C2495 0.950 . S
C2499 C2490 1.390 . S
C2499 H2492 0.950 . S
C2499 C2496 1.387 . S
C2500 C2501 1.387 . S
C2500 H2504 0.950 . S
C2500 C2509 1.390 1_655 S
C2501 C2500 1.387 . S
C2501 C2503 1.387 1_655 S
H2502 C2509 0.950 . S
C2503 C2501 1.387 1_455 S
C2503 C2505 1.390 . S
C2503 H2507 0.950 . S
H2504 C2500 0.950 . S
C2505 C2503 1.390 . S
C2505 C2506 1.387 . S
C2505 H2508 0.950 . S
C2506 C2505 1.387 . S
C2506 C2509 1.387 . S
H2507 C2503 0.950 . S
H2508 C2505 0.950 . S
C2509 C2500 1.390 1_455 S
C2509 H2502 0.950 . S
C2509 C2506 1.387 . S
C2510 C2511 1.387 . S
C2510 H2514 0.950 . S
C2510 C2519 1.390 . S
C2511 C2510 1.387 . S
C2511 C2513 1.387 . S
H2512 C2519 0.950 . S
C2513 C2511 1.387 . S
C2513 C2515 1.390 . S
C2513 H2517 0.950 . S
H2514 C2510 0.950 . S
C2515 C2513 1.390 . S
C2515 C2516 1.387 . S
C2515 H2518 0.950 . S
C2516 C2515 1.387 . S
C2516 C2519 1.387 . S
H2517 C2513 0.950 . S
H2518 C2515 0.950 . S
C2519 C2510 1.390 . S
C2519 H2512 0.950 . S
C2519 C2516 1.387 . S
C2520 C2521 1.387 . S
C2520 H2524 0.950 . S
C2520 C2529 1.390 . S
C2521 C2520 1.387 . S
C2521 C2523 1.387 . S
H2522 C2529 0.950 . S
C2523 C2521 1.387 . S
C2523 C2525 1.390 . S
C2523 H2527 0.950 . S
H2524 C2520 0.950 . S
C2525 C2523 1.390 . S
C2525 C2526 1.387 . S
C2525 H2528 0.950 . S
C2526 C2525 1.387 . S
C2526 C2529 1.387 . S
H2527 C2523 0.950 . S
H2528 C2525 0.950 . S
C2529 C2520 1.390 . S
C2529 H2522 0.950 . S
C2529 C2526 1.387 . S
C2530 C2531 1.387 . S
C2530 H2534 0.950 . S
C2530 C2539 1.390 . S
C2531 C2530 1.387 . S
C2531 C2533 1.387 . S
H2532 C2539 0.950 . S
C2533 C2531 1.387 . S
C2533 C2535 1.390 . S
C2533 H2537 0.950 . S
H2534 C2530 0.950 . S
C2535 C2533 1.390 . S
C2535 C2536 1.387 . S
C2535 H2538 0.950 . S
C2536 C2535 1.387 . S
C2536 C2539 1.387 . S
H2537 C2533 0.950 . S
H2538 C2535 0.950 . S
C2539 C2530 1.390 . S
C2539 H2532 0.950 . S
C2539 C2536 1.387 . S
C2540 C2541 1.387 . S
C2540 H2544 0.950 . S
C2540 C2549 1.390 . S
C2541 C2540 1.387 . S
C2541 C2543 1.387 . S
H2542 C2549 0.950 . S
C2543 C2541 1.387 . S
C2543 C2545 1.390 . S
C2543 H2547 0.950 . S
H2544 C2540 0.950 . S
C2545 C2543 1.390 . S
C2545 C2546 1.387 . S
C2545 H2548 0.945 1_655 S
C2546 C2545 1.387 . S
C2546 C2549 1.387 . S
H2547 C2543 0.950 . S
H2548 C2545 0.945 1_455 S
C2549 C2540 1.390 . S
C2549 H2542 0.950 . S
C2549 C2546 1.387 . S
C2550 C2551 1.387 . S
C2550 H2554 0.950 . S
C2550 C2559 1.390 . S
C2551 C2550 1.387 . S
C2551 C2553 1.387 . S
H2552 C2559 0.950 . S
C2553 C2551 1.387 . S
C2553 C2555 1.390 . S
C2553 H2557 0.950 . S
H2554 C2550 0.950 . S
C2555 C2553 1.390 . S
C2555 C2556 1.387 . S
C2555 H2558 0.950 . S
C2556 C2555 1.387 . S
C2556 C2559 1.387 . S
H2557 C2553 0.950 . S
H2558 C2555 0.950 . S
C2559 C2550 1.390 . S
C2559 H2552 0.950 . S
C2559 C2556 1.387 . S
C2560 C2561 1.387 . S
C2560 H2564 0.950 . S
C2560 C2569 1.390 . S
C2561 C2560 1.387 . S
C2561 C2563 1.387 . S
H2562 C2569 0.950 . S
C2563 C2561 1.387 . S
C2563 C2565 1.390 . S
C2563 H2567 0.950 . S
H2564 C2560 0.950 . S
C2565 C2563 1.390 . S
C2565 C2566 1.387 . S
C2565 H2568 0.950 . S
C2566 C2565 1.387 . S
C2566 C2569 1.387 . S
H2567 C2563 0.950 . S
H2568 C2565 0.950 . S
C2569 C2560 1.390 . S
C2569 H2562 0.950 . S
C2569 C2566 1.387 . S
C2570 C2571 1.387 . S
C2570 H2574 0.950 . S
C2570 C2579 1.390 . S
C2571 C2570 1.387 . S
C2571 C2573 1.387 . S
H2572 C2579 0.950 1_545 S
C2573 C2571 1.387 . S
C2573 C2575 1.390 . S
C2573 H2577 0.950 . S
H2574 C2570 0.950 . S
C2575 C2573 1.390 . S
C2575 C2576 1.387 . S
C2575 H2578 0.950 1_655 S
C2576 C2575 1.387 . S
C2576 C2579 1.387 . S
H2577 C2573 0.950 . S
H2578 C2575 0.950 1_455 S
C2579 C2570 1.390 . S
C2579 H2572 0.950 1_565 S
C2579 C2576 1.387 . S
C2580 C2581 1.387 . S
C2580 H2584 0.950 . S
C2580 C2589 1.390 . S
C2581 C2580 1.387 . S
C2581 C2583 1.387 . S
H2582 C2589 0.950 . S
C2583 C2581 1.387 . S
C2583 C2585 1.390 . S
C2583 H2587 0.950 . S
H2584 C2580 0.950 . S
C2585 C2583 1.390 . S
C2585 C2586 1.387 . S
C2585 H2588 0.950 . S
C2586 C2585 1.387 . S
C2586 C2589 1.387 . S
H2587 C2583 0.950 . S
H2588 C2585 0.950 . S
C2589 C2580 1.390 . S
C2589 H2582 0.950 . S
C2589 C2586 1.387 . S
C2590 C2591 1.387 . S
C2590 H2594 0.950 . S
C2590 C2599 1.390 . S
C2591 C2590 1.387 . S
C2591 C2593 1.387 . S
H2592 C2599 0.950 . S
C2593 C2591 1.387 . S
C2593 C2595 1.390 . S
C2593 H2597 0.950 . S
H2594 C2590 0.950 . S
C2595 C2593 1.390 . S
C2595 C2596 1.387 . S
C2595 H2598 0.950 . S
C2596 C2595 1.387 . S
C2596 C2599 1.387 . S
H2597 C2593 0.950 . S
H2598 C2595 0.950 . S
C2599 C2590 1.390 . S
C2599 H2592 0.950 . S
C2599 C2596 1.387 . S
C2600 C2601 1.387 . S
C2600 H2604 0.950 . S
C2600 C2609 1.390 . S
C2601 C2600 1.387 . S
C2601 C2603 1.387 . S
H2602 C2609 0.950 . S
C2603 C2601 1.387 . S
C2603 C2605 1.390 . S
C2603 H2607 0.950 . S
H2604 C2600 0.950 . S
C2605 C2603 1.390 . S
C2605 C2606 1.387 . S
C2605 H2608 0.950 . S
C2606 C2605 1.387 . S
C2606 C2609 1.387 . S
H2607 C2603 0.950 . S
H2608 C2605 0.950 . S
C2609 C2600 1.390 . S
C2609 H2602 0.950 . S
C2609 C2606 1.387 . S
C2610 C2611 1.387 . S
C2610 H2614 0.950 . S
C2610 C2619 1.390 . S
C2611 C2610 1.387 . S
C2611 C2613 1.387 . S
H2612 C2619 0.950 . S
C2613 C2611 1.387 . S
C2613 C2615 1.390 . S
C2613 H2617 0.950 . S
H2614 C2610 0.950 . S
C2615 C2613 1.390 . S
C2615 C2616 1.387 . S
C2615 H2618 0.950 1_554 S
C2616 C2615 1.387 . S
C2616 C2619 1.387 . S
H2617 C2613 0.950 . S
H2618 C2615 0.950 1_556 S
C2619 C2610 1.390 . S
C2619 H2612 0.950 . S
C2619 C2616 1.387 . S
C2620 C2621 1.387 . S
C2620 H2624 0.950 . S
C2620 C2629 1.390 . S
C2621 C2620 1.387 . S
C2621 C2623 1.387 . S
H2622 C2629 0.950 . S
C2623 C2621 1.387 . S
C2623 C2625 1.390 . S
C2623 H2627 0.950 . S
H2624 C2620 0.950 . S
C2625 C2623 1.390 . S
C2625 C2626 1.387 . S
C2625 H2628 0.950 . S
C2626 C2625 1.387 . S
C2626 C2629 1.387 . S
H2627 C2623 0.950 . S
H2628 C2625 0.950 . S
C2629 C2620 1.390 . S
C2629 H2622 0.950 . S
C2629 C2626 1.387 . S
C2630 C2631 1.387 . S
C2630 H2634 0.950 . S
C2630 C2639 1.390 . S
C2631 C2630 1.387 . S
C2631 C2633 1.387 . S
H2632 C2639 0.950 . S
C2633 C2631 1.387 . S
C2633 C2635 1.390 . S
C2633 H2637 0.950 . S
H2634 C2630 0.950 . S
C2635 C2633 1.390 . S
C2635 C2636 1.387 . S
C2635 H2638 0.950 . S
C2636 C2635 1.387 . S
C2636 C2639 1.387 . S
H2637 C2633 0.950 . S
H2638 C2635 0.950 . S
C2639 C2630 1.390 . S
C2639 H2632 0.950 . S
C2639 C2636 1.387 . S
C1681 C106 2.337 . S
C1686 C392 2.171 . S
C1691 C65 2.301 . S
C1696 C483 2.217 . S
C1701 C79 1.930 . S
C1706 C560 1.772 . S
C1716 C658 1.182 . S
C1711 C90 1.246 . S
C1721 C21 1.326 . S
C1726 C742 1.457 . S
C1736 C814 1.087 . S
C1731 C35 1.056 . S
C1746 C903 1.330 . S
C1741 C50 1.259 . S
C1751 C6 1.795 . S
C1756 C980 1.626 . S
C1766 C399 2.268 . S
C1761 C232 2.382 1_455 S
C1771 C245 0.904 . S
C1776 C490 0.949 . S
C1786 C567 1.320 . S
C1781 C274 1.417 . S
C1796 C644 1.617 . S
C1791 C175 1.696 . S
C1801 C231 1.907 1_455 S
C1806 C728 1.819 . S
C1816 C830 1.237 . S
C1811 C246 1.425 . S
C1826 C910 0.788 . S
C1821 C273 0.806 . S
C1836 C987 1.843 . S
C1831 C176 2.031 . S
C1846 C406 1.522 . S
C1841 C160 1.467 . S
C1851 C289 1.926 . S
C1856 C1071 1.845 . S
C1866 C1159 2.332 . S
C1861 C328 2.448 . S
C1876 C1232 0.853 . S
C1871 C317 0.887 . S
C1881 C118 1.487 . S
C1886 C994 1.881 . S
C1891 C132 1.477 . S
C1896 C574 1.605 . S
C1901 C331 2.249 . S
C1906 C1323 2.164 . S
C1916 C1400 1.017 . S
C1911 C303 1.122 . S
C1926 C403 1.860 . S
C1921 C63 2.014 . S
C1936 C1418 2.646 . S
C1931 C107 2.598 . S
C1941 C92 1.765 . S
C1946 C571 1.763 . S
C1951 C78 1.765 . S
C1956 C1318 1.596 . S
C1966 C730 1.772 . S
C1961 C8 1.811 . S
C1971 C51 1.253 . S
C1976 C1162 1.168 . S
C1986 C914 1.861 1_556 S
C1981 C37 1.637 . S
C1996 C1495 1.568 . S
C1991 C20 1.753 . S
C2006 C410 2.137 . S
C2001 C147 2.199 . S
C2016 C1402 0.941 . S
C2011 C316 0.980 . S
C2021 C119 1.206 . S
C2026 C578 1.249 . S
C2031 C288 1.798 . S
C2036 C1327 1.736 . S
C2041 C148 2.409 1_545 S
C2046 C739 2.169 . S
C2056 C1155 1.277 . S
C2051 C315 1.315 . S
C2061 C120 1.010 . S
C2066 C898 0.963 . S
C2071 C287 1.870 . S
C2076 C1502 1.709 . S
C2081 C188 1.408 . S
C2086 C394 1.405 . S
C2091 C177 2.185 . S
C2096 C1082 2.148 . S
C2101 C258 2.554 . S
C2106 C812 2.439 . S
C2111 C247 0.818 . S
C2116 C1243 0.814 . S
C2126 C1486 1.404 . S
C2121 C272 1.224 1_565 S
C2131 C216 1.423 . S
C2136 C562 1.495 . S
C2146 C662 2.360 . S
C2141 C261 2.417 . S
C2156 C487 0.913 . S
C2151 C205 0.966 . S
C2161 C76 1.910 . S
C2166 C1568 1.793 . S
C2176 C1407 2.291 . S
C2171 C93 2.384 . S
C2181 C105 1.639 1_554 S
C2186 C1652 1.519 . S
C2191 C62 1.280 . S
C2196 C1330 1.221 . S
C2201 C49 1.319 . S
C2206 C1078 1.457 . S
C2216 C1150 1.326 . S
C2211 C9 1.350 . S
C2226 C1239 1.304 . S
C2221 C22 1.208 1_455 S
C2236 C1484 1.997 . S
C2231 C36 2.287 . S
C2246 C1575 2.217 . S
C2241 C260 2.339 . S
C2251 C189 0.825 . S
C2256 C1414 0.839 . S
C2266 C1659 1.272 . S
C2261 C204 1.364 . S
C2276 C1316 1.515 . S
C2271 C217 1.582 . S
C2286 C1064 2.064 . S
C2281 C259 2.158 . S
C2291 C190 1.425 . S
C2296 C1166 1.275 . S
C2306 C1246 0.866 . S
C2301 C203 0.878 . S
C2311 C218 2.116 . S
C2316 C1491 1.919 . S
C2326 C1582 1.508 . S
C2321 C314 1.446 . S
C2331 C135 2.003 . S
C2336 C735 1.916 . S
C2346 C823 2.241 . S
C2341 C146 2.377 . S
C2356 C896 0.847 . S
C2351 C163 0.866 . S
C2366 C1498 1.847 . S
C2361 C300 1.471 . S
C2371 C286 1.483 . S
C2376 C1666 1.651 . S
C2386 C651 2.085 . S
C2381 C149 2.165 . S
C2396 C476 0.967 . S
C2391 C121 1.090 . S
C2401 C91 2.005 . S
C2406 C1579 1.858 . S
C2416 C494 2.228 . S
C2411 C77 2.122 . S
C2421 C64 1.735 . S
C2426 C1663 1.761 . S
C2431 C104 1.436 . S
C2436 C646 1.408 . S
C2441 C34 1.499 . S
C2446 C1066 1.619 1_556 S
C2456 C826 1.108 . S
C2451 C23 1.223 . S
C2461 C7 1.250 . S
C2466 C1250 1.497 . S
C2471 C48 1.724 . S
C2476 C991 1.551 . S
C2486 C1586 2.091 . S
C2481 C329 2.158 . S
C2491 C162 1.011 . S
C2496 C478 0.963 . S
C2506 C1670 1.206 . S
C2501 C301 1.171 . S
C2511 C134 1.817 . S
C2516 C655 1.755 . S
C2521 C330 2.367 . S
C2526 C1075 2.143 . S
C2536 C819 1.249 . S
C2531 C161 1.282 . S
C2541 C302 1.047 . S
C2546 C1234 0.983 1_655 S
C2556 C998 1.674 . S
C2551 C133 1.837 . S
C2566 C1570 1.502 . S
C2561 C244 1.522 . S
C2576 C746 2.107 1_665 S
C2571 C219 2.116 . S
C2581 C230 2.302 . S
C2586 C1148 2.159 . S
C2596 C907 0.788 . S
C2591 C191 0.791 . S
C2601 C202 1.291 . S
C2606 C982 1.449 . S
C2611 C174 1.534 . S
C2616 C1654 1.572 . S
C2626 C1334 2.345 . S
C2621 C233 2.381 1_565 S
C2636 C1411 0.934 . S
C2631 C275 0.998 . S
