# Generated by pormake.
# Topology nia, (6,6)-cn, num edge types: 1
# Building blocks:
#     Node 0, Type 0, BuildingBlock: MIFKUJ_clean_sbu_0, # of connection points: 6
#     Node 1, Type 0, BuildingBlock: MIFKUJ_clean_sbu_0, # of connection points: 6
#     Node 2, Type 1, BuildingBlock: MIDCAF_clean_sbu_0, # of connection points: 6
#     Node 3, Type 1, BuildingBlock: MIDCAF_clean_sbu_0, # of connection points: 6
#     Edge 4, Type (0, 1), BuildingBlock: UVAHIK_clean_linker_0, # of connection points: 2
#     Edge 5, Type (0, 1), BuildingBlock: UVAHIK_clean_linker_0, # of connection points: 2
#     Edge 6, Type (0, 1), BuildingBlock: UVAHIK_clean_linker_0, # of connection points: 2
#     Edge 7, Type (0, 1), BuildingBlock: UVAHIK_clean_linker_0, # of connection points: 2
#     Edge 8, Type (0, 1), BuildingBlock: UVAHIK_clean_linker_0, # of connection points: 2
#     Edge 9, Type (0, 1), BuildingBlock: UVAHIK_clean_linker_0, # of connection points: 2
#     Edge 10, Type (0, 1), BuildingBlock: UVAHIK_clean_linker_0, # of connection points: 2
#     Edge 11, Type (0, 1), BuildingBlock: UVAHIK_clean_linker_0, # of connection points: 2
#     Edge 12, Type (0, 1), BuildingBlock: UVAHIK_clean_linker_0, # of connection points: 2
#     Edge 13, Type (0, 1), BuildingBlock: UVAHIK_clean_linker_0, # of connection points: 2
#     Edge 14, Type (0, 1), BuildingBlock: UVAHIK_clean_linker_0, # of connection points: 2
#     Edge 15, Type (0, 1), BuildingBlock: UVAHIK_clean_linker_0, # of connection points: 2
# Relax obj value: 0.166
# Max RMSD: 0.248
# Mean RMSD: 0.182
data_MOF--net-nia--node1-MIFKUJ_clean_sbu_0--node2-MIDCAF_clean_sbu_0--edge1-UVAHIK_clean_linker_0
_symmetry_space_group_name_H-M    P1
_symmetry_Int_Tables_number       1
_symmetry_cell_setting            triclinic
loop_
_symmetry_equiv_pos_as_xyz
'x, y, z'
_cell_length_a     32.691795
_cell_length_b     32.538193
_cell_length_c     38.636112
_cell_angle_alpha  88.885048
_cell_angle_beta   88.934999
_cell_angle_gamma 127.12452
loop_
_atom_site_label
_atom_site_type_symbol
_atom_site_fract_x
_atom_site_fract_y
_atom_site_fract_z
_atom_type_partial_charge
Zn0 Zn 0.00727 0.95998 0.05869 0.0
Zn1 Zn -0.02355 0.01933 1.01602 0.0
C2 C 0.93049 0.86221 1.02969 0.0
O3 O 0.91282 0.85032 0.06201 0.0
C4 C 0.05527 0.11669 0.04488 0.0
O5 O 0.07547 0.1268 1.01329 0.0
O6 O 0.03333 0.9327 0.09179 0.0
O7 O 0.0697 0.02397 0.03552 0.0
O8 O 0.02754 0.01544 0.98918 0.0
C9 C 0.06739 0.92831 0.0809 0.0
O10 O 0.08386 0.94101 0.04837 0.0
O11 O -0.02969 0.90756 1.02189 0.0
C12 C 0.91587 0.04949 0.99287 0.0
O13 O 0.89866 0.03579 1.02521 0.0
O14 O 0.95067 0.0461 0.98219 0.0
O15 O 0.91402 0.95572 0.04019 0.0
O16 O 0.95693 0.96401 0.08606 0.0
O17 O 0.0131 0.07286 0.05225 0.0
C18 C 0.06897 0.0295 1.00294 0.0
C19 C 0.91533 0.95019 0.07273 0.0
Zn20 Zn 0.02487 0.97657 0.51516 0.0
Zn21 Zn 0.96782 0.00883 0.55723 0.0
C22 C 0.12226 0.05324 0.54584 0.0
O23 O 0.13684 0.071 0.51363 0.0
C24 C 0.87119 0.93111 0.52792 0.0
O25 O 0.86042 0.91178 0.55983 0.0
O26 O 0.05181 0.94978 0.4821 0.0
O27 O 0.96112 0.91422 0.53875 0.0
O28 O -0.03024 0.95681 0.585 0.0
C29 C 0.08262 0.94072 0.49201 0.0
O30 O 0.09648 0.94819 0.52435 0.0
O31 O 0.07621 0.01411 0.55252 0.0
C32 C 0.93998 0.07247 0.57656 0.0
O33 O 0.95595 0.08857 0.54424 0.0
O34 O 0.94112 0.03682 0.58916 0.0
O35 O 0.03279 0.07053 0.53408 0.0
O36 O 0.02172 0.02779 0.48749 0.0
O37 O 0.91549 0.97251 0.5203 0.0
C38 C 0.95541 0.915 0.57132 0.0
C39 C 0.0376 0.06986 0.50142 0.0
Zn40 Zn 0.33272 0.6696 0.22084 0.0
Zn41 Zn 0.31973 0.65629 0.35153 0.0
Zn42 Zn 0.32843 0.66205 0.28643 0.0
C43 C 0.42121 0.69865 0.33576 0.0
C44 C 0.25559 0.55609 0.33258 0.0
O45 O 0.29235 0.69868 0.26832 0.0
O46 O 0.28318 0.68416 0.21228 0.0
C47 C 0.43327 0.73338 0.24003 0.0
O48 O 0.40726 0.70174 0.30545 0.0
O49 O 0.38852 0.67585 0.3606 0.0
O50 O 0.26147 0.58252 0.35813 0.0
O51 O 0.28003 0.57887 0.30356 0.0
O52 O 0.40673 0.72699 0.21448 0.0
O53 O 0.41091 0.70967 0.26931 0.0
O54 O 0.28807 0.58262 0.26757 0.0
O55 O 0.31174 0.59995 0.21203 0.0
C56 C 0.28987 0.56778 0.23728 0.0
O57 O 0.29373 0.70021 0.30439 0.0
O58 O 0.30713 0.70722 0.36055 0.0
C59 C 0.27554 0.70083 0.23889 0.0
C60 C 0.2919 0.7168 0.33403 0.0
Zn61 Zn 0.66278 0.31408 0.85357 0.0
Zn62 Zn 0.65486 0.32216 0.72145 0.0
Zn63 Zn 0.65885 0.32028 0.78674 0.0
C64 C 0.69749 0.42145 0.74105 0.0
C65 C 0.55495 0.25566 0.74391 0.0
O66 O 0.69418 0.28067 0.7995 0.0
O67 O 0.68619 0.27129 0.8567 0.0
C68 C 0.72453 0.41873 0.83489 0.0
O69 O 0.69974 0.40224 0.76978 0.0
O70 O 0.67495 0.39288 0.71583 0.0
O71 O 0.58143 0.26455 0.71672 0.0
O72 O 0.57705 0.27594 0.77254 0.0
O73 O 0.71345 0.3888 0.86065 0.0
O74 O 0.70605 0.40036 0.80514 0.0
O75 O 0.57908 0.27608 0.80913 0.0
O76 O 0.58962 0.27875 0.8657 0.0
C77 C 0.56041 0.2648 0.84054 0.0
O78 O 0.69643 0.28756 0.76365 0.0
O79 O 0.70577 0.31077 0.70823 0.0
C80 C 0.69951 0.26366 0.82821 0.0
C81 C 0.71402 0.29076 0.73273 0.0
C82 C 0.13079 0.91126 0.09342 0.0
C83 C 0.08841 0.90931 0.10437 0.0
C84 C 0.15048 0.89281 0.1152 0.0
C85 C 0.11335 0.80082 0.18721 0.0
H86 H 0.26019 0.87177 0.19049 0.0
C87 C 0.27058 0.77376 0.24663 0.0
C88 C 0.24873 0.72406 0.23513 0.0
C89 C 0.2486 0.79849 0.23841 0.0
C90 C 0.21911 0.85185 0.19039 0.0
H91 H 0.03367 0.88681 0.14695 0.0
H92 H 0.06791 0.85405 0.18495 0.0
H93 H 0.22794 0.91323 0.16075 0.0
H94 H 0.1868 0.66068 0.20681 0.0
H95 H 0.14824 0.70349 0.19252 0.0
H96 H 0.10456 0.73882 0.21601 0.0
C97 C 0.08581 0.86992 0.15946 0.0
C98 C 0.20065 0.87535 0.17301 0.0
C99 C 0.06634 0.8888 0.13774 0.0
C100 C 0.20391 0.69884 0.21625 0.0
C101 C 0.18172 0.72325 0.20828 0.0
C102 C 0.13183 0.77716 0.20441 0.0
C103 C 0.12806 0.87167 0.14838 0.0
C104 C 0.14757 0.84956 0.17049 0.0
C105 C 0.20446 0.77379 0.21856 0.0
C106 C 0.18489 0.80191 0.20543 0.0
H107 H 0.14876 0.92688 0.06791 0.0
H108 H 0.18258 0.894 0.10571 0.0
H109 H 0.07225 0.7799 0.18562 0.0
H110 H 0.30561 0.79413 0.26084 0.0
H111 H 0.2668 0.83735 0.24681 0.0
C112 C 0.21138 0.11751 0.56605 0.0
C113 C 0.15988 0.07571 0.57359 0.0
C114 C 0.24765 0.13656 0.59168 0.0
C115 C 0.27256 0.09723 0.67358 0.0
H116 H 0.38476 0.24322 0.67577 0.0
C117 C 0.4783 0.25409 0.74355 0.0
C118 C 0.49948 0.22753 0.74057 0.0
C119 C 0.42926 0.23259 0.73178 0.0
C120 C 0.35326 0.2024 0.67612 0.0
H121 H 0.10574 0.022 0.61427 0.0
H122 H 0.16912 0.05559 0.65906 0.0
H123 H 0.31389 0.21377 0.63811 0.0
H124 H 0.48664 0.15792 0.72332 0.0
H125 H 0.40125 0.12037 0.70218 0.0
H126 H 0.31235 0.0859 0.7114 0.0
C127 C 0.18152 0.0732 0.63321 0.0
C128 C 0.31295 0.18546 0.65409 0.0
C129 C 0.14519 0.05417 0.60756 0.0
C130 C 0.47033 0.17839 0.72672 0.0
C131 C 0.42142 0.15696 0.71469 0.0
C132 C 0.31293 0.11419 0.6957 0.0
C133 C 0.23328 0.1143 0.62547 0.0
C134 C 0.27279 0.1326 0.65189 0.0
C135 C 0.40108 0.18467 0.71592 0.0
C136 C 0.35437 0.1669 0.69663 0.0
H137 H 0.224 0.13495 0.54016 0.0
H138 H 0.28732 0.16779 0.58468 0.0
H139 H 0.24232 0.05619 0.67241 0.0
H140 H 0.50108 0.29306 0.75265 0.0
H141 H 0.4146 0.25478 0.7334 0.0
C142 C 0.1318 0.19977 0.0659 0.0
C143 C 0.08028 0.15673 0.07103 0.0
C144 C 0.15477 0.23942 0.08929 0.0
C145 C 0.13958 0.27644 0.17672 0.0
H146 H 0.22976 0.41367 0.13373 0.0
C147 C 0.21632 0.47337 0.23957 0.0
C148 C 0.26786 0.51384 0.23079 0.0
C149 C 0.19316 0.42459 0.22585 0.0
C150 C 0.20507 0.37558 0.1462 0.0
H151 H 0.01275 0.12055 0.10528 0.0
H152 H 0.0524 0.19079 0.14559 0.0
H153 H 0.1898 0.33921 0.09794 0.0
H154 H 0.33675 0.53473 0.20345 0.0
H155 H 0.29678 0.44998 0.17994 0.0
H156 H 0.15428 0.3141 0.22508 0.0
C157 C 0.07542 0.19348 0.12387 0.0
C158 C 0.18229 0.33278 0.12569 0.0
C159 C 0.05259 0.15336 0.10065 0.0
C160 C 0.29684 0.50406 0.21041 0.0
C161 C 0.27396 0.4557 0.19689 0.0
C162 C 0.16217 0.31966 0.19735 0.0
C163 C 0.12654 0.23749 0.11809 0.0
C164 C 0.1498 0.2826 0.14062 0.0
C165 C 0.2214 0.4162 0.20313 0.0
C166 C 0.19571 0.36958 0.18222 0.0
H167 H 0.15436 0.20308 0.04363 0.0
H168 H 0.19465 0.27201 0.0845 0.0
H169 H 0.11485 0.23834 0.18909 0.0
H170 H 0.19324 0.48036 0.25504 0.0
H171 H 0.15254 0.39469 0.23103 0.0
C172 C 0.92772 0.14022 0.58512 0.0
C173 C 0.92001 0.09502 0.59733 0.0
C174 C 0.90713 0.16072 0.60348 0.0
C175 C 0.85051 0.15761 0.68863 0.0
H176 H 0.79577 0.21308 0.6326 0.0
C177 C 0.72885 0.22378 0.73975 0.0
C178 C 0.74308 0.27061 0.72476 0.0
C179 C 0.75247 0.20189 0.72815 0.0
C180 C 0.81122 0.19807 0.64861 0.0
H181 H 0.88558 0.03644 0.63889 0.0
H182 H 0.8484 0.07172 0.67071 0.0
H183 H 0.83183 0.17482 0.60457 0.0
H184 H 0.79401 0.33212 0.68688 0.0
H185 H 0.83479 0.29398 0.66653 0.0
H186 H 0.82858 0.18051 0.7328 0.0
C187 C 0.87107 0.0917 0.64712 0.0
C188 C 0.8321 0.17628 0.63255 0.0
C189 C 0.89216 0.07135 0.62882 0.0
C190 C 0.78226 0.29592 0.69884 0.0
C191 C 0.80549 0.27405 0.68714 0.0
C192 C 0.82905 0.17916 0.70481 0.0
C193 C 0.8777 0.13625 0.63436 0.0
C194 C 0.85295 0.15666 0.65223 0.0
C195 C 0.78994 0.22619 0.70098 0.0
C196 C 0.81011 0.20046 0.68482 0.0
H197 H 0.94958 0.15983 0.56121 0.0
H198 H 0.9142 0.19583 0.59332 0.0
H199 H 0.86635 0.14297 0.70456 0.0
H200 H 0.6978 0.20288 0.75912 0.0
H201 H 0.73959 0.1648 0.73911 0.0
C202 C 0.86618 0.91215 0.1295 0.0
C203 C 0.86921 0.92962 0.09526 0.0
C204 C 0.82329 0.89428 0.15115 0.0
C205 C 0.72313 0.90868 0.1667 0.0
H206 H 0.63908 0.76884 0.20589 0.0
C207 C 0.51331 0.80548 0.20892 0.0
C208 C 0.48956 0.76563 0.23452 0.0
C209 C 0.56459 0.83074 0.19874 0.0
C210 C 0.66267 0.80845 0.196 0.0
H211 H 0.82933 0.94144 0.05683 0.0
H212 H 0.75529 0.9118 0.09507 0.0
H213 H 0.71941 0.80197 0.1743 0.0
H214 H 0.50109 0.72152 0.27004 0.0
H215 H 0.59193 0.76758 0.25363 0.0
H216 H 0.66727 0.91587 0.18842 0.0
C217 C 0.78608 0.91179 0.10497 0.0
C218 C 0.70849 0.82719 0.17767 0.0
C219 C 0.82836 0.92856 0.08309 0.0
C220 C 0.51882 0.75304 0.25091 0.0
C221 C 0.57059 0.7788 0.24097 0.0
C222 C 0.67794 0.89039 0.18556 0.0
C223 C 0.78325 0.89463 0.13917 0.0
C224 C 0.73821 0.87688 0.16202 0.0
C225 C 0.59374 0.81705 0.21404 0.0
C226 C 0.64613 0.83941 0.19945 0.0
H227 H 0.89692 0.91221 0.13957 0.0
H228 H 0.82179 0.88108 0.17743 0.0
H229 H 0.74596 0.94748 0.15529 0.0
H230 H 0.49157 0.81577 0.19565 0.0
H231 H 0.58039 0.85914 0.17752 0.0
C232 C 0.91916 0.86592 0.62848 0.0
C233 C 0.93096 0.86713 0.59309 0.0
C234 C 0.89493 0.82023 0.64871 0.0
C235 C 0.86558 0.7233 0.68923 0.0
H236 H 0.75811 0.59786 0.64565 0.0
C237 C 0.77224 0.51475 0.74435 0.0
C238 C 0.72099 0.47661 0.7363 0.0
C239 C 0.79737 0.56586 0.73211 0.0
C240 C 0.7875 0.63252 0.6585 0.0
H241 H 0.92796 0.82163 0.55151 0.0
H242 H 0.88648 0.74242 0.58675 0.0
H243 H 0.80328 0.67953 0.61342 0.0
H244 H 0.65423 0.46206 0.71243 0.0
H245 H 0.697 0.55101 0.69245 0.0
H246 H 0.8488 0.67566 0.73464 0.0
C247 C 0.89495 0.77644 0.59878 0.0
C248 C 0.81405 0.67937 0.63974 0.0
C249 C 0.91894 0.82196 0.57857 0.0
C250 C 0.69401 0.49084 0.71859 0.0
C251 C 0.71867 0.54169 0.7069 0.0
C252 C 0.8388 0.67612 0.70815 0.0
C253 C 0.88206 0.77481 0.63399 0.0
C254 C 0.85365 0.72533 0.6547 0.0
C255 C 0.7713 0.57929 0.71193 0.0
C256 C 0.79936 0.63017 0.69296 0.0
H257 H 0.92794 0.90009 0.64049 0.0
H258 H 0.88515 0.82019 0.67565 0.0
H259 H 0.89614 0.75801 0.70144 0.0
H260 H 0.79377 0.50445 0.75789 0.0
H261 H 0.83791 0.5939 0.73651 0.0
C262 C 0.07855 0.89925 0.43672 0.0
C263 C 0.10349 0.92279 0.46745 0.0
C264 C 0.098 0.88114 0.41416 0.0
C265 C 0.21588 0.898 0.38872 0.0
H266 H 0.12849 0.75279 0.36842 0.0
C267 C 0.29756 0.78907 0.35985 0.0
C268 C 0.27246 0.74721 0.33797 0.0
C269 C 0.27693 0.815 0.36735 0.0
C270 C 0.1532 0.7937 0.373 0.0
H271 H 0.16888 0.94697 0.49822 0.0
H272 H 0.20327 0.9164 0.45857 0.0
H273 H 0.09161 0.79031 0.39729 0.0
H274 H 0.20601 0.69916 0.30685 0.0
H275 H 0.17016 0.74557 0.31917 0.0
H276 H 0.27762 0.90163 0.365 0.0
C277 C 0.1686 0.91168 0.45202 0.0
C278 C 0.13204 0.81508 0.38968 0.0
C279 C 0.14869 0.92881 0.47483 0.0
C280 C 0.22662 0.73214 0.32319 0.0
C281 C 0.20587 0.75829 0.33061 0.0
C282 C 0.23689 0.87687 0.37168 0.0
C283 C 0.14331 0.88738 0.42161 0.0
C284 C 0.16359 0.86695 0.39878 0.0
C285 C 0.23045 0.79959 0.35325 0.0
C286 C 0.20624 0.82399 0.36486 0.0
H287 H 0.04356 0.894 0.43042 0.0
H288 H 0.07783 0.86248 0.39087 0.0
H289 H 0.24083 0.93834 0.39498 0.0
H290 H 0.33269 0.80101 0.37189 0.0
H291 H 0.29643 0.84575 0.38549 0.0
C292 C 0.15703 0.05357 0.99402 0.0
C293 C 0.11599 0.05156 0.98111 0.0
C294 C 0.20081 0.07278 0.97314 0.0
C295 C 0.2801 0.16212 0.90241 0.0
H296 H 0.33022 0.08082 0.89387 0.0
C297 C 0.47441 0.24481 0.83168 0.0
C298 C 0.50479 0.23392 0.84825 0.0
C299 C 0.42259 0.2181 0.8418 0.0
C300 C 0.31704 0.10425 0.89615 0.0
H301 H 0.08922 0.06939 0.93646 0.0
H302 H 0.1669 0.10464 0.90025 0.0
H303 H 0.24855 0.04405 0.92463 0.0
H304 H 0.50562 0.18728 0.88854 0.0
H305 H 0.4164 0.14205 0.90708 0.0
H306 H 0.34978 0.22346 0.8758 0.0
C307 C 0.16447 0.09043 0.92638 0.0
C308 C 0.27016 0.08302 0.91363 0.0
C309 C 0.12012 0.07018 0.94706 0.0
C310 C 0.48272 0.19591 0.87502 0.0
C311 C 0.43133 0.16961 0.88538 0.0
C312 C 0.32753 0.18376 0.88539 0.0
C313 C 0.20492 0.09136 0.93916 0.0
C314 C 0.25181 0.11212 0.91752 0.0
C315 C 0.40058 0.1806 0.86917 0.0
C316 C 0.34718 0.15549 0.88279 0.0
H317 H 0.15516 0.03975 1.02016 0.0
H318 H 0.23182 0.07369 0.98368 0.0
H319 H 0.26671 0.18532 0.90521 0.0
H320 H 0.49142 0.27573 0.81226 0.0
H321 H 0.40015 0.22762 0.8287 0.0
C322 C 0.06947 0.16145 0.49437 0.0
C323 C 0.06047 0.11759 0.47981 0.0
C324 C 0.09002 0.20626 0.47406 0.0
C325 C 0.11203 0.25585 0.38283 0.0
H326 H 0.20258 0.38734 0.42611 0.0
C327 C 0.23903 0.47122 0.32293 0.0
C328 C 0.22436 0.4996 0.33821 0.0
C329 C 0.21622 0.42034 0.33456 0.0
C330 C 0.17747 0.35081 0.41372 0.0
H331 H 0.06662 0.08659 0.43248 0.0
H332 H 0.10411 0.16554 0.39717 0.0
H333 H 0.17179 0.30811 0.45854 0.0
H334 H 0.17252 0.49631 0.37603 0.0
H335 H 0.13367 0.40816 0.39664 0.0
H336 H 0.11905 0.29986 0.33767 0.0
C337 C 0.0941 0.16488 0.42416 0.0
C338 C 0.15941 0.30536 0.43233 0.0
C339 C 0.07291 0.11971 0.44445 0.0
C340 C 0.18455 0.47533 0.36376 0.0
C341 C 0.16229 0.42499 0.37556 0.0
C342 C 0.13084 0.30168 0.36397 0.0
C343 C 0.10296 0.20878 0.43873 0.0
C344 C 0.12545 0.25715 0.41749 0.0
C345 C 0.17909 0.39775 0.36185 0.0
C346 C 0.16283 0.34929 0.37963 0.0
H347 H 0.06006 0.1611 0.52146 0.0
H348 H 0.09511 0.23877 0.4861 0.0
H349 H 0.08569 0.21946 0.37062 0.0
H350 H 0.27053 0.48942 0.30388 0.0
H351 H 0.22998 0.39998 0.32392 0.0
C352 C 0.84994 0.06237 0.97942 0.0
C353 C 0.89516 0.06898 0.9696 0.0
C354 C 0.83083 0.08205 0.95836 0.0
C355 C 0.83848 0.13331 0.86976 0.0
H356 H 0.77874 0.1898 0.91828 0.0
C357 C 0.77062 0.25631 0.81775 0.0
C358 C 0.72006 0.23412 0.82931 0.0
C359 C 0.7942 0.23369 0.8278 0.0
C360 C 0.79537 0.17416 0.90441 0.0
H361 H 0.9554 0.10059 0.92961 0.0
H362 H 0.92265 0.13639 0.89311 0.0
H363 H 0.8171 0.15738 0.95113 0.0
H364 H 0.65327 0.16979 0.85802 0.0
H365 H 0.69426 0.13055 0.87553 0.0
H366 H 0.81689 0.15151 0.82283 0.0
C367 C 0.90153 0.1152 0.91687 0.0
C368 C 0.81699 0.15519 0.9232 0.0
C369 C 0.92042 0.09492 0.93786 0.0
C370 C 0.69221 0.18732 0.84868 0.0
C371 C 0.71561 0.16497 0.85871 0.0
C372 C 0.81719 0.15302 0.85081 0.0
C373 C 0.85684 0.10958 0.92715 0.0
C374 C 0.83767 0.1333 0.90627 0.0
C375 C 0.76738 0.18914 0.84968 0.0
C376 C 0.79449 0.17249 0.86819 0.0
H377 H 0.82914 0.04192 1.00345 0.0
H378 H 0.79554 0.0757 0.96669 0.0
H379 H 0.85405 0.11667 0.85591 0.0
H380 H 0.79291 0.29284 0.8032 0.0
H381 H 0.83431 0.25305 0.82076 0.0
C382 C 0.83521 0.93398 0.4719 0.0
C383 C 0.83125 0.90628 0.5018 0.0
C384 C 0.79501 0.91154 0.44888 0.0
C385 C 0.65541 0.80666 0.44805 0.0
H386 H 0.67322 0.83265 0.34844 0.0
C387 C 0.48412 0.69161 0.36364 0.0
C388 C 0.47476 0.72073 0.34286 0.0
C389 C 0.53212 0.71449 0.37739 0.0
C390 C 0.66791 0.82536 0.37624 0.0
H391 H 0.78376 0.83245 0.52991 0.0
H392 H 0.71471 0.79276 0.48938 0.0
H393 H 0.74891 0.87149 0.38408 0.0
H394 H 0.50859 0.79572 0.31839 0.0
H395 H 0.59368 0.8363 0.34263 0.0
H396 H 0.57481 0.76022 0.44038 0.0
C397 C 0.74782 0.83242 0.48421 0.0
C398 C 0.71109 0.84761 0.39667 0.0
C399 C 0.78754 0.85504 0.5074 0.0
C400 C 0.51525 0.77247 0.33409 0.0
C401 C 0.56371 0.79557 0.34796 0.0
C402 C 0.61263 0.78417 0.42773 0.0
C403 C 0.75034 0.86077 0.45516 0.0
C404 C 0.70525 0.83806 0.43284 0.0
C405 C 0.57174 0.76715 0.37091 0.0
C406 C 0.61831 0.7928 0.39164 0.0
H407 H 0.86853 0.97362 0.46693 0.0
H408 H 0.7982 0.93464 0.42693 0.0
H409 H 0.64925 0.79972 0.47585 0.0
H410 H 0.45344 0.65159 0.37066 0.0
H411 H 0.53756 0.69154 0.39457 0.0
C412 C 0.86342 0.77184 1.01233 0.0
C413 C 0.90693 0.82216 1.0034 0.0
C414 C 0.84407 0.73266 0.98876 0.0
C415 C 0.84657 0.70358 0.89685 0.0
H416 H 0.81794 0.57852 0.93771 0.0
C417 C 0.74116 0.50452 0.83115 0.0
C418 C 0.75712 0.47445 0.84053 0.0
C419 C 0.76471 0.55319 0.84512 0.0
C420 C 0.82626 0.61332 0.92573 0.0
H421 H 0.96265 0.87143 0.96201 0.0
H422 H 0.92902 0.80262 0.92093 0.0
H423 H 0.84499 0.65003 0.97415 0.0
H424 H 0.81288 0.47295 0.86862 0.0
H425 H 0.85493 0.5581 0.89199 0.0
H426 H 0.82788 0.66616 0.84817 0.0
C427 C 0.90978 0.79365 0.94613 0.0
C428 C 0.84102 0.65408 0.94677 0.0
C429 C 0.92919 0.83297 0.96976 0.0
C430 C 0.79975 0.49542 0.86126 0.0
C431 C 0.82351 0.54395 0.87482 0.0
C432 C 0.83139 0.66236 0.87566 0.0
C433 C 0.86781 0.74281 0.95572 0.0
C434 C 0.85126 0.69965 0.93269 0.0
C435 C 0.80445 0.57212 0.8685 0.0
C436 C 0.82146 0.61693 0.88993 0.0
H437 H 0.84498 0.76231 0.03786 0.0
H438 H 0.81106 0.69403 0.99668 0.0
H439 H 0.85408 0.73824 0.8853 0.0
H440 H 0.70801 0.4888 0.81541 0.0
H441 H 0.74927 0.57409 0.83973 0.0
loop_
_geom_bond_atom_site_label_1
_geom_bond_atom_site_label_2
_geom_bond_distance
_geom_bond_site_symmetry_2
_ccdc_geom_bond_type
Zn0 O6 1.969 . S
Zn0 O7 1.965 1_565 S
Zn0 O11 2.023 1_454 S
Zn0 O16 1.969 1_455 S
Zn1 O8 1.969 . S
Zn1 O14 1.969 . S
Zn1 O15 1.965 1_456 S
Zn1 O17 2.024 1_556 S
C2 O3 1.229 . S
C2 O11 1.059 . S
O3 C2 1.229 . S
C4 O5 1.229 . S
C4 O17 1.058 . S
O5 C4 1.229 . S
O6 Zn0 1.969 . S
O6 C9 1.267 . S
O7 Zn0 1.965 1_545 S
O7 C18 1.260 1_554 S
O8 Zn1 1.969 . S
O8 C18 1.258 . S
C9 O6 1.267 . S
C9 O10 1.228 . S
O10 C9 1.228 . S
O11 Zn0 2.023 1_656 S
O11 C2 1.059 . S
C12 O13 1.228 . S
C12 O14 1.267 1_655 S
O13 C12 1.228 . S
O14 Zn1 1.969 . S
O14 C12 1.267 1_455 S
O15 Zn1 1.965 1_654 S
O15 C19 1.260 1_545 S
O16 Zn0 1.969 1_655 S
O16 C19 1.258 . S
O17 Zn1 2.024 1_554 S
O17 C4 1.058 . S
C18 O7 1.260 1_556 S
C18 O8 1.258 . S
C19 O15 1.260 1_565 S
C19 O16 1.258 . S
Zn20 O26 1.969 1_545 S
Zn20 O27 1.965 1_545 S
Zn20 O31 2.024 . S
Zn20 O36 1.969 . S
Zn21 O28 1.969 1_545 S
Zn21 O34 1.969 . S
Zn21 O35 1.965 1_655 S
Zn21 O37 2.024 1_545 S
C22 O23 1.229 . S
C22 O31 1.058 . S
O23 C22 1.229 . S
C24 O25 1.229 . S
C24 O37 1.058 . S
O25 C24 1.229 . S
O26 Zn20 1.969 1_565 S
O26 C29 1.267 . S
O27 Zn20 1.965 1_565 S
O27 C38 1.260 1_455 S
O28 Zn21 1.969 1_565 S
O28 C38 1.258 . S
C29 O26 1.267 . S
C29 O30 1.228 . S
O30 C29 1.228 . S
O31 Zn20 2.024 . S
O31 C22 1.058 . S
C32 O33 1.228 . S
C32 O34 1.267 . S
O33 C32 1.228 . S
O34 Zn21 1.969 . S
O34 C32 1.267 . S
O35 Zn21 1.965 1_455 S
O35 C39 1.260 . S
O36 Zn20 1.969 . S
O36 C39 1.258 . S
O37 Zn21 2.024 1_565 S
O37 C24 1.058 . S
C38 O27 1.260 1_655 S
C38 O28 1.258 . S
C39 O35 1.260 . S
C39 O36 1.258 . S
Zn40 O46 1.920 . S
Zn40 O52 1.898 . S
Zn40 O55 1.905 . S
Zn41 O49 1.905 . S
Zn41 O50 1.898 . S
Zn41 O58 1.920 . S
Zn42 O45 2.080 . S
Zn42 O48 2.114 . S
Zn42 O51 2.120 . S
Zn42 O53 2.120 . S
Zn42 O54 2.114 . S
Zn42 O57 2.080 . S
C43 O48 1.166 . S
C43 O49 1.182 . S
C44 O50 1.167 . S
C44 O51 1.299 . S
O45 Zn42 2.080 . S
O45 C59 1.305 . S
O46 Zn40 1.920 . S
O46 C59 1.234 . S
C47 O52 1.167 . S
C47 O53 1.299 . S
O48 Zn42 2.114 . S
O48 C43 1.166 . S
O49 Zn41 1.905 . S
O49 C43 1.182 . S
O50 Zn41 1.898 . S
O50 C44 1.167 . S
O51 Zn42 2.120 . S
O51 C44 1.299 . S
O52 Zn40 1.898 . S
O52 C47 1.167 . S
O53 Zn42 2.120 . S
O53 C47 1.299 . S
O54 Zn42 2.114 . S
O54 C56 1.166 . S
O55 Zn40 1.905 . S
O55 C56 1.182 . S
C56 O54 1.166 . S
C56 O55 1.182 . S
O57 Zn42 2.080 . S
O57 C60 1.305 . S
O58 Zn41 1.920 . S
O58 C60 1.234 . S
C59 O45 1.305 . S
C59 O46 1.234 . S
C60 O57 1.305 . S
C60 O58 1.234 . S
Zn61 O67 1.920 . S
Zn61 O73 1.898 . S
Zn61 O76 1.905 . S
Zn62 O70 1.905 . S
Zn62 O71 1.898 . S
Zn62 O79 1.920 . S
Zn63 O66 2.080 . S
Zn63 O69 2.114 . S
Zn63 O72 2.120 . S
Zn63 O74 2.120 . S
Zn63 O75 2.114 . S
Zn63 O78 2.080 . S
C64 O69 1.166 . S
C64 O70 1.182 . S
C65 O71 1.167 . S
C65 O72 1.299 . S
O66 Zn63 2.080 . S
O66 C80 1.305 . S
O67 Zn61 1.920 . S
O67 C80 1.234 . S
C68 O73 1.167 . S
C68 O74 1.299 . S
O69 Zn63 2.114 . S
O69 C64 1.166 . S
O70 Zn62 1.905 . S
O70 C64 1.182 . S
O71 Zn62 1.898 . S
O71 C65 1.167 . S
O72 Zn63 2.120 . S
O72 C65 1.299 . S
O73 Zn61 1.898 . S
O73 C68 1.167 . S
O74 Zn63 2.120 . S
O74 C68 1.299 . S
O75 Zn63 2.114 . S
O75 C77 1.166 . S
O76 Zn61 1.905 . S
O76 C77 1.182 . S
C77 O75 1.166 . S
C77 O76 1.182 . S
O78 Zn63 2.080 . S
O78 C81 1.305 . S
O79 Zn62 1.920 . S
O79 C81 1.234 . S
C80 O66 1.305 . S
C80 O67 1.234 . S
C81 O78 1.305 . S
C81 O79 1.234 . S
C82 C83 1.349 . S
C82 C84 1.327 . S
C82 H107 0.950 . S
C83 C82 1.349 . S
C83 C99 1.349 . S
C84 C82 1.327 . S
C84 C103 1.429 . S
C84 H108 0.950 . S
C85 C102 1.574 . S
C85 C104 1.368 . S
C85 H109 0.949 . S
H86 C90 0.949 . S
C87 C88 1.349 . S
C87 C89 1.327 . S
C87 H110 0.950 . S
C88 C87 1.349 . S
C88 C100 1.349 . S
C89 C87 1.327 . S
C89 C105 1.429 . S
C89 H111 0.950 . S
C90 H86 0.949 . S
C90 C98 1.574 . S
C90 C106 1.368 . S
H91 C99 0.950 . S
H92 C97 0.950 . S
H93 C98 0.949 . S
H94 C100 0.950 . S
H95 C101 0.950 . S
H96 C102 0.949 . S
C97 H92 0.950 . S
C97 C99 1.327 . S
C97 C103 1.429 . S
C98 C90 1.574 . S
C98 H93 0.949 . S
C98 C104 1.368 . S
C99 C83 1.349 . S
C99 H91 0.950 . S
C99 C97 1.327 . S
C100 C88 1.349 . S
C100 H94 0.950 . S
C100 C101 1.327 . S
C101 H95 0.950 . S
C101 C100 1.327 . S
C101 C105 1.429 . S
C102 C85 1.574 . S
C102 H96 0.949 . S
C102 C106 1.368 . S
C103 C84 1.429 . S
C103 C97 1.429 . S
C103 C104 1.523 . S
C104 C85 1.368 . S
C104 C98 1.368 . S
C104 C103 1.523 . S
C105 C89 1.429 . S
C105 C101 1.429 . S
C105 C106 1.523 . S
C106 C90 1.368 . S
C106 C102 1.368 . S
C106 C105 1.523 . S
H107 C82 0.950 . S
H108 C84 0.950 . S
H109 C85 0.949 . S
H110 C87 0.950 . S
H111 C89 0.950 . S
C112 C113 1.349 . S
C112 C114 1.327 . S
C112 H137 0.950 . S
C113 C112 1.349 . S
C113 C129 1.349 . S
C114 C112 1.327 . S
C114 C133 1.429 . S
C114 H138 0.950 . S
C115 C132 1.574 . S
C115 C134 1.368 . S
C115 H139 0.949 . S
H116 C120 0.949 . S
C117 C118 1.349 . S
C117 C119 1.327 . S
C117 H140 0.950 . S
C118 C117 1.349 . S
C118 C130 1.349 . S
C119 C117 1.327 . S
C119 C135 1.429 . S
C119 H141 0.950 . S
C120 H116 0.949 . S
C120 C128 1.574 . S
C120 C136 1.368 . S
H121 C129 0.950 . S
H122 C127 0.950 . S
H123 C128 0.949 . S
H124 C130 0.950 . S
H125 C131 0.950 . S
H126 C132 0.949 . S
C127 H122 0.950 . S
C127 C129 1.327 . S
C127 C133 1.429 . S
C128 C120 1.574 . S
C128 H123 0.949 . S
C128 C134 1.368 . S
C129 C113 1.349 . S
C129 H121 0.950 . S
C129 C127 1.327 . S
C130 C118 1.349 . S
C130 H124 0.950 . S
C130 C131 1.327 . S
C131 H125 0.950 . S
C131 C130 1.327 . S
C131 C135 1.429 . S
C132 C115 1.574 . S
C132 H126 0.949 . S
C132 C136 1.368 . S
C133 C114 1.429 . S
C133 C127 1.429 . S
C133 C134 1.523 . S
C134 C115 1.368 . S
C134 C128 1.368 . S
C134 C133 1.523 . S
C135 C119 1.429 . S
C135 C131 1.429 . S
C135 C136 1.523 . S
C136 C120 1.368 . S
C136 C132 1.368 . S
C136 C135 1.523 . S
H137 C112 0.950 . S
H138 C114 0.950 . S
H139 C115 0.949 . S
H140 C117 0.950 . S
H141 C119 0.950 . S
C142 C143 1.349 . S
C142 C144 1.327 . S
C142 H167 0.950 . S
C143 C142 1.349 . S
C143 C159 1.349 . S
C144 C142 1.327 . S
C144 C163 1.429 . S
C144 H168 0.950 . S
C145 C162 1.574 . S
C145 C164 1.368 . S
C145 H169 0.949 . S
H146 C150 0.949 . S
C147 C148 1.349 . S
C147 C149 1.327 . S
C147 H170 0.950 . S
C148 C147 1.349 . S
C148 C160 1.349 . S
C149 C147 1.327 . S
C149 C165 1.429 . S
C149 H171 0.950 . S
C150 H146 0.949 . S
C150 C158 1.574 . S
C150 C166 1.368 . S
H151 C159 0.950 . S
H152 C157 0.950 . S
H153 C158 0.949 . S
H154 C160 0.950 . S
H155 C161 0.950 . S
H156 C162 0.949 . S
C157 H152 0.950 . S
C157 C159 1.327 . S
C157 C163 1.429 . S
C158 C150 1.574 . S
C158 H153 0.949 . S
C158 C164 1.368 . S
C159 C143 1.349 . S
C159 H151 0.950 . S
C159 C157 1.327 . S
C160 C148 1.349 . S
C160 H154 0.950 . S
C160 C161 1.327 . S
C161 H155 0.950 . S
C161 C160 1.327 . S
C161 C165 1.429 . S
C162 C145 1.574 . S
C162 H156 0.949 . S
C162 C166 1.368 . S
C163 C144 1.429 . S
C163 C157 1.429 . S
C163 C164 1.523 . S
C164 C145 1.368 . S
C164 C158 1.368 . S
C164 C163 1.523 . S
C165 C149 1.429 . S
C165 C161 1.429 . S
C165 C166 1.523 . S
C166 C150 1.368 . S
C166 C162 1.368 . S
C166 C165 1.523 . S
H167 C142 0.950 . S
H168 C144 0.950 . S
H169 C145 0.949 . S
H170 C147 0.950 . S
H171 C149 0.950 . S
C172 C173 1.349 . S
C172 C174 1.327 . S
C172 H197 0.950 . S
C173 C172 1.349 . S
C173 C189 1.349 . S
C174 C172 1.327 . S
C174 C193 1.429 . S
C174 H198 0.950 . S
C175 C192 1.574 . S
C175 C194 1.368 . S
C175 H199 0.949 . S
H176 C180 0.949 . S
C177 C178 1.349 . S
C177 C179 1.327 . S
C177 H200 0.950 . S
C178 C177 1.349 . S
C178 C190 1.349 . S
C179 C177 1.327 . S
C179 C195 1.429 . S
C179 H201 0.950 . S
C180 H176 0.949 . S
C180 C188 1.574 . S
C180 C196 1.368 . S
H181 C189 0.950 . S
H182 C187 0.950 . S
H183 C188 0.949 . S
H184 C190 0.950 . S
H185 C191 0.950 . S
H186 C192 0.949 . S
C187 H182 0.950 . S
C187 C189 1.327 . S
C187 C193 1.429 . S
C188 C180 1.574 . S
C188 H183 0.949 . S
C188 C194 1.368 . S
C189 C173 1.349 . S
C189 H181 0.950 . S
C189 C187 1.327 . S
C190 C178 1.349 . S
C190 H184 0.950 . S
C190 C191 1.327 . S
C191 H185 0.950 . S
C191 C190 1.327 . S
C191 C195 1.429 . S
C192 C175 1.574 . S
C192 H186 0.949 . S
C192 C196 1.368 . S
C193 C174 1.429 . S
C193 C187 1.429 . S
C193 C194 1.523 . S
C194 C175 1.368 . S
C194 C188 1.368 . S
C194 C193 1.523 . S
C195 C179 1.429 . S
C195 C191 1.429 . S
C195 C196 1.523 . S
C196 C180 1.368 . S
C196 C192 1.368 . S
C196 C195 1.523 . S
H197 C172 0.950 . S
H198 C174 0.950 . S
H199 C175 0.949 . S
H200 C177 0.950 . S
H201 C179 0.950 . S
C202 C203 1.349 . S
C202 C204 1.327 . S
C202 H227 0.950 . S
C203 C202 1.349 . S
C203 C219 1.349 . S
C204 C202 1.327 . S
C204 C223 1.429 . S
C204 H228 0.950 . S
C205 C222 1.574 . S
C205 C224 1.368 . S
C205 H229 0.949 . S
H206 C210 0.949 . S
C207 C208 1.349 . S
C207 C209 1.327 . S
C207 H230 0.950 . S
C208 C207 1.349 . S
C208 C220 1.349 . S
C209 C207 1.327 . S
C209 C225 1.429 . S
C209 H231 0.950 . S
C210 H206 0.949 . S
C210 C218 1.574 . S
C210 C226 1.368 . S
H211 C219 0.950 1_545 S
H212 C217 0.950 . S
H213 C218 0.949 . S
H214 C220 0.950 . S
H215 C221 0.950 . S
H216 C222 0.949 . S
C217 H212 0.950 . S
C217 C219 1.327 . S
C217 C223 1.429 . S
C218 C210 1.574 . S
C218 H213 0.949 . S
C218 C224 1.368 . S
C219 C203 1.349 . S
C219 H211 0.950 1_565 S
C219 C217 1.327 . S
C220 C208 1.349 . S
C220 H214 0.950 . S
C220 C221 1.327 . S
C221 H215 0.950 . S
C221 C220 1.327 . S
C221 C225 1.429 . S
C222 C205 1.574 . S
C222 H216 0.949 . S
C222 C226 1.368 . S
C223 C204 1.429 . S
C223 C217 1.429 . S
C223 C224 1.523 . S
C224 C205 1.368 . S
C224 C218 1.368 . S
C224 C223 1.523 . S
C225 C209 1.429 . S
C225 C221 1.429 . S
C225 C226 1.523 . S
C226 C210 1.368 . S
C226 C222 1.368 . S
C226 C225 1.523 . S
H227 C202 0.950 . S
H228 C204 0.950 . S
H229 C205 0.949 . S
H230 C207 0.950 . S
H231 C209 0.950 . S
C232 C233 1.349 . S
C232 C234 1.327 . S
C232 H257 0.950 . S
C233 C232 1.349 . S
C233 C249 1.349 . S
C234 C232 1.327 . S
C234 C253 1.429 . S
C234 H258 0.950 . S
C235 C252 1.574 . S
C235 C254 1.368 . S
C235 H259 0.949 . S
H236 C240 0.949 . S
C237 C238 1.349 . S
C237 C239 1.327 . S
C237 H260 0.950 . S
C238 C237 1.349 . S
C238 C250 1.349 . S
C239 C237 1.327 . S
C239 C255 1.429 . S
C239 H261 0.950 . S
C240 H236 0.949 . S
C240 C248 1.574 . S
C240 C256 1.368 . S
H241 C249 0.950 1_455 S
H242 C247 0.950 . S
H243 C248 0.949 . S
H244 C250 0.950 . S
H245 C251 0.950 . S
H246 C252 0.949 . S
C247 H242 0.950 . S
C247 C249 1.327 . S
C247 C253 1.429 . S
C248 C240 1.574 . S
C248 H243 0.949 . S
C248 C254 1.368 . S
C249 C233 1.349 . S
C249 H241 0.950 1_655 S
C249 C247 1.327 . S
C250 C238 1.349 . S
C250 H244 0.950 . S
C250 C251 1.327 . S
C251 H245 0.950 . S
C251 C250 1.327 . S
C251 C255 1.429 . S
C252 C235 1.574 . S
C252 H246 0.949 . S
C252 C256 1.368 . S
C253 C234 1.429 . S
C253 C247 1.429 . S
C253 C254 1.523 . S
C254 C235 1.368 . S
C254 C248 1.368 . S
C254 C253 1.523 . S
C255 C239 1.429 . S
C255 C251 1.429 . S
C255 C256 1.523 . S
C256 C240 1.368 . S
C256 C252 1.368 . S
C256 C255 1.523 . S
H257 C232 0.950 . S
H258 C234 0.950 . S
H259 C235 0.949 . S
H260 C237 0.950 . S
H261 C239 0.950 . S
C262 C263 1.349 . S
C262 C264 1.327 . S
C262 H287 0.950 . S
C263 C262 1.349 . S
C263 C279 1.349 . S
C264 C262 1.327 . S
C264 C283 1.429 . S
C264 H288 0.950 . S
C265 C282 1.574 . S
C265 C284 1.368 . S
C265 H289 0.949 . S
H266 C270 0.949 . S
C267 C268 1.349 . S
C267 C269 1.327 . S
C267 H290 0.950 . S
C268 C267 1.349 . S
C268 C280 1.349 . S
C269 C267 1.327 . S
C269 C285 1.429 . S
C269 H291 0.950 . S
C270 H266 0.949 . S
C270 C278 1.574 . S
C270 C286 1.368 . S
H271 C279 0.950 1_545 S
H272 C277 0.950 . S
H273 C278 0.949 . S
H274 C280 0.950 . S
H275 C281 0.950 . S
H276 C282 0.949 . S
C277 H272 0.950 . S
C277 C279 1.327 . S
C277 C283 1.429 . S
C278 C270 1.574 . S
C278 H273 0.949 . S
C278 C284 1.368 . S
C279 C263 1.349 . S
C279 H271 0.950 1_565 S
C279 C277 1.327 . S
C280 C268 1.349 . S
C280 H274 0.950 . S
C280 C281 1.327 . S
C281 H275 0.950 . S
C281 C280 1.327 . S
C281 C285 1.429 . S
C282 C265 1.574 . S
C282 H276 0.949 . S
C282 C286 1.368 . S
C283 C264 1.429 . S
C283 C277 1.429 . S
C283 C284 1.523 . S
C284 C265 1.368 . S
C284 C278 1.368 . S
C284 C283 1.523 . S
C285 C269 1.429 . S
C285 C281 1.429 . S
C285 C286 1.523 . S
C286 C270 1.368 . S
C286 C282 1.368 . S
C286 C285 1.523 . S
H287 C262 0.950 . S
H288 C264 0.950 . S
H289 C265 0.949 . S
H290 C267 0.950 . S
H291 C269 0.950 . S
C292 C293 1.349 . S
C292 C294 1.327 . S
C292 H317 0.950 . S
C293 C292 1.349 . S
C293 C309 1.349 . S
C294 C292 1.327 . S
C294 C313 1.429 . S
C294 H318 0.950 . S
C295 C312 1.574 . S
C295 C314 1.368 . S
C295 H319 0.949 . S
H296 C300 0.949 . S
C297 C298 1.349 . S
C297 C299 1.327 . S
C297 H320 0.950 . S
C298 C297 1.349 . S
C298 C310 1.349 . S
C299 C297 1.327 . S
C299 C315 1.429 . S
C299 H321 0.950 . S
C300 H296 0.949 . S
C300 C308 1.574 . S
C300 C316 1.368 . S
H301 C309 0.950 . S
H302 C307 0.950 . S
H303 C308 0.949 . S
H304 C310 0.950 . S
H305 C311 0.950 . S
H306 C312 0.949 . S
C307 H302 0.950 . S
C307 C309 1.327 . S
C307 C313 1.429 . S
C308 C300 1.574 . S
C308 H303 0.949 . S
C308 C314 1.368 . S
C309 C293 1.349 . S
C309 H301 0.950 . S
C309 C307 1.327 . S
C310 C298 1.349 . S
C310 H304 0.950 . S
C310 C311 1.327 . S
C311 H305 0.950 . S
C311 C310 1.327 . S
C311 C315 1.429 . S
C312 C295 1.574 . S
C312 H306 0.949 . S
C312 C316 1.368 . S
C313 C294 1.429 . S
C313 C307 1.429 . S
C313 C314 1.523 . S
C314 C295 1.368 . S
C314 C308 1.368 . S
C314 C313 1.523 . S
C315 C299 1.429 . S
C315 C311 1.429 . S
C315 C316 1.523 . S
C316 C300 1.368 . S
C316 C312 1.368 . S
C316 C315 1.523 . S
H317 C292 0.950 . S
H318 C294 0.950 . S
H319 C295 0.949 . S
H320 C297 0.950 . S
H321 C299 0.950 . S
C322 C323 1.349 . S
C322 C324 1.327 . S
C322 H347 0.950 . S
C323 C322 1.349 . S
C323 C339 1.349 . S
C324 C322 1.327 . S
C324 C343 1.429 . S
C324 H348 0.950 . S
C325 C342 1.574 . S
C325 C344 1.368 . S
C325 H349 0.949 . S
H326 C330 0.949 . S
C327 C328 1.349 . S
C327 C329 1.327 . S
C327 H350 0.950 . S
C328 C327 1.349 . S
C328 C340 1.349 . S
C329 C327 1.327 . S
C329 C345 1.429 . S
C329 H351 0.950 . S
C330 H326 0.949 . S
C330 C338 1.574 . S
C330 C346 1.368 . S
H331 C339 0.950 . S
H332 C337 0.950 . S
H333 C338 0.949 . S
H334 C340 0.950 . S
H335 C341 0.950 . S
H336 C342 0.949 . S
C337 H332 0.950 . S
C337 C339 1.327 . S
C337 C343 1.429 . S
C338 C330 1.574 . S
C338 H333 0.949 . S
C338 C344 1.368 . S
C339 C323 1.349 . S
C339 H331 0.950 . S
C339 C337 1.327 . S
C340 C328 1.349 . S
C340 H334 0.950 . S
C340 C341 1.327 . S
C341 H335 0.950 . S
C341 C340 1.327 . S
C341 C345 1.429 . S
C342 C325 1.574 . S
C342 H336 0.949 . S
C342 C346 1.368 . S
C343 C324 1.429 . S
C343 C337 1.429 . S
C343 C344 1.523 . S
C344 C325 1.368 . S
C344 C338 1.368 . S
C344 C343 1.523 . S
C345 C329 1.429 . S
C345 C341 1.429 . S
C345 C346 1.523 . S
C346 C330 1.368 . S
C346 C342 1.368 . S
C346 C345 1.523 . S
H347 C322 0.950 . S
H348 C324 0.950 . S
H349 C325 0.949 . S
H350 C327 0.950 . S
H351 C329 0.950 . S
C352 C353 1.349 . S
C352 C354 1.327 . S
C352 H377 0.950 . S
C353 C352 1.349 . S
C353 C369 1.349 . S
C354 C352 1.327 . S
C354 C373 1.429 . S
C354 H378 0.950 . S
C355 C372 1.574 . S
C355 C374 1.368 . S
C355 H379 0.949 . S
H356 C360 0.949 . S
C357 C358 1.349 . S
C357 C359 1.327 . S
C357 H380 0.950 . S
C358 C357 1.349 . S
C358 C370 1.349 . S
C359 C357 1.327 . S
C359 C375 1.429 . S
C359 H381 0.950 . S
C360 H356 0.949 . S
C360 C368 1.574 . S
C360 C376 1.368 . S
H361 C369 0.950 1_455 S
H362 C367 0.950 . S
H363 C368 0.949 . S
H364 C370 0.950 . S
H365 C371 0.950 . S
H366 C372 0.949 . S
C367 H362 0.950 . S
C367 C369 1.327 . S
C367 C373 1.429 . S
C368 C360 1.574 . S
C368 H363 0.949 . S
C368 C374 1.368 . S
C369 C353 1.349 . S
C369 H361 0.950 1_655 S
C369 C367 1.327 . S
C370 C358 1.349 . S
C370 H364 0.950 . S
C370 C371 1.327 . S
C371 H365 0.950 . S
C371 C370 1.327 . S
C371 C375 1.429 . S
C372 C355 1.574 . S
C372 H366 0.949 . S
C372 C376 1.368 . S
C373 C354 1.429 . S
C373 C367 1.429 . S
C373 C374 1.523 . S
C374 C355 1.368 . S
C374 C368 1.368 . S
C374 C373 1.523 . S
C375 C359 1.429 . S
C375 C371 1.429 . S
C375 C376 1.523 . S
C376 C360 1.368 . S
C376 C372 1.368 . S
C376 C375 1.523 . S
H377 C352 0.950 . S
H378 C354 0.950 . S
H379 C355 0.949 . S
H380 C357 0.950 . S
H381 C359 0.950 . S
C382 C383 1.349 . S
C382 C384 1.327 . S
C382 H407 0.950 1_565 S
C383 C382 1.349 . S
C383 C399 1.349 . S
C384 C382 1.327 . S
C384 C403 1.429 . S
C384 H408 0.950 . S
C385 C402 1.574 . S
C385 C404 1.368 . S
C385 H409 0.949 . S
H386 C390 0.949 . S
C387 C388 1.349 . S
C387 C389 1.327 . S
C387 H410 0.950 . S
C388 C387 1.349 . S
C388 C400 1.349 . S
C389 C387 1.327 . S
C389 C405 1.429 . S
C389 H411 0.950 . S
C390 H386 0.949 . S
C390 C398 1.574 . S
C390 C406 1.368 . S
H391 C399 0.950 . S
H392 C397 0.950 . S
H393 C398 0.949 . S
H394 C400 0.950 . S
H395 C401 0.950 . S
H396 C402 0.949 . S
C397 H392 0.950 . S
C397 C399 1.327 . S
C397 C403 1.429 . S
C398 C390 1.574 . S
C398 H393 0.949 . S
C398 C404 1.368 . S
C399 C383 1.349 . S
C399 H391 0.950 . S
C399 C397 1.327 . S
C400 C388 1.349 . S
C400 H394 0.950 . S
C400 C401 1.327 . S
C401 H395 0.950 . S
C401 C400 1.327 . S
C401 C405 1.429 . S
C402 C385 1.574 . S
C402 H396 0.949 . S
C402 C406 1.368 . S
C403 C384 1.429 . S
C403 C397 1.429 . S
C403 C404 1.523 . S
C404 C385 1.368 . S
C404 C398 1.368 . S
C404 C403 1.523 . S
C405 C389 1.429 . S
C405 C401 1.429 . S
C405 C406 1.523 . S
C406 C390 1.368 . S
C406 C402 1.368 . S
C406 C405 1.523 . S
H407 C382 0.950 1_545 S
H408 C384 0.950 . S
H409 C385 0.949 . S
H410 C387 0.950 . S
H411 C389 0.950 . S
C412 C413 1.349 . S
C412 C414 1.327 . S
C412 H437 0.950 . S
C413 C412 1.349 . S
C413 C429 1.349 . S
C414 C412 1.327 . S
C414 C433 1.429 . S
C414 H438 0.950 . S
C415 C432 1.574 . S
C415 C434 1.368 . S
C415 H439 0.949 . S
H416 C420 0.949 . S
C417 C418 1.349 . S
C417 C419 1.327 . S
C417 H440 0.950 . S
C418 C417 1.349 . S
C418 C430 1.349 . S
C419 C417 1.327 . S
C419 C435 1.429 . S
C419 H441 0.950 . S
C420 H416 0.949 . S
C420 C428 1.574 . S
C420 C436 1.368 . S
H421 C429 0.950 . S
H422 C427 0.950 . S
H423 C428 0.949 . S
H424 C430 0.950 . S
H425 C431 0.950 . S
H426 C432 0.949 . S
C427 H422 0.950 . S
C427 C429 1.327 . S
C427 C433 1.429 . S
C428 C420 1.574 . S
C428 H423 0.949 . S
C428 C434 1.368 . S
C429 C413 1.349 . S
C429 H421 0.950 . S
C429 C427 1.327 . S
C430 C418 1.349 . S
C430 H424 0.950 . S
C430 C431 1.327 . S
C431 H425 0.950 . S
C431 C430 1.327 . S
C431 C435 1.429 . S
C432 C415 1.574 . S
C432 H426 0.949 . S
C432 C436 1.368 . S
C433 C414 1.429 . S
C433 C427 1.429 . S
C433 C434 1.523 . S
C434 C415 1.368 . S
C434 C428 1.368 . S
C434 C433 1.523 . S
C435 C419 1.429 . S
C435 C431 1.429 . S
C435 C436 1.523 . S
C436 C420 1.368 . S
C436 C432 1.368 . S
C436 C435 1.523 . S
H437 C412 0.950 . S
H438 C414 0.950 . S
H439 C415 0.949 . S
H440 C417 0.950 . S
H441 C419 0.950 . S
C83 C9 1.407 . S
C88 C59 1.312 . S
C113 C22 1.161 . S
C118 C65 1.092 . S
C143 C4 1.214 . S
C148 C56 1.142 . S
C173 C32 1.489 . S
C178 C81 1.374 . S
C203 C19 1.819 . S
C208 C47 1.670 . S
C238 C64 1.661 . S
C233 C38 1.767 . S
C263 C29 1.407 . S
C268 C60 1.312 . S
C298 C77 1.661 . S
C293 C18 1.767 . S
C328 C44 1.670 . S
C323 C39 1.819 . S
C358 C80 1.374 . S
C353 C12 1.489 . S
C388 C43 1.142 . S
C383 C24 1.214 . S
C418 C68 1.092 . S
C413 C2 1.160 . S
