# Generated by pormake.
# Topology iac, (4,6)-cn, num edge types: 1
# Building blocks:
#     Node 0, Type 0, BuildingBlock: NAHDIM_clean_sbu_0, # of connection points: 4
#     Node 1, Type 0, BuildingBlock: NAHDIM_clean_sbu_0, # of connection points: 4
#     Node 2, Type 0, BuildingBlock: NAHDIM_clean_sbu_0, # of connection points: 4
#     Node 3, Type 0, BuildingBlock: NAHDIM_clean_sbu_0, # of connection points: 4
#     Node 4, Type 0, BuildingBlock: NAHDIM_clean_sbu_0, # of connection points: 4
#     Node 5, Type 0, BuildingBlock: NAHDIM_clean_sbu_0, # of connection points: 4
#     Node 6, Type 0, BuildingBlock: NAHDIM_clean_sbu_0, # of connection points: 4
#     Node 7, Type 0, BuildingBlock: NAHDIM_clean_sbu_0, # of connection points: 4
#     Node 8, Type 0, BuildingBlock: NAHDIM_clean_sbu_0, # of connection points: 4
#     Node 9, Type 0, BuildingBlock: NAHDIM_clean_sbu_0, # of connection points: 4
#     Node 10, Type 0, BuildingBlock: NAHDIM_clean_sbu_0, # of connection points: 4
#     Node 11, Type 0, BuildingBlock: NAHDIM_clean_sbu_0, # of connection points: 4
#     Node 12, Type 0, BuildingBlock: NAHDIM_clean_sbu_0, # of connection points: 4
#     Node 13, Type 0, BuildingBlock: NAHDIM_clean_sbu_0, # of connection points: 4
#     Node 14, Type 0, BuildingBlock: NAHDIM_clean_sbu_0, # of connection points: 4
#     Node 15, Type 0, BuildingBlock: NAHDIM_clean_sbu_0, # of connection points: 4
#     Node 16, Type 0, BuildingBlock: NAHDIM_clean_sbu_0, # of connection points: 4
#     Node 17, Type 0, BuildingBlock: NAHDIM_clean_sbu_0, # of connection points: 4
#     Node 18, Type 0, BuildingBlock: NAHDIM_clean_sbu_0, # of connection points: 4
#     Node 19, Type 0, BuildingBlock: NAHDIM_clean_sbu_0, # of connection points: 4
#     Node 20, Type 0, BuildingBlock: NAHDIM_clean_sbu_0, # of connection points: 4
#     Node 21, Type 0, BuildingBlock: NAHDIM_clean_sbu_0, # of connection points: 4
#     Node 22, Type 0, BuildingBlock: NAHDIM_clean_sbu_0, # of connection points: 4
#     Node 23, Type 0, BuildingBlock: NAHDIM_clean_sbu_0, # of connection points: 4
#     Node 24, Type 1, BuildingBlock: LEVNOQ01_clean_sbu_1, # of connection points: 6
#     Node 25, Type 1, BuildingBlock: LEVNOQ01_clean_sbu_1, # of connection points: 6
#     Node 26, Type 1, BuildingBlock: LEVNOQ01_clean_sbu_1, # of connection points: 6
#     Node 27, Type 1, BuildingBlock: LEVNOQ01_clean_sbu_1, # of connection points: 6
#     Node 28, Type 1, BuildingBlock: LEVNOQ01_clean_sbu_1, # of connection points: 6
#     Node 29, Type 1, BuildingBlock: LEVNOQ01_clean_sbu_1, # of connection points: 6
#     Node 30, Type 1, BuildingBlock: LEVNOQ01_clean_sbu_1, # of connection points: 6
#     Node 31, Type 1, BuildingBlock: LEVNOQ01_clean_sbu_1, # of connection points: 6
#     Node 32, Type 1, BuildingBlock: LEVNOQ01_clean_sbu_1, # of connection points: 6
#     Node 33, Type 1, BuildingBlock: LEVNOQ01_clean_sbu_1, # of connection points: 6
#     Node 34, Type 1, BuildingBlock: LEVNOQ01_clean_sbu_1, # of connection points: 6
#     Node 35, Type 1, BuildingBlock: LEVNOQ01_clean_sbu_1, # of connection points: 6
#     Node 36, Type 1, BuildingBlock: LEVNOQ01_clean_sbu_1, # of connection points: 6
#     Node 37, Type 1, BuildingBlock: LEVNOQ01_clean_sbu_1, # of connection points: 6
#     Node 38, Type 1, BuildingBlock: LEVNOQ01_clean_sbu_1, # of connection points: 6
#     Node 39, Type 1, BuildingBlock: LEVNOQ01_clean_sbu_1, # of connection points: 6
#     Edge 40, Type (0, 1), BuildingBlock: KIFKEQ_clean_linker_1, # of connection points: 2
#     Edge 41, Type (0, 1), BuildingBlock: KIFKEQ_clean_linker_1, # of connection points: 2
#     Edge 42, Type (0, 1), BuildingBlock: KIFKEQ_clean_linker_1, # of connection points: 2
#     Edge 43, Type (0, 1), BuildingBlock: KIFKEQ_clean_linker_1, # of connection points: 2
#     Edge 44, Type (0, 1), BuildingBlock: KIFKEQ_clean_linker_1, # of connection points: 2
#     Edge 45, Type (0, 1), BuildingBlock: KIFKEQ_clean_linker_1, # of connection points: 2
#     Edge 46, Type (0, 1), BuildingBlock: KIFKEQ_clean_linker_1, # of connection points: 2
#     Edge 47, Type (0, 1), BuildingBlock: KIFKEQ_clean_linker_1, # of connection points: 2
#     Edge 48, Type (0, 1), BuildingBlock: KIFKEQ_clean_linker_1, # of connection points: 2
#     Edge 49, Type (0, 1), BuildingBlock: KIFKEQ_clean_linker_1, # of connection points: 2
#     Edge 50, Type (0, 1), BuildingBlock: KIFKEQ_clean_linker_1, # of connection points: 2
#     Edge 51, Type (0, 1), BuildingBlock: KIFKEQ_clean_linker_1, # of connection points: 2
#     Edge 52, Type (0, 1), BuildingBlock: KIFKEQ_clean_linker_1, # of connection points: 2
#     Edge 53, Type (0, 1), BuildingBlock: KIFKEQ_clean_linker_1, # of connection points: 2
#     Edge 54, Type (0, 1), BuildingBlock: KIFKEQ_clean_linker_1, # of connection points: 2
#     Edge 55, Type (0, 1), BuildingBlock: KIFKEQ_clean_linker_1, # of connection points: 2
#     Edge 56, Type (0, 1), BuildingBlock: KIFKEQ_clean_linker_1, # of connection points: 2
#     Edge 57, Type (0, 1), BuildingBlock: KIFKEQ_clean_linker_1, # of connection points: 2
#     Edge 58, Type (0, 1), BuildingBlock: KIFKEQ_clean_linker_1, # of connection points: 2
#     Edge 59, Type (0, 1), BuildingBlock: KIFKEQ_clean_linker_1, # of connection points: 2
#     Edge 60, Type (0, 1), BuildingBlock: KIFKEQ_clean_linker_1, # of connection points: 2
#     Edge 61, Type (0, 1), BuildingBlock: KIFKEQ_clean_linker_1, # of connection points: 2
#     Edge 62, Type (0, 1), BuildingBlock: KIFKEQ_clean_linker_1, # of connection points: 2
#     Edge 63, Type (0, 1), BuildingBlock: KIFKEQ_clean_linker_1, # of connection points: 2
#     Edge 64, Type (0, 1), BuildingBlock: KIFKEQ_clean_linker_1, # of connection points: 2
#     Edge 65, Type (0, 1), BuildingBlock: KIFKEQ_clean_linker_1, # of connection points: 2
#     Edge 66, Type (0, 1), BuildingBlock: KIFKEQ_clean_linker_1, # of connection points: 2
#     Edge 67, Type (0, 1), BuildingBlock: KIFKEQ_clean_linker_1, # of connection points: 2
#     Edge 68, Type (0, 1), BuildingBlock: KIFKEQ_clean_linker_1, # of connection points: 2
#     Edge 69, Type (0, 1), BuildingBlock: KIFKEQ_clean_linker_1, # of connection points: 2
#     Edge 70, Type (0, 1), BuildingBlock: KIFKEQ_clean_linker_1, # of connection points: 2
#     Edge 71, Type (0, 1), BuildingBlock: KIFKEQ_clean_linker_1, # of connection points: 2
#     Edge 72, Type (0, 1), BuildingBlock: KIFKEQ_clean_linker_1, # of connection points: 2
#     Edge 73, Type (0, 1), BuildingBlock: KIFKEQ_clean_linker_1, # of connection points: 2
#     Edge 74, Type (0, 1), BuildingBlock: KIFKEQ_clean_linker_1, # of connection points: 2
#     Edge 75, Type (0, 1), BuildingBlock: KIFKEQ_clean_linker_1, # of connection points: 2
#     Edge 76, Type (0, 1), BuildingBlock: KIFKEQ_clean_linker_1, # of connection points: 2
#     Edge 77, Type (0, 1), BuildingBlock: KIFKEQ_clean_linker_1, # of connection points: 2
#     Edge 78, Type (0, 1), BuildingBlock: KIFKEQ_clean_linker_1, # of connection points: 2
#     Edge 79, Type (0, 1), BuildingBlock: KIFKEQ_clean_linker_1, # of connection points: 2
#     Edge 80, Type (0, 1), BuildingBlock: KIFKEQ_clean_linker_1, # of connection points: 2
#     Edge 81, Type (0, 1), BuildingBlock: KIFKEQ_clean_linker_1, # of connection points: 2
#     Edge 82, Type (0, 1), BuildingBlock: KIFKEQ_clean_linker_1, # of connection points: 2
#     Edge 83, Type (0, 1), BuildingBlock: KIFKEQ_clean_linker_1, # of connection points: 2
#     Edge 84, Type (0, 1), BuildingBlock: KIFKEQ_clean_linker_1, # of connection points: 2
#     Edge 85, Type (0, 1), BuildingBlock: KIFKEQ_clean_linker_1, # of connection points: 2
#     Edge 86, Type (0, 1), BuildingBlock: KIFKEQ_clean_linker_1, # of connection points: 2
#     Edge 87, Type (0, 1), BuildingBlock: KIFKEQ_clean_linker_1, # of connection points: 2
#     Edge 88, Type (0, 1), BuildingBlock: KIFKEQ_clean_linker_1, # of connection points: 2
#     Edge 89, Type (0, 1), BuildingBlock: KIFKEQ_clean_linker_1, # of connection points: 2
#     Edge 90, Type (0, 1), BuildingBlock: KIFKEQ_clean_linker_1, # of connection points: 2
#     Edge 91, Type (0, 1), BuildingBlock: KIFKEQ_clean_linker_1, # of connection points: 2
#     Edge 92, Type (0, 1), BuildingBlock: KIFKEQ_clean_linker_1, # of connection points: 2
#     Edge 93, Type (0, 1), BuildingBlock: KIFKEQ_clean_linker_1, # of connection points: 2
#     Edge 94, Type (0, 1), BuildingBlock: KIFKEQ_clean_linker_1, # of connection points: 2
#     Edge 95, Type (0, 1), BuildingBlock: KIFKEQ_clean_linker_1, # of connection points: 2
#     Edge 96, Type (0, 1), BuildingBlock: KIFKEQ_clean_linker_1, # of connection points: 2
#     Edge 97, Type (0, 1), BuildingBlock: KIFKEQ_clean_linker_1, # of connection points: 2
#     Edge 98, Type (0, 1), BuildingBlock: KIFKEQ_clean_linker_1, # of connection points: 2
#     Edge 99, Type (0, 1), BuildingBlock: KIFKEQ_clean_linker_1, # of connection points: 2
#     Edge 100, Type (0, 1), BuildingBlock: KIFKEQ_clean_linker_1, # of connection points: 2
#     Edge 101, Type (0, 1), BuildingBlock: KIFKEQ_clean_linker_1, # of connection points: 2
#     Edge 102, Type (0, 1), BuildingBlock: KIFKEQ_clean_linker_1, # of connection points: 2
#     Edge 103, Type (0, 1), BuildingBlock: KIFKEQ_clean_linker_1, # of connection points: 2
#     Edge 104, Type (0, 1), BuildingBlock: KIFKEQ_clean_linker_1, # of connection points: 2
#     Edge 105, Type (0, 1), BuildingBlock: KIFKEQ_clean_linker_1, # of connection points: 2
#     Edge 106, Type (0, 1), BuildingBlock: KIFKEQ_clean_linker_1, # of connection points: 2
#     Edge 107, Type (0, 1), BuildingBlock: KIFKEQ_clean_linker_1, # of connection points: 2
#     Edge 108, Type (0, 1), BuildingBlock: KIFKEQ_clean_linker_1, # of connection points: 2
#     Edge 109, Type (0, 1), BuildingBlock: KIFKEQ_clean_linker_1, # of connection points: 2
#     Edge 110, Type (0, 1), BuildingBlock: KIFKEQ_clean_linker_1, # of connection points: 2
#     Edge 111, Type (0, 1), BuildingBlock: KIFKEQ_clean_linker_1, # of connection points: 2
#     Edge 112, Type (0, 1), BuildingBlock: KIFKEQ_clean_linker_1, # of connection points: 2
#     Edge 113, Type (0, 1), BuildingBlock: KIFKEQ_clean_linker_1, # of connection points: 2
#     Edge 114, Type (0, 1), BuildingBlock: KIFKEQ_clean_linker_1, # of connection points: 2
#     Edge 115, Type (0, 1), BuildingBlock: KIFKEQ_clean_linker_1, # of connection points: 2
#     Edge 116, Type (0, 1), BuildingBlock: KIFKEQ_clean_linker_1, # of connection points: 2
#     Edge 117, Type (0, 1), BuildingBlock: KIFKEQ_clean_linker_1, # of connection points: 2
#     Edge 118, Type (0, 1), BuildingBlock: KIFKEQ_clean_linker_1, # of connection points: 2
#     Edge 119, Type (0, 1), BuildingBlock: KIFKEQ_clean_linker_1, # of connection points: 2
#     Edge 120, Type (0, 1), BuildingBlock: KIFKEQ_clean_linker_1, # of connection points: 2
#     Edge 121, Type (0, 1), BuildingBlock: KIFKEQ_clean_linker_1, # of connection points: 2
#     Edge 122, Type (0, 1), BuildingBlock: KIFKEQ_clean_linker_1, # of connection points: 2
#     Edge 123, Type (0, 1), BuildingBlock: KIFKEQ_clean_linker_1, # of connection points: 2
#     Edge 124, Type (0, 1), BuildingBlock: KIFKEQ_clean_linker_1, # of connection points: 2
#     Edge 125, Type (0, 1), BuildingBlock: KIFKEQ_clean_linker_1, # of connection points: 2
#     Edge 126, Type (0, 1), BuildingBlock: KIFKEQ_clean_linker_1, # of connection points: 2
#     Edge 127, Type (0, 1), BuildingBlock: KIFKEQ_clean_linker_1, # of connection points: 2
#     Edge 128, Type (0, 1), BuildingBlock: KIFKEQ_clean_linker_1, # of connection points: 2
#     Edge 129, Type (0, 1), BuildingBlock: KIFKEQ_clean_linker_1, # of connection points: 2
#     Edge 130, Type (0, 1), BuildingBlock: KIFKEQ_clean_linker_1, # of connection points: 2
#     Edge 131, Type (0, 1), BuildingBlock: KIFKEQ_clean_linker_1, # of connection points: 2
#     Edge 132, Type (0, 1), BuildingBlock: KIFKEQ_clean_linker_1, # of connection points: 2
#     Edge 133, Type (0, 1), BuildingBlock: KIFKEQ_clean_linker_1, # of connection points: 2
#     Edge 134, Type (0, 1), BuildingBlock: KIFKEQ_clean_linker_1, # of connection points: 2
#     Edge 135, Type (0, 1), BuildingBlock: KIFKEQ_clean_linker_1, # of connection points: 2
# Relax obj value: 0.106
# Max RMSD: 0.165
# Mean RMSD: 0.130
data_MOF--net-iac--node1-NAHDIM_clean_sbu_0--node2-LEVNOQ01_clean_sbu_1--edge1-KIFKEQ_clean_linker_1
_symmetry_space_group_name_H-M    P1
_symmetry_Int_Tables_number       1
_symmetry_cell_setting            triclinic
loop_
_symmetry_equiv_pos_as_xyz
'x, y, z'
_cell_length_a     56.316549
_cell_length_b     54.901729
_cell_length_c     53.822999
_cell_angle_alpha  90.112856
_cell_angle_beta   90.272453
_cell_angle_gamma 90.708931
loop_
_atom_site_label
_atom_site_type_symbol
_atom_site_fract_x
_atom_site_fract_y
_atom_site_fract_z
_atom_type_partial_charge
C0 C 0.93511 0.24525 0.12847 0.0
O1 O 0.93751 0.23362 0.1073 0.0
O2 O 0.98896 0.2156 0.10903 0.0
Zn3 Zn 0.98575 0.2481 0.12607 0.0
O4 O 0.98761 0.27662 0.10284 0.0
C5 C 0.03268 0.2505 0.14232 0.0
O6 O 0.03455 0.2484 0.11809 0.0
O7 O 0.95344 0.25159 0.1409 0.0
C8 C 0.99147 0.29709 0.11328 0.0
O9 O -0.00379 0.29782 0.13719 0.0
C10 C -0.00153 0.21183 0.08801 0.0
O11 O 0.00589 0.23042 0.07467 0.0
O12 O 0.01205 0.25083 0.15175 0.0
C13 C 0.04166 0.75433 0.34677 0.0
O14 O 0.04207 0.76795 0.36687 0.0
O15 O 0.00625 0.71496 0.39812 0.0
Zn16 Zn -0.00127 0.73695 0.36909 0.0
O17 O -0.00684 0.77134 0.38037 0.0
C18 C 0.95088 0.71724 0.36283 0.0
O19 O 0.95213 0.71223 0.38664 0.0
O20 O 0.02516 0.73852 0.34404 0.0
C21 C 0.9731 0.7797 0.38658 0.0
O22 O 0.95436 0.76529 0.38708 0.0
C23 C -0.0029 0.71799 0.41948 0.0
O24 O 0.98319 0.73663 0.42332 0.0
O25 O 0.96904 0.72577 0.35177 0.0
C26 C 0.44316 0.76618 0.64017 0.0
O27 O 0.44459 0.77836 0.61925 0.0
O28 O 0.49193 0.72017 0.6076 0.0
Zn29 Zn 0.49071 0.75143 0.62725 0.0
O30 O 0.49166 0.78142 0.60603 0.0
C31 C 0.53735 0.74089 0.64555 0.0
O32 O 0.53908 0.73069 0.62356 0.0
O33 O 0.46041 0.75289 0.64689 0.0
C34 C 0.50871 0.79676 0.60592 0.0
O35 O 0.5284 0.79189 0.61801 0.0
C36 C 0.4994 0.71747 0.58551 0.0
O37 O 0.50554 0.73669 0.57241 0.0
O38 O 0.5182 0.75147 0.65136 0.0
C39 C 0.54169 0.25101 0.85077 0.0
O40 O 0.54428 0.2636 0.87142 0.0
O41 O 0.50747 0.21562 0.90191 0.0
Zn42 Zn 0.49848 0.23763 0.87408 0.0
O43 O 0.49478 0.27137 0.88677 0.0
C44 C 0.44844 0.2262 0.87022 0.0
O45 O 0.44788 0.23224 0.89383 0.0
O46 O 0.52325 0.23783 0.84778 0.0
C47 C 0.48105 0.28697 0.87718 0.0
O48 O 0.468 0.28104 0.85774 0.0
C49 C 0.49999 0.21887 0.9239 0.0
O50 O 0.48659 0.23766 0.92884 0.0
O51 O 0.46813 0.22644 0.85884 0.0
C52 C 0.13738 0.94149 0.25372 0.0
O53 O 0.11769 0.945 0.26612 0.0
O54 O 0.10519 0.99165 0.22044 0.0
Zn55 Zn 0.13166 0.99188 0.2459 0.0
O56 O 0.11968 0.99207 0.28081 0.0
C57 C 0.14925 0.03909 0.22892 0.0
O58 O 0.12832 0.03997 0.21814 0.0
O59 O 0.1474 0.95939 0.24274 0.0
C60 C 0.11022 0.00917 0.29291 0.0
O61 O 0.107 0.03041 0.28231 0.0
C62 C 0.0857 0.0031 0.21958 0.0
O63 O 0.08037 0.01846 0.23738 0.0
O64 O 0.15483 0.0201 0.24105 0.0
C65 C 0.20722 0.9065 0.4842 0.0
O66 O 0.20551 0.88572 0.47212 0.0
O67 O 0.23724 0.8591 0.52388 0.0
Zn68 Zn 0.24967 0.88477 0.50101 0.0
O69 O 0.25726 0.87123 0.46737 0.0
C70 C 0.29475 0.88768 0.52718 0.0
O71 O 0.29126 0.86454 0.53232 0.0
O72 O 0.22531 0.91059 0.49777 0.0
C73 C 0.27668 0.86064 0.46263 0.0
O74 O 0.29265 0.85803 0.4802 0.0
C75 C 0.24135 0.83642 0.5229 0.0
O76 O 0.25432 0.8277 0.50481 0.0
O77 O 0.27896 0.89941 0.51547 0.0
C78 C 0.34262 0.0468 0.74405 0.0
O79 O 0.36545 0.052 0.74488 0.0
O80 O 0.38431 0.00356 0.71358 0.0
Zn81 Zn 0.3607 -0.00122 0.74099 0.0
O82 O 0.37702 -0.00326 0.77418 0.0
C83 C 0.35518 0.94943 0.72397 0.0
O84 O 0.37442 0.95437 0.71116 0.0
O85 O 0.336 0.02473 0.74189 0.0
C86 C 0.38958 0.97814 0.77864 0.0
O87 O 0.39261 0.96192 0.76104 0.0
C88 C 0.40638 0.008 0.71633 0.0
O89 O 0.41501 0.01272 0.73855 0.0
O90 O 0.34518 0.96633 0.73609 0.0
C91 C 0.30304 0.09822 0.98129 0.0
O92 O 0.30295 0.12128 0.9879 0.0
O93 O 0.26214 0.11924 0.02833 0.0
Zn94 Zn 0.25651 0.10541 -0.0059 0.0
O95 O 0.25604 0.13056 0.96749 0.0
C96 C 0.20664 0.101 -0.00545 0.0
O97 O 0.20946 0.12463 -0.00261 0.0
O98 O 0.28419 0.08543 0.98376 0.0
C99 C 0.24898 0.12279 0.94643 0.0
O100 O 0.24012 0.10062 0.94442 0.0
C101 C 0.25706 0.14116 0.03331 0.0
O102 O 0.24913 0.15526 0.01549 0.0
O103 O 0.22497 0.08771 0.99326 0.0
C104 C 0.71099 0.40974 0.98618 0.0
O105 O 0.71342 0.39588 0.96646 0.0
O106 O 0.73698 0.35206 0.02725 0.0
Zn107 Zn 0.74851 0.37958 0.00567 0.0
O108 O 0.75395 0.36826 0.97068 0.0
C109 C 0.79532 0.38035 0.02911 0.0
O110 O 0.79145 0.35706 0.03313 0.0
O111 O 0.7241 0.40612 0.0051 0.0
C112 C 0.77391 0.36337 0.96103 0.0
O113 O 0.79331 0.3645 0.97463 0.0
C114 C 0.74352 0.33009 0.02491 0.0
O115 O 0.75799 0.32425 0.00683 0.0
O116 O 0.77917 0.39304 0.01905 0.0
C117 C 0.85125 0.5427 0.25072 0.0
O118 O 0.87067 0.5441 0.26428 0.0
O119 O 0.8998 0.50707 0.20791 0.0
Zn120 Zn 0.87471 0.50042 0.23304 0.0
O121 O 0.88977 0.49749 0.26619 0.0
C122 C 0.87389 0.44952 0.22633 0.0
O123 O 0.89587 0.45195 0.23433 0.0
O124 O 0.84914 0.52574 0.23471 0.0
C125 C 0.87957 0.48763 0.28466 0.0
O126 O 0.85811 0.47827 0.28203 0.0
C127 C 0.92045 0.51567 0.21229 0.0
O128 O 0.926 0.52377 0.23458 0.0
O129 O 0.86096 0.46822 0.22427 0.0
C130 C 0.80083 0.60041 0.48489 0.0
O131 O 0.80072 0.62342 0.49167 0.0
O132 O 0.7596 0.62182 0.53062 0.0
Zn133 Zn 0.75415 0.60839 0.49602 0.0
O134 O 0.75519 0.63366 0.46943 0.0
C135 C 0.70404 0.60498 0.49229 0.0
O136 O 0.70705 0.62871 0.4936 0.0
O137 O 0.78175 0.58783 0.4865 0.0
C138 C 0.75115 0.62489 0.44792 0.0
O139 O 0.74458 0.60194 0.44566 0.0
C140 C 0.75319 0.64316 0.53647 0.0
O141 O 0.74331 0.65691 0.51946 0.0
O142 O 0.72217 0.59139 0.49359 0.0
C143 C 0.63975 0.44761 0.75307 0.0
O144 O 0.61656 0.4477 0.75026 0.0
O145 O 0.60772 0.49205 0.72056 0.0
Zn146 Zn 0.6314 0.49735 0.74814 0.0
O147 O 0.6146 0.49839 0.78062 0.0
C148 C 0.6434 0.54527 0.72871 0.0
O149 O 0.62214 0.54336 0.71873 0.0
O150 O 0.65136 0.46757 0.75155 0.0
C151 C 0.62201 0.51004 0.79956 0.0
O152 O 0.64029 0.525 0.79763 0.0
C153 C 0.58672 0.50031 0.7209 0.0
O154 O 0.57973 0.5132 0.74005 0.0
O155 O 0.65117 0.52786 0.74195 0.0
C156 C 0.05655 0.73709 0.85307 0.0
O157 O 0.05501 0.73126 0.87667 0.0
O158 O 0.00871 0.71748 0.88346 0.0
Zn159 Zn 0.00821 0.74717 0.86153 0.0
O160 O 0.00658 0.77933 0.88019 0.0
C161 C 0.96133 0.73419 0.84686 0.0
O162 O 0.96212 0.72414 0.86897 0.0
O163 O 0.03843 0.74558 0.84203 0.0
C164 C 0.98721 0.78764 0.88867 0.0
O165 O 0.96776 0.7743 0.88699 0.0
C166 C 0.00509 0.71544 0.90661 0.0
O167 O -0.0007 0.73466 0.91972 0.0
O168 O 0.97979 0.7449 0.8386 0.0
C169 C 0.95363 0.23902 0.65046 0.0
O170 O 0.95042 0.22942 0.6283 0.0
O171 O -0.00092 0.21533 0.61381 0.0
Zn172 Zn -0.00093 0.24826 0.62992 0.0
O173 O -0.00607 0.2748 0.60502 0.0
C174 C 0.04859 0.24214 0.63964 0.0
O175 O 0.04712 0.22695 0.6208 0.0
O176 O 0.97351 0.24893 0.6557 0.0
C177 C 0.00882 0.27998 0.58808 0.0
O178 O 0.02846 0.26744 0.58641 0.0
C179 C 0.99129 0.21198 0.59192 0.0
O180 O 0.98234 0.23039 0.57963 0.0
O181 O 0.03027 0.25354 0.64652 0.0
C182 C 0.54696 0.23026 0.344 0.0
O183 O 0.54105 0.20921 0.35386 0.0
O184 O 0.50007 0.21387 0.38025 0.0
Zn185 Zn 0.50015 0.24503 0.36086 0.0
O186 O 0.49882 0.27388 0.38403 0.0
C187 C 0.4591 0.2282 0.33173 0.0
O188 O 0.46556 0.20646 0.33911 0.0
O189 O 0.53181 0.24732 0.34336 0.0
C190 C 0.48058 0.2867 0.38821 0.0
O191 O 0.46025 0.28077 0.37762 0.0
C192 C 0.50831 0.21245 0.40222 0.0
O193 O 0.51508 0.23236 0.41398 0.0
O194 O 0.47181 0.24662 0.33771 0.0
C195 C 0.44829 0.74465 0.14924 0.0
O196 O 0.44364 0.73931 0.12589 0.0
O197 O 0.49298 0.71597 0.11398 0.0
Zn198 Zn 0.49542 0.74849 0.13025 0.0
O199 O 0.49368 0.77576 0.10527 0.0
C200 C 0.54417 0.73683 0.14054 0.0
O201 O 0.54268 0.72489 0.11941 0.0
O202 O 0.46942 0.75037 0.15546 0.0
C203 C 0.51104 0.78198 0.09152 0.0
O204 O 0.53132 0.77062 0.09371 0.0
C205 C 0.49263 0.71255 0.09069 0.0
O206 O 0.492 0.73136 0.07567 0.0
O207 O 0.5265 0.74888 0.14823 0.0
C208 C 0.85766 0.04993 0.73309 0.0
O209 O 0.88052 0.0494 0.72845 0.0
O210 O 0.88085 0.00021 0.70425 0.0
Zn211 Zn 0.86646 -0.00016 0.73828 0.0
O212 O 0.8923 0.00086 0.76432 0.0
C213 C 0.85718 0.9497 0.74888 0.0
O214 O 0.8805 0.94954 0.74877 0.0
O215 O 0.84702 0.03032 0.73941 0.0
C216 C 0.88849 0.99278 0.78605 0.0
O217 O 0.86699 0.98537 0.792 0.0
C218 C 0.90238 0.00665 0.70115 0.0
O219 O 0.91613 0.01025 0.72063 0.0
O220 O 0.84654 0.96942 0.74378 0.0
C221 C 0.79489 0.08719 0.49965 0.0
O222 O 0.79904 0.10767 0.51166 0.0
O223 O 0.75414 0.12335 0.52908 0.0
Zn224 Zn 0.74962 0.1086 0.49549 0.0
O225 O 0.75081 0.13393 0.46844 0.0
C226 C 0.70133 0.10062 0.50975 0.0
O227 O 0.70472 0.12092 0.5223 0.0
O228 O 0.77452 0.08343 0.49011 0.0
C229 C 0.73368 0.14778 0.46268 0.0
O230 O 0.71348 0.14577 0.47463 0.0
C231 C 0.75639 0.14608 0.53268 0.0
O232 O 0.75797 0.16077 0.51352 0.0
O233 O 0.71792 0.09226 0.49638 0.0
C234 C 0.65332 0.95517 0.23067 0.0
O235 O 0.63619 0.95321 0.21411 0.0
O236 O 0.61128 -0.00084 0.21365 0.0
Zn237 Zn 0.62849 -0.0014 0.24601 0.0
O238 O 0.60524 -0.00431 0.27428 0.0
C239 C 0.63914 0.0491 0.23728 0.0
O240 O 0.61874 0.04876 0.22537 0.0
O241 O 0.65291 0.97234 0.2465 0.0
C242 C 0.58772 0.01006 0.27559 0.0
O243 O 0.58508 0.02678 0.25842 0.0
C244 C 0.59106 0.98932 0.21029 0.0
O245 O 0.58142 0.97638 0.2282 0.0
O246 O 0.64629 0.03004 0.24821 0.0
C247 C 0.68786 0.89881 0.02547 0.0
O248 O 0.68689 0.8749 0.02504 0.0
O249 O 0.73127 0.86237 0.04202 0.0
Zn250 Zn 0.73425 0.88636 0.01428 0.0
O251 O 0.72917 0.87071 0.9806 0.0
C252 C 0.78304 0.89575 0.03025 0.0
O253 O 0.77825 0.87882 0.04675 0.0
O254 O 0.70743 0.90951 0.02034 0.0
C255 C 0.7465 0.865 0.96677 0.0
O256 O 0.76829 0.86834 0.97505 0.0
C257 C 0.72711 0.83964 0.04084 0.0
O258 O 0.72638 0.82857 0.01919 0.0
O259 O 0.76676 0.9026 0.01541 0.0
C260 C 0.29229 0.59204 0.00313 0.0
O261 O 0.29623 0.61399 0.01209 0.0
O262 O 0.25157 0.62901 0.03199 0.0
Zn263 Zn 0.24662 0.61213 -0.00063 0.0
O264 O 0.24847 0.63684 0.97188 0.0
C265 C 0.19814 0.60848 0.01227 0.0
O266 O 0.20372 0.62856 0.02437 0.0
O267 O 0.27158 0.58646 -0.00462 0.0
C268 C 0.23037 0.64461 0.96025 0.0
O269 O 0.20929 0.63534 0.96502 0.0
C270 C 0.25874 0.65097 0.03343 0.0
O271 O 0.26459 0.66272 0.01308 0.0
O272 O 0.21402 0.59747 2e-05 0.0
C273 C 0.15689 0.46115 0.75166 0.0
O274 O 0.1346 0.45383 0.75092 0.0
O275 O 0.11888 0.49673 0.7119 0.0
Zn276 Zn 0.13244 0.50422 0.74528 0.0
O277 O 0.10786 0.49653 0.77146 0.0
C278 C 0.12813 0.55398 0.73077 0.0
O279 O 0.11142 0.54461 0.71646 0.0
O280 O 0.16151 0.48378 0.74993 0.0
C281 C 0.09268 0.51199 0.77857 0.0
O282 O 0.09353 0.53425 0.76975 0.0
C283 C 0.09831 0.48747 0.7091 0.0
O284 O 0.08691 0.47901 0.72855 0.0
O285 O 0.13986 0.54016 0.74521 0.0
C286 C 0.19875 0.40618 0.52071 0.0
O287 O 0.20468 0.40308 0.54412 0.0
O288 O 0.23554 0.35677 0.53851 0.0
Zn289 Zn 0.24068 0.37724 0.50838 0.0
O290 O 0.24289 0.35807 0.47687 0.0
C291 C 0.28972 0.38356 0.51803 0.0
O292 O 0.28789 0.35968 0.51865 0.0
O293 O 0.21224 0.39833 0.50369 0.0
C294 C 0.24764 0.37048 0.45754 0.0
O295 O 0.25268 0.3938 0.45999 0.0
C296 C 0.21619 0.34733 0.54615 0.0
O297 O 0.19703 0.34828 0.53219 0.0
O298 O 0.27121 0.39596 0.51366 0.0
C299 C 0.35554 0.55041 0.23763 0.0
O300 O 0.37882 0.55168 0.23777 0.0
O301 O 0.38104 0.4998 0.20653 0.0
Zn302 Zn 0.36601 0.50005 0.2404 0.0
O303 O 0.39035 0.50349 0.26796 0.0
C304 C 0.35684 0.44917 0.24766 0.0
O305 O 0.37943 0.44848 0.24195 0.0
O306 O 0.34535 0.52973 0.24002 0.0
C307 C 0.41009 0.49253 0.26968 0.0
O308 O 0.41682 0.47794 0.25176 0.0
C309 C 0.40047 0.51105 0.20223 0.0
O310 O 0.4126 0.52073 0.22073 0.0
O311 O 0.34627 0.4695 0.247 0.0
O312 O 0.96392 0.02537 0.94247 0.0
Mg313 Mg 0.95127 0.02619 0.97907 0.0
O314 O 0.98863 -0.00429 0.95196 0.0
Mg315 Mg -0.00417 -0.00454 -0.00489 0.0
O316 O 0.97886 0.03282 0.00299 0.0
O317 O 0.94943 0.05906 -0.00307 0.0
O318 O 0.00425 -0.00587 0.0379 0.0
O319 O 0.0315 0.01663 0.9876 0.0
Mg320 Mg 0.0429 0.96099 0.007 0.0
O321 O 0.0121 0.95879 0.98802 0.0
O322 O 0.03243 0.96658 0.04445 0.0
O323 O 0.06142 0.99042 0.98995 0.0
O324 O 0.03653 0.92777 0.98852 0.0
C325 C 0.93846 0.97685 0.00042 0.0
C326 C 0.97812 0.0089 0.93587 0.0
C327 C 0.96936 0.0538 0.00744 0.0
C328 C 0.01736 0.98169 0.05253 0.0
C329 C 0.05348 0.0115 0.98522 0.0
C330 C 0.01685 0.93697 0.98098 0.0
O331 O 0.93026 -0.00368 0.99133 0.0
O332 O 0.96073 0.97365 0.00303 0.0
O333 O 0.24148 0.73023 0.32339 0.0
Mg334 Mg 0.22571 0.70547 0.29684 0.0
O335 O 0.25219 0.75885 0.29607 0.0
Mg336 Mg 0.24904 0.74595 0.25575 0.0
O337 O 0.24788 0.70748 0.26771 0.0
O338 O 0.24162 0.67227 0.28567 0.0
O339 O 0.248 0.73402 0.21483 0.0
O340 O 0.29043 0.74238 0.2541 0.0
Mg341 Mg 0.27935 0.78798 0.22463 0.0
O342 O 0.24945 0.78448 0.24408 0.0
O343 O 0.27326 0.76038 0.19671 0.0
O344 O 0.30601 0.77935 0.25098 0.0
O345 O 0.25816 0.81964 0.2271 0.0
C346 C 0.19029 0.73598 0.26629 0.0
C347 C 0.24994 0.75123 0.31827 0.0
C348 C 0.25228 0.68472 0.26874 0.0
C349 C 0.25995 0.74135 0.19604 0.0
C350 C 0.30851 0.7567 0.25457 0.0
C351 C 0.24364 0.80653 0.23991 0.0
O352 O 0.19359 0.71787 0.2806 0.0
O353 O 0.20754 0.74846 0.25722 0.0
O354 O 0.5034 0.96643 0.43498 0.0
Mg355 Mg 0.52465 0.96257 0.4672 0.0
O356 O 0.49585 0.00303 0.44937 0.0
Mg357 Mg 0.48986 0.00102 0.49237 0.0
O358 O 0.50293 0.96257 0.49688 0.0
O359 O 0.52386 0.9301 0.48721 0.0
O360 O 0.48387 0.00141 0.53538 0.0
O361 O 0.4532 0.98376 0.48593 0.0
Mg362 Mg 0.44506 0.03765 0.50687 0.0
O363 O 0.47616 0.03889 0.4885 0.0
O364 O 0.45639 0.02935 0.54358 0.0
O365 O 0.42389 0.01025 0.48884 0.0
O366 O 0.45381 0.07142 0.49072 0.0
C367 C 0.54716 0.0107 0.48853 0.0
C368 C 0.49806 0.9884 0.43111 0.0
C369 C 0.50889 0.94051 0.50166 0.0
C370 C 0.47158 0.01383 0.55071 0.0
C371 C 0.43131 0.98897 0.48406 0.0
C372 C 0.4731 0.06145 0.48331 0.0
O373 O 0.54947 0.99149 0.47542 0.0
O374 O 0.5273 0.01672 0.49792 0.0
O375 O 0.31212 0.24672 0.73455 0.0
Mg376 Mg 0.28486 0.23808 0.70833 0.0
O377 O 0.28938 0.25542 0.7672 0.0
Mg378 Mg 0.24993 0.25557 0.75573 0.0
O379 O 0.25841 0.26104 0.7157 0.0
O380 O 0.27325 0.25915 0.67807 0.0
O381 O 0.21095 0.25423 0.74412 0.0
O382 O 0.24924 0.29843 0.75992 0.0
Mg383 Mg 0.21405 0.27398 0.80052 0.0
O384 O 0.24061 0.24983 0.79602 0.0
O385 O 0.18658 0.26295 0.77514 0.0
O386 O 0.22983 0.30842 0.79435 0.0
O387 O 0.22277 0.25417 0.83221 0.0
C388 C 0.25766 0.19746 0.73473 0.0
C389 C 0.30968 0.2518 0.75749 0.0
C390 C 0.25755 0.26776 0.6929 0.0
C391 C 0.19008 0.25647 0.75275 0.0
C392 C 0.2423 0.31435 0.77567 0.0
C393 C 0.23842 0.24338 0.81888 0.0
O394 O 0.26887 0.20372 0.71525 0.0
O395 O 0.25128 0.21303 0.75112 0.0
O396 O -0.00648 0.92453 0.50616 0.0
Mg397 Mg 0.00649 0.94704 0.53577 0.0
O398 O -0.00653 0.95351 0.47711 0.0
Mg399 Mg -0.00215 0.99187 0.49398 0.0
O400 O 0.98863 0.97843 0.53152 0.0
O401 O 0.98496 0.95756 0.56598 0.0
O402 O 0.00076 0.03111 0.51018 0.0
O403 O 0.95735 -0.00297 0.48738 0.0
Mg404 Mg 0.9835 0.03057 0.44959 0.0
O405 O 0.00767 0.00459 0.45599 0.0
O406 O 0.98901 0.05556 0.47939 0.0
O407 O 0.94992 0.01297 0.45034 0.0
O408 O 0.00782 0.02496 0.4208 0.0
C409 C 0.05122 0.97351 0.51619 0.0
C410 C 0.99103 0.93136 0.48375 0.0
C411 C 0.97947 0.97643 0.55313 0.0
C412 C -0.00423 0.05221 0.50173 0.0
C413 C 0.94276 0.003 0.47025 0.0
C414 C 0.01691 0.00829 0.43455 0.0
O415 O 0.04261 0.95855 0.53193 0.0
O416 O 0.03795 0.98566 0.50147 0.0
O417 O 0.27031 0.69903 0.78642 0.0
Mg418 Mg 0.27328 0.6932 0.74705 0.0
O419 O 0.25264 0.73527 0.7867 0.0
Mg420 Mg 0.25017 0.7503 0.74694 0.0
O421 O 0.27942 0.72702 0.73507 0.0
O422 O 0.30622 0.69951 0.72827 0.0
O423 O 0.24673 0.76507 0.70683 0.0
O424 O 0.27893 0.77911 0.75665 0.0
Mg425 Mg 0.22818 0.80757 0.74716 0.0
O426 O 0.2213 0.77411 0.75998 0.0
O427 O 0.22738 0.80044 0.70799 0.0
O428 O 0.26227 0.81526 0.76283 0.0
O429 O 0.19729 0.80373 0.76947 0.0
C430 C 0.22174 0.69876 0.72878 0.0
C431 C 0.26085 0.71673 0.79797 0.0
C432 C 0.29981 0.72183 0.72646 0.0
C433 C 0.23668 0.78294 0.69602 0.0
C434 C 0.28021 0.80139 0.76329 0.0
C435 C 0.20241 0.78101 0.77086 0.0
O436 O 0.24025 0.68562 0.72882 0.0
O437 O 0.22194 0.72077 0.73663 0.0
O438 O 0.46408 0.94148 0.0239 0.0
Mg439 Mg 0.452 0.97638 0.03481 0.0
O440 O 0.49418 0.95358 -0.00012 0.0
Mg441 Mg 0.49255 -0.00445 0.99383 0.0
O442 O 0.45387 -0.00387 0.00334 0.0
O443 O 0.41953 0.98959 0.02158 0.0
O444 O 0.49232 0.03797 0.98858 0.0
O445 O 0.48064 0.98831 0.95348 0.0
Mg446 Mg 0.53348 0.01341 0.95166 0.0
O447 O 0.5306 -0.00579 0.98335 0.0
O448 O 0.52318 0.04818 0.96449 0.0
O449 O 0.50956 -0.00447 0.92631 0.0
O450 O 0.56528 -0.00193 0.96534 0.0
C451 C 0.49527 0.0032 0.05623 0.0
C452 C 0.482 0.93682 0.0105 0.0
C453 C 0.43128 -0.00086 0.0035 0.0
C454 C 0.50597 0.05392 0.97847 0.0
C455 C 0.48862 0.9881 0.93133 0.0
C456 C 0.55285 0.98976 0.98352 0.0
O457 O 0.47417 -0.00424 0.06039 0.0
O458 O 0.50426 0.00266 0.03448 0.0
O459 O 0.253 0.24793 0.18095 0.0
Mg460 Mg 0.24134 0.2816 0.19563 0.0
O461 O 0.24696 0.22554 0.21494 0.0
Mg462 Mg 0.2406 0.25105 0.24898 0.0
O463 O 0.25602 0.28384 0.22981 0.0
O464 O 0.2647 0.31123 0.20133 0.0
O465 O 0.23421 0.27859 0.2825 0.0
O466 O 0.2791 0.24324 0.26136 0.0
Mg467 Mg 0.23757 0.23317 0.29825 0.0
O468 O 0.22463 0.216 0.26669 0.0
O469 O 0.21297 0.2588 0.31021 0.0
O470 O 0.27437 0.24336 0.30185 0.0
O471 O 0.2342 0.19624 0.30151 0.0
C472 C 0.19204 0.27246 0.21838 0.0
C473 C 0.25232 0.2275 0.19199 0.0
C474 C 0.2673 0.30341 0.2237 0.0
C475 C 0.22108 0.27872 0.30185 0.0
C476 C 0.28791 0.24377 0.28314 0.0
C477 C 0.22766 0.19566 0.27851 0.0
O478 O 0.20417 0.28385 0.20211 0.0
O479 O 0.20197 0.25947 0.23512 0.0
O480 O 0.45057 0.525 0.95959 0.0
Mg481 Mg 0.48602 0.5379 0.95643 0.0
O482 O 0.45788 0.50126 0.99208 0.0
Mg483 Mg 0.49828 0.49323 -0.00434 0.0
O484 O 0.50694 0.50853 0.95794 0.0
O485 O 0.50643 0.53208 0.92475 0.0
O486 O 0.53843 0.48455 0.00033 0.0
O487 O 0.49125 0.45661 0.97586 0.0
Mg488 Mg 0.50677 0.44499 0.03308 0.0
O489 O 0.48962 0.47702 0.03251 0.0
O490 O 0.54313 0.45568 0.02904 0.0
O491 O 0.49148 0.42549 0.00246 0.0
O492 O 0.48638 0.45291 0.06483 0.0
C493 C 0.50527 0.55289 0.0081 0.0
C494 C 0.44336 0.51166 0.97733 0.0
C495 C 0.51511 0.51365 0.93626 0.0
C496 C 0.55172 0.47119 0.01386 0.0
C497 C 0.48812 0.4341 0.98081 0.0
C498 C 0.48069 0.47289 0.05397 0.0
O499 O 0.49941 0.55947 0.98628 0.0
O500 O 0.5049 0.5306 0.01493 0.0
O501 O 0.78407 0.24456 0.30493 0.0
Mg502 Mg 0.78852 0.22412 0.27203 0.0
O503 O 0.74717 0.25165 0.29381 0.0
Mg504 Mg 0.74635 0.25891 0.25075 0.0
O505 O 0.78429 0.24837 0.24451 0.0
O506 O 0.81854 0.23011 0.24997 0.0
O507 O 0.74282 0.26397 0.20704 0.0
O508 O 0.76179 0.29707 0.25651 0.0
Mg509 Mg 0.70854 0.29863 0.23146 0.0
O510 O 0.70863 0.27011 0.25608 0.0
O511 O 0.70573 0.27599 0.19994 0.0
O512 O 0.74154 0.31805 0.22879 0.0
O513 O 0.69015 0.30354 0.26529 0.0
C514 C 0.74181 0.19901 0.2525 0.0
C515 C 0.76266 0.24817 0.31079 0.0
C516 C 0.80586 0.24528 0.23761 0.0
C517 C 0.72514 0.26712 0.19222 0.0
C518 C 0.75998 0.31508 0.24196 0.0
C519 C 0.69696 0.28233 0.27215 0.0
O520 O 0.76185 0.19699 0.26344 0.0
O521 O 0.73366 0.21959 0.24577 0.0
O522 O 0.96146 0.44647 0.53262 0.0
Mg523 Mg 0.95168 0.48224 0.54369 0.0
O524 O 0.98953 0.45593 0.50492 0.0
Mg525 Mg 0.99007 0.49786 0.49821 0.0
O526 O 0.95288 0.50064 0.5116 0.0
O527 O 0.91914 0.49683 0.53141 0.0
O528 O 0.9888 0.54153 0.49397 0.0
O529 O 0.97274 0.4909 0.4603 0.0
Mg530 Mg 0.02031 0.52027 0.46444 0.0
O531 O 0.02889 0.49009 0.48431 0.0
O532 O 0.02563 0.55149 0.48571 0.0
O533 O 0.9916 0.5188 0.43844 0.0
O534 O 0.05098 0.5053 0.45319 0.0
C535 C -0.00159 0.50706 0.55954 0.0
C536 C 0.97755 0.44029 0.5174 0.0
C537 C 0.93054 0.50475 0.51233 0.0
C538 C 0.00541 0.55764 0.49307 0.0
C539 C 0.97472 0.50351 0.4407 0.0
C540 C 0.04837 0.49015 0.47132 0.0
O541 O 0.97725 0.50145 0.56574 0.0
O542 O 0.00576 0.50486 0.53723 0.0
O543 O 0.72992 0.80751 0.28732 0.0
Mg544 Mg 0.71247 0.77421 0.29456 0.0
O545 O 0.74633 0.7934 0.25283 0.0
Mg546 Mg 0.74982 0.75085 0.25427 0.0
O547 O 0.73769 0.74849 0.29409 0.0
O548 O 0.71775 0.75646 0.32834 0.0
O549 O 0.75468 0.70841 0.25447 0.0
O550 O 0.78757 0.75603 0.27024 0.0
Mg551 Mg 0.79293 0.73547 0.21512 0.0
O552 O 0.76201 0.75336 0.21468 0.0
O553 O 0.78185 0.6999 0.22558 0.0
O554 O 0.81536 0.75396 0.24118 0.0
O555 O 0.78308 0.74969 0.18049 0.0
C556 C 0.69074 0.75196 0.24645 0.0
C557 C 0.74053 0.81115 0.2669 0.0
C558 C 0.73384 0.74407 0.31722 0.0
C559 C 0.7669 0.69318 0.24193 0.0
C560 C 0.80917 0.75805 0.26348 0.0
C561 C 0.76423 0.75738 0.19128 0.0
O562 O 0.68732 0.76276 0.26707 0.0
O563 O 0.71146 0.74598 0.23925 0.0
O564 O 0.74601 0.23845 0.8212 0.0
Mg565 Mg 0.73461 0.20727 0.80015 0.0
O566 O 0.75394 0.26417 0.7901 0.0
Mg567 Mg 0.74709 0.24519 0.75239 0.0
O568 O 0.75429 0.20907 0.76909 0.0
O569 O 0.75624 0.17674 0.79279 0.0
O570 O 0.74029 0.22529 0.71478 0.0
O571 O 0.78757 0.24787 0.74436 0.0
Mg572 Mg 0.75822 0.28025 0.70456 0.0
O573 O 0.74039 0.28318 0.73686 0.0
O574 O 0.74095 0.25231 0.68401 0.0
O575 O 0.79424 0.27499 0.71441 0.0
O576 O 0.7427 0.31377 0.71008 0.0
C577 C 0.69213 0.22634 0.77136 0.0
C578 C 0.75278 0.25922 0.81323 0.0
C579 C 0.76286 0.18792 0.77296 0.0
C580 C 0.73717 0.23088 0.692 0.0
C581 C 0.80174 0.26015 0.73064 0.0
C582 C 0.73514 0.30527 0.73095 0.0
O583 O 0.69962 0.20978 0.78582 0.0
O584 O 0.70634 0.2412 0.76039 0.0
O585 O 0.75405 0.75315 0.68566 0.0
Mg586 Mg 0.73758 0.78316 0.70351 0.0
O587 O 0.75418 0.7273 0.71763 0.0
Mg588 Mg 0.74518 0.74871 0.75405 0.0
O589 O 0.75378 0.78482 0.73689 0.0
O590 O 0.75609 0.81588 0.71126 0.0
O591 O 0.7366 0.77029 0.79059 0.0
O592 O 0.78471 0.74661 0.766 0.0
Mg593 Mg 0.75094 0.71508 0.80587 0.0
O594 O 0.73677 0.71289 0.77148 0.0
O595 O 0.73346 0.74497 0.82281 0.0
O596 O 0.78777 0.7221 0.79898 0.0
O597 O 0.73349 0.68175 0.79675 0.0
C598 C 0.69229 0.76275 0.72732 0.0
C599 C 0.75772 0.7321 0.69468 0.0
C600 C 0.76166 0.80639 0.73231 0.0
C601 C 0.73183 0.76615 0.81346 0.0
C602 C 0.79706 0.73572 0.78244 0.0
C603 C 0.72922 0.69109 0.7753 0.0
O604 O 0.70098 0.77803 0.71201 0.0
O605 O 0.70536 0.75047 0.74206 0.0
O606 O 0.55978 0.49378 0.48342 0.0
Mg607 Mg 0.53987 0.4691 0.50462 0.0
O608 O 0.53024 0.51953 0.48683 0.0
Mg609 Mg 0.49511 0.49741 0.49667 0.0
O610 O 0.50871 0.45779 0.48861 0.0
O611 O 0.5406 0.43409 0.49328 0.0
O612 O 0.45979 0.47637 0.50685 0.0
O613 O 0.4861 0.49826 0.45404 0.0
Mg614 Mg 0.44991 0.52865 0.4858 0.0
O615 O 0.48045 0.53596 0.50501 0.0
O616 O 0.42961 0.50178 0.5041 0.0
O617 O 0.4573 0.5248 0.44772 0.0
O618 O 0.45109 0.56273 0.50093 0.0
C619 C 0.52003 0.48638 0.55273 0.0
C620 C 0.55167 0.51498 0.48092 0.0
C621 C 0.51903 0.43686 0.48566 0.0
C622 C 0.43784 0.48116 0.5098 0.0
C623 C 0.47261 0.51018 0.43945 0.0
C624 C 0.47185 0.55738 0.50939 0.0
O625 O 0.5365 0.47405 0.54314 0.0
O626 O 0.50425 0.49646 0.53927 0.0
O627 O 0.03544 0.46324 0.94838 0.0
Mg628 Mg 0.04367 0.4619 0.98696 0.0
O629 O 0.00322 0.48649 0.94901 0.0
Mg630 Mg -0.00525 0.49512 0.99061 0.0
O631 O 0.01164 0.46024 0.00316 0.0
O632 O 0.03707 0.43042 0.00793 0.0
O633 O 0.98897 0.50353 0.03272 0.0
O634 O 0.96092 0.47016 0.98805 0.0
Mg635 Mg 0.95007 0.52294 -0.00104 0.0
O636 O 0.97783 0.53166 0.9761 0.0
O637 O 0.95911 0.52895 0.03651 0.0
O638 O 0.92895 0.49287 0.98894 0.0
O639 O 0.94416 0.553 0.97881 0.0
C640 C 0.05068 0.5147 0.0016 0.0
C641 C 0.01879 0.47429 0.93716 0.0
C642 C 0.01651 0.43933 0.01251 0.0
C643 C 0.97618 0.51737 0.04604 0.0
C644 C 0.93845 0.47225 0.98696 0.0
C645 C 0.96529 0.55061 0.97002 0.0
O646 O 0.05953 0.49355 0.00267 0.0
O647 O 0.02926 0.51824 -0.00517 0.0
H648 H 0.01091 0.19651 0.04128 0.0
H649 H 0.99202 0.16988 0.11416 0.0
H650 H 0.01036 0.15464 0.02547 0.0
H651 H 0.99164 0.12828 0.09836 0.0
H652 H 0.01458 0.07273 0.00745 0.0
H653 H 0.02789 0.10986 0.02962 0.0
H654 H 0.9604 0.11234 0.06727 0.0
H655 H 0.94719 0.07605 0.04494 0.0
C656 C 0.00706 0.18174 0.054 0.0
C657 C 0.00091 0.18655 0.07882 0.0
C658 C 0.007 0.15777 0.04501 0.0
C659 C 0.00081 0.13828 0.06069 0.0
C660 C -0.00374 0.14301 0.08584 0.0
C661 C -0.00369 0.16686 0.09481 0.0
C662 C 0.00304 0.08088 0.02111 0.0
C663 C 0.97996 0.07163 0.02471 0.0
C664 C 0.01052 0.10215 0.03356 0.0
C665 C -0.00485 0.11393 0.05014 0.0
C666 C 0.97273 0.10352 0.05487 0.0
C667 C 0.96515 0.08275 0.04211 0.0
H668 H 0.08359 0.77942 0.35094 0.0
H669 H 0.04158 0.73651 0.29925 0.0
H670 H 0.11595 0.78097 0.32126 0.0
H671 H 0.07384 0.73862 0.26913 0.0
H672 H 0.1514 0.70769 0.25841 0.0
H673 H 0.11128 0.71788 0.27038 0.0
H674 H 0.13318 0.7929 0.28135 0.0
H675 H 0.17369 0.78242 0.26932 0.0
C676 C 0.08108 0.77072 0.33302 0.0
C677 C 0.06027 0.75733 0.32768 0.0
C678 C 0.09955 0.7719 0.31581 0.0
C679 C 0.09756 0.75982 0.2928 0.0
C680 C 0.07605 0.74784 0.28681 0.0
C681 C 0.05764 0.74651 0.30412 0.0
C682 C 0.14738 0.72657 0.26231 0.0
C683 C 0.16563 0.74416 0.26347 0.0
C684 C 0.12433 0.73248 0.26914 0.0
C685 C 0.11916 0.75608 0.27754 0.0
C686 C 0.13677 0.77443 0.2755 0.0
C687 C 0.15989 0.76851 0.26836 0.0
H688 H 0.54267 0.83086 0.59475 0.0
H689 H 0.46695 0.81739 0.59179 0.0
H690 H 0.53696 0.87051 0.57553 0.0
H691 H 0.46117 0.85733 0.57315 0.0
H692 H 0.47446 0.90609 0.50157 0.0
H693 H 0.4704 0.87376 0.53228 0.0
H694 H 0.52055 0.91154 0.58019 0.0
H695 H 0.52459 0.94382 0.54908 0.0
C696 C 0.5248 0.83649 0.59025 0.0
C697 C 0.50533 0.82088 0.59445 0.0
C698 C 0.52146 0.85935 0.57955 0.0
C699 C 0.49856 0.86715 0.57299 0.0
C700 C 0.47902 0.85178 0.57785 0.0
C701 C 0.48238 0.82885 0.58838 0.0
C702 C 0.48372 0.90793 0.51919 0.0
C703 C 0.49984 0.92717 0.52313 0.0
C704 C 0.48147 0.88944 0.53678 0.0
C705 C 0.49565 0.88981 0.55838 0.0
C706 C 0.5098 0.91055 0.56346 0.0
C707 C 0.51191 0.92913 0.54588 0.0
H708 H 0.44435 0.21478 0.82134 0.0
H709 H 0.40269 0.23324 0.88579 0.0
H710 H 0.41008 0.22 0.79502 0.0
H711 H 0.36759 0.23726 0.85933 0.0
H712 H 0.32102 0.27576 0.80077 0.0
H713 H 0.35307 0.26571 0.82977 0.0
H714 H 0.37339 0.20615 0.78189 0.0
H715 H 0.34284 0.21738 0.75246 0.0
C716 C 0.42767 0.2194 0.82999 0.0
C717 C 0.42635 0.22411 0.85557 0.0
C718 C 0.40785 0.22223 0.81485 0.0
C719 C 0.38606 0.22943 0.82496 0.0
C720 C 0.38427 0.23234 0.85086 0.0
C721 C 0.40429 0.22975 0.86606 0.0
C722 C 0.33276 0.26087 0.79638 0.0
C723 C 0.33001 0.24782 0.77411 0.0
C724 C 0.3508 0.2548 0.81313 0.0
C725 C 0.36593 0.23514 0.80814 0.0
C726 C 0.3626 0.22181 0.78607 0.0
C727 C 0.34513 0.22832 0.7691 0.0
H728 H 0.94351 0.79729 0.42181 0.0
H729 H -0.00094 0.81875 0.37111 0.0
H730 H 0.94528 0.83735 0.44114 0.0
H731 H -8e-05 0.85947 0.38928 0.0
H732 H 0.02276 0.90895 0.45472 0.0
H733 H 0.01533 0.87502 0.42641 0.0
H734 H 0.93997 0.87961 0.44112 0.0
H735 H 0.94796 0.9129 0.47049 0.0
C736 C 0.95563 0.81089 0.41438 0.0
C737 C 0.9715 0.80492 0.39541 0.0
C738 C 0.95655 0.83395 0.4253 0.0
C739 C 0.97304 0.85162 0.41706 0.0
C740 C 0.98752 0.84611 0.39662 0.0
C741 C 0.98699 0.82286 0.38612 0.0
C742 C 0.00465 0.90272 0.4516 0.0
C743 C 0.98593 0.913 0.46477 0.0
C744 C 0.00027 0.88349 0.43521 0.0
C745 C 0.97701 0.87439 0.43154 0.0
C746 C 0.95813 0.88579 0.44386 0.0
C747 C 0.96261 0.90486 0.46054 0.0
H748 H 0.4029 0.79241 0.63116 0.0
H749 H 0.4347 0.74351 0.68427 0.0
H750 H 0.36621 0.79209 0.65528 0.0
H751 H 0.39823 0.74286 0.70791 0.0
H752 H 0.3357 0.74345 0.75174 0.0
H753 H 0.37005 0.76415 0.73338 0.0
H754 H 0.3359 0.76051 0.66131 0.0
H755 H 0.30136 0.74061 0.68007 0.0
C756 C 0.40215 0.78177 0.64807 0.0
C757 C 0.42158 0.76765 0.6556 0.0
C758 C 0.38116 0.78165 0.66189 0.0
C759 C 0.37925 0.76747 0.68351 0.0
C760 C 0.39914 0.75435 0.69161 0.0
C761 C 0.42003 0.75444 0.67783 0.0
C762 C 0.3353 0.74802 0.73217 0.0
C763 C 0.3163 0.74034 0.7171 0.0
C764 C 0.35494 0.75969 0.72162 0.0
C765 C 0.35601 0.76325 0.69577 0.0
C766 C 0.33571 0.758 0.68126 0.0
C767 C 0.31596 0.74652 0.69191 0.0
H768 H 0.5358 0.1865 0.92611 0.0
H769 H 0.4709 0.20699 0.96263 0.0
H770 H 0.53668 0.14911 0.95007 0.0
H771 H 0.47163 0.16912 0.98669 0.0
H772 H 0.46595 0.08128 0.97305 0.0
H773 H 0.46526 0.12577 0.9697 0.0
H774 H 0.53908 0.12949 0.99169 0.0
H775 H 0.53981 0.08518 -0.00555 0.0
C776 C 0.52204 0.18324 0.93976 0.0
C777 C 0.50312 0.19938 0.94229 0.0
C778 C 0.52261 0.16191 0.95366 0.0
C779 C 0.5041 0.15612 0.97015 0.0
C780 C 0.48602 0.1731 0.974 0.0
C781 C 0.48568 0.19476 0.96033 0.0
C782 C 0.48167 0.09173 0.97812 0.0
C783 C 0.50302 0.07999 0.9836 0.0
C784 C 0.48131 0.11718 0.97628 0.0
C785 C 0.50227 0.131 0.98 0.0
C786 C 0.5228 0.11925 0.98834 0.0
C787 C 0.52321 0.09395 0.98991 0.0
H788 H 0.07782 0.25634 0.12593 0.0
H789 H 0.03673 0.25185 0.19346 0.0
H790 H 0.11362 0.26361 0.15024 0.0
H791 H 0.07324 0.25889 0.21799 0.0
H792 H 0.15939 0.23874 0.23542 0.0
H793 H 0.11796 0.23434 0.22139 0.0
H794 H 0.12438 0.30183 0.18098 0.0
H795 H 0.1654 0.30638 0.19486 0.0
C796 C 0.07639 0.25682 0.14599 0.0
C797 C 0.05435 0.25374 0.15773 0.0
C798 C 0.09693 0.26107 0.15989 0.0
C799 C 0.09607 0.26211 0.18591 0.0
C800 C 0.07425 0.25827 0.19791 0.0
C801 C 0.05345 0.2543 0.18388 0.0
C802 C 0.1517 0.25301 0.22421 0.0
C803 C 0.16583 0.2726 0.21572 0.0
C804 C 0.12801 0.25049 0.21624 0.0
C805 C 0.11827 0.26754 0.19978 0.0
C806 C 0.13166 0.28828 0.1934 0.0
C807 C 0.15516 0.29082 0.20131 0.0
H808 H 0.04733 0.03055 0.2053 0.0
H809 H 0.08829 0.96775 0.18447 0.0
H810 H 0.02326 0.02565 0.16739 0.0
H811 H 0.06478 0.9631 0.14702 0.0
H812 H 0.01555 0.9471 0.08807 0.0
H813 H 0.02558 0.95226 0.13187 0.0
H814 H 0.02987 0.03022 0.1216 0.0
H815 H 0.01874 0.02495 0.07779 0.0
C816 C 0.05103 0.01559 0.19281 0.0
C817 C 0.0698 -0.00039 0.19782 0.0
C818 C 0.03732 0.01285 0.1711 0.0
C819 C 0.04195 -0.00613 0.15426 0.0
C820 C 0.06034 0.97762 0.15976 0.0
C821 C 0.07404 0.98045 0.18119 0.0
C822 C 0.01783 0.96538 0.09542 0.0
C823 C 0.01666 0.98561 0.07961 0.0
C824 C 0.02374 0.96835 0.12043 0.0
C825 C 0.02923 0.99159 0.13004 0.0
C826 C 0.02579 0.01207 0.11478 0.0
C827 C 0.01942 0.00908 0.0897 0.0
H828 H 0.2606 0.87486 0.41738 0.0
H829 H 0.29827 0.81745 0.45471 0.0
H830 H 0.25849 0.8502 0.37967 0.0
H831 H 0.29491 0.79208 0.41772 0.0
H832 H 0.29142 0.75268 0.34407 0.0
H833 H 0.30322 0.78237 0.37604 0.0
H834 H 0.23464 0.81654 0.36898 0.0
H835 H 0.22369 0.78762 0.33639 0.0
C836 C 0.26859 0.85701 0.41736 0.0
C837 C 0.27923 0.8478 0.4389 0.0
C838 C 0.26724 0.84279 0.39589 0.0
C839 C 0.27589 0.81884 0.39586 0.0
C840 C 0.28811 0.81042 0.41697 0.0
C841 C 0.28996 0.8249 0.43824 0.0
C842 C 0.27902 0.7666 0.34959 0.0
C843 C 0.25658 0.76787 0.33837 0.0
C844 C 0.28571 0.78359 0.36779 0.0
C845 C 0.26992 0.80193 0.37511 0.0
C846 C 0.24748 0.80306 0.36352 0.0
C847 C 0.24098 0.7863 0.34517 0.0
H848 H 0.39703 0.98383 0.67332 0.0
H849 H 0.45177 0.02597 0.71081 0.0
H850 H 0.42191 0.98089 0.63676 0.0
H851 H 0.4767 0.02338 0.67357 0.0
H852 H 0.47556 0.04826 0.58636 0.0
H853 H 0.46721 0.043 0.63043 0.0
H854 H 0.4622 0.96514 0.61973 0.0
H855 H 0.47118 0.97046 0.57544 0.0
C856 C 0.41448 0.99233 0.67382 0.0
C857 C 0.42229 0.0055 0.69478 0.0
C858 C 0.42888 0.99031 0.65298 0.0
C859 C 0.4513 0.00173 0.65242 0.0
C860 C 0.45952 0.01429 0.67364 0.0
C861 C 0.44522 0.0159 0.69481 0.0
C862 C 0.47363 0.02996 0.59366 0.0
C863 C 0.47371 0.00977 0.57762 0.0
C864 C 0.46899 0.02694 0.61889 0.0
C865 C 0.46379 0.00371 0.62837 0.0
C866 C 0.46608 0.98326 0.61277 0.0
C867 C 0.47126 0.98627 0.58753 0.0
H868 H 0.28687 0.15207 0.9368 0.0
H869 H 0.22097 0.12515 0.90538 0.0
H870 H 0.29382 0.1766 0.89973 0.0
H871 H 0.22696 0.15073 0.86898 0.0
H872 H 0.2372 0.19606 0.80518 0.0
H873 H 0.2473 0.16189 0.83221 0.0
H874 H 0.27687 0.21279 0.8859 0.0
H875 H 0.26765 0.24627 0.85836 0.0
C876 C 0.27379 0.15163 0.92196 0.0
C877 C 0.25313 0.1373 0.92402 0.0
C878 C 0.27781 0.16553 0.90069 0.0
C879 C 0.26089 0.16587 0.88139 0.0
C880 C 0.24063 0.15066 0.88318 0.0
C881 C 0.23694 0.1363 0.9042 0.0
C882 C 0.24716 0.19957 0.8221 0.0
C883 C 0.25185 0.22351 0.82981 0.0
C884 C 0.25253 0.18014 0.83782 0.0
C885 C 0.26227 0.18461 0.86158 0.0
C886 C 0.26942 0.20852 0.86781 0.0
C887 C 0.26412 0.22781 0.85208 0.0
H888 H 0.12583 0.97475 0.32551 0.0
H889 H 0.07419 0.03173 0.31675 0.0
H890 H 0.10897 0.96454 0.36635 0.0
H891 H 0.05736 0.02123 0.35716 0.0
H892 H 0.01516 0.96887 0.4048 0.0
H893 H 0.04473 0.96168 0.37259 0.0
H894 H 0.09301 0.01175 0.4092 0.0
H895 H 0.06329 0.01924 0.44117 0.0
C896 C 0.11096 0.9851 0.33236 0.0
C897 C 0.1013 0.00412 0.31808 0.0
C898 C 0.10141 0.97921 0.35558 0.0
C899 C 0.08197 0.99211 0.36453 0.0
C900 C 0.07247 0.01116 0.35041 0.0
C901 C 0.08214 0.01724 0.32745 0.0
C902 C 0.0327 0.977 0.40686 0.0
C903 C 0.03709 -0.00535 0.42522 0.0
C904 C 0.04958 0.97289 0.38846 0.0
C905 C 0.07087 0.98642 0.38848 0.0
C906 C 0.07671 0.00106 0.40904 0.0
C907 C 0.05976 0.00527 0.42734 0.0
H908 H 0.25883 0.79167 0.53572 0.0
H909 H 0.21007 0.84721 0.55925 0.0
H910 H 0.25441 0.77142 0.57594 0.0
H911 H 0.20629 0.82778 0.59922 0.0
H912 H 0.19701 0.79074 0.66914 0.0
H913 H 0.19368 0.79542 0.62426 0.0
H914 H 0.2687 0.78105 0.61705 0.0
H915 H 0.27145 0.77479 0.66197 0.0
C916 C 0.2468 0.79925 0.54926 0.0
C917 C 0.23512 0.82125 0.54455 0.0
C918 C 0.24443 0.78778 0.57235 0.0
C919 C 0.23026 0.7981 0.59099 0.0
C920 C 0.21719 0.81906 0.58536 0.0
C921 C 0.21953 0.83042 0.56242 0.0
C922 C 0.21265 0.7882 0.65781 0.0
C923 C 0.23457 0.78293 0.66883 0.0
C924 C 0.21079 0.7909 0.63214 0.0
C925 C 0.23102 0.78921 0.61705 0.0
C926 C 0.2527 0.78234 0.62803 0.0
C927 C 0.25439 0.77899 0.65375 0.0
H928 H 0.38434 0.00597 0.82035 0.0
H929 H 0.42094 0.94302 0.79207 0.0
H930 H 0.40619 0.00269 0.8594 0.0
H931 H 0.44274 0.9398 0.83119 0.0
H932 H 0.50088 0.97552 0.88406 0.0
H933 H 0.47431 0.96803 0.84896 0.0
H934 H 0.41368 0.97594 0.897 0.0
H935 H 0.44024 0.98344 0.93228 0.0
C936 C 0.39687 0.99131 0.82255 0.0
C937 C 0.40127 0.97505 0.80298 0.0
C938 C 0.40918 0.98927 0.845 0.0
C939 C 0.42624 0.97107 0.84821 0.0
C940 C 0.42985 0.95414 0.82907 0.0
C941 C 0.41739 0.95604 0.80669 0.0
C942 C 0.4819 0.97532 0.88723 0.0
C943 C 0.47267 0.98041 0.91084 0.0
C944 C 0.46669 0.97082 0.86717 0.0
C945 C 0.44197 0.97159 0.87028 0.0
C946 C 0.43269 0.97547 0.89411 0.0
C947 C 0.44792 0.97968 0.91427 0.0
H948 H 0.27961 0.12059 0.07326 0.0
H949 H 0.23623 0.18163 0.05202 0.0
H950 H 0.27954 0.13501 0.11655 0.0
H951 H 0.23578 0.19542 0.09512 0.0
H952 H 0.21784 0.19625 0.17697 0.0
H953 H 0.21974 0.17004 0.1401 0.0
H954 H 0.29496 0.18459 0.13457 0.0
H955 H 0.29287 0.21155 0.17091 0.0
C956 C 0.27003 0.13698 0.07783 0.0
C957 C 0.25792 0.15001 0.05925 0.0
C958 C 0.26995 0.1451 0.10252 0.0
C959 C 0.25732 0.166 0.109 0.0
C960 C 0.2453 0.17899 0.0905 0.0
C961 C 0.24575 0.17121 0.06584 0.0
C962 C 0.23492 0.19294 0.1685 0.0
C963 C 0.25524 0.20572 0.17661 0.0
C964 C 0.23598 0.1781 0.14742 0.0
C965 C 0.25747 0.17553 0.13462 0.0
C966 C 0.27827 0.18625 0.14432 0.0
C967 C 0.27709 0.20156 0.16505 0.0
H968 H 0.16428 0.12495 0.99341 0.0
H969 H 0.1945 0.0532 0.98771 0.0
H970 H 0.12472 0.10759 0.98584 0.0
H971 H 0.15514 0.03589 0.98068 0.0
H972 H 0.08829 0.00904 0.95097 0.0
H973 H 0.12411 0.0344 0.94957 0.0
H974 H 0.09517 0.08118 0.00624 0.0
H975 H 0.05884 0.05622 0.00675 0.0
C976 C 0.16249 0.10547 0.99061 0.0
C977 C 0.18256 0.09043 0.99105 0.0
C978 C 0.13981 0.09556 0.98628 0.0
C979 C 0.13678 0.07042 0.98224 0.0
C980 C 0.15688 0.05543 0.98301 0.0
C981 C 0.17947 0.0653 0.98733 0.0
C982 C 0.08931 0.02525 0.96246 0.0
C983 C 0.07105 0.0306 0.97915 0.0
C984 C 0.10988 0.03962 0.96189 0.0
C985 C 0.11283 0.05928 0.97844 0.0
C986 C 0.09352 0.06609 0.99335 0.0
C987 C 0.07268 0.05187 0.99361 0.0
H988 H 0.70322 0.44404 0.02201 0.0
H989 H 0.67438 0.41526 0.95326 0.0
H990 H 0.66734 0.46784 0.02787 0.0
H991 H 0.6385 0.43875 0.95933 0.0
H992 H 0.58575 0.45765 0.04699 0.0
H993 H 0.62752 0.45085 0.03859 0.0
H994 H 0.61842 0.47899 0.96429 0.0
H995 H 0.57637 0.48565 0.97278 0.0
C996 C 0.6894 0.44307 0.00797 0.0
C997 C 0.69136 0.42731 0.9875 0.0
C998 C 0.6689 0.45674 0.01131 0.0
C999 C 0.65 0.45489 -0.00574 0.0
C1000 C 0.65282 0.4407 0.97273 0.0
C1001 C 0.67333 0.42706 0.96936 0.0
C1002 C 0.59276 0.46292 0.02906 0.0
C1003 C 0.57773 0.4719 0.0104 0.0
C1004 C 0.61677 0.45923 0.0243 0.0
C1005 C 0.62621 0.46422 0.0007 0.0
C1006 C 0.61157 0.47482 0.98259 0.0
C1007 C 0.58755 0.47877 0.98748 0.0
H1008 H 0.83522 0.43839 0.19848 0.0
H1009 H 0.88822 0.40614 0.246 0.0
H1010 H 0.81239 0.4008 0.199 0.0
H1011 H 0.86529 0.3679 0.24632 0.0
H1012 H 0.79368 0.3308 0.27525 0.0
H1013 H 0.82726 0.35828 0.26684 0.0
H1014 H 0.80843 0.35847 0.18886 0.0
H1015 H 0.77436 0.33218 0.19756 0.0
C1016 C 0.84223 0.42299 0.20859 0.0
C1017 C 0.86314 0.42527 0.22265 0.0
C1018 C 0.82928 0.40131 0.2087 0.0
C1019 C 0.8369 0.38144 0.22296 0.0
C1020 C 0.85884 0.38306 0.23547 0.0
C1021 C 0.87199 0.40485 0.23517 0.0
C1022 C 0.79685 0.33679 0.25637 0.0
C1023 C 0.78099 0.33039 0.23722 0.0
C1024 C 0.81625 0.35214 0.25145 0.0
C1025 C 0.82022 0.36085 0.22722 0.0
C1026 C 0.80544 0.35259 0.20781 0.0
C1027 C 0.78584 0.33777 0.21281 0.0
H1028 H 0.80603 0.56288 0.45216 0.0
H1029 H 0.84572 0.61395 0.49764 0.0
H1030 H 0.84265 0.54146 0.44254 0.0
H1031 H 0.8819 0.59196 0.48948 0.0
H1032 H 0.94195 0.54744 0.48957 0.0
H1033 H 0.91367 0.57369 0.46801 0.0
H1034 H 0.86153 0.51511 0.46999 0.0
H1035 H 0.88986 0.48948 0.49082 0.0
C1036 C 0.82264 0.56954 0.45998 0.0
C1037 C 0.82304 0.58941 0.47638 0.0
C1038 C 0.84362 0.55742 0.45436 0.0
C1039 C 0.86519 0.56447 0.46579 0.0
C1040 C 0.86578 0.58591 0.4802 0.0
C1041 C 0.84491 0.59835 0.48528 0.0
C1042 C 0.92483 0.54005 0.48415 0.0
C1043 C 0.91769 0.51691 0.49226 0.0
C1044 C 0.90853 0.55504 0.47203 0.0
C1045 C 0.88496 0.54689 0.46811 0.0
C1046 C 0.87933 0.52229 0.47282 0.0
C1047 C 0.89551 0.50753 0.48502 0.0
H1048 H 0.13838 0.08517 0.21395 0.0
H1049 H 0.19507 0.04302 0.24596 0.0
H1050 H 0.16094 0.12247 0.22183 0.0
H1051 H 0.21805 0.08037 0.25314 0.0
H1052 H 0.22893 0.15058 0.29963 0.0
H1053 H 0.21375 0.11245 0.28283 0.0
H1054 H 0.19488 0.14876 0.21447 0.0
H1055 H 0.20968 0.18734 0.23166 0.0
C1056 C 0.15591 0.0838 0.22217 0.0
C1057 C 0.1647 0.06115 0.22983 0.0
C1058 C 0.16895 0.10524 0.22655 0.0
C1059 C 0.19118 0.10451 0.23853 0.0
C1060 C 0.20073 0.08165 0.24445 0.0
C1061 C 0.1876 0.06022 0.24025 0.0
C1062 C 0.22167 0.1505 0.28096 0.0
C1063 C 0.22007 0.17215 0.26721 0.0
C1064 C 0.21318 0.12848 0.27117 0.0
C1065 C 0.20295 0.12746 0.2473 0.0
C1066 C 0.2023 0.14894 0.23307 0.0
C1067 C 0.21081 0.17106 0.24291 0.0
H1068 H 0.30781 0.93369 0.53861 0.0
H1069 H 0.33506 0.86514 0.51252 0.0
H1070 H 0.34304 0.95461 0.52305 0.0
H1071 H 0.37025 0.88624 0.49615 0.0
H1072 H 0.43777 0.94106 0.49511 0.0
H1073 H 0.40629 0.91237 0.5064 0.0
H1074 H 0.35392 0.96253 0.47885 0.0
H1075 H 0.3853 0.99164 0.46838 0.0
C1076 C 0.32175 0.92306 0.53019 0.0
C1077 C 0.31878 0.89797 0.52653 0.0
C1078 C 0.34163 0.93503 0.52083 0.0
C1079 C 0.35875 0.92212 0.5074 0.0
C1080 C 0.35706 0.89662 0.50605 0.0
C1081 C 0.33713 0.88455 0.5157 0.0
C1082 C 0.41958 0.94565 0.49071 0.0
C1083 C 0.41382 0.96895 0.48178 0.0
C1084 C 0.40158 0.9292 0.49724 0.0
C1085 C 0.37775 0.93583 0.49456 0.0
C1086 C 0.37223 0.95752 0.48208 0.0
C1087 C 0.39014 0.97407 0.47589 0.0
H1088 H 0.80675 0.54268 0.2298 0.0
H1089 H 0.85277 0.58358 0.27946 0.0
H1090 H 0.77693 0.57449 0.2329 0.0
H1091 H 0.82348 0.61547 0.28201 0.0
H1092 H 0.77188 0.67175 0.28712 0.0
H1093 H 0.78505 0.6301 0.29414 0.0
H1094 H 0.77645 0.61489 0.21575 0.0
H1095 H 0.76256 0.65609 0.20919 0.0
C1096 C 0.81045 0.55837 0.24148 0.0
C1097 C 0.83232 0.56086 0.25398 0.0
C1098 C 0.79333 0.57654 0.24333 0.0
C1099 C 0.79781 0.59762 0.2576 0.0
C1100 C 0.81918 0.59937 0.27115 0.0
C1101 C 0.83619 0.58119 0.26941 0.0
C1102 C 0.77142 0.65902 0.27177 0.0
C1103 C 0.76616 0.66701 0.24767 0.0
C1104 C 0.7794 0.63528 0.27565 0.0
C1105 C 0.7824 0.61933 0.2554 0.0
C1106 C 0.77437 0.62658 0.2318 0.0
C1107 C 0.76644 0.65024 0.22798 0.0
H1108 H 0.62727 0.40243 0.73674 0.0
H1109 H 0.67916 0.44095 0.78162 0.0
H1110 H 0.64931 0.36501 0.74168 0.0
H1111 H 0.70055 0.40311 0.78824 0.0
H1112 H 0.75043 0.34818 0.74924 0.0
H1113 H 0.72555 0.38101 0.76336 0.0
H1114 H 0.66472 0.33197 0.76301 0.0
H1115 H 0.69004 0.2996 0.74711 0.0
C1116 C 0.64318 0.40269 0.74814 0.0
C1117 C 0.65195 0.42461 0.75819 0.0
C1118 C 0.6557 0.38113 0.75133 0.0
C1119 C 0.67701 0.38092 0.76516 0.0
C1120 C 0.68464 0.40264 0.77687 0.0
C1121 C 0.67244 0.42434 0.77308 0.0
C1122 C 0.73189 0.34429 0.75311 0.0
C1123 C 0.72199 0.32145 0.74739 0.0
C1124 C 0.71753 0.3631 0.76135 0.0
C1125 C 0.69287 0.35943 0.76387 0.0
C1126 C 0.68351 0.33566 0.76073 0.0
C1127 C 0.69799 0.31688 0.75224 0.0
H1128 H 0.02139 0.82329 0.88685 0.0
H1129 H 0.95083 0.80839 0.91458 0.0
H1130 H 0.02052 0.86369 0.90548 0.0
H1131 H 0.95003 0.84902 0.93338 0.0
H1132 H 0.9864 0.90143 -0.00479 0.0
H1133 H 0.97308 0.86743 0.96912 0.0
H1134 H 0.00078 0.90435 0.90445 0.0
H1135 H 0.01415 0.93832 0.93082 0.0
C1136 C 0.00563 0.82868 0.8968 0.0
C1137 C 0.98632 0.81248 0.89948 0.0
C1138 C 0.00498 0.85199 0.9072 0.0
C1139 C 0.98512 0.85964 0.92076 0.0
C1140 C 0.96557 0.84365 0.92302 0.0
C1141 C 0.96609 0.82037 0.91233 0.0
C1142 C 0.98854 0.90273 0.97526 0.0
C1143 C 0.00114 0.92237 0.9649 0.0
C1144 C 0.98099 0.88325 0.96029 0.0
C1145 C 0.98636 0.88298 0.93481 0.0
C1146 C -0.00324 0.90389 0.92411 0.0
C1147 C 0.00415 0.92344 0.93909 0.0
H1148 H 0.95272 0.26069 0.69637 0.0
H1149 H 0.91047 0.21654 0.64587 0.0
H1150 H 0.919 0.26274 0.72483 0.0
H1151 H 0.87711 0.21848 0.67432 0.0
H1152 H 0.8226 0.21587 0.73219 0.0
H1153 H 0.8633 0.20721 0.71931 0.0
H1154 H 0.87867 0.28439 0.71598 0.0
H1155 H 0.83795 0.29296 0.72828 0.0
C1156 C 0.9364 0.25115 0.69151 0.0
C1157 C 0.93415 0.23868 0.66874 0.0
C1158 C 0.91721 0.25224 0.70784 0.0
C1159 C 0.8956 0.24059 0.70183 0.0
C1160 C 0.89373 0.22723 0.67963 0.0
C1161 C 0.91277 0.22637 0.6632 0.0
C1162 C 0.83501 0.23089 0.72971 0.0
C1163 C 0.82726 0.25506 0.73094 0.0
C1164 C 0.85819 0.22596 0.72221 0.0
C1165 C 0.87394 0.24516 0.71641 0.0
C1166 C 0.8669 0.26927 0.72043 0.0
C1167 C 0.84362 0.27419 0.72737 0.0
H1168 H 0.50772 0.20104 0.45151 0.0
H1169 H 0.51684 0.16973 0.37862 0.0
H1170 H 0.50887 0.16052 0.46979 0.0
H1171 H 0.51947 0.1293 0.39687 0.0
H1172 H 0.47321 0.06812 0.43392 0.0
H1173 H 0.49016 0.10332 0.41298 0.0
H1174 H 0.52769 0.12356 0.48043 0.0
H1175 H 0.50974 0.08845 0.50146 0.0
C1176 C 0.5105 0.18549 0.4395 0.0
C1177 C 0.51154 0.18837 0.41365 0.0
C1178 C 0.5115 0.16224 0.44996 0.0
C1179 C 0.51402 0.14149 0.43477 0.0
C1180 C 0.51692 0.14475 0.40906 0.0
C1181 C 0.51537 0.1679 0.39859 0.0
C1182 C 0.48592 0.07954 0.44384 0.0
C1183 C 0.49022 0.07585 0.46914 0.0
C1184 C 0.4957 0.09979 0.4319 0.0
C1185 C 0.50986 0.11673 0.4452 0.0
C1186 C 0.51636 0.11126 0.46984 0.0
C1187 C 0.5064 0.09102 0.4818 0.0
H1188 H 0.58904 0.72503 0.1256 0.0
H1189 H 0.54826 0.74594 0.18982 0.0
H1190 H 0.62544 0.72668 0.15069 0.0
H1191 H 0.58412 0.74659 0.21494 0.0
H1192 H 0.65161 0.7796 0.24368 0.0
H1193 H 0.61711 0.77393 0.21723 0.0
H1194 H 0.64825 0.70945 0.18544 0.0
H1195 H 0.68371 0.71589 0.21154 0.0
C1196 C 0.58786 0.7297 0.14512 0.0
C1197 C 0.56597 0.73594 0.15568 0.0
C1198 C 0.60864 0.73048 0.1595 0.0
C1199 C 0.60772 0.73726 0.18468 0.0
C1200 C 0.58555 0.74207 0.19541 0.0
C1201 C 0.56497 0.74165 0.18104 0.0
C1202 C 0.65109 0.76412 0.23116 0.0
C1203 C 0.67014 0.74796 0.22993 0.0
C1204 C 0.63125 0.76079 0.21605 0.0
C1205 C 0.62968 0.74092 0.19962 0.0
C1206 C 0.64896 0.72494 0.19792 0.0
C1207 C 0.66916 0.72854 0.21288 0.0
H1208 H 0.00495 0.16918 0.61349 0.0
H1209 H 0.98071 0.19991 0.54411 0.0
H1210 H 0.00615 0.12886 0.59413 0.0
H1211 H 0.98249 0.16003 0.52476 0.0
H1212 H 0.96121 0.08517 0.50352 0.0
H1213 H 0.96003 0.12246 0.52769 0.0
H1214 H 0.02724 0.10471 0.56183 0.0
H1215 H 0.02786 0.06638 0.53798 0.0
C1216 C -3e-05 0.16735 0.5941 0.0
C1217 C 0.99249 0.18766 0.58035 0.0
C1218 C 0.00081 0.1443 0.58302 0.0
C1219 C -0.00584 0.14122 0.55803 0.0
C1220 C 0.9872 0.16169 0.54423 0.0
C1221 C 0.98627 0.1846 0.55528 0.0
C1222 C 0.97569 0.08916 0.51629 0.0
C1223 C -0.00512 0.07328 0.51856 0.0
C1224 C 0.97506 0.11055 0.53006 0.0
C1225 C -0.00615 0.11686 0.54612 0.0
C1226 C 0.01254 0.10033 0.54949 0.0
C1227 C 0.01298 0.07852 0.53586 0.0
H1228 H 0.58494 0.19944 0.3468 0.0
H1229 H 0.56545 0.27227 0.32495 0.0
H1230 H 0.62654 0.20889 0.3372 0.0
H1231 H 0.60661 0.28151 0.31536 0.0
H1232 H 0.67906 0.30316 0.31369 0.0
H1233 H 0.6453 0.28738 0.33714 0.0
H1234 H 0.6506 0.21852 0.29878 0.0
H1235 H 0.68485 0.23409 0.27586 0.0
C1236 C 0.58949 0.2174 0.33988 0.0
C1237 C 0.57187 0.23514 0.33665 0.0
C1238 C 0.61331 0.2228 0.33453 0.0
C1239 C 0.61992 0.24609 0.32608 0.0
C1240 C 0.60221 0.26362 0.32257 0.0
C1241 C 0.57852 0.25822 0.32776 0.0
C1242 C 0.67362 0.28433 0.31104 0.0
C1243 C 0.68397 0.27011 0.29241 0.0
C1244 C 0.65421 0.27535 0.32431 0.0
C1245 C 0.64472 0.25212 0.31894 0.0
C1246 C 0.65731 0.23663 0.30304 0.0
C1247 C 0.67697 0.24555 0.28992 0.0
H1248 H 0.54474 0.80134 0.06029 0.0
H1249 H 0.47099 0.80727 0.08105 0.0
H1250 H 0.54018 0.83552 0.03161 0.0
H1251 H 0.4666 0.84138 0.05311 0.0
H1252 H 0.45606 0.89654 -0.00105 0.0
H1253 H 0.46536 0.85491 0.01104 0.0
H1254 H 0.5348 0.87919 0.03606 0.0
H1255 H 0.52571 0.92052 0.02275 0.0
C1256 C 0.52754 0.80981 0.05862 0.0
C1257 C 0.50827 0.80175 0.07313 0.0
C1258 C 0.52495 0.82937 0.0422 0.0
C1259 C 0.50301 0.84113 0.03991 0.0
C1260 C 0.48364 0.83248 0.05391 0.0
C1261 C 0.48623 0.81305 0.07026 0.0
C1262 C 0.47364 0.89266 0.00607 0.0
C1263 C 0.49015 0.91156 0.01013 0.0
C1264 C 0.47892 0.86893 0.01322 0.0
C1265 C 0.50051 0.86389 0.02528 0.0
C1266 C 0.51799 0.8824 0.02685 0.0
C1267 C 0.51285 0.90609 0.0192 0.0
H1268 H 0.95339 0.74504 0.79767 0.0
H1269 H 0.9175 0.72711 0.86619 0.0
H1270 H 0.91462 0.74921 0.77683 0.0
H1271 H 0.87932 0.73181 0.84562 0.0
H1272 H 0.8176 0.7696 0.81165 0.0
H1273 H 0.85958 0.77206 0.82354 0.0
H1274 H 0.87557 0.71541 0.77073 0.0
H1275 H 0.8333 0.71282 0.75898 0.0
C1276 C 0.9373 0.742 0.80822 0.0
C1277 C 0.93844 0.73573 0.83354 0.0
C1278 C 0.91524 0.7444 0.79632 0.0
C1279 C 0.89417 0.74112 0.8098 0.0
C1280 C 0.89539 0.73472 0.83497 0.0
C1281 C 0.91725 0.73186 0.84667 0.0
C1282 C 0.83026 0.75826 0.80206 0.0
C1283 C 0.82251 0.74102 0.78452 0.0
C1284 C 0.85416 0.75964 0.80885 0.0
C1285 C 0.8706 0.7438 0.79812 0.0
C1286 C 0.86316 0.72789 0.77907 0.0
C1287 C 0.83911 0.72639 0.7724 0.0
H1288 H 0.93349 0.01187 0.78243 0.0
H1289 H 0.88825 0.96865 0.83022 0.0
H1290 H 0.965 0.01087 0.81385 0.0
H1291 H 0.91959 0.96766 0.86141 0.0
H1292 H 0.97611 0.96376 0.91491 0.0
H1293 H 0.96117 0.95498 0.87303 0.0
H1294 H 0.9651 0.03166 0.85548 0.0
H1295 H 0.97982 0.04029 0.89717 0.0
C1296 C 0.93037 0.00192 0.79949 0.0
C1297 C 0.90822 0.99077 0.8041 0.0
C1298 C 0.94846 0.00124 0.81737 0.0
C1299 C 0.94481 0.98913 0.84004 0.0
C1300 C 0.92312 0.97682 0.84398 0.0
C1301 C 0.90499 0.97772 0.82626 0.0
C1302 C 0.97491 0.97852 0.90166 0.0
C1303 C 0.9787 0.00273 0.90927 0.0
C1304 C 0.96615 0.97354 0.87778 0.0
C1305 C 0.96142 0.99271 0.86123 0.0
C1306 C 0.96848 0.0165 0.8678 0.0
C1307 C 0.97687 0.02149 0.89171 0.0
H1308 H 0.75134 0.19355 0.54612 0.0
H1309 H 0.75344 0.12061 0.57616 0.0
H1310 H 0.74163 0.20931 0.58699 0.0
H1311 H 0.74335 0.13647 0.61716 0.0
H1312 H 0.75874 0.18715 0.68808 0.0
H1313 H 0.7612 0.16289 0.65009 0.0
H1314 H 0.70786 0.20794 0.61588 0.0
H1315 H 0.70608 0.23258 0.6536 0.0
C1316 C 0.74984 0.18089 0.56147 0.0
C1317 C 0.75306 0.15586 0.55791 0.0
C1318 C 0.74393 0.18986 0.58482 0.0
C1319 C 0.74118 0.17401 0.60513 0.0
C1320 C 0.74517 0.14905 0.60179 0.0
C1321 C 0.751 0.14003 0.57835 0.0
C1322 C 0.74686 0.19115 0.67278 0.0
C1323 C 0.73248 0.21182 0.67345 0.0
C1324 C 0.74834 0.17737 0.65099 0.0
C1325 C 0.73527 0.18408 0.62982 0.0
C1326 C 0.71869 0.20289 0.63171 0.0
C1327 C 0.71748 0.21683 0.6533 0.0
H1328 H 0.55083 0.04042 0.28614 0.0
H1329 H 0.58608 0.97563 0.31207 0.0
H1330 H 0.52437 0.03869 0.32221 0.0
H1331 H 0.5596 0.97414 0.34789 0.0
H1332 H 0.53521 0.01768 0.42195 0.0
H1333 H 0.55397 0.02457 0.38167 0.0
H1334 H 0.49584 0.98698 0.34518 0.0
H1335 H 0.47728 0.97925 0.38587 0.0
C1336 C 0.55279 0.02571 0.29933 0.0
C1337 C 0.57072 0.00827 0.29639 0.0
C1338 C 0.53761 0.02474 0.31983 0.0
C1339 C 0.54008 0.00627 0.33752 0.0
C1340 C 0.55745 0.98848 0.33429 0.0
C1341 C 0.57262 0.98943 0.31388 0.0
C1342 C 0.52593 0.01181 0.40524 0.0
C1343 C 0.50467 -0.00171 0.4068 0.0
C1344 C 0.53672 0.01562 0.38231 0.0
C1345 C 0.52619 0.00637 0.36058 0.0
C1346 C 0.50409 -0.00566 0.36184 0.0
C1347 C 0.49348 0.99005 0.38495 0.0
H1348 H 0.71072 0.85811 0.08417 0.0
H1349 H 0.73318 0.7911 0.04988 0.0
H1350 H 0.70869 0.83789 0.12435 0.0
H1351 H 0.73184 0.77096 0.09024 0.0
H1352 H 0.72989 0.73689 0.16271 0.0
H1353 H 0.71082 0.75657 0.12716 0.0
H1354 H 0.74186 0.82555 0.14997 0.0
H1355 H 0.76058 0.80574 0.18525 0.0
C1356 C 0.71503 0.83896 0.08522 0.0
C1357 C 0.72272 0.82626 0.06409 0.0
C1358 C 0.71376 0.82738 0.10821 0.0
C1359 C 0.72042 0.80295 0.11058 0.0
C1360 C 0.72637 0.78976 0.08904 0.0
C1361 C 0.72738 0.80132 0.06594 0.0
C1362 C 0.73157 0.75646 0.16063 0.0
C1363 C 0.74637 0.77001 0.17662 0.0
C1364 C 0.72091 0.76767 0.14021 0.0
C1365 C 0.72519 0.79251 0.13549 0.0
C1366 C 0.73801 0.80643 0.15312 0.0
C1367 C 0.74867 0.79519 0.17345 0.0
H1368 H 0.94845 0.01142 0.68679 0.0
H1369 H 0.87647 0.01472 0.659 0.0
H1370 H 0.96339 0.01675 0.64492 0.0
H1371 H 0.89146 0.02081 0.61694 0.0
H1372 H 0.93219 0.97183 0.55788 0.0
H1373 H 0.90962 0.99064 0.59088 0.0
H1374 H 0.96873 0.03943 0.60649 0.0
H1375 H 0.99132 0.02017 0.57322 0.0
C1376 C 0.93583 0.01376 0.67176 0.0
C1377 C 0.91133 0.01192 0.67602 0.0
C1378 C 0.94438 0.01725 0.64774 0.0
C1379 C 0.92859 0.01915 0.6275 0.0
C1380 C 0.90405 0.01911 0.63209 0.0
C1381 C 0.89549 0.01538 0.65612 0.0
C1382 C 0.93979 0.98746 0.5675 0.0
C1383 C 0.96343 -0.00559 0.56351 0.0
C1384 C 0.92688 -0.00166 0.58645 0.0
C1385 C 0.93774 0.01594 0.60192 0.0
C1386 C 0.96015 0.02545 0.59526 0.0
C1387 C 0.97301 0.01463 0.57613 0.0
H1388 H 0.7002 0.17841 0.44298 0.0
H1389 H 0.77383 0.15797 0.43667 0.0
H1390 H 0.70489 0.20565 0.40713 0.0
H1391 H 0.77838 0.18506 0.40138 0.0
H1392 H 0.76785 0.2013 0.32062 0.0
H1393 H 0.75884 0.17944 0.35859 0.0
H1394 H 0.73043 0.245 0.39075 0.0
H1395 H 0.73943 0.26722 0.35181 0.0
C1396 C 0.7174 0.17991 0.43417 0.0
C1397 C 0.73656 0.16572 0.44241 0.0
C1398 C 0.72008 0.19561 0.41381 0.0
C1399 C 0.74191 0.19722 0.40142 0.0
C1400 C 0.76125 0.1839 0.41043 0.0
C1401 C 0.75862 0.16834 0.43064 0.0
C1402 C 0.75965 0.21109 0.33577 0.0
C1403 C 0.75483 0.236 0.33366 0.0
C1404 C 0.7545 0.19859 0.35748 0.0
C1405 C 0.74447 0.21068 0.37776 0.0
C1406 C 0.73835 0.23538 0.37534 0.0
C1407 C 0.74352 0.24806 0.35326 0.0
H1408 H 0.60608 0.01581 0.17035 0.0
H1409 H 0.54585 0.97497 0.19849 0.0
H1410 H 0.58348 0.02591 0.1331 0.0
H1411 H 0.52347 0.98476 0.16113 0.0
H1412 H 0.48108 0.018 0.10213 0.0
H1413 H 0.50524 0.01942 0.13981 0.0
H1414 H 0.56774 0.00397 0.09654 0.0
H1415 H 0.54369 0.00317 0.0588 0.0
C1416 C 0.58805 0.00891 0.16855 0.0
C1417 C 0.57774 -0.00551 0.18731 0.0
C1418 C 0.57513 0.01475 0.14724 0.0
C1419 C 0.55165 0.00635 0.14432 0.0
C1420 C 0.54138 0.99194 0.16309 0.0
C1421 C 0.55429 0.98606 0.18436 0.0
C1422 C 0.50006 0.01543 0.10062 0.0
C1423 C 0.51043 0.00982 0.07766 0.0
C1424 C 0.51385 0.01614 0.12218 0.0
C1425 C 0.53821 0.01107 0.12117 0.0
C1426 C 0.54898 0.00785 0.09791 0.0
C1427 C 0.53519 0.00734 0.07628 0.0
H1428 H 0.77947 0.84938 0.93338 0.0
H1429 H 0.70386 0.85775 0.94303 0.0
H1430 H 0.77237 0.83085 0.89276 0.0
H1431 H 0.69685 0.83922 0.90227 0.0
H1432 H 0.70161 0.76731 0.85261 0.0
H1433 H 0.70289 0.79599 0.88731 0.0
H1434 H 0.75603 0.83896 0.84913 0.0
H1435 H 0.75437 0.81037 0.81409 0.0
C1436 C 0.76135 0.84751 0.92675 0.0
C1437 C 0.74222 0.85479 0.9416 0.0
C1438 C 0.7573 0.8371 0.90335 0.0
C1439 C 0.73404 0.83364 0.8943 0.0
C1440 C 0.71495 0.84155 0.90883 0.0
C1441 C 0.71899 0.85208 0.93219 0.0
C1442 C 0.71296 0.78334 0.8513 0.0
C1443 C 0.72793 0.78661 0.83076 0.0
C1444 C 0.7137 0.79977 0.87114 0.0
C1445 C 0.72981 0.81952 0.87109 0.0
C1446 C 0.74361 0.82375 0.84976 0.0
C1447 C 0.74248 0.80755 0.82962 0.0
H1448 H 0.80083 0.92338 0.99248 0.0
H1449 H 0.82111 0.88883 0.06134 0.0
H1450 H 0.84155 0.93745 0.98672 0.0
H1451 H 0.86211 0.90307 0.05548 0.0
H1452 H 0.91993 0.96795 0.04601 0.0
H1453 H 0.88368 0.94427 0.05462 0.0
H1454 H 0.88165 0.9201 0.97821 0.0
H1455 H 0.91768 0.944 0.96973 0.0
C1456 C 0.81396 0.91882 0.00643 0.0
C1457 C 0.80768 0.90505 0.02741 0.0
C1458 C 0.83738 0.92664 0.00297 0.0
C1459 C 0.8551 0.9211 0.02049 0.0
C1460 C 0.84884 0.90756 0.04165 0.0
C1461 C 0.82537 0.89946 0.04499 0.0
C1462 C 0.91213 0.95683 0.03139 0.0
C1463 C 0.9214 0.95763 0.00727 0.0
C1464 C 0.8914 0.94333 0.03625 0.0
C1465 C 0.87961 0.93072 0.01695 0.0
C1466 C 0.89013 0.93001 0.99332 0.0
C1467 C 0.91081 0.94346 0.9885 0.0
H1468 H 0.29279 0.54739 0.98002 0.0
H1469 H 0.33589 0.59657 0.02459 0.0
H1470 H 0.32651 0.51976 0.9766 0.0
H1471 H 0.36917 0.56898 0.02135 0.0
H1472 H 0.42283 0.51121 0.02305 0.0
H1473 H 0.38277 0.52526 0.03241 0.0
H1474 H 0.36649 0.52725 0.95397 0.0
H1475 H 0.40656 0.51364 0.94461 0.0
C1476 C 0.30931 0.55216 0.98931 0.0
C1477 C 0.31179 0.5743 0.00231 0.0
C1478 C 0.32851 0.53633 0.98741 0.0
C1479 C 0.35033 0.54221 -0.00118 0.0
C1480 C 0.35244 0.56381 0.01269 0.0
C1481 C 0.33343 0.57975 0.01429 0.0
C1482 C 0.4104 0.51382 0.00788 0.0
C1483 C 0.41784 0.51191 0.98309 0.0
C1484 C 0.38758 0.522 0.01324 0.0
C1485 C 0.37178 0.52775 -0.00612 0.0
C1486 C 0.37835 0.52301 0.96923 0.0
C1487 C 0.40127 0.51529 0.96387 0.0
H1488 H 0.11958 0.58471 0.6921 0.0
H1489 H 0.14941 0.58215 0.76614 0.0
H1490 H 0.1337 0.62691 0.68778 0.0
H1491 H 0.16293 0.62426 0.76203 0.0
H1492 H 0.1815 0.69962 0.75581 0.0
H1493 H 0.14931 0.66944 0.75388 0.0
H1494 H 0.17981 0.63907 0.68741 0.0
H1495 H 0.21196 0.66928 0.68944 0.0
C1496 C 0.12864 0.59336 0.70764 0.0
C1497 C 0.13381 0.58015 0.72932 0.0
C1498 C 0.13657 0.61746 0.70517 0.0
C1499 C 0.1492 0.62879 0.72463 0.0
C1500 C 0.15289 0.61604 0.7469 0.0
C1501 C 0.14545 0.59187 0.74915 0.0
C1502 C 0.1805 0.68743 0.74003 0.0
C1503 C 0.19907 0.68664 0.72281 0.0
C1504 C 0.16223 0.67005 0.73903 0.0
C1505 C 0.16232 0.65184 0.72067 0.0
C1506 C 0.17929 0.65301 0.70167 0.0
C1507 C 0.19774 0.67016 0.7029 0.0
H1508 H 0.17809 0.40622 0.47494 0.0
H1509 H 0.16612 0.42789 0.55107 0.0
H1510 H 0.13968 0.42215 0.46316 0.0
H1511 H 0.12771 0.44467 0.539 0.0
H1512 H 0.0522 0.4589 0.51103 0.0
H1513 H 0.08719 0.43559 0.5233 0.0
H1514 H 0.12443 0.46239 0.45867 0.0
H1515 H 0.08974 0.48491 0.44622 0.0
C1516 C 0.16734 0.41458 0.48917 0.0
C1517 C 0.17537 0.41621 0.51388 0.0
C1518 C 0.14527 0.4237 0.48239 0.0
C1519 C 0.13073 0.43494 0.50006 0.0
C1520 C 0.13841 0.43596 0.52496 0.0
C1521 C 0.16053 0.42662 0.53182 0.0
C1522 C 0.06778 0.45948 0.49931 0.0
C1523 C 0.06823 0.47389 0.47774 0.0
C1524 C 0.08785 0.44629 0.50643 0.0
C1525 C 0.10863 0.44721 0.49202 0.0
C1526 C 0.10866 0.46098 0.47005 0.0
C1527 C 0.08874 0.47407 0.46298 0.0
H1528 H 0.87452 0.90693 0.76707 0.0
H1529 H 0.80919 0.94211 0.74631 0.0
H1530 H 0.85254 0.86923 0.77531 0.0
H1531 H 0.78737 0.90446 0.75388 0.0
H1532 H 0.74814 0.83912 0.76693 0.0
H1533 H 0.77289 0.87326 0.78141 0.0
H1534 H 0.83414 0.84004 0.7478 0.0
H1535 H 0.80941 0.80585 0.73419 0.0
C1536 C 0.85545 0.90666 0.76437 0.0
C1537 C 0.84364 0.92738 0.75555 0.0
C1538 C 0.84285 0.88507 0.76919 0.0
C1539 C 0.81818 0.8837 0.76519 0.0
C1540 C 0.80628 0.90485 0.75759 0.0
C1541 C 0.81884 0.92643 0.75289 0.0
C1542 C 0.76713 0.83864 0.76387 0.0
C1543 C 0.77701 0.82012 0.74944 0.0
C1544 C 0.78127 0.85829 0.77184 0.0
C1545 C 0.80534 0.85982 0.765 0.0
C1546 C 0.81569 0.83959 0.75336 0.0
C1547 C 0.80156 0.81991 0.74556 0.0
H1548 H 0.6583 0.119 0.52327 0.0
H1549 H 0.69248 0.05337 0.49826 0.0
H1550 H 0.61952 0.09849 0.5198 0.0
H1551 H 0.65412 0.03283 0.49553 0.0
H1552 H 0.58516 0.01521 0.45841 0.0
H1553 H 0.62157 0.03816 0.46598 0.0
H1554 H 0.5936 0.06419 0.53565 0.0
H1555 H 0.55648 0.04151 0.52765 0.0
C1556 C 0.65753 0.10013 0.51738 0.0
C1557 C 0.67825 0.08789 0.51043 0.0
C1558 C 0.63539 0.0884 0.5155 0.0
C1559 C 0.63383 0.06428 0.50684 0.0
C1560 C 0.65476 0.05168 0.50152 0.0
C1561 C 0.67672 0.06341 0.50313 0.0
C1562 C 0.58673 0.02583 0.47535 0.0
C1563 C 0.56825 0.02625 0.49268 0.0
C1564 C 0.6076 0.0389 0.47973 0.0
C1565 C 0.61062 0.05243 0.5017 0.0
C1566 C 0.59173 0.0538 0.51861 0.0
C1567 C 0.57059 0.04084 0.51406 0.0
H1568 H 0.15226 0.41498 0.76859 0.0
H1569 H 0.20445 0.46649 0.74102 0.0
H1570 H 0.18298 0.38448 0.773 0.0
H1571 H 0.23538 0.43529 0.74516 0.0
H1572 H 0.24193 0.33675 0.73055 0.0
H1573 H 0.22832 0.37825 0.72335 0.0
H1574 H 0.232 0.3926 0.80202 0.0
H1575 H 0.24588 0.35128 0.80924 0.0
C1576 C 0.17029 0.4198 0.76345 0.0
C1577 C 0.17596 0.44315 0.75455 0.0
C1578 C 0.18783 0.40237 0.76604 0.0
C1579 C 0.21138 0.40775 0.75951 0.0
C1580 C 0.21728 0.43094 0.7504 0.0
C1581 C 0.19965 0.44866 0.74812 0.0
C1582 C 0.24134 0.3492 0.74608 0.0
C1583 C 0.24454 0.34067 0.77042 0.0
C1584 C 0.23348 0.37295 0.74197 0.0
C1585 C 0.229 0.38835 0.7622 0.0
C1586 C 0.23548 0.38099 0.78618 0.0
C1587 C 0.24331 0.35731 0.79027 0.0
H1588 H 0.3073 0.55458 0.23714 0.0
H1589 H 0.37222 0.59678 0.23017 0.0
H1590 H 0.28444 0.59168 0.23494 0.0
H1591 H 0.34922 0.63405 0.22737 0.0
H1592 H 0.29979 0.68651 0.27416 0.0
H1593 H 0.32717 0.65635 0.2581 0.0
H1594 H 0.27108 0.6263 0.21172 0.0
H1595 H 0.24355 0.65603 0.22882 0.0
C1596 C 0.31668 0.57176 0.23479 0.0
C1597 C 0.34156 0.57278 0.23437 0.0
C1598 C 0.30355 0.59307 0.23314 0.0
C1599 C 0.31501 0.6159 0.23096 0.0
C1600 C 0.33988 0.61679 0.22928 0.0
C1601 C 0.35304 0.59543 0.23097 0.0
C1602 C 0.29369 0.67403 0.2598 0.0
C1603 C 0.26974 0.67317 0.25281 0.0
C1604 C 0.30934 0.65676 0.25052 0.0
C1605 C 0.30109 0.63846 0.23415 0.0
C1606 C 0.27775 0.63975 0.22484 0.0
C1607 C 0.26206 0.65682 0.2344 0.0
H1608 H 0.50416 0.7034 0.53677 0.0
H1609 H 0.5019 0.67532 0.61166 0.0
H1610 H 0.50498 0.66162 0.52062 0.0
H1611 H 0.50312 0.63388 0.59559 0.0
H1612 H 0.51327 0.58175 0.49921 0.0
H1613 H 0.52659 0.62009 0.51903 0.0
H1614 H 0.47004 0.61291 0.57259 0.0
H1615 H 0.45684 0.57528 0.55272 0.0
C1616 C 0.50424 0.68836 0.54976 0.0
C1617 C 0.5023 0.6926 0.57544 0.0
C1618 C 0.50497 0.66447 0.54054 0.0
C1619 C 0.5039 0.64451 0.55688 0.0
C1620 C 0.50362 0.6489 0.58257 0.0
C1621 C 0.50275 0.67264 0.59174 0.0
C1622 C 0.50439 0.58805 0.5158 0.0
C1623 C 0.48427 0.57562 0.52474 0.0
C1624 C 0.51178 0.61004 0.52692 0.0
C1625 C 0.49929 0.61952 0.54729 0.0
C1626 C 0.48023 0.60597 0.55715 0.0
C1627 C 0.47268 0.58439 0.54584 0.0
H1628 H 0.53987 0.23151 0.80397 0.0
H1629 H 0.58635 0.27017 0.85513 0.0
H1630 H 0.57297 0.22714 0.77492 0.0
H1631 H 0.61901 0.26608 0.82593 0.0
H1632 H 0.6568 0.19276 0.77886 0.0
H1633 H 0.61587 0.20168 0.7902 0.0
H1634 H 0.62835 0.27778 0.77463 0.0
H1635 H 0.66915 0.26882 0.76296 0.0
C1636 C 0.55701 0.23936 0.80885 0.0
C1637 C 0.56064 0.2509 0.83197 0.0
C1638 C 0.57579 0.23699 0.79217 0.0
C1639 C 0.59828 0.24647 0.79825 0.0
C1640 C 0.60161 0.25906 0.82073 0.0
C1641 C 0.58297 0.26124 0.83748 0.0
C1642 C 0.65054 0.21124 0.77688 0.0
C1643 C 0.66628 0.23027 0.77045 0.0
C1644 C 0.6271 0.21628 0.7832 0.0
C1645 C 0.61925 0.24041 0.78344 0.0
C1646 C 0.63414 0.25903 0.77451 0.0
C1647 C 0.65746 0.2539 0.76778 0.0
H1648 H 0.01536 0.33952 0.12126 0.0
H1649 H 0.96134 0.30639 0.07473 0.0
H1650 H 0.01187 0.37738 0.09839 0.0
H1651 H 0.95667 0.34485 0.05249 0.0
H1652 H 0.99188 0.40003 -0.00344 0.0
H1653 H 0.97842 0.3669 0.02302 0.0
H1654 H 0.99053 0.41227 0.0878 0.0
H1655 H 0.00522 0.44486 0.06092 0.0
C1656 C 0.00246 0.34053 0.10631 0.0
C1657 C 0.98895 0.32 0.09941 0.0
C1658 C 0.00013 0.36238 0.0934 0.0
C1659 C 0.98383 0.36437 0.07359 0.0
C1660 C 0.96963 0.34394 0.06737 0.0
C1661 C 0.97236 0.32189 0.07999 0.0
C1662 C 0.99061 0.40318 0.0164 0.0
C1663 C -0.00051 0.42484 0.02686 0.0
C1664 C 0.9829 0.38418 0.03167 0.0
C1665 C 0.98416 0.38656 0.05768 0.0
C1666 C 0.99005 0.40954 0.06787 0.0
C1667 C -0.00203 0.42845 0.05253 0.0
H1668 H 0.90936 0.72988 0.38498 0.0
H1669 H 0.94062 0.71401 0.31376 0.0
H1670 H 0.87414 0.74572 0.36415 0.0
H1671 H 0.90524 0.72887 0.29295 0.0
H1672 H 0.85419 0.776 0.25799 0.0
H1673 H 0.88772 0.76786 0.2854 0.0
H1674 H 0.84003 0.73512 0.33883 0.0
H1675 H 0.80646 0.74432 0.31197 0.0
C1676 C 0.90836 0.72909 0.36489 0.0
C1677 C 0.92768 0.72083 0.35089 0.0
C1678 C 0.8883 0.73837 0.35297 0.0
C1679 C 0.88721 0.73925 0.32689 0.0
C1680 C 0.90591 0.72935 0.31306 0.0
C1681 C 0.92599 0.72041 0.32493 0.0
C1682 C 0.85085 0.76775 0.27593 0.0
C1683 C 0.82788 0.7602 0.28258 0.0
C1684 C 0.87003 0.76284 0.29151 0.0
C1685 C 0.86659 0.74985 0.31374 0.0
C1686 C 0.84331 0.74487 0.32169 0.0
C1687 C 0.82405 0.75019 0.30628 0.0
H1688 H 0.44874 0.32297 0.86769 0.0
H1689 H 0.51084 0.30627 0.91184 0.0
H1690 H 0.44647 0.36291 0.88841 0.0
H1691 H 0.50859 0.3459 0.93186 0.0
H1692 H 0.50938 0.43098 0.936 0.0
H1693 H 0.5046 0.39784 0.90567 0.0
H1694 H 0.44826 0.36653 0.94973 0.0
H1695 H 0.45364 0.39911 0.98063 0.0
C1696 C 0.46198 0.32789 0.88155 0.0
C1697 C 0.47991 0.31149 0.88824 0.0
C1698 C 0.46065 0.35063 0.89328 0.0
C1699 C 0.47749 0.35721 0.91142 0.0
C1700 C 0.49561 0.3411 0.91769 0.0
C1701 C 0.49678 0.31843 0.9063 0.0
C1702 C 0.49553 0.41739 0.93877 0.0
C1703 C 0.48202 0.41724 0.9606 0.0
C1704 C 0.49272 0.39863 0.92142 0.0
C1705 C 0.4759 0.38003 0.92543 0.0
C1706 C 0.46109 0.38098 0.94625 0.0
C1707 C 0.46431 0.39937 0.96393 0.0
H1708 H 0.92292 0.28821 0.14928 0.0
H1709 H 0.894 0.21861 0.12626 0.0
H1710 H 0.885 0.29865 0.16797 0.0
H1711 H 0.85652 0.22814 0.14635 0.0
H1712 H 0.79371 0.24117 0.18884 0.0
H1713 H 0.82077 0.24943 0.15425 0.0
H1714 H 0.86987 0.28448 0.20551 0.0
H1715 H 0.8427 0.27664 0.2393 0.0
C1716 C 0.90833 0.27517 0.14825 0.0
C1717 C 0.91145 0.25233 0.13712 0.0
C1718 C 0.8866 0.28115 0.15884 0.0
C1719 C 0.8678 0.26404 0.15929 0.0
C1720 C 0.87045 0.2419 0.14631 0.0
C1721 C 0.89204 0.23622 0.13508 0.0
C1722 C 0.80977 0.25175 0.19224 0.0
C1723 C 0.81643 0.25812 0.21653 0.0
C1724 C 0.82542 0.2562 0.17256 0.0
C1725 C 0.8479 0.26692 0.17715 0.0
C1726 C 0.85286 0.27615 0.20107 0.0
C1727 C 0.83731 0.27162 0.2206 0.0
H1728 H 0.03236 0.6849 0.42441 0.0
H1729 H 0.96606 0.7072 0.45685 0.0
H1730 H 0.0328 0.64938 0.45151 0.0
H1731 H 0.96629 0.67119 0.48373 0.0
H1732 H 0.9649 0.58179 0.48012 0.0
H1733 H 0.96258 0.62502 0.46997 0.0
H1734 H 0.03388 0.63624 0.49777 0.0
H1735 H 0.0361 0.59309 0.50822 0.0
C1736 C 0.0181 0.68241 0.43764 0.0
C1737 C -0.00089 0.69868 0.4384 0.0
C1738 C 0.01841 0.66218 0.45328 0.0
C1739 C -0.00045 0.65756 0.4697 0.0
C1740 C 0.98102 0.67436 0.47123 0.0
C1741 C 0.98096 0.69494 0.45591 0.0
C1742 C 0.97958 0.59366 0.48525 0.0
C1743 C 0.00074 0.58402 0.49472 0.0
C1744 C 0.97832 0.61844 0.47932 0.0
C1745 C -0.00177 0.63382 0.48269 0.0
C1746 C 0.01841 0.62468 0.49468 0.0
C1747 C 0.01962 0.60001 0.5007 0.0
H1748 H 0.5802 0.7193 0.63879 0.0
H1749 H 0.54079 0.76225 0.69149 0.0
H1750 H 0.61497 0.72159 0.66583 0.0
H1751 H 0.57582 0.76457 0.7185 0.0
H1752 H 0.65654 0.79516 0.72397 0.0
H1753 H 0.61601 0.78666 0.70976 0.0
H1754 H 0.63042 0.70959 0.70993 0.0
H1755 H 0.6709 0.71815 0.72486 0.0
C1756 C 0.57884 0.72896 0.65629 0.0
C1757 C 0.5578 0.74081 0.66288 0.0
C1758 C 0.5987 0.73005 0.67188 0.0
C1759 C 0.59801 0.74315 0.69429 0.0
C1760 C 0.57678 0.75437 0.7013 0.0
C1761 C 0.5568 0.75309 0.6858 0.0
C1762 C 0.65072 0.77639 0.72183 0.0
C1763 C 0.66671 0.75731 0.7254 0.0
C1764 C 0.62756 0.7715 0.71376 0.0
C1765 C 0.62023 0.74749 0.70851 0.0
C1766 C 0.63572 0.72826 0.71375 0.0
C1767 C 0.65876 0.73313 0.72245 0.0
H1768 H 0.54558 0.52423 0.70933 0.0
H1769 H 0.59272 0.46842 0.68293 0.0
H1770 H 0.52201 0.52031 0.67103 0.0
H1771 H 0.56952 0.46466 0.64506 0.0
H1772 H 0.52103 0.4492 0.58506 0.0
H1773 H 0.53066 0.45145 0.6292 0.0
H1774 H 0.52943 0.53004 0.62565 0.0
H1775 H 0.51884 0.5276 0.58138 0.0
C1776 C 0.55073 0.51095 0.69553 0.0
C1777 C 0.57109 0.49674 0.69904 0.0
C1778 C 0.53729 0.50878 0.67362 0.0
C1779 C 0.54382 0.4921 0.6551 0.0
C1780 C 0.56373 0.4774 0.65912 0.0
C1781 C 0.5772 0.47971 0.68076 0.0
C1782 C 0.52206 0.46691 0.59396 0.0
C1783 C 0.51952 0.48823 0.57996 0.0
C1784 C 0.52768 0.46822 0.61915 0.0
C1785 C 0.53142 0.49091 0.63071 0.0
C1786 C 0.52666 0.51229 0.61723 0.0
C1787 C 0.52064 0.51094 0.59194 0.0
H1788 H 0.74128 0.37107 0.92473 0.0
H1789 H 0.80824 0.33599 0.93893 0.0
H1790 H 0.73845 0.35061 0.88457 0.0
H1791 H 0.8052 0.31526 0.89867 0.0
H1792 H 0.79212 0.28872 0.81701 0.0
H1793 H 0.80028 0.3195 0.84949 0.0
H1794 H 0.73164 0.3041 0.88176 0.0
H1795 H 0.72399 0.27316 0.8501 0.0
C1796 C 0.75556 0.35926 0.91909 0.0
C1797 C 0.77465 0.35456 0.93518 0.0
C1798 C 0.75399 0.34767 0.89609 0.0
C1799 C 0.77141 0.3311 0.88881 0.0
C1800 C 0.79158 0.32803 0.90388 0.0
C1801 C 0.79323 0.33976 0.92695 0.0
C1802 C 0.77885 0.29218 0.83105 0.0
C1803 C 0.75755 0.27861 0.83141 0.0
C1804 C 0.78348 0.30967 0.84951 0.0
C1805 C 0.7665 0.31422 0.86794 0.0
C1806 C 0.74491 0.30114 0.8676 0.0
C1807 C 0.7406 0.28332 0.84968 0.0
H1808 H 0.95734 0.54756 0.20335 0.0
H1809 H 0.92392 0.48116 0.17692 0.0
H1810 H 0.98247 0.5485 0.16605 0.0
H1811 H 0.94907 0.48174 0.14044 0.0
H1812 H -0.00539 0.48292 0.07684 0.0
H1813 H 0.99169 0.4821 0.12219 0.0
H1814 H 0.96424 0.55517 0.12143 0.0
H1815 H 0.96671 0.55575 0.07625 0.0
C1816 C 0.95584 0.53291 0.18991 0.0
C1817 C 0.93835 0.51466 0.19252 0.0
C1818 C 0.97023 0.53337 0.16874 0.0
C1819 C 0.96768 0.51519 0.15042 0.0
C1820 C 0.95165 0.49583 0.15435 0.0
C1821 C 0.93698 0.4957 0.17505 0.0
C1822 C 0.98865 0.49901 0.08645 0.0
C1823 C 0.98014 0.51905 0.0731 0.0
C1824 C 0.98711 0.49861 0.11237 0.0
C1825 C 0.97748 0.51847 0.12522 0.0
C1826 C 0.97179 0.53964 0.11201 0.0
C1827 C 0.97289 0.53984 0.08613 0.0
H1828 H 0.78416 0.66074 0.4415 0.0
H1829 H 0.72762 0.62154 0.4039 0.0
H1830 H 0.78965 0.6865 0.40502 0.0
H1831 H 0.73198 0.64808 0.36798 0.0
H1832 H 0.7407 0.6967 0.30474 0.0
H1833 H 0.75296 0.66432 0.33325 0.0
H1834 H 0.76646 0.71858 0.39021 0.0
H1835 H 0.75498 0.75034 0.36156 0.0
C1836 C 0.77284 0.65779 0.42542 0.0
C1837 C 0.75506 0.6397 0.42561 0.0
C1838 C 0.77603 0.67241 0.4045 0.0
C1839 C 0.76103 0.66965 0.38366 0.0
C1840 C 0.74408 0.6506 0.38349 0.0
C1841 C 0.74129 0.6356 0.40421 0.0
C1842 C 0.7474 0.70153 0.32301 0.0
C1843 C 0.74696 0.72575 0.33116 0.0
C1844 C 0.75407 0.68308 0.33945 0.0
C1845 C 0.76028 0.68878 0.36421 0.0
C1846 C 0.76197 0.7134 0.37134 0.0
C1847 C 0.75523 0.73167 0.355 0.0
H1848 H 0.61956 0.54039 0.83968 0.0
H1849 H 0.60056 0.46805 0.81436 0.0
H1850 H 0.59844 0.53294 0.87841 0.0
H1851 H 0.58037 0.46006 0.85349 0.0
H1852 H 0.51236 0.48083 0.89911 0.0
H1853 H 0.54374 0.47393 0.86918 0.0
H1854 H 0.59362 0.51217 0.91711 0.0
H1855 H 0.56161 0.51977 0.94653 0.0
C1856 C 0.61126 0.52273 0.84266 0.0
C1857 C 0.61116 0.50503 0.82388 0.0
C1858 C 0.5994 0.51828 0.86498 0.0
C1859 C 0.58757 0.49587 0.86907 0.0
C1860 C 0.58889 0.47764 0.8508 0.0
C1861 C 0.60037 0.48226 0.82835 0.0
C1862 C 0.53031 0.48665 0.9037 0.0
C1863 C 0.53477 0.50066 0.92499 0.0
C1864 C 0.54837 0.48278 0.88656 0.0
C1865 C 0.57112 0.49311 0.89042 0.0
C1866 C 0.57616 0.50452 0.9133 0.0
C1867 C 0.558 0.50849 0.93037 0.0
H1868 H 0.76816 0.28931 0.03785 0.0
H1869 H 0.70694 0.33173 0.05754 0.0
H1870 H 0.76327 0.26521 0.07581 0.0
H1871 H 0.70201 0.30775 0.09512 0.0
H1872 H 0.69057 0.25929 0.15754 0.0
H1873 H 0.69358 0.26669 0.11301 0.0
H1874 H 0.76924 0.27819 0.12087 0.0
H1875 H 0.76624 0.27066 0.16544 0.0
C1876 C 0.75332 0.29307 0.04994 0.0
C1877 C 0.73808 0.31257 0.04493 0.0
C1878 C 0.75061 0.27936 0.07169 0.0
C1879 C 0.73233 0.28464 0.08847 0.0
C1880 C 0.71613 0.30303 0.08246 0.0
C1881 C 0.71905 0.31691 0.061 0.0
C1882 C 0.70795 0.26271 0.14965 0.0
C1883 C 0.72812 0.26482 0.16503 0.0
C1884 C 0.70965 0.26697 0.12417 0.0
C1885 C 0.73155 0.27348 0.11356 0.0
C1886 C 0.75212 0.27312 0.1285 0.0
C1887 C 0.75042 0.2688 0.15406 0.0
H1888 H 0.86382 0.46888 0.32913 0.0
H1889 H 0.92235 0.50813 0.29531 0.0
H1890 H 0.88359 0.47267 0.3698 0.0
H1891 H 0.94176 0.51165 0.33529 0.0
H1892 H 0.96019 0.53879 0.40943 0.0
H1893 H 0.93336 0.53456 0.37406 0.0
H1894 H 0.92214 0.45855 0.39157 0.0
H1895 H 0.94858 0.46303 0.42775 0.0
C1896 C 0.88085 0.4782 0.33035 0.0
C1897 C 0.89145 0.48838 0.30908 0.0
C1898 C 0.89212 0.48033 0.35354 0.0
C1899 C 0.91395 0.49285 0.35567 0.0
C1900 C 0.92466 0.50243 0.33429 0.0
C1901 C 0.91358 0.50023 0.31131 0.0
C1902 C 0.9519 0.52121 0.40581 0.0
C1903 C 0.95694 0.50105 0.42077 0.0
C1904 C 0.9365 0.51881 0.38567 0.0
C1905 C 0.92616 0.4961 0.37981 0.0
C1906 C 0.92993 0.47624 0.39571 0.0
C1907 C 0.94516 0.47875 0.4162 0.0
H1908 H 0.77973 0.62349 0.57432 0.0
H1909 H 0.73353 0.68347 0.55687 0.0
H1910 H 0.78513 0.63976 0.61666 0.0
H1911 H 0.73897 0.69935 0.5989 0.0
H1912 H 0.73886 0.68611 0.69136 0.0
H1913 H 0.74069 0.65942 0.65468 0.0
H1914 H 0.79192 0.70818 0.62136 0.0
H1915 H 0.78989 0.73495 0.65763 0.0
C1916 C 0.77062 0.63998 0.57954 0.0
C1917 C 0.7563 0.6523 0.5622 0.0
C1918 C 0.77368 0.64916 0.60371 0.0
C1919 C 0.76237 0.67066 0.6108 0.0
C1920 C 0.74782 0.6827 0.59369 0.0
C1921 C 0.74483 0.67365 0.56964 0.0
C1922 C 0.75126 0.69051 0.67667 0.0
C1923 C 0.76408 0.71264 0.67711 0.0
C1924 C 0.75227 0.67529 0.65574 0.0
C1925 C 0.76641 0.68194 0.63536 0.0
C1926 C 0.78098 0.70275 0.63696 0.0
C1927 C 0.77977 0.71804 0.65763 0.0
H1928 H 0.69187 0.55726 0.48455 0.0
H1929 H 0.66179 0.62909 0.49011 0.0
H1930 H 0.65254 0.54015 0.47663 0.0
H1931 H 0.62227 0.61188 0.48185 0.0
H1932 H 0.55657 0.55963 0.50291 0.0
H1933 H 0.59269 0.5849 0.50254 0.0
H1934 H 0.62156 0.53943 0.44476 0.0
H1935 H 0.58588 0.51384 0.44582 0.0
C1936 C 0.67688 0.56942 0.48398 0.0
C1937 C 0.68 0.59452 0.48795 0.0
C1938 C 0.65432 0.55966 0.47916 0.0
C1939 C 0.63427 0.57471 0.47822 0.0
C1940 C 0.63733 0.59982 0.48241 0.0
C1941 C 0.65999 0.60964 0.48713 0.0
C1942 C 0.57029 0.55565 0.48951 0.0
C1943 C 0.5687 0.53461 0.47469 0.0
C1944 C 0.59103 0.57005 0.48935 0.0
C1945 C 0.61031 0.56364 0.47419 0.0
C1946 C 0.60735 0.54433 0.45723 0.0
C1947 C 0.58684 0.52984 0.45764 0.0
H1948 H 0.20527 0.95105 0.50687 0.0
H1949 H 0.16334 0.89984 0.46339 0.0
H1950 H 0.16974 0.97534 0.51404 0.0
H1951 H 0.12818 0.92446 0.47031 0.0
H1952 H 0.08531 0.95712 0.54807 0.0
H1953 H 0.12634 0.94783 0.5376 0.0
H1954 H 0.11683 0.97997 0.46528 0.0
H1955 H 0.07583 0.98988 0.4758 0.0
C1956 C 0.18864 0.94526 0.49842 0.0
C1957 C 0.187 0.92334 0.48486 0.0
C1958 C 0.16845 0.95922 0.50245 0.0
C1959 C 0.14651 0.95168 0.4926 0.0
C1960 C 0.14511 0.9307 0.47775 0.0
C1961 C 0.1652 0.9166 0.4739 0.0
C1962 C 0.09214 0.96298 0.53025 0.0
C1963 C 0.07721 0.97386 0.51255 0.0
C1964 C 0.11562 0.95775 0.52435 0.0
C1965 C 0.12443 0.96314 0.50066 0.0
C1966 C 0.11025 0.97575 0.48368 0.0
C1967 C 0.08685 0.9814 0.48973 0.0
H1968 H 0.31484 0.93308 0.7458 0.0
H1969 H 0.3819 0.90865 0.71665 0.0
H1970 H 0.30688 0.8927 0.76192 0.0
H1971 H 0.37385 0.86778 0.73312 0.0
H1972 H 0.31698 0.79961 0.73147 0.0
H1973 H 0.34367 0.83414 0.72471 0.0
H1974 H 0.32225 0.86502 0.79487 0.0
H1975 H 0.29474 0.83094 0.80098 0.0
C1976 C 0.32787 0.91903 0.7428 0.0
C1977 C 0.349 0.92404 0.73007 0.0
C1978 C 0.32353 0.89597 0.75244 0.0
C1979 C 0.3402 0.87733 0.74959 0.0
C1980 C 0.36095 0.88197 0.73597 0.0
C1981 C 0.36536 0.90523 0.7263 0.0
C1982 C 0.31908 0.81303 0.74613 0.0
C1983 C 0.30346 0.81319 0.76636 0.0
C1984 C 0.33432 0.83289 0.74222 0.0
C1985 C 0.33406 0.85271 0.75874 0.0
C1986 C 0.32205 0.85027 0.78146 0.0
C1987 C 0.30647 0.83073 0.78508 0.0
H1988 H 0.30728 0.06156 0.94748 0.0
H1989 H 0.34829 0.1112 0.9933 0.0
H1990 H 0.34345 0.04001 0.93658 0.0
H1991 H 0.38409 0.08892 0.98402 0.0
H1992 H 0.44347 0.04272 0.9823 0.0
H1993 H 0.41537 0.07035 0.96233 0.0
H1994 H 0.36217 0.01272 0.96262 0.0
H1995 H 0.39019 0.98573 0.9818 0.0
C1996 C 0.3241 0.06787 0.95511 0.0
C1997 C 0.32501 0.08735 0.97198 0.0
C1998 C 0.34483 0.05567 0.9488 0.0
C1999 C 0.36666 0.06213 0.96005 0.0
C2000 C 0.36775 0.08328 0.9749 0.0
C2001 C 0.34712 0.09588 0.98062 0.0
C2002 C 0.42608 0.03587 0.97693 0.0
C2003 C 0.41858 0.01252 0.98413 0.0
C2004 C 0.40991 0.05167 0.9657 0.0
C2005 C 0.38615 0.04413 0.96171 0.0
C2006 C 0.38012 0.01947 0.96548 0.0
C2007 C 0.39615 0.0039 0.97676 0.0
H2008 H 0.62846 0.58884 0.70999 0.0
H2009 H 0.68967 0.55371 0.74188 0.0
H2010 H 0.64968 0.62795 0.71113 0.0
H2011 H 0.71077 0.59264 0.74298 0.0
H2012 H 0.74861 0.66169 0.74079 0.0
H2013 H 0.72814 0.62775 0.71979 0.0
H2014 H 0.66118 0.65302 0.74827 0.0
H2015 H 0.68176 0.68687 0.76898 0.0
C2016 C 0.64657 0.58936 0.71684 0.0
C2017 C 0.65725 0.56824 0.72628 0.0
C2018 C 0.6587 0.61177 0.71745 0.0
C2019 C 0.68186 0.61342 0.72721 0.0
C2020 C 0.69305 0.59198 0.73508 0.0
C2021 C 0.68085 0.56967 0.73472 0.0
C2022 C 0.72941 0.66045 0.74158 0.0
C2023 C 0.71663 0.67666 0.75639 0.0
C2024 C 0.71772 0.64099 0.72977 0.0
C2025 C 0.69312 0.63743 0.73281 0.0
C2026 C 0.68011 0.65526 0.74549 0.0
C2027 C 0.69184 0.67464 0.75737 0.0
H2028 H 0.8084 0.42792 0.03119 0.0
H2029 H 0.83714 0.3554 0.0272 0.0
H2030 H 0.84685 0.44495 0.01958 0.0
H2031 H 0.87588 0.37269 0.0154 0.0
H2032 H 0.89757 0.46469 0.96159 0.0
H2033 H 0.86508 0.43801 0.97473 0.0
H2034 H 0.91056 0.40597 0.03022 0.0
H2035 H 0.94342 0.43252 0.01664 0.0
C2036 C 0.8231 0.41567 0.0284 0.0
C2037 C 0.81968 0.39036 0.02951 0.0
C2038 C 0.84502 0.42538 0.02159 0.0
C2039 C 0.86394 0.41 0.01578 0.0
C2040 C 0.86138 0.38482 0.01946 0.0
C2041 C 0.83929 0.37501 0.02634 0.0
C2042 C 0.90089 0.45124 0.97586 0.0
C2043 C 0.92279 0.45074 0.98828 0.0
C2044 C 0.88231 0.43619 0.98355 0.0
C2045 C 0.88525 0.42062 0.00397 0.0
C2046 C 0.9079 0.41801 0.01455 0.0
C2047 C 0.92669 0.43302 0.00665 0.0
H2048 H 0.29457 0.04228 0.75131 0.0
H2049 H 0.35064 0.0956 0.73999 0.0
H2050 H 0.26535 0.07517 0.75257 0.0
H2051 H 0.32146 0.12807 0.74138 0.0
H2052 H 0.25065 0.16016 0.70211 0.0
H2053 H 0.2659 0.119 0.70766 0.0
H2054 H 0.28057 0.13475 0.78473 0.0
H2055 H 0.26557 0.17591 0.77922 0.0
C2056 C 0.30065 0.06095 0.74913 0.0
C2057 C 0.32491 0.06638 0.74545 0.0
C2058 C 0.28396 0.07963 0.74996 0.0
C2059 C 0.29138 0.1039 0.74722 0.0
C2060 C 0.31552 0.10937 0.74379 0.0
C2061 C 0.33215 0.09081 0.74296 0.0
C2062 C 0.25591 0.15438 0.72055 0.0
C2063 C 0.25694 0.1712 0.74029 0.0
C2064 C 0.26459 0.13087 0.72369 0.0
C2065 C 0.27437 0.12398 0.74657 0.0
C2066 C 0.27281 0.13972 0.76702 0.0
C2067 C 0.26398 0.1632 0.76392 0.0
H2068 H 0.13208 0.90482 0.2875 0.0
H2069 H 0.16595 0.9231 0.21801 0.0
H2070 H 0.15119 0.86486 0.28694 0.0
H2071 H 0.18446 0.88322 0.21723 0.0
H2072 H 0.20537 0.80887 0.21019 0.0
H2073 H 0.17235 0.83693 0.21537 0.0
H2074 H 0.19776 0.85495 0.28904 0.0
H2075 H 0.23077 0.82672 0.28375 0.0
C2076 C 0.14331 0.90014 0.27196 0.0
C2077 C 0.14774 0.91703 0.25285 0.0
C2078 C 0.15413 0.87733 0.27166 0.0
C2079 C 0.16897 0.87094 0.2519 0.0
C2080 C 0.17272 0.88757 0.23246 0.0
C2081 C 0.16238 0.91048 0.23303 0.0
C2082 C 0.20319 0.81805 0.22786 0.0
C2083 C 0.22045 0.81603 0.24653 0.0
C2084 C 0.18442 0.83407 0.23081 0.0
C2085 C 0.18289 0.84836 0.25239 0.0
C2086 C 0.19858 0.84409 0.27225 0.0
C2087 C 0.21744 0.82804 0.26925 0.0
H2088 H 0.52034 0.30403 0.41137 0.0
H2089 H 0.44592 0.31949 0.40063 0.0
H2090 H 0.52483 0.34047 0.43649 0.0
H2091 H 0.4505 0.35629 0.42633 0.0
H2092 H 0.48606 0.43503 0.44759 0.0
H2093 H 0.4729 0.39807 0.4251 0.0
H2094 H 0.51089 0.35382 0.4779 0.0
H2095 H 0.52428 0.39026 0.49967 0.0
C2096 C 0.50485 0.3151 0.41451 0.0
C2097 C 0.48274 0.30872 0.40407 0.0
C2098 C 0.50741 0.33599 0.42904 0.0
C2099 C 0.48795 0.35111 0.43363 0.0
C2100 C 0.4658 0.34498 0.42307 0.0
C2101 C 0.46319 0.32387 0.40848 0.0
C2102 C 0.49107 0.41732 0.45458 0.0
C2103 C 0.5066 0.41544 0.47496 0.0
C2104 C 0.48356 0.39621 0.44178 0.0
C2105 C 0.49142 0.37312 0.44941 0.0
C2106 C 0.5051 0.37137 0.47117 0.0
C2107 C 0.51272 0.39226 0.48367 0.0
H2108 H 0.40093 0.73594 0.14191 0.0
H2109 H 0.45328 0.7483 0.1997 0.0
H2110 H 0.37003 0.7325 0.17325 0.0
H2111 H 0.42228 0.74458 0.23111 0.0
H2112 H 0.35139 0.77782 0.26522 0.0
H2113 H 0.38797 0.77033 0.24262 0.0
H2114 H 0.35574 0.70666 0.20861 0.0
H2115 H 0.31913 0.71417 0.23118 0.0
C2116 C 0.40589 0.73771 0.16131 0.0
C2117 C 0.42954 0.74255 0.16829 0.0
C2118 C 0.38821 0.73546 0.1793 0.0
C2119 C 0.39378 0.73799 0.20469 0.0
C2120 C 0.41747 0.74256 0.2117 0.0
C2121 C 0.43518 0.74479 0.19369 0.0
C2122 C 0.35248 0.76162 0.25376 0.0
C2123 C 0.3323 0.74683 0.24968 0.0
C2124 C 0.37343 0.75735 0.24074 0.0
C2125 C 0.37445 0.73831 0.22331 0.0
C2126 C 0.35524 0.72178 0.22155 0.0
C2127 C 0.33438 0.7259 0.23479 0.0
H2128 H 0.02804 0.67524 0.88985 0.0
H2129 H 0.98157 0.70006 0.94807 0.0
H2130 H 0.02245 0.63311 0.90385 0.0
H2131 H 0.97577 0.65791 0.96168 0.0
H2132 H 0.94055 0.58367 0.94372 0.0
H2133 H 0.95462 0.62327 0.92955 0.0
H2134 H 0.02637 0.60452 0.94947 0.0
H2135 H 0.01216 0.56449 0.96436 0.0
C2136 C 0.01695 0.67172 0.90587 0.0
C2137 C 0.00492 0.69085 0.91768 0.0
C2138 C 0.01391 0.64767 0.91391 0.0
C2139 C -0.00145 0.64241 0.93361 0.0
C2140 C 0.98765 0.66164 0.94633 0.0
C2141 C 0.99099 0.68571 0.93859 0.0
C2142 C 0.95942 0.58771 0.94473 0.0
C2143 C 0.97523 0.57114 0.95554 0.0
C2144 C 0.96739 0.61043 0.93674 0.0
C2145 C 0.99139 0.61704 0.9391 0.0
C2146 C 0.0077 0.5998 0.94779 0.0
C2147 C -0.00037 0.5769 0.95606 0.0
H2148 H 0.08806 0.21372 0.63705 0.0
H2149 H 0.05891 0.27591 0.67514 0.0
H2150 H 0.12283 0.21542 0.6644 0.0
H2151 H 0.09366 0.2778 0.70203 0.0
H2152 H 0.14285 0.25684 0.76431 0.0
H2153 H 0.10935 0.25224 0.73581 0.0
H2154 H 0.15772 0.24185 0.67473 0.0
H2155 H 0.19123 0.24579 0.70325 0.0
C2156 C 0.08921 0.22789 0.65104 0.0
C2157 C 0.07067 0.24449 0.6542 0.0
C2158 C 0.10908 0.22886 0.66666 0.0
C2159 C 0.11068 0.24647 0.68559 0.0
C2160 C 0.09258 0.26363 0.68801 0.0
C2161 C 0.07276 0.26264 0.6725 0.0
C2162 C 0.14635 0.25345 0.74484 0.0
C2163 C 0.16969 0.25206 0.73598 0.0
C2164 C 0.12719 0.25092 0.72852 0.0
C2165 C 0.13099 0.24706 0.70303 0.0
C2166 C 0.15428 0.24475 0.6943 0.0
C2167 C 0.17345 0.24718 0.71063 0.0
H2168 H 0.49737 0.69884 0.04226 0.0
H2169 H 0.49613 0.67032 0.11709 0.0
H2170 H 0.50547 0.65831 0.02638 0.0
H2171 H 0.50472 0.62979 0.10116 0.0
H2172 H 0.48498 0.55973 0.05311 0.0
H2173 H 0.48474 0.59802 0.07631 0.0
H2174 H 0.53695 0.62819 0.02601 0.0
H2175 H 0.5365 0.59012 0.0025 0.0
C2176 C 0.49883 0.68394 0.05531 0.0
C2177 C 0.49608 0.68778 0.08089 0.0
C2178 C 0.5038 0.66076 0.04626 0.0
C2179 C 0.50612 0.64094 0.06259 0.0
C2180 C 0.50306 0.64471 0.08816 0.0
C2181 C 0.4981 0.66792 0.09723 0.0
C2182 C 0.49707 0.57424 0.04772 0.0
C2183 C 0.51063 0.57224 0.02607 0.0
C2184 C 0.49688 0.5962 0.06088 0.0
C2185 C 0.51037 0.61629 0.05252 0.0
C2186 C 0.52586 0.61324 0.03241 0.0
C2187 C 0.5258 0.59144 0.01912 0.0
H2188 H 0.06606 0.74733 0.80447 0.0
H2189 H 0.09857 0.72083 0.87197 0.0
H2190 H 0.1047 0.74814 0.78446 0.0
H2191 H 0.13728 0.72152 0.85179 0.0
H2192 H 0.19388 0.77932 0.82004 0.0
H2193 H 0.16017 0.75909 0.83992 0.0
H2194 H 0.14061 0.72579 0.76979 0.0
H2195 H 0.17466 0.7461 0.75007 0.0
C2196 C 0.08138 0.74128 0.8149 0.0
C2197 C 0.07937 0.73463 0.83997 0.0
C2198 C 0.10349 0.74143 0.80333 0.0
C2199 C 0.12401 0.73503 0.81665 0.0
C2200 C 0.12176 0.72676 0.8412 0.0
C2201 C 0.09961 0.72649 0.85274 0.0
C2202 C 0.18283 0.76692 0.80922 0.0
C2203 C 0.1866 0.76407 0.78372 0.0
C2204 C 0.16363 0.75524 0.82054 0.0
C2205 C 0.14763 0.74108 0.8063 0.0
C2206 C 0.15259 0.73676 0.78111 0.0
C2207 C 0.17205 0.74819 0.76989 0.0
H2208 H 0.96957 0.30821 0.58641 0.0
H2209 H 0.03765 0.29824 0.55131 0.0
H2210 H 0.96296 0.344 0.5614 0.0
H2211 H 0.0307 0.33417 0.52552 0.0
H2212 H 0.94713 0.40217 0.51169 0.0
H2213 H 0.95525 0.35963 0.52107 0.0
H2214 H 0.0294 0.37796 0.53244 0.0
H2215 H 0.02131 0.42027 0.52156 0.0
C2216 C 0.98301 0.31345 0.57304 0.0
C2217 C 0.00424 0.3005 0.57105 0.0
C2218 C 0.97909 0.3339 0.55841 0.0
C2219 C -0.00377 0.34194 0.54126 0.0
C2220 C 0.0172 0.32854 0.53864 0.0
C2221 C 0.02115 0.30795 0.55338 0.0
C2222 C 0.96527 0.39684 0.51532 0.0
C2223 C 0.98356 0.41436 0.51624 0.0
C2224 C 0.96993 0.37257 0.52089 0.0
C2225 C 0.99283 0.36554 0.5283 0.0
C2226 C 0.01156 0.38271 0.52683 0.0
C2227 C 0.00696 0.40696 0.52065 0.0
H2228 H 0.43657 0.27112 0.3225 0.0
H2229 H 0.42827 0.19315 0.31414 0.0
H2230 H 0.39591 0.27658 0.30769 0.0
H2231 H 0.3877 0.19881 0.29898 0.0
H2232 H 0.32149 0.22319 0.25359 0.0
H2233 H 0.36427 0.22045 0.26188 0.0
H2234 H 0.35571 0.26248 0.32902 0.0
H2235 H 0.31296 0.26463 0.32115 0.0
C2236 C 0.42625 0.25517 0.31713 0.0
C2237 C 0.43564 0.23167 0.31968 0.0
C2238 C 0.40296 0.25834 0.30872 0.0
C2239 C 0.38869 0.23812 0.3023 0.0
C2240 C 0.3984 0.21471 0.30366 0.0
C2241 C 0.4216 0.21149 0.31242 0.0
C2242 C 0.32883 0.23201 0.26998 0.0
C2243 C 0.31393 0.24395 0.28684 0.0
C2244 C 0.35323 0.23037 0.27475 0.0
C2245 C 0.36322 0.24123 0.29609 0.0
C2246 C 0.34846 0.25404 0.31237 0.0
C2247 C 0.32401 0.25515 0.30795 0.0
H2248 H 0.44802 0.46523 0.28474 0.0
H2249 H 0.40531 0.52673 0.30577 0.0
H2250 H 0.47055 0.46925 0.32367 0.0
H2251 H 0.42744 0.53056 0.34432 0.0
H2252 H 0.47538 0.54551 0.40492 0.0
H2253 H 0.46662 0.54138 0.36071 0.0
H2254 H 0.46178 0.46321 0.36904 0.0
H2255 H 0.47157 0.46746 0.41332 0.0
C2256 C 0.44363 0.47975 0.29751 0.0
C2257 C 0.42487 0.49567 0.29223 0.0
C2258 C 0.45646 0.48197 0.31979 0.0
C2259 C 0.45094 0.50035 0.33695 0.0
C2260 C 0.43251 0.51651 0.33129 0.0
C2261 C 0.41963 0.51418 0.30926 0.0
C2262 C 0.47321 0.52742 0.39707 0.0
C2263 C 0.4738 0.50682 0.4124 0.0
C2264 C 0.46807 0.52504 0.37184 0.0
C2265 C 0.46283 0.50204 0.36158 0.0
C2266 C 0.4657 0.48119 0.37644 0.0
C2267 C 0.47128 0.48358 0.40175 0.0
H2268 H 0.27682 0.6961 0.04405 0.0
H2269 H 0.24114 0.63424 0.07745 0.0
H2270 H 0.2764 0.71725 0.08384 0.0
H2271 H 0.24113 0.65526 0.11739 0.0
H2272 H 0.22367 0.71288 0.17758 0.0
H2273 H 0.22312 0.69037 0.1382 0.0
H2274 H 0.29535 0.71391 0.12424 0.0
H2275 H 0.29558 0.73685 0.16291 0.0
C2276 C 0.26901 0.68697 0.05991 0.0
C2277 C 0.25915 0.66349 0.05767 0.0
C2278 C 0.26886 0.69903 0.08273 0.0
C2279 C 0.25882 0.68785 0.10377 0.0
C2280 C 0.24882 0.6644 0.10148 0.0
C2281 C 0.24904 0.6523 0.07866 0.0
C2282 C 0.23937 0.71314 0.16603 0.0
C2283 C 0.25951 0.72688 0.173 0.0
C2284 C 0.23912 0.70022 0.14359 0.0
C2285 C 0.25911 0.70064 0.12801 0.0
C2286 C 0.27946 0.71377 0.13551 0.0
C2287 C 0.27961 0.72686 0.15768 0.0
H2288 H 0.06934 0.54188 0.8104 0.0
H2289 H 0.07491 0.46661 0.78813 0.0
H2290 H 0.04349 0.52998 0.84446 0.0
H2291 H 0.04793 0.45466 0.82137 0.0
H2292 H 0.04258 0.44375 0.9066 0.0
H2293 H 0.05375 0.45126 0.86406 0.0
H2294 H 0.00811 0.51402 0.86208 0.0
H2295 H -0.00239 0.50692 0.90553 0.0
C2296 C 0.06455 0.52282 0.81248 0.0
C2297 C 0.07461 0.50509 0.7971 0.0
C2298 C 0.04947 0.51598 0.83186 0.0
C2299 C 0.04381 0.49126 0.836 0.0
C2300 C 0.0524 0.47378 0.81921 0.0
C2301 C 0.06786 0.48059 0.80016 0.0
C2302 C 0.0345 0.45889 0.897 0.0
C2303 C 0.01977 0.47516 0.90969 0.0
C2304 C 0.04075 0.4631 0.87236 0.0
C2305 C 0.0323 0.48363 0.85966 0.0
C2306 C 0.01548 0.49842 0.87152 0.0
C2307 C 0.00926 0.49422 0.89635 0.0
H2308 H 0.17887 0.32445 0.57009 0.0
H2309 H 0.2509 0.35067 0.58095 0.0
H2310 H 0.17826 0.31 0.61331 0.0
H2311 H 0.25027 0.33655 0.62319 0.0
H2312 H 0.25418 0.31668 0.69523 0.0
H2313 H 0.2334 0.34143 0.66463 0.0
H2314 H 0.20047 0.27637 0.63418 0.0
H2315 H 0.2202 0.2521 0.66577 0.0
C2316 C 0.19443 0.32729 0.58168 0.0
C2317 C 0.21502 0.33845 0.57201 0.0
C2318 C 0.194 0.31923 0.60641 0.0
C2319 C 0.21402 0.32259 0.62185 0.0
C2320 C 0.23424 0.33432 0.61216 0.0
C2321 C 0.23477 0.34204 0.58765 0.0
C2322 C 0.24107 0.30806 0.68324 0.0
C2323 C 0.23856 0.28271 0.6828 0.0
C2324 C 0.22943 0.32209 0.66546 0.0
C2325 C 0.21604 0.31068 0.64645 0.0
C2326 C 0.21077 0.2857 0.64842 0.0
C2327 C 0.22214 0.27176 0.66646 0.0
H2328 H 0.37442 0.50843 0.1594 0.0
H2329 H 0.4455 0.52133 0.18725 0.0
H2330 H 0.38913 0.51051 0.11685 0.0
H2331 H 0.46041 0.52234 0.14504 0.0
H2332 H 0.48839 0.51855 0.072 0.0
H2333 H 0.46416 0.53813 0.10386 0.0
H2334 H 0.41109 0.48103 0.09509 0.0
H2335 H 0.43503 0.46229 0.0632 0.0
C2336 C 0.39319 0.51174 0.15639 0.0
C2337 C 0.40896 0.51403 0.17656 0.0
C2338 C 0.40159 0.51311 0.13205 0.0
C2339 C 0.42601 0.51628 0.12745 0.0
C2340 C 0.44147 0.52019 0.14774 0.0
C2341 C 0.43299 0.51922 0.17202 0.0
C2342 C 0.47096 0.51109 0.07613 0.0
C2343 C 0.46348 0.48896 0.06557 0.0
C2344 C 0.45721 0.52205 0.09451 0.0
C2345 C 0.43602 0.51073 0.10261 0.0
C2346 C 0.42727 0.49031 0.08949 0.0
C2347 C 0.44101 0.47941 0.07125 0.0
H2348 H 0.1988 0.65645 0.92366 0.0
H2349 H 0.26841 0.67475 0.95279 0.0
H2350 H 0.20631 0.68231 0.88767 0.0
H2351 H 0.27573 0.70094 0.91699 0.0
H2352 H 0.29028 0.69474 0.83074 0.0
H2353 H 0.28221 0.68516 0.874 0.0
H2354 H 0.21605 0.72398 0.86951 0.0
H2355 H 0.22438 0.73389 0.82599 0.0
C2356 C 0.21547 0.66643 0.92266 0.0
C2357 C 0.23331 0.66305 0.94061 0.0
C2358 C 0.21968 0.68144 0.90218 0.0
C2359 C 0.24174 0.69335 0.89942 0.0
C2360 C 0.25873 0.69162 0.91849 0.0
C2361 C 0.25459 0.67654 0.93887 0.0
C2362 C 0.27428 0.70168 0.83915 0.0
C2363 C 0.25783 0.71475 0.82504 0.0
C2364 C 0.26974 0.69641 0.86399 0.0
C2365 C 0.24843 0.70374 0.87507 0.0
C2366 C 0.23255 0.71805 0.86136 0.0
C2367 C 0.23736 0.72376 0.83655 0.0
H2368 H 0.11548 0.50888 0.66697 0.0
H2369 H 0.05218 0.47606 0.69833 0.0
H2370 H 0.09289 0.52072 0.63027 0.0
H2371 H 0.02983 0.48751 0.66151 0.0
H2372 H 0.98886 0.52546 0.60538 0.0
H2373 H 0.01522 0.52481 0.6414 0.0
H2374 H 0.07269 0.50091 0.59474 0.0
H2375 H 0.04652 0.50215 0.55861 0.0
C2376 C 0.09682 0.50392 0.6659 0.0
C2377 C 0.08557 0.49154 0.68555 0.0
C2378 C 0.08391 0.51083 0.64494 0.0
C2379 C 0.05954 0.50546 0.64328 0.0
C2380 C 0.04848 0.49249 0.66261 0.0
C2381 C 0.06136 0.48557 0.68353 0.0
C2382 C 0.00728 0.52065 0.60274 0.0
C2383 C 0.01551 0.51311 0.57941 0.0
C2384 C 0.02231 0.52018 0.62334 0.0
C2385 C 0.0457 0.51196 0.62093 0.0
C2386 C 0.05466 0.50712 0.59715 0.0
C2387 C 0.03966 0.5078 0.57646 0.0
H2388 H 0.23123 0.32494 0.44604 0.0
H2389 H 0.25629 0.39188 0.41245 0.0
H2390 H 0.22214 0.3085 0.40509 0.0
H2391 H 0.24708 0.37523 0.3712 0.0
H2392 H 0.2553 0.31403 0.307 0.0
H2393 H 0.26094 0.34039 0.34321 0.0
H2394 H 0.19255 0.31734 0.37118 0.0
H2395 H 0.18702 0.29083 0.33512 0.0
C2396 C 0.23488 0.33613 0.42992 0.0
C2397 C 0.24433 0.35977 0.43253 0.0
C2398 C 0.22941 0.32682 0.40645 0.0
C2399 C 0.23338 0.34082 0.385 0.0
C2400 C 0.24363 0.36415 0.38745 0.0
C2401 C 0.24894 0.37361 0.41104 0.0
C2402 C 0.24103 0.3154 0.32033 0.0
C2403 C 0.22087 0.30011 0.31849 0.0
C2404 C 0.24434 0.33039 0.34115 0.0
C2405 C 0.22748 0.3303 0.36032 0.0
C2406 C 0.20611 0.31721 0.35696 0.0
C2407 C 0.20286 0.30219 0.33627 0.0
H2408 H 0.29919 0.43231 0.51998 0.0
H2409 H 0.33313 0.36229 0.52459 0.0
H2410 H 0.33758 0.4525 0.52393 0.0
H2411 H 0.37182 0.38267 0.52892 0.0
H2412 H 0.43342 0.43351 0.49532 0.0
H2413 H 0.39872 0.40703 0.50229 0.0
H2414 H 0.36995 0.46063 0.55237 0.0
H2415 H 0.404 0.48729 0.54451 0.0
C2416 C 0.31484 0.42121 0.5221 0.0
C2417 C 0.31308 0.39571 0.5218 0.0
C2418 C 0.3369 0.4328 0.52462 0.0
C2419 C 0.35782 0.41921 0.52693 0.0
C2420 C 0.35607 0.39365 0.52708 0.0
C2421 C 0.33389 0.38201 0.52464 0.0
C2422 C 0.41995 0.43922 0.50834 0.0
C2423 C 0.42102 0.46255 0.51901 0.0
C2424 C 0.40009 0.42409 0.51237 0.0
C2425 C 0.38124 0.43207 0.52733 0.0
C2426 C 0.38379 0.4543 0.54012 0.0
C2427 C 0.40333 0.4695 0.53576 0.0
H2428 H 0.83834 0.0879 0.52197 0.0
H2429 H 0.79387 0.04486 0.47256 0.0
H2430 H 0.8702 0.05887 0.51699 0.0
H2431 H 0.82606 0.0157 0.46754 0.0
H2432 H 0.90622 0.00715 0.43706 0.0
H2433 H 0.86648 0.0213 0.44662 0.0
H2434 H 0.88153 0.01468 0.52504 0.0
H2435 H 0.92133 0.00048 0.51555 0.0
C2436 C 0.83526 0.0721 0.51025 0.0
C2437 C 0.81367 0.06879 0.49749 0.0
C2438 C 0.85343 0.05531 0.50764 0.0
C2439 C 0.85048 0.03492 0.49206 0.0
C2440 C 0.82871 0.03125 0.47971 0.0
C2441 C 0.81038 0.04797 0.48253 0.0
C2442 C 0.90077 0.00788 0.45632 0.0
C2443 C 0.91708 0.00333 0.47557 0.0
C2444 C 0.87797 0.01588 0.46179 0.0
C2445 C 0.87121 0.01959 0.48656 0.0
C2446 C 0.88652 0.01232 0.50577 0.0
C2447 C 0.90925 0.00406 0.50031 0.0
H2448 H 0.68684 0.05134 0.2439 0.0
H2449 H 0.62573 0.09612 0.22969 0.0
H2450 H 0.71223 0.08742 0.24458 0.0
H2451 H 0.65103 0.13256 0.23152 0.0
H2452 H 0.70667 0.19201 0.21798 0.0
H2453 H 0.68226 0.1554 0.21171 0.0
H2454 H 0.71927 0.12031 0.27218 0.0
H2455 H 0.74413 0.15633 0.27768 0.0
C2456 C 0.67883 0.06898 0.24115 0.0
C2457 C 0.65431 0.07105 0.23711 0.0
C2458 C 0.69335 0.08966 0.2416 0.0
C2459 C 0.68361 0.1129 0.23849 0.0
C2460 C 0.65912 0.11491 0.23378 0.0
C2461 C 0.64461 0.0941 0.23292 0.0
C2462 C 0.70959 0.17638 0.22981 0.0
C2463 C 0.72731 0.17693 0.24825 0.0
C2464 C 0.69557 0.15548 0.2263 0.0
C2465 C 0.69886 0.13492 0.24139 0.0
C2466 C 0.71661 0.13561 0.25984 0.0
C2467 C 0.7308 0.1563 0.2631 0.0
H2468 H 0.64495 0.88083 0.04055 0.0
H2469 H 0.68143 0.94795 0.02171 0.0
H2470 H 0.60748 0.90244 0.04268 0.0
H2471 H 0.64402 0.96942 0.02329 0.0
H2472 H 0.57893 0.00711 0.02199 0.0
H2473 H 0.60931 0.98423 0.04428 0.0
H2474 H 0.58419 0.91801 0.00867 0.0
H2475 H 0.55352 0.94091 0.98733 0.0
C2476 C 0.64503 0.90027 0.03717 0.0
C2477 C 0.66603 0.91262 0.03032 0.0
C2478 C 0.62356 0.91264 0.03849 0.0
C2479 C 0.62266 0.93758 0.0329 0.0
C2480 C 0.64403 0.95025 0.02799 0.0
C2481 C 0.66551 0.93789 0.02676 0.0
C2482 C 0.57932 0.98747 0.02001 0.0
C2483 C 0.56423 0.97559 0.00301 0.0
C2484 C 0.59677 0.97441 0.03254 0.0
C2485 C 0.59965 0.94945 0.02764 0.0
C2486 C 0.58254 0.9372 0.01291 0.0
C2487 C 0.56495 0.95026 0.00061 0.0
H2488 H 0.30878 0.44069 0.24969 0.0
H2489 H 0.37638 0.40627 0.26182 0.0
H2490 H 0.28861 0.40162 0.25559 0.0
H2491 H 0.35623 0.36736 0.26857 0.0
H2492 H 0.31483 0.30741 0.22193 0.0
H2493 H 0.33802 0.34146 0.23819 0.0
H2494 H 0.2769 0.36591 0.27925 0.0
H2495 H 0.25364 0.33161 0.26235 0.0
C2496 C 0.31928 0.42488 0.25416 0.0
C2497 C 0.34418 0.4264 0.25456 0.0
C2498 C 0.30772 0.40248 0.25787 0.0
C2499 C 0.32082 0.3812 0.26225 0.0
C2500 C 0.34562 0.38326 0.26473 0.0
C2501 C 0.35717 0.40555 0.26075 0.0
C2502 C 0.30676 0.31943 0.23538 0.0
C2503 C 0.2826 0.31709 0.24093 0.0
C2504 C 0.32001 0.33902 0.24476 0.0
C2505 C 0.30916 0.35685 0.25956 0.0
C2506 C 0.28563 0.35279 0.26746 0.0
C2507 C 0.27239 0.33302 0.25811 0.0
H2508 H 0.17803 0.57706 0.97904 0.0
H2509 H 0.16249 0.62016 0.04417 0.0
H2510 H 0.13726 0.56148 0.97868 0.0
H2511 H 0.12168 0.60386 0.04403 0.0
H2512 H 0.08032 0.51948 0.04094 0.0
H2513 H 0.11272 0.54929 0.0455 0.0
H2514 H 0.08955 0.5854 0.97868 0.0
H2515 H 0.05647 0.55606 0.97459 0.0
C2516 C 0.16588 0.58328 0.99318 0.0
C2517 C 0.17341 0.59965 0.01174 0.0
C2518 C 0.14257 0.57461 0.99278 0.0
C2519 C 0.12653 0.58186 0.01111 0.0
C2520 C 0.13383 0.59839 0.02956 0.0
C2521 C 0.1571 0.60751 0.02968 0.0
C2522 C 0.08168 0.53434 0.02778 0.0
C2523 C 0.06625 0.53552 0.0073 0.0
C2524 C 0.10002 0.5514 0.03049 0.0
C2525 C 0.10341 0.56941 0.0124 0.0
C2526 C 0.08697 0.57169 0.9929 0.0
C2527 C 0.06819 0.55498 0.99057 0.0
H2528 H 0.65485 0.9109 0.20769 0.0
H2529 H 0.69619 0.95985 0.25418 0.0
H2530 H 0.68536 0.88022 0.21176 0.0
H2531 H 0.7272 0.92939 0.25762 0.0
H2532 H 0.74235 0.8529 0.29409 0.0
H2533 H 0.7279 0.89208 0.28048 0.0
H2534 H 0.72521 0.86588 0.2047 0.0
H2535 H 0.73907 0.82625 0.21865 0.0
C2536 C 0.6707 0.91528 0.21836 0.0
C2537 C 0.6729 0.93755 0.23105 0.0
C2538 C 0.68839 0.8978 0.22045 0.0
C2539 C 0.70876 0.9023 0.2351 0.0
C2540 C 0.7116 0.92522 0.24649 0.0
C2541 C 0.69379 0.94262 0.24459 0.0
C2542 C 0.73952 0.85579 0.2744 0.0
C2543 C 0.74122 0.83636 0.25751 0.0
C2544 C 0.73131 0.87835 0.26651 0.0
C2545 C 0.72467 0.88187 0.24158 0.0
C2546 C 0.72958 0.86349 0.22415 0.0
C2547 C 0.73783 0.84086 0.23208 0.0
H2548 H 0.87617 0.09528 0.72408 0.0
H2549 H 0.80981 0.0568 0.73618 0.0
H2550 H 0.8551 0.13391 0.72349 0.0
H2551 H 0.78888 0.09532 0.7356 0.0
H2552 H 0.75233 0.16359 0.73063 0.0
H2553 H 0.77739 0.13268 0.71141 0.0
H2554 H 0.83542 0.15441 0.75973 0.0
H2555 H 0.81028 0.18506 0.77877 0.0
C2556 C 0.85707 0.09502 0.72633 0.0
C2557 C 0.84469 0.07304 0.73074 0.0
C2558 C 0.84504 0.11713 0.72584 0.0
C2559 C 0.82039 0.11763 0.72948 0.0
C2560 C 0.80786 0.0955 0.73239 0.0
C2561 C 0.81989 0.07345 0.7331 0.0
C2562 C 0.77079 0.16239 0.73622 0.0
C2563 C 0.77956 0.17643 0.75606 0.0
C2564 C 0.78505 0.14467 0.7254 0.0
C2565 C 0.80817 0.14085 0.73444 0.0
C2566 C 0.8177 0.15695 0.75233 0.0
C2567 C 0.80336 0.17446 0.76328 0.0
loop_
_geom_bond_atom_site_label_1
_geom_bond_atom_site_label_2
_geom_bond_distance
_geom_bond_site_symmetry_2
_ccdc_geom_bond_type
C0 O1 1.160 . S
C0 O7 1.185 . S
O1 C0 1.160 . S
O2 Zn3 1.900 . S
O2 C10 1.284 1_655 S
Zn3 O2 1.900 . S
Zn3 O4 2.037 . S
Zn3 O7 2.101 . S
Zn3 O12 1.961 1_655 S
O4 Zn3 2.037 . S
O4 C8 1.278 1_655 S
C5 O6 1.203 . S
C5 O12 1.267 . S
O6 C5 1.203 . S
O7 C0 1.185 . S
O7 Zn3 2.101 . S
C8 O4 1.278 1_455 S
C8 O9 1.211 . S
O9 C8 1.211 . S
C10 O2 1.284 1_455 S
C10 O11 1.273 . S
O11 C10 1.273 . S
O12 Zn3 1.961 1_455 S
O12 C5 1.267 . S
C13 O14 1.160 . S
C13 O20 1.185 . S
O14 C13 1.160 . S
O15 Zn16 1.899 . S
O15 C23 1.284 . S
Zn16 O15 1.899 . S
Zn16 O17 2.032 . S
Zn16 O20 2.086 . S
Zn16 O25 1.977 1_455 S
O17 Zn16 2.032 . S
O17 C21 1.304 . S
C18 O19 1.203 . S
C18 O25 1.267 . S
O19 C18 1.203 . S
O20 C13 1.185 . S
O20 Zn16 2.086 . S
C21 O17 1.304 . S
C21 O22 1.175 1_455 S
O22 C21 1.175 1_655 S
C23 O15 1.284 . S
C23 O24 1.273 1_455 S
O24 C23 1.273 1_655 S
O25 Zn16 1.977 1_655 S
O25 C18 1.267 . S
C26 O27 1.160 . S
C26 O33 1.185 . S
O27 C26 1.160 . S
O28 Zn29 1.899 . S
O28 C36 1.284 . S
Zn29 O28 1.899 . S
Zn29 O30 2.032 . S
Zn29 O33 2.086 . S
Zn29 O38 1.977 . S
O30 Zn29 2.032 . S
O30 C34 1.278 . S
C31 O32 1.203 . S
C31 O38 1.267 . S
O32 C31 1.203 . S
O33 C26 1.185 . S
O33 Zn29 2.086 . S
C34 O30 1.278 . S
C34 O35 1.211 . S
O35 C34 1.211 . S
C36 O28 1.284 . S
C36 O37 1.273 . S
O37 C36 1.273 . S
O38 Zn29 1.977 . S
O38 C31 1.267 . S
C39 O40 1.160 . S
C39 O46 1.185 . S
O40 C39 1.160 . S
O41 Zn42 1.899 . S
O41 C49 1.284 . S
Zn42 O41 1.899 . S
Zn42 O43 2.032 . S
Zn42 O46 2.086 . S
Zn42 O51 1.977 . S
O43 Zn42 2.032 . S
O43 C47 1.278 . S
C44 O45 1.203 . S
C44 O51 1.267 . S
O45 C44 1.203 . S
O46 C39 1.185 . S
O46 Zn42 2.086 . S
C47 O43 1.278 . S
C47 O48 1.211 . S
O48 C47 1.211 . S
C49 O41 1.284 . S
C49 O50 1.273 . S
O50 C49 1.273 . S
O51 Zn42 1.977 . S
O51 C44 1.267 . S
C52 O53 1.160 . S
C52 O59 1.185 . S
O53 C52 1.160 . S
O54 Zn55 1.899 1_565 S
O54 C62 1.281 1_565 S
Zn55 O54 1.899 1_545 S
Zn55 O56 2.025 1_545 S
Zn55 O59 2.069 1_545 S
Zn55 O64 1.996 . S
O56 Zn55 2.025 1_565 S
O56 C60 1.278 1_565 S
C57 O58 1.203 . S
C57 O64 1.267 . S
O58 C57 1.203 . S
O59 C52 1.185 . S
O59 Zn55 2.069 1_565 S
C60 O56 1.278 1_545 S
C60 O61 1.211 . S
O61 C60 1.211 . S
C62 O54 1.281 1_545 S
C62 O63 1.273 . S
O63 C62 1.273 . S
O64 Zn55 1.996 . S
O64 C57 1.267 . S
C65 O66 1.160 . S
C65 O72 1.185 . S
O66 C65 1.160 . S
O67 Zn68 1.899 . S
O67 C75 1.284 . S
Zn68 O67 1.899 . S
Zn68 O69 2.032 . S
Zn68 O72 2.086 . S
Zn68 O77 1.977 . S
O69 Zn68 2.032 . S
O69 C73 1.278 . S
C70 O71 1.203 . S
C70 O77 1.267 . S
O71 C70 1.203 . S
O72 C65 1.185 . S
O72 Zn68 2.086 . S
C73 O69 1.278 . S
C73 O74 1.211 . S
O74 C73 1.211 . S
C75 O67 1.284 . S
C75 O76 1.273 . S
O76 C75 1.273 . S
O77 Zn68 1.977 . S
O77 C70 1.267 . S
C78 O79 1.160 . S
C78 O85 1.185 . S
O79 C78 1.160 . S
O80 Zn81 1.899 . S
O80 C88 1.284 . S
Zn81 O80 1.899 . S
Zn81 O82 2.032 . S
Zn81 O85 2.086 . S
Zn81 O90 1.977 1_545 S
O82 Zn81 2.032 . S
O82 C86 1.278 . S
C83 O84 1.203 . S
C83 O90 1.267 . S
O84 C83 1.203 . S
O85 C78 1.185 . S
O85 Zn81 2.086 . S
C86 O82 1.278 . S
C86 O87 1.211 1_545 S
O87 C86 1.211 1_565 S
C88 O80 1.284 . S
C88 O89 1.273 1_545 S
O89 C88 1.273 1_565 S
O90 Zn81 1.977 1_565 S
O90 C83 1.267 . S
C91 O92 1.160 . S
C91 O98 1.185 . S
O92 C91 1.160 . S
O93 Zn94 1.899 . S
O93 C101 1.284 . S
Zn94 O93 1.899 . S
Zn94 O95 2.032 1_554 S
Zn94 O98 2.086 . S
Zn94 O103 1.977 . S
O95 Zn94 2.032 1_556 S
O95 C99 1.278 . S
C96 O97 1.203 . S
C96 O103 1.267 . S
O97 C96 1.203 . S
O98 C91 1.185 . S
O98 Zn94 2.086 . S
C99 O95 1.278 . S
C99 O100 1.211 . S
O100 C99 1.211 . S
C101 O93 1.284 . S
C101 O102 1.273 . S
O102 C101 1.273 . S
O103 Zn94 1.977 . S
O103 C96 1.267 . S
C104 O105 1.160 . S
C104 O111 1.185 . S
O105 C104 1.160 . S
O106 Zn107 1.899 . S
O106 C114 1.284 . S
Zn107 O106 1.899 . S
Zn107 O108 2.032 1_554 S
Zn107 O111 2.086 . S
Zn107 O116 1.977 . S
O108 Zn107 2.032 1_556 S
O108 C112 1.278 . S
C109 O110 1.203 . S
C109 O116 1.267 . S
O110 C109 1.203 . S
O111 C104 1.185 . S
O111 Zn107 2.086 . S
C112 O108 1.278 . S
C112 O113 1.211 . S
O113 C112 1.211 . S
C114 O106 1.284 . S
C114 O115 1.273 . S
O115 C114 1.273 . S
O116 Zn107 1.977 . S
O116 C109 1.267 . S
C117 O118 1.160 . S
C117 O124 1.185 . S
O118 C117 1.160 . S
O119 Zn120 1.899 . S
O119 C127 1.284 . S
Zn120 O119 1.899 . S
Zn120 O121 2.032 . S
Zn120 O124 2.086 . S
Zn120 O129 1.977 . S
O121 Zn120 2.032 . S
O121 C125 1.278 . S
C122 O123 1.203 . S
C122 O129 1.267 . S
O123 C122 1.203 . S
O124 C117 1.185 . S
O124 Zn120 2.086 . S
C125 O121 1.278 . S
C125 O126 1.211 . S
O126 C125 1.211 . S
C127 O119 1.284 . S
C127 O128 1.273 . S
O128 C127 1.273 . S
O129 Zn120 1.977 . S
O129 C122 1.267 . S
C130 O131 1.160 . S
C130 O137 1.185 . S
O131 C130 1.160 . S
O132 Zn133 1.899 . S
O132 C140 1.284 . S
Zn133 O132 1.899 . S
Zn133 O134 2.032 . S
Zn133 O137 2.086 . S
Zn133 O142 1.977 . S
O134 Zn133 2.032 . S
O134 C138 1.278 . S
C135 O136 1.203 . S
C135 O142 1.267 . S
O136 C135 1.203 . S
O137 C130 1.185 . S
O137 Zn133 2.086 . S
C138 O134 1.278 . S
C138 O139 1.211 . S
O139 C138 1.211 . S
C140 O132 1.284 . S
C140 O141 1.273 . S
O141 C140 1.273 . S
O142 Zn133 1.977 . S
O142 C135 1.267 . S
C143 O144 1.160 . S
C143 O150 1.185 . S
O144 C143 1.160 . S
O145 Zn146 1.899 . S
O145 C153 1.284 . S
Zn146 O145 1.899 . S
Zn146 O147 2.032 . S
Zn146 O150 2.086 . S
Zn146 O155 1.977 . S
O147 Zn146 2.032 . S
O147 C151 1.278 . S
C148 O149 1.203 . S
C148 O155 1.267 . S
O149 C148 1.203 . S
O150 C143 1.185 . S
O150 Zn146 2.086 . S
C151 O147 1.278 . S
C151 O152 1.211 . S
O152 C151 1.211 . S
C153 O145 1.284 . S
C153 O154 1.273 . S
O154 C153 1.273 . S
O155 Zn146 1.977 . S
O155 C148 1.267 . S
C156 O157 1.160 . S
C156 O163 1.185 . S
O157 C156 1.160 . S
O158 Zn159 1.899 . S
O158 C166 1.284 . S
Zn159 O158 1.899 . S
Zn159 O160 2.032 . S
Zn159 O163 2.086 . S
Zn159 O168 1.977 1_455 S
O160 Zn159 2.032 . S
O160 C164 1.278 . S
C161 O162 1.203 . S
C161 O168 1.267 . S
O162 C161 1.203 . S
O163 C156 1.185 . S
O163 Zn159 2.086 . S
C164 O160 1.278 . S
C164 O165 1.211 1_455 S
O165 C164 1.211 1_655 S
C166 O158 1.284 . S
C166 O167 1.273 1_455 S
O167 C166 1.273 1_655 S
O168 Zn159 1.977 1_655 S
O168 C161 1.267 . S
C169 O170 1.160 . S
C169 O176 1.185 . S
O170 C169 1.160 . S
O171 Zn172 1.899 1_655 S
O171 C179 1.282 1_655 S
Zn172 O171 1.899 1_455 S
Zn172 O173 2.024 1_455 S
Zn172 O176 2.066 1_455 S
Zn172 O181 1.999 . S
O173 Zn172 2.024 1_655 S
O173 C177 1.278 1_655 S
C174 O175 1.203 . S
C174 O181 1.267 . S
O175 C174 1.203 . S
O176 C169 1.185 . S
O176 Zn172 2.066 1_655 S
C177 O173 1.278 1_455 S
C177 O178 1.211 . S
O178 C177 1.211 . S
C179 O171 1.282 1_455 S
C179 O180 1.273 . S
O180 C179 1.273 . S
O181 Zn172 1.999 . S
O181 C174 1.267 . S
C182 O183 1.160 . S
C182 O189 1.185 . S
O183 C182 1.160 . S
O184 Zn185 1.899 . S
O184 C192 1.284 . S
Zn185 O184 1.899 . S
Zn185 O186 2.032 . S
Zn185 O189 2.086 . S
Zn185 O194 1.977 . S
O186 Zn185 2.032 . S
O186 C190 1.278 . S
C187 O188 1.203 . S
C187 O194 1.267 . S
O188 C187 1.203 . S
O189 C182 1.185 . S
O189 Zn185 2.086 . S
C190 O186 1.278 . S
C190 O191 1.211 . S
O191 C190 1.211 . S
C192 O184 1.284 . S
C192 O193 1.273 . S
O193 C192 1.273 . S
O194 Zn185 1.977 . S
O194 C187 1.267 . S
C195 O196 1.160 . S
C195 O202 1.185 . S
O196 C195 1.160 . S
O197 Zn198 1.899 . S
O197 C205 1.284 . S
Zn198 O197 1.899 . S
Zn198 O199 2.032 . S
Zn198 O202 2.086 . S
Zn198 O207 1.977 . S
O199 Zn198 2.032 . S
O199 C203 1.278 . S
C200 O201 1.203 . S
C200 O207 1.267 . S
O201 C200 1.203 . S
O202 C195 1.185 . S
O202 Zn198 2.086 . S
C203 O199 1.278 . S
C203 O204 1.211 . S
O204 C203 1.211 . S
C205 O197 1.284 . S
C205 O206 1.273 . S
O206 C205 1.273 . S
O207 Zn198 1.977 . S
O207 C200 1.267 . S
C208 O209 1.160 . S
C208 O215 1.185 . S
O209 C208 1.160 . S
O210 Zn211 1.899 . S
O210 C218 1.282 1_545 S
Zn211 O210 1.899 . S
Zn211 O212 2.032 . S
Zn211 O215 2.086 . S
Zn211 O220 1.977 1_545 S
O212 Zn211 2.032 . S
O212 C216 1.278 1_545 S
C213 O214 1.203 . S
C213 O220 1.267 . S
O214 C213 1.203 . S
O215 C208 1.185 . S
O215 Zn211 2.086 . S
C216 O212 1.278 1_565 S
C216 O217 1.211 . S
O217 C216 1.211 . S
C218 O210 1.282 1_565 S
C218 O219 1.276 . S
O219 C218 1.276 . S
O220 Zn211 1.977 1_565 S
O220 C213 1.267 . S
C221 O222 1.160 . S
C221 O228 1.185 . S
O222 C221 1.160 . S
O223 Zn224 1.899 . S
O223 C231 1.284 . S
Zn224 O223 1.899 . S
Zn224 O225 2.032 . S
Zn224 O228 2.086 . S
Zn224 O233 1.977 . S
O225 Zn224 2.032 . S
O225 C229 1.278 . S
C226 O227 1.203 . S
C226 O233 1.267 . S
O227 C226 1.203 . S
O228 C221 1.185 . S
O228 Zn224 2.086 . S
C229 O225 1.278 . S
C229 O230 1.211 . S
O230 C229 1.211 . S
C231 O223 1.284 . S
C231 O232 1.273 . S
O232 C231 1.273 . S
O233 Zn224 1.977 . S
O233 C226 1.267 . S
C234 O235 1.160 . S
C234 O241 1.185 . S
O235 C234 1.160 . S
O236 Zn237 1.899 1_565 S
O236 C244 1.283 1_565 S
Zn237 O236 1.899 1_545 S
Zn237 O238 2.021 1_545 S
Zn237 O241 2.055 1_545 S
Zn237 O246 2.012 . S
O238 Zn237 2.021 1_565 S
O238 C242 1.278 1_565 S
C239 O240 1.203 . S
C239 O246 1.267 . S
O240 C239 1.203 . S
O241 C234 1.185 . S
O241 Zn237 2.055 1_565 S
C242 O238 1.278 1_545 S
C242 O243 1.211 . S
O243 C242 1.211 . S
C244 O236 1.283 1_545 S
C244 O245 1.273 . S
O245 C244 1.273 . S
O246 Zn237 2.012 . S
O246 C239 1.267 . S
C247 O248 1.160 . S
C247 O254 1.185 . S
O248 C247 1.160 . S
O249 Zn250 1.899 . S
O249 C257 1.284 . S
Zn250 O249 1.899 . S
Zn250 O251 2.032 1_554 S
Zn250 O254 2.086 . S
Zn250 O259 1.977 . S
O251 Zn250 2.032 1_556 S
O251 C255 1.278 . S
C252 O253 1.203 . S
C252 O259 1.267 . S
O253 C252 1.203 . S
O254 C247 1.185 . S
O254 Zn250 2.086 . S
C255 O251 1.278 . S
C255 O256 1.211 . S
O256 C255 1.211 . S
C257 O249 1.284 . S
C257 O258 1.273 . S
O258 C257 1.273 . S
O259 Zn250 1.977 . S
O259 C252 1.267 . S
C260 O261 1.160 . S
C260 O267 1.185 1_554 S
O261 C260 1.160 . S
O262 Zn263 1.899 . S
O262 C270 1.284 . S
Zn263 O262 1.899 . S
Zn263 O264 2.032 1_554 S
Zn263 O267 2.086 1_554 S
Zn263 O272 1.977 1_554 S
O264 Zn263 2.032 1_556 S
O264 C268 1.278 . S
C265 O266 1.203 . S
C265 O272 1.267 1_554 S
O266 C265 1.203 . S
O267 C260 1.185 1_556 S
O267 Zn263 2.086 1_556 S
C268 O264 1.278 . S
C268 O269 1.211 . S
O269 C268 1.211 . S
C270 O262 1.284 . S
C270 O271 1.273 . S
O271 C270 1.273 . S
O272 Zn263 1.977 1_556 S
O272 C265 1.267 1_556 S
C273 O274 1.160 . S
C273 O280 1.185 . S
O274 C273 1.160 . S
O275 Zn276 1.899 . S
O275 C283 1.284 . S
Zn276 O275 1.899 . S
Zn276 O277 2.032 . S
Zn276 O280 2.086 . S
Zn276 O285 1.977 . S
O277 Zn276 2.032 . S
O277 C281 1.278 . S
C278 O279 1.203 . S
C278 O285 1.267 . S
O279 C278 1.203 . S
O280 C273 1.185 . S
O280 Zn276 2.086 . S
C281 O277 1.278 . S
C281 O282 1.211 . S
O282 C281 1.211 . S
C283 O275 1.284 . S
C283 O284 1.273 . S
O284 C283 1.273 . S
O285 Zn276 1.977 . S
O285 C278 1.267 . S
C286 O287 1.160 . S
C286 O293 1.185 . S
O287 C286 1.160 . S
O288 Zn289 1.899 . S
O288 C296 1.284 . S
Zn289 O288 1.899 . S
Zn289 O290 2.032 . S
Zn289 O293 2.086 . S
Zn289 O298 1.977 . S
O290 Zn289 2.032 . S
O290 C294 1.278 . S
C291 O292 1.203 . S
C291 O298 1.267 . S
O292 C291 1.203 . S
O293 C286 1.185 . S
O293 Zn289 2.086 . S
C294 O290 1.278 . S
C294 O295 1.211 . S
O295 C294 1.211 . S
C296 O288 1.284 . S
C296 O297 1.273 . S
O297 C296 1.273 . S
O298 Zn289 1.977 . S
O298 C291 1.267 . S
C299 O300 1.160 . S
C299 O306 1.185 . S
O300 C299 1.160 . S
O301 Zn302 1.899 . S
O301 C309 1.284 . S
Zn302 O301 1.899 . S
Zn302 O303 2.032 . S
Zn302 O306 2.086 . S
Zn302 O311 1.977 . S
O303 Zn302 2.032 . S
O303 C307 1.278 . S
C304 O305 1.203 . S
C304 O311 1.267 . S
O305 C304 1.203 . S
O306 C299 1.185 . S
O306 Zn302 2.086 . S
C307 O303 1.278 . S
C307 O308 1.211 . S
O308 C307 1.211 . S
C309 O301 1.284 . S
C309 O310 1.273 . S
O310 C309 1.273 . S
O311 Zn302 1.977 . S
O311 C304 1.267 . S
O312 Mg313 1.990 . S
O312 C326 1.253 . S
Mg313 O312 1.990 . S
Mg313 O316 2.180 1_556 S
Mg313 O317 2.117 1_556 S
Mg313 O331 2.025 1_556 S
O314 Mg315 2.072 1_656 S
O314 C326 1.260 . S
Mg315 O314 2.072 1_454 S
Mg315 O316 2.099 1_455 S
Mg315 O318 2.079 1_545 S
Mg315 O319 2.072 . S
Mg315 O321 2.106 1_545 S
Mg315 O332 2.079 1_445 S
O316 Mg313 2.180 1_554 S
O316 Mg315 2.099 1_655 S
O316 C327 1.279 . S
O317 Mg313 2.117 1_554 S
O317 C327 1.250 . S
O318 Mg315 2.079 1_565 S
O318 C328 1.264 . S
O319 Mg315 2.072 . S
O319 C329 1.260 1_554 S
Mg320 O321 2.191 . S
Mg320 O322 2.030 . S
Mg320 O323 2.014 1_554 S
Mg320 O324 2.117 1_554 S
O321 Mg315 2.106 1_565 S
O321 Mg320 2.191 . S
O321 C330 1.253 1_554 S
O322 Mg320 2.030 . S
O322 C328 1.248 . S
O323 Mg320 2.014 1_556 S
O323 C329 1.228 1_565 S
O324 Mg320 2.117 1_556 S
O324 C330 1.250 . S
C325 O331 1.269 1_565 S
C325 O332 1.264 . S
C326 O312 1.253 . S
C326 O314 1.260 . S
C327 O316 1.279 . S
C327 O317 1.250 . S
C328 O318 1.264 . S
C328 O322 1.248 . S
C329 O319 1.260 1_556 S
C329 O323 1.228 1_545 S
C330 O321 1.253 1_556 S
C330 O324 1.250 . S
O331 Mg313 2.025 1_554 S
O331 C325 1.269 1_545 S
O332 Mg315 2.079 1_665 S
O332 C325 1.264 . S
O333 Mg334 1.990 . S
O333 C347 1.253 . S
Mg334 O333 1.990 . S
Mg334 O337 2.180 . S
Mg334 O338 2.117 . S
Mg334 O352 2.030 . S
O335 Mg336 2.072 . S
O335 C347 1.260 . S
Mg336 O335 2.072 . S
Mg336 O337 2.099 . S
Mg336 O339 2.079 . S
Mg336 O340 2.072 . S
Mg336 O342 2.099 . S
Mg336 O353 2.079 . S
O337 Mg334 2.180 . S
O337 Mg336 2.099 . S
O337 C348 1.279 . S
O338 Mg334 2.117 . S
O338 C348 1.250 . S
O339 Mg336 2.079 . S
O339 C349 1.264 . S
O340 Mg336 2.072 . S
O340 C350 1.260 . S
Mg341 O342 2.180 . S
Mg341 O343 2.030 . S
Mg341 O344 1.990 . S
Mg341 O345 2.117 . S
O342 Mg336 2.099 . S
O342 Mg341 2.180 . S
O342 C351 1.279 . S
O343 Mg341 2.030 . S
O343 C349 1.248 . S
O344 Mg341 1.990 . S
O344 C350 1.253 . S
O345 Mg341 2.117 . S
O345 C351 1.250 . S
C346 O352 1.248 . S
C346 O353 1.264 . S
C347 O333 1.253 . S
C347 O335 1.260 . S
C348 O337 1.279 . S
C348 O338 1.250 . S
C349 O339 1.264 . S
C349 O343 1.248 . S
C350 O340 1.260 . S
C350 O344 1.253 . S
C351 O342 1.279 . S
C351 O345 1.250 . S
O352 Mg334 2.030 . S
O352 C346 1.248 . S
O353 Mg336 2.079 . S
O353 C346 1.264 . S
O354 Mg355 1.990 . S
O354 C368 1.253 . S
Mg355 O354 1.990 . S
Mg355 O358 2.180 . S
Mg355 O359 2.117 . S
Mg355 O373 2.030 1_565 S
O356 Mg357 2.072 . S
O356 C368 1.260 1_545 S
Mg357 O356 2.072 . S
Mg357 O358 2.099 1_545 S
Mg357 O360 2.079 . S
Mg357 O361 2.072 1_545 S
Mg357 O363 2.099 . S
Mg357 O374 2.079 . S
O358 Mg355 2.180 . S
O358 Mg357 2.099 1_565 S
O358 C369 1.279 . S
O359 Mg355 2.117 . S
O359 C369 1.250 . S
O360 Mg357 2.079 . S
O360 C370 1.264 . S
O361 Mg357 2.072 1_565 S
O361 C371 1.260 . S
Mg362 O363 2.180 . S
Mg362 O364 2.030 . S
Mg362 O365 1.990 . S
Mg362 O366 2.117 . S
O363 Mg357 2.099 . S
O363 Mg362 2.180 . S
O363 C372 1.279 . S
O364 Mg362 2.030 . S
O364 C370 1.248 . S
O365 Mg362 1.990 . S
O365 C371 1.253 1_545 S
O366 Mg362 2.117 . S
O366 C372 1.250 . S
C367 O373 1.248 . S
C367 O374 1.264 . S
C368 O354 1.253 . S
C368 O356 1.260 1_565 S
C369 O358 1.279 . S
C369 O359 1.250 . S
C370 O360 1.264 . S
C370 O364 1.248 . S
C371 O361 1.260 . S
C371 O365 1.253 1_565 S
C372 O363 1.279 . S
C372 O366 1.250 . S
O373 Mg355 2.030 1_545 S
O373 C367 1.248 . S
O374 Mg357 2.079 . S
O374 C367 1.264 . S
O375 Mg376 1.990 . S
O375 C389 1.253 . S
Mg376 O375 1.990 . S
Mg376 O379 2.180 . S
Mg376 O380 2.117 . S
Mg376 O394 2.030 . S
O377 Mg378 2.072 . S
O377 C389 1.260 . S
Mg378 O377 2.072 . S
Mg378 O379 2.099 . S
Mg378 O381 2.079 . S
Mg378 O382 2.072 . S
Mg378 O384 2.099 . S
Mg378 O395 2.079 . S
O379 Mg376 2.180 . S
O379 Mg378 2.099 . S
O379 C390 1.279 . S
O380 Mg376 2.117 . S
O380 C390 1.250 . S
O381 Mg378 2.079 . S
O381 C391 1.264 . S
O382 Mg378 2.072 . S
O382 C392 1.260 . S
Mg383 O384 2.180 . S
Mg383 O385 2.030 . S
Mg383 O386 1.990 . S
Mg383 O387 2.117 . S
O384 Mg378 2.099 . S
O384 Mg383 2.180 . S
O384 C393 1.279 . S
O385 Mg383 2.030 . S
O385 C391 1.248 . S
O386 Mg383 1.990 . S
O386 C392 1.253 . S
O387 Mg383 2.117 . S
O387 C393 1.250 . S
C388 O394 1.248 . S
C388 O395 1.264 . S
C389 O375 1.253 . S
C389 O377 1.260 . S
C390 O379 1.279 . S
C390 O380 1.250 . S
C391 O381 1.264 . S
C391 O385 1.248 . S
C392 O382 1.260 . S
C392 O386 1.253 . S
C393 O384 1.279 . S
C393 O387 1.250 . S
O394 Mg376 2.030 . S
O394 C388 1.248 . S
O395 Mg378 2.079 . S
O395 C388 1.264 . S
O396 Mg397 1.990 1_655 S
O396 C410 1.253 . S
Mg397 O396 1.990 1_455 S
Mg397 O400 2.180 . S
Mg397 O401 2.117 1_455 S
Mg397 O415 2.030 . S
O398 Mg399 2.072 1_565 S
O398 C410 1.260 1_455 S
Mg399 O398 2.072 1_545 S
Mg399 O400 2.099 1_545 S
Mg399 O402 2.079 . S
Mg399 O403 2.072 1_455 S
Mg399 O405 2.099 . S
Mg399 O416 2.079 1_545 S
O400 Mg397 2.180 . S
O400 Mg399 2.099 1_565 S
O400 C411 1.279 1_455 S
O401 Mg397 2.117 1_655 S
O401 C411 1.250 . S
O402 Mg399 2.079 . S
O402 C412 1.264 . S
O403 Mg399 2.072 1_655 S
O403 C413 1.260 . S
Mg404 O405 2.156 1_655 S
Mg404 O406 2.027 1_655 S
Mg404 O407 2.034 . S
Mg404 O408 2.106 1_655 S
O405 Mg399 2.099 . S
O405 Mg404 2.156 1_455 S
O405 C414 1.279 . S
O406 Mg404 2.027 1_455 S
O406 C412 1.248 . S
O407 Mg404 2.034 . S
O407 C413 1.253 . S
O408 Mg404 2.106 1_455 S
O408 C414 1.250 . S
C409 O415 1.248 . S
C409 O416 1.264 . S
C410 O396 1.253 . S
C410 O398 1.260 1_655 S
C411 O400 1.279 1_655 S
C411 O401 1.250 . S
C412 O402 1.264 . S
C412 O406 1.248 . S
C413 O403 1.260 . S
C413 O407 1.253 . S
C414 O405 1.279 . S
C414 O408 1.250 . S
O415 Mg397 2.030 . S
O415 C409 1.248 . S
O416 Mg399 2.079 1_565 S
O416 C409 1.264 . S
O417 Mg418 1.990 . S
O417 C431 1.253 . S
Mg418 O417 1.990 . S
Mg418 O421 2.180 . S
Mg418 O422 2.117 . S
Mg418 O436 2.030 . S
O419 Mg420 2.072 . S
O419 C431 1.260 . S
Mg420 O419 2.072 . S
Mg420 O421 2.099 . S
Mg420 O423 2.079 . S
Mg420 O424 2.072 . S
Mg420 O426 2.099 . S
Mg420 O437 2.079 . S
O421 Mg418 2.180 . S
O421 Mg420 2.099 . S
O421 C432 1.279 . S
O422 Mg418 2.117 . S
O422 C432 1.250 . S
O423 Mg420 2.079 . S
O423 C433 1.264 . S
O424 Mg420 2.072 . S
O424 C434 1.260 . S
Mg425 O426 2.180 . S
Mg425 O427 2.030 . S
Mg425 O428 1.990 . S
Mg425 O429 2.117 . S
O426 Mg420 2.099 . S
O426 Mg425 2.180 . S
O426 C435 1.279 . S
O427 Mg425 2.030 . S
O427 C433 1.248 . S
O428 Mg425 1.990 . S
O428 C434 1.253 . S
O429 Mg425 2.117 . S
O429 C435 1.250 . S
C430 O436 1.248 . S
C430 O437 1.264 . S
C431 O417 1.253 . S
C431 O419 1.260 . S
C432 O421 1.279 . S
C432 O422 1.250 . S
C433 O423 1.264 . S
C433 O427 1.248 . S
C434 O424 1.260 . S
C434 O428 1.253 . S
C435 O426 1.279 . S
C435 O429 1.250 . S
O436 Mg418 2.030 . S
O436 C430 1.248 . S
O437 Mg420 2.079 . S
O437 C430 1.264 . S
O438 Mg439 1.990 . S
O438 C452 1.253 . S
Mg439 O438 1.990 . S
Mg439 O442 2.180 1_565 S
Mg439 O443 2.117 1_565 S
Mg439 O457 2.029 1_565 S
O440 Mg441 2.072 1_565 S
O440 C452 1.260 . S
Mg441 O440 2.072 1_545 S
Mg441 O442 2.099 . S
Mg441 O444 2.079 1_554 S
Mg441 O445 2.072 1_554 S
Mg441 O447 2.099 1_554 S
Mg441 O458 2.079 . S
O442 Mg439 2.180 1_545 S
O442 Mg441 2.099 . S
O442 C453 1.279 . S
O443 Mg439 2.117 1_545 S
O443 C453 1.250 . S
O444 Mg441 2.079 1_556 S
O444 C454 1.264 . S
O445 Mg441 2.072 1_556 S
O445 C455 1.260 1_545 S
Mg446 O447 2.180 . S
Mg446 O448 2.030 . S
Mg446 O449 1.990 1_545 S
Mg446 O450 2.117 1_545 S
O447 Mg441 2.099 1_556 S
O447 Mg446 2.180 . S
O447 C456 1.279 1_545 S
O448 Mg446 2.030 . S
O448 C454 1.248 . S
O449 Mg446 1.990 1_565 S
O449 C455 1.253 . S
O450 Mg446 2.117 1_565 S
O450 C456 1.250 . S
C451 O457 1.250 . S
C451 O458 1.264 . S
C452 O438 1.253 . S
C452 O440 1.260 . S
C453 O442 1.279 . S
C453 O443 1.250 . S
C454 O444 1.264 . S
C454 O448 1.248 . S
C455 O445 1.260 1_565 S
C455 O449 1.253 . S
C456 O447 1.279 1_565 S
C456 O450 1.250 . S
O457 Mg439 2.029 1_545 S
O457 C451 1.250 . S
O458 Mg441 2.079 . S
O458 C451 1.264 . S
O459 Mg460 1.990 . S
O459 C473 1.253 . S
Mg460 O459 1.990 . S
Mg460 O463 2.180 . S
Mg460 O464 2.117 . S
Mg460 O478 2.030 . S
O461 Mg462 2.072 . S
O461 C473 1.260 . S
Mg462 O461 2.072 . S
Mg462 O463 2.099 . S
Mg462 O465 2.079 . S
Mg462 O466 2.072 . S
Mg462 O468 2.099 . S
Mg462 O479 2.079 . S
O463 Mg460 2.180 . S
O463 Mg462 2.099 . S
O463 C474 1.279 . S
O464 Mg460 2.117 . S
O464 C474 1.250 . S
O465 Mg462 2.079 . S
O465 C475 1.264 . S
O466 Mg462 2.072 . S
O466 C476 1.260 . S
Mg467 O468 2.180 . S
Mg467 O469 2.030 . S
Mg467 O470 1.990 . S
Mg467 O471 2.117 . S
O468 Mg462 2.099 . S
O468 Mg467 2.180 . S
O468 C477 1.279 . S
O469 Mg467 2.030 . S
O469 C475 1.248 . S
O470 Mg467 1.990 . S
O470 C476 1.253 . S
O471 Mg467 2.117 . S
O471 C477 1.250 . S
C472 O478 1.248 . S
C472 O479 1.264 . S
C473 O459 1.253 . S
C473 O461 1.260 . S
C474 O463 1.279 . S
C474 O464 1.250 . S
C475 O465 1.264 . S
C475 O469 1.248 . S
C476 O466 1.260 . S
C476 O470 1.253 . S
C477 O468 1.279 . S
C477 O471 1.250 . S
O478 Mg460 2.030 . S
O478 C472 1.248 . S
O479 Mg462 2.079 . S
O479 C472 1.264 . S
O480 Mg481 1.990 . S
O480 C494 1.253 . S
Mg481 O480 1.990 . S
Mg481 O484 2.180 . S
Mg481 O485 2.117 . S
Mg481 O499 2.030 . S
O482 Mg483 2.074 . S
O482 C494 1.248 1_554 S
Mg483 O482 2.074 . S
Mg483 O484 2.099 1_554 S
Mg483 O486 2.079 . S
Mg483 O487 2.072 1_554 S
Mg483 O489 2.099 . S
Mg483 O500 2.079 . S
O484 Mg481 2.180 . S
O484 Mg483 2.099 1_556 S
O484 C495 1.279 . S
O485 Mg481 2.117 . S
O485 C495 1.250 . S
O486 Mg483 2.079 . S
O486 C496 1.264 . S
O487 Mg483 2.072 1_556 S
O487 C497 1.260 . S
Mg488 O489 2.180 . S
Mg488 O490 2.030 . S
Mg488 O491 1.990 . S
Mg488 O492 2.117 . S
O489 Mg483 2.099 . S
O489 Mg488 2.180 . S
O489 C498 1.279 . S
O490 Mg488 2.030 . S
O490 C496 1.248 . S
O491 Mg488 1.990 . S
O491 C497 1.253 1_554 S
O492 Mg488 2.117 . S
O492 C498 1.250 . S
C493 O499 1.248 1_554 S
C493 O500 1.264 . S
C494 O480 1.253 . S
C494 O482 1.248 1_556 S
C495 O484 1.279 . S
C495 O485 1.250 . S
C496 O486 1.264 . S
C496 O490 1.248 . S
C497 O487 1.260 . S
C497 O491 1.253 1_556 S
C498 O489 1.279 . S
C498 O492 1.250 . S
O499 Mg481 2.030 . S
O499 C493 1.248 1_556 S
O500 Mg483 2.079 . S
O500 C493 1.264 . S
O501 Mg502 1.990 . S
O501 C515 1.253 . S
Mg502 O501 1.990 . S
Mg502 O505 2.180 . S
Mg502 O506 2.117 . S
Mg502 O520 2.030 . S
O503 Mg504 2.072 . S
O503 C515 1.260 . S
Mg504 O503 2.072 . S
Mg504 O505 2.099 . S
Mg504 O507 2.079 . S
Mg504 O508 2.072 . S
Mg504 O510 2.099 . S
Mg504 O521 2.079 . S
O505 Mg502 2.180 . S
O505 Mg504 2.099 . S
O505 C516 1.279 . S
O506 Mg502 2.117 . S
O506 C516 1.250 . S
O507 Mg504 2.079 . S
O507 C517 1.264 . S
O508 Mg504 2.072 . S
O508 C518 1.260 . S
Mg509 O510 2.180 . S
Mg509 O511 2.030 . S
Mg509 O512 1.990 . S
Mg509 O513 2.117 . S
O510 Mg504 2.099 . S
O510 Mg509 2.180 . S
O510 C519 1.279 . S
O511 Mg509 2.030 . S
O511 C517 1.248 . S
O512 Mg509 1.990 . S
O512 C518 1.253 . S
O513 Mg509 2.117 . S
O513 C519 1.250 . S
C514 O520 1.248 . S
C514 O521 1.264 . S
C515 O501 1.253 . S
C515 O503 1.260 . S
C516 O505 1.279 . S
C516 O506 1.250 . S
C517 O507 1.264 . S
C517 O511 1.248 . S
C518 O508 1.260 . S
C518 O512 1.253 . S
C519 O510 1.279 . S
C519 O513 1.250 . S
O520 Mg502 2.030 . S
O520 C514 1.248 . S
O521 Mg504 2.079 . S
O521 C514 1.264 . S
O522 Mg523 1.990 . S
O522 C536 1.253 . S
Mg523 O522 1.990 . S
Mg523 O526 2.180 . S
Mg523 O527 2.117 . S
Mg523 O541 2.055 . S
O524 Mg525 2.072 . S
O524 C536 1.260 1_455 S
Mg525 O524 2.072 . S
Mg525 O526 2.099 1_455 S
Mg525 O528 2.079 . S
Mg525 O529 2.072 1_455 S
Mg525 O531 2.099 . S
Mg525 O542 2.079 . S
O526 Mg523 2.180 . S
O526 Mg525 2.099 1_655 S
O526 C537 1.279 . S
O527 Mg523 2.117 . S
O527 C537 1.250 . S
O528 Mg525 2.079 . S
O528 C538 1.264 . S
O529 Mg525 2.072 1_655 S
O529 C539 1.260 . S
Mg530 O531 2.180 . S
Mg530 O532 2.030 . S
Mg530 O533 1.990 . S
Mg530 O534 2.117 . S
O531 Mg525 2.099 . S
O531 Mg530 2.180 . S
O531 C540 1.279 . S
O532 Mg530 2.030 . S
O532 C538 1.248 . S
O533 Mg530 1.990 . S
O533 C539 1.253 1_455 S
O534 Mg530 2.117 . S
O534 C540 1.250 . S
C535 O541 1.226 1_455 S
C535 O542 1.264 . S
C536 O522 1.253 . S
C536 O524 1.260 1_655 S
C537 O526 1.279 . S
C537 O527 1.250 . S
C538 O528 1.264 . S
C538 O532 1.248 . S
C539 O529 1.260 . S
C539 O533 1.253 1_655 S
C540 O531 1.279 . S
C540 O534 1.250 . S
O541 Mg523 2.055 . S
O541 C535 1.226 1_655 S
O542 Mg525 2.079 . S
O542 C535 1.264 . S
O543 Mg544 1.990 . S
O543 C557 1.253 . S
Mg544 O543 1.990 . S
Mg544 O547 2.180 . S
Mg544 O548 2.117 . S
Mg544 O562 2.030 . S
O545 Mg546 2.072 . S
O545 C557 1.260 . S
Mg546 O545 2.072 . S
Mg546 O547 2.099 . S
Mg546 O549 2.079 . S
Mg546 O550 2.072 . S
Mg546 O552 2.099 . S
Mg546 O563 2.079 . S
O547 Mg544 2.180 . S
O547 Mg546 2.099 . S
O547 C558 1.279 . S
O548 Mg544 2.117 . S
O548 C558 1.250 . S
O549 Mg546 2.079 . S
O549 C559 1.264 . S
O550 Mg546 2.072 . S
O550 C560 1.260 . S
Mg551 O552 2.180 . S
Mg551 O553 2.030 . S
Mg551 O554 1.990 . S
Mg551 O555 2.117 . S
O552 Mg546 2.099 . S
O552 Mg551 2.180 . S
O552 C561 1.279 . S
O553 Mg551 2.030 . S
O553 C559 1.248 . S
O554 Mg551 1.990 . S
O554 C560 1.253 . S
O555 Mg551 2.117 . S
O555 C561 1.250 . S
C556 O562 1.248 . S
C556 O563 1.264 . S
C557 O543 1.253 . S
C557 O545 1.260 . S
C558 O547 1.279 . S
C558 O548 1.250 . S
C559 O549 1.264 . S
C559 O553 1.248 . S
C560 O550 1.260 . S
C560 O554 1.253 . S
C561 O552 1.279 . S
C561 O555 1.250 . S
O562 Mg544 2.030 . S
O562 C556 1.248 . S
O563 Mg546 2.079 . S
O563 C556 1.264 . S
O564 Mg565 1.990 . S
O564 C578 1.253 . S
Mg565 O564 1.990 . S
Mg565 O568 2.180 . S
Mg565 O569 2.117 . S
Mg565 O583 2.030 . S
O566 Mg567 2.072 . S
O566 C578 1.260 . S
Mg567 O566 2.072 . S
Mg567 O568 2.099 . S
Mg567 O570 2.079 . S
Mg567 O571 2.072 . S
Mg567 O573 2.099 . S
Mg567 O584 2.079 . S
O568 Mg565 2.180 . S
O568 Mg567 2.099 . S
O568 C579 1.279 . S
O569 Mg565 2.117 . S
O569 C579 1.250 . S
O570 Mg567 2.079 . S
O570 C580 1.264 . S
O571 Mg567 2.072 . S
O571 C581 1.260 . S
Mg572 O573 2.180 . S
Mg572 O574 2.030 . S
Mg572 O575 1.990 . S
Mg572 O576 2.117 . S
O573 Mg567 2.099 . S
O573 Mg572 2.180 . S
O573 C582 1.279 . S
O574 Mg572 2.030 . S
O574 C580 1.248 . S
O575 Mg572 1.990 . S
O575 C581 1.253 . S
O576 Mg572 2.117 . S
O576 C582 1.250 . S
C577 O583 1.248 . S
C577 O584 1.264 . S
C578 O564 1.253 . S
C578 O566 1.260 . S
C579 O568 1.279 . S
C579 O569 1.250 . S
C580 O570 1.264 . S
C580 O574 1.248 . S
C581 O571 1.260 . S
C581 O575 1.253 . S
C582 O573 1.279 . S
C582 O576 1.250 . S
O583 Mg565 2.030 . S
O583 C577 1.248 . S
O584 Mg567 2.079 . S
O584 C577 1.264 . S
O585 Mg586 1.990 . S
O585 C599 1.253 . S
Mg586 O585 1.990 . S
Mg586 O589 2.180 . S
Mg586 O590 2.117 . S
Mg586 O604 2.030 . S
O587 Mg588 2.072 . S
O587 C599 1.260 . S
Mg588 O587 2.072 . S
Mg588 O589 2.099 . S
Mg588 O591 2.079 . S
Mg588 O592 2.072 . S
Mg588 O594 2.099 . S
Mg588 O605 2.079 . S
O589 Mg586 2.180 . S
O589 Mg588 2.099 . S
O589 C600 1.279 . S
O590 Mg586 2.117 . S
O590 C600 1.250 . S
O591 Mg588 2.079 . S
O591 C601 1.264 . S
O592 Mg588 2.072 . S
O592 C602 1.260 . S
Mg593 O594 2.180 . S
Mg593 O595 2.030 . S
Mg593 O596 1.990 . S
Mg593 O597 2.117 . S
O594 Mg588 2.099 . S
O594 Mg593 2.180 . S
O594 C603 1.279 . S
O595 Mg593 2.030 . S
O595 C601 1.248 . S
O596 Mg593 1.990 . S
O596 C602 1.253 . S
O597 Mg593 2.117 . S
O597 C603 1.250 . S
C598 O604 1.248 . S
C598 O605 1.264 . S
C599 O585 1.253 . S
C599 O587 1.260 . S
C600 O589 1.279 . S
C600 O590 1.250 . S
C601 O591 1.264 . S
C601 O595 1.248 . S
C602 O592 1.260 . S
C602 O596 1.253 . S
C603 O594 1.279 . S
C603 O597 1.250 . S
O604 Mg586 2.030 . S
O604 C598 1.248 . S
O605 Mg588 2.079 . S
O605 C598 1.264 . S
O606 Mg607 1.990 . S
O606 C620 1.253 . S
Mg607 O606 1.990 . S
Mg607 O610 2.180 . S
Mg607 O611 2.117 . S
Mg607 O625 2.030 . S
O608 Mg609 2.072 . S
O608 C620 1.260 . S
Mg609 O608 2.072 . S
Mg609 O610 2.099 . S
Mg609 O612 2.079 . S
Mg609 O613 2.072 . S
Mg609 O615 2.099 . S
Mg609 O626 2.079 . S
O610 Mg607 2.180 . S
O610 Mg609 2.099 . S
O610 C621 1.279 . S
O611 Mg607 2.117 . S
O611 C621 1.250 . S
O612 Mg609 2.079 . S
O612 C622 1.264 . S
O613 Mg609 2.072 . S
O613 C623 1.260 . S
Mg614 O615 2.180 . S
Mg614 O616 2.030 . S
Mg614 O617 1.990 . S
Mg614 O618 2.117 . S
O615 Mg609 2.099 . S
O615 Mg614 2.180 . S
O615 C624 1.279 . S
O616 Mg614 2.030 . S
O616 C622 1.248 . S
O617 Mg614 1.990 . S
O617 C623 1.253 . S
O618 Mg614 2.117 . S
O618 C624 1.250 . S
C619 O625 1.248 . S
C619 O626 1.264 . S
C620 O606 1.253 . S
C620 O608 1.260 . S
C621 O610 1.279 . S
C621 O611 1.250 . S
C622 O612 1.264 . S
C622 O616 1.248 . S
C623 O613 1.260 . S
C623 O617 1.253 . S
C624 O615 1.279 . S
C624 O618 1.250 . S
O625 Mg607 2.030 . S
O625 C619 1.248 . S
O626 Mg609 2.079 . S
O626 C619 1.264 . S
O627 Mg628 1.990 . S
O627 C641 1.253 . S
Mg628 O627 1.990 . S
Mg628 O631 2.180 1_556 S
Mg628 O632 2.117 1_556 S
Mg628 O646 2.030 . S
O629 Mg630 2.072 1_556 S
O629 C641 1.260 . S
Mg630 O629 2.072 1_554 S
Mg630 O631 2.099 . S
Mg630 O633 2.079 1_455 S
Mg630 O634 2.073 1_455 S
Mg630 O636 2.098 1_454 S
Mg630 O647 2.079 . S
O631 Mg628 2.180 1_554 S
O631 Mg630 2.099 . S
O631 C642 1.279 . S
O632 Mg628 2.117 1_554 S
O632 C642 1.250 . S
O633 Mg630 2.079 1_655 S
O633 C643 1.264 . S
O634 Mg630 2.073 1_655 S
O634 C644 1.260 1_554 S
Mg635 O636 2.178 1_554 S
Mg635 O637 2.030 . S
Mg635 O638 1.990 1_554 S
Mg635 O639 2.117 1_554 S
O636 Mg630 2.098 1_656 S
O636 Mg635 2.178 1_556 S
O636 C645 1.283 . S
O637 Mg635 2.030 . S
O637 C643 1.248 . S
O638 Mg635 1.990 1_556 S
O638 C644 1.253 . S
O639 Mg635 2.117 1_556 S
O639 C645 1.250 . S
C640 O646 1.245 1_554 S
C640 O647 1.264 . S
C641 O627 1.253 . S
C641 O629 1.260 . S
C642 O631 1.279 . S
C642 O632 1.250 . S
C643 O633 1.264 . S
C643 O637 1.248 . S
C644 O634 1.260 1_556 S
C644 O638 1.253 . S
C645 O636 1.283 . S
C645 O639 1.250 . S
O646 Mg628 2.030 . S
O646 C640 1.245 1_556 S
O647 Mg630 2.079 . S
O647 C640 1.264 . S
H648 C656 0.950 . S
H649 C661 0.950 . S
H650 C658 0.950 . S
H651 C660 0.950 . S
H652 C662 0.950 . S
H653 C664 0.950 . S
H654 C666 0.950 . S
H655 C667 0.950 . S
C656 H648 0.950 . S
C656 C657 1.386 1_655 S
C656 C658 1.391 . S
C657 C656 1.386 1_455 S
C657 C661 1.393 . S
C658 H650 0.950 . S
C658 C656 1.391 . S
C658 C659 1.400 1_655 S
C659 C658 1.400 1_455 S
C659 C660 1.398 . S
C659 C665 1.491 1_455 S
C660 H651 0.950 . S
C660 C659 1.398 . S
C660 C661 1.391 . S
C661 H649 0.950 . S
C661 C657 1.393 . S
C661 C660 1.391 . S
C662 H652 0.950 . S
C662 C663 1.386 1_455 S
C662 C664 1.391 . S
C663 C662 1.386 1_655 S
C663 C667 1.393 . S
C664 H653 0.950 . S
C664 C662 1.391 . S
C664 C665 1.401 1_455 S
C665 C659 1.491 1_655 S
C665 C664 1.401 1_655 S
C665 C666 1.397 . S
C666 H654 0.950 . S
C666 C665 1.397 . S
C666 C667 1.391 . S
C667 H655 0.950 . S
C667 C663 1.393 . S
C667 C666 1.391 . S
H668 C676 0.950 . S
H669 C681 0.950 . S
H670 C678 0.950 . S
H671 C680 0.950 . S
H672 C682 0.950 . S
H673 C684 0.950 . S
H674 C686 0.950 . S
H675 C687 0.950 . S
C676 H668 0.950 . S
C676 C677 1.386 . S
C676 C678 1.391 . S
C677 C676 1.386 . S
C677 C681 1.393 . S
C678 H670 0.950 . S
C678 C676 1.391 . S
C678 C679 1.400 . S
C679 C678 1.400 . S
C679 C680 1.398 . S
C679 C685 1.491 . S
C680 H671 0.950 . S
C680 C679 1.398 . S
C680 C681 1.391 . S
C681 H669 0.950 . S
C681 C677 1.393 . S
C681 C680 1.391 . S
C682 H672 0.950 . S
C682 C683 1.386 . S
C682 C684 1.391 . S
C683 C682 1.386 . S
C683 C687 1.393 . S
C684 H673 0.950 . S
C684 C682 1.391 . S
C684 C685 1.400 . S
C685 C679 1.491 . S
C685 C684 1.400 . S
C685 C686 1.398 . S
C686 H674 0.950 . S
C686 C685 1.398 . S
C686 C687 1.391 . S
C687 H675 0.950 . S
C687 C683 1.393 . S
C687 C686 1.391 . S
H688 C696 0.950 . S
H689 C701 0.950 . S
H690 C698 0.950 . S
H691 C700 0.950 . S
H692 C702 0.950 . S
H693 C704 0.950 . S
H694 C706 0.950 . S
H695 C707 0.950 . S
C696 H688 0.950 . S
C696 C697 1.386 . S
C696 C698 1.391 . S
C697 C696 1.386 . S
C697 C701 1.393 . S
C698 H690 0.950 . S
C698 C696 1.391 . S
C698 C699 1.400 . S
C699 C698 1.400 . S
C699 C700 1.398 . S
C699 C705 1.491 . S
C700 H691 0.950 . S
C700 C699 1.398 . S
C700 C701 1.391 . S
C701 H689 0.950 . S
C701 C697 1.393 . S
C701 C700 1.391 . S
C702 H692 0.950 . S
C702 C703 1.386 . S
C702 C704 1.391 . S
C703 C702 1.386 . S
C703 C707 1.393 . S
C704 H693 0.950 . S
C704 C702 1.391 . S
C704 C705 1.400 . S
C705 C699 1.491 . S
C705 C704 1.400 . S
C705 C706 1.398 . S
C706 H694 0.950 . S
C706 C705 1.398 . S
C706 C707 1.391 . S
C707 H695 0.950 . S
C707 C703 1.393 . S
C707 C706 1.391 . S
H708 C716 0.950 . S
H709 C721 0.950 . S
H710 C718 0.950 . S
H711 C720 0.950 . S
H712 C722 0.950 . S
H713 C724 0.950 . S
H714 C726 0.950 . S
H715 C727 0.950 . S
C716 H708 0.950 . S
C716 C717 1.386 . S
C716 C718 1.391 . S
C717 C716 1.386 . S
C717 C721 1.393 . S
C718 H710 0.950 . S
C718 C716 1.391 . S
C718 C719 1.400 . S
C719 C718 1.400 . S
C719 C720 1.398 . S
C719 C725 1.491 . S
C720 H711 0.950 . S
C720 C719 1.398 . S
C720 C721 1.391 . S
C721 H709 0.950 . S
C721 C717 1.393 . S
C721 C720 1.391 . S
C722 H712 0.950 . S
C722 C723 1.386 . S
C722 C724 1.391 . S
C723 C722 1.386 . S
C723 C727 1.393 . S
C724 H713 0.950 . S
C724 C722 1.391 . S
C724 C725 1.400 . S
C725 C719 1.491 . S
C725 C724 1.400 . S
C725 C726 1.398 . S
C726 H714 0.950 . S
C726 C725 1.398 . S
C726 C727 1.391 . S
C727 H715 0.950 . S
C727 C723 1.393 . S
C727 C726 1.391 . S
H728 C736 0.950 . S
H729 C741 0.950 . S
H730 C738 0.950 . S
H731 C740 0.950 . S
H732 C742 0.950 . S
H733 C744 0.950 . S
H734 C746 0.950 . S
H735 C747 0.950 . S
C736 H728 0.950 . S
C736 C737 1.386 1_655 S
C736 C738 1.391 . S
C737 C736 1.386 1_455 S
C737 C741 1.393 . S
C738 H730 0.950 . S
C738 C736 1.391 . S
C738 C739 1.400 1_655 S
C739 C738 1.400 1_455 S
C739 C740 1.398 . S
C739 C745 1.491 . S
C740 H731 0.950 . S
C740 C739 1.398 . S
C740 C741 1.391 . S
C741 H729 0.950 . S
C741 C737 1.393 . S
C741 C740 1.391 . S
C742 H732 0.950 . S
C742 C743 1.356 1_455 S
C742 C744 1.391 . S
C743 C742 1.356 1_655 S
C743 C747 1.421 . S
C744 H733 0.950 . S
C744 C742 1.391 . S
C744 C745 1.400 . S
C745 C739 1.491 . S
C745 C744 1.400 . S
C745 C746 1.398 1_455 S
C746 H734 0.950 . S
C746 C745 1.398 1_655 S
C746 C747 1.391 . S
C747 H735 0.950 . S
C747 C743 1.421 . S
C747 C746 1.391 . S
H748 C756 0.950 . S
H749 C761 0.950 . S
H750 C758 0.950 . S
H751 C760 0.950 . S
H752 C762 0.950 . S
H753 C764 0.950 . S
H754 C766 0.950 . S
H755 C767 0.950 . S
C756 H748 0.950 . S
C756 C757 1.386 . S
C756 C758 1.391 . S
C757 C756 1.386 . S
C757 C761 1.393 . S
C758 H750 0.950 . S
C758 C756 1.391 . S
C758 C759 1.400 . S
C759 C758 1.400 . S
C759 C760 1.398 . S
C759 C765 1.491 . S
C760 H751 0.950 . S
C760 C759 1.398 . S
C760 C761 1.391 . S
C761 H749 0.950 . S
C761 C757 1.393 . S
C761 C760 1.391 . S
C762 H752 0.950 . S
C762 C763 1.386 . S
C762 C764 1.391 . S
C763 C762 1.386 . S
C763 C767 1.393 . S
C764 H753 0.950 . S
C764 C762 1.391 . S
C764 C765 1.400 . S
C765 C759 1.491 . S
C765 C764 1.400 . S
C765 C766 1.398 . S
C766 H754 0.950 . S
C766 C765 1.398 . S
C766 C767 1.391 . S
C767 H755 0.950 . S
C767 C763 1.393 . S
C767 C766 1.391 . S
H768 C776 0.950 . S
H769 C781 0.950 . S
H770 C778 0.950 . S
H771 C780 0.950 . S
H772 C782 0.950 . S
H773 C784 0.950 . S
H774 C786 0.950 . S
H775 C787 0.950 . S
C776 H768 0.950 . S
C776 C777 1.386 . S
C776 C778 1.391 . S
C777 C776 1.386 . S
C777 C781 1.393 . S
C778 H770 0.950 . S
C778 C776 1.391 . S
C778 C779 1.400 . S
C779 C778 1.400 . S
C779 C780 1.398 . S
C779 C785 1.491 . S
C780 H771 0.950 . S
C780 C779 1.398 . S
C780 C781 1.391 . S
C781 H769 0.950 . S
C781 C777 1.393 . S
C781 C780 1.391 . S
C782 H772 0.950 . S
C782 C783 1.386 . S
C782 C784 1.391 . S
C783 C782 1.386 . S
C783 C787 1.393 . S
C784 H773 0.950 . S
C784 C782 1.391 . S
C784 C785 1.400 . S
C785 C779 1.491 . S
C785 C784 1.400 . S
C785 C786 1.398 . S
C786 H774 0.950 . S
C786 C785 1.398 . S
C786 C787 1.391 . S
C787 H775 0.950 . S
C787 C783 1.393 . S
C787 C786 1.391 . S
H788 C796 0.950 . S
H789 C801 0.950 . S
H790 C798 0.950 . S
H791 C800 0.950 . S
H792 C802 0.950 . S
H793 C804 0.950 . S
H794 C806 0.950 . S
H795 C807 0.950 . S
C796 H788 0.950 . S
C796 C797 1.386 . S
C796 C798 1.391 . S
C797 C796 1.386 . S
C797 C801 1.393 . S
C798 H790 0.950 . S
C798 C796 1.391 . S
C798 C799 1.400 . S
C799 C798 1.400 . S
C799 C800 1.398 . S
C799 C805 1.491 . S
C800 H791 0.950 . S
C800 C799 1.398 . S
C800 C801 1.391 . S
C801 H789 0.950 . S
C801 C797 1.393 . S
C801 C800 1.391 . S
C802 H792 0.950 . S
C802 C803 1.386 . S
C802 C804 1.391 . S
C803 C802 1.386 . S
C803 C807 1.393 . S
C804 H793 0.950 . S
C804 C802 1.391 . S
C804 C805 1.400 . S
C805 C799 1.491 . S
C805 C804 1.400 . S
C805 C806 1.398 . S
C806 H794 0.950 . S
C806 C805 1.398 . S
C806 C807 1.391 . S
C807 H795 0.950 . S
C807 C803 1.393 . S
C807 C806 1.391 . S
H808 C816 0.950 . S
H809 C821 0.950 . S
H810 C818 0.950 . S
H811 C820 0.950 . S
H812 C822 0.950 . S
H813 C824 0.950 . S
H814 C826 0.950 . S
H815 C827 0.950 . S
C816 H808 0.950 . S
C816 C817 1.386 . S
C816 C818 1.391 . S
C817 C816 1.386 . S
C817 C821 1.393 1_545 S
C818 H810 0.950 . S
C818 C816 1.391 . S
C818 C819 1.438 . S
C819 C818 1.438 . S
C819 C820 1.363 1_545 S
C819 C825 1.489 1_545 S
C820 H811 0.950 . S
C820 C819 1.363 1_565 S
C820 C821 1.391 . S
C821 H809 0.950 . S
C821 C817 1.393 1_565 S
C821 C820 1.391 . S
C822 H812 0.950 . S
C822 C823 1.386 . S
C822 C824 1.391 . S
C823 C822 1.386 . S
C823 C827 1.393 1_565 S
C824 H813 0.950 . S
C824 C822 1.391 . S
C824 C825 1.434 . S
C825 C819 1.489 1_565 S
C825 C824 1.434 . S
C825 C826 1.367 1_565 S
C826 H814 0.950 . S
C826 C825 1.367 1_545 S
C826 C827 1.391 . S
C827 H815 0.950 . S
C827 C823 1.393 1_545 S
C827 C826 1.391 . S
H828 C836 0.950 . S
H829 C841 0.950 . S
H830 C838 0.950 . S
H831 C840 0.950 . S
H832 C842 0.950 . S
H833 C844 0.950 . S
H834 C846 0.950 . S
H835 C847 0.950 . S
C836 H828 0.950 . S
C836 C837 1.386 . S
C836 C838 1.391 . S
C837 C836 1.386 . S
C837 C841 1.393 . S
C838 H830 0.950 . S
C838 C836 1.391 . S
C838 C839 1.400 . S
C839 C838 1.400 . S
C839 C840 1.398 . S
C839 C845 1.491 . S
C840 H831 0.950 . S
C840 C839 1.398 . S
C840 C841 1.391 . S
C841 H829 0.950 . S
C841 C837 1.393 . S
C841 C840 1.391 . S
C842 H832 0.950 . S
C842 C843 1.386 . S
C842 C844 1.391 . S
C843 C842 1.386 . S
C843 C847 1.393 . S
C844 H833 0.950 . S
C844 C842 1.391 . S
C844 C845 1.400 . S
C845 C839 1.491 . S
C845 C844 1.400 . S
C845 C846 1.398 . S
C846 H834 0.950 . S
C846 C845 1.398 . S
C846 C847 1.391 . S
C847 H835 0.950 . S
C847 C843 1.393 . S
C847 C846 1.391 . S
H848 C856 0.950 . S
H849 C861 0.950 . S
H850 C858 0.950 . S
H851 C860 0.950 . S
H852 C862 0.950 . S
H853 C864 0.950 . S
H854 C866 0.950 . S
H855 C867 0.970 . S
C856 H848 0.950 . S
C856 C857 1.386 1_565 S
C856 C858 1.391 . S
C857 C856 1.386 1_545 S
C857 C861 1.393 . S
C858 H850 0.950 . S
C858 C856 1.391 . S
C858 C859 1.400 1_565 S
C859 C858 1.400 1_545 S
C859 C860 1.398 . S
C859 C865 1.491 . S
C860 H851 0.950 . S
C860 C859 1.398 . S
C860 C861 1.391 . S
C861 H849 0.950 . S
C861 C857 1.393 . S
C861 C860 1.391 . S
C862 H852 0.950 . S
C862 C863 1.386 . S
C862 C864 1.391 . S
C863 C862 1.386 . S
C863 C867 1.371 1_545 S
C864 H853 0.950 . S
C864 C862 1.391 . S
C864 C865 1.400 . S
C865 C859 1.491 . S
C865 C864 1.400 . S
C865 C866 1.398 1_545 S
C866 H854 0.950 . S
C866 C865 1.398 1_565 S
C866 C867 1.394 . S
C867 H855 0.970 . S
C867 C863 1.371 1_565 S
C867 C866 1.394 . S
H868 C876 0.950 . S
H869 C881 0.950 . S
H870 C878 0.950 . S
H871 C880 0.950 . S
H872 C882 0.950 . S
H873 C884 0.950 . S
H874 C886 0.950 . S
H875 C887 0.950 . S
C876 H868 0.950 . S
C876 C877 1.386 . S
C876 C878 1.391 . S
C877 C876 1.386 . S
C877 C881 1.393 . S
C878 H870 0.950 . S
C878 C876 1.391 . S
C878 C879 1.400 . S
C879 C878 1.400 . S
C879 C880 1.398 . S
C879 C885 1.491 . S
C880 H871 0.950 . S
C880 C879 1.398 . S
C880 C881 1.391 . S
C881 H869 0.950 . S
C881 C877 1.393 . S
C881 C880 1.391 . S
C882 H872 0.950 . S
C882 C883 1.386 . S
C882 C884 1.391 . S
C883 C882 1.386 . S
C883 C887 1.393 . S
C884 H873 0.950 . S
C884 C882 1.391 . S
C884 C885 1.400 . S
C885 C879 1.491 . S
C885 C884 1.400 . S
C885 C886 1.398 . S
C886 H874 0.950 . S
C886 C885 1.398 . S
C886 C887 1.391 . S
C887 H875 0.950 . S
C887 C883 1.393 . S
C887 C886 1.391 . S
H888 C896 0.950 . S
H889 C901 0.950 . S
H890 C898 0.950 . S
H891 C900 0.950 . S
H892 C902 0.950 . S
H893 C904 0.950 . S
H894 C906 0.950 . S
H895 C907 0.950 . S
C896 H888 0.950 . S
C896 C897 1.386 . S
C896 C898 1.391 . S
C897 C896 1.386 . S
C897 C901 1.393 . S
C898 H890 0.950 . S
C898 C896 1.391 . S
C898 C899 1.400 . S
C899 C898 1.400 . S
C899 C900 1.398 . S
C899 C905 1.491 . S
C900 H891 0.950 . S
C900 C899 1.398 . S
C900 C901 1.391 . S
C901 H889 0.950 . S
C901 C897 1.393 . S
C901 C900 1.391 . S
C902 H892 0.950 . S
C902 C903 1.386 . S
C902 C904 1.391 . S
C903 C902 1.386 . S
C903 C907 1.393 . S
C904 H893 0.950 . S
C904 C902 1.391 . S
C904 C905 1.400 . S
C905 C899 1.491 . S
C905 C904 1.400 . S
C905 C906 1.398 . S
C906 H894 0.950 . S
C906 C905 1.398 . S
C906 C907 1.391 . S
C907 H895 0.950 . S
C907 C903 1.393 . S
C907 C906 1.391 . S
H908 C916 0.950 . S
H909 C921 0.950 . S
H910 C918 0.950 . S
H911 C920 0.950 . S
H912 C922 0.950 . S
H913 C924 0.950 . S
H914 C926 0.950 . S
H915 C927 0.950 . S
C916 H908 0.950 . S
C916 C917 1.386 . S
C916 C918 1.391 . S
C917 C916 1.386 . S
C917 C921 1.393 . S
C918 H910 0.950 . S
C918 C916 1.391 . S
C918 C919 1.400 . S
C919 C918 1.400 . S
C919 C920 1.398 . S
C919 C925 1.491 . S
C920 H911 0.950 . S
C920 C919 1.398 . S
C920 C921 1.391 . S
C921 H909 0.950 . S
C921 C917 1.393 . S
C921 C920 1.391 . S
C922 H912 0.950 . S
C922 C923 1.386 . S
C922 C924 1.391 . S
C923 C922 1.386 . S
C923 C927 1.393 . S
C924 H913 0.950 . S
C924 C922 1.391 . S
C924 C925 1.400 . S
C925 C919 1.491 . S
C925 C924 1.400 . S
C925 C926 1.398 . S
C926 H914 0.950 . S
C926 C925 1.398 . S
C926 C927 1.391 . S
C927 H915 0.950 . S
C927 C923 1.393 . S
C927 C926 1.391 . S
H928 C936 0.950 . S
H929 C941 0.950 . S
H930 C938 0.950 . S
H931 C940 0.956 . S
H932 C942 0.949 . S
H933 C944 0.952 . S
H934 C946 0.950 . S
H935 C947 0.950 . S
C936 H928 0.950 . S
C936 C937 1.386 . S
C936 C938 1.391 . S
C937 C936 1.386 . S
C937 C941 1.393 . S
C938 H930 0.950 . S
C938 C936 1.391 . S
C938 C939 1.400 . S
C939 C938 1.400 . S
C939 C940 1.398 . S
C939 C945 1.491 . S
C940 H931 0.956 . S
C940 C939 1.398 . S
C940 C941 1.391 . S
C941 H929 0.950 . S
C941 C937 1.393 . S
C941 C940 1.391 . S
C942 H932 0.949 . S
C942 C943 1.385 . S
C942 C944 1.389 1_565 S
C943 C942 1.385 . S
C943 C947 1.390 1_565 S
C944 H933 0.952 . S
C944 C942 1.389 1_545 S
C944 C945 1.404 . S
C945 C939 1.491 . S
C945 C944 1.404 . S
C945 C946 1.398 . S
C946 H934 0.950 . S
C946 C945 1.398 . S
C946 C947 1.392 . S
C947 H935 0.950 . S
C947 C943 1.390 1_545 S
C947 C946 1.392 . S
H948 C956 0.950 . S
H949 C961 0.950 . S
H950 C958 0.950 . S
H951 C960 0.950 . S
H952 C962 0.950 . S
H953 C964 0.950 . S
H954 C966 0.950 . S
H955 C967 0.950 . S
C956 H948 0.950 . S
C956 C957 1.386 . S
C956 C958 1.391 . S
C957 C956 1.386 . S
C957 C961 1.393 . S
C958 H950 0.950 . S
C958 C956 1.391 . S
C958 C959 1.400 . S
C959 C958 1.400 . S
C959 C960 1.398 . S
C959 C965 1.491 . S
C960 H951 0.950 . S
C960 C959 1.398 . S
C960 C961 1.391 . S
C961 H949 0.950 . S
C961 C957 1.393 . S
C961 C960 1.391 . S
C962 H952 0.950 . S
C962 C963 1.386 . S
C962 C964 1.391 . S
C963 C962 1.386 . S
C963 C967 1.393 . S
C964 H953 0.950 . S
C964 C962 1.391 . S
C964 C965 1.400 . S
C965 C959 1.491 . S
C965 C964 1.400 . S
C965 C966 1.398 . S
C966 H954 0.950 . S
C966 C965 1.398 . S
C966 C967 1.391 . S
C967 H955 0.950 . S
C967 C963 1.393 . S
C967 C966 1.391 . S
H968 C976 0.950 . S
H969 C981 0.950 . S
H970 C978 0.950 . S
H971 C980 0.950 . S
H972 C982 0.950 . S
H973 C984 0.950 . S
H974 C986 0.950 . S
H975 C987 0.950 . S
C976 H968 0.950 . S
C976 C977 1.386 . S
C976 C978 1.391 . S
C977 C976 1.386 . S
C977 C981 1.393 1_554 S
C978 H970 0.950 . S
C978 C976 1.391 . S
C978 C979 1.400 . S
C979 C978 1.400 . S
C979 C980 1.398 1_554 S
C979 C985 1.491 . S
C980 H971 0.950 . S
C980 C979 1.398 1_556 S
C980 C981 1.391 . S
C981 H969 0.950 . S
C981 C977 1.393 1_556 S
C981 C980 1.391 . S
C982 H972 0.950 . S
C982 C983 1.386 . S
C982 C984 1.391 . S
C983 C982 1.386 . S
C983 C987 1.393 1_556 S
C984 H973 0.950 . S
C984 C982 1.391 . S
C984 C985 1.400 1_556 S
C985 C979 1.491 . S
C985 C984 1.400 1_554 S
C985 C986 1.398 . S
C986 H974 0.950 . S
C986 C985 1.398 . S
C986 C987 1.391 . S
C987 H975 0.950 . S
C987 C983 1.393 1_554 S
C987 C986 1.391 . S
H988 C996 0.950 1_556 S
H989 C1001 0.950 . S
H990 C998 0.950 . S
H991 C1000 0.950 . S
H992 C1002 0.950 . S
H993 C1004 0.950 . S
H994 C1006 0.950 . S
H995 C1007 0.950 . S
C996 H988 0.950 1_554 S
C996 C997 1.385 . S
C996 C998 1.391 . S
C997 C996 1.385 . S
C997 C1001 1.393 . S
C998 H990 0.950 . S
C998 C996 1.391 . S
C998 C999 1.400 . S
C999 C998 1.400 . S
C999 C1000 1.398 . S
C999 C1005 1.491 . S
C1000 H991 0.950 . S
C1000 C999 1.398 . S
C1000 C1001 1.391 . S
C1001 H989 0.950 . S
C1001 C997 1.393 . S
C1001 C1000 1.391 . S
C1002 H992 0.950 . S
C1002 C1003 1.386 . S
C1002 C1004 1.391 . S
C1003 C1002 1.386 . S
C1003 C1007 1.393 . S
C1004 H993 0.950 . S
C1004 C1002 1.391 . S
C1004 C1005 1.400 . S
C1005 C999 1.491 . S
C1005 C1004 1.400 . S
C1005 C1006 1.398 . S
C1006 H994 0.950 . S
C1006 C1005 1.398 . S
C1006 C1007 1.391 . S
C1007 H995 0.950 . S
C1007 C1003 1.393 . S
C1007 C1006 1.391 . S
H1008 C1016 0.950 . S
H1009 C1021 0.950 . S
H1010 C1018 0.950 . S
H1011 C1020 0.950 . S
H1012 C1022 0.950 . S
H1013 C1024 0.950 . S
H1014 C1026 0.950 . S
H1015 C1027 0.950 . S
C1016 H1008 0.950 . S
C1016 C1017 1.386 . S
C1016 C1018 1.391 . S
C1017 C1016 1.386 . S
C1017 C1021 1.393 . S
C1018 H1010 0.950 . S
C1018 C1016 1.391 . S
C1018 C1019 1.400 . S
C1019 C1018 1.400 . S
C1019 C1020 1.398 . S
C1019 C1025 1.491 . S
C1020 H1011 0.950 . S
C1020 C1019 1.398 . S
C1020 C1021 1.391 . S
C1021 H1009 0.950 . S
C1021 C1017 1.393 . S
C1021 C1020 1.391 . S
C1022 H1012 0.950 . S
C1022 C1023 1.386 . S
C1022 C1024 1.391 . S
C1023 C1022 1.386 . S
C1023 C1027 1.393 . S
C1024 H1013 0.950 . S
C1024 C1022 1.391 . S
C1024 C1025 1.400 . S
C1025 C1019 1.491 . S
C1025 C1024 1.400 . S
C1025 C1026 1.398 . S
C1026 H1014 0.950 . S
C1026 C1025 1.398 . S
C1026 C1027 1.391 . S
C1027 H1015 0.950 . S
C1027 C1023 1.393 . S
C1027 C1026 1.391 . S
H1028 C1036 0.950 . S
H1029 C1041 0.950 . S
H1030 C1038 0.950 . S
H1031 C1040 0.950 . S
H1032 C1042 0.950 . S
H1033 C1044 0.950 . S
H1034 C1046 0.950 . S
H1035 C1047 0.950 . S
C1036 H1028 0.950 . S
C1036 C1037 1.386 . S
C1036 C1038 1.391 . S
C1037 C1036 1.386 . S
C1037 C1041 1.393 . S
C1038 H1030 0.950 . S
C1038 C1036 1.391 . S
C1038 C1039 1.400 . S
C1039 C1038 1.400 . S
C1039 C1040 1.398 . S
C1039 C1045 1.491 . S
C1040 H1031 0.950 . S
C1040 C1039 1.398 . S
C1040 C1041 1.391 . S
C1041 H1029 0.950 . S
C1041 C1037 1.393 . S
C1041 C1040 1.391 . S
C1042 H1032 0.950 . S
C1042 C1043 1.386 . S
C1042 C1044 1.391 . S
C1043 C1042 1.386 . S
C1043 C1047 1.393 . S
C1044 H1033 0.950 . S
C1044 C1042 1.391 . S
C1044 C1045 1.400 . S
C1045 C1039 1.491 . S
C1045 C1044 1.400 . S
C1045 C1046 1.398 . S
C1046 H1034 0.950 . S
C1046 C1045 1.398 . S
C1046 C1047 1.391 . S
C1047 H1035 0.950 . S
C1047 C1043 1.393 . S
C1047 C1046 1.391 . S
H1048 C1056 0.950 . S
H1049 C1061 0.950 . S
H1050 C1058 0.950 . S
H1051 C1060 0.950 . S
H1052 C1062 0.950 . S
H1053 C1064 0.950 . S
H1054 C1066 0.950 . S
H1055 C1067 0.950 . S
C1056 H1048 0.950 . S
C1056 C1057 1.386 . S
C1056 C1058 1.391 . S
C1057 C1056 1.386 . S
C1057 C1061 1.393 . S
C1058 H1050 0.950 . S
C1058 C1056 1.391 . S
C1058 C1059 1.400 . S
C1059 C1058 1.400 . S
C1059 C1060 1.398 . S
C1059 C1065 1.491 . S
C1060 H1051 0.950 . S
C1060 C1059 1.398 . S
C1060 C1061 1.391 . S
C1061 H1049 0.950 . S
C1061 C1057 1.393 . S
C1061 C1060 1.391 . S
C1062 H1052 0.950 . S
C1062 C1063 1.386 . S
C1062 C1064 1.391 . S
C1063 C1062 1.386 . S
C1063 C1067 1.393 . S
C1064 H1053 0.950 . S
C1064 C1062 1.391 . S
C1064 C1065 1.400 . S
C1065 C1059 1.491 . S
C1065 C1064 1.400 . S
C1065 C1066 1.398 . S
C1066 H1054 0.950 . S
C1066 C1065 1.398 . S
C1066 C1067 1.391 . S
C1067 H1055 0.950 . S
C1067 C1063 1.393 . S
C1067 C1066 1.391 . S
H1068 C1076 0.950 . S
H1069 C1081 0.950 . S
H1070 C1078 0.950 . S
H1071 C1080 0.950 . S
H1072 C1082 0.950 . S
H1073 C1084 0.950 . S
H1074 C1086 0.950 . S
H1075 C1087 0.950 1_545 S
C1076 H1068 0.950 . S
C1076 C1077 1.386 . S
C1076 C1078 1.391 . S
C1077 C1076 1.386 . S
C1077 C1081 1.393 . S
C1078 H1070 0.950 . S
C1078 C1076 1.391 . S
C1078 C1079 1.400 . S
C1079 C1078 1.400 . S
C1079 C1080 1.398 . S
C1079 C1085 1.491 . S
C1080 H1071 0.950 . S
C1080 C1079 1.398 . S
C1080 C1081 1.391 . S
C1081 H1069 0.950 . S
C1081 C1077 1.393 . S
C1081 C1080 1.391 . S
C1082 H1072 0.950 . S
C1082 C1083 1.386 . S
C1082 C1084 1.391 . S
C1083 C1082 1.386 . S
C1083 C1087 1.393 . S
C1084 H1073 0.950 . S
C1084 C1082 1.391 . S
C1084 C1085 1.400 . S
C1085 C1079 1.491 . S
C1085 C1084 1.400 . S
C1085 C1086 1.398 . S
C1086 H1074 0.950 . S
C1086 C1085 1.398 . S
C1086 C1087 1.391 . S
C1087 H1075 0.950 1_565 S
C1087 C1083 1.393 . S
C1087 C1086 1.391 . S
H1088 C1096 0.950 . S
H1089 C1101 0.950 . S
H1090 C1098 0.950 . S
H1091 C1100 0.950 . S
H1092 C1102 0.950 . S
H1093 C1104 0.950 . S
H1094 C1106 0.950 . S
H1095 C1107 0.950 . S
C1096 H1088 0.950 . S
C1096 C1097 1.386 . S
C1096 C1098 1.391 . S
C1097 C1096 1.386 . S
C1097 C1101 1.393 . S
C1098 H1090 0.950 . S
C1098 C1096 1.391 . S
C1098 C1099 1.400 . S
C1099 C1098 1.400 . S
C1099 C1100 1.398 . S
C1099 C1105 1.491 . S
C1100 H1091 0.950 . S
C1100 C1099 1.398 . S
C1100 C1101 1.391 . S
C1101 H1089 0.950 . S
C1101 C1097 1.393 . S
C1101 C1100 1.391 . S
C1102 H1092 0.950 . S
C1102 C1103 1.386 . S
C1102 C1104 1.391 . S
C1103 C1102 1.386 . S
C1103 C1107 1.393 . S
C1104 H1093 0.950 . S
C1104 C1102 1.391 . S
C1104 C1105 1.400 . S
C1105 C1099 1.491 . S
C1105 C1104 1.400 . S
C1105 C1106 1.398 . S
C1106 H1094 0.950 . S
C1106 C1105 1.398 . S
C1106 C1107 1.391 . S
C1107 H1095 0.950 . S
C1107 C1103 1.393 . S
C1107 C1106 1.391 . S
H1108 C1116 0.950 . S
H1109 C1121 0.950 . S
H1110 C1118 0.950 . S
H1111 C1120 0.950 . S
H1112 C1122 0.950 . S
H1113 C1124 0.950 . S
H1114 C1126 0.950 . S
H1115 C1127 0.950 . S
C1116 H1108 0.950 . S
C1116 C1117 1.386 . S
C1116 C1118 1.391 . S
C1117 C1116 1.386 . S
C1117 C1121 1.393 . S
C1118 H1110 0.950 . S
C1118 C1116 1.391 . S
C1118 C1119 1.400 . S
C1119 C1118 1.400 . S
C1119 C1120 1.398 . S
C1119 C1125 1.491 . S
C1120 H1111 0.950 . S
C1120 C1119 1.398 . S
C1120 C1121 1.391 . S
C1121 H1109 0.950 . S
C1121 C1117 1.393 . S
C1121 C1120 1.391 . S
C1122 H1112 0.950 . S
C1122 C1123 1.386 . S
C1122 C1124 1.391 . S
C1123 C1122 1.386 . S
C1123 C1127 1.393 . S
C1124 H1113 0.950 . S
C1124 C1122 1.391 . S
C1124 C1125 1.400 . S
C1125 C1119 1.491 . S
C1125 C1124 1.400 . S
C1125 C1126 1.398 . S
C1126 H1114 0.950 . S
C1126 C1125 1.398 . S
C1126 C1127 1.391 . S
C1127 H1115 0.950 . S
C1127 C1123 1.393 . S
C1127 C1126 1.391 . S
H1128 C1136 0.950 . S
H1129 C1141 0.950 . S
H1130 C1138 0.950 . S
H1131 C1140 0.950 . S
H1132 C1142 0.950 . S
H1133 C1144 0.950 . S
H1134 C1146 0.950 . S
H1135 C1147 0.950 . S
C1136 H1128 0.950 . S
C1136 C1137 1.386 . S
C1136 C1138 1.391 . S
C1137 C1136 1.386 . S
C1137 C1141 1.393 1_455 S
C1138 H1130 0.950 . S
C1138 C1136 1.391 . S
C1138 C1139 1.400 . S
C1139 C1138 1.400 . S
C1139 C1140 1.398 1_455 S
C1139 C1145 1.491 . S
C1140 H1131 0.950 . S
C1140 C1139 1.398 1_655 S
C1140 C1141 1.391 . S
C1141 H1129 0.950 . S
C1141 C1137 1.393 1_655 S
C1141 C1140 1.391 . S
C1142 H1132 0.950 . S
C1142 C1143 1.386 1_655 S
C1142 C1144 1.391 . S
C1143 C1142 1.386 1_455 S
C1143 C1147 1.393 . S
C1144 H1133 0.950 . S
C1144 C1142 1.391 . S
C1144 C1145 1.400 1_655 S
C1145 C1139 1.491 . S
C1145 C1144 1.400 1_455 S
C1145 C1146 1.398 . S
C1146 H1134 0.950 . S
C1146 C1145 1.398 . S
C1146 C1147 1.391 . S
C1147 H1135 0.950 . S
C1147 C1143 1.393 . S
C1147 C1146 1.391 . S
H1148 C1156 0.950 . S
H1149 C1161 0.950 . S
H1150 C1158 0.950 . S
H1151 C1160 0.950 . S
H1152 C1162 0.950 . S
H1153 C1164 0.950 . S
H1154 C1166 0.950 . S
H1155 C1167 0.950 . S
C1156 H1148 0.950 . S
C1156 C1157 1.386 . S
C1156 C1158 1.391 . S
C1157 C1156 1.386 . S
C1157 C1161 1.393 . S
C1158 H1150 0.950 . S
C1158 C1156 1.391 . S
C1158 C1159 1.400 . S
C1159 C1158 1.400 . S
C1159 C1160 1.398 . S
C1159 C1165 1.491 . S
C1160 H1151 0.950 . S
C1160 C1159 1.398 . S
C1160 C1161 1.391 . S
C1161 H1149 0.950 . S
C1161 C1157 1.393 . S
C1161 C1160 1.391 . S
C1162 H1152 0.950 . S
C1162 C1163 1.386 . S
C1162 C1164 1.391 . S
C1163 C1162 1.386 . S
C1163 C1167 1.393 . S
C1164 H1153 0.950 . S
C1164 C1162 1.391 . S
C1164 C1165 1.400 . S
C1165 C1159 1.491 . S
C1165 C1164 1.400 . S
C1165 C1166 1.398 . S
C1166 H1154 0.950 . S
C1166 C1165 1.398 . S
C1166 C1167 1.391 . S
C1167 H1155 0.950 . S
C1167 C1163 1.393 . S
C1167 C1166 1.391 . S
H1168 C1176 0.950 . S
H1169 C1181 0.950 . S
H1170 C1178 0.950 . S
H1171 C1180 0.950 . S
H1172 C1182 0.950 . S
H1173 C1184 0.950 . S
H1174 C1186 0.950 . S
H1175 C1187 0.950 . S
C1176 H1168 0.950 . S
C1176 C1177 1.386 . S
C1176 C1178 1.391 . S
C1177 C1176 1.386 . S
C1177 C1181 1.393 . S
C1178 H1170 0.950 . S
C1178 C1176 1.391 . S
C1178 C1179 1.400 . S
C1179 C1178 1.400 . S
C1179 C1180 1.398 . S
C1179 C1185 1.491 . S
C1180 H1171 0.950 . S
C1180 C1179 1.398 . S
C1180 C1181 1.391 . S
C1181 H1169 0.950 . S
C1181 C1177 1.393 . S
C1181 C1180 1.391 . S
C1182 H1172 0.950 . S
C1182 C1183 1.386 . S
C1182 C1184 1.391 . S
C1183 C1182 1.386 . S
C1183 C1187 1.393 . S
C1184 H1173 0.950 . S
C1184 C1182 1.391 . S
C1184 C1185 1.400 . S
C1185 C1179 1.491 . S
C1185 C1184 1.400 . S
C1185 C1186 1.398 . S
C1186 H1174 0.950 . S
C1186 C1185 1.398 . S
C1186 C1187 1.391 . S
C1187 H1175 0.950 . S
C1187 C1183 1.393 . S
C1187 C1186 1.391 . S
H1188 C1196 0.950 . S
H1189 C1201 0.950 . S
H1190 C1198 0.950 . S
H1191 C1200 0.950 . S
H1192 C1202 0.950 . S
H1193 C1204 0.950 . S
H1194 C1206 0.950 . S
H1195 C1207 0.950 . S
C1196 H1188 0.950 . S
C1196 C1197 1.386 . S
C1196 C1198 1.391 . S
C1197 C1196 1.386 . S
C1197 C1201 1.393 . S
C1198 H1190 0.950 . S
C1198 C1196 1.391 . S
C1198 C1199 1.400 . S
C1199 C1198 1.400 . S
C1199 C1200 1.398 . S
C1199 C1205 1.491 . S
C1200 H1191 0.950 . S
C1200 C1199 1.398 . S
C1200 C1201 1.391 . S
C1201 H1189 0.950 . S
C1201 C1197 1.393 . S
C1201 C1200 1.391 . S
C1202 H1192 0.950 . S
C1202 C1203 1.386 . S
C1202 C1204 1.391 . S
C1203 C1202 1.386 . S
C1203 C1207 1.393 . S
C1204 H1193 0.950 . S
C1204 C1202 1.391 . S
C1204 C1205 1.400 . S
C1205 C1199 1.491 . S
C1205 C1204 1.400 . S
C1205 C1206 1.398 . S
C1206 H1194 0.950 . S
C1206 C1205 1.398 . S
C1206 C1207 1.391 . S
C1207 H1195 0.950 . S
C1207 C1203 1.393 . S
C1207 C1206 1.391 . S
H1208 C1216 0.950 . S
H1209 C1221 0.950 . S
H1210 C1218 0.950 . S
H1211 C1220 0.950 . S
H1212 C1222 0.950 1_655 S
H1213 C1224 0.950 1_655 S
H1214 C1226 0.950 . S
H1215 C1227 0.950 . S
C1216 H1208 0.950 . S
C1216 C1217 1.386 . S
C1216 C1218 1.391 . S
C1217 C1216 1.386 . S
C1217 C1221 1.393 1_455 S
C1218 H1210 0.950 . S
C1218 C1216 1.391 . S
C1218 C1219 1.400 . S
C1219 C1218 1.400 . S
C1219 C1220 1.398 1_455 S
C1219 C1225 1.491 . S
C1220 H1211 0.950 . S
C1220 C1219 1.398 1_655 S
C1220 C1221 1.391 . S
C1221 H1209 0.950 . S
C1221 C1217 1.393 1_655 S
C1221 C1220 1.391 . S
C1222 H1212 0.950 1_455 S
C1222 C1223 1.386 . S
C1222 C1224 1.391 . S
C1223 C1222 1.386 . S
C1223 C1227 1.393 . S
C1224 H1213 0.950 1_455 S
C1224 C1222 1.391 . S
C1224 C1225 1.400 . S
C1225 C1219 1.491 . S
C1225 C1224 1.400 . S
C1225 C1226 1.398 . S
C1226 H1214 0.950 . S
C1226 C1225 1.398 . S
C1226 C1227 1.391 . S
C1227 H1215 0.950 . S
C1227 C1223 1.393 . S
C1227 C1226 1.391 . S
H1228 C1236 0.950 . S
H1229 C1241 0.950 . S
H1230 C1238 0.950 . S
H1231 C1240 0.950 . S
H1232 C1242 0.950 . S
H1233 C1244 0.950 . S
H1234 C1246 0.950 . S
H1235 C1247 0.950 . S
C1236 H1228 0.950 . S
C1236 C1237 1.386 . S
C1236 C1238 1.391 . S
C1237 C1236 1.386 . S
C1237 C1241 1.393 . S
C1238 H1230 0.950 . S
C1238 C1236 1.391 . S
C1238 C1239 1.400 . S
C1239 C1238 1.400 . S
C1239 C1240 1.398 . S
C1239 C1245 1.491 . S
C1240 H1231 0.950 . S
C1240 C1239 1.398 . S
C1240 C1241 1.391 . S
C1241 H1229 0.950 . S
C1241 C1237 1.393 . S
C1241 C1240 1.391 . S
C1242 H1232 0.950 . S
C1242 C1243 1.386 . S
C1242 C1244 1.391 . S
C1243 C1242 1.386 . S
C1243 C1247 1.393 . S
C1244 H1233 0.950 . S
C1244 C1242 1.391 . S
C1244 C1245 1.400 . S
C1245 C1239 1.491 . S
C1245 C1244 1.400 . S
C1245 C1246 1.398 . S
C1246 H1234 0.950 . S
C1246 C1245 1.398 . S
C1246 C1247 1.391 . S
C1247 H1235 0.950 . S
C1247 C1243 1.393 . S
C1247 C1246 1.391 . S
H1248 C1256 0.950 . S
H1249 C1261 0.950 . S
H1250 C1258 0.950 . S
H1251 C1260 0.950 . S
H1252 C1262 0.950 . S
H1253 C1264 0.950 . S
H1254 C1266 0.950 . S
H1255 C1267 0.950 . S
C1256 H1248 0.950 . S
C1256 C1257 1.386 . S
C1256 C1258 1.391 . S
C1257 C1256 1.386 . S
C1257 C1261 1.393 . S
C1258 H1250 0.950 . S
C1258 C1256 1.391 . S
C1258 C1259 1.400 . S
C1259 C1258 1.400 . S
C1259 C1260 1.398 . S
C1259 C1265 1.491 . S
C1260 H1251 0.950 . S
C1260 C1259 1.398 . S
C1260 C1261 1.391 . S
C1261 H1249 0.950 . S
C1261 C1257 1.393 . S
C1261 C1260 1.391 . S
C1262 H1252 0.950 . S
C1262 C1263 1.386 . S
C1262 C1264 1.391 . S
C1263 C1262 1.386 . S
C1263 C1267 1.393 . S
C1264 H1253 0.950 . S
C1264 C1262 1.391 . S
C1264 C1265 1.400 . S
C1265 C1259 1.491 . S
C1265 C1264 1.400 . S
C1265 C1266 1.398 . S
C1266 H1254 0.950 . S
C1266 C1265 1.398 . S
C1266 C1267 1.391 . S
C1267 H1255 0.950 . S
C1267 C1263 1.393 . S
C1267 C1266 1.391 . S
H1268 C1276 0.950 . S
H1269 C1281 0.950 . S
H1270 C1278 0.950 . S
H1271 C1280 0.950 . S
H1272 C1282 0.950 . S
H1273 C1284 0.950 . S
H1274 C1286 0.950 . S
H1275 C1287 0.950 . S
C1276 H1268 0.950 . S
C1276 C1277 1.386 . S
C1276 C1278 1.391 . S
C1277 C1276 1.386 . S
C1277 C1281 1.393 . S
C1278 H1270 0.950 . S
C1278 C1276 1.391 . S
C1278 C1279 1.400 . S
C1279 C1278 1.400 . S
C1279 C1280 1.398 . S
C1279 C1285 1.491 . S
C1280 H1271 0.950 . S
C1280 C1279 1.398 . S
C1280 C1281 1.391 . S
C1281 H1269 0.950 . S
C1281 C1277 1.393 . S
C1281 C1280 1.391 . S
C1282 H1272 0.950 . S
C1282 C1283 1.386 . S
C1282 C1284 1.391 . S
C1283 C1282 1.386 . S
C1283 C1287 1.393 . S
C1284 H1273 0.950 . S
C1284 C1282 1.391 . S
C1284 C1285 1.400 . S
C1285 C1279 1.491 . S
C1285 C1284 1.400 . S
C1285 C1286 1.398 . S
C1286 H1274 0.950 . S
C1286 C1285 1.398 . S
C1286 C1287 1.391 . S
C1287 H1275 0.950 . S
C1287 C1283 1.393 . S
C1287 C1286 1.391 . S
H1288 C1296 0.950 . S
H1289 C1301 0.950 . S
H1290 C1298 0.950 . S
H1291 C1300 0.950 . S
H1292 C1302 0.950 . S
H1293 C1304 0.950 . S
H1294 C1306 0.950 . S
H1295 C1307 0.950 . S
C1296 H1288 0.950 . S
C1296 C1297 1.386 . S
C1296 C1298 1.391 . S
C1297 C1296 1.386 . S
C1297 C1301 1.393 1_545 S
C1298 H1290 0.950 . S
C1298 C1296 1.391 . S
C1298 C1299 1.400 . S
C1299 C1298 1.400 . S
C1299 C1300 1.398 1_545 S
C1299 C1305 1.491 . S
C1300 H1291 0.950 . S
C1300 C1299 1.398 1_565 S
C1300 C1301 1.391 . S
C1301 H1289 0.950 . S
C1301 C1297 1.393 1_565 S
C1301 C1300 1.391 . S
C1302 H1292 0.950 . S
C1302 C1303 1.386 1_565 S
C1302 C1304 1.391 . S
C1303 C1302 1.386 1_545 S
C1303 C1307 1.393 . S
C1304 H1293 0.950 . S
C1304 C1302 1.391 . S
C1304 C1305 1.400 1_565 S
C1305 C1299 1.491 . S
C1305 C1304 1.400 1_545 S
C1305 C1306 1.398 . S
C1306 H1294 0.950 . S
C1306 C1305 1.398 . S
C1306 C1307 1.391 . S
C1307 H1295 0.950 . S
C1307 C1303 1.393 . S
C1307 C1306 1.391 . S
H1308 C1316 0.950 . S
H1309 C1321 0.950 . S
H1310 C1318 0.950 . S
H1311 C1320 0.950 . S
H1312 C1322 0.950 . S
H1313 C1324 0.950 . S
H1314 C1326 0.950 . S
H1315 C1327 0.950 . S
C1316 H1308 0.950 . S
C1316 C1317 1.386 . S
C1316 C1318 1.391 . S
C1317 C1316 1.386 . S
C1317 C1321 1.393 . S
C1318 H1310 0.950 . S
C1318 C1316 1.391 . S
C1318 C1319 1.400 . S
C1319 C1318 1.400 . S
C1319 C1320 1.398 . S
C1319 C1325 1.491 . S
C1320 H1311 0.950 . S
C1320 C1319 1.398 . S
C1320 C1321 1.391 . S
C1321 H1309 0.950 . S
C1321 C1317 1.393 . S
C1321 C1320 1.391 . S
C1322 H1312 0.950 . S
C1322 C1323 1.386 . S
C1322 C1324 1.391 . S
C1323 C1322 1.386 . S
C1323 C1327 1.393 . S
C1324 H1313 0.950 . S
C1324 C1322 1.391 . S
C1324 C1325 1.400 . S
C1325 C1319 1.491 . S
C1325 C1324 1.400 . S
C1325 C1326 1.398 . S
C1326 H1314 0.950 . S
C1326 C1325 1.398 . S
C1326 C1327 1.391 . S
C1327 H1315 0.950 . S
C1327 C1323 1.393 . S
C1327 C1326 1.391 . S
H1328 C1336 0.950 . S
H1329 C1341 0.950 . S
H1330 C1338 0.950 . S
H1331 C1340 0.950 . S
H1332 C1342 0.950 . S
H1333 C1344 0.950 . S
H1334 C1346 0.950 . S
H1335 C1347 0.950 . S
C1336 H1328 0.950 . S
C1336 C1337 1.386 . S
C1336 C1338 1.391 . S
C1337 C1336 1.386 . S
C1337 C1341 1.393 1_545 S
C1338 H1330 0.950 . S
C1338 C1336 1.391 . S
C1338 C1339 1.399 1_545 S
C1339 C1338 1.399 1_565 S
C1339 C1340 1.400 . S
C1339 C1345 1.491 . S
C1340 H1331 0.950 . S
C1340 C1339 1.400 . S
C1340 C1341 1.391 . S
C1341 H1329 0.950 . S
C1341 C1337 1.393 1_565 S
C1341 C1340 1.391 . S
C1342 H1332 0.950 . S
C1342 C1343 1.386 . S
C1342 C1344 1.391 . S
C1343 C1342 1.386 . S
C1343 C1347 1.393 1_565 S
C1344 H1333 0.950 . S
C1344 C1342 1.391 . S
C1344 C1345 1.409 . S
C1345 C1339 1.491 . S
C1345 C1344 1.409 . S
C1345 C1346 1.390 1_565 S
C1346 H1334 0.950 . S
C1346 C1345 1.390 1_545 S
C1346 C1347 1.391 . S
C1347 H1335 0.950 . S
C1347 C1343 1.393 1_545 S
C1347 C1346 1.391 . S
H1348 C1356 0.950 . S
H1349 C1361 0.950 . S
H1350 C1358 0.950 . S
H1351 C1360 0.950 . S
H1352 C1362 0.950 . S
H1353 C1364 0.950 . S
H1354 C1366 0.950 . S
H1355 C1367 0.950 . S
C1356 H1348 0.950 . S
C1356 C1357 1.386 . S
C1356 C1358 1.391 . S
C1357 C1356 1.386 . S
C1357 C1361 1.393 . S
C1358 H1350 0.950 . S
C1358 C1356 1.391 . S
C1358 C1359 1.400 . S
C1359 C1358 1.400 . S
C1359 C1360 1.398 . S
C1359 C1365 1.491 . S
C1360 H1351 0.950 . S
C1360 C1359 1.398 . S
C1360 C1361 1.391 . S
C1361 H1349 0.950 . S
C1361 C1357 1.393 . S
C1361 C1360 1.391 . S
C1362 H1352 0.950 . S
C1362 C1363 1.386 . S
C1362 C1364 1.391 . S
C1363 C1362 1.386 . S
C1363 C1367 1.393 . S
C1364 H1353 0.950 . S
C1364 C1362 1.391 . S
C1364 C1365 1.400 . S
C1365 C1359 1.491 . S
C1365 C1364 1.400 . S
C1365 C1366 1.398 . S
C1366 H1354 0.950 . S
C1366 C1365 1.398 . S
C1366 C1367 1.391 . S
C1367 H1355 0.950 . S
C1367 C1363 1.393 . S
C1367 C1366 1.391 . S
H1368 C1376 0.950 . S
H1369 C1381 0.950 . S
H1370 C1378 0.950 . S
H1371 C1380 0.950 . S
H1372 C1382 0.950 . S
H1373 C1384 0.950 . S
H1374 C1386 0.950 . S
H1375 C1387 0.950 . S
C1376 H1368 0.950 . S
C1376 C1377 1.386 . S
C1376 C1378 1.391 . S
C1377 C1376 1.386 . S
C1377 C1381 1.393 1_565 S
C1378 H1370 0.950 . S
C1378 C1376 1.391 . S
C1378 C1379 1.400 . S
C1379 C1378 1.400 . S
C1379 C1380 1.398 1_565 S
C1379 C1385 1.491 . S
C1380 H1371 0.950 . S
C1380 C1379 1.398 1_545 S
C1380 C1381 1.391 . S
C1381 H1369 0.950 . S
C1381 C1377 1.393 1_545 S
C1381 C1380 1.391 . S
C1382 H1372 0.950 . S
C1382 C1383 1.386 1_545 S
C1382 C1384 1.391 . S
C1383 C1382 1.386 1_565 S
C1383 C1387 1.393 . S
C1384 H1373 0.950 . S
C1384 C1382 1.391 . S
C1384 C1385 1.400 1_545 S
C1385 C1379 1.491 . S
C1385 C1384 1.400 1_565 S
C1385 C1386 1.398 . S
C1386 H1374 0.950 . S
C1386 C1385 1.398 . S
C1386 C1387 1.391 . S
C1387 H1375 0.950 . S
C1387 C1383 1.393 . S
C1387 C1386 1.391 . S
H1388 C1396 0.950 . S
H1389 C1401 0.950 . S
H1390 C1398 0.950 . S
H1391 C1400 0.950 . S
H1392 C1402 0.950 . S
H1393 C1404 0.950 . S
H1394 C1406 0.950 . S
H1395 C1407 0.950 . S
C1396 H1388 0.950 . S
C1396 C1397 1.386 . S
C1396 C1398 1.391 . S
C1397 C1396 1.386 . S
C1397 C1401 1.393 . S
C1398 H1390 0.950 . S
C1398 C1396 1.391 . S
C1398 C1399 1.400 . S
C1399 C1398 1.400 . S
C1399 C1400 1.398 . S
C1399 C1405 1.491 . S
C1400 H1391 0.950 . S
C1400 C1399 1.398 . S
C1400 C1401 1.391 . S
C1401 H1389 0.950 . S
C1401 C1397 1.393 . S
C1401 C1400 1.391 . S
C1402 H1392 0.950 . S
C1402 C1403 1.386 . S
C1402 C1404 1.391 . S
C1403 C1402 1.386 . S
C1403 C1407 1.393 . S
C1404 H1393 0.950 . S
C1404 C1402 1.391 . S
C1404 C1405 1.400 . S
C1405 C1399 1.491 . S
C1405 C1404 1.400 . S
C1405 C1406 1.398 . S
C1406 H1394 0.950 . S
C1406 C1405 1.398 . S
C1406 C1407 1.391 . S
C1407 H1395 0.950 . S
C1407 C1403 1.393 . S
C1407 C1406 1.391 . S
H1408 C1416 0.950 . S
H1409 C1421 0.953 . S
H1410 C1418 0.950 . S
H1411 C1420 0.950 1_565 S
H1412 C1422 0.950 . S
H1413 C1424 0.950 . S
H1414 C1426 0.950 . S
H1415 C1427 0.950 . S
C1416 H1408 0.950 . S
C1416 C1417 1.386 . S
C1416 C1418 1.391 . S
C1417 C1416 1.386 . S
C1417 C1421 1.390 1_545 S
C1418 H1410 0.950 . S
C1418 C1416 1.391 . S
C1418 C1419 1.400 . S
C1419 C1418 1.400 . S
C1419 C1420 1.398 . S
C1419 C1425 1.491 . S
C1420 H1411 0.950 1_545 S
C1420 C1419 1.398 . S
C1420 C1421 1.390 1_545 S
C1421 H1409 0.953 . S
C1421 C1417 1.390 1_565 S
C1421 C1420 1.390 1_565 S
C1422 H1412 0.950 . S
C1422 C1423 1.386 . S
C1422 C1424 1.391 . S
C1423 C1422 1.386 . S
C1423 C1427 1.393 . S
C1424 H1413 0.950 . S
C1424 C1422 1.391 . S
C1424 C1425 1.400 . S
C1425 C1419 1.491 . S
C1425 C1424 1.400 . S
C1425 C1426 1.398 . S
C1426 H1414 0.950 . S
C1426 C1425 1.398 . S
C1426 C1427 1.391 . S
C1427 H1415 0.950 . S
C1427 C1423 1.393 . S
C1427 C1426 1.391 . S
H1428 C1436 0.950 . S
H1429 C1441 0.950 . S
H1430 C1438 0.950 . S
H1431 C1440 0.950 . S
H1432 C1442 0.950 . S
H1433 C1444 0.950 . S
H1434 C1446 0.950 . S
H1435 C1447 0.950 . S
C1436 H1428 0.950 . S
C1436 C1437 1.386 . S
C1436 C1438 1.391 . S
C1437 C1436 1.386 . S
C1437 C1441 1.393 . S
C1438 H1430 0.950 . S
C1438 C1436 1.391 . S
C1438 C1439 1.400 . S
C1439 C1438 1.400 . S
C1439 C1440 1.398 . S
C1439 C1445 1.491 . S
C1440 H1431 0.950 . S
C1440 C1439 1.398 . S
C1440 C1441 1.391 . S
C1441 H1429 0.950 . S
C1441 C1437 1.393 . S
C1441 C1440 1.391 . S
C1442 H1432 0.950 . S
C1442 C1443 1.386 . S
C1442 C1444 1.391 . S
C1443 C1442 1.386 . S
C1443 C1447 1.393 . S
C1444 H1433 0.950 . S
C1444 C1442 1.391 . S
C1444 C1445 1.400 . S
C1445 C1439 1.491 . S
C1445 C1444 1.400 . S
C1445 C1446 1.398 . S
C1446 H1434 0.950 . S
C1446 C1445 1.398 . S
C1446 C1447 1.391 . S
C1447 H1435 0.950 . S
C1447 C1443 1.393 . S
C1447 C1446 1.391 . S
H1448 C1456 0.950 . S
H1449 C1461 0.950 . S
H1450 C1458 0.950 . S
H1451 C1460 0.950 . S
H1452 C1462 0.950 . S
H1453 C1464 0.950 . S
H1454 C1466 0.950 . S
H1455 C1467 0.950 . S
C1456 H1448 0.950 . S
C1456 C1457 1.386 1_556 S
C1456 C1458 1.391 . S
C1457 C1456 1.386 1_554 S
C1457 C1461 1.393 . S
C1458 H1450 0.950 . S
C1458 C1456 1.391 . S
C1458 C1459 1.400 1_556 S
C1459 C1458 1.400 1_554 S
C1459 C1460 1.398 . S
C1459 C1465 1.491 . S
C1460 H1451 0.950 . S
C1460 C1459 1.398 . S
C1460 C1461 1.391 . S
C1461 H1449 0.950 . S
C1461 C1457 1.393 . S
C1461 C1460 1.391 . S
C1462 H1452 0.950 . S
C1462 C1463 1.386 . S
C1462 C1464 1.391 . S
C1463 C1462 1.386 . S
C1463 C1467 1.393 1_554 S
C1464 H1453 0.950 . S
C1464 C1462 1.391 . S
C1464 C1465 1.400 . S
C1465 C1459 1.491 . S
C1465 C1464 1.400 . S
C1465 C1466 1.398 1_554 S
C1466 H1454 0.950 . S
C1466 C1465 1.398 1_556 S
C1466 C1467 1.391 . S
C1467 H1455 0.950 . S
C1467 C1463 1.393 1_556 S
C1467 C1466 1.391 . S
H1468 C1476 0.950 . S
H1469 C1481 0.954 . S
H1470 C1478 0.950 . S
H1471 C1480 0.950 . S
H1472 C1482 0.950 . S
H1473 C1484 0.950 . S
H1474 C1486 0.950 . S
H1475 C1487 0.950 . S
C1476 H1468 0.950 . S
C1476 C1477 1.386 . S
C1476 C1478 1.391 . S
C1477 C1476 1.386 . S
C1477 C1481 1.393 . S
C1478 H1470 0.950 . S
C1478 C1476 1.391 . S
C1478 C1479 1.400 . S
C1479 C1478 1.400 . S
C1479 C1480 1.398 . S
C1479 C1485 1.491 . S
C1480 H1471 0.950 . S
C1480 C1479 1.398 . S
C1480 C1481 1.391 . S
C1481 H1469 0.954 . S
C1481 C1477 1.393 . S
C1481 C1480 1.391 . S
C1482 H1472 0.950 . S
C1482 C1483 1.386 . S
C1482 C1484 1.391 . S
C1483 C1482 1.386 . S
C1483 C1487 1.393 . S
C1484 H1473 0.950 . S
C1484 C1482 1.391 . S
C1484 C1485 1.400 . S
C1485 C1479 1.491 . S
C1485 C1484 1.400 . S
C1485 C1486 1.398 . S
C1486 H1474 0.950 . S
C1486 C1485 1.398 . S
C1486 C1487 1.391 . S
C1487 H1475 0.950 . S
C1487 C1483 1.393 . S
C1487 C1486 1.391 . S
H1488 C1496 0.950 . S
H1489 C1501 0.950 . S
H1490 C1498 0.950 . S
H1491 C1500 0.950 . S
H1492 C1502 0.950 . S
H1493 C1504 0.950 . S
H1494 C1506 0.950 . S
H1495 C1507 0.950 . S
C1496 H1488 0.950 . S
C1496 C1497 1.386 . S
C1496 C1498 1.391 . S
C1497 C1496 1.386 . S
C1497 C1501 1.393 . S
C1498 H1490 0.950 . S
C1498 C1496 1.391 . S
C1498 C1499 1.400 . S
C1499 C1498 1.400 . S
C1499 C1500 1.398 . S
C1499 C1505 1.491 . S
C1500 H1491 0.950 . S
C1500 C1499 1.398 . S
C1500 C1501 1.391 . S
C1501 H1489 0.950 . S
C1501 C1497 1.393 . S
C1501 C1500 1.391 . S
C1502 H1492 0.950 . S
C1502 C1503 1.386 . S
C1502 C1504 1.391 . S
C1503 C1502 1.386 . S
C1503 C1507 1.393 . S
C1504 H1493 0.950 . S
C1504 C1502 1.391 . S
C1504 C1505 1.400 . S
C1505 C1499 1.491 . S
C1505 C1504 1.400 . S
C1505 C1506 1.398 . S
C1506 H1494 0.950 . S
C1506 C1505 1.398 . S
C1506 C1507 1.391 . S
C1507 H1495 0.950 . S
C1507 C1503 1.393 . S
C1507 C1506 1.391 . S
H1508 C1516 0.950 . S
H1509 C1521 0.950 . S
H1510 C1518 0.950 . S
H1511 C1520 0.950 . S
H1512 C1522 0.950 . S
H1513 C1524 0.950 . S
H1514 C1526 0.950 . S
H1515 C1527 0.950 . S
C1516 H1508 0.950 . S
C1516 C1517 1.386 . S
C1516 C1518 1.391 . S
C1517 C1516 1.386 . S
C1517 C1521 1.393 . S
C1518 H1510 0.950 . S
C1518 C1516 1.391 . S
C1518 C1519 1.400 . S
C1519 C1518 1.400 . S
C1519 C1520 1.398 . S
C1519 C1525 1.491 . S
C1520 H1511 0.950 . S
C1520 C1519 1.398 . S
C1520 C1521 1.391 . S
C1521 H1509 0.950 . S
C1521 C1517 1.393 . S
C1521 C1520 1.391 . S
C1522 H1512 0.950 . S
C1522 C1523 1.386 . S
C1522 C1524 1.391 . S
C1523 C1522 1.386 . S
C1523 C1527 1.393 . S
C1524 H1513 0.950 . S
C1524 C1522 1.391 . S
C1524 C1525 1.400 . S
C1525 C1519 1.491 . S
C1525 C1524 1.400 . S
C1525 C1526 1.398 . S
C1526 H1514 0.950 . S
C1526 C1525 1.398 . S
C1526 C1527 1.391 . S
C1527 H1515 0.950 . S
C1527 C1523 1.393 . S
C1527 C1526 1.391 . S
H1528 C1536 0.950 . S
H1529 C1541 0.950 . S
H1530 C1538 0.950 . S
H1531 C1540 0.950 . S
H1532 C1542 0.950 . S
H1533 C1544 0.950 . S
H1534 C1546 0.950 . S
H1535 C1547 0.950 . S
C1536 H1528 0.950 . S
C1536 C1537 1.386 . S
C1536 C1538 1.391 . S
C1537 C1536 1.386 . S
C1537 C1541 1.393 . S
C1538 H1530 0.950 . S
C1538 C1536 1.391 . S
C1538 C1539 1.400 . S
C1539 C1538 1.400 . S
C1539 C1540 1.398 . S
C1539 C1545 1.491 . S
C1540 H1531 0.950 . S
C1540 C1539 1.398 . S
C1540 C1541 1.391 . S
C1541 H1529 0.950 . S
C1541 C1537 1.393 . S
C1541 C1540 1.391 . S
C1542 H1532 0.950 . S
C1542 C1543 1.386 . S
C1542 C1544 1.391 . S
C1543 C1542 1.386 . S
C1543 C1547 1.393 . S
C1544 H1533 0.950 . S
C1544 C1542 1.391 . S
C1544 C1545 1.400 . S
C1545 C1539 1.491 . S
C1545 C1544 1.400 . S
C1545 C1546 1.398 . S
C1546 H1534 0.950 . S
C1546 C1545 1.398 . S
C1546 C1547 1.391 . S
C1547 H1535 0.950 . S
C1547 C1543 1.393 . S
C1547 C1546 1.391 . S
H1548 C1556 0.950 . S
H1549 C1561 0.950 . S
H1550 C1558 0.950 . S
H1551 C1560 0.950 . S
H1552 C1562 0.950 . S
H1553 C1564 0.950 . S
H1554 C1566 0.950 . S
H1555 C1567 0.950 . S
C1556 H1548 0.950 . S
C1556 C1557 1.386 . S
C1556 C1558 1.391 . S
C1557 C1556 1.386 . S
C1557 C1561 1.393 . S
C1558 H1550 0.950 . S
C1558 C1556 1.391 . S
C1558 C1559 1.400 . S
C1559 C1558 1.400 . S
C1559 C1560 1.398 . S
C1559 C1565 1.491 . S
C1560 H1551 0.950 . S
C1560 C1559 1.398 . S
C1560 C1561 1.391 . S
C1561 H1549 0.950 . S
C1561 C1557 1.393 . S
C1561 C1560 1.391 . S
C1562 H1552 0.950 . S
C1562 C1563 1.386 . S
C1562 C1564 1.391 . S
C1563 C1562 1.386 . S
C1563 C1567 1.393 . S
C1564 H1553 0.950 . S
C1564 C1562 1.391 . S
C1564 C1565 1.400 . S
C1565 C1559 1.491 . S
C1565 C1564 1.400 . S
C1565 C1566 1.398 . S
C1566 H1554 0.950 . S
C1566 C1565 1.398 . S
C1566 C1567 1.391 . S
C1567 H1555 0.950 . S
C1567 C1563 1.393 . S
C1567 C1566 1.391 . S
H1568 C1576 0.950 . S
H1569 C1581 0.950 . S
H1570 C1578 0.950 . S
H1571 C1580 0.950 . S
H1572 C1582 0.950 . S
H1573 C1584 0.950 . S
H1574 C1586 0.950 . S
H1575 C1587 0.950 . S
C1576 H1568 0.950 . S
C1576 C1577 1.386 . S
C1576 C1578 1.391 . S
C1577 C1576 1.386 . S
C1577 C1581 1.393 . S
C1578 H1570 0.950 . S
C1578 C1576 1.391 . S
C1578 C1579 1.400 . S
C1579 C1578 1.400 . S
C1579 C1580 1.398 . S
C1579 C1585 1.491 . S
C1580 H1571 0.950 . S
C1580 C1579 1.398 . S
C1580 C1581 1.391 . S
C1581 H1569 0.950 . S
C1581 C1577 1.393 . S
C1581 C1580 1.391 . S
C1582 H1572 0.950 . S
C1582 C1583 1.386 . S
C1582 C1584 1.391 . S
C1583 C1582 1.386 . S
C1583 C1587 1.393 . S
C1584 H1573 0.950 . S
C1584 C1582 1.391 . S
C1584 C1585 1.400 . S
C1585 C1579 1.491 . S
C1585 C1584 1.400 . S
C1585 C1586 1.398 . S
C1586 H1574 0.950 . S
C1586 C1585 1.398 . S
C1586 C1587 1.391 . S
C1587 H1575 0.950 . S
C1587 C1583 1.393 . S
C1587 C1586 1.391 . S
H1588 C1596 0.950 . S
H1589 C1601 0.950 . S
H1590 C1598 0.950 . S
H1591 C1600 0.950 . S
H1592 C1602 0.950 . S
H1593 C1604 0.950 . S
H1594 C1606 0.950 . S
H1595 C1607 0.950 . S
C1596 H1588 0.950 . S
C1596 C1597 1.386 . S
C1596 C1598 1.391 . S
C1597 C1596 1.386 . S
C1597 C1601 1.393 . S
C1598 H1590 0.950 . S
C1598 C1596 1.391 . S
C1598 C1599 1.400 . S
C1599 C1598 1.400 . S
C1599 C1600 1.398 . S
C1599 C1605 1.491 . S
C1600 H1591 0.950 . S
C1600 C1599 1.398 . S
C1600 C1601 1.391 . S
C1601 H1589 0.950 . S
C1601 C1597 1.393 . S
C1601 C1600 1.391 . S
C1602 H1592 0.950 . S
C1602 C1603 1.386 . S
C1602 C1604 1.391 . S
C1603 C1602 1.386 . S
C1603 C1607 1.393 . S
C1604 H1593 0.950 . S
C1604 C1602 1.391 . S
C1604 C1605 1.400 . S
C1605 C1599 1.491 . S
C1605 C1604 1.400 . S
C1605 C1606 1.398 . S
C1606 H1594 0.950 . S
C1606 C1605 1.398 . S
C1606 C1607 1.391 . S
C1607 H1595 0.950 . S
C1607 C1603 1.393 . S
C1607 C1606 1.391 . S
H1608 C1616 0.950 . S
H1609 C1621 0.950 . S
H1610 C1618 0.950 . S
H1611 C1620 0.950 . S
H1612 C1622 0.950 . S
H1613 C1624 0.950 . S
H1614 C1626 0.950 . S
H1615 C1627 0.950 . S
C1616 H1608 0.950 . S
C1616 C1617 1.386 . S
C1616 C1618 1.391 . S
C1617 C1616 1.386 . S
C1617 C1621 1.393 . S
C1618 H1610 0.950 . S
C1618 C1616 1.391 . S
C1618 C1619 1.400 . S
C1619 C1618 1.400 . S
C1619 C1620 1.398 . S
C1619 C1625 1.491 . S
C1620 H1611 0.950 . S
C1620 C1619 1.398 . S
C1620 C1621 1.391 . S
C1621 H1609 0.950 . S
C1621 C1617 1.393 . S
C1621 C1620 1.391 . S
C1622 H1612 0.950 . S
C1622 C1623 1.386 . S
C1622 C1624 1.391 . S
C1623 C1622 1.386 . S
C1623 C1627 1.393 . S
C1624 H1613 0.950 . S
C1624 C1622 1.391 . S
C1624 C1625 1.400 . S
C1625 C1619 1.491 . S
C1625 C1624 1.400 . S
C1625 C1626 1.398 . S
C1626 H1614 0.950 . S
C1626 C1625 1.398 . S
C1626 C1627 1.391 . S
C1627 H1615 0.950 . S
C1627 C1623 1.393 . S
C1627 C1626 1.391 . S
H1628 C1636 0.950 . S
H1629 C1641 0.950 . S
H1630 C1638 0.950 . S
H1631 C1640 0.950 . S
H1632 C1642 0.950 . S
H1633 C1644 0.950 . S
H1634 C1646 0.950 . S
H1635 C1647 0.950 . S
C1636 H1628 0.950 . S
C1636 C1637 1.386 . S
C1636 C1638 1.391 . S
C1637 C1636 1.386 . S
C1637 C1641 1.393 . S
C1638 H1630 0.950 . S
C1638 C1636 1.391 . S
C1638 C1639 1.400 . S
C1639 C1638 1.400 . S
C1639 C1640 1.398 . S
C1639 C1645 1.491 . S
C1640 H1631 0.950 . S
C1640 C1639 1.398 . S
C1640 C1641 1.391 . S
C1641 H1629 0.950 . S
C1641 C1637 1.393 . S
C1641 C1640 1.391 . S
C1642 H1632 0.950 . S
C1642 C1643 1.386 . S
C1642 C1644 1.391 . S
C1643 C1642 1.386 . S
C1643 C1647 1.393 . S
C1644 H1633 0.950 . S
C1644 C1642 1.391 . S
C1644 C1645 1.400 . S
C1645 C1639 1.491 . S
C1645 C1644 1.400 . S
C1645 C1646 1.398 . S
C1646 H1634 0.950 . S
C1646 C1645 1.398 . S
C1646 C1647 1.391 . S
C1647 H1635 0.950 . S
C1647 C1643 1.393 . S
C1647 C1646 1.391 . S
H1648 C1656 0.950 . S
H1649 C1661 0.950 . S
H1650 C1658 0.950 . S
H1651 C1660 0.950 . S
H1652 C1662 0.950 . S
H1653 C1664 0.950 . S
H1654 C1666 0.950 . S
H1655 C1667 0.950 . S
C1656 H1648 0.950 . S
C1656 C1657 1.386 . S
C1656 C1658 1.391 . S
C1657 C1656 1.386 . S
C1657 C1661 1.393 1_455 S
C1658 H1650 0.950 . S
C1658 C1656 1.391 . S
C1658 C1659 1.400 . S
C1659 C1658 1.400 . S
C1659 C1660 1.398 1_455 S
C1659 C1665 1.491 . S
C1660 H1651 0.950 . S
C1660 C1659 1.398 1_655 S
C1660 C1661 1.391 . S
C1661 H1649 0.950 . S
C1661 C1657 1.393 1_655 S
C1661 C1660 1.391 . S
C1662 H1652 0.950 . S
C1662 C1663 1.386 1_655 S
C1662 C1664 1.391 . S
C1663 C1662 1.386 1_455 S
C1663 C1667 1.393 . S
C1664 H1653 0.950 . S
C1664 C1662 1.391 . S
C1664 C1665 1.400 1_655 S
C1665 C1659 1.491 . S
C1665 C1664 1.400 1_455 S
C1665 C1666 1.398 . S
C1666 H1654 0.950 . S
C1666 C1665 1.398 . S
C1666 C1667 1.391 . S
C1667 H1655 0.950 . S
C1667 C1663 1.393 . S
C1667 C1666 1.391 . S
H1668 C1676 0.950 . S
H1669 C1681 0.950 . S
H1670 C1678 0.950 . S
H1671 C1680 0.950 . S
H1672 C1682 0.950 . S
H1673 C1684 0.950 . S
H1674 C1686 0.950 . S
H1675 C1687 0.950 . S
C1676 H1668 0.950 . S
C1676 C1677 1.386 . S
C1676 C1678 1.391 . S
C1677 C1676 1.386 . S
C1677 C1681 1.393 . S
C1678 H1670 0.950 . S
C1678 C1676 1.391 . S
C1678 C1679 1.400 . S
C1679 C1678 1.400 . S
C1679 C1680 1.398 . S
C1679 C1685 1.491 . S
C1680 H1671 0.950 . S
C1680 C1679 1.398 . S
C1680 C1681 1.391 . S
C1681 H1669 0.950 . S
C1681 C1677 1.393 . S
C1681 C1680 1.391 . S
C1682 H1672 0.950 . S
C1682 C1683 1.386 . S
C1682 C1684 1.391 . S
C1683 C1682 1.386 . S
C1683 C1687 1.393 . S
C1684 H1673 0.950 . S
C1684 C1682 1.391 . S
C1684 C1685 1.400 . S
C1685 C1679 1.491 . S
C1685 C1684 1.400 . S
C1685 C1686 1.398 . S
C1686 H1674 0.950 . S
C1686 C1685 1.398 . S
C1686 C1687 1.391 . S
C1687 H1675 0.950 . S
C1687 C1683 1.393 . S
C1687 C1686 1.391 . S
H1688 C1696 0.950 . S
H1689 C1701 0.950 . S
H1690 C1698 0.950 . S
H1691 C1700 0.950 . S
H1692 C1702 0.950 . S
H1693 C1704 0.950 . S
H1694 C1706 0.950 . S
H1695 C1707 0.950 . S
C1696 H1688 0.950 . S
C1696 C1697 1.386 . S
C1696 C1698 1.391 . S
C1697 C1696 1.386 . S
C1697 C1701 1.393 . S
C1698 H1690 0.950 . S
C1698 C1696 1.391 . S
C1698 C1699 1.400 . S
C1699 C1698 1.400 . S
C1699 C1700 1.398 . S
C1699 C1705 1.491 . S
C1700 H1691 0.950 . S
C1700 C1699 1.398 . S
C1700 C1701 1.391 . S
C1701 H1689 0.950 . S
C1701 C1697 1.393 . S
C1701 C1700 1.391 . S
C1702 H1692 0.950 . S
C1702 C1703 1.386 . S
C1702 C1704 1.391 . S
C1703 C1702 1.386 . S
C1703 C1707 1.393 . S
C1704 H1693 0.950 . S
C1704 C1702 1.391 . S
C1704 C1705 1.400 . S
C1705 C1699 1.491 . S
C1705 C1704 1.400 . S
C1705 C1706 1.398 . S
C1706 H1694 0.950 . S
C1706 C1705 1.398 . S
C1706 C1707 1.391 . S
C1707 H1695 0.950 . S
C1707 C1703 1.393 . S
C1707 C1706 1.391 . S
H1708 C1716 0.950 . S
H1709 C1721 0.950 . S
H1710 C1718 0.950 . S
H1711 C1720 0.950 . S
H1712 C1722 0.950 . S
H1713 C1724 0.950 . S
H1714 C1726 0.950 . S
H1715 C1727 0.950 . S
C1716 H1708 0.950 . S
C1716 C1717 1.386 . S
C1716 C1718 1.391 . S
C1717 C1716 1.386 . S
C1717 C1721 1.393 . S
C1718 H1710 0.950 . S
C1718 C1716 1.391 . S
C1718 C1719 1.400 . S
C1719 C1718 1.400 . S
C1719 C1720 1.398 . S
C1719 C1725 1.491 . S
C1720 H1711 0.950 . S
C1720 C1719 1.398 . S
C1720 C1721 1.391 . S
C1721 H1709 0.950 . S
C1721 C1717 1.393 . S
C1721 C1720 1.391 . S
C1722 H1712 0.950 . S
C1722 C1723 1.386 . S
C1722 C1724 1.391 . S
C1723 C1722 1.386 . S
C1723 C1727 1.393 . S
C1724 H1713 0.950 . S
C1724 C1722 1.391 . S
C1724 C1725 1.400 . S
C1725 C1719 1.491 . S
C1725 C1724 1.400 . S
C1725 C1726 1.398 . S
C1726 H1714 0.950 . S
C1726 C1725 1.398 . S
C1726 C1727 1.391 . S
C1727 H1715 0.950 . S
C1727 C1723 1.393 . S
C1727 C1726 1.391 . S
H1728 C1736 0.950 . S
H1729 C1741 0.950 . S
H1730 C1738 0.950 . S
H1731 C1740 0.950 . S
H1732 C1742 0.950 . S
H1733 C1744 0.950 . S
H1734 C1746 0.950 . S
H1735 C1747 0.950 . S
C1736 H1728 0.950 . S
C1736 C1737 1.386 . S
C1736 C1738 1.391 . S
C1737 C1736 1.386 . S
C1737 C1741 1.393 1_455 S
C1738 H1730 0.950 . S
C1738 C1736 1.391 . S
C1738 C1739 1.400 . S
C1739 C1738 1.400 . S
C1739 C1740 1.398 1_455 S
C1739 C1745 1.491 . S
C1740 H1731 0.950 . S
C1740 C1739 1.398 1_655 S
C1740 C1741 1.391 . S
C1741 H1729 0.950 . S
C1741 C1737 1.393 1_655 S
C1741 C1740 1.391 . S
C1742 H1732 0.950 . S
C1742 C1743 1.386 1_655 S
C1742 C1744 1.391 . S
C1743 C1742 1.386 1_455 S
C1743 C1747 1.393 . S
C1744 H1733 0.950 . S
C1744 C1742 1.391 . S
C1744 C1745 1.400 1_655 S
C1745 C1739 1.491 . S
C1745 C1744 1.400 1_455 S
C1745 C1746 1.398 . S
C1746 H1734 0.950 . S
C1746 C1745 1.398 . S
C1746 C1747 1.391 . S
C1747 H1735 0.950 . S
C1747 C1743 1.393 . S
C1747 C1746 1.391 . S
H1748 C1756 0.950 . S
H1749 C1761 0.950 . S
H1750 C1758 0.950 . S
H1751 C1760 0.950 . S
H1752 C1762 0.950 . S
H1753 C1764 0.950 . S
H1754 C1766 0.950 . S
H1755 C1767 0.950 . S
C1756 H1748 0.950 . S
C1756 C1757 1.386 . S
C1756 C1758 1.391 . S
C1757 C1756 1.386 . S
C1757 C1761 1.393 . S
C1758 H1750 0.950 . S
C1758 C1756 1.391 . S
C1758 C1759 1.400 . S
C1759 C1758 1.400 . S
C1759 C1760 1.398 . S
C1759 C1765 1.491 . S
C1760 H1751 0.950 . S
C1760 C1759 1.398 . S
C1760 C1761 1.391 . S
C1761 H1749 0.950 . S
C1761 C1757 1.393 . S
C1761 C1760 1.391 . S
C1762 H1752 0.950 . S
C1762 C1763 1.386 . S
C1762 C1764 1.391 . S
C1763 C1762 1.386 . S
C1763 C1767 1.393 . S
C1764 H1753 0.950 . S
C1764 C1762 1.391 . S
C1764 C1765 1.400 . S
C1765 C1759 1.491 . S
C1765 C1764 1.400 . S
C1765 C1766 1.398 . S
C1766 H1754 0.950 . S
C1766 C1765 1.398 . S
C1766 C1767 1.391 . S
C1767 H1755 0.950 . S
C1767 C1763 1.393 . S
C1767 C1766 1.391 . S
H1768 C1776 0.950 . S
H1769 C1781 0.950 . S
H1770 C1778 0.950 . S
H1771 C1780 0.950 . S
H1772 C1782 0.950 . S
H1773 C1784 0.950 . S
H1774 C1786 0.950 . S
H1775 C1787 0.950 . S
C1776 H1768 0.950 . S
C1776 C1777 1.386 . S
C1776 C1778 1.391 . S
C1777 C1776 1.386 . S
C1777 C1781 1.393 . S
C1778 H1770 0.950 . S
C1778 C1776 1.391 . S
C1778 C1779 1.400 . S
C1779 C1778 1.400 . S
C1779 C1780 1.398 . S
C1779 C1785 1.491 . S
C1780 H1771 0.950 . S
C1780 C1779 1.398 . S
C1780 C1781 1.391 . S
C1781 H1769 0.950 . S
C1781 C1777 1.393 . S
C1781 C1780 1.391 . S
C1782 H1772 0.950 . S
C1782 C1783 1.386 . S
C1782 C1784 1.391 . S
C1783 C1782 1.386 . S
C1783 C1787 1.393 . S
C1784 H1773 0.950 . S
C1784 C1782 1.391 . S
C1784 C1785 1.400 . S
C1785 C1779 1.491 . S
C1785 C1784 1.400 . S
C1785 C1786 1.398 . S
C1786 H1774 0.950 . S
C1786 C1785 1.398 . S
C1786 C1787 1.391 . S
C1787 H1775 0.950 . S
C1787 C1783 1.393 . S
C1787 C1786 1.391 . S
H1788 C1796 0.950 . S
H1789 C1801 0.950 . S
H1790 C1798 0.950 . S
H1791 C1800 0.950 . S
H1792 C1802 0.950 . S
H1793 C1804 0.950 . S
H1794 C1806 0.950 . S
H1795 C1807 0.950 . S
C1796 H1788 0.950 . S
C1796 C1797 1.386 . S
C1796 C1798 1.391 . S
C1797 C1796 1.386 . S
C1797 C1801 1.393 . S
C1798 H1790 0.950 . S
C1798 C1796 1.391 . S
C1798 C1799 1.400 . S
C1799 C1798 1.400 . S
C1799 C1800 1.398 . S
C1799 C1805 1.491 . S
C1800 H1791 0.950 . S
C1800 C1799 1.398 . S
C1800 C1801 1.391 . S
C1801 H1789 0.950 . S
C1801 C1797 1.393 . S
C1801 C1800 1.391 . S
C1802 H1792 0.950 . S
C1802 C1803 1.386 . S
C1802 C1804 1.391 . S
C1803 C1802 1.386 . S
C1803 C1807 1.393 . S
C1804 H1793 0.950 . S
C1804 C1802 1.391 . S
C1804 C1805 1.400 . S
C1805 C1799 1.491 . S
C1805 C1804 1.400 . S
C1805 C1806 1.398 . S
C1806 H1794 0.950 . S
C1806 C1805 1.398 . S
C1806 C1807 1.391 . S
C1807 H1795 0.950 . S
C1807 C1803 1.393 . S
C1807 C1806 1.391 . S
H1808 C1816 0.950 . S
H1809 C1821 0.950 . S
H1810 C1818 0.950 . S
H1811 C1820 0.950 . S
H1812 C1822 0.950 . S
H1813 C1824 0.950 . S
H1814 C1826 0.950 . S
H1815 C1827 0.950 . S
C1816 H1808 0.950 . S
C1816 C1817 1.386 . S
C1816 C1818 1.391 . S
C1817 C1816 1.386 . S
C1817 C1821 1.393 . S
C1818 H1810 0.950 . S
C1818 C1816 1.391 . S
C1818 C1819 1.400 . S
C1819 C1818 1.400 . S
C1819 C1820 1.398 . S
C1819 C1825 1.491 . S
C1820 H1811 0.950 . S
C1820 C1819 1.398 . S
C1820 C1821 1.391 . S
C1821 H1809 0.950 . S
C1821 C1817 1.393 . S
C1821 C1820 1.391 . S
C1822 H1812 0.950 . S
C1822 C1823 1.386 . S
C1822 C1824 1.391 . S
C1823 C1822 1.386 . S
C1823 C1827 1.393 . S
C1824 H1813 0.950 . S
C1824 C1822 1.391 . S
C1824 C1825 1.400 . S
C1825 C1819 1.491 . S
C1825 C1824 1.400 . S
C1825 C1826 1.398 . S
C1826 H1814 0.950 . S
C1826 C1825 1.398 . S
C1826 C1827 1.391 . S
C1827 H1815 0.950 . S
C1827 C1823 1.393 . S
C1827 C1826 1.391 . S
H1828 C1836 0.950 . S
H1829 C1841 0.950 . S
H1830 C1838 0.950 . S
H1831 C1840 0.950 . S
H1832 C1842 0.950 . S
H1833 C1844 0.950 . S
H1834 C1846 0.950 . S
H1835 C1847 0.950 . S
C1836 H1828 0.950 . S
C1836 C1837 1.386 . S
C1836 C1838 1.391 . S
C1837 C1836 1.386 . S
C1837 C1841 1.393 . S
C1838 H1830 0.950 . S
C1838 C1836 1.391 . S
C1838 C1839 1.400 . S
C1839 C1838 1.400 . S
C1839 C1840 1.398 . S
C1839 C1845 1.491 . S
C1840 H1831 0.950 . S
C1840 C1839 1.398 . S
C1840 C1841 1.391 . S
C1841 H1829 0.950 . S
C1841 C1837 1.393 . S
C1841 C1840 1.391 . S
C1842 H1832 0.950 . S
C1842 C1843 1.386 . S
C1842 C1844 1.391 . S
C1843 C1842 1.386 . S
C1843 C1847 1.393 . S
C1844 H1833 0.950 . S
C1844 C1842 1.391 . S
C1844 C1845 1.400 . S
C1845 C1839 1.491 . S
C1845 C1844 1.400 . S
C1845 C1846 1.398 . S
C1846 H1834 0.950 . S
C1846 C1845 1.398 . S
C1846 C1847 1.391 . S
C1847 H1835 0.950 . S
C1847 C1843 1.393 . S
C1847 C1846 1.391 . S
H1848 C1856 0.950 . S
H1849 C1861 0.950 . S
H1850 C1858 0.950 . S
H1851 C1860 0.950 . S
H1852 C1862 0.950 . S
H1853 C1864 0.950 . S
H1854 C1866 0.950 . S
H1855 C1867 0.950 . S
C1856 H1848 0.950 . S
C1856 C1857 1.386 . S
C1856 C1858 1.391 . S
C1857 C1856 1.386 . S
C1857 C1861 1.393 . S
C1858 H1850 0.950 . S
C1858 C1856 1.391 . S
C1858 C1859 1.400 . S
C1859 C1858 1.400 . S
C1859 C1860 1.398 . S
C1859 C1865 1.491 . S
C1860 H1851 0.950 . S
C1860 C1859 1.398 . S
C1860 C1861 1.391 . S
C1861 H1849 0.950 . S
C1861 C1857 1.393 . S
C1861 C1860 1.391 . S
C1862 H1852 0.950 . S
C1862 C1863 1.386 . S
C1862 C1864 1.391 . S
C1863 C1862 1.386 . S
C1863 C1867 1.393 . S
C1864 H1853 0.950 . S
C1864 C1862 1.391 . S
C1864 C1865 1.400 . S
C1865 C1859 1.491 . S
C1865 C1864 1.400 . S
C1865 C1866 1.398 . S
C1866 H1854 0.950 . S
C1866 C1865 1.398 . S
C1866 C1867 1.391 . S
C1867 H1855 0.950 . S
C1867 C1863 1.393 . S
C1867 C1866 1.391 . S
H1868 C1876 0.950 . S
H1869 C1881 0.950 . S
H1870 C1878 0.950 . S
H1871 C1880 0.950 . S
H1872 C1882 0.950 . S
H1873 C1884 0.950 . S
H1874 C1886 0.950 . S
H1875 C1887 0.950 . S
C1876 H1868 0.950 . S
C1876 C1877 1.386 . S
C1876 C1878 1.391 . S
C1877 C1876 1.386 . S
C1877 C1881 1.393 . S
C1878 H1870 0.950 . S
C1878 C1876 1.391 . S
C1878 C1879 1.400 . S
C1879 C1878 1.400 . S
C1879 C1880 1.398 . S
C1879 C1885 1.491 . S
C1880 H1871 0.950 . S
C1880 C1879 1.398 . S
C1880 C1881 1.391 . S
C1881 H1869 0.950 . S
C1881 C1877 1.393 . S
C1881 C1880 1.391 . S
C1882 H1872 0.950 . S
C1882 C1883 1.386 . S
C1882 C1884 1.391 . S
C1883 C1882 1.386 . S
C1883 C1887 1.393 . S
C1884 H1873 0.950 . S
C1884 C1882 1.391 . S
C1884 C1885 1.400 . S
C1885 C1879 1.491 . S
C1885 C1884 1.400 . S
C1885 C1886 1.398 . S
C1886 H1874 0.950 . S
C1886 C1885 1.398 . S
C1886 C1887 1.391 . S
C1887 H1875 0.950 . S
C1887 C1883 1.393 . S
C1887 C1886 1.391 . S
H1888 C1896 0.950 . S
H1889 C1901 0.950 . S
H1890 C1898 0.950 . S
H1891 C1900 0.950 . S
H1892 C1902 0.950 . S
H1893 C1904 0.950 . S
H1894 C1906 0.950 . S
H1895 C1907 0.950 . S
C1896 H1888 0.950 . S
C1896 C1897 1.386 . S
C1896 C1898 1.391 . S
C1897 C1896 1.386 . S
C1897 C1901 1.393 . S
C1898 H1890 0.950 . S
C1898 C1896 1.391 . S
C1898 C1899 1.400 . S
C1899 C1898 1.400 . S
C1899 C1900 1.398 . S
C1899 C1905 1.491 . S
C1900 H1891 0.950 . S
C1900 C1899 1.398 . S
C1900 C1901 1.391 . S
C1901 H1889 0.950 . S
C1901 C1897 1.393 . S
C1901 C1900 1.391 . S
C1902 H1892 0.950 . S
C1902 C1903 1.386 . S
C1902 C1904 1.391 . S
C1903 C1902 1.386 . S
C1903 C1907 1.393 . S
C1904 H1893 0.950 . S
C1904 C1902 1.391 . S
C1904 C1905 1.400 . S
C1905 C1899 1.491 . S
C1905 C1904 1.400 . S
C1905 C1906 1.398 . S
C1906 H1894 0.950 . S
C1906 C1905 1.398 . S
C1906 C1907 1.391 . S
C1907 H1895 0.950 . S
C1907 C1903 1.393 . S
C1907 C1906 1.391 . S
H1908 C1916 0.950 . S
H1909 C1921 0.950 . S
H1910 C1918 0.950 . S
H1911 C1920 0.950 . S
H1912 C1922 0.950 . S
H1913 C1924 0.950 . S
H1914 C1926 0.950 . S
H1915 C1927 0.950 . S
C1916 H1908 0.950 . S
C1916 C1917 1.386 . S
C1916 C1918 1.391 . S
C1917 C1916 1.386 . S
C1917 C1921 1.393 . S
C1918 H1910 0.950 . S
C1918 C1916 1.391 . S
C1918 C1919 1.400 . S
C1919 C1918 1.400 . S
C1919 C1920 1.398 . S
C1919 C1925 1.491 . S
C1920 H1911 0.950 . S
C1920 C1919 1.398 . S
C1920 C1921 1.391 . S
C1921 H1909 0.950 . S
C1921 C1917 1.393 . S
C1921 C1920 1.391 . S
C1922 H1912 0.950 . S
C1922 C1923 1.386 . S
C1922 C1924 1.391 . S
C1923 C1922 1.386 . S
C1923 C1927 1.393 . S
C1924 H1913 0.950 . S
C1924 C1922 1.391 . S
C1924 C1925 1.400 . S
C1925 C1919 1.491 . S
C1925 C1924 1.400 . S
C1925 C1926 1.398 . S
C1926 H1914 0.950 . S
C1926 C1925 1.398 . S
C1926 C1927 1.391 . S
C1927 H1915 0.950 . S
C1927 C1923 1.393 . S
C1927 C1926 1.391 . S
H1928 C1936 0.950 . S
H1929 C1941 0.950 . S
H1930 C1938 0.950 . S
H1931 C1940 0.950 . S
H1932 C1942 0.950 . S
H1933 C1944 0.950 . S
H1934 C1946 0.950 . S
H1935 C1947 0.950 . S
C1936 H1928 0.950 . S
C1936 C1937 1.386 . S
C1936 C1938 1.391 . S
C1937 C1936 1.386 . S
C1937 C1941 1.393 . S
C1938 H1930 0.950 . S
C1938 C1936 1.391 . S
C1938 C1939 1.400 . S
C1939 C1938 1.400 . S
C1939 C1940 1.398 . S
C1939 C1945 1.491 . S
C1940 H1931 0.950 . S
C1940 C1939 1.398 . S
C1940 C1941 1.391 . S
C1941 H1929 0.950 . S
C1941 C1937 1.393 . S
C1941 C1940 1.391 . S
C1942 H1932 0.950 . S
C1942 C1943 1.386 . S
C1942 C1944 1.391 . S
C1943 C1942 1.386 . S
C1943 C1947 1.393 . S
C1944 H1933 0.950 . S
C1944 C1942 1.391 . S
C1944 C1945 1.400 . S
C1945 C1939 1.491 . S
C1945 C1944 1.400 . S
C1945 C1946 1.398 . S
C1946 H1934 0.950 . S
C1946 C1945 1.398 . S
C1946 C1947 1.391 . S
C1947 H1935 0.950 . S
C1947 C1943 1.393 . S
C1947 C1946 1.391 . S
H1948 C1956 0.950 . S
H1949 C1961 0.950 . S
H1950 C1958 0.950 . S
H1951 C1960 0.950 . S
H1952 C1962 0.950 . S
H1953 C1964 0.950 . S
H1954 C1966 0.950 . S
H1955 C1967 0.950 1_545 S
C1956 H1948 0.950 . S
C1956 C1957 1.386 . S
C1956 C1958 1.391 . S
C1957 C1956 1.386 . S
C1957 C1961 1.393 . S
C1958 H1950 0.950 . S
C1958 C1956 1.391 . S
C1958 C1959 1.400 . S
C1959 C1958 1.400 . S
C1959 C1960 1.398 . S
C1959 C1965 1.491 . S
C1960 H1951 0.950 . S
C1960 C1959 1.398 . S
C1960 C1961 1.391 . S
C1961 H1949 0.950 . S
C1961 C1957 1.393 . S
C1961 C1960 1.391 . S
C1962 H1952 0.950 . S
C1962 C1963 1.386 . S
C1962 C1964 1.391 . S
C1963 C1962 1.386 . S
C1963 C1967 1.393 . S
C1964 H1953 0.950 . S
C1964 C1962 1.391 . S
C1964 C1965 1.400 . S
C1965 C1959 1.491 . S
C1965 C1964 1.400 . S
C1965 C1966 1.398 . S
C1966 H1954 0.950 . S
C1966 C1965 1.398 . S
C1966 C1967 1.391 . S
C1967 H1955 0.950 1_565 S
C1967 C1963 1.393 . S
C1967 C1966 1.391 . S
H1968 C1976 0.950 . S
H1969 C1981 0.950 . S
H1970 C1978 0.950 . S
H1971 C1980 0.950 . S
H1972 C1982 0.950 . S
H1973 C1984 0.950 . S
H1974 C1986 0.950 . S
H1975 C1987 0.950 . S
C1976 H1968 0.950 . S
C1976 C1977 1.386 . S
C1976 C1978 1.391 . S
C1977 C1976 1.386 . S
C1977 C1981 1.393 . S
C1978 H1970 0.950 . S
C1978 C1976 1.391 . S
C1978 C1979 1.400 . S
C1979 C1978 1.400 . S
C1979 C1980 1.398 . S
C1979 C1985 1.491 . S
C1980 H1971 0.950 . S
C1980 C1979 1.398 . S
C1980 C1981 1.391 . S
C1981 H1969 0.950 . S
C1981 C1977 1.393 . S
C1981 C1980 1.391 . S
C1982 H1972 0.950 . S
C1982 C1983 1.386 . S
C1982 C1984 1.391 . S
C1983 C1982 1.386 . S
C1983 C1987 1.393 . S
C1984 H1973 0.950 . S
C1984 C1982 1.391 . S
C1984 C1985 1.400 . S
C1985 C1979 1.491 . S
C1985 C1984 1.400 . S
C1985 C1986 1.398 . S
C1986 H1974 0.950 . S
C1986 C1985 1.398 . S
C1986 C1987 1.391 . S
C1987 H1975 0.950 . S
C1987 C1983 1.393 . S
C1987 C1986 1.391 . S
H1988 C1996 0.950 . S
H1989 C2001 0.950 . S
H1990 C1998 0.950 . S
H1991 C2000 0.950 . S
H1992 C2002 0.950 . S
H1993 C2004 0.950 . S
H1994 C2006 0.950 . S
H1995 C2007 1.003 . S
C1996 H1988 0.950 . S
C1996 C1997 1.386 1_556 S
C1996 C1998 1.391 . S
C1997 C1996 1.386 1_554 S
C1997 C2001 1.393 . S
C1998 H1990 0.950 . S
C1998 C1996 1.391 . S
C1998 C1999 1.400 1_556 S
C1999 C1998 1.400 1_554 S
C1999 C2000 1.398 . S
C1999 C2005 1.491 . S
C2000 H1991 0.950 . S
C2000 C1999 1.398 . S
C2000 C2001 1.391 . S
C2001 H1989 0.950 . S
C2001 C1997 1.393 . S
C2001 C2000 1.391 . S
C2002 H1992 0.950 . S
C2002 C2003 1.386 . S
C2002 C2004 1.391 . S
C2003 C2002 1.386 . S
C2003 C2007 1.373 1_554 S
C2004 H1993 0.950 . S
C2004 C2002 1.391 . S
C2004 C2005 1.400 . S
C2005 C1999 1.491 . S
C2005 C2004 1.400 . S
C2005 C2006 1.398 1_554 S
C2006 H1994 0.950 . S
C2006 C2005 1.398 1_556 S
C2006 C2007 1.393 . S
C2007 H1995 1.003 . S
C2007 C2003 1.373 1_556 S
C2007 C2006 1.393 . S
H2008 C2016 0.950 . S
H2009 C2021 0.950 . S
H2010 C2018 0.950 . S
H2011 C2020 0.950 . S
H2012 C2022 0.950 . S
H2013 C2024 0.950 . S
H2014 C2026 0.950 . S
H2015 C2027 0.950 . S
C2016 H2008 0.950 . S
C2016 C2017 1.386 . S
C2016 C2018 1.391 . S
C2017 C2016 1.386 . S
C2017 C2021 1.393 . S
C2018 H2010 0.950 . S
C2018 C2016 1.391 . S
C2018 C2019 1.400 . S
C2019 C2018 1.400 . S
C2019 C2020 1.398 . S
C2019 C2025 1.491 . S
C2020 H2011 0.950 . S
C2020 C2019 1.398 . S
C2020 C2021 1.391 . S
C2021 H2009 0.950 . S
C2021 C2017 1.393 . S
C2021 C2020 1.391 . S
C2022 H2012 0.950 . S
C2022 C2023 1.386 . S
C2022 C2024 1.391 . S
C2023 C2022 1.386 . S
C2023 C2027 1.393 . S
C2024 H2013 0.950 . S
C2024 C2022 1.391 . S
C2024 C2025 1.400 . S
C2025 C2019 1.491 . S
C2025 C2024 1.400 . S
C2025 C2026 1.398 . S
C2026 H2014 0.950 . S
C2026 C2025 1.398 . S
C2026 C2027 1.391 . S
C2027 H2015 0.950 . S
C2027 C2023 1.393 . S
C2027 C2026 1.391 . S
H2028 C2036 0.950 . S
H2029 C2041 0.950 . S
H2030 C2038 0.950 . S
H2031 C2040 0.950 . S
H2032 C2042 0.950 . S
H2033 C2044 0.950 . S
H2034 C2046 0.950 . S
H2035 C2047 0.950 . S
C2036 H2028 0.950 . S
C2036 C2037 1.386 . S
C2036 C2038 1.391 . S
C2037 C2036 1.386 . S
C2037 C2041 1.393 1_554 S
C2038 H2030 0.950 . S
C2038 C2036 1.391 . S
C2038 C2039 1.400 . S
C2039 C2038 1.400 . S
C2039 C2040 1.398 1_554 S
C2039 C2045 1.490 . S
C2040 H2031 0.950 . S
C2040 C2039 1.398 1_556 S
C2040 C2041 1.391 . S
C2041 H2029 0.950 . S
C2041 C2037 1.393 1_556 S
C2041 C2040 1.391 . S
C2042 H2032 0.950 . S
C2042 C2043 1.386 . S
C2042 C2044 1.391 . S
C2043 C2042 1.386 . S
C2043 C2047 1.393 1_556 S
C2044 H2033 0.950 . S
C2044 C2042 1.391 . S
C2044 C2045 1.402 1_556 S
C2045 C2039 1.490 . S
C2045 C2044 1.402 1_554 S
C2045 C2046 1.397 . S
C2046 H2034 0.950 . S
C2046 C2045 1.397 . S
C2046 C2047 1.391 . S
C2047 H2035 0.950 . S
C2047 C2043 1.393 1_554 S
C2047 C2046 1.391 . S
H2048 C2056 0.950 . S
H2049 C2061 0.950 . S
H2050 C2058 0.950 . S
H2051 C2060 0.950 . S
H2052 C2062 0.950 . S
H2053 C2064 0.950 . S
H2054 C2066 0.950 . S
H2055 C2067 0.950 . S
C2056 H2048 0.950 . S
C2056 C2057 1.386 . S
C2056 C2058 1.391 . S
C2057 C2056 1.386 . S
C2057 C2061 1.393 . S
C2058 H2050 0.950 . S
C2058 C2056 1.391 . S
C2058 C2059 1.400 . S
C2059 C2058 1.400 . S
C2059 C2060 1.398 . S
C2059 C2065 1.491 . S
C2060 H2051 0.950 . S
C2060 C2059 1.398 . S
C2060 C2061 1.391 . S
C2061 H2049 0.950 . S
C2061 C2057 1.393 . S
C2061 C2060 1.391 . S
C2062 H2052 0.950 . S
C2062 C2063 1.386 . S
C2062 C2064 1.391 . S
C2063 C2062 1.386 . S
C2063 C2067 1.393 . S
C2064 H2053 0.950 . S
C2064 C2062 1.391 . S
C2064 C2065 1.400 . S
C2065 C2059 1.491 . S
C2065 C2064 1.400 . S
C2065 C2066 1.398 . S
C2066 H2054 0.950 . S
C2066 C2065 1.398 . S
C2066 C2067 1.391 . S
C2067 H2055 0.950 . S
C2067 C2063 1.393 . S
C2067 C2066 1.391 . S
H2068 C2076 0.950 . S
H2069 C2081 0.950 . S
H2070 C2078 0.950 . S
H2071 C2080 0.950 . S
H2072 C2082 0.950 . S
H2073 C2084 0.950 . S
H2074 C2086 0.950 . S
H2075 C2087 0.950 . S
C2076 H2068 0.950 . S
C2076 C2077 1.386 . S
C2076 C2078 1.391 . S
C2077 C2076 1.386 . S
C2077 C2081 1.393 . S
C2078 H2070 0.950 . S
C2078 C2076 1.391 . S
C2078 C2079 1.400 . S
C2079 C2078 1.400 . S
C2079 C2080 1.398 . S
C2079 C2085 1.491 . S
C2080 H2071 0.950 . S
C2080 C2079 1.398 . S
C2080 C2081 1.391 . S
C2081 H2069 0.950 . S
C2081 C2077 1.393 . S
C2081 C2080 1.391 . S
C2082 H2072 0.950 . S
C2082 C2083 1.386 . S
C2082 C2084 1.391 . S
C2083 C2082 1.386 . S
C2083 C2087 1.393 . S
C2084 H2073 0.950 . S
C2084 C2082 1.391 . S
C2084 C2085 1.400 . S
C2085 C2079 1.491 . S
C2085 C2084 1.400 . S
C2085 C2086 1.398 . S
C2086 H2074 0.950 . S
C2086 C2085 1.398 . S
C2086 C2087 1.391 . S
C2087 H2075 0.950 . S
C2087 C2083 1.393 . S
C2087 C2086 1.391 . S
H2088 C2096 0.950 . S
H2089 C2101 0.950 . S
H2090 C2098 0.950 . S
H2091 C2100 0.950 . S
H2092 C2102 0.950 . S
H2093 C2104 0.950 . S
H2094 C2106 0.950 . S
H2095 C2107 0.950 . S
C2096 H2088 0.950 . S
C2096 C2097 1.386 . S
C2096 C2098 1.391 . S
C2097 C2096 1.386 . S
C2097 C2101 1.393 . S
C2098 H2090 0.950 . S
C2098 C2096 1.391 . S
C2098 C2099 1.400 . S
C2099 C2098 1.400 . S
C2099 C2100 1.398 . S
C2099 C2105 1.491 . S
C2100 H2091 0.950 . S
C2100 C2099 1.398 . S
C2100 C2101 1.391 . S
C2101 H2089 0.950 . S
C2101 C2097 1.393 . S
C2101 C2100 1.391 . S
C2102 H2092 0.950 . S
C2102 C2103 1.386 . S
C2102 C2104 1.391 . S
C2103 C2102 1.386 . S
C2103 C2107 1.393 . S
C2104 H2093 0.950 . S
C2104 C2102 1.391 . S
C2104 C2105 1.400 . S
C2105 C2099 1.491 . S
C2105 C2104 1.400 . S
C2105 C2106 1.398 . S
C2106 H2094 0.950 . S
C2106 C2105 1.398 . S
C2106 C2107 1.391 . S
C2107 H2095 0.950 . S
C2107 C2103 1.393 . S
C2107 C2106 1.391 . S
H2108 C2116 0.950 . S
H2109 C2121 0.950 . S
H2110 C2118 0.950 . S
H2111 C2120 0.950 . S
H2112 C2122 0.950 . S
H2113 C2124 0.950 . S
H2114 C2126 0.950 . S
H2115 C2127 0.950 . S
C2116 H2108 0.950 . S
C2116 C2117 1.386 . S
C2116 C2118 1.391 . S
C2117 C2116 1.386 . S
C2117 C2121 1.393 . S
C2118 H2110 0.950 . S
C2118 C2116 1.391 . S
C2118 C2119 1.400 . S
C2119 C2118 1.400 . S
C2119 C2120 1.398 . S
C2119 C2125 1.491 . S
C2120 H2111 0.950 . S
C2120 C2119 1.398 . S
C2120 C2121 1.391 . S
C2121 H2109 0.950 . S
C2121 C2117 1.393 . S
C2121 C2120 1.391 . S
C2122 H2112 0.950 . S
C2122 C2123 1.386 . S
C2122 C2124 1.391 . S
C2123 C2122 1.386 . S
C2123 C2127 1.393 . S
C2124 H2113 0.950 . S
C2124 C2122 1.391 . S
C2124 C2125 1.400 . S
C2125 C2119 1.491 . S
C2125 C2124 1.400 . S
C2125 C2126 1.398 . S
C2126 H2114 0.950 . S
C2126 C2125 1.398 . S
C2126 C2127 1.391 . S
C2127 H2115 0.950 . S
C2127 C2123 1.393 . S
C2127 C2126 1.391 . S
H2128 C2136 0.950 . S
H2129 C2141 0.950 . S
H2130 C2138 0.950 . S
H2131 C2140 0.950 . S
H2132 C2142 0.950 . S
H2133 C2144 0.950 . S
H2134 C2146 0.950 . S
H2135 C2147 0.950 . S
C2136 H2128 0.950 . S
C2136 C2137 1.386 . S
C2136 C2138 1.391 . S
C2137 C2136 1.386 . S
C2137 C2141 1.393 1_455 S
C2138 H2130 0.950 . S
C2138 C2136 1.391 . S
C2138 C2139 1.400 1_455 S
C2139 C2138 1.400 1_655 S
C2139 C2140 1.398 . S
C2139 C2145 1.491 . S
C2140 H2131 0.950 . S
C2140 C2139 1.398 . S
C2140 C2141 1.391 . S
C2141 H2129 0.950 . S
C2141 C2137 1.393 1_655 S
C2141 C2140 1.391 . S
C2142 H2132 0.950 . S
C2142 C2143 1.386 . S
C2142 C2144 1.391 . S
C2143 C2142 1.386 . S
C2143 C2147 1.393 1_655 S
C2144 H2133 0.950 . S
C2144 C2142 1.391 . S
C2144 C2145 1.400 . S
C2145 C2139 1.491 . S
C2145 C2144 1.400 . S
C2145 C2146 1.398 1_655 S
C2146 H2134 0.950 . S
C2146 C2145 1.398 1_455 S
C2146 C2147 1.391 . S
C2147 H2135 0.950 . S
C2147 C2143 1.393 1_455 S
C2147 C2146 1.391 . S
H2148 C2156 0.950 . S
H2149 C2161 0.950 . S
H2150 C2158 0.950 . S
H2151 C2160 0.950 . S
H2152 C2162 0.950 . S
H2153 C2164 0.950 . S
H2154 C2166 0.950 . S
H2155 C2167 0.950 . S
C2156 H2148 0.950 . S
C2156 C2157 1.386 . S
C2156 C2158 1.391 . S
C2157 C2156 1.386 . S
C2157 C2161 1.393 . S
C2158 H2150 0.950 . S
C2158 C2156 1.391 . S
C2158 C2159 1.400 . S
C2159 C2158 1.400 . S
C2159 C2160 1.398 . S
C2159 C2165 1.491 . S
C2160 H2151 0.950 . S
C2160 C2159 1.398 . S
C2160 C2161 1.391 . S
C2161 H2149 0.950 . S
C2161 C2157 1.393 . S
C2161 C2160 1.391 . S
C2162 H2152 0.950 . S
C2162 C2163 1.386 . S
C2162 C2164 1.391 . S
C2163 C2162 1.386 . S
C2163 C2167 1.393 . S
C2164 H2153 0.950 . S
C2164 C2162 1.391 . S
C2164 C2165 1.400 . S
C2165 C2159 1.491 . S
C2165 C2164 1.400 . S
C2165 C2166 1.398 . S
C2166 H2154 0.950 . S
C2166 C2165 1.398 . S
C2166 C2167 1.391 . S
C2167 H2155 0.950 . S
C2167 C2163 1.393 . S
C2167 C2166 1.391 . S
H2168 C2176 0.950 . S
H2169 C2181 0.950 . S
H2170 C2178 0.950 . S
H2171 C2180 0.950 . S
H2172 C2182 0.950 . S
H2173 C2184 0.950 . S
H2174 C2186 0.950 . S
H2175 C2187 0.950 . S
C2176 H2168 0.950 . S
C2176 C2177 1.386 . S
C2176 C2178 1.391 . S
C2177 C2176 1.386 . S
C2177 C2181 1.393 . S
C2178 H2170 0.950 . S
C2178 C2176 1.391 . S
C2178 C2179 1.400 . S
C2179 C2178 1.400 . S
C2179 C2180 1.398 . S
C2179 C2185 1.491 . S
C2180 H2171 0.950 . S
C2180 C2179 1.398 . S
C2180 C2181 1.391 . S
C2181 H2169 0.950 . S
C2181 C2177 1.393 . S
C2181 C2180 1.391 . S
C2182 H2172 0.950 . S
C2182 C2183 1.386 . S
C2182 C2184 1.391 . S
C2183 C2182 1.386 . S
C2183 C2187 1.393 . S
C2184 H2173 0.950 . S
C2184 C2182 1.391 . S
C2184 C2185 1.400 . S
C2185 C2179 1.491 . S
C2185 C2184 1.400 . S
C2185 C2186 1.398 . S
C2186 H2174 0.950 . S
C2186 C2185 1.398 . S
C2186 C2187 1.391 . S
C2187 H2175 0.950 . S
C2187 C2183 1.393 . S
C2187 C2186 1.391 . S
H2188 C2196 0.950 . S
H2189 C2201 0.950 . S
H2190 C2198 0.950 . S
H2191 C2200 0.950 . S
H2192 C2202 0.950 . S
H2193 C2204 0.950 . S
H2194 C2206 0.950 . S
H2195 C2207 0.950 . S
C2196 H2188 0.950 . S
C2196 C2197 1.386 . S
C2196 C2198 1.391 . S
C2197 C2196 1.386 . S
C2197 C2201 1.393 . S
C2198 H2190 0.950 . S
C2198 C2196 1.391 . S
C2198 C2199 1.400 . S
C2199 C2198 1.400 . S
C2199 C2200 1.398 . S
C2199 C2205 1.491 . S
C2200 H2191 0.950 . S
C2200 C2199 1.398 . S
C2200 C2201 1.391 . S
C2201 H2189 0.950 . S
C2201 C2197 1.393 . S
C2201 C2200 1.391 . S
C2202 H2192 0.950 . S
C2202 C2203 1.386 . S
C2202 C2204 1.391 . S
C2203 C2202 1.386 . S
C2203 C2207 1.393 . S
C2204 H2193 0.950 . S
C2204 C2202 1.391 . S
C2204 C2205 1.400 . S
C2205 C2199 1.491 . S
C2205 C2204 1.400 . S
C2205 C2206 1.398 . S
C2206 H2194 0.950 . S
C2206 C2205 1.398 . S
C2206 C2207 1.391 . S
C2207 H2195 0.950 . S
C2207 C2203 1.393 . S
C2207 C2206 1.391 . S
H2208 C2216 0.949 1_655 S
H2209 C2221 0.950 . S
H2210 C2218 0.950 . S
H2211 C2220 0.950 . S
H2212 C2222 0.950 . S
H2213 C2224 0.954 . S
H2214 C2226 0.950 . S
H2215 C2227 0.950 . S
C2216 H2208 0.949 1_455 S
C2216 C2217 1.386 . S
C2216 C2218 1.391 1_455 S
C2217 C2216 1.386 . S
C2217 C2221 1.393 . S
C2218 H2210 0.950 . S
C2218 C2216 1.391 1_655 S
C2218 C2219 1.402 . S
C2219 C2218 1.402 . S
C2219 C2220 1.393 1_655 S
C2219 C2225 1.495 . S
C2220 H2211 0.950 . S
C2220 C2219 1.393 1_455 S
C2220 C2221 1.391 . S
C2221 H2209 0.950 . S
C2221 C2217 1.393 . S
C2221 C2220 1.391 . S
C2222 H2212 0.950 . S
C2222 C2223 1.386 . S
C2222 C2224 1.391 . S
C2223 C2222 1.386 . S
C2223 C2227 1.393 . S
C2224 H2213 0.954 . S
C2224 C2222 1.391 . S
C2224 C2225 1.400 . S
C2225 C2219 1.495 . S
C2225 C2224 1.400 . S
C2225 C2226 1.398 . S
C2226 H2214 0.950 . S
C2226 C2225 1.398 . S
C2226 C2227 1.391 . S
C2227 H2215 0.950 . S
C2227 C2223 1.393 . S
C2227 C2226 1.391 . S
H2228 C2236 0.950 . S
H2229 C2241 0.950 . S
H2230 C2238 0.950 . S
H2231 C2240 0.950 . S
H2232 C2242 0.950 . S
H2233 C2244 0.950 . S
H2234 C2246 0.950 . S
H2235 C2247 0.950 . S
C2236 H2228 0.950 . S
C2236 C2237 1.386 . S
C2236 C2238 1.391 . S
C2237 C2236 1.386 . S
C2237 C2241 1.393 . S
C2238 H2230 0.950 . S
C2238 C2236 1.391 . S
C2238 C2239 1.400 . S
C2239 C2238 1.400 . S
C2239 C2240 1.398 . S
C2239 C2245 1.491 . S
C2240 H2231 0.950 . S
C2240 C2239 1.398 . S
C2240 C2241 1.391 . S
C2241 H2229 0.950 . S
C2241 C2237 1.393 . S
C2241 C2240 1.391 . S
C2242 H2232 0.950 . S
C2242 C2243 1.386 . S
C2242 C2244 1.391 . S
C2243 C2242 1.386 . S
C2243 C2247 1.393 . S
C2244 H2233 0.950 . S
C2244 C2242 1.391 . S
C2244 C2245 1.400 . S
C2245 C2239 1.491 . S
C2245 C2244 1.400 . S
C2245 C2246 1.398 . S
C2246 H2234 0.950 . S
C2246 C2245 1.398 . S
C2246 C2247 1.391 . S
C2247 H2235 0.950 . S
C2247 C2243 1.393 . S
C2247 C2246 1.391 . S
H2248 C2256 0.950 . S
H2249 C2261 0.950 . S
H2250 C2258 0.950 . S
H2251 C2260 0.950 . S
H2252 C2262 0.950 . S
H2253 C2264 0.950 . S
H2254 C2266 0.950 . S
H2255 C2267 0.950 . S
C2256 H2248 0.950 . S
C2256 C2257 1.386 . S
C2256 C2258 1.391 . S
C2257 C2256 1.386 . S
C2257 C2261 1.393 . S
C2258 H2250 0.950 . S
C2258 C2256 1.391 . S
C2258 C2259 1.400 . S
C2259 C2258 1.400 . S
C2259 C2260 1.398 . S
C2259 C2265 1.491 . S
C2260 H2251 0.950 . S
C2260 C2259 1.398 . S
C2260 C2261 1.391 . S
C2261 H2249 0.950 . S
C2261 C2257 1.393 . S
C2261 C2260 1.391 . S
C2262 H2252 0.950 . S
C2262 C2263 1.386 . S
C2262 C2264 1.391 . S
C2263 C2262 1.386 . S
C2263 C2267 1.393 . S
C2264 H2253 0.950 . S
C2264 C2262 1.391 . S
C2264 C2265 1.400 . S
C2265 C2259 1.491 . S
C2265 C2264 1.400 . S
C2265 C2266 1.398 . S
C2266 H2254 0.950 . S
C2266 C2265 1.398 . S
C2266 C2267 1.391 . S
C2267 H2255 0.950 . S
C2267 C2263 1.393 . S
C2267 C2266 1.391 . S
H2268 C2276 0.950 . S
H2269 C2281 0.950 . S
H2270 C2278 0.950 . S
H2271 C2280 0.950 . S
H2272 C2282 0.950 . S
H2273 C2284 0.950 . S
H2274 C2286 0.950 . S
H2275 C2287 0.950 . S
C2276 H2268 0.950 . S
C2276 C2277 1.386 . S
C2276 C2278 1.391 . S
C2277 C2276 1.386 . S
C2277 C2281 1.393 . S
C2278 H2270 0.950 . S
C2278 C2276 1.391 . S
C2278 C2279 1.400 . S
C2279 C2278 1.400 . S
C2279 C2280 1.398 . S
C2279 C2285 1.491 . S
C2280 H2271 0.950 . S
C2280 C2279 1.398 . S
C2280 C2281 1.391 . S
C2281 H2269 0.950 . S
C2281 C2277 1.393 . S
C2281 C2280 1.391 . S
C2282 H2272 0.950 . S
C2282 C2283 1.386 . S
C2282 C2284 1.391 . S
C2283 C2282 1.386 . S
C2283 C2287 1.393 . S
C2284 H2273 0.950 . S
C2284 C2282 1.391 . S
C2284 C2285 1.400 . S
C2285 C2279 1.491 . S
C2285 C2284 1.400 . S
C2285 C2286 1.398 . S
C2286 H2274 0.950 . S
C2286 C2285 1.398 . S
C2286 C2287 1.391 . S
C2287 H2275 0.950 . S
C2287 C2283 1.393 . S
C2287 C2286 1.391 . S
H2288 C2296 0.950 . S
H2289 C2301 0.950 . S
H2290 C2298 0.950 . S
H2291 C2300 0.950 . S
H2292 C2302 0.950 . S
H2293 C2304 0.950 . S
H2294 C2306 0.950 . S
H2295 C2307 0.950 . S
C2296 H2288 0.950 . S
C2296 C2297 1.386 . S
C2296 C2298 1.391 . S
C2297 C2296 1.386 . S
C2297 C2301 1.393 . S
C2298 H2290 0.950 . S
C2298 C2296 1.391 . S
C2298 C2299 1.400 . S
C2299 C2298 1.400 . S
C2299 C2300 1.398 . S
C2299 C2305 1.491 . S
C2300 H2291 0.950 . S
C2300 C2299 1.398 . S
C2300 C2301 1.391 . S
C2301 H2289 0.950 . S
C2301 C2297 1.393 . S
C2301 C2300 1.391 . S
C2302 H2292 0.950 . S
C2302 C2303 1.386 . S
C2302 C2304 1.391 . S
C2303 C2302 1.386 . S
C2303 C2307 1.393 . S
C2304 H2293 0.950 . S
C2304 C2302 1.391 . S
C2304 C2305 1.400 . S
C2305 C2299 1.491 . S
C2305 C2304 1.400 . S
C2305 C2306 1.398 . S
C2306 H2294 0.950 . S
C2306 C2305 1.398 . S
C2306 C2307 1.391 . S
C2307 H2295 0.950 . S
C2307 C2303 1.393 . S
C2307 C2306 1.391 . S
H2308 C2316 0.950 . S
H2309 C2321 0.950 . S
H2310 C2318 0.950 . S
H2311 C2320 0.950 . S
H2312 C2322 0.950 . S
H2313 C2324 0.950 . S
H2314 C2326 0.950 . S
H2315 C2327 0.950 . S
C2316 H2308 0.950 . S
C2316 C2317 1.386 . S
C2316 C2318 1.391 . S
C2317 C2316 1.386 . S
C2317 C2321 1.393 . S
C2318 H2310 0.950 . S
C2318 C2316 1.391 . S
C2318 C2319 1.400 . S
C2319 C2318 1.400 . S
C2319 C2320 1.398 . S
C2319 C2325 1.491 . S
C2320 H2311 0.950 . S
C2320 C2319 1.398 . S
C2320 C2321 1.391 . S
C2321 H2309 0.950 . S
C2321 C2317 1.393 . S
C2321 C2320 1.391 . S
C2322 H2312 0.950 . S
C2322 C2323 1.386 . S
C2322 C2324 1.391 . S
C2323 C2322 1.386 . S
C2323 C2327 1.393 . S
C2324 H2313 0.950 . S
C2324 C2322 1.391 . S
C2324 C2325 1.400 . S
C2325 C2319 1.491 . S
C2325 C2324 1.400 . S
C2325 C2326 1.398 . S
C2326 H2314 0.950 . S
C2326 C2325 1.398 . S
C2326 C2327 1.391 . S
C2327 H2315 0.950 . S
C2327 C2323 1.393 . S
C2327 C2326 1.391 . S
H2328 C2336 0.950 . S
H2329 C2341 0.950 . S
H2330 C2338 0.950 . S
H2331 C2340 0.950 . S
H2332 C2342 0.950 . S
H2333 C2344 0.950 . S
H2334 C2346 0.950 . S
H2335 C2347 0.950 . S
C2336 H2328 0.950 . S
C2336 C2337 1.386 . S
C2336 C2338 1.391 . S
C2337 C2336 1.386 . S
C2337 C2341 1.393 . S
C2338 H2330 0.950 . S
C2338 C2336 1.391 . S
C2338 C2339 1.400 . S
C2339 C2338 1.400 . S
C2339 C2340 1.398 . S
C2339 C2345 1.491 . S
C2340 H2331 0.950 . S
C2340 C2339 1.398 . S
C2340 C2341 1.391 . S
C2341 H2329 0.950 . S
C2341 C2337 1.393 . S
C2341 C2340 1.391 . S
C2342 H2332 0.950 . S
C2342 C2343 1.386 . S
C2342 C2344 1.391 . S
C2343 C2342 1.386 . S
C2343 C2347 1.393 . S
C2344 H2333 0.950 . S
C2344 C2342 1.391 . S
C2344 C2345 1.400 . S
C2345 C2339 1.491 . S
C2345 C2344 1.400 . S
C2345 C2346 1.398 . S
C2346 H2334 0.950 . S
C2346 C2345 1.398 . S
C2346 C2347 1.391 . S
C2347 H2335 0.950 . S
C2347 C2343 1.393 . S
C2347 C2346 1.391 . S
H2348 C2356 0.950 . S
H2349 C2361 0.950 . S
H2350 C2358 0.950 . S
H2351 C2360 0.950 . S
H2352 C2362 0.950 . S
H2353 C2364 0.950 . S
H2354 C2366 0.950 . S
H2355 C2367 0.950 . S
C2356 H2348 0.950 . S
C2356 C2357 1.386 . S
C2356 C2358 1.391 . S
C2357 C2356 1.386 . S
C2357 C2361 1.393 . S
C2358 H2350 0.950 . S
C2358 C2356 1.391 . S
C2358 C2359 1.400 . S
C2359 C2358 1.400 . S
C2359 C2360 1.398 . S
C2359 C2365 1.491 . S
C2360 H2351 0.950 . S
C2360 C2359 1.398 . S
C2360 C2361 1.391 . S
C2361 H2349 0.950 . S
C2361 C2357 1.393 . S
C2361 C2360 1.391 . S
C2362 H2352 0.950 . S
C2362 C2363 1.386 . S
C2362 C2364 1.391 . S
C2363 C2362 1.386 . S
C2363 C2367 1.393 . S
C2364 H2353 0.950 . S
C2364 C2362 1.391 . S
C2364 C2365 1.400 . S
C2365 C2359 1.491 . S
C2365 C2364 1.400 . S
C2365 C2366 1.398 . S
C2366 H2354 0.950 . S
C2366 C2365 1.398 . S
C2366 C2367 1.391 . S
C2367 H2355 0.950 . S
C2367 C2363 1.393 . S
C2367 C2366 1.391 . S
H2368 C2376 0.950 . S
H2369 C2381 0.950 . S
H2370 C2378 0.950 . S
H2371 C2380 0.950 . S
H2372 C2382 0.991 . S
H2373 C2384 0.950 . S
H2374 C2386 0.950 . S
H2375 C2387 0.950 . S
C2376 H2368 0.950 . S
C2376 C2377 1.386 . S
C2376 C2378 1.391 . S
C2377 C2376 1.386 . S
C2377 C2381 1.393 . S
C2378 H2370 0.950 . S
C2378 C2376 1.391 . S
C2378 C2379 1.400 . S
C2379 C2378 1.400 . S
C2379 C2380 1.398 . S
C2379 C2385 1.491 . S
C2380 H2371 0.950 . S
C2380 C2379 1.398 . S
C2380 C2381 1.391 . S
C2381 H2369 0.950 . S
C2381 C2377 1.393 . S
C2381 C2380 1.391 . S
C2382 H2372 0.991 . S
C2382 C2383 1.386 . S
C2382 C2384 1.391 . S
C2383 C2382 1.386 . S
C2383 C2387 1.393 . S
C2384 H2373 0.950 . S
C2384 C2382 1.391 . S
C2384 C2385 1.400 . S
C2385 C2379 1.491 . S
C2385 C2384 1.400 . S
C2385 C2386 1.398 . S
C2386 H2374 0.950 . S
C2386 C2385 1.398 . S
C2386 C2387 1.391 . S
C2387 H2375 0.950 . S
C2387 C2383 1.393 . S
C2387 C2386 1.391 . S
H2388 C2396 0.950 . S
H2389 C2401 0.950 . S
H2390 C2398 0.950 . S
H2391 C2400 0.950 . S
H2392 C2402 0.950 . S
H2393 C2404 0.950 . S
H2394 C2406 0.950 . S
H2395 C2407 0.950 . S
C2396 H2388 0.950 . S
C2396 C2397 1.386 . S
C2396 C2398 1.391 . S
C2397 C2396 1.386 . S
C2397 C2401 1.393 . S
C2398 H2390 0.950 . S
C2398 C2396 1.391 . S
C2398 C2399 1.400 . S
C2399 C2398 1.400 . S
C2399 C2400 1.398 . S
C2399 C2405 1.491 . S
C2400 H2391 0.950 . S
C2400 C2399 1.398 . S
C2400 C2401 1.391 . S
C2401 H2389 0.950 . S
C2401 C2397 1.393 . S
C2401 C2400 1.391 . S
C2402 H2392 0.950 . S
C2402 C2403 1.386 . S
C2402 C2404 1.391 . S
C2403 C2402 1.386 . S
C2403 C2407 1.393 . S
C2404 H2393 0.950 . S
C2404 C2402 1.391 . S
C2404 C2405 1.400 . S
C2405 C2399 1.491 . S
C2405 C2404 1.400 . S
C2405 C2406 1.398 . S
C2406 H2394 0.950 . S
C2406 C2405 1.398 . S
C2406 C2407 1.391 . S
C2407 H2395 0.950 . S
C2407 C2403 1.393 . S
C2407 C2406 1.391 . S
H2408 C2416 0.950 . S
H2409 C2421 0.950 . S
H2410 C2418 0.950 . S
H2411 C2420 0.950 . S
H2412 C2422 0.950 . S
H2413 C2424 0.950 . S
H2414 C2426 0.950 . S
H2415 C2427 0.950 . S
C2416 H2408 0.950 . S
C2416 C2417 1.386 . S
C2416 C2418 1.391 . S
C2417 C2416 1.386 . S
C2417 C2421 1.393 . S
C2418 H2410 0.950 . S
C2418 C2416 1.391 . S
C2418 C2419 1.400 . S
C2419 C2418 1.400 . S
C2419 C2420 1.398 . S
C2419 C2425 1.491 . S
C2420 H2411 0.950 . S
C2420 C2419 1.398 . S
C2420 C2421 1.391 . S
C2421 H2409 0.950 . S
C2421 C2417 1.393 . S
C2421 C2420 1.391 . S
C2422 H2412 0.950 . S
C2422 C2423 1.386 . S
C2422 C2424 1.391 . S
C2423 C2422 1.386 . S
C2423 C2427 1.393 . S
C2424 H2413 0.950 . S
C2424 C2422 1.391 . S
C2424 C2425 1.400 . S
C2425 C2419 1.491 . S
C2425 C2424 1.400 . S
C2425 C2426 1.398 . S
C2426 H2414 0.950 . S
C2426 C2425 1.398 . S
C2426 C2427 1.391 . S
C2427 H2415 0.950 . S
C2427 C2423 1.393 . S
C2427 C2426 1.391 . S
H2428 C2436 0.950 . S
H2429 C2441 0.950 . S
H2430 C2438 0.950 . S
H2431 C2440 0.950 . S
H2432 C2442 0.950 . S
H2433 C2444 0.950 . S
H2434 C2446 0.950 . S
H2435 C2447 0.950 . S
C2436 H2428 0.950 . S
C2436 C2437 1.386 . S
C2436 C2438 1.391 . S
C2437 C2436 1.386 . S
C2437 C2441 1.393 . S
C2438 H2430 0.950 . S
C2438 C2436 1.391 . S
C2438 C2439 1.400 . S
C2439 C2438 1.400 . S
C2439 C2440 1.398 . S
C2439 C2445 1.491 . S
C2440 H2431 0.950 . S
C2440 C2439 1.398 . S
C2440 C2441 1.391 . S
C2441 H2429 0.950 . S
C2441 C2437 1.393 . S
C2441 C2440 1.391 . S
C2442 H2432 0.950 . S
C2442 C2443 1.386 . S
C2442 C2444 1.391 . S
C2443 C2442 1.386 . S
C2443 C2447 1.393 . S
C2444 H2433 0.950 . S
C2444 C2442 1.391 . S
C2444 C2445 1.400 . S
C2445 C2439 1.491 . S
C2445 C2444 1.400 . S
C2445 C2446 1.398 . S
C2446 H2434 0.950 . S
C2446 C2445 1.398 . S
C2446 C2447 1.391 . S
C2447 H2435 0.950 . S
C2447 C2443 1.393 . S
C2447 C2446 1.391 . S
H2448 C2456 0.950 . S
H2449 C2461 0.950 . S
H2450 C2458 0.950 . S
H2451 C2460 0.950 . S
H2452 C2462 0.950 . S
H2453 C2464 0.950 . S
H2454 C2466 0.950 . S
H2455 C2467 0.950 . S
C2456 H2448 0.950 . S
C2456 C2457 1.386 . S
C2456 C2458 1.391 . S
C2457 C2456 1.386 . S
C2457 C2461 1.393 . S
C2458 H2450 0.950 . S
C2458 C2456 1.391 . S
C2458 C2459 1.400 . S
C2459 C2458 1.400 . S
C2459 C2460 1.398 . S
C2459 C2465 1.491 . S
C2460 H2451 0.950 . S
C2460 C2459 1.398 . S
C2460 C2461 1.391 . S
C2461 H2449 0.950 . S
C2461 C2457 1.393 . S
C2461 C2460 1.391 . S
C2462 H2452 0.950 . S
C2462 C2463 1.386 . S
C2462 C2464 1.391 . S
C2463 C2462 1.386 . S
C2463 C2467 1.393 . S
C2464 H2453 0.950 . S
C2464 C2462 1.391 . S
C2464 C2465 1.400 . S
C2465 C2459 1.491 . S
C2465 C2464 1.400 . S
C2465 C2466 1.398 . S
C2466 H2454 0.950 . S
C2466 C2465 1.398 . S
C2466 C2467 1.391 . S
C2467 H2455 0.950 . S
C2467 C2463 1.393 . S
C2467 C2466 1.391 . S
H2468 C2476 0.950 . S
H2469 C2481 0.950 . S
H2470 C2478 0.950 . S
H2471 C2480 0.950 . S
H2472 C2482 0.955 1_545 S
H2473 C2484 0.950 . S
H2474 C2486 0.950 . S
H2475 C2487 0.950 . S
C2476 H2468 0.950 . S
C2476 C2477 1.386 1_556 S
C2476 C2478 1.391 . S
C2477 C2476 1.386 1_554 S
C2477 C2481 1.393 . S
C2478 H2470 0.950 . S
C2478 C2476 1.391 . S
C2478 C2479 1.396 1_556 S
C2479 C2478 1.396 1_554 S
C2479 C2480 1.405 . S
C2479 C2485 1.488 1_554 S
C2480 H2471 0.950 . S
C2480 C2479 1.405 . S
C2480 C2481 1.391 . S
C2481 H2469 0.950 . S
C2481 C2477 1.393 . S
C2481 C2480 1.391 . S
C2482 H2472 0.955 1_565 S
C2482 C2483 1.378 1_554 S
C2482 C2484 1.394 . S
C2483 C2482 1.378 1_556 S
C2483 C2487 1.393 . S
C2484 H2473 0.950 . S
C2484 C2482 1.394 . S
C2484 C2485 1.400 1_554 S
C2485 C2479 1.488 1_556 S
C2485 C2484 1.400 1_556 S
C2485 C2486 1.398 . S
C2486 H2474 0.950 . S
C2486 C2485 1.398 . S
C2486 C2487 1.391 . S
C2487 H2475 0.950 . S
C2487 C2483 1.393 . S
C2487 C2486 1.391 . S
H2488 C2496 0.950 . S
H2489 C2501 0.950 . S
H2490 C2498 0.950 . S
H2491 C2500 0.950 . S
H2492 C2502 0.950 . S
H2493 C2504 0.950 . S
H2494 C2506 0.950 . S
H2495 C2507 0.950 . S
C2496 H2488 0.950 . S
C2496 C2497 1.386 . S
C2496 C2498 1.391 . S
C2497 C2496 1.386 . S
C2497 C2501 1.393 . S
C2498 H2490 0.950 . S
C2498 C2496 1.391 . S
C2498 C2499 1.400 . S
C2499 C2498 1.400 . S
C2499 C2500 1.398 . S
C2499 C2505 1.491 . S
C2500 H2491 0.950 . S
C2500 C2499 1.398 . S
C2500 C2501 1.391 . S
C2501 H2489 0.950 . S
C2501 C2497 1.393 . S
C2501 C2500 1.391 . S
C2502 H2492 0.950 . S
C2502 C2503 1.386 . S
C2502 C2504 1.391 . S
C2503 C2502 1.386 . S
C2503 C2507 1.393 . S
C2504 H2493 0.950 . S
C2504 C2502 1.391 . S
C2504 C2505 1.400 . S
C2505 C2499 1.491 . S
C2505 C2504 1.400 . S
C2505 C2506 1.398 . S
C2506 H2494 0.950 . S
C2506 C2505 1.398 . S
C2506 C2507 1.391 . S
C2507 H2495 0.950 . S
C2507 C2503 1.393 . S
C2507 C2506 1.391 . S
H2508 C2516 0.950 . S
H2509 C2521 0.950 . S
H2510 C2518 0.950 . S
H2511 C2520 0.950 . S
H2512 C2522 0.950 . S
H2513 C2524 0.950 . S
H2514 C2526 0.950 . S
H2515 C2527 0.950 . S
C2516 H2508 0.950 . S
C2516 C2517 1.386 1_556 S
C2516 C2518 1.391 . S
C2517 C2516 1.386 1_554 S
C2517 C2521 1.393 . S
C2518 H2510 0.950 . S
C2518 C2516 1.391 . S
C2518 C2519 1.400 1_556 S
C2519 C2518 1.400 1_554 S
C2519 C2520 1.398 . S
C2519 C2525 1.491 . S
C2520 H2511 0.950 . S
C2520 C2519 1.398 . S
C2520 C2521 1.391 . S
C2521 H2509 0.950 . S
C2521 C2517 1.393 . S
C2521 C2520 1.391 . S
C2522 H2512 0.950 . S
C2522 C2523 1.386 . S
C2522 C2524 1.391 . S
C2523 C2522 1.386 . S
C2523 C2527 1.393 1_554 S
C2524 H2513 0.950 . S
C2524 C2522 1.391 . S
C2524 C2525 1.400 . S
C2525 C2519 1.491 . S
C2525 C2524 1.400 . S
C2525 C2526 1.398 1_554 S
C2526 H2514 0.950 . S
C2526 C2525 1.398 1_556 S
C2526 C2527 1.391 . S
C2527 H2515 0.950 . S
C2527 C2523 1.393 1_556 S
C2527 C2526 1.391 . S
H2528 C2536 0.950 . S
H2529 C2541 0.950 . S
H2530 C2538 0.950 . S
H2531 C2540 0.950 . S
H2532 C2542 0.950 . S
H2533 C2544 0.950 . S
H2534 C2546 0.950 . S
H2535 C2547 0.950 . S
C2536 H2528 0.950 . S
C2536 C2537 1.386 . S
C2536 C2538 1.391 . S
C2537 C2536 1.386 . S
C2537 C2541 1.393 . S
C2538 H2530 0.950 . S
C2538 C2536 1.391 . S
C2538 C2539 1.400 . S
C2539 C2538 1.400 . S
C2539 C2540 1.398 . S
C2539 C2545 1.491 . S
C2540 H2531 0.950 . S
C2540 C2539 1.398 . S
C2540 C2541 1.391 . S
C2541 H2529 0.950 . S
C2541 C2537 1.393 . S
C2541 C2540 1.391 . S
C2542 H2532 0.950 . S
C2542 C2543 1.386 . S
C2542 C2544 1.391 . S
C2543 C2542 1.386 . S
C2543 C2547 1.393 . S
C2544 H2533 0.950 . S
C2544 C2542 1.391 . S
C2544 C2545 1.400 . S
C2545 C2539 1.491 . S
C2545 C2544 1.400 . S
C2545 C2546 1.398 . S
C2546 H2534 0.950 . S
C2546 C2545 1.398 . S
C2546 C2547 1.391 . S
C2547 H2535 0.950 . S
C2547 C2543 1.393 . S
C2547 C2546 1.391 . S
H2548 C2556 0.950 . S
H2549 C2561 0.950 . S
H2550 C2558 0.950 . S
H2551 C2560 0.950 . S
H2552 C2562 0.950 . S
H2553 C2564 0.950 . S
H2554 C2566 0.950 . S
H2555 C2567 0.950 . S
C2556 H2548 0.950 . S
C2556 C2557 1.386 . S
C2556 C2558 1.391 . S
C2557 C2556 1.386 . S
C2557 C2561 1.393 . S
C2558 H2550 0.950 . S
C2558 C2556 1.391 . S
C2558 C2559 1.400 . S
C2559 C2558 1.400 . S
C2559 C2560 1.398 . S
C2559 C2565 1.491 . S
C2560 H2551 0.950 . S
C2560 C2559 1.398 . S
C2560 C2561 1.391 . S
C2561 H2549 0.950 . S
C2561 C2557 1.393 . S
C2561 C2560 1.391 . S
C2562 H2552 0.950 . S
C2562 C2563 1.386 . S
C2562 C2564 1.391 . S
C2563 C2562 1.386 . S
C2563 C2567 1.393 . S
C2564 H2553 0.950 . S
C2564 C2562 1.391 . S
C2564 C2565 1.400 . S
C2565 C2559 1.491 . S
C2565 C2564 1.400 . S
C2565 C2566 1.398 . S
C2566 H2554 0.950 . S
C2566 C2565 1.398 . S
C2566 C2567 1.391 . S
C2567 H2555 0.950 . S
C2567 C2563 1.393 . S
C2567 C2566 1.391 . S
C663 C327 1.181 . S
C657 C10 1.301 . S
C677 C13 1.049 . S
C683 C346 1.073 . S
C697 C34 1.279 . S
C703 C369 1.207 . S
C723 C389 1.244 . S
C717 C44 1.252 . S
C737 C21 1.300 . S
C743 C410 1.289 . S
C763 C432 1.190 . S
C757 C26 1.227 . S
C783 C454 1.125 . S
C777 C49 1.161 . S
C797 C5 1.239 . S
C803 C472 1.212 . S
C817 C62 1.221 . S
C823 C328 1.200 . S
C837 C73 1.221 . S
C843 C347 1.232 . S
C863 C370 1.104 . S
C857 C88 1.119 . S
C883 C393 1.187 . S
C877 C99 1.265 . S
C897 C60 1.272 . S
C903 C414 1.239 . S
C923 C433 1.067 . S
C917 C75 1.080 . S
C943 C455 1.228 . S
C937 C86 1.214 . S
C963 C473 1.194 . S
C957 C101 1.214 . S
C983 C329 1.197 . S
C977 C96 1.215 . S
C1003 C496 1.061 . S
C997 C104 1.059 . S
C1017 C122 1.165 . S
C1023 C518 1.156 . S
C1043 C537 1.169 . S
C1037 C130 1.250 . S
C1057 C57 1.156 . S
C1063 C477 1.102 . S
C1083 C371 1.258 . S
C1077 C70 1.262 . S
C1097 C117 1.019 . S
C1103 C559 0.994 . S
C1123 C582 1.098 . S
C1117 C143 1.121 . S
C1137 C164 1.317 . S
C1143 C330 1.220 . S
C1163 C581 1.215 . S
C1157 C169 1.210 . S
C1177 C192 1.453 . S
C1183 C372 1.339 . S
C1197 C200 1.212 . S
C1203 C556 1.203 . S
C1223 C412 1.238 . S
C1217 C179 1.281 . S
C1243 C519 1.232 . S
C1237 C182 1.312 . S
C1263 C452 1.328 . S
C1257 C203 1.340 . S
C1283 C602 1.381 . S
C1277 C161 1.349 . S
C1303 C326 1.343 . S
C1297 C216 1.330 1_545 S
C1317 C231 1.224 . S
C1323 C580 1.167 . S
C1343 C368 1.239 . S
C1337 C242 1.252 . S
C1357 C257 1.327 . S
C1363 C561 1.221 . S
C1377 C218 1.385 . S
C1383 C411 1.279 . S
C1397 C229 1.271 . S
C1403 C515 1.258 . S
C1423 C451 1.170 . S
C1417 C244 1.198 . S
C1437 C255 1.233 . S
C1443 C601 1.206 . S
C1457 C252 1.247 . S
C1463 C325 1.235 . S
C1477 C260 1.253 1_556 S
C1483 C494 1.259 . S
C1497 C278 1.140 . S
C1503 C430 1.127 . S
C1517 C286 1.283 . S
C1523 C540 1.209 . S
C1543 C600 1.135 . S
C1537 C213 1.223 . S
C1563 C367 1.200 . S
C1557 C226 1.210 . S
C1583 C392 1.178 . S
C1577 C273 1.160 . S
C1603 C348 1.227 . S
C1597 C299 1.291 . S
C1617 C36 1.301 . S
C1623 C624 1.182 . S
C1643 C577 1.086 . S
C1637 C39 1.059 . S
C1663 C642 1.220 . S
C1657 C8 1.268 . S
C1677 C18 1.265 . S
C1683 C560 1.247 . S
C1697 C47 1.281 . S
C1703 C497 1.291 . S
C1723 C516 1.169 . S
C1717 C0 1.234 . S
C1743 C538 1.124 . S
C1737 C23 1.162 . S
C1763 C598 1.219 . S
C1757 C31 1.235 . S
C1783 C619 1.200 . S
C1777 C153 1.221 . S
C1797 C112 1.223 . S
C1803 C578 1.225 . S
C1817 C127 1.118 . S
C1823 C643 1.080 . S
C1843 C558 1.181 . S
C1837 C138 1.269 . S
C1863 C495 1.227 . S
C1857 C151 1.288 . S
C1877 C114 1.080 . S
C1883 C517 1.068 . S
C1903 C539 1.237 . S
C1897 C125 1.225 . S
C1917 C140 1.214 . S
C1923 C599 1.200 . S
C1943 C620 1.209 . S
C1937 C135 1.212 . S
C1963 C409 1.066 . S
C1957 C65 1.054 . S
C1983 C434 1.179 . S
C1977 C83 1.186 . S
C1997 C91 1.255 . S
C2003 C453 1.166 . S
C2023 C603 1.120 . S
C2017 C148 1.170 . S
C2037 C109 1.253 . S
C2043 C644 1.245 . S
C2063 C388 1.019 . S
C2057 C78 0.994 . S
C2083 C351 1.064 . S
C2077 C52 1.117 . S
C2097 C190 1.324 . S
C2103 C621 1.236 . S
C2123 C350 1.202 . S
C2117 C195 1.190 . S
C2143 C645 1.330 . S
C2137 C166 1.453 . S
C2157 C174 1.220 . S
C2163 C391 1.212 . S
C2177 C205 1.281 . S
C2183 C493 1.219 . S
C2197 C156 1.304 . S
C2203 C435 1.228 . S
C2217 C177 1.328 . S
C2223 C536 1.331 . S
C2237 C187 1.369 . S
C2243 C476 1.365 . S
C2263 C623 1.327 . S
C2257 C307 1.342 . S
C2277 C270 1.217 . S
C2283 C349 1.192 . S
C2303 C641 1.236 . S
C2297 C281 1.252 . S
C2317 C296 1.326 . S
C2323 C390 1.243 . S
C2337 C309 1.384 . S
C2343 C498 1.252 . S
C2363 C431 1.244 . S
C2357 C268 1.263 . S
C2377 C283 1.198 . S
C2383 C535 1.172 . S
C2403 C475 1.191 . S
C2397 C294 1.222 . S
C2423 C622 1.209 . S
C2417 C291 1.224 . S
C2443 C413 1.239 . S
C2437 C221 1.241 . S
C2457 C239 1.148 . S
C2463 C514 1.132 . S
C2483 C456 1.196 . S
C2477 C247 1.281 . S
C2503 C474 1.163 . S
C2497 C304 1.203 . S
C2517 C265 1.220 . S
C2523 C640 1.207 . S
C2543 C557 1.156 . S
C2537 C234 1.171 . S
C2563 C579 1.198 . S
C2557 C208 1.281 . S
