# Generated by pormake.
# Topology pyr, (3,6)-cn, num edge types: 1
# Building blocks:
#     Node 0, Type 0, BuildingBlock: WUSLED_clean_sbu_0, # of connection points: 3
#     Node 1, Type 0, BuildingBlock: WUSLED_clean_sbu_0, # of connection points: 3
#     Node 2, Type 0, BuildingBlock: WUSLED_clean_sbu_0, # of connection points: 3
#     Node 3, Type 0, BuildingBlock: WUSLED_clean_sbu_0, # of connection points: 3
#     Node 4, Type 0, BuildingBlock: WUSLED_clean_sbu_0, # of connection points: 3
#     Node 5, Type 0, BuildingBlock: WUSLED_clean_sbu_0, # of connection points: 3
#     Node 6, Type 0, BuildingBlock: WUSLED_clean_sbu_0, # of connection points: 3
#     Node 7, Type 0, BuildingBlock: WUSLED_clean_sbu_0, # of connection points: 3
#     Node 8, Type 1, BuildingBlock: VOLQOD_clean_sbu_1, # of connection points: 6
#     Node 9, Type 1, BuildingBlock: VOLQOD_clean_sbu_1, # of connection points: 6
#     Node 10, Type 1, BuildingBlock: VOLQOD_clean_sbu_1, # of connection points: 6
#     Node 11, Type 1, BuildingBlock: VOLQOD_clean_sbu_1, # of connection points: 6
#     Edge 12, Type (0, 1), BuildingBlock: OJICUG_clean_linker_0, # of connection points: 2
#     Edge 13, Type (0, 1), BuildingBlock: OJICUG_clean_linker_0, # of connection points: 2
#     Edge 14, Type (0, 1), BuildingBlock: OJICUG_clean_linker_0, # of connection points: 2
#     Edge 15, Type (0, 1), BuildingBlock: OJICUG_clean_linker_0, # of connection points: 2
#     Edge 16, Type (0, 1), BuildingBlock: OJICUG_clean_linker_0, # of connection points: 2
#     Edge 17, Type (0, 1), BuildingBlock: OJICUG_clean_linker_0, # of connection points: 2
#     Edge 18, Type (0, 1), BuildingBlock: OJICUG_clean_linker_0, # of connection points: 2
#     Edge 19, Type (0, 1), BuildingBlock: OJICUG_clean_linker_0, # of connection points: 2
#     Edge 20, Type (0, 1), BuildingBlock: OJICUG_clean_linker_0, # of connection points: 2
#     Edge 21, Type (0, 1), BuildingBlock: OJICUG_clean_linker_0, # of connection points: 2
#     Edge 22, Type (0, 1), BuildingBlock: OJICUG_clean_linker_0, # of connection points: 2
#     Edge 23, Type (0, 1), BuildingBlock: OJICUG_clean_linker_0, # of connection points: 2
#     Edge 24, Type (0, 1), BuildingBlock: OJICUG_clean_linker_0, # of connection points: 2
#     Edge 25, Type (0, 1), BuildingBlock: OJICUG_clean_linker_0, # of connection points: 2
#     Edge 26, Type (0, 1), BuildingBlock: OJICUG_clean_linker_0, # of connection points: 2
#     Edge 27, Type (0, 1), BuildingBlock: OJICUG_clean_linker_0, # of connection points: 2
#     Edge 28, Type (0, 1), BuildingBlock: OJICUG_clean_linker_0, # of connection points: 2
#     Edge 29, Type (0, 1), BuildingBlock: OJICUG_clean_linker_0, # of connection points: 2
#     Edge 30, Type (0, 1), BuildingBlock: OJICUG_clean_linker_0, # of connection points: 2
#     Edge 31, Type (0, 1), BuildingBlock: OJICUG_clean_linker_0, # of connection points: 2
#     Edge 32, Type (0, 1), BuildingBlock: OJICUG_clean_linker_0, # of connection points: 2
#     Edge 33, Type (0, 1), BuildingBlock: OJICUG_clean_linker_0, # of connection points: 2
#     Edge 34, Type (0, 1), BuildingBlock: OJICUG_clean_linker_0, # of connection points: 2
#     Edge 35, Type (0, 1), BuildingBlock: OJICUG_clean_linker_0, # of connection points: 2
# Relax obj value: 0.036
# Max RMSD: 0.120
# Mean RMSD: 0.046
data_MOF--net-pry--node1-WUSLED_clean_sbu_0--node2-VOLQOD_clean_sbu_1--edge1-OJICUG_clean_linker_0
_symmetry_space_group_name_H-M    P1
_symmetry_Int_Tables_number       1
_symmetry_cell_setting            triclinic
loop_
_symmetry_equiv_pos_as_xyz
'x, y, z'
_cell_length_a     38.632902
_cell_length_b     38.746583
_cell_length_c     38.869686
_cell_angle_alpha  89.974369
_cell_angle_beta   90.205883
_cell_angle_gamma 90.628185
loop_
_atom_site_label
_atom_site_type_symbol
_atom_site_fract_x
_atom_site_fract_y
_atom_site_fract_z
_atom_type_partial_charge
C0 C 0.13707 0.25077 0.10966 0.0
C1 C 0.10139 0.25238 0.11645 0.0
C2 C 0.09861 0.30851 0.0882 0.0
C3 C 0.08228 0.28111 0.1058 0.0
C4 C 0.13453 0.30703 0.08252 0.0
C5 C 0.15347 0.27845 0.09304 0.0
U6 U 0.15907 0.17274 0.16671 0.0
O7 O 0.17836 0.12167 0.15189 0.0
O8 O 0.21013 0.15563 0.18481 0.0
C9 C 0.20844 0.12676 0.16713 0.0
C10 C 0.15791 0.22057 0.11897 0.0
C11 C 0.23968 0.11814 0.14736 0.0
C12 C 0.27041 0.10927 0.09349 0.0
C13 C 0.24067 0.11957 0.11121 0.0
C14 C 0.29863 0.09719 0.14785 0.0
C15 C 0.29953 0.09738 0.11166 0.0
C16 C 0.26904 0.10733 0.16543 0.0
C17 C 0.10594 0.14982 0.24648 0.0
C18 C 0.09698 0.09405 0.27418 0.0
C19 C 0.09571 0.14643 0.30809 0.0
C20 C 0.10198 0.16598 0.27849 0.0
C21 C 0.09299 0.11026 0.30626 0.0
C22 C 0.10357 0.11362 0.24458 0.0
C23 C 0.11256 0.17128 0.21569 0.0
O24 O 0.17619 0.22351 0.14741 0.0
O25 O 0.14296 0.19013 0.11531 0.0
O26 O 0.10784 0.15641 0.18558 0.0
O27 O 0.14059 0.19076 0.21705 0.0
H28 H 0.08829 0.23132 0.12953 0.0
H29 H 0.05469 0.28147 0.11055 0.0
H30 H 0.1481 0.32802 0.06979 0.0
H31 H 0.18101 0.27784 0.08789 0.0
H32 H 0.27026 0.10967 0.06563 0.0
H33 H 0.21835 0.12809 0.0967 0.0
H34 H 0.32083 0.08893 0.1627 0.0
H35 H 0.26893 0.10631 0.1933 0.0
H36 H 0.09529 0.06622 0.27202 0.0
H37 H 0.09231 0.15971 0.33235 0.0
H38 H 0.10363 0.19384 0.28059 0.0
H39 H 0.10678 0.10037 0.22029 0.0
C40 C 0.29467 0.8805 0.60685 0.0
C41 C 0.2681 0.88774 0.63029 0.0
C42 C 0.234 0.91418 0.5847 0.0
C43 C 0.23802 0.90425 0.61928 0.0
C44 C 0.26107 0.90795 0.56153 0.0
C45 C 0.29104 0.89109 0.57248 0.0
U46 U 0.37102 0.8645 0.66777 0.0
O47 O 0.3906 0.81624 0.68972 0.0
O48 O 0.42417 0.84758 0.65633 0.0
C49 C 0.41987 0.81809 0.6726 0.0
C50 C 0.32566 0.86101 0.61741 0.0
C51 C 0.42968 0.78667 0.65352 0.0
C52 C 0.41455 0.73214 0.62591 0.0
C53 C 0.40464 0.76252 0.64244 0.0
C54 C 0.47467 0.7499 0.63031 0.0
C55 C 0.44973 0.72529 0.61969 0.0
C56 C 0.46472 0.78017 0.64712 0.0
C57 C 0.38277 0.92606 0.74509 0.0
C58 C 0.43228 0.92775 0.78383 0.0
C59 C 0.38054 0.95944 0.79795 0.0
C60 C 0.36493 0.94781 0.76753 0.0
C61 C 0.41442 0.94957 0.80656 0.0
C62 C 0.41656 0.91604 0.7534 0.0
C63 C 0.36544 0.9142 0.71338 0.0
O64 O 0.35549 0.87742 0.61465 0.0
O65 O 0.32296 0.84294 0.64594 0.0
O66 O 0.34862 0.88463 0.71564 0.0
O67 O 0.38324 0.91741 0.68476 0.0
H68 H 0.27027 0.88024 0.65705 0.0
H69 H 0.21778 0.90911 0.63781 0.0
H70 H 0.2586 0.91511 0.5347 0.0
H71 H 0.31119 0.8858 0.55396 0.0
H72 H 0.39458 0.71371 0.61864 0.0
H73 H 0.37738 0.76687 0.64694 0.0
H74 H 0.50192 0.7459 0.62551 0.0
H75 H 0.48448 0.79848 0.65533 0.0
H76 H 0.45853 0.91992 0.78941 0.0
H77 H 0.36576 0.97567 0.81502 0.0
H78 H 0.33874 0.95568 0.76159 0.0
H79 H 0.43075 0.89922 0.73638 0.0
C80 C 0.5938 0.39525 0.7998 0.0
C81 C 0.61918 0.41273 0.78046 0.0
C82 C 0.57548 0.43004 0.73874 0.0
C83 C 0.61008 0.42997 0.75012 0.0
C84 C 0.55001 0.41395 0.75924 0.0
C85 C 0.55913 0.39664 0.78939 0.0
U86 U 0.65166 0.3746 0.87694 0.0
O87 O 0.63843 0.35413 0.92803 0.0
O88 O 0.67231 0.32464 0.89382 0.0
C89 C 0.65459 0.32493 0.92262 0.0
C90 C 0.60303 0.37397 0.82975 0.0
C91 C 0.63526 0.29293 0.93048 0.0
C92 C 0.58146 0.26031 0.93726 0.0
C93 C 0.59896 0.29084 0.92815 0.0
C94 C 0.63641 0.23346 0.94987 0.0
C95 C 0.60001 0.23143 0.94876 0.0
C96 C 0.65377 0.2639 0.94097 0.0
C97 C 0.72925 0.43347 0.89746 0.0
C98 C 0.77839 0.41747 0.93316 0.0
C99 C 0.77287 0.47626 0.91273 0.0
C100 C 0.74189 0.46741 0.89622 0.0
C101 C 0.79191 0.45124 0.9307 0.0
C102 C 0.74725 0.40863 0.91661 0.0
C103 C 0.69824 0.42434 0.87731 0.0
O104 O 0.63194 0.35663 0.82702 0.0
O105 O 0.59903 0.38839 0.86007 0.0
O106 O 0.66856 0.42648 0.89356 0.0
O107 O 0.70069 0.39653 0.85815 0.0
H108 H 0.64612 0.41218 0.78824 0.0
H109 H 0.63032 0.44195 0.73487 0.0
H110 H 0.52303 0.41413 0.75159 0.0
H111 H 0.53917 0.38358 0.80415 0.0
H112 H 0.55345 0.25963 0.9362 0.0
H113 H 0.58413 0.31289 0.91977 0.0
H114 H 0.65158 0.21148 0.95781 0.0
H115 H 0.68178 0.26486 0.94258 0.0
H116 H 0.79252 0.39762 0.94669 0.0
H117 H 0.78227 0.50264 0.91088 0.0
H118 H 0.72819 0.48696 0.88179 0.0
H119 H 0.73771 0.38227 0.91798 0.0
C120 C 0.78637 0.5949 0.39432 0.0
C121 C 0.76874 0.62013 0.41318 0.0
C122 C 0.72611 0.5771 0.43149 0.0
C123 C 0.73881 0.61128 0.43167 0.0
C124 C 0.74485 0.55178 0.41376 0.0
C125 C 0.77461 0.56063 0.39533 0.0
U126 U 0.86384 0.65238 0.36934 0.0
O127 O 0.91538 0.63754 0.35058 0.0
O128 O 0.88143 0.66925 0.3183 0.0
C129 C 0.91051 0.65203 0.3204 0.0
C130 C 0.81617 0.60372 0.37235 0.0
C131 C 0.91992 0.63131 0.29008 0.0
C132 C 0.90464 0.59861 0.23859 0.0
C133 C 0.89483 0.61522 0.26906 0.0
C134 C 0.96467 0.61275 0.2507 0.0
C135 C 0.93964 0.59791 0.22868 0.0
C136 C 0.95488 0.6293 0.28099 0.0
C137 C 0.8866 0.73252 0.42282 0.0
C138 C 0.92524 0.77886 0.40427 0.0
C139 C 0.90759 0.77508 0.46392 0.0
C140 C 0.88787 0.74558 0.45639 0.0
C141 C 0.92642 0.79217 0.43795 0.0
C142 C 0.90561 0.74916 0.39679 0.0
C143 C 0.86515 0.70172 0.41561 0.0
O144 O 0.81308 0.6317 0.35348 0.0
O145 O 0.84685 0.60078 0.3867 0.0
O146 O 0.8805 0.67194 0.42003 0.0
O147 O 0.84614 0.70289 0.38751 0.0
H148 H 0.7776 0.64675 0.4129 0.0
H149 H 0.7249 0.63138 0.44494 0.0
H150 H 0.73614 0.52511 0.41361 0.0
H151 H 0.78804 0.54076 0.38121 0.0
H152 H 0.88472 0.58757 0.22215 0.0
H153 H 0.86765 0.61631 0.27568 0.0
H154 H 0.99189 0.61212 0.24419 0.0
H155 H 0.97465 0.64134 0.29695 0.0
H156 H 0.93969 0.79125 0.38379 0.0
H157 H 0.90751 0.7849 0.49 0.0
H158 H 0.87335 0.73309 0.47678 0.0
H159 H 0.90515 0.73929 0.37072 0.0
C160 C 0.88467 0.79685 0.92689 0.0
C161 C 0.86832 0.76434 0.92694 0.0
C162 C 0.92289 0.73662 0.9407 0.0
C163 C 0.88721 0.73455 0.93361 0.0
C164 C 0.93925 0.76921 0.94101 0.0
C165 C 0.92037 0.79905 0.93401 0.0
U166 U 0.86543 0.87682 0.87272 0.0
O167 O 0.81594 0.89612 0.85302 0.0
O168 O 0.84735 0.92831 0.88791 0.0
C169 C 0.81758 0.92429 0.87183 0.0
C170 C 0.86393 0.82779 0.91922 0.0
C171 C 0.78666 0.93155 0.8924 0.0
C172 C 0.7396 0.9125 0.92941 0.0
C173 C 0.76956 0.90526 0.91077 0.0
C174 C 0.74411 0.97253 0.91228 0.0
C175 C 0.72649 0.94621 0.93027 0.0
C176 C 0.77389 0.96521 0.89347 0.0
C177 C 0.92424 0.89724 0.79581 0.0
C178 C 0.90892 0.93103 0.74534 0.0
C179 C 0.96822 0.91324 0.75425 0.0
C180 C 0.95874 0.89716 0.78499 0.0
C181 C 0.94328 0.92959 0.73361 0.0
C182 C 0.89945 0.91494 0.77625 0.0
C183 C 0.91449 0.87688 0.82627 0.0
O184 O 0.87891 0.85801 0.92442 0.0
O185 O 0.84585 0.8264 0.89053 0.0
O186 O 0.88573 0.85864 0.82341 0.0
O187 O 0.91784 0.89244 0.85616 0.0
H188 H 0.84082 0.76198 0.92174 0.0
H189 H 0.87377 0.70987 0.93371 0.0
H190 H 0.96674 0.77156 0.9462 0.0
H191 H 0.93378 0.82374 0.93407 0.0
H192 H 0.72679 0.89178 0.9433 0.0
H193 H 0.77925 0.87912 0.91049 0.0
H194 H 0.73444 0.99866 0.91211 0.0
H195 H 0.7868 0.98581 0.87947 0.0
H196 H 0.88911 0.9433 0.72998 0.0
H197 H 0.99503 0.91226 0.74627 0.0
H198 H 0.97824 0.88383 0.79988 0.0
H199 H 0.87265 0.91542 0.78432 0.0
C200 C 0.60421 0.13785 0.29915 0.0
C201 C 0.60682 0.15387 0.26686 0.0
C202 C 0.58842 0.10079 0.23834 0.0
C203 C 0.59918 0.13554 0.2368 0.0
C204 C 0.58566 0.08473 0.27068 0.0
C205 C 0.59358 0.10303 0.3008 0.0
U206 U 0.65801 0.15698 0.38025 0.0
O207 O 0.67699 0.20659 0.40062 0.0
O208 O 0.64166 0.17455 0.43151 0.0
C209 C 0.65754 0.20454 0.42824 0.0
C210 C 0.61194 0.15823 0.33052 0.0
C211 C 0.63625 0.23495 0.4353 0.0
C212 C 0.59679 0.2796 0.41625 0.0
C213 C 0.61627 0.25019 0.40927 0.0
C214 C 0.61645 0.27831 0.4755 0.0
C215 C 0.59674 0.29405 0.44945 0.0
C216 C 0.63605 0.24906 0.46845 0.0
C217 C 0.73516 0.09815 0.40083 0.0
C218 C 0.78486 0.11218 0.43704 0.0
C219 C 0.77703 0.05412 0.415 0.0
C220 C 0.74646 0.06402 0.3987 0.0
C221 C 0.79704 0.07824 0.4337 0.0
C222 C 0.75414 0.12209 0.42067 0.0
C223 C 0.70484 0.10841 0.3804 0.0
O224 O 0.60634 0.14308 0.36031 0.0
O225 O 0.64087 0.1764 0.32986 0.0
O226 O 0.70815 0.13741 0.36309 0.0
O227 O 0.67451 0.10478 0.39527 0.0
H228 H 0.61461 0.18075 0.26487 0.0
H229 H 0.60101 0.14883 0.21234 0.0
H230 H 0.57763 0.05794 0.27267 0.0
H231 H 0.59126 0.08989 0.32529 0.0
H232 H 0.58162 0.29091 0.39574 0.0
H233 H 0.61591 0.23945 0.38353 0.0
H234 H 0.61733 0.28905 0.50122 0.0
H235 H 0.6513 0.23761 0.48883 0.0
H236 H 0.79975 0.13138 0.45112 0.0
H237 H 0.78534 0.02764 0.41247 0.0
H238 H 0.73204 0.04516 0.38367 0.0
H239 H 0.74572 0.14859 0.42268 0.0
C240 C 0.29154 0.59967 0.1414 0.0
C241 C 0.27794 0.62498 0.11949 0.0
C242 C 0.23228 0.5852 0.10134 0.0
C243 C 0.24844 0.61785 0.09972 0.0
C244 C 0.24656 0.55969 0.12273 0.0
C245 C 0.27593 0.56693 0.14267 0.0
U246 U 0.36822 0.65697 0.16378 0.0
O247 O 0.38522 0.67782 0.21373 0.0
O248 O 0.42007 0.64508 0.18376 0.0
C249 C 0.41434 0.66064 0.21326 0.0
C250 C 0.32136 0.60758 0.16364 0.0
C251 C 0.42172 0.6408 0.24472 0.0
C252 C 0.42733 0.58646 0.27548 0.0
C253 C 0.42083 0.60452 0.245 0.0
C254 C 0.43504 0.64064 0.30581 0.0
C255 C 0.43435 0.60437 0.30622 0.0
C256 C 0.42889 0.65865 0.27532 0.0
C257 C 0.38703 0.73596 0.10744 0.0
C258 C 0.44078 0.76602 0.09328 0.0
C259 C 0.38761 0.79807 0.09884 0.0
C260 C 0.36963 0.76752 0.10613 0.0
C261 C 0.42335 0.79765 0.09235 0.0
C262 C 0.42282 0.73543 0.10092 0.0
C263 C 0.36718 0.7042 0.1155 0.0
O264 O 0.35188 0.60429 0.14923 0.0
O265 O 0.31856 0.63596 0.18187 0.0
O266 O 0.34796 0.70566 0.14329 0.0
O267 O 0.38343 0.67472 0.11221 0.0
H268 H 0.28988 0.65037 0.11803 0.0
H269 H 0.23823 0.63786 0.0832 0.0
H270 H 0.23447 0.53443 0.12478 0.0
H271 H 0.28613 0.54714 0.15947 0.0
H272 H 0.4264 0.55851 0.27513 0.0
H273 H 0.41496 0.59014 0.22177 0.0
H274 H 0.44081 0.65511 0.32901 0.0
H275 H 0.42963 0.68662 0.27565 0.0
H276 H 0.46837 0.76502 0.08852 0.0
H277 H 0.37341 0.82201 0.09779 0.0
H278 H 0.34202 0.76856 0.11079 0.0
H279 H 0.43701 0.71149 0.10178 0.0
C280 C 0.09058 0.28754 0.647 0.0
C281 C 0.10499 0.27881 0.61514 0.0
C282 C 0.07308 0.22412 0.6153 0.0
C283 C 0.09626 0.2474 0.59938 0.0
C284 C 0.05874 0.23316 0.64726 0.0
C285 C 0.06742 0.26459 0.66292 0.0
U286 U 0.1477 0.36801 0.65502 0.0
O287 O 0.13408 0.42132 0.66909 0.0
O288 O 0.17109 0.39237 0.70058 0.0
C289 C 0.15226 0.4203 0.69773 0.0
C290 C 0.10004 0.32009 0.66424 0.0
C291 C 0.13423 0.43131 0.7292 0.0
C292 C 0.1097 0.41859 0.78537 0.0
C293 C 0.12469 0.40739 0.75473 0.0
C294 C 0.11209 0.47762 0.76487 0.0
C295 C 0.10359 0.45386 0.79093 0.0
C296 C 0.12744 0.46643 0.73434 0.0
C297 C 0.22236 0.38142 0.59194 0.0
C298 C 0.26159 0.43085 0.59486 0.0
C299 C 0.2752 0.38216 0.55841 0.0
C300 C 0.24449 0.36571 0.56835 0.0
C301 C 0.28437 0.41469 0.5719 0.0
C302 C 0.23087 0.41424 0.60495 0.0
C303 C 0.1918 0.36222 0.60418 0.0
O304 O 0.13009 0.3201 0.68017 0.0
O305 O 0.09474 0.34835 0.64633 0.0
O306 O 0.16188 0.37781 0.60104 0.0
O307 O 0.19578 0.34693 0.63407 0.0
H308 H 0.12301 0.29624 0.60251 0.0
H309 H 0.10747 0.24151 0.5746 0.0
H310 H 0.04125 0.21569 0.66052 0.0
H311 H 0.05624 0.27085 0.68764 0.0
H312 H 0.10298 0.39966 0.80482 0.0
H313 H 0.12928 0.38008 0.75125 0.0
H314 H 0.10785 0.50496 0.76853 0.0
H315 H 0.13455 0.48528 0.71494 0.0
H316 H 0.26809 0.45575 0.60592 0.0
H317 H 0.29199 0.36925 0.54036 0.0
H318 H 0.23833 0.34036 0.5581 0.0
H319 H 0.21414 0.42662 0.62343 0.0
O320 O 0.00848 0.07902 0.55664 0.0
Zn321 Zn 0.98575 0.03379 0.54258 0.0
O322 O 0.01782 0.00683 0.5138 0.0
Zn323 Zn 0.99744 0.99859 0.46836 0.0
Zn324 Zn 0.06232 0.03136 0.50884 0.0
Zn325 Zn 0.02599 0.96227 0.53518 0.0
O326 O 0.98888 0.94778 0.45879 0.0
O327 O 0.00671 0.92296 0.50698 0.0
O328 O 0.94115 0.04449 0.51657 0.0
O329 O 0.95091 0.0207 0.46562 0.0
O330 O 0.02657 0.01997 0.4308 0.0
O331 O 0.07029 0.04469 0.45911 0.0
O332 O 0.10283 1.00234 0.52544 0.0
O333 O 0.97362 0.0081 0.58688 0.0
O334 O 0.07654 0.95442 0.54333 0.0
O335 O 0.00322 0.95973 0.58103 0.0
C336 C 0.03884 0.09173 0.55297 0.0
C337 C 0.99308 0.9209 0.47718 0.0
C338 C 0.05425 0.03817 0.43109 0.0
C339 C 0.93155 0.03753 0.48588 0.0
C340 C 0.10401 0.97222 0.53866 0.0
C341 C 0.98328 0.97889 0.5984 0.0
O342 O 0.06198 0.07576 0.53614 0.0
O343 O 0.50803 0.0915 0.98354 0.0
Zn344 Zn 0.48192 0.04648 0.99469 0.0
O345 O 0.51133 0.0152 0.0226 0.0
Zn346 Zn 0.51911 0.97174 0.99822 0.0
Zn347 Zn 0.55604 0.03676 0.03221 0.0
Zn348 Zn 0.48945 0.00513 0.06663 0.0
O349 O 0.5013 0.9307 0.02522 0.0
O350 O 0.48063 0.9544 0.07274 0.0
O351 O 0.4681 0.02285 0.94956 0.0
O352 O 0.49353 0.97179 0.95319 0.0
O353 O 0.56975 0.9648 0.98755 0.0
O354 O 0.59538 0.01012 0.01191 0.0
O355 O 0.56463 0.04398 0.08277 0.0
O356 O 0.43743 0.05841 0.02074 0.0
O357 O 0.51716 0.02303 0.10722 0.0
O358 O 0.44351 0.02776 0.06865 0.0
C359 C 0.53806 0.10209 0.99283 0.0
C360 C 0.48642 0.92796 0.0543 0.0
C361 C 0.59697 0.98229 0.99463 0.0
C362 C 0.47466 0.99317 0.93702 0.0
C363 C 0.54666 0.03785 0.1095 0.0
C364 C 0.42602 0.04805 0.04982 0.0
O365 O 0.55772 0.08344 0.01119 0.0
O366 O 0.55013 0.51041 0.59182 0.0
Zn367 Zn 0.5391 0.53646 0.54722 0.0
O368 O 0.50617 0.50936 0.51833 0.0
Zn369 Zn 0.52616 0.49958 0.47341 0.0
Zn370 Zn 0.49599 0.46518 0.53976 0.0
Zn371 Zn 0.46273 0.53437 0.51211 0.0
O372 O 0.49758 0.51917 0.43488 0.0
O373 O 0.45563 0.54665 0.46209 0.0
O374 O 0.58411 0.54692 0.52075 0.0
O375 O 0.57257 0.52206 0.47047 0.0
O376 O 0.53459 0.4488 0.46535 0.0
O377 O 0.51615 0.42524 0.51392 0.0
O378 O 0.44496 0.45695 0.54442 0.0
O379 O 0.51707 0.58194 0.56138 0.0
O380 O 0.42097 0.50598 0.52775 0.0
O381 O 0.46421 0.57906 0.53863 0.0
C382 C 0.53789 0.48214 0.60386 0.0
C383 C 0.47096 0.53826 0.43439 0.0
C384 C 0.53021 0.42247 0.48452 0.0
C385 C 0.59281 0.53929 0.49 0.0
C386 C 0.41829 0.4753 0.53941 0.0
C387 C 0.48719 0.59488 0.55641 0.0
O388 O 0.51659 0.46377 0.5866 0.0
O389 O 0.97233 0.51762 0.08327 0.0
Zn390 Zn 0.98362 0.49251 0.03824 0.0
O391 O 0.01424 0.52172 0.00874 0.0
Zn392 Zn 0.99274 0.53128 0.9643 0.0
Zn393 Zn 0.02479 0.56568 0.03133 0.0
Zn394 Zn 0.05736 0.49812 0.99977 0.0
O395 O 0.02103 0.5149 0.92373 0.0
O396 O 0.06619 0.49122 0.94943 0.0
O397 O 0.93824 0.4817 0.01265 0.0
O398 O 0.94695 0.5074 0.96221 0.0
O399 O 0.98313 0.58185 0.95842 0.0
O400 O 0.00643 0.60644 0.00462 0.0
O401 O 0.07601 0.57191 0.04029 0.0
O402 O 0.00717 0.44662 0.05026 0.0
O403 O 0.09809 0.52327 0.02039 0.0
O404 O 0.05612 0.45148 0.02073 0.0
C405 C 0.98204 0.54707 0.09479 0.0
C406 C 0.04967 0.49902 0.9222 0.0
C407 C 0.98992 0.60862 0.97629 0.0
C408 C 0.92808 0.4894 0.9823 0.0
C409 C 0.10178 0.55233 0.03527 0.0
C410 C 0.0359 0.43427 0.04012 0.0
O411 O 1.00181 0.56679 0.07729 0.0
C412 C 0.10185 0.09731 0.36898 0.0
C413 C 0.08513 0.08976 0.33766 0.0
H414 H 0.10567 0.08668 0.42286 0.0
C415 C 0.0598 0.06346 0.33688 0.0
H416 H 0.12179 0.11715 0.37029 0.0
C417 C 0.05048 0.04598 0.36701 0.0
C418 C 0.06648 0.05423 0.39858 0.0
H419 H 0.0463 0.05719 0.31318 0.0
H420 H 0.03019 0.02651 0.36565 0.0
C421 C 0.09275 0.07966 0.39906 0.0
C422 C 0.45094 0.93866 0.85906 0.0
C423 C 0.43064 0.96132 0.83949 0.0
H424 H 0.48056 0.93079 0.90484 0.0
C425 C 0.42537 0.99495 0.85205 0.0
H426 H 0.45514 0.91244 0.85054 0.0
C427 C 0.43974 0.00548 0.88354 0.0
C428 C 0.45981 0.98266 0.9032 0.0
H429 H 0.41027 0.01327 0.83745 0.0
H430 H 0.43506 0.03148 0.89247 0.0
C431 C 0.46535 0.94918 0.89042 0.0
C432 C 0.54282 0.426 0.68332 0.0
C433 C 0.5661 0.44432 0.70447 0.0
H434 H 0.51589 0.42335 0.63556 0.0
C435 C 0.58059 0.47546 0.69217 0.0
H436 H 0.53177 0.40156 0.69157 0.0
C437 C 0.57159 0.48808 0.65951 0.0
C438 C 0.54809 0.46965 0.63853 0.0
H439 H 0.59856 0.49022 0.70792 0.0
H440 H 0.58298 0.51217 0.65076 0.0
C441 C 0.53392 0.43846 0.65093 0.0
C442 C 0.93594 0.55317 0.18127 0.0
C443 C 0.95009 0.58409 0.19454 0.0
H444 H 0.93508 0.51685 0.13947 0.0
C445 C 0.97438 0.60242 0.17467 0.0
H446 H 0.91723 0.5384 0.19602 0.0
C447 C 0.98451 0.59023 0.14257 0.0
C448 C 0.9707 0.55923 0.12922 0.0
H449 H 0.98531 0.62664 0.18373 0.0
H450 H 0.00329 0.60531 0.1282 0.0
C451 C 0.94628 0.54077 0.14897 0.0
C452 C 0.34451 0.1006 0.06448 0.0
C453 C 0.33042 0.08386 0.09348 0.0
H454 H 0.38596 0.10252 0.02768 0.0
C455 C 0.34672 0.05417 0.10604 0.0
H456 H 0.33254 0.12356 0.05418 0.0
C457 C 0.3771 0.04237 0.09117 0.0
C458 C 0.3921 0.05973 0.06306 0.0
H459 H 0.3361 0.04005 0.12771 0.0
H460 H 0.38905 0.01967 0.10209 0.0
C461 C 0.37511 0.08861 0.04936 0.0
C462 C 0.20072 0.95868 0.55118 0.0
C463 C 0.20098 0.92947 0.57268 0.0
H464 H 0.1699 0.99545 0.52378 0.0
C465 C 0.16929 0.91446 0.58252 0.0
H466 H 0.22479 0.97085 0.5433 0.0
C467 C 0.13803 0.92825 0.57118 0.0
C468 C 0.13759 0.95765 0.54993 0.0
H469 H 0.16864 0.89169 0.59871 0.0
H470 H 0.11415 0.9159 0.57935 0.0
C471 C 0.16931 0.97281 0.54012 0.0
C472 C 0.84968 0.47984 0.92439 0.0
C473 C 0.82681 0.46007 0.94451 0.0
H474 H 0.89905 0.50428 0.92029 0.0
C475 C 0.83776 0.44896 0.97723 0.0
H476 H 0.84239 0.4882 0.89879 0.0
C477 C 0.87072 0.45816 0.98977 0.0
C478 C 0.89336 0.47839 0.96964 0.0
H479 H 0.82064 0.43368 0.99333 0.0
H480 H 0.87835 0.44963 0.0152 0.0
C481 C 0.8824 0.48885 0.93673 0.0
C482 C 0.66888 0.54664 0.42925 0.0
C483 C 0.69217 0.56801 0.44733 0.0
H484 H 0.61992 0.52105 0.4283 0.0
C485 C 0.68248 0.58052 0.47989 0.0
H486 H 0.67515 0.53711 0.40385 0.0
C487 C 0.65029 0.57128 0.49417 0.0
C488 C 0.62714 0.54969 0.47595 0.0
H489 H 0.69993 0.59702 0.49446 0.0
H490 H 0.64355 0.58107 0.51933 0.0
C491 C 0.63694 0.53764 0.44329 0.0
C492 C 0.05324 0.35473 0.09464 0.0
C493 C 0.07872 0.33837 0.0748 0.0
H494 H 0.01923 0.39814 0.09918 0.0
C495 C 0.08668 0.35184 0.0422 0.0
H496 H 0.0465 0.34492 0.11987 0.0
C497 C 0.07142 0.38209 0.03063 0.0
C498 C 0.04745 0.39964 0.05113 0.0
H499 H 0.10538 0.33936 0.0258 0.0
H500 H 0.0791 0.39222 0.00577 0.0
C501 C 0.03763 0.38514 0.08284 0.0
C502 C 0.55288 0.1858 0.9434 0.0
C503 C 0.58193 0.19958 0.96085 0.0
H504 H 0.51593 0.14401 0.93979 0.0
C505 C 0.59445 0.1822 0.98997 0.0
H506 H 0.54262 0.19858 0.92085 0.0
C507 C 0.57951 0.15113 1.00051 0.0
C508 C 0.55133 0.13658 0.98247 0.0
H509 H 0.61609 0.19252 0.00464 0.0
H510 H 0.59037 0.13834 0.0228 0.0
C511 C 0.53764 0.15456 0.95418 0.0
C512 C 0.94494 0.85313 0.42434 0.0
C513 C 0.94641 0.82419 0.44612 0.0
H514 H 0.95854 0.90636 0.41691 0.0
C515 C 0.96573 0.82662 0.47675 0.0
H516 H 0.9301 0.85217 0.40066 0.0
C517 C 0.982 0.85762 0.4861 0.0
C518 C 0.9793 0.88706 0.46509 0.0
H519 H 0.96789 0.80462 0.4938 0.0
H520 H 0.99593 0.85869 0.51031 0.0
C521 C 0.96116 0.88425 0.43374 0.0
C522 C 0.4905 0.67517 0.61276 0.0
C523 C 0.46022 0.69246 0.60262 0.0
H524 H 0.52284 0.63105 0.6062 0.0
C525 C 0.43962 0.67771 0.57645 0.0
H526 H 0.50681 0.6854 0.63312 0.0
C527 C 0.44855 0.64628 0.56141 0.0
C528 C 0.47855 0.62882 0.57183 0.0
H529 H 0.41654 0.6905 0.56737 0.0
H530 H 0.43186 0.6357 0.5415 0.0
C531 C 0.49962 0.64383 0.59744 0.0
C532 C 0.97444 0.92308 0.67785 0.0
C533 C 0.95288 0.94279 0.69898 0.0
H534 H 1.00065 0.91879 0.62997 0.0
C535 C 0.94053 0.97448 0.68651 0.0
H536 H 0.98381 0.89823 0.68631 0.0
C537 C 0.95011 0.98639 0.65376 0.0
C538 C 0.97204 0.9667 0.63284 0.0
H539 H 0.9239 0.99027 0.70225 0.0
H540 H 0.94052 0.01103 0.64496 0.0
C541 C 0.98388 0.93484 0.64531 0.0
C542 C 0.59996 0.08557 0.17673 0.0
C543 C 0.57934 0.08187 0.20624 0.0
H544 H 0.60617 0.07426 0.12331 0.0
C545 C 0.54917 0.06133 0.20433 0.0
H546 H 0.62364 0.10079 0.17752 0.0
C547 C 0.5391 0.04601 0.17321 0.0
C548 C 0.55909 0.05077 0.14335 0.0
H549 H 0.53263 0.05815 0.22658 0.0
H550 H 0.51516 0.03123 0.17238 0.0
C551 C 0.59001 0.07016 0.1457 0.0
C552 C 0.46477 0.55786 0.33899 0.0
C553 C 0.44154 0.58548 0.3386 0.0
H554 H 0.49233 0.52124 0.36953 0.0
C555 C 0.4263 0.5959 0.36962 0.0
H556 H 0.47704 0.5494 0.31548 0.0
C557 C 0.43487 0.5797 0.40056 0.0
C558 C 0.45915 0.55293 0.40121 0.0
H559 H 0.40796 0.61684 0.36999 0.0
H560 H 0.42319 0.58887 0.42409 0.0
C561 C 0.47362 0.54184 0.36999 0.0
C562 C 0.06274 0.48991 0.82572 0.0
C563 C 0.08966 0.46584 0.82436 0.0
H564 H 0.0287 0.51914 0.85767 0.0
C565 C 0.10357 0.45329 0.8553 0.0
H566 H 0.05144 0.4999 0.80224 0.0
C567 C 0.09085 0.46446 0.88692 0.0
C568 C 0.06363 0.48822 0.88841 0.0
H569 H 0.12463 0.43505 0.85507 0.0
H570 H 0.1022 0.45413 0.91022 0.0
C571 C 0.04967 0.50082 0.85743 0.0
C572 C 0.66495 0.93206 0.94598 0.0
C573 C 0.69407 0.95392 0.94905 0.0
H574 H 0.61145 0.92378 0.95793 0.0
C575 C 0.69155 0.98401 0.96899 0.0
H576 H 0.66602 0.9088 0.93058 0.0
C577 C 0.66034 0.9926 0.9847 0.0
C578 C 0.63082 0.97139 0.98066 0.0
H579 H 0.71369 1.00112 0.97223 0.0
H580 H 0.65922 0.01634 0.99935 0.0
C581 C 0.63363 0.94073 0.96154 0.0
C582 C 0.84254 0.07875 0.4806 0.0
C583 C 0.83144 0.0683 0.44766 0.0
H584 H 0.88278 0.07708 0.5188 0.0
C585 C 0.85367 0.04825 0.42754 0.0
H586 H 0.82593 0.09414 0.49676 0.0
C587 C 0.88599 0.03856 0.44004 0.0
C588 C 0.89712 0.04858 0.47308 0.0
H589 H 0.84625 0.04032 0.40181 0.0
H590 H 0.90225 0.02305 0.42362 0.0
C591 C 0.87503 0.06887 0.49326 0.0
C592 C 0.17292 0.60208 0.08171 0.0
C593 C 0.19992 0.57806 0.08184 0.0
H594 H 0.12075 0.6129 0.06689 0.0
C595 C 0.19518 0.54656 0.06452 0.0
H596 H 0.17574 0.62649 0.09507 0.0
C597 C 0.16374 0.53877 0.04831 0.0
C598 C 0.13621 0.56223 0.04927 0.0
H599 H 0.21571 0.52775 0.0638 0.0
H600 H 0.16077 0.51392 0.03581 0.0
C601 C 0.14136 0.59422 0.06568 0.0
C602 C 0.32144 0.46598 0.55527 0.0
C603 C 0.31841 0.43068 0.56332 0.0
H604 H 0.35529 0.50783 0.541 0.0
C605 C 0.34835 0.41044 0.56345 0.0
H606 H 0.29878 0.48218 0.55482 0.0
C607 C 0.38056 0.42503 0.55569 0.0
C608 C 0.38373 0.46026 0.54741 0.0
H609 H 0.34697 0.3833 0.57004 0.0
H610 H 0.40301 0.40853 0.55617 0.0
C611 C 0.35377 0.4806 0.54719 0.0
C612 C 0.93732 0.67504 0.92802 0.0
C613 C 0.94262 0.70477 0.9481 0.0
H614 H 0.94842 0.62165 0.92076 0.0
C615 C 0.96571 0.70336 0.97608 0.0
H616 H 0.92009 0.67549 0.90598 0.0
C617 C 0.98203 0.67243 0.98465 0.0
C618 C 0.97577 0.64233 0.96525 0.0
H619 H 0.97018 0.72584 0.99212 0.0
H620 H 0.99884 0.67193 0.007 0.0
C621 C 0.95377 0.64423 0.93641 0.0
C622 C 0.4361 0.86003 0.10383 0.0
C623 C 0.44206 0.83023 0.08428 0.0
H624 H 0.44577 0.91403 0.11006 0.0
C625 C 0.46474 0.83222 0.05615 0.0
H626 H 0.41911 0.85912 0.12593 0.0
C627 C 0.48004 0.86377 0.04691 0.0
C628 C 0.47317 0.89386 0.06583 0.0
H629 H 0.46968 0.80965 0.04056 0.0
H630 H 0.4966 0.86469 0.02451 0.0
C631 C 0.45157 0.89144 0.09481 0.0
C632 C 0.03022 0.17697 0.60034 0.0
C633 C 0.06417 0.19039 0.59889 0.0
H634 H 0.99558 0.13556 0.58708 0.0
C635 C 0.08963 0.17114 0.58195 0.0
H636 H 0.00982 0.19129 0.61273 0.0
C637 C 0.08139 0.13926 0.56698 0.0
C638 C 0.04749 0.12574 0.56862 0.0
H639 H 0.11614 0.1804 0.58074 0.0
H640 H 0.10175 0.12509 0.55433 0.0
C641 C 0.02199 0.14504 0.58545 0.0
C642 C 0.5585 0.32911 0.48776 0.0
C643 C 0.57702 0.32593 0.45689 0.0
H644 H 0.52885 0.36173 0.52046 0.0
C645 C 0.57783 0.354 0.43395 0.0
H646 H 0.55691 0.30778 0.50571 0.0
C647 C 0.56164 0.38501 0.44233 0.0
C648 C 0.54416 0.38859 0.4738 0.0
H649 H 0.59207 0.35245 0.41005 0.0
H650 H 0.56367 0.40645 0.42454 0.0
C651 C 0.54222 0.36002 0.49608 0.0
loop_
_geom_bond_atom_site_label_1
_geom_bond_atom_site_label_2
_geom_bond_distance
_geom_bond_site_symmetry_2
_ccdc_geom_bond_type
C0 C1 1.264 . S
C0 C5 1.479 . S
C0 C10 1.465 . S
C1 C0 1.264 . S
C1 C3 1.339 . S
C1 H28 0.931 . S
C2 C3 1.395 . S
C2 C4 1.320 . S
C3 C1 1.339 . S
C3 C2 1.395 . S
C3 H29 0.929 . S
C4 C2 1.320 . S
C4 C5 1.405 . S
C4 H30 0.930 . S
C5 C0 1.479 . S
C5 C4 1.405 . S
C5 H31 0.931 . S
U6 O7 2.454 . S
U6 O8 2.458 . S
U6 C9 2.984 . S
U6 C10 2.847 . S
U6 C23 2.882 . S
U6 O24 2.441 . S
U6 O25 2.420 . S
U6 O26 2.455 . S
U6 O27 2.449 . S
O7 U6 2.454 . S
O7 C9 1.353 . S
O8 U6 2.458 . S
O8 C9 1.286 . S
C9 U6 2.984 . S
C9 O7 1.353 . S
C9 O8 1.286 . S
C9 C11 1.363 . S
C10 C0 1.465 . S
C10 U6 2.847 . S
C10 O24 1.249 . S
C10 O25 1.202 . S
C11 C9 1.363 . S
C11 C13 1.408 . S
C11 C16 1.342 . S
C12 C13 1.310 . S
C12 C15 1.461 . S
C12 H32 0.932 . S
C13 C11 1.408 . S
C13 C12 1.310 . S
C13 H33 0.930 . S
C14 C15 1.474 . S
C14 C16 1.285 . S
C14 H34 0.929 . S
C15 C12 1.461 . S
C15 C14 1.474 . S
C16 C11 1.342 . S
C16 C14 1.285 . S
C16 H35 0.930 . S
C17 C20 1.424 . S
C17 C22 1.245 . S
C17 C23 1.428 . S
C18 C21 1.260 . S
C18 C22 1.477 . S
C18 H36 0.932 . S
C19 C20 1.384 . S
C19 C21 1.479 . S
C19 H37 0.929 . S
C20 C17 1.424 . S
C20 C19 1.384 . S
C20 H38 0.928 . S
C21 C18 1.260 . S
C21 C19 1.479 . S
C22 C17 1.245 . S
C22 C18 1.477 . S
C22 H39 0.932 . S
C23 U6 2.882 . S
C23 C17 1.428 . S
C23 O26 1.301 . S
C23 O27 1.282 . S
O24 U6 2.441 . S
O24 C10 1.249 . S
O25 U6 2.420 . S
O25 C10 1.202 . S
O26 U6 2.455 . S
O26 C23 1.301 . S
O27 U6 2.449 . S
O27 C23 1.282 . S
H28 C1 0.931 . S
H29 C3 0.929 . S
H30 C4 0.930 . S
H31 C5 0.931 . S
H32 C12 0.932 . S
H33 C13 0.930 . S
H34 C14 0.929 . S
H35 C16 0.930 . S
H36 C18 0.932 . S
H37 C19 0.929 . S
H38 C20 0.928 . S
H39 C22 0.932 . S
C40 C41 1.264 . S
C40 C45 1.479 . S
C40 C50 1.465 . S
C41 C40 1.264 . S
C41 C43 1.339 . S
C41 H68 0.931 . S
C42 C43 1.395 . S
C42 C44 1.320 . S
C43 C41 1.339 . S
C43 C42 1.395 . S
C43 H69 0.929 . S
C44 C42 1.320 . S
C44 C45 1.405 . S
C44 H70 0.930 . S
C45 C40 1.479 . S
C45 C44 1.405 . S
C45 H71 0.931 . S
U46 O47 2.454 . S
U46 O48 2.458 . S
U46 C49 2.984 . S
U46 C50 2.847 . S
U46 C63 2.882 . S
U46 O64 2.441 . S
U46 O65 2.420 . S
U46 O66 2.455 . S
U46 O67 2.449 . S
O47 U46 2.454 . S
O47 C49 1.353 . S
O48 U46 2.458 . S
O48 C49 1.286 . S
C49 U46 2.984 . S
C49 O47 1.353 . S
C49 O48 1.286 . S
C49 C51 1.363 . S
C50 C40 1.465 . S
C50 U46 2.847 . S
C50 O64 1.249 . S
C50 O65 1.202 . S
C51 C49 1.363 . S
C51 C53 1.408 . S
C51 C56 1.342 . S
C52 C53 1.310 . S
C52 C55 1.461 . S
C52 H72 0.932 . S
C53 C51 1.408 . S
C53 C52 1.310 . S
C53 H73 0.930 . S
C54 C55 1.474 . S
C54 C56 1.285 . S
C54 H74 0.929 . S
C55 C52 1.461 . S
C55 C54 1.474 . S
C56 C51 1.342 . S
C56 C54 1.285 . S
C56 H75 0.930 . S
C57 C60 1.424 . S
C57 C62 1.245 . S
C57 C63 1.428 . S
C58 C61 1.260 . S
C58 C62 1.477 . S
C58 H76 0.932 . S
C59 C60 1.384 . S
C59 C61 1.479 . S
C59 H77 0.929 . S
C60 C57 1.424 . S
C60 C59 1.384 . S
C60 H78 0.928 . S
C61 C58 1.260 . S
C61 C59 1.479 . S
C62 C57 1.245 . S
C62 C58 1.477 . S
C62 H79 0.932 . S
C63 U46 2.882 . S
C63 C57 1.428 . S
C63 O66 1.301 . S
C63 O67 1.282 . S
O64 U46 2.441 . S
O64 C50 1.249 . S
O65 U46 2.420 . S
O65 C50 1.202 . S
O66 U46 2.455 . S
O66 C63 1.301 . S
O67 U46 2.449 . S
O67 C63 1.282 . S
H68 C41 0.931 . S
H69 C43 0.929 . S
H70 C44 0.930 . S
H71 C45 0.931 . S
H72 C52 0.932 . S
H73 C53 0.930 . S
H74 C54 0.929 . S
H75 C56 0.930 . S
H76 C58 0.932 . S
H77 C59 0.929 . S
H78 C60 0.928 . S
H79 C62 0.932 . S
C80 C81 1.264 . S
C80 C85 1.479 . S
C80 C90 1.465 . S
C81 C80 1.264 . S
C81 C83 1.339 . S
C81 H108 0.931 . S
C82 C83 1.395 . S
C82 C84 1.320 . S
C83 C81 1.339 . S
C83 C82 1.395 . S
C83 H109 0.929 . S
C84 C82 1.320 . S
C84 C85 1.405 . S
C84 H110 0.930 . S
C85 C80 1.479 . S
C85 C84 1.405 . S
C85 H111 0.931 . S
U86 O87 2.454 . S
U86 O88 2.458 . S
U86 C89 2.984 . S
U86 C90 2.847 . S
U86 C103 2.882 . S
U86 O104 2.441 . S
U86 O105 2.420 . S
U86 O106 2.455 . S
U86 O107 2.449 . S
O87 U86 2.454 . S
O87 C89 1.353 . S
O88 U86 2.458 . S
O88 C89 1.286 . S
C89 U86 2.984 . S
C89 O87 1.353 . S
C89 O88 1.286 . S
C89 C91 1.363 . S
C90 C80 1.465 . S
C90 U86 2.847 . S
C90 O104 1.249 . S
C90 O105 1.202 . S
C91 C89 1.363 . S
C91 C93 1.408 . S
C91 C96 1.342 . S
C92 C93 1.310 . S
C92 C95 1.461 . S
C92 H112 0.932 . S
C93 C91 1.408 . S
C93 C92 1.310 . S
C93 H113 0.930 . S
C94 C95 1.474 . S
C94 C96 1.285 . S
C94 H114 0.929 . S
C95 C92 1.461 . S
C95 C94 1.474 . S
C96 C91 1.342 . S
C96 C94 1.285 . S
C96 H115 0.930 . S
C97 C100 1.424 . S
C97 C102 1.245 . S
C97 C103 1.428 . S
C98 C101 1.260 . S
C98 C102 1.477 . S
C98 H116 0.932 . S
C99 C100 1.384 . S
C99 C101 1.479 . S
C99 H117 0.929 . S
C100 C97 1.424 . S
C100 C99 1.384 . S
C100 H118 0.928 . S
C101 C98 1.260 . S
C101 C99 1.479 . S
C102 C97 1.245 . S
C102 C98 1.477 . S
C102 H119 0.932 . S
C103 U86 2.882 . S
C103 C97 1.428 . S
C103 O106 1.301 . S
C103 O107 1.282 . S
O104 U86 2.441 . S
O104 C90 1.249 . S
O105 U86 2.420 . S
O105 C90 1.202 . S
O106 U86 2.455 . S
O106 C103 1.301 . S
O107 U86 2.449 . S
O107 C103 1.282 . S
H108 C81 0.931 . S
H109 C83 0.929 . S
H110 C84 0.930 . S
H111 C85 0.931 . S
H112 C92 0.932 . S
H113 C93 0.930 . S
H114 C94 0.929 . S
H115 C96 0.930 . S
H116 C98 0.932 . S
H117 C99 0.929 . S
H118 C100 0.928 . S
H119 C102 0.932 . S
C120 C121 1.264 . S
C120 C125 1.479 . S
C120 C130 1.465 . S
C121 C120 1.264 . S
C121 C123 1.339 . S
C121 H148 0.931 . S
C122 C123 1.395 . S
C122 C124 1.320 . S
C123 C121 1.339 . S
C123 C122 1.395 . S
C123 H149 0.929 . S
C124 C122 1.320 . S
C124 C125 1.405 . S
C124 H150 0.930 . S
C125 C120 1.479 . S
C125 C124 1.405 . S
C125 H151 0.931 . S
U126 O127 2.454 . S
U126 O128 2.458 . S
U126 C129 2.984 . S
U126 C130 2.847 . S
U126 C143 2.882 . S
U126 O144 2.441 . S
U126 O145 2.420 . S
U126 O146 2.455 . S
U126 O147 2.449 . S
O127 U126 2.454 . S
O127 C129 1.353 . S
O128 U126 2.458 . S
O128 C129 1.286 . S
C129 U126 2.984 . S
C129 O127 1.353 . S
C129 O128 1.286 . S
C129 C131 1.363 . S
C130 C120 1.465 . S
C130 U126 2.847 . S
C130 O144 1.249 . S
C130 O145 1.202 . S
C131 C129 1.363 . S
C131 C133 1.408 . S
C131 C136 1.342 . S
C132 C133 1.310 . S
C132 C135 1.461 . S
C132 H152 0.932 . S
C133 C131 1.408 . S
C133 C132 1.310 . S
C133 H153 0.930 . S
C134 C135 1.474 . S
C134 C136 1.285 . S
C134 H154 0.929 . S
C135 C132 1.461 . S
C135 C134 1.474 . S
C136 C131 1.342 . S
C136 C134 1.285 . S
C136 H155 0.930 . S
C137 C140 1.424 . S
C137 C142 1.245 . S
C137 C143 1.428 . S
C138 C141 1.260 . S
C138 C142 1.477 . S
C138 H156 0.932 . S
C139 C140 1.384 . S
C139 C141 1.479 . S
C139 H157 0.929 . S
C140 C137 1.424 . S
C140 C139 1.384 . S
C140 H158 0.928 . S
C141 C138 1.260 . S
C141 C139 1.479 . S
C142 C137 1.245 . S
C142 C138 1.477 . S
C142 H159 0.932 . S
C143 U126 2.882 . S
C143 C137 1.428 . S
C143 O146 1.301 . S
C143 O147 1.282 . S
O144 U126 2.441 . S
O144 C130 1.249 . S
O145 U126 2.420 . S
O145 C130 1.202 . S
O146 U126 2.455 . S
O146 C143 1.301 . S
O147 U126 2.449 . S
O147 C143 1.282 . S
H148 C121 0.931 . S
H149 C123 0.929 . S
H150 C124 0.930 . S
H151 C125 0.931 . S
H152 C132 0.932 . S
H153 C133 0.930 . S
H154 C134 0.929 . S
H155 C136 0.930 . S
H156 C138 0.932 . S
H157 C139 0.929 . S
H158 C140 0.928 . S
H159 C142 0.932 . S
C160 C161 1.264 . S
C160 C165 1.479 . S
C160 C170 1.465 . S
C161 C160 1.264 . S
C161 C163 1.339 . S
C161 H188 0.931 . S
C162 C163 1.395 . S
C162 C164 1.320 . S
C163 C161 1.339 . S
C163 C162 1.395 . S
C163 H189 0.929 1_655 S
C164 C162 1.320 . S
C164 C165 1.405 . S
C164 H190 0.930 1_556 S
C165 C160 1.479 . S
C165 C164 1.405 . S
C165 H191 0.931 . S
U166 O167 2.454 . S
U166 O168 2.458 . S
U166 C169 2.984 . S
U166 C170 2.847 . S
U166 C183 2.882 . S
U166 O184 2.441 . S
U166 O185 2.420 . S
U166 O186 2.455 . S
U166 O187 2.449 . S
O167 U166 2.454 . S
O167 C169 1.353 . S
O168 U166 2.458 . S
O168 C169 1.286 . S
C169 U166 2.984 . S
C169 O167 1.353 . S
C169 O168 1.286 . S
C169 C171 1.363 . S
C170 C160 1.465 . S
C170 U166 2.847 . S
C170 O184 1.249 . S
C170 O185 1.202 . S
C171 C169 1.363 . S
C171 C173 1.408 . S
C171 C176 1.342 1_565 S
C172 C173 1.310 1_554 S
C172 C175 1.461 1_564 S
C172 H192 0.932 . S
C173 C171 1.408 . S
C173 C172 1.310 1_556 S
C173 H193 0.930 . S
C174 C175 1.474 . S
C174 C176 1.285 . S
C174 H194 0.929 . S
C175 C172 1.461 1_546 S
C175 C174 1.474 . S
C176 C171 1.342 1_545 S
C176 C174 1.285 . S
C176 H195 0.930 . S
C177 C180 1.424 . S
C177 C182 1.245 . S
C177 C183 1.428 . S
C178 C181 1.259 . S
C178 C182 1.477 1_545 S
C178 H196 0.932 . S
C179 C180 1.384 . S
C179 C181 1.481 1_565 S
C179 H197 0.929 1_655 S
C180 C177 1.424 . S
C180 C179 1.384 . S
C180 H198 0.928 . S
C181 C178 1.259 . S
C181 C179 1.481 1_545 S
C182 C177 1.245 . S
C182 C178 1.477 1_565 S
C182 H199 0.932 1_565 S
C183 U166 2.882 . S
C183 C177 1.428 . S
C183 O186 1.301 . S
C183 O187 1.282 . S
O184 U166 2.441 . S
O184 C170 1.249 . S
O185 U166 2.420 . S
O185 C170 1.202 . S
O186 U166 2.455 . S
O186 C183 1.301 . S
O187 U166 2.449 . S
O187 C183 1.282 . S
H188 C161 0.931 . S
H189 C163 0.929 1_455 S
H190 C164 0.930 1_554 S
H191 C165 0.931 . S
H192 C172 0.932 . S
H193 C173 0.930 . S
H194 C174 0.929 . S
H195 C176 0.930 . S
H196 C178 0.932 . S
H197 C179 0.929 1_455 S
H198 C180 0.928 . S
H199 C182 0.932 1_545 S
C200 C201 1.264 . S
C200 C205 1.479 . S
C200 C210 1.465 . S
C201 C200 1.264 . S
C201 C203 1.339 . S
C201 H228 0.931 . S
C202 C203 1.395 . S
C202 C204 1.320 . S
C203 C201 1.339 . S
C203 C202 1.395 . S
C203 H229 0.929 1_545 S
C204 C202 1.320 . S
C204 C205 1.405 . S
C204 H230 0.930 . S
C205 C200 1.479 . S
C205 C204 1.405 . S
C205 H231 0.931 . S
U206 O207 2.454 . S
U206 O208 2.458 . S
U206 C209 2.984 . S
U206 C210 2.847 . S
U206 C223 2.882 . S
U206 O224 2.441 . S
U206 O225 2.420 . S
U206 O226 2.455 . S
U206 O227 2.449 . S
O207 U206 2.454 . S
O207 C209 1.353 . S
O208 U206 2.458 . S
O208 C209 1.286 . S
C209 U206 2.984 . S
C209 O207 1.353 . S
C209 O208 1.286 . S
C209 C211 1.363 . S
C210 C200 1.465 . S
C210 U206 2.847 . S
C210 O224 1.249 . S
C210 O225 1.202 . S
C211 C209 1.363 . S
C211 C213 1.408 . S
C211 C216 1.342 . S
C212 C213 1.310 . S
C212 C215 1.461 . S
C212 H232 0.932 . S
C213 C211 1.408 . S
C213 C212 1.310 . S
C213 H233 0.930 . S
C214 C215 1.474 . S
C214 C216 1.285 . S
C214 H234 0.929 . S
C215 C212 1.461 . S
C215 C214 1.474 . S
C216 C211 1.342 . S
C216 C214 1.285 . S
C216 H235 0.930 . S
C217 C220 1.424 . S
C217 C222 1.245 . S
C217 C223 1.428 . S
C218 C221 1.260 . S
C218 C222 1.477 . S
C218 H236 0.932 . S
C219 C220 1.384 . S
C219 C221 1.479 . S
C219 H237 0.929 1_545 S
C220 C217 1.424 . S
C220 C219 1.384 . S
C220 H238 0.928 . S
C221 C218 1.260 . S
C221 C219 1.479 . S
C222 C217 1.245 . S
C222 C218 1.477 . S
C222 H239 0.932 . S
C223 U206 2.882 . S
C223 C217 1.428 . S
C223 O226 1.301 . S
C223 O227 1.282 . S
O224 U206 2.441 . S
O224 C210 1.249 . S
O225 U206 2.420 . S
O225 C210 1.202 . S
O226 U206 2.455 . S
O226 C223 1.301 . S
O227 U206 2.449 . S
O227 C223 1.282 . S
H228 C201 0.931 . S
H229 C203 0.929 1_565 S
H230 C204 0.930 . S
H231 C205 0.931 . S
H232 C212 0.932 . S
H233 C213 0.930 . S
H234 C214 0.929 . S
H235 C216 0.930 . S
H236 C218 0.932 . S
H237 C219 0.929 1_565 S
H238 C220 0.928 . S
H239 C222 0.932 . S
C240 C241 1.264 . S
C240 C245 1.479 . S
C240 C250 1.465 . S
C241 C240 1.264 . S
C241 C243 1.339 . S
C241 H268 0.931 . S
C242 C243 1.395 . S
C242 C244 1.320 . S
C243 C241 1.339 . S
C243 C242 1.395 . S
C243 H269 0.929 . S
C244 C242 1.320 . S
C244 C245 1.405 . S
C244 H270 0.930 . S
C245 C240 1.479 . S
C245 C244 1.405 . S
C245 H271 0.931 . S
U246 O247 2.454 . S
U246 O248 2.458 . S
U246 C249 2.984 . S
U246 C250 2.847 . S
U246 C263 2.882 . S
U246 O264 2.441 . S
U246 O265 2.420 . S
U246 O266 2.455 . S
U246 O267 2.449 . S
O247 U246 2.454 . S
O247 C249 1.353 . S
O248 U246 2.458 . S
O248 C249 1.286 . S
C249 U246 2.984 . S
C249 O247 1.353 . S
C249 O248 1.286 . S
C249 C251 1.363 . S
C250 C240 1.465 . S
C250 U246 2.847 . S
C250 O264 1.249 . S
C250 O265 1.202 . S
C251 C249 1.363 . S
C251 C253 1.408 . S
C251 C256 1.342 . S
C252 C253 1.310 . S
C252 C255 1.461 . S
C252 H272 0.932 . S
C253 C251 1.408 . S
C253 C252 1.310 . S
C253 H273 0.930 . S
C254 C255 1.474 . S
C254 C256 1.285 . S
C254 H274 0.929 . S
C255 C252 1.461 . S
C255 C254 1.474 . S
C256 C251 1.342 . S
C256 C254 1.285 . S
C256 H275 0.930 . S
C257 C260 1.424 . S
C257 C262 1.245 . S
C257 C263 1.428 . S
C258 C261 1.260 . S
C258 C262 1.477 . S
C258 H276 0.932 . S
C259 C260 1.384 . S
C259 C261 1.479 . S
C259 H277 0.929 . S
C260 C257 1.424 . S
C260 C259 1.384 . S
C260 H278 0.928 . S
C261 C258 1.260 . S
C261 C259 1.479 . S
C262 C257 1.245 . S
C262 C258 1.477 . S
C262 H279 0.932 . S
C263 U246 2.882 . S
C263 C257 1.428 . S
C263 O266 1.301 . S
C263 O267 1.282 . S
O264 U246 2.441 . S
O264 C250 1.249 . S
O265 U246 2.420 . S
O265 C250 1.202 . S
O266 U246 2.455 . S
O266 C263 1.301 . S
O267 U246 2.449 . S
O267 C263 1.282 . S
H268 C241 0.931 . S
H269 C243 0.929 . S
H270 C244 0.930 . S
H271 C245 0.931 . S
H272 C252 0.932 . S
H273 C253 0.930 . S
H274 C254 0.929 . S
H275 C256 0.930 . S
H276 C258 0.932 . S
H277 C259 0.929 . S
H278 C260 0.928 . S
H279 C262 0.932 . S
C280 C281 1.264 . S
C280 C285 1.479 . S
C280 C290 1.465 . S
C281 C280 1.264 . S
C281 C283 1.339 . S
C281 H308 0.931 . S
C282 C283 1.395 . S
C282 C284 1.320 . S
C283 C281 1.339 . S
C283 C282 1.395 . S
C283 H309 0.929 . S
C284 C282 1.320 . S
C284 C285 1.405 . S
C284 H310 0.930 . S
C285 C280 1.479 . S
C285 C284 1.405 . S
C285 H311 0.931 . S
U286 O287 2.454 . S
U286 O288 2.458 . S
U286 C289 2.984 . S
U286 C290 2.847 . S
U286 C303 2.882 . S
U286 O304 2.441 . S
U286 O305 2.420 . S
U286 O306 2.455 . S
U286 O307 2.449 . S
O287 U286 2.454 . S
O287 C289 1.353 . S
O288 U286 2.458 . S
O288 C289 1.286 . S
C289 U286 2.984 . S
C289 O287 1.353 . S
C289 O288 1.286 . S
C289 C291 1.363 . S
C290 C280 1.465 . S
C290 U286 2.847 . S
C290 O304 1.249 . S
C290 O305 1.202 . S
C291 C289 1.363 . S
C291 C293 1.408 . S
C291 C296 1.342 . S
C292 C293 1.310 . S
C292 C295 1.461 . S
C292 H312 0.932 . S
C293 C291 1.408 . S
C293 C292 1.310 . S
C293 H313 0.930 . S
C294 C295 1.474 . S
C294 C296 1.285 . S
C294 H314 0.929 . S
C295 C292 1.461 . S
C295 C294 1.474 . S
C296 C291 1.342 . S
C296 C294 1.285 . S
C296 H315 0.930 . S
C297 C300 1.424 . S
C297 C302 1.245 . S
C297 C303 1.428 . S
C298 C301 1.260 . S
C298 C302 1.477 . S
C298 H316 0.932 . S
C299 C300 1.384 . S
C299 C301 1.479 . S
C299 H317 0.929 . S
C300 C297 1.424 . S
C300 C299 1.384 . S
C300 H318 0.928 . S
C301 C298 1.260 . S
C301 C299 1.479 . S
C302 C297 1.245 . S
C302 C298 1.477 . S
C302 H319 0.932 . S
C303 U286 2.882 . S
C303 C297 1.428 . S
C303 O306 1.301 . S
C303 O307 1.282 . S
O304 U286 2.441 . S
O304 C290 1.249 . S
O305 U286 2.420 . S
O305 C290 1.202 . S
O306 U286 2.455 . S
O306 C303 1.301 . S
O307 U286 2.449 . S
O307 C303 1.282 . S
H308 C281 0.931 . S
H309 C283 0.929 . S
H310 C284 0.930 . S
H311 C285 0.931 . S
H312 C292 0.932 . S
H313 C293 0.930 . S
H314 C294 0.929 . S
H315 C296 0.930 . S
H316 C298 0.932 . S
H317 C299 0.929 . S
H318 C300 0.928 . S
H319 C302 0.932 . S
O320 Zn321 1.953 . S
O320 C336 1.225 1_655 S
Zn321 O320 1.953 . S
Zn321 O322 1.949 1_655 S
Zn321 O328 1.919 . S
Zn321 O333 1.924 . S
O322 Zn321 1.949 1_455 S
O322 Zn323 1.923 1_445 S
O322 Zn324 1.950 . S
O322 Zn325 1.945 1_545 S
Zn323 O322 1.923 1_665 S
Zn323 O326 1.933 . S
Zn323 O329 1.941 1_565 S
Zn323 O330 1.965 1_665 S
Zn324 O322 1.950 . S
Zn324 O331 1.938 . S
Zn324 O332 1.906 . S
Zn324 O342 1.953 . S
Zn325 O322 1.945 1_565 S
Zn325 O327 1.932 1_455 S
Zn325 O334 1.977 . S
Zn325 O335 1.910 1_455 S
O326 Zn323 1.933 . S
O326 C337 1.226 . S
O327 Zn325 1.932 1_655 S
O327 C337 1.307 . S
O328 Zn321 1.919 . S
O328 C339 1.253 . S
O329 Zn323 1.941 1_545 S
O329 C339 1.283 . S
O330 Zn323 1.965 1_445 S
O330 C338 1.303 . S
O331 Zn324 1.938 . S
O331 C338 1.247 . S
O332 Zn324 1.906 . S
O332 C340 1.304 1_545 S
O333 Zn321 1.924 . S
O333 C341 1.311 . S
O334 Zn325 1.977 . S
O334 C340 1.272 . S
O335 Zn325 1.910 1_655 S
O335 C341 1.231 1_565 S
C336 O320 1.225 1_455 S
C336 O342 1.298 . S
C337 O326 1.226 . S
C337 O327 1.307 . S
C338 O330 1.303 . S
C338 O331 1.247 . S
C339 O328 1.253 . S
C339 O329 1.283 . S
C340 O332 1.304 1_565 S
C340 O334 1.272 . S
C341 O333 1.311 . S
C341 O335 1.231 1_545 S
O342 Zn324 1.953 . S
O342 C336 1.298 . S
O343 Zn344 1.953 . S
O343 C359 1.225 . S
Zn344 O343 1.953 . S
Zn344 O345 1.949 1_556 S
Zn344 O351 1.919 . S
Zn344 O356 1.924 1_556 S
O345 Zn344 1.949 1_554 S
O345 Zn346 1.923 1_545 S
O345 Zn347 1.950 . S
O345 Zn348 1.945 1_545 S
Zn346 O345 1.923 1_565 S
Zn346 O349 1.933 . S
Zn346 O352 1.941 1_554 S
Zn346 O353 1.965 1_554 S
Zn347 O345 1.950 . S
Zn347 O354 1.938 . S
Zn347 O355 1.906 . S
Zn347 O365 1.953 . S
Zn348 O345 1.945 1_565 S
Zn348 O350 1.932 . S
Zn348 O357 1.977 1_565 S
Zn348 O358 1.910 1_565 S
O349 Zn346 1.933 . S
O349 C360 1.226 . S
O350 Zn348 1.932 . S
O350 C360 1.307 . S
O351 Zn344 1.919 . S
O351 C362 1.253 1_545 S
O352 Zn346 1.941 1_556 S
O352 C362 1.283 . S
O353 Zn346 1.965 1_556 S
O353 C361 1.305 . S
O354 Zn347 1.938 . S
O354 C361 1.229 1_544 S
O355 Zn347 1.906 . S
O355 C363 1.304 . S
O356 Zn344 1.924 1_554 S
O356 C364 1.311 . S
O357 Zn348 1.977 1_545 S
O357 C363 1.272 . S
O358 Zn348 1.910 1_545 S
O358 C364 1.231 . S
C359 O343 1.225 . S
C359 O365 1.298 1_556 S
C360 O349 1.226 . S
C360 O350 1.307 . S
C361 O353 1.305 . S
C361 O354 1.229 1_566 S
C362 O351 1.253 1_565 S
C362 O352 1.283 . S
C363 O355 1.304 . S
C363 O357 1.272 . S
C364 O356 1.311 . S
C364 O358 1.231 . S
O365 Zn347 1.953 . S
O365 C359 1.298 1_554 S
O366 Zn367 1.953 . S
O366 C382 1.225 . S
Zn367 O366 1.953 . S
Zn367 O368 1.949 . S
Zn367 O374 1.919 . S
Zn367 O379 1.924 . S
O368 Zn367 1.949 . S
O368 Zn369 1.923 . S
O368 Zn370 1.950 . S
O368 Zn371 1.945 . S
Zn369 O368 1.923 . S
Zn369 O372 1.933 . S
Zn369 O375 1.941 . S
Zn369 O376 1.965 . S
Zn370 O368 1.950 . S
Zn370 O377 1.938 . S
Zn370 O378 1.906 . S
Zn370 O388 1.953 . S
Zn371 O368 1.945 . S
Zn371 O373 1.932 . S
Zn371 O380 1.977 . S
Zn371 O381 1.910 . S
O372 Zn369 1.933 . S
O372 C383 1.226 . S
O373 Zn371 1.932 . S
O373 C383 1.307 . S
O374 Zn367 1.919 . S
O374 C385 1.253 . S
O375 Zn369 1.941 . S
O375 C385 1.283 . S
O376 Zn369 1.965 . S
O376 C384 1.303 . S
O377 Zn370 1.938 . S
O377 C384 1.247 . S
O378 Zn370 1.906 . S
O378 C386 1.304 . S
O379 Zn367 1.924 . S
O379 C387 1.311 . S
O380 Zn371 1.977 . S
O380 C386 1.272 . S
O381 Zn371 1.910 . S
O381 C387 1.231 . S
C382 O366 1.225 . S
C382 O388 1.298 . S
C383 O372 1.226 . S
C383 O373 1.307 . S
C384 O376 1.303 . S
C384 O377 1.247 . S
C385 O374 1.253 . S
C385 O375 1.283 . S
C386 O378 1.304 . S
C386 O380 1.272 . S
C387 O379 1.311 . S
C387 O381 1.231 . S
O388 Zn370 1.953 . S
O388 C382 1.298 . S
O389 Zn390 1.953 . S
O389 C405 1.225 . S
Zn390 O389 1.953 . S
Zn390 O391 1.949 1_655 S
Zn390 O397 1.919 . S
Zn390 O402 1.924 . S
O391 Zn390 1.949 1_455 S
O391 Zn392 1.923 1_454 S
O391 Zn393 1.950 . S
O391 Zn394 1.945 1_554 S
Zn392 O391 1.923 1_656 S
Zn392 O395 1.933 1_655 S
Zn392 O398 1.941 . S
Zn392 O399 1.965 . S
Zn393 O391 1.950 . S
Zn393 O400 1.938 . S
Zn393 O401 1.906 . S
Zn393 O411 1.953 . S
Zn394 O391 1.945 1_556 S
Zn394 O396 1.932 . S
Zn394 O403 1.977 1_556 S
Zn394 O404 1.910 1_556 S
O395 Zn392 1.933 1_455 S
O395 C406 1.226 . S
O396 Zn394 1.932 . S
O396 C406 1.307 . S
O397 Zn390 1.919 . S
O397 C408 1.253 1_554 S
O398 Zn392 1.941 . S
O398 C408 1.283 . S
O399 Zn392 1.965 . S
O399 C407 1.303 . S
O400 Zn393 1.938 . S
O400 C407 1.247 1_454 S
O401 Zn393 1.906 . S
O401 C409 1.304 . S
O402 Zn390 1.924 . S
O402 C410 1.311 1_655 S
O403 Zn394 1.977 1_554 S
O403 C409 1.272 . S
O404 Zn394 1.910 1_554 S
O404 C410 1.231 . S
C405 O389 1.225 . S
C405 O411 1.298 1_655 S
C406 O395 1.226 . S
C406 O396 1.307 . S
C407 O399 1.303 . S
C407 O400 1.247 1_656 S
C408 O397 1.253 1_556 S
C408 O398 1.283 . S
C409 O401 1.304 . S
C409 O403 1.272 . S
C410 O402 1.311 1_455 S
C410 O404 1.231 . S
O411 Zn393 1.953 . S
O411 C405 1.298 1_455 S
C412 C413 1.387 . S
C412 H416 0.950 . S
C412 C421 1.390 . S
C413 C412 1.387 . S
C413 C415 1.387 . S
H414 C421 0.950 . S
C415 C413 1.387 . S
C415 C417 1.390 . S
C415 H419 0.950 . S
H416 C412 0.950 . S
C417 C415 1.390 . S
C417 C418 1.387 . S
C417 H420 0.950 . S
C418 C417 1.387 . S
C418 C421 1.387 . S
H419 C415 0.950 . S
H420 C417 0.950 . S
C421 C412 1.390 . S
C421 H414 0.950 . S
C421 C418 1.387 . S
C422 C423 1.387 . S
C422 H426 0.950 . S
C422 C431 1.390 . S
C423 C422 1.387 . S
C423 C425 1.387 . S
H424 C431 0.950 . S
C425 C423 1.387 . S
C425 C427 1.390 . S
C425 H429 0.950 . S
H426 C422 0.950 . S
C427 C425 1.390 . S
C427 C428 1.387 . S
C427 H430 0.950 . S
C428 C427 1.387 . S
C428 C431 1.387 . S
H429 C425 0.950 . S
H430 C427 0.950 . S
C431 C422 1.390 . S
C431 H424 0.950 . S
C431 C428 1.387 . S
C432 C433 1.387 . S
C432 H436 0.950 . S
C432 C441 1.390 . S
C433 C432 1.387 . S
C433 C435 1.387 . S
H434 C441 0.950 . S
C435 C433 1.387 . S
C435 C437 1.390 . S
C435 H439 0.950 . S
H436 C432 0.950 . S
C437 C435 1.390 . S
C437 C438 1.387 . S
C437 H440 0.950 . S
C438 C437 1.387 . S
C438 C441 1.387 . S
H439 C435 0.950 . S
H440 C437 0.950 . S
C441 C432 1.390 . S
C441 H434 0.950 . S
C441 C438 1.387 . S
C442 C443 1.387 . S
C442 H446 0.950 . S
C442 C451 1.390 . S
C443 C442 1.387 . S
C443 C445 1.387 . S
H444 C451 0.950 . S
C445 C443 1.387 . S
C445 C447 1.390 . S
C445 H449 0.950 . S
H446 C442 0.950 . S
C447 C445 1.390 . S
C447 C448 1.387 . S
C447 H450 0.950 . S
C448 C447 1.387 . S
C448 C451 1.387 . S
H449 C445 0.950 . S
H450 C447 0.950 . S
C451 C442 1.390 . S
C451 H444 0.950 . S
C451 C448 1.387 . S
C452 C453 1.387 . S
C452 H456 0.950 . S
C452 C461 1.390 . S
C453 C452 1.387 . S
C453 C455 1.387 . S
H454 C461 0.950 . S
C455 C453 1.387 . S
C455 C457 1.390 . S
C455 H459 0.950 . S
H456 C452 0.950 . S
C457 C455 1.390 . S
C457 C458 1.387 . S
C457 H460 0.950 . S
C458 C457 1.387 . S
C458 C461 1.387 . S
H459 C455 0.950 . S
H460 C457 0.950 . S
C461 C452 1.390 . S
C461 H454 0.950 . S
C461 C458 1.387 . S
C462 C463 1.387 . S
C462 H466 0.950 . S
C462 C471 1.390 . S
C463 C462 1.387 . S
C463 C465 1.387 . S
H464 C471 0.950 . S
C465 C463 1.387 . S
C465 C467 1.390 . S
C465 H469 0.950 . S
H466 C462 0.950 . S
C467 C465 1.390 . S
C467 C468 1.387 . S
C467 H470 0.950 . S
C468 C467 1.387 . S
C468 C471 1.387 . S
H469 C465 0.950 . S
H470 C467 0.950 . S
C471 C462 1.390 . S
C471 H464 0.950 . S
C471 C468 1.387 . S
C472 C473 1.387 . S
C472 H476 0.950 . S
C472 C481 1.390 . S
C473 C472 1.387 . S
C473 C475 1.387 . S
H474 C481 0.950 . S
C475 C473 1.387 . S
C475 C477 1.390 . S
C475 H479 0.950 1_556 S
H476 C472 0.950 . S
C477 C475 1.390 . S
C477 C478 1.387 . S
C477 H480 0.950 1_556 S
C478 C477 1.387 . S
C478 C481 1.387 . S
H479 C475 0.950 1_554 S
H480 C477 0.950 1_554 S
C481 C472 1.390 . S
C481 H474 0.950 . S
C481 C478 1.387 . S
C482 C483 1.387 . S
C482 H486 0.950 . S
C482 C491 1.390 . S
C483 C482 1.387 . S
C483 C485 1.387 . S
H484 C491 0.950 . S
C485 C483 1.387 . S
C485 C487 1.390 . S
C485 H489 0.950 . S
H486 C482 0.950 . S
C487 C485 1.390 . S
C487 C488 1.387 . S
C487 H490 0.950 . S
C488 C487 1.387 . S
C488 C491 1.387 . S
H489 C485 0.950 . S
H490 C487 0.950 . S
C491 C482 1.390 . S
C491 H484 0.950 . S
C491 C488 1.387 . S
C492 C493 1.387 . S
C492 H496 0.950 . S
C492 C501 1.390 . S
C493 C492 1.387 . S
C493 C495 1.387 . S
H494 C501 0.950 . S
C495 C493 1.387 . S
C495 C497 1.390 . S
C495 H499 0.950 . S
H496 C492 0.950 . S
C497 C495 1.390 . S
C497 C498 1.387 . S
C497 H500 0.950 . S
C498 C497 1.387 . S
C498 C501 1.387 . S
H499 C495 0.950 . S
H500 C497 0.950 . S
C501 C492 1.390 . S
C501 H494 0.950 . S
C501 C498 1.387 . S
C502 C503 1.387 . S
C502 H506 0.950 . S
C502 C511 1.390 . S
C503 C502 1.387 . S
C503 C505 1.387 1_556 S
H504 C511 0.950 . S
C505 C503 1.387 1_554 S
C505 C507 1.390 . S
C505 H509 0.950 . S
H506 C502 0.950 . S
C507 C505 1.390 . S
C507 C508 1.387 1_554 S
C507 H510 0.950 . S
C508 C507 1.387 1_556 S
C508 C511 1.387 . S
H509 C505 0.950 . S
H510 C507 0.950 . S
C511 C502 1.390 . S
C511 H504 0.950 . S
C511 C508 1.387 . S
C512 C513 1.387 . S
C512 H516 0.950 . S
C512 C521 1.390 . S
C513 C512 1.387 . S
C513 C515 1.387 . S
H514 C521 0.950 . S
C515 C513 1.387 . S
C515 C517 1.390 . S
C515 H519 0.950 . S
H516 C512 0.950 . S
C517 C515 1.390 . S
C517 C518 1.387 . S
C517 H520 0.950 . S
C518 C517 1.387 . S
C518 C521 1.387 . S
H519 C515 0.950 . S
H520 C517 0.950 . S
C521 C512 1.390 . S
C521 H514 0.950 . S
C521 C518 1.387 . S
C522 C523 1.387 . S
C522 H526 0.950 . S
C522 C531 1.390 . S
C523 C522 1.387 . S
C523 C525 1.387 . S
H524 C531 0.950 . S
C525 C523 1.387 . S
C525 C527 1.390 . S
C525 H529 0.950 . S
H526 C522 0.950 . S
C527 C525 1.390 . S
C527 C528 1.387 . S
C527 H530 0.950 . S
C528 C527 1.387 . S
C528 C531 1.387 . S
H529 C525 0.950 . S
H530 C527 0.950 . S
C531 C522 1.390 . S
C531 H524 0.950 . S
C531 C528 1.387 . S
C532 C533 1.387 1_565 S
C532 H536 0.950 . S
C532 C541 1.390 . S
C533 C532 1.387 1_545 S
C533 C535 1.387 . S
H534 C541 0.950 . S
C535 C533 1.387 . S
C535 C537 1.390 . S
C535 H539 0.950 . S
H536 C532 0.950 . S
C537 C535 1.390 . S
C537 C538 1.387 . S
C537 H540 0.950 . S
C538 C537 1.387 . S
C538 C541 1.387 1_545 S
H539 C535 0.950 . S
H540 C537 0.950 . S
C541 C532 1.390 . S
C541 H534 0.950 . S
C541 C538 1.387 1_565 S
C542 C543 1.387 1_565 S
C542 H546 0.950 . S
C542 C551 1.390 . S
C543 C542 1.387 1_545 S
C543 C545 1.387 . S
H544 C551 0.950 . S
C545 C543 1.387 . S
C545 C547 1.390 . S
C545 H549 0.950 . S
H546 C542 0.950 . S
C547 C545 1.390 . S
C547 C548 1.387 . S
C547 H550 0.950 . S
C548 C547 1.387 . S
C548 C551 1.387 1_545 S
H549 C545 0.950 . S
H550 C547 0.950 . S
C551 C542 1.390 . S
C551 H544 0.950 . S
C551 C548 1.387 1_565 S
C552 C553 1.387 . S
C552 H556 0.950 . S
C552 C561 1.390 . S
C553 C552 1.387 . S
C553 C555 1.387 . S
H554 C561 0.950 . S
C555 C553 1.387 . S
C555 C557 1.390 . S
C555 H559 0.950 . S
H556 C552 0.950 . S
C557 C555 1.390 . S
C557 C558 1.387 . S
C557 H560 0.950 . S
C558 C557 1.387 . S
C558 C561 1.387 . S
H559 C555 0.950 . S
H560 C557 0.950 . S
C561 C552 1.390 . S
C561 H554 0.950 . S
C561 C558 1.387 . S
C562 C563 1.387 . S
C562 H566 0.950 . S
C562 C571 1.390 . S
C563 C562 1.387 . S
C563 C565 1.387 . S
H564 C571 0.950 . S
C565 C563 1.387 . S
C565 C567 1.390 . S
C565 H569 0.950 . S
H566 C562 0.950 . S
C567 C565 1.390 . S
C567 C568 1.387 . S
C567 H570 0.950 . S
C568 C567 1.387 . S
C568 C571 1.387 . S
H569 C565 0.950 . S
H570 C567 0.950 . S
C571 C562 1.390 . S
C571 H564 0.950 . S
C571 C568 1.387 . S
C572 C573 1.387 1_565 S
C572 H576 0.950 . S
C572 C581 1.390 . S
C573 C572 1.387 1_545 S
C573 C575 1.387 1_556 S
H574 C581 0.950 . S
C575 C573 1.387 1_554 S
C575 C577 1.390 . S
C575 H579 0.950 . S
H576 C572 0.950 . S
C577 C575 1.390 . S
C577 C578 1.387 1_544 S
C577 H580 0.950 . S
C578 C577 1.387 1_566 S
C578 C581 1.387 . S
H579 C575 0.950 . S
H580 C577 0.950 . S
C581 C572 1.390 . S
C581 H574 0.950 . S
C581 C578 1.387 . S
C582 C583 1.387 . S
C582 H586 0.950 . S
C582 C591 1.390 . S
C583 C582 1.387 . S
C583 C585 1.387 1_545 S
H584 C591 0.950 . S
C585 C583 1.387 1_565 S
C585 C587 1.389 1_565 S
C585 H589 0.950 . S
H586 C582 0.950 . S
C587 C585 1.389 1_545 S
C587 C588 1.396 . S
C587 H590 0.942 1_545 S
C588 C587 1.396 . S
C588 C591 1.387 . S
H589 C585 0.950 . S
H590 C587 0.942 1_565 S
C591 C582 1.390 . S
C591 H584 0.950 . S
C591 C588 1.387 . S
C592 C593 1.387 . S
C592 H596 0.950 . S
C592 C601 1.390 . S
C593 C592 1.387 . S
C593 C595 1.387 1_554 S
H594 C601 0.950 . S
C595 C593 1.387 1_556 S
C595 C597 1.390 . S
C595 H599 0.950 . S
H596 C592 0.950 . S
C597 C595 1.390 . S
C597 C598 1.387 1_556 S
C597 H600 0.950 . S
C598 C597 1.387 1_554 S
C598 C601 1.387 . S
H599 C595 0.950 . S
H600 C597 0.950 . S
C601 C592 1.390 . S
C601 H594 0.950 . S
C601 C598 1.387 . S
C602 C603 1.387 . S
C602 H606 0.950 . S
C602 C611 1.390 . S
C603 C602 1.387 . S
C603 C605 1.387 . S
H604 C611 0.950 . S
C605 C603 1.387 . S
C605 C607 1.390 . S
C605 H609 0.950 . S
H606 C602 0.950 . S
C607 C605 1.390 . S
C607 C608 1.387 . S
C607 H610 0.950 . S
C608 C607 1.387 . S
C608 C611 1.387 . S
H609 C605 0.950 . S
H610 C607 0.950 . S
C611 C602 1.390 . S
C611 H604 0.950 . S
C611 C608 1.387 . S
C612 C613 1.387 1_455 S
C612 H616 0.950 . S
C612 C621 1.390 . S
C613 C612 1.387 1_655 S
C613 C615 1.387 1_556 S
H614 C621 0.950 . S
C615 C613 1.387 1_554 S
C615 C617 1.390 . S
C615 H619 0.950 . S
H616 C612 0.950 . S
C617 C615 1.390 . S
C617 C618 1.387 1_554 S
C617 H620 0.950 . S
C618 C617 1.387 1_556 S
C618 C621 1.387 1_655 S
H619 C615 0.950 . S
H620 C617 0.950 . S
C621 C612 1.390 . S
C621 H614 0.950 . S
C621 C618 1.387 1_455 S
C622 C623 1.387 . S
C622 H626 0.950 . S
C622 C631 1.390 . S
C623 C622 1.387 . S
C623 C625 1.387 . S
H624 C631 0.950 . S
C625 C623 1.387 . S
C625 C627 1.390 . S
C625 H629 0.950 . S
H626 C622 0.950 . S
C627 C625 1.390 . S
C627 C628 1.387 . S
C627 H630 0.950 . S
C628 C627 1.387 . S
C628 C631 1.387 . S
H629 C625 0.950 . S
H630 C627 0.950 . S
C631 C622 1.390 . S
C631 H624 0.950 . S
C631 C628 1.387 . S
C632 C633 1.387 . S
C632 H636 0.950 1_455 S
C632 C641 1.390 . S
C633 C632 1.387 . S
C633 C635 1.387 . S
H634 C641 0.950 1_655 S
C635 C633 1.387 . S
C635 C637 1.390 . S
C635 H639 0.950 . S
H636 C632 0.950 1_655 S
C637 C635 1.390 . S
C637 C638 1.387 . S
C637 H640 0.950 . S
C638 C637 1.387 . S
C638 C641 1.387 . S
H639 C635 0.950 . S
H640 C637 0.950 . S
C641 C632 1.390 . S
C641 H634 0.950 1_455 S
C641 C638 1.387 . S
C642 C643 1.387 . S
C642 H646 0.950 . S
C642 C651 1.390 . S
C643 C642 1.387 . S
C643 C645 1.387 . S
H644 C651 0.950 . S
C645 C643 1.387 . S
C645 C647 1.390 . S
C645 H649 0.950 . S
H646 C642 0.950 . S
C647 C645 1.390 . S
C647 C648 1.387 . S
C647 H650 0.950 . S
C648 C647 1.387 . S
C648 C651 1.387 . S
H649 C645 0.950 . S
H650 C647 0.950 . S
C651 C642 1.390 . S
C651 H644 0.950 . S
C651 C648 1.387 . S
C413 C21 1.679 . S
C418 C338 1.652 . S
C423 C61 1.596 . S
C428 C362 1.599 . S
C438 C382 1.494 . S
C433 C82 1.491 . S
C443 C135 1.529 . S
C448 C405 1.556 . S
C458 C364 1.659 . S
C453 C15 1.711 . S
C468 C340 1.679 . S
C463 C42 1.677 . S
C478 C408 1.638 . S
C473 C101 1.746 . S
C488 C385 1.595 . S
C483 C122 1.691 . S
C493 C2 1.497 . S
C498 C410 1.437 . S
C508 C359 1.666 . S
C503 C95 1.637 . S
C513 C141 1.709 . S
C518 C337 1.707 . S
C523 C55 1.439 . S
C528 C387 1.394 . S
C538 C341 1.902 . S
C533 C181 1.722 . S
C543 C202 1.669 . S
C548 C363 1.815 . S
C553 C255 1.832 . S
C558 C383 1.891 . S
C563 C295 1.850 . S
C568 C406 1.897 . S
C573 C175 1.737 . S
C578 C361 1.763 . S
C588 C339 1.873 . S
C583 C221 1.673 . S
C598 C409 1.607 . S
C593 C242 1.534 . S
C608 C386 1.692 . S
C603 C301 1.729 . S
C613 C162 1.894 . S
C618 C407 1.976 . S
C628 C360 1.751 . S
C623 C261 1.615 . S
C638 C336 1.767 . S
C633 C282 1.766 . S
C643 C215 1.982 . S
C648 C384 1.987 . S
