# Generated by pormake.
# Topology ocu, (6,8)-cn, num edge types: 1
# Building blocks:
#     Node 0, Type 0, BuildingBlock: PAMTOO_clean_sbu_0, # of connection points: 6
#     Node 1, Type 0, BuildingBlock: PAMTOO_clean_sbu_0, # of connection points: 6
#     Node 2, Type 0, BuildingBlock: PAMTOO_clean_sbu_0, # of connection points: 6
#     Node 3, Type 0, BuildingBlock: PAMTOO_clean_sbu_0, # of connection points: 6
#     Node 4, Type 0, BuildingBlock: PAMTOO_clean_sbu_0, # of connection points: 6
#     Node 5, Type 0, BuildingBlock: PAMTOO_clean_sbu_0, # of connection points: 6
#     Node 6, Type 0, BuildingBlock: PAMTOO_clean_sbu_0, # of connection points: 6
#     Node 7, Type 0, BuildingBlock: PAMTOO_clean_sbu_0, # of connection points: 6
#     Node 8, Type 1, BuildingBlock: GIZVER_clean_sbu_0, # of connection points: 8
#     Node 9, Type 1, BuildingBlock: GIZVER_clean_sbu_0, # of connection points: 8
#     Node 10, Type 1, BuildingBlock: GIZVER_clean_sbu_0, # of connection points: 8
#     Node 11, Type 1, BuildingBlock: GIZVER_clean_sbu_0, # of connection points: 8
#     Node 12, Type 1, BuildingBlock: GIZVER_clean_sbu_0, # of connection points: 8
#     Node 13, Type 1, BuildingBlock: GIZVER_clean_sbu_0, # of connection points: 8
#     Edge 14, Type (0, 1), BuildingBlock: KIFKEQ_clean_linker_1, # of connection points: 2
#     Edge 15, Type (0, 1), BuildingBlock: KIFKEQ_clean_linker_1, # of connection points: 2
#     Edge 16, Type (0, 1), BuildingBlock: KIFKEQ_clean_linker_1, # of connection points: 2
#     Edge 17, Type (0, 1), BuildingBlock: KIFKEQ_clean_linker_1, # of connection points: 2
#     Edge 18, Type (0, 1), BuildingBlock: KIFKEQ_clean_linker_1, # of connection points: 2
#     Edge 19, Type (0, 1), BuildingBlock: KIFKEQ_clean_linker_1, # of connection points: 2
#     Edge 20, Type (0, 1), BuildingBlock: KIFKEQ_clean_linker_1, # of connection points: 2
#     Edge 21, Type (0, 1), BuildingBlock: KIFKEQ_clean_linker_1, # of connection points: 2
#     Edge 22, Type (0, 1), BuildingBlock: KIFKEQ_clean_linker_1, # of connection points: 2
#     Edge 23, Type (0, 1), BuildingBlock: KIFKEQ_clean_linker_1, # of connection points: 2
#     Edge 24, Type (0, 1), BuildingBlock: KIFKEQ_clean_linker_1, # of connection points: 2
#     Edge 25, Type (0, 1), BuildingBlock: KIFKEQ_clean_linker_1, # of connection points: 2
#     Edge 26, Type (0, 1), BuildingBlock: KIFKEQ_clean_linker_1, # of connection points: 2
#     Edge 27, Type (0, 1), BuildingBlock: KIFKEQ_clean_linker_1, # of connection points: 2
#     Edge 28, Type (0, 1), BuildingBlock: KIFKEQ_clean_linker_1, # of connection points: 2
#     Edge 29, Type (0, 1), BuildingBlock: KIFKEQ_clean_linker_1, # of connection points: 2
#     Edge 30, Type (0, 1), BuildingBlock: KIFKEQ_clean_linker_1, # of connection points: 2
#     Edge 31, Type (0, 1), BuildingBlock: KIFKEQ_clean_linker_1, # of connection points: 2
#     Edge 32, Type (0, 1), BuildingBlock: KIFKEQ_clean_linker_1, # of connection points: 2
#     Edge 33, Type (0, 1), BuildingBlock: KIFKEQ_clean_linker_1, # of connection points: 2
#     Edge 34, Type (0, 1), BuildingBlock: KIFKEQ_clean_linker_1, # of connection points: 2
#     Edge 35, Type (0, 1), BuildingBlock: KIFKEQ_clean_linker_1, # of connection points: 2
#     Edge 36, Type (0, 1), BuildingBlock: KIFKEQ_clean_linker_1, # of connection points: 2
#     Edge 37, Type (0, 1), BuildingBlock: KIFKEQ_clean_linker_1, # of connection points: 2
#     Edge 38, Type (0, 1), BuildingBlock: KIFKEQ_clean_linker_1, # of connection points: 2
#     Edge 39, Type (0, 1), BuildingBlock: KIFKEQ_clean_linker_1, # of connection points: 2
#     Edge 40, Type (0, 1), BuildingBlock: KIFKEQ_clean_linker_1, # of connection points: 2
#     Edge 41, Type (0, 1), BuildingBlock: KIFKEQ_clean_linker_1, # of connection points: 2
#     Edge 42, Type (0, 1), BuildingBlock: KIFKEQ_clean_linker_1, # of connection points: 2
#     Edge 43, Type (0, 1), BuildingBlock: KIFKEQ_clean_linker_1, # of connection points: 2
#     Edge 44, Type (0, 1), BuildingBlock: KIFKEQ_clean_linker_1, # of connection points: 2
#     Edge 45, Type (0, 1), BuildingBlock: KIFKEQ_clean_linker_1, # of connection points: 2
#     Edge 46, Type (0, 1), BuildingBlock: KIFKEQ_clean_linker_1, # of connection points: 2
#     Edge 47, Type (0, 1), BuildingBlock: KIFKEQ_clean_linker_1, # of connection points: 2
#     Edge 48, Type (0, 1), BuildingBlock: KIFKEQ_clean_linker_1, # of connection points: 2
#     Edge 49, Type (0, 1), BuildingBlock: KIFKEQ_clean_linker_1, # of connection points: 2
#     Edge 50, Type (0, 1), BuildingBlock: KIFKEQ_clean_linker_1, # of connection points: 2
#     Edge 51, Type (0, 1), BuildingBlock: KIFKEQ_clean_linker_1, # of connection points: 2
#     Edge 52, Type (0, 1), BuildingBlock: KIFKEQ_clean_linker_1, # of connection points: 2
#     Edge 53, Type (0, 1), BuildingBlock: KIFKEQ_clean_linker_1, # of connection points: 2
#     Edge 54, Type (0, 1), BuildingBlock: KIFKEQ_clean_linker_1, # of connection points: 2
#     Edge 55, Type (0, 1), BuildingBlock: KIFKEQ_clean_linker_1, # of connection points: 2
#     Edge 56, Type (0, 1), BuildingBlock: KIFKEQ_clean_linker_1, # of connection points: 2
#     Edge 57, Type (0, 1), BuildingBlock: KIFKEQ_clean_linker_1, # of connection points: 2
#     Edge 58, Type (0, 1), BuildingBlock: KIFKEQ_clean_linker_1, # of connection points: 2
#     Edge 59, Type (0, 1), BuildingBlock: KIFKEQ_clean_linker_1, # of connection points: 2
#     Edge 60, Type (0, 1), BuildingBlock: KIFKEQ_clean_linker_1, # of connection points: 2
#     Edge 61, Type (0, 1), BuildingBlock: KIFKEQ_clean_linker_1, # of connection points: 2
# Relax obj value: 0.272
# Max RMSD: 0.311
# Mean RMSD: 0.196
data_MOF--net-ocu--node1-PAMTOO_clean_sbu_0--node2-GIZVER_clean_sbu_0--edge1-KIFKEQ_clean_linker_1
_symmetry_space_group_name_H-M    P1
_symmetry_Int_Tables_number       1
_symmetry_cell_setting            triclinic
loop_
_symmetry_equiv_pos_as_xyz
'x, y, z'
_cell_length_a     42.19128
_cell_length_b     45.832932
_cell_length_c     33.156341
_cell_angle_alpha  91.375021
_cell_angle_beta   93.512294
_cell_angle_gamma 106.01901
loop_
_atom_site_label
_atom_site_type_symbol
_atom_site_fract_x
_atom_site_fract_y
_atom_site_fract_z
_atom_type_partial_charge
Dy0 Dy 0.34708 0.31685 0.33161 0.0
Dy1 Dy 0.29417 0.30683 0.25458 0.0
C2 C 0.35331 0.27095 0.25468 0.0
O3 O 0.37103 0.35548 0.29206 0.0
O4 O 0.33186 0.34971 0.23919 0.0
O5 O 0.39717 0.32493 0.35794 0.0
O6 O 0.35725 0.32294 0.39634 0.0
O7 O 0.27751 0.34146 0.29388 0.0
O8 O 0.31451 0.34753 0.34914 0.0
O9 O 0.2682 0.27104 0.29578 0.0
O10 O 0.30839 0.2737 0.34666 0.0
O11 O 0.2445 0.29731 0.22694 0.0
O12 O 0.28559 0.30164 0.18961 0.0
C13 C 0.36092 0.36399 0.25695 0.0
O14 O 0.3656 0.2847 0.29023 0.0
O15 O 0.32545 0.27487 0.2381 0.0
C16 C 0.40191 0.30623 0.42289 0.0
C17 C 0.42948 0.2706 0.47495 0.0
C18 C 0.39938 0.25768 0.45213 0.0
C19 C 0.38576 0.27533 0.42621 0.0
C20 C 0.43151 0.31938 0.44618 0.0
C21 C 0.44524 0.30172 0.47198 0.0
C22 C 0.38851 0.32493 0.39493 0.0
C23 C 0.28838 0.35361 0.3307 0.0
C24 C 0.27822 0.26142 0.33002 0.0
C25 C 0.24387 0.32248 0.16632 0.0
C26 C 0.2256 0.36672 0.12035 0.0
C27 C 0.23648 0.37276 0.16147 0.0
C28 C 0.24578 0.35098 0.18408 0.0
C29 C 0.23363 0.3163 0.12526 0.0
C30 C 0.22454 0.33831 0.10232 0.0
C31 C 0.25441 0.3001 0.1904 0.0
H32 H 0.38692 0.23367 0.45323 0.0
H33 H 0.36291 0.26478 0.40831 0.0
H34 H 0.44421 0.34325 0.44404 0.0
H35 H 0.46834 0.31232 0.48931 0.0
H36 H 0.23684 0.39399 0.17679 0.0
H37 H 0.25414 0.35631 0.21564 0.0
H38 H 0.23265 0.29451 0.11102 0.0
H39 H 0.21649 0.33303 0.07069 0.0
Dy40 Dy 0.83164 0.3187 0.26583 0.0
Dy41 Dy 0.78828 0.31514 0.33983 0.0
C42 C 0.85634 0.36577 0.34162 0.0
O43 O 0.85863 0.29375 0.30991 0.0
O44 O 0.81875 0.28051 0.35541 0.0
O45 O 0.87582 0.3344 0.23345 0.0
O46 O 0.8319 0.30352 0.20376 0.0
O47 O 0.75463 0.28736 0.28973 0.0
O48 O 0.79515 0.27251 0.26145 0.0
O49 O 0.77261 0.35145 0.30209 0.0
O50 O 0.79369 0.34367 0.24263 0.0
O51 O 0.75261 0.29086 0.37962 0.0
O52 O 0.77133 0.34014 0.38587 0.0
C53 C 0.84734 0.27821 0.34194 0.0
O54 O 0.85404 0.36304 0.30188 0.0
O55 O 0.83754 0.34481 0.36239 0.0
C56 C 0.85612 0.34736 0.1697 0.0
C57 C 0.83522 0.39407 0.1325 0.0
C58 C 0.86285 0.40087 0.16058 0.0
C59 C 0.87339 0.37787 0.17865 0.0
C60 C 0.83015 0.34047 0.13893 0.0
C61 C 0.81987 0.36377 0.12023 0.0
C62 C 0.85938 0.32425 0.19884 0.0
C63 C 0.76363 0.26874 0.26536 0.0
C64 C 0.77474 0.35663 0.26299 0.0
C65 C 0.75339 0.31417 0.44431 0.0
C66 C 0.74023 0.29908 0.5242 0.0
C67 C 0.76431 0.28899 0.50458 0.0
C68 C 0.77073 0.2964 0.46481 0.0
C69 C 0.73326 0.32796 0.46551 0.0
C70 C 0.72698 0.32075 0.50547 0.0
C71 C 0.75265 0.31559 0.40023 0.0
H72 H 0.87591 0.4242 0.16948 0.0
H73 H 0.89365 0.38416 0.20175 0.0
H74 H 0.81643 0.31712 0.13121 0.0
H75 H 0.79921 0.35814 0.09765 0.0
H76 H 0.77532 0.2724 0.51779 0.0
H77 H 0.787 0.28614 0.44909 0.0
H78 H 0.7203 0.34238 0.45021 0.0
H79 H 0.70901 0.32952 0.52003 0.0
Dy80 Dy 0.78725 0.79527 0.34853 0.0
Dy81 Dy 0.81327 0.82658 0.26401 0.0
C82 C 0.8588 0.84344 0.34628 0.0
O83 O 0.75964 0.82959 0.33589 0.0
O84 O 0.8003 0.86144 0.30265 0.0
O85 O 0.77427 0.7996 0.41007 0.0
O86 O 0.77337 0.75551 0.38443 0.0
O87 O 0.75908 0.80469 0.24923 0.0
O88 O 0.74915 0.77065 0.30029 0.0
O89 O 0.81073 0.7777 0.25983 0.0
O90 O 0.82485 0.7737 0.32605 0.0
O91 O 0.83827 0.82439 0.20923 0.0
O92 O 0.82152 0.86367 0.22393 0.0
C93 C 0.77415 0.85675 0.32363 0.0
O94 O 0.8324 0.83311 0.36634 0.0
O95 O 0.85842 0.83775 0.30716 0.0
C96 C 0.7979 0.76795 0.45032 0.0
C97 C 0.85271 0.757 0.49373 0.0
C98 C 0.85319 0.78663 0.48346 0.0
C99 C 0.82594 0.79209 0.46221 0.0
C100 C 0.7962 0.73885 0.46396 0.0
C101 C 0.82337 0.73342 0.48569 0.0
C102 C 0.77417 0.77174 0.41756 0.0
C103 C 0.74073 0.78005 0.26498 0.0
C104 C 0.8235 0.76427 0.28818 0.0
C105 C 0.82063 0.8505 0.15551 0.0
C106 C 0.79009 0.86875 0.08706 0.0
C107 C 0.77154 0.84658 0.11144 0.0
C108 C 0.78676 0.83758 0.14568 0.0
C109 C 0.83989 0.8692 0.12818 0.0
C110 C 0.82471 0.87818 0.09391 0.0
C111 C 0.83437 0.85006 0.19703 0.0
H112 H 0.8754 0.80524 0.48964 0.0
H113 H 0.82781 0.81485 0.45259 0.0
H114 H 0.77491 0.71987 0.45512 0.0
H115 H 0.8224 0.71031 0.49311 0.0
H116 H 0.74482 0.839 0.10699 0.0
H117 H 0.7716 0.82299 0.16651 0.0
H118 H 0.86613 0.87918 0.13528 0.0
H119 H 0.83954 0.89507 0.07533 0.0
Dy120 Dy 0.30091 0.83431 0.28949 0.0
Dy121 Dy 0.34586 0.789 0.28082 0.0
C122 C 0.36912 0.84457 0.34711 0.0
O123 O 0.33653 0.8554 0.24205 0.0
O124 O 0.37625 0.83079 0.25143 0.0
O125 O 0.2737 0.86108 0.31958 0.0
O126 O 0.28056 0.86452 0.25499 0.0
O127 O 0.30736 0.77669 0.22814 0.0
O128 O 0.26785 0.79576 0.25307 0.0
O129 O 0.30974 0.76572 0.32621 0.0
O130 O 0.27419 0.79559 0.32867 0.0
O131 O 0.35145 0.74378 0.28779 0.0
O132 O 0.38717 0.77693 0.25657 0.0
C133 C 0.36644 0.85329 0.23602 0.0
O134 O 0.34372 0.85406 0.33419 0.0
O135 O 0.37341 0.8187 0.33373 0.0
C136 C 0.23178 0.87281 0.27617 0.0
C137 C 0.17343 0.89051 0.2694 0.0
C138 C 0.17804 0.87041 0.29935 0.0
C139 C 0.20727 0.86188 0.30298 0.0
C140 C 0.22463 0.88826 0.24223 0.0
C141 C 0.19532 0.8967 0.23852 0.0
C142 C 0.266 0.87213 0.28543 0.0
C143 C 0.27662 0.7778 0.2278 0.0
C144 C 0.28242 0.77064 0.33876 0.0
C145 C 0.36363 0.72915 0.22407 0.0
C146 C 0.33533 0.69206 0.1549 0.0
C147 C 0.33957 0.72347 0.15474 0.0
C148 C 0.35369 0.74182 0.18887 0.0
C149 C 0.35897 0.69776 0.22465 0.0
C150 C 0.34513 0.67937 0.19028 0.0
C151 C 0.37373 0.74817 0.26144 0.0
H152 H 0.1615 0.86476 0.32349 0.0
H153 H 0.21181 0.84916 0.32877 0.0
H154 H 0.24298 0.89629 0.22056 0.0
H155 H 0.19204 0.91158 0.21467 0.0
H156 H 0.33231 0.73393 0.12807 0.0
H157 H 0.35637 0.76598 0.18781 0.0
H158 H 0.3658 0.68749 0.25172 0.0
H159 H 0.34303 0.65531 0.1911 0.0
Dy160 Dy 0.33794 0.81591 0.73953 0.0
Dy161 Dy 0.29535 0.81118 0.81522 0.0
C162 C 0.35732 0.86669 0.80755 0.0
O163 O 0.35564 0.78109 0.77878 0.0
O164 O 0.33622 0.78993 0.83907 0.0
O165 O 0.37299 0.83938 0.69852 0.0
O166 O 0.35243 0.79004 0.6922 0.0
O167 O 0.28005 0.76663 0.78033 0.0
O168 O 0.2869 0.7896 0.7213 0.0
O169 O 0.26822 0.83605 0.7706 0.0
O170 O 0.30726 0.84981 0.72399 0.0
O171 O 0.24839 0.79768 0.84159 0.0
O172 O 0.29327 0.81868 0.87935 0.0
C173 C 0.35482 0.77679 0.81832 0.0
O174 O 0.36894 0.84848 0.78574 0.0
O175 O 0.32659 0.8589 0.81682 0.0
C176 C 0.37724 0.81522 0.63478 0.0
C177 C 0.4134 0.82345 0.5657 0.0
C178 C 0.40061 0.84669 0.58037 0.0
C179 C 0.38281 0.84265 0.6149 0.0
C180 C 0.38496 0.79047 0.61609 0.0
C181 C 0.40278 0.7945 0.58155 0.0
C182 C 0.3722 0.81429 0.67832 0.0
C183 C 0.27336 0.76594 0.74132 0.0
C184 C 0.279 0.85182 0.73844 0.0
C185 C 0.25594 0.77596 0.90428 0.0
C186 C 0.24614 0.72419 0.95142 0.0
C187 C 0.22887 0.72284 0.9134 0.0
C188 C 0.2337 0.74831 0.8902 0.0
C189 C 0.2738 0.77738 0.94187 0.0
C190 C 0.26899 0.7517 0.96523 0.0
C191 C 0.26247 0.80238 0.87835 0.0
H192 H 0.4081 0.86929 0.56882 0.0
H193 H 0.37675 0.86203 0.62836 0.0
H194 H 0.38064 0.76896 0.6307 0.0
H195 H 0.41177 0.77605 0.57043 0.0
H196 H 0.21023 0.70246 0.90213 0.0
H197 H 0.21965 0.74623 0.8613 0.0
H198 H 0.29143 0.79837 0.95322 0.0
H199 H 0.28252 0.75356 0.99444 0.0
Dy200 Dy 0.34994 0.31116 0.74953 0.0
Dy201 Dy 0.30112 0.30623 0.82235 0.0
C202 C 0.27947 0.26277 0.74526 0.0
O203 O 0.32537 0.34875 0.73636 0.0
O204 O 0.28071 0.3323 0.7747 0.0
O205 O 0.35607 0.30104 0.68704 0.0
O206 O 0.39877 0.32287 0.72669 0.0
O207 O 0.33742 0.35212 0.83229 0.0
O208 O 0.37946 0.34148 0.80003 0.0
O209 O 0.34042 0.28512 0.84694 0.0
O210 O 0.35741 0.272 0.7868 0.0
O211 O 0.29338 0.31043 0.8857 0.0
O212 O 0.25153 0.29344 0.84216 0.0
C213 C 0.29533 0.34914 0.74567 0.0
O214 O 0.30004 0.28351 0.72608 0.0
O215 O 0.28225 0.26283 0.78486 0.0
C216 C 0.40281 0.2838 0.68196 0.0
C217 C 0.43039 0.23578 0.66504 0.0
C218 C 0.40552 0.23234 0.6923 0.0
C219 C 0.39176 0.25594 0.70034 0.0
C220 C 0.42755 0.28759 0.65462 0.0
C221 C 0.44124 0.26367 0.64609 0.0
C222 C 0.38814 0.30838 0.69208 0.0
C223 C 0.36904 0.35748 0.82686 0.0
C224 C 0.35727 0.27024 0.82656 0.0
C225 C 0.2445 0.32454 0.89629 0.0
C226 C 0.21091 0.36612 0.92215 0.0
C227 C 0.24565 0.3742 0.92477 0.0
C228 C 0.26231 0.35367 0.91177 0.0
C229 C 0.2099 0.31611 0.89483 0.0
C230 C 0.19324 0.33671 0.9074 0.0
C231 C 0.26133 0.30341 0.87924 0.0
H232 H 0.39699 0.21153 0.70814 0.0
H233 H 0.37241 0.25238 0.72111 0.0
H234 H 0.43624 0.30892 0.63997 0.0
H235 H 0.46013 0.26693 0.62463 0.0
H236 H 0.26 0.39647 0.9366 0.0
H237 H 0.28908 0.36085 0.91321 0.0
H238 H 0.1957 0.2938 0.88286 0.0
H239 H 0.16648 0.32985 0.90435 0.0
Dy240 Dy 0.79877 0.32581 0.76817 0.0
Dy241 Dy 0.85212 0.29592 0.81214 0.0
C242 C 0.83889 0.35508 0.85117 0.0
O243 O 0.84374 0.33904 0.73202 0.0
O244 O 0.88126 0.33881 0.78402 0.0
O245 O 0.78419 0.3513 0.71963 0.0
O246 O 0.75264 0.33739 0.76857 0.0
O247 O 0.83258 0.26505 0.75638 0.0
O248 O 0.7866 0.28032 0.73642 0.0
O249 O 0.80408 0.26375 0.82647 0.0
O250 O 0.7703 0.29449 0.81362 0.0
O251 O 0.87147 0.27831 0.86518 0.0
O252 O 0.89793 0.28383 0.81059 0.0
C253 C 0.87413 0.34852 0.74847 0.0
O254 O 0.82794 0.3607 0.81515 0.0
O255 O 0.84282 0.32828 0.85859 0.0
C256 C 0.75888 0.38631 0.74759 0.0
C257 C 0.75622 0.43822 0.79235 0.0
C258 C 0.72724 0.41874 0.77291 0.0
C259 C 0.72858 0.39284 0.75078 0.0
C260 C 0.78819 0.40751 0.76312 0.0
C261 C 0.78686 0.43332 0.78533 0.0
C262 C 0.7591 0.35497 0.73815 0.0
C263 C 0.80431 0.26086 0.73452 0.0
C264 C 0.77547 0.26962 0.82862 0.0
C265 C 0.89512 0.23981 0.84537 0.0
C266 C 0.89375 0.18189 0.81494 0.0
C267 C 0.92415 0.20389 0.82464 0.0
C268 C 0.92478 0.23275 0.83967 0.0
C269 C 0.86514 0.21669 0.84106 0.0
C270 C 0.86451 0.18779 0.82623 0.0
C271 C 0.89478 0.27169 0.84588 0.0
H272 H 0.70324 0.42181 0.77807 0.0
H273 H 0.70571 0.37655 0.73942 0.0
H274 H 0.81186 0.4028 0.76126 0.0
H275 H 0.80955 0.44812 0.79972 0.0
H276 H 0.94716 0.20016 0.81618 0.0
H277 H 0.9481 0.25034 0.84278 0.0
H278 H 0.84188 0.22164 0.84535 0.0
H279 H 0.84082 0.17113 0.81959 0.0
Dy280 Dy 0.84968 0.81513 0.82536 0.0
Dy281 Dy 0.79886 0.79809 0.74788 0.0
C282 C 0.86369 0.76828 0.75114 0.0
O283 O 0.87401 0.85014 0.78228 0.0
O284 O 0.83779 0.83801 0.72606 0.0
O285 O 0.88121 0.80216 0.871 0.0
O286 O 0.87901 0.84871 0.86969 0.0
O287 O 0.7751 0.8292 0.78668 0.0
O288 O 0.81333 0.84336 0.84049 0.0
O289 O 0.77556 0.7623 0.79094 0.0
O290 O 0.80718 0.77998 0.84962 0.0
O291 O 0.76251 0.80838 0.70643 0.0
O292 O 0.77417 0.7656 0.69948 0.0
C293 C 0.86512 0.85521 0.745 0.0
O294 O 0.87196 0.78196 0.78797 0.0
O295 O 0.83734 0.77263 0.7306 0.0
C296 C 0.8834 0.82786 0.93318 0.0
C297 C 0.87224 0.81078 1.01297 0.0
C298 C 0.84547 0.81049 0.98536 0.0
C299 C 0.85103 0.81886 0.94559 0.0
C300 C 0.91015 0.83172 0.96175 0.0
C301 C 0.90464 0.82344 1.0015 0.0
C302 C 0.88916 0.82867 0.89005 0.0
C303 C 0.78526 0.84532 0.8216 0.0
C304 C 0.78152 0.76073 0.83013 0.0
C305 C 0.76253 0.78923 0.64023 0.0
C306 C 0.76097 0.80733 0.55981 0.0
C307 C 0.78683 0.82271 0.58811 0.0
C308 C 0.78763 0.81367 0.62791 0.0
C309 C 0.739 0.77164 0.61131 0.0
C310 C 0.73845 0.7804 0.57119 0.0
C311 C 0.75895 0.78407 0.68345 0.0
H312 H 0.82028 0.80108 0.9934 0.0
H313 H 0.83007 0.81602 0.92383 0.0
H314 H 0.93527 0.83879 0.95262 0.0
H315 H 0.92586 0.82379 0.02181 0.0
H316 H 0.80469 0.84354 0.58092 0.0
H317 H 0.80642 0.8272 0.64971 0.0
H318 H 0.71985 0.75226 0.6202 0.0
H319 H 0.7188 0.76745 0.54995 0.0
Co320 Co 0.10462 1.00919 0.52994 0.0
Co321 Co 0.10722 1.02502 0.60103 0.0
Co322 Co 0.06405 0.06372 0.53847 0.0
O323 O 0.10443 0.04762 0.5549 0.0
H324 H 0.12498 0.06312 0.55253 0.0
O325 O 1.02429 0.08041 0.52108 0.0
Co326 Co 1.01799 0.11536 0.5504 0.0
Co327 Co 1.02372 0.10712 0.47837 0.0
H328 H 1.00417 0.0639 0.51853 0.0
O329 O 0.14735 1.02165 0.62991 0.0
O330 O 0.11716 0.98849 0.58248 0.0
O331 O 0.06449 1.01499 0.62258 0.0
O332 O 1.03426 1.03651 0.57977 0.0
O333 O 0.08062 0.09681 0.58072 0.0
O334 O 1.00838 0.14321 0.58122 0.0
O335 O 0.97464 0.09927 0.55344 0.0
O336 O 0.0649 0.13529 0.55416 0.0
O337 O 0.09426 0.09117 0.49773 0.0
O338 O 0.0679 0.1189 0.4592 0.0
O339 O 1.00943 0.14064 0.49996 0.0
O340 O 0.98463 0.11066 0.44664 0.0
C341 C 0.1358 0.99468 0.49771 0.0
C342 C 1.04125 1.0014 0.5064 0.0
C343 C 1.03704 1.01956 0.61017 0.0
C344 C 0.14173 0.99536 0.61107 0.0
C345 C 0.97975 0.12289 0.57811 0.0
C346 C 0.08489 0.12522 0.57681 0.0
C347 C 0.09387 0.11103 0.47021 0.0
C348 C 0.98712 0.13514 0.46864 0.0
O349 O 0.10675 0.97693 0.50324 0.0
O350 O 0.14695 1.02082 0.51751 0.0
O351 O 1.04686 1.0293 0.49714 0.0
O352 O 0.05874 0.99385 0.53502 0.0
Co353 Co 0.60694 1.01044 0.97848 0.0
Co354 Co 0.60441 1.02092 0.05726 0.0
Co355 Co 0.56286 0.06754 0.02272 0.0
O356 O 0.60322 0.04808 1.01589 0.0
H357 H 0.62394 0.06387 0.01751 0.0
O358 O 0.52235 0.08667 0.02769 0.0
Co359 Co 0.52065 0.12535 0.05958 0.0
Co360 Co 0.52003 0.1125 0.98575 0.0
H361 H 0.50167 0.07096 0.0279 0.0
O362 O 0.6446 1.01637 0.07644 0.0
O363 O 0.60911 0.98799 0.02741 0.0
O364 O 0.56674 1.00731 0.08846 0.0
O365 O 0.53546 1.0346 0.06075 0.0
O366 O 0.58648 0.0961 0.06965 0.0
O367 O 0.51784 0.15917 0.09056 0.0
O368 O 0.47507 0.11964 0.07263 0.0
O369 O 0.56812 0.1371 0.05536 0.0
O370 O 0.58969 0.0996 0.98549 0.0
O371 O 0.55872 0.12685 0.95713 0.0
O372 O 0.50957 0.14641 1.00735 0.0
O373 O 0.48064 0.11091 0.95979 0.0
C374 C 0.64396 0.98642 0.94982 0.0
C375 C 0.53783 1.01335 0.9655 0.0
C376 C 0.53928 1.01352 0.08467 0.0
C377 C 0.63636 0.99333 0.05057 0.0
C378 C 0.48635 0.14634 0.09211 0.0
C379 C 0.58823 0.1247 0.07463 0.0
C380 C 0.58609 0.12067 0.96206 0.0
C381 C 0.48599 0.13764 0.97751 0.0
O382 O 0.6119 0.97643 0.94582 0.0
O383 O 0.6546 1.01247 0.97116 0.0
O384 O 0.53954 0.04099 0.97553 0.0
O385 O 0.55966 0.99974 0.97614 0.0
Co386 Co 1.04624 0.51967 0.038 0.0
Co387 Co 0.05568 0.53014 0.11569 0.0
Co388 Co 1.01753 0.57651 0.08015 0.0
O389 O 0.05152 0.55473 0.07196 0.0
H390 H 0.0729 0.5688 0.06936 0.0
O391 O 0.98418 0.59876 0.0902 0.0
Co392 Co 0.98789 0.62729 0.13553 0.0
Co393 Co 0.98622 0.63111 0.05767 0.0
H394 H 0.96196 0.58534 0.08594 0.0
O395 O 0.09731 0.52578 0.13071 0.0
O396 O 0.05903 0.49807 0.08415 0.0
O397 O 1.01567 0.51474 0.1431 0.0
O398 O 1.00975 0.56013 0.13528 0.0
O399 O 0.05609 0.60953 0.10445 0.0
O400 O 0.98659 0.65169 0.17705 0.0
O401 O 0.94418 0.61761 0.14252 0.0
O402 O 1.03428 0.64202 0.13481 0.0
O403 O 1.02584 0.5943 0.02586 0.0
O404 O 1.02696 0.64274 0.0312 0.0
O405 O 0.98426 0.65902 0.09773 0.0
O406 O 0.9478 0.642 0.04394 0.0
C407 C 0.07579 0.50327 1.00278 0.0
C408 C 0.97744 0.51459 0.04566 0.0
C409 C 0.99745 0.53256 0.14372 0.0
C410 C 0.08813 0.50411 0.10292 0.0
C411 C 0.95507 0.63844 0.17149 0.0
C412 C 0.05923 0.63445 0.12379 0.0
C413 C 1.04038 0.62225 0.02089 0.0
C414 C 0.95723 0.6591 0.07676 0.0
O415 O 1.04495 0.48855 1.00538 0.0
O416 O 0.08799 0.52949 0.02225 0.0
O417 O 0.97969 0.54266 0.05299 0.0
O418 O 1.00232 0.5043 0.04994 0.0
Co419 Co 0.61424 0.51666 0.03658 0.0
Co420 Co 0.60299 0.52453 0.10621 0.0
Co421 Co 0.56503 0.56615 0.04 0.0
O422 O 0.60479 0.55143 0.06362 0.0
H423 H 0.62438 0.5684 0.06782 0.0
O424 O 0.52548 0.58016 1.01479 0.0
Co425 Co 0.50227 0.60556 0.04054 0.0
Co426 Co 0.52869 0.61065 0.97705 0.0
H427 H 0.50919 0.56231 1.00321 0.0
O428 O 0.63869 0.52213 0.14416 0.0
O429 O 0.62116 0.49246 0.08828 0.0
O430 O 0.55781 0.51194 0.12029 0.0
O431 O 0.53219 0.53849 0.07856 0.0
O432 O 0.57704 0.6005 0.08145 0.0
O433 O 0.47604 0.62368 0.06478 0.0
O434 O 0.4627 0.58483 0.01788 0.0
O435 O 0.5429 0.62988 0.06876 0.0
O436 O 0.59805 0.59387 1.00187 0.0
O437 O 0.57429 0.62563 0.96749 0.0
O438 O 0.50546 0.6383 0.99566 0.0
O439 O 0.49589 0.6141 0.93518 0.0
C440 C 0.6548 0.5094 1.01378 0.0
C441 C 0.54787 0.50401 1.00642 0.0
C442 C 0.53199 0.51907 0.10699 0.0
C443 C 0.63977 0.49828 0.12283 0.0
C444 C 0.45394 0.60342 0.04207 0.0
C445 C 0.56908 0.62536 0.08605 0.0
C446 C 0.59931 0.6161 0.97742 0.0
C447 C 0.49085 0.63533 0.95859 0.0
O448 O 0.62646 0.48885 1.00865 0.0
O449 O 0.65788 0.53386 0.03628 0.0
O450 O 0.55299 0.53196 0.99848 0.0
O451 O 0.56804 0.49528 0.03037 0.0
Co452 Co 0.14591 0.51411 0.56517 0.0
Co453 Co 0.12946 0.52187 0.49409 0.0
Co454 Co 0.08347 0.55618 0.5527 0.0
O455 O 0.10254 0.51879 0.53843 0.0
H456 H 0.08532 0.49977 0.53676 0.0
O457 O 0.06488 0.59287 0.57019 0.0
Co458 Co 1.02662 0.60273 0.54247 0.0
Co459 Co 1.03661 0.59162 0.6138 0.0
H460 H 0.08297 0.61116 0.57395 0.0
O461 O 0.12872 0.4881 0.45946 0.0
O462 O 0.16671 0.50729 0.51057 0.0
O463 O 0.14233 0.56314 0.4753 0.0
O464 O 0.1132 0.58663 0.51286 0.0
O465 O 1.04661 0.5421 0.50922 0.0
O466 O 0.99584 0.61494 0.51469 0.0
O467 O 1.0428 0.64357 0.54793 0.0
O468 O 1.00531 0.55947 0.53102 0.0
O469 O 0.05369 0.52699 0.59182 0.0
O470 O 1.02439 0.5501 0.63084 0.0
O471 O 0.99931 0.60597 0.59437 0.0
O472 O 1.03309 0.62598 0.64802 0.0
C473 C 0.16658 0.48011 0.59096 0.0
C474 C 0.15075 0.57541 0.58666 0.0
C475 C 0.1346 0.58718 0.48562 0.0
C476 C 0.1567 0.48832 0.4784 0.0
C477 C 1.01506 0.64149 0.52681 0.0
C478 C 1.01575 0.5404 0.5101 0.0
C479 C 1.03258 0.52652 0.61915 0.0
C480 C 1.00612 0.62544 0.62649 0.0
O481 O 0.18249 0.50871 0.59139 0.0
O482 O 0.13646 0.47187 0.57318 0.0
O483 O 0.12042 0.56946 0.59481 0.0
O484 O 0.16218 0.55731 0.56556 0.0
Co485 Co 0.68113 1.0171 0.50771 0.0
Co486 Co 0.66375 0.05153 0.45603 0.0
Co487 Co 0.61487 0.04429 0.52827 0.0
O488 O 0.64021 1.02558 0.49256 0.0
H489 H 0.62556 1.00829 0.47759 0.0
O490 O 0.59049 0.0646 0.56363 0.0
Co491 Co 0.54881 0.07004 0.54666 0.0
Co492 Co 0.57094 0.0445 0.60677 0.0
H493 H 0.60502 0.08385 0.57418 0.0
O494 O 0.6662 1.03631 0.40441 0.0
O495 O 0.70064 0.03788 0.45974 0.0
O496 O 0.67335 0.09305 0.47413 0.0
O497 O 0.62317 0.0823 0.49652 0.0
O498 O 0.57466 1.02309 0.49122 0.0
O499 O 0.51156 0.0794 0.53269 0.0
O500 O 0.55824 0.10884 0.56532 0.0
O501 O 0.53355 1.03013 0.52506 0.0
O502 O 0.60682 1.00574 0.55894 0.0
O503 O 0.56584 1.00175 0.60059 0.0
O504 O 0.53157 0.05409 0.59774 0.0
O505 O 0.56614 0.06691 0.65345 0.0
C506 C 0.69923 0.98105 0.49552 0.0
C507 C 0.68543 0.06978 0.56413 0.0
C508 C 0.65148 0.10109 0.49276 0.0
C509 C 0.69122 1.02913 0.42213 0.0
C510 C 0.52859 0.10569 0.5488 0.0
C511 C 0.5445 1.01473 0.49992 0.0
C512 C 0.58397 0.99006 0.57969 0.0
C513 C 0.53945 0.0683 0.63277 0.0
O514 O 0.71714 1.00423 0.51799 0.0
O515 O 0.67001 0.98121 0.48071 0.0
O516 O 0.65424 0.06427 0.56562 0.0
O517 O 0.69822 0.05506 0.53965 0.0
H518 H 0.21176 0.23783 0.31015 0.0
H519 H 0.28777 0.2291 0.39817 0.0
H520 H 0.17078 0.20082 0.34393 0.0
H521 H 0.24655 0.19038 0.43155 0.0
H522 H 0.15643 0.14121 0.50497 0.0
H523 H 0.20189 0.17592 0.47227 0.0
H524 H 0.14619 0.15209 0.35672 0.0
H525 H 0.10074 0.11926 0.38984 0.0
C526 C 0.22002 0.22763 0.33645 0.0
C527 C 0.2536 0.23673 0.35085 0.0
C528 C 0.1962 0.20584 0.35599 0.0
C529 C 0.20466 0.19155 0.39075 0.0
C530 C 0.23839 0.20061 0.40525 0.0
C531 C 0.26234 0.22283 0.38578 0.0
C532 C 0.15429 0.14299 0.47245 0.0
C533 C 0.12477 0.12709 0.45015 0.0
C534 C 0.18046 0.16314 0.45346 0.0
C535 C 0.17817 0.16791 0.41139 0.0
C536 C 0.14917 0.15047 0.38914 0.0
C537 C 0.12299 0.13095 0.40815 0.0
H538 H 0.91548 0.28284 0.34409 0.0
H539 H 0.82675 0.22574 0.38832 0.0
H540 H 0.94771 0.25117 0.37593 0.0
H541 H 0.85878 0.1932 0.41867 0.0
H542 H 0.92368 0.12174 0.43004 0.0
H543 H 0.89131 0.15482 0.40295 0.0
H544 H 0.97046 0.23339 0.44301 0.0
H545 H 1.00238 0.20006 0.47193 0.0
C546 C 0.90244 0.26351 0.36044 0.0
C547 C 0.86765 0.25775 0.36286 0.0
C548 C 0.92134 0.24503 0.37919 0.0
C549 C 0.90677 0.21872 0.40071 0.0
C550 C 0.87188 0.21273 0.40273 0.0
C551 C 0.85312 0.23182 0.38509 0.0
C552 C 0.93438 0.14608 0.43389 0.0
C553 C 0.96632 0.15733 0.45436 0.0
C554 C 0.9154 0.16544 0.41798 0.0
C555 C 0.92735 0.19768 0.41989 0.0
C556 C 0.9595 0.20906 0.44009 0.0
C557 C 0.9781 0.18961 0.45729 0.0
H558 H 0.91151 0.88404 0.31507 0.0
H559 H 0.87347 0.84976 0.42778 0.0
H560 H 0.95732 0.92143 0.35274 0.0
H561 H 0.91871 0.88694 0.46514 0.0
H562 H 1.01997 0.94069 0.52043 0.0
H563 H 0.97878 0.90111 0.48027 0.0
H564 H 0.96381 0.96783 0.39692 0.0
H565 H 1.00525 1.00749 0.4369 0.0
C566 C 0.91311 0.88417 0.3478 0.0
C567 C 0.8887 0.8639 0.36838 0.0
C568 C 0.93918 0.90577 0.36939 0.0
C569 C 0.9416 0.9073 0.41198 0.0
C570 C 0.91781 0.88629 0.4324 0.0
C571 C 0.89169 0.865 0.41091 0.0
C572 C 1.00798 0.94698 0.49351 0.0
C573 C 1.01592 0.97735 0.48202 0.0
C574 C 0.98427 0.92426 0.47052 0.0
C575 C 0.96801 0.93127 0.43531 0.0
C576 C 0.97617 0.96158 0.42357 0.0
C577 C 0.99974 0.98436 0.44672 0.0
H578 H 0.19512 0.95201 0.26602 0.0
H579 H 0.11185 0.87993 0.29884 0.0
H580 H 0.18681 0.98426 0.32059 0.0
H581 H 0.10317 0.91281 0.35346 0.0
H582 H 0.14624 0.94062 0.48053 0.0
H583 H 0.14648 0.92064 0.41194 0.0
H584 H 0.15705 1.01019 0.36658 0.0
H585 H 0.15747 1.03029 0.43583 0.0
C586 C 0.17362 0.94358 0.28311 0.0
C587 C 0.15533 0.91272 0.27991 0.0
C588 C 0.16913 0.96219 0.3148 0.0
C589 C 0.14573 0.9502 0.34251 0.0
C590 C 0.12245 0.92193 0.33333 0.0
C591 C 0.12706 0.90327 0.30172 0.0
C592 C 0.15018 0.95622 0.45607 0.0
C593 C 0.15193 0.98686 0.46314 0.0
C594 C 0.14925 0.94471 0.41676 0.0
C595 C 0.14994 0.96368 0.38396 0.0
C596 C 0.15562 0.99504 0.39139 0.0
C597 C 0.15671 1.00663 0.43097 0.0
H598 H 0.29928 0.90292 0.69052 0.0
H599 H 0.21119 0.84822 0.73908 0.0
H600 H 0.26749 0.93549 0.66007 0.0
H601 H 0.17909 0.88006 0.70729 0.0
H602 H 0.12401 0.93057 0.61156 0.0
H603 H 0.15526 0.8969 0.64099 0.0
H604 H 0.23727 0.97475 0.67507 0.0
H605 H 0.20572 1.0082 0.6473 0.0
C606 C 0.27308 0.89743 0.69472 0.0
C607 C 0.2586 0.87219 0.71807 0.0
C608 C 0.2545 0.91652 0.67704 0.0
C609 C 0.21987 0.91119 0.68034 0.0
C610 C 0.20529 0.88558 0.70308 0.0
C611 C 0.22408 0.86705 0.72179 0.0
C612 C 0.14876 0.94075 0.62505 0.0
C613 C 0.16168 0.97291 0.62615 0.0
C614 C 0.16695 0.92114 0.6425 0.0
C615 C 0.19965 0.93229 0.66112 0.0
C616 C 0.21267 0.96438 0.66126 0.0
C617 C 0.19419 0.98393 0.64502 0.0
H618 H 0.26576 0.2604 0.66365 0.0
H619 H 0.22849 0.21766 0.77257 0.0
H620 H 0.21793 0.22843 0.62403 0.0
H621 H 0.18025 0.18551 0.73249 0.0
H622 H 0.12202 0.11069 0.63908 0.0
H623 H 0.168 0.14376 0.68018 0.0
H624 H 0.15713 0.22067 0.61365 0.0
H625 H 0.11067 0.18726 0.5718 0.0
C626 C 0.24742 0.24411 0.67925 0.0
C627 C 0.25109 0.24158 0.72144 0.0
C628 C 0.21978 0.22597 0.65644 0.0
C629 C 0.19514 0.20462 0.67508 0.0
C630 C 0.19893 0.2017 0.71719 0.0
C631 C 0.22656 0.22007 0.74017 0.0
C632 C 0.12923 0.13466 0.63305 0.0
C633 C 0.11255 0.14629 0.60194 0.0
C634 C 0.15553 0.15366 0.65697 0.0
C635 C 0.16617 0.18484 0.65037 0.0
C636 C 0.14959 0.19665 0.61933 0.0
C637 C 0.12291 0.17758 0.59548 0.0
H638 H 0.85116 0.16647 0.7481 0.0
H639 H 0.93425 0.14439 0.81002 0.0
H640 H 0.86205 0.14325 0.68574 0.0
H641 H 0.94497 0.12114 0.74694 0.0
H642 H 0.97245 0.17412 0.61423 0.0
H643 H 0.94031 0.17688 0.67228 0.0
H644 H 0.90056 0.0794 0.6657 0.0
H645 H 0.93222 0.07644 0.60669 0.0
C646 C 0.87056 0.15513 0.74913 0.0
C647 C 0.89225 0.15769 0.78391 0.0
C648 C 0.87675 0.14192 0.71326 0.0
C649 C 0.90429 0.13066 0.71192 0.0
C650 C 0.92339 0.12954 0.74769 0.0
C651 C 0.91736 0.14295 0.78362 0.0
C652 C 0.95609 0.15337 0.62432 0.0
C653 C 0.95476 0.12511 0.60607 0.0
C654 C 0.93783 0.15494 0.65744 0.0
C655 C 0.91833 0.1283 0.67307 0.0
C656 C 0.91545 0.10012 0.65374 0.0
C657 C 0.93334 0.09855 0.61999 0.0
H658 H 0.86918 0.86544 0.66286 0.0
H659 H 0.91034 0.90554 0.78012 0.0
H660 H 0.90717 0.90731 0.63051 0.0
H661 H 0.94658 0.94792 0.74848 0.0
H662 H 1.03609 0.99985 0.68674 0.0
H663 H 0.99387 0.96195 0.71692 0.0
H664 H 0.92723 0.95811 0.61138 0.0
H665 H 0.97121 0.99568 0.57983 0.0
C666 C 0.88605 0.88333 0.68182 0.0
C667 C 0.88686 0.8816 0.7243 0.0
C668 C 0.90784 0.90765 0.6632 0.0
C669 C 0.93087 0.93135 0.68642 0.0
C670 C 0.93042 0.93 0.72895 0.0
C671 C 0.90923 0.90554 0.7474 0.0
C672 C 1.01232 0.99141 0.66991 0.0
C673 C 1.0074 1.00126 0.63065 0.0
C674 C 0.98763 0.96948 0.68758 0.0
C675 C 0.95641 0.95641 0.66717 0.0
C676 C 0.95085 0.96707 0.62828 0.0
C677 C 0.97595 0.98916 0.6103 0.0
H678 H 0.33358 0.23396 0.18348 0.0
H679 H 0.41595 0.26189 0.27228 0.0
H680 H 0.36316 0.20413 0.14605 0.0
H681 H 0.44559 0.23214 0.23506 0.0
H682 H 0.50711 0.19803 0.14289 0.0
H683 H 0.47609 0.2258 0.18047 0.0
H684 H 0.38497 0.16166 0.1348 0.0
H685 H 0.41652 0.13364 0.09679 0.0
C686 C 0.35797 0.23381 0.19549 0.0
C687 C 0.37168 0.25097 0.23182 0.0
C688 C 0.37524 0.21627 0.17368 0.0
C689 C 0.40763 0.21501 0.18638 0.0
C690 C 0.42122 0.23215 0.22286 0.0
C691 C 0.40381 0.24939 0.24488 0.0
C692 C 0.48042 0.18945 0.14061 0.0
C693 C 0.46507 0.16288 0.11602 0.0
C694 C 0.46224 0.20564 0.16287 0.0
C695 C 0.42719 0.19671 0.16192 0.0
C696 C 0.41165 0.17016 0.13701 0.0
C697 C 0.43001 0.15365 0.11497 0.0
H698 H 0.83778 0.41161 0.05454 0.0
H699 H 0.81168 0.4358 0.1718 0.0
H700 H 0.86585 0.46452 0.04533 0.0
H701 H 0.84169 0.48834 0.16346 0.0
H702 H 0.94867 0.56184 0.14754 0.0
H703 H 0.88944 0.53991 0.1269 0.0
H704 H 0.90633 0.45157 0.11383 0.0
H705 H 0.96408 0.47292 0.1338 0.0
C706 C 0.83564 0.42844 0.07695 0.0
C707 C 0.82502 0.41967 0.11519 0.0
C708 C 0.8518 0.45897 0.07167 0.0
C709 C 0.85859 0.47947 0.10545 0.0
C710 C 0.83828 0.47244 0.13778 0.0
C711 C 0.82114 0.44211 0.14265 0.0
C712 C 0.93947 0.5378 0.1399 0.0
C713 C 0.96122 0.51934 0.14081 0.0
C714 C 0.90582 0.52541 0.12796 0.0
C715 C 0.89381 0.49444 0.11674 0.0
C716 C 0.91518 0.4758 0.12073 0.0
C717 C 0.94831 0.48799 0.13291 0.0
H718 H 0.80392 0.92951 0.09435 0.0
H719 H 0.73672 0.85138 0.03072 0.0
H720 H 0.76809 0.95999 0.0758 0.0
H721 H 0.70115 0.88285 1.00852 0.0
H722 H 0.62285 0.93188 0.03909 0.0
H723 H 0.66267 0.90242 0.03488 0.0
H724 H 0.74196 0.98618 0.03792 0.0
H725 H 0.70229 1.01482 0.04682 0.0
C726 C 0.78214 0.9192 0.07444 0.0
C727 C 0.77307 0.88801 0.06415 0.0
C728 C 0.76129 0.93686 0.06351 0.0
C729 C 0.73099 0.92405 0.041 0.0
C730 C 0.72359 0.89342 0.02706 0.0
C731 C 0.74419 0.87541 0.03914 0.0
C732 C 0.64891 0.94371 0.03915 0.0
C733 C 0.65979 0.97539 0.04466 0.0
C734 C 0.67185 0.92693 0.03606 0.0
C735 C 0.70603 0.94167 0.03701 0.0
C736 C 0.71625 0.97368 0.03917 0.0
C737 C 0.69351 0.99025 0.04402 0.0
H738 H 0.26688 0.71723 0.20787 0.0
H739 H 0.22566 0.79233 0.18786 0.0
H740 H 0.21543 0.68196 0.17817 0.0
H741 H 0.17528 0.75778 0.15636 0.0
H742 H 0.07559 0.68993 0.16408 0.0
H743 H 0.13008 0.72372 0.18204 0.0
H744 H 0.17458 0.66087 0.12408 0.0
H745 H 0.11959 0.62639 0.10697 0.0
C746 C 0.24726 0.72627 0.19578 0.0
C747 C 0.2501 0.75746 0.20053 0.0
C748 C 0.21767 0.70607 0.17881 0.0
C749 C 0.19057 0.7168 0.16585 0.0
C750 C 0.19493 0.7484 0.16734 0.0
C751 C 0.22405 0.76835 0.18491 0.0
C752 C 0.09692 0.68321 0.15497 0.0
C753 C 0.09297 0.6553 0.13401 0.0
C754 C 0.12837 0.70288 0.16496 0.0
C755 C 0.15709 0.69547 0.15406 0.0
C756 C 0.15321 0.66745 0.13316 0.0
C757 C 0.12158 0.64764 0.1232 0.0
H758 H 0.3502 0.90079 0.87307 0.0
H759 H 0.41461 0.89757 0.77751 0.0
H760 H 0.39287 0.94312 0.9066 0.0
H761 H 0.4568 0.9402 0.81053 0.0
H762 H 0.53341 0.96218 0.92028 0.0
H763 H 0.48719 0.93352 0.87578 0.0
H764 H 0.43211 0.99715 0.90428 0.0
H765 H 0.47874 1.02619 0.94966 0.0
C766 C 0.37308 0.90971 0.85872 0.0
C767 C 0.37972 0.8955 0.82353 0.0
C768 C 0.39731 0.93403 0.87769 0.0
C769 C 0.42814 0.94434 0.86134 0.0
C770 C 0.43333 0.93213 0.82395 0.0
C771 C 0.40934 0.90772 0.80526 0.0
C772 C 0.51154 0.97019 0.91717 0.0
C773 C 0.50958 0.99631 0.9386 0.0
C774 C 0.48526 0.95401 0.89122 0.0
C775 C 0.45645 0.96352 0.88628 0.0
C776 C 0.45428 0.98962 0.90756 0.0
C777 C 0.48085 1.0061 0.93342 0.0
H778 H 0.15367 0.35577 0.96077 0.0
H779 H 0.22757 0.42715 0.9087 0.0
H780 H 0.12199 0.39141 0.97418 0.0
H781 H 0.19636 0.46319 0.92399 0.0
H782 H 0.14357 0.52008 1.00411 0.0
H783 H 0.17798 0.48816 0.98293 0.0
H784 H 0.09051 0.41982 0.93457 0.0
H785 H 0.05628 0.45109 0.95625 0.0
C786 C 0.16316 0.37903 0.95212 0.0
C787 C 0.19302 0.38849 0.93331 0.0
C788 C 0.14505 0.39949 0.95992 0.0
C789 C 0.15667 0.43002 0.94993 0.0
C790 C 0.18698 0.43981 0.93227 0.0
C791 C 0.20489 0.41919 0.92376 0.0
C792 C 0.13182 0.49852 0.98819 0.0
C793 C 0.09722 0.48786 0.98249 0.0
C794 C 0.1515 0.48027 0.97608 0.0
C795 C 0.13679 0.45126 0.95793 0.0
C796 C 0.10242 0.44173 0.9495 0.0
C797 C 0.08286 0.45981 0.96165 0.0
H798 H 0.70859 0.26305 0.82028 0.0
H799 H 0.78026 0.22473 0.88059 0.0
H800 H 0.6643 0.226 0.85001 0.0
H801 H 0.73617 0.18864 0.91259 0.0
H802 H 0.64652 0.11104 0.94446 0.0
H803 H 0.69185 0.14552 0.9114 0.0
H804 H 0.6367 0.2122 0.90563 0.0
H805 H 0.59157 0.17754 0.93591 0.0
C806 C 0.715 0.24698 0.84044 0.0
C807 C 0.74821 0.24723 0.84807 0.0
C808 C 0.68943 0.22562 0.85796 0.0
C809 C 0.69607 0.20402 0.88462 0.0
C810 C 0.72947 0.20431 0.89207 0.0
C811 C 0.75501 0.22535 0.87388 0.0
C812 C 0.6441 0.13299 0.93576 0.0
C813 C 0.61491 0.14105 0.94247 0.0
C814 C 0.6703 0.15304 0.91694 0.0
C815 C 0.66836 0.18202 0.9049 0.0
C816 C 0.63933 0.19004 0.91273 0.0
C817 C 0.61318 0.16996 0.93066 0.0
H818 H 0.90267 0.82105 0.09021 0.0
H819 H 0.83166 0.75353 1.01331 0.0
H820 H 0.91428 0.78091 0.13047 0.0
H821 H 0.84423 0.71396 0.05095 0.0
H822 H 0.89054 0.64562 0.07933 0.0
H823 H 0.85807 0.68099 0.09179 0.0
H824 H 0.94887 0.75377 0.1128 0.0
H825 H 0.98048 0.71758 0.1047 0.0
C826 C 0.88869 0.79772 0.0828 0.0
C827 C 0.86746 0.79037 0.04748 0.0
C828 C 0.89564 0.77459 0.1055 0.0
C829 C 0.8822 0.74391 0.09232 0.0
C830 C 0.85609 0.73704 0.06191 0.0
C831 C 0.84866 0.76008 0.03991 0.0
C832 C 0.90325 0.66917 0.08746 0.0
C833 C 0.93783 0.67934 0.08954 0.0
C834 C 0.88474 0.68954 0.09455 0.0
C835 C 0.9005 0.72083 0.10135 0.0
C836 C 0.93532 0.73013 0.10747 0.0
C837 C 0.95373 0.70945 0.10215 0.0
H838 H 0.24919 0.42865 0.12533 0.0
H839 H 0.17204 0.35562 0.06515 0.0
H840 H 0.21782 0.46383 0.1095 0.0
H841 H 0.14193 0.39131 0.04526 0.0
H842 H 0.07139 0.44367 0.08574 0.0
H843 H 0.108 0.41251 0.07472 0.0
H844 H 0.1912 0.49352 0.08018 0.0
H845 H 0.15426 0.52393 0.09593 0.0
C846 C 0.22586 0.42029 0.10755 0.0
C847 C 0.21236 0.38909 0.09836 0.0
C848 C 0.20785 0.4407 0.09771 0.0
C849 C 0.17626 0.43054 0.07723 0.0
C850 C 0.16532 0.40003 0.06261 0.0
C851 C 0.18297 0.37943 0.07345 0.0
C852 C 0.09761 0.4546 0.08477 0.0
C853 C 0.11033 0.48586 0.09303 0.0
C854 C 0.1188 0.43681 0.07764 0.0
C855 C 0.15319 0.4501 0.07716 0.0
C856 C 0.16531 0.48199 0.08217 0.0
C857 C 0.14419 0.49957 0.09103 0.0
H858 H 0.23772 0.72755 0.03254 0.0
H859 H 0.22876 0.66277 0.9328 0.0
H860 H 0.19261 0.69259 0.06293 0.0
H861 H 0.18158 0.6289 0.96138 0.0
H862 H 0.07978 0.58607 1.00092 0.0
H863 H 0.1402 0.6009 1.00265 0.0
H864 H 0.14145 0.69413 0.0291 0.0
H865 H 0.08219 0.67923 0.02935 0.0
C866 C 0.22729 0.70528 0.01793 0.0
C867 C 0.23498 0.69876 0.97871 0.0
C868 C 0.20103 0.68526 0.03525 0.0
C869 C 0.18193 0.6592 1.01286 0.0
C870 C 0.19491 0.64941 0.97869 0.0
C871 C 0.22189 0.66902 0.96205 0.0
C872 C 0.09316 0.60966 1.00743 0.0
C873 C 0.07618 0.6314 1.01529 0.0
C874 C 0.12773 0.6181 1.00865 0.0
C875 C 0.14585 0.64853 0.01724 0.0
C876 C 0.1286 0.67025 0.024 0.0
C877 C 0.09434 0.66182 0.02308 0.0
H878 H 0.36932 0.26749 0.90927 0.0
H879 H 0.39043 0.23063 0.79642 0.0
H880 H 0.40074 0.2379 0.94649 0.0
H881 H 0.42186 0.20105 0.8336 0.0
H882 H 0.44365 0.12605 0.90941 0.0
H883 H 0.41465 0.15794 0.87501 0.0
H884 H 0.45538 0.22978 0.96558 0.0
H885 H 0.48516 0.19725 1.0008 0.0
C886 C 0.38057 0.25306 0.89218 0.0
C887 C 0.37673 0.25155 0.84939 0.0
C888 C 0.39899 0.23613 0.91377 0.0
C889 C 0.41412 0.21662 0.8936 0.0
C890 C 0.41043 0.21529 0.85076 0.0
C891 C 0.39232 0.23247 0.82916 0.0
C892 C 0.44676 0.14861 0.92254 0.0
C893 C 0.46729 0.15865 0.95845 0.0
C894 C 0.43003 0.16723 0.90219 0.0
C895 C 0.43253 0.19696 0.91667 0.0
C896 C 0.45251 0.20708 0.95311 0.0
C897 C 0.46979 0.18837 0.97346 0.0
H898 H 0.8598 0.41665 0.84179 0.0
H899 H 0.84264 0.34963 0.93305 0.0
H900 H 0.88569 0.45625 0.89357 0.0
H901 H 0.86638 0.38923 0.9852 0.0
H902 H 0.95816 0.45354 0.05192 0.0
H903 H 0.91864 0.41657 1.00793 0.0
H904 H 0.88722 0.48863 0.95051 0.0
H905 H 0.92835 0.52617 0.9946 0.0
C906 C 0.86084 0.41049 0.87309 0.0
C907 C 0.84977 0.37986 0.88317 0.0
C908 C 0.87552 0.4333 0.90299 0.0
C909 C 0.87896 0.42614 0.94389 0.0
C910 C 0.86542 0.39572 0.95407 0.0
C911 C 0.8515 0.37291 0.92413 0.0
C912 C 0.9423 0.46159 0.03062 0.0
C913 C 0.94666 0.49293 0.02677 0.0
C914 C 0.91929 0.4402 1.00523 0.0
C915 C 0.89962 0.44928 0.97489 0.0
C916 C 0.9023 0.48064 0.97283 0.0
C917 C 0.92549 0.50222 0.99862 0.0
H918 H 0.80064 0.88718 0.88978 0.0
H919 H 0.72181 0.85312 0.79798 0.0
H920 H 0.76966 0.91975 0.91902 0.0
H921 H 0.69067 0.8855 0.82714 0.0
H922 H 0.62535 0.93266 0.90081 0.0
H923 H 0.65715 0.90106 0.87208 0.0
H924 H 0.74687 0.96192 0.9268 0.0
H925 H 0.71466 0.99406 0.95501 0.0
C926 C 0.77667 0.88632 0.87532 0.0
C927 C 0.76481 0.86639 0.84047 0.0
C928 C 0.75843 0.90564 0.89247 0.0
C929 C 0.72642 0.90657 0.87664 0.0
C930 C 0.71454 0.88644 0.84187 0.0
C931 C 0.73295 0.86739 0.82446 0.0
C932 C 0.65193 0.93988 0.90692 0.0
C933 C 0.66628 0.96705 0.93119 0.0
C934 C 0.67076 0.92122 0.88982 0.0
C935 C 0.70586 0.92767 0.89579 0.0
C936 C 0.72034 0.95481 0.92048 0.0
C937 C 0.70142 0.97384 0.9371 0.0
H938 H 0.8186 0.73715 0.21342 0.0
H939 H 0.86056 0.73557 0.33538 0.0
H940 H 0.84666 0.70092 0.1907 0.0
H941 H 0.88831 0.69839 0.3125 0.0
H942 H 0.9707 0.6778 0.23705 0.0
H943 H 0.93467 0.70256 0.26997 0.0
H944 H 0.85122 0.64909 0.19354 0.0
H945 H 0.88757 0.62445 0.15995 0.0
C946 C 0.83342 0.72869 0.2356 0.0
C947 C 0.8377 0.73955 0.27618 0.0
C948 C 0.84923 0.70759 0.22257 0.0
C949 C 0.86969 0.69674 0.24978 0.0
C950 C 0.87288 0.70656 0.29078 0.0
C951 C 0.85695 0.72775 0.3039 0.0
C952 C 0.94456 0.67088 0.22766 0.0
C953 C 0.93204 0.64943 0.19552 0.0
C954 C 0.92385 0.68494 0.24683 0.0
C955 C 0.89013 0.67791 0.23424 0.0
C956 C 0.87721 0.65519 0.20361 0.0
C957 C 0.89797 0.64098 0.18451 0.0
H958 H 0.43039 0.85661 0.21694 0.0
H959 H 0.35679 0.90508 0.19994 0.0
H960 H 0.46887 0.89506 0.18093 0.0
H961 H 0.39572 0.94424 0.16429 0.0
H962 H 0.46941 0.99996 0.07234 0.0
H963 H 0.42725 0.96226 0.10675 0.0
H964 H 0.50431 0.94363 0.18475 0.0
H965 H 0.54553 0.98021 0.15061 0.0
C966 C 0.42221 0.87548 0.20563 0.0
C967 C 0.38995 0.87718 0.21197 0.0
C968 C 0.44469 0.89806 0.18495 0.0
C969 C 0.43629 0.92375 0.16947 0.0
C970 C 0.40372 0.92516 0.17514 0.0
C971 C 0.38116 0.90249 0.19597 0.0
C972 C 0.47734 0.98811 0.09716 0.0
C973 C 0.5115 0.99362 0.10806 0.0
C974 C 0.45297 0.96617 0.11708 0.0
C975 C 0.46171 0.94874 0.14865 0.0
C976 C 0.4958 0.95529 0.16014 0.0
C977 C 0.51985 0.97692 0.14046 0.0
H978 H 0.69633 0.25783 0.26221 0.0
H979 H 0.77307 0.22625 0.21063 0.0
H980 H 0.6548 0.22201 0.21757 0.0
H981 H 0.73134 0.19046 0.16554 0.0
H982 H 0.64139 0.1111 0.11503 0.0
H983 H 0.68377 0.14412 0.16245 0.0
H984 H 0.63758 0.21649 0.14582 0.0
H985 H 0.59538 0.18377 0.09908 0.0
C986 C 0.7044 0.24313 0.24153 0.0
C987 C 0.73819 0.2451 0.24008 0.0
C988 C 0.68052 0.22267 0.21565 0.0
C989 C 0.68962 0.20343 0.18756 0.0
C990 C 0.72333 0.20474 0.1869 0.0
C991 C 0.74731 0.22538 0.2127 0.0
C992 C 0.64028 0.13406 0.12148 0.0
C993 C 0.61477 0.14461 0.10306 0.0
C994 C 0.6647 0.15306 0.14858 0.0
C995 C 0.66407 0.18299 0.1583 0.0
C996 C 0.63866 0.19348 0.1397 0.0
C997 C 0.61449 0.17467 0.11251 0.0
H998 H 0.77672 0.7556 0.91306 0.0
H999 H 0.73297 0.71064 0.79913 0.0
H1000 H 0.73625 0.71805 0.94888 0.0
H1001 H 0.69374 0.67266 0.83455 0.0
H1002 H 0.60141 0.63381 0.90038 0.0
H1003 H 0.64623 0.66656 0.8672 0.0
H1004 H 0.71263 0.66764 0.97203 0.0
H1005 H 0.66628 0.63494 1.00636 0.0
C1006 C 0.75875 0.73755 0.89555 0.0
C1007 C 0.75812 0.73666 0.85287 0.0
C1008 C 0.73551 0.71574 0.91625 0.0
C1009 C 0.71092 0.6921 0.89505 0.0
C1010 C 0.71132 0.69072 0.85243 0.0
C1011 C 0.73419 0.71261 0.83184 0.0
C1012 C 0.62563 0.64054 0.91646 0.0
C1013 C 0.62988 0.63138 0.95627 0.0
C1014 C 0.65174 0.65943 0.89707 0.0
C1015 C 0.68372 0.67015 0.91635 0.0
C1016 C 0.68848 0.66029 0.95595 0.0
C1017 C 0.66197 0.64107 0.97558 0.0
H1018 H 0.36121 0.76284 0.90072 0.0
H1019 H 0.39543 0.7434 0.7864 0.0
H1020 H 0.39218 0.73097 0.93422 0.0
H1021 H 0.42664 0.71189 0.81956 0.0
H1022 H 0.46547 0.63724 0.87941 0.0
H1023 H 0.4345 0.66932 0.84824 0.0
H1024 H 0.43759 0.71615 0.9632 0.0
H1025 H 0.46878 0.68332 0.99467 0.0
C1026 C 0.37534 0.75195 0.88228 0.0
C1027 C 0.37496 0.75653 0.83991 0.0
C1028 C 0.39366 0.73334 0.90196 0.0
C1029 C 0.41288 0.71766 0.88075 0.0
C1030 C 0.41242 0.72239 0.83831 0.0
C1031 C 0.39425 0.74109 0.81873 0.0
C1032 C 0.45985 0.65432 0.89861 0.0
C1033 C 0.47069 0.65686 0.9404 0.0
C1034 C 0.44178 0.67341 0.88016 0.0
C1035 C 0.43272 0.69666 0.90194 0.0
C1036 C 0.4432 0.69904 0.94408 0.0
C1037 C 0.46165 0.67994 0.96261 0.0
H1038 H 0.43568 0.36567 0.83365 0.0
H1039 H 0.35905 0.3992 0.88239 0.0
H1040 H 0.47674 0.39958 0.88061 0.0
H1041 H 0.40062 0.4335 0.92949 0.0
H1042 H 0.4946 0.515 0.96535 0.0
H1043 H 0.45002 0.47936 0.92468 0.0
H1044 H 0.49187 0.40626 0.95599 0.0
H1045 H 0.5367 0.44206 0.99726 0.0
C1046 C 0.42754 0.38041 0.85419 0.0
C1047 C 0.39398 0.37979 0.854 0.0
C1048 C 0.45112 0.39962 0.88146 0.0
C1049 C 0.44191 0.41901 0.909 0.0
C1050 C 0.40846 0.41881 0.90854 0.0
C1051 C 0.38468 0.39922 0.88153 0.0
C1052 C 0.49424 0.4913 0.96403 0.0
C1053 C 0.51947 0.48148 0.98441 0.0
C1054 C 0.4685 0.47084 0.94082 0.0
C1055 C 0.4675 0.44005 0.93693 0.0
C1056 C 0.49218 0.42996 0.95813 0.0
C1057 C 0.51777 0.45042 0.98189 0.0
H1058 H 0.78643 0.44368 0.86787 0.0
H1059 H 0.71883 0.47857 0.7931 0.0
H1060 H 0.77198 0.4679 0.92763 0.0
H1061 H 0.70464 0.50305 0.85323 0.0
H1062 H 0.67325 0.45796 1.00219 0.0
H1063 H 0.70884 0.44864 0.9508 0.0
H1064 H 0.73088 0.5426 0.91927 0.0
H1065 H 0.69609 0.55222 0.97194 0.0
C1066 C 0.76951 0.45756 0.86394 0.0
C1067 C 0.75363 0.45919 0.82583 0.0
C1068 C 0.76119 0.47126 0.8982 0.0
C1069 C 0.73728 0.48722 0.89483 0.0
C1070 C 0.72344 0.49108 0.85639 0.0
C1071 C 0.73138 0.47697 0.82211 0.0
C1072 C 0.68674 0.47682 0.98532 0.0
C1073 C 0.68219 0.50576 0.99089 0.0
C1074 C 0.70707 0.47154 0.95604 0.0
C1075 C 0.72241 0.49495 0.93122 0.0
C1076 C 0.71934 0.52432 0.93827 0.0
C1077 C 0.6997 0.52981 0.96844 0.0
H1078 H 0.73583 0.39139 0.29522 0.0
H1079 H 0.7678 0.36984 0.18039 0.0
H1080 H 0.70482 0.42313 0.26204 0.0
H1081 H 0.73676 0.40173 0.14688 0.0
H1082 H 0.65627 0.44667 0.08881 0.0
H1083 H 0.68761 0.41391 0.12028 0.0
H1084 H 0.70069 0.46743 0.23167 0.0
H1085 H 0.66981 0.49971 0.20045 0.0
C1086 C 0.73654 0.39328 0.26278 0.0
C1087 C 0.75515 0.37725 0.24141 0.0
C1088 C 0.71848 0.41203 0.24325 0.0
C1089 C 0.71734 0.41604 0.20071 0.0
C1090 C 0.73587 0.39981 0.17927 0.0
C1091 C 0.75422 0.38125 0.19893 0.0
C1092 C 0.66569 0.4516 0.12007 0.0
C1093 C 0.65958 0.47663 0.1413 0.0
C1094 C 0.6842 0.43255 0.13851 0.0
C1095 C 0.69747 0.43692 0.17963 0.0
C1096 C 0.69119 0.46198 0.20055 0.0
C1097 C 0.67319 0.4811 0.18209 0.0
H1098 H 0.71613 0.78841 0.18834 0.0
H1099 H 0.69845 0.72681 0.28644 0.0
H1100 H 0.67212 0.7525 0.14617 0.0
H1101 H 0.65467 0.69135 0.24451 0.0
H1102 H 0.61754 0.6195 0.14104 0.0
H1103 H 0.65567 0.65855 0.18467 0.0
H1104 H 0.61045 0.72567 0.13776 0.0
H1105 H 0.57183 0.68624 0.09349 0.0
C1106 C 0.70262 0.7675 0.20118 0.0
C1107 C 0.71122 0.76047 0.24078 0.0
C1108 C 0.67729 0.74696 0.177 0.0
C1109 C 0.66014 0.71886 0.19178 0.0
C1110 C 0.66776 0.71253 0.23192 0.0
C1111 C 0.69285 0.73303 0.25607 0.0
C1112 C 0.61547 0.64251 0.13993 0.0
C1113 C 0.59143 0.64959 0.11363 0.0
C1114 C 0.6373 0.66493 0.16527 0.0
C1115 C 0.63605 0.69525 0.16495 0.0
C1116 C 0.61213 0.70253 0.13863 0.0
C1117 C 0.58988 0.6799 0.11346 0.0
H1118 H 0.35475 0.70744 0.07941 0.0
H1119 H 0.29456 0.63383 0.14377 0.0
H1120 H 0.36227 0.67161 0.02917 0.0
H1121 H 0.30268 0.59761 0.09314 0.0
H1122 H 0.41382 0.6134 0.97988 0.0
H1123 H 0.3605 0.62438 0.98612 0.0
H1124 H 0.36348 0.6013 0.1118 0.0
H1125 H 0.41671 0.59177 0.10562 0.0
C1126 C 0.34146 0.68374 0.08169 0.0
C1127 C 0.32587 0.67316 0.11689 0.0
C1128 C 0.34554 0.66303 0.05241 0.0
C1129 C 0.33482 0.63175 0.05888 0.0
C1130 C 0.31225 0.62168 0.08846 0.0
C1131 C 0.30809 0.64239 0.11781 0.0
C1132 C 0.40225 0.6098 1.00831 0.0
C1133 C 0.41919 0.60253 0.04265 0.0
C1134 C 0.3717 0.6157 1.01173 0.0
C1135 C 0.35776 0.61375 0.04937 0.0
C1136 C 0.37318 0.60269 0.08219 0.0
C1137 C 0.40395 0.59768 0.07901 0.0
H1138 H 0.42547 0.39686 0.27932 0.0
H1139 H 0.34845 0.38967 0.18487 0.0
H1140 H 0.46294 0.43577 0.24281 0.0
H1141 H 0.38566 0.42932 0.14867 0.0
H1142 H 0.47382 0.4793 0.07289 0.0
H1143 H 0.43148 0.44343 0.10871 0.0
H1144 H 0.47933 0.48526 0.22284 0.0
H1145 H 0.52175 0.51993 0.18697 0.0
C1146 C 0.41623 0.40381 0.25101 0.0
C1147 C 0.38353 0.38978 0.23555 0.0
C1148 C 0.43788 0.42652 0.22985 0.0
C1149 C 0.42784 0.43641 0.19227 0.0
C1150 C 0.39495 0.4225 0.17701 0.0
C1151 C 0.3733 0.3997 0.19816 0.0
C1152 C 0.4746 0.48144 0.10557 0.0
C1153 C 0.50103 0.50311 0.12684 0.0
C1154 C 0.45035 0.46057 0.12641 0.0
C1155 C 0.45173 0.46059 0.16928 0.0
C1156 C 0.47735 0.48347 0.19013 0.0
C1157 C 0.50156 0.50398 0.16941 0.0
H1158 H 0.92022 0.75086 0.78258 0.0
H1159 H 0.85556 0.73603 0.6745 0.0
H1160 H 0.95118 0.71849 0.75374 0.0
H1161 H 0.88671 0.70381 0.64501 0.0
H1162 H 0.94279 0.63403 0.59638 0.0
H1163 H 0.9103 0.66611 0.62417 0.0
H1164 H 0.98528 0.69751 0.72151 0.0
H1165 H 1.0168 0.66556 0.6943 0.0
C1166 C 0.91225 0.74095 0.75243 0.0
C1167 C 0.88427 0.74728 0.73201 0.0
C1168 C 0.93065 0.7218 0.73511 0.0
C1169 C 0.92292 0.70705 0.69559 0.0
C1170 C 0.89481 0.71348 0.6752 0.0
C1171 C 0.8764 0.73266 0.69258 0.0
C1172 C 0.95259 0.64757 0.62387 0.0
C1173 C 0.98354 0.64583 0.64224 0.0
C1174 C 0.93353 0.66671 0.64029 0.0
C1175 C 0.94366 0.68581 0.67654 0.0
C1176 C 0.97471 0.68394 0.69437 0.0
C1177 C 0.99357 0.665 0.67807 0.0
H1178 H 0.46937 0.80703 0.58526 0.0
H1179 H 0.42945 0.86147 0.50242 0.0
H1180 H 0.52447 0.84018 0.57957 0.0
H1181 H 0.48507 0.89453 0.49683 0.0
H1182 H 0.55845 0.94662 0.63266 0.0
H1183 H 0.52645 0.89454 0.61434 0.0
H1184 H 0.55129 0.90754 0.49042 0.0
H1185 H 0.58472 0.95925 0.50914 0.0
C1186 C 0.47242 0.82485 0.56376 0.0
C1187 C 0.44484 0.83234 0.54543 0.0
C1188 C 0.50417 0.84392 0.56072 0.0
C1189 C 0.50869 0.87029 0.53875 0.0
C1190 C 0.48205 0.8744 0.51419 0.0
C1191 C 0.45017 0.85552 0.51754 0.0
C1192 C 0.55843 0.93784 0.60202 0.0
C1193 C 0.57389 0.9569 0.57238 0.0
C1194 C 0.54026 0.90803 0.59147 0.0
C1195 C 0.53652 0.89712 0.55092 0.0
C1196 C 0.55416 0.91536 0.52188 0.0
C1197 C 0.57326 0.9449 0.53272 0.0
H1198 H 0.23083 0.35133 0.75179 0.0
H1199 H 0.31588 0.38955 0.68478 0.0
H1200 H 0.19955 0.38032 0.71342 0.0
H1201 H 0.28452 0.4184 0.64606 0.0
H1202 H 0.23241 0.49137 0.61342 0.0
H1203 H 0.26207 0.4602 0.64882 0.0
H1204 H 0.17157 0.38792 0.65012 0.0
H1205 H 0.14139 0.4198 0.61445 0.0
C1206 C 0.24307 0.36594 0.72891 0.0
C1207 C 0.27639 0.36795 0.72205 0.0
C1208 C 0.22481 0.38252 0.70641 0.0
C1209 C 0.23901 0.40214 0.67612 0.0
C1210 C 0.27236 0.40409 0.66925 0.0
C1211 C 0.29057 0.38732 0.69157 0.0
C1212 C 0.21851 0.46877 0.6209 0.0
C1213 C 0.18408 0.45849 0.61065 0.0
C1214 C 0.23586 0.45059 0.64125 0.0
C1215 C 0.21975 0.42108 0.65283 0.0
C1216 C 0.18523 0.4105 0.64236 0.0
C1217 C 0.16776 0.42877 0.62145 0.0
H1218 H 0.83449 0.21732 0.70916 0.0
H1219 H 0.74085 0.23868 0.70304 0.0
H1220 H 0.80851 0.16968 0.66952 0.0
H1221 H 0.71529 0.19178 0.66471 0.0
H1222 H 0.667 0.09529 0.63049 0.0
H1223 H 0.69778 0.13911 0.6722 0.0
H1224 H 0.78248 0.14735 0.60204 0.0
H1225 H 0.75145 0.1022 0.5603 0.0
C1226 C 0.80851 0.21203 0.69928 0.0
C1227 C 0.78996 0.23218 0.70916 0.0
C1228 C 0.7936 0.18471 0.67646 0.0
C1229 C 0.75962 0.17659 0.66382 0.0
C1230 C 0.74131 0.19674 0.67424 0.0
C1231 C 0.75621 0.22407 0.696 0.0
C1232 C 0.69229 0.10612 0.62389 0.0
C1233 C 0.70653 0.09508 0.59161 0.0
C1234 C 0.70999 0.13159 0.64784 0.0
C1235 C 0.74259 0.14738 0.64029 0.0
C1236 C 0.75749 0.13578 0.60898 0.0
C1237 C 0.73969 0.10988 0.58496 0.0
H1238 H 0.90805 0.41058 0.31384 0.0
H1239 H 0.8569 0.38232 0.4213 0.0
H1240 H 0.94578 0.45388 0.35299 0.0
H1241 H 0.89423 0.42515 0.45993 0.0
H1242 H 0.94762 0.52145 0.5101 0.0
H1243 H 0.90897 0.48102 0.46772 0.0
H1244 H 0.99054 0.46362 0.4084 0.0
H1245 H 1.02908 0.50383 0.45051 0.0
C1246 C 0.90475 0.41358 0.34566 0.0
C1247 C 0.87943 0.39274 0.36427 0.0
C1248 C 0.92646 0.43835 0.3682 0.0
C1249 C 0.92307 0.44316 0.40975 0.0
C1250 C 0.89744 0.42252 0.42802 0.0
C1251 C 0.87612 0.3977 0.40575 0.0
C1252 C 0.95735 0.5091 0.48797 0.0
C1253 C 0.99163 0.51603 0.48405 0.0
C1254 C 0.93516 0.48578 0.4637 0.0
C1255 C 0.94655 0.46896 0.43446 0.0
C1256 C 0.98076 0.47623 0.43015 0.0
C1257 C 1.00293 0.49924 0.45468 0.0
H1258 H 0.80861 0.91653 0.32621 0.0
H1259 H 0.7131 0.8563 0.34768 0.0
H1260 H 0.78981 0.96015 0.34633 0.0
H1261 H 0.69408 0.90015 0.36698 0.0
H1262 H 0.66209 0.98712 0.36208 0.0
H1263 H 0.68255 0.94605 0.33582 0.0
H1264 H 0.77339 0.98058 0.41063 0.0
H1265 H 0.75293 1.02177 0.43692 0.0
C1266 C 0.78351 0.91261 0.33499 0.0
C1267 C 0.76227 0.88298 0.33533 0.0
C1268 C 0.77285 0.9376 0.3467 0.0
C1269 C 0.74054 0.93353 0.35829 0.0
C1270 C 0.71911 0.90394 0.35804 0.0
C1271 C 0.73001 0.87885 0.34717 0.0
C1272 C 0.68673 0.98635 0.37224 0.0
C1273 C 0.70595 1.00763 0.40154 0.0
C1274 C 0.69825 0.96263 0.35757 0.0
C1275 C 0.72941 0.95999 0.37145 0.0
C1276 C 0.74936 0.98219 0.39918 0.0
C1277 C 0.73767 1.00574 0.41423 0.0
H1278 H 0.22191 0.76859 0.37255 0.0
H1279 H 0.29108 0.71557 0.36174 0.0
H1280 H 0.18573 0.72718 0.4085 0.0
H1281 H 0.25563 0.67489 0.3974 0.0
H1282 H 0.17372 0.59163 0.42155 0.0
H1283 H 0.20677 0.63527 0.38959 0.0
H1284 H 0.17309 0.6947 0.46866 0.0
H1285 H 0.13903 0.6499 0.50144 0.0
C1286 C 0.22975 0.74834 0.37793 0.0
C1287 C 0.26002 0.7461 0.36355 0.0
C1288 C 0.20879 0.72434 0.39889 0.0
C1289 C 0.21686 0.69672 0.40609 0.0
C1290 C 0.24743 0.69496 0.39226 0.0
C1291 C 0.2683 0.71884 0.37172 0.0
C1292 C 0.17292 0.6138 0.4327 0.0
C1293 C 0.15307 0.6163 0.46493 0.0
C1294 C 0.19254 0.63936 0.41411 0.0
C1295 C 0.1938 0.66942 0.42627 0.0
C1296 C 0.17328 0.67229 0.45783 0.0
C1297 C 0.15348 0.64634 0.47687 0.0
H1298 H 0.49433 0.27101 0.47828 0.0
H1299 H 0.401 0.22577 0.52547 0.0
H1300 H 0.51882 0.2334 0.50743 0.0
H1301 H 0.4257 0.18809 0.55508 0.0
H1302 H 0.46531 0.10468 0.52531 0.0
H1303 H 0.4422 0.14752 0.51958 0.0
H1304 H 0.53541 0.20823 0.56687 0.0
H1305 H 0.55874 0.16509 0.57263 0.0
C1306 C 0.47929 0.25354 0.49592 0.0
C1307 C 0.44557 0.25102 0.49896 0.0
C1308 C 0.49338 0.232 0.51276 0.0
C1309 C 0.47405 0.2075 0.53302 0.0
C1310 C 0.44101 0.20636 0.53886 0.0
C1311 C 0.42687 0.22787 0.52188 0.0
C1312 C 0.48086 0.12711 0.53484 0.0
C1313 C 0.51402 0.13155 0.54877 0.0
C1314 C 0.46746 0.15165 0.53204 0.0
C1315 C 0.48701 0.1813 0.54266 0.0
C1316 C 0.51986 0.18566 0.55808 0.0
C1317 C 0.53319 0.16098 0.56136 0.0
H1318 H 0.69984 0.80767 0.52782 0.0
H1319 H 0.8038 0.84459 0.51025 0.0
H1320 H 0.68769 0.84861 0.49219 0.0
H1321 H 0.79136 0.8866 0.47468 0.0
H1322 H 0.75915 0.97295 0.52019 0.0
H1323 H 0.77651 0.9269 0.5127 0.0
H1324 H 0.68586 0.88405 0.44086 0.0
H1325 H 0.66832 0.93011 0.44868 0.0
C1326 C 0.7201 0.82362 0.51467 0.0
C1327 C 0.75308 0.82348 0.52371 0.0
C1328 C 0.71302 0.84743 0.49405 0.0
C1329 C 0.73873 0.87162 0.4821 0.0
C1330 C 0.77113 0.86879 0.48489 0.0
C1331 C 0.77823 0.84473 0.50532 0.0
C1332 C 0.74315 0.95389 0.50225 0.0
C1333 C 0.7119 0.9548 0.48625 0.0
C1334 C 0.75334 0.92758 0.49734 0.0
C1335 C 0.73241 0.90162 0.47642 0.0
C1336 C 0.70235 0.90351 0.45756 0.0
C1337 C 0.69222 0.92985 0.46235 0.0
H1338 H 0.67338 0.28085 0.53112 0.0
H1339 H 0.76507 0.27248 0.58812 0.0
H1340 H 0.64642 0.2293 0.54543 0.0
H1341 H 0.73816 0.22007 0.6012 0.0
H1342 H 0.71332 0.13865 0.50786 0.0
H1343 H 0.73003 0.18713 0.54394 0.0
H1344 H 0.62822 0.17917 0.56726 0.0
H1345 H 0.61135 0.13033 0.52911 0.0
C1346 C 0.68751 0.26872 0.54903 0.0
C1347 C 0.72211 0.27992 0.55558 0.0
C1348 C 0.67182 0.23869 0.55719 0.0
C1349 C 0.69064 0.21988 0.57224 0.0
C1350 C 0.72314 0.23364 0.58841 0.0
C1351 C 0.7387 0.26382 0.58071 0.0
C1352 C 0.69437 0.14714 0.52056 0.0
C1353 C 0.66086 0.13091 0.51488 0.0
C1354 C 0.70407 0.17478 0.54237 0.0
C1355 C 0.68053 0.18722 0.55899 0.0
C1356 C 0.64703 0.17034 0.55484 0.0
C1357 C 0.6373 0.14246 0.53287 0.0
H1358 H 0.91007 0.77334 0.45664 0.0
H1359 H 0.86519 0.72305 0.55677 0.0
H1360 H 0.9576 0.75298 0.46682 0.0
H1361 H 0.91336 0.70321 0.56743 0.0
H1362 H 1.01865 0.68762 0.58189 0.0
H1363 H 0.98417 0.723 0.57936 0.0
H1364 H 0.9483 0.69034 0.45731 0.0
H1365 H 0.98112 0.65397 0.46064 0.0
C1366 C 0.91093 0.75882 0.48176 0.0
C1367 C 0.88393 0.74969 0.5059 0.0
C1368 C 0.93807 0.74717 0.48745 0.0
C1369 C 0.93903 0.72668 0.51791 0.0
C1370 C 0.91324 0.71926 0.54402 0.0
C1371 C 0.88568 0.73043 0.53779 0.0
C1372 C 1.00409 0.68868 0.55419 0.0
C1373 C 1.00241 0.66814 0.52143 0.0
C1374 C 0.98431 0.70873 0.55288 0.0
C1375 C 0.96373 0.70927 0.51815 0.0
C1376 C 0.96418 0.69044 0.4843 0.0
C1377 C 0.98298 0.66974 0.48614 0.0
H1378 H 0.43288 0.84245 0.36888 0.0
H1379 H 0.36454 0.89563 0.38742 0.0
H1380 H 0.47667 0.88142 0.40762 0.0
H1381 H 0.40792 0.93437 0.42465 0.0
H1382 H 0.48163 0.98791 0.51947 0.0
H1383 H 0.44105 0.9445 0.48677 0.0
H1384 H 0.51157 0.93433 0.4023 0.0
H1385 H 0.55306 0.97798 0.43602 0.0
C1386 C 0.42702 0.86216 0.38158 0.0
C1387 C 0.39501 0.86572 0.37496 0.0
C1388 C 0.45226 0.88471 0.40335 0.0
C1389 C 0.44601 0.91123 0.41921 0.0
C1390 C 0.41375 0.91421 0.41346 0.0
C1391 C 0.38873 0.89187 0.39182 0.0
C1392 C 0.48873 0.97661 0.49386 0.0
C1393 C 0.52061 0.98705 0.47993 0.0
C1394 C 0.46523 0.95163 0.47495 0.0
C1395 C 0.47262 0.93616 0.44124 0.0
C1396 C 0.50492 0.9457 0.42814 0.0
C1397 C 0.52868 0.97087 0.44727 0.0
H1398 H 0.30023 0.38083 0.40936 0.0
H1399 H 0.23433 0.37449 0.30334 0.0
H1400 H 0.27088 0.41184 0.44469 0.0
H1401 H 0.20545 0.40603 0.33786 0.0
H1402 H 0.1396 0.44756 0.4123 0.0
H1403 H 0.16986 0.41712 0.37927 0.0
H1404 H 0.25331 0.45311 0.46525 0.0
H1405 H 0.22199 0.48341 0.49928 0.0
C1406 C 0.27958 0.38607 0.39309 0.0
C1407 C 0.27031 0.37438 0.35266 0.0
C1408 C 0.26242 0.40437 0.41373 0.0
C1409 C 0.23469 0.41231 0.39542 0.0
C1410 C 0.22576 0.40076 0.35471 0.0
C1411 C 0.24286 0.38242 0.33418 0.0
C1412 C 0.16443 0.4493 0.42467 0.0
C1413 C 0.17759 0.46881 0.45925 0.0
C1414 C 0.1824 0.43155 0.40496 0.0
C1415 C 0.21519 0.43188 0.41808 0.0
C1416 C 0.22841 0.45123 0.45314 0.0
C1417 C 0.21021 0.4691 0.47308 0.0
H1418 H 0.49556 0.2391 0.65624 0.0
H1419 H 0.39898 0.17498 0.65795 0.0
H1420 H 0.52032 0.19713 0.6517 0.0
H1421 H 0.42379 0.13325 0.65648 0.0
H1422 H 0.47568 0.06523 0.61015 0.0
H1423 H 0.44887 0.10539 0.61684 0.0
H1424 H 0.53386 0.15937 0.69072 0.0
H1425 H 0.56126 0.11939 0.68232 0.0
C1426 C 0.47958 0.21608 0.65546 0.0
C1427 C 0.44532 0.21045 0.65799 0.0
C1428 C 0.49385 0.19197 0.65367 0.0
C1429 C 0.4742 0.16169 0.65453 0.0
C1430 C 0.4398 0.15615 0.65562 0.0
C1431 C 0.42555 0.18018 0.65695 0.0
C1432 C 0.48835 0.08543 0.62851 0.0
C1433 C 0.52065 0.08932 0.6454 0.0
C1434 C 0.47294 0.10852 0.63248 0.0
C1435 C 0.48939 0.13599 0.65373 0.0
C1436 C 0.52083 0.13892 0.6731 0.0
C1437 C 0.53632 0.11579 0.66897 0.0
H1438 H 0.8719 0.36805 0.67025 0.0
H1439 H 0.93545 0.38268 0.78012 0.0
H1440 H 0.91283 0.40805 0.6386 0.0
H1441 H 0.97613 0.42271 0.74865 0.0
H1442 H 1.01662 0.51873 0.69729 0.0
H1443 H 0.98078 0.47455 0.72686 0.0
H1444 H 0.97016 0.42395 0.61311 0.0
H1445 H 1.00674 0.4686 0.58342 0.0
C1446 C 0.89466 0.37958 0.68767 0.0
C1447 C 0.90007 0.37188 0.72799 0.0
C1448 C 0.91833 0.40252 0.66934 0.0
C1449 C 0.94804 0.41895 0.69086 0.0
C1450 C 0.95358 0.41093 0.731 0.0
C1451 C 0.93017 0.38773 0.7491 0.0
C1452 C 1.00726 0.49802 0.67865 0.0
C1453 C 1.01507 0.49735 0.63795 0.0
C1454 C 0.98658 0.47252 0.69573 0.0
C1455 C 0.97223 0.44537 0.67262 0.0
C1456 C 0.98047 0.4444 0.63197 0.0
C1457 C 1.00185 0.46991 0.615 0.0
H1458 H 0.25511 0.70798 0.76806 0.0
H1459 H 0.25125 0.76097 0.66254 0.0
H1460 H 0.22864 0.66143 0.727 0.0
H1461 H 0.22565 0.71483 0.62194 0.0
H1462 H 0.1402 0.63038 0.58261 0.0
H1463 H 0.17099 0.67665 0.62039 0.0
H1464 H 0.24174 0.63101 0.6668 0.0
H1465 H 0.21019 0.58416 0.62891 0.0
C1466 C 0.24844 0.70966 0.7363 0.0
C1467 C 0.25505 0.73798 0.71848 0.0
C1468 C 0.2338 0.68312 0.71279 0.0
C1469 C 0.22545 0.68473 0.67139 0.0
C1470 C 0.23179 0.71307 0.65384 0.0
C1471 C 0.2464 0.73943 0.67715 0.0
C1472 C 0.16248 0.63039 0.60058 0.0
C1473 C 0.17286 0.60398 0.60337 0.0
C1474 C 0.18017 0.65681 0.62199 0.0
C1475 C 0.20847 0.65716 0.64671 0.0
C1476 C 0.2197 0.63103 0.64824 0.0
C1477 C 0.20204 0.60452 0.62633 0.0
loop_
_geom_bond_atom_site_label_1
_geom_bond_atom_site_label_2
_geom_bond_distance
_geom_bond_site_symmetry_2
_ccdc_geom_bond_type
Dy0 O3 2.307 . S
Dy0 O5 2.395 . S
Dy0 O6 2.379 . S
Dy0 O8 2.339 . S
Dy0 O10 2.298 . S
Dy0 O14 2.275 . S
Dy0 C22 2.738 . S
Dy1 O4 2.298 . S
Dy1 O7 2.275 . S
Dy1 O9 2.307 . S
Dy1 O11 2.395 . S
Dy1 O12 2.379 . S
Dy1 O15 2.339 . S
Dy1 C31 2.738 . S
C2 O14 1.254 . S
C2 O15 1.257 . S
O3 Dy0 2.307 . S
O3 C13 1.266 . S
O4 Dy1 2.298 . S
O4 C13 1.236 . S
O5 Dy0 2.395 . S
O5 C22 1.255 . S
O6 Dy0 2.379 . S
O6 C22 1.249 . S
O7 Dy1 2.275 . S
O7 C23 1.254 . S
O8 Dy0 2.339 . S
O8 C23 1.257 . S
O9 Dy1 2.307 . S
O9 C24 1.266 . S
O10 Dy0 2.298 . S
O10 C24 1.236 . S
O11 Dy1 2.395 . S
O11 C31 1.255 . S
O12 Dy1 2.379 . S
O12 C31 1.249 . S
C13 O3 1.266 . S
C13 O4 1.236 . S
O14 Dy0 2.275 . S
O14 C2 1.254 . S
O15 Dy1 2.339 . S
O15 C2 1.257 . S
C16 C19 1.344 . S
C16 C20 1.328 . S
C16 C22 1.516 . S
C17 C18 1.304 . S
C17 C21 1.323 . S
C18 C17 1.304 . S
C18 C19 1.371 . S
C18 H32 0.930 . S
C19 C16 1.344 . S
C19 C18 1.371 . S
C19 H33 0.931 . S
C20 C16 1.328 . S
C20 C21 1.433 . S
C20 H34 0.931 . S
C21 C17 1.323 . S
C21 C20 1.433 . S
C21 H35 0.933 . S
C22 Dy0 2.738 . S
C22 O5 1.255 . S
C22 O6 1.249 . S
C22 C16 1.516 . S
C23 O7 1.254 . S
C23 O8 1.257 . S
C24 O9 1.266 . S
C24 O10 1.236 . S
C25 C28 1.344 . S
C25 C29 1.328 . S
C25 C31 1.516 . S
C26 C27 1.304 . S
C26 C30 1.323 . S
C27 C26 1.304 . S
C27 C28 1.371 . S
C27 H36 0.930 . S
C28 C25 1.344 . S
C28 C27 1.371 . S
C28 H37 0.931 . S
C29 C25 1.328 . S
C29 C30 1.433 . S
C29 H38 0.931 . S
C30 C26 1.323 . S
C30 C29 1.433 . S
C30 H39 0.933 . S
C31 Dy1 2.738 . S
C31 O11 1.255 . S
C31 O12 1.249 . S
C31 C25 1.516 . S
H32 C18 0.930 . S
H33 C19 0.931 . S
H34 C20 0.931 . S
H35 C21 0.933 . S
H36 C27 0.930 . S
H37 C28 0.931 . S
H38 C29 0.931 . S
H39 C30 0.933 . S
Dy40 O43 2.307 . S
Dy40 O45 2.395 . S
Dy40 O46 2.379 . S
Dy40 O48 2.339 . S
Dy40 O50 2.298 . S
Dy40 O54 2.275 . S
Dy40 C62 2.738 . S
Dy41 O44 2.298 . S
Dy41 O47 2.275 . S
Dy41 O49 2.307 . S
Dy41 O51 2.395 . S
Dy41 O52 2.379 . S
Dy41 O55 2.339 . S
Dy41 C71 2.738 . S
C42 O54 1.254 . S
C42 O55 1.257 . S
O43 Dy40 2.307 . S
O43 C53 1.266 . S
O44 Dy41 2.298 . S
O44 C53 1.236 . S
O45 Dy40 2.395 . S
O45 C62 1.255 . S
O46 Dy40 2.379 . S
O46 C62 1.249 . S
O47 Dy41 2.275 . S
O47 C63 1.254 . S
O48 Dy40 2.339 . S
O48 C63 1.257 . S
O49 Dy41 2.307 . S
O49 C64 1.266 . S
O50 Dy40 2.298 . S
O50 C64 1.236 . S
O51 Dy41 2.395 . S
O51 C71 1.255 . S
O52 Dy41 2.379 . S
O52 C71 1.249 . S
C53 O43 1.266 . S
C53 O44 1.236 . S
O54 Dy40 2.275 . S
O54 C42 1.254 . S
O55 Dy41 2.339 . S
O55 C42 1.257 . S
C56 C59 1.344 . S
C56 C60 1.328 . S
C56 C62 1.516 . S
C57 C58 1.304 . S
C57 C61 1.323 . S
C58 C57 1.304 . S
C58 C59 1.371 . S
C58 H72 0.930 . S
C59 C56 1.344 . S
C59 C58 1.371 . S
C59 H73 0.931 . S
C60 C56 1.328 . S
C60 C61 1.433 . S
C60 H74 0.931 . S
C61 C57 1.323 . S
C61 C60 1.433 . S
C61 H75 0.933 . S
C62 Dy40 2.738 . S
C62 O45 1.255 . S
C62 O46 1.249 . S
C62 C56 1.516 . S
C63 O47 1.254 . S
C63 O48 1.257 . S
C64 O49 1.266 . S
C64 O50 1.236 . S
C65 C68 1.344 . S
C65 C69 1.328 . S
C65 C71 1.516 . S
C66 C67 1.304 . S
C66 C70 1.323 . S
C67 C66 1.304 . S
C67 C68 1.371 . S
C67 H76 0.930 . S
C68 C65 1.344 . S
C68 C67 1.371 . S
C68 H77 0.931 . S
C69 C65 1.328 . S
C69 C70 1.433 . S
C69 H78 0.931 . S
C70 C66 1.323 . S
C70 C69 1.433 . S
C70 H79 0.933 . S
C71 Dy41 2.738 . S
C71 O51 1.255 . S
C71 O52 1.249 . S
C71 C65 1.516 . S
H72 C58 0.930 . S
H73 C59 0.931 . S
H74 C60 0.931 . S
H75 C61 0.933 . S
H76 C67 0.930 . S
H77 C68 0.931 . S
H78 C69 0.931 . S
H79 C70 0.933 . S
Dy80 O83 2.307 . S
Dy80 O85 2.395 . S
Dy80 O86 2.379 . S
Dy80 O88 2.339 . S
Dy80 O90 2.298 . S
Dy80 O94 2.275 . S
Dy80 C102 2.738 . S
Dy81 O84 2.298 . S
Dy81 O87 2.275 . S
Dy81 O89 2.307 . S
Dy81 O91 2.395 . S
Dy81 O92 2.379 . S
Dy81 O95 2.339 . S
Dy81 C111 2.738 . S
C82 O94 1.254 . S
C82 O95 1.257 . S
O83 Dy80 2.307 . S
O83 C93 1.266 . S
O84 Dy81 2.298 . S
O84 C93 1.236 . S
O85 Dy80 2.395 . S
O85 C102 1.255 . S
O86 Dy80 2.379 . S
O86 C102 1.249 . S
O87 Dy81 2.275 . S
O87 C103 1.254 . S
O88 Dy80 2.339 . S
O88 C103 1.257 . S
O89 Dy81 2.307 . S
O89 C104 1.266 . S
O90 Dy80 2.298 . S
O90 C104 1.236 . S
O91 Dy81 2.395 . S
O91 C111 1.255 . S
O92 Dy81 2.379 . S
O92 C111 1.249 . S
C93 O83 1.266 . S
C93 O84 1.236 . S
O94 Dy80 2.275 . S
O94 C82 1.254 . S
O95 Dy81 2.339 . S
O95 C82 1.257 . S
C96 C99 1.344 . S
C96 C100 1.328 . S
C96 C102 1.516 . S
C97 C98 1.304 . S
C97 C101 1.323 . S
C98 C97 1.304 . S
C98 C99 1.371 . S
C98 H112 0.930 . S
C99 C96 1.344 . S
C99 C98 1.371 . S
C99 H113 0.931 . S
C100 C96 1.328 . S
C100 C101 1.433 . S
C100 H114 0.931 . S
C101 C97 1.323 . S
C101 C100 1.433 . S
C101 H115 0.933 . S
C102 Dy80 2.738 . S
C102 O85 1.255 . S
C102 O86 1.249 . S
C102 C96 1.516 . S
C103 O87 1.254 . S
C103 O88 1.257 . S
C104 O89 1.266 . S
C104 O90 1.236 . S
C105 C108 1.344 . S
C105 C109 1.328 . S
C105 C111 1.516 . S
C106 C107 1.304 . S
C106 C110 1.323 . S
C107 C106 1.304 . S
C107 C108 1.371 . S
C107 H116 0.930 . S
C108 C105 1.344 . S
C108 C107 1.371 . S
C108 H117 0.931 . S
C109 C105 1.328 . S
C109 C110 1.433 . S
C109 H118 0.931 . S
C110 C106 1.323 . S
C110 C109 1.433 . S
C110 H119 0.933 . S
C111 Dy81 2.738 . S
C111 O91 1.255 . S
C111 O92 1.249 . S
C111 C105 1.516 . S
H112 C98 0.930 . S
H113 C99 0.931 . S
H114 C100 0.931 . S
H115 C101 0.933 . S
H116 C107 0.930 . S
H117 C108 0.931 . S
H118 C109 0.931 . S
H119 C110 0.933 . S
Dy120 O123 2.307 . S
Dy120 O125 2.395 . S
Dy120 O126 2.379 . S
Dy120 O128 2.339 . S
Dy120 O130 2.298 . S
Dy120 O134 2.275 . S
Dy120 C142 2.738 . S
Dy121 O124 2.298 . S
Dy121 O127 2.275 . S
Dy121 O129 2.307 . S
Dy121 O131 2.395 . S
Dy121 O132 2.379 . S
Dy121 O135 2.339 . S
Dy121 C151 2.738 . S
C122 O134 1.254 . S
C122 O135 1.257 . S
O123 Dy120 2.307 . S
O123 C133 1.266 . S
O124 Dy121 2.298 . S
O124 C133 1.236 . S
O125 Dy120 2.395 . S
O125 C142 1.255 . S
O126 Dy120 2.379 . S
O126 C142 1.249 . S
O127 Dy121 2.275 . S
O127 C143 1.254 . S
O128 Dy120 2.339 . S
O128 C143 1.257 . S
O129 Dy121 2.307 . S
O129 C144 1.266 . S
O130 Dy120 2.298 . S
O130 C144 1.236 . S
O131 Dy121 2.395 . S
O131 C151 1.255 . S
O132 Dy121 2.379 . S
O132 C151 1.249 . S
C133 O123 1.266 . S
C133 O124 1.236 . S
O134 Dy120 2.275 . S
O134 C122 1.254 . S
O135 Dy121 2.339 . S
O135 C122 1.257 . S
C136 C139 1.344 . S
C136 C140 1.328 . S
C136 C142 1.516 . S
C137 C138 1.304 . S
C137 C141 1.323 . S
C138 C137 1.304 . S
C138 C139 1.371 . S
C138 H152 0.930 . S
C139 C136 1.344 . S
C139 C138 1.371 . S
C139 H153 0.931 . S
C140 C136 1.328 . S
C140 C141 1.433 . S
C140 H154 0.931 . S
C141 C137 1.323 . S
C141 C140 1.433 . S
C141 H155 0.933 . S
C142 Dy120 2.738 . S
C142 O125 1.255 . S
C142 O126 1.249 . S
C142 C136 1.516 . S
C143 O127 1.254 . S
C143 O128 1.257 . S
C144 O129 1.266 . S
C144 O130 1.236 . S
C145 C148 1.344 . S
C145 C149 1.328 . S
C145 C151 1.516 . S
C146 C147 1.304 . S
C146 C150 1.323 . S
C147 C146 1.304 . S
C147 C148 1.371 . S
C147 H156 0.930 . S
C148 C145 1.344 . S
C148 C147 1.371 . S
C148 H157 0.931 . S
C149 C145 1.328 . S
C149 C150 1.433 . S
C149 H158 0.931 . S
C150 C146 1.323 . S
C150 C149 1.433 . S
C150 H159 0.933 . S
C151 Dy121 2.738 . S
C151 O131 1.255 . S
C151 O132 1.249 . S
C151 C145 1.516 . S
H152 C138 0.930 . S
H153 C139 0.931 . S
H154 C140 0.931 . S
H155 C141 0.933 . S
H156 C147 0.930 . S
H157 C148 0.931 . S
H158 C149 0.931 . S
H159 C150 0.933 . S
Dy160 O163 2.307 . S
Dy160 O165 2.395 . S
Dy160 O166 2.379 . S
Dy160 O168 2.339 . S
Dy160 O170 2.298 . S
Dy160 O174 2.275 . S
Dy160 C182 2.738 . S
Dy161 O164 2.298 . S
Dy161 O167 2.275 . S
Dy161 O169 2.307 . S
Dy161 O171 2.395 . S
Dy161 O172 2.379 . S
Dy161 O175 2.339 . S
Dy161 C191 2.738 . S
C162 O174 1.254 . S
C162 O175 1.257 . S
O163 Dy160 2.307 . S
O163 C173 1.266 . S
O164 Dy161 2.298 . S
O164 C173 1.236 . S
O165 Dy160 2.395 . S
O165 C182 1.255 . S
O166 Dy160 2.379 . S
O166 C182 1.249 . S
O167 Dy161 2.275 . S
O167 C183 1.254 . S
O168 Dy160 2.339 . S
O168 C183 1.257 . S
O169 Dy161 2.307 . S
O169 C184 1.266 . S
O170 Dy160 2.298 . S
O170 C184 1.236 . S
O171 Dy161 2.395 . S
O171 C191 1.255 . S
O172 Dy161 2.379 . S
O172 C191 1.249 . S
C173 O163 1.266 . S
C173 O164 1.236 . S
O174 Dy160 2.275 . S
O174 C162 1.254 . S
O175 Dy161 2.339 . S
O175 C162 1.257 . S
C176 C179 1.344 . S
C176 C180 1.328 . S
C176 C182 1.516 . S
C177 C178 1.304 . S
C177 C181 1.323 . S
C178 C177 1.304 . S
C178 C179 1.371 . S
C178 H192 0.930 . S
C179 C176 1.344 . S
C179 C178 1.371 . S
C179 H193 0.931 . S
C180 C176 1.328 . S
C180 C181 1.433 . S
C180 H194 0.931 . S
C181 C177 1.323 . S
C181 C180 1.433 . S
C181 H195 0.933 . S
C182 Dy160 2.738 . S
C182 O165 1.255 . S
C182 O166 1.249 . S
C182 C176 1.516 . S
C183 O167 1.254 . S
C183 O168 1.257 . S
C184 O169 1.266 . S
C184 O170 1.236 . S
C185 C188 1.344 . S
C185 C189 1.328 . S
C185 C191 1.516 . S
C186 C187 1.304 . S
C186 C190 1.323 . S
C187 C186 1.304 . S
C187 C188 1.371 . S
C187 H196 0.930 . S
C188 C185 1.344 . S
C188 C187 1.371 . S
C188 H197 0.931 . S
C189 C185 1.328 . S
C189 C190 1.433 . S
C189 H198 0.931 . S
C190 C186 1.323 . S
C190 C189 1.433 . S
C190 H199 0.933 . S
C191 Dy161 2.738 . S
C191 O171 1.255 . S
C191 O172 1.249 . S
C191 C185 1.516 . S
H192 C178 0.930 . S
H193 C179 0.931 . S
H194 C180 0.931 . S
H195 C181 0.933 . S
H196 C187 0.930 . S
H197 C188 0.931 . S
H198 C189 0.931 . S
H199 C190 0.933 . S
Dy200 O203 2.307 . S
Dy200 O205 2.395 . S
Dy200 O206 2.379 . S
Dy200 O208 2.339 . S
Dy200 O210 2.298 . S
Dy200 O214 2.275 . S
Dy200 C222 2.738 . S
Dy201 O204 2.298 . S
Dy201 O207 2.275 . S
Dy201 O209 2.307 . S
Dy201 O211 2.395 . S
Dy201 O212 2.379 . S
Dy201 O215 2.339 . S
Dy201 C231 2.738 . S
C202 O214 1.254 . S
C202 O215 1.257 . S
O203 Dy200 2.307 . S
O203 C213 1.266 . S
O204 Dy201 2.298 . S
O204 C213 1.236 . S
O205 Dy200 2.395 . S
O205 C222 1.255 . S
O206 Dy200 2.379 . S
O206 C222 1.249 . S
O207 Dy201 2.275 . S
O207 C223 1.254 . S
O208 Dy200 2.339 . S
O208 C223 1.257 . S
O209 Dy201 2.307 . S
O209 C224 1.266 . S
O210 Dy200 2.298 . S
O210 C224 1.236 . S
O211 Dy201 2.395 . S
O211 C231 1.255 . S
O212 Dy201 2.379 . S
O212 C231 1.249 . S
C213 O203 1.266 . S
C213 O204 1.236 . S
O214 Dy200 2.275 . S
O214 C202 1.254 . S
O215 Dy201 2.339 . S
O215 C202 1.257 . S
C216 C219 1.344 . S
C216 C220 1.328 . S
C216 C222 1.516 . S
C217 C218 1.304 . S
C217 C221 1.323 . S
C218 C217 1.304 . S
C218 C219 1.371 . S
C218 H232 0.930 . S
C219 C216 1.344 . S
C219 C218 1.371 . S
C219 H233 0.931 . S
C220 C216 1.328 . S
C220 C221 1.433 . S
C220 H234 0.931 . S
C221 C217 1.323 . S
C221 C220 1.433 . S
C221 H235 0.933 . S
C222 Dy200 2.738 . S
C222 O205 1.255 . S
C222 O206 1.249 . S
C222 C216 1.516 . S
C223 O207 1.254 . S
C223 O208 1.257 . S
C224 O209 1.266 . S
C224 O210 1.236 . S
C225 C228 1.344 . S
C225 C229 1.328 . S
C225 C231 1.516 . S
C226 C227 1.304 . S
C226 C230 1.323 . S
C227 C226 1.304 . S
C227 C228 1.371 . S
C227 H236 0.930 . S
C228 C225 1.344 . S
C228 C227 1.371 . S
C228 H237 0.931 . S
C229 C225 1.328 . S
C229 C230 1.433 . S
C229 H238 0.931 . S
C230 C226 1.323 . S
C230 C229 1.433 . S
C230 H239 0.933 . S
C231 Dy201 2.738 . S
C231 O211 1.255 . S
C231 O212 1.249 . S
C231 C225 1.516 . S
H232 C218 0.930 . S
H233 C219 0.931 . S
H234 C220 0.931 . S
H235 C221 0.933 . S
H236 C227 0.930 . S
H237 C228 0.931 . S
H238 C229 0.931 . S
H239 C230 0.933 . S
Dy240 O243 2.307 . S
Dy240 O245 2.395 . S
Dy240 O246 2.379 . S
Dy240 O248 2.339 . S
Dy240 O250 2.298 . S
Dy240 O254 2.275 . S
Dy240 C262 2.738 . S
Dy241 O244 2.298 . S
Dy241 O247 2.275 . S
Dy241 O249 2.307 . S
Dy241 O251 2.395 . S
Dy241 O252 2.379 . S
Dy241 O255 2.339 . S
Dy241 C271 2.738 . S
C242 O254 1.254 . S
C242 O255 1.257 . S
O243 Dy240 2.307 . S
O243 C253 1.266 . S
O244 Dy241 2.298 . S
O244 C253 1.236 . S
O245 Dy240 2.395 . S
O245 C262 1.255 . S
O246 Dy240 2.379 . S
O246 C262 1.249 . S
O247 Dy241 2.275 . S
O247 C263 1.254 . S
O248 Dy240 2.339 . S
O248 C263 1.257 . S
O249 Dy241 2.307 . S
O249 C264 1.266 . S
O250 Dy240 2.298 . S
O250 C264 1.236 . S
O251 Dy241 2.395 . S
O251 C271 1.255 . S
O252 Dy241 2.379 . S
O252 C271 1.249 . S
C253 O243 1.266 . S
C253 O244 1.236 . S
O254 Dy240 2.275 . S
O254 C242 1.254 . S
O255 Dy241 2.339 . S
O255 C242 1.257 . S
C256 C259 1.344 . S
C256 C260 1.328 . S
C256 C262 1.516 . S
C257 C258 1.304 . S
C257 C261 1.323 . S
C258 C257 1.304 . S
C258 C259 1.371 . S
C258 H272 0.930 . S
C259 C256 1.344 . S
C259 C258 1.371 . S
C259 H273 0.931 . S
C260 C256 1.328 . S
C260 C261 1.433 . S
C260 H274 0.931 . S
C261 C257 1.323 . S
C261 C260 1.433 . S
C261 H275 0.933 . S
C262 Dy240 2.738 . S
C262 O245 1.255 . S
C262 O246 1.249 . S
C262 C256 1.516 . S
C263 O247 1.254 . S
C263 O248 1.257 . S
C264 O249 1.266 . S
C264 O250 1.236 . S
C265 C268 1.344 . S
C265 C269 1.328 . S
C265 C271 1.516 . S
C266 C267 1.304 . S
C266 C270 1.323 . S
C267 C266 1.304 . S
C267 C268 1.371 . S
C267 H276 0.930 . S
C268 C265 1.344 . S
C268 C267 1.371 . S
C268 H277 0.931 . S
C269 C265 1.328 . S
C269 C270 1.433 . S
C269 H278 0.931 . S
C270 C266 1.323 . S
C270 C269 1.433 . S
C270 H279 0.933 . S
C271 Dy241 2.738 . S
C271 O251 1.255 . S
C271 O252 1.249 . S
C271 C265 1.516 . S
H272 C258 0.930 . S
H273 C259 0.931 . S
H274 C260 0.931 . S
H275 C261 0.933 . S
H276 C267 0.930 . S
H277 C268 0.931 . S
H278 C269 0.931 . S
H279 C270 0.933 . S
Dy280 O283 2.307 . S
Dy280 O285 2.395 . S
Dy280 O286 2.379 . S
Dy280 O288 2.339 . S
Dy280 O290 2.298 . S
Dy280 O294 2.275 . S
Dy280 C302 2.738 . S
Dy281 O284 2.298 . S
Dy281 O287 2.275 . S
Dy281 O289 2.307 . S
Dy281 O291 2.395 . S
Dy281 O292 2.379 . S
Dy281 O295 2.339 . S
Dy281 C311 2.738 . S
C282 O294 1.254 . S
C282 O295 1.257 . S
O283 Dy280 2.307 . S
O283 C293 1.266 . S
O284 Dy281 2.298 . S
O284 C293 1.236 . S
O285 Dy280 2.395 . S
O285 C302 1.255 . S
O286 Dy280 2.379 . S
O286 C302 1.249 . S
O287 Dy281 2.275 . S
O287 C303 1.254 . S
O288 Dy280 2.339 . S
O288 C303 1.257 . S
O289 Dy281 2.307 . S
O289 C304 1.266 . S
O290 Dy280 2.298 . S
O290 C304 1.236 . S
O291 Dy281 2.395 . S
O291 C311 1.255 . S
O292 Dy281 2.379 . S
O292 C311 1.249 . S
C293 O283 1.266 . S
C293 O284 1.236 . S
O294 Dy280 2.275 . S
O294 C282 1.254 . S
O295 Dy281 2.339 . S
O295 C282 1.257 . S
C296 C299 1.344 . S
C296 C300 1.328 . S
C296 C302 1.516 . S
C297 C298 1.304 . S
C297 C301 1.323 . S
C298 C297 1.304 . S
C298 C299 1.371 . S
C298 H312 0.930 . S
C299 C296 1.344 . S
C299 C298 1.371 . S
C299 H313 0.931 . S
C300 C296 1.328 . S
C300 C301 1.433 . S
C300 H314 0.931 . S
C301 C297 1.323 . S
C301 C300 1.433 . S
C301 H315 0.933 1_556 S
C302 Dy280 2.738 . S
C302 O285 1.255 . S
C302 O286 1.249 . S
C302 C296 1.516 . S
C303 O287 1.254 . S
C303 O288 1.257 . S
C304 O289 1.266 . S
C304 O290 1.236 . S
C305 C308 1.344 . S
C305 C309 1.328 . S
C305 C311 1.516 . S
C306 C307 1.304 . S
C306 C310 1.323 . S
C307 C306 1.304 . S
C307 C308 1.371 . S
C307 H316 0.930 . S
C308 C305 1.344 . S
C308 C307 1.371 . S
C308 H317 0.931 . S
C309 C305 1.328 . S
C309 C310 1.433 . S
C309 H318 0.931 . S
C310 C306 1.323 . S
C310 C309 1.433 . S
C310 H319 0.933 . S
C311 Dy281 2.738 . S
C311 O291 1.255 . S
C311 O292 1.249 . S
C311 C305 1.516 . S
H312 C298 0.930 . S
H313 C299 0.931 . S
H314 C300 0.931 . S
H315 C301 0.933 1_554 S
H316 C307 0.930 . S
H317 C308 0.931 . S
H318 C309 0.931 . S
H319 C310 0.933 . S
Co320 O323 2.042 . S
Co320 O330 2.264 . S
Co320 O349 2.286 . S
Co320 O350 2.069 . S
Co320 O352 2.015 1_455 S
Co321 O323 2.122 . S
Co321 O329 2.073 . S
Co321 O330 2.327 . S
Co321 O331 1.976 1_455 S
Co322 O323 2.087 1_545 S
Co322 O325 2.087 1_455 S
Co322 O332 2.111 1_455 S
Co322 O333 2.143 . S
Co322 O337 2.111 . S
Co322 O351 2.143 1_445 S
O323 Co320 2.042 . S
O323 Co321 2.122 . S
O323 Co322 2.087 1_565 S
O323 H324 0.980 1_565 S
H324 O323 0.980 1_545 S
O325 Co322 2.087 1_655 S
O325 Co326 2.042 . S
O325 Co327 2.122 . S
O325 H328 0.980 . S
Co326 O325 2.042 . S
Co326 O334 2.286 . S
Co326 O335 2.069 . S
Co326 O336 2.015 1_655 S
Co326 O339 2.264 . S
Co327 O325 2.122 . S
Co327 O338 1.976 1_655 S
Co327 O339 2.327 . S
Co327 O340 2.073 . S
H328 O325 0.980 . S
O329 Co321 2.073 . S
O329 C344 1.245 . S
O330 Co320 2.264 . S
O330 Co321 2.327 . S
O330 C344 1.257 . S
O331 Co321 1.976 1_655 S
O331 C343 1.251 . S
O332 Co322 2.111 1_655 S
O332 C343 1.274 1_545 S
O333 Co322 2.143 . S
O333 C346 1.246 . S
O334 Co326 2.286 . S
O334 C345 1.259 . S
O335 Co326 2.069 . S
O335 C345 1.289 . S
O336 Co326 2.015 1_455 S
O336 C346 1.257 . S
O337 Co322 2.111 . S
O337 C347 1.274 . S
O338 Co327 1.976 1_455 S
O338 C347 1.251 . S
O339 Co326 2.264 . S
O339 Co327 2.327 . S
O339 C348 1.257 . S
O340 Co327 2.073 . S
O340 C348 1.245 . S
C341 O349 1.259 . S
C341 O350 1.289 . S
C342 O351 1.246 . S
C342 O352 1.257 . S
C343 O331 1.251 . S
C343 O332 1.274 1_565 S
C344 O329 1.245 . S
C344 O330 1.257 . S
C345 O334 1.259 . S
C345 O335 1.289 . S
C346 O333 1.246 . S
C346 O336 1.257 . S
C347 O337 1.274 . S
C347 O338 1.251 . S
C348 O339 1.257 . S
C348 O340 1.245 . S
O349 Co320 2.286 . S
O349 C341 1.259 . S
O350 Co320 2.069 . S
O350 C341 1.289 . S
O351 Co322 2.143 1_665 S
O351 C342 1.246 . S
O352 Co320 2.015 1_655 S
O352 C342 1.257 . S
Co353 O356 2.042 1_566 S
Co353 O363 2.264 1_556 S
Co353 O382 2.286 . S
Co353 O383 2.069 . S
Co353 O385 2.015 . S
Co354 O356 2.122 1_565 S
Co354 O362 2.073 . S
Co354 O363 2.327 . S
Co354 O364 1.976 . S
Co355 O356 2.087 . S
Co355 O358 2.087 1_554 S
Co355 O365 2.111 . S
Co355 O366 2.143 . S
Co355 O370 2.111 1_554 S
Co355 O384 2.153 1_554 S
O356 Co353 2.042 1_544 S
O356 Co354 2.122 1_545 S
O356 Co355 2.087 . S
O356 H357 0.980 . S
H357 O356 0.980 . S
O358 Co355 2.087 1_556 S
O358 Co359 2.042 1_556 S
O358 Co360 2.122 . S
O358 H361 0.980 . S
Co359 O358 2.042 1_554 S
Co359 O367 2.286 . S
Co359 O368 2.069 . S
Co359 O369 2.015 . S
Co359 O372 2.264 1_554 S
Co360 O358 2.122 . S
Co360 O371 1.976 . S
Co360 O372 2.327 . S
Co360 O373 2.073 . S
H361 O358 0.980 . S
O362 Co354 2.073 . S
O362 C377 1.245 . S
O363 Co353 2.264 1_554 S
O363 Co354 2.327 . S
O363 C377 1.257 . S
O364 Co354 1.976 . S
O364 C376 1.251 . S
O365 Co355 2.111 . S
O365 C376 1.274 1_545 S
O366 Co355 2.143 . S
O366 C379 1.246 . S
O367 Co359 2.286 . S
O367 C378 1.259 . S
O368 Co359 2.069 . S
O368 C378 1.289 . S
O369 Co359 2.015 . S
O369 C379 1.257 . S
O370 Co355 2.111 1_556 S
O370 C380 1.274 . S
O371 Co360 1.976 . S
O371 C380 1.251 . S
O372 Co359 2.264 1_556 S
O372 Co360 2.327 . S
O372 C381 1.257 . S
O373 Co360 2.073 . S
O373 C381 1.245 . S
C374 O382 1.259 . S
C374 O383 1.289 . S
C375 O384 1.227 1_565 S
C375 O385 1.257 . S
C376 O364 1.251 . S
C376 O365 1.274 1_565 S
C377 O362 1.245 . S
C377 O363 1.257 . S
C378 O367 1.259 . S
C378 O368 1.289 . S
C379 O366 1.246 . S
C379 O369 1.257 . S
C380 O370 1.274 . S
C380 O371 1.251 . S
C381 O372 1.257 . S
C381 O373 1.245 . S
O382 Co353 2.286 . S
O382 C374 1.259 . S
O383 Co353 2.069 . S
O383 C374 1.289 . S
O384 Co355 2.153 1_556 S
O384 C375 1.227 1_545 S
O385 Co353 2.015 . S
O385 C375 1.257 . S
Co386 O389 2.042 . S
Co386 O396 2.264 . S
Co386 O415 2.286 1_554 S
Co386 O416 2.069 . S
Co386 O418 2.015 1_455 S
Co387 O389 2.122 . S
Co387 O395 2.073 . S
Co387 O396 2.327 . S
Co387 O397 1.976 1_455 S
Co388 O389 2.087 . S
Co388 O391 2.087 1_455 S
Co388 O398 2.111 1_455 S
Co388 O399 2.143 . S
Co388 O403 2.111 . S
Co388 O417 2.143 1_455 S
O389 Co386 2.042 . S
O389 Co387 2.122 . S
O389 Co388 2.087 . S
O389 H390 0.980 . S
H390 O389 0.980 . S
O391 Co388 2.087 1_655 S
O391 Co392 2.042 . S
O391 Co393 2.122 1_554 S
O391 H394 0.980 . S
Co392 O391 2.042 . S
Co392 O400 2.286 . S
Co392 O401 2.069 . S
Co392 O402 2.015 1_655 S
Co392 O405 2.264 . S
Co393 O391 2.122 1_556 S
Co393 O404 1.976 1_656 S
Co393 O405 2.327 1_556 S
Co393 O406 2.073 . S
H394 O391 0.980 . S
O395 Co387 2.073 . S
O395 C410 1.245 . S
O396 Co386 2.264 . S
O396 Co387 2.327 . S
O396 C410 1.257 . S
O397 Co387 1.976 1_655 S
O397 C409 1.251 . S
O398 Co388 2.111 1_655 S
O398 C409 1.274 . S
O399 Co388 2.143 . S
O399 C412 1.246 . S
O400 Co392 2.286 . S
O400 C411 1.259 . S
O401 Co392 2.069 . S
O401 C411 1.289 . S
O402 Co392 2.015 1_455 S
O402 C412 1.257 . S
O403 Co388 2.111 . S
O403 C413 1.274 . S
O404 Co393 1.976 1_454 S
O404 C413 1.250 . S
O405 Co392 2.264 . S
O405 Co393 2.327 1_554 S
O405 C414 1.257 . S
O406 Co393 2.073 . S
O406 C414 1.245 1_556 S
C407 O415 1.259 1_554 S
C407 O416 1.289 . S
C408 O417 1.246 . S
C408 O418 1.257 . S
C409 O397 1.251 . S
C409 O398 1.274 . S
C410 O395 1.245 . S
C410 O396 1.257 . S
C411 O400 1.259 . S
C411 O401 1.289 . S
C412 O399 1.246 . S
C412 O402 1.257 . S
C413 O403 1.274 . S
C413 O404 1.250 . S
C414 O405 1.257 . S
C414 O406 1.245 1_554 S
O415 Co386 2.286 1_556 S
O415 C407 1.259 1_556 S
O416 Co386 2.069 . S
O416 C407 1.289 . S
O417 Co388 2.143 1_655 S
O417 C408 1.246 . S
O418 Co386 2.015 1_655 S
O418 C408 1.257 . S
Co419 O422 2.042 1_556 S
Co419 O429 2.264 1_556 S
Co419 O448 2.286 . S
Co419 O449 2.069 . S
Co419 O451 2.015 . S
Co420 O422 2.122 . S
Co420 O428 2.073 . S
Co420 O429 2.327 . S
Co420 O430 1.976 . S
Co421 O422 2.087 . S
Co421 O424 2.087 . S
Co421 O431 2.111 . S
Co421 O432 2.143 . S
Co421 O436 2.111 1_554 S
Co421 O450 2.143 1_554 S
O422 Co419 2.042 1_554 S
O422 Co420 2.122 . S
O422 Co421 2.087 . S
O422 H423 0.980 . S
H423 O422 0.980 . S
O424 Co421 2.087 . S
O424 Co425 2.042 . S
O424 Co426 2.122 1_554 S
O424 H427 0.980 . S
Co425 O424 2.042 . S
Co425 O433 2.286 . S
Co425 O434 2.069 . S
Co425 O435 2.015 . S
Co425 O438 2.264 1_554 S
Co426 O424 2.122 1_556 S
Co426 O437 1.976 . S
Co426 O438 2.327 . S
Co426 O439 2.073 . S
H427 O424 0.980 . S
O428 Co420 2.073 . S
O428 C443 1.245 . S
O429 Co419 2.264 1_554 S
O429 Co420 2.327 . S
O429 C443 1.257 . S
O430 Co420 1.976 . S
O430 C442 1.251 . S
O431 Co421 2.111 . S
O431 C442 1.274 . S
O432 Co421 2.143 . S
O432 C445 1.246 . S
O433 Co425 2.286 . S
O433 C444 1.259 . S
O434 Co425 2.069 . S
O434 C444 1.289 . S
O435 Co425 2.015 . S
O435 C445 1.257 . S
O436 Co421 2.111 1_556 S
O436 C446 1.274 . S
O437 Co426 1.976 . S
O437 C446 1.251 . S
O438 Co425 2.264 1_556 S
O438 Co426 2.327 . S
O438 C447 1.257 . S
O439 Co426 2.073 . S
O439 C447 1.245 . S
C440 O448 1.259 . S
C440 O449 1.289 . S
C441 O450 1.246 . S
C441 O451 1.257 . S
C442 O430 1.251 . S
C442 O431 1.274 . S
C443 O428 1.245 . S
C443 O429 1.257 . S
C444 O433 1.259 . S
C444 O434 1.289 . S
C445 O432 1.246 . S
C445 O435 1.257 . S
C446 O436 1.274 . S
C446 O437 1.251 . S
C447 O438 1.257 . S
C447 O439 1.245 . S
O448 Co419 2.286 . S
O448 C440 1.259 . S
O449 Co419 2.069 . S
O449 C440 1.289 . S
O450 Co421 2.143 1_556 S
O450 C441 1.246 . S
O451 Co419 2.015 . S
O451 C441 1.257 . S
Co452 O455 2.042 . S
Co452 O462 2.264 . S
Co452 O481 2.286 . S
Co452 O482 2.069 . S
Co452 O484 2.015 . S
Co453 O455 2.122 . S
Co453 O461 2.073 . S
Co453 O462 2.327 . S
Co453 O463 1.976 . S
Co454 O455 2.087 . S
Co454 O457 2.087 . S
Co454 O464 2.111 . S
Co454 O465 2.138 1_455 S
Co454 O469 2.111 . S
Co454 O483 2.143 . S
O455 Co452 2.042 . S
O455 Co453 2.122 . S
O455 Co454 2.087 . S
O455 H456 0.980 . S
H456 O455 0.980 . S
O457 Co454 2.087 . S
O457 Co458 2.042 1_455 S
O457 Co459 2.122 1_455 S
O457 H460 0.980 . S
Co458 O457 2.042 1_655 S
Co458 O466 2.286 . S
Co458 O467 2.069 . S
Co458 O468 2.015 . S
Co458 O471 2.264 . S
Co459 O457 2.122 1_655 S
Co459 O470 1.976 . S
Co459 O471 2.327 . S
Co459 O472 2.073 . S
H460 O457 0.980 . S
O461 Co453 2.073 . S
O461 C476 1.245 . S
O462 Co452 2.264 . S
O462 Co453 2.327 . S
O462 C476 1.257 . S
O463 Co453 1.976 . S
O463 C475 1.251 . S
O464 Co454 2.111 . S
O464 C475 1.274 . S
O465 Co454 2.138 1_655 S
O465 C478 1.256 . S
O466 Co458 2.286 . S
O466 C477 1.259 . S
O467 Co458 2.069 . S
O467 C477 1.289 . S
O468 Co458 2.015 . S
O468 C478 1.257 . S
O469 Co454 2.111 . S
O469 C479 1.274 1_455 S
O470 Co459 1.976 . S
O470 C479 1.251 . S
O471 Co458 2.264 . S
O471 Co459 2.327 . S
O471 C480 1.257 . S
O472 Co459 2.073 . S
O472 C480 1.245 . S
C473 O481 1.259 . S
C473 O482 1.289 . S
C474 O483 1.246 . S
C474 O484 1.257 . S
C475 O463 1.251 . S
C475 O464 1.274 . S
C476 O461 1.245 . S
C476 O462 1.257 . S
C477 O466 1.259 . S
C477 O467 1.289 . S
C478 O465 1.256 . S
C478 O468 1.257 . S
C479 O469 1.274 1_655 S
C479 O470 1.251 . S
C480 O471 1.257 . S
C480 O472 1.245 . S
O481 Co452 2.286 . S
O481 C473 1.259 . S
O482 Co452 2.069 . S
O482 C473 1.289 . S
O483 Co454 2.143 . S
O483 C474 1.246 . S
O484 Co452 2.015 . S
O484 C474 1.257 . S
Co485 O488 2.042 . S
Co485 O495 2.264 . S
Co485 O514 2.286 . S
Co485 O515 2.069 . S
Co485 O517 2.015 1_565 S
Co486 O488 2.122 . S
Co486 O494 2.073 . S
Co486 O495 2.327 . S
Co486 O496 1.976 1_565 S
Co487 O488 2.087 1_545 S
Co487 O490 2.087 . S
Co487 O497 2.111 . S
Co487 O498 2.143 1_545 S
Co487 O502 2.111 1_545 S
Co487 O516 2.143 . S
O488 Co485 2.042 . S
O488 Co486 2.122 . S
O488 Co487 2.087 1_565 S
O488 H489 0.980 . S
H489 O488 0.980 . S
O490 Co487 2.087 . S
O490 Co491 2.042 . S
O490 Co492 2.122 . S
O490 H493 0.980 . S
Co491 O490 2.042 . S
Co491 O499 2.286 . S
Co491 O500 2.069 . S
Co491 O501 2.015 1_545 S
Co491 O504 2.264 . S
Co492 O490 2.122 . S
Co492 O503 1.976 1_545 S
Co492 O504 2.327 . S
Co492 O505 2.073 . S
H493 O490 0.980 . S
O494 Co486 2.073 . S
O494 C509 1.245 . S
O495 Co485 2.264 . S
O495 Co486 2.327 . S
O495 C509 1.257 . S
O496 Co486 1.976 1_545 S
O496 C508 1.251 . S
O497 Co487 2.111 . S
O497 C508 1.274 . S
O498 Co487 2.143 1_565 S
O498 C511 1.246 . S
O499 Co491 2.286 . S
O499 C510 1.259 . S
O500 Co491 2.069 . S
O500 C510 1.289 . S
O501 Co491 2.015 1_565 S
O501 C511 1.257 . S
O502 Co487 2.111 1_565 S
O502 C512 1.274 . S
O503 Co492 1.976 1_565 S
O503 C512 1.251 . S
O504 Co491 2.264 . S
O504 Co492 2.327 . S
O504 C513 1.257 . S
O505 Co492 2.073 . S
O505 C513 1.245 . S
C506 O514 1.259 . S
C506 O515 1.289 . S
C507 O516 1.246 . S
C507 O517 1.257 . S
C508 O496 1.251 . S
C508 O497 1.274 . S
C509 O494 1.245 . S
C509 O495 1.257 . S
C510 O499 1.259 . S
C510 O500 1.289 . S
C511 O498 1.246 . S
C511 O501 1.257 . S
C512 O502 1.274 . S
C512 O503 1.251 . S
C513 O504 1.257 . S
C513 O505 1.245 . S
O514 Co485 2.286 . S
O514 C506 1.259 . S
O515 Co485 2.069 . S
O515 C506 1.289 . S
O516 Co487 2.143 . S
O516 C507 1.246 . S
O517 Co485 2.015 1_545 S
O517 C507 1.257 . S
H518 C526 0.950 . S
H519 C531 0.950 . S
H520 C528 0.950 . S
H521 C530 0.950 . S
H522 C532 0.950 . S
H523 C534 0.950 . S
H524 C536 0.950 . S
H525 C537 0.950 . S
C526 H518 0.950 . S
C526 C527 1.386 . S
C526 C528 1.391 . S
C527 C526 1.386 . S
C527 C531 1.393 . S
C528 H520 0.950 . S
C528 C526 1.391 . S
C528 C529 1.400 . S
C529 C528 1.400 . S
C529 C530 1.398 . S
C529 C535 1.491 . S
C530 H521 0.950 . S
C530 C529 1.398 . S
C530 C531 1.391 . S
C531 H519 0.950 . S
C531 C527 1.393 . S
C531 C530 1.391 . S
C532 H522 0.950 . S
C532 C533 1.386 . S
C532 C534 1.391 . S
C533 C532 1.386 . S
C533 C537 1.393 . S
C534 H523 0.950 . S
C534 C532 1.391 . S
C534 C535 1.400 . S
C535 C529 1.491 . S
C535 C534 1.400 . S
C535 C536 1.398 . S
C536 H524 0.950 . S
C536 C535 1.398 . S
C536 C537 1.391 . S
C537 H525 0.950 . S
C537 C533 1.393 . S
C537 C536 1.391 . S
H538 C546 0.950 . S
H539 C551 0.950 . S
H540 C548 0.950 . S
H541 C550 0.950 . S
H542 C552 0.950 . S
H543 C554 0.950 . S
H544 C556 0.950 . S
H545 C557 0.950 . S
C546 H538 0.950 . S
C546 C547 1.386 . S
C546 C548 1.391 . S
C547 C546 1.386 . S
C547 C551 1.393 . S
C548 H540 0.950 . S
C548 C546 1.391 . S
C548 C549 1.400 . S
C549 C548 1.400 . S
C549 C550 1.398 . S
C549 C555 1.491 . S
C550 H541 0.950 . S
C550 C549 1.398 . S
C550 C551 1.391 . S
C551 H539 0.950 . S
C551 C547 1.393 . S
C551 C550 1.391 . S
C552 H542 0.950 . S
C552 C553 1.386 . S
C552 C554 1.391 . S
C553 C552 1.386 . S
C553 C557 1.393 . S
C554 H543 0.950 . S
C554 C552 1.391 . S
C554 C555 1.400 . S
C555 C549 1.491 . S
C555 C554 1.400 . S
C555 C556 1.398 . S
C556 H544 0.950 . S
C556 C555 1.398 . S
C556 C557 1.391 . S
C557 H545 0.950 . S
C557 C553 1.393 . S
C557 C556 1.391 . S
H558 C566 0.950 . S
H559 C571 0.950 . S
H560 C568 0.950 . S
H561 C570 0.950 . S
H562 C572 0.950 . S
H563 C574 0.950 . S
H564 C576 0.950 . S
H565 C577 0.950 . S
C566 H558 0.950 . S
C566 C567 1.386 . S
C566 C568 1.391 . S
C567 C566 1.386 . S
C567 C571 1.393 . S
C568 H560 0.950 . S
C568 C566 1.391 . S
C568 C569 1.400 . S
C569 C568 1.400 . S
C569 C570 1.398 . S
C569 C575 1.491 . S
C570 H561 0.950 . S
C570 C569 1.398 . S
C570 C571 1.391 . S
C571 H559 0.950 . S
C571 C567 1.393 . S
C571 C570 1.391 . S
C572 H562 0.950 . S
C572 C573 1.386 . S
C572 C574 1.391 . S
C573 C572 1.386 . S
C573 C577 1.393 . S
C574 H563 0.950 . S
C574 C572 1.391 . S
C574 C575 1.400 . S
C575 C569 1.491 . S
C575 C574 1.400 . S
C575 C576 1.398 . S
C576 H564 0.950 . S
C576 C575 1.398 . S
C576 C577 1.391 . S
C577 H565 0.950 . S
C577 C573 1.393 . S
C577 C576 1.391 . S
H578 C586 0.950 . S
H579 C591 0.950 . S
H580 C588 0.950 . S
H581 C590 0.950 . S
H582 C592 0.950 . S
H583 C594 0.950 . S
H584 C596 0.950 . S
H585 C597 0.950 . S
C586 H578 0.950 . S
C586 C587 1.386 . S
C586 C588 1.391 . S
C587 C586 1.386 . S
C587 C591 1.393 . S
C588 H580 0.950 . S
C588 C586 1.391 . S
C588 C589 1.400 . S
C589 C588 1.400 . S
C589 C590 1.398 . S
C589 C595 1.491 . S
C590 H581 0.950 . S
C590 C589 1.398 . S
C590 C591 1.391 . S
C591 H579 0.950 . S
C591 C587 1.393 . S
C591 C590 1.391 . S
C592 H582 0.950 . S
C592 C593 1.386 . S
C592 C594 1.391 . S
C593 C592 1.386 . S
C593 C597 1.393 . S
C594 H583 0.950 . S
C594 C592 1.391 . S
C594 C595 1.400 . S
C595 C589 1.491 . S
C595 C594 1.400 . S
C595 C596 1.398 . S
C596 H584 0.950 . S
C596 C595 1.398 . S
C596 C597 1.391 . S
C597 H585 0.950 . S
C597 C593 1.393 . S
C597 C596 1.391 . S
H598 C606 0.950 . S
H599 C611 0.950 . S
H600 C608 0.950 . S
H601 C610 0.950 . S
H602 C612 0.950 . S
H603 C614 0.950 . S
H604 C616 0.950 . S
H605 C617 0.950 . S
C606 H598 0.950 . S
C606 C607 1.386 . S
C606 C608 1.391 . S
C607 C606 1.386 . S
C607 C611 1.393 . S
C608 H600 0.950 . S
C608 C606 1.391 . S
C608 C609 1.400 . S
C609 C608 1.400 . S
C609 C610 1.398 . S
C609 C615 1.491 . S
C610 H601 0.950 . S
C610 C609 1.398 . S
C610 C611 1.391 . S
C611 H599 0.950 . S
C611 C607 1.393 . S
C611 C610 1.391 . S
C612 H602 0.950 . S
C612 C613 1.386 . S
C612 C614 1.391 . S
C613 C612 1.386 . S
C613 C617 1.393 . S
C614 H603 0.950 . S
C614 C612 1.391 . S
C614 C615 1.400 . S
C615 C609 1.491 . S
C615 C614 1.400 . S
C615 C616 1.398 . S
C616 H604 0.950 . S
C616 C615 1.398 . S
C616 C617 1.391 . S
C617 H605 0.950 . S
C617 C613 1.393 . S
C617 C616 1.391 . S
H618 C626 0.950 . S
H619 C631 0.950 . S
H620 C628 0.950 . S
H621 C630 0.950 . S
H622 C632 0.950 . S
H623 C634 0.950 . S
H624 C636 0.950 . S
H625 C637 0.950 . S
C626 H618 0.950 . S
C626 C627 1.386 . S
C626 C628 1.391 . S
C627 C626 1.386 . S
C627 C631 1.393 . S
C628 H620 0.950 . S
C628 C626 1.391 . S
C628 C629 1.400 . S
C629 C628 1.400 . S
C629 C630 1.398 . S
C629 C635 1.491 . S
C630 H621 0.950 . S
C630 C629 1.398 . S
C630 C631 1.391 . S
C631 H619 0.950 . S
C631 C627 1.393 . S
C631 C630 1.391 . S
C632 H622 0.950 . S
C632 C633 1.386 . S
C632 C634 1.391 . S
C633 C632 1.386 . S
C633 C637 1.393 . S
C634 H623 0.950 . S
C634 C632 1.391 . S
C634 C635 1.400 . S
C635 C629 1.491 . S
C635 C634 1.400 . S
C635 C636 1.398 . S
C636 H624 0.950 . S
C636 C635 1.398 . S
C636 C637 1.391 . S
C637 H625 0.950 . S
C637 C633 1.393 . S
C637 C636 1.391 . S
H638 C646 0.950 . S
H639 C651 0.950 . S
H640 C648 0.950 . S
H641 C650 0.950 . S
H642 C652 0.950 . S
H643 C654 0.950 . S
H644 C656 0.950 . S
H645 C657 0.950 . S
C646 H638 0.950 . S
C646 C647 1.386 . S
C646 C648 1.391 . S
C647 C646 1.386 . S
C647 C651 1.393 . S
C648 H640 0.950 . S
C648 C646 1.391 . S
C648 C649 1.400 . S
C649 C648 1.400 . S
C649 C650 1.398 . S
C649 C655 1.491 . S
C650 H641 0.950 . S
C650 C649 1.398 . S
C650 C651 1.391 . S
C651 H639 0.950 . S
C651 C647 1.393 . S
C651 C650 1.391 . S
C652 H642 0.950 . S
C652 C653 1.386 . S
C652 C654 1.391 . S
C653 C652 1.386 . S
C653 C657 1.393 . S
C654 H643 0.950 . S
C654 C652 1.391 . S
C654 C655 1.400 . S
C655 C649 1.491 . S
C655 C654 1.400 . S
C655 C656 1.398 . S
C656 H644 0.950 . S
C656 C655 1.398 . S
C656 C657 1.391 . S
C657 H645 0.950 . S
C657 C653 1.393 . S
C657 C656 1.391 . S
H658 C666 0.950 . S
H659 C671 0.950 . S
H660 C668 0.950 . S
H661 C670 0.950 . S
H662 C672 0.950 . S
H663 C674 0.950 . S
H664 C676 0.950 . S
H665 C677 0.950 . S
C666 H658 0.950 . S
C666 C667 1.386 . S
C666 C668 1.391 . S
C667 C666 1.386 . S
C667 C671 1.393 . S
C668 H660 0.950 . S
C668 C666 1.391 . S
C668 C669 1.400 . S
C669 C668 1.400 . S
C669 C670 1.398 . S
C669 C675 1.491 . S
C670 H661 0.950 . S
C670 C669 1.398 . S
C670 C671 1.391 . S
C671 H659 0.950 . S
C671 C667 1.393 . S
C671 C670 1.391 . S
C672 H662 0.950 . S
C672 C673 1.386 . S
C672 C674 1.391 . S
C673 C672 1.386 . S
C673 C677 1.393 . S
C674 H663 0.950 . S
C674 C672 1.391 . S
C674 C675 1.400 . S
C675 C669 1.491 . S
C675 C674 1.400 . S
C675 C676 1.398 . S
C676 H664 0.950 . S
C676 C675 1.398 . S
C676 C677 1.391 . S
C677 H665 0.950 . S
C677 C673 1.393 . S
C677 C676 1.391 . S
H678 C686 0.950 . S
H679 C691 0.950 . S
H680 C688 0.950 . S
H681 C690 0.950 . S
H682 C692 0.950 . S
H683 C694 0.950 . S
H684 C696 0.950 . S
H685 C697 0.950 . S
C686 H678 0.950 . S
C686 C687 1.386 . S
C686 C688 1.391 . S
C687 C686 1.386 . S
C687 C691 1.393 . S
C688 H680 0.950 . S
C688 C686 1.391 . S
C688 C689 1.400 . S
C689 C688 1.400 . S
C689 C690 1.398 . S
C689 C695 1.491 . S
C690 H681 0.950 . S
C690 C689 1.398 . S
C690 C691 1.391 . S
C691 H679 0.950 . S
C691 C687 1.393 . S
C691 C690 1.391 . S
C692 H682 0.950 . S
C692 C693 1.386 . S
C692 C694 1.391 . S
C693 C692 1.386 . S
C693 C697 1.393 . S
C694 H683 0.950 . S
C694 C692 1.391 . S
C694 C695 1.400 . S
C695 C689 1.491 . S
C695 C694 1.400 . S
C695 C696 1.398 . S
C696 H684 0.950 . S
C696 C695 1.398 . S
C696 C697 1.391 . S
C697 H685 0.950 . S
C697 C693 1.393 . S
C697 C696 1.391 . S
H698 C706 0.950 . S
H699 C711 0.950 . S
H700 C708 0.950 . S
H701 C710 0.950 . S
H702 C712 0.950 . S
H703 C714 0.950 . S
H704 C716 0.950 . S
H705 C717 0.950 . S
C706 H698 0.950 . S
C706 C707 1.386 . S
C706 C708 1.391 . S
C707 C706 1.386 . S
C707 C711 1.393 . S
C708 H700 0.950 . S
C708 C706 1.391 . S
C708 C709 1.400 . S
C709 C708 1.400 . S
C709 C710 1.398 . S
C709 C715 1.491 . S
C710 H701 0.950 . S
C710 C709 1.398 . S
C710 C711 1.391 . S
C711 H699 0.950 . S
C711 C707 1.393 . S
C711 C710 1.391 . S
C712 H702 0.950 . S
C712 C713 1.386 . S
C712 C714 1.391 . S
C713 C712 1.386 . S
C713 C717 1.393 . S
C714 H703 0.950 . S
C714 C712 1.391 . S
C714 C715 1.400 . S
C715 C709 1.491 . S
C715 C714 1.400 . S
C715 C716 1.398 . S
C716 H704 0.950 . S
C716 C715 1.398 . S
C716 C717 1.391 . S
C717 H705 0.950 . S
C717 C713 1.393 . S
C717 C716 1.391 . S
H718 C726 0.950 . S
H719 C731 0.950 . S
H720 C728 0.950 . S
H721 C730 0.950 . S
H722 C732 0.950 . S
H723 C734 0.950 . S
H724 C736 0.950 . S
H725 C737 0.950 . S
C726 H718 0.950 . S
C726 C727 1.386 . S
C726 C728 1.391 . S
C727 C726 1.386 . S
C727 C731 1.393 . S
C728 H720 0.950 . S
C728 C726 1.391 . S
C728 C729 1.400 . S
C729 C728 1.400 . S
C729 C730 1.398 . S
C729 C735 1.491 . S
C730 H721 0.950 . S
C730 C729 1.398 . S
C730 C731 1.391 . S
C731 H719 0.950 . S
C731 C727 1.393 . S
C731 C730 1.391 . S
C732 H722 0.950 . S
C732 C733 1.386 . S
C732 C734 1.391 . S
C733 C732 1.386 . S
C733 C737 1.393 . S
C734 H723 0.950 . S
C734 C732 1.391 . S
C734 C735 1.400 . S
C735 C729 1.491 . S
C735 C734 1.400 . S
C735 C736 1.398 . S
C736 H724 0.950 . S
C736 C735 1.398 . S
C736 C737 1.391 . S
C737 H725 0.950 . S
C737 C733 1.393 . S
C737 C736 1.391 . S
H738 C746 0.950 . S
H739 C751 0.950 . S
H740 C748 0.950 . S
H741 C750 0.950 . S
H742 C752 0.950 . S
H743 C754 0.950 . S
H744 C756 0.950 . S
H745 C757 0.950 . S
C746 H738 0.950 . S
C746 C747 1.386 . S
C746 C748 1.391 . S
C747 C746 1.386 . S
C747 C751 1.393 . S
C748 H740 0.950 . S
C748 C746 1.391 . S
C748 C749 1.400 . S
C749 C748 1.400 . S
C749 C750 1.398 . S
C749 C755 1.491 . S
C750 H741 0.950 . S
C750 C749 1.398 . S
C750 C751 1.391 . S
C751 H739 0.950 . S
C751 C747 1.393 . S
C751 C750 1.391 . S
C752 H742 0.950 . S
C752 C753 1.386 . S
C752 C754 1.391 . S
C753 C752 1.386 . S
C753 C757 1.393 . S
C754 H743 0.950 . S
C754 C752 1.391 . S
C754 C755 1.400 . S
C755 C749 1.491 . S
C755 C754 1.400 . S
C755 C756 1.398 . S
C756 H744 0.950 . S
C756 C755 1.398 . S
C756 C757 1.391 . S
C757 H745 0.950 . S
C757 C753 1.393 . S
C757 C756 1.391 . S
H758 C766 0.950 . S
H759 C771 0.950 . S
H760 C768 0.950 . S
H761 C770 0.950 . S
H762 C772 0.950 . S
H763 C774 0.950 . S
H764 C776 0.950 . S
H765 C777 0.950 . S
C766 H758 0.950 . S
C766 C767 1.386 . S
C766 C768 1.391 . S
C767 C766 1.386 . S
C767 C771 1.393 . S
C768 H760 0.950 . S
C768 C766 1.391 . S
C768 C769 1.400 . S
C769 C768 1.400 . S
C769 C770 1.398 . S
C769 C775 1.491 . S
C770 H761 0.950 . S
C770 C769 1.398 . S
C770 C771 1.391 . S
C771 H759 0.950 . S
C771 C767 1.393 . S
C771 C770 1.391 . S
C772 H762 0.950 . S
C772 C773 1.386 . S
C772 C774 1.391 . S
C773 C772 1.386 . S
C773 C777 1.393 . S
C774 H763 0.950 . S
C774 C772 1.391 . S
C774 C775 1.400 . S
C775 C769 1.491 . S
C775 C774 1.400 . S
C775 C776 1.398 . S
C776 H764 0.950 . S
C776 C775 1.398 . S
C776 C777 1.391 . S
C777 H765 0.950 . S
C777 C773 1.393 . S
C777 C776 1.391 . S
H778 C786 0.950 . S
H779 C791 0.950 . S
H780 C788 0.950 . S
H781 C790 0.950 . S
H782 C792 0.950 . S
H783 C794 0.950 . S
H784 C796 0.950 . S
H785 C797 0.950 1_554 S
C786 H778 0.950 . S
C786 C787 1.386 . S
C786 C788 1.391 . S
C787 C786 1.386 . S
C787 C791 1.393 . S
C788 H780 0.950 . S
C788 C786 1.391 . S
C788 C789 1.400 . S
C789 C788 1.400 . S
C789 C790 1.398 . S
C789 C795 1.491 . S
C790 H781 0.950 . S
C790 C789 1.398 . S
C790 C791 1.391 . S
C791 H779 0.950 . S
C791 C787 1.393 . S
C791 C790 1.391 . S
C792 H782 0.950 . S
C792 C793 1.386 . S
C792 C794 1.391 . S
C793 C792 1.386 . S
C793 C797 1.393 . S
C794 H783 0.950 . S
C794 C792 1.391 . S
C794 C795 1.400 . S
C795 C789 1.491 . S
C795 C794 1.400 . S
C795 C796 1.398 . S
C796 H784 0.950 . S
C796 C795 1.398 . S
C796 C797 1.391 . S
C797 H785 0.950 1_556 S
C797 C793 1.393 . S
C797 C796 1.391 . S
H798 C806 0.950 . S
H799 C811 0.950 . S
H800 C808 0.950 . S
H801 C810 0.950 . S
H802 C812 0.950 . S
H803 C814 0.950 . S
H804 C816 0.950 . S
H805 C817 0.950 . S
C806 H798 0.950 . S
C806 C807 1.386 . S
C806 C808 1.391 . S
C807 C806 1.386 . S
C807 C811 1.393 . S
C808 H800 0.950 . S
C808 C806 1.391 . S
C808 C809 1.400 . S
C809 C808 1.400 . S
C809 C810 1.398 . S
C809 C815 1.491 . S
C810 H801 0.950 . S
C810 C809 1.398 . S
C810 C811 1.391 . S
C811 H799 0.950 . S
C811 C807 1.393 . S
C811 C810 1.391 . S
C812 H802 0.950 . S
C812 C813 1.386 . S
C812 C814 1.391 . S
C813 C812 1.386 . S
C813 C817 1.393 . S
C814 H803 0.950 . S
C814 C812 1.391 . S
C814 C815 1.400 . S
C815 C809 1.491 . S
C815 C814 1.400 . S
C815 C816 1.398 . S
C816 H804 0.950 . S
C816 C815 1.398 . S
C816 C817 1.391 . S
C817 H805 0.950 . S
C817 C813 1.393 . S
C817 C816 1.391 . S
H818 C826 0.950 . S
H819 C831 0.950 . S
H820 C828 0.950 . S
H821 C830 0.950 . S
H822 C832 0.950 . S
H823 C834 0.950 . S
H824 C836 0.950 . S
H825 C837 0.950 . S
C826 H818 0.950 . S
C826 C827 1.386 . S
C826 C828 1.391 . S
C827 C826 1.386 . S
C827 C831 1.393 1_556 S
C828 H820 0.950 . S
C828 C826 1.391 . S
C828 C829 1.400 . S
C829 C828 1.400 . S
C829 C830 1.398 1_556 S
C829 C835 1.490 1_556 S
C830 H821 0.950 . S
C830 C829 1.398 1_554 S
C830 C831 1.391 . S
C831 H819 0.950 . S
C831 C827 1.393 1_554 S
C831 C830 1.391 . S
C832 H822 0.950 . S
C832 C833 1.386 . S
C832 C834 1.391 . S
C833 C832 1.386 . S
C833 C837 1.393 1_554 S
C834 H823 0.950 . S
C834 C832 1.391 . S
C834 C835 1.402 . S
C835 C829 1.490 1_554 S
C835 C834 1.402 . S
C835 C836 1.397 1_554 S
C836 H824 0.950 . S
C836 C835 1.397 1_556 S
C836 C837 1.391 . S
C837 H825 0.950 . S
C837 C833 1.393 1_556 S
C837 C836 1.391 . S
H838 C846 0.950 . S
H839 C851 0.950 . S
H840 C848 0.950 . S
H841 C850 0.950 . S
H842 C852 0.950 . S
H843 C854 0.950 . S
H844 C856 0.950 . S
H845 C857 0.950 . S
C846 H838 0.950 . S
C846 C847 1.386 . S
C846 C848 1.391 . S
C847 C846 1.386 . S
C847 C851 1.393 . S
C848 H840 0.950 . S
C848 C846 1.391 . S
C848 C849 1.400 . S
C849 C848 1.400 . S
C849 C850 1.398 . S
C849 C855 1.491 . S
C850 H841 0.950 . S
C850 C849 1.398 . S
C850 C851 1.391 . S
C851 H839 0.950 . S
C851 C847 1.393 . S
C851 C850 1.391 . S
C852 H842 0.950 . S
C852 C853 1.386 . S
C852 C854 1.391 . S
C853 C852 1.386 . S
C853 C857 1.393 . S
C854 H843 0.950 . S
C854 C852 1.391 . S
C854 C855 1.400 . S
C855 C849 1.491 . S
C855 C854 1.400 . S
C855 C856 1.398 . S
C856 H844 0.950 . S
C856 C855 1.398 . S
C856 C857 1.391 . S
C857 H845 0.950 . S
C857 C853 1.393 . S
C857 C856 1.391 . S
H858 C866 0.950 . S
H859 C871 0.950 . S
H860 C868 0.950 . S
H861 C870 0.950 . S
H862 C872 0.950 . S
H863 C874 0.950 . S
H864 C876 0.950 . S
H865 C877 0.950 . S
C866 H858 0.950 . S
C866 C867 1.386 . S
C866 C868 1.391 . S
C867 C866 1.386 . S
C867 C871 1.393 . S
C868 H860 0.950 . S
C868 C866 1.391 . S
C868 C869 1.400 . S
C869 C868 1.400 . S
C869 C870 1.398 . S
C869 C875 1.491 . S
C870 H861 0.950 . S
C870 C869 1.398 . S
C870 C871 1.391 . S
C871 H859 0.950 . S
C871 C867 1.393 . S
C871 C870 1.391 . S
C872 H862 0.950 . S
C872 C873 1.386 . S
C872 C874 1.391 . S
C873 C872 1.386 . S
C873 C877 1.393 . S
C874 H863 0.950 . S
C874 C872 1.391 . S
C874 C875 1.400 1_554 S
C875 C869 1.491 . S
C875 C874 1.400 1_556 S
C875 C876 1.398 . S
C876 H864 0.950 . S
C876 C875 1.398 . S
C876 C877 1.391 1_556 S
C877 H865 0.950 . S
C877 C873 1.393 . S
C877 C876 1.391 1_554 S
H878 C886 0.950 . S
H879 C891 0.950 . S
H880 C888 0.950 . S
H881 C890 0.950 . S
H882 C892 0.950 . S
H883 C894 0.950 . S
H884 C896 0.950 . S
H885 C897 0.950 . S
C886 H878 0.950 . S
C886 C887 1.386 . S
C886 C888 1.391 . S
C887 C886 1.386 . S
C887 C891 1.393 . S
C888 H880 0.950 . S
C888 C886 1.391 . S
C888 C889 1.400 . S
C889 C888 1.400 . S
C889 C890 1.398 . S
C889 C895 1.491 . S
C890 H881 0.950 . S
C890 C889 1.398 . S
C890 C891 1.391 . S
C891 H879 0.950 . S
C891 C887 1.393 . S
C891 C890 1.391 . S
C892 H882 0.950 . S
C892 C893 1.386 . S
C892 C894 1.391 . S
C893 C892 1.386 . S
C893 C897 1.393 . S
C894 H883 0.950 . S
C894 C892 1.391 . S
C894 C895 1.400 . S
C895 C889 1.491 . S
C895 C894 1.400 . S
C895 C896 1.398 . S
C896 H884 0.950 . S
C896 C895 1.398 . S
C896 C897 1.391 . S
C897 H885 0.950 . S
C897 C893 1.393 . S
C897 C896 1.391 . S
H898 C906 0.950 . S
H899 C911 0.950 . S
H900 C908 0.950 . S
H901 C910 0.950 . S
H902 C912 0.950 1_554 S
H903 C914 0.950 . S
H904 C916 0.950 . S
H905 C917 0.950 . S
C906 H898 0.950 . S
C906 C907 1.386 . S
C906 C908 1.391 . S
C907 C906 1.386 . S
C907 C911 1.393 . S
C908 H900 0.950 . S
C908 C906 1.391 . S
C908 C909 1.400 . S
C909 C908 1.400 . S
C909 C910 1.398 . S
C909 C915 1.491 . S
C910 H901 0.950 . S
C910 C909 1.398 . S
C910 C911 1.391 . S
C911 H899 0.950 . S
C911 C907 1.393 . S
C911 C910 1.391 . S
C912 H902 0.950 1_556 S
C912 C913 1.386 . S
C912 C914 1.391 . S
C913 C912 1.386 . S
C913 C917 1.393 . S
C914 H903 0.950 . S
C914 C912 1.391 . S
C914 C915 1.400 . S
C915 C909 1.491 . S
C915 C914 1.400 . S
C915 C916 1.398 . S
C916 H904 0.950 . S
C916 C915 1.398 . S
C916 C917 1.391 . S
C917 H905 0.950 . S
C917 C913 1.393 . S
C917 C916 1.391 . S
H918 C926 0.950 . S
H919 C931 0.950 . S
H920 C928 0.950 . S
H921 C930 0.950 . S
H922 C932 0.950 . S
H923 C934 0.950 . S
H924 C936 0.950 . S
H925 C937 0.950 . S
C926 H918 0.950 . S
C926 C927 1.386 . S
C926 C928 1.391 . S
C927 C926 1.386 . S
C927 C931 1.393 . S
C928 H920 0.950 . S
C928 C926 1.391 . S
C928 C929 1.400 . S
C929 C928 1.400 . S
C929 C930 1.398 . S
C929 C935 1.491 . S
C930 H921 0.950 . S
C930 C929 1.398 . S
C930 C931 1.391 . S
C931 H919 0.950 . S
C931 C927 1.393 . S
C931 C930 1.391 . S
C932 H922 0.950 . S
C932 C933 1.386 . S
C932 C934 1.391 . S
C933 C932 1.386 . S
C933 C937 1.393 . S
C934 H923 0.950 . S
C934 C932 1.391 . S
C934 C935 1.400 . S
C935 C929 1.491 . S
C935 C934 1.400 . S
C935 C936 1.398 . S
C936 H924 0.950 . S
C936 C935 1.398 . S
C936 C937 1.391 . S
C937 H925 0.950 . S
C937 C933 1.393 . S
C937 C936 1.391 . S
H938 C946 0.950 . S
H939 C951 0.950 . S
H940 C948 0.950 . S
H941 C950 0.950 . S
H942 C952 0.950 . S
H943 C954 0.950 . S
H944 C956 0.950 . S
H945 C957 0.950 . S
C946 H938 0.950 . S
C946 C947 1.386 . S
C946 C948 1.391 . S
C947 C946 1.386 . S
C947 C951 1.393 . S
C948 H940 0.950 . S
C948 C946 1.391 . S
C948 C949 1.400 . S
C949 C948 1.400 . S
C949 C950 1.398 . S
C949 C955 1.491 . S
C950 H941 0.950 . S
C950 C949 1.398 . S
C950 C951 1.391 . S
C951 H939 0.950 . S
C951 C947 1.393 . S
C951 C950 1.391 . S
C952 H942 0.950 . S
C952 C953 1.386 . S
C952 C954 1.391 . S
C953 C952 1.386 . S
C953 C957 1.393 . S
C954 H943 0.950 . S
C954 C952 1.391 . S
C954 C955 1.400 . S
C955 C949 1.491 . S
C955 C954 1.400 . S
C955 C956 1.398 . S
C956 H944 0.950 . S
C956 C955 1.398 . S
C956 C957 1.391 . S
C957 H945 0.950 . S
C957 C953 1.393 . S
C957 C956 1.391 . S
H958 C966 0.950 . S
H959 C971 0.950 . S
H960 C968 0.950 . S
H961 C970 0.950 . S
H962 C972 0.950 . S
H963 C974 0.950 . S
H964 C976 0.950 . S
H965 C977 0.950 . S
C966 H958 0.950 . S
C966 C967 1.386 . S
C966 C968 1.391 . S
C967 C966 1.386 . S
C967 C971 1.393 . S
C968 H960 0.950 . S
C968 C966 1.391 . S
C968 C969 1.400 . S
C969 C968 1.400 . S
C969 C970 1.398 . S
C969 C975 1.491 . S
C970 H961 0.950 . S
C970 C969 1.398 . S
C970 C971 1.391 . S
C971 H959 0.950 . S
C971 C967 1.393 . S
C971 C970 1.391 . S
C972 H962 0.950 . S
C972 C973 1.386 . S
C972 C974 1.391 . S
C973 C972 1.386 . S
C973 C977 1.393 . S
C974 H963 0.950 . S
C974 C972 1.391 . S
C974 C975 1.400 . S
C975 C969 1.491 . S
C975 C974 1.400 . S
C975 C976 1.398 . S
C976 H964 0.950 . S
C976 C975 1.398 . S
C976 C977 1.391 . S
C977 H965 0.950 . S
C977 C973 1.393 . S
C977 C976 1.391 . S
H978 C986 0.950 . S
H979 C991 0.950 . S
H980 C988 0.950 . S
H981 C990 0.950 . S
H982 C992 0.950 . S
H983 C994 0.950 . S
H984 C996 0.950 . S
H985 C997 0.950 . S
C986 H978 0.950 . S
C986 C987 1.386 . S
C986 C988 1.391 . S
C987 C986 1.386 . S
C987 C991 1.393 . S
C988 H980 0.950 . S
C988 C986 1.391 . S
C988 C989 1.400 . S
C989 C988 1.400 . S
C989 C990 1.398 . S
C989 C995 1.491 . S
C990 H981 0.950 . S
C990 C989 1.398 . S
C990 C991 1.391 . S
C991 H979 0.950 . S
C991 C987 1.393 . S
C991 C990 1.391 . S
C992 H982 0.950 . S
C992 C993 1.386 . S
C992 C994 1.391 . S
C993 C992 1.386 . S
C993 C997 1.393 . S
C994 H983 0.950 . S
C994 C992 1.391 . S
C994 C995 1.400 . S
C995 C989 1.491 . S
C995 C994 1.400 . S
C995 C996 1.398 . S
C996 H984 0.950 . S
C996 C995 1.398 . S
C996 C997 1.391 . S
C997 H985 0.950 . S
C997 C993 1.393 . S
C997 C996 1.391 . S
H998 C1006 0.950 . S
H999 C1011 0.950 . S
H1000 C1008 0.950 . S
H1001 C1010 0.950 . S
H1002 C1012 0.950 . S
H1003 C1014 0.950 . S
H1004 C1016 0.950 . S
H1005 C1017 0.950 . S
C1006 H998 0.950 . S
C1006 C1007 1.386 . S
C1006 C1008 1.391 . S
C1007 C1006 1.386 . S
C1007 C1011 1.393 . S
C1008 H1000 0.950 . S
C1008 C1006 1.391 . S
C1008 C1009 1.400 . S
C1009 C1008 1.400 . S
C1009 C1010 1.398 . S
C1009 C1015 1.491 . S
C1010 H1001 0.950 . S
C1010 C1009 1.398 . S
C1010 C1011 1.391 . S
C1011 H999 0.950 . S
C1011 C1007 1.393 . S
C1011 C1010 1.391 . S
C1012 H1002 0.950 . S
C1012 C1013 1.386 . S
C1012 C1014 1.391 . S
C1013 C1012 1.386 . S
C1013 C1017 1.393 . S
C1014 H1003 0.950 . S
C1014 C1012 1.391 . S
C1014 C1015 1.400 . S
C1015 C1009 1.491 . S
C1015 C1014 1.400 . S
C1015 C1016 1.398 . S
C1016 H1004 0.950 . S
C1016 C1015 1.398 . S
C1016 C1017 1.391 . S
C1017 H1005 0.950 . S
C1017 C1013 1.393 . S
C1017 C1016 1.391 . S
H1018 C1026 0.950 . S
H1019 C1031 0.950 . S
H1020 C1028 0.950 . S
H1021 C1030 0.950 . S
H1022 C1032 0.950 . S
H1023 C1034 0.950 . S
H1024 C1036 0.950 . S
H1025 C1037 0.950 . S
C1026 H1018 0.950 . S
C1026 C1027 1.386 . S
C1026 C1028 1.391 . S
C1027 C1026 1.386 . S
C1027 C1031 1.393 . S
C1028 H1020 0.950 . S
C1028 C1026 1.391 . S
C1028 C1029 1.400 . S
C1029 C1028 1.400 . S
C1029 C1030 1.398 . S
C1029 C1035 1.491 . S
C1030 H1021 0.950 . S
C1030 C1029 1.398 . S
C1030 C1031 1.391 . S
C1031 H1019 0.950 . S
C1031 C1027 1.393 . S
C1031 C1030 1.391 . S
C1032 H1022 0.950 . S
C1032 C1033 1.386 . S
C1032 C1034 1.391 . S
C1033 C1032 1.386 . S
C1033 C1037 1.393 . S
C1034 H1023 0.950 . S
C1034 C1032 1.391 . S
C1034 C1035 1.400 . S
C1035 C1029 1.491 . S
C1035 C1034 1.400 . S
C1035 C1036 1.398 . S
C1036 H1024 0.950 . S
C1036 C1035 1.398 . S
C1036 C1037 1.391 . S
C1037 H1025 0.950 . S
C1037 C1033 1.393 . S
C1037 C1036 1.391 . S
H1038 C1046 0.950 . S
H1039 C1051 0.950 . S
H1040 C1048 0.950 . S
H1041 C1050 0.950 . S
H1042 C1052 0.950 . S
H1043 C1054 0.950 . S
H1044 C1056 0.950 . S
H1045 C1057 0.950 . S
C1046 H1038 0.950 . S
C1046 C1047 1.386 . S
C1046 C1048 1.391 . S
C1047 C1046 1.386 . S
C1047 C1051 1.393 . S
C1048 H1040 0.950 . S
C1048 C1046 1.391 . S
C1048 C1049 1.400 . S
C1049 C1048 1.400 . S
C1049 C1050 1.398 . S
C1049 C1055 1.491 . S
C1050 H1041 0.950 . S
C1050 C1049 1.398 . S
C1050 C1051 1.391 . S
C1051 H1039 0.950 . S
C1051 C1047 1.393 . S
C1051 C1050 1.391 . S
C1052 H1042 0.950 . S
C1052 C1053 1.386 . S
C1052 C1054 1.391 . S
C1053 C1052 1.386 . S
C1053 C1057 1.393 . S
C1054 H1043 0.950 . S
C1054 C1052 1.391 . S
C1054 C1055 1.400 . S
C1055 C1049 1.491 . S
C1055 C1054 1.400 . S
C1055 C1056 1.398 . S
C1056 H1044 0.950 . S
C1056 C1055 1.398 . S
C1056 C1057 1.391 . S
C1057 H1045 0.950 . S
C1057 C1053 1.393 . S
C1057 C1056 1.391 . S
H1058 C1066 0.950 . S
H1059 C1071 0.950 . S
H1060 C1068 0.950 . S
H1061 C1070 0.950 . S
H1062 C1072 0.950 1_554 S
H1063 C1074 0.950 . S
H1064 C1076 0.950 . S
H1065 C1077 0.950 . S
C1066 H1058 0.950 . S
C1066 C1067 1.386 . S
C1066 C1068 1.391 . S
C1067 C1066 1.386 . S
C1067 C1071 1.393 . S
C1068 H1060 0.950 . S
C1068 C1066 1.391 . S
C1068 C1069 1.400 . S
C1069 C1068 1.400 . S
C1069 C1070 1.398 . S
C1069 C1075 1.491 . S
C1070 H1061 0.950 . S
C1070 C1069 1.398 . S
C1070 C1071 1.391 . S
C1071 H1059 0.950 . S
C1071 C1067 1.393 . S
C1071 C1070 1.391 . S
C1072 H1062 0.950 1_556 S
C1072 C1073 1.386 . S
C1072 C1074 1.391 . S
C1073 C1072 1.386 . S
C1073 C1077 1.393 . S
C1074 H1063 0.950 . S
C1074 C1072 1.391 . S
C1074 C1075 1.400 . S
C1075 C1069 1.491 . S
C1075 C1074 1.400 . S
C1075 C1076 1.398 . S
C1076 H1064 0.950 . S
C1076 C1075 1.398 . S
C1076 C1077 1.391 . S
C1077 H1065 0.950 . S
C1077 C1073 1.393 . S
C1077 C1076 1.391 . S
H1078 C1086 0.950 . S
H1079 C1091 0.950 . S
H1080 C1088 0.950 . S
H1081 C1090 0.950 . S
H1082 C1092 0.950 . S
H1083 C1094 0.950 . S
H1084 C1096 0.950 . S
H1085 C1097 0.950 . S
C1086 H1078 0.950 . S
C1086 C1087 1.386 . S
C1086 C1088 1.391 . S
C1087 C1086 1.386 . S
C1087 C1091 1.393 . S
C1088 H1080 0.950 . S
C1088 C1086 1.391 . S
C1088 C1089 1.400 . S
C1089 C1088 1.400 . S
C1089 C1090 1.398 . S
C1089 C1095 1.491 . S
C1090 H1081 0.950 . S
C1090 C1089 1.398 . S
C1090 C1091 1.391 . S
C1091 H1079 0.950 . S
C1091 C1087 1.393 . S
C1091 C1090 1.391 . S
C1092 H1082 0.950 . S
C1092 C1093 1.386 . S
C1092 C1094 1.391 . S
C1093 C1092 1.386 . S
C1093 C1097 1.393 . S
C1094 H1083 0.950 . S
C1094 C1092 1.391 . S
C1094 C1095 1.400 . S
C1095 C1089 1.491 . S
C1095 C1094 1.400 . S
C1095 C1096 1.398 . S
C1096 H1084 0.950 . S
C1096 C1095 1.398 . S
C1096 C1097 1.391 . S
C1097 H1085 0.950 . S
C1097 C1093 1.393 . S
C1097 C1096 1.391 . S
H1098 C1106 0.950 . S
H1099 C1111 0.950 . S
H1100 C1108 0.950 . S
H1101 C1110 0.950 . S
H1102 C1112 0.950 . S
H1103 C1114 0.950 . S
H1104 C1116 0.950 . S
H1105 C1117 0.950 . S
C1106 H1098 0.950 . S
C1106 C1107 1.386 . S
C1106 C1108 1.391 . S
C1107 C1106 1.386 . S
C1107 C1111 1.393 . S
C1108 H1100 0.950 . S
C1108 C1106 1.391 . S
C1108 C1109 1.400 . S
C1109 C1108 1.400 . S
C1109 C1110 1.398 . S
C1109 C1115 1.491 . S
C1110 H1101 0.950 . S
C1110 C1109 1.398 . S
C1110 C1111 1.391 . S
C1111 H1099 0.950 . S
C1111 C1107 1.393 . S
C1111 C1110 1.391 . S
C1112 H1102 0.950 . S
C1112 C1113 1.386 . S
C1112 C1114 1.391 . S
C1113 C1112 1.386 . S
C1113 C1117 1.393 . S
C1114 H1103 0.950 . S
C1114 C1112 1.391 . S
C1114 C1115 1.400 . S
C1115 C1109 1.491 . S
C1115 C1114 1.400 . S
C1115 C1116 1.398 . S
C1116 H1104 0.950 . S
C1116 C1115 1.398 . S
C1116 C1117 1.391 . S
C1117 H1105 0.950 . S
C1117 C1113 1.393 . S
C1117 C1116 1.391 . S
H1118 C1126 0.950 . S
H1119 C1131 0.950 . S
H1120 C1128 0.950 . S
H1121 C1130 0.950 . S
H1122 C1132 0.950 . S
H1123 C1134 0.950 . S
H1124 C1136 0.950 . S
H1125 C1137 0.950 . S
C1126 H1118 0.950 . S
C1126 C1127 1.386 . S
C1126 C1128 1.391 . S
C1127 C1126 1.386 . S
C1127 C1131 1.393 . S
C1128 H1120 0.950 . S
C1128 C1126 1.391 . S
C1128 C1129 1.400 . S
C1129 C1128 1.400 . S
C1129 C1130 1.398 . S
C1129 C1135 1.491 . S
C1130 H1121 0.950 . S
C1130 C1129 1.398 . S
C1130 C1131 1.391 . S
C1131 H1119 0.950 . S
C1131 C1127 1.393 . S
C1131 C1130 1.391 . S
C1132 H1122 0.950 . S
C1132 C1133 1.386 . S
C1132 C1134 1.391 . S
C1133 C1132 1.386 . S
C1133 C1137 1.393 . S
C1134 H1123 0.950 . S
C1134 C1132 1.391 . S
C1134 C1135 1.400 . S
C1135 C1129 1.491 . S
C1135 C1134 1.400 . S
C1135 C1136 1.398 . S
C1136 H1124 0.950 . S
C1136 C1135 1.398 . S
C1136 C1137 1.391 . S
C1137 H1125 0.950 . S
C1137 C1133 1.393 . S
C1137 C1136 1.391 . S
H1138 C1146 0.950 . S
H1139 C1151 0.950 . S
H1140 C1148 0.950 . S
H1141 C1150 0.950 . S
H1142 C1152 0.950 . S
H1143 C1154 0.950 . S
H1144 C1156 0.950 . S
H1145 C1157 0.950 . S
C1146 H1138 0.950 . S
C1146 C1147 1.386 . S
C1146 C1148 1.391 . S
C1147 C1146 1.386 . S
C1147 C1151 1.393 . S
C1148 H1140 0.950 . S
C1148 C1146 1.391 . S
C1148 C1149 1.400 . S
C1149 C1148 1.400 . S
C1149 C1150 1.398 . S
C1149 C1155 1.491 . S
C1150 H1141 0.950 . S
C1150 C1149 1.398 . S
C1150 C1151 1.391 . S
C1151 H1139 0.950 . S
C1151 C1147 1.393 . S
C1151 C1150 1.391 . S
C1152 H1142 0.950 . S
C1152 C1153 1.386 . S
C1152 C1154 1.391 . S
C1153 C1152 1.386 . S
C1153 C1157 1.393 . S
C1154 H1143 0.950 . S
C1154 C1152 1.391 . S
C1154 C1155 1.400 . S
C1155 C1149 1.491 . S
C1155 C1154 1.400 . S
C1155 C1156 1.398 . S
C1156 H1144 0.950 . S
C1156 C1155 1.398 . S
C1156 C1157 1.391 . S
C1157 H1145 0.950 . S
C1157 C1153 1.393 . S
C1157 C1156 1.391 . S
H1158 C1166 0.950 . S
H1159 C1171 0.950 . S
H1160 C1168 0.950 . S
H1161 C1170 0.950 . S
H1162 C1172 0.950 . S
H1163 C1174 0.950 . S
H1164 C1176 0.950 . S
H1165 C1177 0.950 . S
C1166 H1158 0.950 . S
C1166 C1167 1.386 . S
C1166 C1168 1.391 . S
C1167 C1166 1.386 . S
C1167 C1171 1.393 . S
C1168 H1160 0.950 . S
C1168 C1166 1.391 . S
C1168 C1169 1.400 . S
C1169 C1168 1.400 . S
C1169 C1170 1.398 . S
C1169 C1175 1.491 . S
C1170 H1161 0.950 . S
C1170 C1169 1.398 . S
C1170 C1171 1.391 . S
C1171 H1159 0.950 . S
C1171 C1167 1.393 . S
C1171 C1170 1.391 . S
C1172 H1162 0.950 . S
C1172 C1173 1.386 . S
C1172 C1174 1.391 . S
C1173 C1172 1.386 . S
C1173 C1177 1.393 . S
C1174 H1163 0.950 . S
C1174 C1172 1.391 . S
C1174 C1175 1.400 . S
C1175 C1169 1.491 . S
C1175 C1174 1.400 . S
C1175 C1176 1.398 . S
C1176 H1164 0.950 . S
C1176 C1175 1.398 . S
C1176 C1177 1.391 . S
C1177 H1165 0.950 . S
C1177 C1173 1.393 . S
C1177 C1176 1.391 . S
H1178 C1186 0.950 . S
H1179 C1191 0.950 . S
H1180 C1188 0.950 . S
H1181 C1190 0.950 . S
H1182 C1192 0.950 . S
H1183 C1194 0.950 . S
H1184 C1196 0.950 . S
H1185 C1197 0.950 . S
C1186 H1178 0.950 . S
C1186 C1187 1.386 . S
C1186 C1188 1.391 . S
C1187 C1186 1.386 . S
C1187 C1191 1.393 . S
C1188 H1180 0.950 . S
C1188 C1186 1.391 . S
C1188 C1189 1.400 . S
C1189 C1188 1.400 . S
C1189 C1190 1.398 . S
C1189 C1195 1.491 . S
C1190 H1181 0.950 . S
C1190 C1189 1.398 . S
C1190 C1191 1.391 . S
C1191 H1179 0.950 . S
C1191 C1187 1.393 . S
C1191 C1190 1.391 . S
C1192 H1182 0.950 . S
C1192 C1193 1.386 . S
C1192 C1194 1.391 . S
C1193 C1192 1.386 . S
C1193 C1197 1.393 . S
C1194 H1183 0.950 . S
C1194 C1192 1.391 . S
C1194 C1195 1.400 . S
C1195 C1189 1.491 . S
C1195 C1194 1.400 . S
C1195 C1196 1.398 . S
C1196 H1184 0.950 . S
C1196 C1195 1.398 . S
C1196 C1197 1.391 . S
C1197 H1185 0.950 . S
C1197 C1193 1.393 . S
C1197 C1196 1.391 . S
H1198 C1206 0.950 . S
H1199 C1211 0.950 . S
H1200 C1208 0.950 . S
H1201 C1210 0.950 . S
H1202 C1212 0.950 . S
H1203 C1214 0.950 . S
H1204 C1216 0.950 . S
H1205 C1217 0.950 . S
C1206 H1198 0.950 . S
C1206 C1207 1.386 . S
C1206 C1208 1.391 . S
C1207 C1206 1.386 . S
C1207 C1211 1.393 . S
C1208 H1200 0.950 . S
C1208 C1206 1.391 . S
C1208 C1209 1.400 . S
C1209 C1208 1.400 . S
C1209 C1210 1.398 . S
C1209 C1215 1.491 . S
C1210 H1201 0.950 . S
C1210 C1209 1.398 . S
C1210 C1211 1.391 . S
C1211 H1199 0.950 . S
C1211 C1207 1.393 . S
C1211 C1210 1.391 . S
C1212 H1202 0.950 . S
C1212 C1213 1.386 . S
C1212 C1214 1.391 . S
C1213 C1212 1.386 . S
C1213 C1217 1.393 . S
C1214 H1203 0.950 . S
C1214 C1212 1.391 . S
C1214 C1215 1.400 . S
C1215 C1209 1.491 . S
C1215 C1214 1.400 . S
C1215 C1216 1.398 . S
C1216 H1204 0.950 . S
C1216 C1215 1.398 . S
C1216 C1217 1.391 . S
C1217 H1205 0.950 . S
C1217 C1213 1.393 . S
C1217 C1216 1.391 . S
H1218 C1226 0.950 . S
H1219 C1231 0.950 . S
H1220 C1228 0.950 . S
H1221 C1230 0.950 . S
H1222 C1232 0.950 . S
H1223 C1234 0.950 . S
H1224 C1236 0.950 . S
H1225 C1237 0.950 . S
C1226 H1218 0.950 . S
C1226 C1227 1.386 . S
C1226 C1228 1.391 . S
C1227 C1226 1.386 . S
C1227 C1231 1.393 . S
C1228 H1220 0.950 . S
C1228 C1226 1.391 . S
C1228 C1229 1.400 . S
C1229 C1228 1.400 . S
C1229 C1230 1.398 . S
C1229 C1235 1.491 . S
C1230 H1221 0.950 . S
C1230 C1229 1.398 . S
C1230 C1231 1.391 . S
C1231 H1219 0.950 . S
C1231 C1227 1.393 . S
C1231 C1230 1.391 . S
C1232 H1222 0.950 . S
C1232 C1233 1.386 . S
C1232 C1234 1.391 . S
C1233 C1232 1.386 . S
C1233 C1237 1.393 . S
C1234 H1223 0.950 . S
C1234 C1232 1.391 . S
C1234 C1235 1.400 . S
C1235 C1229 1.491 . S
C1235 C1234 1.400 . S
C1235 C1236 1.398 . S
C1236 H1224 0.950 . S
C1236 C1235 1.398 . S
C1236 C1237 1.391 . S
C1237 H1225 0.950 . S
C1237 C1233 1.393 . S
C1237 C1236 1.391 . S
H1238 C1246 0.950 . S
H1239 C1251 0.950 . S
H1240 C1248 0.950 . S
H1241 C1250 0.950 . S
H1242 C1252 0.950 . S
H1243 C1254 0.950 . S
H1244 C1256 0.950 . S
H1245 C1257 0.950 . S
C1246 H1238 0.950 . S
C1246 C1247 1.386 . S
C1246 C1248 1.391 . S
C1247 C1246 1.386 . S
C1247 C1251 1.393 . S
C1248 H1240 0.950 . S
C1248 C1246 1.391 . S
C1248 C1249 1.400 . S
C1249 C1248 1.400 . S
C1249 C1250 1.398 . S
C1249 C1255 1.491 . S
C1250 H1241 0.950 . S
C1250 C1249 1.398 . S
C1250 C1251 1.391 . S
C1251 H1239 0.950 . S
C1251 C1247 1.393 . S
C1251 C1250 1.391 . S
C1252 H1242 0.950 . S
C1252 C1253 1.386 . S
C1252 C1254 1.391 . S
C1253 C1252 1.386 . S
C1253 C1257 1.393 . S
C1254 H1243 0.950 . S
C1254 C1252 1.391 . S
C1254 C1255 1.400 . S
C1255 C1249 1.491 . S
C1255 C1254 1.400 . S
C1255 C1256 1.398 . S
C1256 H1244 0.950 . S
C1256 C1255 1.398 . S
C1256 C1257 1.391 . S
C1257 H1245 0.950 . S
C1257 C1253 1.393 . S
C1257 C1256 1.391 . S
H1258 C1266 0.950 . S
H1259 C1271 0.950 . S
H1260 C1268 0.950 . S
H1261 C1270 0.950 . S
H1262 C1272 0.950 . S
H1263 C1274 0.950 . S
H1264 C1276 0.950 . S
H1265 C1277 0.950 . S
C1266 H1258 0.950 . S
C1266 C1267 1.386 . S
C1266 C1268 1.391 . S
C1267 C1266 1.386 . S
C1267 C1271 1.393 . S
C1268 H1260 0.950 . S
C1268 C1266 1.391 . S
C1268 C1269 1.400 . S
C1269 C1268 1.400 . S
C1269 C1270 1.398 . S
C1269 C1275 1.491 . S
C1270 H1261 0.950 . S
C1270 C1269 1.398 . S
C1270 C1271 1.391 . S
C1271 H1259 0.950 . S
C1271 C1267 1.393 . S
C1271 C1270 1.391 . S
C1272 H1262 0.950 . S
C1272 C1273 1.386 . S
C1272 C1274 1.391 . S
C1273 C1272 1.386 . S
C1273 C1277 1.393 . S
C1274 H1263 0.950 . S
C1274 C1272 1.391 . S
C1274 C1275 1.400 . S
C1275 C1269 1.491 . S
C1275 C1274 1.400 . S
C1275 C1276 1.398 . S
C1276 H1264 0.950 . S
C1276 C1275 1.398 . S
C1276 C1277 1.391 . S
C1277 H1265 0.950 . S
C1277 C1273 1.393 . S
C1277 C1276 1.391 . S
H1278 C1286 0.950 . S
H1279 C1291 0.950 . S
H1280 C1288 0.950 . S
H1281 C1290 0.950 . S
H1282 C1292 0.950 . S
H1283 C1294 0.950 . S
H1284 C1296 0.950 . S
H1285 C1297 0.950 . S
C1286 H1278 0.950 . S
C1286 C1287 1.386 . S
C1286 C1288 1.391 . S
C1287 C1286 1.386 . S
C1287 C1291 1.393 . S
C1288 H1280 0.950 . S
C1288 C1286 1.391 . S
C1288 C1289 1.400 . S
C1289 C1288 1.400 . S
C1289 C1290 1.398 . S
C1289 C1295 1.491 . S
C1290 H1281 0.950 . S
C1290 C1289 1.398 . S
C1290 C1291 1.391 . S
C1291 H1279 0.950 . S
C1291 C1287 1.393 . S
C1291 C1290 1.391 . S
C1292 H1282 0.950 . S
C1292 C1293 1.386 . S
C1292 C1294 1.391 . S
C1293 C1292 1.386 . S
C1293 C1297 1.393 . S
C1294 H1283 0.950 . S
C1294 C1292 1.391 . S
C1294 C1295 1.400 . S
C1295 C1289 1.491 . S
C1295 C1294 1.400 . S
C1295 C1296 1.398 . S
C1296 H1284 0.950 . S
C1296 C1295 1.398 . S
C1296 C1297 1.391 . S
C1297 H1285 0.950 . S
C1297 C1293 1.393 . S
C1297 C1296 1.391 . S
H1298 C1306 0.950 . S
H1299 C1311 0.950 . S
H1300 C1308 0.950 . S
H1301 C1310 0.950 . S
H1302 C1312 0.950 . S
H1303 C1314 0.950 . S
H1304 C1316 0.950 . S
H1305 C1317 0.950 . S
C1306 H1298 0.950 . S
C1306 C1307 1.386 . S
C1306 C1308 1.391 . S
C1307 C1306 1.386 . S
C1307 C1311 1.393 . S
C1308 H1300 0.950 . S
C1308 C1306 1.391 . S
C1308 C1309 1.400 . S
C1309 C1308 1.400 . S
C1309 C1310 1.398 . S
C1309 C1315 1.491 . S
C1310 H1301 0.950 . S
C1310 C1309 1.398 . S
C1310 C1311 1.391 . S
C1311 H1299 0.950 . S
C1311 C1307 1.393 . S
C1311 C1310 1.391 . S
C1312 H1302 0.950 . S
C1312 C1313 1.386 . S
C1312 C1314 1.391 . S
C1313 C1312 1.386 . S
C1313 C1317 1.393 . S
C1314 H1303 0.950 . S
C1314 C1312 1.391 . S
C1314 C1315 1.400 . S
C1315 C1309 1.491 . S
C1315 C1314 1.400 . S
C1315 C1316 1.398 . S
C1316 H1304 0.950 . S
C1316 C1315 1.398 . S
C1316 C1317 1.391 . S
C1317 H1305 0.950 . S
C1317 C1313 1.393 . S
C1317 C1316 1.391 . S
H1318 C1326 0.950 . S
H1319 C1331 0.950 . S
H1320 C1328 0.950 . S
H1321 C1330 0.950 . S
H1322 C1332 0.950 . S
H1323 C1334 0.950 . S
H1324 C1336 0.950 . S
H1325 C1337 0.950 . S
C1326 H1318 0.950 . S
C1326 C1327 1.386 . S
C1326 C1328 1.391 . S
C1327 C1326 1.386 . S
C1327 C1331 1.393 . S
C1328 H1320 0.950 . S
C1328 C1326 1.391 . S
C1328 C1329 1.400 . S
C1329 C1328 1.400 . S
C1329 C1330 1.398 . S
C1329 C1335 1.491 . S
C1330 H1321 0.950 . S
C1330 C1329 1.398 . S
C1330 C1331 1.391 . S
C1331 H1319 0.950 . S
C1331 C1327 1.393 . S
C1331 C1330 1.391 . S
C1332 H1322 0.950 . S
C1332 C1333 1.386 . S
C1332 C1334 1.391 . S
C1333 C1332 1.386 . S
C1333 C1337 1.393 . S
C1334 H1323 0.950 . S
C1334 C1332 1.391 . S
C1334 C1335 1.400 . S
C1335 C1329 1.491 . S
C1335 C1334 1.400 . S
C1335 C1336 1.398 . S
C1336 H1324 0.950 . S
C1336 C1335 1.398 . S
C1336 C1337 1.391 . S
C1337 H1325 0.950 . S
C1337 C1333 1.393 . S
C1337 C1336 1.391 . S
H1338 C1346 0.950 . S
H1339 C1351 0.950 . S
H1340 C1348 0.950 . S
H1341 C1350 0.950 . S
H1342 C1352 0.950 . S
H1343 C1354 0.950 . S
H1344 C1356 0.950 . S
H1345 C1357 0.950 . S
C1346 H1338 0.950 . S
C1346 C1347 1.386 . S
C1346 C1348 1.391 . S
C1347 C1346 1.386 . S
C1347 C1351 1.393 . S
C1348 H1340 0.950 . S
C1348 C1346 1.391 . S
C1348 C1349 1.400 . S
C1349 C1348 1.400 . S
C1349 C1350 1.398 . S
C1349 C1355 1.491 . S
C1350 H1341 0.950 . S
C1350 C1349 1.398 . S
C1350 C1351 1.391 . S
C1351 H1339 0.950 . S
C1351 C1347 1.393 . S
C1351 C1350 1.391 . S
C1352 H1342 0.950 . S
C1352 C1353 1.386 . S
C1352 C1354 1.391 . S
C1353 C1352 1.386 . S
C1353 C1357 1.393 . S
C1354 H1343 0.950 . S
C1354 C1352 1.391 . S
C1354 C1355 1.400 . S
C1355 C1349 1.491 . S
C1355 C1354 1.400 . S
C1355 C1356 1.398 . S
C1356 H1344 0.950 . S
C1356 C1355 1.398 . S
C1356 C1357 1.391 . S
C1357 H1345 0.950 . S
C1357 C1353 1.393 . S
C1357 C1356 1.391 . S
H1358 C1366 0.950 . S
H1359 C1371 0.950 . S
H1360 C1368 0.950 . S
H1361 C1370 0.950 . S
H1362 C1372 0.950 . S
H1363 C1374 0.950 . S
H1364 C1376 0.950 . S
H1365 C1377 0.950 . S
C1366 H1358 0.950 . S
C1366 C1367 1.386 . S
C1366 C1368 1.391 . S
C1367 C1366 1.386 . S
C1367 C1371 1.393 . S
C1368 H1360 0.950 . S
C1368 C1366 1.391 . S
C1368 C1369 1.400 . S
C1369 C1368 1.400 . S
C1369 C1370 1.398 . S
C1369 C1375 1.491 . S
C1370 H1361 0.950 . S
C1370 C1369 1.398 . S
C1370 C1371 1.391 . S
C1371 H1359 0.950 . S
C1371 C1367 1.393 . S
C1371 C1370 1.391 . S
C1372 H1362 0.950 . S
C1372 C1373 1.386 . S
C1372 C1374 1.391 . S
C1373 C1372 1.386 . S
C1373 C1377 1.393 . S
C1374 H1363 0.950 . S
C1374 C1372 1.391 . S
C1374 C1375 1.400 . S
C1375 C1369 1.491 . S
C1375 C1374 1.400 . S
C1375 C1376 1.398 . S
C1376 H1364 0.950 . S
C1376 C1375 1.398 . S
C1376 C1377 1.391 . S
C1377 H1365 0.950 . S
C1377 C1373 1.393 . S
C1377 C1376 1.391 . S
H1378 C1386 0.950 . S
H1379 C1391 0.950 . S
H1380 C1388 0.950 . S
H1381 C1390 0.950 . S
H1382 C1392 0.950 . S
H1383 C1394 0.950 . S
H1384 C1396 0.950 . S
H1385 C1397 0.950 . S
C1386 H1378 0.950 . S
C1386 C1387 1.386 . S
C1386 C1388 1.391 . S
C1387 C1386 1.386 . S
C1387 C1391 1.393 . S
C1388 H1380 0.950 . S
C1388 C1386 1.391 . S
C1388 C1389 1.400 . S
C1389 C1388 1.400 . S
C1389 C1390 1.398 . S
C1389 C1395 1.491 . S
C1390 H1381 0.950 . S
C1390 C1389 1.398 . S
C1390 C1391 1.391 . S
C1391 H1379 0.950 . S
C1391 C1387 1.393 . S
C1391 C1390 1.391 . S
C1392 H1382 0.950 . S
C1392 C1393 1.386 . S
C1392 C1394 1.391 . S
C1393 C1392 1.386 . S
C1393 C1397 1.393 . S
C1394 H1383 0.950 . S
C1394 C1392 1.391 . S
C1394 C1395 1.400 . S
C1395 C1389 1.491 . S
C1395 C1394 1.400 . S
C1395 C1396 1.398 . S
C1396 H1384 0.950 . S
C1396 C1395 1.398 . S
C1396 C1397 1.391 . S
C1397 H1385 0.950 . S
C1397 C1393 1.393 . S
C1397 C1396 1.391 . S
H1398 C1406 0.950 . S
H1399 C1411 0.950 . S
H1400 C1408 0.950 . S
H1401 C1410 0.950 . S
H1402 C1412 0.950 . S
H1403 C1414 0.950 . S
H1404 C1416 0.950 . S
H1405 C1417 0.950 . S
C1406 H1398 0.950 . S
C1406 C1407 1.386 . S
C1406 C1408 1.391 . S
C1407 C1406 1.386 . S
C1407 C1411 1.393 . S
C1408 H1400 0.950 . S
C1408 C1406 1.391 . S
C1408 C1409 1.400 . S
C1409 C1408 1.400 . S
C1409 C1410 1.398 . S
C1409 C1415 1.491 . S
C1410 H1401 0.950 . S
C1410 C1409 1.398 . S
C1410 C1411 1.391 . S
C1411 H1399 0.950 . S
C1411 C1407 1.393 . S
C1411 C1410 1.391 . S
C1412 H1402 0.950 . S
C1412 C1413 1.386 . S
C1412 C1414 1.391 . S
C1413 C1412 1.386 . S
C1413 C1417 1.393 . S
C1414 H1403 0.950 . S
C1414 C1412 1.391 . S
C1414 C1415 1.400 . S
C1415 C1409 1.491 . S
C1415 C1414 1.400 . S
C1415 C1416 1.398 . S
C1416 H1404 0.950 . S
C1416 C1415 1.398 . S
C1416 C1417 1.391 . S
C1417 H1405 0.950 . S
C1417 C1413 1.393 . S
C1417 C1416 1.391 . S
H1418 C1426 0.950 . S
H1419 C1431 0.950 . S
H1420 C1428 0.950 . S
H1421 C1430 0.950 . S
H1422 C1432 0.950 . S
H1423 C1434 0.950 . S
H1424 C1436 0.950 . S
H1425 C1437 0.950 . S
C1426 H1418 0.950 . S
C1426 C1427 1.386 . S
C1426 C1428 1.391 . S
C1427 C1426 1.386 . S
C1427 C1431 1.393 . S
C1428 H1420 0.950 . S
C1428 C1426 1.391 . S
C1428 C1429 1.400 . S
C1429 C1428 1.400 . S
C1429 C1430 1.398 . S
C1429 C1435 1.491 . S
C1430 H1421 0.950 . S
C1430 C1429 1.398 . S
C1430 C1431 1.391 . S
C1431 H1419 0.950 . S
C1431 C1427 1.393 . S
C1431 C1430 1.391 . S
C1432 H1422 0.950 . S
C1432 C1433 1.386 . S
C1432 C1434 1.391 . S
C1433 C1432 1.386 . S
C1433 C1437 1.393 . S
C1434 H1423 0.950 . S
C1434 C1432 1.391 . S
C1434 C1435 1.400 . S
C1435 C1429 1.491 . S
C1435 C1434 1.400 . S
C1435 C1436 1.398 . S
C1436 H1424 0.950 . S
C1436 C1435 1.398 . S
C1436 C1437 1.391 . S
C1437 H1425 0.950 . S
C1437 C1433 1.393 . S
C1437 C1436 1.391 . S
H1438 C1446 0.950 . S
H1439 C1451 0.950 . S
H1440 C1448 0.950 . S
H1441 C1450 0.950 . S
H1442 C1452 0.950 . S
H1443 C1454 0.950 . S
H1444 C1456 0.950 . S
H1445 C1457 0.950 . S
C1446 H1438 0.950 . S
C1446 C1447 1.386 . S
C1446 C1448 1.391 . S
C1447 C1446 1.386 . S
C1447 C1451 1.393 . S
C1448 H1440 0.950 . S
C1448 C1446 1.391 . S
C1448 C1449 1.400 . S
C1449 C1448 1.400 . S
C1449 C1450 1.398 . S
C1449 C1455 1.491 . S
C1450 H1441 0.950 . S
C1450 C1449 1.398 . S
C1450 C1451 1.391 . S
C1451 H1439 0.950 . S
C1451 C1447 1.393 . S
C1451 C1450 1.391 . S
C1452 H1442 0.950 . S
C1452 C1453 1.386 . S
C1452 C1454 1.391 . S
C1453 C1452 1.386 . S
C1453 C1457 1.393 . S
C1454 H1443 0.950 . S
C1454 C1452 1.391 . S
C1454 C1455 1.400 . S
C1455 C1449 1.491 . S
C1455 C1454 1.400 . S
C1455 C1456 1.398 . S
C1456 H1444 0.950 . S
C1456 C1455 1.398 . S
C1456 C1457 1.391 . S
C1457 H1445 0.950 . S
C1457 C1453 1.393 . S
C1457 C1456 1.391 . S
H1458 C1466 0.950 . S
H1459 C1471 0.950 . S
H1460 C1468 0.950 . S
H1461 C1470 0.950 . S
H1462 C1472 0.950 . S
H1463 C1474 0.950 . S
H1464 C1476 0.950 . S
H1465 C1477 0.950 . S
C1466 H1458 0.950 . S
C1466 C1467 1.386 . S
C1466 C1468 1.391 . S
C1467 C1466 1.386 . S
C1467 C1471 1.393 . S
C1468 H1460 0.950 . S
C1468 C1466 1.391 . S
C1468 C1469 1.400 . S
C1469 C1468 1.400 . S
C1469 C1470 1.398 . S
C1469 C1475 1.491 . S
C1470 H1461 0.950 . S
C1470 C1469 1.398 . S
C1470 C1471 1.391 . S
C1471 H1459 0.950 . S
C1471 C1467 1.393 . S
C1471 C1470 1.391 . S
C1472 H1462 0.950 . S
C1472 C1473 1.386 . S
C1472 C1474 1.391 . S
C1473 C1472 1.386 . S
C1473 C1477 1.393 . S
C1474 H1463 0.950 . S
C1474 C1472 1.391 . S
C1474 C1475 1.400 . S
C1475 C1469 1.491 . S
C1475 C1474 1.400 . S
C1475 C1476 1.398 . S
C1476 H1464 0.950 . S
C1476 C1475 1.398 . S
C1476 C1477 1.391 . S
C1477 H1465 0.950 . S
C1477 C1473 1.393 . S
C1477 C1476 1.391 . S
C533 C347 2.337 . S
C527 C24 2.471 . S
C553 C348 3.357 . S
C547 C53 3.456 . S
C573 C342 1.329 . S
C567 C82 1.348 . S
C587 C137 0.539 . S
C593 C341 0.572 . S
C607 C184 3.250 . S
C613 C344 3.146 . S
C633 C346 1.150 . S
C627 C202 1.194 . S
C647 C266 0.418 . S
C653 C345 0.378 . S
C667 C293 2.459 . S
C673 C343 2.350 . S
C693 C378 2.829 . S
C687 C2 2.815 . S
C707 C57 0.680 . S
C713 C409 0.592 . S
C733 C377 0.727 . S
C727 C106 0.762 . S
C753 C412 0.891 . S
C747 C143 0.842 . S
C767 C162 1.184 . S
C773 C375 1.146 . S
C793 C407 0.866 1_556 S
C787 C226 0.874 . S
C807 C264 2.280 . S
C813 C380 2.291 . S
C827 C297 0.557 . S
C833 C414 0.349 . S
C847 C26 0.940 . S
C853 C410 0.956 . S
C867 C186 0.300 . S
C873 C413 0.428 . S
C893 C381 2.327 . S
C887 C224 2.403 . S
C913 C408 1.530 1_556 S
C907 C242 1.610 . S
C927 C303 3.468 . S
C933 C374 3.483 . S
C947 C104 2.207 . S
C953 C411 2.216 . S
C973 C376 2.515 . S
C967 C133 2.614 . S
C987 C63 1.705 . S
C993 C379 1.691 . S
C1007 C304 2.565 . S
C1013 C446 2.463 . S
C1027 C173 2.929 . S
C1033 C447 2.822 . S
C1053 C441 1.310 . S
C1047 C223 1.355 . S
C1073 C440 0.413 . S
C1067 C257 0.413 . S
C1087 C64 3.175 . S
C1093 C443 3.092 . S
C1113 C445 1.193 . S
C1107 C103 1.215 . S
C1127 C146 0.198 . S
C1133 C444 0.234 . S
C1147 C13 2.533 . S
C1153 C442 2.428 . S
C1167 C282 3.624 . S
C1173 C480 3.557 . S
C1193 C512 0.575 . S
C1187 C177 0.488 . S
C1207 C213 2.351 . S
C1213 C473 2.350 . S
C1227 C263 1.910 . S
C1233 C507 1.925 . S
C1253 C478 1.469 . S
C1247 C42 1.501 . S
C1267 C93 2.360 . S
C1273 C509 2.327 . S
C1293 C475 2.866 . S
C1287 C144 2.892 . S
C1313 C510 0.978 . S
C1307 C17 0.921 . S
C1333 C506 0.181 . S
C1327 C306 0.505 . S
C1347 C66 0.800 . S
C1353 C508 0.467 . S
C1367 C97 0.680 . S
C1373 C477 0.694 . S
C1393 C511 1.181 . S
C1387 C122 1.159 . S
C1407 C23 3.012 . S
C1413 C476 2.905 . S
C1427 C217 1.026 . S
C1433 C513 1.033 . S
C1453 C479 2.503 . S
C1447 C253 2.521 . S
C1473 C474 0.965 . S
C1467 C183 0.977 . S
