# Generated by pormake.
# Topology soc, (4,6)-cn, num edge types: 1
# Building blocks:
#     Node 0, Type 0, BuildingBlock: ESEHIV_clean_sbu_0, # of connection points: 4
#     Node 1, Type 0, BuildingBlock: ESEHIV_clean_sbu_0, # of connection points: 4
#     Node 2, Type 0, BuildingBlock: ESEHIV_clean_sbu_0, # of connection points: 4
#     Node 3, Type 0, BuildingBlock: ESEHIV_clean_sbu_0, # of connection points: 4
#     Node 4, Type 0, BuildingBlock: ESEHIV_clean_sbu_0, # of connection points: 4
#     Node 5, Type 0, BuildingBlock: ESEHIV_clean_sbu_0, # of connection points: 4
#     Node 6, Type 0, BuildingBlock: ESEHIV_clean_sbu_0, # of connection points: 4
#     Node 7, Type 0, BuildingBlock: ESEHIV_clean_sbu_0, # of connection points: 4
#     Node 8, Type 0, BuildingBlock: ESEHIV_clean_sbu_0, # of connection points: 4
#     Node 9, Type 0, BuildingBlock: ESEHIV_clean_sbu_0, # of connection points: 4
#     Node 10, Type 0, BuildingBlock: ESEHIV_clean_sbu_0, # of connection points: 4
#     Node 11, Type 0, BuildingBlock: ESEHIV_clean_sbu_0, # of connection points: 4
#     Node 12, Type 1, BuildingBlock: BETDEL_clean_sbu_0, # of connection points: 6
#     Node 13, Type 1, BuildingBlock: BETDEL_clean_sbu_0, # of connection points: 6
#     Node 14, Type 1, BuildingBlock: BETDEL_clean_sbu_0, # of connection points: 6
#     Node 15, Type 1, BuildingBlock: BETDEL_clean_sbu_0, # of connection points: 6
#     Node 16, Type 1, BuildingBlock: BETDEL_clean_sbu_0, # of connection points: 6
#     Node 17, Type 1, BuildingBlock: BETDEL_clean_sbu_0, # of connection points: 6
#     Node 18, Type 1, BuildingBlock: BETDEL_clean_sbu_0, # of connection points: 6
#     Node 19, Type 1, BuildingBlock: BETDEL_clean_sbu_0, # of connection points: 6
#     Edge 20, Type (0, 1), None
#     Edge 21, Type (0, 1), None
#     Edge 22, Type (0, 1), None
#     Edge 23, Type (0, 1), None
#     Edge 24, Type (0, 1), None
#     Edge 25, Type (0, 1), None
#     Edge 26, Type (0, 1), None
#     Edge 27, Type (0, 1), None
#     Edge 28, Type (0, 1), None
#     Edge 29, Type (0, 1), None
#     Edge 30, Type (0, 1), None
#     Edge 31, Type (0, 1), None
#     Edge 32, Type (0, 1), None
#     Edge 33, Type (0, 1), None
#     Edge 34, Type (0, 1), None
#     Edge 35, Type (0, 1), None
#     Edge 36, Type (0, 1), None
#     Edge 37, Type (0, 1), None
#     Edge 38, Type (0, 1), None
#     Edge 39, Type (0, 1), None
#     Edge 40, Type (0, 1), None
#     Edge 41, Type (0, 1), None
#     Edge 42, Type (0, 1), None
#     Edge 43, Type (0, 1), None
#     Edge 44, Type (0, 1), None
#     Edge 45, Type (0, 1), None
#     Edge 46, Type (0, 1), None
#     Edge 47, Type (0, 1), None
#     Edge 48, Type (0, 1), None
#     Edge 49, Type (0, 1), None
#     Edge 50, Type (0, 1), None
#     Edge 51, Type (0, 1), None
#     Edge 52, Type (0, 1), None
#     Edge 53, Type (0, 1), None
#     Edge 54, Type (0, 1), None
#     Edge 55, Type (0, 1), None
#     Edge 56, Type (0, 1), None
#     Edge 57, Type (0, 1), None
#     Edge 58, Type (0, 1), None
#     Edge 59, Type (0, 1), None
#     Edge 60, Type (0, 1), None
#     Edge 61, Type (0, 1), None
#     Edge 62, Type (0, 1), None
#     Edge 63, Type (0, 1), None
#     Edge 64, Type (0, 1), None
#     Edge 65, Type (0, 1), None
#     Edge 66, Type (0, 1), None
#     Edge 67, Type (0, 1), None
# Relax obj value: 0.166
# Max RMSD: 0.214
# Mean RMSD: 0.166
data_MOF--net-soc--node1-ESEHIV_clean_sbu_0--node2-BETDEL_clean_sbu_0--edge1-none
_symmetry_space_group_name_H-M    P1
_symmetry_Int_Tables_number       1
_symmetry_cell_setting            triclinic
loop_
_symmetry_equiv_pos_as_xyz
'x, y, z'
_cell_length_a     21.253192
_cell_length_b     21.795849
_cell_length_c     20.332344
_cell_angle_alpha  86.938103
_cell_angle_beta   90.026156
_cell_angle_gamma 70.769875
loop_
_atom_site_label
_atom_site_type_symbol
_atom_site_fract_x
_atom_site_fract_y
_atom_site_fract_z
_atom_type_partial_charge
Cu0 Cu 0.09633 0.06863 0.3768 0.0
N1 N 0.13454 0.10218 0.44353 0.0
N2 N 0.19398 0.16917 0.45627 0.0
C3 C 0.13594 0.16382 0.435 0.0
C4 C 0.22945 0.10956 0.48222 0.0
C5 C 0.19254 0.06872 0.47503 0.0
O6 O 0.17527 1.01429 0.33221 0.0
C7 C 0.97635 0.15953 0.31833 0.0
O8 O 0.95553 0.1097 0.31235 0.0
H9 H 0.10098 0.20074 0.40309 0.0
H10 H 0.21126 1.01652 0.48377 0.0
N11 N 1.04425 1.01574 0.40223 0.0
N12 N 0.98981 0.94424 0.39019 0.0
C13 C 1.04299 0.96182 0.37244 0.0
C14 C 0.99003 0.03217 0.44028 0.0
C15 C 0.95613 0.98863 0.43248 0.0
C16 C 0.20615 0.95849 0.36048 0.0
O17 O 0.1806 0.93806 0.41248 0.0
H18 H 0.07742 0.93895 0.33473 0.0
H19 H 0.9737 0.07546 0.46802 0.0
O20 O 1.03748 0.14959 0.33208 0.0
H21 H 0.28083 0.09494 0.49931 0.0
H22 H 0.90943 0.99044 0.45501 0.0
Cu23 Cu 0.06519 0.04148 0.72935 0.0
N24 N 1.00624 1.01338 0.68066 0.0
N25 N 0.9287 0.9647 0.67588 0.0
C26 C 0.95966 0.99531 0.71359 0.0
C27 C 0.95634 0.96377 0.61597 0.0
C28 C 1.00489 0.99358 0.61919 0.0
O29 O 1.00563 0.11577 0.77423 0.0
C30 C 0.16308 0.92345 0.7387 0.0
O31 O 0.16974 0.94379 0.67803 0.0
H32 H 0.95223 1.00047 0.76593 0.0
H33 H 1.03925 0.99678 0.58099 0.0
N34 N 0.12578 0.07603 0.68877 0.0
N35 N 0.19188 0.13658 0.69304 0.0
C36 C 0.16484 0.09741 0.72713 0.0
C37 C 0.12935 0.10144 0.62758 0.0
C38 C 0.17012 0.13948 0.63035 0.0
C39 C 0.98109 0.1647 0.73322 0.0
O40 O 0.99868 0.15845 0.67159 0.0
H41 H 0.16871 0.08863 0.78018 0.0
H42 H 0.09919 0.09822 0.58589 0.0
O43 O 0.11979 0.96069 0.77555 0.0
H44 H 0.94508 0.94011 0.57421 0.0
H45 H 0.17845 0.17119 0.59114 0.0
Cu46 Cu 0.36404 0.05535 0.05511 0.0
N47 N 0.31265 0.02915 0.99898 0.0
N48 N 0.29876 0.96071 0.92972 0.0
C49 C 0.34124 0.97327 0.97046 0.0
C50 C 0.24052 1.01021 0.93243 0.0
C51 C 0.24938 0.05331 0.97602 0.0
O52 O 0.40063 0.97806 0.11713 0.0
C53 C 0.39324 0.11679 0.9376 0.0
O54 O 0.35866 0.08781 0.90561 0.0
H55 H 0.39255 0.94276 0.97949 0.0
H56 H 0.21321 0.09858 0.98951 0.0
N57 N 0.3169 0.11895 0.10854 0.0
N58 N 0.30926 0.18017 0.19368 0.0
C59 C 0.34571 0.15474 0.14183 0.0
C60 C 0.25952 0.1236 0.13885 0.0
C61 C 0.25486 0.16109 0.19185 0.0
C62 C 0.35552 0.95378 0.13593 0.0
O63 O 0.29451 0.98056 0.11277 0.0
H64 H 0.39471 0.15751 0.13143 0.0
H65 H 0.2256 0.09836 0.12598 0.0
O66 O 0.41284 0.09852 0.99751 0.0
H67 H 0.19532 1.01478 0.90506 0.0
H68 H 0.21466 0.17301 0.22672 0.0
Cu69 Cu 0.08148 0.34242 0.0778 0.0
N70 N 0.09527 0.38027 0.997 0.0
N71 N 0.16177 0.36777 0.90998 0.0
C72 C 0.15782 0.3709 0.97599 0.0
C73 C 0.09877 0.37851 0.88835 0.0
C74 C 1.05767 0.38752 0.94203 0.0
O75 O 0.15629 0.34335 0.13573 0.0
C76 C 1.05689 0.22886 0.01936 0.0
O77 O 0.0758 0.16524 0.01798 0.0
H78 H 0.20093 0.35454 0.00893 0.0
H79 H 1.00593 0.39037 0.94142 0.0
N80 N 0.99915 0.38148 0.11584 0.0
N81 N 0.91353 0.38006 0.17889 0.0
C82 C 0.95832 0.34822 0.13498 0.0
C83 C 0.97836 0.43723 0.14734 0.0
C84 C 0.92536 0.43652 0.18643 0.0
C85 C 0.16153 0.35395 0.19656 0.0
O86 O 0.11038 0.36362 0.23553 0.0
H87 H 0.96646 0.29842 0.12304 0.0
H88 H 1.00382 0.47282 0.14684 0.0
O89 O 0.08689 0.25329 0.06022 0.0
H90 H 0.08438 0.37443 0.83811 0.0
H91 H 0.90077 0.47246 0.22111 0.0
Cu92 Cu 0.80283 1.01152 0.03385 0.0
N93 N 0.8581 0.03298 0.97132 0.0
N94 N 0.84923 0.11598 0.89854 0.0
C95 C 0.85609 0.09536 0.96217 0.0
C96 C 0.85083 0.06453 0.8645 0.0
C97 C 0.85915 1.01275 0.90953 0.0
O98 O 0.76563 0.08954 0.08578 0.0
C99 C 0.76986 0.9194 0.96147 0.0
O100 O 0.82439 0.88179 0.99193 0.0
H101 H 0.84834 0.12916 1.00044 0.0
H102 H 0.85876 0.96536 0.89796 0.0
N103 N 0.84211 0.9467 0.09982 0.0
N104 N 0.83111 0.8867 0.18866 0.0
C105 C 0.80624 0.91268 0.12895 0.0
C106 C 0.89242 0.9407 0.14298 0.0
C107 C 0.8843 0.90562 0.19875 0.0
C108 C 0.81192 0.10354 0.11562 0.0
O109 O 0.87409 0.07019 0.10447 0.0
H110 H 0.76047 0.90976 0.10808 0.0
H111 H 0.93176 0.96133 0.13596 0.0
O112 O 0.7461 0.97911 0.97636 0.0
H113 H 0.84566 0.06463 0.81152 0.0
H114 H 0.91653 0.89302 0.24179 0.0
Cu115 Cu 0.06351 0.74489 0.01823 0.0
N116 N 0.99912 0.77927 0.95231 0.0
N117 N 0.92022 0.77538 0.88238 0.0
C118 C 0.94603 0.76005 0.94387 0.0
C119 C 0.95818 0.80544 0.85024 0.0
C120 C 1.00721 0.80774 0.8938 0.0
O121 O 1.03206 0.69604 0.08849 0.0
C122 C 0.17903 0.74721 0.95448 0.0
O123 O 0.1584 0.8054 0.97737 0.0
H124 H 0.92958 0.73113 0.98062 0.0
H125 H 1.04888 0.82416 0.88203 0.0
N126 N 0.07758 0.8052 0.07121 0.0
N127 N 0.13163 0.82783 0.15435 0.0
C128 C 0.12341 0.78114 0.11902 0.0
C129 C 1.05378 0.87005 0.07706 0.0
C130 C 0.08786 0.8844 0.12917 0.0
C131 C 0.98185 0.73459 0.11721 0.0
O132 O 0.95213 0.79254 0.0889 0.0
H133 H 0.15251 0.72994 0.12552 0.0
H134 H 1.01608 0.90408 0.04513 0.0
O135 O 0.1473 0.7076 0.96931 0.0
H136 H 0.95282 0.82167 0.79871 0.0
H137 H 0.08306 0.93232 0.14511 0.0
Cu138 Cu 0.5825 0.52686 0.89204 0.0
N139 N 0.60665 0.58263 0.94369 0.0
N140 N 0.64152 0.66714 0.92227 0.0
C141 C 0.65659 0.60235 0.92091 0.0
C142 C 0.58204 0.68917 0.95135 0.0
C143 C 0.56062 0.63662 0.96475 0.0
O144 O 0.66455 0.46712 0.85557 0.0
C145 C 0.45413 0.60721 0.84197 0.0
O146 O 0.42925 0.56732 0.87455 0.0
H147 H 0.69637 0.57231 0.89172 0.0
H148 H 0.5102 0.63981 0.97719 0.0
N149 N 0.54006 0.47659 0.93668 0.0
N150 N 0.47749 0.41304 0.937 0.0
C151 C 0.52501 0.43043 0.90573 0.0
C152 C 0.50209 0.48781 0.99063 0.0
C153 C 0.46336 0.44771 0.99127 0.0
C154 C 0.70775 0.43232 0.89815 0.0
O155 O 0.69518 0.43961 0.961 0.0
H156 H 0.54352 0.41514 0.85755 0.0
H157 H 0.49798 0.52658 0.02312 0.0
O158 O 0.51705 0.59099 0.83317 0.0
H159 H 0.55305 0.73993 0.95571 0.0
H160 H 0.42448 0.44782 0.02573 0.0
Cu161 Cu 0.57709 0.54563 0.21798 0.0
N162 N 0.5375 0.50039 0.16432 0.0
N163 N 0.47752 0.43235 0.17346 0.0
C164 C 0.47943 0.49255 0.18361 0.0
C165 C 0.53524 0.40166 0.14398 0.0
C166 C 0.57184 0.44371 0.13812 0.0
O167 O 0.50261 0.61171 0.25565 0.0
C168 C 0.68946 0.44207 0.25348 0.0
O169 O 0.71539 0.46944 0.20698 0.0
H170 H 0.44467 0.52596 0.21479 0.0
H171 H 0.62349 0.43046 0.12427 0.0
N172 N 0.63582 0.58674 0.18347 0.0
N173 N 0.72117 0.62455 0.1917 0.0
C174 C 0.67331 0.60821 0.22406 0.0
C175 C 0.66025 0.59053 0.12284 0.0
C176 C 0.71286 0.61452 0.12774 0.0
C177 C 0.48468 0.6707 0.23259 0.0
O178 O 0.52147 0.68943 0.18947 0.0
H179 H 0.66732 0.60887 0.27695 0.0
H180 H 0.64373 0.57352 0.07926 0.0
O181 O 0.63198 0.47324 0.27521 0.0
H182 H 0.55224 0.3509 0.13257 0.0
H183 H 0.74359 0.62223 0.0878 0.0
Cu184 Cu 0.84928 0.56478 0.56353 0.0
N185 N 0.90529 0.57456 0.49446 0.0
N186 N 0.94386 0.6254 0.41389 0.0
C187 C 0.92721 0.62465 0.47816 0.0
C188 C 0.93331 0.57411 0.38865 0.0
C189 C 0.91086 0.54231 0.43844 0.0
O190 O 0.80201 0.6478 0.6087 0.0
C191 C 0.83304 0.45132 0.51479 0.0
O192 O 0.89066 0.42584 0.54574 0.0
H193 H 0.92307 0.66408 0.50984 0.0
H194 H 0.89426 0.50157 0.43139 0.0
N195 N 0.89274 0.51083 0.63454 0.0
N196 N 0.89902 0.43801 0.71717 0.0
C197 C 0.85966 0.47899 0.67103 0.0
C198 C 0.95519 0.49147 0.65988 0.0
C199 C 0.95916 0.44624 0.71173 0.0
C200 C 0.83683 0.67567 0.6404 0.0
O201 O 0.90189 0.65367 0.63522 0.0
H202 H 0.80813 0.48359 0.66129 0.0
H203 H 0.99514 0.50735 0.64085 0.0
O204 O 0.80083 0.51252 0.51925 0.0
H205 H 0.93859 0.56228 0.33742 0.0
H206 H 1.0034 0.41922 0.74053 0.0
Cu207 Cu 0.59956 0.81809 0.57386 0.0
N208 N 0.68921 0.7832 0.54204 0.0
N209 N 0.77146 0.77597 0.46882 0.0
C210 C 0.71446 0.76259 0.48217 0.0
C211 C 0.78388 0.80415 0.52198 0.0
C212 C 0.73414 0.80821 0.56581 0.0
O213 O 0.60551 0.881 0.63522 0.0
C214 C 0.54706 0.82476 0.45513 0.0
O215 O 0.57694 0.76213 0.46643 0.0
H216 H 0.68937 0.74419 0.44592 0.0
H217 H 0.72845 0.8335 0.60993 0.0
N218 N 0.54961 0.76697 0.61284 0.0
N219 N 0.45776 0.7532 0.65899 0.0
C220 C 0.49593 0.79219 0.65124 0.0
C221 C 0.54503 0.70946 0.5961 0.0
C222 C 0.48869 0.70095 0.62424 0.0
C223 C 0.62389 0.86356 0.69478 0.0
O224 O 0.6205 0.80807 0.72001 0.0
H225 H 0.48334 0.83999 0.67062 0.0
H226 H 0.57836 0.67716 0.56312 0.0
O227 O 0.5472 0.86313 0.49954 0.0
H228 H 0.82452 0.82323 0.5277 0.0
H229 H 0.47185 0.65958 0.61926 0.0
Cu230 Cu 0.30289 0.52915 0.53636 0.0
N231 N 0.35136 0.57539 0.48649 0.0
N232 N 0.36632 0.66289 0.43299 0.0
C233 C 0.32261 0.63174 0.44966 0.0
C234 C 0.42509 0.62488 0.46042 0.0
C235 C 0.4158 0.57111 0.49312 0.0
O236 O 0.23491 0.59219 0.58181 0.0
C237 C 0.2556 0.49511 0.41825 0.0
O238 O 0.26411 0.54757 0.39113 0.0
H239 H 0.2696 0.65174 0.43899 0.0
H240 H 0.45251 0.53374 0.52303 0.0
N241 N 0.34748 0.46931 0.60663 0.0
N242 N 0.34425 0.39266 0.68456 0.0
C243 C 0.33816 0.41122 0.61941 0.0
C244 C 0.36232 0.48635 0.66616 0.0
C245 C 0.35987 0.43965 0.7141 0.0
C246 C 0.2569 0.63393 0.60529 0.0
O247 O 0.31784 0.6324 0.59313 0.0
H248 H 0.31876 0.38731 0.58296 0.0
H249 H 0.36736 0.53282 0.67559 0.0
O250 O 0.26481 0.4823 0.47972 0.0
H251 H 0.47147 0.63531 0.45754 0.0
H252 H 0.36547 0.44199 0.76676 0.0
Cu253 Cu 0.55954 0.2554 0.55003 0.0
N254 N 0.62712 0.21027 0.49737 0.0
N255 N 0.70851 0.20395 0.42774 0.0
C256 C 0.67361 0.23561 0.47764 0.0
C257 C 0.68494 0.15479 0.41715 0.0
C258 C 0.6344 0.15858 0.46107 0.0
O259 O 0.59791 0.30986 0.60326 0.0
C260 C 0.46554 0.28605 0.4352 0.0
O261 O 0.51653 0.25724 0.3988 0.0
H262 H 0.67634 0.28099 0.49453 0.0
H263 H 0.60155 0.12978 0.46219 0.0
N264 N 0.54193 0.19841 0.6114 0.0
N265 N 0.49383 0.17853 0.70301 0.0
C266 C 0.52488 0.21621 0.67255 0.0
C267 C 0.52399 0.1456 0.60322 0.0
C268 C 0.4942 0.13294 0.66031 0.0
C269 C 0.6465 0.2772 0.64225 0.0
O270 O 0.66678 0.21342 0.64264 0.0
H271 H 0.52558 0.26209 0.69 0.0
H272 H 0.52539 0.12282 0.55704 0.0
O273 O 0.47508 0.29486 0.49612 0.0
H274 H 0.69952 0.1219 0.37758 0.0
H275 H 0.46786 0.09816 0.66664 0.0
Dy276 Dy 0.27576 0.29669 0.36896 0.0
C277 C 0.433 0.40503 0.19953 0.0
C278 C 0.21906 0.21726 0.4373 0.0
Dy279 Dy 0.34804 0.35002 0.26282 0.0
O280 O 0.28237 0.20879 0.43581 0.0
O281 O 0.18573 0.2712 0.40436 0.0
O282 O 0.34566 0.30943 0.44574 0.0
O283 O 0.38255 0.2844 0.35128 0.0
C284 C 0.39676 0.29959 0.40791 0.0
C285 C 0.22615 0.35689 0.22114 0.0
O286 O 0.36443 0.25028 0.22625 0.0
O287 O 0.28085 0.232 0.28833 0.0
O288 O 0.37788 0.43693 0.22734 0.0
O289 O 0.44233 0.34295 0.20584 0.0
O290 O 0.27439 0.35668 0.18182 0.0
O291 O 0.24241 0.36339 0.28008 0.0
O292 O 0.23306 0.39851 0.39515 0.0
O293 O 0.31361 0.4279 0.33578 0.0
C294 C 0.32117 0.21908 0.23835 0.0
C295 C 0.26401 0.44034 0.37814 0.0
Dy296 Dy 0.82609 0.3318 0.36028 0.0
C297 C 0.80205 0.15765 0.15858 0.0
C298 C 0.81901 0.41066 0.46418 0.0
Dy299 Dy 0.79617 0.25098 0.24417 0.0
O300 O 0.84981 0.34813 0.46445 0.0
O301 O 0.79256 0.43094 0.40584 0.0
O302 O 0.93674 0.2738 0.35107 0.0
O303 O 0.86492 0.23311 0.32683 0.0
C304 C 0.92615 0.22437 0.32567 0.0
C305 C 0.7106 0.37173 0.2536 0.0
O306 O 0.76236 0.20309 0.32975 0.0
O307 O 0.76211 0.27878 0.4074 0.0
O308 O 0.74671 0.19422 0.18327 0.0
O309 O 0.8524 0.17236 0.18066 0.0
O310 O 0.72254 0.34205 0.1988 0.0
O311 O 0.74141 0.33353 0.3 0.0
O312 O 0.84836 0.38398 0.27047 0.0
O313 O 0.86886 0.29759 0.20194 0.0
C314 C 0.74722 0.22749 0.38823 0.0
C315 C 0.87453 0.3544 0.21675 0.0
Dy316 Dy 0.84147 0.71651 0.26717 0.0
C317 C 0.97096 0.89473 0.36802 0.0
C318 C 0.7668 0.64799 0.21835 0.0
Dy319 Dy 0.93087 0.79427 0.32939 0.0
O320 O 0.80748 0.6694 0.18421 0.0
O321 O 0.77002 0.65959 0.28025 0.0
O322 O 0.78924 0.80172 0.19602 0.0
O323 O 0.83698 0.81606 0.27898 0.0
C324 C 0.81236 0.84173 0.22428 0.0
C325 C 0.95741 0.67424 0.37984 0.0
O326 O 0.84966 0.80196 0.40378 0.0
O327 O 0.79708 0.7307 0.36743 0.0
O328 O 0.91255 0.88943 0.37729 0.0
O329 O 1.00833 0.8458 0.33605 0.0
O330 O 0.97412 0.71834 0.40921 0.0
O331 O 0.93845 0.69276 0.32062 0.0
O332 O 0.93152 0.6865 0.20302 0.0
O333 O 0.96783 0.77337 0.22539 0.0
C334 C 0.80661 0.76929 0.4119 0.0
C335 C 0.96599 0.72592 0.18725 0.0
Dy336 Dy 0.2979 0.79939 0.26357 0.0
C337 C 0.49964 0.84467 0.40172 0.0
C338 C 0.18235 0.81789 0.19779 0.0
Dy339 Dy 0.39797 0.83805 0.32685 0.0
O340 O 0.22896 0.76194 0.20823 0.0
O341 O 0.19718 0.86372 0.22499 0.0
O342 O 0.36608 0.69831 0.25052 0.0
O343 O 0.4038 0.77695 0.24409 0.0
C344 C 0.41885 0.71568 0.24679 0.0
C345 C 0.27197 0.91767 0.33979 0.0
O346 O 0.41097 0.88935 0.23326 0.0
O347 O 0.31649 0.87456 0.19128 0.0
O348 O 0.43758 0.87661 0.41125 0.0
O349 O 0.50604 0.81051 0.35052 0.0
O350 O 0.3212 0.93862 0.32667 0.0
O351 O 0.29245 0.85658 0.34751 0.0
O352 O 0.29834 0.74346 0.3594 0.0
O353 O 0.40301 0.74464 0.38569 0.0
C354 C 0.36451 0.90124 0.18717 0.0
C355 C 0.35474 0.71895 0.39398 0.0
Dy356 Dy 0.33389 0.79959 0.82968 0.0
C357 C 0.22875 0.66806 0.66171 0.0
C358 C 0.31239 0.9076 0.89484 0.0
Dy359 Dy 0.27218 0.72945 0.75615 0.0
O360 O 0.36984 0.8607 0.89564 0.0
O361 O 0.26839 0.89605 0.85882 0.0
O362 O 0.43461 0.72375 0.83554 0.0
O363 O 0.34838 0.69475 0.83432 0.0
C364 C 0.41162 0.67554 0.83051 0.0
C365 C 0.20247 0.85643 0.75973 0.0
O366 O 0.22558 0.70778 0.84949 0.0
O367 O 0.26795 0.77473 0.90582 0.0
O368 O 0.25497 0.64186 0.71847 0.0
O369 O 0.22349 0.7288 0.65964 0.0
O370 O 0.17642 0.8112 0.77095 0.0
O371 O 0.26362 0.83156 0.74798 0.0
O372 O 0.38723 0.8106 0.73823 0.0
O373 O 0.36826 0.72132 0.69891 0.0
C374 C 0.22976 0.73764 0.90321 0.0
C375 C 0.40229 0.7632 0.69721 0.0
Dy376 Dy 0.29882 0.24071 0.77024 0.0
C377 C 0.44506 0.37521 0.91253 0.0
C378 C 0.22784 0.17099 0.71858 0.0
Dy379 Dy 0.38066 0.30013 0.86172 0.0
O380 O 0.25138 0.21018 0.68431 0.0
O381 O 0.24209 0.17004 0.78093 0.0
O382 O 0.32003 0.29535 0.68099 0.0
O383 O 0.31566 0.33543 0.77428 0.0
C384 C 0.32998 0.34097 0.71388 0.0
C385 C 0.39307 0.18015 0.91015 0.0
O386 O 0.27589 0.34441 0.89877 0.0
O387 O 0.21503 0.30557 0.82578 0.0
O388 O 0.39575 0.36249 0.94085 0.0
O389 O 0.45815 0.34885 0.8561 0.0
O390 O 0.4214 0.21665 0.93792 0.0
O391 O 0.3606 0.21063 0.85964 0.0
O392 O 0.40178 0.17448 0.75884 0.0
O393 O 0.45 0.25184 0.78241 0.0
C394 C 0.21865 0.33996 0.87654 0.0
C395 C 0.45079 0.19872 0.7525 0.0
Dy396 Dy 0.79444 0.29607 0.76471 0.0
C397 C 1.00358 0.26719 0.97186 0.0
C398 C 0.68307 0.30644 0.68656 0.0
Dy399 Dy 0.89761 0.29854 0.88182 0.0
O400 O 0.73588 0.31981 0.66763 0.0
O401 O 0.69143 0.28905 0.74928 0.0
O402 O 0.86802 0.22685 0.70144 0.0
O403 O 0.8984 0.25116 0.79078 0.0
C404 C 0.91724 0.21487 0.74342 0.0
C405 C 0.7748 0.39065 0.87977 0.0
O406 O 0.92477 0.35729 0.80081 0.0
O407 O 0.82331 0.3854 0.7426 0.0
O408 O 1.00765 0.25974 0.90873 0.0
O409 O 0.94064 0.29082 0.98595 0.0
O410 O 0.82824 0.39711 0.9057 0.0
O411 O 0.78809 0.33237 0.864 0.0
O412 O 0.80749 0.2007 0.8202 0.0
O413 O 0.8727 0.20951 0.90994 0.0
C414 C 0.882 0.39295 0.75488 0.0
C415 C 0.84206 0.17723 0.87574 0.0
Dy416 Dy 0.74307 0.77183 0.82683 0.0
C417 C 0.88442 0.93532 0.69755 0.0
C418 C 0.6741 0.70256 0.88904 0.0
Dy419 Dy 0.80335 0.86896 0.74561 0.0
O420 O 0.73171 0.67724 0.86223 0.0
O421 O 0.65159 0.76552 0.87862 0.0
O422 O 0.82886 0.7408 0.89839 0.0
O423 O 0.84132 0.77676 0.80259 0.0
C424 C 0.86687 0.76167 0.85972 0.0
C425 C 0.67219 0.88994 0.72325 0.0
O426 O 0.83852 0.77389 0.69203 0.0
O427 O 0.75997 0.72649 0.72737 0.0
O428 O 0.85862 0.9013 0.66221 0.0
O429 O 0.86553 0.93393 0.75826 0.0
O430 O 0.70761 0.91584 0.686 0.0
O431 O 0.70663 0.86563 0.77399 0.0
O432 O 0.72711 0.85117 0.89843 0.0
O433 O 0.7904 0.90879 0.8467 0.0
C434 C 0.80809 0.72932 0.68667 0.0
C435 C 0.75555 0.89722 0.89745 0.0
loop_
_geom_bond_atom_site_label_1
_geom_bond_atom_site_label_2
_geom_bond_distance
_geom_bond_site_symmetry_2
_ccdc_geom_bond_type
Cu0 N1 1.999 . S
Cu0 O6 1.974 1_545 S
Cu0 N11 1.985 1_445 S
Cu0 O20 1.959 1_455 S
N1 Cu0 1.999 . S
N1 C3 1.263 . S
N1 C5 1.389 . S
N2 C3 1.358 . S
N2 C4 1.400 . S
C3 N1 1.263 . S
C3 N2 1.358 . S
C3 H9 0.930 . S
C4 N2 1.400 . S
C4 C5 1.351 . S
C4 H21 0.930 . S
C5 N1 1.389 . S
C5 C4 1.351 . S
C5 H10 0.930 . S
O6 Cu0 1.974 1_565 S
O6 C16 1.282 . S
C7 O8 1.261 . S
C7 O20 1.251 . S
O8 C7 1.261 . S
H9 C3 0.930 . S
H10 C5 0.930 . S
N11 Cu0 1.985 1_665 S
N11 C13 1.335 . S
N11 C14 1.390 1_655 S
N12 C13 1.345 . S
N12 C15 1.336 . S
C13 N11 1.335 . S
C13 N12 1.345 . S
C13 H18 0.930 . S
C14 N11 1.390 1_455 S
C14 C15 1.346 1_455 S
C14 H19 0.930 . S
C15 N12 1.336 . S
C15 C14 1.346 1_655 S
C15 H22 0.929 . S
C16 O6 1.282 . S
C16 O17 1.216 . S
O17 C16 1.216 . S
H18 C13 0.930 . S
H19 C14 0.930 . S
O20 Cu0 1.959 1_655 S
O20 C7 1.251 . S
H21 C4 0.930 . S
H22 C15 0.929 . S
Cu23 N24 1.999 1_445 S
Cu23 O29 1.974 1_455 S
Cu23 N34 1.985 . S
Cu23 O43 1.959 1_545 S
N24 Cu23 1.999 1_665 S
N24 C26 1.263 . S
N24 C28 1.389 . S
N25 C26 1.358 . S
N25 C27 1.400 . S
C26 N24 1.263 . S
C26 N25 1.358 . S
C26 H32 0.930 1_565 S
C27 N25 1.400 . S
C27 C28 1.351 . S
C27 H44 0.930 . S
C28 N24 1.389 . S
C28 C27 1.351 . S
C28 H33 0.930 1_655 S
O29 Cu23 1.974 1_655 S
O29 C39 1.282 . S
C30 O31 1.261 . S
C30 O43 1.251 . S
O31 C30 1.261 . S
H32 C26 0.930 1_545 S
H33 C28 0.930 1_455 S
N34 Cu23 1.985 . S
N34 C36 1.335 . S
N34 C37 1.390 . S
N35 C36 1.345 . S
N35 C38 1.336 . S
C36 N34 1.335 . S
C36 N35 1.345 . S
C36 H41 0.930 . S
C37 N34 1.390 . S
C37 C38 1.346 . S
C37 H42 0.938 . S
C38 N35 1.336 . S
C38 C37 1.346 . S
C38 H45 0.929 . S
C39 O29 1.282 . S
C39 O40 1.216 . S
O40 C39 1.216 . S
H41 C36 0.930 . S
H42 C37 0.938 . S
O43 Cu23 1.959 1_565 S
O43 C30 1.251 . S
H44 C27 0.930 . S
H45 C38 0.929 . S
Cu46 N47 1.999 1_545 S
Cu46 O52 1.974 1_545 S
Cu46 N57 1.985 . S
Cu46 O66 1.959 . S
N47 Cu46 1.999 1_565 S
N47 C49 1.263 . S
N47 C51 1.389 1_554 S
N48 C49 1.358 1_556 S
N48 C50 1.400 . S
C49 N47 1.263 . S
C49 N48 1.358 1_554 S
C49 H55 0.930 . S
C50 N48 1.400 . S
C50 C51 1.351 . S
C50 H67 0.930 . S
C51 N47 1.389 1_556 S
C51 C50 1.351 . S
C51 H56 0.930 . S
O52 Cu46 1.974 1_565 S
O52 C62 1.282 . S
C53 O54 1.261 1_556 S
C53 O66 1.251 1_556 S
O54 C53 1.261 1_554 S
H55 C49 0.930 . S
H56 C51 0.930 . S
N57 Cu46 1.985 . S
N57 C59 1.335 . S
N57 C60 1.390 . S
N58 C59 1.345 . S
N58 C61 1.336 . S
C59 N57 1.335 . S
C59 N58 1.345 . S
C59 H64 0.930 . S
C60 N57 1.390 . S
C60 C61 1.346 . S
C60 H65 0.930 . S
C61 N58 1.336 . S
C61 C60 1.346 . S
C61 H68 0.929 . S
C62 O52 1.282 . S
C62 O63 1.216 . S
O63 C62 1.216 . S
H64 C59 0.930 . S
H65 C60 0.930 . S
O66 Cu46 1.959 . S
O66 C53 1.251 1_554 S
H67 C50 0.930 . S
H68 C61 0.929 . S
Cu69 N70 1.999 1_554 S
Cu69 O75 1.974 . S
Cu69 N80 1.985 1_455 S
Cu69 O89 1.959 1_454 S
N70 Cu69 1.999 1_556 S
N70 C72 1.263 . S
N70 C74 1.389 . S
N71 C72 1.358 . S
N71 C73 1.400 . S
C72 N70 1.263 . S
C72 N71 1.358 . S
C72 H78 0.930 1_556 S
C73 N71 1.400 . S
C73 C74 1.351 . S
C73 H90 0.930 . S
C74 N70 1.389 . S
C74 C73 1.351 . S
C74 H79 0.930 . S
O75 Cu69 1.974 . S
O75 C85 1.282 . S
C76 O77 1.261 . S
C76 O89 1.251 . S
O77 C76 1.261 . S
H78 C72 0.930 1_554 S
H79 C74 0.930 . S
N80 Cu69 1.985 1_655 S
N80 C82 1.335 . S
N80 C83 1.390 . S
N81 C82 1.345 . S
N81 C84 1.336 . S
C82 N80 1.335 . S
C82 N81 1.345 . S
C82 H87 0.930 . S
C83 N80 1.390 . S
C83 C84 1.346 . S
C83 H88 0.930 1_655 S
C84 N81 1.336 . S
C84 C83 1.346 . S
C84 H91 0.929 . S
C85 O75 1.282 . S
C85 O86 1.216 . S
O86 C85 1.216 . S
H87 C82 0.930 . S
H88 C83 0.930 1_455 S
O89 Cu69 1.959 1_656 S
O89 C76 1.251 . S
H90 C73 0.930 . S
H91 C84 0.929 . S
Cu92 N93 1.999 1_554 S
Cu92 O98 1.974 . S
Cu92 N103 1.985 1_545 S
Cu92 O112 1.959 1_544 S
N93 Cu92 1.999 1_556 S
N93 C95 1.263 . S
N93 C97 1.389 . S
N94 C95 1.358 . S
N94 C96 1.400 . S
C95 N93 1.263 . S
C95 N94 1.358 . S
C95 H101 0.930 . S
C96 N94 1.400 . S
C96 C97 1.351 . S
C96 H113 0.930 . S
C97 N93 1.389 . S
C97 C96 1.351 . S
C97 H102 0.930 . S
O98 Cu92 1.974 . S
O98 C108 1.282 . S
C99 O100 1.261 . S
C99 O112 1.251 . S
O100 C99 1.261 . S
H101 C95 0.930 . S
H102 C97 0.930 . S
N103 Cu92 1.985 1_565 S
N103 C105 1.335 . S
N103 C106 1.390 . S
N104 C105 1.345 . S
N104 C107 1.336 . S
C105 N103 1.335 . S
C105 N104 1.345 . S
C105 H110 0.930 . S
C106 N103 1.390 . S
C106 C107 1.346 . S
C106 H111 0.930 . S
C107 N104 1.336 . S
C107 C106 1.346 . S
C107 H114 0.929 . S
C108 O98 1.282 . S
C108 O109 1.216 . S
O109 C108 1.216 . S
H110 C105 0.930 . S
H111 C106 0.930 . S
O112 Cu92 1.959 1_566 S
O112 C99 1.251 . S
H113 C96 0.930 . S
H114 C107 0.929 . S
Cu115 N116 1.999 1_454 S
Cu115 O121 1.974 1_455 S
Cu115 N126 1.985 . S
Cu115 O135 1.959 1_554 S
N116 Cu115 1.999 1_656 S
N116 C118 1.263 . S
N116 C120 1.389 . S
N117 C118 1.358 . S
N117 C119 1.400 . S
C118 N116 1.263 . S
C118 N117 1.358 . S
C118 H124 0.930 . S
C119 N117 1.400 . S
C119 C120 1.351 . S
C119 H136 0.930 . S
C120 N116 1.389 . S
C120 C119 1.351 . S
C120 H125 0.930 1_655 S
O121 Cu115 1.974 1_655 S
O121 C131 1.282 . S
C122 O123 1.261 . S
C122 O135 1.251 . S
O123 C122 1.261 . S
H124 C118 0.930 . S
H125 C120 0.930 1_455 S
N126 Cu115 1.985 . S
N126 C128 1.335 . S
N126 C129 1.390 . S
N127 C128 1.345 . S
N127 C130 1.336 . S
C128 N126 1.335 . S
C128 N127 1.345 . S
C128 H133 0.930 . S
C129 N126 1.390 . S
C129 C130 1.346 . S
C129 H134 0.930 . S
C130 N127 1.336 . S
C130 C129 1.346 . S
C130 H137 0.929 . S
C131 O121 1.282 . S
C131 O132 1.216 . S
O132 C131 1.216 . S
H133 C128 0.930 . S
H134 C129 0.930 . S
O135 Cu115 1.959 1_556 S
O135 C122 1.251 . S
H136 C119 0.930 . S
H137 C130 0.929 . S
Cu138 N139 1.999 . S
Cu138 O144 1.974 . S
Cu138 N149 1.985 . S
Cu138 O158 1.959 . S
N139 Cu138 1.999 . S
N139 C141 1.263 . S
N139 C143 1.389 . S
N140 C141 1.358 . S
N140 C142 1.400 . S
C141 N139 1.263 . S
C141 N140 1.358 . S
C141 H147 0.930 . S
C142 N140 1.400 . S
C142 C143 1.351 . S
C142 H159 0.930 . S
C143 N139 1.389 . S
C143 C142 1.351 . S
C143 H148 0.930 . S
O144 Cu138 1.974 . S
O144 C154 1.282 . S
C145 O146 1.261 . S
C145 O158 1.251 . S
O146 C145 1.261 . S
H147 C141 0.930 . S
H148 C143 0.930 . S
N149 Cu138 1.985 . S
N149 C151 1.335 . S
N149 C152 1.390 . S
N150 C151 1.345 . S
N150 C153 1.336 . S
C151 N149 1.335 . S
C151 N150 1.345 . S
C151 H156 0.930 . S
C152 N149 1.390 . S
C152 C153 1.346 . S
C152 H157 0.930 . S
C153 N150 1.336 . S
C153 C152 1.346 . S
C153 H160 0.929 . S
C154 O144 1.282 . S
C154 O155 1.216 . S
O155 C154 1.216 . S
H156 C151 0.930 . S
H157 C152 0.930 . S
O158 Cu138 1.959 . S
O158 C145 1.251 . S
H159 C142 0.930 . S
H160 C153 0.929 . S
Cu161 N162 1.999 . S
Cu161 O167 1.974 . S
Cu161 N172 1.985 . S
Cu161 O181 1.959 . S
N162 Cu161 1.999 . S
N162 C164 1.263 . S
N162 C166 1.389 . S
N163 C164 1.358 . S
N163 C165 1.400 . S
C164 N162 1.263 . S
C164 N163 1.358 . S
C164 H170 0.930 . S
C165 N163 1.400 . S
C165 C166 1.351 . S
C165 H182 0.930 . S
C166 N162 1.389 . S
C166 C165 1.351 . S
C166 H171 0.930 . S
O167 Cu161 1.974 . S
O167 C177 1.282 . S
C168 O169 1.261 . S
C168 O181 1.251 . S
O169 C168 1.261 . S
H170 C164 0.930 . S
H171 C166 0.930 . S
N172 Cu161 1.985 . S
N172 C174 1.335 . S
N172 C175 1.390 . S
N173 C174 1.345 . S
N173 C176 1.336 . S
C174 N172 1.335 . S
C174 N173 1.345 . S
C174 H179 0.930 . S
C175 N172 1.390 . S
C175 C176 1.346 . S
C175 H180 0.930 . S
C176 N173 1.336 . S
C176 C175 1.346 . S
C176 H183 0.929 . S
C177 O167 1.282 . S
C177 O178 1.216 . S
O178 C177 1.216 . S
H179 C174 0.930 . S
H180 C175 0.930 . S
O181 Cu161 1.959 . S
O181 C168 1.251 . S
H182 C165 0.930 . S
H183 C176 0.929 . S
Cu184 N185 1.999 . S
Cu184 O190 1.974 . S
Cu184 N195 1.985 . S
Cu184 O204 1.959 . S
N185 Cu184 1.999 . S
N185 C187 1.263 . S
N185 C189 1.389 . S
N186 C187 1.358 . S
N186 C188 1.400 . S
C187 N185 1.263 . S
C187 N186 1.358 . S
C187 H193 0.930 . S
C188 N186 1.400 . S
C188 C189 1.351 . S
C188 H205 0.930 . S
C189 N185 1.389 . S
C189 C188 1.351 . S
C189 H194 0.930 . S
O190 Cu184 1.974 . S
O190 C200 1.282 . S
C191 O192 1.261 . S
C191 O204 1.251 . S
O192 C191 1.261 . S
H193 C187 0.930 . S
H194 C189 0.930 . S
N195 Cu184 1.985 . S
N195 C197 1.335 . S
N195 C198 1.390 . S
N196 C197 1.345 . S
N196 C199 1.336 . S
C197 N195 1.335 . S
C197 N196 1.345 . S
C197 H202 0.930 . S
C198 N195 1.390 . S
C198 C199 1.346 . S
C198 H203 0.930 . S
C199 N196 1.336 . S
C199 C198 1.346 . S
C199 H206 0.929 . S
C200 O190 1.282 . S
C200 O201 1.216 . S
O201 C200 1.216 . S
H202 C197 0.930 . S
H203 C198 0.930 . S
O204 Cu184 1.959 . S
O204 C191 1.251 . S
H205 C188 0.930 . S
H206 C199 0.929 . S
Cu207 N208 1.999 . S
Cu207 O213 1.974 . S
Cu207 N218 1.985 . S
Cu207 O227 1.959 . S
N208 Cu207 1.999 . S
N208 C210 1.263 . S
N208 C212 1.389 . S
N209 C210 1.358 . S
N209 C211 1.400 . S
C210 N208 1.263 . S
C210 N209 1.358 . S
C210 H216 0.930 . S
C211 N209 1.400 . S
C211 C212 1.351 . S
C211 H228 0.930 . S
C212 N208 1.389 . S
C212 C211 1.351 . S
C212 H217 0.930 . S
O213 Cu207 1.974 . S
O213 C223 1.282 . S
C214 O215 1.261 . S
C214 O227 1.251 . S
O215 C214 1.261 . S
H216 C210 0.930 . S
H217 C212 0.930 . S
N218 Cu207 1.985 . S
N218 C220 1.335 . S
N218 C221 1.390 . S
N219 C220 1.345 . S
N219 C222 1.336 . S
C220 N218 1.335 . S
C220 N219 1.345 . S
C220 H225 0.930 . S
C221 N218 1.390 . S
C221 C222 1.346 . S
C221 H226 0.930 . S
C222 N219 1.336 . S
C222 C221 1.346 . S
C222 H229 0.929 . S
C223 O213 1.282 . S
C223 O224 1.216 . S
O224 C223 1.216 . S
H225 C220 0.930 . S
H226 C221 0.930 . S
O227 Cu207 1.959 . S
O227 C214 1.251 . S
H228 C211 0.930 . S
H229 C222 0.929 . S
Cu230 N231 1.999 . S
Cu230 O236 1.974 . S
Cu230 N241 1.985 . S
Cu230 O250 1.959 . S
N231 Cu230 1.999 . S
N231 C233 1.263 . S
N231 C235 1.389 . S
N232 C233 1.358 . S
N232 C234 1.400 . S
C233 N231 1.263 . S
C233 N232 1.358 . S
C233 H239 0.930 . S
C234 N232 1.400 . S
C234 C235 1.351 . S
C234 H251 0.930 . S
C235 N231 1.389 . S
C235 C234 1.351 . S
C235 H240 0.930 . S
O236 Cu230 1.974 . S
O236 C246 1.282 . S
C237 O238 1.261 . S
C237 O250 1.251 . S
O238 C237 1.261 . S
H239 C233 0.930 . S
H240 C235 0.930 . S
N241 Cu230 1.985 . S
N241 C243 1.335 . S
N241 C244 1.390 . S
N242 C243 1.345 . S
N242 C245 1.336 . S
C243 N241 1.335 . S
C243 N242 1.345 . S
C243 H248 0.930 . S
C244 N241 1.390 . S
C244 C245 1.346 . S
C244 H249 0.930 . S
C245 N242 1.336 . S
C245 C244 1.346 . S
C245 H252 0.929 . S
C246 O236 1.282 . S
C246 O247 1.216 . S
O247 C246 1.216 . S
H248 C243 0.930 . S
H249 C244 0.930 . S
O250 Cu230 1.959 . S
O250 C237 1.251 . S
H251 C234 0.930 . S
H252 C245 0.929 . S
Cu253 N254 1.999 . S
Cu253 O259 1.974 . S
Cu253 N264 1.985 . S
Cu253 O273 1.959 . S
N254 Cu253 1.999 . S
N254 C256 1.263 . S
N254 C258 1.389 . S
N255 C256 1.358 . S
N255 C257 1.400 . S
C256 N254 1.263 . S
C256 N255 1.358 . S
C256 H262 0.930 . S
C257 N255 1.400 . S
C257 C258 1.351 . S
C257 H274 0.930 . S
C258 N254 1.389 . S
C258 C257 1.351 . S
C258 H263 0.930 . S
O259 Cu253 1.974 . S
O259 C269 1.282 . S
C260 O261 1.261 . S
C260 O273 1.251 . S
O261 C260 1.261 . S
H262 C256 0.930 . S
H263 C258 0.930 . S
N264 Cu253 1.985 . S
N264 C266 1.335 . S
N264 C267 1.390 . S
N265 C266 1.345 . S
N265 C268 1.336 . S
C266 N264 1.335 . S
C266 N265 1.345 . S
C266 H271 0.930 . S
C267 N264 1.390 . S
C267 C268 1.346 . S
C267 H272 0.930 . S
C268 N265 1.336 . S
C268 C267 1.346 . S
C268 H275 0.929 . S
C269 O259 1.282 . S
C269 O270 1.216 . S
O270 C269 1.216 . S
H271 C266 0.930 . S
H272 C267 0.930 . S
O273 Cu253 1.959 . S
O273 C260 1.251 . S
H274 C257 0.930 . S
H275 C268 0.929 . S
Dy276 O280 2.398 . S
Dy276 O281 2.491 . S
Dy276 O282 2.403 . S
Dy276 O283 2.664 . S
Dy276 O287 2.326 . S
Dy276 O291 2.310 . S
Dy276 O292 2.351 . S
C277 O288 1.185 . S
C277 O289 1.355 . S
C278 O280 1.185 . S
C278 O281 1.355 . S
Dy279 O283 2.310 . S
Dy279 O286 2.351 . S
Dy279 O288 2.398 . S
Dy279 O289 2.491 . S
Dy279 O290 2.403 . S
Dy279 O291 2.664 . S
Dy279 O293 2.326 . S
O280 Dy276 2.398 . S
O280 C278 1.185 . S
O281 Dy276 2.491 . S
O281 C278 1.355 . S
O282 Dy276 2.403 . S
O282 C284 1.254 . S
O283 Dy276 2.664 . S
O283 Dy279 2.310 . S
O283 C284 1.268 . S
C284 O282 1.254 . S
C284 O283 1.268 . S
C285 O290 1.254 . S
C285 O291 1.268 . S
O286 Dy279 2.351 . S
O286 C294 1.249 . S
O287 Dy276 2.326 . S
O287 C294 1.267 . S
O288 C277 1.185 . S
O288 Dy279 2.398 . S
O289 C277 1.355 . S
O289 Dy279 2.491 . S
O290 Dy279 2.403 . S
O290 C285 1.254 . S
O291 Dy276 2.310 . S
O291 Dy279 2.664 . S
O291 C285 1.268 . S
O292 Dy276 2.351 . S
O292 C295 1.249 . S
O293 Dy279 2.326 . S
O293 C295 1.267 . S
C294 O286 1.249 . S
C294 O287 1.267 . S
C295 O292 1.249 . S
C295 O293 1.267 . S
Dy296 O300 2.398 . S
Dy296 O301 2.491 . S
Dy296 O302 2.403 . S
Dy296 O303 2.664 . S
Dy296 O307 2.326 . S
Dy296 O311 2.310 . S
Dy296 O312 2.351 . S
C297 O308 1.185 . S
C297 O309 1.355 . S
C298 O300 1.185 . S
C298 O301 1.355 . S
Dy299 O303 2.310 . S
Dy299 O306 2.351 . S
Dy299 O308 2.398 . S
Dy299 O309 2.491 . S
Dy299 O310 2.403 . S
Dy299 O311 2.664 . S
Dy299 O313 2.326 . S
O300 Dy296 2.398 . S
O300 C298 1.185 . S
O301 Dy296 2.491 . S
O301 C298 1.355 . S
O302 Dy296 2.403 . S
O302 C304 1.254 . S
O303 Dy296 2.664 . S
O303 Dy299 2.310 . S
O303 C304 1.268 . S
C304 O302 1.254 . S
C304 O303 1.268 . S
C305 O310 1.254 . S
C305 O311 1.268 . S
O306 Dy299 2.351 . S
O306 C314 1.249 . S
O307 Dy296 2.326 . S
O307 C314 1.267 . S
O308 C297 1.185 . S
O308 Dy299 2.398 . S
O309 C297 1.355 . S
O309 Dy299 2.491 . S
O310 Dy299 2.403 . S
O310 C305 1.254 . S
O311 Dy296 2.310 . S
O311 Dy299 2.664 . S
O311 C305 1.268 . S
O312 Dy296 2.351 . S
O312 C315 1.249 . S
O313 Dy299 2.326 . S
O313 C315 1.267 . S
C314 O306 1.249 . S
C314 O307 1.267 . S
C315 O312 1.249 . S
C315 O313 1.267 . S
Dy316 O320 2.398 . S
Dy316 O321 2.491 . S
Dy316 O322 2.403 . S
Dy316 O323 2.664 . S
Dy316 O327 2.326 . S
Dy316 O331 2.310 . S
Dy316 O332 2.351 . S
C317 O328 1.185 . S
C317 O329 1.355 . S
C318 O320 1.185 . S
C318 O321 1.355 . S
Dy319 O323 2.310 . S
Dy319 O326 2.351 . S
Dy319 O328 2.398 . S
Dy319 O329 2.491 . S
Dy319 O330 2.403 . S
Dy319 O331 2.664 . S
Dy319 O333 2.326 . S
O320 Dy316 2.398 . S
O320 C318 1.185 . S
O321 Dy316 2.491 . S
O321 C318 1.355 . S
O322 Dy316 2.403 . S
O322 C324 1.254 . S
O323 Dy316 2.664 . S
O323 Dy319 2.310 . S
O323 C324 1.268 . S
C324 O322 1.254 . S
C324 O323 1.268 . S
C325 O330 1.254 . S
C325 O331 1.268 . S
O326 Dy319 2.351 . S
O326 C334 1.249 . S
O327 Dy316 2.326 . S
O327 C334 1.267 . S
O328 C317 1.185 . S
O328 Dy319 2.398 . S
O329 C317 1.355 . S
O329 Dy319 2.491 . S
O330 Dy319 2.403 . S
O330 C325 1.254 . S
O331 Dy316 2.310 . S
O331 Dy319 2.664 . S
O331 C325 1.268 . S
O332 Dy316 2.351 . S
O332 C335 1.249 . S
O333 Dy319 2.326 . S
O333 C335 1.267 . S
C334 O326 1.249 . S
C334 O327 1.267 . S
C335 O332 1.249 . S
C335 O333 1.267 . S
Dy336 O340 2.398 . S
Dy336 O341 2.491 . S
Dy336 O342 2.403 . S
Dy336 O343 2.664 . S
Dy336 O347 2.326 . S
Dy336 O351 2.310 . S
Dy336 O352 2.351 . S
C337 O348 1.185 . S
C337 O349 1.355 . S
C338 O340 1.185 . S
C338 O341 1.355 . S
Dy339 O343 2.310 . S
Dy339 O346 2.351 . S
Dy339 O348 2.398 . S
Dy339 O349 2.491 . S
Dy339 O350 2.403 . S
Dy339 O351 2.664 . S
Dy339 O353 2.326 . S
O340 Dy336 2.398 . S
O340 C338 1.185 . S
O341 Dy336 2.491 . S
O341 C338 1.355 . S
O342 Dy336 2.403 . S
O342 C344 1.254 . S
O343 Dy336 2.664 . S
O343 Dy339 2.310 . S
O343 C344 1.268 . S
C344 O342 1.254 . S
C344 O343 1.268 . S
C345 O350 1.254 . S
C345 O351 1.268 . S
O346 Dy339 2.351 . S
O346 C354 1.249 . S
O347 Dy336 2.326 . S
O347 C354 1.267 . S
O348 C337 1.185 . S
O348 Dy339 2.398 . S
O349 C337 1.355 . S
O349 Dy339 2.491 . S
O350 Dy339 2.403 . S
O350 C345 1.254 . S
O351 Dy336 2.310 . S
O351 Dy339 2.664 . S
O351 C345 1.268 . S
O352 Dy336 2.351 . S
O352 C355 1.249 . S
O353 Dy339 2.326 . S
O353 C355 1.267 . S
C354 O346 1.249 . S
C354 O347 1.267 . S
C355 O352 1.249 . S
C355 O353 1.267 . S
Dy356 O360 2.398 . S
Dy356 O361 2.491 . S
Dy356 O362 2.403 . S
Dy356 O363 2.664 . S
Dy356 O367 2.326 . S
Dy356 O371 2.310 . S
Dy356 O372 2.351 . S
C357 O368 1.185 . S
C357 O369 1.355 . S
C358 O360 1.185 . S
C358 O361 1.355 . S
Dy359 O363 2.310 . S
Dy359 O366 2.351 . S
Dy359 O368 2.398 . S
Dy359 O369 2.491 . S
Dy359 O370 2.403 . S
Dy359 O371 2.664 . S
Dy359 O373 2.326 . S
O360 Dy356 2.398 . S
O360 C358 1.185 . S
O361 Dy356 2.491 . S
O361 C358 1.355 . S
O362 Dy356 2.403 . S
O362 C364 1.254 . S
O363 Dy356 2.664 . S
O363 Dy359 2.310 . S
O363 C364 1.268 . S
C364 O362 1.254 . S
C364 O363 1.268 . S
C365 O370 1.254 . S
C365 O371 1.268 . S
O366 Dy359 2.351 . S
O366 C374 1.249 . S
O367 Dy356 2.326 . S
O367 C374 1.267 . S
O368 C357 1.185 . S
O368 Dy359 2.398 . S
O369 C357 1.355 . S
O369 Dy359 2.491 . S
O370 Dy359 2.403 . S
O370 C365 1.254 . S
O371 Dy356 2.310 . S
O371 Dy359 2.664 . S
O371 C365 1.268 . S
O372 Dy356 2.351 . S
O372 C375 1.249 . S
O373 Dy359 2.326 . S
O373 C375 1.267 . S
C374 O366 1.249 . S
C374 O367 1.267 . S
C375 O372 1.249 . S
C375 O373 1.267 . S
Dy376 O380 2.398 . S
Dy376 O381 2.491 . S
Dy376 O382 2.403 . S
Dy376 O383 2.664 . S
Dy376 O387 2.326 . S
Dy376 O391 2.310 . S
Dy376 O392 2.351 . S
C377 O388 1.185 . S
C377 O389 1.355 . S
C378 O380 1.185 . S
C378 O381 1.355 . S
Dy379 O383 2.310 . S
Dy379 O386 2.351 . S
Dy379 O388 2.398 . S
Dy379 O389 2.491 . S
Dy379 O390 2.403 . S
Dy379 O391 2.664 . S
Dy379 O393 2.326 . S
O380 Dy376 2.398 . S
O380 C378 1.185 . S
O381 Dy376 2.491 . S
O381 C378 1.355 . S
O382 Dy376 2.403 . S
O382 C384 1.254 . S
O383 Dy376 2.664 . S
O383 Dy379 2.310 . S
O383 C384 1.268 . S
C384 O382 1.254 . S
C384 O383 1.268 . S
C385 O390 1.254 . S
C385 O391 1.268 . S
O386 Dy379 2.351 . S
O386 C394 1.249 . S
O387 Dy376 2.326 . S
O387 C394 1.267 . S
O388 C377 1.185 . S
O388 Dy379 2.398 . S
O389 C377 1.355 . S
O389 Dy379 2.491 . S
O390 Dy379 2.403 . S
O390 C385 1.254 . S
O391 Dy376 2.310 . S
O391 Dy379 2.664 . S
O391 C385 1.268 . S
O392 Dy376 2.351 . S
O392 C395 1.249 . S
O393 Dy379 2.326 . S
O393 C395 1.267 . S
C394 O386 1.249 . S
C394 O387 1.267 . S
C395 O392 1.249 . S
C395 O393 1.267 . S
Dy396 O400 2.398 . S
Dy396 O401 2.491 . S
Dy396 O402 2.403 . S
Dy396 O403 2.664 . S
Dy396 O407 2.326 . S
Dy396 O411 2.310 . S
Dy396 O412 2.351 . S
C397 O408 1.185 . S
C397 O409 1.355 . S
C398 O400 1.185 . S
C398 O401 1.355 . S
Dy399 O403 2.310 . S
Dy399 O406 2.351 . S
Dy399 O408 2.398 . S
Dy399 O409 2.491 . S
Dy399 O410 2.403 . S
Dy399 O411 2.664 . S
Dy399 O413 2.326 . S
O400 Dy396 2.398 . S
O400 C398 1.185 . S
O401 Dy396 2.491 . S
O401 C398 1.355 . S
O402 Dy396 2.403 . S
O402 C404 1.254 . S
O403 Dy396 2.664 . S
O403 Dy399 2.310 . S
O403 C404 1.268 . S
C404 O402 1.254 . S
C404 O403 1.268 . S
C405 O410 1.254 . S
C405 O411 1.268 . S
O406 Dy399 2.351 . S
O406 C414 1.249 . S
O407 Dy396 2.326 . S
O407 C414 1.267 . S
O408 C397 1.185 . S
O408 Dy399 2.398 . S
O409 C397 1.355 . S
O409 Dy399 2.491 . S
O410 Dy399 2.403 . S
O410 C405 1.254 . S
O411 Dy396 2.310 . S
O411 Dy399 2.664 . S
O411 C405 1.268 . S
O412 Dy396 2.351 . S
O412 C415 1.249 . S
O413 Dy399 2.326 . S
O413 C415 1.267 . S
C414 O406 1.249 . S
C414 O407 1.267 . S
C415 O412 1.249 . S
C415 O413 1.267 . S
Dy416 O420 2.398 . S
Dy416 O421 2.491 . S
Dy416 O422 2.403 . S
Dy416 O423 2.664 . S
Dy416 O427 2.326 . S
Dy416 O431 2.310 . S
Dy416 O432 2.351 . S
C417 O428 1.185 . S
C417 O429 1.355 . S
C418 O420 1.185 . S
C418 O421 1.355 . S
Dy419 O423 2.310 . S
Dy419 O426 2.351 . S
Dy419 O428 2.398 . S
Dy419 O429 2.491 . S
Dy419 O430 2.403 . S
Dy419 O431 2.664 . S
Dy419 O433 2.326 . S
O420 Dy416 2.398 . S
O420 C418 1.185 . S
O421 Dy416 2.491 . S
O421 C418 1.355 . S
O422 Dy416 2.403 . S
O422 C424 1.254 . S
O423 Dy416 2.664 . S
O423 Dy419 2.310 . S
O423 C424 1.268 . S
C424 O422 1.254 . S
C424 O423 1.268 . S
C425 O430 1.254 . S
C425 O431 1.268 . S
O426 Dy419 2.351 . S
O426 C434 1.249 . S
O427 Dy416 2.326 . S
O427 C434 1.267 . S
O428 C417 1.185 . S
O428 Dy419 2.398 . S
O429 C417 1.355 . S
O429 Dy419 2.491 . S
O430 Dy419 2.403 . S
O430 C425 1.254 . S
O431 Dy416 2.310 . S
O431 Dy419 2.664 . S
O431 C425 1.268 . S
O432 Dy416 2.351 . S
O432 C435 1.249 . S
O433 Dy419 2.326 . S
O433 C435 1.267 . S
C434 O426 1.249 . S
C434 O427 1.267 . S
C435 O432 1.249 . S
C435 O433 1.267 . S
C278 N2 1.805 . S
C304 C7 2.616 . S
C317 N12 2.124 . S
C16 C345 1.873 . S
C365 C30 2.936 . S
C378 N35 1.567 . S
C39 C404 2.412 . S
C417 N25 1.231 . S
C294 N58 1.105 . S
N81 C315 2.022 . S
C324 N104 1.101 . S
N127 C338 1.901 . S
C358 N48 1.781 . S
C394 N71 1.822 . S
N94 C415 1.898 . S
C424 N117 1.814 . S
C85 C285 2.814 . S
C122 C374 2.488 . S
C53 C385 2.438 . S
C397 C76 1.744 . S
C435 C99 2.340 . S
C335 C131 2.510 . S
C354 C62 1.869 . S
C108 C297 1.417 . S
C418 N140 2.153 . S
C145 C364 2.584 . S
C377 N150 1.763 . S
C154 C405 1.859 . S
C305 C168 2.922 . S
N173 C318 1.231 . S
C344 C177 2.418 . S
C277 N163 1.353 . S
C434 C200 2.149 . S
C375 N219 2.400 . S
N242 C384 1.564 . S
C398 C269 2.199 . S
C298 C191 1.886 . S
N209 C334 2.104 . S
N232 C355 2.226 . S
C260 C284 2.662 . S
C223 C425 2.263 . S
N255 C314 1.662 . S
N186 C325 1.698 . S
C337 C214 1.210 . S
C295 C237 1.783 . S
C395 N265 1.681 . S
C414 N196 1.196 . S
C357 C246 0.873 . S
