# Generated by pormake.
# Topology pth, (4,4)-cn, num edge types: 1
# Building blocks:
#     Node 0, Type 0, BuildingBlock: TATPOV_clean_sbu_0, # of connection points: 4
#     Node 1, Type 0, BuildingBlock: TATPOV_clean_sbu_0, # of connection points: 4
#     Node 2, Type 0, BuildingBlock: TATPOV_clean_sbu_0, # of connection points: 4
#     Node 3, Type 1, BuildingBlock: MUDLON_clean_sbu_0, # of connection points: 4
#     Node 4, Type 1, BuildingBlock: MUDLON_clean_sbu_0, # of connection points: 4
#     Node 5, Type 1, BuildingBlock: MUDLON_clean_sbu_0, # of connection points: 4
#     Edge 6, Type (0, 1), BuildingBlock: EZIPEK_clean_linker_0, # of connection points: 2
#     Edge 7, Type (0, 1), BuildingBlock: EZIPEK_clean_linker_0, # of connection points: 2
#     Edge 8, Type (0, 1), BuildingBlock: EZIPEK_clean_linker_0, # of connection points: 2
#     Edge 9, Type (0, 1), BuildingBlock: EZIPEK_clean_linker_0, # of connection points: 2
#     Edge 10, Type (0, 1), BuildingBlock: EZIPEK_clean_linker_0, # of connection points: 2
#     Edge 11, Type (0, 1), BuildingBlock: EZIPEK_clean_linker_0, # of connection points: 2
#     Edge 12, Type (0, 1), BuildingBlock: EZIPEK_clean_linker_0, # of connection points: 2
#     Edge 13, Type (0, 1), BuildingBlock: EZIPEK_clean_linker_0, # of connection points: 2
#     Edge 14, Type (0, 1), BuildingBlock: EZIPEK_clean_linker_0, # of connection points: 2
#     Edge 15, Type (0, 1), BuildingBlock: EZIPEK_clean_linker_0, # of connection points: 2
#     Edge 16, Type (0, 1), BuildingBlock: EZIPEK_clean_linker_0, # of connection points: 2
#     Edge 17, Type (0, 1), BuildingBlock: EZIPEK_clean_linker_0, # of connection points: 2
# Relax obj value: 0.073
# Max RMSD: 0.186
# Mean RMSD: 0.119
data_MOF--net-pth--node1-TATPOV_clean_sbu_0--node2-MUDLON_clean_sbu_0--edge1-EZIPEK_clean_linker_0
_symmetry_space_group_name_H-M    P1
_symmetry_Int_Tables_number       1
_symmetry_cell_setting            triclinic
loop_
_symmetry_equiv_pos_as_xyz
'x, y, z'
_cell_length_a     16.933902
_cell_length_b     16.808227
_cell_length_c     44.051426
_cell_angle_alpha  92.732874
_cell_angle_beta   91.913781
_cell_angle_gamma 121.12304
loop_
_atom_site_label
_atom_site_type_symbol
_atom_site_fract_x
_atom_site_fract_y
_atom_site_fract_z
_atom_type_partial_charge
Zn0 Zn 0.15495 0.00842 0.05886 0.0
Zn1 Zn 0.11252 0.11815 0.09185 0.0
O2 O 0.13087 0.03938 0.123 0.0
O3 O 0.16486 0.94863 0.0959 0.0
O4 O 0.08548 0.20242 0.11802 0.0
O5 O 0.26548 0.11819 0.04329 0.0
O6 O 0.21936 0.20596 0.0658 0.0
C7 C 0.15038 0.97555 0.12127 0.0
C8 C 0.97323 0.98049 0.04306 0.0
O9 O 0.99365 0.04168 0.06484 0.0
O10 O 0.02991 0.95614 0.03578 0.0
C11 C 0.00937 0.16803 0.13081 0.0
O12 O 0.94939 0.07799 0.127 0.0
C13 C 0.27275 0.19655 0.04813 0.0
Zn14 Zn 0.24573 0.16705 0.40075 0.0
Zn15 Zn 0.0902 0.12359 0.42823 0.0
O16 O 0.19003 0.15266 0.46297 0.0
O17 O 0.31562 0.18289 0.4402 0.0
O18 O 0.97706 0.09868 0.45055 0.0
O19 O 0.24979 0.27557 0.38222 0.0
O20 O 0.11358 0.22825 0.40021 0.0
C21 C 0.27361 0.17178 0.46427 0.0
C22 C 0.08884 0.97998 0.38399 0.0
O23 O 0.04643 0.00015 0.4033 0.0
O24 O 0.17169 0.03862 0.37885 0.0
C25 C 0.95607 0.0524 0.47408 0.0
O26 O 0.00643 0.01836 0.48327 0.0
C27 C 0.17881 0.28189 0.38395 0.0
Zn28 Zn 0.18808 0.96989 0.78902 0.0
Zn29 Zn 0.06042 0.99041 0.75645 0.0
O30 O 0.13119 0.96425 0.72412 0.0
O31 O 0.22996 0.94003 0.74988 0.0
O32 O 0.97057 0.00964 0.73132 0.0
O33 O 0.08386 0.86864 0.81062 0.0
O34 O 0.98092 0.88445 0.78369 0.0
C35 C 0.19451 0.94455 0.72477 0.0
C36 C 0.20746 0.15106 0.79923 0.0
O37 O 0.13615 0.11622 0.78089 0.0
O38 O 0.24445 0.10454 0.80585 0.0
C39 C 1.00191 0.08315 0.71707 0.0
O40 O 0.09125 0.14401 0.71885 0.0
C41 C 1.00085 0.84538 0.80421 0.0
Mg42 Mg 0.07072 0.58969 0.2569 0.0
C43 C 0.09968 0.4983 0.30449 0.0
O44 O 0.01015 0.45599 0.29785 0.0
C45 C 0.08268 0.7325 0.2182 0.0
O46 O 1.00111 0.69749 0.22928 0.0
C47 C 0.95726 0.42676 0.20583 0.0
O48 O 0.90827 0.46428 0.19886 0.0
O49 O 0.01597 0.46058 0.22855 0.0
O50 O 0.15383 0.56865 0.29017 0.0
O51 O 0.99234 0.62427 0.28712 0.0
C52 C 0.04952 0.70497 0.29976 0.0
O53 O 0.13516 0.74859 0.29172 0.0
O54 O 0.13476 0.70245 0.2265 0.0
Mg55 Mg 0.58998 0.07621 0.59662 0.0
C56 C 0.47993 0.11331 0.55498 0.0
O57 O 0.45904 0.02756 0.54778 0.0
C58 C 0.72087 0.09113 0.6443 0.0
O59 O 0.64957 0.00587 0.64447 0.0
C60 C 0.39812 0.9416 0.62275 0.0
O61 O 0.36372 0.90793 0.5948 0.0
O62 O 0.4844 0.99815 0.62803 0.0
O63 O 0.5414 0.1608 0.57648 0.0
O64 O 0.62112 0.01495 0.5572 0.0
C65 C 0.68272 0.99328 0.5591 0.0
O66 O 0.71303 0.98626 0.58601 0.0
O67 O 0.71681 0.14616 0.62628 0.0
Mg68 Mg 0.55637 0.60442 0.91859 0.0
C69 C 0.42755 0.47252 0.87393 0.0
O70 O 0.48712 0.44824 0.88187 0.0
C71 C 0.66765 0.73694 0.9657 0.0
O72 O 0.69021 0.67312 0.9632 0.0
C73 C 0.48034 0.49458 0.97103 0.0
O74 O 0.4604 0.5601 0.97455 0.0
O75 O 0.52572 0.49441 0.9486 0.0
O76 O 0.43649 0.54658 0.88661 0.0
O77 O 0.67301 0.6496 0.89076 0.0
C78 C 0.71165 0.6079 0.87993 0.0
O79 O 0.68363 0.522 0.88618 0.0
O80 O 0.60168 0.72835 0.94836 0.0
C81 C 0.96729 0.21393 0.18019 0.0
C82 C 0.98723 0.22945 0.14922 0.0
C83 C 0.9827 0.3728 0.15467 0.0
C84 C 0.95653 0.35407 0.18505 0.0
N85 N 0.9049 0.24701 0.22455 0.0
N86 N 0.99011 0.30995 0.10497 0.0
C87 C 0.9427 0.2713 0.19709 0.0
C88 C 0.98749 0.30465 0.13583 0.0
N89 N 0.9767 0.14787 0.194 0.0
N90 N 0.00915 0.45788 0.14429 0.0
H91 H 0.992 0.26046 0.0903 0.0
H92 H 0.98082 0.35794 0.0937 0.0
H93 H 0.01023 0.51155 0.15746 0.0
H94 H 0.03875 0.47847 0.12357 0.0
H95 H 0.97308 0.14057 0.21735 0.0
H96 H 0.99658 0.10574 0.1827 0.0
H97 H 0.88486 0.18312 0.23321 0.0
H98 H 0.88517 0.28704 0.23731 0.0
C99 C 0.87789 0.11575 0.50636 0.0
C100 C 0.87681 0.03787 0.49178 0.0
C101 C 0.73431 0.93103 0.51617 0.0
C102 C 0.74172 0.0084 0.53322 0.0
N103 N 0.81937 0.17439 0.54551 0.0
N104 N 0.8029 0.87168 0.48098 0.0
C105 C 0.81217 0.10086 0.52815 0.0
C106 C 0.80421 0.94547 0.49606 0.0
N107 N 0.94267 0.20418 0.49978 0.0
N108 N 0.65928 0.84415 0.51894 0.0
H109 H 0.84792 0.87974 0.46418 0.0
H110 H 0.75904 0.80244 0.48537 0.0
H111 H 0.60737 0.83238 0.53344 0.0
H112 H 0.64449 0.78464 0.50567 0.0
H113 H 0.93992 0.26297 0.50629 0.0
H114 H 0.99742 0.21949 0.4863 0.0
H115 H 0.87587 0.24217 0.54629 0.0
H116 H 0.77074 0.16743 0.56073 0.0
C117 C 0.85757 0.69118 0.81126 0.0
C118 C 0.92853 0.78073 0.82354 0.0
C119 C 0.86812 0.7449 0.87404 0.0
C120 C 0.79097 0.66023 0.86109 0.0
N121 N 0.70608 0.55566 0.81687 0.0
N122 N 0.99397 0.89931 0.86546 0.0
C123 C 0.78427 0.63352 0.82958 0.0
C124 C 0.93217 0.80925 0.85468 0.0
N125 N 0.86141 0.6606 0.78235 0.0
N126 N 0.88103 0.76284 0.905 0.0
H127 H 0.04151 0.9494 0.852 0.0
H128 H 0.99265 0.92687 0.88699 0.0
H129 H 0.83616 0.71626 0.91991 0.0
H130 H 0.94056 0.81915 0.91601 0.0
H131 H 0.81732 0.59245 0.77318 0.0
H132 H 0.91362 0.70156 0.76826 0.0
H133 H 0.69223 0.53871 0.79349 0.0
H134 H 0.6517 0.51083 0.82958 0.0
C135 C 0.0526 0.82827 0.14555 0.0
C136 C 0.13464 0.91718 0.14707 0.0
C137 C 0.18378 0.88737 0.19613 0.0
C138 C 0.10551 0.7952 0.19309 0.0
N139 N 0.97649 0.67179 0.16165 0.0
N140 N 0.28371 0.02922 0.17152 0.0
C141 C 0.043 0.76401 0.16688 0.0
C142 C 0.20197 0.94631 0.17174 0.0
N143 N 0.98235 0.80598 0.12416 0.0
N144 N 0.23829 0.91972 0.22272 0.0
H145 H 0.29758 0.07466 0.15439 0.0
H146 H 0.33976 0.05016 0.1871 0.0
H147 H 0.22708 0.87849 0.24093 0.0
H148 H 0.29042 0.98905 0.22761 0.0
H149 H 0.9169 0.74634 0.1242 0.0
H150 H 0.98619 0.85115 0.10803 0.0
H151 H 0.93588 0.64326 0.14128 0.0
H152 H 0.96823 0.62182 0.17637 0.0
C153 C 0.27805 0.09077 0.51036 0.0
C154 C 0.32002 0.17053 0.49328 0.0
C155 C 0.46843 0.22743 0.52219 0.0
C156 C 0.42554 0.14759 0.53918 0.0
N157 N 0.28405 0.02574 0.55744 0.0
N158 N 0.4468 0.32727 0.48918 0.0
C159 C 0.32826 0.08737 0.53604 0.0
C160 C 0.41257 0.24332 0.50141 0.0
N161 N 0.19433 0.0142 0.50068 0.0
N162 N 0.56238 0.28461 0.52431 0.0
H163 H 0.40663 0.34098 0.47434 0.0
H164 H 0.5111 0.38554 0.49613 0.0
H165 H 0.60556 0.27611 0.53946 0.0
H166 H 0.59784 0.33715 0.50972 0.0
H167 H 0.16621 0.95135 0.51093 0.0
H168 H 0.1575 0.00905 0.48056 0.0
H169 H 0.21224 0.98538 0.55758 0.0
H170 H 0.31936 0.0237 0.57691 0.0
C171 C 0.21396 0.25943 0.84152 0.0
C172 C 0.24712 0.24606 0.81374 0.0
C173 C 0.38207 0.40397 0.82067 0.0
C174 C 0.35449 0.41302 0.85001 0.0
N175 N 0.2338 0.3664 0.88442 0.0
N176 N 0.34553 0.31101 0.77251 0.0
C177 C 0.26611 0.3465 0.85896 0.0
C178 C 0.32542 0.32078 0.80175 0.0
N179 N 0.13571 0.18718 0.85189 0.0
N180 N 0.46487 0.47348 0.81186 0.0
H181 H 0.30438 0.25033 0.75836 0.0
H182 H 0.39823 0.36444 0.76146 0.0
H183 H 0.50456 0.5368 0.8249 0.0
H184 H 0.49513 0.4684 0.79227 0.0
H185 H 0.11318 0.1883 0.87351 0.0
H186 H 0.09448 0.12385 0.83904 0.0
H187 H 0.16747 0.32377 0.89143 0.0
H188 H 0.27156 0.43032 0.89721 0.0
C189 C 0.94558 0.10884 0.6671 0.0
C190 C 0.93803 0.10099 0.69897 0.0
C191 C 0.79822 0.11026 0.69565 0.0
C192 C 0.8051 0.11682 0.66374 0.0
N193 N 0.89854 0.1493 0.62062 0.0
N194 N 0.87272 0.11872 0.74474 0.0
C195 C 0.88361 0.1257 0.65001 0.0
C196 C 0.869 0.10927 0.71363 0.0
N197 N 0.00792 0.09414 0.6528 0.0
N198 N 0.72266 0.10289 0.70858 0.0
H199 H 0.92447 0.11965 0.75857 0.0
H200 H 0.82977 0.13394 0.75684 0.0
H201 H 0.6734 0.11078 0.69645 0.0
H202 H 0.70687 0.08557 0.73086 0.0
H203 H 0.00924 0.0879 0.62922 0.0
H204 H 0.05364 0.08008 0.66433 0.0
H205 H 0.95881 0.1651 0.61023 0.0
H206 H 0.855 0.16267 0.60754 0.0
C207 C 0.80195 0.86872 0.03746 0.0
C208 C 0.88374 0.93819 0.02522 0.0
C209 C 0.80682 0.89562 0.97406 0.0
C210 C 0.72781 0.8212 0.98589 0.0
N211 N 0.63816 0.75222 0.02847 0.0
N212 N 0.95674 0.03725 0.98471 0.0
C213 C 0.7213 0.8137 0.01765 0.0
C214 C 0.8834 0.95838 0.99438 0.0
N215 N 0.80333 0.85152 0.06744 0.0
N216 N 0.8107 0.90206 0.94327 0.0
H217 H 0.01317 0.08458 0.99943 0.0
H218 H 0.95813 0.0601 0.96307 0.0
H219 H 0.75402 0.85916 0.928 0.0
H220 H 0.87053 0.94694 0.93278 0.0
H221 H 0.74933 0.79501 0.07702 0.0
H222 H 0.86081 0.8919 0.08266 0.0
H223 H 0.62606 0.74677 0.0515 0.0
H224 H 0.57874 0.71218 0.01396 0.0
C225 C 0.98901 0.86463 0.34087 0.0
C226 C 0.04514 0.8862 0.36818 0.0
C227 C 0.07717 0.76416 0.35428 0.0
C228 C 0.02735 0.74721 0.32575 0.0
N229 N 0.91493 0.76045 0.29514 0.0
N230 N 0.11456 0.83803 0.4057 0.0
C231 C 0.97501 0.78968 0.32033 0.0
C232 C 0.07885 0.82866 0.37658 0.0
N233 N 0.95444 0.9196 0.33385 0.0
N234 N 0.12818 0.72358 0.35917 0.0
H235 H 0.11624 0.88559 0.42226 0.0
H236 H 0.13378 0.79321 0.41415 0.0
H237 H 0.12847 0.6758 0.34328 0.0
H238 H 0.17436 0.74122 0.37804 0.0
H239 H 0.92195 0.91499 0.31281 0.0
H240 H 0.96137 0.9727 0.34907 0.0
H241 H 0.86996 0.78403 0.29082 0.0
H242 H 0.90457 0.70624 0.27977 0.0
C243 C 0.22404 0.85438 0.68424 0.0
C244 C 0.2369 0.94038 0.69637 0.0
C245 C 0.34018 0.02171 0.6564 0.0
C246 C 0.33661 0.93803 0.64655 0.0
N247 N 0.27932 0.77535 0.65146 0.0
N248 N 0.31479 0.10791 0.69651 0.0
C249 C 0.27884 0.8541 0.66036 0.0
C250 C 0.29632 0.02449 0.68296 0.0
N251 N 0.15832 0.77315 0.69529 0.0
N252 N 0.38385 0.0983 0.63993 0.0
H253 H 0.28334 0.11355 0.71577 0.0
H254 H 0.3667 0.17227 0.69013 0.0
H255 H 0.41823 0.10024 0.62057 0.0
H256 H 0.3791 0.15725 0.64379 0.0
H257 H 0.13896 0.70729 0.68568 0.0
H258 H 0.11765 0.77159 0.71281 0.0
H259 H 0.24677 0.71436 0.66271 0.0
H260 H 0.31731 0.7727 0.63369 0.0
C261 C 0.41005 0.35505 0.04073 0.0
C262 C 0.33016 0.2716 0.02831 0.0
C263 C 0.35408 0.33158 0.97752 0.0
C264 C 0.43523 0.41399 0.9898 0.0
N265 N 0.54891 0.50117 0.03125 0.0
N266 N 0.22885 0.17535 0.98472 0.0
C267 C 0.46567 0.42485 0.02094 0.0
C268 C 0.30351 0.25814 0.9966 0.0
N269 N 0.43178 0.36768 0.07145 0.0
N270 N 0.32231 0.32592 0.94803 0.0
H271 H 0.18314 0.12325 0.99799 0.0
H272 H 0.21378 0.15583 0.96151 0.0
H273 H 0.35856 0.37682 0.933 0.0
H274 H 0.25755 0.27376 0.93868 0.0
H275 H 0.48328 0.43022 0.08261 0.0
H276 H 0.39474 0.31625 0.08628 0.0
H277 H 0.57975 0.51071 0.053 0.0
H278 H 0.59114 0.55268 0.01712 0.0
C279 C 0.17955 0.34131 0.33259 0.0
C280 C 0.16761 0.34522 0.36434 0.0
C281 C 0.11321 0.45284 0.357 0.0
C282 C 0.13414 0.4562 0.32593 0.0
N283 N 0.20262 0.41583 0.28533 0.0
N284 N 0.14374 0.42145 0.40777 0.0
C285 C 0.17369 0.40553 0.31426 0.0
C286 C 0.14083 0.40625 0.37689 0.0
N287 N 0.18851 0.27135 0.3193 0.0
N288 N 0.06386 0.49091 0.36736 0.0
H289 H 0.16582 0.39022 0.42305 0.0
H290 H 0.13344 0.47214 0.41811 0.0
H291 H 0.04101 0.52454 0.35352 0.0
H292 H 0.03847 0.48173 0.38895 0.0
H293 H 0.1874 0.25959 0.29582 0.0
H294 H 0.18621 0.21813 0.33118 0.0
H295 H 0.24114 0.38827 0.27702 0.0
H296 H 0.19508 0.45809 0.27042 0.0
loop_
_geom_bond_atom_site_label_1
_geom_bond_atom_site_label_2
_geom_bond_distance
_geom_bond_site_symmetry_2
_ccdc_geom_bond_type
Zn0 O3 2.031 . S
Zn0 O5 2.049 1_565 S
Zn0 O10 2.067 . S
Zn1 O2 1.962 . S
Zn1 O4 1.986 . S
Zn1 O6 1.996 . S
Zn1 O9 1.943 . S
O2 Zn1 1.962 . S
O2 C7 1.254 1_545 S
O3 Zn0 2.031 . S
O3 C7 1.269 . S
O4 Zn1 1.986 . S
O4 C11 1.262 . S
O5 Zn0 2.049 1_545 S
O5 C13 1.260 . S
O6 Zn1 1.996 . S
O6 C13 1.257 . S
C7 O2 1.254 1_565 S
C7 O3 1.269 . S
C8 O9 1.249 1_665 S
C8 O10 1.270 1_655 S
O9 Zn1 1.943 . S
O9 C8 1.249 1_445 S
O10 Zn0 2.067 . S
O10 C8 1.270 1_455 S
C11 O4 1.262 . S
C11 O12 1.232 . S
O12 C11 1.232 . S
C13 O5 1.260 . S
C13 O6 1.257 . S
Zn14 O17 2.031 . S
Zn14 O19 2.049 . S
Zn14 O24 2.067 . S
Zn15 O16 1.962 . S
Zn15 O18 1.986 1_455 S
Zn15 O20 1.996 . S
Zn15 O23 1.943 . S
O16 Zn15 1.962 . S
O16 C21 1.254 . S
O17 Zn14 2.031 . S
O17 C21 1.269 . S
O18 Zn15 1.986 1_655 S
O18 C25 1.262 . S
O19 Zn14 2.049 . S
O19 C27 1.260 . S
O20 Zn15 1.996 . S
O20 C27 1.257 . S
C21 O16 1.254 . S
C21 O17 1.269 . S
C22 O23 1.249 1_565 S
C22 O24 1.270 1_565 S
O23 Zn15 1.943 . S
O23 C22 1.249 1_545 S
O24 Zn14 2.067 . S
O24 C22 1.270 1_545 S
C25 O18 1.262 . S
C25 O26 1.232 . S
O26 C25 1.232 . S
C27 O19 1.260 . S
C27 O20 1.257 . S
Zn28 O31 2.031 1_565 S
Zn28 O33 2.049 . S
Zn28 O38 2.067 1_565 S
Zn29 O30 1.962 1_545 S
Zn29 O32 1.986 1_455 S
Zn29 O34 1.996 1_445 S
Zn29 O37 1.943 . S
O30 Zn29 1.962 1_565 S
O30 C35 1.254 1_565 S
O31 Zn28 2.031 1_545 S
O31 C35 1.269 . S
O32 Zn29 1.986 1_655 S
O32 C39 1.262 . S
O33 Zn28 2.049 . S
O33 C41 1.260 1_455 S
O34 Zn29 1.996 1_665 S
O34 C41 1.257 . S
C35 O30 1.254 1_545 S
C35 O31 1.269 . S
C36 O37 1.249 . S
C36 O38 1.270 . S
O37 Zn29 1.943 . S
O37 C36 1.249 . S
O38 Zn28 2.067 1_545 S
O38 C36 1.270 . S
C39 O32 1.262 . S
C39 O40 1.232 1_655 S
O40 C39 1.232 1_455 S
C41 O33 1.260 1_655 S
C41 O34 1.257 . S
Mg42 O49 2.141 . S
Mg42 O50 2.048 . S
Mg42 O51 2.048 . S
Mg42 O54 2.141 . S
C43 O44 1.313 1_455 S
C43 O50 1.195 . S
O44 C43 1.313 1_655 S
C45 O46 1.245 1_455 S
C45 O54 1.289 . S
O46 C45 1.245 1_655 S
C47 O48 1.245 1_455 S
C47 O49 1.289 . S
O48 C47 1.245 1_655 S
O49 Mg42 2.141 . S
O49 C47 1.289 . S
O50 Mg42 2.048 . S
O50 C43 1.195 . S
O51 Mg42 2.048 . S
O51 C52 1.195 . S
C52 O51 1.195 . S
C52 O53 1.313 1_455 S
O53 C52 1.313 1_655 S
O54 Mg42 2.141 . S
O54 C45 1.289 . S
Mg55 O62 2.141 . S
Mg55 O63 2.048 . S
Mg55 O64 2.048 . S
Mg55 O67 2.141 . S
C56 O57 1.313 1_545 S
C56 O63 1.195 . S
O57 C56 1.313 1_565 S
C58 O59 1.245 1_545 S
C58 O67 1.289 . S
O59 C58 1.245 1_565 S
C60 O61 1.245 1_545 S
C60 O62 1.289 . S
O61 C60 1.245 1_565 S
O62 Mg55 2.141 . S
O62 C60 1.289 . S
O63 Mg55 2.048 . S
O63 C56 1.195 . S
O64 Mg55 2.048 . S
O64 C65 1.195 . S
C65 O64 1.195 . S
C65 O66 1.313 1_545 S
O66 C65 1.313 1_565 S
O67 Mg55 2.141 . S
O67 C58 1.289 . S
Mg68 O75 2.141 . S
Mg68 O76 2.048 . S
Mg68 O77 2.048 . S
Mg68 O80 2.141 . S
C69 O70 1.313 . S
C69 O76 1.195 . S
O70 C69 1.313 . S
C71 O72 1.245 . S
C71 O80 1.289 . S
O72 C71 1.245 . S
C73 O74 1.245 . S
C73 O75 1.289 . S
O74 C73 1.245 . S
O75 Mg68 2.141 . S
O75 C73 1.289 . S
O76 Mg68 2.048 . S
O76 C69 1.195 . S
O77 Mg68 2.048 . S
O77 C78 1.195 . S
C78 O77 1.195 . S
C78 O79 1.313 . S
O79 C78 1.313 . S
O80 Mg68 2.141 . S
O80 C71 1.289 . S
C81 C82 1.363 . S
C81 C87 1.379 . S
C81 N89 1.356 1_455 S
C82 C81 1.363 . S
C82 C88 1.363 . S
C83 C84 1.363 . S
C83 C88 1.379 . S
C83 N90 1.356 . S
C84 C83 1.363 . S
C84 C87 1.363 . S
N85 C87 1.356 . S
N85 H97 0.984 1_455 S
N85 H98 0.985 . S
N86 C88 1.356 . S
N86 H91 0.984 . S
N86 H92 0.985 . S
C87 C81 1.379 . S
C87 C84 1.363 . S
C87 N85 1.356 . S
C88 C82 1.363 . S
C88 C83 1.379 . S
C88 N86 1.356 . S
N89 C81 1.356 1_655 S
N89 H95 0.984 . S
N89 H96 0.984 . S
N90 C83 1.356 . S
N90 H93 0.984 . S
N90 H94 0.985 . S
H91 N86 0.984 . S
H92 N86 0.985 . S
H93 N90 0.984 . S
H94 N90 0.985 . S
H95 N89 0.984 . S
H96 N89 0.984 . S
H97 N85 0.984 1_655 S
H98 N85 0.985 . S
C99 C100 1.363 . S
C99 C105 1.379 . S
C99 N107 1.356 . S
C100 C99 1.363 . S
C100 C106 1.363 1_545 S
C101 C102 1.363 . S
C101 C106 1.379 1_545 S
C101 N108 1.356 1_545 S
C102 C101 1.363 . S
C102 C105 1.363 . S
N103 C105 1.356 . S
N103 H115 0.984 . S
N103 H116 0.985 . S
N104 C106 1.356 . S
N104 H109 0.984 . S
N104 H110 0.985 . S
C105 C99 1.379 . S
C105 C102 1.363 . S
C105 N103 1.356 . S
C106 C100 1.363 1_565 S
C106 C101 1.379 1_565 S
C106 N104 1.356 . S
N107 C99 1.356 . S
N107 H113 0.984 . S
N107 H114 0.984 . S
N108 C101 1.356 1_565 S
N108 H111 0.984 . S
N108 H112 0.985 . S
H109 N104 0.984 . S
H110 N104 0.985 . S
H111 N108 0.984 . S
H112 N108 0.985 . S
H113 N107 0.984 . S
H114 N107 0.984 . S
H115 N103 0.984 . S
H116 N103 0.985 . S
C117 C118 1.363 . S
C117 C123 1.379 . S
C117 N125 1.356 . S
C118 C117 1.363 . S
C118 C124 1.363 . S
C119 C120 1.363 . S
C119 C124 1.379 . S
C119 N126 1.356 . S
C120 C119 1.363 . S
C120 C123 1.363 . S
N121 C123 1.356 . S
N121 H133 0.984 . S
N121 H134 0.985 . S
N122 C124 1.356 . S
N122 H127 0.984 1_655 S
N122 H128 0.985 1_655 S
C123 C117 1.379 . S
C123 C120 1.363 . S
C123 N121 1.356 . S
C124 C118 1.363 . S
C124 C119 1.379 . S
C124 N122 1.356 . S
N125 C117 1.356 . S
N125 H131 0.984 . S
N125 H132 0.984 . S
N126 C119 1.356 . S
N126 H129 0.984 . S
N126 H130 0.985 . S
H127 N122 0.984 1_455 S
H128 N122 0.985 1_455 S
H129 N126 0.984 . S
H130 N126 0.985 . S
H131 N125 0.984 . S
H132 N125 0.984 . S
H133 N121 0.984 . S
H134 N121 0.985 . S
C135 C136 1.363 . S
C135 C141 1.379 . S
C135 N143 1.356 . S
C136 C135 1.363 . S
C136 C142 1.363 . S
C137 C138 1.363 . S
C137 C142 1.379 . S
C137 N144 1.356 . S
C138 C137 1.363 . S
C138 C141 1.363 . S
N139 C141 1.356 1_655 S
N139 H151 0.984 . S
N139 H152 0.985 . S
N140 C142 1.356 1_545 S
N140 H145 0.984 . S
N140 H146 0.985 . S
C141 C135 1.379 . S
C141 C138 1.363 . S
C141 N139 1.356 1_455 S
C142 C136 1.363 . S
C142 C137 1.379 . S
C142 N140 1.356 1_565 S
N143 C135 1.356 . S
N143 H149 0.984 1_455 S
N143 H150 0.984 . S
N144 C137 1.356 . S
N144 H147 0.984 . S
N144 H148 0.985 . S
H145 N140 0.984 . S
H146 N140 0.985 . S
H147 N144 0.984 . S
H148 N144 0.985 . S
H149 N143 0.984 1_655 S
H150 N143 0.984 . S
H151 N139 0.984 . S
H152 N139 0.985 . S
C153 C154 1.363 . S
C153 C159 1.379 . S
C153 N161 1.356 . S
C154 C153 1.363 . S
C154 C160 1.363 . S
C155 C156 1.363 . S
C155 C160 1.379 . S
C155 N162 1.356 . S
C156 C155 1.363 . S
C156 C159 1.363 . S
N157 C159 1.356 . S
N157 H169 0.984 1_545 S
N157 H170 0.985 . S
N158 C160 1.356 . S
N158 H163 0.984 . S
N158 H164 0.985 . S
C159 C153 1.379 . S
C159 C156 1.363 . S
C159 N157 1.356 . S
C160 C154 1.363 . S
C160 C155 1.379 . S
C160 N158 1.356 . S
N161 C153 1.356 . S
N161 H167 0.984 . S
N161 H168 0.984 . S
N162 C155 1.356 . S
N162 H165 0.984 . S
N162 H166 0.985 . S
H163 N158 0.984 . S
H164 N158 0.985 . S
H165 N162 0.984 . S
H166 N162 0.985 . S
H167 N161 0.984 . S
H168 N161 0.984 . S
H169 N157 0.984 1_565 S
H170 N157 0.985 . S
C171 C172 1.363 . S
C171 C177 1.379 . S
C171 N179 1.356 . S
C172 C171 1.363 . S
C172 C178 1.363 . S
C173 C174 1.363 . S
C173 C178 1.379 . S
C173 N180 1.356 . S
C174 C173 1.363 . S
C174 C177 1.363 . S
N175 C177 1.356 . S
N175 H187 0.984 . S
N175 H188 0.985 . S
N176 C178 1.356 . S
N176 H181 0.984 . S
N176 H182 0.985 . S
C177 C171 1.379 . S
C177 C174 1.363 . S
C177 N175 1.356 . S
C178 C172 1.363 . S
C178 C173 1.379 . S
C178 N176 1.356 . S
N179 C171 1.356 . S
N179 H185 0.984 . S
N179 H186 0.984 . S
N180 C173 1.356 . S
N180 H183 0.984 . S
N180 H184 0.985 . S
H181 N176 0.984 . S
H182 N176 0.985 . S
H183 N180 0.984 . S
H184 N180 0.985 . S
H185 N179 0.984 . S
H186 N179 0.984 . S
H187 N175 0.984 . S
H188 N175 0.985 . S
C189 C190 1.363 . S
C189 C195 1.379 1_545 S
C189 N197 1.356 1_545 S
C190 C189 1.363 . S
C190 C196 1.363 . S
C191 C192 1.363 . S
C191 C196 1.379 . S
C191 N198 1.356 . S
C192 C191 1.363 . S
C192 C195 1.362 1_545 S
N193 C195 1.357 . S
N193 H205 0.984 . S
N193 H206 0.985 . S
N194 C196 1.356 . S
N194 H199 0.984 . S
N194 H200 0.985 . S
C195 C189 1.379 1_565 S
C195 C192 1.362 1_565 S
C195 N193 1.357 . S
C196 C190 1.363 . S
C196 C191 1.379 . S
C196 N194 1.356 . S
N197 C189 1.356 1_565 S
N197 H203 0.984 . S
N197 H204 0.984 . S
N198 C191 1.356 . S
N198 H201 0.984 . S
N198 H202 0.985 . S
H199 N194 0.984 . S
H200 N194 0.985 . S
H201 N198 0.984 . S
H202 N198 0.985 . S
H203 N197 0.984 . S
H204 N197 0.984 . S
H205 N193 0.984 . S
H206 N193 0.985 . S
C207 C208 1.363 . S
C207 C213 1.379 . S
C207 N215 1.356 . S
C208 C207 1.363 . S
C208 C214 1.363 . S
C209 C210 1.363 . S
C209 C214 1.379 1_556 S
C209 N216 1.356 . S
C210 C209 1.363 . S
C210 C213 1.363 1_556 S
N211 C213 1.356 . S
N211 H223 0.984 . S
N211 H224 0.985 1_554 S
N212 C214 1.356 . S
N212 H217 0.984 1_565 S
N212 H218 0.985 1_565 S
C213 C207 1.379 . S
C213 C210 1.363 1_554 S
C213 N211 1.356 . S
C214 C208 1.363 . S
C214 C209 1.379 1_554 S
C214 N212 1.356 . S
N215 C207 1.356 . S
N215 H221 0.984 . S
N215 H222 0.984 1_655 S
N216 C209 1.356 . S
N216 H219 0.984 . S
N216 H220 0.985 . S
H217 N212 0.984 1_545 S
H218 N212 0.985 1_545 S
H219 N216 0.984 . S
H220 N216 0.985 . S
H221 N215 0.984 . S
H222 N215 0.984 1_455 S
H223 N211 0.984 . S
H224 N211 0.985 1_556 S
C225 C226 1.363 1_655 S
C225 C231 1.379 . S
C225 N233 1.356 . S
C226 C225 1.363 1_455 S
C226 C232 1.363 . S
C227 C228 1.363 . S
C227 C232 1.379 . S
C227 N234 1.356 . S
C228 C227 1.363 . S
C228 C231 1.363 1_455 S
N229 C231 1.356 . S
N229 H241 0.984 . S
N229 H242 0.985 . S
N230 C232 1.356 1_545 S
N230 H235 0.984 . S
N230 H236 0.985 . S
C231 C225 1.379 . S
C231 C228 1.363 1_655 S
C231 N229 1.356 . S
C232 C226 1.363 . S
C232 C227 1.379 . S
C232 N230 1.356 1_565 S
N233 C225 1.356 . S
N233 H239 0.984 . S
N233 H240 0.984 . S
N234 C227 1.356 . S
N234 H237 0.984 . S
N234 H238 0.985 . S
H235 N230 0.984 . S
H236 N230 0.985 . S
H237 N234 0.984 . S
H238 N234 0.985 . S
H239 N233 0.984 . S
H240 N233 0.984 . S
H241 N229 0.984 . S
H242 N229 0.985 . S
C243 C244 1.363 1_565 S
C243 C249 1.379 . S
C243 N251 1.356 . S
C244 C243 1.363 1_545 S
C244 C250 1.363 . S
C245 C246 1.363 . S
C245 C250 1.379 . S
C245 N252 1.356 . S
C246 C245 1.363 . S
C246 C249 1.363 1_545 S
N247 C249 1.356 . S
N247 H259 0.984 . S
N247 H260 0.985 . S
N248 C250 1.356 . S
N248 H253 0.984 . S
N248 H254 0.985 . S
C249 C243 1.379 . S
C249 C246 1.363 1_565 S
C249 N247 1.356 . S
C250 C244 1.363 . S
C250 C245 1.379 . S
C250 N248 1.356 . S
N251 C243 1.356 . S
N251 H257 0.984 . S
N251 H258 0.984 . S
N252 C245 1.356 . S
N252 H255 0.984 . S
N252 H256 0.985 . S
H253 N248 0.984 . S
H254 N248 0.985 . S
H255 N252 0.984 . S
H256 N252 0.985 . S
H257 N251 0.984 . S
H258 N251 0.984 . S
H259 N247 0.984 . S
H260 N247 0.985 . S
C261 C262 1.363 . S
C261 C267 1.379 1_554 S
C261 N269 1.356 . S
C262 C261 1.363 . S
C262 C268 1.363 . S
C263 C264 1.363 1_554 S
C263 C268 1.379 . S
C263 N270 1.356 . S
C264 C263 1.363 1_556 S
C264 C267 1.363 . S
N265 C267 1.356 . S
N265 H277 0.984 . S
N265 H278 0.985 . S
N266 C268 1.356 . S
N266 H271 0.984 . S
N266 H272 0.985 . S
C267 C261 1.379 1_556 S
C267 C264 1.363 . S
C267 N265 1.356 . S
C268 C262 1.363 . S
C268 C263 1.379 . S
C268 N266 1.356 . S
N269 C261 1.356 . S
N269 H275 0.984 . S
N269 H276 0.984 . S
N270 C263 1.356 . S
N270 H273 0.984 1_554 S
N270 H274 0.985 . S
H271 N266 0.984 . S
H272 N266 0.985 . S
H273 N270 0.984 1_556 S
H274 N270 0.985 . S
H275 N269 0.984 . S
H276 N269 0.984 . S
H277 N265 0.984 . S
H278 N265 0.985 . S
C279 C280 1.363 . S
C279 C285 1.379 . S
C279 N287 1.356 . S
C280 C279 1.363 . S
C280 C286 1.363 . S
C281 C282 1.363 . S
C281 C286 1.379 . S
C281 N288 1.356 . S
C282 C281 1.363 . S
C282 C285 1.363 . S
N283 C285 1.356 . S
N283 H295 0.984 . S
N283 H296 0.985 . S
N284 C286 1.356 . S
N284 H289 0.984 . S
N284 H290 0.985 . S
C285 C279 1.379 . S
C285 C282 1.363 . S
C285 N283 1.356 . S
C286 C280 1.363 . S
C286 C281 1.379 . S
C286 N284 1.356 . S
N287 C279 1.356 . S
N287 H293 0.984 . S
N287 H294 0.984 . S
N288 C281 1.356 . S
N288 H291 0.984 . S
N288 H292 0.985 . S
H289 N284 0.984 . S
H290 N284 0.985 . S
H291 N288 0.984 . S
H292 N288 0.985 . S
H293 N287 0.984 . S
H294 N287 0.984 . S
H295 N283 0.984 . S
H296 N283 0.985 . S
C84 C47 1.328 . S
C82 C11 1.318 . S
C100 C25 1.430 . S
C102 C65 1.445 . S
C118 C41 1.409 . S
C120 C78 1.464 . S
C136 C7 1.397 . S
C138 C45 1.398 . S
C156 C56 1.501 . S
C154 C21 1.496 . S
C172 C36 1.424 . S
C174 C69 1.511 . S
C192 C58 1.391 . S
C190 C39 1.363 . S
C208 C8 1.361 . S
C210 C71 1.448 . S
C228 C52 1.536 . S
C226 C22 1.468 . S
C246 C60 1.415 . S
C244 C35 1.434 . S
C264 C73 1.400 . S
C262 C13 1.343 . S
C280 C27 1.455 . S
C282 C43 1.505 . S
