# Generated by pormake.
# Topology iac, (4,6)-cn, num edge types: 1
# Building blocks:
#     Node 0, Type 0, BuildingBlock: GALJAG_clean_sbu_0, # of connection points: 4
#     Node 1, Type 0, BuildingBlock: GALJAG_clean_sbu_0, # of connection points: 4
#     Node 2, Type 0, BuildingBlock: GALJAG_clean_sbu_0, # of connection points: 4
#     Node 3, Type 0, BuildingBlock: GALJAG_clean_sbu_0, # of connection points: 4
#     Node 4, Type 0, BuildingBlock: GALJAG_clean_sbu_0, # of connection points: 4
#     Node 5, Type 0, BuildingBlock: GALJAG_clean_sbu_0, # of connection points: 4
#     Node 6, Type 0, BuildingBlock: GALJAG_clean_sbu_0, # of connection points: 4
#     Node 7, Type 0, BuildingBlock: GALJAG_clean_sbu_0, # of connection points: 4
#     Node 8, Type 0, BuildingBlock: GALJAG_clean_sbu_0, # of connection points: 4
#     Node 9, Type 0, BuildingBlock: GALJAG_clean_sbu_0, # of connection points: 4
#     Node 10, Type 0, BuildingBlock: GALJAG_clean_sbu_0, # of connection points: 4
#     Node 11, Type 0, BuildingBlock: GALJAG_clean_sbu_0, # of connection points: 4
#     Node 12, Type 0, BuildingBlock: GALJAG_clean_sbu_0, # of connection points: 4
#     Node 13, Type 0, BuildingBlock: GALJAG_clean_sbu_0, # of connection points: 4
#     Node 14, Type 0, BuildingBlock: GALJAG_clean_sbu_0, # of connection points: 4
#     Node 15, Type 0, BuildingBlock: GALJAG_clean_sbu_0, # of connection points: 4
#     Node 16, Type 0, BuildingBlock: GALJAG_clean_sbu_0, # of connection points: 4
#     Node 17, Type 0, BuildingBlock: GALJAG_clean_sbu_0, # of connection points: 4
#     Node 18, Type 0, BuildingBlock: GALJAG_clean_sbu_0, # of connection points: 4
#     Node 19, Type 0, BuildingBlock: GALJAG_clean_sbu_0, # of connection points: 4
#     Node 20, Type 0, BuildingBlock: GALJAG_clean_sbu_0, # of connection points: 4
#     Node 21, Type 0, BuildingBlock: GALJAG_clean_sbu_0, # of connection points: 4
#     Node 22, Type 0, BuildingBlock: GALJAG_clean_sbu_0, # of connection points: 4
#     Node 23, Type 0, BuildingBlock: GALJAG_clean_sbu_0, # of connection points: 4
#     Node 24, Type 1, BuildingBlock: JUFBIX_clean_sbu_0, # of connection points: 6
#     Node 25, Type 1, BuildingBlock: JUFBIX_clean_sbu_0, # of connection points: 6
#     Node 26, Type 1, BuildingBlock: JUFBIX_clean_sbu_0, # of connection points: 6
#     Node 27, Type 1, BuildingBlock: JUFBIX_clean_sbu_0, # of connection points: 6
#     Node 28, Type 1, BuildingBlock: JUFBIX_clean_sbu_0, # of connection points: 6
#     Node 29, Type 1, BuildingBlock: JUFBIX_clean_sbu_0, # of connection points: 6
#     Node 30, Type 1, BuildingBlock: JUFBIX_clean_sbu_0, # of connection points: 6
#     Node 31, Type 1, BuildingBlock: JUFBIX_clean_sbu_0, # of connection points: 6
#     Node 32, Type 1, BuildingBlock: JUFBIX_clean_sbu_0, # of connection points: 6
#     Node 33, Type 1, BuildingBlock: JUFBIX_clean_sbu_0, # of connection points: 6
#     Node 34, Type 1, BuildingBlock: JUFBIX_clean_sbu_0, # of connection points: 6
#     Node 35, Type 1, BuildingBlock: JUFBIX_clean_sbu_0, # of connection points: 6
#     Node 36, Type 1, BuildingBlock: JUFBIX_clean_sbu_0, # of connection points: 6
#     Node 37, Type 1, BuildingBlock: JUFBIX_clean_sbu_0, # of connection points: 6
#     Node 38, Type 1, BuildingBlock: JUFBIX_clean_sbu_0, # of connection points: 6
#     Node 39, Type 1, BuildingBlock: JUFBIX_clean_sbu_0, # of connection points: 6
#     Edge 40, Type (0, 1), BuildingBlock: KIFKEQ_clean_linker_1, # of connection points: 2
#     Edge 41, Type (0, 1), BuildingBlock: KIFKEQ_clean_linker_1, # of connection points: 2
#     Edge 42, Type (0, 1), BuildingBlock: KIFKEQ_clean_linker_1, # of connection points: 2
#     Edge 43, Type (0, 1), BuildingBlock: KIFKEQ_clean_linker_1, # of connection points: 2
#     Edge 44, Type (0, 1), BuildingBlock: KIFKEQ_clean_linker_1, # of connection points: 2
#     Edge 45, Type (0, 1), BuildingBlock: KIFKEQ_clean_linker_1, # of connection points: 2
#     Edge 46, Type (0, 1), BuildingBlock: KIFKEQ_clean_linker_1, # of connection points: 2
#     Edge 47, Type (0, 1), BuildingBlock: KIFKEQ_clean_linker_1, # of connection points: 2
#     Edge 48, Type (0, 1), BuildingBlock: KIFKEQ_clean_linker_1, # of connection points: 2
#     Edge 49, Type (0, 1), BuildingBlock: KIFKEQ_clean_linker_1, # of connection points: 2
#     Edge 50, Type (0, 1), BuildingBlock: KIFKEQ_clean_linker_1, # of connection points: 2
#     Edge 51, Type (0, 1), BuildingBlock: KIFKEQ_clean_linker_1, # of connection points: 2
#     Edge 52, Type (0, 1), BuildingBlock: KIFKEQ_clean_linker_1, # of connection points: 2
#     Edge 53, Type (0, 1), BuildingBlock: KIFKEQ_clean_linker_1, # of connection points: 2
#     Edge 54, Type (0, 1), BuildingBlock: KIFKEQ_clean_linker_1, # of connection points: 2
#     Edge 55, Type (0, 1), BuildingBlock: KIFKEQ_clean_linker_1, # of connection points: 2
#     Edge 56, Type (0, 1), BuildingBlock: KIFKEQ_clean_linker_1, # of connection points: 2
#     Edge 57, Type (0, 1), BuildingBlock: KIFKEQ_clean_linker_1, # of connection points: 2
#     Edge 58, Type (0, 1), BuildingBlock: KIFKEQ_clean_linker_1, # of connection points: 2
#     Edge 59, Type (0, 1), BuildingBlock: KIFKEQ_clean_linker_1, # of connection points: 2
#     Edge 60, Type (0, 1), BuildingBlock: KIFKEQ_clean_linker_1, # of connection points: 2
#     Edge 61, Type (0, 1), BuildingBlock: KIFKEQ_clean_linker_1, # of connection points: 2
#     Edge 62, Type (0, 1), BuildingBlock: KIFKEQ_clean_linker_1, # of connection points: 2
#     Edge 63, Type (0, 1), BuildingBlock: KIFKEQ_clean_linker_1, # of connection points: 2
#     Edge 64, Type (0, 1), BuildingBlock: KIFKEQ_clean_linker_1, # of connection points: 2
#     Edge 65, Type (0, 1), BuildingBlock: KIFKEQ_clean_linker_1, # of connection points: 2
#     Edge 66, Type (0, 1), BuildingBlock: KIFKEQ_clean_linker_1, # of connection points: 2
#     Edge 67, Type (0, 1), BuildingBlock: KIFKEQ_clean_linker_1, # of connection points: 2
#     Edge 68, Type (0, 1), BuildingBlock: KIFKEQ_clean_linker_1, # of connection points: 2
#     Edge 69, Type (0, 1), BuildingBlock: KIFKEQ_clean_linker_1, # of connection points: 2
#     Edge 70, Type (0, 1), BuildingBlock: KIFKEQ_clean_linker_1, # of connection points: 2
#     Edge 71, Type (0, 1), BuildingBlock: KIFKEQ_clean_linker_1, # of connection points: 2
#     Edge 72, Type (0, 1), BuildingBlock: KIFKEQ_clean_linker_1, # of connection points: 2
#     Edge 73, Type (0, 1), BuildingBlock: KIFKEQ_clean_linker_1, # of connection points: 2
#     Edge 74, Type (0, 1), BuildingBlock: KIFKEQ_clean_linker_1, # of connection points: 2
#     Edge 75, Type (0, 1), BuildingBlock: KIFKEQ_clean_linker_1, # of connection points: 2
#     Edge 76, Type (0, 1), BuildingBlock: KIFKEQ_clean_linker_1, # of connection points: 2
#     Edge 77, Type (0, 1), BuildingBlock: KIFKEQ_clean_linker_1, # of connection points: 2
#     Edge 78, Type (0, 1), BuildingBlock: KIFKEQ_clean_linker_1, # of connection points: 2
#     Edge 79, Type (0, 1), BuildingBlock: KIFKEQ_clean_linker_1, # of connection points: 2
#     Edge 80, Type (0, 1), BuildingBlock: KIFKEQ_clean_linker_1, # of connection points: 2
#     Edge 81, Type (0, 1), BuildingBlock: KIFKEQ_clean_linker_1, # of connection points: 2
#     Edge 82, Type (0, 1), BuildingBlock: KIFKEQ_clean_linker_1, # of connection points: 2
#     Edge 83, Type (0, 1), BuildingBlock: KIFKEQ_clean_linker_1, # of connection points: 2
#     Edge 84, Type (0, 1), BuildingBlock: KIFKEQ_clean_linker_1, # of connection points: 2
#     Edge 85, Type (0, 1), BuildingBlock: KIFKEQ_clean_linker_1, # of connection points: 2
#     Edge 86, Type (0, 1), BuildingBlock: KIFKEQ_clean_linker_1, # of connection points: 2
#     Edge 87, Type (0, 1), BuildingBlock: KIFKEQ_clean_linker_1, # of connection points: 2
#     Edge 88, Type (0, 1), BuildingBlock: KIFKEQ_clean_linker_1, # of connection points: 2
#     Edge 89, Type (0, 1), BuildingBlock: KIFKEQ_clean_linker_1, # of connection points: 2
#     Edge 90, Type (0, 1), BuildingBlock: KIFKEQ_clean_linker_1, # of connection points: 2
#     Edge 91, Type (0, 1), BuildingBlock: KIFKEQ_clean_linker_1, # of connection points: 2
#     Edge 92, Type (0, 1), BuildingBlock: KIFKEQ_clean_linker_1, # of connection points: 2
#     Edge 93, Type (0, 1), BuildingBlock: KIFKEQ_clean_linker_1, # of connection points: 2
#     Edge 94, Type (0, 1), BuildingBlock: KIFKEQ_clean_linker_1, # of connection points: 2
#     Edge 95, Type (0, 1), BuildingBlock: KIFKEQ_clean_linker_1, # of connection points: 2
#     Edge 96, Type (0, 1), BuildingBlock: KIFKEQ_clean_linker_1, # of connection points: 2
#     Edge 97, Type (0, 1), BuildingBlock: KIFKEQ_clean_linker_1, # of connection points: 2
#     Edge 98, Type (0, 1), BuildingBlock: KIFKEQ_clean_linker_1, # of connection points: 2
#     Edge 99, Type (0, 1), BuildingBlock: KIFKEQ_clean_linker_1, # of connection points: 2
#     Edge 100, Type (0, 1), BuildingBlock: KIFKEQ_clean_linker_1, # of connection points: 2
#     Edge 101, Type (0, 1), BuildingBlock: KIFKEQ_clean_linker_1, # of connection points: 2
#     Edge 102, Type (0, 1), BuildingBlock: KIFKEQ_clean_linker_1, # of connection points: 2
#     Edge 103, Type (0, 1), BuildingBlock: KIFKEQ_clean_linker_1, # of connection points: 2
#     Edge 104, Type (0, 1), BuildingBlock: KIFKEQ_clean_linker_1, # of connection points: 2
#     Edge 105, Type (0, 1), BuildingBlock: KIFKEQ_clean_linker_1, # of connection points: 2
#     Edge 106, Type (0, 1), BuildingBlock: KIFKEQ_clean_linker_1, # of connection points: 2
#     Edge 107, Type (0, 1), BuildingBlock: KIFKEQ_clean_linker_1, # of connection points: 2
#     Edge 108, Type (0, 1), BuildingBlock: KIFKEQ_clean_linker_1, # of connection points: 2
#     Edge 109, Type (0, 1), BuildingBlock: KIFKEQ_clean_linker_1, # of connection points: 2
#     Edge 110, Type (0, 1), BuildingBlock: KIFKEQ_clean_linker_1, # of connection points: 2
#     Edge 111, Type (0, 1), BuildingBlock: KIFKEQ_clean_linker_1, # of connection points: 2
#     Edge 112, Type (0, 1), BuildingBlock: KIFKEQ_clean_linker_1, # of connection points: 2
#     Edge 113, Type (0, 1), BuildingBlock: KIFKEQ_clean_linker_1, # of connection points: 2
#     Edge 114, Type (0, 1), BuildingBlock: KIFKEQ_clean_linker_1, # of connection points: 2
#     Edge 115, Type (0, 1), BuildingBlock: KIFKEQ_clean_linker_1, # of connection points: 2
#     Edge 116, Type (0, 1), BuildingBlock: KIFKEQ_clean_linker_1, # of connection points: 2
#     Edge 117, Type (0, 1), BuildingBlock: KIFKEQ_clean_linker_1, # of connection points: 2
#     Edge 118, Type (0, 1), BuildingBlock: KIFKEQ_clean_linker_1, # of connection points: 2
#     Edge 119, Type (0, 1), BuildingBlock: KIFKEQ_clean_linker_1, # of connection points: 2
#     Edge 120, Type (0, 1), BuildingBlock: KIFKEQ_clean_linker_1, # of connection points: 2
#     Edge 121, Type (0, 1), BuildingBlock: KIFKEQ_clean_linker_1, # of connection points: 2
#     Edge 122, Type (0, 1), BuildingBlock: KIFKEQ_clean_linker_1, # of connection points: 2
#     Edge 123, Type (0, 1), BuildingBlock: KIFKEQ_clean_linker_1, # of connection points: 2
#     Edge 124, Type (0, 1), BuildingBlock: KIFKEQ_clean_linker_1, # of connection points: 2
#     Edge 125, Type (0, 1), BuildingBlock: KIFKEQ_clean_linker_1, # of connection points: 2
#     Edge 126, Type (0, 1), BuildingBlock: KIFKEQ_clean_linker_1, # of connection points: 2
#     Edge 127, Type (0, 1), BuildingBlock: KIFKEQ_clean_linker_1, # of connection points: 2
#     Edge 128, Type (0, 1), BuildingBlock: KIFKEQ_clean_linker_1, # of connection points: 2
#     Edge 129, Type (0, 1), BuildingBlock: KIFKEQ_clean_linker_1, # of connection points: 2
#     Edge 130, Type (0, 1), BuildingBlock: KIFKEQ_clean_linker_1, # of connection points: 2
#     Edge 131, Type (0, 1), BuildingBlock: KIFKEQ_clean_linker_1, # of connection points: 2
#     Edge 132, Type (0, 1), BuildingBlock: KIFKEQ_clean_linker_1, # of connection points: 2
#     Edge 133, Type (0, 1), BuildingBlock: KIFKEQ_clean_linker_1, # of connection points: 2
#     Edge 134, Type (0, 1), BuildingBlock: KIFKEQ_clean_linker_1, # of connection points: 2
#     Edge 135, Type (0, 1), BuildingBlock: KIFKEQ_clean_linker_1, # of connection points: 2
# Relax obj value: 0.258
# Max RMSD: 0.235
# Mean RMSD: 0.155
data_MOF--net-iac--node1-GALJAG_clean_sbu_0--node2-JUFBIX_clean_sbu_0--edge1-KIFKEQ_clean_linker_1
_symmetry_space_group_name_H-M    P1
_symmetry_Int_Tables_number       1
_symmetry_cell_setting            triclinic
loop_
_symmetry_equiv_pos_as_xyz
'x, y, z'
_cell_length_a     55.198251
_cell_length_b     56.577463
_cell_length_c     56.096783
_cell_angle_alpha  89.300958
_cell_angle_beta   88.218699
_cell_angle_gamma 88.780376
loop_
_atom_site_label
_atom_site_type_symbol
_atom_site_fract_x
_atom_site_fract_y
_atom_site_fract_z
_atom_type_partial_charge
In0 In 0.02744 0.28139 0.14889 0.0
O1 O 0.03367 0.25593 0.1162 0.0
O2 O 0.02158 0.24063 0.14865 0.0
C3 C 0.02678 0.32526 0.12539 0.0
C4 C 0.98258 0.28442 0.1721 0.0
C5 C 0.07006 0.27939 0.17422 0.0
O6 O 0.0242 0.30589 0.11484 0.0
O7 O 0.02989 0.32252 0.14745 0.0
O8 O 0.04931 0.27598 0.18354 0.0
O9 O 0.06956 0.28344 0.15203 0.0
C10 C 0.02734 0.23719 0.12701 0.0
O11 O 1.00231 0.28676 0.18252 0.0
O12 O 0.98536 0.28076 0.15002 0.0
In13 In 0.05127 0.76276 0.40364 0.0
O14 O 0.07614 0.74691 0.375 0.0
O15 O 0.09093 0.77223 0.39788 0.0
C16 C 0.01753 0.77007 0.37079 0.0
C17 C 0.05477 0.72348 0.43025 0.0
C18 C 0.03628 0.79727 0.43328 0.0
O19 O 0.03535 0.78347 0.37259 0.0
O20 O 0.01713 0.75278 0.38519 0.0
O21 O 0.02664 0.77727 0.43335 0.0
O22 O 0.05394 0.79965 0.41863 0.0
C23 C 0.09451 0.75803 0.38088 0.0
O24 O 0.06555 0.7421 0.43541 0.0
O25 O 0.04197 0.72496 0.41203 0.0
In26 In 0.53058 0.77986 0.6483 0.0
O27 O 0.53561 0.80434 0.61436 0.0
O28 O 0.5274 0.82101 0.64705 0.0
C29 C 0.53016 0.73561 0.62657 0.0
C30 C 0.57323 0.77962 0.6733 0.0
C31 C 0.4855 0.78111 0.67135 0.0
O32 O 0.52469 0.75474 0.616 0.0
O33 O 0.53648 0.73874 0.64771 0.0
O34 O 0.50509 0.78331 0.68204 0.0
O35 O 0.48857 0.77827 0.64919 0.0
C36 C 0.53165 0.82372 0.62496 0.0
O37 O 0.55261 0.77603 0.6829 0.0
O38 O 0.57255 0.7831 0.65101 0.0
In39 In 0.55141 0.27484 0.90957 0.0
O40 O 0.57562 0.30346 0.89327 0.0
O41 O 0.59238 0.27334 0.90919 0.0
C42 C 0.52594 0.26523 0.87084 0.0
C43 C 0.55854 0.23392 0.93278 0.0
C44 C 0.52606 0.30535 0.93755 0.0
O45 O 0.54309 0.27961 0.8703 0.0
O46 O 0.52226 0.25509 0.89072 0.0
O47 O 0.54702 0.29786 0.94242 0.0
O48 O 0.51805 0.29777 0.91839 0.0
C49 C 0.59508 0.29272 0.89829 0.0
O50 O 0.54676 0.25104 0.94199 0.0
O51 O 0.56624 0.23729 0.9116 0.0
In52 In 0.15533 0.0034 0.30075 0.0
O53 O 0.17549 0.974 0.32032 0.0
O54 O 0.18728 0.98308 0.28487 0.0
C55 C 0.18225 0.04179 0.3052 0.0
C56 C 0.13103 0.99982 0.26046 0.0
C57 C 0.11687 0.00189 0.33102 0.0
O58 O 0.17645 0.02895 0.32294 0.0
O59 O 0.17457 0.03512 0.28554 0.0
O60 O 0.12961 0.98369 0.32621 0.0
O61 O 0.12408 0.02073 0.32127 0.0
C62 C 0.19018 0.97008 0.30303 0.0
O63 O 0.13213 0.01878 0.27183 0.0
O64 O 0.14236 0.98242 0.26935 0.0
In65 In 0.25682 0.88696 0.53373 0.0
O66 O 0.23189 0.91716 0.52282 0.0
O67 O 0.21571 0.88456 0.53275 0.0
C68 C 0.29842 0.91034 0.5292 0.0
C69 C 0.25317 0.87578 0.58032 0.0
C70 C 0.26586 0.85743 0.4973 0.0
O71 O 0.27798 0.92067 0.52827 0.0
O72 O 0.2978 0.88843 0.53354 0.0
O73 O 0.26528 0.85026 0.51869 0.0
O74 O 0.26074 0.87906 0.49442 0.0
C75 C 0.21269 0.90573 0.52599 0.0
O76 O 0.25186 0.86064 0.56411 0.0
O77 O 0.25668 0.89664 0.57304 0.0
In78 In 0.40102 0.04176 0.75953 0.0
O79 O 0.36843 0.06652 0.761 0.0
O80 O 0.40058 0.0782 0.74271 0.0
C81 C 0.3818 0.00556 0.78437 0.0
C82 C 0.40955 0.02441 0.71578 0.0
C83 C 0.43549 0.05714 0.78782 0.0
O84 O 0.36921 0.02318 0.77784 0.0
O85 O 0.40388 0.00617 0.77812 0.0
O86 O 0.44027 0.04824 0.76768 0.0
O87 O 0.41321 0.05874 0.79345 0.0
C88 C 0.37884 0.08265 0.74906 0.0
O89 O 0.42539 0.02456 0.73146 0.0
O90 O 0.38893 0.03219 0.72247 0.0
In91 In 0.27518 0.15903 0.03086 0.0
O92 O 0.30015 0.1259 0.0245 0.0
O93 O 0.31714 0.15809 0.03131 0.0
C94 C 0.23195 0.13459 0.03163 0.0
C95 C 0.27476 0.1799 0.07583 0.0
C96 C 0.27734 0.18265 0.987 0.0
O97 O 0.25229 0.125 0.03575 0.0
O98 O 0.23319 0.15657 0.02759 0.0
O99 O 0.27991 0.19294 0.00662 0.0
O100 O 0.27332 0.16089 0.98954 0.0
C101 C 0.3199 0.13638 0.02682 0.0
O102 O 0.26908 0.191 0.05702 0.0
O103 O 0.28015 0.15845 0.07208 0.0
In104 In 0.75912 0.39214 0.04499 0.0
O105 O 0.74648 0.36448 0.07172 0.0
O106 O 0.74914 0.39988 0.08375 0.0
C107 C 0.78662 0.36638 0.01451 0.0
C108 C 0.71786 0.40246 0.02247 0.0
C109 C 0.79304 0.42359 0.05358 0.0
O110 O 0.77799 0.35739 0.03354 0.0
O111 O 0.78048 0.38757 0.01061 0.0
O112 O 0.77197 0.42982 0.04742 0.0
O113 O 0.79627 0.40163 0.05694 0.0
C114 C 0.7438 0.37879 0.0887 0.0
O115 O 0.73479 0.41691 0.02381 0.0
O116 O 0.72181 0.38271 0.03229 0.0
In117 In 0.90549 0.5545 0.26462 0.0
O118 O 0.9331 0.56553 0.23666 0.0
O119 O 0.90235 0.54717 0.2251 0.0
C120 C 0.93818 0.55144 0.29874 0.0
C121 C 0.88174 0.59588 0.26275 0.0
C122 C 0.88083 0.51536 0.27474 0.0
O123 O 0.9412 0.54133 0.27895 0.0
O124 O 0.91851 0.56302 0.30139 0.0
O125 O 0.87364 0.53544 0.28198 0.0
O126 O 0.90025 0.51518 0.26225 0.0
C127 C 0.92167 0.55768 0.21948 0.0
O128 O 0.8707 0.57657 0.26312 0.0
O129 O 0.9044 0.59418 0.26448 0.0
In130 In 0.774 0.65998 0.52895 0.0
O131 O 0.79902 0.62692 0.53393 0.0
O132 O 0.8158 0.65855 0.52258 0.0
C133 C 0.73168 0.63398 0.52742 0.0
C134 C 0.77628 0.68197 0.57324 0.0
C135 C 0.77381 0.68422 0.48534 0.0
O136 O 0.75269 0.62481 0.5261 0.0
O137 O 0.73185 0.65618 0.52927 0.0
O138 O 0.76303 0.69183 0.50403 0.0
O139 O 0.78444 0.6645 0.48852 0.0
C140 C 0.8186 0.63695 0.52807 0.0
O141 O 0.77655 0.69323 0.55366 0.0
O142 O 0.77459 0.66002 0.57055 0.0
In143 In 0.63785 0.51133 0.81268 0.0
O144 O 0.6615 0.48433 0.79295 0.0
O145 O 0.66889 0.48995 0.82934 0.0
C146 C 0.66467 0.55016 0.81316 0.0
C147 C 0.61149 0.50811 0.77382 0.0
C148 C 0.60218 0.51213 0.84653 0.0
O149 O 0.66123 0.53744 0.83154 0.0
O150 O 0.65455 0.54329 0.79473 0.0
O151 O 0.61459 0.49364 0.84205 0.0
O152 O 0.60807 0.52997 0.83428 0.0
C153 C 0.67477 0.47943 0.81026 0.0
O154 O 0.6155 0.49043 0.78723 0.0
O155 O 0.62056 0.5272 0.78027 0.0
In156 In 0.02217 0.78481 0.90604 0.0
O157 O 0.04686 0.78035 0.87217 0.0
O158 O 0.06397 0.78738 0.90453 0.0
C159 C 0.97988 0.78401 0.88036 0.0
C160 C 0.02286 0.74081 0.92934 0.0
C161 C 0.02352 0.82918 0.92756 0.0
O162 O 1.00056 0.78741 0.87089 0.0
O163 O 0.98038 0.78112 0.90268 0.0
O164 O 0.02408 0.80991 0.93924 0.0
O165 O 0.02182 0.82609 0.90547 0.0
C166 C 0.06659 0.78361 0.88241 0.0
O167 O 0.01054 0.7584 0.93697 0.0
O168 O 0.03491 0.74544 0.91047 0.0
In169 In 0.0218 0.29026 0.63026 0.0
O170 O 1.00148 0.31588 0.60623 0.0
O171 O 0.03458 0.32688 0.6206 0.0
C172 C 0.03016 0.25284 0.60231 0.0
C173 C 0.06044 0.28835 0.65783 0.0
C174 C 0.98117 0.28903 0.65743 0.0
O175 O 0.02644 0.27329 0.59381 0.0
O176 O 0.02884 0.25125 0.62474 0.0
O177 O 0.9981 0.30303 0.66086 0.0
O178 O 0.98471 0.27514 0.64014 0.0
C179 C 0.01645 0.33217 0.60835 0.0
O180 O 0.03901 0.28773 0.6662 0.0
O181 O 0.06248 0.29013 0.6354 0.0
In182 In 0.51954 0.28338 0.40675 0.0
O183 O 0.54583 0.28934 0.37421 0.0
O184 O 0.56053 0.27271 0.40453 0.0
C185 C 0.47665 0.28427 0.38188 0.0
C186 C 0.51789 0.23939 0.42961 0.0
C187 C 0.52223 0.32734 0.42897 0.0
O188 O 0.49744 0.28269 0.37198 0.0
O189 O 0.47729 0.2856 0.40431 0.0
O190 O 0.51601 0.30869 0.44001 0.0
O191 O 0.52675 0.32386 0.40713 0.0
C192 C 0.56444 0.28038 0.38357 0.0
O193 O 0.52065 0.25854 0.44058 0.0
O194 O 0.51587 0.24242 0.4074 0.0
In195 In 0.51734 0.79179 0.12009 0.0
O196 O 0.53035 0.77077 0.08758 0.0
O197 O 0.51011 0.75298 0.1149 0.0
C198 C 0.51691 0.83316 0.09652 0.0
C199 C 0.47521 0.79281 0.14522 0.0
C200 C 0.55608 0.79084 0.14786 0.0
O201 O 0.52905 0.82955 0.11493 0.0
O202 O 0.5056 0.81556 0.08945 0.0
O203 O 0.53595 0.7999 0.15449 0.0
O204 O 0.55687 0.78291 0.12692 0.0
C205 C 0.52173 0.75158 0.09526 0.0
O206 O 0.49405 0.78264 0.15278 0.0
O207 O 0.47737 0.80172 0.12459 0.0
In208 In 0.88801 0.06611 0.75442 0.0
O209 O 0.92075 0.0769 0.73124 0.0
O210 O 0.89471 0.05483 0.71619 0.0
C211 C 0.91599 0.07024 0.79247 0.0
C212 C 0.85589 0.10226 0.75496 0.0
C213 C 0.86547 0.02459 0.75842 0.0
O214 O 0.9202 0.05514 0.77648 0.0
O215 O 0.89772 0.0835 0.7892 0.0
O216 O 0.85609 0.04237 0.74828 0.0
O217 O 0.886 0.02787 0.76682 0.0
C218 C 0.91467 0.0651 0.71355 0.0
O219 O 0.8546 0.08511 0.7695 0.0
O220 O 0.87357 0.10126 0.74012 0.0
In221 In 0.78764 0.17613 0.5229 0.0
O222 O 0.80929 0.14287 0.51541 0.0
O223 O 0.82694 0.16985 0.53387 0.0
C224 C 0.74545 0.15404 0.52876 0.0
C225 C 0.77937 0.2049 0.55986 0.0
C226 C 0.79441 0.19384 0.47886 0.0
O227 O 0.76542 0.1449 0.53466 0.0
O228 O 0.74674 0.17425 0.51904 0.0
O229 O 0.79961 0.20522 0.49714 0.0
O230 O 0.78506 0.17401 0.48285 0.0
C231 C 0.82833 0.14954 0.52478 0.0
O232 O 0.78145 0.21272 0.53874 0.0
O233 O 0.78287 0.18292 0.56233 0.0
In234 In 0.64341 0.01996 0.28917 0.0
O235 O 0.67791 0.9977 0.29014 0.0
O236 O 0.64486 0.98189 0.30197 0.0
C237 C 0.66172 0.05905 0.26845 0.0
C238 C 0.61137 0.0072 0.25698 0.0
C239 C 0.6315 0.03207 0.33403 0.0
O240 O 0.67373 0.03993 0.26997 0.0
O241 O 0.64067 0.05853 0.27772 0.0
O242 O 0.6161 0.02968 0.31817 0.0
O243 O 0.65329 0.02908 0.3271 0.0
C244 C 0.66751 0.97967 0.29864 0.0
O245 O 0.60504 0.01564 0.27695 0.0
O246 O 0.63394 0.00462 0.25347 0.0
In247 In 0.78069 0.90659 0.02511 0.0
O248 O 0.7574 0.94051 0.01767 0.0
O249 O 0.73907 0.91001 0.02984 0.0
C250 C 0.82272 0.93264 0.0266 0.0
C251 C 0.78116 0.88287 0.06904 0.0
C252 C 0.77793 0.88323 0.98174 0.0
O253 O 0.80279 0.93925 0.03628 0.0
O254 O 0.82163 0.91291 0.01647 0.0
O255 O 0.77388 0.87318 0.0017 0.0
O256 O 0.78361 0.90456 0.9837 0.0
C257 C 0.7373 0.93143 0.02348 0.0
O258 O 0.79459 0.87665 0.05141 0.0
O259 O 0.76781 0.90058 0.06446 0.0
In260 In 0.3029 0.65081 1.00067 0.0
O261 O 0.29215 0.68581 0.01819 0.0
O262 O 0.28925 0.65408 0.03884 0.0
C263 C 0.31426 0.66862 0.95722 0.0
C264 C 0.34394 0.63042 0.01631 0.0
C265 C 0.26167 0.62729 0.99659 0.0
O266 O 0.31359 0.68095 0.97578 0.0
O267 O 0.30953 0.64714 0.96058 0.0
O268 O 0.28169 0.61692 1.00025 0.0
O269 O 0.26271 0.64942 0.99385 0.0
C270 C 0.2862 0.67623 0.03791 0.0
O271 O 0.32786 0.61909 0.00618 0.0
O272 O 0.33967 0.65231 0.01805 0.0
In273 In 0.16079 0.5131 0.79431 0.0
O274 O 0.19272 0.49208 0.80858 0.0
O275 O 0.17741 0.48088 0.77636 0.0
C276 C 0.18607 0.55083 0.78006 0.0
C277 C 0.12122 0.51832 0.76824 0.0
C278 C 0.13987 0.50557 0.83722 0.0
O279 O 0.17696 0.54868 0.80086 0.0
O280 O 0.18287 0.53361 0.76651 0.0
O281 O 0.13543 0.49325 0.81939 0.0
O282 O 0.15483 0.52185 0.83336 0.0
C283 C 0.19286 0.47712 0.79212 0.0
O284 O 0.1284 0.53449 0.78143 0.0
O285 O 0.134 0.49957 0.7683 0.0
In286 In 0.27941 0.40559 0.52769 0.0
O287 O 0.27391 0.37153 0.55162 0.0
O288 O 0.28986 0.40081 0.56726 0.0
C289 C 0.27632 0.38353 0.48356 0.0
C290 C 0.2356 0.43024 0.53208 0.0
C291 C 0.32198 0.43105 0.52684 0.0
O292 O 0.2842 0.37306 0.50193 0.0
O293 O 0.27025 0.4048 0.48739 0.0
O294 O 0.30244 0.43804 0.53697 0.0
O295 O 0.32018 0.41135 0.51673 0.0
C296 C 0.28254 0.37999 0.57026 0.0
O297 O 0.25394 0.43813 0.52086 0.0
O298 O 0.23924 0.41003 0.54119 0.0
In299 In 0.4062 0.54097 0.25389 0.0
O300 O 0.44695 0.53697 0.24597 0.0
O301 O 0.42374 0.51444 0.22804 0.0
C302 C 0.41338 0.54795 0.30011 0.0
C303 C 0.39398 0.58279 0.23393 0.0
C304 C 0.36739 0.51349 0.25522 0.0
O305 O 0.41626 0.52796 0.29057 0.0
O306 O 0.40634 0.56439 0.28642 0.0
O307 O 0.37492 0.52353 0.23626 0.0
O308 O 0.37943 0.5174 0.27346 0.0
C309 C 0.44514 0.52041 0.23149 0.0
O310 O 0.37984 0.56563 0.23503 0.0
O311 O 0.41461 0.57863 0.24221 0.0
Co312 Co 0.02361 0.04317 0.00779 0.0
C313 C 0.01934 0.07382 0.0478 0.0
Co314 Co 0.02981 0.02544 0.04187 0.0
C315 C 0.00651 0.05408 0.96086 0.0
C316 C 0.02937 0.08075 0.97402 0.0
N317 N 0.01967 0.05967 0.97972 0.0
N318 N 0.00756 0.0709 0.94361 0.0
C319 C 0.02196 0.08771 0.95184 0.0
H320 H 0.99598 0.0382 0.96008 0.0
H321 H 0.04099 0.09052 0.98536 0.0
C322 C 0.03404 0.99472 0.00201 0.0
N323 N 0.03364 0.00889 0.06979 0.0
C324 C 0.04748 0.01406 0.08824 0.0
C325 C 0.02295 0.98841 0.07598 0.0
N326 N 0.04584 0.99762 0.10583 0.0
C327 C 0.03036 0.98146 0.09815 0.0
C328 C 0.98125 0.02336 0.02687 0.0
O329 O 0.02986 0.01379 0.99033 0.0
O330 O 0.03581 0.99617 0.02453 0.0
O331 O 0.99558 0.01831 0.0436 0.0
O332 O 0.98945 0.03537 0.00915 0.0
O333 O 0.02393 0.05475 0.05932 0.0
H334 H 0.01054 0.97912 0.06505 0.0
H335 H 0.05876 0.02945 0.0885 0.0
O336 O 0.01721 0.07244 0.02529 0.0
O337 O 0.05773 0.05088 0.00639 0.0
O338 O 0.06413 0.03283 0.04029 0.0
C339 C 0.07217 0.04552 0.02298 0.0
H340 H 0.02693 0.10381 0.94247 0.0
H341 H 0.02449 0.96589 0.1079 0.0
Co342 Co 0.29893 0.7733 0.28487 0.0
C343 C 0.30551 0.73305 0.25858 0.0
Co344 Co 0.27739 0.77339 0.25253 0.0
C345 C 0.30643 0.77647 0.33452 0.0
C346 C 0.34009 0.76979 0.31562 0.0
N347 N 0.31607 0.77288 0.31251 0.0
N348 N 0.32334 0.77582 0.35127 0.0
C349 C 0.34466 0.77188 0.33954 0.0
H350 H 0.28743 0.78057 0.33811 0.0
H351 H 0.35342 0.76671 0.30139 0.0
C352 C 0.27178 0.81419 0.27839 0.0
N353 N 0.26024 0.77355 0.22492 0.0
C354 C 0.26797 0.7632 0.20455 0.0
C355 C 0.23755 0.78156 0.22067 0.0
N356 N 0.25095 0.76381 0.1879 0.0
C357 C 0.23178 0.77559 0.19776 0.0
C358 C 0.25249 0.75555 0.2913 0.0
O359 O 0.28582 0.80348 0.2926 0.0
O360 O 0.2659 0.80415 0.25935 0.0
O361 O 0.2507 0.76084 0.26939 0.0
O362 O 0.27237 0.75886 0.30141 0.0
O363 O 0.28929 0.74243 0.24585 0.0
H364 H 0.22568 0.79029 0.23367 0.0
H365 H 0.28563 0.75472 0.2022 0.0
O366 O 0.31237 0.74356 0.27693 0.0
O367 O 0.32504 0.78763 0.26812 0.0
O368 O 0.30422 0.78601 0.23557 0.0
C369 C 0.32357 0.79111 0.2458 0.0
H370 H 0.36222 0.77097 0.34762 0.0
H371 H 0.21449 0.77852 0.1895 0.0
Co372 Co 0.50835 0.02531 0.51504 0.0
C373 C 0.51831 0.07357 0.50822 0.0
Co374 Co 0.5371 0.03678 0.538 0.0
C375 C 0.4668 1.00004 0.50416 0.0
C376 C 0.47912 0.01962 0.47344 0.0
N377 N 0.48419 0.01475 0.49637 0.0
N378 N 0.451 0.99539 0.48717 0.0
C379 C 0.4585 0.00777 0.46774 0.0
H380 H 0.46536 0.99342 0.52233 0.0
H381 H 0.48957 0.03117 0.46177 0.0
C382 C 0.52736 0.98858 0.54488 0.0
N383 N 0.56102 0.04743 0.55683 0.0
C384 C 0.57841 0.06224 0.5493 0.0
C385 C 0.56489 0.04368 0.5802 0.0
N386 N 0.59298 0.06818 0.56695 0.0
C387 C 0.58472 0.0564 0.58649 0.0
C388 C 0.49159 0.04054 0.55902 0.0
O389 O 0.51219 0.99349 0.52877 0.0
O390 O 0.54078 0.00513 0.55167 0.0
O391 O 0.51387 0.04413 0.56204 0.0
O392 O 0.48501 0.03275 0.53922 0.0
O393 O 0.53332 0.06849 0.52439 0.0
H394 H 0.55388 0.03265 0.5919 0.0
H395 H 0.58045 0.06836 0.53101 0.0
O396 O 0.50478 0.05713 0.50131 0.0
O397 O 0.53146 0.01775 0.49111 0.0
O398 O 0.56053 0.02936 0.51369 0.0
C399 C 0.55379 0.02117 0.49408 0.0
H400 H 0.44977 0.00821 0.45072 0.0
H401 H 0.59222 0.05718 0.60405 0.0
Co402 Co 0.30596 0.28635 0.78032 0.0
C403 C 0.28669 0.29817 0.73512 0.0
Co404 Co 0.26975 0.27253 0.77528 0.0
C405 C 0.35641 0.28596 0.79023 0.0
C406 C 0.34434 0.31966 0.77693 0.0
N407 N 0.3365 0.29803 0.78334 0.0
N408 N 0.37651 0.29907 0.78818 0.0
C409 C 0.36895 0.32039 0.77994 0.0
H410 H 0.35609 0.2678 0.79648 0.0
H411 H 0.33299 0.33377 0.76992 0.0
C412 C 0.28853 0.26078 0.82049 0.0
N413 N 0.23951 0.26051 0.77199 0.0
C414 C 0.22036 0.2712 0.76186 0.0
C415 C 0.23231 0.23838 0.7774 0.0
N416 N 0.20161 0.25654 0.76039 0.0
C417 C 0.20898 0.23583 0.77008 0.0
C418 C 0.30622 0.24211 0.76031 0.0
O419 O 0.30668 0.27248 0.81259 0.0
O420 O 0.27067 0.25868 0.80691 0.0
O421 O 0.28342 0.24475 0.76227 0.0
O422 O 0.31966 0.25827 0.76748 0.0
O423 O 0.26877 0.2865 0.74343 0.0
H424 H 0.24362 0.22476 0.78533 0.0
H425 H 0.22064 0.28899 0.75452 0.0
O426 O 0.30496 0.30017 0.74826 0.0
O427 O 0.29229 0.31437 0.79293 0.0
O428 O 0.25601 0.30051 0.78812 0.0
C429 C 0.26944 0.31705 0.79461 0.0
H430 H 0.3804 0.33525 0.77578 0.0
H431 H 0.1985 0.21988 0.77116 0.0
Co432 Co 0.00528 0.00508 0.52273 0.0
C433 C 0.01164 0.02495 0.56695 0.0
Co434 Co 0.02754 0.03687 0.5217 0.0
C435 C 0.99044 0.95989 0.50928 0.0
C436 C 0.96915 0.97144 0.53958 0.0
N437 N 0.98688 0.97827 0.524 0.0
N438 N 0.97579 0.94186 0.51486 0.0
C439 C 0.96245 0.94877 0.53411 0.0
H440 H 0.00446 0.95919 0.49536 0.0
H441 H 0.96208 0.98193 0.55431 0.0
C442 C 0.02074 0.01787 0.4774 0.0
N443 N 0.04644 0.06326 0.51979 0.0
C444 C 0.04005 0.08525 0.5267 0.0
C445 C 0.06914 0.06511 0.51032 0.0
N446 N 0.05775 0.10073 0.5219 0.0
C447 C 0.07626 0.0882 0.51182 0.0
C448 C 0.05423 0.99549 0.52653 0.0
O449 O 0.00792 0.00306 0.48894 0.0
O450 O 0.03116 0.0339 0.48857 0.0
O451 O 0.05547 0.01783 0.52584 0.0
O452 O 0.03373 0.98595 0.5253 0.0
O453 O 0.02368 0.04016 0.55504 0.0
H454 H 0.07974 0.05066 0.50263 0.0
H455 H 0.02283 0.08981 0.5354 0.0
O456 O 1.00278 0.00759 0.55627 0.0
O457 O 0.97696 0.02413 0.52022 0.0
O458 O 0.99935 0.05567 0.51765 0.0
C459 C 0.9786 0.04642 0.51813 0.0
H460 H 0.94919 0.93812 0.54366 0.0
H461 H 0.09346 0.0953 0.50575 0.0
Co462 Co 0.28 0.79806 0.78568 0.0
C463 C 0.23242 0.78199 0.79551 0.0
Co464 Co 0.27007 0.76791 0.76412 0.0
C465 C 0.30129 0.84092 0.80058 0.0
C466 C 0.2809 0.82424 0.82889 0.0
N467 N 0.28754 0.82209 0.80563 0.0
N468 N 0.30353 0.85474 0.81974 0.0
C469 C 0.29061 0.84446 0.8376 0.0
H470 H 0.30933 0.84453 0.78309 0.0
H471 H 0.2699 0.81178 0.83893 0.0
C472 C 0.31768 0.78396 0.75439 0.0
N473 N 0.26235 0.74352 0.74466 0.0
C474 C 0.24976 0.72439 0.75141 0.0
C475 C 0.26868 0.73998 0.72152 0.0
N476 N 0.24802 0.70894 0.73355 0.0
C477 C 0.26003 0.71849 0.71466 0.0
C478 C 0.25912 0.81183 0.74414 0.0
O479 O 0.31195 0.79883 0.77058 0.0
O480 O 0.30198 0.76899 0.74879 0.0
O481 O 0.25809 0.78963 0.74161 0.0
O482 O 0.26847 0.82009 0.76262 0.0
O483 O 0.2382 0.76694 0.77953 0.0
H484 H 0.2793 0.75199 0.71052 0.0
H485 H 0.24282 0.7214 0.76944 0.0
O486 O 0.24801 0.79717 0.80073 0.0
O487 O 0.29181 0.77626 0.80831 0.0
O488 O 0.28207 0.74598 0.78689 0.0
C489 C 0.29136 0.7541 0.8054 0.0
H490 H 0.28871 0.85087 0.85568 0.0
H491 H 0.26253 0.71043 0.69733 0.0
Co492 Co 0.52853 0.03061 1.00073 0.0
C493 C 0.57305 0.01743 0.02125 0.0
Co494 Co 0.5316 0.04191 0.03768 0.0
C495 C 0.52052 0.03551 0.95102 0.0
C496 C 0.5367 0.00187 0.95946 0.0
N497 N 0.52783 0.02194 0.96939 0.0
N498 N 0.52468 0.02489 0.92984 0.0
C499 C 0.53479 0.00362 0.93513 0.0
H500 H 0.5124 0.05294 0.9533 0.0
H501 H 0.54461 0.98718 0.96924 0.0
C502 C 0.48706 0.05516 0.0175 0.0
N503 N 0.53231 0.0506 0.06899 0.0
C504 C 0.53866 0.03663 0.08742 0.0
C505 C 0.52422 0.07098 0.07887 0.0
N506 N 0.53458 0.04727 0.1086 0.0
C507 C 0.52559 0.069 0.10325 0.0
C508 C 0.54816 0.07499 0.00588 0.0
O509 O 0.49581 0.04423 0.99933 0.0
O510 O 0.49993 0.05619 0.03583 0.0
O511 O 0.54561 0.07085 0.02808 0.0
O512 O 0.54154 0.05973 0.9912 0.0
O513 O 0.56354 0.02741 0.03959 0.0
H514 H 0.5171 0.08601 0.06903 0.0
H515 H 0.54593 0.01887 0.08518 0.0
O516 O 0.56097 0.01723 0.00231 0.0
O517 O 0.51569 1.00139 0.01019 0.0
O518 O 0.51761 0.01293 0.04717 0.0
C519 C 0.51231 0.9973 0.03229 0.0
H520 H 0.54084 0.99038 0.92239 0.0
H521 H 0.51982 0.08236 0.11596 0.0
Co522 Co 0.26838 0.2648 0.28947 0.0
C523 C 0.31718 0.27996 0.29258 0.0
Co524 Co 0.2761 0.29797 0.27077 0.0
C525 C 0.25503 0.21678 0.29992 0.0
C526 C 0.27011 0.23377 0.32978 0.0
N527 N 0.26394 0.23745 0.3069 0.0
N528 N 0.25535 0.20043 0.31759 0.0
C529 C 0.26467 0.21103 0.33646 0.0
H530 H 0.24839 0.21379 0.28228 0.0
H531 H 0.27844 0.24667 0.34081 0.0
C532 C 0.22732 0.28285 0.26753 0.0
N533 N 0.28024 0.32542 0.25338 0.0
C534 C 0.28704 0.34673 0.26086 0.0
C535 C 0.27424 0.3289 0.23042 0.0
N536 N 0.28546 0.36329 0.24348 0.0
C537 C 0.27762 0.35215 0.22423 0.0
C538 C 0.28098 0.25762 0.24104 0.0
O539 O 0.23442 0.26578 0.28083 0.0
O540 O 0.24233 0.29903 0.26233 0.0
O541 O 0.28332 0.27992 0.24201 0.0
O542 O 0.27558 0.24666 0.26042 0.0
O543 O 0.31006 0.29697 0.2792 0.0
H544 H 0.26704 0.31558 0.21909 0.0
H545 H 0.29281 0.35009 0.27874 0.0
O546 O 0.30216 0.26382 0.29801 0.0
O547 O 0.26114 0.28285 0.31828 0.0
O548 O 0.26906 0.31604 0.29988 0.0
C549 C 0.26372 0.30511 0.31928 0.0
H550 H 0.26785 0.20274 0.35361 0.0
H551 H 0.27387 0.36039 0.20718 0.0
Co552 Co 0.51606 0.49822 0.04527 0.0
C553 C 0.53478 0.50446 0.08984 0.0
Co554 Co 0.54002 0.52863 0.04724 0.0
C555 C 0.49355 0.45762 0.02705 0.0
C556 C 0.47842 0.4669 0.06132 0.0
N557 N 0.49501 0.47355 0.0445 0.0
N558 N 0.4769 0.44116 0.03232 0.0
C559 C 0.4674 0.44675 0.05396 0.0
H560 H 0.50535 0.45745 0.01126 0.0
H561 H 0.47503 0.47578 0.0781 0.0
C562 C 0.522 0.52191 0.00242 0.0
N563 N 0.56097 0.55346 0.04825 0.0
C564 C 0.556 0.57616 0.04244 0.0
C565 C 0.58334 0.55352 0.05725 0.0
N566 N 0.57405 0.59056 0.048 0.0
C567 C 0.59138 0.57638 0.05727 0.0
C568 C 0.5634 0.4866 0.0344 0.0
O569 O 0.51092 0.50498 0.01267 0.0
O570 O 0.53552 0.53475 0.01453 0.0
O571 O 0.56613 0.50824 0.0391 0.0
O572 O 0.54241 0.47789 0.03626 0.0
O573 O 0.54454 0.5224 0.08009 0.0
H574 H 0.5926 0.53816 0.06456 0.0
H575 H 0.53864 0.58229 0.03603 0.0
O576 O 0.52162 0.49144 0.0776 0.0
O577 O 0.48979 0.51856 0.05404 0.0
O578 O 0.5135 0.54902 0.05513 0.0
C579 C 0.49248 0.5405 0.05723 0.0
H580 H 0.45394 0.43669 0.0639 0.0
H581 H 0.608 0.58228 0.06479 0.0
Co582 Co 0.77745 0.29884 0.28849 0.0
C583 C 0.7322 0.27934 0.30127 0.0
Co584 Co 0.77156 0.2646 0.27193 0.0
C585 C 0.7913 0.34665 0.29243 0.0
C586 C 0.77809 0.33299 0.32598 0.0
N587 N 0.7819 0.32727 0.3029 0.0
N588 N 0.79395 0.36428 0.30805 0.0
C589 C 0.78552 0.35576 0.32922 0.0
H590 H 0.79636 0.34752 0.27367 0.0
H591 H 0.77102 0.32113 0.33965 0.0
C592 C 0.81677 0.2844 0.25901 0.0
N593 N 0.76765 0.23595 0.25742 0.0
C594 C 0.74688 0.2257 0.25157 0.0
C595 C 0.78537 0.22023 0.25117 0.0
N596 N 0.75094 0.20414 0.24206 0.0
C597 C 0.77516 0.2007 0.24168 0.0
C598 C 0.7554 0.30258 0.24526 0.0
O599 O 0.80936 0.30078 0.27296 0.0
O600 O 0.80292 0.2671 0.25601 0.0
O601 O 0.75727 0.28019 0.24597 0.0
O602 O 0.76337 0.31452 0.26223 0.0
O603 O 0.74 0.26246 0.28809 0.0
H604 H 0.80446 0.22237 0.25415 0.0
H605 H 0.72908 0.2336 0.25482 0.0
O606 O 0.74575 0.29701 0.30382 0.0
O607 O 0.79138 0.28303 0.31468 0.0
O608 O 0.7857 0.24888 0.29795 0.0
C609 C 0.79317 0.26065 0.31525 0.0
H610 H 0.78555 0.36489 0.34605 0.0
H611 H 0.7847 0.18459 0.23638 0.0
Co612 Co 0.02567 0.52738 0.51612 0.0
C613 C 0.06991 0.51457 0.53729 0.0
Co614 Co 0.02888 0.54108 0.55215 0.0
C615 C 0.01867 0.52694 0.46598 0.0
C616 C 0.03098 0.49327 0.47915 0.0
N617 N 0.02446 0.5153 0.48609 0.0
N618 N 0.02144 0.51312 0.44664 0.0
C619 C 0.02908 0.49185 0.45485 0.0
H620 H 0.0124 0.54519 0.46565 0.0
H621 H 0.0371 0.47927 0.49097 0.0
C622 C 0.98471 0.55389 0.53073 0.0
N623 N 0.03035 0.55282 0.58233 0.0
C624 C 0.03738 0.54078 0.60179 0.0
C625 C 0.02401 0.57461 0.59012 0.0
N626 N 0.03578 0.5541 0.62154 0.0
C627 C 0.02734 0.57546 0.61432 0.0
C628 C 0.04655 0.57106 0.51721 0.0
O629 O 0.99395 0.54248 0.51309 0.0
O630 O 0.99689 0.55518 0.54955 0.0
O631 O 0.04283 0.56906 0.53956 0.0
O632 O 0.04039 0.55458 0.50371 0.0
O633 O 0.06119 0.52661 0.55473 0.0
H634 H 0.0174 0.5889 0.57894 0.0
H635 H 0.04327 0.52242 0.60144 0.0
O636 O 0.05713 0.51267 0.51899 0.0
O637 O 0.01101 0.50007 0.52849 0.0
O638 O 0.01495 0.51318 0.56464 0.0
C639 C 0.0082 0.49719 0.55082 0.0
H640 H 0.0333 0.47648 0.44409 0.0
H641 H 0.02427 0.5907 0.62556 0.0
Co642 Co 0.79405 0.79725 0.28331 0.0
C643 C 0.77733 0.80766 0.23705 0.0
Co644 Co 0.75941 0.78077 0.27641 0.0
C645 C 0.84364 0.80017 0.29572 0.0
C646 C 0.82928 0.83388 0.28481 0.0
N647 N 0.82318 0.81116 0.28865 0.0
N648 N 0.86237 0.81502 0.29626 0.0
C649 C 0.85341 0.83634 0.2896 0.0
H650 H 0.84475 0.78156 0.30033 0.0
H651 H 0.8171 0.84763 0.27845 0.0
C652 C 0.77638 0.76993 0.32246 0.0
N653 N 0.73044 0.76687 0.27081 0.0
C654 C 0.7117 0.77674 0.25927 0.0
C655 C 0.72376 0.74455 0.27595 0.0
N656 N 0.69364 0.76144 0.25672 0.0
C657 C 0.70111 0.7411 0.26717 0.0
C658 C 0.799 0.753 0.26384 0.0
O659 O 0.79394 0.78278 0.31522 0.0
O660 O 0.75906 0.76697 0.30835 0.0
O661 O 0.77603 0.7538 0.26454 0.0
O662 O 0.81056 0.77048 0.27109 0.0
O663 O 0.75992 0.79471 0.24434 0.0
H664 H 0.73491 0.73148 0.28494 0.0
H665 H 0.71179 0.79453 0.25196 0.0
O666 O 0.79428 0.81131 0.25139 0.0
O667 O 0.77729 0.82409 0.2956 0.0
O668 O 0.74276 0.80769 0.28824 0.0
C669 C 0.7543 0.82501 0.29597 0.0
H670 H 0.86368 0.85238 0.28772 0.0
H671 H 0.69111 0.72485 0.26806 0.0
Co672 Co 0.80078 0.30378 0.79932 0.0
C673 C 0.78751 0.26128 0.78044 0.0
Co674 Co 0.77925 0.30783 0.76717 0.0
C675 C 0.81806 0.31156 0.84612 0.0
C676 C 0.8375 0.28334 0.82852 0.0
N677 N 0.81958 0.29965 0.82555 0.0
N678 N 0.83421 0.30328 0.86187 0.0
C679 C 0.84643 0.28542 0.851 0.0
H680 H 0.80483 0.32556 0.84974 0.0
H681 H 0.84345 0.27055 0.81529 0.0
C682 C 0.79177 0.35029 0.78639 0.0
N683 N 0.76118 0.31089 0.74024 0.0
C684 C 0.7642 0.29637 0.72159 0.0
C685 C 0.74267 0.32562 0.73443 0.0
N686 N 0.7482 0.30093 0.70451 0.0
C687 C 0.73466 0.31956 0.71222 0.0
C688 C 0.75183 0.3074 0.80923 0.0
O689 O 0.80197 0.33723 0.8019 0.0
O690 O 0.78153 0.34084 0.76903 0.0
O691 O 0.75078 0.3092 0.78667 0.0
O692 O 0.77227 0.30422 0.81872 0.0
O693 O 0.77695 0.27451 0.76547 0.0
H694 H 0.73524 0.33951 0.74575 0.0
H695 H 0.77799 0.28249 0.72059 0.0
O696 O 0.79909 0.27062 0.7969 0.0
O697 O 0.82918 0.3034 0.77991 0.0
O698 O 0.80781 0.3065 0.7478 0.0
C699 C 0.82823 0.30429 0.75738 0.0
H700 H 0.86068 0.27468 0.85876 0.0
H701 H 0.71973 0.32767 0.70285 0.0
Co702 Co 0.77229 0.76501 0.78691 0.0
C703 C 0.821 0.77922 0.79051 0.0
Co704 Co 0.78004 0.79847 0.76884 0.0
C705 C 0.75487 0.71822 0.79712 0.0
C706 C 0.77487 0.73231 0.8256 0.0
N707 N 0.76707 0.73737 0.80351 0.0
N708 N 0.75464 0.70152 0.81446 0.0
C709 C 0.76715 0.7103 0.83243 0.0
H710 H 0.74595 0.71678 0.78029 0.0
H711 H 0.78546 0.74396 0.83611 0.0
C712 C 0.73136 0.78426 0.765 0.0
N713 N 0.78557 0.82626 0.75262 0.0
C714 C 0.79566 0.84577 0.76102 0.0
C715 C 0.77996 0.83171 0.72997 0.0
N716 N 0.79663 0.86335 0.74456 0.0
C717 C 0.78679 0.85448 0.72493 0.0
C718 C 0.78474 0.75882 0.73841 0.0
O719 O 0.73834 0.76712 0.77828 0.0
O720 O 0.7465 0.80033 0.75974 0.0
O721 O 0.78751 0.78106 0.73969 0.0
O722 O 0.77897 0.74762 0.75755 0.0
O723 O 0.81374 0.79668 0.77787 0.0
H724 H 0.77132 0.81993 0.71795 0.0
H725 H 0.80175 0.84707 0.77908 0.0
O726 O 0.80605 0.76289 0.79536 0.0
O727 O 0.76553 0.78225 0.81616 0.0
O728 O 0.77257 0.8159 0.79825 0.0
C729 C 0.76758 0.80454 0.81748 0.0
H730 H 0.7706 0.70136 0.84919 0.0
H731 H 0.78475 0.86362 0.70805 0.0
Co732 Co 0.52409 0.53968 0.51164 0.0
C733 C 0.51981 0.57044 0.55147 0.0
Co734 Co 0.53087 0.52215 0.54567 0.0
C735 C 0.50519 0.54855 0.4658 0.0
C736 C 0.52469 0.57817 0.47797 0.0
N737 N 0.51858 0.5558 0.4838 0.0
N738 N 0.50237 0.56557 0.44913 0.0
C739 C 0.51451 0.58432 0.45662 0.0
H740 H 0.49669 0.53148 0.46546 0.0
H741 H 0.53517 0.5895 0.48891 0.0
C742 C 0.53504 0.49142 0.50569 0.0
N743 N 0.53578 0.50575 0.57361 0.0
C744 C 0.54625 0.51285 0.59358 0.0
C745 C 0.52797 0.48377 0.57868 0.0
N746 N 0.54514 0.49617 0.61098 0.0
C747 C 0.53371 0.47782 0.60163 0.0
C748 C 0.4823 0.51889 0.53154 0.0
O749 O 0.53049 0.51045 0.4941 0.0
O750 O 0.53722 0.49293 0.52816 0.0
O751 O 0.49677 0.51397 0.5482 0.0
O752 O 0.49023 0.5312 0.51395 0.0
O753 O 0.52453 0.55152 0.5632 0.0
H754 H 0.5183 0.47289 0.56658 0.0
H755 H 0.55383 0.53018 0.59553 0.0
O756 O 0.51763 0.56878 0.52903 0.0
O757 O 0.55772 0.54812 0.50916 0.0
O758 O 0.56513 0.53055 0.54317 0.0
C759 C 0.57258 0.54319 0.5255 0.0
H760 H 0.51565 0.60124 0.44748 0.0
H761 H 0.52974 0.4613 0.6107 0.0
Co762 Co 0.00559 0.52829 0.01573 0.0
C763 C 0.02298 0.57357 0.00392 0.0
Co764 Co 0.03976 0.53536 0.03289 0.0
C765 C 0.9563 0.51546 0.01518 0.0
C766 C 0.96949 0.52365 0.97983 0.0
N767 N 0.9762 0.52238 0.00275 0.0
N768 N 0.93742 0.5124 1.00108 0.0
C769 C 0.94557 0.51726 0.97872 0.0
H770 H 0.95584 0.51205 0.03422 0.0
H771 H 0.98125 0.52869 0.96493 0.0
C772 C 0.02248 0.49017 0.04493 0.0
N773 N 0.06904 0.54128 0.04598 0.0
C774 C 0.08903 0.54814 0.03369 0.0
C775 C 0.07542 0.54042 0.06901 0.0
N776 N 0.10764 0.55164 0.04801 0.0
C777 C 0.09924 0.54704 0.07033 0.0
C778 C 1.00062 0.54951 0.05998 0.0
O779 O 0.00577 0.49675 0.03089 0.0
O780 O 0.03925 0.50468 0.04871 0.0
O781 O 0.02357 0.54897 0.05928 0.0
O782 O 0.98931 0.54114 0.0428 0.0
O783 O 0.04024 0.56631 0.01694 0.0
H784 H 0.06348 0.53558 0.08384 0.0
H785 H 0.08973 0.55121 0.01459 0.0
O786 O 0.00551 0.55963 1.00086 0.0
O787 O 0.022 0.51553 0.98863 0.0
O788 O 0.05596 0.52158 0.00648 0.0
C789 C 0.04495 0.51402 0.98874 0.0
H790 H 0.93502 0.51622 0.96283 0.0
H791 H 0.10956 0.54838 0.08634 0.0
H792 H 0.03927 0.22463 0.08048 0.0
H793 H 0.01249 0.19508 0.14712 0.0
H794 H 0.03693 0.18586 0.06194 0.0
H795 H 0.00949 0.1565 0.1286 0.0
H796 H 0.02743 0.08409 0.09497 0.0
H797 H 0.02967 0.12271 0.11366 0.0
H798 H 0.01217 0.15666 0.04684 0.0
H799 H 0.01059 0.11805 0.02812 0.0
C800 C 0.0328 0.2099 0.09122 0.0
C801 C 0.02615 0.21324 0.11543 0.0
C802 C 0.03125 0.1875 0.08049 0.0
C803 C 0.02294 0.16752 0.09353 0.0
C804 C 0.01634 0.171 0.11779 0.0
C805 C 0.01792 0.19336 0.12849 0.0
C806 C 0.02384 0.09976 0.08426 0.0
C807 C 0.01868 0.09761 0.05992 0.0
C808 C 0.02506 0.12213 0.09506 0.0
C809 C 0.02119 0.14335 0.08199 0.0
C810 C 0.01572 0.14109 0.05768 0.0
C811 C 0.01453 0.11873 0.04689 0.0
H812 H 0.13645 0.78063 0.38938 0.0
H813 H 0.10653 0.72629 0.34625 0.0
H814 H 0.1758 0.77472 0.36911 0.0
H815 H 0.146 0.72 0.32636 0.0
H816 H 0.20794 0.74606 0.27477 0.0
H817 H 0.17032 0.743 0.29808 0.0
H818 H 0.20997 0.74669 0.36312 0.0
H819 H 0.24776 0.75025 0.33972 0.0
C820 C 0.13836 0.7673 0.37571 0.0
C821 C 0.11843 0.75412 0.36916 0.0
C822 C 0.16093 0.76372 0.36429 0.0
C823 C 0.16396 0.74685 0.34618 0.0
C824 C 0.14413 0.73328 0.34009 0.0
C825 C 0.12156 0.7369 0.35146 0.0
C826 C 0.20873 0.74574 0.29404 0.0
C827 C 0.23075 0.74873 0.30541 0.0
C828 C 0.18716 0.74387 0.30741 0.0
C829 C 0.18719 0.74492 0.33241 0.0
C830 C 0.2094 0.74626 0.34384 0.0
C831 C 0.23103 0.7481 0.33045 0.0
H832 H 0.52968 0.86764 0.64549 0.0
H833 H 0.53356 0.83448 0.57667 0.0
H834 H 0.52915 0.9066 0.62615 0.0
H835 H 0.53294 0.87355 0.5572 0.0
H836 H 0.50523 0.94779 0.53111 0.0
H837 H 0.50675 0.90845 0.54974 0.0
H838 H 0.55404 0.93429 0.60293 0.0
H839 H 0.55257 0.97358 0.58425 0.0
C840 C 0.53047 0.8686 0.62619 0.0
C841 C 0.53169 0.84768 0.61276 0.0
C842 C 0.5303 0.89109 0.61502 0.0
C843 C 0.53103 0.89358 0.58994 0.0
C844 C 0.53213 0.8726 0.5765 0.0
C845 C 0.53263 0.85007 0.5877 0.0
C846 C 0.51608 0.94512 0.54672 0.0
C847 C 0.52882 0.96413 0.55601 0.0
C848 C 0.51704 0.92239 0.55741 0.0
C849 C 0.5305 0.91785 0.57802 0.0
C850 C 0.54323 0.9369 0.5873 0.0
C851 C 0.54252 0.95954 0.57643 0.0
H852 H 0.52628 0.29033 0.82904 0.0
H853 H 0.48644 0.23738 0.86911 0.0
H854 H 0.49239 0.29558 0.80243 0.0
H855 H 0.45254 0.24284 0.84276 0.0
H856 H 0.39528 0.25429 0.78899 0.0
H857 H 0.43515 0.24183 0.80258 0.0
H858 H 0.45293 0.31484 0.81328 0.0
H859 H 0.41314 0.32727 0.8001 0.0
C860 C 0.51058 0.27934 0.83175 0.0
C861 C 0.50875 0.26379 0.8514 0.0
C862 C 0.49116 0.28244 0.8166 0.0
C863 C 0.46968 0.26996 0.82082 0.0
C864 C 0.46887 0.25268 0.83902 0.0
C865 C 0.48825 0.24963 0.8542 0.0
C866 C 0.40769 0.26769 0.79421 0.0
C867 C 0.40083 0.29179 0.79384 0.0
C868 C 0.43058 0.26053 0.80179 0.0
C869 C 0.44713 0.27734 0.80898 0.0
C870 C 0.44073 0.30147 0.80746 0.0
C871 C 0.41783 0.30862 0.8 0.0
H872 H 0.05175 0.8425 0.43317 0.0
H873 H 0.99818 0.79652 0.46555 0.0
H874 H 0.03287 0.8761 0.45371 0.0
H875 H 0.97915 0.83042 0.48611 0.0
H876 H 0.97591 0.8989 0.53654 0.0
H877 H 0.98889 0.86156 0.51766 0.0
H878 H 0.99252 0.89716 0.44912 0.0
H879 H 0.97978 0.93416 0.46799 0.0
C880 C 0.03605 0.83955 0.44482 0.0
C881 C 0.02632 0.81697 0.44765 0.0
C882 C 0.02513 0.8588 0.45642 0.0
C883 C 0.00431 0.85584 0.47111 0.0
C884 C 0.99514 0.83311 0.47479 0.0
C885 C 0.00602 0.8138 0.46304 0.0
C886 C 0.97874 0.89841 0.51737 0.0
C887 C 0.9772 0.91926 0.50365 0.0
C888 C 0.98626 0.87718 0.5066 0.0
C889 C 0.99226 0.87674 0.48207 0.0
C890 C 0.98858 0.8972 0.46816 0.0
C891 C 0.98116 0.91826 0.47887 0.0
H892 H 0.47415 0.78856 0.71883 0.0
H893 H 0.44113 0.77526 0.65176 0.0
H894 H 0.4341 0.78939 0.7388 0.0
H895 H 0.4011 0.77642 0.67154 0.0
H896 H 0.33499 0.75546 0.7181 0.0
H897 H 0.37508 0.75483 0.69856 0.0
H898 H 0.39657 0.81185 0.74325 0.0
H899 H 0.35648 0.81222 0.76306 0.0
C900 C 0.45834 0.78588 0.7083 0.0
C901 C 0.46099 0.78179 0.68364 0.0
C902 C 0.43527 0.7865 0.71975 0.0
C903 C 0.41409 0.78295 0.70692 0.0
C904 C 0.41683 0.7789 0.68221 0.0
C905 C 0.43988 0.77837 0.67077 0.0
C906 C 0.34822 0.7679 0.72381 0.0
C907 C 0.34232 0.78388 0.74226 0.0
C908 C 0.3713 0.76764 0.71244 0.0
C909 C 0.38934 0.78331 0.71917 0.0
C910 C 0.38341 0.79928 0.73767 0.0
C911 C 0.36027 0.7996 0.74899 0.0
H912 H 0.53876 0.22064 0.97571 0.0
H913 H 0.588 0.19706 0.91908 0.0
H914 H 0.54266 0.18225 0.99537 0.0
H915 H 0.59259 0.15882 0.93916 0.0
H916 H 0.55684 0.08763 0.95965 0.0
H917 H 0.56497 0.12676 0.94396 0.0
H918 H 0.56807 0.15336 0.01571 0.0
H919 H 0.55916 0.11397 0.0316 0.0
C920 C 0.55075 0.20735 0.96771 0.0
C921 C 0.56273 0.21158 0.9457 0.0
C922 C 0.55321 0.18546 0.97909 0.0
C923 C 0.56785 0.16748 0.96873 0.0
C924 C 0.5809 0.17223 0.94736 0.0
C925 C 0.57826 0.19407 0.93587 0.0
C926 C 0.55962 0.10171 0.97215 0.0
C927 C 0.55697 0.09785 0.99686 0.0
C928 C 0.56453 0.12414 0.96312 0.0
C929 C 0.56701 0.14318 0.97861 0.0
C930 C 0.56589 0.13904 0.00338 0.0
C931 C 0.56091 0.11651 0.01245 0.0
H932 H 0.1163 0.29098 0.159 0.0
H933 H 0.07582 0.26767 0.22158 0.0
H934 H 0.15314 0.29177 0.18207 0.0
H935 H 0.11265 0.26853 0.24478 0.0
H936 H 0.18996 0.25094 0.27304 0.0
H937 H 0.15229 0.2497 0.25106 0.0
H938 H 0.1721 0.31348 0.21298 0.0
H939 H 0.20955 0.31465 0.23474 0.0
C940 C 0.11521 0.28598 0.17769 0.0
C941 C 0.0929 0.27927 0.1883 0.0
C942 C 0.13641 0.28658 0.19106 0.0
C943 C 0.13616 0.28032 0.21553 0.0
C944 C 0.11385 0.27329 0.22603 0.0
C945 C 0.09259 0.2729 0.2127 0.0
C946 C 0.18617 0.26486 0.26018 0.0
C947 C 0.203 0.28295 0.2559 0.0
C948 C 0.16445 0.26417 0.2475 0.0
C949 C 0.15894 0.28138 0.22991 0.0
C950 C 0.17565 0.29963 0.22598 0.0
C951 C 0.19718 0.30044 0.23874 0.0
H952 H 0.09841 0.0318 0.24372 0.0
H953 H 0.13375 0.96478 0.22753 0.0
H954 H 0.07705 0.03049 0.20655 0.0
H955 H 0.1131 0.96386 0.1897 0.0
H956 H 0.05437 0.95972 0.13475 0.0
H957 H 0.07396 0.95966 0.17291 0.0
H958 H 0.08604 0.03463 0.16497 0.0
H959 H 0.06505 0.03505 0.12771 0.0
C960 C 0.10167 0.01684 0.2321 0.0
C961 C 0.11774 0.99843 0.23834 0.0
C962 C 0.08957 0.01615 0.21075 0.0
C963 C 0.09358 0.99719 0.19509 0.0
C964 C 0.10945 0.97859 0.20153 0.0
C965 C 0.12135 0.97914 0.22308 0.0
C966 C 0.06088 0.97626 0.14126 0.0
C967 C 0.058 0.99741 0.12812 0.0
C968 C 0.07242 0.97615 0.16301 0.0
C969 C 0.0815 0.99714 0.17196 0.0
C970 C 0.07889 0.01821 0.15872 0.0
C971 C 0.06715 0.01838 0.13713 0.0
H972 H 0.28099 0.87242 0.45348 0.0
H973 H 0.27127 0.80921 0.49646 0.0
H974 H 0.29856 0.84873 0.42113 0.0
H975 H 0.28854 0.78531 0.46353 0.0
H976 H 0.28613 0.76195 0.37974 0.0
H977 H 0.27392 0.77898 0.41832 0.0
H978 H 0.33825 0.82111 0.41612 0.0
H979 H 0.35054 0.80386 0.37764 0.0
C980 C 0.28243 0.85343 0.45593 0.0
C981 C 0.27469 0.8426 0.4774 0.0
C982 C 0.29275 0.83994 0.43754 0.0
C983 C 0.29518 0.81533 0.44011 0.0
C984 C 0.28697 0.80433 0.46133 0.0
C985 C 0.27704 0.81793 0.48002 0.0
C986 C 0.29792 0.77436 0.38791 0.0
C987 C 0.31912 0.78182 0.3758 0.0
C988 C 0.29103 0.78397 0.40993 0.0
C989 C 0.30509 0.80143 0.41991 0.0
C990 C 0.32713 0.80769 0.4086 0.0
C991 C 0.33422 0.79778 0.38676 0.0
H992 H 0.45112 0.00415 0.69824 0.0
H993 H 0.38337 0.03633 0.67675 0.0
H994 H 0.46744 0.00841 0.65765 0.0
H995 H 0.39993 0.04065 0.63593 0.0
H996 H 0.44519 0.02433 0.56185 0.0
H997 H 0.42121 0.01709 0.5986 0.0
H998 H 0.47573 0.05074 0.63916 0.0
H999 H 0.49963 0.05805 0.60281 0.0
C1000 C 0.43949 0.01149 0.68468 0.0
C1001 C 0.41621 0.02034 0.69063 0.0
C1002 C 0.44886 0.01405 0.66155 0.0
C1003 C 0.43507 0.02545 0.64407 0.0
C1004 C 0.41087 0.03198 0.6493 0.0
C1005 C 0.40143 0.02942 0.67256 0.0
C1006 C 0.45172 0.03073 0.57856 0.0
C1007 C 0.47446 0.04141 0.57958 0.0
C1008 C 0.43806 0.02647 0.59949 0.0
C1009 C 0.4471 0.03277 0.62154 0.0
C1010 C 0.46878 0.04519 0.6223 0.0
C1011 C 0.48233 0.04953 0.6015 0.0
H1012 H 0.26795 0.16425 0.94331 0.0
H1013 H 0.29131 0.22828 0.97565 0.0
H1014 H 0.27137 0.18298 0.90397 0.0
H1015 H 0.29471 0.24721 0.93609 0.0
H1016 H 0.32019 0.26561 0.85764 0.0
H1017 H 0.31782 0.24747 0.89763 0.0
H1018 H 0.25227 0.21267 0.87927 0.0
H1019 H 0.25467 0.2306 0.83962 0.0
C1020 C 0.27376 0.1824 0.94208 0.0
C1021 C 0.27923 0.19468 0.96288 0.0
C1022 C 0.27563 0.19326 0.91938 0.0
C1023 C 0.28327 0.2168 0.91651 0.0
C1024 C 0.28897 0.22905 0.93734 0.0
C1025 C 0.28686 0.21822 0.96014 0.0
C1026 C 0.30529 0.25406 0.86211 0.0
C1027 C 0.28768 0.24965 0.84512 0.0
C1028 C 0.30382 0.24372 0.8852 0.0
C1029 C 0.28487 0.22839 0.89198 0.0
C1030 C 0.26735 0.22402 0.87488 0.0
C1031 C 0.26868 0.23449 0.852 0.0
H1032 H 0.08109 0.03527 0.335 0.0
H1033 H 0.10466 0.96767 0.36355 0.0
H1034 H 0.04897 0.0377 0.36569 0.0
H1035 H 0.07315 0.97048 0.39489 0.0
H1036 H 0.0147 0.97898 0.44979 0.0
H1037 H 0.03081 0.97327 0.40907 0.0
H1038 H 0.05442 0.04568 0.40705 0.0
H1039 H 0.03808 0.05141 0.44709 0.0
C1040 C 0.0792 0.02082 0.34773 0.0
C1041 C 0.09562 1.00155 0.34737 0.0
C1042 C 0.06081 0.02218 0.36524 0.0
C1043 C 0.05881 0.0045 0.38293 0.0
C1044 C 0.07409 0.98432 0.38141 0.0
C1045 C 0.09231 0.98281 0.36364 0.0
C1046 C 0.02271 0.99381 0.44028 0.0
C1047 C 0.02556 0.01552 0.45164 0.0
C1048 C 0.03202 0.9905 0.41708 0.0
C1049 C 0.04408 0.00893 0.40495 0.0
C1050 C 0.04503 0.03117 0.41573 0.0
C1051 C 0.03588 0.03441 0.43882 0.0
H1052 H 0.25402 0.90519 0.61865 0.0
H1053 H 0.24651 0.83207 0.59933 0.0
H1054 H 0.25017 0.89407 0.66091 0.0
H1055 H 0.24325 0.82095 0.64116 0.0
H1056 H 0.22266 0.80468 0.71423 0.0
H1057 H 0.21673 0.82416 0.67586 0.0
H1058 H 0.27426 0.87216 0.69024 0.0
H1059 H 0.27943 0.85317 0.7292 0.0
C1060 C 0.25151 0.88678 0.62345 0.0
C1061 C 0.2506 0.86946 0.60577 0.0
C1062 C 0.24933 0.88044 0.64759 0.0
C1063 C 0.24614 0.85669 0.65436 0.0
C1064 C 0.24508 0.83949 0.63656 0.0
C1065 C 0.24722 0.84581 0.61256 0.0
C1066 C 0.23351 0.81986 0.70945 0.0
C1067 C 0.25171 0.82728 0.72437 0.0
C1068 C 0.23025 0.8309 0.68745 0.0
C1069 C 0.24551 0.84922 0.67976 0.0
C1070 C 0.26223 0.85807 0.69566 0.0
C1071 C 0.26522 0.84722 0.71794 0.0
H1072 H 0.42998 0.07832 0.83097 0.0
H1073 H 0.48344 0.04522 0.7836 0.0
H1074 H 0.45842 0.07583 0.8633 0.0
H1075 H 0.51187 0.04266 0.81605 0.0
H1076 H 0.51597 0.07093 0.91737 0.0
H1077 H 0.49995 0.08544 0.87985 0.0
H1078 H 0.50467 0.01476 0.85175 0.0
H1079 H 0.51979 0.99999 0.88929 0.0
C1080 C 0.44807 0.07122 0.82729 0.0
C1081 C 0.45438 0.0615 0.805 0.0
C1082 C 0.4644 0.06993 0.84574 0.0
C1083 C 0.48716 0.05874 0.84216 0.0
C1084 C 0.49431 0.05115 0.81923 0.0
C1085 C 0.47806 0.05266 0.80071 0.0
C1086 C 0.51366 0.05842 0.90325 0.0
C1087 C 0.51864 0.03411 0.90667 0.0
C1088 C 0.50476 0.06686 0.88168 0.0
C1089 C 0.5011 0.05122 0.86301 0.0
C1090 C 0.50767 0.02726 0.86578 0.0
C1091 C 0.51626 0.01877 0.8874 0.0
H1092 H 0.2878 0.15916 0.11838 0.0
H1093 H 0.26395 0.22603 0.08884 0.0
H1094 H 0.29038 0.17707 0.15759 0.0
H1095 H 0.26592 0.24396 0.12815 0.0
H1096 H 0.29211 0.2765 0.19663 0.0
H1097 H 0.29092 0.25796 0.15772 0.0
H1098 H 0.26987 0.19235 0.19171 0.0
H1099 H 0.27166 0.2109 0.23076 0.0
C1100 C 0.28293 0.1777 0.12023 0.0
C1101 C 0.27566 0.19103 0.10017 0.0
C1102 C 0.28428 0.18805 0.14294 0.0
C1103 C 0.27844 0.2122 0.14656 0.0
C1104 C 0.27103 0.22547 0.12641 0.0
C1105 C 0.26969 0.2151 0.1037 0.0
C1106 C 0.28746 0.25803 0.19593 0.0
C1107 C 0.28214 0.24531 0.21719 0.0
C1108 C 0.28649 0.24735 0.17338 0.0
C1109 C 0.28009 0.22347 0.17103 0.0
C1110 C 0.27516 0.21063 0.19239 0.0
C1111 C 0.27615 0.22134 0.21499 0.0
H1112 H 0.18679 0.15055 0.01836 0.0
H1113 H 0.22433 0.0877 0.04294 0.0
H1114 H 0.14939 0.1284 0.01608 0.0
H1115 H 0.18694 0.06542 0.04057 0.0
H1116 H 0.10818 0.03908 0.05593 0.0
H1117 H 0.14645 0.05998 0.05826 0.0
H1118 H 0.13034 0.09825 0.99347 0.0
H1119 H 0.09222 0.07752 0.99121 0.0
C1120 C 0.18711 0.13199 0.02332 0.0
C1121 C 0.20877 0.12104 0.03084 0.0
C1122 C 0.16559 0.11915 0.02185 0.0
C1123 C 0.16485 0.09489 0.02802 0.0
C1124 C 0.1865 0.08403 0.03584 0.0
C1125 C 0.20809 0.09684 0.03711 0.0
C1126 C 0.11291 0.05173 0.04199 0.0
C1127 C 0.0969 0.05638 0.02331 0.0
C1128 C 0.13498 0.06379 0.04333 0.0
C1129 C 0.14171 0.08112 0.02617 0.0
C1130 C 0.12584 0.08541 0.00729 0.0
C1131 C 0.10394 0.07325 0.00585 0.0
H1132 H 0.70726 0.43921 0.9927 0.0
H1133 H 0.67473 0.38193 0.03296 0.0
H1134 H 0.66725 0.45719 0.98729 0.0
H1135 H 0.63491 0.40042 0.02867 0.0
H1136 H 0.5646 0.44034 0.02007 0.0
H1137 H 0.60049 0.41679 0.0078 0.0
H1138 H 0.64535 0.47725 0.01866 0.0
H1139 H 0.60995 0.50059 0.03019 0.0
C1140 C 0.69147 0.43021 0.99989 0.0
C1141 C 0.69399 0.40958 0.01374 0.0
C1142 C 0.6686 0.44051 0.9969 0.0
C1143 C 0.64805 0.43062 0.00824 0.0
C1144 C 0.65036 0.40852 0.01975 0.0
C1145 C 0.67321 0.39798 0.02234 0.0
C1146 C 0.58217 0.44855 0.0196 0.0
C1147 C 0.58453 0.47221 0.02634 0.0
C1148 C 0.60265 0.43512 0.01251 0.0
C1149 C 0.62573 0.44519 0.01205 0.0
C1150 C 0.62783 0.46904 0.0182 0.0
C1151 C 0.6075 0.48238 0.02519 0.0
H1152 H 0.89726 0.47028 0.26883 0.0
H1153 H 0.83495 0.51153 0.29371 0.0
H1154 H 0.87577 0.43408 0.27791 0.0
H1155 H 0.81291 0.47518 0.30194 0.0
H1156 H 0.79027 0.40397 0.33494 0.0
H1157 H 0.81139 0.44087 0.32783 0.0
H1158 H 0.84339 0.41265 0.2626 0.0
H1159 H 0.82384 0.37554 0.2704 0.0
C1160 C 0.87887 0.47157 0.27608 0.0
C1161 C 0.86768 0.49363 0.28046 0.0
C1162 C 0.86649 0.45085 0.28116 0.0
C1163 C 0.84253 0.45176 0.29041 0.0
C1164 C 0.83142 0.47389 0.29504 0.0
C1165 C 0.84396 0.49467 0.2902 0.0
C1166 C 0.80199 0.40554 0.31921 0.0
C1167 C 0.80533 0.38661 0.30334 0.0
C1168 C 0.81387 0.42681 0.31499 0.0
C1169 C 0.82919 0.42962 0.29473 0.0
C1170 C 0.83207 0.41092 0.27862 0.0
C1171 C 0.82046 0.38965 0.28294 0.0
H1172 H 0.86081 0.64985 0.50454 0.0
H1173 H 0.83135 0.59565 0.55103 0.0
H1174 H 0.90046 0.62931 0.50428 0.0
H1175 H 0.87113 0.57552 0.55132 0.0
H1176 H 0.95406 0.5663 0.56804 0.0
H1177 H 0.91403 0.58566 0.56682 0.0
H1178 H 0.91959 0.5882 0.49 0.0
H1179 H 0.95949 0.56814 0.49115 0.0
C1180 C 0.86278 0.63359 0.51475 0.0
C1181 C 0.84281 0.62444 0.52781 0.0
C1182 C 0.8855 0.62175 0.51451 0.0
C1183 C 0.88906 0.60074 0.5278 0.0
C1184 C 0.86911 0.5917 0.54097 0.0
C1185 C 0.84627 0.60321 0.54074 0.0
C1186 C 0.94676 0.57087 0.55084 0.0
C1187 C 0.9601 0.56555 0.52969 0.0
C1188 C 0.92373 0.58192 0.55016 0.0
C1189 C 0.91352 0.58854 0.52832 0.0
C1190 C 0.92693 0.58346 0.50714 0.0
C1191 C 0.94976 0.57185 0.50779 0.0
H1192 H 0.18908 0.07534 0.27101 0.0
H1193 H 0.20613 0.05733 0.34375 0.0
H1194 H 0.20912 0.11278 0.27455 0.0
H1195 H 0.2273 0.09459 0.34707 0.0
H1196 H 0.23248 0.17566 0.35244 0.0
H1197 H 0.21728 0.13565 0.34979 0.0
H1198 H 0.24693 0.13096 0.27764 0.0
H1199 H 0.26116 0.17133 0.28019 0.0
C1200 C 0.1975 0.07927 0.28767 0.0
C1201 C 0.19597 0.06357 0.30717 0.0
C1202 C 0.20917 0.10066 0.28964 0.0
C1203 C 0.21986 0.10667 0.31109 0.0
C1204 C 0.21892 0.09061 0.33042 0.0
C1205 C 0.20694 0.06927 0.32852 0.0
C1206 C 0.23584 0.1659 0.33615 0.0
C1207 C 0.24766 0.1765 0.31642 0.0
C1208 C 0.22731 0.14297 0.33464 0.0
C1209 C 0.23079 0.13015 0.31345 0.0
C1210 C 0.24348 0.14055 0.29403 0.0
C1211 C 0.25165 0.16359 0.29545 0.0
H1212 H 0.30456 0.95741 0.52066 0.0
H1213 H 0.34344 0.89039 0.52376 0.0
H1214 H 0.34199 0.97695 0.50837 0.0
H1215 H 0.38063 0.90974 0.51081 0.0
H1216 H 0.44612 0.95743 0.51621 0.0
H1217 H 0.40905 0.93669 0.52611 0.0
H1218 H 0.37088 0.97975 0.47467 0.0
H1219 H 0.40804 1.00134 0.46555 0.0
C1220 C 0.32113 0.94689 0.51875 0.0
C1221 C 0.32119 0.92244 0.52333 0.0
C1222 C 0.34247 0.95801 0.51144 0.0
C1223 C 0.36421 0.94485 0.50848 0.0
C1224 C 0.36423 0.9204 0.51318 0.0
C1225 C 0.34294 0.90932 0.52061 0.0
C1226 C 0.42981 0.96249 0.50702 0.0
C1227 C 0.42985 0.98122 0.49036 0.0
C1228 C 0.40862 0.95042 0.5125 0.0
C1229 C 0.387 0.9567 0.5013 0.0
C1230 C 0.38722 0.97479 0.48387 0.0
C1231 C 0.40851 0.98693 0.4784 0.0
H1232 H 0.83383 0.60671 0.27009 0.0
H1233 H 0.90215 0.63617 0.24644 0.0
H1234 H 0.81409 0.64538 0.26524 0.0
H1235 H 0.88234 0.67446 0.24036 0.0
H1236 H 0.84664 0.74256 0.26983 0.0
H1237 H 0.86662 0.70429 0.26574 0.0
H1238 H 0.80118 0.67567 0.23815 0.0
H1239 H 0.78074 0.71399 0.2433 0.0
C1240 C 0.84449 0.62144 0.26358 0.0
C1241 C 0.86948 0.61873 0.25907 0.0
C1242 C 0.8332 0.64349 0.26052 0.0
C1243 C 0.84671 0.66301 0.25249 0.0
C1244 C 0.87156 0.6599 0.24703 0.0
C1245 C 0.88289 0.63801 0.25052 0.0
C1246 C 0.83662 0.72823 0.2625 0.0
C1247 C 0.81206 0.73111 0.25719 0.0
C1248 C 0.84812 0.70627 0.26001 0.0
C1249 C 0.83539 0.68687 0.25184 0.0
C1250 C 0.81128 0.69019 0.24499 0.0
C1251 C 0.79965 0.71213 0.24777 0.0
H1252 H 0.68636 0.45084 0.77311 0.0
H1253 H 0.71152 0.47249 0.84147 0.0
H1254 H 0.72147 0.42482 0.76809 0.0
H1255 H 0.74755 0.4469 0.83608 0.0
H1256 H 0.7825 0.37023 0.82949 0.0
H1257 H 0.75789 0.40582 0.83605 0.0
H1258 H 0.7637 0.42257 0.76069 0.0
H1259 H 0.7871 0.38611 0.75407 0.0
C1260 C 0.69959 0.45018 0.78699 0.0
C1261 C 0.69614 0.46353 0.80775 0.0
C1262 C 0.71998 0.43551 0.78396 0.0
C1263 C 0.73764 0.434 0.80151 0.0
C1264 C 0.73429 0.44757 0.82226 0.0
C1265 C 0.71366 0.46216 0.82538 0.0
C1266 C 0.77936 0.38204 0.8145 0.0
C1267 C 0.78629 0.37532 0.79122 0.0
C1268 C 0.76515 0.40247 0.81824 0.0
C1269 C 0.75809 0.41663 0.79876 0.0
C1270 C 0.76805 0.41155 0.77596 0.0
C1271 C 0.78175 0.39087 0.77216 0.0
H1272 H 0.02149 0.84163 0.9752 0.0
H1273 H 0.02984 0.872 0.90473 0.0
H1274 H 0.02425 0.88086 0.99248 0.0
H1275 H 0.0338 0.91106 0.92177 0.0
H1276 H 0.01997 0.9831 0.95677 0.0
H1277 H 0.01703 0.94402 0.93935 0.0
H1278 H 0.04663 0.91249 0.00297 0.0
H1279 H 0.0484 0.95149 0.02063 0.0
C1280 C 0.02409 0.85666 0.96334 0.0
C1281 C 0.02533 0.85339 0.93847 0.0
C1282 C 0.02592 0.87939 0.97329 0.0
C1283 C 0.02937 0.89981 0.95879 0.0
C1284 C 0.03071 0.89632 0.93386 0.0
C1285 C 0.0286 0.87365 0.92395 0.0
C1286 C 0.02607 0.96785 0.96699 0.0
C1287 C 0.03456 0.97078 0.99019 0.0
C1288 C 0.02445 0.94517 0.95691 0.0
C1289 C 0.03149 0.9244 0.9695 0.0
C1290 C 0.04045 0.92754 0.99257 0.0
C1291 C 0.04178 0.95018 0.00273 0.0
H1292 H 0.93992 0.26399 0.65177 0.0
H1293 H 0.97213 0.31571 0.69649 0.0
H1294 H 0.90239 0.26667 0.67617 0.0
H1295 H 0.93482 0.31858 0.72045 0.0
H1296 H 0.87431 0.2992 0.77271 0.0
H1297 H 0.91123 0.29352 0.7485 0.0
H1298 H 0.86962 0.29735 0.68454 0.0
H1299 H 0.83244 0.30269 0.70878 0.0
C1300 C 0.93898 0.27581 0.66682 0.0
C1301 C 0.95884 0.28962 0.6723 0.0
C1302 C 0.91754 0.27746 0.68064 0.0
C1303 C 0.91581 0.2928 0.70016 0.0
C1304 C 0.9358 0.30638 0.70569 0.0
C1305 C 0.95709 0.30481 0.69189 0.0
C1306 C 0.87301 0.29889 0.75349 0.0
C1307 C 0.85054 0.30159 0.74261 0.0
C1308 C 0.89414 0.29565 0.73966 0.0
C1309 C 0.89321 0.29505 0.7147 0.0
C1310 C 0.87075 0.29752 0.70378 0.0
C1311 C 0.84955 0.3008 0.71763 0.0
H1312 H 0.52372 0.22761 0.47714 0.0
H1313 H 0.5109 0.19613 0.40923 0.0
H1314 H 0.52305 0.18845 0.49617 0.0
H1315 H 0.51059 0.15698 0.42804 0.0
H1316 H 0.48986 0.09068 0.47175 0.0
H1317 H 0.48915 0.13018 0.4535 0.0
H1318 H 0.54441 0.1518 0.50095 0.0
H1319 H 0.54479 0.1125 0.51936 0.0
C1320 C 0.52078 0.21235 0.4662 0.0
C1321 C 0.51735 0.21529 0.44154 0.0
C1322 C 0.52055 0.18971 0.47714 0.0
C1323 C 0.51677 0.16909 0.46385 0.0
C1324 C 0.51322 0.17215 0.43917 0.0
C1325 C 0.51355 0.19477 0.42825 0.0
C1326 C 0.5018 0.10386 0.4784 0.0
C1327 C 0.51731 0.09812 0.49722 0.0
C1328 C 0.50155 0.12664 0.46775 0.0
C1329 C 0.51674 0.14463 0.47553 0.0
C1330 C 0.53213 0.13884 0.49449 0.0
C1331 C 0.53244 0.11607 0.50506 0.0
H1332 H 0.59902 0.76761 0.13911 0.0
H1333 H 0.55896 0.8076 0.19299 0.0
H1334 H 0.63162 0.76045 0.16685 0.0
H1335 H 0.59157 0.80028 0.22079 0.0
H1336 H 0.66881 0.8027 0.25167 0.0
H1337 H 0.63514 0.81066 0.2253 0.0
H1338 H 0.63646 0.73726 0.20486 0.0
H1339 H 0.67045 0.72945 0.23083 0.0
C1340 C 0.59727 0.77499 0.15683 0.0
C1341 C 0.5765 0.78813 0.16395 0.0
C1342 C 0.61581 0.77072 0.17274 0.0
C1343 C 0.61395 0.77963 0.19599 0.0
C1344 C 0.59345 0.79329 0.20292 0.0
C1345 C 0.57483 0.79744 0.18705 0.0
C1346 C 0.66183 0.78829 0.24157 0.0
C1347 C 0.67229 0.7655 0.24315 0.0
C1348 C 0.6425 0.7928 0.22664 0.0
C1349 C 0.6334 0.77461 0.21293 0.0
C1350 C 0.64338 0.75166 0.21503 0.0
C1351 C 0.66261 0.74713 0.23009 0.0
H1352 H 0.02395 0.24829 0.55452 0.0
H1353 H 0.05134 0.2117 0.6165 0.0
H1354 H 0.03408 0.21351 0.53017 0.0
H1355 H 0.06174 0.17734 0.59219 0.0
H1356 H 0.09392 0.12591 0.53937 0.0
H1357 H 0.0902 0.16598 0.55545 0.0
H1358 H 0.01596 0.17066 0.53343 0.0
H1359 H 0.01969 0.13066 0.51756 0.0
C1360 C 0.03231 0.23291 0.56283 0.0
C1361 C 0.03667 0.23246 0.58736 0.0
C1362 C 0.03814 0.21316 0.54894 0.0
C1363 C 0.04886 0.193 0.55937 0.0
C1364 C 0.05382 0.19286 0.58373 0.0
C1365 C 0.04762 0.21238 0.59765 0.0
C1366 C 0.07708 0.13582 0.53747 0.0
C1367 C 0.05698 0.12531 0.5276 0.0
C1368 C 0.07492 0.15858 0.54669 0.0
C1369 C 0.05277 0.17117 0.5457 0.0
C1370 C 0.03325 0.1613 0.53423 0.0
C1371 C 0.03529 0.13844 0.52538 0.0
H1372 H 0.60398 0.25214 0.394 0.0
H1373 H 0.58038 0.30662 0.345 0.0
H1374 H 0.64411 0.25107 0.37379 0.0
H1375 H 0.62064 0.30601 0.32527 0.0
H1376 H 0.70484 0.31673 0.31844 0.0
H1377 H 0.66444 0.3164 0.33765 0.0
H1378 H 0.66315 0.24059 0.33115 0.0
H1379 H 0.70344 0.24093 0.31124 0.0
C1380 C 0.60734 0.26391 0.37895 0.0
C1381 C 0.58887 0.27946 0.37116 0.0
C1382 C 0.63033 0.26322 0.3673 0.0
C1383 C 0.63568 0.27848 0.3479 0.0
C1384 C 0.61723 0.2941 0.34021 0.0
C1385 C 0.5941 0.29439 0.35148 0.0
C1386 C 0.69599 0.29995 0.32104 0.0
C1387 C 0.70752 0.27885 0.31323 0.0
C1388 C 0.67273 0.2998 0.33199 0.0
C1389 C 0.66047 0.27848 0.33599 0.0
C1390 C 0.67209 0.25731 0.32847 0.0
C1391 C 0.69516 0.25752 0.31697 0.0
H1392 H 0.48896 0.84634 0.0591 0.0
H1393 H 0.53881 0.87317 0.10967 0.0
H1394 H 0.48242 0.88642 0.04334 0.0
H1395 H 0.53255 0.9129 0.0938 0.0
H1396 H 0.50193 0.98348 0.07805 0.0
H1397 H 0.49954 0.94305 0.09309 0.0
H1398 H 0.50615 0.91702 0.02104 0.0
H1399 H 0.50806 0.9575 0.00586 0.0
C1400 C 0.49865 0.86076 0.06668 0.0
C1401 C 0.51438 0.85674 0.08558 0.0
C1402 C 0.49486 0.88363 0.05772 0.0
C1403 C 0.50668 0.90274 0.06763 0.0
C1404 C 0.52274 0.89856 0.08622 0.0
C1405 C 0.52654 0.87579 0.09512 0.0
C1406 C 0.5023 0.96917 0.06537 0.0
C1407 C 0.5056 0.97359 0.04082 0.0
C1408 C 0.50109 0.94605 0.074 0.0
C1409 C 0.50323 0.92698 0.05823 0.0
C1410 C 0.50448 0.93143 0.03356 0.0
C1411 C 0.50562 0.9546 0.0249 0.0
H1412 H 0.97356 0.79403 0.8327 0.0
H1413 H 0.9341 0.7723 0.8965 0.0
H1414 H 0.9363 0.7925 0.81018 0.0
H1415 H 0.89688 0.77081 0.87411 0.0
H1416 H 0.83925 0.74732 0.823 0.0
H1417 H 0.87734 0.74838 0.84382 0.0
H1418 H 0.89658 0.81187 0.80492 0.0
H1419 H 0.85835 0.81076 0.78396 0.0
C1420 C 0.95694 0.78895 0.84197 0.0
C1421 C 0.95699 0.78327 0.86651 0.0
C1422 C 0.93545 0.78818 0.82904 0.0
C1423 C 0.91333 0.78144 0.84015 0.0
C1424 C 0.91347 0.77576 0.86471 0.0
C1425 C 0.93488 0.77676 0.87767 0.0
C1426 C 0.85165 0.76142 0.81863 0.0
C1427 C 0.84553 0.7789 0.80159 0.0
C1428 C 0.87353 0.76216 0.83082 0.0
C1429 C 0.89025 0.7803 0.82634 0.0
C1430 C 0.88441 0.79748 0.80884 0.0
C1431 C 0.86237 0.79687 0.79678 0.0
H1432 H 0.95573 0.04331 0.80298 0.0
H1433 H 0.90929 0.09995 0.83007 0.0
H1434 H 0.97901 0.04406 0.83918 0.0
H1435 H 0.9323 0.10041 0.86649 0.0
H1436 H 0.99336 0.10945 0.9182 0.0
H1437 H 0.97252 0.11001 0.88057 0.0
H1438 H 0.97228 0.03364 0.88142 0.0
H1439 H 0.99396 0.03306 0.91859 0.0
C1440 C 0.95055 0.05595 0.81666 0.0
C1441 C 0.9307 0.07154 0.8138 0.0
C1442 C 0.96377 0.05627 0.83742 0.0
C1443 C 0.95738 0.0722 0.85568 0.0
C1444 C 0.93779 0.0881 0.8526 0.0
C1445 C 0.92456 0.08777 0.83182 0.0
C1446 C 0.98915 0.09278 0.91021 0.0
C1447 C 0.99533 0.07121 0.92137 0.0
C1448 C 0.97698 0.09312 0.8888 0.0
C1449 C 0.97076 0.07188 0.8781 0.0
C1450 C 0.97706 0.05029 0.88915 0.0
C1451 C 0.98922 0.04996 0.91058 0.0
H1452 H 0.78457 0.25251 0.56465 0.0
H1453 H 0.7547 0.19077 0.59955 0.0
H1454 H 0.77176 0.27652 0.59896 0.0
H1455 H 0.74049 0.21473 0.63297 0.0
H1456 H 0.75514 0.25412 0.70079 0.0
H1457 H 0.75952 0.23176 0.66455 0.0
H1458 H 0.73991 0.29409 0.62341 0.0
H1459 H 0.73695 0.31702 0.66035 0.0
C1460 C 0.77503 0.2442 0.57958 0.0
C1461 C 0.77116 0.21978 0.57988 0.0
C1462 C 0.76739 0.25795 0.59907 0.0
C1463 C 0.75532 0.24751 0.61887 0.0
C1464 C 0.75034 0.22325 0.61836 0.0
C1465 C 0.75849 0.20949 0.59924 0.0
C1466 C 0.75167 0.26305 0.68402 0.0
C1467 C 0.7462 0.28737 0.68326 0.0
C1468 C 0.75383 0.25014 0.66319 0.0
C1469 C 0.75015 0.26111 0.64096 0.0
C1470 C 0.74322 0.28522 0.64024 0.0
C1471 C 0.74122 0.29827 0.66131 0.0
H1472 H 0.65938 0.02563 0.37318 0.0
H1473 H 0.58671 0.04352 0.35152 0.0
H1474 H 0.64435 0.02131 0.41464 0.0
H1475 H 0.57195 0.03931 0.39258 0.0
H1476 H 0.598 0.04163 0.48767 0.0
H1477 H 0.62074 0.0456 0.44963 0.0
H1478 H 0.57044 0.99967 0.41659 0.0
H1479 H 0.54771 0.9958 0.45422 0.0
C1480 C 0.64038 0.02921 0.37738 0.0
C1481 C 0.62408 0.03455 0.35921 0.0
C1482 C 0.63184 0.02665 0.40098 0.0
C1483 C 0.60698 0.02937 0.40646 0.0
C1484 C 0.59113 0.03654 0.38857 0.0
C1485 C 0.59959 0.03911 0.36515 0.0
C1486 C 0.59228 0.03184 0.47243 0.0
C1487 C 0.57088 0.01877 0.47365 0.0
C1488 C 0.60524 0.03418 0.45075 0.0
C1489 C 0.59684 0.02343 0.43026 0.0
C1490 C 0.57685 0.00856 0.43213 0.0
C1491 C 0.56394 0.00627 0.45364 0.0
H1492 H 0.81461 0.85122 0.08812 0.0
H1493 H 0.74684 0.88733 0.10516 0.0
H1494 H 0.81396 0.83293 0.12813 0.0
H1495 H 0.74597 0.86885 0.14479 0.0
H1496 H 0.74023 0.81217 0.2053 0.0
H1497 H 0.74132 0.82944 0.16502 0.0
H1498 H 0.81717 0.84403 0.17153 0.0
H1499 H 0.816 0.82709 0.21197 0.0
C1500 C 0.7995 0.85518 0.1003 0.0
C1501 C 0.78078 0.87083 0.09321 0.0
C1502 C 0.79917 0.84477 0.12337 0.0
C1503 C 0.77987 0.84927 0.13995 0.0
C1504 C 0.76104 0.86468 0.13264 0.0
C1505 C 0.7616 0.87541 0.10983 0.0
C1506 C 0.75718 0.81906 0.19821 0.0
C1507 C 0.778 0.81819 0.21216 0.0
C1508 C 0.75778 0.82909 0.17503 0.0
C1509 C 0.77935 0.83823 0.16474 0.0
C1510 C 0.80025 0.83706 0.17859 0.0
C1511 C 0.79953 0.82743 0.20194 0.0
H1512 H 0.90463 0.04071 0.6739 0.0
H1513 H 0.96103 0.08027 0.70595 0.0
H1514 H 0.93226 0.03029 0.64096 0.0
H1515 H 0.98899 0.06949 0.67289 0.0
H1516 H 0.01619 0.06578 0.59178 0.0
H1517 H 0.99469 0.07615 0.62896 0.0
H1518 H 0.96877 0.0048 0.6357 0.0
H1519 H 0.9898 0.99451 0.59836 0.0
C1520 C 0.92292 0.04729 0.67382 0.0
C1521 C 0.93072 0.06123 0.69248 0.0
C1522 C 0.93883 0.04109 0.65511 0.0
C1523 C 0.96291 0.04867 0.65467 0.0
C1524 C 0.97054 0.06335 0.67288 0.0
C1525 C 0.95455 0.06955 0.69171 0.0
C1526 C 0.00645 0.05213 0.60154 0.0
C1527 C 0.0043 0.02944 0.59198 0.0
C1528 C 0.99413 0.0581 0.62282 0.0
C1529 C 0.9796 0.04143 0.63484 0.0
C1530 C 0.97934 0.01816 0.6264 0.0
C1531 C 0.99153 0.01222 0.60514 0.0
H1532 H 0.79724 0.23964 0.46423 0.0
H1533 H 0.80315 0.16787 0.4392 0.0
H1534 H 0.80255 0.25431 0.4235 0.0
H1535 H 0.81025 0.18231 0.39858 0.0
H1536 H 0.78239 0.21607 0.32953 0.0
H1537 H 0.78727 0.19895 0.36886 0.0
H1538 H 0.82697 0.26023 0.38953 0.0
H1539 H 0.82057 0.27801 0.35037 0.0
C1540 C 0.80015 0.22706 0.44997 0.0
C1541 C 0.79937 0.20272 0.45461 0.0
C1542 C 0.8035 0.2354 0.42663 0.0
C1543 C 0.80673 0.2195 0.40762 0.0
C1544 C 0.80721 0.19508 0.41264 0.0
C1545 C 0.80322 0.18678 0.43588 0.0
C1546 C 0.79258 0.22567 0.34233 0.0
C1547 C 0.8008 0.24848 0.3371 0.0
C1548 C 0.79553 0.21579 0.36493 0.0
C1549 C 0.80724 0.22833 0.3826 0.0
C1550 C 0.81724 0.25037 0.3766 0.0
C1551 C 0.8138 0.26048 0.35413 0.0
H1552 H 0.56398 0.02138 0.25724 0.0
H1553 H 0.62007 0.98753 0.21343 0.0
H1554 H 0.53896 0.02653 0.22236 0.0
H1555 H 0.59494 0.99255 0.17866 0.0
H1556 H 0.53888 0.07128 0.1498 0.0
H1557 H 0.55105 0.05519 0.18795 0.0
H1558 H 0.55399 0.98493 0.15876 0.0
H1559 H 0.54084 1.00075 0.12064 0.0
C1560 C 0.57062 0.01434 0.24033 0.0
C1561 C 0.59412 0.00449 0.23784 0.0
C1562 C 0.55632 0.01734 0.22043 0.0
C1563 C 0.56522 0.01021 0.1979 0.0
C1564 C 0.58766 0.99812 0.1959 0.0
C1565 C 0.60208 0.99536 0.21574 0.0
C1566 C 0.54143 0.05235 0.15152 0.0
C1567 C 0.5393 0.03746 0.13186 0.0
C1568 C 0.54833 0.04311 0.17347 0.0
C1569 C 0.55345 0.01884 0.17617 0.0
C1570 C 0.55025 0.00374 0.15698 0.0
C1571 C 0.543 0.01292 0.13508 0.0
H1572 H 0.75769 0.84035 0.97144 0.0
H1573 H 0.79339 0.89942 0.93759 0.0
H1574 H 0.75328 0.82223 0.93258 0.0
H1575 H 0.79029 0.88097 0.89888 0.0
H1576 H 0.7672 0.85235 0.82783 0.0
H1577 H 0.76846 0.87105 0.86675 0.0
H1578 H 0.76945 0.80209 0.90077 0.0
H1579 H 0.76689 0.78374 0.86204 0.0
C1580 C 0.76487 0.84939 0.95571 0.0
C1581 C 0.77591 0.87144 0.95789 0.0
C1582 C 0.76249 0.83888 0.93319 0.0
C1583 C 0.77138 0.84984 0.91191 0.0
C1584 C 0.78262 0.87188 0.91432 0.0
C1585 C 0.78467 0.8825 0.93678 0.0
C1586 C 0.76735 0.84119 0.84365 0.0
C1587 C 0.76672 0.81643 0.8415 0.0
C1588 C 0.76839 0.85195 0.86621 0.0
C1589 C 0.76924 0.83836 0.88757 0.0
C1590 C 0.7684 0.81355 0.88525 0.0
C1591 C 0.76702 0.80286 0.86276 0.0
H1592 H 0.83337 0.9696 0.0558 0.0
H1593 H 0.8636 0.92825 0.99762 0.0
H1594 H 0.87051 0.99271 0.05602 0.0
H1595 H 0.90044 0.9517 0.99746 0.0
H1596 H 0.95218 0.01553 0.98883 0.0
H1597 H 0.91387 0.99434 0.98868 0.0
H1598 H 0.91564 0.9859 0.0651 0.0
H1599 H 0.9542 0.00657 0.06521 0.0
C1600 C 0.84787 0.96547 0.04299 0.0
C1601 C 0.84538 0.94694 0.02674 0.0
C1602 C 0.86924 0.9787 0.04316 0.0
C1603 C 0.88859 0.97422 0.0267 0.0
C1604 C 0.88593 0.95587 0.01026 0.0
C1605 C 0.86481 0.9423 0.01045 0.0
C1606 C 0.94427 0.00945 0.00566 0.0
C1607 C 0.95637 0.01299 0.02706 0.0
C1608 C 0.92236 0.99707 0.00555 0.0
C1609 C 0.91154 0.98827 0.02688 0.0
C1610 C 0.92325 0.99249 0.04834 0.0
C1611 C 0.94542 0.00438 0.0484 0.0
H1612 H 0.35672 0.58405 0.01312 0.0
H1613 H 0.3796 0.65024 0.04177 0.0
H1614 H 0.39212 0.56417 0.02914 0.0
H1615 H 0.41505 0.6301 0.05842 0.0
H1616 H 0.48962 0.58804 0.04885 0.0
H1617 H 0.45267 0.61147 0.04324 0.0
H1618 H 0.40985 0.5518 0.0662 0.0
H1619 H 0.44678 0.52814 0.07101 0.0
C1620 C 0.36927 0.59432 0.02302 0.0
C1621 C 0.36552 0.61868 0.02611 0.0
C1622 C 0.38942 0.58288 0.03246 0.0
C1623 C 0.40622 0.59552 0.04533 0.0
C1624 C 0.40242 0.61993 0.04855 0.0
C1625 C 0.38219 0.63143 0.03901 0.0
C1626 C 0.47233 0.58014 0.0533 0.0
C1627 C 0.47098 0.55615 0.05986 0.0
C1628 C 0.45115 0.59358 0.05014 0.0
C1629 C 0.42837 0.58327 0.05373 0.0
C1630 C 0.42718 0.56 0.06266 0.0
C1631 C 0.44829 0.5465 0.06555 0.0
H1632 H 0.19641 0.58878 0.80664 0.0
H1633 H 0.20134 0.56229 0.73467 0.0
H1634 H 0.21119 0.62677 0.79248 0.0
H1635 H 0.21582 0.60069 0.72037 0.0
H1636 H 0.20755 0.69814 0.75859 0.0
H1637 H 0.19311 0.65864 0.76804 0.0
H1638 H 0.2506 0.62845 0.72325 0.0
H1639 H 0.26487 0.6683 0.71358 0.0
C1640 C 0.2008 0.59106 0.78781 0.0
C1641 C 0.19756 0.57272 0.77171 0.0
C1642 C 0.20907 0.61284 0.77967 0.0
C1643 C 0.21416 0.61675 0.75527 0.0
C1644 C 0.21197 0.5981 0.73926 0.0
C1645 C 0.20369 0.5762 0.74744 0.0
C1646 C 0.21689 0.68304 0.75058 0.0
C1647 C 0.23746 0.68609 0.73567 0.0
C1648 C 0.20874 0.66049 0.75605 0.0
C1649 C 0.22112 0.64053 0.74681 0.0
C1650 C 0.24078 0.64359 0.73063 0.0
C1651 C 0.24889 0.66629 0.72505 0.0
H1652 H 0.19664 0.42157 0.56252 0.0
H1653 H 0.22034 0.46872 0.50589 0.0
H1654 H 0.15734 0.44265 0.56494 0.0
H1655 H 0.18097 0.48949 0.50801 0.0
H1656 H 0.09772 0.49917 0.49922 0.0
H1657 H 0.13762 0.47978 0.49889 0.0
H1658 H 0.13831 0.48353 0.57561 0.0
H1659 H 0.09826 0.50349 0.57595 0.0
C1660 C 0.1935 0.43645 0.5506 0.0
C1661 C 0.21174 0.44337 0.53397 0.0
C1662 C 0.17098 0.44863 0.55208 0.0
C1663 C 0.16584 0.4678 0.53665 0.0
C1664 C 0.18414 0.47473 0.52008 0.0
C1665 C 0.20679 0.46285 0.51891 0.0
C1666 C 0.10633 0.49599 0.51608 0.0
C1667 C 0.09463 0.50301 0.53762 0.0
C1668 C 0.12935 0.48493 0.51586 0.0
C1669 C 0.14134 0.48006 0.5372 0.0
C1670 C 0.12961 0.48688 0.55883 0.0
C1671 C 0.10669 0.49844 0.55902 0.0
H1672 H 0.88663 0.98238 0.76974 0.0
H1673 H 0.81903 0.01448 0.74792 0.0
H1674 H 0.86929 0.94342 0.76704 0.0
H1675 H 0.80117 0.97549 0.74626 0.0
H1676 H 0.78783 0.90236 0.71711 0.0
H1677 H 0.80398 0.94145 0.72183 0.0
H1678 H 0.84097 0.91731 0.7847 0.0
H1679 H 0.82637 0.87785 0.77904 0.0
C1680 C 0.8679 0.98108 0.76478 0.0
C1681 C 0.85416 1.00135 0.75893 0.0
C1682 C 0.8579 0.95877 0.76335 0.0
C1683 C 0.83385 0.95633 0.75636 0.0
C1684 C 0.81989 0.97674 0.75125 0.0
C1685 C 0.83002 0.99906 0.75237 0.0
C1686 C 0.79964 0.9052 0.73177 0.0
C1687 C 0.80579 0.88674 0.74761 0.0
C1688 C 0.8086 0.9278 0.73471 0.0
C1689 C 0.8237 0.93254 0.7537 0.0
C1690 C 0.82961 0.91419 0.7697 0.0
C1691 C 0.82092 0.89155 0.7666 0.0
H1692 H 0.7 0.17377 0.52808 0.0
H1693 H 0.73911 0.10859 0.54307 0.0
H1694 H 0.66209 0.15523 0.5406 0.0
H1695 H 0.70128 0.08979 0.55471 0.0
H1696 H 0.63358 0.06662 0.5929 0.0
H1697 H 0.67006 0.08954 0.58544 0.0
H1698 H 0.63534 0.12611 0.52717 0.0
H1699 H 0.59866 0.10433 0.53554 0.0
C1700 C 0.70041 0.1554 0.53376 0.0
C1701 C 0.72238 0.14255 0.53455 0.0
C1702 C 0.67875 0.14479 0.54096 0.0
C1703 C 0.67871 0.12108 0.54881 0.0
C1704 C 0.70074 0.10823 0.54929 0.0
C1705 C 0.72238 0.1189 0.54234 0.0
C1706 C 0.63362 0.07993 0.57888 0.0
C1707 C 0.61345 0.08336 0.56453 0.0
C1708 C 0.65458 0.09285 0.5744 0.0
C1709 C 0.65571 0.10936 0.55545 0.0
C1710 C 0.63507 0.11361 0.54194 0.0
C1711 C 0.61414 0.10085 0.54652 0.0
H1712 H 0.19261 0.44089 0.761 0.0
H1713 H 0.22557 0.46381 0.82549 0.0
H1714 H 0.21175 0.40204 0.76567 0.0
H1715 H 0.24478 0.42467 0.83011 0.0
H1716 H 0.29303 0.35703 0.80633 0.0
H1717 H 0.27581 0.39713 0.80749 0.0
H1718 H 0.20455 0.36958 0.79732 0.0
H1719 H 0.22156 0.32957 0.79604 0.0
C1720 C 0.20421 0.43771 0.77598 0.0
C1721 C 0.20749 0.45522 0.79299 0.0
C1722 C 0.21493 0.41545 0.77877 0.0
C1723 C 0.22922 0.41038 0.79853 0.0
C1724 C 0.23367 0.42823 0.81484 0.0
C1725 C 0.22276 0.45054 0.81214 0.0
C1726 C 0.27361 0.35949 0.80489 0.0
C1727 C 0.25867 0.34025 0.80067 0.0
C1728 C 0.26382 0.3824 0.80557 0.0
C1729 C 0.23904 0.38628 0.80195 0.0
C1730 C 0.22384 0.36693 0.79965 0.0
C1731 C 0.23357 0.34407 0.79907 0.0
H1732 H 0.41244 0.62368 0.24895 0.0
H1733 H 0.3553 0.59577 0.20741 0.0
H1734 H 0.39172 0.66167 0.25024 0.0
H1735 H 0.33514 0.63454 0.20697 0.0
H1736 H 0.28799 0.69026 0.24702 0.0
H1737 H 0.31171 0.65545 0.23447 0.0
H1738 H 0.37715 0.6964 0.23519 0.0
H1739 H 0.35343 0.73023 0.24982 0.0
C1740 C 0.39591 0.62603 0.23918 0.0
C1741 C 0.38522 0.60681 0.22841 0.0
C1742 C 0.38396 0.64793 0.23981 0.0
C1743 C 0.36136 0.65119 0.22912 0.0
C1744 C 0.35205 0.63249 0.21612 0.0
C1745 C 0.36372 0.61037 0.21606 0.0
C1746 C 0.30747 0.69153 0.24455 0.0
C1747 C 0.31915 0.71238 0.24996 0.0
C1748 C 0.3211 0.67178 0.23699 0.0
C1749 C 0.34653 0.67293 0.23397 0.0
C1750 C 0.3578 0.69452 0.23802 0.0
C1751 C 0.34428 0.71392 0.24635 0.0
H1752 H 0.54689 0.69256 0.64371 0.0
H1753 H 0.50931 0.72353 0.58447 0.0
H1754 H 0.54395 0.6535 0.62622 0.0
H1755 H 0.50516 0.68447 0.56741 0.0
H1756 H 0.51872 0.61424 0.52972 0.0
H1757 H 0.52157 0.65301 0.54733 0.0
H1758 H 0.52227 0.6207 0.61751 0.0
H1759 H 0.52065 0.58167 0.59951 0.0
C1760 C 0.53785 0.69105 0.62695 0.0
C1761 C 0.5285 0.71147 0.61554 0.0
C1762 C 0.5359 0.66841 0.61691 0.0
C1763 C 0.52422 0.66515 0.59512 0.0
C1764 C 0.51475 0.68573 0.58385 0.0
C1765 C 0.51699 0.70839 0.59376 0.0
C1766 C 0.51929 0.61531 0.54896 0.0
C1767 C 0.5193 0.59449 0.56305 0.0
C1768 C 0.52082 0.63784 0.55923 0.0
C1769 C 0.52216 0.64068 0.58415 0.0
C1770 C 0.52175 0.61976 0.59829 0.0
C1771 C 0.52052 0.59714 0.58794 0.0
H1772 H 0.60544 0.3296 0.8681 0.0
H1773 H 0.63874 0.27316 0.909 0.0
H1774 H 0.6447 0.33785 0.84875 0.0
H1775 H 0.67767 0.28106 0.88946 0.0
H1776 H 0.7479 0.30654 0.85787 0.0
H1777 H 0.71078 0.30854 0.88259 0.0
H1778 H 0.6685 0.31469 0.81916 0.0
H1779 H 0.70549 0.31316 0.7945 0.0
C1780 C 0.62122 0.31929 0.87327 0.0
C1781 C 0.61907 0.30056 0.88978 0.0
C1782 C 0.64361 0.32391 0.86212 0.0
C1783 C 0.66414 0.30991 0.86741 0.0
C1784 C 0.66222 0.29226 0.88514 0.0
C1785 C 0.63988 0.28763 0.89622 0.0
C1786 C 0.73067 0.30846 0.84923 0.0
C1787 C 0.72955 0.30938 0.82425 0.0
C1788 C 0.70946 0.30965 0.86338 0.0
C1789 C 0.68678 0.31177 0.8528 0.0
C1790 C 0.68574 0.31342 0.82785 0.0
C1791 C 0.70692 0.31226 0.81371 0.0
H1792 H 0.03546 0.36868 0.14453 0.0
H1793 H 0.01631 0.33663 0.0786 0.0
H1794 H 0.03402 0.40767 0.12541 0.0
H1795 H 0.015 0.37573 0.05927 0.0
H1796 H 0.99213 0.45261 0.03793 0.0
H1797 H 0.993 0.4133 0.05675 0.0
H1798 H 0.0545 0.43303 0.09719 0.0
H1799 H 0.05349 0.47222 0.07854 0.0
C1800 C 0.031 0.36989 0.12589 0.0
C1801 C 0.02606 0.34925 0.11322 0.0
C1802 C 0.03029 0.3924 0.11479 0.0
C1803 C 0.02444 0.39526 0.09058 0.0
C1804 C 0.01935 0.37457 0.07794 0.0
C1805 C 0.02025 0.35198 0.08903 0.0
C1806 C 0.00584 0.44861 0.05086 0.0
C1807 C 0.0227 0.4659 0.0566 0.0
C1808 C 0.00646 0.42587 0.06162 0.0
C1809 C 0.02382 0.4196 0.07871 0.0
C1810 C 0.0406 0.43698 0.08445 0.0
C1811 C 0.04011 0.4596 0.07358 0.0
H1812 H 0.97782 0.74365 0.36427 0.0
H1813 H 0.01183 0.80857 0.34152 0.0
H1814 H 0.94203 0.75474 0.34224 0.0
H1815 H 0.97602 0.81953 0.31898 0.0
H1816 H 0.89434 0.8433 0.3169 0.0
H1817 H 0.93447 0.83188 0.33064 0.0
H1818 H 0.92593 0.76172 0.30288 0.0
H1819 H 0.88579 0.77314 0.28935 0.0
C1820 C 0.97781 0.76009 0.35417 0.0
C1821 C 0.99749 0.77535 0.35475 0.0
C1822 C 0.95735 0.76639 0.34142 0.0
C1823 C 0.95617 0.78807 0.32897 0.0
C1824 C 0.97632 0.80285 0.32867 0.0
C1825 C 0.99685 0.79652 0.34143 0.0
C1826 C 0.90124 0.82558 0.31341 0.0
C1827 C 0.88682 0.809 0.30243 0.0
C1828 C 0.92424 0.81905 0.32118 0.0
C1829 C 0.93326 0.79584 0.31799 0.0
C1830 C 0.91927 0.77961 0.30598 0.0
C1831 C 0.89627 0.78611 0.29831 0.0
H1832 H 0.53594 0.31777 0.98274 0.0
H1833 H 0.48507 0.33043 0.92674 0.0
H1834 H 0.51543 0.34815 0.00676 0.0
H1835 H 0.46455 0.36104 0.95085 0.0
H1836 H 0.47643 0.43741 0.98467 0.0
H1837 H 0.48131 0.40086 0.96225 0.0
H1838 H 0.47569 0.36045 0.02795 0.0
H1839 H 0.47093 0.39718 0.05036 0.0
C1840 C 0.52017 0.32684 0.97574 0.0
C1841 C 0.51226 0.32204 0.95282 0.0
C1842 C 0.50825 0.34401 0.98958 0.0
C1843 C 0.48837 0.35683 0.98064 0.0
C1844 C 0.47983 0.35135 0.9581 0.0
C1845 C 0.4916 0.33394 0.94434 0.0
C1846 C 0.47555 0.42065 0.99417 0.0
C1847 C 0.47369 0.41998 0.01916 0.0
C1848 C 0.47814 0.39977 0.98138 0.0
C1849 C 0.47913 0.37791 0.99346 0.0
C1850 C 0.47514 0.37715 0.01831 0.0
C1851 C 0.47228 0.39808 0.03108 0.0
H1852 H 0.9718 0.29535 0.21897 0.0
H1853 H 0.93804 0.27571 0.15399 0.0
H1854 H 0.93214 0.29604 0.23977 0.0
H1855 H 0.89842 0.27651 0.17468 0.0
H1856 H 0.83568 0.25393 0.22527 0.0
H1857 H 0.87516 0.2546 0.20462 0.0
H1858 H 0.89293 0.3173 0.24292 0.0
H1859 H 0.85327 0.31656 0.26377 0.0
C1860 C 0.95592 0.29126 0.20907 0.0
C1861 C 0.95824 0.28543 0.18475 0.0
C1862 C 0.93308 0.29179 0.221 0.0
C1863 C 0.91186 0.28627 0.20904 0.0
C1864 C 0.91425 0.28056 0.18466 0.0
C1865 C 0.93704 0.28023 0.17271 0.0
C1866 C 0.84793 0.26792 0.22934 0.0
C1867 C 0.8411 0.28519 0.2463 0.0
C1868 C 0.87064 0.26839 0.21732 0.0
C1869 C 0.88745 0.28603 0.22193 0.0
C1870 C 0.88068 0.30328 0.23898 0.0
C1871 C 0.85781 0.30293 0.25089 0.0
H1872 H 0.07941 0.71601 0.4713 0.0
H1873 H 0.03611 0.68114 0.41988 0.0
H1874 H 0.08371 0.67867 0.49357 0.0
H1875 H 0.04022 0.64426 0.44204 0.0
H1876 H 0.04843 0.6144 0.53792 0.0
H1877 H 0.05524 0.65205 0.51725 0.0
H1878 H 0.07237 0.61475 0.45191 0.0
H1879 H 0.06511 0.57728 0.47232 0.0
C1880 C 0.07088 0.70038 0.46478 0.0
C1881 C 0.0574 0.70138 0.44394 0.0
C1882 C 0.07335 0.67912 0.47748 0.0
C1883 C 0.06257 0.65861 0.46931 0.0
C1884 C 0.04918 0.6597 0.44844 0.0
C1885 C 0.04661 0.68087 0.43589 0.0
C1886 C 0.05424 0.61426 0.5193 0.0
C1887 C 0.05572 0.59305 0.50654 0.0
C1888 C 0.05822 0.63577 0.50752 0.0
C1889 C 0.06383 0.63621 0.48293 0.0
C1890 C 0.06754 0.61484 0.47078 0.0
C1891 C 0.06342 0.59344 0.48247 0.0
H1892 H 0.57944 0.76894 0.7208 0.0
H1893 H 0.61924 0.79135 0.65745 0.0
H1894 H 0.61649 0.77031 0.74359 0.0
H1895 H 0.65632 0.79263 0.68013 0.0
H1896 H 0.71357 0.81584 0.73193 0.0
H1897 H 0.67586 0.81461 0.71052 0.0
H1898 H 0.656 0.75143 0.74961 0.0
H1899 H 0.69386 0.75273 0.7712 0.0
C1900 C 0.59611 0.77411 0.71167 0.0
C1901 C 0.59617 0.78005 0.68718 0.0
C1902 C 0.61749 0.77478 0.72477 0.0
C1903 C 0.63969 0.78166 0.71392 0.0
C1904 C 0.63969 0.78756 0.68937 0.0
C1905 C 0.61835 0.78668 0.67624 0.0
C1906 C 0.70112 0.80176 0.73622 0.0
C1907 C 0.70697 0.78445 0.75355 0.0
C1908 C 0.67945 0.80092 0.72367 0.0
C1909 C 0.66264 0.78282 0.72801 0.0
C1910 C 0.66822 0.76579 0.74576 0.0
C1911 C 0.69005 0.76651 0.75821 0.0
H1912 H 0.59463 0.46848 0.75321 0.0
H1913 H 0.59984 0.54415 0.74367 0.0
H1914 H 0.57726 0.46568 0.71384 0.0
H1915 H 0.58213 0.5414 0.70463 0.0
H1916 H 0.58221 0.52226 0.62557 0.0
H1917 H 0.59637 0.52534 0.66607 0.0
H1918 H 0.54117 0.47715 0.69101 0.0
H1919 H 0.52696 0.47411 0.65049 0.0
C1920 C 0.59173 0.48451 0.74284 0.0
C1921 C 0.59872 0.50649 0.75134 0.0
C1922 C 0.58174 0.48293 0.72038 0.0
C1923 C 0.5786 0.50331 0.70613 0.0
C1924 C 0.58478 0.52537 0.71507 0.0
C1925 C 0.59477 0.52694 0.73746 0.0
C1926 C 0.57296 0.51252 0.63972 0.0
C1927 C 0.5535 0.49794 0.63485 0.0
C1928 C 0.58104 0.51428 0.6629 0.0
C1929 C 0.56978 0.50153 0.68166 0.0
C1930 C 0.55034 0.48695 0.67682 0.0
C1931 C 0.54226 0.48518 0.65363 0.0
H1932 H 0.82445 0.38419 0.98949 0.0
H1933 H 0.78471 0.32011 0.00182 0.0
H1934 H 0.84568 0.36636 0.95529 0.0
H1935 H 0.80506 0.30248 0.96676 0.0
H1936 H 0.84357 0.27623 0.90074 0.0
H1937 H 0.84074 0.2891 0.94234 0.0
H1938 H 0.82599 0.36068 0.91808 0.0
H1939 H 0.82937 0.34787 0.87702 0.0
C1940 C 0.82065 0.36608 0.98504 0.0
C1941 C 0.80266 0.35359 0.9977 0.0
C1942 C 0.83276 0.35589 0.96554 0.0
C1943 C 0.82655 0.3333 0.95801 0.0
C1944 C 0.81027 0.31992 0.97217 0.0
C1945 C 0.79848 0.33001 0.9921 0.0
C1946 C 0.84042 0.29479 0.90447 0.0
C1947 C 0.83635 0.31109 0.88586 0.0
C1948 C 0.83867 0.3021 0.92818 0.0
C1949 C 0.83312 0.32585 0.93347 0.0
C1950 C 0.83065 0.34231 0.91467 0.0
C1951 C 0.83224 0.33498 0.89114 0.0
H1952 H 0.90779 0.53415 0.18033 0.0
H1953 H 0.9543 0.58947 0.20316 0.0
H1954 H 0.92472 0.53795 0.13983 0.0
H1955 H 0.97049 0.59403 0.16256 0.0
H1956 H 0.01948 0.56288 0.10176 0.0
H1957 H 0.99757 0.56958 0.13922 0.0
H1958 H 0.92954 0.5619 0.10414 0.0
H1959 H 0.95161 0.55436 0.0666 0.0
C1960 C 0.92133 0.54738 0.17653 0.0
C1961 C 0.93017 0.56116 0.19478 0.0
C1962 C 0.93083 0.54976 0.15335 0.0
C1963 C 0.94906 0.5662 0.1481 0.0
C1964 C 0.9568 0.58092 0.1662 0.0
C1965 C 0.94758 0.57829 0.18939 0.0
C1966 C 0.99984 0.56304 0.10192 0.0
C1967 C 0.98724 0.55771 0.08141 0.0
C1968 C 0.98725 0.56706 0.12337 0.0
C1969 C 0.96183 0.56604 0.12463 0.0
C1970 C 0.94915 0.56236 0.10373 0.0
C1971 C 0.96178 0.55816 0.08226 0.0
H1972 H 0.7436 0.72054 0.47015 0.0
H1973 H 0.80503 0.67763 0.44667 0.0
H1974 H 0.74416 0.74132 0.43144 0.0
H1975 H 0.80598 0.69877 0.40824 0.0
H1976 H 0.81471 0.76049 0.35195 0.0
H1977 H 0.81422 0.74017 0.39088 0.0
H1978 H 0.73687 0.73254 0.38748 0.0
H1979 H 0.73743 0.7523 0.34835 0.0
C1980 C 0.7573 0.71557 0.4568 0.0
C1981 C 0.77423 0.69728 0.4617 0.0
C1982 C 0.75758 0.72746 0.43449 0.0
C1983 C 0.77515 0.72187 0.4165 0.0
C1984 C 0.79227 0.70379 0.42157 0.0
C1985 C 0.79165 0.69154 0.44365 0.0
C1986 C 0.79756 0.75454 0.35948 0.0
C1987 C 0.77611 0.75817 0.34679 0.0
C1988 C 0.7973 0.74273 0.38183 0.0
C1989 C 0.77549 0.73462 0.39256 0.0
C1990 C 0.754 0.73861 0.38002 0.0
C1991 C 0.75435 0.74991 0.35745 0.0
H1992 H 0.58867 0.47744 0.87814 0.0
H1993 H 0.57244 0.54968 0.85727 0.0
H1994 H 0.56073 0.48146 0.91243 0.0
H1995 H 0.54415 0.55357 0.89131 0.0
H1996 H 0.54045 0.5579 0.97537 0.0
H1997 H 0.55306 0.55586 0.9336 0.0
H1998 H 0.5189 0.48819 0.92822 0.0
H1999 H 0.5065 0.49006 0.97029 0.0
C2000 C 0.57874 0.494 0.88062 0.0
C2001 C 0.58302 0.51337 0.86535 0.0
C2002 C 0.56255 0.49625 0.90011 0.0
C2003 C 0.55033 0.5179 0.9046 0.0
C2004 C 0.55351 0.53678 0.88842 0.0
C2005 C 0.56972 0.53454 0.86898 0.0
C2006 C 0.53497 0.54292 0.96511 0.0
C2007 C 0.52296 0.52392 0.9762 0.0
C2008 C 0.54209 0.54179 0.9411 0.0
C2009 C 0.53734 0.52163 0.92777 0.0
C2010 C 0.52316 0.50374 0.93823 0.0
C2011 C 0.51591 0.50492 0.96227 0.0
H2012 H 0.75514 0.39918 0.13028 0.0
H2013 H 0.71706 0.34073 0.10135 0.0
H2014 H 0.75079 0.38194 0.17001 0.0
H2015 H 0.71112 0.3241 0.14133 0.0
H2016 H 0.74071 0.34879 0.24079 0.0
H2017 H 0.72921 0.3694 0.20426 0.0
H2018 H 0.73806 0.30387 0.16561 0.0
H2019 H 0.74813 0.28332 0.2021 0.0
C2020 C 0.74513 0.38301 0.13262 0.0
C2021 C 0.7369 0.37093 0.11288 0.0
C2022 C 0.74242 0.37318 0.15543 0.0
C2023 C 0.73097 0.35134 0.15887 0.0
C2024 C 0.72069 0.34054 0.13923 0.0
C2025 C 0.72396 0.35007 0.11637 0.0
C2026 C 0.7397 0.33881 0.2245 0.0
C2027 C 0.74562 0.31456 0.22415 0.0
C2028 C 0.73321 0.3506 0.20358 0.0
C2029 C 0.73295 0.3384 0.18189 0.0
C2030 C 0.73763 0.31386 0.18196 0.0
C2031 C 0.74369 0.30205 0.2029 0.0
H2032 H 0.9781 0.52243 0.29934 0.0
H2033 H 0.93764 0.57456 0.34091 0.0
H2034 H 0.00447 0.5148 0.33288 0.0
H2035 H 0.96393 0.56689 0.37434 0.0
H2036 H 0.00841 0.48391 0.41166 0.0
H2037 H 0.99382 0.49557 0.37272 0.0
H2038 H 0.00712 0.5687 0.38803 0.0
H2039 H 0.02222 0.55704 0.42692 0.0
C2040 C 0.9751 0.53249 0.3155 0.0
C2041 C 0.95569 0.54885 0.31775 0.0
C2042 C 0.99015 0.52812 0.33462 0.0
C2043 C 0.98613 0.54022 0.3561 0.0
C2044 C 0.96755 0.55751 0.35785 0.0
C2045 C 0.95239 0.56175 0.33882 0.0
C2046 C 0.00886 0.50239 0.40652 0.0
C2047 C 0.016 0.5196 0.42255 0.0
C2048 C 1.00055 0.50906 0.38419 0.0
C2049 C 0.99919 0.53304 0.37757 0.0
C2050 C 0.00772 0.55013 0.39294 0.0
C2051 C 0.01617 0.54345 0.41522 0.0
H2052 H 0.78259 0.66017 0.61671 0.0
H2053 H 0.77431 0.72939 0.58477 0.0
H2054 H 0.78625 0.67788 0.65575 0.0
H2055 H 0.77684 0.74731 0.62399 0.0
H2056 H 0.80066 0.77647 0.69474 0.0
H2057 H 0.79956 0.75819 0.65567 0.0
H2058 H 0.7681 0.69594 0.68827 0.0
H2059 H 0.77031 0.71394 0.72737 0.0
C2060 C 0.78133 0.67925 0.61802 0.0
C2061 C 0.77813 0.69325 0.59736 0.0
C2062 C 0.78326 0.68953 0.64065 0.0
C2063 C 0.78182 0.7143 0.64365 0.0
C2064 C 0.77853 0.72827 0.62284 0.0
C2065 C 0.77686 0.71795 0.60015 0.0
C2066 C 0.79379 0.75874 0.69364 0.0
C2067 C 0.78579 0.74673 0.71451 0.0
C2068 C 0.79285 0.74824 0.67099 0.0
C2069 C 0.78357 0.72537 0.66819 0.0
C2070 C 0.77579 0.71332 0.68923 0.0
C2071 C 0.77698 0.72373 0.7119 0.0
H2072 H 0.72638 0.58574 0.53219 0.0
H2073 H 0.68484 0.65025 0.52192 0.0
H2074 H 0.68902 0.56301 0.53178 0.0
H2075 H 0.6476 0.62758 0.52121 0.0
H2076 H 0.58941 0.57783 0.49505 0.0
H2077 H 0.62744 0.5989 0.49565 0.0
H2078 H 0.64996 0.55598 0.55537 0.0
H2079 H 0.61149 0.5349 0.55498 0.0
C2080 C 0.7093 0.59512 0.52979 0.0
C2081 C 0.70879 0.61994 0.52703 0.0
C2082 C 0.68779 0.58205 0.52969 0.0
C2083 C 0.66507 0.59331 0.52639 0.0
C2084 C 0.66464 0.61814 0.52354 0.0
C2085 C 0.68608 0.63122 0.52405 0.0
C2086 C 0.60247 0.57262 0.50825 0.0
C2087 C 0.59716 0.55443 0.52491 0.0
C2088 C 0.62433 0.58495 0.50871 0.0
C2089 C 0.64196 0.5794 0.52564 0.0
C2090 C 0.63699 0.56077 0.54195 0.0
C2091 C 0.61486 0.54863 0.54174 0.0
H2092 H 0.20222 0.94841 0.50588 0.0
H2093 H 0.16903 0.88835 0.54102 0.0
H2094 H 0.16304 0.96889 0.50542 0.0
H2095 H 0.1298 0.90918 0.5413 0.0
H2096 H 0.05968 0.94808 0.51848 0.0
H2097 H 0.0976 0.925 0.51666 0.0
H2098 H 0.13688 0.98713 0.53522 0.0
H2099 H 0.0993 0.01023 0.53632 0.0
C2100 C 0.18649 0.93957 0.51343 0.0
C2101 C 0.18862 0.91691 0.52365 0.0
C2102 C 0.1641 0.95135 0.51334 0.0
C2103 C 0.14343 0.9408 0.5237 0.0
C2104 C 0.14539 0.91772 0.53309 0.0
C2105 C 0.16782 0.90583 0.53299 0.0
C2106 C 0.07643 0.95671 0.52232 0.0
C2107 C 0.0766 0.98096 0.52741 0.0
C2108 C 0.09811 0.94351 0.52131 0.0
C2109 C 0.12023 0.95433 0.52549 0.0
C2110 C 0.1202 0.97841 0.53131 0.0
C2111 C 0.09864 0.99161 0.53215 0.0
H2112 H 0.33417 0.99792 0.79542 0.0
H2113 H 0.40603 0.96695 0.80137 0.0
H2114 H 0.31664 0.96116 0.81027 0.0
H2115 H 0.3885 0.93036 0.81658 0.0
H2116 H 0.3452 0.86409 0.7958 0.0
H2117 H 0.36558 0.90177 0.79352 0.0
H2118 H 0.3126 0.93145 0.84367 0.0
H2119 H 0.29187 0.89357 0.84556 0.0
C2120 C 0.3462 0.98344 0.80041 0.0
C2121 C 0.37138 0.98503 0.79682 0.0
C2122 C 0.33619 0.96249 0.80909 0.0
C2123 C 0.35126 0.9429 0.8143 0.0
C2124 C 0.37652 0.94514 0.81235 0.0
C2125 C 0.38651 0.96604 0.80365 0.0
C2126 C 0.33804 0.87863 0.80644 0.0
C2127 C 0.31685 0.87613 0.82059 0.0
C2128 C 0.34986 0.90008 0.80541 0.0
C2129 C 0.34064 0.91947 0.81846 0.0
C2130 C 0.31998 0.91674 0.8334 0.0
C2131 C 0.30823 0.89513 0.83456 0.0
H2132 H 0.33099 0.09095 0.01236 0.0
H2133 H 0.36423 0.15454 0.03595 0.0
H2134 H 0.37101 0.07139 0.00904 0.0
H2135 H 0.40409 0.1351 0.03263 0.0
H2136 H 0.46716 0.08476 0.05127 0.0
H2137 H 0.42726 0.10387 0.05271 0.0
H2138 H 0.41055 0.07158 0.98605 0.0
H2139 H 0.45084 0.05226 0.98458 0.0
C2140 C 0.34682 0.10079 0.01681 0.0
C2141 C 0.34428 0.12434 0.02452 0.0
C2142 C 0.36982 0.0896 0.01475 0.0
C2143 C 0.39094 0.10155 0.02062 0.0
C2144 C 0.38833 0.12515 0.02822 0.0
C2145 C 0.3654 0.13638 0.03004 0.0
C2146 C 0.45508 0.08167 0.03683 0.0
C2147 C 0.46241 0.06687 0.01778 0.0
C2148 C 0.43213 0.09281 0.0376 0.0
C2149 C 0.41552 0.08944 0.01947 0.0
C2150 C 0.42272 0.07451 1.00045 0.0
C2151 C 0.44591 0.0635 0.99952 0.0
H2152 H 0.66719 0.58408 0.77863 0.0
H2153 H 0.69459 0.56453 0.8476 0.0
H2154 H 0.68991 0.62042 0.77894 0.0
H2155 H 0.71823 0.60047 0.84753 0.0
H2156 H 0.73273 0.67948 0.85178 0.0
H2157 H 0.71182 0.64204 0.85132 0.0
H2158 H 0.72984 0.63542 0.77606 0.0
H2159 H 0.75008 0.67333 0.77655 0.0
C2160 C 0.67831 0.58747 0.79374 0.0
C2161 C 0.67909 0.57164 0.81315 0.0
C2162 C 0.69147 0.6082 0.79385 0.0
C2163 C 0.70589 0.61333 0.81325 0.0
C2164 C 0.70697 0.59721 0.8325 0.0
C2165 C 0.69356 0.5766 0.83251 0.0
C2166 C 0.73233 0.66988 0.83523 0.0
C2167 C 0.74289 0.67921 0.81419 0.0
C2168 C 0.72046 0.64841 0.83495 0.0
C2169 C 0.71919 0.63574 0.81366 0.0
C2170 C 0.73013 0.64496 0.79267 0.0
C2171 C 0.74174 0.66659 0.79291 0.0
H2172 H 0.84086 0.41192 0.05539 0.0
H2173 H 0.79145 0.47158 0.04701 0.0
H2174 H 0.87471 0.4367 0.04299 0.0
H2175 H 0.82574 0.49649 0.03508 0.0
H2176 H 0.91193 0.52438 0.04096 0.0
H2177 H 0.87522 0.50531 0.05699 0.0
H2178 H 0.87474 0.46101 0.99497 0.0
H2179 H 0.91117 0.48031 0.97876 0.0
C2180 C 0.8373 0.43047 0.05161 0.0
C2181 C 0.81351 0.43981 0.05198 0.0
C2182 C 0.85664 0.44453 0.04438 0.0
C2183 C 0.85253 0.46822 0.03787 0.0
C2184 C 0.82911 0.47816 0.03999 0.0
C2185 C 0.80962 0.46397 0.04688 0.0
C2186 C 0.90366 0.51083 0.03065 0.0
C2187 C 0.91425 0.50365 0.00872 0.0
C2188 C 0.88277 0.50006 0.03975 0.0
C2189 C 0.87253 0.48176 0.02717 0.0
C2190 C 0.88254 0.47515 0.00487 0.0
C2191 C 0.90316 0.48622 0.99557 0.0
H2192 H 0.33309 0.09661 0.7623 0.0
H2193 H 0.39764 0.1199 0.72407 0.0
H2194 H 0.31499 0.1359 0.75811 0.0
H2195 H 0.37926 0.15925 0.71941 0.0
H2196 H 0.35392 0.22875 0.75874 0.0
H2197 H 0.37072 0.18983 0.74928 0.0
H2198 H 0.29957 0.16657 0.73116 0.0
H2199 H 0.28257 0.20542 0.74118 0.0
C2200 C 0.3432 0.11004 0.75261 0.0
C2201 C 0.36687 0.10542 0.74386 0.0
C2202 C 0.33275 0.13247 0.74998 0.0
C2203 C 0.3458 0.15062 0.73851 0.0
C2204 C 0.36896 0.14561 0.72856 0.0
C2205 C 0.37943 0.12314 0.73122 0.0
C2206 C 0.34193 0.21547 0.75235 0.0
C2207 C 0.31689 0.21992 0.75115 0.0
C2208 C 0.35159 0.19323 0.74671 0.0
C2209 C 0.33637 0.17516 0.7397 0.0
C2210 C 0.3116 0.18013 0.73688 0.0
C2211 C 0.30192 0.20234 0.74261 0.0
H2212 H 0.19516 0.93522 0.3367 0.0
H2213 H 0.22445 0.95998 0.26876 0.0
H2214 H 0.21877 0.89841 0.33233 0.0
H2215 H 0.24819 0.92341 0.26459 0.0
H2216 H 0.24696 0.84367 0.24892 0.0
H2217 H 0.23167 0.88337 0.25721 0.0
H2218 H 0.26076 0.87908 0.32778 0.0
H2219 H 0.27613 0.83899 0.31956 0.0
C2220 C 0.20709 0.93302 0.32115 0.0
C2221 C 0.20768 0.95017 0.30285 0.0
C2222 C 0.22065 0.91204 0.31871 0.0
C2223 C 0.23492 0.90802 0.29794 0.0
C2224 C 0.23694 0.92598 0.28056 0.0
C2225 C 0.22342 0.94688 0.28299 0.0
C2226 C 0.25019 0.85116 0.26619 0.0
C2227 C 0.2627 0.83825 0.2836 0.0
C2228 C 0.24164 0.87398 0.27084 0.0
C2229 C 0.24532 0.88431 0.29303 0.0
C2230 C 0.25776 0.87144 0.31053 0.0
C2231 C 0.26654 0.84859 0.3058 0.0
H2232 H 0.53716 0.36894 0.40799 0.0
H2233 H 0.51245 0.34043 0.47583 0.0
H2234 H 0.54144 0.40764 0.42586 0.0
H2235 H 0.51605 0.37938 0.49377 0.0
H2236 H 0.54418 0.44741 0.52563 0.0
H2237 H 0.54158 0.40857 0.50757 0.0
H2238 H 0.52229 0.44182 0.44092 0.0
H2239 H 0.52556 0.48066 0.45892 0.0
C2240 C 0.53247 0.37091 0.42676 0.0
C2241 C 0.52443 0.35129 0.44034 0.0
C2242 C 0.53479 0.39335 0.43709 0.0
C2243 C 0.52911 0.3972 0.46149 0.0
C2244 C 0.52103 0.37746 0.47507 0.0
C2245 C 0.51876 0.35497 0.4647 0.0
C2246 C 0.53965 0.44652 0.50702 0.0
C2247 C 0.53531 0.46751 0.49383 0.0
C2248 C 0.53786 0.42403 0.49663 0.0
C2249 C 0.53156 0.42151 0.47258 0.0
C2250 C 0.52753 0.44259 0.45932 0.0
C2251 C 0.52937 0.4651 0.46972 0.0
H2252 H 0.4344 0.81834 0.13491 0.0
H2253 H 0.46585 0.77309 0.18886 0.0
H2254 H 0.39776 0.8233 0.15997 0.0
H2255 H 0.42906 0.77747 0.21359 0.0
H2256 H 0.36839 0.80169 0.26148 0.0
H2257 H 0.40545 0.80591 0.23714 0.0
H2258 H 0.36439 0.79901 0.17331 0.0
H2259 H 0.32737 0.79551 0.19747 0.0
C2260 C 0.43339 0.80935 0.15206 0.0
C2261 C 0.45283 0.79521 0.15993 0.0
C2262 C 0.41246 0.81221 0.1664 0.0
C2263 C 0.4106 0.80089 0.18879 0.0
C2264 C 0.43014 0.78682 0.19664 0.0
C2265 C 0.45109 0.78407 0.18236 0.0
C2266 C 0.36723 0.80161 0.24223 0.0
C2267 C 0.34505 0.79799 0.23138 0.0
C2268 C 0.38845 0.80384 0.22832 0.0
C2269 C 0.38785 0.80239 0.20335 0.0
C2270 C 0.36543 0.80034 0.19249 0.0
C2271 C 0.34422 0.79823 0.20637 0.0
H2272 H 0.05554 0.70406 0.92216 0.0
H2273 H 0.99046 0.72227 0.96288 0.0
H2274 H 0.05569 0.66441 0.94018 0.0
H2275 H 0.9903 0.68234 0.9806 0.0
H2276 H 0.9847 0.59946 0.98564 0.0
H2277 H 0.98462 0.63959 0.96861 0.0
H2278 H 0.06132 0.64369 0.97986 0.0
H2279 H 0.06132 0.60376 0.99732 0.0
C2280 C 0.04123 0.69966 0.93499 0.0
C2281 C 0.02303 0.71661 0.94102 0.0
C2282 C 0.04136 0.67683 0.94543 0.0
C2283 C 0.02299 0.66989 0.96194 0.0
C2284 C 0.00468 0.68681 0.96788 0.0
C2285 C 0.00484 0.70985 0.95779 0.0
C2286 C 1.00159 0.60887 0.9845 0.0
C2287 C 0.02302 0.5981 0.99294 0.0
C2288 C 1.00151 0.63205 0.97483 0.0
C2289 C 0.02296 0.64516 0.97275 0.0
C2290 C 0.04444 0.63427 0.98094 0.0
C2291 C 0.04443 0.61129 0.99107 0.0
H2292 H 0.06128 0.29539 0.70558 0.0
H2293 H 0.10654 0.27538 0.64456 0.0
H2294 H 0.09547 0.28827 0.73167 0.0
H2295 H 0.14055 0.26786 0.67079 0.0
H2296 H 0.17976 0.22658 0.73146 0.0
H2297 H 0.14516 0.23575 0.70647 0.0
H2298 H 0.14038 0.30621 0.73516 0.0
H2299 H 0.17526 0.29708 0.76001 0.0
C2300 C 0.07858 0.28961 0.69778 0.0
C2301 C 0.08139 0.28585 0.67314 0.0
C2302 C 0.09804 0.28561 0.71266 0.0
C2303 C 0.12037 0.2774 0.70311 0.0
C2304 C 0.12332 0.27403 0.67845 0.0
C2305 C 0.104 0.27845 0.66351 0.0
C2306 C 0.17106 0.24387 0.73264 0.0
C2307 C 0.17998 0.26116 0.74758 0.0
C2308 C 0.15153 0.24918 0.71824 0.0
C2309 C 0.14043 0.27169 0.71891 0.0
C2310 C 0.14878 0.28874 0.73444 0.0
C2311 C 0.16861 0.28357 0.74853 0.0
H2312 H 0.54453 0.74363 0.05199 0.0
H2313 H 0.51344 0.70803 0.11397 0.0
H2314 H 0.56014 0.70549 0.03691 0.0
H2315 H 0.52939 0.67034 0.09911 0.0
H2316 H 0.58998 0.61721 0.08357 0.0
H2317 H 0.5776 0.65799 0.09188 0.0
H2318 H 0.53932 0.66166 0.026 0.0
H2319 H 0.55169 0.62058 0.01762 0.0
C2320 C 0.54075 0.72767 0.06217 0.0
C2321 C 0.5279 0.72873 0.08418 0.0
C2322 C 0.54971 0.70598 0.05358 0.0
C2323 C 0.54624 0.68529 0.06715 0.0
C2324 C 0.53254 0.68624 0.08859 0.0
C2325 C 0.52328 0.70775 0.09696 0.0
C2326 C 0.57964 0.62692 0.07046 0.0
C2327 C 0.57162 0.61575 0.05003 0.0
C2328 C 0.57239 0.65013 0.07533 0.0
C2329 C 0.55732 0.66262 0.05968 0.0
C2330 C 0.55094 0.65224 0.03828 0.0
C2331 C 0.55794 0.62885 0.03355 0.0
H2332 H 0.11133 0.79108 0.90066 0.0
H2333 H 0.07694 0.77474 0.83503 0.0
H2334 H 0.15087 0.79017 0.87989 0.0
H2335 H 0.11646 0.77419 0.81407 0.0
H2336 H 0.19404 0.75268 0.7884 0.0
H2337 H 0.15441 0.75266 0.80918 0.0
H2338 H 0.1756 0.81147 0.85163 0.0
H2339 H 0.2152 0.81121 0.83118 0.0
C2340 C 0.11217 0.78735 0.88175 0.0
C2341 C 0.09083 0.78301 0.86958 0.0
C2342 C 0.13492 0.78696 0.86974 0.0
C2343 C 0.13713 0.78217 0.84514 0.0
C2344 C 0.11572 0.77768 0.83302 0.0
C2345 C 0.09294 0.77814 0.84504 0.0
C2346 C 0.19025 0.76561 0.80217 0.0
C2347 C 0.20799 0.78194 0.80802 0.0
C2348 C 0.16739 0.7657 0.81405 0.0
C2349 C 0.16155 0.78205 0.83225 0.0
C2350 C 0.17935 0.79835 0.83804 0.0
C2351 C 0.20214 0.79831 0.82614 0.0
H2352 H 0.97913 0.34797 0.58114 0.0
H2353 H 0.04335 0.37069 0.61587 0.0
H2354 H 0.97039 0.38889 0.56884 0.0
H2355 H 0.03465 0.41125 0.60362 0.0
H2356 H 0.00544 0.48335 0.59751 0.0
H2357 H 1.00259 0.44285 0.61243 0.0
H2358 H 0.99141 0.41858 0.54099 0.0
H2359 H 0.99398 0.45904 0.52597 0.0
C2360 C 0.99139 0.36168 0.58602 0.0
C2361 C 0.01194 0.35625 0.59936 0.0
C2362 C 0.98633 0.385 0.5791 0.0
C2363 C 1.00162 0.40314 0.58569 0.0
C2364 C 0.02226 0.39761 0.59882 0.0
C2365 C 0.02741 0.37438 0.60555 0.0
C2366 C 1.0017 0.46948 0.58507 0.0
C2367 C 1.00051 0.47422 0.56051 0.0
C2368 C 1.00016 0.44634 0.59361 0.0
C2369 C 0.99732 0.42769 0.57773 0.0
C2370 C 0.99365 0.4327 0.55355 0.0
C2371 C 0.99525 0.45584 0.54498 0.0
H2372 H 0.42983 0.27953 0.39942 0.0
H2373 H 0.47083 0.28858 0.33339 0.0
H2374 H 0.39233 0.27836 0.3773 0.0
H2375 H 0.43329 0.28764 0.31122 0.0
H2376 H 0.35628 0.30903 0.28303 0.0
H2377 H 0.39464 0.31031 0.30396 0.0
H2378 H 0.37154 0.25256 0.34951 0.0
H2379 H 0.33353 0.25113 0.3286 0.0
C2380 C 0.43088 0.28135 0.38018 0.0
C2381 C 0.45352 0.28412 0.3683 0.0
C2382 C 0.40931 0.28055 0.36741 0.0
C2383 C 0.40955 0.28284 0.34231 0.0
C2384 C 0.43219 0.28598 0.33047 0.0
C2385 C 0.45382 0.28641 0.34323 0.0
C2386 C 0.35947 0.29643 0.29733 0.0
C2387 C 0.34163 0.27989 0.3039 0.0
C2388 C 0.38156 0.29714 0.30938 0.0
C2389 C 0.38635 0.28164 0.32868 0.0
C2390 C 0.36856 0.26502 0.33504 0.0
C2391 C 0.34672 0.26406 0.32281 0.0
H2392 H 0.41564 0.51587 0.33628 0.0
H2393 H 0.4272 0.58937 0.31876 0.0
H2394 H 0.43375 0.52122 0.37483 0.0
H2395 H 0.44669 0.59452 0.35661 0.0
H2396 H 0.47212 0.59938 0.43227 0.0
H2397 H 0.44539 0.59593 0.39858 0.0
H2398 H 0.47397 0.52516 0.38606 0.0
H2399 H 0.49954 0.52847 0.42031 0.0
C2400 C 0.42189 0.53322 0.34086 0.0
C2401 C 0.42036 0.55215 0.32462 0.0
C2402 C 0.43245 0.53626 0.36278 0.0
C2403 C 0.44224 0.55815 0.36855 0.0
C2404 C 0.43925 0.57747 0.35283 0.0
C2405 C 0.42817 0.57452 0.33111 0.0
C2406 C 0.47259 0.58321 0.42213 0.0
C2407 C 0.48775 0.56418 0.42865 0.0
C2408 C 0.45733 0.58117 0.40293 0.0
C2409 C 0.45735 0.56019 0.38974 0.0
C2410 C 0.4729 0.54132 0.39621 0.0
C2411 C 0.48776 0.54324 0.41562 0.0
H2412 H 0.28348 0.72425 0.043 0.0
H2413 H 0.26686 0.6584 0.07913 0.0
H2414 H 0.27077 0.74596 0.07892 0.0
H2415 H 0.25372 0.68001 0.11461 0.0
H2416 H 0.27331 0.72188 0.18014 0.0
H2417 H 0.27821 0.70135 0.14262 0.0
H2418 H 0.23596 0.75615 0.10788 0.0
H2419 H 0.2315 0.77723 0.14594 0.0
C2420 C 0.27679 0.71449 0.05848 0.0
C2421 C 0.27658 0.68967 0.05851 0.0
C2422 C 0.26934 0.7269 0.07892 0.0
C2423 C 0.26152 0.71461 0.09958 0.0
C2424 C 0.26007 0.68988 0.09906 0.0
C2425 C 0.26761 0.67753 0.07876 0.0
C2426 C 0.26514 0.72964 0.16451 0.0
C2427 C 0.2523 0.75129 0.16581 0.0
C2428 C 0.26766 0.71772 0.14307 0.0
C2429 C 0.25736 0.72711 0.12237 0.0
C2430 C 0.24414 0.74861 0.12361 0.0
C2431 C 0.24147 0.76055 0.14529 0.0
H2432 H 0.14806 0.52844 0.87835 0.0
H2433 H 0.1046 0.47409 0.84857 0.0
H2434 H 0.12584 0.52447 0.91626 0.0
H2435 H 0.08246 0.46993 0.88675 0.0
H2436 H 0.02847 0.50416 0.94462 0.0
H2437 H 0.05319 0.49682 0.90857 0.0
H2438 H 0.11794 0.49681 0.94994 0.0
H2439 H 0.09339 0.50453 0.98587 0.0
C2440 C 0.13396 0.51543 0.88004 0.0
C2441 C 0.12785 0.50173 0.86056 0.0
C2442 C 0.1214 0.513 0.90178 0.0
C2443 C 0.10249 0.49684 0.90437 0.0
C2444 C 0.09688 0.48259 0.8851 0.0
C2445 C 0.10955 0.48496 0.86335 0.0
C2446 C 0.04793 0.50209 0.94607 0.0
C2447 C 0.05907 0.50538 0.96789 0.0
C2448 C 0.06206 0.49776 0.92548 0.0
C2449 C 0.08745 0.4966 0.92652 0.0
C2450 C 0.0984 0.49806 0.94866 0.0
C2451 C 0.08433 0.50244 0.96918 0.0
H2452 H 0.30186 0.39515 0.61174 0.0
H2453 H 0.26524 0.33582 0.58297 0.0
H2454 H 0.30273 0.37545 0.65061 0.0
H2455 H 0.26639 0.31577 0.62194 0.0
H2456 H 0.25105 0.29654 0.70164 0.0
H2457 H 0.25016 0.31547 0.66223 0.0
H2458 H 0.32068 0.3443 0.67317 0.0
H2459 H 0.32134 0.3257 0.71263 0.0
C2460 C 0.29409 0.37778 0.61362 0.0
C2461 C 0.28352 0.36717 0.59397 0.0
C2462 C 0.29472 0.36632 0.63605 0.0
C2463 C 0.28471 0.34378 0.63981 0.0
C2464 C 0.27409 0.33316 0.6201 0.0
C2465 C 0.27357 0.34462 0.59757 0.0
C2466 C 0.26641 0.30689 0.69566 0.0
C2467 C 0.28626 0.30949 0.7106 0.0
C2468 C 0.26598 0.31771 0.67285 0.0
C2469 C 0.28532 0.33164 0.66412 0.0
C2470 C 0.3052 0.33411 0.6791 0.0
C2471 C 0.30567 0.32324 0.70185 0.0
H2472 H 0.4447 0.48596 0.19836 0.0
H2473 H 0.49267 0.53244 0.23392 0.0
H2474 H 0.47682 0.47578 0.16984 0.0
H2475 H 0.52544 0.52166 0.20559 0.0
H2476 H 0.54279 0.53721 0.12362 0.0
H2477 H 0.52932 0.53451 0.16506 0.0
H2478 H 0.515 0.46028 0.15648 0.0
H2479 H 0.52741 0.4634 0.11451 0.0
C2480 C 0.4624 0.49345 0.20048 0.0
C2481 C 0.46604 0.51048 0.21785 0.0
C2482 C 0.48102 0.48738 0.18428 0.0
C2483 C 0.50371 0.49818 0.18519 0.0
C2484 C 0.50805 0.51338 0.20416 0.0
C2485 C 0.4893 0.51955 0.22035 0.0
C2486 C 0.53763 0.52011 0.1308 0.0
C2487 C 0.53527 0.50073 0.11578 0.0
C2488 C 0.53002 0.51848 0.15469 0.0
C2489 C 0.52027 0.49733 0.16387 0.0
C2490 C 0.52166 0.47701 0.14969 0.0
C2491 C 0.52881 0.47877 0.12569 0.0
H2492 H 0.3166 0.64584 0.91452 0.0
H2493 H 0.3197 0.71498 0.94601 0.0
H2494 H 0.31718 0.66403 0.87477 0.0
H2495 H 0.31937 0.73313 0.90671 0.0
H2496 H 0.32734 0.76331 0.83535 0.0
H2497 H 0.33966 0.73987 0.86972 0.0
H2498 H 0.28837 0.68647 0.85221 0.0
H2499 H 0.27704 0.70949 0.81705 0.0
C2500 C 0.3177 0.66489 0.91291 0.0
C2501 C 0.3179 0.67905 0.93328 0.0
C2502 C 0.3179 0.67529 0.89019 0.0
C2503 C 0.31817 0.70003 0.88754 0.0
C2504 C 0.31956 0.71402 0.908 0.0
C2505 C 0.31954 0.70363 0.9306 0.0
C2506 C 0.31905 0.74634 0.83866 0.0
C2507 C 0.30097 0.73831 0.82392 0.0
C2508 C 0.32603 0.73296 0.85836 0.0
C2509 C 0.31464 0.71155 0.86401 0.0
C2510 C 0.29765 0.7028 0.8483 0.0
C2511 C 0.29101 0.71602 0.82826 0.0
H2512 H 0.0983 0.55983 0.75691 0.0
H2513 H 0.09907 0.48491 0.7428 0.0
H2514 H 0.0716 0.56683 0.72367 0.0
H2515 H 0.07173 0.49179 0.71003 0.0
H2516 H 0.06904 0.52042 0.63264 0.0
H2517 H 0.08292 0.5098 0.67181 0.0
H2518 H 0.03318 0.56138 0.70342 0.0
H2519 H 0.019 0.57204 0.66373 0.0
C2520 C 0.09214 0.5448 0.74714 0.0
C2521 C 0.10114 0.52191 0.75196 0.0
C2522 C 0.07672 0.54879 0.72822 0.0
C2523 C 0.06998 0.52989 0.714 0.0
C2524 C 0.07711 0.50673 0.72039 0.0
C2525 C 0.09269 0.50279 0.73914 0.0
C2526 C 0.06058 0.52916 0.64789 0.0
C2527 C 0.04292 0.54711 0.64504 0.0
C2528 C 0.0685 0.52299 0.67043 0.0
C2529 C 0.05897 0.53462 0.69072 0.0
C2530 C 0.04088 0.55221 0.68804 0.0
C2531 C 0.03289 0.55839 0.66536 0.0
H2532 H 0.28758 0.33749 0.47026 0.0
H2533 H 0.25993 0.40348 0.44189 0.0
H2534 H 0.28388 0.31928 0.43121 0.0
H2535 H 0.25574 0.38531 0.40302 0.0
H2536 H 0.27245 0.35202 0.3292 0.0
H2537 H 0.27554 0.3706 0.36809 0.0
H2538 H 0.2574 0.30456 0.40288 0.0
H2539 H 0.2548 0.28599 0.36407 0.0
C2540 C 0.28063 0.34815 0.45573 0.0
C2541 C 0.27411 0.37207 0.45949 0.0
C2542 C 0.27831 0.33762 0.43319 0.0
C2543 C 0.26941 0.3506 0.41346 0.0
C2544 C 0.26297 0.37458 0.41733 0.0
C2545 C 0.26525 0.38506 0.43986 0.0
C2546 C 0.26884 0.34148 0.34511 0.0
C2547 C 0.26321 0.31739 0.34315 0.0
C2548 C 0.2706 0.35221 0.36763 0.0
C2549 C 0.26688 0.33927 0.38914 0.0
C2550 C 0.26087 0.31525 0.38706 0.0
C2551 C 0.25908 0.30456 0.36458 0.0
H2552 H 0.33361 0.46653 0.55721 0.0
H2553 H 0.363 0.42641 0.49778 0.0
H2554 H 0.37146 0.4883 0.55871 0.0
H2555 H 0.40066 0.44865 0.49888 0.0
H2556 H 0.45345 0.51238 0.49317 0.0
H2557 H 0.41509 0.4915 0.49193 0.0
H2558 H 0.41651 0.47975 0.56795 0.0
H2559 H 0.45526 0.50011 0.56915 0.0
C2560 C 0.34808 0.46241 0.54435 0.0
C2561 C 0.34511 0.44463 0.52736 0.0
C2562 C 0.36989 0.47486 0.54529 0.0
C2563 C 0.38926 0.47036 0.5289 0.0
C2564 C 0.38616 0.45278 0.5117 0.0
C2565 C 0.36455 0.43993 0.51112 0.0
C2566 C 0.44552 0.50557 0.50971 0.0
C2567 C 0.45756 0.50818 0.53131 0.0
C2568 C 0.42355 0.49338 0.50894 0.0
C2569 C 0.41257 0.4838 0.52982 0.0
C2570 C 0.42427 0.48695 0.55152 0.0
C2571 C 0.44655 0.49867 0.55221 0.0
H2572 H 0.87169 0.15826 0.54504 0.0
H2573 H 0.83498 0.1075 0.50279 0.0
H2574 H 0.90842 0.13325 0.54321 0.0
H2575 H 0.87158 0.08302 0.50042 0.0
H2576 H 0.93172 0.03282 0.52381 0.0
H2577 H 0.8956 0.05816 0.5262 0.0
H2578 H 0.93969 0.11968 0.51425 0.0
H2579 H 0.97597 0.09437 0.51247 0.0
C2580 C 0.87151 0.14182 0.53536 0.0
C2581 C 0.85053 0.13473 0.52418 0.0
C2582 C 0.89252 0.12761 0.53417 0.0
C2583 C 0.89281 0.10617 0.52171 0.0
C2584 C 0.87179 0.09924 0.51048 0.0
C2585 C 0.85086 0.11333 0.51176 0.0
C2586 C 0.9337 0.05173 0.52154 0.0
C2587 C 0.95664 0.06161 0.51789 0.0
C2588 C 0.91301 0.06624 0.52286 0.0
C2589 C 0.91485 0.0909 0.52043 0.0
C2590 C 0.93778 0.10076 0.51653 0.0
C2591 C 0.9585 0.08625 0.51529 0.0
H2592 H 0.63816 0.10105 0.26045 0.0
H2593 H 0.70796 0.06561 0.25201 0.0
H2594 H 0.65596 0.13801 0.24646 0.0
H2595 H 0.7259 0.10255 0.23876 0.0
H2596 H 0.7544 0.16889 0.21005 0.0
H2597 H 0.72899 0.13408 0.20952 0.0
H2598 H 0.68292 0.16424 0.26551 0.0
H2599 H 0.70797 0.19889 0.2657 0.0
C2600 C 0.65726 0.10114 0.25539 0.0
C2601 C 0.67181 0.08063 0.25764 0.0
C2602 C 0.66743 0.12227 0.2474 0.0
C2603 C 0.69235 0.12325 0.24167 0.0
C2604 C 0.70657 0.10236 0.24271 0.0
C2605 C 0.69637 0.08123 0.25055 0.0
C2606 C 0.73852 0.1682 0.22184 0.0
C2607 C 0.73337 0.18636 0.23817 0.0
C2608 C 0.72401 0.14832 0.22157 0.0
C2609 C 0.70421 0.14625 0.23775 0.0
C2610 C 0.69791 0.16535 0.25265 0.0
C2611 C 0.71232 0.18525 0.2528 0.0
H2612 H 0.69469 0.91986 0.04655 0.0
H2613 H 0.72606 0.97307 1.00007 0.0
H2614 H 0.65572 0.94138 0.04651 0.0
H2615 H 0.68681 0.99433 0.99957 0.0
H2616 H 0.60374 0.00617 0.9835 0.0
H2617 H 0.64362 0.98639 0.98427 0.0
H2618 H 0.63784 0.98181 0.06102 0.0
H2619 H 0.59815 0.00213 0.06033 0.0
C2620 C 0.69327 0.93613 0.03626 0.0
C2621 C 0.71357 0.94471 0.0233 0.0
C2622 C 0.67093 0.94853 0.03634 0.0
C2623 C 0.66807 0.96961 0.02305 0.0
C2624 C 0.68832 0.9781 0.00992 0.0
C2625 C 0.71084 0.96596 0.01027 0.0
C2626 C 0.61101 1.00109 1.00057 0.0
C2627 C 0.59766 0.00583 0.02186 0.0
C2628 C 0.63394 0.98981 1.001 0.0
C2629 C 0.64399 0.98246 0.0227 0.0
C2630 C 0.63062 0.98712 0.04399 0.0
C2631 C 0.6079 0.99888 0.0436 0.0
H2632 H 0.35486 0.48316 0.2911 0.0
H2633 H 0.33589 0.50526 0.21997 0.0
H2634 H 0.32857 0.44955 0.28864 0.0
H2635 H 0.30855 0.47209 0.21782 0.0
H2636 H 0.30496 0.39081 0.20886 0.0
H2637 H 0.31796 0.43128 0.21267 0.0
H2638 H 0.29016 0.43207 0.28564 0.0
H2639 H 0.27788 0.39111 0.28184 0.0
C2640 C 0.34447 0.48119 0.2752 0.0
C2641 C 0.34777 0.49641 0.25551 0.0
C2642 C 0.32921 0.46202 0.27385 0.0
C2643 C 0.31676 0.45792 0.25286 0.0
C2644 C 0.31838 0.47447 0.234 0.0
C2645 C 0.33392 0.49349 0.23525 0.0
C2646 C 0.30129 0.39982 0.22555 0.0
C2647 C 0.29084 0.38784 0.24517 0.0
C2648 C 0.30853 0.42308 0.22772 0.0
C2649 C 0.30517 0.43491 0.24952 0.0
C2650 C 0.29338 0.4233 0.26875 0.0
C2651 C 0.28644 0.39989 0.26664 0.0
H2652 H 0.21694 0.64744 0.00308 0.0
H2653 H 0.25441 0.57977 0.9974 0.0
H2654 H 0.17971 0.6275 0.01531 0.0
H2655 H 0.21687 0.55984 0.00927 0.0
H2656 H 0.13361 0.53897 0.0087 0.0
H2657 H 0.17136 0.55659 0.99362 0.0
H2658 H 0.17131 0.60177 0.05509 0.0
H2659 H 0.13371 0.58393 0.07027 0.0
C2660 C 0.21707 0.6283 0.00391 0.0
C2661 C 0.23852 0.6151 0.99942 0.0
C2662 C 0.19587 0.61696 0.0111 0.0
C2663 C 0.19571 0.59226 0.01349 0.0
C2664 C 0.21671 0.57894 0.00758 0.0
C2665 C 0.23807 0.59031 1.00077 0.0
C2666 C 0.14188 0.55251 0.01902 0.0
C2667 C 0.13091 0.56022 0.04057 0.0
C2668 C 0.16337 0.56249 0.01046 0.0
C2669 C 0.1739 0.58061 0.02313 0.0
C2670 C 0.16326 0.58794 0.04495 0.0
C2671 C 0.142 0.57764 0.05373 0.0
H2672 H 0.71494 0.96928 0.28834 0.0
H2673 H 0.64988 0.94027 0.32079 0.0
H2674 H 0.73595 0.93146 0.29365 0.0
H2675 H 0.67114 0.90253 0.32681 0.0
H2676 H 0.70586 0.8343 0.29372 0.0
H2677 H 0.68511 0.87208 0.29971 0.0
H2678 H 0.75204 0.90255 0.32137 0.0
H2679 H 0.77308 0.86476 0.31467 0.0
C2680 C 0.70527 0.9549 0.29697 0.0
C2681 C 0.68073 0.95752 0.30383 0.0
C2682 C 0.71737 0.9333 0.30024 0.0
C2683 C 0.70516 0.914 0.31059 0.0
C2684 C 0.6809 0.91701 0.31848 0.0
C2685 C 0.66875 0.93858 0.31505 0.0
C2686 C 0.71609 0.84894 0.30015 0.0
C2687 C 0.74116 0.84671 0.30336 0.0
C2688 C 0.70414 0.87057 0.30376 0.0
C2689 C 0.71701 0.89034 0.3108 0.0
C2690 C 0.74177 0.88769 0.31554 0.0
C2691 C 0.75377 0.86606 0.31179 0.0
H2692 H 0.8536 0.14018 0.72467 0.0
H2693 H 0.82019 0.11039 0.78861 0.0
H2694 H 0.82948 0.17641 0.73026 0.0
H2695 H 0.79601 0.14667 0.79414 0.0
H2696 H 0.80128 0.22794 0.81287 0.0
H2697 H 0.81125 0.18658 0.8052 0.0
H2698 H 0.7873 0.19506 0.73295 0.0
H2699 H 0.77723 0.23661 0.74061 0.0
C2700 C 0.84077 0.14123 0.73965 0.0
C2701 C 0.83901 0.12269 0.75641 0.0
C2702 C 0.8268 0.16186 0.74273 0.0
C2703 C 0.81098 0.16431 0.7627 0.0
C2704 C 0.80821 0.14523 0.7787 0.0
C2705 C 0.82204 0.12453 0.77552 0.0
C2706 C 0.79759 0.22084 0.79553 0.0
C2707 C 0.7888 0.23552 0.77724 0.0
C2708 C 0.80314 0.19713 0.79118 0.0
C2709 C 0.8002 0.18773 0.76842 0.0
C2710 C 0.78988 0.20199 0.75059 0.0
C2711 C 0.78405 0.22569 0.75502 0.0
loop_
_geom_bond_atom_site_label_1
_geom_bond_atom_site_label_2
_geom_bond_distance
_geom_bond_site_symmetry_2
_ccdc_geom_bond_type
In0 O1 2.294 . S
In0 O2 2.326 . S
In0 O6 2.266 . S
In0 O7 2.326 . S
In0 O8 2.266 . S
In0 O9 2.326 . S
In0 O11 2.294 1_455 S
In0 O12 2.326 1_455 S
O1 In0 2.294 . S
O1 C10 1.240 . S
O2 In0 2.326 . S
O2 C10 1.252 . S
C3 O6 1.252 . S
C3 O7 1.260 . S
C4 O11 1.240 . S
C4 O12 1.252 . S
C5 O8 1.252 . S
C5 O9 1.260 . S
O6 In0 2.266 . S
O6 C3 1.252 . S
O7 In0 2.326 . S
O7 C3 1.260 . S
O8 In0 2.266 . S
O8 C5 1.252 . S
O9 In0 2.326 . S
O9 C5 1.260 . S
C10 O1 1.240 . S
C10 O2 1.252 . S
O11 In0 2.294 1_655 S
O11 C4 1.240 . S
O12 In0 2.326 1_655 S
O12 C4 1.252 . S
In13 O14 2.294 . S
In13 O15 2.326 . S
In13 O19 2.266 . S
In13 O20 2.326 . S
In13 O21 2.266 . S
In13 O22 2.326 . S
In13 O24 2.294 . S
In13 O25 2.326 . S
O14 In13 2.294 . S
O14 C23 1.240 . S
O15 In13 2.326 . S
O15 C23 1.252 . S
C16 O19 1.252 . S
C16 O20 1.260 . S
C17 O24 1.240 . S
C17 O25 1.252 . S
C18 O21 1.252 . S
C18 O22 1.260 . S
O19 In13 2.266 . S
O19 C16 1.252 . S
O20 In13 2.326 . S
O20 C16 1.260 . S
O21 In13 2.266 . S
O21 C18 1.252 . S
O22 In13 2.326 . S
O22 C18 1.260 . S
C23 O14 1.240 . S
C23 O15 1.252 . S
O24 In13 2.294 . S
O24 C17 1.240 . S
O25 In13 2.326 . S
O25 C17 1.252 . S
In26 O27 2.294 . S
In26 O28 2.326 . S
In26 O32 2.266 . S
In26 O33 2.326 . S
In26 O34 2.266 . S
In26 O35 2.326 . S
In26 O37 2.294 . S
In26 O38 2.326 . S
O27 In26 2.294 . S
O27 C36 1.240 . S
O28 In26 2.326 . S
O28 C36 1.252 . S
C29 O32 1.252 . S
C29 O33 1.260 . S
C30 O37 1.240 . S
C30 O38 1.252 . S
C31 O34 1.252 . S
C31 O35 1.260 . S
O32 In26 2.266 . S
O32 C29 1.252 . S
O33 In26 2.326 . S
O33 C29 1.260 . S
O34 In26 2.266 . S
O34 C31 1.252 . S
O35 In26 2.326 . S
O35 C31 1.260 . S
C36 O27 1.240 . S
C36 O28 1.252 . S
O37 In26 2.294 . S
O37 C30 1.240 . S
O38 In26 2.326 . S
O38 C30 1.252 . S
In39 O40 2.294 . S
In39 O41 2.326 . S
In39 O45 2.266 . S
In39 O46 2.326 . S
In39 O47 2.266 . S
In39 O48 2.326 . S
In39 O50 2.294 . S
In39 O51 2.326 . S
O40 In39 2.294 . S
O40 C49 1.240 . S
O41 In39 2.326 . S
O41 C49 1.252 . S
C42 O45 1.252 . S
C42 O46 1.260 . S
C43 O50 1.240 . S
C43 O51 1.252 . S
C44 O47 1.252 . S
C44 O48 1.260 . S
O45 In39 2.266 . S
O45 C42 1.252 . S
O46 In39 2.326 . S
O46 C42 1.260 . S
O47 In39 2.266 . S
O47 C44 1.252 . S
O48 In39 2.326 . S
O48 C44 1.260 . S
C49 O40 1.240 . S
C49 O41 1.252 . S
O50 In39 2.294 . S
O50 C43 1.240 . S
O51 In39 2.326 . S
O51 C43 1.252 . S
In52 O53 2.294 1_545 S
In52 O54 2.326 1_545 S
In52 O58 2.266 . S
In52 O59 2.326 . S
In52 O60 2.266 . S
In52 O61 2.326 . S
In52 O63 2.294 . S
In52 O64 2.326 . S
O53 In52 2.294 1_565 S
O53 C62 1.240 . S
O54 In52 2.326 1_565 S
O54 C62 1.252 . S
C55 O58 1.252 . S
C55 O59 1.260 . S
C56 O63 1.240 . S
C56 O64 1.252 . S
C57 O60 1.252 . S
C57 O61 1.260 . S
O58 In52 2.266 . S
O58 C55 1.252 . S
O59 In52 2.326 . S
O59 C55 1.260 . S
O60 In52 2.266 . S
O60 C57 1.252 . S
O61 In52 2.326 . S
O61 C57 1.260 . S
C62 O53 1.240 . S
C62 O54 1.252 . S
O63 In52 2.294 . S
O63 C56 1.240 . S
O64 In52 2.326 . S
O64 C56 1.252 . S
In65 O66 2.294 . S
In65 O67 2.326 . S
In65 O71 2.266 . S
In65 O72 2.326 . S
In65 O73 2.266 . S
In65 O74 2.326 . S
In65 O76 2.294 . S
In65 O77 2.326 . S
O66 In65 2.294 . S
O66 C75 1.240 . S
O67 In65 2.326 . S
O67 C75 1.252 . S
C68 O71 1.252 . S
C68 O72 1.260 . S
C69 O76 1.240 . S
C69 O77 1.252 . S
C70 O73 1.252 . S
C70 O74 1.260 . S
O71 In65 2.266 . S
O71 C68 1.252 . S
O72 In65 2.326 . S
O72 C68 1.260 . S
O73 In65 2.266 . S
O73 C70 1.252 . S
O74 In65 2.326 . S
O74 C70 1.260 . S
C75 O66 1.240 . S
C75 O67 1.252 . S
O76 In65 2.294 . S
O76 C69 1.240 . S
O77 In65 2.326 . S
O77 C69 1.252 . S
In78 O79 2.294 . S
In78 O80 2.326 . S
In78 O84 2.266 . S
In78 O85 2.326 . S
In78 O86 2.266 . S
In78 O87 2.326 . S
In78 O89 2.294 . S
In78 O90 2.326 . S
O79 In78 2.294 . S
O79 C88 1.240 . S
O80 In78 2.326 . S
O80 C88 1.252 . S
C81 O84 1.252 . S
C81 O85 1.260 . S
C82 O89 1.240 . S
C82 O90 1.252 . S
C83 O86 1.252 . S
C83 O87 1.260 . S
O84 In78 2.266 . S
O84 C81 1.252 . S
O85 In78 2.326 . S
O85 C81 1.260 . S
O86 In78 2.266 . S
O86 C83 1.252 . S
O87 In78 2.326 . S
O87 C83 1.260 . S
C88 O79 1.240 . S
C88 O80 1.252 . S
O89 In78 2.294 . S
O89 C82 1.240 . S
O90 In78 2.326 . S
O90 C82 1.252 . S
In91 O92 2.294 . S
In91 O93 2.326 . S
In91 O97 2.266 . S
In91 O98 2.326 . S
In91 O99 2.266 . S
In91 O100 2.326 1_554 S
In91 O102 2.294 . S
In91 O103 2.326 . S
O92 In91 2.294 . S
O92 C101 1.240 . S
O93 In91 2.326 . S
O93 C101 1.252 . S
C94 O97 1.252 . S
C94 O98 1.260 . S
C95 O102 1.240 . S
C95 O103 1.252 . S
C96 O99 1.252 1_556 S
C96 O100 1.260 . S
O97 In91 2.266 . S
O97 C94 1.252 . S
O98 In91 2.326 . S
O98 C94 1.260 . S
O99 In91 2.266 . S
O99 C96 1.252 1_554 S
O100 In91 2.326 1_556 S
O100 C96 1.260 . S
C101 O92 1.240 . S
C101 O93 1.252 . S
O102 In91 2.294 . S
O102 C95 1.240 . S
O103 In91 2.326 . S
O103 C95 1.252 . S
In104 O105 2.294 . S
In104 O106 2.326 . S
In104 O110 2.266 . S
In104 O111 2.326 . S
In104 O112 2.266 . S
In104 O113 2.326 . S
In104 O115 2.294 . S
In104 O116 2.326 . S
O105 In104 2.294 . S
O105 C114 1.240 . S
O106 In104 2.326 . S
O106 C114 1.252 . S
C107 O110 1.252 . S
C107 O111 1.260 . S
C108 O115 1.240 . S
C108 O116 1.252 . S
C109 O112 1.252 . S
C109 O113 1.260 . S
O110 In104 2.266 . S
O110 C107 1.252 . S
O111 In104 2.326 . S
O111 C107 1.260 . S
O112 In104 2.266 . S
O112 C109 1.252 . S
O113 In104 2.326 . S
O113 C109 1.260 . S
C114 O105 1.240 . S
C114 O106 1.252 . S
O115 In104 2.294 . S
O115 C108 1.240 . S
O116 In104 2.326 . S
O116 C108 1.252 . S
In117 O118 2.294 . S
In117 O119 2.326 . S
In117 O123 2.266 . S
In117 O124 2.326 . S
In117 O125 2.266 . S
In117 O126 2.326 . S
In117 O128 2.294 . S
In117 O129 2.326 . S
O118 In117 2.294 . S
O118 C127 1.240 . S
O119 In117 2.326 . S
O119 C127 1.252 . S
C120 O123 1.252 . S
C120 O124 1.260 . S
C121 O128 1.240 . S
C121 O129 1.252 . S
C122 O125 1.252 . S
C122 O126 1.260 . S
O123 In117 2.266 . S
O123 C120 1.252 . S
O124 In117 2.326 . S
O124 C120 1.260 . S
O125 In117 2.266 . S
O125 C122 1.252 . S
O126 In117 2.326 . S
O126 C122 1.260 . S
C127 O118 1.240 . S
C127 O119 1.252 . S
O128 In117 2.294 . S
O128 C121 1.240 . S
O129 In117 2.326 . S
O129 C121 1.252 . S
In130 O131 2.294 . S
In130 O132 2.326 . S
In130 O136 2.266 . S
In130 O137 2.326 . S
In130 O138 2.266 . S
In130 O139 2.326 . S
In130 O141 2.294 . S
In130 O142 2.326 . S
O131 In130 2.294 . S
O131 C140 1.240 . S
O132 In130 2.326 . S
O132 C140 1.252 . S
C133 O136 1.252 . S
C133 O137 1.260 . S
C134 O141 1.240 . S
C134 O142 1.252 . S
C135 O138 1.252 . S
C135 O139 1.260 . S
O136 In130 2.266 . S
O136 C133 1.252 . S
O137 In130 2.326 . S
O137 C133 1.260 . S
O138 In130 2.266 . S
O138 C135 1.252 . S
O139 In130 2.326 . S
O139 C135 1.260 . S
C140 O131 1.240 . S
C140 O132 1.252 . S
O141 In130 2.294 . S
O141 C134 1.240 . S
O142 In130 2.326 . S
O142 C134 1.252 . S
In143 O144 2.294 . S
In143 O145 2.326 . S
In143 O149 2.266 . S
In143 O150 2.326 . S
In143 O151 2.266 . S
In143 O152 2.326 . S
In143 O154 2.294 . S
In143 O155 2.326 . S
O144 In143 2.294 . S
O144 C153 1.240 . S
O145 In143 2.326 . S
O145 C153 1.252 . S
C146 O149 1.252 . S
C146 O150 1.260 . S
C147 O154 1.240 . S
C147 O155 1.252 . S
C148 O151 1.252 . S
C148 O152 1.260 . S
O149 In143 2.266 . S
O149 C146 1.252 . S
O150 In143 2.326 . S
O150 C146 1.260 . S
O151 In143 2.266 . S
O151 C148 1.252 . S
O152 In143 2.326 . S
O152 C148 1.260 . S
C153 O144 1.240 . S
C153 O145 1.252 . S
O154 In143 2.294 . S
O154 C147 1.240 . S
O155 In143 2.326 . S
O155 C147 1.252 . S
In156 O157 2.294 . S
In156 O158 2.326 . S
In156 O162 2.266 1_455 S
In156 O163 2.326 1_455 S
In156 O164 2.266 . S
In156 O165 2.326 . S
In156 O167 2.294 . S
In156 O168 2.326 . S
O157 In156 2.294 . S
O157 C166 1.240 . S
O158 In156 2.326 . S
O158 C166 1.252 . S
C159 O162 1.252 . S
C159 O163 1.260 . S
C160 O167 1.240 . S
C160 O168 1.252 . S
C161 O164 1.252 . S
C161 O165 1.260 . S
O162 In156 2.266 1_655 S
O162 C159 1.252 . S
O163 In156 2.326 1_655 S
O163 C159 1.260 . S
O164 In156 2.266 . S
O164 C161 1.252 . S
O165 In156 2.326 . S
O165 C161 1.260 . S
C166 O157 1.240 . S
C166 O158 1.252 . S
O167 In156 2.294 . S
O167 C160 1.240 . S
O168 In156 2.326 . S
O168 C160 1.252 . S
In169 O170 2.294 . S
In169 O171 2.327 . S
In169 O175 2.266 1_455 S
In169 O176 2.325 1_455 S
In169 O177 2.264 1_455 S
In169 O178 2.322 1_455 S
In169 O180 2.296 . S
In169 O181 2.329 . S
O170 In169 2.294 . S
O170 C179 1.240 . S
O171 In169 2.327 . S
O171 C179 1.252 . S
C172 O175 1.252 . S
C172 O176 1.260 . S
C173 O180 1.240 . S
C173 O181 1.252 . S
C174 O177 1.252 . S
C174 O178 1.260 . S
O175 In169 2.266 1_655 S
O175 C172 1.252 . S
O176 In169 2.325 1_655 S
O176 C172 1.260 . S
O177 In169 2.264 1_655 S
O177 C174 1.252 . S
O178 In169 2.322 1_655 S
O178 C174 1.260 . S
C179 O170 1.240 . S
C179 O171 1.252 . S
O180 In169 2.296 . S
O180 C173 1.240 . S
O181 In169 2.329 . S
O181 C173 1.252 . S
In182 O183 2.294 . S
In182 O184 2.326 . S
In182 O188 2.266 . S
In182 O189 2.326 . S
In182 O190 2.266 . S
In182 O191 2.326 . S
In182 O193 2.294 . S
In182 O194 2.326 . S
O183 In182 2.294 . S
O183 C192 1.240 . S
O184 In182 2.326 . S
O184 C192 1.252 . S
C185 O188 1.252 . S
C185 O189 1.260 . S
C186 O193 1.240 . S
C186 O194 1.252 . S
C187 O190 1.252 . S
C187 O191 1.260 . S
O188 In182 2.266 . S
O188 C185 1.252 . S
O189 In182 2.326 . S
O189 C185 1.260 . S
O190 In182 2.266 . S
O190 C187 1.252 . S
O191 In182 2.326 . S
O191 C187 1.260 . S
C192 O183 1.240 . S
C192 O184 1.252 . S
O193 In182 2.294 . S
O193 C186 1.240 . S
O194 In182 2.326 . S
O194 C186 1.252 . S
In195 O196 2.294 . S
In195 O197 2.326 . S
In195 O201 2.266 . S
In195 O202 2.326 . S
In195 O203 2.266 . S
In195 O204 2.326 . S
In195 O206 2.294 . S
In195 O207 2.326 . S
O196 In195 2.294 . S
O196 C205 1.240 . S
O197 In195 2.326 . S
O197 C205 1.252 . S
C198 O201 1.252 . S
C198 O202 1.260 . S
C199 O206 1.240 . S
C199 O207 1.252 . S
C200 O203 1.252 . S
C200 O204 1.260 . S
O201 In195 2.266 . S
O201 C198 1.252 . S
O202 In195 2.326 . S
O202 C198 1.260 . S
O203 In195 2.266 . S
O203 C200 1.252 . S
O204 In195 2.326 . S
O204 C200 1.260 . S
C205 O196 1.240 . S
C205 O197 1.252 . S
O206 In195 2.294 . S
O206 C199 1.240 . S
O207 In195 2.326 . S
O207 C199 1.252 . S
In208 O209 2.294 . S
In208 O210 2.326 . S
In208 O214 2.266 . S
In208 O215 2.326 . S
In208 O216 2.266 . S
In208 O217 2.326 . S
In208 O219 2.294 . S
In208 O220 2.326 . S
O209 In208 2.294 . S
O209 C218 1.240 . S
O210 In208 2.326 . S
O210 C218 1.252 . S
C211 O214 1.252 . S
C211 O215 1.260 . S
C212 O219 1.240 . S
C212 O220 1.252 . S
C213 O216 1.252 . S
C213 O217 1.260 . S
O214 In208 2.266 . S
O214 C211 1.252 . S
O215 In208 2.326 . S
O215 C211 1.260 . S
O216 In208 2.266 . S
O216 C213 1.252 . S
O217 In208 2.326 . S
O217 C213 1.260 . S
C218 O209 1.240 . S
C218 O210 1.252 . S
O219 In208 2.294 . S
O219 C212 1.240 . S
O220 In208 2.326 . S
O220 C212 1.252 . S
In221 O222 2.294 . S
In221 O223 2.326 . S
In221 O227 2.266 . S
In221 O228 2.326 . S
In221 O229 2.266 . S
In221 O230 2.326 . S
In221 O232 2.294 . S
In221 O233 2.326 . S
O222 In221 2.294 . S
O222 C231 1.240 . S
O223 In221 2.326 . S
O223 C231 1.252 . S
C224 O227 1.252 . S
C224 O228 1.260 . S
C225 O232 1.240 . S
C225 O233 1.252 . S
C226 O229 1.252 . S
C226 O230 1.260 . S
O227 In221 2.266 . S
O227 C224 1.252 . S
O228 In221 2.326 . S
O228 C224 1.260 . S
O229 In221 2.266 . S
O229 C226 1.252 . S
O230 In221 2.326 . S
O230 C226 1.260 . S
C231 O222 1.240 . S
C231 O223 1.252 . S
O232 In221 2.294 . S
O232 C225 1.240 . S
O233 In221 2.326 . S
O233 C225 1.252 . S
In234 O235 2.294 1_545 S
In234 O236 2.326 1_545 S
In234 O240 2.266 . S
In234 O241 2.326 . S
In234 O242 2.266 . S
In234 O243 2.326 . S
In234 O245 2.294 . S
In234 O246 2.326 . S
O235 In234 2.294 1_565 S
O235 C244 1.240 . S
O236 In234 2.326 1_565 S
O236 C244 1.252 . S
C237 O240 1.252 . S
C237 O241 1.260 . S
C238 O245 1.240 . S
C238 O246 1.252 . S
C239 O242 1.252 . S
C239 O243 1.260 . S
O240 In234 2.266 . S
O240 C237 1.252 . S
O241 In234 2.326 . S
O241 C237 1.260 . S
O242 In234 2.266 . S
O242 C239 1.252 . S
O243 In234 2.326 . S
O243 C239 1.260 . S
C244 O235 1.240 . S
C244 O236 1.252 . S
O245 In234 2.294 . S
O245 C238 1.240 . S
O246 In234 2.326 . S
O246 C238 1.252 . S
In247 O248 2.294 . S
In247 O249 2.326 . S
In247 O253 2.266 . S
In247 O254 2.326 . S
In247 O255 2.266 1_554 S
In247 O256 2.326 1_554 S
In247 O258 2.294 . S
In247 O259 2.326 . S
O248 In247 2.294 . S
O248 C257 1.240 . S
O249 In247 2.326 . S
O249 C257 1.252 . S
C250 O253 1.252 . S
C250 O254 1.260 . S
C251 O258 1.240 . S
C251 O259 1.252 . S
C252 O255 1.252 . S
C252 O256 1.260 . S
O253 In247 2.266 . S
O253 C250 1.252 . S
O254 In247 2.326 . S
O254 C250 1.260 . S
O255 In247 2.266 1_556 S
O255 C252 1.252 . S
O256 In247 2.326 1_556 S
O256 C252 1.260 . S
C257 O248 1.240 . S
C257 O249 1.252 . S
O258 In247 2.294 . S
O258 C251 1.240 . S
O259 In247 2.326 . S
O259 C251 1.252 . S
In260 O261 2.296 . S
In260 O262 2.329 . S
In260 O266 2.264 1_554 S
In260 O267 2.322 1_554 S
In260 O268 2.266 1_554 S
In260 O269 2.325 1_554 S
In260 O271 2.294 . S
In260 O272 2.327 . S
O261 In260 2.296 . S
O261 C270 1.240 . S
O262 In260 2.329 . S
O262 C270 1.252 . S
C263 O266 1.252 . S
C263 O267 1.260 . S
C264 O271 1.240 . S
C264 O272 1.252 . S
C265 O268 1.252 . S
C265 O269 1.260 . S
O266 In260 2.264 1_556 S
O266 C263 1.252 . S
O267 In260 2.322 1_556 S
O267 C263 1.260 . S
O268 In260 2.266 1_556 S
O268 C265 1.252 . S
O269 In260 2.325 1_556 S
O269 C265 1.260 . S
C270 O261 1.240 . S
C270 O262 1.252 . S
O271 In260 2.294 . S
O271 C264 1.240 . S
O272 In260 2.327 . S
O272 C264 1.252 . S
In273 O274 2.294 . S
In273 O275 2.326 . S
In273 O279 2.266 . S
In273 O280 2.326 . S
In273 O281 2.266 . S
In273 O282 2.326 . S
In273 O284 2.294 . S
In273 O285 2.326 . S
O274 In273 2.294 . S
O274 C283 1.240 . S
O275 In273 2.326 . S
O275 C283 1.252 . S
C276 O279 1.252 . S
C276 O280 1.260 . S
C277 O284 1.240 . S
C277 O285 1.252 . S
C278 O281 1.252 . S
C278 O282 1.260 . S
O279 In273 2.266 . S
O279 C276 1.252 . S
O280 In273 2.326 . S
O280 C276 1.260 . S
O281 In273 2.266 . S
O281 C278 1.252 . S
O282 In273 2.326 . S
O282 C278 1.260 . S
C283 O274 1.240 . S
C283 O275 1.252 . S
O284 In273 2.294 . S
O284 C277 1.240 . S
O285 In273 2.326 . S
O285 C277 1.252 . S
In286 O287 2.294 . S
In286 O288 2.326 . S
In286 O292 2.266 . S
In286 O293 2.326 . S
In286 O294 2.266 . S
In286 O295 2.326 . S
In286 O297 2.294 . S
In286 O298 2.326 . S
O287 In286 2.294 . S
O287 C296 1.240 . S
O288 In286 2.326 . S
O288 C296 1.252 . S
C289 O292 1.252 . S
C289 O293 1.260 . S
C290 O297 1.240 . S
C290 O298 1.252 . S
C291 O294 1.252 . S
C291 O295 1.260 . S
O292 In286 2.266 . S
O292 C289 1.252 . S
O293 In286 2.326 . S
O293 C289 1.260 . S
O294 In286 2.266 . S
O294 C291 1.252 . S
O295 In286 2.326 . S
O295 C291 1.260 . S
C296 O287 1.240 . S
C296 O288 1.252 . S
O297 In286 2.294 . S
O297 C290 1.240 . S
O298 In286 2.326 . S
O298 C290 1.252 . S
In299 O300 2.294 . S
In299 O301 2.326 . S
In299 O305 2.266 . S
In299 O306 2.326 . S
In299 O307 2.266 . S
In299 O308 2.326 . S
In299 O310 2.294 . S
In299 O311 2.326 . S
O300 In299 2.294 . S
O300 C309 1.240 . S
O301 In299 2.326 . S
O301 C309 1.252 . S
C302 O305 1.252 . S
C302 O306 1.260 . S
C303 O310 1.240 . S
C303 O311 1.252 . S
C304 O307 1.252 . S
C304 O308 1.260 . S
O305 In299 2.266 . S
O305 C302 1.252 . S
O306 In299 2.326 . S
O306 C302 1.260 . S
O307 In299 2.266 . S
O307 C304 1.252 . S
O308 In299 2.326 . S
O308 C304 1.260 . S
C309 O300 1.240 . S
C309 O301 1.252 . S
O310 In299 2.294 . S
O310 C303 1.240 . S
O311 In299 2.326 . S
O311 C303 1.252 . S
Co312 N317 2.057 . S
Co312 O329 2.021 1_545 S
Co312 O332 2.062 1_456 S
Co312 O336 2.117 1_556 S
Co312 O337 2.020 . S
C313 O333 1.259 . S
C313 O336 1.258 . S
Co314 N323 2.057 . S
Co314 O330 2.117 1_545 S
Co314 O331 2.020 1_455 S
Co314 O333 2.021 . S
Co314 O338 2.062 . S
C315 N317 1.316 1_655 S
C315 N318 1.347 . S
C315 H320 0.934 . S
C316 N317 1.375 1_655 S
C316 C319 1.350 . S
C316 H321 0.930 . S
N317 Co312 2.057 . S
N317 C315 1.316 1_455 S
N317 C316 1.375 1_455 S
N318 C315 1.347 . S
N318 C319 1.373 . S
C319 C316 1.350 . S
C319 N318 1.373 . S
C319 H340 0.931 . S
H320 C315 0.934 . S
H321 C316 0.930 . S
C322 O329 1.259 1_554 S
C322 O330 1.258 . S
N323 Co314 2.057 . S
N323 C324 1.316 . S
N323 C325 1.375 1_545 S
C324 N323 1.316 . S
C324 N326 1.347 1_545 S
C324 H335 0.931 . S
C325 N323 1.375 1_565 S
C325 C327 1.350 . S
C325 H334 0.930 . S
N326 C324 1.347 1_565 S
N326 C327 1.373 . S
C327 C325 1.350 . S
C327 N326 1.373 . S
C327 H341 0.931 . S
C328 O331 1.256 . S
C328 O332 1.255 . S
O329 Co312 2.021 1_565 S
O329 C322 1.259 1_556 S
O330 Co314 2.117 1_565 S
O330 C322 1.258 . S
O331 Co314 2.020 1_655 S
O331 C328 1.256 . S
O332 Co312 2.062 1_654 S
O332 C328 1.255 . S
O333 C313 1.259 . S
O333 Co314 2.021 . S
H334 C325 0.930 . S
H335 C324 0.931 . S
O336 Co312 2.117 1_554 S
O336 C313 1.258 . S
O337 Co312 2.020 . S
O337 C339 1.256 1_556 S
O338 Co314 2.062 . S
O338 C339 1.255 . S
C339 O337 1.256 1_554 S
C339 O338 1.255 . S
H340 C319 0.931 . S
H341 C327 0.931 . S
Co342 N347 2.057 . S
Co342 O359 2.021 . S
Co342 O362 2.062 . S
Co342 O366 2.117 . S
Co342 O367 2.020 . S
C343 O363 1.259 . S
C343 O366 1.258 . S
Co344 N353 2.057 . S
Co344 O360 2.117 . S
Co344 O361 2.020 . S
Co344 O363 2.021 . S
Co344 O368 2.062 . S
C345 N347 1.316 . S
C345 N348 1.347 . S
C345 H350 0.931 . S
C346 N347 1.375 . S
C346 C349 1.350 . S
C346 H351 0.930 . S
N347 Co342 2.057 . S
N347 C345 1.316 . S
N347 C346 1.375 . S
N348 C345 1.347 . S
N348 C349 1.373 . S
C349 C346 1.350 . S
C349 N348 1.373 . S
C349 H370 0.931 . S
H350 C345 0.931 . S
H351 C346 0.930 . S
C352 O359 1.259 . S
C352 O360 1.258 . S
N353 Co344 2.057 . S
N353 C354 1.316 . S
N353 C355 1.375 . S
C354 N353 1.316 . S
C354 N356 1.347 . S
C354 H365 0.931 . S
C355 N353 1.375 . S
C355 C357 1.350 . S
C355 H364 0.930 . S
N356 C354 1.347 . S
N356 C357 1.373 . S
C357 C355 1.350 . S
C357 N356 1.373 . S
C357 H371 0.931 . S
C358 O361 1.256 . S
C358 O362 1.255 . S
O359 Co342 2.021 . S
O359 C352 1.259 . S
O360 Co344 2.117 . S
O360 C352 1.258 . S
O361 Co344 2.020 . S
O361 C358 1.256 . S
O362 Co342 2.062 . S
O362 C358 1.255 . S
O363 C343 1.259 . S
O363 Co344 2.021 . S
H364 C355 0.930 . S
H365 C354 0.931 . S
O366 Co342 2.117 . S
O366 C343 1.258 . S
O367 Co342 2.020 . S
O367 C369 1.256 . S
O368 Co344 2.062 . S
O368 C369 1.255 . S
C369 O367 1.256 . S
C369 O368 1.255 . S
H370 C349 0.931 . S
H371 C357 0.931 . S
Co372 N377 2.057 . S
Co372 O389 2.021 1_545 S
Co372 O392 2.062 . S
Co372 O396 2.117 . S
Co372 O397 2.020 . S
C373 O393 1.259 . S
C373 O396 1.258 . S
Co374 N383 2.057 . S
Co374 O390 2.117 . S
Co374 O391 2.020 . S
Co374 O393 2.021 . S
Co374 O398 2.062 . S
C375 N377 1.316 . S
C375 N378 1.347 . S
C375 H380 0.931 1_545 S
C376 N377 1.375 . S
C376 C379 1.350 . S
C376 H381 0.930 . S
N377 Co372 2.057 . S
N377 C375 1.316 . S
N377 C376 1.375 . S
N378 C375 1.347 . S
N378 C379 1.373 . S
C379 C376 1.350 . S
C379 N378 1.373 . S
C379 H400 0.931 . S
H380 C375 0.931 1_565 S
H381 C376 0.930 . S
C382 O389 1.259 . S
C382 O390 1.258 1_565 S
N383 Co374 2.057 . S
N383 C384 1.316 . S
N383 C385 1.375 . S
C384 N383 1.316 . S
C384 N386 1.347 . S
C384 H395 0.931 . S
C385 N383 1.375 . S
C385 C387 1.350 . S
C385 H394 0.930 . S
N386 C384 1.347 . S
N386 C387 1.373 . S
C387 C385 1.350 . S
C387 N386 1.373 . S
C387 H401 0.931 . S
C388 O391 1.256 . S
C388 O392 1.255 . S
O389 Co372 2.021 1_565 S
O389 C382 1.259 . S
O390 Co374 2.117 . S
O390 C382 1.258 1_545 S
O391 Co374 2.020 . S
O391 C388 1.256 . S
O392 Co372 2.062 . S
O392 C388 1.255 . S
O393 C373 1.259 . S
O393 Co374 2.021 . S
H394 C385 0.930 . S
H395 C384 0.931 . S
O396 Co372 2.117 . S
O396 C373 1.258 . S
O397 Co372 2.020 . S
O397 C399 1.256 . S
O398 Co374 2.062 . S
O398 C399 1.255 . S
C399 O397 1.256 . S
C399 O398 1.255 . S
H400 C379 0.931 . S
H401 C387 0.931 . S
Co402 N407 2.057 . S
Co402 O419 2.021 . S
Co402 O422 2.062 . S
Co402 O426 2.117 . S
Co402 O427 2.020 . S
C403 O423 1.259 . S
C403 O426 1.258 . S
Co404 N413 2.057 . S
Co404 O420 2.117 . S
Co404 O421 2.020 . S
Co404 O423 2.021 . S
Co404 O428 2.062 . S
C405 N407 1.316 . S
C405 N408 1.347 . S
C405 H410 0.931 . S
C406 N407 1.375 . S
C406 C409 1.350 . S
C406 H411 0.930 . S
N407 Co402 2.057 . S
N407 C405 1.316 . S
N407 C406 1.375 . S
N408 C405 1.347 . S
N408 C409 1.373 . S
C409 C406 1.350 . S
C409 N408 1.373 . S
C409 H430 0.931 . S
H410 C405 0.931 . S
H411 C406 0.930 . S
C412 O419 1.259 . S
C412 O420 1.258 . S
N413 Co404 2.057 . S
N413 C414 1.316 . S
N413 C415 1.375 . S
C414 N413 1.316 . S
C414 N416 1.347 . S
C414 H425 0.931 . S
C415 N413 1.375 . S
C415 C417 1.350 . S
C415 H424 0.930 . S
N416 C414 1.347 . S
N416 C417 1.373 . S
C417 C415 1.350 . S
C417 N416 1.373 . S
C417 H431 0.931 . S
C418 O421 1.256 . S
C418 O422 1.255 . S
O419 Co402 2.021 . S
O419 C412 1.259 . S
O420 Co404 2.117 . S
O420 C412 1.258 . S
O421 Co404 2.020 . S
O421 C418 1.256 . S
O422 Co402 2.062 . S
O422 C418 1.255 . S
O423 C403 1.259 . S
O423 Co404 2.021 . S
H424 C415 0.930 . S
H425 C414 0.931 . S
O426 Co402 2.117 . S
O426 C403 1.258 . S
O427 Co402 2.020 . S
O427 C429 1.256 . S
O428 Co404 2.062 . S
O428 C429 1.255 . S
C429 O427 1.256 . S
C429 O428 1.255 . S
H430 C409 0.931 . S
H431 C417 0.931 . S
Co432 N437 2.045 1_445 S
Co432 O449 2.021 . S
Co432 O452 2.070 . S
Co432 O456 2.117 1_455 S
Co432 O457 2.020 1_455 S
C433 O453 1.259 1_655 S
C433 O456 1.258 . S
Co434 N443 2.057 . S
Co434 O450 2.117 . S
Co434 O451 2.020 . S
Co434 O453 2.021 . S
Co434 O458 2.062 1_455 S
C435 N437 1.308 1_455 S
C435 N438 1.347 1_455 S
C435 H440 0.931 . S
C436 N437 1.394 . S
C436 C439 1.350 . S
C436 H441 0.930 . S
N437 Co432 2.045 1_665 S
N437 C435 1.308 1_655 S
N437 C436 1.394 . S
N438 C435 1.347 1_655 S
N438 C439 1.373 . S
C439 C436 1.350 . S
C439 N438 1.373 . S
C439 H460 0.931 . S
H440 C435 0.931 . S
H441 C436 0.930 . S
C442 O449 1.259 . S
C442 O450 1.258 . S
N443 Co434 2.057 . S
N443 C444 1.316 . S
N443 C445 1.375 . S
C444 N443 1.316 . S
C444 N446 1.347 . S
C444 H455 0.931 . S
C445 N443 1.375 . S
C445 C447 1.350 . S
C445 H454 0.930 . S
N446 C444 1.347 . S
N446 C447 1.373 . S
C447 C445 1.350 . S
C447 N446 1.373 . S
C447 H461 0.931 . S
C448 O451 1.256 . S
C448 O452 1.277 . S
O449 Co432 2.021 . S
O449 C442 1.259 . S
O450 Co434 2.117 . S
O450 C442 1.258 . S
O451 Co434 2.020 . S
O451 C448 1.256 . S
O452 Co432 2.070 . S
O452 C448 1.277 . S
O453 C433 1.259 1_455 S
O453 Co434 2.021 . S
H454 C445 0.930 . S
H455 C444 0.931 . S
O456 Co432 2.117 1_655 S
O456 C433 1.258 . S
O457 Co432 2.020 1_655 S
O457 C459 1.256 . S
O458 Co434 2.062 1_655 S
O458 C459 1.255 . S
C459 O457 1.256 . S
C459 O458 1.255 . S
H460 C439 0.931 . S
H461 C447 0.931 . S
Co462 N467 2.057 . S
Co462 O479 2.021 . S
Co462 O482 2.062 . S
Co462 O486 2.117 . S
Co462 O487 2.020 . S
C463 O483 1.259 . S
C463 O486 1.258 . S
Co464 N473 2.057 . S
Co464 O480 2.117 . S
Co464 O481 2.020 . S
Co464 O483 2.021 . S
Co464 O488 2.062 . S
C465 N467 1.316 . S
C465 N468 1.347 . S
C465 H470 0.931 . S
C466 N467 1.375 . S
C466 C469 1.350 . S
C466 H471 0.930 . S
N467 Co462 2.057 . S
N467 C465 1.316 . S
N467 C466 1.375 . S
N468 C465 1.347 . S
N468 C469 1.373 . S
C469 C466 1.350 . S
C469 N468 1.373 . S
C469 H490 0.931 . S
H470 C465 0.931 . S
H471 C466 0.930 . S
C472 O479 1.259 . S
C472 O480 1.258 . S
N473 Co464 2.057 . S
N473 C474 1.316 . S
N473 C475 1.375 . S
C474 N473 1.316 . S
C474 N476 1.347 . S
C474 H485 0.931 . S
C475 N473 1.375 . S
C475 C477 1.350 . S
C475 H484 0.930 . S
N476 C474 1.347 . S
N476 C477 1.373 . S
C477 C475 1.350 . S
C477 N476 1.373 . S
C477 H491 0.931 . S
C478 O481 1.256 . S
C478 O482 1.255 . S
O479 Co462 2.021 . S
O479 C472 1.259 . S
O480 Co464 2.117 . S
O480 C472 1.258 . S
O481 Co464 2.020 . S
O481 C478 1.256 . S
O482 Co462 2.062 . S
O482 C478 1.255 . S
O483 C463 1.259 . S
O483 Co464 2.021 . S
H484 C475 0.930 . S
H485 C474 0.931 . S
O486 Co462 2.117 . S
O486 C463 1.258 . S
O487 Co462 2.020 . S
O487 C489 1.256 . S
O488 Co464 2.062 . S
O488 C489 1.255 . S
C489 O487 1.256 . S
C489 O488 1.255 . S
H490 C469 0.931 . S
H491 C477 0.931 . S
Co492 N497 2.057 1_554 S
Co492 O509 2.021 . S
Co492 O512 2.062 1_554 S
Co492 O516 2.117 . S
Co492 O517 2.020 1_545 S
C493 O513 1.259 . S
C493 O516 1.258 . S
Co494 N503 2.057 . S
Co494 O510 2.117 . S
Co494 O511 2.020 . S
Co494 O513 2.021 . S
Co494 O518 2.062 1_545 S
C495 N497 1.316 . S
C495 N498 1.347 . S
C495 H500 0.931 . S
C496 N497 1.375 1_565 S
C496 C499 1.350 . S
C496 H501 0.930 . S
N497 Co492 2.057 1_556 S
N497 C495 1.316 . S
N497 C496 1.375 1_545 S
N498 C495 1.347 . S
N498 C499 1.373 1_545 S
C499 C496 1.350 . S
C499 N498 1.373 1_565 S
C499 H520 0.931 . S
H500 C495 0.931 . S
H501 C496 0.930 . S
C502 O509 1.259 . S
C502 O510 1.258 . S
N503 Co494 2.057 . S
N503 C504 1.316 . S
N503 C505 1.375 . S
C504 N503 1.316 . S
C504 N506 1.347 . S
C504 H515 0.931 . S
C505 N503 1.375 . S
C505 C507 1.350 . S
C505 H514 0.930 . S
N506 C504 1.347 . S
N506 C507 1.373 . S
C507 C505 1.350 . S
C507 N506 1.373 . S
C507 H521 0.931 . S
C508 O511 1.256 . S
C508 O512 1.255 1_554 S
O509 Co492 2.021 . S
O509 C502 1.259 . S
O510 Co494 2.117 . S
O510 C502 1.258 . S
O511 Co494 2.020 . S
O511 C508 1.256 . S
O512 Co492 2.062 1_556 S
O512 C508 1.255 1_556 S
O513 C493 1.259 . S
O513 Co494 2.021 . S
H514 C505 0.930 . S
H515 C504 0.931 . S
O516 Co492 2.117 . S
O516 C493 1.258 . S
O517 Co492 2.020 1_565 S
O517 C519 1.256 . S
O518 Co494 2.062 1_565 S
O518 C519 1.255 . S
C519 O517 1.256 . S
C519 O518 1.255 . S
H520 C499 0.931 . S
H521 C507 0.931 . S
Co522 N527 2.057 . S
Co522 O539 2.021 . S
Co522 O542 2.062 . S
Co522 O546 2.117 . S
Co522 O547 2.020 . S
C523 O543 1.259 . S
C523 O546 1.258 . S
Co524 N533 2.057 . S
Co524 O540 2.117 . S
Co524 O541 2.020 . S
Co524 O543 2.021 . S
Co524 O548 2.062 . S
C525 N527 1.316 . S
C525 N528 1.347 . S
C525 H530 0.931 . S
C526 N527 1.375 . S
C526 C529 1.350 . S
C526 H531 0.930 . S
N527 Co522 2.057 . S
N527 C525 1.316 . S
N527 C526 1.375 . S
N528 C525 1.347 . S
N528 C529 1.373 . S
C529 C526 1.350 . S
C529 N528 1.373 . S
C529 H550 0.931 . S
H530 C525 0.931 . S
H531 C526 0.930 . S
C532 O539 1.259 . S
C532 O540 1.258 . S
N533 Co524 2.057 . S
N533 C534 1.316 . S
N533 C535 1.375 . S
C534 N533 1.316 . S
C534 N536 1.347 . S
C534 H545 0.931 . S
C535 N533 1.375 . S
C535 C537 1.350 . S
C535 H544 0.930 . S
N536 C534 1.347 . S
N536 C537 1.373 . S
C537 C535 1.350 . S
C537 N536 1.373 . S
C537 H551 0.931 . S
C538 O541 1.256 . S
C538 O542 1.255 . S
O539 Co522 2.021 . S
O539 C532 1.259 . S
O540 Co524 2.117 . S
O540 C532 1.258 . S
O541 Co524 2.020 . S
O541 C538 1.256 . S
O542 Co522 2.062 . S
O542 C538 1.255 . S
O543 C523 1.259 . S
O543 Co524 2.021 . S
H544 C535 0.930 . S
H545 C534 0.931 . S
O546 Co522 2.117 . S
O546 C523 1.258 . S
O547 Co522 2.020 . S
O547 C549 1.256 . S
O548 Co524 2.062 . S
O548 C549 1.255 . S
C549 O547 1.256 . S
C549 O548 1.255 . S
H550 C529 0.931 . S
H551 C537 0.931 . S
Co552 N557 2.057 . S
Co552 O569 2.021 1_554 S
Co552 O572 2.062 . S
Co552 O576 2.117 . S
Co552 O577 2.020 . S
C553 O573 1.259 . S
C553 O576 1.258 . S
Co554 N563 2.057 . S
Co554 O570 2.117 . S
Co554 O571 2.020 . S
Co554 O573 2.021 . S
Co554 O578 2.062 . S
C555 N557 1.316 1_556 S
C555 N558 1.347 1_556 S
C555 H560 0.931 . S
C556 N557 1.375 . S
C556 C559 1.350 . S
C556 H561 0.930 . S
N557 Co552 2.057 . S
N557 C555 1.316 1_554 S
N557 C556 1.375 . S
N558 C555 1.347 1_554 S
N558 C559 1.373 . S
C559 C556 1.350 . S
C559 N558 1.373 . S
C559 H580 0.931 . S
H560 C555 0.931 . S
H561 C556 0.930 . S
C562 O569 1.259 . S
C562 O570 1.258 1_556 S
N563 Co554 2.057 . S
N563 C564 1.316 . S
N563 C565 1.375 . S
C564 N563 1.316 . S
C564 N566 1.347 . S
C564 H575 0.931 . S
C565 N563 1.375 . S
C565 C567 1.350 . S
C565 H574 0.930 . S
N566 C564 1.347 . S
N566 C567 1.373 . S
C567 C565 1.350 . S
C567 N566 1.373 . S
C567 H581 0.931 . S
C568 O571 1.256 . S
C568 O572 1.255 . S
O569 Co552 2.021 1_556 S
O569 C562 1.259 . S
O570 Co554 2.117 . S
O570 C562 1.258 1_554 S
O571 Co554 2.020 . S
O571 C568 1.256 . S
O572 Co552 2.062 . S
O572 C568 1.255 . S
O573 C553 1.259 . S
O573 Co554 2.021 . S
H574 C565 0.930 . S
H575 C564 0.931 . S
O576 Co552 2.117 . S
O576 C553 1.258 . S
O577 Co552 2.020 . S
O577 C579 1.256 . S
O578 Co554 2.062 . S
O578 C579 1.255 . S
C579 O577 1.256 . S
C579 O578 1.255 . S
H580 C559 0.931 . S
H581 C567 0.931 . S
Co582 N587 2.057 . S
Co582 O599 2.021 . S
Co582 O602 2.062 . S
Co582 O606 2.117 . S
Co582 O607 2.020 . S
C583 O603 1.259 . S
C583 O606 1.258 . S
Co584 N593 2.057 . S
Co584 O600 2.117 . S
Co584 O601 2.020 . S
Co584 O603 2.021 . S
Co584 O608 2.062 . S
C585 N587 1.316 . S
C585 N588 1.347 . S
C585 H590 0.931 . S
C586 N587 1.375 . S
C586 C589 1.350 . S
C586 H591 0.930 . S
N587 Co582 2.057 . S
N587 C585 1.316 . S
N587 C586 1.375 . S
N588 C585 1.347 . S
N588 C589 1.373 . S
C589 C586 1.350 . S
C589 N588 1.373 . S
C589 H610 0.931 . S
H590 C585 0.931 . S
H591 C586 0.930 . S
C592 O599 1.259 . S
C592 O600 1.258 . S
N593 Co584 2.057 . S
N593 C594 1.316 . S
N593 C595 1.375 . S
C594 N593 1.316 . S
C594 N596 1.347 . S
C594 H605 0.931 . S
C595 N593 1.375 . S
C595 C597 1.350 . S
C595 H604 0.930 . S
N596 C594 1.347 . S
N596 C597 1.373 . S
C597 C595 1.350 . S
C597 N596 1.373 . S
C597 H611 0.931 . S
C598 O601 1.256 . S
C598 O602 1.255 . S
O599 Co582 2.021 . S
O599 C592 1.259 . S
O600 Co584 2.117 . S
O600 C592 1.258 . S
O601 Co584 2.020 . S
O601 C598 1.256 . S
O602 Co582 2.062 . S
O602 C598 1.255 . S
O603 C583 1.259 . S
O603 Co584 2.021 . S
H604 C595 0.930 . S
H605 C594 0.931 . S
O606 Co582 2.117 . S
O606 C583 1.258 . S
O607 Co582 2.020 . S
O607 C609 1.256 . S
O608 Co584 2.062 . S
O608 C609 1.255 . S
C609 O607 1.256 . S
C609 O608 1.255 . S
H610 C589 0.931 . S
H611 C597 0.931 . S
Co612 N617 2.057 . S
Co612 O629 2.021 1_455 S
Co612 O632 2.062 . S
Co612 O636 2.117 . S
Co612 O637 2.020 . S
C613 O633 1.259 . S
C613 O636 1.258 . S
Co614 N623 2.057 . S
Co614 O630 2.165 . S
Co614 O631 2.020 . S
Co614 O633 2.021 . S
Co614 O638 2.062 . S
C615 N617 1.316 1_655 S
C615 N618 1.346 . S
C615 H620 0.931 . S
C616 N617 1.375 . S
C616 C619 1.350 . S
C616 H621 0.930 . S
N617 Co612 2.057 . S
N617 C615 1.316 1_455 S
N617 C616 1.375 . S
N618 C615 1.346 . S
N618 C619 1.377 1_655 S
C619 C616 1.350 . S
C619 N618 1.377 1_455 S
C619 H640 0.931 . S
H620 C615 0.931 . S
H621 C616 0.930 . S
C622 O629 1.259 . S
C622 O630 1.220 1_655 S
N623 Co614 2.057 . S
N623 C624 1.316 . S
N623 C625 1.375 . S
C624 N623 1.316 . S
C624 N626 1.347 . S
C624 H635 0.931 . S
C625 N623 1.375 . S
C625 C627 1.350 . S
C625 H634 0.930 . S
N626 C624 1.347 . S
N626 C627 1.373 . S
C627 C625 1.350 . S
C627 N626 1.373 . S
C627 H641 0.931 . S
C628 O631 1.256 . S
C628 O632 1.255 . S
O629 Co612 2.021 1_655 S
O629 C622 1.259 . S
O630 Co614 2.165 . S
O630 C622 1.220 1_455 S
O631 Co614 2.020 . S
O631 C628 1.256 . S
O632 Co612 2.062 . S
O632 C628 1.255 . S
O633 C613 1.259 . S
O633 Co614 2.021 . S
H634 C625 0.930 . S
H635 C624 0.931 . S
O636 Co612 2.117 . S
O636 C613 1.258 . S
O637 Co612 2.020 . S
O637 C639 1.256 . S
O638 Co614 2.062 . S
O638 C639 1.255 . S
C639 O637 1.256 . S
C639 O638 1.255 . S
H640 C619 0.931 . S
H641 C627 0.931 . S
Co642 N647 2.057 . S
Co642 O659 2.021 . S
Co642 O662 2.062 . S
Co642 O666 2.117 . S
Co642 O667 2.020 . S
C643 O663 1.259 . S
C643 O666 1.258 . S
Co644 N653 2.057 . S
Co644 O660 2.117 . S
Co644 O661 2.020 . S
Co644 O663 2.021 . S
Co644 O668 2.062 . S
C645 N647 1.316 . S
C645 N648 1.347 . S
C645 H650 0.931 . S
C646 N647 1.375 . S
C646 C649 1.350 . S
C646 H651 0.930 . S
N647 Co642 2.057 . S
N647 C645 1.316 . S
N647 C646 1.375 . S
N648 C645 1.347 . S
N648 C649 1.373 . S
C649 C646 1.350 . S
C649 N648 1.373 . S
C649 H670 0.931 . S
H650 C645 0.931 . S
H651 C646 0.930 . S
C652 O659 1.259 . S
C652 O660 1.258 . S
N653 Co644 2.057 . S
N653 C654 1.316 . S
N653 C655 1.375 . S
C654 N653 1.316 . S
C654 N656 1.347 . S
C654 H665 0.931 . S
C655 N653 1.375 . S
C655 C657 1.350 . S
C655 H664 0.930 . S
N656 C654 1.347 . S
N656 C657 1.373 . S
C657 C655 1.350 . S
C657 N656 1.373 . S
C657 H671 0.931 . S
C658 O661 1.256 . S
C658 O662 1.255 . S
O659 Co642 2.021 . S
O659 C652 1.259 . S
O660 Co644 2.117 . S
O660 C652 1.258 . S
O661 Co644 2.020 . S
O661 C658 1.256 . S
O662 Co642 2.062 . S
O662 C658 1.255 . S
O663 C643 1.259 . S
O663 Co644 2.021 . S
H664 C655 0.930 . S
H665 C654 0.931 . S
O666 Co642 2.117 . S
O666 C643 1.258 . S
O667 Co642 2.020 . S
O667 C669 1.256 . S
O668 Co644 2.062 . S
O668 C669 1.255 . S
C669 O667 1.256 . S
C669 O668 1.255 . S
H670 C649 0.931 . S
H671 C657 0.931 . S
Co672 N677 2.057 . S
Co672 O689 2.021 . S
Co672 O692 2.062 . S
Co672 O696 2.117 . S
Co672 O697 2.020 . S
C673 O693 1.259 . S
C673 O696 1.258 . S
Co674 N683 2.057 . S
Co674 O690 2.117 . S
Co674 O691 2.020 . S
Co674 O693 2.021 . S
Co674 O698 2.062 . S
C675 N677 1.316 . S
C675 N678 1.347 . S
C675 H680 0.931 . S
C676 N677 1.375 . S
C676 C679 1.350 . S
C676 H681 0.930 . S
N677 Co672 2.057 . S
N677 C675 1.316 . S
N677 C676 1.375 . S
N678 C675 1.347 . S
N678 C679 1.373 . S
C679 C676 1.350 . S
C679 N678 1.373 . S
C679 H700 0.931 . S
H680 C675 0.931 . S
H681 C676 0.930 . S
C682 O689 1.259 . S
C682 O690 1.258 . S
N683 Co674 2.057 . S
N683 C684 1.316 . S
N683 C685 1.375 . S
C684 N683 1.316 . S
C684 N686 1.347 . S
C684 H695 0.931 . S
C685 N683 1.375 . S
C685 C687 1.350 . S
C685 H694 0.930 . S
N686 C684 1.347 . S
N686 C687 1.373 . S
C687 C685 1.350 . S
C687 N686 1.373 . S
C687 H701 0.931 . S
C688 O691 1.256 . S
C688 O692 1.255 . S
O689 Co672 2.021 . S
O689 C682 1.259 . S
O690 Co674 2.117 . S
O690 C682 1.258 . S
O691 Co674 2.020 . S
O691 C688 1.256 . S
O692 Co672 2.062 . S
O692 C688 1.255 . S
O693 C673 1.259 . S
O693 Co674 2.021 . S
H694 C685 0.930 . S
H695 C684 0.931 . S
O696 Co672 2.117 . S
O696 C673 1.258 . S
O697 Co672 2.020 . S
O697 C699 1.256 . S
O698 Co674 2.062 . S
O698 C699 1.255 . S
C699 O697 1.256 . S
C699 O698 1.255 . S
H700 C679 0.931 . S
H701 C687 0.931 . S
Co702 N707 2.057 . S
Co702 O719 2.021 . S
Co702 O722 2.062 . S
Co702 O726 2.117 . S
Co702 O727 2.020 . S
C703 O723 1.259 . S
C703 O726 1.258 . S
Co704 N713 2.057 . S
Co704 O720 2.117 . S
Co704 O721 2.020 . S
Co704 O723 2.021 . S
Co704 O728 2.062 . S
C705 N707 1.316 . S
C705 N708 1.347 . S
C705 H710 0.931 . S
C706 N707 1.375 . S
C706 C709 1.350 . S
C706 H711 0.930 . S
N707 Co702 2.057 . S
N707 C705 1.316 . S
N707 C706 1.375 . S
N708 C705 1.347 . S
N708 C709 1.373 . S
C709 C706 1.350 . S
C709 N708 1.373 . S
C709 H730 0.931 . S
H710 C705 0.931 . S
H711 C706 0.930 . S
C712 O719 1.259 . S
C712 O720 1.258 . S
N713 Co704 2.057 . S
N713 C714 1.316 . S
N713 C715 1.375 . S
C714 N713 1.316 . S
C714 N716 1.347 . S
C714 H725 0.931 . S
C715 N713 1.375 . S
C715 C717 1.350 . S
C715 H724 0.930 . S
N716 C714 1.347 . S
N716 C717 1.373 . S
C717 C715 1.350 . S
C717 N716 1.373 . S
C717 H731 0.931 . S
C718 O721 1.256 . S
C718 O722 1.255 . S
O719 Co702 2.021 . S
O719 C712 1.259 . S
O720 Co704 2.117 . S
O720 C712 1.258 . S
O721 Co704 2.020 . S
O721 C718 1.256 . S
O722 Co702 2.062 . S
O722 C718 1.255 . S
O723 C703 1.259 . S
O723 Co704 2.021 . S
H724 C715 0.930 . S
H725 C714 0.931 . S
O726 Co702 2.117 . S
O726 C703 1.258 . S
O727 Co702 2.020 . S
O727 C729 1.256 . S
O728 Co704 2.062 . S
O728 C729 1.255 . S
C729 O727 1.256 . S
C729 O728 1.255 . S
H730 C709 0.931 . S
H731 C717 0.931 . S
Co732 N737 2.057 . S
Co732 O749 2.021 . S
Co732 O752 2.062 . S
Co732 O756 2.117 . S
Co732 O757 2.020 . S
C733 O753 1.259 . S
C733 O756 1.258 . S
Co734 N743 2.057 . S
Co734 O750 2.117 . S
Co734 O751 2.020 . S
Co734 O753 2.021 . S
Co734 O758 2.062 . S
C735 N737 1.316 . S
C735 N738 1.347 . S
C735 H740 0.931 . S
C736 N737 1.375 . S
C736 C739 1.350 . S
C736 H741 0.930 . S
N737 Co732 2.057 . S
N737 C735 1.316 . S
N737 C736 1.375 . S
N738 C735 1.347 . S
N738 C739 1.373 . S
C739 C736 1.350 . S
C739 N738 1.373 . S
C739 H760 0.931 . S
H740 C735 0.931 . S
H741 C736 0.930 . S
C742 O749 1.259 . S
C742 O750 1.258 . S
N743 Co734 2.057 . S
N743 C744 1.316 . S
N743 C745 1.375 . S
C744 N743 1.316 . S
C744 N746 1.347 . S
C744 H755 0.931 . S
C745 N743 1.375 . S
C745 C747 1.350 . S
C745 H754 0.930 . S
N746 C744 1.347 . S
N746 C747 1.373 . S
C747 C745 1.350 . S
C747 N746 1.373 . S
C747 H761 0.931 . S
C748 O751 1.256 . S
C748 O752 1.255 . S
O749 Co732 2.021 . S
O749 C742 1.259 . S
O750 Co734 2.117 . S
O750 C742 1.258 . S
O751 Co734 2.020 . S
O751 C748 1.256 . S
O752 Co732 2.062 . S
O752 C748 1.255 . S
O753 C733 1.259 . S
O753 Co734 2.021 . S
H754 C745 0.930 . S
H755 C744 0.931 . S
O756 Co732 2.117 . S
O756 C733 1.258 . S
O757 Co732 2.020 . S
O757 C759 1.256 . S
O758 Co734 2.062 . S
O758 C759 1.255 . S
C759 O757 1.256 . S
C759 O758 1.255 . S
H760 C739 0.931 . S
H761 C747 0.931 . S
Co762 N767 2.057 1_455 S
Co762 O779 2.021 . S
Co762 O782 2.062 1_455 S
Co762 O786 2.117 . S
Co762 O787 2.020 1_554 S
C763 O783 1.259 . S
C763 O786 1.258 . S
Co764 N773 2.057 . S
Co764 O780 2.117 . S
Co764 O781 2.020 . S
Co764 O783 2.021 . S
Co764 O788 2.062 1_554 S
C765 N767 1.316 . S
C765 N768 1.347 . S
C765 H770 0.931 . S
C766 N767 1.375 1_556 S
C766 C769 1.350 . S
C766 H771 0.930 . S
N767 Co762 2.057 1_655 S
N767 C765 1.316 . S
N767 C766 1.375 1_554 S
N768 C765 1.347 . S
N768 C769 1.373 1_554 S
C769 C766 1.350 . S
C769 N768 1.373 1_556 S
C769 H790 0.931 . S
H770 C765 0.931 . S
H771 C766 0.930 . S
C772 O779 1.259 . S
C772 O780 1.258 . S
N773 Co764 2.057 . S
N773 C774 1.316 . S
N773 C775 1.375 . S
C774 N773 1.316 . S
C774 N776 1.347 . S
C774 H785 0.931 . S
C775 N773 1.375 . S
C775 C777 1.350 . S
C775 H784 0.930 . S
N776 C774 1.347 . S
N776 C777 1.373 . S
C777 C775 1.350 . S
C777 N776 1.373 . S
C777 H791 0.931 . S
C778 O781 1.256 . S
C778 O782 1.255 1_455 S
O779 Co762 2.021 . S
O779 C772 1.259 . S
O780 Co764 2.117 . S
O780 C772 1.258 . S
O781 Co764 2.020 . S
O781 C778 1.256 . S
O782 Co762 2.062 1_655 S
O782 C778 1.255 1_655 S
O783 C763 1.259 . S
O783 Co764 2.021 . S
H784 C775 0.930 . S
H785 C774 0.931 . S
O786 Co762 2.117 . S
O786 C763 1.258 . S
O787 Co762 2.020 1_556 S
O787 C789 1.256 . S
O788 Co764 2.062 1_556 S
O788 C789 1.255 . S
C789 O787 1.256 . S
C789 O788 1.255 . S
H790 C769 0.931 . S
H791 C777 0.931 . S
H792 C800 0.950 . S
H793 C805 0.950 . S
H794 C802 0.943 1_655 S
H795 C804 0.950 . S
H796 C806 0.950 . S
H797 C808 0.950 . S
H798 C810 0.935 1_655 S
H799 C811 0.972 . S
C800 H792 0.950 . S
C800 C801 1.386 . S
C800 C802 1.391 . S
C801 C800 1.386 . S
C801 C805 1.393 . S
C802 H794 0.943 1_455 S
C802 C800 1.391 . S
C802 C803 1.400 . S
C803 C802 1.400 . S
C803 C804 1.398 . S
C803 C809 1.491 . S
C804 H795 0.950 . S
C804 C803 1.398 . S
C804 C805 1.391 . S
C805 H793 0.950 . S
C805 C801 1.393 . S
C805 C804 1.391 . S
C806 H796 0.950 . S
C806 C807 1.386 . S
C806 C808 1.391 . S
C807 C806 1.386 . S
C807 C811 1.378 1_455 S
C808 H797 0.950 . S
C808 C806 1.391 . S
C808 C809 1.400 . S
C809 C803 1.491 . S
C809 C808 1.400 . S
C809 C810 1.419 . S
C810 H798 0.935 1_455 S
C810 C809 1.419 . S
C810 C811 1.384 1_455 S
C811 H799 0.972 . S
C811 C807 1.378 1_655 S
C811 C810 1.384 1_655 S
H812 C820 0.950 . S
H813 C825 0.950 . S
H814 C822 0.950 . S
H815 C824 0.950 . S
H816 C826 0.950 . S
H817 C828 0.950 . S
H818 C830 0.950 . S
H819 C831 0.950 . S
C820 H812 0.950 . S
C820 C821 1.386 . S
C820 C822 1.391 . S
C821 C820 1.386 . S
C821 C825 1.393 . S
C822 H814 0.950 . S
C822 C820 1.391 . S
C822 C823 1.400 . S
C823 C822 1.400 . S
C823 C824 1.398 . S
C823 C829 1.491 . S
C824 H815 0.950 . S
C824 C823 1.398 . S
C824 C825 1.391 . S
C825 H813 0.950 . S
C825 C821 1.393 . S
C825 C824 1.391 . S
C826 H816 0.950 . S
C826 C827 1.386 . S
C826 C828 1.391 . S
C827 C826 1.386 . S
C827 C831 1.393 . S
C828 H817 0.950 . S
C828 C826 1.391 . S
C828 C829 1.400 . S
C829 C823 1.491 . S
C829 C828 1.400 . S
C829 C830 1.398 . S
C830 H818 0.950 . S
C830 C829 1.398 . S
C830 C831 1.391 . S
C831 H819 0.950 . S
C831 C827 1.393 . S
C831 C830 1.391 . S
H832 C840 0.950 . S
H833 C845 0.950 . S
H834 C842 0.950 . S
H835 C844 0.950 . S
H836 C846 0.950 . S
H837 C848 0.950 . S
H838 C850 0.950 . S
H839 C851 0.950 . S
C840 H832 0.950 . S
C840 C841 1.386 . S
C840 C842 1.391 . S
C841 C840 1.386 . S
C841 C845 1.393 . S
C842 H834 0.950 . S
C842 C840 1.391 . S
C842 C843 1.400 . S
C843 C842 1.400 . S
C843 C844 1.398 . S
C843 C849 1.491 . S
C844 H835 0.950 . S
C844 C843 1.398 . S
C844 C845 1.391 . S
C845 H833 0.950 . S
C845 C841 1.393 . S
C845 C844 1.391 . S
C846 H836 0.950 . S
C846 C847 1.386 . S
C846 C848 1.391 . S
C847 C846 1.386 . S
C847 C851 1.393 . S
C848 H837 0.950 . S
C848 C846 1.391 . S
C848 C849 1.400 . S
C849 C843 1.491 . S
C849 C848 1.400 . S
C849 C850 1.398 . S
C850 H838 0.950 . S
C850 C849 1.398 . S
C850 C851 1.391 . S
C851 H839 0.950 . S
C851 C847 1.393 . S
C851 C850 1.391 . S
H852 C860 0.950 . S
H853 C865 0.950 . S
H854 C862 0.950 . S
H855 C864 0.950 . S
H856 C866 0.950 . S
H857 C868 0.950 . S
H858 C870 0.950 . S
H859 C871 0.950 . S
C860 H852 0.950 . S
C860 C861 1.386 . S
C860 C862 1.391 . S
C861 C860 1.386 . S
C861 C865 1.393 . S
C862 H854 0.950 . S
C862 C860 1.391 . S
C862 C863 1.400 . S
C863 C862 1.400 . S
C863 C864 1.398 . S
C863 C869 1.491 . S
C864 H855 0.950 . S
C864 C863 1.398 . S
C864 C865 1.391 . S
C865 H853 0.950 . S
C865 C861 1.393 . S
C865 C864 1.391 . S
C866 H856 0.950 . S
C866 C867 1.386 . S
C866 C868 1.391 . S
C867 C866 1.386 . S
C867 C871 1.393 . S
C868 H857 0.950 . S
C868 C866 1.391 . S
C868 C869 1.400 . S
C869 C863 1.491 . S
C869 C868 1.400 . S
C869 C870 1.398 . S
C870 H858 0.950 . S
C870 C869 1.398 . S
C870 C871 1.391 . S
C871 H859 0.950 . S
C871 C867 1.393 . S
C871 C870 1.391 . S
H872 C880 0.950 . S
H873 C885 0.950 . S
H874 C882 0.950 . S
H875 C884 0.950 . S
H876 C886 0.940 1_655 S
H877 C888 0.950 . S
H878 C890 0.950 . S
H879 C891 0.950 . S
C880 H872 0.950 . S
C880 C881 1.386 . S
C880 C882 1.391 . S
C881 C880 1.386 . S
C881 C885 1.393 . S
C882 H874 0.950 . S
C882 C880 1.391 . S
C882 C883 1.400 . S
C883 C882 1.400 . S
C883 C884 1.398 . S
C883 C889 1.491 . S
C884 H875 0.950 . S
C884 C883 1.398 . S
C884 C885 1.391 . S
C885 H873 0.950 . S
C885 C881 1.393 . S
C885 C884 1.391 . S
C886 H876 0.940 1_455 S
C886 C887 1.390 . S
C886 C888 1.398 . S
C887 C886 1.390 . S
C887 C891 1.393 . S
C888 H877 0.950 . S
C888 C886 1.398 . S
C888 C889 1.400 . S
C889 C883 1.491 . S
C889 C888 1.400 . S
C889 C890 1.398 . S
C890 H878 0.950 . S
C890 C889 1.398 . S
C890 C891 1.391 . S
C891 H879 0.950 . S
C891 C887 1.393 . S
C891 C890 1.391 . S
H892 C900 0.950 . S
H893 C905 0.950 . S
H894 C902 0.950 . S
H895 C904 0.950 . S
H896 C906 0.950 . S
H897 C908 0.950 . S
H898 C910 0.950 . S
H899 C911 0.950 . S
C900 H892 0.950 . S
C900 C901 1.386 . S
C900 C902 1.391 . S
C901 C900 1.386 . S
C901 C905 1.393 . S
C902 H894 0.950 . S
C902 C900 1.391 . S
C902 C903 1.400 . S
C903 C902 1.400 . S
C903 C904 1.398 . S
C903 C909 1.491 . S
C904 H895 0.950 . S
C904 C903 1.398 . S
C904 C905 1.391 . S
C905 H893 0.950 . S
C905 C901 1.393 . S
C905 C904 1.391 . S
C906 H896 0.950 . S
C906 C907 1.386 . S
C906 C908 1.391 . S
C907 C906 1.386 . S
C907 C911 1.393 . S
C908 H897 0.950 . S
C908 C906 1.391 . S
C908 C909 1.400 . S
C909 C903 1.491 . S
C909 C908 1.400 . S
C909 C910 1.398 . S
C910 H898 0.950 . S
C910 C909 1.398 . S
C910 C911 1.391 . S
C911 H899 0.950 . S
C911 C907 1.393 . S
C911 C910 1.391 . S
H912 C920 0.950 . S
H913 C925 0.950 . S
H914 C922 0.950 . S
H915 C924 0.950 . S
H916 C926 0.950 . S
H917 C928 0.950 . S
H918 C930 0.950 . S
H919 C931 0.950 1_554 S
C920 H912 0.950 . S
C920 C921 1.386 . S
C920 C922 1.391 . S
C921 C920 1.386 . S
C921 C925 1.393 . S
C922 H914 0.950 . S
C922 C920 1.391 . S
C922 C923 1.400 . S
C923 C922 1.400 . S
C923 C924 1.398 . S
C923 C929 1.491 . S
C924 H915 0.950 . S
C924 C923 1.398 . S
C924 C925 1.391 . S
C925 H913 0.950 . S
C925 C921 1.393 . S
C925 C924 1.391 . S
C926 H916 0.950 . S
C926 C927 1.386 . S
C926 C928 1.391 . S
C927 C926 1.386 . S
C927 C931 1.393 . S
C928 H917 0.950 . S
C928 C926 1.391 . S
C928 C929 1.400 . S
C929 C923 1.491 . S
C929 C928 1.400 . S
C929 C930 1.398 . S
C930 H918 0.950 . S
C930 C929 1.398 . S
C930 C931 1.391 . S
C931 H919 0.950 1_556 S
C931 C927 1.393 . S
C931 C930 1.391 . S
H932 C940 0.950 . S
H933 C945 0.950 . S
H934 C942 0.950 . S
H935 C944 0.950 . S
H936 C946 0.950 . S
H937 C948 0.950 . S
H938 C950 0.950 . S
H939 C951 0.950 . S
C940 H932 0.950 . S
C940 C941 1.386 . S
C940 C942 1.391 . S
C941 C940 1.386 . S
C941 C945 1.393 . S
C942 H934 0.950 . S
C942 C940 1.391 . S
C942 C943 1.400 . S
C943 C942 1.400 . S
C943 C944 1.398 . S
C943 C949 1.491 . S
C944 H935 0.950 . S
C944 C943 1.398 . S
C944 C945 1.391 . S
C945 H933 0.950 . S
C945 C941 1.393 . S
C945 C944 1.391 . S
C946 H936 0.950 . S
C946 C947 1.386 . S
C946 C948 1.391 . S
C947 C946 1.386 . S
C947 C951 1.393 . S
C948 H937 0.950 . S
C948 C946 1.391 . S
C948 C949 1.400 . S
C949 C943 1.491 . S
C949 C948 1.400 . S
C949 C950 1.398 . S
C950 H938 0.950 . S
C950 C949 1.398 . S
C950 C951 1.391 . S
C951 H939 0.950 . S
C951 C947 1.393 . S
C951 C950 1.391 . S
H952 C960 0.950 . S
H953 C965 0.950 . S
H954 C962 0.950 . S
H955 C964 0.950 . S
H956 C966 0.950 . S
H957 C968 0.950 . S
H958 C970 0.950 . S
H959 C971 0.950 . S
C960 H952 0.950 . S
C960 C961 1.386 . S
C960 C962 1.391 . S
C961 C960 1.386 . S
C961 C965 1.393 1_545 S
C962 H954 0.950 . S
C962 C960 1.391 . S
C962 C963 1.420 . S
C963 C962 1.420 . S
C963 C964 1.381 1_545 S
C963 C969 1.488 1_545 S
C964 H955 0.950 . S
C964 C963 1.381 1_565 S
C964 C965 1.391 . S
C965 H953 0.950 . S
C965 C961 1.393 1_565 S
C965 C964 1.391 . S
C966 H956 0.950 . S
C966 C967 1.386 . S
C966 C968 1.391 . S
C967 C966 1.386 . S
C967 C971 1.393 1_565 S
C968 H957 0.950 . S
C968 C966 1.391 . S
C968 C969 1.417 . S
C969 C963 1.488 1_565 S
C969 C968 1.417 . S
C969 C970 1.384 1_565 S
C970 H958 0.950 . S
C970 C969 1.384 1_545 S
C970 C971 1.391 . S
C971 H959 0.950 . S
C971 C967 1.393 1_545 S
C971 C970 1.391 . S
H972 C980 0.950 . S
H973 C985 0.950 . S
H974 C982 0.950 . S
H975 C984 0.950 . S
H976 C986 0.950 . S
H977 C988 0.950 . S
H978 C990 0.950 . S
H979 C991 0.950 . S
C980 H972 0.950 . S
C980 C981 1.386 . S
C980 C982 1.391 . S
C981 C980 1.386 . S
C981 C985 1.393 . S
C982 H974 0.950 . S
C982 C980 1.391 . S
C982 C983 1.400 . S
C983 C982 1.400 . S
C983 C984 1.398 . S
C983 C989 1.491 . S
C984 H975 0.950 . S
C984 C983 1.398 . S
C984 C985 1.391 . S
C985 H973 0.950 . S
C985 C981 1.393 . S
C985 C984 1.391 . S
C986 H976 0.950 . S
C986 C987 1.386 . S
C986 C988 1.391 . S
C987 C986 1.386 . S
C987 C991 1.393 . S
C988 H977 0.950 . S
C988 C986 1.391 . S
C988 C989 1.400 . S
C989 C983 1.491 . S
C989 C988 1.400 . S
C989 C990 1.398 . S
C990 H978 0.950 . S
C990 C989 1.398 . S
C990 C991 1.391 . S
C991 H979 0.950 . S
C991 C987 1.393 . S
C991 C990 1.391 . S
H992 C1000 0.950 . S
H993 C1005 0.950 . S
H994 C1002 0.950 . S
H995 C1004 0.950 . S
H996 C1006 0.950 . S
H997 C1008 0.950 . S
H998 C1010 0.950 . S
H999 C1011 0.950 . S
C1000 H992 0.950 . S
C1000 C1001 1.386 . S
C1000 C1002 1.391 . S
C1001 C1000 1.386 . S
C1001 C1005 1.393 . S
C1002 H994 0.950 . S
C1002 C1000 1.391 . S
C1002 C1003 1.400 . S
C1003 C1002 1.400 . S
C1003 C1004 1.398 . S
C1003 C1009 1.491 . S
C1004 H995 0.950 . S
C1004 C1003 1.398 . S
C1004 C1005 1.391 . S
C1005 H993 0.950 . S
C1005 C1001 1.393 . S
C1005 C1004 1.391 . S
C1006 H996 0.950 . S
C1006 C1007 1.386 . S
C1006 C1008 1.391 . S
C1007 C1006 1.386 . S
C1007 C1011 1.393 . S
C1008 H997 0.950 . S
C1008 C1006 1.391 . S
C1008 C1009 1.400 . S
C1009 C1003 1.491 . S
C1009 C1008 1.400 . S
C1009 C1010 1.398 . S
C1010 H998 0.950 . S
C1010 C1009 1.398 . S
C1010 C1011 1.391 . S
C1011 H999 0.950 . S
C1011 C1007 1.393 . S
C1011 C1010 1.391 . S
H1012 C1020 0.950 . S
H1013 C1025 0.950 . S
H1014 C1022 0.950 . S
H1015 C1024 0.950 . S
H1016 C1026 0.950 . S
H1017 C1028 0.950 . S
H1018 C1030 0.950 . S
H1019 C1031 0.950 . S
C1020 H1012 0.950 . S
C1020 C1021 1.386 . S
C1020 C1022 1.391 . S
C1021 C1020 1.386 . S
C1021 C1025 1.393 . S
C1022 H1014 0.950 . S
C1022 C1020 1.391 . S
C1022 C1023 1.400 . S
C1023 C1022 1.400 . S
C1023 C1024 1.398 . S
C1023 C1029 1.491 . S
C1024 H1015 0.950 . S
C1024 C1023 1.398 . S
C1024 C1025 1.391 . S
C1025 H1013 0.950 . S
C1025 C1021 1.393 . S
C1025 C1024 1.391 . S
C1026 H1016 0.950 . S
C1026 C1027 1.386 . S
C1026 C1028 1.391 . S
C1027 C1026 1.386 . S
C1027 C1031 1.393 . S
C1028 H1017 0.950 . S
C1028 C1026 1.391 . S
C1028 C1029 1.400 . S
C1029 C1023 1.491 . S
C1029 C1028 1.400 . S
C1029 C1030 1.398 . S
C1030 H1018 0.950 . S
C1030 C1029 1.398 . S
C1030 C1031 1.391 . S
C1031 H1019 0.950 . S
C1031 C1027 1.393 . S
C1031 C1030 1.391 . S
H1032 C1040 0.950 . S
H1033 C1045 0.950 . S
H1034 C1042 0.950 . S
H1035 C1044 0.950 1_565 S
H1036 C1046 0.950 . S
H1037 C1048 0.950 1_565 S
H1038 C1050 0.950 . S
H1039 C1051 0.950 . S
C1040 H1032 0.950 . S
C1040 C1041 1.386 . S
C1040 C1042 1.391 . S
C1041 C1040 1.386 . S
C1041 C1045 1.393 1_545 S
C1042 H1034 0.950 . S
C1042 C1040 1.391 . S
C1042 C1043 1.400 . S
C1043 C1042 1.400 . S
C1043 C1044 1.398 . S
C1043 C1049 1.491 . S
C1044 H1035 0.950 1_545 S
C1044 C1043 1.398 . S
C1044 C1045 1.391 1_545 S
C1045 H1033 0.950 . S
C1045 C1041 1.393 1_565 S
C1045 C1044 1.391 1_565 S
C1046 H1036 0.950 . S
C1046 C1047 1.386 . S
C1046 C1048 1.391 . S
C1047 C1046 1.386 . S
C1047 C1051 1.393 . S
C1048 H1037 0.950 1_545 S
C1048 C1046 1.391 . S
C1048 C1049 1.400 . S
C1049 C1043 1.491 . S
C1049 C1048 1.400 . S
C1049 C1050 1.398 . S
C1050 H1038 0.950 . S
C1050 C1049 1.398 . S
C1050 C1051 1.391 . S
C1051 H1039 0.950 . S
C1051 C1047 1.393 . S
C1051 C1050 1.391 . S
H1052 C1060 0.950 . S
H1053 C1065 0.950 . S
H1054 C1062 0.950 . S
H1055 C1064 0.950 . S
H1056 C1066 0.950 . S
H1057 C1068 0.950 . S
H1058 C1070 0.950 . S
H1059 C1071 0.950 . S
C1060 H1052 0.950 . S
C1060 C1061 1.386 . S
C1060 C1062 1.391 . S
C1061 C1060 1.386 . S
C1061 C1065 1.393 . S
C1062 H1054 0.950 . S
C1062 C1060 1.391 . S
C1062 C1063 1.400 . S
C1063 C1062 1.400 . S
C1063 C1064 1.398 . S
C1063 C1069 1.491 . S
C1064 H1055 0.950 . S
C1064 C1063 1.398 . S
C1064 C1065 1.391 . S
C1065 H1053 0.950 . S
C1065 C1061 1.393 . S
C1065 C1064 1.391 . S
C1066 H1056 0.950 . S
C1066 C1067 1.386 . S
C1066 C1068 1.391 . S
C1067 C1066 1.386 . S
C1067 C1071 1.393 . S
C1068 H1057 0.950 . S
C1068 C1066 1.391 . S
C1068 C1069 1.400 . S
C1069 C1063 1.491 . S
C1069 C1068 1.400 . S
C1069 C1070 1.398 . S
C1070 H1058 0.950 . S
C1070 C1069 1.398 . S
C1070 C1071 1.391 . S
C1071 H1059 0.950 . S
C1071 C1067 1.393 . S
C1071 C1070 1.391 . S
H1072 C1080 0.950 . S
H1073 C1085 0.950 . S
H1074 C1082 0.950 . S
H1075 C1084 0.950 . S
H1076 C1086 0.950 . S
H1077 C1088 0.950 . S
H1078 C1090 0.950 . S
H1079 C1091 0.950 1_565 S
C1080 H1072 0.950 . S
C1080 C1081 1.386 . S
C1080 C1082 1.391 . S
C1081 C1080 1.386 . S
C1081 C1085 1.393 . S
C1082 H1074 0.950 . S
C1082 C1080 1.391 . S
C1082 C1083 1.400 . S
C1083 C1082 1.400 . S
C1083 C1084 1.398 . S
C1083 C1089 1.491 . S
C1084 H1075 0.950 . S
C1084 C1083 1.398 . S
C1084 C1085 1.391 . S
C1085 H1073 0.950 . S
C1085 C1081 1.393 . S
C1085 C1084 1.391 . S
C1086 H1076 0.950 . S
C1086 C1087 1.386 . S
C1086 C1088 1.391 . S
C1087 C1086 1.386 . S
C1087 C1091 1.393 . S
C1088 H1077 0.950 . S
C1088 C1086 1.391 . S
C1088 C1089 1.400 . S
C1089 C1083 1.491 . S
C1089 C1088 1.400 . S
C1089 C1090 1.398 . S
C1090 H1078 0.950 . S
C1090 C1089 1.398 . S
C1090 C1091 1.391 . S
C1091 H1079 0.950 1_545 S
C1091 C1087 1.393 . S
C1091 C1090 1.391 . S
H1092 C1100 0.950 . S
H1093 C1105 0.950 . S
H1094 C1102 0.950 . S
H1095 C1104 0.950 . S
H1096 C1106 0.950 . S
H1097 C1108 0.950 . S
H1098 C1110 0.950 . S
H1099 C1111 0.950 . S
C1100 H1092 0.950 . S
C1100 C1101 1.386 . S
C1100 C1102 1.391 . S
C1101 C1100 1.386 . S
C1101 C1105 1.393 . S
C1102 H1094 0.950 . S
C1102 C1100 1.391 . S
C1102 C1103 1.400 . S
C1103 C1102 1.400 . S
C1103 C1104 1.398 . S
C1103 C1109 1.491 . S
C1104 H1095 0.950 . S
C1104 C1103 1.398 . S
C1104 C1105 1.391 . S
C1105 H1093 0.950 . S
C1105 C1101 1.393 . S
C1105 C1104 1.391 . S
C1106 H1096 0.950 . S
C1106 C1107 1.386 . S
C1106 C1108 1.391 . S
C1107 C1106 1.386 . S
C1107 C1111 1.393 . S
C1108 H1097 0.950 . S
C1108 C1106 1.391 . S
C1108 C1109 1.400 . S
C1109 C1103 1.491 . S
C1109 C1108 1.400 . S
C1109 C1110 1.398 . S
C1110 H1098 0.950 . S
C1110 C1109 1.398 . S
C1110 C1111 1.391 . S
C1111 H1099 0.950 . S
C1111 C1107 1.393 . S
C1111 C1110 1.391 . S
H1112 C1120 0.950 . S
H1113 C1125 0.950 . S
H1114 C1122 0.950 . S
H1115 C1124 0.950 . S
H1116 C1126 0.950 . S
H1117 C1128 0.950 . S
H1118 C1130 0.950 . S
H1119 C1131 0.950 . S
C1120 H1112 0.950 . S
C1120 C1121 1.386 . S
C1120 C1122 1.391 . S
C1121 C1120 1.386 . S
C1121 C1125 1.393 . S
C1122 H1114 0.950 . S
C1122 C1120 1.391 . S
C1122 C1123 1.400 . S
C1123 C1122 1.400 . S
C1123 C1124 1.398 . S
C1123 C1129 1.491 . S
C1124 H1115 0.950 . S
C1124 C1123 1.398 . S
C1124 C1125 1.391 . S
C1125 H1113 0.950 . S
C1125 C1121 1.393 . S
C1125 C1124 1.391 . S
C1126 H1116 0.950 . S
C1126 C1127 1.386 . S
C1126 C1128 1.391 . S
C1127 C1126 1.386 . S
C1127 C1131 1.393 . S
C1128 H1117 0.950 . S
C1128 C1126 1.391 . S
C1128 C1129 1.400 . S
C1129 C1123 1.491 . S
C1129 C1128 1.400 . S
C1129 C1130 1.398 . S
C1130 H1118 0.950 . S
C1130 C1129 1.398 . S
C1130 C1131 1.391 . S
C1131 H1119 0.950 . S
C1131 C1127 1.393 . S
C1131 C1130 1.391 . S
H1132 C1140 0.950 . S
H1133 C1145 0.950 . S
H1134 C1142 0.950 . S
H1135 C1144 0.950 . S
H1136 C1146 0.950 . S
H1137 C1148 0.950 . S
H1138 C1150 0.950 . S
H1139 C1151 0.950 . S
C1140 H1132 0.950 . S
C1140 C1141 1.386 . S
C1140 C1142 1.391 . S
C1141 C1140 1.386 . S
C1141 C1145 1.393 . S
C1142 H1134 0.950 . S
C1142 C1140 1.391 . S
C1142 C1143 1.400 . S
C1143 C1142 1.400 . S
C1143 C1144 1.398 . S
C1143 C1149 1.491 . S
C1144 H1135 0.950 . S
C1144 C1143 1.398 . S
C1144 C1145 1.391 . S
C1145 H1133 0.950 . S
C1145 C1141 1.393 . S
C1145 C1144 1.391 . S
C1146 H1136 0.950 . S
C1146 C1147 1.386 . S
C1146 C1148 1.391 . S
C1147 C1146 1.386 . S
C1147 C1151 1.393 . S
C1148 H1137 0.950 . S
C1148 C1146 1.391 . S
C1148 C1149 1.400 . S
C1149 C1143 1.491 . S
C1149 C1148 1.400 . S
C1149 C1150 1.398 . S
C1150 H1138 0.950 . S
C1150 C1149 1.398 . S
C1150 C1151 1.391 . S
C1151 H1139 0.950 . S
C1151 C1147 1.393 . S
C1151 C1150 1.391 . S
H1152 C1160 0.950 . S
H1153 C1165 0.950 . S
H1154 C1162 0.950 . S
H1155 C1164 0.950 . S
H1156 C1166 0.950 . S
H1157 C1168 0.950 . S
H1158 C1170 0.950 . S
H1159 C1171 0.950 . S
C1160 H1152 0.950 . S
C1160 C1161 1.386 . S
C1160 C1162 1.391 . S
C1161 C1160 1.386 . S
C1161 C1165 1.393 . S
C1162 H1154 0.950 . S
C1162 C1160 1.391 . S
C1162 C1163 1.400 . S
C1163 C1162 1.400 . S
C1163 C1164 1.398 . S
C1163 C1169 1.491 . S
C1164 H1155 0.950 . S
C1164 C1163 1.398 . S
C1164 C1165 1.391 . S
C1165 H1153 0.950 . S
C1165 C1161 1.393 . S
C1165 C1164 1.391 . S
C1166 H1156 0.950 . S
C1166 C1167 1.386 . S
C1166 C1168 1.391 . S
C1167 C1166 1.386 . S
C1167 C1171 1.393 . S
C1168 H1157 0.950 . S
C1168 C1166 1.391 . S
C1168 C1169 1.400 . S
C1169 C1163 1.491 . S
C1169 C1168 1.400 . S
C1169 C1170 1.398 . S
C1170 H1158 0.950 . S
C1170 C1169 1.398 . S
C1170 C1171 1.391 . S
C1171 H1159 0.950 . S
C1171 C1167 1.393 . S
C1171 C1170 1.391 . S
H1172 C1180 0.950 . S
H1173 C1185 0.950 . S
H1174 C1182 0.950 . S
H1175 C1184 0.950 . S
H1176 C1186 0.950 . S
H1177 C1188 0.950 . S
H1178 C1190 0.950 . S
H1179 C1191 0.950 . S
C1180 H1172 0.950 . S
C1180 C1181 1.386 . S
C1180 C1182 1.391 . S
C1181 C1180 1.386 . S
C1181 C1185 1.393 . S
C1182 H1174 0.950 . S
C1182 C1180 1.391 . S
C1182 C1183 1.400 . S
C1183 C1182 1.400 . S
C1183 C1184 1.398 . S
C1183 C1189 1.491 . S
C1184 H1175 0.950 . S
C1184 C1183 1.398 . S
C1184 C1185 1.391 . S
C1185 H1173 0.950 . S
C1185 C1181 1.393 . S
C1185 C1184 1.391 . S
C1186 H1176 0.950 . S
C1186 C1187 1.386 . S
C1186 C1188 1.391 . S
C1187 C1186 1.386 . S
C1187 C1191 1.393 . S
C1188 H1177 0.950 . S
C1188 C1186 1.391 . S
C1188 C1189 1.400 . S
C1189 C1183 1.491 . S
C1189 C1188 1.400 . S
C1189 C1190 1.398 . S
C1190 H1178 0.950 . S
C1190 C1189 1.398 . S
C1190 C1191 1.391 . S
C1191 H1179 0.950 . S
C1191 C1187 1.393 . S
C1191 C1190 1.391 . S
H1192 C1200 0.950 . S
H1193 C1205 0.950 . S
H1194 C1202 0.950 . S
H1195 C1204 0.950 . S
H1196 C1206 0.950 . S
H1197 C1208 0.950 . S
H1198 C1210 0.950 . S
H1199 C1211 0.950 . S
C1200 H1192 0.950 . S
C1200 C1201 1.386 . S
C1200 C1202 1.391 . S
C1201 C1200 1.386 . S
C1201 C1205 1.393 . S
C1202 H1194 0.950 . S
C1202 C1200 1.391 . S
C1202 C1203 1.400 . S
C1203 C1202 1.400 . S
C1203 C1204 1.398 . S
C1203 C1209 1.491 . S
C1204 H1195 0.950 . S
C1204 C1203 1.398 . S
C1204 C1205 1.391 . S
C1205 H1193 0.950 . S
C1205 C1201 1.393 . S
C1205 C1204 1.391 . S
C1206 H1196 0.950 . S
C1206 C1207 1.386 . S
C1206 C1208 1.391 . S
C1207 C1206 1.386 . S
C1207 C1211 1.393 . S
C1208 H1197 0.950 . S
C1208 C1206 1.391 . S
C1208 C1209 1.400 . S
C1209 C1203 1.491 . S
C1209 C1208 1.400 . S
C1209 C1210 1.398 . S
C1210 H1198 0.950 . S
C1210 C1209 1.398 . S
C1210 C1211 1.391 . S
C1211 H1199 0.950 . S
C1211 C1207 1.393 . S
C1211 C1210 1.391 . S
H1212 C1220 0.950 . S
H1213 C1225 0.950 . S
H1214 C1222 0.950 . S
H1215 C1224 0.950 . S
H1216 C1226 0.950 . S
H1217 C1228 0.950 . S
H1218 C1230 0.950 1_545 S
H1219 C1231 0.950 . S
C1220 H1212 0.950 . S
C1220 C1221 1.386 . S
C1220 C1222 1.391 . S
C1221 C1220 1.386 . S
C1221 C1225 1.393 . S
C1222 H1214 0.950 . S
C1222 C1220 1.391 . S
C1222 C1223 1.400 . S
C1223 C1222 1.400 . S
C1223 C1224 1.398 . S
C1223 C1229 1.491 . S
C1224 H1215 0.950 . S
C1224 C1223 1.398 . S
C1224 C1225 1.391 . S
C1225 H1213 0.950 . S
C1225 C1221 1.393 . S
C1225 C1224 1.391 . S
C1226 H1216 0.950 . S
C1226 C1227 1.386 . S
C1226 C1228 1.391 . S
C1227 C1226 1.386 . S
C1227 C1231 1.393 1_565 S
C1228 H1217 0.950 . S
C1228 C1226 1.391 . S
C1228 C1229 1.400 . S
C1229 C1223 1.491 . S
C1229 C1228 1.400 . S
C1229 C1230 1.398 . S
C1230 H1218 0.950 1_565 S
C1230 C1229 1.398 . S
C1230 C1231 1.391 1_565 S
C1231 H1219 0.950 . S
C1231 C1227 1.393 1_545 S
C1231 C1230 1.391 1_545 S
H1232 C1240 0.950 . S
H1233 C1245 0.950 . S
H1234 C1242 0.950 . S
H1235 C1244 0.950 . S
H1236 C1246 0.950 . S
H1237 C1248 0.950 . S
H1238 C1250 0.950 . S
H1239 C1251 0.950 . S
C1240 H1232 0.950 . S
C1240 C1241 1.386 . S
C1240 C1242 1.391 . S
C1241 C1240 1.386 . S
C1241 C1245 1.393 . S
C1242 H1234 0.950 . S
C1242 C1240 1.391 . S
C1242 C1243 1.400 . S
C1243 C1242 1.400 . S
C1243 C1244 1.398 . S
C1243 C1249 1.491 . S
C1244 H1235 0.950 . S
C1244 C1243 1.398 . S
C1244 C1245 1.391 . S
C1245 H1233 0.950 . S
C1245 C1241 1.393 . S
C1245 C1244 1.391 . S
C1246 H1236 0.950 . S
C1246 C1247 1.386 . S
C1246 C1248 1.391 . S
C1247 C1246 1.386 . S
C1247 C1251 1.393 . S
C1248 H1237 0.950 . S
C1248 C1246 1.391 . S
C1248 C1249 1.400 . S
C1249 C1243 1.491 . S
C1249 C1248 1.400 . S
C1249 C1250 1.398 . S
C1250 H1238 0.950 . S
C1250 C1249 1.398 . S
C1250 C1251 1.391 . S
C1251 H1239 0.950 . S
C1251 C1247 1.393 . S
C1251 C1250 1.391 . S
H1252 C1260 0.950 . S
H1253 C1265 0.950 . S
H1254 C1262 0.950 . S
H1255 C1264 0.950 . S
H1256 C1266 0.950 . S
H1257 C1268 0.950 . S
H1258 C1270 0.950 . S
H1259 C1271 0.950 . S
C1260 H1252 0.950 . S
C1260 C1261 1.386 . S
C1260 C1262 1.391 . S
C1261 C1260 1.386 . S
C1261 C1265 1.393 . S
C1262 H1254 0.950 . S
C1262 C1260 1.391 . S
C1262 C1263 1.400 . S
C1263 C1262 1.400 . S
C1263 C1264 1.398 . S
C1263 C1269 1.491 . S
C1264 H1255 0.950 . S
C1264 C1263 1.398 . S
C1264 C1265 1.391 . S
C1265 H1253 0.950 . S
C1265 C1261 1.393 . S
C1265 C1264 1.391 . S
C1266 H1256 0.950 . S
C1266 C1267 1.386 . S
C1266 C1268 1.391 . S
C1267 C1266 1.386 . S
C1267 C1271 1.393 . S
C1268 H1257 0.950 . S
C1268 C1266 1.391 . S
C1268 C1269 1.400 . S
C1269 C1263 1.491 . S
C1269 C1268 1.400 . S
C1269 C1270 1.398 . S
C1270 H1258 0.950 . S
C1270 C1269 1.398 . S
C1270 C1271 1.391 . S
C1271 H1259 0.950 . S
C1271 C1267 1.393 . S
C1271 C1270 1.391 . S
H1272 C1280 0.950 . S
H1273 C1285 0.950 1_655 S
H1274 C1282 0.950 . S
H1275 C1284 0.934 1_655 S
H1276 C1286 0.950 . S
H1277 C1288 0.950 . S
H1278 C1290 0.950 . S
H1279 C1291 0.959 . S
C1280 H1272 0.950 . S
C1280 C1281 1.386 . S
C1280 C1282 1.391 . S
C1281 C1280 1.386 . S
C1281 C1285 1.393 . S
C1282 H1274 0.950 . S
C1282 C1280 1.391 . S
C1282 C1283 1.400 . S
C1283 C1282 1.400 . S
C1283 C1284 1.398 . S
C1283 C1289 1.491 . S
C1284 H1275 0.934 1_455 S
C1284 C1283 1.398 . S
C1284 C1285 1.391 . S
C1285 H1273 0.950 1_455 S
C1285 C1281 1.393 . S
C1285 C1284 1.391 . S
C1286 H1276 0.950 . S
C1286 C1287 1.386 . S
C1286 C1288 1.391 . S
C1287 C1286 1.386 . S
C1287 C1291 1.389 1_556 S
C1288 H1277 0.950 . S
C1288 C1286 1.391 . S
C1288 C1289 1.400 . S
C1289 C1283 1.491 . S
C1289 C1288 1.400 . S
C1289 C1290 1.398 . S
C1290 H1278 0.950 . S
C1290 C1289 1.398 . S
C1290 C1291 1.385 1_556 S
C1291 H1279 0.959 . S
C1291 C1287 1.389 1_554 S
C1291 C1290 1.385 1_554 S
H1292 C1300 0.950 . S
H1293 C1305 0.950 . S
H1294 C1302 0.950 . S
H1295 C1304 0.950 . S
H1296 C1306 0.950 . S
H1297 C1308 0.950 . S
H1298 C1310 0.950 . S
H1299 C1311 0.950 . S
C1300 H1292 0.950 . S
C1300 C1301 1.386 . S
C1300 C1302 1.391 . S
C1301 C1300 1.386 . S
C1301 C1305 1.393 . S
C1302 H1294 0.950 . S
C1302 C1300 1.391 . S
C1302 C1303 1.400 . S
C1303 C1302 1.400 . S
C1303 C1304 1.398 . S
C1303 C1309 1.491 . S
C1304 H1295 0.950 . S
C1304 C1303 1.398 . S
C1304 C1305 1.391 . S
C1305 H1293 0.950 . S
C1305 C1301 1.393 . S
C1305 C1304 1.391 . S
C1306 H1296 0.950 . S
C1306 C1307 1.386 . S
C1306 C1308 1.391 . S
C1307 C1306 1.386 . S
C1307 C1311 1.393 . S
C1308 H1297 0.950 . S
C1308 C1306 1.391 . S
C1308 C1309 1.400 . S
C1309 C1303 1.491 . S
C1309 C1308 1.400 . S
C1309 C1310 1.398 . S
C1310 H1298 0.950 . S
C1310 C1309 1.398 . S
C1310 C1311 1.391 . S
C1311 H1299 0.950 . S
C1311 C1307 1.393 . S
C1311 C1310 1.391 . S
H1312 C1320 0.950 . S
H1313 C1325 0.950 . S
H1314 C1322 0.950 . S
H1315 C1324 0.950 . S
H1316 C1326 0.950 . S
H1317 C1328 0.950 . S
H1318 C1330 0.950 . S
H1319 C1331 0.950 . S
C1320 H1312 0.950 . S
C1320 C1321 1.386 . S
C1320 C1322 1.391 . S
C1321 C1320 1.386 . S
C1321 C1325 1.393 . S
C1322 H1314 0.950 . S
C1322 C1320 1.391 . S
C1322 C1323 1.400 . S
C1323 C1322 1.400 . S
C1323 C1324 1.398 . S
C1323 C1329 1.491 . S
C1324 H1315 0.950 . S
C1324 C1323 1.398 . S
C1324 C1325 1.391 . S
C1325 H1313 0.950 . S
C1325 C1321 1.393 . S
C1325 C1324 1.391 . S
C1326 H1316 0.950 . S
C1326 C1327 1.386 . S
C1326 C1328 1.391 . S
C1327 C1326 1.386 . S
C1327 C1331 1.393 . S
C1328 H1317 0.950 . S
C1328 C1326 1.391 . S
C1328 C1329 1.400 . S
C1329 C1323 1.491 . S
C1329 C1328 1.400 . S
C1329 C1330 1.398 . S
C1330 H1318 0.950 . S
C1330 C1329 1.398 . S
C1330 C1331 1.391 . S
C1331 H1319 0.950 . S
C1331 C1327 1.393 . S
C1331 C1330 1.391 . S
H1332 C1340 0.950 . S
H1333 C1345 0.950 . S
H1334 C1342 0.950 . S
H1335 C1344 0.950 . S
H1336 C1346 0.950 . S
H1337 C1348 0.950 . S
H1338 C1350 0.950 . S
H1339 C1351 0.950 . S
C1340 H1332 0.950 . S
C1340 C1341 1.386 . S
C1340 C1342 1.391 . S
C1341 C1340 1.386 . S
C1341 C1345 1.393 . S
C1342 H1334 0.950 . S
C1342 C1340 1.391 . S
C1342 C1343 1.400 . S
C1343 C1342 1.400 . S
C1343 C1344 1.398 . S
C1343 C1349 1.491 . S
C1344 H1335 0.950 . S
C1344 C1343 1.398 . S
C1344 C1345 1.391 . S
C1345 H1333 0.950 . S
C1345 C1341 1.393 . S
C1345 C1344 1.391 . S
C1346 H1336 0.950 . S
C1346 C1347 1.386 . S
C1346 C1348 1.391 . S
C1347 C1346 1.386 . S
C1347 C1351 1.393 . S
C1348 H1337 0.950 . S
C1348 C1346 1.391 . S
C1348 C1349 1.400 . S
C1349 C1343 1.491 . S
C1349 C1348 1.400 . S
C1349 C1350 1.398 . S
C1350 H1338 0.950 . S
C1350 C1349 1.398 . S
C1350 C1351 1.391 . S
C1351 H1339 0.950 . S
C1351 C1347 1.393 . S
C1351 C1350 1.391 . S
H1352 C1360 0.950 . S
H1353 C1365 0.950 . S
H1354 C1362 0.950 . S
H1355 C1364 0.950 . S
H1356 C1366 0.950 . S
H1357 C1368 0.950 . S
H1358 C1370 0.950 1_655 S
H1359 C1371 0.950 1_655 S
C1360 H1352 0.950 . S
C1360 C1361 1.386 . S
C1360 C1362 1.391 . S
C1361 C1360 1.386 . S
C1361 C1365 1.393 1_655 S
C1362 H1354 0.950 . S
C1362 C1360 1.391 . S
C1362 C1363 1.400 1_655 S
C1363 C1362 1.400 1_455 S
C1363 C1364 1.398 . S
C1363 C1369 1.491 . S
C1364 H1355 0.950 . S
C1364 C1363 1.398 . S
C1364 C1365 1.391 . S
C1365 H1353 0.950 . S
C1365 C1361 1.393 1_455 S
C1365 C1364 1.391 . S
C1366 H1356 0.950 . S
C1366 C1367 1.386 . S
C1366 C1368 1.391 . S
C1367 C1366 1.386 . S
C1367 C1371 1.393 . S
C1368 H1357 0.950 . S
C1368 C1366 1.391 . S
C1368 C1369 1.400 . S
C1369 C1363 1.491 . S
C1369 C1368 1.400 . S
C1369 C1370 1.398 . S
C1370 H1358 0.950 1_455 S
C1370 C1369 1.398 . S
C1370 C1371 1.391 . S
C1371 H1359 0.950 1_455 S
C1371 C1367 1.393 . S
C1371 C1370 1.391 . S
H1372 C1380 0.950 . S
H1373 C1385 0.950 . S
H1374 C1382 0.950 . S
H1375 C1384 0.950 . S
H1376 C1386 0.950 . S
H1377 C1388 0.950 . S
H1378 C1390 0.950 . S
H1379 C1391 0.950 . S
C1380 H1372 0.950 . S
C1380 C1381 1.386 . S
C1380 C1382 1.391 . S
C1381 C1380 1.386 . S
C1381 C1385 1.393 . S
C1382 H1374 0.950 . S
C1382 C1380 1.391 . S
C1382 C1383 1.400 . S
C1383 C1382 1.400 . S
C1383 C1384 1.398 . S
C1383 C1389 1.491 . S
C1384 H1375 0.950 . S
C1384 C1383 1.398 . S
C1384 C1385 1.391 . S
C1385 H1373 0.950 . S
C1385 C1381 1.393 . S
C1385 C1384 1.391 . S
C1386 H1376 0.950 . S
C1386 C1387 1.386 . S
C1386 C1388 1.391 . S
C1387 C1386 1.386 . S
C1387 C1391 1.393 . S
C1388 H1377 0.950 . S
C1388 C1386 1.391 . S
C1388 C1389 1.400 . S
C1389 C1383 1.491 . S
C1389 C1388 1.400 . S
C1389 C1390 1.398 . S
C1390 H1378 0.950 . S
C1390 C1389 1.398 . S
C1390 C1391 1.391 . S
C1391 H1379 0.950 . S
C1391 C1387 1.393 . S
C1391 C1390 1.391 . S
H1392 C1400 0.950 . S
H1393 C1405 0.950 . S
H1394 C1402 0.950 . S
H1395 C1404 0.950 . S
H1396 C1406 0.950 . S
H1397 C1408 0.950 . S
H1398 C1410 0.950 . S
H1399 C1411 0.950 . S
C1400 H1392 0.950 . S
C1400 C1401 1.386 . S
C1400 C1402 1.391 . S
C1401 C1400 1.386 . S
C1401 C1405 1.393 . S
C1402 H1394 0.950 . S
C1402 C1400 1.391 . S
C1402 C1403 1.400 . S
C1403 C1402 1.400 . S
C1403 C1404 1.398 . S
C1403 C1409 1.491 . S
C1404 H1395 0.950 . S
C1404 C1403 1.398 . S
C1404 C1405 1.391 . S
C1405 H1393 0.950 . S
C1405 C1401 1.393 . S
C1405 C1404 1.391 . S
C1406 H1396 0.950 . S
C1406 C1407 1.386 . S
C1406 C1408 1.391 . S
C1407 C1406 1.386 . S
C1407 C1411 1.393 . S
C1408 H1397 0.950 . S
C1408 C1406 1.391 . S
C1408 C1409 1.400 . S
C1409 C1403 1.491 . S
C1409 C1408 1.400 . S
C1409 C1410 1.398 . S
C1410 H1398 0.950 . S
C1410 C1409 1.398 . S
C1410 C1411 1.391 . S
C1411 H1399 0.950 . S
C1411 C1407 1.393 . S
C1411 C1410 1.391 . S
H1412 C1420 0.950 . S
H1413 C1425 0.950 . S
H1414 C1422 0.950 . S
H1415 C1424 0.950 . S
H1416 C1426 0.950 . S
H1417 C1428 0.950 . S
H1418 C1430 0.950 . S
H1419 C1431 0.950 . S
C1420 H1412 0.950 . S
C1420 C1421 1.386 . S
C1420 C1422 1.391 . S
C1421 C1420 1.386 . S
C1421 C1425 1.393 . S
C1422 H1414 0.950 . S
C1422 C1420 1.391 . S
C1422 C1423 1.400 . S
C1423 C1422 1.400 . S
C1423 C1424 1.398 . S
C1423 C1429 1.491 . S
C1424 H1415 0.950 . S
C1424 C1423 1.398 . S
C1424 C1425 1.391 . S
C1425 H1413 0.950 . S
C1425 C1421 1.393 . S
C1425 C1424 1.391 . S
C1426 H1416 0.950 . S
C1426 C1427 1.386 . S
C1426 C1428 1.391 . S
C1427 C1426 1.386 . S
C1427 C1431 1.393 . S
C1428 H1417 0.950 . S
C1428 C1426 1.391 . S
C1428 C1429 1.400 . S
C1429 C1423 1.491 . S
C1429 C1428 1.400 . S
C1429 C1430 1.398 . S
C1430 H1418 0.950 . S
C1430 C1429 1.398 . S
C1430 C1431 1.391 . S
C1431 H1419 0.950 . S
C1431 C1427 1.393 . S
C1431 C1430 1.391 . S
H1432 C1440 0.950 . S
H1433 C1445 0.950 . S
H1434 C1442 0.950 . S
H1435 C1444 0.950 . S
H1436 C1446 0.950 . S
H1437 C1448 0.950 . S
H1438 C1450 0.950 . S
H1439 C1451 0.950 1_455 S
C1440 H1432 0.950 . S
C1440 C1441 1.386 . S
C1440 C1442 1.391 . S
C1441 C1440 1.386 . S
C1441 C1445 1.393 . S
C1442 H1434 0.950 . S
C1442 C1440 1.391 . S
C1442 C1443 1.400 . S
C1443 C1442 1.400 . S
C1443 C1444 1.398 . S
C1443 C1449 1.491 . S
C1444 H1435 0.950 . S
C1444 C1443 1.398 . S
C1444 C1445 1.391 . S
C1445 H1433 0.950 . S
C1445 C1441 1.393 . S
C1445 C1444 1.391 . S
C1446 H1436 0.950 . S
C1446 C1447 1.386 . S
C1446 C1448 1.391 . S
C1447 C1446 1.386 . S
C1447 C1451 1.393 . S
C1448 H1437 0.950 . S
C1448 C1446 1.391 . S
C1448 C1449 1.400 . S
C1449 C1443 1.491 . S
C1449 C1448 1.400 . S
C1449 C1450 1.398 . S
C1450 H1438 0.950 . S
C1450 C1449 1.398 . S
C1450 C1451 1.391 . S
C1451 H1439 0.950 1_655 S
C1451 C1447 1.393 . S
C1451 C1450 1.391 . S
H1452 C1460 0.950 . S
H1453 C1465 0.950 . S
H1454 C1462 0.950 . S
H1455 C1464 0.950 . S
H1456 C1466 0.950 . S
H1457 C1468 0.950 . S
H1458 C1470 0.950 . S
H1459 C1471 0.950 . S
C1460 H1452 0.950 . S
C1460 C1461 1.386 . S
C1460 C1462 1.391 . S
C1461 C1460 1.386 . S
C1461 C1465 1.393 . S
C1462 H1454 0.950 . S
C1462 C1460 1.391 . S
C1462 C1463 1.400 . S
C1463 C1462 1.400 . S
C1463 C1464 1.398 . S
C1463 C1469 1.491 . S
C1464 H1455 0.950 . S
C1464 C1463 1.398 . S
C1464 C1465 1.391 . S
C1465 H1453 0.950 . S
C1465 C1461 1.393 . S
C1465 C1464 1.391 . S
C1466 H1456 0.950 . S
C1466 C1467 1.386 . S
C1466 C1468 1.391 . S
C1467 C1466 1.386 . S
C1467 C1471 1.393 . S
C1468 H1457 0.950 . S
C1468 C1466 1.391 . S
C1468 C1469 1.400 . S
C1469 C1463 1.491 . S
C1469 C1468 1.400 . S
C1469 C1470 1.398 . S
C1470 H1458 0.950 . S
C1470 C1469 1.398 . S
C1470 C1471 1.391 . S
C1471 H1459 0.950 . S
C1471 C1467 1.393 . S
C1471 C1470 1.391 . S
H1472 C1480 0.950 . S
H1473 C1485 0.950 . S
H1474 C1482 0.950 . S
H1475 C1484 0.950 . S
H1476 C1486 0.950 . S
H1477 C1488 0.950 . S
H1478 C1490 0.950 . S
H1479 C1491 0.950 . S
C1480 H1472 0.950 . S
C1480 C1481 1.386 1_565 S
C1480 C1482 1.391 . S
C1481 C1480 1.386 1_545 S
C1481 C1485 1.393 . S
C1482 H1474 0.950 . S
C1482 C1480 1.391 . S
C1482 C1483 1.400 1_565 S
C1483 C1482 1.400 1_545 S
C1483 C1484 1.398 . S
C1483 C1489 1.491 . S
C1484 H1475 0.950 . S
C1484 C1483 1.398 . S
C1484 C1485 1.391 . S
C1485 H1473 0.950 . S
C1485 C1481 1.393 . S
C1485 C1484 1.391 . S
C1486 H1476 0.950 . S
C1486 C1487 1.386 . S
C1486 C1488 1.391 . S
C1487 C1486 1.386 . S
C1487 C1491 1.393 1_545 S
C1488 H1477 0.950 . S
C1488 C1486 1.391 . S
C1488 C1489 1.400 . S
C1489 C1483 1.491 . S
C1489 C1488 1.400 . S
C1489 C1490 1.398 1_545 S
C1490 H1478 0.950 . S
C1490 C1489 1.398 1_565 S
C1490 C1491 1.391 . S
C1491 H1479 0.950 . S
C1491 C1487 1.393 1_565 S
C1491 C1490 1.391 . S
H1492 C1500 0.950 . S
H1493 C1505 0.950 . S
H1494 C1502 0.950 . S
H1495 C1504 0.950 . S
H1496 C1506 0.950 . S
H1497 C1508 0.950 . S
H1498 C1510 0.950 . S
H1499 C1511 0.950 . S
C1500 H1492 0.950 . S
C1500 C1501 1.386 . S
C1500 C1502 1.391 . S
C1501 C1500 1.386 . S
C1501 C1505 1.393 . S
C1502 H1494 0.950 . S
C1502 C1500 1.391 . S
C1502 C1503 1.400 . S
C1503 C1502 1.400 . S
C1503 C1504 1.398 . S
C1503 C1509 1.491 . S
C1504 H1495 0.950 . S
C1504 C1503 1.398 . S
C1504 C1505 1.391 . S
C1505 H1493 0.950 . S
C1505 C1501 1.393 . S
C1505 C1504 1.391 . S
C1506 H1496 0.950 . S
C1506 C1507 1.386 . S
C1506 C1508 1.391 . S
C1507 C1506 1.386 . S
C1507 C1511 1.393 . S
C1508 H1497 0.950 . S
C1508 C1506 1.391 . S
C1508 C1509 1.400 . S
C1509 C1503 1.491 . S
C1509 C1508 1.400 . S
C1509 C1510 1.398 . S
C1510 H1498 0.950 . S
C1510 C1509 1.398 . S
C1510 C1511 1.391 . S
C1511 H1499 0.950 . S
C1511 C1507 1.393 . S
C1511 C1510 1.391 . S
H1512 C1520 0.950 . S
H1513 C1525 0.950 . S
H1514 C1522 0.950 . S
H1515 C1524 0.950 . S
H1516 C1526 0.950 . S
H1517 C1528 0.950 . S
H1518 C1530 0.950 . S
H1519 C1531 0.950 1_565 S
C1520 H1512 0.950 . S
C1520 C1521 1.386 . S
C1520 C1522 1.391 . S
C1521 C1520 1.386 . S
C1521 C1525 1.393 . S
C1522 H1514 0.950 . S
C1522 C1520 1.391 . S
C1522 C1523 1.400 . S
C1523 C1522 1.400 . S
C1523 C1524 1.398 . S
C1523 C1529 1.491 . S
C1524 H1515 0.950 . S
C1524 C1523 1.398 . S
C1524 C1525 1.391 . S
C1525 H1513 0.950 . S
C1525 C1521 1.393 . S
C1525 C1524 1.391 . S
C1526 H1516 0.950 . S
C1526 C1527 1.386 . S
C1526 C1528 1.391 . S
C1527 C1526 1.386 . S
C1527 C1531 1.393 . S
C1528 H1517 0.950 . S
C1528 C1526 1.391 . S
C1528 C1529 1.400 . S
C1529 C1523 1.491 . S
C1529 C1528 1.400 . S
C1529 C1530 1.398 . S
C1530 H1518 0.950 . S
C1530 C1529 1.398 . S
C1530 C1531 1.391 . S
C1531 H1519 0.950 1_545 S
C1531 C1527 1.393 . S
C1531 C1530 1.391 . S
H1532 C1540 0.950 . S
H1533 C1545 0.950 . S
H1534 C1542 0.950 . S
H1535 C1544 0.950 . S
H1536 C1546 0.950 . S
H1537 C1548 0.950 . S
H1538 C1550 0.950 . S
H1539 C1551 0.950 . S
C1540 H1532 0.950 . S
C1540 C1541 1.386 . S
C1540 C1542 1.391 . S
C1541 C1540 1.386 . S
C1541 C1545 1.393 . S
C1542 H1534 0.950 . S
C1542 C1540 1.391 . S
C1542 C1543 1.400 . S
C1543 C1542 1.400 . S
C1543 C1544 1.398 . S
C1543 C1549 1.491 . S
C1544 H1535 0.950 . S
C1544 C1543 1.398 . S
C1544 C1545 1.391 . S
C1545 H1533 0.950 . S
C1545 C1541 1.393 . S
C1545 C1544 1.391 . S
C1546 H1536 0.950 . S
C1546 C1547 1.386 . S
C1546 C1548 1.391 . S
C1547 C1546 1.386 . S
C1547 C1551 1.393 . S
C1548 H1537 0.950 . S
C1548 C1546 1.391 . S
C1548 C1549 1.400 . S
C1549 C1543 1.491 . S
C1549 C1548 1.400 . S
C1549 C1550 1.398 . S
C1550 H1538 0.950 . S
C1550 C1549 1.398 . S
C1550 C1551 1.391 . S
C1551 H1539 0.950 . S
C1551 C1547 1.393 . S
C1551 C1550 1.391 . S
H1552 C1560 0.950 . S
H1553 C1565 0.950 . S
H1554 C1562 0.950 . S
H1555 C1564 0.950 . S
H1556 C1566 0.950 . S
H1557 C1568 0.950 . S
H1558 C1570 0.950 1_565 S
H1559 C1571 0.978 . S
C1560 H1552 0.950 . S
C1560 C1561 1.386 1_565 S
C1560 C1562 1.391 . S
C1561 C1560 1.386 1_545 S
C1561 C1565 1.393 . S
C1562 H1554 0.950 . S
C1562 C1560 1.391 . S
C1562 C1563 1.400 1_565 S
C1563 C1562 1.400 1_545 S
C1563 C1564 1.398 . S
C1563 C1569 1.491 . S
C1564 H1555 0.950 . S
C1564 C1563 1.398 . S
C1564 C1565 1.391 . S
C1565 H1553 0.950 . S
C1565 C1561 1.393 . S
C1565 C1564 1.391 . S
C1566 H1556 0.950 . S
C1566 C1567 1.386 . S
C1566 C1568 1.391 . S
C1567 C1566 1.386 . S
C1567 C1571 1.393 . S
C1568 H1557 0.950 . S
C1568 C1566 1.391 . S
C1568 C1569 1.400 . S
C1569 C1563 1.491 . S
C1569 C1568 1.400 . S
C1569 C1570 1.398 . S
C1570 H1558 0.950 1_545 S
C1570 C1569 1.398 . S
C1570 C1571 1.391 . S
C1571 H1559 0.978 . S
C1571 C1567 1.393 . S
C1571 C1570 1.391 . S
H1572 C1580 0.950 . S
H1573 C1585 0.950 . S
H1574 C1582 0.950 . S
H1575 C1584 0.950 . S
H1576 C1586 0.950 . S
H1577 C1588 0.950 . S
H1578 C1590 0.950 . S
H1579 C1591 0.950 . S
C1580 H1572 0.950 . S
C1580 C1581 1.386 . S
C1580 C1582 1.391 . S
C1581 C1580 1.386 . S
C1581 C1585 1.393 . S
C1582 H1574 0.950 . S
C1582 C1580 1.391 . S
C1582 C1583 1.400 . S
C1583 C1582 1.400 . S
C1583 C1584 1.398 . S
C1583 C1589 1.491 . S
C1584 H1575 0.950 . S
C1584 C1583 1.398 . S
C1584 C1585 1.391 . S
C1585 H1573 0.950 . S
C1585 C1581 1.393 . S
C1585 C1584 1.391 . S
C1586 H1576 0.950 . S
C1586 C1587 1.386 . S
C1586 C1588 1.391 . S
C1587 C1586 1.386 . S
C1587 C1591 1.393 . S
C1588 H1577 0.950 . S
C1588 C1586 1.391 . S
C1588 C1589 1.400 . S
C1589 C1583 1.491 . S
C1589 C1588 1.400 . S
C1589 C1590 1.398 . S
C1590 H1578 0.950 . S
C1590 C1589 1.398 . S
C1590 C1591 1.391 . S
C1591 H1579 0.950 . S
C1591 C1587 1.393 . S
C1591 C1590 1.391 . S
H1592 C1600 0.950 . S
H1593 C1605 0.950 . S
H1594 C1602 0.950 . S
H1595 C1604 0.960 . S
H1596 C1606 0.950 1_556 S
H1597 C1608 0.950 1_556 S
H1598 C1610 0.950 . S
H1599 C1611 0.950 1_545 S
C1600 H1592 0.950 . S
C1600 C1601 1.386 . S
C1600 C1602 1.391 . S
C1601 C1600 1.386 . S
C1601 C1605 1.393 1_554 S
C1602 H1594 0.950 . S
C1602 C1600 1.391 . S
C1602 C1603 1.400 . S
C1603 C1602 1.400 . S
C1603 C1604 1.387 1_554 S
C1603 C1609 1.491 . S
C1604 H1595 0.960 . S
C1604 C1603 1.387 1_556 S
C1604 C1605 1.393 . S
C1605 H1593 0.950 . S
C1605 C1601 1.393 1_556 S
C1605 C1604 1.393 . S
C1606 H1596 0.950 1_554 S
C1606 C1607 1.396 . S
C1606 C1608 1.391 . S
C1607 C1606 1.396 . S
C1607 C1611 1.397 . S
C1608 H1597 0.950 1_554 S
C1608 C1606 1.391 . S
C1608 C1609 1.400 . S
C1609 C1603 1.491 . S
C1609 C1608 1.400 . S
C1609 C1610 1.398 . S
C1610 H1598 0.950 . S
C1610 C1609 1.398 . S
C1610 C1611 1.391 . S
C1611 H1599 0.950 1_565 S
C1611 C1607 1.397 . S
C1611 C1610 1.391 . S
H1612 C1620 0.950 . S
H1613 C1625 0.950 . S
H1614 C1622 0.950 . S
H1615 C1624 0.950 . S
H1616 C1626 0.950 . S
H1617 C1628 0.950 . S
H1618 C1630 0.939 1_556 S
H1619 C1631 0.950 1_556 S
C1620 H1612 0.950 . S
C1620 C1621 1.386 1_556 S
C1620 C1622 1.391 . S
C1621 C1620 1.386 1_554 S
C1621 C1625 1.393 . S
C1622 H1614 0.950 . S
C1622 C1620 1.391 . S
C1622 C1623 1.400 1_556 S
C1623 C1622 1.400 1_554 S
C1623 C1624 1.398 . S
C1623 C1629 1.491 . S
C1624 H1615 0.950 . S
C1624 C1623 1.398 . S
C1624 C1625 1.391 . S
C1625 H1613 0.950 . S
C1625 C1621 1.393 . S
C1625 C1624 1.391 . S
C1626 H1616 0.950 . S
C1626 C1627 1.386 . S
C1626 C1628 1.391 . S
C1627 C1626 1.386 . S
C1627 C1631 1.393 . S
C1628 H1617 0.950 . S
C1628 C1626 1.391 . S
C1628 C1629 1.400 . S
C1629 C1623 1.491 . S
C1629 C1628 1.400 . S
C1629 C1630 1.408 . S
C1630 H1618 0.939 1_554 S
C1630 C1629 1.408 . S
C1630 C1631 1.393 . S
C1631 H1619 0.950 1_554 S
C1631 C1627 1.393 . S
C1631 C1630 1.393 . S
H1632 C1640 0.950 . S
H1633 C1645 0.950 . S
H1634 C1642 0.950 . S
H1635 C1644 0.950 . S
H1636 C1646 0.950 . S
H1637 C1648 0.950 . S
H1638 C1650 0.950 . S
H1639 C1651 0.950 . S
C1640 H1632 0.950 . S
C1640 C1641 1.386 . S
C1640 C1642 1.391 . S
C1641 C1640 1.386 . S
C1641 C1645 1.393 . S
C1642 H1634 0.950 . S
C1642 C1640 1.391 . S
C1642 C1643 1.400 . S
C1643 C1642 1.400 . S
C1643 C1644 1.398 . S
C1643 C1649 1.491 . S
C1644 H1635 0.950 . S
C1644 C1643 1.398 . S
C1644 C1645 1.391 . S
C1645 H1633 0.950 . S
C1645 C1641 1.393 . S
C1645 C1644 1.391 . S
C1646 H1636 0.950 . S
C1646 C1647 1.386 . S
C1646 C1648 1.391 . S
C1647 C1646 1.386 . S
C1647 C1651 1.393 . S
C1648 H1637 0.950 . S
C1648 C1646 1.391 . S
C1648 C1649 1.400 . S
C1649 C1643 1.491 . S
C1649 C1648 1.400 . S
C1649 C1650 1.398 . S
C1650 H1638 0.950 . S
C1650 C1649 1.398 . S
C1650 C1651 1.391 . S
C1651 H1639 0.950 . S
C1651 C1647 1.393 . S
C1651 C1650 1.391 . S
H1652 C1660 0.950 . S
H1653 C1665 0.950 . S
H1654 C1662 0.950 . S
H1655 C1664 0.950 . S
H1656 C1666 0.950 . S
H1657 C1668 0.950 . S
H1658 C1670 0.950 . S
H1659 C1671 0.950 . S
C1660 H1652 0.950 . S
C1660 C1661 1.386 . S
C1660 C1662 1.391 . S
C1661 C1660 1.386 . S
C1661 C1665 1.393 . S
C1662 H1654 0.950 . S
C1662 C1660 1.391 . S
C1662 C1663 1.400 . S
C1663 C1662 1.400 . S
C1663 C1664 1.398 . S
C1663 C1669 1.491 . S
C1664 H1655 0.950 . S
C1664 C1663 1.398 . S
C1664 C1665 1.391 . S
C1665 H1653 0.950 . S
C1665 C1661 1.393 . S
C1665 C1664 1.391 . S
C1666 H1656 0.950 . S
C1666 C1667 1.386 . S
C1666 C1668 1.391 . S
C1667 C1666 1.386 . S
C1667 C1671 1.393 . S
C1668 H1657 0.950 . S
C1668 C1666 1.391 . S
C1668 C1669 1.400 . S
C1669 C1663 1.491 . S
C1669 C1668 1.400 . S
C1669 C1670 1.398 . S
C1670 H1658 0.950 . S
C1670 C1669 1.398 . S
C1670 C1671 1.391 . S
C1671 H1659 0.950 . S
C1671 C1667 1.393 . S
C1671 C1670 1.391 . S
H1672 C1680 0.950 . S
H1673 C1685 0.950 1_545 S
H1674 C1682 0.950 . S
H1675 C1684 0.950 . S
H1676 C1686 0.950 . S
H1677 C1688 0.950 . S
H1678 C1690 0.950 . S
H1679 C1691 0.950 . S
C1680 H1672 0.950 . S
C1680 C1681 1.386 . S
C1680 C1682 1.391 . S
C1681 C1680 1.386 . S
C1681 C1685 1.393 . S
C1682 H1674 0.950 . S
C1682 C1680 1.391 . S
C1682 C1683 1.400 . S
C1683 C1682 1.400 . S
C1683 C1684 1.398 . S
C1683 C1689 1.491 . S
C1684 H1675 0.950 . S
C1684 C1683 1.398 . S
C1684 C1685 1.391 . S
C1685 H1673 0.950 1_565 S
C1685 C1681 1.393 . S
C1685 C1684 1.391 . S
C1686 H1676 0.950 . S
C1686 C1687 1.386 . S
C1686 C1688 1.391 . S
C1687 C1686 1.386 . S
C1687 C1691 1.393 . S
C1688 H1677 0.950 . S
C1688 C1686 1.391 . S
C1688 C1689 1.400 . S
C1689 C1683 1.491 . S
C1689 C1688 1.400 . S
C1689 C1690 1.398 . S
C1690 H1678 0.950 . S
C1690 C1689 1.398 . S
C1690 C1691 1.391 . S
C1691 H1679 0.950 . S
C1691 C1687 1.393 . S
C1691 C1690 1.391 . S
H1692 C1700 0.950 . S
H1693 C1705 0.950 . S
H1694 C1702 0.950 . S
H1695 C1704 0.950 . S
H1696 C1706 0.950 . S
H1697 C1708 0.950 . S
H1698 C1710 0.950 . S
H1699 C1711 0.950 . S
C1700 H1692 0.950 . S
C1700 C1701 1.386 . S
C1700 C1702 1.391 . S
C1701 C1700 1.386 . S
C1701 C1705 1.393 . S
C1702 H1694 0.950 . S
C1702 C1700 1.391 . S
C1702 C1703 1.400 . S
C1703 C1702 1.400 . S
C1703 C1704 1.398 . S
C1703 C1709 1.491 . S
C1704 H1695 0.950 . S
C1704 C1703 1.398 . S
C1704 C1705 1.391 . S
C1705 H1693 0.950 . S
C1705 C1701 1.393 . S
C1705 C1704 1.391 . S
C1706 H1696 0.950 . S
C1706 C1707 1.386 . S
C1706 C1708 1.391 . S
C1707 C1706 1.386 . S
C1707 C1711 1.393 . S
C1708 H1697 0.950 . S
C1708 C1706 1.391 . S
C1708 C1709 1.400 . S
C1709 C1703 1.491 . S
C1709 C1708 1.400 . S
C1709 C1710 1.398 . S
C1710 H1698 0.950 . S
C1710 C1709 1.398 . S
C1710 C1711 1.391 . S
C1711 H1699 0.950 . S
C1711 C1707 1.393 . S
C1711 C1710 1.391 . S
H1712 C1720 0.950 . S
H1713 C1725 0.950 . S
H1714 C1722 0.950 . S
H1715 C1724 0.950 . S
H1716 C1726 0.950 . S
H1717 C1728 0.950 . S
H1718 C1730 0.950 . S
H1719 C1731 0.950 . S
C1720 H1712 0.950 . S
C1720 C1721 1.386 . S
C1720 C1722 1.391 . S
C1721 C1720 1.386 . S
C1721 C1725 1.393 . S
C1722 H1714 0.950 . S
C1722 C1720 1.391 . S
C1722 C1723 1.400 . S
C1723 C1722 1.400 . S
C1723 C1724 1.398 . S
C1723 C1729 1.491 . S
C1724 H1715 0.950 . S
C1724 C1723 1.398 . S
C1724 C1725 1.391 . S
C1725 H1713 0.950 . S
C1725 C1721 1.393 . S
C1725 C1724 1.391 . S
C1726 H1716 0.950 . S
C1726 C1727 1.386 . S
C1726 C1728 1.391 . S
C1727 C1726 1.386 . S
C1727 C1731 1.393 . S
C1728 H1717 0.950 . S
C1728 C1726 1.391 . S
C1728 C1729 1.400 . S
C1729 C1723 1.491 . S
C1729 C1728 1.400 . S
C1729 C1730 1.398 . S
C1730 H1718 0.950 . S
C1730 C1729 1.398 . S
C1730 C1731 1.391 . S
C1731 H1719 0.950 . S
C1731 C1727 1.393 . S
C1731 C1730 1.391 . S
H1732 C1740 0.950 . S
H1733 C1745 0.950 . S
H1734 C1742 0.950 . S
H1735 C1744 0.950 . S
H1736 C1746 0.950 . S
H1737 C1748 0.950 . S
H1738 C1750 0.950 . S
H1739 C1751 0.950 . S
C1740 H1732 0.950 . S
C1740 C1741 1.386 . S
C1740 C1742 1.391 . S
C1741 C1740 1.386 . S
C1741 C1745 1.393 . S
C1742 H1734 0.950 . S
C1742 C1740 1.391 . S
C1742 C1743 1.400 . S
C1743 C1742 1.400 . S
C1743 C1744 1.398 . S
C1743 C1749 1.491 . S
C1744 H1735 0.950 . S
C1744 C1743 1.398 . S
C1744 C1745 1.391 . S
C1745 H1733 0.950 . S
C1745 C1741 1.393 . S
C1745 C1744 1.391 . S
C1746 H1736 0.950 . S
C1746 C1747 1.386 . S
C1746 C1748 1.391 . S
C1747 C1746 1.386 . S
C1747 C1751 1.393 . S
C1748 H1737 0.950 . S
C1748 C1746 1.391 . S
C1748 C1749 1.400 . S
C1749 C1743 1.491 . S
C1749 C1748 1.400 . S
C1749 C1750 1.398 . S
C1750 H1738 0.950 . S
C1750 C1749 1.398 . S
C1750 C1751 1.391 . S
C1751 H1739 0.950 . S
C1751 C1747 1.393 . S
C1751 C1750 1.391 . S
H1752 C1760 0.950 . S
H1753 C1765 0.950 . S
H1754 C1762 0.950 . S
H1755 C1764 0.950 . S
H1756 C1766 0.950 . S
H1757 C1768 0.950 . S
H1758 C1770 0.950 . S
H1759 C1771 0.950 . S
C1760 H1752 0.950 . S
C1760 C1761 1.386 . S
C1760 C1762 1.391 . S
C1761 C1760 1.386 . S
C1761 C1765 1.393 . S
C1762 H1754 0.950 . S
C1762 C1760 1.391 . S
C1762 C1763 1.400 . S
C1763 C1762 1.400 . S
C1763 C1764 1.398 . S
C1763 C1769 1.491 . S
C1764 H1755 0.950 . S
C1764 C1763 1.398 . S
C1764 C1765 1.391 . S
C1765 H1753 0.950 . S
C1765 C1761 1.393 . S
C1765 C1764 1.391 . S
C1766 H1756 0.950 . S
C1766 C1767 1.386 . S
C1766 C1768 1.391 . S
C1767 C1766 1.386 . S
C1767 C1771 1.393 . S
C1768 H1757 0.950 . S
C1768 C1766 1.391 . S
C1768 C1769 1.400 . S
C1769 C1763 1.491 . S
C1769 C1768 1.400 . S
C1769 C1770 1.398 . S
C1770 H1758 0.950 . S
C1770 C1769 1.398 . S
C1770 C1771 1.391 . S
C1771 H1759 0.950 . S
C1771 C1767 1.393 . S
C1771 C1770 1.391 . S
H1772 C1780 0.950 . S
H1773 C1785 0.950 . S
H1774 C1782 0.950 . S
H1775 C1784 0.950 . S
H1776 C1786 0.950 . S
H1777 C1788 0.950 . S
H1778 C1790 0.950 . S
H1779 C1791 0.950 . S
C1780 H1772 0.950 . S
C1780 C1781 1.386 . S
C1780 C1782 1.391 . S
C1781 C1780 1.386 . S
C1781 C1785 1.393 . S
C1782 H1774 0.950 . S
C1782 C1780 1.391 . S
C1782 C1783 1.400 . S
C1783 C1782 1.400 . S
C1783 C1784 1.398 . S
C1783 C1789 1.491 . S
C1784 H1775 0.950 . S
C1784 C1783 1.398 . S
C1784 C1785 1.391 . S
C1785 H1773 0.950 . S
C1785 C1781 1.393 . S
C1785 C1784 1.391 . S
C1786 H1776 0.950 . S
C1786 C1787 1.386 . S
C1786 C1788 1.391 . S
C1787 C1786 1.386 . S
C1787 C1791 1.393 . S
C1788 H1777 0.950 . S
C1788 C1786 1.391 . S
C1788 C1789 1.400 . S
C1789 C1783 1.491 . S
C1789 C1788 1.400 . S
C1789 C1790 1.398 . S
C1790 H1778 0.950 . S
C1790 C1789 1.398 . S
C1790 C1791 1.391 . S
C1791 H1779 0.950 . S
C1791 C1787 1.393 . S
C1791 C1790 1.391 . S
H1792 C1800 0.950 . S
H1793 C1805 0.950 . S
H1794 C1802 0.950 . S
H1795 C1804 0.950 . S
H1796 C1806 0.950 . S
H1797 C1808 0.950 . S
H1798 C1810 0.950 . S
H1799 C1811 0.950 . S
C1800 H1792 0.950 . S
C1800 C1801 1.386 . S
C1800 C1802 1.391 . S
C1801 C1800 1.386 . S
C1801 C1805 1.393 . S
C1802 H1794 0.950 . S
C1802 C1800 1.391 . S
C1802 C1803 1.400 . S
C1803 C1802 1.400 . S
C1803 C1804 1.398 . S
C1803 C1809 1.491 . S
C1804 H1795 0.950 . S
C1804 C1803 1.398 . S
C1804 C1805 1.391 . S
C1805 H1793 0.950 . S
C1805 C1801 1.393 . S
C1805 C1804 1.391 . S
C1806 H1796 0.950 . S
C1806 C1807 1.386 . S
C1806 C1808 1.391 . S
C1807 C1806 1.386 . S
C1807 C1811 1.393 . S
C1808 H1797 0.950 . S
C1808 C1806 1.391 . S
C1808 C1809 1.400 . S
C1809 C1803 1.491 . S
C1809 C1808 1.400 . S
C1809 C1810 1.398 . S
C1810 H1798 0.950 . S
C1810 C1809 1.398 . S
C1810 C1811 1.391 . S
C1811 H1799 0.950 . S
C1811 C1807 1.393 . S
C1811 C1810 1.391 . S
H1812 C1820 0.950 . S
H1813 C1825 0.981 . S
H1814 C1822 0.950 . S
H1815 C1824 0.950 . S
H1816 C1826 0.950 . S
H1817 C1828 0.950 . S
H1818 C1830 0.950 . S
H1819 C1831 0.950 . S
C1820 H1812 0.950 . S
C1820 C1821 1.386 . S
C1820 C1822 1.391 . S
C1821 C1820 1.386 . S
C1821 C1825 1.393 . S
C1822 H1814 0.950 . S
C1822 C1820 1.391 . S
C1822 C1823 1.400 . S
C1823 C1822 1.400 . S
C1823 C1824 1.398 . S
C1823 C1829 1.491 . S
C1824 H1815 0.950 . S
C1824 C1823 1.398 . S
C1824 C1825 1.391 . S
C1825 H1813 0.981 . S
C1825 C1821 1.393 . S
C1825 C1824 1.391 . S
C1826 H1816 0.950 . S
C1826 C1827 1.386 . S
C1826 C1828 1.391 . S
C1827 C1826 1.386 . S
C1827 C1831 1.393 . S
C1828 H1817 0.950 . S
C1828 C1826 1.391 . S
C1828 C1829 1.400 . S
C1829 C1823 1.491 . S
C1829 C1828 1.400 . S
C1829 C1830 1.398 . S
C1830 H1818 0.950 . S
C1830 C1829 1.398 . S
C1830 C1831 1.391 . S
C1831 H1819 0.950 . S
C1831 C1827 1.393 . S
C1831 C1830 1.391 . S
H1832 C1840 0.950 . S
H1833 C1845 0.950 . S
H1834 C1842 0.950 . S
H1835 C1844 0.950 . S
H1836 C1846 0.950 . S
H1837 C1848 0.950 . S
H1838 C1850 0.942 1_554 S
H1839 C1851 0.950 . S
C1840 H1832 0.950 . S
C1840 C1841 1.386 . S
C1840 C1842 1.391 . S
C1841 C1840 1.386 . S
C1841 C1845 1.393 . S
C1842 H1834 0.950 . S
C1842 C1840 1.391 . S
C1842 C1843 1.400 . S
C1843 C1842 1.400 . S
C1843 C1844 1.398 . S
C1843 C1849 1.491 . S
C1844 H1835 0.950 . S
C1844 C1843 1.398 . S
C1844 C1845 1.391 . S
C1845 H1833 0.950 . S
C1845 C1841 1.393 . S
C1845 C1844 1.391 . S
C1846 H1836 0.950 . S
C1846 C1847 1.386 . S
C1846 C1848 1.391 . S
C1847 C1846 1.386 . S
C1847 C1851 1.393 1_556 S
C1848 H1837 0.950 . S
C1848 C1846 1.391 . S
C1848 C1849 1.400 . S
C1849 C1843 1.491 . S
C1849 C1848 1.400 . S
C1849 C1850 1.398 . S
C1850 H1838 0.942 1_556 S
C1850 C1849 1.398 . S
C1850 C1851 1.391 1_556 S
C1851 H1839 0.950 . S
C1851 C1847 1.393 1_554 S
C1851 C1850 1.391 1_554 S
H1852 C1860 0.950 . S
H1853 C1865 0.950 . S
H1854 C1862 0.950 . S
H1855 C1864 0.950 . S
H1856 C1866 0.950 . S
H1857 C1868 0.950 . S
H1858 C1870 0.950 . S
H1859 C1871 0.950 . S
C1860 H1852 0.950 . S
C1860 C1861 1.386 . S
C1860 C1862 1.391 . S
C1861 C1860 1.386 . S
C1861 C1865 1.393 . S
C1862 H1854 0.950 . S
C1862 C1860 1.391 . S
C1862 C1863 1.400 . S
C1863 C1862 1.400 . S
C1863 C1864 1.398 . S
C1863 C1869 1.491 . S
C1864 H1855 0.950 . S
C1864 C1863 1.398 . S
C1864 C1865 1.391 . S
C1865 H1853 0.950 . S
C1865 C1861 1.393 . S
C1865 C1864 1.391 . S
C1866 H1856 0.950 . S
C1866 C1867 1.386 . S
C1866 C1868 1.391 . S
C1867 C1866 1.386 . S
C1867 C1871 1.393 . S
C1868 H1857 0.950 . S
C1868 C1866 1.391 . S
C1868 C1869 1.400 . S
C1869 C1863 1.491 . S
C1869 C1868 1.400 . S
C1869 C1870 1.398 . S
C1870 H1858 0.950 . S
C1870 C1869 1.398 . S
C1870 C1871 1.391 . S
C1871 H1859 0.950 . S
C1871 C1867 1.393 . S
C1871 C1870 1.391 . S
H1872 C1880 0.950 . S
H1873 C1885 0.950 . S
H1874 C1882 0.950 . S
H1875 C1884 0.950 . S
H1876 C1886 0.950 . S
H1877 C1888 0.950 . S
H1878 C1890 0.950 . S
H1879 C1891 0.950 . S
C1880 H1872 0.950 . S
C1880 C1881 1.386 . S
C1880 C1882 1.391 . S
C1881 C1880 1.386 . S
C1881 C1885 1.393 . S
C1882 H1874 0.950 . S
C1882 C1880 1.391 . S
C1882 C1883 1.400 . S
C1883 C1882 1.400 . S
C1883 C1884 1.398 . S
C1883 C1889 1.491 . S
C1884 H1875 0.950 . S
C1884 C1883 1.398 . S
C1884 C1885 1.391 . S
C1885 H1873 0.950 . S
C1885 C1881 1.393 . S
C1885 C1884 1.391 . S
C1886 H1876 0.950 . S
C1886 C1887 1.386 . S
C1886 C1888 1.391 . S
C1887 C1886 1.386 . S
C1887 C1891 1.393 . S
C1888 H1877 0.950 . S
C1888 C1886 1.391 . S
C1888 C1889 1.400 . S
C1889 C1883 1.491 . S
C1889 C1888 1.400 . S
C1889 C1890 1.398 . S
C1890 H1878 0.950 . S
C1890 C1889 1.398 . S
C1890 C1891 1.391 . S
C1891 H1879 0.950 . S
C1891 C1887 1.393 . S
C1891 C1890 1.391 . S
H1892 C1900 0.950 . S
H1893 C1905 0.950 . S
H1894 C1902 0.950 . S
H1895 C1904 0.950 . S
H1896 C1906 0.950 . S
H1897 C1908 0.950 . S
H1898 C1910 0.950 . S
H1899 C1911 0.950 . S
C1900 H1892 0.950 . S
C1900 C1901 1.386 . S
C1900 C1902 1.391 . S
C1901 C1900 1.386 . S
C1901 C1905 1.393 . S
C1902 H1894 0.950 . S
C1902 C1900 1.391 . S
C1902 C1903 1.400 . S
C1903 C1902 1.400 . S
C1903 C1904 1.398 . S
C1903 C1909 1.491 . S
C1904 H1895 0.950 . S
C1904 C1903 1.398 . S
C1904 C1905 1.391 . S
C1905 H1893 0.950 . S
C1905 C1901 1.393 . S
C1905 C1904 1.391 . S
C1906 H1896 0.950 . S
C1906 C1907 1.386 . S
C1906 C1908 1.391 . S
C1907 C1906 1.386 . S
C1907 C1911 1.393 . S
C1908 H1897 0.950 . S
C1908 C1906 1.391 . S
C1908 C1909 1.400 . S
C1909 C1903 1.491 . S
C1909 C1908 1.400 . S
C1909 C1910 1.398 . S
C1910 H1898 0.950 . S
C1910 C1909 1.398 . S
C1910 C1911 1.391 . S
C1911 H1899 0.950 . S
C1911 C1907 1.393 . S
C1911 C1910 1.391 . S
H1912 C1920 0.950 . S
H1913 C1925 0.950 . S
H1914 C1922 0.950 . S
H1915 C1924 0.950 . S
H1916 C1926 0.950 . S
H1917 C1928 0.950 . S
H1918 C1930 0.950 . S
H1919 C1931 0.950 . S
C1920 H1912 0.950 . S
C1920 C1921 1.386 . S
C1920 C1922 1.391 . S
C1921 C1920 1.386 . S
C1921 C1925 1.393 . S
C1922 H1914 0.950 . S
C1922 C1920 1.391 . S
C1922 C1923 1.400 . S
C1923 C1922 1.400 . S
C1923 C1924 1.398 . S
C1923 C1929 1.491 . S
C1924 H1915 0.950 . S
C1924 C1923 1.398 . S
C1924 C1925 1.391 . S
C1925 H1913 0.950 . S
C1925 C1921 1.393 . S
C1925 C1924 1.391 . S
C1926 H1916 0.950 . S
C1926 C1927 1.386 . S
C1926 C1928 1.391 . S
C1927 C1926 1.386 . S
C1927 C1931 1.393 . S
C1928 H1917 0.950 . S
C1928 C1926 1.391 . S
C1928 C1929 1.400 . S
C1929 C1923 1.491 . S
C1929 C1928 1.400 . S
C1929 C1930 1.398 . S
C1930 H1918 0.950 . S
C1930 C1929 1.398 . S
C1930 C1931 1.391 . S
C1931 H1919 0.950 . S
C1931 C1927 1.393 . S
C1931 C1930 1.391 . S
H1932 C1940 0.950 . S
H1933 C1945 0.950 1_554 S
H1934 C1942 0.950 . S
H1935 C1944 0.950 . S
H1936 C1946 0.950 . S
H1937 C1948 0.950 . S
H1938 C1950 0.950 . S
H1939 C1951 0.950 . S
C1940 H1932 0.950 . S
C1940 C1941 1.386 . S
C1940 C1942 1.391 . S
C1941 C1940 1.386 . S
C1941 C1945 1.393 . S
C1942 H1934 0.950 . S
C1942 C1940 1.391 . S
C1942 C1943 1.400 . S
C1943 C1942 1.400 . S
C1943 C1944 1.398 . S
C1943 C1949 1.491 . S
C1944 H1935 0.950 . S
C1944 C1943 1.398 . S
C1944 C1945 1.391 . S
C1945 H1933 0.950 1_556 S
C1945 C1941 1.393 . S
C1945 C1944 1.391 . S
C1946 H1936 0.950 . S
C1946 C1947 1.386 . S
C1946 C1948 1.391 . S
C1947 C1946 1.386 . S
C1947 C1951 1.393 . S
C1948 H1937 0.950 . S
C1948 C1946 1.391 . S
C1948 C1949 1.400 . S
C1949 C1943 1.491 . S
C1949 C1948 1.400 . S
C1949 C1950 1.398 . S
C1950 H1938 0.950 . S
C1950 C1949 1.398 . S
C1950 C1951 1.391 . S
C1951 H1939 0.950 . S
C1951 C1947 1.393 . S
C1951 C1950 1.391 . S
H1952 C1960 0.950 . S
H1953 C1965 0.950 . S
H1954 C1962 0.950 . S
H1955 C1964 0.950 . S
H1956 C1966 0.950 . S
H1957 C1968 0.950 1_455 S
H1958 C1970 0.950 . S
H1959 C1971 0.950 . S
C1960 H1952 0.950 . S
C1960 C1961 1.386 . S
C1960 C1962 1.391 . S
C1961 C1960 1.386 . S
C1961 C1965 1.393 . S
C1962 H1954 0.950 . S
C1962 C1960 1.391 . S
C1962 C1963 1.400 . S
C1963 C1962 1.400 . S
C1963 C1964 1.398 . S
C1963 C1969 1.491 . S
C1964 H1955 0.950 . S
C1964 C1963 1.398 . S
C1964 C1965 1.391 . S
C1965 H1953 0.950 . S
C1965 C1961 1.393 . S
C1965 C1964 1.391 . S
C1966 H1956 0.950 . S
C1966 C1967 1.386 1_455 S
C1966 C1968 1.391 1_455 S
C1967 C1966 1.386 1_655 S
C1967 C1971 1.393 . S
C1968 H1957 0.950 1_655 S
C1968 C1966 1.391 1_655 S
C1968 C1969 1.400 . S
C1969 C1963 1.491 . S
C1969 C1968 1.400 . S
C1969 C1970 1.398 . S
C1970 H1958 0.950 . S
C1970 C1969 1.398 . S
C1970 C1971 1.391 . S
C1971 H1959 0.950 . S
C1971 C1967 1.393 . S
C1971 C1970 1.391 . S
H1972 C1980 0.950 . S
H1973 C1985 0.950 . S
H1974 C1982 0.950 . S
H1975 C1984 0.950 . S
H1976 C1986 0.950 . S
H1977 C1988 0.950 . S
H1978 C1990 0.950 . S
H1979 C1991 0.950 . S
C1980 H1972 0.950 . S
C1980 C1981 1.386 . S
C1980 C1982 1.391 . S
C1981 C1980 1.386 . S
C1981 C1985 1.393 . S
C1982 H1974 0.950 . S
C1982 C1980 1.391 . S
C1982 C1983 1.400 . S
C1983 C1982 1.400 . S
C1983 C1984 1.398 . S
C1983 C1989 1.491 . S
C1984 H1975 0.950 . S
C1984 C1983 1.398 . S
C1984 C1985 1.391 . S
C1985 H1973 0.950 . S
C1985 C1981 1.393 . S
C1985 C1984 1.391 . S
C1986 H1976 0.950 . S
C1986 C1987 1.386 . S
C1986 C1988 1.391 . S
C1987 C1986 1.386 . S
C1987 C1991 1.393 . S
C1988 H1977 0.950 . S
C1988 C1986 1.391 . S
C1988 C1989 1.400 . S
C1989 C1983 1.491 . S
C1989 C1988 1.400 . S
C1989 C1990 1.398 . S
C1990 H1978 0.950 . S
C1990 C1989 1.398 . S
C1990 C1991 1.391 . S
C1991 H1979 0.950 . S
C1991 C1987 1.393 . S
C1991 C1990 1.391 . S
H1992 C2000 0.950 . S
H1993 C2005 0.950 . S
H1994 C2002 0.950 . S
H1995 C2004 0.950 . S
H1996 C2006 0.950 . S
H1997 C2008 0.950 . S
H1998 C2010 0.950 . S
H1999 C2011 0.950 . S
C2000 H1992 0.950 . S
C2000 C2001 1.386 . S
C2000 C2002 1.391 . S
C2001 C2000 1.386 . S
C2001 C2005 1.393 . S
C2002 H1994 0.950 . S
C2002 C2000 1.391 . S
C2002 C2003 1.400 . S
C2003 C2002 1.400 . S
C2003 C2004 1.398 . S
C2003 C2009 1.491 . S
C2004 H1995 0.950 . S
C2004 C2003 1.398 . S
C2004 C2005 1.391 . S
C2005 H1993 0.950 . S
C2005 C2001 1.393 . S
C2005 C2004 1.391 . S
C2006 H1996 0.950 . S
C2006 C2007 1.386 . S
C2006 C2008 1.391 . S
C2007 C2006 1.386 . S
C2007 C2011 1.393 . S
C2008 H1997 0.950 . S
C2008 C2006 1.391 . S
C2008 C2009 1.400 . S
C2009 C2003 1.491 . S
C2009 C2008 1.400 . S
C2009 C2010 1.398 . S
C2010 H1998 0.950 . S
C2010 C2009 1.398 . S
C2010 C2011 1.391 . S
C2011 H1999 0.950 . S
C2011 C2007 1.393 . S
C2011 C2010 1.391 . S
H2012 C2020 0.950 . S
H2013 C2025 0.950 . S
H2014 C2022 0.950 . S
H2015 C2024 0.950 . S
H2016 C2026 0.950 . S
H2017 C2028 0.950 . S
H2018 C2030 0.950 . S
H2019 C2031 0.950 . S
C2020 H2012 0.950 . S
C2020 C2021 1.386 . S
C2020 C2022 1.391 . S
C2021 C2020 1.386 . S
C2021 C2025 1.393 . S
C2022 H2014 0.950 . S
C2022 C2020 1.391 . S
C2022 C2023 1.400 . S
C2023 C2022 1.400 . S
C2023 C2024 1.398 . S
C2023 C2029 1.491 . S
C2024 H2015 0.950 . S
C2024 C2023 1.398 . S
C2024 C2025 1.391 . S
C2025 H2013 0.950 . S
C2025 C2021 1.393 . S
C2025 C2024 1.391 . S
C2026 H2016 0.950 . S
C2026 C2027 1.386 . S
C2026 C2028 1.391 . S
C2027 C2026 1.386 . S
C2027 C2031 1.393 . S
C2028 H2017 0.950 . S
C2028 C2026 1.391 . S
C2028 C2029 1.400 . S
C2029 C2023 1.491 . S
C2029 C2028 1.400 . S
C2029 C2030 1.398 . S
C2030 H2018 0.950 . S
C2030 C2029 1.398 . S
C2030 C2031 1.391 . S
C2031 H2019 0.950 . S
C2031 C2027 1.393 . S
C2031 C2030 1.391 . S
H2032 C2040 0.950 . S
H2033 C2045 0.950 . S
H2034 C2042 0.950 . S
H2035 C2044 0.950 . S
H2036 C2046 0.950 . S
H2037 C2048 0.950 . S
H2038 C2050 0.950 . S
H2039 C2051 0.950 1_455 S
C2040 H2032 0.950 . S
C2040 C2041 1.386 . S
C2040 C2042 1.391 . S
C2041 C2040 1.386 . S
C2041 C2045 1.393 . S
C2042 H2034 0.950 . S
C2042 C2040 1.391 . S
C2042 C2043 1.400 . S
C2043 C2042 1.400 . S
C2043 C2044 1.398 . S
C2043 C2049 1.491 . S
C2044 H2035 0.950 . S
C2044 C2043 1.398 . S
C2044 C2045 1.391 . S
C2045 H2033 0.950 . S
C2045 C2041 1.393 . S
C2045 C2044 1.391 . S
C2046 H2036 0.950 . S
C2046 C2047 1.386 . S
C2046 C2048 1.391 . S
C2047 C2046 1.386 . S
C2047 C2051 1.393 . S
C2048 H2037 0.950 . S
C2048 C2046 1.391 . S
C2048 C2049 1.400 . S
C2049 C2043 1.491 . S
C2049 C2048 1.400 . S
C2049 C2050 1.398 . S
C2050 H2038 0.950 . S
C2050 C2049 1.398 . S
C2050 C2051 1.391 . S
C2051 H2039 0.950 1_655 S
C2051 C2047 1.393 . S
C2051 C2050 1.391 . S
H2052 C2060 0.950 . S
H2053 C2065 0.950 . S
H2054 C2062 0.950 . S
H2055 C2064 0.950 . S
H2056 C2066 0.950 . S
H2057 C2068 0.950 . S
H2058 C2070 0.950 . S
H2059 C2071 0.950 . S
C2060 H2052 0.950 . S
C2060 C2061 1.386 . S
C2060 C2062 1.391 . S
C2061 C2060 1.386 . S
C2061 C2065 1.393 . S
C2062 H2054 0.950 . S
C2062 C2060 1.391 . S
C2062 C2063 1.400 . S
C2063 C2062 1.400 . S
C2063 C2064 1.398 . S
C2063 C2069 1.491 . S
C2064 H2055 0.950 . S
C2064 C2063 1.398 . S
C2064 C2065 1.391 . S
C2065 H2053 0.950 . S
C2065 C2061 1.393 . S
C2065 C2064 1.391 . S
C2066 H2056 0.950 . S
C2066 C2067 1.386 . S
C2066 C2068 1.391 . S
C2067 C2066 1.386 . S
C2067 C2071 1.393 . S
C2068 H2057 0.950 . S
C2068 C2066 1.391 . S
C2068 C2069 1.400 . S
C2069 C2063 1.491 . S
C2069 C2068 1.400 . S
C2069 C2070 1.398 . S
C2070 H2058 0.950 . S
C2070 C2069 1.398 . S
C2070 C2071 1.391 . S
C2071 H2059 0.950 . S
C2071 C2067 1.393 . S
C2071 C2070 1.391 . S
H2072 C2080 0.950 . S
H2073 C2085 0.950 . S
H2074 C2082 0.950 . S
H2075 C2084 0.950 . S
H2076 C2086 0.950 . S
H2077 C2088 0.950 . S
H2078 C2090 0.950 . S
H2079 C2091 0.950 . S
C2080 H2072 0.950 . S
C2080 C2081 1.386 . S
C2080 C2082 1.391 . S
C2081 C2080 1.386 . S
C2081 C2085 1.393 . S
C2082 H2074 0.950 . S
C2082 C2080 1.391 . S
C2082 C2083 1.400 . S
C2083 C2082 1.400 . S
C2083 C2084 1.398 . S
C2083 C2089 1.491 . S
C2084 H2075 0.950 . S
C2084 C2083 1.398 . S
C2084 C2085 1.391 . S
C2085 H2073 0.950 . S
C2085 C2081 1.393 . S
C2085 C2084 1.391 . S
C2086 H2076 0.950 . S
C2086 C2087 1.386 . S
C2086 C2088 1.391 . S
C2087 C2086 1.386 . S
C2087 C2091 1.393 . S
C2088 H2077 0.950 . S
C2088 C2086 1.391 . S
C2088 C2089 1.400 . S
C2089 C2083 1.491 . S
C2089 C2088 1.400 . S
C2089 C2090 1.398 . S
C2090 H2078 0.950 . S
C2090 C2089 1.398 . S
C2090 C2091 1.391 . S
C2091 H2079 0.950 . S
C2091 C2087 1.393 . S
C2091 C2090 1.391 . S
H2092 C2100 0.950 . S
H2093 C2105 0.950 . S
H2094 C2102 0.950 . S
H2095 C2104 0.950 . S
H2096 C2106 0.950 . S
H2097 C2108 0.950 . S
H2098 C2110 0.950 . S
H2099 C2111 0.950 . S
C2100 H2092 0.950 . S
C2100 C2101 1.386 . S
C2100 C2102 1.391 . S
C2101 C2100 1.386 . S
C2101 C2105 1.393 . S
C2102 H2094 0.950 . S
C2102 C2100 1.391 . S
C2102 C2103 1.400 . S
C2103 C2102 1.400 . S
C2103 C2104 1.398 . S
C2103 C2109 1.491 . S
C2104 H2095 0.950 . S
C2104 C2103 1.398 . S
C2104 C2105 1.391 . S
C2105 H2093 0.950 . S
C2105 C2101 1.393 . S
C2105 C2104 1.391 . S
C2106 H2096 0.950 . S
C2106 C2107 1.386 1_565 S
C2106 C2108 1.391 . S
C2107 C2106 1.386 1_545 S
C2107 C2111 1.393 . S
C2108 H2097 0.950 . S
C2108 C2106 1.391 . S
C2108 C2109 1.400 . S
C2109 C2103 1.491 . S
C2109 C2108 1.400 . S
C2109 C2110 1.398 . S
C2110 H2098 0.950 . S
C2110 C2109 1.398 . S
C2110 C2111 1.391 1_565 S
C2111 H2099 0.950 . S
C2111 C2107 1.393 . S
C2111 C2110 1.391 1_545 S
H2112 C2120 0.950 1_545 S
H2113 C2125 0.950 . S
H2114 C2122 0.950 . S
H2115 C2124 0.950 . S
H2116 C2126 0.950 . S
H2117 C2128 0.950 . S
H2118 C2130 0.950 . S
H2119 C2131 0.950 . S
C2120 H2112 0.950 1_565 S
C2120 C2121 1.386 . S
C2120 C2122 1.391 . S
C2121 C2120 1.386 . S
C2121 C2125 1.393 . S
C2122 H2114 0.950 . S
C2122 C2120 1.391 . S
C2122 C2123 1.400 . S
C2123 C2122 1.400 . S
C2123 C2124 1.398 . S
C2123 C2129 1.491 . S
C2124 H2115 0.950 . S
C2124 C2123 1.398 . S
C2124 C2125 1.391 . S
C2125 H2113 0.950 . S
C2125 C2121 1.393 . S
C2125 C2124 1.391 . S
C2126 H2116 0.950 . S
C2126 C2127 1.386 . S
C2126 C2128 1.391 . S
C2127 C2126 1.386 . S
C2127 C2131 1.393 . S
C2128 H2117 0.950 . S
C2128 C2126 1.391 . S
C2128 C2129 1.400 . S
C2129 C2123 1.491 . S
C2129 C2128 1.400 . S
C2129 C2130 1.398 . S
C2130 H2118 0.950 . S
C2130 C2129 1.398 . S
C2130 C2131 1.391 . S
C2131 H2119 0.950 . S
C2131 C2127 1.393 . S
C2131 C2130 1.391 . S
H2132 C2140 0.950 . S
H2133 C2145 0.950 . S
H2134 C2142 0.950 . S
H2135 C2144 0.950 . S
H2136 C2146 0.950 . S
H2137 C2148 0.950 . S
H2138 C2150 0.950 . S
H2139 C2151 0.950 . S
C2140 H2132 0.950 . S
C2140 C2141 1.386 . S
C2140 C2142 1.391 . S
C2141 C2140 1.386 . S
C2141 C2145 1.393 . S
C2142 H2134 0.950 . S
C2142 C2140 1.391 . S
C2142 C2143 1.400 . S
C2143 C2142 1.400 . S
C2143 C2144 1.398 . S
C2143 C2149 1.491 . S
C2144 H2135 0.950 . S
C2144 C2143 1.398 . S
C2144 C2145 1.391 . S
C2145 H2133 0.950 . S
C2145 C2141 1.393 . S
C2145 C2144 1.391 . S
C2146 H2136 0.950 . S
C2146 C2147 1.386 . S
C2146 C2148 1.391 . S
C2147 C2146 1.386 . S
C2147 C2151 1.393 . S
C2148 H2137 0.950 . S
C2148 C2146 1.391 . S
C2148 C2149 1.400 . S
C2149 C2143 1.491 . S
C2149 C2148 1.400 . S
C2149 C2150 1.398 . S
C2150 H2138 0.950 . S
C2150 C2149 1.398 . S
C2150 C2151 1.391 . S
C2151 H2139 0.950 . S
C2151 C2147 1.393 . S
C2151 C2150 1.391 . S
H2152 C2160 0.950 . S
H2153 C2165 0.950 . S
H2154 C2162 0.950 . S
H2155 C2164 0.950 . S
H2156 C2166 0.950 . S
H2157 C2168 0.950 . S
H2158 C2170 0.950 . S
H2159 C2171 0.950 . S
C2160 H2152 0.950 . S
C2160 C2161 1.386 . S
C2160 C2162 1.391 . S
C2161 C2160 1.386 . S
C2161 C2165 1.393 . S
C2162 H2154 0.950 . S
C2162 C2160 1.391 . S
C2162 C2163 1.400 . S
C2163 C2162 1.400 . S
C2163 C2164 1.398 . S
C2163 C2169 1.491 . S
C2164 H2155 0.950 . S
C2164 C2163 1.398 . S
C2164 C2165 1.391 . S
C2165 H2153 0.950 . S
C2165 C2161 1.393 . S
C2165 C2164 1.391 . S
C2166 H2156 0.950 . S
C2166 C2167 1.386 . S
C2166 C2168 1.391 . S
C2167 C2166 1.386 . S
C2167 C2171 1.393 . S
C2168 H2157 0.950 . S
C2168 C2166 1.391 . S
C2168 C2169 1.400 . S
C2169 C2163 1.491 . S
C2169 C2168 1.400 . S
C2169 C2170 1.398 . S
C2170 H2158 0.950 . S
C2170 C2169 1.398 . S
C2170 C2171 1.391 . S
C2171 H2159 0.950 . S
C2171 C2167 1.393 . S
C2171 C2170 1.391 . S
H2172 C2180 0.950 . S
H2173 C2185 0.950 . S
H2174 C2182 0.950 . S
H2175 C2184 0.950 . S
H2176 C2186 0.950 . S
H2177 C2188 0.950 . S
H2178 C2190 0.950 1_556 S
H2179 C2191 0.950 . S
C2180 H2172 0.950 . S
C2180 C2181 1.386 . S
C2180 C2182 1.391 . S
C2181 C2180 1.386 . S
C2181 C2185 1.393 . S
C2182 H2174 0.950 . S
C2182 C2180 1.391 . S
C2182 C2183 1.400 . S
C2183 C2182 1.400 . S
C2183 C2184 1.398 . S
C2183 C2189 1.491 . S
C2184 H2175 0.950 . S
C2184 C2183 1.398 . S
C2184 C2185 1.391 . S
C2185 H2173 0.950 . S
C2185 C2181 1.393 . S
C2185 C2184 1.391 . S
C2186 H2176 0.950 . S
C2186 C2187 1.386 . S
C2186 C2188 1.391 . S
C2187 C2186 1.386 . S
C2187 C2191 1.393 1_554 S
C2188 H2177 0.950 . S
C2188 C2186 1.391 . S
C2188 C2189 1.400 . S
C2189 C2183 1.491 . S
C2189 C2188 1.400 . S
C2189 C2190 1.398 . S
C2190 H2178 0.950 1_554 S
C2190 C2189 1.398 . S
C2190 C2191 1.391 1_554 S
C2191 H2179 0.950 . S
C2191 C2187 1.393 1_556 S
C2191 C2190 1.391 1_556 S
H2192 C2200 0.950 . S
H2193 C2205 0.950 . S
H2194 C2202 0.950 . S
H2195 C2204 0.950 . S
H2196 C2206 0.950 . S
H2197 C2208 0.950 . S
H2198 C2210 0.950 . S
H2199 C2211 0.950 . S
C2200 H2192 0.950 . S
C2200 C2201 1.386 . S
C2200 C2202 1.391 . S
C2201 C2200 1.386 . S
C2201 C2205 1.393 . S
C2202 H2194 0.950 . S
C2202 C2200 1.391 . S
C2202 C2203 1.400 . S
C2203 C2202 1.400 . S
C2203 C2204 1.398 . S
C2203 C2209 1.491 . S
C2204 H2195 0.950 . S
C2204 C2203 1.398 . S
C2204 C2205 1.391 . S
C2205 H2193 0.950 . S
C2205 C2201 1.393 . S
C2205 C2204 1.391 . S
C2206 H2196 0.950 . S
C2206 C2207 1.386 . S
C2206 C2208 1.391 . S
C2207 C2206 1.386 . S
C2207 C2211 1.393 . S
C2208 H2197 0.950 . S
C2208 C2206 1.391 . S
C2208 C2209 1.400 . S
C2209 C2203 1.491 . S
C2209 C2208 1.400 . S
C2209 C2210 1.398 . S
C2210 H2198 0.950 . S
C2210 C2209 1.398 . S
C2210 C2211 1.391 . S
C2211 H2199 0.950 . S
C2211 C2207 1.393 . S
C2211 C2210 1.391 . S
H2212 C2220 0.950 . S
H2213 C2225 0.950 . S
H2214 C2222 0.950 . S
H2215 C2224 0.950 . S
H2216 C2226 0.950 . S
H2217 C2228 0.950 . S
H2218 C2230 0.950 . S
H2219 C2231 0.950 . S
C2220 H2212 0.950 . S
C2220 C2221 1.386 . S
C2220 C2222 1.391 . S
C2221 C2220 1.386 . S
C2221 C2225 1.393 . S
C2222 H2214 0.950 . S
C2222 C2220 1.391 . S
C2222 C2223 1.400 . S
C2223 C2222 1.400 . S
C2223 C2224 1.398 . S
C2223 C2229 1.491 . S
C2224 H2215 0.950 . S
C2224 C2223 1.398 . S
C2224 C2225 1.391 . S
C2225 H2213 0.950 . S
C2225 C2221 1.393 . S
C2225 C2224 1.391 . S
C2226 H2216 0.950 . S
C2226 C2227 1.386 . S
C2226 C2228 1.391 . S
C2227 C2226 1.386 . S
C2227 C2231 1.393 . S
C2228 H2217 0.950 . S
C2228 C2226 1.391 . S
C2228 C2229 1.400 . S
C2229 C2223 1.491 . S
C2229 C2228 1.400 . S
C2229 C2230 1.398 . S
C2230 H2218 0.950 . S
C2230 C2229 1.398 . S
C2230 C2231 1.391 . S
C2231 H2219 0.950 . S
C2231 C2227 1.393 . S
C2231 C2230 1.391 . S
H2232 C2240 0.950 . S
H2233 C2245 0.950 . S
H2234 C2242 0.950 . S
H2235 C2244 0.950 . S
H2236 C2246 0.950 . S
H2237 C2248 0.950 . S
H2238 C2250 0.950 . S
H2239 C2251 0.950 . S
C2240 H2232 0.950 . S
C2240 C2241 1.386 . S
C2240 C2242 1.391 . S
C2241 C2240 1.386 . S
C2241 C2245 1.393 . S
C2242 H2234 0.950 . S
C2242 C2240 1.391 . S
C2242 C2243 1.400 . S
C2243 C2242 1.400 . S
C2243 C2244 1.398 . S
C2243 C2249 1.491 . S
C2244 H2235 0.950 . S
C2244 C2243 1.398 . S
C2244 C2245 1.391 . S
C2245 H2233 0.950 . S
C2245 C2241 1.393 . S
C2245 C2244 1.391 . S
C2246 H2236 0.950 . S
C2246 C2247 1.386 . S
C2246 C2248 1.391 . S
C2247 C2246 1.386 . S
C2247 C2251 1.393 . S
C2248 H2237 0.950 . S
C2248 C2246 1.391 . S
C2248 C2249 1.400 . S
C2249 C2243 1.491 . S
C2249 C2248 1.400 . S
C2249 C2250 1.398 . S
C2250 H2238 0.950 . S
C2250 C2249 1.398 . S
C2250 C2251 1.391 . S
C2251 H2239 0.950 . S
C2251 C2247 1.393 . S
C2251 C2250 1.391 . S
H2252 C2260 0.950 . S
H2253 C2265 0.950 . S
H2254 C2262 0.950 . S
H2255 C2264 0.950 . S
H2256 C2266 0.950 . S
H2257 C2268 0.950 . S
H2258 C2270 0.950 . S
H2259 C2271 0.950 . S
C2260 H2252 0.950 . S
C2260 C2261 1.386 . S
C2260 C2262 1.391 . S
C2261 C2260 1.386 . S
C2261 C2265 1.393 . S
C2262 H2254 0.950 . S
C2262 C2260 1.391 . S
C2262 C2263 1.400 . S
C2263 C2262 1.400 . S
C2263 C2264 1.398 . S
C2263 C2269 1.491 . S
C2264 H2255 0.950 . S
C2264 C2263 1.398 . S
C2264 C2265 1.391 . S
C2265 H2253 0.950 . S
C2265 C2261 1.393 . S
C2265 C2264 1.391 . S
C2266 H2256 0.950 . S
C2266 C2267 1.386 . S
C2266 C2268 1.391 . S
C2267 C2266 1.386 . S
C2267 C2271 1.393 . S
C2268 H2257 0.950 . S
C2268 C2266 1.391 . S
C2268 C2269 1.400 . S
C2269 C2263 1.491 . S
C2269 C2268 1.400 . S
C2269 C2270 1.398 . S
C2270 H2258 0.950 . S
C2270 C2269 1.398 . S
C2270 C2271 1.391 . S
C2271 H2259 0.950 . S
C2271 C2267 1.393 . S
C2271 C2270 1.391 . S
H2272 C2280 0.950 . S
H2273 C2285 0.950 1_655 S
H2274 C2282 0.950 . S
H2275 C2284 0.950 1_655 S
H2276 C2286 0.950 . S
H2277 C2288 0.950 . S
H2278 C2290 0.950 . S
H2279 C2291 0.950 . S
C2280 H2272 0.950 . S
C2280 C2281 1.386 . S
C2280 C2282 1.391 . S
C2281 C2280 1.386 . S
C2281 C2285 1.393 . S
C2282 H2274 0.950 . S
C2282 C2280 1.391 . S
C2282 C2283 1.400 . S
C2283 C2282 1.400 . S
C2283 C2284 1.398 . S
C2283 C2289 1.491 . S
C2284 H2275 0.950 1_455 S
C2284 C2283 1.398 . S
C2284 C2285 1.391 . S
C2285 H2273 0.950 1_455 S
C2285 C2281 1.393 . S
C2285 C2284 1.391 . S
C2286 H2276 0.950 . S
C2286 C2287 1.386 1_655 S
C2286 C2288 1.391 . S
C2287 C2286 1.386 1_455 S
C2287 C2291 1.393 . S
C2288 H2277 0.950 . S
C2288 C2286 1.391 . S
C2288 C2289 1.400 1_655 S
C2289 C2283 1.491 . S
C2289 C2288 1.400 1_455 S
C2289 C2290 1.398 . S
C2290 H2278 0.950 . S
C2290 C2289 1.398 . S
C2290 C2291 1.391 . S
C2291 H2279 0.950 . S
C2291 C2287 1.393 . S
C2291 C2290 1.391 . S
H2292 C2300 0.950 . S
H2293 C2305 0.950 . S
H2294 C2302 0.950 . S
H2295 C2304 0.950 . S
H2296 C2306 0.950 . S
H2297 C2308 0.950 . S
H2298 C2310 0.950 . S
H2299 C2311 0.950 . S
C2300 H2292 0.950 . S
C2300 C2301 1.386 . S
C2300 C2302 1.391 . S
C2301 C2300 1.386 . S
C2301 C2305 1.393 . S
C2302 H2294 0.950 . S
C2302 C2300 1.391 . S
C2302 C2303 1.400 . S
C2303 C2302 1.400 . S
C2303 C2304 1.398 . S
C2303 C2309 1.491 . S
C2304 H2295 0.950 . S
C2304 C2303 1.398 . S
C2304 C2305 1.391 . S
C2305 H2293 0.950 . S
C2305 C2301 1.393 . S
C2305 C2304 1.391 . S
C2306 H2296 0.950 . S
C2306 C2307 1.386 . S
C2306 C2308 1.391 . S
C2307 C2306 1.386 . S
C2307 C2311 1.393 . S
C2308 H2297 0.950 . S
C2308 C2306 1.391 . S
C2308 C2309 1.400 . S
C2309 C2303 1.491 . S
C2309 C2308 1.400 . S
C2309 C2310 1.398 . S
C2310 H2298 0.950 . S
C2310 C2309 1.398 . S
C2310 C2311 1.391 . S
C2311 H2299 0.950 . S
C2311 C2307 1.393 . S
C2311 C2310 1.391 . S
H2312 C2320 0.950 . S
H2313 C2325 0.950 . S
H2314 C2322 0.950 . S
H2315 C2324 0.950 . S
H2316 C2326 0.950 . S
H2317 C2328 0.950 . S
H2318 C2330 0.950 . S
H2319 C2331 0.950 . S
C2320 H2312 0.950 . S
C2320 C2321 1.386 . S
C2320 C2322 1.391 . S
C2321 C2320 1.386 . S
C2321 C2325 1.393 . S
C2322 H2314 0.950 . S
C2322 C2320 1.391 . S
C2322 C2323 1.400 . S
C2323 C2322 1.400 . S
C2323 C2324 1.398 . S
C2323 C2329 1.491 . S
C2324 H2315 0.950 . S
C2324 C2323 1.398 . S
C2324 C2325 1.391 . S
C2325 H2313 0.950 . S
C2325 C2321 1.393 . S
C2325 C2324 1.391 . S
C2326 H2316 0.950 . S
C2326 C2327 1.386 . S
C2326 C2328 1.391 . S
C2327 C2326 1.386 . S
C2327 C2331 1.393 . S
C2328 H2317 0.950 . S
C2328 C2326 1.391 . S
C2328 C2329 1.400 . S
C2329 C2323 1.491 . S
C2329 C2328 1.400 . S
C2329 C2330 1.398 . S
C2330 H2318 0.950 . S
C2330 C2329 1.398 . S
C2330 C2331 1.391 . S
C2331 H2319 0.950 . S
C2331 C2327 1.393 . S
C2331 C2330 1.391 . S
H2332 C2340 0.950 . S
H2333 C2345 0.950 . S
H2334 C2342 0.950 . S
H2335 C2344 0.950 . S
H2336 C2346 0.950 . S
H2337 C2348 0.950 . S
H2338 C2350 0.950 . S
H2339 C2351 0.950 . S
C2340 H2332 0.950 . S
C2340 C2341 1.386 . S
C2340 C2342 1.391 . S
C2341 C2340 1.386 . S
C2341 C2345 1.393 . S
C2342 H2334 0.950 . S
C2342 C2340 1.391 . S
C2342 C2343 1.400 . S
C2343 C2342 1.400 . S
C2343 C2344 1.398 . S
C2343 C2349 1.491 . S
C2344 H2335 0.950 . S
C2344 C2343 1.398 . S
C2344 C2345 1.391 . S
C2345 H2333 0.950 . S
C2345 C2341 1.393 . S
C2345 C2344 1.391 . S
C2346 H2336 0.950 . S
C2346 C2347 1.386 . S
C2346 C2348 1.391 . S
C2347 C2346 1.386 . S
C2347 C2351 1.393 . S
C2348 H2337 0.950 . S
C2348 C2346 1.391 . S
C2348 C2349 1.400 . S
C2349 C2343 1.491 . S
C2349 C2348 1.400 . S
C2349 C2350 1.398 . S
C2350 H2338 0.950 . S
C2350 C2349 1.398 . S
C2350 C2351 1.391 . S
C2351 H2339 0.950 . S
C2351 C2347 1.393 . S
C2351 C2350 1.391 . S
H2352 C2360 0.950 . S
H2353 C2365 0.950 . S
H2354 C2362 0.950 . S
H2355 C2364 0.950 . S
H2356 C2366 0.950 . S
H2357 C2368 0.950 . S
H2358 C2370 0.950 . S
H2359 C2371 0.950 . S
C2360 H2352 0.950 . S
C2360 C2361 1.386 . S
C2360 C2362 1.391 . S
C2361 C2360 1.386 . S
C2361 C2365 1.393 . S
C2362 H2354 0.950 . S
C2362 C2360 1.391 . S
C2362 C2363 1.400 . S
C2363 C2362 1.400 . S
C2363 C2364 1.398 . S
C2363 C2369 1.491 . S
C2364 H2355 0.950 . S
C2364 C2363 1.398 . S
C2364 C2365 1.391 . S
C2365 H2353 0.950 . S
C2365 C2361 1.393 . S
C2365 C2364 1.391 . S
C2366 H2356 0.950 . S
C2366 C2367 1.386 . S
C2366 C2368 1.391 . S
C2367 C2366 1.386 . S
C2367 C2371 1.393 . S
C2368 H2357 0.950 . S
C2368 C2366 1.391 . S
C2368 C2369 1.400 . S
C2369 C2363 1.491 . S
C2369 C2368 1.400 . S
C2369 C2370 1.398 . S
C2370 H2358 0.950 . S
C2370 C2369 1.398 . S
C2370 C2371 1.391 . S
C2371 H2359 0.950 . S
C2371 C2367 1.393 . S
C2371 C2370 1.391 . S
H2372 C2380 0.950 . S
H2373 C2385 0.950 . S
H2374 C2382 0.950 . S
H2375 C2384 0.950 . S
H2376 C2386 0.950 . S
H2377 C2388 0.950 . S
H2378 C2390 0.950 . S
H2379 C2391 0.950 . S
C2380 H2372 0.950 . S
C2380 C2381 1.386 . S
C2380 C2382 1.391 . S
C2381 C2380 1.386 . S
C2381 C2385 1.393 . S
C2382 H2374 0.950 . S
C2382 C2380 1.391 . S
C2382 C2383 1.400 . S
C2383 C2382 1.400 . S
C2383 C2384 1.398 . S
C2383 C2389 1.491 . S
C2384 H2375 0.950 . S
C2384 C2383 1.398 . S
C2384 C2385 1.391 . S
C2385 H2373 0.950 . S
C2385 C2381 1.393 . S
C2385 C2384 1.391 . S
C2386 H2376 0.950 . S
C2386 C2387 1.386 . S
C2386 C2388 1.391 . S
C2387 C2386 1.386 . S
C2387 C2391 1.393 . S
C2388 H2377 0.950 . S
C2388 C2386 1.391 . S
C2388 C2389 1.400 . S
C2389 C2383 1.491 . S
C2389 C2388 1.400 . S
C2389 C2390 1.398 . S
C2390 H2378 0.950 . S
C2390 C2389 1.398 . S
C2390 C2391 1.391 . S
C2391 H2379 0.950 . S
C2391 C2387 1.393 . S
C2391 C2390 1.391 . S
H2392 C2400 0.950 . S
H2393 C2405 0.950 . S
H2394 C2402 0.950 . S
H2395 C2404 0.950 . S
H2396 C2406 0.950 . S
H2397 C2408 0.950 . S
H2398 C2410 0.950 . S
H2399 C2411 0.950 . S
C2400 H2392 0.950 . S
C2400 C2401 1.386 . S
C2400 C2402 1.391 . S
C2401 C2400 1.386 . S
C2401 C2405 1.393 . S
C2402 H2394 0.950 . S
C2402 C2400 1.391 . S
C2402 C2403 1.400 . S
C2403 C2402 1.400 . S
C2403 C2404 1.398 . S
C2403 C2409 1.491 . S
C2404 H2395 0.950 . S
C2404 C2403 1.398 . S
C2404 C2405 1.391 . S
C2405 H2393 0.950 . S
C2405 C2401 1.393 . S
C2405 C2404 1.391 . S
C2406 H2396 0.950 . S
C2406 C2407 1.386 . S
C2406 C2408 1.391 . S
C2407 C2406 1.386 . S
C2407 C2411 1.393 . S
C2408 H2397 0.950 . S
C2408 C2406 1.391 . S
C2408 C2409 1.400 . S
C2409 C2403 1.491 . S
C2409 C2408 1.400 . S
C2409 C2410 1.398 . S
C2410 H2398 0.950 . S
C2410 C2409 1.398 . S
C2410 C2411 1.391 . S
C2411 H2399 0.950 . S
C2411 C2407 1.393 . S
C2411 C2410 1.391 . S
H2412 C2420 0.950 . S
H2413 C2425 0.950 . S
H2414 C2422 0.950 . S
H2415 C2424 0.950 . S
H2416 C2426 0.950 . S
H2417 C2428 0.950 . S
H2418 C2430 0.950 . S
H2419 C2431 0.950 . S
C2420 H2412 0.950 . S
C2420 C2421 1.386 . S
C2420 C2422 1.391 . S
C2421 C2420 1.386 . S
C2421 C2425 1.393 . S
C2422 H2414 0.950 . S
C2422 C2420 1.391 . S
C2422 C2423 1.400 . S
C2423 C2422 1.400 . S
C2423 C2424 1.398 . S
C2423 C2429 1.491 . S
C2424 H2415 0.950 . S
C2424 C2423 1.398 . S
C2424 C2425 1.391 . S
C2425 H2413 0.950 . S
C2425 C2421 1.393 . S
C2425 C2424 1.391 . S
C2426 H2416 0.950 . S
C2426 C2427 1.386 . S
C2426 C2428 1.391 . S
C2427 C2426 1.386 . S
C2427 C2431 1.393 . S
C2428 H2417 0.950 . S
C2428 C2426 1.391 . S
C2428 C2429 1.400 . S
C2429 C2423 1.491 . S
C2429 C2428 1.400 . S
C2429 C2430 1.398 . S
C2430 H2418 0.950 . S
C2430 C2429 1.398 . S
C2430 C2431 1.391 . S
C2431 H2419 0.950 . S
C2431 C2427 1.393 . S
C2431 C2430 1.391 . S
H2432 C2440 0.950 . S
H2433 C2445 0.950 . S
H2434 C2442 0.950 . S
H2435 C2444 0.950 . S
H2436 C2446 0.950 . S
H2437 C2448 0.950 . S
H2438 C2450 0.950 . S
H2439 C2451 0.950 . S
C2440 H2432 0.950 . S
C2440 C2441 1.386 . S
C2440 C2442 1.391 . S
C2441 C2440 1.386 . S
C2441 C2445 1.393 . S
C2442 H2434 0.950 . S
C2442 C2440 1.391 . S
C2442 C2443 1.400 . S
C2443 C2442 1.400 . S
C2443 C2444 1.398 . S
C2443 C2449 1.491 . S
C2444 H2435 0.950 . S
C2444 C2443 1.398 . S
C2444 C2445 1.391 . S
C2445 H2433 0.950 . S
C2445 C2441 1.393 . S
C2445 C2444 1.391 . S
C2446 H2436 0.950 . S
C2446 C2447 1.386 . S
C2446 C2448 1.391 . S
C2447 C2446 1.386 . S
C2447 C2451 1.393 . S
C2448 H2437 0.950 . S
C2448 C2446 1.391 . S
C2448 C2449 1.400 . S
C2449 C2443 1.491 . S
C2449 C2448 1.400 . S
C2449 C2450 1.398 . S
C2450 H2438 0.950 . S
C2450 C2449 1.398 . S
C2450 C2451 1.391 . S
C2451 H2439 0.950 . S
C2451 C2447 1.393 . S
C2451 C2450 1.391 . S
H2452 C2460 0.950 . S
H2453 C2465 0.950 . S
H2454 C2462 0.950 . S
H2455 C2464 0.950 . S
H2456 C2466 0.950 . S
H2457 C2468 0.950 . S
H2458 C2470 0.950 . S
H2459 C2471 0.950 . S
C2460 H2452 0.950 . S
C2460 C2461 1.386 . S
C2460 C2462 1.391 . S
C2461 C2460 1.386 . S
C2461 C2465 1.393 . S
C2462 H2454 0.950 . S
C2462 C2460 1.391 . S
C2462 C2463 1.400 . S
C2463 C2462 1.400 . S
C2463 C2464 1.398 . S
C2463 C2469 1.491 . S
C2464 H2455 0.950 . S
C2464 C2463 1.398 . S
C2464 C2465 1.391 . S
C2465 H2453 0.950 . S
C2465 C2461 1.393 . S
C2465 C2464 1.391 . S
C2466 H2456 0.950 . S
C2466 C2467 1.386 . S
C2466 C2468 1.391 . S
C2467 C2466 1.386 . S
C2467 C2471 1.393 . S
C2468 H2457 0.950 . S
C2468 C2466 1.391 . S
C2468 C2469 1.400 . S
C2469 C2463 1.491 . S
C2469 C2468 1.400 . S
C2469 C2470 1.398 . S
C2470 H2458 0.950 . S
C2470 C2469 1.398 . S
C2470 C2471 1.391 . S
C2471 H2459 0.950 . S
C2471 C2467 1.393 . S
C2471 C2470 1.391 . S
H2472 C2480 0.950 . S
H2473 C2485 0.950 . S
H2474 C2482 0.950 . S
H2475 C2484 0.950 . S
H2476 C2486 0.950 . S
H2477 C2488 0.950 . S
H2478 C2490 0.950 . S
H2479 C2491 0.950 . S
C2480 H2472 0.950 . S
C2480 C2481 1.386 . S
C2480 C2482 1.391 . S
C2481 C2480 1.386 . S
C2481 C2485 1.393 . S
C2482 H2474 0.950 . S
C2482 C2480 1.391 . S
C2482 C2483 1.400 . S
C2483 C2482 1.400 . S
C2483 C2484 1.398 . S
C2483 C2489 1.491 . S
C2484 H2475 0.950 . S
C2484 C2483 1.398 . S
C2484 C2485 1.391 . S
C2485 H2473 0.950 . S
C2485 C2481 1.393 . S
C2485 C2484 1.391 . S
C2486 H2476 0.950 . S
C2486 C2487 1.386 . S
C2486 C2488 1.391 . S
C2487 C2486 1.386 . S
C2487 C2491 1.393 . S
C2488 H2477 0.950 . S
C2488 C2486 1.391 . S
C2488 C2489 1.400 . S
C2489 C2483 1.491 . S
C2489 C2488 1.400 . S
C2489 C2490 1.398 . S
C2490 H2478 0.950 . S
C2490 C2489 1.398 . S
C2490 C2491 1.391 . S
C2491 H2479 0.950 . S
C2491 C2487 1.393 . S
C2491 C2490 1.391 . S
H2492 C2500 0.950 . S
H2493 C2505 0.950 . S
H2494 C2502 0.950 . S
H2495 C2504 0.950 . S
H2496 C2506 0.950 . S
H2497 C2508 0.950 . S
H2498 C2510 0.950 . S
H2499 C2511 0.950 . S
C2500 H2492 0.950 . S
C2500 C2501 1.386 . S
C2500 C2502 1.391 . S
C2501 C2500 1.386 . S
C2501 C2505 1.393 . S
C2502 H2494 0.950 . S
C2502 C2500 1.391 . S
C2502 C2503 1.400 . S
C2503 C2502 1.400 . S
C2503 C2504 1.398 . S
C2503 C2509 1.491 . S
C2504 H2495 0.950 . S
C2504 C2503 1.398 . S
C2504 C2505 1.391 . S
C2505 H2493 0.950 . S
C2505 C2501 1.393 . S
C2505 C2504 1.391 . S
C2506 H2496 0.950 . S
C2506 C2507 1.386 . S
C2506 C2508 1.391 . S
C2507 C2506 1.386 . S
C2507 C2511 1.393 . S
C2508 H2497 0.950 . S
C2508 C2506 1.391 . S
C2508 C2509 1.400 . S
C2509 C2503 1.491 . S
C2509 C2508 1.400 . S
C2509 C2510 1.398 . S
C2510 H2498 0.950 . S
C2510 C2509 1.398 . S
C2510 C2511 1.391 . S
C2511 H2499 0.950 . S
C2511 C2507 1.393 . S
C2511 C2510 1.391 . S
H2512 C2520 0.950 . S
H2513 C2525 0.950 . S
H2514 C2522 0.950 . S
H2515 C2524 0.950 . S
H2516 C2526 0.950 . S
H2517 C2528 0.950 . S
H2518 C2530 0.950 . S
H2519 C2531 0.950 . S
C2520 H2512 0.950 . S
C2520 C2521 1.386 . S
C2520 C2522 1.391 . S
C2521 C2520 1.386 . S
C2521 C2525 1.393 . S
C2522 H2514 0.950 . S
C2522 C2520 1.391 . S
C2522 C2523 1.400 . S
C2523 C2522 1.400 . S
C2523 C2524 1.398 . S
C2523 C2529 1.491 . S
C2524 H2515 0.950 . S
C2524 C2523 1.398 . S
C2524 C2525 1.391 . S
C2525 H2513 0.950 . S
C2525 C2521 1.393 . S
C2525 C2524 1.391 . S
C2526 H2516 0.950 . S
C2526 C2527 1.386 . S
C2526 C2528 1.391 . S
C2527 C2526 1.386 . S
C2527 C2531 1.393 . S
C2528 H2517 0.950 . S
C2528 C2526 1.391 . S
C2528 C2529 1.400 . S
C2529 C2523 1.491 . S
C2529 C2528 1.400 . S
C2529 C2530 1.398 . S
C2530 H2518 0.950 . S
C2530 C2529 1.398 . S
C2530 C2531 1.391 . S
C2531 H2519 0.950 . S
C2531 C2527 1.393 . S
C2531 C2530 1.391 . S
H2532 C2540 0.950 . S
H2533 C2545 0.950 . S
H2534 C2542 0.950 . S
H2535 C2544 0.950 . S
H2536 C2546 0.950 . S
H2537 C2548 0.950 . S
H2538 C2550 0.950 . S
H2539 C2551 0.950 . S
C2540 H2532 0.950 . S
C2540 C2541 1.386 . S
C2540 C2542 1.391 . S
C2541 C2540 1.386 . S
C2541 C2545 1.393 . S
C2542 H2534 0.950 . S
C2542 C2540 1.391 . S
C2542 C2543 1.400 . S
C2543 C2542 1.400 . S
C2543 C2544 1.398 . S
C2543 C2549 1.491 . S
C2544 H2535 0.950 . S
C2544 C2543 1.398 . S
C2544 C2545 1.391 . S
C2545 H2533 0.950 . S
C2545 C2541 1.393 . S
C2545 C2544 1.391 . S
C2546 H2536 0.950 . S
C2546 C2547 1.386 . S
C2546 C2548 1.391 . S
C2547 C2546 1.386 . S
C2547 C2551 1.393 . S
C2548 H2537 0.950 . S
C2548 C2546 1.391 . S
C2548 C2549 1.400 . S
C2549 C2543 1.491 . S
C2549 C2548 1.400 . S
C2549 C2550 1.398 . S
C2550 H2538 0.950 . S
C2550 C2549 1.398 . S
C2550 C2551 1.391 . S
C2551 H2539 0.950 . S
C2551 C2547 1.393 . S
C2551 C2550 1.391 . S
H2552 C2560 0.950 . S
H2553 C2565 0.950 . S
H2554 C2562 0.950 . S
H2555 C2564 0.950 . S
H2556 C2566 0.950 . S
H2557 C2568 0.950 . S
H2558 C2570 0.950 . S
H2559 C2571 0.950 . S
C2560 H2552 0.950 . S
C2560 C2561 1.386 . S
C2560 C2562 1.391 . S
C2561 C2560 1.386 . S
C2561 C2565 1.393 . S
C2562 H2554 0.950 . S
C2562 C2560 1.391 . S
C2562 C2563 1.400 . S
C2563 C2562 1.400 . S
C2563 C2564 1.398 . S
C2563 C2569 1.491 . S
C2564 H2555 0.950 . S
C2564 C2563 1.398 . S
C2564 C2565 1.391 . S
C2565 H2553 0.950 . S
C2565 C2561 1.393 . S
C2565 C2564 1.391 . S
C2566 H2556 0.950 . S
C2566 C2567 1.386 . S
C2566 C2568 1.391 . S
C2567 C2566 1.386 . S
C2567 C2571 1.393 . S
C2568 H2557 0.950 . S
C2568 C2566 1.391 . S
C2568 C2569 1.400 . S
C2569 C2563 1.491 . S
C2569 C2568 1.400 . S
C2569 C2570 1.398 . S
C2570 H2558 0.950 . S
C2570 C2569 1.398 . S
C2570 C2571 1.391 . S
C2571 H2559 0.950 . S
C2571 C2567 1.393 . S
C2571 C2570 1.391 . S
H2572 C2580 0.950 . S
H2573 C2585 0.950 . S
H2574 C2582 0.950 . S
H2575 C2584 0.950 . S
H2576 C2586 0.950 . S
H2577 C2588 0.950 . S
H2578 C2590 0.950 . S
H2579 C2591 0.950 . S
C2580 H2572 0.950 . S
C2580 C2581 1.386 . S
C2580 C2582 1.391 . S
C2581 C2580 1.386 . S
C2581 C2585 1.393 . S
C2582 H2574 0.950 . S
C2582 C2580 1.391 . S
C2582 C2583 1.400 . S
C2583 C2582 1.400 . S
C2583 C2584 1.398 . S
C2583 C2589 1.491 . S
C2584 H2575 0.950 . S
C2584 C2583 1.398 . S
C2584 C2585 1.391 . S
C2585 H2573 0.950 . S
C2585 C2581 1.393 . S
C2585 C2584 1.391 . S
C2586 H2576 0.950 . S
C2586 C2587 1.386 . S
C2586 C2588 1.391 . S
C2587 C2586 1.386 . S
C2587 C2591 1.393 . S
C2588 H2577 0.950 . S
C2588 C2586 1.391 . S
C2588 C2589 1.400 . S
C2589 C2583 1.491 . S
C2589 C2588 1.400 . S
C2589 C2590 1.398 . S
C2590 H2578 0.950 . S
C2590 C2589 1.398 . S
C2590 C2591 1.391 . S
C2591 H2579 0.950 . S
C2591 C2587 1.393 . S
C2591 C2590 1.391 . S
H2592 C2600 0.950 . S
H2593 C2605 0.950 . S
H2594 C2602 0.950 . S
H2595 C2604 0.950 . S
H2596 C2606 0.950 . S
H2597 C2608 0.950 . S
H2598 C2610 0.950 . S
H2599 C2611 0.950 . S
C2600 H2592 0.950 . S
C2600 C2601 1.386 . S
C2600 C2602 1.391 . S
C2601 C2600 1.386 . S
C2601 C2605 1.393 . S
C2602 H2594 0.950 . S
C2602 C2600 1.391 . S
C2602 C2603 1.400 . S
C2603 C2602 1.400 . S
C2603 C2604 1.398 . S
C2603 C2609 1.491 . S
C2604 H2595 0.950 . S
C2604 C2603 1.398 . S
C2604 C2605 1.391 . S
C2605 H2593 0.950 . S
C2605 C2601 1.393 . S
C2605 C2604 1.391 . S
C2606 H2596 0.950 . S
C2606 C2607 1.386 . S
C2606 C2608 1.391 . S
C2607 C2606 1.386 . S
C2607 C2611 1.393 . S
C2608 H2597 0.950 . S
C2608 C2606 1.391 . S
C2608 C2609 1.400 . S
C2609 C2603 1.491 . S
C2609 C2608 1.400 . S
C2609 C2610 1.398 . S
C2610 H2598 0.950 . S
C2610 C2609 1.398 . S
C2610 C2611 1.391 . S
C2611 H2599 0.950 . S
C2611 C2607 1.393 . S
C2611 C2610 1.391 . S
H2612 C2620 0.950 . S
H2613 C2625 0.950 1_556 S
H2614 C2622 0.950 . S
H2615 C2624 0.950 1_556 S
H2616 C2626 0.950 1_545 S
H2617 C2628 0.950 . S
H2618 C2630 0.950 . S
H2619 C2631 0.950 . S
C2620 H2612 0.950 . S
C2620 C2621 1.386 . S
C2620 C2622 1.391 . S
C2621 C2620 1.386 . S
C2621 C2625 1.393 . S
C2622 H2614 0.950 . S
C2622 C2620 1.391 . S
C2622 C2623 1.400 . S
C2623 C2622 1.400 . S
C2623 C2624 1.398 . S
C2623 C2629 1.491 . S
C2624 H2615 0.950 1_554 S
C2624 C2623 1.398 . S
C2624 C2625 1.391 . S
C2625 H2613 0.950 1_554 S
C2625 C2621 1.393 . S
C2625 C2624 1.391 . S
C2626 H2616 0.950 1_565 S
C2626 C2627 1.386 1_556 S
C2626 C2628 1.391 . S
C2627 C2626 1.386 1_554 S
C2627 C2631 1.393 . S
C2628 H2617 0.950 . S
C2628 C2626 1.391 . S
C2628 C2629 1.400 1_556 S
C2629 C2623 1.491 . S
C2629 C2628 1.400 1_554 S
C2629 C2630 1.398 . S
C2630 H2618 0.950 . S
C2630 C2629 1.398 . S
C2630 C2631 1.391 . S
C2631 H2619 0.950 . S
C2631 C2627 1.393 . S
C2631 C2630 1.391 . S
H2632 C2640 0.950 . S
H2633 C2645 0.950 . S
H2634 C2642 0.950 . S
H2635 C2644 0.950 . S
H2636 C2646 0.950 . S
H2637 C2648 0.950 . S
H2638 C2650 0.950 . S
H2639 C2651 0.950 . S
C2640 H2632 0.950 . S
C2640 C2641 1.386 . S
C2640 C2642 1.391 . S
C2641 C2640 1.386 . S
C2641 C2645 1.393 . S
C2642 H2634 0.950 . S
C2642 C2640 1.391 . S
C2642 C2643 1.400 . S
C2643 C2642 1.400 . S
C2643 C2644 1.398 . S
C2643 C2649 1.491 . S
C2644 H2635 0.950 . S
C2644 C2643 1.398 . S
C2644 C2645 1.391 . S
C2645 H2633 0.950 . S
C2645 C2641 1.393 . S
C2645 C2644 1.391 . S
C2646 H2636 0.950 . S
C2646 C2647 1.386 . S
C2646 C2648 1.391 . S
C2647 C2646 1.386 . S
C2647 C2651 1.393 . S
C2648 H2637 0.950 . S
C2648 C2646 1.391 . S
C2648 C2649 1.400 . S
C2649 C2643 1.491 . S
C2649 C2648 1.400 . S
C2649 C2650 1.398 . S
C2650 H2638 0.950 . S
C2650 C2649 1.398 . S
C2650 C2651 1.391 . S
C2651 H2639 0.950 . S
C2651 C2647 1.393 . S
C2651 C2650 1.391 . S
H2652 C2660 0.950 . S
H2653 C2665 0.950 . S
H2654 C2662 0.950 . S
H2655 C2664 0.950 . S
H2656 C2666 0.950 1_556 S
H2657 C2668 0.953 . S
H2658 C2670 0.950 . S
H2659 C2671 0.950 . S
C2660 H2652 0.950 . S
C2660 C2661 1.386 1_554 S
C2660 C2662 1.391 . S
C2661 C2660 1.386 1_556 S
C2661 C2665 1.393 . S
C2662 H2654 0.950 . S
C2662 C2660 1.391 . S
C2662 C2663 1.400 . S
C2663 C2662 1.400 . S
C2663 C2664 1.398 1_554 S
C2663 C2669 1.491 . S
C2664 H2655 0.950 . S
C2664 C2663 1.398 1_556 S
C2664 C2665 1.391 . S
C2665 H2653 0.950 . S
C2665 C2661 1.393 . S
C2665 C2664 1.391 . S
C2666 H2656 0.950 1_554 S
C2666 C2667 1.386 . S
C2666 C2668 1.390 1_554 S
C2667 C2666 1.386 . S
C2667 C2671 1.393 . S
C2668 H2657 0.953 . S
C2668 C2666 1.390 1_556 S
C2668 C2669 1.398 1_556 S
C2669 C2663 1.491 . S
C2669 C2668 1.398 1_554 S
C2669 C2670 1.398 . S
C2670 H2658 0.950 . S
C2670 C2669 1.398 . S
C2670 C2671 1.391 . S
C2671 H2659 0.950 . S
C2671 C2667 1.393 . S
C2671 C2670 1.391 . S
H2672 C2680 0.950 . S
H2673 C2685 0.950 . S
H2674 C2682 0.950 . S
H2675 C2684 0.950 . S
H2676 C2686 0.950 . S
H2677 C2688 0.950 . S
H2678 C2690 0.950 . S
H2679 C2691 0.950 . S
C2680 H2672 0.950 . S
C2680 C2681 1.386 . S
C2680 C2682 1.391 . S
C2681 C2680 1.386 . S
C2681 C2685 1.393 . S
C2682 H2674 0.950 . S
C2682 C2680 1.391 . S
C2682 C2683 1.400 . S
C2683 C2682 1.400 . S
C2683 C2684 1.398 . S
C2683 C2689 1.491 . S
C2684 H2675 0.950 . S
C2684 C2683 1.398 . S
C2684 C2685 1.391 . S
C2685 H2673 0.950 . S
C2685 C2681 1.393 . S
C2685 C2684 1.391 . S
C2686 H2676 0.950 . S
C2686 C2687 1.386 . S
C2686 C2688 1.391 . S
C2687 C2686 1.386 . S
C2687 C2691 1.393 . S
C2688 H2677 0.950 . S
C2688 C2686 1.391 . S
C2688 C2689 1.400 . S
C2689 C2683 1.491 . S
C2689 C2688 1.400 . S
C2689 C2690 1.398 . S
C2690 H2678 0.950 . S
C2690 C2689 1.398 . S
C2690 C2691 1.391 . S
C2691 H2679 0.950 . S
C2691 C2687 1.393 . S
C2691 C2690 1.391 . S
H2692 C2700 0.950 . S
H2693 C2705 0.950 . S
H2694 C2702 0.950 . S
H2695 C2704 0.950 . S
H2696 C2706 0.950 . S
H2697 C2708 0.950 . S
H2698 C2710 0.950 . S
H2699 C2711 0.950 . S
C2700 H2692 0.950 . S
C2700 C2701 1.386 . S
C2700 C2702 1.391 . S
C2701 C2700 1.386 . S
C2701 C2705 1.393 . S
C2702 H2694 0.950 . S
C2702 C2700 1.391 . S
C2702 C2703 1.400 . S
C2703 C2702 1.400 . S
C2703 C2704 1.398 . S
C2703 C2709 1.491 . S
C2704 H2695 0.950 . S
C2704 C2703 1.398 . S
C2704 C2705 1.391 . S
C2705 H2693 0.950 . S
C2705 C2701 1.393 . S
C2705 C2704 1.391 . S
C2706 H2696 0.950 . S
C2706 C2707 1.386 . S
C2706 C2708 1.391 . S
C2707 C2706 1.386 . S
C2707 C2711 1.393 . S
C2708 H2697 0.950 . S
C2708 C2706 1.391 . S
C2708 C2709 1.400 . S
C2709 C2703 1.491 . S
C2709 C2708 1.400 . S
C2709 C2710 1.398 . S
C2710 H2698 0.950 . S
C2710 C2709 1.398 . S
C2710 C2711 1.391 . S
C2711 H2699 0.950 . S
C2711 C2707 1.393 . S
C2711 C2710 1.391 . S
C807 C313 1.946 . S
C801 C10 1.976 . S
C821 C23 1.196 . S
C827 C358 1.186 . S
C841 C36 1.889 . S
C847 C382 1.861 . S
C867 N408 1.170 . S
C861 C42 1.169 . S
C881 C18 1.228 . S
C887 N438 1.236 1_455 S
C907 C472 1.791 . S
C901 C31 1.811 . S
C927 C508 1.348 1_556 S
C921 C43 1.350 . S
C941 C5 1.946 . S
C947 C532 1.914 . S
C961 C56 1.097 . S
C967 N326 1.091 . S
C981 C70 1.238 . S
C987 N348 1.250 . S
C1007 C388 1.229 . S
C1001 C82 1.226 . S
C1027 C412 1.955 . S
C1021 C96 1.987 . S
C1041 C57 1.414 . S
C1047 C442 1.387 . S
C1067 C478 1.304 . S
C1061 C69 1.310 . S
C1087 N498 1.224 . S
C1081 C83 1.213 . S
C1107 C538 1.904 . S
C1101 C95 1.924 . S
C1127 C339 1.829 . S
C1121 C94 1.856 . S
C1147 C568 1.194 . S
C1141 C108 1.187 . S
C1161 C122 1.226 . S
C1167 N588 1.233 . S
C1187 C622 1.760 . S
C1181 C140 1.789 . S
C1201 C55 1.063 . S
C1207 N528 1.058 . S
C1227 N378 1.192 1_565 S
C1221 C68 1.192 . S
C1241 C121 1.279 . S
C1247 C658 1.281 . S
C1267 C682 1.261 . S
C1261 C153 1.278 . S
C1281 C161 1.654 . S
C1287 C322 1.630 1_556 S
C1307 C699 0.881 . S
C1301 C174 0.880 . S
C1321 C186 1.548 . S
C1327 C373 1.521 . S
C1341 C200 0.957 . S
C1347 N656 0.960 . S
C1367 N446 1.002 . S
C1361 C172 0.981 . S
C1387 C583 1.454 . S
C1381 C192 1.474 . S
C1407 C519 1.018 . S
C1401 C198 1.024 . S
C1427 C703 1.607 . S
C1421 C159 1.636 . S
C1447 N318 0.912 . S
C1441 C211 0.902 . S
C1461 C225 0.985 . S
C1467 N686 1.005 . S
C1487 C399 0.905 . S
C1481 C239 0.907 . S
C1501 C251 1.662 . S
C1507 C643 1.626 . S
C1521 C218 1.089 . S
C1527 C433 1.067 . S
C1541 C226 0.963 . S
C1547 C609 0.953 . S
C1567 N506 0.995 . S
C1561 C238 0.980 . S
C1581 C252 1.604 . S
C1587 C729 1.589 . S
C1601 C250 1.551 . S
C1607 C328 1.530 1_565 S
C1621 C264 0.875 . S
C1627 C579 0.861 . S
C1641 C276 0.987 . S
C1647 N476 1.010 . S
C1661 C290 1.461 . S
C1667 C613 1.437 . S
C1687 N716 0.862 . S
C1681 C213 0.866 1_565 S
C1707 N386 0.984 . S
C1701 C224 0.982 . S
C1727 C429 0.950 . S
C1721 C283 0.945 . S
C1747 C343 0.935 . S
C1741 C303 0.942 . S
C1761 C29 1.982 . S
C1767 C733 1.942 . S
C1787 C688 1.200 . S
C1781 C49 1.196 . S
C1807 C772 1.865 . S
C1801 C3 1.897 . S
C1821 C16 1.156 1_655 S
C1827 N648 1.168 . S
C1841 C44 1.238 . S
C1847 N558 1.240 1_556 S
C1867 C592 1.785 . S
C1861 C4 1.804 . S
C1887 C628 1.341 . S
C1881 C17 1.341 . S
C1907 C712 1.921 . S
C1901 C30 1.942 . S
C1927 N746 1.088 . S
C1921 C147 1.095 . S
C1941 C107 1.242 1_556 S
C1947 N678 1.252 . S
C1961 C127 1.236 . S
C1967 C778 1.227 1_655 S
C1987 C652 1.967 . S
C1981 C135 1.990 . S
C2007 C562 1.395 . S
C2001 C148 1.421 . S
C2021 C114 1.308 . S
C2027 C598 1.304 . S
C2047 N618 1.220 . S
C2041 C120 1.222 . S
C2061 C134 1.918 . S
C2067 C718 1.897 . S
C2087 C759 1.843 . S
C2081 C133 1.860 . S
C2107 C448 1.197 . S
C2101 C75 1.190 . S
C2127 N468 1.236 . S
C2121 C81 1.235 1_565 S
C2141 C101 1.791 . S
C2147 C502 1.770 . S
C2167 N708 1.059 . S
C2161 C146 1.062 . S
C2181 C109 1.180 . S
C2187 N768 1.192 . S
C2207 C418 1.286 . S
C2201 C88 1.281 . S
C2227 C352 1.262 . S
C2221 C62 1.283 . S
C2241 C187 1.661 . S
C2247 C742 1.640 . S
C2267 C369 0.859 . S
C2261 C199 0.859 . S
C2287 C763 1.524 1_556 S
C2281 C160 1.549 . S
C2301 C173 0.939 . S
C2307 N416 0.948 . S
C2321 C205 0.975 . S
C2327 N566 0.992 . S
C2341 C166 1.476 . S
C2347 C463 1.447 . S
C2361 C179 1.009 . S
C2367 C639 0.996 . S
C2381 C185 1.644 . S
C2387 C523 1.625 . S
C2407 N738 0.909 . S
C2401 C302 0.902 . S
C2421 C270 0.990 . S
C2427 N356 1.005 . S
C2447 C789 0.910 . S
C2441 C278 0.908 . S
C2461 C296 1.669 . S
C2467 C403 1.638 . S
C2481 C309 1.087 . S
C2487 C553 1.059 . S
C2507 C489 0.973 . S
C2501 C263 0.974 . S
C2521 C277 0.981 . S
C2527 N626 0.994 . S
C2547 C549 1.582 . S
C2541 C289 1.599 . S
C2567 C748 1.535 . S
C2561 C291 1.547 . S
C2587 C459 0.868 . S
C2581 C231 0.860 . S
C2601 C237 1.007 . S
C2607 N596 1.014 . S
C2627 C493 1.436 1_565 S
C2621 C257 1.459 . S
C2647 N536 0.863 . S
C2641 C304 0.865 . S
C2661 C265 0.977 . S
C2667 N776 0.979 . S
C2687 C669 0.942 . S
C2681 C244 0.952 . S
C2707 C673 0.932 . S
C2701 C212 0.935 . S
