# Generated by pormake.
# Topology sit, (3,6)-cn, num edge types: 1
# Building blocks:
#     Node 0, Type 0, BuildingBlock: OLANEW_clean_sbu_2, # of connection points: 3
#     Node 1, Type 0, BuildingBlock: OLANEW_clean_sbu_2, # of connection points: 3
#     Node 2, Type 0, BuildingBlock: OLANEW_clean_sbu_2, # of connection points: 3
#     Node 3, Type 0, BuildingBlock: OLANEW_clean_sbu_2, # of connection points: 3
#     Node 4, Type 1, BuildingBlock: MIDCAF_clean_sbu_0, # of connection points: 6
#     Node 5, Type 1, BuildingBlock: MIDCAF_clean_sbu_0, # of connection points: 6
#     Edge 6, Type (0, 1), BuildingBlock: FUNLAD_clean_linker_1, # of connection points: 2
#     Edge 7, Type (0, 1), BuildingBlock: FUNLAD_clean_linker_1, # of connection points: 2
#     Edge 8, Type (0, 1), BuildingBlock: FUNLAD_clean_linker_1, # of connection points: 2
#     Edge 9, Type (0, 1), BuildingBlock: FUNLAD_clean_linker_1, # of connection points: 2
#     Edge 10, Type (0, 1), BuildingBlock: FUNLAD_clean_linker_1, # of connection points: 2
#     Edge 11, Type (0, 1), BuildingBlock: FUNLAD_clean_linker_1, # of connection points: 2
#     Edge 12, Type (0, 1), BuildingBlock: FUNLAD_clean_linker_1, # of connection points: 2
#     Edge 13, Type (0, 1), BuildingBlock: FUNLAD_clean_linker_1, # of connection points: 2
#     Edge 14, Type (0, 1), BuildingBlock: FUNLAD_clean_linker_1, # of connection points: 2
#     Edge 15, Type (0, 1), BuildingBlock: FUNLAD_clean_linker_1, # of connection points: 2
#     Edge 16, Type (0, 1), BuildingBlock: FUNLAD_clean_linker_1, # of connection points: 2
#     Edge 17, Type (0, 1), BuildingBlock: FUNLAD_clean_linker_1, # of connection points: 2
# Relax obj value: 0.079
# Max RMSD: 0.183
# Mean RMSD: 0.110
data_MOF--net-sit--node1-OLANEW_clean_sbu_2--node2-MIDCAF_clean_sbu_0--edge1-FUNLAD_clean_linker_1
_symmetry_space_group_name_H-M    P1
_symmetry_Int_Tables_number       1
_symmetry_cell_setting            triclinic
loop_
_symmetry_equiv_pos_as_xyz
'x, y, z'
_cell_length_a     23.25096
_cell_length_b     36.775411
_cell_length_c     40.762351
_cell_angle_alpha  89.922813
_cell_angle_beta   83.519541
_cell_angle_gamma 84.283581
loop_
_atom_site_label
_atom_site_type_symbol
_atom_site_fract_x
_atom_site_fract_y
_atom_site_fract_z
_atom_type_partial_charge
O0 O 0.21805 0.26461 0.0359 0.0
Cd1 Cd 0.13212 0.23058 0.04406 0.0
O2 O 0.15699 0.31387 0.03647 0.0
Cd3 Cd 0.12107 0.37012 0.02801 0.0
O4 O 0.05577 0.41352 0.0162 0.0
C5 C 0.0652 0.44007 0.99705 0.0
O6 O 0.11843 0.44401 0.98392 0.0
C7 C 0.20921 0.29903 0.03273 0.0
C8 C 0.11956 0.18738 0.10005 0.0
O9 O 0.14655 0.17393 0.07293 0.0
O10 O 0.10026 0.22127 0.10095 0.0
O11 O 0.09031 0.66811 0.07479 0.0
Cd12 Cd 0.00268 0.69963 0.10543 0.0
O13 O 0.09617 0.71228 0.03846 0.0
Cd14 Cd 0.00508 0.73206 0.05118 0.0
O15 O 0.92717 0.7187 0.03059 0.0
C16 C 0.92834 0.72269 0.99956 0.0
O17 O 0.97247 0.73695 0.98323 0.0
C18 C 0.1177 0.68264 0.05022 0.0
C19 C 0.02896 0.75271 0.14888 0.0
O20 O 0.01848 0.76132 0.1195 0.0
O21 O 0.02721 0.71934 0.15759 0.0
O22 O 0.72042 0.7471 0.49987 0.0
Cd23 Cd 0.67271 0.69022 0.50209 0.0
O24 O 0.63394 0.77696 0.49984 0.0
Cd25 Cd 0.58226 0.82875 0.49338 0.0
O26 O 0.53661 0.88013 0.47978 0.0
C27 C 0.56118 0.90864 0.47126 0.0
O28 O 0.61775 0.90839 0.4709 0.0
C29 C 0.68874 0.77713 0.49801 0.0
C30 C 0.64456 0.66132 0.56443 0.0
O31 O 0.69226 0.64992 0.54693 0.0
O32 O 0.61114 0.68683 0.55291 0.0
O33 O 0.57932 0.19136 0.5704 0.0
Cd34 Cd 0.49193 0.2319 0.59087 0.0
O35 O 0.60049 0.22595 0.52747 0.0
Cd36 Cd 0.51284 0.25363 0.53273 0.0
O37 O 0.42815 0.24328 0.51889 0.0
C38 C 0.42208 0.20964 0.5152 0.0
O39 O 0.46451 0.18509 0.52131 0.0
C40 C 0.61351 0.19854 0.54514 0.0
C41 C 0.51355 0.29722 0.62046 0.0
O42 O 0.51008 0.2678 0.63716 0.0
O43 O 0.50776 0.29587 0.58964 0.0
Zn44 Zn 0.02024 0.07427 0.37545 0.0
Zn45 Zn 0.09874 0.93534 0.39128 0.0
Zn46 Zn 0.05966 1.00381 0.38233 0.0
C47 C 0.08044 0.9436 0.32417 0.0
C48 C 0.99226 0.94622 0.42895 0.0
O49 O 0.11921 0.03761 0.40319 0.0
O50 O 0.0808 0.09481 0.39875 0.0
C51 C 0.04747 0.04424 0.31201 0.0
O52 O 0.06833 0.97727 0.33328 0.0
O53 O 0.09456 0.91963 0.34486 0.0
O54 O 0.0365 0.92323 0.42531 0.0
O55 O 0.99218 0.97714 0.41401 0.0
O56 O 0.02933 0.07411 0.32669 0.0
O57 O 0.05873 0.01514 0.32876 0.0
O58 O 0.9743 0.01493 0.41263 0.0
O59 O 0.943 0.07167 0.4008 0.0
C60 C 0.9354 0.04254 0.41647 0.0
O61 O 0.14552 1.00143 0.4028 0.0
O62 O 0.1741 0.94247 0.40642 0.0
C63 C 0.11973 0.07212 0.40832 0.0
C64 C 0.18342 0.97534 0.40978 0.0
Zn65 Zn 0.53395 0.58495 0.85648 0.0
Zn66 Zn 0.62366 0.44338 0.87627 0.0
Zn67 Zn 0.5762 0.51329 0.86584 0.0
C68 C 0.60453 0.45137 0.80869 0.0
C69 C 0.51183 0.45526 0.91275 0.0
O70 O 0.63354 0.5493 0.88537 0.0
O71 O 0.59652 0.6063 0.8783 0.0
C72 C 0.56046 0.54977 0.79438 0.0
O73 O 0.58481 0.4842 0.81793 0.0
O74 O 0.62549 0.42904 0.82885 0.0
O75 O 0.55534 0.43161 0.90759 0.0
O76 O 0.51249 0.48689 0.89924 0.0
O77 O 0.54126 0.58035 0.80754 0.0
O78 O 0.57368 0.52212 0.81245 0.0
O79 O 0.49196 0.52435 0.89671 0.0
O80 O 0.45852 0.58049 0.88394 0.0
C81 C 0.45248 0.55165 0.90036 0.0
O82 O 0.66195 0.5137 0.88439 0.0
O83 O 0.69665 0.45659 0.89266 0.0
C84 C 0.63466 0.58393 0.88912 0.0
C85 C 0.70248 0.49039 0.89298 0.0
H86 H 0.08483 0.17792 0.15147 0.0
C87 C 0.10834 0.16462 0.12941 0.0
H88 H 0.14772 0.11443 0.10807 0.0
H89 H 0.1678 0.05968 0.25703 0.0
H90 H 0.26925 0.06392 0.23751 0.0
H91 H 0.298 0.08718 0.18188 0.0
H92 H 0.22511 0.1066 0.14549 0.0
C93 C 0.12336 0.12837 0.12953 0.0
C94 C 0.10743 0.10684 0.15955 0.0
C95 C 0.15057 0.09415 0.17989 0.0
C96 C 0.13394 0.08034 0.21183 0.0
C97 C 0.17779 0.0699 0.23241 0.0
C98 C 0.23629 0.07225 0.22151 0.0
C99 C 0.25249 0.08536 0.19019 0.0
C100 C 0.21029 0.09641 0.16957 0.0
H101 H 0.07898 0.01879 0.26294 0.0
C102 C 0.06049 0.04394 0.27562 0.0
H103 H 0.03557 0.10042 0.27128 0.0
H104 H 0.01556 0.12104 0.12353 0.0
H105 H 0.91417 0.11381 0.14176 0.0
H106 H 0.88517 0.09002 0.19718 0.0
H107 H 0.95751 0.07316 0.23468 0.0
C108 C 0.05483 0.07533 0.25872 0.0
C109 C 0.07415 0.07875 0.22295 0.0
C110 C 0.03171 0.0879 0.2012 0.0
C111 C 0.04835 0.10183 0.1694 0.0
C112 C 0.00499 0.11095 0.1482 0.0
C113 C 0.94676 0.10674 0.15829 0.0
C114 C 0.93044 0.09333 0.1895 0.0
C115 C 0.97224 0.08396 0.21081 0.0
H116 H 0.05424 0.7703 0.19636 0.0
C117 C 0.04267 0.78004 0.17253 0.0
H118 H 0.02659 0.82664 0.14312 0.0
H119 H 0.9694 0.91875 0.27888 0.0
H120 H 0.87344 0.91975 0.26104 0.0
H121 H 0.85795 0.88598 0.21106 0.0
H122 H 0.93857 0.85063 0.17879 0.0
C123 C 0.04019 0.81602 0.16622 0.0
C124 C 0.05172 0.84221 0.19199 0.0
C125 C 0.00476 0.86407 0.2097 0.0
C126 C 0.01399 0.88412 0.23819 0.0
C127 C 0.96546 0.90373 0.25663 0.0
C128 C 0.90994 0.90442 0.24673 0.0
C129 C 0.9012 0.88537 0.21861 0.0
C130 C 0.94782 0.86521 0.20031 0.0
H131 H 0.06362 0.95292 0.27205 0.0
C132 C 0.07472 0.93225 0.28996 0.0
H133 H 0.09132 0.8759 0.29928 0.0
H134 H 0.15249 0.8086 0.15982 0.0
H135 H 0.24977 0.8098 0.17594 0.0
H136 H 0.26611 0.84488 0.22504 0.0
H137 H 0.18532 0.87903 0.25828 0.0
C138 C 0.0793 0.8966 0.28155 0.0
C139 C 0.07062 0.88294 0.24829 0.0
C140 C 0.11826 0.86353 0.22888 0.0
C141 C 0.10885 0.84319 0.20068 0.0
C142 C 0.15722 0.82398 0.1818 0.0
C143 C 0.21326 0.82461 0.19068 0.0
C144 C 0.22246 0.84437 0.21831 0.0
C145 C 0.17571 0.86369 0.23727 0.0
H146 H 0.59131 0.66026 0.61256 0.0
C147 C 0.62799 0.64608 0.59721 0.0
H148 H 0.69089 0.60007 0.59311 0.0
H149 H 0.61259 0.62758 0.75473 0.0
H150 H 0.66736 0.68025 0.74762 0.0
H151 H 0.71061 0.69728 0.69237 0.0
H152 H 0.69908 0.66171 0.64392 0.0
C153 C 0.65579 0.61561 0.60854 0.0
C154 C 0.6377 0.60205 0.64222 0.0
C155 C 0.6456 0.62281 0.67034 0.0
C156 C 0.62108 0.61278 0.70216 0.0
C157 C 0.62954 0.63414 0.72984 0.0
C158 C 0.66124 0.66437 0.72617 0.0
C159 C 0.68555 0.67396 0.69508 0.0
C160 C 0.67817 0.65346 0.66743 0.0
H161 H 0.6077 0.52574 0.74806 0.0
C162 C 0.5757 0.54756 0.75821 0.0
H163 H 0.52673 0.59711 0.74935 0.0
H164 H 0.62321 0.55316 0.5941 0.0
H165 H 0.57368 0.49806 0.60156 0.0
H166 H 0.52977 0.48108 0.65669 0.0
H167 H 0.53536 0.51889 0.70475 0.0
C168 C 0.55776 0.57498 0.73878 0.0
C169 C 0.58927 0.58175 0.70589 0.0
C170 C 0.58531 0.55933 0.67814 0.0
C171 C 0.61005 0.56938 0.64624 0.0
C172 C 0.6051 0.54679 0.61883 0.0
C173 C 0.57677 0.51514 0.62277 0.0
C174 C 0.55205 0.50557 0.65382 0.0
C175 C 0.55578 0.52744 0.68125 0.0
H176 H 0.52065 0.35683 0.62153 0.0
C177 C 0.52217 0.33217 0.63626 0.0
H178 H 0.52952 0.30979 0.68336 0.0
H179 H 0.64157 0.46293 0.71003 0.0
H180 H 0.71572 0.44586 0.66414 0.0
H181 H 0.70765 0.3929 0.62841 0.0
H182 H 0.62527 0.35714 0.63784 0.0
C183 C 0.53008 0.33421 0.66832 0.0
C184 C 0.53239 0.36954 0.68581 0.0
C185 C 0.58156 0.38965 0.68006 0.0
C186 C 0.58743 0.41941 0.70134 0.0
C187 C 0.63624 0.43949 0.69503 0.0
C188 C 0.67877 0.4301 0.66875 0.0
C189 C 0.6741 0.40035 0.64856 0.0
C190 C 0.62637 0.38012 0.65416 0.0
H191 H 0.62569 0.41197 0.76786 0.0
C192 C 0.60008 0.43763 0.77524 0.0
H193 H 0.53 0.47509 0.76458 0.0
H194 H 0.42803 0.34128 0.69977 0.0
H195 H 0.3526 0.36033 0.74424 0.0
H196 H 0.36435 0.41074 0.78201 0.0
H197 H 0.45131 0.44256 0.77544 0.0
C198 C 0.55919 0.45111 0.75647 0.0
C199 C 0.54533 0.42821 0.7288 0.0
C200 C 0.49363 0.4105 0.73256 0.0
C201 C 0.4872 0.38112 0.71106 0.0
C202 C 0.43554 0.36341 0.71573 0.0
C203 C 0.39181 0.37415 0.74106 0.0
C204 C 0.39841 0.40256 0.76231 0.0
C205 C 0.44865 0.42056 0.75829 0.0
H206 H 0.29891 0.30378 0.01082 0.0
C207 C 0.2589 0.31958 0.0211 0.0
H208 H 0.21776 0.37286 0.03156 0.0
H209 H 0.49868 0.39661 0.99696 0.0
H210 H 0.50862 0.3711 0.05119 0.0
H211 H 0.42517 0.34748 0.08435 0.0
H212 H 0.33117 0.34929 0.06345 0.0
C213 C 0.25638 0.35621 0.02109 0.0
C214 C 0.30458 0.37481 0.00343 0.0
C215 C 0.359 0.37378 0.01605 0.0
C216 C 0.407 0.38743 0.99692 0.0
C217 C 0.46089 0.38617 0.01022 0.0
C218 C 0.46714 0.37177 0.0414 0.0
C219 C 0.42017 0.35846 0.06007 0.0
C220 C 0.36657 0.35947 0.04771 0.0
H221 H 0.42459 0.46766 0.94051 0.0
C222 C 0.45948 0.44625 0.93395 0.0
H223 H 0.48797 0.3903 0.93794 0.0
H224 H 0.20422 0.38467 0.97401 0.0
H225 H 0.19286 0.41164 0.92051 0.0
H226 H 0.27674 0.43319 0.88615 0.0
H227 H 0.37201 0.42822 0.90508 0.0
C228 C 0.45297 0.41192 0.94396 0.0
C229 C 0.40047 0.40213 0.9652 0.0
C230 C 0.34512 0.40475 0.95322 0.0
C231 C 0.29695 0.39156 0.97268 0.0
C232 C 0.24221 0.3943 0.96025 0.0
C233 C 0.2351 0.40961 0.92953 0.0
C234 C 0.28229 0.42181 0.91023 0.0
C235 C 0.33683 0.41911 0.92162 0.0
H236 H 0.88684 0.71398 0.95472 0.0
C237 C 0.88433 0.70858 0.98105 0.0
H238 H 0.84092 0.68165 0.02105 0.0
H239 H 0.61657 0.67452 0.94551 0.0
H240 H 0.57974 0.71913 0.98839 0.0
H241 H 0.64536 0.74266 0.02502 0.0
H242 H 0.74822 0.72133 0.01918 0.0
C243 C 0.8447 0.68725 0.99475 0.0
C244 C 0.80466 0.67116 0.97413 0.0
C245 C 0.74485 0.68408 0.97771 0.0
C246 C 0.70728 0.67097 0.95621 0.0
C247 C 0.64741 0.68396 0.96073 0.0
C248 C 0.62559 0.70952 0.98534 0.0
C249 C 0.66252 0.72273 0.00598 0.0
C250 C 0.72148 0.71028 0.00234 0.0
H251 H 0.70122 0.57753 0.92362 0.0
C252 C 0.67858 0.59704 0.90831 0.0
H253 H 0.66618 0.65216 0.89413 0.0
H254 H 0.91481 0.63594 0.96461 0.0
H255 H 0.95232 0.59145 0.92162 0.0
H256 H 0.8894 0.57251 0.88125 0.0
H257 H 0.78866 0.5976 0.88383 0.0
C258 C 0.68984 0.6321 0.9085 0.0
C259 C 0.72977 0.64516 0.931 0.0
C260 C 0.78961 0.63174 0.92777 0.0
C261 C 0.82667 0.64404 0.94997 0.0
C262 C 0.88538 0.6287 0.9475 0.0
C263 C 0.90742 0.60301 0.92304 0.0
C264 C 0.87193 0.59223 0.90041 0.0
C265 C 0.81386 0.60654 0.90246 0.0
H266 H 0.97189 0.45557 0.99658 0.0
C267 C 0.01468 0.46178 0.9857 0.0
H268 H 0.06105 0.489 0.94719 0.0
H269 H 0.85817 0.45445 0.86287 0.0
H270 H 0.94433 0.42418 0.83098 0.0
H271 H 0.04136 0.42576 0.84971 0.0
H272 H 0.05292 0.45769 0.90024 0.0
C273 C 0.01871 0.48388 0.95944 0.0
C274 C 0.9658 0.49364 0.9426 0.0
C275 C 0.9604 0.47589 0.91246 0.0
C276 C 0.90452 0.47467 0.90184 0.0
C277 C 0.8997 0.45574 0.87221 0.0
C278 C 0.94875 0.43841 0.85365 0.0
C279 C 0.00339 0.43933 0.86418 0.0
C280 C 0.0094 0.45769 0.89329 0.0
H281 H 0.76568 0.53114 0.89643 0.0
C282 C 0.75694 0.50322 0.90191 0.0
H283 H 0.78906 0.45235 0.91987 0.0
H284 H 0.96511 0.53904 0.99528 0.0
H285 H 0.88018 0.57416 0.0245 0.0
H286 H 0.78262 0.57134 0.00679 0.0
H287 H 0.76913 0.53354 0.96 0.0
C288 C 0.79657 0.48072 0.91539 0.0
C289 C 0.85456 0.49141 0.92123 0.0
C290 C 0.86106 0.51358 0.94873 0.0
C291 C 0.91708 0.51484 0.95928 0.0
C292 C 0.92304 0.53682 0.98686 0.0
C293 C 0.87485 0.5571 0.00366 0.0
C294 C 0.8199 0.55553 0.99366 0.0
C295 C 0.81273 0.53379 0.96671 0.0
H296 H 0.19447 0.67888 0.01326 0.0
C297 C 0.17189 0.66417 0.03312 0.0
H298 H 0.16705 0.61342 0.05715 0.0
H299 H 0.2904 0.53087 0.92678 0.0
H300 H 0.19886 0.50364 0.93622 0.0
H301 H 0.12489 0.5252 0.98212 0.0
H302 H 0.14203 0.57368 0.01901 0.0
C303 C 0.19077 0.62915 0.03858 0.0
C304 C 0.2396 0.6103 0.01608 0.0
C305 C 0.22907 0.58145 0.99513 0.0
C306 C 0.27151 0.56919 0.9685 0.0
C307 C 0.25951 0.54111 0.94733 0.0
C308 C 0.20722 0.5253 0.95247 0.0
C309 C 0.16557 0.53741 0.97834 0.0
C310 C 0.17597 0.56529 0.99937 0.0
H311 H 0.40397 0.52952 0.94467 0.0
C312 C 0.40337 0.55132 0.92674 0.0
H313 H 0.36317 0.60277 0.91455 0.0
H314 H 0.27954 0.65811 0.05737 0.0
H315 H 0.37366 0.68233 0.05013 0.0
H316 H 0.446 0.66267 0.00287 0.0
H317 H 0.42492 0.61846 0.96282 0.0
C318 C 0.3627 0.57998 0.93156 0.0
C319 C 0.32398 0.58592 0.963 0.0
C320 C 0.33696 0.61187 0.98605 0.0
C321 C 0.295 0.62371 0.01289 0.0
C322 C 0.3094 0.64909 0.03597 0.0
C323 C 0.36336 0.66295 0.03224 0.0
C324 C 0.40409 0.65186 0.00565 0.0
C325 C 0.39133 0.6266 0.98276 0.0
H326 H 0.68512 0.83635 0.48832 0.0
C327 C 0.71436 0.81191 0.4912 0.0
H328 H 0.80195 0.78963 0.48706 0.0
H329 H 0.89857 0.90033 0.3834 0.0
H330 H 0.90163 0.84583 0.34961 0.0
H331 H 0.85523 0.79189 0.37131 0.0
H332 H 0.80587 0.79207 0.42698 0.0
C333 C 0.77186 0.81406 0.48587 0.0
C334 C 0.79541 0.84795 0.47242 0.0
C335 C 0.82313 0.8476 0.43957 0.0
C336 C 0.84932 0.87879 0.42692 0.0
C337 C 0.87784 0.87742 0.39426 0.0
C338 C 0.87982 0.84632 0.37455 0.0
C339 C 0.85373 0.81596 0.38677 0.0
C340 C 0.82565 0.81642 0.41884 0.0
H341 H 0.94774 0.91586 0.46839 0.0
C342 C 0.94029 0.93508 0.44861 0.0
H343 H 0.88163 0.95433 0.41521 0.0
H344 H 0.74374 0.8587 0.53608 0.0
H345 H 0.73573 0.91482 0.56827 0.0
H346 H 0.77792 0.96962 0.5451 0.0
H347 H 0.82913 0.96836 0.48955 0.0
C348 C 0.8883 0.9382 0.43708 0.0
C349 C 0.84806 0.91019 0.44722 0.0
C350 C 0.81672 0.91159 0.47908 0.0
C351 C 0.79092 0.88028 0.49196 0.0
C352 C 0.76257 0.88195 0.52461 0.0
C353 C 0.75797 0.91395 0.54343 0.0
C354 C 0.78188 0.94479 0.53044 0.0
C355 C 0.81129 0.9437 0.49868 0.0
H356 H 0.33797 0.21979 0.49473 0.0
C357 C 0.37044 0.19859 0.50146 0.0
H358 H 0.39576 0.14172 0.50249 0.0
H359 H 0.13617 0.10515 0.49066 0.0
H360 H 0.13937 0.096 0.54936 0.0
H361 H 0.22298 0.11245 0.57647 0.0
H362 H 0.30388 0.13826 0.54497 0.0
C363 C 0.36433 0.16335 0.49543 0.0
C364 C 0.31479 0.15268 0.47885 0.0
C365 C 0.2686 0.13687 0.49745 0.0
C366 C 0.22088 0.12686 0.48171 0.0
C367 C 0.17424 0.11239 0.50113 0.0
C368 C 0.17531 0.10723 0.53493 0.0
C369 C 0.22234 0.11655 0.5502 0.0
C370 C 0.26853 0.13126 0.53183 0.0
H371 H 0.19402 0.0647 0.43723 0.0
C372 C 0.16524 0.08495 0.42637 0.0
H373 H 0.14421 0.14134 0.41882 0.0
H374 H 0.39873 0.17974 0.43557 0.0
H375 H 0.39655 0.18782 0.37668 0.0
H376 H 0.31379 0.17044 0.34933 0.0
H377 H 0.23274 0.14488 0.38072 0.0
C378 C 0.17167 0.12048 0.43022 0.0
C379 C 0.22025 0.13196 0.44723 0.0
C380 C 0.26675 0.14747 0.42859 0.0
C381 C 0.31426 0.15768 0.44438 0.0
C382 C 0.361 0.17211 0.42499 0.0
C383 C 0.36047 0.17672 0.3911 0.0
C384 C 0.3139 0.16693 0.3757 0.0
C385 C 0.26756 0.15236 0.39406 0.0
H386 H 0.54842 0.96485 0.45151 0.0
C387 C 0.52659 0.94121 0.46003 0.0
H388 H 0.44708 0.91787 0.46835 0.0
H389 H 0.25489 0.04034 0.47296 0.0
H390 H 0.26758 0.04107 0.53147 0.0
H391 H 0.35668 0.01094 0.5513 0.0
H392 H 0.43331 0.9794 0.5127 0.0
C393 C 0.46912 0.94114 0.45906 0.0
C394 C 0.43169 0.97179 0.4464 0.0
C395 C 0.38888 0.99122 0.4689 0.0
C396 C 0.33787 0.00877 0.45748 0.0
C397 C 0.29433 0.02659 0.48058 0.0
C398 C 0.3013 0.02733 0.51408 0.0
C399 C 0.35144 0.01026 0.52526 0.0
C400 C 0.39484 0.99219 0.50301 0.0
H401 H 0.25424 0.96112 0.43966 0.0
C402 C 0.23718 0.98216 0.42351 0.0
H403 H 0.25732 0.02812 0.39491 0.0
H404 H 0.5127 0.94491 0.39604 0.0
H405 H 0.5038 0.94952 0.33732 0.0
H406 H 0.41595 0.9814 0.31749 0.0
H407 H 0.33619 0.00867 0.3564 0.0
C408 C 0.27032 0.00886 0.41357 0.0
C409 C 0.33019 0.00674 0.4236 0.0
C410 C 0.3776 0.9932 0.40057 0.0
C411 C 0.42843 0.97516 0.41202 0.0
C412 C 0.47338 0.95916 0.38865 0.0
C413 C 0.46879 0.96165 0.3549 0.0
C414 C 0.4193 0.97959 0.34373 0.0
C415 C 0.37387 0.99503 0.36622 0.0
H416 H 0.69658 0.18348 0.51474 0.0
C417 C 0.66579 0.17374 0.53405 0.0
H418 H 0.64053 0.12769 0.56104 0.0
H419 H 0.76658 0.028 0.44059 0.0
H420 H 0.66677 0.0122 0.44381 0.0
H421 H 0.59051 0.04249 0.48458 0.0
H422 H 0.61335 0.08853 0.5225 0.0
C423 C 0.67282 0.13861 0.5434 0.0
C424 C 0.72004 0.1132 0.52563 0.0
C425 C 0.70592 0.08569 0.50436 0.0
C426 C 0.74968 0.0684 0.48063 0.0
C427 C 0.73455 0.04199 0.45883 0.0
C428 C 0.67764 0.03267 0.46051 0.0
C429 C 0.6347 0.04972 0.4835 0.0
C430 C 0.64834 0.0761 0.50512 0.0
H431 H 0.88362 0.01957 0.45932 0.0
C432 C 0.88527 0.04225 0.44226 0.0
H433 H 0.8494 0.09511 0.4309 0.0
H434 H 0.76394 0.15618 0.56931 0.0
H435 H 0.86513 0.1683 0.56867 0.0
H436 H 0.9406 0.13933 0.52669 0.0
H437 H 0.91548 0.09787 0.48532 0.0
C438 C 0.84673 0.072 0.44745 0.0
C439 C 0.8069 0.07877 0.47836 0.0
C440 C 0.82244 0.10245 0.50253 0.0
C441 C 0.77896 0.11949 0.5264 0.0
C442 C 0.7954 0.1432 0.55022 0.0
C443 C 0.85323 0.15017 0.55021 0.0
C444 C 0.89573 0.13384 0.52659 0.0
C445 C 0.88075 0.11027 0.50292 0.0
loop_
_geom_bond_atom_site_label_1
_geom_bond_atom_site_label_2
_geom_bond_distance
_geom_bond_site_symmetry_2
_ccdc_geom_bond_type
O0 Cd1 2.300 . S
O0 C7 1.275 . S
Cd1 O0 2.300 . S
Cd1 O9 2.381 . S
Cd1 O10 2.378 . S
O2 Cd3 2.385 . S
O2 C7 1.255 . S
Cd3 O2 2.385 . S
Cd3 O4 2.317 . S
O4 Cd3 2.317 . S
O4 C5 1.232 1_554 S
C5 O4 1.232 1_556 S
C5 O6 1.218 . S
O6 C5 1.218 . S
C7 O0 1.275 . S
C7 O2 1.255 . S
C8 O9 1.258 . S
C8 O10 1.256 . S
O9 Cd1 2.381 . S
O9 C8 1.258 . S
O10 Cd1 2.378 . S
O10 C8 1.256 . S
O11 Cd12 2.300 . S
O11 C18 1.275 . S
Cd12 O11 2.300 . S
Cd12 O20 2.381 . S
Cd12 O21 2.378 1_455 S
O13 Cd14 2.379 1_454 S
O13 C18 1.260 . S
Cd14 O13 2.379 1_656 S
Cd14 O15 2.317 1_556 S
O15 Cd14 2.317 1_554 S
O15 C16 1.232 1_554 S
C16 O15 1.232 1_556 S
C16 O17 1.218 . S
O17 C16 1.218 . S
C18 O11 1.275 . S
C18 O13 1.260 . S
C19 O20 1.258 . S
C19 O21 1.256 1_455 S
O20 Cd12 2.381 . S
O20 C19 1.258 . S
O21 Cd12 2.378 1_655 S
O21 C19 1.256 1_655 S
O22 Cd23 2.300 . S
O22 C29 1.275 . S
Cd23 O22 2.300 . S
Cd23 O31 2.381 . S
Cd23 O32 2.378 . S
O24 Cd25 2.385 . S
O24 C29 1.255 . S
Cd25 O24 2.385 . S
Cd25 O26 2.317 . S
O26 Cd25 2.317 . S
O26 C27 1.232 . S
C27 O26 1.232 . S
C27 O28 1.218 . S
O28 C27 1.218 . S
C29 O22 1.275 . S
C29 O24 1.255 . S
C30 O31 1.258 . S
C30 O32 1.256 . S
O31 Cd23 2.381 . S
O31 C30 1.258 . S
O32 Cd23 2.378 . S
O32 C30 1.256 . S
O33 Cd34 2.300 . S
O33 C40 1.275 . S
Cd34 O33 2.300 . S
Cd34 O42 2.381 . S
Cd34 O43 2.378 . S
O35 Cd36 2.385 . S
O35 C40 1.255 . S
Cd36 O35 2.385 . S
Cd36 O37 2.317 . S
O37 Cd36 2.317 . S
O37 C38 1.232 . S
C38 O37 1.232 . S
C38 O39 1.218 . S
O39 C38 1.218 . S
C40 O33 1.275 . S
C40 O35 1.255 . S
C41 O42 1.258 . S
C41 O43 1.256 . S
O42 Cd34 2.381 . S
O42 C41 1.258 . S
O43 Cd34 2.378 . S
O43 C41 1.256 . S
Zn44 O50 1.920 . S
Zn44 O56 1.898 . S
Zn44 O59 1.905 1_455 S
Zn45 O53 1.905 . S
Zn45 O54 1.898 . S
Zn45 O62 1.920 . S
Zn46 O49 2.080 . S
Zn46 O52 2.114 1_545 S
Zn46 O55 2.120 1_545 S
Zn46 O57 2.120 . S
Zn46 O58 2.114 1_455 S
Zn46 O61 2.080 1_545 S
C47 O52 1.166 . S
C47 O53 1.182 . S
C48 O54 1.167 . S
C48 O55 1.299 . S
O49 Zn46 2.080 . S
O49 C63 1.305 . S
O50 Zn44 1.920 . S
O50 C63 1.234 . S
C51 O56 1.167 . S
C51 O57 1.299 . S
O52 Zn46 2.114 1_565 S
O52 C47 1.166 . S
O53 Zn45 1.905 . S
O53 C47 1.182 . S
O54 Zn45 1.898 . S
O54 C48 1.167 . S
O55 Zn46 2.120 1_565 S
O55 C48 1.299 . S
O56 Zn44 1.898 . S
O56 C51 1.167 . S
O57 Zn46 2.120 . S
O57 C51 1.299 . S
O58 Zn46 2.114 1_655 S
O58 C60 1.166 . S
O59 Zn44 1.905 1_655 S
O59 C60 1.182 . S
C60 O58 1.166 . S
C60 O59 1.182 . S
O61 Zn46 2.080 1_565 S
O61 C64 1.305 . S
O62 Zn45 1.920 . S
O62 C64 1.234 . S
C63 O49 1.305 . S
C63 O50 1.234 . S
C64 O61 1.305 . S
C64 O62 1.234 . S
Zn65 O71 1.920 . S
Zn65 O77 1.898 . S
Zn65 O80 1.905 . S
Zn66 O74 1.905 . S
Zn66 O75 1.898 . S
Zn66 O83 1.920 . S
Zn67 O70 2.080 . S
Zn67 O73 2.114 . S
Zn67 O76 2.120 . S
Zn67 O78 2.120 . S
Zn67 O79 2.114 . S
Zn67 O82 2.080 . S
C68 O73 1.166 . S
C68 O74 1.182 . S
C69 O75 1.167 . S
C69 O76 1.299 . S
O70 Zn67 2.080 . S
O70 C84 1.305 . S
O71 Zn65 1.920 . S
O71 C84 1.234 . S
C72 O77 1.167 . S
C72 O78 1.299 . S
O73 Zn67 2.114 . S
O73 C68 1.166 . S
O74 Zn66 1.905 . S
O74 C68 1.182 . S
O75 Zn66 1.898 . S
O75 C69 1.167 . S
O76 Zn67 2.120 . S
O76 C69 1.299 . S
O77 Zn65 1.898 . S
O77 C72 1.167 . S
O78 Zn67 2.120 . S
O78 C72 1.299 . S
O79 Zn67 2.114 . S
O79 C81 1.166 . S
O80 Zn65 1.905 . S
O80 C81 1.182 . S
C81 O79 1.166 . S
C81 O80 1.182 . S
O82 Zn67 2.080 . S
O82 C85 1.305 . S
O83 Zn66 1.920 . S
O83 C85 1.234 . S
C84 O70 1.305 . S
C84 O71 1.234 . S
C85 O82 1.305 . S
C85 O83 1.234 . S
H86 C87 0.951 . S
C87 H86 0.951 . S
C87 C93 1.265 . S
H88 C93 0.950 . S
H89 C97 0.949 . S
H90 C98 0.950 . S
H91 C99 0.951 . S
H92 C100 0.951 . S
C93 C87 1.265 . S
C93 H88 0.950 . S
C93 C94 1.478 . S
C94 C93 1.478 . S
C94 C95 1.397 . S
C94 C111 1.394 . S
C95 C94 1.397 . S
C95 C96 1.438 . S
C95 C100 1.429 . S
C96 C95 1.438 . S
C96 C97 1.428 . S
C96 C109 1.394 . S
C97 H89 0.949 . S
C97 C96 1.428 . S
C97 C98 1.345 . S
C98 H90 0.950 . S
C98 C97 1.345 . S
C98 C99 1.424 . S
C99 H91 0.951 . S
C99 C98 1.424 . S
C99 C100 1.347 . S
C100 H92 0.951 . S
C100 C95 1.429 . S
C100 C99 1.347 . S
H101 C102 0.951 . S
C102 H101 0.951 . S
C102 C108 1.265 . S
H103 C108 0.950 . S
H104 C112 0.949 . S
H105 C113 0.950 . S
H106 C114 0.951 . S
H107 C115 0.951 . S
C108 C102 1.265 . S
C108 H103 0.950 . S
C108 C109 1.478 . S
C109 C96 1.394 . S
C109 C108 1.478 . S
C109 C110 1.397 . S
C110 C109 1.397 . S
C110 C111 1.438 . S
C110 C115 1.429 . S
C111 C94 1.394 . S
C111 C110 1.438 . S
C111 C112 1.428 . S
C112 H104 0.949 . S
C112 C111 1.428 . S
C112 C113 1.345 . S
C113 H105 0.950 . S
C113 C112 1.345 . S
C113 C114 1.424 . S
C114 H106 0.951 . S
C114 C113 1.424 . S
C114 C115 1.347 . S
C115 H107 0.951 . S
C115 C110 1.429 . S
C115 C114 1.347 . S
H116 C117 0.951 1_655 S
C117 H116 0.951 1_455 S
C117 C123 1.265 . S
H118 C123 0.950 . S
H119 C127 0.949 . S
H120 C128 0.950 1_545 S
H121 C129 0.951 . S
H122 C130 0.951 . S
C123 C117 1.265 . S
C123 H118 0.950 . S
C123 C124 1.478 . S
C124 C123 1.478 . S
C124 C125 1.397 . S
C124 C141 1.394 . S
C125 C124 1.397 . S
C125 C126 1.438 . S
C125 C130 1.429 . S
C126 C125 1.438 . S
C126 C127 1.428 . S
C126 C139 1.394 . S
C127 H119 0.949 . S
C127 C126 1.428 . S
C127 C128 1.345 . S
C128 H120 0.950 1_565 S
C128 C127 1.345 . S
C128 C129 1.424 . S
C129 H121 0.951 . S
C129 C128 1.424 . S
C129 C130 1.347 . S
C130 H122 0.951 . S
C130 C125 1.429 . S
C130 C129 1.347 . S
H131 C132 0.951 . S
C132 H131 0.951 . S
C132 C138 1.265 . S
H133 C138 0.950 1_655 S
H134 C142 0.949 . S
H135 C143 0.950 . S
H136 C144 0.951 . S
H137 C145 0.951 . S
C138 C132 1.265 . S
C138 H133 0.950 1_455 S
C138 C139 1.478 . S
C139 C126 1.394 . S
C139 C138 1.478 . S
C139 C140 1.397 . S
C140 C139 1.397 . S
C140 C141 1.438 . S
C140 C145 1.429 . S
C141 C124 1.394 . S
C141 C140 1.438 . S
C141 C142 1.428 . S
C142 H134 0.949 . S
C142 C141 1.428 . S
C142 C143 1.345 . S
C143 H135 0.950 . S
C143 C142 1.345 . S
C143 C144 1.424 . S
C144 H136 0.951 . S
C144 C143 1.424 . S
C144 C145 1.347 . S
C145 H137 0.951 . S
C145 C140 1.429 . S
C145 C144 1.347 . S
H146 C147 0.951 . S
C147 H146 0.951 . S
C147 C153 1.265 . S
H148 C153 0.950 . S
H149 C157 0.949 . S
H150 C158 0.950 . S
H151 C159 0.951 . S
H152 C160 0.951 . S
C153 C147 1.265 . S
C153 H148 0.950 . S
C153 C154 1.478 . S
C154 C153 1.478 . S
C154 C155 1.397 . S
C154 C171 1.394 . S
C155 C154 1.397 . S
C155 C156 1.438 . S
C155 C160 1.429 . S
C156 C155 1.438 . S
C156 C157 1.428 . S
C156 C169 1.394 . S
C157 H149 0.949 . S
C157 C156 1.428 . S
C157 C158 1.345 . S
C158 H150 0.950 . S
C158 C157 1.345 . S
C158 C159 1.424 . S
C159 H151 0.951 . S
C159 C158 1.424 . S
C159 C160 1.347 . S
C160 H152 0.951 . S
C160 C155 1.429 . S
C160 C159 1.347 . S
H161 C162 0.951 . S
C162 H161 0.951 . S
C162 C168 1.265 . S
H163 C168 0.950 . S
H164 C172 0.949 . S
H165 C173 0.950 . S
H166 C174 0.951 . S
H167 C175 0.951 . S
C168 C162 1.265 . S
C168 H163 0.950 . S
C168 C169 1.478 . S
C169 C156 1.394 . S
C169 C168 1.478 . S
C169 C170 1.397 . S
C170 C169 1.397 . S
C170 C171 1.438 . S
C170 C175 1.429 . S
C171 C154 1.394 . S
C171 C170 1.438 . S
C171 C172 1.428 . S
C172 H164 0.949 . S
C172 C171 1.428 . S
C172 C173 1.345 . S
C173 H165 0.950 . S
C173 C172 1.345 . S
C173 C174 1.424 . S
C174 H166 0.951 . S
C174 C173 1.424 . S
C174 C175 1.347 . S
C175 H167 0.951 . S
C175 C170 1.429 . S
C175 C174 1.347 . S
H176 C177 0.951 . S
C177 H176 0.951 . S
C177 C183 1.265 . S
H178 C183 0.950 . S
H179 C187 0.949 . S
H180 C188 0.950 . S
H181 C189 0.951 . S
H182 C190 0.951 . S
C183 C177 1.265 . S
C183 H178 0.950 . S
C183 C184 1.478 . S
C184 C183 1.478 . S
C184 C185 1.397 . S
C184 C201 1.394 . S
C185 C184 1.397 . S
C185 C186 1.438 . S
C185 C190 1.429 . S
C186 C185 1.438 . S
C186 C187 1.428 . S
C186 C199 1.394 . S
C187 H179 0.949 . S
C187 C186 1.428 . S
C187 C188 1.345 . S
C188 H180 0.950 . S
C188 C187 1.345 . S
C188 C189 1.424 . S
C189 H181 0.951 . S
C189 C188 1.424 . S
C189 C190 1.347 . S
C190 H182 0.951 . S
C190 C185 1.429 . S
C190 C189 1.347 . S
H191 C192 0.951 . S
C192 H191 0.951 . S
C192 C198 1.265 . S
H193 C198 0.950 . S
H194 C202 0.949 . S
H195 C203 0.950 . S
H196 C204 0.951 . S
H197 C205 0.951 . S
C198 C192 1.265 . S
C198 H193 0.950 . S
C198 C199 1.478 . S
C199 C186 1.394 . S
C199 C198 1.478 . S
C199 C200 1.397 . S
C200 C199 1.397 . S
C200 C201 1.438 . S
C200 C205 1.429 . S
C201 C184 1.394 . S
C201 C200 1.438 . S
C201 C202 1.428 . S
C202 H194 0.949 . S
C202 C201 1.428 . S
C202 C203 1.345 . S
C203 H195 0.950 . S
C203 C202 1.345 . S
C203 C204 1.424 . S
C204 H196 0.951 . S
C204 C203 1.424 . S
C204 C205 1.347 . S
C205 H197 0.951 . S
C205 C200 1.429 . S
C205 C204 1.347 . S
H206 C207 0.951 . S
C207 H206 0.951 . S
C207 C213 1.265 . S
H208 C213 0.950 1_554 S
H209 C217 0.949 . S
H210 C218 0.950 . S
H211 C219 0.951 . S
H212 C220 0.951 . S
C213 C207 1.265 . S
C213 H208 0.950 1_556 S
C213 C214 1.478 . S
C214 C213 1.478 . S
C214 C215 1.397 1_556 S
C214 C231 1.394 . S
C215 C214 1.397 1_554 S
C215 C216 1.438 1_554 S
C215 C220 1.429 . S
C216 C215 1.438 1_556 S
C216 C217 1.428 1_556 S
C216 C229 1.394 . S
C217 H209 0.949 . S
C217 C216 1.428 1_554 S
C217 C218 1.345 . S
C218 H210 0.950 . S
C218 C217 1.345 . S
C218 C219 1.424 . S
C219 H211 0.951 . S
C219 C218 1.424 . S
C219 C220 1.347 . S
C220 H212 0.951 . S
C220 C215 1.429 . S
C220 C219 1.347 . S
H221 C222 0.951 . S
C222 H221 0.951 . S
C222 C228 1.265 . S
H223 C228 0.950 . S
H224 C232 0.949 . S
H225 C233 0.950 . S
H226 C234 0.951 . S
H227 C235 0.951 . S
C228 C222 1.265 . S
C228 H223 0.950 . S
C228 C229 1.478 . S
C229 C216 1.394 . S
C229 C228 1.478 . S
C229 C230 1.397 . S
C230 C229 1.397 . S
C230 C231 1.438 . S
C230 C235 1.429 . S
C231 C214 1.394 . S
C231 C230 1.438 . S
C231 C232 1.428 . S
C232 H224 0.949 . S
C232 C231 1.428 . S
C232 C233 1.345 . S
C233 H225 0.950 . S
C233 C232 1.345 . S
C233 C234 1.424 . S
C234 H226 0.951 . S
C234 C233 1.424 . S
C234 C235 1.347 . S
C235 H227 0.951 . S
C235 C230 1.429 . S
C235 C234 1.347 . S
H236 C237 0.951 . S
C237 H236 0.951 . S
C237 C243 1.265 . S
H238 C243 0.950 1_554 S
H239 C247 0.949 . S
H240 C248 0.950 . S
H241 C249 0.951 . S
H242 C250 0.951 . S
C243 C237 1.265 . S
C243 H238 0.950 1_556 S
C243 C244 1.478 . S
C244 C243 1.478 . S
C244 C245 1.397 . S
C244 C261 1.394 . S
C245 C244 1.397 . S
C245 C246 1.438 . S
C245 C250 1.429 . S
C246 C245 1.438 . S
C246 C247 1.428 . S
C246 C259 1.394 . S
C247 H239 0.949 . S
C247 C246 1.428 . S
C247 C248 1.345 . S
C248 H240 0.950 . S
C248 C247 1.345 . S
C248 C249 1.424 . S
C249 H241 0.951 . S
C249 C248 1.424 . S
C249 C250 1.347 . S
C250 H242 0.951 . S
C250 C245 1.429 . S
C250 C249 1.347 . S
H251 C252 0.951 . S
C252 H251 0.951 . S
C252 C258 1.265 . S
H253 C258 0.950 . S
H254 C262 0.949 . S
H255 C263 0.950 . S
H256 C264 0.953 . S
H257 C265 0.951 . S
C258 C252 1.265 . S
C258 H253 0.950 . S
C258 C259 1.478 . S
C259 C246 1.394 . S
C259 C258 1.478 . S
C259 C260 1.397 . S
C260 C259 1.397 . S
C260 C261 1.438 . S
C260 C265 1.429 . S
C261 C244 1.394 . S
C261 C260 1.438 . S
C261 C262 1.428 1_556 S
C262 H254 0.949 . S
C262 C261 1.428 1_554 S
C262 C263 1.345 . S
C263 H255 0.950 . S
C263 C262 1.345 . S
C263 C264 1.424 1_554 S
C264 H256 0.953 . S
C264 C263 1.424 1_556 S
C264 C265 1.347 . S
C265 H257 0.951 . S
C265 C260 1.429 . S
C265 C264 1.347 . S
H266 C267 0.951 . S
C267 H266 0.951 . S
C267 C273 1.265 . S
H268 C273 0.950 1_455 S
H269 C277 0.949 . S
H270 C278 0.950 . S
H271 C279 0.951 . S
H272 C280 0.951 . S
C273 C267 1.265 . S
C273 H268 0.950 1_655 S
C273 C274 1.478 . S
C274 C273 1.478 . S
C274 C275 1.397 . S
C274 C291 1.394 . S
C275 C274 1.397 . S
C275 C276 1.438 . S
C275 C280 1.429 . S
C276 C275 1.438 . S
C276 C277 1.428 . S
C276 C289 1.394 . S
C277 H269 0.949 . S
C277 C276 1.428 . S
C277 C278 1.345 . S
C278 H270 0.950 . S
C278 C277 1.345 . S
C278 C279 1.424 . S
C279 H271 0.951 . S
C279 C278 1.424 . S
C279 C280 1.347 . S
C280 H272 0.951 . S
C280 C275 1.429 . S
C280 C279 1.347 . S
H281 C282 0.951 . S
C282 H281 0.951 . S
C282 C288 1.265 . S
H283 C288 0.950 . S
H284 C292 0.949 . S
H285 C293 0.950 . S
H286 C294 0.951 . S
H287 C295 0.951 . S
C288 C282 1.265 . S
C288 H283 0.950 . S
C288 C289 1.478 . S
C289 C276 1.394 . S
C289 C288 1.478 . S
C289 C290 1.397 . S
C290 C289 1.397 . S
C290 C291 1.438 . S
C290 C295 1.429 . S
C291 C274 1.394 . S
C291 C290 1.438 . S
C291 C292 1.428 . S
C292 H284 0.949 . S
C292 C291 1.428 . S
C292 C293 1.345 1_556 S
C293 H285 0.950 . S
C293 C292 1.345 1_554 S
C293 C294 1.424 . S
C294 H286 0.951 . S
C294 C293 1.424 . S
C294 C295 1.347 1_554 S
C295 H287 0.951 . S
C295 C290 1.429 . S
C295 C294 1.347 1_556 S
H296 C297 0.951 . S
C297 H296 0.951 . S
C297 C303 1.266 1_556 S
H298 C303 0.947 . S
H299 C307 0.949 . S
H300 C308 0.950 . S
H301 C309 0.951 . S
H302 C310 0.951 . S
C303 C297 1.266 1_554 S
C303 H298 0.947 . S
C303 C304 1.479 1_554 S
C304 C303 1.479 1_556 S
C304 C305 1.397 . S
C304 C321 1.394 . S
C305 C304 1.397 . S
C305 C306 1.438 . S
C305 C310 1.429 1_556 S
C306 C305 1.438 . S
C306 C307 1.428 . S
C306 C319 1.394 . S
C307 H299 0.949 . S
C307 C306 1.428 . S
C307 C308 1.345 1_556 S
C308 H300 0.950 . S
C308 C307 1.345 1_554 S
C308 C309 1.424 . S
C309 H301 0.951 . S
C309 C308 1.424 . S
C309 C310 1.347 . S
C310 H302 0.951 . S
C310 C305 1.429 1_554 S
C310 C309 1.347 . S
H311 C312 0.951 . S
C312 H311 0.951 . S
C312 C318 1.265 . S
H313 C318 0.950 . S
H314 C322 0.949 . S
H315 C323 0.950 . S
H316 C324 0.951 . S
H317 C325 0.951 . S
C318 C312 1.265 . S
C318 H313 0.950 . S
C318 C319 1.478 . S
C319 C306 1.394 . S
C319 C318 1.478 . S
C319 C320 1.397 . S
C320 C319 1.397 . S
C320 C321 1.438 . S
C320 C325 1.429 . S
C321 C304 1.394 . S
C321 C320 1.438 . S
C321 C322 1.428 . S
C322 H314 0.949 . S
C322 C321 1.428 . S
C322 C323 1.345 . S
C323 H315 0.950 . S
C323 C322 1.345 . S
C323 C324 1.424 . S
C324 H316 0.951 . S
C324 C323 1.424 . S
C324 C325 1.347 . S
C325 H317 0.951 . S
C325 C320 1.429 . S
C325 C324 1.347 . S
H326 C327 0.951 . S
C327 H326 0.951 . S
C327 C333 1.265 . S
H328 C333 0.950 . S
H329 C337 0.949 . S
H330 C338 0.950 . S
H331 C339 0.951 . S
H332 C340 0.951 . S
C333 C327 1.265 . S
C333 H328 0.950 . S
C333 C334 1.478 . S
C334 C333 1.478 . S
C334 C335 1.397 . S
C334 C351 1.394 . S
C335 C334 1.397 . S
C335 C336 1.438 . S
C335 C340 1.429 . S
C336 C335 1.438 . S
C336 C337 1.428 . S
C336 C349 1.394 . S
C337 H329 0.949 . S
C337 C336 1.428 . S
C337 C338 1.345 . S
C338 H330 0.950 . S
C338 C337 1.345 . S
C338 C339 1.424 . S
C339 H331 0.951 . S
C339 C338 1.424 . S
C339 C340 1.347 . S
C340 H332 0.951 . S
C340 C335 1.429 . S
C340 C339 1.347 . S
H341 C342 0.951 1_455 S
C342 H341 0.951 1_655 S
C342 C348 1.265 . S
H343 C348 0.950 . S
H344 C352 0.949 . S
H345 C353 0.950 . S
H346 C354 0.951 . S
H347 C355 0.951 . S
C348 C342 1.265 . S
C348 H343 0.950 . S
C348 C349 1.478 . S
C349 C336 1.394 . S
C349 C348 1.478 . S
C349 C350 1.397 . S
C350 C349 1.397 . S
C350 C351 1.438 . S
C350 C355 1.429 . S
C351 C334 1.394 . S
C351 C350 1.438 . S
C351 C352 1.428 . S
C352 H344 0.949 . S
C352 C351 1.428 . S
C352 C353 1.345 . S
C353 H345 0.950 . S
C353 C352 1.345 . S
C353 C354 1.424 . S
C354 H346 0.951 . S
C354 C353 1.424 . S
C354 C355 1.347 . S
C355 H347 0.951 . S
C355 C350 1.429 . S
C355 C354 1.347 . S
H356 C357 0.951 . S
C357 H356 0.951 . S
C357 C363 1.265 . S
H358 C363 0.950 . S
H359 C367 0.949 . S
H360 C368 0.950 . S
H361 C369 0.951 . S
H362 C370 0.951 . S
C363 C357 1.265 . S
C363 H358 0.950 . S
C363 C364 1.478 . S
C364 C363 1.478 . S
C364 C365 1.397 . S
C364 C381 1.394 . S
C365 C364 1.397 . S
C365 C366 1.438 . S
C365 C370 1.429 . S
C366 C365 1.438 . S
C366 C367 1.428 . S
C366 C379 1.394 . S
C367 H359 0.949 . S
C367 C366 1.428 . S
C367 C368 1.345 . S
C368 H360 0.950 . S
C368 C367 1.345 . S
C368 C369 1.424 . S
C369 H361 0.951 . S
C369 C368 1.424 . S
C369 C370 1.347 . S
C370 H362 0.951 . S
C370 C365 1.429 . S
C370 C369 1.347 . S
H371 C372 0.951 . S
C372 H371 0.951 . S
C372 C378 1.265 . S
H373 C378 0.950 . S
H374 C382 0.949 . S
H375 C383 0.950 . S
H376 C384 0.951 . S
H377 C385 0.951 . S
C378 C372 1.265 . S
C378 H373 0.950 . S
C378 C379 1.478 . S
C379 C366 1.394 . S
C379 C378 1.478 . S
C379 C380 1.397 . S
C380 C379 1.397 . S
C380 C381 1.438 . S
C380 C385 1.429 . S
C381 C364 1.394 . S
C381 C380 1.438 . S
C381 C382 1.428 . S
C382 H374 0.949 . S
C382 C381 1.428 . S
C382 C383 1.345 . S
C383 H375 0.950 . S
C383 C382 1.345 . S
C383 C384 1.424 . S
C384 H376 0.951 . S
C384 C383 1.424 . S
C384 C385 1.347 . S
C385 H377 0.951 . S
C385 C380 1.429 . S
C385 C384 1.347 . S
H386 C387 0.951 . S
C387 H386 0.951 . S
C387 C393 1.265 . S
H388 C393 0.950 . S
H389 C397 0.949 . S
H390 C398 0.950 . S
H391 C399 0.951 . S
H392 C400 0.951 . S
C393 C387 1.265 . S
C393 H388 0.950 . S
C393 C394 1.478 . S
C394 C393 1.478 . S
C394 C395 1.397 . S
C394 C411 1.394 . S
C395 C394 1.397 . S
C395 C396 1.438 . S
C395 C400 1.429 . S
C396 C395 1.438 . S
C396 C397 1.428 . S
C396 C409 1.394 . S
C397 H389 0.949 . S
C397 C396 1.428 . S
C397 C398 1.345 . S
C398 H390 0.950 . S
C398 C397 1.345 . S
C398 C399 1.424 . S
C399 H391 0.951 . S
C399 C398 1.424 . S
C399 C400 1.347 . S
C400 H392 0.951 . S
C400 C395 1.429 . S
C400 C399 1.347 . S
H401 C402 0.951 . S
C402 H401 0.951 . S
C402 C408 1.265 . S
H403 C408 0.950 . S
H404 C412 0.949 . S
H405 C413 0.950 . S
H406 C414 0.951 . S
H407 C415 0.951 . S
C408 C402 1.265 . S
C408 H403 0.950 . S
C408 C409 1.478 . S
C409 C396 1.394 . S
C409 C408 1.478 . S
C409 C410 1.397 . S
C410 C409 1.397 . S
C410 C411 1.438 . S
C410 C415 1.429 . S
C411 C394 1.394 . S
C411 C410 1.438 . S
C411 C412 1.428 . S
C412 H404 0.949 . S
C412 C411 1.428 . S
C412 C413 1.345 . S
C413 H405 0.950 . S
C413 C412 1.345 . S
C413 C414 1.424 . S
C414 H406 0.951 . S
C414 C413 1.424 . S
C414 C415 1.347 . S
C415 H407 0.951 . S
C415 C410 1.429 . S
C415 C414 1.347 . S
H416 C417 0.951 . S
C417 H416 0.951 . S
C417 C423 1.265 . S
H418 C423 0.950 . S
H419 C427 0.949 . S
H420 C428 0.950 . S
H421 C429 0.951 . S
H422 C430 0.951 . S
C423 C417 1.265 . S
C423 H418 0.950 . S
C423 C424 1.478 . S
C424 C423 1.478 . S
C424 C425 1.397 . S
C424 C441 1.394 . S
C425 C424 1.397 . S
C425 C426 1.438 . S
C425 C430 1.429 . S
C426 C425 1.438 . S
C426 C427 1.428 . S
C426 C439 1.394 . S
C427 H419 0.949 . S
C427 C426 1.428 . S
C427 C428 1.345 . S
C428 H420 0.950 . S
C428 C427 1.345 . S
C428 C429 1.424 . S
C429 H421 0.951 . S
C429 C428 1.424 . S
C429 C430 1.347 . S
C430 H422 0.951 . S
C430 C425 1.429 . S
C430 C429 1.347 . S
H431 C432 0.951 . S
C432 H431 0.951 . S
C432 C438 1.265 . S
H433 C438 0.950 . S
H434 C442 0.949 . S
H435 C443 0.950 . S
H436 C444 0.951 . S
H437 C445 0.951 . S
C438 C432 1.265 . S
C438 H433 0.950 . S
C438 C439 1.478 . S
C439 C426 1.394 . S
C439 C438 1.478 . S
C439 C440 1.397 . S
C440 C439 1.397 . S
C440 C441 1.438 . S
C440 C445 1.429 . S
C441 C424 1.394 . S
C441 C440 1.438 . S
C441 C442 1.428 . S
C442 H434 0.949 . S
C442 C441 1.428 . S
C442 C443 1.345 . S
C443 H435 0.950 . S
C443 C442 1.345 . S
C443 C444 1.424 . S
C444 H436 0.951 . S
C444 C443 1.424 . S
C444 C445 1.347 . S
C445 H437 0.951 . S
C445 C440 1.429 . S
C445 C444 1.347 . S
C102 C51 1.471 . S
C87 C8 1.505 . S
C132 C47 1.406 . S
C117 C19 1.514 . S
C162 C72 1.500 . S
C147 C30 1.482 . S
C177 C41 1.513 . S
C192 C68 1.374 . S
C207 C7 1.241 1_556 S
C222 C69 1.201 . S
C252 C84 1.067 . S
C237 C16 1.074 . S
C267 C5 1.426 1_655 S
C282 C85 1.596 . S
C312 C81 1.602 . S
C297 C18 1.763 1_556 S
C342 C48 1.055 1_655 S
C327 C29 1.215 . S
C357 C38 1.129 . S
C372 C63 1.150 . S
C402 C64 1.504 . S
C387 C27 1.395 . S
C432 C60 1.685 . S
C417 C40 1.727 . S
