# Generated by pormake.
# Topology gar, (4,6)-cn, num edge types: 1
# Building blocks:
#     Node 0, Type 0, BuildingBlock: UXUYUI_clean_sbu_0, # of connection points: 4
#     Node 1, Type 0, BuildingBlock: UXUYUI_clean_sbu_0, # of connection points: 4
#     Node 2, Type 0, BuildingBlock: UXUYUI_clean_sbu_0, # of connection points: 4
#     Node 3, Type 0, BuildingBlock: UXUYUI_clean_sbu_0, # of connection points: 4
#     Node 4, Type 0, BuildingBlock: UXUYUI_clean_sbu_0, # of connection points: 4
#     Node 5, Type 0, BuildingBlock: UXUYUI_clean_sbu_0, # of connection points: 4
#     Node 6, Type 0, BuildingBlock: UXUYUI_clean_sbu_0, # of connection points: 4
#     Node 7, Type 0, BuildingBlock: UXUYUI_clean_sbu_0, # of connection points: 4
#     Node 8, Type 0, BuildingBlock: UXUYUI_clean_sbu_0, # of connection points: 4
#     Node 9, Type 0, BuildingBlock: UXUYUI_clean_sbu_0, # of connection points: 4
#     Node 10, Type 0, BuildingBlock: UXUYUI_clean_sbu_0, # of connection points: 4
#     Node 11, Type 0, BuildingBlock: UXUYUI_clean_sbu_0, # of connection points: 4
#     Node 12, Type 0, BuildingBlock: UXUYUI_clean_sbu_0, # of connection points: 4
#     Node 13, Type 0, BuildingBlock: UXUYUI_clean_sbu_0, # of connection points: 4
#     Node 14, Type 0, BuildingBlock: UXUYUI_clean_sbu_0, # of connection points: 4
#     Node 15, Type 0, BuildingBlock: UXUYUI_clean_sbu_0, # of connection points: 4
#     Node 16, Type 0, BuildingBlock: UXUYUI_clean_sbu_0, # of connection points: 4
#     Node 17, Type 0, BuildingBlock: UXUYUI_clean_sbu_0, # of connection points: 4
#     Node 18, Type 0, BuildingBlock: UXUYUI_clean_sbu_0, # of connection points: 4
#     Node 19, Type 0, BuildingBlock: UXUYUI_clean_sbu_0, # of connection points: 4
#     Node 20, Type 0, BuildingBlock: UXUYUI_clean_sbu_0, # of connection points: 4
#     Node 21, Type 0, BuildingBlock: UXUYUI_clean_sbu_0, # of connection points: 4
#     Node 22, Type 0, BuildingBlock: UXUYUI_clean_sbu_0, # of connection points: 4
#     Node 23, Type 0, BuildingBlock: UXUYUI_clean_sbu_0, # of connection points: 4
#     Node 24, Type 1, BuildingBlock: BETDEL_clean_sbu_0, # of connection points: 6
#     Node 25, Type 1, BuildingBlock: BETDEL_clean_sbu_0, # of connection points: 6
#     Node 26, Type 1, BuildingBlock: BETDEL_clean_sbu_0, # of connection points: 6
#     Node 27, Type 1, BuildingBlock: BETDEL_clean_sbu_0, # of connection points: 6
#     Node 28, Type 1, BuildingBlock: BETDEL_clean_sbu_0, # of connection points: 6
#     Node 29, Type 1, BuildingBlock: BETDEL_clean_sbu_0, # of connection points: 6
#     Node 30, Type 1, BuildingBlock: BETDEL_clean_sbu_0, # of connection points: 6
#     Node 31, Type 1, BuildingBlock: BETDEL_clean_sbu_0, # of connection points: 6
#     Node 32, Type 1, BuildingBlock: BETDEL_clean_sbu_0, # of connection points: 6
#     Node 33, Type 1, BuildingBlock: BETDEL_clean_sbu_0, # of connection points: 6
#     Node 34, Type 1, BuildingBlock: BETDEL_clean_sbu_0, # of connection points: 6
#     Node 35, Type 1, BuildingBlock: BETDEL_clean_sbu_0, # of connection points: 6
#     Node 36, Type 1, BuildingBlock: BETDEL_clean_sbu_0, # of connection points: 6
#     Node 37, Type 1, BuildingBlock: BETDEL_clean_sbu_0, # of connection points: 6
#     Node 38, Type 1, BuildingBlock: BETDEL_clean_sbu_0, # of connection points: 6
#     Node 39, Type 1, BuildingBlock: BETDEL_clean_sbu_0, # of connection points: 6
#     Edge 40, Type (0, 1), BuildingBlock: XUDNAN_clean_linker_2, # of connection points: 2
#     Edge 41, Type (0, 1), BuildingBlock: XUDNAN_clean_linker_2, # of connection points: 2
#     Edge 42, Type (0, 1), BuildingBlock: XUDNAN_clean_linker_2, # of connection points: 2
#     Edge 43, Type (0, 1), BuildingBlock: XUDNAN_clean_linker_2, # of connection points: 2
#     Edge 44, Type (0, 1), BuildingBlock: XUDNAN_clean_linker_2, # of connection points: 2
#     Edge 45, Type (0, 1), BuildingBlock: XUDNAN_clean_linker_2, # of connection points: 2
#     Edge 46, Type (0, 1), BuildingBlock: XUDNAN_clean_linker_2, # of connection points: 2
#     Edge 47, Type (0, 1), BuildingBlock: XUDNAN_clean_linker_2, # of connection points: 2
#     Edge 48, Type (0, 1), BuildingBlock: XUDNAN_clean_linker_2, # of connection points: 2
#     Edge 49, Type (0, 1), BuildingBlock: XUDNAN_clean_linker_2, # of connection points: 2
#     Edge 50, Type (0, 1), BuildingBlock: XUDNAN_clean_linker_2, # of connection points: 2
#     Edge 51, Type (0, 1), BuildingBlock: XUDNAN_clean_linker_2, # of connection points: 2
#     Edge 52, Type (0, 1), BuildingBlock: XUDNAN_clean_linker_2, # of connection points: 2
#     Edge 53, Type (0, 1), BuildingBlock: XUDNAN_clean_linker_2, # of connection points: 2
#     Edge 54, Type (0, 1), BuildingBlock: XUDNAN_clean_linker_2, # of connection points: 2
#     Edge 55, Type (0, 1), BuildingBlock: XUDNAN_clean_linker_2, # of connection points: 2
#     Edge 56, Type (0, 1), BuildingBlock: XUDNAN_clean_linker_2, # of connection points: 2
#     Edge 57, Type (0, 1), BuildingBlock: XUDNAN_clean_linker_2, # of connection points: 2
#     Edge 58, Type (0, 1), BuildingBlock: XUDNAN_clean_linker_2, # of connection points: 2
#     Edge 59, Type (0, 1), BuildingBlock: XUDNAN_clean_linker_2, # of connection points: 2
#     Edge 60, Type (0, 1), BuildingBlock: XUDNAN_clean_linker_2, # of connection points: 2
#     Edge 61, Type (0, 1), BuildingBlock: XUDNAN_clean_linker_2, # of connection points: 2
#     Edge 62, Type (0, 1), BuildingBlock: XUDNAN_clean_linker_2, # of connection points: 2
#     Edge 63, Type (0, 1), BuildingBlock: XUDNAN_clean_linker_2, # of connection points: 2
#     Edge 64, Type (0, 1), BuildingBlock: XUDNAN_clean_linker_2, # of connection points: 2
#     Edge 65, Type (0, 1), BuildingBlock: XUDNAN_clean_linker_2, # of connection points: 2
#     Edge 66, Type (0, 1), BuildingBlock: XUDNAN_clean_linker_2, # of connection points: 2
#     Edge 67, Type (0, 1), BuildingBlock: XUDNAN_clean_linker_2, # of connection points: 2
#     Edge 68, Type (0, 1), BuildingBlock: XUDNAN_clean_linker_2, # of connection points: 2
#     Edge 69, Type (0, 1), BuildingBlock: XUDNAN_clean_linker_2, # of connection points: 2
#     Edge 70, Type (0, 1), BuildingBlock: XUDNAN_clean_linker_2, # of connection points: 2
#     Edge 71, Type (0, 1), BuildingBlock: XUDNAN_clean_linker_2, # of connection points: 2
#     Edge 72, Type (0, 1), BuildingBlock: XUDNAN_clean_linker_2, # of connection points: 2
#     Edge 73, Type (0, 1), BuildingBlock: XUDNAN_clean_linker_2, # of connection points: 2
#     Edge 74, Type (0, 1), BuildingBlock: XUDNAN_clean_linker_2, # of connection points: 2
#     Edge 75, Type (0, 1), BuildingBlock: XUDNAN_clean_linker_2, # of connection points: 2
#     Edge 76, Type (0, 1), BuildingBlock: XUDNAN_clean_linker_2, # of connection points: 2
#     Edge 77, Type (0, 1), BuildingBlock: XUDNAN_clean_linker_2, # of connection points: 2
#     Edge 78, Type (0, 1), BuildingBlock: XUDNAN_clean_linker_2, # of connection points: 2
#     Edge 79, Type (0, 1), BuildingBlock: XUDNAN_clean_linker_2, # of connection points: 2
#     Edge 80, Type (0, 1), BuildingBlock: XUDNAN_clean_linker_2, # of connection points: 2
#     Edge 81, Type (0, 1), BuildingBlock: XUDNAN_clean_linker_2, # of connection points: 2
#     Edge 82, Type (0, 1), BuildingBlock: XUDNAN_clean_linker_2, # of connection points: 2
#     Edge 83, Type (0, 1), BuildingBlock: XUDNAN_clean_linker_2, # of connection points: 2
#     Edge 84, Type (0, 1), BuildingBlock: XUDNAN_clean_linker_2, # of connection points: 2
#     Edge 85, Type (0, 1), BuildingBlock: XUDNAN_clean_linker_2, # of connection points: 2
#     Edge 86, Type (0, 1), BuildingBlock: XUDNAN_clean_linker_2, # of connection points: 2
#     Edge 87, Type (0, 1), BuildingBlock: XUDNAN_clean_linker_2, # of connection points: 2
#     Edge 88, Type (0, 1), BuildingBlock: XUDNAN_clean_linker_2, # of connection points: 2
#     Edge 89, Type (0, 1), BuildingBlock: XUDNAN_clean_linker_2, # of connection points: 2
#     Edge 90, Type (0, 1), BuildingBlock: XUDNAN_clean_linker_2, # of connection points: 2
#     Edge 91, Type (0, 1), BuildingBlock: XUDNAN_clean_linker_2, # of connection points: 2
#     Edge 92, Type (0, 1), BuildingBlock: XUDNAN_clean_linker_2, # of connection points: 2
#     Edge 93, Type (0, 1), BuildingBlock: XUDNAN_clean_linker_2, # of connection points: 2
#     Edge 94, Type (0, 1), BuildingBlock: XUDNAN_clean_linker_2, # of connection points: 2
#     Edge 95, Type (0, 1), BuildingBlock: XUDNAN_clean_linker_2, # of connection points: 2
#     Edge 96, Type (0, 1), BuildingBlock: XUDNAN_clean_linker_2, # of connection points: 2
#     Edge 97, Type (0, 1), BuildingBlock: XUDNAN_clean_linker_2, # of connection points: 2
#     Edge 98, Type (0, 1), BuildingBlock: XUDNAN_clean_linker_2, # of connection points: 2
#     Edge 99, Type (0, 1), BuildingBlock: XUDNAN_clean_linker_2, # of connection points: 2
#     Edge 100, Type (0, 1), BuildingBlock: XUDNAN_clean_linker_2, # of connection points: 2
#     Edge 101, Type (0, 1), BuildingBlock: XUDNAN_clean_linker_2, # of connection points: 2
#     Edge 102, Type (0, 1), BuildingBlock: XUDNAN_clean_linker_2, # of connection points: 2
#     Edge 103, Type (0, 1), BuildingBlock: XUDNAN_clean_linker_2, # of connection points: 2
#     Edge 104, Type (0, 1), BuildingBlock: XUDNAN_clean_linker_2, # of connection points: 2
#     Edge 105, Type (0, 1), BuildingBlock: XUDNAN_clean_linker_2, # of connection points: 2
#     Edge 106, Type (0, 1), BuildingBlock: XUDNAN_clean_linker_2, # of connection points: 2
#     Edge 107, Type (0, 1), BuildingBlock: XUDNAN_clean_linker_2, # of connection points: 2
#     Edge 108, Type (0, 1), BuildingBlock: XUDNAN_clean_linker_2, # of connection points: 2
#     Edge 109, Type (0, 1), BuildingBlock: XUDNAN_clean_linker_2, # of connection points: 2
#     Edge 110, Type (0, 1), BuildingBlock: XUDNAN_clean_linker_2, # of connection points: 2
#     Edge 111, Type (0, 1), BuildingBlock: XUDNAN_clean_linker_2, # of connection points: 2
#     Edge 112, Type (0, 1), BuildingBlock: XUDNAN_clean_linker_2, # of connection points: 2
#     Edge 113, Type (0, 1), BuildingBlock: XUDNAN_clean_linker_2, # of connection points: 2
#     Edge 114, Type (0, 1), BuildingBlock: XUDNAN_clean_linker_2, # of connection points: 2
#     Edge 115, Type (0, 1), BuildingBlock: XUDNAN_clean_linker_2, # of connection points: 2
#     Edge 116, Type (0, 1), BuildingBlock: XUDNAN_clean_linker_2, # of connection points: 2
#     Edge 117, Type (0, 1), BuildingBlock: XUDNAN_clean_linker_2, # of connection points: 2
#     Edge 118, Type (0, 1), BuildingBlock: XUDNAN_clean_linker_2, # of connection points: 2
#     Edge 119, Type (0, 1), BuildingBlock: XUDNAN_clean_linker_2, # of connection points: 2
#     Edge 120, Type (0, 1), BuildingBlock: XUDNAN_clean_linker_2, # of connection points: 2
#     Edge 121, Type (0, 1), BuildingBlock: XUDNAN_clean_linker_2, # of connection points: 2
#     Edge 122, Type (0, 1), BuildingBlock: XUDNAN_clean_linker_2, # of connection points: 2
#     Edge 123, Type (0, 1), BuildingBlock: XUDNAN_clean_linker_2, # of connection points: 2
#     Edge 124, Type (0, 1), BuildingBlock: XUDNAN_clean_linker_2, # of connection points: 2
#     Edge 125, Type (0, 1), BuildingBlock: XUDNAN_clean_linker_2, # of connection points: 2
#     Edge 126, Type (0, 1), BuildingBlock: XUDNAN_clean_linker_2, # of connection points: 2
#     Edge 127, Type (0, 1), BuildingBlock: XUDNAN_clean_linker_2, # of connection points: 2
#     Edge 128, Type (0, 1), BuildingBlock: XUDNAN_clean_linker_2, # of connection points: 2
#     Edge 129, Type (0, 1), BuildingBlock: XUDNAN_clean_linker_2, # of connection points: 2
#     Edge 130, Type (0, 1), BuildingBlock: XUDNAN_clean_linker_2, # of connection points: 2
#     Edge 131, Type (0, 1), BuildingBlock: XUDNAN_clean_linker_2, # of connection points: 2
#     Edge 132, Type (0, 1), BuildingBlock: XUDNAN_clean_linker_2, # of connection points: 2
#     Edge 133, Type (0, 1), BuildingBlock: XUDNAN_clean_linker_2, # of connection points: 2
#     Edge 134, Type (0, 1), BuildingBlock: XUDNAN_clean_linker_2, # of connection points: 2
#     Edge 135, Type (0, 1), BuildingBlock: XUDNAN_clean_linker_2, # of connection points: 2
# Relax obj value: 0.173
# Max RMSD: 0.262
# Mean RMSD: 0.194
data_MOF--net-gar--node1-UXUYUI_clean_sbu_0--node2-BETDEL_clean_sbu_0--edge1-XUDNAN_clean_linker_2
_symmetry_space_group_name_H-M    P1
_symmetry_Int_Tables_number       1
_symmetry_cell_setting            triclinic
loop_
_symmetry_equiv_pos_as_xyz
'x, y, z'
_cell_length_a     68.269823
_cell_length_b     65.755449
_cell_length_c     67.06792
_cell_angle_alpha  95.263224
_cell_angle_beta   92.510204
_cell_angle_gamma 100.17374
loop_
_atom_site_label
_atom_site_type_symbol
_atom_site_fract_x
_atom_site_fract_y
_atom_site_fract_z
_atom_type_partial_charge
Li0 Li 0.00807 0.2642 0.37806 0.0
Li1 Li 0.03083 0.28897 0.40178 0.0
Li2 Li 0.04347 0.26577 0.37672 0.0
Li3 Li 0.02678 0.25218 0.40551 0.0
C4 C 0.03644 0.29672 0.35638 0.0
N5 N 0.05398 0.3147 0.32436 0.0
C6 C 0.04952 0.31579 0.35956 0.0
C7 C 0.03238 0.28675 0.33694 0.0
C8 C 0.05817 0.32467 0.34315 0.0
C9 C 0.04141 0.29607 0.32096 0.0
C10 C 0.99714 0.28214 0.41961 0.0
C11 C 0.99351 0.29912 0.45234 0.0
N12 N 0.97969 0.30901 0.44419 0.0
C13 C 0.98289 0.29247 0.41156 0.0
C14 C 0.0025 0.28548 0.44017 0.0
C15 C 0.97424 0.30599 0.42424 0.0
C16 C 0.96704 0.2492 0.37234 0.0
N17 N 0.98255 0.26132 0.36465 0.0
C18 C 0.96023 0.27512 0.34345 0.0
C19 C 0.97955 0.27392 0.35027 0.0
C20 C 0.9439 0.26351 0.3518 0.0
C21 C 0.94747 0.25 0.36604 0.0
H22 H 0.96986 0.23983 0.38421 0.0
H23 H 0.99206 0.284 0.34498 0.0
C24 C 0.04025 0.3228 0.43355 0.0
N25 N 0.03253 0.31635 0.41451 0.0
C26 C 0.03722 0.34181 0.44296 0.0
C27 C 0.01942 0.34746 0.4126 0.0
C28 C 0.02263 0.3284 0.4039 0.0
C29 C 0.02618 0.35414 0.43259 0.0
H30 H 0.04781 0.31277 0.44177 0.0
H31 H 0.01637 0.32274 0.38891 0.0
C32 C 0.00821 0.22522 0.36734 0.0
N33 N 0.97778 0.19531 0.34852 0.0
C34 C 0.99741 0.21043 0.3783 0.0
C35 C 0.00355 0.2247 0.34676 0.0
C36 C 0.98208 0.19546 0.36853 0.0
C37 C 0.98811 0.20949 0.33754 0.0
C38 C 0.06396 0.26526 0.41911 0.0
C39 C 0.07826 0.2539 0.41232 0.0
C40 C 0.06131 0.26824 0.43965 0.0
C41 C 0.08965 0.24561 0.42624 0.0
C42 C 0.07296 0.25966 0.45308 0.0
N43 N 0.08677 0.24862 0.44616 0.0
C44 C 0.08237 0.27696 0.36333 0.0
C45 C 0.06117 0.25008 0.34268 0.0
C46 C 0.09801 0.27573 0.35074 0.0
N47 N 0.06449 0.26407 0.3592 0.0
C48 C 0.07623 0.24855 0.32953 0.0
C49 C 0.09511 0.26127 0.33358 0.0
H50 H 0.08455 0.28801 0.37657 0.0
H51 H 0.04679 0.24011 0.33969 0.0
C52 C 0.00947 0.23032 0.43641 0.0
N53 N 0.02474 0.23144 0.42398 0.0
C54 C 0.00555 0.21398 0.44838 0.0
C55 C 0.03336 0.20031 0.43488 0.0
C56 C 0.03669 0.2169 0.42305 0.0
C57 C 0.01733 0.19849 0.44744 0.0
H58 H 0.99974 0.24158 0.4364 0.0
H59 H 0.04828 0.2177 0.41252 0.0
O60 O 0.02751 0.28795 0.3722 0.0
O61 O 0.00621 0.26928 0.40737 0.0
O62 O 0.0231 0.24023 0.3767 0.0
O63 O 0.05253 0.27333 0.40572 0.0
H64 H 0.05291 0.32368 0.37451 0.0
H65 H 0.0224 0.27194 0.33423 0.0
H66 H 0.06822 0.33948 0.34536 0.0
H67 H 0.03841 0.2885 0.30584 0.0
H68 H 0.99761 0.30193 0.46825 0.0
H69 H 0.97874 0.29036 0.39567 0.0
H70 H 0.01372 0.27788 0.44663 0.0
H71 H 0.96326 0.31416 0.41819 0.0
H72 H 0.95811 0.28598 0.33269 0.0
H73 H 0.93527 0.24072 0.37275 0.0
H74 H 0.04259 0.34629 0.45845 0.0
H75 H 0.01121 0.35661 0.40387 0.0
H76 H 0.00067 0.21053 0.39421 0.0
H77 H 0.01157 0.23607 0.33802 0.0
H78 H 0.97356 0.18399 0.37687 0.0
H79 H 0.9843 0.209 0.32165 0.0
H80 H 0.08042 0.25131 0.39648 0.0
H81 H 0.0502 0.27685 0.44513 0.0
H82 H 0.10073 0.23672 0.42121 0.0
H83 H 0.07098 0.26174 0.46901 0.0
H84 H 0.1123 0.28569 0.35472 0.0
H85 H 0.07304 0.2375 0.3163 0.0
H86 H 0.99306 0.21318 0.45787 0.0
H87 H 0.04257 0.18849 0.43343 0.0
Li88 Li 0.00101 0.79779 0.61771 0.0
Li89 Li 0.01621 0.78031 0.64461 0.0
Li90 Li 0.99516 0.76019 0.61754 0.0
Li91 Li 0.98021 0.78009 0.64306 0.0
C92 C 0.03121 0.7709 0.60138 0.0
N93 N 0.05173 0.75235 0.5724 0.0
C94 C 0.05006 0.76655 0.60624 0.0
C95 C 0.02288 0.76599 0.58175 0.0
C96 C 0.06018 0.75713 0.59139 0.0
C97 C 0.03346 0.75656 0.56732 0.0
C98 C 0.01514 0.82234 0.6556 0.0
C99 C 0.02575 0.85016 0.68191 0.0
N100 N 0.04131 0.85779 0.6711 0.0
C101 C 0.03125 0.8304 0.64477 0.0
C102 C 0.01234 0.83226 0.67432 0.0
C103 C 0.0443 0.84838 0.65285 0.0
C104 C 0.99378 0.8363 0.60695 0.0
N105 N 0.00391 0.82069 0.60207 0.0
C106 C 0.0175 0.83765 0.57443 0.0
C107 C 0.01579 0.82116 0.58632 0.0
C108 C 0.00706 0.8539 0.57895 0.0
C109 C 0.99522 0.85321 0.59558 0.0
H110 H 0.98448 0.8355 0.61961 0.0
H111 H 0.02389 0.80871 0.58293 0.0
C112 C 0.04236 0.75789 0.65883 0.0
N113 N 0.03949 0.7779 0.66026 0.0
C114 C 0.06028 0.75308 0.66576 0.0
C115 C 0.07164 0.78936 0.67724 0.0
C116 C 0.05344 0.79357 0.66976 0.0
C117 C 0.07532 0.76898 0.67458 0.0
H118 H 0.03103 0.74573 0.65138 0.0
H119 H 0.0509 0.80935 0.67082 0.0
C120 C 0.96175 0.7705 0.59804 0.0
N121 N 0.93412 0.75486 0.56662 0.0
C122 C 0.94379 0.75785 0.60158 0.0
C123 C 0.96557 0.77544 0.57859 0.0
C124 C 0.93003 0.75004 0.58547 0.0
C125 C 0.95144 0.76729 0.56288 0.0
C126 C 0.99303 0.75146 0.66557 0.0
C127 C 0.98913 0.73058 0.6692 0.0
C128 C 0.99581 0.76695 0.68169 0.0
C129 C 0.98801 0.72553 0.68895 0.0
C130 C 0.99457 0.76127 0.70122 0.0
N131 N 0.99073 0.74085 0.70442 0.0
C132 C 0.00919 0.72476 0.60867 0.0
C133 C 0.97886 0.72272 0.58949 0.0
C134 C 0.01068 0.70471 0.60128 0.0
N135 N 0.99352 0.73342 0.60283 0.0
C136 C 0.97956 0.70226 0.58189 0.0
C137 C 0.99552 0.69289 0.58807 0.0
H138 H 0.02059 0.73348 0.61928 0.0
H139 H 0.96642 0.7297 0.58505 0.0
C140 C 0.95124 0.79861 0.66374 0.0
N141 N 0.95709 0.78046 0.65752 0.0
C142 C 0.93308 0.79835 0.67272 0.0
C143 C 0.92786 0.76081 0.66923 0.0
C144 C 0.94597 0.7618 0.66028 0.0
C145 C 0.92095 0.77922 0.67516 0.0
H146 H 0.96039 0.81323 0.6612 0.0
H147 H 0.95094 0.74763 0.65502 0.0
O148 O 0.02097 0.77979 0.61585 0.0
O149 O 0.00209 0.80482 0.64804 0.0
O150 O 0.97525 0.77856 0.61365 0.0
O151 O 0.99415 0.75654 0.64628 0.0
H152 H 0.05683 0.77042 0.62131 0.0
H153 H 0.00829 0.76917 0.57776 0.0
H154 H 0.07475 0.75362 0.59495 0.0
H155 H 0.02713 0.75255 0.5521 0.0
H156 H 0.02379 0.85799 0.69639 0.0
H157 H 0.03385 0.82272 0.63042 0.0
H158 H 0.99994 0.82616 0.68288 0.0
H159 H 0.05686 0.85478 0.64467 0.0
H160 H 0.02699 0.83775 0.56189 0.0
H161 H 0.98683 0.86538 0.59947 0.0
H162 H 0.06265 0.73718 0.66361 0.0
H163 H 0.08306 0.80198 0.68401 0.0
H164 H 0.94056 0.75403 0.61658 0.0
H165 H 0.97923 0.78554 0.57567 0.0
H166 H 0.91611 0.74014 0.58796 0.0
H167 H 0.95422 0.77092 0.54773 0.0
H168 H 0.98699 0.71842 0.65686 0.0
H169 H 0.99888 0.78318 0.67919 0.0
H170 H 0.98499 0.70944 0.69198 0.0
H171 H 0.99667 0.77309 0.71384 0.0
H172 H 0.0236 0.69853 0.60605 0.0
H173 H 0.96748 0.69374 0.57178 0.0
H174 H 0.92825 0.81288 0.67696 0.0
H175 H 0.91918 0.74574 0.67116 0.0
Li176 Li 0.50887 0.76619 0.88596 0.0
Li177 Li 0.53162 0.78763 0.91003 0.0
Li178 Li 0.54422 0.76617 0.88312 0.0
Li179 Li 0.52513 0.7497 0.91163 0.0
C180 C 0.52753 0.80111 0.86589 0.0
N181 N 0.52203 0.82501 0.83501 0.0
C182 C 0.51907 0.81888 0.8694 0.0
C183 C 0.53353 0.79571 0.84675 0.0
C184 C 0.51631 0.83069 0.85357 0.0
C185 C 0.53054 0.80795 0.83132 0.0
C186 C 0.49236 0.77875 0.92342 0.0
C187 C 0.46854 0.78198 0.94848 0.0
N188 N 0.46317 0.79818 0.93969 0.0
C189 C 0.48662 0.79541 0.91463 0.0
C190 C 0.48326 0.77193 0.94046 0.0
C191 C 0.47183 0.80503 0.92307 0.0
C192 C 0.46714 0.75658 0.88185 0.0
N193 N 0.48326 0.76479 0.87208 0.0
C194 C 0.46212 0.77562 0.84732 0.0
C195 C 0.48101 0.7734 0.85462 0.0
C196 C 0.44542 0.7689 0.8581 0.0
C197 C 0.44801 0.75868 0.87523 0.0
H198 H 0.46921 0.74922 0.89536 0.0
H199 H 0.49383 0.77914 0.84662 0.0
C200 C 0.54808 0.82999 0.916 0.0
N201 N 0.53695 0.81444 0.92479 0.0
C202 C 0.54968 0.8506 0.92405 0.0
C203 C 0.52911 0.8387 0.95059 0.0
C204 C 0.52817 0.81831 0.94218 0.0
C205 C 0.53953 0.85528 0.9412 0.0
H206 H 0.55508 0.82642 0.90227 0.0
H207 H 0.51969 0.80565 0.9491 0.0
C208 C 0.5085 0.73034 0.86754 0.0
N209 N 0.47995 0.7093 0.8389 0.0
C210 C 0.49328 0.71502 0.87289 0.0
C211 C 0.50925 0.73491 0.84761 0.0
C212 C 0.47898 0.70456 0.85819 0.0
C213 C 0.49467 0.72411 0.83335 0.0
C214 C 0.56236 0.77982 0.92932 0.0
C215 C 0.58052 0.79283 0.92721 0.0
C216 C 0.55475 0.77863 0.94827 0.0
C217 C 0.5908 0.80448 0.94416 0.0
C218 C 0.56547 0.79053 0.96485 0.0
N219 N 0.58312 0.80311 0.96247 0.0
C220 C 0.58135 0.78013 0.86728 0.0
C221 C 0.56512 0.74637 0.85422 0.0
C222 C 0.59792 0.77821 0.85621 0.0
N223 N 0.5656 0.76416 0.86636 0.0
C224 C 0.58117 0.74394 0.8426 0.0
C225 C 0.59813 0.75978 0.84384 0.0
H226 H 0.5812 0.79419 0.87695 0.0
H227 H 0.55241 0.7339 0.85378 0.0
C228 C 0.50514 0.71664 0.93186 0.0
N229 N 0.52324 0.72781 0.92854 0.0
C230 C 0.50381 0.70033 0.94403 0.0
C231 C 0.5397 0.70776 0.94956 0.0
C232 C 0.54036 0.72366 0.93703 0.0
C233 C 0.52126 0.6958 0.95311 0.0
H234 H 0.49175 0.72039 0.92502 0.0
H235 H 0.55457 0.73271 0.93403 0.0
O236 O 0.53051 0.78941 0.88122 0.0
O237 O 0.50676 0.76901 0.91543 0.0
O238 O 0.52229 0.7412 0.88182 0.0
O239 O 0.55173 0.76876 0.91287 0.0
H240 H 0.51476 0.82361 0.88419 0.0
H241 H 0.54031 0.78217 0.84377 0.0
H242 H 0.50969 0.84442 0.85606 0.0
H243 H 0.53498 0.80387 0.81641 0.0
H244 H 0.46137 0.77689 0.96169 0.0
H245 H 0.49342 0.80073 0.90137 0.0
H246 H 0.48755 0.75903 0.94742 0.0
H247 H 0.46721 0.81792 0.91639 0.0
H248 H 0.46072 0.78341 0.83392 0.0
H249 H 0.43543 0.75282 0.88368 0.0
H250 H 0.55835 0.86274 0.91657 0.0
H251 H 0.52091 0.84139 0.96373 0.0
H252 H 0.49246 0.71134 0.88825 0.0
H253 H 0.52081 0.74685 0.84324 0.0
H254 H 0.46708 0.69272 0.86214 0.0
H255 H 0.495 0.72757 0.8179 0.0
H256 H 0.58658 0.79398 0.91265 0.0
H257 H 0.54055 0.76887 0.95011 0.0
H258 H 0.60486 0.81465 0.94275 0.0
H259 H 0.55971 0.78985 0.97959 0.0
H260 H 0.61064 0.79079 0.85788 0.0
H261 H 0.58032 0.72965 0.83294 0.0
H262 H 0.48931 0.69151 0.94651 0.0
H263 H 0.5535 0.70459 0.95611 0.0
Li264 Li 0.49299 0.29358 0.11869 0.0
Li265 Li 0.51271 0.28243 0.14517 0.0
Li266 Li 0.49107 0.25611 0.1224 0.0
Li267 Li 0.47695 0.27861 0.14879 0.0
C268 C 0.52873 0.28369 0.10405 0.0
N269 N 0.55925 0.29752 0.0801 0.0
C270 C 0.54428 0.29974 0.11157 0.0
C271 C 0.52874 0.27466 0.08435 0.0
C272 C 0.55955 0.30653 0.09922 0.0
C273 C 0.54429 0.28187 0.07248 0.0
C274 C 0.50412 0.32045 0.16209 0.0
C275 C 0.50741 0.33512 0.19667 0.0
N276 N 0.51955 0.35228 0.19145 0.0
C277 C 0.51654 0.3383 0.15708 0.0
C278 C 0.49945 0.31889 0.18204 0.0
C279 C 0.52424 0.35418 0.17213 0.0
C280 C 0.47508 0.31443 0.08895 0.0
N281 N 0.49205 0.31423 0.10025 0.0
C282 C 0.50799 0.34549 0.08765 0.0
C283 C 0.5084 0.32926 0.09961 0.0
C284 C 0.49069 0.34615 0.07569 0.0
C285 C 0.4742 0.32998 0.07624 0.0
H286 H 0.46202 0.30273 0.08995 0.0
H287 H 0.52167 0.32904 0.1088 0.0
C288 C 0.54845 0.27022 0.15208 0.0
N289 N 0.53868 0.28575 0.15833 0.0
C290 C 0.56752 0.26987 0.16012 0.0
C291 C 0.56656 0.30194 0.18049 0.0
C292 C 0.54725 0.3014 0.1724 0.0
C293 C 0.57679 0.28598 0.17432 0.0
H294 H 0.54133 0.25805 0.14078 0.0
H295 H 0.53934 0.31352 0.17734 0.0
C296 C 0.45765 0.26335 0.10192 0.0
N297 N 0.436 0.24642 0.06672 0.0
C298 C 0.43713 0.25624 0.10201 0.0
C299 C 0.46719 0.26172 0.08398 0.0
C300 C 0.42643 0.24777 0.08404 0.0
C301 C 0.45599 0.25315 0.06634 0.0
C302 C 0.50483 0.24885 0.16539 0.0
C303 C 0.51017 0.22959 0.16012 0.0
C304 C 0.5112 0.25947 0.18423 0.0
C305 C 0.52194 0.22135 0.17374 0.0
C306 C 0.52299 0.25074 0.1974 0.0
N307 N 0.52807 0.23202 0.19192 0.0
C308 C 0.50592 0.22412 0.10135 0.0
C309 C 0.47186 0.21486 0.10816 0.0
C310 C 0.50598 0.20412 0.09244 0.0
N311 N 0.48903 0.22909 0.10891 0.0
C312 C 0.47135 0.19453 0.09965 0.0
C313 C 0.4886 0.18907 0.09175 0.0
H314 H 0.51951 0.23555 0.10272 0.0
H315 H 0.45874 0.21919 0.11458 0.0
C316 C 0.43878 0.285 0.16101 0.0
N317 N 0.45602 0.27886 0.16663 0.0
C318 C 0.42347 0.2848 0.17426 0.0
C319 C 0.4442 0.2724 0.19886 0.0
C320 C 0.45884 0.27243 0.18504 0.0
C321 C 0.42607 0.27843 0.19355 0.0
H322 H 0.43685 0.28985 0.14618 0.0
H323 H 0.47256 0.26745 0.1891 0.0
O324 O 0.51394 0.27632 0.11608 0.0
O325 O 0.49625 0.30484 0.14749 0.0
O326 O 0.46841 0.27157 0.11937 0.0
O327 O 0.49358 0.25729 0.15209 0.0
H328 H 0.54446 0.30708 0.12669 0.0
H329 H 0.51693 0.26212 0.07829 0.0
H330 H 0.57163 0.31898 0.10484 0.0
H331 H 0.5445 0.27499 0.05723 0.0
H332 H 0.50395 0.33407 0.21216 0.0
H333 H 0.52032 0.3399 0.1418 0.0
H334 H 0.48988 0.3053 0.18625 0.0
H335 H 0.53395 0.36802 0.16845 0.0
H336 H 0.521 0.35765 0.08836 0.0
H337 H 0.46059 0.32928 0.06712 0.0
H338 H 0.57515 0.25746 0.15489 0.0
H339 H 0.57342 0.31462 0.19144 0.0
H340 H 0.42956 0.25729 0.11582 0.0
H341 H 0.48307 0.26714 0.08371 0.0
H342 H 0.41052 0.24226 0.08385 0.0
H343 H 0.46317 0.25187 0.05233 0.0
H344 H 0.50533 0.22109 0.14566 0.0
H345 H 0.50754 0.27456 0.18846 0.0
H346 H 0.52622 0.20649 0.16983 0.0
H347 H 0.5282 0.25891 0.21193 0.0
H348 H 0.51961 0.20024 0.08673 0.0
H349 H 0.45774 0.18315 0.09938 0.0
H350 H 0.40967 0.28924 0.16928 0.0
H351 H 0.44719 0.26777 0.2136 0.0
Li352 Li 0.02213 0.79864 0.12282 0.0
Li353 Li 0.04271 0.78662 0.14916 0.0
Li354 Li 0.02269 0.76217 0.122 0.0
Li355 Li 0.00565 0.77854 0.14902 0.0
C356 C 0.05647 0.79833 0.10823 0.0
N357 N 0.07785 0.82606 0.08514 0.0
C358 C 0.072 0.81366 0.11713 0.0
C359 C 0.05184 0.79706 0.08759 0.0
C360 C 0.08264 0.82753 0.10519 0.0
C361 C 0.06281 0.81125 0.07618 0.0
C362 C 0.02775 0.81844 0.17028 0.0
C363 C 0.0284 0.82204 0.20643 0.0
N364 N 0.03543 0.84275 0.20658 0.0
C365 C 0.03486 0.83977 0.17078 0.0
C366 C 0.02439 0.8095 0.18823 0.0
C367 C 0.0387 0.85179 0.18929 0.0
C368 C 0.00368 0.81651 0.09258 0.0
N369 N 0.01907 0.8206 0.10675 0.0
C370 C 0.02751 0.85552 0.09825 0.0
C371 C 0.03102 0.83963 0.10972 0.0
C372 C 0.01148 0.85175 0.08366 0.0
C373 C 0.9997 0.83181 0.08075 0.0
H374 H 0.99422 0.80141 0.09063 0.0
H375 H 0.04311 0.84255 0.12116 0.0
C376 C 0.07827 0.77483 0.15961 0.0
N377 N 0.06783 0.79029 0.16408 0.0
C378 C 0.09732 0.77577 0.16855 0.0
C379 C 0.09447 0.80839 0.18686 0.0
C380 C 0.07552 0.80689 0.17745 0.0
C381 C 0.10577 0.79279 0.18231 0.0
H382 H 0.07185 0.76189 0.14879 0.0
H383 H 0.06717 0.81913 0.1807 0.0
C384 C 0.98683 0.76071 0.10665 0.0
N385 N 0.96296 0.73044 0.08058 0.0
C386 C 0.97046 0.74796 0.11357 0.0
C387 C 0.991 0.75813 0.08644 0.0
C388 C 0.95858 0.73274 0.10016 0.0
C389 C 0.97878 0.74272 0.07351 0.0
C390 C 0.02099 0.74736 0.16664 0.0
C391 C 0.00782 0.72838 0.16326 0.0
C392 C 0.03036 0.7537 0.1857 0.0
C393 C 0.0039 0.71622 0.17915 0.0
C394 C 0.02606 0.7411 0.2012 0.0
N395 N 0.01301 0.72279 0.19763 0.0
C396 C 0.04111 0.73948 0.09381 0.0
C397 C 0.01138 0.71975 0.1039 0.0
C398 C 0.04458 0.72258 0.08124 0.0
N399 N 0.02475 0.73784 0.10482 0.0
C400 C 0.01426 0.70238 0.09146 0.0
C401 C 0.03116 0.70365 0.08004 0.0
H402 H 0.05168 0.75387 0.09494 0.0
H403 H 0.99855 0.71873 0.11287 0.0
C404 C 0.97786 0.79728 0.16817 0.0
N405 N 0.98264 0.77811 0.16481 0.0
C406 C 0.96083 0.80006 0.17793 0.0
C407 C 0.95316 0.76314 0.18027 0.0
C408 C 0.9708 0.76113 0.17084 0.0
C409 C 0.94777 0.78284 0.18361 0.0
H410 H 0.98707 0.8105 0.1628 0.0
H411 H 0.97448 0.74592 0.16759 0.0
O412 O 0.04563 0.78483 0.1197 0.0
O413 O 0.0239 0.80647 0.15227 0.0
O414 O 0.99872 0.77561 0.11959 0.0
O415 O 0.02519 0.75934 0.1512 0.0
H416 H 0.0757 0.81496 0.13309 0.0
H417 H 0.03978 0.78535 0.0805 0.0
H418 H 0.09467 0.83952 0.11188 0.0
H419 H 0.05933 0.81052 0.06021 0.0
H420 H 0.02588 0.81532 0.22043 0.0
H421 H 0.03744 0.84696 0.15703 0.0
H422 H 0.0186 0.79311 0.18811 0.0
H423 H 0.04428 0.8683 0.1899 0.0
H424 H 0.03687 0.8707 0.10118 0.0
H425 H 0.98741 0.82803 0.06949 0.0
H426 H 0.1055 0.76351 0.16433 0.0
H427 H 0.10017 0.82165 0.19761 0.0
H428 H 0.96698 0.74975 0.12911 0.0
H429 H 0.0037 0.76774 0.08085 0.0
H430 H 0.94589 0.72273 0.10533 0.0
H431 H 0.98191 0.74046 0.05787 0.0
H432 H 0.00051 0.72321 0.14859 0.0
H433 H 0.04092 0.76814 0.1885 0.0
H434 H 0.99361 0.70157 0.17678 0.0
H435 H 0.03314 0.74586 0.21604 0.0
H436 H 0.05768 0.72434 0.07257 0.0
H437 H 0.00365 0.68801 0.09118 0.0
H438 H 0.95779 0.81566 0.18059 0.0
H439 H 0.94352 0.74933 0.18413 0.0
Li440 Li 0.50189 0.7809 0.39887 0.0
Li441 Li 0.48032 0.75996 0.37336 0.0
Li442 Li 0.50062 0.7443 0.39952 0.0
Li443 Li 0.5173 0.76424 0.37257 0.0
C444 C 0.46913 0.76766 0.41837 0.0
N445 N 0.45097 0.78481 0.45011 0.0
C446 C 0.45776 0.78296 0.41541 0.0
C447 C 0.47109 0.76089 0.43738 0.0
C448 C 0.44878 0.79152 0.43168 0.0
C449 C 0.46181 0.76978 0.45325 0.0
C450 C 0.49873 0.78907 0.35007 0.0
C451 C 0.49767 0.77683 0.3149 0.0
N452 N 0.49571 0.79602 0.31004 0.0
C453 C 0.4967 0.8087 0.34467 0.0
C454 C 0.49918 0.77303 0.335 0.0
C455 C 0.49518 0.81189 0.3244 0.0
C456 C 0.50167 0.82311 0.40553 0.0
N457 N 0.50303 0.80648 0.41576 0.0
C458 C 0.50046 0.82653 0.4469 0.0
C459 C 0.50293 0.80797 0.43616 0.0
C460 C 0.49782 0.84346 0.43643 0.0
C461 C 0.49894 0.84178 0.41557 0.0
H462 H 0.50195 0.82166 0.38945 0.0
H463 H 0.50383 0.79454 0.44405 0.0
C464 C 0.44261 0.74031 0.35206 0.0
N465 N 0.45529 0.75819 0.35901 0.0
C466 C 0.42378 0.74113 0.34324 0.0
C467 C 0.43173 0.77859 0.34875 0.0
C468 C 0.45019 0.77705 0.35745 0.0
C469 C 0.41804 0.76051 0.34184 0.0
H470 H 0.44688 0.72547 0.35382 0.0
H471 H 0.46034 0.791 0.36348 0.0
C472 C 0.53681 0.77992 0.41537 0.0
N473 N 0.56067 0.80814 0.4433 0.0
C474 C 0.54889 0.7974 0.40923 0.0
C475 C 0.53691 0.77674 0.43569 0.0
C476 C 0.56083 0.8115 0.42359 0.0
C477 C 0.54907 0.7912 0.44958 0.0
C478 C 0.49819 0.72009 0.35793 0.0
C479 C 0.51004 0.70655 0.36477 0.0
C480 C 0.48737 0.71496 0.33942 0.0
C481 C 0.51111 0.68826 0.35284 0.0
C482 C 0.48885 0.69653 0.32792 0.0
N483 N 0.50059 0.68367 0.33481 0.0
C484 C 0.4867 0.7058 0.41603 0.0
C485 C 0.521 0.72048 0.42171 0.0
C486 C 0.48961 0.68826 0.42539 0.0
N487 N 0.5024 0.7213 0.41422 0.0
C488 C 0.52454 0.70347 0.43127 0.0
C489 C 0.50886 0.68681 0.43282 0.0
H490 H 0.47208 0.70677 0.4097 0.0
H491 H 0.53329 0.73279 0.4197 0.0
C492 C 0.54742 0.78477 0.35013 0.0
N493 N 0.53961 0.76595 0.35604 0.0
C494 C 0.5636 0.78683 0.33798 0.0
C495 C 0.56389 0.75022 0.33869 0.0
C496 C 0.54767 0.74887 0.35081 0.0
C497 C 0.57198 0.76937 0.33199 0.0
H498 H 0.54109 0.79825 0.35488 0.0
H499 H 0.5416 0.73421 0.35607 0.0
O500 O 0.47815 0.75915 0.4027 0.0
O501 O 0.50003 0.78569 0.36997 0.0
O502 O 0.52491 0.76604 0.40154 0.0
O503 O 0.49666 0.73793 0.36955 0.0
H504 H 0.45613 0.78837 0.40079 0.0
H505 H 0.4798 0.749 0.43987 0.0
H506 H 0.44011 0.80353 0.42968 0.0
H507 H 0.46326 0.76478 0.46808 0.0
H508 H 0.49811 0.76452 0.30315 0.0
H509 H 0.49613 0.82138 0.35594 0.0
H510 H 0.50097 0.75787 0.33871 0.0
H511 H 0.49356 0.82698 0.32007 0.0
H512 H 0.49962 0.82733 0.46304 0.0
H513 H 0.49723 0.85465 0.40705 0.0
H514 H 0.4136 0.72681 0.33822 0.0
H515 H 0.42813 0.79387 0.34771 0.0
H516 H 0.54893 0.80011 0.39356 0.0
H517 H 0.52743 0.76346 0.44076 0.0
H518 H 0.5702 0.82515 0.41907 0.0
H519 H 0.5492 0.78901 0.46538 0.0
H520 H 0.51856 0.71024 0.37901 0.0
H521 H 0.47793 0.7251 0.33394 0.0
H522 H 0.52033 0.67772 0.35791 0.0
H523 H 0.48062 0.69243 0.31354 0.0
H524 H 0.47713 0.67571 0.42612 0.0
H525 H 0.53955 0.70324 0.43706 0.0
H526 H 0.56962 0.802 0.33353 0.0
H527 H 0.56984 0.73635 0.3344 0.0
Li528 Li 0.52329 0.30408 0.62723 0.0
Li529 Li 0.54117 0.28642 0.65045 0.0
Li530 Li 0.52039 0.26629 0.62354 0.0
Li531 Li 0.50545 0.2825 0.6524 0.0
C532 C 0.5491 0.289 0.60179 0.0
N533 N 0.5585 0.29217 0.56239 0.0
C534 C 0.56901 0.29366 0.59702 0.0
C535 C 0.53397 0.28606 0.58652 0.0
C536 C 0.57347 0.29518 0.57702 0.0
C537 C 0.53903 0.28768 0.5667 0.0
C538 C 0.53902 0.32349 0.66862 0.0
C539 C 0.55055 0.34285 0.7005 0.0
N540 N 0.56691 0.35251 0.69196 0.0
C541 C 0.55589 0.33365 0.66013 0.0
C542 C 0.53626 0.32813 0.68895 0.0
C543 C 0.56984 0.34825 0.6722 0.0
C544 C 0.50411 0.33326 0.61027 0.0
N545 N 0.52219 0.32762 0.61294 0.0
C546 C 0.53673 0.35273 0.59176 0.0
C547 C 0.5385 0.33735 0.60442 0.0
C548 C 0.51803 0.35822 0.58797 0.0
C549 C 0.50167 0.34863 0.59779 0.0
H550 H 0.49141 0.32528 0.61731 0.0
H551 H 0.55279 0.3328 0.60697 0.0
C552 C 0.57986 0.27974 0.65286 0.0
N553 N 0.56614 0.2864 0.66468 0.0
C554 C 0.59826 0.27725 0.66113 0.0
C555 C 0.58818 0.28831 0.69384 0.0
C556 C 0.56996 0.29084 0.68485 0.0
C557 C 0.60257 0.28117 0.68195 0.0
H558 H 0.57633 0.27585 0.63697 0.0
H559 H 0.55874 0.29577 0.69406 0.0
C560 C 0.48206 0.27231 0.61193 0.0
N561 N 0.44893 0.25098 0.58895 0.0
C562 C 0.47158 0.25374 0.61766 0.0
C563 C 0.47576 0.27997 0.59444 0.0
C564 C 0.45483 0.24321 0.60588 0.0
C565 C 0.45897 0.26896 0.58303 0.0
C566 C 0.52342 0.25275 0.67002 0.0
C567 C 0.52617 0.23228 0.67084 0.0
C568 C 0.52237 0.26527 0.68779 0.0
C569 C 0.52781 0.22465 0.68949 0.0
C570 C 0.5241 0.25709 0.70614 0.0
N571 N 0.52675 0.23711 0.70661 0.0
C572 C 0.53528 0.2321 0.61012 0.0
C573 C 0.50773 0.23575 0.58887 0.0
C574 C 0.53827 0.21472 0.59793 0.0
N575 N 0.52022 0.24219 0.60547 0.0
C576 C 0.51006 0.21826 0.57632 0.0
C577 C 0.52557 0.20752 0.58074 0.0
H578 H 0.54521 0.23785 0.62322 0.0
H579 H 0.49616 0.24425 0.58512 0.0
C580 C 0.47973 0.29942 0.67778 0.0
N581 N 0.48347 0.28107 0.66919 0.0
C582 C 0.4638 0.29978 0.6901 0.0
C583 C 0.45558 0.26235 0.68422 0.0
C584 C 0.47196 0.26267 0.67236 0.0
C585 C 0.45142 0.28109 0.69327 0.0
H586 H 0.4891 0.31381 0.67497 0.0
H587 H 0.47548 0.24825 0.6657 0.0
O588 O 0.54456 0.28771 0.62138 0.0
O589 O 0.5254 0.3089 0.65712 0.0
O590 O 0.49856 0.28282 0.62318 0.0
O591 O 0.5217 0.26035 0.65185 0.0
H592 H 0.58093 0.29626 0.60866 0.0
H593 H 0.5185 0.28265 0.5899 0.0
H594 H 0.58882 0.2988 0.57313 0.0
H595 H 0.52745 0.28541 0.55474 0.0
H596 H 0.54866 0.34657 0.71627 0.0
H597 H 0.55829 0.33009 0.64446 0.0
H598 H 0.52329 0.32037 0.69575 0.0
H599 H 0.58303 0.35616 0.66586 0.0
H600 H 0.54981 0.36002 0.58478 0.0
H601 H 0.48699 0.35234 0.59523 0.0
H602 H 0.60891 0.2721 0.65124 0.0
H603 H 0.59067 0.29128 0.70998 0.0
H604 H 0.47657 0.24733 0.63082 0.0
H605 H 0.48383 0.29418 0.58962 0.0
H606 H 0.4466 0.2288 0.61011 0.0
H607 H 0.45395 0.2747 0.56945 0.0
H608 H 0.52699 0.22239 0.65719 0.0
H609 H 0.52037 0.28118 0.68743 0.0
H610 H 0.52992 0.20883 0.69036 0.0
H611 H 0.52335 0.26663 0.72002 0.0
H612 H 0.55065 0.20725 0.60177 0.0
H613 H 0.49975 0.21319 0.56337 0.0
H614 H 0.46095 0.31453 0.69677 0.0
H615 H 0.44642 0.24763 0.68652 0.0
Li616 Li 0.00216 0.28203 0.90676 0.0
Li617 Li 0.98163 0.26188 0.88021 0.0
Li618 Li 0.00283 0.24558 0.90513 0.0
Li619 Li 0.01882 0.26781 0.8795 0.0
C620 C 0.97112 0.2662 0.92602 0.0
N621 N 0.95522 0.28193 0.96001 0.0
C622 C 0.95699 0.27906 0.9244 0.0
C623 C 0.97701 0.26113 0.94487 0.0
C624 C 0.9492 0.28694 0.94178 0.0
C625 C 0.9688 0.26926 0.96189 0.0
C626 C 0.99973 0.29412 0.85944 0.0
C627 C 0.99733 0.28537 0.82358 0.0
N628 N 0.99801 0.30573 0.8209 0.0
C629 C 0.00045 0.31497 0.85633 0.0
C630 C 0.9982 0.27921 0.84293 0.0
C631 C 0.99954 0.32052 0.83674 0.0
C632 C 0.99202 0.32048 0.91621 0.0
N633 N 0.00094 0.30621 0.92472 0.0
C634 C 0.00246 0.32551 0.95698 0.0
C635 C 0.00612 0.30835 0.94474 0.0
C636 C 0.99293 0.34023 0.94855 0.0
C637 C 0.98783 0.33765 0.92788 0.0
H638 H 0.98744 0.31813 0.90043 0.0
H639 H 0.01232 0.29638 0.9514 0.0
C640 C 0.9443 0.24299 0.85754 0.0
N641 N 0.95654 0.26057 0.86598 0.0
C642 C 0.9255 0.24411 0.84881 0.0
C643 C 0.93247 0.28124 0.85767 0.0
C644 C 0.95097 0.27942 0.86613 0.0
C645 C 0.91929 0.26344 0.84909 0.0
H646 H 0.94889 0.22812 0.85798 0.0
H647 H 0.9608 0.2931 0.87327 0.0
C648 C 0.03913 0.28286 0.92101 0.0
N649 N 0.06508 0.31205 0.94628 0.0
C650 C 0.04774 0.30168 0.91424 0.0
C651 C 0.04377 0.27885 0.94062 0.0
C652 C 0.0608 0.31625 0.92726 0.0
C653 C 0.05692 0.29381 0.95316 0.0
C654 C 0.00094 0.22355 0.86288 0.0
C655 C 0.01338 0.2103 0.86913 0.0
C656 C 0.98986 0.21849 0.84449 0.0
C657 C 0.01475 0.19236 0.85679 0.0
C658 C 0.99164 0.2004 0.83258 0.0
N659 N 0.00394 0.18783 0.83892 0.0
C660 C 0.99057 0.20633 0.92121 0.0
C661 C 0.02471 0.22185 0.92591 0.0
C662 C 0.99422 0.18917 0.9308 0.0
N663 N 0.00582 0.22213 0.91889 0.0
C664 C 0.02896 0.20528 0.93578 0.0
C665 C 0.01372 0.18841 0.9381 0.0
H666 H 0.97569 0.20689 0.91534 0.0
H667 H 0.03663 0.23438 0.92349 0.0
C668 C 0.04824 0.29007 0.85662 0.0
N669 N 0.04113 0.27113 0.86273 0.0
C670 C 0.06443 0.2927 0.84446 0.0
C671 C 0.06607 0.25642 0.84541 0.0
C672 C 0.04988 0.25452 0.85759 0.0
C673 C 0.07354 0.2757 0.83859 0.0
H674 H 0.04145 0.30324 0.86129 0.0
H675 H 0.04441 0.23979 0.86301 0.0
O676 O 0.97932 0.25876 0.90925 0.0
O677 O 0.00069 0.28852 0.87859 0.0
O678 O 0.02619 0.26849 0.9085 0.0
O679 O 0.99902 0.24096 0.87496 0.0
H680 H 0.9523 0.28314 0.90991 0.0
H681 H 0.98797 0.25122 0.94635 0.0
H682 H 0.93841 0.2971 0.94078 0.0
H683 H 0.9733 0.26558 0.9766 0.0
H684 H 0.99618 0.27397 0.81069 0.0
H685 H 0.0018 0.32677 0.86891 0.0
H686 H 0.99786 0.26311 0.845 0.0
H687 H 1.00008 0.3366 0.83413 0.0
H688 H 0.00639 0.32689 0.97293 0.0
H689 H 0.98057 0.34874 0.92081 0.0
H690 H 0.91571 0.22998 0.84249 0.0
H691 H 0.92848 0.29648 0.85797 0.0
H692 H 0.04418 0.30509 0.89918 0.0
H693 H 0.03701 0.26453 0.94625 0.0
H694 H 0.0675 0.33093 0.92225 0.0
H695 H 0.06054 0.29097 0.9684 0.0
H696 H 0.02212 0.21395 0.88324 0.0
H697 H 0.97996 0.22837 0.83945 0.0
H698 H 0.02443 0.18206 0.86142 0.0
H699 H 0.98318 0.19634 0.81831 0.0
H700 H 0.982 0.17647 0.93202 0.0
H701 H 0.04414 0.20573 0.94145 0.0
H702 H 0.06992 0.30796 0.83995 0.0
H703 H 0.07251 0.24285 0.84123 0.0
Li704 Li 0.41335 0.0451 0.29622 0.0
Li705 Li 0.38741 0.02241 0.27211 0.0
Li706 Li 0.41495 0.04373 0.26114 0.0
Li707 Li 0.3894 0.06006 0.27434 0.0
C708 C 0.42807 0.00961 0.26863 0.0
N709 N 0.45397 0.98811 0.24889 0.0
C710 C 0.42163 0.99703 0.25079 0.0
C711 C 0.44759 0.0111 0.27656 0.0
C712 C 0.43499 0.98634 0.24099 0.0
C713 C 0.46048 0.00013 0.26633 0.0
C714 C 0.37098 0.03334 0.30973 0.0
C715 C 0.33908 0.02886 0.32452 0.0
N716 N 0.34591 0.01701 0.33788 0.0
C717 C 0.37772 0.0213 0.32376 0.0
C718 C 0.35153 0.03733 0.31024 0.0
C719 C 0.36482 0.0131 0.3378 0.0
C720 C 0.43223 0.06835 0.33073 0.0
N721 N 0.42744 0.04881 0.32125 0.0
C722 C 0.44394 0.03512 0.34758 0.0
C723 C 0.43311 0.03231 0.32914 0.0
C724 C 0.44923 0.05516 0.35767 0.0
C725 C 0.44334 0.07194 0.34906 0.0
H726 H 0.42756 0.08114 0.32392 0.0
H727 H 0.42924 0.01699 0.32107 0.0
C728 C 0.36223 0.98934 0.24873 0.0
N729 N 0.37054 0.9958 0.26754 0.0
C730 C 0.34959 0.97025 0.24475 0.0
C731 C 0.35584 0.96356 0.27904 0.0
C732 C 0.36791 0.98318 0.28252 0.0
C733 C 0.34632 0.9569 0.25993 0.0
H734 H 0.36553 0.99881 0.23661 0.0
H735 H 0.37559 0.98805 0.29701 0.0
C736 C 0.43242 0.08251 0.27186 0.0
N737 N 0.46103 0.10881 0.25403 0.0
C738 C 0.42754 0.09049 0.25406 0.0
C739 C 0.45176 0.08808 0.28073 0.0
C740 C 0.44225 0.1037 0.24523 0.0
C741 C 0.46604 0.10137 0.27145 0.0
C742 C 0.36833 0.03868 0.24107 0.0
C743 C 0.3654 0.04085 0.22065 0.0
C744 C 0.35181 0.03512 0.25272 0.0
C745 C 0.34603 0.03932 0.21226 0.0
C746 C 0.33269 0.03368 0.24379 0.0
N747 N 0.33021 0.03579 0.22391 0.0
C748 C 0.42576 0.03971 0.22173 0.0
C749 C 0.45363 0.04781 0.24527 0.0
C750 C 0.43819 0.03855 0.20596 0.0
N751 N 0.4336 0.04426 0.24089 0.0
C752 C 0.46668 0.04677 0.22992 0.0
C753 C 0.45893 0.04191 0.20997 0.0
H754 H 0.40981 0.03664 0.21873 0.0
H755 H 0.45945 0.05098 0.2607 0.0
C756 C 0.36634 0.08732 0.29124 0.0
N757 N 0.37388 0.08081 0.27389 0.0
C758 C 0.35198 0.09995 0.2909 0.0
C759 C 0.3541 0.09945 0.25494 0.0
C760 C 0.36863 0.08715 0.25604 0.0
C761 C 0.34529 0.10571 0.27248 0.0
H762 H 0.371 0.08211 0.30522 0.0
H763 H 0.37509 0.0819 0.24252 0.0
O764 O 0.41532 0.02049 0.27823 0.0
O765 O 0.38356 0.04179 0.29607 0.0
O766 O 0.41832 0.06933 0.28056 0.0
O767 O 0.3873 0.04069 0.24959 0.0
H768 H 0.40657 0.99578 0.24443 0.0
H769 H 0.4528 0.02082 0.29034 0.0
H770 H 0.43027 0.97669 0.22707 0.0
H771 H 0.47569 0.00123 0.27221 0.0
H772 H 0.32399 0.03177 0.32501 0.0
H773 H 0.39264 0.01798 0.3236 0.0
H774 H 0.34606 0.04692 0.29981 0.0
H775 H 0.36983 0.00359 0.34862 0.0
H776 H 0.44849 0.02188 0.3537 0.0
H777 H 0.44719 0.08758 0.35648 0.0
H778 H 0.34257 0.96607 0.2298 0.0
H779 H 0.35444 0.95361 0.29108 0.0
H780 H 0.41264 0.08626 0.247 0.0
H781 H 0.45575 0.08202 0.29452 0.0
H782 H 0.43874 0.10985 0.23136 0.0
H783 H 0.48111 0.10571 0.27807 0.0
H784 H 0.37794 0.0439 0.21138 0.0
H785 H 0.35374 0.03325 0.26841 0.0
H786 H 0.34359 0.041 0.1965 0.0
H787 H 0.31981 0.03085 0.25267 0.0
H788 H 0.43161 0.03507 0.19077 0.0
H789 H 0.48257 0.04925 0.23364 0.0
H790 H 0.34601 0.10488 0.30486 0.0
H791 H 0.34935 0.10335 0.24037 0.0
Li792 Li 0.26422 0.17038 0.51488 0.0
Li793 Li 0.2824 0.1437 0.49763 0.0
Li794 Li 0.26578 0.16811 0.47774 0.0
Li795 Li 0.24585 0.14023 0.49399 0.0
C796 C 0.3037 0.18858 0.50934 0.0
N797 N 0.33454 0.21575 0.53086 0.0
C798 C 0.31628 0.18125 0.52289 0.0
C799 C 0.30694 0.2097 0.50659 0.0
C800 C 0.33175 0.19524 0.53367 0.0
C801 C 0.32257 0.2232 0.51765 0.0
C802 C 0.25265 0.12613 0.52919 0.0
C803 C 0.24036 0.09023 0.53356 0.0
N804 N 0.23039 0.09633 0.54951 0.0
C805 C 0.24234 0.13206 0.54566 0.0
C806 C 0.25174 0.10506 0.52312 0.0
C807 C 0.23116 0.11675 0.55573 0.0
C808 C 0.24486 0.19353 0.54301 0.0
N809 N 0.26241 0.187 0.53988 0.0
C810 C 0.2739 0.19844 0.57408 0.0
C811 C 0.27688 0.18937 0.55497 0.0
C812 C 0.2557 0.20488 0.57782 0.0
C813 C 0.24129 0.20273 0.56178 0.0
H814 H 0.23316 0.19076 0.53121 0.0
H815 H 0.29035 0.18327 0.55254 0.0
C816 C 0.31849 0.1304 0.48568 0.0
N817 N 0.30467 0.12965 0.49976 0.0
C818 C 0.33514 0.12084 0.48814 0.0
C819 C 0.32269 0.10958 0.51923 0.0
C820 C 0.3064 0.11934 0.51621 0.0
C821 C 0.33758 0.11053 0.50531 0.0
H822 H 0.31675 0.13873 0.47272 0.0
H823 H 0.29529 0.11903 0.52722 0.0
C824 C 0.23552 0.18712 0.49053 0.0
N825 N 0.22202 0.22301 0.48295 0.0
C826 C 0.21625 0.18601 0.48206 0.0
C827 C 0.24794 0.20643 0.4951 0.0
C828 C 0.20969 0.20435 0.47836 0.0
C829 C 0.24084 0.22441 0.49117 0.0
C830 C 0.26016 0.1202 0.45942 0.0
C831 C 0.24897 0.1206 0.44156 0.0
C832 C 0.26666 0.10196 0.46361 0.0
C833 C 0.24428 0.10258 0.42821 0.0
C834 C 0.26165 0.08428 0.44988 0.0
N835 N 0.25065 0.08495 0.43262 0.0
C836 C 0.28571 0.19483 0.45133 0.0
C837 C 0.25159 0.18251 0.44163 0.0
C838 C 0.2878 0.20665 0.435 0.0
N839 N 0.26777 0.18328 0.45449 0.0
C840 C 0.25304 0.19404 0.425 0.0
C841 C 0.27128 0.20658 0.42166 0.0
H842 H 0.29841 0.19497 0.46159 0.0
H843 H 0.23749 0.17312 0.44441 0.0
C844 C 0.20756 0.12751 0.50655 0.0
N845 N 0.22058 0.12139 0.49347 0.0
C846 C 0.18927 0.1147 0.50872 0.0
C847 C 0.19767 0.08978 0.48333 0.0
C848 C 0.21593 0.10292 0.48189 0.0
C849 C 0.18407 0.09542 0.49708 0.0
H850 H 0.21162 0.14223 0.51569 0.0
H851 H 0.22634 0.09813 0.47166 0.0
O852 O 0.28863 0.17507 0.49845 0.0
O853 O 0.26347 0.14089 0.51898 0.0
O854 O 0.24228 0.16932 0.49401 0.0
O855 O 0.26513 0.13774 0.47252 0.0
H856 H 0.31399 0.165 0.52528 0.0
H857 H 0.29756 0.21563 0.49594 0.0
H858 H 0.34151 0.1898 0.5443 0.0
H859 H 0.32522 0.23958 0.51568 0.0
H860 H 0.23943 0.07386 0.52896 0.0
H861 H 0.24288 0.1483 0.55056 0.0
H862 H 0.25959 0.10024 0.51036 0.0
H863 H 0.22306 0.1211 0.56847 0.0
H864 H 0.28531 0.19939 0.58603 0.0
H865 H 0.22709 0.20758 0.56381 0.0
H866 H 0.34628 0.1221 0.4771 0.0
H867 H 0.32371 0.10153 0.53251 0.0
H868 H 0.2065 0.17114 0.47838 0.0
H869 H 0.26284 0.2075 0.50171 0.0
H870 H 0.1948 0.20376 0.47183 0.0
H871 H 0.25029 0.23947 0.49466 0.0
H872 H 0.24394 0.13464 0.43806 0.0
H873 H 0.27541 0.10141 0.47732 0.0
H874 H 0.23559 0.10262 0.41435 0.0
H875 H 0.26651 0.07002 0.45295 0.0
H876 H 0.30223 0.21581 0.43288 0.0
H877 H 0.2399 0.19362 0.41521 0.0
H878 H 0.17955 0.11971 0.51975 0.0
H879 H 0.19428 0.07534 0.47366 0.0
Li880 Li 0.15336 0.02399 0.77887 0.0
Li881 Li 0.12508 0.00192 0.79459 0.0
Li882 Li 0.15128 0.98673 0.77524 0.0
Li883 Li 0.12696 0.00161 0.75809 0.0
C884 C 0.16843 0.01823 0.8141 0.0
N885 N 0.19592 0.04476 0.84028 0.0
C886 C 0.16235 0.02758 0.83177 0.0
C887 C 0.18853 0.02219 0.80988 0.0
C888 C 0.17646 0.04098 0.84478 0.0
C889 C 0.20219 0.0357 0.82326 0.0
C890 C 0.11183 0.03561 0.7698 0.0
C891 C 0.0786 0.04253 0.76434 0.0
N892 N 0.08543 0.05611 0.75101 0.0
C893 C 0.11858 0.04977 0.75619 0.0
C894 C 0.09172 0.03202 0.77402 0.0
C895 C 0.10497 0.05992 0.74678 0.0
C896 C 0.18096 0.05743 0.76671 0.0
N897 N 0.16858 0.05143 0.78126 0.0
C898 C 0.17263 0.08646 0.79625 0.0
C899 C 0.1644 0.06541 0.79596 0.0
C900 C 0.18511 0.09322 0.78114 0.0
C901 C 0.18955 0.07832 0.76645 0.0
H902 H 0.18342 0.04617 0.75475 0.0
H903 H 0.15402 0.0603 0.80699 0.0
C904 C 0.10314 0.98367 0.82602 0.0
N905 N 0.10947 0.00145 0.81743 0.0
C906 C 0.09371 0.98443 0.84413 0.0
C907 C 0.0974 0.02167 0.84398 0.0
C908 C 0.10642 0.02016 0.82579 0.0
C909 C 0.09123 0.00371 0.85354 0.0
H910 H 0.10595 0.96902 0.81911 0.0
H911 H 0.1118 0.03405 0.81871 0.0
C912 C 0.16932 0.99782 0.74326 0.0
N913 N 0.19668 0.98036 0.7214 0.0
C914 C 0.16292 0.98376 0.72633 0.0
C915 C 0.18966 0.00309 0.74896 0.0
C916 C 0.17698 0.97509 0.71549 0.0
C917 C 0.20324 0.99406 0.73776 0.0
C918 C 0.10513 0.96563 0.76356 0.0
C919 C 0.10704 0.95506 0.7449 0.0
C920 C 0.08633 0.96436 0.77133 0.0
C921 C 0.09005 0.94349 0.73422 0.0
C922 C 0.06971 0.95259 0.76021 0.0
N923 N 0.0719 0.94251 0.74204 0.0
C924 C 0.18005 0.96526 0.79088 0.0
C925 C 0.1645 0.94958 0.75965 0.0
C926 C 0.19204 0.95011 0.79133 0.0
N927 N 0.16678 0.96491 0.77508 0.0
C928 C 0.17639 0.93429 0.75934 0.0
C929 C 0.19051 0.93442 0.7753 0.0
H930 H 0.1813 0.97725 0.80322 0.0
H931 H 0.15361 0.9493 0.74744 0.0
C932 C 0.12187 0.01012 0.7183 0.0
N933 N 0.11135 0.00275 0.73369 0.0
C934 C 0.11208 0.0147 0.70105 0.0
C935 C 0.08065 0.00442 0.71578 0.0
C936 C 0.09106 -0.00032 0.73266 0.0
C937 C 0.09124 0.01223 0.69981 0.0
H938 H 0.13795 0.01348 0.71977 0.0
H939 H 0.08298 0.99463 0.74532 0.0
O940 O 0.15478 0.00532 0.80098 0.0
O941 O 0.12478 0.02506 0.7787 0.0
O942 O 0.15577 0.0064 0.75415 0.0
O943 O 0.12158 0.97701 0.77426 0.0
H944 H 0.14693 0.02455 0.83541 0.0
H945 H 0.19354 0.01493 0.79641 0.0
H946 H 0.17194 0.04839 0.85846 0.0
H947 H 0.21778 0.03897 0.82011 0.0
H948 H 0.06296 0.0398 0.76734 0.0
H949 H 0.13411 0.05264 0.75273 0.0
H950 H 0.08626 0.021 0.78443 0.0
H951 H 0.10994 0.07077 0.73607 0.0
H952 H 0.1689 0.09739 0.80792 0.0
H953 H 0.19879 0.08287 0.7543 0.0
H954 H 0.08925 0.97028 0.85117 0.0
H955 H 0.09566 0.03679 0.85077 0.0
H956 H 0.14725 0.97932 0.72175 0.0
H957 H 0.19493 0.01404 0.76189 0.0
H958 H 0.17221 0.9641 0.70244 0.0
H959 H 0.21902 0.99796 0.74206 0.0
H960 H 0.12144 0.95595 0.73863 0.0
H961 H 0.08455 0.97253 0.78569 0.0
H962 H 0.0913 0.93533 0.71971 0.0
H963 H 0.05506 0.95153 0.766 0.0
H964 H 0.20225 0.95064 0.80426 0.0
H965 H 0.1747 0.92269 0.74654 0.0
H966 H 0.12079 0.02113 0.68924 0.0
H967 H 0.06454 0.00244 0.7154 0.0
Li968 Li 0.23488 0.90301 0.01339 0.0
Li969 Li 0.25481 0.87716 0.02446 0.0
Li970 Li 0.27082 0.90847 0.01069 0.0
Li971 Li 0.25154 0.88039 0.98902 0.0
C972 C 0.26898 0.91939 0.04873 0.0
N973 N 0.2971 0.94579 0.07436 0.0
C974 C 0.28293 0.91141 0.06013 0.0
C975 C 0.26937 0.94082 0.05032 0.0
C976 C 0.29701 0.92501 0.07302 0.0
C977 C 0.2837 0.9539 0.06337 0.0
C978 C 0.21828 0.85699 0.01656 0.0
C979 C 0.20875 0.8212 0.02298 0.0
N980 N 0.19686 0.82704 0.03738 0.0
C981 C 0.2059 0.86263 0.03136 0.0
C982 C 0.21966 0.83611 0.01225 0.0
C983 C 0.1952 0.84726 0.04173 0.0
C984 C 0.19692 0.91394 0.00514 0.0
N985 N 0.21283 0.91629 0.01857 0.0
C986 C 0.19912 0.9404 0.04011 0.0
C987 C 0.21399 0.92887 0.03597 0.0
C988 C 0.18254 0.93864 0.02646 0.0
C989 C 0.18146 0.92494 0.00885 0.0
H990 H 0.19636 0.90372 0.99145 0.0
H991 H 0.2266 0.93015 0.04656 0.0
C992 C 0.26737 0.84337 0.04193 0.0
N993 N 0.2566 0.85879 0.04472 0.0
C994 C 0.26904 0.83014 0.05675 0.0
C995 C 0.24892 0.84919 0.07743 0.0
C996 C 0.24742 0.86189 0.06203 0.0
C997 C 0.25995 0.83305 0.07494 0.0
H998 H 0.27493 0.84143 0.02833 0.0
H999 H 0.23917 0.87448 0.06399 0.0
C1000 C 0.25474 0.92812 0.9805 0.0
N1001 N 0.26425 0.9641 0.96189 0.0
C1002 C 0.27049 0.93047 0.96777 0.0
C1003 C 0.24381 0.9441 0.98373 0.0
C1004 C 0.27508 0.94878 0.95853 0.0
C1005 C 0.24884 0.96215 0.97418 0.0
C1006 C 0.2858 0.86749 0.99352 0.0
C1007 C 0.30338 0.87577 0.98492 0.0
C1008 C 0.27762 0.84642 0.989 0.0
C1009 C 0.31254 0.86282 0.97213 0.0
C1010 C 0.28719 0.834 0.97611 0.0
N1011 N 0.30432 0.84238 0.96802 0.0
C1012 C 0.31163 0.9231 0.01879 0.0
C1013 C 0.29433 0.94952 0.01001 0.0
C1014 C 0.32984 0.93668 0.01932 0.0
N1015 N 0.29444 0.92943 0.01336 0.0
C1016 C 0.31223 0.96357 0.01009 0.0
C1017 C 0.33029 0.957 0.0143 0.0
H1018 H 0.31122 0.90729 0.02224 0.0
H1019 H 0.28044 0.95464 0.007 0.0
C1020 C 0.23506 0.84919 0.95696 0.0
N1021 N 0.24975 0.86583 0.96267 0.0
C1022 C 0.23571 0.83712 0.93875 0.0
C1023 C 0.26634 0.85973 0.93264 0.0
C1024 C 0.26487 0.87155 0.95064 0.0
C1025 C 0.25181 0.84213 0.92667 0.0
H1026 H 0.2232 0.84493 0.96679 0.0
H1027 H 0.27643 0.88469 0.95551 0.0
O1028 O 0.25543 0.90636 0.03561 0.0
O1029 O 0.22929 0.8719 0.00666 0.0
O1030 O 0.24985 0.91027 0.98961 0.0
O1031 O 0.27643 0.87998 0.00591 0.0
H1032 H 0.28307 0.89493 0.05888 0.0
H1033 H 0.25904 0.94736 0.04124 0.0
H1034 H 0.30792 0.91905 0.0819 0.0
H1035 H 0.28425 0.97052 0.06465 0.0
H1036 H 0.20976 0.805 0.01987 0.0
H1037 H 0.20474 0.87873 0.03498 0.0
H1038 H 0.22914 0.83146 0.00083 0.0
H1039 H 0.18565 0.85141 0.0533 0.0
H1040 H 0.20092 0.95091 0.05373 0.0
H1041 H 0.16883 0.92267 0.99803 0.0
H1042 H 0.27745 0.81778 0.05394 0.0
H1043 H 0.24195 0.85235 0.09128 0.0
H1044 H 0.27944 0.91858 0.96547 0.0
H1045 H 0.2316 0.94264 0.99353 0.0
H1046 H 0.28734 0.95085 0.94879 0.0
H1047 H 0.24051 0.97462 0.97657 0.0
H1048 H 0.30975 0.89208 0.98774 0.0
H1049 H 0.26375 0.83982 0.995 0.0
H1050 H 0.32611 0.86906 0.96536 0.0
H1051 H 0.28091 0.81773 0.97241 0.0
H1052 H 0.34346 0.93105 0.02274 0.0
H1053 H 0.31198 0.97929 0.00663 0.0
H1054 H 0.22422 0.82361 0.93453 0.0
H1055 H 0.27887 0.86413 0.9236 0.0
Li1056 Li 0.23959 0.40028 0.02431 0.0
Li1057 Li 0.25447 0.37551 0.04131 0.0
Li1058 Li 0.27709 0.4044 0.02696 0.0
Li1059 Li 0.25594 0.37473 0.00505 0.0
C1060 C 0.25235 0.40913 0.06761 0.0
N1061 N 0.24059 0.41415 0.10636 0.0
C1062 C 0.23227 0.40364 0.07154 0.0
C1063 C 0.26646 0.41714 0.08335 0.0
C1064 C 0.22662 0.40628 0.09124 0.0
C1065 C 0.26021 0.4196 0.10285 0.0
C1066 C 0.21811 0.35352 0.02565 0.0
C1067 C 0.20775 0.31692 0.02837 0.0
N1068 N 0.19062 0.32079 0.03629 0.0
C1069 C 0.20032 0.35712 0.03365 0.0
C1070 C 0.22178 0.33324 0.0228 0.0
C1071 C 0.18664 0.34037 0.03899 0.0
C1072 C 0.20111 0.40871 0.01238 0.0
N1073 N 0.21838 0.41608 0.02367 0.0
C1074 C 0.20601 0.44651 0.03562 0.0
C1075 C 0.22118 0.43476 0.03491 0.0
C1076 C 0.18774 0.43907 0.02459 0.0
C1077 C 0.18553 0.42003 0.01257 0.0
H1078 H 0.19932 0.39387 0.00343 0.0
H1079 H 0.23516 0.44042 0.04352 0.0
C1080 C 0.27209 0.35789 0.0723 0.0
N1081 N 0.25385 0.36005 0.06475 0.0
C1082 C 0.27405 0.34872 0.09009 0.0
C1083 C 0.23837 0.34384 0.09221 0.0
C1084 C 0.23709 0.35319 0.07431 0.0
C1085 C 0.25711 0.34184 0.10054 0.0
H1086 H 0.28526 0.36374 0.06471 0.0
H1087 H 0.22278 0.35559 0.06854 0.0
C1088 C 0.2488 0.41493 0.99008 0.0
N1089 N 0.22616 0.43463 0.9656 0.0
C1090 C 0.23538 0.40334 0.97516 0.0
C1091 C 0.25065 0.43654 0.99259 0.0
C1092 C 0.2241 0.41359 0.96291 0.0
C1093 C 0.23907 0.44621 0.98006 0.0
C1094 C 0.2868 0.35802 0.01847 0.0
C1095 C 0.30308 0.36153 0.00651 0.0
C1096 C 0.27949 0.33788 0.02307 0.0
C1097 C 0.3116 0.34476 0.9991 0.0
C1098 C 0.28844 0.32153 0.01541 0.0
N1099 N 0.30416 0.32527 0.00367 0.0
C1100 C 0.31889 0.41327 0.03276 0.0
C1101 C 0.30517 0.44236 0.02463 0.0
C1102 C 0.33819 0.42405 0.03097 0.0
N1103 N 0.30283 0.42227 0.02895 0.0
C1104 C 0.3243 0.45389 0.02306 0.0
C1105 C 0.34102 0.44447 0.02568 0.0
H1106 H 0.31669 0.39739 0.0364 0.0
H1107 H 0.29221 0.44921 0.02168 0.0
C1108 C 0.24412 0.34179 0.97227 0.0
N1109 N 0.2574 0.35904 0.97976 0.0
C1110 C 0.24675 0.33139 0.95363 0.0
C1111 C 0.27648 0.3568 0.95084 0.0
C1112 C 0.2731 0.36683 0.96926 0.0
C1113 C 0.26329 0.33878 0.94282 0.0
H1114 H 0.23149 0.33612 0.98067 0.0
H1115 H 0.28313 0.38087 0.97533 0.0
O1116 O 0.25818 0.40654 0.04844 0.0
O1117 O 0.2316 0.3697 0.02017 0.0
O1118 O 0.25944 0.40512 0.00269 0.0
O1119 O 0.27809 0.37422 0.02568 0.0
H1120 H 0.2212 0.39725 0.05954 0.0
H1121 H 0.28207 0.42143 0.08052 0.0
H1122 H 0.21114 0.40203 0.09451 0.0
H1123 H 0.27096 0.42582 0.1152 0.0
H1124 H 0.21045 0.30116 0.02632 0.0
H1125 H 0.19714 0.37269 0.03581 0.0
H1126 H 0.23528 0.33012 0.0163 0.0
H1127 H 0.17286 0.34295 0.04529 0.0
H1128 H 0.20853 0.46126 0.04482 0.0
H1129 H 0.1717 0.41364 0.0039 0.0
H1130 H 0.28881 0.34736 0.0958 0.0
H1131 H 0.22495 0.33907 0.09989 0.0
H1132 H 0.23345 0.38659 0.97323 0.0
H1133 H 0.26067 0.44572 0.00428 0.0
H1134 H 0.21362 0.40481 0.95135 0.0
H1135 H 0.24028 0.46291 0.98191 0.0
H1136 H 0.30893 0.37699 0.00273 0.0
H1137 H 0.2671 0.33489 0.03253 0.0
H1138 H 0.3241 0.34724 0.9897 0.0
H1139 H 0.2829 0.30586 0.01883 0.0
H1140 H 0.35078 0.41633 0.03313 0.0
H1141 H 0.32596 0.46958 0.01883 0.0
H1142 H 0.23619 0.31759 0.94788 0.0
H1143 H 0.28918 0.36325 0.94282 0.0
Li1144 Li 0.77589 0.16566 0.03768 0.0
Li1145 Li 0.79172 0.14004 0.01509 0.0
Li1146 Li 0.77332 0.16629 0.00113 0.0
Li1147 Li 0.75645 0.1374 0.01619 0.0
C1148 C 0.81451 0.18498 0.01532 0.0
N1149 N 0.84776 0.21259 0.00661 0.0
C1150 C 0.82853 0.17825 0.00292 0.0
C1151 C 0.81757 0.20572 0.0235 0.0
C1152 C 0.8452 0.19246 0.99864 0.0
C1153 C 0.83442 0.21945 0.01884 0.0
C1154 C 0.7665 0.12197 0.05111 0.0
C1155 C 0.76323 0.08959 0.06597 0.0
N1156 N 0.74726 0.09432 0.07564 0.0
C1157 C 0.75013 0.12656 0.06127 0.0
C1158 C 0.77317 0.10337 0.05351 0.0
C1159 C 0.74057 0.11235 0.07356 0.0
C1160 C 0.76137 0.18549 0.07143 0.0
N1161 N 0.77832 0.18262 0.06252 0.0
C1162 C 0.79822 0.20624 0.08785 0.0
C1163 C 0.79656 0.19243 0.07047 0.0
C1164 C 0.78092 0.20979 0.09717 0.0
C1165 C 0.76233 0.19905 0.08883 0.0
H1166 H 0.74703 0.17753 0.06484 0.0
H1167 H 0.80981 0.18972 0.06318 0.0
C1168 C 0.81657 0.11864 0.99271 0.0
N1169 N 0.81269 0.12491 0.01177 0.0
C1170 C 0.8305 0.10575 0.98924 0.0
C1171 C 0.83639 0.10624 0.02511 0.0
C1172 C 0.82239 0.11924 0.02789 0.0
C1173 C 0.84041 0.0991 0.00555 0.0
H1174 H 0.80859 0.12342 0.98019 0.0
H1175 H 0.81887 0.12438 0.04288 0.0
C1176 C 0.746 0.18498 0.02345 0.0
N1177 N 0.73439 0.22303 0.03079 0.0
C1178 C 0.7264 0.18599 0.02809 0.0
C1179 C 0.75967 0.20333 0.0226 0.0
C1180 C 0.72083 0.20537 0.03176 0.0
C1181 C 0.75353 0.22241 0.02632 0.0
C1182 C 0.7604 0.1205 0.98049 0.0
C1183 C 0.74484 0.1241 0.96783 0.0
C1184 C 0.76347 0.1002 0.98184 0.0
C1185 C 0.73248 0.10725 0.95679 0.0
C1186 C 0.75079 0.08377 0.97054 0.0
N1187 N 0.73568 0.08761 0.95837 0.0
C1188 C 0.78835 0.19428 0.97276 0.0
C1189 C 0.75319 0.18615 0.9736 0.0
C1190 C 0.78674 0.20803 0.9584 0.0
N1191 N 0.77172 0.18393 0.98029 0.0
C1192 C 0.75087 0.19962 0.9591 0.0
C1193 C 0.76782 0.21094 0.95152 0.0
H1194 H 0.80288 0.19196 0.97781 0.0
H1195 H 0.74019 0.17761 0.97971 0.0
C1196 C 0.73167 0.09763 0.01824 0.0
N1197 N 0.73215 0.11767 0.01442 0.0
C1198 C 0.71346 0.08428 0.01891 0.0
C1199 C 0.69665 0.11186 0.00989 0.0
C1200 C 0.71517 0.12478 0.00976 0.0
C1201 C 0.69569 0.09152 0.01505 0.0
H1202 H 0.7454 0.09211 0.02116 0.0
H1203 H 0.71603 0.14063 0.00629 0.0
O1204 O 0.79815 0.17121 0.01976 0.0
O1205 O 0.77594 0.13555 0.03884 0.0
O1206 O 0.75172 0.16608 0.02016 0.0
O1207 O 0.77237 0.13674 0.99176 0.0
H1208 H 0.82645 0.16232 0.99643 0.0
H1209 H 0.80712 0.21122 0.03339 0.0
H1210 H 0.85608 0.18748 0.98895 0.0
H1211 H 0.83691 0.23554 0.02501 0.0
H1212 H 0.76817 0.0751 0.0679 0.0
H1213 H 0.74463 0.14073 0.05935 0.0
H1214 H 0.78575 0.09952 0.04566 0.0
H1215 H 0.72778 0.11562 0.08139 0.0
H1216 H 0.81287 0.21397 0.09397 0.0
H1217 H 0.74861 0.20145 0.09542 0.0
H1218 H 0.83339 0.10101 0.97392 0.0
H1219 H 0.84352 0.10136 0.03814 0.0
H1220 H 0.71565 0.17194 0.02905 0.0
H1221 H 0.77482 0.20283 0.01898 0.0
H1222 H 0.70573 0.20636 0.03541 0.0
H1223 H 0.76398 0.23673 0.02565 0.0
H1224 H 0.74224 0.13972 0.96667 0.0
H1225 H 0.7753 0.09712 0.99175 0.0
H1226 H 0.72031 0.10979 0.947 0.0
H1227 H 0.75291 0.06796 0.97152 0.0
H1228 H 0.80017 0.21612 0.95257 0.0
H1229 H 0.73602 0.20143 0.95414 0.0
H1230 H 0.71325 0.06857 0.02266 0.0
H1231 H 0.68321 0.11797 0.00683 0.0
Li1232 Li 0.14062 0.52558 0.26405 0.0
Li1233 Li 0.11111 0.50617 0.2724 0.0
Li1234 Li 0.1357 0.48841 0.25692 0.0
Li1235 Li 0.11461 0.5098 0.23781 0.0
C1236 C 0.15299 0.5113 0.29789 0.0
N1237 N 0.18321 0.52533 0.32733 0.0
C1238 C 0.15146 0.52769 0.31222 0.0
C1239 C 0.16985 0.50195 0.29864 0.0
C1240 C 0.16692 0.5346 0.32694 0.0
C1241 C 0.18497 0.50928 0.31362 0.0
C1242 C 0.10115 0.54323 0.26746 0.0
C1243 C 0.0698 0.55529 0.26653 0.0
N1244 N 0.07505 0.56627 0.28475 0.0
C1245 C 0.10635 0.55483 0.28604 0.0
C1246 C 0.08283 0.54361 0.2575 0.0
C1247 C 0.0929 0.56629 0.29459 0.0
C1248 C 0.15475 0.56746 0.26361 0.0
N1249 N 0.16039 0.55 0.26944 0.0
C1250 C 0.19352 0.56836 0.27825 0.0
C1251 C 0.17939 0.55007 0.27652 0.0
C1252 C 0.18805 0.5865 0.27217 0.0
C1253 C 0.1684 0.58598 0.26486 0.0
H1254 H 0.13974 0.56689 0.25747 0.0
H1255 H 0.18387 0.53587 0.28013 0.0
C1256 C 0.09777 0.50374 0.31098 0.0
N1257 N 0.09152 0.50436 0.29159 0.0
C1258 C 0.08443 0.50419 0.32601 0.0
C1259 C 0.05816 0.50468 0.30073 0.0
C1260 C 0.07212 0.50458 0.28618 0.0
C1261 C 0.06446 0.50489 0.32089 0.0
H1262 H 0.11316 0.50316 0.31481 0.0
H1263 H 0.06756 0.50506 0.27064 0.0
C1264 C 0.16118 0.52007 0.23217 0.0
N1265 N 0.19646 0.54234 0.2209 0.0
C1266 C 0.16086 0.53597 0.21976 0.0
C1267 C 0.17945 0.51543 0.23879 0.0
C1268 C 0.17886 0.54708 0.21426 0.0
C1269 C 0.19712 0.52687 0.23291 0.0
C1270 C 0.09036 0.47038 0.25569 0.0
C1271 C 0.09279 0.45838 0.27145 0.0
C1272 C 0.07143 0.46926 0.24636 0.0
C1273 C 0.07613 0.44563 0.27784 0.0
C1274 C 0.05515 0.4563 0.25317 0.0
N1275 N 0.05781 0.44488 0.26866 0.0
C1276 C 0.1507 0.45291 0.26751 0.0
C1277 C 0.15686 0.46368 0.23521 0.0
C1278 C 0.1629 0.43811 0.26459 0.0
N1279 N 0.14843 0.46563 0.25307 0.0
C1280 C 0.16943 0.44946 0.23181 0.0
C1281 C 0.17293 0.43669 0.24675 0.0
H1282 H 0.14368 0.45483 0.28154 0.0
H1283 H 0.15453 0.47388 0.22393 0.0
C1284 C 0.10385 0.53162 0.207 0.0
N1285 N 0.10298 0.51228 0.21284 0.0
C1286 C 0.09648 0.53412 0.18789 0.0
C1287 C 0.08697 0.49672 0.18149 0.0
C1288 C 0.09473 0.49495 0.20068 0.0
C1289 C 0.08806 0.5165 0.17488 0.0
H1290 H 0.11055 0.54505 0.21713 0.0
H1291 H 0.09449 0.47979 0.20582 0.0
O1292 O 0.13784 0.50406 0.28357 0.0
O1293 O 0.11416 0.532 0.25881 0.0
O1294 O 0.14373 0.50933 0.23809 0.0
O1295 O 0.10641 0.48328 0.24952 0.0
H1296 H 0.13847 0.53498 0.31203 0.0
H1297 H 0.17141 0.48937 0.28764 0.0
H1298 H 0.16594 0.54731 0.33807 0.0
H1299 H 0.19814 0.50226 0.3143 0.0
H1300 H 0.0555 0.55561 0.25907 0.0
H1301 H 0.12064 0.55504 0.29373 0.0
H1302 H 0.07865 0.53481 0.24303 0.0
H1303 H 0.09668 0.57526 0.30902 0.0
H1304 H 0.20865 0.56818 0.2837 0.0
H1305 H 0.16363 0.59975 0.26015 0.0
H1306 H 0.08963 0.50408 0.34149 0.0
H1307 H 0.0428 0.50522 0.29638 0.0
H1308 H 0.14687 0.53982 0.21459 0.0
H1309 H 0.18 0.50341 0.24868 0.0
H1310 H 0.17883 0.55951 0.20475 0.0
H1311 H 0.21135 0.52354 0.23803 0.0
H1312 H 0.10735 0.45915 0.27886 0.0
H1313 H 0.0693 0.47853 0.23419 0.0
H1314 H 0.07775 0.43638 0.29014 0.0
H1315 H 0.04039 0.45539 0.24621 0.0
H1316 H 0.16476 0.42823 0.27633 0.0
H1317 H 0.17695 0.44917 0.21793 0.0
H1318 H 0.09734 0.54961 0.18332 0.0
H1319 H 0.08069 0.48282 0.17176 0.0
Li1320 Li 0.73824 0.90012 0.52665 0.0
Li1321 Li 0.75487 0.87583 0.54337 0.0
Li1322 Li 0.77583 0.90509 0.52781 0.0
Li1323 Li 0.75393 0.87487 0.50637 0.0
C1324 C 0.75696 0.90906 0.57039 0.0
N1325 N 0.75526 0.91157 0.61158 0.0
C1326 C 0.73887 0.90265 0.57894 0.0
C1327 C 0.77414 0.91691 0.58275 0.0
C1328 C 0.73834 0.90399 0.59981 0.0
C1329 C 0.77297 0.91803 0.60356 0.0
C1330 C 0.7197 0.85005 0.51977 0.0
C1331 C 0.71711 0.81291 0.51409 0.0
N1332 N 0.69708 0.81088 0.51036 0.0
C1333 C 0.69909 0.84761 0.51589 0.0
C1334 C 0.7288 0.8326 0.51886 0.0
C1335 C 0.68791 0.82767 0.51116 0.0
C1336 C 0.69997 0.90961 0.51501 0.0
N1337 N 0.71651 0.9153 0.52775 0.0
C1338 C 0.70283 0.94325 0.54373 0.0
C1339 C 0.71826 0.93192 0.54178 0.0
C1340 C 0.68538 0.93757 0.53105 0.0
C1341 C 0.68419 0.92063 0.51635 0.0
H1342 H 0.69899 0.89644 0.50386 0.0
H1343 H 0.73165 0.93634 0.55155 0.0
C1344 C 0.7724 0.86476 0.57874 0.0
N1345 N 0.75529 0.86054 0.56673 0.0
C1346 C 0.77327 0.85651 0.59718 0.0
C1347 C 0.73933 0.83848 0.59011 0.0
C1348 C 0.73894 0.8475 0.57196 0.0
C1349 C 0.75653 0.84334 0.60317 0.0
H1350 H 0.78519 0.87518 0.57428 0.0
H1351 H 0.72539 0.84457 0.56237 0.0
C1352 C 0.74643 0.91657 0.49315 0.0
N1353 N 0.72426 0.93947 0.47177 0.0
C1354 C 0.73397 0.90702 0.47659 0.0
C1355 C 0.74764 0.93777 0.49884 0.0
C1356 C 0.72289 0.91888 0.46595 0.0
C1357 C 0.73629 0.94907 0.48784 0.0
C1358 C 0.79113 0.86297 0.52375 0.0
C1359 C 0.80863 0.87009 0.51448 0.0
C1360 C 0.78856 0.84364 0.53135 0.0
C1361 C 0.82312 0.85756 0.51263 0.0
C1362 C 0.8034 0.83157 0.52921 0.0
N1363 N 0.82022 0.83872 0.51997 0.0
C1364 C 0.8166 0.92117 0.54055 0.0
C1365 C 0.80341 0.93701 0.51396 0.0
C1366 C 0.83566 0.93269 0.53874 0.0
N1367 N 0.80103 0.92335 0.52807 0.0
C1368 C 0.82212 0.9489 0.51171 0.0
C1369 C 0.83871 0.94656 0.52391 0.0
H1370 H 0.81438 0.90988 0.55139 0.0
H1371 H 0.7909 0.93824 0.504 0.0
C1372 C 0.73913 0.84562 0.47079 0.0
N1373 N 0.75476 0.85892 0.48085 0.0
C1374 C 0.7415 0.83553 0.45188 0.0
C1375 C 0.77576 0.85324 0.45401 0.0
C1376 C 0.77271 0.86303 0.47266 0.0
C1377 C 0.76011 0.83917 0.44333 0.0
H1378 H 0.72479 0.84299 0.47724 0.0
H1379 H 0.78463 0.87427 0.48053 0.0
O1380 O 0.75791 0.90724 0.55001 0.0
O1381 O 0.73086 0.86952 0.52396 0.0
O1382 O 0.75697 0.90511 0.50407 0.0
O1383 O 0.77697 0.87523 0.52606 0.0
H1384 H 0.72547 0.89645 0.56953 0.0
H1385 H 0.78825 0.9219 0.57633 0.0
H1386 H 0.72448 0.89893 0.60665 0.0
H1387 H 0.78617 0.92396 0.61333 0.0
H1388 H 0.72398 0.79926 0.51326 0.0
H1389 H 0.69182 0.86099 0.51649 0.0
H1390 H 0.74474 0.83427 0.52152 0.0
H1391 H 0.67195 0.82555 0.50809 0.0
H1392 H 0.7046 0.9564 0.55504 0.0
H1393 H 0.67101 0.91561 0.50631 0.0
H1394 H 0.78682 0.86059 0.60681 0.0
H1395 H 0.72606 0.82855 0.5943 0.0
H1396 H 0.73275 0.89059 0.47209 0.0
H1397 H 0.75701 0.94532 0.51181 0.0
H1398 H 0.71315 0.91169 0.45313 0.0
H1399 H 0.73698 0.96546 0.49215 0.0
H1400 H 0.81099 0.88511 0.50871 0.0
H1401 H 0.77538 0.83805 0.53902 0.0
H1402 H 0.83669 0.86284 0.50542 0.0
H1403 H 0.80158 0.81657 0.535 0.0
H1404 H 0.84799 0.93014 0.54833 0.0
H1405 H 0.8236 0.95959 0.50028 0.0
H1406 H 0.72899 0.82487 0.44416 0.0
H1407 H 0.79021 0.85701 0.44784 0.0
Li1408 Li 0.89538 0.04337 0.2612 0.0
Li1409 Li 0.86956 0.01901 0.24273 0.0
Li1410 Li 0.89502 0.04233 0.22484 0.0
Li1411 Li 0.86998 0.05697 0.24473 0.0
C1412 C 0.9072 0.0052 0.24912 0.0
N1413 N 0.92553 0.97549 0.26486 0.0
C1414 C 0.9001 0.99621 0.2661 0.0
C1415 C 0.92359 0.9991 0.24012 0.0
C1416 C 0.90958 0.98122 0.27385 0.0
C1417 C 0.93266 0.98404 0.24831 0.0
C1418 C 0.8471 0.03528 0.27155 0.0
C1419 C 0.8121 0.02342 0.26227 0.0
N1420 N 0.80771 0.02871 0.28141 0.0
C1421 C 0.84221 0.04056 0.29115 0.0
C1422 C 0.83189 0.02661 0.257 0.0
C1423 C 0.82223 0.03714 0.29583 0.0
C1424 C 0.9025 0.04985 0.30253 0.0
N1425 N 0.91161 0.04508 0.28558 0.0
C1426 C 0.93813 0.03525 0.30483 0.0
C1427 C 0.92952 0.03868 0.28641 0.0
C1428 C 0.92804 0.0383 0.32234 0.0
C1429 C 0.91043 0.04646 0.32117 0.0
H1430 H 0.88845 0.05517 0.30144 0.0
H1431 H 0.93649 0.03495 0.27273 0.0
C1432 C 0.85371 0.97989 0.22237 0.0
N1433 N 0.8552 0.99098 0.24065 0.0
C1434 C 0.84426 0.95909 0.2199 0.0
C1435 C 0.83812 0.96141 0.25516 0.0
C1436 C 0.84782 0.98215 0.25698 0.0
C1437 C 0.83615 0.94956 0.2364 0.0
H1438 H 0.86005 0.9872 0.20972 0.0
H1439 H 0.84948 0.99119 0.27145 0.0
C1440 C 0.91693 0.07694 0.25479 0.0
N1441 N 0.95227 0.09479 0.2762 0.0
C1442 C 0.91703 0.09208 0.27087 0.0
C1443 C 0.93478 0.07063 0.24985 0.0
C1444 C 0.93505 0.10098 0.28145 0.0
C1445 C 0.9525 0.07993 0.26076 0.0
C1446 C 0.85732 0.04376 0.20453 0.0
C1447 C 0.8667 0.06257 0.1983 0.0
C1448 C 0.83959 0.03311 0.1945 0.0
C1449 C 0.85813 0.07043 0.18205 0.0
C1450 C 0.8315 0.04148 0.17832 0.0
N1451 N 0.84086 0.05981 0.17248 0.0
C1452 C 0.90116 0.02488 0.18731 0.0
C1453 C 0.92407 0.05624 0.19613 0.0
C1454 C 0.91009 0.02161 0.16929 0.0
N1455 N 0.90842 0.04175 0.20045 0.0
C1456 C 0.93383 0.05331 0.17843 0.0
C1457 C 0.92709 0.03556 0.16483 0.0
H1458 H 0.88847 0.0138 0.19099 0.0
H1459 H 0.92927 0.06986 0.20654 0.0
C1460 C 0.86163 0.0981 0.25047 0.0
N1461 N 0.85338 0.07793 0.24467 0.0
C1462 C 0.85 0.11363 0.25047 0.0
C1463 C 0.82155 0.08743 0.23836 0.0
C1464 C 0.83378 0.07248 0.23839 0.0
C1465 C 0.82959 0.10841 0.24441 0.0
H1466 H 0.87732 0.10222 0.25484 0.0
H1467 H 0.82756 0.05654 0.23318 0.0
O1468 O 0.89847 0.02024 0.24152 0.0
O1469 O 0.86668 0.0384 0.26688 0.0
O1470 O 0.89943 0.06779 0.24435 0.0
O1471 O 0.86523 0.03593 0.22059 0.0
H1472 H 0.88766 0.00108 0.27346 0.0
H1473 H 0.9293 0.00602 0.22701 0.0
H1474 H 0.90433 0.97422 0.28706 0.0
H1475 H 0.94539 0.97919 0.24153 0.0
H1476 H 0.80022 0.01676 0.25111 0.0
H1477 H 0.85369 0.04723 0.30268 0.0
H1478 H 0.83523 0.02248 0.24172 0.0
H1479 H 0.81827 0.04118 0.31094 0.0
H1480 H 0.95173 0.02893 0.3052 0.0
H1481 H 0.90241 0.04928 0.33443 0.0
H1482 H 0.84347 0.95053 0.20522 0.0
H1483 H 0.83196 0.95486 0.26827 0.0
H1484 H 0.90334 0.09675 0.27537 0.0
H1485 H 0.93491 0.05829 0.23807 0.0
H1486 H 0.93534 0.11272 0.29391 0.0
H1487 H 0.96639 0.07515 0.25711 0.0
H1488 H 0.88037 0.07106 0.20602 0.0
H1489 H 0.83214 0.01856 0.19924 0.0
H1490 H 0.8652 0.08498 0.17706 0.0
H1491 H 0.81776 0.03342 0.17041 0.0
H1492 H 0.90376 0.0081 0.15908 0.0
H1493 H 0.94684 0.06454 0.17579 0.0
H1494 H 0.85707 0.12959 0.25479 0.0
H1495 H 0.80592 0.08248 0.23371 0.0
Li1496 Li 0.27014 0.66651 0.53615 0.0
Li1497 Li 0.28804 0.64217 0.51681 0.0
Li1498 Li 0.27051 0.66642 0.49952 0.0
Li1499 Li 0.25232 0.63627 0.51378 0.0
C1500 C 0.30828 0.6877 0.51429 0.0
N1501 N 0.33815 0.71731 0.50222 0.0
C1502 C 0.32455 0.68169 0.50493 0.0
C1503 C 0.30731 0.70878 0.51769 0.0
C1504 C 0.33948 0.6969 0.4989 0.0
C1505 C 0.32252 0.72351 0.51141 0.0
C1506 C 0.27675 0.62488 0.55151 0.0
C1507 C 0.2881 0.59342 0.55863 0.0
N1508 N 0.293 0.60161 0.57794 0.0
C1509 C 0.28188 0.63297 0.57143 0.0
C1510 C 0.27984 0.60492 0.54505 0.0
C1511 C 0.29008 0.62096 0.58456 0.0
C1512 C 0.25385 0.68312 0.57125 0.0
N1513 N 0.27037 0.68384 0.56054 0.0
C1514 C 0.28849 0.71095 0.5839 0.0
C1515 C 0.28759 0.69714 0.56668 0.0
C1516 C 0.27149 0.71111 0.59496 0.0
C1517 C 0.25404 0.69678 0.58854 0.0
H1518 H 0.24047 0.67207 0.56627 0.0
H1519 H 0.30066 0.69702 0.55818 0.0
C1520 C 0.31667 0.61859 0.5019 0.0
N1521 N 0.31113 0.6297 0.5181 0.0
C1522 C 0.33324 0.60886 0.50358 0.0
C1523 C 0.33769 0.62191 0.53864 0.0
C1524 C 0.32166 0.63207 0.53605 0.0
C1525 C 0.34392 0.61012 0.52227 0.0
H1526 H 0.30825 0.61732 0.48766 0.0
H1527 H 0.31723 0.6414 0.54858 0.0
C1528 C 0.23728 0.68035 0.52262 0.0
N1529 N 0.21725 0.71126 0.53665 0.0
C1530 C 0.21848 0.67519 0.53016 0.0
C1531 C 0.24586 0.70122 0.52215 0.0
C1532 C 0.20859 0.69105 0.53719 0.0
C1533 C 0.23551 0.71662 0.52933 0.0
C1534 C 0.25988 0.62081 0.4791 0.0
C1535 C 0.24581 0.62515 0.4651 0.0
C1536 C 0.26179 0.60023 0.4809 0.0
C1537 C 0.23376 0.60875 0.45316 0.0
C1538 C 0.24946 0.58427 0.46868 0.0
N1539 N 0.2358 0.58882 0.4552 0.0
C1540 C 0.2863 0.69133 0.46872 0.0
C1541 C 0.25165 0.6881 0.47278 0.0
C1542 C 0.28518 0.70481 0.45394 0.0
N1543 N 0.26975 0.68367 0.47813 0.0
C1544 C 0.24981 0.70138 0.45802 0.0
C1545 C 0.26676 0.71017 0.44854 0.0
H1546 H 0.30041 0.68708 0.47266 0.0
H1547 H 0.23858 0.6813 0.48 0.0
C1548 C 0.22846 0.59746 0.51847 0.0
N1549 N 0.22855 0.61597 0.51097 0.0
C1550 C 0.2107 0.58331 0.51868 0.0
C1551 C 0.19348 0.60721 0.50274 0.0
C1552 C 0.21165 0.62087 0.50276 0.0
C1553 C 0.1928 0.58837 0.51126 0.0
H1554 H 0.24207 0.59388 0.52481 0.0
H1555 H 0.21219 0.63572 0.49686 0.0
O1556 O 0.29357 0.67304 0.5204 0.0
O1557 O 0.26874 0.63649 0.53848 0.0
O1558 O 0.24731 0.66504 0.51594 0.0
O1559 O 0.27136 0.6366 0.49135 0.0
H1560 H 0.32558 0.66547 0.50217 0.0
H1561 H 0.29498 0.71375 0.52514 0.0
H1562 H 0.3521 0.69246 0.49154 0.0
H1563 H 0.32192 0.73987 0.51389 0.0
H1564 H 0.29073 0.57804 0.55378 0.0
H1565 H 0.27959 0.64837 0.57671 0.0
H1566 H 0.27639 0.59857 0.52959 0.0
H1567 H 0.29413 0.62704 0.60001 0.0
H1568 H 0.30244 0.72129 0.58856 0.0
H1569 H 0.24057 0.69633 0.59657 0.0
H1570 H 0.33756 0.60058 0.49029 0.0
H1571 H 0.34475 0.62313 0.55355 0.0
H1572 H 0.21168 0.65911 0.53075 0.0
H1573 H 0.26036 0.70545 0.51631 0.0
H1574 H 0.19406 0.68729 0.54314 0.0
H1575 H 0.242 0.73283 0.52908 0.0
H1576 H 0.24409 0.641 0.46363 0.0
H1577 H 0.27253 0.59663 0.49176 0.0
H1578 H 0.22273 0.61185 0.44233 0.0
H1579 H 0.25069 0.56826 0.46998 0.0
H1580 H 0.29866 0.71117 0.44705 0.0
H1581 H 0.2352 0.70454 0.45395 0.0
H1582 H 0.2109 0.56881 0.52507 0.0
H1583 H 0.18002 0.61183 0.49702 0.0
Li1584 Li 0.37049 0.51698 0.74019 0.0
Li1585 Li 0.39826 0.54195 0.76043 0.0
Li1586 Li 0.37304 0.55419 0.74196 0.0
Li1587 Li 0.39772 0.54101 0.72314 0.0
C1588 C 0.35742 0.54495 0.77647 0.0
N1589 N 0.33282 0.56357 0.80097 0.0
C1590 C 0.36495 0.56358 0.78823 0.0
C1591 C 0.33746 0.53565 0.7773 0.0
C1592 C 0.35224 0.57279 0.80048 0.0
C1593 C 0.32524 0.54535 0.78976 0.0
C1594 C 0.41202 0.50507 0.74611 0.0
C1595 C 0.44158 0.4899 0.74283 0.0
N1596 N 0.43625 0.47837 0.75821 0.0
C1597 C 0.40677 0.49293 0.76175 0.0
C1598 C 0.42952 0.50344 0.73646 0.0
C1599 C 0.41924 0.4796 0.76771 0.0
C1600 C 0.34935 0.47738 0.72231 0.0
N1601 N 0.35539 0.48965 0.73971 0.0
C1602 C 0.34412 0.46156 0.75903 0.0
C1603 C 0.35249 0.48232 0.75785 0.0
C1604 C 0.33832 0.44832 0.74135 0.0
C1605 C 0.34051 0.45652 0.7228 0.0
H1606 H 0.35196 0.48361 0.70808 0.0
H1607 H 0.35738 0.49246 0.77144 0.0
C1608 C 0.43271 0.55209 0.78955 0.0
N1609 N 0.41351 0.54222 0.78537 0.0
C1610 C 0.44322 0.54901 0.80704 0.0
C1611 C 0.4137 0.52678 0.81636 0.0
C1612 C 0.40382 0.53017 0.79863 0.0
C1613 C 0.43381 0.53588 0.82049 0.0
H1614 H 0.44016 0.56202 0.77929 0.0
H1615 H 0.38854 0.5225 0.79509 0.0
C1616 C 0.35602 0.54236 0.70539 0.0
N1617 N 0.33098 0.56035 0.68192 0.0
C1618 C 0.36351 0.56036 0.69658 0.0
C1619 C 0.33588 0.53335 0.7021 0.0
C1620 C 0.35058 0.56927 0.68482 0.0
C1621 C 0.32344 0.54272 0.69021 0.0
C1622 C 0.42193 0.57531 0.74495 0.0
C1623 C 0.42749 0.59671 0.75013 0.0
C1624 C 0.43662 0.56347 0.74068 0.0
C1625 C 0.44763 0.60589 0.7509 0.0
C1626 C 0.45659 0.57322 0.74155 0.0
N1627 N 0.46165 0.59405 0.74661 0.0
C1628 C 0.365 0.59533 0.74392 0.0
C1629 C 0.3361 0.56915 0.74185 0.0
C1630 C 0.35332 0.61081 0.74433 0.0
N1631 N 0.35628 0.57496 0.74267 0.0
C1632 C 0.32385 0.58409 0.74218 0.0
C1633 C 0.33241 0.60527 0.74337 0.0
H1634 H 0.38104 0.59956 0.74445 0.0
H1635 H 0.32949 0.55288 0.74088 0.0
C1636 C 0.41106 0.52154 0.68939 0.0
N1637 N 0.41278 0.54058 0.6997 0.0
C1638 C 0.42249 0.5186 0.67299 0.0
C1639 C 0.43698 0.5551 0.67769 0.0
C1640 C 0.42489 0.55742 0.69379 0.0
C1641 C 0.43618 0.53537 0.66724 0.0
H1642 H 0.40104 0.5085 0.6942 0.0
H1643 H 0.42564 0.57255 0.70189 0.0
O1644 O 0.36952 0.53588 0.76415 0.0
O1645 O 0.39998 0.51824 0.74004 0.0
O1646 O 0.36836 0.53366 0.71725 0.0
O1647 O 0.40217 0.56627 0.74361 0.0
H1648 H 0.3804 0.57092 0.78773 0.0
H1649 H 0.33145 0.52121 0.76826 0.0
H1650 H 0.35781 0.58729 0.80957 0.0
H1651 H 0.30972 0.53841 0.79047 0.0
H1652 H 0.45517 0.48853 0.73552 0.0
H1653 H 0.39329 0.49389 0.76933 0.0
H1654 H 0.43375 0.51244 0.72412 0.0
H1655 H 0.41538 0.47021 0.77988 0.0
H1656 H 0.34252 0.45579 0.7736 0.0
H1657 H 0.33626 0.44669 0.70887 0.0
H1658 H 0.45864 0.55661 0.80989 0.0
H1659 H 0.40592 0.51645 0.82628 0.0
H1660 H 0.37909 0.56749 0.69902 0.0
H1661 H 0.32991 0.51939 0.70883 0.0
H1662 H 0.35611 0.5833 0.67803 0.0
H1663 H 0.30779 0.53601 0.68763 0.0
H1664 H 0.41638 0.60617 0.75349 0.0
H1665 H 0.43267 0.54696 0.73681 0.0
H1666 H 0.45212 0.62243 0.75486 0.0
H1667 H 0.46807 0.56419 0.73826 0.0
H1668 H 0.36059 0.6269 0.74499 0.0
H1669 H 0.30784 0.57907 0.74166 0.0
H1670 H 0.42067 0.50323 0.66506 0.0
H1671 H 0.44723 0.56853 0.67393 0.0
Li1672 Li 0.61138 0.01333 0.76611 0.0
Li1673 Li 0.64048 0.03004 0.75327 0.0
Li1674 Li 0.61449 0.00827 0.73057 0.0
Li1675 Li 0.63669 0.99342 0.7551 0.0
C1676 C 0.59786 0.04502 0.74874 0.0
N1677 N 0.5667 0.0665 0.75284 0.0
C1678 C 0.59978 0.06258 0.76261 0.0
C1679 C 0.5802 0.03862 0.7367 0.0
C1680 C 0.58382 0.07315 0.76454 0.0
C1681 C 0.56459 0.04963 0.73906 0.0
C1682 C 0.6493 0.02897 0.7923 0.0
C1683 C 0.67839 0.04066 0.81494 0.0
N1684 N 0.67066 0.05751 0.82172 0.0
C1685 C 0.64161 0.04635 0.79959 0.0
C1686 C 0.66781 0.02602 0.80012 0.0
C1687 C 0.65263 0.06062 0.81442 0.0
C1688 C 0.59945 0.01184 0.80515 0.0
N1689 N 0.59261 0.01432 0.78636 0.0
C1690 C 0.56023 0.01618 0.79783 0.0
C1691 C 0.5733 0.01614 0.78239 0.0
C1692 C 0.56724 0.01447 0.81744 0.0
C1693 C 0.58705 0.01213 0.82102 0.0
H1694 H 0.61453 0.0094 0.80783 0.0
H1695 H 0.56786 0.01707 0.76724 0.0
C1696 C 0.65612 0.07239 0.7506 0.0
N1697 N 0.66066 0.05409 0.75541 0.0
C1698 C 0.67093 0.09011 0.75207 0.0
C1699 C 0.69473 0.06973 0.76332 0.0
C1700 C 0.67953 0.05242 0.76149 0.0
C1701 C 0.69048 0.08887 0.75861 0.0
H1702 H 0.64103 0.07318 0.7456 0.0
H1703 H 0.6828 0.03757 0.76482 0.0
C1704 C 0.59289 0.97468 0.75872 0.0
N1705 N 0.56392 0.95253 0.77978 0.0
C1706 C 0.59834 0.96426 0.77473 0.0
C1707 C 0.57271 0.97379 0.75336 0.0
C1708 C 0.58347 0.95316 0.78521 0.0
C1709 C 0.55829 0.96252 0.76421 0.0
C1710 C 0.66162 0.01694 0.72414 0.0
C1711 C 0.66235 0.03292 0.71166 0.0
C1712 C 0.67922 0.0101 0.72951 0.0
C1713 C 0.68062 0.0418 0.70478 0.0
C1714 C 0.69719 0.01933 0.72228 0.0
N1715 N 0.69751 0.03487 0.71017 0.0
C1716 C 0.606 0.0176 0.69157 0.0
C1717 C 0.58724 0.9861 0.70014 0.0
C1718 C 0.59625 0.01469 0.67258 0.0
N1719 N 0.60138 0.00338 0.70484 0.0
C1720 C 0.57654 0.98294 0.68157 0.0
C1721 C 0.5809 0.99741 0.66744 0.0
H1722 H 0.61706 0.03136 0.69581 0.0
H1723 H 0.58399 0.97495 0.71095 0.0
C1724 C 0.65868 0.96988 0.77678 0.0
N1725 N 0.65056 0.97193 0.7584 0.0
C1726 C 0.67268 0.957 0.77859 0.0
C1727 C 0.66855 0.94769 0.74266 0.0
C1728 C 0.65466 0.96075 0.74157 0.0
C1729 C 0.67813 0.94618 0.76129 0.0
H1730 H 0.65484 0.97884 0.78988 0.0
H1731 H 0.64805 0.96301 0.72716 0.0
O1732 O 0.61344 0.03464 0.74644 0.0
O1733 O 0.63875 0.01494 0.7776 0.0
O1734 O 0.60726 0.98607 0.74865 0.0
O1735 O 0.64389 0.00828 0.73131 0.0
H1736 H 0.6135 0.06813 0.77166 0.0
H1737 H 0.57841 0.02512 0.72585 0.0
H1738 H 0.58508 0.08671 0.77528 0.0
H1739 H 0.55079 0.04474 0.72997 0.0
H1740 H 0.6928 0.03865 0.821 0.0
H1741 H 0.62724 0.04873 0.79389 0.0
H1742 H 0.67415 0.01283 0.79455 0.0
H1743 H 0.64685 0.07416 0.82015 0.0
H1744 H 0.54492 0.01776 0.79455 0.0
H1745 H 0.59281 0.01027 0.83593 0.0
H1746 H 0.66706 0.10469 0.74847 0.0
H1747 H 0.70968 0.06814 0.76817 0.0
H1748 H 0.61388 0.96493 0.77917 0.0
H1749 H 0.56821 0.98208 0.74124 0.0
H1750 H 0.58747 0.9451 0.79771 0.0
H1751 H 0.54262 0.96182 0.76033 0.0
H1752 H 0.64907 0.03881 0.70773 0.0
H1753 H 0.67916 0.99811 0.73948 0.0
H1754 H 0.68137 0.05429 0.69525 0.0
H1755 H 0.7109 0.01424 0.72641 0.0
H1756 H 0.60069 0.02606 0.6622 0.0
H1757 H 0.5647 0.96955 0.67866 0.0
H1758 H 0.67943 0.95582 0.79325 0.0
H1759 H 0.67242 0.93966 0.72898 0.0
Li1760 Li 0.76994 0.67368 0.0144 0.0
Li1761 Li 0.78476 0.64452 0.99691 0.0
Li1762 Li 0.76994 0.67073 0.9776 0.0
Li1763 Li 0.7486 0.64508 0.99385 0.0
C1764 C 0.80785 0.68983 0.00848 0.0
N1765 N 0.83648 0.71865 0.0312 0.0
C1766 C 0.82126 0.68328 0.02175 0.0
C1767 C 0.80908 0.71101 0.00666 0.0
C1768 C 0.8356 0.6981 0.03314 0.0
C1769 C 0.82364 0.72534 0.0183 0.0
C1770 C 0.75397 0.63034 0.02866 0.0
C1771 C 0.74022 0.59538 0.03516 0.0
N1772 N 0.72844 0.603 0.04875 0.0
C1773 C 0.74177 0.63784 0.04271 0.0
C1774 C 0.75322 0.60895 0.02484 0.0
C1775 C 0.72895 0.62375 0.05271 0.0
C1776 C 0.75912 0.70351 0.04431 0.0
N1777 N 0.77147 0.68978 0.03996 0.0
C1778 C 0.78158 0.69089 0.07469 0.0
C1779 C 0.78289 0.68374 0.05463 0.0
C1780 C 0.76832 0.70435 0.07976 0.0
C1781 C 0.75748 0.71123 0.06424 0.0
H1782 H 0.74962 0.7075 0.03253 0.0
H1783 H 0.79208 0.6723 0.05088 0.0
C1784 C 0.81983 0.62848 0.98583 0.0
N1785 N 0.80596 0.62909 0.99974 0.0
C1786 C 0.83628 0.61888 0.98935 0.0
C1787 C 0.8235 0.61028 0.02112 0.0
C1788 C 0.80748 0.62015 0.01708 0.0
C1789 C 0.83847 0.60987 0.00738 0.0
H1790 H 0.81842 0.63597 0.97227 0.0
H1791 H 0.79651 0.62116 0.02809 0.0
C1792 C 0.74034 0.69054 0.98695 0.0
N1793 N 0.72559 0.72197 0.97007 0.0
C1794 C 0.72247 0.68605 0.97508 0.0
C1795 C 0.75064 0.71099 0.99032 0.0
C1796 C 0.71527 0.70217 0.96666 0.0
C1797 C 0.74297 0.72667 0.98163 0.0
C1798 C 0.75674 0.62263 0.96055 0.0
C1799 C 0.74034 0.62404 0.94789 0.0
C1800 C 0.76294 0.60355 0.96137 0.0
C1801 C 0.73023 0.6062 0.93634 0.0
C1802 C 0.75246 0.58609 0.94955 0.0
N1803 N 0.73645 0.58776 0.9374 0.0
C1804 C 0.7918 0.69666 0.95161 0.0
C1805 C 0.75811 0.68487 0.94003 0.0
C1806 C 0.79529 0.70788 0.93499 0.0
N1807 N 0.77338 0.68568 0.95402 0.0
C1808 C 0.76091 0.696 0.92319 0.0
C1809 C 0.77967 0.70794 0.92056 0.0
H1810 H 0.80387 0.69667 0.96259 0.0
H1811 H 0.74369 0.6757 0.94195 0.0
C1812 C 0.70865 0.63888 0.00295 0.0
N1813 N 0.7222 0.6284 0.9945 0.0
C1814 C 0.68964 0.62845 0.00646 0.0
C1815 C 0.69855 0.5965 0.99225 0.0
C1816 C 0.71753 0.60753 0.98924 0.0
C1817 C 0.68439 0.60695 0.00119 0.0
H1818 H 0.7128 0.65533 0.00755 0.0
H1819 H 0.72867 0.59924 0.9834 0.0
O1820 O 0.79367 0.67555 0.99724 0.0
O1821 O 0.76622 0.64384 0.01834 0.0
O1822 O 0.7477 0.67496 0.9952 0.0
O1823 O 0.76691 0.63989 0.97188 0.0
H1824 H 0.82053 0.66695 0.02334 0.0
H1825 H 0.79899 0.71634 0.99629 0.0
H1826 H 0.84602 0.69327 0.04354 0.0
H1827 H 0.82476 0.74179 0.01705 0.0
H1828 H 0.7394 0.57878 0.03228 0.0
H1829 H 0.74203 0.65434 0.0457 0.0
H1830 H 0.76236 0.60289 0.01378 0.0
H1831 H 0.71935 0.62932 0.06355 0.0
H1832 H 0.79022 0.68525 0.08622 0.0
H1833 H 0.74689 0.72136 0.06757 0.0
H1834 H 0.84748 0.61917 0.97839 0.0
H1835 H 0.82423 0.60326 0.03505 0.0
H1836 H 0.71436 0.67027 0.97224 0.0
H1837 H 0.76442 0.71471 0.99956 0.0
H1838 H 0.70151 0.69893 0.95737 0.0
H1839 H 0.75082 0.74257 0.98409 0.0
H1840 H 0.73535 0.6387 0.94715 0.0
H1841 H 0.77565 0.60225 0.97109 0.0
H1842 H 0.71743 0.60701 0.92655 0.0
H1843 H 0.75703 0.5712 0.95007 0.0
H1844 H 0.81015 0.71638 0.93345 0.0
H1845 H 0.74837 0.69559 0.91261 0.0
H1846 H 0.67918 0.63715 0.0133 0.0
H1847 H 0.69522 0.57987 0.98827 0.0
Li1848 Li 0.8802 0.51708 0.76897 0.0
Li1849 Li 0.90813 0.54023 0.79079 0.0
Li1850 Li 0.88656 0.55463 0.76753 0.0
Li1851 Li 0.91028 0.5351 0.75535 0.0
C1852 C 0.86306 0.54046 0.80176 0.0
N1853 N 0.83051 0.54265 0.82443 0.0
C1854 C 0.86479 0.5398 0.82252 0.0
C1855 C 0.8448 0.54236 0.79255 0.0
C1856 C 0.84815 0.54086 0.83371 0.0
C1857 C 0.82852 0.54344 0.80426 0.0
C1858 C 0.92181 0.50215 0.76851 0.0
C1859 C 0.95606 0.49788 0.76679 0.0
N1860 N 0.95006 0.47999 0.75453 0.0
C1861 C 0.91594 0.48366 0.75603 0.0
C1862 C 0.94199 0.50929 0.77408 0.0
C1863 C 0.93047 0.4727 0.74908 0.0
C1864 C 0.8555 0.48149 0.75 0.0
N1865 N 0.8604 0.49315 0.76788 0.0
C1866 C 0.8358 0.47092 0.78389 0.0
C1867 C 0.85111 0.48814 0.78473 0.0
C1868 C 0.8302 0.45872 0.76556 0.0
C1869 C 0.8403 0.46413 0.74847 0.0
H1870 H 0.86338 0.48576 0.73693 0.0
H1871 H 0.85556 0.49749 0.79882 0.0
C1872 C 0.93245 0.55994 0.82532 0.0
N1873 N 0.92063 0.54242 0.81628 0.0
C1874 C 0.94038 0.56022 0.84494 0.0
C1875 C 0.92382 0.52448 0.84511 0.0
C1876 C 0.9164 0.52484 0.82557 0.0
C1877 C 0.93577 0.54239 0.85509 0.0
H1878 H 0.93547 0.57366 0.81742 0.0
H1879 H 0.90695 0.51121 0.81783 0.0
C1880 C 0.86836 0.53145 0.72991 0.0
N1881 N 0.83974 0.53034 0.69918 0.0
C1882 C 0.87404 0.53586 0.71076 0.0
C1883 C 0.84813 0.52623 0.73334 0.0
C1884 C 0.85935 0.53528 0.69545 0.0
C1885 C 0.83389 0.52581 0.71763 0.0
C1886 C 0.92337 0.57821 0.76181 0.0
C1887 C 0.91529 0.57886 0.74242 0.0
C1888 C 0.93883 0.59401 0.77001 0.0
C1889 C 0.92282 0.59532 0.73153 0.0
C1890 C 0.94597 0.61022 0.75864 0.0
N1891 N 0.93788 0.61053 0.7398 0.0
C1892 C 0.87024 0.58751 0.78357 0.0
C1893 C 0.86308 0.57991 0.74849 0.0
C1894 C 0.85668 0.60104 0.78462 0.0
N1895 N 0.87257 0.57673 0.76584 0.0
C1896 C 0.84932 0.59323 0.74883 0.0
C1897 C 0.84555 0.6035 0.76718 0.0
H1898 H 0.87817 0.58475 0.79709 0.0
H1899 H 0.86552 0.57157 0.7345 0.0
C1900 C 0.92126 0.51581 0.72036 0.0
N1901 N 0.92799 0.53118 0.73527 0.0
C1902 C 0.93371 0.51108 0.70542 0.0
C1903 C 0.95966 0.5385 0.7212 0.0
C1904 C 0.9468 0.54242 0.7361 0.0
C1905 C 0.9531 0.52256 0.70576 0.0
H1906 H 0.90626 0.50707 0.72027 0.0
H1907 H 0.95185 0.55427 0.74839 0.0
O1908 O 0.87925 0.53934 0.79063 0.0
O1909 O 0.9079 0.51342 0.77498 0.0
O1910 O 0.88262 0.532 0.74506 0.0
O1911 O 0.91639 0.5622 0.77278 0.0
H1912 H 0.87883 0.53844 0.82993 0.0
H1913 H 0.84325 0.54332 0.77661 0.0
H1914 H 0.84927 0.54029 0.84978 0.0
H1915 H 0.81432 0.54499 0.79732 0.0
H1916 H 0.97175 0.50329 0.77083 0.0
H1917 H 0.90036 0.47798 0.75158 0.0
H1918 H 0.94673 0.52363 0.7837 0.0
H1919 H 0.92617 0.45843 0.73928 0.0
H1920 H 0.82839 0.46728 0.79741 0.0
H1921 H 0.83676 0.45486 0.73415 0.0
H1922 H 0.94957 0.57428 0.85224 0.0
H1923 H 0.92026 0.51033 0.85234 0.0
H1924 H 0.88963 0.53977 0.70777 0.0
H1925 H 0.84343 0.52234 0.74789 0.0
H1926 H 0.86353 0.53877 0.6806 0.0
H1927 H 0.81818 0.52183 0.7201 0.0
H1928 H 0.90339 0.5668 0.73581 0.0
H1929 H 0.94528 0.59371 0.78499 0.0
H1930 H 0.9167 0.59599 0.7165 0.0
H1931 H 0.95795 0.62253 0.76479 0.0
H1932 H 0.85459 0.60909 0.79898 0.0
H1933 H 0.84111 0.59472 0.73502 0.0
H1934 H 0.92816 0.49884 0.69355 0.0
H1935 H 0.97458 0.54759 0.72183 0.0
Li1936 Li 0.75309 0.37736 0.5246 0.0
Li1937 Li 0.73351 0.40297 0.51235 0.0
Li1938 Li 0.74825 0.37781 0.48906 0.0
Li1939 Li 0.76904 0.40686 0.50824 0.0
C1940 C 0.71551 0.35798 0.51886 0.0
N1941 N 0.69287 0.33022 0.54102 0.0
C1942 C 0.70249 0.36487 0.53237 0.0
C1943 C 0.71691 0.33696 0.5165 0.0
C1944 C 0.69118 0.35059 0.54345 0.0
C1945 C 0.70538 0.32318 0.52789 0.0
C1946 C 0.76958 0.41977 0.54648 0.0
C1947 C 0.78701 0.45379 0.55995 0.0
N1948 N 0.79986 0.44484 0.57078 0.0
C1949 C 0.78302 0.41094 0.55772 0.0
C1950 C 0.77162 0.4414 0.54759 0.0
C1951 C 0.79819 0.42386 0.56993 0.0
C1952 C 0.76984 0.34776 0.54393 0.0
N1953 N 0.75593 0.36015 0.5455 0.0
C1954 C 0.74819 0.34947 0.57781 0.0
C1955 C 0.74517 0.36128 0.56203 0.0
C1956 C 0.76254 0.33654 0.57657 0.0
C1957 C 0.77325 0.33562 0.55921 0.0
H1958 H 0.77873 0.34765 0.53106 0.0
H1959 H 0.7346 0.37173 0.56316 0.0
C1960 C 0.69517 0.41275 0.50441 0.0
N1961 N 0.71228 0.41758 0.51633 0.0
C1962 C 0.68024 0.42471 0.50679 0.0
C1963 C 0.70105 0.44639 0.53344 0.0
C1964 C 0.71527 0.43376 0.53086 0.0
C1965 C 0.68316 0.44201 0.52134 0.0
H1966 H 0.6932 0.39972 0.49297 0.0
H1967 H 0.72884 0.43704 0.54031 0.0
C1968 C 0.78234 0.36464 0.49286 0.0
N1969 N 0.79941 0.33758 0.46807 0.0
C1970 C 0.79904 0.37209 0.48252 0.0
C1971 C 0.77432 0.3434 0.49054 0.0
C1972 C 0.80746 0.35816 0.47009 0.0
C1973 C 0.78315 0.32998 0.47795 0.0
C1974 C 0.75315 0.42355 0.47617 0.0
C1975 C 0.7694 0.42359 0.46419 0.0
C1976 C 0.74263 0.43998 0.47645 0.0
C1977 C 0.77492 0.44014 0.45273 0.0
C1978 C 0.74861 0.45623 0.46474 0.0
N1979 N 0.7645 0.45598 0.45323 0.0
C1980 C 0.72812 0.34526 0.46043 0.0
C1981 C 0.75811 0.36433 0.45027 0.0
C1982 C 0.72608 0.33183 0.44274 0.0
N1983 N 0.74409 0.36098 0.46393 0.0
C1984 C 0.75698 0.35103 0.43272 0.0
C1985 C 0.7408 0.33443 0.42866 0.0
H1986 H 0.71707 0.34302 0.47147 0.0
H1987 H 0.77066 0.37687 0.45333 0.0
C1988 C 0.81013 0.42155 0.51433 0.0
N1989 N 0.7927 0.42746 0.50905 0.0
C1990 C 0.82807 0.43561 0.51506 0.0
C1991 C 0.80969 0.46193 0.50588 0.0
C1992 C 0.7921 0.44739 0.50547 0.0
C1993 C 0.82798 0.456 0.51047 0.0
H1994 H 0.8101 0.40584 0.5179 0.0
H1995 H 0.77799 0.45209 0.50244 0.0
O1996 O 0.72688 0.37177 0.50806 0.0
O1997 O 0.75489 0.40733 0.53406 0.0
O1998 O 0.77378 0.37805 0.50504 0.0
O1999 O 0.74746 0.40755 0.48755 0.0
H2000 H 0.70126 0.3811 0.53443 0.0
H2001 H 0.72685 0.33135 0.50607 0.0
H2002 H 0.68111 0.35572 0.55403 0.0
H2003 H 0.70639 0.30688 0.5263 0.0
H2004 H 0.78884 0.47054 0.56079 0.0
H2005 H 0.78197 0.3943 0.55688 0.0
H2006 H 0.76185 0.44864 0.53857 0.0
H2007 H 0.8087 0.41721 0.57866 0.0
H2008 H 0.73987 0.351 0.59107 0.0
H2009 H 0.78435 0.32578 0.55751 0.0
H2010 H 0.6666 0.42037 0.49734 0.0
H2011 H 0.70434 0.45969 0.5446 0.0
H2012 H 0.80527 0.38848 0.48376 0.0
H2013 H 0.76127 0.33737 0.49821 0.0
H2014 H 0.82034 0.36374 0.46194 0.0
H2015 H 0.77703 0.31354 0.47597 0.0
H2016 H 0.77801 0.4113 0.46418 0.0
H2017 H 0.73002 0.44022 0.48563 0.0
H2018 H 0.78758 0.44046 0.44353 0.0
H2019 H 0.74062 0.46906 0.46483 0.0
H2020 H 0.7131 0.31961 0.44018 0.0
H2021 H 0.76901 0.35355 0.42274 0.0
H2022 H 0.84187 0.43042 0.51868 0.0
H2023 H 0.80898 0.47765 0.5027 0.0
Li2024 Li 0.62907 0.50727 0.30563 0.0
Li2025 Li 0.65329 0.53036 0.28942 0.0
Li2026 Li 0.62744 0.50771 0.26861 0.0
Li2027 Li 0.65595 0.49372 0.28523 0.0
C2028 C 0.6053 0.53326 0.29249 0.0
N2029 N 0.56702 0.53948 0.29911 0.0
C2030 C 0.60217 0.55199 0.30235 0.0
C2031 C 0.58896 0.51769 0.2861 0.0
C2032 C 0.58271 0.55484 0.30553 0.0
C2033 C 0.56973 0.52113 0.28954 0.0
C2034 C 0.67419 0.52445 0.32212 0.0
C2035 C 0.70918 0.53296 0.3324 0.0
N2036 N 0.70563 0.54922 0.34492 0.0
C2037 C 0.67083 0.54111 0.33518 0.0
C2038 C 0.69347 0.52023 0.32074 0.0
C2039 C 0.68695 0.55351 0.34654 0.0
C2040 C 0.60595 0.48356 0.33245 0.0
N2041 N 0.61367 0.5032 0.32856 0.0
C2042 C 0.5979 0.51737 0.35642 0.0
C2043 C 0.61022 0.51998 0.34039 0.0
C2044 C 0.58915 0.49726 0.36043 0.0
C2045 C 0.59359 0.48022 0.34835 0.0
H2046 H 0.60923 0.47047 0.32305 0.0
H2047 H 0.61677 0.53544 0.33716 0.0
C2048 C 0.65626 0.57251 0.28616 0.0
N2049 N 0.66792 0.5586 0.29059 0.0
C2050 C 0.66472 0.59293 0.28371 0.0
C2051 C 0.69728 0.58479 0.29064 0.0
C2052 C 0.68811 0.56444 0.29323 0.0
C2053 C 0.68554 0.59922 0.2853 0.0
H2054 H 0.64035 0.56755 0.28367 0.0
H2055 H 0.69723 0.55311 0.29629 0.0
C2056 C 0.6147 0.46529 0.27577 0.0
N2057 N 0.59151 0.42875 0.25819 0.0
C2058 C 0.62298 0.45175 0.26274 0.0
C2059 C 0.59468 0.46009 0.28006 0.0
C2060 C 0.61099 0.4334 0.25394 0.0
C2061 C 0.58319 0.4416 0.27097 0.0
C2062 C 0.66858 0.52675 0.25424 0.0
C2063 C 0.66044 0.53926 0.2416 0.0
C2064 C 0.68929 0.52898 0.25711 0.0
C2065 C 0.67316 0.55382 0.23203 0.0
C2066 C 0.70151 0.54369 0.24722 0.0
N2067 N 0.69326 0.55571 0.235 0.0
C2068 C 0.60296 0.52219 0.23934 0.0
C2069 C 0.61139 0.48937 0.22997 0.0
C2070 C 0.59446 0.52273 0.22006 0.0
N2071 N 0.61145 0.50579 0.24385 0.0
C2072 C 0.60303 0.48924 0.21057 0.0
C2073 C 0.59495 0.50636 0.2052 0.0
H2074 H 0.60383 0.53547 0.25031 0.0
H2075 H 0.6188 0.47687 0.23357 0.0
C2076 C 0.66969 0.45762 0.29573 0.0
N2077 N 0.67215 0.47265 0.28293 0.0
C2078 C 0.68107 0.44184 0.29433 0.0
C2079 C 0.69743 0.45742 0.26678 0.0
C2080 C 0.68546 0.47262 0.26843 0.0
C2081 C 0.6953 0.44178 0.27984 0.0
H2082 H 0.65883 0.45786 0.30698 0.0
H2083 H 0.68671 0.48429 0.25801 0.0
O2084 O 0.62431 0.53003 0.28971 0.0
O2085 O 0.65864 0.51212 0.31089 0.0
O2086 O 0.62633 0.48316 0.2848 0.0
O2087 O 0.65634 0.51267 0.26403 0.0
H2088 H 0.61465 0.56411 0.30771 0.0
H2089 H 0.5911 0.50315 0.27845 0.0
H2090 H 0.58008 0.56924 0.31317 0.0
H2091 H 0.55695 0.5092 0.28462 0.0
H2092 H 0.72421 0.52996 0.33145 0.0
H2093 H 0.65595 0.54452 0.3364 0.0
H2094 H 0.69626 0.50733 0.31071 0.0
H2095 H 0.68462 0.56655 0.35664 0.0
H2096 H 0.59482 0.53098 0.3652 0.0
H2097 H 0.58753 0.46444 0.35109 0.0
H2098 H 0.65496 0.60354 0.28002 0.0
H2099 H 0.7134 0.58884 0.29184 0.0
H2100 H 0.63844 0.45546 0.25926 0.0
H2101 H 0.58807 0.47014 0.29041 0.0
H2102 H 0.61718 0.42286 0.24372 0.0
H2103 H 0.56767 0.43742 0.27412 0.0
H2104 H 0.64447 0.53789 0.23933 0.0
H2105 H 0.69588 0.51986 0.26727 0.0
H2106 H 0.66705 0.56366 0.22226 0.0
H2107 H 0.71755 0.54568 0.24942 0.0
H2108 H 0.58871 0.53639 0.21652 0.0
H2109 H 0.60362 0.47621 0.19963 0.0
H2110 H 0.679 0.43002 0.30467 0.0
H2111 H 0.70804 0.45769 0.25522 0.0
Dy2112 Dy 0.99071 0.0172 0.00222 0.0
C2113 C 0.07211 0.01569 0.02619 0.0
C2114 C 0.95294 0.02506 0.00027 0.0
Dy2115 Dy 0.03412 0.02222 0.01972 0.0
O2116 O 0.9598 0.01263 0.98716 0.0
O2117 O 0.96658 0.03273 0.01434 0.0
O2118 O 0.9983 0.00142 0.97292 0.0
O2119 O 0.01984 0.0232 0.99043 0.0
C2120 C 0.01712 0.00994 0.97537 0.0
C2121 C 0.0069 0.02899 0.04615 0.0
O2122 O 0.03637 0.05345 0.00856 0.0
O2123 O 0.00224 0.05175 0.0025 0.0
O2124 O 0.06197 0.02409 0.03959 0.0
O2125 O 0.06168 0.01141 0.00921 0.0
O2126 O 0.02527 0.03887 0.04803 0.0
O2127 O 0.00489 0.01547 0.03136 0.0
O2128 O 0.98906 0.9858 0.01304 0.0
O2129 O 0.0233 0.98752 0.0173 0.0
C2130 C 0.0209 0.0622 0.00389 0.0
C2131 C 0.00475 0.97693 0.01647 0.0
Dy2132 Dy 0.26209 0.7669 0.23973 0.0
C2133 C 0.26244 0.77821 0.3254 0.0
C2134 C 0.26082 0.76621 0.19895 0.0
Dy2135 Dy 0.25791 0.77888 0.28487 0.0
O2136 O 0.27548 0.76229 0.21005 0.0
O2137 O 0.2465 0.76987 0.2101 0.0
O2138 O 0.28971 0.7541 0.24804 0.0
O2139 O 0.28235 0.77942 0.26551 0.0
C2140 C 0.29415 0.76678 0.26429 0.0
C2141 C 0.22634 0.78112 0.26105 0.0
O2142 O 0.27302 0.80983 0.27689 0.0
O2143 O 0.26605 0.80166 0.24253 0.0
O2144 O 0.24892 0.78638 0.31636 0.0
O2145 O 0.27359 0.77103 0.31235 0.0
O2146 O 0.23129 0.79287 0.27782 0.0
O2147 O 0.23716 0.76742 0.25893 0.0
O2148 O 0.24838 0.73554 0.24713 0.0
O2149 O 0.25313 0.744 0.28168 0.0
C2150 C 0.27209 0.81533 0.25835 0.0
C2151 C 0.24879 0.73021 0.26569 0.0
Dy2152 Dy 0.53555 0.02263 0.51319 0.0
C2153 C 0.45572 0.04308 0.51314 0.0
C2154 C 0.57013 0.00901 0.52275 0.0
Dy2155 Dy 0.4906 0.028 0.51212 0.0
O2156 O 0.56353 0.01093 0.50466 0.0
O2157 O 0.55805 0.01495 0.53559 0.0
O2158 O 0.54084 0.04075 0.48651 0.0
O2159 O 0.51241 0.02325 0.49029 0.0
C2160 C 0.52213 0.03619 0.48003 0.0
C2161 C 0.50523 0.01411 0.54465 0.0
O2162 O 0.48602 0.99596 0.49685 0.0
O2163 O 0.5176 0.99 0.50683 0.0
O2164 O 0.46747 0.04166 0.52846 0.0
O2165 O 0.46277 0.03571 0.49676 0.0
O2166 O 0.487 0.00762 0.53746 0.0
O2167 O 0.51404 0.02796 0.53487 0.0
O2168 O 0.53948 0.05597 0.52559 0.0
O2169 O 0.50818 0.06039 0.51318 0.0
C2170 C 0.49906 0.98338 0.49886 0.0
C2171 C 0.52646 0.06791 0.52113 0.0
Dy2172 Dy 0.23688 0.2763 0.76093 0.0
C2173 C 0.32131 0.2748 0.7512 0.0
C2174 C 0.19834 0.27627 0.77049 0.0
Dy2175 Dy 0.28196 0.26872 0.75882 0.0
O2176 O 0.20702 0.28593 0.75629 0.0
O2177 O 0.21061 0.26641 0.77922 0.0
O2178 O 0.24541 0.30564 0.74562 0.0
O2179 O 0.26675 0.29502 0.76303 0.0
C2180 C 0.26424 0.30812 0.75113 0.0
C2181 C 0.25668 0.23305 0.7629 0.0
O2182 O 0.28187 0.28136 0.79117 0.0
O2183 O 0.24793 0.2826 0.79334 0.0
O2184 O 0.31441 0.27149 0.76862 0.0
O2185 O 0.30679 0.27497 0.73808 0.0
O2186 O 0.27585 0.23409 0.76209 0.0
O2187 O 0.25297 0.25092 0.7615 0.0
O2188 O 0.23594 0.25758 0.73123 0.0
O2189 O 0.26991 0.26625 0.72667 0.0
C2190 C 0.26628 0.28433 0.80164 0.0
C2191 C 0.2513 0.2586 0.71962 0.0
Dy2192 Dy 0.00601 0.01793 0.48768 0.0
C2193 C 0.0385 0.04341 0.57015 0.0
C2194 C 0.98879 0.0109 0.44969 0.0
Dy2195 Dy 0.01788 0.0339 0.5339 0.0
O2196 O 0.00506 0.02408 0.45526 0.0
O2197 O 0.98219 0.00122 0.46479 0.0
O2198 O 0.03677 0.01105 0.48467 0.0
O2199 O 0.03243 0.03565 0.50535 0.0
C2200 C 0.04504 0.02511 0.49891 0.0
C2201 C 0.9782 0.01932 0.52716 0.0
O2202 O 0.01781 0.06414 0.52102 0.0
O2203 O 0.99879 0.05001 0.49152 0.0
O2204 O 0.02317 0.05132 0.56463 0.0
O2205 O 0.04302 0.03102 0.5555 0.0
O2206 O 0.98638 0.02638 0.54488 0.0
O2207 O 0.99181 0.02106 0.5152 0.0
O2208 O 0.00293 0.98766 0.50073 0.0
O2209 O 0.02063 0.0002 0.53133 0.0
C2210 C 0.00704 0.06602 0.50452 0.0
C2211 C 0.01175 0.98474 0.51801 0.0
Dy2212 Dy 0.28431 0.77889 0.77063 0.0
C2213 C 0.20476 0.74896 0.72874 0.0
C2214 C 0.31901 0.78702 0.79376 0.0
Dy2215 Dy 0.23892 0.76104 0.75232 0.0
O2216 O 0.31641 0.77703 0.77597 0.0
O2217 O 0.30261 0.79306 0.79897 0.0
O2218 O 0.29655 0.78731 0.74062 0.0
O2219 O 0.26723 0.77445 0.74298 0.0
C2220 C 0.27959 0.78029 0.7306 0.0
C2221 C 0.24452 0.76813 0.79225 0.0
O2222 O 0.25232 0.73235 0.74826 0.0
O2223 O 0.28249 0.74418 0.76735 0.0
O2224 O 0.22189 0.75689 0.72239 0.0
O2225 O 0.20644 0.7471 0.74784 0.0
O2226 O 0.22775 0.7686 0.78249 0.0
O2227 O 0.25658 0.76185 0.78043 0.0
O2228 O 0.2698 0.80691 0.77541 0.0
O2229 O 0.24145 0.79563 0.75342 0.0
C2230 C 0.26957 0.72934 0.75642 0.0
C2231 C 0.2535 0.81025 0.76548 0.0
Dy2232 Dy 0.5125 0.01837 0.03817 0.0
C2233 C 0.51598 0.02384 0.95016 0.0
C2234 C 0.51089 0.02333 0.07854 0.0
Dy2235 Dy 0.51351 0.02786 0.99047 0.0
O2236 O 0.49882 0.00951 0.06656 0.0
O2237 O 0.52389 0.03444 0.06846 0.0
O2238 O 0.51779 0.98513 0.03244 0.0
O2239 O 0.51561 0.00328 0.00923 0.0
C2240 C 0.51849 0.98574 0.01311 0.0
C2241 C 0.50754 0.06038 0.01575 0.0
O2242 O 0.48133 0.0151 0.99338 0.0
O2243 O 0.48041 0.01728 0.02855 0.0
O2244 O 0.50278 0.01233 0.95972 0.0
O2245 O 0.5277 0.03746 0.96262 0.0
O2246 O 0.5082 0.06118 0.99644 0.0
O2247 O 0.51043 0.04279 0.01938 0.0
O2248 O 0.54454 0.03157 0.0353 0.0
O2249 O 0.54565 0.02927 0.00018 0.0
C2250 C 0.4716 0.01421 0.01013 0.0
C2251 C 0.55437 0.03259 0.01864 0.0
Dy2252 Dy 0.26399 0.29813 0.26672 0.0
C2253 C 0.26479 0.21129 0.25751 0.0
C2254 C 0.25805 0.33552 0.25651 0.0
Dy2255 Dy 0.26079 0.25168 0.258 0.0
O2256 O 0.26477 0.33244 0.27428 0.0
O2257 O 0.25455 0.31834 0.24484 0.0
O2258 O 0.27849 0.29943 0.29709 0.0
O2259 O 0.25819 0.27221 0.28524 0.0
C2260 C 0.27089 0.2802 0.29955 0.0
C2261 C 0.25798 0.27295 0.22575 0.0
O2262 O 0.22902 0.25101 0.26343 0.0
O2263 O 0.23072 0.28674 0.26783 0.0
O2264 O 0.2559 0.22103 0.27103 0.0
O2265 O 0.27127 0.22353 0.2442 0.0
O2266 O 0.24778 0.25438 0.22649 0.0
O2267 O 0.26919 0.2779 0.24134 0.0
O2268 O 0.29563 0.29677 0.26005 0.0
O2269 O 0.29336 0.26252 0.26662 0.0
C2270 C 0.2205 0.26744 0.26667 0.0
C2271 C 0.30408 0.28059 0.26324 0.0
Dy2272 Dy 0.50776 0.51526 0.98815 0.0
C2273 C 0.54 0.52658 0.07154 0.0
C2274 C 0.49028 0.5088 0.95038 0.0
Dy2275 Dy 0.51805 0.52555 0.03629 0.0
O2276 O 0.50583 0.50143 0.9562 0.0
O2277 O 0.48383 0.5192 0.96544 0.0
O2278 O 0.53995 0.52409 0.97948 0.0
O2279 O 0.53276 0.52673 0.00879 0.0
C2280 C 0.54708 0.52996 0.99778 0.0
C2281 C 0.4791 0.5171 0.02372 0.0
O2282 O 0.52162 0.55744 0.02599 0.0
O2283 O 0.50349 0.5482 0.99501 0.0
O2284 O 0.5223 0.53144 0.07021 0.0
O2285 O 0.54556 0.52171 0.05375 0.0
O2286 O 0.48571 0.52789 0.04079 0.0
O2287 O 0.49331 0.51008 0.016 0.0
O2288 O 0.50445 0.483 0.99772 0.0
O2289 O 0.51695 0.49085 0.03126 0.0
C2290 C 0.51262 0.56232 0.00951 0.0
C2291 C 0.51029 0.47741 0.01529 0.0
Dy2292 Dy 0.78175 0.28146 0.27104 0.0
C2293 C 0.70707 0.26533 0.22686 0.0
C2294 C 0.81582 0.28629 0.29502 0.0
Dy2295 Dy 0.73898 0.26594 0.25272 0.0
O2296 O 0.8151 0.28655 0.27567 0.0
O2297 O 0.79792 0.28385 0.30134 0.0
O2298 O 0.79054 0.29428 0.24209 0.0
O2299 O 0.76856 0.26762 0.24191 0.0
C2300 C 0.77733 0.28061 0.23113 0.0
C2301 C 0.74309 0.26688 0.2926 0.0
O2302 O 0.7505 0.23628 0.24748 0.0
O2303 O 0.77807 0.24639 0.27008 0.0
O2304 O 0.70653 0.25511 0.24265 0.0
O2305 O 0.72508 0.27497 0.22497 0.0
O2306 O 0.72943 0.25361 0.28173 0.0
O2307 O 0.75207 0.27965 0.28174 0.0
O2308 O 0.77193 0.31225 0.27423 0.0
O2309 O 0.74125 0.30083 0.25653 0.0
C2310 C 0.76584 0.2319 0.25807 0.0
C2311 C 0.75502 0.31586 0.26597 0.0
Dy2312 Dy 0.01043 0.51743 0.53552 0.0
C2313 C 0.01151 0.52125 0.45098 0.0
C2314 C 0.00697 0.51494 0.5755 0.0
Dy2315 Dy 0.00992 0.52601 0.49142 0.0
O2316 O 0.00859 0.4996 0.56249 0.0
O2317 O 0.00713 0.53173 0.56669 0.0
O2318 O 0.02249 0.48845 0.52667 0.0
O2319 O 0.00225 0.49857 0.50707 0.0
C2320 C 0.01317 0.48528 0.50908 0.0
C2321 C 0.00694 0.5587 0.51684 0.0
O2322 O 0.97724 0.51868 0.49428 0.0
O2323 O 0.97783 0.51743 0.52888 0.0
O2324 O 0.00295 0.50716 0.46165 0.0
O2325 O 0.0194 0.53803 0.46239 0.0
O2326 O 0.99939 0.55608 0.49842 0.0
O2327 O 0.01744 0.54513 0.51985 0.0
O2328 O 0.04268 0.52951 0.53346 0.0
O2329 O 0.04231 0.52505 0.49865 0.0
C2330 C 0.96815 0.51719 0.51123 0.0
C2331 C 0.05201 0.5287 0.51659 0.0
Dy2332 Dy 0.7376 0.77644 0.25928 0.0
C2333 C 0.82071 0.78344 0.24804 0.0
C2334 C 0.6982 0.77264 0.26672 0.0
Dy2335 Dy 0.7823 0.77438 0.25905 0.0
O2336 O 0.70741 0.78495 0.25471 0.0
O2337 O 0.71046 0.76207 0.27451 0.0
O2338 O 0.74235 0.80344 0.24123 0.0
O2339 O 0.76521 0.79954 0.26192 0.0
C2340 C 0.76064 0.81005 0.24811 0.0
C2341 C 0.75831 0.73956 0.26771 0.0
O2342 O 0.78212 0.78767 0.2909 0.0
O2343 O 0.74758 0.78344 0.2922 0.0
O2344 O 0.81331 0.76688 0.25636 0.0
O2345 O 0.80731 0.79501 0.24634 0.0
O2346 O 0.77687 0.7447 0.2746 0.0
O2347 O 0.75477 0.75199 0.25548 0.0
O2348 O 0.73791 0.75858 0.22911 0.0
O2349 O 0.77203 0.76746 0.22615 0.0
C2350 C 0.76588 0.78813 0.301 0.0
C2351 C 0.75376 0.75995 0.21818 0.0
Dy2352 Dy 0.76708 0.27137 0.7424 0.0
C2353 C 0.75561 0.27308 0.82691 0.0
C2354 C 0.76991 0.27402 0.70229 0.0
Dy2355 Dy 0.75684 0.27524 0.78661 0.0
O2356 O 0.7848 0.27473 0.71517 0.0
O2357 O 0.7533 0.27147 0.71126 0.0
O2358 O 0.79587 0.2616 0.75144 0.0
O2359 O 0.7839 0.28251 0.77086 0.0
C2360 C 0.79755 0.27195 0.76907 0.0
C2361 C 0.7263 0.27448 0.76004 0.0
O2362 O 0.76498 0.30887 0.78289 0.0
O2363 O 0.76375 0.30472 0.748 0.0
O2364 O 0.76881 0.28553 0.81836 0.0
O2365 O 0.74291 0.26198 0.81347 0.0
O2366 O 0.72775 0.28452 0.77783 0.0
O2367 O 0.74001 0.26401 0.75825 0.0
O2368 O 0.75708 0.23805 0.74602 0.0
O2369 O 0.76261 0.2426 0.78068 0.0
C2370 C 0.76486 0.31648 0.76529 0.0
C2371 C 0.75916 0.2305 0.76346 0.0
Dy2372 Dy 0.76387 0.7984 0.76748 0.0
C2373 C 0.76368 0.70863 0.75791 0.0
C2374 C 0.75584 0.83686 0.7644 0.0
Dy2375 Dy 0.76155 0.74934 0.7568 0.0
O2376 O 0.77315 0.83326 0.77047 0.0
O2377 O 0.74322 0.81964 0.76015 0.0
O2378 O 0.77725 0.80097 0.79926 0.0
O2379 O 0.7715 0.77263 0.78178 0.0
C2380 C 0.77784 0.78125 0.79897 0.0
C2381 C 0.7536 0.77051 0.72568 0.0
O2382 O 0.73201 0.7493 0.76944 0.0
O2383 O 0.73387 0.78504 0.77824 0.0
O2384 O 0.76874 0.71947 0.74314 0.0
O2385 O 0.75708 0.71996 0.77207 0.0
O2386 O 0.75823 0.75214 0.7233 0.0
O2387 O 0.7507 0.77451 0.74393 0.0
O2388 O 0.78982 0.79581 0.74847 0.0
O2389 O 0.79373 0.76325 0.75698 0.0
C2390 C 0.72459 0.76533 0.77744 0.0
C2391 C 0.80016 0.78051 0.74869 0.0
Dy2392 Dy 0.48707 0.51778 0.50726 0.0
C2393 C 0.57127 0.51648 0.51609 0.0
C2394 C 0.4525 0.52978 0.51778 0.0
Dy2395 Dy 0.53256 0.52174 0.51412 0.0
O2396 O 0.45442 0.51904 0.50083 0.0
O2397 O 0.46909 0.5331 0.52873 0.0
O2398 O 0.48638 0.49838 0.47788 0.0
O2399 O 0.51201 0.52066 0.4882 0.0
C2400 C 0.50505 0.50575 0.47511 0.0
C2401 C 0.51234 0.53091 0.54647 0.0
O2402 O 0.53276 0.55118 0.50031 0.0
O2403 O 0.49891 0.55142 0.50224 0.0
O2404 O 0.56314 0.52732 0.5294 0.0
O2405 O 0.55832 0.50878 0.50136 0.0
O2406 O 0.53024 0.54038 0.54384 0.0
O2407 O 0.5073 0.51663 0.53256 0.0
O2408 O 0.48776 0.48632 0.51753 0.0
O2409 O 0.52157 0.48734 0.51287 0.0
C2410 C 0.51723 0.56058 0.49864 0.0
C2411 C 0.50362 0.47718 0.51624 0.0
Dy2412 Dy 0.03426 0.51909 0.00794 0.0
C2413 C 0.95511 0.54064 0.01865 0.0
C2414 C 0.06997 0.50661 0.01479 0.0
Dy2415 Dy 0.99039 0.52628 0.01678 0.0
O2416 O 0.06224 0.50848 0.99708 0.0
O2417 O 0.05836 0.51181 0.0284 0.0
O2418 O 0.03026 0.52804 0.97654 0.0
O2419 O 0.00565 0.51446 0.99179 0.0
C2420 C 0.01085 0.523 0.97637 0.0
C2421 C 0.01467 0.52296 0.04807 0.0
O2422 O 0.98375 0.4919 0.00912 0.0
O2423 O 0.01688 0.48706 0.01138 0.0
O2424 O 0.96556 0.53635 0.03383 0.0
O2425 O 0.96365 0.53653 0.00219 0.0
O2426 O 0.99549 0.51668 0.0478 0.0
O2427 O 0.01922 0.5316 0.03262 0.0
O2428 O 0.04025 0.55372 0.01409 0.0
O2429 O 0.007 0.55797 0.01152 0.0
C2430 C 0.99732 0.47968 0.00972 0.0
C2431 C 0.02646 0.56565 0.01318 0.0
H2432 H 0.99061 0.1632 0.96247 0.0
H2433 H 0.0475 0.17145 0.93477 0.0
H2434 H 0.05645 0.14233 0.95139 0.0
H2435 H 0.00786 0.14746 0.00959 0.0
H2436 H 0.98591 0.1281 0.01135 0.0
H2437 H 0.98421 0.15068 0.99849 0.0
H2438 H 0.96894 0.12707 0.96652 0.0
H2439 H 0.97038 0.10449 0.97939 0.0
H2440 H 0.98202 0.10749 0.95596 0.0
H2441 H 0.0596 0.11255 0.97082 0.0
H2442 H 0.05489 0.08089 0.98836 0.0
H2443 H 0.99507 0.08976 0.00152 0.0
C2444 C 0.00492 0.15887 0.95979 0.0
C2445 C 0.0185 0.17007 0.9476 0.0
C2446 C 0.03706 0.16371 0.94455 0.0
C2447 C 0.04228 0.14706 0.95385 0.0
C2448 C 0.02874 0.13666 0.96601 0.0
C2449 C 0.01031 0.14204 0.96877 0.0
C2450 C 0.9981 0.12741 0.98169 0.0
C2451 C 0.99377 0.13912 0.00145 0.0
C2452 C 0.97872 0.11593 0.97019 0.0
C2453 C 0.01245 0.11278 0.98538 0.0
C2454 C 0.03019 0.11872 0.97655 0.0
C2455 C 0.04579 0.10773 0.97783 0.0
C2456 C 0.04301 0.08983 0.98796 0.0
C2457 C 0.02465 0.08289 0.99637 0.0
C2458 C 0.00929 0.09473 0.99529 0.0
H2459 H 0.12411 0.7615 0.19491 0.0
H2460 H 0.13419 0.82803 0.19065 0.0
H2461 H 0.16756 0.83141 0.20743 0.0
H2462 H 0.14737 0.76294 0.24244 0.0
H2463 H 0.15856 0.74035 0.23703 0.0
H2464 H 0.13602 0.74277 0.22326 0.0
H2465 H 0.15317 0.73821 0.18983 0.0
H2466 H 0.17581 0.73578 0.20355 0.0
H2467 H 0.17624 0.75519 0.18618 0.0
H2468 H 0.19798 0.82838 0.22766 0.0
H2469 H 0.22412 0.81888 0.24971 0.0
H2470 H 0.19614 0.75405 0.23901 0.0
C2471 C 0.13347 0.77673 0.1971 0.0
C2472 C 0.12635 0.79453 0.19155 0.0
C2473 C 0.13904 0.8142 0.19509 0.0
C2474 C 0.15815 0.81626 0.20441 0.0
C2475 C 0.16456 0.79848 0.20988 0.0
C2476 C 0.15272 0.77905 0.20623 0.0
C2477 C 0.16293 0.76261 0.21451 0.0
C2478 C 0.15048 0.75152 0.23024 0.0
C2479 C 0.1673 0.74703 0.1975 0.0
C2480 C 0.18205 0.77597 0.22402 0.0
C2481 C 0.18268 0.79661 0.221 0.0
C2482 C 0.19788 0.81224 0.22978 0.0
C2483 C 0.2126 0.80673 0.2423 0.0
C2484 C 0.21218 0.78577 0.24572 0.0
C2485 C 0.197 0.77012 0.23613 0.0
H2486 H 0.51877 0.86926 0.46763 0.0
H2487 H 0.46556 0.86056 0.42783 0.0
H2488 H 0.45804 0.89398 0.44244 0.0
H2489 H 0.49859 0.89681 0.51129 0.0
H2490 H 0.522 0.91422 0.51757 0.0
H2491 H 0.5217 0.88824 0.50615 0.0
H2492 H 0.54254 0.90319 0.47771 0.0
H2493 H 0.54287 0.92914 0.489 0.0
H2494 H 0.53358 0.92188 0.46329 0.0
H2495 H 0.45789 0.92939 0.45886 0.0
H2496 H 0.46573 0.96525 0.47517 0.0
H2497 H 0.51959 0.95167 0.50388 0.0
C2498 C 0.5053 0.87423 0.46243 0.0
C2499 C 0.49263 0.86242 0.44675 0.0
C2500 C 0.47538 0.8695 0.43987 0.0
C2501 C 0.47095 0.88836 0.44814 0.0
C2502 C 0.48394 0.89994 0.46328 0.0
C2503 C 0.50076 0.89319 0.47041 0.0
C2504 C 0.51317 0.90953 0.48547 0.0
C2505 C 0.5139 0.90173 0.50636 0.0
C2506 C 0.53428 0.91633 0.47843 0.0
C2507 C 0.50109 0.92675 0.48506 0.0
C2508 C 0.48408 0.92072 0.47249 0.0
C2509 C 0.47103 0.93424 0.46895 0.0
C2510 C 0.47563 0.9546 0.47829 0.0
C2511 C 0.49327 0.96131 0.49081 0.0
C2512 C 0.50595 0.94703 0.49444 0.0
H2513 H 0.41238 0.26426 0.68284 0.0
H2514 H 0.45161 0.29879 0.7317 0.0
H2515 H 0.42262 0.29999 0.75247 0.0
H2516 H 0.37296 0.29273 0.68943 0.0
H2517 H 0.3533 0.27058 0.68307 0.0
H2518 H 0.37724 0.2711 0.67269 0.0
H2519 H 0.37997 0.23627 0.68685 0.0
H2520 H 0.356 0.23564 0.69724 0.0
H2521 H 0.37747 0.23406 0.71325 0.0
H2522 H 0.38929 0.29669 0.76808 0.0
H2523 H 0.35376 0.29205 0.77618 0.0
H2524 H 0.33623 0.26256 0.71604 0.0
C2525 C 0.41482 0.27184 0.69801 0.0
C2526 C 0.43416 0.28126 0.70583 0.0
C2527 C 0.43685 0.29145 0.72554 0.0
C2528 C 0.42052 0.29214 0.73743 0.0
C2529 C 0.4016 0.28279 0.72925 0.0
C2530 C 0.39864 0.27302 0.70992 0.0
C2531 C 0.37669 0.26519 0.70431 0.0
C2532 C 0.36964 0.27553 0.68631 0.0
C2533 C 0.37228 0.24138 0.70017 0.0
C2534 C 0.36775 0.27232 0.72341 0.0
C2535 C 0.38237 0.28204 0.73777 0.0
C2536 C 0.37771 0.28925 0.75689 0.0
C2537 C 0.35757 0.28653 0.76138 0.0
C2538 C 0.34243 0.27719 0.74665 0.0
C2539 C 0.34759 0.27004 0.72745 0.0
H2540 H 0.01244 0.89565 0.59097 0.0
H2541 H 0.00408 0.85118 0.538 0.0
H2542 H 0.00514 0.87987 0.51648 0.0
H2543 H 0.9822 0.92997 0.57271 0.0
H2544 H 0.99821 0.95326 0.58416 0.0
H2545 H 0.9972 0.92926 0.59535 0.0
H2546 H 0.03552 0.93266 0.59385 0.0
H2547 H 0.03661 0.95668 0.58266 0.0
H2548 H 0.04669 0.93571 0.57019 0.0
H2549 H 0.00533 0.91325 0.50082 0.0
H2550 H 0.00646 0.94917 0.49213 0.0
H2551 H 0.01585 0.97181 0.55531 0.0
C2552 C 0.01081 0.89198 0.57484 0.0
C2553 C 0.00817 0.87121 0.56612 0.0
C2554 C 0.0063 0.86701 0.54496 0.0
C2555 C 0.0068 0.88317 0.53263 0.0
C2556 C 0.00934 0.90346 0.5417 0.0
C2557 C 0.01148 0.90794 0.56231 0.0
C2558 C 0.01401 0.93107 0.56826 0.0
C2559 C 0.99688 0.93618 0.58086 0.0
C2560 C 0.03442 0.93952 0.57939 0.0
C2561 C 0.01284 0.93888 0.54778 0.0
C2562 C 0.01002 0.92272 0.53265 0.0
C2563 C 0.00771 0.92606 0.51252 0.0
C2564 C 0.00831 0.94648 0.50774 0.0
C2565 C 0.01141 0.96328 0.52302 0.0
C2566 C 0.01377 0.95933 0.54326 0.0
H2567 H 0.42689 0.76396 0.8204 0.0
H2568 H 0.41948 0.78458 0.88248 0.0
H2569 H 0.38691 0.7934 0.87266 0.0
H2570 H 0.40458 0.803 0.79809 0.0
H2571 H 0.39261 0.7854 0.77714 0.0
H2572 H 0.41552 0.78115 0.78901 0.0
H2573 H 0.39855 0.74394 0.7952 0.0
H2574 H 0.37565 0.74803 0.78321 0.0
H2575 H 0.37589 0.74038 0.80833 0.0
H2576 H 0.35488 0.79976 0.85592 0.0
H2577 H 0.32511 0.80093 0.83377 0.0
H2578 H 0.35381 0.77604 0.78299 0.0
C2579 C 0.41845 0.77044 0.83189 0.0
C2580 C 0.42565 0.77357 0.85219 0.0
C2581 C 0.41409 0.78184 0.86686 0.0
C2582 C 0.39567 0.78705 0.86141 0.0
C2583 C 0.38902 0.78384 0.84125 0.0
C2584 C 0.4 0.77559 0.82674 0.0
C2585 C 0.38922 0.77297 0.80624 0.0
C2586 C 0.4012 0.78644 0.79177 0.0
C2587 C 0.38455 0.74997 0.79776 0.0
C2588 C 0.37045 0.78098 0.81147 0.0
C2589 C 0.37062 0.78734 0.8317 0.0
C2590 C 0.35461 0.7949 0.84004 0.0
C2591 C 0.33783 0.7956 0.82738 0.0
C2592 C 0.33728 0.78868 0.80674 0.0
C2593 C 0.3539 0.78156 0.79872 0.0
H2594 H 0.49177 0.17472 0.05281 0.0
H2595 H 0.48681 0.15544 0.1127 0.0
H2596 H 0.49017 0.11974 0.09969 0.0
H2597 H 0.46335 0.12561 0.02708 0.0
H2598 H 0.47853 0.12684 0.00575 0.0
H2599 H 0.47478 0.15045 0.01974 0.0
H2600 H 0.51305 0.16239 0.02535 0.0
H2601 H 0.51691 0.13881 0.01149 0.0
H2602 H 0.52775 0.14579 0.03672 0.0
H2603 H 0.49559 0.08666 0.08025 0.0
H2604 H 0.5018 0.05847 0.05563 0.0
H2605 H 0.50306 0.09944 0.0085 0.0
C2606 C 0.49116 0.16284 0.06305 0.0
C2607 C 0.48894 0.16755 0.08366 0.0
C2608 C 0.48828 0.15186 0.0968 0.0
C2609 C 0.49022 0.13164 0.08956 0.0
C2610 C 0.49252 0.12744 0.06912 0.0
C2611 C 0.49276 0.14254 0.05601 0.0
C2612 C 0.49552 0.13403 0.03478 0.0
C2613 C 0.47694 0.13425 0.02103 0.0
C2614 C 0.51444 0.14596 0.02662 0.0
C2615 C 0.49764 0.11205 0.03811 0.0
C2616 C 0.49564 0.10846 0.05797 0.0
C2617 C 0.49717 0.08931 0.06466 0.0
C2618 C 0.50088 0.07344 0.05066 0.0
C2619 C 0.50324 0.07693 0.03034 0.0
C2620 C 0.50142 0.09642 0.024 0.0
H2621 H 0.12584 0.2916 0.32376 0.0
H2622 H 0.10271 0.22526 0.31393 0.0
H2623 H 0.13018 0.22082 0.29247 0.0
H2624 H 0.14521 0.29801 0.27426 0.0
H2625 H 0.1673 0.31601 0.28408 0.0
H2626 H 0.14459 0.31468 0.29703 0.0
H2627 H 0.16314 0.30779 0.32959 0.0
H2628 H 0.18589 0.3093 0.31678 0.0
H2629 H 0.17661 0.28652 0.32899 0.0
H2630 H 0.16078 0.22284 0.27374 0.0
H2631 H 0.19419 0.23074 0.26097 0.0
H2632 H 0.19899 0.29548 0.28407 0.0
C2633 C 0.12647 0.27612 0.3171 0.0
C2634 C 0.11175 0.25885 0.32037 0.0
C2635 C 0.11331 0.2389 0.31126 0.0
C2636 C 0.12897 0.23616 0.29908 0.0
C2637 C 0.14312 0.25347 0.29619 0.0
C2638 C 0.14216 0.27305 0.30504 0.0
C2639 C 0.16019 0.28874 0.30065 0.0
C2640 C 0.15394 0.30534 0.28827 0.0
C2641 C 0.17216 0.29866 0.32016 0.0
C2642 C 0.1716 0.27478 0.28833 0.0
C2643 C 0.16126 0.25457 0.28571 0.0
C2644 C 0.16898 0.23863 0.27558 0.0
C2645 C 0.18801 0.24331 0.26838 0.0
C2646 C 0.19927 0.26375 0.27149 0.0
C2647 C 0.1907 0.27977 0.28121 0.0
H2648 H 0.94839 0.06326 0.14106 0.0
H2649 H 0.93145 0.99731 0.14743 0.0
H2650 H 0.94867 0.98914 0.11726 0.0
H2651 H 0.9454 0.05947 0.08683 0.0
H2652 H 0.96723 0.07903 0.08532 0.0
H2653 H 0.95238 0.08012 0.10682 0.0
H2654 H 0.98363 0.08052 0.13033 0.0
H2655 H 0.99857 0.07947 0.10891 0.0
H2656 H 0.99802 0.06016 0.12639 0.0
H2657 H 0.96674 0.98757 0.08627 0.0
H2658 H 0.98784 0.99282 0.05768 0.0
H2659 H 0.99676 0.05956 0.07266 0.0
C2660 C 0.94835 0.04709 0.13625 0.0
C2661 C 0.93803 0.03097 0.14659 0.0
C2662 C 0.93849 0.01003 0.13955 0.0
C2663 C 0.94843 0.00517 0.12246 0.0
C2664 C 0.95823 0.02136 0.11263 0.0
C2665 C 0.95856 0.0419 0.11933 0.0
C2666 C 0.97109 0.05623 0.10633 0.0
C2667 C 0.95826 0.06949 0.0957 0.0
C2668 C 0.98888 0.0699 0.11873 0.0
C2669 C 0.97787 0.04046 0.09146 0.0
C2670 C 0.9699 0.02045 0.09523 0.0
C2671 C 0.97322 0.00313 0.08324 0.0
C2672 C 0.98517 0.00629 0.06701 0.0
C2673 C 0.99399 0.02658 0.06312 0.0
C2674 C 0.99034 0.04391 0.07552 0.0
H2675 H 0.28614 0.71255 0.41352 0.0
H2676 H 0.24349 0.74027 0.44806 0.0
H2677 H 0.23948 0.76286 0.4213 0.0
H2678 H 0.30978 0.76036 0.39344 0.0
H2679 H 0.31296 0.7469 0.36949 0.0
H2680 H 0.31323 0.73371 0.39187 0.0
H2681 H 0.28484 0.70459 0.37568 0.0
H2682 H 0.28452 0.71765 0.35328 0.0
H2683 H 0.26197 0.71137 0.36619 0.0
H2684 H 0.23826 0.78057 0.38947 0.0
H2685 H 0.24022 0.79186 0.35522 0.0
H2686 H 0.28499 0.7539 0.34281 0.0
C2687 C 0.27627 0.72366 0.41572 0.0
C2688 C 0.26511 0.72457 0.43293 0.0
C2689 C 0.252 0.73904 0.4349 0.0
C2690 C 0.24975 0.75209 0.41986 0.0
C2691 C 0.26087 0.75066 0.40303 0.0
C2692 C 0.27396 0.73688 0.40095 0.0
C2693 C 0.28354 0.73773 0.38106 0.0
C2694 C 0.30622 0.74512 0.38416 0.0
C2695 C 0.2784 0.71658 0.36831 0.0
C2696 C 0.27354 0.75386 0.37212 0.0
C2697 C 0.26054 0.76121 0.38501 0.0
C2698 C 0.24863 0.77519 0.37938 0.0
C2699 C 0.24984 0.78154 0.35996 0.0
C2700 C 0.26291 0.77393 0.34656 0.0
C2701 C 0.27513 0.76025 0.3529 0.0
H2702 H 0.57252 0.02839 0.64522 0.0
H2703 H 0.56207 0.96114 0.64499 0.0
H2704 H 0.54071 0.95793 0.6139 0.0
H2705 H 0.5258 0.03426 0.62592 0.0
H2706 H 0.53536 0.05417 0.6103 0.0
H2707 H 0.54933 0.05123 0.6329 0.0
H2708 H 0.58004 0.04715 0.61252 0.0
H2709 H 0.56624 0.0502 0.58981 0.0
H2710 H 0.57748 0.02754 0.59148 0.0
H2711 H 0.51845 0.96248 0.58378 0.0
H2712 H 0.50095 0.97438 0.55494 0.0
H2713 H 0.53039 0.03772 0.5731 0.0
C2714 C 0.56626 0.01286 0.63858 0.0
C2715 C 0.56901 0.99506 0.64792 0.0
C2716 C 0.55988 0.97515 0.63861 0.0
C2717 C 0.54782 0.97311 0.62079 0.0
C2718 C 0.54543 0.99106 0.61219 0.0
C2719 C 0.55477 0.0105 0.62057 0.0
C2720 C 0.55047 0.02736 0.6081 0.0
C2721 C 0.53959 0.04265 0.62002 0.0
C2722 C 0.5697 0.03872 0.59999 0.0
C2723 C 0.53696 0.0144 0.59152 0.0
C2724 C 0.53393 0.99351 0.59422 0.0
C2725 C 0.52095 0.97876 0.58134 0.0
C2726 C 0.51101 0.9856 0.56517 0.0
C2727 C 0.51457 0.00684 0.56198 0.0
C2728 C 0.5277 0.02134 0.57523 0.0
H2729 H 0.23667 0.32526 0.91032 0.0
H2730 H 0.29833 0.32853 0.93101 0.0
H2731 H 0.30549 0.31339 0.89761 0.0
H2732 H 0.23155 0.27643 0.87725 0.0
H2733 H 0.21628 0.28524 0.85842 0.0
H2734 H 0.21566 0.29469 0.88442 0.0
H2735 H 0.22456 0.33253 0.87528 0.0
H2736 H 0.22535 0.32317 0.8493 0.0
H2737 H 0.24669 0.34021 0.86207 0.0
H2738 H 0.30645 0.29988 0.86144 0.0
H2739 H 0.30107 0.28869 0.82516 0.0
H2740 H 0.23878 0.29442 0.82788 0.0
C2741 C 0.25156 0.32238 0.9079 0.0
C2742 C 0.26695 0.32802 0.92324 0.0
C2743 C 0.28636 0.32442 0.91941 0.0
C2744 C 0.29055 0.31576 0.90053 0.0
C2745 C 0.27516 0.31077 0.88559 0.0
C2746 C 0.25603 0.31386 0.88906 0.0
C2747 C 0.24248 0.30818 0.8701 0.0
C2748 C 0.22549 0.29005 0.87271 0.0
C2749 C 0.23429 0.32715 0.86382 0.0
C2750 C 0.25703 0.30164 0.85543 0.0
C2751 C 0.27577 0.30313 0.86468 0.0
C2752 C 0.2918 0.29851 0.85405 0.0
C2753 C 0.2886 0.29221 0.83341 0.0
C2754 C 0.26951 0.29063 0.82356 0.0
C2755 C 0.25356 0.29535 0.83487 0.0
H2756 H 0.96521 0.04697 0.3422 0.0
H2757 H 0.90516 0.01264 0.34501 0.0
H2758 H 0.91511 -0.00043 0.37655 0.0
H2759 H 0.9914 0.00905 0.36326 0.0
H2760 H 0.00987 0.02857 0.3775 0.0
H2761 H 0.99853 0.03419 0.35435 0.0
H2762 H 0.98753 0.06628 0.37286 0.0
H2763 H 0.99895 0.06084 0.396 0.0
H2764 H 0.973 0.06308 0.39454 0.0
H2765 H 0.93107 0.99085 0.40795 0.0
H2766 H 0.95143 0.98941 0.43897 0.0
H2767 H 0.00094 0.03024 0.41673 0.0
C2768 C 0.95427 0.03656 0.34943 0.0
C2769 C 0.93443 0.0308 0.34127 0.0
C2770 C 0.92039 0.01736 0.35118 0.0
C2771 C 0.92594 0.00973 0.36898 0.0
C2772 C 0.94557 0.01574 0.37673 0.0
C2773 C 0.95951 0.02899 0.36741 0.0
C2774 C 0.97927 0.034 0.37963 0.0
C2775 C 0.99574 0.02597 0.36799 0.0
C2776 C 0.98502 0.05744 0.38615 0.0
C2777 C 0.97412 0.02177 0.39738 0.0
C2778 C 0.9547 0.01108 0.3952 0.0
C2779 C 0.94634 0.99906 0.4098 0.0
C2780 C 0.95802 0.99827 0.42733 0.0
C2781 C 0.97772 0.00964 0.43014 0.0
C2782 C 0.98595 0.02127 0.41485 0.0
H2783 H 0.25428 0.70437 0.63076 0.0
H2784 H 0.29032 0.75183 0.60031 0.0
H2785 H 0.29366 0.77599 0.63111 0.0
H2786 H 0.22801 0.74009 0.66115 0.0
H2787 H 0.22826 0.72523 0.68243 0.0
H2788 H 0.22731 0.71246 0.65737 0.0
H2789 H 0.25883 0.69763 0.6672 0.0
H2790 H 0.2598 0.71072 0.69208 0.0
H2791 H 0.28114 0.71525 0.67712 0.0
H2792 H 0.29652 0.79346 0.66607 0.0
H2793 H 0.29729 0.80346 0.70265 0.0
H2794 H 0.25732 0.74598 0.70973 0.0
C2795 C 0.26246 0.71999 0.63039 0.0
C2796 C 0.27213 0.72612 0.61309 0.0
C2797 C 0.28306 0.74661 0.61344 0.0
C2798 C 0.28489 0.76054 0.63081 0.0
C2799 C 0.27546 0.75389 0.64766 0.0
C2800 C 0.26429 0.73418 0.64756 0.0
C2801 C 0.25656 0.73057 0.66802 0.0
C2802 C 0.23367 0.72688 0.66717 0.0
C2803 C 0.26457 0.71248 0.6766 0.0
C2804 C 0.26548 0.75118 0.67971 0.0
C2805 C 0.27635 0.76442 0.66768 0.0
C2806 C 0.28764 0.78348 0.67553 0.0
C2807 C 0.28801 0.78904 0.69626 0.0
C2808 C 0.27691 0.77574 0.70873 0.0
C2809 C 0.26527 0.75676 0.70031 0.0
H2810 H 0.5752 0.03917 0.85248 0.0
H2811 H 0.53034 0.99099 0.82045 0.0
H2812 H 0.51044 0.98978 0.85055 0.0
H2813 H 0.57449 0.0188 0.89832 0.0
H2814 H 0.57786 0.04345 0.91339 0.0
H2815 H 0.58723 0.04197 0.88875 0.0
H2816 H 0.56698 0.06966 0.87857 0.0
H2817 H 0.55761 0.07133 0.90326 0.0
H2818 H 0.54048 0.06555 0.88142 0.0
H2819 H 0.49766 0.99131 0.88553 0.0
H2820 H 0.49219 0.99679 0.9218 0.0
H2821 H 0.5453 0.04458 0.9299 0.0
C2822 C 0.56103 0.0286 0.85175 0.0
C2823 C 0.5542 0.01516 0.83432 0.0
C2824 C 0.53563 0.00152 0.83373 0.0
C2825 C 0.52431 0.00071 0.85072 0.0
C2826 C 0.53172 0.01388 0.86791 0.0
C2827 C 0.54954 0.02776 0.86841 0.0
C2828 C 0.55477 0.0396 0.88886 0.0
C2829 C 0.57476 0.03571 0.89785 0.0
C2830 C 0.55496 0.06292 0.88797 0.0
C2831 C 0.53745 0.02976 0.90005 0.0
C2832 C 0.52422 0.01504 0.88776 0.0
C2833 C 0.50773 0.00305 0.89521 0.0
C2834 C 0.50477 0.00621 0.91577 0.0
C2835 C 0.51825 0.0212 0.92847 0.0
C2836 C 0.53462 0.0332 0.92044 0.0
H2837 H 0.23433 0.30816 0.11612 0.0
H2838 H 0.28492 0.35836 0.1307 0.0
H2839 H 0.29 0.3459 0.16365 0.0
H2840 H 0.21588 0.30867 0.1665 0.0
H2841 H 0.2086 0.28084 0.16525 0.0
H2842 H 0.20847 0.29368 0.14264 0.0
H2843 H 0.23173 0.27024 0.12706 0.0
H2844 H 0.23199 0.25739 0.14965 0.0
H2845 H 0.25512 0.2693 0.1402 0.0
H2846 H 0.29049 0.32831 0.19434 0.0
H2847 H 0.28607 0.30663 0.22216 0.0
H2848 H 0.2348 0.26716 0.18947 0.0
C2849 C 0.24638 0.31658 0.12633 0.0
C2850 C 0.25939 0.33415 0.12064 0.0
C2851 C 0.27502 0.34466 0.13444 0.0
C2852 C 0.27796 0.33778 0.15329 0.0
C2853 C 0.26513 0.32034 0.1583 0.0
C2854 C 0.2496 0.30984 0.14535 0.0
C2855 C 0.23823 0.29135 0.15471 0.0
C2856 C 0.2165 0.29379 0.15744 0.0
C2857 C 0.23934 0.27086 0.14215 0.0
C2858 C 0.2499 0.29314 0.17487 0.0
C2859 C 0.26531 0.31006 0.17646 0.0
C2860 C 0.27841 0.31509 0.19334 0.0
C2861 C 0.27573 0.30261 0.20911 0.0
C2862 C 0.25998 0.28524 0.20816 0.0
C2863 C 0.24692 0.28036 0.19069 0.0
H2864 H 0.15994 0.95526 0.99915 0.0
H2865 H 0.16893 0.95056 0.06303 0.0
H2866 H 0.14412 0.97283 0.0699 0.0
H2867 H 0.15112 0.00778 0.0022 0.0
H2868 H 0.13163 0.00239 0.98241 0.0
H2869 H 0.15128 0.98735 0.98238 0.0
H2870 H 0.12515 0.95337 0.98099 0.0
H2871 H 0.10546 0.9683 0.98074 0.0
H2872 H 0.1069 0.95076 0.99966 0.0
H2873 H 0.11807 0.99539 0.06999 0.0
H2874 H 0.08978 0.01304 0.06288 0.0
H2875 H 0.09595 0.00072 0.99903 0.0
C2876 C 0.15665 0.95869 0.0146 0.0
C2877 C 0.16677 0.9513 0.03053 0.0
C2878 C 0.16193 0.95644 0.05052 0.0
C2879 C 0.14775 0.96903 0.05462 0.0
C2880 C 0.13828 0.9762 0.03858 0.0
C2881 C 0.14229 0.97095 0.01896 0.0
C2882 C 0.12908 0.97957 0.00439 0.0
C2883 C 0.14153 0.9952 0.99213 0.0
C2884 C 0.11586 0.96195 0.99064 0.0
C2885 C 0.11688 0.99029 0.01891 0.0
C2886 C 0.12267 0.98848 0.03858 0.0
C2887 C 0.11342 0.99693 0.05465 0.0
C2888 C 0.09746 0.00701 0.05049 0.0
C2889 C 0.0908 0.00824 0.03044 0.0
C2890 C 0.10086 8e-05 0.0145 0.0
H2891 H 0.65877 0.57766 0.97612 0.0
H2892 H 0.66472 0.61071 0.0357 0.0
H2893 H 0.63094 0.59292 0.04233 0.0
H2894 H 0.60808 0.58063 0.96609 0.0
H2895 H 0.60165 0.55522 0.95243 0.0
H2896 H 0.62677 0.56944 0.95298 0.0
H2897 H 0.64003 0.53857 0.96678 0.0
H2898 H 0.61492 0.52424 0.96628 0.0
H2899 H 0.63042 0.52864 0.98928 0.0
H2900 H 0.59567 0.5725 0.04184 0.0
H2901 H 0.56166 0.55219 0.03367 0.0
H2902 H 0.57888 0.53263 0.97452 0.0
C2903 C 0.65308 0.5809 0.99067 0.0
C2904 C 0.66439 0.59555 0.0054 0.0
C2905 C 0.65625 0.59966 0.02412 0.0
C2906 C 0.63713 0.58954 0.02807 0.0
C2907 C 0.62628 0.57533 0.01315 0.0
C2908 C 0.63396 0.57104 0.9948 0.0
C2909 C 0.61888 0.55597 0.98092 0.0
C2910 C 0.61353 0.56592 0.96199 0.0
C2911 C 0.62652 0.53565 0.9755 0.0
C2912 C 0.60146 0.5526 0.99422 0.0
C2913 C 0.60605 0.56373 0.01283 0.0
C2914 C 0.59202 0.56353 0.02739 0.0
C2915 C 0.57278 0.55183 0.0227 0.0
C2916 C 0.56776 0.54057 0.00362 0.0
C2917 C 0.58238 0.5409 0.98932 0.0
H2918 H 0.68324 0.39947 0.27664 0.0
H2919 H 0.73588 0.44763 0.27944 0.0
H2920 H 0.75719 0.42079 0.2769 0.0
H2921 H 0.70452 0.36351 0.30492 0.0
H2922 H 0.69166 0.34083 0.28942 0.0
H2923 H 0.68072 0.36386 0.29231 0.0
H2924 H 0.67824 0.36437 0.25367 0.0
H2925 H 0.6892 0.34137 0.2507 0.0
H2926 H 0.70035 0.36445 0.23991 0.0
H2927 H 0.77279 0.38839 0.27503 0.0
H2928 H 0.78115 0.3531 0.2711 0.0
H2929 H 0.71812 0.32638 0.26723 0.0
C2930 C 0.69927 0.40432 0.27687 0.0
C2931 C 0.70798 0.42559 0.27838 0.0
C2932 C 0.72896 0.43139 0.27827 0.0
C2933 C 0.74116 0.41627 0.27691 0.0
C2934 C 0.73212 0.3954 0.2754 0.0
C2935 C 0.71163 0.38941 0.27515 0.0
C2936 C 0.7056 0.36597 0.27257 0.0
C2937 C 0.695 0.35809 0.2909 0.0
C2938 C 0.69258 0.35862 0.25305 0.0
C2939 C 0.72586 0.35971 0.27139 0.0
C2940 C 0.74101 0.37687 0.27333 0.0
C2941 C 0.76103 0.37485 0.27333 0.0
C2942 C 0.76565 0.35478 0.27113 0.0
C2943 C 0.75031 0.33705 0.26862 0.0
C2944 C 0.73019 0.33966 0.26879 0.0
H2945 H 0.86063 0.46281 0.53712 0.0
H2946 H 0.83835 0.48164 0.48141 0.0
H2947 H 0.87122 0.50319 0.4778 0.0
H2948 H 0.89483 0.51302 0.55395 0.0
H2949 H 0.91345 0.49995 0.56425 0.0
H2950 H 0.88741 0.48851 0.564 0.0
H2951 H 0.89455 0.45479 0.54481 0.0
H2952 H 0.92053 0.46613 0.54496 0.0
H2953 H 0.9067 0.45627 0.52152 0.0
H2954 H 0.90726 0.51836 0.47768 0.0
H2955 H 0.94395 0.5272 0.48164 0.0
H2956 H 0.94289 0.49912 0.53778 0.0
C2957 C 0.86261 0.47177 0.52435 0.0
C2958 C 0.84697 0.47066 0.50957 0.0
C2959 C 0.85006 0.48255 0.49305 0.0
C2960 C 0.86867 0.49479 0.49086 0.0
C2961 C 0.88392 0.49517 0.50546 0.0
C2962 C 0.88105 0.48416 0.52201 0.0
C2963 C 0.90027 0.486 0.53473 0.0
C2964 C 0.8989 0.49756 0.55546 0.0
C2965 C 0.90584 0.46452 0.5366 0.0
C2966 C 0.91458 0.49893 0.52224 0.0
C2967 C 0.9048 0.50426 0.50555 0.0
C2968 C 0.91505 0.51466 0.49089 0.0
C2969 C 0.93588 0.51951 0.49322 0.0
C2970 C 0.94621 0.51396 0.51009 0.0
C2971 C 0.93535 0.50392 0.52495 0.0
H2972 H 0.34171 0.13613 0.248 0.0
H2973 H 0.31212 0.10295 0.29465 0.0
H2974 H 0.28578 0.12419 0.29349 0.0
H2975 H 0.33293 0.18493 0.26395 0.0
H2976 H 0.32856 0.19239 0.23917 0.0
H2977 H 0.34422 0.17361 0.24288 0.0
H2978 H 0.322 0.14728 0.21635 0.0
H2979 H 0.30619 0.16602 0.21262 0.0
H2980 H 0.29558 0.14064 0.21929 0.0
H2981 H 0.26487 0.15163 0.28973 0.0
H2982 H 0.25086 0.1828 0.28311 0.0
H2983 H 0.29252 0.19524 0.23685 0.0
C2984 C 0.32947 0.1329 0.25766 0.0
C2985 C 0.32906 0.11791 0.27146 0.0
C2986 C 0.31299 0.11463 0.28419 0.0
C2987 C 0.29781 0.12642 0.28347 0.0
C2988 C 0.29875 0.14109 0.26968 0.0
C2989 C 0.31408 0.14421 0.25688 0.0
C2990 C 0.31223 0.16157 0.24409 0.0
C2991 C 0.33056 0.17916 0.24776 0.0
C2992 C 0.30879 0.15338 0.22176 0.0
C2993 C 0.29381 0.16823 0.25217 0.0
C2994 C 0.28615 0.1562 0.26686 0.0
C2995 C 0.27039 0.16084 0.27791 0.0
C2996 C 0.26254 0.1785 0.27407 0.0
C2997 C 0.27046 0.19106 0.25928 0.0
C2998 C 0.28588 0.18554 0.24788 0.0
H2999 H 0.35863 0.08867 0.47887 0.0
H3000 H 0.35844 0.11309 0.54128 0.0
H3001 H 0.38786 0.09797 0.54937 0.0
H3002 H 0.374 0.04054 0.48818 0.0
H3003 H 0.39006 0.04023 0.46756 0.0
H3004 H 0.36881 0.05297 0.46616 0.0
H3005 H 0.39182 0.08705 0.45937 0.0
H3006 H 0.41311 0.07436 0.46066 0.0
H3007 H 0.41282 0.09787 0.47666 0.0
H3008 H 0.41628 0.07999 0.5514 0.0
H3009 H 0.44403 0.06118 0.5471 0.0
H3010 H 0.42794 0.04862 0.48321 0.0
C3011 C 0.36489 0.09095 0.49419 0.0
C3012 C 0.35593 0.10184 0.50951 0.0
C3013 C 0.36462 0.10441 0.52937 0.0
C3014 C 0.38146 0.09599 0.53412 0.0
C3015 C 0.38966 0.0851 0.51884 0.0
C3016 C 0.38188 0.08263 0.49924 0.0
C3017 C 0.39391 0.07017 0.48583 0.0
C3018 C 0.38091 0.04977 0.47638 0.0
C3019 C 0.40349 0.08314 0.46967 0.0
C3020 C 0.4096 0.06609 0.50104 0.0
C3021 C 0.40666 0.07484 0.51996 0.0
C3022 C 0.41881 0.07313 0.53667 0.0
C3023 C 0.43453 0.06233 0.53404 0.0
C3024 C 0.43817 0.05341 0.51484 0.0
C3025 C 0.42549 0.05527 0.49807 0.0
H3026 H 0.71913 0.62628 0.30297 0.0
H3027 H 0.67296 0.61951 0.25486 0.0
H3028 H 0.68628 0.65456 0.24635 0.0
H3029 H 0.72079 0.68056 0.31798 0.0
H3030 H 0.7475 0.68681 0.32244 0.0
H3031 H 0.7344 0.66105 0.32535 0.0
H3032 H 0.75667 0.64539 0.30006 0.0
H3033 H 0.76992 0.67109 0.29718 0.0
H3034 H 0.75844 0.65432 0.27547 0.0
H3035 H 0.70296 0.6903 0.24367 0.0
H3036 H 0.72448 0.72439 0.24464 0.0
H3037 H 0.76218 0.7087 0.29262 0.0
C3038 C 0.71192 0.63213 0.29057 0.0
C3039 C 0.69464 0.6202 0.27992 0.0
C3040 C 0.68575 0.62848 0.26373 0.0
C3041 C 0.6933 0.64837 0.25864 0.0
C3042 C 0.70998 0.65983 0.26965 0.0
C3043 C 0.71942 0.65204 0.2851 0.0
C3044 C 0.73743 0.66777 0.29412 0.0
C3045 C 0.73487 0.67444 0.31629 0.0
C3046 C 0.75676 0.65912 0.29155 0.0
C3047 C 0.73653 0.68552 0.28127 0.0
C3048 C 0.72038 0.68052 0.26745 0.0
C3049 C 0.71579 0.69435 0.25427 0.0
C3050 C 0.72815 0.71376 0.25498 0.0
C3051 C 0.74518 0.7192 0.26856 0.0
C3052 C 0.74937 0.7049 0.28198 0.0
H3053 H 0.82479 0.4297 0.79241 0.0
H3054 H 0.80076 0.44489 0.73581 0.0
H3055 H 0.7773 0.41141 0.73213 0.0
H3056 H 0.82536 0.379 0.77796 0.0
H3057 H 0.81832 0.36915 0.80133 0.0
H3058 H 0.83076 0.39559 0.8012 0.0
H3059 H 0.80178 0.40847 0.81932 0.0
H3060 H 0.78924 0.38196 0.81958 0.0
H3061 H 0.77659 0.4005 0.80866 0.0
H3062 H 0.76065 0.37461 0.73195 0.0
H3063 H 0.7516 0.33714 0.73555 0.0
H3064 H 0.78527 0.34643 0.79301 0.0
C3065 C 0.81412 0.42633 0.7796 0.0
C3066 C 0.81455 0.43988 0.76441 0.0
C3067 C 0.80078 0.43462 0.74754 0.0
C3068 C 0.78727 0.41575 0.74542 0.0
C3069 C 0.78757 0.4025 0.76044 0.0
C3070 C 0.80051 0.40763 0.77731 0.0
C3071 C 0.79929 0.38983 0.79025 0.0
C3072 C 0.81963 0.38299 0.79282 0.0
C3073 C 0.79124 0.39553 0.81067 0.0
C3074 C 0.78435 0.37353 0.77753 0.0
C3075 C 0.77756 0.38124 0.76054 0.0
C3076 C 0.76544 0.36851 0.74543 0.0
C3077 C 0.76046 0.34727 0.74754 0.0
C3078 C 0.76759 0.33907 0.76466 0.0
C3079 C 0.7792 0.35245 0.78006 0.0
H3080 H 0.03734 0.88276 0.06819 0.0
H3081 H 0.97434 0.85914 0.07303 0.0
H3082 H 0.96583 0.88672 0.05362 0.0
H3083 H 0.03368 0.9363 0.07511 0.0
H3084 H 0.05225 0.94422 0.0577 0.0
H3085 H 0.05336 0.9217 0.07076 0.0
H3086 H 0.05321 0.89951 0.03672 0.0
H3087 H 0.05192 0.92199 0.02357 0.0
H3088 H 0.03334 0.89878 0.01791 0.0
H3089 H 0.96401 0.91772 0.03502 0.0
H3090 H 0.96915 0.95105 0.02011 0.0
H3091 H 0.03326 0.9549 0.02785 0.0
C3092 C 0.02175 0.88337 0.0652 0.0
C3093 C 0.00653 0.86856 0.07197 0.0
C3094 C 0.98631 0.86995 0.06763 0.0
C3095 C 0.98129 0.88564 0.05667 0.0
C3096 C 0.99664 0.89989 0.05015 0.0
C3097 C 0.01646 0.89899 0.05431 0.0
C3098 C 0.03006 0.91681 0.04635 0.0
C3099 C 0.0431 0.93057 0.0635 0.0
C3100 C 0.04289 0.90879 0.03017 0.0
C3101 C 0.01477 0.92804 0.03738 0.0
C3102 C 0.99559 0.91791 0.03955 0.0
C3103 C 0.97897 0.92573 0.0331 0.0
C3104 C 0.98205 0.94466 0.02459 0.0
C3105 C 0.0016 0.95562 0.02271 0.0
C3106 C 0.01811 0.94689 0.02887 0.0
H3107 H 0.89887 0.24423 0.814 0.0
H3108 H 0.89407 0.28707 0.86603 0.0
H3109 H 0.86189 0.29288 0.85174 0.0
H3110 H 0.87912 0.27205 0.77796 0.0
H3111 H 0.86548 0.24954 0.76277 0.0
H3112 H 0.88756 0.24754 0.77758 0.0
H3113 H 0.86751 0.21768 0.79505 0.0
H3114 H 0.84536 0.2195 0.78018 0.0
H3115 H 0.84523 0.22168 0.80715 0.0
H3116 H 0.83164 0.2962 0.83086 0.0
H3117 H 0.80442 0.29552 0.80517 0.0
H3118 H 0.82777 0.24955 0.7672 0.0
C3119 C 0.89086 0.25452 0.82254 0.0
C3120 C 0.89909 0.26532 0.84107 0.0
C3121 C 0.88824 0.27888 0.85166 0.0
C3122 C 0.86988 0.2822 0.84373 0.0
C3123 C 0.86241 0.27171 0.82525 0.0
C3124 C 0.87243 0.25799 0.81484 0.0
C3125 C 0.86133 0.24925 0.79496 0.0
C3126 C 0.87414 0.25494 0.77728 0.0
C3127 C 0.85445 0.22562 0.7943 0.0
C3128 C 0.84376 0.26049 0.79569 0.0
C3129 C 0.84466 0.27332 0.81334 0.0
C3130 C 0.83059 0.28596 0.81712 0.0
C3131 C 0.81514 0.28542 0.80249 0.0
C3132 C 0.81382 0.27225 0.7844 0.0
C3133 C 0.82832 0.25963 0.781 0.0
H3134 H 0.53691 0.17187 0.592 0.0
H3135 H 0.52076 0.20097 0.5396 0.0
H3136 H 0.52381 0.16942 0.51799 0.0
H3137 H 0.57348 0.14353 0.56716 0.0
H3138 H 0.56649 0.12132 0.58091 0.0
H3139 H 0.56498 0.14695 0.59211 0.0
H3140 H 0.52772 0.13453 0.59818 0.0
H3141 H 0.52916 0.10892 0.58711 0.0
H3142 H 0.51076 0.12258 0.57732 0.0
H3143 H 0.52442 0.13362 0.5027 0.0
H3144 H 0.52245 0.09582 0.49485 0.0
H3145 H 0.5406 0.09052 0.55656 0.0
C3146 C 0.53452 0.17188 0.57594 0.0
C3147 C 0.52852 0.18896 0.56755 0.0
C3148 C 0.52505 0.18801 0.54647 0.0
C3149 C 0.52699 0.17025 0.53402 0.0
C3150 C 0.53274 0.15366 0.54282 0.0
C3151 C 0.53661 0.15436 0.56328 0.0
C3152 C 0.54124 0.1339 0.56909 0.0
C3153 C 0.56284 0.13659 0.57784 0.0
C3154 C 0.52633 0.12443 0.58378 0.0
C3155 C 0.5385 0.12126 0.54879 0.0
C3156 C 0.53384 0.13307 0.53381 0.0
C3157 C 0.52856 0.12436 0.51417 0.0
C3158 C 0.52749 0.10293 0.50985 0.0
C3159 C 0.53186 0.09057 0.52503 0.0
C3160 C 0.53794 0.09989 0.5446 0.0
H3161 H 0.60534 0.75137 0.33483 0.0
H3162 H 0.57721 0.79155 0.29942 0.0
H3163 H 0.6058 0.79533 0.27794 0.0
H3164 H 0.65498 0.77867 0.33389 0.0
H3165 H 0.66608 0.7557 0.33191 0.0
H3166 H 0.64306 0.7555 0.34407 0.0
H3167 H 0.62623 0.72359 0.31986 0.0
H3168 H 0.64922 0.72372 0.3076 0.0
H3169 H 0.62663 0.72494 0.29315 0.0
H3170 H 0.63776 0.79575 0.26104 0.0
H3171 H 0.67143 0.79328 0.25018 0.0
H3172 H 0.67865 0.75231 0.29606 0.0
C3173 C 0.60505 0.76073 0.32239 0.0
C3174 C 0.58902 0.77118 0.31882 0.0
C3175 C 0.58942 0.7836 0.3026 0.0
C3176 C 0.60552 0.78572 0.29022 0.0
C3177 C 0.62109 0.77527 0.2942 0.0
C3178 C 0.62101 0.76302 0.30988 0.0
C3179 C 0.63992 0.75398 0.31126 0.0
C3180 C 0.6517 0.76141 0.33148 0.0
C3181 C 0.63521 0.73014 0.30775 0.0
C3182 C 0.65073 0.76327 0.29405 0.0
C3183 C 0.63954 0.77541 0.28435 0.0
C3184 C 0.6466 0.78616 0.26841 0.0
C3185 C 0.66572 0.78465 0.26234 0.0
C3186 C 0.67752 0.77251 0.27221 0.0
C3187 C 0.66982 0.76151 0.28811 0.0
H3188 H 0.04194 0.17814 0.46893 0.0
H3189 H 0.98009 0.17587 0.44929 0.0
H3190 H 0.97045 0.1435 0.46509 0.0
H3191 H 0.04182 0.12453 0.45991 0.0
H3192 H 0.05775 0.12298 0.48167 0.0
H3193 H 0.05966 0.14697 0.47035 0.0
H3194 H 0.05365 0.16604 0.50447 0.0
H3195 H 0.05164 0.14202 0.51587 0.0
H3196 H 0.03171 0.15669 0.51733 0.0
H3197 H 0.96786 0.10976 0.4793 0.0
H3198 H 0.97243 0.07682 0.49225 0.0
H3199 H 0.03552 0.10105 0.50448 0.0
C3200 C 0.02636 0.17092 0.46817 0.0
C3201 C 0.01173 0.17965 0.45805 0.0
C3202 C 0.99149 0.16971 0.45729 0.0
C3203 C 0.98587 0.15127 0.46616 0.0
C3204 C 0.00062 0.14303 0.47594 0.0
C3205 C 0.02043 0.15255 0.47716 0.0
C3206 C 0.03336 0.13986 0.48785 0.0
C3207 C 0.04907 0.13319 0.47412 0.0
C3208 C 0.04316 0.15187 0.50755 0.0
C3209 C 0.01778 0.12142 0.49185 0.0
C3210 C 0.99898 0.12367 0.48489 0.0
C3211 C 0.9824 0.10799 0.48522 0.0
C3212 C 0.98512 0.08937 0.49257 0.0
C3213 C 0.0042 0.08671 0.49971 0.0
C3214 C 0.02067 0.10305 0.4997 0.0
H3215 H 0.59161 0.25704 0.19431 0.0
H3216 H 0.60844 0.31635 0.17053 0.0
H3217 H 0.64387 0.31643 0.18014 0.0
H3218 H 0.62747 0.2689 0.23752 0.0
H3219 H 0.63221 0.24274 0.23686 0.0
H3220 H 0.60827 0.24731 0.22788 0.0
H3221 H 0.61206 0.22696 0.19374 0.0
H3222 H 0.63614 0.22257 0.20252 0.0
H3223 H 0.63365 0.23488 0.17984 0.0
H3224 H 0.67712 0.30904 0.1901 0.0
H3225 H 0.70648 0.29757 0.20478 0.0
H3226 H 0.66827 0.24425 0.22482 0.0
C3227 C 0.60283 0.27004 0.19129 0.0
C3228 C 0.59754 0.28668 0.18167 0.0
C3229 C 0.61238 0.30357 0.17798 0.0
C3230 C 0.63246 0.30366 0.18325 0.0
C3231 C 0.63729 0.28687 0.19243 0.0
C3232 C 0.62292 0.27058 0.19683 0.0
C3233 C 0.63215 0.25492 0.20754 0.0
C3234 C 0.62458 0.25339 0.22871 0.0
C3235 C 0.62827 0.23357 0.19517 0.0
C3236 C 0.65398 0.26488 0.2083 0.0
C3237 C 0.65656 0.28312 0.19918 0.0
C3238 C 0.67531 0.29489 0.19743 0.0
C3239 C 0.69189 0.28815 0.20569 0.0
C3240 C 0.68957 0.27004 0.21589 0.0
C3241 C 0.67039 0.25814 0.21706 0.0
H3242 H 0.53834 0.87228 0.98023 0.0
H3243 H 0.53814 0.88801 0.91869 0.0
H3244 H 0.53461 0.92368 0.9305 0.0
H3245 H 0.50014 0.8998 0.9945 0.0
H3246 H 0.51079 0.90788 0.01965 0.0
H3247 H 0.51536 0.88417 0.0066 0.0
H3248 H 0.55347 0.89735 0.01222 0.0
H3249 H 0.54902 0.92109 0.02536 0.0
H3250 H 0.56428 0.92203 0.00408 0.0
H3251 H 0.52963 0.9575 0.94898 0.0
H3252 H 0.52304 0.98626 0.97278 0.0
H3253 H 0.52418 0.9475 0.02153 0.0
C3254 C 0.53758 0.88315 0.96917 0.0
C3255 C 0.53872 0.87721 0.9485 0.0
C3256 C 0.53782 0.89217 0.93465 0.0
C3257 C 0.53564 0.91249 0.94119 0.0
C3258 C 0.53424 0.91765 0.96161 0.0
C3259 C 0.53515 0.90339 0.97538 0.0
C3260 C 0.53221 0.91249 0.99635 0.0
C3261 C 0.51351 0.90036 0.00476 0.0
C3262 C 0.55086 0.91329 0.01032 0.0
C3263 C 0.52935 0.93403 0.99221 0.0
C3264 C 0.53073 0.93681 0.97211 0.0
C3265 C 0.52847 0.95547 0.96474 0.0
C3266 C 0.52461 0.97167 0.97829 0.0
C3267 C 0.52285 0.96896 0.99884 0.0
C3268 C 0.52538 0.94995 0.00585 0.0
H3269 H 0.90894 0.80362 0.70652 0.0
H3270 H 0.88711 0.75255 0.66071 0.0
H3271 H 0.85378 0.74902 0.67384 0.0
H3272 H 0.88144 0.78309 0.74584 0.0
H3273 H 0.87592 0.8075 0.75644 0.0
H3274 H 0.89808 0.80703 0.74293 0.0
H3275 H 0.8871 0.83241 0.71918 0.0
H3276 H 0.8649 0.833 0.73267 0.0
H3277 H 0.8629 0.82591 0.70595 0.0
H3278 H 0.82398 0.74884 0.69287 0.0
H3279 H 0.79807 0.753 0.71654 0.0
H3280 H 0.8375 0.80539 0.7495 0.0
C3281 C 0.89706 0.79192 0.69909 0.0
C3282 C 0.90072 0.77818 0.68273 0.0
C3283 C 0.88481 0.76295 0.67353 0.0
C3284 C 0.86576 0.76093 0.68075 0.0
C3285 C 0.86273 0.77442 0.69706 0.0
C3286 C 0.8778 0.78974 0.70608 0.0
C3287 C 0.87042 0.80173 0.72381 0.0
C3288 C 0.88217 0.79971 0.74341 0.0
C3289 C 0.87139 0.82462 0.72018 0.0
C3290 C 0.849 0.7904 0.72354 0.0
C3291 C 0.845 0.77474 0.70789 0.0
C3292 C 0.82678 0.76122 0.705 0.0
C3293 C 0.81221 0.76366 0.71852 0.0
C3294 C 0.81586 0.77958 0.7346 0.0
C3295 C 0.83437 0.79332 0.73708 0.0
H3296 H 0.05641 0.98283 0.86696 0.0
H3297 H 0.10925 0.02883 0.88591 0.0
H3298 H 0.09693 0.03327 0.91979 0.0
H3299 H 0.02257 0.00903 0.89321 0.0
H3300 H 0.00705 0.98586 0.89998 0.0
H3301 H 0.02071 0.98481 0.87767 0.0
H3302 H 0.03733 0.9556 0.89053 0.0
H3303 H 0.02371 0.95657 0.91292 0.0
H3304 H 0.05052 0.95981 0.91486 0.0
H3305 H 0.07863 0.0341 0.95076 0.0
H3306 H 0.05456 0.03254 0.97704 0.0
H3307 H 0.01272 0.98648 0.93859 0.0
C3308 C 0.06544 0.9936 0.87838 0.0
C3309 C 0.08378 0.0055 0.87392 0.0
C3310 C 0.09511 0.01969 0.88906 0.0
C3311 C 0.0883 0.02221 0.90835 0.0
C3312 C 0.07007 0.01048 0.91225 0.0
C3313 C 0.05872 0.99651 0.89774 0.0
C3314 C 0.03907 0.98688 0.90568 0.0
C3315 C 0.0213 0.99196 0.8934 0.0
C3316 C 0.03758 0.96331 0.90602 0.0
C3317 C 0.04109 0.99787 0.92678 0.0
C3318 C 0.05923 0.01121 0.93025 0.0
C3319 C 0.06444 0.02359 0.94831 0.0
C3320 C 0.05066 0.02255 0.96317 0.0
C3321 C 0.03183 0.00928 0.95992 0.0
C3322 C 0.02708 0.99662 0.94153 0.0
H3323 H 0.73635 0.31649 0.60164 0.0
H3324 H 0.79926 0.33083 0.59051 0.0
H3325 H 0.80726 0.31235 0.6192 0.0
H3326 H 0.74289 0.32563 0.65414 0.0
H3327 H 0.72307 0.305 0.65902 0.0
H3328 H 0.72197 0.31716 0.63614 0.0
H3329 H 0.71829 0.28119 0.61555 0.0
H3330 H 0.71952 0.26894 0.63843 0.0
H3331 H 0.73672 0.26516 0.61939 0.0
H3332 H 0.80894 0.2949 0.6503 0.0
H3333 H 0.80431 0.28126 0.68316 0.0
H3334 H 0.74053 0.279 0.67504 0.0
C3335 C 0.75179 0.31564 0.60516 0.0
C3336 C 0.76713 0.32489 0.5936 0.0
C3337 C 0.78717 0.32343 0.59877 0.0
C3338 C 0.7919 0.31302 0.6151 0.0
C3339 C 0.77644 0.30412 0.62615 0.0
C3340 C 0.7568 0.30537 0.62149 0.0
C3341 C 0.74323 0.29578 0.63673 0.0
C3342 C 0.73215 0.31186 0.64712 0.0
C3343 C 0.72857 0.27663 0.62694 0.0
C3344 C 0.75842 0.28962 0.65104 0.0
C3345 C 0.77744 0.29424 0.64443 0.0
C3346 C 0.79411 0.29098 0.65554 0.0
C3347 C 0.79133 0.28322 0.67416 0.0
C3348 C 0.77207 0.279 0.68149 0.0
C3349 C 0.75538 0.28183 0.66961 0.0
H3350 H 0.44234 0.03406 0.39049 0.0
H3351 H 0.48348 0.08328 0.36761 0.0
H3352 H 0.50563 0.08618 0.39836 0.0
H3353 H 0.45026 0.05549 0.44439 0.0
H3354 H 0.44805 0.02991 0.45262 0.0
H3355 H 0.43445 0.03373 0.43004 0.0
H3356 H 0.45047 0.00575 0.41021 0.0
H3357 H 0.46423 0.00206 0.43266 0.0
H3358 H 0.47726 0.00869 0.41069 0.0
H3359 H 0.52509 0.08046 0.42937 0.0
H3360 H 0.5396 0.06778 0.45933 0.0
H3361 H 0.48514 0.02303 0.46206 0.0
C3362 C 0.45586 0.04568 0.39217 0.0
C3363 C 0.46131 0.05846 0.37682 0.0
C3364 C 0.47905 0.07351 0.37938 0.0
C3365 C 0.49167 0.07523 0.39674 0.0
C3366 C 0.48609 0.06205 0.41144 0.0
C3367 C 0.46845 0.04778 0.40947 0.0
C3368 C 0.46639 0.03465 0.42687 0.0
C3369 C 0.44874 0.0387 0.43921 0.0
C3370 C 0.46449 0.01142 0.41967 0.0
C3371 C 0.48606 0.04309 0.43845 0.0
C3372 C 0.49715 0.05903 0.42946 0.0
C3373 C 0.51642 0.06825 0.43675 0.0
C3374 C 0.52457 0.06089 0.45364 0.0
C3375 C 0.51341 0.04452 0.46289 0.0
C3376 C 0.49387 0.03574 0.45535 0.0
H3377 H 0.76711 0.7426 0.10017 0.0
H3378 H 0.76034 0.6769 0.10753 0.0
H3379 H 0.7534 0.68405 0.14301 0.0
H3380 H 0.79266 0.76071 0.14767 0.0
H3381 H 0.78075 0.78297 0.15199 0.0
H3382 H 0.78374 0.77263 0.12673 0.0
H3383 H 0.7457 0.76861 0.1187 0.0
H3384 H 0.7426 0.77882 0.14401 0.0
H3385 H 0.72862 0.75383 0.13403 0.0
H3386 H 0.74713 0.69796 0.17751 0.0
H3387 H 0.74569 0.71841 0.21011 0.0
H3388 H 0.75876 0.77542 0.18165 0.0
C3389 C 0.76401 0.72976 0.10927 0.0
C3390 C 0.76429 0.70918 0.10112 0.0
C3391 C 0.76038 0.69279 0.11351 0.0
C3392 C 0.75626 0.69667 0.13364 0.0
C3393 C 0.75616 0.71707 0.14125 0.0
C3394 C 0.76013 0.7334 0.12957 0.0
C3395 C 0.76018 0.75398 0.1419 0.0
C3396 C 0.78055 0.76841 0.14208 0.0
C3397 C 0.74327 0.76443 0.13419 0.0
C3398 C 0.75618 0.74666 0.16241 0.0
C3399 C 0.75337 0.72524 0.16151 0.0
C3400 C 0.74927 0.71473 0.1784 0.0
C3401 C 0.74838 0.72641 0.19679 0.0
C3402 C 0.75195 0.74834 0.19819 0.0
C3403 C 0.75582 0.75862 0.18081 0.0
H3404 H 0.09626 0.00324 0.65988 0.0
H3405 H 0.0632 0.0372 0.70079 0.0
H3406 H 0.04766 0.05088 0.67204 0.0
H3407 H 0.10604 0.04146 0.62501 0.0
H3408 H 0.10261 0.02277 0.60317 0.0
H3409 H 0.1112 0.01573 0.62692 0.0
H3410 H 0.08184 0.98446 0.62478 0.0
H3411 H 0.07335 0.99124 0.60089 0.0
H3412 H 0.05666 0.98882 0.62097 0.0
H3413 H 0.03612 0.06117 0.63875 0.0
H3414 H 0.02684 0.06444 0.60327 0.0
H3415 H 0.06727 0.02346 0.58425 0.0
C3416 C 0.08574 0.01355 0.66275 0.0
C3417 C 0.08089 0.0192 0.6825 0.0
C3418 C 0.06693 0.03254 0.68572 0.0
C3419 C 0.05818 0.04052 0.66952 0.0
C3420 C 0.06349 0.03487 0.65022 0.0
C3421 C 0.07674 0.02147 0.64676 0.0
C3422 C 0.07939 0.01724 0.62455 0.0
C3423 C 0.1011 0.02476 0.61963 0.0
C3424 C 0.07239 0.99407 0.61738 0.0
C3425 C 0.06563 0.03043 0.61606 0.0
C3426 C 0.0567 0.04061 0.6311 0.0
C3427 C 0.04304 0.05331 0.62686 0.0
C3428 C 0.03795 0.05518 0.60668 0.0
C3429 C 0.04644 0.04432 0.59108 0.0
C3430 C 0.06073 0.03214 0.59589 0.0
H3431 H 0.75406 0.34354 0.39175 0.0
H3432 H 0.72476 0.29247 0.42283 0.0
H3433 H 0.72288 0.26899 0.39166 0.0
H3434 H 0.72829 0.3297 0.34467 0.0
H3435 H 0.74987 0.33708 0.33061 0.0
H3436 H 0.74848 0.34979 0.35529 0.0
H3437 H 0.78211 0.33984 0.36651 0.0
H3438 H 0.78357 0.32705 0.34183 0.0
H3439 H 0.78488 0.31299 0.36354 0.0
H3440 H 0.72287 0.25144 0.35607 0.0
H3441 H 0.72593 0.24155 0.31984 0.0
H3442 H 0.7585 0.30346 0.31428 0.0
C3443 C 0.74755 0.32738 0.3923 0.0
C3444 C 0.73952 0.32002 0.40993 0.0
C3445 C 0.73068 0.29874 0.40951 0.0
C3446 C 0.72972 0.28517 0.39191 0.0
C3447 C 0.73798 0.293 0.37493 0.0
C3448 C 0.7469 0.31359 0.3751 0.0
C3449 C 0.7549 0.31824 0.35504 0.0
C3450 C 0.74477 0.33467 0.34587 0.0
C3451 C 0.77772 0.32492 0.35685 0.0
C3452 C 0.74873 0.29715 0.34339 0.0
C3453 C 0.73892 0.28274 0.355 0.0
C3454 C 0.73079 0.26252 0.34693 0.0
C3455 C 0.73258 0.25703 0.32641 0.0
C3456 C 0.7426 0.27168 0.31442 0.0
C3457 C 0.75103 0.29182 0.32316 0.0
H3458 H 0.45335 0.01267 0.17765 0.0
H3459 H 0.49421 0.0675 0.20446 0.0
H3460 H 0.51451 0.06631 0.17488 0.0
H3461 H 0.49039 0.98683 0.15192 0.0
H3462 H 0.47345 0.97755 0.13032 0.0
H3463 H 0.46391 0.98102 0.1548 0.0
H3464 H 0.44122 0.0051 0.14137 0.0
H3465 H 0.4507 0.00175 0.11693 0.0
H3466 H 0.45225 0.02749 0.12945 0.0
H3467 H 0.52796 0.06149 0.14078 0.0
H3468 H 0.53355 0.0533 0.10494 0.0
H3469 H 0.48336 0.00212 0.10062 0.0
C3470 C 0.46668 0.02432 0.17741 0.0
C3471 C 0.47222 0.0402 0.1933 0.0
C3472 C 0.48985 0.05505 0.19252 0.0
C3473 C 0.50143 0.05452 0.17578 0.0
C3474 C 0.49521 0.03895 0.16011 0.0
C3475 C 0.4783 0.02405 0.16085 0.0
C3476 C 0.47387 0.00998 0.14147 0.0
C3477 C 0.47551 0.98751 0.14484 0.0
C3478 C 0.4533 0.01117 0.13174 0.0
C3479 C 0.49057 0.0197 0.12943 0.0
C3480 C 0.5029 0.03622 0.14049 0.0
C3481 C 0.51861 0.04839 0.13207 0.0
C3482 C 0.52165 0.04366 0.11175 0.0
C3483 C 0.50893 0.02703 0.1002 0.0
C3484 C 0.49343 0.01477 0.10923 0.0
H3485 H 0.76401 0.6991 0.88101 0.0
H3486 H 0.80232 0.74675 0.92128 0.0
H3487 H 0.80807 0.76869 0.89361 0.0
H3488 H 0.79208 0.70727 0.83645 0.0
H3489 H 0.77035 0.70357 0.81939 0.0
H3490 H 0.76952 0.69039 0.84183 0.0
H3491 H 0.73916 0.70625 0.85282 0.0
H3492 H 0.73944 0.71903 0.83018 0.0
H3493 H 0.74061 0.734 0.85424 0.0
H3494 H 0.80847 0.78647 0.86271 0.0
H3495 H 0.8026 0.79968 0.8302 0.0
H3496 H 0.76397 0.74134 0.80893 0.0
C3497 C 0.77361 0.71415 0.88403 0.0
C3498 C 0.78293 0.72098 0.90342 0.0
C3499 C 0.79539 0.74082 0.90657 0.0
C3500 C 0.79868 0.7535 0.89093 0.0
C3501 C 0.78943 0.74627 0.87208 0.0
C3502 C 0.77708 0.72711 0.86849 0.0
C3503 C 0.76846 0.72357 0.84686 0.0
C3504 C 0.77553 0.70509 0.83547 0.0
C3505 C 0.74556 0.72054 0.84598 0.0
C3506 C 0.77757 0.74392 0.83907 0.0
C3507 C 0.78974 0.75664 0.85392 0.0
C3508 C 0.79915 0.77658 0.85089 0.0
C3509 C 0.79574 0.78393 0.83236 0.0
C3510 C 0.78312 0.77142 0.81695 0.0
C3511 C 0.77414 0.751 0.82023 0.0
H3512 H 0.87599 0.09941 0.02652 0.0
H3513 H 0.83699 0.06588 0.97684 0.0
H3514 H 0.86097 0.04233 0.9706 0.0
H3515 H 0.92174 0.09661 0.00439 0.0
H3516 H 0.93478 0.09305 0.0274 0.0
H3517 H 0.91432 0.10696 0.02814 0.0
H3518 H 0.89665 0.08172 0.05205 0.0
H3519 H 0.91709 0.06773 0.05134 0.0
H3520 H 0.89201 0.05416 0.04463 0.0
H3521 H 0.89002 0.02321 0.96898 0.0
H3522 H 0.92178 0.01007 0.97253 0.0
H3523 H 0.94055 0.05525 0.0241 0.0
C3524 C 0.87232 0.08695 0.01451 0.0
C3525 C 0.85462 0.08459 0.00213 0.0
C3526 C 0.8506 0.06825 0.98633 0.0
C3527 C 0.86405 0.05467 0.98276 0.0
C3528 C 0.88138 0.05752 0.9952 0.0
C3529 C 0.88549 0.0732 0.01081 0.0
C3530 C 0.90532 0.0732 0.02177 0.0
C3531 C 0.91989 0.09366 0.02033 0.0
C3532 C 0.9026 0.06894 0.04375 0.0
C3533 C 0.91178 0.05517 0.0098 0.0
C3534 C 0.89782 0.04629 0.99453 0.0
C3535 C 0.90098 0.0299 0.98101 0.0
C3536 C 0.919 0.02254 0.98312 0.0
C3537 C 0.93344 0.03156 0.99865 0.0
C3538 C 0.92964 0.0479 0.01222 0.0
H3539 H 0.36451 0.4797 0.04529 0.0
H3540 H 0.3628 0.43223 0.99564 0.0
H3541 H 0.39673 0.44826 0.98764 0.0
H3542 H 0.39438 0.52292 0.02207 0.0
H3543 H 0.40855 0.53347 0.04516 0.0
H3544 H 0.3833 0.51975 0.04576 0.0
H3545 H 0.39534 0.49469 0.06925 0.0
H3546 H 0.42056 0.50839 0.06879 0.0
H3547 H 0.41475 0.4808 0.06163 0.0
H3548 H 0.43097 0.46836 0.98569 0.0
H3549 H 0.46482 0.48903 0.99188 0.0
H3550 H 0.44579 0.52269 0.04408 0.0
C3551 C 0.37126 0.47296 0.03257 0.0
C3552 C 0.36108 0.45488 0.0209 0.0
C3553 C 0.37041 0.44614 0.00464 0.0
C3554 C 0.38959 0.45519 -5e-05 0.0
C3555 C 0.39935 0.47293 0.01177 0.0
C3556 C 0.39063 0.48166 0.02786 0.0
C3557 C 0.4051 0.49971 0.03909 0.0
C3558 C 0.39737 0.52018 0.03795 0.0
C3559 C 0.40918 0.49564 0.06098 0.0
C3560 C 0.42343 0.49941 0.02709 0.0
C3561 C 0.41957 0.48411 0.01113 0.0
C3562 C 0.43416 0.48043 0.99809 0.0
C3563 C 0.45336 0.4923 0.00173 0.0
C3564 C 0.45798 0.50743 0.01849 0.0
C3565 C 0.44267 0.51132 0.03108 0.0
H3566 H 0.33826 0.64351 0.76558 0.0
H3567 H 0.29767 0.60375 0.72067 0.0
H3568 H 0.27651 0.6305 0.72015 0.0
H3569 H 0.30074 0.66524 0.79255 0.0
H3570 H 0.31588 0.69077 0.79736 0.0
H3571 H 0.32754 0.66821 0.79474 0.0
H3572 H 0.34829 0.6837 0.76647 0.0
H3573 H 0.33675 0.70632 0.76909 0.0
H3574 H 0.33567 0.69141 0.745 0.0
H3575 H 0.26016 0.66199 0.72381 0.0
H3576 H 0.2501 0.696 0.73112 0.0
H3577 H 0.30159 0.71544 0.77332 0.0
C3578 C 0.32498 0.64045 0.75556 0.0
C3579 C 0.31962 0.62143 0.74323 0.0
C3580 C 0.30195 0.61801 0.73051 0.0
C3581 C 0.28987 0.63317 0.73002 0.0
C3582 C 0.2956 0.6517 0.74235 0.0
C3583 C 0.31274 0.65541 0.75488 0.0
C3584 C 0.31568 0.67677 0.76642 0.0
C3585 C 0.31491 0.67514 0.78911 0.0
C3586 C 0.33525 0.69035 0.76144 0.0
C3587 C 0.29766 0.68459 0.75819 0.0
C3588 C 0.28621 0.66985 0.74443 0.0
C3589 C 0.26896 0.67361 0.73464 0.0
C3590 C 0.26334 0.69299 0.73895 0.0
C3591 C 0.27496 0.70845 0.75288 0.0
C3592 C 0.2923 0.70401 0.76265 0.0
H3593 H 0.1596 0.57826 0.48491 0.0
H3594 H 0.18192 0.56894 0.54439 0.0
H3595 H 0.14899 0.54934 0.55067 0.0
H3596 H 0.11329 0.58793 0.49881 0.0
H3597 H 0.09933 0.57465 0.47652 0.0
H3598 H 0.1253 0.58561 0.47551 0.0
H3599 H 0.13237 0.54971 0.46154 0.0
H3600 H 0.10634 0.53865 0.46246 0.0
H3601 H 0.12505 0.52748 0.47518 0.0
H3602 H 0.11315 0.53464 0.55226 0.0
H3603 H 0.07652 0.5247 0.54858 0.0
H3604 H 0.07703 0.54302 0.48801 0.0
C3605 C 0.15761 0.57184 0.49914 0.0
C3606 C 0.17342 0.57497 0.51408 0.0
C3607 C 0.1702 0.56637 0.53254 0.0
C3608 C 0.15151 0.55528 0.5363 0.0
C3609 C 0.13619 0.55277 0.52141 0.0
C3610 C 0.13903 0.56064 0.50313 0.0
C3611 C 0.11969 0.55687 0.49023 0.0
C3612 C 0.11408 0.57749 0.48497 0.0
C3613 C 0.12094 0.54231 0.47123 0.0
C3614 C 0.10545 0.54635 0.50442 0.0
C3615 C 0.11534 0.54399 0.52225 0.0
C3616 C 0.10525 0.53606 0.53825 0.0
C3617 C 0.08446 0.53056 0.53605 0.0
C3618 C 0.07399 0.53297 0.51797 0.0
C3619 C 0.08469 0.54065 0.50186 0.0
H3620 H 0.67795 0.90766 0.74249 0.0
H3621 H 0.71407 0.95663 0.78295 0.0
H3622 H 0.74041 0.93533 0.78519 0.0
H3623 H 0.68851 0.86639 0.76689 0.0
H3624 H 0.68898 0.84931 0.74437 0.0
H3625 H 0.6742 0.86938 0.74446 0.0
H3626 H 0.69261 0.88379 0.71424 0.0
H3627 H 0.70758 0.86377 0.71417 0.0
H3628 H 0.71943 0.8907 0.71607 0.0
H3629 H 0.7617 0.90748 0.78465 0.0
H3630 H 0.77475 0.87447 0.78324 0.0
H3631 H 0.72432 0.84468 0.74305 0.0
C3632 C 0.69157 0.91408 0.7515 0.0
C3633 C 0.69405 0.93374 0.76251 0.0
C3634 C 0.71185 0.94145 0.77454 0.0
C3635 C 0.72696 0.9296 0.77572 0.0
C3636 C 0.724 0.9102 0.76467 0.0
C3637 C 0.70671 0.90252 0.75282 0.0
C3638 C 0.70637 0.88064 0.74366 0.0
C3639 C 0.68847 0.86555 0.75025 0.0
C3640 C 0.70651 0.87968 0.72067 0.0
C3641 C 0.72585 0.87692 0.75277 0.0
C3642 C 0.73607 0.89422 0.76452 0.0
C3643 C 0.75396 0.89391 0.7753 0.0
C3644 C 0.76128 0.8752 0.7744 0.0
C3645 C 0.75043 0.85725 0.76308 0.0
C3646 C 0.73286 0.8583 0.75179 0.0
H3647 H 0.66127 0.94964 0.50177 0.0
H3648 H 0.67089 0.95105 0.56633 0.0
H3649 H 0.64312 0.97008 0.57112 0.0
H3650 H 0.6488 0.00072 0.50175 0.0
H3651 H 0.62993 0.99328 0.48147 0.0
H3652 H 0.65065 0.97979 0.48298 0.0
H3653 H 0.62617 0.94477 0.48232 0.0
H3654 H 0.60538 0.95815 0.48073 0.0
H3655 H 0.60751 0.94179 0.50057 0.0
H3656 H 0.6139 0.98844 0.56907 0.0
H3657 H 0.58531 0.00495 0.56014 0.0
H3658 H 0.59455 0.99204 0.497 0.0
C3659 C 0.65746 0.95384 0.51691 0.0
C3660 C 0.6684 0.94891 0.53368 0.0
C3661 C 0.663 0.95491 0.55324 0.0
C3662 C 0.64715 0.96564 0.55613 0.0
C3663 C 0.63678 0.97036 0.53932 0.0
C3664 C 0.64169 0.96467 0.52008 0.0
C3665 C 0.62811 0.9717 0.50461 0.0
C3666 C 0.64009 0.9873 0.49196 0.0
C3667 C 0.61608 0.95299 0.49127 0.0
C3668 C 0.61476 0.98211 0.51816 0.0
C3669 C 0.62003 0.98114 0.53813 0.0
C3670 C 0.6097 0.98938 0.55348 0.0
C3671 C 0.59351 0.99876 0.54827 0.0
C3672 C 0.58783 -8e-05 0.52792 0.0
C3673 C 0.59868 0.99154 0.5127 0.0
H3674 H 0.30308 0.42418 0.72541 0.0
H3675 H 0.35753 0.42209 0.76028 0.0
H3676 H 0.34559 0.38494 0.76386 0.0
H3677 H 0.27107 0.39288 0.755 0.0
H3678 H 0.25437 0.37983 0.73436 0.0
H3679 H 0.26803 0.40559 0.73265 0.0
H3680 H 0.28272 0.39261 0.69988 0.0
H3681 H 0.2691 0.36677 0.70152 0.0
H3682 H 0.29576 0.37103 0.69981 0.0
H3683 H 0.3273 0.34875 0.7651 0.0
H3684 H 0.30287 0.31638 0.76587 0.0
H3685 H 0.25949 0.34186 0.73126 0.0
C3686 C 0.31256 0.41573 0.73348 0.0
C3687 C 0.33126 0.42585 0.74247 0.0
C3688 C 0.34315 0.41452 0.75331 0.0
C3689 C 0.33655 0.39344 0.75532 0.0
C3690 C 0.31795 0.38391 0.74649 0.0
C3691 C 0.30604 0.39467 0.73588 0.0
C3692 C 0.28603 0.38112 0.72925 0.0
C3693 C 0.26887 0.39041 0.73837 0.0
C3694 C 0.28324 0.37768 0.70625 0.0
C3695 C 0.28844 0.36121 0.73809 0.0
C3696 C 0.3071 0.3631 0.7477 0.0
C3697 C 0.31268 0.34705 0.75754 0.0
C3698 C 0.29871 0.32872 0.75789 0.0
C3699 C 0.27932 0.32665 0.74864 0.0
C3700 C 0.27426 0.343 0.73834 0.0
H3701 H 0.19507 0.61282 0.24317 0.0
H3702 H 0.2133 0.60431 0.30414 0.0
H3703 H 0.23434 0.6393 0.3077 0.0
H3704 H 0.2436 0.6449 0.23131 0.0
H3705 H 0.23094 0.66084 0.21663 0.0
H3706 H 0.22012 0.63394 0.21785 0.0
H3707 H 0.18764 0.64494 0.22996 0.0
H3708 H 0.19838 0.67181 0.22902 0.0
H3709 H 0.18887 0.66309 0.25203 0.0
H3710 H 0.24875 0.67655 0.30639 0.0
H3711 H 0.25741 0.71317 0.29983 0.0
H3712 H 0.23007 0.69743 0.23939 0.0
C3713 C 0.20383 0.61821 0.25711 0.0
C3714 C 0.20263 0.60604 0.27342 0.0
C3715 C 0.21425 0.61343 0.29145 0.0
C3716 C 0.22618 0.63324 0.29359 0.0
C3717 C 0.22651 0.64517 0.27743 0.0
C3718 C 0.21589 0.63783 0.25942 0.0
C3719 C 0.21754 0.65431 0.24495 0.0
C3720 C 0.22872 0.64813 0.2266 0.0
C3721 C 0.19688 0.6588 0.23864 0.0
C3722 C 0.22982 0.67243 0.25803 0.0
C3723 C 0.23508 0.66673 0.27659 0.0
C3724 C 0.24507 0.68112 0.29179 0.0
C3725 C 0.24976 0.70191 0.28795 0.0
C3726 C 0.2444 0.70811 0.26908 0.0
C3727 C 0.23457 0.69309 0.25386 0.0
H3728 H 0.48612 0.66196 0.45766 0.0
H3729 H 0.54103 0.66817 0.42652 0.0
H3730 H 0.5495 0.63784 0.44142 0.0
H3731 H 0.50547 0.64536 0.50305 0.0
H3732 H 0.48338 0.62675 0.50636 0.0
H3733 H 0.48144 0.64936 0.49364 0.0
H3734 H 0.46355 0.62587 0.46268 0.0
H3735 H 0.46526 0.60322 0.47539 0.0
H3736 H 0.47522 0.60562 0.45109 0.0
H3737 H 0.55275 0.60781 0.45992 0.0
H3738 H 0.54913 0.57712 0.47864 0.0
H3739 H 0.49134 0.5884 0.49686 0.0
C3740 C 0.49984 0.65684 0.45388 0.0
C3741 C 0.51309 0.66776 0.44121 0.0
C3742 C 0.5309 0.6605 0.43663 0.0
C3743 C 0.53582 0.64319 0.44493 0.0
C3744 C 0.5227 0.6331 0.45765 0.0
C3745 C 0.50496 0.6394 0.46196 0.0
C3746 C 0.49339 0.62529 0.47577 0.0
C3747 C 0.49077 0.63742 0.4959 0.0
C3748 C 0.47316 0.61435 0.46562 0.0
C3749 C 0.5074 0.61005 0.47838 0.0
C3750 C 0.5243 0.6151 0.46797 0.0
C3751 C 0.53957 0.60363 0.46812 0.0
C3752 C 0.5374 0.58627 0.47894 0.0
C3753 C 0.51996 0.58034 0.4893 0.0
C3754 C 0.50484 0.59254 0.48912 0.0
H3755 H 0.62584 0.30312 0.71442 0.0
H3756 H 0.62247 0.24962 0.67043 0.0
H3757 H 0.65439 0.24321 0.68462 0.0
H3758 H 0.67906 0.32018 0.71614 0.0
H3759 H 0.68137 0.32737 0.74284 0.0
H3760 H 0.65858 0.32847 0.72871 0.0
H3761 H 0.6385 0.30428 0.75199 0.0
H3762 H 0.6612 0.3032 0.76624 0.0
H3763 H 0.64536 0.27952 0.75543 0.0
H3764 H 0.68685 0.24257 0.70335 0.0
H3765 H 0.71637 0.24639 0.72703 0.0
H3766 H 0.69776 0.29887 0.76007 0.0
C3767 C 0.6317 0.28997 0.70782 0.0
C3768 C 0.62166 0.2771 0.69105 0.0
C3769 C 0.63004 0.26011 0.68289 0.0
C3770 C 0.64815 0.25622 0.69094 0.0
C3771 C 0.65769 0.2693 0.70729 0.0
C3772 C 0.6497 0.28572 0.71578 0.0
C3773 C 0.66269 0.29699 0.73374 0.0
C3774 C 0.67091 0.31959 0.73013 0.0
C3775 C 0.65125 0.29592 0.75299 0.0
C3776 C 0.67912 0.28424 0.73409 0.0
C3777 C 0.67607 0.26849 0.71855 0.0
C3778 C 0.68936 0.25479 0.71563 0.0
C3779 C 0.70609 0.2571 0.7291 0.0
C3780 C 0.70922 0.27283 0.74539 0.0
C3781 C 0.69562 0.28662 0.7478 0.0
H3782 H 0.01787 0.36774 0.97548 0.0
H3783 H 0.95731 0.35355 0.94913 0.0
H3784 H 0.95019 0.3858 0.96691 0.0
H3785 H 0.00627 0.39437 0.02472 0.0
H3786 H 0.0289 0.41337 0.02551 0.0
H3787 H 0.02814 0.38741 0.01382 0.0
H3788 H 0.03992 0.40237 0.98104 0.0
H3789 H 0.04071 0.42827 0.9926 0.0
H3790 H 0.02596 0.41949 0.96946 0.0
H3791 H 0.95094 0.42142 0.98376 0.0
H3792 H 0.95996 0.45835 0.99685 0.0
H3793 H 0.02021 0.44963 0.01203 0.0
C3794 C 0.00295 0.37114 0.97402 0.0
C3795 C 0.98809 0.35819 0.96108 0.0
C3796 C 0.96888 0.36336 0.959 0.0
C3797 C 0.96467 0.38153 0.96915 0.0
C3798 C 0.9798 0.39431 0.9814 0.0
C3799 C 0.99856 0.38933 0.98394 0.0
C3800 C 0.01282 0.40683 0.99602 0.0
C3801 C 0.01942 0.40009 0.01622 0.0
C3802 C 0.0309 0.4147 0.98406 0.0
C3803 C 0.99945 0.42282 0.99895 0.0
C3804 C 0.98033 0.41511 0.99088 0.0
C3805 C 0.96576 0.42753 0.99045 0.0
C3806 C 0.97104 0.44851 0.99795 0.0
C3807 C 0.9908 0.45693 0.00549 0.0
C3808 C 0.00494 0.44368 0.0065 0.0
H3809 H 0.92635 0.76118 0.21198 0.0
H3810 H 0.92426 0.81035 0.17317 0.0
H3811 H 0.89333 0.81693 0.18743 0.0
H3812 H 0.87311 0.7414 0.2064 0.0
H3813 H 0.87135 0.7349 0.23188 0.0
H3814 H 0.89425 0.73461 0.21958 0.0
H3815 H 0.91338 0.7602 0.24853 0.0
H3816 H 0.8905 0.76072 0.26082 0.0
H3817 H 0.9055 0.7846 0.25497 0.0
H3818 H 0.86338 0.81926 0.20596 0.0
H3819 H 0.83313 0.81411 0.22485 0.0
H3820 H 0.85176 0.76145 0.24988 0.0
C3821 C 0.91937 0.77326 0.20639 0.0
C3822 C 0.92829 0.78565 0.19181 0.0
C3823 C 0.9184 0.80117 0.18489 0.0
C3824 C 0.90064 0.80497 0.19279 0.0
C3825 C 0.89256 0.79288 0.20737 0.0
C3826 C 0.9013 0.77708 0.2139 0.0
C3827 C 0.88868 0.76576 0.22903 0.0
C3828 C 0.88142 0.74281 0.22125 0.0
C3829 C 0.90021 0.76796 0.24955 0.0
C3830 C 0.87152 0.77768 0.22982 0.0
C3831 C 0.87436 0.79346 0.21741 0.0
C3832 C 0.86089 0.80689 0.21564 0.0
C3833 C 0.84378 0.80386 0.2265 0.0
C3834 C 0.84008 0.78735 0.23876 0.0
C3835 C 0.85425 0.7742 0.24061 0.0
H3836 H 0.52152 0.37147 0.0591 0.0
H3837 H 0.45739 0.36227 0.06504 0.0
H3838 H 0.45559 0.39192 0.04591 0.0
H3839 H 0.52876 0.42581 0.06953 0.0
H3840 H 0.54845 0.4311 0.05265 0.0
H3841 H 0.54446 0.40696 0.06381 0.0
H3842 H 0.5409 0.38671 0.02842 0.0
H3843 H 0.54472 0.41085 0.01714 0.0
H3844 H 0.52268 0.39159 0.01004 0.0
H3845 H 0.46052 0.42337 0.02735 0.0
H3846 H 0.47251 0.45735 0.01501 0.0
H3847 H 0.53366 0.44941 0.02546 0.0
C3848 C 0.50702 0.37554 0.05651 0.0
C3849 C 0.48956 0.36392 0.06346 0.0
C3850 C 0.47099 0.37011 0.05938 0.0
C3851 C 0.46977 0.38714 0.04858 0.0
C3852 C 0.48726 0.3982 0.04217 0.0
C3853 C 0.50558 0.39289 0.04626 0.0
C3854 C 0.52234 0.40874 0.03962 0.0
C3855 C 0.53685 0.41875 0.05747 0.0
C3856 C 0.53331 0.39888 0.0228 0.0
C3857 C 0.51058 0.42414 0.03174 0.0
C3858 C 0.49032 0.41733 0.03274 0.0
C3859 C 0.47633 0.42881 0.02641 0.0
C3860 C 0.48326 0.44799 0.01932 0.0
C3861 C 0.50392 0.45569 0.01911 0.0
C3862 C 0.51778 0.44361 0.02526 0.0
H3863 H 0.92643 0.26683 0.31483 0.0
H3864 H 0.91529 0.26844 0.37812 0.0
H3865 H 0.8817 0.27589 0.37065 0.0
H3866 H 0.9013 0.30848 0.30388 0.0
H3867 H 0.89117 0.29636 0.27952 0.0
H3868 H 0.91433 0.29096 0.28976 0.0
H3869 H 0.89982 0.2515 0.28551 0.0
H3870 H 0.8767 0.25679 0.27508 0.0
H3871 H 0.87672 0.24212 0.2965 0.0
H3872 H 0.84931 0.28303 0.35635 0.0
H3873 H 0.81977 0.28785 0.33581 0.0
H3874 H 0.85236 0.28238 0.28207 0.0
C3875 C 0.91692 0.26878 0.3271 0.0
C3876 C 0.9234 0.26694 0.34703 0.0
C3877 C 0.91048 0.26944 0.36269 0.0
C3878 C 0.89146 0.27386 0.35863 0.0
C3879 C 0.88558 0.27573 0.33885 0.0
C3880 C 0.89786 0.27315 0.32331 0.0
C3881 C 0.88779 0.27557 0.30334 0.0
C3882 C 0.89934 0.29394 0.29356 0.0
C3883 C 0.8851 0.25529 0.28929 0.0
C3884 C 0.86798 0.28003 0.31009 0.0
C3885 C 0.86699 0.28005 0.33063 0.0
C3886 C 0.84992 0.28315 0.34026 0.0
C3887 C 0.83326 0.28591 0.32852 0.0
C3888 C 0.83392 0.28564 0.30745 0.0
C3889 C 0.85158 0.28294 0.2982 0.0
H3890 H 0.98403 0.67113 0.55087 0.0
H3891 H 0.00908 0.66457 0.61013 0.0
H3892 H 0.01423 0.6295 0.59843 0.0
H3893 H 0.95751 0.61675 0.5417 0.0
H3894 H 0.96195 0.61514 0.51535 0.0
H3895 H 0.95965 0.63967 0.52852 0.0
H3896 H 0.9941 0.65618 0.51702 0.0
H3897 H 0.99659 0.63168 0.50399 0.0
H3898 H 0.01558 0.64475 0.52264 0.0
H3899 H 0.02009 0.59686 0.57958 0.0
H3900 H 0.02241 0.56671 0.55556 0.0
H3901 H 0.99019 0.59234 0.50971 0.0
C3902 C 0.99024 0.66221 0.56151 0.0
C3903 C 0.99653 0.6709 0.58133 0.0
C3904 C 0.0047 0.65861 0.5947 0.0
C3905 C 0.00755 0.63856 0.58826 0.0
C3906 C 0.00174 0.63073 0.56853 0.0
C3907 C 0.99289 0.64195 0.55544 0.0
C3908 C 0.98807 0.62978 0.53498 0.0
C3909 C 0.96545 0.62505 0.52984 0.0
C3910 C 0.99926 0.64129 0.5187 0.0
C3911 C 0.99598 0.61021 0.53857 0.0
C3912 C 0.00394 0.61116 0.55799 0.0
C3913 C 0.01343 0.59564 0.56448 0.0
C3914 C 0.01459 0.57853 0.5508 0.0
C3915 C 0.00594 0.5769 0.53104 0.0
C3916 C 0.99657 0.59299 0.52488 0.0
H3917 H 0.62528 0.78888 0.82701 0.0
H3918 H 0.61246 0.7235 0.83678 0.0
H3919 H 0.64231 0.71793 0.81951 0.0
H3920 H 0.64579 0.7829 0.77847 0.0
H3921 H 0.66512 0.80555 0.78359 0.0
H3922 H 0.6419 0.80441 0.79558 0.0
H3923 H 0.66113 0.8115 0.83042 0.0
H3924 H 0.68438 0.81268 0.81851 0.0
H3925 H 0.67818 0.79484 0.83711 0.0
H3926 H 0.67359 0.71919 0.80198 0.0
H3927 H 0.70544 0.72746 0.78621 0.0
H3928 H 0.69963 0.79244 0.78928 0.0
C3929 C 0.62873 0.77339 0.82562 0.0
C3930 C 0.61618 0.75659 0.83308 0.0
C3931 C 0.62135 0.73657 0.83074 0.0
C3932 C 0.63843 0.73324 0.82108 0.0
C3933 C 0.6504 0.75009 0.81399 0.0
C3934 C 0.64591 0.76981 0.81621 0.0
C3935 C 0.66184 0.78535 0.80789 0.0
C3936 C 0.65314 0.79512 0.79034 0.0
C3937 C 0.67198 0.80208 0.82448 0.0
C3938 C 0.67599 0.77123 0.80074 0.0
C3939 C 0.66895 0.75095 0.80429 0.0
C3940 C 0.67927 0.73501 0.79908 0.0
C3941 C 0.69736 0.7399 0.79006 0.0
C3942 C 0.70508 0.76062 0.78643 0.0
C3943 C 0.69417 0.77647 0.79186 0.0
H3944 H 0.45106 0.56231 0.63962 0.0
H3945 H 0.45273 0.50081 0.65781 0.0
H3946 H 0.47343 0.49402 0.62984 0.0
H3947 H 0.44899 0.54999 0.58734 0.0
H3948 H 0.46559 0.57343 0.58264 0.0
H3949 H 0.45101 0.57326 0.60432 0.0
H3950 H 0.48364 0.5863 0.62667 0.0
H3951 H 0.4981 0.58584 0.60483 0.0
H3952 H 0.5035 0.57152 0.62543 0.0
H3953 H 0.49149 0.49248 0.5987 0.0
H3954 H 0.50783 0.49724 0.56693 0.0
H3955 H 0.49742 0.56059 0.56988 0.0
C3956 C 0.45601 0.54753 0.638 0.0
C3957 C 0.44977 0.53197 0.65086 0.0
C3958 C 0.45661 0.5128 0.64791 0.0
C3959 C 0.46864 0.50884 0.63216 0.0
C3960 C 0.47418 0.52434 0.61966 0.0
C3961 C 0.46839 0.54342 0.62253 0.0
C3962 C 0.4765 0.55732 0.60677 0.0
C3963 C 0.4595 0.56385 0.59453 0.0
C3964 C 0.49132 0.57637 0.61651 0.0
C3965 C 0.48708 0.54272 0.59416 0.0
C3966 C 0.48559 0.52382 0.60203 0.0
C3967 C 0.4931 0.50732 0.5926 0.0
C3968 C 0.50233 0.51016 0.57459 0.0
C3969 C 0.50416 0.52937 0.56631 0.0
C3970 C 0.49661 0.54594 0.57627 0.0
H3971 H 0.74279 0.2041 0.91764 0.0
H3972 H 0.78898 0.25018 0.95069 0.0
H3973 H 0.78794 0.27321 0.9237 0.0
H3974 H 0.76088 0.20988 0.87069 0.0
H3975 H 0.73688 0.20634 0.85725 0.0
H3976 H 0.73933 0.19472 0.88026 0.0
H3977 H 0.712 0.21334 0.89512 0.0
H3978 H 0.70943 0.22502 0.87207 0.0
H3979 H 0.71476 0.24116 0.89557 0.0
H3980 H 0.78471 0.28928 0.89173 0.0
H3981 H 0.77957 0.29721 0.85676 0.0
H3982 H 0.73496 0.24109 0.8448 0.0
C3983 C 0.75228 0.21928 0.91942 0.0
C3984 C 0.76592 0.22543 0.93623 0.0
C3985 C 0.77851 0.24516 0.93783 0.0
C3986 C 0.77791 0.25839 0.92268 0.0
C3987 C 0.76456 0.25169 0.90611 0.0
C3988 C 0.75191 0.23264 0.90442 0.0
C3989 C 0.74021 0.22838 0.88431 0.0
C3990 C 0.7446 0.20867 0.87244 0.0
C3991 C 0.71777 0.22689 0.88693 0.0
C3992 C 0.7487 0.24774 0.87475 0.0
C3993 C 0.76257 0.26109 0.88765 0.0
C3994 C 0.77361 0.27917 0.88162 0.0
C3995 C 0.77062 0.28353 0.86177 0.0
C3996 C 0.75672 0.26987 0.84829 0.0
C3997 C 0.74537 0.252 0.85498 0.0
H3998 H 0.05237 0.49803 0.15563 0.0
H3999 H 0.10742 0.54029 0.14813 0.0
H4000 H 0.09496 0.54521 0.11411 0.0
H4001 H 0.04481 0.47402 0.10379 0.0
H4002 H 0.01815 0.47239 0.10323 0.0
H4003 H 0.03188 0.47116 0.12653 0.0
H4004 H 0.01723 0.50202 0.14286 0.0
H4005 H 0.00353 0.50339 0.11962 0.0
H4006 H 0.0203 0.52602 0.13136 0.0
H4007 H 0.07627 0.54686 0.0821 0.0
H4008 H 0.05212 0.54543 0.05344 0.0
H4009 H 0.00902 0.5019 0.08134 0.0
C4010 C 0.06187 0.50807 0.14667 0.0
C4011 C 0.08082 0.51881 0.15436 0.0
C4012 C 0.09278 0.5321 0.14246 0.0
C4013 C 0.0859 0.53487 0.12314 0.0
C4014 C 0.06706 0.52424 0.11606 0.0
C4015 C 0.05518 0.5111 0.12739 0.0
C4016 C 0.03516 0.50231 0.11652 0.0
C4017 C 0.03234 0.47856 0.11226 0.0
C4018 C 0.01805 0.50883 0.12829 0.0
C4019 C 0.03757 0.51278 0.0974 0.0
C4020 C 0.05615 0.52523 0.09744 0.0
C4021 C 0.06175 0.53701 0.08176 0.0
C4022 C 0.04795 0.53605 0.06557 0.0
C4023 C 0.02888 0.52332 0.06516 0.0
C4024 C 0.02359 0.51159 0.08128 0.0
H4025 H 0.73528 0.83211 0.40865 0.0
H4026 H 0.79267 0.82262 0.43275 0.0
H4027 H 0.79996 0.80804 0.39929 0.0
H4028 H 0.72495 0.78468 0.37343 0.0
H4029 H 0.71345 0.79703 0.3543 0.0
H4030 H 0.71227 0.80588 0.38038 0.0
H4031 H 0.72798 0.84317 0.3734 0.0
H4032 H 0.72935 0.83441 0.34735 0.0
H4033 H 0.75155 0.84753 0.36191 0.0
H4034 H 0.80216 0.7967 0.3629 0.0
H4035 H 0.79817 0.78721 0.32629 0.0
H4036 H 0.73891 0.80268 0.32555 0.0
C4037 C 0.74922 0.82662 0.40696 0.0
C4038 C 0.76346 0.82868 0.42338 0.0
C4039 C 0.78164 0.82154 0.4204 0.0
C4040 C 0.7859 0.81313 0.40145 0.0
C4041 C 0.77178 0.81177 0.38552 0.0
C4042 C 0.75372 0.81811 0.38807 0.0
C4043 C 0.7414 0.81536 0.36827 0.0
C4044 C 0.72186 0.79981 0.36915 0.0
C4045 C 0.73734 0.83637 0.36239 0.0
C4046 C 0.75542 0.80662 0.35424 0.0
C4047 C 0.7729 0.80477 0.36451 0.0
C4048 C 0.78846 0.79789 0.35472 0.0
C4049 C 0.78609 0.79263 0.33388 0.0
C4050 C 0.76822 0.7941 0.32301 0.0
C4051 C 0.75268 0.80116 0.33343 0.0
H4052 H 0.42266 0.53491 0.85937 0.0
H4053 H 0.47054 0.52498 0.82124 0.0
H4054 H 0.48915 0.51492 0.85004 0.0
H4055 H 0.45392 0.55734 0.90299 0.0
H4056 H 0.43731 0.54531 0.92043 0.0
H4057 H 0.42747 0.55097 0.89663 0.0
H4058 H 0.41057 0.51235 0.88881 0.0
H4059 H 0.42054 0.50655 0.91253 0.0
H4060 H 0.42551 0.49237 0.88957 0.0
H4061 H 0.50215 0.50512 0.88256 0.0
H4062 H 0.51071 0.50034 0.91775 0.0
H4063 H 0.45531 0.51833 0.93538 0.0
C4064 C 0.43703 0.53053 0.8571 0.0
C4065 C 0.44518 0.53069 0.83809 0.0
C4066 C 0.46412 0.52513 0.83573 0.0
C4067 C 0.47471 0.51922 0.85194 0.0
C4068 C 0.4662 0.51906 0.87044 0.0
C4069 C 0.44792 0.52482 0.8732 0.0
C4070 C 0.44256 0.52414 0.89486 0.0
C4071 C 0.44019 0.54573 0.90428 0.0
C4072 C 0.42367 0.50789 0.89653 0.0
C4073 C 0.46082 0.51741 0.90389 0.0
C4074 C 0.47407 0.51415 0.88943 0.0
C4075 C 0.49193 0.50766 0.89403 0.0
C4076 C 0.4966 0.50488 0.91403 0.0
C4077 C 0.48365 0.50896 0.9292 0.0
C4078 C 0.46544 0.51508 0.92402 0.0
H4079 H 0.76005 0.20468 0.13086 0.0
H4080 H 0.80463 0.24828 0.10484 0.0
H4081 H 0.80668 0.27279 0.13545 0.0
H4082 H 0.73459 0.24298 0.15628 0.0
H4083 H 0.73029 0.22868 0.17783 0.0
H4084 H 0.73168 0.21506 0.15351 0.0
H4085 H 0.75975 0.19754 0.16773 0.0
H4086 H 0.75831 0.21098 0.19207 0.0
H4087 H 0.78177 0.21353 0.18038 0.0
H4088 H 0.80492 0.2918 0.16972 0.0
H4089 H 0.80049 0.30288 0.20532 0.0
H4090 H 0.75638 0.2471 0.20796 0.0
C4091 C 0.77003 0.21951 0.13146 0.0
C4092 C 0.78214 0.22461 0.11545 0.0
C4093 C 0.79534 0.24399 0.11702 0.0
C4094 C 0.79648 0.25807 0.13425 0.0
C4095 C 0.78429 0.25255 0.14974 0.0
C4096 C 0.77134 0.23371 0.1485 0.0
C4097 C 0.76054 0.23102 0.16756 0.0
C4098 C 0.73794 0.22934 0.16354 0.0
C4099 C 0.76539 0.21216 0.17752 0.0
C4100 C 0.7696 0.2512 0.17983 0.0
C4101 C 0.78318 0.26351 0.1693 0.0
C4102 C 0.79418 0.28239 0.17804 0.0
C4103 C 0.79156 0.28858 0.19821 0.0
C4104 C 0.77808 0.27587 0.20931 0.0
C4105 C 0.76667 0.25723 0.1998 0.0
H4106 H 0.0682 0.53475 0.35201 0.0
H4107 H 0.03006 0.47808 0.3256 0.0
H4108 H 0.00922 0.47842 0.35497 0.0
H4109 H 0.06982 0.5226 0.4003 0.0
H4110 H 0.06922 0.54821 0.41212 0.0
H4111 H 0.07908 0.54521 0.38784 0.0
H4112 H 0.05405 0.56628 0.37335 0.0
H4113 H 0.04416 0.56949 0.3977 0.0
H4114 H 0.02775 0.55832 0.37619 0.0
H4115 H 0.99639 0.48195 0.38924 0.0
H4116 H 0.99099 0.48955 0.42517 0.0
H4117 H 0.0366 0.54494 0.42837 0.0
C4118 C 0.05516 0.52272 0.35229 0.0
C4119 C 0.05055 0.50639 0.33678 0.0
C4120 C 0.03356 0.49077 0.33742 0.0
C4121 C 0.02171 0.49088 0.35397 0.0
C4122 C 0.02695 0.50696 0.36936 0.0
C4123 C 0.04308 0.5228 0.36849 0.0
C4124 C 0.04643 0.53745 0.38753 0.0
C4125 C 0.06737 0.5384 0.39753 0.0
C4126 C 0.04288 0.55917 0.38344 0.0
C4127 C 0.03033 0.52679 0.39971 0.0
C4128 C 0.01911 0.50935 0.38891 0.0
C4129 C 0.00469 0.49585 0.39768 0.0
C4130 C 0.0018 0.50023 0.41806 0.0
C4131 C 0.01325 0.51794 0.42929 0.0
C4132 C 0.02739 0.53155 0.41992 0.0
H4133 H 0.74768 0.80309 0.61326 0.0
H4134 H 0.76584 0.867 0.63888 0.0
H4135 H 0.76617 0.85541 0.67293 0.0
H4136 H 0.71594 0.78513 0.65226 0.0
H4137 H 0.72358 0.76023 0.65178 0.0
H4138 H 0.7241 0.77351 0.62943 0.0
H4139 H 0.76148 0.77153 0.62678 0.0
H4140 H 0.76105 0.7582 0.6491 0.0
H4141 H 0.77885 0.78174 0.64784 0.0
H4142 H 0.7643 0.83701 0.70419 0.0
H4143 H 0.76252 0.81285 0.73032 0.0
H4144 H 0.74681 0.76057 0.68498 0.0
C4145 C 0.75162 0.81459 0.62609 0.0
C4146 C 0.75668 0.83597 0.62349 0.0
C4147 C 0.76201 0.85057 0.64057 0.0
C4148 C 0.76216 0.84413 0.65995 0.0
C4149 C 0.75717 0.82298 0.66204 0.0
C4150 C 0.7522 0.80838 0.64559 0.0
C4151 C 0.74826 0.78654 0.65205 0.0
C4152 C 0.72668 0.77572 0.64602 0.0
C4153 C 0.76331 0.77375 0.64343 0.0
C4154 C 0.75163 0.79116 0.67467 0.0
C4155 C 0.75658 0.81231 0.68009 0.0
C4156 C 0.7603 0.82044 0.7001 0.0
C4157 C 0.75898 0.80661 0.71494 0.0
C4158 C 0.75407 0.78492 0.70983 0.0
C4159 C 0.75048 0.77712 0.68937 0.0
H4160 H 0.65678 0.45147 0.49249 0.0
H4161 H 0.67426 0.46294 0.55627 0.0
H4162 H 0.65035 0.48655 0.56046 0.0
H4163 H 0.64643 0.50246 0.48478 0.0
H4164 H 0.62457 0.49252 0.46833 0.0
H4165 H 0.64465 0.47809 0.4695 0.0
H4166 H 0.62007 0.4458 0.47823 0.0
H4167 H 0.59993 0.46007 0.4768 0.0
H4168 H 0.6048 0.44823 0.49927 0.0
H4169 H 0.62447 0.5085 0.55822 0.0
H4170 H 0.59464 0.52343 0.55062 0.0
H4171 H 0.59132 0.49516 0.48921 0.0
C4172 C 0.65559 0.45879 0.5074 0.0
C4173 C 0.6679 0.45555 0.52394 0.0
C4174 C 0.66567 0.46562 0.54314 0.0
C4175 C 0.652 0.47903 0.54574 0.0
C4176 C 0.64036 0.48202 0.52911 0.0
C4177 C 0.6417 0.47191 0.51038 0.0
C4178 C 0.62617 0.47649 0.4954 0.0
C4179 C 0.63605 0.48808 0.4785 0.0
C4180 C 0.6119 0.45646 0.48694 0.0
C4181 C 0.61572 0.49046 0.50877 0.0
C4182 C 0.6245 0.49383 0.52804 0.0
C4183 C 0.61745 0.506 0.5432 0.0
C4184 C 0.60056 0.51447 0.53872 0.0
C4185 C 0.59076 0.51038 0.51936 0.0
C4186 C 0.59864 0.49856 0.50411 0.0
H4187 H 0.14741 0.1057 0.50558 0.0
H4188 H 0.1768 0.0527 0.49388 0.0
H4189 H 0.14481 0.02912 0.49561 0.0
H4190 H 0.11328 0.08127 0.54164 0.0
H4191 H 0.09308 0.09337 0.5333 0.0
H4192 H 0.11853 0.10628 0.53206 0.0
H4193 H 0.11216 0.10891 0.4941 0.0
H4194 H 0.08674 0.09605 0.49524 0.0
H4195 H 0.1026 0.08565 0.47769 0.0
H4196 H 0.10932 0.01128 0.49543 0.0
H4197 H 0.0727 0.00045 0.49454 0.0
H4198 H 0.06642 0.06447 0.50921 0.0
C4199 C 0.14729 0.08916 0.50378 0.0
C4200 C 0.16479 0.0812 0.49933 0.0
C4201 C 0.16366 0.05935 0.49678 0.0
C4202 C 0.14555 0.04575 0.49797 0.0
C4203 C 0.12864 0.05413 0.50211 0.0
C4204 C 0.12935 0.07531 0.50521 0.0
C4205 C 0.10883 0.08024 0.50895 0.0
C4206 C 0.10841 0.09092 0.53026 0.0
C4207 C 0.1022 0.09349 0.49304 0.0
C4208 C 0.09639 0.05853 0.50676 0.0
C4209 C 0.10817 0.04371 0.50291 0.0
C4210 C 0.09999 0.02269 0.49881 0.0
C4211 C 0.0792 0.01668 0.49832 0.0
C4212 C 0.06686 0.03157 0.5021 0.0
C4213 C 0.07559 0.05272 0.50676 0.0
H4214 H 0.18123 0.893 0.76041 0.0
H4215 H 0.22956 0.93939 0.78998 0.0
H4216 H 0.25083 0.91284 0.79077 0.0
H4217 H 0.19033 0.85024 0.78608 0.0
H4218 H 0.18462 0.83155 0.76428 0.0
H4219 H 0.17306 0.85417 0.76629 0.0
H4220 H 0.18634 0.86398 0.73217 0.0
H4221 H 0.19793 0.84136 0.7301 0.0
H4222 H 0.21267 0.86672 0.72863 0.0
H4223 H 0.26675 0.88091 0.78905 0.0
H4224 H 0.27629 0.84636 0.78383 0.0
H4225 H 0.21822 0.82148 0.75375 0.0
C4226 C 0.19635 0.89774 0.76684 0.0
C4227 C 0.20355 0.9184 0.77528 0.0
C4228 C 0.22342 0.92366 0.7838 0.0
C4229 C 0.23573 0.9087 0.78418 0.0
C4230 C 0.22811 0.88853 0.7758 0.0
C4231 C 0.20893 0.88307 0.76715 0.0
C4232 C 0.2044 0.86036 0.759 0.0
C4233 C 0.18708 0.84838 0.76955 0.0
C4234 C 0.20009 0.85797 0.73612 0.0
C4235 C 0.22398 0.85388 0.76458 0.0
C4236 C 0.23745 0.87032 0.77431 0.0
C4237 C 0.25636 0.86795 0.78132 0.0
C4238 C 0.26165 0.84824 0.7783 0.0
C4239 C 0.24811 0.83118 0.76824 0.0
C4240 C 0.22905 0.83419 0.76129 0.0
H4241 H 0.36359 0.96446 0.04008 0.0
H4242 H 0.34058 0.9795 0.98301 0.0
H4243 H 0.37401 0.99842 0.97684 0.0
H4244 H 0.39982 0.01407 0.05224 0.0
H4245 H 0.418 0.00112 0.06354 0.0
H4246 H 0.39177 0.991 0.06447 0.0
H4247 H 0.3972 0.95534 0.048 0.0
H4248 H 0.42334 0.96539 0.04682 0.0
H4249 H 0.40861 0.95402 0.02428 0.0
H4250 H 0.41055 0.01134 0.97482 0.0
H4251 H 0.44732 0.02005 0.97841 0.0
H4252 H 0.44632 0.99763 0.03732 0.0
C4253 C 0.36555 0.9721 0.02648 0.0
C4254 C 0.34957 0.97063 0.01204 0.0
C4255 C 0.35262 0.98073 0.99437 0.0
C4256 C 0.37154 0.99142 0.99071 0.0
C4257 C 0.38713 0.99211 0.00501 0.0
C4258 C 0.38428 0.98302 0.0227 0.0
C4259 C 0.4037 0.98513 0.03513 0.0
C4260 C 0.40329 0.99864 0.05502 0.0
C4261 C 0.40849 0.9637 0.03876 0.0
C4262 C 0.41802 0.9961 0.02132 0.0
C4263 C 0.40817 6e-05 0.00406 0.0
C4264 C 0.41841 0.00869 0.98844 0.0
C4265 C 0.43928 0.01344 0.99055 0.0
C4266 C 0.44963 0.00964 0.0082 0.0
C4267 C 0.43879 0.00104 0.02381 0.0
H4268 H 0.83657 0.62996 0.74044 0.0
H4269 H 0.81868 0.60561 0.7962 0.0
H4270 H 0.7925 0.62716 0.79796 0.0
H4271 H 0.83086 0.68084 0.75357 0.0
H4272 H 0.82148 0.68493 0.72899 0.0
H4273 H 0.83765 0.6664 0.73157 0.0
H4274 H 0.81101 0.63774 0.71182 0.0
H4275 H 0.79467 0.65622 0.70934 0.0
H4276 H 0.78613 0.6325 0.72038 0.0
H4277 H 0.77028 0.65362 0.79502 0.0
H4278 H 0.75475 0.68374 0.788 0.0
H4279 H 0.78621 0.68887 0.7334 0.0
C4280 C 0.8269 0.62881 0.75282 0.0
C4281 C 0.82968 0.61615 0.76818 0.0
C4282 C 0.817 0.61547 0.78439 0.0
C4283 C 0.80193 0.62743 0.7854 0.0
C4284 C 0.79962 0.63975 0.76996 0.0
C4285 C 0.81173 0.64046 0.75396 0.0
C4286 C 0.80706 0.65588 0.73993 0.0
C4287 C 0.82534 0.67302 0.73845 0.0
C4288 C 0.79925 0.64492 0.71914 0.0
C4289 C 0.79078 0.66418 0.75084 0.0
C4290 C 0.78653 0.65458 0.76803 0.0
C4291 C 0.77322 0.66099 0.78141 0.0
C4292 C 0.76449 0.67807 0.77735 0.0
C4293 C 0.76927 0.68842 0.76015 0.0
C4294 C 0.78203 0.68095 0.74646 0.0
H4295 H 0.86002 0.58738 0.98215 0.0
H4296 H 0.85836 0.61254 0.04416 0.0
H4297 H 0.88716 0.5969 0.05339 0.0
H4298 H 0.87439 0.53925 0.99219 0.0
H4299 H 0.89106 0.53879 0.9721 0.0
H4300 H 0.87003 0.55177 0.97002 0.0
H4301 H 0.89362 0.58573 0.96384 0.0
H4302 H 0.9147 0.5728 0.96578 0.0
H4303 H 0.91423 0.59632 0.98169 0.0
H4304 H 0.91524 0.5778 0.0565 0.0
H4305 H 0.94283 0.55837 0.0528 0.0
H4306 H 0.92839 0.54697 0.98862 0.0
C4307 C 0.8658 0.58976 0.99764 0.0
C4308 C 0.85653 0.60094 0.01246 0.0
C4309 C 0.86467 0.60358 0.03257 0.0
C4310 C 0.88119 0.59488 0.03798 0.0
C4311 C 0.88969 0.58371 0.02313 0.0
C4312 C 0.88248 0.58129 0.00333 0.0
C4313 C 0.89473 0.56874 0.99035 0.0
C4314 C 0.88178 0.54843 0.98059 0.0
C4315 C 0.90493 0.58167 0.97448 0.0
C4316 C 0.90986 0.56448 0.00601 0.0
C4317 C 0.9065 0.57316 0.02483 0.0
C4318 C 0.9181 0.57102 0.04184 0.0
C4319 C 0.93368 0.55987 0.03959 0.0
C4320 C 0.93772 0.55116 0.02046 0.0
C4321 C 0.92563 0.5535 0.00343 0.0
H4322 H 0.22242 0.11218 0.77209 0.0
H4323 H 0.16439 0.12515 0.78718 0.0
H4324 H 0.17614 0.16237 0.78391 0.0
H4325 H 0.2516 0.15851 0.79824 0.0
H4326 H 0.26964 0.16169 0.77941 0.0
H4327 H 0.2566 0.13614 0.78306 0.0
H4328 H 0.24448 0.13017 0.74545 0.0
H4329 H 0.25742 0.15575 0.74171 0.0
H4330 H 0.2311 0.1484 0.73497 0.0
H4331 H 0.19398 0.19818 0.77765 0.0
H4332 H 0.21735 0.22989 0.77117 0.0
H4333 H 0.26371 0.19351 0.7611 0.0
C4334 C 0.21216 0.12283 0.77466 0.0
C4335 C 0.19249 0.11573 0.77995 0.0
C4336 C 0.17961 0.13024 0.7834 0.0
C4337 C 0.18609 0.1514 0.78142 0.0
C4338 C 0.20552 0.15783 0.77603 0.0
C4339 C 0.21841 0.14399 0.77284 0.0
C4340 C 0.23859 0.15489 0.76735 0.0
C4341 C 0.25508 0.15268 0.78295 0.0
C4342 C 0.24316 0.14682 0.74611 0.0
C4343 C 0.23511 0.17704 0.76811 0.0
C4344 C 0.21589 0.17842 0.77292 0.0
C4345 C 0.20912 0.19729 0.77402 0.0
C4346 C 0.22245 0.21523 0.77033 0.0
C4347 C 0.24231 0.21417 0.76589 0.0
C4348 C 0.24862 0.1948 0.76466 0.0
H4349 H 0.32287 0.93392 0.28557 0.0
H4350 H 0.34184 0.93164 0.22441 0.0
H4351 H 0.32112 0.89719 0.21685 0.0
H4352 H 0.32724 0.8822 0.29157 0.0
H4353 H 0.30621 0.87722 0.30689 0.0
H4354 H 0.31995 0.90324 0.30695 0.0
H4355 H 0.28734 0.91595 0.29709 0.0
H4356 H 0.2735 0.8899 0.29692 0.0
H4357 H 0.2724 0.90366 0.27498 0.0
H4358 H 0.29999 0.86284 0.21584 0.0
H4359 H 0.28285 0.82835 0.22246 0.0
H4360 H 0.28027 0.85055 0.28521 0.0
C4361 C 0.32272 0.92626 0.27057 0.0
C4362 C 0.33374 0.93593 0.25551 0.0
C4363 C 0.33301 0.92514 0.23608 0.0
C4364 C 0.32134 0.90542 0.23161 0.0
C4365 C 0.31073 0.89646 0.24676 0.0
C4366 C 0.31151 0.90631 0.26593 0.0
C4367 C 0.30032 0.8922 0.27993 0.0
C4368 C 0.31427 0.88849 0.29736 0.0
C4369 C 0.28232 0.90095 0.28769 0.0
C4370 C 0.2937 0.87269 0.2657 0.0
C4371 C 0.29942 0.87579 0.24654 0.0
C4372 C 0.29537 0.86017 0.23075 0.0
C4373 C 0.28558 0.84062 0.23471 0.0
C4374 C 0.28029 0.83674 0.2544 0.0
C4375 C 0.28416 0.85309 0.27004 0.0
H4376 H 0.49665 0.39013 0.59105 0.0
H4377 H 0.53364 0.35989 0.55126 0.0
H4378 H 0.53016 0.3848 0.52659 0.0
H4379 H 0.46277 0.40285 0.5514 0.0
H4380 H 0.46112 0.42764 0.56445 0.0
H4381 H 0.46504 0.40641 0.57843 0.0
H4382 H 0.49686 0.42918 0.59653 0.0
H4383 H 0.49292 0.45047 0.58274 0.0
H4384 H 0.51627 0.44131 0.58182 0.0
H4385 H 0.52537 0.41435 0.50771 0.0
H4386 H 0.52062 0.4479 0.49633 0.0
H4387 H 0.48569 0.45876 0.54736 0.0
C4388 C 0.50373 0.38856 0.57699 0.0
C4389 C 0.51547 0.37309 0.57309 0.0
C4390 C 0.5248 0.37177 0.55469 0.0
C4391 C 0.52273 0.3857 0.54048 0.0
C4392 C 0.51117 0.40081 0.54482 0.0
C4393 C 0.50183 0.40239 0.56262 0.0
C4394 C 0.4914 0.42098 0.56407 0.0
C4395 C 0.46873 0.41405 0.56462 0.0
C4396 C 0.49987 0.4364 0.58237 0.0
C4397 C 0.4968 0.4299 0.54455 0.0
C4398 C 0.50803 0.41783 0.5336 0.0
C4399 C 0.51626 0.42372 0.51591 0.0
C4400 C 0.51346 0.44273 0.50954 0.0
C4401 C 0.50243 0.45555 0.52074 0.0
C4402 C 0.49356 0.44883 0.53818 0.0
H4403 H 0.39566 0.73836 0.30888 0.0
H4404 H 0.39441 0.78666 0.3573 0.0
H4405 H 0.36229 0.79248 0.3431 0.0
H4406 H 0.37529 0.76266 0.27034 0.0
H4407 H 0.3602 0.73938 0.25773 0.0
H4408 H 0.38266 0.73785 0.27218 0.0
H4409 H 0.36257 0.71139 0.29338 0.0
H4410 H 0.34005 0.7127 0.27886 0.0
H4411 H 0.3413 0.71797 0.30579 0.0
H4412 H 0.33248 0.79571 0.32234 0.0
H4413 H 0.30451 0.79402 0.29749 0.0
H4414 H 0.32286 0.74201 0.26334 0.0
C4415 C 0.38843 0.74988 0.31668 0.0
C4416 C 0.39773 0.76226 0.33406 0.0
C4417 C 0.38784 0.7773 0.34373 0.0
C4418 C 0.3695 0.78064 0.33586 0.0
C4419 C 0.36103 0.76863 0.31845 0.0
C4420 C 0.36994 0.75334 0.30908 0.0
C4421 C 0.35767 0.743 0.29025 0.0
C4422 C 0.36968 0.7459 0.27152 0.0
C4423 C 0.34994 0.71989 0.29219 0.0
C4424 C 0.34076 0.75521 0.29035 0.0
C4425 C 0.3431 0.76992 0.30678 0.0
C4426 C 0.3302 0.78396 0.30965 0.0
C4427 C 0.31434 0.78284 0.29545 0.0
C4428 C 0.31124 0.76756 0.27878 0.0
C4429 C 0.32468 0.7536 0.27616 0.0
H4430 H 0.00436 0.67438 0.05615 0.0
H4431 H 0.06703 0.69099 0.07585 0.0
H4432 H 0.07363 0.65966 0.05612 0.0
H4433 H 0.99987 0.6215 0.06047 0.0
H4434 H 0.98286 0.61326 0.03874 0.0
H4435 H 0.9837 0.63837 0.05217 0.0
H4436 H 0.99052 0.6556 0.01927 0.0
H4437 H 0.98991 0.63045 0.0058 0.0
H4438 H 0.01141 0.65068 0.00524 0.0
H4439 H 0.07279 0.62462 0.03747 0.0
H4440 H 0.06419 0.58811 0.02282 0.0
H4441 H 0.00217 0.5946 0.01503 0.0
C4442 C 0.0195 0.67153 0.05616 0.0
C4443 C 0.03519 0.68524 0.06744 0.0
C4444 C 0.05482 0.68094 0.06704 0.0
C4445 C 0.05872 0.66316 0.05588 0.0
C4446 C 0.04289 0.6499 0.04504 0.0
C4447 C 0.02367 0.65389 0.04507 0.0
C4448 C 0.00904 0.63635 0.03352 0.0
C4449 C 0.99294 0.62681 0.04704 0.0
C4450 C 0.99967 0.64372 0.01485 0.0
C4451 C 0.02291 0.62148 0.02775 0.0
C4452 C 0.04243 0.6297 0.03421 0.0
C4453 C 0.05761 0.61814 0.03202 0.0
C4454 C 0.05258 0.5974 0.02364 0.0
C4455 C 0.03251 0.58843 0.01771 0.0
C4456 C 0.01769 0.60096 0.01918 0.0
H4457 H 0.1072 0.25809 0.84113 0.0
H4458 H 0.07885 0.29866 0.8064 0.0
H4459 H 0.10737 0.30271 0.7848 0.0
H4460 H 0.15722 0.28504 0.8397 0.0
H4461 H 0.16786 0.26179 0.83732 0.0
H4462 H 0.14515 0.26198 0.84995 0.0
H4463 H 0.12744 0.23037 0.82586 0.0
H4464 H 0.1501 0.23009 0.81312 0.0
H4465 H 0.1274 0.23182 0.79915 0.0
H4466 H 0.13914 0.30245 0.76699 0.0
H4467 H 0.17212 0.29845 0.7549 0.0
H4468 H 0.17933 0.25764 0.80089 0.0
C4469 C 0.10684 0.26765 0.82886 0.0
C4470 C 0.09072 0.27806 0.82551 0.0
C4471 C 0.09111 0.29073 0.80947 0.0
C4472 C 0.10718 0.29302 0.79701 0.0
C4473 C 0.12277 0.2825 0.80072 0.0
C4474 C 0.12274 0.27008 0.81627 0.0
C4475 C 0.14143 0.26065 0.8172 0.0
C4476 C 0.15363 0.2678 0.83723 0.0
C4477 C 0.13628 0.23682 0.81362 0.0
C4478 C 0.15204 0.26981 0.79983 0.0
C4479 C 0.141 0.28231 0.79046 0.0
C4480 C 0.14787 0.29264 0.77417 0.0
C4481 C 0.16658 0.29026 0.76738 0.0
C4482 C 0.17818 0.27769 0.77692 0.0
C4483 C 0.17072 0.26726 0.79326 0.0
H4484 H 0.50105 0.65582 0.94483 0.0
H4485 H 0.5399 0.69673 0.99019 0.0
H4486 H 0.53993 0.66751 0.01096 0.0
H4487 H 0.47172 0.6238 0.97881 0.0
H4488 H 0.47048 0.6002 0.96248 0.0
H4489 H 0.47221 0.62471 0.95205 0.0
H4490 H 0.50361 0.61796 0.93402 0.0
H4491 H 0.50195 0.59347 0.94439 0.0
H4492 H 0.52461 0.61249 0.94849 0.0
H4493 H 0.53705 0.63332 0.02595 0.0
H4494 H 0.53255 0.59671 0.03335 0.0
H4495 H 0.49589 0.57825 0.97784 0.0
C4496 C 0.50925 0.65868 0.95931 0.0
C4497 C 0.52037 0.67853 0.96601 0.0
C4498 C 0.53132 0.6816 0.9848 0.0
C4499 C 0.53134 0.66514 0.99672 0.0
C4500 C 0.52039 0.64568 0.98959 0.0
C4501 C 0.50959 0.64238 0.97129 0.0
C4502 C 0.50015 0.61972 0.96646 0.0
C4503 C 0.47728 0.61695 0.96486 0.0
C4504 C 0.50806 0.61037 0.94721 0.0
C4505 C 0.50745 0.61078 0.98482 0.0
C4506 C 0.51897 0.626 0.99808 0.0
C4507 C 0.52792 0.62129 0.01575 0.0
C4508 C 0.52526 0.60043 0.01984 0.0
C4509 C 0.51381 0.58452 0.00626 0.0
C4510 C 0.50463 0.58996 0.98867 0.0
H4511 H 0.09559 0.77265 0.71127 0.0
H4512 H 0.09944 0.75447 0.64801 0.0
H4513 H 0.13256 0.74541 0.65506 0.0
H4514 H 0.14735 0.79497 0.72224 0.0
H4515 H 0.14855 0.78539 0.74652 0.0
H4516 H 0.12534 0.79066 0.73632 0.0
H4517 H 0.10827 0.75294 0.74055 0.0
H4518 H 0.13151 0.74751 0.75056 0.0
H4519 H 0.11844 0.7315 0.72913 0.0
H4520 H 0.16604 0.7407 0.66871 0.0
H4521 H 0.19714 0.73905 0.68847 0.0
H4522 H 0.17012 0.7569 0.74311 0.0
C4523 C 0.10354 0.76685 0.69899 0.0
C4524 C 0.09525 0.76433 0.67912 0.0
C4525 C 0.10576 0.75649 0.66332 0.0
C4526 C 0.12448 0.75129 0.66718 0.0
C4527 C 0.13227 0.75376 0.68696 0.0
C4528 C 0.1221 0.76121 0.70264 0.0
C4529 C 0.13375 0.76215 0.72252 0.0
C4530 C 0.13906 0.78462 0.73248 0.0
C4531 C 0.12231 0.74766 0.73651 0.0
C4532 C 0.1521 0.75427 0.71554 0.0
C4533 C 0.15104 0.7497 0.69496 0.0
C4534 C 0.16691 0.74381 0.68488 0.0
C4535 C 0.18445 0.74285 0.69616 0.0
C4536 C 0.18569 0.7473 0.71723 0.0
C4537 C 0.16923 0.75274 0.72704 0.0
H4538 H 0.04922 0.38413 0.4596 0.0
H4539 H 0.99046 0.36716 0.4288 0.0
H4540 H 0.98141 0.39943 0.44407 0.0
H4541 H 0.03251 0.40568 0.50593 0.0
H4542 H 0.05394 0.42627 0.51044 0.0
H4543 H 0.05614 0.40209 0.49655 0.0
H4544 H 0.06973 0.42208 0.46702 0.0
H4545 H 0.06741 0.44631 0.48077 0.0
H4546 H 0.05529 0.43915 0.45608 0.0
H4547 H 0.97904 0.43402 0.46134 0.0
H4548 H 0.98224 0.46721 0.48281 0.0
H4549 H 0.04131 0.46064 0.50467 0.0
C4550 C 0.03441 0.38713 0.45618 0.0
C4551 C 0.02071 0.37327 0.44265 0.0
C4552 C 0.00146 0.37781 0.43861 0.0
C4553 C 0.9961 0.39604 0.4473 0.0
C4554 C 0.01006 0.40953 0.46022 0.0
C4555 C 0.02872 0.40522 0.46489 0.0
C4556 C 0.04069 0.42217 0.47967 0.0
C4557 C 0.04613 0.41353 0.49931 0.0
C4558 C 0.05939 0.43307 0.47032 0.0
C4559 C 0.02571 0.43649 0.48274 0.0
C4560 C 0.00829 0.42907 0.47106 0.0
C4561 C 0.99253 0.43992 0.4707 0.0
C4562 C 0.9945 0.45875 0.48285 0.0
C4563 C 0.01193 0.46625 0.49543 0.0
C4564 C 0.02775 0.45504 0.49531 0.0
H4565 H 0.39838 0.30433 0.19862 0.0
H4566 H 0.41661 0.24999 0.22077 0.0
H4567 H 0.39029 0.24834 0.24465 0.0
H4568 H 0.38291 0.32696 0.24597 0.0
H4569 H 0.36147 0.33468 0.23429 0.0
H4570 H 0.38332 0.33341 0.22042 0.0
H4571 H 0.36194 0.30833 0.19241 0.0
H4572 H 0.34004 0.30975 0.20606 0.0
H4573 H 0.34667 0.28487 0.1989 0.0
H4574 H 0.36072 0.25056 0.26427 0.0
H4575 H 0.32792 0.25476 0.27625 0.0
H4576 H 0.32764 0.30671 0.24077 0.0
C4577 C 0.39692 0.29208 0.20848 0.0
C4578 C 0.40996 0.27754 0.20794 0.0
C4579 C 0.40736 0.26177 0.2212 0.0
C4580 C 0.39235 0.26062 0.23483 0.0
C4581 C 0.37988 0.27522 0.235 0.0
C4582 C 0.38183 0.29053 0.22206 0.0
C4583 C 0.3653 0.30312 0.22412 0.0
C4584 C 0.37376 0.32589 0.23165 0.0
C4585 C 0.35275 0.3014 0.2042 0.0
C4586 C 0.35354 0.29215 0.23993 0.0
C4587 C 0.36242 0.27632 0.2462 0.0
C4588 C 0.35372 0.26306 0.25968 0.0
C4589 C 0.3351 0.26559 0.26642 0.0
C4590 C 0.32533 0.28117 0.25959 0.0
C4591 C 0.33497 0.29499 0.24664 0.0
H4592 H 0.59121 0.51884 0.39806 0.0
H4593 H 0.55446 0.46881 0.35916 0.0
H4594 H 0.53001 0.46423 0.38509 0.0
H4595 H 0.58077 0.49661 0.44542 0.0
H4596 H 0.58018 0.5214 0.45903 0.0
H4597 H 0.59562 0.51988 0.43802 0.0
H4598 H 0.57819 0.54649 0.42122 0.0
H4599 H 0.56273 0.54807 0.44217 0.0
H4600 H 0.55143 0.54135 0.41709 0.0
H4601 H 0.50855 0.46627 0.41434 0.0
H4602 H 0.49167 0.47492 0.44506 0.0
H4603 H 0.542 0.52384 0.46479 0.0
C4604 C 0.57805 0.50689 0.39499 0.0
C4605 C 0.57488 0.49409 0.37655 0.0
C4606 C 0.55747 0.47855 0.37326 0.0
C4607 C 0.54342 0.47589 0.38787 0.0
C4608 C 0.54695 0.48884 0.40577 0.0
C4609 C 0.56386 0.50399 0.40944 0.0
C4610 C 0.56371 0.51629 0.4297 0.0
C4611 C 0.5811 0.51336 0.44387 0.0
C4612 C 0.56403 0.53942 0.4274 0.0
C4613 C 0.54387 0.50597 0.43659 0.0
C4614 C 0.53451 0.49006 0.42264 0.0
C4615 C 0.51578 0.47861 0.42543 0.0
C4616 C 0.5063 0.48364 0.44288 0.0
C4617 C 0.51554 0.50001 0.45725 0.0
C4618 C 0.53463 0.51117 0.4541 0.0
H4619 H 0.23298 0.81928 0.10252 0.0
H4620 H 0.29329 0.81735 0.08521 0.0
H4621 H 0.2981 0.79597 0.11257 0.0
H4622 H 0.24537 0.82634 0.15462 0.0
H4623 H 0.22253 0.81086 0.16126 0.0
H4624 H 0.22288 0.82383 0.13876 0.0
H4625 H 0.20893 0.78864 0.11794 0.0
H4626 H 0.20874 0.77554 0.14041 0.0
H4627 H 0.22199 0.76721 0.1194 0.0
H4628 H 0.29742 0.77677 0.14287 0.0
H4629 H 0.29223 0.76368 0.17591 0.0
H4630 H 0.23315 0.77949 0.1749 0.0
C4631 C 0.24719 0.81435 0.1044 0.0
C4632 C 0.26262 0.81981 0.09138 0.0
C4633 C 0.28098 0.81293 0.09449 0.0
C4634 C 0.28392 0.80082 0.11009 0.0
C4635 C 0.26843 0.79574 0.12258 0.0
C4636 C 0.25048 0.80241 0.12005 0.0
C4637 C 0.23689 0.79621 0.13659 0.0
C4638 C 0.23162 0.81546 0.14851 0.0
C4639 C 0.21802 0.78099 0.12807 0.0
C4640 C 0.25025 0.78555 0.14911 0.0
C4641 C 0.26822 0.78509 0.14052 0.0
C4642 C 0.28335 0.77686 0.14967 0.0
C4643 C 0.28025 0.76941 0.1684 0.0
C4644 C 0.26227 0.77048 0.17783 0.0
C4645 C 0.24693 0.77823 0.16786 0.0
H4646 H 0.97398 0.5553 0.87138 0.0
H4647 H 0.9142 0.52822 0.88566 0.0
H4648 H 0.927 0.52277 0.91931 0.0
H4649 H 0.99849 0.52107 0.89394 0.0
H4650 H 0.02015 0.53966 0.90385 0.0
H4651 H 0.00624 0.5443 0.88184 0.0
H4652 H 0.00129 0.57978 0.89909 0.0
H4653 H 0.01547 0.5754 0.9211 0.0
H4654 H 0.99065 0.58091 0.92321 0.0
H4655 H 0.94629 0.5153 0.94853 0.0
H4656 H 0.97102 0.50936 0.97406 0.0
H4657 H 0.01857 0.54302 0.94253 0.0
C4658 C 0.96356 0.54882 0.88186 0.0
C4659 C 0.94315 0.54209 0.87602 0.0
C4660 C 0.92993 0.53328 0.88988 0.0
C4661 C 0.93703 0.53022 0.90901 0.0
C4662 C 0.95733 0.53627 0.91407 0.0
C4663 C 0.97042 0.54568 0.90109 0.0
C4664 C 0.99173 0.5494 0.90994 0.0
C4665 C 0.00492 0.53792 0.89659 0.0
C4666 C 1.00029 0.57277 0.91355 0.0
C4667 C 0.98856 0.53992 0.92955 0.0
C4668 C 0.96857 0.53253 0.93157 0.0
C4669 C 0.96193 0.52157 0.94748 0.0
C4670 C 0.97608 0.51832 0.96191 0.0
C4671 C 0.99657 0.52631 0.96054 0.0
C4672 C 0.00293 0.53715 0.9441 0.0
H4673 H 0.28074 0.23014 0.60733 0.0
H4674 H 0.22024 0.19582 0.59557 0.0
H4675 H 0.21228 0.20718 0.62977 0.0
H4676 H 0.28679 0.21793 0.65785 0.0
H4677 H 0.30101 0.24308 0.66704 0.0
H4678 H 0.30179 0.23324 0.64119 0.0
H4679 H 0.29072 0.26632 0.62988 0.0
H4680 H 0.28986 0.27623 0.65573 0.0
H4681 H 0.26814 0.27362 0.63877 0.0
H4682 H 0.21088 0.22137 0.66551 0.0
H4683 H 0.21649 0.23677 0.70067 0.0
H4684 H 0.27808 0.26123 0.68992 0.0
C4685 C 0.26582 0.22501 0.61193 0.0
C4686 C 0.25107 0.21226 0.59853 0.0
C4687 C 0.23171 0.20598 0.60525 0.0
C4688 C 0.22704 0.21225 0.62475 0.0
C4689 C 0.24187 0.2248 0.6375 0.0
C4690 C 0.26088 0.23111 0.63142 0.0
C4691 C 0.27416 0.24419 0.64834 0.0
C4692 C 0.29199 0.23399 0.65394 0.0
C4693 C 0.28113 0.26641 0.64285 0.0
C4694 C 0.25973 0.24387 0.66495 0.0
C4695 C 0.24114 0.23276 0.65829 0.0
C4696 C 0.22537 0.23016 0.67089 0.0
C4697 C 0.22871 0.23901 0.69086 0.0
C4698 C 0.24772 0.25024 0.69816 0.0
C4699 C 0.26336 0.25275 0.68489 0.0
H4700 H 0.56226 0.52068 0.18942 0.0
H4701 H 0.61511 0.49651 0.17261 0.0
H4702 H 0.60702 0.50024 0.1372 0.0
H4703 H 0.53055 0.49584 0.14628 0.0
H4704 H 0.518 0.51749 0.14379 0.0
H4705 H 0.52788 0.51313 0.16806 0.0
H4706 H 0.5484 0.55052 0.17217 0.0
H4707 H 0.53868 0.55494 0.14784 0.0
H4708 H 0.56524 0.55875 0.15329 0.0
H4709 H 0.5941 0.50695 0.10401 0.0
H4710 H 0.57554 0.51404 0.07395 0.0
H4711 H 0.53031 0.53352 0.11105 0.0
C4712 C 0.57211 0.5162 0.17826 0.0
C4713 C 0.58925 0.5081 0.18383 0.0
C4714 C 0.60171 0.50235 0.16875 0.0
C4715 C 0.59735 0.5046 0.14858 0.0
C4716 C 0.58045 0.51264 0.14362 0.0
C4717 C 0.5679 0.51823 0.15791 0.0
C4718 C 0.55049 0.52611 0.14824 0.0
C4719 C 0.53055 0.51232 0.1518 0.0
C4720 C 0.55072 0.54894 0.15584 0.0
C4721 C 0.55522 0.52389 0.1263 0.0
C4722 C 0.57271 0.51629 0.12413 0.0
C4723 C 0.58036 0.51287 0.10548 0.0
C4724 C 0.56971 0.517 0.08849 0.0
C4725 C 0.55149 0.52432 0.09016 0.0
C4726 C 0.54423 0.528 0.10936 0.0
H4727 H 0.22502 0.83094 0.89438 0.0
H4728 H 0.28359 0.82404 0.91725 0.0
H4729 H 0.28789 0.80297 0.88571 0.0
H4730 H 0.21063 0.77993 0.86703 0.0
H4731 H 0.19844 0.78941 0.84633 0.0
H4732 H 0.19964 0.80285 0.87112 0.0
H4733 H 0.21633 0.837 0.85755 0.0
H4734 H 0.21519 0.82365 0.83274 0.0
H4735 H 0.23875 0.83739 0.84423 0.0
H4736 H 0.28567 0.78268 0.85134 0.0
H4737 H 0.27763 0.7664 0.8164 0.0
H4738 H 0.22149 0.7886 0.81579 0.0
C4739 C 0.2386 0.82473 0.89279 0.0
C4740 C 0.25391 0.82886 0.90817 0.0
C4741 C 0.2717 0.82093 0.90552 0.0
C4742 C 0.27424 0.80894 0.88774 0.0
C4743 C 0.25892 0.80525 0.87271 0.0
C4744 C 0.24151 0.81304 0.87501 0.0
C4745 C 0.22778 0.8078 0.85623 0.0
C4746 C 0.20795 0.79419 0.86044 0.0
C4747 C 0.22432 0.82764 0.84716 0.0
C4748 C 0.2401 0.79576 0.84307 0.0
C4749 C 0.25797 0.79431 0.85282 0.0
C4750 C 0.27176 0.78383 0.84353 0.0
C4751 C 0.26717 0.77478 0.82369 0.0
C4752 C 0.24915 0.77659 0.81337 0.0
C4753 C 0.23543 0.78703 0.82331 0.0
H4754 H 0.97105 0.55007 0.68144 0.0
H4755 H 0.96297 0.48543 0.6929 0.0
H4756 H 0.98076 0.47746 0.66261 0.0
H4757 H 0.95988 0.54078 0.63101 0.0
H4758 H 0.97755 0.56218 0.62375 0.0
H4759 H 0.96802 0.56371 0.64829 0.0
H4760 H 0.00402 0.57086 0.66459 0.0
H4761 H 0.01371 0.56951 0.64001 0.0
H4762 H 0.0206 0.55308 0.65821 0.0
H4763 H 0.9951 0.47568 0.62931 0.0
H4764 H 0.00418 0.47987 0.59451 0.0
H4765 H 0.00199 0.54556 0.60408 0.0
C4766 C 0.97372 0.53443 0.6779 0.0
C4767 C 0.96601 0.51837 0.68947 0.0
C4768 C 0.969 0.49789 0.68416 0.0
C4769 C 0.97914 0.49328 0.66711 0.0
C4770 C 0.98611 0.50936 0.65562 0.0
C4771 C 0.98358 0.52955 0.66079 0.0
C4772 C 0.99018 0.5434 0.64461 0.0
C4773 C 0.97287 0.55307 0.63643 0.0
C4774 C 0.0082 0.5602 0.65232 0.0
C4775 C 0.996 0.52766 0.62917 0.0
C4776 C 0.99397 0.50823 0.63601 0.0
C4777 C 0.9971 0.49087 0.6239 0.0
C4778 C 0.00218 0.49339 0.60417 0.0
C4779 C 0.0038 0.51303 0.59678 0.0
C4780 C 0.00104 0.53043 0.60952 0.0
H4781 H 0.25587 0.1978 0.3821 0.0
H4782 H 0.2904 0.24681 0.42384 0.0
H4783 H 0.29417 0.27005 0.397 0.0
H4784 H 0.28432 0.20992 0.33877 0.0
H4785 H 0.26295 0.20436 0.32109 0.0
H4786 H 0.26287 0.19106 0.34342 0.0
H4787 H 0.23031 0.20347 0.35315 0.0
H4788 H 0.23025 0.21672 0.3308 0.0
H4789 H 0.22943 0.23082 0.35502 0.0
H4790 H 0.29476 0.28799 0.3663 0.0
H4791 H 0.29124 0.30046 0.33316 0.0
H4792 H 0.25551 0.24084 0.31028 0.0
C4793 C 0.26414 0.21345 0.38557 0.0
C4794 C 0.27303 0.22038 0.40511 0.0
C4795 C 0.2838 0.24097 0.40898 0.0
C4796 C 0.28594 0.25435 0.39384 0.0
C4797 C 0.27723 0.24702 0.37479 0.0
C4798 C 0.26651 0.22711 0.37051 0.0
C4799 C 0.25872 0.22337 0.3486 0.0
C4800 C 0.26775 0.20615 0.33731 0.0
C4801 C 0.23581 0.2183 0.3468 0.0
C4802 C 0.26653 0.24442 0.34142 0.0
C4803 C 0.2773 0.25766 0.35684 0.0
C4804 C 0.28631 0.27781 0.35411 0.0
C4805 C 0.28422 0.28473 0.33517 0.0
C4806 C 0.27303 0.27169 0.3191 0.0
C4807 C 0.26409 0.25119 0.32228 0.0
H4808 H 0.35246 0.57504 0.49992 0.0
H4809 H 0.37608 0.62109 0.55003 0.0
H4810 H 0.40327 0.60246 0.55608 0.0
H4811 H 0.36711 0.53009 0.51857 0.0
H4812 H 0.37514 0.52031 0.4949 0.0
H4813 H 0.35571 0.53564 0.49541 0.0
H4814 H 0.37585 0.56146 0.47363 0.0
H4815 H 0.3952 0.54605 0.47283 0.0
H4816 H 0.40116 0.57326 0.48173 0.0
H4817 H 0.42771 0.5794 0.55742 0.0
H4818 H 0.45196 0.55672 0.55017 0.0
H4819 H 0.41621 0.52798 0.49652 0.0
C4820 C 0.36332 0.58146 0.5121 0.0
C4821 C 0.36133 0.59936 0.5249 0.0
C4822 C 0.37627 0.60694 0.54054 0.0
C4823 C 0.39205 0.59654 0.54405 0.0
C4824 C 0.39323 0.57889 0.53145 0.0
C4825 C 0.37966 0.57169 0.51544 0.0
C4826 C 0.38575 0.55356 0.50301 0.0
C4827 C 0.36998 0.53372 0.50298 0.0
C4828 C 0.38973 0.55891 0.48153 0.0
C4829 C 0.40486 0.55179 0.51463 0.0
C4830 C 0.40852 0.56633 0.53123 0.0
C4831 C 0.4251 0.56801 0.54443 0.0
C4832 C 0.43873 0.55495 0.54023 0.0
C4833 C 0.43594 0.5406 0.52284 0.0
C4834 C 0.41861 0.53873 0.50999 0.0
H4835 H 0.86936 0.96397 0.55204 0.0
H4836 H 0.85451 0.95422 0.48783 0.0
H4837 H 0.88806 0.9726 0.48177 0.0
H4838 H 0.89943 0.01498 0.55289 0.0
H4839 H 0.91744 0.01057 0.57172 0.0
H4840 H 0.89202 0.99707 0.57115 0.0
H4841 H 0.90417 0.9618 0.56898 0.0
H4842 H 0.92963 0.9752 0.5696 0.0
H4843 H 0.91994 0.95564 0.54928 0.0
H4844 H 0.92348 0.99185 0.48252 0.0
H4845 H 0.95828 0.01006 0.49034 0.0
H4846 H 0.95056 0.00637 0.55374 0.0
C4847 C 0.87316 0.9656 0.53669 0.0
C4848 C 0.85909 0.95777 0.52044 0.0
C4849 C 0.86476 0.96043 0.5006 0.0
C4850 C 0.88387 0.97075 0.49697 0.0
C4851 C 0.89729 0.97831 0.5133 0.0
C4852 C 0.89222 0.97584 0.53277 0.0
C4853 C 0.90956 0.9852 0.54763 0.0
C4854 C 0.90429 0.00302 0.56167 0.0
C4855 C 0.91622 0.96846 0.55958 0.0
C4856 C 0.92516 0.99325 0.53347 0.0
C4857 C 0.91777 0.98915 0.51372 0.0
C4858 C 0.92944 0.99504 0.49793 0.0
C4859 C 0.94922 0.00522 0.50246 0.0
C4860 C 0.95715 0.00931 0.52254 0.0
C4861 C 0.94487 0.00341 0.53822 0.0
H4862 H 0.83177 0.14415 0.27037 0.0
H4863 H 0.79866 0.11003 0.21721 0.0
H4864 H 0.77743 0.13658 0.21652 0.0
H4865 H 0.79051 0.16286 0.29322 0.0
H4866 H 0.80492 0.18803 0.302 0.0
H4867 H 0.81692 0.16572 0.29917 0.0
H4868 H 0.84182 0.1845 0.27582 0.0
H4869 H 0.82999 0.2069 0.2787 0.0
H4870 H 0.83242 0.19465 0.25399 0.0
H4871 H 0.76011 0.16717 0.221 0.0
H4872 H 0.74928 0.20062 0.22923 0.0
H4873 H 0.79457 0.21583 0.27847 0.0
C4874 C 0.82015 0.14224 0.25849 0.0
C4875 C 0.81685 0.12471 0.24398 0.0
C4876 C 0.80128 0.12292 0.22883 0.0
C4877 C 0.78917 0.13803 0.22821 0.0
C4878 C 0.79282 0.155 0.24275 0.0
C4879 C 0.80801 0.15729 0.25752 0.0
C4880 C 0.80928 0.17746 0.27086 0.0
C4881 C 0.80516 0.17326 0.2926 0.0
C4882 C 0.82958 0.19172 0.26976 0.0
C4883 C 0.79253 0.18622 0.26114 0.0
C4884 C 0.7831 0.1729 0.24508 0.0
C4885 C 0.76734 0.1777 0.23359 0.0
C4886 C 0.76125 0.19674 0.23845 0.0
C4887 C 0.771 0.21091 0.25454 0.0
C4888 C 0.78672 0.20537 0.26612 0.0
H4889 H 0.6625 0.08338 0.98911 0.0
H4890 H 0.68495 0.07112 0.04746 0.0
H4891 H 0.65145 0.05251 0.05389 0.0
H4892 H 0.61641 0.09357 0.00319 0.0
H4893 H 0.60237 0.08085 0.98071 0.0
H4894 H 0.62844 0.09148 0.97987 0.0
H4895 H 0.63507 0.0556 0.96529 0.0
H4896 H 0.60894 0.04488 0.96597 0.0
H4897 H 0.62734 0.03313 0.97848 0.0
H4898 H 0.61507 0.0389 0.05548 0.0
H4899 H 0.57846 0.0288 0.05121 0.0
H4900 H 0.57983 0.0486 0.99119 0.0
C4901 C 0.66036 0.07646 0.00308 0.0
C4902 C 0.67621 0.07854 0.01778 0.0
C4903 C 0.67299 0.0694 0.03593 0.0
C4904 C 0.65404 0.05889 0.03973 0.0
C4905 C 0.63861 0.05741 0.02507 0.0
C4906 C 0.64161 0.06565 0.00698 0.0
C4907 C 0.62237 0.06244 0.99404 0.0
C4908 C 0.61709 0.08333 0.98918 0.0
C4909 C 0.6235 0.04816 0.97481 0.0
C4910 C 0.60796 0.05182 0.008 0.0
C4911 C 0.61765 0.04899 0.02578 0.0
C4912 C 0.60734 0.04069 0.0415 0.0
C4913 C 0.58655 0.03511 0.03897 0.0
C4914 C 0.57633 0.03778 0.02082 0.0
C4915 C 0.58726 0.04606 0.00511 0.0
H4916 H 0.19856 0.42651 0.27545 0.0
H4917 H 0.1805 0.41494 0.21185 0.0
H4918 H 0.20595 0.39311 0.207 0.0
H4919 H 0.25186 0.42489 0.27174 0.0
H4920 H 0.25297 0.41092 0.29354 0.0
H4921 H 0.23566 0.42854 0.29177 0.0
H4922 H 0.20627 0.39904 0.29709 0.0
H4923 H 0.22352 0.38153 0.29925 0.0
H4924 H 0.2027 0.37505 0.28092 0.0
H4925 H 0.23078 0.3705 0.20914 0.0
H4926 H 0.24984 0.34415 0.21888 0.0
H4927 H 0.25055 0.36823 0.28138 0.0
C4928 C 0.1999 0.41941 0.26048 0.0
C4929 C 0.18767 0.42277 0.24398 0.0
C4930 C 0.19003 0.41316 0.22465 0.0
C4931 C 0.20448 0.40073 0.22172 0.0
C4932 C 0.21635 0.39792 0.23827 0.0
C4933 C 0.21401 0.40667 0.25732 0.0
C4934 C 0.22691 0.39904 0.27291 0.0
C4935 C 0.2428 0.41692 0.28308 0.0
C4936 C 0.21408 0.388 0.28844 0.0
C4937 C 0.23626 0.38397 0.25967 0.0
C4938 C 0.23039 0.38409 0.23967 0.0
C4939 C 0.23571 0.37042 0.22468 0.0
C4940 C 0.24653 0.35554 0.23036 0.0
C4941 C 0.25162 0.35436 0.25084 0.0
C4942 C 0.24715 0.36921 0.26561 0.0
H4943 H 0.16115 0.44643 0.99477 0.0
H4944 H 0.17595 0.45768 0.05893 0.0
H4945 H 0.14826 0.47689 0.06284 0.0
H4946 H 0.14726 0.49638 0.98884 0.0
H4947 H 0.12695 0.48602 0.97058 0.0
H4948 H 0.14812 0.47321 0.97254 0.0
H4949 H 0.12468 0.43887 0.97785 0.0
H4950 H 0.10345 0.45155 0.97584 0.0
H4951 H 0.10773 0.43856 0.99773 0.0
H4952 H 0.11869 0.49394 0.0603 0.0
H4953 H 0.08886 0.50827 0.05136 0.0
H4954 H 0.09273 0.48689 0.98872 0.0
C4955 C 0.15851 0.45289 0.00964 0.0
C4956 C 0.17089 0.45066 0.02654 0.0
C4957 C 0.16696 0.45947 0.04571 0.0
C4958 C 0.15118 0.47033 0.04811 0.0
C4959 C 0.13938 0.47235 0.0312 0.0
C4960 C 0.14281 0.46394 0.01231 0.0
C4961 C 0.12773 0.46842 0.9967 0.0
C4962 C 0.13814 0.48181 0.98125 0.0
C4963 C 0.11515 0.44814 0.98643 0.0
C4964 C 0.11525 0.48052 0.00982 0.0
C4965 C 0.1223 0.48254 0.02967 0.0
C4966 C 0.1131 0.49258 0.04479 0.0
C4967 C 0.09615 0.50068 0.03955 0.0
C4968 C 0.08857 0.49883 0.01935 0.0
C4969 C 0.09835 0.48873 0.00426 0.0
H4970 H 0.83575 0.91916 0.26254 0.0
H4971 H 0.81106 0.93044 0.20461 0.0
H4972 H 0.79199 0.89479 0.20031 0.0
H4973 H 0.83864 0.86415 0.24924 0.0
H4974 H 0.83127 0.85657 0.27336 0.0
H4975 H 0.84467 0.88243 0.27131 0.0
H4976 H 0.81649 0.89795 0.28834 0.0
H4977 H 0.80308 0.87217 0.29046 0.0
H4978 H 0.79119 0.89025 0.27788 0.0
H4979 H 0.77362 0.85942 0.20306 0.0
H4980 H 0.75629 0.82614 0.21306 0.0
H4981 H 0.79218 0.83674 0.26931 0.0
C4982 C 0.8264 0.91412 0.24891 0.0
C4983 C 0.82514 0.92768 0.23381 0.0
C4984 C 0.81272 0.92034 0.2162 0.0
C4985 C 0.80173 0.90009 0.21364 0.0
C4986 C 0.80327 0.88723 0.22878 0.0
C4987 C 0.81526 0.89386 0.24609 0.0
C4988 C 0.81328 0.87712 0.26046 0.0
C4989 C 0.83315 0.86963 0.26378 0.0
C4990 C 0.80554 0.88484 0.28047 0.0
C4991 C 0.79786 0.86031 0.24872 0.0
C4992 C 0.79251 0.86649 0.2304 0.0
C4993 C 0.77782 0.8543 0.21725 0.0
C4994 C 0.76804 0.83546 0.22309 0.0
C4995 C 0.77297 0.8289 0.24188 0.0
C4996 C 0.78835 0.84129 0.25473 0.0
H4997 H 0.69845 0.11812 0.73232 0.0
H4998 H 0.71757 0.10194 0.79039 0.0
H4999 H 0.74174 0.13496 0.79571 0.0
H5000 H 0.74822 0.14677 0.71989 0.0
H5001 H 0.73695 0.16579 0.70811 0.0
H5002 H 0.72369 0.13944 0.70746 0.0
H5003 H 0.69381 0.15281 0.72338 0.0
H5004 H 0.70692 0.17909 0.72405 0.0
H5005 H 0.69794 0.1692 0.7468 0.0
H5006 H 0.75948 0.17163 0.79704 0.0
H5007 H 0.7699 0.20908 0.79403 0.0
H5008 H 0.73978 0.20099 0.73474 0.0
C5009 C 0.708 0.1214 0.74598 0.0
C5010 C 0.70624 0.10757 0.76094 0.0
C5011 C 0.71892 0.11228 0.77865 0.0
C5012 C 0.73267 0.13096 0.78179 0.0
C5013 C 0.73372 0.14452 0.76692 0.0
C5014 C 0.72186 0.13987 0.74927 0.0
C5015 C 0.72452 0.15783 0.73651 0.0
C5016 C 0.73391 0.15211 0.71683 0.0
C5017 C 0.70462 0.16516 0.73247 0.0
C5018 C 0.73891 0.17372 0.75022 0.0
C5019 C 0.74429 0.16565 0.76755 0.0
C5020 C 0.75577 0.17801 0.78334 0.0
C5021 C 0.76154 0.19926 0.78154 0.0
C5022 C 0.75576 0.20785 0.76409 0.0
C5023 C 0.74479 0.19477 0.74806 0.0
loop_
_geom_bond_atom_site_label_1
_geom_bond_atom_site_label_2
_geom_bond_distance
_geom_bond_site_symmetry_2
_ccdc_geom_bond_type
Li0 N17 1.990 . S
Li0 O60 1.956 1_655 S
Li0 O61 1.970 . S
Li0 O62 1.961 1_655 S
Li1 N25 1.990 . S
Li1 O60 1.970 . S
Li1 O61 1.956 1_455 S
Li1 O63 1.961 . S
Li2 N47 1.990 . S
Li2 O60 1.961 . S
Li2 O62 1.956 . S
Li2 O63 1.970 . S
Li3 N53 1.990 . S
Li3 O61 1.961 1_455 S
Li3 O62 1.970 . S
Li3 O63 1.956 . S
C4 C6 1.348 . S
C4 C7 1.356 . S
C4 O60 1.325 . S
N5 C8 1.314 . S
N5 C9 1.279 . S
C6 C4 1.348 . S
C6 C8 1.353 . S
C6 H64 0.929 . S
C7 C4 1.356 . S
C7 C9 1.358 . S
C7 H65 0.930 . S
C8 N5 1.314 . S
C8 C6 1.353 . S
C8 H66 0.930 . S
C9 N5 1.279 . S
C9 C7 1.358 . S
C9 H67 0.930 . S
C10 C13 1.348 . S
C10 C14 1.356 . S
C10 O61 1.325 . S
C11 N12 1.279 . S
C11 C14 1.358 . S
C11 H68 0.930 . S
N12 C11 1.279 . S
N12 C15 1.314 . S
C13 C10 1.348 . S
C13 C15 1.353 . S
C13 H69 0.929 . S
C14 C10 1.356 . S
C14 C11 1.358 . S
C14 H70 0.930 . S
C15 N12 1.314 . S
C15 C13 1.353 . S
C15 H71 0.930 . S
C16 N17 1.314 . S
C16 C21 1.353 . S
C16 H22 0.930 . S
N17 Li0 1.990 . S
N17 C16 1.314 . S
N17 C19 1.279 . S
C18 C19 1.358 . S
C18 C20 1.356 . S
C18 H72 0.930 . S
C19 N17 1.279 . S
C19 C18 1.358 . S
C19 H23 0.930 . S
C20 C18 1.356 . S
C20 C21 1.348 . S
C21 C16 1.353 . S
C21 C20 1.348 . S
C21 H73 0.929 . S
H22 C16 0.930 . S
H23 C19 0.930 . S
C24 N25 1.314 . S
C24 C26 1.353 . S
C24 H30 0.930 . S
N25 Li1 1.990 . S
N25 C24 1.314 . S
N25 C28 1.279 . S
C26 C24 1.353 . S
C26 C29 1.348 . S
C26 H74 0.929 . S
C27 C28 1.358 . S
C27 C29 1.356 . S
C27 H75 0.930 1_455 S
C28 N25 1.279 . S
C28 C27 1.358 . S
C28 H31 0.930 1_455 S
C29 C26 1.348 . S
C29 C27 1.356 . S
H30 C24 0.930 . S
H31 C28 0.930 1_655 S
C32 C34 1.348 . S
C32 C35 1.356 . S
C32 O62 1.325 . S
N33 C36 1.314 . S
N33 C37 1.279 . S
C34 C32 1.348 . S
C34 C36 1.353 . S
C34 H76 0.929 . S
C35 C32 1.356 . S
C35 C37 1.358 . S
C35 H77 0.930 . S
C36 N33 1.314 . S
C36 C34 1.353 . S
C36 H78 0.930 . S
C37 N33 1.279 . S
C37 C35 1.358 . S
C37 H79 0.930 . S
C38 C39 1.348 . S
C38 C40 1.356 . S
C38 O63 1.325 . S
C39 C38 1.348 . S
C39 C41 1.353 . S
C39 H80 0.929 . S
C40 C38 1.356 . S
C40 C42 1.358 . S
C40 H81 0.930 . S
C41 C39 1.353 . S
C41 N43 1.314 . S
C41 H82 0.930 . S
C42 C40 1.358 . S
C42 N43 1.279 . S
C42 H83 0.930 . S
N43 C41 1.314 . S
N43 C42 1.279 . S
C44 C46 1.353 . S
C44 N47 1.314 . S
C44 H50 0.930 . S
C45 N47 1.279 . S
C45 C48 1.358 . S
C45 H51 0.930 . S
C46 C44 1.353 . S
C46 C49 1.348 . S
C46 H84 0.929 . S
N47 Li2 1.990 . S
N47 C44 1.314 . S
N47 C45 1.279 . S
C48 C45 1.358 . S
C48 C49 1.356 . S
C48 H85 0.930 . S
C49 C46 1.348 . S
C49 C48 1.356 . S
H50 C44 0.930 . S
H51 C45 0.930 . S
C52 N53 1.314 1_655 S
C52 C54 1.353 . S
C52 H58 0.930 . S
N53 Li3 1.990 . S
N53 C52 1.314 1_455 S
N53 C56 1.279 . S
C54 C52 1.353 . S
C54 C57 1.348 1_655 S
C54 H86 0.929 . S
C55 C56 1.358 . S
C55 C57 1.356 . S
C55 H87 0.930 . S
C56 N53 1.279 . S
C56 C55 1.358 . S
C56 H59 0.930 . S
C57 C54 1.348 1_455 S
C57 C55 1.356 . S
H58 C52 0.930 . S
H59 C56 0.930 . S
O60 Li0 1.956 1_455 S
O60 Li1 1.970 . S
O60 Li2 1.961 . S
O60 C4 1.325 . S
O61 Li0 1.970 . S
O61 Li1 1.956 1_655 S
O61 Li3 1.961 1_655 S
O61 C10 1.325 . S
O62 Li0 1.961 1_455 S
O62 Li2 1.956 . S
O62 Li3 1.970 . S
O62 C32 1.325 . S
O63 Li1 1.961 . S
O63 Li2 1.970 . S
O63 Li3 1.956 . S
O63 C38 1.325 . S
H64 C6 0.929 . S
H65 C7 0.930 . S
H66 C8 0.930 . S
H67 C9 0.930 . S
H68 C11 0.930 . S
H69 C13 0.929 . S
H70 C14 0.930 . S
H71 C15 0.930 . S
H72 C18 0.930 . S
H73 C21 0.929 . S
H74 C26 0.929 . S
H75 C27 0.930 1_655 S
H76 C34 0.929 . S
H77 C35 0.930 . S
H78 C36 0.930 . S
H79 C37 0.930 . S
H80 C39 0.929 . S
H81 C40 0.930 . S
H82 C41 0.930 . S
H83 C42 0.930 . S
H84 C46 0.929 . S
H85 C48 0.930 . S
H86 C54 0.929 . S
H87 C55 0.930 . S
Li88 N105 1.990 . S
Li88 O148 1.956 . S
Li88 O149 1.970 . S
Li88 O150 1.961 1_455 S
Li89 N113 1.990 . S
Li89 O148 1.970 . S
Li89 O149 1.956 . S
Li89 O151 1.961 . S
Li90 N135 1.990 . S
Li90 O148 1.961 . S
Li90 O150 1.956 1_455 S
Li90 O151 1.970 . S
Li91 N141 1.990 . S
Li91 O149 1.961 1_655 S
Li91 O150 1.970 . S
Li91 O151 1.956 1_655 S
C92 C94 1.348 . S
C92 C95 1.356 . S
C92 O148 1.325 . S
N93 C96 1.314 . S
N93 C97 1.279 . S
C94 C92 1.348 . S
C94 C96 1.353 . S
C94 H152 0.929 . S
C95 C92 1.356 . S
C95 C97 1.358 . S
C95 H153 0.930 . S
C96 N93 1.314 . S
C96 C94 1.353 . S
C96 H154 0.930 . S
C97 N93 1.279 . S
C97 C95 1.358 . S
C97 H155 0.930 . S
C98 C101 1.348 . S
C98 C102 1.356 . S
C98 O149 1.325 . S
C99 N100 1.279 . S
C99 C102 1.358 . S
C99 H156 0.930 . S
N100 C99 1.279 . S
N100 C103 1.314 . S
C101 C98 1.348 . S
C101 C103 1.353 . S
C101 H157 0.929 . S
C102 C98 1.356 . S
C102 C99 1.358 . S
C102 H158 0.930 . S
C103 N100 1.314 . S
C103 C101 1.353 . S
C103 H159 0.930 . S
C104 N105 1.314 1_655 S
C104 C109 1.353 . S
C104 H110 0.930 . S
N105 Li88 1.990 . S
N105 C104 1.314 1_455 S
N105 C107 1.279 . S
C106 C107 1.358 . S
C106 C108 1.356 . S
C106 H160 0.930 . S
C107 N105 1.279 . S
C107 C106 1.358 . S
C107 H111 0.930 . S
C108 C106 1.356 . S
C108 C109 1.348 1_455 S
C109 C104 1.353 . S
C109 C108 1.348 1_655 S
C109 H161 0.929 . S
H110 C104 0.930 . S
H111 C107 0.930 . S
C112 N113 1.314 . S
C112 C114 1.353 . S
C112 H118 0.930 . S
N113 Li89 1.990 . S
N113 C112 1.314 . S
N113 C116 1.279 . S
C114 C112 1.353 . S
C114 C117 1.348 . S
C114 H162 0.929 . S
C115 C116 1.358 . S
C115 C117 1.356 . S
C115 H163 0.930 . S
C116 N113 1.279 . S
C116 C115 1.358 . S
C116 H119 0.930 . S
C117 C114 1.348 . S
C117 C115 1.356 . S
H118 C112 0.930 . S
H119 C116 0.930 . S
C120 C122 1.348 . S
C120 C123 1.356 . S
C120 O150 1.325 . S
N121 C124 1.314 . S
N121 C125 1.279 . S
C122 C120 1.348 . S
C122 C124 1.353 . S
C122 H164 0.929 . S
C123 C120 1.356 . S
C123 C125 1.358 . S
C123 H165 0.930 . S
C124 N121 1.314 . S
C124 C122 1.353 . S
C124 H166 0.930 . S
C125 N121 1.279 . S
C125 C123 1.358 . S
C125 H167 0.930 . S
C126 C127 1.348 1_455 S
C126 C128 1.356 . S
C126 O151 1.325 . S
C127 C126 1.348 1_655 S
C127 C129 1.353 . S
C127 H168 0.929 . S
C128 C126 1.356 . S
C128 C130 1.358 . S
C128 H169 0.930 . S
C129 C127 1.353 . S
C129 N131 1.314 1_655 S
C129 H170 0.930 . S
C130 C128 1.358 . S
C130 N131 1.279 . S
C130 H171 0.930 . S
N131 C129 1.314 1_455 S
N131 C130 1.279 . S
C132 C134 1.353 . S
C132 N135 1.314 . S
C132 H138 0.930 . S
C133 N135 1.279 1_655 S
C133 C136 1.358 . S
C133 H139 0.930 . S
C134 C132 1.353 . S
C134 C137 1.348 1_455 S
C134 H172 0.929 . S
N135 Li90 1.990 . S
N135 C132 1.314 . S
N135 C133 1.279 1_455 S
C136 C133 1.358 . S
C136 C137 1.356 . S
C136 H173 0.930 . S
C137 C134 1.348 1_655 S
C137 C136 1.356 . S
H138 C132 0.930 . S
H139 C133 0.930 . S
C140 N141 1.314 . S
C140 C142 1.353 . S
C140 H146 0.930 . S
N141 Li91 1.990 . S
N141 C140 1.314 . S
N141 C144 1.279 . S
C142 C140 1.353 . S
C142 C145 1.348 . S
C142 H174 0.929 . S
C143 C144 1.358 . S
C143 C145 1.356 . S
C143 H175 0.930 . S
C144 N141 1.279 . S
C144 C143 1.358 . S
C144 H147 0.930 . S
C145 C142 1.348 . S
C145 C143 1.356 . S
H146 C140 0.930 . S
H147 C144 0.930 . S
O148 Li88 1.956 . S
O148 Li89 1.970 . S
O148 Li90 1.961 . S
O148 C92 1.325 . S
O149 Li88 1.970 . S
O149 Li89 1.956 . S
O149 Li91 1.961 1_455 S
O149 C98 1.325 . S
O150 Li88 1.961 1_655 S
O150 Li90 1.956 1_655 S
O150 Li91 1.970 . S
O150 C120 1.325 . S
O151 Li89 1.961 . S
O151 Li90 1.970 . S
O151 Li91 1.956 1_455 S
O151 C126 1.325 . S
H152 C94 0.929 . S
H153 C95 0.930 . S
H154 C96 0.930 . S
H155 C97 0.930 . S
H156 C99 0.930 . S
H157 C101 0.929 . S
H158 C102 0.930 . S
H159 C103 0.930 . S
H160 C106 0.930 . S
H161 C109 0.929 . S
H162 C114 0.929 . S
H163 C115 0.930 . S
H164 C122 0.929 . S
H165 C123 0.930 . S
H166 C124 0.930 . S
H167 C125 0.930 . S
H168 C127 0.929 . S
H169 C128 0.930 . S
H170 C129 0.930 . S
H171 C130 0.930 . S
H172 C134 0.929 . S
H173 C136 0.930 . S
H174 C142 0.929 . S
H175 C143 0.930 . S
Li176 N193 1.990 . S
Li176 O236 1.956 . S
Li176 O237 1.970 . S
Li176 O238 1.961 . S
Li177 N201 1.990 . S
Li177 O236 1.970 . S
Li177 O237 1.956 . S
Li177 O239 1.961 . S
Li178 N223 1.990 . S
Li178 O236 1.961 . S
Li178 O238 1.956 . S
Li178 O239 1.970 . S
Li179 N229 1.990 . S
Li179 O237 1.961 . S
Li179 O238 1.970 . S
Li179 O239 1.956 . S
C180 C182 1.348 . S
C180 C183 1.356 . S
C180 O236 1.325 . S
N181 C184 1.314 . S
N181 C185 1.279 . S
C182 C180 1.348 . S
C182 C184 1.353 . S
C182 H240 0.929 . S
C183 C180 1.356 . S
C183 C185 1.358 . S
C183 H241 0.930 . S
C184 N181 1.314 . S
C184 C182 1.353 . S
C184 H242 0.930 . S
C185 N181 1.279 . S
C185 C183 1.358 . S
C185 H243 0.930 . S
C186 C189 1.348 . S
C186 C190 1.356 . S
C186 O237 1.325 . S
C187 N188 1.279 . S
C187 C190 1.358 . S
C187 H244 0.930 . S
N188 C187 1.279 . S
N188 C191 1.314 . S
C189 C186 1.348 . S
C189 C191 1.353 . S
C189 H245 0.929 . S
C190 C186 1.356 . S
C190 C187 1.358 . S
C190 H246 0.930 . S
C191 N188 1.314 . S
C191 C189 1.353 . S
C191 H247 0.930 . S
C192 N193 1.314 . S
C192 C197 1.353 . S
C192 H198 0.930 . S
N193 Li176 1.990 . S
N193 C192 1.314 . S
N193 C195 1.279 . S
C194 C195 1.358 . S
C194 C196 1.356 . S
C194 H248 0.930 . S
C195 N193 1.279 . S
C195 C194 1.358 . S
C195 H199 0.930 . S
C196 C194 1.356 . S
C196 C197 1.348 . S
C197 C192 1.353 . S
C197 C196 1.348 . S
C197 H249 0.929 . S
H198 C192 0.930 . S
H199 C195 0.930 . S
C200 N201 1.314 . S
C200 C202 1.353 . S
C200 H206 0.930 . S
N201 Li177 1.990 . S
N201 C200 1.314 . S
N201 C204 1.279 . S
C202 C200 1.353 . S
C202 C205 1.348 . S
C202 H250 0.929 . S
C203 C204 1.358 . S
C203 C205 1.356 . S
C203 H251 0.930 . S
C204 N201 1.279 . S
C204 C203 1.358 . S
C204 H207 0.930 . S
C205 C202 1.348 . S
C205 C203 1.356 . S
H206 C200 0.930 . S
H207 C204 0.930 . S
C208 C210 1.348 . S
C208 C211 1.356 . S
C208 O238 1.325 . S
N209 C212 1.314 . S
N209 C213 1.279 . S
C210 C208 1.348 . S
C210 C212 1.353 . S
C210 H252 0.929 . S
C211 C208 1.356 . S
C211 C213 1.358 . S
C211 H253 0.930 . S
C212 N209 1.314 . S
C212 C210 1.353 . S
C212 H254 0.930 . S
C213 N209 1.279 . S
C213 C211 1.358 . S
C213 H255 0.930 . S
C214 C215 1.348 . S
C214 C216 1.356 . S
C214 O239 1.325 . S
C215 C214 1.348 . S
C215 C217 1.353 . S
C215 H256 0.929 . S
C216 C214 1.356 . S
C216 C218 1.358 . S
C216 H257 0.930 . S
C217 C215 1.353 . S
C217 N219 1.314 . S
C217 H258 0.930 . S
C218 C216 1.358 . S
C218 N219 1.279 . S
C218 H259 0.930 . S
N219 C217 1.314 . S
N219 C218 1.279 . S
C220 C222 1.353 . S
C220 N223 1.314 . S
C220 H226 0.930 . S
C221 N223 1.279 . S
C221 C224 1.358 . S
C221 H227 0.930 . S
C222 C220 1.353 . S
C222 C225 1.348 . S
C222 H260 0.929 . S
N223 Li178 1.990 . S
N223 C220 1.314 . S
N223 C221 1.279 . S
C224 C221 1.358 . S
C224 C225 1.356 . S
C224 H261 0.930 . S
C225 C222 1.348 . S
C225 C224 1.356 . S
H226 C220 0.930 . S
H227 C221 0.930 . S
C228 N229 1.314 . S
C228 C230 1.353 . S
C228 H234 0.930 . S
N229 Li179 1.990 . S
N229 C228 1.314 . S
N229 C232 1.279 . S
C230 C228 1.353 . S
C230 C233 1.348 . S
C230 H262 0.929 . S
C231 C232 1.358 . S
C231 C233 1.356 . S
C231 H263 0.930 . S
C232 N229 1.279 . S
C232 C231 1.358 . S
C232 H235 0.930 . S
C233 C230 1.348 . S
C233 C231 1.356 . S
H234 C228 0.930 . S
H235 C232 0.930 . S
O236 Li176 1.956 . S
O236 Li177 1.970 . S
O236 Li178 1.961 . S
O236 C180 1.325 . S
O237 Li176 1.970 . S
O237 Li177 1.956 . S
O237 Li179 1.961 . S
O237 C186 1.325 . S
O238 Li176 1.961 . S
O238 Li178 1.956 . S
O238 Li179 1.970 . S
O238 C208 1.325 . S
O239 Li177 1.961 . S
O239 Li178 1.970 . S
O239 Li179 1.956 . S
O239 C214 1.325 . S
H240 C182 0.929 . S
H241 C183 0.930 . S
H242 C184 0.930 . S
H243 C185 0.930 . S
H244 C187 0.930 . S
H245 C189 0.929 . S
H246 C190 0.930 . S
H247 C191 0.930 . S
H248 C194 0.930 . S
H249 C197 0.929 . S
H250 C202 0.929 . S
H251 C203 0.930 . S
H252 C210 0.929 . S
H253 C211 0.930 . S
H254 C212 0.930 . S
H255 C213 0.930 . S
H256 C215 0.929 . S
H257 C216 0.930 . S
H258 C217 0.930 . S
H259 C218 0.930 . S
H260 C222 0.929 . S
H261 C224 0.930 . S
H262 C230 0.929 . S
H263 C231 0.930 . S
Li264 N281 1.990 . S
Li264 O324 1.956 . S
Li264 O325 1.970 . S
Li264 O326 1.961 . S
Li265 N289 1.990 . S
Li265 O324 1.970 . S
Li265 O325 1.956 . S
Li265 O327 1.961 . S
Li266 N311 1.990 . S
Li266 O324 1.961 . S
Li266 O326 1.956 . S
Li266 O327 1.970 . S
Li267 N317 1.990 . S
Li267 O325 1.961 . S
Li267 O326 1.970 . S
Li267 O327 1.956 . S
C268 C270 1.348 . S
C268 C271 1.356 . S
C268 O324 1.325 . S
N269 C272 1.314 . S
N269 C273 1.279 . S
C270 C268 1.348 . S
C270 C272 1.353 . S
C270 H328 0.929 . S
C271 C268 1.356 . S
C271 C273 1.358 . S
C271 H329 0.930 . S
C272 N269 1.314 . S
C272 C270 1.353 . S
C272 H330 0.930 . S
C273 N269 1.279 . S
C273 C271 1.358 . S
C273 H331 0.930 . S
C274 C277 1.348 . S
C274 C278 1.356 . S
C274 O325 1.325 . S
C275 N276 1.279 . S
C275 C278 1.358 . S
C275 H332 0.930 . S
N276 C275 1.279 . S
N276 C279 1.314 . S
C277 C274 1.348 . S
C277 C279 1.353 . S
C277 H333 0.929 . S
C278 C274 1.356 . S
C278 C275 1.358 . S
C278 H334 0.930 . S
C279 N276 1.314 . S
C279 C277 1.353 . S
C279 H335 0.930 . S
C280 N281 1.314 . S
C280 C285 1.353 . S
C280 H286 0.930 . S
N281 Li264 1.990 . S
N281 C280 1.314 . S
N281 C283 1.279 . S
C282 C283 1.358 . S
C282 C284 1.356 . S
C282 H336 0.930 . S
C283 N281 1.279 . S
C283 C282 1.358 . S
C283 H287 0.930 . S
C284 C282 1.356 . S
C284 C285 1.348 . S
C285 C280 1.353 . S
C285 C284 1.348 . S
C285 H337 0.929 . S
H286 C280 0.930 . S
H287 C283 0.930 . S
C288 N289 1.314 . S
C288 C290 1.353 . S
C288 H294 0.930 . S
N289 Li265 1.990 . S
N289 C288 1.314 . S
N289 C292 1.279 . S
C290 C288 1.353 . S
C290 C293 1.348 . S
C290 H338 0.929 . S
C291 C292 1.358 . S
C291 C293 1.356 . S
C291 H339 0.930 . S
C292 N289 1.279 . S
C292 C291 1.358 . S
C292 H295 0.930 . S
C293 C290 1.348 . S
C293 C291 1.356 . S
H294 C288 0.930 . S
H295 C292 0.930 . S
C296 C298 1.348 . S
C296 C299 1.356 . S
C296 O326 1.325 . S
N297 C300 1.314 . S
N297 C301 1.279 . S
C298 C296 1.348 . S
C298 C300 1.353 . S
C298 H340 0.929 . S
C299 C296 1.356 . S
C299 C301 1.358 . S
C299 H341 0.930 . S
C300 N297 1.314 . S
C300 C298 1.353 . S
C300 H342 0.930 . S
C301 N297 1.279 . S
C301 C299 1.358 . S
C301 H343 0.930 . S
C302 C303 1.348 . S
C302 C304 1.356 . S
C302 O327 1.325 . S
C303 C302 1.348 . S
C303 C305 1.353 . S
C303 H344 0.929 . S
C304 C302 1.356 . S
C304 C306 1.358 . S
C304 H345 0.930 . S
C305 C303 1.353 . S
C305 N307 1.314 . S
C305 H346 0.930 . S
C306 C304 1.358 . S
C306 N307 1.279 . S
C306 H347 0.930 . S
N307 C305 1.314 . S
N307 C306 1.279 . S
C308 C310 1.353 . S
C308 N311 1.314 . S
C308 H314 0.930 . S
C309 N311 1.279 . S
C309 C312 1.358 . S
C309 H315 0.930 . S
C310 C308 1.353 . S
C310 C313 1.348 . S
C310 H348 0.929 . S
N311 Li266 1.990 . S
N311 C308 1.314 . S
N311 C309 1.279 . S
C312 C309 1.358 . S
C312 C313 1.356 . S
C312 H349 0.930 . S
C313 C310 1.348 . S
C313 C312 1.356 . S
H314 C308 0.930 . S
H315 C309 0.930 . S
C316 N317 1.314 . S
C316 C318 1.353 . S
C316 H322 0.930 . S
N317 Li267 1.990 . S
N317 C316 1.314 . S
N317 C320 1.279 . S
C318 C316 1.353 . S
C318 C321 1.348 . S
C318 H350 0.929 . S
C319 C320 1.358 . S
C319 C321 1.356 . S
C319 H351 0.930 . S
C320 N317 1.279 . S
C320 C319 1.358 . S
C320 H323 0.930 . S
C321 C318 1.348 . S
C321 C319 1.356 . S
H322 C316 0.930 . S
H323 C320 0.930 . S
O324 Li264 1.956 . S
O324 Li265 1.970 . S
O324 Li266 1.961 . S
O324 C268 1.325 . S
O325 Li264 1.970 . S
O325 Li265 1.956 . S
O325 Li267 1.961 . S
O325 C274 1.325 . S
O326 Li264 1.961 . S
O326 Li266 1.956 . S
O326 Li267 1.970 . S
O326 C296 1.325 . S
O327 Li265 1.961 . S
O327 Li266 1.970 . S
O327 Li267 1.956 . S
O327 C302 1.325 . S
H328 C270 0.929 . S
H329 C271 0.930 . S
H330 C272 0.930 . S
H331 C273 0.930 . S
H332 C275 0.930 . S
H333 C277 0.929 . S
H334 C278 0.930 . S
H335 C279 0.930 . S
H336 C282 0.930 . S
H337 C285 0.929 . S
H338 C290 0.929 . S
H339 C291 0.930 . S
H340 C298 0.929 . S
H341 C299 0.930 . S
H342 C300 0.930 . S
H343 C301 0.930 . S
H344 C303 0.929 . S
H345 C304 0.930 . S
H346 C305 0.930 . S
H347 C306 0.930 . S
H348 C310 0.929 . S
H349 C312 0.930 . S
H350 C318 0.929 . S
H351 C319 0.930 . S
Li352 N369 1.990 . S
Li352 O412 1.956 . S
Li352 O413 1.970 . S
Li352 O414 1.961 1_455 S
Li353 N377 1.990 . S
Li353 O412 1.970 . S
Li353 O413 1.956 . S
Li353 O415 1.961 . S
Li354 N399 1.990 . S
Li354 O412 1.961 . S
Li354 O414 1.956 1_455 S
Li354 O415 1.970 . S
Li355 N405 1.990 1_455 S
Li355 O413 1.961 . S
Li355 O414 1.970 1_455 S
Li355 O415 1.956 . S
C356 C358 1.348 . S
C356 C359 1.356 . S
C356 O412 1.325 . S
N357 C360 1.314 . S
N357 C361 1.279 . S
C358 C356 1.348 . S
C358 C360 1.353 . S
C358 H416 0.929 . S
C359 C356 1.356 . S
C359 C361 1.358 . S
C359 H417 0.930 . S
C360 N357 1.314 . S
C360 C358 1.353 . S
C360 H418 0.930 . S
C361 N357 1.279 . S
C361 C359 1.358 . S
C361 H419 0.930 . S
C362 C365 1.348 . S
C362 C366 1.356 . S
C362 O413 1.325 . S
C363 N364 1.279 . S
C363 C366 1.358 . S
C363 H420 0.930 . S
N364 C363 1.279 . S
N364 C367 1.314 . S
C365 C362 1.348 . S
C365 C367 1.353 . S
C365 H421 0.929 . S
C366 C362 1.356 . S
C366 C363 1.358 . S
C366 H422 0.930 . S
C367 N364 1.314 . S
C367 C365 1.353 . S
C367 H423 0.930 . S
C368 N369 1.314 . S
C368 C373 1.353 . S
C368 H374 0.930 1_455 S
N369 Li352 1.990 . S
N369 C368 1.314 . S
N369 C371 1.279 . S
C370 C371 1.358 . S
C370 C372 1.356 . S
C370 H424 0.930 . S
C371 N369 1.279 . S
C371 C370 1.358 . S
C371 H375 0.930 . S
C372 C370 1.356 . S
C372 C373 1.348 . S
C373 C368 1.353 . S
C373 C372 1.348 . S
C373 H425 0.929 1_455 S
H374 C368 0.930 1_655 S
H375 C371 0.930 . S
C376 N377 1.314 . S
C376 C378 1.353 . S
C376 H382 0.930 . S
N377 Li353 1.990 . S
N377 C376 1.314 . S
N377 C380 1.279 . S
C378 C376 1.353 . S
C378 C381 1.348 . S
C378 H426 0.929 . S
C379 C380 1.358 . S
C379 C381 1.356 . S
C379 H427 0.930 . S
C380 N377 1.279 . S
C380 C379 1.358 . S
C380 H383 0.930 . S
C381 C378 1.348 . S
C381 C379 1.356 . S
H382 C376 0.930 . S
H383 C380 0.930 . S
C384 C386 1.348 . S
C384 C387 1.356 . S
C384 O414 1.325 . S
N385 C388 1.314 . S
N385 C389 1.279 . S
C386 C384 1.348 . S
C386 C388 1.353 . S
C386 H428 0.929 . S
C387 C384 1.356 . S
C387 C389 1.358 . S
C387 H429 0.930 . S
C388 N385 1.314 . S
C388 C386 1.353 . S
C388 H430 0.930 . S
C389 N385 1.279 . S
C389 C387 1.358 . S
C389 H431 0.930 . S
C390 C391 1.348 . S
C390 C392 1.356 . S
C390 O415 1.325 . S
C391 C390 1.348 . S
C391 C393 1.353 . S
C391 H432 0.929 . S
C392 C390 1.356 . S
C392 C394 1.358 . S
C392 H433 0.930 . S
C393 C391 1.353 . S
C393 N395 1.314 . S
C393 H434 0.930 . S
C394 C392 1.358 . S
C394 N395 1.279 . S
C394 H435 0.930 . S
N395 C393 1.314 . S
N395 C394 1.279 . S
C396 C398 1.353 . S
C396 N399 1.314 . S
C396 H402 0.930 . S
C397 N399 1.279 1_655 S
C397 C400 1.358 . S
C397 H403 0.930 . S
C398 C396 1.353 . S
C398 C401 1.348 . S
C398 H436 0.929 . S
N399 Li354 1.990 . S
N399 C396 1.314 . S
N399 C397 1.279 1_455 S
C400 C397 1.358 . S
C400 C401 1.356 1_655 S
C400 H437 0.930 . S
C401 C398 1.348 . S
C401 C400 1.356 1_455 S
H402 C396 0.930 . S
H403 C397 0.930 . S
C404 N405 1.314 . S
C404 C406 1.353 . S
C404 H410 0.930 . S
N405 Li355 1.990 1_655 S
N405 C404 1.314 . S
N405 C408 1.279 . S
C406 C404 1.353 . S
C406 C409 1.348 . S
C406 H438 0.929 . S
C407 C408 1.358 . S
C407 C409 1.356 . S
C407 H439 0.930 . S
C408 N405 1.279 . S
C408 C407 1.358 . S
C408 H411 0.930 . S
C409 C406 1.348 . S
C409 C407 1.356 . S
H410 C404 0.930 . S
H411 C408 0.930 . S
O412 Li352 1.956 . S
O412 Li353 1.970 . S
O412 Li354 1.961 . S
O412 C356 1.325 . S
O413 Li352 1.970 . S
O413 Li353 1.956 . S
O413 Li355 1.961 . S
O413 C362 1.325 . S
O414 Li352 1.961 1_655 S
O414 Li354 1.956 1_655 S
O414 Li355 1.970 1_655 S
O414 C384 1.325 . S
O415 Li353 1.961 . S
O415 Li354 1.970 . S
O415 Li355 1.956 . S
O415 C390 1.325 . S
H416 C358 0.929 . S
H417 C359 0.930 . S
H418 C360 0.930 . S
H419 C361 0.930 . S
H420 C363 0.930 . S
H421 C365 0.929 . S
H422 C366 0.930 . S
H423 C367 0.930 . S
H424 C370 0.930 . S
H425 C373 0.929 1_655 S
H426 C378 0.929 . S
H427 C379 0.930 . S
H428 C386 0.929 . S
H429 C387 0.930 . S
H430 C388 0.930 . S
H431 C389 0.930 . S
H432 C391 0.929 . S
H433 C392 0.930 . S
H434 C393 0.930 . S
H435 C394 0.930 . S
H436 C398 0.929 . S
H437 C400 0.930 . S
H438 C406 0.929 . S
H439 C407 0.930 . S
Li440 N457 1.990 . S
Li440 O500 1.956 . S
Li440 O501 1.970 . S
Li440 O502 1.961 . S
Li441 N465 1.990 . S
Li441 O500 1.970 . S
Li441 O501 1.956 . S
Li441 O503 1.961 . S
Li442 N487 1.990 . S
Li442 O500 1.961 . S
Li442 O502 1.956 . S
Li442 O503 1.970 . S
Li443 N493 1.990 . S
Li443 O501 1.961 . S
Li443 O502 1.970 . S
Li443 O503 1.956 . S
C444 C446 1.348 . S
C444 C447 1.356 . S
C444 O500 1.325 . S
N445 C448 1.314 . S
N445 C449 1.279 . S
C446 C444 1.348 . S
C446 C448 1.353 . S
C446 H504 0.929 . S
C447 C444 1.356 . S
C447 C449 1.358 . S
C447 H505 0.930 . S
C448 N445 1.314 . S
C448 C446 1.353 . S
C448 H506 0.930 . S
C449 N445 1.279 . S
C449 C447 1.358 . S
C449 H507 0.930 . S
C450 C453 1.348 . S
C450 C454 1.356 . S
C450 O501 1.325 . S
C451 N452 1.279 . S
C451 C454 1.358 . S
C451 H508 0.930 . S
N452 C451 1.279 . S
N452 C455 1.314 . S
C453 C450 1.348 . S
C453 C455 1.353 . S
C453 H509 0.929 . S
C454 C450 1.356 . S
C454 C451 1.358 . S
C454 H510 0.930 . S
C455 N452 1.314 . S
C455 C453 1.353 . S
C455 H511 0.930 . S
C456 N457 1.314 . S
C456 C461 1.353 . S
C456 H462 0.930 . S
N457 Li440 1.990 . S
N457 C456 1.314 . S
N457 C459 1.279 . S
C458 C459 1.358 . S
C458 C460 1.356 . S
C458 H512 0.930 . S
C459 N457 1.279 . S
C459 C458 1.358 . S
C459 H463 0.930 . S
C460 C458 1.356 . S
C460 C461 1.348 . S
C461 C456 1.353 . S
C461 C460 1.348 . S
C461 H513 0.929 . S
H462 C456 0.930 . S
H463 C459 0.930 . S
C464 N465 1.314 . S
C464 C466 1.353 . S
C464 H470 0.930 . S
N465 Li441 1.990 . S
N465 C464 1.314 . S
N465 C468 1.279 . S
C466 C464 1.353 . S
C466 C469 1.348 . S
C466 H514 0.929 . S
C467 C468 1.358 . S
C467 C469 1.356 . S
C467 H515 0.930 . S
C468 N465 1.279 . S
C468 C467 1.358 . S
C468 H471 0.930 . S
C469 C466 1.348 . S
C469 C467 1.356 . S
H470 C464 0.930 . S
H471 C468 0.930 . S
C472 C474 1.348 . S
C472 C475 1.356 . S
C472 O502 1.325 . S
N473 C476 1.314 . S
N473 C477 1.279 . S
C474 C472 1.348 . S
C474 C476 1.353 . S
C474 H516 0.929 . S
C475 C472 1.356 . S
C475 C477 1.358 . S
C475 H517 0.930 . S
C476 N473 1.314 . S
C476 C474 1.353 . S
C476 H518 0.930 . S
C477 N473 1.279 . S
C477 C475 1.358 . S
C477 H519 0.930 . S
C478 C479 1.348 . S
C478 C480 1.356 . S
C478 O503 1.325 . S
C479 C478 1.348 . S
C479 C481 1.353 . S
C479 H520 0.929 . S
C480 C478 1.356 . S
C480 C482 1.358 . S
C480 H521 0.930 . S
C481 C479 1.353 . S
C481 N483 1.314 . S
C481 H522 0.930 . S
C482 C480 1.358 . S
C482 N483 1.279 . S
C482 H523 0.930 . S
N483 C481 1.314 . S
N483 C482 1.279 . S
C484 C486 1.353 . S
C484 N487 1.314 . S
C484 H490 0.930 . S
C485 N487 1.279 . S
C485 C488 1.358 . S
C485 H491 0.930 . S
C486 C484 1.353 . S
C486 C489 1.348 . S
C486 H524 0.929 . S
N487 Li442 1.990 . S
N487 C484 1.314 . S
N487 C485 1.279 . S
C488 C485 1.358 . S
C488 C489 1.356 . S
C488 H525 0.930 . S
C489 C486 1.348 . S
C489 C488 1.356 . S
H490 C484 0.930 . S
H491 C485 0.930 . S
C492 N493 1.314 . S
C492 C494 1.353 . S
C492 H498 0.930 . S
N493 Li443 1.990 . S
N493 C492 1.314 . S
N493 C496 1.279 . S
C494 C492 1.353 . S
C494 C497 1.348 . S
C494 H526 0.929 . S
C495 C496 1.358 . S
C495 C497 1.356 . S
C495 H527 0.930 . S
C496 N493 1.279 . S
C496 C495 1.358 . S
C496 H499 0.930 . S
C497 C494 1.348 . S
C497 C495 1.356 . S
H498 C492 0.930 . S
H499 C496 0.930 . S
O500 Li440 1.956 . S
O500 Li441 1.970 . S
O500 Li442 1.961 . S
O500 C444 1.325 . S
O501 Li440 1.970 . S
O501 Li441 1.956 . S
O501 Li443 1.961 . S
O501 C450 1.325 . S
O502 Li440 1.961 . S
O502 Li442 1.956 . S
O502 Li443 1.970 . S
O502 C472 1.325 . S
O503 Li441 1.961 . S
O503 Li442 1.970 . S
O503 Li443 1.956 . S
O503 C478 1.325 . S
H504 C446 0.929 . S
H505 C447 0.930 . S
H506 C448 0.930 . S
H507 C449 0.930 . S
H508 C451 0.930 . S
H509 C453 0.929 . S
H510 C454 0.930 . S
H511 C455 0.930 . S
H512 C458 0.930 . S
H513 C461 0.929 . S
H514 C466 0.929 . S
H515 C467 0.930 . S
H516 C474 0.929 . S
H517 C475 0.930 . S
H518 C476 0.930 . S
H519 C477 0.930 . S
H520 C479 0.929 . S
H521 C480 0.930 . S
H522 C481 0.930 . S
H523 C482 0.930 . S
H524 C486 0.929 . S
H525 C488 0.930 . S
H526 C494 0.929 . S
H527 C495 0.930 . S
Li528 N545 1.990 . S
Li528 O588 1.956 . S
Li528 O589 1.970 . S
Li528 O590 1.961 . S
Li529 N553 1.990 . S
Li529 O588 1.970 . S
Li529 O589 1.956 . S
Li529 O591 1.961 . S
Li530 N575 1.990 . S
Li530 O588 1.961 . S
Li530 O590 1.956 . S
Li530 O591 1.970 . S
Li531 N581 1.990 . S
Li531 O589 1.961 . S
Li531 O590 1.970 . S
Li531 O591 1.956 . S
C532 C534 1.348 . S
C532 C535 1.356 . S
C532 O588 1.325 . S
N533 C536 1.314 . S
N533 C537 1.279 . S
C534 C532 1.348 . S
C534 C536 1.353 . S
C534 H592 0.929 . S
C535 C532 1.356 . S
C535 C537 1.358 . S
C535 H593 0.930 . S
C536 N533 1.314 . S
C536 C534 1.353 . S
C536 H594 0.930 . S
C537 N533 1.279 . S
C537 C535 1.358 . S
C537 H595 0.930 . S
C538 C541 1.348 . S
C538 C542 1.356 . S
C538 O589 1.325 . S
C539 N540 1.279 . S
C539 C542 1.358 . S
C539 H596 0.930 . S
N540 C539 1.279 . S
N540 C543 1.314 . S
C541 C538 1.348 . S
C541 C543 1.353 . S
C541 H597 0.929 . S
C542 C538 1.356 . S
C542 C539 1.358 . S
C542 H598 0.930 . S
C543 N540 1.314 . S
C543 C541 1.353 . S
C543 H599 0.930 . S
C544 N545 1.314 . S
C544 C549 1.353 . S
C544 H550 0.930 . S
N545 Li528 1.990 . S
N545 C544 1.314 . S
N545 C547 1.279 . S
C546 C547 1.358 . S
C546 C548 1.356 . S
C546 H600 0.930 . S
C547 N545 1.279 . S
C547 C546 1.358 . S
C547 H551 0.930 . S
C548 C546 1.356 . S
C548 C549 1.348 . S
C549 C544 1.353 . S
C549 C548 1.348 . S
C549 H601 0.929 . S
H550 C544 0.930 . S
H551 C547 0.930 . S
C552 N553 1.314 . S
C552 C554 1.353 . S
C552 H558 0.930 . S
N553 Li529 1.990 . S
N553 C552 1.314 . S
N553 C556 1.279 . S
C554 C552 1.353 . S
C554 C557 1.348 . S
C554 H602 0.929 . S
C555 C556 1.358 . S
C555 C557 1.356 . S
C555 H603 0.930 . S
C556 N553 1.279 . S
C556 C555 1.358 . S
C556 H559 0.930 . S
C557 C554 1.348 . S
C557 C555 1.356 . S
H558 C552 0.930 . S
H559 C556 0.930 . S
C560 C562 1.348 . S
C560 C563 1.356 . S
C560 O590 1.325 . S
N561 C564 1.314 . S
N561 C565 1.279 . S
C562 C560 1.348 . S
C562 C564 1.353 . S
C562 H604 0.929 . S
C563 C560 1.356 . S
C563 C565 1.358 . S
C563 H605 0.930 . S
C564 N561 1.314 . S
C564 C562 1.353 . S
C564 H606 0.930 . S
C565 N561 1.279 . S
C565 C563 1.358 . S
C565 H607 0.930 . S
C566 C567 1.348 . S
C566 C568 1.356 . S
C566 O591 1.325 . S
C567 C566 1.348 . S
C567 C569 1.353 . S
C567 H608 0.929 . S
C568 C566 1.356 . S
C568 C570 1.358 . S
C568 H609 0.930 . S
C569 C567 1.353 . S
C569 N571 1.314 . S
C569 H610 0.930 . S
C570 C568 1.358 . S
C570 N571 1.279 . S
C570 H611 0.930 . S
N571 C569 1.314 . S
N571 C570 1.279 . S
C572 C574 1.353 . S
C572 N575 1.314 . S
C572 H578 0.930 . S
C573 N575 1.279 . S
C573 C576 1.358 . S
C573 H579 0.930 . S
C574 C572 1.353 . S
C574 C577 1.348 . S
C574 H612 0.929 . S
N575 Li530 1.990 . S
N575 C572 1.314 . S
N575 C573 1.279 . S
C576 C573 1.358 . S
C576 C577 1.356 . S
C576 H613 0.930 . S
C577 C574 1.348 . S
C577 C576 1.356 . S
H578 C572 0.930 . S
H579 C573 0.930 . S
C580 N581 1.314 . S
C580 C582 1.353 . S
C580 H586 0.930 . S
N581 Li531 1.990 . S
N581 C580 1.314 . S
N581 C584 1.279 . S
C582 C580 1.353 . S
C582 C585 1.348 . S
C582 H614 0.929 . S
C583 C584 1.358 . S
C583 C585 1.356 . S
C583 H615 0.930 . S
C584 N581 1.279 . S
C584 C583 1.358 . S
C584 H587 0.930 . S
C585 C582 1.348 . S
C585 C583 1.356 . S
H586 C580 0.930 . S
H587 C584 0.930 . S
O588 Li528 1.956 . S
O588 Li529 1.970 . S
O588 Li530 1.961 . S
O588 C532 1.325 . S
O589 Li528 1.970 . S
O589 Li529 1.956 . S
O589 Li531 1.961 . S
O589 C538 1.325 . S
O590 Li528 1.961 . S
O590 Li530 1.956 . S
O590 Li531 1.970 . S
O590 C560 1.325 . S
O591 Li529 1.961 . S
O591 Li530 1.970 . S
O591 Li531 1.956 . S
O591 C566 1.325 . S
H592 C534 0.929 . S
H593 C535 0.930 . S
H594 C536 0.930 . S
H595 C537 0.930 . S
H596 C539 0.930 . S
H597 C541 0.929 . S
H598 C542 0.930 . S
H599 C543 0.930 . S
H600 C546 0.930 . S
H601 C549 0.929 . S
H602 C554 0.929 . S
H603 C555 0.930 . S
H604 C562 0.929 . S
H605 C563 0.930 . S
H606 C564 0.930 . S
H607 C565 0.930 . S
H608 C567 0.929 . S
H609 C568 0.930 . S
H610 C569 0.930 . S
H611 C570 0.930 . S
H612 C574 0.929 . S
H613 C576 0.930 . S
H614 C582 0.929 . S
H615 C583 0.930 . S
Li616 N633 1.990 . S
Li616 O676 1.956 1_455 S
Li616 O677 1.970 . S
Li616 O678 1.961 . S
Li617 N641 1.990 . S
Li617 O676 1.970 . S
Li617 O677 1.956 1_655 S
Li617 O679 1.994 . S
Li618 N663 1.989 . S
Li618 O676 1.961 1_455 S
Li618 O678 1.956 . S
Li618 O679 1.970 1_455 S
Li619 N669 1.990 . S
Li619 O677 1.961 . S
Li619 O678 1.970 . S
Li619 O679 1.928 1_455 S
C620 C622 1.348 . S
C620 C623 1.356 . S
C620 O676 1.325 . S
N621 C624 1.314 . S
N621 C625 1.279 . S
C622 C620 1.348 . S
C622 C624 1.353 . S
C622 H680 0.929 . S
C623 C620 1.356 . S
C623 C625 1.358 . S
C623 H681 0.930 . S
C624 N621 1.314 . S
C624 C622 1.353 . S
C624 H682 0.930 . S
C625 N621 1.279 . S
C625 C623 1.358 . S
C625 H683 0.930 . S
C626 C629 1.371 . S
C626 C630 1.356 . S
C626 O677 1.325 . S
C627 N628 1.279 . S
C627 C630 1.358 . S
C627 H684 0.930 . S
N628 C627 1.279 . S
N628 C631 1.314 . S
C629 C626 1.371 . S
C629 C631 1.351 . S
C629 H685 0.912 1_455 S
C630 C626 1.356 . S
C630 C627 1.358 . S
C630 H686 0.930 . S
C631 N628 1.314 . S
C631 C629 1.351 . S
C631 H687 0.929 1_455 S
C632 N633 1.314 . S
C632 C637 1.353 . S
C632 H638 0.930 . S
N633 Li616 1.990 . S
N633 C632 1.314 . S
N633 C635 1.279 1_455 S
C634 C635 1.358 . S
C634 C636 1.356 1_655 S
C634 H688 0.930 . S
C635 N633 1.279 1_655 S
C635 C634 1.358 . S
C635 H639 0.930 . S
C636 C634 1.356 1_455 S
C636 C637 1.348 . S
C637 C632 1.353 . S
C637 C636 1.348 . S
C637 H689 0.929 . S
H638 C632 0.930 . S
H639 C635 0.930 . S
C640 N641 1.314 . S
C640 C642 1.353 . S
C640 H646 0.930 . S
N641 Li617 1.990 . S
N641 C640 1.314 . S
N641 C644 1.279 . S
C642 C640 1.353 . S
C642 C645 1.348 . S
C642 H690 0.929 . S
C643 C644 1.358 . S
C643 C645 1.356 . S
C643 H691 0.930 . S
C644 N641 1.279 . S
C644 C643 1.358 . S
C644 H647 0.930 . S
C645 C642 1.348 . S
C645 C643 1.356 . S
H646 C640 0.930 . S
H647 C644 0.930 . S
C648 C650 1.348 . S
C648 C651 1.356 . S
C648 O678 1.325 . S
N649 C652 1.314 . S
N649 C653 1.279 . S
C650 C648 1.348 . S
C650 C652 1.353 . S
C650 H692 0.929 . S
C651 C648 1.356 . S
C651 C653 1.358 . S
C651 H693 0.930 . S
C652 N649 1.314 . S
C652 C650 1.353 . S
C652 H694 0.930 . S
C653 N649 1.279 . S
C653 C651 1.358 . S
C653 H695 0.930 . S
C654 C655 1.348 1_655 S
C654 C656 1.356 . S
C654 O679 1.321 . S
C655 C654 1.348 1_455 S
C655 C657 1.352 . S
C655 H696 0.929 . S
C656 C654 1.356 . S
C656 C658 1.358 . S
C656 H697 0.930 . S
C657 C655 1.352 . S
C657 N659 1.311 1_455 S
C657 H698 0.934 . S
C658 C656 1.358 . S
C658 N659 1.279 . S
C658 H699 0.930 . S
N659 C657 1.311 1_655 S
N659 C658 1.279 . S
C660 C662 1.353 . S
C660 N663 1.297 1_655 S
C660 H666 0.930 . S
C661 N663 1.298 . S
C661 C664 1.358 . S
C661 H667 0.930 . S
C662 C660 1.353 . S
C662 C665 1.348 . S
C662 H700 0.929 . S
N663 Li618 1.989 . S
N663 C660 1.297 1_455 S
N663 C661 1.298 . S
C664 C661 1.358 . S
C664 C665 1.356 1_455 S
C664 H701 0.930 . S
C665 C662 1.348 . S
C665 C664 1.356 1_655 S
H666 C660 0.930 . S
H667 C661 0.930 . S
C668 N669 1.314 . S
C668 C670 1.353 . S
C668 H674 0.930 . S
N669 Li619 1.990 . S
N669 C668 1.314 . S
N669 C672 1.279 . S
C670 C668 1.353 . S
C670 C673 1.348 . S
C670 H702 0.929 . S
C671 C672 1.358 . S
C671 C673 1.356 . S
C671 H703 0.930 . S
C672 N669 1.279 . S
C672 C671 1.358 . S
C672 H675 0.930 . S
C673 C670 1.348 . S
C673 C671 1.356 . S
H674 C668 0.930 . S
H675 C672 0.930 . S
O676 Li616 1.956 1_655 S
O676 Li617 1.970 . S
O676 Li618 1.961 1_655 S
O676 C620 1.325 . S
O677 Li616 1.970 . S
O677 Li617 1.956 1_455 S
O677 Li619 1.961 . S
O677 C626 1.325 . S
O678 Li616 1.961 . S
O678 Li618 1.956 . S
O678 Li619 1.970 . S
O678 C648 1.325 . S
O679 Li617 1.994 . S
O679 Li618 1.970 1_655 S
O679 Li619 1.928 1_655 S
O679 C654 1.321 . S
H680 C622 0.929 . S
H681 C623 0.930 . S
H682 C624 0.930 . S
H683 C625 0.930 . S
H684 C627 0.930 . S
H685 C629 0.912 1_655 S
H686 C630 0.930 . S
H687 C631 0.929 1_655 S
H688 C634 0.930 . S
H689 C637 0.929 . S
H690 C642 0.929 . S
H691 C643 0.930 . S
H692 C650 0.929 . S
H693 C651 0.930 . S
H694 C652 0.930 . S
H695 C653 0.930 . S
H696 C655 0.929 . S
H697 C656 0.930 . S
H698 C657 0.934 . S
H699 C658 0.930 . S
H700 C662 0.929 . S
H701 C664 0.930 . S
H702 C670 0.929 . S
H703 C671 0.930 . S
Li704 N721 1.990 . S
Li704 O764 1.956 . S
Li704 O765 1.970 . S
Li704 O766 1.961 . S
Li705 N729 1.990 1_545 S
Li705 O764 1.970 . S
Li705 O765 1.956 . S
Li705 O767 1.961 . S
Li706 N751 1.990 . S
Li706 O764 1.961 . S
Li706 O766 1.956 . S
Li706 O767 1.970 . S
Li707 N757 1.990 . S
Li707 O765 1.961 . S
Li707 O766 1.970 . S
Li707 O767 1.956 . S
C708 C710 1.348 . S
C708 C711 1.356 . S
C708 O764 1.325 1_565 S
N709 C712 1.314 . S
N709 C713 1.279 . S
C710 C708 1.348 . S
C710 C712 1.353 . S
C710 H768 0.929 . S
C711 C708 1.356 . S
C711 C713 1.358 . S
C711 H769 0.930 1_565 S
C712 N709 1.314 . S
C712 C710 1.353 . S
C712 H770 0.930 . S
C713 N709 1.279 . S
C713 C711 1.358 . S
C713 H771 0.930 . S
C714 C717 1.348 . S
C714 C718 1.356 . S
C714 O765 1.325 . S
C715 N716 1.279 . S
C715 C718 1.358 . S
C715 H772 0.930 . S
N716 C715 1.279 . S
N716 C719 1.314 . S
C717 C714 1.348 . S
C717 C719 1.353 . S
C717 H773 0.929 . S
C718 C714 1.356 . S
C718 C715 1.358 . S
C718 H774 0.930 . S
C719 N716 1.314 . S
C719 C717 1.353 . S
C719 H775 0.930 . S
C720 N721 1.314 . S
C720 C725 1.353 . S
C720 H726 0.930 . S
N721 Li704 1.990 . S
N721 C720 1.314 . S
N721 C723 1.279 . S
C722 C723 1.358 . S
C722 C724 1.356 . S
C722 H776 0.930 . S
C723 N721 1.279 . S
C723 C722 1.358 . S
C723 H727 0.930 . S
C724 C722 1.356 . S
C724 C725 1.348 . S
C725 C720 1.353 . S
C725 C724 1.348 . S
C725 H777 0.929 . S
H726 C720 0.930 . S
H727 C723 0.930 . S
C728 N729 1.314 . S
C728 C730 1.353 . S
C728 H734 0.930 . S
N729 Li705 1.990 1_565 S
N729 C728 1.314 . S
N729 C732 1.279 . S
C730 C728 1.353 . S
C730 C733 1.348 . S
C730 H778 0.929 . S
C731 C732 1.358 . S
C731 C733 1.356 . S
C731 H779 0.930 . S
C732 N729 1.279 . S
C732 C731 1.358 . S
C732 H735 0.930 . S
C733 C730 1.348 . S
C733 C731 1.356 . S
H734 C728 0.930 . S
H735 C732 0.930 . S
C736 C738 1.348 . S
C736 C739 1.356 . S
C736 O766 1.325 . S
N737 C740 1.314 . S
N737 C741 1.279 . S
C738 C736 1.348 . S
C738 C740 1.353 . S
C738 H780 0.929 . S
C739 C736 1.356 . S
C739 C741 1.358 . S
C739 H781 0.930 . S
C740 N737 1.314 . S
C740 C738 1.353 . S
C740 H782 0.930 . S
C741 N737 1.279 . S
C741 C739 1.358 . S
C741 H783 0.930 . S
C742 C743 1.348 . S
C742 C744 1.356 . S
C742 O767 1.325 . S
C743 C742 1.348 . S
C743 C745 1.353 . S
C743 H784 0.929 . S
C744 C742 1.356 . S
C744 C746 1.358 . S
C744 H785 0.930 . S
C745 C743 1.353 . S
C745 N747 1.314 . S
C745 H786 0.930 . S
C746 C744 1.358 . S
C746 N747 1.279 . S
C746 H787 0.930 . S
N747 C745 1.314 . S
N747 C746 1.279 . S
C748 C750 1.353 . S
C748 N751 1.314 . S
C748 H754 0.930 1_545 S
C749 N751 1.279 . S
C749 C752 1.358 . S
C749 H755 0.930 . S
C750 C748 1.353 . S
C750 C753 1.348 . S
C750 H788 0.929 1_545 S
N751 Li706 1.990 . S
N751 C748 1.314 . S
N751 C749 1.279 . S
C752 C749 1.358 . S
C752 C753 1.356 . S
C752 H789 0.930 . S
C753 C750 1.348 . S
C753 C752 1.356 . S
H754 C748 0.930 1_565 S
H755 C749 0.930 . S
C756 N757 1.314 . S
C756 C758 1.353 . S
C756 H762 0.930 . S
N757 Li707 1.990 . S
N757 C756 1.314 . S
N757 C760 1.279 . S
C758 C756 1.353 . S
C758 C761 1.348 . S
C758 H790 0.929 . S
C759 C760 1.358 . S
C759 C761 1.356 . S
C759 H791 0.930 . S
C760 N757 1.279 . S
C760 C759 1.358 . S
C760 H763 0.930 . S
C761 C758 1.348 . S
C761 C759 1.356 . S
H762 C756 0.930 . S
H763 C760 0.930 . S
O764 Li704 1.956 . S
O764 Li705 1.970 . S
O764 Li706 1.961 . S
O764 C708 1.325 1_545 S
O765 Li704 1.970 . S
O765 Li705 1.956 . S
O765 Li707 1.961 . S
O765 C714 1.325 . S
O766 Li704 1.961 . S
O766 Li706 1.956 . S
O766 Li707 1.970 . S
O766 C736 1.325 . S
O767 Li705 1.961 . S
O767 Li706 1.970 . S
O767 Li707 1.956 . S
O767 C742 1.325 . S
H768 C710 0.929 . S
H769 C711 0.930 1_545 S
H770 C712 0.930 . S
H771 C713 0.930 . S
H772 C715 0.930 . S
H773 C717 0.929 . S
H774 C718 0.930 . S
H775 C719 0.930 . S
H776 C722 0.930 . S
H777 C725 0.929 . S
H778 C730 0.929 . S
H779 C731 0.930 . S
H780 C738 0.929 . S
H781 C739 0.930 . S
H782 C740 0.930 . S
H783 C741 0.930 . S
H784 C743 0.929 . S
H785 C744 0.930 . S
H786 C745 0.930 . S
H787 C746 0.930 . S
H788 C750 0.929 1_565 S
H789 C752 0.930 . S
H790 C758 0.929 . S
H791 C759 0.930 . S
Li792 N809 1.990 . S
Li792 O852 1.956 . S
Li792 O853 1.970 . S
Li792 O854 1.961 . S
Li793 N817 1.990 . S
Li793 O852 1.970 . S
Li793 O853 1.956 . S
Li793 O855 1.961 . S
Li794 N839 1.990 . S
Li794 O852 1.961 . S
Li794 O854 1.956 . S
Li794 O855 1.970 . S
Li795 N845 1.990 . S
Li795 O853 1.961 . S
Li795 O854 1.970 . S
Li795 O855 1.956 . S
C796 C798 1.348 . S
C796 C799 1.356 . S
C796 O852 1.325 . S
N797 C800 1.314 . S
N797 C801 1.279 . S
C798 C796 1.348 . S
C798 C800 1.353 . S
C798 H856 0.929 . S
C799 C796 1.356 . S
C799 C801 1.358 . S
C799 H857 0.930 . S
C800 N797 1.314 . S
C800 C798 1.353 . S
C800 H858 0.930 . S
C801 N797 1.279 . S
C801 C799 1.358 . S
C801 H859 0.930 . S
C802 C805 1.348 . S
C802 C806 1.356 . S
C802 O853 1.325 . S
C803 N804 1.279 . S
C803 C806 1.358 . S
C803 H860 0.930 . S
N804 C803 1.279 . S
N804 C807 1.314 . S
C805 C802 1.348 . S
C805 C807 1.353 . S
C805 H861 0.929 . S
C806 C802 1.356 . S
C806 C803 1.358 . S
C806 H862 0.930 . S
C807 N804 1.314 . S
C807 C805 1.353 . S
C807 H863 0.930 . S
C808 N809 1.314 . S
C808 C813 1.353 . S
C808 H814 0.930 . S
N809 Li792 1.990 . S
N809 C808 1.314 . S
N809 C811 1.279 . S
C810 C811 1.358 . S
C810 C812 1.356 . S
C810 H864 0.930 . S
C811 N809 1.279 . S
C811 C810 1.358 . S
C811 H815 0.930 . S
C812 C810 1.356 . S
C812 C813 1.348 . S
C813 C808 1.353 . S
C813 C812 1.348 . S
C813 H865 0.929 . S
H814 C808 0.930 . S
H815 C811 0.930 . S
C816 N817 1.314 . S
C816 C818 1.353 . S
C816 H822 0.930 . S
N817 Li793 1.990 . S
N817 C816 1.314 . S
N817 C820 1.279 . S
C818 C816 1.353 . S
C818 C821 1.348 . S
C818 H866 0.929 . S
C819 C820 1.358 . S
C819 C821 1.356 . S
C819 H867 0.930 . S
C820 N817 1.279 . S
C820 C819 1.358 . S
C820 H823 0.930 . S
C821 C818 1.348 . S
C821 C819 1.356 . S
H822 C816 0.930 . S
H823 C820 0.930 . S
C824 C826 1.348 . S
C824 C827 1.356 . S
C824 O854 1.325 . S
N825 C828 1.314 . S
N825 C829 1.279 . S
C826 C824 1.348 . S
C826 C828 1.353 . S
C826 H868 0.929 . S
C827 C824 1.356 . S
C827 C829 1.358 . S
C827 H869 0.930 . S
C828 N825 1.314 . S
C828 C826 1.353 . S
C828 H870 0.930 . S
C829 N825 1.279 . S
C829 C827 1.358 . S
C829 H871 0.930 . S
C830 C831 1.348 . S
C830 C832 1.356 . S
C830 O855 1.325 . S
C831 C830 1.348 . S
C831 C833 1.353 . S
C831 H872 0.929 . S
C832 C830 1.356 . S
C832 C834 1.358 . S
C832 H873 0.930 . S
C833 C831 1.353 . S
C833 N835 1.314 . S
C833 H874 0.930 . S
C834 C832 1.358 . S
C834 N835 1.279 . S
C834 H875 0.930 . S
N835 C833 1.314 . S
N835 C834 1.279 . S
C836 C838 1.353 . S
C836 N839 1.314 . S
C836 H842 0.930 . S
C837 N839 1.279 . S
C837 C840 1.358 . S
C837 H843 0.930 . S
C838 C836 1.353 . S
C838 C841 1.348 . S
C838 H876 0.929 . S
N839 Li794 1.990 . S
N839 C836 1.314 . S
N839 C837 1.279 . S
C840 C837 1.358 . S
C840 C841 1.356 . S
C840 H877 0.930 . S
C841 C838 1.348 . S
C841 C840 1.356 . S
H842 C836 0.930 . S
H843 C837 0.930 . S
C844 N845 1.314 . S
C844 C846 1.353 . S
C844 H850 0.930 . S
N845 Li795 1.990 . S
N845 C844 1.314 . S
N845 C848 1.279 . S
C846 C844 1.353 . S
C846 C849 1.348 . S
C846 H878 0.929 . S
C847 C848 1.358 . S
C847 C849 1.356 . S
C847 H879 0.930 . S
C848 N845 1.279 . S
C848 C847 1.358 . S
C848 H851 0.930 . S
C849 C846 1.348 . S
C849 C847 1.356 . S
H850 C844 0.930 . S
H851 C848 0.930 . S
O852 Li792 1.956 . S
O852 Li793 1.970 . S
O852 Li794 1.961 . S
O852 C796 1.325 . S
O853 Li792 1.970 . S
O853 Li793 1.956 . S
O853 Li795 1.961 . S
O853 C802 1.325 . S
O854 Li792 1.961 . S
O854 Li794 1.956 . S
O854 Li795 1.970 . S
O854 C824 1.325 . S
O855 Li793 1.961 . S
O855 Li794 1.970 . S
O855 Li795 1.956 . S
O855 C830 1.325 . S
H856 C798 0.929 . S
H857 C799 0.930 . S
H858 C800 0.930 . S
H859 C801 0.930 . S
H860 C803 0.930 . S
H861 C805 0.929 . S
H862 C806 0.930 . S
H863 C807 0.930 . S
H864 C810 0.930 . S
H865 C813 0.929 . S
H866 C818 0.929 . S
H867 C819 0.930 . S
H868 C826 0.929 . S
H869 C827 0.930 . S
H870 C828 0.930 . S
H871 C829 0.930 . S
H872 C831 0.929 . S
H873 C832 0.930 . S
H874 C833 0.930 . S
H875 C834 0.930 . S
H876 C838 0.929 . S
H877 C840 0.930 . S
H878 C846 0.929 . S
H879 C847 0.930 . S
Li880 N897 1.990 . S
Li880 O940 1.956 . S
Li880 O941 1.970 . S
Li880 O942 1.961 . S
Li881 N905 1.991 . S
Li881 O940 1.970 1_565 S
Li881 O941 1.958 1_565 S
Li881 O943 1.959 . S
Li882 N927 1.990 . S
Li882 O940 1.961 1_565 S
Li882 O942 1.956 1_565 S
Li882 O943 1.970 . S
Li883 N933 1.990 . S
Li883 O941 1.961 1_565 S
Li883 O942 1.970 1_565 S
Li883 O943 1.956 . S
C884 C886 1.348 . S
C884 C887 1.356 . S
C884 O940 1.325 . S
N885 C888 1.314 . S
N885 C889 1.279 . S
C886 C884 1.348 . S
C886 C888 1.353 . S
C886 H944 0.929 . S
C887 C884 1.356 . S
C887 C889 1.358 . S
C887 H945 0.940 . S
C888 N885 1.314 . S
C888 C886 1.353 . S
C888 H946 0.930 . S
C889 N885 1.279 . S
C889 C887 1.358 . S
C889 H947 0.930 . S
C890 C893 1.348 . S
C890 C894 1.356 . S
C890 O941 1.325 . S
C891 N892 1.279 . S
C891 C894 1.358 . S
C891 H948 0.930 . S
N892 C891 1.279 . S
N892 C895 1.314 . S
C893 C890 1.348 . S
C893 C895 1.353 . S
C893 H949 0.929 . S
C894 C890 1.356 . S
C894 C891 1.358 . S
C894 H950 0.930 . S
C895 N892 1.314 . S
C895 C893 1.353 . S
C895 H951 0.930 . S
C896 N897 1.314 . S
C896 C901 1.353 . S
C896 H902 0.930 . S
N897 Li880 1.990 . S
N897 C896 1.314 . S
N897 C899 1.279 . S
C898 C899 1.358 . S
C898 C900 1.356 . S
C898 H952 0.930 . S
C899 N897 1.279 . S
C899 C898 1.358 . S
C899 H903 0.930 . S
C900 C898 1.356 . S
C900 C901 1.348 . S
C901 C896 1.353 . S
C901 C900 1.348 . S
C901 H953 0.929 . S
H902 C896 0.930 . S
H903 C899 0.930 . S
C904 N905 1.348 . S
C904 C906 1.353 . S
C904 H910 0.930 . S
N905 Li881 1.991 . S
N905 C904 1.348 . S
N905 C908 1.247 1_565 S
C906 C904 1.353 . S
C906 C909 1.348 . S
C906 H954 0.929 . S
C907 C908 1.358 . S
C907 C909 1.356 1_545 S
C907 H955 0.930 . S
C908 N905 1.247 1_545 S
C908 C907 1.358 . S
C908 H911 0.930 . S
C909 C906 1.348 . S
C909 C907 1.356 1_565 S
H910 C904 0.930 . S
H911 C908 0.930 . S
C912 C914 1.348 1_545 S
C912 C915 1.356 . S
C912 O942 1.325 . S
N913 C916 1.314 1_545 S
N913 C917 1.279 . S
C914 C912 1.348 1_565 S
C914 C916 1.353 . S
C914 H956 0.929 . S
C915 C912 1.356 . S
C915 C917 1.358 . S
C915 H957 0.930 . S
C916 N913 1.314 1_565 S
C916 C914 1.353 . S
C916 H958 0.930 . S
C917 N913 1.279 . S
C917 C915 1.358 . S
C917 H959 0.930 . S
C918 C919 1.348 . S
C918 C920 1.356 . S
C918 O943 1.325 . S
C919 C918 1.348 . S
C919 C921 1.353 . S
C919 H960 0.929 . S
C920 C918 1.356 . S
C920 C922 1.358 . S
C920 H961 0.930 . S
C921 C919 1.353 . S
C921 N923 1.314 . S
C921 H962 0.930 . S
C922 C920 1.358 . S
C922 N923 1.279 . S
C922 H963 0.930 . S
N923 C921 1.314 . S
N923 C922 1.279 . S
C924 C926 1.353 . S
C924 N927 1.314 . S
C924 H930 0.930 . S
C925 N927 1.279 . S
C925 C928 1.358 . S
C925 H931 0.930 . S
C926 C924 1.353 . S
C926 C929 1.348 . S
C926 H964 0.929 . S
N927 Li882 1.990 . S
N927 C924 1.314 . S
N927 C925 1.279 . S
C928 C925 1.358 . S
C928 C929 1.356 . S
C928 H965 0.930 . S
C929 C926 1.348 . S
C929 C928 1.356 . S
H930 C924 0.930 . S
H931 C925 0.930 . S
C932 N933 1.314 1_545 S
C932 C934 1.353 . S
C932 H938 0.930 . S
N933 Li883 1.990 . S
N933 C932 1.314 1_565 S
N933 C936 1.279 . S
C934 C932 1.353 . S
C934 C937 1.348 1_545 S
C934 H966 0.929 . S
C935 C936 1.358 . S
C935 C937 1.356 . S
C935 H967 0.930 . S
C936 N933 1.279 . S
C936 C935 1.358 . S
C936 H939 0.930 . S
C937 C934 1.348 1_565 S
C937 C935 1.356 . S
H938 C932 0.930 . S
H939 C936 0.930 . S
O940 Li880 1.956 . S
O940 Li881 1.970 1_545 S
O940 Li882 1.961 1_545 S
O940 C884 1.325 . S
O941 Li880 1.970 . S
O941 Li881 1.958 1_545 S
O941 Li883 1.961 1_545 S
O941 C890 1.325 . S
O942 Li880 1.961 . S
O942 Li882 1.956 1_545 S
O942 Li883 1.970 1_545 S
O942 C912 1.325 . S
O943 Li881 1.959 . S
O943 Li882 1.970 . S
O943 Li883 1.956 . S
O943 C918 1.325 . S
H944 C886 0.929 . S
H945 C887 0.940 . S
H946 C888 0.930 . S
H947 C889 0.930 . S
H948 C891 0.930 . S
H949 C893 0.929 . S
H950 C894 0.930 . S
H951 C895 0.930 . S
H952 C898 0.930 . S
H953 C901 0.929 . S
H954 C906 0.929 . S
H955 C907 0.930 . S
H956 C914 0.929 . S
H957 C915 0.930 . S
H958 C916 0.930 . S
H959 C917 0.930 . S
H960 C919 0.929 . S
H961 C920 0.930 . S
H962 C921 0.930 . S
H963 C922 0.930 . S
H964 C926 0.929 . S
H965 C928 0.930 . S
H966 C934 0.929 . S
H967 C935 0.930 . S
Li968 N985 1.990 . S
Li968 O1028 1.956 . S
Li968 O1029 1.970 . S
Li968 O1030 1.961 . S
Li969 N993 1.990 . S
Li969 O1028 1.970 . S
Li969 O1029 1.956 . S
Li969 O1031 1.961 . S
Li970 N1015 1.990 . S
Li970 O1028 1.961 . S
Li970 O1030 1.956 . S
Li970 O1031 1.970 . S
Li971 N1021 1.990 1_554 S
Li971 O1029 1.961 . S
Li971 O1030 1.970 . S
Li971 O1031 1.956 . S
C972 C974 1.348 . S
C972 C975 1.356 . S
C972 O1028 1.325 . S
N973 C976 1.314 . S
N973 C977 1.279 . S
C974 C972 1.348 . S
C974 C976 1.353 . S
C974 H1032 0.929 . S
C975 C972 1.356 . S
C975 C977 1.358 . S
C975 H1033 0.930 . S
C976 N973 1.314 . S
C976 C974 1.353 . S
C976 H1034 0.930 . S
C977 N973 1.279 . S
C977 C975 1.358 . S
C977 H1035 0.930 . S
C978 C981 1.348 . S
C978 C982 1.356 . S
C978 O1029 1.325 . S
C979 N980 1.279 . S
C979 C982 1.358 . S
C979 H1036 0.930 . S
N980 C979 1.279 . S
N980 C983 1.314 . S
C981 C978 1.348 . S
C981 C983 1.353 . S
C981 H1037 0.929 . S
C982 C978 1.356 . S
C982 C979 1.358 . S
C982 H1038 0.930 . S
C983 N980 1.314 . S
C983 C981 1.353 . S
C983 H1039 0.930 . S
C984 N985 1.314 . S
C984 C989 1.353 . S
C984 H990 0.913 1_554 S
N985 Li968 1.990 . S
N985 C984 1.314 . S
N985 C987 1.279 . S
C986 C987 1.358 . S
C986 C988 1.356 . S
C986 H1040 0.930 . S
C987 N985 1.279 . S
C987 C986 1.358 . S
C987 H991 0.930 . S
C988 C986 1.356 . S
C988 C989 1.348 . S
C989 C984 1.353 . S
C989 C988 1.348 . S
C989 H1041 0.929 1_554 S
H990 C984 0.913 1_556 S
H991 C987 0.930 . S
C992 N993 1.314 . S
C992 C994 1.353 . S
C992 H998 0.930 . S
N993 Li969 1.990 . S
N993 C992 1.314 . S
N993 C996 1.279 . S
C994 C992 1.353 . S
C994 C997 1.348 . S
C994 H1042 0.929 . S
C995 C996 1.358 . S
C995 C997 1.356 . S
C995 H1043 0.930 . S
C996 N993 1.279 . S
C996 C995 1.358 . S
C996 H999 0.930 . S
C997 C994 1.348 . S
C997 C995 1.356 . S
H998 C992 0.930 . S
H999 C996 0.930 . S
C1000 C1002 1.348 . S
C1000 C1003 1.356 . S
C1000 O1030 1.325 1_556 S
N1001 C1004 1.314 . S
N1001 C1005 1.279 . S
C1002 C1000 1.348 . S
C1002 C1004 1.353 . S
C1002 H1044 0.929 . S
C1003 C1000 1.356 . S
C1003 C1005 1.358 . S
C1003 H1045 0.930 1_556 S
C1004 N1001 1.314 . S
C1004 C1002 1.353 . S
C1004 H1046 0.930 . S
C1005 N1001 1.279 . S
C1005 C1003 1.358 . S
C1005 H1047 0.930 . S
C1006 C1007 1.348 . S
C1006 C1008 1.356 . S
C1006 O1031 1.325 . S
C1007 C1006 1.348 . S
C1007 C1009 1.353 . S
C1007 H1048 0.929 . S
C1008 C1006 1.356 . S
C1008 C1010 1.358 . S
C1008 H1049 0.930 . S
C1009 C1007 1.353 . S
C1009 N1011 1.314 . S
C1009 H1050 0.930 . S
C1010 C1008 1.358 . S
C1010 N1011 1.279 . S
C1010 H1051 0.930 . S
N1011 C1009 1.314 . S
N1011 C1010 1.279 . S
C1012 C1014 1.353 . S
C1012 N1015 1.314 . S
C1012 H1018 0.930 . S
C1013 N1015 1.279 . S
C1013 C1016 1.358 . S
C1013 H1019 0.930 . S
C1014 C1012 1.353 . S
C1014 C1017 1.348 . S
C1014 H1052 0.929 . S
N1015 Li970 1.990 . S
N1015 C1012 1.314 . S
N1015 C1013 1.279 . S
C1016 C1013 1.358 . S
C1016 C1017 1.356 . S
C1016 H1053 0.930 . S
C1017 C1014 1.348 . S
C1017 C1016 1.356 . S
H1018 C1012 0.930 . S
H1019 C1013 0.930 . S
C1020 N1021 1.314 . S
C1020 C1022 1.353 . S
C1020 H1026 0.930 . S
N1021 Li971 1.990 1_556 S
N1021 C1020 1.314 . S
N1021 C1024 1.279 . S
C1022 C1020 1.353 . S
C1022 C1025 1.348 . S
C1022 H1054 0.929 . S
C1023 C1024 1.358 . S
C1023 C1025 1.356 . S
C1023 H1055 0.930 . S
C1024 N1021 1.279 . S
C1024 C1023 1.358 . S
C1024 H1027 0.930 . S
C1025 C1022 1.348 . S
C1025 C1023 1.356 . S
H1026 C1020 0.930 . S
H1027 C1024 0.930 . S
O1028 Li968 1.956 . S
O1028 Li969 1.970 . S
O1028 Li970 1.961 . S
O1028 C972 1.325 . S
O1029 Li968 1.970 . S
O1029 Li969 1.956 . S
O1029 Li971 1.961 . S
O1029 C978 1.325 . S
O1030 Li968 1.961 . S
O1030 Li970 1.956 . S
O1030 Li971 1.970 . S
O1030 C1000 1.325 1_554 S
O1031 Li969 1.961 . S
O1031 Li970 1.970 . S
O1031 Li971 1.956 . S
O1031 C1006 1.325 . S
H1032 C974 0.929 . S
H1033 C975 0.930 . S
H1034 C976 0.930 . S
H1035 C977 0.930 . S
H1036 C979 0.930 . S
H1037 C981 0.929 . S
H1038 C982 0.930 . S
H1039 C983 0.930 . S
H1040 C986 0.930 . S
H1041 C989 0.929 1_556 S
H1042 C994 0.929 . S
H1043 C995 0.930 . S
H1044 C1002 0.929 . S
H1045 C1003 0.930 1_554 S
H1046 C1004 0.930 . S
H1047 C1005 0.930 . S
H1048 C1007 0.929 . S
H1049 C1008 0.930 . S
H1050 C1009 0.930 . S
H1051 C1010 0.930 . S
H1052 C1014 0.929 . S
H1053 C1016 0.930 . S
H1054 C1022 0.929 . S
H1055 C1023 0.930 . S
Li1056 N1073 1.990 . S
Li1056 O1116 1.956 . S
Li1056 O1117 1.970 . S
Li1056 O1118 1.961 1_554 S
Li1057 N1081 1.990 . S
Li1057 O1116 1.970 . S
Li1057 O1117 1.956 . S
Li1057 O1119 1.961 . S
Li1058 N1103 1.990 . S
Li1058 O1116 1.961 . S
Li1058 O1118 1.956 1_554 S
Li1058 O1119 1.970 . S
Li1059 N1109 1.990 . S
Li1059 O1117 1.961 1_556 S
Li1059 O1118 1.970 . S
Li1059 O1119 1.956 1_556 S
C1060 C1062 1.348 . S
C1060 C1063 1.356 . S
C1060 O1116 1.325 . S
N1061 C1064 1.314 . S
N1061 C1065 1.279 . S
C1062 C1060 1.348 . S
C1062 C1064 1.353 . S
C1062 H1120 0.929 . S
C1063 C1060 1.356 . S
C1063 C1065 1.358 . S
C1063 H1121 0.930 . S
C1064 N1061 1.314 . S
C1064 C1062 1.353 . S
C1064 H1122 0.930 . S
C1065 N1061 1.279 . S
C1065 C1063 1.358 . S
C1065 H1123 0.930 . S
C1066 C1069 1.348 . S
C1066 C1070 1.356 . S
C1066 O1117 1.325 . S
C1067 N1068 1.279 . S
C1067 C1070 1.358 . S
C1067 H1124 0.930 . S
N1068 C1067 1.279 . S
N1068 C1071 1.314 . S
C1069 C1066 1.348 . S
C1069 C1071 1.353 . S
C1069 H1125 0.929 . S
C1070 C1066 1.356 . S
C1070 C1067 1.358 . S
C1070 H1126 0.930 . S
C1071 N1068 1.314 . S
C1071 C1069 1.353 . S
C1071 H1127 0.930 . S
C1072 N1073 1.279 1_556 S
C1072 C1077 1.357 . S
C1072 H1078 0.967 . S
N1073 Li1056 1.990 . S
N1073 C1072 1.279 1_554 S
N1073 C1075 1.279 . S
C1074 C1075 1.358 . S
C1074 C1076 1.356 . S
C1074 H1128 0.930 . S
C1075 N1073 1.279 . S
C1075 C1074 1.358 . S
C1075 H1079 0.930 . S
C1076 C1074 1.356 . S
C1076 C1077 1.348 1_554 S
C1077 C1072 1.357 . S
C1077 C1076 1.348 1_556 S
C1077 H1129 0.929 . S
H1078 C1072 0.967 . S
H1079 C1075 0.930 . S
C1080 N1081 1.314 . S
C1080 C1082 1.353 . S
C1080 H1086 0.930 . S
N1081 Li1057 1.990 . S
N1081 C1080 1.314 . S
N1081 C1084 1.279 . S
C1082 C1080 1.353 . S
C1082 C1085 1.348 . S
C1082 H1130 0.929 . S
C1083 C1084 1.358 . S
C1083 C1085 1.356 . S
C1083 H1131 0.930 . S
C1084 N1081 1.279 . S
C1084 C1083 1.358 . S
C1084 H1087 0.930 . S
C1085 C1082 1.348 . S
C1085 C1083 1.356 . S
H1086 C1080 0.930 . S
H1087 C1084 0.930 . S
C1088 C1090 1.348 . S
C1088 C1091 1.356 . S
C1088 O1118 1.325 . S
N1089 C1092 1.314 . S
N1089 C1093 1.279 . S
C1090 C1088 1.348 . S
C1090 C1092 1.353 . S
C1090 H1132 0.929 . S
C1091 C1088 1.356 . S
C1091 C1093 1.358 . S
C1091 H1133 0.930 . S
C1092 N1089 1.314 . S
C1092 C1090 1.353 . S
C1092 H1134 0.930 . S
C1093 N1089 1.279 . S
C1093 C1091 1.358 . S
C1093 H1135 0.930 . S
C1094 C1095 1.348 . S
C1094 C1096 1.356 . S
C1094 O1119 1.325 . S
C1095 C1094 1.348 . S
C1095 C1097 1.353 . S
C1095 H1136 0.929 . S
C1096 C1094 1.356 . S
C1096 C1098 1.358 . S
C1096 H1137 0.930 . S
C1097 C1095 1.353 . S
C1097 N1099 1.314 . S
C1097 H1138 0.930 . S
C1098 C1096 1.358 . S
C1098 N1099 1.279 . S
C1098 H1139 0.930 . S
N1099 C1097 1.314 . S
N1099 C1098 1.279 . S
C1100 C1102 1.353 . S
C1100 N1103 1.314 . S
C1100 H1106 0.930 . S
C1101 N1103 1.279 . S
C1101 C1104 1.358 . S
C1101 H1107 0.930 1_554 S
C1102 C1100 1.353 . S
C1102 C1105 1.348 . S
C1102 H1140 0.929 . S
N1103 Li1058 1.990 . S
N1103 C1100 1.314 . S
N1103 C1101 1.279 . S
C1104 C1101 1.358 . S
C1104 C1105 1.356 . S
C1104 H1141 0.930 1_554 S
C1105 C1102 1.348 . S
C1105 C1104 1.356 . S
H1106 C1100 0.930 . S
H1107 C1101 0.930 1_556 S
C1108 N1109 1.314 . S
C1108 C1110 1.353 . S
C1108 H1114 0.930 . S
N1109 Li1059 1.990 . S
N1109 C1108 1.314 . S
N1109 C1112 1.279 . S
C1110 C1108 1.353 . S
C1110 C1113 1.348 . S
C1110 H1142 0.929 . S
C1111 C1112 1.358 . S
C1111 C1113 1.356 . S
C1111 H1143 0.930 . S
C1112 N1109 1.279 . S
C1112 C1111 1.358 . S
C1112 H1115 0.930 . S
C1113 C1110 1.348 . S
C1113 C1111 1.356 . S
H1114 C1108 0.930 . S
H1115 C1112 0.930 . S
O1116 Li1056 1.956 . S
O1116 Li1057 1.970 . S
O1116 Li1058 1.961 . S
O1116 C1060 1.325 . S
O1117 Li1056 1.970 . S
O1117 Li1057 1.956 . S
O1117 Li1059 1.961 1_554 S
O1117 C1066 1.325 . S
O1118 Li1056 1.961 1_556 S
O1118 Li1058 1.956 1_556 S
O1118 Li1059 1.970 . S
O1118 C1088 1.325 . S
O1119 Li1057 1.961 . S
O1119 Li1058 1.970 . S
O1119 Li1059 1.956 1_554 S
O1119 C1094 1.325 . S
H1120 C1062 0.929 . S
H1121 C1063 0.930 . S
H1122 C1064 0.930 . S
H1123 C1065 0.930 . S
H1124 C1067 0.930 . S
H1125 C1069 0.929 . S
H1126 C1070 0.930 . S
H1127 C1071 0.930 . S
H1128 C1074 0.930 . S
H1129 C1077 0.929 . S
H1130 C1082 0.929 . S
H1131 C1083 0.930 . S
H1132 C1090 0.929 . S
H1133 C1091 0.930 . S
H1134 C1092 0.930 . S
H1135 C1093 0.930 . S
H1136 C1095 0.929 . S
H1137 C1096 0.930 . S
H1138 C1097 0.930 . S
H1139 C1098 0.930 . S
H1140 C1102 0.929 . S
H1141 C1104 0.930 1_556 S
H1142 C1110 0.929 . S
H1143 C1111 0.930 . S
Li1144 N1161 1.990 . S
Li1144 O1204 1.956 . S
Li1144 O1205 1.970 . S
Li1144 O1206 1.961 . S
Li1145 N1169 1.990 . S
Li1145 O1204 1.970 . S
Li1145 O1205 1.964 . S
Li1145 O1207 1.953 1_554 S
Li1146 N1191 1.990 . S
Li1146 O1204 1.961 1_556 S
Li1146 O1206 1.956 1_556 S
Li1146 O1207 1.970 . S
Li1147 N1197 1.990 . S
Li1147 O1205 1.961 1_556 S
Li1147 O1206 1.970 1_556 S
Li1147 O1207 1.956 . S
C1148 C1150 1.348 . S
C1148 C1151 1.362 . S
C1148 O1204 1.325 . S
N1149 C1152 1.314 . S
N1149 C1153 1.279 . S
C1150 C1148 1.348 . S
C1150 C1152 1.353 . S
C1150 H1208 0.929 . S
C1151 C1148 1.362 . S
C1151 C1153 1.358 . S
C1151 H1209 0.925 1_554 S
C1152 N1149 1.314 . S
C1152 C1150 1.353 . S
C1152 H1210 0.930 . S
C1153 N1149 1.279 . S
C1153 C1151 1.358 . S
C1153 H1211 0.928 1_554 S
C1154 C1157 1.348 . S
C1154 C1158 1.356 . S
C1154 O1205 1.325 . S
C1155 N1156 1.279 . S
C1155 C1158 1.358 . S
C1155 H1212 0.930 . S
N1156 C1155 1.279 . S
N1156 C1159 1.314 . S
C1157 C1154 1.348 . S
C1157 C1159 1.353 . S
C1157 H1213 0.929 . S
C1158 C1154 1.356 . S
C1158 C1155 1.358 . S
C1158 H1214 0.930 . S
C1159 N1156 1.314 . S
C1159 C1157 1.353 . S
C1159 H1215 0.930 . S
C1160 N1161 1.314 . S
C1160 C1165 1.353 . S
C1160 H1166 0.930 . S
N1161 Li1144 1.990 . S
N1161 C1160 1.314 . S
N1161 C1163 1.279 . S
C1162 C1163 1.358 . S
C1162 C1164 1.356 . S
C1162 H1216 0.930 . S
C1163 N1161 1.279 . S
C1163 C1162 1.358 . S
C1163 H1167 0.930 . S
C1164 C1162 1.356 . S
C1164 C1165 1.348 . S
C1165 C1160 1.353 . S
C1165 C1164 1.348 . S
C1165 H1217 0.929 . S
H1166 C1160 0.930 . S
H1167 C1163 0.930 . S
C1168 N1169 1.317 1_556 S
C1168 C1170 1.353 . S
C1168 H1174 0.930 . S
N1169 Li1145 1.990 . S
N1169 C1168 1.317 1_554 S
N1169 C1172 1.277 . S
C1170 C1168 1.353 . S
C1170 C1173 1.348 . S
C1170 H1218 0.929 . S
C1171 C1172 1.358 . S
C1171 C1173 1.356 1_554 S
C1171 H1219 0.930 . S
C1172 N1169 1.277 . S
C1172 C1171 1.358 . S
C1172 H1175 0.930 . S
C1173 C1170 1.348 . S
C1173 C1171 1.356 1_556 S
H1174 C1168 0.930 . S
H1175 C1172 0.930 . S
C1176 C1178 1.336 1_554 S
C1176 C1179 1.364 . S
C1176 O1206 1.327 . S
N1177 C1180 1.315 1_554 S
N1177 C1181 1.278 . S
C1178 C1176 1.336 1_556 S
C1178 C1180 1.353 . S
C1178 H1220 0.929 . S
C1179 C1176 1.364 . S
C1179 C1181 1.358 . S
C1179 H1221 0.930 . S
C1180 N1177 1.315 1_556 S
C1180 C1178 1.353 . S
C1180 H1222 0.930 . S
C1181 N1177 1.278 . S
C1181 C1179 1.358 . S
C1181 H1223 0.930 . S
C1182 C1183 1.348 . S
C1182 C1184 1.356 . S
C1182 O1207 1.325 . S
C1183 C1182 1.348 . S
C1183 C1185 1.353 . S
C1183 H1224 0.929 . S
C1184 C1182 1.356 . S
C1184 C1186 1.358 . S
C1184 H1225 0.930 . S
C1185 C1183 1.353 . S
C1185 N1187 1.314 . S
C1185 H1226 0.930 . S
C1186 C1184 1.358 . S
C1186 N1187 1.279 . S
C1186 H1227 0.930 . S
N1187 C1185 1.314 . S
N1187 C1186 1.279 . S
C1188 C1190 1.353 . S
C1188 N1191 1.314 . S
C1188 H1194 0.930 . S
C1189 N1191 1.279 . S
C1189 C1192 1.358 . S
C1189 H1195 0.930 . S
C1190 C1188 1.353 . S
C1190 C1193 1.348 . S
C1190 H1228 0.929 . S
N1191 Li1146 1.990 . S
N1191 C1188 1.314 . S
N1191 C1189 1.279 . S
C1192 C1189 1.358 . S
C1192 C1193 1.356 . S
C1192 H1229 0.930 . S
C1193 C1190 1.348 . S
C1193 C1192 1.356 . S
H1194 C1188 0.930 . S
H1195 C1189 0.930 . S
C1196 N1197 1.314 1_554 S
C1196 C1198 1.353 . S
C1196 H1202 0.930 . S
N1197 Li1147 1.990 . S
N1197 C1196 1.314 1_556 S
N1197 C1200 1.279 . S
C1198 C1196 1.353 . S
C1198 C1201 1.348 1_554 S
C1198 H1230 0.929 . S
C1199 C1200 1.358 . S
C1199 C1201 1.356 . S
C1199 H1231 0.930 . S
C1200 N1197 1.279 . S
C1200 C1199 1.358 . S
C1200 H1203 0.930 . S
C1201 C1198 1.348 1_556 S
C1201 C1199 1.356 . S
H1202 C1196 0.930 . S
H1203 C1200 0.930 . S
O1204 Li1144 1.956 . S
O1204 Li1145 1.970 . S
O1204 Li1146 1.961 1_554 S
O1204 C1148 1.325 . S
O1205 Li1144 1.970 . S
O1205 Li1145 1.964 . S
O1205 Li1147 1.961 1_554 S
O1205 C1154 1.325 . S
O1206 Li1144 1.961 . S
O1206 Li1146 1.956 1_554 S
O1206 Li1147 1.970 1_554 S
O1206 C1176 1.327 . S
O1207 Li1145 1.953 1_556 S
O1207 Li1146 1.970 . S
O1207 Li1147 1.956 . S
O1207 C1182 1.325 . S
H1208 C1150 0.929 . S
H1209 C1151 0.925 1_556 S
H1210 C1152 0.930 . S
H1211 C1153 0.928 1_556 S
H1212 C1155 0.930 . S
H1213 C1157 0.929 . S
H1214 C1158 0.930 . S
H1215 C1159 0.930 . S
H1216 C1162 0.930 . S
H1217 C1165 0.929 . S
H1218 C1170 0.929 . S
H1219 C1171 0.930 . S
H1220 C1178 0.929 . S
H1221 C1179 0.930 . S
H1222 C1180 0.930 . S
H1223 C1181 0.930 . S
H1224 C1183 0.929 . S
H1225 C1184 0.930 . S
H1226 C1185 0.930 . S
H1227 C1186 0.930 . S
H1228 C1190 0.929 . S
H1229 C1192 0.930 . S
H1230 C1198 0.929 . S
H1231 C1199 0.930 . S
Li1232 N1249 1.990 . S
Li1232 O1292 1.956 . S
Li1232 O1293 1.970 . S
Li1232 O1294 1.961 . S
Li1233 N1257 1.990 . S
Li1233 O1292 1.970 . S
Li1233 O1293 1.956 . S
Li1233 O1295 1.961 . S
Li1234 N1279 1.990 . S
Li1234 O1292 1.961 . S
Li1234 O1294 1.956 . S
Li1234 O1295 1.970 . S
Li1235 N1285 1.990 . S
Li1235 O1293 1.961 . S
Li1235 O1294 1.970 . S
Li1235 O1295 1.956 . S
C1236 C1238 1.348 . S
C1236 C1239 1.356 . S
C1236 O1292 1.325 . S
N1237 C1240 1.314 . S
N1237 C1241 1.279 . S
C1238 C1236 1.348 . S
C1238 C1240 1.353 . S
C1238 H1296 0.929 . S
C1239 C1236 1.356 . S
C1239 C1241 1.358 . S
C1239 H1297 0.930 . S
C1240 N1237 1.314 . S
C1240 C1238 1.353 . S
C1240 H1298 0.930 . S
C1241 N1237 1.279 . S
C1241 C1239 1.358 . S
C1241 H1299 0.930 . S
C1242 C1245 1.348 . S
C1242 C1246 1.356 . S
C1242 O1293 1.325 . S
C1243 N1244 1.279 . S
C1243 C1246 1.358 . S
C1243 H1300 0.930 . S
N1244 C1243 1.279 . S
N1244 C1247 1.314 . S
C1245 C1242 1.348 . S
C1245 C1247 1.353 . S
C1245 H1301 0.929 . S
C1246 C1242 1.356 . S
C1246 C1243 1.358 . S
C1246 H1302 0.930 . S
C1247 N1244 1.314 . S
C1247 C1245 1.353 . S
C1247 H1303 0.930 . S
C1248 N1249 1.314 . S
C1248 C1253 1.353 . S
C1248 H1254 0.930 . S
N1249 Li1232 1.990 . S
N1249 C1248 1.314 . S
N1249 C1251 1.279 . S
C1250 C1251 1.358 . S
C1250 C1252 1.356 . S
C1250 H1304 0.930 . S
C1251 N1249 1.279 . S
C1251 C1250 1.358 . S
C1251 H1255 0.930 . S
C1252 C1250 1.356 . S
C1252 C1253 1.348 . S
C1253 C1248 1.353 . S
C1253 C1252 1.348 . S
C1253 H1305 0.929 . S
H1254 C1248 0.930 . S
H1255 C1251 0.930 . S
C1256 N1257 1.314 . S
C1256 C1258 1.353 . S
C1256 H1262 0.930 . S
N1257 Li1233 1.990 . S
N1257 C1256 1.314 . S
N1257 C1260 1.279 . S
C1258 C1256 1.353 . S
C1258 C1261 1.348 . S
C1258 H1306 0.929 . S
C1259 C1260 1.358 . S
C1259 C1261 1.356 . S
C1259 H1307 0.930 . S
C1260 N1257 1.279 . S
C1260 C1259 1.358 . S
C1260 H1263 0.930 . S
C1261 C1258 1.348 . S
C1261 C1259 1.356 . S
H1262 C1256 0.930 . S
H1263 C1260 0.930 . S
C1264 C1266 1.348 . S
C1264 C1267 1.356 . S
C1264 O1294 1.325 . S
N1265 C1268 1.314 . S
N1265 C1269 1.279 . S
C1266 C1264 1.348 . S
C1266 C1268 1.353 . S
C1266 H1308 0.929 . S
C1267 C1264 1.356 . S
C1267 C1269 1.358 . S
C1267 H1309 0.930 . S
C1268 N1265 1.314 . S
C1268 C1266 1.353 . S
C1268 H1310 0.930 . S
C1269 N1265 1.279 . S
C1269 C1267 1.358 . S
C1269 H1311 0.930 . S
C1270 C1271 1.348 . S
C1270 C1272 1.356 . S
C1270 O1295 1.325 . S
C1271 C1270 1.348 . S
C1271 C1273 1.353 . S
C1271 H1312 0.929 . S
C1272 C1270 1.356 . S
C1272 C1274 1.358 . S
C1272 H1313 0.930 . S
C1273 C1271 1.353 . S
C1273 N1275 1.314 . S
C1273 H1314 0.930 . S
C1274 C1272 1.358 . S
C1274 N1275 1.279 . S
C1274 H1315 0.930 . S
N1275 C1273 1.314 . S
N1275 C1274 1.279 . S
C1276 C1278 1.353 . S
C1276 N1279 1.314 . S
C1276 H1282 0.930 . S
C1277 N1279 1.279 . S
C1277 C1280 1.358 . S
C1277 H1283 0.930 . S
C1278 C1276 1.353 . S
C1278 C1281 1.348 . S
C1278 H1316 0.929 . S
N1279 Li1234 1.990 . S
N1279 C1276 1.314 . S
N1279 C1277 1.279 . S
C1280 C1277 1.358 . S
C1280 C1281 1.356 . S
C1280 H1317 0.930 . S
C1281 C1278 1.348 . S
C1281 C1280 1.356 . S
H1282 C1276 0.930 . S
H1283 C1277 0.930 . S
C1284 N1285 1.314 . S
C1284 C1286 1.353 . S
C1284 H1290 0.930 . S
N1285 Li1235 1.990 . S
N1285 C1284 1.314 . S
N1285 C1288 1.279 . S
C1286 C1284 1.353 . S
C1286 C1289 1.348 . S
C1286 H1318 0.929 . S
C1287 C1288 1.358 . S
C1287 C1289 1.356 . S
C1287 H1319 0.930 . S
C1288 N1285 1.279 . S
C1288 C1287 1.358 . S
C1288 H1291 0.930 . S
C1289 C1286 1.348 . S
C1289 C1287 1.356 . S
H1290 C1284 0.930 . S
H1291 C1288 0.930 . S
O1292 Li1232 1.956 . S
O1292 Li1233 1.970 . S
O1292 Li1234 1.961 . S
O1292 C1236 1.325 . S
O1293 Li1232 1.970 . S
O1293 Li1233 1.956 . S
O1293 Li1235 1.961 . S
O1293 C1242 1.325 . S
O1294 Li1232 1.961 . S
O1294 Li1234 1.956 . S
O1294 Li1235 1.970 . S
O1294 C1264 1.325 . S
O1295 Li1233 1.961 . S
O1295 Li1234 1.970 . S
O1295 Li1235 1.956 . S
O1295 C1270 1.325 . S
H1296 C1238 0.929 . S
H1297 C1239 0.930 . S
H1298 C1240 0.930 . S
H1299 C1241 0.930 . S
H1300 C1243 0.930 . S
H1301 C1245 0.929 . S
H1302 C1246 0.930 . S
H1303 C1247 0.930 . S
H1304 C1250 0.930 . S
H1305 C1253 0.929 . S
H1306 C1258 0.929 . S
H1307 C1259 0.930 . S
H1308 C1266 0.929 . S
H1309 C1267 0.930 . S
H1310 C1268 0.930 . S
H1311 C1269 0.930 . S
H1312 C1271 0.929 . S
H1313 C1272 0.930 . S
H1314 C1273 0.930 . S
H1315 C1274 0.930 . S
H1316 C1278 0.929 . S
H1317 C1280 0.930 . S
H1318 C1286 0.929 . S
H1319 C1287 0.930 . S
Li1320 N1337 1.990 . S
Li1320 O1380 1.956 . S
Li1320 O1381 1.970 . S
Li1320 O1382 1.961 . S
Li1321 N1345 1.990 . S
Li1321 O1380 1.970 . S
Li1321 O1381 1.956 . S
Li1321 O1383 1.961 . S
Li1322 N1367 1.990 . S
Li1322 O1380 1.961 . S
Li1322 O1382 1.956 . S
Li1322 O1383 1.970 . S
Li1323 N1373 1.990 . S
Li1323 O1381 1.961 . S
Li1323 O1382 1.970 . S
Li1323 O1383 1.956 . S
C1324 C1326 1.348 . S
C1324 C1327 1.356 . S
C1324 O1380 1.325 . S
N1325 C1328 1.314 . S
N1325 C1329 1.279 . S
C1326 C1324 1.348 . S
C1326 C1328 1.353 . S
C1326 H1384 0.929 . S
C1327 C1324 1.356 . S
C1327 C1329 1.358 . S
C1327 H1385 0.930 . S
C1328 N1325 1.314 . S
C1328 C1326 1.353 . S
C1328 H1386 0.930 . S
C1329 N1325 1.279 . S
C1329 C1327 1.358 . S
C1329 H1387 0.930 . S
C1330 C1333 1.348 . S
C1330 C1334 1.356 . S
C1330 O1381 1.325 . S
C1331 N1332 1.279 . S
C1331 C1334 1.358 . S
C1331 H1388 0.930 . S
N1332 C1331 1.279 . S
N1332 C1335 1.314 . S
C1333 C1330 1.348 . S
C1333 C1335 1.353 . S
C1333 H1389 0.929 . S
C1334 C1330 1.356 . S
C1334 C1331 1.358 . S
C1334 H1390 0.930 . S
C1335 N1332 1.314 . S
C1335 C1333 1.353 . S
C1335 H1391 0.930 . S
C1336 N1337 1.314 . S
C1336 C1341 1.353 . S
C1336 H1342 0.930 . S
N1337 Li1320 1.990 . S
N1337 C1336 1.314 . S
N1337 C1339 1.279 . S
C1338 C1339 1.358 . S
C1338 C1340 1.356 . S
C1338 H1392 0.930 . S
C1339 N1337 1.279 . S
C1339 C1338 1.358 . S
C1339 H1343 0.930 . S
C1340 C1338 1.356 . S
C1340 C1341 1.348 . S
C1341 C1336 1.353 . S
C1341 C1340 1.348 . S
C1341 H1393 0.929 . S
H1342 C1336 0.930 . S
H1343 C1339 0.930 . S
C1344 N1345 1.314 . S
C1344 C1346 1.353 . S
C1344 H1350 0.930 . S
N1345 Li1321 1.990 . S
N1345 C1344 1.314 . S
N1345 C1348 1.279 . S
C1346 C1344 1.353 . S
C1346 C1349 1.348 . S
C1346 H1394 0.929 . S
C1347 C1348 1.358 . S
C1347 C1349 1.356 . S
C1347 H1395 0.930 . S
C1348 N1345 1.279 . S
C1348 C1347 1.358 . S
C1348 H1351 0.930 . S
C1349 C1346 1.348 . S
C1349 C1347 1.356 . S
H1350 C1344 0.930 . S
H1351 C1348 0.930 . S
C1352 C1354 1.348 . S
C1352 C1355 1.356 . S
C1352 O1382 1.325 . S
N1353 C1356 1.314 . S
N1353 C1357 1.279 . S
C1354 C1352 1.348 . S
C1354 C1356 1.353 . S
C1354 H1396 0.929 . S
C1355 C1352 1.356 . S
C1355 C1357 1.358 . S
C1355 H1397 0.930 . S
C1356 N1353 1.314 . S
C1356 C1354 1.353 . S
C1356 H1398 0.930 . S
C1357 N1353 1.279 . S
C1357 C1355 1.358 . S
C1357 H1399 0.930 . S
C1358 C1359 1.348 . S
C1358 C1360 1.356 . S
C1358 O1383 1.325 . S
C1359 C1358 1.348 . S
C1359 C1361 1.353 . S
C1359 H1400 0.929 . S
C1360 C1358 1.356 . S
C1360 C1362 1.358 . S
C1360 H1401 0.930 . S
C1361 C1359 1.353 . S
C1361 N1363 1.314 . S
C1361 H1402 0.930 . S
C1362 C1360 1.358 . S
C1362 N1363 1.279 . S
C1362 H1403 0.930 . S
N1363 C1361 1.314 . S
N1363 C1362 1.279 . S
C1364 C1366 1.353 . S
C1364 N1367 1.314 . S
C1364 H1370 0.930 . S
C1365 N1367 1.279 . S
C1365 C1368 1.358 . S
C1365 H1371 0.930 . S
C1366 C1364 1.353 . S
C1366 C1369 1.348 . S
C1366 H1404 0.929 . S
N1367 Li1322 1.990 . S
N1367 C1364 1.314 . S
N1367 C1365 1.279 . S
C1368 C1365 1.358 . S
C1368 C1369 1.356 . S
C1368 H1405 0.930 . S
C1369 C1366 1.348 . S
C1369 C1368 1.356 . S
H1370 C1364 0.930 . S
H1371 C1365 0.930 . S
C1372 N1373 1.314 . S
C1372 C1374 1.353 . S
C1372 H1378 0.930 . S
N1373 Li1323 1.990 . S
N1373 C1372 1.314 . S
N1373 C1376 1.279 . S
C1374 C1372 1.353 . S
C1374 C1377 1.348 . S
C1374 H1406 0.929 . S
C1375 C1376 1.358 . S
C1375 C1377 1.356 . S
C1375 H1407 0.930 . S
C1376 N1373 1.279 . S
C1376 C1375 1.358 . S
C1376 H1379 0.930 . S
C1377 C1374 1.348 . S
C1377 C1375 1.356 . S
H1378 C1372 0.930 . S
H1379 C1376 0.930 . S
O1380 Li1320 1.956 . S
O1380 Li1321 1.970 . S
O1380 Li1322 1.961 . S
O1380 C1324 1.325 . S
O1381 Li1320 1.970 . S
O1381 Li1321 1.956 . S
O1381 Li1323 1.961 . S
O1381 C1330 1.325 . S
O1382 Li1320 1.961 . S
O1382 Li1322 1.956 . S
O1382 Li1323 1.970 . S
O1382 C1352 1.325 . S
O1383 Li1321 1.961 . S
O1383 Li1322 1.970 . S
O1383 Li1323 1.956 . S
O1383 C1358 1.325 . S
H1384 C1326 0.929 . S
H1385 C1327 0.930 . S
H1386 C1328 0.930 . S
H1387 C1329 0.930 . S
H1388 C1331 0.930 . S
H1389 C1333 0.929 . S
H1390 C1334 0.930 . S
H1391 C1335 0.930 . S
H1392 C1338 0.930 . S
H1393 C1341 0.929 . S
H1394 C1346 0.929 . S
H1395 C1347 0.930 . S
H1396 C1354 0.929 . S
H1397 C1355 0.930 . S
H1398 C1356 0.930 . S
H1399 C1357 0.930 . S
H1400 C1359 0.929 . S
H1401 C1360 0.930 . S
H1402 C1361 0.930 . S
H1403 C1362 0.930 . S
H1404 C1366 0.929 . S
H1405 C1368 0.930 . S
H1406 C1374 0.929 . S
H1407 C1375 0.930 . S
Li1408 N1425 1.990 . S
Li1408 O1468 1.956 . S
Li1408 O1469 1.970 . S
Li1408 O1470 1.961 . S
Li1409 N1433 1.981 1_545 S
Li1409 O1468 1.970 . S
Li1409 O1469 1.956 . S
Li1409 O1471 1.961 . S
Li1410 N1455 1.990 . S
Li1410 O1468 1.961 . S
Li1410 O1470 1.956 . S
Li1410 O1471 1.970 . S
Li1411 N1461 1.990 . S
Li1411 O1469 1.961 . S
Li1411 O1470 1.970 . S
Li1411 O1471 1.956 . S
C1412 C1414 1.348 1_545 S
C1412 C1415 1.356 . S
C1412 O1468 1.325 . S
N1413 C1416 1.314 . S
N1413 C1417 1.294 . S
C1414 C1412 1.348 1_565 S
C1414 C1416 1.353 . S
C1414 H1472 0.929 . S
C1415 C1412 1.356 . S
C1415 C1417 1.345 1_545 S
C1415 H1473 0.930 . S
C1416 N1413 1.314 . S
C1416 C1414 1.353 . S
C1416 H1474 0.930 . S
C1417 N1413 1.294 . S
C1417 C1415 1.345 1_565 S
C1417 H1475 0.929 1_565 S
C1418 C1421 1.348 . S
C1418 C1422 1.356 . S
C1418 O1469 1.325 . S
C1419 N1420 1.279 . S
C1419 C1422 1.358 . S
C1419 H1476 0.930 . S
N1420 C1419 1.279 . S
N1420 C1423 1.314 . S
C1421 C1418 1.348 . S
C1421 C1423 1.353 . S
C1421 H1477 0.929 . S
C1422 C1418 1.356 . S
C1422 C1419 1.358 . S
C1422 H1478 0.930 . S
C1423 N1420 1.314 . S
C1423 C1421 1.353 . S
C1423 H1479 0.930 . S
C1424 N1425 1.314 . S
C1424 C1429 1.353 . S
C1424 H1430 0.930 . S
N1425 Li1408 1.990 . S
N1425 C1424 1.314 . S
N1425 C1427 1.279 . S
C1426 C1427 1.358 . S
C1426 C1428 1.356 . S
C1426 H1480 0.930 . S
C1427 N1425 1.279 . S
C1427 C1426 1.358 . S
C1427 H1431 0.930 . S
C1428 C1426 1.356 . S
C1428 C1429 1.348 . S
C1429 C1424 1.353 . S
C1429 C1428 1.348 . S
C1429 H1481 0.929 . S
H1430 C1424 0.930 . S
H1431 C1427 0.930 . S
C1432 N1433 1.321 . S
C1432 C1434 1.353 . S
C1432 H1438 0.930 . S
N1433 Li1409 1.981 1_565 S
N1433 C1432 1.321 . S
N1433 C1436 1.284 . S
C1434 C1432 1.353 . S
C1434 C1437 1.348 . S
C1434 H1482 0.929 . S
C1435 C1436 1.358 . S
C1435 C1437 1.356 . S
C1435 H1483 0.930 . S
C1436 N1433 1.284 . S
C1436 C1435 1.358 . S
C1436 H1439 0.930 1_565 S
C1437 C1434 1.348 . S
C1437 C1435 1.356 . S
H1438 C1432 0.930 . S
H1439 C1436 0.930 1_545 S
C1440 C1442 1.348 . S
C1440 C1443 1.356 . S
C1440 O1470 1.325 . S
N1441 C1444 1.314 . S
N1441 C1445 1.279 . S
C1442 C1440 1.348 . S
C1442 C1444 1.353 . S
C1442 H1484 0.929 . S
C1443 C1440 1.356 . S
C1443 C1445 1.358 . S
C1443 H1485 0.930 . S
C1444 N1441 1.314 . S
C1444 C1442 1.353 . S
C1444 H1486 0.930 . S
C1445 N1441 1.279 . S
C1445 C1443 1.358 . S
C1445 H1487 0.930 . S
C1446 C1447 1.348 . S
C1446 C1448 1.356 . S
C1446 O1471 1.325 . S
C1447 C1446 1.348 . S
C1447 C1449 1.353 . S
C1447 H1488 0.929 . S
C1448 C1446 1.356 . S
C1448 C1450 1.358 . S
C1448 H1489 0.930 . S
C1449 C1447 1.353 . S
C1449 N1451 1.314 . S
C1449 H1490 0.930 . S
C1450 C1448 1.358 . S
C1450 N1451 1.279 . S
C1450 H1491 0.930 . S
N1451 C1449 1.314 . S
N1451 C1450 1.279 . S
C1452 C1454 1.353 . S
C1452 N1455 1.314 . S
C1452 H1458 0.930 . S
C1453 N1455 1.279 . S
C1453 C1456 1.358 . S
C1453 H1459 0.930 . S
C1454 C1452 1.353 . S
C1454 C1457 1.348 . S
C1454 H1492 0.929 . S
N1455 Li1410 1.990 . S
N1455 C1452 1.314 . S
N1455 C1453 1.279 . S
C1456 C1453 1.358 . S
C1456 C1457 1.356 . S
C1456 H1493 0.930 . S
C1457 C1454 1.348 . S
C1457 C1456 1.356 . S
H1458 C1452 0.930 . S
H1459 C1453 0.930 . S
C1460 N1461 1.314 . S
C1460 C1462 1.353 . S
C1460 H1466 0.930 . S
N1461 Li1411 1.990 . S
N1461 C1460 1.314 . S
N1461 C1464 1.279 . S
C1462 C1460 1.353 . S
C1462 C1465 1.348 . S
C1462 H1494 0.929 . S
C1463 C1464 1.358 . S
C1463 C1465 1.356 . S
C1463 H1495 0.930 . S
C1464 N1461 1.279 . S
C1464 C1463 1.358 . S
C1464 H1467 0.930 . S
C1465 C1462 1.348 . S
C1465 C1463 1.356 . S
H1466 C1460 0.930 . S
H1467 C1464 0.930 . S
O1468 Li1408 1.956 . S
O1468 Li1409 1.970 . S
O1468 Li1410 1.961 . S
O1468 C1412 1.325 . S
O1469 Li1408 1.970 . S
O1469 Li1409 1.956 . S
O1469 Li1411 1.961 . S
O1469 C1418 1.325 . S
O1470 Li1408 1.961 . S
O1470 Li1410 1.956 . S
O1470 Li1411 1.970 . S
O1470 C1440 1.325 . S
O1471 Li1409 1.961 . S
O1471 Li1410 1.970 . S
O1471 Li1411 1.956 . S
O1471 C1446 1.325 . S
H1472 C1414 0.929 . S
H1473 C1415 0.930 . S
H1474 C1416 0.930 . S
H1475 C1417 0.929 1_545 S
H1476 C1419 0.930 . S
H1477 C1421 0.929 . S
H1478 C1422 0.930 . S
H1479 C1423 0.930 . S
H1480 C1426 0.930 . S
H1481 C1429 0.929 . S
H1482 C1434 0.929 . S
H1483 C1435 0.930 . S
H1484 C1442 0.929 . S
H1485 C1443 0.930 . S
H1486 C1444 0.930 . S
H1487 C1445 0.930 . S
H1488 C1447 0.929 . S
H1489 C1448 0.930 . S
H1490 C1449 0.930 . S
H1491 C1450 0.930 . S
H1492 C1454 0.929 . S
H1493 C1456 0.930 . S
H1494 C1462 0.929 . S
H1495 C1463 0.930 . S
Li1496 N1513 1.990 . S
Li1496 O1556 1.956 . S
Li1496 O1557 1.970 . S
Li1496 O1558 1.961 . S
Li1497 N1521 1.990 . S
Li1497 O1556 1.970 . S
Li1497 O1557 1.956 . S
Li1497 O1559 1.961 . S
Li1498 N1543 1.990 . S
Li1498 O1556 1.961 . S
Li1498 O1558 1.956 . S
Li1498 O1559 1.970 . S
Li1499 N1549 1.990 . S
Li1499 O1557 1.961 . S
Li1499 O1558 1.970 . S
Li1499 O1559 1.956 . S
C1500 C1502 1.348 . S
C1500 C1503 1.356 . S
C1500 O1556 1.325 . S
N1501 C1504 1.314 . S
N1501 C1505 1.279 . S
C1502 C1500 1.348 . S
C1502 C1504 1.353 . S
C1502 H1560 0.929 . S
C1503 C1500 1.356 . S
C1503 C1505 1.358 . S
C1503 H1561 0.930 . S
C1504 N1501 1.314 . S
C1504 C1502 1.353 . S
C1504 H1562 0.930 . S
C1505 N1501 1.279 . S
C1505 C1503 1.358 . S
C1505 H1563 0.930 . S
C1506 C1509 1.348 . S
C1506 C1510 1.356 . S
C1506 O1557 1.325 . S
C1507 N1508 1.279 . S
C1507 C1510 1.358 . S
C1507 H1564 0.930 . S
N1508 C1507 1.279 . S
N1508 C1511 1.314 . S
C1509 C1506 1.348 . S
C1509 C1511 1.353 . S
C1509 H1565 0.929 . S
C1510 C1506 1.356 . S
C1510 C1507 1.358 . S
C1510 H1566 0.930 . S
C1511 N1508 1.314 . S
C1511 C1509 1.353 . S
C1511 H1567 0.930 . S
C1512 N1513 1.314 . S
C1512 C1517 1.353 . S
C1512 H1518 0.930 . S
N1513 Li1496 1.990 . S
N1513 C1512 1.314 . S
N1513 C1515 1.279 . S
C1514 C1515 1.358 . S
C1514 C1516 1.356 . S
C1514 H1568 0.930 . S
C1515 N1513 1.279 . S
C1515 C1514 1.358 . S
C1515 H1519 0.930 . S
C1516 C1514 1.356 . S
C1516 C1517 1.348 . S
C1517 C1512 1.353 . S
C1517 C1516 1.348 . S
C1517 H1569 0.929 . S
H1518 C1512 0.930 . S
H1519 C1515 0.930 . S
C1520 N1521 1.314 . S
C1520 C1522 1.353 . S
C1520 H1526 0.930 . S
N1521 Li1497 1.990 . S
N1521 C1520 1.314 . S
N1521 C1524 1.279 . S
C1522 C1520 1.353 . S
C1522 C1525 1.348 . S
C1522 H1570 0.929 . S
C1523 C1524 1.358 . S
C1523 C1525 1.356 . S
C1523 H1571 0.930 . S
C1524 N1521 1.279 . S
C1524 C1523 1.358 . S
C1524 H1527 0.930 . S
C1525 C1522 1.348 . S
C1525 C1523 1.356 . S
H1526 C1520 0.930 . S
H1527 C1524 0.930 . S
C1528 C1530 1.348 . S
C1528 C1531 1.356 . S
C1528 O1558 1.325 . S
N1529 C1532 1.314 . S
N1529 C1533 1.279 . S
C1530 C1528 1.348 . S
C1530 C1532 1.353 . S
C1530 H1572 0.929 . S
C1531 C1528 1.356 . S
C1531 C1533 1.358 . S
C1531 H1573 0.930 . S
C1532 N1529 1.314 . S
C1532 C1530 1.353 . S
C1532 H1574 0.930 . S
C1533 N1529 1.279 . S
C1533 C1531 1.358 . S
C1533 H1575 0.930 . S
C1534 C1535 1.348 . S
C1534 C1536 1.356 . S
C1534 O1559 1.325 . S
C1535 C1534 1.348 . S
C1535 C1537 1.353 . S
C1535 H1576 0.929 . S
C1536 C1534 1.356 . S
C1536 C1538 1.358 . S
C1536 H1577 0.930 . S
C1537 C1535 1.353 . S
C1537 N1539 1.314 . S
C1537 H1578 0.930 . S
C1538 C1536 1.358 . S
C1538 N1539 1.279 . S
C1538 H1579 0.930 . S
N1539 C1537 1.314 . S
N1539 C1538 1.279 . S
C1540 C1542 1.353 . S
C1540 N1543 1.314 . S
C1540 H1546 0.930 . S
C1541 N1543 1.279 . S
C1541 C1544 1.358 . S
C1541 H1547 0.930 . S
C1542 C1540 1.353 . S
C1542 C1545 1.348 . S
C1542 H1580 0.929 . S
N1543 Li1498 1.990 . S
N1543 C1540 1.314 . S
N1543 C1541 1.279 . S
C1544 C1541 1.358 . S
C1544 C1545 1.356 . S
C1544 H1581 0.930 . S
C1545 C1542 1.348 . S
C1545 C1544 1.356 . S
H1546 C1540 0.930 . S
H1547 C1541 0.930 . S
C1548 N1549 1.314 . S
C1548 C1550 1.353 . S
C1548 H1554 0.930 . S
N1549 Li1499 1.990 . S
N1549 C1548 1.314 . S
N1549 C1552 1.279 . S
C1550 C1548 1.353 . S
C1550 C1553 1.348 . S
C1550 H1582 0.929 . S
C1551 C1552 1.358 . S
C1551 C1553 1.356 . S
C1551 H1583 0.930 . S
C1552 N1549 1.279 . S
C1552 C1551 1.358 . S
C1552 H1555 0.930 . S
C1553 C1550 1.348 . S
C1553 C1551 1.356 . S
H1554 C1548 0.930 . S
H1555 C1552 0.930 . S
O1556 Li1496 1.956 . S
O1556 Li1497 1.970 . S
O1556 Li1498 1.961 . S
O1556 C1500 1.325 . S
O1557 Li1496 1.970 . S
O1557 Li1497 1.956 . S
O1557 Li1499 1.961 . S
O1557 C1506 1.325 . S
O1558 Li1496 1.961 . S
O1558 Li1498 1.956 . S
O1558 Li1499 1.970 . S
O1558 C1528 1.325 . S
O1559 Li1497 1.961 . S
O1559 Li1498 1.970 . S
O1559 Li1499 1.956 . S
O1559 C1534 1.325 . S
H1560 C1502 0.929 . S
H1561 C1503 0.930 . S
H1562 C1504 0.930 . S
H1563 C1505 0.930 . S
H1564 C1507 0.930 . S
H1565 C1509 0.929 . S
H1566 C1510 0.930 . S
H1567 C1511 0.930 . S
H1568 C1514 0.930 . S
H1569 C1517 0.929 . S
H1570 C1522 0.929 . S
H1571 C1523 0.930 . S
H1572 C1530 0.929 . S
H1573 C1531 0.930 . S
H1574 C1532 0.930 . S
H1575 C1533 0.930 . S
H1576 C1535 0.929 . S
H1577 C1536 0.930 . S
H1578 C1537 0.930 . S
H1579 C1538 0.930 . S
H1580 C1542 0.929 . S
H1581 C1544 0.930 . S
H1582 C1550 0.929 . S
H1583 C1551 0.930 . S
Li1584 N1601 1.990 . S
Li1584 O1644 1.956 . S
Li1584 O1645 1.970 . S
Li1584 O1646 1.961 . S
Li1585 N1609 1.990 . S
Li1585 O1644 1.970 . S
Li1585 O1645 1.956 . S
Li1585 O1647 1.961 . S
Li1586 N1631 1.990 . S
Li1586 O1644 1.961 . S
Li1586 O1646 1.956 . S
Li1586 O1647 1.970 . S
Li1587 N1637 1.990 . S
Li1587 O1645 1.961 . S
Li1587 O1646 1.970 . S
Li1587 O1647 1.956 . S
C1588 C1590 1.348 . S
C1588 C1591 1.356 . S
C1588 O1644 1.325 . S
N1589 C1592 1.314 . S
N1589 C1593 1.279 . S
C1590 C1588 1.348 . S
C1590 C1592 1.353 . S
C1590 H1648 0.929 . S
C1591 C1588 1.356 . S
C1591 C1593 1.358 . S
C1591 H1649 0.930 . S
C1592 N1589 1.314 . S
C1592 C1590 1.353 . S
C1592 H1650 0.930 . S
C1593 N1589 1.279 . S
C1593 C1591 1.358 . S
C1593 H1651 0.930 . S
C1594 C1597 1.348 . S
C1594 C1598 1.356 . S
C1594 O1645 1.325 . S
C1595 N1596 1.279 . S
C1595 C1598 1.358 . S
C1595 H1652 0.930 . S
N1596 C1595 1.279 . S
N1596 C1599 1.314 . S
C1597 C1594 1.348 . S
C1597 C1599 1.353 . S
C1597 H1653 0.929 . S
C1598 C1594 1.356 . S
C1598 C1595 1.358 . S
C1598 H1654 0.930 . S
C1599 N1596 1.314 . S
C1599 C1597 1.353 . S
C1599 H1655 0.930 . S
C1600 N1601 1.314 . S
C1600 C1605 1.353 . S
C1600 H1606 0.930 . S
N1601 Li1584 1.990 . S
N1601 C1600 1.314 . S
N1601 C1603 1.279 . S
C1602 C1603 1.358 . S
C1602 C1604 1.356 . S
C1602 H1656 0.930 . S
C1603 N1601 1.279 . S
C1603 C1602 1.358 . S
C1603 H1607 0.930 . S
C1604 C1602 1.356 . S
C1604 C1605 1.348 . S
C1605 C1600 1.353 . S
C1605 C1604 1.348 . S
C1605 H1657 0.929 . S
H1606 C1600 0.930 . S
H1607 C1603 0.930 . S
C1608 N1609 1.314 . S
C1608 C1610 1.353 . S
C1608 H1614 0.930 . S
N1609 Li1585 1.990 . S
N1609 C1608 1.314 . S
N1609 C1612 1.279 . S
C1610 C1608 1.353 . S
C1610 C1613 1.348 . S
C1610 H1658 0.929 . S
C1611 C1612 1.358 . S
C1611 C1613 1.356 . S
C1611 H1659 0.930 . S
C1612 N1609 1.279 . S
C1612 C1611 1.358 . S
C1612 H1615 0.930 . S
C1613 C1610 1.348 . S
C1613 C1611 1.356 . S
H1614 C1608 0.930 . S
H1615 C1612 0.930 . S
C1616 C1618 1.348 . S
C1616 C1619 1.356 . S
C1616 O1646 1.325 . S
N1617 C1620 1.314 . S
N1617 C1621 1.279 . S
C1618 C1616 1.348 . S
C1618 C1620 1.353 . S
C1618 H1660 0.929 . S
C1619 C1616 1.356 . S
C1619 C1621 1.358 . S
C1619 H1661 0.930 . S
C1620 N1617 1.314 . S
C1620 C1618 1.353 . S
C1620 H1662 0.930 . S
C1621 N1617 1.279 . S
C1621 C1619 1.358 . S
C1621 H1663 0.930 . S
C1622 C1623 1.348 . S
C1622 C1624 1.356 . S
C1622 O1647 1.325 . S
C1623 C1622 1.348 . S
C1623 C1625 1.353 . S
C1623 H1664 0.929 . S
C1624 C1622 1.356 . S
C1624 C1626 1.358 . S
C1624 H1665 0.930 . S
C1625 C1623 1.353 . S
C1625 N1627 1.314 . S
C1625 H1666 0.930 . S
C1626 C1624 1.358 . S
C1626 N1627 1.279 . S
C1626 H1667 0.930 . S
N1627 C1625 1.314 . S
N1627 C1626 1.279 . S
C1628 C1630 1.353 . S
C1628 N1631 1.314 . S
C1628 H1634 0.930 . S
C1629 N1631 1.279 . S
C1629 C1632 1.358 . S
C1629 H1635 0.930 . S
C1630 C1628 1.353 . S
C1630 C1633 1.348 . S
C1630 H1668 0.929 . S
N1631 Li1586 1.990 . S
N1631 C1628 1.314 . S
N1631 C1629 1.279 . S
C1632 C1629 1.358 . S
C1632 C1633 1.356 . S
C1632 H1669 0.930 . S
C1633 C1630 1.348 . S
C1633 C1632 1.356 . S
H1634 C1628 0.930 . S
H1635 C1629 0.930 . S
C1636 N1637 1.314 . S
C1636 C1638 1.353 . S
C1636 H1642 0.930 . S
N1637 Li1587 1.990 . S
N1637 C1636 1.314 . S
N1637 C1640 1.279 . S
C1638 C1636 1.353 . S
C1638 C1641 1.348 . S
C1638 H1670 0.929 . S
C1639 C1640 1.358 . S
C1639 C1641 1.356 . S
C1639 H1671 0.930 . S
C1640 N1637 1.279 . S
C1640 C1639 1.358 . S
C1640 H1643 0.930 . S
C1641 C1638 1.348 . S
C1641 C1639 1.356 . S
H1642 C1636 0.930 . S
H1643 C1640 0.930 . S
O1644 Li1584 1.956 . S
O1644 Li1585 1.970 . S
O1644 Li1586 1.961 . S
O1644 C1588 1.325 . S
O1645 Li1584 1.970 . S
O1645 Li1585 1.956 . S
O1645 Li1587 1.961 . S
O1645 C1594 1.325 . S
O1646 Li1584 1.961 . S
O1646 Li1586 1.956 . S
O1646 Li1587 1.970 . S
O1646 C1616 1.325 . S
O1647 Li1585 1.961 . S
O1647 Li1586 1.970 . S
O1647 Li1587 1.956 . S
O1647 C1622 1.325 . S
H1648 C1590 0.929 . S
H1649 C1591 0.930 . S
H1650 C1592 0.930 . S
H1651 C1593 0.930 . S
H1652 C1595 0.930 . S
H1653 C1597 0.929 . S
H1654 C1598 0.930 . S
H1655 C1599 0.930 . S
H1656 C1602 0.930 . S
H1657 C1605 0.929 . S
H1658 C1610 0.929 . S
H1659 C1611 0.930 . S
H1660 C1618 0.929 . S
H1661 C1619 0.930 . S
H1662 C1620 0.930 . S
H1663 C1621 0.930 . S
H1664 C1623 0.929 . S
H1665 C1624 0.930 . S
H1666 C1625 0.930 . S
H1667 C1626 0.930 . S
H1668 C1630 0.929 . S
H1669 C1632 0.930 . S
H1670 C1638 0.929 . S
H1671 C1639 0.930 . S
Li1672 N1689 1.990 . S
Li1672 O1732 1.956 . S
Li1672 O1733 1.970 . S
Li1672 O1734 1.976 . S
Li1673 N1697 1.990 . S
Li1673 O1732 1.970 . S
Li1673 O1733 1.956 . S
Li1673 O1735 1.961 . S
Li1674 N1719 1.990 . S
Li1674 O1732 1.961 . S
Li1674 O1734 1.972 . S
Li1674 O1735 1.970 . S
Li1675 N1725 1.990 1_545 S
Li1675 O1733 1.961 . S
Li1675 O1734 1.971 . S
Li1675 O1735 1.956 . S
C1676 C1678 1.348 . S
C1676 C1679 1.356 . S
C1676 O1732 1.325 . S
N1677 C1680 1.314 . S
N1677 C1681 1.279 . S
C1678 C1676 1.348 . S
C1678 C1680 1.353 . S
C1678 H1736 0.929 . S
C1679 C1676 1.356 . S
C1679 C1681 1.358 . S
C1679 H1737 0.930 . S
C1680 N1677 1.314 . S
C1680 C1678 1.353 . S
C1680 H1738 0.930 . S
C1681 N1677 1.279 . S
C1681 C1679 1.358 . S
C1681 H1739 0.930 . S
C1682 C1685 1.348 . S
C1682 C1686 1.356 . S
C1682 O1733 1.325 . S
C1683 N1684 1.279 . S
C1683 C1686 1.358 . S
C1683 H1740 0.930 . S
N1684 C1683 1.279 . S
N1684 C1687 1.314 . S
C1685 C1682 1.348 . S
C1685 C1687 1.353 . S
C1685 H1741 0.929 . S
C1686 C1682 1.356 . S
C1686 C1683 1.358 . S
C1686 H1742 0.930 . S
C1687 N1684 1.314 . S
C1687 C1685 1.353 . S
C1687 H1743 0.930 . S
C1688 N1689 1.314 . S
C1688 C1693 1.353 . S
C1688 H1694 0.930 1_545 S
N1689 Li1672 1.990 . S
N1689 C1688 1.314 . S
N1689 C1691 1.279 . S
C1690 C1691 1.358 . S
C1690 C1692 1.356 . S
C1690 H1744 0.930 . S
C1691 N1689 1.279 . S
C1691 C1690 1.358 . S
C1691 H1695 0.930 . S
C1692 C1690 1.356 . S
C1692 C1693 1.348 . S
C1693 C1688 1.353 . S
C1693 C1692 1.348 . S
C1693 H1745 0.929 1_545 S
H1694 C1688 0.930 1_565 S
H1695 C1691 0.930 . S
C1696 N1697 1.314 . S
C1696 C1698 1.353 . S
C1696 H1702 0.930 . S
N1697 Li1673 1.990 . S
N1697 C1696 1.314 . S
N1697 C1700 1.279 . S
C1698 C1696 1.353 . S
C1698 C1701 1.348 . S
C1698 H1746 0.929 . S
C1699 C1700 1.358 . S
C1699 C1701 1.356 . S
C1699 H1747 0.930 . S
C1700 N1697 1.279 . S
C1700 C1699 1.358 . S
C1700 H1703 0.930 . S
C1701 C1698 1.348 . S
C1701 C1699 1.356 . S
H1702 C1696 0.930 . S
H1703 C1700 0.930 . S
C1704 C1706 1.348 . S
C1704 C1707 1.356 . S
C1704 O1734 1.309 1_565 S
N1705 C1708 1.314 . S
N1705 C1709 1.279 . S
C1706 C1704 1.348 . S
C1706 C1708 1.353 . S
C1706 H1748 0.929 . S
C1707 C1704 1.356 . S
C1707 C1709 1.358 . S
C1707 H1749 0.930 . S
C1708 N1705 1.314 . S
C1708 C1706 1.353 . S
C1708 H1750 0.930 . S
C1709 N1705 1.279 . S
C1709 C1707 1.358 . S
C1709 H1751 0.930 . S
C1710 C1711 1.348 . S
C1710 C1712 1.356 . S
C1710 O1735 1.325 . S
C1711 C1710 1.348 . S
C1711 C1713 1.353 . S
C1711 H1752 0.929 . S
C1712 C1710 1.356 . S
C1712 C1714 1.358 . S
C1712 H1753 0.930 . S
C1713 C1711 1.353 . S
C1713 N1715 1.314 . S
C1713 H1754 0.930 . S
C1714 C1712 1.358 . S
C1714 N1715 1.279 . S
C1714 H1755 0.930 . S
N1715 C1713 1.314 . S
N1715 C1714 1.279 . S
C1716 C1718 1.353 . S
C1716 N1719 1.314 . S
C1716 H1722 0.930 . S
C1717 N1719 1.300 . S
C1717 C1720 1.360 1_545 S
C1717 H1723 0.905 1_545 S
C1718 C1716 1.353 . S
C1718 C1721 1.348 . S
C1718 H1756 0.929 . S
N1719 Li1674 1.990 . S
N1719 C1716 1.314 . S
N1719 C1717 1.300 . S
C1720 C1717 1.360 1_565 S
C1720 C1721 1.356 1_565 S
C1720 H1757 0.930 . S
C1721 C1718 1.348 . S
C1721 C1720 1.356 1_545 S
H1722 C1716 0.930 . S
H1723 C1717 0.905 1_565 S
C1724 N1725 1.314 . S
C1724 C1726 1.353 . S
C1724 H1730 0.930 . S
N1725 Li1675 1.990 1_565 S
N1725 C1724 1.314 . S
N1725 C1728 1.279 . S
C1726 C1724 1.353 . S
C1726 C1729 1.348 . S
C1726 H1758 0.929 . S
C1727 C1728 1.358 . S
C1727 C1729 1.356 . S
C1727 H1759 0.930 . S
C1728 N1725 1.279 . S
C1728 C1727 1.358 . S
C1728 H1731 0.930 . S
C1729 C1726 1.348 . S
C1729 C1727 1.356 . S
H1730 C1724 0.930 . S
H1731 C1728 0.930 . S
O1732 Li1672 1.956 . S
O1732 Li1673 1.970 . S
O1732 Li1674 1.961 . S
O1732 C1676 1.325 . S
O1733 Li1672 1.970 . S
O1733 Li1673 1.956 . S
O1733 Li1675 1.961 . S
O1733 C1682 1.325 . S
O1734 Li1672 1.976 . S
O1734 Li1674 1.972 . S
O1734 Li1675 1.971 . S
O1734 C1704 1.309 1_545 S
O1735 Li1673 1.961 . S
O1735 Li1674 1.970 . S
O1735 Li1675 1.956 . S
O1735 C1710 1.325 . S
H1736 C1678 0.929 . S
H1737 C1679 0.930 . S
H1738 C1680 0.930 . S
H1739 C1681 0.930 . S
H1740 C1683 0.930 . S
H1741 C1685 0.929 . S
H1742 C1686 0.930 . S
H1743 C1687 0.930 . S
H1744 C1690 0.930 . S
H1745 C1693 0.929 1_565 S
H1746 C1698 0.929 . S
H1747 C1699 0.930 . S
H1748 C1706 0.929 . S
H1749 C1707 0.930 . S
H1750 C1708 0.930 . S
H1751 C1709 0.930 . S
H1752 C1711 0.929 . S
H1753 C1712 0.930 . S
H1754 C1713 0.930 . S
H1755 C1714 0.930 . S
H1756 C1718 0.929 . S
H1757 C1720 0.930 . S
H1758 C1726 0.929 . S
H1759 C1727 0.930 . S
Li1760 N1777 1.990 . S
Li1760 O1820 1.956 . S
Li1760 O1821 1.970 . S
Li1760 O1822 1.961 . S
Li1761 N1785 1.990 . S
Li1761 O1820 1.970 . S
Li1761 O1821 1.956 . S
Li1761 O1823 1.961 1_554 S
Li1762 N1807 1.990 . S
Li1762 O1820 1.961 1_556 S
Li1762 O1822 1.956 1_556 S
Li1762 O1823 1.970 . S
Li1763 N1813 1.990 . S
Li1763 O1821 1.961 . S
Li1763 O1822 1.970 . S
Li1763 O1823 1.956 1_554 S
C1764 C1766 1.348 . S
C1764 C1767 1.356 . S
C1764 O1820 1.325 . S
N1765 C1768 1.314 . S
N1765 C1769 1.279 . S
C1766 C1764 1.348 . S
C1766 C1768 1.353 . S
C1766 H1824 0.929 . S
C1767 C1764 1.356 . S
C1767 C1769 1.358 . S
C1767 H1825 0.930 . S
C1768 N1765 1.314 . S
C1768 C1766 1.353 . S
C1768 H1826 0.930 . S
C1769 N1765 1.279 . S
C1769 C1767 1.358 . S
C1769 H1827 0.930 . S
C1770 C1773 1.348 . S
C1770 C1774 1.356 . S
C1770 O1821 1.325 . S
C1771 N1772 1.279 . S
C1771 C1774 1.358 . S
C1771 H1828 0.930 . S
N1772 C1771 1.279 . S
N1772 C1775 1.314 . S
C1773 C1770 1.348 . S
C1773 C1775 1.353 . S
C1773 H1829 0.929 . S
C1774 C1770 1.356 . S
C1774 C1771 1.358 . S
C1774 H1830 0.930 . S
C1775 N1772 1.314 . S
C1775 C1773 1.353 . S
C1775 H1831 0.930 . S
C1776 N1777 1.314 . S
C1776 C1781 1.353 . S
C1776 H1782 0.930 . S
N1777 Li1760 1.990 . S
N1777 C1776 1.314 . S
N1777 C1779 1.279 . S
C1778 C1779 1.358 . S
C1778 C1780 1.356 . S
C1778 H1832 0.930 . S
C1779 N1777 1.279 . S
C1779 C1778 1.358 . S
C1779 H1783 0.930 . S
C1780 C1778 1.356 . S
C1780 C1781 1.348 . S
C1781 C1776 1.353 . S
C1781 C1780 1.348 . S
C1781 H1833 0.929 . S
H1782 C1776 0.930 . S
H1783 C1779 0.930 . S
C1784 N1785 1.314 1_556 S
C1784 C1786 1.353 . S
C1784 H1790 0.930 . S
N1785 Li1761 1.990 . S
N1785 C1784 1.314 1_554 S
N1785 C1788 1.279 . S
C1786 C1784 1.353 . S
C1786 C1789 1.348 1_556 S
C1786 H1834 0.929 . S
C1787 C1788 1.358 . S
C1787 C1789 1.356 . S
C1787 H1835 0.930 . S
C1788 N1785 1.279 . S
C1788 C1787 1.358 . S
C1788 H1791 0.930 . S
C1789 C1786 1.348 1_554 S
C1789 C1787 1.356 . S
H1790 C1784 0.930 . S
H1791 C1788 0.930 . S
C1792 C1794 1.348 . S
C1792 C1795 1.356 . S
C1792 O1822 1.325 . S
N1793 C1796 1.314 . S
N1793 C1797 1.279 . S
C1794 C1792 1.348 . S
C1794 C1796 1.353 . S
C1794 H1836 0.929 . S
C1795 C1792 1.356 . S
C1795 C1797 1.358 . S
C1795 H1837 0.930 . S
C1796 N1793 1.314 . S
C1796 C1794 1.353 . S
C1796 H1838 0.930 . S
C1797 N1793 1.279 . S
C1797 C1795 1.358 . S
C1797 H1839 0.930 . S
C1798 C1799 1.348 . S
C1798 C1800 1.356 . S
C1798 O1823 1.325 . S
C1799 C1798 1.348 . S
C1799 C1801 1.353 . S
C1799 H1840 0.929 . S
C1800 C1798 1.356 . S
C1800 C1802 1.358 . S
C1800 H1841 0.930 . S
C1801 C1799 1.353 . S
C1801 N1803 1.314 . S
C1801 H1842 0.930 . S
C1802 C1800 1.358 . S
C1802 N1803 1.279 . S
C1802 H1843 0.930 . S
N1803 C1801 1.314 . S
N1803 C1802 1.279 . S
C1804 C1806 1.353 . S
C1804 N1807 1.314 . S
C1804 H1810 0.930 . S
C1805 N1807 1.279 . S
C1805 C1808 1.358 . S
C1805 H1811 0.930 . S
C1806 C1804 1.353 . S
C1806 C1809 1.348 . S
C1806 H1844 0.929 . S
N1807 Li1762 1.990 . S
N1807 C1804 1.314 . S
N1807 C1805 1.279 . S
C1808 C1805 1.358 . S
C1808 C1809 1.356 . S
C1808 H1845 0.930 . S
C1809 C1806 1.348 . S
C1809 C1808 1.356 . S
H1810 C1804 0.930 . S
H1811 C1805 0.930 . S
C1812 N1813 1.314 . S
C1812 C1814 1.353 . S
C1812 H1818 0.930 . S
N1813 Li1763 1.990 . S
N1813 C1812 1.314 . S
N1813 C1816 1.279 1_554 S
C1814 C1812 1.353 . S
C1814 C1817 1.348 . S
C1814 H1846 0.929 . S
C1815 C1816 1.358 . S
C1815 C1817 1.356 1_556 S
C1815 H1847 0.930 . S
C1816 N1813 1.279 1_556 S
C1816 C1815 1.358 . S
C1816 H1819 0.930 . S
C1817 C1814 1.348 . S
C1817 C1815 1.356 1_554 S
H1818 C1812 0.930 . S
H1819 C1816 0.930 . S
O1820 Li1760 1.956 . S
O1820 Li1761 1.970 . S
O1820 Li1762 1.961 1_554 S
O1820 C1764 1.325 . S
O1821 Li1760 1.970 . S
O1821 Li1761 1.956 . S
O1821 Li1763 1.961 . S
O1821 C1770 1.325 . S
O1822 Li1760 1.961 . S
O1822 Li1762 1.956 1_554 S
O1822 Li1763 1.970 . S
O1822 C1792 1.325 . S
O1823 Li1761 1.961 1_556 S
O1823 Li1762 1.970 . S
O1823 Li1763 1.956 1_556 S
O1823 C1798 1.325 . S
H1824 C1766 0.929 . S
H1825 C1767 0.930 . S
H1826 C1768 0.930 . S
H1827 C1769 0.930 . S
H1828 C1771 0.930 . S
H1829 C1773 0.929 . S
H1830 C1774 0.930 . S
H1831 C1775 0.930 . S
H1832 C1778 0.930 . S
H1833 C1781 0.929 . S
H1834 C1786 0.929 . S
H1835 C1787 0.930 . S
H1836 C1794 0.929 . S
H1837 C1795 0.930 . S
H1838 C1796 0.930 . S
H1839 C1797 0.930 . S
H1840 C1799 0.929 . S
H1841 C1800 0.930 . S
H1842 C1801 0.930 . S
H1843 C1802 0.930 . S
H1844 C1806 0.929 . S
H1845 C1808 0.930 . S
H1846 C1814 0.929 . S
H1847 C1815 0.930 . S
Li1848 N1865 1.990 . S
Li1848 O1908 1.956 . S
Li1848 O1909 1.970 . S
Li1848 O1910 1.961 . S
Li1849 N1873 1.990 . S
Li1849 O1908 1.970 . S
Li1849 O1909 1.956 . S
Li1849 O1911 1.961 . S
Li1850 N1895 1.990 . S
Li1850 O1908 1.961 . S
Li1850 O1910 1.956 . S
Li1850 O1911 1.970 . S
Li1851 N1901 1.990 . S
Li1851 O1909 1.961 . S
Li1851 O1910 1.970 . S
Li1851 O1911 1.956 . S
C1852 C1854 1.348 . S
C1852 C1855 1.356 . S
C1852 O1908 1.325 . S
N1853 C1856 1.314 . S
N1853 C1857 1.279 . S
C1854 C1852 1.348 . S
C1854 C1856 1.353 . S
C1854 H1912 0.929 . S
C1855 C1852 1.356 . S
C1855 C1857 1.358 . S
C1855 H1913 0.930 . S
C1856 N1853 1.314 . S
C1856 C1854 1.353 . S
C1856 H1914 0.930 . S
C1857 N1853 1.279 . S
C1857 C1855 1.358 . S
C1857 H1915 0.930 . S
C1858 C1861 1.348 . S
C1858 C1862 1.356 . S
C1858 O1909 1.325 . S
C1859 N1860 1.279 . S
C1859 C1862 1.358 . S
C1859 H1916 0.930 . S
N1860 C1859 1.279 . S
N1860 C1863 1.314 . S
C1861 C1858 1.348 . S
C1861 C1863 1.353 . S
C1861 H1917 0.929 . S
C1862 C1858 1.356 . S
C1862 C1859 1.358 . S
C1862 H1918 0.930 . S
C1863 N1860 1.314 . S
C1863 C1861 1.353 . S
C1863 H1919 0.930 . S
C1864 N1865 1.314 . S
C1864 C1869 1.353 . S
C1864 H1870 0.930 . S
N1865 Li1848 1.990 . S
N1865 C1864 1.314 . S
N1865 C1867 1.279 . S
C1866 C1867 1.358 . S
C1866 C1868 1.356 . S
C1866 H1920 0.930 . S
C1867 N1865 1.279 . S
C1867 C1866 1.358 . S
C1867 H1871 0.930 . S
C1868 C1866 1.356 . S
C1868 C1869 1.348 . S
C1869 C1864 1.353 . S
C1869 C1868 1.348 . S
C1869 H1921 0.929 . S
H1870 C1864 0.930 . S
H1871 C1867 0.930 . S
C1872 N1873 1.314 . S
C1872 C1874 1.353 . S
C1872 H1878 0.930 . S
N1873 Li1849 1.990 . S
N1873 C1872 1.314 . S
N1873 C1876 1.279 . S
C1874 C1872 1.353 . S
C1874 C1877 1.348 . S
C1874 H1922 0.929 . S
C1875 C1876 1.358 . S
C1875 C1877 1.356 . S
C1875 H1923 0.930 . S
C1876 N1873 1.279 . S
C1876 C1875 1.358 . S
C1876 H1879 0.930 . S
C1877 C1874 1.348 . S
C1877 C1875 1.356 . S
H1878 C1872 0.930 . S
H1879 C1876 0.930 . S
C1880 C1882 1.348 . S
C1880 C1883 1.356 . S
C1880 O1910 1.325 . S
N1881 C1884 1.314 . S
N1881 C1885 1.279 . S
C1882 C1880 1.348 . S
C1882 C1884 1.353 . S
C1882 H1924 0.929 . S
C1883 C1880 1.356 . S
C1883 C1885 1.358 . S
C1883 H1925 0.930 . S
C1884 N1881 1.314 . S
C1884 C1882 1.353 . S
C1884 H1926 0.930 . S
C1885 N1881 1.279 . S
C1885 C1883 1.358 . S
C1885 H1927 0.930 . S
C1886 C1887 1.348 . S
C1886 C1888 1.356 . S
C1886 O1911 1.325 . S
C1887 C1886 1.348 . S
C1887 C1889 1.353 . S
C1887 H1928 0.929 . S
C1888 C1886 1.356 . S
C1888 C1890 1.358 . S
C1888 H1929 0.930 . S
C1889 C1887 1.353 . S
C1889 N1891 1.314 . S
C1889 H1930 0.930 . S
C1890 C1888 1.358 . S
C1890 N1891 1.279 . S
C1890 H1931 0.930 . S
N1891 C1889 1.314 . S
N1891 C1890 1.279 . S
C1892 C1894 1.353 . S
C1892 N1895 1.314 . S
C1892 H1898 0.930 . S
C1893 N1895 1.279 . S
C1893 C1896 1.358 . S
C1893 H1899 0.930 . S
C1894 C1892 1.353 . S
C1894 C1897 1.348 . S
C1894 H1932 0.929 . S
N1895 Li1850 1.990 . S
N1895 C1892 1.314 . S
N1895 C1893 1.279 . S
C1896 C1893 1.358 . S
C1896 C1897 1.356 . S
C1896 H1933 0.930 . S
C1897 C1894 1.348 . S
C1897 C1896 1.356 . S
H1898 C1892 0.930 . S
H1899 C1893 0.930 . S
C1900 N1901 1.314 . S
C1900 C1902 1.353 . S
C1900 H1906 0.930 . S
N1901 Li1851 1.990 . S
N1901 C1900 1.314 . S
N1901 C1904 1.279 . S
C1902 C1900 1.353 . S
C1902 C1905 1.348 . S
C1902 H1934 0.929 . S
C1903 C1904 1.358 . S
C1903 C1905 1.356 . S
C1903 H1935 0.930 . S
C1904 N1901 1.279 . S
C1904 C1903 1.358 . S
C1904 H1907 0.930 . S
C1905 C1902 1.348 . S
C1905 C1903 1.356 . S
H1906 C1900 0.930 . S
H1907 C1904 0.930 . S
O1908 Li1848 1.956 . S
O1908 Li1849 1.970 . S
O1908 Li1850 1.961 . S
O1908 C1852 1.325 . S
O1909 Li1848 1.970 . S
O1909 Li1849 1.956 . S
O1909 Li1851 1.961 . S
O1909 C1858 1.325 . S
O1910 Li1848 1.961 . S
O1910 Li1850 1.956 . S
O1910 Li1851 1.970 . S
O1910 C1880 1.325 . S
O1911 Li1849 1.961 . S
O1911 Li1850 1.970 . S
O1911 Li1851 1.956 . S
O1911 C1886 1.325 . S
H1912 C1854 0.929 . S
H1913 C1855 0.930 . S
H1914 C1856 0.930 . S
H1915 C1857 0.930 . S
H1916 C1859 0.930 . S
H1917 C1861 0.929 . S
H1918 C1862 0.930 . S
H1919 C1863 0.930 . S
H1920 C1866 0.930 . S
H1921 C1869 0.929 . S
H1922 C1874 0.929 . S
H1923 C1875 0.930 . S
H1924 C1882 0.929 . S
H1925 C1883 0.930 . S
H1926 C1884 0.930 . S
H1927 C1885 0.930 . S
H1928 C1887 0.929 . S
H1929 C1888 0.930 . S
H1930 C1889 0.930 . S
H1931 C1890 0.930 . S
H1932 C1894 0.929 . S
H1933 C1896 0.930 . S
H1934 C1902 0.929 . S
H1935 C1903 0.930 . S
Li1936 N1953 1.990 . S
Li1936 O1996 1.956 . S
Li1936 O1997 1.970 . S
Li1936 O1998 1.961 . S
Li1937 N1961 1.990 . S
Li1937 O1996 1.970 . S
Li1937 O1997 1.956 . S
Li1937 O1999 1.961 . S
Li1938 N1983 1.990 . S
Li1938 O1996 1.961 . S
Li1938 O1998 1.956 . S
Li1938 O1999 1.970 . S
Li1939 N1989 1.990 . S
Li1939 O1997 1.961 . S
Li1939 O1998 1.970 . S
Li1939 O1999 1.956 . S
C1940 C1942 1.348 . S
C1940 C1943 1.356 . S
C1940 O1996 1.325 . S
N1941 C1944 1.314 . S
N1941 C1945 1.279 . S
C1942 C1940 1.348 . S
C1942 C1944 1.353 . S
C1942 H2000 0.929 . S
C1943 C1940 1.356 . S
C1943 C1945 1.358 . S
C1943 H2001 0.930 . S
C1944 N1941 1.314 . S
C1944 C1942 1.353 . S
C1944 H2002 0.930 . S
C1945 N1941 1.279 . S
C1945 C1943 1.358 . S
C1945 H2003 0.930 . S
C1946 C1949 1.348 . S
C1946 C1950 1.356 . S
C1946 O1997 1.325 . S
C1947 N1948 1.279 . S
C1947 C1950 1.358 . S
C1947 H2004 0.930 . S
N1948 C1947 1.279 . S
N1948 C1951 1.314 . S
C1949 C1946 1.348 . S
C1949 C1951 1.353 . S
C1949 H2005 0.929 . S
C1950 C1946 1.356 . S
C1950 C1947 1.358 . S
C1950 H2006 0.930 . S
C1951 N1948 1.314 . S
C1951 C1949 1.353 . S
C1951 H2007 0.930 . S
C1952 N1953 1.314 . S
C1952 C1957 1.353 . S
C1952 H1958 0.930 . S
N1953 Li1936 1.990 . S
N1953 C1952 1.314 . S
N1953 C1955 1.279 . S
C1954 C1955 1.358 . S
C1954 C1956 1.356 . S
C1954 H2008 0.930 . S
C1955 N1953 1.279 . S
C1955 C1954 1.358 . S
C1955 H1959 0.930 . S
C1956 C1954 1.356 . S
C1956 C1957 1.348 . S
C1957 C1952 1.353 . S
C1957 C1956 1.348 . S
C1957 H2009 0.929 . S
H1958 C1952 0.930 . S
H1959 C1955 0.930 . S
C1960 N1961 1.314 . S
C1960 C1962 1.353 . S
C1960 H1966 0.930 . S
N1961 Li1937 1.990 . S
N1961 C1960 1.314 . S
N1961 C1964 1.279 . S
C1962 C1960 1.353 . S
C1962 C1965 1.348 . S
C1962 H2010 0.929 . S
C1963 C1964 1.358 . S
C1963 C1965 1.356 . S
C1963 H2011 0.930 . S
C1964 N1961 1.279 . S
C1964 C1963 1.358 . S
C1964 H1967 0.930 . S
C1965 C1962 1.348 . S
C1965 C1963 1.356 . S
H1966 C1960 0.930 . S
H1967 C1964 0.930 . S
C1968 C1970 1.348 . S
C1968 C1971 1.356 . S
C1968 O1998 1.325 . S
N1969 C1972 1.314 . S
N1969 C1973 1.279 . S
C1970 C1968 1.348 . S
C1970 C1972 1.353 . S
C1970 H2012 0.929 . S
C1971 C1968 1.356 . S
C1971 C1973 1.358 . S
C1971 H2013 0.930 . S
C1972 N1969 1.314 . S
C1972 C1970 1.353 . S
C1972 H2014 0.930 . S
C1973 N1969 1.279 . S
C1973 C1971 1.358 . S
C1973 H2015 0.930 . S
C1974 C1975 1.348 . S
C1974 C1976 1.356 . S
C1974 O1999 1.325 . S
C1975 C1974 1.348 . S
C1975 C1977 1.353 . S
C1975 H2016 0.929 . S
C1976 C1974 1.356 . S
C1976 C1978 1.358 . S
C1976 H2017 0.930 . S
C1977 C1975 1.353 . S
C1977 N1979 1.314 . S
C1977 H2018 0.930 . S
C1978 C1976 1.358 . S
C1978 N1979 1.279 . S
C1978 H2019 0.930 . S
N1979 C1977 1.314 . S
N1979 C1978 1.279 . S
C1980 C1982 1.353 . S
C1980 N1983 1.314 . S
C1980 H1986 0.930 . S
C1981 N1983 1.279 . S
C1981 C1984 1.358 . S
C1981 H1987 0.930 . S
C1982 C1980 1.353 . S
C1982 C1985 1.348 . S
C1982 H2020 0.929 . S
N1983 Li1938 1.990 . S
N1983 C1980 1.314 . S
N1983 C1981 1.279 . S
C1984 C1981 1.358 . S
C1984 C1985 1.356 . S
C1984 H2021 0.930 . S
C1985 C1982 1.348 . S
C1985 C1984 1.356 . S
H1986 C1980 0.930 . S
H1987 C1981 0.930 . S
C1988 N1989 1.314 . S
C1988 C1990 1.353 . S
C1988 H1994 0.930 . S
N1989 Li1939 1.990 . S
N1989 C1988 1.314 . S
N1989 C1992 1.279 . S
C1990 C1988 1.353 . S
C1990 C1993 1.348 . S
C1990 H2022 0.929 . S
C1991 C1992 1.358 . S
C1991 C1993 1.356 . S
C1991 H2023 0.930 . S
C1992 N1989 1.279 . S
C1992 C1991 1.358 . S
C1992 H1995 0.930 . S
C1993 C1990 1.348 . S
C1993 C1991 1.356 . S
H1994 C1988 0.930 . S
H1995 C1992 0.930 . S
O1996 Li1936 1.956 . S
O1996 Li1937 1.970 . S
O1996 Li1938 1.961 . S
O1996 C1940 1.325 . S
O1997 Li1936 1.970 . S
O1997 Li1937 1.956 . S
O1997 Li1939 1.961 . S
O1997 C1946 1.325 . S
O1998 Li1936 1.961 . S
O1998 Li1938 1.956 . S
O1998 Li1939 1.970 . S
O1998 C1968 1.325 . S
O1999 Li1937 1.961 . S
O1999 Li1938 1.970 . S
O1999 Li1939 1.956 . S
O1999 C1974 1.325 . S
H2000 C1942 0.929 . S
H2001 C1943 0.930 . S
H2002 C1944 0.930 . S
H2003 C1945 0.930 . S
H2004 C1947 0.930 . S
H2005 C1949 0.929 . S
H2006 C1950 0.930 . S
H2007 C1951 0.930 . S
H2008 C1954 0.930 . S
H2009 C1957 0.929 . S
H2010 C1962 0.929 . S
H2011 C1963 0.930 . S
H2012 C1970 0.929 . S
H2013 C1971 0.930 . S
H2014 C1972 0.930 . S
H2015 C1973 0.930 . S
H2016 C1975 0.929 . S
H2017 C1976 0.930 . S
H2018 C1977 0.930 . S
H2019 C1978 0.930 . S
H2020 C1982 0.929 . S
H2021 C1984 0.930 . S
H2022 C1990 0.929 . S
H2023 C1991 0.930 . S
Li2024 N2041 1.990 . S
Li2024 O2084 1.956 . S
Li2024 O2085 1.970 . S
Li2024 O2086 1.961 . S
Li2025 N2049 1.990 . S
Li2025 O2084 1.970 . S
Li2025 O2085 1.956 . S
Li2025 O2087 1.961 . S
Li2026 N2071 1.990 . S
Li2026 O2084 1.961 . S
Li2026 O2086 1.956 . S
Li2026 O2087 1.970 . S
Li2027 N2077 1.990 . S
Li2027 O2085 1.961 . S
Li2027 O2086 1.970 . S
Li2027 O2087 1.956 . S
C2028 C2030 1.348 . S
C2028 C2031 1.356 . S
C2028 O2084 1.325 . S
N2029 C2032 1.314 . S
N2029 C2033 1.279 . S
C2030 C2028 1.348 . S
C2030 C2032 1.353 . S
C2030 H2088 0.929 . S
C2031 C2028 1.356 . S
C2031 C2033 1.358 . S
C2031 H2089 0.930 . S
C2032 N2029 1.314 . S
C2032 C2030 1.353 . S
C2032 H2090 0.930 . S
C2033 N2029 1.279 . S
C2033 C2031 1.358 . S
C2033 H2091 0.930 . S
C2034 C2037 1.348 . S
C2034 C2038 1.356 . S
C2034 O2085 1.325 . S
C2035 N2036 1.279 . S
C2035 C2038 1.358 . S
C2035 H2092 0.930 . S
N2036 C2035 1.279 . S
N2036 C2039 1.314 . S
C2037 C2034 1.348 . S
C2037 C2039 1.353 . S
C2037 H2093 0.929 . S
C2038 C2034 1.356 . S
C2038 C2035 1.358 . S
C2038 H2094 0.930 . S
C2039 N2036 1.314 . S
C2039 C2037 1.353 . S
C2039 H2095 0.930 . S
C2040 N2041 1.314 . S
C2040 C2045 1.353 . S
C2040 H2046 0.930 . S
N2041 Li2024 1.990 . S
N2041 C2040 1.314 . S
N2041 C2043 1.279 . S
C2042 C2043 1.358 . S
C2042 C2044 1.356 . S
C2042 H2096 0.930 . S
C2043 N2041 1.279 . S
C2043 C2042 1.358 . S
C2043 H2047 0.930 . S
C2044 C2042 1.356 . S
C2044 C2045 1.348 . S
C2045 C2040 1.353 . S
C2045 C2044 1.348 . S
C2045 H2097 0.929 . S
H2046 C2040 0.930 . S
H2047 C2043 0.930 . S
C2048 N2049 1.314 . S
C2048 C2050 1.353 . S
C2048 H2054 0.930 . S
N2049 Li2025 1.990 . S
N2049 C2048 1.314 . S
N2049 C2052 1.279 . S
C2050 C2048 1.353 . S
C2050 C2053 1.348 . S
C2050 H2098 0.929 . S
C2051 C2052 1.358 . S
C2051 C2053 1.356 . S
C2051 H2099 0.930 . S
C2052 N2049 1.279 . S
C2052 C2051 1.358 . S
C2052 H2055 0.930 . S
C2053 C2050 1.348 . S
C2053 C2051 1.356 . S
H2054 C2048 0.930 . S
H2055 C2052 0.930 . S
C2056 C2058 1.348 . S
C2056 C2059 1.356 . S
C2056 O2086 1.325 . S
N2057 C2060 1.314 . S
N2057 C2061 1.279 . S
C2058 C2056 1.348 . S
C2058 C2060 1.353 . S
C2058 H2100 0.929 . S
C2059 C2056 1.356 . S
C2059 C2061 1.358 . S
C2059 H2101 0.930 . S
C2060 N2057 1.314 . S
C2060 C2058 1.353 . S
C2060 H2102 0.930 . S
C2061 N2057 1.279 . S
C2061 C2059 1.358 . S
C2061 H2103 0.930 . S
C2062 C2063 1.348 . S
C2062 C2064 1.356 . S
C2062 O2087 1.325 . S
C2063 C2062 1.348 . S
C2063 C2065 1.353 . S
C2063 H2104 0.929 . S
C2064 C2062 1.356 . S
C2064 C2066 1.358 . S
C2064 H2105 0.930 . S
C2065 C2063 1.353 . S
C2065 N2067 1.314 . S
C2065 H2106 0.930 . S
C2066 C2064 1.358 . S
C2066 N2067 1.279 . S
C2066 H2107 0.930 . S
N2067 C2065 1.314 . S
N2067 C2066 1.279 . S
C2068 C2070 1.353 . S
C2068 N2071 1.314 . S
C2068 H2074 0.930 . S
C2069 N2071 1.279 . S
C2069 C2072 1.358 . S
C2069 H2075 0.930 . S
C2070 C2068 1.353 . S
C2070 C2073 1.348 . S
C2070 H2108 0.929 . S
N2071 Li2026 1.990 . S
N2071 C2068 1.314 . S
N2071 C2069 1.279 . S
C2072 C2069 1.358 . S
C2072 C2073 1.356 . S
C2072 H2109 0.930 . S
C2073 C2070 1.348 . S
C2073 C2072 1.356 . S
H2074 C2068 0.930 . S
H2075 C2069 0.930 . S
C2076 N2077 1.314 . S
C2076 C2078 1.353 . S
C2076 H2082 0.930 . S
N2077 Li2027 1.990 . S
N2077 C2076 1.314 . S
N2077 C2080 1.279 . S
C2078 C2076 1.353 . S
C2078 C2081 1.348 . S
C2078 H2110 0.929 . S
C2079 C2080 1.358 . S
C2079 C2081 1.356 . S
C2079 H2111 0.930 . S
C2080 N2077 1.279 . S
C2080 C2079 1.358 . S
C2080 H2083 0.930 . S
C2081 C2078 1.348 . S
C2081 C2079 1.356 . S
H2082 C2076 0.930 . S
H2083 C2080 0.930 . S
O2084 Li2024 1.956 . S
O2084 Li2025 1.970 . S
O2084 Li2026 1.961 . S
O2084 C2028 1.325 . S
O2085 Li2024 1.970 . S
O2085 Li2025 1.956 . S
O2085 Li2027 1.961 . S
O2085 C2034 1.325 . S
O2086 Li2024 1.961 . S
O2086 Li2026 1.956 . S
O2086 Li2027 1.970 . S
O2086 C2056 1.325 . S
O2087 Li2025 1.961 . S
O2087 Li2026 1.970 . S
O2087 Li2027 1.956 . S
O2087 C2062 1.325 . S
H2088 C2030 0.929 . S
H2089 C2031 0.930 . S
H2090 C2032 0.930 . S
H2091 C2033 0.930 . S
H2092 C2035 0.930 . S
H2093 C2037 0.929 . S
H2094 C2038 0.930 . S
H2095 C2039 0.930 . S
H2096 C2042 0.930 . S
H2097 C2045 0.929 . S
H2098 C2050 0.929 . S
H2099 C2051 0.930 . S
H2100 C2058 0.929 . S
H2101 C2059 0.930 . S
H2102 C2060 0.930 . S
H2103 C2061 0.930 . S
H2104 C2063 0.929 . S
H2105 C2064 0.930 . S
H2106 C2065 0.930 . S
H2107 C2066 0.930 . S
H2108 C2070 0.929 . S
H2109 C2072 0.930 . S
H2110 C2078 0.929 . S
H2111 C2079 0.930 . S
Dy2112 O2116 2.398 1_554 S
Dy2112 O2117 2.491 . S
Dy2112 O2118 2.403 1_554 S
Dy2112 O2119 2.664 1_654 S
Dy2112 O2123 2.326 1_554 S
Dy2112 O2127 2.310 1_655 S
Dy2112 O2128 2.351 1_545 S
C2113 O2124 1.185 . S
C2113 O2125 1.355 . S
C2114 O2116 1.185 . S
C2114 O2117 1.355 1_556 S
Dy2115 O2119 2.310 1_554 S
Dy2115 O2122 2.351 . S
Dy2115 O2124 2.398 . S
Dy2115 O2125 2.491 . S
Dy2115 O2126 2.403 . S
Dy2115 O2127 2.664 . S
Dy2115 O2129 2.326 1_545 S
O2116 Dy2112 2.398 1_556 S
O2116 C2114 1.185 . S
O2117 Dy2112 2.491 . S
O2117 C2114 1.355 1_554 S
O2118 Dy2112 2.403 1_556 S
O2118 C2120 1.254 1_655 S
O2119 Dy2112 2.664 1_456 S
O2119 Dy2115 2.310 1_556 S
O2119 C2120 1.268 . S
C2120 O2118 1.254 1_455 S
C2120 O2119 1.268 . S
C2121 O2126 1.254 . S
C2121 O2127 1.268 . S
O2122 Dy2115 2.351 . S
O2122 C2130 1.249 . S
O2123 Dy2112 2.326 1_556 S
O2123 C2130 1.267 1_656 S
O2124 C2113 1.185 . S
O2124 Dy2115 2.398 . S
O2125 C2113 1.355 . S
O2125 Dy2115 2.491 . S
O2126 Dy2115 2.403 . S
O2126 C2121 1.254 . S
O2127 Dy2112 2.310 1_455 S
O2127 Dy2115 2.664 . S
O2127 C2121 1.268 . S
O2128 Dy2112 2.351 1_565 S
O2128 C2131 1.249 1_655 S
O2129 Dy2115 2.326 1_565 S
O2129 C2131 1.267 . S
C2130 O2122 1.249 . S
C2130 O2123 1.267 1_454 S
C2131 O2128 1.249 1_455 S
C2131 O2129 1.267 . S
Dy2132 O2136 2.398 . S
Dy2132 O2137 2.491 . S
Dy2132 O2138 2.403 . S
Dy2132 O2139 2.664 . S
Dy2132 O2143 2.326 . S
Dy2132 O2147 2.310 . S
Dy2132 O2148 2.351 . S
C2133 O2144 1.185 . S
C2133 O2145 1.355 . S
C2134 O2136 1.185 . S
C2134 O2137 1.355 . S
Dy2135 O2139 2.310 . S
Dy2135 O2142 2.351 . S
Dy2135 O2144 2.398 . S
Dy2135 O2145 2.491 . S
Dy2135 O2146 2.403 . S
Dy2135 O2147 2.664 . S
Dy2135 O2149 2.326 . S
O2136 Dy2132 2.398 . S
O2136 C2134 1.185 . S
O2137 Dy2132 2.491 . S
O2137 C2134 1.355 . S
O2138 Dy2132 2.403 . S
O2138 C2140 1.254 . S
O2139 Dy2132 2.664 . S
O2139 Dy2135 2.310 . S
O2139 C2140 1.268 . S
C2140 O2138 1.254 . S
C2140 O2139 1.268 . S
C2141 O2146 1.254 . S
C2141 O2147 1.268 . S
O2142 Dy2135 2.351 . S
O2142 C2150 1.249 . S
O2143 Dy2132 2.326 . S
O2143 C2150 1.267 . S
O2144 C2133 1.185 . S
O2144 Dy2135 2.398 . S
O2145 C2133 1.355 . S
O2145 Dy2135 2.491 . S
O2146 Dy2135 2.403 . S
O2146 C2141 1.254 . S
O2147 Dy2132 2.310 . S
O2147 Dy2135 2.664 . S
O2147 C2141 1.268 . S
O2148 Dy2132 2.351 . S
O2148 C2151 1.249 . S
O2149 Dy2135 2.326 . S
O2149 C2151 1.267 . S
C2150 O2142 1.249 . S
C2150 O2143 1.267 . S
C2151 O2148 1.249 . S
C2151 O2149 1.267 . S
Dy2152 O2156 2.398 . S
Dy2152 O2157 2.491 . S
Dy2152 O2158 2.403 . S
Dy2152 O2159 2.664 . S
Dy2152 O2163 2.326 1_545 S
Dy2152 O2167 2.310 . S
Dy2152 O2168 2.351 . S
C2153 O2164 1.185 . S
C2153 O2165 1.355 . S
C2154 O2156 1.212 . S
C2154 O2157 1.358 . S
Dy2155 O2159 2.310 . S
Dy2155 O2162 2.351 1_545 S
Dy2155 O2164 2.398 . S
Dy2155 O2165 2.491 . S
Dy2155 O2166 2.403 . S
Dy2155 O2167 2.664 . S
Dy2155 O2169 2.326 . S
O2156 Dy2152 2.398 . S
O2156 C2154 1.212 . S
O2157 Dy2152 2.491 . S
O2157 C2154 1.358 . S
O2158 Dy2152 2.403 . S
O2158 C2160 1.254 . S
O2159 Dy2152 2.664 . S
O2159 Dy2155 2.310 . S
O2159 C2160 1.268 . S
C2160 O2158 1.254 . S
C2160 O2159 1.268 . S
C2161 O2166 1.254 . S
C2161 O2167 1.268 . S
O2162 Dy2155 2.351 1_565 S
O2162 C2170 1.249 . S
O2163 Dy2152 2.326 1_565 S
O2163 C2170 1.267 . S
O2164 C2153 1.185 . S
O2164 Dy2155 2.398 . S
O2165 C2153 1.355 . S
O2165 Dy2155 2.491 . S
O2166 Dy2155 2.403 . S
O2166 C2161 1.254 . S
O2167 Dy2152 2.310 . S
O2167 Dy2155 2.664 . S
O2167 C2161 1.268 . S
O2168 Dy2152 2.351 . S
O2168 C2171 1.249 . S
O2169 Dy2155 2.326 . S
O2169 C2171 1.267 . S
C2170 O2162 1.249 . S
C2170 O2163 1.267 . S
C2171 O2168 1.249 . S
C2171 O2169 1.267 . S
Dy2172 O2176 2.398 . S
Dy2172 O2177 2.491 . S
Dy2172 O2178 2.403 . S
Dy2172 O2179 2.664 . S
Dy2172 O2183 2.326 . S
Dy2172 O2187 2.310 . S
Dy2172 O2188 2.351 . S
C2173 O2184 1.185 . S
C2173 O2185 1.355 . S
C2174 O2176 1.185 . S
C2174 O2177 1.355 . S
Dy2175 O2179 2.310 . S
Dy2175 O2182 2.351 . S
Dy2175 O2184 2.398 . S
Dy2175 O2185 2.491 . S
Dy2175 O2186 2.403 . S
Dy2175 O2187 2.664 . S
Dy2175 O2189 2.326 . S
O2176 Dy2172 2.398 . S
O2176 C2174 1.185 . S
O2177 Dy2172 2.491 . S
O2177 C2174 1.355 . S
O2178 Dy2172 2.403 . S
O2178 C2180 1.254 . S
O2179 Dy2172 2.664 . S
O2179 Dy2175 2.310 . S
O2179 C2180 1.268 . S
C2180 O2178 1.254 . S
C2180 O2179 1.268 . S
C2181 O2186 1.254 . S
C2181 O2187 1.268 . S
O2182 Dy2175 2.351 . S
O2182 C2190 1.249 . S
O2183 Dy2172 2.326 . S
O2183 C2190 1.267 . S
O2184 C2173 1.185 . S
O2184 Dy2175 2.398 . S
O2185 C2173 1.355 . S
O2185 Dy2175 2.491 . S
O2186 Dy2175 2.403 . S
O2186 C2181 1.254 . S
O2187 Dy2172 2.310 . S
O2187 Dy2175 2.664 . S
O2187 C2181 1.268 . S
O2188 Dy2172 2.351 . S
O2188 C2191 1.249 . S
O2189 Dy2175 2.326 . S
O2189 C2191 1.267 . S
C2190 O2182 1.249 . S
C2190 O2183 1.267 . S
C2191 O2188 1.249 . S
C2191 O2189 1.267 . S
Dy2192 O2196 2.398 . S
Dy2192 O2197 2.491 1_455 S
Dy2192 O2198 2.403 . S
Dy2192 O2199 2.664 . S
Dy2192 O2203 2.326 . S
Dy2192 O2207 2.310 1_455 S
Dy2192 O2208 2.351 1_545 S
C2193 O2204 1.185 . S
C2193 O2205 1.355 . S
C2194 O2196 1.185 1_655 S
C2194 O2197 1.355 . S
Dy2195 O2199 2.310 . S
Dy2195 O2202 2.351 . S
Dy2195 O2204 2.398 . S
Dy2195 O2205 2.491 . S
Dy2195 O2206 2.403 1_455 S
Dy2195 O2207 2.664 1_455 S
Dy2195 O2209 2.364 . S
O2196 Dy2192 2.398 . S
O2196 C2194 1.185 1_455 S
O2197 Dy2192 2.491 1_655 S
O2197 C2194 1.355 . S
O2198 Dy2192 2.403 . S
O2198 C2200 1.254 . S
O2199 Dy2192 2.664 . S
O2199 Dy2195 2.310 . S
O2199 C2200 1.268 . S
C2200 O2198 1.254 . S
C2200 O2199 1.268 . S
C2201 O2206 1.254 . S
C2201 O2207 1.268 . S
O2202 Dy2195 2.351 . S
O2202 C2210 1.249 . S
O2203 Dy2192 2.326 . S
O2203 C2210 1.267 . S
O2204 C2193 1.185 . S
O2204 Dy2195 2.398 . S
O2205 C2193 1.355 . S
O2205 Dy2195 2.491 . S
O2206 Dy2195 2.403 1_655 S
O2206 C2201 1.254 . S
O2207 Dy2192 2.310 1_655 S
O2207 Dy2195 2.664 1_655 S
O2207 C2201 1.268 . S
O2208 Dy2192 2.351 1_565 S
O2208 C2211 1.249 . S
O2209 Dy2195 2.364 . S
O2209 C2211 1.243 1_545 S
C2210 O2202 1.249 . S
C2210 O2203 1.267 . S
C2211 O2208 1.249 . S
C2211 O2209 1.243 1_565 S
Dy2212 O2216 2.398 . S
Dy2212 O2217 2.491 . S
Dy2212 O2218 2.403 . S
Dy2212 O2219 2.664 . S
Dy2212 O2223 2.326 . S
Dy2212 O2227 2.310 . S
Dy2212 O2228 2.351 . S
C2213 O2224 1.185 . S
C2213 O2225 1.355 . S
C2214 O2216 1.185 . S
C2214 O2217 1.355 . S
Dy2215 O2219 2.310 . S
Dy2215 O2222 2.351 . S
Dy2215 O2224 2.398 . S
Dy2215 O2225 2.491 . S
Dy2215 O2226 2.403 . S
Dy2215 O2227 2.664 . S
Dy2215 O2229 2.326 . S
O2216 Dy2212 2.398 . S
O2216 C2214 1.185 . S
O2217 Dy2212 2.491 . S
O2217 C2214 1.355 . S
O2218 Dy2212 2.403 . S
O2218 C2220 1.254 . S
O2219 Dy2212 2.664 . S
O2219 Dy2215 2.310 . S
O2219 C2220 1.268 . S
C2220 O2218 1.254 . S
C2220 O2219 1.268 . S
C2221 O2226 1.254 . S
C2221 O2227 1.268 . S
O2222 Dy2215 2.351 . S
O2222 C2230 1.249 . S
O2223 Dy2212 2.326 . S
O2223 C2230 1.267 . S
O2224 C2213 1.185 . S
O2224 Dy2215 2.398 . S
O2225 C2213 1.355 . S
O2225 Dy2215 2.491 . S
O2226 Dy2215 2.403 . S
O2226 C2221 1.254 . S
O2227 Dy2212 2.310 . S
O2227 Dy2215 2.664 . S
O2227 C2221 1.268 . S
O2228 Dy2212 2.351 . S
O2228 C2231 1.249 . S
O2229 Dy2215 2.326 . S
O2229 C2231 1.267 . S
C2230 O2222 1.249 . S
C2230 O2223 1.267 . S
C2231 O2228 1.249 . S
C2231 O2229 1.267 . S
Dy2232 O2236 2.398 1_545 S
Dy2232 O2237 2.491 . S
Dy2232 O2238 2.403 1_545 S
Dy2232 O2239 2.664 . S
Dy2232 O2243 2.326 . S
Dy2232 O2247 2.310 . S
Dy2232 O2248 2.351 . S
C2233 O2244 1.185 . S
C2233 O2245 1.355 . S
C2234 O2236 1.185 1_545 S
C2234 O2237 1.355 . S
Dy2235 O2239 2.310 1_556 S
Dy2235 O2242 2.351 . S
Dy2235 O2244 2.398 . S
Dy2235 O2245 2.491 . S
Dy2235 O2246 2.383 1_556 S
Dy2235 O2247 2.664 1_556 S
Dy2235 O2249 2.338 . S
O2236 Dy2232 2.398 1_565 S
O2236 C2234 1.185 1_565 S
O2237 Dy2232 2.491 . S
O2237 C2234 1.355 . S
O2238 Dy2232 2.403 1_565 S
O2238 C2240 1.254 . S
O2239 Dy2232 2.664 . S
O2239 Dy2235 2.310 1_554 S
O2239 C2240 1.268 1_545 S
C2240 O2238 1.254 . S
C2240 O2239 1.268 1_565 S
C2241 O2246 1.311 . S
C2241 O2247 1.268 . S
O2242 Dy2235 2.351 . S
O2242 C2250 1.249 1_556 S
O2243 Dy2232 2.326 . S
O2243 C2250 1.267 . S
O2244 C2233 1.185 . S
O2244 Dy2235 2.398 . S
O2245 C2233 1.355 . S
O2245 Dy2235 2.491 . S
O2246 Dy2235 2.383 1_554 S
O2246 C2241 1.311 . S
O2247 Dy2232 2.310 . S
O2247 Dy2235 2.664 1_554 S
O2247 C2241 1.268 . S
O2248 Dy2232 2.351 . S
O2248 C2251 1.249 . S
O2249 Dy2235 2.338 . S
O2249 C2251 1.243 1_556 S
C2250 O2242 1.249 1_554 S
C2250 O2243 1.267 . S
C2251 O2248 1.249 . S
C2251 O2249 1.243 1_554 S
Dy2252 O2256 2.398 . S
Dy2252 O2257 2.491 . S
Dy2252 O2258 2.403 . S
Dy2252 O2259 2.664 . S
Dy2252 O2263 2.326 . S
Dy2252 O2267 2.310 . S
Dy2252 O2268 2.351 . S
C2253 O2264 1.185 . S
C2253 O2265 1.355 . S
C2254 O2256 1.185 . S
C2254 O2257 1.355 . S
Dy2255 O2259 2.310 . S
Dy2255 O2262 2.351 . S
Dy2255 O2264 2.398 . S
Dy2255 O2265 2.491 . S
Dy2255 O2266 2.403 . S
Dy2255 O2267 2.664 . S
Dy2255 O2269 2.326 . S
O2256 Dy2252 2.398 . S
O2256 C2254 1.185 . S
O2257 Dy2252 2.491 . S
O2257 C2254 1.355 . S
O2258 Dy2252 2.403 . S
O2258 C2260 1.254 . S
O2259 Dy2252 2.664 . S
O2259 Dy2255 2.310 . S
O2259 C2260 1.268 . S
C2260 O2258 1.254 . S
C2260 O2259 1.268 . S
C2261 O2266 1.254 . S
C2261 O2267 1.268 . S
O2262 Dy2255 2.351 . S
O2262 C2270 1.249 . S
O2263 Dy2252 2.326 . S
O2263 C2270 1.267 . S
O2264 C2253 1.185 . S
O2264 Dy2255 2.398 . S
O2265 C2253 1.355 . S
O2265 Dy2255 2.491 . S
O2266 Dy2255 2.403 . S
O2266 C2261 1.254 . S
O2267 Dy2252 2.310 . S
O2267 Dy2255 2.664 . S
O2267 C2261 1.268 . S
O2268 Dy2252 2.351 . S
O2268 C2271 1.249 . S
O2269 Dy2255 2.326 . S
O2269 C2271 1.267 . S
C2270 O2262 1.249 . S
C2270 O2263 1.267 . S
C2271 O2268 1.249 . S
C2271 O2269 1.267 . S
Dy2272 O2276 2.398 . S
Dy2272 O2277 2.491 . S
Dy2272 O2278 2.403 . S
Dy2272 O2279 2.664 1_556 S
Dy2272 O2283 2.326 . S
Dy2272 O2287 2.310 1_556 S
Dy2272 O2288 2.351 1_556 S
C2273 O2284 1.185 . S
C2273 O2285 1.355 . S
C2274 O2276 1.185 . S
C2274 O2277 1.355 . S
Dy2275 O2279 2.310 . S
Dy2275 O2282 2.351 . S
Dy2275 O2284 2.398 . S
Dy2275 O2285 2.491 . S
Dy2275 O2286 2.403 . S
Dy2275 O2287 2.664 . S
Dy2275 O2289 2.326 . S
O2276 Dy2272 2.398 . S
O2276 C2274 1.185 . S
O2277 Dy2272 2.491 . S
O2277 C2274 1.355 . S
O2278 Dy2272 2.403 . S
O2278 C2280 1.254 1_556 S
O2279 Dy2272 2.664 1_554 S
O2279 Dy2275 2.310 . S
O2279 C2280 1.268 . S
C2280 O2278 1.254 1_554 S
C2280 O2279 1.268 . S
C2281 O2286 1.254 . S
C2281 O2287 1.268 . S
O2282 Dy2275 2.351 . S
O2282 C2290 1.256 . S
O2283 Dy2272 2.326 . S
O2283 C2290 1.263 1_556 S
O2284 C2273 1.185 . S
O2284 Dy2275 2.398 . S
O2285 C2273 1.355 . S
O2285 Dy2275 2.491 . S
O2286 Dy2275 2.403 . S
O2286 C2281 1.254 . S
O2287 Dy2272 2.310 1_554 S
O2287 Dy2275 2.664 . S
O2287 C2281 1.268 . S
O2288 Dy2272 2.351 1_554 S
O2288 C2291 1.249 . S
O2289 Dy2275 2.326 . S
O2289 C2291 1.267 . S
C2290 O2282 1.256 . S
C2290 O2283 1.263 1_554 S
C2291 O2288 1.249 . S
C2291 O2289 1.267 . S
Dy2292 O2296 2.398 . S
Dy2292 O2297 2.491 . S
Dy2292 O2298 2.403 . S
Dy2292 O2299 2.664 . S
Dy2292 O2303 2.326 . S
Dy2292 O2307 2.310 . S
Dy2292 O2308 2.351 . S
C2293 O2304 1.185 . S
C2293 O2305 1.355 . S
C2294 O2296 1.185 . S
C2294 O2297 1.355 . S
Dy2295 O2299 2.310 . S
Dy2295 O2302 2.351 . S
Dy2295 O2304 2.398 . S
Dy2295 O2305 2.491 . S
Dy2295 O2306 2.403 . S
Dy2295 O2307 2.664 . S
Dy2295 O2309 2.326 . S
O2296 Dy2292 2.398 . S
O2296 C2294 1.185 . S
O2297 Dy2292 2.491 . S
O2297 C2294 1.355 . S
O2298 Dy2292 2.403 . S
O2298 C2300 1.254 . S
O2299 Dy2292 2.664 . S
O2299 Dy2295 2.310 . S
O2299 C2300 1.268 . S
C2300 O2298 1.254 . S
C2300 O2299 1.268 . S
C2301 O2306 1.254 . S
C2301 O2307 1.268 . S
O2302 Dy2295 2.351 . S
O2302 C2310 1.249 . S
O2303 Dy2292 2.326 . S
O2303 C2310 1.267 . S
O2304 C2293 1.185 . S
O2304 Dy2295 2.398 . S
O2305 C2293 1.355 . S
O2305 Dy2295 2.491 . S
O2306 Dy2295 2.403 . S
O2306 C2301 1.254 . S
O2307 Dy2292 2.310 . S
O2307 Dy2295 2.664 . S
O2307 C2301 1.268 . S
O2308 Dy2292 2.351 . S
O2308 C2311 1.249 . S
O2309 Dy2295 2.326 . S
O2309 C2311 1.267 . S
C2310 O2302 1.249 . S
C2310 O2303 1.267 . S
C2311 O2308 1.249 . S
C2311 O2309 1.267 . S
Dy2312 O2316 2.390 1_455 S
Dy2312 O2317 2.491 1_455 S
Dy2312 O2318 2.403 . S
Dy2312 O2319 2.664 . S
Dy2312 O2323 2.326 1_455 S
Dy2312 O2327 2.310 . S
Dy2312 O2328 2.351 . S
C2313 O2324 1.185 . S
C2313 O2325 1.355 . S
C2314 O2316 1.200 . S
C2314 O2317 1.355 . S
Dy2315 O2319 2.310 . S
Dy2315 O2322 2.351 1_455 S
Dy2315 O2324 2.398 . S
Dy2315 O2325 2.491 . S
Dy2315 O2326 2.403 . S
Dy2315 O2327 2.664 . S
Dy2315 O2329 2.326 . S
O2316 Dy2312 2.390 1_655 S
O2316 C2314 1.200 . S
O2317 Dy2312 2.491 1_655 S
O2317 C2314 1.355 . S
O2318 Dy2312 2.403 . S
O2318 C2320 1.254 . S
O2319 Dy2312 2.664 . S
O2319 Dy2315 2.310 . S
O2319 C2320 1.268 . S
C2320 O2318 1.254 . S
C2320 O2319 1.268 . S
C2321 O2326 1.254 . S
C2321 O2327 1.268 . S
O2322 Dy2315 2.351 1_655 S
O2322 C2330 1.249 . S
O2323 Dy2312 2.326 1_655 S
O2323 C2330 1.267 . S
O2324 C2313 1.185 . S
O2324 Dy2315 2.398 . S
O2325 C2313 1.355 . S
O2325 Dy2315 2.491 . S
O2326 Dy2315 2.403 . S
O2326 C2321 1.254 . S
O2327 Dy2312 2.310 . S
O2327 Dy2315 2.664 . S
O2327 C2321 1.268 . S
O2328 Dy2312 2.351 . S
O2328 C2331 1.249 . S
O2329 Dy2315 2.326 . S
O2329 C2331 1.267 . S
C2330 O2322 1.249 . S
C2330 O2323 1.267 . S
C2331 O2328 1.249 . S
C2331 O2329 1.267 . S
Dy2332 O2336 2.398 . S
Dy2332 O2337 2.491 . S
Dy2332 O2338 2.403 . S
Dy2332 O2339 2.664 . S
Dy2332 O2343 2.326 . S
Dy2332 O2347 2.310 . S
Dy2332 O2348 2.351 . S
C2333 O2344 1.185 . S
C2333 O2345 1.355 . S
C2334 O2336 1.185 . S
C2334 O2337 1.355 . S
Dy2335 O2339 2.310 . S
Dy2335 O2342 2.351 . S
Dy2335 O2344 2.398 . S
Dy2335 O2345 2.491 . S
Dy2335 O2346 2.403 . S
Dy2335 O2347 2.664 . S
Dy2335 O2349 2.326 . S
O2336 Dy2332 2.398 . S
O2336 C2334 1.185 . S
O2337 Dy2332 2.491 . S
O2337 C2334 1.355 . S
O2338 Dy2332 2.403 . S
O2338 C2340 1.254 . S
O2339 Dy2332 2.664 . S
O2339 Dy2335 2.310 . S
O2339 C2340 1.268 . S
C2340 O2338 1.254 . S
C2340 O2339 1.268 . S
C2341 O2346 1.254 . S
C2341 O2347 1.268 . S
O2342 Dy2335 2.351 . S
O2342 C2350 1.249 . S
O2343 Dy2332 2.326 . S
O2343 C2350 1.267 . S
O2344 C2333 1.185 . S
O2344 Dy2335 2.398 . S
O2345 C2333 1.355 . S
O2345 Dy2335 2.491 . S
O2346 Dy2335 2.403 . S
O2346 C2341 1.254 . S
O2347 Dy2332 2.310 . S
O2347 Dy2335 2.664 . S
O2347 C2341 1.268 . S
O2348 Dy2332 2.351 . S
O2348 C2351 1.249 . S
O2349 Dy2335 2.326 . S
O2349 C2351 1.267 . S
C2350 O2342 1.249 . S
C2350 O2343 1.267 . S
C2351 O2348 1.249 . S
C2351 O2349 1.267 . S
Dy2352 O2356 2.398 . S
Dy2352 O2357 2.491 . S
Dy2352 O2358 2.403 . S
Dy2352 O2359 2.664 . S
Dy2352 O2363 2.326 . S
Dy2352 O2367 2.310 . S
Dy2352 O2368 2.351 . S
C2353 O2364 1.185 . S
C2353 O2365 1.355 . S
C2354 O2356 1.185 . S
C2354 O2357 1.355 . S
Dy2355 O2359 2.310 . S
Dy2355 O2362 2.351 . S
Dy2355 O2364 2.398 . S
Dy2355 O2365 2.491 . S
Dy2355 O2366 2.403 . S
Dy2355 O2367 2.664 . S
Dy2355 O2369 2.326 . S
O2356 Dy2352 2.398 . S
O2356 C2354 1.185 . S
O2357 Dy2352 2.491 . S
O2357 C2354 1.355 . S
O2358 Dy2352 2.403 . S
O2358 C2360 1.254 . S
O2359 Dy2352 2.664 . S
O2359 Dy2355 2.310 . S
O2359 C2360 1.268 . S
C2360 O2358 1.254 . S
C2360 O2359 1.268 . S
C2361 O2366 1.254 . S
C2361 O2367 1.268 . S
O2362 Dy2355 2.351 . S
O2362 C2370 1.249 . S
O2363 Dy2352 2.326 . S
O2363 C2370 1.267 . S
O2364 C2353 1.185 . S
O2364 Dy2355 2.398 . S
O2365 C2353 1.355 . S
O2365 Dy2355 2.491 . S
O2366 Dy2355 2.403 . S
O2366 C2361 1.254 . S
O2367 Dy2352 2.310 . S
O2367 Dy2355 2.664 . S
O2367 C2361 1.268 . S
O2368 Dy2352 2.351 . S
O2368 C2371 1.249 . S
O2369 Dy2355 2.326 . S
O2369 C2371 1.267 . S
C2370 O2362 1.249 . S
C2370 O2363 1.267 . S
C2371 O2368 1.249 . S
C2371 O2369 1.267 . S
Dy2372 O2376 2.398 . S
Dy2372 O2377 2.491 . S
Dy2372 O2378 2.403 . S
Dy2372 O2379 2.664 . S
Dy2372 O2383 2.326 . S
Dy2372 O2387 2.310 . S
Dy2372 O2388 2.351 . S
C2373 O2384 1.185 . S
C2373 O2385 1.355 . S
C2374 O2376 1.185 . S
C2374 O2377 1.355 . S
Dy2375 O2379 2.310 . S
Dy2375 O2382 2.351 . S
Dy2375 O2384 2.398 . S
Dy2375 O2385 2.491 . S
Dy2375 O2386 2.403 . S
Dy2375 O2387 2.664 . S
Dy2375 O2389 2.326 . S
O2376 Dy2372 2.398 . S
O2376 C2374 1.185 . S
O2377 Dy2372 2.491 . S
O2377 C2374 1.355 . S
O2378 Dy2372 2.403 . S
O2378 C2380 1.254 . S
O2379 Dy2372 2.664 . S
O2379 Dy2375 2.310 . S
O2379 C2380 1.268 . S
C2380 O2378 1.254 . S
C2380 O2379 1.268 . S
C2381 O2386 1.254 . S
C2381 O2387 1.268 . S
O2382 Dy2375 2.351 . S
O2382 C2390 1.249 . S
O2383 Dy2372 2.326 . S
O2383 C2390 1.267 . S
O2384 C2373 1.185 . S
O2384 Dy2375 2.398 . S
O2385 C2373 1.355 . S
O2385 Dy2375 2.491 . S
O2386 Dy2375 2.403 . S
O2386 C2381 1.254 . S
O2387 Dy2372 2.310 . S
O2387 Dy2375 2.664 . S
O2387 C2381 1.268 . S
O2388 Dy2372 2.351 . S
O2388 C2391 1.249 . S
O2389 Dy2375 2.326 . S
O2389 C2391 1.267 . S
C2390 O2382 1.249 . S
C2390 O2383 1.267 . S
C2391 O2388 1.249 . S
C2391 O2389 1.267 . S
Dy2392 O2396 2.398 . S
Dy2392 O2397 2.491 . S
Dy2392 O2398 2.403 . S
Dy2392 O2399 2.664 . S
Dy2392 O2403 2.326 . S
Dy2392 O2407 2.310 . S
Dy2392 O2408 2.351 . S
C2393 O2404 1.185 . S
C2393 O2405 1.355 . S
C2394 O2396 1.185 . S
C2394 O2397 1.355 . S
Dy2395 O2399 2.310 . S
Dy2395 O2402 2.351 . S
Dy2395 O2404 2.398 . S
Dy2395 O2405 2.491 . S
Dy2395 O2406 2.403 . S
Dy2395 O2407 2.664 . S
Dy2395 O2409 2.326 . S
O2396 Dy2392 2.398 . S
O2396 C2394 1.185 . S
O2397 Dy2392 2.491 . S
O2397 C2394 1.355 . S
O2398 Dy2392 2.403 . S
O2398 C2400 1.254 . S
O2399 Dy2392 2.664 . S
O2399 Dy2395 2.310 . S
O2399 C2400 1.268 . S
C2400 O2398 1.254 . S
C2400 O2399 1.268 . S
C2401 O2406 1.254 . S
C2401 O2407 1.268 . S
O2402 Dy2395 2.351 . S
O2402 C2410 1.249 . S
O2403 Dy2392 2.326 . S
O2403 C2410 1.267 . S
O2404 C2393 1.185 . S
O2404 Dy2395 2.398 . S
O2405 C2393 1.355 . S
O2405 Dy2395 2.491 . S
O2406 Dy2395 2.403 . S
O2406 C2401 1.254 . S
O2407 Dy2392 2.310 . S
O2407 Dy2395 2.664 . S
O2407 C2401 1.268 . S
O2408 Dy2392 2.351 . S
O2408 C2411 1.249 . S
O2409 Dy2395 2.326 . S
O2409 C2411 1.267 . S
C2410 O2402 1.249 . S
C2410 O2403 1.267 . S
C2411 O2408 1.249 . S
C2411 O2409 1.267 . S
Dy2412 O2416 2.398 1_554 S
Dy2412 O2417 2.491 . S
Dy2412 O2418 2.403 1_554 S
Dy2412 O2419 2.664 1_554 S
Dy2412 O2423 2.326 1_554 S
Dy2412 O2427 2.310 . S
Dy2412 O2428 2.351 . S
C2413 O2424 1.185 . S
C2413 O2425 1.355 . S
C2414 O2416 1.185 . S
C2414 O2417 1.355 1_556 S
Dy2415 O2419 2.310 1_654 S
Dy2415 O2422 2.351 . S
Dy2415 O2424 2.398 . S
Dy2415 O2425 2.491 . S
Dy2415 O2426 2.403 . S
Dy2415 O2427 2.664 1_655 S
Dy2415 O2429 2.326 1_655 S
O2416 Dy2412 2.398 1_556 S
O2416 C2414 1.185 . S
O2417 Dy2412 2.491 . S
O2417 C2414 1.355 1_554 S
O2418 Dy2412 2.403 1_556 S
O2418 C2420 1.254 . S
O2419 Dy2412 2.664 1_556 S
O2419 Dy2415 2.310 1_456 S
O2419 C2420 1.268 . S
C2420 O2418 1.254 . S
C2420 O2419 1.268 . S
C2421 O2426 1.254 1_455 S
C2421 O2427 1.268 . S
O2422 Dy2415 2.351 . S
O2422 C2430 1.249 1_655 S
O2423 Dy2412 2.326 1_556 S
O2423 C2430 1.267 1_556 S
O2424 C2413 1.185 . S
O2424 Dy2415 2.398 . S
O2425 C2413 1.355 . S
O2425 Dy2415 2.491 . S
O2426 Dy2415 2.403 . S
O2426 C2421 1.254 1_655 S
O2427 Dy2412 2.310 . S
O2427 Dy2415 2.664 1_455 S
O2427 C2421 1.268 . S
O2428 Dy2412 2.351 . S
O2428 C2431 1.249 . S
O2429 Dy2415 2.326 1_455 S
O2429 C2431 1.267 . S
C2430 O2422 1.249 1_455 S
C2430 O2423 1.267 1_554 S
C2431 O2428 1.249 . S
C2431 O2429 1.267 . S
H2432 C2444 0.930 . S
H2433 C2446 0.930 . S
H2434 C2447 0.930 . S
H2435 C2451 0.959 . S
H2436 C2451 0.959 . S
H2437 C2451 0.961 . S
H2438 C2452 0.960 . S
H2439 C2452 0.961 . S
H2440 C2452 0.959 . S
H2441 C2455 0.926 1_655 S
H2442 C2456 0.931 . S
H2443 C2458 0.930 . S
C2444 H2432 0.930 . S
C2444 C2445 1.394 1_455 S
C2444 C2449 1.405 . S
C2445 C2444 1.394 1_655 S
C2445 C2446 1.376 . S
C2446 H2433 0.930 . S
C2446 C2445 1.376 . S
C2446 C2447 1.388 . S
C2447 H2434 0.930 . S
C2447 C2446 1.388 . S
C2447 C2448 1.390 . S
C2448 C2447 1.390 . S
C2448 C2449 1.394 1_655 S
C2448 C2454 1.465 1_655 S
C2449 C2444 1.405 . S
C2449 C2448 1.394 1_455 S
C2449 C2450 1.516 1_556 S
C2450 C2449 1.516 1_554 S
C2450 C2451 1.502 . S
C2450 C2452 1.561 1_455 S
C2450 C2453 1.526 1_554 S
C2451 H2435 0.959 . S
C2451 H2436 0.959 . S
C2451 H2437 0.961 . S
C2451 C2450 1.502 . S
C2452 H2438 0.960 . S
C2452 H2439 0.961 . S
C2452 H2440 0.959 . S
C2452 C2450 1.561 1_655 S
C2453 C2450 1.526 1_556 S
C2453 C2454 1.396 . S
C2453 C2458 1.390 1_556 S
C2454 C2448 1.465 1_455 S
C2454 C2453 1.396 . S
C2454 C2455 1.395 . S
C2455 H2441 0.926 1_455 S
C2455 C2454 1.395 . S
C2455 C2456 1.393 . S
C2456 H2442 0.931 . S
C2456 C2455 1.393 . S
C2456 C2457 1.389 . S
C2457 C2456 1.389 . S
C2457 C2458 1.387 1_556 S
C2458 H2443 0.930 . S
C2458 C2453 1.390 1_554 S
C2458 C2457 1.387 1_554 S
H2459 C2471 0.930 . S
H2460 C2473 0.930 . S
H2461 C2474 0.930 . S
H2462 C2478 0.959 . S
H2463 C2478 0.959 . S
H2464 C2478 0.961 . S
H2465 C2479 0.960 . S
H2466 C2479 0.961 . S
H2467 C2479 0.959 . S
H2468 C2482 0.929 . S
H2469 C2483 0.931 . S
H2470 C2485 0.930 . S
C2471 H2459 0.930 . S
C2471 C2472 1.399 . S
C2471 C2476 1.399 . S
C2472 C2471 1.399 . S
C2472 C2473 1.376 . S
C2473 H2460 0.930 . S
C2473 C2472 1.376 . S
C2473 C2474 1.388 . S
C2474 H2461 0.930 . S
C2474 C2473 1.388 . S
C2474 C2475 1.390 . S
C2475 C2474 1.390 . S
C2475 C2476 1.394 . S
C2475 C2481 1.465 . S
C2476 C2471 1.399 . S
C2476 C2475 1.394 . S
C2476 C2477 1.516 . S
C2477 C2476 1.516 . S
C2477 C2478 1.502 . S
C2477 C2479 1.561 . S
C2477 C2480 1.526 . S
C2478 H2462 0.959 . S
C2478 H2463 0.959 . S
C2478 H2464 0.961 . S
C2478 C2477 1.502 . S
C2479 H2465 0.960 . S
C2479 H2466 0.961 . S
C2479 H2467 0.959 . S
C2479 C2477 1.561 . S
C2480 C2477 1.526 . S
C2480 C2481 1.396 . S
C2480 C2485 1.390 . S
C2481 C2475 1.465 . S
C2481 C2480 1.396 . S
C2481 C2482 1.399 . S
C2482 H2468 0.929 . S
C2482 C2481 1.399 . S
C2482 C2483 1.385 . S
C2483 H2469 0.931 . S
C2483 C2482 1.385 . S
C2483 C2484 1.389 . S
C2484 C2483 1.389 . S
C2484 C2485 1.387 . S
C2485 H2470 0.930 . S
C2485 C2480 1.390 . S
C2485 C2484 1.387 . S
H2486 C2498 0.930 . S
H2487 C2500 0.930 . S
H2488 C2501 0.930 . S
H2489 C2505 0.959 . S
H2490 C2505 0.959 . S
H2491 C2505 0.961 . S
H2492 C2506 0.960 . S
H2493 C2506 0.961 . S
H2494 C2506 0.959 . S
H2495 C2509 0.929 . S
H2496 C2510 0.931 . S
H2497 C2512 0.930 . S
C2498 H2486 0.930 . S
C2498 C2499 1.399 . S
C2498 C2503 1.399 . S
C2499 C2498 1.399 . S
C2499 C2500 1.376 . S
C2500 H2487 0.930 . S
C2500 C2499 1.376 . S
C2500 C2501 1.388 . S
C2501 H2488 0.930 . S
C2501 C2500 1.388 . S
C2501 C2502 1.390 . S
C2502 C2501 1.390 . S
C2502 C2503 1.394 . S
C2502 C2508 1.465 . S
C2503 C2498 1.399 . S
C2503 C2502 1.394 . S
C2503 C2504 1.516 . S
C2504 C2503 1.516 . S
C2504 C2505 1.502 . S
C2504 C2506 1.561 . S
C2504 C2507 1.526 . S
C2505 H2489 0.959 . S
C2505 H2490 0.959 . S
C2505 H2491 0.961 . S
C2505 C2504 1.502 . S
C2506 H2492 0.960 . S
C2506 H2493 0.961 . S
C2506 H2494 0.959 . S
C2506 C2504 1.561 . S
C2507 C2504 1.526 . S
C2507 C2508 1.396 . S
C2507 C2512 1.390 . S
C2508 C2502 1.465 . S
C2508 C2507 1.396 . S
C2508 C2509 1.399 . S
C2509 H2495 0.929 . S
C2509 C2508 1.399 . S
C2509 C2510 1.385 . S
C2510 H2496 0.931 . S
C2510 C2509 1.385 . S
C2510 C2511 1.389 . S
C2511 C2510 1.389 . S
C2511 C2512 1.387 . S
C2512 H2497 0.930 . S
C2512 C2507 1.390 . S
C2512 C2511 1.387 . S
H2513 C2525 0.930 . S
H2514 C2527 0.930 . S
H2515 C2528 0.930 . S
H2516 C2532 0.959 . S
H2517 C2532 0.959 . S
H2518 C2532 0.961 . S
H2519 C2533 0.960 . S
H2520 C2533 0.961 . S
H2521 C2533 0.959 . S
H2522 C2536 0.929 . S
H2523 C2537 0.931 . S
H2524 C2539 0.930 . S
C2525 H2513 0.930 . S
C2525 C2526 1.399 . S
C2525 C2530 1.399 . S
C2526 C2525 1.399 . S
C2526 C2527 1.376 . S
C2527 H2514 0.930 . S
C2527 C2526 1.376 . S
C2527 C2528 1.388 . S
C2528 H2515 0.930 . S
C2528 C2527 1.388 . S
C2528 C2529 1.390 . S
C2529 C2528 1.390 . S
C2529 C2530 1.394 . S
C2529 C2535 1.465 . S
C2530 C2525 1.399 . S
C2530 C2529 1.394 . S
C2530 C2531 1.516 . S
C2531 C2530 1.516 . S
C2531 C2532 1.502 . S
C2531 C2533 1.561 . S
C2531 C2534 1.526 . S
C2532 H2516 0.959 . S
C2532 H2517 0.959 . S
C2532 H2518 0.961 . S
C2532 C2531 1.502 . S
C2533 H2519 0.960 . S
C2533 H2520 0.961 . S
C2533 H2521 0.959 . S
C2533 C2531 1.561 . S
C2534 C2531 1.526 . S
C2534 C2535 1.396 . S
C2534 C2539 1.390 . S
C2535 C2529 1.465 . S
C2535 C2534 1.396 . S
C2535 C2536 1.399 . S
C2536 H2522 0.929 . S
C2536 C2535 1.399 . S
C2536 C2537 1.385 . S
C2537 H2523 0.931 . S
C2537 C2536 1.385 . S
C2537 C2538 1.389 . S
C2538 C2537 1.389 . S
C2538 C2539 1.387 . S
C2539 H2524 0.930 . S
C2539 C2534 1.390 . S
C2539 C2538 1.387 . S
H2540 C2552 0.930 . S
H2541 C2554 0.930 . S
H2542 C2555 0.930 . S
H2543 C2559 0.959 . S
H2544 C2559 0.959 . S
H2545 C2559 0.961 . S
H2546 C2560 0.960 . S
H2547 C2560 0.961 . S
H2548 C2560 0.959 . S
H2549 C2563 0.929 . S
H2550 C2564 0.931 . S
H2551 C2566 0.930 . S
C2552 H2540 0.930 . S
C2552 C2553 1.399 . S
C2552 C2557 1.399 . S
C2553 C2552 1.399 . S
C2553 C2554 1.376 . S
C2554 H2541 0.930 . S
C2554 C2553 1.376 . S
C2554 C2555 1.388 . S
C2555 H2542 0.930 . S
C2555 C2554 1.388 . S
C2555 C2556 1.390 . S
C2556 C2555 1.390 . S
C2556 C2557 1.394 . S
C2556 C2562 1.465 . S
C2557 C2552 1.399 . S
C2557 C2556 1.394 . S
C2557 C2558 1.516 . S
C2558 C2557 1.516 . S
C2558 C2559 1.502 1_455 S
C2558 C2560 1.561 . S
C2558 C2561 1.526 . S
C2559 H2543 0.959 . S
C2559 H2544 0.959 . S
C2559 H2545 0.961 . S
C2559 C2558 1.502 1_655 S
C2560 H2546 0.960 . S
C2560 H2547 0.961 . S
C2560 H2548 0.959 . S
C2560 C2558 1.561 . S
C2561 C2558 1.526 . S
C2561 C2562 1.396 . S
C2561 C2566 1.390 . S
C2562 C2556 1.465 . S
C2562 C2561 1.396 . S
C2562 C2563 1.399 . S
C2563 H2549 0.929 . S
C2563 C2562 1.399 . S
C2563 C2564 1.385 . S
C2564 H2550 0.931 . S
C2564 C2563 1.385 . S
C2564 C2565 1.389 . S
C2565 C2564 1.389 . S
C2565 C2566 1.387 . S
C2566 H2551 0.930 . S
C2566 C2561 1.390 . S
C2566 C2565 1.387 . S
H2567 C2579 0.930 . S
H2568 C2581 0.930 . S
H2569 C2582 0.930 . S
H2570 C2586 0.959 . S
H2571 C2586 0.959 . S
H2572 C2586 0.961 . S
H2573 C2587 0.960 . S
H2574 C2587 0.961 . S
H2575 C2587 0.959 . S
H2576 C2590 0.929 . S
H2577 C2591 0.931 . S
H2578 C2593 0.930 . S
C2579 H2567 0.930 . S
C2579 C2580 1.399 . S
C2579 C2584 1.399 . S
C2580 C2579 1.399 . S
C2580 C2581 1.376 . S
C2581 H2568 0.930 . S
C2581 C2580 1.376 . S
C2581 C2582 1.388 . S
C2582 H2569 0.930 . S
C2582 C2581 1.388 . S
C2582 C2583 1.390 . S
C2583 C2582 1.390 . S
C2583 C2584 1.394 . S
C2583 C2589 1.465 . S
C2584 C2579 1.399 . S
C2584 C2583 1.394 . S
C2584 C2585 1.516 . S
C2585 C2584 1.516 . S
C2585 C2586 1.502 . S
C2585 C2587 1.561 . S
C2585 C2588 1.526 . S
C2586 H2570 0.959 . S
C2586 H2571 0.959 . S
C2586 H2572 0.961 . S
C2586 C2585 1.502 . S
C2587 H2573 0.960 . S
C2587 H2574 0.961 . S
C2587 H2575 0.959 . S
C2587 C2585 1.561 . S
C2588 C2585 1.526 . S
C2588 C2589 1.396 . S
C2588 C2593 1.390 . S
C2589 C2583 1.465 . S
C2589 C2588 1.396 . S
C2589 C2590 1.399 . S
C2590 H2576 0.929 . S
C2590 C2589 1.399 . S
C2590 C2591 1.385 . S
C2591 H2577 0.931 . S
C2591 C2590 1.385 . S
C2591 C2592 1.389 . S
C2592 C2591 1.389 . S
C2592 C2593 1.387 . S
C2593 H2578 0.930 . S
C2593 C2588 1.390 . S
C2593 C2592 1.387 . S
H2594 C2606 0.930 . S
H2595 C2608 0.930 . S
H2596 C2609 0.930 . S
H2597 C2613 0.959 . S
H2598 C2613 0.959 . S
H2599 C2613 0.961 . S
H2600 C2614 0.960 . S
H2601 C2614 0.961 . S
H2602 C2614 0.959 . S
H2603 C2617 0.929 . S
H2604 C2618 0.931 . S
H2605 C2620 0.930 . S
C2606 H2594 0.930 . S
C2606 C2607 1.399 . S
C2606 C2611 1.399 . S
C2607 C2606 1.399 . S
C2607 C2608 1.376 . S
C2608 H2595 0.930 . S
C2608 C2607 1.376 . S
C2608 C2609 1.388 . S
C2609 H2596 0.930 . S
C2609 C2608 1.388 . S
C2609 C2610 1.390 . S
C2610 C2609 1.390 . S
C2610 C2611 1.394 . S
C2610 C2616 1.465 . S
C2611 C2606 1.399 . S
C2611 C2610 1.394 . S
C2611 C2612 1.516 . S
C2612 C2611 1.516 . S
C2612 C2613 1.502 . S
C2612 C2614 1.561 . S
C2612 C2615 1.526 . S
C2613 H2597 0.959 . S
C2613 H2598 0.959 . S
C2613 H2599 0.961 . S
C2613 C2612 1.502 . S
C2614 H2600 0.960 . S
C2614 H2601 0.961 . S
C2614 H2602 0.959 . S
C2614 C2612 1.561 . S
C2615 C2612 1.526 . S
C2615 C2616 1.396 . S
C2615 C2620 1.390 . S
C2616 C2610 1.465 . S
C2616 C2615 1.396 . S
C2616 C2617 1.399 . S
C2617 H2603 0.929 . S
C2617 C2616 1.399 . S
C2617 C2618 1.385 . S
C2618 H2604 0.931 . S
C2618 C2617 1.385 . S
C2618 C2619 1.389 . S
C2619 C2618 1.389 . S
C2619 C2620 1.387 . S
C2620 H2605 0.930 . S
C2620 C2615 1.390 . S
C2620 C2619 1.387 . S
H2621 C2633 0.930 . S
H2622 C2635 0.930 . S
H2623 C2636 0.930 . S
H2624 C2640 0.959 . S
H2625 C2640 0.959 . S
H2626 C2640 0.961 . S
H2627 C2641 0.960 . S
H2628 C2641 0.961 . S
H2629 C2641 0.959 . S
H2630 C2644 0.929 . S
H2631 C2645 0.931 . S
H2632 C2647 0.930 . S
C2633 H2621 0.930 . S
C2633 C2634 1.399 . S
C2633 C2638 1.399 . S
C2634 C2633 1.399 . S
C2634 C2635 1.376 . S
C2635 H2622 0.930 . S
C2635 C2634 1.376 . S
C2635 C2636 1.388 . S
C2636 H2623 0.930 . S
C2636 C2635 1.388 . S
C2636 C2637 1.390 . S
C2637 C2636 1.390 . S
C2637 C2638 1.394 . S
C2637 C2643 1.465 . S
C2638 C2633 1.399 . S
C2638 C2637 1.394 . S
C2638 C2639 1.516 . S
C2639 C2638 1.516 . S
C2639 C2640 1.502 . S
C2639 C2641 1.561 . S
C2639 C2642 1.526 . S
C2640 H2624 0.959 . S
C2640 H2625 0.959 . S
C2640 H2626 0.961 . S
C2640 C2639 1.502 . S
C2641 H2627 0.960 . S
C2641 H2628 0.961 . S
C2641 H2629 0.959 . S
C2641 C2639 1.561 . S
C2642 C2639 1.526 . S
C2642 C2643 1.396 . S
C2642 C2647 1.390 . S
C2643 C2637 1.465 . S
C2643 C2642 1.396 . S
C2643 C2644 1.399 . S
C2644 H2630 0.929 . S
C2644 C2643 1.399 . S
C2644 C2645 1.385 . S
C2645 H2631 0.931 . S
C2645 C2644 1.385 . S
C2645 C2646 1.389 . S
C2646 C2645 1.389 . S
C2646 C2647 1.387 . S
C2647 H2632 0.930 . S
C2647 C2642 1.390 . S
C2647 C2646 1.387 . S
H2648 C2660 0.930 . S
H2649 C2662 0.930 . S
H2650 C2663 0.930 . S
H2651 C2667 0.959 . S
H2652 C2667 0.959 . S
H2653 C2667 0.961 . S
H2654 C2668 0.960 . S
H2655 C2668 0.961 . S
H2656 C2668 0.959 1_455 S
H2657 C2671 0.929 . S
H2658 C2672 0.931 1_455 S
H2659 C2674 0.930 . S
C2660 H2648 0.930 . S
C2660 C2661 1.399 . S
C2660 C2665 1.399 . S
C2661 C2660 1.399 . S
C2661 C2662 1.376 . S
C2662 H2649 0.930 . S
C2662 C2661 1.376 . S
C2662 C2663 1.388 . S
C2663 H2650 0.930 . S
C2663 C2662 1.388 . S
C2663 C2664 1.390 . S
C2664 C2663 1.390 . S
C2664 C2665 1.394 . S
C2664 C2670 1.465 . S
C2665 C2660 1.399 . S
C2665 C2664 1.394 . S
C2665 C2666 1.516 . S
C2666 C2665 1.516 . S
C2666 C2667 1.502 . S
C2666 C2668 1.561 . S
C2666 C2669 1.526 . S
C2667 H2651 0.959 . S
C2667 H2652 0.959 . S
C2667 H2653 0.961 . S
C2667 C2666 1.502 . S
C2668 H2654 0.960 . S
C2668 H2655 0.961 . S
C2668 H2656 0.959 1_655 S
C2668 C2666 1.561 . S
C2669 C2666 1.526 . S
C2669 C2670 1.396 . S
C2669 C2674 1.390 . S
C2670 C2664 1.465 . S
C2670 C2669 1.396 . S
C2670 C2671 1.399 . S
C2671 H2657 0.929 . S
C2671 C2670 1.399 . S
C2671 C2672 1.385 . S
C2672 H2658 0.931 1_655 S
C2672 C2671 1.385 . S
C2672 C2673 1.389 . S
C2673 C2672 1.389 . S
C2673 C2674 1.387 . S
C2674 H2659 0.930 . S
C2674 C2669 1.390 . S
C2674 C2673 1.387 . S
H2675 C2687 0.930 . S
H2676 C2689 0.930 . S
H2677 C2690 0.930 . S
H2678 C2694 0.959 . S
H2679 C2694 0.959 . S
H2680 C2694 0.961 . S
H2681 C2695 0.960 . S
H2682 C2695 0.961 . S
H2683 C2695 0.959 . S
H2684 C2698 0.929 . S
H2685 C2699 0.931 . S
H2686 C2701 0.930 . S
C2687 H2675 0.930 . S
C2687 C2688 1.399 . S
C2687 C2692 1.399 . S
C2688 C2687 1.399 . S
C2688 C2689 1.376 . S
C2689 H2676 0.930 . S
C2689 C2688 1.376 . S
C2689 C2690 1.388 . S
C2690 H2677 0.930 . S
C2690 C2689 1.388 . S
C2690 C2691 1.390 . S
C2691 C2690 1.390 . S
C2691 C2692 1.394 . S
C2691 C2697 1.465 . S
C2692 C2687 1.399 . S
C2692 C2691 1.394 . S
C2692 C2693 1.516 . S
C2693 C2692 1.516 . S
C2693 C2694 1.502 . S
C2693 C2695 1.561 . S
C2693 C2696 1.526 . S
C2694 H2678 0.959 . S
C2694 H2679 0.959 . S
C2694 H2680 0.961 . S
C2694 C2693 1.502 . S
C2695 H2681 0.960 . S
C2695 H2682 0.961 . S
C2695 H2683 0.959 . S
C2695 C2693 1.561 . S
C2696 C2693 1.526 . S
C2696 C2697 1.396 . S
C2696 C2701 1.390 . S
C2697 C2691 1.465 . S
C2697 C2696 1.396 . S
C2697 C2698 1.399 . S
C2698 H2684 0.929 . S
C2698 C2697 1.399 . S
C2698 C2699 1.385 . S
C2699 H2685 0.931 . S
C2699 C2698 1.385 . S
C2699 C2700 1.389 . S
C2700 C2699 1.389 . S
C2700 C2701 1.387 . S
C2701 H2686 0.930 . S
C2701 C2696 1.390 . S
C2701 C2700 1.387 . S
H2702 C2714 0.930 . S
H2703 C2716 0.930 . S
H2704 C2717 0.930 . S
H2705 C2721 0.959 . S
H2706 C2721 0.959 . S
H2707 C2721 0.961 . S
H2708 C2722 0.960 . S
H2709 C2722 0.961 . S
H2710 C2722 0.959 . S
H2711 C2725 0.929 . S
H2712 C2726 0.931 . S
H2713 C2728 0.930 . S
C2714 H2702 0.930 . S
C2714 C2715 1.399 . S
C2714 C2719 1.399 . S
C2715 C2714 1.399 . S
C2715 C2716 1.376 1_545 S
C2716 H2703 0.930 . S
C2716 C2715 1.376 1_565 S
C2716 C2717 1.388 . S
C2717 H2704 0.930 . S
C2717 C2716 1.388 . S
C2717 C2718 1.390 1_565 S
C2718 C2717 1.390 1_545 S
C2718 C2719 1.394 . S
C2718 C2724 1.465 . S
C2719 C2714 1.399 . S
C2719 C2718 1.394 . S
C2719 C2720 1.516 . S
C2720 C2719 1.516 . S
C2720 C2721 1.502 . S
C2720 C2722 1.561 . S
C2720 C2723 1.526 . S
C2721 H2705 0.959 . S
C2721 H2706 0.959 . S
C2721 H2707 0.961 . S
C2721 C2720 1.502 . S
C2722 H2708 0.960 . S
C2722 H2709 0.961 . S
C2722 H2710 0.959 . S
C2722 C2720 1.561 . S
C2723 C2720 1.526 . S
C2723 C2724 1.396 . S
C2723 C2728 1.390 . S
C2724 C2718 1.465 . S
C2724 C2723 1.396 . S
C2724 C2725 1.399 1_545 S
C2725 H2711 0.929 . S
C2725 C2724 1.399 1_565 S
C2725 C2726 1.385 . S
C2726 H2712 0.931 . S
C2726 C2725 1.385 . S
C2726 C2727 1.389 1_565 S
C2727 C2726 1.389 1_545 S
C2727 C2728 1.387 . S
C2728 H2713 0.930 . S
C2728 C2723 1.390 . S
C2728 C2727 1.387 . S
H2729 C2741 0.930 . S
H2730 C2743 0.930 . S
H2731 C2744 0.930 . S
H2732 C2748 0.959 . S
H2733 C2748 0.959 . S
H2734 C2748 0.961 . S
H2735 C2749 0.960 . S
H2736 C2749 0.961 . S
H2737 C2749 0.959 . S
H2738 C2752 0.929 . S
H2739 C2753 0.931 . S
H2740 C2755 0.930 . S
C2741 H2729 0.930 . S
C2741 C2742 1.399 . S
C2741 C2746 1.399 . S
C2742 C2741 1.399 . S
C2742 C2743 1.376 . S
C2743 H2730 0.930 . S
C2743 C2742 1.376 . S
C2743 C2744 1.388 . S
C2744 H2731 0.930 . S
C2744 C2743 1.388 . S
C2744 C2745 1.390 . S
C2745 C2744 1.390 . S
C2745 C2746 1.394 . S
C2745 C2751 1.465 . S
C2746 C2741 1.399 . S
C2746 C2745 1.394 . S
C2746 C2747 1.516 . S
C2747 C2746 1.516 . S
C2747 C2748 1.502 . S
C2747 C2749 1.561 . S
C2747 C2750 1.526 . S
C2748 H2732 0.959 . S
C2748 H2733 0.959 . S
C2748 H2734 0.961 . S
C2748 C2747 1.502 . S
C2749 H2735 0.960 . S
C2749 H2736 0.961 . S
C2749 H2737 0.959 . S
C2749 C2747 1.561 . S
C2750 C2747 1.526 . S
C2750 C2751 1.396 . S
C2750 C2755 1.390 . S
C2751 C2745 1.465 . S
C2751 C2750 1.396 . S
C2751 C2752 1.399 . S
C2752 H2738 0.929 . S
C2752 C2751 1.399 . S
C2752 C2753 1.385 . S
C2753 H2739 0.931 . S
C2753 C2752 1.385 . S
C2753 C2754 1.389 . S
C2754 C2753 1.389 . S
C2754 C2755 1.387 . S
C2755 H2740 0.930 . S
C2755 C2750 1.390 . S
C2755 C2754 1.387 . S
H2756 C2768 0.930 . S
H2757 C2770 0.930 . S
H2758 C2771 0.930 . S
H2759 C2775 0.959 . S
H2760 C2775 0.959 1_455 S
H2761 C2775 0.961 . S
H2762 C2776 0.960 . S
H2763 C2776 0.961 . S
H2764 C2776 0.959 . S
H2765 C2779 0.929 . S
H2766 C2780 0.931 . S
H2767 C2782 0.930 1_455 S
C2768 H2756 0.930 . S
C2768 C2769 1.399 . S
C2768 C2773 1.399 . S
C2769 C2768 1.399 . S
C2769 C2770 1.376 . S
C2770 H2757 0.930 . S
C2770 C2769 1.376 . S
C2770 C2771 1.388 . S
C2771 H2758 0.930 . S
C2771 C2770 1.388 . S
C2771 C2772 1.390 . S
C2772 C2771 1.390 . S
C2772 C2773 1.394 . S
C2772 C2778 1.465 . S
C2773 C2768 1.399 . S
C2773 C2772 1.394 . S
C2773 C2774 1.516 . S
C2774 C2773 1.516 . S
C2774 C2775 1.502 . S
C2774 C2776 1.561 1_655 S
C2774 C2777 1.526 . S
C2775 H2759 0.959 . S
C2775 H2760 0.959 1_655 S
C2775 H2761 0.961 . S
C2775 C2774 1.502 . S
C2776 H2762 0.960 . S
C2776 H2763 0.961 . S
C2776 H2764 0.959 . S
C2776 C2774 1.561 1_455 S
C2777 C2774 1.526 . S
C2777 C2778 1.396 . S
C2777 C2782 1.390 . S
C2778 C2772 1.465 . S
C2778 C2777 1.396 . S
C2778 C2779 1.399 . S
C2779 H2765 0.929 . S
C2779 C2778 1.399 . S
C2779 C2780 1.385 . S
C2780 H2766 0.931 . S
C2780 C2779 1.385 . S
C2780 C2781 1.389 . S
C2781 C2780 1.389 . S
C2781 C2782 1.387 . S
C2782 H2767 0.930 1_655 S
C2782 C2777 1.390 . S
C2782 C2781 1.387 . S
H2783 C2795 0.930 . S
H2784 C2797 0.930 . S
H2785 C2798 0.930 . S
H2786 C2802 0.959 . S
H2787 C2802 0.959 . S
H2788 C2802 0.961 . S
H2789 C2803 0.960 . S
H2790 C2803 0.961 . S
H2791 C2803 0.959 . S
H2792 C2806 0.929 . S
H2793 C2807 0.931 . S
H2794 C2809 0.930 . S
C2795 H2783 0.930 . S
C2795 C2796 1.399 . S
C2795 C2800 1.399 . S
C2796 C2795 1.399 . S
C2796 C2797 1.376 . S
C2797 H2784 0.930 . S
C2797 C2796 1.376 . S
C2797 C2798 1.388 . S
C2798 H2785 0.930 . S
C2798 C2797 1.388 . S
C2798 C2799 1.390 . S
C2799 C2798 1.390 . S
C2799 C2800 1.394 . S
C2799 C2805 1.465 . S
C2800 C2795 1.399 . S
C2800 C2799 1.394 . S
C2800 C2801 1.516 . S
C2801 C2800 1.516 . S
C2801 C2802 1.502 . S
C2801 C2803 1.561 . S
C2801 C2804 1.526 . S
C2802 H2786 0.959 . S
C2802 H2787 0.959 . S
C2802 H2788 0.961 . S
C2802 C2801 1.502 . S
C2803 H2789 0.960 . S
C2803 H2790 0.961 . S
C2803 H2791 0.959 . S
C2803 C2801 1.561 . S
C2804 C2801 1.526 . S
C2804 C2805 1.396 . S
C2804 C2809 1.390 . S
C2805 C2799 1.465 . S
C2805 C2804 1.396 . S
C2805 C2806 1.399 . S
C2806 H2792 0.929 . S
C2806 C2805 1.399 . S
C2806 C2807 1.385 . S
C2807 H2793 0.931 . S
C2807 C2806 1.385 . S
C2807 C2808 1.389 . S
C2808 C2807 1.389 . S
C2808 C2809 1.387 . S
C2809 H2794 0.930 . S
C2809 C2804 1.390 . S
C2809 C2808 1.387 . S
H2810 C2822 0.930 . S
H2811 C2824 0.930 1_565 S
H2812 C2825 0.930 1_565 S
H2813 C2829 0.959 . S
H2814 C2829 0.959 . S
H2815 C2829 0.961 . S
H2816 C2830 0.960 . S
H2817 C2830 0.961 . S
H2818 C2830 0.959 . S
H2819 C2833 0.886 1_565 S
H2820 C2834 0.931 . S
H2821 C2836 0.930 . S
C2822 H2810 0.930 . S
C2822 C2823 1.399 . S
C2822 C2827 1.399 . S
C2823 C2822 1.399 . S
C2823 C2824 1.376 . S
C2824 H2811 0.930 1_545 S
C2824 C2823 1.376 . S
C2824 C2825 1.388 . S
C2825 H2812 0.930 1_545 S
C2825 C2824 1.388 . S
C2825 C2826 1.390 . S
C2826 C2825 1.390 . S
C2826 C2827 1.394 . S
C2826 C2832 1.465 . S
C2827 C2822 1.399 . S
C2827 C2826 1.394 . S
C2827 C2828 1.516 . S
C2828 C2827 1.516 . S
C2828 C2829 1.502 . S
C2828 C2830 1.561 . S
C2828 C2831 1.526 . S
C2829 H2813 0.959 . S
C2829 H2814 0.959 . S
C2829 H2815 0.961 . S
C2829 C2828 1.502 . S
C2830 H2816 0.960 . S
C2830 H2817 0.961 . S
C2830 H2818 0.959 . S
C2830 C2828 1.561 . S
C2831 C2828 1.526 . S
C2831 C2832 1.396 . S
C2831 C2836 1.390 . S
C2832 C2826 1.465 . S
C2832 C2831 1.396 . S
C2832 C2833 1.399 . S
C2833 H2819 0.886 1_545 S
C2833 C2832 1.399 . S
C2833 C2834 1.385 . S
C2834 H2820 0.931 . S
C2834 C2833 1.385 . S
C2834 C2835 1.389 . S
C2835 C2834 1.389 . S
C2835 C2836 1.387 . S
C2836 H2821 0.930 . S
C2836 C2831 1.390 . S
C2836 C2835 1.387 . S
H2837 C2849 0.930 . S
H2838 C2851 0.930 . S
H2839 C2852 0.930 . S
H2840 C2856 0.959 . S
H2841 C2856 0.959 . S
H2842 C2856 0.961 . S
H2843 C2857 0.960 . S
H2844 C2857 0.961 . S
H2845 C2857 0.959 . S
H2846 C2860 0.929 . S
H2847 C2861 0.931 . S
H2848 C2863 0.930 . S
C2849 H2837 0.930 . S
C2849 C2850 1.399 . S
C2849 C2854 1.399 . S
C2850 C2849 1.399 . S
C2850 C2851 1.376 . S
C2851 H2838 0.930 . S
C2851 C2850 1.376 . S
C2851 C2852 1.388 . S
C2852 H2839 0.930 . S
C2852 C2851 1.388 . S
C2852 C2853 1.390 . S
C2853 C2852 1.390 . S
C2853 C2854 1.394 . S
C2853 C2859 1.465 . S
C2854 C2849 1.399 . S
C2854 C2853 1.394 . S
C2854 C2855 1.516 . S
C2855 C2854 1.516 . S
C2855 C2856 1.502 . S
C2855 C2857 1.561 . S
C2855 C2858 1.526 . S
C2856 H2840 0.959 . S
C2856 H2841 0.959 . S
C2856 H2842 0.961 . S
C2856 C2855 1.502 . S
C2857 H2843 0.960 . S
C2857 H2844 0.961 . S
C2857 H2845 0.959 . S
C2857 C2855 1.561 . S
C2858 C2855 1.526 . S
C2858 C2859 1.396 . S
C2858 C2863 1.390 . S
C2859 C2853 1.465 . S
C2859 C2858 1.396 . S
C2859 C2860 1.399 . S
C2860 H2846 0.929 . S
C2860 C2859 1.399 . S
C2860 C2861 1.385 . S
C2861 H2847 0.931 . S
C2861 C2860 1.385 . S
C2861 C2862 1.389 . S
C2862 C2861 1.389 . S
C2862 C2863 1.387 . S
C2863 H2848 0.930 . S
C2863 C2858 1.390 . S
C2863 C2862 1.387 . S
H2864 C2876 0.930 . S
H2865 C2878 0.930 . S
H2866 C2879 0.930 . S
H2867 C2883 0.959 . S
H2868 C2883 0.959 1_556 S
H2869 C2883 0.961 1_556 S
H2870 C2884 0.960 . S
H2871 C2884 0.961 . S
H2872 C2884 0.959 . S
H2873 C2887 0.929 . S
H2874 C2888 0.931 . S
H2875 C2890 0.930 1_545 S
C2876 H2864 0.930 . S
C2876 C2877 1.399 . S
C2876 C2881 1.399 . S
C2877 C2876 1.399 . S
C2877 C2878 1.376 . S
C2878 H2865 0.930 . S
C2878 C2877 1.376 . S
C2878 C2879 1.388 . S
C2879 H2866 0.930 . S
C2879 C2878 1.388 . S
C2879 C2880 1.390 . S
C2880 C2879 1.390 . S
C2880 C2881 1.394 . S
C2880 C2886 1.465 . S
C2881 C2876 1.399 . S
C2881 C2880 1.394 . S
C2881 C2882 1.516 . S
C2882 C2881 1.516 . S
C2882 C2883 1.502 1_565 S
C2882 C2884 1.561 1_554 S
C2882 C2885 1.526 . S
C2883 H2867 0.959 . S
C2883 H2868 0.959 1_554 S
C2883 H2869 0.961 1_554 S
C2883 C2882 1.502 1_545 S
C2884 H2870 0.960 . S
C2884 H2871 0.961 . S
C2884 H2872 0.959 . S
C2884 C2882 1.561 1_556 S
C2885 C2882 1.526 . S
C2885 C2886 1.396 . S
C2885 C2890 1.390 . S
C2886 C2880 1.465 . S
C2886 C2885 1.396 . S
C2886 C2887 1.399 . S
C2887 H2873 0.929 . S
C2887 C2886 1.399 . S
C2887 C2888 1.385 . S
C2888 H2874 0.931 . S
C2888 C2887 1.385 . S
C2888 C2889 1.389 . S
C2889 C2888 1.389 . S
C2889 C2890 1.387 . S
C2890 H2875 0.930 1_565 S
C2890 C2885 1.390 . S
C2890 C2889 1.387 . S
H2891 C2903 0.930 . S
H2892 C2905 0.930 . S
H2893 C2906 0.930 . S
H2894 C2910 0.959 . S
H2895 C2910 0.959 . S
H2896 C2910 0.961 . S
H2897 C2911 0.960 . S
H2898 C2911 0.961 . S
H2899 C2911 0.959 . S
H2900 C2914 0.929 . S
H2901 C2915 0.931 . S
H2902 C2917 0.930 . S
C2903 H2891 0.930 . S
C2903 C2904 1.399 1_556 S
C2903 C2908 1.399 . S
C2904 C2903 1.399 1_554 S
C2904 C2905 1.376 . S
C2905 H2892 0.930 . S
C2905 C2904 1.376 . S
C2905 C2906 1.388 . S
C2906 H2893 0.930 . S
C2906 C2905 1.388 . S
C2906 C2907 1.390 . S
C2907 C2906 1.390 . S
C2907 C2908 1.394 1_554 S
C2907 C2913 1.465 . S
C2908 C2903 1.399 . S
C2908 C2907 1.394 1_556 S
C2908 C2909 1.516 . S
C2909 C2908 1.516 . S
C2909 C2910 1.502 . S
C2909 C2911 1.561 . S
C2909 C2912 1.526 . S
C2910 H2894 0.959 . S
C2910 H2895 0.959 . S
C2910 H2896 0.961 . S
C2910 C2909 1.502 . S
C2911 H2897 0.960 . S
C2911 H2898 0.961 . S
C2911 H2899 0.959 . S
C2911 C2909 1.561 . S
C2912 C2909 1.526 . S
C2912 C2913 1.396 1_556 S
C2912 C2917 1.390 . S
C2913 C2907 1.465 . S
C2913 C2912 1.396 1_554 S
C2913 C2914 1.399 . S
C2914 H2900 0.929 . S
C2914 C2913 1.399 . S
C2914 C2915 1.385 . S
C2915 H2901 0.931 . S
C2915 C2914 1.385 . S
C2915 C2916 1.389 . S
C2916 C2915 1.389 . S
C2916 C2917 1.387 1_554 S
C2917 H2902 0.930 . S
C2917 C2912 1.390 . S
C2917 C2916 1.387 1_556 S
H2918 C2930 0.930 . S
H2919 C2932 0.930 . S
H2920 C2933 0.930 . S
H2921 C2937 0.959 . S
H2922 C2937 0.959 . S
H2923 C2937 0.961 . S
H2924 C2938 0.960 . S
H2925 C2938 0.961 . S
H2926 C2938 0.959 . S
H2927 C2941 0.929 . S
H2928 C2942 0.931 . S
H2929 C2944 0.930 . S
C2930 H2918 0.930 . S
C2930 C2931 1.399 . S
C2930 C2935 1.399 . S
C2931 C2930 1.399 . S
C2931 C2932 1.376 . S
C2932 H2919 0.930 . S
C2932 C2931 1.376 . S
C2932 C2933 1.388 . S
C2933 H2920 0.930 . S
C2933 C2932 1.388 . S
C2933 C2934 1.390 . S
C2934 C2933 1.390 . S
C2934 C2935 1.394 . S
C2934 C2940 1.465 . S
C2935 C2930 1.399 . S
C2935 C2934 1.394 . S
C2935 C2936 1.516 . S
C2936 C2935 1.516 . S
C2936 C2937 1.502 . S
C2936 C2938 1.561 . S
C2936 C2939 1.526 . S
C2937 H2921 0.959 . S
C2937 H2922 0.959 . S
C2937 H2923 0.961 . S
C2937 C2936 1.502 . S
C2938 H2924 0.960 . S
C2938 H2925 0.961 . S
C2938 H2926 0.959 . S
C2938 C2936 1.561 . S
C2939 C2936 1.526 . S
C2939 C2940 1.396 . S
C2939 C2944 1.390 . S
C2940 C2934 1.465 . S
C2940 C2939 1.396 . S
C2940 C2941 1.399 . S
C2941 H2927 0.929 . S
C2941 C2940 1.399 . S
C2941 C2942 1.385 . S
C2942 H2928 0.931 . S
C2942 C2941 1.385 . S
C2942 C2943 1.389 . S
C2943 C2942 1.389 . S
C2943 C2944 1.387 . S
C2944 H2929 0.930 . S
C2944 C2939 1.390 . S
C2944 C2943 1.387 . S
H2945 C2957 0.930 . S
H2946 C2959 0.930 . S
H2947 C2960 0.930 . S
H2948 C2964 0.959 . S
H2949 C2964 0.959 . S
H2950 C2964 0.961 . S
H2951 C2965 0.960 . S
H2952 C2965 0.961 . S
H2953 C2965 0.959 . S
H2954 C2968 0.929 . S
H2955 C2969 0.931 . S
H2956 C2971 0.930 . S
C2957 H2945 0.930 . S
C2957 C2958 1.399 . S
C2957 C2962 1.399 . S
C2958 C2957 1.399 . S
C2958 C2959 1.376 . S
C2959 H2946 0.930 . S
C2959 C2958 1.376 . S
C2959 C2960 1.388 . S
C2960 H2947 0.930 . S
C2960 C2959 1.388 . S
C2960 C2961 1.390 . S
C2961 C2960 1.390 . S
C2961 C2962 1.394 . S
C2961 C2967 1.465 . S
C2962 C2957 1.399 . S
C2962 C2961 1.394 . S
C2962 C2963 1.516 . S
C2963 C2962 1.516 . S
C2963 C2964 1.502 . S
C2963 C2965 1.561 . S
C2963 C2966 1.526 . S
C2964 H2948 0.959 . S
C2964 H2949 0.959 . S
C2964 H2950 0.961 . S
C2964 C2963 1.502 . S
C2965 H2951 0.960 . S
C2965 H2952 0.961 . S
C2965 H2953 0.959 . S
C2965 C2963 1.561 . S
C2966 C2963 1.526 . S
C2966 C2967 1.396 . S
C2966 C2971 1.390 . S
C2967 C2961 1.465 . S
C2967 C2966 1.396 . S
C2967 C2968 1.399 . S
C2968 H2954 0.929 . S
C2968 C2967 1.399 . S
C2968 C2969 1.385 . S
C2969 H2955 0.931 . S
C2969 C2968 1.385 . S
C2969 C2970 1.389 . S
C2970 C2969 1.389 . S
C2970 C2971 1.387 . S
C2971 H2956 0.930 . S
C2971 C2966 1.390 . S
C2971 C2970 1.387 . S
H2972 C2984 0.930 . S
H2973 C2986 0.930 . S
H2974 C2987 0.930 . S
H2975 C2991 0.959 . S
H2976 C2991 0.959 . S
H2977 C2991 0.961 . S
H2978 C2992 0.960 . S
H2979 C2992 0.961 . S
H2980 C2992 0.959 . S
H2981 C2995 0.929 . S
H2982 C2996 0.931 . S
H2983 C2998 0.930 . S
C2984 H2972 0.930 . S
C2984 C2985 1.399 . S
C2984 C2989 1.399 . S
C2985 C2984 1.399 . S
C2985 C2986 1.376 . S
C2986 H2973 0.930 . S
C2986 C2985 1.376 . S
C2986 C2987 1.388 . S
C2987 H2974 0.930 . S
C2987 C2986 1.388 . S
C2987 C2988 1.390 . S
C2988 C2987 1.390 . S
C2988 C2989 1.394 . S
C2988 C2994 1.465 . S
C2989 C2984 1.399 . S
C2989 C2988 1.394 . S
C2989 C2990 1.516 . S
C2990 C2989 1.516 . S
C2990 C2991 1.502 . S
C2990 C2992 1.561 . S
C2990 C2993 1.526 . S
C2991 H2975 0.959 . S
C2991 H2976 0.959 . S
C2991 H2977 0.961 . S
C2991 C2990 1.502 . S
C2992 H2978 0.960 . S
C2992 H2979 0.961 . S
C2992 H2980 0.959 . S
C2992 C2990 1.561 . S
C2993 C2990 1.526 . S
C2993 C2994 1.396 . S
C2993 C2998 1.390 . S
C2994 C2988 1.465 . S
C2994 C2993 1.396 . S
C2994 C2995 1.399 . S
C2995 H2981 0.929 . S
C2995 C2994 1.399 . S
C2995 C2996 1.385 . S
C2996 H2982 0.931 . S
C2996 C2995 1.385 . S
C2996 C2997 1.389 . S
C2997 C2996 1.389 . S
C2997 C2998 1.387 . S
C2998 H2983 0.930 . S
C2998 C2993 1.390 . S
C2998 C2997 1.387 . S
H2999 C3011 0.930 . S
H3000 C3013 0.930 . S
H3001 C3014 0.930 . S
H3002 C3018 0.959 . S
H3003 C3018 0.959 . S
H3004 C3018 0.961 . S
H3005 C3019 0.960 . S
H3006 C3019 0.961 . S
H3007 C3019 0.959 . S
H3008 C3022 0.929 . S
H3009 C3023 0.931 . S
H3010 C3025 0.930 . S
C3011 H2999 0.930 . S
C3011 C3012 1.399 . S
C3011 C3016 1.399 . S
C3012 C3011 1.399 . S
C3012 C3013 1.376 . S
C3013 H3000 0.930 . S
C3013 C3012 1.376 . S
C3013 C3014 1.388 . S
C3014 H3001 0.930 . S
C3014 C3013 1.388 . S
C3014 C3015 1.390 . S
C3015 C3014 1.390 . S
C3015 C3016 1.394 . S
C3015 C3021 1.465 . S
C3016 C3011 1.399 . S
C3016 C3015 1.394 . S
C3016 C3017 1.516 . S
C3017 C3016 1.516 . S
C3017 C3018 1.502 . S
C3017 C3019 1.561 . S
C3017 C3020 1.526 . S
C3018 H3002 0.959 . S
C3018 H3003 0.959 . S
C3018 H3004 0.961 . S
C3018 C3017 1.502 . S
C3019 H3005 0.960 . S
C3019 H3006 0.961 . S
C3019 H3007 0.959 . S
C3019 C3017 1.561 . S
C3020 C3017 1.526 . S
C3020 C3021 1.396 . S
C3020 C3025 1.390 . S
C3021 C3015 1.465 . S
C3021 C3020 1.396 . S
C3021 C3022 1.399 . S
C3022 H3008 0.929 . S
C3022 C3021 1.399 . S
C3022 C3023 1.385 . S
C3023 H3009 0.931 . S
C3023 C3022 1.385 . S
C3023 C3024 1.389 . S
C3024 C3023 1.389 . S
C3024 C3025 1.387 . S
C3025 H3010 0.930 . S
C3025 C3020 1.390 . S
C3025 C3024 1.387 . S
H3026 C3038 0.930 . S
H3027 C3040 0.930 . S
H3028 C3041 0.930 . S
H3029 C3045 0.959 . S
H3030 C3045 0.959 . S
H3031 C3045 0.961 . S
H3032 C3046 0.960 . S
H3033 C3046 0.961 . S
H3034 C3046 0.959 . S
H3035 C3049 0.929 . S
H3036 C3050 0.931 . S
H3037 C3052 0.930 . S
C3038 H3026 0.930 . S
C3038 C3039 1.399 . S
C3038 C3043 1.399 . S
C3039 C3038 1.399 . S
C3039 C3040 1.376 . S
C3040 H3027 0.930 . S
C3040 C3039 1.376 . S
C3040 C3041 1.388 . S
C3041 H3028 0.930 . S
C3041 C3040 1.388 . S
C3041 C3042 1.390 . S
C3042 C3041 1.390 . S
C3042 C3043 1.394 . S
C3042 C3048 1.465 . S
C3043 C3038 1.399 . S
C3043 C3042 1.394 . S
C3043 C3044 1.516 . S
C3044 C3043 1.516 . S
C3044 C3045 1.502 . S
C3044 C3046 1.561 . S
C3044 C3047 1.526 . S
C3045 H3029 0.959 . S
C3045 H3030 0.959 . S
C3045 H3031 0.961 . S
C3045 C3044 1.502 . S
C3046 H3032 0.960 . S
C3046 H3033 0.961 . S
C3046 H3034 0.959 . S
C3046 C3044 1.561 . S
C3047 C3044 1.526 . S
C3047 C3048 1.396 . S
C3047 C3052 1.390 . S
C3048 C3042 1.465 . S
C3048 C3047 1.396 . S
C3048 C3049 1.399 . S
C3049 H3035 0.929 . S
C3049 C3048 1.399 . S
C3049 C3050 1.385 . S
C3050 H3036 0.931 . S
C3050 C3049 1.385 . S
C3050 C3051 1.389 . S
C3051 C3050 1.389 . S
C3051 C3052 1.387 . S
C3052 H3037 0.930 . S
C3052 C3047 1.390 . S
C3052 C3051 1.387 . S
H3053 C3065 0.930 . S
H3054 C3067 0.930 . S
H3055 C3068 0.930 . S
H3056 C3072 0.959 . S
H3057 C3072 0.959 . S
H3058 C3072 0.961 . S
H3059 C3073 0.960 . S
H3060 C3073 0.961 . S
H3061 C3073 0.959 . S
H3062 C3076 0.929 . S
H3063 C3077 0.931 . S
H3064 C3079 0.930 . S
C3065 H3053 0.930 . S
C3065 C3066 1.399 . S
C3065 C3070 1.399 . S
C3066 C3065 1.399 . S
C3066 C3067 1.376 . S
C3067 H3054 0.930 . S
C3067 C3066 1.376 . S
C3067 C3068 1.388 . S
C3068 H3055 0.930 . S
C3068 C3067 1.388 . S
C3068 C3069 1.390 . S
C3069 C3068 1.390 . S
C3069 C3070 1.394 . S
C3069 C3075 1.465 . S
C3070 C3065 1.399 . S
C3070 C3069 1.394 . S
C3070 C3071 1.516 . S
C3071 C3070 1.516 . S
C3071 C3072 1.502 . S
C3071 C3073 1.561 . S
C3071 C3074 1.526 . S
C3072 H3056 0.959 . S
C3072 H3057 0.959 . S
C3072 H3058 0.961 . S
C3072 C3071 1.502 . S
C3073 H3059 0.960 . S
C3073 H3060 0.961 . S
C3073 H3061 0.959 . S
C3073 C3071 1.561 . S
C3074 C3071 1.526 . S
C3074 C3075 1.396 . S
C3074 C3079 1.390 . S
C3075 C3069 1.465 . S
C3075 C3074 1.396 . S
C3075 C3076 1.399 . S
C3076 H3062 0.929 . S
C3076 C3075 1.399 . S
C3076 C3077 1.385 . S
C3077 H3063 0.931 . S
C3077 C3076 1.385 . S
C3077 C3078 1.389 . S
C3078 C3077 1.389 . S
C3078 C3079 1.387 . S
C3079 H3064 0.930 . S
C3079 C3074 1.390 . S
C3079 C3078 1.387 . S
H3080 C3092 0.930 . S
H3081 C3094 0.930 . S
H3082 C3095 0.909 1_655 S
H3083 C3099 0.959 . S
H3084 C3099 0.959 . S
H3085 C3099 0.961 . S
H3086 C3100 0.964 . S
H3087 C3100 0.961 1_556 S
H3088 C3100 0.959 . S
H3089 C3103 0.929 1_655 S
H3090 C3104 0.931 1_655 S
H3091 C3106 0.930 . S
C3092 H3080 0.930 . S
C3092 C3093 1.399 . S
C3092 C3097 1.399 . S
C3093 C3092 1.399 . S
C3093 C3094 1.376 . S
C3094 H3081 0.930 . S
C3094 C3093 1.376 . S
C3094 C3095 1.388 . S
C3095 H3082 0.909 1_455 S
C3095 C3094 1.388 . S
C3095 C3096 1.390 . S
C3096 C3095 1.390 . S
C3096 C3097 1.394 . S
C3096 C3102 1.465 . S
C3097 C3092 1.399 . S
C3097 C3096 1.394 . S
C3097 C3098 1.516 . S
C3098 C3097 1.516 . S
C3098 C3099 1.502 . S
C3098 C3100 1.561 . S
C3098 C3101 1.526 . S
C3099 H3083 0.959 . S
C3099 H3084 0.959 . S
C3099 H3085 0.961 . S
C3099 C3098 1.502 . S
C3100 H3086 0.964 . S
C3100 H3087 0.961 1_554 S
C3100 H3088 0.959 . S
C3100 C3098 1.561 . S
C3101 C3098 1.526 . S
C3101 C3102 1.396 . S
C3101 C3106 1.390 . S
C3102 C3096 1.465 . S
C3102 C3101 1.396 . S
C3102 C3103 1.399 . S
C3103 H3089 0.929 1_455 S
C3103 C3102 1.399 . S
C3103 C3104 1.385 . S
C3104 H3090 0.931 1_455 S
C3104 C3103 1.385 . S
C3104 C3105 1.389 . S
C3105 C3104 1.389 . S
C3105 C3106 1.387 . S
C3106 H3091 0.930 . S
C3106 C3101 1.390 . S
C3106 C3105 1.387 . S
H3107 C3119 0.930 . S
H3108 C3121 0.930 . S
H3109 C3122 0.930 . S
H3110 C3126 0.959 . S
H3111 C3126 0.959 . S
H3112 C3126 0.961 . S
H3113 C3127 0.960 . S
H3114 C3127 0.961 . S
H3115 C3127 0.959 . S
H3116 C3130 0.929 . S
H3117 C3131 0.931 . S
H3118 C3133 0.930 . S
C3119 H3107 0.930 . S
C3119 C3120 1.399 . S
C3119 C3124 1.399 . S
C3120 C3119 1.399 . S
C3120 C3121 1.376 . S
C3121 H3108 0.930 . S
C3121 C3120 1.376 . S
C3121 C3122 1.388 . S
C3122 H3109 0.930 . S
C3122 C3121 1.388 . S
C3122 C3123 1.390 . S
C3123 C3122 1.390 . S
C3123 C3124 1.394 . S
C3123 C3129 1.465 . S
C3124 C3119 1.399 . S
C3124 C3123 1.394 . S
C3124 C3125 1.516 . S
C3125 C3124 1.516 . S
C3125 C3126 1.502 . S
C3125 C3127 1.561 . S
C3125 C3128 1.526 . S
C3126 H3110 0.959 . S
C3126 H3111 0.959 . S
C3126 H3112 0.961 . S
C3126 C3125 1.502 . S
C3127 H3113 0.960 . S
C3127 H3114 0.961 . S
C3127 H3115 0.959 . S
C3127 C3125 1.561 . S
C3128 C3125 1.526 . S
C3128 C3129 1.396 . S
C3128 C3133 1.390 . S
C3129 C3123 1.465 . S
C3129 C3128 1.396 . S
C3129 C3130 1.399 . S
C3130 H3116 0.929 . S
C3130 C3129 1.399 . S
C3130 C3131 1.385 . S
C3131 H3117 0.931 . S
C3131 C3130 1.385 . S
C3131 C3132 1.389 . S
C3132 C3131 1.389 . S
C3132 C3133 1.387 . S
C3133 H3118 0.930 . S
C3133 C3128 1.390 . S
C3133 C3132 1.387 . S
H3134 C3146 0.930 . S
H3135 C3148 0.930 . S
H3136 C3149 0.930 . S
H3137 C3153 0.959 . S
H3138 C3153 0.959 . S
H3139 C3153 0.961 . S
H3140 C3154 0.960 . S
H3141 C3154 0.961 . S
H3142 C3154 0.959 . S
H3143 C3157 0.929 . S
H3144 C3158 0.931 . S
H3145 C3160 0.930 . S
C3146 H3134 0.930 . S
C3146 C3147 1.399 . S
C3146 C3151 1.399 . S
C3147 C3146 1.399 . S
C3147 C3148 1.376 . S
C3148 H3135 0.930 . S
C3148 C3147 1.376 . S
C3148 C3149 1.388 . S
C3149 H3136 0.930 . S
C3149 C3148 1.388 . S
C3149 C3150 1.390 . S
C3150 C3149 1.390 . S
C3150 C3151 1.394 . S
C3150 C3156 1.465 . S
C3151 C3146 1.399 . S
C3151 C3150 1.394 . S
C3151 C3152 1.516 . S
C3152 C3151 1.516 . S
C3152 C3153 1.502 . S
C3152 C3154 1.561 . S
C3152 C3155 1.526 . S
C3153 H3137 0.959 . S
C3153 H3138 0.959 . S
C3153 H3139 0.961 . S
C3153 C3152 1.502 . S
C3154 H3140 0.960 . S
C3154 H3141 0.961 . S
C3154 H3142 0.959 . S
C3154 C3152 1.561 . S
C3155 C3152 1.526 . S
C3155 C3156 1.396 . S
C3155 C3160 1.390 . S
C3156 C3150 1.465 . S
C3156 C3155 1.396 . S
C3156 C3157 1.399 . S
C3157 H3143 0.929 . S
C3157 C3156 1.399 . S
C3157 C3158 1.385 . S
C3158 H3144 0.931 . S
C3158 C3157 1.385 . S
C3158 C3159 1.389 . S
C3159 C3158 1.389 . S
C3159 C3160 1.387 . S
C3160 H3145 0.930 . S
C3160 C3155 1.390 . S
C3160 C3159 1.387 . S
H3161 C3173 0.930 . S
H3162 C3175 0.930 . S
H3163 C3176 0.930 . S
H3164 C3180 0.959 . S
H3165 C3180 0.959 . S
H3166 C3180 0.961 . S
H3167 C3181 0.960 . S
H3168 C3181 0.961 . S
H3169 C3181 0.959 . S
H3170 C3184 0.929 . S
H3171 C3185 0.931 . S
H3172 C3187 0.930 . S
C3173 H3161 0.930 . S
C3173 C3174 1.399 . S
C3173 C3178 1.399 . S
C3174 C3173 1.399 . S
C3174 C3175 1.376 . S
C3175 H3162 0.930 . S
C3175 C3174 1.376 . S
C3175 C3176 1.388 . S
C3176 H3163 0.930 . S
C3176 C3175 1.388 . S
C3176 C3177 1.390 . S
C3177 C3176 1.390 . S
C3177 C3178 1.394 . S
C3177 C3183 1.465 . S
C3178 C3173 1.399 . S
C3178 C3177 1.394 . S
C3178 C3179 1.516 . S
C3179 C3178 1.516 . S
C3179 C3180 1.502 . S
C3179 C3181 1.561 . S
C3179 C3182 1.526 . S
C3180 H3164 0.959 . S
C3180 H3165 0.959 . S
C3180 H3166 0.961 . S
C3180 C3179 1.502 . S
C3181 H3167 0.960 . S
C3181 H3168 0.961 . S
C3181 H3169 0.959 . S
C3181 C3179 1.561 . S
C3182 C3179 1.526 . S
C3182 C3183 1.396 . S
C3182 C3187 1.390 . S
C3183 C3177 1.465 . S
C3183 C3182 1.396 . S
C3183 C3184 1.399 . S
C3184 H3170 0.929 . S
C3184 C3183 1.399 . S
C3184 C3185 1.385 . S
C3185 H3171 0.931 . S
C3185 C3184 1.385 . S
C3185 C3186 1.389 . S
C3186 C3185 1.389 . S
C3186 C3187 1.387 . S
C3187 H3172 0.930 . S
C3187 C3182 1.390 . S
C3187 C3186 1.387 . S
H3188 C3200 0.930 . S
H3189 C3202 0.930 . S
H3190 C3203 0.930 . S
H3191 C3207 0.959 . S
H3192 C3207 0.959 . S
H3193 C3207 0.961 . S
H3194 C3208 0.960 . S
H3195 C3208 0.961 . S
H3196 C3208 0.959 . S
H3197 C3211 0.929 . S
H3198 C3212 0.931 . S
H3199 C3214 0.930 . S
C3200 H3188 0.930 . S
C3200 C3201 1.399 . S
C3200 C3205 1.399 . S
C3201 C3200 1.399 . S
C3201 C3202 1.376 1_455 S
C3202 H3189 0.930 . S
C3202 C3201 1.376 1_655 S
C3202 C3203 1.388 . S
C3203 H3190 0.930 . S
C3203 C3202 1.388 . S
C3203 C3204 1.390 . S
C3204 C3203 1.390 . S
C3204 C3205 1.394 1_655 S
C3204 C3210 1.465 . S
C3205 C3200 1.399 . S
C3205 C3204 1.394 1_455 S
C3205 C3206 1.516 . S
C3206 C3205 1.516 . S
C3206 C3207 1.502 . S
C3206 C3208 1.561 . S
C3206 C3209 1.526 . S
C3207 H3191 0.959 . S
C3207 H3192 0.959 . S
C3207 H3193 0.961 . S
C3207 C3206 1.502 . S
C3208 H3194 0.960 . S
C3208 H3195 0.961 . S
C3208 H3196 0.959 . S
C3208 C3206 1.561 . S
C3209 C3206 1.526 . S
C3209 C3210 1.396 1_455 S
C3209 C3214 1.390 . S
C3210 C3204 1.465 . S
C3210 C3209 1.396 1_655 S
C3210 C3211 1.399 . S
C3211 H3197 0.929 . S
C3211 C3210 1.399 . S
C3211 C3212 1.385 . S
C3212 H3198 0.931 . S
C3212 C3211 1.385 . S
C3212 C3213 1.389 . S
C3213 C3212 1.389 . S
C3213 C3214 1.387 1_655 S
C3214 H3199 0.930 . S
C3214 C3209 1.390 . S
C3214 C3213 1.387 1_455 S
H3215 C3227 0.930 . S
H3216 C3229 0.930 . S
H3217 C3230 0.930 . S
H3218 C3234 0.959 . S
H3219 C3234 0.959 . S
H3220 C3234 0.961 . S
H3221 C3235 0.960 . S
H3222 C3235 0.961 . S
H3223 C3235 0.959 . S
H3224 C3238 0.929 . S
H3225 C3239 0.931 . S
H3226 C3241 0.930 . S
C3227 H3215 0.930 . S
C3227 C3228 1.399 . S
C3227 C3232 1.399 . S
C3228 C3227 1.399 . S
C3228 C3229 1.376 . S
C3229 H3216 0.930 . S
C3229 C3228 1.376 . S
C3229 C3230 1.388 . S
C3230 H3217 0.930 . S
C3230 C3229 1.388 . S
C3230 C3231 1.390 . S
C3231 C3230 1.390 . S
C3231 C3232 1.394 . S
C3231 C3237 1.465 . S
C3232 C3227 1.399 . S
C3232 C3231 1.394 . S
C3232 C3233 1.516 . S
C3233 C3232 1.516 . S
C3233 C3234 1.502 . S
C3233 C3235 1.561 . S
C3233 C3236 1.526 . S
C3234 H3218 0.959 . S
C3234 H3219 0.959 . S
C3234 H3220 0.961 . S
C3234 C3233 1.502 . S
C3235 H3221 0.960 . S
C3235 H3222 0.961 . S
C3235 H3223 0.959 . S
C3235 C3233 1.561 . S
C3236 C3233 1.526 . S
C3236 C3237 1.396 . S
C3236 C3241 1.390 . S
C3237 C3231 1.465 . S
C3237 C3236 1.396 . S
C3237 C3238 1.399 . S
C3238 H3224 0.929 . S
C3238 C3237 1.399 . S
C3238 C3239 1.385 . S
C3239 H3225 0.931 . S
C3239 C3238 1.385 . S
C3239 C3240 1.389 . S
C3240 C3239 1.389 . S
C3240 C3241 1.387 . S
C3241 H3226 0.930 . S
C3241 C3236 1.390 . S
C3241 C3240 1.387 . S
H3242 C3254 0.930 . S
H3243 C3256 0.930 . S
H3244 C3257 0.930 . S
H3245 C3261 0.959 . S
H3246 C3261 0.959 1_554 S
H3247 C3261 0.961 . S
H3248 C3262 0.960 . S
H3249 C3262 0.961 . S
H3250 C3262 0.959 . S
H3251 C3265 0.929 . S
H3252 C3266 0.931 . S
H3253 C3268 0.921 1_554 S
C3254 H3242 0.930 . S
C3254 C3255 1.399 . S
C3254 C3259 1.399 . S
C3255 C3254 1.399 . S
C3255 C3256 1.376 . S
C3256 H3243 0.930 . S
C3256 C3255 1.376 . S
C3256 C3257 1.388 . S
C3257 H3244 0.930 . S
C3257 C3256 1.388 . S
C3257 C3258 1.390 . S
C3258 C3257 1.390 . S
C3258 C3259 1.394 . S
C3258 C3264 1.465 . S
C3259 C3254 1.399 . S
C3259 C3258 1.394 . S
C3259 C3260 1.516 . S
C3260 C3259 1.516 . S
C3260 C3261 1.502 . S
C3260 C3262 1.561 1_556 S
C3260 C3263 1.526 . S
C3261 H3245 0.959 . S
C3261 H3246 0.959 1_556 S
C3261 H3247 0.961 . S
C3261 C3260 1.502 . S
C3262 H3248 0.960 . S
C3262 H3249 0.961 . S
C3262 H3250 0.959 . S
C3262 C3260 1.561 1_554 S
C3263 C3260 1.526 . S
C3263 C3264 1.396 . S
C3263 C3268 1.395 . S
C3264 C3258 1.465 . S
C3264 C3263 1.396 . S
C3264 C3265 1.399 . S
C3265 H3251 0.929 . S
C3265 C3264 1.399 . S
C3265 C3266 1.385 . S
C3266 H3252 0.931 . S
C3266 C3265 1.385 . S
C3266 C3267 1.389 . S
C3267 C3266 1.389 . S
C3267 C3268 1.391 . S
C3268 H3253 0.921 1_556 S
C3268 C3263 1.395 . S
C3268 C3267 1.391 . S
H3269 C3281 0.930 . S
H3270 C3283 0.930 . S
H3271 C3284 0.930 . S
H3272 C3288 0.959 . S
H3273 C3288 0.959 . S
H3274 C3288 0.961 . S
H3275 C3289 0.960 . S
H3276 C3289 0.961 . S
H3277 C3289 0.959 . S
H3278 C3292 0.929 . S
H3279 C3293 0.931 . S
H3280 C3295 0.930 . S
C3281 H3269 0.930 . S
C3281 C3282 1.399 . S
C3281 C3286 1.399 . S
C3282 C3281 1.399 . S
C3282 C3283 1.376 . S
C3283 H3270 0.930 . S
C3283 C3282 1.376 . S
C3283 C3284 1.388 . S
C3284 H3271 0.930 . S
C3284 C3283 1.388 . S
C3284 C3285 1.390 . S
C3285 C3284 1.390 . S
C3285 C3286 1.394 . S
C3285 C3291 1.465 . S
C3286 C3281 1.399 . S
C3286 C3285 1.394 . S
C3286 C3287 1.516 . S
C3287 C3286 1.516 . S
C3287 C3288 1.502 . S
C3287 C3289 1.561 . S
C3287 C3290 1.526 . S
C3288 H3272 0.959 . S
C3288 H3273 0.959 . S
C3288 H3274 0.961 . S
C3288 C3287 1.502 . S
C3289 H3275 0.960 . S
C3289 H3276 0.961 . S
C3289 H3277 0.959 . S
C3289 C3287 1.561 . S
C3290 C3287 1.526 . S
C3290 C3291 1.396 . S
C3290 C3295 1.390 . S
C3291 C3285 1.465 . S
C3291 C3290 1.396 . S
C3291 C3292 1.399 . S
C3292 H3278 0.929 . S
C3292 C3291 1.399 . S
C3292 C3293 1.385 . S
C3293 H3279 0.931 . S
C3293 C3292 1.385 . S
C3293 C3294 1.389 . S
C3294 C3293 1.389 . S
C3294 C3295 1.387 . S
C3295 H3280 0.930 . S
C3295 C3290 1.390 . S
C3295 C3294 1.387 . S
H3296 C3308 0.930 . S
H3297 C3310 0.930 . S
H3298 C3311 0.930 . S
H3299 C3315 0.959 . S
H3300 C3315 0.959 . S
H3301 C3315 0.961 . S
H3302 C3316 0.960 . S
H3303 C3316 0.961 . S
H3304 C3316 0.959 . S
H3305 C3319 0.929 . S
H3306 C3320 0.931 . S
H3307 C3322 0.930 . S
C3308 H3296 0.930 . S
C3308 C3309 1.386 1_565 S
C3308 C3313 1.399 . S
C3309 C3308 1.386 1_545 S
C3309 C3310 1.395 . S
C3310 H3297 0.930 . S
C3310 C3309 1.395 . S
C3310 C3311 1.388 . S
C3311 H3298 0.930 . S
C3311 C3310 1.388 . S
C3311 C3312 1.390 . S
C3312 C3311 1.390 . S
C3312 C3313 1.394 1_545 S
C3312 C3318 1.465 . S
C3313 C3308 1.399 . S
C3313 C3312 1.394 1_565 S
C3313 C3314 1.516 . S
C3314 C3313 1.516 . S
C3314 C3315 1.502 . S
C3314 C3316 1.561 . S
C3314 C3317 1.526 . S
C3315 H3299 0.959 . S
C3315 H3300 0.959 . S
C3315 H3301 0.961 . S
C3315 C3314 1.502 . S
C3316 H3302 0.960 . S
C3316 H3303 0.961 . S
C3316 H3304 0.959 . S
C3316 C3314 1.561 . S
C3317 C3314 1.526 . S
C3317 C3318 1.396 1_565 S
C3317 C3322 1.390 . S
C3318 C3312 1.465 . S
C3318 C3317 1.396 1_545 S
C3318 C3319 1.399 . S
C3319 H3305 0.929 . S
C3319 C3318 1.399 . S
C3319 C3320 1.385 . S
C3320 H3306 0.931 . S
C3320 C3319 1.385 . S
C3320 C3321 1.389 . S
C3321 C3320 1.389 . S
C3321 C3322 1.387 1_545 S
C3322 H3307 0.930 . S
C3322 C3317 1.390 . S
C3322 C3321 1.387 1_565 S
H3323 C3335 0.930 . S
H3324 C3337 0.930 . S
H3325 C3338 0.930 . S
H3326 C3342 0.959 . S
H3327 C3342 0.959 . S
H3328 C3342 0.961 . S
H3329 C3343 0.960 . S
H3330 C3343 0.961 . S
H3331 C3343 0.959 . S
H3332 C3346 0.929 . S
H3333 C3347 0.931 . S
H3334 C3349 0.930 . S
C3335 H3323 0.930 . S
C3335 C3336 1.399 . S
C3335 C3340 1.399 . S
C3336 C3335 1.399 . S
C3336 C3337 1.376 . S
C3337 H3324 0.930 . S
C3337 C3336 1.376 . S
C3337 C3338 1.388 . S
C3338 H3325 0.930 . S
C3338 C3337 1.388 . S
C3338 C3339 1.390 . S
C3339 C3338 1.390 . S
C3339 C3340 1.394 . S
C3339 C3345 1.465 . S
C3340 C3335 1.399 . S
C3340 C3339 1.394 . S
C3340 C3341 1.516 . S
C3341 C3340 1.516 . S
C3341 C3342 1.502 . S
C3341 C3343 1.561 . S
C3341 C3344 1.526 . S
C3342 H3326 0.959 . S
C3342 H3327 0.959 . S
C3342 H3328 0.961 . S
C3342 C3341 1.502 . S
C3343 H3329 0.960 . S
C3343 H3330 0.961 . S
C3343 H3331 0.959 . S
C3343 C3341 1.561 . S
C3344 C3341 1.526 . S
C3344 C3345 1.396 . S
C3344 C3349 1.390 . S
C3345 C3339 1.465 . S
C3345 C3344 1.396 . S
C3345 C3346 1.399 . S
C3346 H3332 0.929 . S
C3346 C3345 1.399 . S
C3346 C3347 1.385 . S
C3347 H3333 0.931 . S
C3347 C3346 1.385 . S
C3347 C3348 1.389 . S
C3348 C3347 1.389 . S
C3348 C3349 1.387 . S
C3349 H3334 0.930 . S
C3349 C3344 1.390 . S
C3349 C3348 1.387 . S
H3350 C3362 0.930 . S
H3351 C3364 0.930 . S
H3352 C3365 0.930 . S
H3353 C3369 0.963 . S
H3354 C3369 0.956 1_565 S
H3355 C3369 0.960 1_565 S
H3356 C3370 0.960 . S
H3357 C3370 0.961 . S
H3358 C3370 0.959 . S
H3359 C3373 0.929 . S
H3360 C3374 0.931 . S
H3361 C3376 0.930 . S
C3362 H3350 0.930 . S
C3362 C3363 1.399 . S
C3362 C3367 1.399 . S
C3363 C3362 1.399 . S
C3363 C3364 1.376 . S
C3364 H3351 0.930 . S
C3364 C3363 1.376 . S
C3364 C3365 1.388 . S
C3365 H3352 0.930 . S
C3365 C3364 1.388 . S
C3365 C3366 1.390 . S
C3366 C3365 1.390 . S
C3366 C3367 1.394 . S
C3366 C3372 1.465 . S
C3367 C3362 1.399 . S
C3367 C3366 1.394 . S
C3367 C3368 1.516 . S
C3368 C3367 1.516 . S
C3368 C3369 1.503 . S
C3368 C3370 1.561 1_545 S
C3368 C3371 1.526 . S
C3369 H3353 0.963 . S
C3369 H3354 0.956 1_545 S
C3369 H3355 0.960 1_545 S
C3369 C3368 1.503 . S
C3370 H3356 0.960 . S
C3370 H3357 0.961 . S
C3370 H3358 0.959 . S
C3370 C3368 1.561 1_565 S
C3371 C3368 1.526 . S
C3371 C3372 1.396 . S
C3371 C3376 1.390 . S
C3372 C3366 1.465 . S
C3372 C3371 1.396 . S
C3372 C3373 1.399 . S
C3373 H3359 0.929 . S
C3373 C3372 1.399 . S
C3373 C3374 1.385 . S
C3374 H3360 0.931 . S
C3374 C3373 1.385 . S
C3374 C3375 1.389 . S
C3375 C3374 1.389 . S
C3375 C3376 1.387 . S
C3376 H3361 0.930 . S
C3376 C3371 1.390 . S
C3376 C3375 1.387 . S
H3377 C3389 0.930 . S
H3378 C3391 0.930 . S
H3379 C3392 0.930 . S
H3380 C3396 0.959 . S
H3381 C3396 0.959 . S
H3382 C3396 0.961 . S
H3383 C3397 0.960 . S
H3384 C3397 0.961 . S
H3385 C3397 0.959 . S
H3386 C3400 0.929 . S
H3387 C3401 0.931 . S
H3388 C3403 0.930 . S
C3389 H3377 0.930 . S
C3389 C3390 1.399 . S
C3389 C3394 1.399 . S
C3390 C3389 1.399 . S
C3390 C3391 1.376 . S
C3391 H3378 0.930 . S
C3391 C3390 1.376 . S
C3391 C3392 1.388 . S
C3392 H3379 0.930 . S
C3392 C3391 1.388 . S
C3392 C3393 1.390 . S
C3393 C3392 1.390 . S
C3393 C3394 1.394 . S
C3393 C3399 1.465 . S
C3394 C3389 1.399 . S
C3394 C3393 1.394 . S
C3394 C3395 1.516 . S
C3395 C3394 1.516 . S
C3395 C3396 1.502 . S
C3395 C3397 1.561 . S
C3395 C3398 1.526 . S
C3396 H3380 0.959 . S
C3396 H3381 0.959 . S
C3396 H3382 0.961 . S
C3396 C3395 1.502 . S
C3397 H3383 0.960 . S
C3397 H3384 0.961 . S
C3397 H3385 0.959 . S
C3397 C3395 1.561 . S
C3398 C3395 1.526 . S
C3398 C3399 1.396 . S
C3398 C3403 1.390 . S
C3399 C3393 1.465 . S
C3399 C3398 1.396 . S
C3399 C3400 1.399 . S
C3400 H3386 0.929 . S
C3400 C3399 1.399 . S
C3400 C3401 1.385 . S
C3401 H3387 0.931 . S
C3401 C3400 1.385 . S
C3401 C3402 1.389 . S
C3402 C3401 1.389 . S
C3402 C3403 1.387 . S
C3403 H3388 0.930 . S
C3403 C3398 1.390 . S
C3403 C3402 1.387 . S
H3404 C3416 0.930 . S
H3405 C3418 0.930 . S
H3406 C3419 0.930 . S
H3407 C3423 0.959 1_545 S
H3408 C3423 0.959 . S
H3409 C3423 0.961 . S
H3410 C3424 0.960 . S
H3411 C3424 0.961 . S
H3412 C3424 0.959 . S
H3413 C3427 0.929 . S
H3414 C3428 0.931 . S
H3415 C3430 0.930 . S
C3416 H3404 0.930 . S
C3416 C3417 1.399 . S
C3416 C3421 1.399 . S
C3417 C3416 1.399 . S
C3417 C3418 1.376 1_565 S
C3418 H3405 0.930 . S
C3418 C3417 1.376 1_545 S
C3418 C3419 1.388 . S
C3419 H3406 0.930 . S
C3419 C3418 1.388 . S
C3419 C3420 1.390 . S
C3420 C3419 1.390 . S
C3420 C3421 1.394 1_545 S
C3420 C3426 1.465 . S
C3421 C3416 1.399 . S
C3421 C3420 1.394 1_565 S
C3421 C3422 1.516 . S
C3422 C3421 1.516 . S
C3422 C3423 1.502 . S
C3422 C3424 1.561 . S
C3422 C3425 1.526 1_565 S
C3423 H3407 0.959 1_565 S
C3423 H3408 0.959 . S
C3423 H3409 0.961 . S
C3423 C3422 1.502 . S
C3424 H3410 0.960 . S
C3424 H3411 0.961 . S
C3424 H3412 0.959 . S
C3424 C3422 1.561 . S
C3425 C3422 1.526 1_545 S
C3425 C3426 1.396 . S
C3425 C3430 1.390 . S
C3426 C3420 1.465 . S
C3426 C3425 1.396 . S
C3426 C3427 1.399 . S
C3427 H3413 0.929 . S
C3427 C3426 1.399 . S
C3427 C3428 1.385 . S
C3428 H3414 0.931 . S
C3428 C3427 1.385 . S
C3428 C3429 1.389 . S
C3429 C3428 1.389 . S
C3429 C3430 1.387 . S
C3430 H3415 0.930 . S
C3430 C3425 1.390 . S
C3430 C3429 1.387 . S
H3431 C3443 0.930 . S
H3432 C3445 0.930 . S
H3433 C3446 0.930 . S
H3434 C3450 0.959 . S
H3435 C3450 0.959 . S
H3436 C3450 0.961 . S
H3437 C3451 0.960 . S
H3438 C3451 0.961 . S
H3439 C3451 0.959 . S
H3440 C3454 0.929 . S
H3441 C3455 0.931 . S
H3442 C3457 0.930 . S
C3443 H3431 0.930 . S
C3443 C3444 1.399 . S
C3443 C3448 1.399 . S
C3444 C3443 1.399 . S
C3444 C3445 1.376 . S
C3445 H3432 0.930 . S
C3445 C3444 1.376 . S
C3445 C3446 1.388 . S
C3446 H3433 0.930 . S
C3446 C3445 1.388 . S
C3446 C3447 1.390 . S
C3447 C3446 1.390 . S
C3447 C3448 1.394 . S
C3447 C3453 1.465 . S
C3448 C3443 1.399 . S
C3448 C3447 1.394 . S
C3448 C3449 1.516 . S
C3449 C3448 1.516 . S
C3449 C3450 1.502 . S
C3449 C3451 1.561 . S
C3449 C3452 1.526 . S
C3450 H3434 0.959 . S
C3450 H3435 0.959 . S
C3450 H3436 0.961 . S
C3450 C3449 1.502 . S
C3451 H3437 0.960 . S
C3451 H3438 0.961 . S
C3451 H3439 0.959 . S
C3451 C3449 1.561 . S
C3452 C3449 1.526 . S
C3452 C3453 1.396 . S
C3452 C3457 1.390 . S
C3453 C3447 1.465 . S
C3453 C3452 1.396 . S
C3453 C3454 1.399 . S
C3454 H3440 0.929 . S
C3454 C3453 1.399 . S
C3454 C3455 1.385 . S
C3455 H3441 0.931 . S
C3455 C3454 1.385 . S
C3455 C3456 1.389 . S
C3456 C3455 1.389 . S
C3456 C3457 1.387 . S
C3457 H3442 0.930 . S
C3457 C3452 1.390 . S
C3457 C3456 1.387 . S
H3458 C3470 0.930 . S
H3459 C3472 0.930 . S
H3460 C3473 0.930 . S
H3461 C3477 0.959 1_545 S
H3462 C3477 0.959 . S
H3463 C3477 0.961 . S
H3464 C3478 0.960 . S
H3465 C3478 0.961 . S
H3466 C3478 0.959 . S
H3467 C3481 0.929 . S
H3468 C3482 0.931 . S
H3469 C3484 0.930 . S
C3470 H3458 0.930 . S
C3470 C3471 1.399 . S
C3470 C3475 1.399 . S
C3471 C3470 1.399 . S
C3471 C3472 1.376 . S
C3472 H3459 0.930 . S
C3472 C3471 1.376 . S
C3472 C3473 1.388 . S
C3473 H3460 0.930 . S
C3473 C3472 1.388 . S
C3473 C3474 1.390 . S
C3474 C3473 1.390 . S
C3474 C3475 1.394 . S
C3474 C3480 1.465 . S
C3475 C3470 1.399 . S
C3475 C3474 1.394 . S
C3475 C3476 1.516 1_545 S
C3476 C3475 1.516 1_565 S
C3476 C3477 1.502 . S
C3476 C3478 1.561 . S
C3476 C3479 1.526 1_565 S
C3477 H3461 0.959 1_565 S
C3477 H3462 0.959 . S
C3477 H3463 0.961 . S
C3477 C3476 1.502 . S
C3478 H3464 0.960 . S
C3478 H3465 0.961 . S
C3478 H3466 0.959 . S
C3478 C3476 1.561 . S
C3479 C3476 1.526 1_545 S
C3479 C3480 1.396 . S
C3479 C3484 1.390 1_545 S
C3480 C3474 1.465 . S
C3480 C3479 1.396 . S
C3480 C3481 1.399 . S
C3481 H3467 0.929 . S
C3481 C3480 1.399 . S
C3481 C3482 1.385 . S
C3482 H3468 0.931 . S
C3482 C3481 1.385 . S
C3482 C3483 1.389 . S
C3483 C3482 1.389 . S
C3483 C3484 1.387 1_545 S
C3484 H3469 0.930 . S
C3484 C3479 1.390 1_565 S
C3484 C3483 1.387 1_565 S
H3485 C3497 0.930 . S
H3486 C3499 0.930 . S
H3487 C3500 0.930 . S
H3488 C3504 0.959 . S
H3489 C3504 0.959 . S
H3490 C3504 0.961 . S
H3491 C3505 0.960 . S
H3492 C3505 0.961 . S
H3493 C3505 0.959 . S
H3494 C3508 0.929 . S
H3495 C3509 0.931 . S
H3496 C3511 0.930 . S
C3497 H3485 0.930 . S
C3497 C3498 1.399 . S
C3497 C3502 1.399 . S
C3498 C3497 1.399 . S
C3498 C3499 1.376 . S
C3499 H3486 0.930 . S
C3499 C3498 1.376 . S
C3499 C3500 1.388 . S
C3500 H3487 0.930 . S
C3500 C3499 1.388 . S
C3500 C3501 1.390 . S
C3501 C3500 1.390 . S
C3501 C3502 1.394 . S
C3501 C3507 1.465 . S
C3502 C3497 1.399 . S
C3502 C3501 1.394 . S
C3502 C3503 1.516 . S
C3503 C3502 1.516 . S
C3503 C3504 1.502 . S
C3503 C3505 1.561 . S
C3503 C3506 1.526 . S
C3504 H3488 0.959 . S
C3504 H3489 0.959 . S
C3504 H3490 0.961 . S
C3504 C3503 1.502 . S
C3505 H3491 0.960 . S
C3505 H3492 0.961 . S
C3505 H3493 0.959 . S
C3505 C3503 1.561 . S
C3506 C3503 1.526 . S
C3506 C3507 1.396 . S
C3506 C3511 1.390 . S
C3507 C3501 1.465 . S
C3507 C3506 1.396 . S
C3507 C3508 1.399 . S
C3508 H3494 0.929 . S
C3508 C3507 1.399 . S
C3508 C3509 1.385 . S
C3509 H3495 0.931 . S
C3509 C3508 1.385 . S
C3509 C3510 1.389 . S
C3510 C3509 1.389 . S
C3510 C3511 1.387 . S
C3511 H3496 0.930 . S
C3511 C3506 1.390 . S
C3511 C3510 1.387 . S
H3512 C3524 0.930 . S
H3513 C3526 0.930 . S
H3514 C3527 0.930 . S
H3515 C3531 0.959 . S
H3516 C3531 0.959 . S
H3517 C3531 0.961 . S
H3518 C3532 0.960 . S
H3519 C3532 0.961 . S
H3520 C3532 0.959 . S
H3521 C3535 0.929 . S
H3522 C3536 0.931 . S
H3523 C3538 0.930 . S
C3524 H3512 0.930 . S
C3524 C3525 1.399 1_554 S
C3524 C3529 1.399 . S
C3525 C3524 1.399 1_556 S
C3525 C3526 1.376 . S
C3526 H3513 0.930 . S
C3526 C3525 1.376 . S
C3526 C3527 1.388 . S
C3527 H3514 0.930 . S
C3527 C3526 1.388 . S
C3527 C3528 1.390 . S
C3528 C3527 1.390 . S
C3528 C3529 1.394 1_556 S
C3528 C3534 1.465 . S
C3529 C3524 1.399 . S
C3529 C3528 1.394 1_554 S
C3529 C3530 1.516 . S
C3530 C3529 1.516 . S
C3530 C3531 1.502 . S
C3530 C3532 1.561 . S
C3530 C3533 1.526 . S
C3531 H3515 0.959 . S
C3531 H3516 0.959 . S
C3531 H3517 0.961 . S
C3531 C3530 1.502 . S
C3532 H3518 0.960 . S
C3532 H3519 0.961 . S
C3532 H3520 0.959 . S
C3532 C3530 1.561 . S
C3533 C3530 1.526 . S
C3533 C3534 1.396 1_554 S
C3533 C3538 1.390 . S
C3534 C3528 1.465 . S
C3534 C3533 1.396 1_556 S
C3534 C3535 1.399 . S
C3535 H3521 0.929 . S
C3535 C3534 1.399 . S
C3535 C3536 1.385 . S
C3536 H3522 0.931 . S
C3536 C3535 1.385 . S
C3536 C3537 1.389 . S
C3537 C3536 1.389 . S
C3537 C3538 1.387 1_556 S
C3538 H3523 0.930 . S
C3538 C3533 1.390 . S
C3538 C3537 1.387 1_554 S
H3539 C3551 0.930 . S
H3540 C3553 0.930 . S
H3541 C3554 0.930 . S
H3542 C3558 0.959 . S
H3543 C3558 0.959 . S
H3544 C3558 0.961 . S
H3545 C3559 0.960 . S
H3546 C3559 0.961 . S
H3547 C3559 0.959 . S
H3548 C3562 0.929 . S
H3549 C3563 0.931 . S
H3550 C3565 0.930 . S
C3551 H3539 0.930 . S
C3551 C3552 1.399 . S
C3551 C3556 1.399 . S
C3552 C3551 1.399 . S
C3552 C3553 1.376 . S
C3553 H3540 0.930 . S
C3553 C3552 1.376 . S
C3553 C3554 1.388 . S
C3554 H3541 0.930 . S
C3554 C3553 1.388 . S
C3554 C3555 1.390 . S
C3555 C3554 1.390 . S
C3555 C3556 1.394 . S
C3555 C3561 1.465 . S
C3556 C3551 1.399 . S
C3556 C3555 1.394 . S
C3556 C3557 1.516 . S
C3557 C3556 1.516 . S
C3557 C3558 1.502 1_554 S
C3557 C3559 1.561 . S
C3557 C3560 1.526 . S
C3558 H3542 0.959 . S
C3558 H3543 0.959 . S
C3558 H3544 0.961 . S
C3558 C3557 1.502 1_556 S
C3559 H3545 0.960 . S
C3559 H3546 0.961 . S
C3559 H3547 0.959 . S
C3559 C3557 1.561 . S
C3560 C3557 1.526 . S
C3560 C3561 1.396 . S
C3560 C3565 1.390 . S
C3561 C3555 1.465 . S
C3561 C3560 1.396 . S
C3561 C3562 1.399 . S
C3562 H3548 0.929 . S
C3562 C3561 1.399 . S
C3562 C3563 1.385 . S
C3563 H3549 0.931 . S
C3563 C3562 1.385 . S
C3563 C3564 1.389 . S
C3564 C3563 1.389 . S
C3564 C3565 1.387 . S
C3565 H3550 0.930 . S
C3565 C3560 1.390 . S
C3565 C3564 1.387 . S
H3566 C3578 0.930 . S
H3567 C3580 0.930 . S
H3568 C3581 0.930 . S
H3569 C3585 0.959 . S
H3570 C3585 0.959 . S
H3571 C3585 0.961 . S
H3572 C3586 0.960 . S
H3573 C3586 0.961 . S
H3574 C3586 0.959 . S
H3575 C3589 0.929 . S
H3576 C3590 0.931 . S
H3577 C3592 0.930 . S
C3578 H3566 0.930 . S
C3578 C3579 1.399 . S
C3578 C3583 1.399 . S
C3579 C3578 1.399 . S
C3579 C3580 1.376 . S
C3580 H3567 0.930 . S
C3580 C3579 1.376 . S
C3580 C3581 1.388 . S
C3581 H3568 0.930 . S
C3581 C3580 1.388 . S
C3581 C3582 1.390 . S
C3582 C3581 1.390 . S
C3582 C3583 1.394 . S
C3582 C3588 1.465 . S
C3583 C3578 1.399 . S
C3583 C3582 1.394 . S
C3583 C3584 1.516 . S
C3584 C3583 1.516 . S
C3584 C3585 1.502 . S
C3584 C3586 1.561 . S
C3584 C3587 1.526 . S
C3585 H3569 0.959 . S
C3585 H3570 0.959 . S
C3585 H3571 0.961 . S
C3585 C3584 1.502 . S
C3586 H3572 0.960 . S
C3586 H3573 0.961 . S
C3586 H3574 0.959 . S
C3586 C3584 1.561 . S
C3587 C3584 1.526 . S
C3587 C3588 1.396 . S
C3587 C3592 1.390 . S
C3588 C3582 1.465 . S
C3588 C3587 1.396 . S
C3588 C3589 1.399 . S
C3589 H3575 0.929 . S
C3589 C3588 1.399 . S
C3589 C3590 1.385 . S
C3590 H3576 0.931 . S
C3590 C3589 1.385 . S
C3590 C3591 1.389 . S
C3591 C3590 1.389 . S
C3591 C3592 1.387 . S
C3592 H3577 0.930 . S
C3592 C3587 1.390 . S
C3592 C3591 1.387 . S
H3593 C3605 0.930 . S
H3594 C3607 0.930 . S
H3595 C3608 0.930 . S
H3596 C3612 0.959 . S
H3597 C3612 0.959 . S
H3598 C3612 0.961 . S
H3599 C3613 0.960 . S
H3600 C3613 0.961 . S
H3601 C3613 0.959 . S
H3602 C3616 0.929 . S
H3603 C3617 0.931 . S
H3604 C3619 0.930 . S
C3605 H3593 0.930 . S
C3605 C3606 1.399 . S
C3605 C3610 1.399 . S
C3606 C3605 1.399 . S
C3606 C3607 1.376 . S
C3607 H3594 0.930 . S
C3607 C3606 1.376 . S
C3607 C3608 1.388 . S
C3608 H3595 0.930 . S
C3608 C3607 1.388 . S
C3608 C3609 1.390 . S
C3609 C3608 1.390 . S
C3609 C3610 1.394 . S
C3609 C3615 1.465 . S
C3610 C3605 1.399 . S
C3610 C3609 1.394 . S
C3610 C3611 1.516 . S
C3611 C3610 1.516 . S
C3611 C3612 1.502 . S
C3611 C3613 1.561 . S
C3611 C3614 1.526 . S
C3612 H3596 0.959 . S
C3612 H3597 0.959 . S
C3612 H3598 0.961 . S
C3612 C3611 1.502 . S
C3613 H3599 0.960 . S
C3613 H3600 0.961 . S
C3613 H3601 0.959 . S
C3613 C3611 1.561 . S
C3614 C3611 1.526 . S
C3614 C3615 1.396 . S
C3614 C3619 1.390 . S
C3615 C3609 1.465 . S
C3615 C3614 1.396 . S
C3615 C3616 1.399 . S
C3616 H3602 0.929 . S
C3616 C3615 1.399 . S
C3616 C3617 1.385 . S
C3617 H3603 0.931 . S
C3617 C3616 1.385 . S
C3617 C3618 1.389 . S
C3618 C3617 1.389 . S
C3618 C3619 1.387 . S
C3619 H3604 0.930 . S
C3619 C3614 1.390 . S
C3619 C3618 1.387 . S
H3620 C3632 0.930 . S
H3621 C3634 0.930 . S
H3622 C3635 0.930 . S
H3623 C3639 0.959 . S
H3624 C3639 0.959 . S
H3625 C3639 0.961 . S
H3626 C3640 0.960 . S
H3627 C3640 0.961 . S
H3628 C3640 0.959 . S
H3629 C3643 0.929 . S
H3630 C3644 0.931 . S
H3631 C3646 0.930 . S
C3632 H3620 0.930 . S
C3632 C3633 1.399 . S
C3632 C3637 1.399 . S
C3633 C3632 1.399 . S
C3633 C3634 1.376 . S
C3634 H3621 0.930 . S
C3634 C3633 1.376 . S
C3634 C3635 1.388 . S
C3635 H3622 0.930 . S
C3635 C3634 1.388 . S
C3635 C3636 1.390 . S
C3636 C3635 1.390 . S
C3636 C3637 1.394 . S
C3636 C3642 1.465 . S
C3637 C3632 1.399 . S
C3637 C3636 1.394 . S
C3637 C3638 1.516 . S
C3638 C3637 1.516 . S
C3638 C3639 1.502 . S
C3638 C3640 1.561 . S
C3638 C3641 1.526 . S
C3639 H3623 0.959 . S
C3639 H3624 0.959 . S
C3639 H3625 0.961 . S
C3639 C3638 1.502 . S
C3640 H3626 0.960 . S
C3640 H3627 0.961 . S
C3640 H3628 0.959 . S
C3640 C3638 1.561 . S
C3641 C3638 1.526 . S
C3641 C3642 1.396 . S
C3641 C3646 1.390 . S
C3642 C3636 1.465 . S
C3642 C3641 1.396 . S
C3642 C3643 1.399 . S
C3643 H3629 0.929 . S
C3643 C3642 1.399 . S
C3643 C3644 1.385 . S
C3644 H3630 0.931 . S
C3644 C3643 1.385 . S
C3644 C3645 1.389 . S
C3645 C3644 1.389 . S
C3645 C3646 1.387 . S
C3646 H3631 0.930 . S
C3646 C3641 1.390 . S
C3646 C3645 1.387 . S
H3647 C3659 0.930 . S
H3648 C3661 0.930 . S
H3649 C3662 0.930 . S
H3650 C3666 0.959 . S
H3651 C3666 0.959 . S
H3652 C3666 0.961 . S
H3653 C3667 0.960 . S
H3654 C3667 0.961 . S
H3655 C3667 0.959 . S
H3656 C3670 0.929 . S
H3657 C3671 0.931 . S
H3658 C3673 0.930 . S
C3659 H3647 0.930 . S
C3659 C3660 1.399 . S
C3659 C3664 1.399 . S
C3660 C3659 1.399 . S
C3660 C3661 1.376 . S
C3661 H3648 0.930 . S
C3661 C3660 1.376 . S
C3661 C3662 1.388 . S
C3662 H3649 0.930 . S
C3662 C3661 1.388 . S
C3662 C3663 1.390 . S
C3663 C3662 1.390 . S
C3663 C3664 1.394 . S
C3663 C3669 1.465 . S
C3664 C3659 1.399 . S
C3664 C3663 1.394 . S
C3664 C3665 1.516 . S
C3665 C3664 1.516 . S
C3665 C3666 1.502 . S
C3665 C3667 1.561 . S
C3665 C3668 1.526 . S
C3666 H3650 0.959 . S
C3666 H3651 0.959 . S
C3666 H3652 0.961 . S
C3666 C3665 1.502 . S
C3667 H3653 0.960 . S
C3667 H3654 0.961 . S
C3667 H3655 0.959 . S
C3667 C3665 1.561 . S
C3668 C3665 1.526 . S
C3668 C3669 1.396 . S
C3668 C3673 1.390 . S
C3669 C3663 1.465 . S
C3669 C3668 1.396 . S
C3669 C3670 1.399 . S
C3670 H3656 0.929 . S
C3670 C3669 1.399 . S
C3670 C3671 1.385 . S
C3671 H3657 0.931 . S
C3671 C3670 1.385 . S
C3671 C3672 1.389 . S
C3672 C3671 1.389 . S
C3672 C3673 1.387 . S
C3673 H3658 0.930 . S
C3673 C3668 1.390 . S
C3673 C3672 1.387 . S
H3674 C3686 0.930 . S
H3675 C3688 0.930 . S
H3676 C3689 0.930 . S
H3677 C3693 0.959 . S
H3678 C3693 0.959 . S
H3679 C3693 0.961 . S
H3680 C3694 0.960 . S
H3681 C3694 0.961 . S
H3682 C3694 0.959 . S
H3683 C3697 0.929 . S
H3684 C3698 0.931 . S
H3685 C3700 0.930 . S
C3686 H3674 0.930 . S
C3686 C3687 1.399 . S
C3686 C3691 1.399 . S
C3687 C3686 1.399 . S
C3687 C3688 1.376 . S
C3688 H3675 0.930 . S
C3688 C3687 1.376 . S
C3688 C3689 1.388 . S
C3689 H3676 0.930 . S
C3689 C3688 1.388 . S
C3689 C3690 1.390 . S
C3690 C3689 1.390 . S
C3690 C3691 1.394 . S
C3690 C3696 1.465 . S
C3691 C3686 1.399 . S
C3691 C3690 1.394 . S
C3691 C3692 1.516 . S
C3692 C3691 1.516 . S
C3692 C3693 1.502 . S
C3692 C3694 1.561 . S
C3692 C3695 1.526 . S
C3693 H3677 0.959 . S
C3693 H3678 0.959 . S
C3693 H3679 0.961 . S
C3693 C3692 1.502 . S
C3694 H3680 0.960 . S
C3694 H3681 0.961 . S
C3694 H3682 0.959 . S
C3694 C3692 1.561 . S
C3695 C3692 1.526 . S
C3695 C3696 1.396 . S
C3695 C3700 1.390 . S
C3696 C3690 1.465 . S
C3696 C3695 1.396 . S
C3696 C3697 1.399 . S
C3697 H3683 0.929 . S
C3697 C3696 1.399 . S
C3697 C3698 1.385 . S
C3698 H3684 0.931 . S
C3698 C3697 1.385 . S
C3698 C3699 1.389 . S
C3699 C3698 1.389 . S
C3699 C3700 1.387 . S
C3700 H3685 0.930 . S
C3700 C3695 1.390 . S
C3700 C3699 1.387 . S
H3701 C3713 0.930 . S
H3702 C3715 0.930 . S
H3703 C3716 0.930 . S
H3704 C3720 0.959 . S
H3705 C3720 0.959 . S
H3706 C3720 0.961 . S
H3707 C3721 0.960 . S
H3708 C3721 0.961 . S
H3709 C3721 0.959 . S
H3710 C3724 0.929 . S
H3711 C3725 0.931 . S
H3712 C3727 0.930 . S
C3713 H3701 0.930 . S
C3713 C3714 1.399 . S
C3713 C3718 1.399 . S
C3714 C3713 1.399 . S
C3714 C3715 1.376 . S
C3715 H3702 0.930 . S
C3715 C3714 1.376 . S
C3715 C3716 1.388 . S
C3716 H3703 0.930 . S
C3716 C3715 1.388 . S
C3716 C3717 1.390 . S
C3717 C3716 1.390 . S
C3717 C3718 1.394 . S
C3717 C3723 1.465 . S
C3718 C3713 1.399 . S
C3718 C3717 1.394 . S
C3718 C3719 1.516 . S
C3719 C3718 1.516 . S
C3719 C3720 1.502 . S
C3719 C3721 1.561 . S
C3719 C3722 1.526 . S
C3720 H3704 0.959 . S
C3720 H3705 0.959 . S
C3720 H3706 0.961 . S
C3720 C3719 1.502 . S
C3721 H3707 0.960 . S
C3721 H3708 0.961 . S
C3721 H3709 0.959 . S
C3721 C3719 1.561 . S
C3722 C3719 1.526 . S
C3722 C3723 1.396 . S
C3722 C3727 1.390 . S
C3723 C3717 1.465 . S
C3723 C3722 1.396 . S
C3723 C3724 1.399 . S
C3724 H3710 0.929 . S
C3724 C3723 1.399 . S
C3724 C3725 1.385 . S
C3725 H3711 0.931 . S
C3725 C3724 1.385 . S
C3725 C3726 1.389 . S
C3726 C3725 1.389 . S
C3726 C3727 1.387 . S
C3727 H3712 0.930 . S
C3727 C3722 1.390 . S
C3727 C3726 1.387 . S
H3728 C3740 0.930 . S
H3729 C3742 0.930 . S
H3730 C3743 0.930 . S
H3731 C3747 0.959 . S
H3732 C3747 0.959 . S
H3733 C3747 0.961 . S
H3734 C3748 0.960 . S
H3735 C3748 0.961 . S
H3736 C3748 0.959 . S
H3737 C3751 0.929 . S
H3738 C3752 0.931 . S
H3739 C3754 0.930 . S
C3740 H3728 0.930 . S
C3740 C3741 1.399 . S
C3740 C3745 1.399 . S
C3741 C3740 1.399 . S
C3741 C3742 1.376 . S
C3742 H3729 0.930 . S
C3742 C3741 1.376 . S
C3742 C3743 1.388 . S
C3743 H3730 0.930 . S
C3743 C3742 1.388 . S
C3743 C3744 1.390 . S
C3744 C3743 1.390 . S
C3744 C3745 1.394 . S
C3744 C3750 1.465 . S
C3745 C3740 1.399 . S
C3745 C3744 1.394 . S
C3745 C3746 1.516 . S
C3746 C3745 1.516 . S
C3746 C3747 1.502 . S
C3746 C3748 1.561 . S
C3746 C3749 1.526 . S
C3747 H3731 0.959 . S
C3747 H3732 0.959 . S
C3747 H3733 0.961 . S
C3747 C3746 1.502 . S
C3748 H3734 0.960 . S
C3748 H3735 0.961 . S
C3748 H3736 0.959 . S
C3748 C3746 1.561 . S
C3749 C3746 1.526 . S
C3749 C3750 1.396 . S
C3749 C3754 1.390 . S
C3750 C3744 1.465 . S
C3750 C3749 1.396 . S
C3750 C3751 1.399 . S
C3751 H3737 0.929 . S
C3751 C3750 1.399 . S
C3751 C3752 1.385 . S
C3752 H3738 0.931 . S
C3752 C3751 1.385 . S
C3752 C3753 1.389 . S
C3753 C3752 1.389 . S
C3753 C3754 1.387 . S
C3754 H3739 0.930 . S
C3754 C3749 1.390 . S
C3754 C3753 1.387 . S
H3755 C3767 0.930 . S
H3756 C3769 0.930 . S
H3757 C3770 0.930 . S
H3758 C3774 0.959 . S
H3759 C3774 0.959 . S
H3760 C3774 0.961 . S
H3761 C3775 0.960 . S
H3762 C3775 0.961 . S
H3763 C3775 0.959 . S
H3764 C3778 0.929 . S
H3765 C3779 0.931 . S
H3766 C3781 0.930 . S
C3767 H3755 0.930 . S
C3767 C3768 1.399 . S
C3767 C3772 1.399 . S
C3768 C3767 1.399 . S
C3768 C3769 1.376 . S
C3769 H3756 0.930 . S
C3769 C3768 1.376 . S
C3769 C3770 1.388 . S
C3770 H3757 0.930 . S
C3770 C3769 1.388 . S
C3770 C3771 1.390 . S
C3771 C3770 1.390 . S
C3771 C3772 1.394 . S
C3771 C3777 1.465 . S
C3772 C3767 1.399 . S
C3772 C3771 1.394 . S
C3772 C3773 1.516 . S
C3773 C3772 1.516 . S
C3773 C3774 1.502 . S
C3773 C3775 1.561 . S
C3773 C3776 1.526 . S
C3774 H3758 0.959 . S
C3774 H3759 0.959 . S
C3774 H3760 0.961 . S
C3774 C3773 1.502 . S
C3775 H3761 0.960 . S
C3775 H3762 0.961 . S
C3775 H3763 0.959 . S
C3775 C3773 1.561 . S
C3776 C3773 1.526 . S
C3776 C3777 1.396 . S
C3776 C3781 1.390 . S
C3777 C3771 1.465 . S
C3777 C3776 1.396 . S
C3777 C3778 1.399 . S
C3778 H3764 0.929 . S
C3778 C3777 1.399 . S
C3778 C3779 1.385 . S
C3779 H3765 0.931 . S
C3779 C3778 1.385 . S
C3779 C3780 1.389 . S
C3780 C3779 1.389 . S
C3780 C3781 1.387 . S
C3781 H3766 0.930 . S
C3781 C3776 1.390 . S
C3781 C3780 1.387 . S
H3782 C3794 0.930 . S
H3783 C3796 0.930 . S
H3784 C3797 0.930 . S
H3785 C3801 0.959 . S
H3786 C3801 0.959 . S
H3787 C3801 0.961 . S
H3788 C3802 0.960 . S
H3789 C3802 0.961 . S
H3790 C3802 0.959 . S
H3791 C3805 0.929 . S
H3792 C3806 0.931 . S
H3793 C3808 0.926 1_655 S
C3794 H3782 0.930 . S
C3794 C3795 1.399 . S
C3794 C3799 1.399 . S
C3795 C3794 1.399 . S
C3795 C3796 1.376 . S
C3796 H3783 0.930 . S
C3796 C3795 1.376 . S
C3796 C3797 1.388 . S
C3797 H3784 0.930 . S
C3797 C3796 1.388 . S
C3797 C3798 1.390 . S
C3798 C3797 1.390 . S
C3798 C3799 1.394 . S
C3798 C3804 1.465 . S
C3799 C3794 1.399 . S
C3799 C3798 1.394 . S
C3799 C3800 1.516 1_556 S
C3800 C3799 1.516 1_554 S
C3800 C3801 1.502 1_455 S
C3800 C3802 1.561 . S
C3800 C3803 1.526 1_554 S
C3801 H3785 0.959 . S
C3801 H3786 0.959 . S
C3801 H3787 0.961 . S
C3801 C3800 1.502 1_655 S
C3802 H3788 0.960 . S
C3802 H3789 0.961 . S
C3802 H3790 0.959 . S
C3802 C3800 1.561 . S
C3803 C3800 1.526 1_556 S
C3803 C3804 1.394 . S
C3803 C3808 1.390 1_556 S
C3804 C3798 1.465 . S
C3804 C3803 1.394 . S
C3804 C3805 1.399 . S
C3805 H3791 0.929 . S
C3805 C3804 1.399 . S
C3805 C3806 1.385 . S
C3806 H3792 0.931 . S
C3806 C3805 1.385 . S
C3806 C3807 1.382 1_556 S
C3807 C3806 1.382 1_554 S
C3807 C3808 1.391 . S
C3808 H3793 0.926 1_455 S
C3808 C3803 1.390 1_554 S
C3808 C3807 1.391 . S
H3809 C3821 0.930 . S
H3810 C3823 0.930 . S
H3811 C3824 0.930 . S
H3812 C3828 0.959 . S
H3813 C3828 0.959 . S
H3814 C3828 0.961 . S
H3815 C3829 0.960 . S
H3816 C3829 0.961 . S
H3817 C3829 0.959 . S
H3818 C3832 0.929 . S
H3819 C3833 0.931 . S
H3820 C3835 0.930 . S
C3821 H3809 0.930 . S
C3821 C3822 1.399 . S
C3821 C3826 1.399 . S
C3822 C3821 1.399 . S
C3822 C3823 1.376 . S
C3823 H3810 0.930 . S
C3823 C3822 1.376 . S
C3823 C3824 1.388 . S
C3824 H3811 0.930 . S
C3824 C3823 1.388 . S
C3824 C3825 1.390 . S
C3825 C3824 1.390 . S
C3825 C3826 1.394 . S
C3825 C3831 1.465 . S
C3826 C3821 1.399 . S
C3826 C3825 1.394 . S
C3826 C3827 1.516 . S
C3827 C3826 1.516 . S
C3827 C3828 1.502 . S
C3827 C3829 1.561 . S
C3827 C3830 1.526 . S
C3828 H3812 0.959 . S
C3828 H3813 0.959 . S
C3828 H3814 0.961 . S
C3828 C3827 1.502 . S
C3829 H3815 0.960 . S
C3829 H3816 0.961 . S
C3829 H3817 0.959 . S
C3829 C3827 1.561 . S
C3830 C3827 1.526 . S
C3830 C3831 1.396 . S
C3830 C3835 1.390 . S
C3831 C3825 1.465 . S
C3831 C3830 1.396 . S
C3831 C3832 1.399 . S
C3832 H3818 0.929 . S
C3832 C3831 1.399 . S
C3832 C3833 1.385 . S
C3833 H3819 0.931 . S
C3833 C3832 1.385 . S
C3833 C3834 1.389 . S
C3834 C3833 1.389 . S
C3834 C3835 1.387 . S
C3835 H3820 0.930 . S
C3835 C3830 1.390 . S
C3835 C3834 1.387 . S
H3836 C3848 0.930 . S
H3837 C3850 0.930 . S
H3838 C3851 0.930 . S
H3839 C3855 0.959 . S
H3840 C3855 0.959 . S
H3841 C3855 0.961 . S
H3842 C3856 0.960 . S
H3843 C3856 0.961 . S
H3844 C3856 0.959 . S
H3845 C3859 0.929 . S
H3846 C3860 0.931 . S
H3847 C3862 0.930 . S
C3848 H3836 0.930 . S
C3848 C3849 1.399 . S
C3848 C3853 1.399 . S
C3849 C3848 1.399 . S
C3849 C3850 1.376 . S
C3850 H3837 0.930 . S
C3850 C3849 1.376 . S
C3850 C3851 1.388 . S
C3851 H3838 0.930 . S
C3851 C3850 1.388 . S
C3851 C3852 1.390 . S
C3852 C3851 1.390 . S
C3852 C3853 1.394 . S
C3852 C3858 1.465 . S
C3853 C3848 1.399 . S
C3853 C3852 1.394 . S
C3853 C3854 1.516 . S
C3854 C3853 1.516 . S
C3854 C3855 1.502 . S
C3854 C3856 1.561 . S
C3854 C3857 1.526 . S
C3855 H3839 0.959 . S
C3855 H3840 0.959 . S
C3855 H3841 0.961 . S
C3855 C3854 1.502 . S
C3856 H3842 0.960 . S
C3856 H3843 0.961 . S
C3856 H3844 0.959 . S
C3856 C3854 1.561 . S
C3857 C3854 1.526 . S
C3857 C3858 1.396 . S
C3857 C3862 1.390 . S
C3858 C3852 1.465 . S
C3858 C3857 1.396 . S
C3858 C3859 1.399 . S
C3859 H3845 0.929 . S
C3859 C3858 1.399 . S
C3859 C3860 1.385 . S
C3860 H3846 0.931 . S
C3860 C3859 1.385 . S
C3860 C3861 1.389 . S
C3861 C3860 1.389 . S
C3861 C3862 1.387 . S
C3862 H3847 0.930 . S
C3862 C3857 1.390 . S
C3862 C3861 1.387 . S
H3863 C3875 0.930 . S
H3864 C3877 0.930 . S
H3865 C3878 0.930 . S
H3866 C3882 0.959 . S
H3867 C3882 0.959 . S
H3868 C3882 0.961 . S
H3869 C3883 0.960 . S
H3870 C3883 0.961 . S
H3871 C3883 0.959 . S
H3872 C3886 0.929 . S
H3873 C3887 0.931 . S
H3874 C3889 0.930 . S
C3875 H3863 0.930 . S
C3875 C3876 1.399 . S
C3875 C3880 1.399 . S
C3876 C3875 1.399 . S
C3876 C3877 1.376 . S
C3877 H3864 0.930 . S
C3877 C3876 1.376 . S
C3877 C3878 1.388 . S
C3878 H3865 0.930 . S
C3878 C3877 1.388 . S
C3878 C3879 1.390 . S
C3879 C3878 1.390 . S
C3879 C3880 1.394 . S
C3879 C3885 1.465 . S
C3880 C3875 1.399 . S
C3880 C3879 1.394 . S
C3880 C3881 1.516 . S
C3881 C3880 1.516 . S
C3881 C3882 1.502 . S
C3881 C3883 1.561 . S
C3881 C3884 1.526 . S
C3882 H3866 0.959 . S
C3882 H3867 0.959 . S
C3882 H3868 0.961 . S
C3882 C3881 1.502 . S
C3883 H3869 0.960 . S
C3883 H3870 0.961 . S
C3883 H3871 0.959 . S
C3883 C3881 1.561 . S
C3884 C3881 1.526 . S
C3884 C3885 1.396 . S
C3884 C3889 1.390 . S
C3885 C3879 1.465 . S
C3885 C3884 1.396 . S
C3885 C3886 1.399 . S
C3886 H3872 0.929 . S
C3886 C3885 1.399 . S
C3886 C3887 1.385 . S
C3887 H3873 0.931 . S
C3887 C3886 1.385 . S
C3887 C3888 1.389 . S
C3888 C3887 1.389 . S
C3888 C3889 1.387 . S
C3889 H3874 0.930 . S
C3889 C3884 1.390 . S
C3889 C3888 1.387 . S
H3890 C3902 0.930 . S
H3891 C3904 0.930 . S
H3892 C3905 0.930 . S
H3893 C3909 0.959 . S
H3894 C3909 0.959 . S
H3895 C3909 0.961 . S
H3896 C3910 0.960 . S
H3897 C3910 0.961 . S
H3898 C3910 0.959 . S
H3899 C3913 0.929 . S
H3900 C3914 0.931 . S
H3901 C3916 0.930 . S
C3902 H3890 0.930 . S
C3902 C3903 1.399 . S
C3902 C3907 1.399 1_655 S
C3903 C3902 1.399 . S
C3903 C3904 1.376 1_655 S
C3904 H3891 0.930 . S
C3904 C3903 1.376 1_455 S
C3904 C3905 1.388 . S
C3905 H3892 0.930 . S
C3905 C3904 1.388 . S
C3905 C3906 1.390 . S
C3906 C3905 1.390 . S
C3906 C3907 1.394 . S
C3906 C3912 1.465 . S
C3907 C3902 1.399 1_455 S
C3907 C3906 1.394 . S
C3907 C3908 1.516 . S
C3908 C3907 1.516 . S
C3908 C3909 1.502 1_455 S
C3908 C3910 1.561 . S
C3908 C3911 1.526 . S
C3909 H3893 0.959 . S
C3909 H3894 0.959 . S
C3909 H3895 0.961 . S
C3909 C3908 1.502 1_655 S
C3910 H3896 0.960 . S
C3910 H3897 0.961 . S
C3910 H3898 0.959 . S
C3910 C3908 1.561 . S
C3911 C3908 1.526 . S
C3911 C3912 1.396 . S
C3911 C3916 1.390 . S
C3912 C3906 1.465 . S
C3912 C3911 1.396 . S
C3912 C3913 1.399 . S
C3913 H3899 0.929 . S
C3913 C3912 1.399 . S
C3913 C3914 1.385 . S
C3914 H3900 0.931 . S
C3914 C3913 1.385 . S
C3914 C3915 1.389 . S
C3915 C3914 1.389 . S
C3915 C3916 1.387 . S
C3916 H3901 0.930 . S
C3916 C3911 1.390 . S
C3916 C3915 1.387 . S
H3917 C3929 0.930 . S
H3918 C3931 0.930 . S
H3919 C3932 0.930 . S
H3920 C3936 0.959 . S
H3921 C3936 0.959 . S
H3922 C3936 0.961 . S
H3923 C3937 0.960 . S
H3924 C3937 0.961 . S
H3925 C3937 0.959 . S
H3926 C3940 0.929 . S
H3927 C3941 0.931 . S
H3928 C3943 0.930 . S
C3929 H3917 0.930 . S
C3929 C3930 1.399 . S
C3929 C3934 1.399 . S
C3930 C3929 1.399 . S
C3930 C3931 1.376 . S
C3931 H3918 0.930 . S
C3931 C3930 1.376 . S
C3931 C3932 1.388 . S
C3932 H3919 0.930 . S
C3932 C3931 1.388 . S
C3932 C3933 1.390 . S
C3933 C3932 1.390 . S
C3933 C3934 1.394 . S
C3933 C3939 1.465 . S
C3934 C3929 1.399 . S
C3934 C3933 1.394 . S
C3934 C3935 1.516 . S
C3935 C3934 1.516 . S
C3935 C3936 1.502 . S
C3935 C3937 1.561 . S
C3935 C3938 1.526 . S
C3936 H3920 0.959 . S
C3936 H3921 0.959 . S
C3936 H3922 0.961 . S
C3936 C3935 1.502 . S
C3937 H3923 0.960 . S
C3937 H3924 0.961 . S
C3937 H3925 0.959 . S
C3937 C3935 1.561 . S
C3938 C3935 1.526 . S
C3938 C3939 1.396 . S
C3938 C3943 1.390 . S
C3939 C3933 1.465 . S
C3939 C3938 1.396 . S
C3939 C3940 1.399 . S
C3940 H3926 0.929 . S
C3940 C3939 1.399 . S
C3940 C3941 1.385 . S
C3941 H3927 0.931 . S
C3941 C3940 1.385 . S
C3941 C3942 1.389 . S
C3942 C3941 1.389 . S
C3942 C3943 1.387 . S
C3943 H3928 0.930 . S
C3943 C3938 1.390 . S
C3943 C3942 1.387 . S
H3944 C3956 0.930 . S
H3945 C3958 0.930 . S
H3946 C3959 0.930 . S
H3947 C3963 0.959 . S
H3948 C3963 0.959 . S
H3949 C3963 0.961 . S
H3950 C3964 0.960 . S
H3951 C3964 0.961 . S
H3952 C3964 0.959 . S
H3953 C3967 0.929 . S
H3954 C3968 0.931 . S
H3955 C3970 0.930 . S
C3956 H3944 0.930 . S
C3956 C3957 1.399 . S
C3956 C3961 1.399 . S
C3957 C3956 1.399 . S
C3957 C3958 1.376 . S
C3958 H3945 0.930 . S
C3958 C3957 1.376 . S
C3958 C3959 1.388 . S
C3959 H3946 0.930 . S
C3959 C3958 1.388 . S
C3959 C3960 1.390 . S
C3960 C3959 1.390 . S
C3960 C3961 1.394 . S
C3960 C3966 1.465 . S
C3961 C3956 1.399 . S
C3961 C3960 1.394 . S
C3961 C3962 1.516 . S
C3962 C3961 1.516 . S
C3962 C3963 1.502 . S
C3962 C3964 1.561 . S
C3962 C3965 1.526 . S
C3963 H3947 0.959 . S
C3963 H3948 0.959 . S
C3963 H3949 0.961 . S
C3963 C3962 1.502 . S
C3964 H3950 0.960 . S
C3964 H3951 0.961 . S
C3964 H3952 0.959 . S
C3964 C3962 1.561 . S
C3965 C3962 1.526 . S
C3965 C3966 1.396 . S
C3965 C3970 1.390 . S
C3966 C3960 1.465 . S
C3966 C3965 1.396 . S
C3966 C3967 1.399 . S
C3967 H3953 0.929 . S
C3967 C3966 1.399 . S
C3967 C3968 1.385 . S
C3968 H3954 0.931 . S
C3968 C3967 1.385 . S
C3968 C3969 1.389 . S
C3969 C3968 1.389 . S
C3969 C3970 1.387 . S
C3970 H3955 0.930 . S
C3970 C3965 1.390 . S
C3970 C3969 1.387 . S
H3971 C3983 0.930 . S
H3972 C3985 0.930 . S
H3973 C3986 0.930 . S
H3974 C3990 0.959 . S
H3975 C3990 0.959 . S
H3976 C3990 0.961 . S
H3977 C3991 0.960 . S
H3978 C3991 0.961 . S
H3979 C3991 0.959 . S
H3980 C3994 0.929 . S
H3981 C3995 0.931 . S
H3982 C3997 0.930 . S
C3983 H3971 0.930 . S
C3983 C3984 1.399 . S
C3983 C3988 1.399 . S
C3984 C3983 1.399 . S
C3984 C3985 1.376 . S
C3985 H3972 0.930 . S
C3985 C3984 1.376 . S
C3985 C3986 1.388 . S
C3986 H3973 0.930 . S
C3986 C3985 1.388 . S
C3986 C3987 1.390 . S
C3987 C3986 1.390 . S
C3987 C3988 1.394 . S
C3987 C3993 1.465 . S
C3988 C3983 1.399 . S
C3988 C3987 1.394 . S
C3988 C3989 1.516 . S
C3989 C3988 1.516 . S
C3989 C3990 1.502 . S
C3989 C3991 1.561 . S
C3989 C3992 1.526 . S
C3990 H3974 0.959 . S
C3990 H3975 0.959 . S
C3990 H3976 0.961 . S
C3990 C3989 1.502 . S
C3991 H3977 0.960 . S
C3991 H3978 0.961 . S
C3991 H3979 0.959 . S
C3991 C3989 1.561 . S
C3992 C3989 1.526 . S
C3992 C3993 1.396 . S
C3992 C3997 1.390 . S
C3993 C3987 1.465 . S
C3993 C3992 1.396 . S
C3993 C3994 1.399 . S
C3994 H3980 0.929 . S
C3994 C3993 1.399 . S
C3994 C3995 1.385 . S
C3995 H3981 0.931 . S
C3995 C3994 1.385 . S
C3995 C3996 1.389 . S
C3996 C3995 1.389 . S
C3996 C3997 1.387 . S
C3997 H3982 0.930 . S
C3997 C3992 1.390 . S
C3997 C3996 1.387 . S
H3998 C4010 0.930 . S
H3999 C4012 0.930 . S
H4000 C4013 0.930 . S
H4001 C4017 0.959 . S
H4002 C4017 0.959 1_655 S
H4003 C4017 0.961 . S
H4004 C4018 0.960 . S
H4005 C4018 0.961 1_655 S
H4006 C4018 0.959 . S
H4007 C4021 0.929 . S
H4008 C4022 0.931 . S
H4009 C4024 0.930 . S
C4010 H3998 0.930 . S
C4010 C4011 1.399 . S
C4010 C4015 1.399 . S
C4011 C4010 1.399 . S
C4011 C4012 1.376 . S
C4012 H3999 0.930 . S
C4012 C4011 1.376 . S
C4012 C4013 1.388 . S
C4013 H4000 0.930 . S
C4013 C4012 1.388 . S
C4013 C4014 1.390 . S
C4014 C4013 1.390 . S
C4014 C4015 1.394 . S
C4014 C4020 1.465 . S
C4015 C4010 1.399 . S
C4015 C4014 1.394 . S
C4015 C4016 1.516 . S
C4016 C4015 1.516 . S
C4016 C4017 1.502 . S
C4016 C4018 1.561 . S
C4016 C4019 1.526 . S
C4017 H4001 0.959 . S
C4017 H4002 0.959 1_455 S
C4017 H4003 0.961 . S
C4017 C4016 1.502 . S
C4018 H4004 0.960 . S
C4018 H4005 0.961 1_455 S
C4018 H4006 0.959 . S
C4018 C4016 1.561 . S
C4019 C4016 1.526 . S
C4019 C4020 1.396 . S
C4019 C4024 1.390 . S
C4020 C4014 1.465 . S
C4020 C4019 1.396 . S
C4020 C4021 1.399 . S
C4021 H4007 0.929 . S
C4021 C4020 1.399 . S
C4021 C4022 1.385 . S
C4022 H4008 0.931 . S
C4022 C4021 1.385 . S
C4022 C4023 1.389 . S
C4023 C4022 1.389 . S
C4023 C4024 1.387 . S
C4024 H4009 0.930 . S
C4024 C4019 1.390 . S
C4024 C4023 1.387 . S
H4025 C4037 0.930 . S
H4026 C4039 0.930 . S
H4027 C4040 0.930 . S
H4028 C4044 0.959 . S
H4029 C4044 0.959 . S
H4030 C4044 0.961 . S
H4031 C4045 0.960 . S
H4032 C4045 0.961 . S
H4033 C4045 0.959 . S
H4034 C4048 0.929 . S
H4035 C4049 0.931 . S
H4036 C4051 0.930 . S
C4037 H4025 0.930 . S
C4037 C4038 1.399 . S
C4037 C4042 1.399 . S
C4038 C4037 1.399 . S
C4038 C4039 1.376 . S
C4039 H4026 0.930 . S
C4039 C4038 1.376 . S
C4039 C4040 1.388 . S
C4040 H4027 0.930 . S
C4040 C4039 1.388 . S
C4040 C4041 1.390 . S
C4041 C4040 1.390 . S
C4041 C4042 1.394 . S
C4041 C4047 1.465 . S
C4042 C4037 1.399 . S
C4042 C4041 1.394 . S
C4042 C4043 1.516 . S
C4043 C4042 1.516 . S
C4043 C4044 1.502 . S
C4043 C4045 1.561 . S
C4043 C4046 1.526 . S
C4044 H4028 0.959 . S
C4044 H4029 0.959 . S
C4044 H4030 0.961 . S
C4044 C4043 1.502 . S
C4045 H4031 0.960 . S
C4045 H4032 0.961 . S
C4045 H4033 0.959 . S
C4045 C4043 1.561 . S
C4046 C4043 1.526 . S
C4046 C4047 1.396 . S
C4046 C4051 1.390 . S
C4047 C4041 1.465 . S
C4047 C4046 1.396 . S
C4047 C4048 1.399 . S
C4048 H4034 0.929 . S
C4048 C4047 1.399 . S
C4048 C4049 1.385 . S
C4049 H4035 0.931 . S
C4049 C4048 1.385 . S
C4049 C4050 1.389 . S
C4050 C4049 1.389 . S
C4050 C4051 1.387 . S
C4051 H4036 0.930 . S
C4051 C4046 1.390 . S
C4051 C4050 1.387 . S
H4052 C4064 0.930 . S
H4053 C4066 0.930 . S
H4054 C4067 0.930 . S
H4055 C4071 0.959 . S
H4056 C4071 0.959 . S
H4057 C4071 0.961 . S
H4058 C4072 0.960 . S
H4059 C4072 0.961 . S
H4060 C4072 0.959 . S
H4061 C4075 0.929 . S
H4062 C4076 0.931 . S
H4063 C4078 0.930 . S
C4064 H4052 0.930 . S
C4064 C4065 1.399 . S
C4064 C4069 1.399 . S
C4065 C4064 1.399 . S
C4065 C4066 1.376 . S
C4066 H4053 0.930 . S
C4066 C4065 1.376 . S
C4066 C4067 1.388 . S
C4067 H4054 0.930 . S
C4067 C4066 1.388 . S
C4067 C4068 1.390 . S
C4068 C4067 1.390 . S
C4068 C4069 1.394 . S
C4068 C4074 1.465 . S
C4069 C4064 1.399 . S
C4069 C4068 1.394 . S
C4069 C4070 1.516 . S
C4070 C4069 1.516 . S
C4070 C4071 1.502 . S
C4070 C4072 1.561 . S
C4070 C4073 1.526 . S
C4071 H4055 0.959 . S
C4071 H4056 0.959 . S
C4071 H4057 0.961 . S
C4071 C4070 1.502 . S
C4072 H4058 0.960 . S
C4072 H4059 0.961 . S
C4072 H4060 0.959 . S
C4072 C4070 1.561 . S
C4073 C4070 1.526 . S
C4073 C4074 1.396 . S
C4073 C4078 1.390 . S
C4074 C4068 1.465 . S
C4074 C4073 1.396 . S
C4074 C4075 1.399 . S
C4075 H4061 0.929 . S
C4075 C4074 1.399 . S
C4075 C4076 1.385 . S
C4076 H4062 0.931 . S
C4076 C4075 1.385 . S
C4076 C4077 1.389 . S
C4077 C4076 1.389 . S
C4077 C4078 1.387 . S
C4078 H4063 0.930 . S
C4078 C4073 1.390 . S
C4078 C4077 1.387 . S
H4079 C4091 0.930 . S
H4080 C4093 0.930 . S
H4081 C4094 0.930 . S
H4082 C4098 0.959 . S
H4083 C4098 0.959 . S
H4084 C4098 0.961 . S
H4085 C4099 0.960 . S
H4086 C4099 0.961 . S
H4087 C4099 0.959 . S
H4088 C4102 0.929 . S
H4089 C4103 0.931 . S
H4090 C4105 0.930 . S
C4091 H4079 0.930 . S
C4091 C4092 1.399 . S
C4091 C4096 1.399 . S
C4092 C4091 1.399 . S
C4092 C4093 1.376 . S
C4093 H4080 0.930 . S
C4093 C4092 1.376 . S
C4093 C4094 1.388 . S
C4094 H4081 0.930 . S
C4094 C4093 1.388 . S
C4094 C4095 1.390 . S
C4095 C4094 1.390 . S
C4095 C4096 1.394 . S
C4095 C4101 1.465 . S
C4096 C4091 1.399 . S
C4096 C4095 1.394 . S
C4096 C4097 1.516 . S
C4097 C4096 1.516 . S
C4097 C4098 1.502 . S
C4097 C4099 1.561 . S
C4097 C4100 1.526 . S
C4098 H4082 0.959 . S
C4098 H4083 0.959 . S
C4098 H4084 0.961 . S
C4098 C4097 1.502 . S
C4099 H4085 0.960 . S
C4099 H4086 0.961 . S
C4099 H4087 0.959 . S
C4099 C4097 1.561 . S
C4100 C4097 1.526 . S
C4100 C4101 1.396 . S
C4100 C4105 1.390 . S
C4101 C4095 1.465 . S
C4101 C4100 1.396 . S
C4101 C4102 1.399 . S
C4102 H4088 0.929 . S
C4102 C4101 1.399 . S
C4102 C4103 1.385 . S
C4103 H4089 0.931 . S
C4103 C4102 1.385 . S
C4103 C4104 1.389 . S
C4104 C4103 1.389 . S
C4104 C4105 1.387 . S
C4105 H4090 0.930 . S
C4105 C4100 1.390 . S
C4105 C4104 1.387 . S
H4106 C4118 0.930 . S
H4107 C4120 0.930 . S
H4108 C4121 0.930 . S
H4109 C4125 0.959 . S
H4110 C4125 0.959 . S
H4111 C4125 0.961 . S
H4112 C4126 0.960 . S
H4113 C4126 0.961 . S
H4114 C4126 0.959 . S
H4115 C4129 0.929 . S
H4116 C4130 0.931 . S
H4117 C4132 0.930 . S
C4118 H4106 0.930 . S
C4118 C4119 1.399 . S
C4118 C4123 1.399 . S
C4119 C4118 1.399 . S
C4119 C4120 1.376 . S
C4120 H4107 0.930 . S
C4120 C4119 1.376 . S
C4120 C4121 1.388 . S
C4121 H4108 0.930 . S
C4121 C4120 1.388 . S
C4121 C4122 1.390 . S
C4122 C4121 1.390 . S
C4122 C4123 1.394 . S
C4122 C4128 1.465 . S
C4123 C4118 1.399 . S
C4123 C4122 1.394 . S
C4123 C4124 1.516 . S
C4124 C4123 1.516 . S
C4124 C4125 1.502 . S
C4124 C4126 1.561 . S
C4124 C4127 1.526 . S
C4125 H4109 0.959 . S
C4125 H4110 0.959 . S
C4125 H4111 0.961 . S
C4125 C4124 1.502 . S
C4126 H4112 0.960 . S
C4126 H4113 0.961 . S
C4126 H4114 0.959 . S
C4126 C4124 1.561 . S
C4127 C4124 1.526 . S
C4127 C4128 1.396 . S
C4127 C4132 1.390 . S
C4128 C4122 1.465 . S
C4128 C4127 1.396 . S
C4128 C4129 1.399 . S
C4129 H4115 0.929 . S
C4129 C4128 1.399 . S
C4129 C4130 1.385 . S
C4130 H4116 0.931 . S
C4130 C4129 1.385 . S
C4130 C4131 1.389 . S
C4131 C4130 1.389 . S
C4131 C4132 1.387 . S
C4132 H4117 0.930 . S
C4132 C4127 1.390 . S
C4132 C4131 1.387 . S
H4133 C4145 0.930 . S
H4134 C4147 0.930 . S
H4135 C4148 0.930 . S
H4136 C4152 0.959 . S
H4137 C4152 0.959 . S
H4138 C4152 0.961 . S
H4139 C4153 0.960 . S
H4140 C4153 0.961 . S
H4141 C4153 0.959 . S
H4142 C4156 0.929 . S
H4143 C4157 0.931 . S
H4144 C4159 0.930 . S
C4145 H4133 0.930 . S
C4145 C4146 1.399 . S
C4145 C4150 1.399 . S
C4146 C4145 1.399 . S
C4146 C4147 1.376 . S
C4147 H4134 0.930 . S
C4147 C4146 1.376 . S
C4147 C4148 1.388 . S
C4148 H4135 0.930 . S
C4148 C4147 1.388 . S
C4148 C4149 1.390 . S
C4149 C4148 1.390 . S
C4149 C4150 1.394 . S
C4149 C4155 1.465 . S
C4150 C4145 1.399 . S
C4150 C4149 1.394 . S
C4150 C4151 1.516 . S
C4151 C4150 1.516 . S
C4151 C4152 1.502 . S
C4151 C4153 1.561 . S
C4151 C4154 1.526 . S
C4152 H4136 0.959 . S
C4152 H4137 0.959 . S
C4152 H4138 0.961 . S
C4152 C4151 1.502 . S
C4153 H4139 0.960 . S
C4153 H4140 0.961 . S
C4153 H4141 0.959 . S
C4153 C4151 1.561 . S
C4154 C4151 1.526 . S
C4154 C4155 1.396 . S
C4154 C4159 1.390 . S
C4155 C4149 1.465 . S
C4155 C4154 1.396 . S
C4155 C4156 1.399 . S
C4156 H4142 0.929 . S
C4156 C4155 1.399 . S
C4156 C4157 1.385 . S
C4157 H4143 0.931 . S
C4157 C4156 1.385 . S
C4157 C4158 1.389 . S
C4158 C4157 1.389 . S
C4158 C4159 1.387 . S
C4159 H4144 0.930 . S
C4159 C4154 1.390 . S
C4159 C4158 1.387 . S
H4160 C4172 0.930 . S
H4161 C4174 0.930 . S
H4162 C4175 0.930 . S
H4163 C4179 0.959 . S
H4164 C4179 0.959 . S
H4165 C4179 0.961 . S
H4166 C4180 0.960 . S
H4167 C4180 0.961 . S
H4168 C4180 0.959 . S
H4169 C4183 0.929 . S
H4170 C4184 0.931 . S
H4171 C4186 0.930 . S
C4172 H4160 0.930 . S
C4172 C4173 1.399 . S
C4172 C4177 1.399 . S
C4173 C4172 1.399 . S
C4173 C4174 1.376 . S
C4174 H4161 0.930 . S
C4174 C4173 1.376 . S
C4174 C4175 1.388 . S
C4175 H4162 0.930 . S
C4175 C4174 1.388 . S
C4175 C4176 1.390 . S
C4176 C4175 1.390 . S
C4176 C4177 1.394 . S
C4176 C4182 1.465 . S
C4177 C4172 1.399 . S
C4177 C4176 1.394 . S
C4177 C4178 1.516 . S
C4178 C4177 1.516 . S
C4178 C4179 1.502 . S
C4178 C4180 1.561 . S
C4178 C4181 1.526 . S
C4179 H4163 0.959 . S
C4179 H4164 0.959 . S
C4179 H4165 0.961 . S
C4179 C4178 1.502 . S
C4180 H4166 0.960 . S
C4180 H4167 0.961 . S
C4180 H4168 0.959 . S
C4180 C4178 1.561 . S
C4181 C4178 1.526 . S
C4181 C4182 1.396 . S
C4181 C4186 1.390 . S
C4182 C4176 1.465 . S
C4182 C4181 1.396 . S
C4182 C4183 1.399 . S
C4183 H4169 0.929 . S
C4183 C4182 1.399 . S
C4183 C4184 1.385 . S
C4184 H4170 0.931 . S
C4184 C4183 1.385 . S
C4184 C4185 1.389 . S
C4185 C4184 1.389 . S
C4185 C4186 1.387 . S
C4186 H4171 0.930 . S
C4186 C4181 1.390 . S
C4186 C4185 1.387 . S
H4187 C4199 0.930 . S
H4188 C4201 0.930 . S
H4189 C4202 0.930 . S
H4190 C4206 0.959 . S
H4191 C4206 0.959 . S
H4192 C4206 0.961 . S
H4193 C4207 0.960 . S
H4194 C4207 0.961 . S
H4195 C4207 0.959 . S
H4196 C4210 0.929 . S
H4197 C4211 0.931 . S
H4198 C4213 0.930 . S
C4199 H4187 0.930 . S
C4199 C4200 1.399 . S
C4199 C4204 1.399 . S
C4200 C4199 1.399 . S
C4200 C4201 1.376 . S
C4201 H4188 0.930 . S
C4201 C4200 1.376 . S
C4201 C4202 1.388 . S
C4202 H4189 0.930 . S
C4202 C4201 1.388 . S
C4202 C4203 1.390 . S
C4203 C4202 1.390 . S
C4203 C4204 1.394 . S
C4203 C4209 1.465 . S
C4204 C4199 1.399 . S
C4204 C4203 1.394 . S
C4204 C4205 1.516 . S
C4205 C4204 1.516 . S
C4205 C4206 1.502 . S
C4205 C4207 1.561 . S
C4205 C4208 1.526 . S
C4206 H4190 0.959 . S
C4206 H4191 0.959 . S
C4206 H4192 0.961 . S
C4206 C4205 1.502 . S
C4207 H4193 0.960 . S
C4207 H4194 0.961 . S
C4207 H4195 0.959 . S
C4207 C4205 1.561 . S
C4208 C4205 1.526 . S
C4208 C4209 1.396 . S
C4208 C4213 1.390 . S
C4209 C4203 1.465 . S
C4209 C4208 1.396 . S
C4209 C4210 1.399 . S
C4210 H4196 0.929 . S
C4210 C4209 1.399 . S
C4210 C4211 1.385 . S
C4211 H4197 0.931 . S
C4211 C4210 1.385 . S
C4211 C4212 1.389 . S
C4212 C4211 1.389 . S
C4212 C4213 1.387 . S
C4213 H4198 0.930 . S
C4213 C4208 1.390 . S
C4213 C4212 1.387 . S
H4214 C4226 0.930 . S
H4215 C4228 0.930 . S
H4216 C4229 0.930 . S
H4217 C4233 0.959 . S
H4218 C4233 0.959 . S
H4219 C4233 0.961 . S
H4220 C4234 0.960 . S
H4221 C4234 0.961 . S
H4222 C4234 0.959 . S
H4223 C4237 0.929 . S
H4224 C4238 0.931 . S
H4225 C4240 0.930 . S
C4226 H4214 0.930 . S
C4226 C4227 1.399 . S
C4226 C4231 1.399 . S
C4227 C4226 1.399 . S
C4227 C4228 1.376 . S
C4228 H4215 0.930 . S
C4228 C4227 1.376 . S
C4228 C4229 1.388 . S
C4229 H4216 0.930 . S
C4229 C4228 1.388 . S
C4229 C4230 1.390 . S
C4230 C4229 1.390 . S
C4230 C4231 1.394 . S
C4230 C4236 1.465 . S
C4231 C4226 1.399 . S
C4231 C4230 1.394 . S
C4231 C4232 1.516 . S
C4232 C4231 1.516 . S
C4232 C4233 1.502 . S
C4232 C4234 1.561 . S
C4232 C4235 1.526 . S
C4233 H4217 0.959 . S
C4233 H4218 0.959 . S
C4233 H4219 0.961 . S
C4233 C4232 1.502 . S
C4234 H4220 0.960 . S
C4234 H4221 0.961 . S
C4234 H4222 0.959 . S
C4234 C4232 1.561 . S
C4235 C4232 1.526 . S
C4235 C4236 1.396 . S
C4235 C4240 1.390 . S
C4236 C4230 1.465 . S
C4236 C4235 1.396 . S
C4236 C4237 1.399 . S
C4237 H4223 0.929 . S
C4237 C4236 1.399 . S
C4237 C4238 1.385 . S
C4238 H4224 0.931 . S
C4238 C4237 1.385 . S
C4238 C4239 1.389 . S
C4239 C4238 1.389 . S
C4239 C4240 1.387 . S
C4240 H4225 0.930 . S
C4240 C4235 1.390 . S
C4240 C4239 1.387 . S
H4241 C4253 0.930 . S
H4242 C4255 0.930 . S
H4243 C4256 0.930 1_556 S
H4244 C4260 0.959 . S
H4245 C4260 0.959 . S
H4246 C4260 0.961 . S
H4247 C4261 0.960 . S
H4248 C4261 0.961 . S
H4249 C4261 0.959 . S
H4250 C4264 0.929 . S
H4251 C4265 0.931 . S
H4252 C4267 0.930 . S
C4253 H4241 0.930 . S
C4253 C4254 1.399 . S
C4253 C4258 1.399 . S
C4254 C4253 1.399 . S
C4254 C4255 1.376 . S
C4255 H4242 0.930 . S
C4255 C4254 1.376 . S
C4255 C4256 1.388 . S
C4256 H4243 0.930 1_554 S
C4256 C4255 1.388 . S
C4256 C4257 1.390 . S
C4257 C4256 1.390 . S
C4257 C4258 1.394 . S
C4257 C4263 1.465 . S
C4258 C4253 1.399 . S
C4258 C4257 1.394 . S
C4258 C4259 1.516 1_565 S
C4259 C4258 1.516 1_545 S
C4259 C4260 1.502 . S
C4259 C4261 1.561 1_545 S
C4259 C4262 1.529 . S
C4260 H4244 0.959 . S
C4260 H4245 0.959 . S
C4260 H4246 0.961 . S
C4260 C4259 1.502 . S
C4261 H4247 0.960 . S
C4261 H4248 0.961 . S
C4261 H4249 0.959 . S
C4261 C4259 1.561 1_565 S
C4262 C4259 1.529 . S
C4262 C4263 1.377 1_545 S
C4262 C4267 1.403 . S
C4263 C4257 1.465 . S
C4263 C4262 1.377 1_565 S
C4263 C4264 1.399 1_554 S
C4264 H4250 0.929 . S
C4264 C4263 1.399 1_556 S
C4264 C4265 1.385 . S
C4265 H4251 0.931 . S
C4265 C4264 1.385 . S
C4265 C4266 1.389 1_566 S
C4266 C4265 1.389 1_544 S
C4266 C4267 1.387 . S
C4267 H4252 0.930 . S
C4267 C4262 1.403 . S
C4267 C4266 1.387 . S
H4268 C4280 0.930 . S
H4269 C4282 0.930 . S
H4270 C4283 0.930 . S
H4271 C4287 0.959 . S
H4272 C4287 0.959 . S
H4273 C4287 0.961 . S
H4274 C4288 0.960 . S
H4275 C4288 0.961 . S
H4276 C4288 0.959 . S
H4277 C4291 0.929 . S
H4278 C4292 0.931 . S
H4279 C4294 0.930 . S
C4280 H4268 0.930 . S
C4280 C4281 1.399 . S
C4280 C4285 1.399 . S
C4281 C4280 1.399 . S
C4281 C4282 1.376 . S
C4282 H4269 0.930 . S
C4282 C4281 1.376 . S
C4282 C4283 1.388 . S
C4283 H4270 0.930 . S
C4283 C4282 1.388 . S
C4283 C4284 1.390 . S
C4284 C4283 1.390 . S
C4284 C4285 1.394 . S
C4284 C4290 1.465 . S
C4285 C4280 1.399 . S
C4285 C4284 1.394 . S
C4285 C4286 1.516 . S
C4286 C4285 1.516 . S
C4286 C4287 1.502 . S
C4286 C4288 1.561 . S
C4286 C4289 1.526 . S
C4287 H4271 0.959 . S
C4287 H4272 0.959 . S
C4287 H4273 0.961 . S
C4287 C4286 1.502 . S
C4288 H4274 0.960 . S
C4288 H4275 0.961 . S
C4288 H4276 0.959 . S
C4288 C4286 1.561 . S
C4289 C4286 1.526 . S
C4289 C4290 1.396 . S
C4289 C4294 1.390 . S
C4290 C4284 1.465 . S
C4290 C4289 1.396 . S
C4290 C4291 1.399 . S
C4291 H4277 0.929 . S
C4291 C4290 1.399 . S
C4291 C4292 1.385 . S
C4292 H4278 0.931 . S
C4292 C4291 1.385 . S
C4292 C4293 1.389 . S
C4293 C4292 1.389 . S
C4293 C4294 1.387 . S
C4294 H4279 0.930 . S
C4294 C4289 1.390 . S
C4294 C4293 1.387 . S
H4295 C4307 0.930 1_556 S
H4296 C4309 0.930 . S
H4297 C4310 0.930 . S
H4298 C4314 0.959 1_554 S
H4299 C4314 0.959 . S
H4300 C4314 0.961 . S
H4301 C4315 0.960 . S
H4302 C4315 0.961 . S
H4303 C4315 0.959 . S
H4304 C4318 0.929 . S
H4305 C4319 0.931 . S
H4306 C4321 0.930 . S
C4307 H4295 0.930 1_554 S
C4307 C4308 1.399 . S
C4307 C4312 1.399 . S
C4308 C4307 1.399 . S
C4308 C4309 1.376 . S
C4309 H4296 0.930 . S
C4309 C4308 1.376 . S
C4309 C4310 1.388 . S
C4310 H4297 0.930 . S
C4310 C4309 1.388 . S
C4310 C4311 1.390 . S
C4311 C4310 1.390 . S
C4311 C4312 1.394 . S
C4311 C4317 1.465 . S
C4312 C4307 1.399 . S
C4312 C4311 1.394 . S
C4312 C4313 1.505 1_554 S
C4313 C4312 1.505 1_556 S
C4313 C4314 1.503 . S
C4313 C4315 1.591 . S
C4313 C4316 1.506 1_556 S
C4314 H4298 0.959 1_556 S
C4314 H4299 0.959 . S
C4314 H4300 0.961 . S
C4314 C4313 1.503 . S
C4315 H4301 0.960 . S
C4315 H4302 0.961 . S
C4315 H4303 0.959 . S
C4315 C4313 1.591 . S
C4316 C4313 1.506 1_554 S
C4316 C4317 1.396 . S
C4316 C4321 1.390 . S
C4317 C4311 1.465 . S
C4317 C4316 1.396 . S
C4317 C4318 1.399 . S
C4318 H4304 0.929 . S
C4318 C4317 1.399 . S
C4318 C4319 1.385 . S
C4319 H4305 0.931 . S
C4319 C4318 1.385 . S
C4319 C4320 1.389 . S
C4320 C4319 1.389 . S
C4320 C4321 1.387 . S
C4321 H4306 0.930 . S
C4321 C4316 1.390 . S
C4321 C4320 1.387 . S
H4322 C4334 0.930 . S
H4323 C4336 0.930 . S
H4324 C4337 0.930 . S
H4325 C4341 0.959 . S
H4326 C4341 0.959 . S
H4327 C4341 0.961 . S
H4328 C4342 0.960 . S
H4329 C4342 0.961 . S
H4330 C4342 0.959 . S
H4331 C4345 0.929 . S
H4332 C4346 0.931 . S
H4333 C4348 0.930 . S
C4334 H4322 0.930 . S
C4334 C4335 1.399 . S
C4334 C4339 1.399 . S
C4335 C4334 1.399 . S
C4335 C4336 1.376 . S
C4336 H4323 0.930 . S
C4336 C4335 1.376 . S
C4336 C4337 1.388 . S
C4337 H4324 0.930 . S
C4337 C4336 1.388 . S
C4337 C4338 1.390 . S
C4338 C4337 1.390 . S
C4338 C4339 1.394 . S
C4338 C4344 1.465 . S
C4339 C4334 1.399 . S
C4339 C4338 1.394 . S
C4339 C4340 1.516 . S
C4340 C4339 1.516 . S
C4340 C4341 1.502 . S
C4340 C4342 1.561 . S
C4340 C4343 1.526 . S
C4341 H4325 0.959 . S
C4341 H4326 0.959 . S
C4341 H4327 0.961 . S
C4341 C4340 1.502 . S
C4342 H4328 0.960 . S
C4342 H4329 0.961 . S
C4342 H4330 0.959 . S
C4342 C4340 1.561 . S
C4343 C4340 1.526 . S
C4343 C4344 1.396 . S
C4343 C4348 1.390 . S
C4344 C4338 1.465 . S
C4344 C4343 1.396 . S
C4344 C4345 1.399 . S
C4345 H4331 0.929 . S
C4345 C4344 1.399 . S
C4345 C4346 1.385 . S
C4346 H4332 0.931 . S
C4346 C4345 1.385 . S
C4346 C4347 1.389 . S
C4347 C4346 1.389 . S
C4347 C4348 1.387 . S
C4348 H4333 0.930 . S
C4348 C4343 1.390 . S
C4348 C4347 1.387 . S
H4349 C4361 0.930 . S
H4350 C4363 0.930 . S
H4351 C4364 0.930 . S
H4352 C4368 0.959 . S
H4353 C4368 0.959 . S
H4354 C4368 0.961 . S
H4355 C4369 0.960 . S
H4356 C4369 0.961 . S
H4357 C4369 0.959 . S
H4358 C4372 0.929 . S
H4359 C4373 0.931 . S
H4360 C4375 0.930 . S
C4361 H4349 0.930 . S
C4361 C4362 1.399 . S
C4361 C4366 1.399 . S
C4362 C4361 1.399 . S
C4362 C4363 1.376 . S
C4363 H4350 0.930 . S
C4363 C4362 1.376 . S
C4363 C4364 1.388 . S
C4364 H4351 0.930 . S
C4364 C4363 1.388 . S
C4364 C4365 1.390 . S
C4365 C4364 1.390 . S
C4365 C4366 1.394 . S
C4365 C4371 1.465 . S
C4366 C4361 1.399 . S
C4366 C4365 1.394 . S
C4366 C4367 1.516 . S
C4367 C4366 1.516 . S
C4367 C4368 1.502 . S
C4367 C4369 1.561 . S
C4367 C4370 1.526 . S
C4368 H4352 0.959 . S
C4368 H4353 0.959 . S
C4368 H4354 0.961 . S
C4368 C4367 1.502 . S
C4369 H4355 0.960 . S
C4369 H4356 0.961 . S
C4369 H4357 0.959 . S
C4369 C4367 1.561 . S
C4370 C4367 1.526 . S
C4370 C4371 1.396 . S
C4370 C4375 1.390 . S
C4371 C4365 1.465 . S
C4371 C4370 1.396 . S
C4371 C4372 1.399 . S
C4372 H4358 0.929 . S
C4372 C4371 1.399 . S
C4372 C4373 1.385 . S
C4373 H4359 0.931 . S
C4373 C4372 1.385 . S
C4373 C4374 1.389 . S
C4374 C4373 1.389 . S
C4374 C4375 1.387 . S
C4375 H4360 0.930 . S
C4375 C4370 1.390 . S
C4375 C4374 1.387 . S
H4376 C4388 0.930 . S
H4377 C4390 0.930 . S
H4378 C4391 0.930 . S
H4379 C4395 0.959 . S
H4380 C4395 0.959 . S
H4381 C4395 0.961 . S
H4382 C4396 0.960 . S
H4383 C4396 0.961 . S
H4384 C4396 0.959 . S
H4385 C4399 0.929 . S
H4386 C4400 0.931 . S
H4387 C4402 0.930 . S
C4388 H4376 0.930 . S
C4388 C4389 1.399 . S
C4388 C4393 1.399 . S
C4389 C4388 1.399 . S
C4389 C4390 1.376 . S
C4390 H4377 0.930 . S
C4390 C4389 1.376 . S
C4390 C4391 1.388 . S
C4391 H4378 0.930 . S
C4391 C4390 1.388 . S
C4391 C4392 1.390 . S
C4392 C4391 1.390 . S
C4392 C4393 1.394 . S
C4392 C4398 1.465 . S
C4393 C4388 1.399 . S
C4393 C4392 1.394 . S
C4393 C4394 1.516 . S
C4394 C4393 1.516 . S
C4394 C4395 1.502 . S
C4394 C4396 1.561 . S
C4394 C4397 1.526 . S
C4395 H4379 0.959 . S
C4395 H4380 0.959 . S
C4395 H4381 0.961 . S
C4395 C4394 1.502 . S
C4396 H4382 0.960 . S
C4396 H4383 0.961 . S
C4396 H4384 0.959 . S
C4396 C4394 1.561 . S
C4397 C4394 1.526 . S
C4397 C4398 1.396 . S
C4397 C4402 1.390 . S
C4398 C4392 1.465 . S
C4398 C4397 1.396 . S
C4398 C4399 1.399 . S
C4399 H4385 0.929 . S
C4399 C4398 1.399 . S
C4399 C4400 1.385 . S
C4400 H4386 0.931 . S
C4400 C4399 1.385 . S
C4400 C4401 1.389 . S
C4401 C4400 1.389 . S
C4401 C4402 1.387 . S
C4402 H4387 0.930 . S
C4402 C4397 1.390 . S
C4402 C4401 1.387 . S
H4403 C4415 0.930 . S
H4404 C4417 0.930 . S
H4405 C4418 0.930 . S
H4406 C4422 0.959 . S
H4407 C4422 0.959 . S
H4408 C4422 0.961 . S
H4409 C4423 0.960 . S
H4410 C4423 0.961 . S
H4411 C4423 0.959 . S
H4412 C4426 0.929 . S
H4413 C4427 0.931 . S
H4414 C4429 0.930 . S
C4415 H4403 0.930 . S
C4415 C4416 1.399 . S
C4415 C4420 1.399 . S
C4416 C4415 1.399 . S
C4416 C4417 1.376 . S
C4417 H4404 0.930 . S
C4417 C4416 1.376 . S
C4417 C4418 1.388 . S
C4418 H4405 0.930 . S
C4418 C4417 1.388 . S
C4418 C4419 1.390 . S
C4419 C4418 1.390 . S
C4419 C4420 1.394 . S
C4419 C4425 1.465 . S
C4420 C4415 1.399 . S
C4420 C4419 1.394 . S
C4420 C4421 1.516 . S
C4421 C4420 1.516 . S
C4421 C4422 1.502 . S
C4421 C4423 1.561 . S
C4421 C4424 1.526 . S
C4422 H4406 0.959 . S
C4422 H4407 0.959 . S
C4422 H4408 0.961 . S
C4422 C4421 1.502 . S
C4423 H4409 0.960 . S
C4423 H4410 0.961 . S
C4423 H4411 0.959 . S
C4423 C4421 1.561 . S
C4424 C4421 1.526 . S
C4424 C4425 1.396 . S
C4424 C4429 1.390 . S
C4425 C4419 1.465 . S
C4425 C4424 1.396 . S
C4425 C4426 1.399 . S
C4426 H4412 0.929 . S
C4426 C4425 1.399 . S
C4426 C4427 1.385 . S
C4427 H4413 0.931 . S
C4427 C4426 1.385 . S
C4427 C4428 1.389 . S
C4428 C4427 1.389 . S
C4428 C4429 1.387 . S
C4429 H4414 0.930 . S
C4429 C4424 1.390 . S
C4429 C4428 1.387 . S
H4430 C4442 0.930 . S
H4431 C4444 0.930 . S
H4432 C4445 0.930 . S
H4433 C4449 0.959 . S
H4434 C4449 0.965 1_556 S
H4435 C4449 0.961 1_556 S
H4436 C4450 0.960 . S
H4437 C4450 0.961 1_556 S
H4438 C4450 0.959 . S
H4439 C4453 0.929 . S
H4440 C4454 0.931 . S
H4441 C4456 0.930 . S
C4442 H4430 0.930 . S
C4442 C4443 1.399 . S
C4442 C4447 1.399 . S
C4443 C4442 1.399 . S
C4443 C4444 1.376 . S
C4444 H4431 0.930 . S
C4444 C4443 1.376 . S
C4444 C4445 1.388 . S
C4445 H4432 0.930 . S
C4445 C4444 1.388 . S
C4445 C4446 1.390 . S
C4446 C4445 1.390 . S
C4446 C4447 1.394 . S
C4446 C4452 1.465 . S
C4447 C4442 1.399 . S
C4447 C4446 1.394 . S
C4447 C4448 1.516 . S
C4448 C4447 1.516 . S
C4448 C4449 1.502 1_455 S
C4448 C4450 1.561 . S
C4448 C4451 1.526 . S
C4449 H4433 0.959 . S
C4449 H4434 0.965 1_554 S
C4449 H4435 0.961 1_554 S
C4449 C4448 1.502 1_655 S
C4450 H4436 0.960 . S
C4450 H4437 0.961 1_554 S
C4450 H4438 0.959 . S
C4450 C4448 1.561 . S
C4451 C4448 1.526 . S
C4451 C4452 1.396 . S
C4451 C4456 1.390 . S
C4452 C4446 1.465 . S
C4452 C4451 1.396 . S
C4452 C4453 1.399 . S
C4453 H4439 0.929 . S
C4453 C4452 1.399 . S
C4453 C4454 1.385 . S
C4454 H4440 0.931 . S
C4454 C4453 1.385 . S
C4454 C4455 1.389 . S
C4455 C4454 1.389 . S
C4455 C4456 1.387 . S
C4456 H4441 0.930 . S
C4456 C4451 1.390 . S
C4456 C4455 1.387 . S
H4457 C4469 0.930 . S
H4458 C4471 0.930 . S
H4459 C4472 0.930 . S
H4460 C4476 0.959 . S
H4461 C4476 0.959 . S
H4462 C4476 0.961 . S
H4463 C4477 0.960 . S
H4464 C4477 0.961 . S
H4465 C4477 0.959 . S
H4466 C4480 0.929 . S
H4467 C4481 0.931 . S
H4468 C4483 0.930 . S
C4469 H4457 0.930 . S
C4469 C4470 1.399 . S
C4469 C4474 1.399 . S
C4470 C4469 1.399 . S
C4470 C4471 1.376 . S
C4471 H4458 0.930 . S
C4471 C4470 1.376 . S
C4471 C4472 1.388 . S
C4472 H4459 0.930 . S
C4472 C4471 1.388 . S
C4472 C4473 1.390 . S
C4473 C4472 1.390 . S
C4473 C4474 1.394 . S
C4473 C4479 1.465 . S
C4474 C4469 1.399 . S
C4474 C4473 1.394 . S
C4474 C4475 1.516 . S
C4475 C4474 1.516 . S
C4475 C4476 1.502 . S
C4475 C4477 1.561 . S
C4475 C4478 1.526 . S
C4476 H4460 0.959 . S
C4476 H4461 0.959 . S
C4476 H4462 0.961 . S
C4476 C4475 1.502 . S
C4477 H4463 0.960 . S
C4477 H4464 0.961 . S
C4477 H4465 0.959 . S
C4477 C4475 1.561 . S
C4478 C4475 1.526 . S
C4478 C4479 1.396 . S
C4478 C4483 1.390 . S
C4479 C4473 1.465 . S
C4479 C4478 1.396 . S
C4479 C4480 1.399 . S
C4480 H4466 0.929 . S
C4480 C4479 1.399 . S
C4480 C4481 1.385 . S
C4481 H4467 0.931 . S
C4481 C4480 1.385 . S
C4481 C4482 1.389 . S
C4482 C4481 1.389 . S
C4482 C4483 1.387 . S
C4483 H4468 0.930 . S
C4483 C4478 1.390 . S
C4483 C4482 1.387 . S
H4484 C4496 0.930 . S
H4485 C4498 0.930 . S
H4486 C4499 0.930 . S
H4487 C4503 0.959 . S
H4488 C4503 0.959 . S
H4489 C4503 0.961 . S
H4490 C4504 0.960 . S
H4491 C4504 0.961 . S
H4492 C4504 0.959 . S
H4493 C4507 0.929 . S
H4494 C4508 0.931 . S
H4495 C4510 0.930 . S
C4496 H4484 0.930 . S
C4496 C4497 1.399 . S
C4496 C4501 1.399 . S
C4497 C4496 1.399 . S
C4497 C4498 1.376 . S
C4498 H4485 0.930 . S
C4498 C4497 1.376 . S
C4498 C4499 1.388 . S
C4499 H4486 0.930 . S
C4499 C4498 1.388 . S
C4499 C4500 1.390 . S
C4500 C4499 1.390 . S
C4500 C4501 1.394 . S
C4500 C4506 1.465 . S
C4501 C4496 1.399 . S
C4501 C4500 1.394 . S
C4501 C4502 1.516 . S
C4502 C4501 1.516 . S
C4502 C4503 1.502 . S
C4502 C4504 1.561 . S
C4502 C4505 1.526 . S
C4503 H4487 0.959 . S
C4503 H4488 0.959 . S
C4503 H4489 0.961 . S
C4503 C4502 1.502 . S
C4504 H4490 0.960 . S
C4504 H4491 0.961 . S
C4504 H4492 0.959 . S
C4504 C4502 1.561 . S
C4505 C4502 1.526 . S
C4505 C4506 1.396 . S
C4505 C4510 1.390 . S
C4506 C4500 1.465 . S
C4506 C4505 1.396 . S
C4506 C4507 1.399 1_556 S
C4507 H4493 0.929 . S
C4507 C4506 1.399 1_554 S
C4507 C4508 1.385 . S
C4508 H4494 0.931 . S
C4508 C4507 1.385 . S
C4508 C4509 1.389 1_554 S
C4509 C4508 1.389 1_556 S
C4509 C4510 1.387 . S
C4510 H4495 0.930 . S
C4510 C4505 1.390 . S
C4510 C4509 1.387 . S
H4511 C4523 0.930 . S
H4512 C4525 0.930 . S
H4513 C4526 0.930 . S
H4514 C4530 0.959 . S
H4515 C4530 0.959 . S
H4516 C4530 0.961 . S
H4517 C4531 0.960 . S
H4518 C4531 0.961 . S
H4519 C4531 0.959 . S
H4520 C4534 0.929 . S
H4521 C4535 0.931 . S
H4522 C4537 0.930 . S
C4523 H4511 0.930 . S
C4523 C4524 1.399 . S
C4523 C4528 1.399 . S
C4524 C4523 1.399 . S
C4524 C4525 1.376 . S
C4525 H4512 0.930 . S
C4525 C4524 1.376 . S
C4525 C4526 1.388 . S
C4526 H4513 0.930 . S
C4526 C4525 1.388 . S
C4526 C4527 1.390 . S
C4527 C4526 1.390 . S
C4527 C4528 1.394 . S
C4527 C4533 1.465 . S
C4528 C4523 1.399 . S
C4528 C4527 1.394 . S
C4528 C4529 1.516 . S
C4529 C4528 1.516 . S
C4529 C4530 1.502 . S
C4529 C4531 1.561 . S
C4529 C4532 1.526 . S
C4530 H4514 0.959 . S
C4530 H4515 0.959 . S
C4530 H4516 0.961 . S
C4530 C4529 1.502 . S
C4531 H4517 0.960 . S
C4531 H4518 0.961 . S
C4531 H4519 0.959 . S
C4531 C4529 1.561 . S
C4532 C4529 1.526 . S
C4532 C4533 1.396 . S
C4532 C4537 1.390 . S
C4533 C4527 1.465 . S
C4533 C4532 1.396 . S
C4533 C4534 1.399 . S
C4534 H4520 0.929 . S
C4534 C4533 1.399 . S
C4534 C4535 1.385 . S
C4535 H4521 0.931 . S
C4535 C4534 1.385 . S
C4535 C4536 1.389 . S
C4536 C4535 1.389 . S
C4536 C4537 1.387 . S
C4537 H4522 0.930 . S
C4537 C4532 1.390 . S
C4537 C4536 1.387 . S
H4538 C4550 0.930 . S
H4539 C4552 0.930 . S
H4540 C4553 0.930 1_655 S
H4541 C4557 0.959 . S
H4542 C4557 0.959 . S
H4543 C4557 0.961 . S
H4544 C4558 0.960 . S
H4545 C4558 0.961 . S
H4546 C4558 0.959 . S
H4547 C4561 0.929 1_655 S
H4548 C4562 0.931 1_655 S
H4549 C4564 0.930 . S
C4550 H4538 0.930 . S
C4550 C4551 1.399 . S
C4550 C4555 1.399 . S
C4551 C4550 1.399 . S
C4551 C4552 1.376 . S
C4552 H4539 0.930 . S
C4552 C4551 1.376 . S
C4552 C4553 1.388 . S
C4553 H4540 0.930 1_455 S
C4553 C4552 1.388 . S
C4553 C4554 1.390 . S
C4554 C4553 1.390 . S
C4554 C4555 1.394 . S
C4554 C4560 1.465 . S
C4555 C4550 1.399 . S
C4555 C4554 1.394 . S
C4555 C4556 1.516 . S
C4556 C4555 1.516 . S
C4556 C4557 1.502 . S
C4556 C4558 1.561 . S
C4556 C4559 1.526 . S
C4557 H4541 0.959 . S
C4557 H4542 0.959 . S
C4557 H4543 0.961 . S
C4557 C4556 1.502 . S
C4558 H4544 0.960 . S
C4558 H4545 0.961 . S
C4558 H4546 0.959 . S
C4558 C4556 1.561 . S
C4559 C4556 1.526 . S
C4559 C4560 1.396 . S
C4559 C4564 1.390 . S
C4560 C4554 1.465 . S
C4560 C4559 1.396 . S
C4560 C4561 1.399 . S
C4561 H4547 0.929 1_455 S
C4561 C4560 1.399 . S
C4561 C4562 1.385 . S
C4562 H4548 0.931 1_455 S
C4562 C4561 1.385 . S
C4562 C4563 1.389 . S
C4563 C4562 1.389 . S
C4563 C4564 1.387 . S
C4564 H4549 0.930 . S
C4564 C4559 1.390 . S
C4564 C4563 1.387 . S
H4565 C4577 0.930 . S
H4566 C4579 0.930 . S
H4567 C4580 0.930 . S
H4568 C4584 0.959 . S
H4569 C4584 0.959 . S
H4570 C4584 0.961 . S
H4571 C4585 0.960 . S
H4572 C4585 0.961 . S
H4573 C4585 0.959 . S
H4574 C4588 0.929 . S
H4575 C4589 0.931 . S
H4576 C4591 0.930 . S
C4577 H4565 0.930 . S
C4577 C4578 1.399 . S
C4577 C4582 1.399 . S
C4578 C4577 1.399 . S
C4578 C4579 1.376 . S
C4579 H4566 0.930 . S
C4579 C4578 1.376 . S
C4579 C4580 1.388 . S
C4580 H4567 0.930 . S
C4580 C4579 1.388 . S
C4580 C4581 1.390 . S
C4581 C4580 1.390 . S
C4581 C4582 1.394 . S
C4581 C4587 1.465 . S
C4582 C4577 1.399 . S
C4582 C4581 1.394 . S
C4582 C4583 1.516 . S
C4583 C4582 1.516 . S
C4583 C4584 1.502 . S
C4583 C4585 1.561 . S
C4583 C4586 1.526 . S
C4584 H4568 0.959 . S
C4584 H4569 0.959 . S
C4584 H4570 0.961 . S
C4584 C4583 1.502 . S
C4585 H4571 0.960 . S
C4585 H4572 0.961 . S
C4585 H4573 0.959 . S
C4585 C4583 1.561 . S
C4586 C4583 1.526 . S
C4586 C4587 1.396 . S
C4586 C4591 1.390 . S
C4587 C4581 1.465 . S
C4587 C4586 1.396 . S
C4587 C4588 1.399 . S
C4588 H4574 0.929 . S
C4588 C4587 1.399 . S
C4588 C4589 1.385 . S
C4589 H4575 0.931 . S
C4589 C4588 1.385 . S
C4589 C4590 1.389 . S
C4590 C4589 1.389 . S
C4590 C4591 1.387 . S
C4591 H4576 0.930 . S
C4591 C4586 1.390 . S
C4591 C4590 1.387 . S
H4592 C4604 0.930 . S
H4593 C4606 0.930 . S
H4594 C4607 0.930 . S
H4595 C4611 0.959 . S
H4596 C4611 0.959 . S
H4597 C4611 0.961 . S
H4598 C4612 0.960 . S
H4599 C4612 0.961 . S
H4600 C4612 0.959 . S
H4601 C4615 0.929 . S
H4602 C4616 0.931 . S
H4603 C4618 0.930 . S
C4604 H4592 0.930 . S
C4604 C4605 1.399 . S
C4604 C4609 1.399 . S
C4605 C4604 1.399 . S
C4605 C4606 1.376 . S
C4606 H4593 0.930 . S
C4606 C4605 1.376 . S
C4606 C4607 1.388 . S
C4607 H4594 0.930 . S
C4607 C4606 1.388 . S
C4607 C4608 1.390 . S
C4608 C4607 1.390 . S
C4608 C4609 1.394 . S
C4608 C4614 1.465 . S
C4609 C4604 1.399 . S
C4609 C4608 1.394 . S
C4609 C4610 1.516 . S
C4610 C4609 1.516 . S
C4610 C4611 1.502 . S
C4610 C4612 1.561 . S
C4610 C4613 1.526 . S
C4611 H4595 0.959 . S
C4611 H4596 0.959 . S
C4611 H4597 0.961 . S
C4611 C4610 1.502 . S
C4612 H4598 0.960 . S
C4612 H4599 0.961 . S
C4612 H4600 0.959 . S
C4612 C4610 1.561 . S
C4613 C4610 1.526 . S
C4613 C4614 1.396 . S
C4613 C4618 1.390 . S
C4614 C4608 1.465 . S
C4614 C4613 1.396 . S
C4614 C4615 1.399 . S
C4615 H4601 0.929 . S
C4615 C4614 1.399 . S
C4615 C4616 1.385 . S
C4616 H4602 0.931 . S
C4616 C4615 1.385 . S
C4616 C4617 1.389 . S
C4617 C4616 1.389 . S
C4617 C4618 1.387 . S
C4618 H4603 0.930 . S
C4618 C4613 1.390 . S
C4618 C4617 1.387 . S
H4619 C4631 0.930 . S
H4620 C4633 0.930 . S
H4621 C4634 0.930 . S
H4622 C4638 0.959 . S
H4623 C4638 0.959 . S
H4624 C4638 0.961 . S
H4625 C4639 0.960 . S
H4626 C4639 0.961 . S
H4627 C4639 0.959 . S
H4628 C4642 0.929 . S
H4629 C4643 0.931 . S
H4630 C4645 0.930 . S
C4631 H4619 0.930 . S
C4631 C4632 1.399 . S
C4631 C4636 1.399 . S
C4632 C4631 1.399 . S
C4632 C4633 1.376 . S
C4633 H4620 0.930 . S
C4633 C4632 1.376 . S
C4633 C4634 1.388 . S
C4634 H4621 0.930 . S
C4634 C4633 1.388 . S
C4634 C4635 1.390 . S
C4635 C4634 1.390 . S
C4635 C4636 1.394 . S
C4635 C4641 1.465 . S
C4636 C4631 1.399 . S
C4636 C4635 1.394 . S
C4636 C4637 1.516 . S
C4637 C4636 1.516 . S
C4637 C4638 1.502 . S
C4637 C4639 1.561 . S
C4637 C4640 1.526 . S
C4638 H4622 0.959 . S
C4638 H4623 0.959 . S
C4638 H4624 0.961 . S
C4638 C4637 1.502 . S
C4639 H4625 0.960 . S
C4639 H4626 0.961 . S
C4639 H4627 0.959 . S
C4639 C4637 1.561 . S
C4640 C4637 1.526 . S
C4640 C4641 1.396 . S
C4640 C4645 1.390 . S
C4641 C4635 1.465 . S
C4641 C4640 1.396 . S
C4641 C4642 1.399 . S
C4642 H4628 0.929 . S
C4642 C4641 1.399 . S
C4642 C4643 1.385 . S
C4643 H4629 0.931 . S
C4643 C4642 1.385 . S
C4643 C4644 1.389 . S
C4644 C4643 1.389 . S
C4644 C4645 1.387 . S
C4645 H4630 0.930 . S
C4645 C4640 1.390 . S
C4645 C4644 1.387 . S
H4646 C4658 0.930 . S
H4647 C4660 0.930 . S
H4648 C4661 0.930 . S
H4649 C4665 0.959 . S
H4650 C4665 0.959 . S
H4651 C4665 0.961 . S
H4652 C4666 0.960 . S
H4653 C4666 0.961 . S
H4654 C4666 0.959 1_655 S
H4655 C4669 0.929 . S
H4656 C4670 0.931 . S
H4657 C4672 0.930 . S
C4658 H4646 0.930 . S
C4658 C4659 1.399 . S
C4658 C4663 1.399 . S
C4659 C4658 1.399 . S
C4659 C4660 1.376 . S
C4660 H4647 0.930 . S
C4660 C4659 1.376 . S
C4660 C4661 1.388 . S
C4661 H4648 0.930 . S
C4661 C4660 1.388 . S
C4661 C4662 1.390 . S
C4662 C4661 1.390 . S
C4662 C4663 1.394 . S
C4662 C4668 1.465 . S
C4663 C4658 1.399 . S
C4663 C4662 1.394 . S
C4663 C4664 1.561 . S
C4664 C4663 1.561 . S
C4664 C4665 1.453 1_655 S
C4664 C4666 1.557 1_655 S
C4664 C4667 1.543 . S
C4665 H4649 0.959 . S
C4665 H4650 0.959 . S
C4665 H4651 0.961 . S
C4665 C4664 1.453 1_455 S
C4666 H4652 0.960 . S
C4666 H4653 0.961 . S
C4666 H4654 0.959 1_455 S
C4666 C4664 1.557 1_455 S
C4667 C4664 1.543 . S
C4667 C4668 1.396 . S
C4667 C4672 1.390 1_655 S
C4668 C4662 1.465 . S
C4668 C4667 1.396 . S
C4668 C4669 1.399 . S
C4669 H4655 0.929 . S
C4669 C4668 1.399 . S
C4669 C4670 1.385 . S
C4670 H4656 0.931 . S
C4670 C4669 1.385 . S
C4670 C4671 1.389 . S
C4671 C4670 1.389 . S
C4671 C4672 1.387 1_655 S
C4672 H4657 0.930 . S
C4672 C4667 1.390 1_455 S
C4672 C4671 1.387 1_455 S
H4673 C4685 0.930 . S
H4674 C4687 0.930 . S
H4675 C4688 0.930 . S
H4676 C4692 0.959 . S
H4677 C4692 0.959 . S
H4678 C4692 0.961 . S
H4679 C4693 0.960 . S
H4680 C4693 0.961 . S
H4681 C4693 0.959 . S
H4682 C4696 0.929 . S
H4683 C4697 0.931 . S
H4684 C4699 0.930 . S
C4685 H4673 0.930 . S
C4685 C4686 1.399 . S
C4685 C4690 1.399 . S
C4686 C4685 1.399 . S
C4686 C4687 1.376 . S
C4687 H4674 0.930 . S
C4687 C4686 1.376 . S
C4687 C4688 1.388 . S
C4688 H4675 0.930 . S
C4688 C4687 1.388 . S
C4688 C4689 1.390 . S
C4689 C4688 1.390 . S
C4689 C4690 1.394 . S
C4689 C4695 1.465 . S
C4690 C4685 1.399 . S
C4690 C4689 1.394 . S
C4690 C4691 1.516 . S
C4691 C4690 1.516 . S
C4691 C4692 1.502 . S
C4691 C4693 1.561 . S
C4691 C4694 1.526 . S
C4692 H4676 0.959 . S
C4692 H4677 0.959 . S
C4692 H4678 0.961 . S
C4692 C4691 1.502 . S
C4693 H4679 0.960 . S
C4693 H4680 0.961 . S
C4693 H4681 0.959 . S
C4693 C4691 1.561 . S
C4694 C4691 1.526 . S
C4694 C4695 1.396 . S
C4694 C4699 1.390 . S
C4695 C4689 1.465 . S
C4695 C4694 1.396 . S
C4695 C4696 1.399 . S
C4696 H4682 0.929 . S
C4696 C4695 1.399 . S
C4696 C4697 1.385 . S
C4697 H4683 0.931 . S
C4697 C4696 1.385 . S
C4697 C4698 1.389 . S
C4698 C4697 1.389 . S
C4698 C4699 1.387 . S
C4699 H4684 0.930 . S
C4699 C4694 1.390 . S
C4699 C4698 1.387 . S
H4700 C4712 0.930 . S
H4701 C4714 0.930 . S
H4702 C4715 0.930 . S
H4703 C4719 0.959 . S
H4704 C4719 0.959 . S
H4705 C4719 0.961 . S
H4706 C4720 0.960 . S
H4707 C4720 0.961 . S
H4708 C4720 0.959 . S
H4709 C4723 0.929 . S
H4710 C4724 0.931 . S
H4711 C4726 0.930 . S
C4712 H4700 0.930 . S
C4712 C4713 1.399 . S
C4712 C4717 1.399 . S
C4713 C4712 1.399 . S
C4713 C4714 1.376 . S
C4714 H4701 0.930 . S
C4714 C4713 1.376 . S
C4714 C4715 1.388 . S
C4715 H4702 0.930 . S
C4715 C4714 1.388 . S
C4715 C4716 1.390 . S
C4716 C4715 1.390 . S
C4716 C4717 1.394 . S
C4716 C4722 1.465 . S
C4717 C4712 1.399 . S
C4717 C4716 1.394 . S
C4717 C4718 1.516 . S
C4718 C4717 1.516 . S
C4718 C4719 1.502 . S
C4718 C4720 1.561 . S
C4718 C4721 1.526 . S
C4719 H4703 0.959 . S
C4719 H4704 0.959 . S
C4719 H4705 0.961 . S
C4719 C4718 1.502 . S
C4720 H4706 0.960 . S
C4720 H4707 0.961 . S
C4720 H4708 0.959 . S
C4720 C4718 1.561 . S
C4721 C4718 1.526 . S
C4721 C4722 1.396 . S
C4721 C4726 1.390 . S
C4722 C4716 1.465 . S
C4722 C4721 1.396 . S
C4722 C4723 1.399 . S
C4723 H4709 0.929 . S
C4723 C4722 1.399 . S
C4723 C4724 1.385 . S
C4724 H4710 0.931 . S
C4724 C4723 1.385 . S
C4724 C4725 1.389 . S
C4725 C4724 1.389 . S
C4725 C4726 1.387 . S
C4726 H4711 0.930 . S
C4726 C4721 1.390 . S
C4726 C4725 1.387 . S
H4727 C4739 0.930 . S
H4728 C4741 0.930 . S
H4729 C4742 0.930 . S
H4730 C4746 0.959 . S
H4731 C4746 0.959 . S
H4732 C4746 0.961 . S
H4733 C4747 0.960 . S
H4734 C4747 0.961 . S
H4735 C4747 0.959 . S
H4736 C4750 0.929 . S
H4737 C4751 0.931 . S
H4738 C4753 0.930 . S
C4739 H4727 0.930 . S
C4739 C4740 1.399 . S
C4739 C4744 1.399 . S
C4740 C4739 1.399 . S
C4740 C4741 1.376 . S
C4741 H4728 0.930 . S
C4741 C4740 1.376 . S
C4741 C4742 1.388 . S
C4742 H4729 0.930 . S
C4742 C4741 1.388 . S
C4742 C4743 1.390 . S
C4743 C4742 1.390 . S
C4743 C4744 1.394 . S
C4743 C4749 1.465 . S
C4744 C4739 1.399 . S
C4744 C4743 1.394 . S
C4744 C4745 1.516 . S
C4745 C4744 1.516 . S
C4745 C4746 1.502 . S
C4745 C4747 1.561 . S
C4745 C4748 1.526 . S
C4746 H4730 0.959 . S
C4746 H4731 0.959 . S
C4746 H4732 0.961 . S
C4746 C4745 1.502 . S
C4747 H4733 0.960 . S
C4747 H4734 0.961 . S
C4747 H4735 0.959 . S
C4747 C4745 1.561 . S
C4748 C4745 1.526 . S
C4748 C4749 1.396 . S
C4748 C4753 1.390 . S
C4749 C4743 1.465 . S
C4749 C4748 1.396 . S
C4749 C4750 1.399 . S
C4750 H4736 0.929 . S
C4750 C4749 1.399 . S
C4750 C4751 1.385 . S
C4751 H4737 0.931 . S
C4751 C4750 1.385 . S
C4751 C4752 1.389 . S
C4752 C4751 1.389 . S
C4752 C4753 1.387 . S
C4753 H4738 0.930 . S
C4753 C4748 1.390 . S
C4753 C4752 1.387 . S
H4754 C4766 0.930 . S
H4755 C4768 0.930 . S
H4756 C4769 0.930 . S
H4757 C4773 0.959 . S
H4758 C4773 0.959 . S
H4759 C4773 0.961 . S
H4760 C4774 0.961 1_455 S
H4761 C4774 0.961 1_455 S
H4762 C4774 0.959 1_455 S
H4763 C4777 0.929 . S
H4764 C4778 0.931 . S
H4765 C4780 0.930 . S
C4766 H4754 0.930 . S
C4766 C4767 1.399 . S
C4766 C4771 1.399 . S
C4767 C4766 1.399 . S
C4767 C4768 1.376 . S
C4768 H4755 0.930 . S
C4768 C4767 1.376 . S
C4768 C4769 1.388 . S
C4769 H4756 0.930 . S
C4769 C4768 1.388 . S
C4769 C4770 1.390 . S
C4770 C4769 1.390 . S
C4770 C4771 1.394 . S
C4770 C4776 1.465 . S
C4771 C4766 1.399 . S
C4771 C4770 1.394 . S
C4771 C4772 1.516 . S
C4772 C4771 1.516 . S
C4772 C4773 1.502 . S
C4772 C4774 1.561 . S
C4772 C4775 1.526 . S
C4773 H4757 0.959 . S
C4773 H4758 0.959 . S
C4773 H4759 0.961 . S
C4773 C4772 1.502 . S
C4774 H4760 0.961 1_655 S
C4774 H4761 0.961 1_655 S
C4774 H4762 0.959 1_655 S
C4774 C4772 1.561 . S
C4775 C4772 1.526 . S
C4775 C4776 1.396 . S
C4775 C4780 1.390 . S
C4776 C4770 1.465 . S
C4776 C4775 1.396 . S
C4776 C4777 1.399 . S
C4777 H4763 0.929 . S
C4777 C4776 1.399 . S
C4777 C4778 1.385 . S
C4778 H4764 0.931 . S
C4778 C4777 1.385 . S
C4778 C4779 1.389 . S
C4779 C4778 1.389 . S
C4779 C4780 1.387 . S
C4780 H4765 0.930 . S
C4780 C4775 1.390 . S
C4780 C4779 1.387 . S
H4781 C4793 0.930 . S
H4782 C4795 0.930 . S
H4783 C4796 0.930 . S
H4784 C4800 0.959 . S
H4785 C4800 0.959 . S
H4786 C4800 0.961 . S
H4787 C4801 0.960 . S
H4788 C4801 0.961 . S
H4789 C4801 0.959 . S
H4790 C4804 0.929 . S
H4791 C4805 0.931 . S
H4792 C4807 0.930 . S
C4793 H4781 0.930 . S
C4793 C4794 1.399 . S
C4793 C4798 1.399 . S
C4794 C4793 1.399 . S
C4794 C4795 1.376 . S
C4795 H4782 0.930 . S
C4795 C4794 1.376 . S
C4795 C4796 1.388 . S
C4796 H4783 0.930 . S
C4796 C4795 1.388 . S
C4796 C4797 1.390 . S
C4797 C4796 1.390 . S
C4797 C4798 1.394 . S
C4797 C4803 1.465 . S
C4798 C4793 1.399 . S
C4798 C4797 1.394 . S
C4798 C4799 1.516 . S
C4799 C4798 1.516 . S
C4799 C4800 1.502 . S
C4799 C4801 1.561 . S
C4799 C4802 1.526 . S
C4800 H4784 0.959 . S
C4800 H4785 0.959 . S
C4800 H4786 0.961 . S
C4800 C4799 1.502 . S
C4801 H4787 0.960 . S
C4801 H4788 0.961 . S
C4801 H4789 0.959 . S
C4801 C4799 1.561 . S
C4802 C4799 1.526 . S
C4802 C4803 1.396 . S
C4802 C4807 1.390 . S
C4803 C4797 1.465 . S
C4803 C4802 1.396 . S
C4803 C4804 1.399 . S
C4804 H4790 0.929 . S
C4804 C4803 1.399 . S
C4804 C4805 1.385 . S
C4805 H4791 0.931 . S
C4805 C4804 1.385 . S
C4805 C4806 1.389 . S
C4806 C4805 1.389 . S
C4806 C4807 1.387 . S
C4807 H4792 0.930 . S
C4807 C4802 1.390 . S
C4807 C4806 1.387 . S
H4808 C4820 0.930 . S
H4809 C4822 0.930 . S
H4810 C4823 0.930 . S
H4811 C4827 0.959 . S
H4812 C4827 0.959 . S
H4813 C4827 0.961 . S
H4814 C4828 0.960 . S
H4815 C4828 0.961 . S
H4816 C4828 0.959 . S
H4817 C4831 0.929 . S
H4818 C4832 0.931 . S
H4819 C4834 0.930 . S
C4820 H4808 0.930 . S
C4820 C4821 1.399 . S
C4820 C4825 1.399 . S
C4821 C4820 1.399 . S
C4821 C4822 1.376 . S
C4822 H4809 0.930 . S
C4822 C4821 1.376 . S
C4822 C4823 1.388 . S
C4823 H4810 0.930 . S
C4823 C4822 1.388 . S
C4823 C4824 1.390 . S
C4824 C4823 1.390 . S
C4824 C4825 1.394 . S
C4824 C4830 1.465 . S
C4825 C4820 1.399 . S
C4825 C4824 1.394 . S
C4825 C4826 1.516 . S
C4826 C4825 1.516 . S
C4826 C4827 1.502 . S
C4826 C4828 1.561 . S
C4826 C4829 1.526 . S
C4827 H4811 0.959 . S
C4827 H4812 0.959 . S
C4827 H4813 0.961 . S
C4827 C4826 1.502 . S
C4828 H4814 0.960 . S
C4828 H4815 0.961 . S
C4828 H4816 0.959 . S
C4828 C4826 1.561 . S
C4829 C4826 1.526 . S
C4829 C4830 1.396 . S
C4829 C4834 1.390 . S
C4830 C4824 1.465 . S
C4830 C4829 1.396 . S
C4830 C4831 1.399 . S
C4831 H4817 0.929 . S
C4831 C4830 1.399 . S
C4831 C4832 1.385 . S
C4832 H4818 0.931 . S
C4832 C4831 1.385 . S
C4832 C4833 1.389 . S
C4833 C4832 1.389 . S
C4833 C4834 1.387 . S
C4834 H4819 0.930 . S
C4834 C4829 1.390 . S
C4834 C4833 1.387 . S
H4835 C4847 0.930 . S
H4836 C4849 0.930 . S
H4837 C4850 0.930 . S
H4838 C4854 0.917 1_545 S
H4839 C4854 0.959 . S
H4840 C4854 0.961 . S
H4841 C4855 0.960 . S
H4842 C4855 0.961 . S
H4843 C4855 0.959 . S
H4844 C4858 0.929 . S
H4845 C4859 0.931 1_545 S
H4846 C4861 0.930 . S
C4847 H4835 0.930 . S
C4847 C4848 1.399 . S
C4847 C4852 1.399 . S
C4848 C4847 1.399 . S
C4848 C4849 1.376 . S
C4849 H4836 0.930 . S
C4849 C4848 1.376 . S
C4849 C4850 1.388 . S
C4850 H4837 0.930 . S
C4850 C4849 1.388 . S
C4850 C4851 1.390 . S
C4851 C4850 1.390 . S
C4851 C4852 1.394 . S
C4851 C4857 1.465 . S
C4852 C4847 1.399 . S
C4852 C4851 1.394 . S
C4852 C4853 1.516 . S
C4853 C4852 1.516 . S
C4853 C4854 1.502 . S
C4853 C4855 1.561 . S
C4853 C4856 1.526 . S
C4854 H4838 0.917 1_565 S
C4854 H4839 0.959 . S
C4854 H4840 0.961 . S
C4854 C4853 1.502 . S
C4855 H4841 0.960 . S
C4855 H4842 0.961 . S
C4855 H4843 0.959 . S
C4855 C4853 1.561 . S
C4856 C4853 1.526 . S
C4856 C4857 1.396 . S
C4856 C4861 1.390 . S
C4857 C4851 1.465 . S
C4857 C4856 1.396 . S
C4857 C4858 1.399 . S
C4858 H4844 0.929 . S
C4858 C4857 1.399 . S
C4858 C4859 1.385 . S
C4859 H4845 0.931 1_565 S
C4859 C4858 1.385 . S
C4859 C4860 1.389 1_565 S
C4860 C4859 1.389 1_545 S
C4860 C4861 1.387 1_545 S
C4861 H4846 0.930 . S
C4861 C4856 1.390 . S
C4861 C4860 1.387 1_565 S
H4862 C4874 0.930 . S
H4863 C4876 0.930 . S
H4864 C4877 0.930 . S
H4865 C4881 0.959 . S
H4866 C4881 0.959 . S
H4867 C4881 0.961 . S
H4868 C4882 0.960 . S
H4869 C4882 0.961 . S
H4870 C4882 0.959 . S
H4871 C4885 0.929 . S
H4872 C4886 0.931 . S
H4873 C4888 0.930 . S
C4874 H4862 0.930 . S
C4874 C4875 1.399 . S
C4874 C4879 1.399 . S
C4875 C4874 1.399 . S
C4875 C4876 1.376 . S
C4876 H4863 0.930 . S
C4876 C4875 1.376 . S
C4876 C4877 1.388 . S
C4877 H4864 0.930 . S
C4877 C4876 1.388 . S
C4877 C4878 1.390 . S
C4878 C4877 1.390 . S
C4878 C4879 1.394 . S
C4878 C4884 1.465 . S
C4879 C4874 1.399 . S
C4879 C4878 1.394 . S
C4879 C4880 1.516 . S
C4880 C4879 1.516 . S
C4880 C4881 1.502 . S
C4880 C4882 1.561 . S
C4880 C4883 1.526 . S
C4881 H4865 0.959 . S
C4881 H4866 0.959 . S
C4881 H4867 0.961 . S
C4881 C4880 1.502 . S
C4882 H4868 0.960 . S
C4882 H4869 0.961 . S
C4882 H4870 0.959 . S
C4882 C4880 1.561 . S
C4883 C4880 1.526 . S
C4883 C4884 1.396 . S
C4883 C4888 1.390 . S
C4884 C4878 1.465 . S
C4884 C4883 1.396 . S
C4884 C4885 1.399 . S
C4885 H4871 0.929 . S
C4885 C4884 1.399 . S
C4885 C4886 1.385 . S
C4886 H4872 0.931 . S
C4886 C4885 1.385 . S
C4886 C4887 1.389 . S
C4887 C4886 1.389 . S
C4887 C4888 1.387 . S
C4888 H4873 0.930 . S
C4888 C4883 1.390 . S
C4888 C4887 1.387 . S
H4889 C4901 0.930 . S
H4890 C4903 0.930 . S
H4891 C4904 0.930 . S
H4892 C4908 0.959 . S
H4893 C4908 0.959 . S
H4894 C4908 0.961 . S
H4895 C4909 0.960 . S
H4896 C4909 0.961 . S
H4897 C4909 0.959 1_554 S
H4898 C4912 0.929 . S
H4899 C4913 0.931 . S
H4900 C4915 0.951 . S
C4901 H4889 0.930 . S
C4901 C4902 1.399 . S
C4901 C4906 1.399 . S
C4902 C4901 1.399 . S
C4902 C4903 1.376 1_556 S
C4903 H4890 0.930 . S
C4903 C4902 1.376 1_554 S
C4903 C4904 1.388 . S
C4904 H4891 0.930 . S
C4904 C4903 1.388 . S
C4904 C4905 1.390 . S
C4905 C4904 1.390 . S
C4905 C4906 1.394 1_554 S
C4905 C4911 1.465 . S
C4906 C4901 1.399 . S
C4906 C4905 1.394 1_556 S
C4906 C4907 1.516 . S
C4907 C4906 1.516 . S
C4907 C4908 1.502 . S
C4907 C4909 1.561 . S
C4907 C4910 1.541 . S
C4908 H4892 0.959 . S
C4908 H4893 0.959 . S
C4908 H4894 0.961 . S
C4908 C4907 1.502 . S
C4909 H4895 0.960 . S
C4909 H4896 0.961 . S
C4909 H4897 0.959 1_556 S
C4909 C4907 1.561 . S
C4910 C4907 1.541 . S
C4910 C4911 1.382 1_556 S
C4910 C4915 1.390 . S
C4911 C4905 1.465 . S
C4911 C4910 1.382 1_554 S
C4911 C4912 1.399 . S
C4912 H4898 0.929 . S
C4912 C4911 1.399 . S
C4912 C4913 1.385 . S
C4913 H4899 0.931 . S
C4913 C4912 1.385 . S
C4913 C4914 1.389 . S
C4914 C4913 1.389 . S
C4914 C4915 1.364 1_554 S
C4915 H4900 0.951 . S
C4915 C4910 1.390 . S
C4915 C4914 1.364 1_556 S
H4916 C4928 0.930 . S
H4917 C4930 0.930 . S
H4918 C4931 0.930 . S
H4919 C4935 0.959 . S
H4920 C4935 0.959 . S
H4921 C4935 0.961 . S
H4922 C4936 0.960 . S
H4923 C4936 0.961 . S
H4924 C4936 0.959 . S
H4925 C4939 0.929 . S
H4926 C4940 0.931 . S
H4927 C4942 0.930 . S
C4928 H4916 0.930 . S
C4928 C4929 1.399 . S
C4928 C4933 1.399 . S
C4929 C4928 1.399 . S
C4929 C4930 1.376 . S
C4930 H4917 0.930 . S
C4930 C4929 1.376 . S
C4930 C4931 1.388 . S
C4931 H4918 0.930 . S
C4931 C4930 1.388 . S
C4931 C4932 1.390 . S
C4932 C4931 1.390 . S
C4932 C4933 1.394 . S
C4932 C4938 1.465 . S
C4933 C4928 1.399 . S
C4933 C4932 1.394 . S
C4933 C4934 1.516 . S
C4934 C4933 1.516 . S
C4934 C4935 1.502 . S
C4934 C4936 1.561 . S
C4934 C4937 1.526 . S
C4935 H4919 0.959 . S
C4935 H4920 0.959 . S
C4935 H4921 0.961 . S
C4935 C4934 1.502 . S
C4936 H4922 0.960 . S
C4936 H4923 0.961 . S
C4936 H4924 0.959 . S
C4936 C4934 1.561 . S
C4937 C4934 1.526 . S
C4937 C4938 1.396 . S
C4937 C4942 1.390 . S
C4938 C4932 1.465 . S
C4938 C4937 1.396 . S
C4938 C4939 1.399 . S
C4939 H4925 0.929 . S
C4939 C4938 1.399 . S
C4939 C4940 1.385 . S
C4940 H4926 0.931 . S
C4940 C4939 1.385 . S
C4940 C4941 1.389 . S
C4941 C4940 1.389 . S
C4941 C4942 1.387 . S
C4942 H4927 0.930 . S
C4942 C4937 1.390 . S
C4942 C4941 1.387 . S
H4943 C4955 0.930 . S
H4944 C4957 0.930 . S
H4945 C4958 0.930 . S
H4946 C4962 0.959 . S
H4947 C4962 0.959 . S
H4948 C4962 0.961 . S
H4949 C4963 0.960 . S
H4950 C4963 0.961 . S
H4951 C4963 0.959 . S
H4952 C4966 0.929 . S
H4953 C4967 0.931 . S
H4954 C4969 0.930 . S
C4955 H4943 0.930 . S
C4955 C4956 1.399 1_556 S
C4955 C4960 1.399 . S
C4956 C4955 1.399 1_554 S
C4956 C4957 1.376 . S
C4957 H4944 0.930 . S
C4957 C4956 1.376 . S
C4957 C4958 1.388 . S
C4958 H4945 0.930 . S
C4958 C4957 1.388 . S
C4958 C4959 1.390 . S
C4959 C4958 1.390 . S
C4959 C4960 1.394 1_554 S
C4959 C4965 1.465 . S
C4960 C4955 1.399 . S
C4960 C4959 1.394 1_556 S
C4960 C4961 1.516 . S
C4961 C4960 1.516 . S
C4961 C4962 1.502 . S
C4961 C4963 1.561 . S
C4961 C4964 1.526 . S
C4962 H4946 0.959 . S
C4962 H4947 0.959 . S
C4962 H4948 0.961 . S
C4962 C4961 1.502 . S
C4963 H4949 0.960 . S
C4963 H4950 0.961 . S
C4963 H4951 0.959 . S
C4963 C4961 1.561 . S
C4964 C4961 1.526 . S
C4964 C4965 1.396 1_556 S
C4964 C4969 1.390 . S
C4965 C4959 1.465 . S
C4965 C4964 1.396 1_554 S
C4965 C4966 1.399 . S
C4966 H4952 0.929 . S
C4966 C4965 1.399 . S
C4966 C4967 1.385 . S
C4967 H4953 0.931 . S
C4967 C4966 1.385 . S
C4967 C4968 1.360 1_554 S
C4968 C4967 1.360 1_556 S
C4968 C4969 1.405 . S
C4969 H4954 0.930 . S
C4969 C4964 1.390 . S
C4969 C4968 1.405 . S
H4970 C4982 0.930 . S
H4971 C4984 0.930 . S
H4972 C4985 0.930 . S
H4973 C4989 0.959 . S
H4974 C4989 0.959 . S
H4975 C4989 0.961 . S
H4976 C4990 0.960 . S
H4977 C4990 0.961 . S
H4978 C4990 0.959 . S
H4979 C4993 0.929 . S
H4980 C4994 0.931 . S
H4981 C4996 0.930 . S
C4982 H4970 0.930 . S
C4982 C4983 1.399 . S
C4982 C4987 1.399 . S
C4983 C4982 1.399 . S
C4983 C4984 1.376 . S
C4984 H4971 0.930 . S
C4984 C4983 1.376 . S
C4984 C4985 1.388 . S
C4985 H4972 0.930 . S
C4985 C4984 1.388 . S
C4985 C4986 1.390 . S
C4986 C4985 1.390 . S
C4986 C4987 1.394 . S
C4986 C4992 1.465 . S
C4987 C4982 1.399 . S
C4987 C4986 1.394 . S
C4987 C4988 1.516 . S
C4988 C4987 1.516 . S
C4988 C4989 1.502 . S
C4988 C4990 1.561 . S
C4988 C4991 1.526 . S
C4989 H4973 0.959 . S
C4989 H4974 0.959 . S
C4989 H4975 0.961 . S
C4989 C4988 1.502 . S
C4990 H4976 0.960 . S
C4990 H4977 0.961 . S
C4990 H4978 0.959 . S
C4990 C4988 1.561 . S
C4991 C4988 1.526 . S
C4991 C4992 1.396 . S
C4991 C4996 1.390 . S
C4992 C4986 1.465 . S
C4992 C4991 1.396 . S
C4992 C4993 1.399 . S
C4993 H4979 0.929 . S
C4993 C4992 1.399 . S
C4993 C4994 1.385 . S
C4994 H4980 0.931 . S
C4994 C4993 1.385 . S
C4994 C4995 1.389 . S
C4995 C4994 1.389 . S
C4995 C4996 1.387 . S
C4996 H4981 0.930 . S
C4996 C4991 1.390 . S
C4996 C4995 1.387 . S
H4997 C5009 0.930 . S
H4998 C5011 0.930 . S
H4999 C5012 0.930 . S
H5000 C5016 0.959 . S
H5001 C5016 0.959 . S
H5002 C5016 0.961 . S
H5003 C5017 0.960 . S
H5004 C5017 0.961 . S
H5005 C5017 0.959 . S
H5006 C5020 0.929 . S
H5007 C5021 0.931 . S
H5008 C5023 0.930 . S
C5009 H4997 0.930 . S
C5009 C5010 1.399 . S
C5009 C5014 1.399 . S
C5010 C5009 1.399 . S
C5010 C5011 1.376 . S
C5011 H4998 0.930 . S
C5011 C5010 1.376 . S
C5011 C5012 1.388 . S
C5012 H4999 0.930 . S
C5012 C5011 1.388 . S
C5012 C5013 1.390 . S
C5013 C5012 1.390 . S
C5013 C5014 1.394 . S
C5013 C5019 1.465 . S
C5014 C5009 1.399 . S
C5014 C5013 1.394 . S
C5014 C5015 1.516 . S
C5015 C5014 1.516 . S
C5015 C5016 1.502 . S
C5015 C5017 1.561 . S
C5015 C5018 1.526 . S
C5016 H5000 0.959 . S
C5016 H5001 0.959 . S
C5016 H5002 0.961 . S
C5016 C5015 1.502 . S
C5017 H5003 0.960 . S
C5017 H5004 0.961 . S
C5017 H5005 0.959 . S
C5017 C5015 1.561 . S
C5018 C5015 1.526 . S
C5018 C5019 1.396 . S
C5018 C5023 1.390 . S
C5019 C5013 1.465 . S
C5019 C5018 1.396 . S
C5019 C5020 1.399 . S
C5020 H5006 0.929 . S
C5020 C5019 1.399 . S
C5020 C5021 1.385 . S
C5021 H5007 0.931 . S
C5021 C5020 1.385 . S
C5021 C5022 1.389 . S
C5022 C5021 1.389 . S
C5022 C5023 1.387 . S
C5023 H5008 0.930 . S
C5023 C5018 1.390 . S
C5023 C5022 1.387 . S
C2445 C665 1.454 . S
C2457 C2130 1.424 1_556 S
C2472 C381 1.521 . S
C2484 C2141 1.512 . S
C2499 C460 0.826 . S
C2511 C2170 0.806 . S
C2538 C2173 1.379 . S
C2526 C585 1.428 . S
C2553 C108 1.540 . S
C2565 C2211 1.506 . S
C2592 C2214 0.812 . S
C2580 C196 0.760 . S
C2619 C2241 1.399 . S
C2607 C313 1.366 . S
C2634 C49 1.561 . S
C2646 C2270 1.515 . S
C2673 C2121 1.431 1_655 S
C2661 C1457 1.456 . S
C2688 C1545 0.689 . S
C2700 C2133 0.699 . S
C2727 C2161 1.597 . S
C2715 C1721 1.591 . S
C2754 C2190 1.096 . S
C2742 C1113 1.042 . S
C2769 C1428 0.952 . S
C2781 C2194 0.938 . S
C2808 C2220 1.594 . S
C2796 C1516 1.642 . S
C2835 C2233 0.545 . S
C2823 C1692 0.665 . S
C2862 C2261 1.570 . S
C2850 C1085 1.545 . S
C2889 C2113 1.486 1_565 S
C2877 C988 1.465 . S
C2904 C1817 1.708 . S
C2916 C2280 1.708 . S
C2943 C2311 1.436 . S
C2931 C2081 1.449 . S
C2970 C2330 0.805 . S
C2958 C1993 0.793 . S
C2985 C761 1.294 . S
C2997 C2253 1.226 . S
C3012 C821 1.369 . S
C3024 C2153 1.385 . S
C3039 C2053 1.582 . S
C3051 C2341 1.552 . S
C3078 C2370 0.799 . S
C3066 C1868 0.788 . S
C3105 C2131 1.423 . S
C3093 C372 1.439 . S
C3132 C2360 1.518 . S
C3120 C645 1.499 . S
C3147 C577 0.850 . S
C3159 C2171 0.846 . S
C3174 C497 1.418 . S
C3186 C2334 1.413 . S
C3213 C2210 1.512 1_655 S
C3201 C57 1.532 . S
C3228 C293 0.820 . S
C3240 C2293 0.805 . S
C3267 C2240 1.387 1_556 S
C3255 C205 1.384 . S
C3294 C2391 1.519 . S
C3282 C145 1.562 . S
C3321 C2120 1.444 . S
C3309 C909 1.433 1_545 S
C3348 C2354 0.768 . S
C3336 C1956 0.656 . S
C3363 C724 1.611 . S
C3375 C2160 1.569 . S
C3390 C1780 1.016 . S
C3402 C2351 1.058 . S
C3417 C937 0.933 . S
C3429 C2193 0.936 . S
C3456 C2301 1.612 . S
C3444 C1985 1.640 . S
C3471 C753 0.600 . S
C3483 C2234 0.610 . S
C3498 C1809 1.569 . S
C3510 C2380 1.519 . S
C3525 C1173 1.483 . S
C3537 C2114 1.467 . S
C3552 C1105 1.706 . S
C3564 C2281 1.666 . S
C3579 C1633 1.463 . S
C3591 C2230 1.354 . S
C3606 C1553 0.801 . S
C3618 C2331 0.814 . S
C3645 C2374 1.260 . S
C3633 C1729 1.281 . S
C3660 C1340 1.384 . S
C3672 C2154 1.309 1_565 S
C3699 C2180 1.575 . S
C3687 C1604 1.554 . S
C3726 C2151 0.736 . S
C3714 C1252 0.756 . S
C3741 C489 1.451 . S
C3753 C2410 1.423 . S
C3780 C2361 1.504 . S
C3768 C557 1.510 . S
C3795 C636 0.831 . S
C3807 C2430 0.809 . S
C3822 C409 1.410 . S
C3834 C2333 1.423 . S
C3849 C284 1.536 . S
C3861 C2291 1.457 . S
C3888 C2294 0.808 . S
C3876 C20 0.797 . S
C3915 C2321 1.400 . S
C3903 C137 1.366 . S
C3942 C2390 1.516 . S
C3930 C225 1.561 . S
C3969 C2401 1.424 . S
C3957 C1641 1.461 . S
C3984 C1193 0.698 . S
C3996 C2353 0.686 . S
C4023 C2421 1.606 . S
C4011 C1289 1.581 . S
C4050 C2350 1.103 . S
C4038 C1377 1.075 . S
C4077 C2274 0.937 . S
C4065 C1613 0.973 . S
C4092 C1164 1.648 . S
C4104 C2300 1.602 . S
C4131 C2313 0.558 . S
C4119 C1261 0.663 . S
C4146 C1349 1.543 . S
C4158 C2381 1.572 . S
C4185 C2393 1.481 . S
C4173 C1965 1.468 . S
C4200 C849 1.716 . S
C4212 C2200 1.666 . S
C4239 C2231 1.361 . S
C4227 C929 1.473 . S
C4266 C2250 0.817 . S
C4254 C1017 0.787 . S
C4293 C2373 1.230 . S
C4281 C1897 1.296 . S
C4308 C1789 1.368 . S
C4320 C2413 1.385 . S
C4347 C2181 1.571 . S
C4335 C900 1.563 . S
C4374 C2150 0.721 . S
C4362 C733 0.770 . S
C4389 C548 1.469 . S
C4401 C2411 1.455 . S
C4428 C2140 1.519 . S
C4416 C469 1.500 . S
C4443 C401 0.797 . S
C4455 C2431 0.798 . S
C4470 C673 1.420 . S
C4482 C2174 1.407 . S
C4497 C233 1.539 . S
C4509 C2290 1.471 1_556 S
C4536 C2213 0.809 . S
C4524 C117 0.765 . S
C4551 C29 1.372 . S
C4563 C2320 1.358 . S
C4578 C321 1.566 . S
C4590 C2271 1.533 . S
C4617 C2400 1.424 . S
C4605 C2044 1.464 . S
C4632 C997 0.662 . S
C4644 C2134 0.771 . S
C4671 C2420 1.605 1_655 S
C4659 C1877 1.579 . S
C4686 C812 1.015 . S
C4698 C2191 1.063 . S
C4713 C2073 0.921 . S
C4725 C2273 0.933 . S
C4752 C2221 1.635 . S
C4740 C1025 1.624 . S
C4767 C1905 0.583 . S
C4779 C2314 0.688 . S
C4806 C2260 1.520 . S
C4794 C841 1.566 . S
C4833 C2394 1.464 . S
C4821 C1525 1.464 . S
C4860 C2201 1.705 . S
C4848 C1369 1.697 . S
C4875 C1465 1.463 . S
C4887 C2310 1.355 . S
C4914 C2251 0.806 . S
C4902 C1201 0.791 . S
C4929 C1281 1.276 . S
C4941 C2254 1.260 . S
C4956 C1076 1.386 . S
C4968 C2414 1.336 . S
C4995 C2340 1.540 . S
C4983 C1437 1.592 . S
C5022 C2371 0.738 . S
C5010 C1701 0.758 . S
