# Generated by pormake.
# Topology myd, (4,6)-cn, num edge types: 1
# Building blocks:
#     Node 0, Type 0, BuildingBlock: NAWXER_clean_sbu_0, # of connection points: 4
#     Node 1, Type 0, BuildingBlock: NAWXER_clean_sbu_0, # of connection points: 4
#     Node 2, Type 0, BuildingBlock: NAWXER_clean_sbu_0, # of connection points: 4
#     Node 3, Type 0, BuildingBlock: NAWXER_clean_sbu_0, # of connection points: 4
#     Node 4, Type 0, BuildingBlock: NAWXER_clean_sbu_0, # of connection points: 4
#     Node 5, Type 0, BuildingBlock: NAWXER_clean_sbu_0, # of connection points: 4
#     Node 6, Type 0, BuildingBlock: NAWXER_clean_sbu_0, # of connection points: 4
#     Node 7, Type 0, BuildingBlock: NAWXER_clean_sbu_0, # of connection points: 4
#     Node 8, Type 0, BuildingBlock: NAWXER_clean_sbu_0, # of connection points: 4
#     Node 9, Type 0, BuildingBlock: NAWXER_clean_sbu_0, # of connection points: 4
#     Node 10, Type 0, BuildingBlock: NAWXER_clean_sbu_0, # of connection points: 4
#     Node 11, Type 0, BuildingBlock: NAWXER_clean_sbu_0, # of connection points: 4
#     Node 12, Type 1, BuildingBlock: CUWYAW_clean_sbu_0, # of connection points: 6
#     Node 13, Type 1, BuildingBlock: CUWYAW_clean_sbu_0, # of connection points: 6
#     Node 14, Type 1, BuildingBlock: CUWYAW_clean_sbu_0, # of connection points: 6
#     Node 15, Type 1, BuildingBlock: CUWYAW_clean_sbu_0, # of connection points: 6
#     Node 16, Type 1, BuildingBlock: CUWYAW_clean_sbu_0, # of connection points: 6
#     Node 17, Type 1, BuildingBlock: CUWYAW_clean_sbu_0, # of connection points: 6
#     Node 18, Type 1, BuildingBlock: CUWYAW_clean_sbu_0, # of connection points: 6
#     Node 19, Type 1, BuildingBlock: CUWYAW_clean_sbu_0, # of connection points: 6
#     Edge 20, Type (0, 1), BuildingBlock: EZIPEK_clean_linker_0, # of connection points: 2
#     Edge 21, Type (0, 1), BuildingBlock: EZIPEK_clean_linker_0, # of connection points: 2
#     Edge 22, Type (0, 1), BuildingBlock: EZIPEK_clean_linker_0, # of connection points: 2
#     Edge 23, Type (0, 1), BuildingBlock: EZIPEK_clean_linker_0, # of connection points: 2
#     Edge 24, Type (0, 1), BuildingBlock: EZIPEK_clean_linker_0, # of connection points: 2
#     Edge 25, Type (0, 1), BuildingBlock: EZIPEK_clean_linker_0, # of connection points: 2
#     Edge 26, Type (0, 1), BuildingBlock: EZIPEK_clean_linker_0, # of connection points: 2
#     Edge 27, Type (0, 1), BuildingBlock: EZIPEK_clean_linker_0, # of connection points: 2
#     Edge 28, Type (0, 1), BuildingBlock: EZIPEK_clean_linker_0, # of connection points: 2
#     Edge 29, Type (0, 1), BuildingBlock: EZIPEK_clean_linker_0, # of connection points: 2
#     Edge 30, Type (0, 1), BuildingBlock: EZIPEK_clean_linker_0, # of connection points: 2
#     Edge 31, Type (0, 1), BuildingBlock: EZIPEK_clean_linker_0, # of connection points: 2
#     Edge 32, Type (0, 1), BuildingBlock: EZIPEK_clean_linker_0, # of connection points: 2
#     Edge 33, Type (0, 1), BuildingBlock: EZIPEK_clean_linker_0, # of connection points: 2
#     Edge 34, Type (0, 1), BuildingBlock: EZIPEK_clean_linker_0, # of connection points: 2
#     Edge 35, Type (0, 1), BuildingBlock: EZIPEK_clean_linker_0, # of connection points: 2
#     Edge 36, Type (0, 1), BuildingBlock: EZIPEK_clean_linker_0, # of connection points: 2
#     Edge 37, Type (0, 1), BuildingBlock: EZIPEK_clean_linker_0, # of connection points: 2
#     Edge 38, Type (0, 1), BuildingBlock: EZIPEK_clean_linker_0, # of connection points: 2
#     Edge 39, Type (0, 1), BuildingBlock: EZIPEK_clean_linker_0, # of connection points: 2
#     Edge 40, Type (0, 1), BuildingBlock: EZIPEK_clean_linker_0, # of connection points: 2
#     Edge 41, Type (0, 1), BuildingBlock: EZIPEK_clean_linker_0, # of connection points: 2
#     Edge 42, Type (0, 1), BuildingBlock: EZIPEK_clean_linker_0, # of connection points: 2
#     Edge 43, Type (0, 1), BuildingBlock: EZIPEK_clean_linker_0, # of connection points: 2
#     Edge 44, Type (0, 1), BuildingBlock: EZIPEK_clean_linker_0, # of connection points: 2
#     Edge 45, Type (0, 1), BuildingBlock: EZIPEK_clean_linker_0, # of connection points: 2
#     Edge 46, Type (0, 1), BuildingBlock: EZIPEK_clean_linker_0, # of connection points: 2
#     Edge 47, Type (0, 1), BuildingBlock: EZIPEK_clean_linker_0, # of connection points: 2
#     Edge 48, Type (0, 1), BuildingBlock: EZIPEK_clean_linker_0, # of connection points: 2
#     Edge 49, Type (0, 1), BuildingBlock: EZIPEK_clean_linker_0, # of connection points: 2
#     Edge 50, Type (0, 1), BuildingBlock: EZIPEK_clean_linker_0, # of connection points: 2
#     Edge 51, Type (0, 1), BuildingBlock: EZIPEK_clean_linker_0, # of connection points: 2
#     Edge 52, Type (0, 1), BuildingBlock: EZIPEK_clean_linker_0, # of connection points: 2
#     Edge 53, Type (0, 1), BuildingBlock: EZIPEK_clean_linker_0, # of connection points: 2
#     Edge 54, Type (0, 1), BuildingBlock: EZIPEK_clean_linker_0, # of connection points: 2
#     Edge 55, Type (0, 1), BuildingBlock: EZIPEK_clean_linker_0, # of connection points: 2
#     Edge 56, Type (0, 1), BuildingBlock: EZIPEK_clean_linker_0, # of connection points: 2
#     Edge 57, Type (0, 1), BuildingBlock: EZIPEK_clean_linker_0, # of connection points: 2
#     Edge 58, Type (0, 1), BuildingBlock: EZIPEK_clean_linker_0, # of connection points: 2
#     Edge 59, Type (0, 1), BuildingBlock: EZIPEK_clean_linker_0, # of connection points: 2
#     Edge 60, Type (0, 1), BuildingBlock: EZIPEK_clean_linker_0, # of connection points: 2
#     Edge 61, Type (0, 1), BuildingBlock: EZIPEK_clean_linker_0, # of connection points: 2
#     Edge 62, Type (0, 1), BuildingBlock: EZIPEK_clean_linker_0, # of connection points: 2
#     Edge 63, Type (0, 1), BuildingBlock: EZIPEK_clean_linker_0, # of connection points: 2
#     Edge 64, Type (0, 1), BuildingBlock: EZIPEK_clean_linker_0, # of connection points: 2
#     Edge 65, Type (0, 1), BuildingBlock: EZIPEK_clean_linker_0, # of connection points: 2
#     Edge 66, Type (0, 1), BuildingBlock: EZIPEK_clean_linker_0, # of connection points: 2
#     Edge 67, Type (0, 1), BuildingBlock: EZIPEK_clean_linker_0, # of connection points: 2
# Relax obj value: 0.451
# Max RMSD: 0.426
# Mean RMSD: 0.189
data_MOF--net-myd--node1-NAWXER_clean_sbu_0--node2-CUWYAW_clean_sbu_0--edge1-EZIPEK_clean_linker_0
_symmetry_space_group_name_H-M    P1
_symmetry_Int_Tables_number       1
_symmetry_cell_setting            triclinic
loop_
_symmetry_equiv_pos_as_xyz
'x, y, z'
_cell_length_a     38.102765
_cell_length_b     36.589602
_cell_length_c     36.98681
_cell_angle_alpha  85.868378
_cell_angle_beta   87.045365
_cell_angle_gamma 81.524808
loop_
_atom_site_label
_atom_site_type_symbol
_atom_site_fract_x
_atom_site_fract_y
_atom_site_fract_z
_atom_type_partial_charge
C0 C 0.07853 0.28622 0.30285 0.0
C1 C 0.03941 0.37172 0.4017 0.0
O2 O 0.09993 0.30318 0.31859 0.0
Zn3 Zn 0.06237 0.3262 0.35166 0.0
O4 O 0.04553 0.29039 0.31189 0.0
Zn5 Zn 0.00825 0.31758 0.34896 0.0
O6 O 0.98164 0.34904 0.30729 0.0
O7 O 0.03511 0.36251 0.30833 0.0
O8 O 0.01339 0.3581 0.38938 0.0
O9 O 0.07054 0.36049 0.38904 0.0
O10 O 0.05523 0.27228 0.37925 0.0
O11 O 0.99921 0.26741 0.37589 0.0
C12 C 1.00507 0.36824 0.29315 0.0
C13 C 0.03028 0.25223 0.38516 0.0
C14 C 0.97249 0.76697 0.31226 0.0
C15 C 0.99174 0.67671 0.21705 0.0
O16 O 1.00515 0.75396 0.30577 0.0
Zn17 Zn 0.03714 0.71753 0.26931 0.0
O18 O 0.94869 0.75721 0.29356 0.0
Zn19 Zn 0.98205 0.72499 0.26339 0.0
O20 O 1.00212 0.6839 0.30643 0.0
O21 O 0.06036 0.68222 0.30542 0.0
O22 O 0.96403 0.69822 0.22634 0.0
O23 O 0.02105 0.68079 0.23102 0.0
O24 O 0.06385 0.7554 0.24486 0.0
O25 O 1.00738 0.76787 0.23422 0.0
C26 C 0.03234 0.67141 0.31996 0.0
C27 C 0.03822 0.77797 0.23187 0.0
C28 C 0.39343 0.03302 0.24651 0.0
C29 C 0.30119 0.01991 0.35163 0.0
O30 O 0.38298 1.0031 0.26004 0.0
Zn31 Zn 0.3508 0.01989 0.30384 0.0
O32 O 0.38421 0.06203 0.26444 0.0
Zn33 Zn 0.34903 0.07783 0.3112 0.0
O34 O 0.3789 0.08644 0.35459 0.0
O35 O 0.38256 0.0267 0.35081 0.0
O36 O 0.31152 0.0513 0.34415 0.0
O37 O 0.3158 0.9929 0.33326 0.0
O38 O 0.30905 0.05373 0.27404 0.0
O39 O 0.31 0.11185 0.284 0.0
C40 C 0.38965 0.05374 0.3683 0.0
C41 C 0.29573 0.08776 0.26848 0.0
C42 C 0.7145 0.55501 0.34731 0.0
C43 C 0.62803 0.57331 0.44683 0.0
O44 O 0.69761 0.52712 0.35329 0.0
Zn45 Zn 0.65286 0.51297 0.38878 0.0
O46 O 0.70579 0.58388 0.36483 0.0
Zn47 Zn 0.66646 0.56585 0.39151 0.0
O48 O 0.6961 0.52096 0.42451 0.0
O49 O 0.67588 0.46891 0.41425 0.0
O50 O 0.64119 0.59796 0.42691 0.0
O51 O 0.62895 0.541 0.43527 0.0
O52 O 0.6177 0.50616 0.35445 0.0
O53 O 0.63415 0.56136 0.34633 0.0
C54 C 0.69678 0.48581 0.43035 0.0
C55 C 0.61862 0.53596 0.33487 0.0
C56 C 0.33967 0.39331 1.01189 0.0
C57 C 0.43942 0.29039 1.01328 0.0
O58 O 0.35443 0.37747 0.98428 0.0
Zn59 Zn 0.39642 0.35 1.0078 0.0
O60 O 0.35665 0.39049 0.04128 0.0
Zn61 Zn 0.4052 0.35801 0.06199 0.0
O62 O 0.43865 0.39301 0.06936 0.0
O63 O 0.43334 0.38967 1.011 0.0
O64 O 0.43554 0.30706 0.04295 0.0
O65 O 0.42287 0.30643 0.98619 0.0
O66 O 0.36666 0.32102 0.04916 0.0
O67 O 0.38073 0.33501 0.10342 0.0
C68 C 0.44708 0.40343 0.037 0.0
C69 C 0.36251 0.31821 0.08373 0.0
C70 C 0.27303 0.83333 0.54424 0.0
C71 C 0.38169 0.737 0.58742 0.0
O72 O 0.29324 0.81573 0.52058 0.0
Zn73 Zn 0.33692 0.77116 0.51777 0.0
O74 O 0.27944 0.82479 0.57778 0.0
Zn75 Zn 0.32253 0.78376 0.57402 0.0
O76 O 0.35739 0.81681 0.54785 0.0
O77 O 0.3733 0.79932 0.49297 0.0
O78 O 0.35977 0.75586 0.60897 0.0
O79 O 0.37398 0.73917 0.554 0.0
O80 O 0.31099 0.73322 0.49916 0.0
O81 O 0.29691 0.74114 0.55673 0.0
C82 C 0.37651 0.81986 0.51886 0.0
C83 C 0.29278 0.72526 0.52787 0.0
C84 C 0.83448 0.88339 0.54295 0.0
C85 C 0.93526 0.77992 0.53939 0.0
O86 O 0.85072 0.88125 0.51171 0.0
Zn87 Zn 0.89593 0.84721 0.48717 0.0
O88 O 0.84926 0.86495 0.57004 0.0
Zn89 Zn 0.8905 0.83743 0.54439 0.0
O90 O 0.92769 0.87651 0.52863 0.0
O91 O 0.9295 0.88127 0.46897 0.0
O92 O 0.91944 0.79342 0.56768 0.0
O93 O 0.92875 0.79807 0.50895 0.0
O94 O 0.86946 0.82173 0.45416 0.0
O95 O 0.86004 0.80768 0.51248 0.0
C96 C 0.94005 0.89055 0.49859 0.0
C97 C 0.854 0.80356 0.47942 0.0
C98 C 0.49729 0.86534 0.78806 0.0
C99 C 0.53007 0.75617 0.88669 0.0
O100 O 0.47518 0.84707 0.80606 0.0
Zn101 Zn 0.5056 0.81787 0.84696 0.0
O102 O 0.52852 0.86244 0.80045 0.0
Zn103 Zn 0.55746 0.83176 0.84617 0.0
O104 O 0.59676 0.80937 0.815 0.0
O105 O 0.54452 0.79064 0.80994 0.0
O106 O 0.55317 0.77823 0.8786 0.0
O107 O 0.49905 0.76785 0.87497 0.0
O108 O 0.50966 0.85792 0.88906 0.0
O109 O 0.5636 0.87042 0.87989 0.0
C110 C 0.57739 0.78925 0.80039 0.0
C111 C 0.53403 0.87648 0.89758 0.0
C112 C 0.53334 0.17126 0.81497 0.0
C113 C 0.53556 0.28238 0.73114 0.0
O114 O 0.50281 0.18456 0.80297 0.0
Zn115 Zn 0.48126 0.22583 0.76185 0.0
O116 O 0.56093 0.18229 0.79959 0.0
Zn117 Zn 0.53695 0.22017 0.76528 0.0
O118 O 0.50558 0.25388 0.80394 0.0
O119 O 0.44853 0.25594 0.79468 0.0
O120 O 0.56197 0.25997 0.74284 0.0
O121 O 0.50499 0.2713 0.7333 0.0
O122 O 0.4631 0.19652 0.72649 0.0
O123 O 0.52136 0.18758 0.72364 0.0
C124 C 0.47308 0.26553 0.81252 0.0
C125 C 0.49188 0.17984 0.713 0.0
C126 C 0.79968 0.58816 0.76702 0.0
C127 C 0.88975 0.5505 0.86932 0.0
O128 O 0.81507 0.61138 0.78259 0.0
Zn129 Zn 0.85074 0.57546 0.81195 0.0
O130 O 0.81113 0.55369 0.77327 0.0
Zn131 Zn 0.85092 0.51786 0.80454 0.0
O132 O 0.8146 0.49198 0.83274 0.0
O133 O 0.80995 0.5512 0.84219 0.0
O134 O 0.88258 0.52385 0.85139 0.0
O135 O 0.87944 0.58338 0.85593 0.0
O136 O 0.88714 0.55748 0.76719 0.0
O137 O 0.88345 0.49905 0.76223 0.0
C138 C 0.79829 0.52026 0.84819 0.0
C139 C 0.89574 0.52824 0.74953 0.0
C140 C 0.20213 0.05748 0.83393 0.0
C141 C 0.12453 0.07157 0.94185 0.0
O142 O 0.18624 0.02904 0.84128 0.0
Zn143 Zn 0.14559 1.01299 0.88088 0.0
O144 O 0.1944 0.08593 0.85223 0.0
Zn145 Zn 0.15798 0.06646 0.88263 0.0
O146 O 0.19145 0.02194 0.91206 0.0
O147 O 0.17201 0.96903 0.90333 0.0
O148 O 0.13627 0.0968 0.92143 0.0
O149 O 0.12485 0.03955 0.92973 0.0
O150 O 0.10799 1.00558 0.85035 0.0
O151 O 0.12052 0.0619 0.8416 0.0
C152 C 0.19363 0.98664 0.91749 0.0
C153 C 0.10413 0.03625 0.83177 0.0
C154 C 0.79352 0.22607 1.01796 0.0
C155 C 0.8701 0.32541 1.0185 0.0
O156 O 0.79384 0.24099 0.04812 0.0
Zn157 Zn 0.81787 0.28181 0.07072 0.0
O158 O 0.81402 0.2353 0.99157 0.0
Zn159 Zn 0.8356 0.27409 1.01398 0.0
O160 O 0.87431 0.24419 0.05127 0.0
O161 O 0.85349 0.25353 0.10663 0.0
O162 O 0.86873 0.30717 0.99048 0.0
O163 O 0.85238 0.3164 0.04693 0.0
O164 O 0.77448 0.32168 0.07677 0.0
O165 O 0.78929 0.31653 1.019 0.0
C166 C 0.87888 0.23931 0.08555 0.0
C167 C 0.76852 0.33221 0.04355 0.0
C168 C 0.06544 0.04995 0.21109 0.0
Eu169 Eu 0.08139 0.10631 0.16825 0.0
C170 C 0.06375 1.0098 0.20912 0.0
C171 C 0.06989 0.99221 0.17628 0.0
C172 C 0.06831 0.95404 0.17539 0.0
C173 C 0.0608 0.9328 0.20737 0.0
C174 C 0.05515 0.95045 0.24015 0.0
C175 C 0.05671 0.98844 0.24101 0.0
C176 C 0.0968 0.08877 0.09719 0.0
C177 C 0.1634 0.11816 0.18414 0.0
C178 C 0.14006 0.20678 0.07792 0.0
Eu179 Eu 0.11108 0.16279 0.12494 0.0
C180 C 0.17193 0.22472 0.08174 0.0
C181 C 0.17934 0.23644 0.11561 0.0
C182 C 0.2108 0.25059 0.12027 0.0
C183 C 0.2354 0.25353 0.09111 0.0
C184 C 0.22807 0.24213 0.05714 0.0
C185 C 0.19658 0.2277 0.05252 0.0
C186 C 0.09731 0.1831 0.1937 0.0
C187 C 0.02388 0.16647 0.12859 0.0
O188 O 0.04191 0.07352 0.19386 0.0
O189 O 0.09694 0.05993 0.20752 0.0
O190 O 0.06798 0.08446 0.11549 0.0
O191 O 0.11608 0.10311 0.11716 0.0
O192 O 0.13362 0.1071 0.19808 0.0
O193 O 0.16269 0.13686 0.15214 0.0
O194 O 0.11238 0.21795 0.09877 0.0
O195 O 0.14584 0.17073 0.07692 0.0
O196 O 0.12465 0.18919 0.17339 0.0
O197 O 0.07681 0.16676 0.17672 0.0
O198 O 0.05219 0.17283 0.10759 0.0
O199 O 0.02888 0.1448 0.15883 0.0
H200 H 0.07559 1.00803 0.15133 0.0
H201 H 0.07225 0.94123 0.14971 0.0
H202 H 0.04886 0.93487 0.26506 0.0
H203 H 0.05212 1.00123 0.26669 0.0
H204 H 0.16099 0.23444 0.1387 0.0
H205 H 0.21596 0.25933 0.14662 0.0
H206 H 0.24677 0.24432 0.03429 0.0
H207 H 0.19165 0.21851 0.0263 0.0
C208 C 0.86908 0.51023 0.12349 0.0
Eu209 Eu 0.93466 0.49237 0.10044 0.0
C210 C 0.85061 0.51894 0.15872 0.0
C211 C 0.84148 0.49036 0.18335 0.0
C212 C 0.82261 0.49859 0.21581 0.0
C213 C 0.81229 0.53549 0.22409 0.0
C214 C 0.82196 0.56413 0.2001 0.0
C215 C 0.84095 0.55593 0.16762 0.0
C216 C 0.97821 0.44573 0.14612 0.0
C217 C 0.98006 0.55545 0.12248 0.0
C218 C 0.07385 0.47142 0.05849 0.0
Eu219 Eu 1.00534 0.48839 0.07031 0.0
C220 C 0.11302 0.46218 0.05141 0.0
C221 C 0.13173 0.48546 0.02813 0.0
C222 C 0.16833 0.47591 0.02018 0.0
C223 C 0.18728 0.4431 0.03575 0.0
C224 C 0.16854 0.42008 0.05929 0.0
C225 C 0.13193 0.42937 0.06687 0.0
C226 C 0.9626 0.51901 1.01209 0.0
C227 C 0.9586 0.43047 0.04673 0.0
O228 O 0.88839 0.53434 0.10827 0.0
O229 O 0.88422 0.47608 0.12046 0.0
O230 O 0.94882 0.43885 0.13387 0.0
O231 O 0.98583 0.47618 0.12985 0.0
O232 O 0.95137 0.5395 0.12877 0.0
O233 O 1.00464 0.5419 0.09869 0.0
O234 O 0.05362 0.44701 0.07111 0.0
O235 O 0.05696 0.50504 0.05316 0.0
O236 O 0.99688 0.51212 1.01143 0.0
O237 O 0.95212 0.50936 0.04422 0.0
O238 O 0.99064 0.43306 0.05694 0.0
O239 O 0.93198 0.45571 0.05517 0.0
H240 H 0.84837 0.46159 0.17735 0.0
H241 H 0.81504 0.47623 0.23396 0.0
H242 H 0.81384 0.59278 0.20603 0.0
H243 H 0.84741 0.57855 0.14916 0.0
H244 H 0.11796 0.51081 1.01552 0.0
H245 H 0.18186 0.49408 1.00173 0.0
H246 H 0.18213 0.39453 0.07148 0.0
H247 H 0.1184 0.41075 0.08481 0.0
C248 C 0.108 0.06128 0.55978 0.0
Eu249 Eu 0.10726 0.02817 0.4992 0.0
C250 C 0.10491 0.05473 0.59985 0.0
C251 C 0.07745 0.03719 0.61703 0.0
C252 C 0.07358 0.03399 0.65503 0.0
C253 C 0.09719 0.04803 0.6766 0.0
C254 C 0.12489 0.06508 0.65943 0.0
C255 C 0.12866 0.06842 0.62147 0.0
C256 C 0.05421 0.9839 0.49674 0.0
C257 C 0.15696 0.95178 0.49251 0.0
C258 C 0.08553 0.96282 0.38036 0.0
Eu259 Eu 0.10226 1.00282 0.43153 0.0
C260 C 0.05807 0.94004 0.37351 0.0
C261 C 0.06522 0.9141 0.34705 0.0
C262 C 0.04163 0.88909 0.34269 0.0
C263 C 0.01059 0.88949 0.36487 0.0
C264 C 1.00265 0.91631 0.39056 0.0
C265 C 0.02625 0.94161 0.39472 0.0
C266 C 0.16249 0.03426 0.42649 0.0
C267 C 0.07788 0.09171 0.43617 0.0
O268 O 0.13664 0.04559 0.54294 0.0
O269 O 0.07956 0.06124 0.54154 0.0
O270 O 0.07791 0.97994 0.52101 0.0
O271 O 0.06003 1.01015 0.47428 0.0
O272 O 0.14882 0.97958 0.51341 0.0
O273 O 0.14083 0.95364 0.46086 0.0
O274 O 0.10656 0.95004 0.40631 0.0
O275 O 0.07599 0.9984 0.38101 0.0
O276 O 0.13942 0.03739 0.40156 0.0
O277 O 0.15111 0.01701 0.4549 0.0
O278 O 0.07466 0.06285 0.41739 0.0
O279 O 0.09359 0.08475 0.46748 0.0
H280 H 0.05868 0.0264 0.60113 0.0
H281 H 0.05203 0.02073 0.66765 0.0
H282 H 0.14335 0.0762 0.6754 0.0
H283 H 0.14988 0.08228 0.60894 0.0
H284 H 0.08959 0.91249 0.33041 0.0
H285 H 0.04812 0.8686 0.32272 0.0
H286 H 0.97887 0.91691 0.40798 0.0
H287 H 0.02024 0.96162 0.41516 0.0
C288 C 0.09212 0.57145 0.56724 0.0
Eu289 Eu 0.03406 0.55508 0.54103 0.0
C290 C 0.12346 0.58964 0.55467 0.0
C291 C 0.1563 0.57813 0.57062 0.0
C292 C 0.18518 0.59754 0.56223 0.0
C293 C 0.18179 0.62891 0.53772 0.0
C294 C 0.14938 0.63957 0.5206 0.0
C295 C 0.12053 0.62008 0.5289 0.0
C296 C 0.02991 0.49377 0.50286 0.0
C297 C 0.01771 0.58576 0.45801 0.0
C298 C 0.90774 0.53731 0.48354 0.0
Eu299 Eu 0.96137 0.55322 0.51695 0.0
C300 C 0.87587 0.5194 0.48966 0.0
C301 C 0.84612 0.5339 0.46991 0.0
C302 C 0.81632 0.51597 0.47222 0.0
C303 C 0.81583 0.48322 0.49429 0.0
C304 C 0.845 0.46929 0.51534 0.0
C305 C 0.87507 0.48738 0.51302 0.0
C306 C 0.96934 0.62002 0.54253 0.0
C307 C 0.97012 0.53614 0.60276 0.0
O308 O 0.06136 0.59263 0.56872 0.0
O309 O 0.0898 0.53918 0.55526 0.0
O310 O 0.05789 0.50961 0.50492 0.0
O311 O 1.0065 0.508 0.52596 0.0
O312 O 0.03995 0.58418 0.48472 0.0
O313 O 0.98685 0.57354 0.46377 0.0
O314 O 0.93838 0.51594 0.48501 0.0
O315 O 0.90748 0.56862 0.49843 0.0
O316 O 0.94073 0.6045 0.54696 0.0
O317 O 0.99172 0.60006 0.52318 0.0
O318 O 0.94951 0.53378 0.57556 0.0
O319 O 1.00288 0.5446 0.59613 0.0
H320 H 0.15927 0.55485 0.59059 0.0
H321 H 0.20971 0.58903 0.57607 0.0
H322 H 0.146 0.66387 0.50188 0.0
H323 H 0.09559 0.62958 0.51609 0.0
H324 H 0.84631 0.55857 0.45186 0.0
H325 H 0.79391 0.52704 0.45584 0.0
H326 H 0.84486 0.44407 0.53255 0.0
H327 H 0.89788 0.47596 0.52864 0.0
C328 C 0.36375 0.02239 0.61217 0.0
Eu329 Eu 0.43024 0.99948 0.5947 0.0
C330 C 0.34281 0.02973 0.64623 0.0
C331 C 0.34414 1.00311 0.67573 0.0
C332 C 0.32287 1.01004 0.70712 0.0
C333 C 0.30027 0.04377 0.70963 0.0
C334 C 0.29989 0.0709 0.68076 0.0
C335 C 0.32089 0.06384 0.64922 0.0
C336 C 0.46798 0.94888 0.64371 0.0
C337 C 0.47581 0.05913 0.62136 0.0
C338 C 0.57032 0.97667 0.56812 0.0
Eu339 Eu 0.50101 0.99066 0.5719 0.0
C340 C 0.60987 0.96754 0.56674 0.0
C341 C 0.63144 0.99099 0.54738 0.0
C342 C 0.66862 0.98151 0.5455 0.0
C343 C 0.68501 0.94851 0.56312 0.0
C344 C 0.66359 0.92559 0.58323 0.0
C345 C 0.62651 0.93499 0.58506 0.0
C346 C 0.45974 0.0164 0.51194 0.0
C347 C 0.45486 0.93347 0.54584 0.0
O348 O 0.3867 0.04473 0.60244 0.0
O349 O 0.37624 0.98796 0.60688 0.0
O350 O 0.43783 0.94582 0.63063 0.0
O351 O 0.47777 0.97889 0.62922 0.0
O352 O 0.44636 0.04442 0.627 0.0
O353 O 0.50069 0.04489 0.59832 0.0
O354 O 0.55004 0.95366 0.58357 0.0
O355 O 0.55289 1.00732 0.55367 0.0
O356 O 0.48903 0.99329 0.51143 0.0
O357 O 0.45412 0.02687 0.54438 0.0
O358 O 0.48576 0.93561 0.55921 0.0
O359 O 0.42858 0.9603 0.55075 0.0
H360 H 0.36117 0.97674 0.67439 0.0
H361 H 0.32349 0.98884 0.72918 0.0
H362 H 0.28259 0.09709 0.6823 0.0
H363 H 0.31967 0.08483 0.62693 0.0
H364 H 0.61957 0.01631 0.53309 0.0
H365 H 0.68454 0.99934 0.52936 0.0
H366 H 0.67554 0.89976 0.59658 0.0
H367 H 0.61083 0.91637 0.60042 0.0
C368 C 0.56767 0.55449 0.71618 0.0
Eu369 Eu 0.58516 0.60863 0.67117 0.0
C370 C 0.56495 0.51441 0.71423 0.0
C371 C 0.56872 0.49733 0.68103 0.0
C372 C 0.56544 0.45955 0.67981 0.0
C373 C 0.55856 0.438 0.71179 0.0
C374 C 0.55521 0.45513 0.74493 0.0
C375 C 0.55843 0.49279 0.74613 0.0
C376 C 0.60005 0.58608 0.60189 0.0
C377 C 0.66844 0.61978 0.68133 0.0
C378 C 0.6385 0.69658 0.56215 0.0
Eu379 Eu 0.61556 0.66152 0.621 0.0
C380 C 0.67134 0.70916 0.54545 0.0
C381 C 0.69132 0.7309 0.56375 0.0
C382 C 0.72167 0.74316 0.54681 0.0
C383 C 0.7326 0.73398 0.51131 0.0
C384 C 0.71287 0.71206 0.4931 0.0
C385 C 0.6825 0.69983 0.51001 0.0
C386 C 0.60448 0.68855 0.6871 0.0
C387 C 0.52758 0.66661 0.63125 0.0
O388 O 0.59948 0.56385 0.71274 0.0
O389 O 0.54472 0.57829 0.69849 0.0
O390 O 0.5706 0.5842 0.61996 0.0
O391 O 0.61936 0.60134 0.62082 0.0
O392 O 0.63885 0.60986 0.69715 0.0
O393 O 0.66734 0.63688 0.64836 0.0
O394 O 0.63795 0.66089 0.56537 0.0
O395 O 0.62321 0.71325 0.59019 0.0
O396 O 0.63129 0.69321 0.66504 0.0
O397 O 0.58314 0.67034 0.67317 0.0
O398 O 0.55531 0.66962 0.60812 0.0
O399 O 0.53388 0.64883 0.66327 0.0
H400 H 0.57385 0.51328 0.656 0.0
H401 H 0.56772 0.44727 0.65385 0.0
H402 H 0.54949 0.43938 0.76992 0.0
H403 H 0.55545 0.50515 0.77207 0.0
H404 H 0.68352 0.73847 0.5911 0.0
H405 H 0.73669 0.75982 0.56141 0.0
H406 H 0.72099 0.70443 0.46584 0.0
H407 H 0.6676 0.6831 0.49532 0.0
C408 C 0.6351 0.55871 0.06359 0.0
Eu409 Eu 0.61474 0.53704 1.00276 0.0
C410 C 0.6246 0.55968 0.10252 0.0
C411 C 0.59654 0.54181 0.1177 0.0
C412 C 0.59016 0.53906 0.15547 0.0
C413 C 0.61188 0.55398 0.17845 0.0
C414 C 0.63909 0.57288 0.16309 0.0
C415 C 0.64537 0.57571 0.12546 0.0
C416 C 0.55154 0.50634 1.00602 0.0
C417 C 0.65728 0.45445 0.99194 0.0
C418 C 0.56943 0.47148 0.89193 0.0
Eu419 Eu 0.60017 0.50579 0.93804 0.0
C420 C 0.55114 0.43895 0.88911 0.0
C421 C 0.55566 0.42033 0.85699 0.0
C422 C 0.53595 0.39189 0.85195 0.0
C423 C 0.51128 0.38166 0.87892 0.0
C424 C 0.50681 0.40004 0.91125 0.0
C425 C 0.52678 0.42836 0.91641 0.0
C426 C 0.65873 0.53956 0.92345 0.0
C427 C 0.58021 0.59673 0.94252 0.0
O428 O 0.6449 0.52599 0.05174 0.0
O429 O 0.61571 0.58054 0.04054 0.0
O430 O 0.55474 0.53758 1.01868 0.0
O431 O 0.58134 0.49341 0.99353 0.0
O432 O 0.65485 0.48447 1.01029 0.0
O433 O 0.63737 0.45468 0.96316 0.0
O434 O 0.60383 0.46598 0.89584 0.0
O435 O 0.55286 0.49764 0.91149 0.0
O436 O 0.63277 0.54072 0.90194 0.0
O437 O 0.65111 0.52295 0.95354 0.0
O438 O 0.56956 0.56653 0.93102 0.0
O439 O 0.60433 0.59137 0.96749 0.0
H440 H 0.58043 0.52894 0.10046 0.0
H441 H 0.56927 0.52407 0.16686 0.0
H442 H 0.65622 0.58438 0.18035 0.0
H443 H 0.66731 0.58932 0.11433 0.0
H444 H 0.57398 0.42829 0.83548 0.0
H445 H 0.53965 0.37807 0.82679 0.0
H446 H 0.48791 0.39249 0.93235 0.0
H447 H 0.52273 0.44238 0.9414 0.0
C448 C 0.59006 0.07663 0.05752 0.0
Eu449 Eu 0.52994 0.05926 0.03719 0.0
C450 C 0.61875 0.09922 0.04527 0.0
C451 C 0.64984 0.08279 0.02696 0.0
C452 C 0.67853 0.10245 1.01863 0.0
C453 C 0.67706 0.13897 0.02863 0.0
C454 C 0.6458 0.15583 0.04612 0.0
C455 C 0.61702 0.13619 0.05443 0.0
C456 C 0.52226 0.99242 1.00742 0.0
C457 C 0.51514 0.08851 0.95303 0.0
C458 C 0.39713 0.0563 0.97805 0.0
Eu459 Eu 0.4536 0.06429 1.01159 0.0
C460 C 0.36724 0.03535 0.98159 0.0
C461 C 0.33735 0.04854 0.96158 0.0
C462 C 0.30984 0.02756 0.96121 0.0
C463 C 0.31193 0.99305 0.98074 0.0
C464 C 0.34117 0.98033 1.00207 0.0
C465 C 0.36879 1.0016 1.00261 0.0
C466 C 0.46862 0.13019 0.0342 0.0
C467 C 0.46514 0.04304 0.09771 0.0
O468 O 0.55882 0.09366 0.06784 0.0
O469 O 0.58762 0.04763 0.03964 0.0
O470 O 0.54974 0.99853 0.02414 0.0
O471 O 0.49935 0.0206 1.01269 0.0
O472 O 0.53806 0.08339 0.97933 0.0
O473 O 0.48193 0.08208 0.95881 0.0
O474 O 0.42835 0.03733 0.97175 0.0
O475 O 0.39755 0.0815 1.00118 0.0
O476 O 0.43857 0.11765 0.0398 0.0
O477 O 0.48938 0.1065 1.01697 0.0
O478 O 0.44499 0.04025 0.06997 0.0
O479 O 0.49777 0.05205 0.09184 0.0
H480 H 0.65243 0.0543 0.01982 0.0
H481 H 0.70232 0.0888 1.0052 0.0
H482 H 0.64403 0.18395 0.05417 0.0
H483 H 0.59376 0.14971 0.06881 0.0
H484 H 0.33576 0.07459 0.9454 0.0
H485 H 0.28727 0.03772 0.94473 0.0
H486 H 0.34296 0.95379 1.01735 0.0
H487 H 0.39163 0.99138 1.0186 0.0
C488 C 0.02411 0.18113 0.38703 0.0
C489 C 0.03957 0.21098 0.39995 0.0
C490 C 0.0833 0.16224 0.43058 0.0
C491 C 0.06477 0.13269 0.42238 0.0
N492 N 0.01074 0.11823 0.39891 0.0
N493 N 0.07888 0.22688 0.44358 0.0
C494 C 0.03324 0.14341 0.40234 0.0
C495 C 0.06761 0.20049 0.42456 0.0
N496 N 1.00202 0.18785 0.35868 0.0
N497 N 0.11714 0.15432 0.44223 0.0
H498 H 0.06677 0.2544 0.44229 0.0
H499 H 0.09704 0.22042 0.46404 0.0
H500 H 0.13112 0.12762 0.44364 0.0
H501 H 0.13289 0.17475 0.44555 0.0
H502 H 0.99305 0.16671 0.34588 0.0
H503 H 0.9959 0.21381 0.34525 0.0
H504 H 0.98592 0.12538 0.38769 0.0
H505 H 0.01482 0.09145 0.41102 0.0
C506 C 0.04573 0.43756 0.41588 0.0
C507 C 0.03335 0.40364 0.4271 0.0
C508 C 0.0111 0.43145 0.48533 0.0
C509 C 0.02799 0.46359 0.47601 0.0
N510 N 0.06494 0.49411 0.43113 0.0
N511 N 1.00666 0.36714 0.4745 0.0
C512 C 0.04637 0.46551 0.44106 0.0
C513 C 0.0163 0.4005 0.46224 0.0
N514 N 0.05501 0.44438 0.38006 0.0
N515 N 0.99023 0.42995 0.51638 0.0
H516 H 0.00995 0.34433 0.45866 0.0
H517 H 0.99808 0.36109 0.50114 0.0
H518 H 0.9872 0.45018 0.53507 0.0
H519 H 0.97377 0.40982 0.52245 0.0
H520 H 0.05994 0.47023 0.369 0.0
H521 H 0.05389 0.42556 0.36042 0.0
H522 H 0.08403 0.49306 0.40986 0.0
H523 H 0.06178 0.51891 0.44369 0.0
C524 C 0.01464 0.84799 0.22465 0.0
C525 C 0.04271 0.81768 0.21945 0.0
C526 C 0.08335 0.86377 0.20309 0.0
C527 C 0.05483 0.89314 0.20669 0.0
N528 N 0.99169 0.91197 0.20784 0.0
N529 N 0.10076 0.79905 0.19149 0.0
C530 C 0.01998 0.88469 0.21284 0.0
C531 C 0.07621 0.82628 0.20495 0.0
N532 N 0.98375 0.84319 0.24357 0.0
N533 N 0.11735 0.87145 0.19882 0.0
H534 H 0.0955 0.77211 0.18956 0.0
H535 H 0.12442 0.80428 0.1781 0.0
H536 H 0.12341 0.89843 0.19671 0.0
H537 H 0.13948 0.851 0.20003 0.0
H538 H 0.96457 0.86523 0.25036 0.0
H539 H 0.97851 0.81866 0.25682 0.0
H540 H 0.96555 0.90661 0.20811 0.0
H541 H 0.99464 0.93922 0.19937 0.0
C542 C 0.95692 0.63246 0.18794 0.0
C543 C 0.98956 0.64635 0.19154 0.0
C544 C 0.01802 0.59744 0.1524 0.0
C545 C 0.98426 0.58839 0.14393 0.0
N546 N 0.92103 0.61072 0.14471 0.0
N547 N 0.04925 0.64755 0.16553 0.0
C548 C 0.95353 0.61009 0.15882 0.0
C549 C 0.01961 0.63059 0.17025 0.0
N550 N 0.92957 0.63827 0.21314 0.0
N551 N 0.04863 0.57405 0.14561 0.0
H552 H 0.0506 0.67356 0.17462 0.0
H553 H 0.07055 0.63802 0.14815 0.0
H554 H 0.04924 0.54779 0.13636 0.0
H555 H 0.07317 0.57888 0.15398 0.0
H556 H 0.90635 0.62651 0.21187 0.0
H557 H 0.932 0.64952 0.2378 0.0
H558 H 0.8985 0.62782 0.15404 0.0
H559 H 0.91771 0.59872 0.12062 0.0
C560 C 0.44032 1.00673 0.19714 0.0
C561 C 0.41334 0.03561 0.2088 0.0
C562 C 0.42569 0.07104 0.15021 0.0
C563 C 0.44874 0.04036 0.1367 0.0
N564 N 0.47528 0.97703 0.14712 0.0
N565 N 0.37605 0.09295 0.1902 0.0
C566 C 0.45518 1.00765 0.16019 0.0
C567 C 0.40502 0.06714 0.18363 0.0
N568 N 0.45343 0.97924 0.22186 0.0
N569 N 0.42423 0.10483 0.13166 0.0
H570 H 0.35919 0.09189 0.21308 0.0
H571 H 0.36634 0.11356 0.17083 0.0
H572 H 0.43961 0.10914 0.10809 0.0
H573 H 0.41112 0.12921 0.14187 0.0
H574 H 0.4753 0.95949 0.21634 0.0
H575 H 0.445 0.97847 0.24912 0.0
H576 H 0.4779 0.95103 0.16098 0.0
H577 H 0.48722 0.97715 0.12108 0.0
C578 C 0.63437 0.51248 0.27292 0.0
C579 C 0.61208 0.5372 0.29534 0.0
C580 C 0.58792 0.57245 0.24068 0.0
C581 C 0.60901 0.5467 0.21865 0.0
N582 N 0.64652 0.48805 0.2137 0.0
N583 N 0.564 0.58719 0.30108 0.0
C584 C 0.63019 0.51531 0.23483 0.0
C585 C 0.58768 0.56614 0.27929 0.0
N586 N 0.66152 0.48804 0.28744 0.0
N587 N 0.56897 0.60347 0.22463 0.0
H588 H 0.56329 0.583 0.32931 0.0
H589 H 0.54332 0.60662 0.29134 0.0
H590 H 0.56762 0.60814 0.19654 0.0
H591 H 0.55621 0.62548 0.2389 0.0
H592 H 0.68154 0.4734 0.27173 0.0
H593 H 0.66627 0.48447 0.31499 0.0
H594 H 0.65882 0.4625 0.22434 0.0
H595 H 0.64511 0.48953 0.18554 0.0
C596 C 0.44125 0.05719 0.41164 0.0
C597 C 0.40745 0.04648 0.40579 0.0
C598 C 0.40439 0.02686 0.47224 0.0
C599 C 0.44011 0.03221 0.47694 0.0
N600 N 0.49306 0.05235 0.44908 0.0
N601 N 0.36116 1.01258 0.43148 0.0
C602 C 0.45858 0.04733 0.44592 0.0
C603 C 0.39036 0.02891 0.43641 0.0
N604 N 0.45713 0.0768 0.3843 0.0
N605 N 0.38329 0.02005 0.50215 0.0
H606 H 0.35047 1.01202 0.4063 0.0
H607 H 0.34986 0.99611 0.4517 0.0
H608 H 0.39194 0.02009 0.52839 0.0
H609 H 0.35618 0.01906 0.50102 0.0
H610 H 0.47951 0.08928 0.38754 0.0
H611 H 0.44655 0.08259 0.35873 0.0
H612 H 0.50985 0.05842 0.42707 0.0
H613 H 0.50537 0.04905 0.47388 0.0
C614 C 0.64846 0.58152 0.509 0.0
C615 C 0.6202 0.57808 0.48625 0.0
C616 C 0.58104 0.56984 0.54026 0.0
C617 C 0.60805 0.57734 0.56282 0.0
N618 N 0.6711 0.57288 0.56948 0.0
N619 N 0.55864 0.57348 0.47958 0.0
C620 C 0.64281 0.57864 0.54741 0.0
C621 C 0.58626 0.57341 0.50176 0.0
N622 N 0.68105 0.58698 0.49408 0.0
N623 N 0.55198 0.55568 0.55528 0.0
H624 H 0.56161 0.57605 0.45134 0.0
H625 H 0.5323 0.57462 0.48902 0.0
H626 H 0.54983 0.54648 0.58245 0.0
H627 H 0.53274 0.5472 0.54009 0.0
H628 H 0.70066 0.59567 0.5086 0.0
H629 H 0.68828 0.58496 0.46671 0.0
H630 H 0.69749 0.57138 0.56028 0.0
H631 H 0.66874 0.56416 0.59683 0.0
C632 C 0.28872 0.44372 0.02639 0.0
C633 C 0.30065 0.4082 1.0134 0.0
C634 C 0.23815 0.39895 1.00923 0.0
C635 C 0.22639 0.43213 0.02674 0.0
N636 N 0.24161 0.48339 0.05729 0.0
N637 N 0.28564 0.34837 1.00094 0.0
C638 C 0.252 0.45394 0.03658 0.0
C639 C 0.27509 0.38487 1.00689 0.0
N640 N 0.31244 0.468 0.02844 0.0
N641 N 0.21411 0.38107 0.994 0.0
H642 H 0.31206 0.336 1.00021 0.0
H643 H 0.26783 0.32935 1.00056 0.0
H644 H 0.18696 0.39084 0.99431 0.0
H645 H 0.22155 0.35883 0.97781 0.0
H646 H 0.30496 0.49557 0.03425 0.0
H647 H 0.33927 0.46152 0.02084 0.0
H648 H 0.25943 0.49791 0.06855 0.0
H649 H 0.21532 0.49124 0.06608 0.0
C650 C 0.27013 0.66581 0.5124 0.0
C651 C 0.26416 0.70064 0.52837 0.0
C652 C 0.2058 0.68616 0.55287 0.0
C653 C 0.21028 0.65343 0.53389 0.0
N654 N 0.24444 0.61454 0.49114 0.0
N655 N 0.22151 0.74696 0.5572 0.0
C656 C 0.24177 0.64404 0.51224 0.0
C657 C 0.23067 0.7116 0.54675 0.0
N658 N 0.30334 0.65235 0.49929 0.0
N659 N 0.17824 0.69259 0.57788 0.0
H660 H 0.23797 0.76724 0.55365 0.0
H661 H 0.19589 0.75747 0.56619 0.0
H662 H 0.15913 0.675 0.58316 0.0
H663 H 0.17621 0.71351 0.59587 0.0
H664 H 0.31016 0.62562 0.49077 0.0
H665 H 0.32509 0.66644 0.50022 0.0
H666 H 0.26492 0.60855 0.47179 0.0
H667 H 0.22452 0.59781 0.49094 0.0
C668 C 1.00474 0.89959 0.49147 0.0
C669 C 0.9688 0.91498 0.4983 0.0
C670 C 0.98849 0.97572 0.5054 0.0
C671 C 0.0242 0.96078 0.49606 0.0
N672 N 0.06433 0.91026 0.4727 0.0
N673 N 0.92565 0.96875 0.50773 0.0
C674 C 0.0317 0.92312 0.48727 0.0
C675 C 0.96048 0.9534 0.50415 0.0
N676 N 0.01343 0.86211 0.48994 0.0
N677 N 0.98148 1.01092 0.51663 0.0
H678 H 0.90482 0.95314 0.5078 0.0
H679 H 0.91722 0.99709 0.50819 0.0
H680 H 1.00104 0.028 0.51726 0.0
H681 H 0.95697 0.02237 0.5276 0.0
H682 H 0.0395 0.84865 0.48939 0.0
H683 H 0.99457 0.844 0.4921 0.0
H684 H 0.07054 0.88471 0.46143 0.0
H685 H 0.08392 0.92717 0.46828 0.0
C686 C 0.45071 0.72716 0.58047 0.0
C687 C 0.41878 0.71762 0.59873 0.0
C688 C 0.45824 0.66961 0.635 0.0
C689 C 0.48961 0.68432 0.62125 0.0
N690 N 0.51071 0.73743 0.58941 0.0
N691 N 0.39414 0.68039 0.64725 0.0
C692 C 0.48436 0.71602 0.59647 0.0
C693 C 0.42326 0.68945 0.62758 0.0
N694 N 0.45001 0.74641 0.54744 0.0
N695 N 0.46129 0.63538 0.65284 0.0
H696 H 0.3683 0.69203 0.64116 0.0
H697 H 0.39596 0.66312 0.67095 0.0
H698 H 0.48544 0.61822 0.65571 0.0
H699 H 0.4395 0.62202 0.66059 0.0
H700 H 0.47318 0.75048 0.53235 0.0
H701 H 0.42716 0.75563 0.53346 0.0
H702 H 0.50698 0.76229 0.57348 0.0
H703 H 0.53411 0.73347 0.60349 0.0
C704 C 0.57754 0.70248 0.9133 0.0
C705 C 0.54121 0.71597 0.90533 0.0
C706 C 0.52891 0.65087 0.92425 0.0
C707 C 0.56597 0.63719 0.92772 0.0
N708 N 0.62546 0.65079 0.91486 0.0
N709 N 0.4812 0.70323 0.91727 0.0
C710 C 0.59002 0.66334 0.91919 0.0
C711 C 0.51659 0.68994 0.91415 0.0
N712 N 0.60007 0.72702 0.91918 0.0
N713 N 0.50505 0.62652 0.93094 0.0
H714 H 0.47153 0.73134 0.91671 0.0
H715 H 0.46145 0.68727 0.92544 0.0
H716 H 0.51198 0.59969 0.94215 0.0
H717 H 0.47863 0.632 0.92391 0.0
H718 H 0.62589 0.71876 0.92759 0.0
H719 H 0.59142 0.75495 0.92244 0.0
H720 H 0.64385 0.66781 0.90471 0.0
H721 H 0.63584 0.62276 0.91694 0.0
C722 C 0.49517 0.92522 0.93825 0.0
C723 C 0.52885 0.9048 0.92751 0.0
C724 C 0.55666 0.94681 0.96335 0.0
C725 C 0.52341 0.963 0.97906 0.0
N726 N 0.46086 0.9588 0.98602 0.0
N727 N 0.59018 0.88977 0.94437 0.0
C728 C 0.49259 0.94958 0.96785 0.0
C729 C 0.55906 0.91362 0.94452 0.0
N730 N 0.46566 0.92329 0.91952 0.0
N731 N 0.58611 0.96389 0.96402 0.0
H732 H 0.59241 0.86324 0.93515 0.0
H733 H 0.61202 0.89436 0.95842 0.0
H734 H 0.58525 0.99069 0.97209 0.0
H735 H 0.61014 0.95378 0.95097 0.0
H736 H 0.44153 0.94007 0.92442 0.0
H737 H 0.46608 0.9085 0.8965 0.0
H738 H 0.4383 0.94717 0.98118 0.0
H739 H 0.45824 0.97482 1.00845 0.0
C740 C 0.51217 0.35261 0.72947 0.0
C741 C 0.5393 0.32269 0.72026 0.0
C742 C 0.57948 0.3692 0.70333 0.0
C743 C 0.55178 0.39847 0.71088 0.0
N744 N 0.48895 0.41767 0.71904 0.0
N745 N 0.59492 0.3055 0.68722 0.0
C746 C 0.51725 0.38995 0.71982 0.0
C747 C 0.57182 0.33194 0.70378 0.0
N748 N 0.4825 0.34647 0.74992 0.0
N749 N 0.61339 0.37663 0.69682 0.0
H750 H 0.58918 0.27882 0.6847 0.0
H751 H 0.61756 0.3113 0.67219 0.0
H752 H 0.61992 0.40338 0.69602 0.0
H753 H 0.63527 0.35599 0.69509 0.0
H754 H 0.4646 0.36783 0.76038 0.0
H755 H 0.47716 0.32077 0.7602 0.0
H756 H 0.46267 0.41265 0.72138 0.0
H757 H 0.49159 0.4453 0.712 0.0
C758 C 0.51122 0.11401 0.69291 0.0
C759 C 0.49098 0.1499 0.68695 0.0
C760 C 0.46056 0.12599 0.63797 0.0
C761 C 0.48183 0.0908 0.64296 0.0
N762 N 0.53125 0.05287 0.67155 0.0
N763 N 0.45281 0.19172 0.64771 0.0
C764 C 0.50851 0.08549 0.66908 0.0
C765 C 0.46737 0.15627 0.65779 0.0
N766 N 0.53143 0.10604 0.72273 0.0
N767 N 0.43368 0.13059 0.61423 0.0
H768 H 0.4585 0.21466 0.66028 0.0
H769 H 0.43821 0.19887 0.62458 0.0
H770 H 0.42933 0.11009 0.5975 0.0
H771 H 0.41436 0.15389 0.61269 0.0
H772 H 0.54234 0.0793 0.7315 0.0
H773 H 0.53537 0.12543 0.7407 0.0
H774 H 0.55433 0.04914 0.6861 0.0
H775 H 0.52849 0.03004 0.65719 0.0
C776 C 0.90934 0.56167 0.68737 0.0
C777 C 0.91662 0.53013 0.71259 0.0
C778 C 0.95925 0.50135 0.66522 0.0
C779 C 0.95386 0.53412 0.6417 0.0
N780 N 0.93011 0.59877 0.63611 0.0
N781 N 0.9551 0.47291 0.72672 0.0
C782 C 0.93084 0.5651 0.65463 0.0
C783 C 0.94336 0.50071 0.70171 0.0
N784 N 0.88054 0.58795 0.69315 0.0
N785 N 0.97921 0.47045 0.65256 0.0
H786 H 0.94564 0.47223 0.75367 0.0
H787 H 0.97672 0.45266 0.72182 0.0
H788 H 0.99189 0.4704 0.62686 0.0
H789 H 0.9811 0.44446 0.6664 0.0
H790 H 0.87149 0.60851 0.67346 0.0
H791 H 0.86314 0.58744 0.71563 0.0
H792 H 0.91733 0.6234 0.64612 0.0
H793 H 0.94579 0.60257 0.61281 0.0
C794 C 0.09136 1.0073 0.77455 0.0
C795 C 0.08925 0.03949 0.79435 0.0
C796 C 0.08155 0.07738 0.7365 0.0
C797 C 0.09275 0.04514 0.71718 0.0
N798 N 0.11182 0.97915 0.71871 0.0
N799 N 0.07415 0.10566 0.79454 0.0
C800 C 0.09841 1.00999 0.73644 0.0
C801 C 0.08162 0.07477 0.77532 0.0
N802 N 0.08479 0.97452 0.7916 0.0
N803 N 0.06997 0.11014 0.71774 0.0
H804 H 0.06882 0.10403 0.82253 0.0
H805 H 0.07322 0.13257 0.78304 0.0
H806 H 0.06917 0.11275 0.68951 0.0
H807 H 0.05866 0.13407 0.72994 0.0
H808 H 0.084 0.95084 0.77777 0.0
H809 H 0.07436 0.97269 0.81817 0.0
H810 H 0.11991 0.95356 0.7323 0.0
H811 H 0.11802 0.97983 0.6909 0.0
C812 C 0.9389 0.55911 0.91324 0.0
C813 C 0.90811 0.54294 0.9064 0.0
C814 C 0.9082 0.51808 0.97151 0.0
C815 C 0.94071 0.53124 0.97757 0.0
N816 N 0.98013 0.57453 0.95633 0.0
N817 N 0.86937 0.49867 0.92906 0.0
C818 C 0.95424 0.55437 0.94877 0.0
C819 C 0.89467 0.51997 0.93549 0.0
N820 N 0.95518 0.57703 0.88489 0.0
N821 N 0.88814 0.50651 1.00052 0.0
H822 H 0.85773 0.49887 0.90427 0.0
H823 H 0.86231 0.4779 0.9476 0.0
H824 H 0.89386 0.51002 0.0271 0.0
H825 H 0.86284 0.49948 0.99838 0.0
H826 H 0.97988 0.58569 0.88605 0.0
H827 H 0.94559 0.58029 0.85879 0.0
H828 H 0.98913 0.59479 0.93854 0.0
H829 H 0.98984 0.5743 0.9822 0.0
C830 C 0.08365 0.07195 0.9977 0.0
C831 C 0.11743 0.07618 0.98158 0.0
C832 C 0.1402 0.07995 0.04243 0.0
C833 C 0.10548 0.07881 0.05828 0.0
N834 N 0.05049 0.05433 0.05184 0.0
N835 N 0.1785 0.08445 0.98822 0.0
C836 C 0.0788 0.06945 0.03625 0.0
C837 C 0.14584 0.0804 1.00386 0.0
N838 N 0.05575 0.07128 0.97608 0.0
N839 N 0.16851 0.07603 0.06438 0.0
H840 H 0.18523 0.08092 0.96092 0.0
H841 H 0.19869 0.09319 1.00182 0.0
H842 H 0.16632 0.06929 0.09215 0.0
H843 H 0.1949 0.07395 0.05505 0.0
H844 H 0.02952 0.07285 0.98602 0.0
H845 H 0.05834 0.07284 0.94781 0.0
H846 H 0.03168 0.04466 0.03698 0.0
H847 H 0.04889 0.04519 0.07906 0.0
C848 C 0.78612 0.92701 0.57507 0.0
C849 C 0.79665 0.90317 0.54641 0.0
C850 C 0.73443 0.9132 0.5267 0.0
C851 C 0.72385 0.93519 0.55643 0.0
N852 N 0.73815 0.9608 0.61092 0.0
N853 N 0.78063 0.8782 0.49146 0.0
C854 C 0.74936 0.94164 0.58106 0.0
C855 C 0.77078 0.89782 0.52121 0.0
N856 N 0.81159 0.93763 0.59512 0.0
N857 N 0.70907 0.90464 0.50503 0.0
H858 H 0.80417 0.86041 0.48888 0.0
H859 H 0.76561 0.88042 0.46848 0.0
H860 H 0.68246 0.91644 0.50685 0.0
H861 H 0.71356 0.88405 0.48666 0.0
H862 H 0.80647 0.95763 0.61406 0.0
H863 H 0.83867 0.92905 0.59041 0.0
H864 H 0.75413 0.96284 0.63244 0.0
H865 H 0.71187 0.973 0.61525 0.0
C866 C 0.73683 0.21082 0.99339 0.0
C867 C 0.76717 0.2 1.01465 0.0
C868 C 0.73866 0.14899 0.04471 0.0
C869 C 0.70889 0.15891 0.02253 0.0
N870 N 0.68291 0.19428 0.97064 0.0
N871 N 0.80022 0.15429 0.05455 0.0
C872 C 0.70906 0.18827 0.99522 0.0
C873 C 0.76904 0.16757 0.03837 0.0
N874 N 0.73348 0.24374 0.97304 0.0
N875 N 0.73727 0.12303 0.07305 0.0
H876 H 0.8229 0.16712 0.0501 0.0
H877 H 0.80468 0.12886 0.06937 0.0
H878 H 0.71558 0.10889 0.07877 0.0
H879 H 0.75628 0.11762 0.0927 0.0
H880 H 0.71016 0.25544 0.96065 0.0
H881 H 0.75323 0.26079 0.97053 0.0
H882 H 0.68343 0.21263 0.94782 0.0
H883 H 0.66215 0.17852 0.97135 0.0
C884 C 0.50764 0.42302 0.04411 0.0
C885 C 0.47325 0.43074 0.02955 0.0
C886 C 0.48967 0.48925 1.00003 0.0
C887 C 0.52295 0.48265 1.01684 0.0
N888 N 0.56026 0.44687 0.0611 0.0
N889 N 0.42953 0.47462 0.99847 0.0
C890 C 0.53086 0.45058 0.04073 0.0
C891 C 0.46376 0.46482 1.00876 0.0
N892 N 0.519 0.38853 0.05959 0.0
N893 N 0.48326 0.51817 0.97464 0.0
H894 H 0.40982 0.45791 1.00459 0.0
H895 H 0.41989 0.50061 0.98666 0.0
H896 H 0.50103 0.53707 0.96847 0.0
H897 H 0.46162 0.52196 0.958 0.0
H898 H 0.54506 0.37983 0.067 0.0
H899 H 0.50343 0.36724 0.06171 0.0
H900 H 0.56568 0.42614 0.08169 0.0
H901 H 0.57745 0.46668 0.05993 0.0
C902 C 0.93461 0.23484 0.12461 0.0
C903 C 0.91487 0.21914 0.09927 0.0
C904 C 0.96787 0.1706 0.0911 0.0
C905 C 0.98619 0.18453 0.11858 0.0
N906 N 0.98359 0.22694 0.16577 0.0
N907 N 0.91157 0.16679 0.06424 0.0
C908 C 0.96833 0.21557 0.13672 0.0
C909 C 0.93138 0.1856 0.0841 0.0
N910 N 0.92253 0.26953 0.13547 0.0
N911 N 0.98543 0.14297 0.07123 0.0
H912 H 0.88477 0.17567 0.05987 0.0
H913 H 0.92047 0.1405 0.05543 0.0
H914 H 0.01126 0.13045 0.07633 0.0
H915 H 0.97549 0.13442 0.04804 0.0
H916 H 0.93739 0.28428 0.15045 0.0
H917 H 0.89918 0.28529 0.12656 0.0
H918 H 0.97042 0.24636 0.18289 0.0
H919 H 0.00848 0.21481 0.1745 0.0
C920 C 0.08108 0.27336 0.23805 0.0
C921 C 0.08953 0.26063 0.27411 0.0
C922 C 0.0909 0.1963 0.25877 0.0
C923 C 0.08561 0.20893 0.22218 0.0
N924 N 0.07325 0.25854 0.17628 0.0
N925 N 0.10567 0.21076 0.31881 0.0
C926 C 0.07967 0.24732 0.21171 0.0
C927 C 0.09543 0.2222 0.28445 0.0
N928 N 0.07348 0.31055 0.22954 0.0
N929 N 0.0914 0.15953 0.26867 0.0
H930 H 0.10972 0.22936 0.33776 0.0
H931 H 0.11286 0.18319 0.32776 0.0
H932 H 0.08745 0.14052 0.25008 0.0
H933 H 0.09282 0.14833 0.29531 0.0
H934 H 0.06283 0.32231 0.20535 0.0
H935 H 0.07749 0.32991 0.24766 0.0
H936 H 0.0727 0.28562 0.16539 0.0
H937 H 0.06876 0.24017 0.1573 0.0
C938 C 0.02785 0.40249 0.23298 0.0
C939 C 0.99906 0.39468 0.25795 0.0
C940 C 0.95906 0.43296 0.21341 0.0
C941 C 0.98674 0.43194 0.18567 0.0
N942 N 0.04809 0.41192 0.16988 0.0
N943 N 0.93594 0.40889 0.27137 0.0
C944 C 0.02123 0.41554 0.19579 0.0
C945 C 0.96428 0.41156 0.24773 0.0
N946 N 0.06142 0.40083 0.24482 0.0
N947 N 0.9283 0.45672 0.20809 0.0
H948 H 0.93857 0.4008 0.29877 0.0
H949 H 0.90969 0.41485 0.26362 0.0
H950 H 0.92468 0.47492 0.18512 0.0
H951 H 0.90829 0.46189 0.2281 0.0
H952 H 0.0823 0.40874 0.22819 0.0
H953 H 0.06763 0.39748 0.27195 0.0
H954 H 0.07282 0.39638 0.17466 0.0
H955 H 0.04461 0.42204 0.14302 0.0
C956 C 0.94758 0.83192 0.32715 0.0
C957 C 0.96518 0.79652 0.33859 0.0
C958 C 0.99874 0.82471 0.38116 0.0
C959 C 0.98843 0.85957 0.36243 0.0
N960 N 0.94967 0.89824 0.32144 0.0
N961 N 0.99706 0.75813 0.38461 0.0
C962 C 0.9611 0.86391 0.33718 0.0
C963 C 0.98684 0.79276 0.36898 0.0
N964 N 0.91842 0.83473 0.30668 0.0
N965 N 0.02116 0.82231 0.4092 0.0
H966 H 0.9871 0.73508 0.37633 0.0
H967 H 0.01411 0.75211 0.40594 0.0
H968 H 0.03023 0.84548 0.41819 0.0
H969 H 0.03016 0.79801 0.42434 0.0
H970 H 0.90314 0.85975 0.29887 0.0
H971 H 0.90726 0.81155 0.30098 0.0
H972 H 0.93256 0.90303 0.30002 0.0
H973 H 0.95844 0.9221 0.32924 0.0
C974 C 0.01983 0.61275 0.35542 0.0
C975 C 0.03351 0.6469 0.35424 0.0
C976 C 0.03633 0.6414 0.42084 0.0
C977 C 0.02485 0.60596 0.42209 0.0
N978 N 0.01042 0.55558 0.38931 0.0
N979 N 0.0615 0.69009 0.38543 0.0
C980 C 0.01791 0.59101 0.38899 0.0
C981 C 0.04429 0.65975 0.38673 0.0
N982 N 0.00828 0.60115 0.32436 0.0
N983 N 0.03655 0.65946 0.45195 0.0
H984 H 0.06538 0.70664 0.36191 0.0
H985 H 0.07416 0.69748 0.40756 0.0
H986 H 0.02877 0.64883 0.47746 0.0
H987 H 0.04038 0.68705 0.4521 0.0
H988 H 0.99338 0.57952 0.32398 0.0
H989 H 0.01216 0.61435 0.29881 0.0
H990 H 0.00972 0.54143 0.36599 0.0
H991 H 1.00751 0.5389 0.41293 0.0
C992 C 0.26035 0.08109 0.21199 0.0
C993 C 0.26253 0.09735 0.24584 0.0
C994 C 0.20131 0.12989 0.23728 0.0
C995 C 0.19774 0.11109 0.20539 0.0
N996 N 0.22336 0.0642 0.16571 0.0
N997 N 0.23009 0.13016 0.29425 0.0
C998 C 0.22725 0.08549 0.1937 0.0
C999 C 0.23164 0.11988 0.25933 0.0
N1000 N 0.29026 0.06218 0.19644 0.0
N1001 N 0.17632 0.15876 0.24603 0.0
H1002 H 0.25069 0.12249 0.31195 0.0
H1003 H 0.20688 0.14287 0.30694 0.0
H1004 H 0.15475 0.16743 0.2302 0.0
H1005 H 0.17909 0.17636 0.26631 0.0
H1006 H 0.29171 0.05368 0.17008 0.0
H1007 H 0.31466 0.05759 0.20859 0.0
H1008 H 0.24198 0.04185 0.15849 0.0
H1009 H 0.20004 0.06685 0.15157 0.0
C1010 C 0.77731 0.54397 0.32197 0.0
C1011 C 0.74063 0.55496 0.31646 0.0
C1012 C 0.75108 0.55328 0.25077 0.0
C1013 C 0.78803 0.54397 0.25596 0.0
N1014 N 0.83741 0.53618 0.29533 0.0
N1015 N 0.69365 0.57871 0.27614 0.0
C1016 C 0.80153 0.54113 0.29129 0.0
C1017 C 0.72786 0.56231 0.28098 0.0
N1018 N 0.78873 0.53517 0.35638 0.0
N1019 N 0.73795 0.55194 0.21723 0.0
H1020 H 0.6762 0.58677 0.29768 0.0
H1021 H 0.68365 0.58778 0.25085 0.0
H1022 H 0.75402 0.54596 0.19411 0.0
H1023 H 0.71096 0.55364 0.21286 0.0
H1024 H 0.81448 0.5231 0.36214 0.0
H1025 H 0.77172 0.53807 0.37937 0.0
H1026 H 0.84903 0.53736 0.32 0.0
H1027 H 0.85571 0.53362 0.27335 0.0
C1028 C 0.25925 0.04793 0.40234 0.0
C1029 C 0.2705 0.01787 0.37954 0.0
C1030 C 0.21413 0.99429 0.39538 0.0
C1031 C 0.20099 0.0268 0.41397 0.0
N1032 N 0.2112 0.08432 0.43578 0.0
N1033 N 0.26551 0.95378 0.37307 0.0
C1034 C 0.22386 0.05324 0.41806 0.0
C1035 C 0.25003 0.98838 0.38152 0.0
N1036 N 0.28326 0.06965 0.41157 0.0
N1037 N 0.19192 0.96951 0.38937 0.0
H1038 H 0.29275 0.94703 0.36819 0.0
H1039 H 0.25266 0.93049 0.37687 0.0
H1040 H 0.16587 0.97187 0.39952 0.0
H1041 H 0.19846 0.94828 0.37183 0.0
H1042 H 0.27788 0.08962 0.43051 0.0
H1043 H 0.31011 0.06475 0.4041 0.0
H1044 H 0.22411 0.10753 0.43521 0.0
H1045 H 0.18653 0.08767 0.44966 0.0
C1046 C 0.7206 0.47842 0.49164 0.0
C1047 C 0.72246 0.46615 0.45606 0.0
C1048 C 0.78496 0.44144 0.46246 0.0
C1049 C 0.78497 0.46347 0.49225 0.0
N1050 N 0.75353 0.49505 0.54123 0.0
N1051 N 0.75406 0.43006 0.40954 0.0
C1052 C 0.75268 0.47843 0.50949 0.0
C1053 C 0.75366 0.44455 0.44259 0.0
N1054 N 0.68828 0.49147 0.50706 0.0
N1055 N 0.81552 0.41954 0.45236 0.0
H1056 H 0.73115 0.43111 0.39504 0.0
H1057 H 0.77698 0.41775 0.39615 0.0
H1058 H 0.83854 0.41775 0.46691 0.0
H1059 H 0.81724 0.40105 0.43203 0.0
H1060 H 0.68446 0.49968 0.53349 0.0
H1061 H 0.66477 0.49142 0.49373 0.0
H1062 H 0.7314 0.50931 0.55428 0.0
H1063 H 0.77723 0.49432 0.55445 0.0
C1064 C 0.29894 0.32294 0.10282 0.0
C1065 C 0.3321 0.30015 0.09841 0.0
C1066 C 0.30163 0.24559 0.09781 0.0
C1067 C 0.2686 0.26928 0.09605 0.0
N1068 N 0.23567 0.33091 0.09401 0.0
N1069 N 0.36596 0.24012 0.09115 0.0
C1070 C 0.26713 0.30804 0.09836 0.0
C1071 C 0.33371 0.26141 0.09626 0.0
N1072 N 0.29802 0.35912 0.1103 0.0
N1073 N 0.30221 0.20806 0.10128 0.0
H1074 H 0.38985 0.2508 0.09186 0.0
H1075 H 0.36904 0.21255 0.08476 0.0
H1076 H 0.27916 0.19569 0.10234 0.0
H1077 H 0.32511 0.18935 0.10603 0.0
H1078 H 0.27479 0.37652 0.11698 0.0
H1079 H 0.32094 0.37085 0.11328 0.0
H1080 H 0.23378 0.3596 0.09111 0.0
H1081 H 0.21175 0.3213 0.09035 0.0
C1082 C 0.21586 0.85497 0.50891 0.0
C1083 C 0.24281 0.86336 0.53135 0.0
C1084 C 0.21778 0.92979 0.52049 0.0
C1085 C 0.18733 0.92081 0.50373 0.0
N1086 N 0.15603 0.87189 0.48805 0.0
N1087 N 0.26676 0.91054 0.56053 0.0
C1088 C 0.18614 0.88258 0.49953 0.0
C1089 C 0.24258 0.90126 0.5381 0.0
N1090 N 0.21866 0.82084 0.49543 0.0
N1091 N 0.2249 0.96544 0.5171 0.0
H1092 H 0.2868 0.89132 0.57189 0.0
H1093 H 0.26531 0.93697 0.56983 0.0
H1094 H 0.20998 0.98637 0.50144 0.0
H1095 H 0.24822 0.97321 0.52558 0.0
H1096 H 0.20206 0.81467 0.47589 0.0
H1097 H 0.23957 0.79976 0.50059 0.0
H1098 H 0.15191 0.84431 0.48861 0.0
H1099 H 0.13382 0.89063 0.48149 0.0
C1100 C 0.95981 0.72178 0.50726 0.0
C1101 C 0.95509 0.7405 0.53998 0.0
C1102 C 0.97264 0.6796 0.57285 0.0
C1103 C 0.96707 0.66141 0.54139 0.0
N1104 N 0.95089 0.66684 0.47869 0.0
N1105 N 0.9652 0.73667 0.60412 0.0
C1106 C 0.95941 0.68296 0.50859 0.0
C1107 C 0.96394 0.71918 0.57297 0.0
N1108 N 0.9668 0.74036 0.47499 0.0
N1109 N 0.98768 0.65922 0.60195 0.0
H1110 H 0.9658 0.76507 0.60407 0.0
H1111 H 0.96615 0.72299 0.62981 0.0
H1112 H 0.99594 0.63076 0.60164 0.0
H1113 H 0.99515 0.67072 0.62479 0.0
H1114 H 0.97204 0.72709 0.45089 0.0
H1115 H 0.97332 0.76713 0.47342 0.0
H1116 H 0.94191 0.68223 0.45527 0.0
H1117 H 0.94956 0.63863 0.47842 0.0
C1118 C 0.40573 0.87449 0.49201 0.0
C1119 C 0.4044 0.8448 0.51889 0.0
C1120 C 0.45301 0.86583 0.54944 0.0
C1121 C 0.44747 0.89975 0.52898 0.0
N1122 N 0.4248 0.93454 0.47579 0.0
N1123 N 0.42439 0.81723 0.57796 0.0
C1124 C 0.42594 0.90329 0.49836 0.0
C1125 C 0.42762 0.84158 0.54871 0.0
N1126 N 0.3867 0.87605 0.46148 0.0
N1127 N 0.48216 0.85667 0.57 0.0
H1128 H 0.40685 0.79822 0.57999 0.0
H1129 H 0.43762 0.8179 0.60185 0.0
H1130 H 0.50281 0.87247 0.56893 0.0
H1131 H 0.48829 0.83078 0.58373 0.0
H1132 H 0.38859 0.8953 0.43963 0.0
H1133 H 0.3701 0.85681 0.45695 0.0
H1134 H 0.40703 0.94169 0.45515 0.0
H1135 H 0.4424 0.95344 0.47812 0.0
C1136 C 0.58979 0.72493 0.78093 0.0
C1137 C 0.59109 0.76319 0.77248 0.0
C1138 C 0.59513 0.75305 0.70764 0.0
C1139 C 0.59436 0.71461 0.71609 0.0
N1140 N 0.58332 0.66507 0.7596 0.0
N1141 N 0.60048 0.81321 0.729 0.0
C1142 C 0.5893 0.70086 0.75245 0.0
C1143 C 0.59562 0.77707 0.73613 0.0
N1144 N 0.59067 0.7116 0.8164 0.0
N1145 N 0.59255 0.76687 0.67236 0.0
H1146 H 0.60039 0.8315 0.74936 0.0
H1147 H 0.60729 0.82446 0.70341 0.0
H1148 H 0.58905 0.75047 0.65126 0.0
H1149 H 0.58994 0.79493 0.66425 0.0
H1150 H 0.59257 0.68368 0.8249 0.0
H1151 H 0.59313 0.72855 0.83735 0.0
H1152 H 0.57623 0.65404 0.78518 0.0
H1153 H 0.58287 0.64689 0.73923 0.0
C1154 C 0.46907 0.92357 0.74913 0.0
C1155 C 0.48896 0.88723 0.75119 0.0
C1156 C 0.50015 0.89466 0.68378 0.0
C1157 C 0.4781 0.92976 0.6813 0.0
N1158 N 0.43779 0.97529 0.71233 0.0
N1159 N 0.51834 0.83619 0.71843 0.0
C1160 C 0.46161 0.94349 0.71429 0.0
C1161 C 0.50319 0.87244 0.71786 0.0
N1162 N 0.45796 0.93966 0.78071 0.0
N1163 N 0.51895 0.88262 0.65339 0.0
H1164 H 0.5206 0.81915 0.74228 0.0
H1165 H 0.52568 0.82204 0.69517 0.0
H1166 H 0.51726 0.89784 0.62842 0.0
H1167 H 0.53844 0.85947 0.65352 0.0
H1168 H 0.44694 0.96734 0.7819 0.0
H1169 H 0.46204 0.9258 0.80614 0.0
H1170 H 0.4214 0.98472 0.73412 0.0
H1171 H 0.43277 0.99119 0.6881 0.0
C1172 C 0.48928 0.28495 0.87124 0.0
C1173 C 0.46674 0.29217 0.84158 0.0
C1174 C 0.46201 0.35873 0.84837 0.0
C1175 C 0.49041 0.35152 0.87255 0.0
N1176 N 0.52825 0.30845 0.91108 0.0
N1177 N 0.41987 0.33357 0.81316 0.0
C1178 C 0.50242 0.31478 0.88614 0.0
C1179 C 0.44894 0.32842 0.83399 0.0
N1180 N 0.49849 0.24911 0.8842 0.0
N1181 N 0.44907 0.39455 0.83783 0.0
H1182 H 0.4092 0.31143 0.80407 0.0
H1183 H 0.40437 0.35907 0.80778 0.0
H1184 H 0.45713 0.41706 0.84925 0.0
H1185 H 0.43123 0.40214 0.81733 0.0
H1186 H 0.51284 0.24126 0.90734 0.0
H1187 H 0.48845 0.22736 0.87336 0.0
H1188 H 0.54098 0.2823 0.91942 0.0
H1189 H 0.53794 0.32976 0.92292 0.0
C1190 C 0.54702 0.15884 0.88133 0.0
C1191 C 0.53506 0.14643 0.84912 0.0
C1192 C 0.51835 0.09149 0.8847 0.0
C1193 C 0.52501 0.10694 0.91731 0.0
N1194 N 0.53932 0.1596 0.9466 0.0
N1195 N 0.50581 0.10217 0.82101 0.0
C1196 C 0.53812 0.14151 0.91567 0.0
C1197 C 0.51977 0.11304 0.85108 0.0
N1198 N 0.56599 0.18788 0.8796 0.0
N1199 N 0.51152 0.05577 0.88573 0.0
H1200 H 0.50747 0.11617 0.79564 0.0
H1201 H 0.4905 0.08076 0.82176 0.0
H1202 H 0.51108 0.03896 0.90973 0.0
H1203 H 0.50988 0.04163 0.86256 0.0
H1204 H 0.57896 0.19487 0.9017 0.0
H1205 H 0.57102 0.20357 0.85584 0.0
H1206 H 0.54452 0.18676 0.9465 0.0
H1207 H 0.5315 0.14928 0.97224 0.0
C1208 C 0.73606 0.62161 0.75729 0.0
C1209 C 0.76717 0.59933 0.74356 0.0
C1210 C 0.73455 0.59308 0.68773 0.0
C1211 C 0.70295 0.6137 0.70224 0.0
N1212 N 0.67382 0.64739 0.75157 0.0
N1213 N 0.79412 0.5604 0.69653 0.0
C1214 C 0.70399 0.62793 0.73719 0.0
C1215 C 0.7658 0.58432 0.70894 0.0
N1216 N 0.73685 0.63655 0.79006 0.0
N1217 N 0.73489 0.58164 0.6533 0.0
H1218 H 0.81824 0.55486 0.70913 0.0
H1219 H 0.79332 0.5441 0.67476 0.0
H1220 H 0.71223 0.58395 0.63825 0.0
H1221 H 0.75791 0.57164 0.63863 0.0
H1222 H 0.71764 0.65717 0.79969 0.0
H1223 H 0.75744 0.62929 0.80777 0.0
H1224 H 0.67001 0.6541 0.77846 0.0
H1225 H 0.65167 0.65622 0.73644 0.0
C1226 C 0.21422 0.05759 0.76708 0.0
C1227 C 0.22737 0.05769 0.80221 0.0
C1228 C 0.28808 0.05439 0.77597 0.0
C1229 C 0.27519 0.04962 0.7415 0.0
N1230 N 0.22656 0.04035 0.70535 0.0
N1231 N 0.27686 0.05219 0.84127 0.0
C1232 C 0.23837 0.04961 0.7373 0.0
C1233 C 0.26435 0.05521 0.80703 0.0
N1234 N 0.1786 0.06623 0.76201 0.0
N1235 N 0.32277 0.05899 0.77881 0.0
H1236 H 0.26018 0.05315 0.86457 0.0
H1237 H 0.30371 0.04609 0.84671 0.0
H1238 H 0.3408 0.05861 0.75659 0.0
H1239 H 0.33292 0.06623 0.80247 0.0
H1240 H 0.16774 0.0702 0.73653 0.0
H1241 H 0.16023 0.07334 0.78309 0.0
H1242 H 0.20058 0.03578 0.70222 0.0
H1243 H 0.24336 0.03378 0.68287 0.0
C1244 C 0.73572 0.50345 0.85913 0.0
C1245 C 0.76428 0.52005 0.87094 0.0
C1246 C 0.72329 0.5505 0.91783 0.0
C1247 C 0.69573 0.53237 0.90693 0.0
N1248 N 0.67874 0.48318 0.87625 0.0
N1249 N 0.78646 0.55297 0.91749 0.0
C1250 C 0.70319 0.50608 0.88027 0.0
C1251 C 0.75838 0.54163 0.90215 0.0
N1252 N 0.73807 0.4881 0.82632 0.0
N1253 N 0.71576 0.57699 0.94241 0.0
H1254 H 0.81248 0.5471 0.90734 0.0
H1255 H 0.78449 0.56517 0.94223 0.0
H1256 H 0.69059 0.58331 0.95486 0.0
H1257 H 0.73359 0.59447 0.94843 0.0
H1258 H 0.71636 0.48001 0.81466 0.0
H1259 H 0.76025 0.48715 0.80864 0.0
H1260 H 0.68273 0.46089 0.85971 0.0
H1261 H 0.68273 0.46089 0.85971 0.0
C1262 C 0.21914 0.97668 0.97772 0.0
C1263 C 0.22148 0.96772 0.94103 0.0
C1264 C 0.28567 0.95172 0.94372 0.0
C1265 C 0.28369 0.97046 0.97602 0.0
N1266 N 0.25043 0.99338 0.02846 0.0
N1267 N 0.25512 0.94095 0.89028 0.0
C1268 C 0.25086 0.97947 0.99514 0.0
C1269 C 0.25416 0.9521 0.92481 0.0
N1270 N 0.18644 0.9844 0.99464 0.0
N1271 N 0.318 0.9358 0.93052 0.0
H1272 H 0.23203 0.94025 0.87651 0.0
H1273 H 0.27843 0.93319 0.87508 0.0
H1274 H 0.34115 0.936 0.94437 0.0
H1275 H 0.32155 0.92009 0.90791 0.0
H1276 H 0.1823 0.99035 0.02174 0.0
H1277 H 0.1632 0.98234 0.98159 0.0
H1278 H 0.22746 1.00381 0.04295 0.0
H1279 H 0.27388 0.99452 0.04149 0.0
C1280 C 0.79473 0.79334 0.45723 0.0
C1281 C 0.82728 0.77877 0.47324 0.0
C1282 C 0.79928 0.72787 0.50347 0.0
C1283 C 0.7654 0.74663 0.49387 0.0
N1284 N 0.73042 0.79714 0.46068 0.0
N1285 N 0.86255 0.72691 0.50387 0.0
C1286 C 0.76302 0.77896 0.46979 0.0
C1287 C 0.83006 0.74419 0.49351 0.0
N1288 N 0.79421 0.82056 0.42996 0.0
N1289 N 0.80304 0.6947 0.52314 0.0
H1290 H 0.88589 0.73732 0.49539 0.0
H1291 H 0.86596 0.70182 0.51953 0.0
H1292 H 0.78196 0.68037 0.53144 0.0
H1293 H 0.78196 0.68037 0.53144 0.0
H1294 H 0.77194 0.83037 0.41504 0.0
H1295 H 0.81715 0.83075 0.41986 0.0
H1296 H 0.72659 0.82316 0.44692 0.0
H1297 H 0.70681 0.78712 0.46882 0.0
C1298 C 0.70259 0.3593 0.03476 0.0
C1299 C 0.73925 0.3638 0.03206 0.0
C1300 C 0.7221 0.42461 0.99798 0.0
C1301 C 0.68526 0.42149 1.00311 0.0
N1302 N 0.64046 0.38716 0.03033 0.0
N1303 N 0.78303 0.40381 1.01532 0.0
C1304 C 0.6756 0.38908 0.02254 0.0
C1305 C 0.74863 0.39732 1.01469 0.0
N1306 N 0.69355 0.32592 0.04782 0.0
N1307 N 0.73192 0.45333 0.97598 0.0
H1308 H 0.80294 0.38499 0.02746 0.0
H1309 H 0.7913 0.42903 1.00686 0.0
H1310 H 0.71353 0.47352 0.96336 0.0
H1311 H 0.75807 0.45544 0.96751 0.0
H1312 H 0.66811 0.31894 0.04686 0.0
H1313 H 0.71221 0.30406 0.05741 0.0
H1314 H 0.63133 0.36677 0.0479 0.0
H1315 H 0.6203 0.4075 0.02085 0.0
C1316 C 0.45081 0.22732 0.98543 0.0
C1317 C 0.45725 0.25017 1.01316 0.0
C1318 C 0.48022 0.19358 0.05068 0.0
C1319 C 0.46781 0.17121 0.02565 0.0
N1320 N 0.43838 0.16757 0.96988 0.0
N1321 N 0.49365 0.25429 0.06351 0.0
C1322 C 0.45262 0.1883 0.99307 0.0
C1323 C 0.4765 0.23304 0.04344 0.0
N1324 N 0.44557 0.24235 0.95092 0.0
N1325 N 0.49423 0.1772 0.08214 0.0
H1326 H 0.49501 0.2821 0.05604 0.0
H1327 H 0.51028 0.24372 0.08439 0.0
H1328 H 0.49828 0.14854 0.08761 0.0
H1329 H 0.49991 0.19184 0.10369 0.0
H1330 H 0.44279 0.2268 0.92903 0.0
H1331 H 0.44997 0.26921 0.94287 0.0
H1332 H 0.42275 0.17906 0.94848 0.0
H1333 H 0.43942 0.139 0.97366 0.0
C1334 C 0.91211 0.37129 0.99186 0.0
C1335 C 0.89499 0.35335 0.02203 0.0
C1336 C 0.93701 0.3724 0.06202 0.0
C1337 C 0.94917 0.39596 0.03425 0.0
N1338 N 0.94763 0.42001 0.97224 0.0
N1339 N 0.88139 0.359 0.08706 0.0
C1340 C 0.93696 0.3956 0.99872 0.0
C1341 C 0.9047 0.35958 0.05772 0.0
N1342 N 0.90338 0.36732 0.95721 0.0
N1343 N 0.95358 0.36633 0.09414 0.0
H1344 H 0.85404 0.36111 0.08459 0.0
H1345 H 0.8881 0.36454 0.11291 0.0
H1346 H 0.97736 0.37629 0.09788 0.0
H1347 H 0.94542 0.34836 0.11506 0.0
H1348 H 0.91825 0.37585 0.93456 0.0
H1349 H 0.88132 0.35567 0.95095 0.0
H1350 H 0.93661 0.42468 0.94684 0.0
H1351 H 0.96675 0.43675 0.97669 0.0
loop_
_geom_bond_atom_site_label_1
_geom_bond_atom_site_label_2
_geom_bond_distance
_geom_bond_site_symmetry_2
_ccdc_geom_bond_type
C0 O2 1.247 . S
C0 O4 1.260 1_455 S
C1 O8 1.247 1_455 S
C1 O9 1.258 . S
O2 C0 1.247 . S
O2 Zn3 2.028 . S
Zn3 O2 2.028 . S
Zn3 O7 2.035 . S
Zn3 O9 2.035 . S
Zn3 O10 2.028 . S
O4 C0 1.260 1_655 S
O4 Zn5 2.035 . S
Zn5 O4 2.035 . S
Zn5 O6 2.028 . S
Zn5 O8 2.028 . S
Zn5 O11 2.035 1_655 S
O6 Zn5 2.028 . S
O6 C12 1.247 1_655 S
O7 Zn3 2.035 . S
O7 C12 1.258 . S
O8 C1 1.247 1_655 S
O8 Zn5 2.028 . S
O9 C1 1.258 . S
O9 Zn3 2.035 . S
O10 Zn3 2.028 . S
O10 C13 1.247 . S
O11 Zn5 2.035 1_455 S
O11 C13 1.258 . S
C12 O6 1.247 1_455 S
C12 O7 1.258 . S
C13 O10 1.247 . S
C13 O11 1.258 . S
C14 O16 1.247 . S
C14 O18 1.258 1_455 S
C15 O22 1.247 . S
C15 O23 1.258 1_655 S
O16 C14 1.247 . S
O16 Zn17 2.028 . S
Zn17 O16 2.028 . S
Zn17 O21 2.035 . S
Zn17 O23 2.035 . S
Zn17 O24 2.028 . S
O18 C14 1.258 1_655 S
O18 Zn19 2.035 . S
Zn19 O18 2.035 . S
Zn19 O20 2.028 . S
Zn19 O22 2.028 . S
Zn19 O25 2.035 . S
O20 Zn19 2.028 . S
O20 C26 1.247 . S
O21 Zn17 2.035 . S
O21 C26 1.258 1_455 S
O22 C15 1.247 . S
O22 Zn19 2.028 . S
O23 C15 1.258 1_455 S
O23 Zn17 2.035 . S
O24 Zn17 2.028 . S
O24 C27 1.247 . S
O25 Zn19 2.035 . S
O25 C27 1.258 1_655 S
C26 O20 1.247 . S
C26 O21 1.258 1_655 S
C27 O24 1.247 . S
C27 O25 1.258 1_455 S
C28 O30 1.247 1_545 S
C28 O32 1.258 . S
C29 O36 1.247 1_565 S
C29 O37 1.258 . S
O30 C28 1.247 1_565 S
O30 Zn31 2.028 . S
Zn31 O30 2.028 . S
Zn31 O35 2.035 . S
Zn31 O37 2.035 . S
Zn31 O38 2.028 . S
O32 C28 1.258 . S
O32 Zn33 2.035 . S
Zn33 O32 2.035 . S
Zn33 O34 2.028 . S
Zn33 O36 2.028 . S
Zn33 O39 2.035 . S
O34 Zn33 2.028 . S
O34 C40 1.247 1_545 S
O35 Zn31 2.035 . S
O35 C40 1.258 . S
O36 C29 1.247 1_545 S
O36 Zn33 2.028 . S
O37 C29 1.258 . S
O37 Zn31 2.035 . S
O38 Zn31 2.028 . S
O38 C41 1.247 1_565 S
O39 Zn33 2.035 . S
O39 C41 1.258 . S
C40 O34 1.247 1_565 S
C40 O35 1.258 . S
C41 O38 1.247 1_545 S
C41 O39 1.258 . S
C42 O44 1.247 . S
C42 O46 1.258 . S
C43 O50 1.247 . S
C43 O51 1.258 . S
O44 C42 1.247 . S
O44 Zn45 2.028 . S
Zn45 O44 2.028 . S
Zn45 O49 2.035 . S
Zn45 O51 2.035 . S
Zn45 O52 2.028 . S
O46 C42 1.258 . S
O46 Zn47 2.035 . S
Zn47 O46 2.035 . S
Zn47 O48 2.028 . S
Zn47 O50 2.028 . S
Zn47 O53 2.035 . S
O48 Zn47 2.028 . S
O48 C54 1.247 . S
O49 Zn45 2.035 . S
O49 C54 1.258 . S
O50 C43 1.247 . S
O50 Zn47 2.028 . S
O51 C43 1.258 . S
O51 Zn45 2.035 . S
O52 Zn45 2.028 . S
O52 C55 1.247 . S
O53 Zn47 2.035 . S
O53 C55 1.258 . S
C54 O48 1.247 . S
C54 O49 1.258 . S
C55 O52 1.247 . S
C55 O53 1.258 . S
C56 O58 1.247 1_554 S
C56 O60 1.258 . S
C57 O64 1.247 1_556 S
C57 O65 1.258 . S
O58 C56 1.247 1_556 S
O58 Zn59 2.028 . S
Zn59 O58 2.028 . S
Zn59 O63 2.035 . S
Zn59 O65 2.035 . S
Zn59 O66 2.028 . S
O60 C56 1.258 . S
O60 Zn61 2.035 . S
Zn61 O60 2.035 . S
Zn61 O62 2.028 . S
Zn61 O64 2.028 . S
Zn61 O67 2.035 . S
O62 Zn61 2.028 . S
O62 C68 1.247 1_554 S
O63 Zn59 2.035 . S
O63 C68 1.258 . S
O64 C57 1.247 1_554 S
O64 Zn61 2.028 . S
O65 C57 1.258 . S
O65 Zn59 2.035 . S
O66 Zn59 2.028 . S
O66 C69 1.247 1_556 S
O67 Zn61 2.035 . S
O67 C69 1.258 . S
C68 O62 1.247 1_556 S
C68 O63 1.258 . S
C69 O66 1.247 1_554 S
C69 O67 1.258 . S
C70 O72 1.247 . S
C70 O74 1.258 . S
C71 O78 1.247 . S
C71 O79 1.258 . S
O72 C70 1.247 . S
O72 Zn73 2.028 . S
Zn73 O72 2.028 . S
Zn73 O77 2.035 . S
Zn73 O79 2.035 . S
Zn73 O80 2.028 . S
O74 C70 1.258 . S
O74 Zn75 2.035 . S
Zn75 O74 2.035 . S
Zn75 O76 2.028 . S
Zn75 O78 2.028 . S
Zn75 O81 2.035 . S
O76 Zn75 2.028 . S
O76 C82 1.247 . S
O77 Zn73 2.035 . S
O77 C82 1.258 . S
O78 C71 1.247 . S
O78 Zn75 2.028 . S
O79 C71 1.258 . S
O79 Zn73 2.035 . S
O80 Zn73 2.028 . S
O80 C83 1.247 . S
O81 Zn75 2.035 . S
O81 C83 1.258 . S
C82 O76 1.247 . S
C82 O77 1.258 . S
C83 O80 1.247 . S
C83 O81 1.258 . S
C84 O86 1.247 . S
C84 O88 1.258 . S
C85 O92 1.247 . S
C85 O93 1.258 . S
O86 C84 1.247 . S
O86 Zn87 2.028 . S
Zn87 O86 2.028 . S
Zn87 O91 2.035 . S
Zn87 O93 2.035 . S
Zn87 O94 2.028 . S
O88 C84 1.258 . S
O88 Zn89 2.035 . S
Zn89 O88 2.035 . S
Zn89 O90 2.028 . S
Zn89 O92 2.028 . S
Zn89 O95 2.035 . S
O90 Zn89 2.028 . S
O90 C96 1.247 . S
O91 Zn87 2.035 . S
O91 C96 1.258 . S
O92 C85 1.247 . S
O92 Zn89 2.028 . S
O93 C85 1.258 . S
O93 Zn87 2.035 . S
O94 Zn87 2.028 . S
O94 C97 1.247 . S
O95 Zn89 2.035 . S
O95 C97 1.258 . S
C96 O90 1.247 . S
C96 O91 1.258 . S
C97 O94 1.247 . S
C97 O95 1.258 . S
C98 O100 1.247 . S
C98 O102 1.258 . S
C99 O106 1.247 . S
C99 O107 1.258 . S
O100 C98 1.247 . S
O100 Zn101 2.028 . S
Zn101 O100 2.028 . S
Zn101 O105 2.035 . S
Zn101 O107 2.035 . S
Zn101 O108 2.028 . S
O102 C98 1.258 . S
O102 Zn103 2.035 . S
Zn103 O102 2.035 . S
Zn103 O104 2.028 . S
Zn103 O106 2.028 . S
Zn103 O109 2.035 . S
O104 Zn103 2.028 . S
O104 C110 1.247 . S
O105 Zn101 2.035 . S
O105 C110 1.258 . S
O106 C99 1.247 . S
O106 Zn103 2.028 . S
O107 C99 1.258 . S
O107 Zn101 2.035 . S
O108 Zn101 2.028 . S
O108 C111 1.247 . S
O109 Zn103 2.035 . S
O109 C111 1.258 . S
C110 O104 1.247 . S
C110 O105 1.258 . S
C111 O108 1.247 . S
C111 O109 1.258 . S
C112 O114 1.247 . S
C112 O116 1.258 . S
C113 O120 1.247 . S
C113 O121 1.258 . S
O114 C112 1.247 . S
O114 Zn115 2.028 . S
Zn115 O114 2.028 . S
Zn115 O119 2.035 . S
Zn115 O121 2.035 . S
Zn115 O122 2.028 . S
O116 C112 1.258 . S
O116 Zn117 2.035 . S
Zn117 O116 2.035 . S
Zn117 O118 2.028 . S
Zn117 O120 2.028 . S
Zn117 O123 2.035 . S
O118 Zn117 2.028 . S
O118 C124 1.247 . S
O119 Zn115 2.035 . S
O119 C124 1.258 . S
O120 C113 1.247 . S
O120 Zn117 2.028 . S
O121 C113 1.258 . S
O121 Zn115 2.035 . S
O122 Zn115 2.028 . S
O122 C125 1.247 . S
O123 Zn117 2.035 . S
O123 C125 1.258 . S
C124 O118 1.247 . S
C124 O119 1.258 . S
C125 O122 1.247 . S
C125 O123 1.258 . S
C126 O128 1.247 . S
C126 O130 1.258 . S
C127 O134 1.247 . S
C127 O135 1.258 . S
O128 C126 1.247 . S
O128 Zn129 2.028 . S
Zn129 O128 2.028 . S
Zn129 O133 2.035 . S
Zn129 O135 2.035 . S
Zn129 O136 2.028 . S
O130 C126 1.258 . S
O130 Zn131 2.035 . S
Zn131 O130 2.035 . S
Zn131 O132 2.028 . S
Zn131 O134 2.028 . S
Zn131 O137 2.035 . S
O132 Zn131 2.028 . S
O132 C138 1.247 . S
O133 Zn129 2.035 . S
O133 C138 1.258 . S
O134 C127 1.247 . S
O134 Zn131 2.028 . S
O135 C127 1.258 . S
O135 Zn129 2.035 . S
O136 Zn129 2.028 . S
O136 C139 1.247 . S
O137 Zn131 2.035 . S
O137 C139 1.258 . S
C138 O132 1.247 . S
C138 O133 1.258 . S
C139 O136 1.247 . S
C139 O137 1.258 . S
C140 O142 1.247 1_545 S
C140 O144 1.258 . S
C141 O148 1.247 . S
C141 O149 1.258 1_545 S
O142 C140 1.247 1_565 S
O142 Zn143 2.028 . S
Zn143 O142 2.028 . S
Zn143 O147 2.035 . S
Zn143 O149 2.035 . S
Zn143 O150 2.028 . S
O144 C140 1.258 . S
O144 Zn145 2.035 . S
Zn145 O144 2.035 . S
Zn145 O146 2.028 . S
Zn145 O148 2.028 . S
Zn145 O151 2.035 . S
O146 Zn145 2.028 . S
O146 C152 1.247 . S
O147 Zn143 2.035 . S
O147 C152 1.258 1_565 S
O148 C141 1.247 . S
O148 Zn145 2.028 . S
O149 C141 1.258 1_565 S
O149 Zn143 2.035 . S
O150 Zn143 2.028 . S
O150 C153 1.247 1_565 S
O151 Zn145 2.035 . S
O151 C153 1.258 . S
C152 O146 1.247 . S
C152 O147 1.258 1_545 S
C153 O150 1.247 1_545 S
C153 O151 1.258 . S
C154 O156 1.247 1_556 S
C154 O158 1.258 . S
C155 O162 1.247 1_554 S
C155 O163 1.258 . S
O156 C154 1.247 1_554 S
O156 Zn157 2.028 . S
Zn157 O156 2.028 . S
Zn157 O161 2.035 . S
Zn157 O163 2.035 . S
Zn157 O164 2.028 . S
O158 C154 1.258 . S
O158 Zn159 2.035 . S
Zn159 O158 2.035 . S
Zn159 O160 2.028 . S
Zn159 O162 2.028 . S
Zn159 O165 2.035 . S
O160 Zn159 2.028 . S
O160 C166 1.247 1_556 S
O161 Zn157 2.035 . S
O161 C166 1.258 . S
O162 C155 1.247 1_556 S
O162 Zn159 2.028 . S
O163 C155 1.258 . S
O163 Zn157 2.035 . S
O164 Zn157 2.028 . S
O164 C167 1.247 1_554 S
O165 Zn159 2.035 . S
O165 C167 1.258 . S
C166 O160 1.247 1_554 S
C166 O161 1.258 . S
C167 O164 1.247 1_556 S
C167 O165 1.258 . S
C168 Eu169 2.835 1_565 S
C168 C170 1.500 . S
C168 O188 1.257 1_565 S
C168 O189 1.260 . S
Eu169 C168 2.835 1_545 S
Eu169 O188 2.473 . S
Eu169 O189 2.480 1_545 S
Eu169 O190 2.430 . S
Eu169 O191 2.670 . S
Eu169 O192 2.394 . S
Eu169 O197 2.355 . S
Eu169 O199 2.374 . S
C170 C168 1.500 . S
C170 C171 1.377 . S
C170 C175 1.377 . S
C171 C170 1.377 . S
C171 C172 1.395 . S
C171 H200 0.931 . S
C172 C171 1.395 . S
C172 C173 1.383 . S
C172 H201 0.931 . S
C173 C172 1.383 . S
C173 C174 1.394 . S
C174 C173 1.394 . S
C174 C175 1.378 . S
C174 H202 0.931 . S
C175 C170 1.377 . S
C175 C174 1.378 . S
C175 H203 0.931 . S
C176 O190 1.259 . S
C176 O191 1.270 . S
C177 O192 1.251 . S
C177 O193 1.251 . S
C178 Eu179 2.835 . S
C178 C180 1.500 . S
C178 O194 1.257 . S
C178 O195 1.260 . S
Eu179 C178 2.835 . S
Eu179 O191 2.355 . S
Eu179 O193 2.374 . S
Eu179 O194 2.473 . S
Eu179 O195 2.480 . S
Eu179 O196 2.430 . S
Eu179 O197 2.670 . S
Eu179 O198 2.394 . S
C180 C178 1.500 . S
C180 C181 1.377 . S
C180 C185 1.377 1_554 S
C181 C180 1.377 . S
C181 C182 1.395 . S
C181 H204 0.931 . S
C182 C181 1.395 . S
C182 C183 1.383 1_554 S
C182 H205 0.931 . S
C183 C182 1.383 1_556 S
C183 C184 1.394 . S
C184 C183 1.394 . S
C184 C185 1.378 . S
C184 H206 0.931 . S
C185 C180 1.377 1_556 S
C185 C184 1.378 . S
C185 H207 0.931 . S
C186 O196 1.259 . S
C186 O197 1.270 . S
C187 O198 1.251 . S
C187 O199 1.251 . S
O188 C168 1.257 1_545 S
O188 Eu169 2.473 . S
O189 C168 1.260 . S
O189 Eu169 2.480 1_565 S
O190 Eu169 2.430 . S
O190 C176 1.259 . S
O191 Eu169 2.670 . S
O191 C176 1.270 . S
O191 Eu179 2.355 . S
O192 Eu169 2.394 . S
O192 C177 1.251 . S
O193 C177 1.251 . S
O193 Eu179 2.374 . S
O194 C178 1.257 . S
O194 Eu179 2.473 . S
O195 C178 1.260 . S
O195 Eu179 2.480 . S
O196 Eu179 2.430 . S
O196 C186 1.259 . S
O197 Eu169 2.355 . S
O197 Eu179 2.670 . S
O197 C186 1.270 . S
O198 Eu179 2.394 . S
O198 C187 1.251 . S
O199 Eu169 2.374 . S
O199 C187 1.251 . S
H200 C171 0.931 . S
H201 C172 0.931 . S
H202 C174 0.931 . S
H203 C175 0.931 . S
H204 C181 0.931 . S
H205 C182 0.931 . S
H206 C184 0.931 . S
H207 C185 0.931 . S
C208 Eu209 2.835 . S
C208 C210 1.500 . S
C208 O228 1.257 . S
C208 O229 1.260 . S
Eu209 C208 2.835 . S
Eu209 O228 2.473 . S
Eu209 O229 2.480 . S
Eu209 O230 2.430 . S
Eu209 O231 2.670 . S
Eu209 O232 2.394 . S
Eu209 O237 2.355 . S
Eu209 O239 2.374 . S
C210 C208 1.500 . S
C210 C211 1.377 . S
C210 C215 1.377 . S
C211 C210 1.377 . S
C211 C212 1.395 . S
C211 H240 0.931 . S
C212 C211 1.395 . S
C212 C213 1.383 . S
C212 H241 0.931 . S
C213 C212 1.383 . S
C213 C214 1.394 . S
C214 C213 1.394 . S
C214 C215 1.378 . S
C214 H242 0.931 . S
C215 C210 1.377 . S
C215 C214 1.378 . S
C215 H243 0.931 . S
C216 O230 1.259 . S
C216 O231 1.270 . S
C217 O232 1.251 . S
C217 O233 1.251 . S
C218 Eu219 2.835 . S
C218 C220 1.500 . S
C218 O234 1.257 . S
C218 O235 1.260 . S
Eu219 C218 2.835 . S
Eu219 O231 2.355 1_455 S
Eu219 O233 2.374 1_455 S
Eu219 O234 2.473 . S
Eu219 O235 2.480 . S
Eu219 O236 2.430 1_455 S
Eu219 O237 2.670 1_455 S
Eu219 O238 2.394 1_455 S
C220 C218 1.500 . S
C220 C221 1.377 1_554 S
C220 C225 1.377 . S
C221 C220 1.377 1_556 S
C221 C222 1.395 . S
C221 H244 0.931 . S
C222 C221 1.395 . S
C222 C223 1.383 . S
C222 H245 0.931 . S
C223 C222 1.383 . S
C223 C224 1.394 1_556 S
C224 C223 1.394 1_554 S
C224 C225 1.378 . S
C224 H246 0.931 . S
C225 C220 1.377 . S
C225 C224 1.378 . S
C225 H247 0.931 . S
C226 O236 1.259 . S
C226 O237 1.270 . S
C227 O238 1.251 . S
C227 O239 1.251 . S
O228 C208 1.257 . S
O228 Eu209 2.473 . S
O229 C208 1.260 . S
O229 Eu209 2.480 . S
O230 Eu209 2.430 . S
O230 C216 1.259 . S
O231 Eu209 2.670 . S
O231 C216 1.270 . S
O231 Eu219 2.355 1_655 S
O232 Eu209 2.394 . S
O232 C217 1.251 . S
O233 C217 1.251 . S
O233 Eu219 2.374 1_655 S
O234 C218 1.257 . S
O234 Eu219 2.473 . S
O235 C218 1.260 . S
O235 Eu219 2.480 . S
O236 Eu219 2.430 1_655 S
O236 C226 1.259 . S
O237 Eu209 2.355 . S
O237 Eu219 2.670 1_655 S
O237 C226 1.270 . S
O238 Eu219 2.394 1_655 S
O238 C227 1.251 . S
O239 Eu209 2.374 . S
O239 C227 1.251 . S
H240 C211 0.931 . S
H241 C212 0.931 . S
H242 C214 0.931 . S
H243 C215 0.931 . S
H244 C221 0.931 . S
H245 C222 0.931 . S
H246 C224 0.931 . S
H247 C225 0.931 . S
C248 Eu249 2.835 . S
C248 C250 1.500 . S
C248 O268 1.257 . S
C248 O269 1.260 . S
Eu249 C248 2.835 . S
Eu249 O268 2.473 . S
Eu249 O269 2.480 . S
Eu249 O270 2.430 1_545 S
Eu249 O271 2.670 1_545 S
Eu249 O272 2.394 1_545 S
Eu249 O277 2.350 1_545 S
Eu249 O279 2.374 . S
C250 C248 1.500 . S
C250 C251 1.377 . S
C250 C255 1.377 . S
C251 C250 1.377 . S
C251 C252 1.395 . S
C251 H280 0.931 . S
C252 C251 1.395 . S
C252 C253 1.383 . S
C252 H281 0.931 . S
C253 C252 1.383 . S
C253 C254 1.394 . S
C254 C253 1.394 . S
C254 C255 1.378 . S
C254 H282 0.931 . S
C255 C250 1.377 . S
C255 C254 1.378 . S
C255 H283 0.931 . S
C256 O270 1.259 . S
C256 O271 1.270 . S
C257 O272 1.251 . S
C257 O273 1.251 . S
C258 Eu259 2.835 . S
C258 C260 1.500 . S
C258 O274 1.257 . S
C258 O275 1.260 . S
Eu259 C258 2.835 . S
Eu259 O271 2.355 . S
Eu259 O273 2.374 . S
Eu259 O274 2.473 . S
Eu259 O275 2.480 . S
Eu259 O276 2.430 . S
Eu259 O277 2.690 . S
Eu259 O278 2.394 1_565 S
C260 C258 1.500 . S
C260 C261 1.377 . S
C260 C265 1.377 . S
C261 C260 1.377 . S
C261 C262 1.395 . S
C261 H284 0.931 . S
C262 C261 1.395 . S
C262 C263 1.383 . S
C262 H285 0.931 . S
C263 C262 1.383 . S
C263 C264 1.394 1_455 S
C264 C263 1.394 1_655 S
C264 C265 1.378 1_655 S
C264 H286 0.931 . S
C265 C260 1.377 . S
C265 C264 1.378 1_455 S
C265 H287 0.931 1_455 S
C266 O276 1.259 1_545 S
C266 O277 1.264 1_545 S
C267 O278 1.251 . S
C267 O279 1.251 . S
O268 C248 1.257 . S
O268 Eu249 2.473 . S
O269 C248 1.260 . S
O269 Eu249 2.480 . S
O270 Eu249 2.430 1_565 S
O270 C256 1.259 . S
O271 Eu249 2.670 1_565 S
O271 C256 1.270 . S
O271 Eu259 2.355 . S
O272 Eu249 2.394 1_565 S
O272 C257 1.251 . S
O273 C257 1.251 . S
O273 Eu259 2.374 . S
O274 C258 1.257 . S
O274 Eu259 2.473 . S
O275 C258 1.260 . S
O275 Eu259 2.480 . S
O276 Eu259 2.430 . S
O276 C266 1.259 1_565 S
O277 Eu249 2.350 1_565 S
O277 Eu259 2.690 . S
O277 C266 1.264 1_565 S
O278 Eu259 2.394 1_545 S
O278 C267 1.251 . S
O279 Eu249 2.374 . S
O279 C267 1.251 . S
H280 C251 0.931 . S
H281 C252 0.931 . S
H282 C254 0.931 . S
H283 C255 0.931 . S
H284 C261 0.931 . S
H285 C262 0.931 . S
H286 C264 0.931 . S
H287 C265 0.931 1_655 S
C288 Eu289 2.835 . S
C288 C290 1.500 . S
C288 O308 1.257 . S
C288 O309 1.260 . S
Eu289 C288 2.835 . S
Eu289 O308 2.473 . S
Eu289 O309 2.480 . S
Eu289 O310 2.430 . S
Eu289 O311 2.670 . S
Eu289 O312 2.394 . S
Eu289 O317 2.355 1_455 S
Eu289 O319 2.374 1_455 S
C290 C288 1.500 . S
C290 C291 1.377 . S
C290 C295 1.377 . S
C291 C290 1.377 . S
C291 C292 1.395 . S
C291 H320 0.931 . S
C292 C291 1.395 . S
C292 C293 1.383 . S
C292 H321 0.931 . S
C293 C292 1.383 . S
C293 C294 1.394 . S
C294 C293 1.394 . S
C294 C295 1.378 . S
C294 H322 0.931 . S
C295 C290 1.377 . S
C295 C294 1.378 . S
C295 H323 0.931 . S
C296 O310 1.259 . S
C296 O311 1.270 . S
C297 O312 1.251 . S
C297 O313 1.251 . S
C298 Eu299 2.835 . S
C298 C300 1.500 . S
C298 O314 1.257 . S
C298 O315 1.260 . S
Eu299 C298 2.835 . S
Eu299 O311 2.355 1_655 S
Eu299 O313 2.374 1_655 S
Eu299 O314 2.473 . S
Eu299 O315 2.480 . S
Eu299 O316 2.430 . S
Eu299 O317 2.670 . S
Eu299 O318 2.394 . S
C300 C298 1.500 . S
C300 C301 1.377 . S
C300 C305 1.377 . S
C301 C300 1.377 . S
C301 C302 1.395 . S
C301 H324 0.931 . S
C302 C301 1.395 . S
C302 C303 1.383 . S
C302 H325 0.931 . S
C303 C302 1.383 . S
C303 C304 1.394 . S
C304 C303 1.394 . S
C304 C305 1.378 . S
C304 H326 0.931 . S
C305 C300 1.377 . S
C305 C304 1.378 . S
C305 H327 0.931 . S
C306 O316 1.259 . S
C306 O317 1.270 . S
C307 O318 1.251 . S
C307 O319 1.251 . S
O308 C288 1.257 . S
O308 Eu289 2.473 . S
O309 C288 1.260 . S
O309 Eu289 2.480 . S
O310 Eu289 2.430 . S
O310 C296 1.259 . S
O311 Eu289 2.670 . S
O311 C296 1.270 . S
O311 Eu299 2.355 1_455 S
O312 Eu289 2.394 . S
O312 C297 1.251 . S
O313 C297 1.251 . S
O313 Eu299 2.374 1_455 S
O314 C298 1.257 . S
O314 Eu299 2.473 . S
O315 C298 1.260 . S
O315 Eu299 2.480 . S
O316 Eu299 2.430 . S
O316 C306 1.259 . S
O317 Eu289 2.355 1_655 S
O317 Eu299 2.670 . S
O317 C306 1.270 . S
O318 Eu299 2.394 . S
O318 C307 1.251 . S
O319 Eu289 2.374 1_655 S
O319 C307 1.251 . S
H320 C291 0.931 . S
H321 C292 0.931 . S
H322 C294 0.931 . S
H323 C295 0.931 . S
H324 C301 0.931 . S
H325 C302 0.931 . S
H326 C304 0.931 . S
H327 C305 0.931 . S
C328 Eu329 2.835 1_545 S
C328 C330 1.500 . S
C328 O348 1.257 . S
C328 O349 1.260 . S
Eu329 C328 2.835 1_565 S
Eu329 O348 2.473 1_565 S
Eu329 O349 2.480 1_565 S
Eu329 O350 2.430 . S
Eu329 O351 2.670 . S
Eu329 O352 2.394 1_565 S
Eu329 O357 2.355 1_565 S
Eu329 O359 2.374 . S
C330 C328 1.500 . S
C330 C331 1.377 . S
C330 C335 1.377 . S
C331 C330 1.377 . S
C331 C332 1.395 . S
C331 H360 0.931 . S
C332 C331 1.395 . S
C332 C333 1.383 . S
C332 H361 0.931 . S
C333 C332 1.383 . S
C333 C334 1.394 . S
C334 C333 1.394 . S
C334 C335 1.378 . S
C334 H362 0.931 . S
C335 C330 1.377 . S
C335 C334 1.378 . S
C335 H363 0.931 . S
C336 O350 1.259 . S
C336 O351 1.270 . S
C337 O352 1.251 . S
C337 O353 1.251 . S
C338 Eu339 2.835 1_565 S
C338 C340 1.500 . S
C338 O354 1.257 . S
C338 O355 1.260 . S
Eu339 C338 2.835 1_545 S
Eu339 O351 2.355 1_545 S
Eu339 O353 2.374 . S
Eu339 O354 2.473 1_545 S
Eu339 O355 2.480 1_545 S
Eu339 O356 2.430 . S
Eu339 O357 2.670 . S
Eu339 O358 2.394 1_545 S
C340 C338 1.500 . S
C340 C341 1.377 . S
C340 C345 1.377 . S
C341 C340 1.377 . S
C341 C342 1.395 . S
C341 H364 0.931 . S
C342 C341 1.395 . S
C342 C343 1.383 . S
C342 H365 0.931 . S
C343 C342 1.383 . S
C343 C344 1.394 . S
C344 C343 1.394 . S
C344 C345 1.378 . S
C344 H366 0.931 . S
C345 C340 1.377 . S
C345 C344 1.378 . S
C345 H367 0.931 . S
C346 O356 1.259 . S
C346 O357 1.270 . S
C347 O358 1.251 . S
C347 O359 1.251 . S
O348 C328 1.257 . S
O348 Eu329 2.473 1_545 S
O349 C328 1.260 . S
O349 Eu329 2.480 1_545 S
O350 Eu329 2.430 . S
O350 C336 1.259 . S
O351 Eu329 2.670 . S
O351 C336 1.270 . S
O351 Eu339 2.355 1_565 S
O352 Eu329 2.394 1_545 S
O352 C337 1.251 . S
O353 C337 1.251 . S
O353 Eu339 2.374 . S
O354 C338 1.257 . S
O354 Eu339 2.473 1_565 S
O355 C338 1.260 . S
O355 Eu339 2.480 1_565 S
O356 Eu339 2.430 . S
O356 C346 1.259 . S
O357 Eu329 2.355 1_545 S
O357 Eu339 2.670 . S
O357 C346 1.270 . S
O358 Eu339 2.394 1_565 S
O358 C347 1.251 . S
O359 Eu329 2.374 . S
O359 C347 1.251 . S
H360 C331 0.931 . S
H361 C332 0.931 . S
H362 C334 0.931 . S
H363 C335 0.931 . S
H364 C341 0.931 . S
H365 C342 0.931 . S
H366 C344 0.931 . S
H367 C345 0.931 . S
C368 Eu369 2.835 . S
C368 C370 1.500 . S
C368 O388 1.257 . S
C368 O389 1.260 . S
Eu369 C368 2.835 . S
Eu369 O388 2.473 . S
Eu369 O389 2.480 . S
Eu369 O390 2.430 . S
Eu369 O391 2.670 . S
Eu369 O392 2.394 . S
Eu369 O397 2.355 . S
Eu369 O399 2.374 . S
C370 C368 1.500 . S
C370 C371 1.377 . S
C370 C375 1.377 . S
C371 C370 1.377 . S
C371 C372 1.395 . S
C371 H400 0.931 . S
C372 C371 1.395 . S
C372 C373 1.383 . S
C372 H401 0.931 . S
C373 C372 1.383 . S
C373 C374 1.394 . S
C374 C373 1.394 . S
C374 C375 1.378 . S
C374 H402 0.931 . S
C375 C370 1.377 . S
C375 C374 1.378 . S
C375 H403 0.931 . S
C376 O390 1.259 . S
C376 O391 1.270 . S
C377 O392 1.251 . S
C377 O393 1.251 . S
C378 Eu379 2.835 . S
C378 C380 1.500 . S
C378 O394 1.257 . S
C378 O395 1.260 . S
Eu379 C378 2.835 . S
Eu379 O391 2.355 . S
Eu379 O393 2.374 . S
Eu379 O394 2.473 . S
Eu379 O395 2.480 . S
Eu379 O396 2.430 . S
Eu379 O397 2.670 . S
Eu379 O398 2.394 . S
C380 C378 1.500 . S
C380 C381 1.377 . S
C380 C385 1.377 . S
C381 C380 1.377 . S
C381 C382 1.395 . S
C381 H404 0.931 . S
C382 C381 1.395 . S
C382 C383 1.383 . S
C382 H405 0.931 . S
C383 C382 1.383 . S
C383 C384 1.394 . S
C384 C383 1.394 . S
C384 C385 1.378 . S
C384 H406 0.931 . S
C385 C380 1.377 . S
C385 C384 1.378 . S
C385 H407 0.931 . S
C386 O396 1.259 . S
C386 O397 1.270 . S
C387 O398 1.251 . S
C387 O399 1.251 . S
O388 C368 1.257 . S
O388 Eu369 2.473 . S
O389 C368 1.260 . S
O389 Eu369 2.480 . S
O390 Eu369 2.430 . S
O390 C376 1.259 . S
O391 Eu369 2.670 . S
O391 C376 1.270 . S
O391 Eu379 2.355 . S
O392 Eu369 2.394 . S
O392 C377 1.251 . S
O393 C377 1.251 . S
O393 Eu379 2.374 . S
O394 C378 1.257 . S
O394 Eu379 2.473 . S
O395 C378 1.260 . S
O395 Eu379 2.480 . S
O396 Eu379 2.430 . S
O396 C386 1.259 . S
O397 Eu369 2.355 . S
O397 Eu379 2.670 . S
O397 C386 1.270 . S
O398 Eu379 2.394 . S
O398 C387 1.251 . S
O399 Eu369 2.374 . S
O399 C387 1.251 . S
H400 C371 0.931 . S
H401 C372 0.931 . S
H402 C374 0.931 . S
H403 C375 0.931 . S
H404 C381 0.931 . S
H405 C382 0.931 . S
H406 C384 0.931 . S
H407 C385 0.931 . S
C408 Eu409 2.835 . S
C408 C410 1.500 . S
C408 O428 1.257 . S
C408 O429 1.260 . S
Eu409 C408 2.835 . S
Eu409 O428 2.473 . S
Eu409 O429 2.480 . S
Eu409 O430 2.430 . S
Eu409 O431 2.670 1_554 S
Eu409 O432 2.394 . S
Eu409 O437 2.355 1_554 S
Eu409 O439 2.374 1_554 S
C410 C408 1.500 . S
C410 C411 1.377 . S
C410 C415 1.377 . S
C411 C410 1.377 . S
C411 C412 1.395 . S
C411 H440 0.931 . S
C412 C411 1.395 . S
C412 C413 1.383 . S
C412 H441 0.931 . S
C413 C412 1.383 . S
C413 C414 1.394 . S
C414 C413 1.394 . S
C414 C415 1.378 . S
C414 H442 0.931 . S
C415 C410 1.377 . S
C415 C414 1.378 . S
C415 H443 0.931 . S
C416 O430 1.259 . S
C416 O431 1.270 1_554 S
C417 O432 1.251 . S
C417 O433 1.251 1_554 S
C418 Eu419 2.835 . S
C418 C420 1.500 . S
C418 O434 1.257 . S
C418 O435 1.260 . S
Eu419 C418 2.835 . S
Eu419 O431 2.355 . S
Eu419 O433 2.374 . S
Eu419 O434 2.473 . S
Eu419 O435 2.480 . S
Eu419 O436 2.430 . S
Eu419 O437 2.670 . S
Eu419 O438 2.394 . S
C420 C418 1.500 . S
C420 C421 1.377 . S
C420 C425 1.377 . S
C421 C420 1.377 . S
C421 C422 1.395 . S
C421 H444 0.931 . S
C422 C421 1.395 . S
C422 C423 1.383 . S
C422 H445 0.931 . S
C423 C422 1.383 . S
C423 C424 1.394 . S
C424 C423 1.394 . S
C424 C425 1.378 . S
C424 H446 0.931 . S
C425 C420 1.377 . S
C425 C424 1.378 . S
C425 H447 0.931 . S
C426 O436 1.259 . S
C426 O437 1.270 . S
C427 O438 1.251 . S
C427 O439 1.251 . S
O428 C408 1.257 . S
O428 Eu409 2.473 . S
O429 C408 1.260 . S
O429 Eu409 2.480 . S
O430 Eu409 2.430 . S
O430 C416 1.259 . S
O431 Eu409 2.670 1_556 S
O431 C416 1.270 1_556 S
O431 Eu419 2.355 . S
O432 Eu409 2.394 . S
O432 C417 1.251 . S
O433 C417 1.251 1_556 S
O433 Eu419 2.374 . S
O434 C418 1.257 . S
O434 Eu419 2.473 . S
O435 C418 1.260 . S
O435 Eu419 2.480 . S
O436 Eu419 2.430 . S
O436 C426 1.259 . S
O437 Eu409 2.355 1_556 S
O437 Eu419 2.670 . S
O437 C426 1.270 . S
O438 Eu419 2.394 . S
O438 C427 1.251 . S
O439 Eu409 2.374 1_556 S
O439 C427 1.251 . S
H440 C411 0.931 . S
H441 C412 0.931 . S
H442 C414 0.931 . S
H443 C415 0.931 . S
H444 C421 0.931 . S
H445 C422 0.931 . S
H446 C424 0.931 . S
H447 C425 0.931 . S
C448 Eu449 2.835 . S
C448 C450 1.500 1_554 S
C448 O468 1.257 . S
C448 O469 1.260 . S
Eu449 C448 2.835 . S
Eu449 O468 2.473 . S
Eu449 O469 2.480 . S
Eu449 O470 2.430 1_544 S
Eu449 O471 2.670 1_554 S
Eu449 O472 2.394 1_554 S
Eu449 O477 2.355 . S
Eu449 O479 2.374 . S
C450 C448 1.500 1_556 S
C450 C451 1.377 . S
C450 C455 1.377 . S
C451 C450 1.377 . S
C451 C452 1.395 . S
C451 H480 0.931 . S
C452 C451 1.395 . S
C452 C453 1.383 . S
C452 H481 0.931 . S
C453 C452 1.383 . S
C453 C454 1.394 . S
C454 C453 1.394 . S
C454 C455 1.378 . S
C454 H482 0.931 . S
C455 C450 1.377 . S
C455 C454 1.378 . S
C455 H483 0.932 . S
C456 O470 1.259 . S
C456 O471 1.270 1_565 S
C457 O472 1.251 . S
C457 O473 1.251 . S
C458 Eu459 2.835 . S
C458 C460 1.515 1_556 S
C458 O474 1.258 . S
C458 O475 1.260 . S
Eu459 C458 2.835 . S
Eu459 O471 2.355 . S
Eu459 O473 2.374 . S
Eu459 O474 2.475 . S
Eu459 O475 2.480 . S
Eu459 O476 2.430 1_556 S
Eu459 O477 2.670 1_556 S
Eu459 O478 2.394 1_556 S
C460 C458 1.515 1_554 S
C460 C461 1.389 . S
C460 C465 1.351 1_545 S
C461 C460 1.389 . S
C461 C462 1.395 . S
C461 H484 0.931 . S
C462 C461 1.395 . S
C462 C463 1.383 1_545 S
C462 H485 0.931 . S
C463 C462 1.383 1_565 S
C463 C464 1.394 . S
C464 C463 1.394 . S
C464 C465 1.378 . S
C464 H486 0.931 . S
C465 C460 1.351 1_565 S
C465 C464 1.378 . S
C465 H487 0.931 . S
C466 O476 1.259 . S
C466 O477 1.270 . S
C467 O478 1.251 . S
C467 O479 1.251 . S
O468 C448 1.257 . S
O468 Eu449 2.473 . S
O469 C448 1.260 . S
O469 Eu449 2.480 . S
O470 Eu449 2.430 1_566 S
O470 C456 1.259 . S
O471 Eu449 2.670 1_556 S
O471 C456 1.270 1_545 S
O471 Eu459 2.355 . S
O472 Eu449 2.394 1_556 S
O472 C457 1.251 . S
O473 C457 1.251 . S
O473 Eu459 2.374 . S
O474 C458 1.258 . S
O474 Eu459 2.475 . S
O475 C458 1.260 . S
O475 Eu459 2.480 . S
O476 Eu459 2.430 1_554 S
O476 C466 1.259 . S
O477 Eu449 2.355 . S
O477 Eu459 2.670 1_554 S
O477 C466 1.270 . S
O478 Eu459 2.394 1_554 S
O478 C467 1.251 . S
O479 Eu449 2.374 . S
O479 C467 1.251 . S
H480 C451 0.931 . S
H481 C452 0.931 . S
H482 C454 0.931 . S
H483 C455 0.932 . S
H484 C461 0.931 . S
H485 C462 0.931 . S
H486 C464 0.931 . S
H487 C465 0.931 . S
C488 C489 1.363 . S
C488 C494 1.379 . S
C488 N496 1.356 . S
C489 C488 1.363 . S
C489 C495 1.363 . S
C490 C491 1.363 . S
C490 C495 1.379 . S
C490 N497 1.356 . S
C491 C490 1.363 . S
C491 C494 1.363 . S
N492 C494 1.356 . S
N492 H504 0.984 1_455 S
N492 H505 0.985 . S
N493 C495 1.356 . S
N493 H498 0.984 . S
N493 H499 0.985 . S
C494 C488 1.379 . S
C494 C491 1.363 . S
C494 N492 1.356 . S
C495 C489 1.363 . S
C495 C490 1.379 . S
C495 N493 1.356 . S
N496 C488 1.356 . S
N496 H502 0.984 1_455 S
N496 H503 0.984 . S
N497 C490 1.356 . S
N497 H500 0.984 . S
N497 H501 0.985 . S
H498 N493 0.984 . S
H499 N493 0.985 . S
H500 N497 0.984 . S
H501 N497 0.985 . S
H502 N496 0.984 1_655 S
H503 N496 0.984 . S
H504 N492 0.984 1_655 S
H505 N492 0.985 . S
C506 C507 1.363 . S
C506 C512 1.379 . S
C506 N514 1.356 . S
C507 C506 1.363 . S
C507 C513 1.363 . S
C508 C509 1.363 . S
C508 C513 1.379 . S
C508 N515 1.356 . S
C509 C508 1.363 . S
C509 C512 1.363 . S
N510 C512 1.356 . S
N510 H522 0.984 . S
N510 H523 0.985 . S
N511 C513 1.356 1_655 S
N511 H516 0.984 . S
N511 H517 0.985 . S
C512 C506 1.379 . S
C512 C509 1.363 . S
C512 N510 1.356 . S
C513 C507 1.363 . S
C513 C508 1.379 . S
C513 N511 1.356 1_455 S
N514 C506 1.356 . S
N514 H520 0.984 . S
N514 H521 0.984 . S
N515 C508 1.356 . S
N515 H518 0.984 . S
N515 H519 0.985 1_455 S
H516 N511 0.984 . S
H517 N511 0.985 . S
H518 N515 0.984 . S
H519 N515 0.985 1_655 S
H520 N514 0.984 . S
H521 N514 0.984 . S
H522 N510 0.984 . S
H523 N510 0.985 . S
C524 C525 1.363 1_655 S
C524 C530 1.379 . S
C524 N532 1.356 . S
C525 C524 1.363 1_455 S
C525 C531 1.363 . S
C526 C527 1.363 . S
C526 C531 1.379 . S
C526 N533 1.356 . S
C527 C526 1.363 . S
C527 C530 1.363 1_455 S
N528 C530 1.356 . S
N528 H540 0.984 . S
N528 H541 0.985 . S
N529 C531 1.356 . S
N529 H534 0.984 . S
N529 H535 0.985 . S
C530 C524 1.379 . S
C530 C527 1.363 1_655 S
C530 N528 1.356 . S
C531 C525 1.363 . S
C531 C526 1.379 . S
C531 N529 1.356 . S
N532 C524 1.356 . S
N532 H538 0.984 . S
N532 H539 0.984 . S
N533 C526 1.356 . S
N533 H536 0.984 . S
N533 H537 0.985 . S
H534 N529 0.984 . S
H535 N529 0.985 . S
H536 N533 0.984 . S
H537 N533 0.985 . S
H538 N532 0.984 . S
H539 N532 0.984 . S
H540 N528 0.984 . S
H541 N528 0.985 . S
C542 C543 1.363 . S
C542 C548 1.379 . S
C542 N550 1.356 . S
C543 C542 1.363 . S
C543 C549 1.363 1_655 S
C544 C545 1.363 1_455 S
C544 C549 1.379 . S
C544 N551 1.356 . S
C545 C544 1.363 1_655 S
C545 C548 1.363 . S
N546 C548 1.356 . S
N546 H558 0.984 . S
N546 H559 0.985 . S
N547 C549 1.356 . S
N547 H552 0.984 . S
N547 H553 0.985 . S
C548 C542 1.379 . S
C548 C545 1.363 . S
C548 N546 1.356 . S
C549 C543 1.363 1_455 S
C549 C544 1.379 . S
C549 N547 1.356 . S
N550 C542 1.356 . S
N550 H556 0.984 . S
N550 H557 0.984 . S
N551 C544 1.356 . S
N551 H554 0.984 . S
N551 H555 0.985 . S
H552 N547 0.984 . S
H553 N547 0.985 . S
H554 N551 0.984 . S
H555 N551 0.985 . S
H556 N550 0.984 . S
H557 N550 0.984 . S
H558 N546 0.984 . S
H559 N546 0.985 . S
C560 C561 1.363 1_565 S
C560 C566 1.379 . S
C560 N568 1.356 . S
C561 C560 1.363 1_545 S
C561 C567 1.363 . S
C562 C563 1.363 . S
C562 C567 1.379 . S
C562 N569 1.356 . S
C563 C562 1.363 . S
C563 C566 1.363 1_545 S
N564 C566 1.356 . S
N564 H576 0.984 . S
N564 H577 0.985 . S
N565 C567 1.356 . S
N565 H570 0.984 . S
N565 H571 0.985 . S
C566 C560 1.379 . S
C566 C563 1.363 1_565 S
C566 N564 1.356 . S
C567 C561 1.363 . S
C567 C562 1.379 . S
C567 N565 1.356 . S
N568 C560 1.356 . S
N568 H574 0.984 . S
N568 H575 0.984 . S
N569 C562 1.356 . S
N569 H572 0.984 . S
N569 H573 0.985 . S
H570 N565 0.984 . S
H571 N565 0.985 . S
H572 N569 0.984 . S
H573 N569 0.985 . S
H574 N568 0.984 . S
H575 N568 0.984 . S
H576 N564 0.984 . S
H577 N564 0.985 . S
C578 C579 1.363 . S
C578 C584 1.379 . S
C578 N586 1.356 . S
C579 C578 1.363 . S
C579 C585 1.363 . S
C580 C581 1.363 . S
C580 C585 1.379 . S
C580 N587 1.356 . S
C581 C580 1.363 . S
C581 C584 1.363 . S
N582 C584 1.356 . S
N582 H594 0.984 . S
N582 H595 0.985 . S
N583 C585 1.356 . S
N583 H588 0.984 . S
N583 H589 0.985 . S
C584 C578 1.379 . S
C584 C581 1.363 . S
C584 N582 1.356 . S
C585 C579 1.363 . S
C585 C580 1.379 . S
C585 N583 1.356 . S
N586 C578 1.356 . S
N586 H592 0.984 . S
N586 H593 0.984 . S
N587 C580 1.356 . S
N587 H590 0.984 . S
N587 H591 0.985 . S
H588 N583 0.984 . S
H589 N583 0.985 . S
H590 N587 0.984 . S
H591 N587 0.985 . S
H592 N586 0.984 . S
H593 N586 0.984 . S
H594 N582 0.984 . S
H595 N582 0.985 . S
C596 C597 1.363 . S
C596 C602 1.379 . S
C596 N604 1.356 . S
C597 C596 1.363 . S
C597 C603 1.363 . S
C598 C599 1.363 . S
C598 C603 1.379 . S
C598 N605 1.356 . S
C599 C598 1.363 . S
C599 C602 1.363 . S
N600 C602 1.356 . S
N600 H612 0.984 . S
N600 H613 0.985 . S
N601 C603 1.356 1_565 S
N601 H606 0.984 . S
N601 H607 0.985 . S
C602 C596 1.379 . S
C602 C599 1.363 . S
C602 N600 1.356 . S
C603 C597 1.363 . S
C603 C598 1.379 . S
C603 N601 1.356 1_545 S
N604 C596 1.356 . S
N604 H610 0.984 . S
N604 H611 0.984 . S
N605 C598 1.356 . S
N605 H608 0.984 . S
N605 H609 0.985 . S
H606 N601 0.984 . S
H607 N601 0.985 . S
H608 N605 0.984 . S
H609 N605 0.985 . S
H610 N604 0.984 . S
H611 N604 0.984 . S
H612 N600 0.984 . S
H613 N600 0.985 . S
C614 C615 1.363 . S
C614 C620 1.379 . S
C614 N622 1.356 . S
C615 C614 1.363 . S
C615 C621 1.363 . S
C616 C617 1.363 . S
C616 C621 1.379 . S
C616 N623 1.356 . S
C617 C616 1.363 . S
C617 C620 1.363 . S
N618 C620 1.356 . S
N618 H630 0.984 . S
N618 H631 0.985 . S
N619 C621 1.356 . S
N619 H624 0.984 . S
N619 H625 0.985 . S
C620 C614 1.379 . S
C620 C617 1.363 . S
C620 N618 1.356 . S
C621 C615 1.363 . S
C621 C616 1.379 . S
C621 N619 1.356 . S
N622 C614 1.356 . S
N622 H628 0.984 . S
N622 H629 0.984 . S
N623 C616 1.356 . S
N623 H626 0.984 . S
N623 H627 0.985 . S
H624 N619 0.984 . S
H625 N619 0.985 . S
H626 N623 0.984 . S
H627 N623 0.985 . S
H628 N622 0.984 . S
H629 N622 0.984 . S
H630 N618 0.984 . S
H631 N618 0.985 . S
C632 C633 1.361 1_554 S
C632 C638 1.379 . S
C632 N640 1.356 . S
C633 C632 1.361 1_556 S
C633 C639 1.368 . S
C634 C635 1.363 . S
C634 C639 1.379 . S
C634 N641 1.356 . S
C635 C634 1.363 . S
C635 C638 1.363 1_556 S
N636 C638 1.356 . S
N636 H648 0.984 . S
N636 H649 0.973 1_554 S
N637 C639 1.356 . S
N637 H642 0.984 . S
N637 H643 0.985 . S
C638 C632 1.379 . S
C638 C635 1.363 1_554 S
C638 N636 1.356 . S
C639 C633 1.368 . S
C639 C634 1.379 . S
C639 N637 1.356 . S
N640 C632 1.356 . S
N640 H646 0.984 . S
N640 H647 0.984 . S
N641 C634 1.356 . S
N641 H644 0.984 . S
N641 H645 0.985 . S
H642 N637 0.984 . S
H643 N637 0.985 . S
H644 N641 0.984 . S
H645 N641 0.985 . S
H646 N640 0.984 . S
H647 N640 0.984 . S
H648 N636 0.984 . S
H649 N636 0.973 1_556 S
C650 C651 1.363 . S
C650 C656 1.379 . S
C650 N658 1.356 . S
C651 C650 1.363 . S
C651 C657 1.363 . S
C652 C653 1.363 . S
C652 C657 1.379 . S
C652 N659 1.356 . S
C653 C652 1.363 . S
C653 C656 1.363 . S
N654 C656 1.356 . S
N654 H666 0.984 . S
N654 H667 0.985 . S
N655 C657 1.356 . S
N655 H660 0.984 . S
N655 H661 0.985 . S
C656 C650 1.379 . S
C656 C653 1.363 . S
C656 N654 1.356 . S
C657 C651 1.363 . S
C657 C652 1.379 . S
C657 N655 1.356 . S
N658 C650 1.356 . S
N658 H664 0.984 . S
N658 H665 0.984 . S
N659 C652 1.356 . S
N659 H662 0.984 . S
N659 H663 0.985 . S
H660 N655 0.984 . S
H661 N655 0.985 . S
H662 N659 0.984 . S
H663 N659 0.985 . S
H664 N658 0.984 . S
H665 N658 0.984 . S
H666 N654 0.984 . S
H667 N654 0.985 . S
C668 C669 1.363 . S
C668 C674 1.379 1_655 S
C668 N676 1.356 . S
C669 C668 1.363 . S
C669 C675 1.363 . S
C670 C671 1.363 . S
C670 C675 1.379 . S
C670 N677 1.356 . S
C671 C670 1.363 . S
C671 C674 1.363 1_655 S
N672 C674 1.356 . S
N672 H684 0.984 . S
N672 H685 0.985 . S
N673 C675 1.356 . S
N673 H678 0.984 . S
N673 H679 0.985 . S
C674 C668 1.379 1_455 S
C674 C671 1.363 1_455 S
C674 N672 1.356 . S
C675 C669 1.363 . S
C675 C670 1.379 . S
C675 N673 1.356 . S
N676 C668 1.356 . S
N676 H682 0.984 1_655 S
N676 H683 0.984 . S
N677 C670 1.356 . S
N677 H680 0.984 . S
N677 H681 0.985 . S
H678 N673 0.984 . S
H679 N673 0.985 . S
H680 N677 0.984 . S
H681 N677 0.985 . S
H682 N676 0.984 1_455 S
H683 N676 0.984 . S
H684 N672 0.984 . S
H685 N672 0.985 . S
C686 C687 1.363 . S
C686 C692 1.379 . S
C686 N694 1.356 . S
C687 C686 1.363 . S
C687 C693 1.363 . S
C688 C689 1.363 . S
C688 C693 1.379 . S
C688 N695 1.356 . S
C689 C688 1.363 . S
C689 C692 1.363 . S
N690 C692 1.356 . S
N690 H702 0.984 . S
N690 H703 0.985 . S
N691 C693 1.356 . S
N691 H696 0.984 . S
N691 H697 0.985 . S
C692 C686 1.379 . S
C692 C689 1.363 . S
C692 N690 1.356 . S
C693 C687 1.363 . S
C693 C688 1.379 . S
C693 N691 1.356 . S
N694 C686 1.356 . S
N694 H700 0.984 . S
N694 H701 0.984 . S
N695 C688 1.356 . S
N695 H698 0.984 . S
N695 H699 0.985 . S
H696 N691 0.984 . S
H697 N691 0.985 . S
H698 N695 0.984 . S
H699 N695 0.985 . S
H700 N694 0.984 . S
H701 N694 0.984 . S
H702 N690 0.984 . S
H703 N690 0.985 . S
C704 C705 1.363 . S
C704 C710 1.379 . S
C704 N712 1.356 . S
C705 C704 1.363 . S
C705 C711 1.363 . S
C706 C707 1.363 . S
C706 C711 1.379 . S
C706 N713 1.356 . S
C707 C706 1.363 . S
C707 C710 1.363 . S
N708 C710 1.356 . S
N708 H720 0.984 . S
N708 H721 0.985 . S
N709 C711 1.356 . S
N709 H714 0.984 . S
N709 H715 0.985 . S
C710 C704 1.379 . S
C710 C707 1.363 . S
C710 N708 1.356 . S
C711 C705 1.363 . S
C711 C706 1.379 . S
C711 N709 1.356 . S
N712 C704 1.356 . S
N712 H718 0.984 . S
N712 H719 0.984 . S
N713 C706 1.356 . S
N713 H716 0.984 . S
N713 H717 0.985 . S
H714 N709 0.984 . S
H715 N709 0.985 . S
H716 N713 0.984 . S
H717 N713 0.985 . S
H718 N712 0.984 . S
H719 N712 0.984 . S
H720 N708 0.984 . S
H721 N708 0.985 . S
C722 C723 1.363 . S
C722 C728 1.379 . S
C722 N730 1.356 . S
C723 C722 1.363 . S
C723 C729 1.363 . S
C724 C725 1.363 . S
C724 C729 1.379 . S
C724 N731 1.356 . S
C725 C724 1.363 . S
C725 C728 1.363 . S
N726 C728 1.356 . S
N726 H738 0.984 . S
N726 H739 0.985 . S
N727 C729 1.356 . S
N727 H732 0.984 . S
N727 H733 0.985 . S
C728 C722 1.379 . S
C728 C725 1.363 . S
C728 N726 1.356 . S
C729 C723 1.363 . S
C729 C724 1.379 . S
C729 N727 1.356 . S
N730 C722 1.356 . S
N730 H736 0.984 . S
N730 H737 0.984 . S
N731 C724 1.356 . S
N731 H734 0.984 . S
N731 H735 0.985 . S
H732 N727 0.984 . S
H733 N727 0.985 . S
H734 N731 0.984 . S
H735 N731 0.985 . S
H736 N730 0.984 . S
H737 N730 0.984 . S
H738 N726 0.984 . S
H739 N726 0.985 . S
C740 C741 1.363 . S
C740 C746 1.379 . S
C740 N748 1.356 . S
C741 C740 1.363 . S
C741 C747 1.363 . S
C742 C743 1.363 . S
C742 C747 1.379 . S
C742 N749 1.356 . S
C743 C742 1.363 . S
C743 C746 1.363 . S
N744 C746 1.356 . S
N744 H756 0.984 . S
N744 H757 0.985 . S
N745 C747 1.356 . S
N745 H750 0.984 . S
N745 H751 0.985 . S
C746 C740 1.379 . S
C746 C743 1.363 . S
C746 N744 1.356 . S
C747 C741 1.363 . S
C747 C742 1.379 . S
C747 N745 1.356 . S
N748 C740 1.356 . S
N748 H754 0.984 . S
N748 H755 0.984 . S
N749 C742 1.356 . S
N749 H752 0.984 . S
N749 H753 0.985 . S
H750 N745 0.984 . S
H751 N745 0.985 . S
H752 N749 0.984 . S
H753 N749 0.985 . S
H754 N748 0.984 . S
H755 N748 0.984 . S
H756 N744 0.984 . S
H757 N744 0.985 . S
C758 C759 1.363 . S
C758 C764 1.379 . S
C758 N766 1.356 . S
C759 C758 1.363 . S
C759 C765 1.363 . S
C760 C761 1.363 . S
C760 C765 1.379 . S
C760 N767 1.356 . S
C761 C760 1.363 . S
C761 C764 1.363 . S
N762 C764 1.356 . S
N762 H774 0.984 . S
N762 H775 0.985 . S
N763 C765 1.356 . S
N763 H768 0.984 . S
N763 H769 0.985 . S
C764 C758 1.379 . S
C764 C761 1.363 . S
C764 N762 1.356 . S
C765 C759 1.363 . S
C765 C760 1.379 . S
C765 N763 1.356 . S
N766 C758 1.356 . S
N766 H772 0.984 . S
N766 H773 0.984 . S
N767 C760 1.356 . S
N767 H770 0.984 . S
N767 H771 0.985 . S
H768 N763 0.984 . S
H769 N763 0.985 . S
H770 N767 0.984 . S
H771 N767 0.985 . S
H772 N766 0.984 . S
H773 N766 0.984 . S
H774 N762 0.984 . S
H775 N762 0.985 . S
C776 C777 1.363 . S
C776 C782 1.379 . S
C776 N784 1.356 . S
C777 C776 1.363 . S
C777 C783 1.363 . S
C778 C779 1.363 . S
C778 C783 1.379 . S
C778 N785 1.356 . S
C779 C778 1.363 . S
C779 C782 1.363 . S
N780 C782 1.356 . S
N780 H792 0.984 . S
N780 H793 0.985 . S
N781 C783 1.356 . S
N781 H786 0.984 . S
N781 H787 0.985 . S
C782 C776 1.379 . S
C782 C779 1.363 . S
C782 N780 1.356 . S
C783 C777 1.363 . S
C783 C778 1.379 . S
C783 N781 1.356 . S
N784 C776 1.356 . S
N784 H790 0.984 . S
N784 H791 0.984 . S
N785 C778 1.356 . S
N785 H788 0.984 . S
N785 H789 0.985 . S
H786 N781 0.984 . S
H787 N781 0.985 . S
H788 N785 0.984 . S
H789 N785 0.985 . S
H790 N784 0.984 . S
H791 N784 0.984 . S
H792 N780 0.984 . S
H793 N780 0.985 . S
C794 C795 1.363 1_565 S
C794 C800 1.379 . S
C794 N802 1.356 . S
C795 C794 1.363 1_545 S
C795 C801 1.363 . S
C796 C797 1.363 . S
C796 C801 1.379 . S
C796 N803 1.356 . S
C797 C796 1.363 . S
C797 C800 1.363 1_545 S
N798 C800 1.356 . S
N798 H810 0.984 . S
N798 H811 0.985 . S
N799 C801 1.356 . S
N799 H804 0.984 . S
N799 H805 0.985 . S
C800 C794 1.379 . S
C800 C797 1.363 1_565 S
C800 N798 1.356 . S
C801 C795 1.363 . S
C801 C796 1.379 . S
C801 N799 1.356 . S
N802 C794 1.356 . S
N802 H808 0.984 . S
N802 H809 0.984 . S
N803 C796 1.356 . S
N803 H806 0.984 . S
N803 H807 0.985 . S
H804 N799 0.984 . S
H805 N799 0.985 . S
H806 N803 0.984 . S
H807 N803 0.985 . S
H808 N802 0.984 . S
H809 N802 0.984 . S
H810 N798 0.984 . S
H811 N798 0.985 . S
C812 C813 1.363 . S
C812 C818 1.379 . S
C812 N820 1.356 . S
C813 C812 1.363 . S
C813 C819 1.363 . S
C814 C815 1.363 . S
C814 C819 1.379 . S
C814 N821 1.356 1_556 S
C815 C814 1.363 . S
C815 C818 1.363 . S
N816 C818 1.356 . S
N816 H828 0.984 . S
N816 H829 0.985 . S
N817 C819 1.356 . S
N817 H822 0.984 . S
N817 H823 0.985 . S
C818 C812 1.379 . S
C818 C815 1.363 . S
C818 N816 1.356 . S
C819 C813 1.363 . S
C819 C814 1.379 . S
C819 N817 1.356 . S
N820 C812 1.356 . S
N820 H826 0.984 . S
N820 H827 0.984 . S
N821 C814 1.356 1_554 S
N821 H824 0.984 . S
N821 H825 0.985 . S
H822 N817 0.984 . S
H823 N817 0.985 . S
H824 N821 0.984 . S
H825 N821 0.985 . S
H826 N820 0.984 . S
H827 N820 0.984 . S
H828 N816 0.984 . S
H829 N816 0.985 . S
C830 C831 1.363 . S
C830 C836 1.379 1_556 S
C830 N838 1.356 1_545 S
C831 C830 1.363 . S
C831 C837 1.363 . S
C832 C833 1.363 1_556 S
C832 C837 1.379 . S
C832 N839 1.356 1_556 S
C833 C832 1.363 1_554 S
C833 C836 1.363 . S
N834 C836 1.356 . S
N834 H846 0.984 . S
N834 H847 0.985 . S
N835 C837 1.356 . S
N835 H840 0.984 . S
N835 H841 0.985 . S
C836 C830 1.379 1_554 S
C836 C833 1.363 . S
C836 N834 1.356 . S
C837 C831 1.363 . S
C837 C832 1.379 . S
C837 N835 1.356 . S
N838 C830 1.356 1_565 S
N838 H844 0.984 . S
N838 H845 0.984 . S
N839 C832 1.356 1_554 S
N839 H842 0.984 . S
N839 H843 0.985 . S
H840 N835 0.984 . S
H841 N835 0.985 . S
H842 N839 0.984 . S
H843 N839 0.985 . S
H844 N838 0.984 . S
H845 N838 0.984 . S
H846 N834 0.984 . S
H847 N834 0.985 . S
C848 C849 1.363 . S
C848 C854 1.379 . S
C848 N856 1.356 . S
C849 C848 1.363 . S
C849 C855 1.363 . S
C850 C851 1.363 . S
C850 C855 1.379 . S
C850 N857 1.356 . S
C851 C850 1.363 . S
C851 C854 1.363 . S
N852 C854 1.356 . S
N852 H864 0.984 . S
N852 H865 0.985 . S
N853 C855 1.356 . S
N853 H858 0.984 . S
N853 H859 0.985 . S
C854 C848 1.379 . S
C854 C851 1.363 . S
C854 N852 1.356 . S
C855 C849 1.363 . S
C855 C850 1.379 . S
C855 N853 1.356 . S
N856 C848 1.356 . S
N856 H862 0.984 . S
N856 H863 0.984 . S
N857 C850 1.356 . S
N857 H860 0.984 . S
N857 H861 0.985 . S
H858 N853 0.984 . S
H859 N853 0.985 . S
H860 N857 0.984 . S
H861 N857 0.985 . S
H862 N856 0.984 . S
H863 N856 0.984 . S
H864 N852 0.984 . S
H865 N852 0.985 . S
C866 C867 1.363 . S
C866 C872 1.379 . S
C866 N874 1.356 . S
C867 C866 1.363 . S
C867 C873 1.363 1_556 S
C868 C869 1.363 1_554 S
C868 C873 1.379 . S
C868 N875 1.356 . S
C869 C868 1.363 1_556 S
C869 C872 1.363 . S
N870 C872 1.356 . S
N870 H882 0.984 . S
N870 H883 0.985 . S
N871 C873 1.356 . S
N871 H876 0.984 . S
N871 H877 0.985 . S
C872 C866 1.379 . S
C872 C869 1.363 . S
C872 N870 1.356 . S
C873 C867 1.363 1_554 S
C873 C868 1.379 . S
C873 N871 1.356 . S
N874 C866 1.356 . S
N874 H880 0.984 . S
N874 H881 0.984 . S
N875 C868 1.356 . S
N875 H878 0.984 . S
N875 H879 0.985 . S
H876 N871 0.984 . S
H877 N871 0.985 . S
H878 N875 0.984 . S
H879 N875 0.985 . S
H880 N874 0.984 . S
H881 N874 0.984 . S
H882 N870 0.984 . S
H883 N870 0.985 . S
C884 C885 1.363 1_554 S
C884 C890 1.379 . S
C884 N892 1.356 . S
C885 C884 1.363 1_556 S
C885 C891 1.363 . S
C886 C887 1.363 1_556 S
C886 C891 1.379 . S
C886 N893 1.356 . S
C887 C886 1.363 1_554 S
C887 C890 1.363 . S
N888 C890 1.356 . S
N888 H900 0.984 . S
N888 H901 0.985 . S
N889 C891 1.356 . S
N889 H894 0.984 . S
N889 H895 0.985 . S
C890 C884 1.379 . S
C890 C887 1.363 . S
C890 N888 1.356 . S
C891 C885 1.363 . S
C891 C886 1.379 . S
C891 N889 1.356 . S
N892 C884 1.356 . S
N892 H898 0.984 . S
N892 H899 0.984 . S
N893 C886 1.356 . S
N893 H896 0.984 . S
N893 H897 0.985 . S
H894 N889 0.984 . S
H895 N889 0.985 . S
H896 N893 0.984 . S
H897 N893 0.985 . S
H898 N892 0.984 . S
H899 N892 0.984 . S
H900 N888 0.984 . S
H901 N888 0.985 . S
C902 C903 1.363 . S
C902 C908 1.379 . S
C902 N910 1.356 . S
C903 C902 1.363 . S
C903 C909 1.363 . S
C904 C905 1.363 . S
C904 C909 1.379 1_455 S
C904 N911 1.352 1_554 S
C905 C904 1.363 . S
C905 C908 1.363 1_455 S
N906 C908 1.356 1_455 S
N906 H918 0.984 1_455 S
N906 H919 0.985 . S
N907 C909 1.356 1_556 S
N907 H912 0.984 . S
N907 H913 0.985 . S
C908 C902 1.379 . S
C908 C905 1.363 1_655 S
C908 N906 1.356 1_655 S
C909 C903 1.363 . S
C909 C904 1.379 1_655 S
C909 N907 1.356 1_554 S
N910 C902 1.356 . S
N910 H916 0.984 . S
N910 H917 0.984 . S
N911 C904 1.352 1_556 S
N911 H914 0.978 1_556 S
N911 H915 0.995 . S
H912 N907 0.984 . S
H913 N907 0.985 . S
H914 N911 0.978 1_554 S
H915 N911 0.995 . S
H916 N910 0.984 . S
H917 N910 0.984 . S
H918 N906 0.984 1_655 S
H919 N906 0.985 . S
C920 C921 1.363 . S
C920 C926 1.379 . S
C920 N928 1.356 . S
C921 C920 1.363 . S
C921 C927 1.363 . S
C922 C923 1.363 . S
C922 C927 1.379 . S
C922 N929 1.356 . S
C923 C922 1.363 . S
C923 C926 1.363 . S
N924 C926 1.356 . S
N924 H936 0.984 . S
N924 H937 0.985 . S
N925 C927 1.356 . S
N925 H930 0.984 . S
N925 H931 0.985 . S
C926 C920 1.379 . S
C926 C923 1.363 . S
C926 N924 1.356 . S
C927 C921 1.363 . S
C927 C922 1.379 . S
C927 N925 1.356 . S
N928 C920 1.356 . S
N928 H934 0.984 1_455 S
N928 H935 0.984 . S
N929 C922 1.356 . S
N929 H932 0.984 . S
N929 H933 0.985 . S
H930 N925 0.984 . S
H931 N925 0.985 . S
H932 N929 0.984 . S
H933 N929 0.985 . S
H934 N928 0.984 1_655 S
H935 N928 0.984 . S
H936 N924 0.984 . S
H937 N924 0.985 . S
C938 C939 1.363 . S
C938 C944 1.379 . S
C938 N946 1.356 . S
C939 C938 1.363 . S
C939 C945 1.363 1_455 S
C940 C941 1.363 1_655 S
C940 C945 1.379 . S
C940 N947 1.356 . S
C941 C940 1.363 1_455 S
C941 C944 1.363 . S
N942 C944 1.356 . S
N942 H954 0.984 . S
N942 H955 0.985 . S
N943 C945 1.356 . S
N943 H948 0.984 . S
N943 H949 0.985 . S
C944 C938 1.379 . S
C944 C941 1.363 . S
C944 N942 1.356 . S
C945 C939 1.363 1_655 S
C945 C940 1.379 . S
C945 N943 1.356 . S
N946 C938 1.356 . S
N946 H952 0.984 . S
N946 H953 0.984 . S
N947 C940 1.356 . S
N947 H950 0.984 . S
N947 H951 0.985 . S
H948 N943 0.984 . S
H949 N943 0.985 . S
H950 N947 0.984 . S
H951 N947 0.985 . S
H952 N946 0.984 . S
H953 N946 0.984 . S
H954 N942 0.984 . S
H955 N942 0.985 . S
C956 C957 1.363 1_655 S
C956 C962 1.379 . S
C956 N964 1.356 . S
C957 C956 1.363 1_455 S
C957 C963 1.363 . S
C958 C959 1.363 . S
C958 C963 1.379 . S
C958 N965 1.356 . S
C959 C958 1.363 . S
C959 C962 1.363 1_455 S
N960 C962 1.356 . S
N960 H972 0.984 . S
N960 H973 0.985 . S
N961 C963 1.356 . S
N961 H966 0.984 . S
N961 H967 0.985 . S
C962 C956 1.379 . S
C962 C959 1.363 1_655 S
C962 N960 1.356 . S
C963 C957 1.363 . S
C963 C958 1.379 . S
C963 N961 1.356 . S
N964 C956 1.356 . S
N964 H970 0.984 . S
N964 H971 0.984 . S
N965 C958 1.356 . S
N965 H968 0.984 . S
N965 H969 0.985 . S
H966 N961 0.984 . S
H967 N961 0.985 . S
H968 N965 0.984 . S
H969 N965 0.985 . S
H970 N964 0.984 . S
H971 N964 0.984 . S
H972 N960 0.984 . S
H973 N960 0.985 . S
C974 C975 1.363 1_655 S
C974 C980 1.379 1_655 S
C974 N982 1.356 . S
C975 C974 1.363 1_455 S
C975 C981 1.363 . S
C976 C977 1.363 . S
C976 C981 1.379 . S
C976 N983 1.356 . S
C977 C976 1.363 . S
C977 C980 1.363 . S
N978 C980 1.356 . S
N978 H990 0.984 1_455 S
N978 H991 0.985 . S
N979 C981 1.356 . S
N979 H984 0.984 . S
N979 H985 0.985 . S
C980 C974 1.379 1_455 S
C980 C977 1.363 . S
C980 N978 1.356 . S
C981 C975 1.363 . S
C981 C976 1.379 . S
C981 N979 1.356 . S
N982 C974 1.356 . S
N982 H988 0.984 . S
N982 H989 0.984 . S
N983 C976 1.356 . S
N983 H986 0.984 . S
N983 H987 0.985 . S
H984 N979 0.984 . S
H985 N979 0.985 . S
H986 N983 0.984 . S
H987 N983 0.985 . S
H988 N982 0.984 . S
H989 N982 0.984 . S
H990 N978 0.984 1_655 S
H991 N978 0.985 . S
C992 C993 1.363 1_565 S
C992 C998 1.379 1_565 S
C992 N1000 1.356 . S
C993 C992 1.363 1_545 S
C993 C999 1.363 . S
C994 C995 1.363 . S
C994 C999 1.379 . S
C994 N1001 1.356 . S
C995 C994 1.363 . S
C995 C998 1.366 . S
N996 C998 1.354 1_565 S
N996 H1008 0.984 . S
N996 H1009 0.985 . S
N997 C999 1.356 . S
N997 H1002 0.984 . S
N997 H1003 0.985 . S
C998 C992 1.379 1_545 S
C998 C995 1.366 . S
C998 N996 1.354 1_545 S
C999 C993 1.363 . S
C999 C994 1.379 . S
C999 N997 1.356 . S
N1000 C992 1.356 . S
N1000 H1006 0.984 . S
N1000 H1007 0.984 . S
N1001 C994 1.356 . S
N1001 H1004 0.984 . S
N1001 H1005 0.985 . S
H1002 N997 0.984 . S
H1003 N997 0.985 . S
H1004 N1001 0.984 . S
H1005 N1001 0.985 . S
H1006 N1000 0.984 . S
H1007 N1000 0.984 . S
H1008 N996 0.984 . S
H1009 N996 0.985 . S
C1010 C1011 1.363 . S
C1010 C1016 1.379 . S
C1010 N1018 1.356 . S
C1011 C1010 1.363 . S
C1011 C1017 1.363 . S
C1012 C1013 1.363 . S
C1012 C1017 1.379 . S
C1012 N1019 1.356 . S
C1013 C1012 1.363 . S
C1013 C1016 1.363 . S
N1014 C1016 1.356 . S
N1014 H1026 0.984 . S
N1014 H1027 0.985 . S
N1015 C1017 1.356 . S
N1015 H1020 0.984 . S
N1015 H1021 0.985 . S
C1016 C1010 1.379 . S
C1016 C1013 1.363 . S
C1016 N1014 1.356 . S
C1017 C1011 1.363 . S
C1017 C1012 1.379 . S
C1017 N1015 1.356 . S
N1018 C1010 1.356 . S
N1018 H1024 0.984 . S
N1018 H1025 0.984 . S
N1019 C1012 1.356 . S
N1019 H1022 0.984 . S
N1019 H1023 0.985 . S
H1020 N1015 0.984 . S
H1021 N1015 0.985 . S
H1022 N1019 0.984 . S
H1023 N1019 0.985 . S
H1024 N1018 0.984 . S
H1025 N1018 0.984 . S
H1026 N1014 0.984 . S
H1027 N1014 0.985 . S
C1028 C1029 1.363 1_545 S
C1028 C1034 1.379 . S
C1028 N1036 1.356 . S
C1029 C1028 1.363 1_565 S
C1029 C1035 1.363 . S
C1030 C1031 1.363 1_565 S
C1030 C1035 1.379 . S
C1030 N1037 1.356 . S
C1031 C1030 1.363 1_545 S
C1031 C1034 1.363 . S
N1032 C1034 1.356 . S
N1032 H1044 0.984 . S
N1032 H1045 0.985 . S
N1033 C1035 1.356 . S
N1033 H1038 0.984 . S
N1033 H1039 0.985 . S
C1034 C1028 1.379 . S
C1034 C1031 1.363 . S
C1034 N1032 1.356 . S
C1035 C1029 1.363 . S
C1035 C1030 1.379 . S
C1035 N1033 1.356 . S
N1036 C1028 1.356 . S
N1036 H1042 0.984 . S
N1036 H1043 0.984 . S
N1037 C1030 1.356 . S
N1037 H1040 0.984 . S
N1037 H1041 0.985 . S
H1038 N1033 0.984 . S
H1039 N1033 0.985 . S
H1040 N1037 0.984 . S
H1041 N1037 0.985 . S
H1042 N1036 0.984 . S
H1043 N1036 0.984 . S
H1044 N1032 0.984 . S
H1045 N1032 0.985 . S
C1046 C1047 1.363 . S
C1046 C1052 1.379 . S
C1046 N1054 1.356 . S
C1047 C1046 1.363 . S
C1047 C1053 1.363 . S
C1048 C1049 1.363 . S
C1048 C1053 1.379 . S
C1048 N1055 1.356 . S
C1049 C1048 1.363 . S
C1049 C1052 1.363 . S
N1050 C1052 1.356 . S
N1050 H1062 0.984 . S
N1050 H1063 0.985 . S
N1051 C1053 1.356 . S
N1051 H1056 0.984 . S
N1051 H1057 0.985 . S
C1052 C1046 1.379 . S
C1052 C1049 1.363 . S
C1052 N1050 1.356 . S
C1053 C1047 1.363 . S
C1053 C1048 1.379 . S
C1053 N1051 1.356 . S
N1054 C1046 1.356 . S
N1054 H1060 0.984 . S
N1054 H1061 0.984 . S
N1055 C1048 1.356 . S
N1055 H1058 0.984 . S
N1055 H1059 0.985 . S
H1056 N1051 0.984 . S
H1057 N1051 0.985 . S
H1058 N1055 0.984 . S
H1059 N1055 0.985 . S
H1060 N1054 0.984 . S
H1061 N1054 0.984 . S
H1062 N1050 0.984 . S
H1063 N1050 0.985 . S
C1064 C1065 1.363 . S
C1064 C1070 1.378 1_554 S
C1064 N1072 1.356 . S
C1065 C1064 1.363 . S
C1065 C1071 1.363 1_554 S
C1066 C1067 1.363 . S
C1066 C1071 1.379 . S
C1066 N1073 1.356 . S
C1067 C1066 1.363 . S
C1067 C1070 1.364 . S
N1068 C1070 1.356 . S
N1068 H1080 0.984 1_556 S
N1068 H1081 0.985 . S
N1069 C1071 1.356 . S
N1069 H1074 0.984 1_556 S
N1069 H1075 0.985 . S
C1070 C1064 1.378 1_556 S
C1070 C1067 1.364 . S
C1070 N1068 1.356 . S
C1071 C1065 1.363 1_556 S
C1071 C1066 1.379 . S
C1071 N1069 1.356 . S
N1072 C1064 1.356 . S
N1072 H1078 0.984 . S
N1072 H1079 0.984 . S
N1073 C1066 1.356 . S
N1073 H1076 0.984 . S
N1073 H1077 0.985 . S
H1074 N1069 0.984 1_554 S
H1075 N1069 0.985 . S
H1076 N1073 0.984 . S
H1077 N1073 0.985 . S
H1078 N1072 0.984 . S
H1079 N1072 0.984 . S
H1080 N1068 0.984 1_554 S
H1081 N1068 0.985 . S
C1082 C1083 1.363 . S
C1082 C1088 1.379 . S
C1082 N1090 1.356 . S
C1083 C1082 1.363 . S
C1083 C1089 1.363 . S
C1084 C1085 1.363 . S
C1084 C1089 1.379 . S
C1084 N1091 1.356 . S
C1085 C1084 1.363 . S
C1085 C1088 1.363 . S
N1086 C1088 1.356 . S
N1086 H1098 0.984 . S
N1086 H1099 0.985 . S
N1087 C1089 1.356 . S
N1087 H1092 0.984 . S
N1087 H1093 0.985 . S
C1088 C1082 1.379 . S
C1088 C1085 1.363 . S
C1088 N1086 1.356 . S
C1089 C1083 1.363 . S
C1089 C1084 1.379 . S
C1089 N1087 1.356 . S
N1090 C1082 1.356 . S
N1090 H1096 0.984 . S
N1090 H1097 0.984 . S
N1091 C1084 1.356 . S
N1091 H1094 0.984 . S
N1091 H1095 0.985 . S
H1092 N1087 0.984 . S
H1093 N1087 0.985 . S
H1094 N1091 0.984 . S
H1095 N1091 0.985 . S
H1096 N1090 0.984 . S
H1097 N1090 0.984 . S
H1098 N1086 0.984 . S
H1099 N1086 0.985 . S
C1100 C1101 1.363 . S
C1100 C1106 1.379 . S
C1100 N1108 1.356 . S
C1101 C1100 1.363 . S
C1101 C1107 1.363 . S
C1102 C1103 1.363 . S
C1102 C1107 1.379 . S
C1102 N1109 1.356 . S
C1103 C1102 1.363 . S
C1103 C1106 1.363 . S
N1104 C1106 1.356 . S
N1104 H1116 0.984 . S
N1104 H1117 0.985 . S
N1105 C1107 1.356 . S
N1105 H1110 0.984 . S
N1105 H1111 0.985 . S
C1106 C1100 1.379 . S
C1106 C1103 1.363 . S
C1106 N1104 1.356 . S
C1107 C1101 1.363 . S
C1107 C1102 1.379 . S
C1107 N1105 1.356 . S
N1108 C1100 1.356 . S
N1108 H1114 0.984 . S
N1108 H1115 0.984 . S
N1109 C1102 1.356 . S
N1109 H1112 0.984 . S
N1109 H1113 0.985 . S
H1110 N1105 0.984 . S
H1111 N1105 0.985 . S
H1112 N1109 0.984 . S
H1113 N1109 0.985 . S
H1114 N1108 0.984 . S
H1115 N1108 0.984 . S
H1116 N1104 0.984 . S
H1117 N1104 0.985 . S
C1118 C1119 1.363 . S
C1118 C1124 1.379 . S
C1118 N1126 1.356 . S
C1119 C1118 1.363 . S
C1119 C1125 1.363 . S
C1120 C1121 1.363 . S
C1120 C1125 1.379 . S
C1120 N1127 1.356 . S
C1121 C1120 1.363 . S
C1121 C1124 1.363 . S
N1122 C1124 1.356 . S
N1122 H1134 0.984 . S
N1122 H1135 0.985 . S
N1123 C1125 1.356 . S
N1123 H1128 0.984 . S
N1123 H1129 0.985 . S
C1124 C1118 1.379 . S
C1124 C1121 1.363 . S
C1124 N1122 1.356 . S
C1125 C1119 1.363 . S
C1125 C1120 1.379 . S
C1125 N1123 1.356 . S
N1126 C1118 1.356 . S
N1126 H1132 0.984 . S
N1126 H1133 0.984 . S
N1127 C1120 1.356 . S
N1127 H1130 0.984 . S
N1127 H1131 0.985 . S
H1128 N1123 0.984 . S
H1129 N1123 0.985 . S
H1130 N1127 0.984 . S
H1131 N1127 0.985 . S
H1132 N1126 0.984 . S
H1133 N1126 0.984 . S
H1134 N1122 0.984 . S
H1135 N1122 0.985 . S
C1136 C1137 1.363 . S
C1136 C1142 1.379 . S
C1136 N1144 1.356 . S
C1137 C1136 1.363 . S
C1137 C1143 1.363 . S
C1138 C1139 1.363 . S
C1138 C1143 1.379 . S
C1138 N1145 1.356 . S
C1139 C1138 1.363 . S
C1139 C1142 1.363 . S
N1140 C1142 1.356 . S
N1140 H1152 0.984 . S
N1140 H1153 0.985 . S
N1141 C1143 1.356 . S
N1141 H1146 0.984 . S
N1141 H1147 0.985 . S
C1142 C1136 1.379 . S
C1142 C1139 1.363 . S
C1142 N1140 1.356 . S
C1143 C1137 1.363 . S
C1143 C1138 1.379 . S
C1143 N1141 1.356 . S
N1144 C1136 1.356 . S
N1144 H1150 0.984 . S
N1144 H1151 0.984 . S
N1145 C1138 1.356 . S
N1145 H1148 0.984 . S
N1145 H1149 0.985 . S
H1146 N1141 0.984 . S
H1147 N1141 0.985 . S
H1148 N1145 0.984 . S
H1149 N1145 0.985 . S
H1150 N1144 0.984 . S
H1151 N1144 0.984 . S
H1152 N1140 0.984 . S
H1153 N1140 0.985 . S
C1154 C1155 1.363 . S
C1154 C1160 1.379 . S
C1154 N1162 1.356 . S
C1155 C1154 1.363 . S
C1155 C1161 1.363 . S
C1156 C1157 1.363 . S
C1156 C1161 1.379 . S
C1156 N1163 1.356 . S
C1157 C1156 1.363 . S
C1157 C1160 1.363 . S
N1158 C1160 1.356 . S
N1158 H1170 0.984 . S
N1158 H1171 0.985 . S
N1159 C1161 1.356 . S
N1159 H1164 0.984 . S
N1159 H1165 0.985 . S
C1160 C1154 1.379 . S
C1160 C1157 1.363 . S
C1160 N1158 1.356 . S
C1161 C1155 1.363 . S
C1161 C1156 1.379 . S
C1161 N1159 1.356 . S
N1162 C1154 1.356 . S
N1162 H1168 0.984 . S
N1162 H1169 0.984 . S
N1163 C1156 1.356 . S
N1163 H1166 0.984 . S
N1163 H1167 0.985 . S
H1164 N1159 0.984 . S
H1165 N1159 0.985 . S
H1166 N1163 0.984 . S
H1167 N1163 0.985 . S
H1168 N1162 0.984 . S
H1169 N1162 0.984 . S
H1170 N1158 0.984 . S
H1171 N1158 0.985 . S
C1172 C1173 1.363 . S
C1172 C1178 1.379 . S
C1172 N1180 1.356 . S
C1173 C1172 1.363 . S
C1173 C1179 1.363 . S
C1174 C1175 1.363 . S
C1174 C1179 1.379 . S
C1174 N1181 1.356 . S
C1175 C1174 1.363 . S
C1175 C1178 1.363 . S
N1176 C1178 1.356 . S
N1176 H1188 0.984 . S
N1176 H1189 0.985 . S
N1177 C1179 1.356 . S
N1177 H1182 0.984 . S
N1177 H1183 0.985 . S
C1178 C1172 1.379 . S
C1178 C1175 1.363 . S
C1178 N1176 1.356 . S
C1179 C1173 1.363 . S
C1179 C1174 1.379 . S
C1179 N1177 1.356 . S
N1180 C1172 1.356 . S
N1180 H1186 0.984 . S
N1180 H1187 0.984 . S
N1181 C1174 1.356 . S
N1181 H1184 0.984 . S
N1181 H1185 0.985 . S
H1182 N1177 0.984 . S
H1183 N1177 0.985 . S
H1184 N1181 0.984 . S
H1185 N1181 0.985 . S
H1186 N1180 0.984 . S
H1187 N1180 0.984 . S
H1188 N1176 0.984 . S
H1189 N1176 0.985 . S
C1190 C1191 1.363 . S
C1190 C1196 1.379 . S
C1190 N1198 1.356 . S
C1191 C1190 1.363 . S
C1191 C1197 1.363 . S
C1192 C1193 1.363 . S
C1192 C1197 1.379 . S
C1192 N1199 1.356 . S
C1193 C1192 1.363 . S
C1193 C1196 1.363 . S
N1194 C1196 1.356 . S
N1194 H1206 0.984 . S
N1194 H1207 0.985 . S
N1195 C1197 1.356 . S
N1195 H1200 0.984 . S
N1195 H1201 0.985 . S
C1196 C1190 1.379 . S
C1196 C1193 1.363 . S
C1196 N1194 1.356 . S
C1197 C1191 1.363 . S
C1197 C1192 1.379 . S
C1197 N1195 1.356 . S
N1198 C1190 1.356 . S
N1198 H1204 0.984 . S
N1198 H1205 0.984 . S
N1199 C1192 1.356 . S
N1199 H1202 0.984 . S
N1199 H1203 0.985 . S
H1200 N1195 0.984 . S
H1201 N1195 0.985 . S
H1202 N1199 0.984 . S
H1203 N1199 0.985 . S
H1204 N1198 0.984 . S
H1205 N1198 0.984 . S
H1206 N1194 0.984 . S
H1207 N1194 0.985 . S
C1208 C1209 1.363 . S
C1208 C1214 1.379 . S
C1208 N1216 1.356 . S
C1209 C1208 1.363 . S
C1209 C1215 1.363 . S
C1210 C1211 1.363 . S
C1210 C1215 1.379 . S
C1210 N1217 1.356 . S
C1211 C1210 1.363 . S
C1211 C1214 1.363 . S
N1212 C1214 1.356 . S
N1212 H1224 0.984 . S
N1212 H1225 0.985 . S
N1213 C1215 1.356 . S
N1213 H1218 0.984 . S
N1213 H1219 0.985 . S
C1214 C1208 1.379 . S
C1214 C1211 1.363 . S
C1214 N1212 1.356 . S
C1215 C1209 1.363 . S
C1215 C1210 1.379 . S
C1215 N1213 1.356 . S
N1216 C1208 1.356 . S
N1216 H1222 0.984 . S
N1216 H1223 0.984 . S
N1217 C1210 1.356 . S
N1217 H1220 0.984 . S
N1217 H1221 0.985 . S
H1218 N1213 0.984 . S
H1219 N1213 0.985 . S
H1220 N1217 0.984 . S
H1221 N1217 0.985 . S
H1222 N1216 0.984 . S
H1223 N1216 0.984 . S
H1224 N1212 0.984 . S
H1225 N1212 0.985 . S
C1226 C1227 1.363 . S
C1226 C1232 1.379 . S
C1226 N1234 1.356 . S
C1227 C1226 1.363 . S
C1227 C1233 1.363 . S
C1228 C1229 1.363 . S
C1228 C1233 1.379 . S
C1228 N1235 1.356 . S
C1229 C1228 1.363 . S
C1229 C1232 1.363 . S
N1230 C1232 1.356 . S
N1230 H1242 0.984 . S
N1230 H1243 0.985 . S
N1231 C1233 1.356 . S
N1231 H1236 0.984 . S
N1231 H1237 0.985 . S
C1232 C1226 1.379 . S
C1232 C1229 1.363 . S
C1232 N1230 1.356 . S
C1233 C1227 1.363 . S
C1233 C1228 1.379 . S
C1233 N1231 1.356 . S
N1234 C1226 1.356 . S
N1234 H1240 0.984 . S
N1234 H1241 0.984 . S
N1235 C1228 1.356 . S
N1235 H1238 0.984 . S
N1235 H1239 0.985 . S
H1236 N1231 0.984 . S
H1237 N1231 0.985 . S
H1238 N1235 0.984 . S
H1239 N1235 0.985 . S
H1240 N1234 0.984 . S
H1241 N1234 0.984 . S
H1242 N1230 0.984 . S
H1243 N1230 0.985 . S
C1244 C1245 1.363 . S
C1244 C1250 1.379 . S
C1244 N1252 1.356 . S
C1245 C1244 1.363 . S
C1245 C1251 1.363 . S
C1246 C1247 1.363 . S
C1246 C1251 1.379 . S
C1246 N1253 1.356 . S
C1247 C1246 1.363 . S
C1247 C1250 1.363 . S
N1248 C1250 1.356 . S
N1248 H1260 0.984 . S
N1248 H1261 0.985 . S
N1249 C1251 1.356 . S
N1249 H1254 0.984 . S
N1249 H1255 0.985 . S
C1250 C1244 1.379 . S
C1250 C1247 1.363 . S
C1250 N1248 1.356 . S
C1251 C1245 1.363 . S
C1251 C1246 1.379 . S
C1251 N1249 1.356 . S
N1252 C1244 1.356 . S
N1252 H1258 0.984 . S
N1252 H1259 0.984 . S
N1253 C1246 1.356 . S
N1253 H1256 0.984 . S
N1253 H1257 0.985 . S
H1254 N1249 0.984 . S
H1255 N1249 0.985 . S
H1256 N1253 0.984 . S
H1257 N1253 0.985 . S
H1258 N1252 0.984 . S
H1259 N1252 0.984 . S
H1260 N1248 0.984 . S
H1261 N1248 0.985 . S
C1262 C1263 1.363 1_565 S
C1262 C1268 1.379 . S
C1262 N1270 1.356 . S
C1263 C1262 1.363 1_545 S
C1263 C1269 1.363 . S
C1264 C1265 1.363 1_545 S
C1264 C1269 1.379 . S
C1264 N1271 1.356 1_556 S
C1265 C1264 1.363 1_565 S
C1265 C1268 1.363 . S
N1266 C1268 1.356 1_554 S
N1266 H1278 0.992 . S
N1266 H1279 0.985 . S
N1267 C1269 1.356 . S
N1267 H1272 0.984 . S
N1267 H1273 0.985 . S
C1268 C1262 1.379 . S
C1268 C1265 1.363 . S
C1268 N1266 1.356 1_556 S
C1269 C1263 1.363 . S
C1269 C1264 1.379 . S
C1269 N1267 1.356 . S
N1270 C1262 1.356 . S
N1270 H1276 0.984 . S
N1270 H1277 0.984 . S
N1271 C1264 1.356 1_554 S
N1271 H1274 0.984 1_545 S
N1271 H1275 0.985 1_554 S
H1272 N1267 0.984 . S
H1273 N1267 0.985 . S
H1274 N1271 0.984 1_565 S
H1275 N1271 0.985 1_556 S
H1276 N1270 0.984 . S
H1277 N1270 0.984 . S
H1278 N1266 0.992 . S
H1279 N1266 0.985 . S
C1280 C1281 1.363 . S
C1280 C1286 1.379 . S
C1280 N1288 1.356 . S
C1281 C1280 1.363 . S
C1281 C1287 1.363 . S
C1282 C1283 1.363 . S
C1282 C1287 1.379 . S
C1282 N1289 1.356 . S
C1283 C1282 1.363 . S
C1283 C1286 1.363 . S
N1284 C1286 1.356 . S
N1284 H1296 0.984 . S
N1284 H1297 0.985 . S
N1285 C1287 1.356 . S
N1285 H1290 0.984 . S
N1285 H1291 0.985 . S
C1286 C1280 1.379 . S
C1286 C1283 1.363 . S
C1286 N1284 1.356 . S
C1287 C1281 1.363 . S
C1287 C1282 1.379 . S
C1287 N1285 1.356 . S
N1288 C1280 1.356 . S
N1288 H1294 0.984 . S
N1288 H1295 0.984 . S
N1289 C1282 1.356 . S
N1289 H1292 0.984 . S
N1289 H1293 0.985 . S
H1290 N1285 0.984 . S
H1291 N1285 0.985 . S
H1292 N1289 0.984 . S
H1293 N1289 0.985 . S
H1294 N1288 0.984 . S
H1295 N1288 0.984 . S
H1296 N1284 0.984 . S
H1297 N1284 0.985 . S
C1298 C1299 1.363 1_554 S
C1298 C1304 1.379 . S
C1298 N1306 1.356 . S
C1299 C1298 1.363 1_556 S
C1299 C1305 1.363 . S
C1300 C1301 1.363 . S
C1300 C1305 1.379 1_554 S
C1300 N1307 1.356 . S
C1301 C1300 1.363 . S
C1301 C1304 1.363 . S
N1302 C1304 1.356 . S
N1302 H1314 0.984 . S
N1302 H1315 0.985 . S
N1303 C1305 1.356 . S
N1303 H1308 0.984 . S
N1303 H1309 0.985 . S
C1304 C1298 1.379 . S
C1304 C1301 1.363 . S
C1304 N1302 1.356 . S
C1305 C1299 1.363 . S
C1305 C1300 1.379 1_556 S
C1305 N1303 1.356 . S
N1306 C1298 1.356 . S
N1306 H1312 0.984 . S
N1306 H1313 0.984 . S
N1307 C1300 1.356 . S
N1307 H1310 0.984 . S
N1307 H1311 0.985 1_554 S
H1308 N1303 0.984 . S
H1309 N1303 0.985 . S
H1310 N1307 0.984 . S
H1311 N1307 0.985 1_556 S
H1312 N1306 0.984 . S
H1313 N1306 0.984 . S
H1314 N1302 0.984 . S
H1315 N1302 0.985 . S
C1316 C1317 1.363 . S
C1316 C1322 1.379 . S
C1316 N1324 1.356 . S
C1317 C1316 1.363 . S
C1317 C1323 1.363 1_556 S
C1318 C1319 1.363 . S
C1318 C1323 1.379 . S
C1318 N1325 1.356 . S
C1319 C1318 1.363 . S
C1319 C1322 1.363 1_554 S
N1320 C1322 1.356 . S
N1320 H1332 0.984 . S
N1320 H1333 0.985 . S
N1321 C1323 1.356 . S
N1321 H1326 0.984 . S
N1321 H1327 0.985 . S
C1322 C1316 1.379 . S
C1322 C1319 1.363 1_556 S
C1322 N1320 1.356 . S
C1323 C1317 1.363 1_554 S
C1323 C1318 1.379 . S
C1323 N1321 1.356 . S
N1324 C1316 1.356 . S
N1324 H1330 0.984 . S
N1324 H1331 0.984 . S
N1325 C1318 1.356 . S
N1325 H1328 0.984 . S
N1325 H1329 0.985 . S
H1326 N1321 0.984 . S
H1327 N1321 0.985 . S
H1328 N1325 0.984 . S
H1329 N1325 0.985 . S
H1330 N1324 0.984 . S
H1331 N1324 0.984 . S
H1332 N1320 0.984 . S
H1333 N1320 0.985 . S
C1334 C1335 1.363 1_556 S
C1334 C1340 1.379 1_556 S
C1334 N1342 1.356 . S
C1335 C1334 1.363 1_554 S
C1335 C1341 1.363 . S
C1336 C1337 1.363 . S
C1336 C1341 1.379 . S
C1336 N1343 1.356 . S
C1337 C1336 1.363 . S
C1337 C1340 1.363 . S
N1338 C1340 1.351 1_556 S
N1338 H1350 1.008 1_655 S
N1338 H1351 0.967 1_656 S
N1339 C1341 1.356 . S
N1339 H1344 0.984 . S
N1339 H1345 0.985 . S
C1340 C1334 1.379 1_554 S
C1340 C1337 1.363 . S
C1340 N1338 1.351 1_554 S
C1341 C1335 1.363 . S
C1341 C1336 1.379 . S
C1341 N1339 1.356 . S
N1342 C1334 1.356 . S
N1342 H1348 0.984 . S
N1342 H1349 0.984 . S
N1343 C1336 1.356 . S
N1343 H1346 0.984 . S
N1343 H1347 0.985 . S
H1344 N1339 0.984 . S
H1345 N1339 0.985 . S
H1346 N1343 0.984 . S
H1347 N1343 0.985 . S
H1348 N1342 0.984 . S
H1349 N1342 0.984 . S
H1350 N1338 1.008 1_455 S
H1351 N1338 0.967 1_454 S
C489 C13 2.333 . S
C491 C267 2.117 . S
C509 C296 3.027 . S
C507 C1 3.012 . S
C527 C173 1.450 . S
C525 C27 1.441 . S
C543 C15 1.440 . S
C545 C217 1.406 . S
C561 C28 3.068 . S
C563 C467 2.963 . S
C579 C55 1.915 . S
C581 C413 1.953 . S
C599 C346 2.689 . S
C597 C40 2.791 1_545 S
C615 C43 0.926 . S
C617 C376 0.908 . S
C635 C223 2.030 . S
C633 C56 2.095 1_556 S
C653 C293 2.092 . S
C651 C83 2.098 . S
C669 C96 2.053 . S
C671 C256 2.093 1_655 S
C687 C71 1.795 . S
C689 C387 1.742 . S
C707 C427 2.295 . S
C705 C99 2.524 . S
C725 C456 2.721 . S
C723 C111 2.697 . S
C741 C113 1.489 . S
C743 C373 1.496 . S
C761 C337 1.668 . S
C759 C125 1.672 . S
C777 C139 2.790 . S
C779 C307 2.710 . S
C795 C153 1.750 . S
C797 C253 1.809 . S
C815 C226 2.773 1_556 S
C813 C127 2.874 . S
C831 C141 1.137 . S
C833 C176 1.101 . S
C851 C343 1.805 . S
C849 C84 1.830 . S
C869 C453 1.985 . S
C867 C154 1.999 . S
C885 C68 1.677 . S
C887 C416 1.695 . S
C903 C166 1.808 . S
C905 C187 1.749 . S
C923 C186 1.466 . S
C921 C0 1.561 . S
C939 C12 2.185 . S
C941 C216 1.972 1_455 S
C959 C263 1.898 . S
C957 C14 2.276 . S
C977 C297 1.961 . S
C975 C26 2.013 1_455 S
C993 C41 2.075 . S
C995 C177 2.006 . S
C1011 C42 1.953 . S
C1013 C213 1.752 . S
C1031 C266 1.274 . S
C1029 C29 1.517 . S
C1047 C54 1.485 . S
C1049 C303 1.228 . S
C1065 C69 2.101 . S
C1067 C183 1.795 . S
C1085 C257 2.537 . S
C1083 C70 2.639 . S
C1101 C85 2.280 . S
C1103 C306 2.109 . S
C1119 C82 1.261 . S
C1121 C347 1.205 . S
C1139 C386 1.359 . S
C1137 C110 1.444 . S
C1155 C98 2.227 . S
C1157 C336 2.001 . S
C1173 C124 2.058 . S
C1175 C423 1.751 . S
C1191 C112 2.196 . S
C1193 C457 2.105 . S
C1209 C126 2.261 . S
C1211 C377 2.194 . S
C1229 C333 1.729 . S
C1227 C140 1.934 . S
C1245 C138 1.400 . S
C1247 C426 1.192 . S
C1265 C463 1.181 1_556 S
C1263 C152 1.407 . S
C1283 C383 1.623 . S
C1281 C97 1.863 . S
C1301 C417 2.637 . S
C1299 C167 2.722 . S
C1319 C466 1.886 . S
C1317 C57 1.975 . S
C1335 C155 1.129 . S
C1337 C227 1.085 . S
