# Generated by pormake.
# Topology anh, (6,3)-cn, num edge types: 1
# Building blocks:
#     Node 0, Type 0, BuildingBlock: NUHQIS_clean_sbu_0, # of connection points: 6
#     Node 1, Type 0, BuildingBlock: NUHQIS_clean_sbu_0, # of connection points: 6
#     Node 2, Type 0, BuildingBlock: NUHQIS_clean_sbu_0, # of connection points: 6
#     Node 3, Type 1, BuildingBlock: OLANEW_clean_sbu_2, # of connection points: 3
#     Node 4, Type 1, BuildingBlock: OLANEW_clean_sbu_2, # of connection points: 3
#     Node 5, Type 1, BuildingBlock: OLANEW_clean_sbu_2, # of connection points: 3
#     Node 6, Type 1, BuildingBlock: OLANEW_clean_sbu_2, # of connection points: 3
#     Node 7, Type 1, BuildingBlock: OLANEW_clean_sbu_2, # of connection points: 3
#     Node 8, Type 1, BuildingBlock: OLANEW_clean_sbu_2, # of connection points: 3
#     Edge 9, Type (0, 1), BuildingBlock: CIFDUS_clean_linker_0, # of connection points: 2
#     Edge 10, Type (0, 1), BuildingBlock: CIFDUS_clean_linker_0, # of connection points: 2
#     Edge 11, Type (0, 1), BuildingBlock: CIFDUS_clean_linker_0, # of connection points: 2
#     Edge 12, Type (0, 1), BuildingBlock: CIFDUS_clean_linker_0, # of connection points: 2
#     Edge 13, Type (0, 1), BuildingBlock: CIFDUS_clean_linker_0, # of connection points: 2
#     Edge 14, Type (0, 1), BuildingBlock: CIFDUS_clean_linker_0, # of connection points: 2
#     Edge 15, Type (0, 1), BuildingBlock: CIFDUS_clean_linker_0, # of connection points: 2
#     Edge 16, Type (0, 1), BuildingBlock: CIFDUS_clean_linker_0, # of connection points: 2
#     Edge 17, Type (0, 1), BuildingBlock: CIFDUS_clean_linker_0, # of connection points: 2
#     Edge 18, Type (0, 1), BuildingBlock: CIFDUS_clean_linker_0, # of connection points: 2
#     Edge 19, Type (0, 1), BuildingBlock: CIFDUS_clean_linker_0, # of connection points: 2
#     Edge 20, Type (0, 1), BuildingBlock: CIFDUS_clean_linker_0, # of connection points: 2
#     Edge 21, Type (0, 1), BuildingBlock: CIFDUS_clean_linker_0, # of connection points: 2
#     Edge 22, Type (0, 1), BuildingBlock: CIFDUS_clean_linker_0, # of connection points: 2
#     Edge 23, Type (0, 1), BuildingBlock: CIFDUS_clean_linker_0, # of connection points: 2
#     Edge 24, Type (0, 1), BuildingBlock: CIFDUS_clean_linker_0, # of connection points: 2
#     Edge 25, Type (0, 1), BuildingBlock: CIFDUS_clean_linker_0, # of connection points: 2
#     Edge 26, Type (0, 1), BuildingBlock: CIFDUS_clean_linker_0, # of connection points: 2
# Relax obj value: 0.262
# Max RMSD: 0.134
# Mean RMSD: 0.115
data_MOF--net-anh--node1-NUHQIS_clean_sbu_0--node2-OLANEW_clean_sbu_2--edge1-CIFDUS_clean_linker_0
_symmetry_space_group_name_H-M    P1
_symmetry_Int_Tables_number       1
_symmetry_cell_setting            triclinic
loop_
_symmetry_equiv_pos_as_xyz
'x, y, z'
_cell_length_a     33.289052
_cell_length_b     33.243046
_cell_length_c     44.437138
_cell_angle_alpha  90.001903
_cell_angle_beta   92.898279
_cell_angle_gamma 119.99582
loop_
_atom_site_label
_atom_site_type_symbol
_atom_site_fract_x
_atom_site_fract_y
_atom_site_fract_z
_atom_type_partial_charge
Tb0 Tb 0.08496 0.54409 0.17042 0.0
Eu1 Eu 0.03115 0.6016 0.1773 0.0
C2 C 0.05748 0.55632 0.23386 0.0
C3 C 0.97374 0.48914 0.17872 0.0
C4 C 0.17424 0.51749 0.14706 0.0
C5 C 0.22337 0.49529 0.12183 0.0
C6 C 0.1812 0.48319 0.13419 0.0
C7 C 0.20942 0.56431 0.14668 0.0
C8 C 0.25181 0.57641 0.13457 0.0
C9 C 0.25933 0.54193 0.12231 0.0
C10 C 0.13053 0.50396 0.16116 0.0
O11 O 0.08698 0.57652 0.12761 0.0
O12 O 1.01837 0.57498 0.12864 0.0
O13 O 0.10453 0.65481 0.16744 0.0
O14 O 0.13934 0.61518 0.18633 0.0
C15 C 0.05079 0.57469 0.11323 0.0
O16 O 0.98759 0.62827 0.15832 0.0
O17 O 1.01542 0.64628 0.20439 0.0
O18 O 0.05513 0.59266 0.22444 0.0
O19 O 0.06023 0.52786 0.21495 0.0
O20 O 1.0104 0.48831 0.16894 0.0
O21 O 0.97571 0.52847 0.18582 0.0
C22 C 0.14185 0.65468 0.17839 0.0
O23 O 0.13419 0.52631 0.18621 0.0
O24 O 0.09634 0.49954 0.1431 0.0
C25 C 0.93772 0.62707 0.19373 0.0
C26 C 0.84149 0.57757 0.20099 0.0
C27 C 0.86115 0.61747 0.18341 0.0
C28 C 0.90897 0.64199 0.17977 0.0
C29 C 0.91864 0.58932 0.21304 0.0
C30 C 0.87098 0.56496 0.21678 0.0
C31 C 0.98515 0.64519 0.18415 0.0
H32 H 0.22844 0.46795 0.11286 0.0
H33 H 0.1543 0.44695 0.13419 0.0
H34 H 0.20441 0.59138 0.15621 0.0
H35 H 0.27885 0.6126 0.13503 0.0
H36 H 0.83929 0.62777 0.1707 0.0
H37 H 0.92304 0.67069 0.16452 0.0
H38 H 0.94013 0.57688 0.22385 0.0
H39 H 0.85688 0.53469 0.23072 0.0
Tb40 Tb 0.56922 0.0778 0.51776 0.0
Eu41 Eu 0.46044 0.02528 0.49222 0.0
C42 C 0.48802 0.02824 0.56305 0.0
C43 C 0.51345 0.96746 0.51222 0.0
C44 C 0.69073 0.16514 0.5169 0.0
C45 C 0.77139 0.22053 0.50905 0.0
C46 C 0.73805 0.18176 0.52368 0.0
C47 C 0.67698 0.18738 0.49532 0.0
C48 C 0.71013 0.22622 0.48094 0.0
C49 C 0.75764 0.24317 0.48764 0.0
C50 C 0.65521 0.12388 0.53133 0.0
O51 O 0.5687 0.06818 0.46877 0.0
O52 O 0.5005 0.06422 0.45291 0.0
O53 O 0.4752 0.09598 0.50875 0.0
O54 O 0.55475 0.13514 0.51014 0.0
C55 C 0.5411 0.06989 0.44718 0.0
O56 O 0.40709 0.98181 0.45776 0.0
O57 O 0.38854 1.00819 0.49607 0.0
O58 O 0.4571 1.00747 0.54064 0.0
O59 O 0.53189 0.0588 0.55922 0.0
O60 O 0.54688 1.00474 0.52673 0.0
O61 O 0.48208 0.96999 0.49411 0.0
C62 C 0.51521 0.13497 0.51181 0.0
O63 O 0.62451 0.12972 0.54475 0.0
O64 O 0.63567 0.08609 0.51448 0.0
C65 C 0.3362 0.93174 0.47949 0.0
C66 C 0.26719 0.84296 0.49626 0.0
C67 C 0.31092 0.8508 0.48845 0.0
C68 C 0.34515 0.89474 0.48042 0.0
C69 C 0.29257 0.92417 0.48698 0.0
C70 C 0.25828 0.88011 0.49532 0.0
C71 C 0.37336 0.97883 0.47318 0.0
H72 H 0.80786 0.23312 0.51468 0.0
H73 H 0.74914 0.16473 0.54014 0.0
H74 H 0.64053 0.17451 0.48944 0.0
H75 H 0.69862 0.24259 0.46423 0.0
H76 H 0.31869 0.82282 0.48817 0.0
H77 H 0.37873 0.89974 0.47513 0.0
H78 H 0.2853 0.95251 0.48681 0.0
H79 H 0.22508 0.87528 0.50137 0.0
Tb80 Tb 0.58577 0.59324 0.85243 0.0
Eu81 Eu 0.52452 0.48994 0.8235 0.0
C82 C 0.54686 0.50454 0.89426 0.0
C83 C 0.63559 0.53512 0.84602 0.0
C84 C 0.61302 0.71198 0.86197 0.0
C85 C 0.59669 0.77177 0.87839 0.0
C86 C 0.61889 0.74581 0.88337 0.0
C87 C 0.58668 0.70598 0.83495 0.0
C88 C 0.56453 0.73166 0.83005 0.0
C89 C 0.568 0.76361 0.85213 0.0
C90 C 0.6264 0.67728 0.86982 0.0
O91 O 0.59827 0.59307 0.80405 0.0
O92 O 0.52506 0.5394 0.78906 0.0
O93 O 0.47161 0.50563 0.84286 0.0
O94 O 0.51668 0.58447 0.84095 0.0
C95 C 0.56487 0.5745 0.78265 0.0
O96 O 0.51541 0.44419 0.78542 0.0
O97 O 0.46729 0.41845 0.8212 0.0
O98 O 0.53812 0.47709 0.87081 0.0
O99 O 0.56078 0.5491 0.89179 0.0
O100 O 0.63388 0.56773 0.86166 0.0
O101 O 0.60089 0.50744 0.82665 0.0
C102 C 0.47595 0.54718 0.8444 0.0
O103 O 0.59624 0.64339 0.88532 0.0
O104 O 0.64005 0.66189 0.84784 0.0
C105 C 0.49026 0.36835 0.80079 0.0
C106 C 0.51057 0.29597 0.80577 0.0
C107 C 0.48872 0.30065 0.77914 0.0
C108 C 0.47859 0.3366 0.7767 0.0
C109 C 0.51233 0.36396 0.82735 0.0
C110 C 0.52212 0.32787 0.82989 0.0
C111 C 0.48225 0.40771 0.7976 0.0
H112 H 0.59976 0.79618 0.89576 0.0
H113 H 0.63849 0.75032 0.90455 0.0
H114 H 0.58109 0.67959 0.8183 0.0
H115 H 0.54313 0.72521 0.80943 0.0
H116 H 0.47903 0.27621 0.76033 0.0
H117 H 0.46198 0.33982 0.75596 0.0
H118 H 0.52236 0.3887 0.84603 0.0
H119 H 0.53936 0.32531 0.85053 0.0
O120 O 0.61374 0.1151 0.26318 0.0
Cd121 Cd 0.66039 0.15485 0.21697 0.0
O122 O 0.54999 0.04922 0.24731 0.0
Cd123 Cd 0.48159 0.97894 0.24577 0.0
O124 O 0.41722 0.90593 0.23875 0.0
C125 C 0.38392 0.89489 0.21874 0.0
O126 O 0.38611 0.92748 0.20101 0.0
C127 C 0.57546 0.07807 0.26883 0.0
C128 C 0.74951 0.23959 0.21351 0.0
O129 O 0.71131 0.24038 0.21281 0.0
O130 O 0.74636 0.19993 0.21774 0.0
O131 O 0.55189 0.5262 0.59732 0.0
Cd132 Cd 0.54826 0.47724 0.55118 0.0
O133 O 0.5444 0.5864 0.58194 0.0
Cd134 Cd 0.54065 0.65375 0.58111 0.0
O135 O 0.54411 0.72406 0.57354 0.0
C136 C 0.51885 0.73177 0.55424 0.0
O137 O 0.48744 0.69678 0.53716 0.0
C138 C 0.54982 0.56308 0.6033 0.0
C139 C 0.54951 0.39048 0.54865 0.0
O140 O 0.58699 0.43006 0.5518 0.0
O141 O 0.51121 0.39099 0.54856 0.0
O142 O 0.11 0.55146 0.92439 0.0
Cd143 Cd 0.15007 0.54577 0.87794 0.0
O144 O 0.04243 0.54976 0.91656 0.0
Cd145 Cd 0.97338 0.5497 0.91723 0.0
O146 O 0.90701 0.55434 0.90903 0.0
C147 C 0.87367 0.53077 0.88924 0.0
O148 O 0.87649 0.50035 0.87192 0.0
C149 C 0.07507 0.55255 0.93487 0.0
C150 C 0.23335 0.53837 0.87669 0.0
O151 O 0.23556 0.57802 0.87619 0.0
O152 O 0.19297 0.50283 0.87951 0.0
O153 O 0.08961 0.51218 0.42042 0.0
Cd154 Cd 0.08406 0.48998 0.47325 0.0
O155 O 0.05689 0.55234 0.43286 0.0
Cd156 Cd 1.01028 0.57952 0.42229 0.0
O157 O 0.93869 0.52588 0.42765 0.0
C158 C 0.931 0.48631 0.41847 0.0
O159 O 0.96326 0.48401 0.40397 0.0
C160 C 0.07346 0.53847 0.41281 0.0
C161 C 0.12678 0.57328 0.50575 0.0
O162 O 0.08347 0.55344 0.49759 0.0
O163 O 0.14899 0.55207 0.50027 0.0
O164 O 0.37254 0.90803 0.7276 0.0
Cd165 Cd 0.33811 0.88126 0.77595 0.0
O166 O 0.44089 0.93701 0.7515 0.0
Cd167 Cd 0.51505 0.98738 0.75658 0.0
O168 O 0.55073 0.06243 0.76182 0.0
C169 C 0.54278 0.0772 0.78587 0.0
O170 O 0.51979 0.04708 0.80643 0.0
C171 C 0.41659 0.93065 0.72706 0.0
C172 C 0.38318 0.83965 0.80468 0.0
O173 O 0.39869 0.88333 0.80826 0.0
O174 O 0.34549 0.81561 0.78837 0.0
O175 O 0.52311 0.3764 0.06354 0.0
Cd176 Cd 0.50591 0.33872 0.11212 0.0
O177 O 0.53932 0.44044 0.08791 0.0
Cd178 Cd 0.54585 0.50899 0.09015 0.0
O179 O 0.50423 0.54253 0.08839 0.0
C180 C 0.47437 0.53056 0.06631 0.0
O181 O 0.47415 0.50319 0.04488 0.0
C182 C 0.53572 0.41935 0.06318 0.0
C183 C 0.58665 0.38364 0.14903 0.0
O184 O 0.57652 0.3467 0.13378 0.0
O185 O 0.55755 0.39825 0.14771 0.0
H186 H 0.27832 0.5128 0.07061 0.0
H187 H 0.34369 0.59706 0.15146 0.0
H188 H 0.41852 0.60672 0.13884 0.0
H189 H 0.46267 0.58259 0.10843 0.0
H190 H 0.39678 0.49651 0.02819 0.0
H191 H 0.32512 0.49675 0.03675 0.0
C192 C 0.30913 0.53368 0.08524 0.0
C193 C 0.30549 0.55368 0.11208 0.0
C194 C 0.35184 0.53851 0.07808 0.0
C195 C 0.34569 0.5814 0.13063 0.0
C196 C 0.3884 0.58667 0.12353 0.0
C197 C 0.43291 0.56454 0.09252 0.0
C198 C 0.43482 0.53883 0.06806 0.0
C199 C 0.39154 0.56414 0.09783 0.0
C200 C 0.39615 0.5162 0.0474 0.0
C201 C 0.35502 0.51611 0.05234 0.0
H202 H 0.75948 0.32493 0.47959 0.0
H203 H 0.83384 0.25319 0.46097 0.0
H204 H 0.89187 0.32113 0.43547 0.0
H205 H 0.92273 0.40137 0.42025 0.0
H206 H 0.85113 0.47519 0.44105 0.0
H207 H 0.78992 0.40541 0.4634 0.0
C208 C 0.78824 0.32416 0.46971 0.0
C209 C 0.79258 0.2843 0.47217 0.0
C210 C 0.82163 0.36345 0.45538 0.0
C211 C 0.83018 0.28375 0.45963 0.0
C212 C 0.86314 0.32241 0.44492 0.0
C213 C 0.89343 0.40211 0.42929 0.0
C214 C 0.89133 0.44331 0.42892 0.0
C215 C 0.85935 0.3625 0.44286 0.0
C216 C 0.85344 0.44383 0.44106 0.0
C217 C 0.8186 0.40405 0.45393 0.0
H218 H 0.47639 0.71992 0.83681 0.0
H219 H 0.5938 0.85535 0.85974 0.0
H220 H 0.54533 0.8908 0.8497 0.0
H221 H 0.47112 0.88338 0.83046 0.0
H222 H 0.35481 0.74741 0.80628 0.0
H223 H 0.40137 0.71191 0.82092 0.0
C224 C 0.49133 0.75723 0.83956 0.0
C225 C 0.53863 0.78521 0.84844 0.0
C226 C 0.46352 0.77715 0.83351 0.0
C227 C 0.55744 0.83327 0.85277 0.0
C228 C 0.52981 0.85347 0.84694 0.0
C229 C 0.45579 0.84594 0.82878 0.0
C230 C 0.40969 0.8181 0.81707 0.0
C231 C 0.48301 0.82579 0.83676 0.0
C232 C 0.39031 0.76964 0.81501 0.0
C233 C 0.4169 0.74931 0.82332 0.0
H234 H 0.79646 0.48414 0.19357 0.0
H235 H 0.77234 0.59943 0.20302 0.0
H236 H 0.68919 0.54753 0.19121 0.0
H237 H 0.62549 0.47144 0.1726 0.0
H238 H 0.65122 0.35742 0.16123 0.0
H239 H 0.73162 0.40668 0.18026 0.0
C240 C 0.7729 0.49776 0.19394 0.0
C241 C 0.79053 0.54559 0.19909 0.0
C242 C 0.72553 0.468 0.18659 0.0
C243 C 0.7596 0.56279 0.19884 0.0
C244 C 0.71213 0.53315 0.1921 0.0
C245 C 0.64845 0.45712 0.17483 0.0
C246 C 0.63257 0.411 0.16522 0.0
C247 C 0.69497 0.48598 0.18506 0.0
C248 C 0.66272 0.39294 0.16822 0.0
C249 C 0.70873 0.4211 0.17903 0.0
H250 H 0.27816 0.78033 0.52979 0.0
H251 H 0.1742 0.79881 0.47975 0.0
H252 H 0.11757 0.71673 0.48461 0.0
H253 H 0.10211 0.63805 0.49489 0.0
H254 H 0.20931 0.61833 0.53883 0.0
H255 H 0.26013 0.70247 0.54466 0.0
C256 C 0.24304 0.76646 0.52005 0.0
C257 C 0.23078 0.7955 0.50386 0.0
C258 C 0.21134 0.71886 0.52166 0.0
C259 C 0.18468 0.77733 0.49231 0.0
C260 C 0.15233 0.73025 0.49485 0.0
C261 C 0.13608 0.65217 0.50656 0.0
C262 C 0.1522 0.62224 0.51625 0.0
C263 C 0.16587 0.70042 0.50836 0.0
C264 C 0.19638 0.64087 0.53106 0.0
C265 C 0.22548 0.6889 0.53422 0.0
H266 H 0.55023 0.26763 0.7652 0.0
H267 H 0.49315 0.23806 0.85279 0.0
H268 H 0.50392 0.17066 0.85604 0.0
H269 H 0.52262 0.11632 0.83197 0.0
H270 H 0.57788 0.14453 0.74372 0.0
H271 H 0.57547 0.21672 0.74297 0.0
C272 C 0.54028 0.24641 0.78499 0.0
C273 C 0.52044 0.25736 0.80855 0.0
C274 C 0.54628 0.20759 0.78661 0.0
C275 C 0.50855 0.23029 0.83438 0.0
C276 C 0.51455 0.1917 0.8362 0.0
C277 C 0.53482 0.13857 0.81274 0.0
C278 C 0.54978 0.1247 0.78778 0.0
C279 C 0.53248 0.17951 0.81219 0.0
C280 C 0.5659 0.15421 0.76318 0.0
C281 C 0.56428 0.19538 0.76264 0.0
H282 H 0.56639 0.94404 0.55103 0.0
H283 H 0.45185 0.88423 0.48397 0.0
H284 H 0.4437 0.80791 0.49108 0.0
H285 H 0.46828 0.75701 0.51607 0.0
H286 H 0.58207 0.81498 0.58351 0.0
H287 H 0.59102 0.8922 0.5765 0.0
C288 C 0.53972 0.91441 0.53785 0.0
C289 C 0.50993 0.92071 0.51679 0.0
C290 C 0.5349 0.86977 0.54216 0.0
C291 C 0.47549 0.88125 0.50025 0.0
C292 C 0.4707 0.83722 0.50433 0.0
C293 C 0.49515 0.78639 0.52934 0.0
C294 C 0.52445 0.77951 0.55038 0.0
C295 C 0.5001 0.83092 0.5252 0.0
C296 C 0.55888 0.81862 0.5672 0.0
C297 C 0.56406 0.86303 0.56314 0.0
H298 H 0.71247 0.58268 0.88572 0.0
H299 H 0.65399 0.47371 0.81682 0.0
H300 H 0.72122 0.46297 0.82412 0.0
H301 H 0.797 0.48409 0.8499 0.0
H302 H 0.8557 0.59246 0.91911 0.0
H303 H 0.78846 0.60355 0.91184 0.0
C304 C 0.71432 0.55659 0.87219 0.0
C305 C 0.67763 0.52921 0.85055 0.0
C306 C 0.75342 0.55035 0.8766 0.0
C307 C 0.68122 0.49551 0.83353 0.0
C308 C 0.71987 0.48927 0.83773 0.0
C309 C 0.79529 0.51022 0.86349 0.0
C310 C 0.83202 0.5374 0.88512 0.0
C311 C 0.75624 0.51643 0.85919 0.0
C312 C 0.82845 0.57092 0.90235 0.0
C313 C 0.7898 0.57732 0.89815 0.0
H314 H 0.22144 0.6808 0.21625 0.0
H315 H 0.16344 0.73351 0.14857 0.0
H316 H 0.2318 0.81031 0.15483 0.0
H317 H 0.3073 0.86416 0.17992 0.0
H318 H 0.36692 0.81494 0.24866 0.0
H319 H 0.29943 0.73626 0.24166 0.0
C320 C 0.22395 0.70899 0.2027 0.0
C321 C 0.18664 0.70067 0.18188 0.0
C322 C 0.26383 0.75427 0.20674 0.0
C323 C 0.19091 0.73823 0.16484 0.0
C324 C 0.23026 0.78254 0.1684 0.0
C325 C 0.30586 0.83639 0.19347 0.0
C326 C 0.34274 0.84616 0.21489 0.0
C327 C 0.26676 0.7912 0.18942 0.0
C328 C 0.33944 0.80905 0.23205 0.0
C329 C 0.30066 0.7638 0.22799 0.0
H330 H 0.58942 0.22375 0.52558 0.0
H331 H 0.44003 0.14769 0.51136 0.0
H332 H 0.43717 0.21802 0.52209 0.0
H333 H 0.47641 0.30187 0.53556 0.0
H334 H 0.62561 0.37866 0.54982 0.0
H335 H 0.62885 0.30814 0.53933 0.0
C336 C 0.5562 0.22248 0.52468 0.0
C337 C 0.51501 0.17974 0.51748 0.0
C338 C 0.55458 0.26359 0.53113 0.0
C339 C 0.47246 0.17949 0.51672 0.0
C340 C 0.47069 0.21996 0.52294 0.0
C341 C 0.50969 0.30327 0.53658 0.0
C342 C 0.55069 0.3461 0.54369 0.0
C343 C 0.51143 0.26229 0.53027 0.0
C344 C 0.59335 0.34662 0.54458 0.0
C345 C 0.59529 0.30608 0.53847 0.0
H346 H 0.38678 0.48016 0.85743 0.0
H347 H 0.47114 0.62727 0.84357 0.0
H348 H 0.40536 0.63792 0.85288 0.0
H349 H 0.32296 0.6058 0.86481 0.0
H350 H 0.23875 0.4588 0.87885 0.0
H351 H 0.30473 0.44824 0.8699 0.0
C352 C 0.39087 0.51458 0.85632 0.0
C353 C 0.43442 0.55271 0.84957 0.0
C354 C 0.35258 0.52071 0.86195 0.0
C355 C 0.43848 0.59702 0.84856 0.0
C356 C 0.40066 0.60326 0.85396 0.0
C357 C 0.319 0.57145 0.86612 0.0
C358 C 0.27537 0.53321 0.87267 0.0
C359 C 0.35743 0.56542 0.86072 0.0
C360 C 0.27148 0.48904 0.87399 0.0
C361 C 0.30939 0.48288 0.86877 0.0
H362 H 0.95636 0.39884 0.18754 0.0
H363 H 0.88793 0.47995 0.18063 0.0
H364 H 0.81422 0.4119 0.19106 0.0
H365 H 0.76787 0.32887 0.20283 0.0
H366 H 0.83539 0.24715 0.21112 0.0
H367 H 0.90946 0.31498 0.1998 0.0
C368 C 0.92527 0.40153 0.18799 0.0
C369 C 0.92836 0.44504 0.18302 0.0
C370 C 0.88226 0.36181 0.1946 0.0
C371 C 0.88729 0.44741 0.18426 0.0
C372 C 0.84476 0.40828 0.19032 0.0
C373 C 0.79875 0.32579 0.20232 0.0
C374 C 0.79545 0.2824 0.20802 0.0
C375 C 0.84168 0.36527 0.19574 0.0
C376 C 0.83634 0.27972 0.20704 0.0
C377 C 0.87898 0.3187 0.20041 0.0
H378 H 0.11197 0.57182 0.07658 0.0
H379 H 0.98187 0.57092 0.07357 0.0
H380 H 0.97697 0.56416 0.01825 0.0
H381 H 1.01009 0.55759 0.9702 0.0
H382 H 0.14056 0.55833 0.97614 0.0
H383 H 0.14435 0.56591 0.03033 0.0
C384 C 0.08246 0.57034 0.06399 0.0
C385 C 0.04743 0.57202 0.07948 0.0
C386 C 0.07977 0.56624 0.03235 0.0
C387 C 1.00951 0.56983 0.06241 0.0
C388 C 1.00666 0.56588 0.03069 0.0
C389 C 0.0393 0.55943 0.98331 0.0
C390 C 0.07489 0.55729 0.96849 0.0
C391 C 0.04161 0.56388 0.01528 0.0
C392 C 0.11243 0.5598 0.98633 0.0
C393 C 0.11483 0.5642 0.01762 0.0
H394 H 0.48455 0.03775 0.39568 0.0
H395 H 0.62888 0.11371 0.42712 0.0
H396 H 0.65208 0.12251 0.37504 0.0
H397 H 0.63147 0.1092 0.3204 0.0
H398 H 0.48732 0.02999 0.28899 0.0
H399 H 0.46405 0.02139 0.34102 0.0
C400 C 0.52109 0.05642 0.39113 0.0
C401 C 0.55493 0.07544 0.41537 0.0
C402 C 0.53424 0.0604 0.36106 0.0
C403 C 0.60212 0.09878 0.409 0.0
C404 C 0.61541 0.10383 0.37917 0.0
C405 C 0.59493 0.08986 0.32491 0.0
C406 C 0.56123 0.07006 0.30063 0.0
C407 C 0.5818 0.08481 0.355 0.0
C408 C 0.51408 0.04494 0.30707 0.0
C409 C 0.50072 0.04038 0.33689 0.0
H410 H 0.51056 0.58359 0.7383 0.0
H411 H 0.63955 0.58407 0.75425 0.0
H412 H 0.64794 0.5832 0.69984 0.0
H413 H 0.61414 0.57394 0.64759 0.0
H414 H 0.48899 0.58062 0.63134 0.0
H415 H 0.48365 0.58762 0.68578 0.0
C416 C 0.54101 0.58459 0.7298 0.0
C417 C 0.57436 0.58376 0.75029 0.0
C418 C 0.54602 0.58499 0.6984 0.0
C419 C 0.61366 0.58513 0.73901 0.0
C420 C 0.61825 0.58423 0.70786 0.0
C421 C 0.58628 0.57794 0.656 0.0
C422 C 0.55182 0.5765 0.6355 0.0
C423 C 0.58406 0.58297 0.68732 0.0
C424 C 0.51602 0.5819 0.64665 0.0
C425 C 0.51282 0.58557 0.6778 0.0
H426 H 0.53208 1.01372 0.61163 0.0
H427 H 0.40636 1.01325 0.58232 0.0
H428 H 0.37402 0.98494 0.63101 0.0
H429 H 0.37968 0.95674 0.68089 0.0
H430 H 0.50191 0.94986 0.70903 0.0
H431 H 0.53761 0.98498 0.66221 0.0
C432 C 0.49796 1.00804 0.61622 0.0
C433 C 0.47165 1.01568 0.59363 0.0
C434 C 0.47892 0.99036 0.64403 0.0
C435 C 0.42713 1.00747 0.59947 0.0
C436 C 0.40859 0.99123 0.62724 0.0
C437 C 0.41421 0.96307 0.67683 0.0
C438 C 0.43861 0.95196 0.69882 0.0
C439 C 0.43384 0.98185 0.64949 0.0
C440 C 0.48314 0.95995 0.69309 0.0
C441 C 0.50334 0.97945 0.66609 0.0
H442 H 0.58572 0.54678 0.94937 0.0
H443 H 0.49061 0.41385 0.90606 0.0
H444 H 0.47838 0.37628 0.95433 0.0
H445 H 0.49511 0.38035 0.0087 0.0
H446 H 0.59406 0.5114 0.05224 0.0
H447 H 0.60382 0.55046 0.00436 0.0
C448 C 0.56214 0.50969 0.95061 0.0
C449 C 0.53922 0.48324 0.92415 0.0
C450 C 0.55569 0.48789 0.97854 0.0
C451 C 0.50903 0.43507 0.92604 0.0
C452 C 0.50188 0.41344 0.95366 0.0
C453 C 0.51881 0.41747 0.00772 0.0
C454 C 0.54264 0.44315 0.03417 0.0
C455 C 0.52522 0.4394 0.98 0.0
C456 C 0.57363 0.49114 0.03247 0.0
C457 C 0.57976 0.51342 0.00498 0.0
H458 H 0.06322 0.61047 0.28243 0.0
H459 H 0.05194 0.47906 0.25841 0.0
H460 H 0.05582 0.46231 0.31121 0.0
H461 H 0.06396 0.48488 0.36435 0.0
H462 H 0.07599 0.61582 0.38956 0.0
H463 H 0.06994 0.63255 0.33642 0.0
C464 C 0.06138 0.57812 0.28878 0.0
C465 C 0.05762 0.54636 0.26635 0.0
C466 C 0.06372 0.56845 0.31948 0.0
C467 C 0.05522 0.50449 0.27505 0.0
C468 C 0.0574 0.49471 0.30533 0.0
C469 C 0.0653 0.5171 0.3582 0.0
C470 C 0.06983 0.54877 0.38079 0.0
C471 C 0.06205 0.52653 0.32771 0.0
C472 C 0.0714 0.59034 0.37254 0.0
C473 C 0.06832 0.6001 0.34215 0.0
loop_
_geom_bond_atom_site_label_1
_geom_bond_atom_site_label_2
_geom_bond_distance
_geom_bond_site_symmetry_2
_ccdc_geom_bond_type
Tb0 C10 2.825 . S
Tb0 O11 2.347 . S
Tb0 O14 2.366 . S
Tb0 O19 2.418 . S
Tb0 O20 2.384 1_455 S
Tb0 O23 2.479 . S
Tb0 O24 2.471 . S
Eu1 O12 2.418 . S
Eu1 O13 2.384 1_655 S
Eu1 O16 2.479 . S
Eu1 O17 2.471 . S
Eu1 O18 2.347 1_655 S
Eu1 O21 2.366 . S
Eu1 C31 2.825 . S
C2 O18 1.259 . S
C2 O19 1.265 . S
C3 O20 1.255 . S
C3 O21 1.265 . S
C4 C6 1.380 . S
C4 C7 1.374 . S
C4 C10 1.507 . S
C5 C6 1.384 . S
C5 C9 1.387 . S
C5 H32 0.930 . S
C6 C4 1.380 . S
C6 C5 1.384 . S
C6 H33 0.931 . S
C7 C4 1.374 . S
C7 C8 1.390 . S
C7 H34 0.930 . S
C8 C7 1.390 . S
C8 C9 1.391 . S
C8 H35 0.930 . S
C9 C5 1.387 . S
C9 C8 1.391 . S
C10 Tb0 2.825 . S
C10 C4 1.507 . S
C10 O23 1.238 . S
C10 O24 1.247 . S
O11 Tb0 2.347 . S
O11 C15 1.259 . S
O12 Eu1 2.418 . S
O12 C15 1.265 1_655 S
O13 Eu1 2.384 1_455 S
O13 C22 1.255 . S
O14 Tb0 2.366 . S
O14 C22 1.265 . S
C15 O11 1.259 . S
C15 O12 1.265 1_455 S
O16 Eu1 2.479 . S
O16 C31 1.238 . S
O17 Eu1 2.471 . S
O17 C31 1.247 . S
O18 Eu1 2.347 1_455 S
O18 C2 1.259 . S
O19 Tb0 2.418 . S
O19 C2 1.265 . S
O20 Tb0 2.384 1_655 S
O20 C3 1.255 . S
O21 Eu1 2.366 . S
O21 C3 1.265 . S
C22 O13 1.255 . S
C22 O14 1.265 . S
O23 Tb0 2.479 . S
O23 C10 1.238 . S
O24 Tb0 2.471 . S
O24 C10 1.247 . S
C25 C28 1.380 . S
C25 C29 1.374 . S
C25 C31 1.507 . S
C26 C27 1.387 . S
C26 C30 1.391 . S
C27 C26 1.387 . S
C27 C28 1.384 . S
C27 H36 0.930 . S
C28 C25 1.380 . S
C28 C27 1.384 . S
C28 H37 0.931 . S
C29 C25 1.374 . S
C29 C30 1.390 . S
C29 H38 0.930 . S
C30 C26 1.391 . S
C30 C29 1.390 . S
C30 H39 0.930 . S
C31 Eu1 2.825 . S
C31 O16 1.238 . S
C31 O17 1.247 . S
C31 C25 1.507 . S
H32 C5 0.930 . S
H33 C6 0.931 . S
H34 C7 0.930 . S
H35 C8 0.930 . S
H36 C27 0.930 . S
H37 C28 0.931 . S
H38 C29 0.930 . S
H39 C30 0.930 . S
Tb40 C50 2.825 . S
Tb40 O51 2.347 . S
Tb40 O54 2.366 . S
Tb40 O59 2.418 . S
Tb40 O60 2.384 1_545 S
Tb40 O63 2.479 . S
Tb40 O64 2.471 . S
Eu41 O52 2.418 . S
Eu41 O53 2.384 . S
Eu41 O56 2.479 1_545 S
Eu41 O57 2.471 1_545 S
Eu41 O58 2.347 . S
Eu41 O61 2.366 1_545 S
Eu41 C71 2.825 1_545 S
C42 O58 1.259 . S
C42 O59 1.265 . S
C43 O60 1.255 . S
C43 O61 1.265 . S
C44 C46 1.380 . S
C44 C47 1.374 . S
C44 C50 1.507 . S
C45 C46 1.384 . S
C45 C49 1.387 . S
C45 H72 0.930 . S
C46 C44 1.380 . S
C46 C45 1.384 . S
C46 H73 0.931 . S
C47 C44 1.374 . S
C47 C48 1.390 . S
C47 H74 0.930 . S
C48 C47 1.390 . S
C48 C49 1.391 . S
C48 H75 0.930 . S
C49 C45 1.387 . S
C49 C48 1.391 . S
C50 Tb40 2.825 . S
C50 C44 1.507 . S
C50 O63 1.238 . S
C50 O64 1.247 . S
O51 Tb40 2.347 . S
O51 C55 1.259 . S
O52 Eu41 2.418 . S
O52 C55 1.265 . S
O53 Eu41 2.384 . S
O53 C62 1.255 . S
O54 Tb40 2.366 . S
O54 C62 1.265 . S
C55 O51 1.259 . S
C55 O52 1.265 . S
O56 Eu41 2.479 1_565 S
O56 C71 1.238 . S
O57 Eu41 2.471 1_565 S
O57 C71 1.247 . S
O58 Eu41 2.347 . S
O58 C42 1.259 . S
O59 Tb40 2.418 . S
O59 C42 1.265 . S
O60 Tb40 2.384 1_565 S
O60 C43 1.255 . S
O61 Eu41 2.366 1_565 S
O61 C43 1.265 . S
C62 O53 1.255 . S
C62 O54 1.265 . S
O63 Tb40 2.479 . S
O63 C50 1.238 . S
O64 Tb40 2.471 . S
O64 C50 1.247 . S
C65 C68 1.380 . S
C65 C69 1.374 . S
C65 C71 1.507 . S
C66 C67 1.387 . S
C66 C70 1.391 . S
C67 C66 1.387 . S
C67 C68 1.384 . S
C67 H76 0.930 . S
C68 C65 1.380 . S
C68 C67 1.384 . S
C68 H77 0.931 . S
C69 C65 1.374 . S
C69 C70 1.390 . S
C69 H78 0.930 . S
C70 C66 1.391 . S
C70 C69 1.390 . S
C70 H79 0.930 . S
C71 Eu41 2.825 1_565 S
C71 O56 1.238 . S
C71 O57 1.247 . S
C71 C65 1.507 . S
H72 C45 0.930 . S
H73 C46 0.931 . S
H74 C47 0.930 . S
H75 C48 0.930 . S
H76 C67 0.930 . S
H77 C68 0.931 . S
H78 C69 0.930 . S
H79 C70 0.930 . S
Tb80 C90 2.825 . S
Tb80 O91 2.347 . S
Tb80 O94 2.366 . S
Tb80 O99 2.418 . S
Tb80 O100 2.384 . S
Tb80 O103 2.479 . S
Tb80 O104 2.471 . S
Eu81 O92 2.418 . S
Eu81 O93 2.384 . S
Eu81 O96 2.479 . S
Eu81 O97 2.471 . S
Eu81 O98 2.347 . S
Eu81 O101 2.366 . S
Eu81 C111 2.825 . S
C82 O98 1.259 . S
C82 O99 1.265 . S
C83 O100 1.255 . S
C83 O101 1.265 . S
C84 C86 1.380 . S
C84 C87 1.374 . S
C84 C90 1.507 . S
C85 C86 1.384 . S
C85 C89 1.387 . S
C85 H112 0.930 . S
C86 C84 1.380 . S
C86 C85 1.384 . S
C86 H113 0.931 . S
C87 C84 1.374 . S
C87 C88 1.390 . S
C87 H114 0.930 . S
C88 C87 1.390 . S
C88 C89 1.391 . S
C88 H115 0.930 . S
C89 C85 1.387 . S
C89 C88 1.391 . S
C90 Tb80 2.825 . S
C90 C84 1.507 . S
C90 O103 1.238 . S
C90 O104 1.247 . S
O91 Tb80 2.347 . S
O91 C95 1.259 . S
O92 Eu81 2.418 . S
O92 C95 1.265 . S
O93 Eu81 2.384 . S
O93 C102 1.255 . S
O94 Tb80 2.366 . S
O94 C102 1.265 . S
C95 O91 1.259 . S
C95 O92 1.265 . S
O96 Eu81 2.479 . S
O96 C111 1.238 . S
O97 Eu81 2.471 . S
O97 C111 1.247 . S
O98 Eu81 2.347 . S
O98 C82 1.259 . S
O99 Tb80 2.418 . S
O99 C82 1.265 . S
O100 Tb80 2.384 . S
O100 C83 1.255 . S
O101 Eu81 2.366 . S
O101 C83 1.265 . S
C102 O93 1.255 . S
C102 O94 1.265 . S
O103 Tb80 2.479 . S
O103 C90 1.238 . S
O104 Tb80 2.471 . S
O104 C90 1.247 . S
C105 C108 1.380 . S
C105 C109 1.374 . S
C105 C111 1.507 . S
C106 C107 1.387 . S
C106 C110 1.391 . S
C107 C106 1.387 . S
C107 C108 1.384 . S
C107 H116 0.930 . S
C108 C105 1.380 . S
C108 C107 1.384 . S
C108 H117 0.931 . S
C109 C105 1.374 . S
C109 C110 1.390 . S
C109 H118 0.930 . S
C110 C106 1.391 . S
C110 C109 1.390 . S
C110 H119 0.930 . S
C111 Eu81 2.825 . S
C111 O96 1.238 . S
C111 O97 1.247 . S
C111 C105 1.507 . S
H112 C85 0.930 . S
H113 C86 0.931 . S
H114 C87 0.930 . S
H115 C88 0.930 . S
H116 C107 0.930 . S
H117 C108 0.931 . S
H118 C109 0.930 . S
H119 C110 0.930 . S
O120 Cd121 2.300 . S
O120 C127 1.275 . S
Cd121 O120 2.300 . S
Cd121 O129 2.381 . S
Cd121 O130 2.378 . S
O122 Cd123 2.385 . S
O122 C127 1.255 1_565 S
Cd123 O122 2.385 . S
Cd123 O124 2.317 . S
O124 Cd123 2.317 . S
O124 C125 1.232 . S
C125 O124 1.232 . S
C125 O126 1.218 . S
O126 C125 1.218 . S
C127 O120 1.275 . S
C127 O122 1.255 1_545 S
C128 O129 1.258 . S
C128 O130 1.256 . S
O129 Cd121 2.381 . S
O129 C128 1.258 . S
O130 Cd121 2.378 . S
O130 C128 1.256 . S
O131 Cd132 2.300 . S
O131 C138 1.275 . S
Cd132 O131 2.300 . S
Cd132 O140 2.381 . S
Cd132 O141 2.378 . S
O133 Cd134 2.385 . S
O133 C138 1.255 . S
Cd134 O133 2.385 . S
Cd134 O135 2.317 . S
O135 Cd134 2.317 . S
O135 C136 1.232 . S
C136 O135 1.232 . S
C136 O137 1.218 . S
O137 C136 1.218 . S
C138 O131 1.275 . S
C138 O133 1.255 . S
C139 O140 1.258 . S
C139 O141 1.256 . S
O140 Cd132 2.381 . S
O140 C139 1.258 . S
O141 Cd132 2.378 . S
O141 C139 1.256 . S
O142 Cd143 2.300 . S
O142 C149 1.275 . S
Cd143 O142 2.300 . S
Cd143 O151 2.381 . S
Cd143 O152 2.378 . S
O144 Cd145 2.385 . S
O144 C149 1.255 1_655 S
Cd145 O144 2.385 . S
Cd145 O146 2.317 . S
O146 Cd145 2.317 . S
O146 C147 1.232 . S
C147 O146 1.232 . S
C147 O148 1.218 . S
O148 C147 1.218 . S
C149 O142 1.275 . S
C149 O144 1.255 1_455 S
C150 O151 1.258 . S
C150 O152 1.256 . S
O151 Cd143 2.381 . S
O151 C150 1.258 . S
O152 Cd143 2.378 . S
O152 C150 1.256 . S
O153 Cd154 2.300 . S
O153 C160 1.290 . S
Cd154 O153 2.300 . S
Cd154 O162 2.381 . S
Cd154 O163 2.378 . S
O155 Cd156 2.385 . S
O155 C160 1.238 1_655 S
Cd156 O155 2.385 . S
Cd156 O157 2.317 . S
O157 Cd156 2.317 . S
O157 C158 1.232 . S
C158 O157 1.232 . S
C158 O159 1.218 . S
O159 C158 1.218 . S
C160 O153 1.290 . S
C160 O155 1.238 1_455 S
C161 O162 1.258 . S
C161 O163 1.256 . S
O162 Cd154 2.381 . S
O162 C161 1.258 . S
O163 Cd154 2.378 . S
O163 C161 1.256 . S
O164 Cd165 2.300 . S
O164 C171 1.275 1_565 S
Cd165 O164 2.300 . S
Cd165 O173 2.381 . S
Cd165 O174 2.378 . S
O166 Cd167 2.385 . S
O166 C171 1.255 . S
Cd167 O166 2.385 . S
Cd167 O168 2.317 . S
O168 Cd167 2.317 . S
O168 C169 1.232 . S
C169 O168 1.232 . S
C169 O170 1.218 . S
O170 C169 1.218 . S
C171 O164 1.275 1_545 S
C171 O166 1.255 . S
C172 O173 1.258 . S
C172 O174 1.256 . S
O173 Cd165 2.381 . S
O173 C172 1.258 . S
O174 Cd165 2.378 . S
O174 C172 1.256 . S
O175 Cd176 2.300 . S
O175 C182 1.275 . S
Cd176 O175 2.300 . S
Cd176 O184 2.381 . S
Cd176 O185 2.378 . S
O177 Cd178 2.385 . S
O177 C182 1.255 . S
Cd178 O177 2.385 . S
Cd178 O179 2.317 . S
O179 Cd178 2.317 . S
O179 C180 1.232 . S
C180 O179 1.232 . S
C180 O181 1.218 . S
O181 C180 1.218 . S
C182 O175 1.275 . S
C182 O177 1.255 . S
C183 O184 1.258 . S
C183 O185 1.256 . S
O184 Cd176 2.381 . S
O184 C183 1.258 . S
O185 Cd176 2.378 . S
O185 C183 1.256 . S
H186 C192 0.930 . S
H187 C195 0.930 . S
H188 C196 0.930 . S
H189 C197 0.930 . S
H190 C200 0.930 . S
H191 C201 0.930 . S
C192 H186 0.930 . S
C192 C193 1.355 . S
C192 C194 1.415 . S
C193 C192 1.355 . S
C193 C195 1.419 . S
C194 C192 1.415 . S
C194 C199 1.425 . S
C194 C201 1.409 . S
C195 H187 0.930 . S
C195 C193 1.419 . S
C195 C196 1.362 . S
C196 H188 0.930 . S
C196 C195 1.362 . S
C196 C199 1.409 . S
C197 H189 0.930 . S
C197 C198 1.355 . S
C197 C199 1.415 . S
C198 C197 1.355 . S
C198 C200 1.419 . S
C199 C194 1.425 . S
C199 C196 1.409 . S
C199 C197 1.415 . S
C200 H190 0.930 . S
C200 C198 1.419 . S
C200 C201 1.362 . S
C201 H191 0.930 . S
C201 C194 1.409 . S
C201 C200 1.362 . S
H202 C208 0.930 . S
H203 C211 0.930 . S
H204 C212 0.930 . S
H205 C213 0.930 . S
H206 C216 0.930 . S
H207 C217 0.930 . S
C208 H202 0.930 . S
C208 C209 1.355 . S
C208 C210 1.415 . S
C209 C208 1.355 . S
C209 C211 1.419 . S
C210 C208 1.415 . S
C210 C215 1.425 . S
C210 C217 1.409 . S
C211 H203 0.930 . S
C211 C209 1.419 . S
C211 C212 1.362 . S
C212 H204 0.930 . S
C212 C211 1.362 . S
C212 C215 1.409 . S
C213 H205 0.930 . S
C213 C214 1.355 . S
C213 C215 1.415 . S
C214 C213 1.355 . S
C214 C216 1.419 . S
C215 C210 1.425 . S
C215 C212 1.409 . S
C215 C213 1.415 . S
C216 H206 0.930 . S
C216 C214 1.419 . S
C216 C217 1.362 . S
C217 H207 0.930 . S
C217 C210 1.409 . S
C217 C216 1.362 . S
H218 C224 0.930 . S
H219 C227 0.930 . S
H220 C228 0.930 . S
H221 C229 0.930 . S
H222 C232 0.930 . S
H223 C233 0.930 . S
C224 H218 0.930 . S
C224 C225 1.355 . S
C224 C226 1.415 . S
C225 C224 1.355 . S
C225 C227 1.419 . S
C226 C224 1.415 . S
C226 C231 1.425 . S
C226 C233 1.409 . S
C227 H219 0.930 . S
C227 C225 1.419 . S
C227 C228 1.362 . S
C228 H220 0.930 . S
C228 C227 1.362 . S
C228 C231 1.409 . S
C229 H221 0.930 . S
C229 C230 1.355 . S
C229 C231 1.415 . S
C230 C229 1.355 . S
C230 C232 1.419 . S
C231 C226 1.425 . S
C231 C228 1.409 . S
C231 C229 1.415 . S
C232 H222 0.930 . S
C232 C230 1.419 . S
C232 C233 1.362 . S
C233 H223 0.930 . S
C233 C226 1.409 . S
C233 C232 1.362 . S
H234 C240 0.930 . S
H235 C243 0.930 . S
H236 C244 0.930 . S
H237 C245 0.930 . S
H238 C248 0.930 . S
H239 C249 0.930 . S
C240 H234 0.930 . S
C240 C241 1.355 . S
C240 C242 1.415 . S
C241 C240 1.355 . S
C241 C243 1.419 . S
C242 C240 1.415 . S
C242 C247 1.425 . S
C242 C249 1.409 . S
C243 H235 0.930 . S
C243 C241 1.419 . S
C243 C244 1.362 . S
C244 H236 0.930 . S
C244 C243 1.362 . S
C244 C247 1.409 . S
C245 H237 0.930 . S
C245 C246 1.355 . S
C245 C247 1.415 . S
C246 C245 1.355 . S
C246 C248 1.419 . S
C247 C242 1.425 . S
C247 C244 1.409 . S
C247 C245 1.415 . S
C248 H238 0.930 . S
C248 C246 1.419 . S
C248 C249 1.362 . S
C249 H239 0.930 . S
C249 C242 1.409 . S
C249 C248 1.362 . S
H250 C256 0.930 . S
H251 C259 0.930 . S
H252 C260 0.930 . S
H253 C261 0.930 . S
H254 C264 0.930 . S
H255 C265 0.930 . S
C256 H250 0.930 . S
C256 C257 1.355 . S
C256 C258 1.415 . S
C257 C256 1.355 . S
C257 C259 1.419 . S
C258 C256 1.415 . S
C258 C263 1.425 . S
C258 C265 1.409 . S
C259 H251 0.930 . S
C259 C257 1.419 . S
C259 C260 1.362 . S
C260 H252 0.930 . S
C260 C259 1.362 . S
C260 C263 1.409 . S
C261 H253 0.930 . S
C261 C262 1.355 . S
C261 C263 1.415 . S
C262 C261 1.355 . S
C262 C264 1.419 . S
C263 C258 1.425 . S
C263 C260 1.409 . S
C263 C261 1.415 . S
C264 H254 0.930 . S
C264 C262 1.419 . S
C264 C265 1.362 . S
C265 H255 0.930 . S
C265 C258 1.409 . S
C265 C264 1.362 . S
H266 C272 0.930 . S
H267 C275 0.930 . S
H268 C276 0.930 . S
H269 C277 0.930 . S
H270 C280 0.930 . S
H271 C281 0.930 . S
C272 H266 0.930 . S
C272 C273 1.355 . S
C272 C274 1.415 . S
C273 C272 1.355 . S
C273 C275 1.419 . S
C274 C272 1.415 . S
C274 C279 1.425 . S
C274 C281 1.409 . S
C275 H267 0.930 . S
C275 C273 1.419 . S
C275 C276 1.362 . S
C276 H268 0.930 . S
C276 C275 1.362 . S
C276 C279 1.409 . S
C277 H269 0.930 . S
C277 C278 1.355 . S
C277 C279 1.415 . S
C278 C277 1.355 . S
C278 C280 1.419 . S
C279 C274 1.425 . S
C279 C276 1.409 . S
C279 C277 1.415 . S
C280 H270 0.930 . S
C280 C278 1.419 . S
C280 C281 1.362 . S
C281 H271 0.930 . S
C281 C274 1.409 . S
C281 C280 1.362 . S
H282 C288 0.930 . S
H283 C291 0.930 . S
H284 C292 0.930 . S
H285 C293 0.930 . S
H286 C296 0.930 . S
H287 C297 0.930 . S
C288 H282 0.930 . S
C288 C289 1.355 . S
C288 C290 1.415 . S
C289 C288 1.355 . S
C289 C291 1.419 . S
C290 C288 1.415 . S
C290 C295 1.425 . S
C290 C297 1.409 . S
C291 H283 0.930 . S
C291 C289 1.419 . S
C291 C292 1.362 . S
C292 H284 0.930 . S
C292 C291 1.362 . S
C292 C295 1.409 . S
C293 H285 0.930 . S
C293 C294 1.355 . S
C293 C295 1.415 . S
C294 C293 1.355 . S
C294 C296 1.419 . S
C295 C290 1.425 . S
C295 C292 1.409 . S
C295 C293 1.415 . S
C296 H286 0.930 . S
C296 C294 1.419 . S
C296 C297 1.362 . S
C297 H287 0.930 . S
C297 C290 1.409 . S
C297 C296 1.362 . S
H298 C304 0.930 . S
H299 C307 0.930 . S
H300 C308 0.930 . S
H301 C309 0.930 . S
H302 C312 0.930 . S
H303 C313 0.930 . S
C304 H298 0.930 . S
C304 C305 1.355 . S
C304 C306 1.415 . S
C305 C304 1.355 . S
C305 C307 1.419 . S
C306 C304 1.415 . S
C306 C311 1.425 . S
C306 C313 1.409 . S
C307 H299 0.930 . S
C307 C305 1.419 . S
C307 C308 1.362 . S
C308 H300 0.930 . S
C308 C307 1.362 . S
C308 C311 1.409 . S
C309 H301 0.930 . S
C309 C310 1.355 . S
C309 C311 1.415 . S
C310 C309 1.355 . S
C310 C312 1.419 . S
C311 C306 1.425 . S
C311 C308 1.409 . S
C311 C309 1.415 . S
C312 H302 0.930 . S
C312 C310 1.419 . S
C312 C313 1.362 . S
C313 H303 0.930 . S
C313 C306 1.409 . S
C313 C312 1.362 . S
H314 C320 0.930 . S
H315 C323 0.930 . S
H316 C324 0.930 . S
H317 C325 0.930 . S
H318 C328 0.930 . S
H319 C329 0.930 . S
C320 H314 0.930 . S
C320 C321 1.355 . S
C320 C322 1.415 . S
C321 C320 1.355 . S
C321 C323 1.419 . S
C322 C320 1.415 . S
C322 C327 1.425 . S
C322 C329 1.409 . S
C323 H315 0.930 . S
C323 C321 1.419 . S
C323 C324 1.362 . S
C324 H316 0.930 . S
C324 C323 1.362 . S
C324 C327 1.409 . S
C325 H317 0.930 . S
C325 C326 1.355 . S
C325 C327 1.415 . S
C326 C325 1.355 . S
C326 C328 1.419 . S
C327 C322 1.425 . S
C327 C324 1.409 . S
C327 C325 1.415 . S
C328 H318 0.930 . S
C328 C326 1.419 . S
C328 C329 1.362 . S
C329 H319 0.930 . S
C329 C322 1.409 . S
C329 C328 1.362 . S
H330 C336 0.930 . S
H331 C339 0.930 . S
H332 C340 0.930 . S
H333 C341 0.930 . S
H334 C344 0.930 . S
H335 C345 0.930 . S
C336 H330 0.930 . S
C336 C337 1.355 . S
C336 C338 1.415 . S
C337 C336 1.355 . S
C337 C339 1.419 . S
C338 C336 1.415 . S
C338 C343 1.425 . S
C338 C345 1.409 . S
C339 H331 0.930 . S
C339 C337 1.419 . S
C339 C340 1.362 . S
C340 H332 0.930 . S
C340 C339 1.362 . S
C340 C343 1.409 . S
C341 H333 0.930 . S
C341 C342 1.355 . S
C341 C343 1.415 . S
C342 C341 1.355 . S
C342 C344 1.419 . S
C343 C338 1.425 . S
C343 C340 1.409 . S
C343 C341 1.415 . S
C344 H334 0.930 . S
C344 C342 1.419 . S
C344 C345 1.362 . S
C345 H335 0.930 . S
C345 C338 1.409 . S
C345 C344 1.362 . S
H346 C352 0.930 . S
H347 C355 0.930 . S
H348 C356 0.930 . S
H349 C357 0.930 . S
H350 C360 0.930 . S
H351 C361 0.930 . S
C352 H346 0.930 . S
C352 C353 1.355 . S
C352 C354 1.415 . S
C353 C352 1.355 . S
C353 C355 1.419 . S
C354 C352 1.415 . S
C354 C359 1.425 . S
C354 C361 1.409 . S
C355 H347 0.930 . S
C355 C353 1.419 . S
C355 C356 1.362 . S
C356 H348 0.930 . S
C356 C355 1.362 . S
C356 C359 1.409 . S
C357 H349 0.930 . S
C357 C358 1.355 . S
C357 C359 1.415 . S
C358 C357 1.355 . S
C358 C360 1.419 . S
C359 C354 1.425 . S
C359 C356 1.409 . S
C359 C357 1.415 . S
C360 H350 0.930 . S
C360 C358 1.419 . S
C360 C361 1.362 . S
C361 H351 0.930 . S
C361 C354 1.409 . S
C361 C360 1.362 . S
H362 C368 0.930 . S
H363 C371 0.930 . S
H364 C372 0.930 . S
H365 C373 0.930 . S
H366 C376 0.930 . S
H367 C377 0.930 . S
C368 H362 0.930 . S
C368 C369 1.355 . S
C368 C370 1.415 . S
C369 C368 1.355 . S
C369 C371 1.419 . S
C370 C368 1.415 . S
C370 C375 1.425 . S
C370 C377 1.409 . S
C371 H363 0.930 . S
C371 C369 1.419 . S
C371 C372 1.362 . S
C372 H364 0.930 . S
C372 C371 1.362 . S
C372 C375 1.409 . S
C373 H365 0.930 . S
C373 C374 1.355 . S
C373 C375 1.415 . S
C374 C373 1.355 . S
C374 C376 1.419 . S
C375 C370 1.425 . S
C375 C372 1.409 . S
C375 C373 1.415 . S
C376 H366 0.930 . S
C376 C374 1.419 . S
C376 C377 1.362 . S
C377 H367 0.930 . S
C377 C370 1.409 . S
C377 C376 1.362 . S
H378 C384 0.930 . S
H379 C387 0.930 . S
H380 C388 0.930 . S
H381 C389 0.930 . S
H382 C392 0.930 . S
H383 C393 0.930 . S
C384 H378 0.930 . S
C384 C385 1.355 . S
C384 C386 1.415 . S
C385 C384 1.355 . S
C385 C387 1.419 1_455 S
C386 C384 1.415 . S
C386 C391 1.425 1_455 S
C386 C393 1.409 . S
C387 H379 0.930 . S
C387 C385 1.419 1_655 S
C387 C388 1.362 . S
C388 H380 0.930 . S
C388 C387 1.362 . S
C388 C391 1.409 . S
C389 H381 0.930 . S
C389 C390 1.355 1_655 S
C389 C391 1.415 1_556 S
C390 C389 1.355 1_455 S
C390 C392 1.419 . S
C391 C386 1.425 1_655 S
C391 C388 1.409 . S
C391 C389 1.415 1_554 S
C392 H382 0.930 . S
C392 C390 1.419 . S
C392 C393 1.362 1_556 S
C393 H383 0.930 . S
C393 C386 1.409 . S
C393 C392 1.362 1_554 S
H394 C400 0.930 1_565 S
H395 C403 0.930 . S
H396 C404 0.930 . S
H397 C405 0.930 . S
H398 C408 0.930 . S
H399 C409 0.930 . S
C400 H394 0.930 1_545 S
C400 C401 1.355 . S
C400 C402 1.415 . S
C401 C400 1.355 . S
C401 C403 1.419 . S
C402 C400 1.415 . S
C402 C407 1.425 . S
C402 C409 1.409 1_545 S
C403 H395 0.930 . S
C403 C401 1.419 . S
C403 C404 1.362 . S
C404 H396 0.930 . S
C404 C403 1.362 . S
C404 C407 1.409 . S
C405 H397 0.930 . S
C405 C406 1.355 . S
C405 C407 1.415 . S
C406 C405 1.355 . S
C406 C408 1.419 1_545 S
C407 C402 1.425 . S
C407 C404 1.409 . S
C407 C405 1.415 . S
C408 H398 0.930 . S
C408 C406 1.419 1_565 S
C408 C409 1.362 . S
C409 H399 0.930 . S
C409 C402 1.409 1_565 S
C409 C408 1.362 . S
H410 C416 0.930 . S
H411 C419 0.930 . S
H412 C420 0.930 . S
H413 C421 0.930 . S
H414 C424 0.930 . S
H415 C425 0.930 . S
C416 H410 0.930 . S
C416 C417 1.355 . S
C416 C418 1.415 . S
C417 C416 1.355 . S
C417 C419 1.419 . S
C418 C416 1.415 . S
C418 C423 1.425 . S
C418 C425 1.409 . S
C419 H411 0.930 . S
C419 C417 1.419 . S
C419 C420 1.362 . S
C420 H412 0.930 . S
C420 C419 1.362 . S
C420 C423 1.409 . S
C421 H413 0.930 . S
C421 C422 1.355 . S
C421 C423 1.415 . S
C422 C421 1.355 . S
C422 C424 1.419 . S
C423 C418 1.425 . S
C423 C420 1.409 . S
C423 C421 1.415 . S
C424 H414 0.930 . S
C424 C422 1.419 . S
C424 C425 1.362 . S
C425 H415 0.930 . S
C425 C418 1.409 . S
C425 C424 1.362 . S
H426 C432 0.930 . S
H427 C435 0.930 . S
H428 C436 0.930 . S
H429 C437 0.930 1_565 S
H430 C440 0.930 . S
H431 C441 0.930 . S
C432 H426 0.930 . S
C432 C433 1.355 . S
C432 C434 1.415 . S
C433 C432 1.355 . S
C433 C435 1.419 1_545 S
C434 C432 1.415 . S
C434 C439 1.425 . S
C434 C441 1.409 . S
C435 H427 0.930 . S
C435 C433 1.419 1_565 S
C435 C436 1.362 . S
C436 H428 0.930 . S
C436 C435 1.362 . S
C436 C439 1.409 1_565 S
C437 H429 0.930 1_545 S
C437 C438 1.354 . S
C437 C439 1.415 . S
C438 C437 1.354 . S
C438 C440 1.419 . S
C439 C434 1.425 . S
C439 C436 1.409 1_545 S
C439 C437 1.415 . S
C440 H430 0.930 . S
C440 C438 1.419 . S
C440 C441 1.362 . S
C441 H431 0.930 . S
C441 C434 1.409 . S
C441 C440 1.362 . S
H442 C448 0.930 . S
H443 C451 0.930 . S
H444 C452 0.930 . S
H445 C453 0.930 . S
H446 C456 0.930 . S
H447 C457 0.926 1_556 S
C448 H442 0.930 . S
C448 C449 1.355 . S
C448 C450 1.415 . S
C449 C448 1.355 . S
C449 C451 1.419 . S
C450 C448 1.415 . S
C450 C455 1.425 . S
C450 C457 1.390 1_556 S
C451 H443 0.930 . S
C451 C449 1.419 . S
C451 C452 1.362 . S
C452 H444 0.930 . S
C452 C451 1.362 . S
C452 C455 1.409 . S
C453 H445 0.930 . S
C453 C454 1.355 . S
C453 C455 1.415 1_554 S
C454 C453 1.355 . S
C454 C456 1.419 . S
C455 C450 1.425 . S
C455 C452 1.409 . S
C455 C453 1.415 1_556 S
C456 H446 0.930 . S
C456 C454 1.419 . S
C456 C457 1.385 . S
C457 H447 0.926 1_554 S
C457 C450 1.390 1_554 S
C457 C456 1.385 . S
H458 C464 0.930 . S
H459 C467 0.930 1_655 S
H460 C468 0.930 . S
H461 C469 0.930 . S
H462 C472 0.930 . S
H463 C473 0.930 . S
C464 H458 0.930 . S
C464 C465 1.355 . S
C464 C466 1.415 . S
C465 C464 1.355 . S
C465 C467 1.419 . S
C466 C464 1.415 . S
C466 C471 1.427 1_455 S
C466 C473 1.409 . S
C467 H459 0.930 1_455 S
C467 C465 1.419 . S
C467 C468 1.362 1_455 S
C468 H460 0.930 . S
C468 C467 1.362 1_655 S
C468 C471 1.403 . S
C469 H461 0.930 . S
C469 C470 1.355 . S
C469 C471 1.419 . S
C470 C469 1.355 . S
C470 C472 1.419 1_655 S
C471 C466 1.427 1_655 S
C471 C468 1.403 . S
C471 C469 1.419 . S
C472 H462 0.930 . S
C472 C470 1.419 1_455 S
C472 C473 1.362 . S
C473 H463 0.930 . S
C473 C466 1.409 . S
C473 C472 1.362 . S
C193 C9 0.684 . S
C198 C180 0.777 . S
C209 C49 0.385 . S
C214 C158 0.528 . S
C225 C89 0.141 . S
C230 C172 0.430 . S
C241 C26 0.504 . S
C246 C183 0.333 . S
C262 C161 0.274 . S
C257 C66 0.329 . S
C278 C169 0.717 . S
C273 C106 0.525 . S
C289 C43 3.154 . S
C294 C136 2.832 . S
C305 C83 3.236 . S
C310 C147 2.870 . S
C321 C22 3.268 . S
C326 C125 2.886 . S
C342 C139 2.947 . S
C337 C62 3.019 . S
C358 C150 2.862 . S
C353 C102 2.921 . S
C369 C3 2.887 . S
C374 C128 2.798 . S
C390 C149 1.635 . S
C385 C15 1.651 . S
C401 C55 1.707 . S
C406 C127 1.678 . S
C417 C95 1.748 . S
C422 C138 1.647 . S
C438 C171 1.127 . S
C433 C42 1.195 . S
C454 C182 1.105 . S
C449 C82 1.227 . S
C465 C2 1.168 . S
C470 C160 1.116 1_655 S
