# Generated by pormake.
# Topology gar, (4,6)-cn, num edge types: 1
# Building blocks:
#     Node 0, Type 0, BuildingBlock: QUQFOY_clean_sbu_3, # of connection points: 4
#     Node 1, Type 0, BuildingBlock: QUQFOY_clean_sbu_3, # of connection points: 4
#     Node 2, Type 0, BuildingBlock: QUQFOY_clean_sbu_3, # of connection points: 4
#     Node 3, Type 0, BuildingBlock: QUQFOY_clean_sbu_3, # of connection points: 4
#     Node 4, Type 0, BuildingBlock: QUQFOY_clean_sbu_3, # of connection points: 4
#     Node 5, Type 0, BuildingBlock: QUQFOY_clean_sbu_3, # of connection points: 4
#     Node 6, Type 0, BuildingBlock: QUQFOY_clean_sbu_3, # of connection points: 4
#     Node 7, Type 0, BuildingBlock: QUQFOY_clean_sbu_3, # of connection points: 4
#     Node 8, Type 0, BuildingBlock: QUQFOY_clean_sbu_3, # of connection points: 4
#     Node 9, Type 0, BuildingBlock: QUQFOY_clean_sbu_3, # of connection points: 4
#     Node 10, Type 0, BuildingBlock: QUQFOY_clean_sbu_3, # of connection points: 4
#     Node 11, Type 0, BuildingBlock: QUQFOY_clean_sbu_3, # of connection points: 4
#     Node 12, Type 0, BuildingBlock: QUQFOY_clean_sbu_3, # of connection points: 4
#     Node 13, Type 0, BuildingBlock: QUQFOY_clean_sbu_3, # of connection points: 4
#     Node 14, Type 0, BuildingBlock: QUQFOY_clean_sbu_3, # of connection points: 4
#     Node 15, Type 0, BuildingBlock: QUQFOY_clean_sbu_3, # of connection points: 4
#     Node 16, Type 0, BuildingBlock: QUQFOY_clean_sbu_3, # of connection points: 4
#     Node 17, Type 0, BuildingBlock: QUQFOY_clean_sbu_3, # of connection points: 4
#     Node 18, Type 0, BuildingBlock: QUQFOY_clean_sbu_3, # of connection points: 4
#     Node 19, Type 0, BuildingBlock: QUQFOY_clean_sbu_3, # of connection points: 4
#     Node 20, Type 0, BuildingBlock: QUQFOY_clean_sbu_3, # of connection points: 4
#     Node 21, Type 0, BuildingBlock: QUQFOY_clean_sbu_3, # of connection points: 4
#     Node 22, Type 0, BuildingBlock: QUQFOY_clean_sbu_3, # of connection points: 4
#     Node 23, Type 0, BuildingBlock: QUQFOY_clean_sbu_3, # of connection points: 4
#     Node 24, Type 1, BuildingBlock: PAMTUU_clean_sbu_0, # of connection points: 6
#     Node 25, Type 1, BuildingBlock: PAMTUU_clean_sbu_0, # of connection points: 6
#     Node 26, Type 1, BuildingBlock: PAMTUU_clean_sbu_0, # of connection points: 6
#     Node 27, Type 1, BuildingBlock: PAMTUU_clean_sbu_0, # of connection points: 6
#     Node 28, Type 1, BuildingBlock: PAMTUU_clean_sbu_0, # of connection points: 6
#     Node 29, Type 1, BuildingBlock: PAMTUU_clean_sbu_0, # of connection points: 6
#     Node 30, Type 1, BuildingBlock: PAMTUU_clean_sbu_0, # of connection points: 6
#     Node 31, Type 1, BuildingBlock: PAMTUU_clean_sbu_0, # of connection points: 6
#     Node 32, Type 1, BuildingBlock: PAMTUU_clean_sbu_0, # of connection points: 6
#     Node 33, Type 1, BuildingBlock: PAMTUU_clean_sbu_0, # of connection points: 6
#     Node 34, Type 1, BuildingBlock: PAMTUU_clean_sbu_0, # of connection points: 6
#     Node 35, Type 1, BuildingBlock: PAMTUU_clean_sbu_0, # of connection points: 6
#     Node 36, Type 1, BuildingBlock: PAMTUU_clean_sbu_0, # of connection points: 6
#     Node 37, Type 1, BuildingBlock: PAMTUU_clean_sbu_0, # of connection points: 6
#     Node 38, Type 1, BuildingBlock: PAMTUU_clean_sbu_0, # of connection points: 6
#     Node 39, Type 1, BuildingBlock: PAMTUU_clean_sbu_0, # of connection points: 6
#     Edge 40, Type (0, 1), BuildingBlock: TEMPAE_clean_linker_10, # of connection points: 2
#     Edge 41, Type (0, 1), BuildingBlock: TEMPAE_clean_linker_10, # of connection points: 2
#     Edge 42, Type (0, 1), BuildingBlock: TEMPAE_clean_linker_10, # of connection points: 2
#     Edge 43, Type (0, 1), BuildingBlock: TEMPAE_clean_linker_10, # of connection points: 2
#     Edge 44, Type (0, 1), BuildingBlock: TEMPAE_clean_linker_10, # of connection points: 2
#     Edge 45, Type (0, 1), BuildingBlock: TEMPAE_clean_linker_10, # of connection points: 2
#     Edge 46, Type (0, 1), BuildingBlock: TEMPAE_clean_linker_10, # of connection points: 2
#     Edge 47, Type (0, 1), BuildingBlock: TEMPAE_clean_linker_10, # of connection points: 2
#     Edge 48, Type (0, 1), BuildingBlock: TEMPAE_clean_linker_10, # of connection points: 2
#     Edge 49, Type (0, 1), BuildingBlock: TEMPAE_clean_linker_10, # of connection points: 2
#     Edge 50, Type (0, 1), BuildingBlock: TEMPAE_clean_linker_10, # of connection points: 2
#     Edge 51, Type (0, 1), BuildingBlock: TEMPAE_clean_linker_10, # of connection points: 2
#     Edge 52, Type (0, 1), BuildingBlock: TEMPAE_clean_linker_10, # of connection points: 2
#     Edge 53, Type (0, 1), BuildingBlock: TEMPAE_clean_linker_10, # of connection points: 2
#     Edge 54, Type (0, 1), BuildingBlock: TEMPAE_clean_linker_10, # of connection points: 2
#     Edge 55, Type (0, 1), BuildingBlock: TEMPAE_clean_linker_10, # of connection points: 2
#     Edge 56, Type (0, 1), BuildingBlock: TEMPAE_clean_linker_10, # of connection points: 2
#     Edge 57, Type (0, 1), BuildingBlock: TEMPAE_clean_linker_10, # of connection points: 2
#     Edge 58, Type (0, 1), BuildingBlock: TEMPAE_clean_linker_10, # of connection points: 2
#     Edge 59, Type (0, 1), BuildingBlock: TEMPAE_clean_linker_10, # of connection points: 2
#     Edge 60, Type (0, 1), BuildingBlock: TEMPAE_clean_linker_10, # of connection points: 2
#     Edge 61, Type (0, 1), BuildingBlock: TEMPAE_clean_linker_10, # of connection points: 2
#     Edge 62, Type (0, 1), BuildingBlock: TEMPAE_clean_linker_10, # of connection points: 2
#     Edge 63, Type (0, 1), BuildingBlock: TEMPAE_clean_linker_10, # of connection points: 2
#     Edge 64, Type (0, 1), BuildingBlock: TEMPAE_clean_linker_10, # of connection points: 2
#     Edge 65, Type (0, 1), BuildingBlock: TEMPAE_clean_linker_10, # of connection points: 2
#     Edge 66, Type (0, 1), BuildingBlock: TEMPAE_clean_linker_10, # of connection points: 2
#     Edge 67, Type (0, 1), BuildingBlock: TEMPAE_clean_linker_10, # of connection points: 2
#     Edge 68, Type (0, 1), BuildingBlock: TEMPAE_clean_linker_10, # of connection points: 2
#     Edge 69, Type (0, 1), BuildingBlock: TEMPAE_clean_linker_10, # of connection points: 2
#     Edge 70, Type (0, 1), BuildingBlock: TEMPAE_clean_linker_10, # of connection points: 2
#     Edge 71, Type (0, 1), BuildingBlock: TEMPAE_clean_linker_10, # of connection points: 2
#     Edge 72, Type (0, 1), BuildingBlock: TEMPAE_clean_linker_10, # of connection points: 2
#     Edge 73, Type (0, 1), BuildingBlock: TEMPAE_clean_linker_10, # of connection points: 2
#     Edge 74, Type (0, 1), BuildingBlock: TEMPAE_clean_linker_10, # of connection points: 2
#     Edge 75, Type (0, 1), BuildingBlock: TEMPAE_clean_linker_10, # of connection points: 2
#     Edge 76, Type (0, 1), BuildingBlock: TEMPAE_clean_linker_10, # of connection points: 2
#     Edge 77, Type (0, 1), BuildingBlock: TEMPAE_clean_linker_10, # of connection points: 2
#     Edge 78, Type (0, 1), BuildingBlock: TEMPAE_clean_linker_10, # of connection points: 2
#     Edge 79, Type (0, 1), BuildingBlock: TEMPAE_clean_linker_10, # of connection points: 2
#     Edge 80, Type (0, 1), BuildingBlock: TEMPAE_clean_linker_10, # of connection points: 2
#     Edge 81, Type (0, 1), BuildingBlock: TEMPAE_clean_linker_10, # of connection points: 2
#     Edge 82, Type (0, 1), BuildingBlock: TEMPAE_clean_linker_10, # of connection points: 2
#     Edge 83, Type (0, 1), BuildingBlock: TEMPAE_clean_linker_10, # of connection points: 2
#     Edge 84, Type (0, 1), BuildingBlock: TEMPAE_clean_linker_10, # of connection points: 2
#     Edge 85, Type (0, 1), BuildingBlock: TEMPAE_clean_linker_10, # of connection points: 2
#     Edge 86, Type (0, 1), BuildingBlock: TEMPAE_clean_linker_10, # of connection points: 2
#     Edge 87, Type (0, 1), BuildingBlock: TEMPAE_clean_linker_10, # of connection points: 2
#     Edge 88, Type (0, 1), BuildingBlock: TEMPAE_clean_linker_10, # of connection points: 2
#     Edge 89, Type (0, 1), BuildingBlock: TEMPAE_clean_linker_10, # of connection points: 2
#     Edge 90, Type (0, 1), BuildingBlock: TEMPAE_clean_linker_10, # of connection points: 2
#     Edge 91, Type (0, 1), BuildingBlock: TEMPAE_clean_linker_10, # of connection points: 2
#     Edge 92, Type (0, 1), BuildingBlock: TEMPAE_clean_linker_10, # of connection points: 2
#     Edge 93, Type (0, 1), BuildingBlock: TEMPAE_clean_linker_10, # of connection points: 2
#     Edge 94, Type (0, 1), BuildingBlock: TEMPAE_clean_linker_10, # of connection points: 2
#     Edge 95, Type (0, 1), BuildingBlock: TEMPAE_clean_linker_10, # of connection points: 2
#     Edge 96, Type (0, 1), BuildingBlock: TEMPAE_clean_linker_10, # of connection points: 2
#     Edge 97, Type (0, 1), BuildingBlock: TEMPAE_clean_linker_10, # of connection points: 2
#     Edge 98, Type (0, 1), BuildingBlock: TEMPAE_clean_linker_10, # of connection points: 2
#     Edge 99, Type (0, 1), BuildingBlock: TEMPAE_clean_linker_10, # of connection points: 2
#     Edge 100, Type (0, 1), BuildingBlock: TEMPAE_clean_linker_10, # of connection points: 2
#     Edge 101, Type (0, 1), BuildingBlock: TEMPAE_clean_linker_10, # of connection points: 2
#     Edge 102, Type (0, 1), BuildingBlock: TEMPAE_clean_linker_10, # of connection points: 2
#     Edge 103, Type (0, 1), BuildingBlock: TEMPAE_clean_linker_10, # of connection points: 2
#     Edge 104, Type (0, 1), BuildingBlock: TEMPAE_clean_linker_10, # of connection points: 2
#     Edge 105, Type (0, 1), BuildingBlock: TEMPAE_clean_linker_10, # of connection points: 2
#     Edge 106, Type (0, 1), BuildingBlock: TEMPAE_clean_linker_10, # of connection points: 2
#     Edge 107, Type (0, 1), BuildingBlock: TEMPAE_clean_linker_10, # of connection points: 2
#     Edge 108, Type (0, 1), BuildingBlock: TEMPAE_clean_linker_10, # of connection points: 2
#     Edge 109, Type (0, 1), BuildingBlock: TEMPAE_clean_linker_10, # of connection points: 2
#     Edge 110, Type (0, 1), BuildingBlock: TEMPAE_clean_linker_10, # of connection points: 2
#     Edge 111, Type (0, 1), BuildingBlock: TEMPAE_clean_linker_10, # of connection points: 2
#     Edge 112, Type (0, 1), BuildingBlock: TEMPAE_clean_linker_10, # of connection points: 2
#     Edge 113, Type (0, 1), BuildingBlock: TEMPAE_clean_linker_10, # of connection points: 2
#     Edge 114, Type (0, 1), BuildingBlock: TEMPAE_clean_linker_10, # of connection points: 2
#     Edge 115, Type (0, 1), BuildingBlock: TEMPAE_clean_linker_10, # of connection points: 2
#     Edge 116, Type (0, 1), BuildingBlock: TEMPAE_clean_linker_10, # of connection points: 2
#     Edge 117, Type (0, 1), BuildingBlock: TEMPAE_clean_linker_10, # of connection points: 2
#     Edge 118, Type (0, 1), BuildingBlock: TEMPAE_clean_linker_10, # of connection points: 2
#     Edge 119, Type (0, 1), BuildingBlock: TEMPAE_clean_linker_10, # of connection points: 2
#     Edge 120, Type (0, 1), BuildingBlock: TEMPAE_clean_linker_10, # of connection points: 2
#     Edge 121, Type (0, 1), BuildingBlock: TEMPAE_clean_linker_10, # of connection points: 2
#     Edge 122, Type (0, 1), BuildingBlock: TEMPAE_clean_linker_10, # of connection points: 2
#     Edge 123, Type (0, 1), BuildingBlock: TEMPAE_clean_linker_10, # of connection points: 2
#     Edge 124, Type (0, 1), BuildingBlock: TEMPAE_clean_linker_10, # of connection points: 2
#     Edge 125, Type (0, 1), BuildingBlock: TEMPAE_clean_linker_10, # of connection points: 2
#     Edge 126, Type (0, 1), BuildingBlock: TEMPAE_clean_linker_10, # of connection points: 2
#     Edge 127, Type (0, 1), BuildingBlock: TEMPAE_clean_linker_10, # of connection points: 2
#     Edge 128, Type (0, 1), BuildingBlock: TEMPAE_clean_linker_10, # of connection points: 2
#     Edge 129, Type (0, 1), BuildingBlock: TEMPAE_clean_linker_10, # of connection points: 2
#     Edge 130, Type (0, 1), BuildingBlock: TEMPAE_clean_linker_10, # of connection points: 2
#     Edge 131, Type (0, 1), BuildingBlock: TEMPAE_clean_linker_10, # of connection points: 2
#     Edge 132, Type (0, 1), BuildingBlock: TEMPAE_clean_linker_10, # of connection points: 2
#     Edge 133, Type (0, 1), BuildingBlock: TEMPAE_clean_linker_10, # of connection points: 2
#     Edge 134, Type (0, 1), BuildingBlock: TEMPAE_clean_linker_10, # of connection points: 2
#     Edge 135, Type (0, 1), BuildingBlock: TEMPAE_clean_linker_10, # of connection points: 2
# Relax obj value: 0.171
# Max RMSD: 0.330
# Mean RMSD: 0.158
data_MOF--net-gar--node1-QUQFOY_clean_sbu_3--node2-PAMTUU_clean_sbu_0--edge1-TEMPAE_clean_linker_10
_symmetry_space_group_name_H-M    P1
_symmetry_Int_Tables_number       1
_symmetry_cell_setting            triclinic
loop_
_symmetry_equiv_pos_as_xyz
'x, y, z'
_cell_length_a     60.857023
_cell_length_b     58.158975
_cell_length_c     61.045255
_cell_angle_alpha  94.403248
_cell_angle_beta   93.634943
_cell_angle_gamma 107.34289
loop_
_atom_site_label
_atom_site_type_symbol
_atom_site_fract_x
_atom_site_fract_y
_atom_site_fract_z
_atom_type_partial_charge
C0 C 1.00649 0.28107 0.36058 0.0
O1 O 0.02248 0.29493 0.35115 0.0
Cd2 Cd 0.05711 0.29832 0.37556 0.0
O3 O 0.01311 0.27101 0.37699 0.0
Cd4 Cd 0.05804 0.27396 0.39533 0.0
C5 C 0.06402 0.33604 0.41623 0.0
O6 O 0.08434 0.2799 0.35988 0.0
O7 O 0.1027 0.28206 0.39106 0.0
O8 O 0.04246 0.22736 0.40147 0.0
C9 C 0.10365 0.28126 0.37027 0.0
O10 O 0.06958 0.33877 0.3967 0.0
C11 C 0.05307 0.22796 0.42032 0.0
O12 O 0.05777 0.31412 0.42158 0.0
O13 O 0.06524 0.24925 0.42807 0.0
C14 C 1.00138 0.78705 0.69631 0.0
O15 O 1.01098 0.77229 0.70372 0.0
Cd16 Cd 0.04301 0.77476 0.68024 0.0
O17 O 0.01168 0.79924 0.68094 0.0
Cd18 Cd 0.05327 0.80051 0.66095 0.0
C19 C 0.04431 0.73738 0.64065 0.0
O20 O 0.08194 0.79858 0.69634 0.0
O21 O 0.09672 0.80246 0.66556 0.0
O22 O 0.06488 0.84711 0.65492 0.0
C23 C 0.10014 0.80117 0.68615 0.0
O24 O 0.04104 0.73537 0.66083 0.0
C25 C 0.05715 0.84552 0.63478 0.0
O26 O 0.04811 0.75879 0.63429 0.0
O27 O 0.04828 0.8237 0.62631 0.0
C28 C 0.50776 0.78338 0.86114 0.0
O29 O 0.52356 0.79601 0.85067 0.0
Cd30 Cd 0.55797 0.80071 0.87573 0.0
O31 O 0.51469 0.77465 0.87833 0.0
Cd32 Cd 0.56005 0.77795 0.8965 0.0
C33 C 0.5647 0.84019 0.91547 0.0
O34 O 0.58603 0.78312 0.86073 0.0
O35 O 0.60496 0.78735 0.89191 0.0
O36 O 0.5457 0.73131 0.90341 0.0
C37 C 0.60566 0.78568 0.87107 0.0
O38 O 0.56896 0.84182 0.89546 0.0
C39 C 0.55577 0.73254 0.92265 0.0
O40 O 0.55983 0.81877 0.92197 0.0
O41 O 0.56714 0.75416 0.93025 0.0
C42 C 0.50091 0.28562 0.19818 0.0
O43 O 0.51198 0.27236 0.20611 0.0
Cd44 Cd 0.54432 0.27672 0.18245 0.0
O45 O 0.51011 0.29761 0.18225 0.0
Cd46 Cd 0.55244 0.30189 0.1629 0.0
C47 C 0.54542 0.23968 0.14249 0.0
O48 O 0.58172 0.30225 0.199 0.0
O49 O 0.5961 0.30375 0.16814 0.0
O50 O 0.55017 0.34614 0.15826 0.0
C51 C 0.59977 0.3038 0.18887 0.0
O52 O 0.54747 0.23911 0.16325 0.0
C53 C 0.55597 0.34852 0.13868 0.0
O54 O 0.54396 0.25971 0.13563 0.0
O55 O 0.56064 0.33007 0.13001 0.0
C56 C 0.06847 0.80447 0.17606 0.0
O57 O 0.08281 0.79731 0.18757 0.0
Cd58 Cd 0.11999 0.79774 0.17771 0.0
O59 O 0.07384 0.81372 0.15808 0.0
Cd60 Cd 0.10763 0.82485 0.13498 0.0
C61 C 0.1022 0.76481 0.12602 0.0
O62 O 0.1363 0.83672 0.1663 0.0
O63 O 0.15025 0.83172 0.1356 0.0
O64 O 0.09527 0.8609 0.13202 0.0
C65 C 0.15397 0.83733 0.15628 0.0
O66 O 0.11068 0.76724 0.14601 0.0
C67 C 0.09863 0.86316 0.11189 0.0
O68 O 0.09792 0.78255 0.11741 0.0
O69 O 0.10638 0.84753 0.10203 0.0
C70 C 0.4744 0.77859 0.40203 0.0
O71 O 0.48954 0.79301 0.39208 0.0
Cd72 Cd 0.53012 0.80429 0.39813 0.0
O73 O 0.48028 0.76809 0.41811 0.0
Cd74 Cd 0.51944 0.771 0.43812 0.0
C75 C 0.53298 0.83264 0.45013 0.0
O76 O 0.5377 0.76765 0.40428 0.0
O77 O 0.56144 0.77939 0.4332 0.0
O78 O 0.5048 0.72776 0.44505 0.0
C79 C 0.55823 0.77258 0.41273 0.0
O80 O 0.53801 0.83364 0.43024 0.0
C81 C 0.51567 0.73044 0.464 0.0
O82 O 0.52426 0.81217 0.4575 0.0
O83 O 0.52665 0.75206 0.47162 0.0
C84 C 0.5682 0.30243 0.67738 0.0
O85 O 0.5823 0.29436 0.68828 0.0
Cd86 Cd 0.61929 0.2935 0.67901 0.0
O87 O 0.57343 0.31204 0.65951 0.0
Cd88 Cd 0.60678 0.32331 0.63584 0.0
C89 C 0.60297 0.26312 0.62604 0.0
O90 O 0.63424 0.33204 0.66726 0.0
O91 O 0.65029 0.33448 0.63702 0.0
O92 O 0.59663 0.36079 0.63466 0.0
C93 C 0.65266 0.33538 0.65789 0.0
O94 O 0.6107 0.26485 0.6462 0.0
C95 C 0.59716 0.3621 0.61403 0.0
O96 O 0.59864 0.28105 0.61776 0.0
O97 O 0.60223 0.34516 0.60305 0.0
C98 C 0.97686 0.27981 0.8989 0.0
O99 O 0.99224 0.29562 0.89044 0.0
Cd100 Cd 0.03266 0.30813 0.89948 0.0
O101 O 0.98212 0.26895 0.91495 0.0
Cd102 Cd 0.01961 0.2727 0.93794 0.0
C103 C 0.03229 0.33383 0.95198 0.0
O104 O 0.04159 0.27241 0.90644 0.0
O105 O 0.06235 0.28351 0.93737 0.0
O106 O 1.00897 0.22883 0.93934 0.0
C107 C 0.06136 0.27779 0.91679 0.0
O108 O 0.03821 0.33568 0.93242 0.0
C109 C 0.01364 0.2292 0.95994 0.0
O110 O 0.0231 0.313 0.95853 0.0
O111 O 0.01945 0.24988 0.97098 0.0
C112 C 0.48669 0.06925 0.35336 0.0
O113 O 0.49611 0.05612 0.3422 0.0
Cd114 Cd 0.47701 0.02881 0.31113 0.0
O115 O 0.46688 0.07074 0.34693 0.0
Cd116 Cd 0.4402 0.05711 0.31283 0.0
C117 C 0.42249 1.00077 0.32725 0.0
O118 O 0.46542 0.05186 0.28508 0.0
O119 O 0.42908 0.03242 0.27774 0.0
O120 O 0.44193 0.09624 0.30101 0.0
C121 C 0.44918 0.03897 0.27123 0.0
O122 O 0.4424 0.99996 0.3226 0.0
C123 C 0.42076 0.09403 0.30269 0.0
O124 O 0.41678 0.02003 0.32601 0.0
O125 O 0.40885 0.07531 0.31084 0.0
C126 C 0.33079 0.1692 0.536 0.0
O127 O 0.31366 0.15495 0.54384 0.0
Cd128 Cd 0.27788 0.16057 0.5503 0.0
O129 O 0.3298 0.18924 0.52927 0.0
Cd130 Cd 0.29968 0.21121 0.52337 0.0
C131 C 0.29868 0.21838 0.58002 0.0
O132 O 0.26959 0.17383 0.5167 0.0
O133 O 0.25659 0.20412 0.52011 0.0
O134 O 0.31401 0.21337 0.48659 0.0
C135 C 0.25222 0.18134 0.51695 0.0
O136 O 0.28888 0.19556 0.57764 0.0
C137 C 0.31201 0.23388 0.483 0.0
O138 O 0.30549 0.22988 0.56332 0.0
O139 O 0.30539 0.24508 0.49879 0.0
C140 C 0.14819 0.02175 0.86225 0.0
O141 O 0.13256 0.02449 0.84879 0.0
Cd142 Cd 0.13589 0.03327 0.81113 0.0
O143 O 0.16798 0.02227 0.8563 0.0
Cd144 Cd 0.18725 0.02576 0.82202 0.0
C145 C 0.18462 0.08292 0.8189 0.0
O146 O 0.15409 1.0058 0.79618 0.0
O147 O 0.18501 0.02351 0.78152 0.0
O148 O 0.20466 0.99426 0.82897 0.0
C149 C 0.16372 0.01157 0.77878 0.0
O150 O 0.16327 0.07412 0.81208 0.0
C151 C 0.22533 0.00785 0.82881 0.0
O152 O 0.19645 0.06941 0.82498 0.0
O153 O 0.22815 0.02996 0.82613 0.0
C154 C 0.33216 0.96254 -0.00038 0.0
O155 O 0.32087 0.97601 0.99247 0.0
Cd156 Cd 0.27989 0.96141 0.98599 0.0
O157 O 0.32183 0.94136 0.0046 0.0
Cd158 Cd 0.28211 0.91448 0.0072 0.0
C159 C 0.27434 0.91022 0.95148 0.0
O160 O 0.27044 0.94781 0.02148 0.0
O161 O 0.2421 0.91491 0.01329 0.0
O162 O 0.30043 0.90541 0.04027 0.0
C163 C 0.24948 0.93631 0.02279 0.0
O164 O 0.27281 0.93163 0.95332 0.0
C165 C 0.29007 0.88284 0.03811 0.0
O166 O 0.27806 0.90017 0.96851 0.0
O167 O 0.27584 0.87457 0.02114 0.0
C168 C 0.34425 0.4212 0.03396 0.0
O169 O 0.33047 0.43077 0.02454 0.0
Cd170 Cd 0.29105 0.41183 0.01506 0.0
O171 O 0.33682 0.40025 0.04093 0.0
Cd172 Cd 0.29783 0.36867 0.0443 0.0
C173 C 0.29667 0.35879 0.98786 0.0
O174 O 0.28007 0.39984 0.04975 0.0
O175 O 0.25522 0.36491 0.04169 0.0
O176 O 0.31425 0.36933 0.0827 0.0
C177 C 0.25915 0.38719 0.04792 0.0
O178 O 0.29348 0.37949 0.98838 0.0
C179 C 0.30239 0.3481 0.08598 0.0
O180 O 0.29874 0.34911 0.00575 0.0
O181 O 0.28962 0.33539 0.06937 0.0
C182 C 0.84353 0.11812 0.05517 0.0
O183 O 0.82801 0.10575 0.06619 0.0
Cd184 Cd 0.79355 0.11522 0.07356 0.0
O185 O 0.84227 0.13789 0.04836 0.0
Cd186 Cd 0.81624 0.16315 0.05053 0.0
C187 C 0.81575 0.16871 0.10597 0.0
O188 O 0.78221 0.12888 0.04014 0.0
O189 O 0.77556 0.16242 0.04959 0.0
O190 O 0.82565 0.17403 0.01396 0.0
C191 C 0.76767 0.14038 0.04191 0.0
O192 O 0.80259 0.14694 0.10377 0.0
C193 C 0.82958 0.19664 0.01838 0.0
O194 O 0.82514 0.1786 0.08958 0.0
O195 O 0.82863 0.20404 0.03832 0.0
C196 C 0.11635 0.53166 0.2558 0.0
O197 O 0.10742 0.53562 0.23764 0.0
Cd198 Cd 0.12353 0.53097 0.20389 0.0
O199 O 0.13449 0.52489 0.25651 0.0
Cd200 Cd 0.16238 0.51462 0.23248 0.0
C201 C 0.17752 0.57216 0.218 0.0
O202 O 0.13001 0.49265 0.2084 0.0
O203 O 0.16173 0.4929 0.19511 0.0
O204 O 0.16795 0.49255 0.26376 0.0
C205 C 0.13983 0.48527 0.19302 0.0
O206 O 0.15764 0.56743 0.20754 0.0
C207 C 0.18826 0.49295 0.25977 0.0
O208 O 0.18303 0.55615 0.22817 0.0
O209 O 0.19623 0.50311 0.24306 0.0
C210 C 0.84036 0.91844 0.5291 0.0
O211 O 0.82628 0.92763 0.51962 0.0
Cd212 Cd 0.78635 0.91022 0.51272 0.0
O213 O 0.83319 0.89785 0.53679 0.0
Cd214 Cd 0.79435 0.86581 0.5395 0.0
C215 C 0.78953 0.85782 0.48253 0.0
O216 O 0.77814 0.89768 0.54779 0.0
O217 O 0.75215 0.86369 0.53915 0.0
O218 O 0.81262 0.86201 0.57617 0.0
C219 C 0.75703 0.88579 0.54645 0.0
O220 O 0.78554 0.87813 0.48442 0.0
C221 C 0.79846 0.84174 0.57913 0.0
O222 O 0.79391 0.84814 0.49982 0.0
O223 O 0.78366 0.83148 0.56298 0.0
C224 C 0.99334 0.0586 0.25996 0.0
O225 O 0.99936 0.0513 0.24182 0.0
Cd226 Cd 0.97515 0.04117 0.20799 0.0
O227 O 0.97376 0.06231 0.26078 0.0
Cd228 Cd 0.93954 0.06014 0.23519 0.0
C229 C 0.92857 0.99953 0.22541 0.0
O230 O 0.95941 0.07412 0.20379 0.0
O231 O 0.923 0.05637 0.19663 0.0
O232 O 0.93221 0.09626 0.25242 0.0
C233 C 0.94199 0.06791 0.18974 0.0
O234 O 0.94602 1.003 0.21419 0.0
C235 C 0.91227 0.08465 0.25751 0.0
O236 O 0.92332 0.0171 0.2349 0.0
O237 O 0.9054 0.06197 0.25221 0.0
C238 C 0.35218 0.6137 0.55256 0.0
O239 O 0.34619 0.60074 0.56822 0.0
Cd240 Cd 0.31336 0.60236 0.58744 0.0
O241 O 0.34262 0.62966 0.54825 0.0
Cd242 Cd 0.31373 0.64603 0.5641 0.0
C243 C 0.33061 0.65632 0.61825 0.0
O244 O 0.28341 0.60685 0.56195 0.0
O245 O 0.27624 0.63774 0.57844 0.0
O246 O 0.30574 0.65347 0.52651 0.0
C247 C 0.26883 0.61588 0.57018 0.0
O248 O 0.32244 0.63348 0.61801 0.0
C249 C 0.30731 0.67563 0.5304 0.0
O250 O 0.33285 0.66621 0.60026 0.0
O251 O 0.31236 0.68466 0.55037 0.0
C252 C 0.48058 0.55951 0.7615 0.0
O253 O 0.48882 0.55231 0.74462 0.0
Cd254 Cd 0.46684 0.53919 0.70949 0.0
O255 O 0.46034 0.56172 0.76 0.0
Cd256 Cd 0.42781 0.55641 0.73183 0.0
C257 C 0.42207 0.4965 0.72797 0.0
O258 O 0.44928 0.56992 0.70129 0.0
O259 O 0.41363 0.54918 0.69252 0.0
O260 O 0.41866 0.59207 0.74704 0.0
C261 C 0.43264 0.56184 0.68643 0.0
O262 O 0.43907 0.50018 0.71613 0.0
C263 C 0.39807 0.58032 0.75027 0.0
O264 O 0.41579 0.51406 0.73605 0.0
O265 O 0.39155 0.55767 0.74471 0.0
C266 C 0.62717 0.02714 0.75775 0.0
O267 O 0.6171 0.02998 0.73974 0.0
Cd268 Cd 0.63076 0.02277 0.70499 0.0
O269 O 0.64463 0.0193 0.75786 0.0
Cd270 Cd 0.66974 1.00495 0.73359 0.0
C271 C 0.68587 0.06216 0.71793 0.0
O272 O 0.6372 0.98458 0.7092 0.0
O273 O 0.6687 0.98371 0.69598 0.0
O274 O 0.67208 0.98012 0.76344 0.0
C275 C 0.64679 0.97747 0.69347 0.0
O276 O 0.66619 0.05762 0.70709 0.0
C277 C 0.69338 0.98241 0.7623 0.0
O278 O 0.69078 0.04627 0.7288 0.0
O279 O 0.70336 0.99457 0.74735 0.0
C280 C 0.83592 0.68079 0.03877 0.0
O281 O 0.82039 0.66746 0.04921 0.0
Cd282 Cd 0.78131 0.66629 0.05016 0.0
O283 O 0.83174 0.69684 0.02738 0.0
Cd284 Cd 0.79833 0.71311 0.01848 0.0
C285 C 0.79207 0.72533 0.07413 0.0
O286 O 0.77322 0.67223 0.0134 0.0
O287 O 0.75523 0.69838 0.01004 0.0
O288 O 0.81748 0.71911 0.98383 0.0
C289 C 0.75419 0.67627 0.00958 0.0
O290 O 0.78396 0.70243 0.0739 0.0
C291 C 0.80942 0.73566 0.97793 0.0
O292 O 0.80029 0.73497 0.05697 0.0
O293 O 0.79743 0.74313 0.99152 0.0
C294 C 0.99269 0.55941 0.8497 0.0
O295 O 1.00187 0.55443 0.83256 0.0
Cd296 Cd 0.98251 0.54406 0.79625 0.0
O297 O 0.97202 0.56049 0.84857 0.0
Cd298 Cd 0.93979 0.55709 0.82067 0.0
C299 C 0.93457 0.49783 0.8066 0.0
O300 O 0.96393 0.5744 0.79308 0.0
O301 O 0.92808 0.55942 0.7816 0.0
O302 O 0.92967 0.59114 0.83809 0.0
C303 C 0.94846 0.57009 0.77719 0.0
O304 O 0.95347 0.50443 0.79754 0.0
C305 C 0.90858 0.57922 0.83907 0.0
O306 O 0.92673 0.51331 0.81661 0.0
O307 O 0.90258 0.55674 0.83271 0.0
C308 C 0.83571 0.47316 0.48389 0.0
O309 O 0.82575 0.48606 0.47367 0.0
Cd310 Cd 0.78449 0.47643 0.47071 0.0
O311 O 0.824 0.45535 0.49339 0.0
Cd312 Cd 0.78426 0.43413 0.50116 0.0
C313 C 0.76994 0.41837 0.44618 0.0
O314 O 0.7759 0.47169 0.50838 0.0
O315 O 0.74693 0.43982 0.50975 0.0
O316 O 0.80409 0.42923 0.53548 0.0
C317 C 0.75516 0.46272 0.51254 0.0
O318 O 0.77113 0.44031 0.44406 0.0
C319 C 0.79313 0.40699 0.53581 0.0
O320 O 0.77437 0.4119 0.46495 0.0
O321 O 0.77757 0.39734 0.52012 0.0
C322 C 0.6408 0.54327 0.36593 0.0
O323 O 0.62554 0.54821 0.35359 0.0
Cd324 Cd 0.62326 0.54883 0.31439 0.0
O325 O 0.65733 0.53737 0.35776 0.0
Cd326 Cd 0.66996 0.53274 0.32047 0.0
C327 C 0.675 0.59116 0.31095 0.0
O328 O 0.63226 0.51345 0.30039 0.0
O329 O 0.66098 0.52314 0.28064 0.0
O330 O 0.686 0.50003 0.32809 0.0
C331 C 0.63941 0.51392 0.28134 0.0
O332 O 0.65309 0.58602 0.30843 0.0
C333 C 0.70649 0.51205 0.32476 0.0
O334 O 0.68461 0.57546 0.31615 0.0
O335 O 0.70972 0.53358 0.31994 0.0
Tb336 Tb 0.07821 0.0625 0.04957 0.0
Tb337 Tb 0.03565 0.02751 0.01521 0.0
C338 C 0.0272 0.04867 0.06242 0.0
C339 C 0.13611 0.07977 0.07395 0.0
C340 C 0.16778 0.05297 0.07189 0.0
C341 C 0.15852 0.05702 0.09187 0.0
C342 C 0.14277 0.07028 0.09286 0.0
C343 C 0.14715 0.07773 0.05467 0.0
C344 C 0.1626 0.06433 0.0536 0.0
C345 C 0.11448 0.08641 0.07268 0.0
O346 O 0.07154 0.02607 0.05952 0.0
O347 O 0.05434 1.00356 0.02703 0.0
O348 O 0.06489 0.04418 0.99727 0.0
O349 O 0.0928 0.04524 0.02406 0.0
O350 O 1.00577 0.99761 0.00801 0.0
O351 O 0.02138 0.01853 0.98232 0.0
O352 O 0.02941 0.06245 0.01738 0.0
O353 O 0.06655 0.08621 0.02845 0.0
O354 O 0.04796 0.06443 0.06525 0.0
O355 O 0.02037 0.03145 0.04596 0.0
C356 C 0.06509 1.00553 0.04677 0.0
O357 O 0.10825 0.09236 0.0536 0.0
O358 O 0.09709 0.07143 0.08074 0.0
C359 C 0.08593 0.04443 0.00329 0.0
C360 C 0.98101 0.00909 0.9831 0.0
C361 C 0.94538 0.02941 0.98972 0.0
C362 C 0.96429 0.04165 0.97878 0.0
C363 C 0.98192 0.03149 0.9753 0.0
C364 C 0.96064 0.99553 0.99142 0.0
C365 C 0.94287 1.0057 0.99476 0.0
C366 C 1.00267 1.00327 0.98802 0.0
C367 C 0.04536 0.08364 0.02004 0.0
H368 H 0.16256 0.04899 0.10642 0.0
H369 H 0.13455 0.07161 0.10794 0.0
H370 H 0.1425 0.08474 0.03971 0.0
H371 H 0.16909 0.06148 0.03784 0.0
H372 H 0.96635 0.05991 0.97461 0.0
H373 H 0.99722 0.04237 0.96857 0.0
H374 H 0.95949 0.97821 0.99746 0.0
H375 H 0.9283 0.99602 0.00322 0.0
Tb376 Tb 0.28366 0.7841 0.30431 0.0
Tb377 Tb 0.3187 0.78672 0.2651 0.0
C378 C 0.27244 0.80053 0.25801 0.0
C379 C 0.26162 0.77061 0.35724 0.0
C380 C 0.27123 0.7552 0.39837 0.0
C381 C 0.2559 0.769 0.39616 0.0
C382 C 0.25124 0.77679 0.37571 0.0
C383 C 0.27641 0.7563 0.35929 0.0
C384 C 0.28119 0.74868 0.37965 0.0
C385 C 0.25917 0.78102 0.33642 0.0
O386 O 0.28027 0.74745 0.29062 0.0
O387 O 0.28768 0.75673 0.2558 0.0
O388 O 0.332 0.76861 0.29039 0.0
O389 O 0.3153 0.78061 0.3202 0.0
O390 O 0.33297 0.76855 0.24153 0.0
O391 O 0.34215 0.80757 0.24521 0.0
O392 O 0.33479 0.81702 0.28957 0.0
O393 O 0.30148 0.822 0.30153 0.0
O394 O 0.26406 0.78921 0.27495 0.0
O395 O 0.29426 0.80512 0.25412 0.0
C396 C 0.27809 0.74109 0.26932 0.0
O397 O 0.27623 0.80005 0.33378 0.0
O398 O 0.25365 0.76579 0.31867 0.0
C399 C 0.33055 0.77139 0.3118 0.0
C400 C 0.33593 0.78869 0.20937 0.0
C401 C 0.3219 0.79667 0.16653 0.0
C402 C 0.34551 0.80372 0.17413 0.0
C403 C 0.35246 0.79979 0.19543 0.0
C404 C 0.31244 0.78064 0.20152 0.0
C405 C 0.30549 0.78449 0.18025 0.0
C406 C 0.34267 0.7885 0.23282 0.0
C407 C 0.32359 0.83056 0.29902 0.0
H408 H 0.24807 0.77435 0.41034 0.0
H409 H 0.24 0.78808 0.37444 0.0
H410 H 0.28468 0.75144 0.34521 0.0
H411 H 0.29277 0.73774 0.38075 0.0
H412 H 0.35855 0.81344 0.16408 0.0
H413 H 0.37061 0.80641 0.20135 0.0
H414 H 0.29937 0.77226 0.21216 0.0
H415 H 0.28722 0.77864 0.17481 0.0
Tb416 Tb 0.53274 0.04132 0.54343 0.0
Tb417 Tb 0.58735 0.0508 0.5351 0.0
C418 C 0.56664 0.02884 0.5764 0.0
C419 C 0.47902 0.05611 0.54865 0.0
C420 C 0.45499 0.09055 0.54626 0.0
C421 C 0.44694 0.07039 0.55823 0.0
C422 C 0.45885 0.05327 0.55936 0.0
C423 C 0.48737 0.07645 0.53705 0.0
C424 C 0.47537 0.09344 0.53574 0.0
C425 C 0.49156 0.03813 0.54981 0.0
O426 O 0.55273 0.07642 0.5607 0.0
O427 O 0.58403 0.08692 0.5403 0.0
O428 O 0.5692 0.05212 0.50365 0.0
O429 O 0.53971 0.06434 0.51693 0.0
O430 O 0.62219 0.063 0.54792 0.0
O431 O 0.61247 0.04662 0.51446 0.0
O432 O 0.57178 0.01185 0.53233 0.0
O433 O 0.53408 0.00942 0.52253 0.0
O434 O 0.546 0.02053 0.56593 0.0
O435 O 0.58239 0.04694 0.56968 0.0
C436 C 0.57022 0.09291 0.55383 0.0
O437 O 0.49791 0.03105 0.53108 0.0
O438 O 0.50815 0.04293 0.56569 0.0
C439 C 0.55264 0.06207 0.50111 0.0
C440 C 0.64047 0.03506 0.53472 0.0
C441 C 0.66037 0.99743 0.53878 0.0
C442 C 0.67178 0.01822 0.52874 0.0
C443 C 0.66183 0.03682 0.52662 0.0
C444 C 0.6293 0.01471 0.54531 0.0
C445 C 0.6391 0.99602 0.54725 0.0
C446 C 0.62879 0.05324 0.5306 0.0
C447 C 0.55092 0.99948 0.52367 0.0
H448 H 0.43113 0.06758 0.5663 0.0
H449 H 0.45225 0.03777 0.56848 0.0
H450 H 0.50311 0.07913 0.5289 0.0
H451 H 0.48206 0.10889 0.52657 0.0
H452 H 0.6884 0.02011 0.52244 0.0
H453 H 0.67063 0.05236 0.51837 0.0
H454 H 0.61273 0.01302 0.55166 0.0
H455 H 0.62972 0.98022 0.55487 0.0
Tb456 Tb 0.3295 0.2849 0.7885 0.0
Tb457 Tb 0.28265 0.30095 0.78016 0.0
C458 C 0.28033 0.25008 0.79368 0.0
C459 C 0.38629 0.27843 0.77927 0.0
C460 C 0.42276 0.28609 0.75183 0.0
C461 C 0.41745 0.26609 0.7643 0.0
C462 C 0.39937 0.26232 0.77793 0.0
C463 C 0.39153 0.29846 0.76689 0.0
C464 C 0.40974 0.30236 0.75339 0.0
C465 C 0.36613 0.27319 0.79217 0.0
O466 O 0.32507 0.28696 0.75309 0.0
O467 O 0.286 0.28118 0.74914 0.0
O468 O 0.30929 0.32733 0.76568 0.0
O469 O 0.34054 0.3238 0.78656 0.0
O470 O 0.24754 0.29143 0.76884 0.0
O471 O 0.26612 0.32784 0.7829 0.0
O472 O 0.29692 0.31469 0.81407 0.0
O473 O 0.31811 0.289 0.82142 0.0
O474 O 0.30019 0.25211 0.78559 0.0
O475 O 0.27299 0.26884 0.79739 0.0
C476 C 0.30542 0.28131 0.74064 0.0
O477 O 0.36306 0.29163 0.80371 0.0
O478 O 0.34698 0.25947 0.78143 0.0
C479 C 0.33116 0.33553 0.77312 0.0
C480 C 0.22871 0.31073 0.79284 0.0
C481 C 0.19557 0.30626 0.82362 0.0
C482 C 0.19255 0.31564 0.80343 0.0
C483 C 0.20904 0.31785 0.78813 0.0
C484 C 0.23191 0.30164 0.81303 0.0
C485 C 0.21554 0.29949 0.82832 0.0
C486 C 0.24588 0.31225 0.77681 0.0
C487 C 0.30726 0.30436 0.82818 0.0
H488 H 0.42739 0.25343 0.7636 0.0
H489 H 0.3954 0.24665 0.78719 0.0
H490 H 0.38133 0.31088 0.76743 0.0
H491 H 0.41334 0.3178 0.74384 0.0
H492 H 0.17719 0.32075 0.79926 0.0
H493 H 0.20633 0.32484 0.77257 0.0
H494 H 0.24703 0.29602 0.81689 0.0
H495 H 0.21851 0.2925 0.84382 0.0
Tb496 Tb 0.05144 0.05 0.54953 0.0
Tb497 Tb 0.05397 0.01998 0.50357 0.0
C498 C 1.00768 0.01425 0.52497 0.0
C499 C 0.06286 0.06446 0.60806 0.0
C500 C 0.08059 0.0492 0.64611 0.0
C501 C 0.06548 0.06336 0.64776 0.0
C502 C 0.05657 0.07085 0.6288 0.0
C503 C 0.07822 0.0507 0.60645 0.0
C504 C 0.08703 0.04319 0.62526 0.0
C505 C 0.05207 0.06988 0.58774 0.0
O506 O 0.04973 0.01315 0.55858 0.0
O507 O 0.06458 0.99858 0.52892 0.0
O508 O 0.08463 0.05066 0.50814 0.0
O509 O 0.08768 0.05398 0.54548 0.0
O510 O 0.03617 1.00041 0.47431 0.0
O511 O 0.07255 1.00486 0.48181 0.0
O512 O 0.04682 0.0533 0.49281 0.0
O513 O 0.05036 0.07695 0.52576 0.0
O514 O 0.01629 0.03646 0.53427 0.0
O515 O 0.02097 1.00306 0.51578 0.0
C516 C 0.0579 0.9965 0.54917 0.0
O517 O 0.06632 0.07946 0.5735 0.0
O518 O 0.03475 0.05207 0.57835 0.0
C519 C 0.09676 0.0593 0.52693 0.0
C520 C 0.05916 1.00631 0.44502 0.0
C521 C 0.05763 0.02186 0.4026 0.0
C522 C 0.05495 0.99735 0.40531 0.0
C523 C 0.05549 0.98961 0.42639 0.0
C524 C 0.06374 0.031 0.44245 0.0
C525 C 0.06285 0.03872 0.42143 0.0
C526 C 0.05499 0.99781 0.46679 0.0
C527 C 0.04804 0.07439 0.50384 0.0
H528 H 0.06015 0.06814 0.66363 0.0
H529 H 0.04448 0.08118 0.63026 0.0
H530 H 0.08312 0.0454 0.59053 0.0
H531 H 0.09892 0.03268 0.62348 0.0
H532 H 0.05147 0.98397 0.39115 0.0
H533 H 0.05199 0.97048 0.42813 0.0
H534 H 0.06673 0.04412 0.45673 0.0
H535 H 0.06483 0.05767 0.42006 0.0
Tb536 Tb 0.31646 0.81612 0.76677 0.0
Tb537 Tb 0.28869 0.76897 0.78897 0.0
C538 C 0.31218 0.76445 0.74577 0.0
C539 C 0.33563 0.87904 0.75452 0.0
C540 C 0.32713 0.92176 0.77106 0.0
C541 C 0.34831 0.91785 0.77692 0.0
C542 C 0.35259 0.8967 0.76859 0.0
C543 C 0.31532 0.88398 0.7472 0.0
C544 C 0.31111 0.90512 0.75541 0.0
C545 C 0.33757 0.8544 0.75069 0.0
O546 O 0.2794 0.81503 0.76118 0.0
O547 O 0.26268 0.77477 0.76427 0.0
O548 O 0.28021 0.79869 0.8063 0.0
O549 O 0.31125 0.82989 0.79941 0.0
O550 O 0.26536 0.7339 0.78477 0.0
O551 O 0.27909 0.75163 0.81736 0.0
O552 O 0.32478 0.777 0.80464 0.0
O553 O 0.34461 0.80291 0.78107 0.0
O554 O 0.31098 0.78585 0.74187 0.0
O555 O 0.30835 0.75632 0.76498 0.0
C556 C 0.2609 0.79556 0.75807 0.0
O557 O 0.34573 0.84654 0.76783 0.0
O558 O 0.31971 0.83782 0.74042 0.0
C559 C 0.29346 0.8211 0.81053 0.0
C560 C 0.2756 0.71014 0.81018 0.0
C561 C 0.29452 0.67167 0.80734 0.0
C562 C 0.27133 0.66787 0.79973 0.0
C563 C 0.26189 0.68699 0.80123 0.0
C564 C 0.29816 0.71339 0.81952 0.0
C565 C 0.3075 0.69424 0.81821 0.0
C566 C 0.26804 0.73117 0.80569 0.0
C567 C 0.34468 0.78923 0.79748 0.0
H568 H 0.36105 0.93055 0.78874 0.0
H569 H 0.3685 0.89342 0.77431 0.0
H570 H 0.30193 0.87084 0.73628 0.0
H571 H 0.29453 0.90752 0.75069 0.0
H572 H 0.261 0.65054 0.79137 0.0
H573 H 0.2445 0.68417 0.79386 0.0
H574 H 0.30921 0.7311 0.82637 0.0
H575 H 0.32551 0.69769 0.82401 0.0
Tb576 Tb 0.55277 0.02815 0.04773 0.0
Tb577 Tb 0.54949 0.05248 0.00287 0.0
C578 C 0.59693 0.05587 0.02633 0.0
C579 C 0.53652 1.00118 0.09853 0.0
C580 C 0.5046 0.99407 0.13038 0.0
C581 C 0.52714 0.99306 0.13562 0.0
C582 C 0.54303 0.99662 0.11974 0.0
C583 C 0.51378 1.00107 0.09297 0.0
C584 C 0.49787 0.99741 0.10874 0.0
C585 C 0.55365 0.00776 0.0826 0.0
O586 O 0.54207 0.06061 0.05785 0.0
O587 O 0.5559 0.08265 0.02951 0.0
O588 O 0.51566 0.04537 0.01451 0.0
O589 O 0.51676 0.01427 0.03473 0.0
O590 O 0.56334 0.0805 0.9833 0.0
O591 O 0.53096 0.05286 0.97287 0.0
O592 O 0.54511 0.01363 0.9921 0.0
O593 O 0.56344 1.00493 0.0227 0.0
O594 O 0.58709 0.05198 0.04472 0.0
O595 O 0.58467 0.05144 0.00724 0.0
C596 C 0.54851 0.08172 0.04945 0.0
O597 O 0.54742 0.99615 0.06304 0.0
O598 O 0.5627 0.03093 0.08166 0.0
C599 C 0.5052 0.02615 0.02388 0.0
C600 C 0.55515 0.0677 0.94569 0.0
C601 C 0.57004 0.06045 0.90396 0.0
C602 C 0.5611 0.07971 0.90891 0.0
C603 C 0.55363 0.08327 0.92969 0.0
C604 C 0.56432 0.04865 0.94094 0.0
C605 C 0.57167 0.045 0.92018 0.0
C606 C 0.54711 0.07127 0.96731 0.0
C607 C 0.55488 0.99908 0.00189 0.0
H608 H 0.53288 0.99089 0.15228 0.0
H609 H 0.56058 0.99676 0.12424 0.0
H610 H 0.50858 1.00464 0.07664 0.0
H611 H 0.48059 0.99813 0.10425 0.0
H612 H 0.55955 0.09175 0.89661 0.0
H613 H 0.54659 0.09807 0.93323 0.0
H614 H 0.56572 0.03659 0.95328 0.0
H615 H 0.57881 0.03024 0.91684 0.0
Tb616 Tb 0.29087 0.25718 0.27459 0.0
Tb617 Tb 0.31333 0.31288 0.29231 0.0
C618 C 0.29597 0.29795 0.24263 0.0
C619 C 0.28513 0.19843 0.24575 0.0
C620 C 0.31708 0.17478 0.23393 0.0
C621 C 0.31944 0.19811 0.22782 0.0
C622 C 0.30356 0.20995 0.23378 0.0
C623 C 0.28087 0.17395 0.24887 0.0
C624 C 0.29675 0.1621 0.24288 0.0
C625 C 0.2753 0.21318 0.26026 0.0
O626 O 0.32851 0.26391 0.26935 0.0
O627 O 0.34234 0.30542 0.27548 0.0
O628 O 0.32528 0.29219 0.31625 0.0
O629 O 0.29353 0.25947 0.31051 0.0
O630 O 0.32953 0.3493 0.28776 0.0
O631 O 0.32201 0.3385 0.3201 0.0
O632 O 0.2775 0.30416 0.30325 0.0
O633 O 0.25971 0.26727 0.28372 0.0
O634 O 0.29755 0.27641 0.24541 0.0
O635 O 0.29577 0.31297 0.25978 0.0
C636 C 0.34534 0.28453 0.26828 0.0
O637 O 0.28779 0.22116 0.27902 0.0
O638 O 0.26867 0.23013 0.25154 0.0
C639 C 0.31107 0.27332 0.32362 0.0
C640 C 0.31408 0.37333 0.31093 0.0
C641 C 0.28496 0.40208 0.31848 0.0
C642 C 0.30629 0.4072 0.33119 0.0
C643 C 0.32075 0.3928 0.32747 0.0
C644 C 0.29287 0.36826 0.29827 0.0
C645 C 0.27857 0.38256 0.30188 0.0
C646 C 0.32767 0.35655 0.30811 0.0
C647 C 0.25851 0.28573 0.29733 0.0
H648 H 0.3348 0.20806 0.22062 0.0
H649 H 0.30715 0.22892 0.23127 0.0
H650 H 0.2668 0.16487 0.2582 0.0
H651 H 0.29453 0.1441 0.24782 0.0
H652 H 0.31165 0.42213 0.34407 0.0
H653 H 0.3369 0.39662 0.33766 0.0
H654 H 0.28723 0.35306 0.28565 0.0
H655 H 0.26259 0.37846 0.29136 0.0
Tb656 Tb 0.55604 0.55638 0.0546 0.0
Tb657 Tb 0.55526 0.52551 0.00856 0.0
C658 C 0.51091 0.52036 0.03167 0.0
C659 C 0.5522 0.56888 0.11332 0.0
C660 C 0.55326 0.54775 0.15317 0.0
C661 C 0.5654 0.57233 0.152 0.0
C662 C 0.56481 0.58278 0.13225 0.0
C663 C 0.53896 0.54477 0.11462 0.0
C664 C 0.53936 0.53433 0.13444 0.0
C665 C 0.55632 0.57816 0.09182 0.0
O666 O 0.56451 0.52345 0.06473 0.0
O667 O 0.55274 0.49802 0.03265 0.0
O668 O 0.59091 0.53786 0.02282 0.0
O669 O 0.58866 0.57224 0.04158 0.0
O670 O 0.5375 0.49787 0.9838 0.0
O671 O 0.57264 0.51918 0.98122 0.0
O672 O 0.5585 0.56254 0.99888 0.0
O673 O 0.54721 0.57946 0.02967 0.0
O674 O 0.52388 0.52737 0.05024 0.0
O675 O 0.5199 0.52493 0.01295 0.0
C676 C 0.55897 0.5013 0.05419 0.0
O677 O 0.57477 0.57524 0.08379 0.0
O678 O 0.53862 0.57226 0.07698 0.0
C679 C 0.60074 0.56002 0.03184 0.0
C680 C 0.54769 0.51004 0.94914 0.0
C681 C 0.53839 0.52492 0.90777 0.0
C682 C 0.54724 0.50528 0.90931 0.0
C683 C 0.55199 0.49798 0.92992 0.0
C684 C 0.53848 0.52935 0.94761 0.0
C685 C 0.53397 0.53681 0.92711 0.0
C686 C 0.55412 0.50378 0.9709 0.0
C687 C 0.55247 0.58052 0.00886 0.0
H688 H 0.57665 0.58315 0.1659 0.0
H689 H 0.5754 0.60128 0.13143 0.0
H690 H 0.52932 0.53363 0.10004 0.0
H691 H 0.52959 0.51549 0.13483 0.0
H692 H 0.55085 0.49588 0.89461 0.0
H693 H 0.55926 0.48316 0.93088 0.0
H694 H 0.53496 0.53881 0.9623 0.0
H695 H 0.52682 0.55174 0.92637 0.0
Tb696 Tb 0.81475 0.3176 0.27257 0.0
Tb697 Tb 0.78747 0.26662 0.28897 0.0
C698 C 0.81143 0.2693 0.24494 0.0
C699 C 0.83172 0.3826 0.27258 0.0
C700 C 0.81739 0.42194 0.28867 0.0
C701 C 0.82542 0.42116 0.26755 0.0
C702 C 0.83237 0.4015 0.2595 0.0
C703 C 0.82528 0.38422 0.29418 0.0
C704 C 0.81811 0.4036 0.30213 0.0
C705 C 0.83452 0.35982 0.26304 0.0
O706 O 0.77725 0.31495 0.26656 0.0
O707 O 0.76121 0.2739 0.26562 0.0
O708 O 0.77663 0.29374 0.30799 0.0
O709 O 0.80989 0.32416 0.307 0.0
O710 O 0.76687 0.23039 0.2822 0.0
O711 O 0.77727 0.24669 0.31578 0.0
O712 O 0.82351 0.27476 0.30492 0.0
O713 O 0.84325 0.30312 0.28333 0.0
O714 O 0.81132 0.29169 0.24424 0.0
O715 O 0.8069 0.25798 0.26264 0.0
C716 C 0.75919 0.29525 0.26138 0.0
O717 O 0.84391 0.34846 0.27654 0.0
O718 O 0.81619 0.34514 0.25174 0.0
C719 C 0.79062 0.31493 0.31579 0.0
C720 C 0.77869 0.20695 0.30719 0.0
C721 C 0.80237 0.17221 0.3062 0.0
C722 C 0.81251 0.19505 0.31795 0.0
C723 C 0.80082 0.21231 0.31837 0.0
C724 C 0.7678 0.18352 0.29695 0.0
C725 C 0.77958 0.16625 0.29642 0.0
C726 C 0.76877 0.22651 0.30292 0.0
C727 C 0.84341 0.28794 0.29843 0.0
H728 H 0.82541 0.43523 0.25691 0.0
H729 H 0.83726 0.40052 0.24277 0.0
H730 H 0.82462 0.36988 0.30459 0.0
H731 H 0.81175 0.40329 0.31831 0.0
H732 H 0.83013 0.20022 0.32543 0.0
H733 H 0.80975 0.2303 0.32629 0.0
H734 H 0.75079 0.17906 0.28818 0.0
H735 H 0.77133 0.14865 0.28743 0.0
Tb736 Tb 0.04911 0.52317 0.55008 0.0
Tb737 Tb 0.05591 0.55012 0.50601 0.0
C738 C 0.09755 0.54862 0.53749 0.0
C739 C 0.02652 0.5087 0.60253 0.0
C740 C 1.0032 0.5231 0.63672 0.0
C741 C 0.01987 0.5113 0.64116 0.0
C742 C 0.03144 0.50414 0.62415 0.0
C743 C 1.00965 0.52012 0.59794 0.0
C744 C 0.998 0.52715 0.61488 0.0
C745 C 0.04032 0.50362 0.58509 0.0
O746 O 0.05603 0.5621 0.56186 0.0
O747 O 0.04541 0.57507 0.52962 0.0
O748 O 0.02208 0.52375 0.50144 0.0
O749 O 0.01634 0.5271 0.53762 0.0
O750 O 0.07771 0.56597 0.4826 0.0
O751 O 0.0428 0.56823 0.48239 0.0
O752 O 0.05965 0.5143 0.49454 0.0
O753 O 0.0503 0.49371 0.5252 0.0
O754 O 0.08472 0.52861 0.54416 0.0
O755 O 0.08819 0.56262 0.52693 0.0
C756 C 0.05029 0.57878 0.55126 0.0
O757 O 0.02882 0.49471 0.566 0.0
O758 O 0.05915 0.5211 0.5832 0.0
C759 C 1.00806 0.52148 0.51696 0.0
C760 C 0.05843 0.56658 0.44831 0.0
C761 C 0.05842 0.55766 0.40251 0.0
C762 C 0.05692 0.57995 0.41184 0.0
C763 C 0.05702 0.58439 0.43462 0.0
C764 C 0.05839 0.54376 0.43904 0.0
C765 C 0.05847 0.53934 0.41627 0.0
C766 C 0.06158 0.57265 0.4722 0.0
C767 C 0.05567 0.49409 0.50448 0.0
H768 H 0.02451 0.50828 0.65789 0.0
H769 H 0.04465 0.49565 0.62796 0.0
H770 H 1.00581 0.52405 0.58132 0.0
H771 H 0.98508 0.53596 0.61092 0.0
H772 H 0.05648 0.59424 0.40159 0.0
H773 H 0.05682 0.60203 0.4416 0.0
H774 H 0.05932 0.52974 0.44946 0.0
H775 H 0.05984 0.52207 0.40961 0.0
Tb776 Tb 0.8271 0.79076 0.28249 0.0
Tb777 Tb 0.78082 0.80777 0.27456 0.0
C778 C 0.77816 0.75507 0.28436 0.0
C779 C 0.88325 0.78165 0.2733 0.0
C780 C 0.92114 0.78884 0.24761 0.0
C781 C 0.8987 0.78454 0.23749 0.0
C782 C 0.87991 0.78116 0.25026 0.0
C783 C 0.90556 0.78567 0.28339 0.0
C784 C 0.92436 0.78927 0.27067 0.0
C785 C 0.86392 0.77955 0.28707 0.0
O786 O 0.81353 0.77881 0.24795 0.0
O787 O 0.79207 0.80462 0.24156 0.0
O788 O 0.81061 0.84028 0.27749 0.0
O789 O 0.8371 0.82272 0.26516 0.0
O790 O 0.74729 0.80217 0.25963 0.0
O791 O 0.76354 0.83292 0.28336 0.0
O792 O 0.78381 0.80161 0.30918 0.0
O793 O 0.82294 0.80947 0.31391 0.0
O794 O 0.79928 0.76277 0.29396 0.0
O795 O 0.76985 0.76846 0.27189 0.0
C796 C 0.8027 0.78925 0.23427 0.0
O797 O 0.8618 0.80007 0.29528 0.0
O798 O 0.84403 0.76424 0.27923 0.0
C799 C 0.83006 0.84167 0.26878 0.0
C800 C 0.7244 0.81312 0.28557 0.0
C801 C 0.68787 0.80229 0.31303 0.0
C802 C 0.68807 0.81765 0.29622 0.0
C803 C 0.70626 0.82308 0.28265 0.0
C804 C 0.72407 0.79744 0.302 0.0
C805 C 0.70605 0.79216 0.31566 0.0
C806 C 0.74426 0.8198 0.27237 0.0
C807 C 0.80305 0.80747 0.32216 0.0
H808 H 0.89575 0.7843 0.21977 0.0
H809 H 0.86283 0.77846 0.24216 0.0
H810 H 0.90847 0.78629 0.30116 0.0
H811 H 0.94144 0.79226 0.27888 0.0
H812 H 0.67416 0.82546 0.29354 0.0
H813 H 0.70626 0.83521 0.27003 0.0
H814 H 0.73795 0.78956 0.30448 0.0
H815 H 0.70667 0.78056 0.32859 0.0
Tb816 Tb 0.79476 0.28156 0.7896 0.0
Tb817 Tb 0.82439 0.27735 0.74732 0.0
C818 C 0.78003 0.29439 0.74321 0.0
C819 C 0.78076 0.28453 0.8471 0.0
C820 C 0.79659 0.27961 0.89045 0.0
C821 C 0.81017 0.29721 0.8782 0.0
C822 C 0.80242 0.29951 0.85666 0.0
C823 C 0.76673 0.26782 0.85962 0.0
C824 C 0.77459 0.26525 0.88098 0.0
C825 C 0.7737 0.28394 0.82349 0.0
O826 O 0.77536 0.24981 0.76748 0.0
O827 O 0.80663 0.24111 0.75468 0.0
O828 O 0.8468 0.27433 0.77559 0.0
O829 O 0.8197 0.26399 0.80079 0.0
O830 O 0.82741 0.25828 0.71765 0.0
O831 O 0.85269 0.29249 0.7293 0.0
O832 O 0.82983 0.31521 0.75797 0.0
O833 O 0.82704 0.31092 0.79447 0.0
O834 O 0.78189 0.30022 0.7646 0.0
O835 O 0.7916 0.28096 0.73415 0.0
C836 C 0.78473 0.23437 0.75815 0.0
O837 O 0.78397 0.30278 0.81354 0.0
O838 O 0.77216 0.26374 0.81176 0.0
C839 C 0.84055 0.26653 0.79466 0.0
C840 C 0.83944 0.28636 0.69172 0.0
C841 C 0.83048 0.31096 0.6558 0.0
C842 C 0.8533 0.31209 0.66281 0.0
C843 C 0.85774 0.29993 0.68072 0.0
C844 C 0.81661 0.28456 0.68417 0.0
C845 C 0.81219 0.29668 0.66641 0.0
C846 C 0.84406 0.27645 0.71242 0.0
C847 C 0.83503 0.32416 0.77864 0.0
H848 H 0.82704 0.30882 0.88501 0.0
H849 H 0.81371 0.31244 0.84728 0.0
H850 H 0.7501 0.25591 0.85247 0.0
H851 H 0.76378 0.25113 0.8896 0.0
H852 H 0.86773 0.3231 0.65501 0.0
H853 H 0.87546 0.30178 0.68642 0.0
H854 H 0.80211 0.2743 0.69236 0.0
H855 H 0.79443 0.29516 0.66117 0.0
Tb856 Tb 0.7916 0.76202 0.77175 0.0
Tb857 Tb 0.81366 0.81883 0.78748 0.0
C858 C 0.79314 0.80005 0.73776 0.0
C859 C 0.78389 0.69702 0.76952 0.0
C860 C 0.8032 0.66441 0.78911 0.0
C861 C 0.78069 0.66438 0.7929 0.0
C862 C 0.77105 0.68048 0.78305 0.0
C863 C 0.80607 0.69639 0.76508 0.0
C864 C 0.81559 0.68016 0.77473 0.0
C865 C 0.77527 0.71677 0.76281 0.0
O866 O 0.8268 0.7703 0.75952 0.0
O867 O 0.8443 0.80864 0.7766 0.0
O868 O 0.80974 0.80047 0.81733 0.0
O869 O 0.81181 0.76399 0.80305 0.0
O870 O 0.81619 0.85492 0.78372 0.0
O871 O 0.83747 0.84588 0.80934 0.0
O872 O 0.77668 0.81256 0.79462 0.0
O873 O 0.76286 0.77121 0.78787 0.0
O874 O 0.78147 0.77905 0.7439 0.0
O875 O 0.80797 0.81672 0.7516 0.0
C876 C 0.84548 0.78947 0.76393 0.0
O877 O 0.76929 0.72889 0.77893 0.0
O878 O 0.78722 0.73113 0.74955 0.0
C879 C 0.81272 0.77949 0.8201 0.0
C880 C 0.82176 0.87766 0.81755 0.0
C881 C 0.79367 0.90357 0.83489 0.0
C882 C 0.78987 0.87927 0.83884 0.0
C883 C 0.80382 0.86634 0.83014 0.0
C884 C 0.8275 0.90262 0.81619 0.0
C885 C 0.8136 0.91559 0.82496 0.0
C886 C 0.83013 0.86287 0.80164 0.0
C887 C 0.75989 0.79196 0.7955 0.0
H888 H 0.77074 0.65226 0.80378 0.0
H889 H 0.75395 0.68074 0.78677 0.0
H890 H 0.81651 0.70908 0.75493 0.0
H891 H 0.83308 0.68072 0.77172 0.0
H892 H 0.77468 0.86965 0.84653 0.0
H893 H 0.79914 0.84701 0.83132 0.0
H894 H 0.84121 0.91156 0.80642 0.0
H895 H 0.81686 0.93427 0.82154 0.0
Tb896 Tb 0.57485 0.563 0.55717 0.0
Tb897 Tb 0.53782 0.52973 0.51784 0.0
C898 C 0.52227 0.54409 0.56299 0.0
C899 C 0.63021 0.58547 0.58799 0.0
C900 C 0.66756 0.56843 0.57884 0.0
C901 C 0.66529 0.58919 0.56984 0.0
C902 C 0.64684 0.59777 0.57449 0.0
C903 C 0.63448 0.56694 0.59947 0.0
C904 C 0.65297 0.55838 0.59483 0.0
C905 C 0.60653 0.58748 0.58551 0.0
O906 O 0.57984 0.5274 0.55635 0.0
O907 O 0.54443 0.50391 0.53969 0.0
O908 O 0.57074 0.52575 0.51052 0.0
O909 O 0.59263 0.56269 0.52722 0.0
O910 O 0.50572 0.50428 0.50674 0.0
O911 O 0.52922 0.52159 0.48366 0.0
O912 O 0.54807 0.56751 0.51055 0.0
O913 O 0.55445 0.58554 0.54574 0.0
O914 O 0.54319 0.54737 0.57214 0.0
O915 O 0.51793 0.54255 0.54154 0.0
C916 C 0.56398 0.50623 0.55161 0.0
O917 O 0.60101 0.59564 0.56728 0.0
O918 O 0.59011 0.5685 0.58974 0.0
C919 C 0.59005 0.54365 0.51312 0.0
C920 C 0.49011 0.51933 0.47718 0.0
C921 C 0.45371 0.53971 0.47245 0.0
C922 C 0.44934 0.51441 0.46909 0.0
C923 C 0.46742 0.50429 0.47171 0.0
C924 C 0.49475 0.54454 0.47804 0.0
C925 C 0.47679 0.55463 0.47582 0.0
C926 C 0.50794 0.50951 0.48643 0.0
C927 C 0.54875 0.58588 0.52473 0.0
H928 H 0.67672 0.5976 0.55786 0.0
H929 H 0.64436 0.61247 0.56577 0.0
H930 H 0.62225 0.55736 0.6103 0.0
H931 H 0.65443 0.54244 0.60214 0.0
H932 H 0.43182 0.50238 0.46592 0.0
H933 H 0.46348 0.4848 0.47097 0.0
H934 H 0.5121 0.55662 0.48221 0.0
H935 H 0.48103 0.57413 0.47873 0.0
Tb936 Tb 0.02923 0.54257 0.03995 0.0
Tb937 Tb 0.08515 0.55023 0.04315 0.0
C938 C 0.05527 0.53055 0.07936 0.0
C939 C 0.97472 0.55751 0.03499 0.0
C940 C 0.95093 0.59185 0.03006 0.0
C941 C 0.93906 0.568 0.03412 0.0
C942 C 0.95087 0.55098 0.03652 0.0
C943 C 0.98673 0.58122 0.03096 0.0
C944 C 0.97493 0.59828 0.0285 0.0
C945 C 0.98704 0.53966 0.03797 0.0
O946 O 0.04653 0.57818 0.05777 0.0
O947 O 0.08286 0.58689 0.04543 0.0
O948 O 0.07321 0.5484 0.00862 0.0
O949 O 0.0436 0.56423 0.01404 0.0
O950 O 0.11452 0.55296 0.06432 0.0
O951 O 0.11674 0.55418 0.02932 0.0
O952 O 0.0688 0.51133 0.03794 0.0
O953 O 0.03306 0.51007 0.02206 0.0
O954 O 0.03716 0.52139 0.06526 0.0
O955 O 0.07128 0.54976 0.07496 0.0
C956 C 0.06651 0.59381 0.05452 0.0
O957 O 0.99739 0.53446 0.02105 0.0
O958 O 1.00017 0.54317 0.05644 0.0
C959 C 0.05864 0.5594 0.0015 0.0
C960 C 0.13746 0.5319 0.04753 0.0
C961 C 0.15703 0.49363 0.04546 0.0
C962 C 0.16948 0.51667 0.03987 0.0
C963 C 0.15974 0.53564 0.04087 0.0
C964 C 0.12495 0.50892 0.05309 0.0
C965 C 0.13464 0.48996 0.05204 0.0
C966 C 0.12699 0.55167 0.04798 0.0
C967 C 0.04911 0.4996 0.02641 0.0
H968 H 0.92067 0.56257 0.03587 0.0
H969 H 0.9414 0.53279 0.03977 0.0
H970 H 1.00523 0.58654 0.02978 0.0
H971 H 0.98454 0.61642 0.02527 0.0
H972 H 0.18689 0.52013 0.03502 0.0
H973 H 0.1696 0.55321 0.03646 0.0
H974 H 0.10767 0.50562 0.05825 0.0
H975 H 0.12455 0.47238 0.05624 0.0
C976 C 0.01499 0.1865 0.95622 0.0
C977 C 0.01473 0.20694 0.96991 0.0
C978 C 0.01888 0.16628 0.96503 0.0
C979 C 0.02215 0.16615 0.9882 0.0
C980 C 0.02083 0.18624 0.00217 0.0
C981 C 0.01742 0.20652 0.99287 0.0
C982 C 0.02017 0.14531 0.9495 0.0
C983 C 0.02347 0.18649 0.02693 0.0
C984 C 0.01618 0.10446 0.00899 0.0
C985 C 0.03938 0.1051 0.01282 0.0
C986 C 1.01028 0.12436 0.00152 0.0
C987 C 0.02799 0.14542 0.99758 0.0
C988 C 0.05142 0.1462 0.00157 0.0
C989 C 0.05682 0.12617 0.00929 0.0
C990 C 0.98509 0.12287 0.99804 0.0
C991 C 0.07085 0.168 0.9971 0.0
H992 H 0.01303 0.18663 0.93846 0.0
H993 H 0.01716 0.22216 0.00359 0.0
H994 H 0.03751 0.14283 0.95202 0.0
H995 H 1.00729 0.12833 0.95309 0.0
H996 H 0.01694 0.14803 0.93191 0.0
H997 H 0.02054 0.20272 0.03552 0.0
H998 H 1.01106 0.17003 0.03211 0.0
H999 H 0.04111 0.18616 0.03238 0.0
H1000 H 1.00255 0.08839 0.01188 0.0
H1001 H 0.07478 0.12683 0.01208 0.0
H1002 H 0.9813 0.12999 0.98237 0.0
H1003 H 0.98083 0.13412 0.01166 0.0
H1004 H 0.97355 0.10404 0.99777 0.0
H1005 H 0.06933 0.17094 0.97938 0.0
H1006 H 0.08815 0.16595 0.00132 0.0
H1007 H 0.06966 0.18448 0.00674 0.0
C1008 C 0.18127 0.84811 0.19028 0.0
C1009 C 0.17536 0.83659 0.16877 0.0
C1010 C 0.19911 0.84439 0.20391 0.0
C1011 C 0.21087 0.82819 0.19606 0.0
C1012 C 0.20572 0.8174 0.17397 0.0
C1013 C 0.18815 0.82194 0.1605 0.0
C1014 C 0.2046 0.85691 0.22708 0.0
C1015 C 0.21752 0.79969 0.16502 0.0
C1016 C 0.26562 0.82631 0.22882 0.0
C1017 C 0.25676 0.80783 0.24231 0.0
C1018 C 0.25095 0.83319 0.21367 0.0
C1019 C 0.22692 0.82091 0.2116 0.0
C1020 C 0.21797 0.80191 0.22488 0.0
C1021 C 0.23295 0.79582 0.24025 0.0
C1022 C 0.26111 0.85376 0.20007 0.0
C1023 C 0.19255 0.7879 0.22277 0.0
H1024 H 0.17146 0.85953 0.19668 0.0
H1025 H 0.18348 0.81279 0.14395 0.0
H1026 H 0.19877 0.84345 0.23907 0.0
H1027 H 0.22354 0.86529 0.23074 0.0
H1028 H 0.19601 0.87116 0.22971 0.0
H1029 H 0.21441 0.796 0.14677 0.0
H1030 H 0.23643 0.80646 0.16959 0.0
H1031 H 0.21079 0.78234 0.17234 0.0
H1032 H 0.28402 0.83567 0.23031 0.0
H1033 H 0.22604 0.78128 0.25039 0.0
H1034 H 0.25296 0.86827 0.2032 0.0
H1035 H 0.25741 0.84737 0.18224 0.0
H1036 H 0.28012 0.86163 0.2038 0.0
H1037 H 0.18233 0.80018 0.22735 0.0
H1038 H 0.18855 0.77281 0.23344 0.0
H1039 H 0.18678 0.78033 0.20539 0.0
C1040 C 0.52651 0.85671 0.48415 0.0
C1041 C 0.53613 0.85591 0.4639 0.0
C1042 C 0.52796 0.87903 0.49596 0.0
C1043 C 0.53928 0.90103 0.48733 0.0
C1044 C 0.54948 0.90027 0.4672 0.0
C1045 C 0.54782 0.87785 0.45583 0.0
C1046 C 0.51704 0.87911 0.51747 0.0
C1047 C 0.56188 0.9232 0.45742 0.0
C1048 C 0.52668 0.96044 0.50219 0.0
C1049 C 0.54654 0.97349 0.51592 0.0
C1050 C 0.52353 0.93638 0.49359 0.0
C1051 C 0.54053 0.92502 0.49899 0.0
C1052 C 0.56004 0.93775 0.51371 0.0
C1053 C 0.56286 0.96179 0.52186 0.0
C1054 C 0.50251 0.9235 0.4779 0.0
C1055 C 0.57851 0.92639 0.52014 0.0
H1056 H 0.51741 0.83993 0.49053 0.0
H1057 H 0.55549 0.87758 0.4403 0.0
H1058 H 0.52998 0.89021 0.53077 0.0
H1059 H 0.50293 0.88749 0.51592 0.0
H1060 H 0.50982 0.86057 0.52248 0.0
H1061 H 0.56907 0.91951 0.44172 0.0
H1062 H 0.54981 0.93383 0.45422 0.0
H1063 H 0.57625 0.93466 0.46927 0.0
H1064 H 0.51395 0.96927 0.49758 0.0
H1065 H 0.57815 0.97153 0.53271 0.0
H1066 H 0.49376 0.90538 0.48305 0.0
H1067 H 0.50791 0.92069 0.46113 0.0
H1068 H 0.48988 0.93388 0.47696 0.0
H1069 H 0.57062 0.90807 0.52528 0.0
H1070 H 0.59102 0.9375 0.53379 0.0
H1071 H 0.58817 0.92429 0.50568 0.0
C1072 C 0.52818 0.30669 0.67371 0.0
C1073 C 0.54573 0.30107 0.68618 0.0
C1074 C 0.50691 0.30524 0.68224 0.0
C1075 C 0.50328 0.29822 0.70376 0.0
C1076 C 0.521 0.29275 0.71644 0.0
C1077 C 0.5419 0.29414 0.70749 0.0
C1078 C 0.48829 0.31102 0.66823 0.0
C1079 C 0.51789 0.28535 0.73953 0.0
C1080 C 0.4586 0.31277 0.73825 0.0
C1081 C 0.44201 0.28998 0.73746 0.0
C1082 C 0.47811 0.3161 0.72633 0.0
C1083 C 0.48095 0.29618 0.71324 0.0
C1084 C 0.46358 0.27347 0.71143 0.0
C1085 C 0.44437 0.27062 0.72366 0.0
C1086 C 0.49632 0.34055 0.7288 0.0
C1087 C 0.46584 0.25186 0.69745 0.0
H1088 H 0.53097 0.31203 0.65724 0.0
H1089 H 0.55536 0.2899 0.71735 0.0
H1090 H 0.47262 0.29501 0.66555 0.0
H1091 H 0.48328 0.32592 0.67688 0.0
H1092 H 0.49391 0.31642 0.65191 0.0
H1093 H 0.53357 0.28218 0.74737 0.0
H1094 H 0.51369 0.29961 0.75006 0.0
H1095 H 0.5032 0.26851 0.73913 0.0
H1096 H 0.45685 0.32776 0.74896 0.0
H1097 H 0.43133 0.25308 0.72273 0.0
H1098 H 0.50137 0.34615 0.71242 0.0
H1099 H 0.51203 0.33941 0.73835 0.0
H1100 H 0.49033 0.35477 0.73748 0.0
H1101 H 0.47045 0.25678 0.68077 0.0
H1102 H 0.44966 0.23639 0.69571 0.0
H1103 H 0.47997 0.24586 0.70508 0.0
C1104 C 0.04346 0.86593 0.60251 0.0
C1105 C 0.05797 0.86777 0.62202 0.0
C1106 C 0.04347 0.88643 0.59085 0.0
C1107 C 0.05883 0.91001 0.59807 0.0
C1108 C 0.07378 0.91191 0.61759 0.0
C1109 C 0.07297 0.89121 0.62927 0.0
C1110 C 0.02655 0.88282 0.57081 0.0
C1111 C 0.09109 0.93594 0.62606 0.0
C1112 C 0.07173 0.95901 0.5555 0.0
C1113 C 0.05865 0.9745 0.5617 0.0
C1114 C 0.07229 0.93865 0.56718 0.0
C1115 C 0.05897 0.93247 0.58554 0.0
C1116 C 0.0456 0.94795 0.59171 0.0
C1117 C 0.04585 0.96853 0.58014 0.0
C1118 C 0.08747 0.92375 0.5599 0.0
C1119 C 0.03062 0.94259 0.61058 0.0
H1120 H 0.03158 0.84833 0.59646 0.0
H1121 H 0.08446 0.89341 0.6441 0.0
H1122 H 0.01559 0.89488 0.57312 0.0
H1123 H 0.036 0.88786 0.55609 0.0
H1124 H 0.01517 0.86382 0.56749 0.0
H1125 H 0.10088 0.93507 0.6418 0.0
H1126 H 0.10353 0.94188 0.61356 0.0
H1127 H 0.08227 0.94997 0.62862 0.0
H1128 H 0.08188 0.96297 0.54153 0.0
H1129 H 0.03549 0.97983 0.58542 0.0
H1130 H 0.0767 0.90495 0.55427 0.0
H1131 H 0.09947 0.92281 0.57404 0.0
H1132 H 0.09776 0.9313 0.54629 0.0
H1133 H 0.01861 0.92386 0.60762 0.0
H1134 H 0.02034 0.95535 0.61288 0.0
H1135 H 0.04154 0.94371 0.62611 0.0
C1136 C 0.46623 0.78503 0.86739 0.0
C1137 C 0.48224 0.78031 0.85324 0.0
C1138 C 0.44387 0.78611 0.85924 0.0
C1139 C 0.43625 0.78165 0.8362 0.0
C1140 C 0.45208 0.77599 0.82202 0.0
C1141 C 0.47458 0.77597 0.83048 0.0
C1142 C 0.42867 0.79309 0.87539 0.0
C1143 C 0.44535 0.77011 0.79756 0.0
C1144 C 0.36987 0.76606 0.81657 0.0
C1145 C 0.36794 0.7873 0.80785 0.0
C1146 C 0.39153 0.76388 0.82545 0.0
C1147 C 0.41241 0.78367 0.82682 0.0
C1148 C 0.41038 0.80533 0.81849 0.0
C1149 C 0.3887 0.80667 0.8089 0.0
C1150 C 0.39209 0.73994 0.83292 0.0
C1151 C 0.43127 0.82744 0.81985 0.0
H1152 H 0.47161 0.78909 0.88488 0.0
H1153 H 0.48642 0.77256 0.81904 0.0
H1154 H 0.42524 0.80998 0.87108 0.0
H1155 H 0.41174 0.77881 0.87436 0.0
H1156 H 0.43663 0.79602 0.89266 0.0
H1157 H 0.45805 0.76325 0.78898 0.0
H1158 H 0.42809 0.7563 0.79449 0.0
H1159 H 0.44411 0.78657 0.79019 0.0
H1160 H 0.35442 0.75068 0.81589 0.0
H1161 H 0.38798 0.82333 0.8025 0.0
H1162 H 0.39806 0.74222 0.85072 0.0
H1163 H 0.40462 0.73331 0.82386 0.0
H1164 H 0.37489 0.72595 0.83019 0.0
H1165 H 0.43968 0.83168 0.83697 0.0
H1166 H 0.4268 0.84355 0.81476 0.0
H1167 H 0.44411 0.82387 0.80906 0.0
C1168 C 0.53358 0.21046 0.10626 0.0
C1169 C 0.54582 0.21739 0.12734 0.0
C1170 C 0.53314 0.18864 0.09328 0.0
C1171 C 0.54589 0.17326 0.10085 0.0
C1172 C 0.55874 0.18064 0.12185 0.0
C1173 C 0.5582 0.20195 0.13474 0.0
C1174 C 0.51852 0.18174 0.07154 0.0
C1175 C 0.57337 0.16602 0.1308 0.0
C1176 C 0.53205 0.10483 0.07884 0.0
C1177 C 0.54755 0.10506 0.06253 0.0
C1178 C 0.53082 0.12656 0.0907 0.0
C1179 C 0.54596 0.14969 0.0871 0.0
C1180 C 0.56184 0.14995 0.07085 0.0
C1181 C 0.56215 0.12804 0.05869 0.0
C1182 C 0.51302 0.1247 0.10711 0.0
C1183 C 0.57906 0.17348 0.06657 0.0
H1184 H 0.5237 0.22172 0.10013 0.0
H1185 H 0.56791 0.20675 0.1508 0.0
H1186 H 0.52957 0.18093 0.05793 0.0
H1187 H 0.50598 0.16341 0.07147 0.0
H1188 H 0.50885 0.19474 0.06816 0.0
H1189 H 0.58358 0.17474 0.14659 0.0
H1190 H 0.56221 0.14777 0.13357 0.0
H1191 H 0.58545 0.1635 0.11861 0.0
H1192 H 0.52046 0.08755 0.08212 0.0
H1193 H 0.57437 0.12892 0.04639 0.0
H1194 H 0.50259 0.13695 0.10357 0.0
H1195 H 0.52174 0.13059 0.12399 0.0
H1196 H 0.5012 0.10596 0.10685 0.0
H1197 H 0.56987 0.1861 0.06094 0.0
H1198 H 0.5907 0.17089 0.05394 0.0
H1199 H 0.58975 0.18225 0.08211 0.0
C1200 C 0.14597 0.27946 0.37084 0.0
C1201 C 0.12614 0.28194 0.35899 0.0
C1202 C 0.16689 0.28003 0.36085 0.0
C1203 C 0.16915 0.28363 0.3381 0.0
C1204 C 0.14926 0.28637 0.32608 0.0
C1205 C 0.12838 0.2853 0.3364 0.0
C1206 C 0.18675 0.27657 0.37486 0.0
C1207 C 0.15006 0.29068 0.30208 0.0
C1208 C 0.23185 0.3064 0.31777 0.0
C1209 C 0.2353 0.28543 0.30701 0.0
C1210 C 0.21078 0.30618 0.32736 0.0
C1211 C 0.19198 0.28436 0.32704 0.0
C1212 C 0.19542 0.26314 0.31627 0.0
C1213 C 0.21647 0.26396 0.30642 0.0
C1214 C 0.20868 0.32965 0.33787 0.0
C1215 C 0.1768 0.23916 0.3154 0.0
H1216 H 0.14513 0.27682 0.38817 0.0
H1217 H 0.11373 0.28741 0.32664 0.0
H1218 H 0.19161 0.26097 0.36741 0.0
H1219 H 0.20209 0.29281 0.37541 0.0
H1220 H 0.18252 0.27335 0.39201 0.0
H1221 H 0.13378 0.29315 0.2949 0.0
H1222 H 0.16463 0.30703 0.30014 0.0
H1223 H 0.15324 0.27517 0.2925 0.0
H1224 H 0.24572 0.3233 0.31864 0.0
H1225 H 0.21832 0.24739 0.29854 0.0
H1226 H 0.20616 0.32824 0.35561 0.0
H1227 H 0.19326 0.33331 0.33005 0.0
H1228 H 0.22417 0.34526 0.33638 0.0
H1229 H 0.17303 0.23475 0.3324 0.0
H1230 H 0.18175 0.22417 0.30679 0.0
H1231 H 0.16059 0.24028 0.3068 0.0
C1232 C 0.95778 0.0856 0.15633 0.0
C1233 C 0.94565 0.06537 0.16634 0.0
C1234 C 0.96679 0.08276 0.13608 0.0
C1235 C 0.96453 0.05915 0.12642 0.0
C1236 C 0.95075 0.03873 0.13571 0.0
C1237 C 0.94115 0.04215 0.1555 0.0
C1238 C 0.98052 0.10497 0.12613 0.0
C1239 C 0.94835 0.01325 0.12625 0.0
C1240 C 0.98812 0.04952 0.07144 0.0
C1241 C 1.01079 0.05058 0.07847 0.0
C1242 C 0.97273 0.0525 0.08682 0.0
C1243 C 0.98015 0.05584 0.10961 0.0
C1244 C 1.00291 0.05625 0.11668 0.0
C1245 C 0.01809 0.05406 0.10096 0.0
C1246 C 0.94888 0.05279 0.07871 0.0
C1247 C 1.01129 0.059 0.14087 0.0
H1248 H 0.96121 0.10353 0.16487 0.0
H1249 H 0.93201 0.02654 0.16355 0.0
H1250 H 0.99926 0.10763 0.12975 0.0
H1251 H 0.97675 0.10277 0.10793 0.0
H1252 H 0.97675 0.12152 0.13294 0.0
H1253 H 0.93421 0.99964 0.13315 0.0
H1254 H 0.945 0.01122 0.10804 0.0
H1255 H 0.96478 0.00922 0.13023 0.0
H1256 H 0.98269 0.04712 0.05392 0.0
H1257 H 0.03564 0.05471 0.10625 0.0
H1258 H 0.94738 0.07116 0.08271 0.0
H1259 H 0.93549 0.0401 0.08717 0.0
H1260 H 0.94513 0.04788 0.06062 0.0
H1261 H 0.01165 0.07704 0.14855 0.0
H1262 H 0.0289 0.05717 0.14352 0.0
H1263 H 0.99927 0.04516 0.1496 0.0
C1264 C 0.29701 0.67842 0.49078 0.0
C1265 C 0.30288 0.68974 0.51238 0.0
C1266 C 0.29211 0.69098 0.47339 0.0
C1267 C 0.29313 0.71555 0.47765 0.0
C1268 C 0.29918 0.72721 0.49938 0.0
C1269 C 0.30398 0.71413 0.51655 0.0
C1270 C 0.28576 0.67789 0.45043 0.0
C1271 C 0.30051 0.75343 0.50446 0.0
C1272 C 0.30005 0.74936 0.42671 0.0
C1273 C 0.27706 0.74757 0.42005 0.0
C1274 C 0.30571 0.74013 0.44609 0.0
C1275 C 0.28793 0.72882 0.45913 0.0
C1276 C 0.26483 0.728 0.45306 0.0
C1277 C 0.25967 0.73743 0.43357 0.0
C1278 C 0.33057 0.74148 0.45202 0.0
C1279 C 0.2454 0.71602 0.46653 0.0
H1280 H 0.29611 0.65957 0.4874 0.0
H1281 H 0.30849 0.72297 0.53321 0.0
H1282 H 0.26837 0.67824 0.44412 0.0
H1283 H 0.29819 0.6872 0.43903 0.0
H1284 H 0.28567 0.65873 0.44994 0.0
H1285 H 0.3056 0.75988 0.52219 0.0
H1286 H 0.31321 0.76495 0.49449 0.0
H1287 H 0.2835 0.75593 0.49987 0.0
H1288 H 0.31359 0.75763 0.4165 0.0
H1289 H 0.24187 0.73594 0.42844 0.0
H1290 H 0.33234 0.723 0.45027 0.0
H1291 H 0.33594 0.74892 0.46947 0.0
H1292 H 0.34256 0.75286 0.44133 0.0
H1293 H 0.24275 0.69622 0.46523 0.0
H1294 H 0.22888 0.71909 0.4609 0.0
H1295 H 0.24985 0.72289 0.48421 0.0
C1296 C 0.64479 0.978 0.65256 0.0
C1297 C 0.63381 0.97104 0.67154 0.0
C1298 C 0.63192 0.98083 0.63361 0.0
C1299 C 0.60783 0.97681 0.63403 0.0
C1300 C 0.59641 0.96605 0.65183 0.0
C1301 C 0.6096 0.96316 0.67041 0.0
C1302 C 0.6445 0.99114 0.61436 0.0
C1303 C 0.57067 0.96093 0.6527 0.0
C1304 C 0.58726 0.02643 0.61183 0.0
C1305 C 0.57433 0.01468 0.59229 0.0
C1306 C 0.59777 0.01399 0.62573 0.0
C1307 C 0.59599 0.98945 0.61938 0.0
C1308 C 0.58288 0.97749 0.59956 0.0
C1309 C 0.57187 0.99024 0.58635 0.0
C1310 C 0.61116 0.0273 0.64701 0.0
C1311 C 0.58141 0.95179 0.59169 0.0
H1312 H 0.6635 0.98367 0.65322 0.0
H1313 H 0.60106 0.95715 0.68494 0.0
H1314 H 0.634 0.98337 0.59853 0.0
H1315 H 0.64764 0.01102 0.61574 0.0
H1316 H 0.66147 0.98766 0.61406 0.0
H1317 H 0.56397 0.94854 0.66537 0.0
H1318 H 0.56691 0.97821 0.6569 0.0
H1319 H 0.56122 0.95284 0.63646 0.0
H1320 H 0.58935 0.04546 0.61607 0.0
H1321 H 0.56236 0.98147 0.57081 0.0
H1322 H 0.62969 0.0286 0.64663 0.0
H1323 H 0.60469 0.01723 0.66119 0.0
H1324 H 0.60983 0.04591 0.64994 0.0
H1325 H 0.59781 0.95171 0.58475 0.0
H1326 H 0.56703 0.94369 0.57859 0.0
H1327 H 0.57912 0.94017 0.60547 0.0
C1328 C 0.29007 0.32292 0.95905 0.0
C1329 C 0.29994 0.34766 0.96594 0.0
C1330 C 0.29118 0.31362 0.93715 0.0
C1331 C 0.30291 0.32931 0.922 0.0
C1332 C 0.31379 0.35405 0.92934 0.0
C1333 C 0.31194 0.36288 0.95099 0.0
C1334 C 0.27899 0.28724 0.92995 0.0
C1335 C 0.32693 0.37145 0.91412 0.0
C1336 C 0.32185 0.306 0.86816 0.0
C1337 C 0.30577 0.30963 0.85231 0.0
C1338 C 0.3208 0.31164 0.89092 0.0
C1339 C 0.3029 0.32057 0.89815 0.0
C1340 C 0.28611 0.32334 0.88221 0.0
C1341 C 0.28795 0.3182 0.8596 0.0
C1342 C 0.33936 0.30889 0.90717 0.0
C1343 C 0.26643 0.3323 0.889 0.0
H1344 H 0.28063 0.31109 0.97044 0.0
H1345 H 0.31982 0.382 0.95624 0.0
H1346 H 0.2645 0.28563 0.91734 0.0
H1347 H 0.29096 0.27866 0.92216 0.0
H1348 H 0.27196 0.27706 0.94393 0.0
H1349 H 0.336 0.38963 0.92285 0.0
H1350 H 0.33987 0.36423 0.90643 0.0
H1351 H 0.31482 0.37355 0.9006 0.0
H1352 H 0.33569 0.29939 0.86274 0.0
H1353 H 0.27526 0.32085 0.84759 0.0
H1354 H 0.33148 0.29789 0.92033 0.0
H1355 H 0.3497 0.32696 0.91527 0.0
H1356 H 0.35121 0.30025 0.89916 0.0
H1357 H 0.25766 0.32183 0.90211 0.0
H1358 H 0.25342 0.33087 0.87493 0.0
H1359 H 0.27327 0.35154 0.89591 0.0
C1360 C 1.00136 0.06714 0.30098 0.0
C1361 C 1.00794 0.05984 0.28064 0.0
C1362 C 0.01256 0.06417 0.32088 0.0
C1363 C 0.03064 0.05351 0.32037 0.0
C1364 C 0.03852 0.04783 0.29995 0.0
C1365 C 0.02713 0.05116 0.28031 0.0
C1366 C 1.00391 0.07081 0.34238 0.0
C1367 C 0.05775 0.03642 0.29872 0.0
C1368 C 0.06467 0.0521 0.37442 0.0
C1369 C 0.05241 0.02935 0.38061 0.0
C1370 C 0.05805 0.06021 0.35469 0.0
C1371 C 0.03889 0.0451 0.34078 0.0
C1372 C 0.02693 0.02186 0.34658 0.0
C1373 C 0.03372 0.01436 0.36646 0.0
C1374 C 0.07113 0.08513 0.34902 0.0
C1375 C 1.00647 1.00511 0.33211 0.0
H1376 H 0.98674 0.07414 0.30141 0.0
H1377 H 0.03251 0.04564 0.26469 0.0
H1378 H 0.99437 0.05406 0.34944 0.0
H1379 H 0.01859 0.08089 0.35456 0.0
H1380 H 0.99214 0.08201 0.34018 0.0
H1381 H 0.06407 0.03641 0.28204 0.0
H1382 H 0.0725 0.04607 0.31097 0.0
H1383 H 0.05135 0.01741 0.30273 0.0
H1384 H 0.07926 0.06371 0.38513 0.0
H1385 H 0.02377 0.99701 0.37125 0.0
H1386 H 0.05952 0.09665 0.34885 0.0
H1387 H 0.07704 0.08404 0.33226 0.0
H1388 H 0.08638 0.09412 0.36099 0.0
H1389 H 0.9923 0.01345 0.33094 0.0
H1390 H 0.99976 0.98719 0.3385 0.0
H1391 H 1.01137 1.00224 0.31514 0.0
C1392 C 0.34823 0.69535 0.64225 0.0
C1393 C 0.33352 0.67147 0.63942 0.0
C1394 C 0.3482 0.71074 0.66115 0.0
C1395 C 0.3324 0.70228 0.67697 0.0
C1396 C 0.31829 0.67787 0.67462 0.0
C1397 C 0.31934 0.66265 0.65607 0.0
C1398 C 0.36434 0.73633 0.66371 0.0
C1399 C 0.30078 0.66825 0.6908 0.0
C1400 C 0.33347 0.73619 0.73293 0.0
C1401 C 0.31809 0.74925 0.72818 0.0
C1402 C 0.3393 0.72171 0.71619 0.0
C1403 C 0.32858 0.71946 0.69451 0.0
C1404 C 0.31292 0.7326 0.68976 0.0
C1405 C 0.30826 0.74777 0.7066 0.0
C1406 C 0.35666 0.70867 0.72179 0.0
C1407 C 0.30044 0.73 0.66707 0.0
H1408 H 0.35936 0.70212 0.6295 0.0
H1409 H 0.30782 0.64423 0.6539 0.0
H1410 H 0.3544 0.7491 0.66054 0.0
H1411 H 0.37269 0.7412 0.68084 0.0
H1412 H 0.37799 0.73884 0.65208 0.0
H1413 H 0.29173 0.64857 0.68701 0.0
H1414 H 0.30927 0.67139 0.70783 0.0
H1415 H 0.28769 0.67807 0.69044 0.0
H1416 H 0.34124 0.73762 0.74967 0.0
H1417 H 0.29626 0.75784 0.70307 0.0
H1418 H 0.36885 0.70991 0.70883 0.0
H1419 H 0.34757 0.68922 0.72268 0.0
H1420 H 0.36674 0.71613 0.73793 0.0
H1421 H 0.31309 0.73556 0.65471 0.0
H1422 H 0.28842 0.74108 0.66629 0.0
H1423 H 0.29041 0.71075 0.66227 0.0
C1424 C 0.63088 0.03201 0.79888 0.0
C1425 C 0.61861 0.03297 0.77891 0.0
C1426 C 0.62294 0.03724 0.81911 0.0
C1427 C 0.60219 0.04346 0.81932 0.0
C1428 C 0.58979 0.04466 0.79927 0.0
C1429 C 0.5982 0.03944 0.77925 0.0
C1430 C 0.63664 0.03591 0.84025 0.0
C1431 C 0.56754 0.05116 0.79898 0.0
C1432 C 0.57092 0.03297 0.87091 0.0
C1433 C 0.57763 0.05635 0.88193 0.0
C1434 C 0.5785 0.02859 0.85029 0.0
C1435 C 0.59319 0.04809 0.8406 0.0
C1436 C 0.5998 0.0718 0.85152 0.0
C1437 C 0.59186 0.07567 0.8721 0.0
C1438 C 0.57101 1.00309 0.83901 0.0
C1439 C 0.61559 0.09295 0.84166 0.0
H1440 H 0.64674 0.02714 0.79876 0.0
H1441 H 0.58863 0.04022 0.76388 0.0
H1442 H 0.64126 0.05345 0.85066 0.0
H1443 H 0.62597 0.02192 0.84982 0.0
H1444 H 0.65277 0.03144 0.83719 0.0
H1445 H 0.56024 0.05176 0.78196 0.0
H1446 H 0.55452 0.03771 0.80719 0.0
H1447 H 0.57049 0.06907 0.80839 0.0
H1448 H 0.55965 0.0181 0.87842 0.0
H1449 H 0.5972 0.09371 0.88075 0.0
H1450 H 0.58637 0.99689 0.83681 0.0
H1451 H 0.56239 1.00263 0.82234 0.0
H1452 H 0.55896 0.99012 0.8485 0.0
H1453 H 0.63257 0.08992 0.83978 0.0
H1454 H 0.61849 0.11036 0.85197 0.0
H1455 H 0.6082 0.0945 0.82496 0.0
C1456 C 0.28319 0.32098 0.11409 0.0
C1457 C 0.30205 0.33964 0.10854 0.0
C1458 C 0.28154 0.31452 0.13591 0.0
C1459 C 0.29944 0.32658 0.15265 0.0
C1460 C 0.31878 0.34504 0.147 0.0
C1461 C 0.31971 0.35153 0.12518 0.0
C1462 C 0.26043 0.29502 0.14113 0.0
C1463 C 0.33858 0.35797 0.16402 0.0
C1464 C 0.28828 0.32466 0.21392 0.0
C1465 C 0.29639 0.30555 0.21973 0.0
C1466 C 0.28883 0.33149 0.19215 0.0
C1467 C 0.29828 0.31938 0.17586 0.0
C1468 C 0.30681 0.30035 0.18181 0.0
C1469 C 0.30553 0.29354 0.20345 0.0
C1470 C 0.27914 0.35156 0.18652 0.0
C1471 C 0.31759 0.28728 0.16535 0.0
H1472 H 0.26929 0.31189 0.1015 0.0
H1473 H 0.33434 0.36599 0.12113 0.0
H1474 H 0.26555 0.27979 0.1474 0.0
H1475 H 0.25188 0.30228 0.15435 0.0
H1476 H 0.24769 0.28787 0.1265 0.0
H1477 H 0.35262 0.37151 0.15694 0.0
H1478 H 0.33228 0.36736 0.17762 0.0
H1479 H 0.3459 0.34466 0.17136 0.0
H1480 H 0.28119 0.33406 0.2263 0.0
H1481 H 0.31217 0.27896 0.20772 0.0
H1482 H 0.2654 0.34488 0.17265 0.0
H1483 H 0.29289 0.36666 0.18097 0.0
H1484 H 0.27178 0.35871 0.20076 0.0
H1485 H 0.3048 0.27842 0.15114 0.0
H1486 H 0.32394 0.27328 0.17268 0.0
H1487 H 0.33231 0.30044 0.1588 0.0
C1488 C 0.21245 0.94624 0.02497 0.0
C1489 C 0.23471 0.94833 0.03409 0.0
C1490 C 0.20032 0.96145 0.03363 0.0
C1491 C 0.21064 0.97855 0.05203 0.0
C1492 C 0.2322 0.97902 0.06244 0.0
C1493 C 0.24416 0.96416 0.0531 0.0
C1494 C 0.17727 0.96045 0.0222 0.0
C1495 C 0.24327 0.99624 0.08264 0.0
C1496 C 0.19829 0.03862 0.0548 0.0
C1497 C 0.18072 0.03507 0.06914 0.0
C1498 C 0.20796 0.02025 0.04904 0.0
C1499 C 0.20058 0.99807 0.05852 0.0
C1500 C 0.18395 0.99485 0.07409 0.0
C1501 C 0.17391 0.01324 0.07893 0.0
C1502 C 0.22567 0.02437 0.0323 0.0
C1503 C 0.17619 0.97179 0.08515 0.0
H1504 H 0.20522 0.93393 0.01026 0.0
H1505 H 0.26129 0.96542 0.06031 0.0
H1506 H 0.16421 0.95888 0.03432 0.0
H1507 H 0.17892 0.9775 0.01451 0.0
H1508 H 0.17085 0.94499 0.00917 0.0
H1509 H 0.25829 0.99187 0.09055 0.0
H1510 H 0.24933 0.01501 0.07795 0.0
H1511 H 0.2305 0.99578 0.09493 0.0
H1512 H 0.20411 0.05561 0.04759 0.0
H1513 H 0.16017 0.01011 0.08982 0.0
H1514 H 0.21967 0.0102 0.01813 0.0
H1515 H 0.24225 0.02297 0.03979 0.0
H1516 H 0.22897 0.04239 0.02597 0.0
H1517 H 0.16327 0.95774 0.07377 0.0
H1518 H 0.16809 0.97453 0.10054 0.0
H1519 H 0.19087 0.96477 0.08924 0.0
C1520 C 0.71096 0.66086 0.00433 0.0
C1521 C 0.73209 0.65685 0.00996 0.0
C1522 C 0.68994 0.64307 0.00639 0.0
C1523 C 0.69015 0.62102 0.01467 0.0
C1524 C 0.71144 0.61661 0.01973 0.0
C1525 C 0.73215 0.63449 0.01711 0.0
C1526 C 0.66752 0.6482 0.0004 0.0
C1527 C 0.7124 0.59352 0.02893 0.0
C1528 C 0.63793 0.59141 0.04451 0.0
C1529 C 0.62493 0.57289 0.02863 0.0
C1530 C 0.65961 0.60657 0.04045 0.0
C1531 C 0.66821 0.6035 0.01977 0.0
C1532 C 0.65546 0.58432 0.00391 0.0
C1533 C 0.634 0.56901 0.00864 0.0
C1534 C 0.67293 0.62641 0.05803 0.0
C1535 C 0.66391 0.58073 0.98156 0.0
H1536 H 0.71084 0.67802 0.99862 0.0
H1537 H 0.74843 0.63124 0.02147 0.0
H1538 H 0.65572 0.63293 0.98927 0.0
H1539 H 0.65872 0.65 0.01552 0.0
H1540 H 0.67026 0.66511 0.99218 0.0
H1541 H 0.73024 0.59216 0.03056 0.0
H1542 H 0.70574 0.59273 0.04546 0.0
H1543 H 0.70118 0.57752 0.01823 0.0
H1544 H 0.63087 0.59437 0.05998 0.0
H1545 H 0.62377 0.55491 0.99622 0.0
H1546 H 0.67418 0.64434 0.05224 0.0
H1547 H 0.69082 0.62559 0.06127 0.0
H1548 H 0.66465 0.62517 0.07378 0.0
H1549 H 0.66418 0.59647 0.97227 0.0
H1550 H 0.65278 0.56401 0.97167 0.0
H1551 H 0.68187 0.57979 0.98338 0.0
C1552 C 0.74782 0.51517 0.32126 0.0
C1553 C 0.72541 0.50106 0.3246 0.0
C1554 C 0.76527 0.50448 0.3178 0.0
C1555 C 0.76011 0.4791 0.31763 0.0
C1556 C 0.73794 0.46496 0.32238 0.0
C1557 C 0.72082 0.47614 0.32583 0.0
C1558 C 0.78876 0.52013 0.31291 0.0
C1559 C 0.73167 0.43779 0.32224 0.0
C1560 C 0.79021 0.44557 0.28053 0.0
C1561 C 0.80554 0.4398 0.29572 0.0
C1562 C 0.776 0.4592 0.2874 0.0
C1563 C 0.77693 0.46703 0.31006 0.0
C1564 C 0.79294 0.46212 0.3254 0.0
C1565 C 0.80724 0.44875 0.318 0.0
C1566 C 0.75915 0.46417 0.27053 0.0
C1567 C 0.79413 0.46993 0.34972 0.0
H1568 H 0.75153 0.5345 0.3205 0.0
H1569 H 0.70355 0.46514 0.32846 0.0
H1570 H 0.80264 0.51584 0.32289 0.0
H1571 H 0.7912 0.51637 0.29528 0.0
H1572 H 0.79082 0.53975 0.31628 0.0
H1573 H 0.7165 0.43048 0.33167 0.0
H1574 H 0.72722 0.42938 0.30496 0.0
H1575 H 0.74634 0.43223 0.32923 0.0
H1576 H 0.78841 0.43838 0.26337 0.0
H1577 H 0.81926 0.44464 0.3298 0.0
H1578 H 0.76088 0.48377 0.2718 0.0
H1579 H 0.74121 0.45439 0.27381 0.0
H1580 H 0.76179 0.45836 0.25339 0.0
H1581 H 0.79686 0.4897 0.35242 0.0
H1582 H 0.80821 0.46556 0.35938 0.0
H1583 H 0.77746 0.46075 0.35621 0.0
C1584 C 0.87184 0.46279 0.49327 0.0
C1585 C 0.86116 0.47948 0.48598 0.0
C1586 C 0.89592 0.46906 0.4971 0.0
C1587 C 0.90959 0.49266 0.49381 0.0
C1588 C 0.89899 0.50939 0.48589 0.0
C1589 C 0.87485 0.50253 0.48193 0.0
C1590 C 0.90668 0.45063 0.50523 0.0
C1591 C 0.91308 0.53479 0.48236 0.0
C1592 C 0.96792 0.51652 0.52694 0.0
C1593 C 0.98289 0.51391 0.51106 0.0
C1594 C 0.94401 0.50989 0.52145 0.0
C1595 C 0.9349 0.50016 0.49964 0.0
C1596 C 0.94989 0.4973 0.48358 0.0
C1597 C 0.97376 0.50434 0.48946 0.0
C1598 C 0.92852 0.51337 0.53896 0.0
C1599 C 0.9407 0.48666 0.46025 0.0
H1600 H 0.86135 0.44486 0.49626 0.0
H1601 H 0.86668 0.51552 0.47635 0.0
H1602 H 0.92021 0.44862 0.49454 0.0
H1603 H 0.91521 0.45693 0.52215 0.0
H1604 H 0.89374 0.43259 0.50555 0.0
H1605 H 0.90229 0.54524 0.47519 0.0
H1606 H 0.92195 0.54457 0.49834 0.0
H1607 H 0.92668 0.53427 0.47123 0.0
H1608 H 0.97489 0.52401 0.54363 0.0
H1609 H 0.98527 0.50218 0.47715 0.0
H1610 H 0.91607 0.49568 0.54151 0.0
H1611 H 0.91829 0.52516 0.53352 0.0
H1612 H 0.93842 0.52162 0.55502 0.0
H1613 H 0.92853 0.46818 0.46036 0.0
H1614 H 0.9547 0.48561 0.44975 0.0
H1615 H 0.9309 0.49776 0.45262 0.0
C1616 C 0.38908 0.11292 0.29964 0.0
C1617 C 0.40984 0.11061 0.29268 0.0
C1618 C 0.37697 0.12601 0.28816 0.0
C1619 C 0.38549 0.13625 0.26888 0.0
C1620 C 0.4068 0.13458 0.26217 0.0
C1621 C 0.41891 0.12202 0.27437 0.0
C1622 C 0.35465 0.12816 0.29626 0.0
C1623 C 0.41617 0.14483 0.24148 0.0
C1624 C 0.33623 0.14231 0.23138 0.0
C1625 C 0.33766 0.16651 0.23707 0.0
C1626 C 0.35306 0.13269 0.24012 0.0
C1627 C 0.37129 0.14754 0.25528 0.0
C1628 C 0.37388 0.1725 0.25951 0.0
C1629 C 0.35709 0.18173 0.25018 0.0
C1630 C 0.35026 0.10617 0.23456 0.0
C1631 C 0.39291 0.18897 0.27567 0.0
H1632 H 0.38213 0.10415 0.31383 0.0
H1633 H 0.43486 0.11999 0.2688 0.0
H1634 H 0.35487 0.14737 0.29764 0.0
H1635 H 0.33992 0.11787 0.28422 0.0
H1636 H 0.35155 0.12111 0.31256 0.0
H1637 H 0.43399 0.14404 0.23971 0.0
H1638 H 0.40479 0.13438 0.22687 0.0
H1639 H 0.41621 0.1639 0.24135 0.0
H1640 H 0.32123 0.1306 0.2212 0.0
H1641 H 0.3581 0.20042 0.25486 0.0
H1642 H 0.34403 0.0961 0.2488 0.0
H1643 H 0.3671 0.1035 0.23124 0.0
H1644 H 0.33766 0.09823 0.21996 0.0
H1645 H 0.38842 0.18559 0.29272 0.0
H1646 H 0.39526 0.20838 0.27374 0.0
H1647 H 0.40959 0.18533 0.27373 0.0
C1648 C 0.34923 0.13659 0.53256 0.0
C1649 C 0.35172 0.16144 0.5344 0.0
C1650 C 0.36846 0.12815 0.53318 0.0
C1651 C 0.39091 0.14497 0.53595 0.0
C1652 C 0.39365 0.17013 0.53695 0.0
C1653 C 0.37393 0.17812 0.53603 0.0
C1654 C 0.36467 0.10115 0.53168 0.0
C1655 C 0.41734 0.18856 0.53993 0.0
C1656 C 0.4327 0.11645 0.56256 0.0
C1657 C 0.44156 0.10789 0.54408 0.0
C1658 C 0.41765 0.13045 0.56034 0.0
C1659 C 0.41109 0.13576 0.53909 0.0
C1660 C 0.42117 0.12848 0.52055 0.0
C1661 C 0.43635 0.11466 0.52328 0.0
C1662 C 0.40752 0.13811 0.58057 0.0
C1663 C 0.41457 0.13365 0.49761 0.0
H1664 H 0.33207 0.12359 0.53093 0.0
H1665 H 0.3759 0.19733 0.53747 0.0
H1666 H 0.37439 0.09572 0.51849 0.0
H1667 H 0.37128 0.09624 0.54745 0.0
H1668 H 0.34613 0.09052 0.52819 0.0
H1669 H 0.41663 0.20715 0.53792 0.0
H1670 H 0.4255 0.18846 0.55669 0.0
H1671 H 0.42864 0.18386 0.52793 0.0
H1672 H 0.43706 0.11162 0.57872 0.0
H1673 H 0.44314 0.10803 0.50894 0.0
H1674 H 0.3891 0.12714 0.58019 0.0
H1675 H 0.4081 0.15738 0.58082 0.0
H1676 H 0.41677 0.13565 0.59607 0.0
H1677 H 0.3969 0.12168 0.49189 0.0
H1678 H 0.42662 0.13043 0.48565 0.0
H1679 H 0.41428 0.15262 0.49756 0.0
C1680 C 0.71156 0.6183 0.29976 0.0
C1681 C 0.68968 0.61544 0.3072 0.0
C1682 C 0.7258 0.64112 0.29584 0.0
C1683 C 0.71818 0.66163 0.30005 0.0
C1684 C 0.69621 0.65892 0.30783 0.0
C1685 C 0.68203 0.63573 0.31103 0.0
C1686 C 0.74888 0.64325 0.287 0.0
C1687 C 0.68781 0.68051 0.313 0.0
C1688 C 0.76515 0.72212 0.30867 0.0
C1689 C 0.76296 0.73118 0.28832 0.0
C1690 C 0.75024 0.69973 0.31294 0.0
C1691 C 0.73327 0.68589 0.29619 0.0
C1692 C 0.73116 0.6949 0.27553 0.0
C1693 C 0.74585 0.71767 0.27196 0.0
C1694 C 0.75259 0.69093 0.33535 0.0
C1695 C 0.71365 0.68035 0.2571 0.0
H1696 H 0.7174 0.60257 0.29659 0.0
H1697 H 0.66517 0.63352 0.31693 0.0
H1698 H 0.74988 0.65178 0.2713 0.0
H1699 H 0.76305 0.65509 0.29883 0.0
H1700 H 0.75191 0.6254 0.28399 0.0
H1701 H 0.67056 0.67537 0.31953 0.0
H1702 H 0.70031 0.6938 0.32534 0.0
H1703 H 0.68671 0.68976 0.29792 0.0
H1704 H 0.77821 0.73279 0.32143 0.0
H1705 H 0.74425 0.72471 0.25619 0.0
H1706 H 0.75736 0.67394 0.33369 0.0
H1707 H 0.7358 0.68677 0.34269 0.0
H1708 H 0.76589 0.70446 0.34691 0.0
H1709 H 0.71672 0.66271 0.25294 0.0
H1710 H 0.7144 0.6899 0.24196 0.0
H1711 H 0.69595 0.67639 0.26247 0.0
C1712 C 0.93057 0.45396 0.79737 0.0
C1713 C 0.92089 0.47192 0.8047 0.0
C1714 C 0.91728 0.42947 0.79446 0.0
C1715 C 0.89372 0.4229 0.79867 0.0
C1716 C 0.88398 0.44087 0.80648 0.0
C1717 C 0.89772 0.46515 0.80954 0.0
C1718 C 0.92831 0.41071 0.7864 0.0
C1719 C 0.85882 0.43458 0.81088 0.0
C1720 C 0.85331 0.36543 0.76761 0.0
C1721 C 0.84993 0.34939 0.78396 0.0
C1722 C 0.86749 0.38942 0.77223 0.0
C1723 C 0.87885 0.39743 0.79364 0.0
C1724 C 0.87566 0.38128 0.8102 0.0
C1725 C 0.86105 0.35745 0.80521 0.0
C1726 C 0.87018 0.40623 0.75423 0.0
C1727 C 0.88774 0.38914 0.83313 0.0
H1728 H 0.9485 0.45904 0.79376 0.0
H1729 H 0.89007 0.47891 0.81515 0.0
H1730 H 0.92535 0.39605 0.79751 0.0
H1731 H 0.92022 0.40229 0.76976 0.0
H1732 H 0.94722 0.41856 0.78547 0.0
H1733 H 0.85417 0.45056 0.81779 0.0
H1734 H 0.84775 0.42692 0.79531 0.0
H1735 H 0.85476 0.42054 0.82258 0.0
H1736 H 0.84464 0.35932 0.75119 0.0
H1737 H 0.85861 0.34503 0.81785 0.0
H1738 H 0.88864 0.41322 0.7511 0.0
H1739 H 0.8645 0.42207 0.75953 0.0
H1740 H 0.86 0.39718 0.73851 0.0
H1741 H 0.90672 0.39591 0.83226 0.0
H1742 H 0.88387 0.37419 0.84395 0.0
H1743 H 0.88241 0.40429 0.84085 0.0
C1744 C 0.07784 0.89411 0.10914 0.0
C1745 C 0.09364 0.88315 0.10078 0.0
C1746 C 0.07309 0.9134 0.09936 0.0
C1747 C 0.08486 0.9225 0.08106 0.0
C1748 C 0.10097 0.91161 0.07259 0.0
C1749 C 0.10488 0.8918 0.08233 0.0
C1750 C 0.05552 0.92415 0.10871 0.0
C1751 C 0.1142 0.92098 0.05336 0.0
C1752 C 0.0586 0.96064 0.04557 0.0
C1753 C 0.07063 0.98424 0.05487 0.0
C1754 C 0.06326 0.94039 0.05369 0.0
C1755 C 0.08063 0.94379 0.07128 0.0
C1756 C 0.09325 0.96762 0.0803 0.0
C1757 C 0.088 0.98749 0.07211 0.0
C1758 C 0.04916 0.91533 0.04382 0.0
C1759 C 0.1122 0.97211 0.09875 0.0
H1760 H 0.06898 0.88743 0.12331 0.0
H1761 H 0.11719 0.88348 0.07586 0.0
H1762 H 0.064 0.94336 0.11511 0.0
H1763 H 0.04197 0.92384 0.09554 0.0
H1764 H 0.04707 0.91428 0.12231 0.0
H1765 H 0.12832 0.91286 0.05074 0.0
H1766 H 0.10223 0.91668 0.03811 0.0
H1767 H 0.12176 0.94097 0.05596 0.0
H1768 H 0.04515 0.95795 0.03226 0.0
H1769 H 0.09765 1.00566 0.0792 0.0
H1770 H 0.0396 0.90515 0.05671 0.0
H1771 H 0.06072 0.9052 0.03766 0.0
H1772 H 0.03654 0.91572 0.03 0.0
H1773 H 0.10487 0.96419 0.11364 0.0
H1774 H 0.12121 0.9917 0.10319 0.0
H1775 H 0.12505 0.96303 0.0939 0.0
C1776 C 0.9446 0.29311 0.8836 0.0
C1777 C 0.95288 0.27404 0.88899 0.0
C1778 C 0.92417 0.28884 0.86988 0.0
C1779 C 0.91198 0.26491 0.86087 0.0
C1780 C 0.91953 0.24538 0.86731 0.0
C1781 C 0.9399 0.25019 0.8815 0.0
C1782 C 0.91646 0.31016 0.86395 0.0
C1783 C 0.90707 0.21965 0.85802 0.0
C1784 C 0.85278 0.25839 0.83257 0.0
C1785 C 0.85799 0.26241 0.8108 0.0
C1786 C 0.86988 0.25769 0.84886 0.0
C1787 C 0.89274 0.26101 0.84327 0.0
C1788 C 0.89779 0.2636 0.82107 0.0
C1789 C 0.88039 0.26436 0.80513 0.0
C1790 C 0.86378 0.25488 0.8723 0.0
C1791 C 0.92192 0.26691 0.81437 0.0
H1792 H 0.95468 0.31156 0.88945 0.0
H1793 H 0.94651 0.23548 0.88545 0.0
H1794 H 0.9186 0.3127 0.84629 0.0
H1795 H 0.89787 0.30677 0.86629 0.0
H1796 H 0.92653 0.32723 0.87401 0.0
H1797 H 0.9129 0.20636 0.86709 0.0
H1798 H 0.88812 0.2156 0.85854 0.0
H1799 H 0.9104 0.2172 0.84046 0.0
H1800 H 0.83552 0.25679 0.83721 0.0
H1801 H 0.88458 0.26727 0.78837 0.0
H1802 H 0.87214 0.2722 0.88268 0.0
H1803 H 0.87042 0.24092 0.87927 0.0
H1804 H 0.84482 0.24981 0.8735 0.0
H1805 H 0.9335 0.28481 0.82169 0.0
H1806 H 0.92246 0.26596 0.79617 0.0
H1807 H 0.92889 0.25288 0.82073 0.0
C1808 C 0.58643 0.23426 0.59173 0.0
C1809 C 0.59867 0.23941 0.6127 0.0
C1810 C 0.58141 0.21117 0.57997 0.0
C1811 C 0.58887 0.19291 0.5894 0.0
C1812 C 0.60168 0.19825 0.61029 0.0
C1813 C 0.6064 0.22131 0.62161 0.0
C1814 C 0.56775 0.20615 0.5577 0.0
C1815 C 0.61005 0.17941 0.62097 0.0
C1816 C 0.55864 0.12571 0.57463 0.0
C1817 C 0.57433 0.11882 0.56168 0.0
C1818 C 0.5626 0.14997 0.58284 0.0
C1819 C 0.58276 0.16787 0.57805 0.0
C1820 C 0.59824 0.1612 0.56434 0.0
C1821 C 0.59384 0.13678 0.55631 0.0
C1822 C 0.54561 0.15627 0.59735 0.0
C1823 C 0.61993 0.17972 0.55883 0.0
H1824 H 0.58039 0.24807 0.58469 0.0
H1825 H 0.61606 0.22503 0.6377 0.0
H1826 H 0.57718 0.19904 0.54521 0.0
H1827 H 0.55097 0.19202 0.55845 0.0
H1828 H 0.5643 0.22257 0.5521 0.0
H1829 H 0.62041 0.18668 0.637 0.0
H1830 H 0.59504 0.16389 0.62383 0.0
H1831 H 0.62078 0.17231 0.60986 0.0
H1832 H 0.54334 0.11209 0.57865 0.0
H1833 H 0.60598 0.13173 0.54617 0.0
H1834 H 0.54053 0.1717 0.59146 0.0
H1835 H 0.55388 0.16198 0.61443 0.0
H1836 H 0.52975 0.14075 0.59781 0.0
H1837 H 0.61576 0.19552 0.55266 0.0
H1838 H 0.62895 0.17213 0.54622 0.0
H1839 H 0.63196 0.18645 0.57396 0.0
C1840 C 0.60055 0.78209 0.40808 0.0
C1841 C 0.5776 0.77501 0.39871 0.0
C1842 C 0.61901 0.78577 0.3947 0.0
C1843 C 0.61436 0.7824 0.37145 0.0
C1844 C 0.59122 0.77478 0.36193 0.0
C1845 C 0.57314 0.7711 0.37567 0.0
C1846 C 0.64348 0.79367 0.40542 0.0
C1847 C 0.58556 0.77108 0.33721 0.0
C1848 C 0.66027 0.81562 0.33599 0.0
C1849 C 0.66904 0.79715 0.32806 0.0
C1850 C 0.64263 0.8111 0.35028 0.0
C1851 C 0.63365 0.78759 0.35696 0.0
C1852 C 0.64256 0.76891 0.34922 0.0
C1853 C 0.66006 0.77388 0.33478 0.0
C1854 C 0.63348 0.83147 0.35812 0.0
C1855 C 0.63346 0.74362 0.35603 0.0
H1856 H 0.6041 0.78505 0.42587 0.0
H1857 H 0.55545 0.76558 0.36829 0.0
H1858 H 0.65282 0.78107 0.39934 0.0
H1859 H 0.65287 0.81188 0.40085 0.0
H1860 H 0.64414 0.79439 0.42369 0.0
H1861 H 0.56665 0.76444 0.33245 0.0
H1862 H 0.5929 0.78839 0.33002 0.0
H1863 H 0.59354 0.75786 0.32976 0.0
H1864 H 0.66737 0.83375 0.33122 0.0
H1865 H 0.66652 0.75942 0.32853 0.0
H1866 H 0.63552 0.83432 0.3764 0.0
H1867 H 0.61474 0.82665 0.35289 0.0
H1868 H 0.64248 0.84878 0.35155 0.0
H1869 H 0.63486 0.74415 0.37428 0.0
H1870 H 0.64291 0.7314 0.34929 0.0
H1871 H 0.61487 0.7358 0.35019 0.0
C1872 C 0.06959 0.2046 0.4483 0.0
C1873 C 0.05181 0.20517 0.43244 0.0
C1874 C 0.06908 0.18353 0.45928 0.0
C1875 C 0.04989 0.16194 0.45535 0.0
C1876 C 0.03169 0.16256 0.43963 0.0
C1877 C 0.03305 0.18361 0.42827 0.0
C1878 C 0.08949 0.18431 0.47499 0.0
C1879 C 1.0104 0.14091 0.43492 0.0
C1880 C 0.05524 0.09878 0.46972 0.0
C1881 C 0.04769 0.09639 0.49112 0.0
C1882 C 0.05628 0.11965 0.45824 0.0
C1883 C 0.04889 0.13907 0.46763 0.0
C1884 C 0.04076 0.13648 0.48903 0.0
C1885 C 0.04068 0.1158 0.50047 0.0
C1886 C 0.06584 0.12108 0.43602 0.0
C1887 C 0.03186 0.15565 0.49996 0.0
H1888 H 0.08438 0.22068 0.45186 0.0
H1889 H 0.01901 0.18328 0.4163 0.0
H1890 H 0.08405 0.18213 0.4919 0.0
H1891 H 0.09618 0.16904 0.47014 0.0
H1892 H 0.10374 0.20155 0.4754 0.0
H1893 H 0.997 0.14447 0.42364 0.0
H1894 H 0.01507 0.12527 0.42732 0.0
H1895 H 1.00289 0.13562 0.45057 0.0
H1896 H 0.06105 0.08449 0.46204 0.0
H1897 H 0.03473 0.11472 0.51682 0.0
H1898 H 0.08015 0.1382 0.43606 0.0
H1899 H 0.05223 0.12125 0.42314 0.0
H1900 H 0.07239 0.10562 0.43144 0.0
H1901 H 0.04611 0.1729 0.50349 0.0
H1902 H 0.02442 0.15045 0.51567 0.0
H1903 H 0.0184 0.15909 0.48868 0.0
C1904 C 0.62759 0.30365 0.22317 0.0
C1905 C 0.62347 0.30397 0.20013 0.0
C1906 C 0.64923 0.30275 0.23339 0.0
C1907 C 0.66796 0.30194 0.22065 0.0
C1908 C 0.66389 0.30235 0.19741 0.0
C1909 C 0.64217 0.30339 0.18765 0.0
C1910 C 0.65199 0.30253 0.25807 0.0
C1911 C 0.68257 0.30141 0.1826 0.0
C1912 C 0.73207 0.31957 0.24799 0.0
C1913 C 0.73585 0.2971 0.25101 0.0
C1914 C 0.71049 0.32139 0.23853 0.0
C1915 C 0.69144 0.30032 0.23139 0.0
C1916 C 0.69518 0.27761 0.23436 0.0
C1917 C 0.71686 0.2763 0.244 0.0
C1918 C 0.70811 0.34617 0.23619 0.0
C1919 C 0.67614 0.25437 0.22719 0.0
H1920 H 0.61374 0.30397 0.23338 0.0
H1921 H 0.63978 0.30346 0.16992 0.0
H1922 H 0.65538 0.28557 0.26215 0.0
H1923 H 0.66711 0.31781 0.26527 0.0
H1924 H 0.63642 0.30392 0.26596 0.0
H1925 H 0.67719 0.30207 0.16498 0.0
H1926 H 0.69838 0.31681 0.18772 0.0
H1927 H 0.68722 0.28453 0.1842 0.0
H1928 H 0.74607 0.336 0.25316 0.0
H1929 H 0.71892 0.25868 0.24596 0.0
H1930 H 0.69341 0.3484 0.24506 0.0
H1931 H 0.70424 0.34812 0.21855 0.0
H1932 H 0.72401 0.3609 0.24275 0.0
H1933 H 0.66065 0.25399 0.23597 0.0
H1934 H 0.68135 0.23811 0.23044 0.0
H1935 H 0.67104 0.25338 0.20928 0.0
C1936 C 0.57667 0.88629 0.92465 0.0
C1937 C 0.56437 0.86295 0.92994 0.0
C1938 C 0.57553 0.90797 0.9365 0.0
C1939 C 0.5611 0.9071 0.9541 0.0
C1940 C 0.54858 0.88359 0.95957 0.0
C1941 C 0.55056 0.8621 0.94778 0.0
C1942 C 0.58987 0.93202 0.93003 0.0
C1943 C 0.53251 0.88107 0.97763 0.0
C1944 C 0.57192 0.96356 0.99732 0.0
C1945 C 0.55649 0.97566 0.98942 0.0
C1946 C 0.57364 0.94173 0.98615 0.0
C1947 C 0.5592 0.93062 0.96654 0.0
C1948 C 0.54338 0.9426 0.95862 0.0
C1949 C 0.54243 0.96478 0.96982 0.0
C1950 C 0.59132 0.93068 0.9953 0.0
C1951 C 0.52714 0.9318 0.93824 0.0
H1952 H 0.58743 0.88768 0.91102 0.0
H1953 H 0.54059 0.84453 0.95211 0.0
H1954 H 0.5784 0.94224 0.92388 0.0
H1955 H 0.60076 0.94308 0.94465 0.0
H1956 H 0.60127 0.92994 0.917 0.0
H1957 H 0.5237 0.86184 0.97992 0.0
H1958 H 0.54225 0.8903 0.99345 0.0
H1959 H 0.5192 0.89004 0.9737 0.0
H1960 H 0.58306 0.97139 0.01227 0.0
H1961 H 0.53027 0.97344 0.96333 0.0
H1962 H 0.60323 0.92912 0.98262 0.0
H1963 H 0.58261 0.91211 0.99947 0.0
H1964 H 0.60167 0.9415 0.0103 0.0
H1965 H 0.53717 0.93124 0.92377 0.0
H1966 H 0.51495 0.94225 0.93471 0.0
H1967 H 0.51702 0.91287 0.94022 0.0
C1968 C 0.96412 0.80136 0.69625 0.0
C1969 C 0.97868 0.78908 0.70576 0.0
C1970 C 0.94276 0.80191 0.70501 0.0
C1971 C 0.93508 0.79021 0.7242 0.0
C1972 C 0.94989 0.77811 0.73393 0.0
C1973 C 0.97087 0.77758 0.72474 0.0
C1974 C 0.92814 0.81493 0.69342 0.0
C1975 C 0.94355 0.76549 0.75436 0.0
C1976 C 0.88953 0.80845 0.75974 0.0
C1977 C 0.8685 0.78963 0.75389 0.0
C1978 C 0.91075 0.80894 0.75034 0.0
C1979 C 0.91187 0.79037 0.73407 0.0
C1980 C 0.89065 0.77144 0.72796 0.0
C1981 C 0.86974 0.77124 0.73781 0.0
C1982 C 0.93227 0.82952 0.75811 0.0
C1983 C 0.88997 0.75115 0.71077 0.0
H1984 H 0.96921 0.81033 0.68164 0.0
H1985 H 0.98136 0.76794 0.73269 0.0
H1986 H 0.91072 0.80214 0.6881 0.0
H1987 H 0.92577 0.8295 0.70497 0.0
H1988 H 0.93593 0.82303 0.67876 0.0
H1989 H 0.95686 0.75744 0.76056 0.0
H1990 H 0.94124 0.7785 0.76763 0.0
H1991 H 0.92684 0.75091 0.7508 0.0
H1992 H 0.88952 0.823 0.77193 0.0
H1993 H 0.8541 0.7565 0.73264 0.0
H1994 H 0.93929 0.83922 0.74391 0.0
H1995 H 0.94576 0.82229 0.76529 0.0
H1996 H 0.92901 0.84268 0.77068 0.0
H1997 H 0.89623 0.75865 0.69535 0.0
H1998 H 0.87231 0.73823 0.70694 0.0
H1999 H 0.90171 0.74107 0.71661 0.0
C2000 C 0.12208 1.00742 0.89123 0.0
C2001 C 0.14391 0.02035 0.88556 0.0
C2002 C 0.11638 0.00943 0.91299 0.0
C2003 C 0.13264 0.0255 0.92912 0.0
C2004 C 0.15528 0.03725 0.92377 0.0
C2005 C 0.16077 0.03425 0.90198 0.0
C2006 C 0.09231 0.99588 0.91827 0.0
C2007 C 0.17296 0.05477 0.94042 0.0
C2008 C 0.10125 0.05526 0.96782 0.0
C2009 C 0.10125 0.04243 0.98622 0.0
C2010 C 0.1131 0.0512 0.94979 0.0
C2011 C 0.12445 0.03319 0.94994 0.0
C2012 C 0.12548 0.02102 0.96902 0.0
C2013 C 0.11404 0.02607 0.98719 0.0
C2014 C 0.11227 0.0652 0.93005 0.0
C2015 C 0.13706 1.00143 0.9697 0.0
H2016 H 0.1092 0.99643 0.87848 0.0
H2017 H 0.17767 0.04428 0.89748 0.0
H2018 H 0.09293 0.98789 0.93415 0.0
H2019 H 0.08198 0.00863 0.92002 0.0
H2020 H 0.08328 0.9812 0.90513 0.0
H2021 H 0.19069 0.05886 0.935 0.0
H2022 H 0.16859 0.07197 0.94262 0.0
H2023 H 0.17285 0.04757 0.95673 0.0
H2024 H 0.09149 0.06811 0.96734 0.0
H2025 H 0.11385 0.0161 0.00152 0.0
H2026 H 0.10097 0.05301 0.91624 0.0
H2027 H 0.12977 0.07226 0.92437 0.0
H2028 H 0.10545 0.08065 0.93376 0.0
H2029 H 0.1255 0.98456 0.96042 0.0
H2030 H 0.14067 0.99756 0.98687 0.0
H2031 H 0.15349 1.00643 0.96174 0.0
C2032 C 0.81694 0.4039 0.56968 0.0
C2033 C 0.79865 0.39296 0.55343 0.0
C2034 C 0.82271 0.39079 0.58629 0.0
C2035 C 0.80985 0.36618 0.5867 0.0
C2036 C 0.79134 0.35504 0.57038 0.0
C2037 C 0.78598 0.36856 0.5539 0.0
C2038 C 0.84245 0.40333 0.60353 0.0
C2039 C 0.77716 0.32885 0.57039 0.0
C2040 C 0.8366 0.32609 0.6186 0.0
C2041 C 0.82562 0.32537 0.63814 0.0
C2042 C 0.83165 0.33933 0.60168 0.0
C2043 C 0.81547 0.35225 0.60449 0.0
C2044 C 0.80462 0.35189 0.62434 0.0
C2045 C 0.80975 0.33837 0.64087 0.0
C2046 C 0.84358 0.33935 0.58073 0.0
C2047 C 0.78739 0.36555 0.62807 0.0
H2048 H 0.82684 0.42274 0.5694 0.0
H2049 H 0.77183 0.36 0.54139 0.0
H2050 H 0.83602 0.403 0.62014 0.0
H2051 H 0.85559 0.39358 0.60361 0.0
H2052 H 0.85097 0.42246 0.60067 0.0
H2053 H 0.76363 0.32275 0.55629 0.0
H2054 H 0.78856 0.31711 0.56965 0.0
H2055 H 0.76867 0.32624 0.58596 0.0
H2056 H 0.84876 0.31594 0.61639 0.0
H2057 H 0.80145 0.33815 0.65609 0.0
H2058 H 0.85318 0.35819 0.5779 0.0
H2059 H 0.83054 0.33184 0.56642 0.0
H2060 H 0.85586 0.32856 0.58122 0.0
H2061 H 0.79413 0.38436 0.62363 0.0
H2062 H 0.78313 0.36627 0.64548 0.0
H2063 H 0.77121 0.35655 0.61733 0.0
C2064 C 0.52118 0.0897 0.37941 0.0
C2065 C 0.49721 0.07915 0.37565 0.0
C2066 C 0.53222 0.0931 0.40077 0.0
C2067 C 0.519 0.08459 0.41837 0.0
C2068 C 0.49457 0.07579 0.41487 0.0
C2069 C 0.4839 0.0736 0.39348 0.0
C2070 C 0.55817 0.10386 0.40416 0.0
C2071 C 0.47988 0.06609 0.43312 0.0
C2072 C 0.54514 0.05385 0.46062 0.0
C2073 C 0.5472 0.06955 0.47964 0.0
C2074 C 0.53644 0.0589 0.4404 0.0
C2075 C 0.53065 0.08068 0.43916 0.0
C2076 C 0.53431 0.09742 0.45811 0.0
C2077 C 0.54202 0.09133 0.47834 0.0
C2078 C 0.53222 0.04025 0.42068 0.0
C2079 C 0.52936 0.12128 0.45725 0.0
H2080 H 0.53137 0.09413 0.36551 0.0
H2081 H 0.46536 0.06526 0.39043 0.0
H2082 H 0.5634 0.11593 0.41981 0.0
H2083 H 0.5662 0.08915 0.40525 0.0
H2084 H 0.56511 0.11431 0.3903 0.0
H2085 H 0.46112 0.06199 0.42817 0.0
H2086 H 0.48314 0.0492 0.43767 0.0
H2087 H 0.48449 0.07923 0.44807 0.0
H2088 H 0.549 0.03693 0.46185 0.0
H2089 H 0.54381 0.10348 0.4932 0.0
H2090 H 0.54197 0.04833 0.40698 0.0
H2091 H 0.51359 0.03412 0.41469 0.0
H2092 H 0.53745 0.02417 0.42457 0.0
H2093 H 0.53475 0.12942 0.44183 0.0
H2094 H 0.53835 0.13438 0.47159 0.0
H2095 H 0.51053 0.11833 0.45752 0.0
C2096 C 0.77662 0.7301 0.11051 0.0
C2097 C 0.79271 0.73987 0.09555 0.0
C2098 C 0.77866 0.74061 0.13232 0.0
C2099 C 0.79732 0.76156 0.13968 0.0
C2100 C 0.81301 0.77233 0.12439 0.0
C2101 C 0.8105 0.76139 0.10246 0.0
C2102 C 0.76134 0.72853 0.1478 0.0
C2103 C 0.83307 0.79473 0.13147 0.0
C2104 C 0.79075 0.7937 0.19481 0.0
C2105 C 0.80261 0.78353 0.20993 0.0
C2106 C 0.78978 0.78765 0.17186 0.0
C2107 C 0.80091 0.77097 0.16368 0.0
C2108 C 0.81357 0.76129 0.17882 0.0
C2109 C 0.81426 0.76765 0.20165 0.0
C2110 C 0.77615 0.79847 0.15642 0.0
C2111 C 0.82575 0.74348 0.17095 0.0
H2112 H 0.76267 0.7136 0.10533 0.0
H2113 H 0.8231 0.76898 0.09113 0.0
H2114 H 0.77014 0.72148 0.161 0.0
H2115 H 0.75386 0.74183 0.1559 0.0
H2116 H 0.74701 0.71325 0.13919 0.0
H2117 H 0.84217 0.80243 0.11725 0.0
H2118 H 0.82707 0.80877 0.14039 0.0
H2119 H 0.84562 0.79022 0.14306 0.0
H2120 H 0.78182 0.80613 0.20088 0.0
H2121 H 0.82367 0.7598 0.21304 0.0
H2122 H 0.76058 0.78411 0.14863 0.0
H2123 H 0.78661 0.8061 0.14296 0.0
H2124 H 0.77051 0.81297 0.16507 0.0
H2125 H 0.81278 0.7264 0.16357 0.0
H2126 H 0.83645 0.7392 0.18454 0.0
H2127 H 0.83702 0.75077 0.15792 0.0
C2128 C 0.161 0.01988 0.73937 0.0
C2129 C 0.14993 0.01136 0.75791 0.0
C2130 C 0.1484 0.02361 0.72067 0.0
C2131 C 0.12418 0.01875 0.72058 0.0
C2132 C 0.11274 0.00882 0.73872 0.0
C2133 C 0.12576 1.00516 0.75718 0.0
C2134 C 0.16116 0.03386 0.70146 0.0
C2135 C 0.08689 1.0032 0.73908 0.0
C2136 C 0.09861 0.05671 0.68501 0.0
C2137 C 0.08992 0.04076 0.66592 0.0
C2138 C 0.10924 0.0495 0.70317 0.0
C2139 C 0.11117 0.02576 0.70219 0.0
C2140 C 0.10165 0.00929 0.68329 0.0
C2141 C 0.09117 0.01701 0.66535 0.0
C2142 C 0.11908 0.06754 0.72314 0.0
C2143 C 0.10325 0.9838 0.68162 0.0
H2144 H 0.17966 0.02452 0.73978 0.0
H2145 H 0.11707 0.99847 0.77143 0.0
H2146 H 0.15312 0.02257 0.68585 0.0
H2147 H 0.15993 0.05233 0.69986 0.0
H2148 H 0.17972 0.03493 0.70342 0.0
H2149 H 0.08041 0.99362 0.75354 0.0
H2150 H 0.08226 0.02029 0.73963 0.0
H2151 H 0.07786 0.99187 0.7238 0.0
H2152 H 0.09782 0.07511 0.68545 0.0
H2153 H 0.08415 1.00448 0.65073 0.0
H2154 H 0.13814 0.07154 0.72525 0.0
H2155 H 0.11215 0.05981 0.73825 0.0
H2156 H 0.11506 0.08482 0.72176 0.0
H2157 H 0.12119 0.98428 0.67871 0.0
H2158 H 0.09139 0.97209 0.66785 0.0
H2159 H 0.09916 0.97543 0.69718 0.0
C2160 C 0.76276 0.40786 0.40521 0.0
C2161 C 0.76635 0.4009 0.42633 0.0
C2162 C 0.76336 0.39292 0.38621 0.0
C2163 C 0.76792 0.37069 0.38846 0.0
C2164 C 0.77008 0.3629 0.40965 0.0
C2165 C 0.76909 0.37801 0.42832 0.0
C2166 C 0.76056 0.40172 0.36388 0.0
C2167 C 0.77514 0.33939 0.41275 0.0
C2168 C 0.76167 0.32362 0.33986 0.0
C2169 C 0.78453 0.32907 0.33426 0.0
C2170 C 0.75577 0.33749 0.35706 0.0
C2171 C 0.77323 0.35694 0.36907 0.0
C2172 C 0.79628 0.3626 0.36333 0.0
C2173 C 0.80162 0.34866 0.34595 0.0
C2174 C 0.73093 0.33137 0.3624 0.0
C2175 C 0.81542 0.38317 0.37579 0.0
H2176 H 0.76045 0.42543 0.40348 0.0
H2177 H 0.77174 0.37237 0.44454 0.0
H2178 H 0.77782 0.40922 0.35782 0.0
H2179 H 0.75024 0.38667 0.35165 0.0
H2180 H 0.75206 0.41618 0.3647 0.0
H2181 H 0.77423 0.3349 0.4301 0.0
H2182 H 0.7628 0.32424 0.40194 0.0
H2183 H 0.79275 0.34075 0.40797 0.0
H2184 H 0.74834 0.3087 0.33065 0.0
H2185 H 0.81933 0.35293 0.34173 0.0
H2186 H 0.72494 0.34759 0.36186 0.0
H2187 H 0.72948 0.3259 0.37939 0.0
H2188 H 0.71924 0.31648 0.35078 0.0
H2189 H 0.81132 0.40044 0.37494 0.0
H2190 H 0.83242 0.38522 0.36917 0.0
H2191 H 0.81695 0.38007 0.39346 0.0
C2192 C 0.4361 0.01362 0.2352 0.0
C2193 C 0.4539 0.02987 0.24946 0.0
C2194 C 0.4406 1.00467 0.21454 0.0
C2195 C 0.46335 0.0123 0.20814 0.0
C2196 C 0.48136 0.02871 0.22248 0.0
C2197 C 0.47639 0.03727 0.243 0.0
C2198 C 0.42107 0.98719 0.19957 0.0
C2199 C 0.50587 0.03735 0.2161 0.0
C2200 C 0.48777 0.97972 0.16496 0.0
C2201 C 0.48944 0.99504 0.14812 0.0
C2202 C 0.47736 0.98384 0.18406 0.0
C2203 C 0.46864 1.00382 0.18625 0.0
C2204 C 0.46852 0.01805 0.16852 0.0
C2205 C 0.47896 0.01348 0.14961 0.0
C2206 C 0.47746 0.96809 0.20258 0.0
C2207 C 0.45938 0.03953 0.17027 0.0
H2208 H 0.41867 0.00784 0.24018 0.0
H2209 H 0.49018 0.04985 0.25397 0.0
H2210 H 0.41876 0.99509 0.18394 0.0
H2211 H 0.42531 0.97022 0.19523 0.0
H2212 H 0.40445 0.98263 0.20727 0.0
H2213 H 0.51784 0.05 0.22928 0.0
H2214 H 0.51234 0.02167 0.21248 0.0
H2215 H 0.50633 0.04671 0.20089 0.0
H2216 H 0.49558 0.96522 0.16363 0.0
H2217 H 0.48037 0.0255 0.13669 0.0
H2218 H 0.4606 0.96333 0.20979 0.0
H2219 H 0.49091 0.97822 0.2159 0.0
H2220 H 0.48123 0.95115 0.19697 0.0
H2221 H 0.44254 0.03485 0.17752 0.0
H2222 H 0.45719 0.04625 0.15398 0.0
H2223 H 0.47168 0.05447 0.18137 0.0
C2224 C 0.83068 0.74196 0.94375 0.0
C2225 C 0.81213 0.74404 0.95548 0.0
C2226 C 0.83244 0.748 0.92185 0.0
C2227 C 0.81482 0.75552 0.91103 0.0
C2228 C 0.79604 0.75763 0.92283 0.0
C2229 C 0.79512 0.75225 0.94495 0.0
C2230 C 0.85315 0.74626 0.91025 0.0
C2231 C 0.77655 0.76496 0.91189 0.0
C2232 C 0.8248 0.79102 0.8605 0.0
C2233 C 0.81535 0.77287 0.84302 0.0
C2234 C 0.82556 0.7855 0.88255 0.0
C2235 C 0.81597 0.76129 0.88745 0.0
C2236 C 0.8067 0.7428 0.86981 0.0
C2237 C 0.8068 0.74877 0.84782 0.0
C2238 C 0.83633 0.80569 0.90064 0.0
C2239 C 0.79582 0.71684 0.87418 0.0
H2240 H 0.84389 0.73562 0.95174 0.0
H2241 H 0.78056 0.75357 0.95376 0.0
H2242 H 0.84754 0.73233 0.89588 0.0
H2243 H 0.86174 0.76375 0.90385 0.0
H2244 H 0.866 0.74148 0.9213 0.0
H2245 H 0.76288 0.76513 0.92308 0.0
H2246 H 0.78331 0.78326 0.90633 0.0
H2247 H 0.76861 0.75225 0.89702 0.0
H2248 H 0.83154 0.80968 0.85694 0.0
H2249 H 0.79924 0.73467 0.83444 0.0
H2250 H 0.84934 0.8009 0.91142 0.0
H2251 H 0.82287 0.80833 0.91112 0.0
H2252 H 0.84483 0.82311 0.89402 0.0
H2253 H 0.80826 0.71047 0.88421 0.0
H2254 H 0.78998 0.7045 0.8587 0.0
H2255 H 0.78071 0.71555 0.88382 0.0
C2256 C 0.86595 0.0888 0.05831 0.0
C2257 C 0.86162 0.1079 0.04795 0.0
C2258 C 0.88067 0.07663 0.0497 0.0
C2259 C 0.89096 0.08357 0.03013 0.0
C2260 C 0.8874 0.10344 0.02009 0.0
C2261 C 0.87288 0.11553 0.02925 0.0
C2262 C 0.8847 0.05596 0.06117 0.0
C2263 C 0.89808 0.11123 0.99914 0.0
C2264 C 0.94185 0.06315 0.01488 0.0
C2265 C 0.93111 0.04307 -0.00039 0.0
C2266 C 0.92898 0.07648 0.02506 0.0
C2267 C 0.90482 0.06949 0.01972 0.0
C2268 C 0.89385 0.04905 0.00439 0.0
C2269 C 0.90719 0.03587 0.9946 0.0
C2270 C 0.94129 0.09805 0.0414 0.0
C2271 C 0.86808 0.04122 0.99827 0.0
H2272 H 0.85742 0.08299 0.07289 0.0
H2273 H 0.8695 0.13022 0.02112 0.0
H2274 H 0.8776 0.03879 0.05026 0.0
H2275 H 0.90351 0.05894 0.06461 0.0
H2276 H 0.87653 0.0538 0.07696 0.0
H2277 H 0.89435 0.12768 0.99393 0.0
H2278 H 0.91709 0.11496 0.00138 0.0
H2279 H 0.89131 0.09637 0.98563 0.0
H2280 H 0.96036 0.06819 0.01908 0.0
H2281 H 0.89904 0.02016 0.9829 0.0
H2282 H 0.95962 0.09915 0.04572 0.0
H2283 H 0.93239 0.0973 0.05676 0.0
H2284 H 0.94095 0.11493 0.03428 0.0
H2285 H 0.85876 0.03684 0.01318 0.0
H2286 H 0.86232 0.02513 0.98586 0.0
H2287 H 0.86302 0.05626 0.9915 0.0
C2288 C 0.3862 0.42311 0.03797 0.0
C2289 C 0.36921 0.43482 0.03594 0.0
C2290 C 0.40972 0.43602 0.03747 0.0
C2291 C 0.41627 0.46117 0.0351 0.0
C2292 C 0.39922 0.47313 0.03374 0.0
C2293 C 0.37596 0.45983 0.03412 0.0
C2294 C 0.42751 0.42271 0.03897 0.0
C2295 C 0.40548 0.49998 0.03154 0.0
C2296 C 0.47722 0.50175 0.05256 0.0
C2297 C 0.48657 0.50542 0.03219 0.0
C2298 C 0.45461 0.48685 0.05377 0.0
C2299 C 0.44092 0.47527 0.03414 0.0
C2300 C 0.45027 0.47869 0.01351 0.0
C2301 C 0.47299 0.4938 0.01277 0.0
C2302 C 0.44522 0.48387 0.07605 0.0
C2303 C 0.43615 0.46662 0.99222 0.0
H2304 H 0.38107 0.40378 0.03926 0.0
H2305 H 0.36296 0.46909 0.03276 0.0
H2306 H 0.43657 0.42394 0.02369 0.0
H2307 H 0.44076 0.43126 0.05291 0.0
H2308 H 0.41969 0.4033 0.04129 0.0
H2309 H 0.39014 0.50661 0.03111 0.0
H2310 H 0.41791 0.51025 0.04556 0.0
H2311 H 0.41408 0.5041 0.0162 0.0
H2312 H 0.48758 0.51059 0.06769 0.0
H2313 H 0.48015 0.49635 0.99701 0.0
H2314 H 0.43856 0.46438 0.0785 0.0
H2315 H 0.43051 0.49138 0.07688 0.0
H2316 H 0.45849 0.49313 0.08983 0.0
H2317 H 0.42933 0.44679 0.99305 0.0
H2318 H 0.44634 0.47 0.97769 0.0
H2319 H 0.42106 0.47341 0.98973 0.0
C2320 C 0.38836 0.61764 0.76297 0.0
C2321 C 0.38228 0.59233 0.75998 0.0
C2322 C 0.37316 0.62918 0.77163 0.0
C2323 C 0.35154 0.61501 0.77762 0.0
C2324 C 0.34548 0.58947 0.77501 0.0
C2325 C 0.36091 0.57841 0.76612 0.0
C2326 C 0.38005 0.65651 0.77399 0.0
C2327 C 0.3226 0.57385 0.78135 0.0
C2328 C 0.32161 0.64795 0.81571 0.0
C2329 C 0.30642 0.65395 0.8006 0.0
C2330 C 0.33581 0.63435 0.80858 0.0
C2331 C 0.33493 0.627 0.7858 0.0
C2332 C 0.31903 0.63231 0.7706 0.0
C2333 C 0.30486 0.64563 0.77823 0.0
C2334 C 0.35242 0.62875 0.82524 0.0
C2335 C 0.31784 0.62508 0.74614 0.0
H2336 H 0.40484 0.62844 0.75822 0.0
H2337 H 0.35619 0.55882 0.76395 0.0
H2338 H 0.36769 0.66263 0.76357 0.0
H2339 H 0.37934 0.66336 0.79132 0.0
H2340 H 0.39774 0.66486 0.76911 0.0
H2341 H 0.32098 0.55426 0.7792 0.0
H2342 H 0.32047 0.5789 0.7988 0.0
H2343 H 0.30824 0.57694 0.77108 0.0
H2344 H 0.32281 0.65449 0.833 0.0
H2345 H 0.29345 0.65072 0.76648 0.0
H2346 H 0.37043 0.63875 0.82235 0.0
H2347 H 0.35075 0.60916 0.82331 0.0
H2348 H 0.3495 0.63388 0.84247 0.0
H2349 H 0.33431 0.63493 0.73965 0.0
H2350 H 0.30345 0.62918 0.73675 0.0
H2351 H 0.31562 0.60545 0.743 0.0
C2352 C 0.22887 0.61175 0.57995 0.0
C2353 C 0.24399 0.60254 0.56824 0.0
C2354 C 0.20492 0.60101 0.57628 0.0
C2355 C 0.19598 0.5808 0.56034 0.0
C2356 C 0.21118 0.57072 0.54922 0.0
C2357 C 0.23509 0.58165 0.55342 0.0
C2358 C 0.1892 0.61201 0.58869 0.0
C2359 C 0.2022 0.54924 0.53201 0.0
C2360 C 0.13257 0.54527 0.55896 0.0
C2361 C 0.12277 0.55615 0.54287 0.0
C2362 C 0.15648 0.55293 0.56472 0.0
C2363 C 0.17081 0.57166 0.55392 0.0
C2364 C 0.16106 0.58234 0.53734 0.0
C2365 C 0.13711 0.57454 0.5321 0.0
C2366 C 0.16634 0.54136 0.58265 0.0
C2367 C 0.1759 0.6022 0.5253 0.0
H2368 H 0.23573 0.62776 0.59159 0.0
H2369 H 0.24676 0.57449 0.54435 0.0
H2370 H 0.17984 0.62043 0.57711 0.0
H2371 H 0.17602 0.5978 0.59598 0.0
H2372 H 0.19887 0.62609 0.60208 0.0
H2373 H 0.21621 0.54223 0.52639 0.0
H2374 H 0.18902 0.53439 0.53857 0.0
H2375 H 0.19366 0.55459 0.5175 0.0
H2376 H 0.12152 0.53108 0.56737 0.0
H2377 H 0.12962 0.58285 0.51952 0.0
H2378 H 0.17468 0.55519 0.59664 0.0
H2379 H 0.17988 0.53404 0.5764 0.0
H2380 H 0.1529 0.52646 0.58892 0.0
H2381 H 0.18475 0.61824 0.53714 0.0
H2382 H 0.16569 0.60786 0.51219 0.0
H2383 H 0.18951 0.59605 0.51765 0.0
C2384 C 0.69755 0.96472 0.79781 0.0
C2385 C 0.70611 0.97162 0.77772 0.0
C2386 C 0.70972 0.95452 0.81257 0.0
C2387 C 0.73054 0.95062 0.80673 0.0
C2388 C 0.73933 0.95781 0.78654 0.0
C2389 C 0.72712 0.96846 0.77241 0.0
C2390 C 0.70016 0.9476 0.83417 0.0
C2391 C 0.76134 0.95365 0.77952 0.0
C2392 C 0.77817 0.93857 0.84175 0.0
C2393 C 0.77432 0.91404 0.83486 0.0
C2394 C 0.76232 0.95041 0.8349 0.0
C2395 C 0.74256 0.93741 0.82057 0.0
C2396 C 0.73733 0.91209 0.81576 0.0
C2397 C 0.75329 0.9007 0.82302 0.0
C2398 C 0.76804 0.97731 0.84099 0.0
C2399 C 0.71653 0.89753 0.80046 0.0
H2400 H 0.68142 0.96745 0.80207 0.0
H2401 H 0.73377 0.9738 0.7569 0.0
H2402 H 0.69349 0.92761 0.83367 0.0
H2403 H 0.71396 0.95405 0.84798 0.0
H2404 H 0.68584 0.95514 0.83769 0.0
H2405 H 0.76585 0.96048 0.76337 0.0
H2406 H 0.77596 0.9628 0.79207 0.0
H2407 H 0.75946 0.934 0.77821 0.0
H2408 H 0.79437 0.94886 0.85102 0.0
H2409 H 0.75042 0.88185 0.81726 0.0
H2410 H 0.7522 0.98237 0.84392 0.0
H2411 H 0.77601 0.98709 0.82717 0.0
H2412 H 0.78046 0.98346 0.85595 0.0
H2413 H 0.70083 0.9021 0.80483 0.0
H2414 H 0.71327 0.87773 0.80082 0.0
H2415 H 0.71944 0.90198 0.7833 0.0
C2416 C 0.7162 0.88743 0.54084 0.0
C2417 C 0.73952 0.89869 0.54824 0.0
C2418 C 0.70039 0.90085 0.5403 0.0
C2419 C 0.70822 0.926 0.54722 0.0
C2420 C 0.73148 0.93709 0.55571 0.0
C2421 C 0.74677 0.92329 0.55619 0.0
C2422 C 0.67561 0.88837 0.53147 0.0
C2423 C 0.74058 0.96385 0.56327 0.0
C2424 C 0.6817 0.9704 0.52257 0.0
C2425 C 0.6706 0.97728 0.54024 0.0
C2426 C 0.69296 0.95272 0.52423 0.0
C2427 C 0.69295 0.94144 0.54397 0.0
C2428 C 0.6807 0.9473 0.56142 0.0
C2429 C 0.66976 0.96524 0.55938 0.0
C2430 C 0.70586 0.94703 0.50523 0.0
C2431 C 0.68011 0.93553 0.58266 0.0
H2432 H 0.71047 0.86839 0.53479 0.0
H2433 H 0.76471 0.93207 0.56219 0.0
H2434 H 0.66364 0.89324 0.54264 0.0
H2435 H 0.67224 0.89453 0.51519 0.0
H2436 H 0.67158 0.86836 0.52944 0.0
H2437 H 0.75878 0.96936 0.57062 0.0
H2438 H 0.73966 0.97442 0.54905 0.0
H2439 H 0.72978 0.9688 0.57567 0.0
H2440 H 0.68189 0.97912 0.50749 0.0
H2441 H 0.66127 0.97044 0.57313 0.0
H2442 H 0.70082 0.9272 0.50069 0.0
H2443 H 0.72471 0.95327 0.51028 0.0
H2444 H 0.70261 0.9559 0.4904 0.0
H2445 H 0.67596 0.91562 0.57918 0.0
H2446 H 0.66724 0.93948 0.59327 0.0
H2447 H 0.6974 0.94227 0.59202 0.0
C2448 C 0.39367 0.46888 0.74917 0.0
C2449 C 0.40974 0.47183 0.7333 0.0
C2450 C 0.38194 0.44594 0.755 0.0
C2451 C 0.3862 0.42533 0.74458 0.0
C2452 C 0.40233 0.42804 0.7285 0.0
C2453 C 0.41403 0.45135 0.72309 0.0
C2454 C 0.36495 0.4438 0.77233 0.0
C2455 C 0.40707 0.40635 0.71696 0.0
C2456 C 0.36812 0.36954 0.7754 0.0
C2457 C 0.34582 0.35792 0.76524 0.0
C2458 C 0.38192 0.39108 0.76826 0.0
C2459 C 0.37324 0.40101 0.75042 0.0
C2460 C 0.35111 0.38886 0.73957 0.0
C2461 C 0.33761 0.36753 0.74719 0.0
C2462 C 0.40538 0.40369 0.78034 0.0
C2463 C 0.34137 0.3988 0.72035 0.0
H2464 H 0.39031 0.48458 0.75728 0.0
H2465 H 0.42641 0.45349 0.71082 0.0
H2466 H 0.34743 0.4328 0.76513 0.0
H2467 H 0.36988 0.43437 0.78606 0.0
H2468 H 0.36406 0.46171 0.77922 0.0
H2469 H 0.42025 0.41155 0.70497 0.0
H2470 H 0.41316 0.39599 0.72925 0.0
H2471 H 0.39088 0.39403 0.70805 0.0
H2472 H 0.37464 0.36211 0.78926 0.0
H2473 H 0.32053 0.35843 0.739 0.0
H2474 H 0.40527 0.42112 0.78904 0.0
H2475 H 0.41878 0.40794 0.7685 0.0
H2476 H 0.41037 0.39261 0.79265 0.0
H2477 H 0.33816 0.41597 0.72612 0.0
H2478 H 0.32488 0.38599 0.7124 0.0
H2479 H 0.35398 0.40297 0.70775 0.0
C2480 C 0.21667 0.60155 0.22879 0.0
C2481 C 0.19352 0.59719 0.22075 0.0
C2482 C 0.23121 0.62517 0.23494 0.0
C2483 C 0.22233 0.6449 0.23324 0.0
C2484 C 0.19933 0.64074 0.22411 0.0
C2485 C 0.18522 0.6169 0.21784 0.0
C2486 C 0.25576 0.6289 0.24423 0.0
C2487 C 0.18925 0.66135 0.22209 0.0
C2488 C 0.25009 0.70066 0.27359 0.0
C2489 C 0.26409 0.71636 0.26023 0.0
C2490 C 0.23625 0.67744 0.26492 0.0
C2491 C 0.23661 0.66966 0.24241 0.0
C2492 C 0.25083 0.68535 0.22888 0.0
C2493 C 0.26432 0.70856 0.23792 0.0
C2494 C 0.22119 0.66124 0.27985 0.0
C2495 C 0.25186 0.67759 0.20488 0.0
H2496 H 0.22327 0.5864 0.23092 0.0
H2497 H 0.16734 0.61368 0.21172 0.0
H2498 H 0.26801 0.64284 0.23579 0.0
H2499 H 0.25781 0.63557 0.26199 0.0
H2500 H 0.26064 0.61194 0.24253 0.0
H2501 H 0.17176 0.65531 0.21304 0.0
H2502 H 0.18799 0.66957 0.23879 0.0
H2503 H 0.2007 0.67572 0.21344 0.0
H2504 H 0.24972 0.7066 0.2908 0.0
H2505 H 0.27515 0.72057 0.22748 0.0
H2506 H 0.22616 0.64445 0.28077 0.0
H2507 H 0.20285 0.65579 0.27297 0.0
H2508 H 0.22254 0.67019 0.29684 0.0
H2509 H 0.25766 0.66122 0.20343 0.0
H2510 H 0.2638 0.69199 0.19659 0.0
H2511 H 0.23439 0.6727 0.19597 0.0
C2512 C 0.50266 0.68595 0.46908 0.0
C2513 C 0.51776 0.70933 0.47541 0.0
C2514 C 0.50622 0.66555 0.47801 0.0
C2515 C 0.52566 0.66849 0.49327 0.0
C2516 C 0.54066 0.6921 0.50005 0.0
C2517 C 0.53637 0.7122 0.49127 0.0
C2518 C 0.48947 0.64079 0.47077 0.0
C2519 C 0.56188 0.69609 0.51584 0.0
C2520 C 0.53003 0.61874 0.52923 0.0
C2521 C 0.54287 0.60698 0.51682 0.0
C2522 C 0.52366 0.63827 0.52148 0.0
C2523 C 0.53107 0.64686 0.50123 0.0
C2524 C 0.54423 0.63509 0.48876 0.0
C2525 C 0.54956 0.61503 0.4965 0.0
C2526 C 0.50882 0.64957 0.53484 0.0
C2527 C 0.55304 0.64394 0.4674 0.0
H2528 H 0.48822 0.68354 0.45687 0.0
H2529 H 0.54827 0.73013 0.49612 0.0
H2530 H 0.49844 0.62926 0.46208 0.0
H2531 H 0.48271 0.63174 0.48538 0.0
H2532 H 0.47471 0.64167 0.45956 0.0
H2533 H 0.57154 0.71559 0.51988 0.0
H2534 H 0.55697 0.68804 0.53139 0.0
H2535 H 0.57361 0.68685 0.50848 0.0
H2536 H 0.52448 0.61226 0.54477 0.0
H2537 H 0.55947 0.60594 0.48686 0.0
H2538 H 0.4929 0.64895 0.52457 0.0
H2539 H 0.51822 0.66889 0.54003 0.0
H2540 H 0.50377 0.64023 0.54979 0.0
H2541 H 0.53833 0.64305 0.45534 0.0
H2542 H 0.56348 0.63317 0.45994 0.0
H2543 H 0.56385 0.66318 0.47034 0.0
C2544 C 0.67239 0.32471 0.69087 0.0
C2545 C 0.67379 0.33318 0.66993 0.0
C2546 C 0.6911 0.31959 0.7017 0.0
C2547 C 0.71221 0.32407 0.69187 0.0
C2548 C 0.71421 0.33387 0.67126 0.0
C2549 C 0.69481 0.33791 0.66031 0.0
C2550 C 0.68795 0.30855 0.72336 0.0
C2551 C 0.73673 0.33982 0.6607 0.0
C2552 C 0.76199 0.32594 0.73337 0.0
C2553 C 0.76409 0.30273 0.72894 0.0
C2554 C 0.74632 0.33381 0.72034 0.0
C2555 C 0.73175 0.3177 0.7031 0.0
C2556 C 0.7342 0.2944 0.6983 0.0
C2557 C 0.75069 0.28738 0.71103 0.0
C2558 C 0.74492 0.35913 0.72541 0.0
C2559 C 0.71853 0.27638 0.68056 0.0
H2560 H 0.65632 0.32119 0.69857 0.0
H2561 H 0.69607 0.34465 0.64423 0.0
H2562 H 0.69168 0.29097 0.72203 0.0
H2563 H 0.70029 0.32056 0.73661 0.0
H2564 H 0.67016 0.30545 0.72841 0.0
H2565 H 0.73617 0.34976 0.64595 0.0
H2566 H 0.75109 0.35095 0.67274 0.0
H2567 H 0.74076 0.32292 0.6556 0.0
H2568 H 0.77269 0.33797 0.747 0.0
H2569 H 0.75237 0.26943 0.70762 0.0
H2570 H 0.72862 0.35834 0.73291 0.0
H2571 H 0.74471 0.36807 0.71001 0.0
H2572 H 0.75962 0.37048 0.73702 0.0
H2573 H 0.70043 0.27169 0.68502 0.0
H2574 H 0.72338 0.25944 0.67822 0.0
H2575 H 0.71899 0.28437 0.66462 0.0
C2576 C 0.0491 0.37864 0.95986 0.0
C2577 C 0.03537 0.35664 0.96635 0.0
C2578 C 0.05079 0.40088 0.97155 0.0
C2579 C 0.03847 0.40137 0.99037 0.0
C2580 C 0.02517 0.37925 0.99757 0.0
C2581 C 0.02378 0.3571 0.98547 0.0
C2582 C 0.06534 0.42395 0.96335 0.0
C2583 C 0.01194 0.37905 0.01767 0.0
C2584 C 0.05994 0.46125 0.02649 0.0
C2585 C 0.04495 0.47367 0.01862 0.0
C2586 C 0.05724 0.43721 0.01839 0.0
C2587 C 0.03919 0.42524 0.00187 0.0
C2588 C 0.02344 0.43732 0.9945 0.0
C2589 C 0.02647 0.46136 0.003 0.0
C2590 C 0.07437 0.42504 0.02683 0.0
C2591 C 1.004 0.42526 0.97686 0.0
H2592 H 0.05836 0.37859 0.94527 0.0
H2593 H 0.01312 0.34025 0.99062 0.0
H2594 H 0.05426 0.43521 0.95873 0.0
H2595 H 0.07848 0.43471 0.97664 0.0
H2596 H 0.07437 0.42042 0.9488 0.0
H2597 H 1.00378 0.3604 0.02204 0.0
H2598 H 0.0236 0.38976 0.032 0.0
H2599 H 0.99822 0.38769 0.01458 0.0
H2600 H 0.07409 0.4704 0.03881 0.0
H2601 H 0.01473 0.47072 0.99689 0.0
H2602 H 0.08549 0.42277 0.01363 0.0
H2603 H 0.06522 0.40672 0.03132 0.0
H2604 H 0.08566 0.43567 0.04144 0.0
H2605 H 1.01128 0.42263 0.96097 0.0
H2606 H 0.99197 0.43613 0.97445 0.0
H2607 H 0.99404 0.40711 0.98113 0.0
C2608 C 0.03827 0.78806 0.20142 0.0
C2609 C 0.04545 0.80213 0.18401 0.0
C2610 C 0.01704 0.78621 0.20994 0.0
C2611 C 1.00261 0.79887 0.20096 0.0
C2612 C 1.00948 0.81278 0.18312 0.0
C2613 C 0.03082 0.81417 0.17477 0.0
C2614 C 1.01027 0.771 0.22885 0.0
C2615 C 0.99456 0.82662 0.17322 0.0
C2616 C 0.94046 0.77717 0.21536 0.0
C2617 C 0.94124 0.7928 0.23426 0.0
C2618 C 0.96005 0.77957 0.20369 0.0
C2619 C 0.98082 0.79816 0.21104 0.0
C2620 C 0.98134 0.81469 0.22949 0.0
C2621 C 0.96158 0.81174 0.24093 0.0
C2622 C 0.95886 0.7615 0.18419 0.0
C2623 C 1.00306 0.83491 0.2377 0.0
H2624 H 0.04933 0.7785 0.20856 0.0
H2625 H 0.03623 0.82509 0.16133 0.0
H2626 H 1.00882 0.78266 0.2436 0.0
H2627 H 0.9931 0.75735 0.22452 0.0
H2628 H 0.02298 0.76144 0.23329 0.0
H2629 H 1.00184 0.83564 0.15875 0.0
H2630 H 0.97693 0.81426 0.16802 0.0
H2631 H 0.9928 0.8406 0.18582 0.0
H2632 H 0.92478 0.76245 0.21021 0.0
H2633 H 0.9621 0.82411 0.25532 0.0
H2634 H 0.9697 0.74986 0.1884 0.0
H2635 H 0.96584 0.77096 0.16986 0.0
H2636 H 0.94091 0.74971 0.17923 0.0
H2637 H 0.01642 0.82717 0.24434 0.0
H2638 H 1.0 0.84755 0.2509 0.0
H2639 H 1.01017 0.84535 0.22393 0.0
C2640 C 0.57097 0.37806 0.10919 0.0
C2641 C 0.55688 0.37133 0.12664 0.0
C2642 C 0.5721 0.39926 0.09813 0.0
C2643 C 0.55814 0.41441 0.10359 0.0
C2644 C 0.54362 0.40747 0.12099 0.0
C2645 C 0.54351 0.3867 0.13235 0.0
C2646 C 0.58863 0.40564 0.08058 0.0
C2647 C 0.52766 0.4218 0.12741 0.0
C2648 C 0.57224 0.48143 0.08736 0.0
C2649 C 0.55903 0.4792 0.06694 0.0
C2650 C 0.57239 0.46094 0.09909 0.0
C2651 C 0.55842 0.43695 0.091 0.0
C2652 C 0.54463 0.43474 0.07066 0.0
C2653 C 0.54541 0.45539 0.05894 0.0
C2654 C 0.58811 0.46504 0.12006 0.0
C2655 C 0.52855 0.41036 0.06129 0.0
H2656 H 0.58162 0.3669 0.10437 0.0
H2657 H 0.53235 0.38214 0.14553 0.0
H2658 H 0.57884 0.40424 0.06434 0.0
H2659 H 0.59986 0.42466 0.08421 0.0
H2660 H 0.59974 0.3936 0.07933 0.0
H2661 H 0.51678 0.41392 0.14054 0.0
H2662 H 0.53782 0.44072 0.13335 0.0
H2663 H 0.51618 0.4225 0.11276 0.0
H2664 H 0.58297 0.49932 0.09411 0.0
H2665 H 0.53476 0.45286 0.0435 0.0
H2666 H 0.6013 0.45559 0.11771 0.0
H2667 H 0.57819 0.45723 0.13375 0.0
H2668 H 0.59706 0.48455 0.125 0.0
H2669 H 0.53867 0.39795 0.05687 0.0
H2670 H 0.51766 0.41154 0.04636 0.0
H2671 H 0.51707 0.40217 0.07389 0.0
C2672 C 0.97406 0.27596 0.32968 0.0
C2673 C 0.98106 0.27809 0.35249 0.0
C2674 C 0.95155 0.27603 0.32131 0.0
C2675 C 0.93504 0.27952 0.33577 0.0
C2676 C 0.94199 0.28172 0.35888 0.0
C2677 C 0.96439 0.28061 0.36684 0.0
C2678 C 0.94553 0.27254 0.29669 0.0
C2679 C 0.926 0.28629 0.37539 0.0
C2680 C 0.88712 0.30559 0.31103 0.0
C2681 C 0.86669 0.28569 0.30832 0.0
C2682 C 0.90879 0.304 0.32037 0.0
C2683 C 0.91117 0.28164 0.32668 0.0
C2684 C 0.89065 0.26135 0.32358 0.0
C2685 C 0.86895 0.2637 0.31507 0.0
C2686 C 0.92927 0.3266 0.32368 0.0
C2687 C 0.89163 0.23676 0.32888 0.0
H2688 H 0.98641 0.27423 0.31811 0.0
H2689 H 0.96924 0.2829 0.38444 0.0
H2690 H 0.92862 0.25839 0.29245 0.0
H2691 H 0.94387 0.28958 0.29085 0.0
H2692 H 0.95883 0.26725 0.28763 0.0
H2693 H 0.93362 0.2879 0.39268 0.0
H2694 H 0.92192 0.30323 0.37247 0.0
H2695 H 0.90945 0.27138 0.37326 0.0
H2696 H 0.88611 0.32282 0.30619 0.0
H2697 H 0.85375 0.24795 0.3131 0.0
H2698 H 0.94265 0.32466 0.3128 0.0
H2699 H 0.93715 0.32931 0.34095 0.0
H2700 H 0.92449 0.34299 0.32001 0.0
H2701 H 0.90552 0.23205 0.32035 0.0
H2702 H 0.87502 0.22233 0.32391 0.0
H2703 H 0.89588 0.23705 0.34685 0.0
C2704 C 0.05848 0.71578 0.6082 0.0
C2705 C 0.04412 0.71485 0.62558 0.0
C2706 C 0.05992 0.69432 0.59595 0.0
C2707 C 0.04617 0.67083 0.60038 0.0
C2708 C 0.03113 0.66994 0.61746 0.0
C2709 C 0.03064 0.69155 0.62989 0.0
C2710 C 0.07682 0.69679 0.57862 0.0
C2711 C 0.01542 0.64596 0.62275 0.0
C2712 C 0.03532 0.61579 0.55554 0.0
C2713 C 0.04928 0.60233 0.56386 0.0
C2714 C 0.034 0.63759 0.56712 0.0
C2715 C 0.04757 0.64734 0.5875 0.0
C2716 C 0.06202 0.63403 0.59578 0.0
C2717 C 0.06238 0.61182 0.58423 0.0
C2718 C 0.01761 0.65001 0.55762 0.0
C2719 C 0.07742 0.64341 0.61691 0.0
H2720 H 0.06935 0.73332 0.60468 0.0
H2721 H 0.01942 0.69014 0.64315 0.0
H2722 H 0.08925 0.6868 0.58267 0.0
H2723 H 0.06756 0.68859 0.56233 0.0
H2724 H 0.08664 0.71599 0.57721 0.0
H2725 H 1.0034 0.64816 0.63513 0.0
H2726 H 1.00511 0.63568 0.60752 0.0
H2727 H 0.02587 0.63489 0.62928 0.0
H2728 H 0.0249 0.60897 0.54001 0.0
H2729 H 0.07343 0.60206 0.59104 0.0
H2730 H 0.02735 0.66857 0.5542 0.0
H2731 H 1.00527 0.65176 0.56981 0.0
H2732 H 1.00765 0.64003 0.54211 0.0
H2733 H 0.08819 0.66237 0.61598 0.0
H2734 H 0.08897 0.63228 0.62043 0.0
H2735 H 0.06672 0.64352 0.63093 0.0
C2736 C 0.64881 0.78639 0.87164 0.0
C2737 C 0.6282 0.78676 0.85965 0.0
C2738 C 0.66976 0.78739 0.8615 0.0
C2739 C 0.67122 0.78918 0.83836 0.0
C2740 C 0.65054 0.7898 0.8262 0.0
C2741 C 0.6297 0.78843 0.83671 0.0
C2742 C 0.69057 0.78652 0.87577 0.0
C2743 C 0.65045 0.79214 0.80179 0.0
C2744 C 0.73257 0.81287 0.81505 0.0
C2745 C 0.73699 0.79166 0.80598 0.0
C2746 C 0.71178 0.81238 0.82539 0.0
C2747 C 0.69401 0.79015 0.82706 0.0
C2748 C 0.69841 0.76874 0.81796 0.0
C2749 C 0.71932 0.76973 0.80778 0.0
C2750 C 0.7088 0.83602 0.83437 0.0
C2751 C 0.68094 0.74437 0.81917 0.0
H2752 H 0.6486 0.78515 0.88925 0.0
H2753 H 0.61446 0.78891 0.82681 0.0
H2754 H 0.69619 0.77092 0.86956 0.0
H2755 H 0.70517 0.80317 0.87486 0.0
H2756 H 0.68707 0.78488 0.89331 0.0
H2757 H 0.63349 0.79267 0.79439 0.0
H2758 H 0.66397 0.80892 0.79877 0.0
H2759 H 0.65472 0.77669 0.79325 0.0
H2760 H 0.74552 0.83015 0.8142 0.0
H2761 H 0.72185 0.75294 0.80126 0.0
H2762 H 0.70173 0.83452 0.85069 0.0
H2763 H 0.69628 0.84081 0.82297 0.0
H2764 H 0.72535 0.85095 0.83614 0.0
H2765 H 0.67807 0.74148 0.83665 0.0
H2766 H 0.6865 0.72927 0.8116 0.0
H2767 H 0.66411 0.74379 0.81063 0.0
C2768 C 0.42787 0.53934 0.64925 0.0
C2769 C 0.43753 0.5608 0.6632 0.0
C2770 C 0.43725 0.53568 0.62934 0.0
C2771 C 0.45632 0.55409 0.62334 0.0
C2772 C 0.46406 0.57686 0.63604 0.0
C2773 C 0.45481 0.57982 0.65609 0.0
C2774 C 0.42829 0.51136 0.61592 0.0
C2775 C 0.48362 0.59733 0.62954 0.0
C2776 C 0.50634 0.53879 0.59931 0.0
C2777 C 0.50375 0.54387 0.57743 0.0
C2778 C 0.49016 0.54072 0.61403 0.0
C2779 C 0.47108 0.54825 0.60674 0.0
C2780 C 0.46769 0.55216 0.58435 0.0
C2781 C 0.48412 0.54988 0.56989 0.0
C2782 C 0.4941 0.53572 0.63766 0.0
C2783 C 0.44762 0.56007 0.57574 0.0
H2784 H 0.41442 0.52464 0.65475 0.0
H2785 H 0.46199 0.59653 0.6668 0.0
H2786 H 0.42653 0.5136 0.59807 0.0
H2787 H 0.44084 0.5011 0.6184 0.0
H2788 H 0.41131 0.50048 0.62078 0.0
H2789 H 0.48506 0.61482 0.63912 0.0
H2790 H 0.50018 0.59322 0.63252 0.0
H2791 H 0.48113 0.59932 0.61169 0.0
H2792 H 0.5213 0.53371 0.60508 0.0
H2793 H 0.48203 0.55379 0.55293 0.0
H2794 H 0.47818 0.52307 0.64289 0.0
H2795 H 0.49828 0.55284 0.64867 0.0
H2796 H 0.50849 0.52782 0.64008 0.0
H2797 H 0.43259 0.55458 0.58563 0.0
H2798 H 0.442 0.55243 0.55834 0.0
H2799 H 0.45328 0.5801 0.57618 0.0
C2800 C 0.83692 0.23798 0.00553 0.0
C2801 C 0.83201 0.2129 0.00061 0.0
C2802 C 0.83528 0.25287 0.98882 0.0
C2803 C 0.82804 0.24229 0.96688 0.0
C2804 C 0.82449 0.21723 0.96167 0.0
C2805 C 0.82675 0.2029 0.97857 0.0
C2806 C 0.84014 0.27969 0.9948 0.0
C2807 C 0.81669 0.2052 0.93848 0.0
C2808 C 0.79103 0.26651 0.92848 0.0
C2809 C 0.8059 0.27455 0.91213 0.0
C2810 C 0.79846 0.2572 0.94709 0.0
C2811 C 0.82153 0.25649 0.94975 0.0
C2812 C 0.83723 0.26666 0.93441 0.0
C2813 C 0.82918 0.27538 0.91569 0.0
C2814 C 0.78111 0.2465 0.96305 0.0
C2815 C 0.86212 0.26684 0.93685 0.0
H2816 H 0.84124 0.24585 0.02252 0.0
H2817 H 0.82304 0.18356 0.97461 0.0
H2818 H 0.8509 0.29016 0.98277 0.0
H2819 H 0.82364 0.28416 0.99419 0.0
H2820 H 0.84911 0.28562 0.01163 0.0
H2821 H 0.8159 0.1858 0.93697 0.0
H2822 H 0.79926 0.20643 0.93347 0.0
H2823 H 0.82859 0.21461 0.92672 0.0
H2824 H 0.77324 0.26656 0.92632 0.0
H2825 H 0.84094 0.28166 0.90331 0.0
H2826 H 0.78796 0.25402 0.98022 0.0
H2827 H 0.77793 0.22663 0.96211 0.0
H2828 H 0.76432 0.25 0.95948 0.0
H2829 H 0.86913 0.27021 0.95443 0.0
H2830 H 0.87318 0.28082 0.92749 0.0
H2831 H 0.86325 0.24895 0.93028 0.0
C2832 C 0.13619 0.48303 0.152 0.0
C2833 C 0.12644 0.47617 0.17156 0.0
C2834 C 0.12194 0.48379 0.13325 0.0
C2835 C 0.09776 0.47784 0.13456 0.0
C2836 C 0.08788 0.46659 0.15281 0.0
C2837 C 0.10244 0.46586 0.17122 0.0
C2838 C 0.13291 0.49434 0.11334 0.0
C2839 C 0.06212 0.45903 0.15444 0.0
C2840 C 0.07429 0.52662 0.11505 0.0
C2841 C 0.06197 0.51553 0.09506 0.0
C2842 C 0.08523 0.51406 0.12837 0.0
C2843 C 0.08438 0.49001 0.12106 0.0
C2844 C 0.07132 0.47843 0.1011 0.0
C2845 C 0.05995 0.49131 0.08843 0.0
C2846 C 0.09849 0.52697 0.14985 0.0
C2847 C 0.07054 0.45321 0.09229 0.0
H2848 H 0.15479 0.49045 0.15203 0.0
H2849 H 0.09493 0.4598 0.18621 0.0
H2850 H 0.12224 0.48507 0.09798 0.0
H2851 H 0.13406 0.51379 0.11407 0.0
H2852 H 0.15063 0.4928 0.11264 0.0
H2853 H 0.05696 0.44591 0.16688 0.0
H2854 H 0.0569 0.47526 0.15948 0.0
H2855 H 0.05255 0.4508 0.13827 0.0
H2856 H 0.07595 0.54544 0.11993 0.0
H2857 H 0.05076 0.48292 0.07266 0.0
H2858 H 0.1172 0.52934 0.14908 0.0
H2859 H 0.09267 0.51607 0.16372 0.0
H2860 H 0.09629 0.54511 0.15359 0.0
H2861 H 0.08602 0.4543 0.08325 0.0
H2862 H 0.05501 0.44454 0.08056 0.0
H2863 H 0.07072 0.44147 0.10574 0.0
C2864 C 0.79556 0.82509 0.45536 0.0
C2865 C 0.79086 0.84717 0.45963 0.0
C2866 C 0.7979 0.81628 0.43361 0.0
C2867 C 0.79581 0.82998 0.41571 0.0
C2868 C 0.79099 0.85216 0.41998 0.0
C2869 C 0.78846 0.86031 0.44165 0.0
C2870 C 0.80268 0.79237 0.42975 0.0
C2871 C 0.78872 0.86755 0.40161 0.0
C2872 C 0.82162 0.82338 0.36081 0.0
C2873 C 0.80183 0.81143 0.3465 0.0
C2874 C 0.82011 0.82858 0.38355 0.0
C2875 C 0.79832 0.82139 0.39237 0.0
C2876 C 0.77847 0.80837 0.37814 0.0
C2877 C 0.78043 0.80372 0.35548 0.0
C2878 C 0.8417 0.84278 0.39796 0.0
C2879 C 0.75491 0.8001 0.38667 0.0
H2880 H 0.79751 0.81476 0.46898 0.0
H2881 H 0.7849 0.87742 0.44447 0.0
H2882 H 0.78909 0.77991 0.41774 0.0
H2883 H 0.81941 0.79509 0.42248 0.0
H2884 H 0.80333 0.7836 0.44522 0.0
H2885 H 0.7854 0.88459 0.4077 0.0
H2886 H 0.80477 0.87225 0.39302 0.0
H2887 H 0.77434 0.85725 0.38922 0.0
H2888 H 0.83824 0.8294 0.35413 0.0
H2889 H 0.76501 0.79421 0.34471 0.0
H2890 H 0.84345 0.83359 0.41294 0.0
H2891 H 0.84045 0.86093 0.40351 0.0
H2892 H 0.85754 0.84517 0.38917 0.0
H2893 H 0.75565 0.79043 0.40155 0.0
H2894 H 0.74167 0.78797 0.37411 0.0
H2895 H 0.74927 0.81607 0.39161 0.0
C2896 C 0.48153 0.56324 0.80257 0.0
C2897 C 0.49303 0.56172 0.78356 0.0
C2898 C 0.49106 0.56019 0.82323 0.0
C2899 C 0.51274 0.55583 0.82495 0.0
C2900 C 0.52532 0.55631 0.80619 0.0
C2901 C 0.51525 0.55913 0.78565 0.0
C2902 C 0.4771 0.55977 0.84288 0.0
C2903 C 0.54871 0.55223 0.8075 0.0
C2904 C 0.5402 0.55747 0.88283 0.0
C2905 C 0.53328 0.53281 0.88608 0.0
C2906 C 0.53425 0.56529 0.86276 0.0
C2907 C 0.52087 0.54801 0.8457 0.0
C2908 C 0.51422 0.52304 0.84878 0.0
C2909 C 0.52062 0.51574 0.86892 0.0
C2910 C 0.5419 0.592 0.85994 0.0
C2911 C 0.49972 0.50408 0.83103 0.0
H2912 H 0.46441 0.56536 0.80116 0.0
H2913 H 0.52438 0.55819 0.77108 0.0
H2914 H 0.47105 0.54104 0.84769 0.0
H2915 H 0.4879 0.57141 0.85725 0.0
H2916 H 0.46176 0.56596 0.83932 0.0
H2917 H 0.55764 0.55669 0.79235 0.0
H2918 H 0.55988 0.56331 0.82194 0.0
H2919 H 0.54658 0.53295 0.80971 0.0
H2920 H 0.55022 0.57066 0.89606 0.0
H2921 H 0.51507 0.49671 0.87151 0.0
H2922 H 0.52658 0.59847 0.85781 0.0
H2923 H 0.55115 0.59529 0.84485 0.0
H2924 H 0.55342 0.60292 0.87431 0.0
H2925 H 0.48283 0.50728 0.82741 0.0
H2926 H 0.49648 0.48541 0.83588 0.0
H2927 H 0.50843 0.50538 0.81555 0.0
C2928 C 0.80082 0.17722 0.14162 0.0
C2929 C 0.81849 0.18311 0.12747 0.0
C2930 C 0.80188 0.19171 0.16128 0.0
C2931 C 0.82142 0.21222 0.16722 0.0
C2932 C 0.83983 0.21767 0.1535 0.0
C2933 C 0.83798 0.20323 0.13354 0.0
C2934 C 0.78164 0.18561 0.1752 0.0
C2935 C 0.86122 0.23899 0.15972 0.0
C2936 C 0.81016 0.26196 0.20417 0.0
C2937 C 0.81616 0.25618 0.22511 0.0
C2938 C 0.8125 0.24821 0.18509 0.0
C2939 C 0.82165 0.22868 0.18707 0.0
C2940 C 0.82891 0.2236 0.20816 0.0
C2941 C 0.82574 0.23722 0.227 0.0
C2942 C 0.804 0.25379 0.16293 0.0
C2943 C 0.83931 0.20333 0.21086 0.0
H2944 H 0.78564 0.16177 0.1369 0.0
H2945 H 0.85175 0.20768 0.12269 0.0
H2946 H 0.78749 0.18326 0.19223 0.0
H2947 H 0.77403 0.20074 0.17633 0.0
H2948 H 0.76789 0.16881 0.16836 0.0
H2949 H 0.87491 0.23929 0.14844 0.0
H2950 H 0.85676 0.2561 0.15922 0.0
H2951 H 0.86827 0.23852 0.17684 0.0
H2952 H 0.80265 0.27656 0.20272 0.0
H2953 H 0.83064 0.23294 0.24322 0.0
H2954 H 0.78921 0.23827 0.15547 0.0
H2955 H 0.81779 0.25638 0.1515 0.0
H2956 H 0.79831 0.27027 0.16418 0.0
H2957 H 0.82581 0.18563 0.20656 0.0
H2958 H 0.84684 0.20383 0.22802 0.0
H2959 H 0.853 0.20431 0.19947 0.0
C2960 C 0.08603 0.54302 0.276 0.0
C2961 C 0.1055 0.53478 0.27632 0.0
C2962 C 0.07584 0.54643 0.29544 0.0
C2963 C 0.08538 0.54148 0.3156 0.0
C2964 C 0.10476 0.53278 0.316 0.0
C2965 C 0.11461 0.52955 0.29634 0.0
C2966 C 0.0552 0.55578 0.29449 0.0
C2967 C 0.11538 0.5273 0.33726 0.0
C2968 C 0.07882 0.57304 0.37001 0.0
C2969 C 0.06264 0.55445 0.37904 0.0
C2970 C 0.08554 0.56938 0.34887 0.0
C2971 C 0.07596 0.54654 0.33655 0.0
C2972 C 0.05882 0.52807 0.3451 0.0
C2973 C 0.05233 0.53226 0.3663 0.0
C2974 C 0.10386 0.58953 0.34024 0.0
C2975 C 0.04818 0.50353 0.33231 0.0
H2976 H 0.07884 0.54703 0.26058 0.0
H2977 H 0.12957 0.52307 0.29673 0.0
H2978 H 0.04072 0.5435 0.30212 0.0
H2979 H 0.05972 0.57379 0.30411 0.0
H2980 H 0.04912 0.55752 0.27733 0.0
H2981 H 0.12986 0.51975 0.33459 0.0
H2982 H 0.12199 0.54408 0.34875 0.0
H2983 H 0.10209 0.51416 0.34547 0.0
H2984 H 0.08712 0.59011 0.37988 0.0
H2985 H 0.03962 0.51796 0.37315 0.0
H2986 H 0.09815 0.59255 0.32338 0.0
H2987 H 0.11993 0.58436 0.33917 0.0
H2988 H 0.10799 0.60684 0.351 0.0
H2989 H 0.0419 0.50552 0.31531 0.0
H2990 H 0.03354 0.49198 0.34034 0.0
H2991 H 0.06147 0.49407 0.3309 0.0
C2992 C 0.77608 0.82024 0.60865 0.0
C2993 C 0.79748 0.83225 0.60121 0.0
C2994 C 0.77434 0.81416 0.63056 0.0
C2995 C 0.79457 0.81937 0.64529 0.0
C2996 C 0.81635 0.83051 0.63752 0.0
C2997 C 0.81748 0.83728 0.61579 0.0
C2998 C 0.7507 0.80312 0.63819 0.0
C2999 C 0.83847 0.83563 0.65226 0.0
C3000 C 0.79209 0.82734 0.70792 0.0
C3001 C 0.79139 0.80439 0.71404 0.0
C3002 C 0.79233 0.83218 0.68562 0.0
C3003 C 0.79293 0.81396 0.66899 0.0
C3004 C 0.79234 0.79077 0.67516 0.0
C3005 C 0.79115 0.78615 0.69749 0.0
C3006 C 0.79208 0.85689 0.67988 0.0
C3007 C 0.79385 0.77106 0.65827 0.0
H3008 H 0.76049 0.81666 0.59764 0.0
H3009 H 0.83407 0.84659 0.6102 0.0
H3010 H 0.74966 0.78566 0.64486 0.0
H3011 H 0.74767 0.81533 0.65177 0.0
H3012 H 0.73667 0.79992 0.62471 0.0
H3013 H 0.85405 0.84211 0.64316 0.0
H3014 H 0.83913 0.84962 0.6659 0.0
H3015 H 0.8391 0.81905 0.65982 0.0
H3016 H 0.79236 0.84154 0.72063 0.0
H3017 H 0.79108 0.76851 0.70215 0.0
H3018 H 0.77798 0.85509 0.66679 0.0
H3019 H 0.80859 0.86633 0.67328 0.0
H3020 H 0.78966 0.86836 0.69437 0.0
H3021 H 0.77945 0.76709 0.6451 0.0
H3022 H 0.79325 0.75404 0.66567 0.0
H3023 H 0.8102 0.77726 0.6503 0.0
C3024 C 0.75228 0.50354 0.52437 0.0
C3025 C 0.74189 0.47838 0.52116 0.0
C3026 C 0.74058 0.51882 0.53349 0.0
C3027 C 0.71791 0.50869 0.53948 0.0
C3028 C 0.70712 0.48335 0.53597 0.0
C3029 C 0.71928 0.46844 0.52684 0.0
C3030 C 0.75261 0.54577 0.53698 0.0
C3031 C 0.68285 0.472 0.54207 0.0
C3032 C 0.69577 0.5449 0.58229 0.0
C3033 C 0.68218 0.55493 0.56898 0.0
C3034 C 0.70764 0.52989 0.57287 0.0
C3035 C 0.70563 0.52469 0.54965 0.0
C3036 C 0.69207 0.53494 0.53612 0.0
C3037 C 0.68056 0.55 0.54597 0.0
C3038 C 0.72211 0.51937 0.58776 0.0
C3039 C 0.68936 0.52965 0.5113 0.0
H3040 H 0.76975 0.51136 0.51997 0.0
H3041 H 0.71118 0.44901 0.52437 0.0
H3042 H 0.74227 0.55554 0.52807 0.0
H3043 H 0.75407 0.55218 0.55476 0.0
H3044 H 0.7702 0.55076 0.53118 0.0
H3045 H 0.67676 0.45206 0.53784 0.0
H3046 H 0.6821 0.4759 0.56004 0.0
H3047 H 0.67073 0.47998 0.53342 0.0
H3048 H 0.69693 0.54865 0.60007 0.0
H3049 H 0.66957 0.55725 0.53565 0.0
H3050 H 0.74021 0.52465 0.58329 0.0
H3051 H 0.71544 0.49931 0.5855 0.0
H3052 H 0.72213 0.5255 0.60546 0.0
H3053 H 0.70652 0.53531 0.5047 0.0
H3054 H 0.67811 0.53906 0.50318 0.0
H3055 H 0.68179 0.50989 0.50667 0.0
C3056 C 0.20978 0.17235 0.52135 0.0
C3057 C 0.22908 0.16426 0.51891 0.0
C3058 C 0.18806 0.15596 0.52394 0.0
C3059 C 0.18573 0.13099 0.52419 0.0
C3060 C 0.20521 0.12281 0.52193 0.0
C3061 C 0.22657 0.13949 0.5192 0.0
C3062 C 0.16756 0.16525 0.52609 0.0
C3063 C 0.20346 0.09635 0.52208 0.0
C3064 C 0.13348 0.08808 0.54633 0.0
C3065 C 0.11994 0.07706 0.52671 0.0
C3066 C 0.15485 0.10598 0.54585 0.0
C3067 C 0.1627 0.11305 0.52529 0.0
C3068 C 0.14905 0.10203 0.5055 0.0
C3069 C 0.12795 0.08415 0.50644 0.0
C3070 C 0.16909 0.11726 0.56727 0.0
C3071 C 0.15679 0.10903 0.48324 0.0
H3072 H 0.21163 0.19146 0.52121 0.0
H3073 H 0.2414 0.13305 0.51741 0.0
H3074 H 0.15437 0.15713 0.512 0.0
H3075 H 0.15936 0.15973 0.54137 0.0
H3076 H 0.17242 0.18528 0.5265 0.0
H3077 H 0.22051 0.09314 0.5213 0.0
H3078 H 0.19594 0.08935 0.53723 0.0
H3079 H 0.19172 0.08568 0.50778 0.0
H3080 H 0.12734 0.08282 0.56204 0.0
H3081 H 0.11759 0.0759 0.49115 0.0
H3082 H 0.17273 0.1372 0.5686 0.0
H3083 H 0.18599 0.11361 0.56762 0.0
H3084 H 0.1603 0.11022 0.58188 0.0
H3085 H 0.16029 0.1288 0.48259 0.0
H3086 H 0.1437 0.09937 0.46945 0.0
H3087 H 0.17314 0.10488 0.48063 0.0
C3088 C 0.26757 0.01319 0.82861 0.0
C3089 C 0.24491 0.99782 0.82874 0.0
C3090 C 0.28557 1.0038 0.8236 0.0
C3091 C 0.28057 0.97857 0.81825 0.0
C3092 C 0.25822 0.96286 0.8205 0.0
C3093 C 0.24066 0.97271 0.82588 0.0
C3094 C 0.3094 0.02103 0.8222 0.0
C3095 C 0.25214 0.93579 0.81499 0.0
C3096 C 0.30747 0.9537 0.77184 0.0
C3097 C 0.32012 0.94107 0.78317 0.0
C3098 C 0.29572 0.96743 0.78327 0.0
C3099 C 0.29704 0.96887 0.80661 0.0
C3100 C 0.31165 0.95816 0.81823 0.0
C3101 C 0.32293 0.94417 0.80633 0.0
C3102 C 0.28035 0.97867 0.77025 0.0
C3103 C 0.31397 0.95993 0.84311 0.0
H3104 H 0.27104 0.03264 0.83122 0.0
H3105 H 0.22323 0.96072 0.82623 0.0
H3106 H 0.32298 0.0133 0.82825 0.0
H3107 H 0.31185 0.02433 0.80473 0.0
H3108 H 0.31184 0.03874 0.83185 0.0
H3109 H 0.23533 0.92596 0.82092 0.0
H3110 H 0.25096 0.93164 0.79682 0.0
H3111 H 0.2657 0.92877 0.82228 0.0
H3112 H 0.30565 0.95165 0.75395 0.0
H3113 H 0.33263 0.93434 0.81519 0.0
H3114 H 0.28408 0.99804 0.77627 0.0
H3115 H 0.26198 0.9694 0.77256 0.0
H3116 H 0.28255 0.9773 0.75231 0.0
H3117 H 0.31643 0.97878 0.85017 0.0
H3118 H 0.32867 0.95401 0.84959 0.0
H3119 H 0.29789 0.94832 0.84898 0.0
C3120 C 0.36839 0.99642 0.00984 0.0
C3121 C 0.3575 0.97184 0.00313 0.0
C3122 C 0.39247 1.0054 0.01415 0.0
C3123 C 0.4059 0.98951 0.01093 0.0
C3124 C 0.39498 0.96473 0.00383 0.0
C3125 C 0.37082 0.95609 0.00036 0.0
C3126 C 0.40351 0.0318 0.02228 0.0
C3127 C 0.40883 0.94744 -0.00041 0.0
C3128 C 0.46835 0.01831 0.00068 0.0
C3129 C 0.47987 0.01702 0.02093 0.0
C3130 C 0.44426 0.00903 0.9971 0.0
C3131 C 0.43143 0.99898 0.01445 0.0
C3132 C 0.44298 0.99805 0.03509 0.0
C3133 C 0.46719 1.00675 0.03796 0.0
C3134 C 0.43258 0.00971 0.97467 0.0
C3135 C 0.42979 0.9881 0.05417 0.0
H3136 H 0.35802 0.00852 0.01225 0.0
H3137 H 0.36233 0.93709 0.99506 0.0
H3138 H 0.41432 0.03351 0.03801 0.0
H3139 H 0.41507 0.04097 0.01016 0.0
H3140 H 0.3905 0.04143 0.02497 0.0
H3141 H 0.39768 0.92882 0.9937 0.0
H3142 H 0.42103 0.954 0.98704 0.0
H3143 H 0.41932 0.94668 0.01489 0.0
H3144 H 0.47827 0.02604 0.98743 0.0
H3145 H 0.47615 1.00599 0.05366 0.0
H3146 H 0.42062 0.02077 0.97613 0.0
H3147 H 0.42207 0.99115 0.9679 0.0
H3148 H 0.44518 0.01737 0.96274 0.0
H3149 H 0.41733 0.99813 0.05788 0.0
H3150 H 0.44138 0.98938 0.06933 0.0
H3151 H 0.41963 0.96884 0.04971 0.0
C3152 C 0.89727 0.61687 0.84433 0.0
C3153 C 0.89104 0.59156 0.84312 0.0
C3154 C 0.88048 0.62854 0.84067 0.0
C3155 C 0.85705 0.61448 0.83587 0.0
C3156 C 0.85041 0.58933 0.83784 0.0
C3157 C 0.86756 0.57809 0.84141 0.0
C3158 C 0.8882 0.65553 0.83921 0.0
C3159 C 0.82549 0.57386 0.8336 0.0
C3160 C 0.81421 0.64885 0.82392 0.0
C3161 C 0.81447 0.64913 0.80097 0.0
C3162 C 0.82726 0.6368 0.83563 0.0
C3163 C 0.84089 0.62497 0.82404 0.0
C3164 C 0.84032 0.62432 0.80075 0.0
C3165 C 0.82708 0.63639 0.78952 0.0
C3166 C 0.8273 0.63778 0.86041 0.0
C3167 C 0.85444 0.61169 0.78769 0.0
H3168 H 0.91539 0.62745 0.84607 0.0
H3169 H 0.86259 0.55853 0.84096 0.0
H3170 H 0.88785 0.65905 0.82159 0.0
H3171 H 0.87635 0.66412 0.84718 0.0
H3172 H 0.90605 0.66428 0.84705 0.0
H3173 H 0.82261 0.55612 0.8404 0.0
H3174 H 0.81383 0.58322 0.84089 0.0
H3175 H 0.82066 0.57041 0.81554 0.0
H3176 H 0.8046 0.65892 0.83283 0.0
H3177 H 0.82699 0.63635 0.77174 0.0
H3178 H 0.84323 0.65166 0.8681 0.0
H3179 H 0.82723 0.62018 0.8663 0.0
H3180 H 0.81218 0.64267 0.86622 0.0
H3181 H 0.87312 0.62046 0.79268 0.0
H3182 H 0.85137 0.61217 0.76962 0.0
H3183 H 0.85023 0.5925 0.7912 0.0
C3184 C 0.86403 0.66164 0.05444 0.0
C3185 C 0.85826 0.67552 0.03851 0.0
C3186 C 0.88235 0.65197 0.05234 0.0
C3187 C 0.8954 0.65642 0.03389 0.0
C3188 C 0.89097 0.67213 0.01873 0.0
C3189 C 0.87235 0.68151 0.02119 0.0
C3190 C 0.88654 0.63546 0.069 0.0
C3191 C 0.90486 0.67771 0.99913 0.0
C3192 C 0.94752 0.63355 0.03867 0.0
C3193 C 0.93823 0.60994 0.02817 0.0
C3194 C 0.9344 0.64976 0.03923 0.0
C3195 C 0.91141 0.64204 0.0293 0.0
C3196 C 0.90251 0.61879 0.01748 0.0
C3197 C 0.91608 0.60311 0.01697 0.0
C3198 C 0.94464 0.67455 0.05164 0.0
C3199 C 0.87809 0.60982 0.00661 0.0
H3200 H 0.85347 0.65728 0.0681 0.0
H3201 H 0.86806 0.69232 0.00887 0.0
H3202 H 0.88188 0.61664 0.06101 0.0
H3203 H 0.90508 0.64091 0.07513 0.0
H3204 H 0.8762 0.63554 0.08336 0.0
H3205 H 0.90237 0.69359 0.99149 0.0
H3206 H 0.92355 0.68126 0.00397 0.0
H3207 H 0.89936 0.66185 0.98651 0.0
H3208 H 0.96463 0.63901 0.04739 0.0
H3209 H 0.90903 0.58513 0.00831 0.0
H3210 H 0.93735 0.67486 0.06782 0.0
H3211 H 0.9402 0.68853 0.04245 0.0
H3212 H 0.96375 0.67946 0.05466 0.0
H3213 H 0.8657 0.60754 0.01946 0.0
H3214 H 0.87453 0.59221 0.99644 0.0
H3215 H 0.87475 0.62324 0.99594 0.0
C3216 C 0.18838 0.12186 0.80273 0.0
C3217 C 0.19654 0.1089 0.81808 0.0
C3218 C 0.20126 0.14559 0.79966 0.0
C3219 C 0.2225 0.15668 0.81259 0.0
C3220 C 0.23014 0.14415 0.82896 0.0
C3221 C 0.21718 0.12028 0.83134 0.0
C3222 C 0.19273 0.1583 0.78184 0.0
C3223 C 0.25244 0.15562 0.8434 0.0
C3224 C 0.26868 0.20498 0.7887 0.0
C3225 C 0.26585 0.22623 0.79881 0.0
C3226 C 0.25451 0.18221 0.79294 0.0
C3227 C 0.23747 0.18073 0.80798 0.0
C3228 C 0.23478 0.20213 0.81851 0.0
C3229 C 0.24888 0.22466 0.81363 0.0
C3230 C 0.25763 0.15975 0.78114 0.0
C3231 C 0.21711 0.20121 0.83497 0.0
H3232 H 0.1725 0.11306 0.79235 0.0
H3233 H 0.22341 0.11036 0.84336 0.0
H3234 H 0.19217 0.17632 0.78868 0.0
H3235 H 0.2049 0.16133 0.7688 0.0
H3236 H 0.17525 0.14772 0.77411 0.0
H3237 H 0.25475 0.14437 0.85674 0.0
H3238 H 0.26729 0.15823 0.83322 0.0
H3239 H 0.25291 0.17374 0.85098 0.0
H3240 H 0.28167 0.20615 0.77713 0.0
H3241 H 0.24677 0.24108 0.82162 0.0
H3242 H 0.24116 0.14881 0.77169 0.0
H3243 H 0.26219 0.14833 0.79332 0.0
H3244 H 0.27135 0.16407 0.76959 0.0
H3245 H 0.19951 0.19166 0.827 0.0
H3246 H 0.21748 0.21954 0.84198 0.0
H3247 H 0.22029 0.19081 0.84869 0.0
C3248 C 0.38222 0.9731 0.321 0.0
C3249 C 0.40489 0.97793 0.33053 0.0
C3250 C 0.36685 0.94949 0.31869 0.0
C3251 C 0.37424 0.93053 0.32668 0.0
C3252 C 0.39629 0.93587 0.33839 0.0
C3253 C 0.41153 0.95948 0.33985 0.0
C3254 C 0.34366 0.94452 0.30575 0.0
C3255 C 0.40451 0.9163 0.3478 0.0
C3256 C 0.33065 0.86786 0.32504 0.0
C3257 C 0.33605 0.85614 0.30615 0.0
C3258 C 0.34306 0.89209 0.33218 0.0
C3259 C 0.36068 0.90493 0.31967 0.0
C3260 C 0.36575 0.89323 0.30027 0.0
C3261 C 0.35361 0.86886 0.29396 0.0
C3262 C 0.33769 0.90377 0.35328 0.0
C3263 C 0.384 0.90644 0.28613 0.0
H3264 H 0.37711 0.98733 0.31363 0.0
H3265 H 0.42902 0.96327 0.34739 0.0
H3266 H 0.34411 0.93546 0.28917 0.0
H3267 H 0.32978 0.93215 0.31396 0.0
H3268 H 0.33916 0.96142 0.30358 0.0
H3269 H 0.42003 0.92397 0.35975 0.0
H3270 H 0.39066 0.90405 0.35616 0.0
H3271 H 0.40903 0.90521 0.33422 0.0
H3272 H 0.31714 0.85788 0.33454 0.0
H3273 H 0.3576 0.85982 0.27922 0.0
H3274 H 0.33314 0.92038 0.35008 0.0
H3275 H 0.35325 0.90935 0.36529 0.0
H3276 H 0.32323 0.89141 0.3609 0.0
H3277 H 0.38041 0.92308 0.2813 0.0
H3278 H 0.38486 0.89509 0.27091 0.0
H3279 H 0.4012 0.91212 0.29565 0.0
C3280 C 0.58474 0.39953 0.61634 0.0
C3281 C 0.59214 0.38255 0.60362 0.0
C3282 C 0.58009 0.41917 0.6071 0.0
C3283 C 0.58298 0.42212 0.58454 0.0
C3284 C 0.59042 0.40505 0.57156 0.0
C3285 C 0.59484 0.38543 0.58123 0.0
C3286 C 0.57214 0.43685 0.62155 0.0
C3287 C 0.59387 0.40762 0.54751 0.0
C3288 C 0.5515 0.46201 0.55769 0.0
C3289 C 0.56891 0.48437 0.55917 0.0
C3290 C 0.55594 0.4415 0.56544 0.0
C3291 C 0.5784 0.44325 0.57476 0.0
C3292 C 0.59618 0.46562 0.5758 0.0
C3293 C 0.59121 0.48587 0.56812 0.0
C3294 C 0.53646 0.41805 0.56411 0.0
C3295 C 0.62043 0.46831 0.58537 0.0
H3296 H 0.58254 0.39749 0.63364 0.0
H3297 H 0.60059 0.37246 0.57128 0.0
H3298 H 0.58463 0.45526 0.62215 0.0
H3299 H 0.5552 0.43779 0.61449 0.0
H3300 H 0.57037 0.43181 0.63869 0.0
H3301 H 0.59944 0.39268 0.53959 0.0
H3302 H 0.57758 0.40789 0.53845 0.0
H3303 H 0.60712 0.42508 0.54579 0.0
H3304 H 0.53423 0.46061 0.55081 0.0
H3305 H 0.6049 0.50296 0.56921 0.0
H3306 H 0.53295 0.41296 0.58098 0.0
H3307 H 0.54144 0.40324 0.55526 0.0
H3308 H 0.52027 0.41933 0.55554 0.0
H3309 H 0.62029 0.46507 0.60304 0.0
H3310 H 0.63256 0.48659 0.584 0.0
H3311 H 0.6271 0.45459 0.57681 0.0
C3312 C 0.43334 0.75177 0.39267 0.0
C3313 C 0.4499 0.77466 0.39423 0.0
C3314 C 0.41135 0.74764 0.38132 0.0
C3315 C 0.40595 0.7669 0.37155 0.0
C3316 C 0.42216 0.79034 0.37447 0.0
C3317 C 0.44387 0.79387 0.38566 0.0
C3318 C 0.3945 0.72243 0.37869 0.0
C3319 C 0.41711 0.81154 0.36469 0.0
C3320 C 0.36673 0.75985 0.31913 0.0
C3321 C 0.34792 0.766 0.32716 0.0
C3322 C 0.38497 0.75816 0.33359 0.0
C3323 C 0.38442 0.7627 0.35666 0.0
C3324 C 0.36469 0.76713 0.36493 0.0
C3325 C 0.34669 0.76873 0.35009 0.0
C3326 C 0.40562 0.75326 0.32406 0.0
C3327 C 0.36324 0.77171 0.38939 0.0
H3328 H 0.43799 0.73686 0.39918 0.0
H3329 H 0.45654 0.81168 0.38708 0.0
H3330 H 0.37678 0.72291 0.3814 0.0
H3331 H 0.39398 0.71417 0.3616 0.0
H3332 H 0.39948 0.71064 0.39028 0.0
H3333 H 0.43092 0.82889 0.3698 0.0
H3334 H 0.41545 0.8084 0.34641 0.0
H3335 H 0.40048 0.81338 0.36975 0.0
H3336 H 0.3678 0.75743 0.30149 0.0
H3337 H 0.33207 0.77309 0.35655 0.0
H3338 H 0.41071 0.73931 0.33274 0.0
H3339 H 0.42052 0.77006 0.32642 0.0
H3340 H 0.40218 0.74708 0.30614 0.0
H3341 H 0.36708 0.75716 0.39818 0.0
H3342 H 0.34595 0.77278 0.39321 0.0
H3343 H 0.37639 0.78902 0.39596 0.0
C3344 C 0.10034 0.72114 0.12378 0.0
C3345 C 0.09676 0.74058 0.11329 0.0
C3346 C 0.09497 0.69791 0.11263 0.0
C3347 C 0.08584 0.6938 0.09028 0.0
C3348 C 0.08231 0.71329 0.07944 0.0
C3349 C 0.08776 0.73646 0.09109 0.0
C3350 C 0.09893 0.67767 0.12488 0.0
C3351 C 0.07271 0.70961 0.05559 0.0
C3352 C 0.09241 0.63686 0.06013 0.0
C3353 C 0.07088 0.61986 0.062 0.0
C3354 C 0.09714 0.66128 0.06828 0.0
C3355 C 0.07996 0.66894 0.07859 0.0
C3356 C 0.0579 0.6521 0.07973 0.0
C3357 C 0.05362 0.62781 0.07143 0.0
C3358 C 0.12085 0.67868 0.06663 0.0
C3359 C 0.03907 0.65948 0.09057 0.0
H3360 H 0.10723 0.72397 0.14091 0.0
H3361 H 0.08493 0.75131 0.08282 0.0
H3362 H 0.0824 0.66298 0.12494 0.0
H3363 H 0.11101 0.66979 0.1164 0.0
H3364 H 0.10619 0.68387 0.14223 0.0
H3365 H 0.07132 0.72665 0.04942 0.0
H3366 H 0.08391 0.7024 0.04516 0.0
H3367 H 0.05531 0.69601 0.05358 0.0
H3368 H 0.10582 0.63103 0.05271 0.0
H3369 H 0.03683 0.61494 0.07275 0.0
H3370 H 0.13008 0.68426 0.08335 0.0
H3371 H 0.11941 0.69529 0.05967 0.0
H3372 H 0.13146 0.67054 0.0562 0.0
H3373 H 0.04407 0.66401 0.10854 0.0
H3374 H 0.02223 0.64491 0.08815 0.0
H3375 H 0.03681 0.67593 0.08391 0.0
C3376 C 0.07985 0.27465 0.88196 0.0
C3377 C 0.08224 0.2812 0.90478 0.0
C3378 C 0.09919 0.27879 0.86985 0.0
C3379 C 0.12149 0.28978 0.88081 0.0
C3380 C 0.12411 0.29606 0.90391 0.0
C3381 C 0.1044 0.29164 0.91567 0.0
C3382 C 0.09571 0.27171 0.84524 0.0
C3383 C 0.14767 0.30778 0.91611 0.0
C3384 C 0.17084 0.28127 0.84965 0.0
C3385 C 0.17761 0.30278 0.83943 0.0
C3386 C 0.15314 0.27715 0.86383 0.0
C3387 C 0.14193 0.29496 0.86785 0.0
C3388 C 0.14911 0.31699 0.85807 0.0
C3389 C 0.16687 0.32062 0.84394 0.0
C3390 C 0.14588 0.2534 0.87388 0.0
C3391 C 0.13758 0.33642 0.86204 0.0
H3392 H 0.06277 0.26646 0.87345 0.0
H3393 H 0.10632 0.29672 0.93331 0.0
H3394 H 0.10231 0.288 0.83638 0.0
H3395 H 0.10566 0.25915 0.84073 0.0
H3396 H 0.07724 0.26283 0.83933 0.0
H3397 H 0.1468 0.31093 0.93417 0.0
H3398 H 0.15898 0.29622 0.91317 0.0
H3399 H 0.15596 0.32539 0.90978 0.0
H3400 H 0.17891 0.2673 0.84602 0.0
H3401 H 0.1723 0.33741 0.83634 0.0
H3402 H 0.12806 0.24283 0.8671 0.0
H3403 H 0.14564 0.25666 0.892 0.0
H3404 H 0.15753 0.24229 0.87051 0.0
H3405 H 0.11926 0.32956 0.8551 0.0
H3406 H 0.14621 0.35312 0.85438 0.0
H3407 H 0.13764 0.34116 0.88 0.0
C3408 C 0.53785 0.68734 0.92965 0.0
C3409 C 0.55475 0.71011 0.93539 0.0
C3410 C 0.53678 0.66659 0.94142 0.0
C3411 C 0.55337 0.66758 0.95942 0.0
C3412 C 0.57066 0.69044 0.96506 0.0
C3413 C 0.57093 0.71108 0.95343 0.0
C3414 C 0.51754 0.64342 0.93456 0.0
C3415 C 0.58934 0.6931 0.98336 0.0
C3416 C 0.54168 0.62013 0.00366 0.0
C3417 C 0.55228 0.60272 0.99622 0.0
C3418 C 0.54155 0.64062 0.99192 0.0
C3419 C 0.55281 0.64499 0.9721 0.0
C3420 C 0.5637 0.62757 0.96463 0.0
C3421 C 0.56306 0.60694 0.97637 0.0
C3422 C 0.52901 0.65762 0.00076 0.0
C3423 C 0.57644 0.63082 0.94415 0.0
H3424 H 0.52506 0.68574 0.91598 0.0
H3425 H 0.58431 0.72808 0.95832 0.0
H3426 H 0.52484 0.62913 0.92825 0.0
H3427 H 0.5082 0.63697 0.94903 0.0
H3428 H 0.50496 0.64566 0.92153 0.0
H3429 H 0.60212 0.71148 0.98545 0.0
H3430 H 0.58154 0.68944 0.99916 0.0
H3431 H 0.59858 0.67958 0.9799 0.0
H3432 H 0.53311 0.61762 0.01872 0.0
H3433 H 0.5715 0.59416 0.97004 0.0
H3434 H 0.51611 0.65932 0.98779 0.0
H3435 H 0.54143 0.67593 0.00528 0.0
H3436 H 0.52001 0.65142 0.01549 0.0
H3437 H 0.5642 0.62993 0.92962 0.0
H3438 H 0.5852 0.6168 0.94097 0.0
H3439 H 0.58958 0.64895 0.9457 0.0
C3440 C 0.12846 0.80181 0.72031 0.0
C3441 C 0.12397 0.80153 0.69724 0.0
C3442 C 0.15033 0.80143 0.73041 0.0
C3443 C 0.16889 0.80037 0.71751 0.0
C3444 C 0.1644 0.80006 0.69423 0.0
C3445 C 0.14251 0.80077 0.6846 0.0
C3446 C 0.15357 0.80212 0.75516 0.0
C3447 C 0.18281 0.79865 0.67923 0.0
C3448 C 0.23351 0.81916 0.74372 0.0
C3449 C 0.23742 0.79695 0.74762 0.0
C3450 C 0.21172 0.82055 0.73437 0.0
C3451 C 0.1926 0.79926 0.72813 0.0
C3452 C 0.19651 0.7768 0.73191 0.0
C3453 C 0.21836 0.77595 0.74155 0.0
C3454 C 0.20914 0.8451 0.73126 0.0
C3455 C 0.17748 0.75335 0.72559 0.0
H3456 H 0.11476 0.80234 0.73066 0.0
H3457 H 0.13984 0.80037 0.66684 0.0
H3458 H 0.15709 0.78537 0.75972 0.0
H3459 H 0.16877 0.8176 0.76182 0.0
H3460 H 0.13816 0.80381 0.76317 0.0
H3461 H 0.17702 0.79846 0.66157 0.0
H3462 H 0.19855 0.81432 0.68369 0.0
H3463 H 0.18775 0.78202 0.6814 0.0
H3464 H 0.24756 0.83574 0.74819 0.0
H3465 H 0.22052 0.75851 0.74418 0.0
H3466 H 0.19457 0.84764 0.74019 0.0
H3467 H 0.20495 0.84635 0.71353 0.0
H3468 H 0.22507 0.86006 0.73729 0.0
H3469 H 0.16222 0.7532 0.73467 0.0
H3470 H 0.18292 0.7373 0.72916 0.0
H3471 H 0.17191 0.75172 0.70772 0.0
C3472 C 0.08137 0.38043 0.43204 0.0
C3473 C 0.0637 0.35816 0.43149 0.0
C3474 C 0.08059 0.40199 0.44441 0.0
C3475 C 0.06106 0.40228 0.45602 0.0
C3476 C 0.04302 0.37985 0.45536 0.0
C3477 C 0.04474 0.35826 0.44362 0.0
C3478 C 0.10086 0.42461 0.44498 0.0
C3479 C 0.02135 0.3788 0.46645 0.0
C3480 C 0.06459 0.45346 0.50291 0.0
C3481 C 0.05718 0.47073 0.49197 0.0
C3482 C 0.06629 0.43171 0.49156 0.0
C3483 C 0.0595 0.4259 0.46852 0.0
C3484 C 0.05156 0.4431 0.45747 0.0
C3485 C 0.05097 0.4652 0.46906 0.0
C3486 C 0.07585 0.41508 0.50431 0.0
C3487 C 0.04327 0.43799 0.43328 0.0
H3488 H 0.09609 0.38101 0.42275 0.0
H3489 H 0.03063 0.34159 0.44312 0.0
H3490 H 0.09564 0.43833 0.43607 0.0
H3491 H 0.10658 0.43256 0.46228 0.0
H3492 H 0.11574 0.42106 0.43728 0.0
H3493 H 1.00855 0.36045 0.46403 0.0
H3494 H 0.02565 0.38419 0.48439 0.0
H3495 H 0.01325 0.39187 0.45976 0.0
H3496 H 0.06964 0.45722 0.52048 0.0
H3497 H 0.04502 0.47798 0.46018 0.0
H3498 H 0.09071 0.41188 0.49632 0.0
H3499 H 0.06252 0.39726 0.50417 0.0
H3500 H 0.08165 0.42255 0.52173 0.0
H3501 H 0.05782 0.43737 0.42345 0.0
H3502 H 0.03585 0.45192 0.42734 0.0
H3503 H 0.02994 0.42001 0.43011 0.0
C3504 C 0.47307 0.27909 0.22911 0.0
C3505 C 0.47805 0.28663 0.20793 0.0
C3506 C 0.45215 0.27898 0.23877 0.0
C3507 C 0.4344 0.28591 0.22717 0.0
C3508 C 0.43914 0.29334 0.20566 0.0
C3509 C 0.46062 0.29392 0.19658 0.0
C3510 C 0.44913 0.27142 0.26175 0.0
C3511 C 0.42117 0.30032 0.19188 0.0
C3512 C 0.37113 0.26376 0.24638 0.0
C3513 C 0.36827 0.28452 0.25811 0.0
C3514 C 0.39189 0.26403 0.23614 0.0
C3515 C 0.41131 0.28546 0.23758 0.0
C3516 C 0.40861 0.30634 0.24969 0.0
C3517 C 0.38752 0.3057 0.25936 0.0
C3518 C 0.39296 0.24107 0.22365 0.0
C3519 C 0.42834 0.32961 0.25275 0.0
H3520 H 0.48586 0.27336 0.2385 0.0
H3521 H 0.46348 0.29961 0.18023 0.0
H3522 H 0.44485 0.28555 0.2724 0.0
H3523 H 0.43451 0.25452 0.26126 0.0
H3524 H 0.46488 0.26827 0.26946 0.0
H3525 H 0.42661 0.30476 0.17529 0.0
H3526 H 0.40469 0.28525 0.18988 0.0
H3527 H 0.41766 0.31624 0.20038 0.0
H3528 H 0.3569 0.24712 0.24489 0.0
H3529 H 0.38625 0.32207 0.26818 0.0
H3530 H 0.40515 0.23369 0.23293 0.0
H3531 H 0.3995 0.24483 0.20731 0.0
H3532 H 0.37586 0.22698 0.22112 0.0
H3533 H 0.44395 0.32642 0.26068 0.0
H3534 H 0.42422 0.34413 0.26303 0.0
H3535 H 0.43271 0.33603 0.23646 0.0
C3536 C 0.65681 0.54157 0.40455 0.0
C3537 C 0.63919 0.5445 0.39004 0.0
C3538 C 0.65499 0.54243 0.42742 0.0
C3539 C 0.63493 0.5459 0.43578 0.0
C3540 C 0.61736 0.54933 0.42123 0.0
C3541 C 0.61976 0.54868 0.39861 0.0
C3542 C 0.67419 0.53896 0.44244 0.0
C3543 C 0.5956 0.55305 0.42946 0.0
C3544 C 0.60612 0.52173 0.48497 0.0
C3545 C 0.60752 0.54342 0.49752 0.0
C3546 C 0.6177 0.52188 0.46591 0.0
C3547 C 0.63095 0.54427 0.45938 0.0
C3548 C 0.63518 0.56572 0.47376 0.0
C3549 C 0.62331 0.56507 0.49278 0.0
C3550 C 0.61323 0.49848 0.45135 0.0
C3551 C 0.65002 0.58978 0.46777 0.0
H3552 H 0.67198 0.53851 0.39807 0.0
H3553 H 0.6061 0.55105 0.38758 0.0
H3554 H 0.67725 0.55092 0.45811 0.0
H3555 H 0.66927 0.51999 0.44665 0.0
H3556 H 0.6906 0.54259 0.43442 0.0
H3557 H 0.58389 0.556 0.41599 0.0
H3558 H 0.58602 0.53698 0.43743 0.0
H3559 H 0.60009 0.56892 0.44203 0.0
H3560 H 0.59453 0.50479 0.48905 0.0
H3561 H 0.6249 0.58183 0.50277 0.0
H3562 H 0.62928 0.49726 0.4444 0.0
H3563 H 0.60045 0.49787 0.43733 0.0
H3564 H 0.60622 0.48243 0.46045 0.0
H3565 H 0.66529 0.58779 0.45974 0.0
H3566 H 0.656 0.60324 0.4825 0.0
H3567 H 0.63979 0.59695 0.45588 0.0
C3568 C 0.28164 0.8426 0.05344 0.0
C3569 C 0.29409 0.8673 0.05503 0.0
C3570 C 0.28479 0.82817 0.0701 0.0
C3571 C 0.30072 0.83877 0.08868 0.0
C3572 C 0.3136 0.86359 0.09014 0.0
C3573 C 0.31014 0.87752 0.07331 0.0
C3574 C 0.27081 0.80175 0.06802 0.0
C3575 C 0.33078 0.87558 0.1097 0.0
C3576 C 0.29601 0.81413 0.14433 0.0
C3577 C 0.31436 0.80416 0.14536 0.0
C3578 C 0.29045 0.82418 0.1254 0.0
C3579 C 0.30364 0.82437 0.10709 0.0
C3580 C 0.32136 0.81318 0.10757 0.0
C3581 C 0.32653 0.80323 0.12673 0.0
C3582 C 0.27142 0.83595 0.12556 0.0
C3583 C 0.33569 0.8129 0.0883 0.0
H3584 H 0.26922 0.8346 0.03934 0.0
H3585 H 0.31988 0.89658 0.07464 0.0
H3586 H 0.28245 0.79035 0.06954 0.0
H3587 H 0.25938 0.79823 0.08163 0.0
H3588 H 0.25996 0.796 0.05206 0.0
H3589 H 0.33979 0.89493 0.10805 0.0
H3590 H 0.32179 0.87446 0.12502 0.0
H3591 H 0.34394 0.866 0.11168 0.0
H3592 H 0.28668 0.8152 0.15874 0.0
H3593 H 0.3405 0.79523 0.12734 0.0
H3594 H 0.25961 0.82988 0.11023 0.0
H3595 H 0.27908 0.85588 0.12619 0.0
H3596 H 0.26112 0.83181 0.13995 0.0
H3597 H 0.32438 0.80662 0.07267 0.0
H3598 H 0.34687 0.80105 0.09022 0.0
H3599 H 0.34688 0.83154 0.08681 0.0
C3600 C 0.99389 0.55544 0.88983 0.0
C3601 C 1.00571 0.56266 0.87139 0.0
C3602 C 1.00595 0.55675 0.91038 0.0
C3603 C 0.03037 0.56622 0.91261 0.0
C3604 C 0.04238 0.57427 0.89418 0.0
C3605 C 0.02988 0.57202 0.87362 0.0
C3606 C 0.99255 0.54751 0.9296 0.0
C3607 C 0.06834 0.58519 0.89621 0.0
C3608 C 0.05143 0.58439 0.9725 0.0
C3609 C 0.05676 0.56373 0.97828 0.0
C3610 C 0.04499 0.58657 0.95054 0.0
C3611 C 0.04304 0.56718 0.93431 0.0
C3612 C 0.04991 0.54699 0.93989 0.0
C3613 C 0.05706 0.54569 0.9619 0.0
C3614 C 0.03855 0.60875 0.94505 0.0
C3615 C 0.04755 0.52571 0.92314 0.0
H3616 H 0.9752 0.54799 0.88803 0.0
H3617 H 0.03897 0.57776 0.85931 0.0
H3618 H 0.99877 0.53319 0.93644 0.0
H3619 H 0.99541 0.56239 0.94297 0.0
H3620 H 0.97368 0.53993 0.92484 0.0
H3621 H 0.0749 0.59173 0.88053 0.0
H3622 H 0.07373 0.60058 0.90933 0.0
H3623 H 0.07667 0.57159 0.90113 0.0
H3624 H 0.05143 0.59841 0.9853 0.0
H3625 H 0.06105 0.52964 0.96654 0.0
H3626 H 0.01946 0.60424 0.94279 0.0
H3627 H 0.04541 0.61496 0.9294 0.0
H3628 H 0.04517 0.62388 0.95837 0.0
H3629 H 0.02895 0.51572 0.91899 0.0
H3630 H 0.05632 0.51296 0.92942 0.0
H3631 H 0.05481 0.53189 0.90765 0.0
C3632 C 0.30644 0.25582 0.60739 0.0
C3633 C 0.30199 0.23072 0.60295 0.0
C3634 C 0.30783 0.26655 0.62926 0.0
C3635 C 0.30486 0.25189 0.64709 0.0
C3636 C 0.30096 0.2267 0.64266 0.0
C3637 C 0.29956 0.21652 0.62084 0.0
C3638 C 0.31203 0.29349 0.63328 0.0
C3639 C 0.29792 0.21028 0.66101 0.0
C3640 C 0.3261 0.27589 0.70707 0.0
C3641 C 0.30542 0.27544 0.71636 0.0
C3642 C 0.32636 0.26949 0.68438 0.0
C3643 C 0.30545 0.26239 0.67045 0.0
C3644 C 0.28466 0.26269 0.67957 0.0
C3645 C 0.28488 0.26917 0.70234 0.0
C3646 C 0.34893 0.26939 0.67551 0.0
C3647 C 0.26196 0.25525 0.66541 0.0
H3648 H 0.3083 0.26697 0.59378 0.0
H3649 H 0.29639 0.19715 0.6178 0.0
H3650 H 0.29699 0.29709 0.64057 0.0
H3651 H 0.32734 0.30174 0.64532 0.0
H3652 H 0.31486 0.30255 0.61787 0.0
H3653 H 0.29548 0.19113 0.65487 0.0
H3654 H 0.31324 0.21647 0.67329 0.0
H3655 H 0.28267 0.21109 0.66974 0.0
H3656 H 0.34215 0.28086 0.7176 0.0
H3657 H 0.26882 0.26889 0.7092 0.0
H3658 H 0.3516 0.27936 0.66063 0.0
H3659 H 0.34843 0.25049 0.67047 0.0
H3660 H 0.36397 0.27765 0.6879 0.0
H3661 H 0.26364 0.26517 0.65048 0.0
H3662 H 0.24776 0.25867 0.67442 0.0
H3663 H 0.25708 0.23565 0.65975 0.0
C3664 C 0.59947 0.50025 0.26203 0.0
C3665 C 0.62336 0.51061 0.26135 0.0
C3666 C 0.58392 0.50071 0.24417 0.0
C3667 C 0.59252 0.5124 0.22561 0.0
C3668 C 0.61668 0.52148 0.22431 0.0
C3669 C 0.6318 0.52019 0.24209 0.0
C3670 C 0.55831 0.48976 0.24562 0.0
C3671 C 0.62661 0.53411 0.2048 0.0
C3672 C 0.56096 0.51281 0.17046 0.0
C3673 C 0.55765 0.53575 0.17292 0.0
C3674 C 0.57013 0.50362 0.18826 0.0
C3675 C 0.57673 0.51801 0.20875 0.0
C3676 C 0.57152 0.54014 0.21182 0.0
C3677 C 0.5617 0.54854 0.19394 0.0
C3678 C 0.57449 0.47947 0.18445 0.0
C3679 C 0.57835 0.55613 0.23339 0.0
H3680 H 0.59288 0.49249 0.27678 0.0
H3681 H 0.65025 0.52806 0.24138 0.0
H3682 H 0.55038 0.50437 0.24906 0.0
H3683 H 0.54982 0.47943 0.22971 0.0
H3684 H 0.55467 0.47753 0.25894 0.0
H3685 H 0.64579 0.53938 0.20602 0.0
H3686 H 0.61978 0.52218 0.18927 0.0
H3687 H 0.62128 0.55068 0.20363 0.0
H3688 H 0.55793 0.50267 0.15433 0.0
H3689 H 0.5585 0.56589 0.19614 0.0
H3690 H 0.57341 0.47013 0.19971 0.0
H3691 H 0.59208 0.48231 0.17901 0.0
H3692 H 0.56193 0.46746 0.1713 0.0
H3693 H 0.57231 0.54559 0.2474 0.0
H3694 H 0.57123 0.57165 0.23369 0.0
H3695 H 0.59748 0.56337 0.23603 0.0
C3696 C 0.26676 0.90614 0.91016 0.0
C3697 C 0.27413 0.89768 0.92937 0.0
C3698 C 0.26826 0.89523 0.88916 0.0
C3699 C 0.27757 0.87563 0.88742 0.0
C3700 C 0.28487 0.86696 0.90675 0.0
C3701 C 0.28286 0.87792 0.92743 0.0
C3702 C 0.25973 0.90456 0.86891 0.0
C3703 C 0.29528 0.84638 0.90561 0.0
C3704 C 0.2672 0.82913 0.838 0.0
C3705 C 0.2883 0.83666 0.82857 0.0
C3706 C 0.26278 0.84266 0.85628 0.0
C3707 C 0.28 0.864 0.86555 0.0
C3708 C 0.30078 0.87244 0.85534 0.0
C3709 C 0.30465 0.8587 0.83689 0.0
C3710 C 0.2401 0.8335 0.86628 0.0
C3711 C 0.31948 0.89526 0.86463 0.0
H3712 H 0.25989 0.92132 0.91153 0.0
H3713 H 0.2888 0.87138 0.94214 0.0
H3714 H 0.27215 0.90641 0.85614 0.0
H3715 H 0.24316 0.89137 0.86166 0.0
H3716 H 0.25679 0.92233 0.8728 0.0
H3717 H 0.30048 0.84209 0.92221 0.0
H3718 H 0.28269 0.82985 0.89679 0.0
H3719 H 0.31074 0.85106 0.89616 0.0
H3720 H 0.25425 0.81238 0.83138 0.0
H3721 H 0.32089 0.86481 0.82954 0.0
H3722 H 0.23242 0.84839 0.86937 0.0
H3723 H 0.24313 0.82686 0.88242 0.0
H3724 H 0.22744 0.81848 0.85553 0.0
H3725 H 0.31209 0.91034 0.86786 0.0
H3726 H 0.33333 0.90087 0.85335 0.0
H3727 H 0.32736 0.89222 0.88062 0.0
C3728 C 0.97807 0.57703 0.75019 0.0
C3729 C 0.9547 0.57028 0.75425 0.0
C3730 C 0.98465 0.57227 0.7292 0.0
C3731 C 0.9674 0.56077 0.71187 0.0
C3732 C 0.94377 0.55614 0.71534 0.0
C3733 C 0.93766 0.56087 0.7366 0.0
C3734 C 1.01006 0.57755 0.72614 0.0
C3735 C 0.92493 0.54442 0.69706 0.0
C3736 C 0.98916 0.55514 0.65556 0.0
C3737 C 0.99201 0.53201 0.65495 0.0
C3738 C 0.98014 0.56445 0.67356 0.0
C3739 C 0.97413 0.55038 0.6914 0.0
C3740 C 0.97624 0.52673 0.69053 0.0
C3741 C 0.98504 0.5178 0.67225 0.0
C3742 C 0.97788 0.58963 0.67385 0.0
C3743 C 0.97002 0.51117 0.7093 0.0
H3744 H 0.99133 0.58462 0.76373 0.0
H3745 H 0.91955 0.55595 0.7396 0.0
H3746 H 0.0143 0.56026 0.72423 0.0
H3747 H 0.01432 0.58663 0.71096 0.0
H3748 H 0.02121 0.58915 0.74039 0.0
H3749 H 0.90795 0.54612 0.70125 0.0
H3750 H 0.92926 0.55258 0.68144 0.0
H3751 H 0.92327 0.52489 0.69412 0.0
H3752 H 0.99472 0.56631 0.64231 0.0
H3753 H 0.98679 0.49975 0.67163 0.0
H3754 H 0.99092 0.60201 0.68638 0.0
H3755 H 0.96059 0.58969 0.67858 0.0
H3756 H 0.9805 0.59692 0.6576 0.0
H3757 H 0.98135 0.52007 0.72446 0.0
H3758 H 0.97188 0.49287 0.70565 0.0
H3759 H 0.95193 0.50911 0.71291 0.0
C3760 C 0.30711 0.26171 0.45446 0.0
C3761 C 0.31553 0.24298 0.46081 0.0
C3762 C 0.30783 0.26818 0.43261 0.0
C3763 C 0.31743 0.25584 0.41668 0.0
C3764 C 0.32687 0.23767 0.4233 0.0
C3765 C 0.32569 0.2314 0.44513 0.0
C3766 C 0.29742 0.28754 0.42634 0.0
C3767 C 0.33751 0.22417 0.40708 0.0
C3768 C 0.29578 0.25083 0.35577 0.0
C3769 C 0.31339 0.26862 0.34732 0.0
C3770 C 0.29682 0.24675 0.37821 0.0
C3771 C 0.31608 0.26058 0.39279 0.0
C3772 C 0.33406 0.27844 0.38437 0.0
C3773 C 0.33245 0.28233 0.36183 0.0
C3774 C 0.27716 0.22763 0.38633 0.0
C3775 C 0.35502 0.29343 0.3992 0.0
H3776 H 0.29913 0.27071 0.46634 0.0
H3777 H 0.33234 0.21696 0.4498 0.0
H3778 H 0.30993 0.30139 0.41805 0.0
H3779 H 0.28198 0.27936 0.41443 0.0
H3780 H 0.29216 0.29665 0.44086 0.0
H3781 H 0.34586 0.21206 0.41518 0.0
H3782 H 0.32396 0.21305 0.39429 0.0
H3783 H 0.35061 0.23712 0.39853 0.0
H3784 H 0.28086 0.24019 0.34488 0.0
H3785 H 0.34615 0.29615 0.35558 0.0
H3786 H 0.26968 0.23583 0.39983 0.0
H3787 H 0.28366 0.21353 0.39318 0.0
H3788 H 0.26318 0.21876 0.37304 0.0
H3789 H 0.34965 0.30359 0.41291 0.0
H3790 H 0.36755 0.30651 0.3902 0.0
H3791 H 0.36388 0.28142 0.40671 0.0
C3792 C 0.3592 0.60036 0.51495 0.0
C3793 C 0.36749 0.60753 0.53712 0.0
C3794 C 0.37189 0.59065 0.5005 0.0
C3795 C 0.39362 0.58887 0.50837 0.0
C3796 C 0.40282 0.59797 0.53033 0.0
C3797 C 0.38934 0.60666 0.54467 0.0
C3798 C 0.36147 0.58096 0.47728 0.0
C3799 C 0.42656 0.59774 0.53883 0.0
C3800 C 0.41681 0.53836 0.48883 0.0
C3801 C 0.43478 0.55039 0.47661 0.0
C3802 C 0.40205 0.55025 0.49776 0.0
C3803 C 0.40558 0.57494 0.49479 0.0
C3804 C 0.42233 0.58664 0.48096 0.0
C3805 C 0.4366 0.57413 0.47183 0.0
C3806 C 0.38396 0.53693 0.512 0.0
C3807 C 0.4266 0.61289 0.47718 0.0
H3808 H 0.34216 0.60101 0.50927 0.0
H3809 H 0.39571 0.6125 0.56181 0.0
H3810 H 0.37415 0.58777 0.46521 0.0
H3811 H 0.35692 0.56092 0.47554 0.0
H3812 H 0.34562 0.58604 0.47302 0.0
H3813 H 0.43131 0.60576 0.55623 0.0
H3814 H 0.42732 0.57889 0.53762 0.0
H3815 H 0.43963 0.608 0.52841 0.0
H3816 H 0.41523 0.52017 0.49292 0.0
H3817 H 0.45004 0.58346 0.46196 0.0
H3818 H 0.36726 0.54038 0.50796 0.0
H3819 H 0.38959 0.54359 0.5296 0.0
H3820 H 0.3811 0.51708 0.50998 0.0
H3821 H 0.41057 0.61822 0.47734 0.0
H3822 H 0.434 0.61675 0.46121 0.0
H3823 H 0.43916 0.62437 0.49057 0.0
C3824 C 0.88185 0.92615 0.5439 0.0
C3825 C 0.86531 0.93205 0.53027 0.0
C3826 C 0.90543 0.93948 0.54473 0.0
C3827 C 0.91252 0.95886 0.53143 0.0
C3828 C 0.89588 0.96484 0.5177 0.0
C3829 C 0.87258 0.95148 0.51737 0.0
C3830 C 0.92276 0.93279 0.55971 0.0
C3831 C 0.90272 0.98512 0.50301 0.0
C3832 C 0.97028 0.00826 0.54213 0.0
C3833 C 0.98322 1.00048 0.5266 0.0
C3834 C 0.94748 0.99438 0.54455 0.0
C3835 C 0.93737 0.97241 0.5309 0.0
C3836 C 0.9504 0.96447 0.51526 0.0
C3837 C 0.97318 0.97853 0.51337 0.0
C3838 C 0.93412 1.00333 0.5615 0.0
C3839 C 0.94011 0.94139 0.50012 0.0
H3840 H 0.87637 0.91126 0.55397 0.0
H3841 H 0.86002 0.95615 0.50664 0.0
H3842 H 0.93511 0.92692 0.54975 0.0
H3843 H 0.93295 0.94883 0.57099 0.0
H3844 H 0.91438 0.918 0.56974 0.0
H3845 H 0.88757 0.98768 0.49354 0.0
H3846 H 0.91218 1.00238 0.51304 0.0
H3847 H 0.91456 0.98127 0.49114 0.0
H3848 H 0.97805 0.02503 0.55261 0.0
H3849 H 0.98308 0.97238 0.50134 0.0
H3850 H 0.92689 0.98897 0.57233 0.0
H3851 H 0.91934 0.00764 0.55311 0.0
H3852 H 0.94501 0.01977 0.57193 0.0
H3853 H 0.93317 0.92594 0.5099 0.0
H3854 H 0.95291 0.93716 0.4896 0.0
H3855 H 0.92544 0.94302 0.48925 0.0
C3856 C 0.87616 0.08308 0.27523 0.0
C3857 C 0.89716 0.09688 0.26825 0.0
C3858 C 0.86058 0.0942 0.28368 0.0
C3859 C 0.8661 0.11969 0.28504 0.0
C3860 C 0.88766 0.1338 0.27886 0.0
C3861 C 0.90301 0.12219 0.27059 0.0
C3862 C 0.83782 0.07862 0.29029 0.0
C3863 C 0.89407 0.16106 0.28006 0.0
C3864 C 0.81714 0.14701 0.27974 0.0
C3865 C 0.81676 0.15626 0.30154 0.0
C3866 C 0.83288 0.13469 0.27425 0.0
C3867 C 0.84852 0.13145 0.29102 0.0
C3868 C 0.84772 0.14002 0.3132 0.0
C3869 C 0.83187 0.15247 0.3182 0.0
C3870 C 0.83334 0.12595 0.25037 0.0
C3871 C 0.86403 0.13666 0.33149 0.0
H3872 H 0.87164 0.0635 0.27364 0.0
H3873 H 0.91925 0.13292 0.26528 0.0
H3874 H 0.83473 0.08526 0.30699 0.0
H3875 H 0.82349 0.07976 0.27867 0.0
H3876 H 0.83713 0.05931 0.29025 0.0
H3877 H 0.91216 0.16946 0.27625 0.0
H3878 H 0.88233 0.16629 0.26812 0.0
H3879 H 0.8919 0.16866 0.29672 0.0
H3880 H 0.80582 0.15036 0.26676 0.0
H3881 H 0.83155 0.15963 0.33506 0.0
H3882 H 0.83128 0.10627 0.24866 0.0
H3883 H 0.85031 0.13533 0.24453 0.0
H3884 H 0.81951 0.12926 0.23947 0.0
H3885 H 0.86312 0.1173 0.33124 0.0
H3886 H 0.86011 0.14293 0.34803 0.0
H3887 H 0.88206 0.14694 0.32894 0.0
C3888 C 0.72671 0.14074 0.04019 0.0
C3889 C 0.7427 0.1279 0.03769 0.0
C3890 C 0.70291 0.12875 0.03719 0.0
C3891 C 0.69505 0.10338 0.03163 0.0
C3892 C 0.7111 0.0904 0.02863 0.0
C3893 C 0.73477 0.10285 0.03166 0.0
C3894 C 0.68619 0.14313 0.0404 0.0
C3895 C 0.70328 0.0633 0.02277 0.0
C3896 C 0.63573 0.07002 0.04744 0.0
C3897 C 0.62222 0.06666 0.0273 0.0
C3898 C 0.65955 0.08168 0.04899 0.0
C3899 C 0.67004 0.09024 0.02995 0.0
C3900 C 0.65662 0.08653 0.00947 0.0
C3901 C 0.63282 0.0747 0.00837 0.0
C3902 C 0.67342 0.08518 0.07108 0.0
C3903 C 0.66732 0.09546 0.98886 0.0
H3904 H 0.73279 0.16012 0.04476 0.0
H3905 H 0.74708 0.09284 0.02966 0.0
H3906 H 0.67376 0.13987 0.02556 0.0
H3907 H 0.67602 0.13709 0.0545 0.0
H3908 H 0.69511 0.16289 0.04365 0.0
H3909 H 0.71798 0.0561 0.02009 0.0
H3910 H 0.6938 0.0542 0.03621 0.0
H3911 H 0.69116 0.05842 0.0076 0.0
H3912 H 0.62767 0.06376 0.06212 0.0
H3913 H 0.62247 0.07221 0.99275 0.0
H3914 H 0.68134 0.10479 0.07627 0.0
H3915 H 0.68774 0.07713 0.06974 0.0
H3916 H 0.66271 0.07685 0.08415 0.0
H3917 H 0.6749 0.11545 0.99118 0.0
H3918 H 0.65457 0.09054 0.97411 0.0
H3919 H 0.6816 0.0878 0.98564 0.0
C3920 C 0.19982 0.48127 0.29623 0.0
C3921 C 0.20193 0.48164 0.27352 0.0
C3922 C 0.21322 0.47075 0.30936 0.0
C3923 C 0.22814 0.45946 0.29923 0.0
C3924 C 0.23012 0.4597 0.27623 0.0
C3925 C 0.2173 0.47121 0.26375 0.0
C3926 C 0.21115 0.47157 0.3339 0.0
C3927 C 0.24546 0.44739 0.26464 0.0
C3928 C 0.27921 0.44297 0.32253 0.0
C3929 C 0.26983 0.41771 0.32096 0.0
C3930 C 0.26501 0.45751 0.31841 0.0
C3931 C 0.2412 0.44636 0.31201 0.0
C3932 C 0.23129 0.42126 0.31325 0.0
C3933 C 0.24574 0.40727 0.31811 0.0
C3934 C 0.27591 0.48447 0.31852 0.0
C3935 C 0.20594 0.40865 0.30673 0.0
H3936 H 0.18803 0.48959 0.30377 0.0
H3937 H 0.2188 0.47145 0.24616 0.0
H3938 H 0.19888 0.45432 0.33771 0.0
H3939 H 0.22804 0.47386 0.34323 0.0
H3940 H 0.20447 0.48653 0.33983 0.0
H3941 H 0.24425 0.44846 0.24653 0.0
H3942 H 0.26374 0.4559 0.27126 0.0
H3943 H 0.24061 0.42802 0.2677 0.0
H3944 H 0.29778 0.45125 0.32509 0.0
H3945 H 0.23835 0.3878 0.31778 0.0
H3946 H 0.26439 0.49444 0.32511 0.0
H3947 H 0.27872 0.48898 0.30137 0.0
H3948 H 0.29289 0.49087 0.32852 0.0
H3949 H 0.19516 0.41882 0.31439 0.0
H3950 H 0.20043 0.38987 0.31154 0.0
H3951 H 0.20253 0.40784 0.28855 0.0
C3952 C 0.21808 0.38739 0.04015 0.0
C3953 C 0.24084 0.39908 0.04914 0.0
C3954 C 0.20153 0.39993 0.03954 0.0
C3955 C 0.20798 0.42457 0.04822 0.0
C3956 C 0.23067 0.43603 0.05812 0.0
C3957 C 0.24677 0.42318 0.05843 0.0
C3958 C 0.17746 0.38712 0.02892 0.0
C3959 C 0.23825 0.46222 0.06772 0.0
C3960 C 0.18032 0.46994 0.02731 0.0
C3961 C 0.16768 0.47374 0.04491 0.0
C3962 C 0.19233 0.45279 0.02753 0.0
C3963 C 0.19176 0.43915 0.04585 0.0
C3964 C 0.17803 0.44197 0.06313 0.0
C3965 C 0.16614 0.45926 0.06245 0.0
C3966 C 0.20667 0.45023 0.00871 0.0
C3967 C 0.17699 0.4278 0.08294 0.0
H3968 H 0.21341 0.36876 0.03297 0.0
H3969 H 0.26427 0.43224 0.06563 0.0
H3970 H 0.16438 0.38964 0.03996 0.0
H3971 H 0.17459 0.39511 0.01347 0.0
H3972 H 0.17453 0.36742 0.0249 0.0
H3973 H 0.25614 0.46802 0.07591 0.0
H3974 H 0.23751 0.47403 0.05443 0.0
H3975 H 0.2264 0.46518 0.07995 0.0
H3976 H 0.18117 0.48075 0.01351 0.0
H3977 H 0.15646 0.46217 0.07616 0.0
H3978 H 0.20308 0.43088 0.00267 0.0
H3979 H 0.2253 0.45742 0.0146 0.0
H3980 H 0.20331 0.46018 0.99468 0.0
H3981 H 0.17398 0.40834 0.0777 0.0
H3982 H 0.16315 0.4296 0.09336 0.0
H3983 H 0.19379 0.43447 0.09317 0.0
C3984 C 0.89021 0.96893 0.22495 0.0
C3985 C 0.9143 0.9749 0.2282 0.0
C3986 C 0.87603 0.94653 0.23 0.0
C3987 C 0.88627 0.93024 0.23936 0.0
C3988 C 0.91067 0.93608 0.24233 0.0
C3989 C 0.92446 0.95827 0.23632 0.0
C3990 C 0.85012 0.94057 0.22581 0.0
C3991 C 0.92218 0.91943 0.25282 0.0
C3992 C 0.84917 0.88616 0.27493 0.0
C3993 C 0.8436 0.86451 0.26119 0.0
C3994 C 0.86343 0.90769 0.26815 0.0
C3995 C 0.87142 0.90754 0.24683 0.0
C3996 C 0.86514 0.88575 0.23266 0.0
C3997 C 0.85165 0.86436 0.24021 0.0
C3998 C 0.8703 0.93047 0.28393 0.0
C3999 C 0.87254 0.88506 0.20953 0.0
H4000 H 0.88247 0.98194 0.21863 0.0
H4001 H 0.94313 0.96318 0.23908 0.0
H4002 H 0.84272 0.92245 0.21645 0.0
H4003 H 0.84224 0.9399 0.24173 0.0
H4004 H 0.84508 0.95412 0.21643 0.0
H4005 H 0.94133 0.92644 0.25357 0.0
H4006 H 0.91704 0.91717 0.26984 0.0
H4007 H 0.91638 0.90122 0.24348 0.0
H4008 H 0.84301 0.88606 0.29122 0.0
H4009 H 0.84707 0.8475 0.22957 0.0
H4010 H 0.86391 0.94452 0.27684 0.0
H4011 H 0.88943 0.93782 0.28651 0.0
H4012 H 0.86337 0.92728 0.30021 0.0
H4013 H 0.86698 0.89838 0.2003 0.0
H4014 H 0.86521 0.86685 0.20027 0.0
H4015 H 0.89166 0.89024 0.21009 0.0
C4016 C 0.72104 0.09344 0.73647 0.0
C4017 C 0.70219 0.08707 0.72034 0.0
C4018 C 0.73484 0.11755 0.74138 0.0
C4019 C 0.72993 0.13573 0.72962 0.0
C4020 C 0.71169 0.12932 0.71254 0.0
C4021 C 0.6979 0.10506 0.70819 0.0
C4022 C 0.75404 0.12367 0.75983 0.0
C4023 C 0.70629 0.1482 0.69935 0.0
C4024 C 0.74919 0.1993 0.75909 0.0
C4025 C 0.77034 0.20941 0.75047 0.0
C4026 C 0.73567 0.17541 0.75218 0.0
C4027 C 0.74332 0.16152 0.73598 0.0
C4028 C 0.76437 0.17188 0.72679 0.0
C4029 C 0.77773 0.19563 0.7343 0.0
C4030 C 0.71348 0.16484 0.76261 0.0
C4031 C 0.77289 0.15777 0.70924 0.0
H4032 H 0.72452 0.07973 0.746 0.0
H4033 H 0.68345 0.10029 0.69564 0.0
H4034 H 0.77067 0.13376 0.75381 0.0
H4035 H 0.75036 0.1356 0.77326 0.0
H4036 H 0.75613 0.1073 0.76683 0.0
H4037 H 0.69291 0.14002 0.6854 0.0
H4038 H 0.70001 0.16062 0.71022 0.0
H4039 H 0.72215 0.15931 0.69273 0.0
H4040 H 0.74343 0.20989 0.7716 0.0
H4041 H 0.79394 0.20348 0.72736 0.0
H4042 H 0.7146 0.1491 0.77131 0.0
H4043 H 0.69877 0.15815 0.7497 0.0
H4044 H 0.7097 0.17821 0.77461 0.0
H4045 H 0.77662 0.14207 0.7161 0.0
H4046 H 0.78882 0.16899 0.70273 0.0
H4047 H 0.75932 0.15049 0.69531 0.0
loop_
_geom_bond_atom_site_label_1
_geom_bond_atom_site_label_2
_geom_bond_distance
_geom_bond_site_symmetry_2
_ccdc_geom_bond_type
C0 O1 1.306 1_655 S
C0 O3 1.160 1_655 S
O1 C0 1.306 1_455 S
O1 Cd2 2.228 . S
Cd2 O1 2.228 . S
Cd2 O6 2.273 . S
Cd2 O10 2.277 . S
O3 C0 1.160 1_455 S
O3 Cd4 2.203 . S
Cd4 O3 2.203 . S
Cd4 O6 2.411 . S
Cd4 O7 2.333 . S
Cd4 O8 2.352 . S
Cd4 O12 2.277 . S
Cd4 O13 2.356 . S
C5 O10 1.209 . S
C5 O12 1.226 . S
O6 Cd2 2.273 . S
O6 Cd4 2.411 . S
O6 C9 1.320 . S
O7 Cd4 2.333 . S
O7 C9 1.214 . S
O8 Cd4 2.352 . S
O8 C11 1.258 . S
C9 O6 1.320 . S
C9 O7 1.214 . S
O10 Cd2 2.277 . S
O10 C5 1.209 . S
C11 O8 1.258 . S
C11 O13 1.282 . S
O12 Cd4 2.277 . S
O12 C5 1.226 . S
O13 Cd4 2.356 . S
O13 C11 1.282 . S
C14 O15 1.306 . S
C14 O17 1.160 . S
O15 C14 1.306 . S
O15 Cd16 2.228 . S
Cd16 O15 2.228 . S
Cd16 O20 2.273 . S
Cd16 O24 2.277 . S
O17 C14 1.160 . S
O17 Cd18 2.203 . S
Cd18 O17 2.203 . S
Cd18 O20 2.411 . S
Cd18 O21 2.333 . S
Cd18 O22 2.352 . S
Cd18 O26 2.277 . S
Cd18 O27 2.356 . S
C19 O24 1.209 . S
C19 O26 1.226 . S
O20 Cd16 2.273 . S
O20 Cd18 2.411 . S
O20 C23 1.320 . S
O21 Cd18 2.333 . S
O21 C23 1.214 . S
O22 Cd18 2.352 . S
O22 C25 1.258 . S
C23 O20 1.320 . S
C23 O21 1.214 . S
O24 Cd16 2.277 . S
O24 C19 1.209 . S
C25 O22 1.258 . S
C25 O27 1.282 . S
O26 Cd18 2.277 . S
O26 C19 1.226 . S
O27 Cd18 2.356 . S
O27 C25 1.282 . S
C28 O29 1.306 . S
C28 O31 1.160 . S
O29 C28 1.306 . S
O29 Cd30 2.228 . S
Cd30 O29 2.228 . S
Cd30 O34 2.273 . S
Cd30 O38 2.277 . S
O31 C28 1.160 . S
O31 Cd32 2.203 . S
Cd32 O31 2.203 . S
Cd32 O34 2.411 . S
Cd32 O35 2.333 . S
Cd32 O36 2.352 . S
Cd32 O40 2.277 . S
Cd32 O41 2.356 . S
C33 O38 1.209 . S
C33 O40 1.226 . S
O34 Cd30 2.273 . S
O34 Cd32 2.411 . S
O34 C37 1.320 . S
O35 Cd32 2.333 . S
O35 C37 1.214 . S
O36 Cd32 2.352 . S
O36 C39 1.258 . S
C37 O34 1.320 . S
C37 O35 1.214 . S
O38 Cd30 2.277 . S
O38 C33 1.209 . S
C39 O36 1.258 . S
C39 O41 1.282 . S
O40 Cd32 2.277 . S
O40 C33 1.226 . S
O41 Cd32 2.356 . S
O41 C39 1.282 . S
C42 O43 1.306 . S
C42 O45 1.160 . S
O43 C42 1.306 . S
O43 Cd44 2.228 . S
Cd44 O43 2.228 . S
Cd44 O48 2.273 . S
Cd44 O52 2.277 . S
O45 C42 1.160 . S
O45 Cd46 2.203 . S
Cd46 O45 2.203 . S
Cd46 O48 2.411 . S
Cd46 O49 2.333 . S
Cd46 O50 2.352 . S
Cd46 O54 2.277 . S
Cd46 O55 2.356 . S
C47 O52 1.209 . S
C47 O54 1.226 . S
O48 Cd44 2.273 . S
O48 Cd46 2.411 . S
O48 C51 1.320 . S
O49 Cd46 2.333 . S
O49 C51 1.214 . S
O50 Cd46 2.352 . S
O50 C53 1.258 . S
C51 O48 1.320 . S
C51 O49 1.214 . S
O52 Cd44 2.277 . S
O52 C47 1.209 . S
C53 O50 1.258 . S
C53 O55 1.282 . S
O54 Cd46 2.277 . S
O54 C47 1.226 . S
O55 Cd46 2.356 . S
O55 C53 1.282 . S
C56 O57 1.306 . S
C56 O59 1.160 . S
O57 C56 1.306 . S
O57 Cd58 2.228 . S
Cd58 O57 2.228 . S
Cd58 O62 2.273 . S
Cd58 O66 2.277 . S
O59 C56 1.160 . S
O59 Cd60 2.203 . S
Cd60 O59 2.203 . S
Cd60 O62 2.411 . S
Cd60 O63 2.333 . S
Cd60 O64 2.352 . S
Cd60 O68 2.277 . S
Cd60 O69 2.356 . S
C61 O66 1.209 . S
C61 O68 1.226 . S
O62 Cd58 2.273 . S
O62 Cd60 2.411 . S
O62 C65 1.320 . S
O63 Cd60 2.333 . S
O63 C65 1.214 . S
O64 Cd60 2.352 . S
O64 C67 1.258 . S
C65 O62 1.320 . S
C65 O63 1.214 . S
O66 Cd58 2.277 . S
O66 C61 1.209 . S
C67 O64 1.258 . S
C67 O69 1.282 . S
O68 Cd60 2.277 . S
O68 C61 1.226 . S
O69 Cd60 2.356 . S
O69 C67 1.282 . S
C70 O71 1.306 . S
C70 O73 1.160 . S
O71 C70 1.306 . S
O71 Cd72 2.228 . S
Cd72 O71 2.228 . S
Cd72 O76 2.273 . S
Cd72 O80 2.277 . S
O73 C70 1.160 . S
O73 Cd74 2.203 . S
Cd74 O73 2.203 . S
Cd74 O76 2.411 . S
Cd74 O77 2.333 . S
Cd74 O78 2.352 . S
Cd74 O82 2.277 . S
Cd74 O83 2.356 . S
C75 O80 1.209 . S
C75 O82 1.226 . S
O76 Cd72 2.273 . S
O76 Cd74 2.411 . S
O76 C79 1.320 . S
O77 Cd74 2.333 . S
O77 C79 1.214 . S
O78 Cd74 2.352 . S
O78 C81 1.258 . S
C79 O76 1.320 . S
C79 O77 1.214 . S
O80 Cd72 2.277 . S
O80 C75 1.209 . S
C81 O78 1.258 . S
C81 O83 1.282 . S
O82 Cd74 2.277 . S
O82 C75 1.226 . S
O83 Cd74 2.356 . S
O83 C81 1.282 . S
C84 O85 1.306 . S
C84 O87 1.160 . S
O85 C84 1.306 . S
O85 Cd86 2.228 . S
Cd86 O85 2.228 . S
Cd86 O90 2.273 . S
Cd86 O94 2.277 . S
O87 C84 1.160 . S
O87 Cd88 2.203 . S
Cd88 O87 2.203 . S
Cd88 O90 2.411 . S
Cd88 O91 2.333 . S
Cd88 O92 2.352 . S
Cd88 O96 2.277 . S
Cd88 O97 2.356 . S
C89 O94 1.209 . S
C89 O96 1.226 . S
O90 Cd86 2.273 . S
O90 Cd88 2.411 . S
O90 C93 1.320 . S
O91 Cd88 2.333 . S
O91 C93 1.214 . S
O92 Cd88 2.352 . S
O92 C95 1.258 . S
C93 O90 1.320 . S
C93 O91 1.214 . S
O94 Cd86 2.277 . S
O94 C89 1.209 . S
C95 O92 1.258 . S
C95 O97 1.282 . S
O96 Cd88 2.277 . S
O96 C89 1.226 . S
O97 Cd88 2.356 . S
O97 C95 1.282 . S
C98 O99 1.306 . S
C98 O101 1.160 . S
O99 C98 1.306 . S
O99 Cd100 2.228 1_655 S
Cd100 O99 2.228 1_455 S
Cd100 O104 2.273 . S
Cd100 O108 2.277 . S
O101 C98 1.160 . S
O101 Cd102 2.203 1_655 S
Cd102 O101 2.203 1_455 S
Cd102 O104 2.411 . S
Cd102 O105 2.333 . S
Cd102 O106 2.352 1_455 S
Cd102 O110 2.277 . S
Cd102 O111 2.356 . S
C103 O108 1.209 . S
C103 O110 1.226 . S
O104 Cd100 2.273 . S
O104 Cd102 2.411 . S
O104 C107 1.320 . S
O105 Cd102 2.333 . S
O105 C107 1.214 . S
O106 Cd102 2.352 1_655 S
O106 C109 1.258 . S
C107 O104 1.320 . S
C107 O105 1.214 . S
O108 Cd100 2.277 . S
O108 C103 1.209 . S
C109 O106 1.258 . S
C109 O111 1.282 1_655 S
O110 Cd102 2.277 . S
O110 C103 1.226 . S
O111 Cd102 2.356 . S
O111 C109 1.282 1_455 S
C112 O113 1.306 . S
C112 O115 1.160 . S
O113 C112 1.306 . S
O113 Cd114 2.228 . S
Cd114 O113 2.228 . S
Cd114 O118 2.273 . S
Cd114 O122 2.277 1_545 S
O115 C112 1.160 . S
O115 Cd116 2.203 . S
Cd116 O115 2.203 . S
Cd116 O118 2.411 . S
Cd116 O119 2.333 . S
Cd116 O120 2.352 . S
Cd116 O124 2.277 1_545 S
Cd116 O125 2.356 . S
C117 O122 1.209 . S
C117 O124 1.226 . S
O118 Cd114 2.273 . S
O118 Cd116 2.411 . S
O118 C121 1.320 . S
O119 Cd116 2.333 . S
O119 C121 1.214 . S
O120 Cd116 2.352 . S
O120 C123 1.258 . S
C121 O118 1.320 . S
C121 O119 1.214 . S
O122 Cd114 2.277 1_565 S
O122 C117 1.209 . S
C123 O120 1.258 . S
C123 O125 1.282 . S
O124 Cd116 2.277 1_565 S
O124 C117 1.226 . S
O125 Cd116 2.356 . S
O125 C123 1.282 . S
C126 O127 1.306 . S
C126 O129 1.160 . S
O127 C126 1.306 . S
O127 Cd128 2.228 . S
Cd128 O127 2.228 . S
Cd128 O132 2.273 . S
Cd128 O136 2.277 . S
O129 C126 1.160 . S
O129 Cd130 2.203 . S
Cd130 O129 2.203 . S
Cd130 O132 2.411 . S
Cd130 O133 2.333 . S
Cd130 O134 2.352 . S
Cd130 O138 2.277 . S
Cd130 O139 2.356 . S
C131 O136 1.209 . S
C131 O138 1.226 . S
O132 Cd128 2.273 . S
O132 Cd130 2.411 . S
O132 C135 1.320 . S
O133 Cd130 2.333 . S
O133 C135 1.214 . S
O134 Cd130 2.352 . S
O134 C137 1.258 . S
C135 O132 1.320 . S
C135 O133 1.214 . S
O136 Cd128 2.277 . S
O136 C131 1.209 . S
C137 O134 1.258 . S
C137 O139 1.282 . S
O138 Cd130 2.277 . S
O138 C131 1.226 . S
O139 Cd130 2.356 . S
O139 C137 1.282 . S
C140 O141 1.306 . S
C140 O143 1.160 . S
O141 C140 1.306 . S
O141 Cd142 2.228 . S
Cd142 O141 2.228 . S
Cd142 O146 2.273 . S
Cd142 O150 2.277 . S
O143 C140 1.160 . S
O143 Cd144 2.203 . S
Cd144 O143 2.203 . S
Cd144 O146 2.411 . S
Cd144 O147 2.333 . S
Cd144 O148 2.352 . S
Cd144 O152 2.277 . S
Cd144 O153 2.356 . S
C145 O150 1.209 . S
C145 O152 1.226 . S
O146 Cd142 2.273 . S
O146 Cd144 2.411 . S
O146 C149 1.320 . S
O147 Cd144 2.333 . S
O147 C149 1.214 . S
O148 Cd144 2.352 . S
O148 C151 1.258 . S
C149 O146 1.320 . S
C149 O147 1.214 . S
O150 Cd142 2.277 . S
O150 C145 1.209 . S
C151 O148 1.258 . S
C151 O153 1.282 . S
O152 Cd144 2.277 . S
O152 C145 1.226 . S
O153 Cd144 2.356 . S
O153 C151 1.282 . S
C154 O155 1.313 . S
C154 O157 1.154 1_556 S
O155 C154 1.313 . S
O155 Cd156 2.228 . S
Cd156 O155 2.228 . S
Cd156 O160 2.283 . S
Cd156 O164 2.277 . S
O157 C154 1.154 1_554 S
O157 Cd158 2.203 . S
Cd158 O157 2.203 . S
Cd158 O160 2.409 1_554 S
Cd158 O161 2.333 . S
Cd158 O162 2.352 . S
Cd158 O166 2.277 1_554 S
Cd158 O167 2.356 . S
C159 O164 1.209 . S
C159 O166 1.226 . S
O160 Cd156 2.283 . S
O160 Cd158 2.409 1_556 S
O160 C163 1.319 1_556 S
O161 Cd158 2.333 . S
O161 C163 1.213 . S
O162 Cd158 2.352 . S
O162 C165 1.258 . S
C163 O160 1.319 1_554 S
C163 O161 1.213 . S
O164 Cd156 2.277 . S
O164 C159 1.209 . S
C165 O162 1.258 . S
C165 O167 1.282 . S
O166 Cd158 2.277 1_556 S
O166 C159 1.226 . S
O167 Cd158 2.356 . S
O167 C165 1.282 . S
C168 O169 1.306 . S
C168 O171 1.160 . S
O169 C168 1.306 . S
O169 Cd170 2.228 . S
Cd170 O169 2.228 . S
Cd170 O174 2.273 . S
Cd170 O178 2.277 1_554 S
O171 C168 1.160 . S
O171 Cd172 2.203 . S
Cd172 O171 2.203 . S
Cd172 O174 2.411 . S
Cd172 O175 2.333 . S
Cd172 O176 2.352 . S
Cd172 O180 2.277 . S
Cd172 O181 2.356 . S
C173 O178 1.209 . S
C173 O180 1.226 1_556 S
O174 Cd170 2.273 . S
O174 Cd172 2.411 . S
O174 C177 1.320 . S
O175 Cd172 2.333 . S
O175 C177 1.214 . S
O176 Cd172 2.352 . S
O176 C179 1.258 . S
C177 O174 1.320 . S
C177 O175 1.214 . S
O178 Cd170 2.277 1_556 S
O178 C173 1.209 . S
C179 O176 1.258 . S
C179 O181 1.282 . S
O180 Cd172 2.277 . S
O180 C173 1.226 1_554 S
O181 Cd172 2.356 . S
O181 C179 1.282 . S
C182 O183 1.306 . S
C182 O185 1.160 . S
O183 C182 1.306 . S
O183 Cd184 2.228 . S
Cd184 O183 2.228 . S
Cd184 O188 2.273 . S
Cd184 O192 2.277 . S
O185 C182 1.160 . S
O185 Cd186 2.203 . S
Cd186 O185 2.203 . S
Cd186 O188 2.411 . S
Cd186 O189 2.333 . S
Cd186 O190 2.352 . S
Cd186 O194 2.277 . S
Cd186 O195 2.356 . S
C187 O192 1.209 . S
C187 O194 1.226 . S
O188 Cd184 2.273 . S
O188 Cd186 2.411 . S
O188 C191 1.320 . S
O189 Cd186 2.333 . S
O189 C191 1.214 . S
O190 Cd186 2.352 . S
O190 C193 1.258 . S
C191 O188 1.320 . S
C191 O189 1.214 . S
O192 Cd184 2.277 . S
O192 C187 1.209 . S
C193 O190 1.258 . S
C193 O195 1.282 . S
O194 Cd186 2.277 . S
O194 C187 1.226 . S
O195 Cd186 2.356 . S
O195 C193 1.282 . S
C196 O197 1.306 . S
C196 O199 1.160 . S
O197 C196 1.306 . S
O197 Cd198 2.228 . S
Cd198 O197 2.228 . S
Cd198 O202 2.273 . S
Cd198 O206 2.277 . S
O199 C196 1.160 . S
O199 Cd200 2.203 . S
Cd200 O199 2.203 . S
Cd200 O202 2.411 . S
Cd200 O203 2.333 . S
Cd200 O204 2.352 . S
Cd200 O208 2.277 . S
Cd200 O209 2.356 . S
C201 O206 1.209 . S
C201 O208 1.226 . S
O202 Cd198 2.273 . S
O202 Cd200 2.411 . S
O202 C205 1.320 . S
O203 Cd200 2.333 . S
O203 C205 1.214 . S
O204 Cd200 2.352 . S
O204 C207 1.258 . S
C205 O202 1.320 . S
C205 O203 1.214 . S
O206 Cd198 2.277 . S
O206 C201 1.209 . S
C207 O204 1.258 . S
C207 O209 1.282 . S
O208 Cd200 2.277 . S
O208 C201 1.226 . S
O209 Cd200 2.356 . S
O209 C207 1.282 . S
C210 O211 1.306 . S
C210 O213 1.160 . S
O211 C210 1.306 . S
O211 Cd212 2.228 . S
Cd212 O211 2.228 . S
Cd212 O216 2.273 . S
Cd212 O220 2.277 . S
O213 C210 1.160 . S
O213 Cd214 2.203 . S
Cd214 O213 2.203 . S
Cd214 O216 2.411 . S
Cd214 O217 2.333 . S
Cd214 O218 2.352 . S
Cd214 O222 2.277 . S
Cd214 O223 2.356 . S
C215 O220 1.209 . S
C215 O222 1.226 . S
O216 Cd212 2.273 . S
O216 Cd214 2.411 . S
O216 C219 1.320 . S
O217 Cd214 2.333 . S
O217 C219 1.214 . S
O218 Cd214 2.352 . S
O218 C221 1.258 . S
C219 O216 1.320 . S
C219 O217 1.214 . S
O220 Cd212 2.277 . S
O220 C215 1.209 . S
C221 O218 1.258 . S
C221 O223 1.282 . S
O222 Cd214 2.277 . S
O222 C215 1.226 . S
O223 Cd214 2.356 . S
O223 C221 1.282 . S
C224 O225 1.306 . S
C224 O227 1.160 . S
O225 C224 1.306 . S
O225 Cd226 2.228 1_545 S
Cd226 O225 2.228 1_565 S
Cd226 O230 2.273 1_565 S
Cd226 O234 2.277 . S
O227 C224 1.160 . S
O227 Cd228 2.203 . S
Cd228 O227 2.203 . S
Cd228 O230 2.411 . S
Cd228 O231 2.333 . S
Cd228 O232 2.352 . S
Cd228 O236 2.277 1_545 S
Cd228 O237 2.356 . S
C229 O234 1.209 . S
C229 O236 1.226 . S
O230 Cd226 2.273 1_545 S
O230 Cd228 2.411 . S
O230 C233 1.320 . S
O231 Cd228 2.333 . S
O231 C233 1.214 . S
O232 Cd228 2.352 . S
O232 C235 1.258 . S
C233 O230 1.320 . S
C233 O231 1.214 . S
O234 Cd226 2.277 . S
O234 C229 1.209 . S
C235 O232 1.258 . S
C235 O237 1.282 . S
O236 Cd228 2.277 1_565 S
O236 C229 1.226 . S
O237 Cd228 2.356 . S
O237 C235 1.282 . S
C238 O239 1.306 . S
C238 O241 1.160 . S
O239 C238 1.306 . S
O239 Cd240 2.228 . S
Cd240 O239 2.228 . S
Cd240 O244 2.273 . S
Cd240 O248 2.277 . S
O241 C238 1.160 . S
O241 Cd242 2.203 . S
Cd242 O241 2.203 . S
Cd242 O244 2.411 . S
Cd242 O245 2.333 . S
Cd242 O246 2.352 . S
Cd242 O250 2.277 . S
Cd242 O251 2.356 . S
C243 O248 1.209 . S
C243 O250 1.226 . S
O244 Cd240 2.273 . S
O244 Cd242 2.411 . S
O244 C247 1.320 . S
O245 Cd242 2.333 . S
O245 C247 1.214 . S
O246 Cd242 2.352 . S
O246 C249 1.258 . S
C247 O244 1.320 . S
C247 O245 1.214 . S
O248 Cd240 2.277 . S
O248 C243 1.209 . S
C249 O246 1.258 . S
C249 O251 1.282 . S
O250 Cd242 2.277 . S
O250 C243 1.226 . S
O251 Cd242 2.356 . S
O251 C249 1.282 . S
C252 O253 1.306 . S
C252 O255 1.160 . S
O253 C252 1.306 . S
O253 Cd254 2.228 . S
Cd254 O253 2.228 . S
Cd254 O258 2.273 . S
Cd254 O262 2.277 . S
O255 C252 1.160 . S
O255 Cd256 2.203 . S
Cd256 O255 2.203 . S
Cd256 O258 2.411 . S
Cd256 O259 2.333 . S
Cd256 O260 2.352 . S
Cd256 O264 2.277 . S
Cd256 O265 2.356 . S
C257 O262 1.209 . S
C257 O264 1.226 . S
O258 Cd254 2.273 . S
O258 Cd256 2.411 . S
O258 C261 1.320 . S
O259 Cd256 2.333 . S
O259 C261 1.214 . S
O260 Cd256 2.352 . S
O260 C263 1.258 . S
C261 O258 1.320 . S
C261 O259 1.214 . S
O262 Cd254 2.277 . S
O262 C257 1.209 . S
C263 O260 1.258 . S
C263 O265 1.282 . S
O264 Cd256 2.277 . S
O264 C257 1.226 . S
O265 Cd256 2.356 . S
O265 C263 1.282 . S
C266 O267 1.306 . S
C266 O269 1.160 . S
O267 C266 1.306 . S
O267 Cd268 2.228 . S
Cd268 O267 2.228 . S
Cd268 O272 2.273 . S
Cd268 O276 2.277 . S
O269 C266 1.160 . S
O269 Cd270 2.203 . S
Cd270 O269 2.203 . S
Cd270 O272 2.411 . S
Cd270 O273 2.333 . S
Cd270 O274 2.352 1_545 S
Cd270 O278 2.277 . S
Cd270 O279 2.356 . S
C271 O276 1.209 . S
C271 O278 1.226 . S
O272 Cd268 2.273 . S
O272 Cd270 2.411 . S
O272 C275 1.320 . S
O273 Cd270 2.333 . S
O273 C275 1.214 . S
O274 Cd270 2.352 1_565 S
O274 C277 1.258 . S
C275 O272 1.320 . S
C275 O273 1.214 . S
O276 Cd268 2.277 . S
O276 C271 1.209 . S
C277 O274 1.258 . S
C277 O279 1.282 1_565 S
O278 Cd270 2.277 . S
O278 C271 1.226 . S
O279 Cd270 2.356 . S
O279 C277 1.282 1_545 S
C280 O281 1.306 . S
C280 O283 1.160 . S
O281 C280 1.306 . S
O281 Cd282 2.228 . S
Cd282 O281 2.228 . S
Cd282 O286 2.273 . S
Cd282 O290 2.277 . S
O283 C280 1.160 . S
O283 Cd284 2.203 . S
Cd284 O283 2.203 . S
Cd284 O286 2.411 . S
Cd284 O287 2.333 . S
Cd284 O288 2.352 1_554 S
Cd284 O292 2.277 . S
Cd284 O293 2.356 . S
C285 O290 1.209 . S
C285 O292 1.226 . S
O286 Cd282 2.273 . S
O286 Cd284 2.411 . S
O286 C289 1.320 . S
O287 Cd284 2.333 . S
O287 C289 1.214 . S
O288 Cd284 2.352 1_556 S
O288 C291 1.258 . S
C289 O286 1.320 . S
C289 O287 1.214 . S
O290 Cd282 2.277 . S
O290 C285 1.209 . S
C291 O288 1.258 . S
C291 O293 1.282 1_556 S
O292 Cd284 2.277 . S
O292 C285 1.226 . S
O293 Cd284 2.356 . S
O293 C291 1.282 1_554 S
C294 O295 1.306 . S
C294 O297 1.160 . S
O295 C294 1.306 . S
O295 Cd296 2.228 . S
Cd296 O295 2.228 . S
Cd296 O300 2.273 . S
Cd296 O304 2.277 . S
O297 C294 1.160 . S
O297 Cd298 2.203 . S
Cd298 O297 2.203 . S
Cd298 O300 2.411 . S
Cd298 O301 2.333 . S
Cd298 O302 2.352 . S
Cd298 O306 2.277 . S
Cd298 O307 2.356 . S
C299 O304 1.209 . S
C299 O306 1.226 . S
O300 Cd296 2.273 . S
O300 Cd298 2.411 . S
O300 C303 1.320 . S
O301 Cd298 2.333 . S
O301 C303 1.214 . S
O302 Cd298 2.352 . S
O302 C305 1.258 . S
C303 O300 1.320 . S
C303 O301 1.214 . S
O304 Cd296 2.277 . S
O304 C299 1.209 . S
C305 O302 1.258 . S
C305 O307 1.282 . S
O306 Cd298 2.277 . S
O306 C299 1.226 . S
O307 Cd298 2.356 . S
O307 C305 1.282 . S
C308 O309 1.306 . S
C308 O311 1.160 . S
O309 C308 1.306 . S
O309 Cd310 2.228 . S
Cd310 O309 2.228 . S
Cd310 O314 2.273 . S
Cd310 O318 2.277 . S
O311 C308 1.160 . S
O311 Cd312 2.203 . S
Cd312 O311 2.203 . S
Cd312 O314 2.411 . S
Cd312 O315 2.333 . S
Cd312 O316 2.352 . S
Cd312 O320 2.277 . S
Cd312 O321 2.356 . S
C313 O318 1.209 . S
C313 O320 1.226 . S
O314 Cd310 2.273 . S
O314 Cd312 2.411 . S
O314 C317 1.320 . S
O315 Cd312 2.333 . S
O315 C317 1.214 . S
O316 Cd312 2.352 . S
O316 C319 1.258 . S
C317 O314 1.320 . S
C317 O315 1.214 . S
O318 Cd310 2.277 . S
O318 C313 1.209 . S
C319 O316 1.258 . S
C319 O321 1.282 . S
O320 Cd312 2.277 . S
O320 C313 1.226 . S
O321 Cd312 2.356 . S
O321 C319 1.282 . S
C322 O323 1.306 . S
C322 O325 1.160 . S
O323 C322 1.306 . S
O323 Cd324 2.228 . S
Cd324 O323 2.228 . S
Cd324 O328 2.273 . S
Cd324 O332 2.277 . S
O325 C322 1.160 . S
O325 Cd326 2.203 . S
Cd326 O325 2.203 . S
Cd326 O328 2.411 . S
Cd326 O329 2.333 . S
Cd326 O330 2.352 . S
Cd326 O334 2.277 . S
Cd326 O335 2.356 . S
C327 O332 1.209 . S
C327 O334 1.226 . S
O328 Cd324 2.273 . S
O328 Cd326 2.411 . S
O328 C331 1.320 . S
O329 Cd326 2.333 . S
O329 C331 1.214 . S
O330 Cd326 2.352 . S
O330 C333 1.258 . S
C331 O328 1.320 . S
C331 O329 1.214 . S
O332 Cd324 2.277 . S
O332 C327 1.209 . S
C333 O330 1.258 . S
C333 O335 1.282 . S
O334 Cd326 2.277 . S
O334 C327 1.226 . S
O335 Cd326 2.356 . S
O335 C333 1.282 . S
Tb336 C345 2.764 . S
Tb336 O346 2.325 . S
Tb336 O349 2.303 . S
Tb336 O353 2.322 . S
Tb336 O354 2.349 . S
Tb336 O357 2.415 . S
Tb336 O358 2.399 . S
Tb337 O347 2.322 1_545 S
Tb337 O348 2.349 1_554 S
Tb337 O350 2.415 1_455 S
Tb337 O351 2.399 1_454 S
Tb337 O352 2.325 . S
Tb337 O355 2.303 . S
Tb337 C366 2.764 1_455 S
C338 O354 1.261 . S
C338 O355 1.257 . S
C339 C342 1.358 . S
C339 C343 1.332 . S
C339 C345 1.504 . S
C340 C341 1.373 . S
C340 C344 1.308 . S
C341 C340 1.373 . S
C341 C342 1.429 . S
C341 H368 0.932 . S
C342 C339 1.358 . S
C342 C341 1.429 . S
C342 H369 0.930 . S
C343 C339 1.332 . S
C343 C344 1.394 . S
C343 H370 0.932 . S
C344 C340 1.308 . S
C344 C343 1.394 . S
C344 H371 0.929 . S
C345 Tb336 2.764 . S
C345 C339 1.504 . S
C345 O357 1.239 . S
C345 O358 1.263 . S
O346 Tb336 2.325 . S
O346 C356 1.236 1_545 S
O347 Tb337 2.322 1_565 S
O347 C356 1.257 . S
O348 Tb337 2.349 1_556 S
O348 C359 1.261 . S
O349 Tb336 2.303 . S
O349 C359 1.257 1_554 S
O350 Tb337 2.415 1_655 S
O350 C366 1.239 . S
O351 Tb337 2.399 1_656 S
O351 C366 1.263 1_556 S
O352 Tb337 2.325 . S
O352 C367 1.236 . S
O353 Tb336 2.322 . S
O353 C367 1.257 . S
O354 Tb336 2.349 . S
O354 C338 1.261 . S
O355 Tb337 2.303 . S
O355 C338 1.257 . S
C356 O346 1.236 1_565 S
C356 O347 1.257 . S
O357 Tb336 2.415 . S
O357 C345 1.239 . S
O358 Tb336 2.399 . S
O358 C345 1.263 . S
C359 O348 1.261 . S
C359 O349 1.257 1_556 S
C360 C363 1.358 1_554 S
C360 C364 1.332 . S
C360 C366 1.504 . S
C361 C362 1.342 1_554 S
C361 C365 1.344 . S
C362 C361 1.342 1_556 S
C362 C363 1.429 . S
C362 H372 0.932 . S
C363 C360 1.358 1_556 S
C363 C362 1.429 . S
C363 H373 0.930 . S
C364 C360 1.332 . S
C364 C365 1.394 . S
C364 H374 0.932 . S
C365 C361 1.344 . S
C365 C364 1.394 . S
C365 H375 0.929 . S
C366 Tb337 2.764 1_655 S
C366 O350 1.239 . S
C366 O351 1.263 1_554 S
C366 C360 1.504 . S
C367 O352 1.236 . S
C367 O353 1.257 . S
H368 C341 0.932 . S
H369 C342 0.930 . S
H370 C343 0.932 . S
H371 C344 0.929 . S
H372 C362 0.932 . S
H373 C363 0.930 . S
H374 C364 0.932 . S
H375 C365 0.929 . S
Tb376 C385 2.764 . S
Tb376 O386 2.325 . S
Tb376 O389 2.303 . S
Tb376 O393 2.322 . S
Tb376 O394 2.349 . S
Tb376 O397 2.415 . S
Tb376 O398 2.399 . S
Tb377 O387 2.322 . S
Tb377 O388 2.349 . S
Tb377 O390 2.415 . S
Tb377 O391 2.399 . S
Tb377 O392 2.325 . S
Tb377 O395 2.303 . S
Tb377 C406 2.764 . S
C378 O394 1.261 . S
C378 O395 1.257 . S
C379 C382 1.358 . S
C379 C383 1.332 . S
C379 C385 1.504 . S
C380 C381 1.373 . S
C380 C384 1.308 . S
C381 C380 1.373 . S
C381 C382 1.429 . S
C381 H408 0.932 . S
C382 C379 1.358 . S
C382 C381 1.429 . S
C382 H409 0.930 . S
C383 C379 1.332 . S
C383 C384 1.394 . S
C383 H410 0.932 . S
C384 C380 1.308 . S
C384 C383 1.394 . S
C384 H411 0.929 . S
C385 Tb376 2.764 . S
C385 C379 1.504 . S
C385 O397 1.239 . S
C385 O398 1.263 . S
O386 Tb376 2.325 . S
O386 C396 1.236 . S
O387 Tb377 2.322 . S
O387 C396 1.257 . S
O388 Tb377 2.349 . S
O388 C399 1.261 . S
O389 Tb376 2.303 . S
O389 C399 1.257 . S
O390 Tb377 2.415 . S
O390 C406 1.239 . S
O391 Tb377 2.399 . S
O391 C406 1.263 . S
O392 Tb377 2.325 . S
O392 C407 1.236 . S
O393 Tb376 2.322 . S
O393 C407 1.257 . S
O394 Tb376 2.349 . S
O394 C378 1.261 . S
O395 Tb377 2.303 . S
O395 C378 1.257 . S
C396 O386 1.236 . S
C396 O387 1.257 . S
O397 Tb376 2.415 . S
O397 C385 1.239 . S
O398 Tb376 2.399 . S
O398 C385 1.263 . S
C399 O388 1.261 . S
C399 O389 1.257 . S
C400 C403 1.358 . S
C400 C404 1.332 . S
C400 C406 1.504 . S
C401 C402 1.373 . S
C401 C405 1.308 . S
C402 C401 1.373 . S
C402 C403 1.429 . S
C402 H412 0.932 . S
C403 C400 1.358 . S
C403 C402 1.429 . S
C403 H413 0.930 . S
C404 C400 1.332 . S
C404 C405 1.394 . S
C404 H414 0.932 . S
C405 C401 1.308 . S
C405 C404 1.394 . S
C405 H415 0.929 . S
C406 Tb377 2.764 . S
C406 O390 1.239 . S
C406 O391 1.263 . S
C406 C400 1.504 . S
C407 O392 1.236 . S
C407 O393 1.257 . S
H408 C381 0.932 . S
H409 C382 0.930 . S
H410 C383 0.932 . S
H411 C384 0.929 . S
H412 C402 0.932 . S
H413 C403 0.930 . S
H414 C404 0.932 . S
H415 C405 0.929 . S
Tb416 C425 2.764 . S
Tb416 O426 2.325 . S
Tb416 O429 2.303 . S
Tb416 O433 2.322 1_545 S
Tb416 O434 2.349 . S
Tb416 O437 2.415 . S
Tb416 O438 2.399 . S
Tb417 O427 2.322 . S
Tb417 O428 2.349 . S
Tb417 O430 2.415 . S
Tb417 O431 2.399 . S
Tb417 O432 2.325 1_545 S
Tb417 O435 2.303 . S
Tb417 C446 2.764 . S
C418 O434 1.261 . S
C418 O435 1.257 . S
C419 C422 1.358 . S
C419 C423 1.332 . S
C419 C425 1.504 . S
C420 C421 1.373 . S
C420 C424 1.308 . S
C421 C420 1.373 . S
C421 C422 1.429 . S
C421 H448 0.932 . S
C422 C419 1.358 . S
C422 C421 1.429 . S
C422 H449 0.930 . S
C423 C419 1.332 . S
C423 C424 1.394 . S
C423 H450 0.932 . S
C424 C420 1.308 . S
C424 C423 1.394 . S
C424 H451 0.929 . S
C425 Tb416 2.764 . S
C425 C419 1.504 . S
C425 O437 1.239 . S
C425 O438 1.263 . S
O426 Tb416 2.325 . S
O426 C436 1.236 . S
O427 Tb417 2.322 . S
O427 C436 1.257 . S
O428 Tb417 2.349 . S
O428 C439 1.261 . S
O429 Tb416 2.303 . S
O429 C439 1.257 . S
O430 Tb417 2.415 . S
O430 C446 1.239 . S
O431 Tb417 2.399 . S
O431 C446 1.263 . S
O432 Tb417 2.325 1_565 S
O432 C447 1.236 . S
O433 Tb416 2.322 1_565 S
O433 C447 1.257 . S
O434 Tb416 2.349 . S
O434 C418 1.261 . S
O435 Tb417 2.303 . S
O435 C418 1.257 . S
C436 O426 1.236 . S
C436 O427 1.257 . S
O437 Tb416 2.415 . S
O437 C425 1.239 . S
O438 Tb416 2.399 . S
O438 C425 1.263 . S
C439 O428 1.261 . S
C439 O429 1.257 . S
C440 C443 1.358 1_565 S
C440 C444 1.336 . S
C440 C446 1.500 1_565 S
C441 C442 1.373 . S
C441 C445 1.308 . S
C442 C441 1.373 . S
C442 C443 1.429 1_565 S
C442 H452 0.932 . S
C443 C440 1.358 1_545 S
C443 C442 1.429 1_545 S
C443 H453 0.930 . S
C444 C440 1.336 . S
C444 C445 1.394 . S
C444 H454 0.932 . S
C445 C441 1.308 . S
C445 C444 1.394 . S
C445 H455 0.929 . S
C446 Tb417 2.764 . S
C446 O430 1.239 . S
C446 O431 1.263 . S
C446 C440 1.500 1_545 S
C447 O432 1.236 . S
C447 O433 1.257 . S
H448 C421 0.932 . S
H449 C422 0.930 . S
H450 C423 0.932 . S
H451 C424 0.929 . S
H452 C442 0.932 . S
H453 C443 0.930 . S
H454 C444 0.932 . S
H455 C445 0.929 . S
Tb456 C465 2.764 . S
Tb456 O466 2.325 . S
Tb456 O469 2.303 . S
Tb456 O473 2.322 . S
Tb456 O474 2.349 . S
Tb456 O477 2.415 . S
Tb456 O478 2.399 . S
Tb457 O467 2.322 . S
Tb457 O468 2.349 . S
Tb457 O470 2.415 . S
Tb457 O471 2.399 . S
Tb457 O472 2.325 . S
Tb457 O475 2.303 . S
Tb457 C486 2.764 . S
C458 O474 1.261 . S
C458 O475 1.257 . S
C459 C462 1.358 . S
C459 C463 1.332 . S
C459 C465 1.504 . S
C460 C461 1.373 . S
C460 C464 1.308 . S
C461 C460 1.373 . S
C461 C462 1.429 . S
C461 H488 0.932 . S
C462 C459 1.358 . S
C462 C461 1.429 . S
C462 H489 0.930 . S
C463 C459 1.332 . S
C463 C464 1.394 . S
C463 H490 0.932 . S
C464 C460 1.308 . S
C464 C463 1.394 . S
C464 H491 0.929 . S
C465 Tb456 2.764 . S
C465 C459 1.504 . S
C465 O477 1.239 . S
C465 O478 1.263 . S
O466 Tb456 2.325 . S
O466 C476 1.236 . S
O467 Tb457 2.322 . S
O467 C476 1.257 . S
O468 Tb457 2.349 . S
O468 C479 1.261 . S
O469 Tb456 2.303 . S
O469 C479 1.257 . S
O470 Tb457 2.415 . S
O470 C486 1.239 . S
O471 Tb457 2.399 . S
O471 C486 1.263 . S
O472 Tb457 2.325 . S
O472 C487 1.236 . S
O473 Tb456 2.322 . S
O473 C487 1.257 . S
O474 Tb456 2.349 . S
O474 C458 1.261 . S
O475 Tb457 2.303 . S
O475 C458 1.257 . S
C476 O466 1.236 . S
C476 O467 1.257 . S
O477 Tb456 2.415 . S
O477 C465 1.239 . S
O478 Tb456 2.399 . S
O478 C465 1.263 . S
C479 O468 1.261 . S
C479 O469 1.257 . S
C480 C483 1.358 . S
C480 C484 1.332 . S
C480 C486 1.504 . S
C481 C482 1.373 . S
C481 C485 1.308 . S
C482 C481 1.373 . S
C482 C483 1.429 . S
C482 H492 0.932 . S
C483 C480 1.358 . S
C483 C482 1.429 . S
C483 H493 0.930 . S
C484 C480 1.332 . S
C484 C485 1.394 . S
C484 H494 0.932 . S
C485 C481 1.308 . S
C485 C484 1.394 . S
C485 H495 0.929 . S
C486 Tb457 2.764 . S
C486 O470 1.239 . S
C486 O471 1.263 . S
C486 C480 1.504 . S
C487 O472 1.236 . S
C487 O473 1.257 . S
H488 C461 0.932 . S
H489 C462 0.930 . S
H490 C463 0.932 . S
H491 C464 0.929 . S
H492 C482 0.932 . S
H493 C483 0.930 . S
H494 C484 0.932 . S
H495 C485 0.929 . S
Tb496 C505 2.764 . S
Tb496 O506 2.325 . S
Tb496 O509 2.303 . S
Tb496 O513 2.322 . S
Tb496 O514 2.349 . S
Tb496 O517 2.415 . S
Tb496 O518 2.399 . S
Tb497 O507 2.322 1_545 S
Tb497 O508 2.349 . S
Tb497 O510 2.415 . S
Tb497 O511 2.399 . S
Tb497 O512 2.325 . S
Tb497 O515 2.303 . S
Tb497 C526 2.764 . S
C498 O514 1.261 . S
C498 O515 1.257 . S
C499 C502 1.358 . S
C499 C503 1.332 . S
C499 C505 1.504 . S
C500 C501 1.373 . S
C500 C504 1.308 . S
C501 C500 1.373 . S
C501 C502 1.429 . S
C501 H528 0.932 . S
C502 C499 1.358 . S
C502 C501 1.429 . S
C502 H529 0.930 . S
C503 C499 1.332 . S
C503 C504 1.394 . S
C503 H530 0.932 . S
C504 C500 1.308 . S
C504 C503 1.394 . S
C504 H531 0.929 . S
C505 Tb496 2.764 . S
C505 C499 1.504 . S
C505 O517 1.239 . S
C505 O518 1.263 . S
O506 Tb496 2.325 . S
O506 C516 1.236 1_545 S
O507 Tb497 2.322 1_565 S
O507 C516 1.257 . S
O508 Tb497 2.349 . S
O508 C519 1.261 . S
O509 Tb496 2.303 . S
O509 C519 1.257 . S
O510 Tb497 2.415 . S
O510 C526 1.239 . S
O511 Tb497 2.399 . S
O511 C526 1.263 . S
O512 Tb497 2.325 . S
O512 C527 1.236 . S
O513 Tb496 2.322 . S
O513 C527 1.257 . S
O514 Tb496 2.349 . S
O514 C498 1.261 . S
O515 Tb497 2.303 . S
O515 C498 1.257 . S
C516 O506 1.236 1_565 S
C516 O507 1.257 . S
O517 Tb496 2.415 . S
O517 C505 1.239 . S
O518 Tb496 2.399 . S
O518 C505 1.263 . S
C519 O508 1.261 . S
C519 O509 1.257 . S
C520 C523 1.358 . S
C520 C524 1.343 . S
C520 C526 1.504 . S
C521 C522 1.373 . S
C521 C525 1.308 1_455 S
C522 C521 1.373 . S
C522 C523 1.429 . S
C522 H532 0.932 . S
C523 C520 1.358 . S
C523 C522 1.429 . S
C523 H533 0.930 . S
C524 C520 1.343 . S
C524 C525 1.391 1_455 S
C524 H534 0.924 1_455 S
C525 C521 1.308 1_655 S
C525 C524 1.391 1_655 S
C525 H535 0.929 . S
C526 Tb497 2.764 . S
C526 O510 1.239 . S
C526 O511 1.263 . S
C526 C520 1.504 . S
C527 O512 1.236 . S
C527 O513 1.257 . S
H528 C501 0.932 . S
H529 C502 0.930 . S
H530 C503 0.932 . S
H531 C504 0.929 . S
H532 C522 0.932 . S
H533 C523 0.930 . S
H534 C524 0.924 1_655 S
H535 C525 0.929 . S
Tb536 C545 2.764 . S
Tb536 O546 2.325 . S
Tb536 O549 2.303 . S
Tb536 O553 2.322 . S
Tb536 O554 2.349 . S
Tb536 O557 2.415 . S
Tb536 O558 2.399 . S
Tb537 O547 2.322 . S
Tb537 O548 2.349 . S
Tb537 O550 2.415 . S
Tb537 O551 2.399 . S
Tb537 O552 2.325 . S
Tb537 O555 2.303 . S
Tb537 C566 2.764 . S
C538 O554 1.261 . S
C538 O555 1.257 . S
C539 C542 1.358 . S
C539 C543 1.332 . S
C539 C545 1.504 . S
C540 C541 1.373 . S
C540 C544 1.308 . S
C541 C540 1.373 . S
C541 C542 1.429 . S
C541 H568 0.932 . S
C542 C539 1.358 . S
C542 C541 1.429 . S
C542 H569 0.930 . S
C543 C539 1.332 . S
C543 C544 1.394 . S
C543 H570 0.932 . S
C544 C540 1.308 . S
C544 C543 1.394 . S
C544 H571 0.929 . S
C545 Tb536 2.764 . S
C545 C539 1.504 . S
C545 O557 1.239 . S
C545 O558 1.263 . S
O546 Tb536 2.325 . S
O546 C556 1.236 . S
O547 Tb537 2.322 . S
O547 C556 1.257 . S
O548 Tb537 2.349 . S
O548 C559 1.261 . S
O549 Tb536 2.303 . S
O549 C559 1.257 . S
O550 Tb537 2.415 . S
O550 C566 1.239 . S
O551 Tb537 2.399 . S
O551 C566 1.263 . S
O552 Tb537 2.325 . S
O552 C567 1.236 . S
O553 Tb536 2.322 . S
O553 C567 1.257 . S
O554 Tb536 2.349 . S
O554 C538 1.261 . S
O555 Tb537 2.303 . S
O555 C538 1.257 . S
C556 O546 1.236 . S
C556 O547 1.257 . S
O557 Tb536 2.415 . S
O557 C545 1.239 . S
O558 Tb536 2.399 . S
O558 C545 1.263 . S
C559 O548 1.261 . S
C559 O549 1.257 . S
C560 C563 1.358 . S
C560 C564 1.332 . S
C560 C566 1.504 . S
C561 C562 1.373 . S
C561 C565 1.308 . S
C562 C561 1.373 . S
C562 C563 1.429 . S
C562 H572 0.932 . S
C563 C560 1.358 . S
C563 C562 1.429 . S
C563 H573 0.930 . S
C564 C560 1.332 . S
C564 C565 1.394 . S
C564 H574 0.932 . S
C565 C561 1.308 . S
C565 C564 1.394 . S
C565 H575 0.929 . S
C566 Tb537 2.764 . S
C566 O550 1.239 . S
C566 O551 1.263 . S
C566 C560 1.504 . S
C567 O552 1.236 . S
C567 O553 1.257 . S
H568 C541 0.932 . S
H569 C542 0.930 . S
H570 C543 0.932 . S
H571 C544 0.929 . S
H572 C562 0.932 . S
H573 C563 0.930 . S
H574 C564 0.932 . S
H575 C565 0.929 . S
Tb576 C585 2.764 . S
Tb576 O586 2.325 . S
Tb576 O589 2.303 . S
Tb576 O593 2.322 1_545 S
Tb576 O594 2.349 . S
Tb576 O597 2.415 . S
Tb576 O598 2.399 . S
Tb577 O587 2.322 . S
Tb577 O588 2.349 . S
Tb577 O590 2.415 1_554 S
Tb577 O591 2.399 1_554 S
Tb577 O592 2.325 1_554 S
Tb577 O595 2.303 . S
Tb577 C606 2.764 1_554 S
C578 O594 1.261 . S
C578 O595 1.257 . S
C579 C582 1.358 . S
C579 C583 1.332 . S
C579 C585 1.504 . S
C580 C581 1.373 . S
C580 C584 1.308 . S
C581 C580 1.373 . S
C581 C582 1.429 . S
C581 H608 0.932 . S
C582 C579 1.358 . S
C582 C581 1.429 . S
C582 H609 0.930 . S
C583 C579 1.332 . S
C583 C584 1.394 . S
C583 H610 0.932 . S
C584 C580 1.308 . S
C584 C583 1.394 . S
C584 H611 0.929 . S
C585 Tb576 2.764 . S
C585 C579 1.504 . S
C585 O597 1.239 . S
C585 O598 1.263 . S
O586 Tb576 2.325 . S
O586 C596 1.236 . S
O587 Tb577 2.322 . S
O587 C596 1.257 . S
O588 Tb577 2.349 . S
O588 C599 1.261 . S
O589 Tb576 2.303 . S
O589 C599 1.257 . S
O590 Tb577 2.415 1_556 S
O590 C606 1.239 . S
O591 Tb577 2.399 1_556 S
O591 C606 1.263 . S
O592 Tb577 2.325 1_556 S
O592 C607 1.236 1_546 S
O593 Tb576 2.322 1_565 S
O593 C607 1.257 . S
O594 Tb576 2.349 . S
O594 C578 1.261 . S
O595 Tb577 2.303 . S
O595 C578 1.257 . S
C596 O586 1.236 . S
C596 O587 1.257 . S
O597 Tb576 2.415 . S
O597 C585 1.239 . S
O598 Tb576 2.399 . S
O598 C585 1.263 . S
C599 O588 1.261 . S
C599 O589 1.257 . S
C600 C603 1.358 . S
C600 C604 1.332 . S
C600 C606 1.504 . S
C601 C602 1.373 . S
C601 C605 1.308 . S
C602 C601 1.373 . S
C602 C603 1.429 . S
C602 H612 0.932 . S
C603 C600 1.358 . S
C603 C602 1.429 . S
C603 H613 0.930 . S
C604 C600 1.332 . S
C604 C605 1.394 . S
C604 H614 0.932 . S
C605 C601 1.308 . S
C605 C604 1.394 . S
C605 H615 0.929 . S
C606 Tb577 2.764 1_556 S
C606 O590 1.239 . S
C606 O591 1.263 . S
C606 C600 1.504 . S
C607 O592 1.236 1_564 S
C607 O593 1.257 . S
H608 C581 0.932 . S
H609 C582 0.930 . S
H610 C583 0.932 . S
H611 C584 0.929 . S
H612 C602 0.932 . S
H613 C603 0.930 . S
H614 C604 0.932 . S
H615 C605 0.929 . S
Tb616 C625 2.764 . S
Tb616 O626 2.325 . S
Tb616 O629 2.303 . S
Tb616 O633 2.322 . S
Tb616 O634 2.349 . S
Tb616 O637 2.415 . S
Tb616 O638 2.399 . S
Tb617 O627 2.322 . S
Tb617 O628 2.349 . S
Tb617 O630 2.415 . S
Tb617 O631 2.399 . S
Tb617 O632 2.325 . S
Tb617 O635 2.303 . S
Tb617 C646 2.764 . S
C618 O634 1.261 . S
C618 O635 1.257 . S
C619 C622 1.358 . S
C619 C623 1.332 . S
C619 C625 1.504 . S
C620 C621 1.373 . S
C620 C624 1.308 . S
C621 C620 1.373 . S
C621 C622 1.429 . S
C621 H648 0.932 . S
C622 C619 1.358 . S
C622 C621 1.429 . S
C622 H649 0.930 . S
C623 C619 1.332 . S
C623 C624 1.394 . S
C623 H650 0.932 . S
C624 C620 1.308 . S
C624 C623 1.394 . S
C624 H651 0.929 . S
C625 Tb616 2.764 . S
C625 C619 1.504 . S
C625 O637 1.239 . S
C625 O638 1.263 . S
O626 Tb616 2.325 . S
O626 C636 1.236 . S
O627 Tb617 2.322 . S
O627 C636 1.257 . S
O628 Tb617 2.349 . S
O628 C639 1.261 . S
O629 Tb616 2.303 . S
O629 C639 1.257 . S
O630 Tb617 2.415 . S
O630 C646 1.239 . S
O631 Tb617 2.399 . S
O631 C646 1.263 . S
O632 Tb617 2.325 . S
O632 C647 1.236 . S
O633 Tb616 2.322 . S
O633 C647 1.257 . S
O634 Tb616 2.349 . S
O634 C618 1.261 . S
O635 Tb617 2.303 . S
O635 C618 1.257 . S
C636 O626 1.236 . S
C636 O627 1.257 . S
O637 Tb616 2.415 . S
O637 C625 1.239 . S
O638 Tb616 2.399 . S
O638 C625 1.263 . S
C639 O628 1.261 . S
C639 O629 1.257 . S
C640 C643 1.358 . S
C640 C644 1.332 . S
C640 C646 1.504 . S
C641 C642 1.373 . S
C641 C645 1.308 . S
C642 C641 1.373 . S
C642 C643 1.429 . S
C642 H652 0.932 . S
C643 C640 1.358 . S
C643 C642 1.429 . S
C643 H653 0.930 . S
C644 C640 1.332 . S
C644 C645 1.394 . S
C644 H654 0.932 . S
C645 C641 1.308 . S
C645 C644 1.394 . S
C645 H655 0.929 . S
C646 Tb617 2.764 . S
C646 O630 1.239 . S
C646 O631 1.263 . S
C646 C640 1.504 . S
C647 O632 1.236 . S
C647 O633 1.257 . S
H648 C621 0.932 . S
H649 C622 0.930 . S
H650 C623 0.932 . S
H651 C624 0.929 . S
H652 C642 0.932 . S
H653 C643 0.930 . S
H654 C644 0.932 . S
H655 C645 0.929 . S
Tb656 C665 2.764 . S
Tb656 O666 2.325 . S
Tb656 O669 2.303 . S
Tb656 O673 2.322 . S
Tb656 O674 2.349 . S
Tb656 O677 2.415 . S
Tb656 O678 2.399 . S
Tb657 O667 2.364 . S
Tb657 O668 2.352 . S
Tb657 O670 2.378 1_554 S
Tb657 O671 2.346 1_554 S
Tb657 O672 2.321 . S
Tb657 O675 2.340 . S
Tb657 C686 2.714 1_554 S
C658 O674 1.261 . S
C658 O675 1.257 . S
C659 C662 1.358 . S
C659 C663 1.332 . S
C659 C665 1.504 . S
C660 C661 1.373 . S
C660 C664 1.308 . S
C661 C660 1.373 . S
C661 C662 1.429 . S
C661 H688 0.932 . S
C662 C659 1.358 . S
C662 C661 1.429 . S
C662 H689 0.930 . S
C663 C659 1.332 . S
C663 C664 1.394 . S
C663 H690 0.932 . S
C664 C660 1.308 . S
C664 C663 1.394 . S
C664 H691 0.929 . S
C665 Tb656 2.764 . S
C665 C659 1.504 . S
C665 O677 1.239 . S
C665 O678 1.263 . S
O666 Tb656 2.325 . S
O666 C676 1.236 . S
O667 Tb657 2.364 . S
O667 C676 1.257 . S
O668 Tb657 2.352 . S
O668 C679 1.261 . S
O669 Tb656 2.303 . S
O669 C679 1.257 . S
O670 Tb657 2.378 1_556 S
O670 C686 1.239 . S
O671 Tb657 2.346 1_556 S
O671 C686 1.263 . S
O672 Tb657 2.321 . S
O672 C687 1.243 . S
O673 Tb656 2.322 . S
O673 C687 1.257 . S
O674 Tb656 2.349 . S
O674 C658 1.261 . S
O675 Tb657 2.340 . S
O675 C658 1.257 . S
C676 O666 1.236 . S
C676 O667 1.257 . S
O677 Tb656 2.415 . S
O677 C665 1.239 . S
O678 Tb656 2.399 . S
O678 C665 1.263 . S
C679 O668 1.261 . S
C679 O669 1.257 . S
C680 C683 1.358 . S
C680 C684 1.332 . S
C680 C686 1.504 . S
C681 C682 1.373 . S
C681 C685 1.308 . S
C682 C681 1.373 . S
C682 C683 1.429 . S
C682 H692 0.932 . S
C683 C680 1.358 . S
C683 C682 1.429 . S
C683 H693 0.930 . S
C684 C680 1.332 . S
C684 C685 1.394 . S
C684 H694 0.932 . S
C685 C681 1.308 . S
C685 C684 1.394 . S
C685 H695 0.929 . S
C686 Tb657 2.714 1_556 S
C686 O670 1.239 . S
C686 O671 1.263 . S
C686 C680 1.504 . S
C687 O672 1.243 . S
C687 O673 1.257 . S
H688 C661 0.932 . S
H689 C662 0.930 . S
H690 C663 0.932 . S
H691 C664 0.929 . S
H692 C682 0.932 . S
H693 C683 0.930 . S
H694 C684 0.932 . S
H695 C685 0.929 . S
Tb696 C705 2.764 . S
Tb696 O706 2.325 . S
Tb696 O709 2.303 . S
Tb696 O713 2.322 . S
Tb696 O714 2.349 . S
Tb696 O717 2.415 . S
Tb696 O718 2.399 . S
Tb697 O707 2.322 . S
Tb697 O708 2.349 . S
Tb697 O710 2.415 . S
Tb697 O711 2.399 . S
Tb697 O712 2.325 . S
Tb697 O715 2.303 . S
Tb697 C726 2.764 . S
C698 O714 1.261 . S
C698 O715 1.257 . S
C699 C702 1.358 . S
C699 C703 1.332 . S
C699 C705 1.504 . S
C700 C701 1.373 . S
C700 C704 1.308 . S
C701 C700 1.373 . S
C701 C702 1.429 . S
C701 H728 0.932 . S
C702 C699 1.358 . S
C702 C701 1.429 . S
C702 H729 0.930 . S
C703 C699 1.332 . S
C703 C704 1.394 . S
C703 H730 0.932 . S
C704 C700 1.308 . S
C704 C703 1.394 . S
C704 H731 0.929 . S
C705 Tb696 2.764 . S
C705 C699 1.504 . S
C705 O717 1.239 . S
C705 O718 1.263 . S
O706 Tb696 2.325 . S
O706 C716 1.236 . S
O707 Tb697 2.322 . S
O707 C716 1.257 . S
O708 Tb697 2.349 . S
O708 C719 1.261 . S
O709 Tb696 2.303 . S
O709 C719 1.257 . S
O710 Tb697 2.415 . S
O710 C726 1.239 . S
O711 Tb697 2.399 . S
O711 C726 1.263 . S
O712 Tb697 2.325 . S
O712 C727 1.236 . S
O713 Tb696 2.322 . S
O713 C727 1.257 . S
O714 Tb696 2.349 . S
O714 C698 1.261 . S
O715 Tb697 2.303 . S
O715 C698 1.257 . S
C716 O706 1.236 . S
C716 O707 1.257 . S
O717 Tb696 2.415 . S
O717 C705 1.239 . S
O718 Tb696 2.399 . S
O718 C705 1.263 . S
C719 O708 1.261 . S
C719 O709 1.257 . S
C720 C723 1.358 . S
C720 C724 1.332 . S
C720 C726 1.504 . S
C721 C722 1.373 . S
C721 C725 1.308 . S
C722 C721 1.373 . S
C722 C723 1.429 . S
C722 H732 0.932 . S
C723 C720 1.358 . S
C723 C722 1.429 . S
C723 H733 0.930 . S
C724 C720 1.332 . S
C724 C725 1.394 . S
C724 H734 0.932 . S
C725 C721 1.308 . S
C725 C724 1.394 . S
C725 H735 0.929 . S
C726 Tb697 2.764 . S
C726 O710 1.239 . S
C726 O711 1.263 . S
C726 C720 1.504 . S
C727 O712 1.236 . S
C727 O713 1.257 . S
H728 C701 0.932 . S
H729 C702 0.930 . S
H730 C703 0.932 . S
H731 C704 0.929 . S
H732 C722 0.932 . S
H733 C723 0.930 . S
H734 C724 0.932 . S
H735 C725 0.929 . S
Tb736 C745 2.764 . S
Tb736 O746 2.325 . S
Tb736 O749 2.303 . S
Tb736 O753 2.322 . S
Tb736 O754 2.349 . S
Tb736 O757 2.415 . S
Tb736 O758 2.399 . S
Tb737 O747 2.322 . S
Tb737 O748 2.349 . S
Tb737 O750 2.415 . S
Tb737 O751 2.399 . S
Tb737 O752 2.325 . S
Tb737 O755 2.303 . S
Tb737 C766 2.764 . S
C738 O754 1.261 . S
C738 O755 1.257 . S
C739 C742 1.358 . S
C739 C743 1.332 . S
C739 C745 1.504 . S
C740 C741 1.373 . S
C740 C744 1.308 1_455 S
C741 C740 1.373 . S
C741 C742 1.429 . S
C741 H768 0.932 . S
C742 C739 1.358 . S
C742 C741 1.429 . S
C742 H769 0.930 . S
C743 C739 1.332 . S
C743 C744 1.394 1_455 S
C743 H770 0.932 1_455 S
C744 C740 1.308 1_655 S
C744 C743 1.394 1_655 S
C744 H771 0.929 . S
C745 Tb736 2.764 . S
C745 C739 1.504 . S
C745 O757 1.239 . S
C745 O758 1.263 . S
O746 Tb736 2.325 . S
O746 C756 1.236 . S
O747 Tb737 2.322 . S
O747 C756 1.257 . S
O748 Tb737 2.349 . S
O748 C759 1.256 1_455 S
O749 Tb736 2.303 . S
O749 C759 1.217 1_455 S
O750 Tb737 2.415 . S
O750 C766 1.239 . S
O751 Tb737 2.399 . S
O751 C766 1.263 . S
O752 Tb737 2.325 . S
O752 C767 1.236 . S
O753 Tb736 2.322 . S
O753 C767 1.257 . S
O754 Tb736 2.349 . S
O754 C738 1.261 . S
O755 Tb737 2.303 . S
O755 C738 1.257 . S
C756 O746 1.236 . S
C756 O747 1.257 . S
O757 Tb736 2.415 . S
O757 C745 1.239 . S
O758 Tb736 2.399 . S
O758 C745 1.263 . S
C759 O748 1.256 1_655 S
C759 O749 1.217 1_655 S
C760 C763 1.358 . S
C760 C764 1.332 . S
C760 C766 1.504 . S
C761 C762 1.373 . S
C761 C765 1.308 . S
C762 C761 1.373 . S
C762 C763 1.429 . S
C762 H772 0.932 . S
C763 C760 1.358 . S
C763 C762 1.429 . S
C763 H773 0.930 . S
C764 C760 1.332 . S
C764 C765 1.394 . S
C764 H774 0.932 . S
C765 C761 1.308 . S
C765 C764 1.394 . S
C765 H775 0.929 . S
C766 Tb737 2.764 . S
C766 O750 1.239 . S
C766 O751 1.263 . S
C766 C760 1.504 . S
C767 O752 1.236 . S
C767 O753 1.257 . S
H768 C741 0.932 . S
H769 C742 0.930 . S
H770 C743 0.932 1_655 S
H771 C744 0.929 . S
H772 C762 0.932 . S
H773 C763 0.930 . S
H774 C764 0.932 . S
H775 C765 0.929 . S
Tb776 C785 2.764 . S
Tb776 O786 2.325 . S
Tb776 O789 2.303 . S
Tb776 O793 2.322 . S
Tb776 O794 2.349 . S
Tb776 O797 2.415 . S
Tb776 O798 2.399 . S
Tb777 O787 2.322 . S
Tb777 O788 2.349 . S
Tb777 O790 2.415 . S
Tb777 O791 2.399 . S
Tb777 O792 2.325 . S
Tb777 O795 2.303 . S
Tb777 C806 2.764 . S
C778 O794 1.261 . S
C778 O795 1.257 . S
C779 C782 1.358 . S
C779 C783 1.332 . S
C779 C785 1.504 . S
C780 C781 1.373 . S
C780 C784 1.308 . S
C781 C780 1.373 . S
C781 C782 1.429 . S
C781 H808 0.932 . S
C782 C779 1.358 . S
C782 C781 1.429 . S
C782 H809 0.930 . S
C783 C779 1.332 . S
C783 C784 1.394 . S
C783 H810 0.932 . S
C784 C780 1.308 . S
C784 C783 1.394 . S
C784 H811 0.929 . S
C785 Tb776 2.764 . S
C785 C779 1.504 . S
C785 O797 1.239 . S
C785 O798 1.263 . S
O786 Tb776 2.325 . S
O786 C796 1.236 . S
O787 Tb777 2.322 . S
O787 C796 1.257 . S
O788 Tb777 2.349 . S
O788 C799 1.261 . S
O789 Tb776 2.303 . S
O789 C799 1.257 . S
O790 Tb777 2.415 . S
O790 C806 1.239 . S
O791 Tb777 2.399 . S
O791 C806 1.263 . S
O792 Tb777 2.325 . S
O792 C807 1.236 . S
O793 Tb776 2.322 . S
O793 C807 1.257 . S
O794 Tb776 2.349 . S
O794 C778 1.261 . S
O795 Tb777 2.303 . S
O795 C778 1.257 . S
C796 O786 1.236 . S
C796 O787 1.257 . S
O797 Tb776 2.415 . S
O797 C785 1.239 . S
O798 Tb776 2.399 . S
O798 C785 1.263 . S
C799 O788 1.261 . S
C799 O789 1.257 . S
C800 C803 1.358 . S
C800 C804 1.332 . S
C800 C806 1.504 . S
C801 C802 1.373 . S
C801 C805 1.308 . S
C802 C801 1.373 . S
C802 C803 1.429 . S
C802 H812 0.932 . S
C803 C800 1.358 . S
C803 C802 1.429 . S
C803 H813 0.930 . S
C804 C800 1.332 . S
C804 C805 1.394 . S
C804 H814 0.932 . S
C805 C801 1.308 . S
C805 C804 1.394 . S
C805 H815 0.929 . S
C806 Tb777 2.764 . S
C806 O790 1.239 . S
C806 O791 1.263 . S
C806 C800 1.504 . S
C807 O792 1.236 . S
C807 O793 1.257 . S
H808 C781 0.932 . S
H809 C782 0.930 . S
H810 C783 0.932 . S
H811 C784 0.929 . S
H812 C802 0.932 . S
H813 C803 0.930 . S
H814 C804 0.932 . S
H815 C805 0.929 . S
Tb816 C825 2.764 . S
Tb816 O826 2.325 . S
Tb816 O829 2.303 . S
Tb816 O833 2.322 . S
Tb816 O834 2.349 . S
Tb816 O837 2.415 . S
Tb816 O838 2.399 . S
Tb817 O827 2.322 . S
Tb817 O828 2.349 . S
Tb817 O830 2.415 . S
Tb817 O831 2.399 . S
Tb817 O832 2.325 . S
Tb817 O835 2.303 . S
Tb817 C846 2.764 . S
C818 O834 1.261 . S
C818 O835 1.257 . S
C819 C822 1.358 . S
C819 C823 1.332 . S
C819 C825 1.504 . S
C820 C821 1.373 . S
C820 C824 1.308 . S
C821 C820 1.373 . S
C821 C822 1.429 . S
C821 H848 0.932 . S
C822 C819 1.358 . S
C822 C821 1.429 . S
C822 H849 0.930 . S
C823 C819 1.332 . S
C823 C824 1.394 . S
C823 H850 0.932 . S
C824 C820 1.308 . S
C824 C823 1.394 . S
C824 H851 0.929 . S
C825 Tb816 2.764 . S
C825 C819 1.504 . S
C825 O837 1.239 . S
C825 O838 1.263 . S
O826 Tb816 2.325 . S
O826 C836 1.236 . S
O827 Tb817 2.322 . S
O827 C836 1.257 . S
O828 Tb817 2.349 . S
O828 C839 1.261 . S
O829 Tb816 2.303 . S
O829 C839 1.257 . S
O830 Tb817 2.415 . S
O830 C846 1.239 . S
O831 Tb817 2.399 . S
O831 C846 1.263 . S
O832 Tb817 2.325 . S
O832 C847 1.236 . S
O833 Tb816 2.322 . S
O833 C847 1.257 . S
O834 Tb816 2.349 . S
O834 C818 1.261 . S
O835 Tb817 2.303 . S
O835 C818 1.257 . S
C836 O826 1.236 . S
C836 O827 1.257 . S
O837 Tb816 2.415 . S
O837 C825 1.239 . S
O838 Tb816 2.399 . S
O838 C825 1.263 . S
C839 O828 1.261 . S
C839 O829 1.257 . S
C840 C843 1.358 . S
C840 C844 1.332 . S
C840 C846 1.504 . S
C841 C842 1.373 . S
C841 C845 1.308 . S
C842 C841 1.373 . S
C842 C843 1.429 . S
C842 H852 0.932 . S
C843 C840 1.358 . S
C843 C842 1.429 . S
C843 H853 0.930 . S
C844 C840 1.332 . S
C844 C845 1.394 . S
C844 H854 0.932 . S
C845 C841 1.308 . S
C845 C844 1.394 . S
C845 H855 0.929 . S
C846 Tb817 2.764 . S
C846 O830 1.239 . S
C846 O831 1.263 . S
C846 C840 1.504 . S
C847 O832 1.236 . S
C847 O833 1.257 . S
H848 C821 0.932 . S
H849 C822 0.930 . S
H850 C823 0.932 . S
H851 C824 0.929 . S
H852 C842 0.932 . S
H853 C843 0.930 . S
H854 C844 0.932 . S
H855 C845 0.929 . S
Tb856 C865 2.764 . S
Tb856 O866 2.325 . S
Tb856 O869 2.303 . S
Tb856 O873 2.322 . S
Tb856 O874 2.349 . S
Tb856 O877 2.415 . S
Tb856 O878 2.399 . S
Tb857 O867 2.322 . S
Tb857 O868 2.349 . S
Tb857 O870 2.415 . S
Tb857 O871 2.399 . S
Tb857 O872 2.325 . S
Tb857 O875 2.303 . S
Tb857 C886 2.764 . S
C858 O874 1.261 . S
C858 O875 1.257 . S
C859 C862 1.358 . S
C859 C863 1.332 . S
C859 C865 1.504 . S
C860 C861 1.373 . S
C860 C864 1.308 . S
C861 C860 1.373 . S
C861 C862 1.429 . S
C861 H888 0.932 . S
C862 C859 1.358 . S
C862 C861 1.429 . S
C862 H889 0.930 . S
C863 C859 1.332 . S
C863 C864 1.394 . S
C863 H890 0.932 . S
C864 C860 1.308 . S
C864 C863 1.394 . S
C864 H891 0.929 . S
C865 Tb856 2.764 . S
C865 C859 1.504 . S
C865 O877 1.239 . S
C865 O878 1.263 . S
O866 Tb856 2.325 . S
O866 C876 1.236 . S
O867 Tb857 2.322 . S
O867 C876 1.257 . S
O868 Tb857 2.349 . S
O868 C879 1.261 . S
O869 Tb856 2.303 . S
O869 C879 1.257 . S
O870 Tb857 2.415 . S
O870 C886 1.239 . S
O871 Tb857 2.399 . S
O871 C886 1.263 . S
O872 Tb857 2.325 . S
O872 C887 1.236 . S
O873 Tb856 2.322 . S
O873 C887 1.257 . S
O874 Tb856 2.349 . S
O874 C858 1.261 . S
O875 Tb857 2.303 . S
O875 C858 1.257 . S
C876 O866 1.236 . S
C876 O867 1.257 . S
O877 Tb856 2.415 . S
O877 C865 1.239 . S
O878 Tb856 2.399 . S
O878 C865 1.263 . S
C879 O868 1.261 . S
C879 O869 1.257 . S
C880 C883 1.358 . S
C880 C884 1.332 . S
C880 C886 1.504 . S
C881 C882 1.373 . S
C881 C885 1.308 . S
C882 C881 1.373 . S
C882 C883 1.429 . S
C882 H892 0.932 . S
C883 C880 1.358 . S
C883 C882 1.429 . S
C883 H893 0.930 . S
C884 C880 1.332 . S
C884 C885 1.394 . S
C884 H894 0.932 . S
C885 C881 1.308 . S
C885 C884 1.394 . S
C885 H895 0.929 . S
C886 Tb857 2.764 . S
C886 O870 1.239 . S
C886 O871 1.263 . S
C886 C880 1.504 . S
C887 O872 1.236 . S
C887 O873 1.257 . S
H888 C861 0.932 . S
H889 C862 0.930 . S
H890 C863 0.932 . S
H891 C864 0.929 . S
H892 C882 0.932 . S
H893 C883 0.930 . S
H894 C884 0.932 . S
H895 C885 0.929 . S
Tb896 C905 2.764 . S
Tb896 O906 2.325 . S
Tb896 O909 2.303 . S
Tb896 O913 2.322 . S
Tb896 O914 2.349 . S
Tb896 O917 2.415 . S
Tb896 O918 2.399 . S
Tb897 O907 2.322 . S
Tb897 O908 2.349 . S
Tb897 O910 2.415 . S
Tb897 O911 2.399 . S
Tb897 O912 2.325 . S
Tb897 O915 2.303 . S
Tb897 C926 2.764 . S
C898 O914 1.261 . S
C898 O915 1.257 . S
C899 C902 1.358 . S
C899 C903 1.332 . S
C899 C905 1.504 . S
C900 C901 1.373 . S
C900 C904 1.308 . S
C901 C900 1.373 . S
C901 C902 1.429 . S
C901 H928 0.932 . S
C902 C899 1.358 . S
C902 C901 1.429 . S
C902 H929 0.930 . S
C903 C899 1.332 . S
C903 C904 1.394 . S
C903 H930 0.932 . S
C904 C900 1.308 . S
C904 C903 1.394 . S
C904 H931 0.929 . S
C905 Tb896 2.764 . S
C905 C899 1.504 . S
C905 O917 1.239 . S
C905 O918 1.263 . S
O906 Tb896 2.325 . S
O906 C916 1.236 . S
O907 Tb897 2.322 . S
O907 C916 1.257 . S
O908 Tb897 2.349 . S
O908 C919 1.261 . S
O909 Tb896 2.303 . S
O909 C919 1.257 . S
O910 Tb897 2.415 . S
O910 C926 1.239 . S
O911 Tb897 2.399 . S
O911 C926 1.263 . S
O912 Tb897 2.325 . S
O912 C927 1.236 . S
O913 Tb896 2.322 . S
O913 C927 1.257 . S
O914 Tb896 2.349 . S
O914 C898 1.261 . S
O915 Tb897 2.303 . S
O915 C898 1.257 . S
C916 O906 1.236 . S
C916 O907 1.257 . S
O917 Tb896 2.415 . S
O917 C905 1.239 . S
O918 Tb896 2.399 . S
O918 C905 1.263 . S
C919 O908 1.261 . S
C919 O909 1.257 . S
C920 C923 1.358 . S
C920 C924 1.332 . S
C920 C926 1.504 . S
C921 C922 1.373 . S
C921 C925 1.308 . S
C922 C921 1.373 . S
C922 C923 1.429 . S
C922 H932 0.932 . S
C923 C920 1.358 . S
C923 C922 1.429 . S
C923 H933 0.930 . S
C924 C920 1.332 . S
C924 C925 1.394 . S
C924 H934 0.932 . S
C925 C921 1.308 . S
C925 C924 1.394 . S
C925 H935 0.929 . S
C926 Tb897 2.764 . S
C926 O910 1.239 . S
C926 O911 1.263 . S
C926 C920 1.504 . S
C927 O912 1.236 . S
C927 O913 1.257 . S
H928 C901 0.932 . S
H929 C902 0.930 . S
H930 C903 0.932 . S
H931 C904 0.929 . S
H932 C922 0.932 . S
H933 C923 0.930 . S
H934 C924 0.932 . S
H935 C925 0.929 . S
Tb936 C945 2.764 1_455 S
Tb936 O946 2.325 . S
Tb936 O949 2.303 . S
Tb936 O953 2.322 . S
Tb936 O954 2.349 . S
Tb936 O957 2.415 1_455 S
Tb936 O958 2.399 1_455 S
Tb937 O947 2.322 . S
Tb937 O948 2.349 1_554 S
Tb937 O950 2.415 . S
Tb937 O951 2.399 . S
Tb937 O952 2.325 . S
Tb937 O955 2.303 . S
Tb937 C966 2.764 . S
C938 O954 1.261 . S
C938 O955 1.257 . S
C939 C942 1.358 . S
C939 C943 1.332 . S
C939 C945 1.504 . S
C940 C941 1.373 . S
C940 C944 1.308 . S
C941 C940 1.373 . S
C941 C942 1.429 . S
C941 H968 0.932 . S
C942 C939 1.358 . S
C942 C941 1.429 . S
C942 H969 0.930 . S
C943 C939 1.332 . S
C943 C944 1.394 . S
C943 H970 0.932 . S
C944 C940 1.308 . S
C944 C943 1.394 . S
C944 H971 0.929 . S
C945 Tb936 2.764 1_655 S
C945 C939 1.504 . S
C945 O957 1.239 . S
C945 O958 1.263 . S
O946 Tb936 2.325 . S
O946 C956 1.236 . S
O947 Tb937 2.322 . S
O947 C956 1.257 . S
O948 Tb937 2.349 1_556 S
O948 C959 1.261 . S
O949 Tb936 2.303 . S
O949 C959 1.257 1_554 S
O950 Tb937 2.415 . S
O950 C966 1.239 . S
O951 Tb937 2.399 . S
O951 C966 1.263 . S
O952 Tb937 2.325 . S
O952 C967 1.236 . S
O953 Tb936 2.322 . S
O953 C967 1.257 . S
O954 Tb936 2.349 . S
O954 C938 1.261 . S
O955 Tb937 2.303 . S
O955 C938 1.257 . S
C956 O946 1.236 . S
C956 O947 1.257 . S
O957 Tb936 2.415 1_655 S
O957 C945 1.239 . S
O958 Tb936 2.399 1_655 S
O958 C945 1.263 . S
C959 O948 1.261 . S
C959 O949 1.257 1_556 S
C960 C963 1.358 1_554 S
C960 C964 1.332 . S
C960 C966 1.504 . S
C961 C962 1.373 1_554 S
C961 C965 1.308 . S
C962 C961 1.373 1_556 S
C962 C963 1.429 . S
C962 H972 0.932 . S
C963 C960 1.358 1_556 S
C963 C962 1.429 . S
C963 H973 0.930 . S
C964 C960 1.332 . S
C964 C965 1.394 . S
C964 H974 0.932 . S
C965 C961 1.308 . S
C965 C964 1.394 . S
C965 H975 0.929 . S
C966 Tb937 2.764 . S
C966 O950 1.239 . S
C966 O951 1.263 . S
C966 C960 1.504 . S
C967 O952 1.236 . S
C967 O953 1.257 . S
H968 C941 0.932 . S
H969 C942 0.930 . S
H970 C943 0.932 . S
H971 C944 0.929 . S
H972 C962 0.932 . S
H973 C963 0.930 . S
H974 C964 0.932 . S
H975 C965 0.929 . S
C976 C977 1.391 1_655 S
C976 C978 1.394 1_655 S
C976 H992 0.931 . S
C977 C976 1.391 1_455 S
C977 C981 1.376 . S
C978 C976 1.394 1_455 S
C978 C979 1.369 . S
C978 C982 1.531 1_455 S
C979 C978 1.369 . S
C979 C980 1.410 . S
C979 C987 1.503 . S
C980 C979 1.410 . S
C980 C981 1.392 . S
C980 C983 1.511 1_556 S
C981 C977 1.376 . S
C981 C980 1.392 . S
C981 H993 0.929 . S
C982 C978 1.531 1_655 S
C982 H994 0.960 1_655 S
C982 H995 0.962 . S
C982 H996 0.960 . S
C983 C980 1.511 1_554 S
C983 H997 0.961 . S
C983 H998 0.961 . S
C983 H999 0.961 . S
C984 C985 1.370 . S
C984 C986 1.363 . S
C984 H1000 0.931 . S
C985 C984 1.370 . S
C985 C989 1.408 . S
C986 C984 1.363 . S
C986 C987 1.370 1_554 S
C986 C990 1.524 1_455 S
C987 C979 1.503 . S
C987 C986 1.370 1_556 S
C987 C988 1.403 . S
C988 C987 1.403 . S
C988 C989 1.404 1_556 S
C988 C991 1.539 . S
C989 C985 1.408 . S
C989 C988 1.404 1_554 S
C989 H1001 0.940 . S
C990 C986 1.524 1_655 S
C990 H1002 0.956 . S
C990 H1003 0.961 . S
C990 H1004 0.961 . S
C991 C988 1.539 . S
C991 H1005 0.958 . S
C991 H1006 0.961 . S
C991 H1007 0.960 . S
H992 C976 0.931 . S
H993 C981 0.929 . S
H994 C982 0.960 1_455 S
H995 C982 0.962 . S
H996 C982 0.960 . S
H997 C983 0.961 . S
H998 C983 0.961 . S
H999 C983 0.961 . S
H1000 C984 0.931 . S
H1001 C989 0.940 . S
H1002 C990 0.956 . S
H1003 C990 0.961 . S
H1004 C990 0.961 . S
H1005 C991 0.958 . S
H1006 C991 0.961 . S
H1007 C991 0.960 . S
C1008 C1009 1.391 . S
C1008 C1010 1.394 . S
C1008 H1024 0.931 . S
C1009 C1008 1.391 . S
C1009 C1013 1.376 . S
C1010 C1008 1.394 . S
C1010 C1011 1.369 . S
C1010 C1014 1.531 . S
C1011 C1010 1.369 . S
C1011 C1012 1.410 . S
C1011 C1019 1.503 . S
C1012 C1011 1.410 . S
C1012 C1013 1.392 . S
C1012 C1015 1.511 . S
C1013 C1009 1.376 . S
C1013 C1012 1.392 . S
C1013 H1025 0.929 . S
C1014 C1010 1.531 . S
C1014 H1026 0.960 . S
C1014 H1027 0.962 . S
C1014 H1028 0.960 . S
C1015 C1012 1.511 . S
C1015 H1029 0.961 . S
C1015 H1030 0.961 . S
C1015 H1031 0.961 . S
C1016 C1017 1.370 . S
C1016 C1018 1.363 . S
C1016 H1032 0.931 . S
C1017 C1016 1.370 . S
C1017 C1021 1.408 . S
C1018 C1016 1.363 . S
C1018 C1019 1.370 . S
C1018 C1022 1.524 . S
C1019 C1011 1.503 . S
C1019 C1018 1.370 . S
C1019 C1020 1.403 . S
C1020 C1019 1.403 . S
C1020 C1021 1.404 . S
C1020 C1023 1.539 . S
C1021 C1017 1.408 . S
C1021 C1020 1.404 . S
C1021 H1033 0.930 . S
C1022 C1018 1.524 . S
C1022 H1034 0.956 . S
C1022 H1035 0.961 . S
C1022 H1036 0.961 . S
C1023 C1020 1.539 . S
C1023 H1037 0.958 . S
C1023 H1038 0.961 . S
C1023 H1039 0.960 . S
H1024 C1008 0.931 . S
H1025 C1013 0.929 . S
H1026 C1014 0.960 . S
H1027 C1014 0.962 . S
H1028 C1014 0.960 . S
H1029 C1015 0.961 . S
H1030 C1015 0.961 . S
H1031 C1015 0.961 . S
H1032 C1016 0.931 . S
H1033 C1021 0.930 . S
H1034 C1022 0.956 . S
H1035 C1022 0.961 . S
H1036 C1022 0.961 . S
H1037 C1023 0.958 . S
H1038 C1023 0.961 . S
H1039 C1023 0.960 . S
C1040 C1041 1.391 . S
C1040 C1042 1.394 . S
C1040 H1056 0.931 . S
C1041 C1040 1.391 . S
C1041 C1045 1.376 . S
C1042 C1040 1.394 . S
C1042 C1043 1.369 . S
C1042 C1046 1.531 . S
C1043 C1042 1.369 . S
C1043 C1044 1.410 . S
C1043 C1051 1.503 . S
C1044 C1043 1.410 . S
C1044 C1045 1.392 . S
C1044 C1047 1.511 . S
C1045 C1041 1.376 . S
C1045 C1044 1.392 . S
C1045 H1057 0.929 . S
C1046 C1042 1.531 . S
C1046 H1058 0.960 . S
C1046 H1059 0.962 . S
C1046 H1060 0.960 . S
C1047 C1044 1.511 . S
C1047 H1061 0.961 . S
C1047 H1062 0.961 . S
C1047 H1063 0.961 . S
C1048 C1049 1.370 . S
C1048 C1050 1.363 . S
C1048 H1064 0.931 . S
C1049 C1048 1.370 . S
C1049 C1053 1.408 . S
C1050 C1048 1.363 . S
C1050 C1051 1.370 . S
C1050 C1054 1.524 . S
C1051 C1043 1.503 . S
C1051 C1050 1.370 . S
C1051 C1052 1.403 . S
C1052 C1051 1.403 . S
C1052 C1053 1.404 . S
C1052 C1055 1.539 . S
C1053 C1049 1.408 . S
C1053 C1052 1.404 . S
C1053 H1065 0.930 . S
C1054 C1050 1.524 . S
C1054 H1066 0.956 . S
C1054 H1067 0.961 . S
C1054 H1068 0.961 . S
C1055 C1052 1.539 . S
C1055 H1069 0.958 . S
C1055 H1070 0.961 . S
C1055 H1071 0.960 . S
H1056 C1040 0.931 . S
H1057 C1045 0.929 . S
H1058 C1046 0.960 . S
H1059 C1046 0.962 . S
H1060 C1046 0.960 . S
H1061 C1047 0.961 . S
H1062 C1047 0.961 . S
H1063 C1047 0.961 . S
H1064 C1048 0.931 . S
H1065 C1053 0.930 . S
H1066 C1054 0.956 . S
H1067 C1054 0.961 . S
H1068 C1054 0.961 . S
H1069 C1055 0.958 . S
H1070 C1055 0.961 . S
H1071 C1055 0.960 . S
C1072 C1073 1.391 . S
C1072 C1074 1.394 . S
C1072 H1088 0.931 . S
C1073 C1072 1.391 . S
C1073 C1077 1.376 . S
C1074 C1072 1.394 . S
C1074 C1075 1.369 . S
C1074 C1078 1.531 . S
C1075 C1074 1.369 . S
C1075 C1076 1.410 . S
C1075 C1083 1.503 . S
C1076 C1075 1.410 . S
C1076 C1077 1.392 . S
C1076 C1079 1.511 . S
C1077 C1073 1.376 . S
C1077 C1076 1.392 . S
C1077 H1089 0.929 . S
C1078 C1074 1.531 . S
C1078 H1090 0.960 . S
C1078 H1091 0.962 . S
C1078 H1092 0.960 . S
C1079 C1076 1.511 . S
C1079 H1093 0.961 . S
C1079 H1094 0.961 . S
C1079 H1095 0.961 . S
C1080 C1081 1.370 . S
C1080 C1082 1.363 . S
C1080 H1096 0.931 . S
C1081 C1080 1.370 . S
C1081 C1085 1.408 . S
C1082 C1080 1.363 . S
C1082 C1083 1.370 . S
C1082 C1086 1.524 . S
C1083 C1075 1.503 . S
C1083 C1082 1.370 . S
C1083 C1084 1.403 . S
C1084 C1083 1.403 . S
C1084 C1085 1.404 . S
C1084 C1087 1.539 . S
C1085 C1081 1.408 . S
C1085 C1084 1.404 . S
C1085 H1097 0.930 . S
C1086 C1082 1.524 . S
C1086 H1098 0.956 . S
C1086 H1099 0.961 . S
C1086 H1100 0.961 . S
C1087 C1084 1.539 . S
C1087 H1101 0.958 . S
C1087 H1102 0.961 . S
C1087 H1103 0.960 . S
H1088 C1072 0.931 . S
H1089 C1077 0.929 . S
H1090 C1078 0.960 . S
H1091 C1078 0.962 . S
H1092 C1078 0.960 . S
H1093 C1079 0.961 . S
H1094 C1079 0.961 . S
H1095 C1079 0.961 . S
H1096 C1080 0.931 . S
H1097 C1085 0.930 . S
H1098 C1086 0.956 . S
H1099 C1086 0.961 . S
H1100 C1086 0.961 . S
H1101 C1087 0.958 . S
H1102 C1087 0.961 . S
H1103 C1087 0.960 . S
C1104 C1105 1.391 . S
C1104 C1106 1.394 . S
C1104 H1120 0.931 . S
C1105 C1104 1.391 . S
C1105 C1109 1.376 . S
C1106 C1104 1.394 . S
C1106 C1107 1.369 . S
C1106 C1110 1.531 . S
C1107 C1106 1.369 . S
C1107 C1108 1.410 . S
C1107 C1115 1.503 . S
C1108 C1107 1.410 . S
C1108 C1109 1.392 . S
C1108 C1111 1.511 . S
C1109 C1105 1.376 . S
C1109 C1108 1.392 . S
C1109 H1121 0.929 . S
C1110 C1106 1.531 . S
C1110 H1122 0.960 . S
C1110 H1123 0.962 . S
C1110 H1124 0.960 . S
C1111 C1108 1.511 . S
C1111 H1125 0.961 . S
C1111 H1126 0.961 . S
C1111 H1127 0.961 . S
C1112 C1113 1.370 . S
C1112 C1114 1.363 . S
C1112 H1128 0.931 . S
C1113 C1112 1.370 . S
C1113 C1117 1.408 . S
C1114 C1112 1.363 . S
C1114 C1115 1.370 . S
C1114 C1118 1.524 . S
C1115 C1107 1.503 . S
C1115 C1114 1.370 . S
C1115 C1116 1.403 . S
C1116 C1115 1.403 . S
C1116 C1117 1.404 . S
C1116 C1119 1.539 . S
C1117 C1113 1.408 . S
C1117 C1116 1.404 . S
C1117 H1129 0.930 . S
C1118 C1114 1.524 . S
C1118 H1130 0.956 . S
C1118 H1131 0.961 . S
C1118 H1132 0.961 . S
C1119 C1116 1.539 . S
C1119 H1133 0.958 . S
C1119 H1134 0.972 . S
C1119 H1135 0.960 . S
H1120 C1104 0.931 . S
H1121 C1109 0.929 . S
H1122 C1110 0.960 . S
H1123 C1110 0.962 . S
H1124 C1110 0.960 . S
H1125 C1111 0.961 . S
H1126 C1111 0.961 . S
H1127 C1111 0.961 . S
H1128 C1112 0.931 . S
H1129 C1117 0.930 . S
H1130 C1118 0.956 . S
H1131 C1118 0.961 . S
H1132 C1118 0.961 . S
H1133 C1119 0.958 . S
H1134 C1119 0.972 . S
H1135 C1119 0.960 . S
C1136 C1137 1.391 . S
C1136 C1138 1.394 . S
C1136 H1152 0.931 . S
C1137 C1136 1.391 . S
C1137 C1141 1.376 . S
C1138 C1136 1.394 . S
C1138 C1139 1.369 . S
C1138 C1142 1.531 . S
C1139 C1138 1.369 . S
C1139 C1140 1.410 . S
C1139 C1147 1.503 . S
C1140 C1139 1.410 . S
C1140 C1141 1.392 . S
C1140 C1143 1.511 . S
C1141 C1137 1.376 . S
C1141 C1140 1.392 . S
C1141 H1153 0.929 . S
C1142 C1138 1.531 . S
C1142 H1154 0.960 . S
C1142 H1155 0.962 . S
C1142 H1156 0.960 . S
C1143 C1140 1.511 . S
C1143 H1157 0.961 . S
C1143 H1158 0.961 . S
C1143 H1159 0.961 . S
C1144 C1145 1.370 . S
C1144 C1146 1.363 . S
C1144 H1160 0.931 . S
C1145 C1144 1.370 . S
C1145 C1149 1.408 . S
C1146 C1144 1.363 . S
C1146 C1147 1.370 . S
C1146 C1150 1.524 . S
C1147 C1139 1.503 . S
C1147 C1146 1.370 . S
C1147 C1148 1.403 . S
C1148 C1147 1.403 . S
C1148 C1149 1.404 . S
C1148 C1151 1.539 . S
C1149 C1145 1.408 . S
C1149 C1148 1.404 . S
C1149 H1161 0.930 . S
C1150 C1146 1.524 . S
C1150 H1162 0.956 . S
C1150 H1163 0.961 . S
C1150 H1164 0.961 . S
C1151 C1148 1.539 . S
C1151 H1165 0.958 . S
C1151 H1166 0.961 . S
C1151 H1167 0.960 . S
H1152 C1136 0.931 . S
H1153 C1141 0.929 . S
H1154 C1142 0.960 . S
H1155 C1142 0.962 . S
H1156 C1142 0.960 . S
H1157 C1143 0.961 . S
H1158 C1143 0.961 . S
H1159 C1143 0.961 . S
H1160 C1144 0.931 . S
H1161 C1149 0.930 . S
H1162 C1150 0.956 . S
H1163 C1150 0.961 . S
H1164 C1150 0.961 . S
H1165 C1151 0.958 . S
H1166 C1151 0.961 . S
H1167 C1151 0.960 . S
C1168 C1169 1.391 . S
C1168 C1170 1.394 . S
C1168 H1184 0.931 . S
C1169 C1168 1.391 . S
C1169 C1173 1.376 . S
C1170 C1168 1.394 . S
C1170 C1171 1.369 . S
C1170 C1174 1.531 . S
C1171 C1170 1.369 . S
C1171 C1172 1.410 . S
C1171 C1179 1.503 . S
C1172 C1171 1.410 . S
C1172 C1173 1.392 . S
C1172 C1175 1.511 . S
C1173 C1169 1.376 . S
C1173 C1172 1.392 . S
C1173 H1185 0.929 . S
C1174 C1170 1.531 . S
C1174 H1186 0.960 . S
C1174 H1187 0.962 . S
C1174 H1188 0.960 . S
C1175 C1172 1.511 . S
C1175 H1189 0.961 . S
C1175 H1190 0.961 . S
C1175 H1191 0.961 . S
C1176 C1177 1.370 . S
C1176 C1178 1.363 . S
C1176 H1192 0.931 . S
C1177 C1176 1.370 . S
C1177 C1181 1.408 . S
C1178 C1176 1.363 . S
C1178 C1179 1.370 . S
C1178 C1182 1.524 . S
C1179 C1171 1.503 . S
C1179 C1178 1.370 . S
C1179 C1180 1.403 . S
C1180 C1179 1.403 . S
C1180 C1181 1.404 . S
C1180 C1183 1.539 . S
C1181 C1177 1.408 . S
C1181 C1180 1.404 . S
C1181 H1193 0.930 . S
C1182 C1178 1.524 . S
C1182 H1194 0.956 . S
C1182 H1195 0.961 . S
C1182 H1196 0.961 . S
C1183 C1180 1.539 . S
C1183 H1197 0.958 . S
C1183 H1198 0.961 . S
C1183 H1199 0.960 . S
H1184 C1168 0.931 . S
H1185 C1173 0.929 . S
H1186 C1174 0.960 . S
H1187 C1174 0.962 . S
H1188 C1174 0.960 . S
H1189 C1175 0.961 . S
H1190 C1175 0.961 . S
H1191 C1175 0.961 . S
H1192 C1176 0.931 . S
H1193 C1181 0.930 . S
H1194 C1182 0.956 . S
H1195 C1182 0.961 . S
H1196 C1182 0.961 . S
H1197 C1183 0.958 . S
H1198 C1183 0.961 . S
H1199 C1183 0.960 . S
C1200 C1201 1.391 . S
C1200 C1202 1.394 . S
C1200 H1216 0.931 . S
C1201 C1200 1.391 . S
C1201 C1205 1.376 . S
C1202 C1200 1.394 . S
C1202 C1203 1.369 . S
C1202 C1206 1.531 . S
C1203 C1202 1.369 . S
C1203 C1204 1.410 . S
C1203 C1211 1.503 . S
C1204 C1203 1.410 . S
C1204 C1205 1.392 . S
C1204 C1207 1.511 . S
C1205 C1201 1.376 . S
C1205 C1204 1.392 . S
C1205 H1217 0.929 . S
C1206 C1202 1.531 . S
C1206 H1218 0.960 . S
C1206 H1219 0.962 . S
C1206 H1220 0.960 . S
C1207 C1204 1.511 . S
C1207 H1221 0.961 . S
C1207 H1222 0.961 . S
C1207 H1223 0.961 . S
C1208 C1209 1.370 . S
C1208 C1210 1.363 . S
C1208 H1224 0.931 . S
C1209 C1208 1.370 . S
C1209 C1213 1.408 . S
C1210 C1208 1.363 . S
C1210 C1211 1.370 . S
C1210 C1214 1.524 . S
C1211 C1203 1.503 . S
C1211 C1210 1.370 . S
C1211 C1212 1.403 . S
C1212 C1211 1.403 . S
C1212 C1213 1.404 . S
C1212 C1215 1.539 . S
C1213 C1209 1.408 . S
C1213 C1212 1.404 . S
C1213 H1225 0.930 . S
C1214 C1210 1.524 . S
C1214 H1226 0.956 . S
C1214 H1227 0.961 . S
C1214 H1228 0.961 . S
C1215 C1212 1.539 . S
C1215 H1229 0.958 . S
C1215 H1230 0.961 . S
C1215 H1231 0.960 . S
H1216 C1200 0.931 . S
H1217 C1205 0.929 . S
H1218 C1206 0.960 . S
H1219 C1206 0.962 . S
H1220 C1206 0.960 . S
H1221 C1207 0.961 . S
H1222 C1207 0.961 . S
H1223 C1207 0.961 . S
H1224 C1208 0.931 . S
H1225 C1213 0.930 . S
H1226 C1214 0.956 . S
H1227 C1214 0.961 . S
H1228 C1214 0.961 . S
H1229 C1215 0.958 . S
H1230 C1215 0.961 . S
H1231 C1215 0.960 . S
C1232 C1233 1.391 . S
C1232 C1234 1.394 . S
C1232 H1248 0.931 . S
C1233 C1232 1.391 . S
C1233 C1237 1.376 1_545 S
C1234 C1232 1.394 . S
C1234 C1235 1.369 . S
C1234 C1238 1.531 . S
C1235 C1234 1.369 . S
C1235 C1236 1.407 . S
C1235 C1243 1.503 . S
C1236 C1235 1.407 . S
C1236 C1237 1.393 1_545 S
C1236 C1239 1.514 1_545 S
C1237 C1233 1.376 1_565 S
C1237 C1236 1.393 1_565 S
C1237 H1249 0.929 . S
C1238 C1234 1.531 . S
C1238 H1250 0.971 . S
C1238 H1251 0.962 . S
C1238 H1252 0.960 . S
C1239 C1236 1.514 1_565 S
C1239 H1253 0.961 . S
C1239 H1254 0.961 . S
C1239 H1255 0.961 . S
C1240 C1241 1.411 . S
C1240 C1242 1.338 1_455 S
C1240 H1256 0.916 1_455 S
C1241 C1240 1.411 . S
C1241 C1245 1.408 . S
C1242 C1240 1.338 1_655 S
C1242 C1243 1.370 . S
C1242 C1246 1.524 . S
C1243 C1235 1.503 . S
C1243 C1242 1.370 . S
C1243 C1244 1.403 1_655 S
C1244 C1243 1.403 1_455 S
C1244 C1245 1.404 . S
C1244 C1247 1.539 . S
C1245 C1241 1.408 . S
C1245 C1244 1.404 . S
C1245 H1257 0.930 . S
C1246 C1242 1.524 . S
C1246 H1258 0.956 . S
C1246 H1259 0.961 . S
C1246 H1260 0.961 . S
C1247 C1244 1.539 . S
C1247 H1261 0.958 . S
C1247 H1262 0.961 . S
C1247 H1263 0.960 . S
H1248 C1232 0.931 . S
H1249 C1237 0.929 . S
H1250 C1238 0.971 . S
H1251 C1238 0.962 . S
H1252 C1238 0.960 . S
H1253 C1239 0.961 . S
H1254 C1239 0.961 . S
H1255 C1239 0.961 . S
H1256 C1240 0.916 1_655 S
H1257 C1245 0.930 . S
H1258 C1246 0.956 . S
H1259 C1246 0.961 . S
H1260 C1246 0.961 . S
H1261 C1247 0.958 . S
H1262 C1247 0.961 . S
H1263 C1247 0.960 . S
C1264 C1265 1.391 . S
C1264 C1266 1.394 . S
C1264 H1280 0.931 . S
C1265 C1264 1.391 . S
C1265 C1269 1.376 . S
C1266 C1264 1.394 . S
C1266 C1267 1.369 . S
C1266 C1270 1.531 . S
C1267 C1266 1.369 . S
C1267 C1268 1.410 . S
C1267 C1275 1.503 . S
C1268 C1267 1.410 . S
C1268 C1269 1.392 . S
C1268 C1271 1.511 . S
C1269 C1265 1.376 . S
C1269 C1268 1.392 . S
C1269 H1281 0.929 . S
C1270 C1266 1.531 . S
C1270 H1282 0.960 . S
C1270 H1283 0.962 . S
C1270 H1284 0.960 . S
C1271 C1268 1.511 . S
C1271 H1285 0.961 . S
C1271 H1286 0.961 . S
C1271 H1287 0.961 . S
C1272 C1273 1.370 . S
C1272 C1274 1.363 . S
C1272 H1288 0.931 . S
C1273 C1272 1.370 . S
C1273 C1277 1.408 . S
C1274 C1272 1.363 . S
C1274 C1275 1.370 . S
C1274 C1278 1.524 . S
C1275 C1267 1.503 . S
C1275 C1274 1.370 . S
C1275 C1276 1.403 . S
C1276 C1275 1.403 . S
C1276 C1277 1.404 . S
C1276 C1279 1.539 . S
C1277 C1273 1.408 . S
C1277 C1276 1.404 . S
C1277 H1289 0.930 . S
C1278 C1274 1.524 . S
C1278 H1290 0.956 . S
C1278 H1291 0.961 . S
C1278 H1292 0.961 . S
C1279 C1276 1.539 . S
C1279 H1293 0.958 . S
C1279 H1294 0.961 . S
C1279 H1295 0.960 . S
H1280 C1264 0.931 . S
H1281 C1269 0.929 . S
H1282 C1270 0.960 . S
H1283 C1270 0.962 . S
H1284 C1270 0.960 . S
H1285 C1271 0.961 . S
H1286 C1271 0.961 . S
H1287 C1271 0.961 . S
H1288 C1272 0.931 . S
H1289 C1277 0.930 . S
H1290 C1278 0.956 . S
H1291 C1278 0.961 . S
H1292 C1278 0.961 . S
H1293 C1279 0.958 . S
H1294 C1279 0.961 . S
H1295 C1279 0.960 . S
C1296 C1297 1.391 . S
C1296 C1298 1.394 . S
C1296 H1312 0.931 . S
C1297 C1296 1.391 . S
C1297 C1301 1.376 . S
C1298 C1296 1.394 . S
C1298 C1299 1.369 . S
C1298 C1302 1.531 . S
C1299 C1298 1.369 . S
C1299 C1300 1.410 . S
C1299 C1307 1.503 . S
C1300 C1299 1.410 . S
C1300 C1301 1.392 . S
C1300 C1303 1.511 . S
C1301 C1297 1.376 . S
C1301 C1300 1.392 . S
C1301 H1313 0.929 . S
C1302 C1298 1.531 . S
C1302 H1314 0.960 . S
C1302 H1315 0.962 . S
C1302 H1316 0.960 . S
C1303 C1300 1.511 . S
C1303 H1317 0.961 . S
C1303 H1318 0.961 . S
C1303 H1319 0.961 . S
C1304 C1305 1.370 . S
C1304 C1306 1.363 . S
C1304 H1320 0.931 . S
C1305 C1304 1.370 . S
C1305 C1309 1.408 . S
C1306 C1304 1.363 . S
C1306 C1307 1.370 . S
C1306 C1310 1.524 . S
C1307 C1299 1.503 . S
C1307 C1306 1.370 . S
C1307 C1308 1.403 . S
C1308 C1307 1.403 . S
C1308 C1309 1.404 . S
C1308 C1311 1.539 1_545 S
C1309 C1305 1.408 . S
C1309 C1308 1.404 . S
C1309 H1321 0.930 1_545 S
C1310 C1306 1.524 . S
C1310 H1322 0.956 . S
C1310 H1323 0.961 . S
C1310 H1324 0.961 . S
C1311 C1308 1.539 1_565 S
C1311 H1325 0.958 . S
C1311 H1326 0.961 . S
C1311 H1327 0.960 . S
H1312 C1296 0.931 . S
H1313 C1301 0.929 . S
H1314 C1302 0.960 . S
H1315 C1302 0.962 . S
H1316 C1302 0.960 . S
H1317 C1303 0.961 . S
H1318 C1303 0.961 . S
H1319 C1303 0.961 . S
H1320 C1304 0.931 . S
H1321 C1309 0.930 1_565 S
H1322 C1310 0.956 . S
H1323 C1310 0.961 . S
H1324 C1310 0.961 . S
H1325 C1311 0.958 . S
H1326 C1311 0.961 . S
H1327 C1311 0.960 . S
C1328 C1329 1.391 . S
C1328 C1330 1.394 . S
C1328 H1344 0.931 . S
C1329 C1328 1.391 . S
C1329 C1333 1.376 . S
C1330 C1328 1.394 . S
C1330 C1331 1.369 . S
C1330 C1334 1.531 . S
C1331 C1330 1.369 . S
C1331 C1332 1.410 . S
C1331 C1339 1.503 . S
C1332 C1331 1.410 . S
C1332 C1333 1.392 . S
C1332 C1335 1.511 . S
C1333 C1329 1.376 . S
C1333 C1332 1.392 . S
C1333 H1345 0.929 . S
C1334 C1330 1.531 . S
C1334 H1346 0.960 . S
C1334 H1347 0.962 . S
C1334 H1348 0.960 . S
C1335 C1332 1.511 . S
C1335 H1349 0.961 . S
C1335 H1350 0.961 . S
C1335 H1351 0.961 . S
C1336 C1337 1.370 . S
C1336 C1338 1.363 . S
C1336 H1352 0.931 . S
C1337 C1336 1.370 . S
C1337 C1341 1.408 . S
C1338 C1336 1.363 . S
C1338 C1339 1.370 . S
C1338 C1342 1.524 . S
C1339 C1331 1.503 . S
C1339 C1338 1.370 . S
C1339 C1340 1.403 . S
C1340 C1339 1.403 . S
C1340 C1341 1.404 . S
C1340 C1343 1.539 . S
C1341 C1337 1.408 . S
C1341 C1340 1.404 . S
C1341 H1353 0.930 . S
C1342 C1338 1.524 . S
C1342 H1354 0.956 . S
C1342 H1355 0.961 . S
C1342 H1356 0.961 . S
C1343 C1340 1.539 . S
C1343 H1357 0.958 . S
C1343 H1358 0.961 . S
C1343 H1359 0.960 . S
H1344 C1328 0.931 . S
H1345 C1333 0.929 . S
H1346 C1334 0.960 . S
H1347 C1334 0.962 . S
H1348 C1334 0.960 . S
H1349 C1335 0.961 . S
H1350 C1335 0.961 . S
H1351 C1335 0.961 . S
H1352 C1336 0.931 . S
H1353 C1341 0.930 . S
H1354 C1342 0.956 . S
H1355 C1342 0.961 . S
H1356 C1342 0.961 . S
H1357 C1343 0.958 . S
H1358 C1343 0.961 . S
H1359 C1343 0.960 . S
C1360 C1361 1.391 . S
C1360 C1362 1.394 . S
C1360 H1376 0.931 . S
C1361 C1360 1.391 . S
C1361 C1365 1.376 1_545 S
C1362 C1360 1.394 . S
C1362 C1363 1.369 . S
C1362 C1366 1.531 . S
C1363 C1362 1.369 . S
C1363 C1364 1.410 1_545 S
C1363 C1371 1.503 . S
C1364 C1363 1.410 1_565 S
C1364 C1365 1.392 . S
C1364 C1367 1.511 . S
C1365 C1361 1.376 1_565 S
C1365 C1364 1.392 . S
C1365 H1377 0.929 . S
C1366 C1362 1.531 . S
C1366 H1378 0.960 . S
C1366 H1379 0.962 . S
C1366 H1380 0.960 . S
C1367 C1364 1.511 . S
C1367 H1381 0.961 . S
C1367 H1382 0.961 . S
C1367 H1383 0.961 . S
C1368 C1369 1.370 . S
C1368 C1370 1.355 1_455 S
C1368 H1384 0.931 . S
C1369 C1368 1.370 . S
C1369 C1373 1.408 1_455 S
C1370 C1368 1.355 1_655 S
C1370 C1371 1.387 . S
C1370 C1374 1.516 1_655 S
C1371 C1363 1.503 . S
C1371 C1370 1.387 . S
C1371 C1372 1.403 . S
C1372 C1371 1.403 . S
C1372 C1373 1.404 . S
C1372 C1375 1.539 . S
C1373 C1369 1.408 1_655 S
C1373 C1372 1.404 . S
C1373 H1385 0.930 . S
C1374 C1370 1.516 1_455 S
C1374 H1386 0.956 . S
C1374 H1387 0.961 . S
C1374 H1388 0.961 . S
C1375 C1372 1.539 . S
C1375 H1389 0.958 . S
C1375 H1390 0.961 1_545 S
C1375 H1391 0.960 1_545 S
H1376 C1360 0.931 . S
H1377 C1365 0.929 . S
H1378 C1366 0.960 . S
H1379 C1366 0.962 . S
H1380 C1366 0.960 . S
H1381 C1367 0.961 . S
H1382 C1367 0.961 . S
H1383 C1367 0.961 . S
H1384 C1368 0.931 . S
H1385 C1373 0.930 . S
H1386 C1374 0.956 . S
H1387 C1374 0.961 . S
H1388 C1374 0.961 . S
H1389 C1375 0.958 . S
H1390 C1375 0.961 1_565 S
H1391 C1375 0.960 1_565 S
C1392 C1393 1.391 . S
C1392 C1394 1.394 . S
C1392 H1408 0.931 . S
C1393 C1392 1.391 . S
C1393 C1397 1.376 . S
C1394 C1392 1.394 . S
C1394 C1395 1.369 . S
C1394 C1398 1.531 . S
C1395 C1394 1.369 . S
C1395 C1396 1.410 . S
C1395 C1403 1.503 . S
C1396 C1395 1.410 . S
C1396 C1397 1.392 . S
C1396 C1399 1.511 . S
C1397 C1393 1.376 . S
C1397 C1396 1.392 . S
C1397 H1409 0.929 . S
C1398 C1394 1.531 . S
C1398 H1410 0.960 . S
C1398 H1411 0.962 . S
C1398 H1412 0.960 . S
C1399 C1396 1.511 . S
C1399 H1413 0.961 . S
C1399 H1414 0.961 . S
C1399 H1415 0.961 . S
C1400 C1401 1.370 . S
C1400 C1402 1.363 . S
C1400 H1416 0.931 . S
C1401 C1400 1.370 . S
C1401 C1405 1.408 . S
C1402 C1400 1.363 . S
C1402 C1403 1.370 . S
C1402 C1406 1.524 . S
C1403 C1395 1.503 . S
C1403 C1402 1.370 . S
C1403 C1404 1.403 . S
C1404 C1403 1.403 . S
C1404 C1405 1.404 . S
C1404 C1407 1.539 . S
C1405 C1401 1.408 . S
C1405 C1404 1.404 . S
C1405 H1417 0.930 . S
C1406 C1402 1.524 . S
C1406 H1418 0.956 . S
C1406 H1419 0.961 . S
C1406 H1420 0.961 . S
C1407 C1404 1.539 . S
C1407 H1421 0.958 . S
C1407 H1422 0.961 . S
C1407 H1423 0.960 . S
H1408 C1392 0.931 . S
H1409 C1397 0.929 . S
H1410 C1398 0.960 . S
H1411 C1398 0.962 . S
H1412 C1398 0.960 . S
H1413 C1399 0.961 . S
H1414 C1399 0.961 . S
H1415 C1399 0.961 . S
H1416 C1400 0.931 . S
H1417 C1405 0.930 . S
H1418 C1406 0.956 . S
H1419 C1406 0.961 . S
H1420 C1406 0.961 . S
H1421 C1407 0.958 . S
H1422 C1407 0.961 . S
H1423 C1407 0.960 . S
C1424 C1425 1.391 . S
C1424 C1426 1.394 . S
C1424 H1440 0.931 . S
C1425 C1424 1.391 . S
C1425 C1429 1.376 . S
C1426 C1424 1.394 . S
C1426 C1427 1.369 . S
C1426 C1430 1.531 . S
C1427 C1426 1.369 . S
C1427 C1428 1.410 . S
C1427 C1435 1.503 . S
C1428 C1427 1.410 . S
C1428 C1429 1.392 . S
C1428 C1431 1.511 . S
C1429 C1425 1.376 . S
C1429 C1428 1.392 . S
C1429 H1441 0.929 . S
C1430 C1426 1.531 . S
C1430 H1442 0.960 . S
C1430 H1443 0.962 . S
C1430 H1444 0.960 . S
C1431 C1428 1.511 . S
C1431 H1445 0.961 . S
C1431 H1446 0.961 . S
C1431 H1447 0.961 . S
C1432 C1433 1.370 . S
C1432 C1434 1.363 . S
C1432 H1448 0.931 . S
C1433 C1432 1.370 . S
C1433 C1437 1.408 . S
C1434 C1432 1.363 . S
C1434 C1435 1.370 . S
C1434 C1438 1.524 . S
C1435 C1427 1.503 . S
C1435 C1434 1.370 . S
C1435 C1436 1.403 . S
C1436 C1435 1.403 . S
C1436 C1437 1.404 . S
C1436 C1439 1.539 . S
C1437 C1433 1.408 . S
C1437 C1436 1.404 . S
C1437 H1449 0.930 . S
C1438 C1434 1.524 . S
C1438 H1450 0.956 . S
C1438 H1451 0.961 1_545 S
C1438 H1452 0.961 1_545 S
C1439 C1436 1.539 . S
C1439 H1453 0.958 . S
C1439 H1454 0.961 . S
C1439 H1455 0.960 . S
H1440 C1424 0.931 . S
H1441 C1429 0.929 . S
H1442 C1430 0.960 . S
H1443 C1430 0.962 . S
H1444 C1430 0.960 . S
H1445 C1431 0.961 . S
H1446 C1431 0.961 . S
H1447 C1431 0.961 . S
H1448 C1432 0.931 . S
H1449 C1437 0.930 . S
H1450 C1438 0.956 . S
H1451 C1438 0.961 1_565 S
H1452 C1438 0.961 1_565 S
H1453 C1439 0.958 . S
H1454 C1439 0.961 . S
H1455 C1439 0.960 . S
C1456 C1457 1.391 . S
C1456 C1458 1.394 . S
C1456 H1472 0.931 . S
C1457 C1456 1.391 . S
C1457 C1461 1.376 . S
C1458 C1456 1.394 . S
C1458 C1459 1.369 . S
C1458 C1462 1.531 . S
C1459 C1458 1.369 . S
C1459 C1460 1.410 . S
C1459 C1467 1.503 . S
C1460 C1459 1.410 . S
C1460 C1461 1.392 . S
C1460 C1463 1.511 . S
C1461 C1457 1.376 . S
C1461 C1460 1.392 . S
C1461 H1473 0.929 . S
C1462 C1458 1.531 . S
C1462 H1474 0.960 . S
C1462 H1475 0.962 . S
C1462 H1476 0.960 . S
C1463 C1460 1.511 . S
C1463 H1477 0.961 . S
C1463 H1478 0.961 . S
C1463 H1479 0.961 . S
C1464 C1465 1.370 . S
C1464 C1466 1.363 . S
C1464 H1480 0.931 . S
C1465 C1464 1.370 . S
C1465 C1469 1.408 . S
C1466 C1464 1.363 . S
C1466 C1467 1.370 . S
C1466 C1470 1.524 . S
C1467 C1459 1.503 . S
C1467 C1466 1.370 . S
C1467 C1468 1.403 . S
C1468 C1467 1.403 . S
C1468 C1469 1.404 . S
C1468 C1471 1.539 . S
C1469 C1465 1.408 . S
C1469 C1468 1.404 . S
C1469 H1481 0.930 . S
C1470 C1466 1.524 . S
C1470 H1482 0.956 . S
C1470 H1483 0.961 . S
C1470 H1484 0.961 . S
C1471 C1468 1.539 . S
C1471 H1485 0.958 . S
C1471 H1486 0.961 . S
C1471 H1487 0.960 . S
H1472 C1456 0.931 . S
H1473 C1461 0.929 . S
H1474 C1462 0.960 . S
H1475 C1462 0.962 . S
H1476 C1462 0.960 . S
H1477 C1463 0.961 . S
H1478 C1463 0.961 . S
H1479 C1463 0.961 . S
H1480 C1464 0.931 . S
H1481 C1469 0.930 . S
H1482 C1470 0.956 . S
H1483 C1470 0.961 . S
H1484 C1470 0.961 . S
H1485 C1471 0.958 . S
H1486 C1471 0.961 . S
H1487 C1471 0.960 . S
C1488 C1489 1.380 1_556 S
C1488 C1490 1.375 1_556 S
C1488 H1504 0.960 . S
C1489 C1488 1.380 1_554 S
C1489 C1493 1.376 . S
C1490 C1488 1.375 1_554 S
C1490 C1491 1.369 . S
C1490 C1494 1.531 . S
C1491 C1490 1.369 . S
C1491 C1492 1.410 . S
C1491 C1499 1.503 . S
C1492 C1491 1.410 . S
C1492 C1493 1.392 . S
C1492 C1495 1.511 . S
C1493 C1489 1.376 . S
C1493 C1492 1.392 . S
C1493 H1505 0.929 . S
C1494 C1490 1.531 . S
C1494 H1506 0.960 . S
C1494 H1507 0.962 1_554 S
C1494 H1508 0.960 1_554 S
C1495 C1492 1.511 . S
C1495 H1509 0.961 1_565 S
C1495 H1510 0.961 1_565 S
C1495 H1511 0.961 . S
C1496 C1497 1.370 . S
C1496 C1498 1.363 . S
C1496 H1512 0.931 . S
C1497 C1496 1.370 . S
C1497 C1501 1.408 1_545 S
C1498 C1496 1.363 . S
C1498 C1499 1.370 1_545 S
C1498 C1502 1.524 . S
C1499 C1491 1.503 . S
C1499 C1498 1.370 1_565 S
C1499 C1500 1.403 . S
C1500 C1499 1.403 . S
C1500 C1501 1.404 . S
C1500 C1503 1.539 . S
C1501 C1497 1.408 1_565 S
C1501 C1500 1.404 . S
C1501 H1513 0.930 . S
C1502 C1498 1.524 . S
C1502 H1514 0.956 . S
C1502 H1515 0.961 . S
C1502 H1516 0.961 . S
C1503 C1500 1.539 . S
C1503 H1517 0.958 . S
C1503 H1518 0.961 . S
C1503 H1519 0.960 . S
H1504 C1488 0.960 . S
H1505 C1493 0.929 . S
H1506 C1494 0.960 . S
H1507 C1494 0.962 1_556 S
H1508 C1494 0.960 1_556 S
H1509 C1495 0.961 1_545 S
H1510 C1495 0.961 1_545 S
H1511 C1495 0.961 . S
H1512 C1496 0.931 . S
H1513 C1501 0.930 . S
H1514 C1502 0.956 . S
H1515 C1502 0.961 . S
H1516 C1502 0.961 . S
H1517 C1503 0.958 . S
H1518 C1503 0.961 . S
H1519 C1503 0.960 . S
C1520 C1521 1.391 . S
C1520 C1522 1.394 . S
C1520 H1536 0.931 . S
C1521 C1520 1.391 . S
C1521 C1525 1.376 . S
C1522 C1520 1.394 . S
C1522 C1523 1.369 . S
C1522 C1526 1.531 1_554 S
C1523 C1522 1.369 . S
C1523 C1524 1.410 . S
C1523 C1531 1.503 . S
C1524 C1523 1.410 . S
C1524 C1525 1.392 . S
C1524 C1527 1.511 . S
C1525 C1521 1.376 . S
C1525 C1524 1.392 . S
C1525 H1537 0.929 . S
C1526 C1522 1.531 1_556 S
C1526 H1538 0.960 . S
C1526 H1539 0.962 1_556 S
C1526 H1540 0.960 . S
C1527 C1524 1.511 . S
C1527 H1541 0.961 . S
C1527 H1542 0.961 . S
C1527 H1543 0.961 . S
C1528 C1529 1.370 . S
C1528 C1530 1.363 . S
C1528 H1544 0.931 . S
C1529 C1528 1.370 . S
C1529 C1533 1.408 . S
C1530 C1528 1.363 . S
C1530 C1531 1.370 . S
C1530 C1534 1.524 . S
C1531 C1523 1.503 . S
C1531 C1530 1.370 . S
C1531 C1532 1.403 . S
C1532 C1531 1.403 . S
C1532 C1533 1.404 . S
C1532 C1535 1.539 1_554 S
C1533 C1529 1.408 . S
C1533 C1532 1.404 . S
C1533 H1545 0.930 . S
C1534 C1530 1.524 . S
C1534 H1546 0.956 . S
C1534 H1547 0.961 . S
C1534 H1548 0.961 . S
C1535 C1532 1.539 1_556 S
C1535 H1549 0.958 . S
C1535 H1550 0.961 . S
C1535 H1551 0.960 1_556 S
H1536 C1520 0.931 . S
H1537 C1525 0.929 . S
H1538 C1526 0.960 . S
H1539 C1526 0.962 1_554 S
H1540 C1526 0.960 . S
H1541 C1527 0.961 . S
H1542 C1527 0.961 . S
H1543 C1527 0.961 . S
H1544 C1528 0.931 . S
H1545 C1533 0.930 . S
H1546 C1534 0.956 . S
H1547 C1534 0.961 . S
H1548 C1534 0.961 . S
H1549 C1535 0.958 . S
H1550 C1535 0.961 . S
H1551 C1535 0.960 1_554 S
C1552 C1553 1.391 . S
C1552 C1554 1.394 . S
C1552 H1568 0.931 . S
C1553 C1552 1.391 . S
C1553 C1557 1.376 . S
C1554 C1552 1.394 . S
C1554 C1555 1.369 . S
C1554 C1558 1.531 . S
C1555 C1554 1.369 . S
C1555 C1556 1.410 . S
C1555 C1563 1.503 . S
C1556 C1555 1.410 . S
C1556 C1557 1.392 . S
C1556 C1559 1.511 . S
C1557 C1553 1.376 . S
C1557 C1556 1.392 . S
C1557 H1569 0.929 . S
C1558 C1554 1.531 . S
C1558 H1570 0.960 . S
C1558 H1571 0.962 . S
C1558 H1572 0.960 . S
C1559 C1556 1.511 . S
C1559 H1573 0.961 . S
C1559 H1574 0.961 . S
C1559 H1575 0.961 . S
C1560 C1561 1.370 . S
C1560 C1562 1.363 . S
C1560 H1576 0.931 . S
C1561 C1560 1.370 . S
C1561 C1565 1.408 . S
C1562 C1560 1.363 . S
C1562 C1563 1.370 . S
C1562 C1566 1.524 . S
C1563 C1555 1.503 . S
C1563 C1562 1.370 . S
C1563 C1564 1.403 . S
C1564 C1563 1.403 . S
C1564 C1565 1.404 . S
C1564 C1567 1.539 . S
C1565 C1561 1.408 . S
C1565 C1564 1.404 . S
C1565 H1577 0.930 . S
C1566 C1562 1.524 . S
C1566 H1578 0.956 . S
C1566 H1579 0.961 . S
C1566 H1580 0.961 . S
C1567 C1564 1.539 . S
C1567 H1581 0.958 . S
C1567 H1582 0.961 . S
C1567 H1583 0.960 . S
H1568 C1552 0.931 . S
H1569 C1557 0.929 . S
H1570 C1558 0.960 . S
H1571 C1558 0.962 . S
H1572 C1558 0.960 . S
H1573 C1559 0.961 . S
H1574 C1559 0.961 . S
H1575 C1559 0.961 . S
H1576 C1560 0.931 . S
H1577 C1565 0.930 . S
H1578 C1566 0.956 . S
H1579 C1566 0.961 . S
H1580 C1566 0.961 . S
H1581 C1567 0.958 . S
H1582 C1567 0.961 . S
H1583 C1567 0.960 . S
C1584 C1585 1.391 . S
C1584 C1586 1.394 . S
C1584 H1600 0.931 . S
C1585 C1584 1.391 . S
C1585 C1589 1.376 . S
C1586 C1584 1.394 . S
C1586 C1587 1.369 . S
C1586 C1590 1.531 . S
C1587 C1586 1.369 . S
C1587 C1588 1.410 . S
C1587 C1595 1.503 . S
C1588 C1587 1.410 . S
C1588 C1589 1.392 . S
C1588 C1591 1.511 . S
C1589 C1585 1.376 . S
C1589 C1588 1.392 . S
C1589 H1601 0.929 . S
C1590 C1586 1.531 . S
C1590 H1602 0.960 . S
C1590 H1603 0.962 . S
C1590 H1604 0.960 . S
C1591 C1588 1.511 . S
C1591 H1605 0.961 . S
C1591 H1606 0.961 . S
C1591 H1607 0.961 . S
C1592 C1593 1.370 . S
C1592 C1594 1.363 . S
C1592 H1608 0.931 . S
C1593 C1592 1.370 . S
C1593 C1597 1.408 . S
C1594 C1592 1.363 . S
C1594 C1595 1.370 . S
C1594 C1598 1.524 . S
C1595 C1587 1.503 . S
C1595 C1594 1.370 . S
C1595 C1596 1.403 . S
C1596 C1595 1.403 . S
C1596 C1597 1.404 . S
C1596 C1599 1.539 . S
C1597 C1593 1.408 . S
C1597 C1596 1.404 . S
C1597 H1609 0.930 . S
C1598 C1594 1.524 . S
C1598 H1610 0.956 . S
C1598 H1611 0.961 . S
C1598 H1612 0.961 . S
C1599 C1596 1.539 . S
C1599 H1613 0.958 . S
C1599 H1614 0.961 . S
C1599 H1615 0.960 . S
H1600 C1584 0.931 . S
H1601 C1589 0.929 . S
H1602 C1590 0.960 . S
H1603 C1590 0.962 . S
H1604 C1590 0.960 . S
H1605 C1591 0.961 . S
H1606 C1591 0.961 . S
H1607 C1591 0.961 . S
H1608 C1592 0.931 . S
H1609 C1597 0.930 . S
H1610 C1598 0.956 . S
H1611 C1598 0.961 . S
H1612 C1598 0.961 . S
H1613 C1599 0.958 . S
H1614 C1599 0.961 . S
H1615 C1599 0.960 . S
C1616 C1617 1.391 . S
C1616 C1618 1.394 . S
C1616 H1632 0.931 . S
C1617 C1616 1.391 . S
C1617 C1621 1.376 . S
C1618 C1616 1.394 . S
C1618 C1619 1.369 . S
C1618 C1622 1.531 . S
C1619 C1618 1.369 . S
C1619 C1620 1.410 . S
C1619 C1627 1.503 . S
C1620 C1619 1.410 . S
C1620 C1621 1.392 . S
C1620 C1623 1.511 . S
C1621 C1617 1.376 . S
C1621 C1620 1.392 . S
C1621 H1633 0.929 . S
C1622 C1618 1.531 . S
C1622 H1634 0.960 . S
C1622 H1635 0.962 . S
C1622 H1636 0.960 . S
C1623 C1620 1.511 . S
C1623 H1637 0.961 . S
C1623 H1638 0.961 . S
C1623 H1639 0.961 . S
C1624 C1625 1.370 . S
C1624 C1626 1.363 . S
C1624 H1640 0.931 . S
C1625 C1624 1.370 . S
C1625 C1629 1.408 . S
C1626 C1624 1.363 . S
C1626 C1627 1.370 . S
C1626 C1630 1.524 . S
C1627 C1619 1.503 . S
C1627 C1626 1.370 . S
C1627 C1628 1.403 . S
C1628 C1627 1.403 . S
C1628 C1629 1.404 . S
C1628 C1631 1.539 . S
C1629 C1625 1.408 . S
C1629 C1628 1.404 . S
C1629 H1641 0.930 . S
C1630 C1626 1.524 . S
C1630 H1642 0.956 . S
C1630 H1643 0.961 . S
C1630 H1644 0.961 . S
C1631 C1628 1.539 . S
C1631 H1645 0.958 . S
C1631 H1646 0.961 . S
C1631 H1647 0.960 . S
H1632 C1616 0.931 . S
H1633 C1621 0.929 . S
H1634 C1622 0.960 . S
H1635 C1622 0.962 . S
H1636 C1622 0.960 . S
H1637 C1623 0.961 . S
H1638 C1623 0.961 . S
H1639 C1623 0.961 . S
H1640 C1624 0.931 . S
H1641 C1629 0.930 . S
H1642 C1630 0.956 . S
H1643 C1630 0.961 . S
H1644 C1630 0.961 . S
H1645 C1631 0.958 . S
H1646 C1631 0.961 . S
H1647 C1631 0.960 . S
C1648 C1649 1.391 . S
C1648 C1650 1.394 . S
C1648 H1664 0.931 . S
C1649 C1648 1.391 . S
C1649 C1653 1.376 . S
C1650 C1648 1.394 . S
C1650 C1651 1.369 . S
C1650 C1654 1.531 . S
C1651 C1650 1.369 . S
C1651 C1652 1.410 . S
C1651 C1659 1.503 . S
C1652 C1651 1.410 . S
C1652 C1653 1.392 . S
C1652 C1655 1.511 . S
C1653 C1649 1.376 . S
C1653 C1652 1.392 . S
C1653 H1665 0.929 . S
C1654 C1650 1.531 . S
C1654 H1666 0.960 . S
C1654 H1667 0.962 . S
C1654 H1668 0.960 . S
C1655 C1652 1.511 . S
C1655 H1669 0.961 . S
C1655 H1670 0.961 . S
C1655 H1671 0.961 . S
C1656 C1657 1.370 . S
C1656 C1658 1.363 . S
C1656 H1672 0.931 . S
C1657 C1656 1.370 . S
C1657 C1661 1.408 . S
C1658 C1656 1.363 . S
C1658 C1659 1.370 . S
C1658 C1662 1.524 . S
C1659 C1651 1.503 . S
C1659 C1658 1.370 . S
C1659 C1660 1.403 . S
C1660 C1659 1.403 . S
C1660 C1661 1.404 . S
C1660 C1663 1.539 . S
C1661 C1657 1.408 . S
C1661 C1660 1.404 . S
C1661 H1673 0.930 . S
C1662 C1658 1.524 . S
C1662 H1674 0.956 . S
C1662 H1675 0.961 . S
C1662 H1676 0.961 . S
C1663 C1660 1.539 . S
C1663 H1677 0.958 . S
C1663 H1678 0.961 . S
C1663 H1679 0.960 . S
H1664 C1648 0.931 . S
H1665 C1653 0.929 . S
H1666 C1654 0.960 . S
H1667 C1654 0.962 . S
H1668 C1654 0.960 . S
H1669 C1655 0.961 . S
H1670 C1655 0.961 . S
H1671 C1655 0.961 . S
H1672 C1656 0.931 . S
H1673 C1661 0.930 . S
H1674 C1662 0.956 . S
H1675 C1662 0.961 . S
H1676 C1662 0.961 . S
H1677 C1663 0.958 . S
H1678 C1663 0.961 . S
H1679 C1663 0.960 . S
C1680 C1681 1.391 . S
C1680 C1682 1.394 . S
C1680 H1696 0.931 . S
C1681 C1680 1.391 . S
C1681 C1685 1.376 . S
C1682 C1680 1.394 . S
C1682 C1683 1.369 . S
C1682 C1686 1.531 . S
C1683 C1682 1.369 . S
C1683 C1684 1.410 . S
C1683 C1691 1.503 . S
C1684 C1683 1.410 . S
C1684 C1685 1.392 . S
C1684 C1687 1.511 . S
C1685 C1681 1.376 . S
C1685 C1684 1.392 . S
C1685 H1697 0.929 . S
C1686 C1682 1.531 . S
C1686 H1698 0.960 . S
C1686 H1699 0.962 . S
C1686 H1700 0.960 . S
C1687 C1684 1.511 . S
C1687 H1701 0.961 . S
C1687 H1702 0.961 . S
C1687 H1703 0.961 . S
C1688 C1689 1.370 . S
C1688 C1690 1.363 . S
C1688 H1704 0.931 . S
C1689 C1688 1.370 . S
C1689 C1693 1.408 . S
C1690 C1688 1.363 . S
C1690 C1691 1.370 . S
C1690 C1694 1.524 . S
C1691 C1683 1.503 . S
C1691 C1690 1.370 . S
C1691 C1692 1.403 . S
C1692 C1691 1.403 . S
C1692 C1693 1.404 . S
C1692 C1695 1.539 . S
C1693 C1689 1.408 . S
C1693 C1692 1.404 . S
C1693 H1705 0.930 . S
C1694 C1690 1.524 . S
C1694 H1706 0.956 . S
C1694 H1707 0.961 . S
C1694 H1708 0.961 . S
C1695 C1692 1.539 . S
C1695 H1709 0.958 . S
C1695 H1710 0.961 . S
C1695 H1711 0.960 . S
H1696 C1680 0.931 . S
H1697 C1685 0.929 . S
H1698 C1686 0.960 . S
H1699 C1686 0.962 . S
H1700 C1686 0.960 . S
H1701 C1687 0.961 . S
H1702 C1687 0.961 . S
H1703 C1687 0.961 . S
H1704 C1688 0.931 . S
H1705 C1693 0.930 . S
H1706 C1694 0.956 . S
H1707 C1694 0.961 . S
H1708 C1694 0.961 . S
H1709 C1695 0.958 . S
H1710 C1695 0.961 . S
H1711 C1695 0.960 . S
C1712 C1713 1.391 . S
C1712 C1714 1.394 . S
C1712 H1728 0.931 . S
C1713 C1712 1.391 . S
C1713 C1717 1.376 . S
C1714 C1712 1.394 . S
C1714 C1715 1.369 . S
C1714 C1718 1.531 . S
C1715 C1714 1.369 . S
C1715 C1716 1.410 . S
C1715 C1723 1.503 . S
C1716 C1715 1.410 . S
C1716 C1717 1.392 . S
C1716 C1719 1.511 . S
C1717 C1713 1.376 . S
C1717 C1716 1.392 . S
C1717 H1729 0.929 . S
C1718 C1714 1.531 . S
C1718 H1730 0.960 . S
C1718 H1731 0.962 . S
C1718 H1732 0.960 . S
C1719 C1716 1.511 . S
C1719 H1733 0.961 . S
C1719 H1734 0.961 . S
C1719 H1735 0.961 . S
C1720 C1721 1.370 . S
C1720 C1722 1.363 . S
C1720 H1736 0.931 . S
C1721 C1720 1.370 . S
C1721 C1725 1.408 . S
C1722 C1720 1.363 . S
C1722 C1723 1.370 . S
C1722 C1726 1.524 . S
C1723 C1715 1.503 . S
C1723 C1722 1.370 . S
C1723 C1724 1.403 . S
C1724 C1723 1.403 . S
C1724 C1725 1.404 . S
C1724 C1727 1.539 . S
C1725 C1721 1.408 . S
C1725 C1724 1.404 . S
C1725 H1737 0.930 . S
C1726 C1722 1.524 . S
C1726 H1738 0.956 . S
C1726 H1739 0.961 . S
C1726 H1740 0.961 . S
C1727 C1724 1.539 . S
C1727 H1741 0.958 . S
C1727 H1742 0.961 . S
C1727 H1743 0.960 . S
H1728 C1712 0.931 . S
H1729 C1717 0.929 . S
H1730 C1718 0.960 . S
H1731 C1718 0.962 . S
H1732 C1718 0.960 . S
H1733 C1719 0.961 . S
H1734 C1719 0.961 . S
H1735 C1719 0.961 . S
H1736 C1720 0.931 . S
H1737 C1725 0.930 . S
H1738 C1726 0.956 . S
H1739 C1726 0.961 . S
H1740 C1726 0.961 . S
H1741 C1727 0.958 . S
H1742 C1727 0.961 . S
H1743 C1727 0.960 . S
C1744 C1745 1.391 . S
C1744 C1746 1.394 . S
C1744 H1760 0.931 . S
C1745 C1744 1.391 . S
C1745 C1749 1.376 . S
C1746 C1744 1.394 . S
C1746 C1747 1.369 . S
C1746 C1750 1.531 . S
C1747 C1746 1.369 . S
C1747 C1748 1.410 . S
C1747 C1755 1.503 . S
C1748 C1747 1.410 . S
C1748 C1749 1.392 . S
C1748 C1751 1.511 . S
C1749 C1745 1.376 . S
C1749 C1748 1.392 . S
C1749 H1761 0.929 . S
C1750 C1746 1.531 . S
C1750 H1762 0.960 . S
C1750 H1763 0.962 . S
C1750 H1764 0.960 . S
C1751 C1748 1.511 . S
C1751 H1765 0.961 . S
C1751 H1766 0.961 . S
C1751 H1767 0.961 . S
C1752 C1753 1.370 . S
C1752 C1754 1.363 . S
C1752 H1768 0.931 . S
C1753 C1752 1.370 . S
C1753 C1757 1.408 . S
C1754 C1752 1.363 . S
C1754 C1755 1.370 . S
C1754 C1758 1.524 . S
C1755 C1747 1.503 . S
C1755 C1754 1.370 . S
C1755 C1756 1.403 . S
C1756 C1755 1.403 . S
C1756 C1757 1.404 . S
C1756 C1759 1.539 . S
C1757 C1753 1.408 . S
C1757 C1756 1.404 . S
C1757 H1769 0.930 . S
C1758 C1754 1.524 . S
C1758 H1770 0.956 . S
C1758 H1771 0.961 . S
C1758 H1772 0.961 . S
C1759 C1756 1.539 . S
C1759 H1773 0.958 . S
C1759 H1774 0.961 . S
C1759 H1775 0.960 . S
H1760 C1744 0.931 . S
H1761 C1749 0.929 . S
H1762 C1750 0.960 . S
H1763 C1750 0.962 . S
H1764 C1750 0.960 . S
H1765 C1751 0.961 . S
H1766 C1751 0.961 . S
H1767 C1751 0.961 . S
H1768 C1752 0.931 . S
H1769 C1757 0.930 . S
H1770 C1758 0.956 . S
H1771 C1758 0.961 . S
H1772 C1758 0.961 . S
H1773 C1759 0.958 . S
H1774 C1759 0.961 . S
H1775 C1759 0.960 . S
C1776 C1777 1.391 . S
C1776 C1778 1.394 . S
C1776 H1792 0.931 . S
C1777 C1776 1.391 . S
C1777 C1781 1.376 . S
C1778 C1776 1.394 . S
C1778 C1779 1.369 . S
C1778 C1782 1.531 . S
C1779 C1778 1.369 . S
C1779 C1780 1.410 . S
C1779 C1787 1.503 . S
C1780 C1779 1.410 . S
C1780 C1781 1.392 . S
C1780 C1783 1.511 . S
C1781 C1777 1.376 . S
C1781 C1780 1.392 . S
C1781 H1793 0.929 . S
C1782 C1778 1.531 . S
C1782 H1794 0.960 . S
C1782 H1795 0.962 . S
C1782 H1796 0.960 . S
C1783 C1780 1.511 . S
C1783 H1797 0.961 . S
C1783 H1798 0.961 . S
C1783 H1799 0.961 . S
C1784 C1785 1.370 . S
C1784 C1786 1.363 . S
C1784 H1800 0.931 . S
C1785 C1784 1.370 . S
C1785 C1789 1.408 . S
C1786 C1784 1.363 . S
C1786 C1787 1.370 . S
C1786 C1790 1.524 . S
C1787 C1779 1.503 . S
C1787 C1786 1.370 . S
C1787 C1788 1.403 . S
C1788 C1787 1.403 . S
C1788 C1789 1.404 . S
C1788 C1791 1.539 . S
C1789 C1785 1.408 . S
C1789 C1788 1.404 . S
C1789 H1801 0.930 . S
C1790 C1786 1.524 . S
C1790 H1802 0.956 . S
C1790 H1803 0.961 . S
C1790 H1804 0.961 . S
C1791 C1788 1.539 . S
C1791 H1805 0.958 . S
C1791 H1806 0.961 . S
C1791 H1807 0.960 . S
H1792 C1776 0.931 . S
H1793 C1781 0.929 . S
H1794 C1782 0.960 . S
H1795 C1782 0.962 . S
H1796 C1782 0.960 . S
H1797 C1783 0.961 . S
H1798 C1783 0.961 . S
H1799 C1783 0.961 . S
H1800 C1784 0.931 . S
H1801 C1789 0.930 . S
H1802 C1790 0.956 . S
H1803 C1790 0.961 . S
H1804 C1790 0.961 . S
H1805 C1791 0.958 . S
H1806 C1791 0.961 . S
H1807 C1791 0.960 . S
C1808 C1809 1.391 . S
C1808 C1810 1.394 . S
C1808 H1824 0.931 . S
C1809 C1808 1.391 . S
C1809 C1813 1.376 . S
C1810 C1808 1.394 . S
C1810 C1811 1.369 . S
C1810 C1814 1.531 . S
C1811 C1810 1.369 . S
C1811 C1812 1.410 . S
C1811 C1819 1.503 . S
C1812 C1811 1.410 . S
C1812 C1813 1.392 . S
C1812 C1815 1.511 . S
C1813 C1809 1.376 . S
C1813 C1812 1.392 . S
C1813 H1825 0.929 . S
C1814 C1810 1.531 . S
C1814 H1826 0.960 . S
C1814 H1827 0.962 . S
C1814 H1828 0.960 . S
C1815 C1812 1.511 . S
C1815 H1829 0.961 . S
C1815 H1830 0.961 . S
C1815 H1831 0.961 . S
C1816 C1817 1.370 . S
C1816 C1818 1.363 . S
C1816 H1832 0.931 . S
C1817 C1816 1.370 . S
C1817 C1821 1.408 . S
C1818 C1816 1.363 . S
C1818 C1819 1.370 . S
C1818 C1822 1.524 . S
C1819 C1811 1.503 . S
C1819 C1818 1.370 . S
C1819 C1820 1.403 . S
C1820 C1819 1.403 . S
C1820 C1821 1.404 . S
C1820 C1823 1.539 . S
C1821 C1817 1.408 . S
C1821 C1820 1.404 . S
C1821 H1833 0.930 . S
C1822 C1818 1.524 . S
C1822 H1834 0.956 . S
C1822 H1835 0.961 . S
C1822 H1836 0.961 . S
C1823 C1820 1.539 . S
C1823 H1837 0.958 . S
C1823 H1838 0.961 . S
C1823 H1839 0.960 . S
H1824 C1808 0.931 . S
H1825 C1813 0.929 . S
H1826 C1814 0.960 . S
H1827 C1814 0.962 . S
H1828 C1814 0.960 . S
H1829 C1815 0.961 . S
H1830 C1815 0.961 . S
H1831 C1815 0.961 . S
H1832 C1816 0.931 . S
H1833 C1821 0.930 . S
H1834 C1822 0.956 . S
H1835 C1822 0.961 . S
H1836 C1822 0.961 . S
H1837 C1823 0.958 . S
H1838 C1823 0.961 . S
H1839 C1823 0.960 . S
C1840 C1841 1.391 . S
C1840 C1842 1.394 . S
C1840 H1856 0.931 . S
C1841 C1840 1.391 . S
C1841 C1845 1.376 . S
C1842 C1840 1.394 . S
C1842 C1843 1.369 . S
C1842 C1846 1.531 . S
C1843 C1842 1.369 . S
C1843 C1844 1.410 . S
C1843 C1851 1.503 . S
C1844 C1843 1.410 . S
C1844 C1845 1.392 . S
C1844 C1847 1.511 . S
C1845 C1841 1.376 . S
C1845 C1844 1.392 . S
C1845 H1857 0.929 . S
C1846 C1842 1.531 . S
C1846 H1858 0.960 . S
C1846 H1859 0.962 . S
C1846 H1860 0.960 . S
C1847 C1844 1.511 . S
C1847 H1861 0.961 . S
C1847 H1862 0.961 . S
C1847 H1863 0.961 . S
C1848 C1849 1.370 . S
C1848 C1850 1.363 . S
C1848 H1864 0.931 . S
C1849 C1848 1.370 . S
C1849 C1853 1.408 . S
C1850 C1848 1.363 . S
C1850 C1851 1.370 . S
C1850 C1854 1.524 . S
C1851 C1843 1.503 . S
C1851 C1850 1.370 . S
C1851 C1852 1.403 . S
C1852 C1851 1.403 . S
C1852 C1853 1.404 . S
C1852 C1855 1.539 . S
C1853 C1849 1.408 . S
C1853 C1852 1.404 . S
C1853 H1865 0.930 . S
C1854 C1850 1.524 . S
C1854 H1866 0.956 . S
C1854 H1867 0.961 . S
C1854 H1868 0.961 . S
C1855 C1852 1.539 . S
C1855 H1869 0.958 . S
C1855 H1870 0.961 . S
C1855 H1871 0.960 . S
H1856 C1840 0.931 . S
H1857 C1845 0.929 . S
H1858 C1846 0.960 . S
H1859 C1846 0.962 . S
H1860 C1846 0.960 . S
H1861 C1847 0.961 . S
H1862 C1847 0.961 . S
H1863 C1847 0.961 . S
H1864 C1848 0.931 . S
H1865 C1853 0.930 . S
H1866 C1854 0.956 . S
H1867 C1854 0.961 . S
H1868 C1854 0.961 . S
H1869 C1855 0.958 . S
H1870 C1855 0.961 . S
H1871 C1855 0.960 . S
C1872 C1873 1.391 . S
C1872 C1874 1.394 . S
C1872 H1888 0.931 . S
C1873 C1872 1.391 . S
C1873 C1877 1.376 . S
C1874 C1872 1.394 . S
C1874 C1875 1.369 . S
C1874 C1878 1.531 . S
C1875 C1874 1.369 . S
C1875 C1876 1.410 . S
C1875 C1883 1.503 . S
C1876 C1875 1.410 . S
C1876 C1877 1.392 . S
C1876 C1879 1.511 1_455 S
C1877 C1873 1.376 . S
C1877 C1876 1.392 . S
C1877 H1889 0.929 1_455 S
C1878 C1874 1.531 . S
C1878 H1890 0.960 . S
C1878 H1891 0.962 . S
C1878 H1892 0.960 . S
C1879 C1876 1.511 1_655 S
C1879 H1893 0.961 . S
C1879 H1894 0.961 . S
C1879 H1895 0.961 . S
C1880 C1881 1.370 . S
C1880 C1882 1.363 . S
C1880 H1896 0.931 . S
C1881 C1880 1.370 . S
C1881 C1885 1.408 . S
C1882 C1880 1.363 . S
C1882 C1883 1.370 . S
C1882 C1886 1.524 . S
C1883 C1875 1.503 . S
C1883 C1882 1.370 . S
C1883 C1884 1.403 . S
C1884 C1883 1.403 . S
C1884 C1885 1.404 . S
C1884 C1887 1.539 . S
C1885 C1881 1.408 . S
C1885 C1884 1.404 . S
C1885 H1897 0.930 . S
C1886 C1882 1.524 . S
C1886 H1898 0.956 . S
C1886 H1899 0.961 . S
C1886 H1900 0.961 . S
C1887 C1884 1.539 . S
C1887 H1901 0.958 . S
C1887 H1902 0.961 . S
C1887 H1903 0.960 . S
H1888 C1872 0.931 . S
H1889 C1877 0.929 1_655 S
H1890 C1878 0.960 . S
H1891 C1878 0.962 . S
H1892 C1878 0.960 . S
H1893 C1879 0.961 . S
H1894 C1879 0.961 . S
H1895 C1879 0.961 . S
H1896 C1880 0.931 . S
H1897 C1885 0.930 . S
H1898 C1886 0.956 . S
H1899 C1886 0.961 . S
H1900 C1886 0.961 . S
H1901 C1887 0.958 . S
H1902 C1887 0.961 . S
H1903 C1887 0.960 . S
C1904 C1905 1.391 . S
C1904 C1906 1.394 . S
C1904 H1920 0.931 . S
C1905 C1904 1.391 . S
C1905 C1909 1.376 . S
C1906 C1904 1.394 . S
C1906 C1907 1.369 . S
C1906 C1910 1.531 . S
C1907 C1906 1.369 . S
C1907 C1908 1.410 . S
C1907 C1915 1.503 . S
C1908 C1907 1.410 . S
C1908 C1909 1.392 . S
C1908 C1911 1.511 . S
C1909 C1905 1.376 . S
C1909 C1908 1.392 . S
C1909 H1921 0.929 . S
C1910 C1906 1.531 . S
C1910 H1922 0.960 . S
C1910 H1923 0.962 . S
C1910 H1924 0.960 . S
C1911 C1908 1.511 . S
C1911 H1925 0.961 . S
C1911 H1926 0.961 . S
C1911 H1927 0.961 . S
C1912 C1913 1.370 . S
C1912 C1914 1.363 . S
C1912 H1928 0.931 . S
C1913 C1912 1.370 . S
C1913 C1917 1.408 . S
C1914 C1912 1.363 . S
C1914 C1915 1.370 . S
C1914 C1918 1.524 . S
C1915 C1907 1.503 . S
C1915 C1914 1.370 . S
C1915 C1916 1.403 . S
C1916 C1915 1.403 . S
C1916 C1917 1.404 . S
C1916 C1919 1.539 . S
C1917 C1913 1.408 . S
C1917 C1916 1.404 . S
C1917 H1929 0.930 . S
C1918 C1914 1.524 . S
C1918 H1930 0.956 . S
C1918 H1931 0.961 . S
C1918 H1932 0.961 . S
C1919 C1916 1.539 . S
C1919 H1933 0.958 . S
C1919 H1934 0.961 . S
C1919 H1935 0.960 . S
H1920 C1904 0.931 . S
H1921 C1909 0.929 . S
H1922 C1910 0.960 . S
H1923 C1910 0.962 . S
H1924 C1910 0.960 . S
H1925 C1911 0.961 . S
H1926 C1911 0.961 . S
H1927 C1911 0.961 . S
H1928 C1912 0.931 . S
H1929 C1917 0.930 . S
H1930 C1918 0.956 . S
H1931 C1918 0.961 . S
H1932 C1918 0.961 . S
H1933 C1919 0.958 . S
H1934 C1919 0.961 . S
H1935 C1919 0.960 . S
C1936 C1937 1.391 . S
C1936 C1938 1.394 . S
C1936 H1952 0.931 . S
C1937 C1936 1.391 . S
C1937 C1941 1.376 . S
C1938 C1936 1.394 . S
C1938 C1939 1.369 . S
C1938 C1942 1.531 . S
C1939 C1938 1.369 . S
C1939 C1940 1.410 . S
C1939 C1947 1.503 . S
C1940 C1939 1.410 . S
C1940 C1941 1.392 . S
C1940 C1943 1.511 . S
C1941 C1937 1.376 . S
C1941 C1940 1.392 . S
C1941 H1953 0.929 . S
C1942 C1938 1.531 . S
C1942 H1954 0.960 . S
C1942 H1955 0.962 . S
C1942 H1956 0.960 . S
C1943 C1940 1.511 . S
C1943 H1957 0.961 . S
C1943 H1958 0.961 . S
C1943 H1959 0.961 . S
C1944 C1945 1.370 . S
C1944 C1946 1.363 . S
C1944 H1960 0.931 . S
C1945 C1944 1.370 . S
C1945 C1949 1.408 . S
C1946 C1944 1.363 . S
C1946 C1947 1.370 . S
C1946 C1950 1.524 . S
C1947 C1939 1.503 . S
C1947 C1946 1.370 . S
C1947 C1948 1.403 . S
C1948 C1947 1.403 . S
C1948 C1949 1.404 . S
C1948 C1951 1.539 . S
C1949 C1945 1.408 . S
C1949 C1948 1.404 . S
C1949 H1961 0.930 . S
C1950 C1946 1.524 . S
C1950 H1962 0.956 . S
C1950 H1963 0.961 . S
C1950 H1964 0.961 . S
C1951 C1948 1.539 . S
C1951 H1965 0.958 . S
C1951 H1966 0.961 . S
C1951 H1967 0.960 . S
H1952 C1936 0.931 . S
H1953 C1941 0.929 . S
H1954 C1942 0.960 . S
H1955 C1942 0.962 . S
H1956 C1942 0.960 . S
H1957 C1943 0.961 . S
H1958 C1943 0.961 . S
H1959 C1943 0.961 . S
H1960 C1944 0.931 . S
H1961 C1949 0.930 . S
H1962 C1950 0.956 . S
H1963 C1950 0.961 . S
H1964 C1950 0.961 . S
H1965 C1951 0.958 . S
H1966 C1951 0.961 . S
H1967 C1951 0.960 . S
C1968 C1969 1.391 . S
C1968 C1970 1.394 . S
C1968 H1984 0.931 . S
C1969 C1968 1.391 . S
C1969 C1973 1.376 . S
C1970 C1968 1.394 . S
C1970 C1971 1.369 . S
C1970 C1974 1.531 . S
C1971 C1970 1.369 . S
C1971 C1972 1.410 . S
C1971 C1979 1.503 . S
C1972 C1971 1.410 . S
C1972 C1973 1.392 . S
C1972 C1975 1.511 . S
C1973 C1969 1.376 . S
C1973 C1972 1.392 . S
C1973 H1985 0.929 . S
C1974 C1970 1.531 . S
C1974 H1986 0.960 . S
C1974 H1987 0.962 . S
C1974 H1988 0.960 . S
C1975 C1972 1.511 . S
C1975 H1989 0.961 . S
C1975 H1990 0.961 . S
C1975 H1991 0.961 . S
C1976 C1977 1.370 . S
C1976 C1978 1.363 . S
C1976 H1992 0.931 . S
C1977 C1976 1.370 . S
C1977 C1981 1.408 . S
C1978 C1976 1.363 . S
C1978 C1979 1.370 . S
C1978 C1982 1.524 . S
C1979 C1971 1.503 . S
C1979 C1978 1.370 . S
C1979 C1980 1.403 . S
C1980 C1979 1.403 . S
C1980 C1981 1.404 . S
C1980 C1983 1.539 . S
C1981 C1977 1.408 . S
C1981 C1980 1.404 . S
C1981 H1993 0.930 . S
C1982 C1978 1.524 . S
C1982 H1994 0.956 . S
C1982 H1995 0.961 . S
C1982 H1996 0.961 . S
C1983 C1980 1.539 . S
C1983 H1997 0.958 . S
C1983 H1998 0.961 . S
C1983 H1999 0.960 . S
H1984 C1968 0.931 . S
H1985 C1973 0.929 . S
H1986 C1974 0.960 . S
H1987 C1974 0.962 . S
H1988 C1974 0.960 . S
H1989 C1975 0.961 . S
H1990 C1975 0.961 . S
H1991 C1975 0.961 . S
H1992 C1976 0.931 . S
H1993 C1981 0.930 . S
H1994 C1982 0.956 . S
H1995 C1982 0.961 . S
H1996 C1982 0.961 . S
H1997 C1983 0.958 . S
H1998 C1983 0.961 . S
H1999 C1983 0.960 . S
C2000 C2001 1.391 . S
C2000 C2002 1.394 . S
C2000 H2016 0.931 . S
C2001 C2000 1.391 . S
C2001 C2005 1.376 . S
C2002 C2000 1.394 . S
C2002 C2003 1.369 . S
C2002 C2006 1.531 . S
C2003 C2002 1.369 . S
C2003 C2004 1.410 . S
C2003 C2011 1.503 . S
C2004 C2003 1.410 . S
C2004 C2005 1.392 . S
C2004 C2007 1.511 . S
C2005 C2001 1.376 . S
C2005 C2004 1.392 . S
C2005 H2017 0.929 . S
C2006 C2002 1.531 . S
C2006 H2018 0.968 . S
C2006 H2019 0.962 . S
C2006 H2020 0.960 1_545 S
C2007 C2004 1.511 . S
C2007 H2021 0.961 . S
C2007 H2022 0.961 . S
C2007 H2023 0.961 . S
C2008 C2009 1.370 . S
C2008 C2010 1.363 . S
C2008 H2024 0.931 . S
C2009 C2008 1.370 . S
C2009 C2013 1.408 . S
C2010 C2008 1.363 . S
C2010 C2011 1.370 . S
C2010 C2014 1.524 . S
C2011 C2003 1.503 . S
C2011 C2010 1.370 . S
C2011 C2012 1.403 . S
C2012 C2011 1.403 . S
C2012 C2013 1.404 . S
C2012 C2015 1.539 . S
C2013 C2009 1.408 . S
C2013 C2012 1.404 . S
C2013 H2025 0.930 . S
C2014 C2010 1.524 . S
C2014 H2026 0.956 . S
C2014 H2027 0.961 . S
C2014 H2028 0.961 . S
C2015 C2012 1.539 . S
C2015 H2029 0.958 1_545 S
C2015 H2030 0.961 . S
C2015 H2031 0.960 . S
H2016 C2000 0.931 . S
H2017 C2005 0.929 . S
H2018 C2006 0.968 . S
H2019 C2006 0.962 . S
H2020 C2006 0.960 1_565 S
H2021 C2007 0.961 . S
H2022 C2007 0.961 . S
H2023 C2007 0.961 . S
H2024 C2008 0.931 . S
H2025 C2013 0.930 . S
H2026 C2014 0.956 . S
H2027 C2014 0.961 . S
H2028 C2014 0.961 . S
H2029 C2015 0.958 1_565 S
H2030 C2015 0.961 . S
H2031 C2015 0.960 . S
C2032 C2033 1.391 . S
C2032 C2034 1.394 . S
C2032 H2048 0.931 . S
C2033 C2032 1.391 . S
C2033 C2037 1.376 . S
C2034 C2032 1.394 . S
C2034 C2035 1.369 . S
C2034 C2038 1.531 . S
C2035 C2034 1.369 . S
C2035 C2036 1.410 . S
C2035 C2043 1.503 . S
C2036 C2035 1.410 . S
C2036 C2037 1.392 . S
C2036 C2039 1.511 . S
C2037 C2033 1.376 . S
C2037 C2036 1.392 . S
C2037 H2049 0.929 . S
C2038 C2034 1.531 . S
C2038 H2050 0.960 . S
C2038 H2051 0.962 . S
C2038 H2052 0.960 . S
C2039 C2036 1.511 . S
C2039 H2053 0.961 . S
C2039 H2054 0.961 . S
C2039 H2055 0.961 . S
C2040 C2041 1.370 . S
C2040 C2042 1.363 . S
C2040 H2056 0.931 . S
C2041 C2040 1.370 . S
C2041 C2045 1.408 . S
C2042 C2040 1.363 . S
C2042 C2043 1.370 . S
C2042 C2046 1.524 . S
C2043 C2035 1.503 . S
C2043 C2042 1.370 . S
C2043 C2044 1.403 . S
C2044 C2043 1.403 . S
C2044 C2045 1.404 . S
C2044 C2047 1.539 . S
C2045 C2041 1.408 . S
C2045 C2044 1.404 . S
C2045 H2057 0.930 . S
C2046 C2042 1.524 . S
C2046 H2058 0.956 . S
C2046 H2059 0.961 . S
C2046 H2060 0.961 . S
C2047 C2044 1.539 . S
C2047 H2061 0.958 . S
C2047 H2062 0.961 . S
C2047 H2063 0.960 . S
H2048 C2032 0.931 . S
H2049 C2037 0.929 . S
H2050 C2038 0.960 . S
H2051 C2038 0.962 . S
H2052 C2038 0.960 . S
H2053 C2039 0.961 . S
H2054 C2039 0.961 . S
H2055 C2039 0.961 . S
H2056 C2040 0.931 . S
H2057 C2045 0.930 . S
H2058 C2046 0.956 . S
H2059 C2046 0.961 . S
H2060 C2046 0.961 . S
H2061 C2047 0.958 . S
H2062 C2047 0.961 . S
H2063 C2047 0.960 . S
C2064 C2065 1.391 . S
C2064 C2066 1.394 . S
C2064 H2080 0.931 . S
C2065 C2064 1.391 . S
C2065 C2069 1.376 . S
C2066 C2064 1.394 . S
C2066 C2067 1.369 . S
C2066 C2070 1.531 . S
C2067 C2066 1.369 . S
C2067 C2068 1.410 . S
C2067 C2075 1.503 . S
C2068 C2067 1.410 . S
C2068 C2069 1.392 . S
C2068 C2071 1.511 . S
C2069 C2065 1.376 . S
C2069 C2068 1.392 . S
C2069 H2081 0.929 . S
C2070 C2066 1.531 . S
C2070 H2082 0.960 . S
C2070 H2083 0.962 . S
C2070 H2084 0.960 . S
C2071 C2068 1.511 . S
C2071 H2085 0.961 1_545 S
C2071 H2086 0.961 . S
C2071 H2087 0.961 . S
C2072 C2073 1.370 . S
C2072 C2074 1.363 . S
C2072 H2088 0.931 . S
C2073 C2072 1.370 . S
C2073 C2077 1.408 . S
C2074 C2072 1.363 . S
C2074 C2075 1.370 . S
C2074 C2078 1.524 . S
C2075 C2067 1.503 . S
C2075 C2074 1.370 . S
C2075 C2076 1.403 . S
C2076 C2075 1.403 . S
C2076 C2077 1.404 . S
C2076 C2079 1.539 . S
C2077 C2073 1.408 . S
C2077 C2076 1.404 . S
C2077 H2089 0.930 . S
C2078 C2074 1.524 . S
C2078 H2090 0.956 . S
C2078 H2091 0.959 . S
C2078 H2092 0.958 . S
C2079 C2076 1.539 . S
C2079 H2093 0.958 . S
C2079 H2094 0.961 . S
C2079 H2095 0.960 . S
H2080 C2064 0.931 . S
H2081 C2069 0.929 . S
H2082 C2070 0.960 . S
H2083 C2070 0.962 . S
H2084 C2070 0.960 . S
H2085 C2071 0.961 1_565 S
H2086 C2071 0.961 . S
H2087 C2071 0.961 . S
H2088 C2072 0.931 . S
H2089 C2077 0.930 . S
H2090 C2078 0.956 . S
H2091 C2078 0.959 . S
H2092 C2078 0.958 . S
H2093 C2079 0.958 . S
H2094 C2079 0.961 . S
H2095 C2079 0.960 . S
C2096 C2097 1.391 . S
C2096 C2098 1.394 . S
C2096 H2112 0.931 . S
C2097 C2096 1.391 . S
C2097 C2101 1.376 . S
C2098 C2096 1.394 . S
C2098 C2099 1.369 . S
C2098 C2102 1.531 . S
C2099 C2098 1.369 . S
C2099 C2100 1.410 . S
C2099 C2107 1.503 . S
C2100 C2099 1.410 . S
C2100 C2101 1.392 . S
C2100 C2103 1.511 . S
C2101 C2097 1.376 . S
C2101 C2100 1.392 . S
C2101 H2113 0.929 . S
C2102 C2098 1.531 . S
C2102 H2114 0.960 . S
C2102 H2115 0.962 . S
C2102 H2116 0.960 . S
C2103 C2100 1.511 . S
C2103 H2117 0.961 . S
C2103 H2118 0.961 . S
C2103 H2119 0.961 . S
C2104 C2105 1.370 . S
C2104 C2106 1.363 . S
C2104 H2120 0.931 . S
C2105 C2104 1.370 . S
C2105 C2109 1.408 . S
C2106 C2104 1.363 . S
C2106 C2107 1.370 . S
C2106 C2110 1.524 . S
C2107 C2099 1.503 . S
C2107 C2106 1.370 . S
C2107 C2108 1.403 . S
C2108 C2107 1.403 . S
C2108 C2109 1.404 . S
C2108 C2111 1.539 . S
C2109 C2105 1.408 . S
C2109 C2108 1.404 . S
C2109 H2121 0.930 . S
C2110 C2106 1.524 . S
C2110 H2122 0.956 . S
C2110 H2123 0.961 . S
C2110 H2124 0.961 . S
C2111 C2108 1.539 . S
C2111 H2125 0.958 . S
C2111 H2126 0.961 . S
C2111 H2127 0.960 . S
H2112 C2096 0.931 . S
H2113 C2101 0.929 . S
H2114 C2102 0.960 . S
H2115 C2102 0.962 . S
H2116 C2102 0.960 . S
H2117 C2103 0.961 . S
H2118 C2103 0.961 . S
H2119 C2103 0.961 . S
H2120 C2104 0.931 . S
H2121 C2109 0.930 . S
H2122 C2110 0.956 . S
H2123 C2110 0.961 . S
H2124 C2110 0.961 . S
H2125 C2111 0.958 . S
H2126 C2111 0.961 . S
H2127 C2111 0.960 . S
C2128 C2129 1.391 . S
C2128 C2130 1.394 . S
C2128 H2144 0.931 . S
C2129 C2128 1.391 . S
C2129 C2133 1.376 . S
C2130 C2128 1.394 . S
C2130 C2131 1.369 . S
C2130 C2134 1.531 . S
C2131 C2130 1.369 . S
C2131 C2132 1.410 . S
C2131 C2139 1.503 . S
C2132 C2131 1.410 . S
C2132 C2133 1.392 . S
C2132 C2135 1.511 . S
C2133 C2129 1.376 . S
C2133 C2132 1.392 . S
C2133 H2145 0.929 . S
C2134 C2130 1.531 . S
C2134 H2146 0.960 . S
C2134 H2147 0.962 . S
C2134 H2148 0.960 . S
C2135 C2132 1.511 . S
C2135 H2149 0.961 1_545 S
C2135 H2150 0.961 . S
C2135 H2151 0.961 1_545 S
C2136 C2137 1.370 . S
C2136 C2138 1.363 . S
C2136 H2152 0.931 . S
C2137 C2136 1.370 . S
C2137 C2141 1.408 . S
C2138 C2136 1.363 . S
C2138 C2139 1.370 . S
C2138 C2142 1.524 . S
C2139 C2131 1.503 . S
C2139 C2138 1.370 . S
C2139 C2140 1.403 . S
C2140 C2139 1.403 . S
C2140 C2141 1.404 . S
C2140 C2143 1.539 . S
C2141 C2137 1.408 . S
C2141 C2140 1.404 . S
C2141 H2153 0.930 . S
C2142 C2138 1.524 . S
C2142 H2154 0.956 . S
C2142 H2155 0.961 . S
C2142 H2156 0.961 . S
C2143 C2140 1.539 . S
C2143 H2157 0.958 . S
C2143 H2158 0.961 . S
C2143 H2159 0.960 . S
H2144 C2128 0.931 . S
H2145 C2133 0.929 . S
H2146 C2134 0.960 . S
H2147 C2134 0.962 . S
H2148 C2134 0.960 . S
H2149 C2135 0.961 1_565 S
H2150 C2135 0.961 . S
H2151 C2135 0.961 1_565 S
H2152 C2136 0.931 . S
H2153 C2141 0.930 . S
H2154 C2142 0.956 . S
H2155 C2142 0.961 . S
H2156 C2142 0.961 . S
H2157 C2143 0.958 . S
H2158 C2143 0.961 . S
H2159 C2143 0.960 . S
C2160 C2161 1.391 . S
C2160 C2162 1.394 . S
C2160 H2176 0.931 . S
C2161 C2160 1.391 . S
C2161 C2165 1.376 . S
C2162 C2160 1.394 . S
C2162 C2163 1.369 . S
C2162 C2166 1.531 . S
C2163 C2162 1.369 . S
C2163 C2164 1.410 . S
C2163 C2171 1.503 . S
C2164 C2163 1.410 . S
C2164 C2165 1.392 . S
C2164 C2167 1.511 . S
C2165 C2161 1.376 . S
C2165 C2164 1.392 . S
C2165 H2177 0.929 . S
C2166 C2162 1.531 . S
C2166 H2178 0.960 . S
C2166 H2179 0.962 . S
C2166 H2180 0.960 . S
C2167 C2164 1.511 . S
C2167 H2181 0.961 . S
C2167 H2182 0.961 . S
C2167 H2183 0.961 . S
C2168 C2169 1.370 . S
C2168 C2170 1.363 . S
C2168 H2184 0.931 . S
C2169 C2168 1.370 . S
C2169 C2173 1.408 . S
C2170 C2168 1.363 . S
C2170 C2171 1.370 . S
C2170 C2174 1.524 . S
C2171 C2163 1.503 . S
C2171 C2170 1.370 . S
C2171 C2172 1.403 . S
C2172 C2171 1.403 . S
C2172 C2173 1.404 . S
C2172 C2175 1.539 . S
C2173 C2169 1.408 . S
C2173 C2172 1.404 . S
C2173 H2185 0.930 . S
C2174 C2170 1.524 . S
C2174 H2186 0.956 . S
C2174 H2187 0.961 . S
C2174 H2188 0.961 . S
C2175 C2172 1.539 . S
C2175 H2189 0.958 . S
C2175 H2190 0.961 . S
C2175 H2191 0.960 . S
H2176 C2160 0.931 . S
H2177 C2165 0.929 . S
H2178 C2166 0.960 . S
H2179 C2166 0.962 . S
H2180 C2166 0.960 . S
H2181 C2167 0.961 . S
H2182 C2167 0.961 . S
H2183 C2167 0.961 . S
H2184 C2168 0.931 . S
H2185 C2173 0.930 . S
H2186 C2174 0.956 . S
H2187 C2174 0.961 . S
H2188 C2174 0.961 . S
H2189 C2175 0.958 . S
H2190 C2175 0.961 . S
H2191 C2175 0.960 . S
C2192 C2193 1.391 . S
C2192 C2194 1.394 . S
C2192 H2208 0.931 . S
C2193 C2192 1.391 . S
C2193 C2197 1.376 . S
C2194 C2192 1.394 . S
C2194 C2195 1.369 . S
C2194 C2198 1.531 . S
C2195 C2194 1.369 . S
C2195 C2196 1.410 . S
C2195 C2203 1.503 . S
C2196 C2195 1.410 . S
C2196 C2197 1.392 . S
C2196 C2199 1.511 . S
C2197 C2193 1.376 . S
C2197 C2196 1.392 . S
C2197 H2209 0.929 . S
C2198 C2194 1.531 . S
C2198 H2210 0.960 . S
C2198 H2211 0.962 . S
C2198 H2212 0.960 . S
C2199 C2196 1.511 . S
C2199 H2213 0.961 . S
C2199 H2214 0.961 . S
C2199 H2215 0.961 . S
C2200 C2201 1.370 . S
C2200 C2202 1.363 . S
C2200 H2216 0.958 . S
C2201 C2200 1.370 . S
C2201 C2205 1.408 . S
C2202 C2200 1.363 . S
C2202 C2203 1.370 . S
C2202 C2206 1.524 1_545 S
C2203 C2195 1.503 . S
C2203 C2202 1.370 . S
C2203 C2204 1.403 . S
C2204 C2203 1.403 . S
C2204 C2205 1.404 . S
C2204 C2207 1.539 . S
C2205 C2201 1.408 . S
C2205 C2204 1.404 . S
C2205 H2217 0.930 . S
C2206 C2202 1.524 1_565 S
C2206 H2218 0.956 . S
C2206 H2219 0.961 . S
C2206 H2220 0.961 . S
C2207 C2204 1.539 . S
C2207 H2221 0.958 . S
C2207 H2222 0.961 . S
C2207 H2223 0.960 . S
H2208 C2192 0.931 . S
H2209 C2197 0.929 . S
H2210 C2198 0.960 . S
H2211 C2198 0.962 . S
H2212 C2198 0.960 . S
H2213 C2199 0.961 . S
H2214 C2199 0.961 . S
H2215 C2199 0.961 . S
H2216 C2200 0.958 . S
H2217 C2205 0.930 . S
H2218 C2206 0.956 . S
H2219 C2206 0.961 . S
H2220 C2206 0.961 . S
H2221 C2207 0.958 . S
H2222 C2207 0.961 . S
H2223 C2207 0.960 . S
C2224 C2225 1.391 . S
C2224 C2226 1.394 . S
C2224 H2240 0.931 . S
C2225 C2224 1.391 . S
C2225 C2229 1.376 . S
C2226 C2224 1.394 . S
C2226 C2227 1.369 . S
C2226 C2230 1.531 . S
C2227 C2226 1.369 . S
C2227 C2228 1.410 . S
C2227 C2235 1.503 . S
C2228 C2227 1.410 . S
C2228 C2229 1.392 . S
C2228 C2231 1.511 . S
C2229 C2225 1.376 . S
C2229 C2228 1.392 . S
C2229 H2241 0.929 . S
C2230 C2226 1.531 . S
C2230 H2242 0.960 . S
C2230 H2243 0.962 . S
C2230 H2244 0.960 . S
C2231 C2228 1.511 . S
C2231 H2245 0.961 . S
C2231 H2246 0.961 . S
C2231 H2247 0.961 . S
C2232 C2233 1.370 . S
C2232 C2234 1.363 . S
C2232 H2248 0.931 . S
C2233 C2232 1.370 . S
C2233 C2237 1.408 . S
C2234 C2232 1.363 . S
C2234 C2235 1.370 . S
C2234 C2238 1.524 . S
C2235 C2227 1.503 . S
C2235 C2234 1.370 . S
C2235 C2236 1.403 . S
C2236 C2235 1.403 . S
C2236 C2237 1.404 . S
C2236 C2239 1.539 . S
C2237 C2233 1.408 . S
C2237 C2236 1.404 . S
C2237 H2249 0.930 . S
C2238 C2234 1.524 . S
C2238 H2250 0.956 . S
C2238 H2251 0.961 . S
C2238 H2252 0.961 . S
C2239 C2236 1.539 . S
C2239 H2253 0.958 . S
C2239 H2254 0.961 . S
C2239 H2255 0.960 . S
H2240 C2224 0.931 . S
H2241 C2229 0.929 . S
H2242 C2230 0.960 . S
H2243 C2230 0.962 . S
H2244 C2230 0.960 . S
H2245 C2231 0.961 . S
H2246 C2231 0.961 . S
H2247 C2231 0.961 . S
H2248 C2232 0.931 . S
H2249 C2237 0.930 . S
H2250 C2238 0.956 . S
H2251 C2238 0.961 . S
H2252 C2238 0.961 . S
H2253 C2239 0.958 . S
H2254 C2239 0.961 . S
H2255 C2239 0.960 . S
C2256 C2257 1.391 . S
C2256 C2258 1.394 . S
C2256 H2272 0.931 . S
C2257 C2256 1.391 . S
C2257 C2261 1.376 . S
C2258 C2256 1.394 . S
C2258 C2259 1.369 . S
C2258 C2262 1.531 . S
C2259 C2258 1.369 . S
C2259 C2260 1.410 . S
C2259 C2267 1.503 . S
C2260 C2259 1.410 . S
C2260 C2261 1.392 . S
C2260 C2263 1.467 1_554 S
C2261 C2257 1.376 . S
C2261 C2260 1.392 . S
C2261 H2273 0.929 . S
C2262 C2258 1.531 . S
C2262 H2274 0.960 . S
C2262 H2275 0.962 . S
C2262 H2276 0.960 . S
C2263 C2260 1.467 1_556 S
C2263 H2277 0.978 . S
C2263 H2278 0.977 . S
C2263 H2279 0.975 . S
C2264 C2265 1.370 . S
C2264 C2266 1.363 . S
C2264 H2280 0.931 . S
C2265 C2264 1.370 . S
C2265 C2269 1.408 . S
C2266 C2264 1.363 . S
C2266 C2267 1.370 . S
C2266 C2270 1.524 . S
C2267 C2259 1.503 . S
C2267 C2266 1.370 . S
C2267 C2268 1.403 . S
C2268 C2267 1.403 . S
C2268 C2269 1.404 . S
C2268 C2271 1.539 . S
C2269 C2265 1.408 . S
C2269 C2268 1.404 . S
C2269 H2281 0.943 . S
C2270 C2266 1.524 . S
C2270 H2282 0.956 . S
C2270 H2283 0.961 . S
C2270 H2284 0.961 . S
C2271 C2268 1.539 . S
C2271 H2285 0.958 . S
C2271 H2286 0.961 . S
C2271 H2287 0.960 . S
H2272 C2256 0.931 . S
H2273 C2261 0.929 . S
H2274 C2262 0.960 . S
H2275 C2262 0.962 . S
H2276 C2262 0.960 . S
H2277 C2263 0.978 . S
H2278 C2263 0.977 . S
H2279 C2263 0.975 . S
H2280 C2264 0.931 . S
H2281 C2269 0.943 . S
H2282 C2270 0.956 . S
H2283 C2270 0.961 . S
H2284 C2270 0.961 . S
H2285 C2271 0.958 . S
H2286 C2271 0.961 . S
H2287 C2271 0.960 . S
C2288 C2289 1.391 . S
C2288 C2290 1.394 . S
C2288 H2304 0.931 . S
C2289 C2288 1.391 . S
C2289 C2293 1.376 . S
C2290 C2288 1.394 . S
C2290 C2291 1.369 . S
C2290 C2294 1.531 . S
C2291 C2290 1.369 . S
C2291 C2292 1.410 . S
C2291 C2299 1.503 . S
C2292 C2291 1.410 . S
C2292 C2293 1.392 . S
C2292 C2295 1.511 . S
C2293 C2289 1.376 . S
C2293 C2292 1.392 . S
C2293 H2305 0.929 . S
C2294 C2290 1.531 . S
C2294 H2306 0.978 . S
C2294 H2307 0.962 . S
C2294 H2308 0.960 1_554 S
C2295 C2292 1.511 . S
C2295 H2309 0.961 . S
C2295 H2310 0.961 . S
C2295 H2311 0.961 . S
C2296 C2297 1.370 . S
C2296 C2298 1.363 . S
C2296 H2312 0.931 . S
C2297 C2296 1.370 . S
C2297 C2301 1.408 . S
C2298 C2296 1.363 . S
C2298 C2299 1.370 . S
C2298 C2302 1.524 . S
C2299 C2291 1.503 . S
C2299 C2298 1.370 . S
C2299 C2300 1.403 . S
C2300 C2299 1.403 . S
C2300 C2301 1.404 . S
C2300 C2303 1.539 1_554 S
C2301 C2297 1.408 . S
C2301 C2300 1.404 . S
C2301 H2313 0.930 . S
C2302 C2298 1.524 . S
C2302 H2314 0.956 . S
C2302 H2315 0.961 . S
C2302 H2316 0.961 . S
C2303 C2300 1.539 1_556 S
C2303 H2317 0.958 . S
C2303 H2318 0.961 . S
C2303 H2319 0.960 . S
H2304 C2288 0.931 . S
H2305 C2293 0.929 . S
H2306 C2294 0.978 . S
H2307 C2294 0.962 . S
H2308 C2294 0.960 1_556 S
H2309 C2295 0.961 . S
H2310 C2295 0.961 . S
H2311 C2295 0.961 . S
H2312 C2296 0.931 . S
H2313 C2301 0.930 . S
H2314 C2302 0.956 . S
H2315 C2302 0.961 . S
H2316 C2302 0.961 . S
H2317 C2303 0.958 . S
H2318 C2303 0.961 . S
H2319 C2303 0.960 . S
C2320 C2321 1.391 . S
C2320 C2322 1.394 . S
C2320 H2336 0.931 . S
C2321 C2320 1.391 . S
C2321 C2325 1.376 . S
C2322 C2320 1.394 . S
C2322 C2323 1.369 . S
C2322 C2326 1.531 . S
C2323 C2322 1.369 . S
C2323 C2324 1.410 . S
C2323 C2331 1.503 . S
C2324 C2323 1.410 . S
C2324 C2325 1.392 . S
C2324 C2327 1.511 . S
C2325 C2321 1.376 . S
C2325 C2324 1.392 . S
C2325 H2337 0.929 . S
C2326 C2322 1.531 . S
C2326 H2338 0.960 . S
C2326 H2339 0.962 . S
C2326 H2340 0.960 . S
C2327 C2324 1.511 . S
C2327 H2341 0.961 . S
C2327 H2342 0.961 . S
C2327 H2343 0.961 . S
C2328 C2329 1.370 . S
C2328 C2330 1.363 . S
C2328 H2344 0.931 . S
C2329 C2328 1.370 . S
C2329 C2333 1.408 . S
C2330 C2328 1.363 . S
C2330 C2331 1.370 . S
C2330 C2334 1.524 . S
C2331 C2323 1.503 . S
C2331 C2330 1.370 . S
C2331 C2332 1.403 . S
C2332 C2331 1.403 . S
C2332 C2333 1.404 . S
C2332 C2335 1.539 . S
C2333 C2329 1.408 . S
C2333 C2332 1.404 . S
C2333 H2345 0.930 . S
C2334 C2330 1.524 . S
C2334 H2346 0.956 . S
C2334 H2347 0.961 . S
C2334 H2348 0.961 . S
C2335 C2332 1.539 . S
C2335 H2349 0.958 . S
C2335 H2350 0.961 . S
C2335 H2351 0.960 . S
H2336 C2320 0.931 . S
H2337 C2325 0.929 . S
H2338 C2326 0.960 . S
H2339 C2326 0.962 . S
H2340 C2326 0.960 . S
H2341 C2327 0.961 . S
H2342 C2327 0.961 . S
H2343 C2327 0.961 . S
H2344 C2328 0.931 . S
H2345 C2333 0.930 . S
H2346 C2334 0.956 . S
H2347 C2334 0.961 . S
H2348 C2334 0.961 . S
H2349 C2335 0.958 . S
H2350 C2335 0.961 . S
H2351 C2335 0.960 . S
C2352 C2353 1.391 . S
C2352 C2354 1.394 . S
C2352 H2368 0.931 . S
C2353 C2352 1.391 . S
C2353 C2357 1.376 . S
C2354 C2352 1.394 . S
C2354 C2355 1.369 . S
C2354 C2358 1.531 . S
C2355 C2354 1.369 . S
C2355 C2356 1.410 . S
C2355 C2363 1.503 . S
C2356 C2355 1.410 . S
C2356 C2357 1.392 . S
C2356 C2359 1.511 . S
C2357 C2353 1.376 . S
C2357 C2356 1.392 . S
C2357 H2369 0.929 . S
C2358 C2354 1.531 . S
C2358 H2370 0.960 . S
C2358 H2371 0.962 . S
C2358 H2372 0.960 . S
C2359 C2356 1.511 . S
C2359 H2373 0.961 . S
C2359 H2374 0.961 . S
C2359 H2375 0.961 . S
C2360 C2361 1.370 . S
C2360 C2362 1.363 . S
C2360 H2376 0.931 . S
C2361 C2360 1.370 . S
C2361 C2365 1.408 . S
C2362 C2360 1.363 . S
C2362 C2363 1.370 . S
C2362 C2366 1.524 . S
C2363 C2355 1.503 . S
C2363 C2362 1.370 . S
C2363 C2364 1.403 . S
C2364 C2363 1.403 . S
C2364 C2365 1.404 . S
C2364 C2367 1.539 . S
C2365 C2361 1.408 . S
C2365 C2364 1.404 . S
C2365 H2377 0.930 . S
C2366 C2362 1.524 . S
C2366 H2378 0.956 . S
C2366 H2379 0.961 . S
C2366 H2380 0.961 . S
C2367 C2364 1.539 . S
C2367 H2381 0.958 . S
C2367 H2382 0.961 . S
C2367 H2383 0.960 . S
H2368 C2352 0.931 . S
H2369 C2357 0.929 . S
H2370 C2358 0.960 . S
H2371 C2358 0.962 . S
H2372 C2358 0.960 . S
H2373 C2359 0.961 . S
H2374 C2359 0.961 . S
H2375 C2359 0.961 . S
H2376 C2360 0.931 . S
H2377 C2365 0.930 . S
H2378 C2366 0.956 . S
H2379 C2366 0.961 . S
H2380 C2366 0.961 . S
H2381 C2367 0.958 . S
H2382 C2367 0.961 . S
H2383 C2367 0.960 . S
C2384 C2385 1.391 . S
C2384 C2386 1.394 . S
C2384 H2400 0.931 . S
C2385 C2384 1.391 . S
C2385 C2389 1.376 . S
C2386 C2384 1.394 . S
C2386 C2387 1.369 . S
C2386 C2390 1.531 . S
C2387 C2386 1.369 . S
C2387 C2388 1.410 . S
C2387 C2395 1.503 . S
C2388 C2387 1.410 . S
C2388 C2389 1.392 . S
C2388 C2391 1.511 . S
C2389 C2385 1.376 . S
C2389 C2388 1.392 . S
C2389 H2401 0.929 . S
C2390 C2386 1.531 . S
C2390 H2402 0.960 . S
C2390 H2403 0.962 . S
C2390 H2404 0.960 . S
C2391 C2388 1.511 . S
C2391 H2405 0.961 . S
C2391 H2406 0.961 . S
C2391 H2407 0.961 . S
C2392 C2393 1.370 . S
C2392 C2394 1.363 . S
C2392 H2408 0.931 . S
C2393 C2392 1.370 . S
C2393 C2397 1.408 . S
C2394 C2392 1.363 . S
C2394 C2395 1.370 . S
C2394 C2398 1.524 . S
C2395 C2387 1.503 . S
C2395 C2394 1.370 . S
C2395 C2396 1.403 . S
C2396 C2395 1.403 . S
C2396 C2397 1.404 . S
C2396 C2399 1.539 . S
C2397 C2393 1.408 . S
C2397 C2396 1.404 . S
C2397 H2409 0.930 . S
C2398 C2394 1.524 . S
C2398 H2410 0.956 . S
C2398 H2411 0.961 . S
C2398 H2412 0.961 . S
C2399 C2396 1.539 . S
C2399 H2413 0.958 . S
C2399 H2414 0.961 . S
C2399 H2415 0.960 . S
H2400 C2384 0.931 . S
H2401 C2389 0.929 . S
H2402 C2390 0.960 . S
H2403 C2390 0.962 . S
H2404 C2390 0.960 . S
H2405 C2391 0.961 . S
H2406 C2391 0.961 . S
H2407 C2391 0.961 . S
H2408 C2392 0.931 . S
H2409 C2397 0.930 . S
H2410 C2398 0.956 . S
H2411 C2398 0.961 . S
H2412 C2398 0.961 . S
H2413 C2399 0.958 . S
H2414 C2399 0.961 . S
H2415 C2399 0.960 . S
C2416 C2417 1.391 . S
C2416 C2418 1.394 . S
C2416 H2432 0.931 . S
C2417 C2416 1.391 . S
C2417 C2421 1.376 . S
C2418 C2416 1.394 . S
C2418 C2419 1.369 . S
C2418 C2422 1.531 . S
C2419 C2418 1.369 . S
C2419 C2420 1.410 . S
C2419 C2427 1.503 . S
C2420 C2419 1.410 . S
C2420 C2421 1.392 . S
C2420 C2423 1.511 . S
C2421 C2417 1.376 . S
C2421 C2420 1.392 . S
C2421 H2433 0.929 . S
C2422 C2418 1.531 . S
C2422 H2434 0.960 . S
C2422 H2435 0.962 . S
C2422 H2436 0.960 . S
C2423 C2420 1.511 . S
C2423 H2437 0.961 . S
C2423 H2438 0.961 . S
C2423 H2439 0.961 . S
C2424 C2425 1.370 . S
C2424 C2426 1.363 . S
C2424 H2440 0.931 . S
C2425 C2424 1.370 . S
C2425 C2429 1.408 . S
C2426 C2424 1.363 . S
C2426 C2427 1.370 . S
C2426 C2430 1.524 . S
C2427 C2419 1.503 . S
C2427 C2426 1.370 . S
C2427 C2428 1.403 . S
C2428 C2427 1.403 . S
C2428 C2429 1.404 . S
C2428 C2431 1.539 . S
C2429 C2425 1.408 . S
C2429 C2428 1.404 . S
C2429 H2441 0.930 . S
C2430 C2426 1.524 . S
C2430 H2442 0.956 . S
C2430 H2443 0.961 . S
C2430 H2444 0.961 . S
C2431 C2428 1.539 . S
C2431 H2445 0.958 . S
C2431 H2446 0.961 . S
C2431 H2447 0.960 . S
H2432 C2416 0.931 . S
H2433 C2421 0.929 . S
H2434 C2422 0.960 . S
H2435 C2422 0.962 . S
H2436 C2422 0.960 . S
H2437 C2423 0.961 . S
H2438 C2423 0.961 . S
H2439 C2423 0.961 . S
H2440 C2424 0.931 . S
H2441 C2429 0.930 . S
H2442 C2430 0.956 . S
H2443 C2430 0.961 . S
H2444 C2430 0.961 . S
H2445 C2431 0.958 . S
H2446 C2431 0.961 . S
H2447 C2431 0.960 . S
C2448 C2449 1.391 . S
C2448 C2450 1.394 . S
C2448 H2464 0.931 . S
C2449 C2448 1.391 . S
C2449 C2453 1.376 . S
C2450 C2448 1.394 . S
C2450 C2451 1.369 . S
C2450 C2454 1.531 . S
C2451 C2450 1.369 . S
C2451 C2452 1.410 . S
C2451 C2459 1.503 . S
C2452 C2451 1.410 . S
C2452 C2453 1.392 . S
C2452 C2455 1.511 . S
C2453 C2449 1.376 . S
C2453 C2452 1.392 . S
C2453 H2465 0.929 . S
C2454 C2450 1.531 . S
C2454 H2466 0.960 . S
C2454 H2467 0.962 . S
C2454 H2468 0.960 . S
C2455 C2452 1.511 . S
C2455 H2469 0.961 . S
C2455 H2470 0.961 . S
C2455 H2471 0.961 . S
C2456 C2457 1.370 . S
C2456 C2458 1.363 . S
C2456 H2472 0.931 . S
C2457 C2456 1.370 . S
C2457 C2461 1.408 . S
C2458 C2456 1.363 . S
C2458 C2459 1.370 . S
C2458 C2462 1.524 . S
C2459 C2451 1.503 . S
C2459 C2458 1.370 . S
C2459 C2460 1.403 . S
C2460 C2459 1.403 . S
C2460 C2461 1.404 . S
C2460 C2463 1.539 . S
C2461 C2457 1.408 . S
C2461 C2460 1.404 . S
C2461 H2473 0.930 . S
C2462 C2458 1.524 . S
C2462 H2474 0.956 . S
C2462 H2475 0.961 . S
C2462 H2476 0.961 . S
C2463 C2460 1.539 . S
C2463 H2477 0.958 . S
C2463 H2478 0.961 . S
C2463 H2479 0.960 . S
H2464 C2448 0.931 . S
H2465 C2453 0.929 . S
H2466 C2454 0.960 . S
H2467 C2454 0.962 . S
H2468 C2454 0.960 . S
H2469 C2455 0.961 . S
H2470 C2455 0.961 . S
H2471 C2455 0.961 . S
H2472 C2456 0.931 . S
H2473 C2461 0.930 . S
H2474 C2462 0.956 . S
H2475 C2462 0.961 . S
H2476 C2462 0.961 . S
H2477 C2463 0.958 . S
H2478 C2463 0.961 . S
H2479 C2463 0.960 . S
C2480 C2481 1.391 . S
C2480 C2482 1.394 . S
C2480 H2496 0.931 . S
C2481 C2480 1.391 . S
C2481 C2485 1.376 . S
C2482 C2480 1.394 . S
C2482 C2483 1.369 . S
C2482 C2486 1.531 . S
C2483 C2482 1.369 . S
C2483 C2484 1.410 . S
C2483 C2491 1.503 . S
C2484 C2483 1.410 . S
C2484 C2485 1.392 . S
C2484 C2487 1.511 . S
C2485 C2481 1.376 . S
C2485 C2484 1.392 . S
C2485 H2497 0.929 . S
C2486 C2482 1.531 . S
C2486 H2498 0.960 . S
C2486 H2499 0.962 . S
C2486 H2500 0.960 . S
C2487 C2484 1.511 . S
C2487 H2501 0.961 . S
C2487 H2502 0.961 . S
C2487 H2503 0.961 . S
C2488 C2489 1.370 . S
C2488 C2490 1.363 . S
C2488 H2504 0.931 . S
C2489 C2488 1.370 . S
C2489 C2493 1.408 . S
C2490 C2488 1.363 . S
C2490 C2491 1.370 . S
C2490 C2494 1.524 . S
C2491 C2483 1.503 . S
C2491 C2490 1.370 . S
C2491 C2492 1.403 . S
C2492 C2491 1.403 . S
C2492 C2493 1.404 . S
C2492 C2495 1.539 . S
C2493 C2489 1.408 . S
C2493 C2492 1.404 . S
C2493 H2505 0.930 . S
C2494 C2490 1.524 . S
C2494 H2506 0.956 . S
C2494 H2507 0.961 . S
C2494 H2508 0.961 . S
C2495 C2492 1.539 . S
C2495 H2509 0.958 . S
C2495 H2510 0.961 . S
C2495 H2511 0.960 . S
H2496 C2480 0.931 . S
H2497 C2485 0.929 . S
H2498 C2486 0.960 . S
H2499 C2486 0.962 . S
H2500 C2486 0.960 . S
H2501 C2487 0.961 . S
H2502 C2487 0.961 . S
H2503 C2487 0.961 . S
H2504 C2488 0.931 . S
H2505 C2493 0.930 . S
H2506 C2494 0.956 . S
H2507 C2494 0.961 . S
H2508 C2494 0.961 . S
H2509 C2495 0.958 . S
H2510 C2495 0.961 . S
H2511 C2495 0.960 . S
C2512 C2513 1.391 . S
C2512 C2514 1.394 . S
C2512 H2528 0.931 . S
C2513 C2512 1.391 . S
C2513 C2517 1.376 . S
C2514 C2512 1.394 . S
C2514 C2515 1.369 . S
C2514 C2518 1.531 . S
C2515 C2514 1.369 . S
C2515 C2516 1.410 . S
C2515 C2523 1.503 . S
C2516 C2515 1.410 . S
C2516 C2517 1.392 . S
C2516 C2519 1.511 . S
C2517 C2513 1.376 . S
C2517 C2516 1.392 . S
C2517 H2529 0.929 . S
C2518 C2514 1.531 . S
C2518 H2530 0.960 . S
C2518 H2531 0.962 . S
C2518 H2532 0.960 . S
C2519 C2516 1.511 . S
C2519 H2533 0.961 . S
C2519 H2534 0.961 . S
C2519 H2535 0.961 . S
C2520 C2521 1.370 . S
C2520 C2522 1.363 . S
C2520 H2536 0.931 . S
C2521 C2520 1.370 . S
C2521 C2525 1.408 . S
C2522 C2520 1.363 . S
C2522 C2523 1.370 . S
C2522 C2526 1.524 . S
C2523 C2515 1.503 . S
C2523 C2522 1.370 . S
C2523 C2524 1.403 . S
C2524 C2523 1.403 . S
C2524 C2525 1.404 . S
C2524 C2527 1.539 . S
C2525 C2521 1.408 . S
C2525 C2524 1.404 . S
C2525 H2537 0.930 . S
C2526 C2522 1.524 . S
C2526 H2538 0.956 . S
C2526 H2539 0.961 . S
C2526 H2540 0.961 . S
C2527 C2524 1.539 . S
C2527 H2541 0.958 . S
C2527 H2542 0.961 . S
C2527 H2543 0.960 . S
H2528 C2512 0.931 . S
H2529 C2517 0.929 . S
H2530 C2518 0.960 . S
H2531 C2518 0.962 . S
H2532 C2518 0.960 . S
H2533 C2519 0.961 . S
H2534 C2519 0.961 . S
H2535 C2519 0.961 . S
H2536 C2520 0.931 . S
H2537 C2525 0.930 . S
H2538 C2526 0.956 . S
H2539 C2526 0.961 . S
H2540 C2526 0.961 . S
H2541 C2527 0.958 . S
H2542 C2527 0.961 . S
H2543 C2527 0.960 . S
C2544 C2545 1.391 . S
C2544 C2546 1.394 . S
C2544 H2560 0.931 . S
C2545 C2544 1.391 . S
C2545 C2549 1.376 . S
C2546 C2544 1.394 . S
C2546 C2547 1.369 . S
C2546 C2550 1.531 . S
C2547 C2546 1.369 . S
C2547 C2548 1.410 . S
C2547 C2555 1.503 . S
C2548 C2547 1.410 . S
C2548 C2549 1.392 . S
C2548 C2551 1.511 . S
C2549 C2545 1.376 . S
C2549 C2548 1.392 . S
C2549 H2561 0.929 . S
C2550 C2546 1.531 . S
C2550 H2562 0.960 . S
C2550 H2563 0.962 . S
C2550 H2564 0.960 . S
C2551 C2548 1.511 . S
C2551 H2565 0.961 . S
C2551 H2566 0.961 . S
C2551 H2567 0.961 . S
C2552 C2553 1.370 . S
C2552 C2554 1.363 . S
C2552 H2568 0.931 . S
C2553 C2552 1.370 . S
C2553 C2557 1.408 . S
C2554 C2552 1.363 . S
C2554 C2555 1.370 . S
C2554 C2558 1.524 . S
C2555 C2547 1.503 . S
C2555 C2554 1.370 . S
C2555 C2556 1.403 . S
C2556 C2555 1.403 . S
C2556 C2557 1.404 . S
C2556 C2559 1.539 . S
C2557 C2553 1.408 . S
C2557 C2556 1.404 . S
C2557 H2569 0.930 . S
C2558 C2554 1.524 . S
C2558 H2570 0.956 . S
C2558 H2571 0.961 . S
C2558 H2572 0.961 . S
C2559 C2556 1.539 . S
C2559 H2573 0.958 . S
C2559 H2574 0.961 . S
C2559 H2575 0.960 . S
H2560 C2544 0.931 . S
H2561 C2549 0.929 . S
H2562 C2550 0.960 . S
H2563 C2550 0.962 . S
H2564 C2550 0.960 . S
H2565 C2551 0.961 . S
H2566 C2551 0.961 . S
H2567 C2551 0.961 . S
H2568 C2552 0.931 . S
H2569 C2557 0.930 . S
H2570 C2558 0.956 . S
H2571 C2558 0.961 . S
H2572 C2558 0.961 . S
H2573 C2559 0.958 . S
H2574 C2559 0.961 . S
H2575 C2559 0.960 . S
C2576 C2577 1.391 . S
C2576 C2578 1.394 . S
C2576 H2592 0.931 . S
C2577 C2576 1.391 . S
C2577 C2581 1.376 1_455 S
C2578 C2576 1.394 . S
C2578 C2579 1.369 . S
C2578 C2582 1.531 . S
C2579 C2578 1.369 . S
C2579 C2580 1.410 1_455 S
C2579 C2587 1.503 . S
C2580 C2579 1.410 1_655 S
C2580 C2581 1.392 . S
C2580 C2583 1.511 . S
C2581 C2577 1.376 1_655 S
C2581 C2580 1.392 . S
C2581 H2593 0.929 . S
C2582 C2578 1.531 . S
C2582 H2594 0.960 . S
C2582 H2595 0.962 . S
C2582 H2596 0.960 . S
C2583 C2580 1.511 . S
C2583 H2597 0.961 . S
C2583 H2598 0.961 1_556 S
C2583 H2599 0.961 . S
C2584 C2585 1.370 . S
C2584 C2586 1.363 . S
C2584 H2600 0.931 . S
C2585 C2584 1.370 . S
C2585 C2589 1.408 1_554 S
C2586 C2584 1.363 . S
C2586 C2587 1.370 1_554 S
C2586 C2590 1.524 . S
C2587 C2579 1.503 . S
C2587 C2586 1.370 1_556 S
C2587 C2588 1.403 . S
C2588 C2587 1.403 . S
C2588 C2589 1.404 . S
C2588 C2591 1.539 . S
C2589 C2585 1.408 1_556 S
C2589 C2588 1.404 . S
C2589 H2601 0.930 . S
C2590 C2586 1.524 . S
C2590 H2602 0.956 . S
C2590 H2603 0.961 . S
C2590 H2604 0.961 . S
C2591 C2588 1.539 . S
C2591 H2605 0.958 . S
C2591 H2606 0.961 1_455 S
C2591 H2607 0.960 1_455 S
H2592 C2576 0.931 . S
H2593 C2581 0.929 . S
H2594 C2582 0.960 . S
H2595 C2582 0.962 . S
H2596 C2582 0.960 . S
H2597 C2583 0.961 . S
H2598 C2583 0.961 1_554 S
H2599 C2583 0.961 . S
H2600 C2584 0.931 . S
H2601 C2589 0.930 . S
H2602 C2590 0.956 . S
H2603 C2590 0.961 . S
H2604 C2590 0.961 . S
H2605 C2591 0.958 . S
H2606 C2591 0.961 1_655 S
H2607 C2591 0.960 1_655 S
C2608 C2609 1.391 . S
C2608 C2610 1.394 . S
C2608 H2624 0.931 . S
C2609 C2608 1.391 . S
C2609 C2613 1.376 . S
C2610 C2608 1.394 . S
C2610 C2611 1.369 1_455 S
C2610 C2614 1.531 . S
C2611 C2610 1.369 1_655 S
C2611 C2612 1.410 . S
C2611 C2619 1.503 . S
C2612 C2611 1.410 . S
C2612 C2613 1.392 1_655 S
C2612 C2615 1.511 . S
C2613 C2609 1.376 . S
C2613 C2612 1.392 1_455 S
C2613 H2625 0.929 . S
C2614 C2610 1.531 . S
C2614 H2626 0.960 1_455 S
C2614 H2627 0.962 . S
C2614 H2628 0.960 . S
C2615 C2612 1.511 . S
C2615 H2629 0.961 . S
C2615 H2630 0.961 . S
C2615 H2631 0.961 . S
C2616 C2617 1.370 . S
C2616 C2618 1.363 . S
C2616 H2632 0.931 . S
C2617 C2616 1.370 . S
C2617 C2621 1.408 . S
C2618 C2616 1.363 . S
C2618 C2619 1.370 . S
C2618 C2622 1.524 . S
C2619 C2611 1.503 . S
C2619 C2618 1.370 . S
C2619 C2620 1.403 . S
C2620 C2619 1.403 . S
C2620 C2621 1.404 . S
C2620 C2623 1.539 . S
C2621 C2617 1.408 . S
C2621 C2620 1.404 . S
C2621 H2633 0.930 . S
C2622 C2618 1.524 . S
C2622 H2634 0.956 . S
C2622 H2635 0.961 . S
C2622 H2636 0.961 . S
C2623 C2620 1.539 . S
C2623 H2637 0.958 . S
C2623 H2638 0.961 . S
C2623 H2639 0.960 . S
H2624 C2608 0.931 . S
H2625 C2613 0.929 . S
H2626 C2614 0.960 1_655 S
H2627 C2614 0.962 . S
H2628 C2614 0.960 . S
H2629 C2615 0.961 . S
H2630 C2615 0.961 . S
H2631 C2615 0.961 . S
H2632 C2616 0.931 . S
H2633 C2621 0.930 . S
H2634 C2622 0.956 . S
H2635 C2622 0.961 . S
H2636 C2622 0.961 . S
H2637 C2623 0.958 . S
H2638 C2623 0.961 . S
H2639 C2623 0.960 . S
C2640 C2641 1.391 . S
C2640 C2642 1.394 . S
C2640 H2656 0.931 . S
C2641 C2640 1.391 . S
C2641 C2645 1.376 . S
C2642 C2640 1.394 . S
C2642 C2643 1.369 . S
C2642 C2646 1.531 . S
C2643 C2642 1.369 . S
C2643 C2644 1.410 . S
C2643 C2651 1.503 . S
C2644 C2643 1.410 . S
C2644 C2645 1.392 . S
C2644 C2647 1.511 . S
C2645 C2641 1.376 . S
C2645 C2644 1.392 . S
C2645 H2657 0.929 . S
C2646 C2642 1.531 . S
C2646 H2658 0.960 . S
C2646 H2659 0.962 . S
C2646 H2660 0.960 . S
C2647 C2644 1.511 . S
C2647 H2661 0.961 . S
C2647 H2662 0.961 . S
C2647 H2663 0.961 . S
C2648 C2649 1.370 . S
C2648 C2650 1.363 . S
C2648 H2664 0.931 . S
C2649 C2648 1.370 . S
C2649 C2653 1.408 . S
C2650 C2648 1.363 . S
C2650 C2651 1.370 . S
C2650 C2654 1.524 . S
C2651 C2643 1.503 . S
C2651 C2650 1.370 . S
C2651 C2652 1.403 . S
C2652 C2651 1.403 . S
C2652 C2653 1.404 . S
C2652 C2655 1.539 . S
C2653 C2649 1.408 . S
C2653 C2652 1.404 . S
C2653 H2665 0.930 . S
C2654 C2650 1.524 . S
C2654 H2666 0.956 . S
C2654 H2667 0.961 . S
C2654 H2668 0.961 . S
C2655 C2652 1.539 . S
C2655 H2669 0.958 . S
C2655 H2670 0.961 . S
C2655 H2671 0.960 . S
H2656 C2640 0.931 . S
H2657 C2645 0.929 . S
H2658 C2646 0.960 . S
H2659 C2646 0.962 . S
H2660 C2646 0.960 . S
H2661 C2647 0.961 . S
H2662 C2647 0.961 . S
H2663 C2647 0.961 . S
H2664 C2648 0.931 . S
H2665 C2653 0.930 . S
H2666 C2654 0.956 . S
H2667 C2654 0.961 . S
H2668 C2654 0.961 . S
H2669 C2655 0.958 . S
H2670 C2655 0.961 . S
H2671 C2655 0.960 . S
C2672 C2673 1.391 . S
C2672 C2674 1.394 . S
C2672 H2688 0.931 . S
C2673 C2672 1.391 . S
C2673 C2677 1.376 . S
C2674 C2672 1.394 . S
C2674 C2675 1.369 . S
C2674 C2678 1.531 . S
C2675 C2674 1.369 . S
C2675 C2676 1.410 . S
C2675 C2683 1.503 . S
C2676 C2675 1.410 . S
C2676 C2677 1.392 . S
C2676 C2679 1.511 . S
C2677 C2673 1.376 . S
C2677 C2676 1.392 . S
C2677 H2689 0.929 . S
C2678 C2674 1.531 . S
C2678 H2690 0.960 . S
C2678 H2691 0.962 . S
C2678 H2692 0.960 . S
C2679 C2676 1.511 . S
C2679 H2693 0.961 . S
C2679 H2694 0.961 . S
C2679 H2695 0.961 . S
C2680 C2681 1.370 . S
C2680 C2682 1.363 . S
C2680 H2696 0.931 . S
C2681 C2680 1.370 . S
C2681 C2685 1.408 . S
C2682 C2680 1.363 . S
C2682 C2683 1.370 . S
C2682 C2686 1.524 . S
C2683 C2675 1.503 . S
C2683 C2682 1.370 . S
C2683 C2684 1.403 . S
C2684 C2683 1.403 . S
C2684 C2685 1.404 . S
C2684 C2687 1.539 . S
C2685 C2681 1.408 . S
C2685 C2684 1.404 . S
C2685 H2697 0.930 . S
C2686 C2682 1.524 . S
C2686 H2698 0.956 . S
C2686 H2699 0.961 . S
C2686 H2700 0.961 . S
C2687 C2684 1.539 . S
C2687 H2701 0.958 . S
C2687 H2702 0.961 . S
C2687 H2703 0.960 . S
H2688 C2672 0.931 . S
H2689 C2677 0.929 . S
H2690 C2678 0.960 . S
H2691 C2678 0.962 . S
H2692 C2678 0.960 . S
H2693 C2679 0.961 . S
H2694 C2679 0.961 . S
H2695 C2679 0.961 . S
H2696 C2680 0.931 . S
H2697 C2685 0.930 . S
H2698 C2686 0.956 . S
H2699 C2686 0.961 . S
H2700 C2686 0.961 . S
H2701 C2687 0.958 . S
H2702 C2687 0.961 . S
H2703 C2687 0.960 . S
C2704 C2705 1.391 . S
C2704 C2706 1.394 . S
C2704 H2720 0.931 . S
C2705 C2704 1.391 . S
C2705 C2709 1.376 . S
C2706 C2704 1.394 . S
C2706 C2707 1.369 . S
C2706 C2710 1.531 . S
C2707 C2706 1.369 . S
C2707 C2708 1.410 . S
C2707 C2715 1.503 . S
C2708 C2707 1.410 . S
C2708 C2709 1.392 . S
C2708 C2711 1.511 1_455 S
C2709 C2705 1.376 . S
C2709 C2708 1.392 . S
C2709 H2721 0.929 . S
C2710 C2706 1.531 . S
C2710 H2722 0.960 . S
C2710 H2723 0.962 . S
C2710 H2724 0.960 . S
C2711 C2708 1.511 1_655 S
C2711 H2725 0.961 . S
C2711 H2726 0.961 . S
C2711 H2727 0.961 . S
C2712 C2713 1.370 . S
C2712 C2714 1.363 . S
C2712 H2728 0.931 . S
C2713 C2712 1.370 . S
C2713 C2717 1.408 . S
C2714 C2712 1.363 . S
C2714 C2715 1.370 . S
C2714 C2718 1.524 . S
C2715 C2707 1.503 . S
C2715 C2714 1.370 . S
C2715 C2716 1.403 . S
C2716 C2715 1.403 . S
C2716 C2717 1.404 . S
C2716 C2719 1.539 . S
C2717 C2713 1.408 . S
C2717 C2716 1.404 . S
C2717 H2729 0.930 . S
C2718 C2714 1.524 . S
C2718 H2730 0.956 . S
C2718 H2731 0.961 . S
C2718 H2732 0.961 . S
C2719 C2716 1.539 . S
C2719 H2733 0.958 . S
C2719 H2734 0.961 . S
C2719 H2735 0.960 . S
H2720 C2704 0.931 . S
H2721 C2709 0.929 . S
H2722 C2710 0.960 . S
H2723 C2710 0.962 . S
H2724 C2710 0.960 . S
H2725 C2711 0.961 . S
H2726 C2711 0.961 . S
H2727 C2711 0.961 . S
H2728 C2712 0.931 . S
H2729 C2717 0.930 . S
H2730 C2718 0.956 . S
H2731 C2718 0.961 . S
H2732 C2718 0.961 . S
H2733 C2719 0.958 . S
H2734 C2719 0.961 . S
H2735 C2719 0.960 . S
C2736 C2737 1.391 . S
C2736 C2738 1.394 . S
C2736 H2752 0.931 . S
C2737 C2736 1.391 . S
C2737 C2741 1.376 . S
C2738 C2736 1.394 . S
C2738 C2739 1.369 . S
C2738 C2742 1.531 . S
C2739 C2738 1.369 . S
C2739 C2740 1.410 . S
C2739 C2747 1.503 . S
C2740 C2739 1.410 . S
C2740 C2741 1.392 . S
C2740 C2743 1.511 . S
C2741 C2737 1.376 . S
C2741 C2740 1.392 . S
C2741 H2753 0.929 . S
C2742 C2738 1.531 . S
C2742 H2754 0.960 . S
C2742 H2755 0.962 . S
C2742 H2756 0.960 . S
C2743 C2740 1.511 . S
C2743 H2757 0.961 . S
C2743 H2758 0.961 . S
C2743 H2759 0.961 . S
C2744 C2745 1.370 . S
C2744 C2746 1.363 . S
C2744 H2760 0.931 . S
C2745 C2744 1.370 . S
C2745 C2749 1.408 . S
C2746 C2744 1.363 . S
C2746 C2747 1.370 . S
C2746 C2750 1.524 . S
C2747 C2739 1.503 . S
C2747 C2746 1.370 . S
C2747 C2748 1.403 . S
C2748 C2747 1.403 . S
C2748 C2749 1.404 . S
C2748 C2751 1.539 . S
C2749 C2745 1.408 . S
C2749 C2748 1.404 . S
C2749 H2761 0.930 . S
C2750 C2746 1.524 . S
C2750 H2762 0.956 . S
C2750 H2763 0.961 . S
C2750 H2764 0.961 . S
C2751 C2748 1.539 . S
C2751 H2765 0.958 . S
C2751 H2766 0.961 . S
C2751 H2767 0.960 . S
H2752 C2736 0.931 . S
H2753 C2741 0.929 . S
H2754 C2742 0.960 . S
H2755 C2742 0.962 . S
H2756 C2742 0.960 . S
H2757 C2743 0.961 . S
H2758 C2743 0.961 . S
H2759 C2743 0.961 . S
H2760 C2744 0.931 . S
H2761 C2749 0.930 . S
H2762 C2750 0.956 . S
H2763 C2750 0.961 . S
H2764 C2750 0.961 . S
H2765 C2751 0.958 . S
H2766 C2751 0.961 . S
H2767 C2751 0.960 . S
C2768 C2769 1.391 . S
C2768 C2770 1.394 . S
C2768 H2784 0.931 . S
C2769 C2768 1.391 . S
C2769 C2773 1.376 . S
C2770 C2768 1.394 . S
C2770 C2771 1.369 . S
C2770 C2774 1.531 . S
C2771 C2770 1.369 . S
C2771 C2772 1.410 . S
C2771 C2779 1.503 . S
C2772 C2771 1.410 . S
C2772 C2773 1.392 . S
C2772 C2775 1.511 . S
C2773 C2769 1.376 . S
C2773 C2772 1.392 . S
C2773 H2785 0.929 . S
C2774 C2770 1.531 . S
C2774 H2786 0.960 . S
C2774 H2787 0.962 . S
C2774 H2788 0.960 . S
C2775 C2772 1.511 . S
C2775 H2789 0.961 . S
C2775 H2790 0.961 . S
C2775 H2791 0.961 . S
C2776 C2777 1.370 . S
C2776 C2778 1.363 . S
C2776 H2792 0.931 . S
C2777 C2776 1.370 . S
C2777 C2781 1.408 . S
C2778 C2776 1.363 . S
C2778 C2779 1.370 . S
C2778 C2782 1.524 . S
C2779 C2771 1.503 . S
C2779 C2778 1.370 . S
C2779 C2780 1.403 . S
C2780 C2779 1.403 . S
C2780 C2781 1.404 . S
C2780 C2783 1.539 . S
C2781 C2777 1.408 . S
C2781 C2780 1.404 . S
C2781 H2793 0.930 . S
C2782 C2778 1.524 . S
C2782 H2794 0.956 . S
C2782 H2795 0.961 . S
C2782 H2796 0.961 . S
C2783 C2780 1.539 . S
C2783 H2797 0.958 . S
C2783 H2798 0.961 . S
C2783 H2799 0.960 . S
H2784 C2768 0.931 . S
H2785 C2773 0.929 . S
H2786 C2774 0.960 . S
H2787 C2774 0.962 . S
H2788 C2774 0.960 . S
H2789 C2775 0.961 . S
H2790 C2775 0.961 . S
H2791 C2775 0.961 . S
H2792 C2776 0.931 . S
H2793 C2781 0.930 . S
H2794 C2782 0.956 . S
H2795 C2782 0.961 . S
H2796 C2782 0.961 . S
H2797 C2783 0.958 . S
H2798 C2783 0.961 . S
H2799 C2783 0.960 . S
C2800 C2801 1.391 . S
C2800 C2802 1.394 1_554 S
C2800 H2816 0.931 . S
C2801 C2800 1.391 . S
C2801 C2805 1.376 1_554 S
C2802 C2800 1.394 1_556 S
C2802 C2803 1.369 . S
C2802 C2806 1.531 . S
C2803 C2802 1.369 . S
C2803 C2804 1.410 . S
C2803 C2811 1.503 . S
C2804 C2803 1.410 . S
C2804 C2805 1.392 . S
C2804 C2807 1.511 . S
C2805 C2801 1.376 1_556 S
C2805 C2804 1.392 . S
C2805 H2817 0.929 . S
C2806 C2802 1.531 . S
C2806 H2818 0.960 . S
C2806 H2819 0.962 . S
C2806 H2820 0.960 1_556 S
C2807 C2804 1.511 . S
C2807 H2821 0.961 . S
C2807 H2822 0.961 . S
C2807 H2823 0.961 . S
C2808 C2809 1.370 . S
C2808 C2810 1.363 . S
C2808 H2824 0.931 . S
C2809 C2808 1.370 . S
C2809 C2813 1.408 . S
C2810 C2808 1.363 . S
C2810 C2811 1.370 . S
C2810 C2814 1.524 . S
C2811 C2803 1.503 . S
C2811 C2810 1.370 . S
C2811 C2812 1.403 . S
C2812 C2811 1.403 . S
C2812 C2813 1.404 . S
C2812 C2815 1.539 . S
C2813 C2809 1.408 . S
C2813 C2812 1.404 . S
C2813 H2825 0.930 . S
C2814 C2810 1.524 . S
C2814 H2826 0.956 . S
C2814 H2827 0.961 . S
C2814 H2828 0.961 . S
C2815 C2812 1.539 . S
C2815 H2829 0.958 . S
C2815 H2830 0.961 . S
C2815 H2831 0.960 . S
H2816 C2800 0.931 . S
H2817 C2805 0.929 . S
H2818 C2806 0.960 . S
H2819 C2806 0.962 . S
H2820 C2806 0.960 1_554 S
H2821 C2807 0.961 . S
H2822 C2807 0.961 . S
H2823 C2807 0.961 . S
H2824 C2808 0.931 . S
H2825 C2813 0.930 . S
H2826 C2814 0.956 . S
H2827 C2814 0.961 . S
H2828 C2814 0.961 . S
H2829 C2815 0.958 . S
H2830 C2815 0.961 . S
H2831 C2815 0.960 . S
C2832 C2833 1.391 . S
C2832 C2834 1.394 . S
C2832 H2848 0.931 . S
C2833 C2832 1.391 . S
C2833 C2837 1.376 . S
C2834 C2832 1.394 . S
C2834 C2835 1.369 . S
C2834 C2838 1.531 . S
C2835 C2834 1.369 . S
C2835 C2836 1.410 . S
C2835 C2843 1.503 . S
C2836 C2835 1.410 . S
C2836 C2837 1.392 . S
C2836 C2839 1.511 . S
C2837 C2833 1.376 . S
C2837 C2836 1.392 . S
C2837 H2849 0.929 . S
C2838 C2834 1.531 . S
C2838 H2850 0.960 . S
C2838 H2851 0.962 . S
C2838 H2852 0.960 . S
C2839 C2836 1.511 . S
C2839 H2853 0.961 . S
C2839 H2854 0.961 . S
C2839 H2855 0.961 . S
C2840 C2841 1.370 . S
C2840 C2842 1.363 . S
C2840 H2856 0.931 . S
C2841 C2840 1.370 . S
C2841 C2845 1.408 . S
C2842 C2840 1.363 . S
C2842 C2843 1.370 . S
C2842 C2846 1.524 . S
C2843 C2835 1.503 . S
C2843 C2842 1.370 . S
C2843 C2844 1.403 . S
C2844 C2843 1.403 . S
C2844 C2845 1.404 . S
C2844 C2847 1.539 . S
C2845 C2841 1.408 . S
C2845 C2844 1.404 . S
C2845 H2857 0.930 . S
C2846 C2842 1.524 . S
C2846 H2858 0.956 . S
C2846 H2859 0.961 . S
C2846 H2860 0.961 . S
C2847 C2844 1.539 . S
C2847 H2861 0.958 . S
C2847 H2862 0.961 . S
C2847 H2863 0.960 . S
H2848 C2832 0.931 . S
H2849 C2837 0.929 . S
H2850 C2838 0.960 . S
H2851 C2838 0.962 . S
H2852 C2838 0.960 . S
H2853 C2839 0.961 . S
H2854 C2839 0.961 . S
H2855 C2839 0.961 . S
H2856 C2840 0.931 . S
H2857 C2845 0.930 . S
H2858 C2846 0.956 . S
H2859 C2846 0.961 . S
H2860 C2846 0.961 . S
H2861 C2847 0.958 . S
H2862 C2847 0.961 . S
H2863 C2847 0.960 . S
C2864 C2865 1.391 . S
C2864 C2866 1.394 . S
C2864 H2880 0.931 . S
C2865 C2864 1.391 . S
C2865 C2869 1.376 . S
C2866 C2864 1.394 . S
C2866 C2867 1.369 . S
C2866 C2870 1.531 . S
C2867 C2866 1.369 . S
C2867 C2868 1.410 . S
C2867 C2875 1.503 . S
C2868 C2867 1.410 . S
C2868 C2869 1.392 . S
C2868 C2871 1.511 . S
C2869 C2865 1.376 . S
C2869 C2868 1.392 . S
C2869 H2881 0.929 . S
C2870 C2866 1.531 . S
C2870 H2882 0.960 . S
C2870 H2883 0.962 . S
C2870 H2884 0.960 . S
C2871 C2868 1.511 . S
C2871 H2885 0.961 . S
C2871 H2886 0.961 . S
C2871 H2887 0.961 . S
C2872 C2873 1.370 . S
C2872 C2874 1.363 . S
C2872 H2888 0.931 . S
C2873 C2872 1.370 . S
C2873 C2877 1.408 . S
C2874 C2872 1.363 . S
C2874 C2875 1.370 . S
C2874 C2878 1.524 . S
C2875 C2867 1.503 . S
C2875 C2874 1.370 . S
C2875 C2876 1.403 . S
C2876 C2875 1.403 . S
C2876 C2877 1.404 . S
C2876 C2879 1.539 . S
C2877 C2873 1.408 . S
C2877 C2876 1.404 . S
C2877 H2889 0.930 . S
C2878 C2874 1.524 . S
C2878 H2890 0.956 . S
C2878 H2891 0.961 . S
C2878 H2892 0.961 . S
C2879 C2876 1.539 . S
C2879 H2893 0.958 . S
C2879 H2894 0.961 . S
C2879 H2895 0.960 . S
H2880 C2864 0.931 . S
H2881 C2869 0.929 . S
H2882 C2870 0.960 . S
H2883 C2870 0.962 . S
H2884 C2870 0.960 . S
H2885 C2871 0.961 . S
H2886 C2871 0.961 . S
H2887 C2871 0.961 . S
H2888 C2872 0.931 . S
H2889 C2877 0.930 . S
H2890 C2878 0.956 . S
H2891 C2878 0.961 . S
H2892 C2878 0.961 . S
H2893 C2879 0.958 . S
H2894 C2879 0.961 . S
H2895 C2879 0.960 . S
C2896 C2897 1.391 . S
C2896 C2898 1.394 . S
C2896 H2912 0.931 . S
C2897 C2896 1.391 . S
C2897 C2901 1.376 . S
C2898 C2896 1.394 . S
C2898 C2899 1.369 . S
C2898 C2902 1.531 . S
C2899 C2898 1.369 . S
C2899 C2900 1.410 . S
C2899 C2907 1.503 . S
C2900 C2899 1.410 . S
C2900 C2901 1.392 . S
C2900 C2903 1.511 . S
C2901 C2897 1.376 . S
C2901 C2900 1.392 . S
C2901 H2913 0.929 . S
C2902 C2898 1.531 . S
C2902 H2914 0.960 . S
C2902 H2915 0.962 . S
C2902 H2916 0.960 . S
C2903 C2900 1.511 . S
C2903 H2917 0.961 . S
C2903 H2918 0.961 . S
C2903 H2919 0.961 . S
C2904 C2905 1.370 . S
C2904 C2906 1.363 . S
C2904 H2920 0.931 . S
C2905 C2904 1.370 . S
C2905 C2909 1.408 . S
C2906 C2904 1.363 . S
C2906 C2907 1.370 . S
C2906 C2910 1.524 . S
C2907 C2899 1.503 . S
C2907 C2906 1.370 . S
C2907 C2908 1.403 . S
C2908 C2907 1.403 . S
C2908 C2909 1.404 . S
C2908 C2911 1.539 . S
C2909 C2905 1.408 . S
C2909 C2908 1.404 . S
C2909 H2921 0.930 . S
C2910 C2906 1.524 . S
C2910 H2922 0.956 . S
C2910 H2923 0.961 . S
C2910 H2924 0.961 . S
C2911 C2908 1.539 . S
C2911 H2925 0.958 . S
C2911 H2926 0.961 . S
C2911 H2927 0.960 . S
H2912 C2896 0.931 . S
H2913 C2901 0.929 . S
H2914 C2902 0.960 . S
H2915 C2902 0.962 . S
H2916 C2902 0.960 . S
H2917 C2903 0.961 . S
H2918 C2903 0.961 . S
H2919 C2903 0.961 . S
H2920 C2904 0.931 . S
H2921 C2909 0.930 . S
H2922 C2910 0.956 . S
H2923 C2910 0.961 . S
H2924 C2910 0.961 . S
H2925 C2911 0.958 . S
H2926 C2911 0.961 . S
H2927 C2911 0.960 . S
C2928 C2929 1.391 . S
C2928 C2930 1.394 . S
C2928 H2944 0.931 . S
C2929 C2928 1.391 . S
C2929 C2933 1.376 . S
C2930 C2928 1.394 . S
C2930 C2931 1.369 . S
C2930 C2934 1.531 . S
C2931 C2930 1.369 . S
C2931 C2932 1.410 . S
C2931 C2939 1.503 . S
C2932 C2931 1.410 . S
C2932 C2933 1.392 . S
C2932 C2935 1.511 . S
C2933 C2929 1.376 . S
C2933 C2932 1.392 . S
C2933 H2945 0.929 . S
C2934 C2930 1.531 . S
C2934 H2946 0.960 . S
C2934 H2947 0.962 . S
C2934 H2948 0.960 . S
C2935 C2932 1.511 . S
C2935 H2949 0.961 . S
C2935 H2950 0.961 . S
C2935 H2951 0.961 . S
C2936 C2937 1.370 . S
C2936 C2938 1.363 . S
C2936 H2952 0.931 . S
C2937 C2936 1.370 . S
C2937 C2941 1.408 . S
C2938 C2936 1.363 . S
C2938 C2939 1.370 . S
C2938 C2942 1.524 . S
C2939 C2931 1.503 . S
C2939 C2938 1.370 . S
C2939 C2940 1.403 . S
C2940 C2939 1.403 . S
C2940 C2941 1.404 . S
C2940 C2943 1.539 . S
C2941 C2937 1.408 . S
C2941 C2940 1.404 . S
C2941 H2953 0.930 . S
C2942 C2938 1.524 . S
C2942 H2954 0.956 . S
C2942 H2955 0.961 . S
C2942 H2956 0.961 . S
C2943 C2940 1.539 . S
C2943 H2957 0.958 . S
C2943 H2958 0.961 . S
C2943 H2959 0.960 . S
H2944 C2928 0.931 . S
H2945 C2933 0.929 . S
H2946 C2934 0.960 . S
H2947 C2934 0.962 . S
H2948 C2934 0.960 . S
H2949 C2935 0.961 . S
H2950 C2935 0.961 . S
H2951 C2935 0.961 . S
H2952 C2936 0.931 . S
H2953 C2941 0.930 . S
H2954 C2942 0.956 . S
H2955 C2942 0.961 . S
H2956 C2942 0.961 . S
H2957 C2943 0.958 . S
H2958 C2943 0.961 . S
H2959 C2943 0.960 . S
C2960 C2961 1.391 . S
C2960 C2962 1.394 . S
C2960 H2976 0.931 . S
C2961 C2960 1.391 . S
C2961 C2965 1.376 . S
C2962 C2960 1.394 . S
C2962 C2963 1.369 . S
C2962 C2966 1.531 . S
C2963 C2962 1.369 . S
C2963 C2964 1.410 . S
C2963 C2971 1.503 . S
C2964 C2963 1.410 . S
C2964 C2965 1.392 . S
C2964 C2967 1.511 . S
C2965 C2961 1.376 . S
C2965 C2964 1.392 . S
C2965 H2977 0.929 . S
C2966 C2962 1.531 . S
C2966 H2978 0.960 . S
C2966 H2979 0.962 . S
C2966 H2980 0.960 . S
C2967 C2964 1.511 . S
C2967 H2981 0.961 . S
C2967 H2982 0.961 . S
C2967 H2983 0.961 . S
C2968 C2969 1.370 . S
C2968 C2970 1.363 . S
C2968 H2984 0.931 . S
C2969 C2968 1.370 . S
C2969 C2973 1.408 . S
C2970 C2968 1.363 . S
C2970 C2971 1.370 . S
C2970 C2974 1.524 . S
C2971 C2963 1.503 . S
C2971 C2970 1.370 . S
C2971 C2972 1.403 . S
C2972 C2971 1.403 . S
C2972 C2973 1.404 . S
C2972 C2975 1.539 . S
C2973 C2969 1.408 . S
C2973 C2972 1.404 . S
C2973 H2985 0.930 . S
C2974 C2970 1.524 . S
C2974 H2986 0.956 . S
C2974 H2987 0.961 . S
C2974 H2988 0.961 . S
C2975 C2972 1.539 . S
C2975 H2989 0.958 . S
C2975 H2990 0.961 . S
C2975 H2991 0.960 . S
H2976 C2960 0.931 . S
H2977 C2965 0.929 . S
H2978 C2966 0.960 . S
H2979 C2966 0.962 . S
H2980 C2966 0.960 . S
H2981 C2967 0.961 . S
H2982 C2967 0.961 . S
H2983 C2967 0.961 . S
H2984 C2968 0.931 . S
H2985 C2973 0.930 . S
H2986 C2974 0.956 . S
H2987 C2974 0.961 . S
H2988 C2974 0.961 . S
H2989 C2975 0.958 . S
H2990 C2975 0.961 . S
H2991 C2975 0.960 . S
C2992 C2993 1.391 . S
C2992 C2994 1.394 . S
C2992 H3008 0.931 . S
C2993 C2992 1.391 . S
C2993 C2997 1.376 . S
C2994 C2992 1.394 . S
C2994 C2995 1.369 . S
C2994 C2998 1.531 . S
C2995 C2994 1.369 . S
C2995 C2996 1.410 . S
C2995 C3003 1.503 . S
C2996 C2995 1.410 . S
C2996 C2997 1.392 . S
C2996 C2999 1.511 . S
C2997 C2993 1.376 . S
C2997 C2996 1.392 . S
C2997 H3009 0.929 . S
C2998 C2994 1.531 . S
C2998 H3010 0.960 . S
C2998 H3011 0.962 . S
C2998 H3012 0.960 . S
C2999 C2996 1.511 . S
C2999 H3013 0.961 . S
C2999 H3014 0.961 . S
C2999 H3015 0.961 . S
C3000 C3001 1.370 . S
C3000 C3002 1.363 . S
C3000 H3016 0.931 . S
C3001 C3000 1.370 . S
C3001 C3005 1.408 . S
C3002 C3000 1.363 . S
C3002 C3003 1.370 . S
C3002 C3006 1.524 . S
C3003 C2995 1.503 . S
C3003 C3002 1.370 . S
C3003 C3004 1.403 . S
C3004 C3003 1.403 . S
C3004 C3005 1.404 . S
C3004 C3007 1.539 . S
C3005 C3001 1.408 . S
C3005 C3004 1.404 . S
C3005 H3017 0.930 . S
C3006 C3002 1.524 . S
C3006 H3018 0.956 . S
C3006 H3019 0.961 . S
C3006 H3020 0.961 . S
C3007 C3004 1.539 . S
C3007 H3021 0.958 . S
C3007 H3022 0.961 . S
C3007 H3023 0.960 . S
H3008 C2992 0.931 . S
H3009 C2997 0.929 . S
H3010 C2998 0.960 . S
H3011 C2998 0.962 . S
H3012 C2998 0.960 . S
H3013 C2999 0.961 . S
H3014 C2999 0.961 . S
H3015 C2999 0.961 . S
H3016 C3000 0.931 . S
H3017 C3005 0.930 . S
H3018 C3006 0.956 . S
H3019 C3006 0.961 . S
H3020 C3006 0.961 . S
H3021 C3007 0.958 . S
H3022 C3007 0.961 . S
H3023 C3007 0.960 . S
C3024 C3025 1.391 . S
C3024 C3026 1.394 . S
C3024 H3040 0.931 . S
C3025 C3024 1.391 . S
C3025 C3029 1.376 . S
C3026 C3024 1.394 . S
C3026 C3027 1.369 . S
C3026 C3030 1.531 . S
C3027 C3026 1.369 . S
C3027 C3028 1.410 . S
C3027 C3035 1.503 . S
C3028 C3027 1.410 . S
C3028 C3029 1.392 . S
C3028 C3031 1.511 . S
C3029 C3025 1.376 . S
C3029 C3028 1.392 . S
C3029 H3041 0.929 . S
C3030 C3026 1.531 . S
C3030 H3042 0.960 . S
C3030 H3043 0.962 . S
C3030 H3044 0.960 . S
C3031 C3028 1.511 . S
C3031 H3045 0.961 . S
C3031 H3046 0.961 . S
C3031 H3047 0.961 . S
C3032 C3033 1.370 . S
C3032 C3034 1.363 . S
C3032 H3048 0.931 . S
C3033 C3032 1.370 . S
C3033 C3037 1.408 . S
C3034 C3032 1.363 . S
C3034 C3035 1.370 . S
C3034 C3038 1.524 . S
C3035 C3027 1.503 . S
C3035 C3034 1.370 . S
C3035 C3036 1.403 . S
C3036 C3035 1.403 . S
C3036 C3037 1.404 . S
C3036 C3039 1.539 . S
C3037 C3033 1.408 . S
C3037 C3036 1.404 . S
C3037 H3049 0.930 . S
C3038 C3034 1.524 . S
C3038 H3050 0.956 . S
C3038 H3051 0.961 . S
C3038 H3052 0.961 . S
C3039 C3036 1.539 . S
C3039 H3053 0.958 . S
C3039 H3054 0.961 . S
C3039 H3055 0.960 . S
H3040 C3024 0.931 . S
H3041 C3029 0.929 . S
H3042 C3030 0.960 . S
H3043 C3030 0.962 . S
H3044 C3030 0.960 . S
H3045 C3031 0.961 . S
H3046 C3031 0.961 . S
H3047 C3031 0.961 . S
H3048 C3032 0.931 . S
H3049 C3037 0.930 . S
H3050 C3038 0.956 . S
H3051 C3038 0.961 . S
H3052 C3038 0.961 . S
H3053 C3039 0.958 . S
H3054 C3039 0.961 . S
H3055 C3039 0.960 . S
C3056 C3057 1.391 . S
C3056 C3058 1.394 . S
C3056 H3072 0.931 . S
C3057 C3056 1.391 . S
C3057 C3061 1.376 . S
C3058 C3056 1.394 . S
C3058 C3059 1.369 . S
C3058 C3062 1.531 . S
C3059 C3058 1.369 . S
C3059 C3060 1.410 . S
C3059 C3067 1.503 . S
C3060 C3059 1.410 . S
C3060 C3061 1.392 . S
C3060 C3063 1.511 . S
C3061 C3057 1.376 . S
C3061 C3060 1.392 . S
C3061 H3073 0.929 . S
C3062 C3058 1.531 . S
C3062 H3074 0.960 . S
C3062 H3075 0.962 . S
C3062 H3076 0.960 . S
C3063 C3060 1.511 . S
C3063 H3077 0.961 . S
C3063 H3078 0.961 . S
C3063 H3079 0.961 . S
C3064 C3065 1.370 . S
C3064 C3066 1.363 . S
C3064 H3080 0.931 . S
C3065 C3064 1.370 . S
C3065 C3069 1.408 . S
C3066 C3064 1.363 . S
C3066 C3067 1.370 . S
C3066 C3070 1.524 . S
C3067 C3059 1.503 . S
C3067 C3066 1.370 . S
C3067 C3068 1.403 . S
C3068 C3067 1.403 . S
C3068 C3069 1.404 . S
C3068 C3071 1.539 . S
C3069 C3065 1.408 . S
C3069 C3068 1.404 . S
C3069 H3081 0.930 . S
C3070 C3066 1.524 . S
C3070 H3082 0.956 . S
C3070 H3083 0.961 . S
C3070 H3084 0.961 . S
C3071 C3068 1.539 . S
C3071 H3085 0.958 . S
C3071 H3086 0.961 . S
C3071 H3087 0.960 . S
H3072 C3056 0.931 . S
H3073 C3061 0.929 . S
H3074 C3062 0.960 . S
H3075 C3062 0.962 . S
H3076 C3062 0.960 . S
H3077 C3063 0.961 . S
H3078 C3063 0.961 . S
H3079 C3063 0.961 . S
H3080 C3064 0.931 . S
H3081 C3069 0.930 . S
H3082 C3070 0.956 . S
H3083 C3070 0.961 . S
H3084 C3070 0.961 . S
H3085 C3071 0.958 . S
H3086 C3071 0.961 . S
H3087 C3071 0.960 . S
C3088 C3089 1.391 1_545 S
C3088 C3090 1.394 1_545 S
C3088 H3104 0.931 . S
C3089 C3088 1.391 1_565 S
C3089 C3093 1.376 . S
C3090 C3088 1.394 1_565 S
C3090 C3091 1.369 . S
C3090 C3094 1.531 . S
C3091 C3090 1.369 . S
C3091 C3092 1.410 . S
C3091 C3099 1.503 . S
C3092 C3091 1.410 . S
C3092 C3093 1.392 . S
C3092 C3095 1.511 . S
C3093 C3089 1.376 . S
C3093 C3092 1.392 . S
C3093 H3105 0.929 . S
C3094 C3090 1.531 . S
C3094 H3106 0.960 . S
C3094 H3107 0.962 1_565 S
C3094 H3108 0.960 1_565 S
C3095 C3092 1.511 . S
C3095 H3109 0.961 . S
C3095 H3110 0.961 . S
C3095 H3111 0.961 . S
C3096 C3097 1.370 . S
C3096 C3098 1.363 . S
C3096 H3112 0.931 . S
C3097 C3096 1.370 . S
C3097 C3101 1.408 . S
C3098 C3096 1.363 . S
C3098 C3099 1.370 . S
C3098 C3102 1.524 . S
C3099 C3091 1.503 . S
C3099 C3098 1.370 . S
C3099 C3100 1.403 . S
C3100 C3099 1.403 . S
C3100 C3101 1.404 . S
C3100 C3103 1.539 . S
C3101 C3097 1.408 . S
C3101 C3100 1.404 . S
C3101 H3113 0.930 . S
C3102 C3098 1.524 . S
C3102 H3114 0.929 1_565 S
C3102 H3115 0.961 . S
C3102 H3116 0.961 . S
C3103 C3100 1.539 . S
C3103 H3117 0.958 . S
C3103 H3118 0.961 . S
C3103 H3119 0.960 . S
H3104 C3088 0.931 . S
H3105 C3093 0.929 . S
H3106 C3094 0.960 . S
H3107 C3094 0.962 1_545 S
H3108 C3094 0.960 1_545 S
H3109 C3095 0.961 . S
H3110 C3095 0.961 . S
H3111 C3095 0.961 . S
H3112 C3096 0.931 . S
H3113 C3101 0.930 . S
H3114 C3102 0.929 1_545 S
H3115 C3102 0.961 . S
H3116 C3102 0.961 . S
H3117 C3103 0.958 . S
H3118 C3103 0.961 . S
H3119 C3103 0.960 . S
C3120 C3121 1.391 1_556 S
C3120 C3122 1.394 . S
C3120 H3136 0.931 . S
C3121 C3120 1.391 1_554 S
C3121 C3125 1.376 . S
C3122 C3120 1.394 . S
C3122 C3123 1.369 1_556 S
C3122 C3126 1.531 1_565 S
C3123 C3122 1.369 1_554 S
C3123 C3124 1.410 . S
C3123 C3131 1.506 . S
C3124 C3123 1.410 . S
C3124 C3125 1.392 . S
C3124 C3127 1.511 . S
C3125 C3121 1.376 . S
C3125 C3124 1.392 . S
C3125 H3137 0.929 . S
C3126 C3122 1.531 1_545 S
C3126 H3138 0.960 . S
C3126 H3139 0.953 1_545 S
C3126 H3140 0.960 . S
C3127 C3124 1.511 . S
C3127 H3141 0.961 . S
C3127 H3142 0.961 . S
C3127 H3143 0.961 . S
C3128 C3129 1.344 1_565 S
C3128 C3130 1.368 . S
C3128 H3144 0.953 . S
C3129 C3128 1.344 1_545 S
C3129 C3133 1.408 . S
C3130 C3128 1.368 . S
C3130 C3131 1.383 . S
C3130 C3134 1.524 1_554 S
C3131 C3123 1.506 . S
C3131 C3130 1.383 . S
C3131 C3132 1.387 1_565 S
C3132 C3131 1.387 1_545 S
C3132 C3133 1.404 . S
C3132 C3135 1.539 . S
C3133 C3129 1.408 . S
C3133 C3132 1.404 . S
C3133 H3145 0.930 . S
C3134 C3130 1.524 1_556 S
C3134 H3146 0.956 . S
C3134 H3147 0.961 1_556 S
C3134 H3148 0.961 . S
C3135 C3132 1.539 . S
C3135 H3149 0.958 . S
C3135 H3150 0.961 . S
C3135 H3151 0.960 . S
H3136 C3120 0.931 . S
H3137 C3125 0.929 . S
H3138 C3126 0.960 . S
H3139 C3126 0.953 1_565 S
H3140 C3126 0.960 . S
H3141 C3127 0.961 . S
H3142 C3127 0.961 . S
H3143 C3127 0.961 . S
H3144 C3128 0.953 . S
H3145 C3133 0.930 . S
H3146 C3134 0.956 . S
H3147 C3134 0.961 1_554 S
H3148 C3134 0.961 . S
H3149 C3135 0.958 . S
H3150 C3135 0.961 . S
H3151 C3135 0.960 . S
C3152 C3153 1.391 . S
C3152 C3154 1.394 . S
C3152 H3168 0.931 . S
C3153 C3152 1.391 . S
C3153 C3157 1.376 . S
C3154 C3152 1.394 . S
C3154 C3155 1.369 . S
C3154 C3158 1.531 . S
C3155 C3154 1.369 . S
C3155 C3156 1.410 . S
C3155 C3163 1.503 . S
C3156 C3155 1.410 . S
C3156 C3157 1.392 . S
C3156 C3159 1.511 . S
C3157 C3153 1.376 . S
C3157 C3156 1.392 . S
C3157 H3169 0.929 . S
C3158 C3154 1.531 . S
C3158 H3170 0.960 . S
C3158 H3171 0.962 . S
C3158 H3172 0.960 . S
C3159 C3156 1.511 . S
C3159 H3173 0.961 . S
C3159 H3174 0.961 . S
C3159 H3175 0.961 . S
C3160 C3161 1.370 . S
C3160 C3162 1.363 . S
C3160 H3176 0.931 . S
C3161 C3160 1.370 . S
C3161 C3165 1.408 . S
C3162 C3160 1.363 . S
C3162 C3163 1.370 . S
C3162 C3166 1.524 . S
C3163 C3155 1.503 . S
C3163 C3162 1.370 . S
C3163 C3164 1.403 . S
C3164 C3163 1.403 . S
C3164 C3165 1.404 . S
C3164 C3167 1.539 . S
C3165 C3161 1.408 . S
C3165 C3164 1.404 . S
C3165 H3177 0.930 . S
C3166 C3162 1.524 . S
C3166 H3178 0.956 . S
C3166 H3179 0.961 . S
C3166 H3180 0.961 . S
C3167 C3164 1.539 . S
C3167 H3181 0.958 . S
C3167 H3182 0.961 . S
C3167 H3183 0.960 . S
H3168 C3152 0.931 . S
H3169 C3157 0.929 . S
H3170 C3158 0.960 . S
H3171 C3158 0.962 . S
H3172 C3158 0.960 . S
H3173 C3159 0.961 . S
H3174 C3159 0.961 . S
H3175 C3159 0.961 . S
H3176 C3160 0.931 . S
H3177 C3165 0.930 . S
H3178 C3166 0.956 . S
H3179 C3166 0.961 . S
H3180 C3166 0.961 . S
H3181 C3167 0.958 . S
H3182 C3167 0.961 . S
H3183 C3167 0.960 . S
C3184 C3185 1.391 . S
C3184 C3186 1.394 . S
C3184 H3200 0.931 . S
C3185 C3184 1.391 . S
C3185 C3189 1.376 . S
C3186 C3184 1.394 . S
C3186 C3187 1.369 . S
C3186 C3190 1.531 . S
C3187 C3186 1.369 . S
C3187 C3188 1.410 . S
C3187 C3195 1.503 . S
C3188 C3187 1.410 . S
C3188 C3189 1.392 . S
C3188 C3191 1.511 . S
C3189 C3185 1.376 . S
C3189 C3188 1.392 . S
C3189 H3201 0.929 . S
C3190 C3186 1.531 . S
C3190 H3202 0.960 . S
C3190 H3203 0.962 . S
C3190 H3204 0.960 . S
C3191 C3188 1.511 . S
C3191 H3205 0.961 . S
C3191 H3206 0.961 . S
C3191 H3207 0.961 . S
C3192 C3193 1.370 . S
C3192 C3194 1.363 . S
C3192 H3208 0.931 . S
C3193 C3192 1.370 . S
C3193 C3197 1.408 . S
C3194 C3192 1.363 . S
C3194 C3195 1.370 . S
C3194 C3198 1.524 . S
C3195 C3187 1.503 . S
C3195 C3194 1.370 . S
C3195 C3196 1.403 . S
C3196 C3195 1.403 . S
C3196 C3197 1.404 . S
C3196 C3199 1.539 . S
C3197 C3193 1.408 . S
C3197 C3196 1.404 . S
C3197 H3209 0.930 . S
C3198 C3194 1.524 . S
C3198 H3210 0.956 . S
C3198 H3211 0.961 . S
C3198 H3212 0.961 . S
C3199 C3196 1.539 . S
C3199 H3213 0.958 . S
C3199 H3214 0.961 . S
C3199 H3215 0.960 . S
H3200 C3184 0.931 . S
H3201 C3189 0.929 . S
H3202 C3190 0.960 . S
H3203 C3190 0.962 . S
H3204 C3190 0.960 . S
H3205 C3191 0.961 . S
H3206 C3191 0.961 . S
H3207 C3191 0.961 . S
H3208 C3192 0.931 . S
H3209 C3197 0.930 . S
H3210 C3198 0.956 . S
H3211 C3198 0.961 . S
H3212 C3198 0.961 . S
H3213 C3199 0.958 . S
H3214 C3199 0.961 . S
H3215 C3199 0.960 . S
C3216 C3217 1.391 . S
C3216 C3218 1.394 . S
C3216 H3232 0.931 . S
C3217 C3216 1.391 . S
C3217 C3221 1.376 . S
C3218 C3216 1.394 . S
C3218 C3219 1.369 . S
C3218 C3222 1.531 . S
C3219 C3218 1.369 . S
C3219 C3220 1.410 . S
C3219 C3227 1.503 . S
C3220 C3219 1.410 . S
C3220 C3221 1.392 . S
C3220 C3223 1.511 . S
C3221 C3217 1.376 . S
C3221 C3220 1.392 . S
C3221 H3233 0.929 . S
C3222 C3218 1.531 . S
C3222 H3234 0.960 . S
C3222 H3235 0.962 . S
C3222 H3236 0.960 . S
C3223 C3220 1.511 . S
C3223 H3237 0.961 . S
C3223 H3238 0.961 . S
C3223 H3239 0.961 . S
C3224 C3225 1.370 . S
C3224 C3226 1.363 . S
C3224 H3240 0.931 . S
C3225 C3224 1.370 . S
C3225 C3229 1.408 . S
C3226 C3224 1.363 . S
C3226 C3227 1.370 . S
C3226 C3230 1.524 . S
C3227 C3219 1.503 . S
C3227 C3226 1.370 . S
C3227 C3228 1.403 . S
C3228 C3227 1.403 . S
C3228 C3229 1.404 . S
C3228 C3231 1.539 . S
C3229 C3225 1.408 . S
C3229 C3228 1.404 . S
C3229 H3241 0.930 . S
C3230 C3226 1.524 . S
C3230 H3242 0.956 . S
C3230 H3243 0.961 . S
C3230 H3244 0.961 . S
C3231 C3228 1.539 . S
C3231 H3245 0.958 . S
C3231 H3246 0.961 . S
C3231 H3247 0.960 . S
H3232 C3216 0.931 . S
H3233 C3221 0.929 . S
H3234 C3222 0.960 . S
H3235 C3222 0.962 . S
H3236 C3222 0.960 . S
H3237 C3223 0.961 . S
H3238 C3223 0.961 . S
H3239 C3223 0.961 . S
H3240 C3224 0.931 . S
H3241 C3229 0.930 . S
H3242 C3230 0.956 . S
H3243 C3230 0.961 . S
H3244 C3230 0.961 . S
H3245 C3231 0.958 . S
H3246 C3231 0.961 . S
H3247 C3231 0.960 . S
C3248 C3249 1.391 . S
C3248 C3250 1.394 . S
C3248 H3264 0.931 . S
C3249 C3248 1.391 . S
C3249 C3253 1.376 . S
C3250 C3248 1.394 . S
C3250 C3251 1.369 . S
C3250 C3254 1.531 . S
C3251 C3250 1.369 . S
C3251 C3252 1.410 . S
C3251 C3259 1.503 . S
C3252 C3251 1.410 . S
C3252 C3253 1.392 . S
C3252 C3255 1.511 . S
C3253 C3249 1.376 . S
C3253 C3252 1.392 . S
C3253 H3265 0.929 . S
C3254 C3250 1.531 . S
C3254 H3266 0.960 . S
C3254 H3267 0.962 . S
C3254 H3268 0.960 . S
C3255 C3252 1.511 . S
C3255 H3269 0.961 . S
C3255 H3270 0.961 . S
C3255 H3271 0.961 . S
C3256 C3257 1.370 . S
C3256 C3258 1.363 . S
C3256 H3272 0.931 . S
C3257 C3256 1.370 . S
C3257 C3261 1.408 . S
C3258 C3256 1.363 . S
C3258 C3259 1.370 . S
C3258 C3262 1.524 . S
C3259 C3251 1.503 . S
C3259 C3258 1.370 . S
C3259 C3260 1.403 . S
C3260 C3259 1.403 . S
C3260 C3261 1.404 . S
C3260 C3263 1.539 . S
C3261 C3257 1.408 . S
C3261 C3260 1.404 . S
C3261 H3273 0.930 . S
C3262 C3258 1.524 . S
C3262 H3274 0.956 . S
C3262 H3275 0.961 . S
C3262 H3276 0.961 . S
C3263 C3260 1.539 . S
C3263 H3277 0.958 . S
C3263 H3278 0.961 . S
C3263 H3279 0.960 . S
H3264 C3248 0.931 . S
H3265 C3253 0.929 . S
H3266 C3254 0.960 . S
H3267 C3254 0.962 . S
H3268 C3254 0.960 . S
H3269 C3255 0.961 . S
H3270 C3255 0.961 . S
H3271 C3255 0.961 . S
H3272 C3256 0.931 . S
H3273 C3261 0.930 . S
H3274 C3262 0.956 . S
H3275 C3262 0.961 . S
H3276 C3262 0.961 . S
H3277 C3263 0.958 . S
H3278 C3263 0.961 . S
H3279 C3263 0.960 . S
C3280 C3281 1.391 . S
C3280 C3282 1.394 . S
C3280 H3296 0.931 . S
C3281 C3280 1.391 . S
C3281 C3285 1.376 . S
C3282 C3280 1.394 . S
C3282 C3283 1.369 . S
C3282 C3286 1.531 . S
C3283 C3282 1.369 . S
C3283 C3284 1.410 . S
C3283 C3291 1.503 . S
C3284 C3283 1.410 . S
C3284 C3285 1.392 . S
C3284 C3287 1.511 . S
C3285 C3281 1.376 . S
C3285 C3284 1.392 . S
C3285 H3297 0.929 . S
C3286 C3282 1.531 . S
C3286 H3298 0.960 . S
C3286 H3299 0.962 . S
C3286 H3300 0.960 . S
C3287 C3284 1.511 . S
C3287 H3301 0.961 . S
C3287 H3302 0.961 . S
C3287 H3303 0.961 . S
C3288 C3289 1.370 . S
C3288 C3290 1.363 . S
C3288 H3304 0.931 . S
C3289 C3288 1.370 . S
C3289 C3293 1.408 . S
C3290 C3288 1.363 . S
C3290 C3291 1.370 . S
C3290 C3294 1.524 . S
C3291 C3283 1.503 . S
C3291 C3290 1.370 . S
C3291 C3292 1.403 . S
C3292 C3291 1.403 . S
C3292 C3293 1.404 . S
C3292 C3295 1.539 . S
C3293 C3289 1.408 . S
C3293 C3292 1.404 . S
C3293 H3305 0.930 . S
C3294 C3290 1.524 . S
C3294 H3306 0.956 . S
C3294 H3307 0.961 . S
C3294 H3308 0.961 . S
C3295 C3292 1.539 . S
C3295 H3309 0.958 . S
C3295 H3310 0.961 . S
C3295 H3311 0.960 . S
H3296 C3280 0.931 . S
H3297 C3285 0.929 . S
H3298 C3286 0.960 . S
H3299 C3286 0.962 . S
H3300 C3286 0.960 . S
H3301 C3287 0.961 . S
H3302 C3287 0.961 . S
H3303 C3287 0.961 . S
H3304 C3288 0.931 . S
H3305 C3293 0.930 . S
H3306 C3294 0.956 . S
H3307 C3294 0.961 . S
H3308 C3294 0.961 . S
H3309 C3295 0.958 . S
H3310 C3295 0.961 . S
H3311 C3295 0.960 . S
C3312 C3313 1.391 . S
C3312 C3314 1.394 . S
C3312 H3328 0.931 . S
C3313 C3312 1.391 . S
C3313 C3317 1.376 . S
C3314 C3312 1.394 . S
C3314 C3315 1.369 . S
C3314 C3318 1.531 . S
C3315 C3314 1.369 . S
C3315 C3316 1.410 . S
C3315 C3323 1.503 . S
C3316 C3315 1.410 . S
C3316 C3317 1.392 . S
C3316 C3319 1.511 . S
C3317 C3313 1.376 . S
C3317 C3316 1.392 . S
C3317 H3329 0.929 . S
C3318 C3314 1.531 . S
C3318 H3330 0.960 . S
C3318 H3331 0.962 . S
C3318 H3332 0.960 . S
C3319 C3316 1.511 . S
C3319 H3333 0.961 . S
C3319 H3334 0.961 . S
C3319 H3335 0.961 . S
C3320 C3321 1.370 . S
C3320 C3322 1.363 . S
C3320 H3336 0.931 . S
C3321 C3320 1.370 . S
C3321 C3325 1.408 . S
C3322 C3320 1.363 . S
C3322 C3323 1.370 . S
C3322 C3326 1.524 . S
C3323 C3315 1.503 . S
C3323 C3322 1.370 . S
C3323 C3324 1.403 . S
C3324 C3323 1.403 . S
C3324 C3325 1.404 . S
C3324 C3327 1.539 . S
C3325 C3321 1.408 . S
C3325 C3324 1.404 . S
C3325 H3337 0.930 . S
C3326 C3322 1.524 . S
C3326 H3338 0.956 . S
C3326 H3339 0.961 . S
C3326 H3340 0.961 . S
C3327 C3324 1.539 . S
C3327 H3341 0.958 . S
C3327 H3342 0.961 . S
C3327 H3343 0.960 . S
H3328 C3312 0.931 . S
H3329 C3317 0.929 . S
H3330 C3318 0.960 . S
H3331 C3318 0.962 . S
H3332 C3318 0.960 . S
H3333 C3319 0.961 . S
H3334 C3319 0.961 . S
H3335 C3319 0.961 . S
H3336 C3320 0.931 . S
H3337 C3325 0.930 . S
H3338 C3326 0.956 . S
H3339 C3326 0.961 . S
H3340 C3326 0.961 . S
H3341 C3327 0.958 . S
H3342 C3327 0.961 . S
H3343 C3327 0.960 . S
C3344 C3345 1.391 . S
C3344 C3346 1.394 . S
C3344 H3360 0.931 . S
C3345 C3344 1.391 . S
C3345 C3349 1.376 . S
C3346 C3344 1.394 . S
C3346 C3347 1.369 . S
C3346 C3350 1.531 . S
C3347 C3346 1.369 . S
C3347 C3348 1.410 . S
C3347 C3355 1.503 . S
C3348 C3347 1.410 . S
C3348 C3349 1.392 . S
C3348 C3351 1.511 . S
C3349 C3345 1.376 . S
C3349 C3348 1.392 . S
C3349 H3361 0.929 . S
C3350 C3346 1.531 . S
C3350 H3362 0.960 . S
C3350 H3363 0.962 . S
C3350 H3364 0.960 . S
C3351 C3348 1.511 . S
C3351 H3365 0.961 . S
C3351 H3366 0.961 . S
C3351 H3367 0.961 . S
C3352 C3353 1.370 . S
C3352 C3354 1.363 . S
C3352 H3368 0.931 . S
C3353 C3352 1.370 . S
C3353 C3357 1.408 . S
C3354 C3352 1.363 . S
C3354 C3355 1.370 . S
C3354 C3358 1.524 . S
C3355 C3347 1.503 . S
C3355 C3354 1.370 . S
C3355 C3356 1.403 . S
C3356 C3355 1.403 . S
C3356 C3357 1.404 . S
C3356 C3359 1.539 . S
C3357 C3353 1.408 . S
C3357 C3356 1.404 . S
C3357 H3369 0.930 . S
C3358 C3354 1.524 . S
C3358 H3370 0.956 . S
C3358 H3371 0.961 . S
C3358 H3372 0.961 . S
C3359 C3356 1.539 . S
C3359 H3373 0.958 . S
C3359 H3374 0.961 . S
C3359 H3375 0.960 . S
H3360 C3344 0.931 . S
H3361 C3349 0.929 . S
H3362 C3350 0.960 . S
H3363 C3350 0.962 . S
H3364 C3350 0.960 . S
H3365 C3351 0.961 . S
H3366 C3351 0.961 . S
H3367 C3351 0.961 . S
H3368 C3352 0.931 . S
H3369 C3357 0.930 . S
H3370 C3358 0.956 . S
H3371 C3358 0.961 . S
H3372 C3358 0.961 . S
H3373 C3359 0.958 . S
H3374 C3359 0.961 . S
H3375 C3359 0.960 . S
C3376 C3377 1.391 . S
C3376 C3378 1.394 . S
C3376 H3392 0.931 . S
C3377 C3376 1.391 . S
C3377 C3381 1.376 . S
C3378 C3376 1.394 . S
C3378 C3379 1.369 . S
C3378 C3382 1.531 . S
C3379 C3378 1.369 . S
C3379 C3380 1.410 . S
C3379 C3387 1.503 . S
C3380 C3379 1.410 . S
C3380 C3381 1.392 . S
C3380 C3383 1.511 . S
C3381 C3377 1.376 . S
C3381 C3380 1.392 . S
C3381 H3393 0.929 . S
C3382 C3378 1.531 . S
C3382 H3394 0.960 . S
C3382 H3395 0.962 . S
C3382 H3396 0.960 . S
C3383 C3380 1.511 . S
C3383 H3397 0.961 . S
C3383 H3398 0.961 . S
C3383 H3399 0.961 . S
C3384 C3385 1.370 . S
C3384 C3386 1.363 . S
C3384 H3400 0.931 . S
C3385 C3384 1.370 . S
C3385 C3389 1.408 . S
C3386 C3384 1.363 . S
C3386 C3387 1.370 . S
C3386 C3390 1.524 . S
C3387 C3379 1.503 . S
C3387 C3386 1.370 . S
C3387 C3388 1.403 . S
C3388 C3387 1.403 . S
C3388 C3389 1.404 . S
C3388 C3391 1.539 . S
C3389 C3385 1.408 . S
C3389 C3388 1.404 . S
C3389 H3401 0.930 . S
C3390 C3386 1.524 . S
C3390 H3402 0.956 . S
C3390 H3403 0.961 . S
C3390 H3404 0.961 . S
C3391 C3388 1.539 . S
C3391 H3405 0.958 . S
C3391 H3406 0.961 . S
C3391 H3407 0.960 . S
H3392 C3376 0.931 . S
H3393 C3381 0.929 . S
H3394 C3382 0.960 . S
H3395 C3382 0.962 . S
H3396 C3382 0.960 . S
H3397 C3383 0.961 . S
H3398 C3383 0.961 . S
H3399 C3383 0.961 . S
H3400 C3384 0.931 . S
H3401 C3389 0.930 . S
H3402 C3390 0.956 . S
H3403 C3390 0.961 . S
H3404 C3390 0.961 . S
H3405 C3391 0.958 . S
H3406 C3391 0.961 . S
H3407 C3391 0.960 . S
C3408 C3409 1.391 . S
C3408 C3410 1.394 . S
C3408 H3424 0.931 . S
C3409 C3408 1.391 . S
C3409 C3413 1.376 . S
C3410 C3408 1.394 . S
C3410 C3411 1.369 . S
C3410 C3414 1.531 . S
C3411 C3410 1.369 . S
C3411 C3412 1.410 . S
C3411 C3419 1.503 . S
C3412 C3411 1.410 . S
C3412 C3413 1.392 . S
C3412 C3415 1.511 . S
C3413 C3409 1.376 . S
C3413 C3412 1.392 . S
C3413 H3425 0.929 . S
C3414 C3410 1.531 . S
C3414 H3426 0.960 . S
C3414 H3427 0.962 . S
C3414 H3428 0.960 . S
C3415 C3412 1.511 . S
C3415 H3429 0.961 . S
C3415 H3430 0.961 . S
C3415 H3431 0.961 . S
C3416 C3417 1.370 . S
C3416 C3418 1.363 . S
C3416 H3432 0.931 . S
C3417 C3416 1.370 . S
C3417 C3421 1.408 . S
C3418 C3416 1.363 . S
C3418 C3419 1.370 . S
C3418 C3422 1.524 . S
C3419 C3411 1.503 . S
C3419 C3418 1.370 . S
C3419 C3420 1.403 . S
C3420 C3419 1.403 . S
C3420 C3421 1.404 . S
C3420 C3423 1.539 . S
C3421 C3417 1.408 . S
C3421 C3420 1.404 . S
C3421 H3433 0.930 . S
C3422 C3418 1.524 . S
C3422 H3434 0.956 . S
C3422 H3435 0.961 . S
C3422 H3436 0.961 . S
C3423 C3420 1.539 . S
C3423 H3437 0.958 . S
C3423 H3438 0.961 . S
C3423 H3439 0.960 . S
H3424 C3408 0.931 . S
H3425 C3413 0.929 . S
H3426 C3414 0.960 . S
H3427 C3414 0.962 . S
H3428 C3414 0.960 . S
H3429 C3415 0.961 . S
H3430 C3415 0.961 . S
H3431 C3415 0.961 . S
H3432 C3416 0.931 . S
H3433 C3421 0.930 . S
H3434 C3422 0.956 . S
H3435 C3422 0.961 . S
H3436 C3422 0.961 . S
H3437 C3423 0.958 . S
H3438 C3423 0.961 . S
H3439 C3423 0.960 . S
C3440 C3441 1.391 . S
C3440 C3442 1.394 . S
C3440 H3456 0.931 . S
C3441 C3440 1.391 . S
C3441 C3445 1.376 . S
C3442 C3440 1.394 . S
C3442 C3443 1.369 . S
C3442 C3446 1.531 . S
C3443 C3442 1.369 . S
C3443 C3444 1.410 . S
C3443 C3451 1.503 . S
C3444 C3443 1.410 . S
C3444 C3445 1.392 . S
C3444 C3447 1.511 . S
C3445 C3441 1.376 . S
C3445 C3444 1.392 . S
C3445 H3457 0.929 . S
C3446 C3442 1.531 . S
C3446 H3458 0.960 . S
C3446 H3459 0.962 . S
C3446 H3460 0.960 . S
C3447 C3444 1.511 . S
C3447 H3461 0.961 . S
C3447 H3462 0.961 . S
C3447 H3463 0.961 . S
C3448 C3449 1.370 . S
C3448 C3450 1.363 . S
C3448 H3464 0.931 . S
C3449 C3448 1.370 . S
C3449 C3453 1.408 . S
C3450 C3448 1.363 . S
C3450 C3451 1.370 . S
C3450 C3454 1.524 . S
C3451 C3443 1.503 . S
C3451 C3450 1.370 . S
C3451 C3452 1.403 . S
C3452 C3451 1.403 . S
C3452 C3453 1.404 . S
C3452 C3455 1.539 . S
C3453 C3449 1.408 . S
C3453 C3452 1.404 . S
C3453 H3465 0.930 . S
C3454 C3450 1.524 . S
C3454 H3466 0.956 . S
C3454 H3467 0.961 . S
C3454 H3468 0.961 . S
C3455 C3452 1.539 . S
C3455 H3469 0.958 . S
C3455 H3470 0.961 . S
C3455 H3471 0.960 . S
H3456 C3440 0.931 . S
H3457 C3445 0.929 . S
H3458 C3446 0.960 . S
H3459 C3446 0.962 . S
H3460 C3446 0.960 . S
H3461 C3447 0.961 . S
H3462 C3447 0.961 . S
H3463 C3447 0.961 . S
H3464 C3448 0.931 . S
H3465 C3453 0.930 . S
H3466 C3454 0.956 . S
H3467 C3454 0.961 . S
H3468 C3454 0.961 . S
H3469 C3455 0.958 . S
H3470 C3455 0.961 . S
H3471 C3455 0.960 . S
C3472 C3473 1.391 . S
C3472 C3474 1.394 . S
C3472 H3488 0.931 . S
C3473 C3472 1.391 . S
C3473 C3477 1.376 . S
C3474 C3472 1.394 . S
C3474 C3475 1.369 . S
C3474 C3478 1.531 . S
C3475 C3474 1.369 . S
C3475 C3476 1.410 . S
C3475 C3483 1.503 . S
C3476 C3475 1.410 . S
C3476 C3477 1.392 . S
C3476 C3479 1.511 . S
C3477 C3473 1.376 . S
C3477 C3476 1.392 . S
C3477 H3489 0.929 . S
C3478 C3474 1.531 . S
C3478 H3490 0.960 . S
C3478 H3491 0.962 . S
C3478 H3492 0.960 . S
C3479 C3476 1.511 . S
C3479 H3493 0.961 . S
C3479 H3494 0.961 . S
C3479 H3495 0.953 1_455 S
C3480 C3481 1.370 . S
C3480 C3482 1.363 . S
C3480 H3496 0.931 . S
C3481 C3480 1.370 . S
C3481 C3485 1.408 . S
C3482 C3480 1.363 . S
C3482 C3483 1.370 . S
C3482 C3486 1.524 . S
C3483 C3475 1.503 . S
C3483 C3482 1.370 . S
C3483 C3484 1.403 . S
C3484 C3483 1.403 . S
C3484 C3485 1.404 . S
C3484 C3487 1.539 . S
C3485 C3481 1.408 . S
C3485 C3484 1.404 . S
C3485 H3497 0.930 . S
C3486 C3482 1.524 . S
C3486 H3498 0.956 . S
C3486 H3499 0.961 . S
C3486 H3500 0.961 . S
C3487 C3484 1.539 . S
C3487 H3501 0.958 . S
C3487 H3502 0.961 . S
C3487 H3503 0.960 . S
H3488 C3472 0.931 . S
H3489 C3477 0.929 . S
H3490 C3478 0.960 . S
H3491 C3478 0.962 . S
H3492 C3478 0.960 . S
H3493 C3479 0.961 . S
H3494 C3479 0.961 . S
H3495 C3479 0.953 1_655 S
H3496 C3480 0.931 . S
H3497 C3485 0.930 . S
H3498 C3486 0.956 . S
H3499 C3486 0.961 . S
H3500 C3486 0.961 . S
H3501 C3487 0.958 . S
H3502 C3487 0.961 . S
H3503 C3487 0.960 . S
C3504 C3505 1.391 . S
C3504 C3506 1.394 . S
C3504 H3520 0.931 . S
C3505 C3504 1.391 . S
C3505 C3509 1.376 . S
C3506 C3504 1.394 . S
C3506 C3507 1.369 . S
C3506 C3510 1.531 . S
C3507 C3506 1.369 . S
C3507 C3508 1.410 . S
C3507 C3515 1.503 . S
C3508 C3507 1.410 . S
C3508 C3509 1.392 . S
C3508 C3511 1.511 . S
C3509 C3505 1.376 . S
C3509 C3508 1.392 . S
C3509 H3521 0.929 . S
C3510 C3506 1.531 . S
C3510 H3522 0.960 . S
C3510 H3523 0.962 . S
C3510 H3524 0.960 . S
C3511 C3508 1.511 . S
C3511 H3525 0.961 . S
C3511 H3526 0.961 . S
C3511 H3527 0.961 . S
C3512 C3513 1.370 . S
C3512 C3514 1.363 . S
C3512 H3528 0.931 . S
C3513 C3512 1.370 . S
C3513 C3517 1.408 . S
C3514 C3512 1.363 . S
C3514 C3515 1.370 . S
C3514 C3518 1.524 . S
C3515 C3507 1.503 . S
C3515 C3514 1.370 . S
C3515 C3516 1.403 . S
C3516 C3515 1.403 . S
C3516 C3517 1.404 . S
C3516 C3519 1.539 . S
C3517 C3513 1.408 . S
C3517 C3516 1.404 . S
C3517 H3529 0.930 . S
C3518 C3514 1.524 . S
C3518 H3530 0.956 . S
C3518 H3531 0.961 . S
C3518 H3532 0.961 . S
C3519 C3516 1.539 . S
C3519 H3533 0.958 . S
C3519 H3534 0.961 . S
C3519 H3535 0.960 . S
H3520 C3504 0.931 . S
H3521 C3509 0.929 . S
H3522 C3510 0.960 . S
H3523 C3510 0.962 . S
H3524 C3510 0.960 . S
H3525 C3511 0.961 . S
H3526 C3511 0.961 . S
H3527 C3511 0.961 . S
H3528 C3512 0.931 . S
H3529 C3517 0.930 . S
H3530 C3518 0.956 . S
H3531 C3518 0.961 . S
H3532 C3518 0.961 . S
H3533 C3519 0.958 . S
H3534 C3519 0.961 . S
H3535 C3519 0.960 . S
C3536 C3537 1.391 . S
C3536 C3538 1.394 . S
C3536 H3552 0.931 . S
C3537 C3536 1.391 . S
C3537 C3541 1.376 . S
C3538 C3536 1.394 . S
C3538 C3539 1.369 . S
C3538 C3542 1.531 . S
C3539 C3538 1.369 . S
C3539 C3540 1.410 . S
C3539 C3547 1.503 . S
C3540 C3539 1.410 . S
C3540 C3541 1.392 . S
C3540 C3543 1.511 . S
C3541 C3537 1.376 . S
C3541 C3540 1.392 . S
C3541 H3553 0.929 . S
C3542 C3538 1.531 . S
C3542 H3554 0.960 . S
C3542 H3555 0.962 . S
C3542 H3556 0.960 . S
C3543 C3540 1.511 . S
C3543 H3557 0.961 . S
C3543 H3558 0.961 . S
C3543 H3559 0.961 . S
C3544 C3545 1.370 . S
C3544 C3546 1.363 . S
C3544 H3560 0.931 . S
C3545 C3544 1.370 . S
C3545 C3549 1.408 . S
C3546 C3544 1.363 . S
C3546 C3547 1.370 . S
C3546 C3550 1.524 . S
C3547 C3539 1.503 . S
C3547 C3546 1.370 . S
C3547 C3548 1.403 . S
C3548 C3547 1.403 . S
C3548 C3549 1.404 . S
C3548 C3551 1.539 . S
C3549 C3545 1.408 . S
C3549 C3548 1.404 . S
C3549 H3561 0.930 . S
C3550 C3546 1.524 . S
C3550 H3562 0.956 . S
C3550 H3563 0.961 . S
C3550 H3564 0.961 . S
C3551 C3548 1.539 . S
C3551 H3565 0.958 . S
C3551 H3566 0.961 . S
C3551 H3567 0.960 . S
H3552 C3536 0.931 . S
H3553 C3541 0.929 . S
H3554 C3542 0.960 . S
H3555 C3542 0.962 . S
H3556 C3542 0.960 . S
H3557 C3543 0.961 . S
H3558 C3543 0.961 . S
H3559 C3543 0.961 . S
H3560 C3544 0.931 . S
H3561 C3549 0.930 . S
H3562 C3550 0.956 . S
H3563 C3550 0.961 . S
H3564 C3550 0.961 . S
H3565 C3551 0.958 . S
H3566 C3551 0.961 . S
H3567 C3551 0.960 . S
C3568 C3569 1.391 . S
C3568 C3570 1.394 . S
C3568 H3584 0.931 . S
C3569 C3568 1.391 . S
C3569 C3573 1.376 . S
C3570 C3568 1.394 . S
C3570 C3571 1.369 . S
C3570 C3574 1.531 . S
C3571 C3570 1.369 . S
C3571 C3572 1.410 . S
C3571 C3579 1.503 . S
C3572 C3571 1.410 . S
C3572 C3573 1.392 . S
C3572 C3575 1.511 . S
C3573 C3569 1.376 . S
C3573 C3572 1.392 . S
C3573 H3585 0.929 . S
C3574 C3570 1.531 . S
C3574 H3586 0.960 . S
C3574 H3587 0.962 . S
C3574 H3588 0.960 . S
C3575 C3572 1.511 . S
C3575 H3589 0.961 . S
C3575 H3590 0.961 . S
C3575 H3591 0.961 . S
C3576 C3577 1.370 . S
C3576 C3578 1.363 . S
C3576 H3592 0.931 . S
C3577 C3576 1.370 . S
C3577 C3581 1.408 . S
C3578 C3576 1.363 . S
C3578 C3579 1.370 . S
C3578 C3582 1.524 . S
C3579 C3571 1.503 . S
C3579 C3578 1.370 . S
C3579 C3580 1.403 . S
C3580 C3579 1.403 . S
C3580 C3581 1.404 . S
C3580 C3583 1.539 . S
C3581 C3577 1.408 . S
C3581 C3580 1.404 . S
C3581 H3593 0.930 . S
C3582 C3578 1.524 . S
C3582 H3594 0.956 . S
C3582 H3595 0.961 . S
C3582 H3596 0.961 . S
C3583 C3580 1.539 . S
C3583 H3597 0.958 . S
C3583 H3598 0.961 . S
C3583 H3599 0.960 . S
H3584 C3568 0.931 . S
H3585 C3573 0.929 . S
H3586 C3574 0.960 . S
H3587 C3574 0.962 . S
H3588 C3574 0.960 . S
H3589 C3575 0.961 . S
H3590 C3575 0.961 . S
H3591 C3575 0.961 . S
H3592 C3576 0.931 . S
H3593 C3581 0.930 . S
H3594 C3582 0.956 . S
H3595 C3582 0.961 . S
H3596 C3582 0.961 . S
H3597 C3583 0.958 . S
H3598 C3583 0.961 . S
H3599 C3583 0.960 . S
C3600 C3601 1.391 . S
C3600 C3602 1.394 . S
C3600 H3616 0.931 . S
C3601 C3600 1.391 . S
C3601 C3605 1.376 . S
C3602 C3600 1.394 . S
C3602 C3603 1.369 . S
C3602 C3606 1.531 . S
C3603 C3602 1.369 . S
C3603 C3604 1.387 1_655 S
C3603 C3611 1.503 1_655 S
C3604 C3603 1.387 1_455 S
C3604 C3605 1.367 1_455 S
C3604 C3607 1.559 . S
C3605 C3601 1.376 . S
C3605 C3604 1.367 1_655 S
C3605 H3617 0.929 . S
C3606 C3602 1.531 . S
C3606 H3618 0.960 . S
C3606 H3619 0.962 . S
C3606 H3620 0.960 . S
C3607 C3604 1.559 . S
C3607 H3621 0.961 . S
C3607 H3622 0.961 . S
C3607 H3623 0.961 . S
C3608 C3609 1.370 . S
C3608 C3610 1.363 . S
C3608 H3624 0.931 . S
C3609 C3608 1.370 . S
C3609 C3613 1.408 . S
C3610 C3608 1.363 . S
C3610 C3611 1.370 . S
C3610 C3614 1.524 1_455 S
C3611 C3603 1.503 1_455 S
C3611 C3610 1.370 . S
C3611 C3612 1.403 . S
C3612 C3611 1.403 . S
C3612 C3613 1.404 . S
C3612 C3615 1.539 . S
C3613 C3609 1.408 . S
C3613 C3612 1.404 . S
C3613 H3625 0.930 . S
C3614 C3610 1.524 1_655 S
C3614 H3626 0.956 . S
C3614 H3627 0.961 1_655 S
C3614 H3628 0.960 1_655 S
C3615 C3612 1.539 . S
C3615 H3629 0.958 1_455 S
C3615 H3630 0.961 . S
C3615 H3631 0.960 . S
H3616 C3600 0.931 . S
H3617 C3605 0.929 . S
H3618 C3606 0.960 . S
H3619 C3606 0.962 . S
H3620 C3606 0.960 . S
H3621 C3607 0.961 . S
H3622 C3607 0.961 . S
H3623 C3607 0.961 . S
H3624 C3608 0.931 . S
H3625 C3613 0.930 . S
H3626 C3614 0.956 . S
H3627 C3614 0.961 1_455 S
H3628 C3614 0.960 1_455 S
H3629 C3615 0.958 1_655 S
H3630 C3615 0.961 . S
H3631 C3615 0.960 . S
C3632 C3633 1.391 . S
C3632 C3634 1.394 . S
C3632 H3648 0.931 . S
C3633 C3632 1.391 . S
C3633 C3637 1.376 . S
C3634 C3632 1.394 . S
C3634 C3635 1.369 . S
C3634 C3638 1.531 . S
C3635 C3634 1.369 . S
C3635 C3636 1.410 . S
C3635 C3643 1.503 . S
C3636 C3635 1.410 . S
C3636 C3637 1.392 . S
C3636 C3639 1.511 . S
C3637 C3633 1.376 . S
C3637 C3636 1.392 . S
C3637 H3649 0.929 . S
C3638 C3634 1.531 . S
C3638 H3650 0.960 . S
C3638 H3651 0.962 . S
C3638 H3652 0.960 . S
C3639 C3636 1.511 . S
C3639 H3653 0.961 . S
C3639 H3654 0.961 . S
C3639 H3655 0.961 . S
C3640 C3641 1.370 . S
C3640 C3642 1.363 . S
C3640 H3656 0.931 . S
C3641 C3640 1.370 . S
C3641 C3645 1.408 . S
C3642 C3640 1.363 . S
C3642 C3643 1.370 . S
C3642 C3646 1.524 . S
C3643 C3635 1.503 . S
C3643 C3642 1.370 . S
C3643 C3644 1.403 . S
C3644 C3643 1.403 . S
C3644 C3645 1.404 . S
C3644 C3647 1.539 . S
C3645 C3641 1.408 . S
C3645 C3644 1.404 . S
C3645 H3657 0.930 . S
C3646 C3642 1.524 . S
C3646 H3658 0.956 . S
C3646 H3659 0.961 . S
C3646 H3660 0.961 . S
C3647 C3644 1.539 . S
C3647 H3661 0.958 . S
C3647 H3662 0.961 . S
C3647 H3663 0.960 . S
H3648 C3632 0.931 . S
H3649 C3637 0.929 . S
H3650 C3638 0.960 . S
H3651 C3638 0.962 . S
H3652 C3638 0.960 . S
H3653 C3639 0.961 . S
H3654 C3639 0.961 . S
H3655 C3639 0.961 . S
H3656 C3640 0.931 . S
H3657 C3645 0.930 . S
H3658 C3646 0.956 . S
H3659 C3646 0.961 . S
H3660 C3646 0.961 . S
H3661 C3647 0.958 . S
H3662 C3647 0.961 . S
H3663 C3647 0.960 . S
C3664 C3665 1.391 . S
C3664 C3666 1.394 . S
C3664 H3680 0.931 . S
C3665 C3664 1.391 . S
C3665 C3669 1.376 . S
C3666 C3664 1.394 . S
C3666 C3667 1.369 . S
C3666 C3670 1.531 . S
C3667 C3666 1.369 . S
C3667 C3668 1.410 . S
C3667 C3675 1.503 . S
C3668 C3667 1.410 . S
C3668 C3669 1.392 . S
C3668 C3671 1.511 . S
C3669 C3665 1.376 . S
C3669 C3668 1.392 . S
C3669 H3681 0.929 . S
C3670 C3666 1.531 . S
C3670 H3682 0.960 . S
C3670 H3683 0.962 . S
C3670 H3684 0.960 . S
C3671 C3668 1.511 . S
C3671 H3685 0.961 . S
C3671 H3686 0.961 . S
C3671 H3687 0.961 . S
C3672 C3673 1.370 . S
C3672 C3674 1.363 . S
C3672 H3688 0.931 . S
C3673 C3672 1.370 . S
C3673 C3677 1.408 . S
C3674 C3672 1.363 . S
C3674 C3675 1.370 . S
C3674 C3678 1.524 . S
C3675 C3667 1.503 . S
C3675 C3674 1.370 . S
C3675 C3676 1.403 . S
C3676 C3675 1.403 . S
C3676 C3677 1.404 . S
C3676 C3679 1.539 . S
C3677 C3673 1.408 . S
C3677 C3676 1.404 . S
C3677 H3689 0.930 . S
C3678 C3674 1.524 . S
C3678 H3690 0.956 . S
C3678 H3691 0.961 . S
C3678 H3692 0.961 . S
C3679 C3676 1.539 . S
C3679 H3693 0.958 . S
C3679 H3694 0.961 . S
C3679 H3695 0.960 . S
H3680 C3664 0.931 . S
H3681 C3669 0.929 . S
H3682 C3670 0.960 . S
H3683 C3670 0.962 . S
H3684 C3670 0.960 . S
H3685 C3671 0.961 . S
H3686 C3671 0.961 . S
H3687 C3671 0.961 . S
H3688 C3672 0.931 . S
H3689 C3677 0.930 . S
H3690 C3678 0.956 . S
H3691 C3678 0.961 . S
H3692 C3678 0.961 . S
H3693 C3679 0.958 . S
H3694 C3679 0.961 . S
H3695 C3679 0.960 . S
C3696 C3697 1.391 . S
C3696 C3698 1.394 . S
C3696 H3712 0.931 . S
C3697 C3696 1.391 . S
C3697 C3701 1.376 . S
C3698 C3696 1.394 . S
C3698 C3699 1.369 . S
C3698 C3702 1.531 . S
C3699 C3698 1.369 . S
C3699 C3700 1.410 . S
C3699 C3707 1.503 . S
C3700 C3699 1.410 . S
C3700 C3701 1.392 . S
C3700 C3703 1.511 . S
C3701 C3697 1.376 . S
C3701 C3700 1.392 . S
C3701 H3713 0.929 . S
C3702 C3698 1.531 . S
C3702 H3714 0.960 . S
C3702 H3715 0.962 . S
C3702 H3716 0.960 . S
C3703 C3700 1.511 . S
C3703 H3717 0.961 . S
C3703 H3718 0.961 . S
C3703 H3719 0.961 . S
C3704 C3705 1.370 . S
C3704 C3706 1.363 . S
C3704 H3720 0.931 . S
C3705 C3704 1.370 . S
C3705 C3709 1.408 . S
C3706 C3704 1.363 . S
C3706 C3707 1.370 . S
C3706 C3710 1.524 . S
C3707 C3699 1.503 . S
C3707 C3706 1.370 . S
C3707 C3708 1.403 . S
C3708 C3707 1.403 . S
C3708 C3709 1.404 . S
C3708 C3711 1.539 . S
C3709 C3705 1.408 . S
C3709 C3708 1.404 . S
C3709 H3721 0.930 . S
C3710 C3706 1.524 . S
C3710 H3722 0.956 . S
C3710 H3723 0.961 . S
C3710 H3724 0.961 . S
C3711 C3708 1.539 . S
C3711 H3725 0.958 . S
C3711 H3726 0.961 . S
C3711 H3727 0.960 . S
H3712 C3696 0.931 . S
H3713 C3701 0.929 . S
H3714 C3702 0.960 . S
H3715 C3702 0.962 . S
H3716 C3702 0.960 . S
H3717 C3703 0.961 . S
H3718 C3703 0.961 . S
H3719 C3703 0.961 . S
H3720 C3704 0.931 . S
H3721 C3709 0.930 . S
H3722 C3710 0.956 . S
H3723 C3710 0.961 . S
H3724 C3710 0.961 . S
H3725 C3711 0.958 . S
H3726 C3711 0.961 . S
H3727 C3711 0.960 . S
C3728 C3729 1.391 . S
C3728 C3730 1.394 . S
C3728 H3744 0.931 . S
C3729 C3728 1.391 . S
C3729 C3733 1.376 . S
C3730 C3728 1.394 . S
C3730 C3731 1.369 . S
C3730 C3734 1.531 1_655 S
C3731 C3730 1.369 . S
C3731 C3732 1.410 . S
C3731 C3739 1.503 . S
C3732 C3731 1.410 . S
C3732 C3733 1.392 . S
C3732 C3735 1.511 . S
C3733 C3729 1.376 . S
C3733 C3732 1.392 . S
C3733 H3745 0.929 . S
C3734 C3730 1.531 1_455 S
C3734 H3746 0.960 . S
C3734 H3747 0.962 1_455 S
C3734 H3748 0.960 . S
C3735 C3732 1.511 . S
C3735 H3749 0.961 . S
C3735 H3750 0.961 . S
C3735 H3751 0.961 . S
C3736 C3737 1.370 1_655 S
C3736 C3738 1.363 . S
C3736 H3752 0.931 . S
C3737 C3736 1.370 1_455 S
C3737 C3741 1.408 . S
C3738 C3736 1.363 . S
C3738 C3739 1.370 . S
C3738 C3742 1.524 . S
C3739 C3731 1.503 . S
C3739 C3738 1.370 . S
C3739 C3740 1.403 1_655 S
C3740 C3739 1.403 1_455 S
C3740 C3741 1.404 . S
C3740 C3743 1.539 . S
C3741 C3737 1.408 . S
C3741 C3740 1.404 . S
C3741 H3753 0.930 . S
C3742 C3738 1.524 . S
C3742 H3754 0.956 . S
C3742 H3755 0.961 . S
C3742 H3756 0.961 . S
C3743 C3740 1.539 . S
C3743 H3757 0.958 . S
C3743 H3758 0.961 . S
C3743 H3759 0.960 . S
H3744 C3728 0.931 . S
H3745 C3733 0.929 . S
H3746 C3734 0.960 . S
H3747 C3734 0.962 1_655 S
H3748 C3734 0.960 . S
H3749 C3735 0.961 . S
H3750 C3735 0.961 . S
H3751 C3735 0.961 . S
H3752 C3736 0.931 . S
H3753 C3741 0.930 . S
H3754 C3742 0.956 . S
H3755 C3742 0.961 . S
H3756 C3742 0.961 . S
H3757 C3743 0.958 . S
H3758 C3743 0.961 . S
H3759 C3743 0.960 . S
C3760 C3761 1.391 . S
C3760 C3762 1.394 . S
C3760 H3776 0.931 . S
C3761 C3760 1.391 . S
C3761 C3765 1.376 . S
C3762 C3760 1.394 . S
C3762 C3763 1.369 . S
C3762 C3766 1.531 . S
C3763 C3762 1.369 . S
C3763 C3764 1.410 . S
C3763 C3771 1.503 . S
C3764 C3763 1.410 . S
C3764 C3765 1.392 . S
C3764 C3767 1.511 . S
C3765 C3761 1.376 . S
C3765 C3764 1.392 . S
C3765 H3777 0.929 . S
C3766 C3762 1.531 . S
C3766 H3778 0.960 . S
C3766 H3779 0.962 . S
C3766 H3780 0.960 . S
C3767 C3764 1.511 . S
C3767 H3781 0.961 . S
C3767 H3782 0.961 . S
C3767 H3783 0.961 . S
C3768 C3769 1.370 . S
C3768 C3770 1.363 . S
C3768 H3784 0.931 . S
C3769 C3768 1.370 . S
C3769 C3773 1.408 . S
C3770 C3768 1.363 . S
C3770 C3771 1.370 . S
C3770 C3774 1.524 . S
C3771 C3763 1.503 . S
C3771 C3770 1.370 . S
C3771 C3772 1.403 . S
C3772 C3771 1.403 . S
C3772 C3773 1.404 . S
C3772 C3775 1.539 . S
C3773 C3769 1.408 . S
C3773 C3772 1.404 . S
C3773 H3785 0.930 . S
C3774 C3770 1.524 . S
C3774 H3786 0.956 . S
C3774 H3787 0.961 . S
C3774 H3788 0.961 . S
C3775 C3772 1.539 . S
C3775 H3789 0.958 . S
C3775 H3790 0.961 . S
C3775 H3791 0.960 . S
H3776 C3760 0.931 . S
H3777 C3765 0.929 . S
H3778 C3766 0.960 . S
H3779 C3766 0.962 . S
H3780 C3766 0.960 . S
H3781 C3767 0.961 . S
H3782 C3767 0.961 . S
H3783 C3767 0.961 . S
H3784 C3768 0.931 . S
H3785 C3773 0.930 . S
H3786 C3774 0.956 . S
H3787 C3774 0.961 . S
H3788 C3774 0.961 . S
H3789 C3775 0.958 . S
H3790 C3775 0.961 . S
H3791 C3775 0.960 . S
C3792 C3793 1.391 . S
C3792 C3794 1.394 . S
C3792 H3808 0.931 . S
C3793 C3792 1.391 . S
C3793 C3797 1.376 . S
C3794 C3792 1.394 . S
C3794 C3795 1.369 . S
C3794 C3798 1.531 . S
C3795 C3794 1.369 . S
C3795 C3796 1.410 . S
C3795 C3803 1.503 . S
C3796 C3795 1.410 . S
C3796 C3797 1.392 . S
C3796 C3799 1.511 . S
C3797 C3793 1.376 . S
C3797 C3796 1.392 . S
C3797 H3809 0.929 . S
C3798 C3794 1.531 . S
C3798 H3810 0.960 . S
C3798 H3811 0.962 . S
C3798 H3812 0.960 . S
C3799 C3796 1.511 . S
C3799 H3813 0.961 . S
C3799 H3814 0.961 . S
C3799 H3815 0.961 . S
C3800 C3801 1.370 . S
C3800 C3802 1.363 . S
C3800 H3816 0.931 . S
C3801 C3800 1.370 . S
C3801 C3805 1.408 . S
C3802 C3800 1.363 . S
C3802 C3803 1.370 . S
C3802 C3806 1.524 . S
C3803 C3795 1.503 . S
C3803 C3802 1.370 . S
C3803 C3804 1.403 . S
C3804 C3803 1.403 . S
C3804 C3805 1.404 . S
C3804 C3807 1.539 . S
C3805 C3801 1.408 . S
C3805 C3804 1.404 . S
C3805 H3817 0.930 . S
C3806 C3802 1.524 . S
C3806 H3818 0.956 . S
C3806 H3819 0.961 . S
C3806 H3820 0.961 . S
C3807 C3804 1.539 . S
C3807 H3821 0.958 . S
C3807 H3822 0.961 . S
C3807 H3823 0.960 . S
H3808 C3792 0.931 . S
H3809 C3797 0.929 . S
H3810 C3798 0.960 . S
H3811 C3798 0.962 . S
H3812 C3798 0.960 . S
H3813 C3799 0.961 . S
H3814 C3799 0.961 . S
H3815 C3799 0.961 . S
H3816 C3800 0.931 . S
H3817 C3805 0.930 . S
H3818 C3806 0.956 . S
H3819 C3806 0.961 . S
H3820 C3806 0.961 . S
H3821 C3807 0.958 . S
H3822 C3807 0.961 . S
H3823 C3807 0.960 . S
C3824 C3825 1.391 . S
C3824 C3826 1.394 . S
C3824 H3840 0.931 . S
C3825 C3824 1.391 . S
C3825 C3829 1.376 . S
C3826 C3824 1.394 . S
C3826 C3827 1.369 . S
C3826 C3830 1.531 . S
C3827 C3826 1.369 . S
C3827 C3828 1.410 . S
C3827 C3835 1.503 . S
C3828 C3827 1.410 . S
C3828 C3829 1.392 . S
C3828 C3831 1.511 . S
C3829 C3825 1.376 . S
C3829 C3828 1.392 . S
C3829 H3841 0.929 . S
C3830 C3826 1.531 . S
C3830 H3842 0.960 . S
C3830 H3843 0.962 . S
C3830 H3844 0.960 . S
C3831 C3828 1.511 . S
C3831 H3845 0.961 . S
C3831 H3846 0.961 . S
C3831 H3847 0.961 . S
C3832 C3833 1.370 1_545 S
C3832 C3834 1.363 1_545 S
C3832 H3848 0.931 . S
C3833 C3832 1.370 1_565 S
C3833 C3837 1.408 . S
C3834 C3832 1.363 1_565 S
C3834 C3835 1.370 . S
C3834 C3838 1.524 . S
C3835 C3827 1.503 . S
C3835 C3834 1.370 . S
C3835 C3836 1.403 . S
C3836 C3835 1.403 . S
C3836 C3837 1.404 . S
C3836 C3839 1.539 . S
C3837 C3833 1.408 . S
C3837 C3836 1.404 . S
C3837 H3849 0.930 . S
C3838 C3834 1.524 . S
C3838 H3850 0.956 . S
C3838 H3851 0.961 . S
C3838 H3852 0.961 1_565 S
C3839 C3836 1.539 . S
C3839 H3853 0.958 . S
C3839 H3854 0.961 . S
C3839 H3855 0.960 . S
H3840 C3824 0.931 . S
H3841 C3829 0.929 . S
H3842 C3830 0.960 . S
H3843 C3830 0.962 . S
H3844 C3830 0.960 . S
H3845 C3831 0.961 . S
H3846 C3831 0.961 . S
H3847 C3831 0.961 . S
H3848 C3832 0.931 . S
H3849 C3837 0.930 . S
H3850 C3838 0.956 . S
H3851 C3838 0.961 . S
H3852 C3838 0.961 1_545 S
H3853 C3839 0.958 . S
H3854 C3839 0.961 . S
H3855 C3839 0.960 . S
C3856 C3857 1.391 . S
C3856 C3858 1.394 . S
C3856 H3872 0.931 . S
C3857 C3856 1.391 . S
C3857 C3861 1.376 . S
C3858 C3856 1.394 . S
C3858 C3859 1.369 . S
C3858 C3862 1.531 . S
C3859 C3858 1.369 . S
C3859 C3860 1.410 . S
C3859 C3867 1.503 . S
C3860 C3859 1.410 . S
C3860 C3861 1.392 . S
C3860 C3863 1.511 . S
C3861 C3857 1.376 . S
C3861 C3860 1.392 . S
C3861 H3873 0.929 . S
C3862 C3858 1.531 . S
C3862 H3874 0.960 . S
C3862 H3875 0.962 . S
C3862 H3876 0.960 . S
C3863 C3860 1.511 . S
C3863 H3877 0.961 . S
C3863 H3878 0.961 . S
C3863 H3879 0.961 . S
C3864 C3865 1.370 . S
C3864 C3866 1.363 . S
C3864 H3880 0.931 . S
C3865 C3864 1.370 . S
C3865 C3869 1.408 . S
C3866 C3864 1.363 . S
C3866 C3867 1.370 . S
C3866 C3870 1.524 . S
C3867 C3859 1.503 . S
C3867 C3866 1.370 . S
C3867 C3868 1.403 . S
C3868 C3867 1.403 . S
C3868 C3869 1.404 . S
C3868 C3871 1.539 . S
C3869 C3865 1.408 . S
C3869 C3868 1.404 . S
C3869 H3881 0.930 . S
C3870 C3866 1.524 . S
C3870 H3882 0.956 . S
C3870 H3883 0.961 . S
C3870 H3884 0.961 . S
C3871 C3868 1.539 . S
C3871 H3885 0.958 . S
C3871 H3886 0.961 . S
C3871 H3887 0.960 . S
H3872 C3856 0.931 . S
H3873 C3861 0.929 . S
H3874 C3862 0.960 . S
H3875 C3862 0.962 . S
H3876 C3862 0.960 . S
H3877 C3863 0.961 . S
H3878 C3863 0.961 . S
H3879 C3863 0.961 . S
H3880 C3864 0.931 . S
H3881 C3869 0.930 . S
H3882 C3870 0.956 . S
H3883 C3870 0.961 . S
H3884 C3870 0.961 . S
H3885 C3871 0.958 . S
H3886 C3871 0.961 . S
H3887 C3871 0.960 . S
C3888 C3889 1.391 . S
C3888 C3890 1.394 . S
C3888 H3904 0.931 . S
C3889 C3888 1.391 . S
C3889 C3893 1.376 . S
C3890 C3888 1.394 . S
C3890 C3891 1.369 . S
C3890 C3894 1.531 . S
C3891 C3890 1.369 . S
C3891 C3892 1.410 . S
C3891 C3899 1.503 . S
C3892 C3891 1.410 . S
C3892 C3893 1.392 . S
C3892 C3895 1.511 . S
C3893 C3889 1.376 . S
C3893 C3892 1.392 . S
C3893 H3905 0.929 . S
C3894 C3890 1.531 . S
C3894 H3906 0.960 . S
C3894 H3907 0.962 . S
C3894 H3908 0.960 . S
C3895 C3892 1.511 . S
C3895 H3909 0.961 . S
C3895 H3910 0.961 . S
C3895 H3911 0.961 . S
C3896 C3897 1.370 . S
C3896 C3898 1.363 . S
C3896 H3912 0.931 . S
C3897 C3896 1.370 . S
C3897 C3901 1.408 . S
C3898 C3896 1.363 . S
C3898 C3899 1.370 . S
C3898 C3902 1.524 . S
C3899 C3891 1.503 . S
C3899 C3898 1.370 . S
C3899 C3900 1.403 . S
C3900 C3899 1.403 . S
C3900 C3901 1.404 . S
C3900 C3903 1.539 . S
C3901 C3897 1.408 . S
C3901 C3900 1.404 . S
C3901 H3913 0.930 . S
C3902 C3898 1.524 . S
C3902 H3914 0.956 . S
C3902 H3915 0.961 . S
C3902 H3916 0.961 . S
C3903 C3900 1.539 . S
C3903 H3917 0.968 . S
C3903 H3918 0.961 1_554 S
C3903 H3919 0.960 . S
H3904 C3888 0.931 . S
H3905 C3893 0.929 . S
H3906 C3894 0.960 . S
H3907 C3894 0.962 . S
H3908 C3894 0.960 . S
H3909 C3895 0.961 . S
H3910 C3895 0.961 . S
H3911 C3895 0.961 . S
H3912 C3896 0.931 . S
H3913 C3901 0.930 . S
H3914 C3902 0.956 . S
H3915 C3902 0.961 . S
H3916 C3902 0.961 . S
H3917 C3903 0.968 . S
H3918 C3903 0.961 1_556 S
H3919 C3903 0.960 . S
C3920 C3921 1.391 . S
C3920 C3922 1.394 . S
C3920 H3936 0.931 . S
C3921 C3920 1.391 . S
C3921 C3925 1.376 . S
C3922 C3920 1.394 . S
C3922 C3923 1.369 . S
C3922 C3926 1.531 . S
C3923 C3922 1.369 . S
C3923 C3924 1.410 . S
C3923 C3931 1.503 . S
C3924 C3923 1.410 . S
C3924 C3925 1.392 . S
C3924 C3927 1.511 . S
C3925 C3921 1.376 . S
C3925 C3924 1.392 . S
C3925 H3937 0.929 . S
C3926 C3922 1.531 . S
C3926 H3938 0.960 . S
C3926 H3939 0.962 . S
C3926 H3940 0.960 . S
C3927 C3924 1.511 . S
C3927 H3941 0.961 . S
C3927 H3942 0.961 . S
C3927 H3943 0.961 . S
C3928 C3929 1.370 . S
C3928 C3930 1.363 . S
C3928 H3944 0.931 . S
C3929 C3928 1.370 . S
C3929 C3933 1.408 . S
C3930 C3928 1.363 . S
C3930 C3931 1.370 . S
C3930 C3934 1.524 . S
C3931 C3923 1.503 . S
C3931 C3930 1.370 . S
C3931 C3932 1.403 . S
C3932 C3931 1.403 . S
C3932 C3933 1.404 . S
C3932 C3935 1.539 . S
C3933 C3929 1.408 . S
C3933 C3932 1.404 . S
C3933 H3945 0.930 . S
C3934 C3930 1.524 . S
C3934 H3946 0.956 . S
C3934 H3947 0.961 . S
C3934 H3948 0.961 . S
C3935 C3932 1.539 . S
C3935 H3949 0.958 . S
C3935 H3950 0.961 . S
C3935 H3951 0.960 . S
H3936 C3920 0.931 . S
H3937 C3925 0.929 . S
H3938 C3926 0.960 . S
H3939 C3926 0.962 . S
H3940 C3926 0.960 . S
H3941 C3927 0.961 . S
H3942 C3927 0.961 . S
H3943 C3927 0.961 . S
H3944 C3928 0.931 . S
H3945 C3933 0.930 . S
H3946 C3934 0.956 . S
H3947 C3934 0.961 . S
H3948 C3934 0.961 . S
H3949 C3935 0.958 . S
H3950 C3935 0.961 . S
H3951 C3935 0.960 . S
C3952 C3953 1.391 . S
C3952 C3954 1.394 . S
C3952 H3968 0.931 . S
C3953 C3952 1.391 . S
C3953 C3957 1.376 . S
C3954 C3952 1.394 . S
C3954 C3955 1.369 . S
C3954 C3958 1.531 . S
C3955 C3954 1.369 . S
C3955 C3956 1.410 . S
C3955 C3963 1.503 . S
C3956 C3955 1.410 . S
C3956 C3957 1.392 . S
C3956 C3959 1.511 . S
C3957 C3953 1.376 . S
C3957 C3956 1.392 . S
C3957 H3969 0.929 . S
C3958 C3954 1.531 . S
C3958 H3970 0.960 . S
C3958 H3971 0.962 . S
C3958 H3972 0.960 . S
C3959 C3956 1.511 . S
C3959 H3973 0.961 . S
C3959 H3974 0.961 . S
C3959 H3975 0.961 . S
C3960 C3961 1.370 1_556 S
C3960 C3962 1.363 . S
C3960 H3976 0.931 . S
C3961 C3960 1.370 1_554 S
C3961 C3965 1.408 . S
C3962 C3960 1.363 . S
C3962 C3963 1.370 1_556 S
C3962 C3966 1.524 . S
C3963 C3955 1.503 . S
C3963 C3962 1.370 1_554 S
C3963 C3964 1.403 . S
C3964 C3963 1.403 . S
C3964 C3965 1.404 . S
C3964 C3967 1.539 . S
C3965 C3961 1.408 . S
C3965 C3964 1.404 . S
C3965 H3977 0.930 . S
C3966 C3962 1.524 . S
C3966 H3978 0.956 . S
C3966 H3979 0.961 . S
C3966 H3980 0.961 . S
C3967 C3964 1.539 . S
C3967 H3981 0.958 . S
C3967 H3982 0.961 . S
C3967 H3983 0.960 . S
H3968 C3952 0.931 . S
H3969 C3957 0.929 . S
H3970 C3958 0.960 . S
H3971 C3958 0.962 . S
H3972 C3958 0.960 . S
H3973 C3959 0.961 . S
H3974 C3959 0.961 . S
H3975 C3959 0.961 . S
H3976 C3960 0.931 . S
H3977 C3965 0.930 . S
H3978 C3966 0.956 . S
H3979 C3966 0.961 . S
H3980 C3966 0.961 . S
H3981 C3967 0.958 . S
H3982 C3967 0.961 . S
H3983 C3967 0.960 . S
C3984 C3985 1.391 . S
C3984 C3986 1.394 . S
C3984 H4000 0.931 . S
C3985 C3984 1.391 . S
C3985 C3989 1.376 . S
C3986 C3984 1.394 . S
C3986 C3987 1.369 . S
C3986 C3990 1.531 . S
C3987 C3986 1.369 . S
C3987 C3988 1.410 . S
C3987 C3995 1.503 . S
C3988 C3987 1.410 . S
C3988 C3989 1.392 . S
C3988 C3991 1.511 . S
C3989 C3985 1.376 . S
C3989 C3988 1.392 . S
C3989 H4001 0.929 . S
C3990 C3986 1.531 . S
C3990 H4002 0.960 . S
C3990 H4003 0.962 . S
C3990 H4004 0.960 . S
C3991 C3988 1.511 . S
C3991 H4005 0.961 . S
C3991 H4006 0.961 . S
C3991 H4007 0.961 . S
C3992 C3993 1.370 . S
C3992 C3994 1.363 . S
C3992 H4008 0.931 . S
C3993 C3992 1.370 . S
C3993 C3997 1.408 . S
C3994 C3992 1.363 . S
C3994 C3995 1.370 . S
C3994 C3998 1.524 . S
C3995 C3987 1.503 . S
C3995 C3994 1.370 . S
C3995 C3996 1.403 . S
C3996 C3995 1.403 . S
C3996 C3997 1.404 . S
C3996 C3999 1.539 . S
C3997 C3993 1.408 . S
C3997 C3996 1.404 . S
C3997 H4009 0.930 . S
C3998 C3994 1.524 . S
C3998 H4010 0.956 . S
C3998 H4011 0.961 . S
C3998 H4012 0.961 . S
C3999 C3996 1.539 . S
C3999 H4013 0.958 . S
C3999 H4014 0.961 . S
C3999 H4015 0.960 . S
H4000 C3984 0.931 . S
H4001 C3989 0.929 . S
H4002 C3990 0.960 . S
H4003 C3990 0.962 . S
H4004 C3990 0.960 . S
H4005 C3991 0.961 . S
H4006 C3991 0.961 . S
H4007 C3991 0.961 . S
H4008 C3992 0.931 . S
H4009 C3997 0.930 . S
H4010 C3998 0.956 . S
H4011 C3998 0.961 . S
H4012 C3998 0.961 . S
H4013 C3999 0.958 . S
H4014 C3999 0.961 . S
H4015 C3999 0.960 . S
C4016 C4017 1.391 . S
C4016 C4018 1.394 . S
C4016 H4032 0.931 . S
C4017 C4016 1.391 . S
C4017 C4021 1.376 . S
C4018 C4016 1.394 . S
C4018 C4019 1.369 . S
C4018 C4022 1.531 . S
C4019 C4018 1.369 . S
C4019 C4020 1.410 . S
C4019 C4027 1.503 . S
C4020 C4019 1.410 . S
C4020 C4021 1.392 . S
C4020 C4023 1.511 . S
C4021 C4017 1.376 . S
C4021 C4020 1.392 . S
C4021 H4033 0.929 . S
C4022 C4018 1.531 . S
C4022 H4034 0.960 . S
C4022 H4035 0.962 . S
C4022 H4036 0.960 . S
C4023 C4020 1.511 . S
C4023 H4037 0.961 . S
C4023 H4038 0.961 . S
C4023 H4039 0.961 . S
C4024 C4025 1.370 . S
C4024 C4026 1.363 . S
C4024 H4040 0.931 . S
C4025 C4024 1.370 . S
C4025 C4029 1.408 . S
C4026 C4024 1.363 . S
C4026 C4027 1.370 . S
C4026 C4030 1.524 . S
C4027 C4019 1.503 . S
C4027 C4026 1.370 . S
C4027 C4028 1.403 . S
C4028 C4027 1.403 . S
C4028 C4029 1.404 . S
C4028 C4031 1.539 . S
C4029 C4025 1.408 . S
C4029 C4028 1.404 . S
C4029 H4041 0.930 . S
C4030 C4026 1.524 . S
C4030 H4042 0.956 . S
C4030 H4043 0.961 . S
C4030 H4044 0.961 . S
C4031 C4028 1.539 . S
C4031 H4045 0.958 . S
C4031 H4046 0.961 . S
C4031 H4047 0.960 . S
H4032 C4016 0.931 . S
H4033 C4021 0.929 . S
H4034 C4022 0.960 . S
H4035 C4022 0.962 . S
H4036 C4022 0.960 . S
H4037 C4023 0.961 . S
H4038 C4023 0.961 . S
H4039 C4023 0.961 . S
H4040 C4024 0.931 . S
H4041 C4029 0.930 . S
H4042 C4030 0.956 . S
H4043 C4030 0.961 . S
H4044 C4030 0.961 . S
H4045 C4031 0.958 . S
H4046 C4031 0.961 . S
H4047 C4031 0.960 . S
C977 C109 2.113 1_455 S
C985 C367 2.110 . S
C1009 C65 1.808 . S
C1017 C378 1.824 . S
C1041 C75 1.695 . S
C1049 C447 1.666 . S
C1081 C460 1.223 . S
C1073 C84 1.206 . S
C1105 C25 2.507 . S
C1113 C516 2.492 . S
C1145 C567 2.080 . S
C1137 C28 2.065 . S
C1177 C596 2.415 . S
C1169 C47 2.416 . S
C1201 C9 2.478 . S
C1209 C647 2.432 . S
C1241 C338 1.349 . S
C1233 C233 1.343 . S
C1265 C249 0.892 . S
C1273 C380 0.931 . S
C1305 C418 1.092 . S
C1297 C275 1.096 . S
C1337 C487 1.677 . S
C1329 C173 1.679 . S
C1361 C224 0.680 . S
C1369 C521 0.642 . S
C1401 C538 1.454 . S
C1393 C243 1.458 . S
C1433 C601 0.421 . S
C1425 C266 0.350 . S
C1465 C618 2.014 . S
C1457 C179 2.047 . S
C1497 C340 1.689 . S
C1489 C163 1.731 . S
C1521 C289 1.614 . S
C1529 C679 1.571 . S
C1561 C700 1.411 . S
C1553 C333 1.512 . S
C1593 C759 0.418 . S
C1585 C308 0.316 . S
C1617 C123 1.112 . S
C1625 C620 1.048 . S
C1649 C126 1.434 . S
C1657 C420 1.410 . S
C1681 C327 0.942 . S
C1689 C778 0.980 . S
C1721 C847 1.027 . S
C1713 C299 1.064 . S
C1753 C356 2.119 . S
C1745 C67 2.164 . S
C1785 C839 1.858 . S
C1777 C98 1.792 . S
C1809 C89 1.719 . S
C1817 C436 1.696 . S
C1841 C79 1.263 . S
C1849 C801 1.242 . S
C1881 C527 2.542 . S
C1873 C11 2.541 . S
C1905 C51 2.119 . S
C1913 C716 2.088 . S
C1945 C607 2.465 1_556 S
C1937 C33 2.473 . S
C1977 C876 2.428 . S
C1969 C14 2.493 1_655 S
C2009 C359 1.329 . S
C2001 C140 1.331 . S
C2041 C841 0.897 . S
C2033 C319 0.960 . S
C2065 C112 1.135 . S
C2073 C439 1.124 . S
C2097 C285 1.696 . S
C2105 C796 1.706 . S
C2129 C149 0.667 . S
C2137 C500 0.659 . S
C2169 C719 1.494 . S
C2161 C313 1.492 . S
C2193 C121 0.442 . S
C2201 C580 0.466 . S
C2225 C291 2.094 . S
C2233 C879 2.062 . S
C2257 C182 1.737 . S
C2265 C361 1.667 . S
C2289 C168 1.588 . S
C2297 C658 1.598 . S
C2321 C263 1.518 . S
C2329 C561 1.404 . S
C2353 C247 0.329 . S
C2361 C738 0.455 . S
C2393 C881 1.021 . S
C2385 C277 1.104 . S
C2417 C219 1.469 . S
C2425 C441 1.418 . S
C2457 C479 1.023 . S
C2449 C257 1.042 . S
C2489 C396 1.011 . S
C2481 C201 1.065 . S
C2513 C81 2.124 . S
C2521 C927 2.108 . S
C2553 C818 1.823 . S
C2545 C93 1.812 . S
C2577 C103 1.694 . S
C2585 C967 1.653 . S
C2609 C56 1.240 . S
C2617 C780 1.202 . S
C2641 C53 2.503 . S
C2649 C676 2.495 . S
C2681 C727 2.067 . S
C2673 C0 2.099 . S
C2713 C756 2.416 . S
C2705 C19 2.428 . S
C2745 C887 2.446 . S
C2737 C37 2.486 . S
C2777 C898 1.347 . S
C2769 C261 1.369 . S
C2801 C193 0.932 . S
C2809 C820 0.895 . S
C2841 C938 1.092 . S
C2833 C205 1.096 . S
C2873 C807 1.677 . S
C2865 C215 1.679 . S
C2905 C681 0.680 . S
C2897 C252 0.617 . S
C2929 C187 1.466 . S
C2937 C698 1.466 . S
C2969 C761 0.388 . S
C2961 C196 0.437 . S
C2993 C221 2.047 . S
C3001 C858 2.014 . S
C3033 C900 1.668 . S
C3025 C317 1.779 . S
C3057 C135 1.617 . S
C3065 C519 1.565 . S
C3097 C540 1.411 . S
C3089 C151 1.516 1_565 S
C3129 C599 0.432 . S
C3121 C154 0.300 1_554 S
C3161 C860 1.085 . S
C3153 C305 1.025 . S
C3185 C280 1.395 . S
C3193 C940 1.432 . S
C3225 C458 0.967 . S
C3217 C145 0.989 . S
C3257 C407 1.041 . S
C3249 C117 1.034 . S
C3281 C95 2.159 . S
C3289 C916 2.118 . S
C3321 C399 1.864 . S
C3313 C70 1.825 . S
C3345 C61 1.718 . S
C3353 C956 1.682 . S
C3377 C107 1.267 . S
C3385 C481 1.250 . S
C3409 C39 2.546 . S
C3417 C687 2.532 1_556 S
C3449 C556 2.091 . S
C3441 C23 2.119 . S
C3473 C5 2.477 . S
C3481 C767 2.466 . S
C3505 C42 2.493 . S
C3513 C636 2.429 . S
C3545 C919 1.313 . S
C3537 C322 1.320 . S
C3569 C165 0.915 . S
C3577 C401 0.932 . S
C3609 C959 1.103 . S
C3601 C294 1.094 . S
C3633 C131 1.691 . S
C3641 C476 1.709 . S
C3665 C331 0.687 . S
C3673 C660 0.695 . S
C3705 C559 1.501 . S
C3697 C159 1.512 . S
C3729 C303 0.470 . S
C3737 C740 0.475 . S
C3769 C639 2.066 . S
C3761 C137 2.093 . S
C3801 C921 1.651 . S
C3793 C238 1.738 . S
C3833 C498 1.581 1_665 S
C3825 C210 1.625 . S
C3857 C235 1.460 . S
C3865 C721 1.438 . S
C3897 C578 0.464 . S
C3889 C191 0.339 . S
C3921 C207 1.094 . S
C3929 C641 1.027 . S
C3953 C177 1.469 . S
C3961 C961 1.417 . S
C3993 C799 1.024 . S
C3985 C229 1.041 . S
C4025 C836 1.029 . S
C4017 C271 1.045 . S
