# Generated by pormake.
# Topology gar, (4,6)-cn, num edge types: 1
# Building blocks:
#     Node 0, Type 0, BuildingBlock: TATPOV_clean_sbu_0, # of connection points: 4
#     Node 1, Type 0, BuildingBlock: TATPOV_clean_sbu_0, # of connection points: 4
#     Node 2, Type 0, BuildingBlock: TATPOV_clean_sbu_0, # of connection points: 4
#     Node 3, Type 0, BuildingBlock: TATPOV_clean_sbu_0, # of connection points: 4
#     Node 4, Type 0, BuildingBlock: TATPOV_clean_sbu_0, # of connection points: 4
#     Node 5, Type 0, BuildingBlock: TATPOV_clean_sbu_0, # of connection points: 4
#     Node 6, Type 0, BuildingBlock: TATPOV_clean_sbu_0, # of connection points: 4
#     Node 7, Type 0, BuildingBlock: TATPOV_clean_sbu_0, # of connection points: 4
#     Node 8, Type 0, BuildingBlock: TATPOV_clean_sbu_0, # of connection points: 4
#     Node 9, Type 0, BuildingBlock: TATPOV_clean_sbu_0, # of connection points: 4
#     Node 10, Type 0, BuildingBlock: TATPOV_clean_sbu_0, # of connection points: 4
#     Node 11, Type 0, BuildingBlock: TATPOV_clean_sbu_0, # of connection points: 4
#     Node 12, Type 0, BuildingBlock: TATPOV_clean_sbu_0, # of connection points: 4
#     Node 13, Type 0, BuildingBlock: TATPOV_clean_sbu_0, # of connection points: 4
#     Node 14, Type 0, BuildingBlock: TATPOV_clean_sbu_0, # of connection points: 4
#     Node 15, Type 0, BuildingBlock: TATPOV_clean_sbu_0, # of connection points: 4
#     Node 16, Type 0, BuildingBlock: TATPOV_clean_sbu_0, # of connection points: 4
#     Node 17, Type 0, BuildingBlock: TATPOV_clean_sbu_0, # of connection points: 4
#     Node 18, Type 0, BuildingBlock: TATPOV_clean_sbu_0, # of connection points: 4
#     Node 19, Type 0, BuildingBlock: TATPOV_clean_sbu_0, # of connection points: 4
#     Node 20, Type 0, BuildingBlock: TATPOV_clean_sbu_0, # of connection points: 4
#     Node 21, Type 0, BuildingBlock: TATPOV_clean_sbu_0, # of connection points: 4
#     Node 22, Type 0, BuildingBlock: TATPOV_clean_sbu_0, # of connection points: 4
#     Node 23, Type 0, BuildingBlock: TATPOV_clean_sbu_0, # of connection points: 4
#     Node 24, Type 1, BuildingBlock: KUMBUR_clean_sbu_1, # of connection points: 6
#     Node 25, Type 1, BuildingBlock: KUMBUR_clean_sbu_1, # of connection points: 6
#     Node 26, Type 1, BuildingBlock: KUMBUR_clean_sbu_1, # of connection points: 6
#     Node 27, Type 1, BuildingBlock: KUMBUR_clean_sbu_1, # of connection points: 6
#     Node 28, Type 1, BuildingBlock: KUMBUR_clean_sbu_1, # of connection points: 6
#     Node 29, Type 1, BuildingBlock: KUMBUR_clean_sbu_1, # of connection points: 6
#     Node 30, Type 1, BuildingBlock: KUMBUR_clean_sbu_1, # of connection points: 6
#     Node 31, Type 1, BuildingBlock: KUMBUR_clean_sbu_1, # of connection points: 6
#     Node 32, Type 1, BuildingBlock: KUMBUR_clean_sbu_1, # of connection points: 6
#     Node 33, Type 1, BuildingBlock: KUMBUR_clean_sbu_1, # of connection points: 6
#     Node 34, Type 1, BuildingBlock: KUMBUR_clean_sbu_1, # of connection points: 6
#     Node 35, Type 1, BuildingBlock: KUMBUR_clean_sbu_1, # of connection points: 6
#     Node 36, Type 1, BuildingBlock: KUMBUR_clean_sbu_1, # of connection points: 6
#     Node 37, Type 1, BuildingBlock: KUMBUR_clean_sbu_1, # of connection points: 6
#     Node 38, Type 1, BuildingBlock: KUMBUR_clean_sbu_1, # of connection points: 6
#     Node 39, Type 1, BuildingBlock: KUMBUR_clean_sbu_1, # of connection points: 6
#     Edge 40, Type (0, 1), BuildingBlock: TEMPAE_clean_linker_10, # of connection points: 2
#     Edge 41, Type (0, 1), BuildingBlock: TEMPAE_clean_linker_10, # of connection points: 2
#     Edge 42, Type (0, 1), BuildingBlock: TEMPAE_clean_linker_10, # of connection points: 2
#     Edge 43, Type (0, 1), BuildingBlock: TEMPAE_clean_linker_10, # of connection points: 2
#     Edge 44, Type (0, 1), BuildingBlock: TEMPAE_clean_linker_10, # of connection points: 2
#     Edge 45, Type (0, 1), BuildingBlock: TEMPAE_clean_linker_10, # of connection points: 2
#     Edge 46, Type (0, 1), BuildingBlock: TEMPAE_clean_linker_10, # of connection points: 2
#     Edge 47, Type (0, 1), BuildingBlock: TEMPAE_clean_linker_10, # of connection points: 2
#     Edge 48, Type (0, 1), BuildingBlock: TEMPAE_clean_linker_10, # of connection points: 2
#     Edge 49, Type (0, 1), BuildingBlock: TEMPAE_clean_linker_10, # of connection points: 2
#     Edge 50, Type (0, 1), BuildingBlock: TEMPAE_clean_linker_10, # of connection points: 2
#     Edge 51, Type (0, 1), BuildingBlock: TEMPAE_clean_linker_10, # of connection points: 2
#     Edge 52, Type (0, 1), BuildingBlock: TEMPAE_clean_linker_10, # of connection points: 2
#     Edge 53, Type (0, 1), BuildingBlock: TEMPAE_clean_linker_10, # of connection points: 2
#     Edge 54, Type (0, 1), BuildingBlock: TEMPAE_clean_linker_10, # of connection points: 2
#     Edge 55, Type (0, 1), BuildingBlock: TEMPAE_clean_linker_10, # of connection points: 2
#     Edge 56, Type (0, 1), BuildingBlock: TEMPAE_clean_linker_10, # of connection points: 2
#     Edge 57, Type (0, 1), BuildingBlock: TEMPAE_clean_linker_10, # of connection points: 2
#     Edge 58, Type (0, 1), BuildingBlock: TEMPAE_clean_linker_10, # of connection points: 2
#     Edge 59, Type (0, 1), BuildingBlock: TEMPAE_clean_linker_10, # of connection points: 2
#     Edge 60, Type (0, 1), BuildingBlock: TEMPAE_clean_linker_10, # of connection points: 2
#     Edge 61, Type (0, 1), BuildingBlock: TEMPAE_clean_linker_10, # of connection points: 2
#     Edge 62, Type (0, 1), BuildingBlock: TEMPAE_clean_linker_10, # of connection points: 2
#     Edge 63, Type (0, 1), BuildingBlock: TEMPAE_clean_linker_10, # of connection points: 2
#     Edge 64, Type (0, 1), BuildingBlock: TEMPAE_clean_linker_10, # of connection points: 2
#     Edge 65, Type (0, 1), BuildingBlock: TEMPAE_clean_linker_10, # of connection points: 2
#     Edge 66, Type (0, 1), BuildingBlock: TEMPAE_clean_linker_10, # of connection points: 2
#     Edge 67, Type (0, 1), BuildingBlock: TEMPAE_clean_linker_10, # of connection points: 2
#     Edge 68, Type (0, 1), BuildingBlock: TEMPAE_clean_linker_10, # of connection points: 2
#     Edge 69, Type (0, 1), BuildingBlock: TEMPAE_clean_linker_10, # of connection points: 2
#     Edge 70, Type (0, 1), BuildingBlock: TEMPAE_clean_linker_10, # of connection points: 2
#     Edge 71, Type (0, 1), BuildingBlock: TEMPAE_clean_linker_10, # of connection points: 2
#     Edge 72, Type (0, 1), BuildingBlock: TEMPAE_clean_linker_10, # of connection points: 2
#     Edge 73, Type (0, 1), BuildingBlock: TEMPAE_clean_linker_10, # of connection points: 2
#     Edge 74, Type (0, 1), BuildingBlock: TEMPAE_clean_linker_10, # of connection points: 2
#     Edge 75, Type (0, 1), BuildingBlock: TEMPAE_clean_linker_10, # of connection points: 2
#     Edge 76, Type (0, 1), BuildingBlock: TEMPAE_clean_linker_10, # of connection points: 2
#     Edge 77, Type (0, 1), BuildingBlock: TEMPAE_clean_linker_10, # of connection points: 2
#     Edge 78, Type (0, 1), BuildingBlock: TEMPAE_clean_linker_10, # of connection points: 2
#     Edge 79, Type (0, 1), BuildingBlock: TEMPAE_clean_linker_10, # of connection points: 2
#     Edge 80, Type (0, 1), BuildingBlock: TEMPAE_clean_linker_10, # of connection points: 2
#     Edge 81, Type (0, 1), BuildingBlock: TEMPAE_clean_linker_10, # of connection points: 2
#     Edge 82, Type (0, 1), BuildingBlock: TEMPAE_clean_linker_10, # of connection points: 2
#     Edge 83, Type (0, 1), BuildingBlock: TEMPAE_clean_linker_10, # of connection points: 2
#     Edge 84, Type (0, 1), BuildingBlock: TEMPAE_clean_linker_10, # of connection points: 2
#     Edge 85, Type (0, 1), BuildingBlock: TEMPAE_clean_linker_10, # of connection points: 2
#     Edge 86, Type (0, 1), BuildingBlock: TEMPAE_clean_linker_10, # of connection points: 2
#     Edge 87, Type (0, 1), BuildingBlock: TEMPAE_clean_linker_10, # of connection points: 2
#     Edge 88, Type (0, 1), BuildingBlock: TEMPAE_clean_linker_10, # of connection points: 2
#     Edge 89, Type (0, 1), BuildingBlock: TEMPAE_clean_linker_10, # of connection points: 2
#     Edge 90, Type (0, 1), BuildingBlock: TEMPAE_clean_linker_10, # of connection points: 2
#     Edge 91, Type (0, 1), BuildingBlock: TEMPAE_clean_linker_10, # of connection points: 2
#     Edge 92, Type (0, 1), BuildingBlock: TEMPAE_clean_linker_10, # of connection points: 2
#     Edge 93, Type (0, 1), BuildingBlock: TEMPAE_clean_linker_10, # of connection points: 2
#     Edge 94, Type (0, 1), BuildingBlock: TEMPAE_clean_linker_10, # of connection points: 2
#     Edge 95, Type (0, 1), BuildingBlock: TEMPAE_clean_linker_10, # of connection points: 2
#     Edge 96, Type (0, 1), BuildingBlock: TEMPAE_clean_linker_10, # of connection points: 2
#     Edge 97, Type (0, 1), BuildingBlock: TEMPAE_clean_linker_10, # of connection points: 2
#     Edge 98, Type (0, 1), BuildingBlock: TEMPAE_clean_linker_10, # of connection points: 2
#     Edge 99, Type (0, 1), BuildingBlock: TEMPAE_clean_linker_10, # of connection points: 2
#     Edge 100, Type (0, 1), BuildingBlock: TEMPAE_clean_linker_10, # of connection points: 2
#     Edge 101, Type (0, 1), BuildingBlock: TEMPAE_clean_linker_10, # of connection points: 2
#     Edge 102, Type (0, 1), BuildingBlock: TEMPAE_clean_linker_10, # of connection points: 2
#     Edge 103, Type (0, 1), BuildingBlock: TEMPAE_clean_linker_10, # of connection points: 2
#     Edge 104, Type (0, 1), BuildingBlock: TEMPAE_clean_linker_10, # of connection points: 2
#     Edge 105, Type (0, 1), BuildingBlock: TEMPAE_clean_linker_10, # of connection points: 2
#     Edge 106, Type (0, 1), BuildingBlock: TEMPAE_clean_linker_10, # of connection points: 2
#     Edge 107, Type (0, 1), BuildingBlock: TEMPAE_clean_linker_10, # of connection points: 2
#     Edge 108, Type (0, 1), BuildingBlock: TEMPAE_clean_linker_10, # of connection points: 2
#     Edge 109, Type (0, 1), BuildingBlock: TEMPAE_clean_linker_10, # of connection points: 2
#     Edge 110, Type (0, 1), BuildingBlock: TEMPAE_clean_linker_10, # of connection points: 2
#     Edge 111, Type (0, 1), BuildingBlock: TEMPAE_clean_linker_10, # of connection points: 2
#     Edge 112, Type (0, 1), BuildingBlock: TEMPAE_clean_linker_10, # of connection points: 2
#     Edge 113, Type (0, 1), BuildingBlock: TEMPAE_clean_linker_10, # of connection points: 2
#     Edge 114, Type (0, 1), BuildingBlock: TEMPAE_clean_linker_10, # of connection points: 2
#     Edge 115, Type (0, 1), BuildingBlock: TEMPAE_clean_linker_10, # of connection points: 2
#     Edge 116, Type (0, 1), BuildingBlock: TEMPAE_clean_linker_10, # of connection points: 2
#     Edge 117, Type (0, 1), BuildingBlock: TEMPAE_clean_linker_10, # of connection points: 2
#     Edge 118, Type (0, 1), BuildingBlock: TEMPAE_clean_linker_10, # of connection points: 2
#     Edge 119, Type (0, 1), BuildingBlock: TEMPAE_clean_linker_10, # of connection points: 2
#     Edge 120, Type (0, 1), BuildingBlock: TEMPAE_clean_linker_10, # of connection points: 2
#     Edge 121, Type (0, 1), BuildingBlock: TEMPAE_clean_linker_10, # of connection points: 2
#     Edge 122, Type (0, 1), BuildingBlock: TEMPAE_clean_linker_10, # of connection points: 2
#     Edge 123, Type (0, 1), BuildingBlock: TEMPAE_clean_linker_10, # of connection points: 2
#     Edge 124, Type (0, 1), BuildingBlock: TEMPAE_clean_linker_10, # of connection points: 2
#     Edge 125, Type (0, 1), BuildingBlock: TEMPAE_clean_linker_10, # of connection points: 2
#     Edge 126, Type (0, 1), BuildingBlock: TEMPAE_clean_linker_10, # of connection points: 2
#     Edge 127, Type (0, 1), BuildingBlock: TEMPAE_clean_linker_10, # of connection points: 2
#     Edge 128, Type (0, 1), BuildingBlock: TEMPAE_clean_linker_10, # of connection points: 2
#     Edge 129, Type (0, 1), BuildingBlock: TEMPAE_clean_linker_10, # of connection points: 2
#     Edge 130, Type (0, 1), BuildingBlock: TEMPAE_clean_linker_10, # of connection points: 2
#     Edge 131, Type (0, 1), BuildingBlock: TEMPAE_clean_linker_10, # of connection points: 2
#     Edge 132, Type (0, 1), BuildingBlock: TEMPAE_clean_linker_10, # of connection points: 2
#     Edge 133, Type (0, 1), BuildingBlock: TEMPAE_clean_linker_10, # of connection points: 2
#     Edge 134, Type (0, 1), BuildingBlock: TEMPAE_clean_linker_10, # of connection points: 2
#     Edge 135, Type (0, 1), BuildingBlock: TEMPAE_clean_linker_10, # of connection points: 2
# Relax obj value: 0.087
# Max RMSD: 0.186
# Mean RMSD: 0.130
data_MOF--net-gar--node1-TATPOV_clean_sbu_0--node2-KUMBUR_clean_sbu_1--edge1-TEMPAE_clean_linker_10
_symmetry_space_group_name_H-M    P1
_symmetry_Int_Tables_number       1
_symmetry_cell_setting            triclinic
loop_
_symmetry_equiv_pos_as_xyz
'x, y, z'
_cell_length_a     60.565889
_cell_length_b     60.54957
_cell_length_c     57.100038
_cell_angle_alpha  96.579198
_cell_angle_beta   97.011739
_cell_angle_gamma 103.0772
loop_
_atom_site_label
_atom_site_type_symbol
_atom_site_fract_x
_atom_site_fract_y
_atom_site_fract_z
_atom_type_partial_charge
Zn0 Zn 0.03221 0.31714 0.38869 0.0
Zn1 Zn 0.05581 0.3182 0.3568 0.0
O2 O 0.06153 0.35324 0.37624 0.0
O3 O 0.041 0.34816 0.40537 0.0
O4 O 0.08684 0.31584 0.3407 0.0
O5 O 0.03746 0.29286 0.40643 0.0
O6 O 0.05644 0.28982 0.37624 0.0
C7 C 0.05395 0.36151 0.39469 0.0
C8 C 1.00251 0.30883 0.34324 0.0
O9 O 0.02147 0.31128 0.33431 0.0
O10 O 1.00367 0.31011 0.36561 0.0
C11 C 0.09508 0.31751 0.32097 0.0
O12 O 0.08247 0.32271 0.30302 0.0
C13 C 0.04928 0.28239 0.39478 0.0
Zn14 Zn 0.02127 0.72734 0.72016 0.0
Zn15 Zn 0.02369 0.75678 0.69046 0.0
O16 O 0.99428 0.76082 0.70723 0.0
O17 O 0.9902 0.7335 0.72956 0.0
O18 O 0.02835 0.78314 0.67082 0.0
O19 O 0.05473 0.74163 0.73833 0.0
O20 O 0.05785 0.76161 0.70874 0.0
C21 C 0.9827 0.74947 0.72123 0.0
C22 C 0.0181 0.70713 0.66958 0.0
O23 O 0.01718 0.7272 0.66536 0.0
O24 O 0.02029 0.70314 0.691 0.0
C25 C 0.01248 0.79206 0.66252 0.0
O26 O 0.99137 0.78363 0.666 0.0
C27 C 0.06744 0.75482 0.72693 0.0
Zn28 Zn 0.52721 0.81535 0.88398 0.0
Zn29 Zn 0.55567 0.81971 0.85842 0.0
O30 O 0.5636 0.8531 0.88203 0.0
O31 O 0.53553 0.84497 0.90302 0.0
O32 O 0.58437 0.81716 0.83846 0.0
O33 O 0.53048 0.79077 0.90109 0.0
O34 O 0.55576 0.79023 0.87667 0.0
C35 C 0.55262 0.8592 0.89873 0.0
C36 C 0.50143 0.81217 0.84077 0.0
O37 O 0.52193 0.81628 0.83502 0.0
O38 O 0.49907 0.80953 0.86193 0.0
C39 C 0.60593 0.8237 0.84732 0.0
O40 O 0.61139 0.83476 0.8692 0.0
C41 C 0.54499 0.78151 0.89277 0.0
Zn42 Zn 0.52123 0.22554 0.22156 0.0
Zn43 Zn 0.5254 0.25614 0.19276 0.0
O44 O 0.49517 0.25956 0.20896 0.0
O45 O 0.49147 0.23333 0.23265 0.0
O46 O 0.52966 0.28148 0.17138 0.0
O47 O 0.55554 0.2379 0.23792 0.0
O48 O 0.55951 0.26252 0.21251 0.0
C49 C 0.48388 0.24896 0.22371 0.0
C50 C 0.51801 0.20515 0.1717 0.0
O51 O 0.5201 0.22596 0.16809 0.0
O52 O 0.5175 0.20051 0.19278 0.0
C53 C 0.51802 0.29654 0.17009 0.0
O54 O 0.50151 0.29622 0.18307 0.0
C55 C 0.56863 0.25328 0.2291 0.0
Zn56 Zn 0.09598 0.79965 0.07875 0.0
Zn57 Zn 0.06586 0.79718 0.10783 0.0
O58 O 0.06198 0.82621 0.09008 0.0
O59 O 0.08891 0.82998 0.06749 0.0
O60 O 0.03872 0.79455 0.12622 0.0
O61 O 0.08152 0.76538 0.06198 0.0
O62 O 0.06025 0.76272 0.09044 0.0
C63 C 0.07285 0.83745 0.07552 0.0
C64 C 0.11612 0.80377 0.12977 0.0
O65 O 0.09556 0.80317 0.13331 0.0
O66 O 0.12069 0.80243 0.10858 0.0
C67 C 0.03948 0.79413 0.14853 0.0
O68 O 0.05923 0.79534 0.16163 0.0
C69 C 0.06756 0.75291 0.07289 0.0
Zn70 Zn 0.47844 0.76424 0.4721 0.0
Zn71 Zn 0.50718 0.7678 0.44184 0.0
O72 O 0.51449 0.80241 0.46058 0.0
O73 O 0.49163 0.79874 0.4876 0.0
O74 O 0.53216 0.76847 0.42028 0.0
O75 O 0.48659 0.73433 0.48338 0.0
O76 O 0.51205 0.7385 0.45913 0.0
C77 C 0.50612 0.81173 0.47767 0.0
C78 C 0.45553 0.76159 0.42291 0.0
O79 O 0.47584 0.76272 0.41798 0.0
O80 O 0.45219 0.76136 0.44442 0.0
C81 C 0.54693 0.78628 0.41752 0.0
O82 O 0.54589 0.80639 0.42805 0.0
C83 C 0.5023 0.72715 0.47433 0.0
Zn84 Zn 0.59692 0.30206 0.58228 0.0
Zn85 Zn 0.56564 0.29645 0.60971 0.0
O86 O 0.56345 0.32776 0.59487 0.0
O87 O 0.58603 0.32902 0.56762 0.0
O88 O 0.53924 0.29216 0.62942 0.0
O89 O 0.58717 0.26699 0.5683 0.0
O90 O 0.55901 0.26279 0.58942 0.0
C91 C 0.57215 0.33786 0.57829 0.0
C92 C 0.61633 0.30568 0.6324 0.0
O93 O 0.59512 0.29995 0.63459 0.0
O94 O 0.62194 0.30954 0.61227 0.0
C95 C 0.53619 0.30752 0.64506 0.0
O96 O 0.5509 0.32765 0.64938 0.0
C97 C 0.57038 0.25382 0.57506 0.0
Zn98 Zn 0.97885 0.26415 0.97325 0.0
Zn99 Zn 1.00585 0.266 0.941 0.0
O100 O 0.01215 0.30074 0.95868 0.0
O101 O 0.9938 0.29796 0.98946 0.0
O102 O 0.03029 0.26669 0.91866 0.0
O103 O 0.98618 0.23399 0.98399 0.0
O104 O 0.01104 0.23732 0.959 0.0
C105 C 1.00617 0.31051 0.97723 0.0
C106 C 0.95476 0.26061 0.92391 0.0
O107 O 0.97437 0.25994 0.91805 0.0
O108 O 0.95245 0.26232 0.94582 0.0
C109 C 0.04461 0.28465 0.91544 0.0
O110 O 0.04353 0.30466 0.9262 0.0
C111 C 1.00152 0.22643 0.97463 0.0
Zn112 Zn 0.41748 1.0014 0.29876 0.0
Zn113 Zn 0.39292 0.02662 0.29852 0.0
O114 O 0.41073 0.03628 0.33158 0.0
O115 O 0.41734 1.00241 0.33375 0.0
O116 O 0.37136 0.04603 0.29664 0.0
O117 O 0.44139 0.02219 0.28493 0.0
O118 O 0.41118 0.03374 0.27158 0.0
C119 C 0.41592 0.02156 0.34387 0.0
C120 C 0.37522 0.97643 0.28418 0.0
O121 O 0.37215 0.99487 0.29466 0.0
O122 O 0.39445 0.97604 0.27796 0.0
C123 C 0.36457 0.05571 0.31432 0.0
O124 O 0.37231 0.05332 0.33616 0.0
C125 C 0.4317 0.03254 0.27035 0.0
Zn126 Zn 0.24661 0.21152 0.51019 0.0
Zn127 Zn 0.27624 0.1862 0.51396 0.0
O128 O 0.28057 0.1998 0.48242 0.0
O129 O 0.25568 0.22102 0.47919 0.0
O130 O 0.30197 0.17 0.51714 0.0
O131 O 0.25844 0.22968 0.54291 0.0
O132 O 0.28185 0.20693 0.5472 0.0
C133 C 0.27091 0.21269 0.47072 0.0
C134 C 0.22559 0.16356 0.50944 0.0
O135 O 0.24603 0.16113 0.51049 0.0
O136 O 0.22158 0.18317 0.50926 0.0
C137 C 0.29914 0.14857 0.51105 0.0
O138 O 0.2785 0.13586 0.50244 0.0
C139 C 0.27337 0.22298 0.55587 0.0
Zn140 Zn 0.11061 0.07507 0.79045 0.0
Zn141 Zn 0.13628 0.04611 0.78597 0.0
O142 O 0.12177 0.04025 0.81699 0.0
O143 O 0.0967 0.06149 0.81767 0.0
O144 O 0.15455 0.02216 0.78222 0.0
O145 O 0.09613 0.06679 0.75575 0.0
O146 O 0.11569 0.04037 0.75242 0.0
C147 C 0.10616 0.04719 0.82671 0.0
C148 C 0.15886 0.09716 0.79579 0.0
O149 O 0.16081 0.07673 0.79044 0.0
O150 O 0.13936 0.10073 0.79806 0.0
C151 C 0.16695 0.01691 0.79933 0.0
O152 O 0.16826 0.02746 0.82107 0.0
C153 C 0.1015 0.05081 0.74312 0.0
Zn154 Zn 0.32632 0.91488 0.01075 0.0
Zn155 Zn 0.29786 0.93433 0.00327 0.0
O156 O 0.29543 0.91287 0.97335 0.0
O157 O 0.33107 0.90987 0.97708 0.0
O158 O 0.27243 0.94825 0.9959 0.0
O159 O 0.30448 0.89 0.0217 0.0
O160 O 0.2896 0.91868 0.03169 0.0
C161 C 0.31156 0.9064 0.96464 0.0
C162 C 0.34415 0.95992 0.02546 0.0
O163 O 0.32708 0.95973 0.01004 0.0
O164 O 0.34559 0.94172 0.03366 0.0
C165 C 0.27323 0.9658 0.9857 0.0
O166 O 0.29264 0.97677 0.9799 0.0
C167 C 0.2916 0.89856 0.03384 0.0
Zn168 Zn 0.33073 0.35931 0.04203 0.0
Zn169 Zn 0.30105 0.38314 0.03801 0.0
O170 O 0.29423 0.3625 0.00444 0.0
O171 O 0.31828 0.34059 0.00988 0.0
O172 O 0.27608 0.40039 0.03819 0.0
O173 O 0.3237 0.34902 0.07288 0.0
O174 O 0.29676 0.36788 0.06894 0.0
C175 C 0.30321 0.34657 0.99634 0.0
C176 C 0.35194 0.40633 0.04148 0.0
O177 O 0.33132 0.40839 0.04023 0.0
O178 O 0.35609 0.38692 0.04277 0.0
C179 C 0.27463 0.41672 0.02643 0.0
O180 O 0.28986 0.42289 0.01239 0.0
C181 C 0.30728 0.35563 0.08069 0.0
Zn182 Zn 0.74722 0.15453 0.06395 0.0
Zn183 Zn 0.77793 0.13238 0.05429 0.0
O184 O 0.7767 0.14923 0.02637 0.0
O185 O 0.75372 0.17094 0.03623 0.0
O186 O 0.80034 0.11603 0.04756 0.0
O187 O 0.76431 0.16551 0.09614 0.0
O188 O 0.79254 0.1509 0.08595 0.0
C189 C 0.76625 0.16451 0.02197 0.0
C190 C 0.73021 0.10664 0.05474 0.0
O191 O 0.75067 0.10638 0.05271 0.0
O192 O 0.72424 0.12521 0.05882 0.0
C193 C 0.80362 0.09956 0.05812 0.0
O194 O 0.79204 0.09351 0.07533 0.0
C195 C 0.78405 0.16215 0.10099 0.0
Zn196 Zn 0.17314 0.58051 0.24904 0.0
Zn197 Zn 0.19244 0.55124 0.24525 0.0
O198 O 0.17514 0.5451 0.27299 0.0
O199 O 0.14683 0.55897 0.25891 0.0
O200 O 0.20637 0.52601 0.24029 0.0
O201 O 0.17299 0.58423 0.21448 0.0
O202 O 0.17308 0.54812 0.21402 0.0
C203 C 0.15501 0.54772 0.27363 0.0
C204 C 0.21853 0.59443 0.26976 0.0
O205 O 0.21913 0.57869 0.2534 0.0
O206 O 0.19939 0.59701 0.27459 0.0
C207 C 0.22117 0.52492 0.25737 0.0
O208 O 0.22589 0.54055 0.27643 0.0
C209 C 0.1696 0.56432 0.20314 0.0
Zn210 Zn 0.83136 0.86005 0.54073 0.0
Zn211 Zn 0.80202 0.88397 0.53654 0.0
O212 O 0.79684 0.8639 0.50269 0.0
O213 O 0.82193 0.84306 0.5074 0.0
O214 O 0.77608 0.89992 0.53408 0.0
O215 O 0.82185 0.84717 0.56956 0.0
O216 O 0.79737 0.86892 0.56777 0.0
C217 C 0.80667 0.84891 0.49402 0.0
C218 C 0.85259 0.90797 0.54443 0.0
O219 O 0.83191 0.90973 0.54047 0.0
O220 O 0.85666 0.88854 0.5459 0.0
C221 C 0.77769 0.92075 0.54235 0.0
O222 O 0.79767 0.93373 0.55284 0.0
C223 C 0.80664 0.8551 0.57848 0.0
Zn224 Zn 0.96493 0.99621 0.25915 0.0
Zn225 Zn 0.93633 0.02256 0.26046 0.0
O226 O 0.95607 0.02961 0.29456 0.0
O227 O 0.98207 0.0097 0.29168 0.0
O228 O 0.91905 0.04769 0.26113 0.0
O229 O 0.97729 0.00677 0.23018 0.0
O230 O 0.95196 0.0277 0.23 0.0
C231 C 0.97349 0.02337 0.30399 0.0
C232 C 0.91678 0.97158 0.25691 0.0
O233 O 0.91257 0.99134 0.25727 0.0
O234 O 0.93719 0.96955 0.25706 0.0
C235 C 0.90048 0.04713 0.26952 0.0
O236 O 0.89088 0.02881 0.2783 0.0
C237 C 0.96776 0.02076 0.22067 0.0
Zn238 Zn 0.25899 0.65438 0.55516 0.0
Zn239 Zn 0.28331 0.62982 0.5523 0.0
O240 O 0.29076 0.64907 0.52605 0.0
O241 O 0.25496 0.65122 0.51965 0.0
O242 O 0.305 0.61105 0.55466 0.0
O243 O 0.28461 0.67878 0.57497 0.0
O244 O 0.28926 0.64647 0.58552 0.0
C245 C 0.27411 0.65273 0.51253 0.0
C246 C 0.23696 0.6115 0.55689 0.0
O247 O 0.25198 0.60867 0.54403 0.0
O248 O 0.24037 0.63009 0.57085 0.0
C249 C 0.30064 0.59083 0.55961 0.0
O250 O 0.27955 0.57967 0.56045 0.0
C251 C 0.29214 0.6679 0.59041 0.0
Zn252 Zn 0.46599 0.49554 0.76185 0.0
Zn253 Zn 0.43503 0.5201 0.76016 0.0
O254 O 0.45334 0.52685 0.79506 0.0
O255 O 0.48233 0.5106 0.79444 0.0
O256 O 0.41432 0.54244 0.75927 0.0
O257 O 0.47799 0.50593 0.73262 0.0
O258 O 0.45183 0.52592 0.73052 0.0
C259 C 0.47146 0.52269 0.80567 0.0
C260 C 0.41792 0.46927 0.75753 0.0
O261 O 0.41288 0.48841 0.75595 0.0
O262 O 0.43873 0.46815 0.76003 0.0
C263 C 0.4153 0.55779 0.77683 0.0
O264 O 0.42965 0.55894 0.79637 0.0
C265 C 0.46827 0.51929 0.72217 0.0
Zn266 Zn 0.68729 0.08824 0.75004 0.0
Zn267 Zn 0.69549 0.04985 0.74891 0.0
O268 O 0.67242 0.04605 0.77112 0.0
O269 O 0.67974 0.08321 0.78289 0.0
O270 O 0.70372 0.0208 0.74557 0.0
O271 O 0.66108 0.07603 0.72473 0.0
O272 O 0.68131 0.05137 0.71521 0.0
C273 C 0.67058 0.06282 0.78555 0.0
C274 C 0.73189 0.09062 0.75694 0.0
O275 O 0.72409 0.07289 0.76589 0.0
O276 O 0.71907 0.09533 0.74016 0.0
C277 C 0.71871 0.01674 0.73321 0.0
O278 O 0.73005 0.0329 0.72264 0.0
C279 C 0.66477 0.06052 0.71014 0.0
Zn280 Zn 0.74578 0.70875 0.01116 0.0
Zn281 Zn 0.77416 0.68257 0.01333 0.0
O282 O 0.77855 0.69701 0.98192 0.0
O283 O 0.75227 0.7167 0.97888 0.0
O284 O 0.79693 0.66275 0.01507 0.0
O285 O 0.76107 0.72833 0.04245 0.0
O286 O 0.78177 0.70322 0.04696 0.0
C287 C 0.76793 0.70925 0.97027 0.0
C288 C 0.72342 0.66175 0.01212 0.0
O289 O 0.7434 0.65872 0.01081 0.0
O290 O 0.72005 0.6817 0.01305 0.0
C291 C 0.81202 0.66245 0.00142 0.0
O292 O 0.81383 0.67614 0.98514 0.0
C293 C 0.77516 0.72067 0.05553 0.0
Zn294 Zn 0.91945 0.49881 0.80172 0.0
Zn295 Zn 0.89494 0.52519 0.80052 0.0
O296 O 0.91308 0.53799 0.83244 0.0
O297 O 0.91833 0.50403 0.8371 0.0
O298 O 0.87308 0.54349 0.79692 0.0
O299 O 0.942 0.5187 0.78534 0.0
O300 O 0.91066 0.52822 0.77166 0.0
C301 C 0.91722 0.5238 0.84593 0.0
C302 C 0.8751 0.47671 0.78704 0.0
O303 O 0.87367 0.49469 0.79974 0.0
O304 O 0.89399 0.47501 0.78081 0.0
C305 C 0.86081 0.54682 0.81278 0.0
O306 O 0.86415 0.5396 0.83345 0.0
C307 C 0.93074 0.52637 0.76936 0.0
Zn308 Zn 0.84796 0.40502 0.49617 0.0
Zn309 Zn 0.7976 0.43721 0.4964 0.0
O310 O 0.79331 0.4248 0.46103 0.0
O311 O 0.82292 0.41693 0.47927 0.0
O312 O 0.77017 0.4468 0.50114 0.0
O313 O 0.82883 0.3917 0.5204 0.0
O314 O 0.80232 0.41287 0.51912 0.0
C315 C 0.80923 0.41464 0.46015 0.0
C316 C 0.84123 0.45612 0.50653 0.0
O317 O 0.82446 0.46529 0.5051 0.0
O318 O 0.83685 0.43468 0.50007 0.0
C319 C 0.76614 0.4622 0.48923 0.0
O320 O 0.78061 0.47081 0.47534 0.0
C321 C 0.81144 0.39764 0.52761 0.0
Zn322 Zn 0.61153 0.57464 0.29267 0.0
Zn323 Zn 0.63796 0.54588 0.28764 0.0
O324 O 0.62307 0.53976 0.31845 0.0
O325 O 0.59826 0.56115 0.32037 0.0
O326 O 0.65752 0.52296 0.2848 0.0
O327 O 0.59624 0.56447 0.25812 0.0
O328 O 0.61773 0.53993 0.25397 0.0
C329 C 0.6077 0.54652 0.32874 0.0
C330 C 0.6599 0.59702 0.29699 0.0
O331 O 0.66182 0.5766 0.29176 0.0
O332 O 0.64048 0.60072 0.29953 0.0
C333 C 0.66265 0.51179 0.30137 0.0
O334 O 0.65482 0.5147 0.32165 0.0
C335 C 0.60244 0.54935 0.24501 0.0
Tb336 Tb 0.06859 0.04708 0.04383 0.0
C337 C 0.99681 0.96591 0.98441 0.0
N338 N 1.00703 0.98661 0.97868 0.0
C339 C 0.00913 0.96877 0.93955 0.0
C340 C 0.99269 0.94572 0.96793 0.0
C341 C 0.01299 0.98833 0.95651 0.0
C342 C 0.99901 0.94735 0.9453 0.0
C343 C 0.97992 0.94388 0.01354 0.0
C344 C 0.99049 0.96504 0.00699 0.0
C345 C 0.97591 0.9237 0.9972 0.0
C346 C 0.98221 0.92462 0.97445 0.0
Tb347 Tb 0.00913 0.01727 0.00673 0.0
N348 N 0.9944 0.98497 0.02233 0.0
C349 C 0.97318 0.9437 0.03611 0.0
C350 C 0.9861 0.98497 0.0435 0.0
C351 C 0.97606 0.96439 0.05105 0.0
H352 H 0.01971 1.00485 0.95142 0.0
H353 H 0.96987 0.96456 0.06805 0.0
H354 H 0.05806 0.06027 0.09905 0.0
H355 H 0.11446 0.09817 0.98507 0.0
H356 H 0.98591 1.00069 0.05406 0.0
H357 H 0.96501 0.9278 0.04182 0.0
H358 H 0.09521 0.06261 -0.00209 0.0
H359 H 0.01363 0.97026 0.92193 0.0
H360 H 0.96768 0.90731 0.00188 0.0
H361 H 0.97878 0.90893 0.96197 0.0
H362 H 0.06494 0.09494 0.1286 0.0
H363 H 0.99594 0.93224 0.93205 0.0
H364 H 0.12068 0.13508 0.01142 0.0
N365 N 0.07246 0.07804 0.07227 0.0
C366 C 0.08399 0.09843 0.06696 0.0
C367 C 0.07013 0.09621 0.11122 0.0
C368 C 0.08884 0.11862 0.0836 0.0
C369 C 0.06578 0.07662 0.09419 0.0
C370 C 0.08167 0.11731 0.10591 0.0
N371 N 0.08652 0.07901 0.02931 0.0
C372 C 0.09574 0.0785 0.00864 0.0
C373 C 0.10342 0.11973 0.03877 0.0
C374 C 0.09113 0.09895 0.04475 0.0
C375 C 0.11117 0.11949 0.01668 0.0
C376 C 0.10755 0.09873 0.00168 0.0
H377 H 0.08521 0.13242 0.11924 0.0
H378 H 0.10487 0.15503 0.09019 0.0
H379 H 0.11761 0.156 0.05096 0.0
O380 O 0.09976 0.03886 0.039 0.0
O381 O 0.0463 0.07118 0.03624 0.0
O382 O 0.02082 0.0539 0.00209 0.0
O383 O 0.09287 0.05036 0.07451 0.0
O384 O 0.06717 0.03061 0.00665 0.0
O385 O 0.03369 0.03524 0.98672 0.0
O386 O 0.97539 0.01773 0.01065 0.0
O387 O 0.03377 0.9952 0.0136 0.0
O388 O 0.0542 0.01152 0.05018 0.0
O389 O 0.98542 0.01439 0.97581 0.0
O390 O 0.00942 0.03562 0.04274 0.0
O391 O 0.04242 0.03074 0.0632 0.0
C392 C 0.03207 0.07241 0.01718 0.0
C393 C 0.12968 0.04181 0.07242 0.0
C394 C 0.16397 0.02873 0.06755 0.0
C395 C 0.17335 0.03825 0.09129 0.0
C396 C 0.13904 0.05136 0.0961 0.0
C397 C 0.16081 0.04944 0.10552 0.0
C398 C 0.14198 0.03021 0.05849 0.0
C399 C 0.05473 0.03323 0.987 0.0
C400 C 0.10715 0.04374 0.06187 0.0
C401 C 0.10089 0.13935 0.0776 0.0
C402 C 0.10812 0.13991 0.05523 0.0
C403 C 0.0454 0.99321 0.03406 0.0
C404 C 0.95872 0.03624 0.98239 0.0
C405 C 0.93188 0.05832 0.99253 0.0
C406 C 0.93957 0.07365 0.97694 0.0
C407 C 0.96645 0.05139 0.96652 0.0
C408 C 0.94123 0.03964 0.99494 0.0
C409 C 0.95671 0.06998 0.96373 0.0
C410 C 0.02234 0.03526 0.06291 0.0
C411 C 0.96951 0.01785 0.98797 0.0
H412 H 0.19045 0.03746 0.09866 0.0
H413 H 0.12966 0.06038 0.10722 0.0
H414 H 0.1681 0.05689 0.12374 0.0
H415 H 0.13441 0.02229 0.04042 0.0
H416 H 0.9322 0.08816 0.97488 0.0
H417 H 0.98014 0.04914 0.95663 0.0
H418 H 0.93534 0.02807 0.00734 0.0
H419 H 0.96263 0.08166 0.95155 0.0
Tb420 Tb 0.26314 0.77888 0.30838 0.0
C421 C 0.32534 0.75322 0.22319 0.0
N422 N 0.33089 0.7682 0.24387 0.0
C423 C 0.36738 0.75901 0.25123 0.0
C424 C 0.3406 0.7403 0.21586 0.0
C425 C 0.35162 0.77131 0.25787 0.0
C426 C 0.36187 0.74346 0.23013 0.0
C427 C 0.29657 0.73299 0.18968 0.0
C428 C 0.30363 0.7497 0.21023 0.0
C429 C 0.31196 0.72059 0.18189 0.0
C430 C 0.33392 0.72423 0.19496 0.0
Tb431 Tb 0.30441 0.78815 0.25253 0.0
N432 N 0.28876 0.76108 0.21919 0.0
C433 C 0.27399 0.72856 0.17809 0.0
C434 C 0.26649 0.7562 0.20815 0.0
C435 C 0.25887 0.74013 0.18747 0.0
H436 H 0.35635 0.7837 0.27385 0.0
H437 H 0.2412 0.73645 0.17896 0.0
H438 H 0.2109 0.78609 0.29737 0.0
H439 H 0.32852 0.81259 0.38709 0.0
H440 H 0.2541 0.76399 0.21514 0.0
H441 H 0.26789 0.71583 0.1623 0.0
H442 H 0.3082 0.78388 0.35354 0.0
H443 H 0.38381 0.7616 0.26237 0.0
H444 H 0.30683 0.70772 0.16614 0.0
H445 H 0.34541 0.71416 0.18904 0.0
H446 H 0.18902 0.81345 0.31118 0.0
H447 H 0.37405 0.73383 0.22514 0.0
H448 H 0.3123 0.84503 0.40028 0.0
N449 N 0.24068 0.80135 0.32265 0.0
C450 C 0.25021 0.81751 0.34182 0.0
C451 C 0.20631 0.81494 0.31987 0.0
C452 C 0.23851 0.83369 0.3503 0.0
C453 C 0.21882 0.79954 0.31194 0.0
C454 C 0.21631 0.83231 0.33897 0.0
N455 N 0.28192 0.80121 0.34422 0.0
C456 C 0.3014 0.79854 0.35739 0.0
C457 C 0.28236 0.83404 0.37301 0.0
C458 C 0.27176 0.81766 0.35283 0.0
C459 C 0.30352 0.83274 0.38478 0.0
C460 C 0.31279 0.81456 0.37728 0.0
H461 H 0.20668 0.84434 0.34498 0.0
H462 H 0.24073 0.86337 0.37642 0.0
H463 H 0.27926 0.86371 0.39635 0.0
O464 O 0.26143 0.74994 0.32525 0.0
O465 O 0.27103 0.81384 0.3018 0.0
O466 O 0.30141 0.80766 0.28618 0.0
O467 O 0.23075 0.75625 0.30736 0.0
O468 O 0.29772 0.77089 0.31375 0.0
O469 O 0.32218 0.79076 0.28983 0.0
O470 O 0.30339 0.81166 0.22867 0.0
O471 O 0.29374 0.75201 0.25494 0.0
O472 O 0.27402 0.76805 0.27656 0.0
O473 O 0.33546 0.81043 0.24872 0.0
O474 O 0.26944 0.79505 0.24564 0.0
O475 O 0.24412 0.78054 0.27235 0.0
C476 C 0.2873 0.82075 0.28956 0.0
C477 C 0.22855 0.7411 0.34366 0.0
C478 C 0.23228 0.73272 0.38445 0.0
C479 C 0.20864 0.73078 0.38413 0.0
C480 C 0.20498 0.73901 0.34348 0.0
C481 C 0.19519 0.73427 0.36383 0.0
C482 C 0.24211 0.73886 0.36451 0.0
C483 C 0.3184 0.77824 0.30743 0.0
C484 C 0.23915 0.74443 0.32209 0.0
C485 C 0.2493 0.8506 0.36978 0.0
C486 C 0.27125 0.85082 0.38108 0.0
C487 C 0.2786 0.74904 0.26872 0.0
C488 C 0.3357 0.82035 0.20997 0.0
C489 C 0.33484 0.834 0.17182 0.0
C490 C 0.351 0.82182 0.16575 0.0
C491 C 0.35169 0.80791 0.2039 0.0
C492 C 0.32777 0.83361 0.1941 0.0
C493 C 0.35943 0.80885 0.18186 0.0
C494 C 0.2487 0.7899 0.25259 0.0
C495 C 0.3256 0.81909 0.23184 0.0
H496 H 0.20036 0.72575 0.39912 0.0
H497 H 0.19416 0.7408 0.3276 0.0
H498 H 0.17698 0.73254 0.36362 0.0
H499 H 0.26043 0.74115 0.365 0.0
H500 H 0.35654 0.82183 0.14842 0.0
H501 H 0.35801 0.7974 0.21594 0.0
H502 H 0.31539 0.84315 0.19883 0.0
H503 H 0.37163 0.79919 0.17707 0.0
Tb504 Tb 0.50644 0.0297 0.53942 0.0
C505 C 0.58744 0.08049 0.48916 0.0
N506 N 0.57282 0.0594 0.48181 0.0
C507 C 0.56661 0.06879 0.44213 0.0
C508 C 0.59125 0.09687 0.47348 0.0
C509 C 0.5635 0.053 0.45822 0.0
C510 C 0.5802 0.09092 0.44987 0.0
C511 C 0.615 0.10686 0.52042 0.0
C512 C 0.59935 0.08552 0.51235 0.0
C513 C 0.61819 0.12342 0.50505 0.0
C514 C 0.60634 0.11845 0.48166 0.0
Tb515 Tb 0.56905 0.03636 0.51115 0.0
N516 N 0.59511 0.06952 0.52722 0.0
C517 C 0.62713 0.11077 0.54363 0.0
C518 C 0.60814 0.0725 0.54907 0.0
C519 C 0.624 0.09333 0.55786 0.0
H520 H 0.55398 0.03568 0.45132 0.0
H521 H 0.63396 0.09582 0.57545 0.0
H522 H 0.51816 0.03545 0.59955 0.0
H523 H 0.44572 0.96507 0.47522 0.0
H524 H 0.60662 0.05863 0.55945 0.0
H525 H 0.63939 0.12693 0.55048 0.0
H526 H 0.47308 1.00236 0.48897 0.0
H527 H 0.55877 0.06374 0.42364 0.0
H528 H 0.63001 0.14002 0.51097 0.0
H529 H 0.60929 0.13129 0.4699 0.0
H530 H 0.50991 0.01092 0.63032 0.0
H531 H 0.58268 0.10303 0.43728 0.0
H532 H 0.43657 0.93774 0.50374 0.0
N533 N 0.50005 0.00964 0.57056 0.0
C534 C 0.48522 0.98858 0.56433 0.0
C535 C 0.50312 1.00431 0.61178 0.0
C536 C 0.4795 0.97424 0.58161 0.0
C537 C 0.50813 0.01804 0.5941 0.0
C538 C 0.48901 0.98222 0.60549 0.0
N539 N 0.48057 0.99591 0.52442 0.0
C540 C 0.46979 0.99046 0.50135 0.0
C541 C 0.45915 0.96017 0.53368 0.0
C542 C 0.47496 0.98163 0.54066 0.0
C543 C 0.44883 0.95406 0.50979 0.0
C544 C 0.45401 0.96939 0.49361 0.0
H545 H 0.48503 0.97172 0.61928 0.0
H546 H 0.45962 0.9414 0.58767 0.0
H547 H 0.44193 0.92906 0.54572 0.0
O548 O 0.47728 0.03867 0.52264 0.0
O549 O 0.51559 0.9969 0.52568 0.0
O550 O 0.54728 1.00049 0.50447 0.0
O551 O 0.48858 0.04734 0.56067 0.0
O552 O 0.52122 0.04173 0.50949 0.0
O553 O 0.53893 0.02413 0.48448 0.0
O554 O 0.59577 0.02309 0.5266 0.0
O555 O 0.5611 0.06883 0.52758 0.0
O556 O 0.52751 0.06564 0.54524 0.0
O557 O 0.59229 0.02784 0.48959 0.0
O558 O 0.55722 0.024 0.54262 0.0
O559 O 0.53655 0.04062 0.56587 0.0
C560 C 0.5294 0.98817 0.51267 0.0
C561 C 0.4499 0.04508 0.54762 0.0
C562 C 0.41676 0.06128 0.54907 0.0
C563 C 0.40816 0.04532 0.56378 0.0
C564 C 0.44101 0.02902 0.56204 0.0
C565 C 0.42014 0.02915 0.57002 0.0
C566 C 0.43756 0.06089 0.54083 0.0
C567 C 0.52011 0.02929 0.48921 0.0
C568 C 0.4735 0.0484 0.54282 0.0
C569 C 0.46409 0.95266 0.57464 0.0
C570 C 0.45397 0.94564 0.55076 0.0
C571 C 0.54663 0.07779 0.5392 0.0
C572 C 0.6076 0.99729 0.49959 0.0
C573 C 0.63409 0.97256 0.50054 0.0
C574 C 0.61819 0.95598 0.48372 0.0
C575 C 0.59164 0.9804 0.48312 0.0
C576 C 0.62863 0.99314 0.50859 0.0
C577 C 0.59697 0.95982 0.47526 0.0
C578 C 0.55623 0.03706 0.56194 0.0
C579 C 0.60328 0.01984 0.50638 0.0
H580 H 0.3921 0.04528 0.57033 0.0
H581 H 0.45053 0.01696 0.56779 0.0
H582 H 0.41346 0.01698 0.58144 0.0
H583 H 0.4447 0.07363 0.53012 0.0
H584 H 0.62217 0.94002 0.47726 0.0
H585 H 0.57529 0.98329 0.47599 0.0
H586 H 0.64102 0.0062 0.52123 0.0
H587 H 0.58475 0.94694 0.46238 0.0
Tb588 Tb 0.31788 0.2721 0.78018 0.0
C589 C 0.23882 0.30647 0.72548 0.0
N590 N 0.25347 0.31695 0.74565 0.0
C591 C 0.26055 0.35238 0.72964 0.0
C592 C 0.23485 0.31843 0.70626 0.0
C593 C 0.26394 0.33975 0.74821 0.0
C594 C 0.24608 0.34165 0.70849 0.0
C595 C 0.21269 0.27188 0.70356 0.0
C596 C 0.22816 0.28346 0.72403 0.0
C597 C 0.20883 0.28361 0.68419 0.0
C598 C 0.21993 0.30682 0.68551 0.0
Tb599 Tb 0.25911 0.29418 0.77394 0.0
N600 N 0.23303 0.2725 0.7428 0.0
C601 C 0.20133 0.24899 0.70341 0.0
C602 C 0.22064 0.25087 0.74352 0.0
C603 C 0.20497 0.2386 0.72369 0.0
H604 H 0.27462 0.34833 0.76471 0.0
H605 H 0.19547 0.22127 0.72421 0.0
H606 H 0.30517 0.2189 0.79214 0.0
H607 H 0.37401 0.35061 0.82986 0.0
H608 H 0.2222 0.24325 0.75956 0.0
H609 H 0.1892 0.23947 0.68809 0.0
H610 H 0.34959 0.32652 0.79462 0.0
H611 H 0.26904 0.37041 0.73169 0.0
H612 H 0.19714 0.27495 0.6682 0.0
H613 H 0.21674 0.31567 0.67047 0.0
H614 H 0.31394 0.19845 0.82577 0.0
H615 H 0.24352 0.35147 0.69411 0.0
H616 H 0.38312 0.33361 0.86612 0.0
N617 N 0.32532 0.25135 0.80976 0.0
C618 C 0.33971 0.2632 0.82958 0.0
C619 C 0.32126 0.21668 0.8271 0.0
C620 C 0.34523 0.25223 0.84919 0.0
C621 C 0.31619 0.22835 0.80816 0.0
C622 C 0.33582 0.22867 0.84772 0.0
N623 N 0.34205 0.29658 0.81126 0.0
C624 C 0.35197 0.31906 0.81057 0.0
C625 C 0.36295 0.29959 0.85083 0.0
C626 C 0.34827 0.2866 0.83042 0.0
C627 C 0.37177 0.32301 0.8508 0.0
C628 C 0.36651 0.3327 0.83044 0.0
H629 H 0.33965 0.21959 0.8624 0.0
H630 H 0.36414 0.25704 0.8849 0.0
H631 H 0.37974 0.29848 0.88631 0.0
O632 O 0.34705 0.28147 0.76225 0.0
O633 O 0.30172 0.27715 0.81256 0.0
O634 O 0.28575 0.30678 0.80497 0.0
O635 O 0.33442 0.24682 0.76972 0.0
O636 O 0.31771 0.30366 0.76455 0.0
O637 O 0.29204 0.31943 0.78327 0.0
O638 O 0.2319 0.28487 0.79433 0.0
O639 O 0.27326 0.28655 0.74078 0.0
O640 O 0.29229 0.25871 0.74831 0.0
O641 O 0.24189 0.31899 0.78442 0.0
O642 O 0.25785 0.26083 0.78659 0.0
O643 O 0.2858 0.2456 0.77074 0.0
C644 C 0.29242 0.29382 0.81979 0.0
C645 C 0.36671 0.25176 0.74824 0.0
C646 C 0.40131 0.25698 0.72921 0.0
C647 C 0.39839 0.2331 0.72555 0.0
C648 C 0.36431 0.22792 0.74415 0.0
C649 C 0.37999 0.21872 0.73287 0.0
C650 C 0.38521 0.26639 0.74038 0.0
C651 C 0.30886 0.32109 0.7705 0.0
C652 C 0.34927 0.26046 0.76013 0.0
C653 C 0.3597 0.26514 0.86963 0.0
C654 C 0.36853 0.28876 0.87045 0.0
C655 C 0.28334 0.27048 0.73348 0.0
C656 C 0.21102 0.31347 0.80805 0.0
C657 C 0.17724 0.30718 0.82835 0.0
C658 C 0.17923 0.3309 0.83181 0.0
C659 C 0.2125 0.33716 0.81188 0.0
C660 C 0.19329 0.29835 0.81651 0.0
C661 C 0.19675 0.34575 0.82368 0.0
C662 C 0.26735 0.24371 0.78114 0.0
C663 C 0.22839 0.30538 0.79545 0.0
H664 H 0.41038 0.22551 0.71681 0.0
H665 H 0.35017 0.2162 0.74959 0.0
H666 H 0.37788 0.20034 0.72981 0.0
H667 H 0.38726 0.28479 0.74321 0.0
H668 H 0.1671 0.33797 0.84088 0.0
H669 H 0.22597 0.3492 0.80583 0.0
H670 H 0.19185 0.28005 0.81378 0.0
H671 H 0.19812 0.36402 0.82651 0.0
Tb672 Tb 0.04946 1.00391 0.51907 0.0
C673 C 0.01884 0.08513 0.57472 0.0
N674 N 1.00709 0.07121 0.55459 0.0
C675 C 0.972 0.06773 0.57087 0.0
C676 C 1.00761 0.09062 0.59399 0.0
C677 C 0.98393 0.06262 0.5523 0.0
C678 C 0.98389 0.08173 0.59184 0.0
C679 C 0.05528 0.10732 0.59701 0.0
C680 C 0.04238 0.0932 0.57623 0.0
C681 C 0.0442 0.11285 0.61631 0.0
C682 C 0.02043 0.10452 0.6148 0.0
Tb683 Tb 0.02834 0.06343 0.52583 0.0
N684 N 0.05262 0.08687 0.55746 0.0
C685 C 0.0789 0.11554 0.5977 0.0
C686 C 0.0754 0.09604 0.55754 0.0
C687 C 0.08893 0.11014 0.57774 0.0
H688 H 0.9746 0.05195 0.53605 0.0
H689 H 0.10705 0.11709 0.57776 0.0
H690 H 0.10253 0.01868 0.50669 0.0
H691 H 0.97569 0.93781 0.4749 0.0
H692 H 0.08323 0.09328 0.542 0.0
H693 H 0.08943 0.12646 0.61331 0.0
H694 H 0.99893 0.96602 0.50844 0.0
H695 H 0.95366 0.06082 0.569 0.0
H696 H 0.05385 0.1236 0.63246 0.0
H697 H 0.01213 0.10889 0.62984 0.0
H698 H 0.12272 0.01224 0.47254 0.0
H699 H 0.97462 0.08555 0.60625 0.0
H700 H 0.99173 0.93045 0.43773 0.0
N701 N 0.07045 0.99767 0.48938 0.0
C702 C 0.05914 0.98233 0.47003 0.0
C703 C 0.10474 1.00391 0.47146 0.0
C704 C 0.07003 0.97764 0.45025 0.0
C705 C 0.09315 0.00793 0.49065 0.0
C706 C 0.09307 0.98887 0.45105 0.0
N707 N 0.0266 0.97676 0.48953 0.0
C708 C 1.00556 0.96403 0.49189 0.0
C709 C 0.02419 0.95494 0.45075 0.0
C710 C 0.03647 0.97141 0.47016 0.0
C711 C 1.00178 0.94326 0.45223 0.0
C712 C 0.9926 0.94751 0.4731 0.0
H713 H 0.1021 0.98574 0.43623 0.0
H714 H 0.06566 0.95809 0.41503 0.0
H715 H 0.02554 0.93806 0.41553 0.0
O716 O 0.04156 0.97722 0.54029 0.0
O717 O 0.04085 0.01759 0.48574 0.0
O718 O 0.01446 0.03827 0.49404 0.0
O719 O 0.07491 0.98695 0.52865 0.0
O720 O 0.01645 1.00315 0.53205 0.0
O721 O 1.00155 0.0316 0.51645 0.0
O722 O 0.03868 0.09252 0.50809 0.0
O723 O 0.03364 0.04714 0.55813 0.0
O724 O 0.06252 0.03035 0.55017 0.0
O725 O 1.00363 0.08057 0.51476 0.0
O726 O 0.0596 0.06296 0.51009 0.0
O727 O 0.07528 0.03649 0.52781 0.0
C728 C 0.0259 0.02927 0.47913 0.0
C729 C 0.07043 0.95625 0.55271 0.0
C730 C 0.06479 0.92402 0.57528 0.0
C731 C 0.08788 0.92367 0.57541 0.0
C732 C 0.09352 0.95553 0.55316 0.0
C733 C 0.10213 0.93936 0.56444 0.0
C734 C 0.056 0.9404 0.56395 0.0
C735 C 0.9995 0.01299 0.5267 0.0
C736 C 0.06198 0.97363 0.54043 0.0
C737 C 0.05764 0.96184 0.43047 0.0
C738 C 0.03478 0.95047 0.43075 0.0
C739 C 0.04997 0.03727 0.56524 0.0
C740 C 0.00996 0.11294 0.49331 0.0
C741 C 0.01682 0.14665 0.47295 0.0
C742 C 0.99318 0.14531 0.46964 0.0
C743 C 0.98635 0.112 0.48962 0.0
C744 C 0.02527 0.13027 0.48465 0.0
C745 C 0.97807 0.12804 0.47784 0.0
C746 C 0.07693 0.05376 0.51553 0.0
C747 C 0.01779 0.09511 0.50535 0.0
H748 H 0.09485 0.91113 0.58399 0.0
H749 H 0.10504 0.9675 0.54477 0.0
H750 H 0.11993 0.93895 0.56463 0.0
H751 H 0.03814 0.94065 0.56377 0.0
H752 H 0.98639 0.15769 0.46058 0.0
H753 H 0.97412 0.09872 0.49572 0.0
H754 H 0.0435 0.13117 0.48714 0.0
H755 H 0.95986 0.1271 0.47508 0.0
Tb756 Tb 0.29114 0.81625 0.75732 0.0
C757 C 0.24464 0.73325 0.81249 0.0
N758 N 0.26443 0.74997 0.81822 0.0
C759 C 0.25959 0.75348 0.85948 0.0
C760 C 0.231 0.72669 0.83004 0.0
C761 C 0.2726 0.75932 0.84151 0.0
C762 C 0.23853 0.73734 0.85367 0.0
C763 C 0.21871 0.70361 0.78298 0.0
C764 C 0.23865 0.72166 0.78924 0.0
C765 C 0.20455 0.69781 0.80018 0.0
C766 C 0.21071 0.70926 0.82364 0.0
Tb767 Tb 0.28387 0.75723 0.78709 0.0
N768 N 0.25279 0.72752 0.773 0.0
C769 C 0.21385 0.69158 0.75976 0.0
C770 C 0.24871 0.7151 0.75067 0.0
C771 C 0.22905 0.69721 0.74362 0.0
H772 H 0.28908 0.77156 0.84612 0.0
H773 H 0.22564 0.68776 0.72576 0.0
H774 H 0.29304 0.79708 0.69986 0.0
H775 H 0.34277 0.89149 0.81575 0.0
H776 H 0.26037 0.71927 0.73821 0.0
H777 H 0.19865 0.67766 0.75427 0.0
H778 H 0.30842 0.85988 0.80187 0.0
H779 H 0.26587 0.76134 0.87779 0.0
H780 H 0.18906 0.68411 0.79564 0.0
H781 H 0.19991 0.70414 0.83685 0.0
H782 H 0.32102 0.80254 0.6722 0.0
H783 H 0.22856 0.73273 0.86766 0.0
H784 H 0.37408 0.89818 0.79138 0.0
N785 N 0.31457 0.82063 0.72863 0.0
C786 C 0.33401 0.83781 0.73484 0.0
C787 C 0.32512 0.81228 0.68995 0.0
C788 C 0.3503 0.84213 0.7192 0.0
C789 C 0.30946 0.80871 0.70603 0.0
C790 C 0.34581 0.82878 0.6967 0.0
N791 N 0.32106 0.84727 0.77116 0.0
C792 C 0.32236 0.86197 0.79158 0.0
C793 C 0.35698 0.8699 0.76363 0.0
C794 C 0.33731 0.85161 0.75675 0.0
C795 C 0.3592 0.88399 0.78543 0.0
C796 C 0.34162 0.88021 0.79928 0.0
H797 H 0.35785 0.8316 0.68413 0.0
H798 H 0.38302 0.86332 0.71457 0.0
H799 H 0.38891 0.88757 0.75352 0.0
O800 O 0.27519 0.84311 0.76663 0.0
O801 O 0.3239 0.80637 0.7678 0.0
O802 O 0.31782 0.78279 0.79735 0.0
O803 O 0.2788 0.83231 0.72969 0.0
O804 O 0.2977 0.81744 0.79559 0.0
O805 O 0.27443 0.78563 0.80645 0.0
O806 O 0.29486 0.72669 0.77733 0.0
O807 O 0.25242 0.76027 0.76431 0.0
O808 O 0.25657 0.79954 0.765 0.0
O809 O 0.30382 0.74621 0.81331 0.0
O810 O 0.29868 0.76598 0.75632 0.0
O811 O 0.27793 0.78402 0.73344 0.0
C812 C 0.33167 0.79581 0.78511 0.0
C813 C 0.26073 0.86393 0.7362 0.0
C814 C 0.24397 0.89648 0.74405 0.0
C815 C 0.24146 0.89827 0.71964 0.0
C816 C 0.25795 0.86595 0.7118 0.0
C817 C 0.24833 0.883 0.70362 0.0
C818 C 0.25348 0.87919 0.75237 0.0
C819 C 0.28521 0.80728 0.81025 0.0
C820 C 0.27193 0.84641 0.74446 0.0
C821 C 0.37024 0.8599 0.72627 0.0
C822 C 0.37358 0.87374 0.74844 0.0
C823 C 0.24363 0.77829 0.7624 0.0
C824 C 0.31796 0.71218 0.80814 0.0
C825 C 0.3339 0.67877 0.80261 0.0
C826 C 0.34133 0.68175 0.82729 0.0
C827 C 0.32565 0.71479 0.83281 0.0
C828 C 0.32231 0.69413 0.79291 0.0
C829 C 0.33728 0.6997 0.84225 0.0
C830 C 0.28631 0.76628 0.73632 0.0
C831 C 0.30524 0.72835 0.79912 0.0
H832 H 0.23406 0.91147 0.71299 0.0
H833 H 0.26339 0.85446 0.69898 0.0
H834 H 0.2463 0.88446 0.6848 0.0
H835 H 0.25554 0.87791 0.77126 0.0
H836 H 0.35045 0.67017 0.83498 0.0
H837 H 0.32257 0.72848 0.84498 0.0
H838 H 0.31658 0.69188 0.77385 0.0
H839 H 0.3431 0.70188 0.86125 0.0
Tb840 Tb 0.53898 0.06066 0.99348 0.0
C841 C 0.57859 0.00988 0.07907 0.0
N842 N 0.56047 0.9998 0.06186 0.0
C843 C 0.57509 0.96629 0.056 0.0
C844 C 0.59621 0.99886 0.08492 0.0
C845 C 0.55825 0.97813 0.05056 0.0
C846 C 0.59425 0.97675 0.07315 0.0
C847 C 0.59883 0.04343 0.10714 0.0
C848 C 0.57987 0.03183 0.08981 0.0
C849 C 0.61663 0.03268 0.11298 0.0
C850 C 0.61531 0.01041 0.10191 0.0
Tb851 Tb 0.53505 0.02102 0.05188 0.0
N852 N 0.56257 0.04182 0.08305 0.0
C853 C 0.59927 0.0654 0.1181 0.0
C854 C 0.56221 0.06257 0.09511 0.0
C855 C 0.58068 0.07483 0.11235 0.0
H856 H 0.54365 0.97003 0.03707 0.0
H857 H 0.58041 0.09147 0.1214 0.0
H858 H 0.52687 0.10853 0.01726 0.0
H859 H 0.50621 0.00535 0.90891 0.0
H860 H 0.54765 0.06973 0.09225 0.0
H861 H 0.61356 0.07495 0.13144 0.0
H862 H 0.5334 0.02036 0.94575 0.0
H863 H 0.57341 0.9492 0.04679 0.0
H864 H 0.63144 0.0414 0.12608 0.0
H865 H 0.62915 1.00233 0.10654 0.0
H866 H 0.49797 0.13035 0.00837 0.0
H867 H 0.60743 0.96766 0.0771 0.0
H868 H 0.47482 0.02396 0.89795 0.0
N869 N 0.51424 0.08335 0.98647 0.0
C870 C 0.49931 0.0769 0.96565 0.0
C871 C 0.49802 0.11521 0.99632 0.0
C872 C 0.48249 0.0889 0.95984 0.0
C873 C 0.51422 0.10258 0.00148 0.0
C874 C 0.48194 0.10822 0.97553 0.0
N875 N 0.51645 0.04607 0.95728 0.0
C876 C 0.51931 0.02818 0.942 0.0
C877 C 0.48474 0.04986 0.92928 0.0
C878 C 0.5004 0.05759 0.9506 0.0
C879 C 0.48658 0.03051 0.91444 0.0
C880 C 0.50417 0.01987 0.92065 0.0
H881 H 0.4693 0.11795 0.9717 0.0
H882 H 0.45349 0.08999 0.93406 0.0
H883 H 0.45545 0.05581 0.90733 0.0
O884 O 0.56625 0.06172 0.97407 0.0
O885 O 0.50298 0.04537 0.99481 0.0
O886 O 0.52159 0.03281 0.02175 0.0
O887 O 0.55639 0.09263 0.98611 0.0
O888 O 0.54377 0.02483 0.98705 0.0
O889 O 0.53141 1.0007 0.01581 0.0
O890 O 0.51547 0.01785 0.07938 0.0
O891 O 0.56753 0.02792 0.03992 0.0
O892 O 0.56091 0.05936 0.02622 0.0
O893 O 0.51139 0.98903 0.051 0.0
O894 O 0.52366 0.05382 0.05583 0.0
O895 O 0.54266 0.07809 0.0311 0.0
C896 C 0.50157 0.03266 0.01117 0.0
C897 C 0.56798 0.08912 0.94818 0.0
C898 C 0.57825 0.08187 0.90892 0.0
C899 C 0.56535 0.09665 0.90053 0.0
C900 C 0.55509 0.10406 0.93982 0.0
C901 C 0.55393 0.10786 0.91606 0.0
C902 C 0.57981 0.07842 0.93268 0.0
C903 C 0.53876 1.00459 0.99506 0.0
C904 C 0.56851 0.08338 0.97245 0.0
C905 C 0.46667 0.0811 0.93875 0.0
C906 C 0.46777 0.06162 0.92353 0.0
C907 C 0.57365 0.0447 0.02802 0.0
C908 C 0.48765 0.98345 0.08238 0.0
C909 C 0.46519 0.98448 0.11474 0.0
C910 C 0.46217 0.96058 0.1138 0.0
C911 C 0.48433 0.95969 0.08129 0.0
C912 C 0.47694 0.9954 0.09799 0.0
C913 C 0.47126 0.94825 0.09677 0.0
C914 C 0.53005 0.07425 0.04856 0.0
C915 C 0.50527 0.99667 0.07077 0.0
H916 H 0.56445 0.09976 0.88216 0.0
H917 H 0.54577 0.1126 0.95146 0.0
H918 H 0.54411 0.11942 0.90967 0.0
H919 H 0.58996 0.06702 0.93899 0.0
H920 H 0.45366 0.9515 0.12673 0.0
H921 H 0.49271 0.95022 0.06941 0.0
H922 H 0.47893 0.01363 0.0979 0.0
H923 H 0.46917 0.92998 0.09641 0.0
Tb924 Tb 0.27117 0.24723 0.25451 0.0
C925 C 0.35326 0.32576 0.31511 0.0
N926 N 0.33207 0.31682 0.32042 0.0
C927 C 0.34742 0.32372 0.36217 0.0
C928 C 0.37253 0.33332 0.33318 0.0
C929 C 0.32877 0.31708 0.34371 0.0
C930 C 0.36948 0.33146 0.35684 0.0
C931 C 0.37611 0.34208 0.28638 0.0
C932 C 0.35507 0.33011 0.29202 0.0
C933 C 0.39565 0.3483 0.30395 0.0
C934 C 0.39386 0.34392 0.3273 0.0
Tb935 Tb 0.30272 0.30797 0.28892 0.0
N936 N 0.33567 0.32467 0.27568 0.0
C937 C 0.37657 0.34872 0.26371 0.0
C938 C 0.33565 0.33325 0.25454 0.0
C939 C 0.35614 0.34467 0.24788 0.0
H940 H 0.31155 0.31268 0.34803 0.0
H941 H 0.35605 0.35081 0.23081 0.0
H942 H 0.25546 0.25921 0.20004 0.0
H943 H 0.21881 0.21606 0.32052 0.0
H944 H 0.31986 0.33134 0.24287 0.0
H945 H 0.39237 0.35803 0.25873 0.0
H946 H 0.253 0.23813 0.30784 0.0
H947 H 0.3447 0.32343 0.38052 0.0
H948 H 0.41198 0.35742 0.29993 0.0
H949 H 0.40886 0.34976 0.34092 0.0
H950 H 0.22076 0.24959 0.17038 0.0
H951 H 0.38384 0.33715 0.37122 0.0
H952 H 0.18392 0.19903 0.29105 0.0
N953 N 0.23926 0.24389 0.22715 0.0
C954 C 0.21969 0.23061 0.23233 0.0
C955 C 0.22009 0.24442 0.18787 0.0
C956 C 0.19941 0.22401 0.21551 0.0
C957 C 0.23976 0.25046 0.20508 0.0
C958 C 0.19981 0.23111 0.19308 0.0
N959 N 0.23938 0.23197 0.27099 0.0
C960 C 0.23879 0.22989 0.29447 0.0
C961 C 0.19936 0.21186 0.26148 0.0
C962 C 0.21981 0.2242 0.25489 0.0
C963 C 0.19931 0.20823 0.28521 0.0
C964 C 0.21897 0.21777 0.30187 0.0
H965 H 0.18464 0.2263 0.17964 0.0
H966 H 0.16373 0.20525 0.20885 0.0
H967 H 0.16358 0.19492 0.24925 0.0
O968 O 0.26385 0.21134 0.24923 0.0
O969 O 0.24962 0.27144 0.26411 0.0
O970 O 0.26945 0.29237 0.29958 0.0
O971 O 0.27589 0.23062 0.2219 0.0
O972 O 0.28826 0.24464 0.28995 0.0
O973 O 0.29687 0.28121 0.31248 0.0
O974 O 0.2866 0.33333 0.27863 0.0
O975 O 0.32339 0.29111 0.26653 0.0
O976 O 0.30908 0.25237 0.26564 0.0
O977 O 0.30983 0.33918 0.31169 0.0
O978 O 0.28222 0.30501 0.25371 0.0
O979 O 0.28715 0.27233 0.23351 0.0
C980 C 0.24996 0.28413 0.28477 0.0
C981 C 0.28596 0.19582 0.22341 0.0
C982 C 0.30931 0.17067 0.23653 0.0
C983 C 0.31475 0.16692 0.2134 0.0
C984 C 0.29124 0.19185 0.20027 0.0
C985 C 0.30576 0.17758 0.19537 0.0
C986 C 0.29526 0.1854 0.2415 0.0
C987 C 0.29484 0.25872 0.3104 0.0
C988 C 0.27041 0.21045 0.2283 0.0
C989 C 0.1794 0.21063 0.22161 0.0
C990 C 0.17936 0.2046 0.24455 0.0
C991 C 0.32617 0.27008 0.2643 0.0
C992 C 0.28418 0.36296 0.30826 0.0
C993 C 0.26655 0.3939 0.30171 0.0
C994 C 0.26804 0.40012 0.32637 0.0
C995 C 0.28575 0.3689 0.33309 0.0
C996 C 0.27424 0.37529 0.29279 0.0
C997 C 0.2775 0.38745 0.34206 0.0
C998 C 0.28455 0.29317 0.23387 0.0
C999 C 0.29674 0.34768 0.29766 0.0
H1000 H 0.32541 0.15532 0.20915 0.0
H1001 H 0.28408 0.19975 0.18603 0.0
H1002 H 0.30976 0.17449 0.1775 0.0
H1003 H 0.2914 0.18848 0.25947 0.0
H1004 H 0.26246 0.41501 0.33336 0.0
H1005 H 0.29404 0.35989 0.34543 0.0
H1006 H 0.27369 0.37126 0.27365 0.0
H1007 H 0.2791 0.39243 0.36113 0.0
Tb1008 Tb 0.54271 0.50326 0.02275 0.0
C1009 C 0.52239 0.58317 0.08089 0.0
N1010 N 0.51044 0.5714 0.05966 0.0
C1011 C 0.47525 0.56809 0.07592 0.0
C1012 C 0.5113 0.58684 0.10079 0.0
C1013 C 0.48697 0.56526 0.05659 0.0
C1014 C 0.4875 0.57853 0.09824 0.0
C1015 C 0.55849 0.60622 0.10344 0.0
C1016 C 0.54565 0.59286 0.08227 0.0
C1017 C 0.5477 0.60907 0.12361 0.0
C1018 C 0.52417 0.59937 0.1223 0.0
Tb1019 Tb 0.53227 0.56729 0.03 0.0
N1020 N 0.5557 0.58916 0.06264 0.0
C1021 C 0.58167 0.61658 0.10351 0.0
C1022 C 0.57789 0.60032 0.06207 0.0
C1023 C 0.59131 0.6139 0.08263 0.0
H1024 H 0.47696 0.55863 0.03922 0.0
H1025 H 0.60906 0.62227 0.08236 0.0
H1026 H 0.59814 0.51073 0.01683 0.0
H1027 H 0.4657 0.44822 0.96963 0.0
H1028 H 0.58525 0.59831 0.04587 0.0
H1029 H 0.59212 0.62703 0.11943 0.0
H1030 H 0.48825 0.47363 0.00537 0.0
H1031 H 0.45672 0.56262 0.07346 0.0
H1032 H 0.5573 0.61909 0.14016 0.0
H1033 H 0.51597 0.60217 0.13784 0.0
H1034 H 0.62022 0.50086 0.98557 0.0
H1035 H 0.47832 0.58098 0.1131 0.0
H1036 H 0.48496 0.43697 0.93597 0.0
N1037 N 0.56561 0.49398 0.99622 0.0
C1038 C 0.55449 0.47957 0.97613 0.0
C1039 C 0.60171 0.49498 0.98255 0.0
C1040 C 0.56654 0.47306 0.95795 0.0
C1041 C 0.58902 0.50092 0.0001 0.0
C1042 C 0.59041 0.48124 0.96124 0.0
N1043 N 0.51983 0.47817 0.99166 0.0
C1044 C 0.49681 0.46959 0.9906 0.0
C1045 C 0.5187 0.45646 0.95317 0.0
C1046 C 0.53087 0.47132 0.97381 0.0
C1047 C 0.49494 0.44839 0.95156 0.0
C1048 C 0.484 0.4548 0.97047 0.0
H1049 H 0.60029 0.47665 0.94768 0.0
H1050 H 0.56338 0.45345 0.92296 0.0
H1051 H 0.52151 0.43895 0.91875 0.0
O1052 O 0.53411 0.46988 0.0317 0.0
O1053 O 0.53705 0.51846 0.98946 0.0
O1054 O 0.51468 0.54407 0.9975 0.0
O1055 O 0.56657 0.49347 0.04679 0.0
O1056 O 0.5101 0.50668 0.03381 0.0
O1057 O 0.50084 0.53913 0.02068 0.0
O1058 O 0.54566 0.59243 0.00929 0.0
O1059 O 0.55393 0.55614 0.05794 0.0
O1060 O 0.53384 0.5196 0.05512 0.0
O1061 O 0.51726 0.59511 0.02747 0.0
O1062 O 0.56028 0.56067 0.01191 0.0
O1063 O 0.57275 0.53263 0.03026 0.0
C1064 C 0.52304 0.53115 0.9824 0.0
C1065 C 0.56346 0.45377 0.04894 0.0
C1066 C 0.56475 0.41985 0.06791 0.0
C1067 C 0.58483 0.41855 0.0585 0.0
C1068 C 0.58343 0.45216 0.03948 0.0
C1069 C 0.59401 0.43454 0.04423 0.0
C1070 C 0.55404 0.43743 0.06296 0.0
C1071 C 0.49535 0.51884 0.02781 0.0
C1072 C 0.55309 0.47326 0.04646 0.0
C1073 C 0.55444 0.4585 0.9372 0.0
C1074 C 0.53059 0.45021 0.93483 0.0
C1075 C 0.54757 0.5378 0.06789 0.0
C1076 C 0.51945 0.6119 0.99225 0.0
C1077 C 0.5213 0.63889 0.96352 0.0
C1078 C 0.49828 0.62863 0.95396 0.0
C1079 C 0.49639 0.60197 0.98256 0.0
C1080 C 0.5318 0.63053 0.98279 0.0
C1081 C 0.48588 0.61044 0.96361 0.0
C1082 C 0.57648 0.55067 0.01905 0.0
C1083 C 0.53051 0.60403 0.01304 0.0
H1084 H 0.59341 0.40518 0.06223 0.0
H1085 H 0.59104 0.46466 0.02883 0.0
H1086 H 0.60953 0.43344 0.03708 0.0
H1087 H 0.53874 0.43876 0.07057 0.0
H1088 H 0.48973 0.63508 0.93938 0.0
H1089 H 0.48645 0.58783 0.98977 0.0
H1090 H 0.54948 0.63857 0.99048 0.0
H1091 H 0.46801 0.60297 0.95644 0.0
Tb1092 Tb 0.79045 0.31352 0.26135 0.0
C1093 C 0.73943 0.23213 0.30725 0.0
N1094 N 0.75942 0.24787 0.31615 0.0
C1095 C 0.74844 0.2507 0.35506 0.0
C1096 C 0.72288 0.22534 0.32201 0.0
C1097 C 0.7643 0.25703 0.3397 0.0
C1098 C 0.72764 0.23479 0.34619 0.0
C1099 C 0.71442 0.20759 0.2731 0.0
C1100 C 0.73535 0.22323 0.28303 0.0
C1101 C 0.69791 0.2007 0.2878 0.0
C1102 C 0.70217 0.20946 0.31218 0.0
Tb1103 Tb 0.78452 0.25415 0.28996 0.0
N1104 N 0.75168 0.23032 0.26921 0.0
C1105 C 0.7107 0.19937 0.24866 0.0
C1106 C 0.74839 0.2219 0.24551 0.0
C1107 C 0.72776 0.20653 0.23484 0.0
H1108 H 0.78062 0.26876 0.34682 0.0
H1109 H 0.72513 0.2 0.216 0.0
H1110 H 0.78829 0.2974 0.20298 0.0
H1111 H 0.84662 0.385 0.32038 0.0
H1112 H 0.76161 0.22652 0.23475 0.0
H1113 H 0.6948 0.18738 0.24032 0.0
H1114 H 0.81114 0.35419 0.30679 0.0
H1115 H 0.75235 0.25792 0.37375 0.0
H1116 H 0.68176 0.1886 0.28049 0.0
H1117 H 0.68926 0.20396 0.32326 0.0
H1118 H 0.81492 0.30198 0.17347 0.0
H1119 H 0.71541 0.2299 0.35815 0.0
H1120 H 0.87702 0.39122 0.29476 0.0
N1121 N 0.81293 0.31731 0.23181 0.0
C1122 C 0.8334 0.33304 0.23784 0.0
C1123 C 0.82054 0.31047 0.19166 0.0
C1124 C 0.84881 0.33721 0.22134 0.0
C1125 C 0.80571 0.30735 0.2086 0.0
C1126 C 0.84241 0.32511 0.19819 0.0
N1127 N 0.82248 0.34204 0.27522 0.0
C1128 C 0.82476 0.35634 0.29607 0.0
C1129 C 0.85837 0.36381 0.26673 0.0
C1130 C 0.83812 0.34625 0.26012 0.0
C1131 C 0.86167 0.37753 0.28897 0.0
C1132 C 0.84461 0.374 0.30354 0.0
H1133 H 0.85374 0.32779 0.18494 0.0
H1134 H 0.88176 0.35726 0.21581 0.0
H1135 H 0.89018 0.38048 0.25565 0.0
O1136 O 0.77248 0.33906 0.27164 0.0
O1137 O 0.82334 0.30868 0.27986 0.0
O1138 O 0.81934 0.26987 0.28278 0.0
O1139 O 0.78068 0.33235 0.23578 0.0
O1140 O 0.78234 0.31083 0.29726 0.0
O1141 O 0.80034 0.28526 0.31414 0.0
O1142 O 0.78936 0.22048 0.28432 0.0
O1143 O 0.75475 0.27057 0.28593 0.0
O1144 O 0.75757 0.28711 0.25175 0.0
O1145 O 0.80073 0.24228 0.31901 0.0
O1146 O 0.79662 0.25467 0.25619 0.0
O1147 O 0.77957 0.28028 0.23933 0.0
C1148 C 0.83206 0.29076 0.2826 0.0
C1149 C 0.76194 0.36283 0.24143 0.0
C1150 C 0.74261 0.3937 0.24688 0.0
C1151 C 0.74414 0.39735 0.22324 0.0
C1152 C 0.76338 0.36689 0.21778 0.0
C1153 C 0.75455 0.38405 0.20882 0.0
C1154 C 0.75168 0.37652 0.25612 0.0
C1155 C 0.7951 0.30509 0.31473 0.0
C1156 C 0.77191 0.34475 0.25024 0.0
C1157 C 0.86959 0.35397 0.22817 0.0
C1158 C 0.87435 0.36726 0.25082 0.0
C1159 C 0.74502 0.27737 0.26687 0.0
C1160 C 0.80811 0.20443 0.31618 0.0
C1161 C 0.83033 0.17543 0.31418 0.0
C1162 C 0.82634 0.1717 0.33736 0.0
C1163 C 0.80472 0.20061 0.33936 0.0
C1164 C 0.82072 0.19163 0.30341 0.0
C1165 C 0.81363 0.18417 0.34978 0.0
C1166 C 0.79264 0.2659 0.23861 0.0
C1167 C 0.79952 0.22272 0.3062 0.0
H1168 H 0.73729 0.41062 0.21597 0.0
H1169 H 0.77143 0.35685 0.20609 0.0
H1170 H 0.75577 0.38702 0.19063 0.0
H1171 H 0.75053 0.37372 0.27439 0.0
H1172 H 0.83299 0.15896 0.34591 0.0
H1173 H 0.79512 0.21036 0.34941 0.0
H1174 H 0.82374 0.19487 0.28564 0.0
H1175 H 0.81079 0.18118 0.36762 0.0
Tb1176 Tb 0.0348 0.5608 0.4893 0.0
C1177 C 0.07448 0.50955 0.57821 0.0
N1178 N 0.05671 0.49941 0.56073 0.0
C1179 C 0.07055 0.46523 0.55716 0.0
C1180 C 0.09159 0.49829 0.58535 0.0
C1181 C 0.05417 0.4773 0.55063 0.0
C1182 C 0.08957 0.4759 0.57436 0.0
C1183 C 0.09271 0.54214 0.6082 0.0
C1184 C 0.07497 0.53103 0.58933 0.0
C1185 C 0.11046 0.53156 0.61477 0.0
C1186 C 0.10987 0.50961 0.60339 0.0
Tb1187 Tb 0.03276 0.5213 0.54804 0.0
N1188 N 0.05743 0.54051 0.58229 0.0
C1189 C 0.09172 0.56321 0.62027 0.0
C1190 C 0.05549 0.56012 0.59554 0.0
C1191 C 0.07274 0.57197 0.61425 0.0
H1192 H 0.03925 0.46875 0.53791 0.0
H1193 H 0.07121 0.58773 0.62422 0.0
H1194 H 0.02947 0.61304 0.50855 0.0
H1195 H 0.98666 0.49651 0.41528 0.0
H1196 H 0.0406 0.5667 0.59253 0.0
H1197 H 0.105 0.57235 0.63483 0.0
H1198 H 0.01548 0.51138 0.45051 0.0
H1199 H 0.06845 0.44771 0.54895 0.0
H1200 H 0.12439 0.53995 0.62901 0.0
H1201 H 0.12337 0.50139 0.60896 0.0
H1202 H 1.00482 0.63844 0.49734 0.0
H1203 H 0.10228 0.46658 0.57937 0.0
H1204 H 0.96165 0.52049 0.40025 0.0
N1205 N 0.01297 0.5859 0.48051 0.0
C1206 C 0.99695 0.57913 0.46057 0.0
C1207 C 1.00227 0.6217 0.48696 0.0
C1208 C 0.98259 0.59325 0.45333 0.0
C1209 C 0.01599 0.60705 0.49352 0.0
C1210 C 0.98542 0.61475 0.46684 0.0
N1211 N 0.00806 0.54422 0.45597 0.0
C1212 C 1.00539 0.5225 0.44431 0.0
C1213 C 0.9774 0.54958 0.42755 0.0
C1214 C 0.99456 0.55769 0.44769 0.0
C1215 C 0.97469 0.52739 0.41572 0.0
C1216 C 0.98875 0.5138 0.42417 0.0
H1217 H 0.97475 0.62612 0.46185 0.0
H1218 H 0.95455 0.59603 0.42725 0.0
H1219 H 0.94988 0.55768 0.40478 0.0
O1220 O 0.05947 0.55936 0.46683 0.0
O1221 O 0.99956 0.54321 0.49036 0.0
O1222 O 0.02046 0.53381 0.51819 0.0
O1223 O 0.05438 0.59176 0.48194 0.0
O1224 O 0.04367 0.52674 0.48386 0.0
O1225 O 0.03264 0.50181 0.51223 0.0
O1226 O 1.00634 0.51923 0.56844 0.0
O1227 O 0.06606 0.53179 0.53793 0.0
O1228 O 0.05739 0.56198 0.52261 0.0
O1229 O 0.0094 0.48923 0.54616 0.0
O1230 O 0.02323 0.55485 0.55365 0.0
O1231 O 0.03512 0.57951 0.52562 0.0
C1232 C 1.00004 0.53144 0.50743 0.0
C1233 C 0.06543 0.58917 0.44386 0.0
C1234 C 0.08216 0.58864 0.4076 0.0
C1235 C 0.0687 0.60292 0.39903 0.0
C1236 C 0.05164 0.6032 0.43523 0.0
C1237 C 0.0534 0.61011 0.41285 0.0
C1238 C 0.08061 0.58204 0.43001 0.0
C1239 C 0.04028 0.50637 0.49173 0.0
C1240 C 0.06462 0.58145 0.46708 0.0
C1241 C 0.96577 0.58543 0.43303 0.0
C1242 C 0.96315 0.56362 0.4202 0.0
C1243 C 0.07127 0.54855 0.52557 0.0
C1244 C 0.99524 0.48484 0.58271 0.0
C1245 C 0.97916 0.48357 0.61929 0.0
C1246 C 0.99202 0.46819 0.62619 0.0
C1247 C 0.00816 0.46939 0.58946 0.0
C1248 C 0.98038 0.49137 0.59744 0.0
C1249 C 1.00632 0.46093 0.6111 0.0
C1250 C 0.02713 0.57522 0.54592 0.0
C1251 C 0.99892 0.49718 0.5625 0.0
H1252 H 0.06964 0.608 0.38152 0.0
H1253 H 0.03961 0.60881 0.44565 0.0
H1254 H 0.04279 0.62088 0.40615 0.0
H1255 H 0.09118 0.5711 0.43663 0.0
H1256 H 0.99155 0.46248 0.64346 0.0
H1257 H 0.02002 0.46436 0.57847 0.0
H1258 H 0.97088 0.50383 0.59262 0.0
H1259 H 0.01656 0.44936 0.61655 0.0
Tb1260 Tb 0.81753 0.77357 0.27684 0.0
C1261 C 0.73879 0.80977 0.22399 0.0
N1262 N 0.75347 0.81944 0.2444 0.0
C1263 C 0.76199 0.85531 0.22932 0.0
C1264 C 0.73565 0.82229 0.20506 0.0
C1265 C 0.7644 0.84216 0.24765 0.0
C1266 C 0.74776 0.84527 0.20781 0.0
C1267 C 0.71067 0.77658 0.20197 0.0
C1268 C 0.72675 0.78719 0.22232 0.0
C1269 C 0.70787 0.78872 0.1827 0.0
C1270 C 0.72039 0.81151 0.18422 0.0
Tb1271 Tb 0.75806 0.79547 0.27188 0.0
N1272 N 0.73046 0.77588 0.24107 0.0
C1273 C 0.69749 0.75437 0.20198 0.0
C1274 C 0.7161 0.75533 0.24219 0.0
C1275 C 0.6998 0.74394 0.22246 0.0
H1276 H 0.77474 0.85029 0.26448 0.0
H1277 H 0.68877 0.72735 0.22322 0.0
H1278 H 0.81086 0.71897 0.28351 0.0
H1279 H 0.87025 0.85164 0.33058 0.0
H1280 H 0.71665 0.7481 0.25856 0.0
H1281 H 0.68482 0.74559 0.18675 0.0
H1282 H 0.84625 0.82849 0.29458 0.0
H1283 H 0.77099 0.87323 0.23187 0.0
H1284 H 0.69577 0.78079 0.16675 0.0
H1285 H 0.71785 0.82078 0.16937 0.0
H1286 H 0.82327 0.69681 0.31408 0.0
H1287 H 0.74589 0.85552 0.19367 0.0
H1288 H 0.88211 0.83281 0.36458 0.0
N1289 N 0.82879 0.75133 0.30336 0.0
C1290 C 0.84281 0.76262 0.32362 0.0
C1291 C 0.82888 0.71532 0.31701 0.0
C1292 C 0.85026 0.75067 0.34159 0.0
C1293 C 0.82182 0.72796 0.29975 0.0
C1294 C 0.84311 0.72672 0.33805 0.0
N1295 N 0.84173 0.79707 0.30859 0.0
C1296 C 0.84991 0.82013 0.30955 0.0
C1297 C 0.86401 0.79874 0.34714 0.0
C1298 C 0.8495 0.78629 0.32636 0.0
C1299 C 0.87098 0.8226 0.34891 0.0
C1300 C 0.86419 0.83329 0.32984 0.0
H1301 H 0.84848 0.71689 0.35142 0.0
H1302 H 0.87033 0.75412 0.37655 0.0
H1303 H 0.88237 0.79625 0.38141 0.0
O1304 O 0.84593 0.78583 0.25966 0.0
O1305 O 0.80279 0.77836 0.31013 0.0
O1306 O 0.78539 0.8069 0.30242 0.0
O1307 O 0.83284 0.74976 0.25983 0.0
O1308 O 0.81587 0.805 0.26122 0.0
O1309 O 0.79111 0.82042 0.2815 0.0
O1310 O 0.73273 0.78637 0.29443 0.0
O1311 O 0.77091 0.78653 0.23827 0.0
O1312 O 0.79043 0.75938 0.24667 0.0
O1313 O 0.74038 0.81983 0.28248 0.0
O1314 O 0.75559 0.76077 0.28156 0.0
O1315 O 0.78652 0.74569 0.27206 0.0
C1316 C 0.79174 0.79366 0.31711 0.0
C1317 C 0.87184 0.76192 0.25559 0.0
C1318 C 0.9069 0.7629 0.2383 0.0
C1319 C 0.91421 0.75052 0.25581 0.0
C1320 C 0.87964 0.74992 0.27322 0.0
C1321 C 0.90074 0.74428 0.27328 0.0
C1322 C 0.88573 0.76875 0.23836 0.0
C1323 C 0.80738 0.82242 0.26806 0.0
C1324 C 0.84843 0.76532 0.25326 0.0
C1325 C 0.86448 0.76298 0.36248 0.0
C1326 C 0.8713 0.78697 0.36527 0.0
C1327 C 0.78175 0.77094 0.23162 0.0
C1328 C 0.71137 0.81438 0.30834 0.0
C1329 C 0.67917 0.80782 0.33084 0.0
C1330 C 0.6803 0.83139 0.33362 0.0
C1331 C 0.71202 0.83791 0.31147 0.0
C1332 C 0.69481 0.79921 0.31818 0.0
C1333 C 0.69662 0.84629 0.32402 0.0
C1334 C 0.76631 0.74403 0.27921 0.0
C1335 C 0.72827 0.80648 0.29492 0.0
H1336 H 0.93044 0.7458 0.25602 0.0
H1337 H 0.86924 0.74441 0.28658 0.0
H1338 H 0.90653 0.73477 0.28672 0.0
H1339 H 0.87973 0.77785 0.22456 0.0
H1340 H 0.66838 0.83826 0.34322 0.0
H1341 H 0.72456 0.84998 0.30427 0.0
H1342 H 0.69399 0.78101 0.31593 0.0
H1343 H 0.69731 0.86444 0.32627 0.0
Tb1344 Tb 0.76438 0.28338 0.81001 0.0
C1345 C 0.82334 0.24805 0.7227 0.0
N1346 N 0.82969 0.26389 0.7427 0.0
C1347 C 0.86656 0.25523 0.74875 0.0
C1348 C 0.83836 0.235 0.71504 0.0
C1349 C 0.85106 0.26773 0.75566 0.0
C1350 C 0.86019 0.23879 0.72835 0.0
C1351 C 0.79379 0.22741 0.69006 0.0
C1352 C 0.80143 0.24444 0.71027 0.0
C1353 C 0.80883 0.21467 0.68208 0.0
C1354 C 0.83107 0.21847 0.69454 0.0
Tb1355 Tb 0.80352 0.28426 0.75147 0.0
N1356 N 0.78709 0.25647 0.71913 0.0
C1357 C 0.77107 0.22318 0.6789 0.0
C1358 C 0.76463 0.25174 0.70867 0.0
C1359 C 0.75639 0.23527 0.68839 0.0
H1360 H 0.85659 0.28096 0.77092 0.0
H1361 H 0.73857 0.23165 0.68034 0.0
H1362 H 0.71176 0.28966 0.79866 0.0
H1363 H 0.83251 0.32443 0.88447 0.0
H1364 H 0.75259 0.25968 0.71632 0.0
H1365 H 0.76454 0.2102 0.66337 0.0
H1366 H 0.81215 0.29355 0.85322 0.0
H1367 H 0.88348 0.25844 0.75905 0.0
H1368 H 0.80329 0.20156 0.66655 0.0
H1369 H 0.84239 0.2083 0.68836 0.0
H1370 H 0.69004 0.31791 0.81025 0.0
H1371 H 0.87224 0.22912 0.72305 0.0
H1372 H 0.8154 0.35665 0.89596 0.0
N1373 N 0.74213 0.30689 0.82236 0.0
C1374 C 0.75198 0.32437 0.84018 0.0
C1375 C 0.70755 0.3201 0.81868 0.0
C1376 C 0.74025 0.34095 0.84754 0.0
C1377 C 0.72003 0.30428 0.8119 0.0
C1378 C 0.7178 0.3387 0.83641 0.0
N1379 N 0.78403 0.30856 0.84379 0.0
C1380 C 0.8045 0.30768 0.85646 0.0
C1381 C 0.78472 0.34324 0.86998 0.0
C1382 C 0.7738 0.32539 0.85117 0.0
C1383 C 0.8064 0.34322 0.88151 0.0
C1384 C 0.81612 0.32513 0.875 0.0
H1385 H 0.70815 0.35101 0.8416 0.0
H1386 H 0.7426 0.37212 0.87154 0.0
H1387 H 0.78167 0.37419 0.89118 0.0
O1388 O 0.76255 0.25706 0.83058 0.0
O1389 O 0.77503 0.31717 0.80048 0.0
O1390 O 0.80278 0.30501 0.78491 0.0
O1391 O 0.73207 0.26086 0.80953 0.0
O1392 O 0.79812 0.27392 0.8162 0.0
O1393 O 0.82251 0.28468 0.78773 0.0
O1394 O 0.80135 0.30836 0.72808 0.0
O1395 O 0.78728 0.24872 0.75393 0.0
O1396 O 0.77472 0.26892 0.77954 0.0
O1397 O 0.83405 0.30541 0.74515 0.0
O1398 O 0.7694 0.29269 0.74489 0.0
O1399 O 0.7449 0.2839 0.77407 0.0
C1400 C 0.79134 0.32065 0.78751 0.0
C1401 C 0.72938 0.24805 0.84696 0.0
C1402 C 0.73227 0.23459 0.88501 0.0
C1403 C 0.71974 0.24977 0.89367 0.0
C1404 C 0.71654 0.26312 0.85532 0.0
C1405 C 0.71143 0.26366 0.87859 0.0
C1406 C 0.73618 0.23314 0.86151 0.0
C1407 C 0.8183 0.27679 0.80813 0.0
C1408 C 0.74034 0.25038 0.82577 0.0
C1409 C 0.75124 0.35908 0.86578 0.0
C1410 C 0.77348 0.36027 0.87693 0.0
C1411 C 0.7744 0.24847 0.77016 0.0
C1412 C 0.83226 0.31556 0.70661 0.0
C1413 C 0.83447 0.33273 0.67046 0.0
C1414 C 0.84848 0.31852 0.663 0.0
C1415 C 0.84624 0.30134 0.69906 0.0
C1416 C 0.82649 0.33121 0.69229 0.0
C1417 C 0.8543 0.30287 0.67729 0.0
C1418 C 0.74927 0.29037 0.75299 0.0
C1419 C 0.82352 0.31468 0.7293 0.0
H1420 H 0.71672 0.25107 0.91203 0.0
H1421 H 0.71121 0.27494 0.84438 0.0
H1422 H 0.70187 0.27549 0.88522 0.0
H1423 H 0.74665 0.22195 0.85525 0.0
H1424 H 0.85454 0.31923 0.64595 0.0
H1425 H 0.85103 0.28916 0.7099 0.0
H1426 H 0.81577 0.34224 0.69817 0.0
H1427 H 0.86496 0.29184 0.67144 0.0
Tb1428 Tb 0.77122 0.75123 0.7566 0.0
C1429 C 0.85653 0.82544 0.81571 0.0
N1430 N 0.8352 0.8183 0.82144 0.0
C1431 C 0.85107 0.82455 0.86302 0.0
C1432 C 0.87605 0.83232 0.8335 0.0
C1433 C 0.83224 0.81812 0.84479 0.0
C1434 C 0.8731 0.8316 0.85736 0.0
C1435 C 0.8805 0.83463 0.78538 0.0
C1436 C 0.85871 0.82672 0.79197 0.0
C1437 C 0.9 0.84127 0.80301 0.0
C1438 C 0.89777 0.84019 0.82701 0.0
Tb1439 Tb 0.80567 0.81049 0.79025 0.0
N1440 N 0.83943 0.82043 0.77539 0.0
C1441 C 0.88202 0.83598 0.76132 0.0
C1442 C 0.84081 0.82267 0.75205 0.0
C1443 C 0.86205 0.83005 0.7446 0.0
H1444 H 0.81529 0.81492 0.84943 0.0
H1445 H 0.86298 0.83136 0.72598 0.0
H1446 H 0.76452 0.74228 0.69737 0.0
H1447 H 0.71109 0.72766 0.8173 0.0
H1448 H 0.82575 0.81865 0.73901 0.0
H1449 H 0.89845 0.84189 0.75552 0.0
H1450 H 0.74917 0.74052 0.80596 0.0
H1451 H 0.8485 0.8247 0.88147 0.0
H1452 H 0.91686 0.84752 0.79829 0.0
H1453 H 0.91294 0.84568 0.84044 0.0
H1454 H 0.73247 0.73299 0.66375 0.0
H1455 H 0.88764 0.83694 0.87156 0.0
H1456 H 0.67651 0.71876 0.78665 0.0
N1457 N 0.74303 0.74209 0.72402 0.0
C1458 C 0.72121 0.73588 0.7288 0.0
C1459 C 0.72903 0.73425 0.68195 0.0
C1460 C 0.70236 0.72897 0.71023 0.0
C1461 C 0.74716 0.74049 0.70094 0.0
C1462 C 0.70649 0.72872 0.68661 0.0
N1463 N 0.73666 0.74076 0.76963 0.0
C1464 C 0.73442 0.73739 0.79255 0.0
C1465 C 0.69574 0.72689 0.75788 0.0
C1466 C 0.71794 0.73481 0.75231 0.0
C1467 C 0.69327 0.72481 0.78164 0.0
C1468 C 0.71274 0.72982 0.79899 0.0
H1469 H 0.69247 0.72341 0.67186 0.0
H1470 H 0.66545 0.71629 0.70174 0.0
H1471 H 0.65964 0.7145 0.74345 0.0
O1472 O 0.78149 0.72385 0.77039 0.0
O1473 O 0.75022 0.77585 0.76679 0.0
O1474 O 0.77103 0.79961 0.80052 0.0
O1475 O 0.7631 0.71947 0.73475 0.0
O1476 O 0.78949 0.75275 0.79304 0.0
O1477 O 0.79107 0.78778 0.81435 0.0
O1478 O 0.79878 0.8397 0.7774 0.0
O1479 O 0.8257 0.78478 0.78119 0.0
O1480 O 0.8058 0.76292 0.74618 0.0
O1481 O 0.8127 0.84093 0.81424 0.0
O1482 O 0.78586 0.809 0.75459 0.0
O1483 O 0.78474 0.77449 0.73245 0.0
C1484 C 0.75132 0.79019 0.78645 0.0
C1485 C 0.7906 0.69865 0.74106 0.0
C1486 C 0.81029 0.66866 0.74518 0.0
C1487 C 0.82053 0.67347 0.72495 0.0
C1488 C 0.80073 0.70368 0.7208 0.0
C1489 C 0.81574 0.69104 0.71281 0.0
C1490 C 0.79567 0.68153 0.75323 0.0
C1491 C 0.79055 0.76589 0.81339 0.0
C1492 C 0.77432 0.71043 0.75007 0.0
C1493 C 0.68014 0.72168 0.71576 0.0
C1494 C 0.67684 0.72064 0.73952 0.0
C1495 C 0.8253 0.77162 0.76091 0.0
C1496 C 0.7854 0.86179 0.80611 0.0
C1497 C 0.76237 0.88874 0.79949 0.0
C1498 C 0.75065 0.88238 0.81834 0.0
C1499 C 0.77336 0.85487 0.82467 0.0
C1500 C 0.7797 0.87851 0.79353 0.0
C1501 C 0.75607 0.86528 0.83079 0.0
C1502 C 0.78419 0.79618 0.73389 0.0
C1503 C 0.8034 0.85142 0.79877 0.0
H1504 H 0.83192 0.66354 0.71846 0.0
H1505 H 0.79701 0.71716 0.7112 0.0
H1506 H 0.82351 0.69474 0.69716 0.0
H1507 H 0.7881 0.67821 0.76917 0.0
H1508 H 0.73724 0.8904 0.82315 0.0
H1509 H 0.77727 0.84153 0.83438 0.0
H1510 H 0.78887 0.88369 0.77908 0.0
H1511 H 0.74687 0.86008 0.84514 0.0
Tb1512 Tb 0.57088 0.54977 0.54499 0.0
C1513 C 0.49658 0.46911 0.48369 0.0
N1514 N 0.50798 0.49009 0.47962 0.0
C1515 C 0.51041 0.47392 0.43983 0.0
C1516 C 0.49224 0.44959 0.46619 0.0
C1517 C 0.51392 0.49284 0.45757 0.0
C1518 C 0.49977 0.45215 0.44424 0.0
C1519 C 0.47483 0.44636 0.50941 0.0
C1520 C 0.48788 0.46745 0.50493 0.0
C1521 C 0.47112 0.42676 0.49236 0.0
C1522 C 0.4798 0.42837 0.4708 0.0
Tb1523 Tb 0.51046 0.51971 0.50948 0.0
N1524 N 0.49194 0.4867 0.52112 0.0
C1525 C 0.46572 0.44572 0.5308 0.0
C1526 C 0.48198 0.48645 0.54133 0.0
C1527 C 0.46921 0.46591 0.54677 0.0
H1528 H 0.52034 0.50962 0.453 0.0
H1529 H 0.46173 0.46575 0.56304 0.0
H1530 H 0.5582 0.5667 0.59783 0.0
H1531 H 0.61462 0.59667 0.48145 0.0
H1532 H 0.48345 0.50214 0.55302 0.0
H1533 H 0.45566 0.42985 0.53495 0.0
H1534 H 0.59813 0.5622 0.49788 0.0
H1535 H 0.51535 0.47625 0.42251 0.0
H1536 H 0.46125 0.41036 0.49552 0.0
H1537 H 0.47636 0.41319 0.45757 0.0
H1538 H 0.56296 0.60309 0.62411 0.0
H1539 H 0.49668 0.43761 0.43028 0.0
H1540 H 0.61773 0.63494 0.50385 0.0
N1541 N 0.5715 0.58244 0.56935 0.0
C1542 C 0.58246 0.60225 0.56239 0.0
C1543 C 0.56815 0.60315 0.60663 0.0
C1544 C 0.58586 0.62348 0.57704 0.0
C1545 C 0.565 0.58253 0.59143 0.0
C1546 C 0.57849 0.62374 0.59936 0.0
N1547 N 0.58772 0.58013 0.52731 0.0
C1548 C 0.59727 0.57847 0.50689 0.0
C1549 C 0.60126 0.6214 0.53252 0.0
C1550 C 0.59029 0.6011 0.54046 0.0
C1551 C 0.60935 0.61974 0.51065 0.0
C1552 C 0.60751 0.59817 0.49789 0.0
H1553 H 0.58105 0.63969 0.61125 0.0
H1554 H 0.59962 0.66015 0.58017 0.0
H1555 H 0.61279 0.65839 0.54109 0.0
O1556 O 0.60679 0.55736 0.55195 0.0
O1557 O 0.54542 0.57107 0.53782 0.0
O1558 O 0.52532 0.55452 0.50127 0.0
O1559 O 0.58646 0.54558 0.57845 0.0
O1560 O 0.57142 0.53149 0.5093 0.0
O1561 O 0.53713 0.53431 0.48935 0.0
O1562 O 0.48111 0.52936 0.51738 0.0
O1563 O 0.52729 0.49705 0.52997 0.0
O1564 O 0.5664 0.51214 0.53454 0.0
O1565 O 0.48305 0.51503 0.48149 0.0
O1566 O 0.51245 0.53809 0.54549 0.0
O1567 O 0.5456 0.53266 0.56523 0.0
C1568 C 0.53439 0.57307 0.51701 0.0
C1569 C 0.62114 0.53465 0.57815 0.0
C1570 C 0.65177 0.51693 0.56924 0.0
C1571 C 0.64875 0.50455 0.58842 0.0
C1572 C 0.61816 0.52221 0.59737 0.0
C1573 C 0.63191 0.50718 0.60239 0.0
C1574 C 0.63809 0.53199 0.56428 0.0
C1575 C 0.55769 0.5308 0.48932 0.0
C1576 C 0.60693 0.55063 0.57281 0.0
C1577 C 0.59679 0.64367 0.56914 0.0
C1578 C 0.60429 0.64265 0.54687 0.0
C1579 C 0.54855 0.49479 0.5347 0.0
C1580 C 0.45997 0.54154 0.48635 0.0
C1581 C 0.43191 0.56318 0.4939 0.0
C1582 C 0.42852 0.56564 0.46959 0.0
C1583 C 0.45652 0.54381 0.46208 0.0
C1584 C 0.44904 0.55281 0.50222 0.0
C1585 C 0.44132 0.55651 0.45391 0.0
C1586 C 0.5247 0.53514 0.56495 0.0
C1587 C 0.47118 0.5245 0.49525 0.0
H1588 H 0.65916 0.49266 0.59233 0.0
H1589 H 0.60524 0.5241 0.60848 0.0
H1590 H 0.62949 0.49755 0.6171 0.0
H1591 H 0.64083 0.54172 0.54963 0.0
H1592 H 0.4153 0.5735 0.46244 0.0
H1593 H 0.46486 0.53521 0.44939 0.0
H1594 H 0.45238 0.55163 0.52106 0.0
H1595 H 0.43841 0.55807 0.43516 0.0
Tb1596 Tb 1.00265 0.52649 0.04027 0.0
C1597 C 0.08662 0.57974 0.99126 0.0
N1598 N 0.06974 0.56015 0.98356 0.0
C1599 C 0.06411 0.57184 0.94482 0.0
C1600 C 0.09206 0.59651 0.97622 0.0
C1601 C 0.0594 0.55558 0.96018 0.0
C1602 C 0.08024 0.59251 0.95295 0.0
C1603 C 0.11722 0.60252 0.02218 0.0
C1604 C 0.0993 0.58273 0.01402 0.0
C1605 C 0.12207 0.61945 0.00745 0.0
C1606 C 0.10956 0.61645 0.98455 0.0
Tb1607 Tb 0.06554 0.53529 0.01114 0.0
N1608 N 0.09395 0.56632 0.02825 0.0
C1609 C 0.12971 0.60474 0.04499 0.0
C1610 C 0.10702 0.56774 0.04983 0.0
C1611 C 0.1247 0.58718 0.05878 0.0
H1612 H 0.04807 0.53923 0.95264 0.0
H1613 H 0.13472 0.58843 0.07612 0.0
H1614 H 0.02178 0.52399 0.09884 0.0
H1615 H 0.9362 0.46917 0.97519 0.0
H1616 H 0.1044 0.55359 0.05976 0.0
H1617 H 0.1435 0.61975 0.05194 0.0
H1618 H 0.96643 0.50434 0.99001 0.0
H1619 H 0.05562 0.56817 0.9265 0.0
H1620 H 0.13564 0.63484 0.01351 0.0
H1621 H 0.11381 0.62951 0.97324 0.0
H1622 H 0.01516 0.49574 0.1258 0.0
H1623 H 0.084 0.60493 0.94085 0.0
H1624 H 0.92752 0.43927 0.00111 0.0
N1625 N 0.99997 0.50224 0.06844 0.0
C1626 C 0.98345 0.48226 0.06122 0.0
C1627 C 1.00646 0.49156 0.10756 0.0
C1628 C 0.97858 0.46588 0.0768 0.0
C1629 C 0.0106 0.50744 0.09171 0.0
C1630 C 0.99061 0.47061 0.10001 0.0
N1631 N 0.97576 0.49414 0.02337 0.0
C1632 C 0.96331 0.49126 0.00117 0.0
C1633 C 0.95339 0.45796 0.03063 0.0
C1634 C 0.97074 0.4783 0.03832 0.0
C1635 C 0.94098 0.45466 0.00763 0.0
C1636 C 0.94591 0.47143 0.99288 0.0
H1637 H 0.98729 0.45848 0.11249 0.0
H1638 H 0.95768 0.43277 0.08074 0.0
H1639 H 0.93581 0.4258 0.04036 0.0
O1640 O 0.97217 0.53695 0.02849 0.0
O1641 O 0.00992 0.49425 0.0222 0.0
O1642 O 0.04614 0.49917 0.00934 0.0
O1643 O 0.98567 0.53877 0.06629 0.0
O1644 O 0.01729 0.53994 0.01114 0.0
O1645 O 0.03493 0.52435 0.98477 0.0
O1646 O 0.09442 0.52227 0.02273 0.0
O1647 O 0.05896 0.56785 0.02967 0.0
O1648 O 0.02174 0.56305 0.04052 0.0
O1649 O 0.0828 0.52335 0.98509 0.0
O1650 O 0.0525 0.52247 0.0418 0.0
O1651 O 0.03286 0.53908 0.0661 0.0
C1652 C 0.02628 0.48619 0.01295 0.0
C1653 C 0.95032 0.54995 0.05886 0.0
C1654 C 0.92097 0.57132 0.05445 0.0
C1655 C 0.91562 0.56703 0.07702 0.0
C1656 C 0.94459 0.54568 0.08133 0.0
C1657 C 0.92728 0.55414 0.09028 0.0
C1658 C 0.93818 0.56248 0.04519 0.0
C1659 C 0.01601 0.52861 0.99031 0.0
C1660 C 0.96966 0.54207 0.05068 0.0
C1661 C 0.96152 0.44551 0.069 0.0
C1662 C 0.94899 0.44156 0.04602 0.0
C1663 C 0.04217 0.57613 0.03796 0.0
C1664 C 0.11623 0.50854 0.99268 0.0
C1665 C 0.14628 0.48813 -0.00102 0.0
C1666 C 0.1496 0.48871 0.97513 0.0
C1667 C 0.11999 0.50899 0.96888 0.0
C1668 C 0.12969 0.49829 0.00793 0.0
C1669 C 0.13659 0.49917 0.96024 0.0
C1670 C 0.05224 0.53544 0.06142 0.0
C1671 C 0.09766 0.51816 0.00063 0.0
H1672 H 0.90231 0.57364 0.08435 0.0
H1673 H 0.95362 0.53591 0.09209 0.0
H1674 H 0.92304 0.55088 0.10764 0.0
H1675 H 0.94259 0.56602 0.02794 0.0
H1676 H 0.16239 0.48105 0.96804 0.0
H1677 H 0.11 0.51686 0.9568 0.0
H1678 H 0.12696 0.4977 0.02628 0.0
H1679 H 0.13929 0.49955 0.94188 0.0
C1680 C 0.0295 0.20315 0.98994 0.0
C1681 C 1.00712 0.20425 0.98089 0.0
C1682 C 0.03441 0.18258 0.99676 0.0
C1683 C 0.0168 0.1619 0.99372 0.0
C1684 C 0.99427 0.16289 0.98408 0.0
C1685 C 0.9897 0.18387 0.97832 0.0
C1686 C 0.0586 0.18302 0.0073 0.0
C1687 C 0.97483 0.14161 0.97978 0.0
C1688 C 0.0307 0.10192 0.9888 0.0
C1689 C 0.02912 0.09571 0.01169 0.0
C1690 C 0.02763 0.12343 0.98308 0.0
C1691 C 0.02179 0.13928 0.00024 0.0
C1692 C 0.02005 0.13298 0.02339 0.0
C1693 C 0.02418 0.11172 0.02891 0.0
C1694 C 0.03057 0.12914 0.95845 0.0
C1695 C 0.01344 0.14859 0.04237 0.0
H1696 H 0.04318 0.21862 0.99228 0.0
H1697 H 0.97235 0.18423 0.97131 0.0
H1698 H 0.05871 0.17584 0.02433 0.0
H1699 H 0.06587 0.17211 0.99493 0.0
H1700 H 0.06991 0.20064 0.01071 0.0
H1701 H 0.95853 0.1447 0.97125 0.0
H1702 H 0.97924 0.12776 0.96816 0.0
H1703 H 0.97207 0.13531 0.99695 0.0
H1704 H 0.03472 0.08999 0.97531 0.0
H1705 H 0.0228 0.1073 0.04663 0.0
H1706 H 0.04341 0.14569 0.95975 0.0
H1707 H 0.01413 0.13118 0.94916 0.0
H1708 H 0.03623 0.11571 0.94745 0.0
H1709 H 0.02635 0.16528 0.04628 0.0
H1710 H 0.01205 0.14114 0.05918 0.0
H1711 H 0.99672 0.15209 0.03586 0.0
C1712 C 0.13888 0.78158 0.15306 0.0
C1713 C 0.13417 0.80274 0.14971 0.0
C1714 C 0.157 0.77997 0.17038 0.0
C1715 C 0.17104 0.80006 0.18486 0.0
C1716 C 0.16609 0.82151 0.18176 0.0
C1717 C 0.1478 0.8226 0.16423 0.0
C1718 C 0.16139 0.75672 0.17284 0.0
C1719 C 0.18038 0.84339 0.19672 0.0
C1720 C 0.20683 0.79103 0.24192 0.0
C1721 C 0.22889 0.7934 0.23564 0.0
C1722 C 0.18823 0.79409 0.22611 0.0
C1723 C 0.19118 0.79858 0.20269 0.0
C1724 C 0.21335 0.8009 0.19609 0.0
C1725 C 0.23188 0.79889 0.21269 0.0
C1726 C 0.16533 0.79238 0.23454 0.0
C1727 C 0.21742 0.80492 0.17119 0.0
H1728 H 0.12849 0.76619 0.14181 0.0
H1729 H 0.14442 0.83904 0.16158 0.0
H1730 H 0.17914 0.75666 0.16986 0.0
H1731 H 0.15983 0.75292 0.19119 0.0
H1732 H 0.14923 0.7428 0.16003 0.0
H1733 H 0.17315 0.85833 0.19384 0.0
H1734 H 0.18174 0.84158 0.21593 0.0
H1735 H 0.19803 0.84694 0.19222 0.0
H1736 H 0.20392 0.78678 0.25924 0.0
H1737 H 0.24868 0.80103 0.20729 0.0
H1738 H 0.15269 0.777 0.22451 0.0
H1739 H 0.15874 0.80755 0.23102 0.0
H1740 H 0.16635 0.7912 0.2539 0.0
H1741 H 0.20655 0.79045 0.15805 0.0
H1742 H 0.23563 0.80655 0.16881 0.0
H1743 H 0.21241 0.82071 0.167 0.0
C1744 C 0.49581 0.84776 0.49631 0.0
C1745 C 0.51092 0.83778 0.48414 0.0
C1746 C 0.49849 0.87188 0.5009 0.0
C1747 C 0.51712 0.88717 0.49376 0.0
C1748 C 0.53275 0.87729 0.48188 0.0
C1749 C 0.52934 0.85299 0.47698 0.0
C1750 C 0.48091 0.88103 0.51302 0.0
C1751 C 0.55325 0.89249 0.47439 0.0
C1752 C 0.51343 0.94944 0.48625 0.0
C1753 C 0.52546 0.96235 0.50795 0.0
C1754 C 0.51051 0.92525 0.48149 0.0
C1755 C 0.5201 0.91327 0.49861 0.0
C1756 C 0.53229 0.92641 0.52057 0.0
C1757 C 0.53467 0.95051 0.52496 0.0
C1758 C 0.49709 0.91245 0.45799 0.0
C1759 C 0.54303 0.91502 0.53953 0.0
H1760 H 0.48128 0.83658 0.50175 0.0
H1761 H 0.54121 0.84589 0.46753 0.0
H1762 H 0.48938 0.89286 0.52958 0.0
H1763 H 0.47254 0.89102 0.50116 0.0
H1764 H 0.46746 0.86714 0.51765 0.0
H1765 H 0.56379 0.8825 0.46519 0.0
H1766 H 0.54757 0.90389 0.46229 0.0
H1767 H 0.56419 0.90369 0.4903 0.0
H1768 H 0.50624 0.95831 0.47292 0.0
H1769 H 0.54408 0.96023 0.54175 0.0
H1770 H 0.48257 0.89881 0.46115 0.0
H1771 H 0.5082 0.90392 0.44796 0.0
H1772 H 0.4902 0.9239 0.44674 0.0
H1773 H 0.52946 0.90275 0.54609 0.0
H1774 H 0.55314 0.9276 0.55496 0.0
H1775 H 0.55446 0.90509 0.53191 0.0
C1776 C 0.49991 0.28169 0.65308 0.0
C1777 C 0.51623 0.30282 0.65827 0.0
C1778 C 0.48114 0.27696 0.66559 0.0
C1779 C 0.47853 0.29373 0.68382 0.0
C1780 C 0.49479 0.31517 0.689 0.0
C1781 C 0.5134 0.31945 0.6762 0.0
C1782 C 0.46421 0.25387 0.65945 0.0
C1783 C 0.49273 0.33347 0.70833 0.0
C1784 C 0.41877 0.28336 0.70192 0.0
C1785 C 0.42151 0.27122 0.72111 0.0
C1786 C 0.43749 0.29193 0.69031 0.0
C1787 C 0.45936 0.28824 0.69812 0.0
C1788 C 0.4624 0.27738 0.71856 0.0
C1789 C 0.44345 0.26897 0.72972 0.0
C1790 C 0.43354 0.30361 0.66876 0.0
C1791 C 0.48531 0.27313 0.7277 0.0
H1792 H 0.50182 0.26872 0.63925 0.0
H1793 H 0.52586 0.33585 0.6804 0.0
H1794 H 0.46371 0.24493 0.67536 0.0
H1795 H 0.44672 0.25615 0.65409 0.0
H1796 H 0.46855 0.24273 0.64473 0.0
H1797 H 0.50602 0.34969 0.70931 0.0
H1798 H 0.47555 0.33712 0.70521 0.0
H1799 H 0.49442 0.32731 0.72588 0.0
H1800 H 0.40176 0.28486 0.69506 0.0
H1801 H 0.44553 0.25948 0.7445 0.0
H1802 H 0.4344 0.29217 0.65245 0.0
H1803 H 0.44713 0.3196 0.66987 0.0
H1804 H 0.41656 0.30785 0.66684 0.0
H1805 H 0.4891 0.25969 0.71499 0.0
H1806 H 0.48557 0.26736 0.74549 0.0
H1807 H 0.49924 0.28886 0.72898 0.0
C1808 C 1.00043 0.8225 0.64122 0.0
C1809 C 0.01781 0.81211 0.64953 0.0
C1810 C 1.00521 0.84157 0.62907 0.0
C1811 C 0.02789 0.85043 0.62496 0.0
C1812 C 0.04553 0.84011 0.6334 0.0
C1813 C 0.04029 0.82113 0.64558 0.0
C1814 C 0.98594 0.85208 0.62044 0.0
C1815 C 0.06997 0.84908 0.62947 0.0
C1816 C 0.04148 0.88447 0.5744 0.0
C1817 C 0.05042 0.90665 0.58678 0.0
C1818 C 0.03282 0.86616 0.58642 0.0
C1819 C 0.03331 0.87019 0.61144 0.0
C1820 C 0.04108 0.8929 0.62376 0.0
C1821 C 0.04966 0.91088 0.61125 0.0
C1822 C 0.02466 0.84229 0.57257 0.0
C1823 C 0.0417 0.89798 0.65036 0.0
H1824 H 0.98301 0.81574 0.64421 0.0
H1825 H 0.05387 0.81332 0.65197 0.0
H1826 H 0.99067 0.87084 0.62653 0.0
H1827 H 0.98287 0.84949 0.60065 0.0
H1828 H 0.9697 0.84447 0.62683 0.0
H1829 H 0.08169 0.83914 0.6371 0.0
H1830 H 0.07072 0.84841 0.61009 0.0
H1831 H 0.07633 0.86728 0.63774 0.0
H1832 H 0.04247 0.88124 0.55553 0.0
H1833 H 0.05696 0.92804 0.62082 0.0
H1834 H 0.00784 0.83357 0.57697 0.0
H1835 H 0.03705 0.83202 0.57762 0.0
H1836 H 0.023 0.84239 0.55299 0.0
H1837 H 0.0249 0.88996 0.65536 0.0
H1838 H 0.04595 0.91669 0.65682 0.0
H1839 H 0.05477 0.8905 0.65971 0.0
C1840 C 0.46647 0.82703 0.8363 0.0
C1841 C 0.47981 0.81364 0.82559 0.0
C1842 C 0.44294 0.82409 0.82809 0.0
C1843 C 0.43196 0.80767 0.80797 0.0
C1844 C 0.44562 0.79519 0.79585 0.0
C1845 C 0.46925 0.79802 0.80498 0.0
C1846 C 0.42953 0.83771 0.84201 0.0
C1847 C 0.435 0.77824 0.77371 0.0
C1848 C 0.36666 0.78484 0.80564 0.0
C1849 C 0.35734 0.79846 0.79067 0.0
C1850 C 0.39065 0.78695 0.81053 0.0
C1851 C 0.40616 0.80327 0.80051 0.0
C1852 C 0.39683 0.81677 0.78511 0.0
C1853 C 0.37281 0.81412 0.78034 0.0
C1854 C 0.39945 0.7719 0.82684 0.0
C1855 C 0.41224 0.83463 0.77409 0.0
H1856 H 0.47423 0.83891 0.85244 0.0
H1857 H 0.47902 0.78717 0.79677 0.0
H1858 H 0.42032 0.84698 0.83004 0.0
H1859 H 0.41644 0.8259 0.84967 0.0
H1860 H 0.44067 0.85037 0.8568 0.0
H1861 H 0.44784 0.77055 0.7657 0.0
H1862 H 0.42144 0.76431 0.77806 0.0
H1863 H 0.42665 0.78683 0.76026 0.0
H1864 H 0.35517 0.77237 0.81353 0.0
H1865 H 0.36622 0.82458 0.76852 0.0
H1866 H 0.40995 0.78267 0.84321 0.0
H1867 H 0.41071 0.76262 0.81796 0.0
H1868 H 0.38533 0.75914 0.83209 0.0
H1869 H 0.41987 0.84993 0.78773 0.0
H1870 H 0.40269 0.84011 0.75885 0.0
H1871 H 0.42653 0.82812 0.76782 0.0
C1872 C 0.52255 0.1657 0.1577 0.0
C1873 C 0.51802 0.18641 0.15199 0.0
C1874 C 0.52402 0.14811 0.13997 0.0
C1875 C 0.52039 0.15077 0.11557 0.0
C1876 C 0.5154 0.17144 0.10954 0.0
C1877 C 0.51453 0.18907 0.12777 0.0
C1878 C 0.52999 0.12679 0.14749 0.0
C1879 C 0.51072 0.1748 0.08379 0.0
C1880 C 0.54543 0.11379 0.07186 0.0
C1881 C 0.52703 0.09453 0.06419 0.0
C1882 C 0.54345 0.13225 0.0883 0.0
C1883 C 0.52225 0.13201 0.09663 0.0
C1884 C 0.50333 0.11297 0.08803 0.0
C1885 C 0.50612 0.09427 0.07247 0.0
C1886 C 0.56436 0.1516 0.0975 0.0
C1887 C 0.48017 0.11213 0.09556 0.0
H1888 H 0.52553 0.16338 0.17626 0.0
H1889 H 0.51098 0.20488 0.12303 0.0
H1890 H 0.51598 0.11149 0.13985 0.0
H1891 H 0.54572 0.12435 0.14048 0.0
H1892 H 0.5329 0.12755 0.16718 0.0
H1893 H 0.50777 0.19201 0.08193 0.0
H1894 H 0.5253 0.17256 0.07451 0.0
H1895 H 0.49537 0.16156 0.07456 0.0
H1896 H 0.56174 0.11395 0.06579 0.0
H1897 H 0.49185 0.07944 0.06666 0.0
H1898 H 0.5687 0.15264 0.11711 0.0
H1899 H 0.56076 0.16819 0.09401 0.0
H1900 H 0.57951 0.14938 0.08917 0.0
H1901 H 0.48083 0.10939 0.11448 0.0
H1902 H 0.46651 0.09807 0.08456 0.0
H1903 H 0.47542 0.12864 0.09416 0.0
C1904 C 0.13178 0.30393 0.334 0.0
C1905 C 0.11866 0.31338 0.31749 0.0
C1906 C 0.15326 0.29936 0.3298 0.0
C1907 C 0.16256 0.30464 0.30874 0.0
C1908 C 0.14956 0.31452 0.29229 0.0
C1909 C 0.12805 0.31849 0.29669 0.0
C1910 C 0.16584 0.28839 0.3478 0.0
C1911 C 0.15829 0.32083 0.26968 0.0
C1912 C 0.2277 0.3095 0.30639 0.0
C1913 C 0.22772 0.28937 0.29132 0.0
C1914 C 0.20696 0.31486 0.31187 0.0
C1915 C 0.18526 0.29919 0.30336 0.0
C1916 C 0.18529 0.27864 0.28858 0.0
C1917 C 0.20613 0.2745 0.2822 0.0
C1918 C 0.20829 0.33772 0.32627 0.0
C1919 C 0.16323 0.26068 0.27962 0.0
H1920 H 0.12508 0.29967 0.35009 0.0
H1921 H 0.11851 0.32576 0.28358 0.0
H1922 H 0.16863 0.27212 0.33903 0.0
H1923 H 0.18298 0.29981 0.35495 0.0
H1924 H 0.15636 0.2847 0.36294 0.0
H1925 H 0.14787 0.3309 0.26014 0.0
H1926 H 0.17639 0.33094 0.27375 0.0
H1927 H 0.15785 0.30504 0.2575 0.0
H1928 H 0.24397 0.32157 0.31333 0.0
H1929 H 0.20535 0.25931 0.27012 0.0
H1930 H 0.20142 0.33513 0.34314 0.0
H1931 H 0.19753 0.34712 0.31619 0.0
H1932 H 0.22614 0.34853 0.3306 0.0
H1933 H 0.15514 0.25491 0.29501 0.0
H1934 H 0.16596 0.24551 0.26854 0.0
H1935 H 0.15092 0.268 0.26887 0.0
C1936 C 0.95873 0.02534 0.17782 0.0
C1937 C 0.97486 0.02832 0.19842 0.0
C1938 C 0.96582 0.02869 0.15562 0.0
C1939 C 0.98954 0.03595 0.15421 0.0
C1940 C 1.00572 0.04057 0.17538 0.0
C1941 C 0.99821 0.03621 0.19712 0.0
C1942 C 0.94807 0.02294 0.13345 0.0
C1943 C 0.03104 0.04933 0.17495 0.0
C1944 C 0.01206 0.01676 0.09799 0.0
C1945 C 0.01271 0.03543 0.08548 0.0
C1946 C 1.00382 0.01649 0.11988 0.0
C1947 C 0.99758 0.03607 0.13046 0.0
C1948 C 0.99924 0.05547 0.11837 0.0
C1949 C 1.00617 0.05466 0.09564 0.0
C1950 C 1.00172 0.99513 0.13162 0.0
C1951 C 0.99408 0.07718 0.12954 0.0
H1952 H 0.94068 0.01901 0.17882 0.0
H1953 H 0.01067 0.03862 0.21312 0.0
H1954 H 0.95002 0.03751 0.12312 0.0
H1955 H 0.95069 0.00805 0.12181 0.0
H1956 H 0.93029 0.01869 0.13762 0.0
H1957 H 0.041 0.05471 0.19319 0.0
H1958 H 0.03775 0.03572 0.16566 0.0
H1959 H 0.03403 0.06411 0.16491 0.0
H1960 H 0.01759 1.00207 0.09031 0.0
H1961 H 1.00741 0.06939 0.08627 0.0
H1962 H 0.98407 0.98939 0.13574 0.0
H1963 H 0.01362 0.99886 0.14873 0.0
H1964 H 1.00567 0.98083 0.12019 0.0
H1965 H 0.97529 0.07458 0.12896 0.0
H1966 H 1.0003 0.09189 0.12008 0.0
H1967 H 1.0021 0.08164 0.14855 0.0
C1968 C 0.29425 0.68284 0.49177 0.0
C1969 C 0.27728 0.66267 0.49087 0.0
C1970 C 0.29259 0.697 0.47423 0.0
C1971 C 0.27365 0.69046 0.45565 0.0
C1972 C 0.25783 0.6689 0.45352 0.0
C1973 C 0.25983 0.65527 0.47133 0.0
C1974 C 0.30987 0.71974 0.47685 0.0
C1975 C 0.23758 0.66114 0.43367 0.0
C1976 C 0.24235 0.72989 0.42776 0.0
C1977 C 0.24639 0.72595 0.40419 0.0
C1978 C 0.25309 0.72019 0.44565 0.0
C1979 C 0.26846 0.70669 0.43974 0.0
C1980 C 0.27455 0.70484 0.4167 0.0
C1981 C 0.26304 0.714 0.39904 0.0
C1982 C 0.24628 0.72252 0.47022 0.0
C1983 C 0.29144 0.69119 0.41003 0.0
H1984 H 0.30752 0.68856 0.50724 0.0
H1985 H 0.24676 0.63961 0.47094 0.0
H1986 H 0.31387 0.72408 0.45924 0.0
H1987 H 0.30263 0.73343 0.48521 0.0
H1988 H 0.32604 0.71978 0.48838 0.0
H1989 H 0.22767 0.64337 0.43401 0.0
H1990 H 0.22587 0.67275 0.43529 0.0
H1991 H 0.24344 0.66192 0.41606 0.0
H1992 H 0.23003 0.73963 0.43202 0.0
H1993 H 0.2662 0.71044 0.38089 0.0
H1994 H 0.26161 0.72647 0.48418 0.0
H1995 H 0.23505 0.70602 0.47277 0.0
H1996 H 0.23684 0.73613 0.47287 0.0
H1997 H 0.30602 0.69386 0.4247 0.0
H1998 H 0.29827 0.69588 0.39359 0.0
H1999 H 0.28276 0.67266 0.40671 0.0
C2000 C 0.62578 0.05116 0.68836 0.0
C2001 C 0.64908 0.05255 0.68802 0.0
C2002 C 0.6104 0.04581 0.66724 0.0
C2003 C 0.61887 0.04241 0.64551 0.0
C2004 C 0.64224 0.04278 0.6451 0.0
C2005 C 0.65721 0.04759 0.66667 0.0
C2006 C 0.58537 0.04497 0.66814 0.0
C2007 C 0.65162 0.03971 0.62193 0.0
C2008 C 0.57626 0.01814 0.59017 0.0
C2009 C 0.57256 0.03833 0.58274 0.0
C2010 C 0.59136 0.01914 0.61091 0.0
C2011 C 0.60359 0.04084 0.62327 0.0
C2012 C 0.60011 0.06128 0.61537 0.0
C2013 C 0.58366 0.0597 0.59563 0.0
C2014 C 0.59368 0.99716 0.61993 0.0
C2015 C 0.61365 0.08469 0.62773 0.0
H2016 H 0.61968 0.05466 0.70516 0.0
H2017 H 0.67534 0.04873 0.66675 0.0
H2018 H 0.58094 0.05994 0.66095 0.0
H2019 H 0.57428 0.0293 0.65687 0.0
H2020 H 0.58128 0.04525 0.6866 0.0
H2021 H 0.66974 0.03846 0.62483 0.0
H2022 H 0.64116 0.02408 0.61012 0.0
H2023 H 0.65064 0.05451 0.61238 0.0
H2024 H 0.56679 1.00169 0.58021 0.0
H2025 H 0.5802 0.0751 0.5896 0.0
H2026 H 0.58904 0.99722 0.63815 0.0
H2027 H 0.61172 0.99582 0.62119 0.0
H2028 H 0.58253 0.98175 0.60823 0.0
H2029 H 0.6091 0.08794 0.64582 0.0
H2030 H 0.61037 0.09861 0.61771 0.0
H2031 H 0.63229 0.08549 0.62986 0.0
C2032 C 0.31603 0.32825 0.96078 0.0
C2033 C 0.29907 0.33721 0.97045 0.0
C2034 C 0.31416 0.32107 0.93624 0.0
C2035 C 0.29448 0.32217 0.92075 0.0
C2036 C 0.27697 0.33071 0.93033 0.0
C2037 C 0.27961 0.33846 0.95506 0.0
C2038 C 0.33367 0.31295 0.9268 0.0
C2039 C 0.25546 0.3316 0.91445 0.0
C2040 C 0.30085 0.32399 0.85537 0.0
C2041 C 0.29318 0.30079 0.84559 0.0
C2042 C 0.30117 0.33121 0.87972 0.0
C2043 C 0.29283 0.31492 0.8945 0.0
C2044 C 0.28462 0.29148 0.8845 0.0
C2045 C 0.28533 0.28462 0.86024 0.0
C2046 C 0.31092 0.3562 0.88971 0.0
C2047 C 0.27508 0.27365 0.89945 0.0
H2048 H 0.33136 0.32757 0.97237 0.0
H2049 H 0.26647 0.34541 0.96232 0.0
H2050 H 0.32743 0.29519 0.91722 0.0
H2051 H 0.34056 0.32393 0.91378 0.0
H2052 H 0.34792 0.31334 0.94119 0.0
H2053 H 0.24365 0.33912 0.92448 0.0
H2054 H 0.25987 0.34186 0.90004 0.0
H2055 H 0.2463 0.31402 0.90575 0.0
H2056 H 0.30706 0.33647 0.84401 0.0
H2057 H 0.2792 0.2667 0.85256 0.0
H2058 H 0.32574 0.358 0.90388 0.0
H2059 H 0.29788 0.36327 0.89801 0.0
H2060 H 0.31669 0.36666 0.87582 0.0
H2061 H 0.2889 0.27199 0.91329 0.0
H2062 H 0.26749 0.25657 0.88858 0.0
H2063 H 0.26174 0.27903 0.90883 0.0
C2064 C 1.00457 0.02792 0.33845 0.0
C2065 C 0.98232 0.02949 0.32991 0.0
C2066 C 0.01216 0.02961 0.36296 0.0
C2067 C 0.99706 0.03261 0.37945 0.0
C2068 C 0.97487 0.03513 0.37105 0.0
C2069 C 0.96783 0.03376 0.34636 0.0
C2070 C 0.03605 0.02717 0.37112 0.0
C2071 C 0.95822 0.0382 0.38806 0.0
C2072 C 0.00849 0.00974 0.43803 0.0
C2073 C 0.01924 0.02987 0.4536 0.0
C2074 C 1.00077 0.01043 0.41395 0.0
C2075 C 1.00417 0.03181 0.40527 0.0
C2076 C 0.01505 0.05222 0.4211 0.0
C2077 C 0.02222 0.051 0.44517 0.0
C2078 C 0.98877 0.98831 0.39788 0.0
C2079 C 0.01945 0.07529 0.41258 0.0
H2080 H 0.0159 0.02469 0.32585 0.0
H2081 H 0.95055 0.03478 0.3399 0.0
H2082 H 0.04518 0.04142 0.38544 0.0
H2083 H 0.03503 0.01095 0.37868 0.0
H2084 H 0.04636 0.02702 0.35631 0.0
H2085 H 0.94166 0.04005 0.37877 0.0
H2086 H 0.95476 0.02323 0.39779 0.0
H2087 H 0.9658 0.05359 0.40159 0.0
H2088 H 1.00549 0.99355 0.44485 0.0
H2089 H 0.03037 0.06658 0.45743 0.0
H2090 H 0.99855 0.98547 0.38308 0.0
H2091 H 0.9715 0.98938 0.38978 0.0
H2092 H 0.98684 0.97326 0.40759 0.0
H2093 H 0.03133 0.0757 0.39921 0.0
H2094 H 0.02706 0.0896 0.42739 0.0
H2095 H 1.00325 0.07818 0.40363 0.0
C2096 C 0.27622 0.67095 0.62723 0.0
C2097 C 0.29468 0.67764 0.61498 0.0
C2098 C 0.27553 0.68331 0.64906 0.0
C2099 C 0.29377 0.70248 0.65834 0.0
C2100 C 0.31346 0.70785 0.64711 0.0
C2101 C 0.31351 0.69545 0.62502 0.0
C2102 C 0.25484 0.67672 0.66146 0.0
C2103 C 0.33379 0.72736 0.65784 0.0
C2104 C 0.27642 0.75027 0.69328 0.0
C2105 C 0.28712 0.74961 0.71615 0.0
C2106 C 0.27921 0.73536 0.67401 0.0
C2107 C 0.29118 0.7183 0.67837 0.0
C2108 C 0.30077 0.71668 0.70161 0.0
C2109 C 0.29942 0.73298 0.72008 0.0
C2110 C 0.26963 0.73806 0.64908 0.0
C2111 C 0.31253 0.69806 0.7076 0.0
H2112 H 0.26171 0.65702 0.61901 0.0
H2113 H 0.32771 0.70013 0.61523 0.0
H2114 H 0.26033 0.67671 0.68074 0.0
H2115 H 0.24438 0.6895 0.66003 0.0
H2116 H 0.24379 0.65957 0.65357 0.0
H2117 H 0.34781 0.72907 0.64681 0.0
H2118 H 0.32836 0.74372 0.65987 0.0
H2119 H 0.34062 0.72453 0.6759 0.0
H2120 H 0.26641 0.7627 0.69032 0.0
H2121 H 0.30787 0.73232 0.73772 0.0
H2122 H 0.25451 0.72367 0.64197 0.0
H2123 H 0.28258 0.7376 0.63696 0.0
H2124 H 0.26425 0.7544 0.64865 0.0
H2125 H 0.30367 0.68865 0.72076 0.0
H2126 H 0.33043 0.70599 0.71637 0.0
H2127 H 0.31282 0.6855 0.692 0.0
C2128 C 0.64105 0.07367 0.80681 0.0
C2129 C 0.65546 0.05898 0.8034 0.0
C2130 C 0.62676 0.0712 0.82412 0.0
C2131 C 0.62749 0.05395 0.83878 0.0
C2132 C 0.64128 0.03833 0.83471 0.0
C2133 C 0.655 0.04085 0.81664 0.0
C2134 C 0.61175 0.08782 0.82744 0.0
C2135 C 0.64201 0.01955 0.84982 0.0
C2136 C 0.61512 0.07826 0.89706 0.0
C2137 C 0.59124 0.07091 0.8933 0.0
C2138 C 0.62779 0.07044 0.88052 0.0
C2139 C 0.61608 0.05482 0.86005 0.0
C2140 C 0.59222 0.04524 0.85783 0.0
C2141 C 0.57989 0.05379 0.8744 0.0
C2142 C 0.65327 0.08099 0.88354 0.0
C2143 C 0.57938 0.0278 0.83677 0.0
H2144 H 0.64103 0.08723 0.79593 0.0
H2145 H 0.66596 0.02927 0.81347 0.0
H2146 H 0.5937 0.07836 0.82697 0.0
H2147 H 0.6175 0.0987 0.84511 0.0
H2148 H 0.61222 0.0992 0.81347 0.0
H2149 H 0.65468 0.0097 0.84521 0.0
H2150 H 0.64638 0.02686 0.86901 0.0
H2151 H 0.62482 0.00755 0.84734 0.0
H2152 H 0.62369 0.09124 0.9121 0.0
H2153 H 0.56137 0.04776 0.87214 0.0
H2154 H 0.65664 0.09378 0.87113 0.0
H2155 H 0.66273 0.06778 0.87912 0.0
H2156 H 0.66019 0.08982 0.90201 0.0
H2157 H 0.57485 0.0368 0.8217 0.0
H2158 H 0.56324 0.01735 0.84115 0.0
H2159 H 0.59002 0.0162 0.83075 0.0
C2160 C 0.31937 0.35105 0.12263 0.0
C2161 C 0.30154 0.35 0.1041 0.0
C2162 C 0.31482 0.3441 0.14451 0.0
C2163 C 0.29189 0.335 0.14767 0.0
C2164 C 0.27372 0.33456 0.12927 0.0
C2165 C 0.27876 0.3425 0.10779 0.0
C2166 C 0.3347 0.34564 0.1639 0.0
C2167 C 0.24908 0.32465 0.13182 0.0
C2168 C 0.2892 0.29157 0.19068 0.0
C2169 C 0.28476 0.30356 0.21143 0.0
C2170 C 0.28974 0.30103 0.1694 0.0
C2171 C 0.28742 0.32374 0.16914 0.0
C2172 C 0.28308 0.33608 0.19001 0.0
C2173 C 0.28127 0.32564 0.21072 0.0
C2174 C 0.29345 0.28684 0.14734 0.0
C2175 C 0.28175 0.36074 0.19105 0.0
H2176 H 0.337 0.35718 0.11993 0.0
H2177 H 0.26498 0.34174 0.09346 0.0
H2178 H 0.33113 0.35283 0.18141 0.0
H2179 H 0.33718 0.32824 0.16542 0.0
H2180 H 0.35096 0.35645 0.16018 0.0
H2181 H 0.23693 0.32562 0.11595 0.0
H2182 H 0.24672 0.30643 0.13446 0.0
H2183 H 0.24464 0.3339 0.1478 0.0
H2184 H 0.29229 0.27465 0.19096 0.0
H2185 H 0.27805 0.33518 0.22667 0.0
H2186 H 0.31104 0.2935 0.14347 0.0
H2187 H 0.28123 0.28804 0.13166 0.0
H2188 H 0.29128 0.2685 0.14945 0.0
H2189 H 0.29936 0.37178 0.19267 0.0
H2190 H 0.27395 0.36639 0.2066 0.0
H2191 H 0.27176 0.36353 0.17452 0.0
C2192 C 0.23193 0.96263 0.98359 0.0
C2193 C 0.25425 0.97661 0.98734 0.0
C2194 C 0.21443 0.9702 0.99333 0.0
C2195 C 0.21977 0.99207 0.00726 0.0
C2196 C 0.24184 0.00695 0.00936 0.0
C2197 C 0.25887 0.99908 -0.00102 0.0
C2198 C 0.19081 0.95427 0.99021 0.0
C2199 C 0.24811 0.03026 0.02452 0.0
C2200 C 0.17644 0.0222 0.02795 0.0
C2201 C 0.17711 0.0179 0.05165 0.0
C2202 C 0.18907 0.01248 0.01266 0.0
C2203 C 0.20316 0.99879 0.02157 0.0
C2204 C 0.20332 0.99369 0.04518 0.0
C2205 C 0.19011 1.00326 0.05996 0.0
C2206 C 0.18819 0.01773 0.98736 0.0
C2207 C 0.21808 0.97887 0.05511 0.0
H2208 H 0.22862 0.94516 0.97459 0.0
H2209 H 0.2763 0.00961 0.00218 0.0
H2210 H 0.18637 0.9503 0.0078 0.0
H2211 H 0.17782 0.96273 0.98237 0.0
H2212 H 0.18952 0.9379 0.97853 0.0
H2213 H 0.26558 0.04021 0.02305 0.0
H2214 H 0.23561 0.04033 0.0193 0.0
H2215 H 0.24746 0.02816 0.04351 0.0
H2216 H 0.16649 0.03367 0.02149 0.0
H2217 H 0.19013 0.99949 0.07807 0.0
H2218 H 0.18564 1.00177 0.97462 0.0
H2219 H 0.20475 0.02916 0.98537 0.0
H2220 H 0.17422 0.02624 0.98236 0.0
H2221 H 0.21409 0.96196 0.04367 0.0
H2222 H 0.21561 0.97603 0.0736 0.0
H2223 H 0.23644 0.98707 0.05516 0.0
C2224 C 0.70259 0.6202 0.00251 0.0
C2225 C 0.70411 0.64244 0.01373 0.0
C2226 C 0.68327 0.60233 0.0029 0.0
C2227 C 0.66547 0.60686 0.01523 0.0
C2228 C 0.66751 0.62907 0.02748 0.0
C2229 C 0.68668 0.64661 0.02637 0.0
C2230 C 0.68143 0.57894 0.98931 0.0
C2231 C 0.64909 0.63453 0.04118 0.0
C2232 C 0.60338 0.57502 0.99758 0.0
C2233 C 0.60001 0.56187 0.01608 0.0
C2234 C 0.62505 0.58859 0.9962 0.0
C2235 C 0.64376 0.58916 0.0139 0.0
C2236 C 0.64073 0.57496 0.0319 0.0
C2237 C 0.61881 0.56132 0.03271 0.0
C2238 C 0.62756 0.6034 0.97665 0.0
C2239 C 0.6603 0.57522 0.05109 0.0
H2240 H 0.71607 0.61698 0.99272 0.0
H2241 H 0.68801 0.66373 0.0354 0.0
H2242 H 0.67632 0.56541 0.00052 0.0
H2243 H 0.66788 0.57561 0.9735 0.0
H2244 H 0.69779 0.57745 0.98311 0.0
H2245 H 0.65407 0.65225 0.05106 0.0
H2246 H 0.633 0.63256 0.0287 0.0
H2247 H 0.64532 0.62235 0.05412 0.0
H2248 H 0.58886 0.57526 0.98454 0.0
H2249 H 0.61618 0.55122 0.04707 0.0
H2250 H 0.64251 0.60151 0.96785 0.0
H2251 H 0.63068 0.62168 0.98446 0.0
H2252 H 0.61201 0.59908 0.96287 0.0
H2253 H 0.67521 0.57206 0.04293 0.0
H2254 H 0.65546 0.56215 0.06293 0.0
H2255 H 0.66589 0.59237 0.06217 0.0
C2256 C 0.69007 0.49602 0.27914 0.0
C2257 C 0.67665 0.49503 0.29751 0.0
C2258 C 0.70246 0.47948 0.27447 0.0
C2259 C 0.70098 0.46128 0.28818 0.0
C2260 C 0.6881 0.46061 0.30725 0.0
C2261 C 0.67622 0.47764 0.31183 0.0
C2262 C 0.71648 0.48104 0.2543 0.0
C2263 C 0.68613 0.44142 0.32216 0.0
C2264 C 0.70804 0.40715 0.25337 0.0
C2265 C 0.73103 0.40797 0.26119 0.0
C2266 C 0.69772 0.4238 0.263 0.0
C2267 C 0.71084 0.44176 0.28079 0.0
C2268 C 0.73373 0.44186 0.28981 0.0
C2269 C 0.74361 0.42482 0.27985 0.0
C2270 C 0.67322 0.42294 0.25302 0.0
C2271 C 0.7483 0.46081 0.30862 0.0
H2272 H 0.69073 0.50962 0.26825 0.0
H2273 H 0.66594 0.47685 0.32611 0.0
H2274 H 0.7341 0.47958 0.26053 0.0
H2275 H 0.70864 0.4666 0.23973 0.0
H2276 H 0.7176 0.49737 0.24689 0.0
H2277 H 0.67604 0.44379 0.33684 0.0
H2278 H 0.67775 0.42482 0.31073 0.0
H2279 H 0.70345 0.44025 0.32997 0.0
H2280 H 0.69849 0.39405 0.23883 0.0
H2281 H 0.76152 0.42549 0.28559 0.0
H2282 H 0.67285 0.43745 0.24286 0.0
H2283 H 0.66303 0.42476 0.26769 0.0
H2284 H 0.66483 0.40671 0.24092 0.0
H2285 H 0.75395 0.47641 0.3003 0.0
H2286 H 0.76381 0.45606 0.31695 0.0
H2287 H 0.73839 0.46525 0.32281 0.0
C2288 C 0.87929 0.46088 0.52951 0.0
C2289 C 0.86463 0.46915 0.51381 0.0
C2290 C 0.9028 0.47076 0.53351 0.0
C2291 C 0.91145 0.48853 0.52067 0.0
C2292 C 0.89651 0.49743 0.50538 0.0
C2293 C 0.873 0.48779 0.50246 0.0
C2294 C 0.91844 0.46152 0.55041 0.0
C2295 C 0.90542 0.51591 0.49079 0.0
C2296 C 0.96975 0.52802 0.53229 0.0
C2297 C 0.97973 0.51822 0.51434 0.0
C2298 C 0.94806 0.51708 0.53639 0.0
C2299 C 0.93616 0.49663 0.52135 0.0
C2300 C 0.94684 0.48609 0.50401 0.0
C2301 C 0.9688 0.49714 0.50076 0.0
C2302 C 0.93718 0.52841 0.55529 0.0
C2303 C 0.93438 0.46436 0.48748 0.0
H2304 H 0.87239 0.4463 0.53811 0.0
H2305 H 0.86137 0.49367 0.49002 0.0
H2306 H 0.92923 0.45268 0.54023 0.0
H2307 H 0.93022 0.47576 0.56311 0.0
H2308 H 0.9087 0.44921 0.56069 0.0
H2309 H 0.89137 0.52154 0.48061 0.0
H2310 H 0.91693 0.53105 0.5025 0.0
H2311 H 0.91563 0.5094 0.47793 0.0
H2312 H 0.9784 0.54465 0.54236 0.0
H2313 H 0.9769 0.49003 0.48676 0.0
H2314 H 0.92794 0.51553 0.5653 0.0
H2315 H 0.92445 0.53673 0.54665 0.0
H2316 H 0.9501 0.54169 0.5681 0.0
H2317 H 0.92685 0.45091 0.49784 0.0
H2318 H 0.94584 0.45761 0.47627 0.0
H2319 H 0.92005 0.46777 0.47551 0.0
C2320 C 0.3533 0.0919 0.32623 0.0
C2321 C 0.35097 0.07224 0.30974 0.0
C2322 C 0.34503 0.11035 0.31928 0.0
C2323 C 0.33432 0.10869 0.29549 0.0
C2324 C 0.33017 0.08802 0.27954 0.0
C2325 C 0.33844 0.06995 0.28698 0.0
C2326 C 0.34905 0.13206 0.33675 0.0
C2327 C 0.31881 0.08559 0.25395 0.0
C2328 C 0.30101 0.14675 0.26843 0.0
C2329 C 0.31691 0.15808 0.25518 0.0
C2330 C 0.30718 0.13222 0.28398 0.0
C2331 C 0.32964 0.12897 0.28598 0.0
C2332 C 0.34627 0.14191 0.27424 0.0
C2333 C 0.33964 0.15636 0.25885 0.0
C2334 C 0.28911 0.11866 0.29631 0.0
C2335 C 0.37046 0.13886 0.27605 0.0
H2336 H 0.36294 0.09352 0.34389 0.0
H2337 H 0.33637 0.0545 0.27442 0.0
H2338 H 0.36035 0.14642 0.33022 0.0
H2339 H 0.33256 0.13677 0.33825 0.0
H2340 H 0.3571 0.13029 0.35478 0.0
H2341 H 0.31545 0.06778 0.24453 0.0
H2342 H 0.3023 0.09069 0.25319 0.0
H2343 H 0.33002 0.09711 0.24411 0.0
H2344 H 0.28337 0.14814 0.26557 0.0
H2345 H 0.35197 0.1656 0.24896 0.0
H2346 H 0.29629 0.11754 0.31483 0.0
H2347 H 0.28301 0.10091 0.28663 0.0
H2348 H 0.27411 0.12631 0.29674 0.0
H2349 H 0.37762 0.13876 0.29485 0.0
H2350 H 0.38201 0.15259 0.26884 0.0
H2351 H 0.37031 0.12211 0.26575 0.0
C2352 C 0.34141 0.15122 0.51748 0.0
C2353 C 0.31876 0.13792 0.51454 0.0
C2354 C 0.36009 0.14127 0.52164 0.0
C2355 C 0.35592 0.1176 0.52335 0.0
C2356 C 0.3331 0.10406 0.51999 0.0
C2357 C 0.31482 0.11435 0.51543 0.0
C2358 C 0.38421 0.15607 0.52446 0.0
C2359 C 0.32795 0.07879 0.52197 0.0
C2360 C 0.39889 0.08123 0.51873 0.0
C2361 C 0.4041 0.07847 0.54265 0.0
C2362 C 0.38439 0.0953 0.51218 0.0
C2363 C 0.3751 0.10691 0.53005 0.0
C2364 C 0.38184 0.10557 0.55438 0.0
C2365 C 0.3962 0.09126 0.56037 0.0
C2366 C 0.3778 0.09648 0.48608 0.0
C2367 C 0.37281 0.11819 0.574 0.0
H2368 H 0.34454 0.16942 0.5165 0.0
H2369 H 0.29737 0.104 0.51323 0.0
H2370 H 0.39354 0.15598 0.5424 0.0
H2371 H 0.39373 0.14902 0.51121 0.0
H2372 H 0.38451 0.17409 0.52209 0.0
H2373 H 0.30929 0.07054 0.51809 0.0
H2374 H 0.33679 0.06981 0.50943 0.0
H2375 H 0.33454 0.07637 0.54027 0.0
H2376 H 0.4052 0.07146 0.50504 0.0
H2377 H 0.40078 0.08956 0.57893 0.0
H2378 H 0.37866 0.11443 0.48316 0.0
H2379 H 0.35983 0.08652 0.48 0.0
H2380 H 0.38903 0.08937 0.47485 0.0
H2381 H 0.37603 0.13668 0.57234 0.0
H2382 H 0.38081 0.11641 0.59204 0.0
H2383 H 0.35397 0.11144 0.57236 0.0
C2384 C 0.69704 0.61529 0.28424 0.0
C2385 C 0.67976 0.61674 0.29821 0.0
C2386 C 0.71389 0.63495 0.28233 0.0
C2387 C 0.71356 0.6564 0.29495 0.0
C2388 C 0.69709 0.65758 0.31035 0.0
C2389 C 0.6803 0.63777 0.31164 0.0
C2390 C 0.73127 0.63298 0.26586 0.0
C2391 C 0.69618 0.68006 0.3242 0.0
C2392 C 0.76179 0.71031 0.30104 0.0
C2393 C 0.7538 0.721 0.28241 0.0
C2394 C 0.74957 0.68858 0.3046 0.0
C2395 C 0.72836 0.67797 0.28987 0.0
C2396 C 0.72057 0.68863 0.27074 0.0
C2397 C 0.73392 0.70955 0.26671 0.0
C2398 C 0.75912 0.67718 0.3243 0.0
C2399 C 0.69793 0.67822 0.25474 0.0
H2400 H 0.69667 0.59906 0.27378 0.0
H2401 H 0.66711 0.63888 0.32266 0.0
H2402 H 0.7276 0.64134 0.25002 0.0
H2403 H 0.74879 0.64198 0.27494 0.0
H2404 H 0.73101 0.61485 0.25961 0.0
H2405 H 0.68404 0.67766 0.33733 0.0
H2406 H 0.71341 0.68927 0.33386 0.0
H2407 H 0.69066 0.69116 0.31163 0.0
H2408 H 0.77741 0.71906 0.31298 0.0
H2409 H 0.72884 0.71681 0.25113 0.0
H2410 H 0.75921 0.65933 0.31729 0.0
H2411 H 0.74804 0.67625 0.33843 0.0
H2412 H 0.77686 0.68655 0.33246 0.0
H2413 H 0.69868 0.66193 0.24418 0.0
H2414 H 0.69343 0.68982 0.2422 0.0
H2415 H 0.68395 0.67417 0.2656 0.0
C2416 C 0.84678 0.44502 0.76143 0.0
C2417 C 0.85673 0.45641 0.78419 0.0
C2418 C 0.83186 0.42336 0.75871 0.0
C2419 C 0.82796 0.41303 0.77927 0.0
C2420 C 0.8372 0.42508 0.80238 0.0
C2421 C 0.8513 0.44702 0.80455 0.0
C2422 C 0.8217 0.41088 0.73396 0.0
C2423 C 0.83417 0.4141 0.82465 0.0
C2424 C 0.78505 0.35814 0.78031 0.0
C2425 C 0.79942 0.34304 0.78077 0.0
C2426 C 0.79384 0.38106 0.77835 0.0
C2427 C 0.81733 0.38858 0.77671 0.0
C2428 C 0.83154 0.37301 0.77561 0.0
C2429 C 0.82235 0.3503 0.77784 0.0
C2430 C 0.7785 0.3975 0.77982 0.0
C2431 C 0.85683 0.38066 0.77414 0.0
H2432 H 0.85127 0.45272 0.74588 0.0
H2433 H 0.85949 0.45612 0.82206 0.0
H2434 H 0.83022 0.39687 0.72951 0.0
H2435 H 0.80317 0.40291 0.73314 0.0
H2436 H 0.82381 0.42247 0.72023 0.0
H2437 H 0.84 0.42681 0.84116 0.0
H2438 H 0.81598 0.40523 0.82441 0.0
H2439 H 0.84436 0.40102 0.82544 0.0
H2440 H 0.76727 0.35228 0.78264 0.0
H2441 H 0.83351 0.33866 0.77889 0.0
H2442 H 0.78069 0.40864 0.76572 0.0
H2443 H 0.78337 0.40881 0.79728 0.0
H2444 H 0.76012 0.38841 0.77803 0.0
H2445 H 0.85953 0.3907 0.75922 0.0
H2446 H 0.86487 0.36596 0.77151 0.0
H2447 H 0.86585 0.39197 0.79085 0.0
C2448 C 0.08575 0.87861 0.06688 0.0
C2449 C 0.0678 0.85984 0.06898 0.0
C2450 C 0.08169 0.89989 0.06142 0.0
C2451 C 0.05896 0.90283 0.05693 0.0
C2452 C 0.04071 0.88378 0.05862 0.0
C2453 C 0.04532 0.86293 0.06499 0.0
C2454 C 0.10195 0.91948 0.06077 0.0
C2455 C 0.01615 0.88537 0.05347 0.0
C2456 C 0.05077 0.96517 0.06337 0.0
C2457 C 0.04801 0.96978 0.03966 0.0
C2458 C 0.05359 0.94357 0.06907 0.0
C2459 C 0.05444 0.92576 0.05083 0.0
C2460 C 0.05154 0.93033 0.02683 0.0
C2461 C 0.04806 0.95189 0.02159 0.0
C2462 C 0.05581 0.93988 0.09484 0.0
C2463 C 0.05263 0.91255 0.00654 0.0
H2464 H 0.10323 0.87686 0.07011 0.0
H2465 H 0.03116 0.84878 0.06635 0.0
H2466 H 0.10056 0.92542 0.0431 0.0
H2467 H 0.10199 0.93417 0.07433 0.0
H2468 H 0.11855 0.91466 0.06431 0.0
H2469 H 1.00381 0.86937 0.05561 0.0
H2470 H 0.01336 0.89986 0.06554 0.0
H2471 H 0.0124 0.88891 0.03494 0.0
H2472 H 0.05048 0.9785 0.07763 0.0
H2473 H 0.04598 0.95494 0.0032 0.0
H2474 H 0.07304 0.93717 0.10062 0.0
H2475 H 0.043 0.92423 0.09695 0.0
H2476 H 0.05334 0.95463 0.10683 0.0
H2477 H 0.07007 0.90941 0.00825 0.0
H2478 H 0.04869 0.91792 0.98886 0.0
H2479 H 0.04039 0.89607 0.0073 0.0
C2480 C 0.93058 0.24996 0.88263 0.0
C2481 C 0.93511 0.26208 0.90588 0.0
C2482 C 0.91159 0.25137 0.86616 0.0
C2483 C 0.8973 0.26602 0.87266 0.0
C2484 C 0.90233 0.27879 0.89589 0.0
C2485 C 0.92074 0.27632 0.91222 0.0
C2486 C 0.9067 0.23703 0.84185 0.0
C2487 C 0.88837 0.29533 0.90352 0.0
C2488 C 0.86078 0.28659 0.82376 0.0
C2489 C 0.83849 0.27364 0.82438 0.0
C2490 C 0.87996 0.28419 0.83911 0.0
C2491 C 0.8771 0.26809 0.85538 0.0
C2492 C 0.85465 0.25482 0.85595 0.0
C2493 C 0.8357 0.25803 0.84084 0.0
C2494 C 0.90327 0.29934 0.83825 0.0
C2495 C 0.85064 0.23709 0.87252 0.0
H2496 H 0.94155 0.23894 0.87749 0.0
H2497 H 0.92425 0.28607 0.92998 0.0
H2498 H 0.88843 0.22737 0.83794 0.0
H2499 H 0.90968 0.24832 0.82798 0.0
H2500 H 0.91769 0.22469 0.84036 0.0
H2501 H 0.89551 0.30528 0.92148 0.0
H2502 H 0.88767 0.30752 0.8905 0.0
H2503 H 0.87049 0.28583 0.90386 0.0
H2504 H 0.86321 0.29919 0.81169 0.0
H2505 H 0.81866 0.24817 0.8419 0.0
H2506 H 0.9152 0.28868 0.83357 0.0
H2507 H 0.91053 0.30943 0.8561 0.0
H2508 H 0.9026 0.31138 0.82504 0.0
H2509 H 0.86143 0.22479 0.86938 0.0
H2510 H 0.8324 0.22739 0.87009 0.0
H2511 H 0.85578 0.24546 0.89133 0.0
C2512 C 0.5843 0.21798 0.56366 0.0
C2513 C 0.56609 0.22791 0.56853 0.0
C2514 C 0.58159 0.19387 0.55931 0.0
C2515 C 0.55984 0.17865 0.55879 0.0
C2516 C 0.54121 0.18853 0.56314 0.0
C2517 C 0.54463 0.21278 0.56844 0.0
C2518 C 0.60232 0.18467 0.55581 0.0
C2519 C 0.51751 0.17343 0.56219 0.0
C2520 C 0.55063 0.11677 0.5257 0.0
C2521 C 0.55119 0.10359 0.5444 0.0
C2522 C 0.55285 0.14082 0.53005 0.0
C2523 C 0.55674 0.15259 0.55381 0.0
C2524 C 0.55799 0.13931 0.57277 0.0
C2525 C 0.55472 0.11512 0.56786 0.0
C2526 C 0.5504 0.15355 0.50904 0.0
C2527 C 0.56321 0.15071 0.59839 0.0
H2528 H 0.6011 0.22917 0.56402 0.0
H2529 H 0.53036 0.21991 0.57224 0.0
H2530 H 0.60438 0.17241 0.56847 0.0
H2531 H 0.59995 0.17515 0.53754 0.0
H2532 H 0.61835 0.1985 0.55847 0.0
H2533 H 0.50431 0.18349 0.56294 0.0
H2534 H 0.5128 0.16083 0.54558 0.0
H2535 H 0.51722 0.1636 0.57742 0.0
H2536 H 0.54767 0.10808 0.5075 0.0
H2537 H 0.55524 0.1052 0.58247 0.0
H2538 H 0.56655 0.16653 0.50897 0.0
H2539 H 0.53668 0.16284 0.51056 0.0
H2540 H 0.54619 0.14191 0.49175 0.0
H2541 H 0.58024 0.1631 0.6015 0.0
H2542 H 0.56335 0.13816 0.61113 0.0
H2543 H 0.55038 0.16054 0.60226 0.0
C2544 C 0.57982 0.8043 0.39776 0.0
C2545 C 0.56582 0.78444 0.40348 0.0
C2546 C 0.5982 0.80324 0.38521 0.0
C2547 C 0.60299 0.78179 0.37827 0.0
C2548 C 0.58897 0.76161 0.38397 0.0
C2549 C 0.5705 0.76316 0.39643 0.0
C2550 C 0.61256 0.82521 0.37941 0.0
C2551 C 0.59376 0.73848 0.37742 0.0
C2552 C 0.63872 0.78617 0.3282 0.0
C2553 C 0.66093 0.79309 0.3411 0.0
C2554 C 0.61954 0.78003 0.33984 0.0
C2555 C 0.62272 0.781 0.36499 0.0
C2556 C 0.6453 0.78557 0.37765 0.0
C2557 C 0.66416 0.79178 0.36556 0.0
C2558 C 0.59587 0.77497 0.32552 0.0
C2559 C 0.6496 0.7863 0.40434 0.0
H2560 H 0.57641 0.82082 0.40308 0.0
H2561 H 0.55997 0.74772 0.40097 0.0
H2562 H 0.63065 0.82785 0.38782 0.0
H2563 H 0.61238 0.82409 0.35985 0.0
H2564 H 0.60637 0.84045 0.38569 0.0
H2565 H 0.57983 0.72423 0.38063 0.0
H2566 H 0.59601 0.73581 0.35839 0.0
H2567 H 0.61001 0.73771 0.38823 0.0
H2568 H 0.63623 0.78751 0.30933 0.0
H2569 H 0.68134 0.79746 0.37559 0.0
H2570 H 0.58858 0.79011 0.32866 0.0
H2571 H 0.58424 0.76028 0.33119 0.0
H2572 H 0.59618 0.77108 0.30608 0.0
H2573 H 0.64728 0.80275 0.41317 0.0
H2574 H 0.66731 0.78505 0.41064 0.0
H2575 H 0.63723 0.77221 0.41006 0.0
C2576 C 0.07131 0.2571 0.41386 0.0
C2577 C 0.05114 0.25993 0.40109 0.0
C2578 C 0.07106 0.23773 0.42549 0.0
C2579 C 0.05011 0.22111 0.42437 0.0
C2580 C 0.03005 0.22342 0.41027 0.0
C2581 C 0.03085 0.2428 0.39887 0.0
C2582 C 0.09281 0.23569 0.44007 0.0
C2583 C 1.00726 0.20634 0.40867 0.0
C2584 C 0.04054 0.16183 0.44279 0.0
C2585 C 0.03193 0.16569 0.46417 0.0
C2586 C 0.04875 0.18017 0.43053 0.0
C2587 C 0.04808 0.2027 0.43986 0.0
C2588 C 0.04128 0.20676 0.46254 0.0
C2589 C 0.03326 0.18818 0.47437 0.0
C2590 C 0.05608 0.17516 0.40657 0.0
C2591 C 0.04018 0.23041 0.47324 0.0
H2592 H 0.08688 0.27064 0.41595 0.0
H2593 H 0.01519 0.24529 0.38931 0.0
H2594 H 0.09085 0.23677 0.45921 0.0
H2595 H 0.09619 0.21873 0.43461 0.0
H2596 H 0.10789 0.24934 0.43812 0.0
H2597 H 0.99374 0.20974 0.39557 0.0
H2598 H 0.00897 0.18866 0.40348 0.0
H2599 H 1.00151 0.20708 0.42641 0.0
H2600 H 0.03923 0.14436 0.43478 0.0
H2601 H 0.0264 0.19105 0.49083 0.0
H2602 H 0.07164 0.18822 0.40473 0.0
H2603 H 0.04225 0.17589 0.39223 0.0
H2604 H 0.0596 0.1579 0.4038 0.0
H2605 H 0.05618 0.24324 0.47222 0.0
H2606 H 0.03743 0.23113 0.49217 0.0
H2607 H 0.02578 0.23541 0.46295 0.0
C2608 C 0.60979 0.27729 0.22996 0.0
C2609 C 0.59463 0.25831 0.23625 0.0
C2610 C 0.63409 0.28104 0.23549 0.0
C2611 C 0.64402 0.26514 0.24702 0.0
C2612 C 0.62879 0.24591 0.25324 0.0
C2613 C 0.60464 0.24295 0.24816 0.0
C2614 C 0.6492 0.30208 0.22882 0.0
C2615 C 0.63803 0.22799 0.26486 0.0
C2616 C 0.70662 0.26352 0.23957 0.0
C2617 C 0.71921 0.27378 0.26206 0.0
C2618 C 0.6824 0.26022 0.23466 0.0
C2619 C 0.67012 0.26828 0.25221 0.0
C2620 C 0.68293 0.27895 0.27488 0.0
C2621 C 0.707 0.28108 0.27964 0.0
C2622 C 0.66991 0.24779 0.21063 0.0
C2623 C 0.6713 0.28879 0.29401 0.0
H2624 H 0.60267 0.28933 0.22067 0.0
H2625 H 0.59349 0.22802 0.25295 0.0
H2626 H 0.66239 0.31108 0.24424 0.0
H2627 H 0.65834 0.29698 0.21421 0.0
H2628 H 0.63922 0.31424 0.22278 0.0
H2629 H 0.62416 0.21342 0.26752 0.0
H2630 H 0.64953 0.22125 0.25372 0.0
H2631 H 0.64841 0.23577 0.28245 0.0
H2632 H 0.71571 0.2576 0.22586 0.0
H2633 H 0.71646 0.2892 0.29701 0.0
H2634 H 0.66207 0.25957 0.20079 0.0
H2635 H 0.65578 0.23332 0.21294 0.0
H2636 H 0.68145 0.24099 0.19959 0.0
H2637 H 0.66386 0.30255 0.28757 0.0
H2638 H 0.68333 0.29606 0.31083 0.0
H2639 H 0.65696 0.27543 0.29791 0.0
C2640 C 0.54901 0.88386 0.93522 0.0
C2641 C 0.55766 0.88246 0.9134 0.0
C2642 C 0.54733 0.90469 0.94746 0.0
C2643 C 0.55553 0.92532 0.93851 0.0
C2644 C 0.566 0.92446 0.9175 0.0
C2645 C 0.56667 0.90299 0.90495 0.0
C2646 C 0.53549 0.90434 0.96931 0.0
C2647 C 0.57598 0.94619 0.90804 0.0
C2648 C 0.52808 0.9739 0.95908 0.0
C2649 C 0.54303 0.98474 0.97998 0.0
C2650 C 0.53235 0.95508 0.94485 0.0
C2651 C 0.55247 0.94737 0.95123 0.0
C2652 C 0.56793 0.95891 0.97196 0.0
C2653 C 0.56268 0.97695 0.9863 0.0
C2654 C 0.51478 0.94277 0.92364 0.0
C2655 C 0.58975 0.95181 0.9795 0.0
H2656 H 0.54223 0.86824 0.94226 0.0
H2657 H 0.57331 0.90226 0.88817 0.0
H2658 H 0.54702 0.91535 0.98492 0.0
H2659 H 0.52012 0.91133 0.9662 0.0
H2660 H 0.52997 0.88679 0.97393 0.0
H2661 H 0.58423 0.94286 0.8921 0.0
H2662 H 0.56233 0.9551 0.90324 0.0
H2663 H 0.5889 0.95801 0.92213 0.0
H2664 H 0.51272 0.97973 0.95424 0.0
H2665 H 0.57398 0.98489 0.0026 0.0
H2666 H 0.50696 0.92518 0.92693 0.0
H2667 H 0.52305 0.94105 0.90747 0.0
H2668 H 0.5009 0.95175 0.92004 0.0
H2669 H 0.58566 0.93565 0.98724 0.0
H2670 H 0.60183 0.96502 0.99313 0.0
H2671 H 0.59846 0.94858 0.9639 0.0
C2672 C 0.95642 0.77568 0.73271 0.0
C2673 C 0.9597 0.75356 0.72651 0.0
C2674 C 0.93499 0.77921 0.73827 0.0
C2675 C 0.91566 0.7603 0.73683 0.0
C2676 C 0.91881 0.73801 0.72993 0.0
C2677 C 0.9406 0.73494 0.72536 0.0
C2678 C 0.93314 0.80328 0.74612 0.0
C2679 C 0.89899 0.71722 0.72729 0.0
C2680 C 0.86556 0.76608 0.77196 0.0
C2681 C 0.84804 0.76814 0.75431 0.0
C2682 C 0.88721 0.76337 0.76656 0.0
C2683 C 0.8924 0.7636 0.74291 0.0
C2684 C 0.87495 0.76633 0.7251 0.0
C2685 C 0.85307 0.76812 0.73085 0.0
C2686 C 0.90454 0.76004 0.7863 0.0
C2687 C 0.8795 0.76769 0.69987 0.0
H2688 H 0.97086 0.79029 0.73384 0.0
H2689 H 0.94258 0.71775 0.72038 0.0
H2690 H 0.91861 0.80711 0.73484 0.0
H2691 H 0.92954 0.8049 0.76475 0.0
H2692 H 0.9491 0.8163 0.74523 0.0
H2693 H 0.90388 0.70107 0.72152 0.0
H2694 H 0.89236 0.71597 0.74449 0.0
H2695 H 0.88474 0.71893 0.71398 0.0
H2696 H 0.86218 0.76621 0.79018 0.0
H2697 H 0.84008 0.77023 0.71704 0.0
H2698 H 0.92046 0.77389 0.78841 0.0
H2699 H 0.90921 0.74355 0.78166 0.0
H2700 H 0.89801 0.75997 0.80366 0.0
H2701 H 0.8943 0.78231 0.69973 0.0
H2702 H 0.86446 0.76995 0.68801 0.0
H2703 H 0.88414 0.75189 0.69247 0.0
C2704 C 0.11501 0.05443 0.87099 0.0
C2705 C 0.10119 0.04141 0.85031 0.0
C2706 C 0.10869 0.05214 0.89368 0.0
C2707 C 0.0882 0.03616 0.89578 0.0
C2708 C 0.07467 0.02231 0.87491 0.0
C2709 C 0.08118 0.02534 0.85238 0.0
C2710 C 0.12331 0.06768 0.91527 0.0
C2711 C 0.0528 1.00497 0.87627 0.0
C2712 C 0.07938 0.02103 0.9579 0.0
C2713 C 0.0642 0.03423 0.96422 0.0
C2714 C 0.08709 0.02116 0.93554 0.0
C2715 C 0.07998 0.03534 0.91947 0.0
C2716 C 0.06503 0.04907 0.92613 0.0
C2717 C 0.05711 0.04808 0.94818 0.0
C2718 C 0.10257 0.00589 0.92896 0.0
C2719 C 0.05755 0.06503 0.91005 0.0
H2720 H 0.13028 0.06717 0.8693 0.0
H2721 H 0.07033 0.01554 0.83633 0.0
H2722 H 0.11321 0.07871 0.92363 0.0
H2723 H 0.12856 0.05736 0.92881 0.0
H2724 H 0.13896 0.07886 0.91073 0.0
H2725 H 0.04578 0.99369 0.85898 0.0
H2726 H 0.05581 0.99416 0.89019 0.0
H2727 H 0.03969 0.01399 0.88138 0.0
H2728 H 0.08472 0.01014 0.97014 0.0
H2729 H 0.04544 0.05839 0.953 0.0
H2730 H 0.11927 0.01646 0.92613 0.0
H2731 H 0.09479 0.99448 0.91193 0.0
H2732 H 0.10575 0.99515 0.94293 0.0
H2733 H 0.0728 0.07778 0.90689 0.0
H2734 H 0.04567 0.07437 0.91774 0.0
H2735 H 0.04889 0.05528 0.89244 0.0
C2736 C 0.80426 0.36665 0.55209 0.0
C2737 C 0.80433 0.38922 0.54913 0.0
C2738 C 0.80454 0.35997 0.57467 0.0
C2739 C 0.80534 0.3765 0.59464 0.0
C2740 C 0.80307 0.39871 0.59139 0.0
C2741 C 0.80243 0.40483 0.56843 0.0
C2742 C 0.80645 0.33591 0.57739 0.0
C2743 C 0.80376 0.41669 0.61227 0.0
C2744 C 0.80389 0.34761 0.64915 0.0
C2745 C 0.82723 0.34828 0.65486 0.0
C2746 C 0.79639 0.35914 0.63105 0.0
C2747 C 0.81269 0.37136 0.61855 0.0
C2748 C 0.83645 0.37423 0.62621 0.0
C2749 C 0.84344 0.36244 0.64425 0.0
C2750 C 0.77099 0.35631 0.62379 0.0
C2751 C 0.85443 0.38773 0.61373 0.0
H2752 H 0.80559 0.35467 0.53698 0.0
H2753 H 0.80265 0.42238 0.56603 0.0
H2754 H 0.82394 0.33643 0.5863 0.0
H2755 H 0.79408 0.32815 0.58872 0.0
H2756 H 0.8032 0.32464 0.55992 0.0
H2757 H 0.7961 0.43062 0.6066 0.0
H2758 H 0.79461 0.40911 0.62623 0.0
H2759 H 0.82186 0.42444 0.62041 0.0
H2760 H 0.79137 0.3368 0.65765 0.0
H2761 H 0.86153 0.36339 0.64926 0.0
H2762 H 0.7647 0.34265 0.60815 0.0
H2763 H 0.76732 0.37234 0.61852 0.0
H2764 H 0.76123 0.35132 0.63841 0.0
H2765 H 0.85453 0.3778 0.59617 0.0
H2766 H 0.87188 0.39135 0.62423 0.0
H2767 H 0.85053 0.40424 0.61044 0.0
C2768 C 0.44458 0.04544 0.3757 0.0
C2769 C 0.42478 0.02779 0.36894 0.0
C2770 C 0.45834 0.04679 0.39745 0.0
C2771 C 0.45126 0.03066 0.41276 0.0
C2772 C 0.42986 0.01451 0.40711 0.0
C2773 C 0.41695 0.01292 0.38477 0.0
C2774 C 0.48155 0.06364 0.40268 0.0
C2775 C 0.42162 0.99779 0.42374 0.0
C2776 C 0.49933 0.01394 0.44866 0.0
C2777 C 0.50223 0.02907 0.46977 0.0
C2778 C 0.48231 0.01395 0.42989 0.0
C2779 C 0.46761 0.02888 0.433 0.0
C2780 C 0.47 0.04355 0.45462 0.0
C2781 C 0.48797 0.04415 0.47244 0.0
C2782 C 0.48053 0.99857 0.40658 0.0
C2783 C 0.45403 0.05902 0.45872 0.0
H2784 H 0.45054 0.05655 0.36298 0.0
H2785 H 0.40152 0.99925 0.3791 0.0
H2786 H 0.48435 0.0733 0.42092 0.0
H2787 H 0.49519 0.05415 0.4018 0.0
H2788 H 0.48357 0.07608 0.38976 0.0
H2789 H 0.40328 0.9887 0.4182 0.0
H2790 H 0.43193 0.98481 0.42398 0.0
H2791 H 0.42392 0.00681 0.44225 0.0
H2792 H 0.51052 1.00238 0.44674 0.0
H2793 H 0.4909 0.0566 0.48839 0.0
H2794 H 0.4827 0.00906 0.39192 0.0
H2795 H 0.4633 0.98661 0.40215 0.0
H2796 H 0.49363 0.98835 0.40714 0.0
H2797 H 0.45792 0.07353 0.44844 0.0
H2798 H 0.45576 0.06613 0.47787 0.0
H2799 H 0.43594 0.04956 0.45241 0.0
C2800 C 0.79233 0.7193 0.09794 0.0
C2801 C 0.78092 0.73013 0.0815 0.0
C2802 C 0.79438 0.72615 0.12277 0.0
C2803 C 0.78464 0.74412 0.13141 0.0
C2804 C 0.77399 0.75568 0.1149 0.0
C2805 C 0.77239 0.74868 0.0903 0.0
C2806 C 0.80611 0.71352 0.13974 0.0
C2807 C 0.76343 0.77496 0.12322 0.0
C2808 C 0.76474 0.74685 0.19241 0.0
C2809 C 0.78218 0.76442 0.20605 0.0
C2810 C 0.76568 0.73963 0.16829 0.0
C2811 C 0.78448 0.75033 0.15758 0.0
C2812 C 0.80226 0.76798 0.17156 0.0
C2813 C 0.80091 0.77475 0.19567 0.0
C2814 C 0.74643 0.72068 0.15421 0.0
C2815 C 0.82267 0.77974 0.16104 0.0
H2816 H 0.79894 0.70492 0.09146 0.0
H2817 H 0.7636 0.75729 0.07791 0.0
H2818 H 0.81858 0.7258 0.15383 0.0
H2819 H 0.79316 0.70303 0.14875 0.0
H2820 H 0.81524 0.70201 0.13045 0.0
H2821 H 0.75634 0.78267 0.10817 0.0
H2822 H 0.74939 0.76847 0.13334 0.0
H2823 H 0.77643 0.7886 0.13548 0.0
H2824 H 0.75044 0.7387 0.20067 0.0
H2825 H 0.81455 0.78811 0.20647 0.0
H2826 H 0.75341 0.70654 0.14645 0.0
H2827 H 0.73777 0.7272 0.13916 0.0
H2828 H 0.73345 0.71364 0.16533 0.0
H2829 H 0.83188 0.76697 0.15445 0.0
H2830 H 0.83489 0.79331 0.1742 0.0
H2831 H 0.81687 0.78759 0.14552 0.0
C2832 C 0.08336 0.02517 0.70431 0.0
C2833 C 0.09387 0.04701 0.71696 0.0
C2834 C 0.07535 0.02224 0.67958 0.0
C2835 C 0.07883 0.04146 0.66713 0.0
C2836 C 0.09016 0.06339 0.67985 0.0
C2837 C 0.09711 0.06593 0.7046 0.0
C2838 C 0.06287 0.99867 0.66683 0.0
C2839 C 0.09504 0.08423 0.66729 0.0
C2840 C 0.07791 0.03298 0.5997 0.0
C2841 C 0.05685 0.03749 0.59123 0.0
C2842 C 0.08508 0.03382 0.62424 0.0
C2843 C 0.07071 0.0389 0.64085 0.0
C2844 C 0.04919 0.04297 0.63237 0.0
C2845 C 0.04259 0.04235 0.60773 0.0
C2846 C 0.10839 0.02997 0.63241 0.0
C2847 C 0.03317 0.04814 0.64936 0.0
H2848 H 0.08082 0.01054 0.71385 0.0
H2849 H 0.1055 0.08279 0.71433 0.0
H2850 H 0.04592 0.99921 0.65733 0.0
H2851 H 0.07273 0.99292 0.65321 0.0
H2852 H 0.0602 0.98581 0.67926 0.0
H2853 H 0.10546 0.09971 0.67943 0.0
H2854 H 0.10432 0.08096 0.65216 0.0
H2855 H 0.07869 0.08788 0.65979 0.0
H2856 H 0.0891 0.02923 0.58716 0.0
H2857 H 0.02618 0.04562 0.60139 0.0
H2858 H 0.10671 0.01569 0.64313 0.0
H2859 H 0.11921 0.04554 0.64408 0.0
H2860 H 0.11739 0.02592 0.61725 0.0
H2861 H 0.02945 0.03418 0.66038 0.0
H2862 H 0.01672 0.05009 0.63991 0.0
H2863 H 0.04145 0.06419 0.66172 0.0
C2864 C 0.80121 0.40227 0.41668 0.0
C2865 C 0.81028 0.399 0.43933 0.0
C2866 C 0.80124 0.38667 0.39674 0.0
C2867 C 0.80985 0.3672 0.4 0.0
C2868 C 0.81935 0.36405 0.42283 0.0
C2869 C 0.81975 0.38029 0.44232 0.0
C2870 C 0.79148 0.39064 0.37236 0.0
C2871 C 0.82805 0.34306 0.4268 0.0
C2872 C 0.7821 0.31855 0.35134 0.0
C2873 C 0.79966 0.31916 0.33764 0.0
C2874 C 0.78589 0.33305 0.37292 0.0
C2875 C 0.8072 0.34932 0.37969 0.0
C2876 C 0.82518 0.34952 0.36604 0.0
C2877 C 0.8214 0.33357 0.34546 0.0
C2878 C 0.76686 0.33157 0.38792 0.0
C2879 C 0.84762 0.36748 0.37213 0.0
H2880 H 0.79409 0.41695 0.41458 0.0
H2881 H 0.82656 0.37781 0.46002 0.0
H2882 H 0.80321 0.38822 0.35932 0.0
H2883 H 0.77489 0.37795 0.36593 0.0
H2884 H 0.78849 0.40809 0.37259 0.0
H2885 H 0.8353 0.34354 0.44574 0.0
H2886 H 0.81379 0.32746 0.42136 0.0
H2887 H 0.84146 0.34143 0.41558 0.0
H2888 H 0.76545 0.30685 0.34508 0.0
H2889 H 0.83495 0.33328 0.33472 0.0
H2890 H 0.7592 0.34645 0.38658 0.0
H2891 H 0.77367 0.33212 0.40698 0.0
H2892 H 0.75305 0.31563 0.38207 0.0
H2893 H 0.84452 0.38443 0.36927 0.0
H2894 H 0.86049 0.36381 0.36091 0.0
H2895 H 0.85492 0.36889 0.39116 0.0
C2896 C 0.42997 0.04665 0.23104 0.0
C2897 C 0.4416 0.03732 0.24868 0.0
C2898 C 0.43455 0.04408 0.20756 0.0
C2899 C 0.45058 0.03142 0.20182 0.0
C2900 C 0.4642 0.02437 0.2201 0.0
C2901 C 0.45987 0.02793 0.24349 0.0
C2902 C 0.42082 0.05306 0.18862 0.0
C2903 C 0.48159 0.01085 0.2147 0.0
C2904 C 0.43979 0.98935 0.14547 0.0
C2905 C 0.45868 0.99847 0.13465 0.0
C2906 C 0.43596 1.00076 0.16674 0.0
C2907 C 0.45083 0.02226 0.17681 0.0
C2908 C 0.46833 0.03275 0.16466 0.0
C2909 C 0.47249 0.02048 0.1441 0.0
C2910 C 0.41723 0.98884 0.17944 0.0
C2911 C 0.48372 0.05621 0.17423 0.0
H2912 H 0.41617 0.05443 0.23514 0.0
H2913 H 0.46927 0.02115 0.25719 0.0
H2914 H 0.43181 0.06038 0.17583 0.0
H2915 H 0.40695 0.03879 0.17839 0.0
H2916 H 0.41285 0.06639 0.19651 0.0
H2917 H 0.49065 0.00662 0.23107 0.0
H2918 H 0.47291 0.99458 0.2028 0.0
H2919 H 0.49455 0.02067 0.20524 0.0
H2920 H 0.42859 0.97278 0.13793 0.0
H2921 H 0.4874 0.02782 0.13632 0.0
H2922 H 0.40621 1.00043 0.18435 0.0
H2923 H 0.42505 0.98419 0.19621 0.0
H2924 H 0.4062 0.97298 0.16839 0.0
H2925 H 0.47382 0.06784 0.18189 0.0
H2926 H 0.49245 0.0641 0.16013 0.0
H2927 H 0.4971 0.05477 0.18867 0.0
C2928 C 0.79451 0.71529 0.93945 0.0
C2929 C 0.77277 0.714 0.94615 0.0
C2930 C 0.79917 0.72148 0.91712 0.0
C2931 C 0.7815 0.72583 0.90089 0.0
C2932 C 0.75921 0.72313 0.9071 0.0
C2933 C 0.75523 0.71762 0.92968 0.0
C2934 C 0.82326 0.72456 0.91144 0.0
C2935 C 0.73961 0.72674 0.8901 0.0
C2936 C 0.79088 0.76907 0.85782 0.0
C2937 C 0.79002 0.75545 0.83595 0.0
C2938 C 0.79038 0.75981 0.87922 0.0
C2939 C 0.78653 0.73583 0.87874 0.0
C2940 C 0.78488 0.72169 0.85667 0.0
C2941 C 0.78741 0.73174 0.83572 0.0
C2942 C 0.79309 0.77578 0.90231 0.0
C2943 C 0.77972 0.69594 0.85498 0.0
H2944 H 0.80811 0.71239 0.95203 0.0
H2945 H 0.73824 0.71618 0.93449 0.0
H2946 H 0.82315 0.71519 0.89355 0.0
H2947 H 0.83073 0.743 0.91099 0.0
H2948 H 0.83452 0.7185 0.92481 0.0
H2949 H 0.72282 0.72122 0.89633 0.0
H2950 H 0.74245 0.74516 0.88823 0.0
H2951 H 0.73875 0.71711 0.87213 0.0
H2952 H 0.79126 0.78697 0.85837 0.0
H2953 H 0.78631 0.72084 0.81899 0.0
H2954 H 0.80488 0.77124 0.9164 0.0
H2955 H 0.77623 0.77413 0.90854 0.0
H2956 H 0.7999 0.79398 0.90024 0.0
H2957 H 0.79475 0.69087 0.86385 0.0
H2958 H 0.77568 0.68731 0.83618 0.0
H2959 H 0.76499 0.68959 0.86428 0.0
C2960 C 0.83159 0.07595 0.06647 0.0
C2961 C 0.82127 0.08847 0.05123 0.0
C2962 C 0.85056 0.06809 0.0607 0.0
C2963 C 0.85901 0.07314 0.03941 0.0
C2964 C 0.84799 0.085 0.0236 0.0
C2965 C 0.82909 0.0923 0.02964 0.0
C2966 C 0.86204 0.05533 0.07773 0.0
C2967 C 0.8565 0.09067 0.00061 0.0
C2968 C 0.91774 0.08037 0.02404 0.0
C2969 C 0.91401 0.06124 0.00661 0.0
C2970 C 0.90063 0.08305 0.03765 0.0
C2971 C 0.87944 0.06642 0.033 0.0
C2972 C 0.8764 0.0462 0.01673 0.0
C2973 C 0.89389 0.04382 0.00368 0.0
C2974 C 0.90441 0.10466 0.05522 0.0
C2975 C 0.85384 0.02834 0.01118 0.0
H2976 H 0.82541 0.07304 0.08316 0.0
H2977 H 0.82081 0.10165 0.01762 0.0
H2978 H 0.86579 0.04001 0.06797 0.0
H2979 H 0.87864 0.06662 0.08688 0.0
H2980 H 0.85134 0.04984 0.09149 0.0
H2981 H 0.84544 0.09959 0.99019 0.0
H2982 H 0.87413 0.1019 0.0046 0.0
H2983 H 0.85719 0.0748 0.98921 0.0
H2984 H 0.93381 0.09332 0.02671 0.0
H2985 H 0.89153 0.02877 0.99046 0.0
H2986 H 0.89641 0.10107 0.07129 0.0
H2987 H 0.8963 0.11706 0.04674 0.0
H2988 H 0.92296 0.11285 0.06083 0.0
H2989 H 0.8466 0.02501 0.02772 0.0
H2990 H 0.85568 0.01193 0.0017 0.0
H2991 H 0.84132 0.03476 -0.00039 0.0
C2992 C 0.39282 0.42164 0.03749 0.0
C2993 C 0.37127 0.42585 0.03989 0.0
C2994 C 0.4114 0.43919 0.03493 0.0
C2995 C 0.4086 0.46176 0.03512 0.0
C2996 C 0.387 0.4663 0.03762 0.0
C2997 C 0.36847 0.44822 0.03982 0.0
C2998 C 0.4341 0.43353 0.03212 0.0
C2999 C 0.38358 0.49025 0.03803 0.0
C3000 C 0.46584 0.50467 0.05223 0.0
C3001 C 0.47144 0.50885 0.02986 0.0
C3002 C 0.44446 0.4909 0.05435 0.0
C3003 C 0.42873 0.48048 0.03346 0.0
C3004 C 0.43402 0.48554 0.01084 0.0
C3005 C 0.45532 0.50003 0.00935 0.0
C3006 C 0.43943 0.48618 0.07879 0.0
C3007 C 0.41816 0.47409 0.9881 0.0
H3008 H 0.39522 0.40442 0.03733 0.0
H3009 H 0.35187 0.45161 0.04155 0.0
H3010 H 0.44029 0.43965 0.01594 0.0
H3011 H 0.44718 0.44241 0.04766 0.0
H3012 H 0.43296 0.41484 0.03073 0.0
H3013 H 0.3659 0.4911 0.04065 0.0
H3014 H 0.39594 0.50208 0.05257 0.0
H3015 H 0.38709 0.49652 0.02102 0.0
H3016 H 0.47859 0.51146 0.06799 0.0
H3017 H 0.46006 0.50298 0.99205 0.0
H3018 H 0.44025 0.46837 0.08087 0.0
H3019 H 0.42188 0.48773 0.08102 0.0
H3020 H 0.4519 0.49806 0.09325 0.0
H3021 H 0.41857 0.45577 0.98483 0.0
H3022 H 0.42323 0.48216 0.97242 0.0
H3023 H 0.40023 0.47469 0.98963 0.0
C3024 C 0.38495 0.57364 0.75505 0.0
C3025 C 0.40097 0.57463 0.77538 0.0
C3026 C 0.37141 0.58969 0.75396 0.0
C3027 C 0.37409 0.60714 0.77358 0.0
C3028 C 0.3904 0.60833 0.79398 0.0
C3029 C 0.40355 0.59208 0.79462 0.0
C3030 C 0.35423 0.58797 0.73192 0.0
C3031 C 0.39382 0.62662 0.81538 0.0
C3032 C 0.35709 0.66351 0.77462 0.0
C3033 C 0.33893 0.65947 0.78779 0.0
C3034 C 0.36743 0.64579 0.76746 0.0
C3035 C 0.35933 0.62373 0.77377 0.0
C3036 C 0.33937 0.61914 0.78475 0.0
C3037 C 0.32945 0.63714 0.79171 0.0
C3038 C 0.38851 0.65132 0.75555 0.0
C3039 C 0.33003 0.59588 0.79164 0.0
H3040 H 0.3829 0.56026 0.74005 0.0
H3041 H 0.4159 0.59308 0.81037 0.0
H3042 H 0.33691 0.58714 0.7368 0.0
H3043 H 0.35894 0.60354 0.72331 0.0
H3044 H 0.35334 0.57269 0.71873 0.0
H3045 H 0.40772 0.62555 0.8295 0.0
H3046 H 0.3981 0.64388 0.80988 0.0
H3047 H 0.3777 0.62495 0.82315 0.0
H3048 H 0.3645 0.68088 0.77182 0.0
H3049 H 0.31544 0.63417 0.80204 0.0
H3050 H 0.38809 0.63741 0.74093 0.0
H3051 H 0.40399 0.65278 0.76879 0.0
H3052 H 0.39022 0.66773 0.7482 0.0
H3053 H 0.32914 0.58209 0.77673 0.0
H3054 H 0.31269 0.59421 0.79679 0.0
H3055 H 0.34171 0.59319 0.80703 0.0
C3056 C 0.20539 0.57625 0.54679 0.0
C3057 C 0.21339 0.59989 0.548 0.0
C3058 C 0.18207 0.56607 0.53931 0.0
C3059 C 0.16723 0.58009 0.53277 0.0
C3060 C 0.17577 0.60368 0.5323 0.0
C3061 C 0.19888 0.61332 0.54005 0.0
C3062 C 0.17304 0.5408 0.53988 0.0
C3063 C 0.1603 0.61911 0.52558 0.0
C3064 C 0.10551 0.55568 0.50612 0.0
C3065 C 0.09531 0.55794 0.52654 0.0
C3066 C 0.12929 0.56256 0.50779 0.0
C3067 C 0.14251 0.57129 0.53049 0.0
C3068 C 0.13202 0.5735 0.55115 0.0
C3069 C 0.10832 0.56689 0.54883 0.0
C3070 C 0.14022 0.5605 0.48551 0.0
C3071 C 0.14571 0.58289 0.57565 0.0
H3072 H 0.21707 0.56607 0.55256 0.0
H3073 H 0.20559 0.63159 0.54041 0.0
H3074 H 0.16269 0.53844 0.55456 0.0
H3075 H 0.16158 0.53254 0.52299 0.0
H3076 H 0.18709 0.53189 0.54268 0.0
H3077 H 0.17019 0.63619 0.52278 0.0
H3078 H 0.14808 0.61119 0.5091 0.0
H3079 H 0.15009 0.62168 0.54008 0.0
H3080 H 0.09501 0.54813 0.4891 0.0
H3081 H 0.0999 0.5683 0.56445 0.0
H3082 H 0.1521 0.54907 0.48722 0.0
H3083 H 0.15054 0.57751 0.48317 0.0
H3084 H 0.1273 0.55359 0.46925 0.0
H3085 H 0.15789 0.57229 0.58024 0.0
H3086 H 0.13461 0.58318 0.58976 0.0
H3087 H 0.15595 0.6006 0.5758 0.0
C3088 C 0.7099 0.97711 0.74171 0.0
C3089 C 0.72508 0.99495 0.73404 0.0
C3090 C 0.71719 0.95833 0.74861 0.0
C3091 C 0.74008 0.95732 0.74736 0.0
C3092 C 0.75479 0.97403 0.73727 0.0
C3093 C 0.74706 0.99288 0.73069 0.0
C3094 C 0.70103 0.94079 0.75937 0.0
C3095 C 0.7791 0.97285 0.73514 0.0
C3096 C 0.76083 0.92876 0.7975 0.0
C3097 C 0.75719 0.90639 0.78597 0.0
C3098 C 0.75704 0.94609 0.78458 0.0
C3099 C 0.74909 0.94056 0.75974 0.0
C3100 C 0.74628 0.9181 0.74788 0.0
C3101 C 0.75047 0.90117 0.76124 0.0
C3102 C 0.76046 0.97003 0.79772 0.0
C3103 C 0.7376 0.91165 0.72147 0.0
H3104 H 0.6927 0.97853 0.74381 0.0
H3105 H 0.75868 0.00663 0.72452 0.0
H3106 H 0.70078 0.92317 0.7513 0.0
H3107 H 0.70707 0.94242 0.77879 0.0
H3108 H 0.68321 0.94298 0.75693 0.0
H3109 H 0.78757 0.98604 0.72494 0.0
H3110 H 0.78928 0.97546 0.7532 0.0
H3111 H 0.77935 0.95566 0.72623 0.0
H3112 H 0.76669 0.93263 0.81657 0.0
H3113 H 0.7481 0.88374 0.75248 0.0
H3114 H 0.74356 0.97418 0.7981 0.0
H3115 H 0.77082 0.98278 0.7884 0.0
H3116 H 0.76913 0.9719 0.8164 0.0
H3117 H 0.71876 0.90961 0.71833 0.0
H3118 H 0.74126 0.89525 0.71421 0.0
H3119 H 0.74536 0.92527 0.7114 0.0
C3120 C 0.73522 0.91545 0.53404 0.0
C3121 C 0.75718 0.93024 0.53982 0.0
C3122 C 0.71564 0.92405 0.53041 0.0
C3123 C 0.71811 0.94801 0.53213 0.0
C3124 C 0.74013 0.96308 0.5388 0.0
C3125 C 0.75944 0.95401 0.54274 0.0
C3126 C 0.69234 0.90746 0.52403 0.0
C3127 C 0.74335 0.98874 0.54101 0.0
C3128 C 0.6708 0.96362 0.49274 0.0
C3129 C 0.65658 0.9685 0.50914 0.0
C3130 C 0.69149 0.95808 0.50026 0.0
C3131 C 0.69784 0.95697 0.52473 0.0
C3132 C 0.68388 0.96271 0.54151 0.0
C3133 C 0.66342 0.96859 0.53349 0.0
C3134 C 0.70618 0.95266 0.48188 0.0
C3135 C 0.68974 0.96137 0.56769 0.0
H3136 H 0.7333 0.89706 0.53217 0.0
H3137 H 0.77635 0.96554 0.54738 0.0
H3138 H 0.68046 0.91232 0.53589 0.0
H3139 H 0.68492 0.9082 0.50546 0.0
H3140 H 0.69316 0.88952 0.52548 0.0
H3141 H 0.76147 0.99815 0.54738 0.0
H3142 H 0.73781 0.99349 0.52342 0.0
H3143 H 0.73244 0.99444 0.55356 0.0
H3144 H 0.66555 0.96391 0.47394 0.0
H3145 H 0.6523 0.97237 0.54611 0.0
H3146 H 0.70648 0.93431 0.48049 0.0
H3147 H 0.72411 0.96292 0.4874 0.0
H3148 H 0.69976 0.95617 0.46395 0.0
H3149 H 0.68442 0.94324 0.57059 0.0
H3150 H 0.68068 0.97157 0.57882 0.0
H3151 H 0.70846 0.96745 0.57393 0.0
C3152 C 0.40571 0.43104 0.77032 0.0
C3153 C 0.39988 0.44848 0.75851 0.0
C3154 C 0.38913 0.41132 0.77221 0.0
C3155 C 0.36617 0.40864 0.76152 0.0
C3156 C 0.36004 0.42619 0.74967 0.0
C3157 C 0.37696 0.44611 0.74856 0.0
C3158 C 0.39627 0.39326 0.78551 0.0
C3159 C 0.33571 0.42379 0.73802 0.0
C3160 C 0.33318 0.34641 0.74728 0.0
C3161 C 0.32131 0.34401 0.76675 0.0
C3162 C 0.34684 0.36774 0.74465 0.0
C3163 C 0.34896 0.38697 0.76215 0.0
C3164 C 0.33639 0.38476 0.78146 0.0
C3165 C 0.3226 0.36329 0.78346 0.0
C3166 C 0.35974 0.36948 0.72366 0.0
C3167 C 0.33852 0.40469 0.80078 0.0
H3168 H 0.4233 0.43296 0.77846 0.0
H3169 H 0.37235 0.45961 0.73956 0.0
H3170 H 0.38527 0.38922 0.79939 0.0
H3171 H 0.39397 0.3772 0.77299 0.0
H3172 H 0.41446 0.39872 0.79423 0.0
H3173 H 0.33378 0.43879 0.72915 0.0
H3174 H 0.33011 0.4081 0.72455 0.0
H3175 H 0.324 0.42181 0.75156 0.0
H3176 H 0.33204 0.33151 0.73428 0.0
H3177 H 0.31361 0.36138 0.79868 0.0
H3178 H 0.37843 0.37298 0.73002 0.0
H3179 H 0.35676 0.38397 0.71448 0.0
H3180 H 0.35461 0.35351 0.71053 0.0
H3181 H 0.35572 0.40858 0.8118 0.0
H3182 H 0.32534 0.40098 0.81267 0.0
H3183 H 0.33695 0.42028 0.79291 0.0
C3184 C 0.2404 0.62505 0.30143 0.0
C3185 C 0.2385 0.61313 0.27851 0.0
C3186 C 0.252 0.64812 0.30666 0.0
C3187 C 0.26114 0.65905 0.28822 0.0
C3188 C 0.26208 0.64617 0.26618 0.0
C3189 C 0.25102 0.62296 0.26177 0.0
C3190 C 0.25147 0.6614 0.33055 0.0
C3191 C 0.27138 0.65745 0.24591 0.0
C3192 C 0.25091 0.71545 0.27609 0.0
C3193 C 0.27345 0.72836 0.27928 0.0
C3194 C 0.24631 0.69299 0.28099 0.0
C3195 C 0.26487 0.6839 0.28961 0.0
C3196 C 0.28739 0.69782 0.29506 0.0
C3197 C 0.29153 0.71985 0.28908 0.0
C3198 C 0.22204 0.67838 0.27444 0.0
C3199 C 0.30733 0.6888 0.30493 0.0
H3200 H 0.23078 0.61706 0.31435 0.0
H3201 H 0.24941 0.61352 0.24405 0.0
H3202 H 0.2675 0.67501 0.3365 0.0
H3203 H 0.23699 0.66983 0.32901 0.0
H3204 H 0.249 0.64996 0.34439 0.0
H3205 H 0.27336 0.6447 0.23119 0.0
H3206 H 0.25939 0.66725 0.23856 0.0
H3207 H 0.28822 0.6697 0.25224 0.0
H3208 H 0.2372 0.7223 0.26807 0.0
H3209 H 0.30903 0.73 0.29094 0.0
H3210 H 0.21712 0.66836 0.28886 0.0
H3211 H 0.22086 0.66603 0.25812 0.0
H3212 H 0.20944 0.68884 0.27086 0.0
H3213 H 0.30248 0.6777 0.31856 0.0
H3214 H 0.32242 0.70295 0.313 0.0
H3215 H 0.31246 0.67828 0.29031 0.0
C3216 C 0.49084 0.68437 0.47781 0.0
C3217 C 0.50811 0.70488 0.4804 0.0
C3218 C 0.49562 0.66334 0.4833 0.0
C3219 C 0.51823 0.66237 0.49272 0.0
C3220 C 0.53572 0.68315 0.49567 0.0
C3221 C 0.5306 0.70377 0.48911 0.0
C3222 C 0.47628 0.64198 0.47895 0.0
C3223 C 0.56002 0.68364 0.50586 0.0
C3224 C 0.5263 0.61249 0.52834 0.0
C3225 C 0.53125 0.59634 0.51124 0.0
C3226 C 0.52195 0.63363 0.52262 0.0
C3227 C 0.52341 0.63977 0.49935 0.0
C3228 C 0.52931 0.62381 0.48231 0.0
C3229 C 0.53261 0.60239 0.48824 0.0
C3230 C 0.51529 0.64928 0.54152 0.0
C3231 C 0.53195 0.62924 0.45754 0.0
H3232 H 0.47342 0.68464 0.47099 0.0
H3233 H 0.54423 0.71928 0.4914 0.0
H3234 H 0.48072 0.62827 0.46717 0.0
H3235 H 0.47365 0.63554 0.49607 0.0
H3236 H 0.4599 0.64503 0.47056 0.0
H3237 H 0.57135 0.70124 0.50895 0.0
H3238 H 0.5604 0.67666 0.52301 0.0
H3239 H 0.56708 0.67255 0.49344 0.0
H3240 H 0.52507 0.60826 0.54615 0.0
H3241 H 0.53661 0.59041 0.47478 0.0
H3242 H 0.49799 0.65168 0.53541 0.0
H3243 H 0.52744 0.66642 0.54449 0.0
H3244 H 0.51506 0.64245 0.55875 0.0
H3245 H 0.51502 0.62946 0.44779 0.0
H3246 H 0.53903 0.61652 0.44717 0.0
H3247 H 0.54345 0.64652 0.45843 0.0
C3248 C 0.63515 0.28402 0.66037 0.0
C3249 C 0.63449 0.3049 0.65224 0.0
C3250 C 0.65369 0.28205 0.6769 0.0
C3251 C 0.67169 0.30167 0.68644 0.0
C3252 C 0.67057 0.32302 0.67895 0.0
C3253 C 0.65235 0.32425 0.66151 0.0
C3254 C 0.65435 0.25877 0.68357 0.0
C3255 C 0.68875 0.3446 0.68919 0.0
C3256 C 0.70945 0.29744 0.74409 0.0
C3257 C 0.72969 0.29423 0.73611 0.0
C3258 C 0.69085 0.30059 0.72843 0.0
C3259 C 0.69191 0.29968 0.70368 0.0
C3260 C 0.71234 0.29667 0.6954 0.0
C3261 C 0.73109 0.29476 0.71171 0.0
C3262 C 0.6701 0.30502 0.73851 0.0
C3263 C 0.71419 0.29478 0.66915 0.0
H3264 H 0.62158 0.26893 0.65295 0.0
H3265 H 0.65202 0.34039 0.65518 0.0
H3266 H 0.67094 0.25482 0.68071 0.0
H3267 H 0.65305 0.25872 0.70276 0.0
H3268 H 0.64018 0.24492 0.67304 0.0
H3269 H 0.68375 0.36021 0.68426 0.0
H3270 H 0.69212 0.34617 0.70894 0.0
H3271 H 0.70504 0.34387 0.68251 0.0
H3272 H 0.70816 0.29796 0.76271 0.0
H3273 H 0.74672 0.29318 0.70504 0.0
H3274 H 0.65516 0.29026 0.73215 0.0
H3275 H 0.66563 0.32036 0.7322 0.0
H3276 H 0.67291 0.30774 0.75834 0.0
H3277 H 0.70048 0.28019 0.65915 0.0
H3278 H 0.73106 0.29211 0.66547 0.0
H3279 H 0.71163 0.31049 0.66214 0.0
C3280 C 0.01506 0.3506 0.96515 0.0
C3281 C 0.01114 0.33651 0.98299 0.0
C3282 C 0.01708 0.37464 0.96959 0.0
C3283 C 0.01587 0.3855 0.99271 0.0
C3284 C 0.01248 0.37144 0.01092 0.0
C3285 C 0.00982 0.34735 0.0058 0.0
C3286 C 0.02004 0.3884 0.94928 0.0
C3287 C 0.01147 0.38185 0.03596 0.0
C3288 C 0.04244 0.45088 0.00889 0.0
C3289 C 0.0232 0.46039 0.00756 0.0
C3290 C 0.0403 0.42688 0.0044 0.0
C3291 C 0.01832 0.41142 0.99787 0.0
C3292 C 0.99881 0.42092 0.99633 0.0
C3293 C 1.00147 0.44504 0.00125 0.0
C3294 C 0.06172 0.41807 0.00696 0.0
C3295 C 0.975 0.4056 0.98896 0.0
H3296 H 0.01576 0.34268 0.94733 0.0
H3297 H 1.00666 0.33692 0.01982 0.0
H3298 H 1.00651 0.39801 0.94734 0.0
H3299 H 0.03681 0.40119 0.95317 0.0
H3300 H 0.01924 0.37744 0.93206 0.0
H3301 H 0.01046 0.3691 0.04856 0.0
H3302 H 0.02686 0.39612 0.04253 0.0
H3303 H 0.99625 0.38916 0.03602 0.0
H3304 H 0.0594 0.46227 0.01388 0.0
H3305 H 0.98649 0.4519 -0.00044 0.0
H3306 H 0.06342 0.40882 0.98961 0.0
H3307 H 0.06053 0.40566 0.01991 0.0
H3308 H 0.07746 0.43206 0.01308 0.0
H3309 H 0.97323 0.3972 0.97028 0.0
H3310 H 0.96149 0.41522 0.99019 0.0
H3311 H 0.97203 0.39182 0.00027 0.0
C3312 C 0.99751 0.79325 0.14652 0.0
C3313 C 0.01819 0.79166 0.15955 0.0
C3314 C 0.97717 0.79024 0.15669 0.0
C3315 C 0.9775 0.78539 0.1804 0.0
C3316 C 0.9984 0.78414 0.19371 0.0
C3317 C 0.01845 0.78738 0.18319 0.0
C3318 C 0.95538 0.79218 0.14205 0.0
C3319 C 0.9995 0.77882 0.21899 0.0
C3320 C 0.93268 0.79221 0.22002 0.0
C3321 C 0.92155 0.76927 0.22002 0.0
C3322 C 0.94998 0.79801 0.20585 0.0
C3323 C 0.95601 0.78041 0.19124 0.0
C3324 C 0.94339 0.7574 0.18979 0.0
C3325 C 0.92646 0.75209 0.20439 0.0
C3326 C 0.96289 0.82273 0.20785 0.0
C3327 C 0.94877 0.7382 0.17394 0.0
H3328 H 0.99717 0.7968 0.12832 0.0
H3329 H 0.03429 0.78613 0.19343 0.0
H3330 H 0.94155 0.77648 0.14139 0.0
H3331 H 0.94948 0.80677 0.15056 0.0
H3332 H 0.95773 0.79489 0.12351 0.0
H3333 H 0.01719 0.77913 0.22718 0.0
H3334 H 0.99302 0.7914 0.23023 0.0
H3335 H 0.98831 0.7616 0.21919 0.0
H3336 H 0.92882 0.80547 0.23216 0.0
H3337 H 0.91762 0.73437 0.20429 0.0
H3338 H 0.96492 0.82752 0.18991 0.0
H3339 H 0.98034 0.82513 0.21791 0.0
H3340 H 0.95415 0.83458 0.21723 0.0
H3341 H 0.94874 0.74223 0.15547 0.0
H3342 H 0.93629 0.72154 0.17349 0.0
H3343 H 0.9662 0.73636 0.18046 0.0
C3344 C 0.51117 0.33189 0.1543 0.0
C3345 C 0.52335 0.3147 0.15463 0.0
C3346 C 0.51637 0.34959 0.14039 0.0
C3347 C 0.53407 0.35009 0.12624 0.0
C3348 C 0.54621 0.33263 0.12623 0.0
C3349 C 0.54077 0.31522 0.14044 0.0
C3350 C 0.50295 0.36778 0.14093 0.0
C3351 C 0.56517 0.3325 0.11136 0.0
C3352 C 0.53744 0.38402 0.07388 0.0
C3353 C 0.55543 0.40311 0.08336 0.0
C3354 C 0.52983 0.3669 0.08781 0.0
C3355 C 0.54038 0.36908 0.11183 0.0
C3356 C 0.55794 0.38892 0.12169 0.0
C3357 C 0.56538 0.40561 0.10726 0.0
C3358 C 0.51109 0.3461 0.07656 0.0
C3359 C 0.56926 0.39224 0.14732 0.0
H3360 H 0.49763 0.33167 0.1651 0.0
H3361 H 0.55027 0.30205 0.14048 0.0
H3362 H 0.51478 0.3851 0.14509 0.0
H3363 H 0.49282 0.36664 0.1231 0.0
H3364 H 0.49102 0.36601 0.15429 0.0
H3365 H 0.57242 0.31731 0.11258 0.0
H3366 H 0.55864 0.33267 0.09237 0.0
H3367 H 0.57919 0.34821 0.11732 0.0
H3368 H 0.5298 0.38219 0.05536 0.0
H3369 H 0.57922 0.42051 0.11453 0.0
H3370 H 0.49722 0.34321 0.0877 0.0
H3371 H 0.51813 0.33069 0.0755 0.0
H3372 H 0.50353 0.34777 0.0583 0.0
H3373 H 0.5561 0.39072 0.15935 0.0
H3374 H 0.58169 0.40918 0.15266 0.0
H3375 H 0.57846 0.37861 0.15 0.0
C3376 C 0.97304 0.30663 0.30518 0.0
C3377 C 0.9784 0.30534 0.32962 0.0
C3378 C 0.94992 0.30463 0.29438 0.0
C3379 C 0.93165 0.30157 0.30825 0.0
C3380 C 0.93709 0.3002 0.33274 0.0
C3381 C 0.95989 0.30184 0.34282 0.0
C3382 C 0.94505 0.30611 0.26817 0.0
C3383 C 0.91873 0.29713 0.34865 0.0
C3384 C 0.87297 0.31585 0.29383 0.0
C3385 C 0.85787 0.29405 0.2869 0.0
C3386 C 0.89707 0.31873 0.29906 0.0
C3387 C 0.9067 0.29934 0.29783 0.0
C3388 C 0.89157 0.27736 0.29018 0.0
C3389 C 0.86762 0.27502 0.28482 0.0
C3390 C 0.91214 0.34256 0.30704 0.0
C3391 C 0.90058 0.25605 0.28861 0.0
H3392 H 0.98681 0.30942 0.29457 0.0
H3393 H 0.96313 0.30061 0.36165 0.0
H3394 H 0.93107 0.2913 0.25912 0.0
H3395 H 0.93909 0.32186 0.26583 0.0
H3396 H 0.96044 0.30652 0.2593 0.0
H3397 H 0.92574 0.29685 0.36749 0.0
H3398 H 0.90986 0.31127 0.34822 0.0
H3399 H 0.90563 0.28085 0.34205 0.0
H3400 H 0.86594 0.3307 0.29611 0.0
H3401 H 0.85642 0.25803 0.27936 0.0
H3402 H 0.92698 0.3454 0.29717 0.0
H3403 H 0.91906 0.34451 0.32627 0.0
H3404 H 0.90268 0.356 0.30432 0.0
H3405 H 0.91472 0.2579 0.27778 0.0
H3406 H 0.88703 0.24043 0.28062 0.0
H3407 H 0.9077 0.25365 0.30672 0.0
C3408 C 1.00381 0.68394 0.62848 0.0
C3409 C 0.01902 0.68885 0.65005 0.0
C3410 C 1.00435 0.66583 0.61067 0.0
C3411 C 0.02098 0.65284 0.61414 0.0
C3412 C 0.03689 0.6584 0.63557 0.0
C3413 C 0.03544 0.67598 0.65333 0.0
C3414 C 0.98678 0.66024 0.58837 0.0
C3415 C 0.0555 0.64577 0.63979 0.0
C3416 C 0.01069 0.59198 0.5805 0.0
C3417 C 0.0245 0.59525 0.5625 0.0
C3418 C 0.0093 0.61048 0.59722 0.0
C3419 C 0.02153 0.63309 0.59573 0.0
C3420 C 0.03505 0.63659 0.57725 0.0
C3421 C 0.03655 0.6177 0.56111 0.0
C3422 C 0.99502 0.60575 0.61681 0.0
C3423 C 0.04826 0.66029 0.5747 0.0
H3424 H 0.99106 0.69379 0.62583 0.0
H3425 H 0.04749 0.67993 0.6698 0.0
H3426 H 0.99542 0.66062 0.57233 0.0
H3427 H 0.97596 0.6426 0.58731 0.0
H3428 H 0.97547 0.67234 0.58789 0.0
H3429 H 0.06693 0.65257 0.65708 0.0
H3430 H 0.04774 0.62729 0.63958 0.0
H3431 H 0.06609 0.64713 0.62523 0.0
H3432 H 1.00125 0.57479 0.58184 0.0
H3433 H 0.04773 0.62054 0.54777 0.0
H3434 H 0.982 0.61604 0.61638 0.0
H3435 H 1.00611 0.61099 0.63444 0.0
H3436 H 0.98612 0.58734 0.61527 0.0
H3437 H 0.03618 0.67127 0.57128 0.0
H3438 H 0.05856 0.6601 0.55989 0.0
H3439 H 0.05992 0.66835 0.59152 0.0
C3440 C 0.64764 0.8334 0.84065 0.0
C3441 C 0.62545 0.81867 0.83447 0.0
C3442 C 0.6671 0.82845 0.83154 0.0
C3443 C 0.6651 0.80776 0.81603 0.0
C3444 C 0.6427 0.79285 0.80935 0.0
C3445 C 0.6233 0.79851 0.81839 0.0
C3446 C 0.69006 0.84545 0.83883 0.0
C3447 C 0.63931 0.77027 0.79351 0.0
C3448 C 0.71434 0.80346 0.77894 0.0
C3449 C 0.72913 0.79429 0.79381 0.0
C3450 C 0.69366 0.80777 0.78573 0.0
C3451 C 0.68658 0.80183 0.80758 0.0
C3452 C 0.70109 0.79159 0.82213 0.0
C3453 C 0.72225 0.78856 0.81546 0.0
C3454 C 0.67966 0.81929 0.76968 0.0
C3455 C 0.69423 0.78371 0.84489 0.0
H3456 H 0.64993 0.84902 0.85298 0.0
H3457 H 0.6066 0.78661 0.81362 0.0
H3458 H 0.70209 0.83765 0.84937 0.0
H3459 H 0.69765 0.85001 0.82277 0.0
H3460 H 0.68877 0.86141 0.8497 0.0
H3461 H 0.62088 0.76223 0.78689 0.0
H3462 H 0.64854 0.77247 0.77799 0.0
H3463 H 0.64655 0.75836 0.80375 0.0
H3464 H 0.71932 0.80792 0.76216 0.0
H3465 H 0.73322 0.78113 0.82701 0.0
H3466 H 0.67863 0.83589 0.77941 0.0
H3467 H 0.66188 0.80855 0.76459 0.0
H3468 H 0.68708 0.82254 0.75318 0.0
H3469 H 0.69489 0.79879 0.8582 0.0
H3470 H 0.70564 0.77354 0.85269 0.0
H3471 H 0.67632 0.7731 0.8415 0.0
C3472 C 0.45996 0.52522 0.6795 0.0
C3473 C 0.47588 0.52631 0.69985 0.0
C3474 C 0.46721 0.52819 0.65728 0.0
C3475 C 0.49096 0.53311 0.6556 0.0
C3476 C 0.5071 0.53573 0.67651 0.0
C3477 C 0.49935 0.53184 0.69823 0.0
C3478 C 0.44945 0.52476 0.63536 0.0
C3479 C 0.53257 0.54203 0.67583 0.0
C3480 C 0.51196 0.51458 0.59804 0.0
C3481 C 0.51493 0.53451 0.58737 0.0
C3482 C 0.50328 0.51369 0.61972 0.0
C3483 C 0.49892 0.53369 0.63182 0.0
C3484 C 0.50268 0.55414 0.62139 0.0
C3485 C 0.50992 0.55406 0.59887 0.0
C3486 C 0.49878 0.4913 0.62964 0.0
C3487 C 0.49947 0.57618 0.6341 0.0
H3488 H 0.44179 0.52072 0.68067 0.0
H3489 H 0.51169 0.53285 0.71401 0.0
H3490 H 0.45277 0.53989 0.62589 0.0
H3491 H 0.45061 0.50975 0.62285 0.0
H3492 H 0.43174 0.52186 0.63971 0.0
H3493 H 0.54281 0.54569 0.69397 0.0
H3494 H 0.53754 0.52779 0.66543 0.0
H3495 H 0.53711 0.55734 0.66676 0.0
H3496 H 0.51602 0.49952 0.58912 0.0
H3497 H 0.51262 0.56958 0.5907 0.0
H3498 H 0.48095 0.48689 0.63364 0.0
H3499 H 0.51047 0.49296 0.64662 0.0
H3500 H 0.50126 0.47694 0.61709 0.0
H3501 H 0.4809 0.57534 0.63309 0.0
H3502 H 0.50752 0.59128 0.62603 0.0
H3503 H 0.50694 0.57882 0.65325 0.0
C3504 C 0.78312 0.17043 0.98474 0.0
C3505 C 0.76604 0.17248 -0.00119 0.0
C3506 C 0.7821 0.17749 0.96219 0.0
C3507 C 0.76351 0.1865 0.95389 0.0
C3508 C 0.7457 0.1874 0.96761 0.0
C3509 C 0.74738 0.18064 0.99002 0.0
C3510 C 0.80127 0.17605 0.94794 0.0
C3511 C 0.7251 0.19624 0.95909 0.0
C3512 C 0.76003 0.23383 0.92009 0.0
C3513 C 0.74365 0.2219 0.90077 0.0
C3514 C 0.77038 0.22189 0.93585 0.0
C3515 C 0.76327 0.1977 0.93247 0.0
C3516 C 0.74918 0.18568 0.91121 0.0
C3517 C 0.73939 0.19805 0.89546 0.0
C3518 C 0.78658 0.23512 0.95771 0.0
C3519 C 0.74215 0.15985 0.90656 0.0
H3520 H 0.7974 0.16369 0.99147 0.0
H3521 H 0.73382 0.18155 0.0006 0.0
H3522 H 0.79564 0.1747 0.92849 0.0
H3523 H 0.81537 0.19174 0.95356 0.0
H3524 H 0.80834 0.16111 0.95135 0.0
H3525 H 0.71204 0.19398 0.97125 0.0
H3526 H 0.73064 0.21478 0.95786 0.0
H3527 H 0.7168 0.18717 0.9411 0.0
H3528 H 0.76418 0.25242 0.92324 0.0
H3529 H 0.72746 0.18906 0.87973 0.0
H3530 H 0.80077 0.22673 0.96201 0.0
H3531 H 0.77714 0.23544 0.97319 0.0
H3532 H 0.79398 0.2531 0.95527 0.0
H3533 H 0.75636 0.15239 0.91338 0.0
H3534 H 0.73672 0.15343 0.88721 0.0
H3535 H 0.72744 0.15374 0.91597 0.0
C3536 C 0.13081 0.55 0.18252 0.0
C3537 C 0.15397 0.55831 0.18114 0.0
C3538 C 0.1147 0.54423 0.16198 0.0
C3539 C 0.12231 0.54688 0.13984 0.0
C3540 C 0.14591 0.55421 0.13828 0.0
C3541 C 0.1617 0.56009 0.15929 0.0
C3542 C 0.08958 0.53627 0.16409 0.0
C3543 C 0.15436 0.55702 0.11474 0.0
C3544 C 0.07949 0.51986 0.08551 0.0
C3545 C 0.0702 0.53834 0.08111 0.0
C3546 C 0.09687 0.52242 0.10463 0.0
C3547 C 0.10524 0.54412 0.11878 0.0
C3548 C 0.0961 0.56294 0.114 0.0
C3549 C 0.07806 0.55961 0.0954 0.0
C3550 C 0.1059 0.50196 0.10996 0.0
C3551 C 0.10517 0.5864 0.12866 0.0
H3552 H 0.12531 0.54846 0.19979 0.0
H3553 H 0.17985 0.56625 0.1587 0.0
H3554 H 0.08046 0.5494 0.15908 0.0
H3555 H 0.08153 0.52021 0.15165 0.0
H3556 H 0.08692 0.53325 0.18248 0.0
H3557 H 0.17281 0.55707 0.11591 0.0
H3558 H 0.14439 0.54323 0.10033 0.0
H3559 H 0.15219 0.57361 0.10964 0.0
H3560 H 0.07282 0.50337 0.07432 0.0
H3561 H 0.07058 0.57372 0.0915 0.0
H3562 H 0.10271 0.49807 0.12795 0.0
H3563 H 0.12472 0.50586 0.1101 0.0
H3564 H 0.09773 0.48643 0.09673 0.0
H3565 H 0.10152 0.58575 0.14717 0.0
H3566 H 0.0974 0.59953 0.12117 0.0
H3567 H 0.12406 0.5919 0.12959 0.0
C3568 C 0.78497 0.84462 0.45218 0.0
C3569 C 0.80244 0.83993 0.46797 0.0
C3570 C 0.78228 0.8372 0.42739 0.0
C3571 C 0.79759 0.8251 0.41811 0.0
C3572 C 0.81527 0.82048 0.43396 0.0
C3573 C 0.81732 0.82771 0.45855 0.0
C3574 C 0.76309 0.84231 0.41109 0.0
C3575 C 0.83241 0.80826 0.42488 0.0
C3576 C 0.78248 0.78688 0.35753 0.0
C3577 C 0.79365 0.80133 0.34292 0.0
C3578 C 0.7829 0.7947 0.38183 0.0
C3579 C 0.79543 0.81725 0.39188 0.0
C3580 C 0.80707 0.83173 0.37712 0.0
C3581 C 0.80567 0.82372 0.35274 0.0
C3582 C 0.76991 0.77886 0.39677 0.0
C3583 C 0.82111 0.85565 0.38703 0.0
H3584 H 0.77348 0.85416 0.45917 0.0
H3585 H 0.8311 0.8242 0.47039 0.0
H3586 H 0.77014 0.85213 0.39729 0.0
H3587 H 0.75146 0.82602 0.40163 0.0
H3588 H 0.75291 0.85226 0.42092 0.0
H3589 H 0.84531 0.80616 0.4395 0.0
H3590 H 0.8234 0.79107 0.41507 0.0
H3591 H 0.84155 0.81801 0.41215 0.0
H3592 H 0.77295 0.76965 0.34979 0.0
H3593 H 0.81424 0.8349 0.34133 0.0
H3594 H 0.75777 0.78718 0.40532 0.0
H3595 H 0.78201 0.77536 0.41128 0.0
H3596 H 0.76012 0.76227 0.38608 0.0
H3597 H 0.80966 0.86643 0.3929 0.0
H3598 H 0.83074 0.86391 0.37369 0.0
H3599 H 0.83351 0.85528 0.40289 0.0
C3600 C 0.49935 0.54128 0.84236 0.0
C3601 C 0.4776 0.52797 0.83186 0.0
C3602 C 0.50672 0.54315 0.86703 0.0
C3603 C 0.49246 0.53043 0.88125 0.0
C3604 C 0.47029 0.51726 0.87067 0.0
C3605 C 0.463 0.5165 0.84618 0.0
C3606 C 0.52994 0.55835 0.87778 0.0
C3607 C 0.45453 0.50346 0.88511 0.0
C3608 C 0.52141 0.51585 0.93883 0.0
C3609 C 0.51566 0.53086 0.95637 0.0
C3610 C 0.51378 0.51536 0.91439 0.0
C3611 C 0.50068 0.53076 0.90714 0.0
C3612 C 0.49518 0.54621 0.92471 0.0
C3613 C 0.50262 0.54599 0.94895 0.0
C3614 C 0.51933 0.49802 0.8963 0.0
C3615 C 0.48185 0.56345 0.91814 0.0
H3616 H 0.51069 0.54997 0.83119 0.0
H3617 H 0.44632 0.50588 0.83792 0.0
H3618 H 0.52839 0.56996 0.8937 0.0
H3619 H 0.54159 0.54768 0.88379 0.0
H3620 H 0.53788 0.56888 0.8649 0.0
H3621 H 0.43806 0.49367 0.87413 0.0
H3622 H 0.4631 0.49125 0.89338 0.0
H3623 H 0.45075 0.51502 0.89981 0.0
H3624 H 0.53178 0.50439 0.9441 0.0
H3625 H 0.49822 0.5579 0.96213 0.0
H3626 H 0.52859 0.5068 0.88305 0.0
H3627 H 0.50317 0.48644 0.88641 0.0
H3628 H 0.53 0.4875 0.90468 0.0
H3629 H 0.49401 0.57914 0.915 0.0
H3630 H 0.47254 0.56823 0.93273 0.0
H3631 H 0.46915 0.55696 0.90171 0.0
C3632 C 0.79182 0.17043 0.14411 0.0
C3633 C 0.79819 0.17527 0.12227 0.0
C3634 C 0.79652 0.18786 0.16345 0.0
C3635 C 0.80727 0.21037 0.16015 0.0
C3636 C 0.81584 0.21472 0.13883 0.0
C3637 C 0.8115 0.19676 0.12003 0.0
C3638 C 0.78729 0.18275 0.1862 0.0
C3639 C 0.82665 0.23872 0.13473 0.0
C3640 C 0.78171 0.25067 0.19597 0.0
C3641 C 0.79833 0.25694 0.21625 0.0
C3642 C 0.78542 0.23704 0.17622 0.0
C3643 C 0.80599 0.2295 0.17748 0.0
C3644 C 0.82357 0.23755 0.19719 0.0
C3645 C 0.81953 0.25145 0.21646 0.0
C3646 C 0.76636 0.22881 0.15521 0.0
C3647 C 0.84542 0.22941 0.19914 0.0
H3648 H 0.7811 0.15372 0.1453 0.0
H3649 H 0.81578 0.20025 0.1027 0.0
H3650 H 0.79981 0.19185 0.2021 0.0
H3651 H 0.77136 0.1888 0.1869 0.0
H3652 H 0.78313 0.16409 0.18728 0.0
H3653 H 0.83485 0.23875 0.11836 0.0
H3654 H 0.81323 0.24849 0.1328 0.0
H3655 H 0.83965 0.24789 0.15021 0.0
H3656 H 0.76531 0.25502 0.1962 0.0
H3657 H 0.83229 0.2567 0.23241 0.0
H3658 H 0.75718 0.21092 0.15608 0.0
H3659 H 0.77332 0.2289 0.13813 0.0
H3660 H 0.7537 0.23954 0.15517 0.0
H3661 H 0.84168 0.21161 0.20334 0.0
H3662 H 0.85879 0.24034 0.21346 0.0
H3663 H 0.85232 0.22915 0.18202 0.0
C3664 C 0.15721 0.54203 0.3162 0.0
C3665 C 0.14412 0.54408 0.29488 0.0
C3666 C 0.14964 0.54632 0.33811 0.0
C3667 C 0.12849 0.55245 0.33832 0.0
C3668 C 0.11434 0.55242 0.31667 0.0
C3669 C 0.12222 0.54789 0.29517 0.0
C3670 C 0.16473 0.54551 0.36094 0.0
C3671 C 0.09176 0.55922 0.31622 0.0
C3672 C 0.09341 0.55552 0.38738 0.0
C3673 C 0.09689 0.57931 0.39278 0.0
C3674 C 0.10568 0.54617 0.37136 0.0
C3675 C 0.12165 0.5611 0.36075 0.0
C3676 C 0.12692 0.58509 0.36816 0.0
C3677 C 0.11413 0.59399 0.38396 0.0
C3678 C 0.10007 0.52052 0.36417 0.0
C3679 C 0.14469 0.60142 0.35795 0.0
H3680 H 0.1741 0.53885 0.31598 0.0
H3681 H 0.11199 0.5492 0.27865 0.0
H3682 H 0.16635 0.56092 0.37418 0.0
H3683 H 0.15682 0.53036 0.36895 0.0
H3684 H 0.18219 0.54421 0.35786 0.0
H3685 H 0.0824 0.55722 0.29782 0.0
H3686 H 0.08057 0.54872 0.32688 0.0
H3687 H 0.09491 0.57743 0.32431 0.0
H3688 H 0.08022 0.54427 0.39469 0.0
H3689 H 0.11714 0.61238 0.38891 0.0
H3690 H 0.11599 0.51452 0.36333 0.0
H3691 H 0.08974 0.51593 0.3461 0.0
H3692 H 0.09014 0.51126 0.37672 0.0
H3693 H 0.16067 0.59536 0.35816 0.0
H3694 H 0.14891 0.61906 0.368 0.0
H3695 H 0.13813 0.60211 0.3391 0.0
C3696 C 0.8175 0.84202 0.61715 0.0
C3697 C 0.80132 0.8494 0.60218 0.0
C3698 C 0.8133 0.83611 0.6395 0.0
C3699 C 0.79211 0.83705 0.6471 0.0
C3700 C 0.7758 0.84493 0.63236 0.0
C3701 C 0.78072 0.85133 0.61017 0.0
C3702 C 0.83138 0.82816 0.65469 0.0
C3703 C 0.75288 0.84584 0.63968 0.0
C3704 C 0.77796 0.79371 0.68907 0.0
C3705 C 0.78351 0.80714 0.71163 0.0
C3706 C 0.7785 0.80344 0.66798 0.0
C3707 C 0.78646 0.82742 0.66922 0.0
C3708 C 0.79185 0.84136 0.69185 0.0
C3709 C 0.78977 0.8311 0.71272 0.0
C3710 C 0.77167 0.78782 0.64431 0.0
C3711 C 0.80138 0.86691 0.69425 0.0
H3712 H 0.83366 0.84086 0.61139 0.0
H3713 H 0.7682 0.85716 0.59881 0.0
H3714 H 0.83435 0.8371 0.67329 0.0
H3715 H 0.82542 0.80953 0.65525 0.0
H3716 H 0.84797 0.8312 0.64769 0.0
H3717 H 0.74221 0.85274 0.62651 0.0
H3718 H 0.74336 0.82837 0.64169 0.0
H3719 H 0.7554 0.85669 0.65728 0.0
H3720 H 0.77374 0.77546 0.68759 0.0
H3721 H 0.79437 0.84187 0.72993 0.0
H3722 H 0.78723 0.78658 0.63633 0.0
H3723 H 0.76063 0.79484 0.63164 0.0
H3724 H 0.76229 0.77025 0.64624 0.0
H3725 H 0.81962 0.87038 0.69154 0.0
H3726 H 0.80054 0.87573 0.71217 0.0
H3727 H 0.79207 0.87438 0.68049 0.0
C3728 C 0.72908 0.45912 0.50335 0.0
C3729 C 0.74695 0.47201 0.49364 0.0
C3730 C 0.71293 0.4693 0.51244 0.0
C3731 C 0.71483 0.49289 0.5116 0.0
C3732 C 0.73175 0.50557 0.50009 0.0
C3733 C 0.74776 0.49486 0.49109 0.0
C3734 C 0.6949 0.45518 0.52446 0.0
C3735 C 0.73404 0.53073 0.49887 0.0
C3736 C 0.66238 0.50869 0.52916 0.0
C3737 C 0.66888 0.51396 0.55395 0.0
C3738 C 0.67803 0.50382 0.51452 0.0
C3739 C 0.70048 0.50433 0.52514 0.0
C3740 C 0.7076 0.51147 0.54994 0.0
C3741 C 0.69154 0.51606 0.56415 0.0
C3742 C 0.67004 0.49623 0.48811 0.0
C3743 C 0.73154 0.51231 0.56178 0.0
H3744 H 0.72836 0.44129 0.50491 0.0
H3745 H 0.76168 0.50474 0.48352 0.0
H3746 H 0.69797 0.46163 0.54386 0.0
H3747 H 0.67758 0.45676 0.5172 0.0
H3748 H 0.69499 0.43673 0.52213 0.0
H3749 H 0.74529 0.53694 0.4858 0.0
H3750 H 0.717 0.53424 0.49396 0.0
H3751 H 0.74158 0.54074 0.51669 0.0
H3752 H 0.64477 0.50727 0.52138 0.0
H3753 H 0.69651 0.52068 0.5833 0.0
H3754 H 0.66731 0.47735 0.4841 0.0
H3755 H 0.6832 0.50406 0.47761 0.0
H3756 H 0.65367 0.50072 0.48209 0.0
H3757 H 0.73323 0.49459 0.56299 0.0
H3758 H 0.73543 0.52208 0.5801 0.0
H3759 H 0.74453 0.52024 0.55116 0.0
C3760 C 0.19138 0.14712 0.5268 0.0
C3761 C 0.20629 0.1442 0.51047 0.0
C3762 C 0.1713 0.13033 0.52681 0.0
C3763 C 0.16578 0.11032 0.50969 0.0
C3764 C 0.18111 0.10697 0.49349 0.0
C3765 C 0.20145 0.12396 0.49423 0.0
C3766 C 0.15563 0.13438 0.54468 0.0
C3767 C 0.17557 0.08594 0.47483 0.0
C3768 C 0.11975 0.06312 0.52513 0.0
C3769 C 0.09993 0.06638 0.51194 0.0
C3770 C 0.14153 0.07621 0.52322 0.0
C3771 C 0.14347 0.09354 0.50843 0.0
C3772 C 0.1236 0.09661 0.49467 0.0
C3773 C 0.10207 0.08285 0.49644 0.0
C3774 C 0.16235 0.07223 0.53791 0.0
C3775 C 0.12492 0.11526 0.47908 0.0
H3776 H 0.19532 0.1628 0.53943 0.0
H3777 H 0.21298 0.12191 0.48149 0.0
H3778 H 0.13878 0.13519 0.53521 0.0
H3779 H 0.15247 0.11994 0.55515 0.0
H3780 H 0.16286 0.15054 0.55728 0.0
H3781 H 0.19021 0.0848 0.46518 0.0
H3782 H 0.17066 0.07019 0.48312 0.0
H3783 H 0.16066 0.08638 0.46166 0.0
H3784 H 0.11825 0.05073 0.53748 0.0
H3785 H 0.08683 0.08549 0.4862 0.0
H3786 H 0.16957 0.08695 0.55232 0.0
H3787 H 0.17587 0.07101 0.52669 0.0
H3788 H 0.15822 0.05634 0.54618 0.0
H3789 H 0.13008 0.13226 0.49048 0.0
H3790 H 0.10826 0.11395 0.46778 0.0
H3791 H 0.13814 0.11458 0.46736 0.0
C3792 C 0.17934 0.98894 0.77121 0.0
C3793 C 0.17968 0.99902 0.79467 0.0
C3794 C 0.1912 0.97197 0.76638 0.0
C3795 C 0.20366 0.96476 0.78548 0.0
C3796 C 0.20413 0.97483 0.80921 0.0
C3797 C 0.19217 0.9919 0.81353 0.0
C3798 C 0.19038 0.96175 0.74077 0.0
C3799 C 0.21737 0.96769 0.82997 0.0
C3800 C 0.21499 0.90658 0.76779 0.0
C3801 C 0.23635 0.91296 0.76026 0.0
C3802 C 0.20472 0.92329 0.77775 0.0
C3803 C 0.21624 0.94678 0.78023 0.0
C3804 C 0.2387 0.95303 0.77448 0.0
C3805 C 0.24842 0.936 0.76434 0.0
C3806 C 0.18078 0.91593 0.78368 0.0
C3807 C 0.25171 0.9778 0.77705 0.0
H3808 H 0.16983 0.99436 0.75651 0.0
H3809 H 0.19256 0.9996 0.83172 0.0
H3810 H 0.20801 0.96451 0.73623 0.0
H3811 H 0.18301 0.94297 0.73835 0.0
H3812 H 0.17998 0.96931 0.72799 0.0
H3813 H 0.21526 0.9765 0.84742 0.0
H3814 H 0.21167 0.9489 0.82972 0.0
H3815 H 0.23589 0.97163 0.8284 0.0
H3816 H 0.20566 0.88871 0.76435 0.0
H3817 H 0.26491 0.9408 0.75832 0.0
H3818 H 0.16849 0.92058 0.77018 0.0
H3819 H 0.17954 0.92496 0.80132 0.0
H3820 H 0.17549 0.89714 0.78383 0.0
H3821 H 0.24454 0.98586 0.76236 0.0
H3822 H 0.27024 0.9795 0.77623 0.0
H3823 H 0.2499 0.98748 0.79413 0.0
C3824 C 0.38041 0.98262 0.04948 0.0
C3825 C 0.36511 0.97797 0.0281 0.0
C3826 C 0.40339 0.99379 0.05015 0.0
C3827 C 0.41101 0.99974 0.02879 0.0
C3828 C 0.39528 0.99635 0.00746 0.0
C3829 C 0.37229 0.98583 0.00751 0.0
C3830 C 0.41977 0.99752 0.07319 0.0
C3831 C 0.40305 1.00186 0.98415 0.0
C3832 C 0.46741 0.03974 0.02603 0.0
C3833 C 0.48025 0.02418 0.01974 0.0
C3834 C 0.44515 0.032 0.03067 0.0
C3835 C 0.4356 0.00817 0.02818 0.0
C3836 C 0.44893 0.99237 0.02263 0.0
C3837 C 0.47136 1.00069 0.01848 0.0
C3838 C 0.43141 0.04923 0.03668 0.0
C3839 C 0.43906 0.96678 0.0195 0.0
H3840 H 0.37472 0.97623 0.06526 0.0
H3841 H 0.36045 0.98169 0.99087 0.0
H3842 H 0.43071 0.98515 0.07198 0.0
H3843 H 0.43126 0.01502 0.0763 0.0
H3844 H 0.41064 0.995 0.08877 0.0
H3845 H 0.38838 0.99979 0.96967 0.0
H3846 H 0.41371 0.01966 0.98631 0.0
H3847 H 0.41383 0.99025 0.97849 0.0
H3848 H 0.47454 0.05794 0.02648 0.0
H3849 H 0.48138 0.98888 0.01284 0.0
H3850 H 0.42216 0.04486 0.05179 0.0
H3851 H 0.41837 0.04881 0.02109 0.0
H3852 H 0.4424 0.06696 0.04139 0.0
H3853 H 0.43193 0.96186 0.03567 0.0
H3854 H 0.45208 0.95698 0.01607 0.0
H3855 H 0.42476 0.96166 0.00432 0.0
C3856 C 0.83476 0.55926 0.78417 0.0
C3857 C 0.8445 0.56055 0.80791 0.0
C3858 C 0.8256 0.57681 0.77686 0.0
C3859 C 0.82584 0.59566 0.79401 0.0
C3860 C 0.83287 0.59557 0.81854 0.0
C3861 C 0.84234 0.57779 0.82532 0.0
C3862 C 0.81834 0.5764 0.75046 0.0
C3863 C 0.8324 0.61519 0.83716 0.0
C3864 C 0.83687 0.64878 0.76538 0.0
C3865 C 0.81447 0.65037 0.75843 0.0
C3866 C 0.84101 0.63194 0.77886 0.0
C3867 C 0.82218 0.61657 0.7854 0.0
C3868 C 0.79963 0.61883 0.77943 0.0
C3869 C 0.79598 0.63558 0.76566 0.0
C3870 C 0.86535 0.62979 0.78484 0.0
C3871 C 0.77928 0.60273 0.78628 0.0
H3872 H 0.83621 0.54552 0.77091 0.0
H3873 H 0.84983 0.5785 0.84371 0.0
H3874 H 0.80141 0.5805 0.74712 0.0
H3875 H 0.83094 0.5896 0.74378 0.0
H3876 H 0.81728 0.55949 0.73991 0.0
H3877 H 0.83599 0.61123 0.85556 0.0
H3878 H 0.84547 0.6307 0.83516 0.0
H3879 H 0.81545 0.61941 0.83468 0.0
H3880 H 0.85109 0.66066 0.76022 0.0
H3881 H 0.77859 0.63691 0.76023 0.0
H3882 H 0.86741 0.614 0.77429 0.0
H3883 H 0.86929 0.62825 0.80398 0.0
H3884 H 0.87809 0.64467 0.78084 0.0
H3885 H 0.7751 0.5862 0.77413 0.0
H3886 H 0.76386 0.60982 0.78498 0.0
H3887 H 0.78322 0.59904 0.80471 0.0
C3888 C 0.82379 0.63011 0.0189 0.0
C3889 C 0.82797 0.6474 0.00448 0.0
C3890 C 0.83953 0.61674 0.02326 0.0
C3891 C 0.86008 0.621 0.01326 0.0
C3892 C 0.86396 0.63774 0.99788 0.0
C3893 C 0.84776 0.65067 0.99355 0.0
C3894 C 0.83459 0.59869 0.03939 0.0
C3895 C 0.88565 0.64263 0.98685 0.0
C3896 C 0.90861 0.60737 0.05235 0.0
C3897 C 0.90864 0.58555 0.04128 0.0
C3898 C 0.89378 0.61968 0.04253 0.0
C3899 C 0.87849 0.60978 0.02122 0.0
C3900 C 0.87953 0.58835 0.00911 0.0
C3901 C 0.89476 0.57645 0.0193 0.0
C3902 C 0.89351 0.64266 0.0558 0.0
C3903 C 0.86346 0.57718 0.98642 0.0
H3904 H 0.80836 0.62725 0.0271 0.0
H3905 H 0.85101 0.66387 0.98222 0.0
H3906 H 0.83697 0.58215 0.03087 0.0
H3907 H 0.84684 0.60396 0.0563 0.0
H3908 H 0.81688 0.59592 0.04376 0.0
H3909 H 0.88562 0.65551 0.97448 0.0
H3910 H 0.90071 0.64909 0.00109 0.0
H3911 H 0.88785 0.62662 0.97691 0.0
H3912 H 0.91957 0.61437 0.06928 0.0
H3913 H 0.89483 0.55949 0.01086 0.0
H3914 H 0.87725 0.64124 0.06327 0.0
H3915 H 0.8943 0.65562 0.04349 0.0
H3916 H 0.90804 0.64892 0.07071 0.0
H3917 H 0.84636 0.56942 0.99091 0.0
H3918 H 0.8697 0.56342 0.97665 0.0
H3919 H 0.86119 0.58992 0.97442 0.0
C3920 C 0.19884 0.1149 0.78875 0.0
C3921 C 0.17864 0.11714 0.79746 0.0
C3922 C 0.21618 0.13439 0.78736 0.0
C3923 C 0.21307 0.1565 0.79468 0.0
C3924 C 0.19321 0.15874 0.80449 0.0
C3925 C 0.17638 0.13908 0.80593 0.0
C3926 C 0.23738 0.13134 0.77729 0.0
C3927 C 0.18896 0.18199 0.81207 0.0
C3928 C 0.25823 0.21278 0.80602 0.0
C3929 C 0.25508 0.22064 0.78406 0.0
C3930 C 0.24617 0.19086 0.80907 0.0
C3931 C 0.22935 0.17743 0.79028 0.0
C3932 C 0.22645 0.18534 0.76793 0.0
C3933 C 0.24021 0.20642 0.76483 0.0
C3934 C 0.25108 0.18231 0.83249 0.0
C3935 C 0.2084 0.17203 0.74747 0.0
H3936 H 0.20075 0.09802 0.78219 0.0
H3937 H 0.16095 0.14099 0.81292 0.0
H3938 H 0.23677 0.13629 0.75916 0.0
H3939 H 0.253 0.14266 0.78849 0.0
H3940 H 0.23891 0.11332 0.77599 0.0
H3941 H 0.17289 0.18074 0.8199 0.0
H3942 H 0.20342 0.19254 0.82541 0.0
H3943 H 0.18783 0.19119 0.79639 0.0
H3944 H 0.2702 0.22373 0.82072 0.0
H3945 H 0.23864 0.21221 0.74758 0.0
H3946 H 0.25264 0.16433 0.8293 0.0
H3947 H 0.23669 0.1825 0.84273 0.0
H3948 H 0.26711 0.19302 0.84357 0.0
H3949 H 0.21416 0.15728 0.73917 0.0
H3950 H 0.20523 0.18273 0.73346 0.0
H3951 H 0.19192 0.1652 0.75376 0.0
C3952 C 0.36843 0.93635 0.29062 0.0
C3953 C 0.35933 0.95485 0.28557 0.0
C3954 C 0.3543 0.91607 0.29459 0.0
C3955 C 0.33046 0.91414 0.29265 0.0
C3956 C 0.32118 0.93297 0.28842 0.0
C3957 C 0.33589 0.9534 0.28511 0.0
C3958 C 0.36482 0.89651 0.30012 0.0
C3959 C 0.29578 0.93125 0.28688 0.0
C3960 C 0.29876 0.85385 0.26892 0.0
C3961 C 0.29524 0.84517 0.29001 0.0
C3962 C 0.30914 0.8769 0.26943 0.0
C3963 C 0.31532 0.89142 0.29164 0.0
C3964 C 0.30993 0.88303 0.31287 0.0
C3965 C 0.30006 0.85972 0.3118 0.0
C3966 C 0.31494 0.8853 0.24646 0.0
C3967 C 0.31603 0.89798 0.3369 0.0
H3968 H 0.38676 0.9379 0.29204 0.0
H3969 H 0.32912 0.96809 0.28193 0.0
H3970 H 0.35897 0.88991 0.31622 0.0
H3971 H 0.35917 0.8822 0.28505 0.0
H3972 H 0.38387 0.90169 0.30321 0.0
H3973 H 0.29157 0.94804 0.28563 0.0
H3974 H 0.28642 0.91895 0.27094 0.0
H3975 H 0.28943 0.92451 0.30273 0.0
H3976 H 0.29367 0.84263 0.25212 0.0
H3977 H 0.29701 0.85273 0.32809 0.0
H3978 H 0.33383 0.88957 0.247 0.0
H3979 H 0.30907 0.90112 0.24433 0.0
H3980 H 0.30708 0.87226 0.23057 0.0
H3981 H 0.33344 0.89743 0.34511 0.0
H3982 H 0.30389 0.8916 0.34913 0.0
H3983 H 0.31605 0.91609 0.33544 0.0
C3984 C 0.56745 0.36604 0.54879 0.0
C3985 C 0.56728 0.36046 0.57212 0.0
C3986 C 0.5641 0.38742 0.54283 0.0
C3987 C 0.56148 0.40471 0.56067 0.0
C3988 C 0.56146 0.39924 0.58433 0.0
C3989 C 0.56389 0.37731 0.5896 0.0
C3990 C 0.56327 0.39145 0.5172 0.0
C3991 C 0.55911 0.41671 0.60432 0.0
C3992 C 0.57426 0.46807 0.54743 0.0
C3993 C 0.55224 0.47188 0.54153 0.0
C3994 C 0.57751 0.44678 0.55397 0.0
C3995 C 0.55839 0.42813 0.55446 0.0
C3996 C 0.53618 0.43197 0.54866 0.0
C3997 C 0.53349 0.45353 0.54277 0.0
C3998 C 0.60159 0.44433 0.56062 0.0
C3999 C 0.51502 0.41304 0.54821 0.0
H4000 H 0.56995 0.35343 0.53494 0.0
H4001 H 0.56389 0.37365 0.60773 0.0
H4002 H 0.54728 0.39659 0.51117 0.0
H4003 H 0.57789 0.40571 0.51559 0.0
H4004 H 0.56397 0.37599 0.50508 0.0
H4005 H 0.56207 0.41111 0.62205 0.0
H4006 H 0.57147 0.43334 0.60436 0.0
H4007 H 0.54164 0.4197 0.6016 0.0
H4008 H 0.58913 0.48184 0.54711 0.0
H4009 H 0.51642 0.45597 0.53925 0.0
H4010 H 0.60476 0.43025 0.54827 0.0
H4011 H 0.60377 0.4397 0.57886 0.0
H4012 H 0.61469 0.46032 0.56003 0.0
H4013 H 0.51465 0.3986 0.5342 0.0
H4014 H 0.49896 0.41881 0.54455 0.0
H4015 H 0.51537 0.40633 0.56548 0.0
C4016 C 0.43361 0.75394 0.38033 0.0
C4017 C 0.43601 0.7631 0.40453 0.0
C4018 C 0.41469 0.75531 0.36365 0.0
C4019 C 0.39817 0.76696 0.37099 0.0
C4020 C 0.40098 0.77675 0.39527 0.0
C4021 C 0.41944 0.77435 0.41164 0.0
C4022 C 0.41231 0.74418 0.33815 0.0
C4023 C 0.38455 0.79004 0.40405 0.0
C4024 C 0.36062 0.79019 0.32509 0.0
C4025 C 0.33897 0.77492 0.32312 0.0
C4026 C 0.37995 0.78763 0.34017 0.0
C4027 C 0.37797 0.76908 0.35356 0.0
C4028 C 0.35622 0.75338 0.35133 0.0
C4029 C 0.33707 0.75664 0.33649 0.0
C4030 C 0.40244 0.80518 0.3422 0.0
C4031 C 0.35313 0.73304 0.36466 0.0
H4032 H 0.44622 0.74525 0.37452 0.0
H4033 H 0.42118 0.78184 0.43015 0.0
H4034 H 0.39459 0.73356 0.332 0.0
H4035 H 0.41554 0.75758 0.32643 0.0
H4036 H 0.42455 0.73321 0.33588 0.0
H4037 H 0.38994 0.79797 0.42302 0.0
H4038 H 0.38322 0.80378 0.39304 0.0
H4039 H 0.36717 0.77851 0.40221 0.0
H4040 H 0.3624 0.8046 0.31523 0.0
H4041 H 0.32053 0.74472 0.3353 0.0
H4042 H 0.41576 0.79674 0.33652 0.0
H4043 H 0.40835 0.81318 0.36107 0.0
H4044 H 0.40113 0.8189 0.33113 0.0
H4045 H 0.36538 0.72265 0.36018 0.0
H4046 H 0.33543 0.7219 0.36039 0.0
H4047 H 0.35699 0.73896 0.38416 0.0
C4048 C 0.06081 0.71322 0.08562 0.0
C4049 C 0.06203 0.72687 0.06719 0.0
C4050 C 0.0578 0.68904 0.0811 0.0
C4051 C 0.05501 0.67753 0.05736 0.0
C4052 C 0.0556 0.69118 0.03861 0.0
C4053 C 0.05957 0.71548 0.04373 0.0
C4054 C 0.05824 0.67585 0.10194 0.0
C4055 C 0.0519 0.68005 0.01296 0.0
C4056 C 0.06751 0.61726 0.0464 0.0
C4057 C 0.04564 0.60209 0.04335 0.0
C4058 C 0.07076 0.64148 0.0507 0.0
C4059 C 0.05173 0.65142 0.05228 0.0
C4060 C 0.02959 0.6362 0.0494 0.0
C4061 C 0.02687 0.61204 0.04511 0.0
C4062 C 0.09476 0.6565 0.05368 0.0
C4063 C 0.00858 0.64541 0.05088 0.0
H4064 H 0.06309 0.72161 0.10387 0.0
H4065 H 0.06048 0.72559 0.02924 0.0
H4066 H 0.04205 0.66242 0.10018 0.0
H4067 H 0.07244 0.66702 0.10204 0.0
H4068 H 0.06061 0.68708 0.11932 0.0
H4069 H 0.05224 0.69272 0.00031 0.0
H4070 H 0.06533 0.6707 0.01003 0.0
H4071 H 0.03511 0.66726 0.00881 0.0
H4072 H 0.08228 0.61019 0.04588 0.0
H4073 H 0.00978 0.60091 0.04287 0.0
H4074 H 0.09871 0.66794 0.07107 0.0
H4075 H 0.0961 0.66761 0.03951 0.0
H4076 H 0.10789 0.64638 0.05281 0.0
H4077 H 0.00905 0.65358 0.0694 0.0
H4078 H 0.99244 0.63174 0.04573 0.0
H4079 H 0.00831 0.65877 0.03914 0.0
C4080 C 0.06637 0.26189 0.89104 0.0
C4081 C 0.06304 0.28314 0.9006 0.0
C4082 C 0.08436 0.26061 0.87777 0.0
C4083 C 0.09944 0.28104 0.87398 0.0
C4084 C 0.09597 0.30249 0.88339 0.0
C4085 C 0.07792 0.30326 0.89652 0.0
C4086 C 0.08751 0.2374 0.8683 0.0
C4087 C 0.11147 0.32476 0.8797 0.0
C4088 C 0.16055 0.28877 0.86114 0.0
C4089 C 0.15791 0.2926 0.83734 0.0
C4090 C 0.14134 0.28261 0.87278 0.0
C4091 C 0.11903 0.28055 0.86038 0.0
C4092 C 0.11628 0.28222 0.83568 0.0
C4093 C 0.13578 0.28833 0.82449 0.0
C4094 C 0.14511 0.28057 0.89898 0.0
C4095 C 0.0929 0.27984 0.8216 0.0
H4096 H 0.05508 0.24622 0.89415 0.0
H4097 H 0.07558 0.31978 0.90373 0.0
H4098 H 0.09019 0.23663 0.84938 0.0
H4099 H 0.10303 0.2344 0.87863 0.0
H4100 H 0.07258 0.22333 0.8697 0.0
H4101 H 0.10633 0.34 0.8879 0.0
H4102 H 0.12941 0.32575 0.88757 0.0
H4103 H 0.11123 0.3255 0.86034 0.0
H4104 H 0.17768 0.29243 0.8712 0.0
H4105 H 0.13377 0.29164 0.80618 0.0
H4106 H 0.13247 0.26564 0.90292 0.0
H4107 H 0.14262 0.29615 0.90952 0.0
H4108 H 0.16268 0.27877 0.90498 0.0
H4109 H 0.08049 0.26459 0.82528 0.0
H4110 H 0.09332 0.27832 0.80209 0.0
H4111 H 0.08648 0.29512 0.82709 0.0
C4112 C 0.56772 0.75369 0.906 0.0
C4113 C 0.54677 0.75948 0.90057 0.0
C4114 C 0.56867 0.73401 0.91685 0.0
C4115 C 0.54818 0.71998 0.922 0.0
C4116 C 0.527 0.72558 0.91581 0.0
C4117 C 0.52661 0.74512 0.90518 0.0
C4118 C 0.5915 0.72847 0.9232 0.0
C4119 C 0.50467 0.71124 0.92091 0.0
C4120 C 0.53498 0.65764 0.92955 0.0
C4121 C 0.53359 0.65908 0.95395 0.0
C4122 C 0.54245 0.67743 0.91925 0.0
C4123 C 0.54812 0.69918 0.93363 0.0
C4124 C 0.54842 0.70054 0.95863 0.0
C4125 C 0.54129 0.68038 0.96855 0.0
C4126 C 0.54203 0.67518 0.89259 0.0
C4127 C 0.554 0.72336 0.97459 0.0
H4128 H 0.58333 0.76492 0.90267 0.0
H4129 H 0.51032 0.74949 0.90083 0.0
H4130 H 0.59468 0.72743 0.94254 0.0
H4131 H 0.59128 0.71144 0.9135 0.0
H4132 H 0.60591 0.74145 0.91874 0.0
H4133 H 0.48971 0.71802 0.91484 0.0
H4134 H 0.50163 0.69337 0.91188 0.0
H4135 H 0.50556 0.71069 0.94035 0.0
H4136 H 0.52914 0.6411 0.91833 0.0
H4137 H 0.54011 0.68145 0.98742 0.0
H4138 H 0.55724 0.68702 0.88809 0.0
H4139 H 0.52654 0.67986 0.88419 0.0
H4140 H 0.54154 0.65739 0.88472 0.0
H4141 H 0.56938 0.73505 0.97022 0.0
H4142 H 0.55701 0.72148 0.99377 0.0
H4143 H 0.53946 0.73158 0.97165 0.0
C4144 C 0.10439 0.75892 0.75589 0.0
C4145 C 0.09343 0.75997 0.73295 0.0
C4146 C 0.12858 0.76217 0.76117 0.0
C4147 C 0.14256 0.76587 0.743 0.0
C4148 C 0.13155 0.76674 0.71976 0.0
C4149 C 0.10743 0.76414 0.71516 0.0
C4150 C 0.13922 0.76166 0.78634 0.0
C4151 C 0.14522 0.76979 0.69947 0.0
C4152 C 0.20774 0.79377 0.759 0.0
C4153 C 0.21773 0.77486 0.75755 0.0
C4154 C 0.18364 0.79109 0.7546 0.0
C4155 C 0.16856 0.76891 0.74823 0.0
C4156 C 0.17853 0.74973 0.74664 0.0
C4157 C 0.20272 0.75291 0.75139 0.0
C4158 C 0.17429 0.81218 0.75687 0.0
C4159 C 0.16361 0.72569 0.73985 0.0
H4160 H 0.094 0.75563 0.76986 0.0
H4161 H 0.0994 0.76458 0.69724 0.0
H4162 H 0.14829 0.74768 0.78663 0.0
H4163 H 0.15218 0.778 0.79316 0.0
H4164 H 0.12629 0.75909 0.79862 0.0
H4165 H 0.13438 0.77032 0.68249 0.0
H4166 H 0.15897 0.78586 0.70387 0.0
H4167 H 0.15369 0.75544 0.69674 0.0
H4168 H 0.21881 0.81089 0.76376 0.0
H4169 H 0.20987 0.73809 0.74995 0.0
H4170 H 0.16224 0.8109 0.7701 0.0
H4171 H 0.1645 0.81343 0.73955 0.0
H4172 H 0.18806 0.82818 0.76249 0.0
H4173 H 0.15326 0.7213 0.75415 0.0
H4174 H 0.17384 0.71278 0.73707 0.0
H4175 H 0.15147 0.72449 0.72328 0.0
C4176 C 0.07598 0.40166 0.41352 0.0
C4177 C 0.05561 0.38635 0.40186 0.0
C4178 C 0.07559 0.42294 0.42655 0.0
C4179 C 0.05434 0.42887 0.42824 0.0
C4180 C 0.03396 0.41389 0.41539 0.0
C4181 C 0.03489 0.39302 0.40242 0.0
C4182 C 0.09774 0.43835 0.43988 0.0
C4183 C 0.01086 0.41916 0.41654 0.0
C4184 C 0.04366 0.46532 0.48299 0.0
C4185 C 0.045 0.48688 0.47567 0.0
C4186 C 0.04815 0.44694 0.46842 0.0
C4187 C 0.05283 0.44944 0.44501 0.0
C4188 C 0.05404 0.47104 0.43722 0.0
C4189 C 0.05085 0.48958 0.45281 0.0
C4190 C 0.04731 0.42459 0.47802 0.0
C4191 C 0.05812 0.47442 0.41218 0.0
H4192 H 0.09196 0.39642 0.41375 0.0
H4193 H 0.019 0.38108 0.39383 0.0
H4194 H 0.09893 0.45638 0.4371 0.0
H4195 H 0.09819 0.43776 0.45929 0.0
H4196 H 0.11295 0.43308 0.43428 0.0
H4197 H 0.99688 0.40674 0.40401 0.0
H4198 H 1.00668 0.41864 0.43488 0.0
H4199 H 0.01127 0.43668 0.41235 0.0
H4200 H 0.0389 0.46255 0.50011 0.0
H4201 H 0.05237 0.50607 0.4467 0.0
H4202 H 0.06266 0.41827 0.4748 0.0
H4203 H 0.032 0.41143 0.4686 0.0
H4204 H 0.04649 0.4263 0.49746 0.0
H4205 H 0.07485 0.47097 0.40916 0.0
H4206 H 0.05803 0.49204 0.40856 0.0
H4207 H 0.04466 0.46202 0.39909 0.0
C4208 C 0.4405 0.23577 0.22196 0.0
C4209 C 0.46089 0.25316 0.22898 0.0
C4210 C 0.41881 0.23873 0.22713 0.0
C4211 C 0.41698 0.25935 0.24063 0.0
C4212 C 0.43763 0.27693 0.248 0.0
C4213 C 0.45902 0.2738 0.24182 0.0
C4214 C 0.39767 0.21971 0.21779 0.0
C4215 C 0.43731 0.29889 0.26322 0.0
C4216 C 0.35818 0.27589 0.23872 0.0
C4217 C 0.34899 0.26655 0.25798 0.0
C4218 C 0.37977 0.27343 0.23274 0.0
C4219 C 0.39363 0.26233 0.24699 0.0
C4220 C 0.38469 0.25358 0.26699 0.0
C4221 C 0.36251 0.2553 0.27184 0.0
C4222 C 0.38751 0.28237 0.21075 0.0
C4223 C 0.39866 0.24251 0.28359 0.0
H4224 H 0.44146 0.21973 0.21205 0.0
H4225 H 0.47448 0.28734 0.24769 0.0
H4226 H 0.38963 0.21314 0.23286 0.0
H4227 H 0.38486 0.22642 0.20696 0.0
H4228 H 0.40153 0.20519 0.20665 0.0
H4229 H 0.45437 0.31126 0.26687 0.0
H4230 H 0.42465 0.30718 0.25444 0.0
H4231 H 0.43187 0.29497 0.28047 0.0
H4232 H 0.34817 0.28483 0.2279 0.0
H4233 H 0.35603 0.24841 0.28706 0.0
H4234 H 0.39067 0.26822 0.19846 0.0
H4235 H 0.40393 0.2956 0.21565 0.0
H4236 H 0.37468 0.28996 0.20109 0.0
H4237 H 0.3992 0.22544 0.27463 0.0
H4238 H 0.39136 0.24019 0.30033 0.0
H4239 H 0.41659 0.25301 0.28822 0.0
C4240 C 0.58201 0.52465 0.35387 0.0
C4241 C 0.60277 0.53976 0.35205 0.0
C4242 C 0.57579 0.52077 0.37633 0.0
C4243 C 0.59033 0.53288 0.39748 0.0
C4244 C 0.61161 0.54773 0.3956 0.0
C4245 C 0.61766 0.55077 0.37292 0.0
C4246 C 0.55315 0.50449 0.37738 0.0
C4247 C 0.62738 0.56145 0.41752 0.0
C4248 C 0.56118 0.54642 0.451 0.0
C4249 C 0.56697 0.53142 0.46637 0.0
C4250 C 0.56886 0.54717 0.42881 0.0
C4251 C 0.58224 0.53207 0.42129 0.0
C4252 C 0.58802 0.51671 0.43666 0.0
C4253 C 0.58059 0.51679 0.4592 0.0
C4254 C 0.56277 0.56432 0.41349 0.0
C4255 C 0.60166 0.49988 0.42911 0.0
H4256 H 0.57041 0.51629 0.3377 0.0
H4257 H 0.63358 0.56271 0.37148 0.0
H4258 H 0.55525 0.49307 0.39094 0.0
H4259 H 0.5408 0.51439 0.38274 0.0
H4260 H 0.54567 0.49376 0.35986 0.0
H4261 H 0.64356 0.57179 0.41312 0.0
H4262 H 0.61857 0.57321 0.42689 0.0
H4263 H 0.63168 0.54989 0.43013 0.0
H4264 H 0.55074 0.55786 0.4565 0.0
H4265 H 0.58487 0.505 0.4709 0.0
H4266 H 0.55244 0.55526 0.39628 0.0
H4267 H 0.57863 0.57547 0.40937 0.0
H4268 H 0.55287 0.57536 0.42227 0.0
H4269 H 0.59226 0.48845 0.41261 0.0
H4270 H 0.6049 0.48919 0.4431 0.0
H4271 H 0.61836 0.50912 0.42487 0.0
C4272 C 0.28324 0.90145 0.07524 0.0
C4273 C 0.28481 0.88777 0.0543 0.0
C4274 C 0.28662 0.89377 0.09728 0.0
C4275 C 0.29167 0.87216 0.0979 0.0
C4276 C 0.29002 0.85716 0.07653 0.0
C4277 C 0.28615 0.86508 0.05484 0.0
C4278 C 0.28752 0.90989 0.11977 0.0
C4279 C 0.29535 0.83393 0.07651 0.0
C4280 C 0.3372 0.86149 0.14264 0.0
C4281 C 0.32389 0.84592 0.15462 0.0
C4282 C 0.32671 0.87206 0.12546 0.0
C4283 C 0.30243 0.86646 0.12013 0.0
C4284 C 0.28895 0.85197 0.13336 0.0
C4285 C 0.29989 0.8417 0.15045 0.0
C4286 C 0.3416 0.88797 0.11197 0.0
C4287 C 0.26307 0.84616 0.12839 0.0
H4288 H 0.28189 0.91895 0.07477 0.0
H4289 H 0.28683 0.85438 0.03847 0.0
H4290 H 0.2819 0.90044 0.13439 0.0
H4291 H 0.30544 0.92003 0.12576 0.0
H4292 H 0.27664 0.92208 0.11659 0.0
H4293 H 0.29133 0.8237 0.05842 0.0
H4294 H 0.31387 0.83623 0.08306 0.0
H4295 H 0.28556 0.82403 0.08867 0.0
H4296 H 0.35575 0.86509 0.14644 0.0
H4297 H 0.28963 0.82969 0.15994 0.0
H4298 H 0.33572 0.90398 0.11124 0.0
H4299 H 0.34022 0.87959 0.09334 0.0
H4300 H 0.35993 0.89255 0.1202 0.0
H4301 H 0.25683 0.86184 0.12651 0.0
H4302 H 0.25525 0.83773 0.1427 0.0
H4303 H 0.25701 0.83438 0.11129 0.0
C4304 C 0.94012 0.55087 0.88005 0.0
C4305 C 0.92335 0.5307 0.87141 0.0
C4306 C 0.95223 0.55376 0.90299 0.0
C4307 C 0.94653 0.53633 0.91728 0.0
C4308 C 0.92698 0.51795 0.90995 0.0
C4309 C 0.91576 0.51506 0.88663 0.0
C4310 C 0.97331 0.57337 0.91016 0.0
C4311 C 0.91996 0.49971 0.92541 0.0
C4312 C 0.99623 0.51844 0.94872 0.0
C4313 C 0.99828 0.53039 0.97155 0.0
C4314 C 0.9795 0.52059 0.93069 0.0
C4315 C 0.96397 0.53407 0.93624 0.0
C4316 C 0.96569 0.54575 0.95938 0.0
C4317 C 0.98355 0.54458 0.97654 0.0
C4318 C 0.97856 0.50853 0.90575 0.0
C4319 C 0.94861 0.55919 0.96607 0.0
H4320 H 0.94566 0.56291 0.86802 0.0
H4321 H 0.90231 0.49971 0.87974 0.0
H4322 H 0.97577 0.58006 0.92943 0.0
H4323 H 0.98865 0.56712 0.90665 0.0
H4324 H 0.97243 0.58768 0.8998 0.0
H4325 H 0.90188 0.4899 0.91958 0.0
H4326 H 0.93108 0.48748 0.92422 0.0
H4327 H 0.92207 0.50737 0.9444 0.0
H4328 H 0.00785 0.50771 0.94492 0.0
H4329 H 0.98574 0.55463 0.99396 0.0
H4330 H 0.97865 0.5208 0.89272 0.0
H4331 H 0.96244 0.4949 0.90066 0.0
H4332 H 0.99322 0.50053 0.90418 0.0
H4333 H 0.94842 0.57295 0.95488 0.0
H4334 H 0.95243 0.56705 0.98513 0.0
H4335 H 0.93111 0.54769 0.96271 0.0
C4336 C 0.29821 0.24057 0.59532 0.0
C4337 C 0.27663 0.23014 0.58198 0.0
C4338 C 0.30049 0.24787 0.62009 0.0
C4339 C 0.28085 0.24379 0.63178 0.0
C4340 C 0.2592 0.2325 0.61834 0.0
C4341 C 0.25733 0.2262 0.59361 0.0
C4342 C 0.3238 0.26019 0.6337 0.0
C4343 C 0.23795 0.22701 0.63007 0.0
C4344 C 0.28756 0.24301 0.69893 0.0
C4345 C 0.28289 0.2639 0.70748 0.0
C4346 C 0.28732 0.23642 0.67446 0.0
C4347 C 0.28267 0.25123 0.65802 0.0
C4348 C 0.27828 0.27251 0.66658 0.0
C4349 C 0.27831 0.27853 0.69115 0.0
C4350 C 0.29147 0.21333 0.66616 0.0
C4351 C 0.27352 0.28893 0.64975 0.0
H4352 H 0.31314 0.24354 0.58632 0.0
H4353 H 0.24068 0.2178 0.58331 0.0
H4354 H 0.32297 0.27685 0.64348 0.0
H4355 H 0.32925 0.24991 0.64718 0.0
H4356 H 0.33704 0.26339 0.62182 0.0
H4357 H 0.22273 0.21684 0.61735 0.0
H4358 H 0.24087 0.21722 0.64496 0.0
H4359 H 0.23406 0.24311 0.63778 0.0
H4360 H 0.29109 0.23153 0.71135 0.0
H4361 H 0.275 0.29483 0.69758 0.0
H4362 H 0.30608 0.21541 0.65598 0.0
H4363 H 0.27615 0.20265 0.65395 0.0
H4364 H 0.29518 0.20397 0.68123 0.0
H4365 H 0.2879 0.29314 0.6394 0.0
H4366 H 0.27116 0.3051 0.65926 0.0
H4367 H 0.25781 0.28079 0.63676 0.0
C4368 C 0.60184 0.53023 0.20296 0.0
C4369 C 0.59332 0.54451 0.21888 0.0
C4370 C 0.59479 0.52759 0.17807 0.0
C4371 C 0.57888 0.53956 0.16879 0.0
C4372 C 0.56988 0.55357 0.18479 0.0
C4373 C 0.57712 0.55582 0.20949 0.0
C4374 C 0.60485 0.51253 0.16165 0.0
C4375 C 0.55286 0.5666 0.17576 0.0
C4376 C 0.57592 0.55381 0.1052 0.0
C4377 C 0.55629 0.5375 0.09333 0.0
C4378 C 0.58385 0.55425 0.12951 0.0
C4379 C 0.57187 0.53798 0.1424 0.0
C4380 C 0.55232 0.52114 0.13033 0.0
C4381 C 0.54486 0.52102 0.10596 0.0
C4382 C 0.60485 0.57242 0.14148 0.0
C4383 C 0.53897 0.50351 0.14329 0.0
H4384 H 0.61444 0.52149 0.20989 0.0
H4385 H 0.57037 0.56692 0.22145 0.0
H4386 H 0.59101 0.50007 0.14907 0.0
H4387 H 0.61565 0.52325 0.15081 0.0
H4388 H 0.61554 0.50294 0.1716 0.0
H4389 H 0.54713 0.57645 0.19049 0.0
H4390 H 0.56065 0.57872 0.16416 0.0
H4391 H 0.53759 0.55455 0.16474 0.0
H4392 H 0.58515 0.56627 0.09546 0.0
H4393 H 0.52971 0.50829 0.09691 0.0
H4394 H 0.61773 0.56433 0.15021 0.0
H4395 H 0.60014 0.58386 0.15563 0.0
H4396 H 0.61288 0.58306 0.12872 0.0
H4397 H 0.55031 0.49324 0.15091 0.0
H4398 H 0.52404 0.49169 0.13143 0.0
H4399 H 0.53267 0.51218 0.15839 0.0
C4400 C 0.31513 0.87132 0.94133 0.0
C4401 C 0.30606 0.8906 0.94263 0.0
C4402 C 0.30848 0.85457 0.92137 0.0
C4403 C 0.29326 0.85796 0.90212 0.0
C4404 C 0.28352 0.8771 0.90359 0.0
C4405 C 0.28985 0.89319 0.92421 0.0
C4406 C 0.31859 0.8339 0.92047 0.0
C4407 C 0.2676 0.88123 0.88291 0.0
C4408 C 0.30657 0.83731 0.84277 0.0
C4409 C 0.28719 0.81952 0.83405 0.0
C4410 C 0.30831 0.85041 0.86473 0.0
C4411 C 0.29116 0.84411 0.87904 0.0
C4412 C 0.27232 0.82508 0.87117 0.0
C4413 C 0.27014 0.81336 0.84821 0.0
C4414 C 0.32832 0.87113 0.87236 0.0
C4415 C 0.2548 0.81705 0.88699 0.0
H4416 H 0.32708 0.8691 0.95613 0.0
H4417 H 0.2826 0.90802 0.92575 0.0
H4418 H 0.30554 0.81814 0.91195 0.0
H4419 H 0.33274 0.83633 0.90966 0.0
H4420 H 0.32566 0.8313 0.93856 0.0
H4421 H 0.26049 0.89626 0.88756 0.0
H4422 H 0.27703 0.8842 0.86762 0.0
H4423 H 0.25316 0.86592 0.87687 0.0
H4424 H 0.32043 0.84111 0.83243 0.0
H4425 H 0.25524 0.79938 0.8414 0.0
H4426 H 0.33936 0.86864 0.88832 0.0
H4427 H 0.32199 0.88661 0.87726 0.0
H4428 H 0.33907 0.87446 0.85811 0.0
H4429 H 0.26344 0.81248 0.90339 0.0
H4430 H 0.2412 0.80186 0.87797 0.0
H4431 H 0.24666 0.83101 0.8927 0.0
C4432 C 0.95146 0.51158 0.73911 0.0
C4433 C 0.93749 0.52603 0.7456 0.0
C4434 C 0.95409 0.5065 0.71538 0.0
C4435 C 0.9432 0.51686 0.69783 0.0
C4436 C 0.92952 0.53196 0.70423 0.0
C4437 C 0.92666 0.53626 0.72818 0.0
C4438 C 0.96823 0.48964 0.70911 0.0
C4439 C 0.91769 0.54314 0.6858 0.0
C4440 C 0.9783 0.51582 0.64918 0.0
C4441 C 0.96725 0.49434 0.63622 0.0
C4442 C 0.96873 0.52525 0.66773 0.0
C4443 C 0.94783 0.51264 0.67324 0.0
C4444 C 0.93528 0.49234 0.65813 0.0
C4445 C 0.94538 0.4832 0.63978 0.0
C4446 C 0.98239 0.54713 0.68324 0.0
C4447 C 0.91252 0.4788 0.66283 0.0
H4448 H 0.95935 0.50315 0.75239 0.0
H4449 H 0.91551 0.54713 0.73319 0.0
H4450 H 0.95787 0.47533 0.69546 0.0
H4451 H 0.98329 0.49825 0.70144 0.0
H4452 H 0.97448 0.48225 0.72482 0.0
H4453 H 0.90653 0.55336 0.69355 0.0
H4454 H 0.93067 0.55459 0.67768 0.0
H4455 H 0.90709 0.52994 0.6712 0.0
H4456 H 0.99505 0.52453 0.64573 0.0
H4457 H 0.93672 0.4669 0.629 0.0
H4458 H 0.99113 0.54288 0.69977 0.0
H4459 H 0.97101 0.55818 0.6886 0.0
H4460 H 0.99565 0.55699 0.67406 0.0
H4461 H 0.91553 0.46577 0.67421 0.0
H4462 H 0.90165 0.46959 0.64588 0.0
H4463 H 0.90303 0.48985 0.67215 0.0
C4464 C 0.29522 0.21101 0.43794 0.0
C4465 C 0.27616 0.21674 0.44651 0.0
C4466 C 0.29996 0.21474 0.41493 0.0
C4467 C 0.28519 0.22422 0.40005 0.0
C4468 C 0.26558 0.22937 0.40838 0.0
C4469 C 0.2614 0.22571 0.43145 0.0
C4470 C 0.32112 0.20915 0.40682 0.0
C4471 C 0.24926 0.23934 0.39311 0.0
C4472 C 0.30696 0.26148 0.35471 0.0
C4473 C 0.29647 0.24804 0.33289 0.0
C4474 C 0.30432 0.25361 0.37659 0.0
C4475 C 0.2913 0.23115 0.37688 0.0
C4476 C 0.2826 0.21642 0.35495 0.0
C4477 C 0.28564 0.22491 0.33323 0.0
C4478 C 0.31426 0.26996 0.39941 0.0
C4479 C 0.26905 0.19213 0.35442 0.0
H4480 H 0.30664 0.20392 0.44933 0.0
H4481 H 0.24641 0.22985 0.43768 0.0
H4482 H 0.31673 0.19874 0.38885 0.0
H4483 H 0.33365 0.22524 0.40541 0.0
H4484 H 0.3295 0.19968 0.41934 0.0
H4485 H 0.234 0.24098 0.40154 0.0
H4486 H 0.25826 0.25657 0.38986 0.0
H4487 H 0.24332 0.22842 0.37548 0.0
H4488 H 0.31699 0.27838 0.35489 0.0
H4489 H 0.27825 0.21376 0.31656 0.0
H4490 H 0.32444 0.26194 0.41187 0.0
H4491 H 0.30011 0.27404 0.4084 0.0
H4492 H 0.32539 0.28627 0.3962 0.0
H4493 H 0.27949 0.18268 0.36483 0.0
H4494 H 0.2636 0.18277 0.33596 0.0
H4495 H 0.25354 0.19215 0.36295 0.0
C4496 C 0.34004 0.59112 0.57453 0.0
C4497 C 0.31927 0.57957 0.56026 0.0
C4498 C 0.36072 0.58763 0.56851 0.0
C4499 C 0.3602 0.5726 0.54755 0.0
C4500 C 0.3391 0.55898 0.53469 0.0
C4501 C 0.31865 0.5625 0.54147 0.0
C4502 C 0.38295 0.60181 0.58306 0.0
C4503 C 0.33808 0.54266 0.51226 0.0
C4504 C 0.40509 0.58598 0.50783 0.0
C4505 C 0.4157 0.56794 0.51007 0.0
C4506 C 0.38757 0.58849 0.52097 0.0
C4507 C 0.38126 0.57303 0.53723 0.0
C4508 C 0.39319 0.5561 0.54114 0.0
C4509 C 0.40976 0.55324 0.52698 0.0
C4510 C 0.37491 0.60675 0.51636 0.0
C4511 C 0.38751 0.54014 0.55925 0.0
H4512 H 0.3402 0.6045 0.58898 0.0
H4513 H 0.30242 0.55397 0.53037 0.0
H4514 H 0.3961 0.59172 0.58454 0.0
H4515 H 0.38972 0.61673 0.57416 0.0
H4516 H 0.38047 0.60841 0.60128 0.0
H4517 H 0.32029 0.53279 0.50494 0.0
H4518 H 0.34517 0.55241 0.49843 0.0
H4519 H 0.34871 0.53038 0.51586 0.0
H4520 H 0.40991 0.59765 0.49525 0.0
H4521 H 0.41725 0.53875 0.52859 0.0
H4522 H 0.37465 0.61751 0.53334 0.0
H4523 H 0.35684 0.59853 0.50842 0.0
H4524 H 0.38276 0.61806 0.50403 0.0
H4525 H 0.38608 0.54994 0.57642 0.0
H4526 H 0.40065 0.53023 0.56261 0.0
H4527 H 0.37069 0.52786 0.55279 0.0
C4528 C 0.8942 0.92602 0.55512 0.0
C4529 C 0.87231 0.92781 0.54563 0.0
C4530 C 0.9139 0.94235 0.55286 0.0
C4531 C 0.9117 0.96129 0.54121 0.0
C4532 C 0.8896 0.96412 0.53298 0.0
C4533 C 0.87006 0.94722 0.5352 0.0
C4534 C 0.93711 0.93853 0.56172 0.0
C4535 C 0.88664 0.98439 0.5209 0.0
C4536 C 0.96819 0.00583 0.55115 0.0
C4537 C 0.97637 1.00113 0.52975 0.0
C4538 C 0.94603 0.99456 0.55422 0.0
C4539 C 0.93271 0.97692 0.5362 0.0
C4540 C 0.94095 0.97239 0.51441 0.0
C4541 C 0.9623 0.98538 0.51108 0.0
C4542 C 0.93715 1.00111 0.57692 0.0
C4543 C 0.92804 0.95287 0.49525 0.0
H4544 H 0.89604 0.91123 0.56354 0.0
H4545 H 0.85318 0.9487 0.52782 0.0
H4546 H 0.94694 0.9372 0.54664 0.0
H4547 H 0.94715 0.95329 0.57498 0.0
H4548 H 0.93577 0.92273 0.57015 0.0
H4549 H 0.86873 0.9863 0.51952 0.0
H4550 H 0.89839 1.00045 0.53074 0.0
H4551 H 0.89101 0.98213 0.50262 0.0
H4552 H 0.97909 0.01834 0.56543 0.0
H4553 H 0.96836 0.9826 0.49417 0.0
H4554 H 0.93701 0.98754 0.58843 0.0
H4555 H 0.91923 1.00272 0.57281 0.0
H4556 H 0.94786 0.01756 0.58713 0.0
H4557 H 0.92762 0.93636 0.50207 0.0
H4558 H 0.93611 0.95266 0.47879 0.0
H4559 H 0.91004 0.95388 0.49055 0.0
C4560 C 0.87077 0.06725 0.2812 0.0
C4561 C 0.89059 0.06751 0.27077 0.0
C4562 C 0.86217 0.08686 0.28432 0.0
C4563 C 0.87356 0.10732 0.27671 0.0
C4564 C 0.89294 0.10745 0.26511 0.0
C4565 C 0.90131 0.08757 0.2624 0.0
C4566 C 0.84137 0.08593 0.29668 0.0
C4567 C 0.90544 0.12875 0.25642 0.0
C4568 C 0.83703 0.15062 0.27846 0.0
C4569 C 0.8445 0.16209 0.30185 0.0
C4570 C 0.84785 0.1341 0.26891 0.0
C4571 C 0.86624 0.12885 0.28324 0.0
C4572 C 0.87525 0.14212 0.30585 0.0
C4573 C 0.86438 0.15867 0.31477 0.0
C4574 C 0.83849 0.12109 0.24423 0.0
C4575 C 0.89506 0.13746 0.32165 0.0
H4576 H 0.86224 0.05183 0.28755 0.0
H4577 H 0.91657 0.08795 0.25416 0.0
H4578 H 0.84606 0.09809 0.31361 0.0
H4579 H 0.82787 0.09125 0.28532 0.0
H4580 H 0.83405 0.06852 0.30081 0.0
H4581 H 0.91646 0.1247 0.24316 0.0
H4582 H 0.89321 0.13788 0.24828 0.0
H4583 H 0.91656 0.14063 0.27175 0.0
H4584 H 0.82189 0.15343 0.26821 0.0
H4585 H 0.87069 0.16808 0.33255 0.0
H4586 H 0.82804 0.10384 0.24566 0.0
H4587 H 0.85265 0.11864 0.23436 0.0
H4588 H 0.8275 0.13003 0.23376 0.0
H4589 H 0.88932 0.12085 0.3282 0.0
H4590 H 0.90175 0.15105 0.33733 0.0
H4591 H 0.90928 0.1361 0.31148 0.0
C4592 C 0.70665 0.07599 0.0248 0.0
C4593 C 0.71232 0.08591 0.04876 0.0
C4594 C 0.68402 0.06455 0.01565 0.0
C4595 C 0.66749 0.06316 0.03114 0.0
C4596 C 0.67397 0.07042 0.05601 0.0
C4597 C 0.69663 0.08175 0.06456 0.0
C4598 C 0.67736 0.05659 0.98915 0.0
C4599 C 0.65667 0.06894 0.07314 0.0
C4600 C 0.60805 0.06983 0.01729 0.0
C4601 C 0.59616 0.04816 0.02071 0.0
C4602 C 0.63174 0.07444 0.01762 0.0
C4603 C 0.64315 0.05684 0.02147 0.0
C4604 C 0.63075 0.03432 0.02186 0.0
C4605 C 0.60731 0.0303 0.02165 0.0
C4606 C 0.64476 0.09878 0.01722 0.0
C4607 C 0.64247 0.01532 0.02629 0.0
H4608 H 0.71908 0.07966 0.01273 0.0
H4609 H 0.70145 0.08975 0.08306 0.0
H4610 H 0.66466 0.03976 0.98552 0.0
H4611 H 0.66919 0.06906 0.98089 0.0
H4612 H 0.69248 0.05517 0.9804 0.0
H4613 H 0.66505 0.0733 0.09207 0.0
H4614 H 0.6458 0.08108 0.06969 0.0
H4615 H 0.6452 0.05149 0.0706 0.0
H4616 H 0.59939 0.08363 0.01677 0.0
H4617 H 0.59829 0.0137 0.02496 0.0
H4618 H 0.65907 0.09917 0.00676 0.0
H4619 H 0.65224 0.10703 0.03574 0.0
H4620 H 0.63341 0.10909 0.00958 0.0
H4621 H 0.65698 0.01595 0.01607 0.0
H4622 H 0.63036 0.99816 0.02146 0.0
H4623 H 0.6495 0.01746 0.04552 0.0
C4624 C 0.23987 0.49924 0.27841 0.0
C4625 C 0.22996 0.50447 0.25707 0.0
C4626 C 0.24521 0.47817 0.27916 0.0
C4627 C 0.24077 0.46228 0.25787 0.0
C4628 C 0.23182 0.46788 0.23599 0.0
C4629 C 0.22637 0.48905 0.23587 0.0
C4630 C 0.25473 0.47266 0.30297 0.0
C4631 C 0.22704 0.45129 0.21306 0.0
C4632 C 0.27452 0.42142 0.27344 0.0
C4633 C 0.25869 0.40775 0.28497 0.0
C4634 C 0.2678 0.43752 0.26041 0.0
C4635 C 0.24498 0.43965 0.25941 0.0
C4636 C 0.22831 0.42331 0.26778 0.0
C4637 C 0.23554 0.40757 0.28093 0.0
C4638 C 0.28577 0.45446 0.25108 0.0
C4639 C 0.20362 0.4246 0.26623 0.0
H4640 H 0.24251 0.51117 0.29476 0.0
H4641 H 0.21873 0.49325 0.21929 0.0
H4642 H 0.24277 0.45767 0.30776 0.0
H4643 H 0.27139 0.46819 0.30194 0.0
H4644 H 0.25741 0.48721 0.31761 0.0
H4645 H 0.22395 0.45982 0.19716 0.0
H4646 H 0.24149 0.4431 0.21121 0.0
H4647 H 0.21157 0.43745 0.21324 0.0
H4648 H 0.29237 0.4207 0.27612 0.0
H4649 H 0.2234 0.3961 0.28923 0.0
H4650 H 0.29196 0.47022 0.26441 0.0
H4651 H 0.27856 0.45949 0.23425 0.0
H4652 H 0.30072 0.44739 0.24792 0.0
H4653 H 0.20188 0.43671 0.28164 0.0
H4654 H 0.19218 0.40759 0.26693 0.0
H4655 H 0.19779 0.43089 0.24965 0.0
C4656 C 0.24197 0.42493 0.04629 0.0
C4657 C 0.2556 0.42824 0.02816 0.0
C4658 C 0.22333 0.43506 0.04747 0.0
C4659 C 0.21791 0.44836 0.02978 0.0
C4660 C 0.23199 0.45224 0.01182 0.0
C4661 C 0.25074 0.44229 0.01136 0.0
C4662 C 0.20906 0.43089 0.06717 0.0
C4663 C 0.22679 0.46627 0.99253 0.0
C4664 C 0.15852 0.45313 0.00673 0.0
C4665 C 0.16046 0.47649 0.01365 0.0
C4666 C 0.17637 0.44303 0.01392 0.0
C4667 C 0.19657 0.45672 0.02841 0.0
C4668 C 0.19738 0.47965 0.03777 0.0
C4669 C 0.17925 0.48938 0.03014 0.0
C4670 C 0.17462 0.41846 0.00372 0.0
C4671 C 0.21829 0.4945 0.05398 0.0
H4672 H 0.24576 0.4143 0.05953 0.0
H4673 H 0.26122 0.445 0.99736 0.0
H4674 H 0.20429 0.44674 0.07421 0.0
H4675 H 0.19294 0.41775 0.06002 0.0
H4676 H 0.21824 0.42467 0.08214 0.0
H4677 H 0.23969 0.46805 0.98018 0.0
H4678 H 0.20965 0.45809 0.98198 0.0
H4679 H 0.22627 0.48365 0.00065 0.0
H4680 H 0.1439 0.44326 0.99394 0.0
H4681 H 0.18068 0.50749 0.0354 0.0
H4682 H 0.18045 0.40895 0.01777 0.0
H4683 H 0.18594 0.41809 0.98986 0.0
H4684 H 0.15682 0.40941 0.99545 0.0
H4685 H 0.22398 0.48512 0.06824 0.0
H4686 H 0.21499 0.5107 0.06233 0.0
H4687 H 0.23259 0.49886 0.04357 0.0
C4688 C 0.90489 0.93206 0.26687 0.0
C4689 C 0.89857 0.95088 0.25815 0.0
C4690 C 0.88845 0.91216 0.2686 0.0
C4691 C 0.86499 0.91068 0.26093 0.0
C4692 C 0.85835 0.92963 0.25229 0.0
C4693 C 0.87523 0.94967 0.25126 0.0
C4694 C 0.89627 0.89263 0.27852 0.0
C4695 C 0.83347 0.92858 0.24393 0.0
C4696 C 0.8299 0.84912 0.24452 0.0
C4697 C 0.82002 0.84559 0.26511 0.0
C4698 C 0.84343 0.8707 0.24233 0.0
C4699 C 0.84772 0.88895 0.26151 0.0
C4700 C 0.83734 0.88552 0.28216 0.0
C4701 C 0.82336 0.86395 0.28357 0.0
C4702 C 0.85381 0.87375 0.21984 0.0
C4703 C 0.84207 0.90416 0.30337 0.0
H4704 H 0.92283 0.93295 0.27266 0.0
H4705 H 0.87021 0.96418 0.24468 0.0
H4706 H 0.88682 0.88746 0.29326 0.0
H4707 H 0.89245 0.8775 0.26442 0.0
H4708 H 0.91495 0.89717 0.28534 0.0
H4709 H 0.83113 0.94447 0.23709 0.0
H4710 H 0.82618 0.91378 0.2296 0.0
H4711 H 0.82348 0.92584 0.25884 0.0
H4712 H 0.82718 0.83492 0.23021 0.0
H4713 H 0.81595 0.86113 0.29965 0.0
H4714 H 0.87269 0.87637 0.22386 0.0
H4715 H 0.85043 0.88921 0.21283 0.0
H4716 H 0.84696 0.85867 0.20571 0.0
H4717 H 0.86009 0.90701 0.31211 0.0
H4718 H 0.8306 0.89968 0.31679 0.0
H4719 H 0.83999 0.92057 0.29766 0.0
C4720 C 0.73582 0.11951 0.79111 0.0
C4721 C 0.74616 0.11051 0.77278 0.0
C4722 C 0.73941 0.14318 0.79715 0.0
C4723 C 0.75496 0.15767 0.78576 0.0
C4724 C 0.76848 0.14847 0.7705 0.0
C4725 C 0.76354 0.12476 0.76377 0.0
C4726 C 0.72417 0.15242 0.81281 0.0
C4727 C 0.78595 0.16363 0.75879 0.0
C4728 C 0.7466 0.21145 0.76383 0.0
C4729 C 0.76436 0.22745 0.7788 0.0
C4730 C 0.74152 0.18854 0.76743 0.0
C4731 C 0.7547 0.18191 0.78645 0.0
C4732 C 0.77092 0.19851 0.80305 0.0
C4733 C 0.776 0.22109 0.79859 0.0
C4734 C 0.72399 0.17117 0.7493 0.0
C4735 C 0.78497 0.19207 0.82372 0.0
H4736 H 0.72223 0.10829 0.79791 0.0
H4737 H 0.7713 0.11765 0.74948 0.0
H4738 H 0.73389 0.16807 0.82507 0.0
H4739 H 0.71035 0.15723 0.80138 0.0
H4740 H 0.71603 0.13949 0.82347 0.0
H4741 H 0.79725 0.15395 0.75047 0.0
H4742 H 0.77698 0.17103 0.74467 0.0
H4743 H 0.79679 0.17806 0.77197 0.0
H4744 H 0.73804 0.21648 0.7482 0.0
H4745 H 0.79042 0.23308 0.80945 0.0
H4746 H 0.71326 0.15828 0.75818 0.0
H4747 H 0.73295 0.16195 0.7371 0.0
H4748 H 0.71262 0.17942 0.73837 0.0
H4749 H 0.77418 0.17906 0.8324 0.0
H4750 H 0.79341 0.20721 0.83734 0.0
H4751 H 0.79848 0.18449 0.81703 0.0
loop_
_geom_bond_atom_site_label_1
_geom_bond_atom_site_label_2
_geom_bond_distance
_geom_bond_site_symmetry_2
_ccdc_geom_bond_type
Zn0 O3 2.031 . S
Zn0 O5 2.049 . S
Zn0 O10 2.067 1_455 S
Zn1 O2 1.962 . S
Zn1 O4 1.986 . S
Zn1 O6 1.996 . S
Zn1 O9 1.943 . S
O2 Zn1 1.962 . S
O2 C7 1.254 . S
O3 Zn0 2.031 . S
O3 C7 1.269 . S
O4 Zn1 1.986 . S
O4 C11 1.262 . S
O5 Zn0 2.049 . S
O5 C13 1.260 . S
O6 Zn1 1.996 . S
O6 C13 1.257 . S
C7 O2 1.254 . S
C7 O3 1.269 . S
C8 O9 1.249 . S
C8 O10 1.270 1_455 S
O9 Zn1 1.943 . S
O9 C8 1.249 . S
O10 Zn0 2.067 1_655 S
O10 C8 1.270 1_655 S
C11 O4 1.262 . S
C11 O12 1.232 . S
O12 C11 1.232 . S
C13 O5 1.260 . S
C13 O6 1.257 . S
Zn14 O17 2.031 1_455 S
Zn14 O19 2.049 . S
Zn14 O24 2.067 . S
Zn15 O16 1.962 1_455 S
Zn15 O18 1.986 . S
Zn15 O20 1.996 . S
Zn15 O23 1.943 . S
O16 Zn15 1.962 1_655 S
O16 C21 1.254 . S
O17 Zn14 2.031 1_655 S
O17 C21 1.269 . S
O18 Zn15 1.986 . S
O18 C25 1.262 . S
O19 Zn14 2.049 . S
O19 C27 1.260 . S
O20 Zn15 1.996 . S
O20 C27 1.257 . S
C21 O16 1.254 . S
C21 O17 1.269 . S
C22 O23 1.249 . S
C22 O24 1.270 . S
O23 Zn15 1.943 . S
O23 C22 1.249 . S
O24 Zn14 2.067 . S
O24 C22 1.270 . S
C25 O18 1.262 . S
C25 O26 1.232 . S
O26 C25 1.232 . S
C27 O19 1.260 . S
C27 O20 1.257 . S
Zn28 O31 2.031 . S
Zn28 O33 2.049 . S
Zn28 O38 2.067 . S
Zn29 O30 1.962 . S
Zn29 O32 1.986 . S
Zn29 O34 1.996 . S
Zn29 O37 1.943 . S
O30 Zn29 1.962 . S
O30 C35 1.254 . S
O31 Zn28 2.031 . S
O31 C35 1.269 . S
O32 Zn29 1.986 . S
O32 C39 1.262 . S
O33 Zn28 2.049 . S
O33 C41 1.260 . S
O34 Zn29 1.996 . S
O34 C41 1.257 . S
C35 O30 1.254 . S
C35 O31 1.269 . S
C36 O37 1.249 . S
C36 O38 1.270 . S
O37 Zn29 1.943 . S
O37 C36 1.249 . S
O38 Zn28 2.067 . S
O38 C36 1.270 . S
C39 O32 1.262 . S
C39 O40 1.232 . S
O40 C39 1.232 . S
C41 O33 1.260 . S
C41 O34 1.257 . S
Zn42 O45 2.031 . S
Zn42 O47 2.049 . S
Zn42 O52 2.067 . S
Zn43 O44 1.962 . S
Zn43 O46 1.986 . S
Zn43 O48 1.996 . S
Zn43 O51 1.943 . S
O44 Zn43 1.962 . S
O44 C49 1.254 . S
O45 Zn42 2.031 . S
O45 C49 1.269 . S
O46 Zn43 1.986 . S
O46 C53 1.262 . S
O47 Zn42 2.049 . S
O47 C55 1.260 . S
O48 Zn43 1.996 . S
O48 C55 1.257 . S
C49 O44 1.254 . S
C49 O45 1.269 . S
C50 O51 1.249 . S
C50 O52 1.270 . S
O51 Zn43 1.943 . S
O51 C50 1.249 . S
O52 Zn42 2.067 . S
O52 C50 1.270 . S
C53 O46 1.262 . S
C53 O54 1.232 . S
O54 C53 1.232 . S
C55 O47 1.260 . S
C55 O48 1.257 . S
Zn56 O59 2.031 . S
Zn56 O61 2.049 . S
Zn56 O66 2.067 . S
Zn57 O58 1.962 . S
Zn57 O60 1.986 . S
Zn57 O62 1.996 . S
Zn57 O65 1.943 . S
O58 Zn57 1.962 . S
O58 C63 1.254 . S
O59 Zn56 2.031 . S
O59 C63 1.269 . S
O60 Zn57 1.986 . S
O60 C67 1.262 . S
O61 Zn56 2.049 . S
O61 C69 1.260 . S
O62 Zn57 1.996 . S
O62 C69 1.257 . S
C63 O58 1.254 . S
C63 O59 1.269 . S
C64 O65 1.249 . S
C64 O66 1.270 . S
O65 Zn57 1.943 . S
O65 C64 1.249 . S
O66 Zn56 2.067 . S
O66 C64 1.270 . S
C67 O60 1.262 . S
C67 O68 1.232 . S
O68 C67 1.232 . S
C69 O61 1.260 . S
C69 O62 1.257 . S
Zn70 O73 2.031 . S
Zn70 O75 2.049 . S
Zn70 O80 2.067 . S
Zn71 O72 1.962 . S
Zn71 O74 1.986 . S
Zn71 O76 1.996 . S
Zn71 O79 1.943 . S
O72 Zn71 1.962 . S
O72 C77 1.254 . S
O73 Zn70 2.031 . S
O73 C77 1.269 . S
O74 Zn71 1.986 . S
O74 C81 1.262 . S
O75 Zn70 2.049 . S
O75 C83 1.260 . S
O76 Zn71 1.996 . S
O76 C83 1.257 . S
C77 O72 1.254 . S
C77 O73 1.269 . S
C78 O79 1.249 . S
C78 O80 1.270 . S
O79 Zn71 1.943 . S
O79 C78 1.249 . S
O80 Zn70 2.067 . S
O80 C78 1.270 . S
C81 O74 1.262 . S
C81 O82 1.232 . S
O82 C81 1.232 . S
C83 O75 1.260 . S
C83 O76 1.257 . S
Zn84 O87 2.031 . S
Zn84 O89 2.049 . S
Zn84 O94 2.067 . S
Zn85 O86 1.962 . S
Zn85 O88 1.986 . S
Zn85 O90 1.996 . S
Zn85 O93 1.943 . S
O86 Zn85 1.962 . S
O86 C91 1.254 . S
O87 Zn84 2.031 . S
O87 C91 1.269 . S
O88 Zn85 1.986 . S
O88 C95 1.262 . S
O89 Zn84 2.049 . S
O89 C97 1.260 . S
O90 Zn85 1.996 . S
O90 C97 1.257 . S
C91 O86 1.254 . S
C91 O87 1.269 . S
C92 O93 1.249 . S
C92 O94 1.270 . S
O93 Zn85 1.943 . S
O93 C92 1.249 . S
O94 Zn84 2.067 . S
O94 C92 1.270 . S
C95 O88 1.262 . S
C95 O96 1.232 . S
O96 C95 1.232 . S
C97 O89 1.260 . S
C97 O90 1.257 . S
Zn98 O101 2.031 . S
Zn98 O103 2.049 . S
Zn98 O108 2.067 . S
Zn99 O100 1.962 . S
Zn99 O102 1.986 . S
Zn99 O104 1.996 . S
Zn99 O107 1.943 1_455 S
O100 Zn99 1.962 . S
O100 C105 1.254 . S
O101 Zn98 2.031 . S
O101 C105 1.269 1_655 S
O102 Zn99 1.986 . S
O102 C109 1.262 . S
O103 Zn98 2.049 . S
O103 C111 1.260 . S
O104 Zn99 1.996 . S
O104 C111 1.257 1_455 S
C105 O100 1.254 . S
C105 O101 1.269 1_455 S
C106 O107 1.249 . S
C106 O108 1.270 . S
O107 Zn99 1.943 1_655 S
O107 C106 1.249 . S
O108 Zn98 2.067 . S
O108 C106 1.270 . S
C109 O102 1.262 . S
C109 O110 1.232 . S
O110 C109 1.232 . S
C111 O103 1.260 . S
C111 O104 1.257 1_655 S
Zn112 O115 2.031 . S
Zn112 O117 2.049 . S
Zn112 O122 2.067 . S
Zn113 O114 1.962 . S
Zn113 O116 1.986 . S
Zn113 O118 1.996 . S
Zn113 O121 1.943 1_545 S
O114 Zn113 1.962 . S
O114 C119 1.254 . S
O115 Zn112 2.031 . S
O115 C119 1.269 1_565 S
O116 Zn113 1.986 . S
O116 C123 1.262 . S
O117 Zn112 2.049 . S
O117 C125 1.262 1_565 S
O118 Zn113 1.996 . S
O118 C125 1.256 . S
C119 O114 1.254 . S
C119 O115 1.269 1_545 S
C120 O121 1.249 . S
C120 O122 1.270 . S
O121 Zn113 1.943 1_565 S
O121 C120 1.249 . S
O122 Zn112 2.067 . S
O122 C120 1.270 . S
C123 O116 1.262 . S
C123 O124 1.232 . S
O124 C123 1.232 . S
C125 O117 1.262 1_545 S
C125 O118 1.256 . S
Zn126 O129 2.031 . S
Zn126 O131 2.049 . S
Zn126 O136 2.067 . S
Zn127 O128 1.962 . S
Zn127 O130 1.986 . S
Zn127 O132 1.996 . S
Zn127 O135 1.943 . S
O128 Zn127 1.962 . S
O128 C133 1.254 . S
O129 Zn126 2.031 . S
O129 C133 1.269 . S
O130 Zn127 1.986 . S
O130 C137 1.262 . S
O131 Zn126 2.049 . S
O131 C139 1.260 . S
O132 Zn127 1.996 . S
O132 C139 1.257 . S
C133 O128 1.254 . S
C133 O129 1.269 . S
C134 O135 1.249 . S
C134 O136 1.270 . S
O135 Zn127 1.943 . S
O135 C134 1.249 . S
O136 Zn126 2.067 . S
O136 C134 1.270 . S
C137 O130 1.262 . S
C137 O138 1.232 . S
O138 C137 1.232 . S
C139 O131 1.260 . S
C139 O132 1.257 . S
Zn140 O143 2.031 . S
Zn140 O145 2.049 . S
Zn140 O150 2.067 . S
Zn141 O142 1.962 . S
Zn141 O144 1.986 . S
Zn141 O146 1.996 . S
Zn141 O149 1.943 . S
O142 Zn141 1.962 . S
O142 C147 1.254 . S
O143 Zn140 2.031 . S
O143 C147 1.269 . S
O144 Zn141 1.986 . S
O144 C151 1.262 . S
O145 Zn140 2.049 . S
O145 C153 1.260 . S
O146 Zn141 1.996 . S
O146 C153 1.257 . S
C147 O142 1.254 . S
C147 O143 1.269 . S
C148 O149 1.249 . S
C148 O150 1.270 . S
O149 Zn141 1.943 . S
O149 C148 1.249 . S
O150 Zn140 2.067 . S
O150 C148 1.270 . S
C151 O144 1.262 . S
C151 O152 1.232 . S
O152 C151 1.232 . S
C153 O145 1.260 . S
C153 O146 1.257 . S
Zn154 O157 2.031 1_554 S
Zn154 O159 2.049 . S
Zn154 O164 2.067 . S
Zn155 O156 1.962 . S
Zn155 O158 1.986 1_556 S
Zn155 O160 1.996 1_556 S
Zn155 O163 1.943 1_556 S
O156 Zn155 1.962 . S
O156 C161 1.254 . S
O157 Zn154 2.031 1_556 S
O157 C161 1.269 . S
O158 Zn155 1.986 1_554 S
O158 C165 1.262 1_554 S
O159 Zn154 2.049 . S
O159 C167 1.260 . S
O160 Zn155 1.996 1_554 S
O160 C167 1.257 . S
C161 O156 1.254 . S
C161 O157 1.269 . S
C162 O163 1.249 . S
C162 O164 1.270 . S
O163 Zn155 1.943 1_554 S
O163 C162 1.249 . S
O164 Zn154 2.067 . S
O164 C162 1.270 . S
C165 O158 1.262 1_556 S
C165 O166 1.232 . S
O166 C165 1.232 . S
C167 O159 1.260 . S
C167 O160 1.257 . S
Zn168 O171 2.031 . S
Zn168 O173 2.049 . S
Zn168 O178 2.067 . S
Zn169 O170 1.962 . S
Zn169 O172 1.986 . S
Zn169 O174 1.996 . S
Zn169 O177 1.943 . S
O170 Zn169 1.962 . S
O170 C175 1.262 . S
O171 Zn168 2.031 . S
O171 C175 1.276 . S
O172 Zn169 1.986 . S
O172 C179 1.262 . S
O173 Zn168 2.049 . S
O173 C181 1.260 . S
O174 Zn169 1.996 . S
O174 C181 1.257 . S
C175 O170 1.262 . S
C175 O171 1.276 . S
C176 O177 1.249 . S
C176 O178 1.270 . S
O177 Zn169 1.943 . S
O177 C176 1.249 . S
O178 Zn168 2.067 . S
O178 C176 1.270 . S
C179 O172 1.262 . S
C179 O180 1.232 . S
O180 C179 1.232 . S
C181 O173 1.260 . S
C181 O174 1.257 . S
Zn182 O185 2.031 . S
Zn182 O187 2.049 . S
Zn182 O192 2.067 . S
Zn183 O184 1.962 . S
Zn183 O186 1.986 . S
Zn183 O188 1.996 . S
Zn183 O191 1.943 . S
O184 Zn183 1.962 . S
O184 C189 1.254 . S
O185 Zn182 2.031 . S
O185 C189 1.269 . S
O186 Zn183 1.986 . S
O186 C193 1.262 . S
O187 Zn182 2.049 . S
O187 C195 1.260 . S
O188 Zn183 1.996 . S
O188 C195 1.257 . S
C189 O184 1.254 . S
C189 O185 1.269 . S
C190 O191 1.249 . S
C190 O192 1.270 . S
O191 Zn183 1.943 . S
O191 C190 1.249 . S
O192 Zn182 2.067 . S
O192 C190 1.270 . S
C193 O186 1.262 . S
C193 O194 1.232 . S
O194 C193 1.232 . S
C195 O187 1.260 . S
C195 O188 1.257 . S
Zn196 O199 2.031 . S
Zn196 O201 2.049 . S
Zn196 O206 2.067 . S
Zn197 O198 1.962 . S
Zn197 O200 1.986 . S
Zn197 O202 1.996 . S
Zn197 O205 1.943 . S
O198 Zn197 1.962 . S
O198 C203 1.254 . S
O199 Zn196 2.031 . S
O199 C203 1.269 . S
O200 Zn197 1.986 . S
O200 C207 1.262 . S
O201 Zn196 2.049 . S
O201 C209 1.260 . S
O202 Zn197 1.996 . S
O202 C209 1.257 . S
C203 O198 1.254 . S
C203 O199 1.269 . S
C204 O205 1.249 . S
C204 O206 1.270 . S
O205 Zn197 1.943 . S
O205 C204 1.249 . S
O206 Zn196 2.067 . S
O206 C204 1.270 . S
C207 O200 1.262 . S
C207 O208 1.232 . S
O208 C207 1.232 . S
C209 O201 1.260 . S
C209 O202 1.257 . S
Zn210 O213 2.031 . S
Zn210 O215 2.049 . S
Zn210 O220 2.067 . S
Zn211 O212 1.962 . S
Zn211 O214 1.986 . S
Zn211 O216 1.996 . S
Zn211 O219 1.943 . S
O212 Zn211 1.962 . S
O212 C217 1.254 . S
O213 Zn210 2.031 . S
O213 C217 1.269 . S
O214 Zn211 1.986 . S
O214 C221 1.262 . S
O215 Zn210 2.049 . S
O215 C223 1.260 . S
O216 Zn211 1.996 . S
O216 C223 1.257 . S
C217 O212 1.254 . S
C217 O213 1.269 . S
C218 O219 1.249 . S
C218 O220 1.270 . S
O219 Zn211 1.943 . S
O219 C218 1.249 . S
O220 Zn210 2.067 . S
O220 C218 1.270 . S
C221 O214 1.262 . S
C221 O222 1.232 . S
O222 C221 1.232 . S
C223 O215 1.260 . S
C223 O216 1.257 . S
Zn224 O227 2.031 . S
Zn224 O229 2.049 . S
Zn224 O234 2.067 . S
Zn225 O226 1.962 . S
Zn225 O228 1.986 . S
Zn225 O230 1.996 . S
Zn225 O233 1.943 1_545 S
O226 Zn225 1.962 . S
O226 C231 1.254 . S
O227 Zn224 2.031 . S
O227 C231 1.269 1_565 S
O228 Zn225 1.986 . S
O228 C235 1.262 . S
O229 Zn224 2.049 . S
O229 C237 1.260 1_565 S
O230 Zn225 1.996 . S
O230 C237 1.257 . S
C231 O226 1.254 . S
C231 O227 1.269 1_545 S
C232 O233 1.249 . S
C232 O234 1.270 . S
O233 Zn225 1.943 1_565 S
O233 C232 1.249 . S
O234 Zn224 2.067 . S
O234 C232 1.270 . S
C235 O228 1.262 . S
C235 O236 1.232 . S
O236 C235 1.232 . S
C237 O229 1.260 1_545 S
C237 O230 1.257 . S
Zn238 O241 2.031 . S
Zn238 O243 2.049 . S
Zn238 O248 2.067 . S
Zn239 O240 1.962 . S
Zn239 O242 1.986 . S
Zn239 O244 1.996 . S
Zn239 O247 1.943 . S
O240 Zn239 1.962 . S
O240 C245 1.254 . S
O241 Zn238 2.031 . S
O241 C245 1.269 . S
O242 Zn239 1.986 . S
O242 C249 1.262 . S
O243 Zn238 2.049 . S
O243 C251 1.260 . S
O244 Zn239 1.996 . S
O244 C251 1.257 . S
C245 O240 1.254 . S
C245 O241 1.269 . S
C246 O247 1.249 . S
C246 O248 1.270 . S
O247 Zn239 1.943 . S
O247 C246 1.249 . S
O248 Zn238 2.067 . S
O248 C246 1.270 . S
C249 O242 1.262 . S
C249 O250 1.232 . S
O250 C249 1.232 . S
C251 O243 1.260 . S
C251 O244 1.257 . S
Zn252 O255 2.031 . S
Zn252 O257 2.049 . S
Zn252 O262 2.067 . S
Zn253 O254 1.962 . S
Zn253 O256 1.986 . S
Zn253 O258 1.996 . S
Zn253 O261 1.943 . S
O254 Zn253 1.962 . S
O254 C259 1.254 . S
O255 Zn252 2.031 . S
O255 C259 1.269 . S
O256 Zn253 1.986 . S
O256 C263 1.262 . S
O257 Zn252 2.049 . S
O257 C265 1.260 . S
O258 Zn253 1.996 . S
O258 C265 1.257 . S
C259 O254 1.254 . S
C259 O255 1.269 . S
C260 O261 1.249 . S
C260 O262 1.270 . S
O261 Zn253 1.943 . S
O261 C260 1.249 . S
O262 Zn252 2.067 . S
O262 C260 1.270 . S
C263 O256 1.262 . S
C263 O264 1.232 . S
O264 C263 1.232 . S
C265 O257 1.260 . S
C265 O258 1.257 . S
Zn266 O269 2.031 . S
Zn266 O271 2.049 . S
Zn266 O276 2.067 . S
Zn267 O268 1.962 . S
Zn267 O270 1.986 . S
Zn267 O272 1.996 . S
Zn267 O275 1.943 . S
O268 Zn267 1.962 . S
O268 C273 1.254 . S
O269 Zn266 2.031 . S
O269 C273 1.269 . S
O270 Zn267 1.986 . S
O270 C277 1.262 . S
O271 Zn266 2.049 . S
O271 C279 1.260 . S
O272 Zn267 1.996 . S
O272 C279 1.257 . S
C273 O268 1.254 . S
C273 O269 1.269 . S
C274 O275 1.249 . S
C274 O276 1.270 . S
O275 Zn267 1.943 . S
O275 C274 1.249 . S
O276 Zn266 2.067 . S
O276 C274 1.270 . S
C277 O270 1.262 . S
C277 O278 1.232 . S
O278 C277 1.232 . S
C279 O271 1.260 . S
C279 O272 1.257 . S
Zn280 O283 2.031 1_554 S
Zn280 O285 2.049 . S
Zn280 O290 2.067 . S
Zn281 O282 1.962 1_554 S
Zn281 O284 1.986 . S
Zn281 O286 1.996 . S
Zn281 O289 1.943 . S
O282 Zn281 1.962 1_556 S
O282 C287 1.254 . S
O283 Zn280 2.031 1_556 S
O283 C287 1.269 . S
O284 Zn281 1.986 . S
O284 C291 1.262 . S
O285 Zn280 2.049 . S
O285 C293 1.260 . S
O286 Zn281 1.996 . S
O286 C293 1.257 . S
C287 O282 1.254 . S
C287 O283 1.269 . S
C288 O289 1.249 . S
C288 O290 1.270 . S
O289 Zn281 1.943 . S
O289 C288 1.249 . S
O290 Zn280 2.067 . S
O290 C288 1.270 . S
C291 O284 1.262 . S
C291 O292 1.232 1_554 S
O292 C291 1.232 1_556 S
C293 O285 1.260 . S
C293 O286 1.257 . S
Zn294 O297 2.031 . S
Zn294 O299 2.049 . S
Zn294 O304 2.067 . S
Zn295 O296 1.962 . S
Zn295 O298 1.986 . S
Zn295 O300 1.996 . S
Zn295 O303 1.943 . S
O296 Zn295 1.962 . S
O296 C301 1.254 . S
O297 Zn294 2.031 . S
O297 C301 1.269 . S
O298 Zn295 1.986 . S
O298 C305 1.262 . S
O299 Zn294 2.049 . S
O299 C307 1.260 . S
O300 Zn295 1.996 . S
O300 C307 1.257 . S
C301 O296 1.254 . S
C301 O297 1.269 . S
C302 O303 1.249 . S
C302 O304 1.270 . S
O303 Zn295 1.943 . S
O303 C302 1.249 . S
O304 Zn294 2.067 . S
O304 C302 1.270 . S
C305 O298 1.262 . S
C305 O306 1.232 . S
O306 C305 1.232 . S
C307 O299 1.260 . S
C307 O300 1.257 . S
Zn308 O311 2.031 . S
Zn308 O313 2.049 . S
Zn308 O318 2.067 . S
Zn309 O310 1.962 . S
Zn309 O312 1.986 . S
Zn309 O314 1.996 . S
Zn309 O317 1.943 . S
O310 Zn309 1.962 . S
O310 C315 1.254 . S
O311 Zn308 2.031 . S
O311 C315 1.269 . S
O312 Zn309 1.986 . S
O312 C319 1.262 . S
O313 Zn308 2.049 . S
O313 C321 1.260 . S
O314 Zn309 1.996 . S
O314 C321 1.257 . S
C315 O310 1.254 . S
C315 O311 1.269 . S
C316 O317 1.249 . S
C316 O318 1.270 . S
O317 Zn309 1.943 . S
O317 C316 1.249 . S
O318 Zn308 2.067 . S
O318 C316 1.270 . S
C319 O312 1.262 . S
C319 O320 1.232 . S
O320 C319 1.232 . S
C321 O313 1.260 . S
C321 O314 1.257 . S
Zn322 O325 2.031 . S
Zn322 O327 2.049 . S
Zn322 O332 2.067 . S
Zn323 O324 1.962 . S
Zn323 O326 1.986 . S
Zn323 O328 1.996 . S
Zn323 O331 1.943 . S
O324 Zn323 1.962 . S
O324 C329 1.254 . S
O325 Zn322 2.031 . S
O325 C329 1.269 . S
O326 Zn323 1.986 . S
O326 C333 1.262 . S
O327 Zn322 2.049 . S
O327 C335 1.260 . S
O328 Zn323 1.996 . S
O328 C335 1.257 . S
C329 O324 1.254 . S
C329 O325 1.269 . S
C330 O331 1.249 . S
C330 O332 1.270 . S
O331 Zn323 1.943 . S
O331 C330 1.249 . S
O332 Zn322 2.067 . S
O332 C330 1.270 . S
C333 O326 1.262 . S
C333 O334 1.232 . S
O334 C333 1.232 . S
C335 O327 1.260 . S
C335 O328 1.257 . S
Tb336 N365 2.617 . S
Tb336 N371 2.572 . S
Tb336 O380 2.465 . S
Tb336 O381 2.387 . S
Tb336 O383 2.428 . S
Tb336 O384 2.308 . S
Tb336 O388 2.349 . S
Tb336 O391 2.393 . S
Tb336 C400 2.802 . S
C337 N338 1.379 . S
C337 C340 1.416 . S
C337 C344 1.424 1_556 S
N338 C337 1.379 . S
N338 C341 1.334 . S
N338 Tb347 2.623 1_566 S
C339 C341 1.390 . S
C339 C342 1.339 . S
C339 H359 0.930 . S
C340 C337 1.416 . S
C340 C342 1.416 . S
C340 C346 1.448 . S
C341 N338 1.334 . S
C341 C339 1.390 . S
C341 H352 0.930 . S
C342 C339 1.339 . S
C342 C340 1.416 . S
C342 H363 0.930 . S
C343 C344 1.413 . S
C343 C345 1.427 1_554 S
C343 C349 1.416 . S
C344 C337 1.424 1_554 S
C344 C343 1.413 . S
C344 N348 1.361 . S
C345 C343 1.427 1_556 S
C345 C346 1.328 . S
C345 H360 0.927 . S
C346 C340 1.448 . S
C346 C345 1.328 . S
C346 H361 0.930 . S
Tb347 N338 2.623 1_544 S
Tb347 N348 2.592 1_545 S
Tb347 O382 2.345 1_655 S
Tb347 O385 2.365 1_654 S
Tb347 O386 2.503 . S
Tb347 O387 2.359 1_645 S
Tb347 O389 2.459 1_554 S
Tb347 O390 2.301 1_655 S
Tb347 C411 2.841 . S
N348 C344 1.361 . S
N348 Tb347 2.592 1_565 S
N348 C350 1.340 . S
C349 C343 1.416 . S
C349 C351 1.332 . S
C349 H357 0.931 . S
C350 N348 1.340 . S
C350 C351 1.407 . S
C350 H356 0.930 . S
C351 C349 1.332 . S
C351 C350 1.407 . S
C351 H353 0.929 . S
H352 C341 0.930 . S
H353 C351 0.929 . S
H354 C369 0.930 . S
H355 C376 0.929 1_556 S
H356 C350 0.930 . S
H357 C349 0.931 . S
H358 C372 0.930 . S
H359 C339 0.930 . S
H360 C345 0.927 . S
H361 C346 0.930 . S
H362 C367 0.930 . S
H363 C342 0.930 . S
H364 C375 0.931 . S
N365 Tb336 2.617 . S
N365 C366 1.379 . S
N365 C369 1.334 . S
C366 N365 1.379 . S
C366 C368 1.416 . S
C366 C374 1.424 . S
C367 H362 0.930 . S
C367 C369 1.390 . S
C367 C370 1.339 . S
C368 C366 1.416 . S
C368 C370 1.416 . S
C368 C401 1.448 . S
C369 H354 0.930 . S
C369 N365 1.334 . S
C369 C367 1.390 . S
C370 C367 1.339 . S
C370 C368 1.416 . S
C370 H377 0.930 . S
N371 Tb336 2.572 . S
N371 C372 1.340 . S
N371 C374 1.361 . S
C372 H358 0.930 . S
C372 N371 1.340 . S
C372 C376 1.407 . S
C373 C374 1.413 . S
C373 C375 1.416 . S
C373 C402 1.427 . S
C374 C366 1.424 . S
C374 N371 1.361 . S
C374 C373 1.413 . S
C375 H364 0.931 . S
C375 C373 1.416 . S
C375 C376 1.332 . S
C376 H355 0.929 1_554 S
C376 C372 1.407 . S
C376 C375 1.332 . S
H377 C370 0.930 . S
H378 C401 0.930 . S
H379 C402 0.929 . S
O380 Tb336 2.465 . S
O380 C400 1.264 . S
O381 Tb336 2.387 . S
O381 C392 1.264 . S
O382 Tb347 2.345 1_455 S
O382 C392 1.243 . S
O383 Tb336 2.428 . S
O383 C400 1.256 . S
O384 Tb336 2.308 . S
O384 C399 1.266 1_554 S
O385 Tb347 2.365 1_456 S
O385 C399 1.248 . S
O386 Tb347 2.503 . S
O386 C411 1.264 . S
O387 Tb347 2.359 1_465 S
O387 C403 1.264 . S
O388 Tb336 2.349 . S
O388 C403 1.243 1_545 S
O389 Tb347 2.459 1_556 S
O389 C411 1.256 1_556 S
O390 Tb347 2.301 1_455 S
O390 C410 1.266 . S
O391 Tb336 2.393 . S
O391 C410 1.248 . S
C392 O381 1.264 . S
C392 O382 1.243 . S
C393 C396 1.399 . S
C393 C398 1.383 . S
C393 C400 1.496 . S
C394 C395 1.399 . S
C394 C398 1.389 . S
C395 C394 1.399 . S
C395 C397 1.380 . S
C395 H412 0.929 . S
C396 C393 1.399 . S
C396 C397 1.392 . S
C396 H413 0.929 . S
C397 C395 1.380 . S
C397 C396 1.392 . S
C397 H414 0.929 . S
C398 C393 1.383 . S
C398 C394 1.389 . S
C398 H415 0.931 . S
C399 O384 1.266 1_556 S
C399 O385 1.248 . S
C400 Tb336 2.802 . S
C400 O380 1.264 . S
C400 O383 1.256 . S
C400 C393 1.496 . S
C401 C368 1.448 . S
C401 H378 0.930 . S
C401 C402 1.328 . S
C402 C373 1.427 . S
C402 H379 0.929 . S
C402 C401 1.328 . S
C403 O387 1.264 . S
C403 O388 1.243 1_565 S
C404 C407 1.355 1_554 S
C404 C408 1.423 . S
C404 C411 1.501 . S
C405 C406 1.399 1_554 S
C405 C408 1.389 . S
C406 C405 1.399 1_556 S
C406 C409 1.380 . S
C406 H416 0.929 . S
C407 C404 1.355 1_556 S
C407 C409 1.392 . S
C407 H417 0.929 . S
C408 C404 1.423 . S
C408 C405 1.389 . S
C408 H418 0.931 . S
C409 C406 1.380 . S
C409 C407 1.392 . S
C409 H419 0.929 . S
C410 O390 1.266 . S
C410 O391 1.248 . S
C411 Tb347 2.841 . S
C411 O386 1.264 . S
C411 O389 1.256 1_554 S
C411 C404 1.501 . S
H412 C395 0.929 . S
H413 C396 0.929 . S
H414 C397 0.929 . S
H415 C398 0.931 . S
H416 C406 0.929 . S
H417 C407 0.929 . S
H418 C408 0.931 . S
H419 C409 0.929 . S
Tb420 N449 2.617 . S
Tb420 N455 2.572 . S
Tb420 O464 2.465 . S
Tb420 O465 2.387 . S
Tb420 O467 2.428 . S
Tb420 O468 2.308 . S
Tb420 O472 2.349 . S
Tb420 O475 2.393 . S
Tb420 C484 2.802 . S
C421 N422 1.379 . S
C421 C424 1.416 . S
C421 C428 1.424 . S
N422 C421 1.379 . S
N422 C425 1.334 . S
N422 Tb431 2.617 . S
C423 C425 1.390 . S
C423 C426 1.339 . S
C423 H443 0.930 . S
C424 C421 1.416 . S
C424 C426 1.416 . S
C424 C430 1.448 . S
C425 N422 1.334 . S
C425 C423 1.390 . S
C425 H436 0.930 . S
C426 C423 1.339 . S
C426 C424 1.416 . S
C426 H447 0.930 . S
C427 C428 1.413 . S
C427 C429 1.427 . S
C427 C433 1.416 . S
C428 C421 1.424 . S
C428 C427 1.413 . S
C428 N432 1.361 . S
C429 C427 1.427 . S
C429 C430 1.328 . S
C429 H444 0.929 . S
C430 C424 1.448 . S
C430 C429 1.328 . S
C430 H445 0.930 . S
Tb431 N422 2.617 . S
Tb431 N432 2.572 . S
Tb431 O466 2.349 . S
Tb431 O469 2.393 . S
Tb431 O470 2.465 . S
Tb431 O471 2.387 . S
Tb431 O473 2.428 . S
Tb431 O474 2.308 . S
Tb431 C495 2.802 . S
N432 C428 1.361 . S
N432 Tb431 2.572 . S
N432 C434 1.340 . S
C433 C427 1.416 . S
C433 C435 1.332 . S
C433 H441 0.931 . S
C434 N432 1.340 . S
C434 C435 1.407 . S
C434 H440 0.930 . S
C435 C433 1.332 . S
C435 C434 1.407 . S
C435 H437 0.929 . S
H436 C425 0.930 . S
H437 C435 0.929 . S
H438 C453 0.930 . S
H439 C460 0.929 . S
H440 C434 0.930 . S
H441 C433 0.931 . S
H442 C456 0.930 . S
H443 C423 0.930 . S
H444 C429 0.929 . S
H445 C430 0.930 . S
H446 C451 0.930 . S
H447 C426 0.930 . S
H448 C459 0.931 . S
N449 Tb420 2.617 . S
N449 C450 1.379 . S
N449 C453 1.334 . S
C450 N449 1.379 . S
C450 C452 1.416 . S
C450 C458 1.424 . S
C451 H446 0.930 . S
C451 C453 1.390 . S
C451 C454 1.339 . S
C452 C450 1.416 . S
C452 C454 1.416 . S
C452 C485 1.448 . S
C453 H438 0.930 . S
C453 N449 1.334 . S
C453 C451 1.390 . S
C454 C451 1.339 . S
C454 C452 1.416 . S
C454 H461 0.930 . S
N455 Tb420 2.572 . S
N455 C456 1.340 . S
N455 C458 1.361 . S
C456 H442 0.930 . S
C456 N455 1.340 . S
C456 C460 1.407 . S
C457 C458 1.413 . S
C457 C459 1.416 . S
C457 C486 1.427 . S
C458 C450 1.424 . S
C458 N455 1.361 . S
C458 C457 1.413 . S
C459 H448 0.931 . S
C459 C457 1.416 . S
C459 C460 1.332 . S
C460 H439 0.929 . S
C460 C456 1.407 . S
C460 C459 1.332 . S
H461 C454 0.930 . S
H462 C485 0.930 . S
H463 C486 0.929 . S
O464 Tb420 2.465 . S
O464 C484 1.264 . S
O465 Tb420 2.387 . S
O465 C476 1.264 . S
O466 Tb431 2.349 . S
O466 C476 1.243 . S
O467 Tb420 2.428 . S
O467 C484 1.256 . S
O468 Tb420 2.308 . S
O468 C483 1.266 . S
O469 Tb431 2.393 . S
O469 C483 1.248 . S
O470 Tb431 2.465 . S
O470 C495 1.264 . S
O471 Tb431 2.387 . S
O471 C487 1.264 . S
O472 Tb420 2.349 . S
O472 C487 1.243 . S
O473 Tb431 2.428 . S
O473 C495 1.256 . S
O474 Tb431 2.308 . S
O474 C494 1.266 . S
O475 Tb420 2.393 . S
O475 C494 1.248 . S
C476 O465 1.264 . S
C476 O466 1.243 . S
C477 C480 1.399 . S
C477 C482 1.383 . S
C477 C484 1.496 . S
C478 C479 1.399 . S
C478 C482 1.389 . S
C479 C478 1.399 . S
C479 C481 1.380 . S
C479 H496 0.929 . S
C480 C477 1.399 . S
C480 C481 1.392 . S
C480 H497 0.929 . S
C481 C479 1.380 . S
C481 C480 1.392 . S
C481 H498 0.929 . S
C482 C477 1.383 . S
C482 C478 1.389 . S
C482 H499 0.931 . S
C483 O468 1.266 . S
C483 O469 1.248 . S
C484 Tb420 2.802 . S
C484 O464 1.264 . S
C484 O467 1.256 . S
C484 C477 1.496 . S
C485 C452 1.448 . S
C485 H462 0.930 . S
C485 C486 1.328 . S
C486 C457 1.427 . S
C486 H463 0.929 . S
C486 C485 1.328 . S
C487 O471 1.264 . S
C487 O472 1.243 . S
C488 C491 1.399 . S
C488 C492 1.383 . S
C488 C495 1.496 . S
C489 C490 1.399 . S
C489 C492 1.389 . S
C490 C489 1.399 . S
C490 C493 1.380 . S
C490 H500 0.929 . S
C491 C488 1.399 . S
C491 C493 1.392 . S
C491 H501 0.929 . S
C492 C488 1.383 . S
C492 C489 1.389 . S
C492 H502 0.931 . S
C493 C490 1.380 . S
C493 C491 1.392 . S
C493 H503 0.929 . S
C494 O474 1.266 . S
C494 O475 1.248 . S
C495 Tb431 2.802 . S
C495 O470 1.264 . S
C495 O473 1.256 . S
C495 C488 1.496 . S
H496 C479 0.929 . S
H497 C480 0.929 . S
H498 C481 0.929 . S
H499 C482 0.931 . S
H500 C490 0.929 . S
H501 C491 0.929 . S
H502 C492 0.931 . S
H503 C493 0.929 . S
Tb504 N533 2.617 1_545 S
Tb504 N539 2.572 1_545 S
Tb504 O548 2.465 . S
Tb504 O549 2.387 1_545 S
Tb504 O551 2.428 . S
Tb504 O552 2.308 . S
Tb504 O556 2.349 . S
Tb504 O559 2.393 . S
Tb504 C568 2.802 . S
C505 N506 1.379 . S
C505 C508 1.416 . S
C505 C512 1.424 . S
N506 C505 1.379 . S
N506 C509 1.334 . S
N506 Tb515 2.617 . S
C507 C509 1.390 . S
C507 C510 1.339 . S
C507 H527 0.930 . S
C508 C505 1.416 . S
C508 C510 1.416 . S
C508 C514 1.448 . S
C509 N506 1.334 . S
C509 C507 1.390 . S
C509 H520 0.930 . S
C510 C507 1.339 . S
C510 C508 1.416 . S
C510 H531 0.930 . S
C511 C512 1.413 . S
C511 C513 1.427 . S
C511 C517 1.416 . S
C512 C505 1.424 . S
C512 C511 1.413 . S
C512 N516 1.361 . S
C513 C511 1.427 . S
C513 C514 1.328 . S
C513 H528 0.929 . S
C514 C508 1.448 . S
C514 C513 1.328 . S
C514 H529 0.930 . S
Tb515 N506 2.617 . S
Tb515 N516 2.572 . S
Tb515 O550 2.349 1_545 S
Tb515 O553 2.393 . S
Tb515 O554 2.465 . S
Tb515 O555 2.387 . S
Tb515 O557 2.428 . S
Tb515 O558 2.308 . S
Tb515 C579 2.802 . S
N516 C512 1.361 . S
N516 Tb515 2.572 . S
N516 C518 1.340 . S
C517 C511 1.416 . S
C517 C519 1.332 . S
C517 H525 0.931 . S
C518 N516 1.340 . S
C518 C519 1.407 . S
C518 H524 0.930 . S
C519 C517 1.332 . S
C519 C518 1.407 . S
C519 H521 0.929 . S
H520 C509 0.930 . S
H521 C519 0.929 . S
H522 C537 0.909 1_545 S
H523 C544 0.929 . S
H524 C518 0.930 . S
H525 C517 0.931 . S
H526 C540 0.930 . S
H527 C507 0.930 . S
H528 C513 0.929 . S
H529 C514 0.930 . S
H530 C535 0.930 . S
H531 C510 0.930 . S
H532 C543 0.931 . S
N533 Tb504 2.617 1_565 S
N533 C534 1.379 . S
N533 C537 1.333 . S
C534 N533 1.379 . S
C534 C536 1.416 . S
C534 C542 1.424 . S
C535 H530 0.930 . S
C535 C537 1.412 . S
C535 C538 1.339 . S
C536 C534 1.416 . S
C536 C538 1.416 . S
C536 C569 1.448 . S
C537 H522 0.909 1_565 S
C537 N533 1.333 . S
C537 C535 1.412 . S
C538 C535 1.339 . S
C538 C536 1.416 . S
C538 H545 0.930 . S
N539 Tb504 2.572 1_565 S
N539 C540 1.340 . S
N539 C542 1.361 . S
C540 H526 0.930 . S
C540 N539 1.340 . S
C540 C544 1.407 . S
C541 C542 1.413 . S
C541 C543 1.416 . S
C541 C570 1.427 . S
C542 C534 1.424 . S
C542 N539 1.361 . S
C542 C541 1.413 . S
C543 H532 0.931 . S
C543 C541 1.416 . S
C543 C544 1.332 . S
C544 H523 0.929 . S
C544 C540 1.407 . S
C544 C543 1.332 . S
H545 C538 0.930 . S
H546 C569 0.930 . S
H547 C570 0.929 . S
O548 Tb504 2.465 . S
O548 C568 1.264 . S
O549 Tb504 2.387 1_565 S
O549 C560 1.264 . S
O550 Tb515 2.349 1_565 S
O550 C560 1.243 . S
O551 Tb504 2.428 . S
O551 C568 1.256 . S
O552 Tb504 2.308 . S
O552 C567 1.266 . S
O553 Tb515 2.393 . S
O553 C567 1.248 . S
O554 Tb515 2.465 . S
O554 C579 1.264 . S
O555 Tb515 2.387 . S
O555 C571 1.264 . S
O556 Tb504 2.349 . S
O556 C571 1.243 . S
O557 Tb515 2.428 . S
O557 C579 1.256 . S
O558 Tb515 2.308 . S
O558 C578 1.266 . S
O559 Tb504 2.393 . S
O559 C578 1.248 . S
C560 O549 1.264 . S
C560 O550 1.243 . S
C561 C564 1.399 . S
C561 C566 1.383 . S
C561 C568 1.496 . S
C562 C563 1.399 . S
C562 C566 1.389 . S
C563 C562 1.399 . S
C563 C565 1.380 . S
C563 H580 0.929 . S
C564 C561 1.399 . S
C564 C565 1.392 . S
C564 H581 0.929 . S
C565 C563 1.380 . S
C565 C564 1.392 . S
C565 H582 0.929 . S
C566 C561 1.383 . S
C566 C562 1.389 . S
C566 H583 0.931 . S
C567 O552 1.266 . S
C567 O553 1.248 . S
C568 Tb504 2.802 . S
C568 O548 1.264 . S
C568 O551 1.256 . S
C568 C561 1.496 . S
C569 C536 1.448 . S
C569 H546 0.930 . S
C569 C570 1.328 . S
C570 C541 1.427 . S
C570 H547 0.929 . S
C570 C569 1.328 . S
C571 O555 1.264 . S
C571 O556 1.243 . S
C572 C575 1.399 . S
C572 C576 1.383 . S
C572 C579 1.496 1_565 S
C573 C574 1.399 . S
C573 C576 1.389 . S
C574 C573 1.399 . S
C574 C577 1.380 . S
C574 H584 0.929 . S
C575 C572 1.399 . S
C575 C577 1.392 . S
C575 H585 0.929 . S
C576 C572 1.383 . S
C576 C573 1.389 . S
C576 H586 0.931 . S
C577 C574 1.380 . S
C577 C575 1.392 . S
C577 H587 0.929 . S
C578 O558 1.266 . S
C578 O559 1.248 . S
C579 Tb515 2.802 . S
C579 O554 1.264 . S
C579 O557 1.256 . S
C579 C572 1.496 1_545 S
H580 C563 0.929 . S
H581 C564 0.929 . S
H582 C565 0.929 . S
H583 C566 0.931 . S
H584 C574 0.929 . S
H585 C575 0.929 . S
H586 C576 0.931 . S
H587 C577 0.929 . S
Tb588 N617 2.617 . S
Tb588 N623 2.572 . S
Tb588 O632 2.465 . S
Tb588 O633 2.387 . S
Tb588 O635 2.428 . S
Tb588 O636 2.308 . S
Tb588 O640 2.349 . S
Tb588 O643 2.393 . S
Tb588 C652 2.802 . S
C589 N590 1.379 . S
C589 C592 1.416 . S
C589 C596 1.424 . S
N590 C589 1.379 . S
N590 C593 1.334 . S
N590 Tb599 2.617 . S
C591 C593 1.390 . S
C591 C594 1.339 . S
C591 H611 0.930 . S
C592 C589 1.416 . S
C592 C594 1.416 . S
C592 C598 1.448 . S
C593 N590 1.334 . S
C593 C591 1.390 . S
C593 H604 0.930 . S
C594 C591 1.339 . S
C594 C592 1.416 . S
C594 H615 0.930 . S
C595 C596 1.413 . S
C595 C597 1.427 . S
C595 C601 1.416 . S
C596 C589 1.424 . S
C596 C595 1.413 . S
C596 N600 1.361 . S
C597 C595 1.427 . S
C597 C598 1.328 . S
C597 H612 0.929 . S
C598 C592 1.448 . S
C598 C597 1.328 . S
C598 H613 0.930 . S
Tb599 N590 2.617 . S
Tb599 N600 2.572 . S
Tb599 O634 2.349 . S
Tb599 O637 2.393 . S
Tb599 O638 2.465 . S
Tb599 O639 2.387 . S
Tb599 O641 2.428 . S
Tb599 O642 2.308 . S
Tb599 C663 2.802 . S
N600 C596 1.361 . S
N600 Tb599 2.572 . S
N600 C602 1.340 . S
C601 C595 1.416 . S
C601 C603 1.332 . S
C601 H609 0.931 . S
C602 N600 1.340 . S
C602 C603 1.407 . S
C602 H608 0.930 . S
C603 C601 1.332 . S
C603 C602 1.407 . S
C603 H605 0.929 . S
H604 C593 0.930 . S
H605 C603 0.929 . S
H606 C621 0.930 . S
H607 C628 0.929 . S
H608 C602 0.930 . S
H609 C601 0.931 . S
H610 C624 0.930 . S
H611 C591 0.930 . S
H612 C597 0.929 . S
H613 C598 0.930 . S
H614 C619 0.930 . S
H615 C594 0.930 . S
H616 C627 0.931 . S
N617 Tb588 2.617 . S
N617 C618 1.379 . S
N617 C621 1.334 . S
C618 N617 1.379 . S
C618 C620 1.416 . S
C618 C626 1.424 . S
C619 H614 0.930 . S
C619 C621 1.390 . S
C619 C622 1.339 . S
C620 C618 1.416 . S
C620 C622 1.416 . S
C620 C653 1.448 . S
C621 H606 0.930 . S
C621 N617 1.334 . S
C621 C619 1.390 . S
C622 C619 1.339 . S
C622 C620 1.416 . S
C622 H629 0.930 . S
N623 Tb588 2.572 . S
N623 C624 1.340 . S
N623 C626 1.361 . S
C624 H610 0.930 . S
C624 N623 1.340 . S
C624 C628 1.407 . S
C625 C626 1.413 . S
C625 C627 1.416 . S
C625 C654 1.427 . S
C626 C618 1.424 . S
C626 N623 1.361 . S
C626 C625 1.413 . S
C627 H616 0.931 . S
C627 C625 1.416 . S
C627 C628 1.332 . S
C628 H607 0.929 . S
C628 C624 1.407 . S
C628 C627 1.332 . S
H629 C622 0.930 . S
H630 C653 0.930 . S
H631 C654 0.929 . S
O632 Tb588 2.465 . S
O632 C652 1.264 . S
O633 Tb588 2.387 . S
O633 C644 1.264 . S
O634 Tb599 2.349 . S
O634 C644 1.243 . S
O635 Tb588 2.428 . S
O635 C652 1.256 . S
O636 Tb588 2.308 . S
O636 C651 1.266 . S
O637 Tb599 2.393 . S
O637 C651 1.248 . S
O638 Tb599 2.465 . S
O638 C663 1.264 . S
O639 Tb599 2.387 . S
O639 C655 1.264 . S
O640 Tb588 2.349 . S
O640 C655 1.243 . S
O641 Tb599 2.428 . S
O641 C663 1.256 . S
O642 Tb599 2.308 . S
O642 C662 1.266 . S
O643 Tb588 2.393 . S
O643 C662 1.248 . S
C644 O633 1.264 . S
C644 O634 1.243 . S
C645 C648 1.399 . S
C645 C650 1.383 . S
C645 C652 1.496 . S
C646 C647 1.399 . S
C646 C650 1.389 . S
C647 C646 1.399 . S
C647 C649 1.380 . S
C647 H664 0.929 . S
C648 C645 1.399 . S
C648 C649 1.392 . S
C648 H665 0.929 . S
C649 C647 1.380 . S
C649 C648 1.392 . S
C649 H666 0.929 . S
C650 C645 1.383 . S
C650 C646 1.389 . S
C650 H667 0.931 . S
C651 O636 1.266 . S
C651 O637 1.248 . S
C652 Tb588 2.802 . S
C652 O632 1.264 . S
C652 O635 1.256 . S
C652 C645 1.496 . S
C653 C620 1.448 . S
C653 H630 0.930 . S
C653 C654 1.328 . S
C654 C625 1.427 . S
C654 H631 0.929 . S
C654 C653 1.328 . S
C655 O639 1.264 . S
C655 O640 1.243 . S
C656 C659 1.399 . S
C656 C660 1.383 . S
C656 C663 1.496 . S
C657 C658 1.399 . S
C657 C660 1.389 . S
C658 C657 1.399 . S
C658 C661 1.380 . S
C658 H668 0.929 . S
C659 C656 1.399 . S
C659 C661 1.392 . S
C659 H669 0.929 . S
C660 C656 1.383 . S
C660 C657 1.389 . S
C660 H670 0.931 . S
C661 C658 1.380 . S
C661 C659 1.392 . S
C661 H671 0.929 . S
C662 O642 1.266 . S
C662 O643 1.248 . S
C663 Tb599 2.802 . S
C663 O638 1.264 . S
C663 O641 1.256 . S
C663 C656 1.496 . S
H664 C647 0.929 . S
H665 C648 0.929 . S
H666 C649 0.929 . S
H667 C650 0.931 . S
H668 C658 0.929 . S
H669 C659 0.929 . S
H670 C660 0.931 . S
H671 C661 0.929 . S
Tb672 N701 2.617 . S
Tb672 N707 2.572 . S
Tb672 O716 2.465 . S
Tb672 O717 2.387 1_565 S
Tb672 O719 2.428 . S
Tb672 O720 2.308 1_565 S
Tb672 O724 2.349 1_565 S
Tb672 O727 2.393 1_565 S
Tb672 C736 2.802 . S
C673 N674 1.379 1_455 S
C673 C676 1.416 1_455 S
C673 C680 1.424 . S
N674 C673 1.379 1_655 S
N674 C677 1.334 . S
N674 Tb683 2.617 1_655 S
C675 C677 1.390 . S
C675 C678 1.339 . S
C675 H695 0.930 . S
C676 C673 1.416 1_655 S
C676 C678 1.416 . S
C676 C682 1.448 1_655 S
C677 N674 1.334 . S
C677 C675 1.390 . S
C677 H688 0.930 . S
C678 C675 1.339 . S
C678 C676 1.416 . S
C678 H699 0.930 . S
C679 C680 1.413 . S
C679 C681 1.427 . S
C679 C685 1.416 . S
C680 C673 1.424 . S
C680 C679 1.413 . S
C680 N684 1.361 . S
C681 C679 1.427 . S
C681 C682 1.328 . S
C681 H696 0.929 . S
C682 C676 1.448 1_455 S
C682 C681 1.328 . S
C682 H697 0.958 . S
Tb683 N674 2.617 1_455 S
Tb683 N684 2.572 . S
Tb683 O718 2.349 . S
Tb683 O721 2.393 1_455 S
Tb683 O722 2.465 . S
Tb683 O723 2.387 . S
Tb683 O725 2.428 1_455 S
Tb683 O726 2.308 . S
Tb683 C747 2.802 . S
N684 C680 1.361 . S
N684 Tb683 2.572 . S
N684 C686 1.340 . S
C685 C679 1.416 . S
C685 C687 1.332 . S
C685 H693 0.931 . S
C686 N684 1.340 . S
C686 C687 1.407 . S
C686 H692 0.930 . S
C687 C685 1.332 . S
C687 C686 1.407 . S
C687 H689 0.929 . S
H688 C677 0.930 . S
H689 C687 0.929 . S
H690 C705 0.930 1_545 S
H691 C712 0.929 . S
H692 C686 0.930 . S
H693 C685 0.931 . S
H694 C708 0.930 . S
H695 C675 0.930 . S
H696 C681 0.929 . S
H697 C682 0.958 . S
H698 C703 0.930 . S
H699 C678 0.930 . S
H700 C711 0.931 . S
N701 Tb672 2.617 . S
N701 C702 1.379 . S
N701 C705 1.334 . S
C702 N701 1.379 . S
C702 C704 1.416 . S
C702 C710 1.424 . S
C703 H698 0.930 . S
C703 C705 1.390 . S
C703 C706 1.339 . S
C704 C702 1.416 . S
C704 C706 1.416 . S
C704 C737 1.448 . S
C705 H690 0.930 1_565 S
C705 N701 1.334 . S
C705 C703 1.390 . S
C706 C703 1.339 . S
C706 C704 1.416 . S
C706 H713 0.930 . S
N707 Tb672 2.572 . S
N707 C708 1.340 1_455 S
N707 C710 1.361 . S
C708 H694 0.930 . S
C708 N707 1.340 1_655 S
C708 C712 1.407 . S
C709 C710 1.413 . S
C709 C711 1.416 1_455 S
C709 C738 1.427 . S
C710 C702 1.424 . S
C710 N707 1.361 . S
C710 C709 1.413 . S
C711 H700 0.931 . S
C711 C709 1.416 1_655 S
C711 C712 1.332 . S
C712 H691 0.929 . S
C712 C708 1.407 . S
C712 C711 1.332 . S
H713 C706 0.930 . S
H714 C737 0.930 . S
H715 C738 0.929 . S
O716 Tb672 2.465 . S
O716 C736 1.264 . S
O717 Tb672 2.387 1_545 S
O717 C728 1.264 . S
O718 Tb683 2.349 . S
O718 C728 1.243 . S
O719 Tb672 2.428 . S
O719 C736 1.256 . S
O720 Tb672 2.308 1_545 S
O720 C735 1.266 1_455 S
O721 Tb683 2.393 1_655 S
O721 C735 1.248 . S
O722 Tb683 2.465 . S
O722 C747 1.264 . S
O723 Tb683 2.387 . S
O723 C739 1.264 . S
O724 Tb672 2.349 1_545 S
O724 C739 1.243 . S
O725 Tb683 2.428 1_655 S
O725 C747 1.256 1_655 S
O726 Tb683 2.308 . S
O726 C746 1.266 . S
O727 Tb672 2.393 1_545 S
O727 C746 1.248 . S
C728 O717 1.264 . S
C728 O718 1.243 . S
C729 C732 1.399 . S
C729 C734 1.383 . S
C729 C736 1.496 . S
C730 C731 1.399 . S
C730 C734 1.389 . S
C731 C730 1.399 . S
C731 C733 1.380 . S
C731 H748 0.929 . S
C732 C729 1.399 . S
C732 C733 1.392 . S
C732 H749 0.929 . S
C733 C731 1.380 . S
C733 C732 1.392 . S
C733 H750 0.929 . S
C734 C729 1.383 . S
C734 C730 1.389 . S
C734 H751 0.931 . S
C735 O720 1.266 1_655 S
C735 O721 1.248 . S
C736 Tb672 2.802 . S
C736 O716 1.264 . S
C736 O719 1.256 . S
C736 C729 1.496 . S
C737 C704 1.448 . S
C737 H714 0.930 . S
C737 C738 1.328 . S
C738 C709 1.427 . S
C738 H715 0.929 . S
C738 C737 1.328 . S
C739 O723 1.264 . S
C739 O724 1.243 . S
C740 C743 1.399 1_455 S
C740 C744 1.383 . S
C740 C747 1.496 . S
C741 C742 1.399 . S
C741 C744 1.389 . S
C742 C741 1.399 . S
C742 C745 1.380 1_455 S
C742 H752 0.929 1_455 S
C743 C740 1.399 1_655 S
C743 C745 1.392 . S
C743 H753 0.929 . S
C744 C740 1.383 . S
C744 C741 1.389 . S
C744 H754 0.931 . S
C745 C742 1.380 1_655 S
C745 C743 1.392 . S
C745 H755 0.929 . S
C746 O726 1.266 . S
C746 O727 1.248 . S
C747 Tb683 2.802 . S
C747 O722 1.264 . S
C747 O725 1.256 1_455 S
C747 C740 1.496 . S
H748 C731 0.929 . S
H749 C732 0.929 . S
H750 C733 0.929 . S
H751 C734 0.931 . S
H752 C742 0.929 1_655 S
H753 C743 0.929 . S
H754 C744 0.931 . S
H755 C745 0.929 . S
Tb756 N785 2.617 . S
Tb756 N791 2.572 . S
Tb756 O800 2.465 . S
Tb756 O801 2.387 . S
Tb756 O803 2.428 . S
Tb756 O804 2.308 . S
Tb756 O808 2.349 . S
Tb756 O811 2.393 . S
Tb756 C820 2.802 . S
C757 N758 1.379 . S
C757 C760 1.416 . S
C757 C764 1.424 . S
N758 C757 1.379 . S
N758 C761 1.334 . S
N758 Tb767 2.617 . S
C759 C761 1.390 . S
C759 C762 1.339 . S
C759 H779 0.930 . S
C760 C757 1.416 . S
C760 C762 1.416 . S
C760 C766 1.448 . S
C761 N758 1.334 . S
C761 C759 1.390 . S
C761 H772 0.930 . S
C762 C759 1.339 . S
C762 C760 1.416 . S
C762 H783 0.930 . S
C763 C764 1.413 . S
C763 C765 1.427 . S
C763 C769 1.416 . S
C764 C757 1.424 . S
C764 C763 1.413 . S
C764 N768 1.361 . S
C765 C763 1.427 . S
C765 C766 1.328 . S
C765 H780 0.929 . S
C766 C760 1.448 . S
C766 C765 1.328 . S
C766 H781 0.930 . S
Tb767 N758 2.617 . S
Tb767 N768 2.572 . S
Tb767 O802 2.349 . S
Tb767 O805 2.393 . S
Tb767 O806 2.465 . S
Tb767 O807 2.387 . S
Tb767 O809 2.428 . S
Tb767 O810 2.308 . S
Tb767 C831 2.802 . S
N768 C764 1.361 . S
N768 Tb767 2.572 . S
N768 C770 1.340 . S
C769 C763 1.416 . S
C769 C771 1.332 . S
C769 H777 0.931 . S
C770 N768 1.340 . S
C770 C771 1.407 . S
C770 H776 0.930 . S
C771 C769 1.332 . S
C771 C770 1.407 . S
C771 H773 0.929 . S
H772 C761 0.930 . S
H773 C771 0.929 . S
H774 C789 0.930 . S
H775 C796 0.929 . S
H776 C770 0.930 . S
H777 C769 0.931 . S
H778 C792 0.930 . S
H779 C759 0.930 . S
H780 C765 0.929 . S
H781 C766 0.930 . S
H782 C787 0.930 . S
H783 C762 0.930 . S
H784 C795 0.931 . S
N785 Tb756 2.617 . S
N785 C786 1.379 . S
N785 C789 1.334 . S
C786 N785 1.379 . S
C786 C788 1.416 . S
C786 C794 1.424 . S
C787 H782 0.930 . S
C787 C789 1.390 . S
C787 C790 1.339 . S
C788 C786 1.416 . S
C788 C790 1.416 . S
C788 C821 1.448 . S
C789 H774 0.930 . S
C789 N785 1.334 . S
C789 C787 1.390 . S
C790 C787 1.339 . S
C790 C788 1.416 . S
C790 H797 0.930 . S
N791 Tb756 2.572 . S
N791 C792 1.340 . S
N791 C794 1.361 . S
C792 H778 0.930 . S
C792 N791 1.340 . S
C792 C796 1.407 . S
C793 C794 1.413 . S
C793 C795 1.416 . S
C793 C822 1.427 . S
C794 C786 1.424 . S
C794 N791 1.361 . S
C794 C793 1.413 . S
C795 H784 0.931 . S
C795 C793 1.416 . S
C795 C796 1.332 . S
C796 H775 0.929 . S
C796 C792 1.407 . S
C796 C795 1.332 . S
H797 C790 0.930 . S
H798 C821 0.930 . S
H799 C822 0.929 . S
O800 Tb756 2.465 . S
O800 C820 1.264 . S
O801 Tb756 2.387 . S
O801 C812 1.264 . S
O802 Tb767 2.349 . S
O802 C812 1.243 . S
O803 Tb756 2.428 . S
O803 C820 1.256 . S
O804 Tb756 2.308 . S
O804 C819 1.266 . S
O805 Tb767 2.393 . S
O805 C819 1.248 . S
O806 Tb767 2.465 . S
O806 C831 1.264 . S
O807 Tb767 2.387 . S
O807 C823 1.264 . S
O808 Tb756 2.349 . S
O808 C823 1.243 . S
O809 Tb767 2.428 . S
O809 C831 1.256 . S
O810 Tb767 2.308 . S
O810 C830 1.266 . S
O811 Tb756 2.393 . S
O811 C830 1.248 . S
C812 O801 1.264 . S
C812 O802 1.243 . S
C813 C816 1.399 . S
C813 C818 1.383 . S
C813 C820 1.496 . S
C814 C815 1.399 . S
C814 C818 1.389 . S
C815 C814 1.399 . S
C815 C817 1.380 . S
C815 H832 0.929 . S
C816 C813 1.399 . S
C816 C817 1.392 . S
C816 H833 0.929 . S
C817 C815 1.380 . S
C817 C816 1.392 . S
C817 H834 0.929 . S
C818 C813 1.383 . S
C818 C814 1.389 . S
C818 H835 0.931 . S
C819 O804 1.266 . S
C819 O805 1.248 . S
C820 Tb756 2.802 . S
C820 O800 1.264 . S
C820 O803 1.256 . S
C820 C813 1.496 . S
C821 C788 1.448 . S
C821 H798 0.930 . S
C821 C822 1.328 . S
C822 C793 1.427 . S
C822 H799 0.929 . S
C822 C821 1.328 . S
C823 O807 1.264 . S
C823 O808 1.243 . S
C824 C827 1.399 . S
C824 C828 1.383 . S
C824 C831 1.496 . S
C825 C826 1.399 . S
C825 C828 1.389 . S
C826 C825 1.399 . S
C826 C829 1.380 . S
C826 H836 0.929 . S
C827 C824 1.399 . S
C827 C829 1.392 . S
C827 H837 0.929 . S
C828 C824 1.383 . S
C828 C825 1.389 . S
C828 H838 0.931 . S
C829 C826 1.380 . S
C829 C827 1.392 . S
C829 H839 0.929 . S
C830 O810 1.266 . S
C830 O811 1.248 . S
C831 Tb767 2.802 . S
C831 O806 1.264 . S
C831 O809 1.256 . S
C831 C824 1.496 . S
H832 C815 0.929 . S
H833 C816 0.929 . S
H834 C817 0.929 . S
H835 C818 0.931 . S
H836 C826 0.929 . S
H837 C827 0.929 . S
H838 C828 0.931 . S
H839 C829 0.929 . S
Tb840 N869 2.617 . S
Tb840 N875 2.572 . S
Tb840 O884 2.465 . S
Tb840 O885 2.387 1_556 S
Tb840 O887 2.428 . S
Tb840 O888 2.308 . S
Tb840 O892 2.349 1_556 S
Tb840 O895 2.393 1_556 S
Tb840 C904 2.802 . S
C841 N842 1.379 1_545 S
C841 C844 1.416 1_545 S
C841 C848 1.424 . S
N842 C841 1.379 1_565 S
N842 C845 1.334 . S
N842 Tb851 2.617 1_565 S
C843 C845 1.390 . S
C843 C846 1.339 . S
C843 H863 0.930 . S
C844 C841 1.416 1_565 S
C844 C846 1.416 . S
C844 C850 1.448 1_565 S
C845 N842 1.334 . S
C845 C843 1.390 . S
C845 H856 0.930 . S
C846 C843 1.339 . S
C846 C844 1.416 . S
C846 H867 0.930 . S
C847 C848 1.413 . S
C847 C849 1.427 . S
C847 C853 1.416 . S
C848 C841 1.424 . S
C848 C847 1.413 . S
C848 N852 1.361 . S
C849 C847 1.427 . S
C849 C850 1.328 . S
C849 H864 0.929 . S
C850 C844 1.448 1_545 S
C850 C849 1.328 . S
C850 H865 0.930 1_545 S
Tb851 N842 2.617 1_545 S
Tb851 N852 2.572 . S
Tb851 O886 2.349 . S
Tb851 O889 2.393 1_545 S
Tb851 O890 2.465 . S
Tb851 O891 2.387 . S
Tb851 O893 2.428 1_545 S
Tb851 O894 2.308 . S
Tb851 C915 2.802 . S
N852 C848 1.361 . S
N852 Tb851 2.572 . S
N852 C854 1.340 . S
C853 C847 1.416 . S
C853 C855 1.332 . S
C853 H861 0.931 . S
C854 N852 1.340 . S
C854 C855 1.407 . S
C854 H860 0.930 . S
C855 C853 1.332 . S
C855 C854 1.407 . S
C855 H857 0.929 . S
H856 C845 0.930 . S
H857 C855 0.929 . S
H858 C873 0.931 1_554 S
H859 C880 0.929 . S
H860 C854 0.930 . S
H861 C853 0.931 . S
H862 C876 0.930 . S
H863 C843 0.930 . S
H864 C849 0.929 . S
H865 C850 0.930 1_565 S
H866 C871 0.930 . S
H867 C846 0.930 . S
H868 C879 0.943 . S
N869 Tb840 2.617 . S
N869 C870 1.379 . S
N869 C873 1.334 . S
C870 N869 1.379 . S
C870 C872 1.416 . S
C870 C878 1.424 . S
C871 H866 0.930 . S
C871 C873 1.390 . S
C871 C874 1.339 . S
C872 C870 1.416 . S
C872 C874 1.416 . S
C872 C905 1.448 . S
C873 H858 0.931 1_556 S
C873 N869 1.334 . S
C873 C871 1.390 . S
C874 C871 1.339 . S
C874 C872 1.416 . S
C874 H881 0.930 . S
N875 Tb840 2.572 . S
N875 C876 1.340 . S
N875 C878 1.361 . S
C876 H862 0.930 . S
C876 N875 1.340 . S
C876 C880 1.407 1_545 S
C877 C878 1.413 . S
C877 C879 1.416 . S
C877 C906 1.427 . S
C878 C870 1.424 . S
C878 N875 1.361 . S
C878 C877 1.413 . S
C879 H868 0.943 . S
C879 C877 1.416 . S
C879 C880 1.332 1_545 S
C880 H859 0.929 . S
C880 C876 1.407 1_565 S
C880 C879 1.332 1_565 S
H881 C874 0.930 . S
H882 C905 0.930 . S
H883 C906 0.929 . S
O884 Tb840 2.465 . S
O884 C904 1.264 . S
O885 Tb840 2.387 1_554 S
O885 C896 1.264 . S
O886 Tb851 2.349 . S
O886 C896 1.243 . S
O887 Tb840 2.428 . S
O887 C904 1.256 . S
O888 Tb840 2.308 . S
O888 C903 1.266 1_546 S
O889 Tb851 2.393 1_565 S
O889 C903 1.248 . S
O890 Tb851 2.465 . S
O890 C915 1.264 . S
O891 Tb851 2.387 . S
O891 C907 1.264 . S
O892 Tb840 2.349 1_554 S
O892 C907 1.243 . S
O893 Tb851 2.428 1_565 S
O893 C915 1.256 1_565 S
O894 Tb851 2.308 . S
O894 C914 1.266 . S
O895 Tb840 2.393 1_554 S
O895 C914 1.248 . S
C896 O885 1.264 . S
C896 O886 1.243 . S
C897 C900 1.399 . S
C897 C902 1.383 . S
C897 C904 1.496 . S
C898 C899 1.399 . S
C898 C902 1.389 . S
C899 C898 1.399 . S
C899 C901 1.380 . S
C899 H916 0.929 . S
C900 C897 1.399 . S
C900 C901 1.392 . S
C900 H917 0.929 . S
C901 C899 1.380 . S
C901 C900 1.392 . S
C901 H918 0.929 . S
C902 C897 1.383 . S
C902 C898 1.389 . S
C902 H919 0.931 . S
C903 O888 1.266 1_564 S
C903 O889 1.248 . S
C904 Tb840 2.802 . S
C904 O884 1.264 . S
C904 O887 1.256 . S
C904 C897 1.496 . S
C905 C872 1.448 . S
C905 H882 0.930 . S
C905 C906 1.328 . S
C906 C877 1.427 . S
C906 H883 0.929 . S
C906 C905 1.328 . S
C907 O891 1.264 . S
C907 O892 1.243 . S
C908 C911 1.399 . S
C908 C912 1.383 1_565 S
C908 C915 1.496 1_565 S
C909 C910 1.399 1_545 S
C909 C912 1.389 . S
C910 C909 1.399 1_565 S
C910 C913 1.380 . S
C910 H920 0.929 . S
C911 C908 1.399 . S
C911 C913 1.392 . S
C911 H921 0.929 . S
C912 C908 1.383 1_545 S
C912 C909 1.389 . S
C912 H922 0.931 . S
C913 C910 1.380 . S
C913 C911 1.392 . S
C913 H923 0.929 . S
C914 O894 1.266 . S
C914 O895 1.248 . S
C915 Tb851 2.802 . S
C915 O890 1.264 . S
C915 O893 1.256 1_545 S
C915 C908 1.496 1_545 S
H916 C899 0.929 . S
H917 C900 0.929 . S
H918 C901 0.929 . S
H919 C902 0.931 . S
H920 C910 0.929 . S
H921 C911 0.929 . S
H922 C912 0.931 . S
H923 C913 0.929 . S
Tb924 N953 2.617 . S
Tb924 N959 2.572 . S
Tb924 O968 2.465 . S
Tb924 O969 2.387 . S
Tb924 O971 2.428 . S
Tb924 O972 2.308 . S
Tb924 O976 2.349 . S
Tb924 O979 2.393 . S
Tb924 C988 2.802 . S
C925 N926 1.379 . S
C925 C928 1.416 . S
C925 C932 1.424 . S
N926 C925 1.379 . S
N926 C929 1.334 . S
N926 Tb935 2.617 . S
C927 C929 1.390 . S
C927 C930 1.339 . S
C927 H947 0.930 . S
C928 C925 1.416 . S
C928 C930 1.416 . S
C928 C934 1.448 . S
C929 N926 1.334 . S
C929 C927 1.390 . S
C929 H940 0.930 . S
C930 C927 1.339 . S
C930 C928 1.416 . S
C930 H951 0.930 . S
C931 C932 1.413 . S
C931 C933 1.427 . S
C931 C937 1.416 . S
C932 C925 1.424 . S
C932 C931 1.413 . S
C932 N936 1.361 . S
C933 C931 1.427 . S
C933 C934 1.328 . S
C933 H948 0.929 . S
C934 C928 1.448 . S
C934 C933 1.328 . S
C934 H949 0.930 . S
Tb935 N926 2.617 . S
Tb935 N936 2.572 . S
Tb935 O970 2.349 . S
Tb935 O973 2.393 . S
Tb935 O974 2.465 . S
Tb935 O975 2.387 . S
Tb935 O977 2.428 . S
Tb935 O978 2.308 . S
Tb935 C999 2.802 . S
N936 C932 1.361 . S
N936 Tb935 2.572 . S
N936 C938 1.340 . S
C937 C931 1.416 . S
C937 C939 1.332 . S
C937 H945 0.931 . S
C938 N936 1.340 . S
C938 C939 1.407 . S
C938 H944 0.930 . S
C939 C937 1.332 . S
C939 C938 1.407 . S
C939 H941 0.929 . S
H940 C929 0.930 . S
H941 C939 0.929 . S
H942 C957 0.930 . S
H943 C964 0.929 . S
H944 C938 0.930 . S
H945 C937 0.931 . S
H946 C960 0.930 . S
H947 C927 0.930 . S
H948 C933 0.929 . S
H949 C934 0.930 . S
H950 C955 0.930 . S
H951 C930 0.930 . S
H952 C963 0.931 . S
N953 Tb924 2.617 . S
N953 C954 1.379 . S
N953 C957 1.334 . S
C954 N953 1.379 . S
C954 C956 1.416 . S
C954 C962 1.424 . S
C955 H950 0.930 . S
C955 C957 1.390 . S
C955 C958 1.339 . S
C956 C954 1.416 . S
C956 C958 1.416 . S
C956 C989 1.448 . S
C957 H942 0.930 . S
C957 N953 1.334 . S
C957 C955 1.390 . S
C958 C955 1.339 . S
C958 C956 1.416 . S
C958 H965 0.930 . S
N959 Tb924 2.572 . S
N959 C960 1.340 . S
N959 C962 1.361 . S
C960 H946 0.930 . S
C960 N959 1.340 . S
C960 C964 1.407 . S
C961 C962 1.413 . S
C961 C963 1.416 . S
C961 C990 1.427 . S
C962 C954 1.424 . S
C962 N959 1.361 . S
C962 C961 1.413 . S
C963 H952 0.931 . S
C963 C961 1.416 . S
C963 C964 1.332 . S
C964 H943 0.929 . S
C964 C960 1.407 . S
C964 C963 1.332 . S
H965 C958 0.930 . S
H966 C989 0.930 . S
H967 C990 0.929 . S
O968 Tb924 2.465 . S
O968 C988 1.264 . S
O969 Tb924 2.387 . S
O969 C980 1.264 . S
O970 Tb935 2.349 . S
O970 C980 1.243 . S
O971 Tb924 2.428 . S
O971 C988 1.256 . S
O972 Tb924 2.308 . S
O972 C987 1.266 . S
O973 Tb935 2.393 . S
O973 C987 1.248 . S
O974 Tb935 2.465 . S
O974 C999 1.264 . S
O975 Tb935 2.387 . S
O975 C991 1.264 . S
O976 Tb924 2.349 . S
O976 C991 1.243 . S
O977 Tb935 2.428 . S
O977 C999 1.256 . S
O978 Tb935 2.308 . S
O978 C998 1.266 . S
O979 Tb924 2.393 . S
O979 C998 1.248 . S
C980 O969 1.264 . S
C980 O970 1.243 . S
C981 C984 1.399 . S
C981 C986 1.383 . S
C981 C988 1.496 . S
C982 C983 1.399 . S
C982 C986 1.389 . S
C983 C982 1.399 . S
C983 C985 1.380 . S
C983 H1000 0.929 . S
C984 C981 1.399 . S
C984 C985 1.392 . S
C984 H1001 0.929 . S
C985 C983 1.380 . S
C985 C984 1.392 . S
C985 H1002 0.929 . S
C986 C981 1.383 . S
C986 C982 1.389 . S
C986 H1003 0.931 . S
C987 O972 1.266 . S
C987 O973 1.248 . S
C988 Tb924 2.802 . S
C988 O968 1.264 . S
C988 O971 1.256 . S
C988 C981 1.496 . S
C989 C956 1.448 . S
C989 H966 0.930 . S
C989 C990 1.328 . S
C990 C961 1.427 . S
C990 H967 0.929 . S
C990 C989 1.328 . S
C991 O975 1.264 . S
C991 O976 1.243 . S
C992 C995 1.399 . S
C992 C996 1.383 . S
C992 C999 1.496 . S
C993 C994 1.399 . S
C993 C996 1.389 . S
C994 C993 1.399 . S
C994 C997 1.380 . S
C994 H1004 0.929 . S
C995 C992 1.399 . S
C995 C997 1.392 . S
C995 H1005 0.929 . S
C996 C992 1.383 . S
C996 C993 1.389 . S
C996 H1006 0.931 . S
C997 C994 1.380 . S
C997 C995 1.392 . S
C997 H1007 0.929 . S
C998 O978 1.266 . S
C998 O979 1.248 . S
C999 Tb935 2.802 . S
C999 O974 1.264 . S
C999 O977 1.256 . S
C999 C992 1.496 . S
H1000 C983 0.929 . S
H1001 C984 0.929 . S
H1002 C985 0.929 . S
H1003 C986 0.931 . S
H1004 C994 0.929 . S
H1005 C995 0.929 . S
H1006 C996 0.931 . S
H1007 C997 0.929 . S
Tb1008 N1037 2.617 1_554 S
Tb1008 N1043 2.572 1_554 S
Tb1008 O1052 2.465 . S
Tb1008 O1053 2.387 1_554 S
Tb1008 O1055 2.428 . S
Tb1008 O1056 2.308 . S
Tb1008 O1060 2.349 . S
Tb1008 O1063 2.393 . S
Tb1008 C1072 2.802 . S
C1009 N1010 1.379 . S
C1009 C1012 1.416 . S
C1009 C1016 1.424 . S
N1010 C1009 1.379 . S
N1010 C1013 1.334 . S
N1010 Tb1019 2.617 . S
C1011 C1013 1.390 . S
C1011 C1014 1.339 . S
C1011 H1031 0.930 . S
C1012 C1009 1.416 . S
C1012 C1014 1.416 . S
C1012 C1018 1.448 . S
C1013 N1010 1.334 . S
C1013 C1011 1.390 . S
C1013 H1024 0.930 . S
C1014 C1011 1.339 . S
C1014 C1012 1.416 . S
C1014 H1035 0.930 . S
C1015 C1016 1.413 . S
C1015 C1017 1.427 . S
C1015 C1021 1.416 . S
C1016 C1009 1.424 . S
C1016 C1015 1.413 . S
C1016 N1020 1.361 . S
C1017 C1015 1.427 . S
C1017 C1018 1.328 . S
C1017 H1032 0.929 . S
C1018 C1012 1.448 . S
C1018 C1017 1.328 . S
C1018 H1033 0.930 . S
Tb1019 N1010 2.617 . S
Tb1019 N1020 2.572 . S
Tb1019 O1054 2.349 1_554 S
Tb1019 O1057 2.393 . S
Tb1019 O1058 2.465 . S
Tb1019 O1059 2.387 . S
Tb1019 O1061 2.428 . S
Tb1019 O1062 2.308 . S
Tb1019 C1083 2.802 . S
N1020 C1016 1.361 . S
N1020 Tb1019 2.572 . S
N1020 C1022 1.340 . S
C1021 C1015 1.416 . S
C1021 C1023 1.332 . S
C1021 H1029 0.931 . S
C1022 N1020 1.340 . S
C1022 C1023 1.407 . S
C1022 H1028 0.930 . S
C1023 C1021 1.332 . S
C1023 C1022 1.407 . S
C1023 H1025 0.929 . S
H1024 C1013 0.930 . S
H1025 C1023 0.929 . S
H1026 C1041 0.927 1_554 S
H1027 C1048 0.929 . S
H1028 C1022 0.930 . S
H1029 C1021 0.931 . S
H1030 C1044 0.930 . S
H1031 C1011 0.930 . S
H1032 C1017 0.929 . S
H1033 C1018 0.930 . S
H1034 C1039 0.930 . S
H1035 C1014 0.930 . S
H1036 C1047 0.931 . S
N1037 Tb1008 2.617 1_556 S
N1037 C1038 1.379 . S
N1037 C1041 1.334 . S
C1038 N1037 1.379 . S
C1038 C1040 1.416 . S
C1038 C1046 1.424 . S
C1039 H1034 0.930 . S
C1039 C1041 1.390 . S
C1039 C1042 1.339 . S
C1040 C1038 1.416 . S
C1040 C1042 1.416 . S
C1040 C1073 1.448 . S
C1041 H1026 0.927 1_556 S
C1041 N1037 1.334 . S
C1041 C1039 1.390 . S
C1042 C1039 1.339 . S
C1042 C1040 1.416 . S
C1042 H1049 0.930 . S
N1043 Tb1008 2.572 1_556 S
N1043 C1044 1.340 . S
N1043 C1046 1.361 . S
C1044 H1030 0.930 . S
C1044 N1043 1.340 . S
C1044 C1048 1.407 . S
C1045 C1046 1.413 . S
C1045 C1047 1.416 . S
C1045 C1074 1.427 . S
C1046 C1038 1.424 . S
C1046 N1043 1.361 . S
C1046 C1045 1.413 . S
C1047 H1036 0.931 . S
C1047 C1045 1.416 . S
C1047 C1048 1.332 . S
C1048 H1027 0.929 . S
C1048 C1044 1.407 . S
C1048 C1047 1.332 . S
H1049 C1042 0.930 . S
H1050 C1073 0.930 . S
H1051 C1074 0.929 . S
O1052 Tb1008 2.465 . S
O1052 C1072 1.264 . S
O1053 Tb1008 2.387 1_556 S
O1053 C1064 1.264 . S
O1054 Tb1019 2.349 1_556 S
O1054 C1064 1.243 . S
O1055 Tb1008 2.428 . S
O1055 C1072 1.256 . S
O1056 Tb1008 2.308 . S
O1056 C1071 1.266 . S
O1057 Tb1019 2.393 . S
O1057 C1071 1.248 . S
O1058 Tb1019 2.465 . S
O1058 C1083 1.264 . S
O1059 Tb1019 2.387 . S
O1059 C1075 1.264 . S
O1060 Tb1008 2.349 . S
O1060 C1075 1.243 . S
O1061 Tb1019 2.428 . S
O1061 C1083 1.256 . S
O1062 Tb1019 2.308 . S
O1062 C1082 1.266 . S
O1063 Tb1008 2.393 . S
O1063 C1082 1.248 . S
C1064 O1053 1.264 . S
C1064 O1054 1.243 . S
C1065 C1068 1.399 . S
C1065 C1070 1.383 . S
C1065 C1072 1.496 . S
C1066 C1067 1.399 . S
C1066 C1070 1.389 . S
C1067 C1066 1.399 . S
C1067 C1069 1.380 . S
C1067 H1084 0.929 . S
C1068 C1065 1.399 . S
C1068 C1069 1.392 . S
C1068 H1085 0.929 . S
C1069 C1067 1.380 . S
C1069 C1068 1.392 . S
C1069 H1086 0.929 . S
C1070 C1065 1.383 . S
C1070 C1066 1.389 . S
C1070 H1087 0.931 . S
C1071 O1056 1.266 . S
C1071 O1057 1.248 . S
C1072 Tb1008 2.802 . S
C1072 O1052 1.264 . S
C1072 O1055 1.256 . S
C1072 C1065 1.496 . S
C1073 C1040 1.448 . S
C1073 H1050 0.930 . S
C1073 C1074 1.328 . S
C1074 C1045 1.427 . S
C1074 H1051 0.929 . S
C1074 C1073 1.328 . S
C1075 O1059 1.264 . S
C1075 O1060 1.243 . S
C1076 C1079 1.399 . S
C1076 C1080 1.383 . S
C1076 C1083 1.496 1_556 S
C1077 C1078 1.399 . S
C1077 C1080 1.389 . S
C1078 C1077 1.399 . S
C1078 C1081 1.380 . S
C1078 H1088 0.929 . S
C1079 C1076 1.399 . S
C1079 C1081 1.392 . S
C1079 H1089 0.929 . S
C1080 C1076 1.383 . S
C1080 C1077 1.389 . S
C1080 H1090 0.931 . S
C1081 C1078 1.380 . S
C1081 C1079 1.392 . S
C1081 H1091 0.929 . S
C1082 O1062 1.266 . S
C1082 O1063 1.248 . S
C1083 Tb1019 2.802 . S
C1083 O1058 1.264 . S
C1083 O1061 1.256 . S
C1083 C1076 1.496 1_554 S
H1084 C1067 0.929 . S
H1085 C1068 0.929 . S
H1086 C1069 0.929 . S
H1087 C1070 0.931 . S
H1088 C1078 0.929 . S
H1089 C1079 0.929 . S
H1090 C1080 0.931 . S
H1091 C1081 0.929 . S
Tb1092 N1121 2.617 . S
Tb1092 N1127 2.572 . S
Tb1092 O1136 2.465 . S
Tb1092 O1137 2.387 . S
Tb1092 O1139 2.428 . S
Tb1092 O1140 2.308 . S
Tb1092 O1144 2.349 . S
Tb1092 O1147 2.393 . S
Tb1092 C1156 2.802 . S
C1093 N1094 1.379 . S
C1093 C1096 1.416 . S
C1093 C1100 1.424 . S
N1094 C1093 1.379 . S
N1094 C1097 1.334 . S
N1094 Tb1103 2.617 . S
C1095 C1097 1.390 . S
C1095 C1098 1.339 . S
C1095 H1115 0.930 . S
C1096 C1093 1.416 . S
C1096 C1098 1.416 . S
C1096 C1102 1.448 . S
C1097 N1094 1.334 . S
C1097 C1095 1.390 . S
C1097 H1108 0.930 . S
C1098 C1095 1.339 . S
C1098 C1096 1.416 . S
C1098 H1119 0.930 . S
C1099 C1100 1.413 . S
C1099 C1101 1.427 . S
C1099 C1105 1.416 . S
C1100 C1093 1.424 . S
C1100 C1099 1.413 . S
C1100 N1104 1.361 . S
C1101 C1099 1.427 . S
C1101 C1102 1.328 . S
C1101 H1116 0.929 . S
C1102 C1096 1.448 . S
C1102 C1101 1.328 . S
C1102 H1117 0.930 . S
Tb1103 N1094 2.617 . S
Tb1103 N1104 2.572 . S
Tb1103 O1138 2.349 . S
Tb1103 O1141 2.393 . S
Tb1103 O1142 2.465 . S
Tb1103 O1143 2.387 . S
Tb1103 O1145 2.428 . S
Tb1103 O1146 2.308 . S
Tb1103 C1167 2.802 . S
N1104 C1100 1.361 . S
N1104 Tb1103 2.572 . S
N1104 C1106 1.340 . S
C1105 C1099 1.416 . S
C1105 C1107 1.332 . S
C1105 H1113 0.931 . S
C1106 N1104 1.340 . S
C1106 C1107 1.407 . S
C1106 H1112 0.930 . S
C1107 C1105 1.332 . S
C1107 C1106 1.407 . S
C1107 H1109 0.929 . S
H1108 C1097 0.930 . S
H1109 C1107 0.929 . S
H1110 C1125 0.930 . S
H1111 C1132 0.929 . S
H1112 C1106 0.930 . S
H1113 C1105 0.931 . S
H1114 C1128 0.930 . S
H1115 C1095 0.930 . S
H1116 C1101 0.929 . S
H1117 C1102 0.930 . S
H1118 C1123 0.930 . S
H1119 C1098 0.930 . S
H1120 C1131 0.931 . S
N1121 Tb1092 2.617 . S
N1121 C1122 1.379 . S
N1121 C1125 1.334 . S
C1122 N1121 1.379 . S
C1122 C1124 1.416 . S
C1122 C1130 1.424 . S
C1123 H1118 0.930 . S
C1123 C1125 1.390 . S
C1123 C1126 1.339 . S
C1124 C1122 1.416 . S
C1124 C1126 1.416 . S
C1124 C1157 1.448 . S
C1125 H1110 0.930 . S
C1125 N1121 1.334 . S
C1125 C1123 1.390 . S
C1126 C1123 1.339 . S
C1126 C1124 1.416 . S
C1126 H1133 0.930 . S
N1127 Tb1092 2.572 . S
N1127 C1128 1.340 . S
N1127 C1130 1.361 . S
C1128 H1114 0.930 . S
C1128 N1127 1.340 . S
C1128 C1132 1.407 . S
C1129 C1130 1.413 . S
C1129 C1131 1.416 . S
C1129 C1158 1.427 . S
C1130 C1122 1.424 . S
C1130 N1127 1.361 . S
C1130 C1129 1.413 . S
C1131 H1120 0.931 . S
C1131 C1129 1.416 . S
C1131 C1132 1.332 . S
C1132 H1111 0.929 . S
C1132 C1128 1.407 . S
C1132 C1131 1.332 . S
H1133 C1126 0.930 . S
H1134 C1157 0.930 . S
H1135 C1158 0.929 . S
O1136 Tb1092 2.465 . S
O1136 C1156 1.264 . S
O1137 Tb1092 2.387 . S
O1137 C1148 1.264 . S
O1138 Tb1103 2.349 . S
O1138 C1148 1.243 . S
O1139 Tb1092 2.428 . S
O1139 C1156 1.256 . S
O1140 Tb1092 2.308 . S
O1140 C1155 1.266 . S
O1141 Tb1103 2.393 . S
O1141 C1155 1.248 . S
O1142 Tb1103 2.465 . S
O1142 C1167 1.264 . S
O1143 Tb1103 2.387 . S
O1143 C1159 1.264 . S
O1144 Tb1092 2.349 . S
O1144 C1159 1.243 . S
O1145 Tb1103 2.428 . S
O1145 C1167 1.256 . S
O1146 Tb1103 2.308 . S
O1146 C1166 1.266 . S
O1147 Tb1092 2.393 . S
O1147 C1166 1.248 . S
C1148 O1137 1.264 . S
C1148 O1138 1.243 . S
C1149 C1152 1.399 . S
C1149 C1154 1.383 . S
C1149 C1156 1.496 . S
C1150 C1151 1.399 . S
C1150 C1154 1.389 . S
C1151 C1150 1.399 . S
C1151 C1153 1.380 . S
C1151 H1168 0.929 . S
C1152 C1149 1.399 . S
C1152 C1153 1.392 . S
C1152 H1169 0.929 . S
C1153 C1151 1.380 . S
C1153 C1152 1.392 . S
C1153 H1170 0.929 . S
C1154 C1149 1.383 . S
C1154 C1150 1.389 . S
C1154 H1171 0.931 . S
C1155 O1140 1.266 . S
C1155 O1141 1.248 . S
C1156 Tb1092 2.802 . S
C1156 O1136 1.264 . S
C1156 O1139 1.256 . S
C1156 C1149 1.496 . S
C1157 C1124 1.448 . S
C1157 H1134 0.930 . S
C1157 C1158 1.328 . S
C1158 C1129 1.427 . S
C1158 H1135 0.929 . S
C1158 C1157 1.328 . S
C1159 O1143 1.264 . S
C1159 O1144 1.243 . S
C1160 C1163 1.399 . S
C1160 C1164 1.383 . S
C1160 C1167 1.496 . S
C1161 C1162 1.399 . S
C1161 C1164 1.389 . S
C1162 C1161 1.399 . S
C1162 C1165 1.380 . S
C1162 H1172 0.929 . S
C1163 C1160 1.399 . S
C1163 C1165 1.392 . S
C1163 H1173 0.929 . S
C1164 C1160 1.383 . S
C1164 C1161 1.389 . S
C1164 H1174 0.931 . S
C1165 C1162 1.380 . S
C1165 C1163 1.392 . S
C1165 H1175 0.929 . S
C1166 O1146 1.266 . S
C1166 O1147 1.248 . S
C1167 Tb1103 2.802 . S
C1167 O1142 1.264 . S
C1167 O1145 1.256 . S
C1167 C1160 1.496 . S
H1168 C1151 0.929 . S
H1169 C1152 0.929 . S
H1170 C1153 0.929 . S
H1171 C1154 0.931 . S
H1172 C1162 0.929 . S
H1173 C1163 0.929 . S
H1174 C1164 0.931 . S
H1175 C1165 0.929 . S
Tb1176 N1205 2.617 1_455 S
Tb1176 N1211 2.572 1_455 S
Tb1176 O1220 2.465 . S
Tb1176 O1221 2.387 1_455 S
Tb1176 O1223 2.428 . S
Tb1176 O1224 2.308 . S
Tb1176 O1228 2.349 . S
Tb1176 O1231 2.393 . S
Tb1176 C1240 2.802 . S
C1177 N1178 1.379 . S
C1177 C1180 1.416 . S
C1177 C1184 1.424 . S
N1178 C1177 1.379 . S
N1178 C1181 1.334 . S
N1178 Tb1187 2.617 . S
C1179 C1181 1.390 . S
C1179 C1182 1.339 . S
C1179 H1199 0.930 . S
C1180 C1177 1.416 . S
C1180 C1182 1.416 . S
C1180 C1186 1.448 . S
C1181 N1178 1.334 . S
C1181 C1179 1.390 . S
C1181 H1192 0.930 . S
C1182 C1179 1.339 . S
C1182 C1180 1.416 . S
C1182 H1203 0.930 . S
C1183 C1184 1.413 . S
C1183 C1185 1.427 . S
C1183 C1189 1.416 . S
C1184 C1177 1.424 . S
C1184 C1183 1.413 . S
C1184 N1188 1.361 . S
C1185 C1183 1.427 . S
C1185 C1186 1.328 . S
C1185 H1200 0.929 . S
C1186 C1180 1.448 . S
C1186 C1185 1.328 . S
C1186 H1201 0.930 . S
Tb1187 N1178 2.617 . S
Tb1187 N1188 2.572 . S
Tb1187 O1222 2.349 1_455 S
Tb1187 O1225 2.393 . S
Tb1187 O1226 2.465 . S
Tb1187 O1227 2.387 . S
Tb1187 O1229 2.428 . S
Tb1187 O1230 2.308 . S
Tb1187 C1251 2.802 . S
N1188 C1184 1.361 . S
N1188 Tb1187 2.572 . S
N1188 C1190 1.340 . S
C1189 C1183 1.416 . S
C1189 C1191 1.332 . S
C1189 H1197 0.931 . S
C1190 N1188 1.340 . S
C1190 C1191 1.407 . S
C1190 H1196 0.930 . S
C1191 C1189 1.332 . S
C1191 C1190 1.407 . S
C1191 H1193 0.929 . S
H1192 C1181 0.930 . S
H1193 C1191 0.929 . S
H1194 C1209 0.930 1_455 S
H1195 C1216 0.929 . S
H1196 C1190 0.930 . S
H1197 C1189 0.931 . S
H1198 C1212 0.930 1_455 S
H1199 C1179 0.930 . S
H1200 C1185 0.929 . S
H1201 C1186 0.930 . S
H1202 C1207 0.930 . S
H1203 C1182 0.930 . S
H1204 C1215 0.931 . S
N1205 Tb1176 2.617 1_655 S
N1205 C1206 1.379 . S
N1205 C1209 1.334 . S
C1206 N1205 1.379 . S
C1206 C1208 1.416 . S
C1206 C1214 1.424 . S
C1207 H1202 0.930 . S
C1207 C1209 1.390 . S
C1207 C1210 1.339 . S
C1208 C1206 1.416 . S
C1208 C1210 1.416 . S
C1208 C1241 1.448 . S
C1209 H1194 0.930 1_655 S
C1209 N1205 1.334 . S
C1209 C1207 1.390 . S
C1210 C1207 1.339 . S
C1210 C1208 1.416 . S
C1210 H1217 0.930 . S
N1211 Tb1176 2.572 1_655 S
N1211 C1212 1.340 . S
N1211 C1214 1.361 . S
C1212 H1198 0.930 1_655 S
C1212 N1211 1.340 . S
C1212 C1216 1.407 . S
C1213 C1214 1.413 . S
C1213 C1215 1.416 . S
C1213 C1242 1.427 . S
C1214 C1206 1.424 . S
C1214 N1211 1.361 . S
C1214 C1213 1.413 . S
C1215 H1204 0.931 . S
C1215 C1213 1.416 . S
C1215 C1216 1.332 . S
C1216 H1195 0.929 . S
C1216 C1212 1.407 . S
C1216 C1215 1.332 . S
H1217 C1210 0.930 . S
H1218 C1241 0.930 . S
H1219 C1242 0.929 . S
O1220 Tb1176 2.465 . S
O1220 C1240 1.264 . S
O1221 Tb1176 2.387 1_655 S
O1221 C1232 1.264 . S
O1222 Tb1187 2.349 1_655 S
O1222 C1232 1.243 . S
O1223 Tb1176 2.428 . S
O1223 C1240 1.256 . S
O1224 Tb1176 2.308 . S
O1224 C1239 1.266 . S
O1225 Tb1187 2.393 . S
O1225 C1239 1.248 . S
O1226 Tb1187 2.465 . S
O1226 C1251 1.264 . S
O1227 Tb1187 2.387 . S
O1227 C1243 1.264 . S
O1228 Tb1176 2.349 . S
O1228 C1243 1.243 . S
O1229 Tb1187 2.428 . S
O1229 C1251 1.256 . S
O1230 Tb1187 2.308 . S
O1230 C1250 1.266 . S
O1231 Tb1176 2.393 . S
O1231 C1250 1.248 . S
C1232 O1221 1.264 . S
C1232 O1222 1.243 . S
C1233 C1236 1.399 . S
C1233 C1238 1.383 . S
C1233 C1240 1.496 . S
C1234 C1235 1.399 . S
C1234 C1238 1.389 . S
C1235 C1234 1.399 . S
C1235 C1237 1.380 . S
C1235 H1252 0.929 . S
C1236 C1233 1.399 . S
C1236 C1237 1.392 . S
C1236 H1253 0.929 . S
C1237 C1235 1.380 . S
C1237 C1236 1.392 . S
C1237 H1254 0.929 . S
C1238 C1233 1.383 . S
C1238 C1234 1.389 . S
C1238 H1255 0.931 . S
C1239 O1224 1.266 . S
C1239 O1225 1.248 . S
C1240 Tb1176 2.802 . S
C1240 O1220 1.264 . S
C1240 O1223 1.256 . S
C1240 C1233 1.496 . S
C1241 C1208 1.448 . S
C1241 H1218 0.930 . S
C1241 C1242 1.328 . S
C1242 C1213 1.427 . S
C1242 H1219 0.929 . S
C1242 C1241 1.328 . S
C1243 O1227 1.264 . S
C1243 O1228 1.243 . S
C1244 C1247 1.399 . S
C1244 C1248 1.383 . S
C1244 C1251 1.496 1_655 S
C1245 C1246 1.399 . S
C1245 C1248 1.389 . S
C1246 C1245 1.399 . S
C1246 C1249 1.380 . S
C1246 H1256 0.929 . S
C1247 C1244 1.399 . S
C1247 C1249 1.392 . S
C1247 H1257 0.929 . S
C1248 C1244 1.383 . S
C1248 C1245 1.389 . S
C1248 H1258 0.931 . S
C1249 C1246 1.380 . S
C1249 C1247 1.392 . S
C1249 H1259 0.929 . S
C1250 O1230 1.266 . S
C1250 O1231 1.248 . S
C1251 Tb1187 2.802 . S
C1251 O1226 1.264 . S
C1251 O1229 1.256 . S
C1251 C1244 1.496 1_455 S
H1252 C1235 0.929 . S
H1253 C1236 0.929 . S
H1254 C1237 0.929 . S
H1255 C1238 0.931 . S
H1256 C1246 0.929 . S
H1257 C1247 0.929 . S
H1258 C1248 0.931 . S
H1259 C1249 0.929 . S
Tb1260 N1289 2.617 . S
Tb1260 N1295 2.572 . S
Tb1260 O1304 2.465 . S
Tb1260 O1305 2.387 . S
Tb1260 O1307 2.428 . S
Tb1260 O1308 2.308 . S
Tb1260 O1312 2.349 . S
Tb1260 O1315 2.393 . S
Tb1260 C1324 2.802 . S
C1261 N1262 1.379 . S
C1261 C1264 1.416 . S
C1261 C1268 1.424 . S
N1262 C1261 1.379 . S
N1262 C1265 1.334 . S
N1262 Tb1271 2.617 . S
C1263 C1265 1.390 . S
C1263 C1266 1.339 . S
C1263 H1283 0.930 . S
C1264 C1261 1.416 . S
C1264 C1266 1.416 . S
C1264 C1270 1.448 . S
C1265 N1262 1.334 . S
C1265 C1263 1.390 . S
C1265 H1276 0.930 . S
C1266 C1263 1.339 . S
C1266 C1264 1.416 . S
C1266 H1287 0.930 . S
C1267 C1268 1.413 . S
C1267 C1269 1.427 . S
C1267 C1273 1.416 . S
C1268 C1261 1.424 . S
C1268 C1267 1.413 . S
C1268 N1272 1.361 . S
C1269 C1267 1.427 . S
C1269 C1270 1.328 . S
C1269 H1284 0.929 . S
C1270 C1264 1.448 . S
C1270 C1269 1.328 . S
C1270 H1285 0.930 . S
Tb1271 N1262 2.617 . S
Tb1271 N1272 2.572 . S
Tb1271 O1306 2.349 . S
Tb1271 O1309 2.393 . S
Tb1271 O1310 2.465 . S
Tb1271 O1311 2.387 . S
Tb1271 O1313 2.428 . S
Tb1271 O1314 2.308 . S
Tb1271 C1335 2.802 . S
N1272 C1268 1.361 . S
N1272 Tb1271 2.572 . S
N1272 C1274 1.340 . S
C1273 C1267 1.416 . S
C1273 C1275 1.332 . S
C1273 H1281 0.931 . S
C1274 N1272 1.340 . S
C1274 C1275 1.407 . S
C1274 H1280 0.930 . S
C1275 C1273 1.332 . S
C1275 C1274 1.407 . S
C1275 H1277 0.929 . S
H1276 C1265 0.930 . S
H1277 C1275 0.929 . S
H1278 C1293 0.930 . S
H1279 C1300 0.929 . S
H1280 C1274 0.930 . S
H1281 C1273 0.931 . S
H1282 C1296 0.930 . S
H1283 C1263 0.930 . S
H1284 C1269 0.929 . S
H1285 C1270 0.930 . S
H1286 C1291 0.930 . S
H1287 C1266 0.930 . S
H1288 C1299 0.931 . S
N1289 Tb1260 2.617 . S
N1289 C1290 1.379 . S
N1289 C1293 1.334 . S
C1290 N1289 1.379 . S
C1290 C1292 1.416 . S
C1290 C1298 1.424 . S
C1291 H1286 0.930 . S
C1291 C1293 1.390 . S
C1291 C1294 1.339 . S
C1292 C1290 1.416 . S
C1292 C1294 1.416 . S
C1292 C1325 1.448 . S
C1293 H1278 0.930 . S
C1293 N1289 1.334 . S
C1293 C1291 1.390 . S
C1294 C1291 1.339 . S
C1294 C1292 1.416 . S
C1294 H1301 0.930 . S
N1295 Tb1260 2.572 . S
N1295 C1296 1.340 . S
N1295 C1298 1.361 . S
C1296 H1282 0.930 . S
C1296 N1295 1.340 . S
C1296 C1300 1.407 . S
C1297 C1298 1.413 . S
C1297 C1299 1.416 . S
C1297 C1326 1.427 . S
C1298 C1290 1.424 . S
C1298 N1295 1.361 . S
C1298 C1297 1.413 . S
C1299 H1288 0.931 . S
C1299 C1297 1.416 . S
C1299 C1300 1.332 . S
C1300 H1279 0.929 . S
C1300 C1296 1.407 . S
C1300 C1299 1.332 . S
H1301 C1294 0.930 . S
H1302 C1325 0.930 . S
H1303 C1326 0.929 . S
O1304 Tb1260 2.465 . S
O1304 C1324 1.264 . S
O1305 Tb1260 2.387 . S
O1305 C1316 1.264 . S
O1306 Tb1271 2.349 . S
O1306 C1316 1.243 . S
O1307 Tb1260 2.428 . S
O1307 C1324 1.256 . S
O1308 Tb1260 2.308 . S
O1308 C1323 1.266 . S
O1309 Tb1271 2.393 . S
O1309 C1323 1.248 . S
O1310 Tb1271 2.465 . S
O1310 C1335 1.264 . S
O1311 Tb1271 2.387 . S
O1311 C1327 1.264 . S
O1312 Tb1260 2.349 . S
O1312 C1327 1.243 . S
O1313 Tb1271 2.428 . S
O1313 C1335 1.256 . S
O1314 Tb1271 2.308 . S
O1314 C1334 1.266 . S
O1315 Tb1260 2.393 . S
O1315 C1334 1.248 . S
C1316 O1305 1.264 . S
C1316 O1306 1.243 . S
C1317 C1320 1.399 . S
C1317 C1322 1.383 . S
C1317 C1324 1.496 . S
C1318 C1319 1.399 . S
C1318 C1322 1.389 . S
C1319 C1318 1.399 . S
C1319 C1321 1.380 . S
C1319 H1336 0.929 . S
C1320 C1317 1.399 . S
C1320 C1321 1.392 . S
C1320 H1337 0.929 . S
C1321 C1319 1.380 . S
C1321 C1320 1.392 . S
C1321 H1338 0.929 . S
C1322 C1317 1.383 . S
C1322 C1318 1.389 . S
C1322 H1339 0.931 . S
C1323 O1308 1.266 . S
C1323 O1309 1.248 . S
C1324 Tb1260 2.802 . S
C1324 O1304 1.264 . S
C1324 O1307 1.256 . S
C1324 C1317 1.496 . S
C1325 C1292 1.448 . S
C1325 H1302 0.930 . S
C1325 C1326 1.328 . S
C1326 C1297 1.427 . S
C1326 H1303 0.929 . S
C1326 C1325 1.328 . S
C1327 O1311 1.264 . S
C1327 O1312 1.243 . S
C1328 C1331 1.399 . S
C1328 C1332 1.383 . S
C1328 C1335 1.496 . S
C1329 C1330 1.399 . S
C1329 C1332 1.389 . S
C1330 C1329 1.399 . S
C1330 C1333 1.380 . S
C1330 H1340 0.929 . S
C1331 C1328 1.399 . S
C1331 C1333 1.392 . S
C1331 H1341 0.929 . S
C1332 C1328 1.383 . S
C1332 C1329 1.389 . S
C1332 H1342 0.931 . S
C1333 C1330 1.380 . S
C1333 C1331 1.392 . S
C1333 H1343 0.929 . S
C1334 O1314 1.266 . S
C1334 O1315 1.248 . S
C1335 Tb1271 2.802 . S
C1335 O1310 1.264 . S
C1335 O1313 1.256 . S
C1335 C1328 1.496 . S
H1336 C1319 0.929 . S
H1337 C1320 0.929 . S
H1338 C1321 0.929 . S
H1339 C1322 0.931 . S
H1340 C1330 0.929 . S
H1341 C1331 0.929 . S
H1342 C1332 0.931 . S
H1343 C1333 0.929 . S
Tb1344 N1373 2.617 . S
Tb1344 N1379 2.572 . S
Tb1344 O1388 2.465 . S
Tb1344 O1389 2.387 . S
Tb1344 O1391 2.428 . S
Tb1344 O1392 2.308 . S
Tb1344 O1396 2.349 . S
Tb1344 O1399 2.393 . S
Tb1344 C1408 2.802 . S
C1345 N1346 1.379 . S
C1345 C1348 1.416 . S
C1345 C1352 1.424 . S
N1346 C1345 1.379 . S
N1346 C1349 1.334 . S
N1346 Tb1355 2.617 . S
C1347 C1349 1.390 . S
C1347 C1350 1.339 . S
C1347 H1367 0.930 . S
C1348 C1345 1.416 . S
C1348 C1350 1.416 . S
C1348 C1354 1.448 . S
C1349 N1346 1.334 . S
C1349 C1347 1.390 . S
C1349 H1360 0.930 . S
C1350 C1347 1.339 . S
C1350 C1348 1.416 . S
C1350 H1371 0.930 . S
C1351 C1352 1.413 . S
C1351 C1353 1.427 . S
C1351 C1357 1.416 . S
C1352 C1345 1.424 . S
C1352 C1351 1.413 . S
C1352 N1356 1.361 . S
C1353 C1351 1.427 . S
C1353 C1354 1.328 . S
C1353 H1368 0.929 . S
C1354 C1348 1.448 . S
C1354 C1353 1.328 . S
C1354 H1369 0.930 . S
Tb1355 N1346 2.617 . S
Tb1355 N1356 2.572 . S
Tb1355 O1390 2.349 . S
Tb1355 O1393 2.393 . S
Tb1355 O1394 2.465 . S
Tb1355 O1395 2.387 . S
Tb1355 O1397 2.428 . S
Tb1355 O1398 2.308 . S
Tb1355 C1419 2.802 . S
N1356 C1352 1.361 . S
N1356 Tb1355 2.572 . S
N1356 C1358 1.340 . S
C1357 C1351 1.416 . S
C1357 C1359 1.332 . S
C1357 H1365 0.931 . S
C1358 N1356 1.340 . S
C1358 C1359 1.407 . S
C1358 H1364 0.930 . S
C1359 C1357 1.332 . S
C1359 C1358 1.407 . S
C1359 H1361 0.929 . S
H1360 C1349 0.930 . S
H1361 C1359 0.929 . S
H1362 C1377 0.930 . S
H1363 C1384 0.929 . S
H1364 C1358 0.930 . S
H1365 C1357 0.931 . S
H1366 C1380 0.930 . S
H1367 C1347 0.930 . S
H1368 C1353 0.929 . S
H1369 C1354 0.930 . S
H1370 C1375 0.930 . S
H1371 C1350 0.930 . S
H1372 C1383 0.931 . S
N1373 Tb1344 2.617 . S
N1373 C1374 1.379 . S
N1373 C1377 1.334 . S
C1374 N1373 1.379 . S
C1374 C1376 1.416 . S
C1374 C1382 1.424 . S
C1375 H1370 0.930 . S
C1375 C1377 1.390 . S
C1375 C1378 1.339 . S
C1376 C1374 1.416 . S
C1376 C1378 1.416 . S
C1376 C1409 1.448 . S
C1377 H1362 0.930 . S
C1377 N1373 1.334 . S
C1377 C1375 1.390 . S
C1378 C1375 1.339 . S
C1378 C1376 1.416 . S
C1378 H1385 0.930 . S
N1379 Tb1344 2.572 . S
N1379 C1380 1.340 . S
N1379 C1382 1.361 . S
C1380 H1366 0.930 . S
C1380 N1379 1.340 . S
C1380 C1384 1.407 . S
C1381 C1382 1.413 . S
C1381 C1383 1.416 . S
C1381 C1410 1.427 . S
C1382 C1374 1.424 . S
C1382 N1379 1.361 . S
C1382 C1381 1.413 . S
C1383 H1372 0.931 . S
C1383 C1381 1.416 . S
C1383 C1384 1.332 . S
C1384 H1363 0.929 . S
C1384 C1380 1.407 . S
C1384 C1383 1.332 . S
H1385 C1378 0.930 . S
H1386 C1409 0.930 . S
H1387 C1410 0.929 . S
O1388 Tb1344 2.465 . S
O1388 C1408 1.264 . S
O1389 Tb1344 2.387 . S
O1389 C1400 1.264 . S
O1390 Tb1355 2.349 . S
O1390 C1400 1.243 . S
O1391 Tb1344 2.428 . S
O1391 C1408 1.256 . S
O1392 Tb1344 2.308 . S
O1392 C1407 1.266 . S
O1393 Tb1355 2.393 . S
O1393 C1407 1.248 . S
O1394 Tb1355 2.465 . S
O1394 C1419 1.264 . S
O1395 Tb1355 2.387 . S
O1395 C1411 1.264 . S
O1396 Tb1344 2.349 . S
O1396 C1411 1.243 . S
O1397 Tb1355 2.428 . S
O1397 C1419 1.256 . S
O1398 Tb1355 2.308 . S
O1398 C1418 1.266 . S
O1399 Tb1344 2.393 . S
O1399 C1418 1.248 . S
C1400 O1389 1.264 . S
C1400 O1390 1.243 . S
C1401 C1404 1.399 . S
C1401 C1406 1.383 . S
C1401 C1408 1.496 . S
C1402 C1403 1.399 . S
C1402 C1406 1.389 . S
C1403 C1402 1.399 . S
C1403 C1405 1.380 . S
C1403 H1420 0.929 . S
C1404 C1401 1.399 . S
C1404 C1405 1.392 . S
C1404 H1421 0.929 . S
C1405 C1403 1.380 . S
C1405 C1404 1.392 . S
C1405 H1422 0.929 . S
C1406 C1401 1.383 . S
C1406 C1402 1.389 . S
C1406 H1423 0.931 . S
C1407 O1392 1.266 . S
C1407 O1393 1.248 . S
C1408 Tb1344 2.802 . S
C1408 O1388 1.264 . S
C1408 O1391 1.256 . S
C1408 C1401 1.496 . S
C1409 C1376 1.448 . S
C1409 H1386 0.930 . S
C1409 C1410 1.328 . S
C1410 C1381 1.427 . S
C1410 H1387 0.929 . S
C1410 C1409 1.328 . S
C1411 O1395 1.264 . S
C1411 O1396 1.243 . S
C1412 C1415 1.399 . S
C1412 C1416 1.383 . S
C1412 C1419 1.496 . S
C1413 C1414 1.399 . S
C1413 C1416 1.389 . S
C1414 C1413 1.399 . S
C1414 C1417 1.380 . S
C1414 H1424 0.929 . S
C1415 C1412 1.399 . S
C1415 C1417 1.392 . S
C1415 H1425 0.929 . S
C1416 C1412 1.383 . S
C1416 C1413 1.389 . S
C1416 H1426 0.931 . S
C1417 C1414 1.380 . S
C1417 C1415 1.392 . S
C1417 H1427 0.929 . S
C1418 O1398 1.266 . S
C1418 O1399 1.248 . S
C1419 Tb1355 2.802 . S
C1419 O1394 1.264 . S
C1419 O1397 1.256 . S
C1419 C1412 1.496 . S
H1420 C1403 0.929 . S
H1421 C1404 0.929 . S
H1422 C1405 0.929 . S
H1423 C1406 0.931 . S
H1424 C1414 0.929 . S
H1425 C1415 0.929 . S
H1426 C1416 0.931 . S
H1427 C1417 0.929 . S
Tb1428 N1457 2.617 . S
Tb1428 N1463 2.572 . S
Tb1428 O1472 2.465 . S
Tb1428 O1473 2.387 . S
Tb1428 O1475 2.428 . S
Tb1428 O1476 2.308 . S
Tb1428 O1480 2.349 . S
Tb1428 O1483 2.393 . S
Tb1428 C1492 2.802 . S
C1429 N1430 1.379 . S
C1429 C1432 1.416 . S
C1429 C1436 1.424 . S
N1430 C1429 1.379 . S
N1430 C1433 1.334 . S
N1430 Tb1439 2.617 . S
C1431 C1433 1.390 . S
C1431 C1434 1.339 . S
C1431 H1451 0.930 . S
C1432 C1429 1.416 . S
C1432 C1434 1.416 . S
C1432 C1438 1.448 . S
C1433 N1430 1.334 . S
C1433 C1431 1.390 . S
C1433 H1444 0.930 . S
C1434 C1431 1.339 . S
C1434 C1432 1.416 . S
C1434 H1455 0.930 . S
C1435 C1436 1.413 . S
C1435 C1437 1.427 . S
C1435 C1441 1.416 . S
C1436 C1429 1.424 . S
C1436 C1435 1.413 . S
C1436 N1440 1.361 . S
C1437 C1435 1.427 . S
C1437 C1438 1.328 . S
C1437 H1452 0.929 . S
C1438 C1432 1.448 . S
C1438 C1437 1.328 . S
C1438 H1453 0.930 . S
Tb1439 N1430 2.617 . S
Tb1439 N1440 2.572 . S
Tb1439 O1474 2.349 . S
Tb1439 O1477 2.393 . S
Tb1439 O1478 2.465 . S
Tb1439 O1479 2.387 . S
Tb1439 O1481 2.428 . S
Tb1439 O1482 2.308 . S
Tb1439 C1503 2.802 . S
N1440 C1436 1.361 . S
N1440 Tb1439 2.572 . S
N1440 C1442 1.340 . S
C1441 C1435 1.416 . S
C1441 C1443 1.332 . S
C1441 H1449 0.931 . S
C1442 N1440 1.340 . S
C1442 C1443 1.407 . S
C1442 H1448 0.930 . S
C1443 C1441 1.332 . S
C1443 C1442 1.407 . S
C1443 H1445 0.929 . S
H1444 C1433 0.930 . S
H1445 C1443 0.929 . S
H1446 C1461 0.930 . S
H1447 C1468 0.929 . S
H1448 C1442 0.930 . S
H1449 C1441 0.931 . S
H1450 C1464 0.930 . S
H1451 C1431 0.930 . S
H1452 C1437 0.929 . S
H1453 C1438 0.930 . S
H1454 C1459 0.930 . S
H1455 C1434 0.930 . S
H1456 C1467 0.931 . S
N1457 Tb1428 2.617 . S
N1457 C1458 1.379 . S
N1457 C1461 1.334 . S
C1458 N1457 1.379 . S
C1458 C1460 1.416 . S
C1458 C1466 1.424 . S
C1459 H1454 0.930 . S
C1459 C1461 1.390 . S
C1459 C1462 1.339 . S
C1460 C1458 1.416 . S
C1460 C1462 1.416 . S
C1460 C1493 1.448 . S
C1461 H1446 0.930 . S
C1461 N1457 1.334 . S
C1461 C1459 1.390 . S
C1462 C1459 1.339 . S
C1462 C1460 1.416 . S
C1462 H1469 0.930 . S
N1463 Tb1428 2.572 . S
N1463 C1464 1.340 . S
N1463 C1466 1.361 . S
C1464 H1450 0.930 . S
C1464 N1463 1.340 . S
C1464 C1468 1.407 . S
C1465 C1466 1.413 . S
C1465 C1467 1.416 . S
C1465 C1494 1.427 . S
C1466 C1458 1.424 . S
C1466 N1463 1.361 . S
C1466 C1465 1.413 . S
C1467 H1456 0.931 . S
C1467 C1465 1.416 . S
C1467 C1468 1.332 . S
C1468 H1447 0.929 . S
C1468 C1464 1.407 . S
C1468 C1467 1.332 . S
H1469 C1462 0.930 . S
H1470 C1493 0.930 . S
H1471 C1494 0.929 . S
O1472 Tb1428 2.465 . S
O1472 C1492 1.264 . S
O1473 Tb1428 2.387 . S
O1473 C1484 1.264 . S
O1474 Tb1439 2.349 . S
O1474 C1484 1.243 . S
O1475 Tb1428 2.428 . S
O1475 C1492 1.256 . S
O1476 Tb1428 2.308 . S
O1476 C1491 1.266 . S
O1477 Tb1439 2.393 . S
O1477 C1491 1.248 . S
O1478 Tb1439 2.465 . S
O1478 C1503 1.264 . S
O1479 Tb1439 2.387 . S
O1479 C1495 1.264 . S
O1480 Tb1428 2.349 . S
O1480 C1495 1.243 . S
O1481 Tb1439 2.428 . S
O1481 C1503 1.256 . S
O1482 Tb1439 2.308 . S
O1482 C1502 1.266 . S
O1483 Tb1428 2.393 . S
O1483 C1502 1.248 . S
C1484 O1473 1.264 . S
C1484 O1474 1.243 . S
C1485 C1488 1.399 . S
C1485 C1490 1.383 . S
C1485 C1492 1.496 . S
C1486 C1487 1.399 . S
C1486 C1490 1.389 . S
C1487 C1486 1.399 . S
C1487 C1489 1.380 . S
C1487 H1504 0.929 . S
C1488 C1485 1.399 . S
C1488 C1489 1.392 . S
C1488 H1505 0.929 . S
C1489 C1487 1.380 . S
C1489 C1488 1.392 . S
C1489 H1506 0.929 . S
C1490 C1485 1.383 . S
C1490 C1486 1.389 . S
C1490 H1507 0.931 . S
C1491 O1476 1.266 . S
C1491 O1477 1.248 . S
C1492 Tb1428 2.802 . S
C1492 O1472 1.264 . S
C1492 O1475 1.256 . S
C1492 C1485 1.496 . S
C1493 C1460 1.448 . S
C1493 H1470 0.930 . S
C1493 C1494 1.328 . S
C1494 C1465 1.427 . S
C1494 H1471 0.929 . S
C1494 C1493 1.328 . S
C1495 O1479 1.264 . S
C1495 O1480 1.243 . S
C1496 C1499 1.399 . S
C1496 C1500 1.383 . S
C1496 C1503 1.496 . S
C1497 C1498 1.399 . S
C1497 C1500 1.389 . S
C1498 C1497 1.399 . S
C1498 C1501 1.380 . S
C1498 H1508 0.929 . S
C1499 C1496 1.399 . S
C1499 C1501 1.392 . S
C1499 H1509 0.929 . S
C1500 C1496 1.383 . S
C1500 C1497 1.389 . S
C1500 H1510 0.931 . S
C1501 C1498 1.380 . S
C1501 C1499 1.392 . S
C1501 H1511 0.929 . S
C1502 O1482 1.266 . S
C1502 O1483 1.248 . S
C1503 Tb1439 2.802 . S
C1503 O1478 1.264 . S
C1503 O1481 1.256 . S
C1503 C1496 1.496 . S
H1504 C1487 0.929 . S
H1505 C1488 0.929 . S
H1506 C1489 0.929 . S
H1507 C1490 0.931 . S
H1508 C1498 0.929 . S
H1509 C1499 0.929 . S
H1510 C1500 0.931 . S
H1511 C1501 0.929 . S
Tb1512 N1541 2.617 . S
Tb1512 N1547 2.572 . S
Tb1512 O1556 2.465 . S
Tb1512 O1557 2.387 . S
Tb1512 O1559 2.428 . S
Tb1512 O1560 2.308 . S
Tb1512 O1564 2.349 . S
Tb1512 O1567 2.393 . S
Tb1512 C1576 2.802 . S
C1513 N1514 1.379 . S
C1513 C1516 1.416 . S
C1513 C1520 1.424 . S
N1514 C1513 1.379 . S
N1514 C1517 1.334 . S
N1514 Tb1523 2.617 . S
C1515 C1517 1.390 . S
C1515 C1518 1.339 . S
C1515 H1535 0.930 . S
C1516 C1513 1.416 . S
C1516 C1518 1.416 . S
C1516 C1522 1.448 . S
C1517 N1514 1.334 . S
C1517 C1515 1.390 . S
C1517 H1528 0.930 . S
C1518 C1515 1.339 . S
C1518 C1516 1.416 . S
C1518 H1539 0.930 . S
C1519 C1520 1.413 . S
C1519 C1521 1.427 . S
C1519 C1525 1.416 . S
C1520 C1513 1.424 . S
C1520 C1519 1.413 . S
C1520 N1524 1.361 . S
C1521 C1519 1.427 . S
C1521 C1522 1.328 . S
C1521 H1536 0.929 . S
C1522 C1516 1.448 . S
C1522 C1521 1.328 . S
C1522 H1537 0.930 . S
Tb1523 N1514 2.617 . S
Tb1523 N1524 2.572 . S
Tb1523 O1558 2.349 . S
Tb1523 O1561 2.393 . S
Tb1523 O1562 2.465 . S
Tb1523 O1563 2.387 . S
Tb1523 O1565 2.428 . S
Tb1523 O1566 2.308 . S
Tb1523 C1587 2.802 . S
N1524 C1520 1.361 . S
N1524 Tb1523 2.572 . S
N1524 C1526 1.340 . S
C1525 C1519 1.416 . S
C1525 C1527 1.332 . S
C1525 H1533 0.931 . S
C1526 N1524 1.340 . S
C1526 C1527 1.407 . S
C1526 H1532 0.930 . S
C1527 C1525 1.332 . S
C1527 C1526 1.407 . S
C1527 H1529 0.929 . S
H1528 C1517 0.930 . S
H1529 C1527 0.929 . S
H1530 C1545 0.930 . S
H1531 C1552 0.929 . S
H1532 C1526 0.930 . S
H1533 C1525 0.931 . S
H1534 C1548 0.930 . S
H1535 C1515 0.930 . S
H1536 C1521 0.929 . S
H1537 C1522 0.930 . S
H1538 C1543 0.930 . S
H1539 C1518 0.930 . S
H1540 C1551 0.931 . S
N1541 Tb1512 2.617 . S
N1541 C1542 1.379 . S
N1541 C1545 1.334 . S
C1542 N1541 1.379 . S
C1542 C1544 1.416 . S
C1542 C1550 1.424 . S
C1543 H1538 0.930 . S
C1543 C1545 1.390 . S
C1543 C1546 1.339 . S
C1544 C1542 1.416 . S
C1544 C1546 1.416 . S
C1544 C1577 1.448 . S
C1545 H1530 0.930 . S
C1545 N1541 1.334 . S
C1545 C1543 1.390 . S
C1546 C1543 1.339 . S
C1546 C1544 1.416 . S
C1546 H1553 0.930 . S
N1547 Tb1512 2.572 . S
N1547 C1548 1.340 . S
N1547 C1550 1.361 . S
C1548 H1534 0.930 . S
C1548 N1547 1.340 . S
C1548 C1552 1.407 . S
C1549 C1550 1.413 . S
C1549 C1551 1.416 . S
C1549 C1578 1.427 . S
C1550 C1542 1.424 . S
C1550 N1547 1.361 . S
C1550 C1549 1.413 . S
C1551 H1540 0.931 . S
C1551 C1549 1.416 . S
C1551 C1552 1.332 . S
C1552 H1531 0.929 . S
C1552 C1548 1.407 . S
C1552 C1551 1.332 . S
H1553 C1546 0.930 . S
H1554 C1577 0.930 . S
H1555 C1578 0.929 . S
O1556 Tb1512 2.465 . S
O1556 C1576 1.264 . S
O1557 Tb1512 2.387 . S
O1557 C1568 1.264 . S
O1558 Tb1523 2.349 . S
O1558 C1568 1.243 . S
O1559 Tb1512 2.428 . S
O1559 C1576 1.256 . S
O1560 Tb1512 2.308 . S
O1560 C1575 1.266 . S
O1561 Tb1523 2.393 . S
O1561 C1575 1.248 . S
O1562 Tb1523 2.465 . S
O1562 C1587 1.264 . S
O1563 Tb1523 2.387 . S
O1563 C1579 1.264 . S
O1564 Tb1512 2.349 . S
O1564 C1579 1.243 . S
O1565 Tb1523 2.428 . S
O1565 C1587 1.256 . S
O1566 Tb1523 2.308 . S
O1566 C1586 1.266 . S
O1567 Tb1512 2.393 . S
O1567 C1586 1.248 . S
C1568 O1557 1.264 . S
C1568 O1558 1.243 . S
C1569 C1572 1.399 . S
C1569 C1574 1.383 . S
C1569 C1576 1.496 . S
C1570 C1571 1.399 . S
C1570 C1574 1.389 . S
C1571 C1570 1.399 . S
C1571 C1573 1.380 . S
C1571 H1588 0.929 . S
C1572 C1569 1.399 . S
C1572 C1573 1.392 . S
C1572 H1589 0.929 . S
C1573 C1571 1.380 . S
C1573 C1572 1.392 . S
C1573 H1590 0.929 . S
C1574 C1569 1.383 . S
C1574 C1570 1.389 . S
C1574 H1591 0.931 . S
C1575 O1560 1.266 . S
C1575 O1561 1.248 . S
C1576 Tb1512 2.802 . S
C1576 O1556 1.264 . S
C1576 O1559 1.256 . S
C1576 C1569 1.496 . S
C1577 C1544 1.448 . S
C1577 H1554 0.930 . S
C1577 C1578 1.328 . S
C1578 C1549 1.427 . S
C1578 H1555 0.929 . S
C1578 C1577 1.328 . S
C1579 O1563 1.264 . S
C1579 O1564 1.243 . S
C1580 C1583 1.399 . S
C1580 C1584 1.383 . S
C1580 C1587 1.496 . S
C1581 C1582 1.399 . S
C1581 C1584 1.389 . S
C1582 C1581 1.399 . S
C1582 C1585 1.380 . S
C1582 H1592 0.929 . S
C1583 C1580 1.399 . S
C1583 C1585 1.392 . S
C1583 H1593 0.929 . S
C1584 C1580 1.383 . S
C1584 C1581 1.389 . S
C1584 H1594 0.931 . S
C1585 C1582 1.380 . S
C1585 C1583 1.392 . S
C1585 H1595 0.929 . S
C1586 O1566 1.266 . S
C1586 O1567 1.248 . S
C1587 Tb1523 2.802 . S
C1587 O1562 1.264 . S
C1587 O1565 1.256 . S
C1587 C1580 1.496 . S
H1588 C1571 0.929 . S
H1589 C1572 0.929 . S
H1590 C1573 0.929 . S
H1591 C1574 0.931 . S
H1592 C1582 0.929 . S
H1593 C1583 0.929 . S
H1594 C1584 0.931 . S
H1595 C1585 0.929 . S
Tb1596 N1625 2.617 . S
Tb1596 N1631 2.572 . S
Tb1596 O1640 2.465 . S
Tb1596 O1641 2.387 1_655 S
Tb1596 O1643 2.428 . S
Tb1596 O1644 2.308 1_655 S
Tb1596 O1648 2.349 1_655 S
Tb1596 O1651 2.393 1_655 S
Tb1596 C1660 2.802 . S
C1597 N1598 1.379 . S
C1597 C1600 1.416 . S
C1597 C1604 1.424 1_556 S
N1598 C1597 1.379 . S
N1598 C1601 1.334 . S
N1598 Tb1607 2.617 1_556 S
C1599 C1601 1.390 . S
C1599 C1602 1.339 . S
C1599 H1619 0.930 . S
C1600 C1597 1.416 . S
C1600 C1602 1.416 . S
C1600 C1606 1.448 . S
C1601 N1598 1.334 . S
C1601 C1599 1.390 . S
C1601 H1612 0.930 . S
C1602 C1599 1.339 . S
C1602 C1600 1.416 . S
C1602 H1623 0.930 . S
C1603 C1604 1.413 . S
C1603 C1605 1.427 . S
C1603 C1609 1.416 . S
C1604 C1597 1.424 1_554 S
C1604 C1603 1.413 . S
C1604 N1608 1.361 . S
C1605 C1603 1.427 . S
C1605 C1606 1.328 1_554 S
C1605 H1620 0.929 . S
C1606 C1600 1.448 . S
C1606 C1605 1.328 1_556 S
C1606 H1621 0.930 . S
Tb1607 N1598 2.617 1_554 S
Tb1607 N1608 2.572 . S
Tb1607 O1642 2.349 . S
Tb1607 O1645 2.393 1_554 S
Tb1607 O1646 2.465 . S
Tb1607 O1647 2.387 . S
Tb1607 O1649 2.428 1_554 S
Tb1607 O1650 2.308 . S
Tb1607 C1671 2.802 . S
N1608 C1604 1.361 . S
N1608 Tb1607 2.572 . S
N1608 C1610 1.340 . S
C1609 C1603 1.416 . S
C1609 C1611 1.332 . S
C1609 H1617 0.931 . S
C1610 N1608 1.340 . S
C1610 C1611 1.407 . S
C1610 H1616 0.930 . S
C1611 C1609 1.332 . S
C1611 C1610 1.407 . S
C1611 H1613 0.929 . S
H1612 C1601 0.930 . S
H1613 C1611 0.929 . S
H1614 C1629 0.930 1_455 S
H1615 C1636 0.945 . S
H1616 C1610 0.930 . S
H1617 C1609 0.931 . S
H1618 C1632 0.930 1_556 S
H1619 C1599 0.930 . S
H1620 C1605 0.929 . S
H1621 C1606 0.930 . S
H1622 C1627 0.930 . S
H1623 C1602 0.930 . S
H1624 C1635 0.931 . S
N1625 Tb1596 2.617 . S
N1625 C1626 1.379 . S
N1625 C1629 1.334 . S
C1626 N1625 1.379 . S
C1626 C1628 1.416 . S
C1626 C1634 1.424 . S
C1627 H1622 0.930 . S
C1627 C1629 1.390 . S
C1627 C1630 1.339 . S
C1628 C1626 1.416 . S
C1628 C1630 1.416 . S
C1628 C1661 1.448 . S
C1629 H1614 0.930 1_655 S
C1629 N1625 1.334 . S
C1629 C1627 1.390 . S
C1630 C1627 1.339 . S
C1630 C1628 1.416 . S
C1630 H1637 0.930 . S
N1631 Tb1596 2.572 . S
N1631 C1632 1.340 . S
N1631 C1634 1.361 . S
C1632 H1618 0.930 1_554 S
C1632 N1631 1.340 . S
C1632 C1636 1.404 1_554 S
C1633 C1634 1.413 . S
C1633 C1635 1.416 . S
C1633 C1662 1.427 . S
C1634 C1626 1.424 . S
C1634 N1631 1.361 . S
C1634 C1633 1.413 . S
C1635 H1624 0.931 . S
C1635 C1633 1.416 . S
C1635 C1636 1.320 1_554 S
C1636 H1615 0.945 . S
C1636 C1632 1.404 1_556 S
C1636 C1635 1.320 1_556 S
H1637 C1630 0.930 . S
H1638 C1661 0.930 . S
H1639 C1662 0.929 . S
O1640 Tb1596 2.465 . S
O1640 C1660 1.264 . S
O1641 Tb1596 2.387 1_455 S
O1641 C1652 1.264 . S
O1642 Tb1607 2.349 . S
O1642 C1652 1.243 . S
O1643 Tb1596 2.428 . S
O1643 C1660 1.256 . S
O1644 Tb1596 2.308 1_455 S
O1644 C1659 1.266 1_554 S
O1645 Tb1607 2.393 1_556 S
O1645 C1659 1.248 . S
O1646 Tb1607 2.465 . S
O1646 C1671 1.264 . S
O1647 Tb1607 2.387 . S
O1647 C1663 1.264 . S
O1648 Tb1596 2.349 1_455 S
O1648 C1663 1.243 . S
O1649 Tb1607 2.428 1_556 S
O1649 C1671 1.256 1_556 S
O1650 Tb1607 2.308 . S
O1650 C1670 1.266 . S
O1651 Tb1596 2.393 1_455 S
O1651 C1670 1.248 . S
C1652 O1641 1.264 . S
C1652 O1642 1.243 . S
C1653 C1656 1.399 . S
C1653 C1658 1.383 . S
C1653 C1660 1.496 . S
C1654 C1655 1.399 . S
C1654 C1658 1.389 . S
C1655 C1654 1.399 . S
C1655 C1657 1.380 . S
C1655 H1672 0.929 . S
C1656 C1653 1.399 . S
C1656 C1657 1.392 . S
C1656 H1673 0.929 . S
C1657 C1655 1.380 . S
C1657 C1656 1.392 . S
C1657 H1674 0.929 . S
C1658 C1653 1.383 . S
C1658 C1654 1.389 . S
C1658 H1675 0.931 . S
C1659 O1644 1.266 1_556 S
C1659 O1645 1.248 . S
C1660 Tb1596 2.802 . S
C1660 O1640 1.264 . S
C1660 O1643 1.256 . S
C1660 C1653 1.496 . S
C1661 C1628 1.448 . S
C1661 H1638 0.930 . S
C1661 C1662 1.328 . S
C1662 C1633 1.427 . S
C1662 H1639 0.929 . S
C1662 C1661 1.328 . S
C1663 O1647 1.264 . S
C1663 O1648 1.243 . S
C1664 C1667 1.399 . S
C1664 C1668 1.383 1_556 S
C1664 C1671 1.496 1_556 S
C1665 C1666 1.399 1_554 S
C1665 C1668 1.389 . S
C1666 C1665 1.399 1_556 S
C1666 C1669 1.380 . S
C1666 H1676 0.929 . S
C1667 C1664 1.399 . S
C1667 C1669 1.392 . S
C1667 H1677 0.929 . S
C1668 C1664 1.383 1_554 S
C1668 C1665 1.389 . S
C1668 H1678 0.931 . S
C1669 C1666 1.380 . S
C1669 C1667 1.392 . S
C1669 H1679 0.929 . S
C1670 O1650 1.266 . S
C1670 O1651 1.248 . S
C1671 Tb1607 2.802 . S
C1671 O1646 1.264 . S
C1671 O1649 1.256 1_554 S
C1671 C1664 1.496 1_554 S
H1672 C1655 0.929 . S
H1673 C1656 0.929 . S
H1674 C1657 0.929 . S
H1675 C1658 0.931 . S
H1676 C1666 0.929 . S
H1677 C1667 0.929 . S
H1678 C1668 0.931 . S
H1679 C1669 0.929 . S
C1680 C1681 1.363 1_455 S
C1680 C1682 1.394 1_556 S
C1680 H1696 0.931 1_556 S
C1681 C1680 1.363 1_655 S
C1681 C1685 1.392 . S
C1682 C1680 1.394 1_554 S
C1682 C1683 1.368 1_554 S
C1682 C1686 1.531 . S
C1683 C1682 1.368 1_556 S
C1683 C1684 1.412 1_455 S
C1683 C1691 1.501 1_556 S
C1684 C1683 1.412 1_655 S
C1684 C1685 1.392 . S
C1684 C1687 1.511 . S
C1685 C1681 1.392 . S
C1685 C1684 1.392 . S
C1685 H1697 0.929 . S
C1686 C1682 1.531 . S
C1686 H1698 0.960 . S
C1686 H1699 0.962 . S
C1686 H1700 0.960 . S
C1687 C1684 1.511 . S
C1687 H1701 0.961 . S
C1687 H1702 0.961 . S
C1687 H1703 0.961 . S
C1688 C1689 1.370 1_556 S
C1688 C1690 1.363 . S
C1688 H1704 0.931 . S
C1689 C1688 1.370 1_554 S
C1689 C1693 1.408 . S
C1690 C1688 1.363 . S
C1690 C1691 1.370 1_556 S
C1690 C1694 1.524 . S
C1691 C1683 1.501 1_554 S
C1691 C1690 1.370 1_554 S
C1691 C1692 1.403 . S
C1692 C1691 1.403 . S
C1692 C1693 1.404 . S
C1692 C1695 1.539 1_455 S
C1693 C1689 1.408 . S
C1693 C1692 1.404 . S
C1693 H1705 0.930 . S
C1694 C1690 1.524 . S
C1694 H1706 0.956 . S
C1694 H1707 0.961 . S
C1694 H1708 0.961 . S
C1695 C1692 1.539 1_655 S
C1695 H1709 0.958 1_655 S
C1695 H1710 0.961 . S
C1695 H1711 0.960 . S
H1696 C1680 0.931 1_554 S
H1697 C1685 0.929 . S
H1698 C1686 0.960 . S
H1699 C1686 0.962 . S
H1700 C1686 0.960 . S
H1701 C1687 0.961 . S
H1702 C1687 0.961 . S
H1703 C1687 0.961 . S
H1704 C1688 0.931 . S
H1705 C1693 0.930 . S
H1706 C1694 0.956 . S
H1707 C1694 0.961 . S
H1708 C1694 0.961 . S
H1709 C1695 0.958 1_455 S
H1710 C1695 0.961 . S
H1711 C1695 0.960 . S
C1712 C1713 1.391 . S
C1712 C1714 1.394 . S
C1712 H1728 0.931 . S
C1713 C1712 1.391 . S
C1713 C1717 1.376 . S
C1714 C1712 1.394 . S
C1714 C1715 1.369 . S
C1714 C1718 1.531 . S
C1715 C1714 1.369 . S
C1715 C1716 1.410 . S
C1715 C1723 1.503 . S
C1716 C1715 1.410 . S
C1716 C1717 1.392 . S
C1716 C1719 1.511 . S
C1717 C1713 1.376 . S
C1717 C1716 1.392 . S
C1717 H1729 0.929 . S
C1718 C1714 1.531 . S
C1718 H1730 0.960 . S
C1718 H1731 0.962 . S
C1718 H1732 0.960 . S
C1719 C1716 1.511 . S
C1719 H1733 0.961 . S
C1719 H1734 0.961 . S
C1719 H1735 0.961 . S
C1720 C1721 1.370 . S
C1720 C1722 1.363 . S
C1720 H1736 0.931 . S
C1721 C1720 1.370 . S
C1721 C1725 1.408 . S
C1722 C1720 1.363 . S
C1722 C1723 1.370 . S
C1722 C1726 1.524 . S
C1723 C1715 1.503 . S
C1723 C1722 1.370 . S
C1723 C1724 1.403 . S
C1724 C1723 1.403 . S
C1724 C1725 1.404 . S
C1724 C1727 1.539 . S
C1725 C1721 1.408 . S
C1725 C1724 1.404 . S
C1725 H1737 0.930 . S
C1726 C1722 1.524 . S
C1726 H1738 0.956 . S
C1726 H1739 0.961 . S
C1726 H1740 0.961 . S
C1727 C1724 1.539 . S
C1727 H1741 0.958 . S
C1727 H1742 0.961 . S
C1727 H1743 0.960 . S
H1728 C1712 0.931 . S
H1729 C1717 0.929 . S
H1730 C1718 0.960 . S
H1731 C1718 0.962 . S
H1732 C1718 0.960 . S
H1733 C1719 0.961 . S
H1734 C1719 0.961 . S
H1735 C1719 0.961 . S
H1736 C1720 0.931 . S
H1737 C1725 0.930 . S
H1738 C1726 0.956 . S
H1739 C1726 0.961 . S
H1740 C1726 0.961 . S
H1741 C1727 0.958 . S
H1742 C1727 0.961 . S
H1743 C1727 0.960 . S
C1744 C1745 1.391 . S
C1744 C1746 1.394 . S
C1744 H1760 0.931 . S
C1745 C1744 1.391 . S
C1745 C1749 1.376 . S
C1746 C1744 1.394 . S
C1746 C1747 1.369 . S
C1746 C1750 1.531 . S
C1747 C1746 1.369 . S
C1747 C1748 1.410 . S
C1747 C1755 1.503 . S
C1748 C1747 1.410 . S
C1748 C1749 1.392 . S
C1748 C1751 1.511 . S
C1749 C1745 1.376 . S
C1749 C1748 1.392 . S
C1749 H1761 0.929 . S
C1750 C1746 1.531 . S
C1750 H1762 0.960 . S
C1750 H1763 0.962 . S
C1750 H1764 0.960 . S
C1751 C1748 1.511 . S
C1751 H1765 0.961 . S
C1751 H1766 0.961 . S
C1751 H1767 0.961 . S
C1752 C1753 1.370 . S
C1752 C1754 1.363 . S
C1752 H1768 0.931 . S
C1753 C1752 1.370 . S
C1753 C1757 1.408 . S
C1754 C1752 1.363 . S
C1754 C1755 1.370 . S
C1754 C1758 1.524 . S
C1755 C1747 1.503 . S
C1755 C1754 1.370 . S
C1755 C1756 1.403 . S
C1756 C1755 1.403 . S
C1756 C1757 1.404 . S
C1756 C1759 1.539 . S
C1757 C1753 1.408 . S
C1757 C1756 1.404 . S
C1757 H1769 0.930 . S
C1758 C1754 1.524 . S
C1758 H1770 0.956 . S
C1758 H1771 0.961 . S
C1758 H1772 0.961 . S
C1759 C1756 1.539 . S
C1759 H1773 0.958 . S
C1759 H1774 0.961 . S
C1759 H1775 0.960 . S
H1760 C1744 0.931 . S
H1761 C1749 0.929 . S
H1762 C1750 0.960 . S
H1763 C1750 0.962 . S
H1764 C1750 0.960 . S
H1765 C1751 0.961 . S
H1766 C1751 0.961 . S
H1767 C1751 0.961 . S
H1768 C1752 0.931 . S
H1769 C1757 0.930 . S
H1770 C1758 0.956 . S
H1771 C1758 0.961 . S
H1772 C1758 0.961 . S
H1773 C1759 0.958 . S
H1774 C1759 0.961 . S
H1775 C1759 0.960 . S
C1776 C1777 1.391 . S
C1776 C1778 1.394 . S
C1776 H1792 0.931 . S
C1777 C1776 1.391 . S
C1777 C1781 1.376 . S
C1778 C1776 1.394 . S
C1778 C1779 1.369 . S
C1778 C1782 1.531 . S
C1779 C1778 1.369 . S
C1779 C1780 1.410 . S
C1779 C1787 1.503 . S
C1780 C1779 1.410 . S
C1780 C1781 1.392 . S
C1780 C1783 1.511 . S
C1781 C1777 1.376 . S
C1781 C1780 1.392 . S
C1781 H1793 0.929 . S
C1782 C1778 1.531 . S
C1782 H1794 0.960 . S
C1782 H1795 0.962 . S
C1782 H1796 0.960 . S
C1783 C1780 1.511 . S
C1783 H1797 0.961 . S
C1783 H1798 0.961 . S
C1783 H1799 0.961 . S
C1784 C1785 1.370 . S
C1784 C1786 1.363 . S
C1784 H1800 0.931 . S
C1785 C1784 1.370 . S
C1785 C1789 1.408 . S
C1786 C1784 1.363 . S
C1786 C1787 1.370 . S
C1786 C1790 1.524 . S
C1787 C1779 1.503 . S
C1787 C1786 1.370 . S
C1787 C1788 1.403 . S
C1788 C1787 1.403 . S
C1788 C1789 1.404 . S
C1788 C1791 1.539 . S
C1789 C1785 1.408 . S
C1789 C1788 1.404 . S
C1789 H1801 0.930 . S
C1790 C1786 1.524 . S
C1790 H1802 0.956 . S
C1790 H1803 0.961 . S
C1790 H1804 0.961 . S
C1791 C1788 1.539 . S
C1791 H1805 0.958 . S
C1791 H1806 0.961 . S
C1791 H1807 0.960 . S
H1792 C1776 0.931 . S
H1793 C1781 0.929 . S
H1794 C1782 0.960 . S
H1795 C1782 0.962 . S
H1796 C1782 0.960 . S
H1797 C1783 0.961 . S
H1798 C1783 0.961 . S
H1799 C1783 0.961 . S
H1800 C1784 0.931 . S
H1801 C1789 0.930 . S
H1802 C1790 0.956 . S
H1803 C1790 0.961 . S
H1804 C1790 0.961 . S
H1805 C1791 0.958 . S
H1806 C1791 0.961 . S
H1807 C1791 0.960 . S
C1808 C1809 1.391 . S
C1808 C1810 1.394 . S
C1808 H1824 0.931 1_455 S
C1809 C1808 1.391 . S
C1809 C1813 1.376 . S
C1810 C1808 1.394 . S
C1810 C1811 1.369 . S
C1810 C1814 1.531 1_455 S
C1811 C1810 1.369 . S
C1811 C1812 1.410 . S
C1811 C1819 1.503 . S
C1812 C1811 1.410 . S
C1812 C1813 1.392 . S
C1812 C1815 1.511 . S
C1813 C1809 1.376 . S
C1813 C1812 1.392 . S
C1813 H1825 0.929 . S
C1814 C1810 1.531 1_655 S
C1814 H1826 0.960 . S
C1814 H1827 0.962 . S
C1814 H1828 0.960 . S
C1815 C1812 1.511 . S
C1815 H1829 0.961 . S
C1815 H1830 0.961 . S
C1815 H1831 0.961 . S
C1816 C1817 1.370 . S
C1816 C1818 1.363 . S
C1816 H1832 0.931 . S
C1817 C1816 1.370 . S
C1817 C1821 1.408 . S
C1818 C1816 1.363 . S
C1818 C1819 1.370 . S
C1818 C1822 1.524 . S
C1819 C1811 1.503 . S
C1819 C1818 1.370 . S
C1819 C1820 1.403 . S
C1820 C1819 1.403 . S
C1820 C1821 1.404 . S
C1820 C1823 1.539 . S
C1821 C1817 1.408 . S
C1821 C1820 1.404 . S
C1821 H1833 0.930 . S
C1822 C1818 1.524 . S
C1822 H1834 0.956 . S
C1822 H1835 0.961 . S
C1822 H1836 0.961 . S
C1823 C1820 1.539 . S
C1823 H1837 0.958 . S
C1823 H1838 0.961 . S
C1823 H1839 0.960 . S
H1824 C1808 0.931 1_655 S
H1825 C1813 0.929 . S
H1826 C1814 0.960 . S
H1827 C1814 0.962 . S
H1828 C1814 0.960 . S
H1829 C1815 0.961 . S
H1830 C1815 0.961 . S
H1831 C1815 0.961 . S
H1832 C1816 0.931 . S
H1833 C1821 0.930 . S
H1834 C1822 0.956 . S
H1835 C1822 0.961 . S
H1836 C1822 0.961 . S
H1837 C1823 0.958 . S
H1838 C1823 0.961 . S
H1839 C1823 0.960 . S
C1840 C1841 1.391 . S
C1840 C1842 1.394 . S
C1840 H1856 0.931 . S
C1841 C1840 1.391 . S
C1841 C1845 1.376 . S
C1842 C1840 1.394 . S
C1842 C1843 1.369 . S
C1842 C1846 1.531 . S
C1843 C1842 1.369 . S
C1843 C1844 1.410 . S
C1843 C1851 1.503 . S
C1844 C1843 1.410 . S
C1844 C1845 1.392 . S
C1844 C1847 1.511 . S
C1845 C1841 1.376 . S
C1845 C1844 1.392 . S
C1845 H1857 0.929 . S
C1846 C1842 1.531 . S
C1846 H1858 0.960 . S
C1846 H1859 0.962 . S
C1846 H1860 0.960 . S
C1847 C1844 1.511 . S
C1847 H1861 0.961 . S
C1847 H1862 0.961 . S
C1847 H1863 0.961 . S
C1848 C1849 1.370 . S
C1848 C1850 1.363 . S
C1848 H1864 0.931 . S
C1849 C1848 1.370 . S
C1849 C1853 1.408 . S
C1850 C1848 1.363 . S
C1850 C1851 1.370 . S
C1850 C1854 1.524 . S
C1851 C1843 1.503 . S
C1851 C1850 1.370 . S
C1851 C1852 1.403 . S
C1852 C1851 1.403 . S
C1852 C1853 1.404 . S
C1852 C1855 1.539 . S
C1853 C1849 1.408 . S
C1853 C1852 1.404 . S
C1853 H1865 0.930 . S
C1854 C1850 1.524 . S
C1854 H1866 0.956 . S
C1854 H1867 0.961 . S
C1854 H1868 0.961 . S
C1855 C1852 1.539 . S
C1855 H1869 0.958 . S
C1855 H1870 0.961 . S
C1855 H1871 0.960 . S
H1856 C1840 0.931 . S
H1857 C1845 0.929 . S
H1858 C1846 0.960 . S
H1859 C1846 0.962 . S
H1860 C1846 0.960 . S
H1861 C1847 0.961 . S
H1862 C1847 0.961 . S
H1863 C1847 0.961 . S
H1864 C1848 0.931 . S
H1865 C1853 0.930 . S
H1866 C1854 0.956 . S
H1867 C1854 0.961 . S
H1868 C1854 0.961 . S
H1869 C1855 0.958 . S
H1870 C1855 0.961 . S
H1871 C1855 0.960 . S
C1872 C1873 1.391 . S
C1872 C1874 1.394 . S
C1872 H1888 0.931 . S
C1873 C1872 1.391 . S
C1873 C1877 1.376 . S
C1874 C1872 1.394 . S
C1874 C1875 1.369 . S
C1874 C1878 1.531 . S
C1875 C1874 1.369 . S
C1875 C1876 1.410 . S
C1875 C1883 1.503 . S
C1876 C1875 1.410 . S
C1876 C1877 1.392 . S
C1876 C1879 1.511 . S
C1877 C1873 1.376 . S
C1877 C1876 1.392 . S
C1877 H1889 0.929 . S
C1878 C1874 1.531 . S
C1878 H1890 0.960 . S
C1878 H1891 0.962 . S
C1878 H1892 0.960 . S
C1879 C1876 1.511 . S
C1879 H1893 0.961 . S
C1879 H1894 0.961 . S
C1879 H1895 0.961 . S
C1880 C1881 1.370 . S
C1880 C1882 1.363 . S
C1880 H1896 0.931 . S
C1881 C1880 1.370 . S
C1881 C1885 1.408 . S
C1882 C1880 1.363 . S
C1882 C1883 1.370 . S
C1882 C1886 1.524 . S
C1883 C1875 1.503 . S
C1883 C1882 1.370 . S
C1883 C1884 1.403 . S
C1884 C1883 1.403 . S
C1884 C1885 1.404 . S
C1884 C1887 1.539 . S
C1885 C1881 1.408 . S
C1885 C1884 1.404 . S
C1885 H1897 0.930 . S
C1886 C1882 1.524 . S
C1886 H1898 0.956 . S
C1886 H1899 0.961 . S
C1886 H1900 0.961 . S
C1887 C1884 1.539 . S
C1887 H1901 0.958 . S
C1887 H1902 0.961 . S
C1887 H1903 0.960 . S
H1888 C1872 0.931 . S
H1889 C1877 0.929 . S
H1890 C1878 0.960 . S
H1891 C1878 0.962 . S
H1892 C1878 0.960 . S
H1893 C1879 0.961 . S
H1894 C1879 0.961 . S
H1895 C1879 0.961 . S
H1896 C1880 0.931 . S
H1897 C1885 0.930 . S
H1898 C1886 0.956 . S
H1899 C1886 0.961 . S
H1900 C1886 0.961 . S
H1901 C1887 0.958 . S
H1902 C1887 0.961 . S
H1903 C1887 0.960 . S
C1904 C1905 1.391 . S
C1904 C1906 1.394 . S
C1904 H1920 0.931 . S
C1905 C1904 1.391 . S
C1905 C1909 1.376 . S
C1906 C1904 1.394 . S
C1906 C1907 1.369 . S
C1906 C1910 1.531 . S
C1907 C1906 1.369 . S
C1907 C1908 1.410 . S
C1907 C1915 1.503 . S
C1908 C1907 1.410 . S
C1908 C1909 1.392 . S
C1908 C1911 1.511 . S
C1909 C1905 1.376 . S
C1909 C1908 1.392 . S
C1909 H1921 0.929 . S
C1910 C1906 1.531 . S
C1910 H1922 0.960 . S
C1910 H1923 0.962 . S
C1910 H1924 0.960 . S
C1911 C1908 1.511 . S
C1911 H1925 0.961 . S
C1911 H1926 0.961 . S
C1911 H1927 0.961 . S
C1912 C1913 1.370 . S
C1912 C1914 1.363 . S
C1912 H1928 0.931 . S
C1913 C1912 1.370 . S
C1913 C1917 1.408 . S
C1914 C1912 1.363 . S
C1914 C1915 1.370 . S
C1914 C1918 1.524 . S
C1915 C1907 1.503 . S
C1915 C1914 1.370 . S
C1915 C1916 1.403 . S
C1916 C1915 1.403 . S
C1916 C1917 1.404 . S
C1916 C1919 1.539 . S
C1917 C1913 1.408 . S
C1917 C1916 1.404 . S
C1917 H1929 0.930 . S
C1918 C1914 1.524 . S
C1918 H1930 0.956 . S
C1918 H1931 0.961 . S
C1918 H1932 0.961 . S
C1919 C1916 1.539 . S
C1919 H1933 0.958 . S
C1919 H1934 0.961 . S
C1919 H1935 0.960 . S
H1920 C1904 0.931 . S
H1921 C1909 0.929 . S
H1922 C1910 0.960 . S
H1923 C1910 0.962 . S
H1924 C1910 0.960 . S
H1925 C1911 0.961 . S
H1926 C1911 0.961 . S
H1927 C1911 0.961 . S
H1928 C1912 0.931 . S
H1929 C1917 0.930 . S
H1930 C1918 0.956 . S
H1931 C1918 0.961 . S
H1932 C1918 0.961 . S
H1933 C1919 0.958 . S
H1934 C1919 0.961 . S
H1935 C1919 0.960 . S
C1936 C1937 1.391 . S
C1936 C1938 1.394 . S
C1936 H1952 0.931 . S
C1937 C1936 1.391 . S
C1937 C1941 1.376 . S
C1938 C1936 1.394 . S
C1938 C1939 1.369 . S
C1938 C1942 1.531 . S
C1939 C1938 1.369 . S
C1939 C1940 1.410 . S
C1939 C1947 1.503 . S
C1940 C1939 1.410 . S
C1940 C1941 1.392 . S
C1940 C1943 1.511 1_655 S
C1941 C1937 1.376 . S
C1941 C1940 1.392 . S
C1941 H1953 0.929 . S
C1942 C1938 1.531 . S
C1942 H1954 0.960 . S
C1942 H1955 0.962 . S
C1942 H1956 0.960 . S
C1943 C1940 1.511 1_455 S
C1943 H1957 0.961 . S
C1943 H1958 0.961 . S
C1943 H1959 0.961 . S
C1944 C1945 1.370 . S
C1944 C1946 1.363 1_455 S
C1944 H1960 0.931 . S
C1945 C1944 1.370 . S
C1945 C1949 1.408 . S
C1946 C1944 1.363 1_655 S
C1946 C1947 1.370 . S
C1946 C1950 1.524 1_545 S
C1947 C1939 1.503 . S
C1947 C1946 1.370 . S
C1947 C1948 1.403 . S
C1948 C1947 1.403 . S
C1948 C1949 1.404 1_655 S
C1948 C1951 1.539 . S
C1949 C1945 1.408 . S
C1949 C1948 1.404 1_455 S
C1949 H1961 0.930 . S
C1950 C1946 1.524 1_565 S
C1950 H1962 0.956 . S
C1950 H1963 0.961 . S
C1950 H1964 0.961 . S
C1951 C1948 1.539 . S
C1951 H1965 0.958 . S
C1951 H1966 0.961 1_655 S
C1951 H1967 0.960 . S
H1952 C1936 0.931 . S
H1953 C1941 0.929 . S
H1954 C1942 0.960 . S
H1955 C1942 0.962 . S
H1956 C1942 0.960 . S
H1957 C1943 0.961 . S
H1958 C1943 0.961 . S
H1959 C1943 0.961 . S
H1960 C1944 0.931 . S
H1961 C1949 0.930 . S
H1962 C1950 0.956 . S
H1963 C1950 0.961 . S
H1964 C1950 0.961 . S
H1965 C1951 0.958 . S
H1966 C1951 0.961 1_455 S
H1967 C1951 0.960 . S
C1968 C1969 1.391 . S
C1968 C1970 1.394 . S
C1968 H1984 0.931 . S
C1969 C1968 1.391 . S
C1969 C1973 1.376 . S
C1970 C1968 1.394 . S
C1970 C1971 1.369 . S
C1970 C1974 1.531 . S
C1971 C1970 1.369 . S
C1971 C1972 1.410 . S
C1971 C1979 1.503 . S
C1972 C1971 1.410 . S
C1972 C1973 1.392 . S
C1972 C1975 1.511 . S
C1973 C1969 1.376 . S
C1973 C1972 1.392 . S
C1973 H1985 0.929 . S
C1974 C1970 1.531 . S
C1974 H1986 0.960 . S
C1974 H1987 0.962 . S
C1974 H1988 0.960 . S
C1975 C1972 1.511 . S
C1975 H1989 0.961 . S
C1975 H1990 0.961 . S
C1975 H1991 0.961 . S
C1976 C1977 1.370 . S
C1976 C1978 1.363 . S
C1976 H1992 0.931 . S
C1977 C1976 1.370 . S
C1977 C1981 1.408 . S
C1978 C1976 1.363 . S
C1978 C1979 1.370 . S
C1978 C1982 1.524 . S
C1979 C1971 1.503 . S
C1979 C1978 1.370 . S
C1979 C1980 1.403 . S
C1980 C1979 1.403 . S
C1980 C1981 1.404 . S
C1980 C1983 1.539 . S
C1981 C1977 1.408 . S
C1981 C1980 1.404 . S
C1981 H1993 0.930 . S
C1982 C1978 1.524 . S
C1982 H1994 0.956 . S
C1982 H1995 0.961 . S
C1982 H1996 0.961 . S
C1983 C1980 1.539 . S
C1983 H1997 0.958 . S
C1983 H1998 0.961 . S
C1983 H1999 0.960 . S
H1984 C1968 0.931 . S
H1985 C1973 0.929 . S
H1986 C1974 0.960 . S
H1987 C1974 0.962 . S
H1988 C1974 0.960 . S
H1989 C1975 0.961 . S
H1990 C1975 0.961 . S
H1991 C1975 0.961 . S
H1992 C1976 0.931 . S
H1993 C1981 0.930 . S
H1994 C1982 0.956 . S
H1995 C1982 0.961 . S
H1996 C1982 0.961 . S
H1997 C1983 0.958 . S
H1998 C1983 0.961 . S
H1999 C1983 0.960 . S
C2000 C2001 1.391 . S
C2000 C2002 1.394 . S
C2000 H2016 0.931 . S
C2001 C2000 1.391 . S
C2001 C2005 1.376 . S
C2002 C2000 1.394 . S
C2002 C2003 1.369 . S
C2002 C2006 1.531 . S
C2003 C2002 1.369 . S
C2003 C2004 1.410 . S
C2003 C2011 1.503 . S
C2004 C2003 1.410 . S
C2004 C2005 1.392 . S
C2004 C2007 1.511 . S
C2005 C2001 1.376 . S
C2005 C2004 1.392 . S
C2005 H2017 0.929 . S
C2006 C2002 1.531 . S
C2006 H2018 0.960 . S
C2006 H2019 0.962 . S
C2006 H2020 0.960 . S
C2007 C2004 1.511 . S
C2007 H2021 0.961 . S
C2007 H2022 0.961 . S
C2007 H2023 0.961 . S
C2008 C2009 1.370 . S
C2008 C2010 1.363 . S
C2008 H2024 0.931 1_545 S
C2009 C2008 1.370 . S
C2009 C2013 1.408 . S
C2010 C2008 1.363 . S
C2010 C2011 1.370 . S
C2010 C2014 1.524 1_545 S
C2011 C2003 1.503 . S
C2011 C2010 1.370 . S
C2011 C2012 1.403 . S
C2012 C2011 1.403 . S
C2012 C2013 1.404 . S
C2012 C2015 1.539 . S
C2013 C2009 1.408 . S
C2013 C2012 1.404 . S
C2013 H2025 0.930 . S
C2014 C2010 1.524 1_565 S
C2014 H2026 0.948 1_565 S
C2014 H2027 0.961 . S
C2014 H2028 0.961 . S
C2015 C2012 1.539 . S
C2015 H2029 0.958 . S
C2015 H2030 0.961 . S
C2015 H2031 0.960 . S
H2016 C2000 0.931 . S
H2017 C2005 0.929 . S
H2018 C2006 0.960 . S
H2019 C2006 0.962 . S
H2020 C2006 0.960 . S
H2021 C2007 0.961 . S
H2022 C2007 0.961 . S
H2023 C2007 0.961 . S
H2024 C2008 0.931 1_565 S
H2025 C2013 0.930 . S
H2026 C2014 0.948 1_545 S
H2027 C2014 0.961 . S
H2028 C2014 0.961 . S
H2029 C2015 0.958 . S
H2030 C2015 0.961 . S
H2031 C2015 0.960 . S
C2032 C2033 1.391 . S
C2032 C2034 1.394 . S
C2032 H2048 0.931 . S
C2033 C2032 1.391 . S
C2033 C2037 1.376 . S
C2034 C2032 1.394 . S
C2034 C2035 1.369 . S
C2034 C2038 1.531 . S
C2035 C2034 1.369 . S
C2035 C2036 1.410 . S
C2035 C2043 1.503 . S
C2036 C2035 1.410 . S
C2036 C2037 1.392 . S
C2036 C2039 1.511 . S
C2037 C2033 1.376 . S
C2037 C2036 1.392 . S
C2037 H2049 0.929 . S
C2038 C2034 1.531 . S
C2038 H2050 0.960 . S
C2038 H2051 0.962 . S
C2038 H2052 0.960 . S
C2039 C2036 1.511 . S
C2039 H2053 0.961 . S
C2039 H2054 0.961 . S
C2039 H2055 0.961 . S
C2040 C2041 1.370 . S
C2040 C2042 1.363 . S
C2040 H2056 0.931 . S
C2041 C2040 1.370 . S
C2041 C2045 1.408 . S
C2042 C2040 1.363 . S
C2042 C2043 1.370 . S
C2042 C2046 1.524 . S
C2043 C2035 1.503 . S
C2043 C2042 1.370 . S
C2043 C2044 1.403 . S
C2044 C2043 1.403 . S
C2044 C2045 1.404 . S
C2044 C2047 1.539 . S
C2045 C2041 1.408 . S
C2045 C2044 1.404 . S
C2045 H2057 0.930 . S
C2046 C2042 1.524 . S
C2046 H2058 0.956 . S
C2046 H2059 0.961 . S
C2046 H2060 0.961 . S
C2047 C2044 1.539 . S
C2047 H2061 0.958 . S
C2047 H2062 0.961 . S
C2047 H2063 0.960 . S
H2048 C2032 0.931 . S
H2049 C2037 0.929 . S
H2050 C2038 0.960 . S
H2051 C2038 0.962 . S
H2052 C2038 0.960 . S
H2053 C2039 0.961 . S
H2054 C2039 0.961 . S
H2055 C2039 0.961 . S
H2056 C2040 0.931 . S
H2057 C2045 0.930 . S
H2058 C2046 0.956 . S
H2059 C2046 0.961 . S
H2060 C2046 0.961 . S
H2061 C2047 0.958 . S
H2062 C2047 0.961 . S
H2063 C2047 0.960 . S
C2064 C2065 1.391 . S
C2064 C2066 1.394 . S
C2064 H2080 0.931 . S
C2065 C2064 1.391 . S
C2065 C2069 1.376 . S
C2066 C2064 1.394 . S
C2066 C2067 1.369 . S
C2066 C2070 1.531 1_655 S
C2067 C2066 1.369 . S
C2067 C2068 1.410 . S
C2067 C2075 1.503 . S
C2068 C2067 1.410 . S
C2068 C2069 1.392 . S
C2068 C2071 1.511 . S
C2069 C2065 1.376 . S
C2069 C2068 1.392 . S
C2069 H2081 0.929 . S
C2070 C2066 1.531 1_455 S
C2070 H2082 0.960 . S
C2070 H2083 0.962 . S
C2070 H2084 0.960 . S
C2071 C2068 1.511 . S
C2071 H2085 0.961 . S
C2071 H2086 0.961 . S
C2071 H2087 0.961 . S
C2072 C2073 1.370 1_655 S
C2072 C2074 1.363 . S
C2072 H2088 0.931 1_545 S
C2073 C2072 1.370 1_455 S
C2073 C2077 1.408 . S
C2074 C2072 1.363 . S
C2074 C2075 1.370 . S
C2074 C2078 1.524 1_545 S
C2075 C2067 1.503 . S
C2075 C2074 1.370 . S
C2075 C2076 1.403 1_655 S
C2076 C2075 1.403 1_455 S
C2076 C2077 1.404 . S
C2076 C2079 1.539 . S
C2077 C2073 1.408 . S
C2077 C2076 1.404 . S
C2077 H2089 0.930 . S
C2078 C2074 1.524 1_565 S
C2078 H2090 0.956 . S
C2078 H2091 0.961 . S
C2078 H2092 0.961 . S
C2079 C2076 1.539 . S
C2079 H2093 0.958 . S
C2079 H2094 0.961 . S
C2079 H2095 0.960 1_455 S
H2080 C2064 0.931 . S
H2081 C2069 0.929 . S
H2082 C2070 0.960 . S
H2083 C2070 0.962 . S
H2084 C2070 0.960 . S
H2085 C2071 0.961 . S
H2086 C2071 0.961 . S
H2087 C2071 0.961 . S
H2088 C2072 0.931 1_565 S
H2089 C2077 0.930 . S
H2090 C2078 0.956 . S
H2091 C2078 0.961 . S
H2092 C2078 0.961 . S
H2093 C2079 0.958 . S
H2094 C2079 0.961 . S
H2095 C2079 0.960 1_655 S
C2096 C2097 1.391 . S
C2096 C2098 1.394 . S
C2096 H2112 0.931 . S
C2097 C2096 1.391 . S
C2097 C2101 1.376 . S
C2098 C2096 1.394 . S
C2098 C2099 1.369 . S
C2098 C2102 1.531 . S
C2099 C2098 1.369 . S
C2099 C2100 1.410 . S
C2099 C2107 1.503 . S
C2100 C2099 1.410 . S
C2100 C2101 1.392 . S
C2100 C2103 1.511 . S
C2101 C2097 1.376 . S
C2101 C2100 1.392 . S
C2101 H2113 0.929 . S
C2102 C2098 1.531 . S
C2102 H2114 0.960 . S
C2102 H2115 0.962 . S
C2102 H2116 0.960 . S
C2103 C2100 1.511 . S
C2103 H2117 0.961 . S
C2103 H2118 0.961 . S
C2103 H2119 0.961 . S
C2104 C2105 1.370 . S
C2104 C2106 1.363 . S
C2104 H2120 0.931 . S
C2105 C2104 1.370 . S
C2105 C2109 1.408 . S
C2106 C2104 1.363 . S
C2106 C2107 1.370 . S
C2106 C2110 1.524 . S
C2107 C2099 1.503 . S
C2107 C2106 1.370 . S
C2107 C2108 1.403 . S
C2108 C2107 1.403 . S
C2108 C2109 1.404 . S
C2108 C2111 1.539 . S
C2109 C2105 1.408 . S
C2109 C2108 1.404 . S
C2109 H2121 0.930 . S
C2110 C2106 1.524 . S
C2110 H2122 0.956 . S
C2110 H2123 0.961 . S
C2110 H2124 0.961 . S
C2111 C2108 1.539 . S
C2111 H2125 0.958 . S
C2111 H2126 0.961 . S
C2111 H2127 0.960 . S
H2112 C2096 0.931 . S
H2113 C2101 0.929 . S
H2114 C2102 0.960 . S
H2115 C2102 0.962 . S
H2116 C2102 0.960 . S
H2117 C2103 0.961 . S
H2118 C2103 0.961 . S
H2119 C2103 0.961 . S
H2120 C2104 0.931 . S
H2121 C2109 0.930 . S
H2122 C2110 0.956 . S
H2123 C2110 0.961 . S
H2124 C2110 0.961 . S
H2125 C2111 0.958 . S
H2126 C2111 0.961 . S
H2127 C2111 0.960 . S
C2128 C2129 1.391 . S
C2128 C2130 1.394 . S
C2128 H2144 0.931 . S
C2129 C2128 1.391 . S
C2129 C2133 1.376 . S
C2130 C2128 1.394 . S
C2130 C2131 1.369 . S
C2130 C2134 1.531 . S
C2131 C2130 1.369 . S
C2131 C2132 1.410 . S
C2131 C2139 1.503 . S
C2132 C2131 1.410 . S
C2132 C2133 1.392 . S
C2132 C2135 1.511 . S
C2133 C2129 1.376 . S
C2133 C2132 1.392 . S
C2133 H2145 0.929 . S
C2134 C2130 1.531 . S
C2134 H2146 0.960 . S
C2134 H2147 0.962 . S
C2134 H2148 0.960 . S
C2135 C2132 1.511 . S
C2135 H2149 0.961 . S
C2135 H2150 0.961 . S
C2135 H2151 0.961 . S
C2136 C2137 1.370 . S
C2136 C2138 1.363 . S
C2136 H2152 0.931 . S
C2137 C2136 1.370 . S
C2137 C2141 1.408 . S
C2138 C2136 1.363 . S
C2138 C2139 1.370 . S
C2138 C2142 1.524 . S
C2139 C2131 1.503 . S
C2139 C2138 1.370 . S
C2139 C2140 1.403 . S
C2140 C2139 1.403 . S
C2140 C2141 1.404 . S
C2140 C2143 1.539 . S
C2141 C2137 1.408 . S
C2141 C2140 1.404 . S
C2141 H2153 0.930 . S
C2142 C2138 1.524 . S
C2142 H2154 0.956 . S
C2142 H2155 0.961 . S
C2142 H2156 0.961 . S
C2143 C2140 1.539 . S
C2143 H2157 0.958 . S
C2143 H2158 0.961 . S
C2143 H2159 0.960 . S
H2144 C2128 0.931 . S
H2145 C2133 0.929 . S
H2146 C2134 0.960 . S
H2147 C2134 0.962 . S
H2148 C2134 0.960 . S
H2149 C2135 0.961 . S
H2150 C2135 0.961 . S
H2151 C2135 0.961 . S
H2152 C2136 0.931 . S
H2153 C2141 0.930 . S
H2154 C2142 0.956 . S
H2155 C2142 0.961 . S
H2156 C2142 0.961 . S
H2157 C2143 0.958 . S
H2158 C2143 0.961 . S
H2159 C2143 0.960 . S
C2160 C2161 1.391 . S
C2160 C2162 1.394 . S
C2160 H2176 0.931 . S
C2161 C2160 1.391 . S
C2161 C2165 1.376 . S
C2162 C2160 1.394 . S
C2162 C2163 1.369 . S
C2162 C2166 1.531 . S
C2163 C2162 1.369 . S
C2163 C2164 1.410 . S
C2163 C2171 1.503 . S
C2164 C2163 1.410 . S
C2164 C2165 1.392 . S
C2164 C2167 1.511 . S
C2165 C2161 1.376 . S
C2165 C2164 1.392 . S
C2165 H2177 0.929 . S
C2166 C2162 1.531 . S
C2166 H2178 0.960 . S
C2166 H2179 0.962 . S
C2166 H2180 0.960 . S
C2167 C2164 1.511 . S
C2167 H2181 0.961 . S
C2167 H2182 0.961 . S
C2167 H2183 0.961 . S
C2168 C2169 1.370 . S
C2168 C2170 1.363 . S
C2168 H2184 0.931 . S
C2169 C2168 1.370 . S
C2169 C2173 1.408 . S
C2170 C2168 1.363 . S
C2170 C2171 1.370 . S
C2170 C2174 1.524 . S
C2171 C2163 1.503 . S
C2171 C2170 1.370 . S
C2171 C2172 1.403 . S
C2172 C2171 1.403 . S
C2172 C2173 1.404 . S
C2172 C2175 1.539 . S
C2173 C2169 1.408 . S
C2173 C2172 1.404 . S
C2173 H2185 0.930 . S
C2174 C2170 1.524 . S
C2174 H2186 0.956 . S
C2174 H2187 0.961 . S
C2174 H2188 0.961 . S
C2175 C2172 1.539 . S
C2175 H2189 0.958 . S
C2175 H2190 0.961 . S
C2175 H2191 0.960 . S
H2176 C2160 0.931 . S
H2177 C2165 0.929 . S
H2178 C2166 0.960 . S
H2179 C2166 0.962 . S
H2180 C2166 0.960 . S
H2181 C2167 0.961 . S
H2182 C2167 0.961 . S
H2183 C2167 0.961 . S
H2184 C2168 0.931 . S
H2185 C2173 0.930 . S
H2186 C2174 0.956 . S
H2187 C2174 0.961 . S
H2188 C2174 0.961 . S
H2189 C2175 0.958 . S
H2190 C2175 0.961 . S
H2191 C2175 0.960 . S
C2192 C2193 1.392 1_556 S
C2192 C2194 1.386 1_556 S
C2192 H2208 0.937 . S
C2193 C2192 1.392 1_554 S
C2193 C2197 1.376 . S
C2194 C2192 1.386 1_554 S
C2194 C2195 1.369 . S
C2194 C2198 1.531 . S
C2195 C2194 1.369 . S
C2195 C2196 1.410 . S
C2195 C2203 1.503 . S
C2196 C2195 1.410 . S
C2196 C2197 1.392 . S
C2196 C2199 1.511 1_565 S
C2197 C2193 1.376 . S
C2197 C2196 1.392 . S
C2197 H2209 0.929 . S
C2198 C2194 1.531 . S
C2198 H2210 0.960 . S
C2198 H2211 0.962 1_554 S
C2198 H2212 0.960 . S
C2199 C2196 1.511 1_545 S
C2199 H2213 0.961 . S
C2199 H2214 0.961 . S
C2199 H2215 0.961 . S
C2200 C2201 1.370 . S
C2200 C2202 1.363 1_545 S
C2200 H2216 0.931 . S
C2201 C2200 1.370 . S
C2201 C2205 1.408 1_545 S
C2202 C2200 1.363 1_565 S
C2202 C2203 1.370 . S
C2202 C2206 1.524 1_554 S
C2203 C2195 1.503 . S
C2203 C2202 1.370 . S
C2203 C2204 1.403 . S
C2204 C2203 1.403 . S
C2204 C2205 1.404 . S
C2204 C2207 1.539 . S
C2205 C2201 1.408 1_565 S
C2205 C2204 1.404 . S
C2205 H2217 0.930 . S
C2206 C2202 1.524 1_556 S
C2206 H2218 0.956 . S
C2206 H2219 0.961 1_565 S
C2206 H2220 0.961 1_565 S
C2207 C2204 1.539 . S
C2207 H2221 0.958 . S
C2207 H2222 0.961 . S
C2207 H2223 0.960 . S
H2208 C2192 0.937 . S
H2209 C2197 0.929 . S
H2210 C2198 0.960 . S
H2211 C2198 0.962 1_556 S
H2212 C2198 0.960 . S
H2213 C2199 0.961 . S
H2214 C2199 0.961 . S
H2215 C2199 0.961 . S
H2216 C2200 0.931 . S
H2217 C2205 0.930 . S
H2218 C2206 0.956 . S
H2219 C2206 0.961 1_545 S
H2220 C2206 0.961 1_545 S
H2221 C2207 0.958 . S
H2222 C2207 0.961 . S
H2223 C2207 0.960 . S
C2224 C2225 1.391 1_556 S
C2224 C2226 1.406 . S
C2224 H2240 0.931 . S
C2225 C2224 1.391 1_554 S
C2225 C2229 1.376 . S
C2226 C2224 1.406 . S
C2226 C2227 1.345 1_556 S
C2226 C2230 1.543 . S
C2227 C2226 1.345 1_554 S
C2227 C2228 1.410 . S
C2227 C2235 1.503 . S
C2228 C2227 1.410 . S
C2228 C2229 1.392 . S
C2228 C2231 1.511 . S
C2229 C2225 1.376 . S
C2229 C2228 1.392 . S
C2229 H2241 0.929 . S
C2230 C2226 1.543 . S
C2230 H2242 0.960 . S
C2230 H2243 0.962 . S
C2230 H2244 0.960 . S
C2231 C2228 1.511 . S
C2231 H2245 0.961 . S
C2231 H2246 0.961 . S
C2231 H2247 0.961 . S
C2232 C2233 1.370 1_556 S
C2232 C2234 1.363 . S
C2232 H2248 0.931 . S
C2233 C2232 1.370 1_554 S
C2233 C2237 1.408 . S
C2234 C2232 1.363 . S
C2234 C2235 1.370 1_556 S
C2234 C2238 1.524 . S
C2235 C2227 1.503 . S
C2235 C2234 1.370 1_554 S
C2235 C2236 1.403 . S
C2236 C2235 1.403 . S
C2236 C2237 1.404 . S
C2236 C2239 1.539 . S
C2237 C2233 1.408 . S
C2237 C2236 1.404 . S
C2237 H2249 0.930 . S
C2238 C2234 1.524 . S
C2238 H2250 0.956 . S
C2238 H2251 0.961 . S
C2238 H2252 0.961 . S
C2239 C2236 1.539 . S
C2239 H2253 0.958 . S
C2239 H2254 0.961 . S
C2239 H2255 0.960 . S
H2240 C2224 0.931 . S
H2241 C2229 0.929 . S
H2242 C2230 0.960 . S
H2243 C2230 0.962 . S
H2244 C2230 0.960 . S
H2245 C2231 0.961 . S
H2246 C2231 0.961 . S
H2247 C2231 0.961 . S
H2248 C2232 0.931 . S
H2249 C2237 0.930 . S
H2250 C2238 0.956 . S
H2251 C2238 0.961 . S
H2252 C2238 0.961 . S
H2253 C2239 0.958 . S
H2254 C2239 0.961 . S
H2255 C2239 0.960 . S
C2256 C2257 1.391 . S
C2256 C2258 1.394 . S
C2256 H2272 0.931 . S
C2257 C2256 1.391 . S
C2257 C2261 1.376 . S
C2258 C2256 1.394 . S
C2258 C2259 1.369 . S
C2258 C2262 1.531 . S
C2259 C2258 1.369 . S
C2259 C2260 1.410 . S
C2259 C2267 1.503 . S
C2260 C2259 1.410 . S
C2260 C2261 1.392 . S
C2260 C2263 1.511 . S
C2261 C2257 1.376 . S
C2261 C2260 1.392 . S
C2261 H2273 0.929 . S
C2262 C2258 1.531 . S
C2262 H2274 0.960 . S
C2262 H2275 0.962 . S
C2262 H2276 0.960 . S
C2263 C2260 1.511 . S
C2263 H2277 0.961 . S
C2263 H2278 0.961 . S
C2263 H2279 0.961 . S
C2264 C2265 1.370 . S
C2264 C2266 1.363 . S
C2264 H2280 0.931 . S
C2265 C2264 1.370 . S
C2265 C2269 1.408 . S
C2266 C2264 1.363 . S
C2266 C2267 1.370 . S
C2266 C2270 1.524 . S
C2267 C2259 1.503 . S
C2267 C2266 1.370 . S
C2267 C2268 1.403 . S
C2268 C2267 1.403 . S
C2268 C2269 1.404 . S
C2268 C2271 1.539 . S
C2269 C2265 1.408 . S
C2269 C2268 1.404 . S
C2269 H2281 0.930 . S
C2270 C2266 1.524 . S
C2270 H2282 0.956 . S
C2270 H2283 0.961 . S
C2270 H2284 0.961 . S
C2271 C2268 1.539 . S
C2271 H2285 0.958 . S
C2271 H2286 0.961 . S
C2271 H2287 0.960 . S
H2272 C2256 0.931 . S
H2273 C2261 0.929 . S
H2274 C2262 0.960 . S
H2275 C2262 0.962 . S
H2276 C2262 0.960 . S
H2277 C2263 0.961 . S
H2278 C2263 0.961 . S
H2279 C2263 0.961 . S
H2280 C2264 0.931 . S
H2281 C2269 0.930 . S
H2282 C2270 0.956 . S
H2283 C2270 0.961 . S
H2284 C2270 0.961 . S
H2285 C2271 0.958 . S
H2286 C2271 0.961 . S
H2287 C2271 0.960 . S
C2288 C2289 1.391 . S
C2288 C2290 1.394 . S
C2288 H2304 0.931 . S
C2289 C2288 1.391 . S
C2289 C2293 1.376 . S
C2290 C2288 1.394 . S
C2290 C2291 1.369 . S
C2290 C2294 1.531 . S
C2291 C2290 1.369 . S
C2291 C2292 1.410 . S
C2291 C2299 1.503 . S
C2292 C2291 1.410 . S
C2292 C2293 1.392 . S
C2292 C2295 1.511 . S
C2293 C2289 1.376 . S
C2293 C2292 1.392 . S
C2293 H2305 0.929 . S
C2294 C2290 1.531 . S
C2294 H2306 0.960 . S
C2294 H2307 0.962 . S
C2294 H2308 0.960 . S
C2295 C2292 1.511 . S
C2295 H2309 0.961 . S
C2295 H2310 0.961 . S
C2295 H2311 0.961 . S
C2296 C2297 1.370 . S
C2296 C2298 1.363 . S
C2296 H2312 0.931 . S
C2297 C2296 1.370 . S
C2297 C2301 1.408 . S
C2298 C2296 1.363 . S
C2298 C2299 1.370 . S
C2298 C2302 1.524 . S
C2299 C2291 1.503 . S
C2299 C2298 1.370 . S
C2299 C2300 1.403 . S
C2300 C2299 1.403 . S
C2300 C2301 1.404 . S
C2300 C2303 1.539 . S
C2301 C2297 1.408 . S
C2301 C2300 1.404 . S
C2301 H2313 0.930 . S
C2302 C2298 1.524 . S
C2302 H2314 0.956 . S
C2302 H2315 0.961 . S
C2302 H2316 0.961 . S
C2303 C2300 1.539 . S
C2303 H2317 0.958 . S
C2303 H2318 0.961 . S
C2303 H2319 0.960 . S
H2304 C2288 0.931 . S
H2305 C2293 0.929 . S
H2306 C2294 0.960 . S
H2307 C2294 0.962 . S
H2308 C2294 0.960 . S
H2309 C2295 0.961 . S
H2310 C2295 0.961 . S
H2311 C2295 0.961 . S
H2312 C2296 0.931 . S
H2313 C2301 0.930 . S
H2314 C2302 0.956 . S
H2315 C2302 0.961 . S
H2316 C2302 0.961 . S
H2317 C2303 0.958 . S
H2318 C2303 0.961 . S
H2319 C2303 0.960 . S
C2320 C2321 1.391 . S
C2320 C2322 1.394 . S
C2320 H2336 0.931 . S
C2321 C2320 1.391 . S
C2321 C2325 1.376 . S
C2322 C2320 1.394 . S
C2322 C2323 1.369 . S
C2322 C2326 1.531 . S
C2323 C2322 1.369 . S
C2323 C2324 1.410 . S
C2323 C2331 1.503 . S
C2324 C2323 1.410 . S
C2324 C2325 1.392 . S
C2324 C2327 1.511 . S
C2325 C2321 1.376 . S
C2325 C2324 1.392 . S
C2325 H2337 0.929 . S
C2326 C2322 1.531 . S
C2326 H2338 0.960 . S
C2326 H2339 0.962 . S
C2326 H2340 0.960 . S
C2327 C2324 1.511 . S
C2327 H2341 0.961 . S
C2327 H2342 0.961 . S
C2327 H2343 0.961 . S
C2328 C2329 1.370 . S
C2328 C2330 1.363 . S
C2328 H2344 0.931 . S
C2329 C2328 1.370 . S
C2329 C2333 1.408 . S
C2330 C2328 1.363 . S
C2330 C2331 1.370 . S
C2330 C2334 1.524 . S
C2331 C2323 1.503 . S
C2331 C2330 1.370 . S
C2331 C2332 1.403 . S
C2332 C2331 1.403 . S
C2332 C2333 1.404 . S
C2332 C2335 1.539 . S
C2333 C2329 1.408 . S
C2333 C2332 1.404 . S
C2333 H2345 0.930 . S
C2334 C2330 1.524 . S
C2334 H2346 0.956 . S
C2334 H2347 0.961 . S
C2334 H2348 0.961 . S
C2335 C2332 1.539 . S
C2335 H2349 0.958 . S
C2335 H2350 0.961 . S
C2335 H2351 0.960 . S
H2336 C2320 0.931 . S
H2337 C2325 0.929 . S
H2338 C2326 0.960 . S
H2339 C2326 0.962 . S
H2340 C2326 0.960 . S
H2341 C2327 0.961 . S
H2342 C2327 0.961 . S
H2343 C2327 0.961 . S
H2344 C2328 0.931 . S
H2345 C2333 0.930 . S
H2346 C2334 0.956 . S
H2347 C2334 0.961 . S
H2348 C2334 0.961 . S
H2349 C2335 0.958 . S
H2350 C2335 0.961 . S
H2351 C2335 0.960 . S
C2352 C2353 1.391 . S
C2352 C2354 1.394 . S
C2352 H2368 0.931 . S
C2353 C2352 1.391 . S
C2353 C2357 1.376 . S
C2354 C2352 1.394 . S
C2354 C2355 1.369 . S
C2354 C2358 1.531 . S
C2355 C2354 1.369 . S
C2355 C2356 1.410 . S
C2355 C2363 1.503 . S
C2356 C2355 1.410 . S
C2356 C2357 1.392 . S
C2356 C2359 1.511 . S
C2357 C2353 1.376 . S
C2357 C2356 1.392 . S
C2357 H2369 0.929 . S
C2358 C2354 1.531 . S
C2358 H2370 0.960 . S
C2358 H2371 0.962 . S
C2358 H2372 0.960 . S
C2359 C2356 1.511 . S
C2359 H2373 0.961 . S
C2359 H2374 0.961 . S
C2359 H2375 0.961 . S
C2360 C2361 1.370 . S
C2360 C2362 1.363 . S
C2360 H2376 0.931 . S
C2361 C2360 1.370 . S
C2361 C2365 1.408 . S
C2362 C2360 1.363 . S
C2362 C2363 1.370 . S
C2362 C2366 1.524 . S
C2363 C2355 1.503 . S
C2363 C2362 1.370 . S
C2363 C2364 1.403 . S
C2364 C2363 1.403 . S
C2364 C2365 1.404 . S
C2364 C2367 1.539 . S
C2365 C2361 1.408 . S
C2365 C2364 1.404 . S
C2365 H2377 0.930 . S
C2366 C2362 1.524 . S
C2366 H2378 0.956 . S
C2366 H2379 0.961 . S
C2366 H2380 0.961 . S
C2367 C2364 1.539 . S
C2367 H2381 0.958 . S
C2367 H2382 0.961 . S
C2367 H2383 0.960 . S
H2368 C2352 0.931 . S
H2369 C2357 0.929 . S
H2370 C2358 0.960 . S
H2371 C2358 0.962 . S
H2372 C2358 0.960 . S
H2373 C2359 0.961 . S
H2374 C2359 0.961 . S
H2375 C2359 0.961 . S
H2376 C2360 0.931 . S
H2377 C2365 0.930 . S
H2378 C2366 0.956 . S
H2379 C2366 0.961 . S
H2380 C2366 0.961 . S
H2381 C2367 0.958 . S
H2382 C2367 0.961 . S
H2383 C2367 0.960 . S
C2384 C2385 1.391 . S
C2384 C2386 1.394 . S
C2384 H2400 0.931 . S
C2385 C2384 1.391 . S
C2385 C2389 1.376 . S
C2386 C2384 1.394 . S
C2386 C2387 1.369 . S
C2386 C2390 1.531 . S
C2387 C2386 1.369 . S
C2387 C2388 1.410 . S
C2387 C2395 1.503 . S
C2388 C2387 1.410 . S
C2388 C2389 1.392 . S
C2388 C2391 1.511 . S
C2389 C2385 1.376 . S
C2389 C2388 1.392 . S
C2389 H2401 0.929 . S
C2390 C2386 1.531 . S
C2390 H2402 0.960 . S
C2390 H2403 0.962 . S
C2390 H2404 0.960 . S
C2391 C2388 1.511 . S
C2391 H2405 0.961 . S
C2391 H2406 0.961 . S
C2391 H2407 0.961 . S
C2392 C2393 1.370 . S
C2392 C2394 1.363 . S
C2392 H2408 0.931 . S
C2393 C2392 1.370 . S
C2393 C2397 1.408 . S
C2394 C2392 1.363 . S
C2394 C2395 1.370 . S
C2394 C2398 1.524 . S
C2395 C2387 1.503 . S
C2395 C2394 1.370 . S
C2395 C2396 1.403 . S
C2396 C2395 1.403 . S
C2396 C2397 1.404 . S
C2396 C2399 1.539 . S
C2397 C2393 1.408 . S
C2397 C2396 1.404 . S
C2397 H2409 0.930 . S
C2398 C2394 1.524 . S
C2398 H2410 0.956 . S
C2398 H2411 0.961 . S
C2398 H2412 0.961 . S
C2399 C2396 1.539 . S
C2399 H2413 0.958 . S
C2399 H2414 0.961 . S
C2399 H2415 0.960 . S
H2400 C2384 0.931 . S
H2401 C2389 0.929 . S
H2402 C2390 0.960 . S
H2403 C2390 0.962 . S
H2404 C2390 0.960 . S
H2405 C2391 0.961 . S
H2406 C2391 0.961 . S
H2407 C2391 0.961 . S
H2408 C2392 0.931 . S
H2409 C2397 0.930 . S
H2410 C2398 0.956 . S
H2411 C2398 0.961 . S
H2412 C2398 0.961 . S
H2413 C2399 0.958 . S
H2414 C2399 0.961 . S
H2415 C2399 0.960 . S
C2416 C2417 1.391 . S
C2416 C2418 1.394 . S
C2416 H2432 0.931 . S
C2417 C2416 1.391 . S
C2417 C2421 1.376 . S
C2418 C2416 1.394 . S
C2418 C2419 1.369 . S
C2418 C2422 1.531 . S
C2419 C2418 1.369 . S
C2419 C2420 1.410 . S
C2419 C2427 1.503 . S
C2420 C2419 1.410 . S
C2420 C2421 1.392 . S
C2420 C2423 1.511 . S
C2421 C2417 1.376 . S
C2421 C2420 1.392 . S
C2421 H2433 0.929 . S
C2422 C2418 1.531 . S
C2422 H2434 0.960 . S
C2422 H2435 0.962 . S
C2422 H2436 0.960 . S
C2423 C2420 1.511 . S
C2423 H2437 0.961 . S
C2423 H2438 0.961 . S
C2423 H2439 0.961 . S
C2424 C2425 1.370 . S
C2424 C2426 1.363 . S
C2424 H2440 0.931 . S
C2425 C2424 1.370 . S
C2425 C2429 1.408 . S
C2426 C2424 1.363 . S
C2426 C2427 1.370 . S
C2426 C2430 1.524 . S
C2427 C2419 1.503 . S
C2427 C2426 1.370 . S
C2427 C2428 1.403 . S
C2428 C2427 1.403 . S
C2428 C2429 1.404 . S
C2428 C2431 1.539 . S
C2429 C2425 1.408 . S
C2429 C2428 1.404 . S
C2429 H2441 0.930 . S
C2430 C2426 1.524 . S
C2430 H2442 0.956 . S
C2430 H2443 0.961 . S
C2430 H2444 0.961 . S
C2431 C2428 1.539 . S
C2431 H2445 0.958 . S
C2431 H2446 0.961 . S
C2431 H2447 0.960 . S
H2432 C2416 0.931 . S
H2433 C2421 0.929 . S
H2434 C2422 0.960 . S
H2435 C2422 0.962 . S
H2436 C2422 0.960 . S
H2437 C2423 0.961 . S
H2438 C2423 0.961 . S
H2439 C2423 0.961 . S
H2440 C2424 0.931 . S
H2441 C2429 0.930 . S
H2442 C2430 0.956 . S
H2443 C2430 0.961 . S
H2444 C2430 0.961 . S
H2445 C2431 0.958 . S
H2446 C2431 0.961 . S
H2447 C2431 0.960 . S
C2448 C2449 1.391 . S
C2448 C2450 1.394 . S
C2448 H2464 0.931 . S
C2449 C2448 1.391 . S
C2449 C2453 1.376 . S
C2450 C2448 1.394 . S
C2450 C2451 1.369 . S
C2450 C2454 1.531 . S
C2451 C2450 1.369 . S
C2451 C2452 1.410 . S
C2451 C2459 1.503 . S
C2452 C2451 1.410 . S
C2452 C2453 1.392 . S
C2452 C2455 1.511 . S
C2453 C2449 1.376 . S
C2453 C2452 1.392 . S
C2453 H2465 0.929 . S
C2454 C2450 1.531 . S
C2454 H2466 0.960 . S
C2454 H2467 0.962 . S
C2454 H2468 0.960 . S
C2455 C2452 1.511 . S
C2455 H2469 0.961 . S
C2455 H2470 0.961 . S
C2455 H2471 0.961 . S
C2456 C2457 1.370 . S
C2456 C2458 1.363 . S
C2456 H2472 0.931 . S
C2457 C2456 1.370 . S
C2457 C2461 1.408 . S
C2458 C2456 1.363 . S
C2458 C2459 1.370 . S
C2458 C2462 1.524 . S
C2459 C2451 1.503 . S
C2459 C2458 1.370 . S
C2459 C2460 1.403 . S
C2460 C2459 1.403 . S
C2460 C2461 1.404 . S
C2460 C2463 1.539 . S
C2461 C2457 1.408 . S
C2461 C2460 1.404 . S
C2461 H2473 0.930 . S
C2462 C2458 1.524 . S
C2462 H2474 0.956 . S
C2462 H2475 0.961 . S
C2462 H2476 0.961 . S
C2463 C2460 1.539 . S
C2463 H2477 0.958 . S
C2463 H2478 0.961 1_554 S
C2463 H2479 0.960 . S
H2464 C2448 0.931 . S
H2465 C2453 0.929 . S
H2466 C2454 0.960 . S
H2467 C2454 0.962 . S
H2468 C2454 0.960 . S
H2469 C2455 0.961 . S
H2470 C2455 0.961 . S
H2471 C2455 0.961 . S
H2472 C2456 0.931 . S
H2473 C2461 0.930 . S
H2474 C2462 0.956 . S
H2475 C2462 0.961 . S
H2476 C2462 0.961 . S
H2477 C2463 0.958 . S
H2478 C2463 0.961 1_556 S
H2479 C2463 0.960 . S
C2480 C2481 1.391 . S
C2480 C2482 1.394 . S
C2480 H2496 0.931 . S
C2481 C2480 1.391 . S
C2481 C2485 1.376 . S
C2482 C2480 1.394 . S
C2482 C2483 1.369 . S
C2482 C2486 1.531 . S
C2483 C2482 1.369 . S
C2483 C2484 1.410 . S
C2483 C2491 1.503 . S
C2484 C2483 1.410 . S
C2484 C2485 1.392 . S
C2484 C2487 1.511 . S
C2485 C2481 1.376 . S
C2485 C2484 1.392 . S
C2485 H2497 0.929 . S
C2486 C2482 1.531 . S
C2486 H2498 0.960 . S
C2486 H2499 0.962 . S
C2486 H2500 0.960 . S
C2487 C2484 1.511 . S
C2487 H2501 0.961 . S
C2487 H2502 0.961 . S
C2487 H2503 0.961 . S
C2488 C2489 1.370 . S
C2488 C2490 1.363 . S
C2488 H2504 0.931 . S
C2489 C2488 1.370 . S
C2489 C2493 1.408 . S
C2490 C2488 1.363 . S
C2490 C2491 1.370 . S
C2490 C2494 1.524 . S
C2491 C2483 1.503 . S
C2491 C2490 1.370 . S
C2491 C2492 1.403 . S
C2492 C2491 1.403 . S
C2492 C2493 1.404 . S
C2492 C2495 1.539 . S
C2493 C2489 1.408 . S
C2493 C2492 1.404 . S
C2493 H2505 0.930 . S
C2494 C2490 1.524 . S
C2494 H2506 0.956 . S
C2494 H2507 0.961 . S
C2494 H2508 0.961 . S
C2495 C2492 1.539 . S
C2495 H2509 0.958 . S
C2495 H2510 0.961 . S
C2495 H2511 0.960 . S
H2496 C2480 0.931 . S
H2497 C2485 0.929 . S
H2498 C2486 0.960 . S
H2499 C2486 0.962 . S
H2500 C2486 0.960 . S
H2501 C2487 0.961 . S
H2502 C2487 0.961 . S
H2503 C2487 0.961 . S
H2504 C2488 0.931 . S
H2505 C2493 0.930 . S
H2506 C2494 0.956 . S
H2507 C2494 0.961 . S
H2508 C2494 0.961 . S
H2509 C2495 0.958 . S
H2510 C2495 0.961 . S
H2511 C2495 0.960 . S
C2512 C2513 1.391 . S
C2512 C2514 1.394 . S
C2512 H2528 0.931 . S
C2513 C2512 1.391 . S
C2513 C2517 1.376 . S
C2514 C2512 1.394 . S
C2514 C2515 1.369 . S
C2514 C2518 1.531 . S
C2515 C2514 1.369 . S
C2515 C2516 1.410 . S
C2515 C2523 1.503 . S
C2516 C2515 1.410 . S
C2516 C2517 1.392 . S
C2516 C2519 1.511 . S
C2517 C2513 1.376 . S
C2517 C2516 1.392 . S
C2517 H2529 0.929 . S
C2518 C2514 1.531 . S
C2518 H2530 0.960 . S
C2518 H2531 0.962 . S
C2518 H2532 0.960 . S
C2519 C2516 1.511 . S
C2519 H2533 0.961 . S
C2519 H2534 0.961 . S
C2519 H2535 0.961 . S
C2520 C2521 1.370 . S
C2520 C2522 1.363 . S
C2520 H2536 0.931 . S
C2521 C2520 1.370 . S
C2521 C2525 1.408 . S
C2522 C2520 1.363 . S
C2522 C2523 1.370 . S
C2522 C2526 1.524 . S
C2523 C2515 1.503 . S
C2523 C2522 1.370 . S
C2523 C2524 1.403 . S
C2524 C2523 1.403 . S
C2524 C2525 1.404 . S
C2524 C2527 1.539 . S
C2525 C2521 1.408 . S
C2525 C2524 1.404 . S
C2525 H2537 0.930 . S
C2526 C2522 1.524 . S
C2526 H2538 0.956 . S
C2526 H2539 0.961 . S
C2526 H2540 0.961 . S
C2527 C2524 1.539 . S
C2527 H2541 0.958 . S
C2527 H2542 0.961 . S
C2527 H2543 0.960 . S
H2528 C2512 0.931 . S
H2529 C2517 0.929 . S
H2530 C2518 0.960 . S
H2531 C2518 0.962 . S
H2532 C2518 0.960 . S
H2533 C2519 0.961 . S
H2534 C2519 0.961 . S
H2535 C2519 0.961 . S
H2536 C2520 0.931 . S
H2537 C2525 0.930 . S
H2538 C2526 0.956 . S
H2539 C2526 0.961 . S
H2540 C2526 0.961 . S
H2541 C2527 0.958 . S
H2542 C2527 0.961 . S
H2543 C2527 0.960 . S
C2544 C2545 1.391 . S
C2544 C2546 1.394 . S
C2544 H2560 0.931 . S
C2545 C2544 1.391 . S
C2545 C2549 1.376 . S
C2546 C2544 1.394 . S
C2546 C2547 1.369 . S
C2546 C2550 1.531 . S
C2547 C2546 1.369 . S
C2547 C2548 1.410 . S
C2547 C2555 1.503 . S
C2548 C2547 1.410 . S
C2548 C2549 1.392 . S
C2548 C2551 1.511 . S
C2549 C2545 1.376 . S
C2549 C2548 1.392 . S
C2549 H2561 0.929 . S
C2550 C2546 1.531 . S
C2550 H2562 0.960 . S
C2550 H2563 0.962 . S
C2550 H2564 0.960 . S
C2551 C2548 1.511 . S
C2551 H2565 0.961 . S
C2551 H2566 0.961 . S
C2551 H2567 0.961 . S
C2552 C2553 1.370 . S
C2552 C2554 1.363 . S
C2552 H2568 0.931 . S
C2553 C2552 1.370 . S
C2553 C2557 1.408 . S
C2554 C2552 1.363 . S
C2554 C2555 1.370 . S
C2554 C2558 1.524 . S
C2555 C2547 1.503 . S
C2555 C2554 1.370 . S
C2555 C2556 1.403 . S
C2556 C2555 1.403 . S
C2556 C2557 1.404 . S
C2556 C2559 1.539 . S
C2557 C2553 1.408 . S
C2557 C2556 1.404 . S
C2557 H2569 0.930 . S
C2558 C2554 1.524 . S
C2558 H2570 0.956 . S
C2558 H2571 0.961 . S
C2558 H2572 0.961 . S
C2559 C2556 1.539 . S
C2559 H2573 0.958 . S
C2559 H2574 0.961 . S
C2559 H2575 0.960 . S
H2560 C2544 0.931 . S
H2561 C2549 0.929 . S
H2562 C2550 0.960 . S
H2563 C2550 0.962 . S
H2564 C2550 0.960 . S
H2565 C2551 0.961 . S
H2566 C2551 0.961 . S
H2567 C2551 0.961 . S
H2568 C2552 0.931 . S
H2569 C2557 0.930 . S
H2570 C2558 0.956 . S
H2571 C2558 0.961 . S
H2572 C2558 0.961 . S
H2573 C2559 0.958 . S
H2574 C2559 0.961 . S
H2575 C2559 0.960 . S
C2576 C2577 1.391 . S
C2576 C2578 1.394 . S
C2576 H2592 0.931 . S
C2577 C2576 1.391 . S
C2577 C2581 1.376 . S
C2578 C2576 1.394 . S
C2578 C2579 1.369 . S
C2578 C2582 1.531 . S
C2579 C2578 1.369 . S
C2579 C2580 1.410 . S
C2579 C2587 1.503 . S
C2580 C2579 1.410 . S
C2580 C2581 1.392 . S
C2580 C2583 1.511 1_455 S
C2581 C2577 1.376 . S
C2581 C2580 1.392 . S
C2581 H2593 0.929 . S
C2582 C2578 1.531 . S
C2582 H2594 0.960 . S
C2582 H2595 0.962 . S
C2582 H2596 0.960 . S
C2583 C2580 1.511 1_655 S
C2583 H2597 0.961 . S
C2583 H2598 0.961 . S
C2583 H2599 0.961 . S
C2584 C2585 1.370 . S
C2584 C2586 1.363 . S
C2584 H2600 0.931 . S
C2585 C2584 1.370 . S
C2585 C2589 1.408 . S
C2586 C2584 1.363 . S
C2586 C2587 1.370 . S
C2586 C2590 1.524 . S
C2587 C2579 1.503 . S
C2587 C2586 1.370 . S
C2587 C2588 1.403 . S
C2588 C2587 1.403 . S
C2588 C2589 1.404 . S
C2588 C2591 1.539 . S
C2589 C2585 1.408 . S
C2589 C2588 1.404 . S
C2589 H2601 0.930 . S
C2590 C2586 1.524 . S
C2590 H2602 0.956 . S
C2590 H2603 0.961 . S
C2590 H2604 0.961 . S
C2591 C2588 1.539 . S
C2591 H2605 0.958 . S
C2591 H2606 0.961 . S
C2591 H2607 0.960 . S
H2592 C2576 0.931 . S
H2593 C2581 0.929 . S
H2594 C2582 0.960 . S
H2595 C2582 0.962 . S
H2596 C2582 0.960 . S
H2597 C2583 0.961 . S
H2598 C2583 0.961 . S
H2599 C2583 0.961 . S
H2600 C2584 0.931 . S
H2601 C2589 0.930 . S
H2602 C2590 0.956 . S
H2603 C2590 0.961 . S
H2604 C2590 0.961 . S
H2605 C2591 0.958 . S
H2606 C2591 0.961 . S
H2607 C2591 0.960 . S
C2608 C2609 1.391 . S
C2608 C2610 1.394 . S
C2608 H2624 0.931 . S
C2609 C2608 1.391 . S
C2609 C2613 1.376 . S
C2610 C2608 1.394 . S
C2610 C2611 1.369 . S
C2610 C2614 1.531 . S
C2611 C2610 1.369 . S
C2611 C2612 1.410 . S
C2611 C2619 1.503 . S
C2612 C2611 1.410 . S
C2612 C2613 1.392 . S
C2612 C2615 1.511 . S
C2613 C2609 1.376 . S
C2613 C2612 1.392 . S
C2613 H2625 0.929 . S
C2614 C2610 1.531 . S
C2614 H2626 0.960 . S
C2614 H2627 0.962 . S
C2614 H2628 0.960 . S
C2615 C2612 1.511 . S
C2615 H2629 0.961 . S
C2615 H2630 0.961 . S
C2615 H2631 0.961 . S
C2616 C2617 1.370 . S
C2616 C2618 1.363 . S
C2616 H2632 0.931 . S
C2617 C2616 1.370 . S
C2617 C2621 1.408 . S
C2618 C2616 1.363 . S
C2618 C2619 1.370 . S
C2618 C2622 1.524 . S
C2619 C2611 1.503 . S
C2619 C2618 1.370 . S
C2619 C2620 1.403 . S
C2620 C2619 1.403 . S
C2620 C2621 1.404 . S
C2620 C2623 1.539 . S
C2621 C2617 1.408 . S
C2621 C2620 1.404 . S
C2621 H2633 0.930 . S
C2622 C2618 1.524 . S
C2622 H2634 0.956 . S
C2622 H2635 0.961 . S
C2622 H2636 0.961 . S
C2623 C2620 1.539 . S
C2623 H2637 0.958 . S
C2623 H2638 0.961 . S
C2623 H2639 0.960 . S
H2624 C2608 0.931 . S
H2625 C2613 0.929 . S
H2626 C2614 0.960 . S
H2627 C2614 0.962 . S
H2628 C2614 0.960 . S
H2629 C2615 0.961 . S
H2630 C2615 0.961 . S
H2631 C2615 0.961 . S
H2632 C2616 0.931 . S
H2633 C2621 0.930 . S
H2634 C2622 0.956 . S
H2635 C2622 0.961 . S
H2636 C2622 0.961 . S
H2637 C2623 0.958 . S
H2638 C2623 0.961 . S
H2639 C2623 0.960 . S
C2640 C2641 1.391 . S
C2640 C2642 1.394 . S
C2640 H2656 0.931 . S
C2641 C2640 1.391 . S
C2641 C2645 1.376 . S
C2642 C2640 1.394 . S
C2642 C2643 1.369 . S
C2642 C2646 1.531 . S
C2643 C2642 1.369 . S
C2643 C2644 1.410 . S
C2643 C2651 1.503 . S
C2644 C2643 1.410 . S
C2644 C2645 1.392 . S
C2644 C2647 1.511 . S
C2645 C2641 1.376 . S
C2645 C2644 1.392 . S
C2645 H2657 0.929 . S
C2646 C2642 1.531 . S
C2646 H2658 0.960 . S
C2646 H2659 0.962 . S
C2646 H2660 0.960 . S
C2647 C2644 1.511 . S
C2647 H2661 0.961 . S
C2647 H2662 0.961 . S
C2647 H2663 0.961 . S
C2648 C2649 1.370 . S
C2648 C2650 1.363 . S
C2648 H2664 0.931 . S
C2649 C2648 1.370 . S
C2649 C2653 1.408 . S
C2650 C2648 1.363 . S
C2650 C2651 1.370 . S
C2650 C2654 1.524 . S
C2651 C2643 1.503 . S
C2651 C2650 1.370 . S
C2651 C2652 1.403 . S
C2652 C2651 1.403 . S
C2652 C2653 1.404 . S
C2652 C2655 1.539 . S
C2653 C2649 1.408 . S
C2653 C2652 1.404 . S
C2653 H2665 0.930 1_556 S
C2654 C2650 1.524 . S
C2654 H2666 0.956 . S
C2654 H2667 0.961 . S
C2654 H2668 0.961 . S
C2655 C2652 1.539 . S
C2655 H2669 0.958 . S
C2655 H2670 0.961 . S
C2655 H2671 0.960 . S
H2656 C2640 0.931 . S
H2657 C2645 0.929 . S
H2658 C2646 0.960 . S
H2659 C2646 0.962 . S
H2660 C2646 0.960 . S
H2661 C2647 0.961 . S
H2662 C2647 0.961 . S
H2663 C2647 0.961 . S
H2664 C2648 0.931 . S
H2665 C2653 0.930 1_554 S
H2666 C2654 0.956 . S
H2667 C2654 0.961 . S
H2668 C2654 0.961 . S
H2669 C2655 0.958 . S
H2670 C2655 0.961 . S
H2671 C2655 0.960 . S
C2672 C2673 1.391 . S
C2672 C2674 1.394 . S
C2672 H2688 0.931 . S
C2673 C2672 1.391 . S
C2673 C2677 1.376 . S
C2674 C2672 1.394 . S
C2674 C2675 1.369 . S
C2674 C2678 1.531 . S
C2675 C2674 1.369 . S
C2675 C2676 1.410 . S
C2675 C2683 1.503 . S
C2676 C2675 1.410 . S
C2676 C2677 1.392 . S
C2676 C2679 1.511 . S
C2677 C2673 1.376 . S
C2677 C2676 1.392 . S
C2677 H2689 0.929 . S
C2678 C2674 1.531 . S
C2678 H2690 0.960 . S
C2678 H2691 0.962 . S
C2678 H2692 0.960 . S
C2679 C2676 1.511 . S
C2679 H2693 0.961 . S
C2679 H2694 0.961 . S
C2679 H2695 0.961 . S
C2680 C2681 1.370 . S
C2680 C2682 1.363 . S
C2680 H2696 0.931 . S
C2681 C2680 1.370 . S
C2681 C2685 1.408 . S
C2682 C2680 1.363 . S
C2682 C2683 1.370 . S
C2682 C2686 1.524 . S
C2683 C2675 1.503 . S
C2683 C2682 1.370 . S
C2683 C2684 1.403 . S
C2684 C2683 1.403 . S
C2684 C2685 1.404 . S
C2684 C2687 1.539 . S
C2685 C2681 1.408 . S
C2685 C2684 1.404 . S
C2685 H2697 0.930 . S
C2686 C2682 1.524 . S
C2686 H2698 0.956 . S
C2686 H2699 0.961 . S
C2686 H2700 0.961 . S
C2687 C2684 1.539 . S
C2687 H2701 0.958 . S
C2687 H2702 0.961 . S
C2687 H2703 0.960 . S
H2688 C2672 0.931 . S
H2689 C2677 0.929 . S
H2690 C2678 0.960 . S
H2691 C2678 0.962 . S
H2692 C2678 0.960 . S
H2693 C2679 0.961 . S
H2694 C2679 0.961 . S
H2695 C2679 0.961 . S
H2696 C2680 0.931 . S
H2697 C2685 0.930 . S
H2698 C2686 0.956 . S
H2699 C2686 0.961 . S
H2700 C2686 0.961 . S
H2701 C2687 0.958 . S
H2702 C2687 0.961 . S
H2703 C2687 0.960 . S
C2704 C2705 1.391 . S
C2704 C2706 1.394 . S
C2704 H2720 0.931 . S
C2705 C2704 1.391 . S
C2705 C2709 1.376 . S
C2706 C2704 1.394 . S
C2706 C2707 1.369 . S
C2706 C2710 1.531 . S
C2707 C2706 1.369 . S
C2707 C2708 1.410 . S
C2707 C2715 1.503 . S
C2708 C2707 1.410 . S
C2708 C2709 1.392 . S
C2708 C2711 1.511 . S
C2709 C2705 1.376 . S
C2709 C2708 1.392 . S
C2709 H2721 0.929 . S
C2710 C2706 1.531 . S
C2710 H2722 0.960 . S
C2710 H2723 0.962 . S
C2710 H2724 0.960 . S
C2711 C2708 1.511 . S
C2711 H2725 0.967 . S
C2711 H2726 0.961 . S
C2711 H2727 0.961 . S
C2712 C2713 1.370 . S
C2712 C2714 1.363 . S
C2712 H2728 0.931 . S
C2713 C2712 1.370 . S
C2713 C2717 1.408 . S
C2714 C2712 1.363 . S
C2714 C2715 1.370 . S
C2714 C2718 1.524 . S
C2715 C2707 1.503 . S
C2715 C2714 1.370 . S
C2715 C2716 1.403 . S
C2716 C2715 1.403 . S
C2716 C2717 1.404 . S
C2716 C2719 1.539 . S
C2717 C2713 1.408 . S
C2717 C2716 1.404 . S
C2717 H2729 0.930 . S
C2718 C2714 1.524 . S
C2718 H2730 0.956 . S
C2718 H2731 0.956 1_545 S
C2718 H2732 0.961 1_545 S
C2719 C2716 1.539 . S
C2719 H2733 0.958 . S
C2719 H2734 0.961 . S
C2719 H2735 0.960 . S
H2720 C2704 0.931 . S
H2721 C2709 0.929 . S
H2722 C2710 0.960 . S
H2723 C2710 0.962 . S
H2724 C2710 0.960 . S
H2725 C2711 0.967 . S
H2726 C2711 0.961 . S
H2727 C2711 0.961 . S
H2728 C2712 0.931 . S
H2729 C2717 0.930 . S
H2730 C2718 0.956 . S
H2731 C2718 0.956 1_565 S
H2732 C2718 0.961 1_565 S
H2733 C2719 0.958 . S
H2734 C2719 0.961 . S
H2735 C2719 0.960 . S
C2736 C2737 1.391 . S
C2736 C2738 1.394 . S
C2736 H2752 0.931 . S
C2737 C2736 1.391 . S
C2737 C2741 1.376 . S
C2738 C2736 1.394 . S
C2738 C2739 1.369 . S
C2738 C2742 1.531 . S
C2739 C2738 1.369 . S
C2739 C2740 1.410 . S
C2739 C2747 1.503 . S
C2740 C2739 1.410 . S
C2740 C2741 1.392 . S
C2740 C2743 1.511 . S
C2741 C2737 1.376 . S
C2741 C2740 1.392 . S
C2741 H2753 0.929 . S
C2742 C2738 1.531 . S
C2742 H2754 0.960 . S
C2742 H2755 0.962 . S
C2742 H2756 0.960 . S
C2743 C2740 1.511 . S
C2743 H2757 0.961 . S
C2743 H2758 0.961 . S
C2743 H2759 0.961 . S
C2744 C2745 1.370 . S
C2744 C2746 1.363 . S
C2744 H2760 0.931 . S
C2745 C2744 1.370 . S
C2745 C2749 1.408 . S
C2746 C2744 1.363 . S
C2746 C2747 1.370 . S
C2746 C2750 1.524 . S
C2747 C2739 1.503 . S
C2747 C2746 1.370 . S
C2747 C2748 1.403 . S
C2748 C2747 1.403 . S
C2748 C2749 1.404 . S
C2748 C2751 1.539 . S
C2749 C2745 1.408 . S
C2749 C2748 1.404 . S
C2749 H2761 0.930 . S
C2750 C2746 1.524 . S
C2750 H2762 0.956 . S
C2750 H2763 0.961 . S
C2750 H2764 0.961 . S
C2751 C2748 1.539 . S
C2751 H2765 0.958 . S
C2751 H2766 0.961 . S
C2751 H2767 0.960 . S
H2752 C2736 0.931 . S
H2753 C2741 0.929 . S
H2754 C2742 0.960 . S
H2755 C2742 0.962 . S
H2756 C2742 0.960 . S
H2757 C2743 0.961 . S
H2758 C2743 0.961 . S
H2759 C2743 0.961 . S
H2760 C2744 0.931 . S
H2761 C2749 0.930 . S
H2762 C2750 0.956 . S
H2763 C2750 0.961 . S
H2764 C2750 0.961 . S
H2765 C2751 0.958 . S
H2766 C2751 0.961 . S
H2767 C2751 0.960 . S
C2768 C2769 1.391 . S
C2768 C2770 1.394 . S
C2768 H2784 0.931 . S
C2769 C2768 1.391 . S
C2769 C2773 1.376 1_545 S
C2770 C2768 1.394 . S
C2770 C2771 1.369 . S
C2770 C2774 1.531 . S
C2771 C2770 1.369 . S
C2771 C2772 1.410 . S
C2771 C2779 1.503 . S
C2772 C2771 1.410 . S
C2772 C2773 1.392 1_545 S
C2772 C2775 1.511 1_545 S
C2773 C2769 1.376 1_565 S
C2773 C2772 1.392 1_565 S
C2773 H2785 0.929 . S
C2774 C2770 1.531 . S
C2774 H2786 0.960 . S
C2774 H2787 0.962 . S
C2774 H2788 0.960 . S
C2775 C2772 1.511 1_565 S
C2775 H2789 0.961 . S
C2775 H2790 0.961 . S
C2775 H2791 0.961 . S
C2776 C2777 1.370 . S
C2776 C2778 1.363 . S
C2776 H2792 0.931 . S
C2777 C2776 1.370 . S
C2777 C2781 1.408 . S
C2778 C2776 1.363 . S
C2778 C2779 1.370 . S
C2778 C2782 1.524 1_545 S
C2779 C2771 1.503 . S
C2779 C2778 1.370 . S
C2779 C2780 1.403 . S
C2780 C2779 1.403 . S
C2780 C2781 1.404 . S
C2780 C2783 1.539 . S
C2781 C2777 1.408 . S
C2781 C2780 1.404 . S
C2781 H2793 0.930 . S
C2782 C2778 1.524 1_565 S
C2782 H2794 0.968 . S
C2782 H2795 0.961 . S
C2782 H2796 0.961 . S
C2783 C2780 1.539 . S
C2783 H2797 0.958 . S
C2783 H2798 0.961 . S
C2783 H2799 0.960 . S
H2784 C2768 0.931 . S
H2785 C2773 0.929 . S
H2786 C2774 0.960 . S
H2787 C2774 0.962 . S
H2788 C2774 0.960 . S
H2789 C2775 0.961 . S
H2790 C2775 0.961 . S
H2791 C2775 0.961 . S
H2792 C2776 0.931 . S
H2793 C2781 0.930 . S
H2794 C2782 0.968 . S
H2795 C2782 0.961 . S
H2796 C2782 0.961 . S
H2797 C2783 0.958 . S
H2798 C2783 0.961 . S
H2799 C2783 0.960 . S
C2800 C2801 1.391 . S
C2800 C2802 1.394 . S
C2800 H2816 0.931 . S
C2801 C2800 1.391 . S
C2801 C2805 1.376 . S
C2802 C2800 1.394 . S
C2802 C2803 1.369 . S
C2802 C2806 1.531 . S
C2803 C2802 1.369 . S
C2803 C2804 1.410 . S
C2803 C2811 1.503 . S
C2804 C2803 1.410 . S
C2804 C2805 1.392 . S
C2804 C2807 1.511 . S
C2805 C2801 1.376 . S
C2805 C2804 1.392 . S
C2805 H2817 0.929 . S
C2806 C2802 1.531 . S
C2806 H2818 0.960 . S
C2806 H2819 0.962 . S
C2806 H2820 0.960 . S
C2807 C2804 1.511 . S
C2807 H2821 0.961 . S
C2807 H2822 0.961 . S
C2807 H2823 0.961 . S
C2808 C2809 1.370 . S
C2808 C2810 1.363 . S
C2808 H2824 0.931 . S
C2809 C2808 1.370 . S
C2809 C2813 1.408 . S
C2810 C2808 1.363 . S
C2810 C2811 1.370 . S
C2810 C2814 1.524 . S
C2811 C2803 1.503 . S
C2811 C2810 1.370 . S
C2811 C2812 1.403 . S
C2812 C2811 1.403 . S
C2812 C2813 1.404 . S
C2812 C2815 1.539 . S
C2813 C2809 1.408 . S
C2813 C2812 1.404 . S
C2813 H2825 0.930 . S
C2814 C2810 1.524 . S
C2814 H2826 0.956 . S
C2814 H2827 0.961 . S
C2814 H2828 0.961 . S
C2815 C2812 1.539 . S
C2815 H2829 0.958 . S
C2815 H2830 0.961 . S
C2815 H2831 0.960 . S
H2816 C2800 0.931 . S
H2817 C2805 0.929 . S
H2818 C2806 0.960 . S
H2819 C2806 0.962 . S
H2820 C2806 0.960 . S
H2821 C2807 0.961 . S
H2822 C2807 0.961 . S
H2823 C2807 0.961 . S
H2824 C2808 0.931 . S
H2825 C2813 0.930 . S
H2826 C2814 0.956 . S
H2827 C2814 0.961 . S
H2828 C2814 0.961 . S
H2829 C2815 0.958 . S
H2830 C2815 0.961 . S
H2831 C2815 0.960 . S
C2832 C2833 1.391 . S
C2832 C2834 1.394 . S
C2832 H2848 0.931 . S
C2833 C2832 1.391 . S
C2833 C2837 1.376 . S
C2834 C2832 1.394 . S
C2834 C2835 1.369 . S
C2834 C2838 1.531 1_545 S
C2835 C2834 1.369 . S
C2835 C2836 1.410 . S
C2835 C2843 1.503 . S
C2836 C2835 1.410 . S
C2836 C2837 1.392 . S
C2836 C2839 1.511 . S
C2837 C2833 1.376 . S
C2837 C2836 1.392 . S
C2837 H2849 0.929 . S
C2838 C2834 1.531 1_565 S
C2838 H2850 0.960 . S
C2838 H2851 0.962 . S
C2838 H2852 0.960 . S
C2839 C2836 1.511 . S
C2839 H2853 0.961 . S
C2839 H2854 0.961 . S
C2839 H2855 0.961 . S
C2840 C2841 1.370 . S
C2840 C2842 1.363 . S
C2840 H2856 0.931 . S
C2841 C2840 1.370 . S
C2841 C2845 1.408 . S
C2842 C2840 1.363 . S
C2842 C2843 1.370 . S
C2842 C2846 1.524 . S
C2843 C2835 1.503 . S
C2843 C2842 1.370 . S
C2843 C2844 1.403 . S
C2844 C2843 1.403 . S
C2844 C2845 1.404 . S
C2844 C2847 1.539 . S
C2845 C2841 1.408 . S
C2845 C2844 1.404 . S
C2845 H2857 0.930 . S
C2846 C2842 1.524 . S
C2846 H2858 0.956 . S
C2846 H2859 0.961 . S
C2846 H2860 0.961 . S
C2847 C2844 1.539 . S
C2847 H2861 0.958 . S
C2847 H2862 0.961 . S
C2847 H2863 0.960 . S
H2848 C2832 0.931 . S
H2849 C2837 0.929 . S
H2850 C2838 0.960 . S
H2851 C2838 0.962 . S
H2852 C2838 0.960 . S
H2853 C2839 0.961 . S
H2854 C2839 0.961 . S
H2855 C2839 0.961 . S
H2856 C2840 0.931 . S
H2857 C2845 0.930 . S
H2858 C2846 0.956 . S
H2859 C2846 0.961 . S
H2860 C2846 0.961 . S
H2861 C2847 0.958 . S
H2862 C2847 0.961 . S
H2863 C2847 0.960 . S
C2864 C2865 1.391 . S
C2864 C2866 1.394 . S
C2864 H2880 0.931 . S
C2865 C2864 1.391 . S
C2865 C2869 1.376 . S
C2866 C2864 1.394 . S
C2866 C2867 1.369 . S
C2866 C2870 1.531 . S
C2867 C2866 1.369 . S
C2867 C2868 1.410 . S
C2867 C2875 1.503 . S
C2868 C2867 1.410 . S
C2868 C2869 1.392 . S
C2868 C2871 1.511 . S
C2869 C2865 1.376 . S
C2869 C2868 1.392 . S
C2869 H2881 0.929 . S
C2870 C2866 1.531 . S
C2870 H2882 0.960 . S
C2870 H2883 0.962 . S
C2870 H2884 0.960 . S
C2871 C2868 1.511 . S
C2871 H2885 0.961 . S
C2871 H2886 0.961 . S
C2871 H2887 0.961 . S
C2872 C2873 1.370 . S
C2872 C2874 1.363 . S
C2872 H2888 0.931 . S
C2873 C2872 1.370 . S
C2873 C2877 1.408 . S
C2874 C2872 1.363 . S
C2874 C2875 1.370 . S
C2874 C2878 1.524 . S
C2875 C2867 1.503 . S
C2875 C2874 1.370 . S
C2875 C2876 1.403 . S
C2876 C2875 1.403 . S
C2876 C2877 1.404 . S
C2876 C2879 1.539 . S
C2877 C2873 1.408 . S
C2877 C2876 1.404 . S
C2877 H2889 0.930 . S
C2878 C2874 1.524 . S
C2878 H2890 0.956 . S
C2878 H2891 0.961 . S
C2878 H2892 0.961 . S
C2879 C2876 1.539 . S
C2879 H2893 0.958 . S
C2879 H2894 0.961 . S
C2879 H2895 0.960 . S
H2880 C2864 0.931 . S
H2881 C2869 0.929 . S
H2882 C2870 0.960 . S
H2883 C2870 0.962 . S
H2884 C2870 0.960 . S
H2885 C2871 0.961 . S
H2886 C2871 0.961 . S
H2887 C2871 0.961 . S
H2888 C2872 0.931 . S
H2889 C2877 0.930 . S
H2890 C2878 0.956 . S
H2891 C2878 0.961 . S
H2892 C2878 0.961 . S
H2893 C2879 0.958 . S
H2894 C2879 0.961 . S
H2895 C2879 0.960 . S
C2896 C2897 1.391 . S
C2896 C2898 1.394 . S
C2896 H2912 0.931 . S
C2897 C2896 1.391 . S
C2897 C2901 1.376 . S
C2898 C2896 1.394 . S
C2898 C2899 1.369 . S
C2898 C2902 1.531 . S
C2899 C2898 1.369 . S
C2899 C2900 1.410 . S
C2899 C2907 1.503 . S
C2900 C2899 1.410 . S
C2900 C2901 1.392 . S
C2900 C2903 1.528 . S
C2901 C2897 1.376 . S
C2901 C2900 1.392 . S
C2901 H2913 0.929 1_545 S
C2902 C2898 1.531 . S
C2902 H2914 0.960 . S
C2902 H2915 0.962 . S
C2902 H2916 0.960 . S
C2903 C2900 1.528 . S
C2903 H2917 0.931 1_545 S
C2903 H2918 0.952 1_545 S
C2903 H2919 0.984 . S
C2904 C2905 1.370 1_565 S
C2904 C2906 1.363 . S
C2904 H2920 0.931 . S
C2905 C2904 1.370 1_545 S
C2905 C2909 1.408 . S
C2906 C2904 1.363 . S
C2906 C2907 1.370 1_565 S
C2906 C2910 1.524 . S
C2907 C2899 1.503 . S
C2907 C2906 1.370 1_545 S
C2907 C2908 1.403 . S
C2908 C2907 1.403 . S
C2908 C2909 1.404 . S
C2908 C2911 1.539 . S
C2909 C2905 1.408 . S
C2909 C2908 1.404 . S
C2909 H2921 0.930 . S
C2910 C2906 1.524 . S
C2910 H2922 0.956 . S
C2910 H2923 0.961 . S
C2910 H2924 0.961 . S
C2911 C2908 1.539 . S
C2911 H2925 0.958 . S
C2911 H2926 0.961 . S
C2911 H2927 0.960 . S
H2912 C2896 0.931 . S
H2913 C2901 0.929 1_565 S
H2914 C2902 0.960 . S
H2915 C2902 0.962 . S
H2916 C2902 0.960 . S
H2917 C2903 0.931 1_565 S
H2918 C2903 0.952 1_565 S
H2919 C2903 0.984 . S
H2920 C2904 0.931 . S
H2921 C2909 0.930 . S
H2922 C2910 0.956 . S
H2923 C2910 0.961 . S
H2924 C2910 0.961 . S
H2925 C2911 0.958 . S
H2926 C2911 0.961 . S
H2927 C2911 0.960 . S
C2928 C2929 1.391 . S
C2928 C2930 1.394 . S
C2928 H2944 0.931 . S
C2929 C2928 1.391 . S
C2929 C2933 1.376 . S
C2930 C2928 1.394 . S
C2930 C2931 1.369 . S
C2930 C2934 1.531 . S
C2931 C2930 1.369 . S
C2931 C2932 1.410 . S
C2931 C2939 1.503 . S
C2932 C2931 1.410 . S
C2932 C2933 1.392 . S
C2932 C2935 1.511 . S
C2933 C2929 1.376 . S
C2933 C2932 1.392 . S
C2933 H2945 0.929 . S
C2934 C2930 1.531 . S
C2934 H2946 0.960 . S
C2934 H2947 0.962 . S
C2934 H2948 0.960 . S
C2935 C2932 1.511 . S
C2935 H2949 0.961 . S
C2935 H2950 0.961 . S
C2935 H2951 0.961 . S
C2936 C2937 1.370 . S
C2936 C2938 1.363 . S
C2936 H2952 0.931 . S
C2937 C2936 1.370 . S
C2937 C2941 1.408 . S
C2938 C2936 1.363 . S
C2938 C2939 1.370 . S
C2938 C2942 1.524 . S
C2939 C2931 1.503 . S
C2939 C2938 1.370 . S
C2939 C2940 1.403 . S
C2940 C2939 1.403 . S
C2940 C2941 1.404 . S
C2940 C2943 1.539 . S
C2941 C2937 1.408 . S
C2941 C2940 1.404 . S
C2941 H2953 0.930 . S
C2942 C2938 1.524 . S
C2942 H2954 0.956 . S
C2942 H2955 0.961 . S
C2942 H2956 0.961 . S
C2943 C2940 1.539 . S
C2943 H2957 0.958 . S
C2943 H2958 0.961 . S
C2943 H2959 0.960 . S
H2944 C2928 0.931 . S
H2945 C2933 0.929 . S
H2946 C2934 0.960 . S
H2947 C2934 0.962 . S
H2948 C2934 0.960 . S
H2949 C2935 0.961 . S
H2950 C2935 0.961 . S
H2951 C2935 0.961 . S
H2952 C2936 0.931 . S
H2953 C2941 0.930 . S
H2954 C2942 0.956 . S
H2955 C2942 0.961 . S
H2956 C2942 0.961 . S
H2957 C2943 0.958 . S
H2958 C2943 0.961 . S
H2959 C2943 0.960 . S
C2960 C2961 1.391 . S
C2960 C2962 1.394 . S
C2960 H2976 0.931 . S
C2961 C2960 1.391 . S
C2961 C2965 1.376 . S
C2962 C2960 1.394 . S
C2962 C2963 1.369 . S
C2962 C2966 1.531 . S
C2963 C2962 1.369 . S
C2963 C2964 1.410 . S
C2963 C2971 1.503 . S
C2964 C2963 1.410 . S
C2964 C2965 1.392 . S
C2964 C2967 1.511 . S
C2965 C2961 1.376 . S
C2965 C2964 1.392 . S
C2965 H2977 0.929 . S
C2966 C2962 1.531 . S
C2966 H2978 0.960 . S
C2966 H2979 0.962 . S
C2966 H2980 0.960 . S
C2967 C2964 1.511 . S
C2967 H2981 0.961 . S
C2967 H2982 0.961 . S
C2967 H2983 0.961 1_554 S
C2968 C2969 1.370 . S
C2968 C2970 1.363 . S
C2968 H2984 0.931 . S
C2969 C2968 1.370 . S
C2969 C2973 1.408 . S
C2970 C2968 1.363 . S
C2970 C2971 1.370 . S
C2970 C2974 1.524 . S
C2971 C2963 1.503 . S
C2971 C2970 1.370 . S
C2971 C2972 1.403 . S
C2972 C2971 1.403 . S
C2972 C2973 1.404 . S
C2972 C2975 1.539 . S
C2973 C2969 1.408 . S
C2973 C2972 1.404 . S
C2973 H2985 0.930 . S
C2974 C2970 1.524 . S
C2974 H2986 0.956 . S
C2974 H2987 0.961 . S
C2974 H2988 0.961 . S
C2975 C2972 1.539 . S
C2975 H2989 0.958 . S
C2975 H2990 0.961 1_554 S
C2975 H2991 0.960 . S
H2976 C2960 0.931 . S
H2977 C2965 0.929 . S
H2978 C2966 0.960 . S
H2979 C2966 0.962 . S
H2980 C2966 0.960 . S
H2981 C2967 0.961 . S
H2982 C2967 0.961 . S
H2983 C2967 0.961 1_556 S
H2984 C2968 0.931 . S
H2985 C2973 0.930 . S
H2986 C2974 0.956 . S
H2987 C2974 0.961 . S
H2988 C2974 0.961 . S
H2989 C2975 0.958 . S
H2990 C2975 0.961 1_556 S
H2991 C2975 0.960 . S
C2992 C2993 1.391 . S
C2992 C2994 1.394 . S
C2992 H3008 0.931 . S
C2993 C2992 1.391 . S
C2993 C2997 1.376 . S
C2994 C2992 1.394 . S
C2994 C2995 1.369 . S
C2994 C2998 1.531 . S
C2995 C2994 1.369 . S
C2995 C2996 1.410 . S
C2995 C3003 1.503 . S
C2996 C2995 1.410 . S
C2996 C2997 1.392 . S
C2996 C2999 1.511 . S
C2997 C2993 1.376 . S
C2997 C2996 1.392 . S
C2997 H3009 0.929 . S
C2998 C2994 1.531 . S
C2998 H3010 0.960 . S
C2998 H3011 0.962 . S
C2998 H3012 0.960 . S
C2999 C2996 1.511 . S
C2999 H3013 0.961 . S
C2999 H3014 0.961 . S
C2999 H3015 0.961 . S
C3000 C3001 1.370 . S
C3000 C3002 1.363 . S
C3000 H3016 0.931 . S
C3001 C3000 1.370 . S
C3001 C3005 1.408 . S
C3002 C3000 1.363 . S
C3002 C3003 1.370 . S
C3002 C3006 1.524 . S
C3003 C2995 1.503 . S
C3003 C3002 1.370 . S
C3003 C3004 1.403 . S
C3004 C3003 1.403 . S
C3004 C3005 1.404 . S
C3004 C3007 1.539 1_554 S
C3005 C3001 1.408 . S
C3005 C3004 1.404 . S
C3005 H3017 0.930 1_554 S
C3006 C3002 1.524 . S
C3006 H3018 0.956 . S
C3006 H3019 0.961 . S
C3006 H3020 0.961 . S
C3007 C3004 1.539 1_556 S
C3007 H3021 0.958 . S
C3007 H3022 0.961 . S
C3007 H3023 0.960 . S
H3008 C2992 0.931 . S
H3009 C2997 0.929 . S
H3010 C2998 0.960 . S
H3011 C2998 0.962 . S
H3012 C2998 0.960 . S
H3013 C2999 0.961 . S
H3014 C2999 0.961 . S
H3015 C2999 0.961 . S
H3016 C3000 0.931 . S
H3017 C3005 0.930 1_556 S
H3018 C3006 0.956 . S
H3019 C3006 0.961 . S
H3020 C3006 0.961 . S
H3021 C3007 0.958 . S
H3022 C3007 0.961 . S
H3023 C3007 0.960 . S
C3024 C3025 1.391 . S
C3024 C3026 1.394 . S
C3024 H3040 0.931 . S
C3025 C3024 1.391 . S
C3025 C3029 1.376 . S
C3026 C3024 1.394 . S
C3026 C3027 1.369 . S
C3026 C3030 1.531 . S
C3027 C3026 1.369 . S
C3027 C3028 1.410 . S
C3027 C3035 1.503 . S
C3028 C3027 1.410 . S
C3028 C3029 1.392 . S
C3028 C3031 1.511 . S
C3029 C3025 1.376 . S
C3029 C3028 1.392 . S
C3029 H3041 0.929 . S
C3030 C3026 1.531 . S
C3030 H3042 0.960 . S
C3030 H3043 0.962 . S
C3030 H3044 0.960 . S
C3031 C3028 1.511 . S
C3031 H3045 0.961 . S
C3031 H3046 0.961 . S
C3031 H3047 0.961 . S
C3032 C3033 1.370 . S
C3032 C3034 1.363 . S
C3032 H3048 0.931 . S
C3033 C3032 1.370 . S
C3033 C3037 1.408 . S
C3034 C3032 1.363 . S
C3034 C3035 1.370 . S
C3034 C3038 1.524 . S
C3035 C3027 1.503 . S
C3035 C3034 1.370 . S
C3035 C3036 1.403 . S
C3036 C3035 1.403 . S
C3036 C3037 1.404 . S
C3036 C3039 1.539 . S
C3037 C3033 1.408 . S
C3037 C3036 1.404 . S
C3037 H3049 0.930 . S
C3038 C3034 1.524 . S
C3038 H3050 0.956 . S
C3038 H3051 0.961 . S
C3038 H3052 0.961 . S
C3039 C3036 1.539 . S
C3039 H3053 0.958 . S
C3039 H3054 0.961 . S
C3039 H3055 0.960 . S
H3040 C3024 0.931 . S
H3041 C3029 0.929 . S
H3042 C3030 0.960 . S
H3043 C3030 0.962 . S
H3044 C3030 0.960 . S
H3045 C3031 0.961 . S
H3046 C3031 0.961 . S
H3047 C3031 0.961 . S
H3048 C3032 0.931 . S
H3049 C3037 0.930 . S
H3050 C3038 0.956 . S
H3051 C3038 0.961 . S
H3052 C3038 0.961 . S
H3053 C3039 0.958 . S
H3054 C3039 0.961 . S
H3055 C3039 0.960 . S
C3056 C3057 1.391 . S
C3056 C3058 1.394 . S
C3056 H3072 0.931 . S
C3057 C3056 1.391 . S
C3057 C3061 1.376 . S
C3058 C3056 1.394 . S
C3058 C3059 1.369 . S
C3058 C3062 1.531 . S
C3059 C3058 1.369 . S
C3059 C3060 1.410 . S
C3059 C3067 1.503 . S
C3060 C3059 1.410 . S
C3060 C3061 1.392 . S
C3060 C3063 1.511 . S
C3061 C3057 1.376 . S
C3061 C3060 1.392 . S
C3061 H3073 0.929 . S
C3062 C3058 1.531 . S
C3062 H3074 0.960 . S
C3062 H3075 0.962 . S
C3062 H3076 0.960 . S
C3063 C3060 1.511 . S
C3063 H3077 0.961 . S
C3063 H3078 0.961 . S
C3063 H3079 0.961 . S
C3064 C3065 1.370 . S
C3064 C3066 1.363 . S
C3064 H3080 0.931 . S
C3065 C3064 1.370 . S
C3065 C3069 1.408 . S
C3066 C3064 1.363 . S
C3066 C3067 1.370 . S
C3066 C3070 1.524 . S
C3067 C3059 1.503 . S
C3067 C3066 1.370 . S
C3067 C3068 1.403 . S
C3068 C3067 1.403 . S
C3068 C3069 1.404 . S
C3068 C3071 1.539 . S
C3069 C3065 1.408 . S
C3069 C3068 1.404 . S
C3069 H3081 0.930 . S
C3070 C3066 1.524 . S
C3070 H3082 0.956 . S
C3070 H3083 0.961 . S
C3070 H3084 0.961 . S
C3071 C3068 1.539 . S
C3071 H3085 0.958 . S
C3071 H3086 0.961 . S
C3071 H3087 0.960 . S
H3072 C3056 0.931 . S
H3073 C3061 0.929 . S
H3074 C3062 0.960 . S
H3075 C3062 0.962 . S
H3076 C3062 0.960 . S
H3077 C3063 0.961 . S
H3078 C3063 0.961 . S
H3079 C3063 0.961 . S
H3080 C3064 0.931 . S
H3081 C3069 0.930 . S
H3082 C3070 0.956 . S
H3083 C3070 0.961 . S
H3084 C3070 0.961 . S
H3085 C3071 0.958 . S
H3086 C3071 0.961 . S
H3087 C3071 0.960 . S
C3088 C3089 1.391 1_565 S
C3088 C3090 1.394 . S
C3088 H3104 0.931 . S
C3089 C3088 1.391 1_545 S
C3089 C3093 1.376 1_545 S
C3090 C3088 1.394 . S
C3090 C3091 1.369 . S
C3090 C3094 1.531 . S
C3091 C3090 1.369 . S
C3091 C3092 1.410 . S
C3091 C3099 1.503 . S
C3092 C3091 1.410 . S
C3092 C3093 1.393 . S
C3092 C3095 1.511 . S
C3093 C3089 1.376 1_565 S
C3093 C3092 1.393 . S
C3093 H3105 0.929 1_565 S
C3094 C3090 1.531 . S
C3094 H3106 0.960 . S
C3094 H3107 0.962 . S
C3094 H3108 0.960 . S
C3095 C3092 1.511 . S
C3095 H3109 0.961 . S
C3095 H3110 0.961 . S
C3095 H3111 0.961 . S
C3096 C3097 1.370 . S
C3096 C3098 1.363 . S
C3096 H3112 0.931 . S
C3097 C3096 1.370 . S
C3097 C3101 1.408 . S
C3098 C3096 1.363 . S
C3098 C3099 1.370 . S
C3098 C3102 1.524 . S
C3099 C3091 1.503 . S
C3099 C3098 1.370 . S
C3099 C3100 1.403 . S
C3100 C3099 1.403 . S
C3100 C3101 1.404 . S
C3100 C3103 1.539 . S
C3101 C3097 1.408 . S
C3101 C3100 1.404 . S
C3101 H3113 0.930 . S
C3102 C3098 1.524 . S
C3102 H3114 0.956 . S
C3102 H3115 0.961 . S
C3102 H3116 0.961 . S
C3103 C3100 1.539 . S
C3103 H3117 0.958 . S
C3103 H3118 0.961 . S
C3103 H3119 0.960 . S
H3104 C3088 0.931 . S
H3105 C3093 0.929 1_545 S
H3106 C3094 0.960 . S
H3107 C3094 0.962 . S
H3108 C3094 0.960 . S
H3109 C3095 0.961 . S
H3110 C3095 0.961 . S
H3111 C3095 0.961 . S
H3112 C3096 0.931 . S
H3113 C3101 0.930 . S
H3114 C3102 0.956 . S
H3115 C3102 0.961 . S
H3116 C3102 0.961 . S
H3117 C3103 0.958 . S
H3118 C3103 0.961 . S
H3119 C3103 0.960 . S
C3120 C3121 1.391 . S
C3120 C3122 1.394 . S
C3120 H3136 0.931 . S
C3121 C3120 1.391 . S
C3121 C3125 1.376 . S
C3122 C3120 1.394 . S
C3122 C3123 1.369 . S
C3122 C3126 1.531 . S
C3123 C3122 1.369 . S
C3123 C3124 1.410 . S
C3123 C3131 1.503 . S
C3124 C3123 1.410 . S
C3124 C3125 1.392 . S
C3124 C3127 1.511 . S
C3125 C3121 1.376 . S
C3125 C3124 1.392 . S
C3125 H3137 0.929 . S
C3126 C3122 1.531 . S
C3126 H3138 0.960 . S
C3126 H3139 0.962 . S
C3126 H3140 0.960 . S
C3127 C3124 1.511 . S
C3127 H3141 0.961 . S
C3127 H3142 0.961 . S
C3127 H3143 0.961 . S
C3128 C3129 1.370 . S
C3128 C3130 1.363 . S
C3128 H3144 0.931 . S
C3129 C3128 1.370 . S
C3129 C3133 1.408 . S
C3130 C3128 1.363 . S
C3130 C3131 1.370 . S
C3130 C3134 1.524 . S
C3131 C3123 1.503 . S
C3131 C3130 1.370 . S
C3131 C3132 1.403 . S
C3132 C3131 1.403 . S
C3132 C3133 1.404 . S
C3132 C3135 1.539 . S
C3133 C3129 1.408 . S
C3133 C3132 1.404 . S
C3133 H3145 0.930 . S
C3134 C3130 1.524 . S
C3134 H3146 0.956 . S
C3134 H3147 0.961 . S
C3134 H3148 0.961 . S
C3135 C3132 1.539 . S
C3135 H3149 0.958 . S
C3135 H3150 0.961 . S
C3135 H3151 0.960 . S
H3136 C3120 0.931 . S
H3137 C3125 0.929 . S
H3138 C3126 0.960 . S
H3139 C3126 0.962 . S
H3140 C3126 0.960 . S
H3141 C3127 0.961 . S
H3142 C3127 0.961 . S
H3143 C3127 0.961 . S
H3144 C3128 0.931 . S
H3145 C3133 0.930 . S
H3146 C3134 0.956 . S
H3147 C3134 0.961 . S
H3148 C3134 0.961 . S
H3149 C3135 0.958 . S
H3150 C3135 0.961 . S
H3151 C3135 0.960 . S
C3152 C3153 1.391 . S
C3152 C3154 1.394 . S
C3152 H3168 0.931 . S
C3153 C3152 1.391 . S
C3153 C3157 1.376 . S
C3154 C3152 1.394 . S
C3154 C3155 1.369 . S
C3154 C3158 1.531 . S
C3155 C3154 1.369 . S
C3155 C3156 1.410 . S
C3155 C3163 1.503 . S
C3156 C3155 1.410 . S
C3156 C3157 1.392 . S
C3156 C3159 1.511 . S
C3157 C3153 1.376 . S
C3157 C3156 1.392 . S
C3157 H3169 0.929 . S
C3158 C3154 1.531 . S
C3158 H3170 0.960 . S
C3158 H3171 0.962 . S
C3158 H3172 0.960 . S
C3159 C3156 1.511 . S
C3159 H3173 0.961 . S
C3159 H3174 0.961 . S
C3159 H3175 0.961 . S
C3160 C3161 1.370 . S
C3160 C3162 1.363 . S
C3160 H3176 0.931 . S
C3161 C3160 1.370 . S
C3161 C3165 1.408 . S
C3162 C3160 1.363 . S
C3162 C3163 1.370 . S
C3162 C3166 1.524 . S
C3163 C3155 1.503 . S
C3163 C3162 1.370 . S
C3163 C3164 1.403 . S
C3164 C3163 1.403 . S
C3164 C3165 1.404 . S
C3164 C3167 1.539 . S
C3165 C3161 1.408 . S
C3165 C3164 1.404 . S
C3165 H3177 0.930 . S
C3166 C3162 1.524 . S
C3166 H3178 0.956 . S
C3166 H3179 0.961 . S
C3166 H3180 0.961 . S
C3167 C3164 1.539 . S
C3167 H3181 0.958 . S
C3167 H3182 0.961 . S
C3167 H3183 0.960 . S
H3168 C3152 0.931 . S
H3169 C3157 0.929 . S
H3170 C3158 0.960 . S
H3171 C3158 0.962 . S
H3172 C3158 0.960 . S
H3173 C3159 0.961 . S
H3174 C3159 0.961 . S
H3175 C3159 0.961 . S
H3176 C3160 0.931 . S
H3177 C3165 0.930 . S
H3178 C3166 0.956 . S
H3179 C3166 0.961 . S
H3180 C3166 0.961 . S
H3181 C3167 0.958 . S
H3182 C3167 0.961 . S
H3183 C3167 0.960 . S
C3184 C3185 1.391 . S
C3184 C3186 1.394 . S
C3184 H3200 0.931 . S
C3185 C3184 1.391 . S
C3185 C3189 1.376 . S
C3186 C3184 1.394 . S
C3186 C3187 1.369 . S
C3186 C3190 1.531 . S
C3187 C3186 1.369 . S
C3187 C3188 1.410 . S
C3187 C3195 1.503 . S
C3188 C3187 1.410 . S
C3188 C3189 1.392 . S
C3188 C3191 1.511 . S
C3189 C3185 1.376 . S
C3189 C3188 1.392 . S
C3189 H3201 0.929 . S
C3190 C3186 1.531 . S
C3190 H3202 0.960 . S
C3190 H3203 0.962 . S
C3190 H3204 0.960 . S
C3191 C3188 1.511 . S
C3191 H3205 0.961 . S
C3191 H3206 0.961 . S
C3191 H3207 0.961 . S
C3192 C3193 1.370 . S
C3192 C3194 1.363 . S
C3192 H3208 0.931 . S
C3193 C3192 1.370 . S
C3193 C3197 1.408 . S
C3194 C3192 1.363 . S
C3194 C3195 1.370 . S
C3194 C3198 1.524 . S
C3195 C3187 1.503 . S
C3195 C3194 1.370 . S
C3195 C3196 1.403 . S
C3196 C3195 1.403 . S
C3196 C3197 1.404 . S
C3196 C3199 1.539 . S
C3197 C3193 1.408 . S
C3197 C3196 1.404 . S
C3197 H3209 0.930 . S
C3198 C3194 1.524 . S
C3198 H3210 0.956 . S
C3198 H3211 0.961 . S
C3198 H3212 0.961 . S
C3199 C3196 1.539 . S
C3199 H3213 0.958 . S
C3199 H3214 0.961 . S
C3199 H3215 0.960 . S
H3200 C3184 0.931 . S
H3201 C3189 0.929 . S
H3202 C3190 0.960 . S
H3203 C3190 0.962 . S
H3204 C3190 0.960 . S
H3205 C3191 0.961 . S
H3206 C3191 0.961 . S
H3207 C3191 0.961 . S
H3208 C3192 0.931 . S
H3209 C3197 0.930 . S
H3210 C3198 0.956 . S
H3211 C3198 0.961 . S
H3212 C3198 0.961 . S
H3213 C3199 0.958 . S
H3214 C3199 0.961 . S
H3215 C3199 0.960 . S
C3216 C3217 1.391 . S
C3216 C3218 1.394 . S
C3216 H3232 0.931 . S
C3217 C3216 1.391 . S
C3217 C3221 1.376 . S
C3218 C3216 1.394 . S
C3218 C3219 1.369 . S
C3218 C3222 1.531 . S
C3219 C3218 1.369 . S
C3219 C3220 1.410 . S
C3219 C3227 1.503 . S
C3220 C3219 1.410 . S
C3220 C3221 1.392 . S
C3220 C3223 1.511 . S
C3221 C3217 1.376 . S
C3221 C3220 1.392 . S
C3221 H3233 0.929 . S
C3222 C3218 1.531 . S
C3222 H3234 0.960 . S
C3222 H3235 0.962 . S
C3222 H3236 0.960 . S
C3223 C3220 1.511 . S
C3223 H3237 0.961 . S
C3223 H3238 0.961 . S
C3223 H3239 0.961 . S
C3224 C3225 1.370 . S
C3224 C3226 1.363 . S
C3224 H3240 0.931 . S
C3225 C3224 1.370 . S
C3225 C3229 1.408 . S
C3226 C3224 1.363 . S
C3226 C3227 1.370 . S
C3226 C3230 1.524 . S
C3227 C3219 1.503 . S
C3227 C3226 1.370 . S
C3227 C3228 1.403 . S
C3228 C3227 1.403 . S
C3228 C3229 1.404 . S
C3228 C3231 1.539 . S
C3229 C3225 1.408 . S
C3229 C3228 1.404 . S
C3229 H3241 0.930 . S
C3230 C3226 1.524 . S
C3230 H3242 0.956 . S
C3230 H3243 0.961 . S
C3230 H3244 0.961 . S
C3231 C3228 1.539 . S
C3231 H3245 0.958 . S
C3231 H3246 0.961 . S
C3231 H3247 0.960 . S
H3232 C3216 0.931 . S
H3233 C3221 0.929 . S
H3234 C3222 0.960 . S
H3235 C3222 0.962 . S
H3236 C3222 0.960 . S
H3237 C3223 0.961 . S
H3238 C3223 0.961 . S
H3239 C3223 0.961 . S
H3240 C3224 0.931 . S
H3241 C3229 0.930 . S
H3242 C3230 0.956 . S
H3243 C3230 0.961 . S
H3244 C3230 0.961 . S
H3245 C3231 0.958 . S
H3246 C3231 0.961 . S
H3247 C3231 0.960 . S
C3248 C3249 1.391 . S
C3248 C3250 1.394 . S
C3248 H3264 0.931 . S
C3249 C3248 1.391 . S
C3249 C3253 1.376 . S
C3250 C3248 1.394 . S
C3250 C3251 1.369 . S
C3250 C3254 1.531 . S
C3251 C3250 1.369 . S
C3251 C3252 1.410 . S
C3251 C3259 1.503 . S
C3252 C3251 1.410 . S
C3252 C3253 1.392 . S
C3252 C3255 1.511 . S
C3253 C3249 1.376 . S
C3253 C3252 1.392 . S
C3253 H3265 0.929 . S
C3254 C3250 1.531 . S
C3254 H3266 0.960 . S
C3254 H3267 0.962 . S
C3254 H3268 0.960 . S
C3255 C3252 1.511 . S
C3255 H3269 0.961 . S
C3255 H3270 0.961 . S
C3255 H3271 0.961 . S
C3256 C3257 1.370 . S
C3256 C3258 1.363 . S
C3256 H3272 0.931 . S
C3257 C3256 1.370 . S
C3257 C3261 1.408 . S
C3258 C3256 1.363 . S
C3258 C3259 1.370 . S
C3258 C3262 1.524 . S
C3259 C3251 1.503 . S
C3259 C3258 1.370 . S
C3259 C3260 1.403 . S
C3260 C3259 1.403 . S
C3260 C3261 1.404 . S
C3260 C3263 1.539 . S
C3261 C3257 1.408 . S
C3261 C3260 1.404 . S
C3261 H3273 0.930 . S
C3262 C3258 1.524 . S
C3262 H3274 0.956 . S
C3262 H3275 0.961 . S
C3262 H3276 0.961 . S
C3263 C3260 1.539 . S
C3263 H3277 0.958 . S
C3263 H3278 0.961 . S
C3263 H3279 0.960 . S
H3264 C3248 0.931 . S
H3265 C3253 0.929 . S
H3266 C3254 0.960 . S
H3267 C3254 0.962 . S
H3268 C3254 0.960 . S
H3269 C3255 0.961 . S
H3270 C3255 0.961 . S
H3271 C3255 0.961 . S
H3272 C3256 0.931 . S
H3273 C3261 0.930 . S
H3274 C3262 0.956 . S
H3275 C3262 0.961 . S
H3276 C3262 0.961 . S
H3277 C3263 0.958 . S
H3278 C3263 0.961 . S
H3279 C3263 0.960 . S
C3280 C3281 1.391 . S
C3280 C3282 1.394 . S
C3280 H3296 0.931 . S
C3281 C3280 1.391 . S
C3281 C3285 1.376 1_556 S
C3282 C3280 1.394 . S
C3282 C3283 1.369 . S
C3282 C3286 1.531 . S
C3283 C3282 1.369 . S
C3283 C3284 1.410 1_556 S
C3283 C3291 1.506 . S
C3284 C3283 1.410 1_554 S
C3284 C3285 1.392 . S
C3284 C3287 1.513 . S
C3285 C3281 1.376 1_554 S
C3285 C3284 1.392 . S
C3285 H3297 0.929 . S
C3286 C3282 1.531 . S
C3286 H3298 0.960 . S
C3286 H3299 0.962 . S
C3286 H3300 0.960 . S
C3287 C3284 1.513 . S
C3287 H3301 0.963 . S
C3287 H3302 0.963 . S
C3287 H3303 0.955 1_455 S
C3288 C3289 1.370 . S
C3288 C3290 1.363 . S
C3288 H3304 0.931 . S
C3289 C3288 1.370 . S
C3289 C3293 1.408 1_455 S
C3290 C3288 1.363 . S
C3290 C3291 1.368 1_554 S
C3290 C3294 1.524 . S
C3291 C3283 1.506 . S
C3291 C3290 1.368 1_556 S
C3291 C3292 1.403 1_455 S
C3292 C3291 1.403 1_655 S
C3292 C3293 1.404 1_556 S
C3292 C3295 1.539 . S
C3293 C3289 1.408 1_655 S
C3293 C3292 1.404 1_554 S
C3293 H3305 0.930 . S
C3294 C3290 1.524 . S
C3294 H3306 0.956 1_554 S
C3294 H3307 0.961 . S
C3294 H3308 0.961 . S
C3295 C3292 1.539 . S
C3295 H3309 0.958 . S
C3295 H3310 0.964 1_556 S
C3295 H3311 0.960 . S
H3296 C3280 0.931 . S
H3297 C3285 0.929 . S
H3298 C3286 0.960 . S
H3299 C3286 0.962 . S
H3300 C3286 0.960 . S
H3301 C3287 0.963 . S
H3302 C3287 0.963 . S
H3303 C3287 0.955 1_655 S
H3304 C3288 0.931 . S
H3305 C3293 0.930 . S
H3306 C3294 0.956 1_556 S
H3307 C3294 0.961 . S
H3308 C3294 0.961 . S
H3309 C3295 0.958 . S
H3310 C3295 0.964 1_554 S
H3311 C3295 0.960 . S
C3312 C3313 1.391 1_655 S
C3312 C3314 1.394 . S
C3312 H3328 0.931 . S
C3313 C3312 1.391 1_455 S
C3313 C3317 1.376 . S
C3314 C3312 1.394 . S
C3314 C3315 1.369 . S
C3314 C3318 1.531 . S
C3315 C3314 1.369 . S
C3315 C3316 1.410 . S
C3315 C3323 1.503 . S
C3316 C3315 1.410 . S
C3316 C3317 1.392 1_655 S
C3316 C3319 1.511 . S
C3317 C3313 1.376 . S
C3317 C3316 1.392 1_455 S
C3317 H3329 0.929 . S
C3318 C3314 1.531 . S
C3318 H3330 0.960 . S
C3318 H3331 0.962 . S
C3318 H3332 0.960 . S
C3319 C3316 1.511 . S
C3319 H3333 0.961 1_655 S
C3319 H3334 0.961 . S
C3319 H3335 0.961 . S
C3320 C3321 1.370 . S
C3320 C3322 1.363 . S
C3320 H3336 0.931 . S
C3321 C3320 1.370 . S
C3321 C3325 1.408 . S
C3322 C3320 1.363 . S
C3322 C3323 1.370 . S
C3322 C3326 1.524 . S
C3323 C3315 1.503 . S
C3323 C3322 1.370 . S
C3323 C3324 1.403 . S
C3324 C3323 1.403 . S
C3324 C3325 1.404 . S
C3324 C3327 1.539 . S
C3325 C3321 1.408 . S
C3325 C3324 1.404 . S
C3325 H3337 0.930 . S
C3326 C3322 1.524 . S
C3326 H3338 0.956 . S
C3326 H3339 0.961 . S
C3326 H3340 0.961 . S
C3327 C3324 1.539 . S
C3327 H3341 0.958 . S
C3327 H3342 0.961 . S
C3327 H3343 0.960 . S
H3328 C3312 0.931 . S
H3329 C3317 0.929 . S
H3330 C3318 0.960 . S
H3331 C3318 0.962 . S
H3332 C3318 0.960 . S
H3333 C3319 0.961 1_455 S
H3334 C3319 0.961 . S
H3335 C3319 0.961 . S
H3336 C3320 0.931 . S
H3337 C3325 0.930 . S
H3338 C3326 0.956 . S
H3339 C3326 0.961 . S
H3340 C3326 0.961 . S
H3341 C3327 0.958 . S
H3342 C3327 0.961 . S
H3343 C3327 0.960 . S
C3344 C3345 1.391 . S
C3344 C3346 1.394 . S
C3344 H3360 0.931 . S
C3345 C3344 1.391 . S
C3345 C3349 1.376 . S
C3346 C3344 1.394 . S
C3346 C3347 1.369 . S
C3346 C3350 1.531 . S
C3347 C3346 1.369 . S
C3347 C3348 1.410 . S
C3347 C3355 1.503 . S
C3348 C3347 1.410 . S
C3348 C3349 1.392 . S
C3348 C3351 1.511 . S
C3349 C3345 1.376 . S
C3349 C3348 1.392 . S
C3349 H3361 0.929 . S
C3350 C3346 1.531 . S
C3350 H3362 0.960 . S
C3350 H3363 0.962 . S
C3350 H3364 0.960 . S
C3351 C3348 1.511 . S
C3351 H3365 0.961 . S
C3351 H3366 0.961 . S
C3351 H3367 0.961 . S
C3352 C3353 1.370 . S
C3352 C3354 1.363 . S
C3352 H3368 0.931 . S
C3353 C3352 1.370 . S
C3353 C3357 1.408 . S
C3354 C3352 1.363 . S
C3354 C3355 1.370 . S
C3354 C3358 1.524 . S
C3355 C3347 1.503 . S
C3355 C3354 1.370 . S
C3355 C3356 1.403 . S
C3356 C3355 1.403 . S
C3356 C3357 1.404 . S
C3356 C3359 1.539 . S
C3357 C3353 1.408 . S
C3357 C3356 1.404 . S
C3357 H3369 0.930 . S
C3358 C3354 1.524 . S
C3358 H3370 0.956 . S
C3358 H3371 0.961 . S
C3358 H3372 0.961 . S
C3359 C3356 1.539 . S
C3359 H3373 0.958 . S
C3359 H3374 0.961 . S
C3359 H3375 0.960 . S
H3360 C3344 0.931 . S
H3361 C3349 0.929 . S
H3362 C3350 0.960 . S
H3363 C3350 0.962 . S
H3364 C3350 0.960 . S
H3365 C3351 0.961 . S
H3366 C3351 0.961 . S
H3367 C3351 0.961 . S
H3368 C3352 0.931 . S
H3369 C3357 0.930 . S
H3370 C3358 0.956 . S
H3371 C3358 0.961 . S
H3372 C3358 0.961 . S
H3373 C3359 0.958 . S
H3374 C3359 0.961 . S
H3375 C3359 0.960 . S
C3376 C3377 1.391 . S
C3376 C3378 1.394 . S
C3376 H3392 0.931 . S
C3377 C3376 1.391 . S
C3377 C3381 1.376 . S
C3378 C3376 1.394 . S
C3378 C3379 1.369 . S
C3378 C3382 1.531 . S
C3379 C3378 1.369 . S
C3379 C3380 1.410 . S
C3379 C3387 1.503 . S
C3380 C3379 1.410 . S
C3380 C3381 1.392 . S
C3380 C3383 1.511 . S
C3381 C3377 1.376 . S
C3381 C3380 1.392 . S
C3381 H3393 0.929 . S
C3382 C3378 1.531 . S
C3382 H3394 0.960 . S
C3382 H3395 0.962 . S
C3382 H3396 0.960 . S
C3383 C3380 1.511 . S
C3383 H3397 0.961 . S
C3383 H3398 0.961 . S
C3383 H3399 0.961 . S
C3384 C3385 1.370 . S
C3384 C3386 1.363 . S
C3384 H3400 0.931 . S
C3385 C3384 1.370 . S
C3385 C3389 1.408 . S
C3386 C3384 1.363 . S
C3386 C3387 1.370 . S
C3386 C3390 1.524 . S
C3387 C3379 1.503 . S
C3387 C3386 1.370 . S
C3387 C3388 1.403 . S
C3388 C3387 1.403 . S
C3388 C3389 1.404 . S
C3388 C3391 1.539 . S
C3389 C3385 1.408 . S
C3389 C3388 1.404 . S
C3389 H3401 0.930 . S
C3390 C3386 1.524 . S
C3390 H3402 0.956 . S
C3390 H3403 0.961 . S
C3390 H3404 0.961 . S
C3391 C3388 1.539 . S
C3391 H3405 0.958 . S
C3391 H3406 0.961 . S
C3391 H3407 0.960 . S
H3392 C3376 0.931 . S
H3393 C3381 0.929 . S
H3394 C3382 0.960 . S
H3395 C3382 0.962 . S
H3396 C3382 0.960 . S
H3397 C3383 0.961 . S
H3398 C3383 0.961 . S
H3399 C3383 0.961 . S
H3400 C3384 0.931 . S
H3401 C3389 0.930 . S
H3402 C3390 0.956 . S
H3403 C3390 0.961 . S
H3404 C3390 0.961 . S
H3405 C3391 0.958 . S
H3406 C3391 0.961 . S
H3407 C3391 0.960 . S
C3408 C3409 1.391 1_655 S
C3408 C3410 1.394 . S
C3408 H3424 0.931 . S
C3409 C3408 1.391 1_455 S
C3409 C3413 1.376 . S
C3410 C3408 1.394 . S
C3410 C3411 1.369 1_655 S
C3410 C3414 1.531 . S
C3411 C3410 1.369 1_455 S
C3411 C3412 1.410 . S
C3411 C3419 1.503 . S
C3412 C3411 1.410 . S
C3412 C3413 1.392 . S
C3412 C3415 1.511 . S
C3413 C3409 1.376 . S
C3413 C3412 1.392 . S
C3413 H3425 0.929 . S
C3414 C3410 1.531 . S
C3414 H3426 0.960 . S
C3414 H3427 0.962 . S
C3414 H3428 0.960 . S
C3415 C3412 1.511 . S
C3415 H3429 0.961 . S
C3415 H3430 0.961 . S
C3415 H3431 0.961 . S
C3416 C3417 1.370 . S
C3416 C3418 1.363 . S
C3416 H3432 0.931 . S
C3417 C3416 1.370 . S
C3417 C3421 1.408 . S
C3418 C3416 1.363 . S
C3418 C3419 1.370 . S
C3418 C3422 1.524 1_455 S
C3419 C3411 1.503 . S
C3419 C3418 1.370 . S
C3419 C3420 1.403 . S
C3420 C3419 1.403 . S
C3420 C3421 1.404 . S
C3420 C3423 1.539 . S
C3421 C3417 1.408 . S
C3421 C3420 1.404 . S
C3421 H3433 0.930 . S
C3422 C3418 1.524 1_655 S
C3422 H3434 0.956 . S
C3422 H3435 0.961 1_655 S
C3422 H3436 0.961 . S
C3423 C3420 1.539 . S
C3423 H3437 0.958 . S
C3423 H3438 0.961 . S
C3423 H3439 0.960 . S
H3424 C3408 0.931 . S
H3425 C3413 0.929 . S
H3426 C3414 0.960 . S
H3427 C3414 0.962 . S
H3428 C3414 0.960 . S
H3429 C3415 0.961 . S
H3430 C3415 0.961 . S
H3431 C3415 0.961 . S
H3432 C3416 0.931 . S
H3433 C3421 0.930 . S
H3434 C3422 0.956 . S
H3435 C3422 0.961 1_455 S
H3436 C3422 0.961 . S
H3437 C3423 0.958 . S
H3438 C3423 0.961 . S
H3439 C3423 0.960 . S
C3440 C3441 1.391 . S
C3440 C3442 1.394 . S
C3440 H3456 0.931 . S
C3441 C3440 1.391 . S
C3441 C3445 1.376 . S
C3442 C3440 1.394 . S
C3442 C3443 1.369 . S
C3442 C3446 1.531 . S
C3443 C3442 1.369 . S
C3443 C3444 1.410 . S
C3443 C3451 1.503 . S
C3444 C3443 1.410 . S
C3444 C3445 1.392 . S
C3444 C3447 1.511 . S
C3445 C3441 1.376 . S
C3445 C3444 1.392 . S
C3445 H3457 0.929 . S
C3446 C3442 1.531 . S
C3446 H3458 0.960 . S
C3446 H3459 0.962 . S
C3446 H3460 0.960 . S
C3447 C3444 1.511 . S
C3447 H3461 0.961 . S
C3447 H3462 0.961 . S
C3447 H3463 0.961 . S
C3448 C3449 1.370 . S
C3448 C3450 1.363 . S
C3448 H3464 0.931 . S
C3449 C3448 1.370 . S
C3449 C3453 1.408 . S
C3450 C3448 1.363 . S
C3450 C3451 1.370 . S
C3450 C3454 1.524 . S
C3451 C3443 1.503 . S
C3451 C3450 1.370 . S
C3451 C3452 1.403 . S
C3452 C3451 1.403 . S
C3452 C3453 1.404 . S
C3452 C3455 1.539 . S
C3453 C3449 1.408 . S
C3453 C3452 1.404 . S
C3453 H3465 0.930 . S
C3454 C3450 1.524 . S
C3454 H3466 0.956 . S
C3454 H3467 0.961 . S
C3454 H3468 0.961 . S
C3455 C3452 1.539 . S
C3455 H3469 0.958 . S
C3455 H3470 0.961 . S
C3455 H3471 0.960 . S
H3456 C3440 0.931 . S
H3457 C3445 0.929 . S
H3458 C3446 0.960 . S
H3459 C3446 0.962 . S
H3460 C3446 0.960 . S
H3461 C3447 0.961 . S
H3462 C3447 0.961 . S
H3463 C3447 0.961 . S
H3464 C3448 0.931 . S
H3465 C3453 0.930 . S
H3466 C3454 0.956 . S
H3467 C3454 0.961 . S
H3468 C3454 0.961 . S
H3469 C3455 0.958 . S
H3470 C3455 0.961 . S
H3471 C3455 0.960 . S
C3472 C3473 1.391 . S
C3472 C3474 1.394 . S
C3472 H3488 0.931 . S
C3473 C3472 1.391 . S
C3473 C3477 1.376 . S
C3474 C3472 1.394 . S
C3474 C3475 1.369 . S
C3474 C3478 1.531 . S
C3475 C3474 1.369 . S
C3475 C3476 1.410 . S
C3475 C3483 1.503 . S
C3476 C3475 1.410 . S
C3476 C3477 1.392 . S
C3476 C3479 1.511 . S
C3477 C3473 1.376 . S
C3477 C3476 1.392 . S
C3477 H3489 0.929 . S
C3478 C3474 1.531 . S
C3478 H3490 0.960 . S
C3478 H3491 0.962 . S
C3478 H3492 0.960 . S
C3479 C3476 1.511 . S
C3479 H3493 0.961 . S
C3479 H3494 0.961 . S
C3479 H3495 0.961 . S
C3480 C3481 1.370 . S
C3480 C3482 1.363 . S
C3480 H3496 0.931 . S
C3481 C3480 1.370 . S
C3481 C3485 1.408 . S
C3482 C3480 1.363 . S
C3482 C3483 1.370 . S
C3482 C3486 1.524 . S
C3483 C3475 1.503 . S
C3483 C3482 1.370 . S
C3483 C3484 1.403 . S
C3484 C3483 1.403 . S
C3484 C3485 1.404 . S
C3484 C3487 1.539 . S
C3485 C3481 1.408 . S
C3485 C3484 1.404 . S
C3485 H3497 0.930 . S
C3486 C3482 1.524 . S
C3486 H3498 0.956 . S
C3486 H3499 0.961 . S
C3486 H3500 0.961 . S
C3487 C3484 1.539 . S
C3487 H3501 0.958 . S
C3487 H3502 0.961 . S
C3487 H3503 0.960 . S
H3488 C3472 0.931 . S
H3489 C3477 0.929 . S
H3490 C3478 0.960 . S
H3491 C3478 0.962 . S
H3492 C3478 0.960 . S
H3493 C3479 0.961 . S
H3494 C3479 0.961 . S
H3495 C3479 0.961 . S
H3496 C3480 0.931 . S
H3497 C3485 0.930 . S
H3498 C3486 0.956 . S
H3499 C3486 0.961 . S
H3500 C3486 0.961 . S
H3501 C3487 0.958 . S
H3502 C3487 0.961 . S
H3503 C3487 0.960 . S
C3504 C3505 1.391 1_556 S
C3504 C3506 1.394 . S
C3504 H3520 0.931 . S
C3505 C3504 1.391 1_554 S
C3505 C3509 1.376 . S
C3506 C3504 1.394 . S
C3506 C3507 1.369 . S
C3506 C3510 1.531 . S
C3507 C3506 1.369 . S
C3507 C3508 1.410 . S
C3507 C3515 1.503 . S
C3508 C3507 1.410 . S
C3508 C3509 1.392 1_556 S
C3508 C3511 1.511 . S
C3509 C3505 1.376 . S
C3509 C3508 1.392 1_554 S
C3509 H3521 0.929 . S
C3510 C3506 1.531 . S
C3510 H3522 0.960 . S
C3510 H3523 0.962 . S
C3510 H3524 0.960 . S
C3511 C3508 1.511 . S
C3511 H3525 0.961 . S
C3511 H3526 0.961 . S
C3511 H3527 0.961 . S
C3512 C3513 1.370 . S
C3512 C3514 1.363 . S
C3512 H3528 0.931 . S
C3513 C3512 1.370 . S
C3513 C3517 1.408 . S
C3514 C3512 1.363 . S
C3514 C3515 1.370 . S
C3514 C3518 1.524 . S
C3515 C3507 1.503 . S
C3515 C3514 1.370 . S
C3515 C3516 1.403 . S
C3516 C3515 1.403 . S
C3516 C3517 1.404 . S
C3516 C3519 1.539 . S
C3517 C3513 1.408 . S
C3517 C3516 1.404 . S
C3517 H3529 0.930 . S
C3518 C3514 1.524 . S
C3518 H3530 0.956 . S
C3518 H3531 0.961 . S
C3518 H3532 0.961 . S
C3519 C3516 1.539 . S
C3519 H3533 0.958 . S
C3519 H3534 0.961 . S
C3519 H3535 0.960 . S
H3520 C3504 0.931 . S
H3521 C3509 0.929 . S
H3522 C3510 0.960 . S
H3523 C3510 0.962 . S
H3524 C3510 0.960 . S
H3525 C3511 0.961 . S
H3526 C3511 0.961 . S
H3527 C3511 0.961 . S
H3528 C3512 0.931 . S
H3529 C3517 0.930 . S
H3530 C3518 0.956 . S
H3531 C3518 0.961 . S
H3532 C3518 0.961 . S
H3533 C3519 0.958 . S
H3534 C3519 0.961 . S
H3535 C3519 0.960 . S
C3536 C3537 1.391 . S
C3536 C3538 1.394 . S
C3536 H3552 0.931 . S
C3537 C3536 1.391 . S
C3537 C3541 1.376 . S
C3538 C3536 1.394 . S
C3538 C3539 1.369 . S
C3538 C3542 1.531 . S
C3539 C3538 1.369 . S
C3539 C3540 1.410 . S
C3539 C3547 1.503 . S
C3540 C3539 1.410 . S
C3540 C3541 1.392 . S
C3540 C3543 1.511 . S
C3541 C3537 1.376 . S
C3541 C3540 1.392 . S
C3541 H3553 0.929 . S
C3542 C3538 1.531 . S
C3542 H3554 0.960 . S
C3542 H3555 0.962 . S
C3542 H3556 0.960 . S
C3543 C3540 1.511 . S
C3543 H3557 0.961 . S
C3543 H3558 0.961 . S
C3543 H3559 0.961 . S
C3544 C3545 1.370 . S
C3544 C3546 1.363 . S
C3544 H3560 0.931 . S
C3545 C3544 1.370 . S
C3545 C3549 1.408 . S
C3546 C3544 1.363 . S
C3546 C3547 1.370 . S
C3546 C3550 1.524 . S
C3547 C3539 1.503 . S
C3547 C3546 1.370 . S
C3547 C3548 1.403 . S
C3548 C3547 1.403 . S
C3548 C3549 1.404 . S
C3548 C3551 1.539 . S
C3549 C3545 1.408 . S
C3549 C3548 1.404 . S
C3549 H3561 0.930 . S
C3550 C3546 1.524 . S
C3550 H3562 0.956 . S
C3550 H3563 0.961 . S
C3550 H3564 0.961 . S
C3551 C3548 1.539 . S
C3551 H3565 0.958 . S
C3551 H3566 0.961 . S
C3551 H3567 0.960 . S
H3552 C3536 0.931 . S
H3553 C3541 0.929 . S
H3554 C3542 0.960 . S
H3555 C3542 0.962 . S
H3556 C3542 0.960 . S
H3557 C3543 0.961 . S
H3558 C3543 0.961 . S
H3559 C3543 0.961 . S
H3560 C3544 0.931 . S
H3561 C3549 0.930 . S
H3562 C3550 0.956 . S
H3563 C3550 0.961 . S
H3564 C3550 0.961 . S
H3565 C3551 0.958 . S
H3566 C3551 0.961 . S
H3567 C3551 0.960 . S
C3568 C3569 1.391 . S
C3568 C3570 1.394 . S
C3568 H3584 0.931 . S
C3569 C3568 1.391 . S
C3569 C3573 1.376 . S
C3570 C3568 1.394 . S
C3570 C3571 1.369 . S
C3570 C3574 1.531 . S
C3571 C3570 1.369 . S
C3571 C3572 1.410 . S
C3571 C3579 1.503 . S
C3572 C3571 1.410 . S
C3572 C3573 1.392 . S
C3572 C3575 1.511 . S
C3573 C3569 1.376 . S
C3573 C3572 1.392 . S
C3573 H3585 0.929 . S
C3574 C3570 1.531 . S
C3574 H3586 0.960 . S
C3574 H3587 0.962 . S
C3574 H3588 0.960 . S
C3575 C3572 1.511 . S
C3575 H3589 0.961 . S
C3575 H3590 0.961 . S
C3575 H3591 0.961 . S
C3576 C3577 1.370 . S
C3576 C3578 1.363 . S
C3576 H3592 0.931 . S
C3577 C3576 1.370 . S
C3577 C3581 1.408 . S
C3578 C3576 1.363 . S
C3578 C3579 1.370 . S
C3578 C3582 1.524 . S
C3579 C3571 1.503 . S
C3579 C3578 1.370 . S
C3579 C3580 1.403 . S
C3580 C3579 1.403 . S
C3580 C3581 1.404 . S
C3580 C3583 1.539 . S
C3581 C3577 1.408 . S
C3581 C3580 1.404 . S
C3581 H3593 0.930 . S
C3582 C3578 1.524 . S
C3582 H3594 0.956 . S
C3582 H3595 0.961 . S
C3582 H3596 0.961 . S
C3583 C3580 1.539 . S
C3583 H3597 0.958 . S
C3583 H3598 0.961 . S
C3583 H3599 0.960 . S
H3584 C3568 0.931 . S
H3585 C3573 0.929 . S
H3586 C3574 0.960 . S
H3587 C3574 0.962 . S
H3588 C3574 0.960 . S
H3589 C3575 0.961 . S
H3590 C3575 0.961 . S
H3591 C3575 0.961 . S
H3592 C3576 0.931 . S
H3593 C3581 0.930 . S
H3594 C3582 0.956 . S
H3595 C3582 0.961 . S
H3596 C3582 0.961 . S
H3597 C3583 0.958 . S
H3598 C3583 0.961 . S
H3599 C3583 0.960 . S
C3600 C3601 1.391 . S
C3600 C3602 1.394 . S
C3600 H3616 0.931 . S
C3601 C3600 1.391 . S
C3601 C3605 1.376 . S
C3602 C3600 1.394 . S
C3602 C3603 1.369 . S
C3602 C3606 1.531 . S
C3603 C3602 1.369 . S
C3603 C3604 1.410 . S
C3603 C3611 1.503 . S
C3604 C3603 1.410 . S
C3604 C3605 1.392 . S
C3604 C3607 1.511 . S
C3605 C3601 1.376 . S
C3605 C3604 1.392 . S
C3605 H3617 0.929 . S
C3606 C3602 1.531 . S
C3606 H3618 0.960 . S
C3606 H3619 0.962 . S
C3606 H3620 0.960 . S
C3607 C3604 1.511 . S
C3607 H3621 0.961 . S
C3607 H3622 0.961 . S
C3607 H3623 0.961 . S
C3608 C3609 1.370 . S
C3608 C3610 1.363 . S
C3608 H3624 0.931 . S
C3609 C3608 1.370 . S
C3609 C3613 1.408 . S
C3610 C3608 1.363 . S
C3610 C3611 1.370 . S
C3610 C3614 1.524 . S
C3611 C3603 1.503 . S
C3611 C3610 1.370 . S
C3611 C3612 1.403 . S
C3612 C3611 1.403 . S
C3612 C3613 1.404 . S
C3612 C3615 1.539 . S
C3613 C3609 1.408 . S
C3613 C3612 1.404 . S
C3613 H3625 0.930 . S
C3614 C3610 1.524 . S
C3614 H3626 0.956 . S
C3614 H3627 0.961 . S
C3614 H3628 0.961 . S
C3615 C3612 1.539 . S
C3615 H3629 0.958 . S
C3615 H3630 0.961 . S
C3615 H3631 0.960 . S
H3616 C3600 0.931 . S
H3617 C3605 0.929 . S
H3618 C3606 0.960 . S
H3619 C3606 0.962 . S
H3620 C3606 0.960 . S
H3621 C3607 0.961 . S
H3622 C3607 0.961 . S
H3623 C3607 0.961 . S
H3624 C3608 0.931 . S
H3625 C3613 0.930 . S
H3626 C3614 0.956 . S
H3627 C3614 0.961 . S
H3628 C3614 0.961 . S
H3629 C3615 0.958 . S
H3630 C3615 0.961 . S
H3631 C3615 0.960 . S
C3632 C3633 1.391 . S
C3632 C3634 1.394 . S
C3632 H3648 0.931 . S
C3633 C3632 1.391 . S
C3633 C3637 1.376 . S
C3634 C3632 1.394 . S
C3634 C3635 1.369 . S
C3634 C3638 1.531 . S
C3635 C3634 1.369 . S
C3635 C3636 1.410 . S
C3635 C3643 1.503 . S
C3636 C3635 1.410 . S
C3636 C3637 1.392 . S
C3636 C3639 1.511 . S
C3637 C3633 1.376 . S
C3637 C3636 1.392 . S
C3637 H3649 0.929 . S
C3638 C3634 1.531 . S
C3638 H3650 0.960 . S
C3638 H3651 0.962 . S
C3638 H3652 0.960 . S
C3639 C3636 1.511 . S
C3639 H3653 0.961 . S
C3639 H3654 0.961 . S
C3639 H3655 0.961 . S
C3640 C3641 1.370 . S
C3640 C3642 1.363 . S
C3640 H3656 0.931 . S
C3641 C3640 1.370 . S
C3641 C3645 1.408 . S
C3642 C3640 1.363 . S
C3642 C3643 1.370 . S
C3642 C3646 1.524 . S
C3643 C3635 1.503 . S
C3643 C3642 1.370 . S
C3643 C3644 1.403 . S
C3644 C3643 1.403 . S
C3644 C3645 1.404 . S
C3644 C3647 1.539 . S
C3645 C3641 1.408 . S
C3645 C3644 1.404 . S
C3645 H3657 0.930 . S
C3646 C3642 1.524 . S
C3646 H3658 0.956 . S
C3646 H3659 0.961 . S
C3646 H3660 0.961 . S
C3647 C3644 1.539 . S
C3647 H3661 0.958 . S
C3647 H3662 0.961 . S
C3647 H3663 0.960 . S
H3648 C3632 0.931 . S
H3649 C3637 0.929 . S
H3650 C3638 0.960 . S
H3651 C3638 0.962 . S
H3652 C3638 0.960 . S
H3653 C3639 0.961 . S
H3654 C3639 0.961 . S
H3655 C3639 0.961 . S
H3656 C3640 0.931 . S
H3657 C3645 0.930 . S
H3658 C3646 0.956 . S
H3659 C3646 0.961 . S
H3660 C3646 0.961 . S
H3661 C3647 0.958 . S
H3662 C3647 0.961 . S
H3663 C3647 0.960 . S
C3664 C3665 1.391 . S
C3664 C3666 1.394 . S
C3664 H3680 0.931 . S
C3665 C3664 1.391 . S
C3665 C3669 1.376 . S
C3666 C3664 1.394 . S
C3666 C3667 1.369 . S
C3666 C3670 1.531 . S
C3667 C3666 1.369 . S
C3667 C3668 1.410 . S
C3667 C3675 1.503 . S
C3668 C3667 1.410 . S
C3668 C3669 1.392 . S
C3668 C3671 1.511 . S
C3669 C3665 1.376 . S
C3669 C3668 1.392 . S
C3669 H3681 0.929 . S
C3670 C3666 1.531 . S
C3670 H3682 0.960 . S
C3670 H3683 0.962 . S
C3670 H3684 0.960 . S
C3671 C3668 1.511 . S
C3671 H3685 0.961 . S
C3671 H3686 0.961 . S
C3671 H3687 0.961 . S
C3672 C3673 1.370 . S
C3672 C3674 1.363 . S
C3672 H3688 0.931 . S
C3673 C3672 1.370 . S
C3673 C3677 1.408 . S
C3674 C3672 1.363 . S
C3674 C3675 1.370 . S
C3674 C3678 1.524 . S
C3675 C3667 1.503 . S
C3675 C3674 1.370 . S
C3675 C3676 1.403 . S
C3676 C3675 1.403 . S
C3676 C3677 1.404 . S
C3676 C3679 1.539 . S
C3677 C3673 1.408 . S
C3677 C3676 1.404 . S
C3677 H3689 0.930 . S
C3678 C3674 1.524 . S
C3678 H3690 0.956 . S
C3678 H3691 0.961 . S
C3678 H3692 0.961 . S
C3679 C3676 1.539 . S
C3679 H3693 0.958 . S
C3679 H3694 0.961 . S
C3679 H3695 0.960 . S
H3680 C3664 0.931 . S
H3681 C3669 0.929 . S
H3682 C3670 0.960 . S
H3683 C3670 0.962 . S
H3684 C3670 0.960 . S
H3685 C3671 0.961 . S
H3686 C3671 0.961 . S
H3687 C3671 0.961 . S
H3688 C3672 0.931 . S
H3689 C3677 0.930 . S
H3690 C3678 0.956 . S
H3691 C3678 0.961 . S
H3692 C3678 0.961 . S
H3693 C3679 0.958 . S
H3694 C3679 0.961 . S
H3695 C3679 0.960 . S
C3696 C3697 1.391 . S
C3696 C3698 1.394 . S
C3696 H3712 0.931 . S
C3697 C3696 1.391 . S
C3697 C3701 1.376 . S
C3698 C3696 1.394 . S
C3698 C3699 1.369 . S
C3698 C3702 1.531 . S
C3699 C3698 1.369 . S
C3699 C3700 1.410 . S
C3699 C3707 1.503 . S
C3700 C3699 1.410 . S
C3700 C3701 1.392 . S
C3700 C3703 1.511 . S
C3701 C3697 1.376 . S
C3701 C3700 1.392 . S
C3701 H3713 0.929 . S
C3702 C3698 1.531 . S
C3702 H3714 0.960 . S
C3702 H3715 0.962 . S
C3702 H3716 0.960 . S
C3703 C3700 1.511 . S
C3703 H3717 0.961 . S
C3703 H3718 0.961 . S
C3703 H3719 0.961 . S
C3704 C3705 1.370 . S
C3704 C3706 1.363 . S
C3704 H3720 0.931 . S
C3705 C3704 1.370 . S
C3705 C3709 1.408 . S
C3706 C3704 1.363 . S
C3706 C3707 1.370 . S
C3706 C3710 1.524 . S
C3707 C3699 1.503 . S
C3707 C3706 1.370 . S
C3707 C3708 1.403 . S
C3708 C3707 1.403 . S
C3708 C3709 1.404 . S
C3708 C3711 1.539 . S
C3709 C3705 1.408 . S
C3709 C3708 1.404 . S
C3709 H3721 0.930 . S
C3710 C3706 1.524 . S
C3710 H3722 0.956 . S
C3710 H3723 0.961 . S
C3710 H3724 0.961 . S
C3711 C3708 1.539 . S
C3711 H3725 0.958 . S
C3711 H3726 0.961 . S
C3711 H3727 0.960 . S
H3712 C3696 0.931 . S
H3713 C3701 0.929 . S
H3714 C3702 0.960 . S
H3715 C3702 0.962 . S
H3716 C3702 0.960 . S
H3717 C3703 0.961 . S
H3718 C3703 0.961 . S
H3719 C3703 0.961 . S
H3720 C3704 0.931 . S
H3721 C3709 0.930 . S
H3722 C3710 0.956 . S
H3723 C3710 0.961 . S
H3724 C3710 0.961 . S
H3725 C3711 0.958 . S
H3726 C3711 0.961 . S
H3727 C3711 0.960 . S
C3728 C3729 1.391 . S
C3728 C3730 1.394 . S
C3728 H3744 0.931 . S
C3729 C3728 1.391 . S
C3729 C3733 1.376 . S
C3730 C3728 1.394 . S
C3730 C3731 1.369 . S
C3730 C3734 1.531 . S
C3731 C3730 1.369 . S
C3731 C3732 1.410 . S
C3731 C3739 1.503 . S
C3732 C3731 1.410 . S
C3732 C3733 1.392 . S
C3732 C3735 1.511 . S
C3733 C3729 1.376 . S
C3733 C3732 1.392 . S
C3733 H3745 0.929 . S
C3734 C3730 1.531 . S
C3734 H3746 0.960 . S
C3734 H3747 0.962 . S
C3734 H3748 0.960 . S
C3735 C3732 1.511 . S
C3735 H3749 0.961 . S
C3735 H3750 0.961 . S
C3735 H3751 0.961 . S
C3736 C3737 1.370 . S
C3736 C3738 1.363 . S
C3736 H3752 0.931 . S
C3737 C3736 1.370 . S
C3737 C3741 1.408 . S
C3738 C3736 1.363 . S
C3738 C3739 1.370 . S
C3738 C3742 1.524 . S
C3739 C3731 1.503 . S
C3739 C3738 1.370 . S
C3739 C3740 1.403 . S
C3740 C3739 1.403 . S
C3740 C3741 1.404 . S
C3740 C3743 1.539 . S
C3741 C3737 1.408 . S
C3741 C3740 1.404 . S
C3741 H3753 0.930 . S
C3742 C3738 1.524 . S
C3742 H3754 0.956 . S
C3742 H3755 0.961 . S
C3742 H3756 0.961 . S
C3743 C3740 1.539 . S
C3743 H3757 0.958 . S
C3743 H3758 0.961 . S
C3743 H3759 0.960 . S
H3744 C3728 0.931 . S
H3745 C3733 0.929 . S
H3746 C3734 0.960 . S
H3747 C3734 0.962 . S
H3748 C3734 0.960 . S
H3749 C3735 0.961 . S
H3750 C3735 0.961 . S
H3751 C3735 0.961 . S
H3752 C3736 0.931 . S
H3753 C3741 0.930 . S
H3754 C3742 0.956 . S
H3755 C3742 0.961 . S
H3756 C3742 0.961 . S
H3757 C3743 0.958 . S
H3758 C3743 0.961 . S
H3759 C3743 0.960 . S
C3760 C3761 1.391 . S
C3760 C3762 1.394 . S
C3760 H3776 0.931 . S
C3761 C3760 1.391 . S
C3761 C3765 1.376 . S
C3762 C3760 1.394 . S
C3762 C3763 1.369 . S
C3762 C3766 1.531 . S
C3763 C3762 1.369 . S
C3763 C3764 1.410 . S
C3763 C3771 1.503 . S
C3764 C3763 1.410 . S
C3764 C3765 1.392 . S
C3764 C3767 1.511 . S
C3765 C3761 1.376 . S
C3765 C3764 1.392 . S
C3765 H3777 0.929 . S
C3766 C3762 1.531 . S
C3766 H3778 0.960 . S
C3766 H3779 0.962 . S
C3766 H3780 0.960 . S
C3767 C3764 1.511 . S
C3767 H3781 0.961 . S
C3767 H3782 0.961 . S
C3767 H3783 0.961 . S
C3768 C3769 1.370 . S
C3768 C3770 1.363 . S
C3768 H3784 0.931 . S
C3769 C3768 1.370 . S
C3769 C3773 1.408 . S
C3770 C3768 1.363 . S
C3770 C3771 1.370 . S
C3770 C3774 1.524 . S
C3771 C3763 1.503 . S
C3771 C3770 1.370 . S
C3771 C3772 1.403 . S
C3772 C3771 1.403 . S
C3772 C3773 1.404 . S
C3772 C3775 1.539 . S
C3773 C3769 1.408 . S
C3773 C3772 1.404 . S
C3773 H3785 0.930 . S
C3774 C3770 1.524 . S
C3774 H3786 0.956 . S
C3774 H3787 0.961 . S
C3774 H3788 0.961 . S
C3775 C3772 1.539 . S
C3775 H3789 0.958 . S
C3775 H3790 0.961 . S
C3775 H3791 0.960 . S
H3776 C3760 0.931 . S
H3777 C3765 0.929 . S
H3778 C3766 0.960 . S
H3779 C3766 0.962 . S
H3780 C3766 0.960 . S
H3781 C3767 0.961 . S
H3782 C3767 0.961 . S
H3783 C3767 0.961 . S
H3784 C3768 0.931 . S
H3785 C3773 0.930 . S
H3786 C3774 0.956 . S
H3787 C3774 0.961 . S
H3788 C3774 0.961 . S
H3789 C3775 0.958 . S
H3790 C3775 0.961 . S
H3791 C3775 0.960 . S
C3792 C3793 1.391 . S
C3792 C3794 1.394 . S
C3792 H3808 0.931 . S
C3793 C3792 1.391 . S
C3793 C3797 1.376 . S
C3794 C3792 1.394 . S
C3794 C3795 1.369 . S
C3794 C3798 1.531 . S
C3795 C3794 1.369 . S
C3795 C3796 1.410 . S
C3795 C3803 1.503 . S
C3796 C3795 1.410 . S
C3796 C3797 1.392 . S
C3796 C3799 1.511 . S
C3797 C3793 1.376 . S
C3797 C3796 1.392 . S
C3797 H3809 0.929 . S
C3798 C3794 1.531 . S
C3798 H3810 0.960 . S
C3798 H3811 0.962 . S
C3798 H3812 0.960 . S
C3799 C3796 1.511 . S
C3799 H3813 0.961 . S
C3799 H3814 0.961 . S
C3799 H3815 0.961 . S
C3800 C3801 1.370 . S
C3800 C3802 1.363 . S
C3800 H3816 0.931 . S
C3801 C3800 1.370 . S
C3801 C3805 1.408 . S
C3802 C3800 1.363 . S
C3802 C3803 1.370 . S
C3802 C3806 1.524 . S
C3803 C3795 1.503 . S
C3803 C3802 1.370 . S
C3803 C3804 1.403 . S
C3804 C3803 1.403 . S
C3804 C3805 1.404 . S
C3804 C3807 1.539 . S
C3805 C3801 1.408 . S
C3805 C3804 1.404 . S
C3805 H3817 0.930 . S
C3806 C3802 1.524 . S
C3806 H3818 0.956 . S
C3806 H3819 0.961 . S
C3806 H3820 0.961 . S
C3807 C3804 1.539 . S
C3807 H3821 0.958 . S
C3807 H3822 0.961 . S
C3807 H3823 0.960 . S
H3808 C3792 0.931 . S
H3809 C3797 0.929 . S
H3810 C3798 0.960 . S
H3811 C3798 0.962 . S
H3812 C3798 0.960 . S
H3813 C3799 0.961 . S
H3814 C3799 0.961 . S
H3815 C3799 0.961 . S
H3816 C3800 0.931 . S
H3817 C3805 0.930 . S
H3818 C3806 0.956 . S
H3819 C3806 0.961 . S
H3820 C3806 0.961 . S
H3821 C3807 0.958 . S
H3822 C3807 0.961 . S
H3823 C3807 0.960 . S
C3824 C3825 1.391 . S
C3824 C3826 1.394 . S
C3824 H3840 0.931 . S
C3825 C3824 1.391 . S
C3825 C3829 1.376 1_554 S
C3826 C3824 1.394 . S
C3826 C3827 1.369 . S
C3826 C3830 1.531 . S
C3827 C3826 1.369 . S
C3827 C3828 1.410 1_554 S
C3827 C3835 1.503 . S
C3828 C3827 1.410 1_556 S
C3828 C3829 1.392 . S
C3828 C3831 1.511 . S
C3829 C3825 1.376 1_556 S
C3829 C3828 1.392 . S
C3829 H3841 0.929 . S
C3830 C3826 1.531 . S
C3830 H3842 0.960 . S
C3830 H3843 0.962 . S
C3830 H3844 0.960 . S
C3831 C3828 1.511 . S
C3831 H3845 0.961 . S
C3831 H3846 0.961 . S
C3831 H3847 0.961 . S
C3832 C3833 1.370 . S
C3832 C3834 1.363 . S
C3832 H3848 0.931 . S
C3833 C3832 1.370 . S
C3833 C3837 1.408 1_545 S
C3834 C3832 1.363 . S
C3834 C3835 1.370 1_545 S
C3834 C3838 1.524 . S
C3835 C3827 1.503 . S
C3835 C3834 1.370 1_565 S
C3835 C3836 1.403 . S
C3836 C3835 1.403 . S
C3836 C3837 1.404 . S
C3836 C3839 1.541 . S
C3837 C3833 1.408 1_565 S
C3837 C3836 1.404 . S
C3837 H3849 0.930 . S
C3838 C3834 1.524 . S
C3838 H3850 0.956 . S
C3838 H3851 0.961 . S
C3838 H3852 0.961 . S
C3839 C3836 1.541 . S
C3839 H3853 0.972 . S
C3839 H3854 0.951 1_554 S
C3839 H3855 0.954 1_554 S
H3840 C3824 0.931 . S
H3841 C3829 0.929 . S
H3842 C3830 0.960 . S
H3843 C3830 0.962 . S
H3844 C3830 0.960 . S
H3845 C3831 0.961 . S
H3846 C3831 0.961 . S
H3847 C3831 0.961 . S
H3848 C3832 0.931 . S
H3849 C3837 0.930 . S
H3850 C3838 0.956 . S
H3851 C3838 0.961 . S
H3852 C3838 0.961 . S
H3853 C3839 0.972 . S
H3854 C3839 0.951 1_556 S
H3855 C3839 0.954 1_556 S
C3856 C3857 1.391 . S
C3856 C3858 1.394 . S
C3856 H3872 0.931 . S
C3857 C3856 1.391 . S
C3857 C3861 1.376 . S
C3858 C3856 1.394 . S
C3858 C3859 1.369 . S
C3858 C3862 1.531 . S
C3859 C3858 1.369 . S
C3859 C3860 1.410 . S
C3859 C3867 1.503 . S
C3860 C3859 1.410 . S
C3860 C3861 1.392 . S
C3860 C3863 1.511 . S
C3861 C3857 1.376 . S
C3861 C3860 1.392 . S
C3861 H3873 0.929 . S
C3862 C3858 1.531 . S
C3862 H3874 0.960 . S
C3862 H3875 0.962 . S
C3862 H3876 0.960 . S
C3863 C3860 1.511 . S
C3863 H3877 0.961 . S
C3863 H3878 0.961 . S
C3863 H3879 0.961 . S
C3864 C3865 1.370 . S
C3864 C3866 1.363 . S
C3864 H3880 0.931 . S
C3865 C3864 1.370 . S
C3865 C3869 1.408 . S
C3866 C3864 1.363 . S
C3866 C3867 1.370 . S
C3866 C3870 1.524 . S
C3867 C3859 1.503 . S
C3867 C3866 1.370 . S
C3867 C3868 1.403 . S
C3868 C3867 1.403 . S
C3868 C3869 1.404 . S
C3868 C3871 1.539 . S
C3869 C3865 1.408 . S
C3869 C3868 1.404 . S
C3869 H3881 0.930 . S
C3870 C3866 1.524 . S
C3870 H3882 0.956 . S
C3870 H3883 0.961 . S
C3870 H3884 0.961 . S
C3871 C3868 1.539 . S
C3871 H3885 0.958 . S
C3871 H3886 0.961 . S
C3871 H3887 0.960 . S
H3872 C3856 0.931 . S
H3873 C3861 0.929 . S
H3874 C3862 0.960 . S
H3875 C3862 0.962 . S
H3876 C3862 0.960 . S
H3877 C3863 0.961 . S
H3878 C3863 0.961 . S
H3879 C3863 0.961 . S
H3880 C3864 0.931 . S
H3881 C3869 0.930 . S
H3882 C3870 0.956 . S
H3883 C3870 0.961 . S
H3884 C3870 0.961 . S
H3885 C3871 0.958 . S
H3886 C3871 0.961 . S
H3887 C3871 0.960 . S
C3888 C3889 1.391 . S
C3888 C3890 1.394 . S
C3888 H3904 0.931 . S
C3889 C3888 1.391 . S
C3889 C3893 1.376 . S
C3890 C3888 1.394 . S
C3890 C3891 1.369 . S
C3890 C3894 1.531 . S
C3891 C3890 1.369 . S
C3891 C3892 1.410 . S
C3891 C3899 1.503 . S
C3892 C3891 1.410 . S
C3892 C3893 1.392 . S
C3892 C3895 1.511 1_554 S
C3893 C3889 1.376 . S
C3893 C3892 1.392 . S
C3893 H3905 0.929 1_554 S
C3894 C3890 1.531 . S
C3894 H3906 0.960 . S
C3894 H3907 0.962 . S
C3894 H3908 0.960 . S
C3895 C3892 1.511 1_556 S
C3895 H3909 0.961 . S
C3895 H3910 0.961 1_556 S
C3895 H3911 0.961 . S
C3896 C3897 1.370 . S
C3896 C3898 1.363 . S
C3896 H3912 0.931 . S
C3897 C3896 1.370 . S
C3897 C3901 1.408 . S
C3898 C3896 1.363 . S
C3898 C3899 1.370 . S
C3898 C3902 1.524 . S
C3899 C3891 1.503 . S
C3899 C3898 1.370 . S
C3899 C3900 1.403 . S
C3900 C3899 1.403 . S
C3900 C3901 1.404 . S
C3900 C3903 1.539 1_554 S
C3901 C3897 1.408 . S
C3901 C3900 1.404 . S
C3901 H3913 0.930 . S
C3902 C3898 1.524 . S
C3902 H3914 0.956 . S
C3902 H3915 0.961 . S
C3902 H3916 0.961 . S
C3903 C3900 1.539 1_556 S
C3903 H3917 0.958 . S
C3903 H3918 0.961 . S
C3903 H3919 0.960 . S
H3904 C3888 0.931 . S
H3905 C3893 0.929 1_556 S
H3906 C3894 0.960 . S
H3907 C3894 0.962 . S
H3908 C3894 0.960 . S
H3909 C3895 0.961 . S
H3910 C3895 0.961 1_554 S
H3911 C3895 0.961 . S
H3912 C3896 0.931 . S
H3913 C3901 0.930 . S
H3914 C3902 0.956 . S
H3915 C3902 0.961 . S
H3916 C3902 0.961 . S
H3917 C3903 0.958 . S
H3918 C3903 0.961 . S
H3919 C3903 0.960 . S
C3920 C3921 1.391 . S
C3920 C3922 1.394 . S
C3920 H3936 0.931 . S
C3921 C3920 1.391 . S
C3921 C3925 1.376 . S
C3922 C3920 1.394 . S
C3922 C3923 1.369 . S
C3922 C3926 1.531 . S
C3923 C3922 1.369 . S
C3923 C3924 1.410 . S
C3923 C3931 1.503 . S
C3924 C3923 1.410 . S
C3924 C3925 1.392 . S
C3924 C3927 1.511 . S
C3925 C3921 1.376 . S
C3925 C3924 1.392 . S
C3925 H3937 0.929 . S
C3926 C3922 1.531 . S
C3926 H3938 0.960 . S
C3926 H3939 0.962 . S
C3926 H3940 0.960 . S
C3927 C3924 1.511 . S
C3927 H3941 0.961 . S
C3927 H3942 0.961 . S
C3927 H3943 0.961 . S
C3928 C3929 1.370 . S
C3928 C3930 1.363 . S
C3928 H3944 0.931 . S
C3929 C3928 1.370 . S
C3929 C3933 1.408 . S
C3930 C3928 1.363 . S
C3930 C3931 1.370 . S
C3930 C3934 1.524 . S
C3931 C3923 1.503 . S
C3931 C3930 1.370 . S
C3931 C3932 1.403 . S
C3932 C3931 1.403 . S
C3932 C3933 1.404 . S
C3932 C3935 1.539 . S
C3933 C3929 1.408 . S
C3933 C3932 1.404 . S
C3933 H3945 0.930 . S
C3934 C3930 1.524 . S
C3934 H3946 0.956 . S
C3934 H3947 0.961 . S
C3934 H3948 0.961 . S
C3935 C3932 1.539 . S
C3935 H3949 0.958 . S
C3935 H3950 0.961 . S
C3935 H3951 0.960 . S
H3936 C3920 0.931 . S
H3937 C3925 0.929 . S
H3938 C3926 0.960 . S
H3939 C3926 0.962 . S
H3940 C3926 0.960 . S
H3941 C3927 0.961 . S
H3942 C3927 0.961 . S
H3943 C3927 0.961 . S
H3944 C3928 0.931 . S
H3945 C3933 0.930 . S
H3946 C3934 0.956 . S
H3947 C3934 0.961 . S
H3948 C3934 0.961 . S
H3949 C3935 0.958 . S
H3950 C3935 0.961 . S
H3951 C3935 0.960 . S
C3952 C3953 1.391 . S
C3952 C3954 1.394 . S
C3952 H3968 0.931 . S
C3953 C3952 1.391 . S
C3953 C3957 1.376 . S
C3954 C3952 1.394 . S
C3954 C3955 1.369 . S
C3954 C3958 1.531 . S
C3955 C3954 1.369 . S
C3955 C3956 1.410 . S
C3955 C3963 1.503 . S
C3956 C3955 1.410 . S
C3956 C3957 1.392 . S
C3956 C3959 1.511 . S
C3957 C3953 1.376 . S
C3957 C3956 1.392 . S
C3957 H3969 0.929 . S
C3958 C3954 1.531 . S
C3958 H3970 0.960 . S
C3958 H3971 0.962 . S
C3958 H3972 0.960 . S
C3959 C3956 1.511 . S
C3959 H3973 0.961 . S
C3959 H3974 0.961 . S
C3959 H3975 0.961 . S
C3960 C3961 1.370 . S
C3960 C3962 1.363 . S
C3960 H3976 0.931 . S
C3961 C3960 1.370 . S
C3961 C3965 1.408 . S
C3962 C3960 1.363 . S
C3962 C3963 1.370 . S
C3962 C3966 1.524 . S
C3963 C3955 1.503 . S
C3963 C3962 1.370 . S
C3963 C3964 1.403 . S
C3964 C3963 1.403 . S
C3964 C3965 1.404 . S
C3964 C3967 1.539 . S
C3965 C3961 1.408 . S
C3965 C3964 1.404 . S
C3965 H3977 0.930 . S
C3966 C3962 1.524 . S
C3966 H3978 0.956 . S
C3966 H3979 0.961 . S
C3966 H3980 0.961 . S
C3967 C3964 1.539 . S
C3967 H3981 0.958 . S
C3967 H3982 0.961 . S
C3967 H3983 0.960 . S
H3968 C3952 0.931 . S
H3969 C3957 0.929 . S
H3970 C3958 0.960 . S
H3971 C3958 0.962 . S
H3972 C3958 0.960 . S
H3973 C3959 0.961 . S
H3974 C3959 0.961 . S
H3975 C3959 0.961 . S
H3976 C3960 0.931 . S
H3977 C3965 0.930 . S
H3978 C3966 0.956 . S
H3979 C3966 0.961 . S
H3980 C3966 0.961 . S
H3981 C3967 0.958 . S
H3982 C3967 0.961 . S
H3983 C3967 0.960 . S
C3984 C3985 1.391 . S
C3984 C3986 1.394 . S
C3984 H4000 0.931 . S
C3985 C3984 1.391 . S
C3985 C3989 1.376 . S
C3986 C3984 1.394 . S
C3986 C3987 1.369 . S
C3986 C3990 1.531 . S
C3987 C3986 1.369 . S
C3987 C3988 1.410 . S
C3987 C3995 1.503 . S
C3988 C3987 1.410 . S
C3988 C3989 1.392 . S
C3988 C3991 1.511 . S
C3989 C3985 1.376 . S
C3989 C3988 1.392 . S
C3989 H4001 0.929 . S
C3990 C3986 1.531 . S
C3990 H4002 0.960 . S
C3990 H4003 0.962 . S
C3990 H4004 0.960 . S
C3991 C3988 1.511 . S
C3991 H4005 0.961 . S
C3991 H4006 0.961 . S
C3991 H4007 0.961 . S
C3992 C3993 1.370 . S
C3992 C3994 1.363 . S
C3992 H4008 0.931 . S
C3993 C3992 1.370 . S
C3993 C3997 1.408 . S
C3994 C3992 1.363 . S
C3994 C3995 1.370 . S
C3994 C3998 1.524 . S
C3995 C3987 1.503 . S
C3995 C3994 1.370 . S
C3995 C3996 1.403 . S
C3996 C3995 1.403 . S
C3996 C3997 1.404 . S
C3996 C3999 1.539 . S
C3997 C3993 1.408 . S
C3997 C3996 1.404 . S
C3997 H4009 0.930 . S
C3998 C3994 1.524 . S
C3998 H4010 0.956 . S
C3998 H4011 0.961 . S
C3998 H4012 0.961 . S
C3999 C3996 1.539 . S
C3999 H4013 0.958 . S
C3999 H4014 0.961 . S
C3999 H4015 0.960 . S
H4000 C3984 0.931 . S
H4001 C3989 0.929 . S
H4002 C3990 0.960 . S
H4003 C3990 0.962 . S
H4004 C3990 0.960 . S
H4005 C3991 0.961 . S
H4006 C3991 0.961 . S
H4007 C3991 0.961 . S
H4008 C3992 0.931 . S
H4009 C3997 0.930 . S
H4010 C3998 0.956 . S
H4011 C3998 0.961 . S
H4012 C3998 0.961 . S
H4013 C3999 0.958 . S
H4014 C3999 0.961 . S
H4015 C3999 0.960 . S
C4016 C4017 1.391 . S
C4016 C4018 1.394 . S
C4016 H4032 0.931 . S
C4017 C4016 1.391 . S
C4017 C4021 1.376 . S
C4018 C4016 1.394 . S
C4018 C4019 1.369 . S
C4018 C4022 1.531 . S
C4019 C4018 1.369 . S
C4019 C4020 1.410 . S
C4019 C4027 1.503 . S
C4020 C4019 1.410 . S
C4020 C4021 1.392 . S
C4020 C4023 1.511 . S
C4021 C4017 1.376 . S
C4021 C4020 1.392 . S
C4021 H4033 0.929 . S
C4022 C4018 1.531 . S
C4022 H4034 0.960 . S
C4022 H4035 0.962 . S
C4022 H4036 0.960 . S
C4023 C4020 1.511 . S
C4023 H4037 0.961 . S
C4023 H4038 0.961 . S
C4023 H4039 0.961 . S
C4024 C4025 1.370 . S
C4024 C4026 1.363 . S
C4024 H4040 0.931 . S
C4025 C4024 1.370 . S
C4025 C4029 1.408 . S
C4026 C4024 1.363 . S
C4026 C4027 1.370 . S
C4026 C4030 1.524 . S
C4027 C4019 1.503 . S
C4027 C4026 1.370 . S
C4027 C4028 1.403 . S
C4028 C4027 1.403 . S
C4028 C4029 1.404 . S
C4028 C4031 1.539 . S
C4029 C4025 1.408 . S
C4029 C4028 1.404 . S
C4029 H4041 0.930 . S
C4030 C4026 1.524 . S
C4030 H4042 0.956 . S
C4030 H4043 0.961 . S
C4030 H4044 0.961 . S
C4031 C4028 1.539 . S
C4031 H4045 0.958 . S
C4031 H4046 0.961 . S
C4031 H4047 0.960 . S
H4032 C4016 0.931 . S
H4033 C4021 0.929 . S
H4034 C4022 0.960 . S
H4035 C4022 0.962 . S
H4036 C4022 0.960 . S
H4037 C4023 0.961 . S
H4038 C4023 0.961 . S
H4039 C4023 0.961 . S
H4040 C4024 0.931 . S
H4041 C4029 0.930 . S
H4042 C4030 0.956 . S
H4043 C4030 0.961 . S
H4044 C4030 0.961 . S
H4045 C4031 0.958 . S
H4046 C4031 0.961 . S
H4047 C4031 0.960 . S
C4048 C4049 1.391 . S
C4048 C4050 1.394 . S
C4048 H4064 0.931 . S
C4049 C4048 1.391 . S
C4049 C4053 1.376 . S
C4050 C4048 1.394 . S
C4050 C4051 1.369 . S
C4050 C4054 1.531 . S
C4051 C4050 1.369 . S
C4051 C4052 1.410 . S
C4051 C4059 1.503 . S
C4052 C4051 1.410 . S
C4052 C4053 1.392 . S
C4052 C4055 1.511 . S
C4053 C4049 1.376 . S
C4053 C4052 1.392 . S
C4053 H4065 0.929 . S
C4054 C4050 1.531 . S
C4054 H4066 0.960 . S
C4054 H4067 0.962 . S
C4054 H4068 0.960 . S
C4055 C4052 1.511 . S
C4055 H4069 0.961 . S
C4055 H4070 0.961 . S
C4055 H4071 0.961 . S
C4056 C4057 1.370 . S
C4056 C4058 1.363 . S
C4056 H4072 0.931 . S
C4057 C4056 1.370 . S
C4057 C4061 1.408 . S
C4058 C4056 1.363 . S
C4058 C4059 1.370 . S
C4058 C4062 1.524 . S
C4059 C4051 1.503 . S
C4059 C4058 1.370 . S
C4059 C4060 1.403 . S
C4060 C4059 1.403 . S
C4060 C4061 1.404 . S
C4060 C4063 1.539 1_455 S
C4061 C4057 1.408 . S
C4061 C4060 1.404 . S
C4061 H4073 0.930 . S
C4062 C4058 1.524 . S
C4062 H4074 0.956 . S
C4062 H4075 0.961 . S
C4062 H4076 0.961 . S
C4063 C4060 1.539 1_655 S
C4063 H4077 0.958 . S
C4063 H4078 0.961 . S
C4063 H4079 0.960 . S
H4064 C4048 0.931 . S
H4065 C4053 0.929 . S
H4066 C4054 0.960 . S
H4067 C4054 0.962 . S
H4068 C4054 0.960 . S
H4069 C4055 0.961 . S
H4070 C4055 0.961 . S
H4071 C4055 0.961 . S
H4072 C4056 0.931 . S
H4073 C4061 0.930 . S
H4074 C4062 0.956 . S
H4075 C4062 0.961 . S
H4076 C4062 0.961 . S
H4077 C4063 0.958 . S
H4078 C4063 0.961 . S
H4079 C4063 0.960 . S
C4080 C4081 1.391 . S
C4080 C4082 1.394 . S
C4080 H4096 0.931 . S
C4081 C4080 1.391 . S
C4081 C4085 1.376 . S
C4082 C4080 1.394 . S
C4082 C4083 1.369 . S
C4082 C4086 1.531 . S
C4083 C4082 1.369 . S
C4083 C4084 1.410 . S
C4083 C4091 1.503 . S
C4084 C4083 1.410 . S
C4084 C4085 1.392 . S
C4084 C4087 1.511 . S
C4085 C4081 1.376 . S
C4085 C4084 1.392 . S
C4085 H4097 0.929 . S
C4086 C4082 1.531 . S
C4086 H4098 0.960 . S
C4086 H4099 0.962 . S
C4086 H4100 0.960 . S
C4087 C4084 1.511 . S
C4087 H4101 0.961 . S
C4087 H4102 0.961 . S
C4087 H4103 0.961 . S
C4088 C4089 1.370 . S
C4088 C4090 1.363 . S
C4088 H4104 0.931 . S
C4089 C4088 1.370 . S
C4089 C4093 1.408 . S
C4090 C4088 1.363 . S
C4090 C4091 1.370 . S
C4090 C4094 1.524 . S
C4091 C4083 1.503 . S
C4091 C4090 1.370 . S
C4091 C4092 1.403 . S
C4092 C4091 1.403 . S
C4092 C4093 1.404 . S
C4092 C4095 1.539 . S
C4093 C4089 1.408 . S
C4093 C4092 1.404 . S
C4093 H4105 0.930 . S
C4094 C4090 1.524 . S
C4094 H4106 0.956 . S
C4094 H4107 0.961 . S
C4094 H4108 0.961 . S
C4095 C4092 1.539 . S
C4095 H4109 0.958 . S
C4095 H4110 0.961 . S
C4095 H4111 0.960 . S
H4096 C4080 0.931 . S
H4097 C4085 0.929 . S
H4098 C4086 0.960 . S
H4099 C4086 0.962 . S
H4100 C4086 0.960 . S
H4101 C4087 0.961 . S
H4102 C4087 0.961 . S
H4103 C4087 0.961 . S
H4104 C4088 0.931 . S
H4105 C4093 0.930 . S
H4106 C4094 0.956 . S
H4107 C4094 0.961 . S
H4108 C4094 0.961 . S
H4109 C4095 0.958 . S
H4110 C4095 0.961 . S
H4111 C4095 0.960 . S
C4112 C4113 1.391 . S
C4112 C4114 1.394 . S
C4112 H4128 0.931 . S
C4113 C4112 1.391 . S
C4113 C4117 1.376 . S
C4114 C4112 1.394 . S
C4114 C4115 1.369 . S
C4114 C4118 1.531 . S
C4115 C4114 1.369 . S
C4115 C4116 1.410 . S
C4115 C4123 1.503 . S
C4116 C4115 1.410 . S
C4116 C4117 1.392 . S
C4116 C4119 1.511 . S
C4117 C4113 1.376 . S
C4117 C4116 1.392 . S
C4117 H4129 0.929 . S
C4118 C4114 1.531 . S
C4118 H4130 0.960 . S
C4118 H4131 0.962 . S
C4118 H4132 0.960 . S
C4119 C4116 1.511 . S
C4119 H4133 0.961 . S
C4119 H4134 0.961 . S
C4119 H4135 0.961 . S
C4120 C4121 1.370 . S
C4120 C4122 1.363 . S
C4120 H4136 0.931 . S
C4121 C4120 1.370 . S
C4121 C4125 1.408 . S
C4122 C4120 1.363 . S
C4122 C4123 1.370 . S
C4122 C4126 1.524 . S
C4123 C4115 1.503 . S
C4123 C4122 1.370 . S
C4123 C4124 1.403 . S
C4124 C4123 1.403 . S
C4124 C4125 1.404 . S
C4124 C4127 1.539 . S
C4125 C4121 1.408 . S
C4125 C4124 1.404 . S
C4125 H4137 0.930 . S
C4126 C4122 1.524 . S
C4126 H4138 0.956 . S
C4126 H4139 0.961 . S
C4126 H4140 0.961 . S
C4127 C4124 1.539 . S
C4127 H4141 0.958 . S
C4127 H4142 0.961 . S
C4127 H4143 0.960 . S
H4128 C4112 0.931 . S
H4129 C4117 0.929 . S
H4130 C4118 0.960 . S
H4131 C4118 0.962 . S
H4132 C4118 0.960 . S
H4133 C4119 0.961 . S
H4134 C4119 0.961 . S
H4135 C4119 0.961 . S
H4136 C4120 0.931 . S
H4137 C4125 0.930 . S
H4138 C4126 0.956 . S
H4139 C4126 0.961 . S
H4140 C4126 0.961 . S
H4141 C4127 0.958 . S
H4142 C4127 0.961 . S
H4143 C4127 0.960 . S
C4144 C4145 1.391 . S
C4144 C4146 1.394 . S
C4144 H4160 0.931 . S
C4145 C4144 1.391 . S
C4145 C4149 1.376 . S
C4146 C4144 1.394 . S
C4146 C4147 1.369 . S
C4146 C4150 1.531 . S
C4147 C4146 1.369 . S
C4147 C4148 1.410 . S
C4147 C4155 1.503 . S
C4148 C4147 1.410 . S
C4148 C4149 1.392 . S
C4148 C4151 1.511 . S
C4149 C4145 1.376 . S
C4149 C4148 1.392 . S
C4149 H4161 0.929 . S
C4150 C4146 1.531 . S
C4150 H4162 0.960 . S
C4150 H4163 0.962 . S
C4150 H4164 0.960 . S
C4151 C4148 1.511 . S
C4151 H4165 0.961 . S
C4151 H4166 0.961 . S
C4151 H4167 0.961 . S
C4152 C4153 1.370 . S
C4152 C4154 1.363 . S
C4152 H4168 0.931 . S
C4153 C4152 1.370 . S
C4153 C4157 1.408 . S
C4154 C4152 1.363 . S
C4154 C4155 1.370 . S
C4154 C4158 1.524 . S
C4155 C4147 1.503 . S
C4155 C4154 1.370 . S
C4155 C4156 1.403 . S
C4156 C4155 1.403 . S
C4156 C4157 1.404 . S
C4156 C4159 1.539 . S
C4157 C4153 1.408 . S
C4157 C4156 1.404 . S
C4157 H4169 0.930 . S
C4158 C4154 1.524 . S
C4158 H4170 0.956 . S
C4158 H4171 0.961 . S
C4158 H4172 0.961 . S
C4159 C4156 1.539 . S
C4159 H4173 0.958 . S
C4159 H4174 0.961 . S
C4159 H4175 0.960 . S
H4160 C4144 0.931 . S
H4161 C4149 0.929 . S
H4162 C4150 0.960 . S
H4163 C4150 0.962 . S
H4164 C4150 0.960 . S
H4165 C4151 0.961 . S
H4166 C4151 0.961 . S
H4167 C4151 0.961 . S
H4168 C4152 0.931 . S
H4169 C4157 0.930 . S
H4170 C4158 0.956 . S
H4171 C4158 0.961 . S
H4172 C4158 0.961 . S
H4173 C4159 0.958 . S
H4174 C4159 0.961 . S
H4175 C4159 0.960 . S
C4176 C4177 1.391 . S
C4176 C4178 1.394 . S
C4176 H4192 0.931 . S
C4177 C4176 1.391 . S
C4177 C4181 1.376 . S
C4178 C4176 1.394 . S
C4178 C4179 1.369 . S
C4178 C4182 1.531 . S
C4179 C4178 1.369 . S
C4179 C4180 1.410 . S
C4179 C4187 1.503 . S
C4180 C4179 1.410 . S
C4180 C4181 1.392 . S
C4180 C4183 1.511 1_455 S
C4181 C4177 1.376 . S
C4181 C4180 1.392 . S
C4181 H4193 0.929 . S
C4182 C4178 1.531 . S
C4182 H4194 0.960 . S
C4182 H4195 0.962 . S
C4182 H4196 0.960 . S
C4183 C4180 1.511 1_655 S
C4183 H4197 0.961 . S
C4183 H4198 0.961 . S
C4183 H4199 0.961 . S
C4184 C4185 1.370 . S
C4184 C4186 1.363 . S
C4184 H4200 0.931 . S
C4185 C4184 1.370 . S
C4185 C4189 1.408 . S
C4186 C4184 1.363 . S
C4186 C4187 1.370 . S
C4186 C4190 1.524 . S
C4187 C4179 1.503 . S
C4187 C4186 1.370 . S
C4187 C4188 1.403 . S
C4188 C4187 1.403 . S
C4188 C4189 1.404 . S
C4188 C4191 1.539 . S
C4189 C4185 1.408 . S
C4189 C4188 1.404 . S
C4189 H4201 0.930 . S
C4190 C4186 1.524 . S
C4190 H4202 0.956 . S
C4190 H4203 0.961 . S
C4190 H4204 0.961 . S
C4191 C4188 1.539 . S
C4191 H4205 0.958 . S
C4191 H4206 0.961 . S
C4191 H4207 0.960 . S
H4192 C4176 0.931 . S
H4193 C4181 0.929 . S
H4194 C4182 0.960 . S
H4195 C4182 0.962 . S
H4196 C4182 0.960 . S
H4197 C4183 0.961 . S
H4198 C4183 0.961 . S
H4199 C4183 0.961 . S
H4200 C4184 0.931 . S
H4201 C4189 0.930 . S
H4202 C4190 0.956 . S
H4203 C4190 0.961 . S
H4204 C4190 0.961 . S
H4205 C4191 0.958 . S
H4206 C4191 0.961 . S
H4207 C4191 0.960 . S
C4208 C4209 1.391 . S
C4208 C4210 1.394 . S
C4208 H4224 0.931 . S
C4209 C4208 1.391 . S
C4209 C4213 1.376 . S
C4210 C4208 1.394 . S
C4210 C4211 1.369 . S
C4210 C4214 1.531 . S
C4211 C4210 1.369 . S
C4211 C4212 1.410 . S
C4211 C4219 1.503 . S
C4212 C4211 1.410 . S
C4212 C4213 1.392 . S
C4212 C4215 1.511 . S
C4213 C4209 1.376 . S
C4213 C4212 1.392 . S
C4213 H4225 0.929 . S
C4214 C4210 1.531 . S
C4214 H4226 0.960 . S
C4214 H4227 0.962 . S
C4214 H4228 0.960 . S
C4215 C4212 1.511 . S
C4215 H4229 0.961 . S
C4215 H4230 0.961 . S
C4215 H4231 0.961 . S
C4216 C4217 1.370 . S
C4216 C4218 1.363 . S
C4216 H4232 0.931 . S
C4217 C4216 1.370 . S
C4217 C4221 1.408 . S
C4218 C4216 1.363 . S
C4218 C4219 1.370 . S
C4218 C4222 1.524 . S
C4219 C4211 1.503 . S
C4219 C4218 1.370 . S
C4219 C4220 1.403 . S
C4220 C4219 1.403 . S
C4220 C4221 1.404 . S
C4220 C4223 1.539 . S
C4221 C4217 1.408 . S
C4221 C4220 1.404 . S
C4221 H4233 0.930 . S
C4222 C4218 1.524 . S
C4222 H4234 0.956 . S
C4222 H4235 0.961 . S
C4222 H4236 0.961 . S
C4223 C4220 1.539 . S
C4223 H4237 0.958 . S
C4223 H4238 0.961 . S
C4223 H4239 0.960 . S
H4224 C4208 0.931 . S
H4225 C4213 0.929 . S
H4226 C4214 0.960 . S
H4227 C4214 0.962 . S
H4228 C4214 0.960 . S
H4229 C4215 0.961 . S
H4230 C4215 0.961 . S
H4231 C4215 0.961 . S
H4232 C4216 0.931 . S
H4233 C4221 0.930 . S
H4234 C4222 0.956 . S
H4235 C4222 0.961 . S
H4236 C4222 0.961 . S
H4237 C4223 0.958 . S
H4238 C4223 0.961 . S
H4239 C4223 0.960 . S
C4240 C4241 1.391 . S
C4240 C4242 1.394 . S
C4240 H4256 0.931 . S
C4241 C4240 1.391 . S
C4241 C4245 1.376 . S
C4242 C4240 1.394 . S
C4242 C4243 1.369 . S
C4242 C4246 1.531 . S
C4243 C4242 1.369 . S
C4243 C4244 1.410 . S
C4243 C4251 1.503 . S
C4244 C4243 1.410 . S
C4244 C4245 1.392 . S
C4244 C4247 1.511 . S
C4245 C4241 1.376 . S
C4245 C4244 1.392 . S
C4245 H4257 0.929 . S
C4246 C4242 1.531 . S
C4246 H4258 0.960 . S
C4246 H4259 0.962 . S
C4246 H4260 0.960 . S
C4247 C4244 1.511 . S
C4247 H4261 0.961 . S
C4247 H4262 0.961 . S
C4247 H4263 0.961 . S
C4248 C4249 1.370 . S
C4248 C4250 1.363 . S
C4248 H4264 0.931 . S
C4249 C4248 1.370 . S
C4249 C4253 1.408 . S
C4250 C4248 1.363 . S
C4250 C4251 1.370 . S
C4250 C4254 1.524 . S
C4251 C4243 1.503 . S
C4251 C4250 1.370 . S
C4251 C4252 1.403 . S
C4252 C4251 1.403 . S
C4252 C4253 1.404 . S
C4252 C4255 1.539 . S
C4253 C4249 1.408 . S
C4253 C4252 1.404 . S
C4253 H4265 0.930 . S
C4254 C4250 1.524 . S
C4254 H4266 0.956 . S
C4254 H4267 0.961 . S
C4254 H4268 0.961 . S
C4255 C4252 1.539 . S
C4255 H4269 0.958 . S
C4255 H4270 0.961 . S
C4255 H4271 0.960 . S
H4256 C4240 0.931 . S
H4257 C4245 0.929 . S
H4258 C4246 0.960 . S
H4259 C4246 0.962 . S
H4260 C4246 0.960 . S
H4261 C4247 0.961 . S
H4262 C4247 0.961 . S
H4263 C4247 0.961 . S
H4264 C4248 0.931 . S
H4265 C4253 0.930 . S
H4266 C4254 0.956 . S
H4267 C4254 0.961 . S
H4268 C4254 0.961 . S
H4269 C4255 0.958 . S
H4270 C4255 0.961 . S
H4271 C4255 0.960 . S
C4272 C4273 1.391 . S
C4272 C4274 1.394 . S
C4272 H4288 0.931 . S
C4273 C4272 1.391 . S
C4273 C4277 1.376 . S
C4274 C4272 1.394 . S
C4274 C4275 1.369 . S
C4274 C4278 1.531 . S
C4275 C4274 1.369 . S
C4275 C4276 1.410 . S
C4275 C4283 1.503 . S
C4276 C4275 1.410 . S
C4276 C4277 1.392 . S
C4276 C4279 1.511 . S
C4277 C4273 1.376 . S
C4277 C4276 1.392 . S
C4277 H4289 0.929 . S
C4278 C4274 1.531 . S
C4278 H4290 0.960 . S
C4278 H4291 0.962 . S
C4278 H4292 0.960 . S
C4279 C4276 1.511 . S
C4279 H4293 0.961 . S
C4279 H4294 0.961 . S
C4279 H4295 0.961 . S
C4280 C4281 1.370 . S
C4280 C4282 1.363 . S
C4280 H4296 0.931 . S
C4281 C4280 1.370 . S
C4281 C4285 1.408 . S
C4282 C4280 1.363 . S
C4282 C4283 1.370 . S
C4282 C4286 1.524 . S
C4283 C4275 1.503 . S
C4283 C4282 1.370 . S
C4283 C4284 1.403 . S
C4284 C4283 1.403 . S
C4284 C4285 1.404 . S
C4284 C4287 1.539 . S
C4285 C4281 1.408 . S
C4285 C4284 1.404 . S
C4285 H4297 0.930 . S
C4286 C4282 1.524 . S
C4286 H4298 0.956 . S
C4286 H4299 0.961 . S
C4286 H4300 0.961 . S
C4287 C4284 1.539 . S
C4287 H4301 0.958 . S
C4287 H4302 0.961 . S
C4287 H4303 0.960 . S
H4288 C4272 0.931 . S
H4289 C4277 0.929 . S
H4290 C4278 0.960 . S
H4291 C4278 0.962 . S
H4292 C4278 0.960 . S
H4293 C4279 0.961 . S
H4294 C4279 0.961 . S
H4295 C4279 0.961 . S
H4296 C4280 0.931 . S
H4297 C4285 0.930 . S
H4298 C4286 0.956 . S
H4299 C4286 0.961 . S
H4300 C4286 0.961 . S
H4301 C4287 0.958 . S
H4302 C4287 0.961 . S
H4303 C4287 0.960 . S
C4304 C4305 1.391 . S
C4304 C4306 1.394 . S
C4304 H4320 0.931 . S
C4305 C4304 1.391 . S
C4305 C4309 1.376 . S
C4306 C4304 1.394 . S
C4306 C4307 1.369 . S
C4306 C4310 1.531 . S
C4307 C4306 1.369 . S
C4307 C4308 1.410 . S
C4307 C4315 1.503 . S
C4308 C4307 1.410 . S
C4308 C4309 1.392 . S
C4308 C4311 1.511 . S
C4309 C4305 1.376 . S
C4309 C4308 1.392 . S
C4309 H4321 0.929 . S
C4310 C4306 1.531 . S
C4310 H4322 0.960 . S
C4310 H4323 0.962 . S
C4310 H4324 0.960 . S
C4311 C4308 1.511 . S
C4311 H4325 0.961 . S
C4311 H4326 0.961 . S
C4311 H4327 0.961 . S
C4312 C4313 1.370 . S
C4312 C4314 1.363 . S
C4312 H4328 0.931 1_655 S
C4313 C4312 1.370 . S
C4313 C4317 1.408 . S
C4314 C4312 1.363 . S
C4314 C4315 1.370 . S
C4314 C4318 1.524 . S
C4315 C4307 1.503 . S
C4315 C4314 1.370 . S
C4315 C4316 1.403 . S
C4316 C4315 1.403 . S
C4316 C4317 1.404 . S
C4316 C4319 1.539 . S
C4317 C4313 1.408 . S
C4317 C4316 1.404 . S
C4317 H4329 0.930 . S
C4318 C4314 1.524 . S
C4318 H4330 0.956 . S
C4318 H4331 0.961 . S
C4318 H4332 1.010 . S
C4319 C4316 1.539 . S
C4319 H4333 0.958 . S
C4319 H4334 0.961 . S
C4319 H4335 0.960 . S
H4320 C4304 0.931 . S
H4321 C4309 0.929 . S
H4322 C4310 0.960 . S
H4323 C4310 0.962 . S
H4324 C4310 0.960 . S
H4325 C4311 0.961 . S
H4326 C4311 0.961 . S
H4327 C4311 0.961 . S
H4328 C4312 0.931 1_455 S
H4329 C4317 0.930 . S
H4330 C4318 0.956 . S
H4331 C4318 0.961 . S
H4332 C4318 1.010 . S
H4333 C4319 0.958 . S
H4334 C4319 0.961 . S
H4335 C4319 0.960 . S
C4336 C4337 1.391 . S
C4336 C4338 1.394 . S
C4336 H4352 0.931 . S
C4337 C4336 1.391 . S
C4337 C4341 1.376 . S
C4338 C4336 1.394 . S
C4338 C4339 1.369 . S
C4338 C4342 1.531 . S
C4339 C4338 1.369 . S
C4339 C4340 1.410 . S
C4339 C4347 1.503 . S
C4340 C4339 1.410 . S
C4340 C4341 1.392 . S
C4340 C4343 1.511 . S
C4341 C4337 1.376 . S
C4341 C4340 1.392 . S
C4341 H4353 0.929 . S
C4342 C4338 1.531 . S
C4342 H4354 0.960 . S
C4342 H4355 0.962 . S
C4342 H4356 0.960 . S
C4343 C4340 1.511 . S
C4343 H4357 0.961 . S
C4343 H4358 0.961 . S
C4343 H4359 0.961 . S
C4344 C4345 1.370 . S
C4344 C4346 1.363 . S
C4344 H4360 0.931 . S
C4345 C4344 1.370 . S
C4345 C4349 1.408 . S
C4346 C4344 1.363 . S
C4346 C4347 1.370 . S
C4346 C4350 1.524 . S
C4347 C4339 1.503 . S
C4347 C4346 1.370 . S
C4347 C4348 1.403 . S
C4348 C4347 1.403 . S
C4348 C4349 1.404 . S
C4348 C4351 1.539 . S
C4349 C4345 1.408 . S
C4349 C4348 1.404 . S
C4349 H4361 0.930 . S
C4350 C4346 1.524 . S
C4350 H4362 0.956 . S
C4350 H4363 0.961 . S
C4350 H4364 0.961 . S
C4351 C4348 1.539 . S
C4351 H4365 0.958 . S
C4351 H4366 0.961 . S
C4351 H4367 0.960 . S
H4352 C4336 0.931 . S
H4353 C4341 0.929 . S
H4354 C4342 0.960 . S
H4355 C4342 0.962 . S
H4356 C4342 0.960 . S
H4357 C4343 0.961 . S
H4358 C4343 0.961 . S
H4359 C4343 0.961 . S
H4360 C4344 0.931 . S
H4361 C4349 0.930 . S
H4362 C4350 0.956 . S
H4363 C4350 0.961 . S
H4364 C4350 0.961 . S
H4365 C4351 0.958 . S
H4366 C4351 0.961 . S
H4367 C4351 0.960 . S
C4368 C4369 1.391 . S
C4368 C4370 1.394 . S
C4368 H4384 0.931 . S
C4369 C4368 1.391 . S
C4369 C4373 1.376 . S
C4370 C4368 1.394 . S
C4370 C4371 1.369 . S
C4370 C4374 1.531 . S
C4371 C4370 1.369 . S
C4371 C4372 1.410 . S
C4371 C4379 1.503 . S
C4372 C4371 1.410 . S
C4372 C4373 1.392 . S
C4372 C4375 1.511 . S
C4373 C4369 1.376 . S
C4373 C4372 1.392 . S
C4373 H4385 0.929 . S
C4374 C4370 1.531 . S
C4374 H4386 0.960 . S
C4374 H4387 0.962 . S
C4374 H4388 0.960 . S
C4375 C4372 1.511 . S
C4375 H4389 0.961 . S
C4375 H4390 0.961 . S
C4375 H4391 0.961 . S
C4376 C4377 1.370 . S
C4376 C4378 1.363 . S
C4376 H4392 0.931 . S
C4377 C4376 1.370 . S
C4377 C4381 1.408 . S
C4378 C4376 1.363 . S
C4378 C4379 1.370 . S
C4378 C4382 1.524 . S
C4379 C4371 1.503 . S
C4379 C4378 1.370 . S
C4379 C4380 1.403 . S
C4380 C4379 1.403 . S
C4380 C4381 1.404 . S
C4380 C4383 1.539 . S
C4381 C4377 1.408 . S
C4381 C4380 1.404 . S
C4381 H4393 0.930 . S
C4382 C4378 1.524 . S
C4382 H4394 0.956 . S
C4382 H4395 0.961 . S
C4382 H4396 0.961 . S
C4383 C4380 1.539 . S
C4383 H4397 0.958 . S
C4383 H4398 0.961 . S
C4383 H4399 0.960 . S
H4384 C4368 0.931 . S
H4385 C4373 0.929 . S
H4386 C4374 0.960 . S
H4387 C4374 0.962 . S
H4388 C4374 0.960 . S
H4389 C4375 0.961 . S
H4390 C4375 0.961 . S
H4391 C4375 0.961 . S
H4392 C4376 0.931 . S
H4393 C4381 0.930 . S
H4394 C4382 0.956 . S
H4395 C4382 0.961 . S
H4396 C4382 0.961 . S
H4397 C4383 0.958 . S
H4398 C4383 0.961 . S
H4399 C4383 0.960 . S
C4400 C4401 1.391 . S
C4400 C4402 1.394 . S
C4400 H4416 0.931 . S
C4401 C4400 1.391 . S
C4401 C4405 1.376 . S
C4402 C4400 1.394 . S
C4402 C4403 1.369 . S
C4402 C4406 1.531 . S
C4403 C4402 1.369 . S
C4403 C4404 1.410 . S
C4403 C4411 1.503 . S
C4404 C4403 1.410 . S
C4404 C4405 1.392 . S
C4404 C4407 1.511 . S
C4405 C4401 1.376 . S
C4405 C4404 1.392 . S
C4405 H4417 0.929 . S
C4406 C4402 1.531 . S
C4406 H4418 0.960 . S
C4406 H4419 0.962 . S
C4406 H4420 0.960 . S
C4407 C4404 1.511 . S
C4407 H4421 0.961 . S
C4407 H4422 0.961 . S
C4407 H4423 0.961 . S
C4408 C4409 1.370 . S
C4408 C4410 1.363 . S
C4408 H4424 0.931 . S
C4409 C4408 1.370 . S
C4409 C4413 1.408 . S
C4410 C4408 1.363 . S
C4410 C4411 1.370 . S
C4410 C4414 1.524 . S
C4411 C4403 1.503 . S
C4411 C4410 1.370 . S
C4411 C4412 1.403 . S
C4412 C4411 1.403 . S
C4412 C4413 1.404 . S
C4412 C4415 1.539 . S
C4413 C4409 1.408 . S
C4413 C4412 1.404 . S
C4413 H4425 0.930 . S
C4414 C4410 1.524 . S
C4414 H4426 0.956 . S
C4414 H4427 0.961 . S
C4414 H4428 0.961 . S
C4415 C4412 1.539 . S
C4415 H4429 0.958 . S
C4415 H4430 0.961 . S
C4415 H4431 0.960 . S
H4416 C4400 0.931 . S
H4417 C4405 0.929 . S
H4418 C4406 0.960 . S
H4419 C4406 0.962 . S
H4420 C4406 0.960 . S
H4421 C4407 0.961 . S
H4422 C4407 0.961 . S
H4423 C4407 0.961 . S
H4424 C4408 0.931 . S
H4425 C4413 0.930 . S
H4426 C4414 0.956 . S
H4427 C4414 0.961 . S
H4428 C4414 0.961 . S
H4429 C4415 0.958 . S
H4430 C4415 0.961 . S
H4431 C4415 0.960 . S
C4432 C4433 1.391 . S
C4432 C4434 1.394 . S
C4432 H4448 0.931 . S
C4433 C4432 1.391 . S
C4433 C4437 1.376 . S
C4434 C4432 1.394 . S
C4434 C4435 1.369 . S
C4434 C4438 1.531 . S
C4435 C4434 1.369 . S
C4435 C4436 1.410 . S
C4435 C4443 1.503 . S
C4436 C4435 1.410 . S
C4436 C4437 1.392 . S
C4436 C4439 1.511 . S
C4437 C4433 1.376 . S
C4437 C4436 1.392 . S
C4437 H4449 0.929 . S
C4438 C4434 1.531 . S
C4438 H4450 0.960 . S
C4438 H4451 0.962 . S
C4438 H4452 0.960 . S
C4439 C4436 1.511 . S
C4439 H4453 0.961 . S
C4439 H4454 0.961 . S
C4439 H4455 0.961 . S
C4440 C4441 1.370 . S
C4440 C4442 1.363 . S
C4440 H4456 0.931 . S
C4441 C4440 1.370 . S
C4441 C4445 1.408 . S
C4442 C4440 1.363 . S
C4442 C4443 1.370 . S
C4442 C4446 1.524 . S
C4443 C4435 1.503 . S
C4443 C4442 1.370 . S
C4443 C4444 1.403 . S
C4444 C4443 1.403 . S
C4444 C4445 1.404 . S
C4444 C4447 1.539 . S
C4445 C4441 1.408 . S
C4445 C4444 1.404 . S
C4445 H4457 0.930 . S
C4446 C4442 1.524 . S
C4446 H4458 0.956 . S
C4446 H4459 0.961 . S
C4446 H4460 0.961 . S
C4447 C4444 1.539 . S
C4447 H4461 0.958 . S
C4447 H4462 0.961 . S
C4447 H4463 0.960 . S
H4448 C4432 0.931 . S
H4449 C4437 0.929 . S
H4450 C4438 0.960 . S
H4451 C4438 0.962 . S
H4452 C4438 0.960 . S
H4453 C4439 0.961 . S
H4454 C4439 0.961 . S
H4455 C4439 0.961 . S
H4456 C4440 0.931 . S
H4457 C4445 0.930 . S
H4458 C4446 0.956 . S
H4459 C4446 0.961 . S
H4460 C4446 0.961 . S
H4461 C4447 0.958 . S
H4462 C4447 0.961 . S
H4463 C4447 0.960 . S
C4464 C4465 1.391 . S
C4464 C4466 1.394 . S
C4464 H4480 0.931 . S
C4465 C4464 1.391 . S
C4465 C4469 1.376 . S
C4466 C4464 1.394 . S
C4466 C4467 1.369 . S
C4466 C4470 1.531 . S
C4467 C4466 1.369 . S
C4467 C4468 1.410 . S
C4467 C4475 1.503 . S
C4468 C4467 1.410 . S
C4468 C4469 1.392 . S
C4468 C4471 1.511 . S
C4469 C4465 1.376 . S
C4469 C4468 1.392 . S
C4469 H4481 0.929 . S
C4470 C4466 1.531 . S
C4470 H4482 0.960 . S
C4470 H4483 0.962 . S
C4470 H4484 0.960 . S
C4471 C4468 1.511 . S
C4471 H4485 0.961 . S
C4471 H4486 0.961 . S
C4471 H4487 0.961 . S
C4472 C4473 1.370 . S
C4472 C4474 1.363 . S
C4472 H4488 0.931 . S
C4473 C4472 1.370 . S
C4473 C4477 1.408 . S
C4474 C4472 1.363 . S
C4474 C4475 1.370 . S
C4474 C4478 1.524 . S
C4475 C4467 1.503 . S
C4475 C4474 1.370 . S
C4475 C4476 1.403 . S
C4476 C4475 1.403 . S
C4476 C4477 1.404 . S
C4476 C4479 1.539 . S
C4477 C4473 1.408 . S
C4477 C4476 1.404 . S
C4477 H4489 0.930 . S
C4478 C4474 1.524 . S
C4478 H4490 0.956 . S
C4478 H4491 0.961 . S
C4478 H4492 0.961 . S
C4479 C4476 1.539 . S
C4479 H4493 0.958 . S
C4479 H4494 0.961 . S
C4479 H4495 0.960 . S
H4480 C4464 0.931 . S
H4481 C4469 0.929 . S
H4482 C4470 0.960 . S
H4483 C4470 0.962 . S
H4484 C4470 0.960 . S
H4485 C4471 0.961 . S
H4486 C4471 0.961 . S
H4487 C4471 0.961 . S
H4488 C4472 0.931 . S
H4489 C4477 0.930 . S
H4490 C4478 0.956 . S
H4491 C4478 0.961 . S
H4492 C4478 0.961 . S
H4493 C4479 0.958 . S
H4494 C4479 0.961 . S
H4495 C4479 0.960 . S
C4496 C4497 1.391 . S
C4496 C4498 1.394 . S
C4496 H4512 0.931 . S
C4497 C4496 1.391 . S
C4497 C4501 1.376 . S
C4498 C4496 1.394 . S
C4498 C4499 1.369 . S
C4498 C4502 1.531 . S
C4499 C4498 1.369 . S
C4499 C4500 1.410 . S
C4499 C4507 1.503 . S
C4500 C4499 1.410 . S
C4500 C4501 1.392 . S
C4500 C4503 1.511 . S
C4501 C4497 1.376 . S
C4501 C4500 1.392 . S
C4501 H4513 0.929 . S
C4502 C4498 1.531 . S
C4502 H4514 0.960 . S
C4502 H4515 0.962 . S
C4502 H4516 0.960 . S
C4503 C4500 1.511 . S
C4503 H4517 0.961 . S
C4503 H4518 0.961 . S
C4503 H4519 0.961 . S
C4504 C4505 1.370 . S
C4504 C4506 1.363 . S
C4504 H4520 0.931 . S
C4505 C4504 1.370 . S
C4505 C4509 1.408 . S
C4506 C4504 1.363 . S
C4506 C4507 1.370 . S
C4506 C4510 1.524 . S
C4507 C4499 1.503 . S
C4507 C4506 1.370 . S
C4507 C4508 1.403 . S
C4508 C4507 1.403 . S
C4508 C4509 1.404 . S
C4508 C4511 1.539 . S
C4509 C4505 1.408 . S
C4509 C4508 1.404 . S
C4509 H4521 0.930 . S
C4510 C4506 1.524 . S
C4510 H4522 0.956 . S
C4510 H4523 0.961 . S
C4510 H4524 0.961 . S
C4511 C4508 1.539 . S
C4511 H4525 0.958 . S
C4511 H4526 0.961 . S
C4511 H4527 0.960 . S
H4512 C4496 0.931 . S
H4513 C4501 0.929 . S
H4514 C4502 0.960 . S
H4515 C4502 0.962 . S
H4516 C4502 0.960 . S
H4517 C4503 0.961 . S
H4518 C4503 0.961 . S
H4519 C4503 0.961 . S
H4520 C4504 0.931 . S
H4521 C4509 0.930 . S
H4522 C4510 0.956 . S
H4523 C4510 0.961 . S
H4524 C4510 0.961 . S
H4525 C4511 0.958 . S
H4526 C4511 0.961 . S
H4527 C4511 0.960 . S
C4528 C4529 1.391 . S
C4528 C4530 1.394 . S
C4528 H4544 0.931 . S
C4529 C4528 1.391 . S
C4529 C4533 1.376 . S
C4530 C4528 1.394 . S
C4530 C4531 1.369 . S
C4530 C4534 1.531 . S
C4531 C4530 1.369 . S
C4531 C4532 1.410 . S
C4531 C4539 1.503 . S
C4532 C4531 1.410 . S
C4532 C4533 1.392 . S
C4532 C4535 1.511 . S
C4533 C4529 1.376 . S
C4533 C4532 1.392 . S
C4533 H4545 0.929 . S
C4534 C4530 1.531 . S
C4534 H4546 0.960 . S
C4534 H4547 0.962 . S
C4534 H4548 0.960 . S
C4535 C4532 1.511 . S
C4535 H4549 0.961 . S
C4535 H4550 0.961 . S
C4535 H4551 0.961 . S
C4536 C4537 1.370 . S
C4536 C4538 1.363 . S
C4536 H4552 0.931 1_565 S
C4537 C4536 1.370 . S
C4537 C4541 1.408 . S
C4538 C4536 1.363 . S
C4538 C4539 1.370 . S
C4538 C4542 1.524 . S
C4539 C4531 1.503 . S
C4539 C4538 1.370 . S
C4539 C4540 1.403 . S
C4540 C4539 1.403 . S
C4540 C4541 1.404 . S
C4540 C4543 1.539 . S
C4541 C4537 1.408 . S
C4541 C4540 1.404 . S
C4541 H4553 0.930 . S
C4542 C4538 1.524 . S
C4542 H4554 0.956 . S
C4542 H4555 0.961 . S
C4542 H4556 0.961 1_565 S
C4543 C4540 1.539 . S
C4543 H4557 0.958 . S
C4543 H4558 0.961 . S
C4543 H4559 0.960 . S
H4544 C4528 0.931 . S
H4545 C4533 0.929 . S
H4546 C4534 0.960 . S
H4547 C4534 0.962 . S
H4548 C4534 0.960 . S
H4549 C4535 0.961 . S
H4550 C4535 0.961 . S
H4551 C4535 0.961 . S
H4552 C4536 0.931 1_545 S
H4553 C4541 0.930 . S
H4554 C4542 0.956 . S
H4555 C4542 0.961 . S
H4556 C4542 0.961 1_545 S
H4557 C4543 0.958 . S
H4558 C4543 0.961 . S
H4559 C4543 0.960 . S
C4560 C4561 1.391 . S
C4560 C4562 1.394 . S
C4560 H4576 0.931 . S
C4561 C4560 1.391 . S
C4561 C4565 1.376 . S
C4562 C4560 1.394 . S
C4562 C4563 1.369 . S
C4562 C4566 1.531 . S
C4563 C4562 1.369 . S
C4563 C4564 1.410 . S
C4563 C4571 1.503 . S
C4564 C4563 1.410 . S
C4564 C4565 1.392 . S
C4564 C4567 1.511 . S
C4565 C4561 1.376 . S
C4565 C4564 1.392 . S
C4565 H4577 0.929 . S
C4566 C4562 1.531 . S
C4566 H4578 0.960 . S
C4566 H4579 0.962 . S
C4566 H4580 0.960 . S
C4567 C4564 1.511 . S
C4567 H4581 0.961 . S
C4567 H4582 0.961 . S
C4567 H4583 0.961 . S
C4568 C4569 1.370 . S
C4568 C4570 1.363 . S
C4568 H4584 0.931 . S
C4569 C4568 1.370 . S
C4569 C4573 1.408 . S
C4570 C4568 1.363 . S
C4570 C4571 1.370 . S
C4570 C4574 1.524 . S
C4571 C4563 1.503 . S
C4571 C4570 1.370 . S
C4571 C4572 1.403 . S
C4572 C4571 1.403 . S
C4572 C4573 1.404 . S
C4572 C4575 1.539 . S
C4573 C4569 1.408 . S
C4573 C4572 1.404 . S
C4573 H4585 0.930 . S
C4574 C4570 1.524 . S
C4574 H4586 0.956 . S
C4574 H4587 0.961 . S
C4574 H4588 0.961 . S
C4575 C4572 1.539 . S
C4575 H4589 0.958 . S
C4575 H4590 0.961 . S
C4575 H4591 0.960 . S
H4576 C4560 0.931 . S
H4577 C4565 0.929 . S
H4578 C4566 0.960 . S
H4579 C4566 0.962 . S
H4580 C4566 0.960 . S
H4581 C4567 0.961 . S
H4582 C4567 0.961 . S
H4583 C4567 0.961 . S
H4584 C4568 0.931 . S
H4585 C4573 0.930 . S
H4586 C4574 0.956 . S
H4587 C4574 0.961 . S
H4588 C4574 0.961 . S
H4589 C4575 0.958 . S
H4590 C4575 0.961 . S
H4591 C4575 0.960 . S
C4592 C4593 1.391 . S
C4592 C4594 1.394 . S
C4592 H4608 0.931 . S
C4593 C4592 1.391 . S
C4593 C4597 1.376 . S
C4594 C4592 1.394 . S
C4594 C4595 1.369 . S
C4594 C4598 1.531 . S
C4595 C4594 1.369 . S
C4595 C4596 1.410 . S
C4595 C4603 1.503 . S
C4596 C4595 1.410 . S
C4596 C4597 1.392 . S
C4596 C4599 1.511 . S
C4597 C4593 1.376 . S
C4597 C4596 1.392 . S
C4597 H4609 0.929 . S
C4598 C4594 1.531 . S
C4598 H4610 0.960 . S
C4598 H4611 0.962 1_554 S
C4598 H4612 0.960 1_554 S
C4599 C4596 1.511 . S
C4599 H4613 0.961 . S
C4599 H4614 0.961 . S
C4599 H4615 0.961 . S
C4600 C4601 1.370 . S
C4600 C4602 1.363 . S
C4600 H4616 0.931 . S
C4601 C4600 1.370 . S
C4601 C4605 1.408 . S
C4602 C4600 1.363 . S
C4602 C4603 1.370 . S
C4602 C4606 1.524 . S
C4603 C4595 1.503 . S
C4603 C4602 1.370 . S
C4603 C4604 1.403 . S
C4604 C4603 1.403 . S
C4604 C4605 1.404 . S
C4604 C4607 1.539 . S
C4605 C4601 1.408 . S
C4605 C4604 1.404 . S
C4605 H4617 0.930 . S
C4606 C4602 1.524 . S
C4606 H4618 0.956 . S
C4606 H4619 0.961 . S
C4606 H4620 0.961 . S
C4607 C4604 1.539 . S
C4607 H4621 0.958 . S
C4607 H4622 0.961 . S
C4607 H4623 0.960 . S
H4608 C4592 0.931 . S
H4609 C4597 0.929 . S
H4610 C4598 0.960 . S
H4611 C4598 0.962 1_556 S
H4612 C4598 0.960 1_556 S
H4613 C4599 0.961 . S
H4614 C4599 0.961 . S
H4615 C4599 0.961 . S
H4616 C4600 0.931 . S
H4617 C4605 0.930 . S
H4618 C4606 0.956 . S
H4619 C4606 0.961 . S
H4620 C4606 0.961 . S
H4621 C4607 0.958 . S
H4622 C4607 0.961 . S
H4623 C4607 0.960 . S
C4624 C4625 1.391 . S
C4624 C4626 1.394 . S
C4624 H4640 0.931 . S
C4625 C4624 1.391 . S
C4625 C4629 1.376 . S
C4626 C4624 1.394 . S
C4626 C4627 1.369 . S
C4626 C4630 1.531 . S
C4627 C4626 1.369 . S
C4627 C4628 1.410 . S
C4627 C4635 1.503 . S
C4628 C4627 1.410 . S
C4628 C4629 1.392 . S
C4628 C4631 1.511 . S
C4629 C4625 1.376 . S
C4629 C4628 1.392 . S
C4629 H4641 0.929 . S
C4630 C4626 1.531 . S
C4630 H4642 0.960 . S
C4630 H4643 0.962 . S
C4630 H4644 0.960 . S
C4631 C4628 1.511 . S
C4631 H4645 0.961 . S
C4631 H4646 0.961 . S
C4631 H4647 0.961 . S
C4632 C4633 1.370 . S
C4632 C4634 1.363 . S
C4632 H4648 0.931 . S
C4633 C4632 1.370 . S
C4633 C4637 1.408 . S
C4634 C4632 1.363 . S
C4634 C4635 1.370 . S
C4634 C4638 1.524 . S
C4635 C4627 1.503 . S
C4635 C4634 1.370 . S
C4635 C4636 1.403 . S
C4636 C4635 1.403 . S
C4636 C4637 1.404 . S
C4636 C4639 1.539 . S
C4637 C4633 1.408 . S
C4637 C4636 1.404 . S
C4637 H4649 0.930 . S
C4638 C4634 1.524 . S
C4638 H4650 0.956 . S
C4638 H4651 0.961 . S
C4638 H4652 0.961 . S
C4639 C4636 1.539 . S
C4639 H4653 0.958 . S
C4639 H4654 0.961 . S
C4639 H4655 0.960 . S
H4640 C4624 0.931 . S
H4641 C4629 0.929 . S
H4642 C4630 0.960 . S
H4643 C4630 0.962 . S
H4644 C4630 0.960 . S
H4645 C4631 0.961 . S
H4646 C4631 0.961 . S
H4647 C4631 0.961 . S
H4648 C4632 0.931 . S
H4649 C4637 0.930 . S
H4650 C4638 0.956 . S
H4651 C4638 0.961 . S
H4652 C4638 0.961 . S
H4653 C4639 0.958 . S
H4654 C4639 0.961 . S
H4655 C4639 0.960 . S
C4656 C4657 1.391 . S
C4656 C4658 1.394 . S
C4656 H4672 0.931 . S
C4657 C4656 1.391 . S
C4657 C4661 1.376 . S
C4658 C4656 1.394 . S
C4658 C4659 1.369 . S
C4658 C4662 1.531 . S
C4659 C4658 1.369 . S
C4659 C4660 1.410 . S
C4659 C4667 1.503 . S
C4660 C4659 1.410 . S
C4660 C4661 1.392 . S
C4660 C4663 1.511 . S
C4661 C4657 1.376 . S
C4661 C4660 1.392 . S
C4661 H4673 0.929 . S
C4662 C4658 1.531 . S
C4662 H4674 0.960 . S
C4662 H4675 0.962 . S
C4662 H4676 0.960 . S
C4663 C4660 1.511 . S
C4663 H4677 0.961 1_554 S
C4663 H4678 0.961 1_554 S
C4663 H4679 0.961 . S
C4664 C4665 1.370 . S
C4664 C4666 1.363 . S
C4664 H4680 0.931 . S
C4665 C4664 1.370 . S
C4665 C4669 1.408 . S
C4666 C4664 1.363 . S
C4666 C4667 1.370 . S
C4666 C4670 1.524 . S
C4667 C4659 1.503 . S
C4667 C4666 1.370 . S
C4667 C4668 1.403 . S
C4668 C4667 1.403 . S
C4668 C4669 1.404 . S
C4668 C4671 1.539 . S
C4669 C4665 1.408 . S
C4669 C4668 1.404 . S
C4669 H4681 0.930 . S
C4670 C4666 1.524 . S
C4670 H4682 0.956 . S
C4670 H4683 0.961 1_554 S
C4670 H4684 0.961 1_554 S
C4671 C4668 1.539 . S
C4671 H4685 0.958 . S
C4671 H4686 0.961 . S
C4671 H4687 0.960 . S
H4672 C4656 0.931 . S
H4673 C4661 0.929 . S
H4674 C4662 0.960 . S
H4675 C4662 0.962 . S
H4676 C4662 0.960 . S
H4677 C4663 0.961 1_556 S
H4678 C4663 0.961 1_556 S
H4679 C4663 0.961 . S
H4680 C4664 0.931 . S
H4681 C4669 0.930 . S
H4682 C4670 0.956 . S
H4683 C4670 0.961 1_556 S
H4684 C4670 0.961 1_556 S
H4685 C4671 0.958 . S
H4686 C4671 0.961 . S
H4687 C4671 0.960 . S
C4688 C4689 1.391 . S
C4688 C4690 1.394 . S
C4688 H4704 0.931 . S
C4689 C4688 1.391 . S
C4689 C4693 1.376 . S
C4690 C4688 1.394 . S
C4690 C4691 1.369 . S
C4690 C4694 1.531 . S
C4691 C4690 1.369 . S
C4691 C4692 1.410 . S
C4691 C4699 1.503 . S
C4692 C4691 1.410 . S
C4692 C4693 1.392 . S
C4692 C4695 1.511 . S
C4693 C4689 1.376 . S
C4693 C4692 1.392 . S
C4693 H4705 0.929 . S
C4694 C4690 1.531 . S
C4694 H4706 0.960 . S
C4694 H4707 0.962 . S
C4694 H4708 0.960 . S
C4695 C4692 1.511 . S
C4695 H4709 0.961 . S
C4695 H4710 0.961 . S
C4695 H4711 0.961 . S
C4696 C4697 1.370 . S
C4696 C4698 1.363 . S
C4696 H4712 0.931 . S
C4697 C4696 1.370 . S
C4697 C4701 1.408 . S
C4698 C4696 1.363 . S
C4698 C4699 1.370 . S
C4698 C4702 1.524 . S
C4699 C4691 1.503 . S
C4699 C4698 1.370 . S
C4699 C4700 1.403 . S
C4700 C4699 1.403 . S
C4700 C4701 1.404 . S
C4700 C4703 1.539 . S
C4701 C4697 1.408 . S
C4701 C4700 1.404 . S
C4701 H4713 0.930 . S
C4702 C4698 1.524 . S
C4702 H4714 0.956 . S
C4702 H4715 0.961 . S
C4702 H4716 0.961 . S
C4703 C4700 1.539 . S
C4703 H4717 0.958 . S
C4703 H4718 0.961 . S
C4703 H4719 0.960 . S
H4704 C4688 0.931 . S
H4705 C4693 0.929 . S
H4706 C4694 0.960 . S
H4707 C4694 0.962 . S
H4708 C4694 0.960 . S
H4709 C4695 0.961 . S
H4710 C4695 0.961 . S
H4711 C4695 0.961 . S
H4712 C4696 0.931 . S
H4713 C4701 0.930 . S
H4714 C4702 0.956 . S
H4715 C4702 0.961 . S
H4716 C4702 0.961 . S
H4717 C4703 0.958 . S
H4718 C4703 0.961 . S
H4719 C4703 0.960 . S
C4720 C4721 1.391 . S
C4720 C4722 1.394 . S
C4720 H4736 0.931 . S
C4721 C4720 1.391 . S
C4721 C4725 1.376 . S
C4722 C4720 1.394 . S
C4722 C4723 1.369 . S
C4722 C4726 1.531 . S
C4723 C4722 1.369 . S
C4723 C4724 1.410 . S
C4723 C4731 1.503 . S
C4724 C4723 1.410 . S
C4724 C4725 1.392 . S
C4724 C4727 1.511 . S
C4725 C4721 1.376 . S
C4725 C4724 1.392 . S
C4725 H4737 0.929 . S
C4726 C4722 1.531 . S
C4726 H4738 0.960 . S
C4726 H4739 0.962 . S
C4726 H4740 0.960 . S
C4727 C4724 1.511 . S
C4727 H4741 0.961 . S
C4727 H4742 0.961 . S
C4727 H4743 0.961 . S
C4728 C4729 1.370 . S
C4728 C4730 1.363 . S
C4728 H4744 0.931 . S
C4729 C4728 1.370 . S
C4729 C4733 1.408 . S
C4730 C4728 1.363 . S
C4730 C4731 1.370 . S
C4730 C4734 1.524 . S
C4731 C4723 1.503 . S
C4731 C4730 1.370 . S
C4731 C4732 1.403 . S
C4732 C4731 1.403 . S
C4732 C4733 1.404 . S
C4732 C4735 1.539 . S
C4733 C4729 1.408 . S
C4733 C4732 1.404 . S
C4733 H4745 0.930 . S
C4734 C4730 1.524 . S
C4734 H4746 0.956 . S
C4734 H4747 0.961 . S
C4734 H4748 0.961 . S
C4735 C4732 1.539 . S
C4735 H4749 0.958 . S
C4735 H4750 0.961 . S
C4735 H4751 0.960 . S
H4736 C4720 0.931 . S
H4737 C4725 0.929 . S
H4738 C4726 0.960 . S
H4739 C4726 0.962 . S
H4740 C4726 0.960 . S
H4741 C4727 0.961 . S
H4742 C4727 0.961 . S
H4743 C4727 0.961 . S
H4744 C4728 0.931 . S
H4745 C4733 0.930 . S
H4746 C4734 0.956 . S
H4747 C4734 0.961 . S
H4748 C4734 0.961 . S
H4749 C4735 0.958 . S
H4750 C4735 0.961 . S
H4751 C4735 0.960 . S
C1681 C111 2.069 . S
C1689 C392 2.085 . S
C1713 C64 1.832 . S
C1721 C494 1.913 . S
C1745 C77 1.789 . S
C1753 C560 1.784 . S
C1785 C646 1.219 . S
C1777 C95 1.331 . S
C1809 C25 1.330 . S
C1817 C730 1.231 . S
C1849 C812 1.872 . S
C1841 C36 1.784 . S
C1881 C914 1.895 . S
C1873 C50 1.848 . S
C1905 C11 2.001 . S
C1913 C980 2.022 . S
C1945 C410 1.609 . S
C1937 C237 1.607 . S
C1969 C245 0.886 . S
C1977 C478 0.867 . S
C2009 C578 1.016 . S
C2001 C279 0.949 . S
C2041 C644 1.547 . S
C2033 C175 1.536 1_556 S
C2065 C231 1.517 . S
C2073 C728 1.510 . S
C2105 C830 1.034 . S
C2097 C251 1.028 . S
C2137 C898 0.894 . S
C2129 C273 0.885 . S
C2169 C998 1.609 . S
C2161 C181 1.613 . S
C2201 C394 0.881 . S
C2193 C165 0.907 1_554 S
C2225 C288 1.603 . S
C2233 C1082 1.659 . S
C2265 C1150 1.274 . S
C2257 C333 1.329 . S
C2297 C1232 0.787 . S
C2289 C316 0.765 . S
C2321 C123 0.880 . S
C2329 C982 0.870 . S
C2353 C137 1.300 . S
C2361 C562 1.212 . S
C2385 C330 1.586 . S
C2393 C1334 1.668 . S
C2425 C1400 0.793 . S
C2417 C302 0.722 . S
C2457 C403 2.219 . S
C2449 C63 2.214 . S
C2489 C1407 1.956 . S
C2481 C106 1.938 . S
C2513 C97 1.810 . S
C2521 C571 1.872 . S
C2545 C81 1.371 . S
C2553 C1329 1.282 . S
C2585 C741 1.322 . S
C2577 C13 1.326 . S
C2609 C55 1.811 . S
C2617 C1159 1.870 . S
C2649 C903 1.866 1_556 S
C2641 C35 1.848 . S
C2681 C1495 2.217 . S
C2673 C21 2.198 . S
C2713 C399 1.723 . S
C2705 C147 1.781 . S
C2745 C1413 0.829 . S
C2737 C321 0.825 . S
C2769 C119 1.102 . S
C2777 C567 1.090 . S
C2801 C293 1.590 . S
C2809 C1327 1.652 . S
C2833 C153 1.553 . S
C2841 C739 1.659 . S
C2873 C1155 1.085 . S
C2865 C315 1.106 . S
C2897 C125 0.893 . S
C2905 C909 0.887 . S
C2929 C287 1.773 . S
C2937 C1491 1.722 . S
C2961 C193 0.960 . S
C2969 C405 0.939 . S
C2993 C176 1.686 . S
C3001 C1071 1.683 . S
C3025 C263 1.285 . S
C3033 C825 1.237 . S
C3057 C246 0.888 . S
C3065 C1243 0.955 . S
C3097 C1497 0.966 . S
C3089 C277 0.982 . S
C3121 C221 1.323 . S
C3129 C573 1.264 . S
C3161 C651 1.701 . S
C3153 C260 1.715 . S
C3193 C487 0.930 . S
C3185 C204 0.963 . S
C3217 C83 2.082 . S
C3225 C1568 2.089 . S
C3257 C1418 1.912 . S
C3249 C92 1.828 . S
C3281 C105 1.774 . S
C3289 C1652 1.789 . S
C3313 C67 1.332 . S
C3321 C1318 1.207 . S
C3345 C53 1.337 . S
C3353 C1066 1.220 . S
C3385 C1148 1.867 . S
C3377 C8 1.748 1_655 S
C3417 C1250 1.886 . S
C3409 C22 1.821 . S
C3449 C1484 2.020 . S
C3441 C39 1.986 . S
C3481 C1586 1.609 . S
C3473 C265 1.605 . S
C3505 C189 0.888 . S
C3513 C1402 0.827 . S
C3545 C1670 1.014 . S
C3537 C209 0.927 . S
C3577 C1316 1.553 . S
C3569 C217 1.542 . S
C3609 C1064 1.512 . S
C3601 C259 1.515 . S
C3633 C195 1.028 . S
C3641 C1166 1.040 . S
C3673 C1234 0.845 . S
C3665 C203 0.901 . S
C3697 C223 1.603 . S
C3705 C1502 1.604 . S
C3737 C1570 0.884 . S
C3729 C319 0.918 . S
C3761 C134 1.614 . S
C3769 C746 1.674 . S
C3801 C814 1.261 . S
C3793 C151 1.331 1_565 S
C3833 C896 0.784 . S
C3825 C162 0.732 . S
C3865 C1486 0.891 . S
C3857 C305 0.918 . S
C3889 C291 1.297 . S
C3897 C1654 1.248 . S
C3929 C662 1.665 . S
C3921 C148 1.584 . S
C3961 C476 0.796 . S
C3953 C120 0.826 . S
C3985 C91 2.198 . S
C3993 C1579 2.223 . S
C4025 C483 1.956 . S
C4017 C78 1.939 . S
C4049 C69 1.831 . S
C4057 C1663 1.868 . S
C4081 C109 1.380 . S
C4089 C657 1.269 . S
C4113 C41 1.334 . S
C4121 C1077 1.329 . S
C4153 C823 1.875 . S
C4145 C27 1.780 . S
C4177 C7 1.854 . S
C4185 C1239 1.865 . S
C4209 C49 2.212 . S
C4217 C991 2.215 . S
C4249 C1575 1.743 . S
C4241 C329 1.775 . S
C4273 C167 0.908 . S
C4281 C489 0.884 . S
C4313 C1659 1.088 1_655 S
C4305 C301 1.106 . S
C4337 C139 1.553 . S
C4345 C655 1.656 . S
C4369 C335 1.585 . S
C4377 C1075 1.656 . S
C4409 C819 1.098 . S
C4401 C161 1.084 . S
C4433 C307 0.871 . S
C4441 C1245 0.846 . S
C4473 C987 1.720 . S
C4465 C133 1.774 . S
C4505 C1581 0.966 . S
C4497 C249 1.002 . S
C4537 C735 1.687 1_565 S
C4529 C218 1.673 . S
C4561 C235 1.271 . S
C4569 C1161 1.231 . S
C4601 C907 0.948 . S
C4593 C190 0.957 . S
C4625 C207 0.927 . S
C4633 C993 0.943 . S
C4657 C179 1.317 . S
C4665 C1665 1.254 . S
C4697 C1323 1.702 . S
C4689 C232 1.712 . S
C4729 C1411 0.930 . S
C4721 C274 0.953 . S
