# Generated by pormake.
# Topology ocu, (6,8)-cn, num edge types: 1
# Building blocks:
#     Node 0, Type 0, BuildingBlock: JUFBIX_clean_sbu_0, # of connection points: 6
#     Node 1, Type 0, BuildingBlock: JUFBIX_clean_sbu_0, # of connection points: 6
#     Node 2, Type 0, BuildingBlock: JUFBIX_clean_sbu_0, # of connection points: 6
#     Node 3, Type 0, BuildingBlock: JUFBIX_clean_sbu_0, # of connection points: 6
#     Node 4, Type 0, BuildingBlock: JUFBIX_clean_sbu_0, # of connection points: 6
#     Node 5, Type 0, BuildingBlock: JUFBIX_clean_sbu_0, # of connection points: 6
#     Node 6, Type 0, BuildingBlock: JUFBIX_clean_sbu_0, # of connection points: 6
#     Node 7, Type 0, BuildingBlock: JUFBIX_clean_sbu_0, # of connection points: 6
#     Node 8, Type 1, BuildingBlock: TAGTUT_clean_sbu_1, # of connection points: 8
#     Node 9, Type 1, BuildingBlock: TAGTUT_clean_sbu_1, # of connection points: 8
#     Node 10, Type 1, BuildingBlock: TAGTUT_clean_sbu_1, # of connection points: 8
#     Node 11, Type 1, BuildingBlock: TAGTUT_clean_sbu_1, # of connection points: 8
#     Node 12, Type 1, BuildingBlock: TAGTUT_clean_sbu_1, # of connection points: 8
#     Node 13, Type 1, BuildingBlock: TAGTUT_clean_sbu_1, # of connection points: 8
#     Edge 14, Type (0, 1), BuildingBlock: EZIPEK_clean_linker_0, # of connection points: 2
#     Edge 15, Type (0, 1), BuildingBlock: EZIPEK_clean_linker_0, # of connection points: 2
#     Edge 16, Type (0, 1), BuildingBlock: EZIPEK_clean_linker_0, # of connection points: 2
#     Edge 17, Type (0, 1), BuildingBlock: EZIPEK_clean_linker_0, # of connection points: 2
#     Edge 18, Type (0, 1), BuildingBlock: EZIPEK_clean_linker_0, # of connection points: 2
#     Edge 19, Type (0, 1), BuildingBlock: EZIPEK_clean_linker_0, # of connection points: 2
#     Edge 20, Type (0, 1), BuildingBlock: EZIPEK_clean_linker_0, # of connection points: 2
#     Edge 21, Type (0, 1), BuildingBlock: EZIPEK_clean_linker_0, # of connection points: 2
#     Edge 22, Type (0, 1), BuildingBlock: EZIPEK_clean_linker_0, # of connection points: 2
#     Edge 23, Type (0, 1), BuildingBlock: EZIPEK_clean_linker_0, # of connection points: 2
#     Edge 24, Type (0, 1), BuildingBlock: EZIPEK_clean_linker_0, # of connection points: 2
#     Edge 25, Type (0, 1), BuildingBlock: EZIPEK_clean_linker_0, # of connection points: 2
#     Edge 26, Type (0, 1), BuildingBlock: EZIPEK_clean_linker_0, # of connection points: 2
#     Edge 27, Type (0, 1), BuildingBlock: EZIPEK_clean_linker_0, # of connection points: 2
#     Edge 28, Type (0, 1), BuildingBlock: EZIPEK_clean_linker_0, # of connection points: 2
#     Edge 29, Type (0, 1), BuildingBlock: EZIPEK_clean_linker_0, # of connection points: 2
#     Edge 30, Type (0, 1), BuildingBlock: EZIPEK_clean_linker_0, # of connection points: 2
#     Edge 31, Type (0, 1), BuildingBlock: EZIPEK_clean_linker_0, # of connection points: 2
#     Edge 32, Type (0, 1), BuildingBlock: EZIPEK_clean_linker_0, # of connection points: 2
#     Edge 33, Type (0, 1), BuildingBlock: EZIPEK_clean_linker_0, # of connection points: 2
#     Edge 34, Type (0, 1), BuildingBlock: EZIPEK_clean_linker_0, # of connection points: 2
#     Edge 35, Type (0, 1), BuildingBlock: EZIPEK_clean_linker_0, # of connection points: 2
#     Edge 36, Type (0, 1), BuildingBlock: EZIPEK_clean_linker_0, # of connection points: 2
#     Edge 37, Type (0, 1), BuildingBlock: EZIPEK_clean_linker_0, # of connection points: 2
#     Edge 38, Type (0, 1), BuildingBlock: EZIPEK_clean_linker_0, # of connection points: 2
#     Edge 39, Type (0, 1), BuildingBlock: EZIPEK_clean_linker_0, # of connection points: 2
#     Edge 40, Type (0, 1), BuildingBlock: EZIPEK_clean_linker_0, # of connection points: 2
#     Edge 41, Type (0, 1), BuildingBlock: EZIPEK_clean_linker_0, # of connection points: 2
#     Edge 42, Type (0, 1), BuildingBlock: EZIPEK_clean_linker_0, # of connection points: 2
#     Edge 43, Type (0, 1), BuildingBlock: EZIPEK_clean_linker_0, # of connection points: 2
#     Edge 44, Type (0, 1), BuildingBlock: EZIPEK_clean_linker_0, # of connection points: 2
#     Edge 45, Type (0, 1), BuildingBlock: EZIPEK_clean_linker_0, # of connection points: 2
#     Edge 46, Type (0, 1), BuildingBlock: EZIPEK_clean_linker_0, # of connection points: 2
#     Edge 47, Type (0, 1), BuildingBlock: EZIPEK_clean_linker_0, # of connection points: 2
#     Edge 48, Type (0, 1), BuildingBlock: EZIPEK_clean_linker_0, # of connection points: 2
#     Edge 49, Type (0, 1), BuildingBlock: EZIPEK_clean_linker_0, # of connection points: 2
#     Edge 50, Type (0, 1), BuildingBlock: EZIPEK_clean_linker_0, # of connection points: 2
#     Edge 51, Type (0, 1), BuildingBlock: EZIPEK_clean_linker_0, # of connection points: 2
#     Edge 52, Type (0, 1), BuildingBlock: EZIPEK_clean_linker_0, # of connection points: 2
#     Edge 53, Type (0, 1), BuildingBlock: EZIPEK_clean_linker_0, # of connection points: 2
#     Edge 54, Type (0, 1), BuildingBlock: EZIPEK_clean_linker_0, # of connection points: 2
#     Edge 55, Type (0, 1), BuildingBlock: EZIPEK_clean_linker_0, # of connection points: 2
#     Edge 56, Type (0, 1), BuildingBlock: EZIPEK_clean_linker_0, # of connection points: 2
#     Edge 57, Type (0, 1), BuildingBlock: EZIPEK_clean_linker_0, # of connection points: 2
#     Edge 58, Type (0, 1), BuildingBlock: EZIPEK_clean_linker_0, # of connection points: 2
#     Edge 59, Type (0, 1), BuildingBlock: EZIPEK_clean_linker_0, # of connection points: 2
#     Edge 60, Type (0, 1), BuildingBlock: EZIPEK_clean_linker_0, # of connection points: 2
#     Edge 61, Type (0, 1), BuildingBlock: EZIPEK_clean_linker_0, # of connection points: 2
# Relax obj value: 0.218
# Max RMSD: 0.322
# Mean RMSD: 0.177
data_MOF--net-ocu--node1-JUFBIX_clean_sbu_0--node2-TAGTUT_clean_sbu_1--edge1-EZIPEK_clean_linker_0
_symmetry_space_group_name_H-M    P1
_symmetry_Int_Tables_number       1
_symmetry_cell_setting            triclinic
loop_
_symmetry_equiv_pos_as_xyz
'x, y, z'
_cell_length_a     28.584237
_cell_length_b     27.983988
_cell_length_c     29.91325
_cell_angle_alpha  92.561979
_cell_angle_beta   96.242901
_cell_angle_gamma 103.20969
loop_
_atom_site_label
_atom_site_type_symbol
_atom_site_fract_x
_atom_site_fract_y
_atom_site_fract_z
_atom_type_partial_charge
Co0 Co 0.23389 0.23127 0.23971 0.0
C1 C 0.22585 0.30473 0.30356 0.0
Co2 Co 0.2937 0.29682 0.24664 0.0
C3 C 0.16677 0.15526 0.27172 0.0
C4 C 0.14578 0.1604 0.20163 0.0
N5 N 0.18143 0.17862 0.23568 0.0
N6 N 0.12353 0.12363 0.26202 0.0
C7 C 0.10955 0.12654 0.218 0.0
H8 H 0.18594 0.16348 0.30545 0.0
H9 H 0.14493 0.17279 0.16787 0.0
C10 C 0.30129 0.22254 0.18243 0.0
N11 N 0.34676 0.34925 0.25181 0.0
C12 C 0.3915 0.34618 0.2438 0.0
C13 C 0.34952 0.39752 0.25914 0.0
N14 N 0.42258 0.39062 0.24442 0.0
C15 C 0.39569 0.42298 0.2543 0.0
C16 C 0.31149 0.22246 0.30362 0.0
O17 O 0.26136 0.19946 0.19428 0.0
O18 O 0.31978 0.26604 0.19943 0.0
O19 O 0.32905 0.265 0.29097 0.0
O20 O 0.26903 0.20044 0.28581 0.0
O21 O 0.26684 0.32711 0.29334 0.0
H22 H 0.31916 0.41327 0.26442 0.0
H23 H 0.3995 0.31171 0.23414 0.0
O24 O 0.20635 0.2621 0.28513 0.0
O25 O 0.19916 0.2632 0.19442 0.0
O26 O 0.25841 0.32924 0.20247 0.0
C27 C 0.21584 0.30736 0.18466 0.0
H28 H 0.07519 0.10711 0.19973 0.0
H29 H 0.40659 0.46254 0.25367 0.0
Co30 Co 0.81937 0.24606 0.24794 0.0
C31 C 0.80035 0.29827 0.32587 0.0
Co32 Co 0.75073 0.21934 0.27293 0.0
C33 C 0.89277 0.30216 0.20237 0.0
C34 C 0.92172 0.28086 0.26526 0.0
N35 N 0.88038 0.27468 0.23647 0.0
N36 N 0.93958 0.32591 0.20921 0.0
C37 C 0.9586 0.31262 0.24831 0.0
H38 H 0.86738 0.30778 0.17464 0.0
H39 H 0.9242 0.26636 0.29812 0.0
C40 C 0.76861 0.16969 0.19297 0.0
N41 N 0.69173 0.18579 0.2865 0.0
C42 C 0.64975 0.19891 0.29058 0.0
C43 C 0.68097 0.13639 0.28721 0.0
N44 N 0.61311 0.15919 0.2932 0.0
C45 C 0.63315 0.12005 0.29105 0.0
C46 C 0.74516 0.28834 0.20874 0.0
O47 O 0.80821 0.20185 0.19505 0.0
O48 O 0.74284 0.17082 0.22465 0.0
O49 O 0.71982 0.2579 0.23217 0.0
O50 O 0.7908 0.29187 0.21273 0.0
O51 O 0.75824 0.26962 0.32094 0.0
H52 H 0.70633 0.11337 0.28445 0.0
H53 H 0.64632 0.23659 0.29139 0.0
O54 O 0.83046 0.29141 0.29947 0.0
O55 O 0.84724 0.20058 0.28194 0.0
O56 O 0.7818 0.18036 0.31426 0.0
C57 C 0.82467 0.1764 0.31082 0.0
H58 H 0.99508 0.32751 0.2646 0.0
H59 H 0.61509 0.0822 0.29467 0.0
Co60 Co 0.7415 0.70766 0.28708 0.0
C61 C 0.8179 0.78891 0.32167 0.0
Co62 Co 0.75263 0.77183 0.24792 0.0
C63 C 0.78401 0.63623 0.32177 0.0
C64 C 0.7292 0.64519 0.36203 0.0
N65 N 0.74412 0.65408 0.32118 0.0
N66 N 0.79837 0.62282 0.36214 0.0
C67 C 0.76281 0.62568 0.3875 0.0
H68 H 0.8089 0.64234 0.29695 0.0
H69 H 0.70135 0.65988 0.37546 0.0
C70 C 0.67459 0.69163 0.21489 0.0
N71 N 0.75256 0.8232 0.21372 0.0
C72 C 0.73833 0.86431 0.22468 0.0
C73 C 0.75232 0.82123 0.16864 0.0
N74 N 0.72621 0.88623 0.18799 0.0
C75 C 0.73592 0.85997 0.15267 0.0
C76 C 0.80102 0.70877 0.21545 0.0
O77 O 0.68552 0.67235 0.25099 0.0
O78 O 0.70024 0.73343 0.20781 0.0
O79 O 0.79716 0.75247 0.21255 0.0
O80 O 0.77902 0.68357 0.24416 0.0
O81 O 0.80394 0.81023 0.28801 0.0
H82 H 0.75797 0.79069 0.1482 0.0
H83 H 0.73233 0.87545 0.25806 0.0
O84 O 0.79857 0.74381 0.32487 0.0
O85 O 0.70346 0.73288 0.32753 0.0
O86 O 0.70838 0.79248 0.28252 0.0
C87 C 0.6935 0.77342 0.31738 0.0
H88 H 0.76542 0.62289 0.42363 0.0
H89 H 0.72672 0.86531 0.11747 0.0
Co90 Co 0.24378 0.79289 0.23231 0.0
C91 C 0.30189 0.82634 0.31371 0.0
Co92 Co 0.29688 0.75071 0.25231 0.0
C93 C 0.1687 0.83478 0.24908 0.0
C94 C 0.19736 0.86623 0.19146 0.0
N95 N 0.19922 0.8299 0.21937 0.0
N96 N 0.14955 0.87372 0.24321 0.0
C97 C 0.16691 0.89384 0.20652 0.0
H98 H 0.16693 0.81587 0.27977 0.0
H99 H 0.22053 0.87556 0.16534 0.0
C100 C 0.23694 0.71647 0.172 0.0
N101 N 0.34103 0.7138 0.26493 0.0
C102 C 0.36687 0.70196 0.23324 0.0
C103 C 0.34752 0.6845 0.29863 0.0
N104 N 0.38795 0.66557 0.2446 0.0
C105 C 0.37636 0.65403 0.28582 0.0
C106 C 0.20783 0.71399 0.28998 0.0
O107 O 0.21952 0.75326 0.17991 0.0
O108 O 0.27108 0.70873 0.19925 0.0
O109 O 0.25045 0.70738 0.28823 0.0
O110 O 0.19663 0.74756 0.2664 0.0
O111 O 0.32229 0.79191 0.30472 0.0
H112 H 0.32903 0.68223 0.32843 0.0
H113 H 0.36562 0.71545 0.19987 0.0
O114 O 0.2674 0.83314 0.2863 0.0
O115 O 0.29113 0.83738 0.19826 0.0
O116 O 0.34365 0.79425 0.21652 0.0
C117 C 0.33312 0.82963 0.19496 0.0
H118 H 0.16202 0.92843 0.19437 0.0
H119 H 0.38444 0.62328 0.30328 0.0
Co120 Co 0.31939 0.74818 0.74821 0.0
C121 C 0.30325 0.80236 0.82603 0.0
Co122 Co 0.24978 0.72475 0.77271 0.0
C123 C 0.394 0.80293 0.70353 0.0
C124 C 0.42181 0.7805 0.76637 0.0
N125 N 0.3812 0.77381 0.73654 0.0
N126 N 0.44002 0.82867 0.71238 0.0
C127 C 0.45841 0.81465 0.75142 0.0
H128 H 0.36912 0.80883 0.67551 0.0
H129 H 0.42346 0.76556 0.79908 0.0
C130 C 0.26428 0.67299 0.69298 0.0
N131 N 0.1887 0.69808 0.78552 0.0
C132 C 0.15619 0.72064 0.80093 0.0
C133 C 0.16572 0.65029 0.77844 0.0
N134 N 0.1139 0.68856 0.80488 0.0
C135 C 0.11986 0.64446 0.78946 0.0
C136 C 0.24936 0.79478 0.70854 0.0
O137 O 0.30573 0.70241 0.69556 0.0
O138 O 0.23867 0.6765 0.72436 0.0
O139 O 0.22287 0.76635 0.73251 0.0
O140 O 0.29427 0.79523 0.71211 0.0
O141 O 0.26073 0.77492 0.82112 0.0
H142 H 0.18201 0.62103 0.76823 0.0
H143 H 0.1645 0.75934 0.81175 0.0
O144 O 0.33269 0.79477 0.79923 0.0
O145 O 0.34401 0.70144 0.78361 0.0
O146 O 0.2767 0.68182 0.81373 0.0
C147 C 0.31975 0.67699 0.81149 0.0
H148 H 0.49405 0.83064 0.76913 0.0
H149 H 0.09507 0.60925 0.79158 0.0
Co150 Co 0.25584 0.234 0.77872 0.0
C151 C 0.32983 0.32096 0.80239 0.0
Co152 Co 0.25827 0.29232 0.73375 0.0
C153 C 0.30459 0.16994 0.81902 0.0
C154 C 0.24701 0.17555 0.85718 0.0
N155 N 0.26403 0.18649 0.81752 0.0
N156 N 0.31567 0.15224 0.8582 0.0
C157 C 0.27936 0.15461 0.88275 0.0
H158 H 0.33077 0.17821 0.7956 0.0
H159 H 0.21722 0.18799 0.86931 0.0
C160 C 0.18425 0.20568 0.71091 0.0
N161 N 0.2522 0.33791 0.69424 0.0
C162 C 0.24313 0.38173 0.70453 0.0
C163 C 0.24219 0.33017 0.64904 0.0
N164 N 0.22453 0.3999 0.66822 0.0
C165 C 0.22463 0.36844 0.63289 0.0
C166 C 0.30987 0.22926 0.70469 0.0
O167 O 0.19887 0.19243 0.74884 0.0
O168 O 0.20635 0.24692 0.69892 0.0
O169 O 0.30274 0.27152 0.69818 0.0
O170 O 0.29137 0.20669 0.73656 0.0
O171 O 0.31001 0.3383 0.76895 0.0
H172 H 0.24234 0.29656 0.62988 0.0
H173 H 0.24482 0.39757 0.73811 0.0
O174 O 0.31398 0.27611 0.80967 0.0
O175 O 0.2198 0.26126 0.8192 0.0
O176 O 0.2129 0.31351 0.76846 0.0
C177 C 0.20303 0.29726 0.80612 0.0
H178 H 0.27964 0.14816 0.91818 0.0
H179 H 0.20838 0.37051 0.5988 0.0
Co180 Co 0.74077 0.28366 0.72633 0.0
C181 C 0.79737 0.32277 0.80809 0.0
Co182 Co 0.79738 0.24653 0.75007 0.0
C183 C 0.66216 0.32079 0.74296 0.0
C184 C 0.69457 0.35892 0.69005 0.0
N185 N 0.69331 0.31822 0.71302 0.0
N186 N 0.64733 0.36278 0.74317 0.0
C187 C 0.66622 0.38662 0.70875 0.0
H188 H 0.65765 0.29768 0.77076 0.0
H189 H 0.71943 0.37138 0.66591 0.0
C190 C 0.73931 0.2068 0.66883 0.0
N191 N 0.84442 0.21304 0.76417 0.0
C192 C 0.87077 0.20127 0.73285 0.0
C193 C 0.85293 0.18592 0.79907 0.0
N194 N 0.89409 0.16688 0.74558 0.0
C195 C 0.88346 0.15676 0.78738 0.0
C196 C 0.70939 0.20619 0.78718 0.0
O197 O 0.71874 0.24187 0.67444 0.0
O198 O 0.77348 0.20215 0.69786 0.0
O199 O 0.75317 0.20258 0.7871 0.0
O200 O 0.69608 0.23697 0.76135 0.0
O201 O 0.82044 0.28995 0.80138 0.0
H202 H 0.83464 0.1839 0.82898 0.0
H203 H 0.86825 0.213 0.69888 0.0
O204 O 0.76251 0.32618 0.77943 0.0
O205 O 0.78616 0.32881 0.69131 0.0
O206 O 0.84228 0.2912 0.71337 0.0
C207 C 0.82954 0.3242 0.68975 0.0
H208 H 0.66428 0.42355 0.70096 0.0
H209 H 0.89315 0.12744 0.806 0.0
Co210 Co 0.73194 0.73203 0.73956 0.0
C211 C 0.72545 0.80576 0.8046 0.0
Co212 Co 0.7935 0.79606 0.74996 0.0
C213 C 0.66383 0.65726 0.77162 0.0
C214 C 0.64548 0.65761 0.70046 0.0
N215 N 0.67879 0.67969 0.73516 0.0
N216 N 0.62303 0.62206 0.76153 0.0
C217 C 0.61061 0.62199 0.7168 0.0
H218 H 0.68172 0.66749 0.80563 0.0
H219 H 0.64589 0.6675 0.66593 0.0
C220 C 0.80181 0.72278 0.68499 0.0
N221 N 0.84741 0.84698 0.75815 0.0
C222 C 0.87508 0.86338 0.72606 0.0
C223 C 0.87531 0.86421 0.79762 0.0
N224 N 0.91953 0.88849 0.74378 0.0
C225 C 0.92026 0.88947 0.78878 0.0
C226 C 0.8065 0.72023 0.8057 0.0
O227 O 0.76029 0.70033 0.69426 0.0
O228 O 0.8211 0.76512 0.70427 0.0
O229 O 0.82585 0.76309 0.79529 0.0
O230 O 0.76482 0.69945 0.78565 0.0
O231 O 0.76691 0.82673 0.79503 0.0
H232 H 0.86522 0.85504 0.83056 0.0
H233 H 0.86445 0.85346 0.69038 0.0
O234 O 0.70409 0.76404 0.78493 0.0
O235 O 0.69918 0.76482 0.69377 0.0
O236 O 0.76021 0.82962 0.70428 0.0
C237 C 0.71785 0.80876 0.68466 0.0
H238 H 0.5786 0.59855 0.69772 0.0
H239 H 0.95161 0.90491 0.8131 0.0
C240 C 0.94994 0.09554 0.58523 0.0
C241 C 0.93824 0.08099 0.43709 0.0
C242 C 0.95981 0.89376 0.4651 0.0
Mg243 Mg 0.02222 0.10163 0.51556 0.0
O244 O 1.00804 0.03526 0.5311 0.0
Mg245 Mg 0.94064 0.99484 0.51515 0.0
Mg246 Mg 0.04541 0.98883 0.50863 0.0
O247 O 0.08098 0.94418 0.48489 0.0
Mg248 Mg 0.06581 0.87715 0.49366 0.0
Mg249 Mg 0.14837 0.98348 0.498 0.0
C250 C 0.12056 0.08236 0.5485 0.0
C251 C 0.09138 0.03995 0.4243 0.0
O252 O 0.92693 0.05289 0.56676 0.0
O253 O 0.98701 0.1219 0.57019 0.0
O254 O 0.92087 0.04053 0.45427 0.0
O255 O 0.97866 0.10908 0.45369 0.0
O256 O 0.09824 0.0995 0.516 0.0
O257 O 0.11958 0.03641 0.5456 0.0
C258 C 0.9954 0.94034 0.59106 0.0
O259 O 0.03396 0.94809 0.57205 0.0
O260 O 0.95751 0.95307 0.57454 0.0
O261 O 0.16319 0.92896 0.44508 0.0
O262 O 0.10176 0.86228 0.43823 0.0
O263 O 0.16609 0.93345 0.5573 0.0
C264 C 0.13915 0.88834 0.42385 0.0
O265 O 0.10607 0.86594 0.55647 0.0
O266 O 0.98764 0.86453 0.47486 0.0
C267 C 0.14698 0.89287 0.57385 0.0
O268 O 0.97393 0.94074 0.47291 0.0
O269 O 0.05414 0.02913 0.44484 0.0
O270 O 0.1308 0.02849 0.43872 0.0
C271 C 0.41878 0.13334 0.07155 0.0
C272 C 0.47281 0.13106 0.94064 0.0
C273 C 0.43626 0.93357 0.94721 0.0
Mg274 Mg 0.51822 0.13368 0.03713 0.0
O275 O 0.49274 0.06488 0.03053 0.0
Mg276 Mg 0.42494 0.03644 1.00049 0.0
Mg277 Mg 0.5253 0.02161 0.99592 0.0
O278 O 0.55863 0.97665 0.96418 0.0
Mg279 Mg 0.53961 0.90918 0.977 0.0
Mg280 Mg 0.62801 0.01115 0.98823 0.0
C281 C 0.61623 0.10175 0.05964 0.0
C282 C 0.59835 0.08461 0.91723 0.0
O283 O 0.4 0.0932 0.04699 0.0
O284 O 0.4639 0.15467 0.07422 0.0
O285 O 0.44162 0.0928 0.94904 0.0
O286 O 0.50791 0.1535 0.96957 0.0
O287 O 0.59211 0.13421 0.06703 0.0
O288 O 0.59772 0.06289 0.03351 0.0
C289 C 0.44836 0.95794 0.0708 0.0
O290 O 0.49133 0.96534 0.05651 0.0
O291 O 0.41742 0.98097 0.05415 0.0
O292 O 0.64994 0.95067 0.94391 0.0
O293 O 0.58644 0.88459 0.93356 0.0
O294 O 0.6238 0.96652 0.04314 0.0
C295 C 0.62922 0.90694 0.92658 0.0
O296 O 0.56706 0.89975 0.0469 0.0
O297 O 0.46232 0.90196 0.95399 0.0
C298 C 0.60544 0.93076 0.06424 0.0
O299 O 0.45368 0.98026 0.95677 0.0
O300 O 0.55708 0.07808 0.93446 0.0
O301 O 0.62965 0.06133 0.93165 0.0
C302 C 0.9011 0.62205 0.08648 0.0
C303 C 0.91081 0.62473 0.94346 0.0
C304 C 0.91694 0.43065 0.95193 0.0
Mg305 Mg 0.98641 0.63006 0.02873 0.0
O306 O 0.9703 0.562 0.03163 0.0
Mg307 Mg 0.90103 0.52729 0.01166 0.0
Mg308 Mg 1.00592 0.51752 1.00155 0.0
O309 O 0.03929 0.47114 0.9718 0.0
Mg310 Mg 1.0192 0.40387 0.9809 0.0
Mg311 Mg 0.10831 0.50229 0.99201 0.0
C312 C 0.09433 0.60625 0.04636 0.0
C313 C 0.06224 0.57635 0.9272 0.0
O314 O 0.8799 0.5809 0.06429 0.0
O315 O 0.9432 0.6466 0.0799 0.0
O316 O 0.88902 0.58277 0.95574 0.0
O317 O 0.95207 0.64785 0.96401 0.0
O318 O 0.06453 0.63473 0.04538 0.0
O319 O 0.07934 0.55919 0.03773 0.0
C320 C 0.95282 0.45923 0.07723 0.0
O321 O 0.99049 0.46955 0.05716 0.0
O322 O 0.91513 0.47582 0.06661 0.0
O323 O 0.12554 0.44241 0.94243 0.0
O324 O 0.06035 0.37837 0.93339 0.0
O325 O 0.11869 0.44637 0.04878 0.0
C326 C 0.10283 0.3992 0.92489 0.0
O327 O 0.05147 0.38747 0.04696 0.0
O328 O 0.94307 0.39892 0.95645 0.0
C329 C 0.09518 0.40675 0.06383 0.0
O330 O 0.93317 0.47636 0.96511 0.0
O331 O 0.02373 0.56748 0.94647 0.0
O332 O 0.09683 0.55465 0.93647 0.0
C333 C 0.44791 0.59517 0.08571 0.0
C334 C 0.43395 0.58102 0.93849 0.0
C335 C 0.45478 0.39409 0.96385 0.0
Mg336 Mg 0.52046 0.60078 0.0156 0.0
O337 O 0.50615 0.53432 0.03113 0.0
Mg338 Mg 0.43816 0.49457 0.01658 0.0
Mg339 Mg 0.54232 0.48594 0.00845 0.0
O340 O 0.5757 0.43884 0.98476 0.0
Mg341 Mg 0.55781 0.37204 0.99536 0.0
Mg342 Mg 0.64389 0.47598 0.99777 0.0
C343 C 0.61753 0.57726 0.04761 0.0
C344 C 0.5894 0.53377 0.92305 0.0
O345 O 0.42463 0.55258 0.06752 0.0
O346 O 0.48556 0.62089 0.07097 0.0
O347 O 0.41689 0.54049 0.95581 0.0
O348 O 0.47521 0.60835 0.95418 0.0
O349 O 0.59544 0.59425 0.01478 0.0
O350 O 0.61721 0.53153 0.04454 0.0
C351 C 0.49293 0.43882 0.09241 0.0
O352 O 0.53067 0.44579 0.07227 0.0
O353 O 0.45524 0.45258 0.07687 0.0
O354 O 0.657 0.41903 0.94627 0.0
O355 O 0.59433 0.35334 0.9405 0.0
O356 O 0.65996 0.42612 0.05789 0.0
C357 C 0.63282 0.37774 0.92636 0.0
O358 O 0.59793 0.36085 0.05873 0.0
O359 O 0.47859 0.36289 0.97886 0.0
C360 C 0.63975 0.3865 0.07532 0.0
O361 O 0.47043 0.4406 0.97303 0.0
O362 O 0.55223 0.52524 0.94393 0.0
O363 O 0.62791 0.52064 0.93767 0.0
C364 C 0.91566 0.63303 0.5696 0.0
C365 C 0.96447 0.62785 0.43609 0.0
C366 C 0.93263 0.43326 0.44461 0.0
Mg367 Mg 1.01344 0.63252 0.53104 0.0
O368 O 0.98924 0.56354 0.52821 0.0
Mg369 Mg 0.92059 0.5352 0.49894 0.0
Mg370 Mg 0.02186 0.52054 0.4926 0.0
O371 O 0.05481 0.47654 0.45728 0.0
Mg372 Mg 0.03691 0.4115 0.4763 0.0
Mg373 Mg 0.1262 0.50853 0.48063 0.0
C374 C 0.1134 0.60072 0.55402 0.0
C375 C 0.0951 0.58897 0.41677 0.0
O376 O 0.89619 0.59232 0.54606 0.0
O377 O 0.96062 0.6544 0.57032 0.0
O378 O 0.93463 0.59002 0.44689 0.0
O379 O 1.00056 0.65164 0.46321 0.0
O380 O 0.0881 0.63295 0.55772 0.0
O381 O 0.09569 0.55804 0.53266 0.0
C382 C 0.94426 0.45578 0.56725 0.0
O383 O 0.9865 0.46271 0.55171 0.0
O384 O 0.91375 0.48007 0.5524 0.0
O385 O 0.1452 0.45348 0.43039 0.0
O386 O 0.08729 0.38441 0.43615 0.0
O387 O 0.12846 0.44934 0.52561 0.0
C388 C 0.12604 0.40739 0.42082 0.0
O389 O 0.05974 0.42254 0.54947 0.0
O390 O 0.95953 0.40248 0.45169 0.0
C391 C 0.10364 0.44615 0.55777 0.0
O392 O 0.94934 0.48016 0.45368 0.0
O393 O 0.05327 0.58003 0.43303 0.0
O394 O 0.12678 0.56596 0.43047 0.0
C395 C 0.40676 0.13127 0.58083 0.0
C396 C 0.41727 0.12495 0.43931 0.0
C397 C 0.4133 0.92674 0.46037 0.0
Mg398 Mg 0.49255 0.13212 0.52454 0.0
O399 O 0.47283 0.06405 0.53004 0.0
Mg400 Mg 0.40345 0.03055 0.51257 0.0
Mg401 Mg 0.50408 0.01631 0.49963 0.0
O402 O 0.53647 0.96839 0.47032 0.0
Mg403 Mg 0.51922 0.90185 0.48123 0.0
Mg404 Mg 0.6062 1.00255 0.48511 0.0
C405 C 0.59614 0.1034 0.54397 0.0
C406 C 0.54862 0.06768 0.41707 0.0
O407 O 0.38508 0.08866 0.56183 0.0
O408 O 0.44916 0.15401 0.57325 0.0
O409 O 0.39391 0.08482 0.45379 0.0
O410 O 0.45917 0.14756 0.45886 0.0
O411 O 0.57067 0.13602 0.54416 0.0
O412 O 0.57803 0.05862 0.52933 0.0
C413 C 0.45638 0.96465 0.58125 0.0
O414 O 0.49317 0.97335 0.55967 0.0
O415 O 0.41851 0.9812 0.57039 0.0
O416 O 0.62261 0.939 0.4389 0.0
O417 O 0.5562 0.87643 0.4304 0.0
O418 O 0.62385 0.95316 0.54497 0.0
C419 C 0.59936 0.89544 0.42255 0.0
O420 O 0.56164 0.88805 0.54418 0.0
O421 O 0.44083 0.89603 0.46332 0.0
C422 C 0.60426 0.91225 0.56067 0.0
O423 O 0.43044 0.97339 0.46821 0.0
O424 O 0.51338 0.05982 0.44029 0.0
O425 O 0.58635 0.05014 0.42597 0.0
C426 C 0.09564 0.04778 0.29915 0.0
C427 C 0.09729 0.09812 0.29538 0.0
C428 C 0.08256 0.10796 0.37381 0.0
C429 C 0.08663 0.05888 0.37912 0.0
N430 N 0.07973 0.97771 0.34457 0.0
N431 N 0.07768 0.17199 0.32218 0.0
C432 C 0.08737 0.02726 0.3409 0.0
C433 C 0.0852 0.1266 0.33057 0.0
N434 N 0.10546 0.02074 0.26375 0.0
N435 N 0.07866 0.13721 0.41027 0.0
H436 H 0.07971 0.18549 0.29027 0.0
H437 H 0.06575 0.19427 0.34503 0.0
H438 H 0.07456 0.1239 0.4418 0.0
H439 H 0.08082 0.1748 0.40983 0.0
H440 H 0.10921 0.98477 0.26534 0.0
H441 H 0.11116 0.03504 0.2327 0.0
H442 H 0.07238 0.95248 0.31668 0.0
H443 H 0.07573 0.96154 0.37509 0.0
C444 C 0.86299 0.16731 0.38911 0.0
C445 C 0.85056 0.14892 0.3433 0.0
C446 C 0.89651 0.08513 0.35812 0.0
C447 C 0.90601 0.10184 0.40445 0.0
N448 N 0.88904 0.1518 0.46576 0.0
N449 N 0.85009 0.0865 0.28506 0.0
C450 C 0.88636 0.14077 0.42039 0.0
C451 C 0.86581 0.10663 0.32804 0.0
N452 N 0.85513 0.21187 0.40239 0.0
N453 N 0.91807 0.04985 0.34267 0.0
H454 H 0.8282 0.10165 0.26231 0.0
H455 H 0.8556 0.05303 0.27294 0.0
H456 H 0.93981 0.03302 0.36401 0.0
H457 H 0.91705 0.03948 0.30867 0.0
H458 H 0.86859 0.23005 0.43392 0.0
H459 H 0.83931 0.23305 0.38037 0.0
H460 H 0.87079 0.17603 0.47954 0.0
H461 H 0.90566 0.13331 0.48996 0.0
C462 C 0.83991 0.82171 0.40314 0.0
C463 C 0.85327 0.81755 0.35876 0.0
C464 C 0.93109 0.875 0.38343 0.0
C465 C 0.92005 0.87401 0.42868 0.0
N466 N 0.86658 0.84318 0.48286 0.0
N467 N 0.91419 0.83447 0.30818 0.0
C468 C 0.87509 0.84661 0.43888 0.0
C469 C 0.89946 0.843 0.3492 0.0
N470 N 0.79334 0.80306 0.4111 0.0
N471 N 0.9721 0.90639 0.3732 0.0
H472 H 0.89254 0.81019 0.28261 0.0
H473 H 0.94937 0.84781 0.30081 0.0
H474 H 0.99695 0.92962 0.39735 0.0
H475 H 0.97939 0.91266 0.34033 0.0
H476 H 0.78023 0.81012 0.44125 0.0
H477 H 0.76665 0.78349 0.38649 0.0
H478 H 0.83712 0.81858 0.49302 0.0
H479 H 0.89075 0.86306 0.50958 0.0
C480 C 0.09724 0.86492 0.30012 0.0
C481 C 0.1353 0.89593 0.2819 0.0
C482 C 0.18087 0.91581 0.35678 0.0
C483 C 0.1444 0.88137 0.3749 0.0
N484 N 0.0776 0.80964 0.35844 0.0
N485 N 0.20293 0.96537 0.29431 0.0
C486 C 0.1047 0.85229 0.34523 0.0
C487 C 0.17322 0.9269 0.31115 0.0
N488 N 0.0563 0.84355 0.27203 0.0
N489 N 0.22423 0.93489 0.38233 0.0
H490 H 0.19662 0.97406 0.26102 0.0
H491 H 0.22974 0.99167 0.31408 0.0
H492 H 0.23363 0.92127 0.41313 0.0
H493 H 0.25252 0.95978 0.37101 0.0
H494 H 0.02538 0.82227 0.28308 0.0
H495 H 0.05262 0.85146 0.23818 0.0
H496 H 0.04996 0.78573 0.33728 0.0
H497 H 0.0875 0.79433 0.38813 0.0
C498 C 0.1987 0.85677 0.68847 0.0
C499 C 0.22693 0.82403 0.67454 0.0
C500 C 0.20383 0.83843 0.59494 0.0
C501 C 0.17658 0.87178 0.60897 0.0
N502 N 0.15194 0.91736 0.66837 0.0
N503 N 0.26081 0.78823 0.61426 0.0
C504 C 0.17523 0.88231 0.65561 0.0
C505 C 0.23105 0.81658 0.62774 0.0
N506 N 0.19407 0.8632 0.73323 0.0
N507 N 0.20198 0.82592 0.54988 0.0
H508 H 0.27774 0.7675 0.63577 0.0
H509 H 0.27103 0.78702 0.58196 0.0
H510 H 0.18465 0.84264 0.5247 0.0
H511 H 0.2149 0.79687 0.5371 0.0
H512 H 0.16983 0.88152 0.74562 0.0
H513 H 0.21351 0.8486 0.75848 0.0
H514 H 0.15289 0.9308 0.70151 0.0
H515 H 0.13365 0.93551 0.64512 0.0
C516 C 0.14361 0.11909 0.67743 0.0
C517 C 0.15023 0.17078 0.67614 0.0
C518 C 0.13724 0.16311 0.59453 0.0
C519 C 0.12989 0.11088 0.59387 0.0
N520 N 0.11509 0.03865 0.63861 0.0
N521 N 0.12652 0.23525 0.63548 0.0
C522 C 0.12994 0.08842 0.63636 0.0
C523 C 0.13705 0.19009 0.6353 0.0
N524 N 0.14922 0.09903 0.71786 0.0
N525 N 0.14923 0.18813 0.55761 0.0
H526 H 0.12475 0.25491 0.66554 0.0
H527 H 0.11429 0.24976 0.60612 0.0
H528 H 0.15818 0.17175 0.52877 0.0
H529 H 0.15776 0.22649 0.5585 0.0
H530 H 0.1558 0.06418 0.7212 0.0
H531 H 0.14619 0.11718 0.7482 0.0
H532 H 0.11123 0.02154 0.6686 0.0
H533 H 0.10035 0.01365 0.61154 0.0
C534 C 0.95976 0.15188 0.7055 0.0
C535 C 0.91113 0.13776 0.71344 0.0
C536 C 0.88754 0.10051 0.63689 0.0
C537 C 0.93687 0.11149 0.62919 0.0
N538 N 0.02138 0.13489 0.66277 0.0
N539 N 0.83174 0.08613 0.6927 0.0
C540 C 0.97365 0.13352 0.66534 0.0
C541 C 0.87629 0.10706 0.68119 0.0
N542 N 0.99227 0.18413 0.73585 0.0
N543 N 0.85129 0.08763 0.60172 0.0
H544 H 0.82291 0.09109 0.72526 0.0
H545 H 0.80598 0.06014 0.67145 0.0
H546 H 0.85773 0.08731 0.56808 0.0
H547 H 0.81483 0.08341 0.60575 0.0
H548 H 0.02717 0.2008 0.7294 0.0
H549 H 0.98296 0.19618 0.76648 0.0
H550 H 0.04813 0.14695 0.69002 0.0
H551 H 0.03381 0.11791 0.63636 0.0
C552 C 0.97166 0.9542 0.70926 0.0
C553 C 0.95876 0.90421 0.71802 0.0
C554 C 0.99083 0.87995 0.65027 0.0
C555 C 0.99714 0.92906 0.63845 0.0
N556 N 1.00871 0.01507 0.66112 0.0
N557 N 0.96781 0.82174 0.70671 0.0
C558 C 0.99348 0.96698 0.67 0.0
C559 C 0.97339 0.86793 0.69201 0.0
N560 N 0.95796 0.98841 0.73569 0.0
N561 N 0.99831 0.84493 0.62038 0.0
H562 H 0.95468 0.81323 0.73736 0.0
H563 H 0.97891 0.79324 0.69064 0.0
H564 H 1.01205 0.85385 0.5901 0.0
H565 H 0.99039 0.80744 0.62496 0.0
H566 H 0.95992 0.02458 0.72764 0.0
H567 H 0.94254 0.97989 0.7652 0.0
H568 H 1.01299 0.04401 0.6854 0.0
H569 H 0.02101 0.02564 0.63067 0.0
C570 C 0.31357 0.18371 0.10758 0.0
C571 C 0.32972 0.19724 0.154 0.0
C572 C 0.4002 0.1618 0.14712 0.0
C573 C 0.38751 0.15461 0.09973 0.0
N574 N 0.33587 0.16599 0.03367 0.0
N575 N 0.39207 0.20362 0.21713 0.0
C576 C 0.34505 0.16732 0.07959 0.0
C577 C 0.37424 0.18784 0.17342 0.0
N578 N 0.26806 0.18605 0.09019 0.0
N579 N 0.43536 0.14133 0.16753 0.0
H580 H 0.37305 0.21942 0.23893 0.0
H581 H 0.42717 0.2038 0.23099 0.0
H582 H 0.45422 0.12054 0.14981 0.0
H583 H 0.44226 0.14042 0.20236 0.0
H584 H 0.2525 0.17219 0.05772 0.0
H585 H 0.24415 0.19754 0.1097 0.0
H586 H 0.30837 0.1798 0.01707 0.0
H587 H 0.35853 0.15536 0.01205 0.0
C588 C 0.95374 0.41223 0.19329 0.0
C589 C 0.95987 0.36439 0.1829 0.0
C590 C 0.95927 0.37846 0.10396 0.0
C591 C 0.95394 0.42678 0.11383 0.0
N592 N 0.95794 0.49417 0.16864 0.0
N593 N 0.98307 0.30721 0.13323 0.0
C594 C 0.95511 0.44533 0.15887 0.0
C595 C 0.96869 0.34995 0.13981 0.0
N596 N 0.94334 0.42452 0.23513 0.0
N597 N 0.9514 0.3585 0.06059 0.0
H598 H 0.9889 0.28558 0.15992 0.0
H599 H 0.99364 0.29626 0.10289 0.0
H600 H 0.9409 0.37753 0.03374 0.0
H601 H 0.95058 0.32182 0.05191 0.0
H602 H 0.93242 0.45661 0.24305 0.0
H603 H 0.94341 0.40125 0.26138 0.0
H604 H 0.96342 0.51029 0.20144 0.0
H605 H 0.9586 0.51939 0.14393 0.0
C606 C 0.64513 0.90009 0.18309 0.0
C607 C 0.69556 0.9198 0.18374 0.0
C608 C 0.68513 0.94897 0.1117 0.0
C609 C 0.63427 0.9265 0.10715 0.0
N610 N 0.5644 0.8974 0.14631 0.0
N611 N 0.75621 0.98559 0.1638 0.0
C612 C 0.61328 0.90739 0.14542 0.0
C613 C 0.71103 0.95573 0.15475 0.0
N614 N 0.62869 0.87148 0.21637 0.0
N615 N 0.71005 0.95683 0.07512 0.0
H616 H 0.77723 0.98545 0.19465 0.0
H617 H 0.76978 0.01271 0.14263 0.0
H618 H 0.69522 0.94223 0.04261 0.0
H619 H 0.74742 0.97087 0.07811 0.0
H620 H 0.59325 0.85065 0.21477 0.0
H621 H 0.65126 0.86857 0.24542 0.0
H622 H 0.54815 0.88658 0.17492 0.0
H623 H 0.54056 0.90465 0.12001 0.0
C624 C 0.20424 0.70665 0.09153 0.0
C625 C 0.21682 0.68406 0.1309 0.0
C626 C 0.17227 0.60502 0.09412 0.0
C627 C 0.146 0.62976 0.06378 0.0
N628 N 0.14213 0.70692 0.03065 0.0
N629 N 0.21368 0.60873 0.16905 0.0
C630 C 0.16432 0.68131 0.06071 0.0
C631 C 0.20212 0.63221 0.13186 0.0
N632 N 0.22983 0.75263 0.08434 0.0
N633 N 0.1701 0.55629 0.08653 0.0
H634 H 0.23611 0.62614 0.1976 0.0
H635 H 0.1982 0.57174 0.17246 0.0
H636 H 0.15377 0.5374 0.05629 0.0
H637 H 0.19149 0.53769 0.10625 0.0
H638 H 0.22487 0.76927 0.05426 0.0
H639 H 0.25959 0.7716 0.10665 0.0
H640 H 0.15041 0.74523 0.03157 0.0
H641 H 0.11389 0.69035 0.00596 0.0
C642 C 0.3236 0.83705 0.90747 0.0
C643 C 0.32003 0.84457 0.86076 0.0
C644 C 0.37859 0.92445 0.87578 0.0
C645 C 0.38725 0.91385 0.92153 0.0
N646 N 0.35771 0.87019 0.98375 0.0
N647 N 0.3288 0.90218 0.80336 0.0
C648 C 0.3558 0.87351 0.93826 0.0
C649 C 0.34233 0.89086 0.84608 0.0
N650 N 0.2986 0.7941 0.92201 0.0
N651 N 0.40745 0.9643 0.85978 0.0
H652 H 0.30208 0.87804 0.78133 0.0
H653 H 0.34025 0.93676 0.79137 0.0
H654 H 0.43256 0.99124 0.8805 0.0
H655 H 0.40767 0.97003 0.82567 0.0
H656 H 0.30386 0.78353 0.95473 0.0
H657 H 0.27331 0.76781 0.90072 0.0
H658 H 0.33421 0.84383 0.99925 0.0
H659 H 0.38067 0.89721 0.00614 0.0
C660 C 0.14313 0.29536 0.8633 0.0
C661 C 0.17514 0.32246 0.83542 0.0
C662 C 0.15034 0.39713 0.85942 0.0
C663 C 0.12625 0.37213 0.89338 0.0
N664 N 0.10909 0.29791 0.93346 0.0
N665 N 0.21906 0.40333 0.8195 0.0
C666 C 0.12505 0.32123 0.89697 0.0
C667 C 0.18118 0.37453 0.83658 0.0
N668 N 0.12841 0.24531 0.85691 0.0
N669 N 0.14358 0.44209 0.84824 0.0
H670 H 0.24633 0.38865 0.80891 0.0
H671 H 0.22699 0.4417 0.82258 0.0
H672 H 0.11931 0.45905 0.86258 0.0
H673 H 0.15785 0.4595 0.82092 0.0
H674 H 0.102 0.22464 0.87429 0.0
H675 H 0.13791 0.22519 0.83061 0.0
H676 H 0.11174 0.26211 0.93929 0.0
H677 H 0.09867 0.31607 0.96038 0.0
C678 C 0.66032 0.19931 0.8564 0.0
C679 C 0.67458 0.17616 0.81799 0.0
C680 C 0.62327 0.09657 0.83799 0.0
C681 C 0.61387 0.11845 0.87917 0.0
N682 N 0.62607 0.19142 0.92825 0.0
N683 N 0.67032 0.1009 0.7742 0.0
C684 C 0.63277 0.17025 0.88815 0.0
C685 C 0.65595 0.12426 0.80944 0.0
N686 N 0.67363 0.24943 0.86293 0.0
N687 N 0.59986 0.04874 0.82574 0.0
H688 H 0.69191 0.11993 0.75182 0.0
H689 H 0.66347 0.06284 0.76859 0.0
H690 H 0.57554 0.02824 0.84529 0.0
H691 H 0.60076 0.03082 0.79473 0.0
H692 H 0.66324 0.26963 0.88847 0.0
H693 H 0.69363 0.27156 0.84126 0.0
H694 H 0.64301 0.22727 0.94048 0.0
H695 H 0.60472 0.17186 0.95061 0.0
C696 C 0.84527 0.71689 0.88587 0.0
C697 C 0.8325 0.69513 0.84095 0.0
C698 C 0.86984 0.62661 0.86319 0.0
C699 C 0.88488 0.64954 0.90754 0.0
N700 N 0.88818 0.71801 0.96087 0.0
N701 N 0.8363 0.63138 0.78555 0.0
C702 C 0.87315 0.69526 0.91862 0.0
C703 C 0.84544 0.6503 0.82943 0.0
N704 N 0.82826 0.75691 0.898 0.0
N705 N 0.87895 0.58181 0.85329 0.0
H706 H 0.81739 0.64642 0.76025 0.0
H707 H 0.84997 0.60271 0.77316 0.0
H708 H 0.90056 0.56601 0.87549 0.0
H709 H 0.86393 0.55947 0.82416 0.0
H710 H 0.83066 0.77142 0.93101 0.0
H711 H 0.80812 0.77391 0.87534 0.0
H712 H 0.8875 0.75424 0.9695 0.0
H713 H 0.90333 0.70148 0.98747 0.0
C714 C 0.17635 0.37992 0.16845 0.0
C715 C 0.18468 0.3334 0.15432 0.0
C716 C 0.12566 0.33055 0.08648 0.0
C717 C 0.12186 0.37972 0.09754 0.0
N718 N 0.14519 0.45158 0.14963 0.0
N719 N 0.17378 0.26978 0.09477 0.0
C720 C 0.148 0.4045 0.1386 0.0
C721 C 0.16077 0.31016 0.11212 0.0
N722 N 0.19324 0.39962 0.21141 0.0
N723 N 0.09573 0.30241 0.05157 0.0
H724 H 0.20034 0.25486 0.11147 0.0
H725 H 0.16243 0.25454 0.06188 0.0
H726 H 0.07059 0.31474 0.03026 0.0
H727 H 0.0927 0.26474 0.04609 0.0
H728 H 0.18382 0.43011 0.22579 0.0
H729 H 0.2133 0.38304 0.23447 0.0
H730 H 0.16813 0.4744 0.17533 0.0
H731 H 0.12095 0.46866 0.13176 0.0
C732 C 0.10857 0.70029 0.88281 0.0
C733 C 0.0835 0.69241 0.83937 0.0
C734 C 0.03188 0.61768 0.86074 0.0
C735 C 0.06844 0.6171 0.89721 0.0
N736 N 0.1457 0.65894 0.94003 0.0
N737 N 1.00562 0.66273 0.7982 0.0
C738 C 0.10782 0.65901 0.90809 0.0
C739 C 0.03836 0.65859 0.83353 0.0
N740 N 0.13616 0.74573 0.89755 0.0
N741 N 0.99483 0.57723 0.84909 0.0
H742 H 1.01349 0.69159 0.77712 0.0
H743 H 0.97066 0.64056 0.792 0.0
H744 H 0.99245 0.54479 0.86535 0.0
H745 H 0.96902 0.57418 0.82113 0.0
H746 H 0.15431 0.75374 0.93016 0.0
H747 H 0.13606 0.77583 0.87814 0.0
H748 H 0.17719 0.68708 0.94427 0.0
H749 H 0.14689 0.63069 0.96122 0.0
C750 C 0.38559 0.11662 0.85355 0.0
C751 C 0.36506 0.15304 0.87299 0.0
C752 C 0.4454 0.19735 0.90801 0.0
C753 C 0.4608 0.15417 0.89954 0.0
N754 N 0.45953 0.08935 0.84503 0.0
N755 N 0.37729 0.23544 0.90817 0.0
C756 C 0.43579 0.12045 0.86411 0.0
C757 C 0.39569 0.19628 0.89669 0.0
N758 N 0.35664 0.07788 0.82694 0.0
N759 N 0.47823 0.23759 0.92859 0.0
H760 H 0.34189 0.23732 0.89763 0.0
H761 H 0.39685 0.26615 0.92851 0.0
H762 H 0.51465 0.23695 0.93609 0.0
H763 H 0.47055 0.27151 0.93549 0.0
H764 H 0.369 0.04859 0.81388 0.0
H765 H 0.31934 0.07396 0.81981 0.0
H766 H 0.44438 0.06438 0.81756 0.0
H767 H 0.49616 0.09187 0.85558 0.0
C768 C 0.83173 0.40701 0.84414 0.0
C769 C 0.81167 0.35681 0.84886 0.0
C770 C 0.83974 0.36973 0.92955 0.0
C771 C 0.87139 0.41438 0.92141 0.0
N772 N 0.90072 0.47314 0.86765 0.0
N773 N 0.7932 0.28991 0.89714 0.0
C774 C 0.86739 0.43336 0.87823 0.0
C775 C 0.81383 0.33813 0.89216 0.0
N776 N 0.81794 0.42937 0.80701 0.0
N777 N 0.83629 0.35712 0.97282 0.0
H778 H 0.77338 0.2661 0.8704 0.0
H779 H 0.79787 0.27303 0.92709 0.0
H780 H 0.85532 0.38049 1.0003 0.0
H781 H 0.81141 0.3265 0.98134 0.0
H782 H 0.82972 0.46707 0.80402 0.0
H783 H 0.79018 0.41183 0.78221 0.0
H784 H 0.903 0.48313 0.83464 0.0
H785 H 0.92817 0.49412 0.89083 0.0
C786 C 0.69047 0.87721 0.82509 0.0
C787 C 0.70102 0.83152 0.83614 0.0
C788 C 0.66438 0.83517 0.90654 0.0
C789 C 0.65506 0.88153 0.89606 0.0
N790 N 0.66043 0.94818 0.84685 0.0
N791 N 0.70234 0.76847 0.88822 0.0
C792 C 0.66874 0.90308 0.85587 0.0
C793 C 0.6887 0.81064 0.87693 0.0
N794 N 0.69886 0.89459 0.78393 0.0
N795 N 0.65022 0.81483 0.94511 0.0
H796 H 0.71961 0.74922 0.86724 0.0
H797 H 0.69925 0.75353 0.91925 0.0
H798 H 0.63726 0.83373 0.97004 0.0
H799 H 0.64979 0.77872 0.95227 0.0
H800 H 0.68671 0.92408 0.77102 0.0
H801 H 0.71522 0.87748 0.76053 0.0
H802 H 0.67557 0.96948 0.8221 0.0
H803 H 0.6395 0.96582 0.86521 0.0
C804 C 0.80741 0.67843 0.13653 0.0
C805 C 0.82667 0.68594 0.18284 0.0
C806 C 0.89198 0.64636 0.16666 0.0
C807 C 0.87513 0.64316 0.11987 0.0
N808 N 0.82161 0.66327 0.05935 0.0
N809 N 0.89045 0.68294 0.2416 0.0
C810 C 0.83411 0.66109 0.10455 0.0
C811 C 0.8698 0.67135 0.19788 0.0
N812 N 0.76253 0.68587 0.12322 0.0
N813 N 0.92827 0.62426 0.18131 0.0
H814 H 0.87536 0.70148 0.26518 0.0
H815 H 0.92436 0.67779 0.25371 0.0
H816 H 0.94554 0.60609 0.15937 0.0
H817 H 0.93869 0.62049 0.21517 0.0
H818 H 0.74418 0.67546 0.09101 0.0
H819 H 0.74162 0.69831 0.14545 0.0
H820 H 0.79576 0.68145 0.04627 0.0
H821 H 0.83989 0.65052 0.03472 0.0
C822 C 0.38777 0.91302 0.17751 0.0
C823 C 0.36931 0.8615 0.16629 0.0
C824 C 0.41812 0.87142 0.10055 0.0
C825 C 0.43079 0.92379 0.1083 0.0
N826 N 0.42654 0.99419 0.15552 0.0
N827 N 0.36707 0.79198 0.11503 0.0
C828 C 0.41533 0.94418 0.14738 0.0
C829 C 0.38526 0.84083 0.12754 0.0
N830 N 0.38088 0.93208 0.21843 0.0
N831 N 0.43757 0.85073 0.06709 0.0
H832 H 0.3441 0.76865 0.13371 0.0
H833 H 0.37197 0.77505 0.08478 0.0
H834 H 0.4607 0.87188 0.04701 0.0
H835 H 0.43424 0.81307 0.06154 0.0
H836 H 0.39704 0.96786 0.23152 0.0
H837 H 0.36275 0.91032 0.24145 0.0
H838 H 0.41127 0.01256 0.17898 0.0
H839 H 0.44999 0.0177 0.13729 0.0
C840 C 0.74761 0.15481 0.10854 0.0
C841 C 0.74576 0.1366 0.15184 0.0
C842 C 0.66717 0.08029 0.12574 0.0
C843 C 0.66422 0.10686 0.08648 0.0
N844 N 0.70225 0.16612 0.03776 0.0
N845 N 0.71468 0.07005 0.196 0.0
C846 C 0.70506 0.14257 0.07663 0.0
C847 C 0.70916 0.09464 0.15806 0.0
N848 N 0.7902 0.18235 0.09771 0.0
N849 N 0.62851 0.04388 0.13341 0.0
H850 H 0.74661 0.07937 0.21835 0.0
H851 H 0.69007 0.03921 0.20421 0.0
H852 H 0.59735 0.03233 0.11043 0.0
H853 H 0.62635 0.02518 0.16263 0.0
H854 H 0.79492 0.19452 0.06577 0.0
H855 H 0.82234 0.18803 0.11947 0.0
H856 H 0.72834 0.19662 0.03094 0.0
H857 H 0.67244 0.15607 0.01297 0.0
C858 C 0.58202 0.62027 0.82897 0.0
C859 C 0.59838 0.59421 0.79471 0.0
C860 C 0.59108 0.52307 0.84005 0.0
C861 C 0.58591 0.55313 0.87782 0.0
N862 N 0.57334 0.63001 0.90818 0.0
N863 N 0.61781 0.5205 0.76602 0.0
C864 C 0.57934 0.60137 0.87211 0.0
C865 C 0.6016 0.54501 0.79932 0.0
N866 N 0.57029 0.66377 0.81992 0.0
N867 N 0.58502 0.47349 0.84297 0.0
H868 H 0.6254 0.53558 0.73565 0.0
H869 H 0.62584 0.48629 0.76935 0.0
H870 H 0.57697 0.45614 0.8723 0.0
H871 H 0.58256 0.44918 0.81501 0.0
H872 H 0.55459 0.68345 0.84193 0.0
H873 H 0.57236 0.67769 0.78818 0.0
H874 H 0.57417 0.66734 0.90736 0.0
H875 H 0.56976 0.6169 0.93985 0.0
C876 C 0.35188 0.60191 0.8327 0.0
C877 C 0.34474 0.6493 0.84496 0.0
C878 C 0.38908 0.64692 0.92001 0.0
C879 C 0.40123 0.60241 0.90618 0.0
N880 N 0.39662 0.53863 0.84815 0.0
N881 N 0.36521 0.72074 0.89766 0.0
C882 C 0.38289 0.57992 0.86224 0.0
C883 C 0.36563 0.67271 0.88796 0.0
N884 N 0.32867 0.57783 0.79289 0.0
N885 N 0.39823 0.66384 0.96446 0.0
H886 H 0.34893 0.74107 0.87514 0.0
H887 H 0.38484 0.74168 0.92616 0.0
H888 H 0.41388 0.64554 0.98946 0.0
H889 H 0.38558 0.69308 0.97732 0.0
H890 H 0.32796 0.54137 0.78355 0.0
H891 H 0.30709 0.59356 0.77041 0.0
H892 H 0.38878 0.52284 0.81523 0.0
H893 H 0.4187 0.52169 0.86897 0.0
C894 C 0.41282 0.33728 0.84448 0.0
C895 C 0.3691 0.35189 0.83494 0.0
C896 C 0.38134 0.3955 0.90923 0.0
C897 C 0.42463 0.37963 0.91965 0.0
N898 N 0.49201 0.35947 0.88643 0.0
N899 N 0.33125 0.41852 0.8476 0.0
C900 C 0.44365 0.35712 0.88433 0.0
C901 C 0.35861 0.38803 0.86413 0.0
N902 N 0.42591 0.30624 0.81452 0.0
N903 N 0.36185 0.41739 0.94185 0.0
H904 H 0.32295 0.4195 0.81288 0.0
H905 H 0.32458 0.44751 0.86712 0.0
H906 H 0.37692 0.42201 0.97556 0.0
H907 H 0.32849 0.42662 0.93571 0.0
H908 H 0.45399 0.28882 0.82265 0.0
H909 H 0.40789 0.29842 0.78189 0.0
H910 H 0.50743 0.34828 0.85905 0.0
H911 H 0.51718 0.37958 0.91216 0.0
C912 C 0.67545 0.40976 0.81558 0.0
C913 C 0.63626 0.38148 0.78532 0.0
C914 C 0.60231 0.33858 0.84811 0.0
C915 C 0.64094 0.36743 0.87866 0.0
N916 N 0.72313 0.41511 0.88855 0.0
N917 N 0.55675 0.32957 0.7736 0.0
C918 C 0.6802 0.39875 0.86147 0.0
C919 C 0.59714 0.35058 0.80259 0.0
N920 N 0.70787 0.4473 0.80041 0.0
N921 N 0.57398 0.29663 0.8613 0.0
H922 H 0.55393 0.33753 0.73974 0.0
H923 H 0.52537 0.30829 0.78379 0.0
H924 H 0.58172 0.28279 0.89233 0.0
H925 H 0.54734 0.2722 0.83956 0.0
H926 H 0.7349 0.47195 0.82155 0.0
H927 H 0.70392 0.45777 0.76757 0.0
H928 H 0.75413 0.4365 0.8779 0.0
H929 H 0.72901 0.40227 0.92044 0.0
C930 C 0.68958 0.34634 0.18937 0.0
C931 C 0.72095 0.31702 0.17519 0.0
C932 C 0.69935 0.33455 0.09603 0.0
C933 C 0.66905 0.36464 0.11034 0.0
N934 N 0.63732 0.40243 0.17008 0.0
N935 N 0.75942 0.28762 0.1149 0.0
C936 C 0.66471 0.37135 0.15694 0.0
C937 C 0.72711 0.31279 0.12854 0.0
N938 N 0.68377 0.35041 0.23406 0.0
N939 N 0.69966 0.32461 0.05082 0.0
H940 H 0.77674 0.26668 0.13583 0.0
H941 H 0.77119 0.28927 0.08316 0.0
H942 H 0.68135 0.34082 0.02593 0.0
H943 H 0.71519 0.29781 0.03747 0.0
H944 H 0.65792 0.36621 0.24673 0.0
H945 H 0.70446 0.33686 0.2591 0.0
H946 H 0.635 0.41287 0.2034 0.0
H947 H 0.61815 0.42008 0.1471 0.0
C948 C 0.6279 0.61036 0.17651 0.0
C949 C 0.64138 0.662 0.17654 0.0
C950 C 0.63388 0.65725 0.09474 0.0
C951 C 0.62455 0.60468 0.09328 0.0
N952 N 0.61712 0.53142 0.13718 0.0
N953 N 0.62924 0.7315 0.1368 0.0
C954 C 0.62227 0.58104 0.13523 0.0
C955 C 0.63468 0.68428 0.1359 0.0
N956 N 0.61569 0.58959 0.2154 0.0
N957 N 0.6479 0.68231 0.05833 0.0
H958 H 0.62729 0.75088 0.16695 0.0
H959 H 0.62057 0.74851 0.10775 0.0
H960 H 0.6562 0.66566 0.02933 0.0
H961 H 0.65874 0.72059 0.0596 0.0
H962 H 0.60123 0.55219 0.21747 0.0
H963 H 0.61316 0.61084 0.24421 0.0
H964 H 0.62612 0.51552 0.16677 0.0
H965 H 0.60471 0.50512 0.11065 0.0
C966 C 0.37016 0.60966 0.17743 0.0
C967 C 0.40479 0.6373 0.21173 0.0
C968 C 0.46915 0.63215 0.16613 0.0
C969 C 0.43352 0.61202 0.12865 0.0
N970 N 0.34913 0.59256 0.09716 0.0
N971 N 0.48632 0.6799 0.23817 0.0
C972 C 0.3836 0.6033 0.13392 0.0
C973 C 0.45414 0.64977 0.20598 0.0
N974 N 0.32391 0.59143 0.18632 0.0
N975 N 0.51682 0.63242 0.165 0.0
H976 H 0.47612 0.69125 0.26862 0.0
H977 H 0.52198 0.6958 0.23348 0.0
H978 H 0.52987 0.61621 0.13855 0.0
H979 H 0.54262 0.64309 0.19312 0.0
H980 H 0.29784 0.56753 0.16359 0.0
H981 H 0.31345 0.59636 0.21824 0.0
H982 H 0.3125 0.59014 0.0992 0.0
H983 H 0.35761 0.59206 0.06413 0.0
C984 C 0.47834 0.36504 0.19464 0.0
C985 C 0.46669 0.40155 0.22282 0.0
C986 C 0.49957 0.46412 0.17396 0.0
C987 C 0.49614 0.42618 0.13967 0.0
N988 N 0.49096 0.3408 0.11875 0.0
N989 N 0.49843 0.48419 0.25376 0.0
C990 C 0.48948 0.37661 0.15068 0.0
C991 C 0.48861 0.45089 0.21737 0.0
N992 N 0.48184 0.32132 0.21125 0.0
N993 N 0.50942 0.51226 0.16414 0.0
H994 H 0.49109 0.47311 0.28569 0.0
H995 H 0.51753 0.52057 0.25307 0.0
H996 H 0.51831 0.52348 0.13272 0.0
H997 H 0.50661 0.54056 0.18669 0.0
H998 H 0.49311 0.29408 0.19333 0.0
H999 H 0.47866 0.31541 0.24515 0.0
H1000 H 0.48122 0.30337 0.12367 0.0
H1001 H 0.50022 0.34891 0.08667 0.0
C1002 C 0.81394 0.68833 0.60822 0.0
C1003 C 0.82997 0.69876 0.65509 0.0
C1004 C 0.89896 0.66145 0.64613 0.0
C1005 C 0.88552 0.65509 0.59878 0.0
N1006 N 0.83444 0.66943 0.53362 0.0
N1007 N 0.89309 0.70294 0.71715 0.0
C1008 C 0.84391 0.67014 0.57949 0.0
C1009 C 0.87416 0.68781 0.6735 0.0
N1010 N 0.77032 0.69635 0.591 0.0
N1011 N 0.93393 0.64002 0.66546 0.0
H1012 H 0.87552 0.71984 0.73961 0.0
H1013 H 0.92806 0.70182 0.73032 0.0
H1014 H 0.95224 0.6194 0.6469 0.0
H1015 H 0.94136 0.63837 0.70015 0.0
H1016 H 0.75394 0.6844 0.55837 0.0
H1017 H 0.74891 0.71244 0.61023 0.0
H1018 H 0.80796 0.68479 0.51727 0.0
H1019 H 0.85584 0.65716 0.51163 0.0
C1020 C 0.45013 0.9151 0.69677 0.0
C1021 C 0.46011 0.86866 0.68747 0.0
C1022 C 0.46682 0.88499 0.60979 0.0
C1023 C 0.45776 0.93223 0.61843 0.0
N1024 N 0.45284 0.99709 0.67256 0.0
N1025 N 0.4917 0.81519 0.6411 0.0
C1026 C 0.45332 0.94904 0.66282 0.0
C1027 C 0.47407 0.85626 0.64603 0.0
N1028 N 0.43478 0.92522 0.73699 0.0
N1029 N 0.46432 0.86575 0.56677 0.0
H1030 H 0.49615 0.79336 0.66794 0.0
H1031 H 0.50641 0.80614 0.61239 0.0
H1032 H 0.45611 0.88473 0.5393 0.0
H1033 H 0.46551 0.82951 0.55851 0.0
H1034 H 0.4212 0.95595 0.74374 0.0
H1035 H 0.43348 0.90128 0.76282 0.0
H1036 H 0.45397 0.01214 0.70525 0.0
H1037 H 0.45544 0.02296 0.64834 0.0
C1038 C 0.21203 0.47567 0.64394 0.0
C1039 C 0.19575 0.43502 0.66787 0.0
C1040 C 0.11243 0.43404 0.64042 0.0
C1041 C 0.13055 0.45864 0.60352 0.0
N1042 N 0.19775 0.5157 0.57627 0.0
N1043 N 0.13086 0.38395 0.70089 0.0
C1044 C 0.18028 0.48515 0.60801 0.0
C1045 C 0.14581 0.41828 0.67137 0.0
N1046 N 0.25926 0.50072 0.65277 0.0
N1047 N 0.06441 0.42544 0.64514 0.0
H1048 H 0.15525 0.37352 0.7248 0.0
H1049 H 0.0948 0.36566 0.70111 0.0
H1050 H 0.04072 0.44031 0.6241 0.0
H1051 H 0.0497 0.4092 0.67271 0.0
H1052 H 0.27377 0.53303 0.63814 0.0
H1053 H 0.28236 0.49081 0.67839 0.0
H1054 H 0.23442 0.5304 0.57488 0.0
H1055 H 0.17528 0.52688 0.5513 0.0
C1056 C 0.69985 0.1216 0.63682 0.0
C1057 C 0.72117 0.17098 0.62958 0.0
C1058 C 0.67769 0.15971 0.5536 0.0
C1059 C 0.64619 0.11744 0.56672 0.0
N1060 N 0.62868 0.05513 0.62045 0.0
N1061 N 0.73888 0.23454 0.57825 0.0
C1062 C 0.65849 0.09638 0.60748 0.0
C1063 C 0.71341 0.18891 0.58655 0.0
N1064 N 0.71811 0.09931 0.67204 0.0
N1065 N 0.67268 0.17161 0.50989 0.0
H1066 H 0.76706 0.25512 0.60138 0.0
H1067 H 0.73151 0.25224 0.54935 0.0
H1068 H 0.64777 0.14869 0.48545 0.0
H1069 H 0.69597 0.20063 0.49715 0.0
H1070 H 0.70653 0.06188 0.67633 0.0
H1071 H 0.74838 0.11684 0.69418 0.0
H1072 H 0.63262 0.04281 0.65269 0.0
H1073 H 0.5983 0.03433 0.60029 0.0
C1074 C 0.83875 0.38716 0.34366 0.0
C1075 C 0.81602 0.34166 0.35955 0.0
C1076 C 0.85177 0.3733 0.43645 0.0
C1077 C 0.88383 0.41246 0.41872 0.0
N1078 N 0.90581 0.45892 0.35501 0.0
N1079 N 0.79408 0.29394 0.42228 0.0
C1080 C 0.87573 0.421 0.3724 0.0
C1081 C 0.81948 0.33594 0.40654 0.0
N1082 N 0.82505 0.39739 0.30063 0.0
N1083 N 0.85285 0.37209 0.48203 0.0
H1084 H 0.76846 0.26735 0.40156 0.0
H1085 H 0.7993 0.28453 0.4554 0.0
H1086 H 0.87549 0.39999 0.50369 0.0
H1087 H 0.82879 0.3468 0.49804 0.0
H1088 H 0.83715 0.43139 0.28776 0.0
H1089 H 0.79752 0.37316 0.27944 0.0
H1090 H 0.90627 0.46258 0.32058 0.0
H1091 H 0.93188 0.48584 0.37487 0.0
C1092 C 0.63212 0.78133 0.37146 0.0
C1093 C 0.67107 0.80297 0.34789 0.0
C1094 C 0.65893 0.8845 0.36867 0.0
C1095 C 0.62426 0.86371 0.39693 0.0
N1096 N 0.59299 0.79196 0.43737 0.0
N1097 N 0.73385 0.87686 0.3437 0.0
C1098 C 0.615 0.81189 0.40197 0.0
C1099 C 0.68827 0.85511 0.35223 0.0
N1100 N 0.6105 0.73237 0.36438 0.0
N1101 N 0.66334 0.93144 0.35603 0.0
H1102 H 0.75875 0.85664 0.3364 0.0
H1103 H 0.74848 0.91463 0.34965 0.0
H1104 H 0.63987 0.95321 0.36398 0.0
H1105 H 0.68655 0.94604 0.33285 0.0
H1106 H 0.5793 0.71644 0.37844 0.0
H1107 H 0.62049 0.70898 0.34104 0.0
H1108 H 0.58892 0.75495 0.44358 0.0
H1109 H 0.58525 0.81317 0.46388 0.0
C1110 C 0.14822 0.63347 0.30721 0.0
C1111 C 0.17196 0.68372 0.31986 0.0
C1112 C 0.13125 0.6755 0.39068 0.0
C1113 C 0.11042 0.62427 0.37955 0.0
N1114 N 0.09921 0.55482 0.32614 0.0
N1115 N 0.17684 0.755 0.36978 0.0
C1116 C 0.11864 0.60384 0.33711 0.0
C1117 C 0.16037 0.70536 0.3604 0.0
N1118 N 0.15235 0.61454 0.26531 0.0
N1119 N 0.12515 0.69509 0.43169 0.0
H1120 H 0.19778 0.77756 0.349 0.0
H1121 H 0.16792 0.77471 0.39655 0.0
H1122 H 0.10276 0.67505 0.45305 0.0
H1123 H 0.14317 0.73006 0.4455 0.0
H1124 H 0.13338 0.58002 0.25118 0.0
H1125 H 0.17246 0.63528 0.24283 0.0
H1126 H 0.1078 0.53479 0.29938 0.0
H1127 H 0.07488 0.53344 0.34513 0.0
C1128 C 0.34769 0.14978 0.3273 0.0
C1129 C 0.34093 0.19811 0.33743 0.0
C1130 C 0.38272 0.19683 0.41435 0.0
C1131 C 0.39195 0.15008 0.40346 0.0
N1132 N 0.39091 0.08625 0.34673 0.0
N1133 N 0.3641 0.27167 0.38847 0.0
C1134 C 0.37629 0.12761 0.35915 0.0
C1135 C 0.36229 0.22285 0.38014 0.0
N1136 N 0.32754 0.12508 0.28681 0.0
N1137 N 0.39114 0.21574 0.45823 0.0
H1138 H 0.34941 0.29282 0.36577 0.0
H1139 H 0.3845 0.2927 0.41658 0.0
H1140 H 0.4058 0.19848 0.48459 0.0
H1141 H 0.37912 0.24615 0.46932 0.0
H1142 H 0.32525 0.0878 0.27973 0.0
H1143 H 0.31134 0.14126 0.26056 0.0
H1144 H 0.3857 0.07066 0.31379 0.0
H1145 H 0.41214 0.06973 0.36888 0.0
C1146 C 0.64635 0.84881 0.66528 0.0
C1147 C 0.68926 0.83617 0.65309 0.0
C1148 C 0.67517 0.87171 0.5796 0.0
C1149 C 0.63486 0.88817 0.59353 0.0
N1150 N 0.58933 0.90118 0.6539 0.0
N1151 N 0.74749 0.84141 0.59996 0.0
C1152 C 0.62247 0.87899 0.63756 0.0
C1153 C 0.70468 0.8498 0.61078 0.0
N1154 N 0.62768 0.83152 0.70317 0.0
N1155 N 0.6839 0.87453 0.53563 0.0
H1156 H 0.76842 0.82276 0.62018 0.0
H1157 H 0.76386 0.85567 0.57243 0.0
H1158 H 0.66335 0.88964 0.51169 0.0
H1159 H 0.70875 0.85809 0.52178 0.0
H1160 H 0.59382 0.83462 0.71103 0.0
H1161 H 0.64433 0.81091 0.72521 0.0
H1162 H 0.58229 0.90066 0.68734 0.0
H1163 H 0.57221 0.92413 0.63495 0.0
C1164 C 0.56992 0.18145 0.35214 0.0
C1165 C 0.56734 0.15718 0.30963 0.0
C1166 C 0.52446 0.08092 0.33629 0.0
C1167 C 0.54579 0.10042 0.38036 0.0
N1168 N 0.57302 0.17245 0.43255 0.0
N1169 N 0.51625 0.09675 0.25639 0.0
C1170 C 0.56279 0.15215 0.3893 0.0
C1171 C 0.5331 0.11192 0.30023 0.0
N1172 N 0.58114 0.2315 0.35631 0.0
N1173 N 0.49876 0.03316 0.32915 0.0
H1174 H 0.52653 0.11964 0.23071 0.0
H1175 H 0.49132 0.06377 0.24593 0.0
H1176 H 0.49193 0.01043 0.35559 0.0
H1177 H 0.48398 0.01621 0.29748 0.0
H1178 H 0.58236 0.25213 0.38643 0.0
H1179 H 0.58473 0.25174 0.32787 0.0
H1180 H 0.58961 0.20935 0.44115 0.0
H1181 H 0.56506 0.15167 0.45994 0.0
C1182 C 0.87605 0.67672 0.39852 0.0
C1183 C 0.84953 0.6309 0.37552 0.0
C1184 C 0.92628 0.61247 0.36056 0.0
C1185 C 0.94934 0.64868 0.39474 0.0
N1186 N 0.95579 0.73157 0.42041 0.0
N1187 N 0.8497 0.55861 0.32841 0.0
C1188 C 0.9273 0.68693 0.40413 0.0
C1189 C 0.87493 0.60009 0.35381 0.0
N1190 N 0.85301 0.7098 0.4155 0.0
N1191 N 0.95381 0.58692 0.33946 0.0
H1192 H 0.81197 0.54783 0.32484 0.0
H1193 H 0.8659 0.53387 0.31265 0.0
H1194 H 0.99144 0.59556 0.34758 0.0
H1195 H 0.9402 0.5603 0.31294 0.0
H1196 H 0.87078 0.7393 0.43817 0.0
H1197 H 0.81615 0.70732 0.40866 0.0
H1198 H 0.94267 0.76295 0.42544 0.0
H1199 H 0.99348 0.73719 0.42514 0.0
C1200 C 0.32765 0.90746 0.36011 0.0
C1201 C 0.31545 0.85514 0.35766 0.0
C1202 C 0.34301 0.85637 0.43824 0.0
C1203 C 0.36334 0.90717 0.43751 0.0
N1204 N 0.34824 0.98165 0.41007 0.0
N1205 N 0.29595 0.78089 0.39716 0.0
C1206 C 0.34684 0.9331 0.4023 0.0
C1207 C 0.31768 0.82983 0.39788 0.0
N1208 N 0.32318 0.93274 0.32246 0.0
N1209 N 0.35055 0.83404 0.47715 0.0
H1210 H 0.2767 0.76073 0.36818 0.0
H1211 H 0.2941 0.76071 0.42553 0.0
H1212 H 0.36698 0.85469 0.50704 0.0
H1213 H 0.34095 0.79628 0.48015 0.0
H1214 H 0.33732 0.97048 0.32217 0.0
H1215 H 0.30739 0.91614 0.29097 0.0
H1216 H 0.33518 1.00301 0.38631 0.0
H1217 H 0.35565 0.99766 0.44287 0.0
C1218 C 0.21865 0.34218 0.38017 0.0
C1219 C 0.1992 0.32918 0.3343 0.0
C1220 C 0.13181 0.3681 0.34528 0.0
C1221 C 0.1504 0.37938 0.39135 0.0
N1222 N 0.20692 0.37174 0.45489 0.0
N1223 N 0.13296 0.32275 0.27478 0.0
C1224 C 0.19268 0.36504 0.40941 0.0
C1225 C 0.15436 0.33983 0.3174 0.0
N1226 N 0.26186 0.33225 0.39583 0.0
N1227 N 0.09378 0.38636 0.32766 0.0
H1228 H 0.1492 0.3049 0.25182 0.0
H1229 H 0.0976 0.32359 0.26279 0.0
H1230 H 0.07572 0.40635 0.34717 0.0
H1231 H 0.08236 0.3851 0.29329 0.0
H1232 H 0.28146 0.34606 0.42689 0.0
H1233 H 0.27917 0.31127 0.37671 0.0
H1234 H 0.23431 0.35769 0.47126 0.0
H1235 H 0.18895 0.38864 0.47716 0.0
C1236 C 0.37787 0.18933 0.6889 0.0
C1237 C 0.33499 0.20417 0.67303 0.0
C1238 C 0.34028 0.17248 0.59623 0.0
C1239 C 0.38154 0.15542 0.61264 0.0
N1240 N 0.43459 0.13918 0.67539 0.0
N1241 N 0.26917 0.19905 0.61378 0.0
C1242 C 0.399 0.16155 0.65923 0.0
C1243 C 0.31454 0.19292 0.62723 0.0
N1244 N 0.39927 0.20297 0.73203 0.0
N1245 N 0.32628 0.17024 0.55084 0.0
H1246 H 0.24838 0.21233 0.63563 0.0
H1247 H 0.25016 0.18633 0.58221 0.0
H1248 H 0.34313 0.15409 0.52707 0.0
H1249 H 0.30035 0.18764 0.53651 0.0
H1250 H 0.43347 0.19862 0.74419 0.0
H1251 H 0.38415 0.22201 0.75492 0.0
H1252 H 0.4451 0.13735 0.70958 0.0
H1253 H 0.45096 0.11863 0.65465 0.0
C1254 C 0.88631 0.33677 0.62567 0.0
C1255 C 0.8649 0.35727 0.66102 0.0
C1256 C 0.91051 0.44048 0.64266 0.0
C1257 C 0.92695 0.42062 0.60408 0.0
N1258 N 0.92999 0.34852 0.55921 0.0
N1259 N 0.85672 0.43076 0.70119 0.0
C1260 C 0.91528 0.36825 0.59627 0.0
C1261 C 0.87728 0.40974 0.66879 0.0
N1262 N 0.87825 0.28677 0.61948 0.0
N1263 N 0.92826 0.4894 0.65532 0.0
H1264 H 0.8356 0.41013 0.72291 0.0
H1265 H 0.85827 0.46826 0.70507 0.0
H1266 H 0.95324 0.51223 0.63795 0.0
H1267 H 0.92242 0.50638 0.68519 0.0
H1268 H 0.8966 0.26875 0.59864 0.0
H1269 H 0.85438 0.26283 0.63687 0.0
H1270 H 0.91837 0.31176 0.54725 0.0
H1271 H 0.95263 0.36995 0.53893 0.0
C1272 C 0.20024 0.60142 0.65944 0.0
C1273 C 0.23969 0.63992 0.65216 0.0
C1274 C 0.20258 0.64073 0.57405 0.0
C1275 C 0.15927 0.60945 0.58498 0.0
N1276 N 0.11548 0.56254 0.63965 0.0
N1277 N 0.28756 0.6807 0.59765 0.0
C1278 C 0.15787 0.59003 0.62797 0.0
C1279 C 0.24388 0.65492 0.60776 0.0
N1280 N 0.20392 0.5757 0.69685 0.0
N1281 N 0.20325 0.65825 0.53216 0.0
H1282 H 0.31881 0.68699 0.62064 0.0
H1283 H 0.29422 0.69149 0.56569 0.0
H1284 H 0.1742 0.64681 0.50674 0.0
H1285 H 0.23144 0.68505 0.52282 0.0
H1286 H 0.17798 0.54475 0.70305 0.0
H1287 H 0.23578 0.58272 0.7192 0.0
H1288 H 0.11112 0.55253 0.67234 0.0
H1289 H 0.08364 0.55193 0.61736 0.0
loop_
_geom_bond_atom_site_label_1
_geom_bond_atom_site_label_2
_geom_bond_distance
_geom_bond_site_symmetry_2
_ccdc_geom_bond_type
Co0 N5 2.057 . S
Co0 O17 2.021 . S
Co0 O20 2.062 . S
Co0 O24 2.117 . S
Co0 O25 2.020 . S
C1 O21 1.259 . S
C1 O24 1.258 . S
Co2 N11 2.057 . S
Co2 O18 2.117 . S
Co2 O19 2.020 . S
Co2 O21 2.021 . S
Co2 O26 2.062 . S
C3 N5 1.316 . S
C3 N6 1.347 . S
C3 H8 0.931 . S
C4 N5 1.375 . S
C4 C7 1.350 . S
C4 H9 0.930 . S
N5 Co0 2.057 . S
N5 C3 1.316 . S
N5 C4 1.375 . S
N6 C3 1.347 . S
N6 C7 1.373 . S
C7 C4 1.350 . S
C7 N6 1.373 . S
C7 H28 0.931 . S
H8 C3 0.931 . S
H9 C4 0.930 . S
C10 O17 1.259 . S
C10 O18 1.258 . S
N11 Co2 2.057 . S
N11 C12 1.316 . S
N11 C13 1.375 . S
C12 N11 1.316 . S
C12 N14 1.347 . S
C12 H23 0.931 . S
C13 N11 1.375 . S
C13 C15 1.350 . S
C13 H22 0.930 . S
N14 C12 1.347 . S
N14 C15 1.373 . S
C15 C13 1.350 . S
C15 N14 1.373 . S
C15 H29 0.931 . S
C16 O19 1.256 . S
C16 O20 1.255 . S
O17 Co0 2.021 . S
O17 C10 1.259 . S
O18 Co2 2.117 . S
O18 C10 1.258 . S
O19 Co2 2.020 . S
O19 C16 1.256 . S
O20 Co0 2.062 . S
O20 C16 1.255 . S
O21 C1 1.259 . S
O21 Co2 2.021 . S
H22 C13 0.930 . S
H23 C12 0.931 . S
O24 Co0 2.117 . S
O24 C1 1.258 . S
O25 Co0 2.020 . S
O25 C27 1.256 . S
O26 Co2 2.062 . S
O26 C27 1.255 . S
C27 O25 1.256 . S
C27 O26 1.255 . S
H28 C7 0.931 . S
H29 C15 0.931 . S
Co30 N35 2.057 . S
Co30 O47 2.021 . S
Co30 O50 2.062 . S
Co30 O54 2.117 . S
Co30 O55 2.020 . S
C31 O51 1.259 . S
C31 O54 1.258 . S
Co32 N41 2.057 . S
Co32 O48 2.117 . S
Co32 O49 2.020 . S
Co32 O51 2.021 . S
Co32 O56 2.062 . S
C33 N35 1.316 . S
C33 N36 1.347 . S
C33 H38 0.931 . S
C34 N35 1.375 . S
C34 C37 1.350 . S
C34 H39 0.930 . S
N35 Co30 2.057 . S
N35 C33 1.316 . S
N35 C34 1.375 . S
N36 C33 1.347 . S
N36 C37 1.373 . S
C37 C34 1.350 . S
C37 N36 1.373 . S
C37 H58 0.931 . S
H38 C33 0.931 . S
H39 C34 0.930 . S
C40 O47 1.259 . S
C40 O48 1.258 . S
N41 Co32 2.057 . S
N41 C42 1.316 . S
N41 C43 1.375 . S
C42 N41 1.316 . S
C42 N44 1.347 . S
C42 H53 0.931 . S
C43 N41 1.375 . S
C43 C45 1.350 . S
C43 H52 0.930 . S
N44 C42 1.347 . S
N44 C45 1.373 . S
C45 C43 1.350 . S
C45 N44 1.373 . S
C45 H59 0.931 . S
C46 O49 1.256 . S
C46 O50 1.255 . S
O47 Co30 2.021 . S
O47 C40 1.259 . S
O48 Co32 2.117 . S
O48 C40 1.258 . S
O49 Co32 2.020 . S
O49 C46 1.256 . S
O50 Co30 2.062 . S
O50 C46 1.255 . S
O51 C31 1.259 . S
O51 Co32 2.021 . S
H52 C43 0.930 . S
H53 C42 0.931 . S
O54 Co30 2.117 . S
O54 C31 1.258 . S
O55 Co30 2.020 . S
O55 C57 1.256 . S
O56 Co32 2.062 . S
O56 C57 1.255 . S
C57 O55 1.256 . S
C57 O56 1.255 . S
H58 C37 0.931 . S
H59 C45 0.931 . S
Co60 N65 2.057 . S
Co60 O77 2.021 . S
Co60 O80 2.062 . S
Co60 O84 2.117 . S
Co60 O85 2.020 . S
C61 O81 1.259 . S
C61 O84 1.258 . S
Co62 N71 2.057 . S
Co62 O78 2.117 . S
Co62 O79 2.020 . S
Co62 O81 2.021 . S
Co62 O86 2.062 . S
C63 N65 1.316 . S
C63 N66 1.347 . S
C63 H68 0.931 . S
C64 N65 1.375 . S
C64 C67 1.350 . S
C64 H69 0.930 . S
N65 Co60 2.057 . S
N65 C63 1.316 . S
N65 C64 1.375 . S
N66 C63 1.347 . S
N66 C67 1.373 . S
C67 C64 1.350 . S
C67 N66 1.373 . S
C67 H88 0.931 . S
H68 C63 0.931 . S
H69 C64 0.930 . S
C70 O77 1.259 . S
C70 O78 1.258 . S
N71 Co62 2.057 . S
N71 C72 1.316 . S
N71 C73 1.375 . S
C72 N71 1.316 . S
C72 N74 1.347 . S
C72 H83 0.931 . S
C73 N71 1.375 . S
C73 C75 1.350 . S
C73 H82 0.930 . S
N74 C72 1.347 . S
N74 C75 1.373 . S
C75 C73 1.350 . S
C75 N74 1.373 . S
C75 H89 0.931 . S
C76 O79 1.256 . S
C76 O80 1.255 . S
O77 Co60 2.021 . S
O77 C70 1.259 . S
O78 Co62 2.117 . S
O78 C70 1.258 . S
O79 Co62 2.020 . S
O79 C76 1.256 . S
O80 Co60 2.062 . S
O80 C76 1.255 . S
O81 C61 1.259 . S
O81 Co62 2.021 . S
H82 C73 0.930 . S
H83 C72 0.931 . S
O84 Co60 2.117 . S
O84 C61 1.258 . S
O85 Co60 2.020 . S
O85 C87 1.256 . S
O86 Co62 2.062 . S
O86 C87 1.255 . S
C87 O85 1.256 . S
C87 O86 1.255 . S
H88 C67 0.931 . S
H89 C75 0.931 . S
Co90 N95 2.057 . S
Co90 O107 2.021 . S
Co90 O110 2.062 . S
Co90 O114 2.117 . S
Co90 O115 2.020 . S
C91 O111 1.259 . S
C91 O114 1.258 . S
Co92 N101 2.057 . S
Co92 O108 2.117 . S
Co92 O109 2.020 . S
Co92 O111 2.021 . S
Co92 O116 2.062 . S
C93 N95 1.316 . S
C93 N96 1.347 . S
C93 H98 0.931 . S
C94 N95 1.375 . S
C94 C97 1.350 . S
C94 H99 0.930 . S
N95 Co90 2.057 . S
N95 C93 1.316 . S
N95 C94 1.375 . S
N96 C93 1.347 . S
N96 C97 1.373 . S
C97 C94 1.350 . S
C97 N96 1.373 . S
C97 H118 0.931 . S
H98 C93 0.931 . S
H99 C94 0.930 . S
C100 O107 1.259 . S
C100 O108 1.258 . S
N101 Co92 2.057 . S
N101 C102 1.316 . S
N101 C103 1.375 . S
C102 N101 1.316 . S
C102 N104 1.347 . S
C102 H113 0.931 . S
C103 N101 1.375 . S
C103 C105 1.350 . S
C103 H112 0.930 . S
N104 C102 1.347 . S
N104 C105 1.373 . S
C105 C103 1.350 . S
C105 N104 1.373 . S
C105 H119 0.931 . S
C106 O109 1.256 . S
C106 O110 1.255 . S
O107 Co90 2.021 . S
O107 C100 1.259 . S
O108 Co92 2.117 . S
O108 C100 1.258 . S
O109 Co92 2.020 . S
O109 C106 1.256 . S
O110 Co90 2.062 . S
O110 C106 1.255 . S
O111 C91 1.259 . S
O111 Co92 2.021 . S
H112 C103 0.930 . S
H113 C102 0.931 . S
O114 Co90 2.117 . S
O114 C91 1.258 . S
O115 Co90 2.020 . S
O115 C117 1.256 . S
O116 Co92 2.062 . S
O116 C117 1.255 . S
C117 O115 1.256 . S
C117 O116 1.255 . S
H118 C97 0.931 . S
H119 C105 0.931 . S
Co120 N125 2.057 . S
Co120 O137 2.021 . S
Co120 O140 2.062 . S
Co120 O144 2.117 . S
Co120 O145 2.020 . S
C121 O141 1.259 . S
C121 O144 1.258 . S
Co122 N131 2.057 . S
Co122 O138 2.117 . S
Co122 O139 2.020 . S
Co122 O141 2.021 . S
Co122 O146 2.062 . S
C123 N125 1.316 . S
C123 N126 1.347 . S
C123 H128 0.931 . S
C124 N125 1.375 . S
C124 C127 1.350 . S
C124 H129 0.930 . S
N125 Co120 2.057 . S
N125 C123 1.316 . S
N125 C124 1.375 . S
N126 C123 1.347 . S
N126 C127 1.373 . S
C127 C124 1.350 . S
C127 N126 1.373 . S
C127 H148 0.931 . S
H128 C123 0.931 . S
H129 C124 0.930 . S
C130 O137 1.259 . S
C130 O138 1.258 . S
N131 Co122 2.057 . S
N131 C132 1.316 . S
N131 C133 1.375 . S
C132 N131 1.316 . S
C132 N134 1.347 . S
C132 H143 0.931 . S
C133 N131 1.375 . S
C133 C135 1.350 . S
C133 H142 0.930 . S
N134 C132 1.347 . S
N134 C135 1.373 . S
C135 C133 1.350 . S
C135 N134 1.373 . S
C135 H149 0.931 . S
C136 O139 1.256 . S
C136 O140 1.255 . S
O137 Co120 2.021 . S
O137 C130 1.259 . S
O138 Co122 2.117 . S
O138 C130 1.258 . S
O139 Co122 2.020 . S
O139 C136 1.256 . S
O140 Co120 2.062 . S
O140 C136 1.255 . S
O141 C121 1.259 . S
O141 Co122 2.021 . S
H142 C133 0.930 . S
H143 C132 0.931 . S
O144 Co120 2.117 . S
O144 C121 1.258 . S
O145 Co120 2.020 . S
O145 C147 1.256 . S
O146 Co122 2.062 . S
O146 C147 1.255 . S
C147 O145 1.256 . S
C147 O146 1.255 . S
H148 C127 0.931 . S
H149 C135 0.931 . S
Co150 N155 2.057 . S
Co150 O167 2.021 . S
Co150 O170 2.062 . S
Co150 O174 2.117 . S
Co150 O175 2.020 . S
C151 O171 1.259 . S
C151 O174 1.258 . S
Co152 N161 2.057 . S
Co152 O168 2.117 . S
Co152 O169 2.020 . S
Co152 O171 2.021 . S
Co152 O176 2.062 . S
C153 N155 1.316 . S
C153 N156 1.347 . S
C153 H158 0.931 . S
C154 N155 1.375 . S
C154 C157 1.350 . S
C154 H159 0.930 . S
N155 Co150 2.057 . S
N155 C153 1.316 . S
N155 C154 1.375 . S
N156 C153 1.347 . S
N156 C157 1.373 . S
C157 C154 1.350 . S
C157 N156 1.373 . S
C157 H178 0.931 . S
H158 C153 0.931 . S
H159 C154 0.930 . S
C160 O167 1.259 . S
C160 O168 1.258 . S
N161 Co152 2.057 . S
N161 C162 1.316 . S
N161 C163 1.375 . S
C162 N161 1.316 . S
C162 N164 1.347 . S
C162 H173 0.931 . S
C163 N161 1.375 . S
C163 C165 1.350 . S
C163 H172 0.930 . S
N164 C162 1.347 . S
N164 C165 1.373 . S
C165 C163 1.350 . S
C165 N164 1.373 . S
C165 H179 0.931 . S
C166 O169 1.256 . S
C166 O170 1.255 . S
O167 Co150 2.021 . S
O167 C160 1.259 . S
O168 Co152 2.117 . S
O168 C160 1.258 . S
O169 Co152 2.020 . S
O169 C166 1.256 . S
O170 Co150 2.062 . S
O170 C166 1.255 . S
O171 C151 1.259 . S
O171 Co152 2.021 . S
H172 C163 0.930 . S
H173 C162 0.931 . S
O174 Co150 2.117 . S
O174 C151 1.258 . S
O175 Co150 2.020 . S
O175 C177 1.256 . S
O176 Co152 2.062 . S
O176 C177 1.255 . S
C177 O175 1.256 . S
C177 O176 1.255 . S
H178 C157 0.931 . S
H179 C165 0.931 . S
Co180 N185 2.057 . S
Co180 O197 2.021 . S
Co180 O200 2.062 . S
Co180 O204 2.117 . S
Co180 O205 2.020 . S
C181 O201 1.259 . S
C181 O204 1.258 . S
Co182 N191 2.057 . S
Co182 O198 2.117 . S
Co182 O199 2.020 . S
Co182 O201 2.021 . S
Co182 O206 2.062 . S
C183 N185 1.316 . S
C183 N186 1.347 . S
C183 H188 0.931 . S
C184 N185 1.375 . S
C184 C187 1.350 . S
C184 H189 0.930 . S
N185 Co180 2.057 . S
N185 C183 1.316 . S
N185 C184 1.375 . S
N186 C183 1.347 . S
N186 C187 1.373 . S
C187 C184 1.350 . S
C187 N186 1.373 . S
C187 H208 0.931 . S
H188 C183 0.931 . S
H189 C184 0.930 . S
C190 O197 1.259 . S
C190 O198 1.258 . S
N191 Co182 2.057 . S
N191 C192 1.316 . S
N191 C193 1.375 . S
C192 N191 1.316 . S
C192 N194 1.347 . S
C192 H203 0.931 . S
C193 N191 1.375 . S
C193 C195 1.350 . S
C193 H202 0.930 . S
N194 C192 1.347 . S
N194 C195 1.373 . S
C195 C193 1.350 . S
C195 N194 1.373 . S
C195 H209 0.931 . S
C196 O199 1.256 . S
C196 O200 1.255 . S
O197 Co180 2.021 . S
O197 C190 1.259 . S
O198 Co182 2.117 . S
O198 C190 1.258 . S
O199 Co182 2.020 . S
O199 C196 1.256 . S
O200 Co180 2.062 . S
O200 C196 1.255 . S
O201 C181 1.259 . S
O201 Co182 2.021 . S
H202 C193 0.930 . S
H203 C192 0.931 . S
O204 Co180 2.117 . S
O204 C181 1.258 . S
O205 Co180 2.020 . S
O205 C207 1.256 . S
O206 Co182 2.062 . S
O206 C207 1.255 . S
C207 O205 1.256 . S
C207 O206 1.255 . S
H208 C187 0.931 . S
H209 C195 0.931 . S
Co210 N215 2.057 . S
Co210 O227 2.021 . S
Co210 O230 2.062 . S
Co210 O234 2.117 . S
Co210 O235 2.020 . S
C211 O231 1.259 . S
C211 O234 1.258 . S
Co212 N221 2.057 . S
Co212 O228 2.117 . S
Co212 O229 2.020 . S
Co212 O231 2.021 . S
Co212 O236 2.062 . S
C213 N215 1.316 . S
C213 N216 1.347 . S
C213 H218 0.931 . S
C214 N215 1.375 . S
C214 C217 1.350 . S
C214 H219 0.930 . S
N215 Co210 2.057 . S
N215 C213 1.316 . S
N215 C214 1.375 . S
N216 C213 1.347 . S
N216 C217 1.373 . S
C217 C214 1.350 . S
C217 N216 1.373 . S
C217 H238 0.931 . S
H218 C213 0.931 . S
H219 C214 0.930 . S
C220 O227 1.259 . S
C220 O228 1.258 . S
N221 Co212 2.057 . S
N221 C222 1.316 . S
N221 C223 1.375 . S
C222 N221 1.316 . S
C222 N224 1.347 . S
C222 H233 0.931 . S
C223 N221 1.375 . S
C223 C225 1.350 . S
C223 H232 0.930 . S
N224 C222 1.347 . S
N224 C225 1.373 . S
C225 C223 1.350 . S
C225 N224 1.373 . S
C225 H239 0.931 . S
C226 O229 1.256 . S
C226 O230 1.255 . S
O227 Co210 2.021 . S
O227 C220 1.259 . S
O228 Co212 2.117 . S
O228 C220 1.258 . S
O229 Co212 2.020 . S
O229 C226 1.256 . S
O230 Co210 2.062 . S
O230 C226 1.255 . S
O231 C211 1.259 . S
O231 Co212 2.021 . S
H232 C223 0.930 . S
H233 C222 0.931 . S
O234 Co210 2.117 . S
O234 C211 1.258 . S
O235 Co210 2.020 . S
O235 C237 1.256 . S
O236 Co212 2.062 . S
O236 C237 1.255 . S
C237 O235 1.256 . S
C237 O236 1.255 . S
H238 C217 0.931 . S
H239 C225 0.931 . S
C240 O252 1.241 . S
C240 O253 1.280 . S
C241 O254 1.277 . S
C241 O255 1.245 . S
C242 O266 1.247 . S
C242 O268 1.289 . S
Mg243 O244 1.926 . S
Mg243 O253 1.984 . S
Mg243 O255 1.988 . S
Mg243 O256 2.061 1_655 S
O244 Mg243 1.926 . S
O244 Mg245 1.986 . S
O244 Mg246 1.917 1_655 S
Mg245 O244 1.986 . S
Mg245 O252 2.042 . S
Mg245 O254 2.041 . S
Mg245 O260 2.038 1_545 S
Mg245 O268 2.238 1_545 S
Mg246 O244 1.917 1_455 S
Mg246 O247 1.917 1_545 S
Mg246 O257 2.106 . S
Mg246 O259 2.079 1_445 S
Mg246 O268 2.106 1_445 S
Mg246 O269 2.079 . S
O247 Mg246 1.917 1_565 S
O247 Mg248 1.926 . S
O247 Mg249 1.986 . S
Mg248 O247 1.926 . S
Mg248 O262 1.984 . S
Mg248 O265 1.988 . S
Mg248 O266 2.061 1_455 S
Mg249 O247 1.986 . S
Mg249 O257 2.238 1_565 S
Mg249 O261 2.042 . S
Mg249 O263 2.041 . S
Mg249 O270 2.038 1_565 S
C250 O256 1.247 . S
C250 O257 1.289 . S
C251 O269 1.245 . S
C251 O270 1.274 . S
O252 C240 1.241 . S
O252 Mg245 2.042 . S
O253 C240 1.280 . S
O253 Mg243 1.984 . S
O254 C241 1.277 . S
O254 Mg245 2.041 . S
O255 C241 1.245 . S
O255 Mg243 1.988 . S
O256 Mg243 2.061 1_455 S
O256 C250 1.247 . S
O257 Mg246 2.106 . S
O257 Mg249 2.238 1_545 S
O257 C250 1.289 . S
C258 O259 1.245 . S
C258 O260 1.274 . S
O259 Mg246 2.079 1_665 S
O259 C258 1.245 . S
O260 Mg245 2.038 1_565 S
O260 C258 1.274 . S
O261 Mg249 2.042 . S
O261 C264 1.241 . S
O262 Mg248 1.984 . S
O262 C264 1.280 . S
O263 Mg249 2.041 . S
O263 C267 1.277 . S
C264 O261 1.241 . S
C264 O262 1.280 . S
O265 Mg248 1.988 . S
O265 C267 1.245 . S
O266 C242 1.247 . S
O266 Mg248 2.061 1_655 S
C267 O263 1.277 . S
C267 O265 1.245 . S
O268 C242 1.289 . S
O268 Mg245 2.238 1_565 S
O268 Mg246 2.106 1_665 S
O269 Mg246 2.079 . S
O269 C251 1.245 . S
O270 Mg249 2.038 1_545 S
O270 C251 1.274 . S
C271 O283 1.241 . S
C271 O284 1.280 . S
C272 O285 1.277 . S
C272 O286 1.245 . S
C273 O297 1.247 . S
C273 O299 1.289 . S
Mg274 O275 1.926 . S
Mg274 O284 1.984 . S
Mg274 O286 1.988 1_554 S
Mg274 O287 2.061 . S
O275 Mg274 1.926 . S
O275 Mg276 1.986 1_554 S
O275 Mg277 1.918 . S
Mg276 O275 1.986 1_556 S
Mg276 O283 2.042 1_556 S
Mg276 O285 2.041 . S
Mg276 O291 2.038 1_546 S
Mg276 O299 2.238 1_545 S
Mg277 O275 1.918 . S
Mg277 O278 1.916 1_544 S
Mg277 O288 2.108 . S
Mg277 O290 2.082 1_545 S
Mg277 O299 2.104 1_544 S
Mg277 O300 2.075 1_554 S
O278 Mg277 1.916 1_566 S
O278 Mg279 1.926 . S
O278 Mg280 1.986 1_556 S
Mg279 O278 1.926 . S
Mg279 O293 1.984 . S
Mg279 O296 1.988 1_556 S
Mg279 O297 2.061 . S
Mg280 O278 1.986 1_554 S
Mg280 O288 2.238 1_565 S
Mg280 O292 2.042 1_554 S
Mg280 O294 2.041 . S
Mg280 O301 2.038 1_564 S
C281 O287 1.247 . S
C281 O288 1.289 . S
C282 O300 1.245 . S
C282 O301 1.274 . S
O283 C271 1.241 . S
O283 Mg276 2.042 1_554 S
O284 C271 1.280 . S
O284 Mg274 1.984 . S
O285 C272 1.277 . S
O285 Mg276 2.041 . S
O286 C272 1.245 . S
O286 Mg274 1.988 1_556 S
O287 Mg274 2.061 . S
O287 C281 1.247 . S
O288 Mg277 2.108 . S
O288 Mg280 2.238 1_545 S
O288 C281 1.289 . S
C289 O290 1.245 . S
C289 O291 1.274 . S
O290 Mg277 2.082 1_565 S
O290 C289 1.245 . S
O291 Mg276 2.038 1_564 S
O291 C289 1.274 . S
O292 Mg280 2.042 1_556 S
O292 C295 1.241 . S
O293 Mg279 1.984 . S
O293 C295 1.280 . S
O294 Mg280 2.041 . S
O294 C298 1.277 . S
C295 O292 1.241 . S
C295 O293 1.280 . S
O296 Mg279 1.988 1_554 S
O296 C298 1.245 . S
O297 C273 1.247 . S
O297 Mg279 2.061 . S
C298 O294 1.277 . S
C298 O296 1.245 . S
O299 C273 1.289 . S
O299 Mg276 2.238 1_565 S
O299 Mg277 2.104 1_566 S
O300 Mg277 2.075 1_556 S
O300 C282 1.245 . S
O301 Mg280 2.038 1_546 S
O301 C282 1.274 . S
C302 O314 1.241 . S
C302 O315 1.280 . S
C303 O316 1.277 . S
C303 O317 1.245 . S
C304 O328 1.247 . S
C304 O330 1.289 . S
Mg305 O306 1.926 . S
Mg305 O315 1.984 . S
Mg305 O317 1.988 1_554 S
Mg305 O318 2.061 1_655 S
O306 Mg305 1.926 . S
O306 Mg307 1.986 1_554 S
O306 Mg308 1.918 1_655 S
Mg307 O306 1.986 1_556 S
Mg307 O314 2.042 1_556 S
Mg307 O316 2.041 . S
Mg307 O322 2.038 1_556 S
Mg307 O330 2.238 . S
Mg308 O306 1.918 1_455 S
Mg308 O309 1.916 1_554 S
Mg308 O319 2.108 . S
Mg308 O321 2.082 1_455 S
Mg308 O330 2.104 1_454 S
Mg308 O331 2.075 1_554 S
O309 Mg308 1.916 1_556 S
O309 Mg310 1.926 . S
O309 Mg311 1.986 1_556 S
Mg310 O309 1.926 . S
Mg310 O324 1.984 . S
Mg310 O327 1.988 1_556 S
Mg310 O328 2.061 1_455 S
Mg311 O309 1.986 1_554 S
Mg311 O319 2.238 . S
Mg311 O323 2.042 1_554 S
Mg311 O325 2.041 . S
Mg311 O332 2.038 1_554 S
C312 O318 1.247 . S
C312 O319 1.289 . S
C313 O331 1.245 . S
C313 O332 1.274 . S
O314 C302 1.241 . S
O314 Mg307 2.042 1_554 S
O315 C302 1.280 . S
O315 Mg305 1.984 . S
O316 C303 1.277 . S
O316 Mg307 2.041 . S
O317 C303 1.245 . S
O317 Mg305 1.988 1_556 S
O318 Mg305 2.061 1_455 S
O318 C312 1.247 . S
O319 Mg308 2.108 . S
O319 Mg311 2.238 . S
O319 C312 1.289 . S
C320 O321 1.245 . S
C320 O322 1.274 . S
O321 Mg308 2.082 1_655 S
O321 C320 1.245 . S
O322 Mg307 2.038 1_554 S
O322 C320 1.274 . S
O323 Mg311 2.042 1_556 S
O323 C326 1.241 . S
O324 Mg310 1.984 . S
O324 C326 1.280 . S
O325 Mg311 2.041 . S
O325 C329 1.277 . S
C326 O323 1.241 . S
C326 O324 1.280 . S
O327 Mg310 1.988 1_554 S
O327 C329 1.245 . S
O328 C304 1.247 . S
O328 Mg310 2.061 1_655 S
C329 O325 1.277 . S
C329 O327 1.245 . S
O330 C304 1.289 . S
O330 Mg307 2.238 . S
O330 Mg308 2.104 1_656 S
O331 Mg308 2.075 1_556 S
O331 C313 1.245 . S
O332 Mg311 2.038 1_556 S
O332 C313 1.274 . S
C333 O345 1.241 . S
C333 O346 1.280 . S
C334 O347 1.277 . S
C334 O348 1.245 . S
C335 O359 1.247 . S
C335 O361 1.289 . S
Mg336 O337 1.926 . S
Mg336 O346 1.984 . S
Mg336 O348 1.988 1_554 S
Mg336 O349 2.061 . S
O337 Mg336 1.926 . S
O337 Mg338 1.986 1_554 S
O337 Mg339 1.918 . S
Mg338 O337 1.986 1_556 S
Mg338 O345 2.042 1_556 S
Mg338 O347 2.041 . S
Mg338 O353 2.038 1_556 S
Mg338 O361 2.238 . S
Mg339 O337 1.918 . S
Mg339 O340 1.916 1_554 S
Mg339 O350 2.108 . S
Mg339 O352 2.082 . S
Mg339 O361 2.104 1_554 S
Mg339 O362 2.075 1_554 S
O340 Mg339 1.916 1_556 S
O340 Mg341 1.926 . S
O340 Mg342 1.986 1_556 S
Mg341 O340 1.926 . S
Mg341 O355 1.984 . S
Mg341 O358 1.988 1_556 S
Mg341 O359 2.061 . S
Mg342 O340 1.986 1_554 S
Mg342 O350 2.238 . S
Mg342 O354 2.042 1_554 S
Mg342 O356 2.041 . S
Mg342 O363 2.038 1_554 S
C343 O349 1.247 . S
C343 O350 1.289 . S
C344 O362 1.245 . S
C344 O363 1.274 . S
O345 C333 1.241 . S
O345 Mg338 2.042 1_554 S
O346 C333 1.280 . S
O346 Mg336 1.984 . S
O347 C334 1.277 . S
O347 Mg338 2.041 . S
O348 C334 1.245 . S
O348 Mg336 1.988 1_556 S
O349 Mg336 2.061 . S
O349 C343 1.247 . S
O350 Mg339 2.108 . S
O350 Mg342 2.238 . S
O350 C343 1.289 . S
C351 O352 1.245 . S
C351 O353 1.274 . S
O352 Mg339 2.082 . S
O352 C351 1.245 . S
O353 Mg338 2.038 1_554 S
O353 C351 1.274 . S
O354 Mg342 2.042 1_556 S
O354 C357 1.241 . S
O355 Mg341 1.984 . S
O355 C357 1.280 . S
O356 Mg342 2.041 . S
O356 C360 1.277 . S
C357 O354 1.241 . S
C357 O355 1.280 . S
O358 Mg341 1.988 1_554 S
O358 C360 1.245 . S
O359 C335 1.247 . S
O359 Mg341 2.061 . S
C360 O356 1.277 . S
C360 O358 1.245 . S
O361 C335 1.289 . S
O361 Mg338 2.238 . S
O361 Mg339 2.104 1_556 S
O362 Mg339 2.075 1_556 S
O362 C344 1.245 . S
O363 Mg342 2.038 1_556 S
O363 C344 1.274 . S
C364 O376 1.241 . S
C364 O377 1.280 . S
C365 O378 1.277 . S
C365 O379 1.245 . S
C366 O390 1.247 . S
C366 O392 1.289 . S
Mg367 O368 1.926 . S
Mg367 O377 1.984 . S
Mg367 O379 1.988 . S
Mg367 O380 2.061 1_655 S
O368 Mg367 1.926 . S
O368 Mg369 1.986 . S
O368 Mg370 1.917 1_655 S
Mg369 O368 1.986 . S
Mg369 O376 2.042 . S
Mg369 O378 2.041 . S
Mg369 O384 2.038 . S
Mg369 O392 2.238 . S
Mg370 O368 1.917 1_455 S
Mg370 O371 1.917 . S
Mg370 O381 2.106 . S
Mg370 O383 2.079 1_455 S
Mg370 O392 2.106 1_455 S
Mg370 O393 2.079 . S
O371 Mg370 1.917 . S
O371 Mg372 1.926 . S
O371 Mg373 1.986 . S
Mg372 O371 1.926 . S
Mg372 O386 1.984 . S
Mg372 O389 1.988 . S
Mg372 O390 2.061 1_455 S
Mg373 O371 1.986 . S
Mg373 O381 2.238 . S
Mg373 O385 2.042 . S
Mg373 O387 2.041 . S
Mg373 O394 2.038 . S
C374 O380 1.247 . S
C374 O381 1.289 . S
C375 O393 1.245 . S
C375 O394 1.274 . S
O376 C364 1.241 . S
O376 Mg369 2.042 . S
O377 C364 1.280 . S
O377 Mg367 1.984 . S
O378 C365 1.277 . S
O378 Mg369 2.041 . S
O379 C365 1.245 . S
O379 Mg367 1.988 . S
O380 Mg367 2.061 1_455 S
O380 C374 1.247 . S
O381 Mg370 2.106 . S
O381 Mg373 2.238 . S
O381 C374 1.289 . S
C382 O383 1.245 . S
C382 O384 1.274 . S
O383 Mg370 2.079 1_655 S
O383 C382 1.245 . S
O384 Mg369 2.038 . S
O384 C382 1.274 . S
O385 Mg373 2.042 . S
O385 C388 1.241 . S
O386 Mg372 1.984 . S
O386 C388 1.280 . S
O387 Mg373 2.041 . S
O387 C391 1.277 . S
C388 O385 1.241 . S
C388 O386 1.280 . S
O389 Mg372 1.988 . S
O389 C391 1.245 . S
O390 C366 1.247 . S
O390 Mg372 2.061 1_655 S
C391 O387 1.277 . S
C391 O389 1.245 . S
O392 C366 1.289 . S
O392 Mg369 2.238 . S
O392 Mg370 2.106 1_655 S
O393 Mg370 2.079 . S
O393 C375 1.245 . S
O394 Mg373 2.038 . S
O394 C375 1.274 . S
C395 O407 1.241 . S
C395 O408 1.280 . S
C396 O409 1.277 . S
C396 O410 1.245 . S
C397 O421 1.247 . S
C397 O423 1.289 . S
Mg398 O399 1.926 . S
Mg398 O408 1.984 . S
Mg398 O410 1.988 . S
Mg398 O411 2.061 . S
O399 Mg398 1.926 . S
O399 Mg400 1.986 . S
O399 Mg401 1.917 . S
Mg400 O399 1.986 . S
Mg400 O407 2.042 . S
Mg400 O409 2.041 . S
Mg400 O415 2.038 1_545 S
Mg400 O423 2.238 1_545 S
Mg401 O399 1.917 . S
Mg401 O402 1.917 1_545 S
Mg401 O412 2.106 . S
Mg401 O414 2.079 1_545 S
Mg401 O423 2.106 1_545 S
Mg401 O424 2.079 . S
O402 Mg401 1.917 1_565 S
O402 Mg403 1.926 . S
O402 Mg404 1.986 . S
Mg403 O402 1.926 . S
Mg403 O417 1.984 . S
Mg403 O420 1.988 . S
Mg403 O421 2.061 . S
Mg404 O402 1.986 . S
Mg404 O412 2.238 1_565 S
Mg404 O416 2.042 . S
Mg404 O418 2.041 . S
Mg404 O425 2.038 1_565 S
C405 O411 1.247 . S
C405 O412 1.289 . S
C406 O424 1.245 . S
C406 O425 1.274 . S
O407 C395 1.241 . S
O407 Mg400 2.042 . S
O408 C395 1.280 . S
O408 Mg398 1.984 . S
O409 C396 1.277 . S
O409 Mg400 2.041 . S
O410 C396 1.245 . S
O410 Mg398 1.988 . S
O411 Mg398 2.061 . S
O411 C405 1.247 . S
O412 Mg401 2.106 . S
O412 Mg404 2.238 1_545 S
O412 C405 1.289 . S
C413 O414 1.245 . S
C413 O415 1.274 . S
O414 Mg401 2.079 1_565 S
O414 C413 1.245 . S
O415 Mg400 2.038 1_565 S
O415 C413 1.274 . S
O416 Mg404 2.042 . S
O416 C419 1.241 . S
O417 Mg403 1.984 . S
O417 C419 1.280 . S
O418 Mg404 2.041 . S
O418 C422 1.277 . S
C419 O416 1.241 . S
C419 O417 1.280 . S
O420 Mg403 1.988 . S
O420 C422 1.245 . S
O421 C397 1.247 . S
O421 Mg403 2.061 . S
C422 O418 1.277 . S
C422 O420 1.245 . S
O423 C397 1.289 . S
O423 Mg400 2.238 1_565 S
O423 Mg401 2.106 1_565 S
O424 Mg401 2.079 . S
O424 C406 1.245 . S
O425 Mg404 2.038 1_545 S
O425 C406 1.274 . S
C426 C427 1.363 . S
C426 C432 1.379 . S
C426 N434 1.356 . S
C427 C426 1.363 . S
C427 C433 1.363 . S
C428 C429 1.363 . S
C428 C433 1.379 . S
C428 N435 1.356 . S
C429 C428 1.363 . S
C429 C432 1.363 . S
N430 C432 1.356 1_565 S
N430 H442 0.984 1_455 S
N430 H443 0.985 . S
N431 C433 1.356 . S
N431 H436 0.984 . S
N431 H437 0.985 . S
C432 C426 1.379 . S
C432 C429 1.363 . S
C432 N430 1.356 1_545 S
C433 C427 1.363 . S
C433 C428 1.379 . S
C433 N431 1.356 . S
N434 C426 1.356 . S
N434 H440 0.984 1_545 S
N434 H441 0.984 . S
N435 C428 1.356 . S
N435 H438 0.984 . S
N435 H439 0.985 . S
H436 N431 0.984 . S
H437 N431 0.985 . S
H438 N435 0.984 . S
H439 N435 0.985 . S
H440 N434 0.984 1_565 S
H441 N434 0.984 . S
H442 N430 0.984 1_655 S
H443 N430 0.985 . S
C444 C445 1.363 . S
C444 C450 1.379 . S
C444 N452 1.356 . S
C445 C444 1.363 . S
C445 C451 1.363 . S
C446 C447 1.363 . S
C446 C451 1.379 . S
C446 N453 1.356 . S
C447 C446 1.363 . S
C447 C450 1.363 . S
N448 C450 1.356 . S
N448 H460 0.984 . S
N448 H461 0.985 . S
N449 C451 1.356 . S
N449 H454 0.984 . S
N449 H455 0.985 . S
C450 C444 1.379 . S
C450 C447 1.363 . S
C450 N448 1.356 . S
C451 C445 1.363 . S
C451 C446 1.379 . S
C451 N449 1.356 . S
N452 C444 1.356 . S
N452 H458 0.984 . S
N452 H459 0.984 . S
N453 C446 1.356 . S
N453 H456 0.984 . S
N453 H457 0.985 . S
H454 N449 0.984 . S
H455 N449 0.985 . S
H456 N453 0.984 . S
H457 N453 0.985 . S
H458 N452 0.984 . S
H459 N452 0.984 . S
H460 N448 0.984 . S
H461 N448 0.985 . S
C462 C463 1.363 . S
C462 C468 1.379 . S
C462 N470 1.356 . S
C463 C462 1.363 . S
C463 C469 1.363 . S
C464 C465 1.363 . S
C464 C469 1.379 . S
C464 N471 1.356 . S
C465 C464 1.363 . S
C465 C468 1.363 . S
N466 C468 1.356 . S
N466 H478 0.984 . S
N466 H479 0.985 . S
N467 C469 1.356 . S
N467 H472 0.984 . S
N467 H473 0.985 . S
C468 C462 1.379 . S
C468 C465 1.363 . S
C468 N466 1.356 . S
C469 C463 1.363 . S
C469 C464 1.379 . S
C469 N467 1.356 . S
N470 C462 1.356 . S
N470 H476 0.984 . S
N470 H477 0.984 . S
N471 C464 1.356 . S
N471 H474 0.984 . S
N471 H475 0.976 1_565 S
H472 N467 0.984 . S
H473 N467 0.985 . S
H474 N471 0.984 . S
H475 N471 0.976 1_545 S
H476 N470 0.984 . S
H477 N470 0.984 . S
H478 N466 0.984 . S
H479 N466 0.985 . S
C480 C481 1.363 . S
C480 C486 1.379 . S
C480 N488 1.356 . S
C481 C480 1.363 . S
C481 C487 1.363 . S
C482 C483 1.363 . S
C482 C487 1.379 . S
C482 N489 1.356 . S
C483 C482 1.363 . S
C483 C486 1.363 . S
N484 C486 1.356 . S
N484 H496 0.984 . S
N484 H497 0.985 . S
N485 C487 1.356 . S
N485 H490 0.984 . S
N485 H491 0.985 . S
C486 C480 1.379 . S
C486 C483 1.363 . S
C486 N484 1.356 . S
C487 C481 1.363 . S
C487 C482 1.379 . S
C487 N485 1.356 . S
N488 C480 1.356 . S
N488 H494 0.984 . S
N488 H495 0.984 . S
N489 C482 1.356 . S
N489 H492 0.984 . S
N489 H493 0.985 1_565 S
H490 N485 0.984 . S
H491 N485 0.985 . S
H492 N489 0.984 . S
H493 N489 0.985 1_545 S
H494 N488 0.984 . S
H495 N488 0.984 . S
H496 N484 0.984 . S
H497 N484 0.985 . S
C498 C499 1.363 . S
C498 C504 1.379 . S
C498 N506 1.356 . S
C499 C498 1.363 . S
C499 C505 1.363 . S
C500 C501 1.363 . S
C500 C505 1.379 . S
C500 N507 1.356 . S
C501 C500 1.363 . S
C501 C504 1.363 . S
N502 C504 1.356 . S
N502 H514 0.984 . S
N502 H515 0.985 . S
N503 C505 1.356 . S
N503 H508 0.984 . S
N503 H509 0.985 . S
C504 C498 1.379 . S
C504 C501 1.363 . S
C504 N502 1.356 . S
C505 C499 1.363 . S
C505 C500 1.379 . S
C505 N503 1.356 . S
N506 C498 1.356 . S
N506 H512 0.984 . S
N506 H513 0.984 . S
N507 C500 1.356 . S
N507 H510 0.984 . S
N507 H511 0.985 . S
H508 N503 0.984 . S
H509 N503 0.985 . S
H510 N507 0.984 . S
H511 N507 0.985 . S
H512 N506 0.984 . S
H513 N506 0.984 . S
H514 N502 0.984 . S
H515 N502 0.985 . S
C516 C517 1.363 . S
C516 C522 1.379 . S
C516 N524 1.356 . S
C517 C516 1.363 . S
C517 C523 1.363 . S
C518 C519 1.363 . S
C518 C523 1.379 . S
C518 N525 1.356 . S
C519 C518 1.363 . S
C519 C522 1.363 . S
N520 C522 1.356 . S
N520 H532 0.984 . S
N520 H533 0.985 . S
N521 C523 1.356 . S
N521 H526 0.984 . S
N521 H527 0.985 . S
C522 C516 1.379 . S
C522 C519 1.363 . S
C522 N520 1.356 . S
C523 C517 1.363 . S
C523 C518 1.379 . S
C523 N521 1.356 . S
N524 C516 1.356 . S
N524 H530 0.984 . S
N524 H531 0.984 . S
N525 C518 1.356 . S
N525 H528 0.984 . S
N525 H529 0.985 . S
H526 N521 0.984 . S
H527 N521 0.985 . S
H528 N525 0.984 . S
H529 N525 0.985 . S
H530 N524 0.984 . S
H531 N524 0.984 . S
H532 N520 0.984 . S
H533 N520 0.985 . S
C534 C535 1.363 . S
C534 C540 1.379 . S
C534 N542 1.356 . S
C535 C534 1.363 . S
C535 C541 1.363 . S
C536 C537 1.363 . S
C536 C541 1.379 . S
C536 N543 1.356 . S
C537 C536 1.363 . S
C537 C540 1.363 . S
N538 C540 1.356 . S
N538 H550 0.984 . S
N538 H551 0.985 . S
N539 C541 1.356 . S
N539 H544 0.984 . S
N539 H545 0.985 . S
C540 C534 1.379 . S
C540 C537 1.363 . S
C540 N538 1.356 . S
C541 C535 1.363 . S
C541 C536 1.379 . S
C541 N539 1.356 . S
N542 C534 1.356 . S
N542 H548 0.984 . S
N542 H549 0.984 . S
N543 C536 1.356 . S
N543 H546 0.984 . S
N543 H547 0.985 . S
H544 N539 0.984 . S
H545 N539 0.985 . S
H546 N543 0.984 . S
H547 N543 0.985 . S
H548 N542 0.984 . S
H549 N542 0.984 . S
H550 N538 0.984 . S
H551 N538 0.985 . S
C552 C553 1.363 . S
C552 C558 1.379 . S
C552 N560 1.356 . S
C553 C552 1.363 . S
C553 C559 1.363 . S
C554 C555 1.363 . S
C554 C559 1.379 . S
C554 N561 1.356 . S
C555 C554 1.363 . S
C555 C558 1.363 . S
N556 C558 1.356 1_545 S
N556 H568 0.984 . S
N556 H569 0.985 1_545 S
N557 C559 1.356 . S
N557 H562 0.984 . S
N557 H563 0.985 . S
C558 C552 1.379 . S
C558 C555 1.363 . S
C558 N556 1.356 1_565 S
C559 C553 1.363 . S
C559 C554 1.379 . S
C559 N557 1.356 . S
N560 C552 1.356 . S
N560 H566 0.984 1_565 S
N560 H567 0.984 . S
N561 C554 1.356 . S
N561 H564 0.984 . S
N561 H565 0.985 . S
H562 N557 0.984 . S
H563 N557 0.985 . S
H564 N561 0.984 . S
H565 N561 0.985 . S
H566 N560 0.984 1_545 S
H567 N560 0.984 . S
H568 N556 0.984 . S
H569 N556 0.985 1_565 S
C570 C571 1.363 . S
C570 C576 1.379 . S
C570 N578 1.356 . S
C571 C570 1.363 . S
C571 C577 1.363 . S
C572 C573 1.363 . S
C572 C577 1.379 . S
C572 N579 1.356 . S
C573 C572 1.363 . S
C573 C576 1.363 . S
N574 C576 1.356 . S
N574 H586 0.984 . S
N574 H587 0.985 . S
N575 C577 1.356 . S
N575 H580 0.984 . S
N575 H581 0.985 . S
C576 C570 1.379 . S
C576 C573 1.363 . S
C576 N574 1.356 . S
C577 C571 1.363 . S
C577 C572 1.379 . S
C577 N575 1.356 . S
N578 C570 1.356 . S
N578 H584 0.984 . S
N578 H585 0.984 . S
N579 C572 1.356 . S
N579 H582 0.984 . S
N579 H583 0.985 . S
H580 N575 0.984 . S
H581 N575 0.985 . S
H582 N579 0.984 . S
H583 N579 0.985 . S
H584 N578 0.984 . S
H585 N578 0.984 . S
H586 N574 0.984 . S
H587 N574 0.985 . S
C588 C589 1.363 . S
C588 C594 1.379 . S
C588 N596 1.356 . S
C589 C588 1.363 . S
C589 C595 1.363 . S
C590 C591 1.363 . S
C590 C595 1.379 . S
C590 N597 1.356 . S
C591 C590 1.363 . S
C591 C594 1.363 . S
N592 C594 1.356 . S
N592 H604 0.984 . S
N592 H605 0.985 . S
N593 C595 1.356 . S
N593 H598 0.984 . S
N593 H599 0.985 . S
C594 C588 1.379 . S
C594 C591 1.363 . S
C594 N592 1.356 . S
C595 C589 1.363 . S
C595 C590 1.379 . S
C595 N593 1.356 . S
N596 C588 1.356 . S
N596 H602 0.984 . S
N596 H603 0.984 . S
N597 C590 1.356 . S
N597 H600 0.984 . S
N597 H601 0.985 . S
H598 N593 0.984 . S
H599 N593 0.985 . S
H600 N597 0.984 . S
H601 N597 0.985 . S
H602 N596 0.984 . S
H603 N596 0.984 . S
H604 N592 0.984 . S
H605 N592 0.985 . S
C606 C607 1.363 . S
C606 C612 1.379 . S
C606 N614 1.356 . S
C607 C606 1.363 . S
C607 C613 1.363 . S
C608 C609 1.363 . S
C608 C613 1.379 . S
C608 N615 1.356 . S
C609 C608 1.363 . S
C609 C612 1.363 . S
N610 C612 1.356 . S
N610 H622 0.984 . S
N610 H623 0.985 . S
N611 C613 1.356 . S
N611 H616 0.984 . S
N611 H617 0.985 . S
C612 C606 1.379 . S
C612 C609 1.363 . S
C612 N610 1.356 . S
C613 C607 1.363 . S
C613 C608 1.379 . S
C613 N611 1.356 . S
N614 C606 1.356 . S
N614 H620 0.984 . S
N614 H621 0.984 . S
N615 C608 1.356 . S
N615 H618 0.984 . S
N615 H619 0.985 . S
H616 N611 0.984 . S
H617 N611 0.985 . S
H618 N615 0.984 . S
H619 N615 0.985 . S
H620 N614 0.984 . S
H621 N614 0.984 . S
H622 N610 0.984 . S
H623 N610 0.985 . S
C624 C625 1.363 . S
C624 C630 1.379 . S
C624 N632 1.356 . S
C625 C624 1.363 . S
C625 C631 1.363 . S
C626 C627 1.363 . S
C626 C631 1.379 . S
C626 N633 1.356 . S
C627 C626 1.363 . S
C627 C630 1.363 . S
N628 C630 1.356 . S
N628 H640 0.984 . S
N628 H641 0.985 . S
N629 C631 1.356 . S
N629 H634 0.984 . S
N629 H635 0.985 . S
C630 C624 1.379 . S
C630 C627 1.363 . S
C630 N628 1.356 . S
C631 C625 1.363 . S
C631 C626 1.379 . S
C631 N629 1.356 . S
N632 C624 1.356 . S
N632 H638 0.984 . S
N632 H639 0.984 . S
N633 C626 1.356 . S
N633 H636 0.984 . S
N633 H637 0.985 . S
H634 N629 0.984 . S
H635 N629 0.985 . S
H636 N633 0.984 . S
H637 N633 0.985 . S
H638 N632 0.984 . S
H639 N632 0.984 . S
H640 N628 0.984 . S
H641 N628 0.985 . S
C642 C643 1.363 . S
C642 C648 1.379 . S
C642 N650 1.356 . S
C643 C642 1.363 . S
C643 C649 1.363 . S
C644 C645 1.363 . S
C644 C649 1.379 . S
C644 N651 1.356 . S
C645 C644 1.363 . S
C645 C648 1.363 . S
N646 C648 1.356 . S
N646 H658 0.984 . S
N646 H659 0.985 . S
N647 C649 1.356 . S
N647 H652 0.984 . S
N647 H653 0.985 . S
C648 C642 1.379 . S
C648 C645 1.363 . S
C648 N646 1.356 . S
C649 C643 1.363 . S
C649 C644 1.379 . S
C649 N647 1.356 . S
N650 C642 1.356 . S
N650 H656 0.984 . S
N650 H657 0.984 . S
N651 C644 1.356 . S
N651 H654 0.984 . S
N651 H655 0.985 . S
H652 N647 0.984 . S
H653 N647 0.985 . S
H654 N651 0.984 . S
H655 N651 0.985 . S
H656 N650 0.984 . S
H657 N650 0.984 . S
H658 N646 0.984 . S
H659 N646 0.985 . S
C660 C661 1.363 . S
C660 C666 1.379 . S
C660 N668 1.356 . S
C661 C660 1.363 . S
C661 C667 1.363 . S
C662 C663 1.363 . S
C662 C667 1.379 . S
C662 N669 1.356 . S
C663 C662 1.363 . S
C663 C666 1.363 . S
N664 C666 1.356 . S
N664 H676 0.984 . S
N664 H677 0.985 . S
N665 C667 1.356 . S
N665 H670 0.984 . S
N665 H671 0.985 . S
C666 C660 1.379 . S
C666 C663 1.363 . S
C666 N664 1.356 . S
C667 C661 1.363 . S
C667 C662 1.379 . S
C667 N665 1.356 . S
N668 C660 1.356 . S
N668 H674 0.984 . S
N668 H675 0.984 . S
N669 C662 1.356 . S
N669 H672 0.984 . S
N669 H673 0.985 . S
H670 N665 0.984 . S
H671 N665 0.985 . S
H672 N669 0.984 . S
H673 N669 0.985 . S
H674 N668 0.984 . S
H675 N668 0.984 . S
H676 N664 0.984 . S
H677 N664 0.985 . S
C678 C679 1.363 . S
C678 C684 1.379 . S
C678 N686 1.356 . S
C679 C678 1.363 . S
C679 C685 1.363 . S
C680 C681 1.363 . S
C680 C685 1.379 . S
C680 N687 1.356 . S
C681 C680 1.363 . S
C681 C684 1.363 . S
N682 C684 1.356 . S
N682 H694 0.984 . S
N682 H695 0.985 . S
N683 C685 1.356 . S
N683 H688 0.984 . S
N683 H689 0.985 . S
C684 C678 1.379 . S
C684 C681 1.363 . S
C684 N682 1.356 . S
C685 C679 1.363 . S
C685 C680 1.379 . S
C685 N683 1.356 . S
N686 C678 1.356 . S
N686 H692 0.984 . S
N686 H693 0.984 . S
N687 C680 1.356 . S
N687 H690 0.984 . S
N687 H691 0.985 1_545 S
H688 N683 0.984 . S
H689 N683 0.985 . S
H690 N687 0.984 . S
H691 N687 0.985 1_565 S
H692 N686 0.984 . S
H693 N686 0.984 . S
H694 N682 0.984 . S
H695 N682 0.985 . S
C696 C697 1.363 . S
C696 C702 1.379 . S
C696 N704 1.356 . S
C697 C696 1.363 . S
C697 C703 1.363 . S
C698 C699 1.363 . S
C698 C703 1.379 . S
C698 N705 1.356 . S
C699 C698 1.363 . S
C699 C702 1.363 . S
N700 C702 1.356 . S
N700 H712 0.984 . S
N700 H713 0.985 . S
N701 C703 1.356 . S
N701 H706 0.984 . S
N701 H707 0.985 . S
C702 C696 1.379 . S
C702 C699 1.363 . S
C702 N700 1.356 . S
C703 C697 1.363 . S
C703 C698 1.379 . S
C703 N701 1.356 . S
N704 C696 1.356 . S
N704 H710 0.984 . S
N704 H711 0.984 . S
N705 C698 1.356 . S
N705 H708 0.984 . S
N705 H709 0.985 . S
H706 N701 0.984 . S
H707 N701 0.985 . S
H708 N705 0.984 . S
H709 N705 0.985 . S
H710 N704 0.984 . S
H711 N704 0.984 . S
H712 N700 0.984 . S
H713 N700 0.985 . S
C714 C715 1.363 . S
C714 C720 1.379 . S
C714 N722 1.356 . S
C715 C714 1.363 . S
C715 C721 1.363 . S
C716 C717 1.363 . S
C716 C721 1.379 . S
C716 N723 1.356 . S
C717 C716 1.363 . S
C717 C720 1.363 . S
N718 C720 1.356 . S
N718 H730 0.984 . S
N718 H731 0.985 . S
N719 C721 1.356 . S
N719 H724 0.984 . S
N719 H725 0.985 . S
C720 C714 1.379 . S
C720 C717 1.363 . S
C720 N718 1.356 . S
C721 C715 1.363 . S
C721 C716 1.379 . S
C721 N719 1.356 . S
N722 C714 1.356 . S
N722 H728 0.984 . S
N722 H729 0.984 . S
N723 C716 1.356 . S
N723 H726 0.984 . S
N723 H727 0.985 . S
H724 N719 0.984 . S
H725 N719 0.985 . S
H726 N723 0.984 . S
H727 N723 0.985 . S
H728 N722 0.984 . S
H729 N722 0.984 . S
H730 N718 0.984 . S
H731 N718 0.985 . S
C732 C733 1.363 . S
C732 C738 1.379 . S
C732 N740 1.356 . S
C733 C732 1.363 . S
C733 C739 1.363 . S
C734 C735 1.363 . S
C734 C739 1.379 . S
C734 N741 1.356 . S
C735 C734 1.363 . S
C735 C738 1.363 . S
N736 C738 1.356 . S
N736 H748 0.984 1_556 S
N736 H749 0.985 . S
N737 C739 1.356 . S
N737 H742 0.984 . S
N737 H743 0.985 . S
C738 C732 1.379 . S
C738 C735 1.363 . S
C738 N736 1.356 . S
C739 C733 1.363 . S
C739 C734 1.379 . S
C739 N737 1.356 . S
N740 C732 1.356 . S
N740 H746 0.984 . S
N740 H747 0.984 . S
N741 C734 1.356 . S
N741 H744 0.984 . S
N741 H745 0.985 . S
H742 N737 0.984 . S
H743 N737 0.985 . S
H744 N741 0.984 . S
H745 N741 0.985 . S
H746 N740 0.984 . S
H747 N740 0.984 . S
H748 N736 0.984 1_554 S
H749 N736 0.985 . S
C750 C751 1.363 . S
C750 C756 1.379 . S
C750 N758 1.356 . S
C751 C750 1.363 . S
C751 C757 1.363 . S
C752 C753 1.363 . S
C752 C757 1.379 . S
C752 N759 1.356 . S
C753 C752 1.363 . S
C753 C756 1.363 . S
N754 C756 1.356 . S
N754 H766 0.966 1_545 S
N754 H767 0.985 . S
N755 C757 1.356 . S
N755 H760 0.984 . S
N755 H761 0.985 . S
C756 C750 1.379 . S
C756 C753 1.363 . S
C756 N754 1.356 . S
C757 C751 1.363 . S
C757 C752 1.379 . S
C757 N755 1.356 . S
N758 C750 1.356 . S
N758 H764 0.993 . S
N758 H765 0.984 . S
N759 C752 1.356 . S
N759 H762 0.984 . S
N759 H763 0.985 . S
H760 N755 0.984 . S
H761 N755 0.985 . S
H762 N759 0.984 . S
H763 N759 0.985 . S
H764 N758 0.993 . S
H765 N758 0.984 . S
H766 N754 0.966 1_565 S
H767 N754 0.985 . S
C768 C769 1.363 . S
C768 C774 1.379 . S
C768 N776 1.356 . S
C769 C768 1.363 . S
C769 C775 1.363 . S
C770 C771 1.363 . S
C770 C775 1.379 . S
C770 N777 1.356 . S
C771 C770 1.363 . S
C771 C774 1.363 . S
N772 C774 1.356 . S
N772 H784 0.984 . S
N772 H785 0.985 . S
N773 C775 1.356 . S
N773 H778 0.984 . S
N773 H779 0.985 . S
C774 C768 1.379 . S
C774 C771 1.363 . S
C774 N772 1.356 . S
C775 C769 1.363 . S
C775 C770 1.379 . S
C775 N773 1.356 . S
N776 C768 1.356 . S
N776 H782 0.984 . S
N776 H783 0.984 . S
N777 C770 1.356 . S
N777 H780 0.984 . S
N777 H781 0.985 . S
H778 N773 0.984 . S
H779 N773 0.985 . S
H780 N777 0.984 . S
H781 N777 0.985 . S
H782 N776 0.984 . S
H783 N776 0.984 . S
H784 N772 0.984 . S
H785 N772 0.985 . S
C786 C787 1.363 . S
C786 C792 1.379 . S
C786 N794 1.356 . S
C787 C786 1.363 . S
C787 C793 1.363 . S
C788 C789 1.363 . S
C788 C793 1.379 . S
C788 N795 1.356 . S
C789 C788 1.363 . S
C789 C792 1.363 . S
N790 C792 1.356 . S
N790 H802 0.984 . S
N790 H803 0.985 . S
N791 C793 1.356 . S
N791 H796 0.984 . S
N791 H797 0.985 . S
C792 C786 1.379 . S
C792 C789 1.363 . S
C792 N790 1.356 . S
C793 C787 1.363 . S
C793 C788 1.379 . S
C793 N791 1.356 . S
N794 C786 1.356 . S
N794 H800 0.984 . S
N794 H801 0.984 . S
N795 C788 1.356 . S
N795 H798 0.984 . S
N795 H799 0.985 . S
H796 N791 0.984 . S
H797 N791 0.985 . S
H798 N795 0.984 . S
H799 N795 0.985 . S
H800 N794 0.984 . S
H801 N794 0.984 . S
H802 N790 0.984 . S
H803 N790 0.985 . S
C804 C805 1.363 . S
C804 C810 1.379 . S
C804 N812 1.356 . S
C805 C804 1.363 . S
C805 C811 1.363 . S
C806 C807 1.363 . S
C806 C811 1.379 . S
C806 N813 1.356 . S
C807 C806 1.363 . S
C807 C810 1.363 . S
N808 C810 1.356 . S
N808 H820 0.984 . S
N808 H821 0.985 . S
N809 C811 1.356 . S
N809 H814 0.984 . S
N809 H815 0.985 . S
C810 C804 1.379 . S
C810 C807 1.363 . S
C810 N808 1.356 . S
C811 C805 1.363 . S
C811 C806 1.379 . S
C811 N809 1.356 . S
N812 C804 1.356 . S
N812 H818 0.984 . S
N812 H819 0.984 . S
N813 C806 1.356 . S
N813 H816 0.984 . S
N813 H817 0.985 . S
H814 N809 0.984 . S
H815 N809 0.985 . S
H816 N813 0.984 . S
H817 N813 0.985 . S
H818 N812 0.984 . S
H819 N812 0.984 . S
H820 N808 0.984 . S
H821 N808 0.985 . S
C822 C823 1.363 . S
C822 C828 1.379 . S
C822 N830 1.356 . S
C823 C822 1.363 . S
C823 C829 1.363 . S
C824 C825 1.363 . S
C824 C829 1.379 . S
C824 N831 1.356 . S
C825 C824 1.363 . S
C825 C828 1.363 . S
N826 C828 1.356 . S
N826 H838 0.984 1_565 S
N826 H839 0.985 . S
N827 C829 1.356 . S
N827 H832 0.984 . S
N827 H833 0.985 . S
C828 C822 1.379 . S
C828 C825 1.363 . S
C828 N826 1.356 . S
C829 C823 1.363 . S
C829 C824 1.379 . S
C829 N827 1.356 . S
N830 C822 1.356 . S
N830 H836 0.984 . S
N830 H837 0.984 . S
N831 C824 1.356 . S
N831 H834 0.984 . S
N831 H835 0.985 . S
H832 N827 0.984 . S
H833 N827 0.985 . S
H834 N831 0.984 . S
H835 N831 0.985 . S
H836 N830 0.984 . S
H837 N830 0.984 . S
H838 N826 0.984 1_545 S
H839 N826 0.985 . S
C840 C841 1.363 . S
C840 C846 1.379 . S
C840 N848 1.356 . S
C841 C840 1.363 . S
C841 C847 1.363 . S
C842 C843 1.363 . S
C842 C847 1.379 . S
C842 N849 1.356 . S
C843 C842 1.363 . S
C843 C846 1.363 . S
N844 C846 1.356 . S
N844 H856 0.984 . S
N844 H857 0.985 . S
N845 C847 1.356 . S
N845 H850 0.984 . S
N845 H851 0.985 . S
C846 C840 1.379 . S
C846 C843 1.363 . S
C846 N844 1.356 . S
C847 C841 1.363 . S
C847 C842 1.379 . S
C847 N845 1.356 . S
N848 C840 1.356 . S
N848 H854 0.984 . S
N848 H855 0.984 . S
N849 C842 1.356 . S
N849 H852 0.984 . S
N849 H853 0.985 . S
H850 N845 0.984 . S
H851 N845 0.985 . S
H852 N849 0.984 . S
H853 N849 0.985 . S
H854 N848 0.984 . S
H855 N848 0.984 . S
H856 N844 0.984 . S
H857 N844 0.985 . S
C858 C859 1.363 . S
C858 C864 1.379 . S
C858 N866 1.356 . S
C859 C858 1.363 . S
C859 C865 1.363 . S
C860 C861 1.363 . S
C860 C865 1.379 . S
C860 N867 1.356 . S
C861 C860 1.363 . S
C861 C864 1.363 . S
N862 C864 1.356 . S
N862 H874 0.984 . S
N862 H875 0.985 . S
N863 C865 1.356 . S
N863 H868 0.984 . S
N863 H869 0.985 . S
C864 C858 1.379 . S
C864 C861 1.363 . S
C864 N862 1.356 . S
C865 C859 1.363 . S
C865 C860 1.379 . S
C865 N863 1.356 . S
N866 C858 1.356 . S
N866 H872 0.984 . S
N866 H873 0.984 . S
N867 C860 1.356 . S
N867 H870 0.984 . S
N867 H871 0.985 . S
H868 N863 0.984 . S
H869 N863 0.985 . S
H870 N867 0.984 . S
H871 N867 0.985 . S
H872 N866 0.984 . S
H873 N866 0.984 . S
H874 N862 0.984 . S
H875 N862 0.985 . S
C876 C877 1.363 . S
C876 C882 1.379 . S
C876 N884 1.356 . S
C877 C876 1.363 . S
C877 C883 1.363 . S
C878 C879 1.363 . S
C878 C883 1.379 . S
C878 N885 1.356 . S
C879 C878 1.363 . S
C879 C882 1.363 . S
N880 C882 1.356 . S
N880 H892 0.984 . S
N880 H893 0.985 . S
N881 C883 1.356 . S
N881 H886 0.984 . S
N881 H887 0.985 . S
C882 C876 1.379 . S
C882 C879 1.363 . S
C882 N880 1.356 . S
C883 C877 1.363 . S
C883 C878 1.379 . S
C883 N881 1.356 . S
N884 C876 1.356 . S
N884 H890 0.984 . S
N884 H891 0.984 . S
N885 C878 1.356 . S
N885 H888 0.984 . S
N885 H889 0.985 . S
H886 N881 0.984 . S
H887 N881 0.985 . S
H888 N885 0.984 . S
H889 N885 0.985 . S
H890 N884 0.984 . S
H891 N884 0.984 . S
H892 N880 0.984 . S
H893 N880 0.985 . S
C894 C895 1.363 . S
C894 C900 1.379 . S
C894 N902 1.356 . S
C895 C894 1.363 . S
C895 C901 1.363 . S
C896 C897 1.363 . S
C896 C901 1.379 . S
C896 N903 1.356 . S
C897 C896 1.363 . S
C897 C900 1.363 . S
N898 C900 1.356 . S
N898 H910 0.984 . S
N898 H911 0.985 . S
N899 C901 1.356 . S
N899 H904 0.984 . S
N899 H905 0.985 . S
C900 C894 1.379 . S
C900 C897 1.363 . S
C900 N898 1.356 . S
C901 C895 1.363 . S
C901 C896 1.379 . S
C901 N899 1.356 . S
N902 C894 1.356 . S
N902 H908 0.984 . S
N902 H909 0.984 . S
N903 C896 1.356 . S
N903 H906 0.984 . S
N903 H907 0.985 . S
H904 N899 0.984 . S
H905 N899 0.985 . S
H906 N903 0.984 . S
H907 N903 0.985 . S
H908 N902 0.984 . S
H909 N902 0.984 . S
H910 N898 0.984 . S
H911 N898 0.985 . S
C912 C913 1.363 . S
C912 C918 1.379 . S
C912 N920 1.356 . S
C913 C912 1.363 . S
C913 C919 1.363 . S
C914 C915 1.363 . S
C914 C919 1.379 . S
C914 N921 1.356 . S
C915 C914 1.363 . S
C915 C918 1.363 . S
N916 C918 1.356 . S
N916 H928 0.984 . S
N916 H929 0.985 . S
N917 C919 1.356 . S
N917 H922 0.984 . S
N917 H923 0.985 . S
C918 C912 1.379 . S
C918 C915 1.363 . S
C918 N916 1.356 . S
C919 C913 1.363 . S
C919 C914 1.379 . S
C919 N917 1.356 . S
N920 C912 1.356 . S
N920 H926 0.984 . S
N920 H927 0.984 . S
N921 C914 1.356 . S
N921 H924 0.984 . S
N921 H925 0.985 . S
H922 N917 0.984 . S
H923 N917 0.985 . S
H924 N921 0.984 . S
H925 N921 0.985 . S
H926 N920 0.984 . S
H927 N920 0.984 . S
H928 N916 0.984 . S
H929 N916 0.985 . S
C930 C931 1.363 . S
C930 C936 1.379 . S
C930 N938 1.356 . S
C931 C930 1.363 . S
C931 C937 1.363 . S
C932 C933 1.363 . S
C932 C937 1.379 . S
C932 N939 1.356 . S
C933 C932 1.363 . S
C933 C936 1.363 . S
N934 C936 1.356 . S
N934 H946 0.984 . S
N934 H947 0.985 . S
N935 C937 1.356 . S
N935 H940 0.984 . S
N935 H941 0.985 . S
C936 C930 1.379 . S
C936 C933 1.363 . S
C936 N934 1.356 . S
C937 C931 1.363 . S
C937 C932 1.379 . S
C937 N935 1.356 . S
N938 C930 1.356 . S
N938 H944 0.984 . S
N938 H945 0.984 . S
N939 C932 1.356 . S
N939 H942 0.984 . S
N939 H943 0.985 . S
H940 N935 0.984 . S
H941 N935 0.985 . S
H942 N939 0.984 . S
H943 N939 0.985 . S
H944 N938 0.984 . S
H945 N938 0.984 . S
H946 N934 0.984 . S
H947 N934 0.985 . S
C948 C949 1.363 . S
C948 C954 1.379 . S
C948 N956 1.356 . S
C949 C948 1.363 . S
C949 C955 1.363 . S
C950 C951 1.363 . S
C950 C955 1.379 . S
C950 N957 1.356 . S
C951 C950 1.363 . S
C951 C954 1.363 . S
N952 C954 1.356 . S
N952 H964 0.984 . S
N952 H965 0.985 . S
N953 C955 1.356 . S
N953 H958 0.984 . S
N953 H959 0.985 . S
C954 C948 1.379 . S
C954 C951 1.363 . S
C954 N952 1.356 . S
C955 C949 1.363 . S
C955 C950 1.379 . S
C955 N953 1.356 . S
N956 C948 1.356 . S
N956 H962 0.984 . S
N956 H963 0.984 . S
N957 C950 1.356 . S
N957 H960 0.984 . S
N957 H961 0.985 . S
H958 N953 0.984 . S
H959 N953 0.985 . S
H960 N957 0.984 . S
H961 N957 0.985 . S
H962 N956 0.984 . S
H963 N956 0.984 . S
H964 N952 0.984 . S
H965 N952 0.985 . S
C966 C967 1.363 . S
C966 C972 1.379 . S
C966 N974 1.356 . S
C967 C966 1.363 . S
C967 C973 1.363 . S
C968 C969 1.363 . S
C968 C973 1.379 . S
C968 N975 1.356 . S
C969 C968 1.363 . S
C969 C972 1.363 . S
N970 C972 1.356 . S
N970 H982 0.984 . S
N970 H983 0.985 . S
N971 C973 1.356 . S
N971 H976 0.984 . S
N971 H977 0.985 . S
C972 C966 1.379 . S
C972 C969 1.363 . S
C972 N970 1.356 . S
C973 C967 1.363 . S
C973 C968 1.379 . S
C973 N971 1.356 . S
N974 C966 1.356 . S
N974 H980 0.984 . S
N974 H981 0.984 . S
N975 C968 1.356 . S
N975 H978 0.984 . S
N975 H979 0.985 . S
H976 N971 0.984 . S
H977 N971 0.985 . S
H978 N975 0.984 . S
H979 N975 0.985 . S
H980 N974 0.984 . S
H981 N974 0.984 . S
H982 N970 0.984 . S
H983 N970 0.985 . S
C984 C985 1.363 . S
C984 C990 1.379 . S
C984 N992 1.356 . S
C985 C984 1.363 . S
C985 C991 1.363 . S
C986 C987 1.363 . S
C986 C991 1.379 . S
C986 N993 1.356 . S
C987 C986 1.363 . S
C987 C990 1.363 . S
N988 C990 1.356 . S
N988 H1000 0.984 . S
N988 H1001 0.985 . S
N989 C991 1.356 . S
N989 H994 0.984 . S
N989 H995 0.985 . S
C990 C984 1.379 . S
C990 C987 1.363 . S
C990 N988 1.356 . S
C991 C985 1.363 . S
C991 C986 1.379 . S
C991 N989 1.356 . S
N992 C984 1.356 . S
N992 H998 0.984 . S
N992 H999 0.984 . S
N993 C986 1.356 . S
N993 H996 0.984 . S
N993 H997 0.985 . S
H994 N989 0.984 . S
H995 N989 0.985 . S
H996 N993 0.984 . S
H997 N993 0.985 . S
H998 N992 0.984 . S
H999 N992 0.984 . S
H1000 N988 0.984 . S
H1001 N988 0.985 . S
C1002 C1003 1.363 . S
C1002 C1008 1.379 . S
C1002 N1010 1.356 . S
C1003 C1002 1.363 . S
C1003 C1009 1.363 . S
C1004 C1005 1.363 . S
C1004 C1009 1.379 . S
C1004 N1011 1.356 . S
C1005 C1004 1.363 . S
C1005 C1008 1.363 . S
N1006 C1008 1.356 . S
N1006 H1018 0.984 . S
N1006 H1019 0.985 . S
N1007 C1009 1.356 . S
N1007 H1012 0.984 . S
N1007 H1013 0.985 . S
C1008 C1002 1.379 . S
C1008 C1005 1.363 . S
C1008 N1006 1.356 . S
C1009 C1003 1.363 . S
C1009 C1004 1.379 . S
C1009 N1007 1.356 . S
N1010 C1002 1.356 . S
N1010 H1016 0.984 . S
N1010 H1017 0.984 . S
N1011 C1004 1.356 . S
N1011 H1014 0.984 . S
N1011 H1015 0.985 . S
H1012 N1007 0.984 . S
H1013 N1007 0.985 . S
H1014 N1011 0.984 . S
H1015 N1011 0.985 . S
H1016 N1010 0.984 . S
H1017 N1010 0.984 . S
H1018 N1006 0.984 . S
H1019 N1006 0.985 . S
C1020 C1021 1.363 . S
C1020 C1026 1.379 . S
C1020 N1028 1.356 . S
C1021 C1020 1.363 . S
C1021 C1027 1.363 . S
C1022 C1023 1.363 . S
C1022 C1027 1.379 . S
C1022 N1029 1.356 . S
C1023 C1022 1.363 . S
C1023 C1026 1.363 . S
N1024 C1026 1.356 . S
N1024 H1036 0.984 . S
N1024 H1037 0.985 1_565 S
N1025 C1027 1.356 . S
N1025 H1030 0.984 . S
N1025 H1031 0.985 . S
C1026 C1020 1.379 . S
C1026 C1023 1.363 . S
C1026 N1024 1.356 . S
C1027 C1021 1.363 . S
C1027 C1022 1.379 . S
C1027 N1025 1.356 . S
N1028 C1020 1.356 . S
N1028 H1034 0.984 . S
N1028 H1035 0.984 . S
N1029 C1022 1.356 . S
N1029 H1032 0.984 . S
N1029 H1033 0.985 . S
H1030 N1025 0.984 . S
H1031 N1025 0.985 . S
H1032 N1029 0.984 . S
H1033 N1029 0.985 . S
H1034 N1028 0.984 . S
H1035 N1028 0.984 . S
H1036 N1024 0.984 . S
H1037 N1024 0.985 1_545 S
C1038 C1039 1.363 . S
C1038 C1044 1.379 . S
C1038 N1046 1.356 . S
C1039 C1038 1.363 . S
C1039 C1045 1.363 . S
C1040 C1041 1.363 . S
C1040 C1045 1.379 . S
C1040 N1047 1.356 . S
C1041 C1040 1.363 . S
C1041 C1044 1.363 . S
N1042 C1044 1.356 . S
N1042 H1054 0.984 . S
N1042 H1055 0.985 . S
N1043 C1045 1.356 . S
N1043 H1048 0.984 . S
N1043 H1049 0.985 . S
C1044 C1038 1.379 . S
C1044 C1041 1.363 . S
C1044 N1042 1.356 . S
C1045 C1039 1.363 . S
C1045 C1040 1.379 . S
C1045 N1043 1.356 . S
N1046 C1038 1.356 . S
N1046 H1052 0.984 . S
N1046 H1053 0.984 . S
N1047 C1040 1.356 . S
N1047 H1050 0.984 . S
N1047 H1051 0.985 . S
H1048 N1043 0.984 . S
H1049 N1043 0.985 . S
H1050 N1047 0.984 . S
H1051 N1047 0.985 . S
H1052 N1046 0.984 . S
H1053 N1046 0.984 . S
H1054 N1042 0.984 . S
H1055 N1042 0.985 . S
C1056 C1057 1.363 . S
C1056 C1062 1.379 . S
C1056 N1064 1.356 . S
C1057 C1056 1.363 . S
C1057 C1063 1.363 . S
C1058 C1059 1.363 . S
C1058 C1063 1.379 . S
C1058 N1065 1.356 . S
C1059 C1058 1.363 . S
C1059 C1062 1.363 . S
N1060 C1062 1.356 . S
N1060 H1072 0.984 . S
N1060 H1073 0.985 . S
N1061 C1063 1.356 . S
N1061 H1066 0.984 . S
N1061 H1067 0.985 . S
C1062 C1056 1.379 . S
C1062 C1059 1.363 . S
C1062 N1060 1.356 . S
C1063 C1057 1.363 . S
C1063 C1058 1.379 . S
C1063 N1061 1.356 . S
N1064 C1056 1.356 . S
N1064 H1070 0.984 . S
N1064 H1071 0.984 . S
N1065 C1058 1.356 . S
N1065 H1068 0.984 . S
N1065 H1069 0.985 . S
H1066 N1061 0.984 . S
H1067 N1061 0.985 . S
H1068 N1065 0.984 . S
H1069 N1065 0.985 . S
H1070 N1064 0.984 . S
H1071 N1064 0.984 . S
H1072 N1060 0.984 . S
H1073 N1060 0.985 . S
C1074 C1075 1.363 . S
C1074 C1080 1.379 . S
C1074 N1082 1.356 . S
C1075 C1074 1.363 . S
C1075 C1081 1.363 . S
C1076 C1077 1.363 . S
C1076 C1081 1.379 . S
C1076 N1083 1.356 . S
C1077 C1076 1.363 . S
C1077 C1080 1.363 . S
N1078 C1080 1.356 . S
N1078 H1090 0.984 . S
N1078 H1091 0.985 . S
N1079 C1081 1.356 . S
N1079 H1084 0.984 . S
N1079 H1085 0.985 . S
C1080 C1074 1.379 . S
C1080 C1077 1.363 . S
C1080 N1078 1.356 . S
C1081 C1075 1.363 . S
C1081 C1076 1.379 . S
C1081 N1079 1.356 . S
N1082 C1074 1.356 . S
N1082 H1088 0.984 . S
N1082 H1089 0.984 . S
N1083 C1076 1.356 . S
N1083 H1086 0.984 . S
N1083 H1087 0.985 . S
H1084 N1079 0.984 . S
H1085 N1079 0.985 . S
H1086 N1083 0.984 . S
H1087 N1083 0.985 . S
H1088 N1082 0.984 . S
H1089 N1082 0.984 . S
H1090 N1078 0.984 . S
H1091 N1078 0.985 . S
C1092 C1093 1.363 . S
C1092 C1098 1.379 . S
C1092 N1100 1.356 . S
C1093 C1092 1.363 . S
C1093 C1099 1.363 . S
C1094 C1095 1.363 . S
C1094 C1099 1.379 . S
C1094 N1101 1.356 . S
C1095 C1094 1.363 . S
C1095 C1098 1.363 . S
N1096 C1098 1.356 . S
N1096 H1108 0.984 . S
N1096 H1109 0.985 . S
N1097 C1099 1.356 . S
N1097 H1102 0.984 . S
N1097 H1103 0.985 . S
C1098 C1092 1.379 . S
C1098 C1095 1.363 . S
C1098 N1096 1.356 . S
C1099 C1093 1.363 . S
C1099 C1094 1.379 . S
C1099 N1097 1.356 . S
N1100 C1092 1.356 . S
N1100 H1106 0.984 . S
N1100 H1107 0.984 . S
N1101 C1094 1.356 . S
N1101 H1104 0.984 . S
N1101 H1105 0.985 . S
H1102 N1097 0.984 . S
H1103 N1097 0.985 . S
H1104 N1101 0.984 . S
H1105 N1101 0.985 . S
H1106 N1100 0.984 . S
H1107 N1100 0.984 . S
H1108 N1096 0.984 . S
H1109 N1096 0.985 . S
C1110 C1111 1.363 . S
C1110 C1116 1.379 . S
C1110 N1118 1.356 . S
C1111 C1110 1.363 . S
C1111 C1117 1.363 . S
C1112 C1113 1.363 . S
C1112 C1117 1.379 . S
C1112 N1119 1.356 . S
C1113 C1112 1.363 . S
C1113 C1116 1.363 . S
N1114 C1116 1.356 . S
N1114 H1126 0.984 . S
N1114 H1127 0.985 . S
N1115 C1117 1.356 . S
N1115 H1120 0.984 . S
N1115 H1121 0.985 . S
C1116 C1110 1.379 . S
C1116 C1113 1.363 . S
C1116 N1114 1.356 . S
C1117 C1111 1.363 . S
C1117 C1112 1.379 . S
C1117 N1115 1.356 . S
N1118 C1110 1.356 . S
N1118 H1124 0.984 . S
N1118 H1125 0.984 . S
N1119 C1112 1.356 . S
N1119 H1122 0.984 . S
N1119 H1123 0.985 . S
H1120 N1115 0.984 . S
H1121 N1115 0.985 . S
H1122 N1119 0.984 . S
H1123 N1119 0.985 . S
H1124 N1118 0.984 . S
H1125 N1118 0.984 . S
H1126 N1114 0.984 . S
H1127 N1114 0.985 . S
C1128 C1129 1.363 . S
C1128 C1134 1.379 . S
C1128 N1136 1.356 . S
C1129 C1128 1.363 . S
C1129 C1135 1.363 . S
C1130 C1131 1.363 . S
C1130 C1135 1.379 . S
C1130 N1137 1.356 . S
C1131 C1130 1.363 . S
C1131 C1134 1.363 . S
N1132 C1134 1.356 . S
N1132 H1144 0.984 . S
N1132 H1145 0.985 . S
N1133 C1135 1.356 . S
N1133 H1138 0.984 . S
N1133 H1139 0.985 . S
C1134 C1128 1.379 . S
C1134 C1131 1.363 . S
C1134 N1132 1.356 . S
C1135 C1129 1.363 . S
C1135 C1130 1.379 . S
C1135 N1133 1.356 . S
N1136 C1128 1.356 . S
N1136 H1142 0.984 . S
N1136 H1143 0.984 . S
N1137 C1130 1.356 . S
N1137 H1140 0.984 . S
N1137 H1141 0.985 . S
H1138 N1133 0.984 . S
H1139 N1133 0.985 . S
H1140 N1137 0.984 . S
H1141 N1137 0.985 . S
H1142 N1136 0.984 . S
H1143 N1136 0.984 . S
H1144 N1132 0.984 . S
H1145 N1132 0.985 . S
C1146 C1147 1.363 . S
C1146 C1152 1.379 . S
C1146 N1154 1.356 . S
C1147 C1146 1.363 . S
C1147 C1153 1.363 . S
C1148 C1149 1.363 . S
C1148 C1153 1.379 . S
C1148 N1155 1.356 . S
C1149 C1148 1.363 . S
C1149 C1152 1.363 . S
N1150 C1152 1.356 . S
N1150 H1162 0.984 . S
N1150 H1163 0.985 . S
N1151 C1153 1.356 . S
N1151 H1156 0.984 . S
N1151 H1157 0.985 . S
C1152 C1146 1.379 . S
C1152 C1149 1.363 . S
C1152 N1150 1.356 . S
C1153 C1147 1.363 . S
C1153 C1148 1.379 . S
C1153 N1151 1.356 . S
N1154 C1146 1.356 . S
N1154 H1160 0.984 . S
N1154 H1161 0.984 . S
N1155 C1148 1.356 . S
N1155 H1158 0.984 . S
N1155 H1159 0.985 . S
H1156 N1151 0.984 . S
H1157 N1151 0.985 . S
H1158 N1155 0.984 . S
H1159 N1155 0.985 . S
H1160 N1154 0.984 . S
H1161 N1154 0.984 . S
H1162 N1150 0.984 . S
H1163 N1150 0.985 . S
C1164 C1165 1.363 . S
C1164 C1170 1.379 . S
C1164 N1172 1.356 . S
C1165 C1164 1.363 . S
C1165 C1171 1.363 . S
C1166 C1167 1.363 . S
C1166 C1171 1.379 . S
C1166 N1173 1.356 . S
C1167 C1166 1.363 . S
C1167 C1170 1.363 . S
N1168 C1170 1.356 . S
N1168 H1180 0.984 . S
N1168 H1181 0.985 . S
N1169 C1171 1.356 . S
N1169 H1174 0.984 . S
N1169 H1175 0.985 . S
C1170 C1164 1.379 . S
C1170 C1167 1.363 . S
C1170 N1168 1.356 . S
C1171 C1165 1.363 . S
C1171 C1166 1.379 . S
C1171 N1169 1.356 . S
N1172 C1164 1.356 . S
N1172 H1178 0.984 . S
N1172 H1179 0.984 . S
N1173 C1166 1.356 . S
N1173 H1176 0.984 . S
N1173 H1177 0.985 . S
H1174 N1169 0.984 . S
H1175 N1169 0.985 . S
H1176 N1173 0.984 . S
H1177 N1173 0.985 . S
H1178 N1172 0.984 . S
H1179 N1172 0.984 . S
H1180 N1168 0.984 . S
H1181 N1168 0.985 . S
C1182 C1183 1.363 . S
C1182 C1188 1.379 . S
C1182 N1190 1.356 . S
C1183 C1182 1.363 . S
C1183 C1189 1.363 . S
C1184 C1185 1.363 . S
C1184 C1189 1.379 . S
C1184 N1191 1.356 . S
C1185 C1184 1.363 . S
C1185 C1188 1.363 . S
N1186 C1188 1.356 . S
N1186 H1198 0.984 . S
N1186 H1199 0.985 . S
N1187 C1189 1.356 . S
N1187 H1192 0.984 . S
N1187 H1193 0.985 . S
C1188 C1182 1.379 . S
C1188 C1185 1.363 . S
C1188 N1186 1.356 . S
C1189 C1183 1.363 . S
C1189 C1184 1.379 . S
C1189 N1187 1.356 . S
N1190 C1182 1.356 . S
N1190 H1196 0.984 . S
N1190 H1197 0.984 . S
N1191 C1184 1.356 . S
N1191 H1194 0.984 . S
N1191 H1195 0.985 . S
H1192 N1187 0.984 . S
H1193 N1187 0.985 . S
H1194 N1191 0.984 . S
H1195 N1191 0.985 . S
H1196 N1190 0.984 . S
H1197 N1190 0.984 . S
H1198 N1186 0.984 . S
H1199 N1186 0.985 . S
C1200 C1201 1.363 . S
C1200 C1206 1.379 . S
C1200 N1208 1.356 . S
C1201 C1200 1.363 . S
C1201 C1207 1.363 . S
C1202 C1203 1.363 . S
C1202 C1207 1.379 . S
C1202 N1209 1.356 . S
C1203 C1202 1.363 . S
C1203 C1206 1.363 . S
N1204 C1206 1.356 . S
N1204 H1216 0.984 . S
N1204 H1217 0.985 . S
N1205 C1207 1.356 . S
N1205 H1210 0.984 . S
N1205 H1211 0.985 . S
C1206 C1200 1.379 . S
C1206 C1203 1.363 . S
C1206 N1204 1.356 . S
C1207 C1201 1.363 . S
C1207 C1202 1.379 . S
C1207 N1205 1.356 . S
N1208 C1200 1.356 . S
N1208 H1214 0.984 . S
N1208 H1215 0.984 . S
N1209 C1202 1.356 . S
N1209 H1212 0.984 . S
N1209 H1213 0.985 . S
H1210 N1205 0.984 . S
H1211 N1205 0.985 . S
H1212 N1209 0.984 . S
H1213 N1209 0.985 . S
H1214 N1208 0.984 . S
H1215 N1208 0.984 . S
H1216 N1204 0.984 . S
H1217 N1204 0.985 . S
C1218 C1219 1.363 . S
C1218 C1224 1.379 . S
C1218 N1226 1.356 . S
C1219 C1218 1.363 . S
C1219 C1225 1.363 . S
C1220 C1221 1.363 . S
C1220 C1225 1.379 . S
C1220 N1227 1.356 . S
C1221 C1220 1.363 . S
C1221 C1224 1.363 . S
N1222 C1224 1.356 . S
N1222 H1234 0.984 . S
N1222 H1235 0.985 . S
N1223 C1225 1.356 . S
N1223 H1228 0.984 . S
N1223 H1229 0.985 . S
C1224 C1218 1.379 . S
C1224 C1221 1.363 . S
C1224 N1222 1.356 . S
C1225 C1219 1.363 . S
C1225 C1220 1.379 . S
C1225 N1223 1.356 . S
N1226 C1218 1.356 . S
N1226 H1232 0.984 . S
N1226 H1233 0.984 . S
N1227 C1220 1.356 . S
N1227 H1230 0.984 . S
N1227 H1231 0.985 . S
H1228 N1223 0.984 . S
H1229 N1223 0.985 . S
H1230 N1227 0.984 . S
H1231 N1227 0.985 . S
H1232 N1226 0.984 . S
H1233 N1226 0.984 . S
H1234 N1222 0.984 . S
H1235 N1222 0.985 . S
C1236 C1237 1.363 . S
C1236 C1242 1.379 . S
C1236 N1244 1.356 . S
C1237 C1236 1.363 . S
C1237 C1243 1.363 . S
C1238 C1239 1.363 . S
C1238 C1243 1.379 . S
C1238 N1245 1.356 . S
C1239 C1238 1.363 . S
C1239 C1242 1.363 . S
N1240 C1242 1.356 . S
N1240 H1252 0.984 . S
N1240 H1253 0.985 . S
N1241 C1243 1.356 . S
N1241 H1246 0.984 . S
N1241 H1247 0.985 . S
C1242 C1236 1.379 . S
C1242 C1239 1.363 . S
C1242 N1240 1.356 . S
C1243 C1237 1.363 . S
C1243 C1238 1.379 . S
C1243 N1241 1.356 . S
N1244 C1236 1.356 . S
N1244 H1250 0.984 . S
N1244 H1251 0.984 . S
N1245 C1238 1.356 . S
N1245 H1248 0.984 . S
N1245 H1249 0.985 . S
H1246 N1241 0.984 . S
H1247 N1241 0.985 . S
H1248 N1245 0.984 . S
H1249 N1245 0.985 . S
H1250 N1244 0.984 . S
H1251 N1244 0.984 . S
H1252 N1240 0.984 . S
H1253 N1240 0.985 . S
C1254 C1255 1.363 . S
C1254 C1260 1.379 . S
C1254 N1262 1.356 . S
C1255 C1254 1.363 . S
C1255 C1261 1.363 . S
C1256 C1257 1.363 . S
C1256 C1261 1.379 . S
C1256 N1263 1.356 . S
C1257 C1256 1.363 . S
C1257 C1260 1.363 . S
N1258 C1260 1.356 . S
N1258 H1270 0.984 . S
N1258 H1271 0.985 . S
N1259 C1261 1.356 . S
N1259 H1264 0.984 . S
N1259 H1265 0.985 . S
C1260 C1254 1.379 . S
C1260 C1257 1.363 . S
C1260 N1258 1.356 . S
C1261 C1255 1.363 . S
C1261 C1256 1.379 . S
C1261 N1259 1.356 . S
N1262 C1254 1.356 . S
N1262 H1268 0.984 . S
N1262 H1269 0.984 . S
N1263 C1256 1.356 . S
N1263 H1266 0.984 . S
N1263 H1267 0.985 . S
H1264 N1259 0.984 . S
H1265 N1259 0.985 . S
H1266 N1263 0.984 . S
H1267 N1263 0.985 . S
H1268 N1262 0.984 . S
H1269 N1262 0.984 . S
H1270 N1258 0.984 . S
H1271 N1258 0.985 . S
C1272 C1273 1.363 . S
C1272 C1278 1.379 . S
C1272 N1280 1.356 . S
C1273 C1272 1.363 . S
C1273 C1279 1.363 . S
C1274 C1275 1.363 . S
C1274 C1279 1.379 . S
C1274 N1281 1.356 . S
C1275 C1274 1.363 . S
C1275 C1278 1.363 . S
N1276 C1278 1.356 . S
N1276 H1288 0.984 . S
N1276 H1289 0.985 . S
N1277 C1279 1.356 . S
N1277 H1282 0.984 . S
N1277 H1283 0.985 . S
C1278 C1272 1.379 . S
C1278 C1275 1.363 . S
C1278 N1276 1.356 . S
C1279 C1273 1.363 . S
C1279 C1274 1.379 . S
C1279 N1277 1.356 . S
N1280 C1272 1.356 . S
N1280 H1286 0.984 . S
N1280 H1287 0.984 . S
N1281 C1274 1.356 . S
N1281 H1284 0.984 . S
N1281 H1285 0.985 . S
H1282 N1277 0.984 . S
H1283 N1277 0.985 . S
H1284 N1281 0.984 . S
H1285 N1281 0.985 . S
H1286 N1280 0.984 . S
H1287 N1280 0.984 . S
H1288 N1276 0.984 . S
H1289 N1276 0.985 . S
C429 C251 1.160 . S
C427 N6 1.035 . S
C447 C241 2.045 . S
C445 C57 2.030 . S
C465 C242 1.183 . S
C463 C61 1.203 . S
C481 N96 0.798 . S
C483 C264 0.850 . S
C499 C136 2.031 . S
C501 C267 2.045 . S
C519 C250 1.183 . S
C517 C160 1.199 . S
C535 N194 0.798 . S
C537 C240 0.851 . S
C553 N224 1.037 . S
C555 C258 1.162 . S
C573 C271 1.943 . S
C571 C10 1.973 . S
C589 N36 0.970 . S
C591 C320 0.995 . S
C609 C298 0.842 . S
C607 N74 0.814 . S
C627 C312 1.135 . S
C625 C100 1.205 . S
C643 C121 1.195 . S
C645 C273 1.154 . S
C663 C326 1.890 . S
C661 C177 1.930 . S
C679 C196 2.337 . S
C681 C282 2.249 . S
C697 C226 2.037 . S
C699 C303 2.010 . S
C715 C27 2.037 . S
C717 C329 2.008 . S
C733 N134 0.970 . S
C735 C313 0.994 . S
C753 C272 0.842 . S
C751 N156 0.810 . S
C771 C304 1.135 . S
C769 C181 1.206 . S
C787 C211 1.974 . S
C789 C295 1.944 . S
C805 C76 1.931 . S
C807 C302 1.891 . S
C825 C289 2.250 . S
C823 C117 2.338 . S
C841 C40 1.195 . S
C843 C281 1.153 . S
C859 N216 1.037 . S
C861 C344 1.160 . S
C877 C147 2.031 . S
C879 C334 2.045 . S
C897 C335 1.183 . S
C895 C151 1.201 . S
C915 C357 0.850 . S
C913 N186 0.798 . S
C931 C46 2.031 . S
C933 C360 2.045 . S
C951 C343 1.183 . S
C949 C70 1.201 . S
C967 N104 0.798 . S
C969 C333 0.850 . S
C985 N14 1.037 . S
C987 C351 1.160 . S
C1003 C220 1.974 . S
C1005 C364 1.944 . S
C1023 C413 0.994 . S
C1021 N126 0.971 . S
C1039 N164 0.812 . S
C1041 C391 0.841 . S
C1057 C190 1.206 . S
C1059 C405 1.134 . S
C1077 C366 1.154 . S
C1075 C31 1.196 . S
C1093 C87 1.931 . S
C1095 C419 1.891 . S
C1113 C375 2.250 . S
C1111 C106 2.336 . S
C1131 C396 2.009 . S
C1129 C16 2.035 . S
C1149 C422 2.009 . S
C1147 C237 2.038 . S
C1165 N44 0.970 . S
C1167 C406 0.993 . S
C1183 N66 0.812 . S
C1185 C365 0.843 . S
C1203 C397 1.135 . S
C1201 C91 1.207 . S
C1219 C1 1.974 . S
C1221 C388 1.942 . S
C1237 C166 1.931 . S
C1239 C395 1.889 . S
C1257 C382 2.250 . S
C1255 C207 2.338 . S
C1275 C374 1.154 . S
C1273 C130 1.194 . S
