# Generated by pormake.
# Topology gar, (4,6)-cn, num edge types: 1
# Building blocks:
#     Node 0, Type 0, BuildingBlock: QUQFOY_clean_sbu_3, # of connection points: 4
#     Node 1, Type 0, BuildingBlock: QUQFOY_clean_sbu_3, # of connection points: 4
#     Node 2, Type 0, BuildingBlock: QUQFOY_clean_sbu_3, # of connection points: 4
#     Node 3, Type 0, BuildingBlock: QUQFOY_clean_sbu_3, # of connection points: 4
#     Node 4, Type 0, BuildingBlock: QUQFOY_clean_sbu_3, # of connection points: 4
#     Node 5, Type 0, BuildingBlock: QUQFOY_clean_sbu_3, # of connection points: 4
#     Node 6, Type 0, BuildingBlock: QUQFOY_clean_sbu_3, # of connection points: 4
#     Node 7, Type 0, BuildingBlock: QUQFOY_clean_sbu_3, # of connection points: 4
#     Node 8, Type 0, BuildingBlock: QUQFOY_clean_sbu_3, # of connection points: 4
#     Node 9, Type 0, BuildingBlock: QUQFOY_clean_sbu_3, # of connection points: 4
#     Node 10, Type 0, BuildingBlock: QUQFOY_clean_sbu_3, # of connection points: 4
#     Node 11, Type 0, BuildingBlock: QUQFOY_clean_sbu_3, # of connection points: 4
#     Node 12, Type 0, BuildingBlock: QUQFOY_clean_sbu_3, # of connection points: 4
#     Node 13, Type 0, BuildingBlock: QUQFOY_clean_sbu_3, # of connection points: 4
#     Node 14, Type 0, BuildingBlock: QUQFOY_clean_sbu_3, # of connection points: 4
#     Node 15, Type 0, BuildingBlock: QUQFOY_clean_sbu_3, # of connection points: 4
#     Node 16, Type 0, BuildingBlock: QUQFOY_clean_sbu_3, # of connection points: 4
#     Node 17, Type 0, BuildingBlock: QUQFOY_clean_sbu_3, # of connection points: 4
#     Node 18, Type 0, BuildingBlock: QUQFOY_clean_sbu_3, # of connection points: 4
#     Node 19, Type 0, BuildingBlock: QUQFOY_clean_sbu_3, # of connection points: 4
#     Node 20, Type 0, BuildingBlock: QUQFOY_clean_sbu_3, # of connection points: 4
#     Node 21, Type 0, BuildingBlock: QUQFOY_clean_sbu_3, # of connection points: 4
#     Node 22, Type 0, BuildingBlock: QUQFOY_clean_sbu_3, # of connection points: 4
#     Node 23, Type 0, BuildingBlock: QUQFOY_clean_sbu_3, # of connection points: 4
#     Node 24, Type 1, BuildingBlock: BETDEL_clean_sbu_0, # of connection points: 6
#     Node 25, Type 1, BuildingBlock: BETDEL_clean_sbu_0, # of connection points: 6
#     Node 26, Type 1, BuildingBlock: BETDEL_clean_sbu_0, # of connection points: 6
#     Node 27, Type 1, BuildingBlock: BETDEL_clean_sbu_0, # of connection points: 6
#     Node 28, Type 1, BuildingBlock: BETDEL_clean_sbu_0, # of connection points: 6
#     Node 29, Type 1, BuildingBlock: BETDEL_clean_sbu_0, # of connection points: 6
#     Node 30, Type 1, BuildingBlock: BETDEL_clean_sbu_0, # of connection points: 6
#     Node 31, Type 1, BuildingBlock: BETDEL_clean_sbu_0, # of connection points: 6
#     Node 32, Type 1, BuildingBlock: BETDEL_clean_sbu_0, # of connection points: 6
#     Node 33, Type 1, BuildingBlock: BETDEL_clean_sbu_0, # of connection points: 6
#     Node 34, Type 1, BuildingBlock: BETDEL_clean_sbu_0, # of connection points: 6
#     Node 35, Type 1, BuildingBlock: BETDEL_clean_sbu_0, # of connection points: 6
#     Node 36, Type 1, BuildingBlock: BETDEL_clean_sbu_0, # of connection points: 6
#     Node 37, Type 1, BuildingBlock: BETDEL_clean_sbu_0, # of connection points: 6
#     Node 38, Type 1, BuildingBlock: BETDEL_clean_sbu_0, # of connection points: 6
#     Node 39, Type 1, BuildingBlock: BETDEL_clean_sbu_0, # of connection points: 6
#     Edge 40, Type (0, 1), BuildingBlock: UVAHIK_clean_linker_0, # of connection points: 2
#     Edge 41, Type (0, 1), BuildingBlock: UVAHIK_clean_linker_0, # of connection points: 2
#     Edge 42, Type (0, 1), BuildingBlock: UVAHIK_clean_linker_0, # of connection points: 2
#     Edge 43, Type (0, 1), BuildingBlock: UVAHIK_clean_linker_0, # of connection points: 2
#     Edge 44, Type (0, 1), BuildingBlock: UVAHIK_clean_linker_0, # of connection points: 2
#     Edge 45, Type (0, 1), BuildingBlock: UVAHIK_clean_linker_0, # of connection points: 2
#     Edge 46, Type (0, 1), BuildingBlock: UVAHIK_clean_linker_0, # of connection points: 2
#     Edge 47, Type (0, 1), BuildingBlock: UVAHIK_clean_linker_0, # of connection points: 2
#     Edge 48, Type (0, 1), BuildingBlock: UVAHIK_clean_linker_0, # of connection points: 2
#     Edge 49, Type (0, 1), BuildingBlock: UVAHIK_clean_linker_0, # of connection points: 2
#     Edge 50, Type (0, 1), BuildingBlock: UVAHIK_clean_linker_0, # of connection points: 2
#     Edge 51, Type (0, 1), BuildingBlock: UVAHIK_clean_linker_0, # of connection points: 2
#     Edge 52, Type (0, 1), BuildingBlock: UVAHIK_clean_linker_0, # of connection points: 2
#     Edge 53, Type (0, 1), BuildingBlock: UVAHIK_clean_linker_0, # of connection points: 2
#     Edge 54, Type (0, 1), BuildingBlock: UVAHIK_clean_linker_0, # of connection points: 2
#     Edge 55, Type (0, 1), BuildingBlock: UVAHIK_clean_linker_0, # of connection points: 2
#     Edge 56, Type (0, 1), BuildingBlock: UVAHIK_clean_linker_0, # of connection points: 2
#     Edge 57, Type (0, 1), BuildingBlock: UVAHIK_clean_linker_0, # of connection points: 2
#     Edge 58, Type (0, 1), BuildingBlock: UVAHIK_clean_linker_0, # of connection points: 2
#     Edge 59, Type (0, 1), BuildingBlock: UVAHIK_clean_linker_0, # of connection points: 2
#     Edge 60, Type (0, 1), BuildingBlock: UVAHIK_clean_linker_0, # of connection points: 2
#     Edge 61, Type (0, 1), BuildingBlock: UVAHIK_clean_linker_0, # of connection points: 2
#     Edge 62, Type (0, 1), BuildingBlock: UVAHIK_clean_linker_0, # of connection points: 2
#     Edge 63, Type (0, 1), BuildingBlock: UVAHIK_clean_linker_0, # of connection points: 2
#     Edge 64, Type (0, 1), BuildingBlock: UVAHIK_clean_linker_0, # of connection points: 2
#     Edge 65, Type (0, 1), BuildingBlock: UVAHIK_clean_linker_0, # of connection points: 2
#     Edge 66, Type (0, 1), BuildingBlock: UVAHIK_clean_linker_0, # of connection points: 2
#     Edge 67, Type (0, 1), BuildingBlock: UVAHIK_clean_linker_0, # of connection points: 2
#     Edge 68, Type (0, 1), BuildingBlock: UVAHIK_clean_linker_0, # of connection points: 2
#     Edge 69, Type (0, 1), BuildingBlock: UVAHIK_clean_linker_0, # of connection points: 2
#     Edge 70, Type (0, 1), BuildingBlock: UVAHIK_clean_linker_0, # of connection points: 2
#     Edge 71, Type (0, 1), BuildingBlock: UVAHIK_clean_linker_0, # of connection points: 2
#     Edge 72, Type (0, 1), BuildingBlock: UVAHIK_clean_linker_0, # of connection points: 2
#     Edge 73, Type (0, 1), BuildingBlock: UVAHIK_clean_linker_0, # of connection points: 2
#     Edge 74, Type (0, 1), BuildingBlock: UVAHIK_clean_linker_0, # of connection points: 2
#     Edge 75, Type (0, 1), BuildingBlock: UVAHIK_clean_linker_0, # of connection points: 2
#     Edge 76, Type (0, 1), BuildingBlock: UVAHIK_clean_linker_0, # of connection points: 2
#     Edge 77, Type (0, 1), BuildingBlock: UVAHIK_clean_linker_0, # of connection points: 2
#     Edge 78, Type (0, 1), BuildingBlock: UVAHIK_clean_linker_0, # of connection points: 2
#     Edge 79, Type (0, 1), BuildingBlock: UVAHIK_clean_linker_0, # of connection points: 2
#     Edge 80, Type (0, 1), BuildingBlock: UVAHIK_clean_linker_0, # of connection points: 2
#     Edge 81, Type (0, 1), BuildingBlock: UVAHIK_clean_linker_0, # of connection points: 2
#     Edge 82, Type (0, 1), BuildingBlock: UVAHIK_clean_linker_0, # of connection points: 2
#     Edge 83, Type (0, 1), BuildingBlock: UVAHIK_clean_linker_0, # of connection points: 2
#     Edge 84, Type (0, 1), BuildingBlock: UVAHIK_clean_linker_0, # of connection points: 2
#     Edge 85, Type (0, 1), BuildingBlock: UVAHIK_clean_linker_0, # of connection points: 2
#     Edge 86, Type (0, 1), BuildingBlock: UVAHIK_clean_linker_0, # of connection points: 2
#     Edge 87, Type (0, 1), BuildingBlock: UVAHIK_clean_linker_0, # of connection points: 2
#     Edge 88, Type (0, 1), BuildingBlock: UVAHIK_clean_linker_0, # of connection points: 2
#     Edge 89, Type (0, 1), BuildingBlock: UVAHIK_clean_linker_0, # of connection points: 2
#     Edge 90, Type (0, 1), BuildingBlock: UVAHIK_clean_linker_0, # of connection points: 2
#     Edge 91, Type (0, 1), BuildingBlock: UVAHIK_clean_linker_0, # of connection points: 2
#     Edge 92, Type (0, 1), BuildingBlock: UVAHIK_clean_linker_0, # of connection points: 2
#     Edge 93, Type (0, 1), BuildingBlock: UVAHIK_clean_linker_0, # of connection points: 2
#     Edge 94, Type (0, 1), BuildingBlock: UVAHIK_clean_linker_0, # of connection points: 2
#     Edge 95, Type (0, 1), BuildingBlock: UVAHIK_clean_linker_0, # of connection points: 2
#     Edge 96, Type (0, 1), BuildingBlock: UVAHIK_clean_linker_0, # of connection points: 2
#     Edge 97, Type (0, 1), BuildingBlock: UVAHIK_clean_linker_0, # of connection points: 2
#     Edge 98, Type (0, 1), BuildingBlock: UVAHIK_clean_linker_0, # of connection points: 2
#     Edge 99, Type (0, 1), BuildingBlock: UVAHIK_clean_linker_0, # of connection points: 2
#     Edge 100, Type (0, 1), BuildingBlock: UVAHIK_clean_linker_0, # of connection points: 2
#     Edge 101, Type (0, 1), BuildingBlock: UVAHIK_clean_linker_0, # of connection points: 2
#     Edge 102, Type (0, 1), BuildingBlock: UVAHIK_clean_linker_0, # of connection points: 2
#     Edge 103, Type (0, 1), BuildingBlock: UVAHIK_clean_linker_0, # of connection points: 2
#     Edge 104, Type (0, 1), BuildingBlock: UVAHIK_clean_linker_0, # of connection points: 2
#     Edge 105, Type (0, 1), BuildingBlock: UVAHIK_clean_linker_0, # of connection points: 2
#     Edge 106, Type (0, 1), BuildingBlock: UVAHIK_clean_linker_0, # of connection points: 2
#     Edge 107, Type (0, 1), BuildingBlock: UVAHIK_clean_linker_0, # of connection points: 2
#     Edge 108, Type (0, 1), BuildingBlock: UVAHIK_clean_linker_0, # of connection points: 2
#     Edge 109, Type (0, 1), BuildingBlock: UVAHIK_clean_linker_0, # of connection points: 2
#     Edge 110, Type (0, 1), BuildingBlock: UVAHIK_clean_linker_0, # of connection points: 2
#     Edge 111, Type (0, 1), BuildingBlock: UVAHIK_clean_linker_0, # of connection points: 2
#     Edge 112, Type (0, 1), BuildingBlock: UVAHIK_clean_linker_0, # of connection points: 2
#     Edge 113, Type (0, 1), BuildingBlock: UVAHIK_clean_linker_0, # of connection points: 2
#     Edge 114, Type (0, 1), BuildingBlock: UVAHIK_clean_linker_0, # of connection points: 2
#     Edge 115, Type (0, 1), BuildingBlock: UVAHIK_clean_linker_0, # of connection points: 2
#     Edge 116, Type (0, 1), BuildingBlock: UVAHIK_clean_linker_0, # of connection points: 2
#     Edge 117, Type (0, 1), BuildingBlock: UVAHIK_clean_linker_0, # of connection points: 2
#     Edge 118, Type (0, 1), BuildingBlock: UVAHIK_clean_linker_0, # of connection points: 2
#     Edge 119, Type (0, 1), BuildingBlock: UVAHIK_clean_linker_0, # of connection points: 2
#     Edge 120, Type (0, 1), BuildingBlock: UVAHIK_clean_linker_0, # of connection points: 2
#     Edge 121, Type (0, 1), BuildingBlock: UVAHIK_clean_linker_0, # of connection points: 2
#     Edge 122, Type (0, 1), BuildingBlock: UVAHIK_clean_linker_0, # of connection points: 2
#     Edge 123, Type (0, 1), BuildingBlock: UVAHIK_clean_linker_0, # of connection points: 2
#     Edge 124, Type (0, 1), BuildingBlock: UVAHIK_clean_linker_0, # of connection points: 2
#     Edge 125, Type (0, 1), BuildingBlock: UVAHIK_clean_linker_0, # of connection points: 2
#     Edge 126, Type (0, 1), BuildingBlock: UVAHIK_clean_linker_0, # of connection points: 2
#     Edge 127, Type (0, 1), BuildingBlock: UVAHIK_clean_linker_0, # of connection points: 2
#     Edge 128, Type (0, 1), BuildingBlock: UVAHIK_clean_linker_0, # of connection points: 2
#     Edge 129, Type (0, 1), BuildingBlock: UVAHIK_clean_linker_0, # of connection points: 2
#     Edge 130, Type (0, 1), BuildingBlock: UVAHIK_clean_linker_0, # of connection points: 2
#     Edge 131, Type (0, 1), BuildingBlock: UVAHIK_clean_linker_0, # of connection points: 2
#     Edge 132, Type (0, 1), BuildingBlock: UVAHIK_clean_linker_0, # of connection points: 2
#     Edge 133, Type (0, 1), BuildingBlock: UVAHIK_clean_linker_0, # of connection points: 2
#     Edge 134, Type (0, 1), BuildingBlock: UVAHIK_clean_linker_0, # of connection points: 2
#     Edge 135, Type (0, 1), BuildingBlock: UVAHIK_clean_linker_0, # of connection points: 2
# Relax obj value: 0.136
# Max RMSD: 0.263
# Mean RMSD: 0.138
data_MOF--net-gar--node1-QUQFOY_clean_sbu_3--node2-BETDEL_clean_sbu_0--edge1-UVAHIK_clean_linker_0
_symmetry_space_group_name_H-M    P1
_symmetry_Int_Tables_number       1
_symmetry_cell_setting            triclinic
loop_
_symmetry_equiv_pos_as_xyz
'x, y, z'
_cell_length_a     71.941765
_cell_length_b     70.216248
_cell_length_c     71.146115
_cell_angle_alpha  96.089489
_cell_angle_beta   92.481135
_cell_angle_gamma 100.6944
loop_
_atom_site_label
_atom_site_type_symbol
_atom_site_fract_x
_atom_site_fract_y
_atom_site_fract_z
_atom_type_partial_charge
C0 C -0.007 0.28423 0.36765 0.0
O1 O 0.00663 0.2919 0.35847 0.0
Cd2 Cd 0.03923 0.29095 0.36429 0.0
O3 O -0.00407 0.2744 0.38122 0.0
Cd4 Cd 0.02369 0.26442 0.39714 0.0
C5 C 0.04316 0.31218 0.4105 0.0
O6 O 0.03928 0.25789 0.36849 0.0
O7 O 0.05651 0.25878 0.39406 0.0
O8 O 0.00397 0.23261 0.39984 0.0
C9 C 0.05485 0.25581 0.37612 0.0
O10 O 0.04787 0.31297 0.3935 0.0
C11 C 0.00879 0.23228 0.41717 0.0
O12 O 0.03341 0.29664 0.41545 0.0
O13 O 0.02007 0.24723 0.42539 0.0
C14 C 0.9645 0.75542 0.65486 0.0
O15 O 0.97357 0.74341 0.66142 0.0
Cd16 Cd 0.00232 0.73493 0.65144 0.0
O17 O 0.9703 0.76441 0.64087 0.0
Cd18 Cd -0.00266 0.76584 0.61945 0.0
C19 C 0.98818 0.7166 0.60503 0.0
O20 O 0.01949 0.76547 0.64524 0.0
O21 O 0.03192 0.76531 0.61836 0.0
O22 O -0.0012 0.8007 0.6181 0.0
C23 C 0.0341 0.76512 0.63611 0.0
O24 O -0.00673 0.714 0.62179 0.0
C25 C -0.00353 0.79954 0.60019 0.0
O26 O 0.98776 0.73365 0.60057 0.0
O27 O -0.00573 0.7826 0.59113 0.0
C28 C 0.4925 0.78259 0.86465 0.0
O29 O 0.50629 0.79083 0.85598 0.0
Cd30 Cd 0.53886 0.78968 0.86201 0.0
O31 O 0.49524 0.77208 0.87771 0.0
Cd32 Cd 0.52283 0.76155 0.8933 0.0
C33 C 0.54225 0.809 0.90861 0.0
O34 O 0.53877 0.75616 0.86463 0.0
O35 O 0.55552 0.75563 0.89019 0.0
O36 O 0.50318 0.72962 0.89591 0.0
C37 C 0.55413 0.75351 0.87224 0.0
O38 O 0.54729 0.81085 0.89186 0.0
C39 C 0.50782 0.72953 0.91334 0.0
O40 O 0.53249 0.79302 0.91257 0.0
O41 O 0.51905 0.74454 0.92148 0.0
C42 C 0.4634 0.25743 0.15618 0.0
O43 O 0.4725 0.24544 0.16272 0.0
Cd44 Cd 0.50103 0.23672 0.15227 0.0
O45 O 0.46899 0.2662 0.142 0.0
Cd46 Cd 0.49562 0.26706 0.12021 0.0
C47 C 0.48598 0.21783 0.10622 0.0
O48 O 0.51835 0.26707 0.14569 0.0
O49 O 0.53002 0.26607 0.11843 0.0
O50 O 0.49717 0.30185 0.11846 0.0
C51 C 0.53269 0.26642 0.1362 0.0
O52 O 0.4916 0.21544 0.12288 0.0
C53 C 0.49493 0.30046 0.10054 0.0
O54 O 0.48527 0.2348 0.10173 0.0
O55 O 0.49264 0.28342 0.09169 0.0
C56 C -0.00083 0.78528 0.17725 0.0
O57 O 0.0121 0.77887 0.18593 0.0
Cd58 Cd 0.04266 0.77775 0.17418 0.0
O59 O 0.0018 0.79142 0.16116 0.0
Cd60 Cd 0.02675 0.79572 0.13815 0.0
C61 C 0.03014 0.7477 0.13257 0.0
O62 O 0.05237 0.80829 0.16185 0.0
O63 O 0.06101 0.80276 0.13356 0.0
O64 O 0.01609 0.825 0.13014 0.0
C65 C 0.06576 0.80881 0.15084 0.0
O66 O 0.03812 0.75021 0.14922 0.0
C67 C 0.01333 0.81945 0.1125 0.0
O68 O 0.02382 0.76148 0.12575 0.0
O69 O 0.01691 0.80284 0.10676 0.0
C70 C 0.45782 0.75099 0.34048 0.0
O71 O 0.46862 0.76285 0.33156 0.0
Cd72 Cd 0.50105 0.77625 0.34035 0.0
O73 O 0.46394 0.74532 0.35562 0.0
Cd74 Cd 0.49475 0.75096 0.37469 0.0
C75 C 0.49634 0.79966 0.38398 0.0
O76 O 0.51265 0.74776 0.34697 0.0
O77 O 0.52969 0.75631 0.37315 0.0
O78 O 0.48546 0.71755 0.3821 0.0
C79 C 0.52888 0.75098 0.3555 0.0
O80 O 0.50131 0.80121 0.36717 0.0
C81 C 0.49057 0.72145 0.3996 0.0
O82 O 0.49213 0.78299 0.38982 0.0
O83 O 0.49724 0.73919 0.40559 0.0
C84 C 0.49789 0.28447 0.67267 0.0
O85 O 0.51068 0.27847 0.68198 0.0
Cd86 Cd 0.54211 0.27884 0.67214 0.0
O87 O 0.50121 0.29109 0.65689 0.0
Cd88 Cd 0.52786 0.29689 0.63577 0.0
C89 C 0.5321 0.24931 0.62999 0.0
O90 O 0.55161 0.31021 0.66133 0.0
O91 O 0.56245 0.30502 0.63394 0.0
O92 O 0.51429 0.32427 0.62675 0.0
C93 C 0.5658 0.31143 0.65132 0.0
O94 O 0.53951 0.25173 0.64686 0.0
C95 C 0.51582 0.32037 0.6091 0.0
O96 O 0.52568 0.26298 0.6231 0.0
O97 O 0.52298 0.30559 0.60393 0.0
C98 C 0.9531 0.24585 0.83927 0.0
O99 O 0.96404 0.25697 0.82982 0.0
Cd100 Cd -0.00387 0.27115 0.83934 0.0
O101 O 0.95904 0.24127 0.85502 0.0
Cd102 Cd 0.98982 0.24794 0.87424 0.0
C103 C -0.0095 0.29628 0.88207 0.0
O104 O 0.00944 0.24424 0.84776 0.0
O105 O 0.02469 0.2572 0.87411 0.0
O106 O 0.98337 0.21429 0.88113 0.0
C107 C 0.02519 0.24983 0.85713 0.0
O108 O -0.00432 0.29698 0.86522 0.0
C109 C 0.98708 0.21818 0.89887 0.0
O110 O 0.9862 0.27998 0.88865 0.0
O111 O -0.00853 0.23609 0.90535 0.0
C112 C 0.42203 0.03475 0.29867 0.0
O113 O 0.43094 0.02631 0.28632 0.0
Cd114 Cd 0.42208 0.01938 0.25335 0.0
O115 O 0.40654 0.03997 0.2941 0.0
Cd116 Cd 0.38623 0.03844 0.26472 0.0
C117 C 0.37942 0.98904 0.25522 0.0
O118 O 0.41276 0.04899 0.24668 0.0
O119 O 0.38623 0.04107 0.23018 0.0
O120 O 0.37736 0.06888 0.27699 0.0
C121 C 0.40385 0.04797 0.23084 0.0
O122 O 0.39633 0.99092 0.25008 0.0
C123 C 0.35966 0.06273 0.27369 0.0
O124 O 0.37294 0.00383 0.26193 0.0
O125 O 0.35432 0.04504 0.26678 0.0
C126 C 0.27696 0.10903 0.49757 0.0
O127 O 0.26241 0.09959 0.50425 0.0
Cd128 Cd 0.23208 0.10844 0.50448 0.0
O129 O 0.27621 0.12471 0.49022 0.0
Cd130 Cd 0.25236 0.14525 0.48376 0.0
C131 C 0.24454 0.15381 0.53037 0.0
O132 O 0.22735 0.11768 0.47367 0.0
O133 O 0.2182 0.14514 0.47729 0.0
O134 O 0.26773 0.15116 0.45445 0.0
C135 C 0.21393 0.12689 0.47246 0.0
O136 O 0.23569 0.13619 0.52894 0.0
C137 C 0.26837 0.16945 0.45639 0.0
O138 O 0.25291 0.16066 0.51642 0.0
O139 O 0.26189 0.1766 0.47131 0.0
C140 C 0.09435 0.00325 0.79908 0.0
O141 O 0.08606 0.01242 0.78789 0.0
Cd142 Cd 0.09554 0.02163 0.75797 0.0
O143 O 0.10963 -0.00249 0.79478 0.0
Cd144 Cd 0.13042 -0.0014 0.7673 0.0
C145 C 0.1406 0.0482 0.77129 0.0
O146 O 0.10516 -0.00613 0.74286 0.0
O147 O 0.13308 0.00152 0.73307 0.0
O148 O 0.13368 0.96478 0.76796 0.0
C149 C 0.11534 -0.0027 0.72911 0.0
O150 O 0.12363 0.04711 0.76471 0.0
C151 C 0.15164 0.96822 0.77006 0.0
O152 O 0.14665 0.03291 0.77491 0.0
O153 O 0.15989 0.98601 0.77155 0.0
C154 C 0.26426 0.91983 0.001 0.0
O155 O 0.25371 0.93033 -0.00595 0.0
Cd156 Cd 0.22 0.92429 -0.00653 0.0
O157 O 0.25716 0.90469 0.00862 0.0
Cd158 Cd 0.22569 0.88654 0.0156 0.0
C159 C 0.21171 0.87872 0.96849 0.0
O160 O 0.21532 0.91609 0.02491 0.0
O161 O 0.19376 0.89061 0.02567 0.0
O162 O 0.24067 0.87709 0.04361 0.0
C163 C 0.1986 0.90904 0.02852 0.0
O164 O 0.21106 0.89673 0.96855 0.0
C165 C 0.23411 0.85895 0.03949 0.0
O166 O 0.21682 0.87207 0.9834 0.0
O167 O 0.22344 0.85382 0.02443 0.0
C168 C 0.271 0.41921 0.01926 0.0
O169 O 0.25929 0.42788 0.01147 0.0
Cd170 Cd 0.22718 0.41301 0.00393 0.0
O171 O 0.26553 0.40249 0.02482 0.0
Cd172 Cd 0.23507 0.37924 0.02717 0.0
C173 C 0.23412 0.36954 0.97987 0.0
O174 O 0.2165 0.40403 0.03355 0.0
O175 O 0.19999 0.37569 0.02367 0.0
O176 O 0.24691 0.3773 0.05928 0.0
C177 C 0.20037 0.39312 0.03077 0.0
O178 O 0.22886 0.38588 0.9796 0.0
C179 C 0.24101 0.35909 0.05908 0.0
O180 O 0.2382 0.36354 -0.00447 0.0
O181 O 0.23278 0.34994 0.0437 0.0
C182 C 0.78547 0.11346 0.01233 0.0
O183 O 0.77147 0.10578 0.02103 0.0
Cd184 Cd 0.74413 0.11958 0.02645 0.0
O185 O 0.78606 0.13008 0.00643 0.0
Cd186 Cd 0.76565 0.15511 0.00726 0.0
C187 C 0.76436 0.16143 0.0547 0.0
O188 O 0.73727 0.13152 -0.00283 0.0
O189 O 0.73248 0.16016 0.0069 0.0
O190 O 0.77728 0.16337 0.97702 0.0
C191 C 0.72577 0.14307 -0.00095 0.0
O192 O 0.75277 0.14518 0.05299 0.0
C193 C 0.78021 0.18171 0.98154 0.0
O194 O 0.77241 0.16776 0.04042 0.0
O195 O 0.77697 0.18767 -0.00168 0.0
C196 C 0.07047 0.48003 0.26249 0.0
O197 O 0.06165 0.48687 0.24971 0.0
Cd198 Cd 0.07386 0.493 0.21971 0.0
O199 O 0.08704 0.47655 0.26015 0.0
Cd200 Cd 0.11091 0.47904 0.23616 0.0
C201 C 0.1129 0.52778 0.23458 0.0
O202 O 0.08716 0.4644 0.21137 0.0
O203 O 0.11515 0.47255 0.20198 0.0
O204 O 0.12332 0.45491 0.25286 0.0
C205 C 0.09791 0.46487 0.19779 0.0
O206 O 0.0967 0.52411 0.22561 0.0
C207 C 0.14053 0.46203 0.25057 0.0
O208 O 0.1201 0.51412 0.24044 0.0
O209 O 0.14377 0.47673 0.24145 0.0
C210 C 0.77225 0.922 0.52164 0.0
O211 O 0.76065 0.93102 0.51416 0.0
Cd212 Cd 0.7284 0.91665 0.50651 0.0
O213 O 0.76662 0.90515 0.52684 0.0
Cd214 Cd 0.736 0.88216 0.52898 0.0
C215 C 0.73435 0.87323 0.48158 0.0
O216 O 0.71753 0.90698 0.53588 0.0
O217 O 0.70091 0.87875 0.52589 0.0
O218 O 0.74776 0.8794 0.56093 0.0
C219 C 0.70134 0.89618 0.53302 0.0
O220 O 0.72952 0.88982 0.48171 0.0
C221 C 0.74184 0.86116 0.56032 0.0
O222 O 0.73839 0.86682 0.49702 0.0
O223 O 0.73363 0.85236 0.54479 0.0
C224 C 0.908 0.02561 0.26523 0.0
O225 O 0.9173 0.01978 0.25171 0.0
Cd226 Cd 0.90708 0.01724 0.21896 0.0
O227 O 0.89291 0.03208 0.26186 0.0
Cd228 Cd 0.87364 0.03819 0.23396 0.0
C229 C 0.86318 0.9891 0.22294 0.0
O230 O 0.89887 0.04765 0.21323 0.0
O231 O 0.87077 0.03935 0.19962 0.0
O232 O 0.86998 0.06969 0.25004 0.0
C233 C 0.88822 0.04602 0.19826 0.0
O234 O 0.87955 0.99042 0.21645 0.0
C235 C 0.85203 0.0665 0.24749 0.0
O236 O 0.85782 0.00413 0.23086 0.0
O237 O 0.84413 0.04999 0.23892 0.0
C238 C 0.27796 0.6101 0.5122 0.0
O239 O 0.26375 0.60266 0.52076 0.0
Cd240 Cd 0.23705 0.61766 0.52628 0.0
O241 O 0.27899 0.62681 0.5064 0.0
Cd242 Cd 0.2596 0.65263 0.50689 0.0
C243 C 0.25872 0.65913 0.5544 0.0
O244 O 0.23021 0.63015 0.49724 0.0
O245 O 0.22726 0.6596 0.50641 0.0
O246 O 0.27144 0.65977 0.47645 0.0
C247 C 0.21957 0.6426 0.49903 0.0
O248 O 0.2468 0.6431 0.55279 0.0
C249 C 0.27529 0.67814 0.4807 0.0
O250 O 0.2667 0.66532 0.54003 0.0
O251 O 0.27242 0.68465 0.49744 0.0
C252 C 0.40837 0.52137 0.76303 0.0
O253 O 0.41604 0.5144 0.74881 0.0
Cd254 Cd 0.40673 0.51531 0.71636 0.0
O255 O 0.39462 0.53025 0.76089 0.0
Cd256 Cd 0.37541 0.53787 0.73368 0.0
C257 C 0.3623 0.48914 0.71973 0.0
O258 O 0.40083 0.54728 0.71322 0.0
O259 O 0.37278 0.54119 0.69954 0.0
O260 O 0.37231 0.56924 0.7507 0.0
C261 C 0.39041 0.54713 0.69839 0.0
O262 O 0.37817 0.48996 0.71227 0.0
C263 C 0.35435 0.56627 0.74836 0.0
O264 O 0.35828 0.50414 0.72916 0.0
O265 O 0.34624 0.54998 0.73951 0.0
C266 C 0.57473 0.98054 0.76181 0.0
O267 O 0.56585 0.98746 0.74914 0.0
Cd268 Cd 0.57817 -0.00563 0.71942 0.0
O269 O 0.59136 0.97724 0.75941 0.0
Cd270 Cd 0.61526 0.98001 0.73544 0.0
C271 C 0.61724 0.02889 0.7352 0.0
O272 O 0.59149 0.96589 0.7106 0.0
O273 O 0.6194 0.97431 0.70112 0.0
O274 O 0.62723 0.95538 0.75171 0.0
C275 C 0.60216 0.96665 0.69696 0.0
O276 O 0.601 0.02543 0.72631 0.0
C277 C 0.64451 0.96226 0.74949 0.0
O278 O 0.62452 0.01504 0.74051 0.0
O279 O 0.648 0.97708 0.74055 0.0
C280 C 0.77797 0.60692 -0.00385 0.0
O281 O 0.7638 0.59773 0.00361 0.0
Cd282 Cd 0.73436 0.60806 0.00673 0.0
O283 O 0.77715 0.6229 0.9894 0.0
Cd284 Cd 0.7538 0.64454 0.98501 0.0
C285 C 0.75049 0.65312 0.03248 0.0
O286 O 0.72779 0.6177 0.97643 0.0
O287 O 0.71955 0.64558 0.98101 0.0
O288 O 0.76758 0.64968 0.95481 0.0
C289 C 0.71465 0.62736 0.97624 0.0
O290 O 0.74131 0.63565 0.03155 0.0
C291 C 0.76865 0.66803 0.95665 0.0
O292 O 0.75739 0.65992 0.01783 0.0
O293 O 0.76307 0.67558 0.9719 0.0
C294 C 0.92608 0.53941 0.80012 0.0
O295 O 0.93484 0.53057 0.78793 0.0
Cd296 Cd 0.92499 0.52206 0.75518 0.0
O297 O 0.91023 0.54387 0.7956 0.0
Cd298 Cd 0.88908 0.53961 0.76659 0.0
C299 C 0.88394 0.49039 0.75923 0.0
O300 O 0.91454 0.55076 0.74724 0.0
O301 O 0.88772 0.53988 0.73172 0.0
O302 O 0.87896 0.5697 0.77776 0.0
C303 C 0.9049 0.54831 0.73164 0.0
O304 O 0.90019 0.49272 0.75246 0.0
C305 C 0.86136 0.5628 0.77464 0.0
O306 O 0.87747 0.50493 0.76658 0.0
O307 O 0.85665 0.54485 0.76839 0.0
C308 C 0.76478 0.4181 0.50395 0.0
O309 O 0.75519 0.42963 0.49732 0.0
Cd310 Cd 0.7214 0.42429 0.49509 0.0
O311 O 0.75659 0.40275 0.51056 0.0
Cd312 Cd 0.72425 0.38574 0.51599 0.0
C313 C 0.71299 0.37947 0.46861 0.0
O314 O 0.71331 0.41518 0.52567 0.0
O315 O 0.6915 0.3894 0.52242 0.0
O316 O 0.73713 0.37561 0.54463 0.0
C317 C 0.69609 0.4077 0.52688 0.0
O318 O 0.71288 0.39764 0.46914 0.0
C319 C 0.73046 0.35756 0.54009 0.0
O320 O 0.71711 0.37211 0.48344 0.0
O321 O 0.72059 0.35277 0.5245 0.0
C322 C 0.59433 0.50554 0.29922 0.0
O323 O 0.5864 0.5148 0.28783 0.0
Cd324 Cd 0.59577 0.52274 0.25753 0.0
O325 O 0.60937 0.49923 0.29507 0.0
Cd326 Cd 0.63012 0.49945 0.26751 0.0
C327 C 0.64094 0.54895 0.27037 0.0
O328 O 0.60413 0.49372 0.24369 0.0
O329 O 0.63158 0.5002 0.23278 0.0
O330 O 0.63459 0.46674 0.27318 0.0
C331 C 0.61378 0.49612 0.22942 0.0
O332 O 0.62418 0.54803 0.26329 0.0
C333 C 0.65236 0.47011 0.27144 0.0
O334 O 0.64647 0.53367 0.27481 0.0
O335 O 0.65986 0.4873 0.2685 0.0
Dy336 Dy 0.97244 0.00783 -0.0072 0.0
C337 C 0.05144 0.01526 0.01394 0.0
C338 C 0.93528 0.00954 0.98589 0.0
Dy339 Dy 0.01419 0.0165 0.00712 0.0
O340 O 0.94834 0.01282 0.97399 0.0
O341 O 0.94246 0.0049 0.00143 0.0
O342 O 0.97897 0.98802 0.96811 0.0
O343 O -0.00072 0.01257 0.97941 0.0
C344 C -0.00371 -0.00258 0.96767 0.0
C345 C -0.00953 0.0271 0.0323 0.0
O346 O 0.01348 0.04422 -0.0051 0.0
O347 O 0.98077 0.04059 -0.00496 0.0
O348 O 0.03985 0.01855 0.02682 0.0
O349 O 0.04276 0.01302 -0.00277 0.0
O350 O 0.00779 0.03644 0.03173 0.0
O351 O 0.98737 0.01192 0.02055 0.0
O352 O 0.97287 0.97967 0.00429 0.0
O353 O 0.00573 0.98401 0.00728 0.0
C354 C -0.00226 0.0513 -0.00667 0.0
C355 C 0.98863 0.97302 0.00756 0.0
Dy356 Dy 0.25332 0.75246 0.23064 0.0
C357 C 0.26009 0.7596 0.31229 0.0
C358 C 0.25067 0.7534 0.19249 0.0
Dy359 Dy 0.25196 0.75984 0.27464 0.0
O360 O 0.26606 0.75255 0.20232 0.0
O361 O 0.23678 0.75362 0.20348 0.0
O362 O 0.27328 0.73182 0.23467 0.0
O363 O 0.27336 0.75599 0.25485 0.0
C364 C 0.28008 0.74082 0.25115 0.0
C365 C 0.22505 0.77177 0.25472 0.0
O366 O 0.26933 0.78825 0.26949 0.0
O367 O 0.2633 0.78494 0.23675 0.0
O368 O 0.24315 0.75877 0.30464 0.0
O369 O 0.27231 0.76045 0.29942 0.0
O370 O 0.23134 0.77999 0.27167 0.0
O371 O 0.23197 0.75678 0.25049 0.0
O372 O 0.23409 0.72504 0.2353 0.0
O373 O 0.23996 0.72755 0.2681 0.0
C374 C 0.27024 0.79545 0.25301 0.0
C375 C 0.23251 0.71762 0.25166 0.0
Dy376 Dy 0.52397 0.02032 0.50915 0.0
C377 C 0.44574 0.02793 0.50274 0.0
C378 C 0.55871 0.01032 0.51168 0.0
Dy379 Dy 0.48039 0.01916 0.51009 0.0
O380 O 0.54793 0.00844 0.49624 0.0
O381 O 0.55081 0.01838 0.5257 0.0
O382 O 0.52504 0.03889 0.48526 0.0
O383 O 0.50052 0.01808 0.48842 0.0
C384 C 0.50748 0.03185 0.47936 0.0
C385 C 0.49683 0.00836 0.54046 0.0
O386 O 0.48024 0.99005 0.49408 0.0
O387 O 0.51041 0.98848 0.50587 0.0
O388 O 0.44934 0.01639 0.515 0.0
O389 O 0.46097 0.03445 0.49449 0.0
O390 O 0.47908 0.00162 0.53507 0.0
O391 O 0.50371 0.02145 0.53065 0.0
O392 O 0.52569 0.05038 0.52355 0.0
O393 O 0.49333 0.05077 0.51958 0.0
C394 C 0.49382 0.98008 0.49706 0.0
C395 C 0.51114 0.05956 0.52475 0.0
Dy396 Dy 0.23591 0.26821 0.75569 0.0
C397 C 0.31608 0.2789 0.74986 0.0
C398 C 0.19894 0.26502 0.7639 0.0
Dy399 Dy 0.2788 0.26966 0.75712 0.0
O400 O 0.21176 0.2808 0.76702 0.0
O401 O 0.20619 0.25082 0.75584 0.0
O402 O 0.23978 0.29356 0.73874 0.0
O403 O 0.26098 0.29146 0.75937 0.0
C404 C 0.25668 0.30096 0.74629 0.0
C405 C 0.25829 0.236 0.76521 0.0
O406 O 0.27594 0.28395 0.78621 0.0
O407 O 0.2445 0.26907 0.78649 0.0
O408 O 0.30917 0.2662 0.76099 0.0
O409 O 0.30267 0.2867 0.74296 0.0
O410 O 0.27564 0.24256 0.77202 0.0
O411 O 0.25388 0.24654 0.75315 0.0
O412 O 0.23708 0.25538 0.72593 0.0
O413 O 0.27006 0.26176 0.72592 0.0
C414 C 0.26054 0.27875 0.79544 0.0
C415 C 0.25296 0.25592 0.71703 0.0
Dy416 Dy -0.00947 0.00398 0.48408 0.0
C417 C 0.02729 0.03521 0.55657 0.0
C418 C 0.96924 0.99275 0.45071 0.0
Dy419 Dy 0.00533 0.02372 0.52367 0.0
O420 O 0.98672 0.99087 0.45361 0.0
O421 O 0.96324 0.00025 0.46624 0.0
O422 O 0.02022 0.0014 0.47706 0.0
O423 O 0.01555 0.02499 0.49557 0.0
C424 C 0.02809 0.01669 0.48853 0.0
C425 C 0.96781 0.01187 0.51889 0.0
O426 O 0.00355 0.05074 0.51039 0.0
O427 O 0.98503 0.03467 0.4838 0.0
O428 O 0.00908 0.03424 0.55478 0.0
O429 O 0.03356 0.03039 0.54024 0.0
O430 O 0.97582 0.02726 0.5302 0.0
O431 O 0.98013 0.003 0.51216 0.0
O432 O -0.00869 0.97696 0.4979 0.0
O433 O 0.01043 0.99296 0.5241 0.0
C434 C -0.00726 0.05095 0.49486 0.0
C435 C 0.00211 0.97666 0.51343 0.0
Dy436 Dy 0.27326 0.77807 0.77516 0.0
C437 C 0.20271 0.74102 0.7358 0.0
C438 C 0.3055 0.79254 0.79757 0.0
Dy439 Dy 0.23406 0.75511 0.7596 0.0
O440 O 0.30267 0.79602 0.78021 0.0
O441 O 0.29055 0.78144 0.8028 0.0
O442 O 0.28151 0.78242 0.74543 0.0
O443 O 0.26259 0.75742 0.75062 0.0
C444 C 0.26996 0.76675 0.73786 0.0
C445 C 0.23722 0.76604 0.797 0.0
O446 O 0.24804 0.72974 0.76298 0.0
O447 O 0.27439 0.74734 0.7814 0.0
O448 O 0.20359 0.74005 0.75396 0.0
O449 O 0.21904 0.74938 0.73067 0.0
O450 O 0.22607 0.75018 0.78912 0.0
O451 O 0.24462 0.77567 0.78439 0.0
O452 O 0.25874 0.80331 0.7728 0.0
O453 O 0.23293 0.78589 0.7536 0.0
C454 C 0.26362 0.7305 0.77395 0.0
C455 C 0.24335 0.80268 0.7616 0.0
Dy456 Dy 0.50312 0.01601 0.02436 0.0
C457 C 0.50495 0.99024 0.94372 0.0
C458 C 0.49753 0.02658 0.0611 0.0
Dy459 Dy 0.50015 0.00771 0.97845 0.0
O460 O 0.49588 0.00868 0.05335 0.0
O461 O 0.50256 0.03873 0.04885 0.0
O462 O 0.52425 -0.00404 0.02494 0.0
O463 O 0.50317 0.99185 0.00276 0.0
C464 C 0.51773 0.98622 0.00864 0.0
C465 C 0.49056 0.04184 0.99143 0.0
O466 O 0.47271 0.99032 0.98544 0.0
O467 O 0.47219 0.00385 0.01696 0.0
O468 O 0.49079 -0.00119 0.94777 0.0
O469 O 0.51643 0.99136 0.95859 0.0
O470 O 0.49113 0.03652 0.97336 0.0
O471 O 0.49525 0.02874 0.00011 0.0
O472 O 0.52851 0.03664 0.01705 0.0
O473 O 0.53018 0.02307 0.98575 0.0
C474 C 0.46393 0.99293 0.0013 0.0
C475 C 0.53737 0.03509 0.00113 0.0
Dy476 Dy 0.26523 0.29814 0.27193 0.0
C477 C 0.25991 0.21526 0.26012 0.0
C478 C 0.26353 0.33675 0.27709 0.0
Dy479 Dy 0.25862 0.25378 0.26069 0.0
O480 O 0.26453 0.32581 0.29054 0.0
O481 O 0.26363 0.32661 0.26074 0.0
O482 O 0.2847 0.29474 0.29652 0.0
O483 O 0.2612 0.27271 0.28709 0.0
C484 C 0.27563 0.2773 0.29845 0.0
C485 C 0.24796 0.27401 0.23373 0.0
O486 O 0.23088 0.25539 0.27249 0.0
O487 O 0.23353 0.28895 0.27304 0.0
O488 O 0.25966 0.22438 0.24517 0.0
O489 O 0.25948 0.22718 0.27523 0.0
O490 O 0.23971 0.2562 0.23551 0.0
O491 O 0.26227 0.27918 0.24527 0.0
O492 O 0.29235 0.29668 0.25849 0.0
O493 O 0.29017 0.26326 0.25905 0.0
C494 C 0.22357 0.27137 0.27482 0.0
C495 C 0.29979 0.28074 0.25638 0.0
Dy496 Dy 0.49082 0.50504 0.98507 0.0
C497 C 0.52382 0.53601 0.05876 0.0
C498 C 0.47355 0.49361 0.94973 0.0
Dy499 Dy 0.50311 0.52451 0.02514 0.0
O500 O 0.49158 0.49591 0.95402 0.0
O501 O 0.46473 0.49701 0.96493 0.0
O502 O 0.52107 0.50263 0.98069 0.0
O503 O 0.51502 0.52654 -0.00214 0.0
C504 C 0.52811 0.51836 0.99191 0.0
C505 C 0.46587 0.51202 0.01846 0.0
O506 O 0.50116 0.55147 0.01182 0.0
O507 O 0.48368 0.53501 0.98479 0.0
O508 O 0.50552 0.53402 0.05647 0.0
O509 O 0.53082 0.53224 0.04257 0.0
O510 O 0.47317 0.52743 0.03008 0.0
O511 O 0.47867 0.50341 0.01239 0.0
O512 O 0.49162 0.47784 -0.0016 0.0
O513 O 0.50868 0.49391 0.02579 0.0
C514 C 0.4907 0.55139 -0.00402 0.0
C515 C 0.50145 0.47762 0.01455 0.0
Dy516 Dy 0.77425 0.27965 0.27491 0.0
C517 C 0.70337 0.24524 0.23448 0.0
C518 C 0.8064 0.2929 0.29774 0.0
Dy519 Dy 0.73477 0.25819 0.25845 0.0
O520 O 0.80376 0.29721 0.28064 0.0
O521 O 0.79134 0.28159 0.30247 0.0
O522 O 0.78306 0.28463 0.24545 0.0
O523 O 0.76337 0.2599 0.24981 0.0
C524 C 0.77119 0.26941 0.2374 0.0
C525 C 0.73768 0.26801 0.29605 0.0
O526 O 0.74798 0.23215 0.26116 0.0
O527 O 0.77422 0.24854 0.28048 0.0
O528 O 0.70421 0.24364 0.25251 0.0
O529 O 0.71975 0.25365 0.22953 0.0
O530 O 0.72611 0.25269 0.28768 0.0
O531 O 0.74556 0.27779 0.28379 0.0
O532 O 0.76021 0.30537 0.27372 0.0
O533 O 0.7348 0.28947 0.25317 0.0
C534 C 0.76321 0.23212 0.27238 0.0
C535 C 0.74532 0.30573 0.26219 0.0
Dy536 Dy 0.00088 0.51467 0.52389 0.0
C537 C 0.00138 0.48558 0.44484 0.0
C538 C -0.00553 0.5274 0.55989 0.0
Dy539 Dy -0.0008 0.5038 0.47999 0.0
O540 O -0.0047 0.50946 0.55383 0.0
O541 O -0.0026 0.53842 0.54635 0.0
O542 O 0.02619 0.50021 0.52724 0.0
O543 O 0.00579 0.49023 0.50473 0.0
C544 C 0.02182 0.48881 0.51145 0.0
C545 C 0.98927 0.53779 0.49171 0.0
O546 O 0.97233 0.48478 0.48651 0.0
O547 O 0.97198 0.49582 0.51864 0.0
O548 O 0.98871 0.49601 0.44945 0.0
O549 O 0.01273 0.48513 0.45943 0.0
O550 O -0.00303 0.53473 0.47573 0.0
O551 O 0.98606 0.5223 0.49943 0.0
O552 O 0.0236 0.53765 0.51521 0.0
O553 O 0.02874 0.5206 0.4867 0.0
C554 C 0.96415 0.48489 0.50288 0.0
C555 C 0.03387 0.53517 0.50046 0.0
Dy556 Dy 0.73762 0.76605 0.25512 0.0
C557 C 0.81876 0.78136 0.25591 0.0
C558 C 0.69971 0.75641 0.25934 0.0
Dy559 Dy 0.78101 0.77035 0.2604 0.0
O560 O 0.70823 0.77263 0.25379 0.0
O561 O 0.71185 0.7453 0.2622 0.0
O562 O 0.74139 0.79187 0.23873 0.0
O563 O 0.76145 0.79045 0.26079 0.0
C564 C 0.75763 0.79991 0.2475 0.0
C565 C 0.76097 0.73588 0.26692 0.0
O566 O 0.77582 0.78448 0.28887 0.0
O567 O 0.74349 0.77191 0.28673 0.0
O568 O 0.81143 0.76771 0.26588 0.0
O569 O 0.80549 0.78915 0.2487 0.0
O570 O 0.77743 0.74335 0.27554 0.0
O571 O 0.75731 0.74616 0.25434 0.0
O572 O 0.74224 0.75276 0.2263 0.0
O573 O 0.7751 0.76262 0.22873 0.0
C574 C 0.75932 0.78075 0.2967 0.0
C575 C 0.75888 0.75509 0.21865 0.0
Dy576 Dy 0.74978 0.25671 0.73363 0.0
C577 C 0.7583 0.26444 0.81519 0.0
C578 C 0.74572 0.25689 0.69547 0.0
Dy579 Dy 0.74955 0.26442 0.77764 0.0
O580 O 0.76083 0.25408 0.70457 0.0
O581 O 0.73291 0.25961 0.70721 0.0
O582 O 0.76852 0.23479 0.73714 0.0
O583 O 0.7702 0.25922 0.75742 0.0
C584 C 0.77598 0.24352 0.7535 0.0
C585 C 0.72328 0.278 0.75847 0.0
O586 O 0.76753 0.29243 0.77214 0.0
O587 O 0.76252 0.28865 0.73921 0.0
O588 O 0.74114 0.26247 0.80766 0.0
O589 O 0.77042 0.26629 0.80225 0.0
O590 O 0.73016 0.2858 0.77536 0.0
O591 O 0.72916 0.26241 0.75392 0.0
O592 O 0.72977 0.23006 0.73881 0.0
O593 O 0.7368 0.23227 0.7714 0.0
C594 C 0.76938 0.29917 0.75547 0.0
C595 C 0.72867 0.22255 0.75513 0.0
Dy596 Dy 0.76624 0.79563 0.77083 0.0
C597 C 0.75989 0.71262 0.75871 0.0
C598 C 0.76498 0.83434 0.77618 0.0
Dy599 Dy 0.7592 0.75127 0.75934 0.0
O600 O 0.76556 0.82324 0.78956 0.0
O601 O 0.76525 0.82431 0.7598 0.0
O602 O 0.78553 0.79187 0.79541 0.0
O603 O 0.76188 0.77008 0.78583 0.0
C604 C 0.77628 0.77447 0.79722 0.0
C605 C 0.7489 0.77185 0.73252 0.0
O606 O 0.73149 0.75317 0.77106 0.0
O607 O 0.73449 0.78678 0.77171 0.0
O608 O 0.75945 0.7217 0.74374 0.0
O609 O 0.76003 0.72466 0.77385 0.0
O610 O 0.74047 0.75406 0.73413 0.0
O611 O 0.76318 0.7768 0.74411 0.0
O612 O 0.79335 0.79394 0.75744 0.0
O613 O 0.79077 0.76041 0.75757 0.0
C614 C 0.72435 0.76925 0.77338 0.0
C615 C 0.80059 0.77788 0.75511 0.0
Dy616 Dy 0.4707 0.51013 0.49321 0.0
C617 C 0.55084 0.51523 0.50454 0.0
C618 C 0.43336 0.51228 0.48892 0.0
Dy619 Dy 0.51361 0.51808 0.50386 0.0
O620 O 0.44548 0.51506 0.47604 0.0
O621 O 0.44157 0.50795 0.50408 0.0
O622 O 0.47557 0.49119 0.46703 0.0
O623 O 0.49623 0.51565 0.47784 0.0
C624 C 0.49256 0.50097 0.46556 0.0
C625 C 0.49234 0.52713 0.53206 0.0
O626 O 0.51143 0.54591 0.49237 0.0
O627 O 0.47933 0.54287 0.4969 0.0
O628 O 0.54305 0.52436 0.51797 0.0
O629 O 0.53837 0.50804 0.49069 0.0
O630 O 0.5097 0.53611 0.53092 0.0
O631 O 0.48818 0.5128 0.51938 0.0
O632 O 0.47191 0.48164 0.50375 0.0
O633 O 0.50484 0.48563 0.50468 0.0
C634 C 0.49586 0.55342 0.49344 0.0
C635 C 0.48776 0.4748 0.50567 0.0
Dy636 Dy 0.02556 0.52034 0.00831 0.0
C637 C 0.94728 0.52738 -8e-05 0.0
C638 C 0.06034 0.51051 0.01142 0.0
Dy639 Dy 0.98179 0.51864 0.008 0.0
O640 O 0.05035 0.50986 -0.00434 0.0
O641 O 0.05163 0.51728 0.02551 0.0
O642 O 0.02738 0.54042 0.98563 0.0
O643 O 0.0028 0.51907 0.98707 0.0
C644 C 0.01002 0.5335 0.97897 0.0
C645 C -0.00274 0.50624 0.038 0.0
O646 O 0.98225 0.49036 0.99076 0.0
O647 O 0.01228 0.48841 0.00268 0.0
O648 O 0.95044 0.51512 0.01161 0.0
O649 O 0.96289 0.53469 0.99268 0.0
O650 O 0.97965 0.49969 0.03194 0.0
O651 O 0.00445 0.51998 0.02909 0.0
O652 O 0.02652 0.54974 0.02406 0.0
O653 O -0.00583 0.54991 0.01935 0.0
C654 C -0.00414 0.48033 -0.00666 0.0
C655 C 0.01179 0.55867 0.02534 0.0
C656 C -0.00789 0.20696 0.93069 0.0
C657 C 0.98752 0.20252 0.91111 0.0
C658 C -0.00587 0.19215 0.94188 0.0
C659 C 0.00527 0.14306 0.93804 0.0
H660 H 0.98257 0.1388 0.98624 0.0
C661 C 0.01571 0.08201 0.98275 0.0
C662 C -0.00122 0.07141 0.98847 0.0
C663 C 0.01601 0.10004 0.97601 0.0
C664 C 0.98905 0.13987 0.97284 0.0
H665 H 0.98087 0.17906 0.88801 0.0
H666 H 0.98432 0.15331 0.90751 0.0
H667 H 0.97898 0.16607 0.96851 0.0
H668 H 0.96915 0.07196 0.99266 0.0
H669 H 0.96969 0.10328 0.98084 0.0
H670 H 0.01488 0.11665 0.94199 0.0
C671 C 0.9866 0.16823 0.91417 0.0
C672 C 0.98709 0.15552 0.96277 0.0
C673 C 0.98448 0.18297 0.90304 0.0
C674 C 0.98241 0.07967 0.98825 0.0
C675 C 0.98274 0.09772 0.98161 0.0
C676 C 0.00733 0.12753 0.94814 0.0
C677 C -0.00828 0.1727 0.93364 0.0
C678 C -0.00513 0.15702 0.94509 0.0
C679 C -0.00058 0.10786 0.97498 0.0
C680 C -0.00103 0.12558 0.96548 0.0
H681 H -0.00545 0.2219 0.93731 0.0
H682 H -0.00189 0.19599 0.95685 0.0
H683 H 0.01165 0.14402 0.92457 0.0
H684 H 0.02859 0.07609 0.98283 0.0
H685 H 0.02913 0.10766 0.9712 0.0
C686 C 0.09078 0.81991 0.17713 0.0
C687 C 0.08551 0.81112 0.15851 0.0
C688 C 0.10841 0.81903 0.18566 0.0
C689 C 0.13868 0.78492 0.18686 0.0
H690 H 0.17689 0.82619 0.21376 0.0
C691 C 0.20314 0.76648 0.22585 0.0
C692 C 0.21061 0.77798 0.24274 0.0
C693 C 0.18967 0.7723 0.21422 0.0
C694 C 0.16623 0.81446 0.20654 0.0
H695 H 0.09493 0.79558 0.13382 0.0
H696 H 0.12554 0.79355 0.14901 0.0
H697 H 0.15047 0.83446 0.1955 0.0
H698 H 0.20953 0.80432 0.26113 0.0
H699 H 0.18496 0.81393 0.2415 0.0
H700 H 0.15328 0.76481 0.19866 0.0
C701 C 0.11608 0.80128 0.15684 0.0
C702 C 0.15126 0.81925 0.19596 0.0
C703 C 0.09861 0.80249 0.14818 0.0
C704 C 0.20406 0.79526 0.24807 0.0
C705 C 0.19015 0.80086 0.23667 0.0
C706 C 0.15332 0.78011 0.19774 0.0
C707 C 0.12085 0.80907 0.1758 0.0
C708 C 0.13743 0.80448 0.18601 0.0
C709 C 0.18274 0.78942 0.21958 0.0
C710 C 0.16735 0.79479 0.20772 0.0
H711 H 0.08095 0.82672 0.18536 0.0
H712 H 0.11179 0.82503 0.20034 0.0
H713 H 0.12792 0.77328 0.17959 0.0
H714 H 0.20753 0.7528 0.2217 0.0
H715 H 0.18466 0.76323 0.20106 0.0
C716 C 0.50257 0.836 0.39178 0.0
C717 C 0.49521 0.81738 0.3968 0.0
C718 C 0.5015 0.85272 0.40386 0.0
C719 C 0.4752 0.87142 0.44241 0.0
H720 H 0.52011 0.91212 0.45201 0.0
C721 C 0.50562 0.94874 0.49266 0.0
C722 C 0.49138 0.95939 0.48902 0.0
C723 C 0.50489 0.9302 0.48311 0.0
C724 C 0.50749 0.90081 0.44961 0.0
H725 H 0.48075 0.80176 0.41838 0.0
H726 H 0.47883 0.83106 0.43942 0.0
H727 H 0.52145 0.8823 0.43165 0.0
H728 H 0.4646 0.9584 0.47336 0.0
H729 H 0.46336 0.92588 0.45662 0.0
H730 H 0.46123 0.89012 0.46033 0.0
C731 C 0.48539 0.83264 0.42611 0.0
C732 C 0.50821 0.88384 0.4378 0.0
C733 C 0.48662 0.81588 0.41411 0.0
C734 C 0.47581 0.9506 0.47644 0.0
C735 C 0.47507 0.93196 0.46689 0.0
C736 C 0.47442 0.88853 0.45412 0.0
C737 C 0.49291 0.85121 0.42114 0.0
C738 C 0.49208 0.86901 0.43402 0.0
C739 C 0.4899 0.92185 0.46974 0.0
C740 C 0.49058 0.90339 0.45783 0.0
H741 H 0.50926 0.83768 0.37855 0.0
H742 H 0.50726 0.86688 0.3996 0.0
H743 H 0.46252 0.86023 0.43963 0.0
H744 H 0.51772 0.95494 0.50244 0.0
H745 H 0.51633 0.92258 0.48585 0.0
C746 C 0.4746 0.27502 0.69679 0.0
C747 C 0.47915 0.28426 0.68056 0.0
C748 C 0.45718 0.27532 0.70464 0.0
C749 C 0.40879 0.28359 0.69353 0.0
H750 H 0.40689 0.28981 0.74821 0.0
C751 C 0.34079 0.29414 0.7297 0.0
C752 C 0.33567 0.28218 0.74397 0.0
C753 C 0.35875 0.29569 0.72264 0.0
C754 C 0.40721 0.28796 0.73292 0.0
H755 H 0.46893 0.30105 0.6598 0.0
H756 H 0.43868 0.30188 0.67369 0.0
H757 H 0.43724 0.28974 0.73419 0.0
H758 H 0.34537 0.26301 0.76255 0.0
H759 H 0.37688 0.26581 0.75028 0.0
H760 H 0.37875 0.28191 0.69231 0.0
C761 C 0.44845 0.2941 0.68018 0.0
C762 C 0.42456 0.28785 0.72488 0.0
C763 C 0.46583 0.2937 0.67226 0.0
C764 C 0.34901 0.27236 0.75156 0.0
C765 C 0.36703 0.27401 0.74458 0.0
C766 C 0.39146 0.28383 0.70158 0.0
C767 C 0.44395 0.28498 0.69652 0.0
C768 C 0.42555 0.28553 0.70508 0.0
C769 C 0.37195 0.28541 0.7298 0.0
C770 C 0.39048 0.28591 0.72135 0.0
H771 H 0.48448 0.26751 0.70348 0.0
H772 H 0.45405 0.26783 0.717 0.0
H773 H 0.40897 0.28146 0.67824 0.0
H774 H 0.33075 0.3019 0.72364 0.0
H775 H 0.36225 0.30479 0.71142 0.0
C776 C -0.00846 0.8156 0.57095 0.0
C777 C -0.00331 0.81717 0.59042 0.0
C778 C -0.00805 0.83236 0.56179 0.0
C779 C -0.00671 0.88577 0.57178 0.0
H780 H 0.00975 0.88702 0.52065 0.0
C781 C 0.01161 0.9574 0.53863 0.0
C782 C 0.00319 0.95773 0.52048 0.0
C783 C 0.01102 0.9398 0.54626 0.0
C784 C 0.005 0.88681 0.53488 0.0
H785 H 0.00657 0.83754 0.61548 0.0
H786 H 0.00781 0.86663 0.59951 0.0
H787 H 0.00812 0.85719 0.53587 0.0
H788 H 0.98822 0.93964 0.49582 0.0
H789 H 0.98745 0.90877 0.50914 0.0
H790 H -0.00939 0.91551 0.57092 0.0
C791 C 0.00295 0.85254 0.59133 0.0
C792 C 0.00398 0.8697 0.5436 0.0
C793 C 0.00235 0.83582 0.6005 0.0
C794 C -0.00519 0.93992 0.50984 0.0
C795 C -0.0056 0.92224 0.51744 0.0
C796 C -0.00549 0.90287 0.56315 0.0
C797 C -0.00232 0.85106 0.57187 0.0
C798 C -0.00176 0.869 0.56223 0.0
C799 C 0.00216 0.92207 0.53588 0.0
C800 C 0.00049 0.90363 0.54467 0.0
H801 H 0.98706 0.80143 0.5628 0.0
H802 H 0.98755 0.83063 0.54686 0.0
H803 H 0.98836 0.88569 0.58594 0.0
H804 H 0.01825 0.97079 0.54725 0.0
H805 H 0.01736 0.94008 0.5604 0.0
C806 C 0.45742 0.77681 0.86869 0.0
C807 C 0.47317 0.78559 0.85955 0.0
C808 C 0.43923 0.77977 0.86365 0.0
C809 C 0.41196 0.79323 0.82391 0.0
H810 H 0.37578 0.80201 0.8612 0.0
C811 C 0.33964 0.80821 0.80066 0.0
C812 C 0.32408 0.7971 0.8082 0.0
C813 C 0.35791 0.80962 0.80881 0.0
C814 C 0.38572 0.79949 0.85064 0.0
H815 H 0.48217 0.80467 0.83818 0.0
H816 H 0.45063 0.80985 0.82955 0.0
H817 H 0.40759 0.79814 0.87163 0.0
H818 H 0.31512 0.77977 0.8308 0.0
H819 H 0.34708 0.78198 0.84493 0.0
H820 H 0.39017 0.79419 0.8029 0.0
C821 C 0.45226 0.80048 0.84042 0.0
C822 C 0.40389 0.79723 0.8566 0.0
C823 C 0.47036 0.79754 0.84543 0.0
C824 C 0.32691 0.78845 0.82473 0.0
C825 C 0.34521 0.78977 0.83285 0.0
C826 C 0.39386 0.79546 0.81797 0.0
C827 C 0.43647 0.79152 0.84935 0.0
C828 C 0.41719 0.79406 0.84327 0.0
C829 C 0.36097 0.79983 0.82458 0.0
C830 C 0.38051 0.7986 0.83124 0.0
H831 H 0.45909 0.76755 0.87965 0.0
H832 H 0.4273 0.77253 0.87066 0.0
H833 H 0.42175 0.79044 0.81327 0.0
H834 H 0.3378 0.81513 0.78798 0.0
H835 H 0.36973 0.81784 0.80237 0.0
C836 C 0.48089 0.20252 0.07237 0.0
C837 C 0.4811 0.20055 0.09184 0.0
C838 C 0.47826 0.18598 0.05897 0.0
C839 C 0.46144 0.13246 0.05267 0.0
H840 H 0.49985 0.13198 0.01611 0.0
C841 C 0.48053 0.06144 0.01894 0.0
C842 C 0.48596 0.06016 0.00025 0.0
C843 C 0.47707 0.07898 0.02787 0.0
C844 C 0.48877 0.13195 0.02594 0.0
H845 H 0.47777 0.1797 0.11246 0.0
H846 H 0.47309 0.15101 0.08919 0.0
H847 H 0.49829 0.16228 0.03568 0.0
H848 H 0.49117 0.07578 0.97577 0.0
H849 H 0.48487 0.10661 0.99131 0.0
H850 H 0.45215 0.10209 0.04327 0.0
C851 C 0.47496 0.16527 0.08423 0.0
C852 C 0.48788 0.14932 0.03716 0.0
C853 C 0.47779 0.18174 0.09758 0.0
C854 C 0.48717 0.07651 0.9903 0.0
C855 C 0.48367 0.09414 -0.00077 0.0
C856 C 0.46226 0.11514 0.0414 0.0
C857 C 0.47551 0.1672 0.06481 0.0
C858 C 0.47455 0.14962 0.05099 0.0
C859 C 0.47877 0.09562 0.0182 0.0
C860 C 0.47627 0.11454 0.02829 0.0
H861 H 0.48342 0.21683 0.06751 0.0
H862 H 0.47864 0.18787 0.04407 0.0
H863 H 0.45083 0.13234 0.06302 0.0
H864 H 0.47887 0.04882 0.02664 0.0
H865 H 0.47349 0.07958 0.04253 0.0
C866 C 0.06914 0.25304 0.34483 0.0
C867 C 0.07133 0.25459 0.3647 0.0
C868 C 0.0849 0.25391 0.33397 0.0
C869 C 0.13607 0.2732 0.33742 0.0
H870 H 0.13553 0.24035 0.28992 0.0
C871 C 0.19708 0.28631 0.28789 0.0
C872 C 0.20416 0.26962 0.28136 0.0
C873 C 0.1798 0.28448 0.29643 0.0
C874 C 0.13589 0.24961 0.30317 0.0
H875 H 0.09165 0.25745 0.38873 0.0
H876 H 0.11922 0.2588 0.3697 0.0
H877 H 0.10793 0.23583 0.30894 0.0
H878 H 0.19811 0.23792 0.2777 0.0
H879 H 0.16812 0.23481 0.29262 0.0
H880 H 0.16414 0.28673 0.33188 0.0
C881 C 0.10532 0.25722 0.36257 0.0
C882 C 0.12005 0.2471 0.31399 0.0
C883 C 0.08953 0.25631 0.37345 0.0
C884 C 0.19314 0.2511 0.28266 0.0
C885 C 0.17586 0.24929 0.29113 0.0
C886 C 0.15186 0.27575 0.32658 0.0
C887 C 0.10319 0.25637 0.34274 0.0
C888 C 0.12002 0.25881 0.33128 0.0
C889 C 0.16923 0.26595 0.29851 0.0
C890 C 0.15198 0.26393 0.30938 0.0
H891 H 0.05528 0.25168 0.33767 0.0
H892 H 0.08281 0.25334 0.31874 0.0
H893 H 0.13636 0.28264 0.35054 0.0
H894 H 0.20517 0.30079 0.28706 0.0
H895 H 0.17488 0.29759 0.30174 0.0
C896 C 0.88568 0.03871 0.16295 0.0
C897 C 0.89629 0.04773 0.17964 0.0
C898 C 0.89406 0.0384 0.14558 0.0
C899 C 0.93331 0.06171 0.11981 0.0
H900 H 0.93128 0.00992 0.09377 0.0
C901 C 0.98396 0.04667 0.06178 0.0
C902 C 0.97779 0.03135 0.04727 0.0
C903 C 0.97249 0.04996 0.07668 0.0
C904 C 0.93169 0.02456 0.10053 0.0
H905 H 0.92361 0.06435 0.19113 0.0
H906 H 0.93811 0.06415 0.16065 0.0
H907 H 0.91355 0.01399 0.12176 0.0
H908 H 0.95472 0.0077 0.03668 0.0
H909 H 0.93421 0.01404 0.062 0.0
H910 H 0.95123 0.0724 0.09853 0.0
C911 C 0.92339 0.05721 0.16108 0.0
C912 C 0.92157 0.02684 0.11665 0.0
C913 C 0.91513 0.05724 0.17849 0.0
C914 C 0.95975 0.01971 0.04761 0.0
C915 C 0.94812 0.02321 0.0623 0.0
C916 C 0.94319 0.05948 0.10347 0.0
C917 C 0.91306 0.04741 0.14455 0.0
C918 C 0.92251 0.04539 0.12659 0.0
C919 C 0.95446 0.03816 0.07724 0.0
C920 C 0.94277 0.04083 0.09378 0.0
H921 H 0.87114 0.03125 0.16338 0.0
H922 H 0.88578 0.03084 0.133 0.0
H923 H 0.93413 0.07619 0.12719 0.0
H924 H -0.00214 0.05582 0.06191 0.0
H925 H 0.97806 0.06138 0.08803 0.0
C926 C 0.2819 0.71152 0.47022 0.0
C927 C 0.28099 0.69132 0.46626 0.0
C928 C 0.28429 0.72353 0.4557 0.0
C929 C 0.29645 0.72473 0.40555 0.0
H930 H 0.25867 0.75743 0.40328 0.0
C931 C 0.284 0.76059 0.33877 0.0
C932 C 0.26491 0.75821 0.33231 0.0
C933 C 0.28881 0.75722 0.35716 0.0
C934 C 0.26933 0.74842 0.40374 0.0
H935 H 0.28315 0.66804 0.44433 0.0
H936 H 0.28716 0.68886 0.41907 0.0
H937 H 0.26335 0.74209 0.43184 0.0
H938 H 0.23586 0.75133 0.34005 0.0
H939 H 0.24418 0.7449 0.37211 0.0
H940 H 0.3016 0.72995 0.37707 0.0
C941 C 0.28616 0.69553 0.43334 0.0
C942 C 0.2722 0.73983 0.42019 0.0
C943 C 0.28372 0.68354 0.44781 0.0
C944 C 0.25069 0.75326 0.34475 0.0
C945 C 0.25549 0.74973 0.36314 0.0
C946 C 0.29355 0.73324 0.3891 0.0
C947 C 0.28591 0.71555 0.43702 0.0
C948 C 0.28538 0.72741 0.42104 0.0
C949 C 0.27461 0.75122 0.36938 0.0
C950 C 0.27956 0.74472 0.38781 0.0
H951 H 0.27993 0.71794 0.48434 0.0
H952 H 0.2843 0.73895 0.45899 0.0
H953 H 0.30688 0.71543 0.40588 0.0
H954 H 0.29525 0.76457 0.32945 0.0
H955 H 0.30366 0.75884 0.36163 0.0
C956 C 0.60423 0.97227 0.66301 0.0
C957 C 0.594 0.96362 0.67729 0.0
C958 C 0.59507 0.97322 0.64554 0.0
C959 C 0.55246 0.95637 0.6137 0.0
H960 H 0.55563 0.01139 0.60907 0.0
C961 C 0.50058 0.98477 0.56376 0.0
C962 C 0.50789 0.00146 0.55526 0.0
C963 C 0.51175 0.97823 0.57739 0.0
C964 C 0.55484 -0.00407 0.60978 0.0
H965 H 0.56687 0.94732 0.68389 0.0
H966 H 0.55095 0.94881 0.6532 0.0
H967 H 0.57535 0.00152 0.63327 0.0
H968 H 0.53216 0.02474 0.55458 0.0
H969 H 0.55203 0.0127 0.57702 0.0
H970 H 0.53205 0.95076 0.58999 0.0
C971 C 0.56594 0.95498 0.6556 0.0
C972 C 0.56615 0.99032 0.6237 0.0
C973 C 0.57502 0.95425 0.67317 0.0
C974 C 0.52636 0.01155 0.5606 0.0
C975 C 0.53763 0.00481 0.57377 0.0
C976 C 0.54134 0.96198 0.59942 0.0
C977 C 0.57568 0.96526 0.64202 0.0
C978 C 0.56499 0.97054 0.62587 0.0
C979 C 0.53044 0.9882 0.58253 0.0
C980 C 0.54233 0.98188 0.59738 0.0
H981 H 0.6189 0.97951 0.66576 0.0
H982 H 0.60285 0.98114 0.63516 0.0
H983 H 0.55128 0.94102 0.61527 0.0
H984 H 0.48631 0.9768 0.55989 0.0
H985 H 0.50563 0.96557 0.58407 0.0
C986 C 0.2462 0.34237 0.96131 0.0
C987 C 0.23653 0.35808 0.96172 0.0
C988 C 0.2495 0.33243 0.94403 0.0
C989 C 0.23199 0.3223 0.89398 0.0
H990 H 0.28189 0.31116 0.88487 0.0
C991 C 0.24476 0.27702 0.8259 0.0
C992 C 0.26035 0.28484 0.81599 0.0
C993 C 0.24295 0.28437 0.84457 0.0
C994 C 0.26791 0.31421 0.88723 0.0
H995 H 0.22249 0.37541 0.94426 0.0
H996 H 0.2281 0.35799 0.91424 0.0
H997 H 0.27606 0.32726 0.91575 0.0
H998 H 0.28682 0.3058 0.81831 0.0
H999 H 0.28359 0.31877 0.85111 0.0
H1000 H 0.22383 0.30963 0.8655 0.0
C1001 C 0.23311 0.35335 0.92727 0.0
C1002 C 0.26452 0.32325 0.90493 0.0
C1003 C 0.22995 0.36337 0.94449 0.0
C1004 C 0.27464 0.29948 0.82556 0.0
C1005 C 0.27281 0.30688 0.84434 0.0
C1006 C 0.23532 0.31317 0.87641 0.0
C1007 C 0.24302 0.33786 0.92683 0.0
C1008 C 0.24655 0.32752 0.90842 0.0
C1009 C 0.25666 0.29975 0.85383 0.0
C1010 C 0.25331 0.30907 0.87279 0.0
H1011 H 0.25151 0.33796 0.97431 0.0
H1012 H 0.25702 0.32043 0.94412 0.0
H1013 H 0.21796 0.32526 0.89629 0.0
H1014 H 0.2336 0.26554 0.81908 0.0
H1015 H 0.23056 0.27828 0.85163 0.0
C1016 C 0.90258 0.02711 0.29995 0.0
C1017 C 0.91386 0.02312 0.2849 0.0
C1018 C 0.90709 0.02276 0.31813 0.0
C1019 C 0.92583 0.02122 0.35712 0.0
H1020 H 0.94279 0.97241 0.36129 0.0
C1021 C 0.94193 -0.00296 0.42983 0.0
C1022 C 0.95936 0.99097 0.43186 0.0
C1023 C 0.93424 -0.00121 0.41186 0.0
C1024 C 0.93815 0.98612 0.36035 0.0
H1025 H 0.93915 0.01209 0.27739 0.0
H1026 H 0.94711 0.00479 0.30908 0.0
H1027 H 0.93424 0.98095 0.33014 0.0
H1028 H 0.98189 0.9809 0.4168 0.0
H1029 H 0.96854 0.98397 0.38544 0.0
H1030 H 0.93002 0.02655 0.3873 0.0
C1031 C 0.93457 0.01091 0.30674 0.0
C1032 C 0.93331 0.99104 0.34251 0.0
C1033 C 0.93008 0.01527 0.2886 0.0
C1034 C 0.9684 0.98557 0.41561 0.0
C1035 C 0.96071 0.98729 0.39765 0.0
C1036 C 0.93068 0.0163 0.37496 0.0
C1037 C 0.92296 0.0143 0.32164 0.0
C1038 C 0.92733 0.00876 0.34068 0.0
C1039 C 0.94383 -0.00553 0.3956 0.0
C1040 C 0.9371 -0.0012 0.37677 0.0
H1041 H 0.88996 0.0331 0.29759 0.0
H1042 H 0.89783 0.02547 0.3293 0.0
H1043 H 0.92145 0.03505 0.35617 0.0
H1044 H 0.93466 0.00127 0.44216 0.0
H1045 H 0.92104 0.00404 0.41073 0.0
C1046 C 0.25449 0.66398 0.58915 0.0
C1047 C 0.26282 0.67096 0.57309 0.0
C1048 C 0.25761 0.6754 0.60665 0.0
C1049 C 0.27042 0.72616 0.62835 0.0
H1050 H 0.27668 0.70179 0.67404 0.0
C1051 C 0.2807 0.76755 0.70485 0.0
C1052 C 0.26968 0.75798 0.71811 0.0
C1053 C 0.28144 0.75815 0.6866 0.0
C1054 C 0.27488 0.70878 0.6614 0.0
H1055 H 0.28119 0.69537 0.5629 0.0
H1056 H 0.28671 0.71531 0.59363 0.0
H1057 H 0.27588 0.68277 0.64324 0.0
H1058 H 0.2503 0.7315 0.72262 0.0
H1059 H 0.25147 0.71527 0.69093 0.0
H1060 H 0.26917 0.75213 0.64669 0.0
C1061 C 0.27764 0.70103 0.59255 0.0
C1062 C 0.27441 0.6979 0.64378 0.0
C1063 C 0.27456 0.68956 0.575 0.0
C1064 C 0.25899 0.7392 0.71271 0.0
C1065 C 0.25977 0.72984 0.69462 0.0
C1066 C 0.27093 0.73709 0.64605 0.0
C1067 C 0.26913 0.69408 0.60853 0.0
C1068 C 0.27172 0.70632 0.62708 0.0
C1069 C 0.27126 0.73904 0.68149 0.0
C1070 C 0.2727 0.72833 0.66272 0.0
H1071 H 0.24534 0.64975 0.58819 0.0
H1072 H 0.25063 0.66976 0.61865 0.0
H1073 H 0.26821 0.733 0.61571 0.0
H1074 H 0.28905 0.78206 0.70871 0.0
H1075 H 0.29039 0.76555 0.6767 0.0
C1076 C 0.57494 0.96775 0.79329 0.0
C1077 C 0.56577 0.97642 0.7796 0.0
C1078 C 0.56685 0.96456 0.81042 0.0
C1079 C 0.52226 0.96252 0.83495 0.0
H1080 H 0.55645 0.97974 0.87966 0.0
C1081 C 0.4982 0.98561 0.90873 0.0
C1082 C 0.5087 0.98221 0.92468 0.0
C1083 C 0.50361 0.9804 0.89057 0.0
C1084 C 0.54674 0.97446 0.86736 0.0
H1085 H 0.54063 0.98802 0.77291 0.0
H1086 H 0.52671 0.98279 0.80297 0.0
H1087 H 0.56904 0.97914 0.84856 0.0
H1088 H 0.53204 0.96941 0.9344 0.0
H1089 H 0.54131 0.96 0.90269 0.0
H1090 H 0.49987 0.95843 0.85389 0.0
C1091 C 0.54002 0.9782 0.80034 0.0
C1092 C 0.55397 0.97414 0.84951 0.0
C1093 C 0.54809 0.98135 0.78319 0.0
C1094 C 0.52388 0.97241 0.92227 0.0
C1095 C 0.52921 0.96709 0.90415 0.0
C1096 C 0.515 0.96284 0.85286 0.0
C1097 C 0.54944 0.97002 0.81424 0.0
C1098 C 0.54179 0.96848 0.83311 0.0
C1099 C 0.51953 0.97162 0.88814 0.0
C1100 C 0.52716 0.9691 0.86923 0.0
H1101 H 0.58849 0.96359 0.7909 0.0
H1102 H 0.57432 0.95799 0.82077 0.0
H1103 H 0.51257 0.95785 0.82254 0.0
H1104 H 0.4864 0.99313 0.91028 0.0
H1105 H 0.49594 0.98422 0.87852 0.0
C1106 C 0.25365 0.35946 0.09241 0.0
C1107 C 0.2426 0.3494 0.07639 0.0
C1108 C 0.25395 0.35109 0.10934 0.0
C1109 C 0.24199 0.30409 0.12972 0.0
H1110 H 0.24258 0.33813 0.1765 0.0
C1111 C 0.23178 0.27453 0.20205 0.0
C1112 C 0.24521 0.28369 0.21669 0.0
C1113 C 0.23051 0.28273 0.18508 0.0
C1114 C 0.24251 0.32847 0.16356 0.0
H1115 H 0.22346 0.32252 0.06542 0.0
H1116 H 0.22365 0.30802 0.09509 0.0
H1117 H 0.24269 0.35164 0.14633 0.0
H1118 H 0.26748 0.30885 0.22532 0.0
H1119 H 0.26505 0.32336 0.19582 0.0
H1120 H 0.24157 0.28089 0.14707 0.0
C1121 C 0.23236 0.32226 0.09452 0.0
C1122 C 0.24267 0.33621 0.14625 0.0
C1123 C 0.2322 0.33058 0.07751 0.0
C1124 C 0.25689 0.30154 0.21433 0.0
C1125 C 0.2555 0.30984 0.19744 0.0
C1126 C 0.24166 0.29634 0.14703 0.0
C1127 C 0.24305 0.33253 0.11073 0.0
C1128 C 0.24257 0.32415 0.12911 0.0
C1129 C 0.24253 0.30035 0.18253 0.0
C1130 C 0.24204 0.30847 0.16413 0.0
H1131 H 0.26193 0.37394 0.09196 0.0
H1132 H 0.2627 0.35924 0.12138 0.0
H1133 H 0.24217 0.29441 0.11685 0.0
H1134 H 0.22257 0.26076 0.20351 0.0
H1135 H 0.22023 0.27522 0.1739 0.0
C1136 C 0.19115 0.94226 0.03465 0.0
C1137 C 0.18484 0.92192 0.03224 0.0
C1138 C 0.1782 0.95475 0.03584 0.0
C1139 C 0.14789 0.97527 0.0217 0.0
H1140 H 0.10219 0.96661 0.04905 0.0
C1141 C 0.08065 0.00455 0.003 0.0
C1142 C 0.07017 0.0106 0.01792 0.0
C1143 C 0.09672 -0.00326 0.00675 0.0
C1144 C 0.11503 0.96939 0.04155 0.0
H1145 H 0.16011 0.89868 0.03025 0.0
H1146 H 0.13735 0.92061 0.03225 0.0
H1147 H 0.12597 0.9464 0.05304 0.0
H1148 H 0.06878 0.01447 0.04843 0.0
H1149 H 0.09694 0.00087 0.05499 0.0
H1150 H 0.13681 -0.00198 0.00995 0.0
C1151 C 0.15235 0.92684 0.03327 0.0
C1152 C 0.12851 0.95769 0.04368 0.0
C1153 C 0.16535 0.9143 0.03206 0.0
C1154 C 0.07661 0.00983 0.03668 0.0
C1155 C 0.09262 0.00194 0.04043 0.0
C1156 C 0.13437 0.98688 0.01948 0.0
C1157 C 0.15867 0.94717 0.03469 0.0
C1158 C 0.14496 0.96038 0.03361 0.0
C1159 C 0.10249 -0.00519 0.02548 0.0
C1160 C 0.1177 0.98389 0.0292 0.0
H1161 H 0.20611 0.94858 0.03505 0.0
H1162 H 0.18345 0.97035 0.03727 0.0
H1163 H 0.16035 0.97754 0.0136 0.0
H1164 H 0.07592 0.00497 0.98841 0.0
H1165 H 0.10399 0.99125 -0.00506 0.0
C1166 C 0.68048 0.62701 0.98184 0.0
C1167 C 0.69466 0.61731 0.97499 0.0
C1168 C 0.66207 0.61666 0.98298 0.0
C1169 C 0.62891 0.57118 0.96535 0.0
H1170 H 0.60727 0.57796 0.01404 0.0
C1171 C 0.56138 0.51986 0.98268 0.0
C1172 C 0.5479 0.52866 0.99214 0.0
C1173 C 0.57956 0.53053 0.98108 0.0
C1174 C 0.61299 0.57605 0.00028 0.0
H1175 H 0.70054 0.58949 0.96302 0.0
H1176 H 0.66837 0.57151 0.96478 0.0
H1177 H 0.63772 0.59791 0.00877 0.0
H1178 H 0.54292 0.55519 0.00797 0.0
H1179 H 0.57443 0.5739 0.00487 0.0
H1180 H 0.60415 0.5495 0.95672 0.0
C1181 C 0.67148 0.58705 0.96936 0.0
C1182 C 0.63041 0.5875 -0.00273 0.0
C1183 C 0.68989 0.59733 0.96841 0.0
C1184 C 0.55307 0.54804 0.00059 0.0
C1185 C 0.57117 0.55874 -0.00112 0.0
C1186 C 0.61142 0.55983 0.96829 0.0
C1187 C 0.6575 0.59652 0.97705 0.0
C1188 C 0.63856 0.58512 0.97981 0.0
C1189 C 0.58453 0.55022 0.98882 0.0
C1190 C 0.60329 0.56207 0.98583 0.0
H1191 H 0.68376 0.64241 0.98701 0.0
H1192 H 0.65147 0.62433 0.98877 0.0
H1193 H 0.63484 0.56916 0.9517 0.0
H1194 H 0.55775 0.50489 0.97615 0.0
H1195 H 0.58965 0.52341 0.97358 0.0
C1196 C 0.68161 0.45683 0.26447 0.0
C1197 C 0.66358 0.45449 0.27176 0.0
C1198 C 0.69164 0.44153 0.26342 0.0
C1199 C 0.69671 0.39711 0.28395 0.0
H1200 H 0.71608 0.38121 0.23589 0.0
C1201 C 0.74471 0.33986 0.27602 0.0
C1202 C 0.73854 0.32433 0.26164 0.0
C1203 C 0.73672 0.35658 0.27689 0.0
C1204 C 0.71076 0.38553 0.24938 0.0
H1205 H 0.64214 0.43451 0.28415 0.0
H1206 H 0.6599 0.40793 0.28274 0.0
H1207 H 0.69978 0.40899 0.23879 0.0
H1208 H 0.71971 0.31452 0.23644 0.0
H1209 H 0.70603 0.34401 0.23777 0.0
H1210 H 0.7077 0.37371 0.29457 0.0
C1211 C 0.66617 0.42156 0.2777 0.0
C1212 C 0.70156 0.40146 0.25108 0.0
C1213 C 0.656 0.43674 0.27846 0.0
C1214 C 0.72475 0.32622 0.2477 0.0
C1215 C 0.71696 0.34311 0.24842 0.0
C1216 C 0.70617 0.3814 0.28234 0.0
C1217 C 0.68397 0.42373 0.26995 0.0
C1218 C 0.69432 0.4073 0.26834 0.0
C1219 C 0.7226 0.35826 0.26325 0.0
C1220 C 0.71318 0.37538 0.26501 0.0
H1221 H 0.6878 0.47032 0.25913 0.0
H1222 H 0.7054 0.44361 0.25752 0.0
H1223 H 0.69133 0.40137 0.29744 0.0
H1224 H 0.75523 0.33885 0.28704 0.0
H1225 H 0.74142 0.36814 0.28838 0.0
C1226 C 0.79486 0.43949 0.49682 0.0
C1227 C 0.78566 0.42244 0.50374 0.0
C1228 C 0.81453 0.44351 0.49633 0.0
C1229 C 0.85477 0.44278 0.48653 0.0
H1230 H 0.88634 0.43614 0.53003 0.0
C1231 C 0.93584 0.46161 0.48699 0.0
C1232 C 0.94486 0.47325 0.50333 0.0
C1233 C 0.91695 0.45222 0.48688 0.0
C1234 C 0.8777 0.43804 0.51778 0.0
H1235 H 0.78995 0.39622 0.51563 0.0
H1236 H 0.82438 0.40325 0.51463 0.0
H1237 H 0.85194 0.42657 0.53006 0.0
H1238 H 0.94134 0.48337 0.53265 0.0
H1239 H 0.90837 0.46725 0.53233 0.0
H1240 H 0.88038 0.45499 0.47456 0.0
C1241 C 0.81632 0.41356 0.50975 0.0
C1242 C 0.85803 0.43241 0.51772 0.0
C1243 C 0.7966 0.40952 0.51025 0.0
C1244 C 0.93484 0.47457 0.51979 0.0
C1245 C 0.91595 0.46521 0.51966 0.0
C1246 C 0.8744 0.44841 0.4866 0.0
C1247 C 0.82546 0.43057 0.50272 0.0
C1248 C 0.84636 0.43505 0.50223 0.0
C1249 C 0.90669 0.45428 0.50309 0.0
C1250 C 0.88606 0.4464 0.50234 0.0
H1251 H 0.78688 0.4498 0.49178 0.0
H1252 H 0.8212 0.45692 0.49115 0.0
H1253 H 0.84615 0.44472 0.47428 0.0
H1254 H 0.94319 0.46012 0.4741 0.0
H1255 H 0.91027 0.44363 0.47398 0.0
C1256 C 0.32658 0.06908 0.27172 0.0
C1257 C 0.3461 0.07606 0.27591 0.0
C1258 C 0.31415 0.08213 0.27091 0.0
C1259 C 0.29107 0.11514 0.27829 0.0
H1260 H 0.30901 0.15607 0.24714 0.0
C1261 C 0.26384 0.18735 0.27763 0.0
C1262 C 0.26314 0.19526 0.26036 0.0
C1263 C 0.2701 0.16981 0.27856 0.0
C1264 C 0.30366 0.14457 0.25563 0.0
H1265 H 0.36773 0.10201 0.28377 0.0
H1266 H 0.34604 0.12472 0.28222 0.0
H1267 H 0.32828 0.13186 0.25243 0.0
H1268 H 0.26695 0.19053 0.2303 0.0
H1269 H 0.27802 0.15982 0.23192 0.0
H1270 H 0.26658 0.12826 0.28179 0.0
C1271 C 0.34042 0.1092 0.27941 0.0
C1272 C 0.31481 0.13089 0.25887 0.0
C1273 C 0.35279 0.0962 0.28037 0.0
C1274 C 0.26749 0.18475 0.2438 0.0
C1275 C 0.27386 0.16725 0.24474 0.0
C1276 C 0.27996 0.12902 0.27522 0.0
C1277 C 0.32112 0.1023 0.27412 0.0
C1278 C 0.30875 0.11624 0.27042 0.0
C1279 C 0.27585 0.16 0.26224 0.0
C1280 C 0.28626 0.14395 0.26397 0.0
H1281 H 0.32102 0.05361 0.26831 0.0
H1282 H 0.29931 0.0765 0.26682 0.0
H1283 H 0.28612 0.10389 0.2872 0.0
H1284 H 0.26046 0.19519 0.29059 0.0
H1285 H 0.27162 0.16462 0.29225 0.0
C1286 C 0.2962 0.08541 0.50796 0.0
C1287 C 0.29468 0.10123 0.49782 0.0
C1288 C 0.31248 0.0773 0.50757 0.0
C1289 C 0.36288 0.08733 0.49694 0.0
H1290 H 0.3571 0.03103 0.4942 0.0
C1291 C 0.42609 0.04834 0.48746 0.0
C1292 C 0.42762 0.03438 0.49989 0.0
C1293 C 0.40953 0.05588 0.48593 0.0
C1294 C 0.35892 0.04677 0.49507 0.0
H1295 H 0.30919 0.12112 0.47947 0.0
H1296 H 0.33758 0.10674 0.47856 0.0
H1297 H 0.32903 0.04588 0.49413 0.0
H1298 H 0.41301 0.01684 0.52 0.0
H1299 H 0.38394 0.02998 0.51728 0.0
H1300 H 0.39279 0.08816 0.49783 0.0
C1301 C 0.32623 0.10078 0.48702 0.0
C1302 C 0.34287 0.0553 0.49509 0.0
C1303 C 0.30995 0.10898 0.4875 0.0
C1304 C 0.41213 0.02758 0.5103 0.0
C1305 C 0.39551 0.03505 0.50869 0.0
C1306 C 0.37892 0.07879 0.49682 0.0
C1307 C 0.3276 0.08474 0.49693 0.0
C1308 C 0.34467 0.07569 0.49621 0.0
C1309 C 0.39418 0.04951 0.49672 0.0
C1310 C 0.3771 0.05844 0.49603 0.0
H1311 H 0.28477 0.07918 0.5162 0.0
H1312 H 0.31324 0.06524 0.51569 0.0
H1313 H 0.36477 0.10309 0.49807 0.0
H1314 H 0.43784 0.05376 0.47922 0.0
H1315 H 0.40879 0.06681 0.4764 0.0
C1316 C 0.67203 0.57062 0.28247 0.0
C1317 C 0.65431 0.56792 0.27235 0.0
C1318 C 0.68487 0.58839 0.28327 0.0
C1319 C 0.69785 0.62915 0.25591 0.0
H1320 H 0.72016 0.65975 0.30275 0.0
C1321 C 0.7335 0.70902 0.25688 0.0
C1322 C 0.7498 0.71643 0.26887 0.0
C1323 C 0.72297 0.69049 0.25821 0.0
C1324 C 0.71431 0.65124 0.28953 0.0
H1325 H 0.63612 0.58191 0.25541 0.0
H1326 H 0.65855 0.61256 0.2566 0.0
H1327 H 0.69994 0.62771 0.30367 0.0
H1328 H 0.76797 0.71035 0.29166 0.0
H1329 H 0.74981 0.67755 0.29368 0.0
H1330 H 0.7122 0.65227 0.24163 0.0
C1331 C 0.66249 0.60098 0.26391 0.0
C1332 C 0.70272 0.63295 0.29009 0.0
C1333 C 0.64962 0.58343 0.26333 0.0
C1334 C 0.7554 0.70496 0.28228 0.0
C1335 C 0.74494 0.68625 0.2835 0.0
C1336 C 0.70956 0.64724 0.25532 0.0
C1337 C 0.68029 0.60357 0.2737 0.0
C1338 C 0.69406 0.62198 0.27329 0.0
C1339 C 0.72866 0.67874 0.27136 0.0
C1340 C 0.71758 0.65875 0.27213 0.0
H1341 H 0.67604 0.55897 0.2896 0.0
H1342 H 0.69854 0.59008 0.2909 0.0
H1343 H 0.69159 0.6208 0.24273 0.0
H1344 H 0.72891 0.71747 0.24631 0.0
H1345 H 0.7103 0.68541 0.24891 0.0
C1346 C 0.87507 0.45557 0.74492 0.0
C1347 C 0.87228 0.47066 0.75846 0.0
C1348 C 0.86354 0.43708 0.74386 0.0
C1349 C 0.81776 0.41151 0.75977 0.0
H1350 H 0.83879 0.3653 0.74615 0.0
C1351 C 0.78186 0.33303 0.77095 0.0
C1352 C 0.78012 0.31911 0.75494 0.0
C1353 C 0.7925 0.35175 0.77063 0.0
C1354 C 0.83275 0.37812 0.74984 0.0
H1355 H 0.85566 0.47816 0.78186 0.0
H1356 H 0.83619 0.44579 0.78066 0.0
H1357 H 0.859 0.39747 0.74753 0.0
H1358 H 0.78813 0.3138 0.72608 0.0
H1359 H 0.80719 0.34647 0.72575 0.0
H1360 H 0.7917 0.3919 0.76283 0.0
C1361 C 0.84673 0.44829 0.77033 0.0
C1362 C 0.84426 0.39657 0.75054 0.0
C1363 C 0.858 0.46684 0.77114 0.0
C1364 C 0.78916 0.32427 0.73859 0.0
C1365 C 0.80012 0.34287 0.73842 0.0
C1366 C 0.80637 0.39305 0.7594 0.0
C1367 C 0.84922 0.4332 0.75657 0.0
C1368 C 0.83692 0.41352 0.75554 0.0
C1369 C 0.80188 0.35673 0.75444 0.0
C1370 C 0.81379 0.37624 0.75444 0.0
H1371 H 0.88588 0.45815 0.73486 0.0
H1372 H 0.8657 0.42596 0.73287 0.0
H1373 H 0.81145 0.42418 0.76325 0.0
H1374 H 0.77496 0.32947 0.78371 0.0
H1375 H 0.79375 0.36222 0.78317 0.0
C1376 C 0.00364 0.82554 0.07975 0.0
C1377 C 0.00656 0.83189 0.09925 0.0
C1378 C -0.00202 0.8377 0.06718 0.0
C1379 C 0.00014 0.87174 0.04374 0.0
H1380 H 0.96658 0.90727 0.05837 0.0
C1381 C 0.00394 0.94542 0.01524 0.0
C1382 C 0.98738 0.95309 0.01297 0.0
C1383 C 0.00329 0.92763 0.02247 0.0
C1384 C 0.9757 0.89722 0.05385 0.0
H1385 H 0.00544 0.85577 0.12091 0.0
H1386 H -0.00411 0.87705 0.09901 0.0
H1387 H 0.97018 0.88148 0.0778 0.0
H1388 H 0.95695 0.94753 0.01554 0.0
H1389 H 0.95584 0.91631 0.02811 0.0
H1390 H 0.00583 0.88763 0.01991 0.0
C1391 C -0.00233 0.86259 0.09342 0.0
C1392 C 0.97796 0.8826 0.06514 0.0
C1393 C 0.00331 0.85045 0.10597 0.0
C1394 C 0.96999 0.94208 0.01721 0.0
C1395 C 0.96935 0.92425 0.0245 0.0
C1396 C -0.00214 0.88633 0.03244 0.0
C1397 C -0.00489 0.85644 0.07386 0.0
C1398 C -0.00937 0.87008 0.06051 0.0
C1399 C 0.98608 0.91705 0.02759 0.0
C1400 C 0.98605 0.8996 0.03768 0.0
H1401 H 0.00593 0.81126 0.07416 0.0
H1402 H -0.00405 0.83247 0.05222 0.0
H1403 H 0.01008 0.86239 0.03981 0.0
H1404 H 0.01757 0.95343 0.01202 0.0
H1405 H 0.01648 0.92266 0.02487 0.0
C1406 C 0.91955 0.22954 0.84328 0.0
C1407 C 0.9333 0.23837 0.83181 0.0
C1408 C 0.90062 0.22371 0.83631 0.0
C1409 C 0.86959 0.21439 0.79192 0.0
H1410 H 0.83353 0.23566 0.82283 0.0
C1411 C 0.80185 0.25088 0.77896 0.0
C1412 C 0.79108 0.23752 0.76474 0.0
C1413 C 0.81669 0.24574 0.78926 0.0
C1414 C 0.84339 0.22945 0.8141 0.0
H1415 H 0.93813 0.24718 0.80381 0.0
H1416 H 0.90533 0.23719 0.79181 0.0
H1417 H 0.8652 0.23561 0.8365 0.0
H1418 H 0.78714 0.20825 0.75014 0.0
H1419 H 0.81346 0.19923 0.76806 0.0
H1420 H 0.84825 0.20948 0.76915 0.0
C1421 C 0.90909 0.23461 0.8061 0.0
C1422 C 0.86145 0.22924 0.82198 0.0
C1423 C 0.92789 0.24055 0.81307 0.0
C1424 C 0.79528 0.2188 0.76106 0.0
C1425 C 0.81028 0.21365 0.77131 0.0
C1426 C 0.85153 0.2146 0.78404 0.0
C1427 C 0.89519 0.22639 0.8177 0.0
C1428 C 0.87499 0.22249 0.81072 0.0
C1429 C 0.82123 0.22716 0.78541 0.0
C1430 C 0.83854 0.22291 0.79483 0.0
H1431 H 0.92331 0.2276 0.85777 0.0
H1432 H 0.89019 0.21737 0.84554 0.0
H1433 H 0.87966 0.20881 0.783 0.0
H1434 H 0.79925 0.26559 0.78173 0.0
H1435 H 0.82514 0.25666 0.79967 0.0
C1436 C 0.52699 0.22898 0.59844 0.0
C1437 C 0.5312 0.23053 0.61808 0.0
C1438 C 0.52625 0.21131 0.58713 0.0
C1439 C 0.54034 0.16297 0.58694 0.0
H1440 H 0.50087 0.14778 0.54642 0.0
C1441 C 0.49921 0.08921 0.53771 0.0
C1442 C 0.51457 0.08015 0.53329 0.0
C1443 C 0.50227 0.10826 0.5467 0.0
C1444 C 0.51191 0.15174 0.55774 0.0
H1445 H 0.53792 0.21472 0.64127 0.0
H1446 H 0.53604 0.18374 0.62165 0.0
H1447 H 0.50401 0.17926 0.56532 0.0
H1448 H 0.54526 0.08425 0.53432 0.0
H1449 H 0.55062 0.11773 0.54967 0.0
H1450 H 0.54762 0.13502 0.57994 0.0
C1451 C 0.53376 0.19629 0.61488 0.0
C1452 C 0.51389 0.16993 0.56843 0.0
C1453 C 0.5347 0.21403 0.62617 0.0
C1454 C 0.53311 0.09076 0.53766 0.0
C1455 C 0.53618 0.10991 0.54655 0.0
C1456 C 0.53826 0.14469 0.57634 0.0
C1457 C 0.5295 0.19471 0.59522 0.0
C1458 C 0.52801 0.1757 0.58329 0.0
C1459 C 0.52078 0.11882 0.55135 0.0
C1460 C 0.52388 0.13877 0.56175 0.0
H1461 H 0.52442 0.24147 0.59173 0.0
H1462 H 0.52325 0.21072 0.57201 0.0
H1463 H 0.55157 0.16706 0.59807 0.0
H1464 H 0.48473 0.08147 0.53464 0.0
H1465 H 0.49007 0.11451 0.55046 0.0
C1466 C 0.56415 0.75516 0.35403 0.0
C1467 C 0.54592 0.74982 0.34495 0.0
C1468 C 0.58014 0.75433 0.34369 0.0
C1469 C 0.61078 0.74099 0.32028 0.0
H1470 H 0.61153 0.75911 0.27062 0.0
C1471 C 0.67294 0.73579 0.27315 0.0
C1472 C 0.68009 0.7528 0.26503 0.0
C1473 C 0.65545 0.73373 0.28127 0.0
C1474 C 0.61155 0.75404 0.28447 0.0
H1475 H 0.53008 0.73907 0.31806 0.0
H1476 H 0.55787 0.7374 0.30018 0.0
H1477 H 0.58375 0.75957 0.28894 0.0
H1478 H 0.67434 0.78055 0.25813 0.0
H1479 H 0.64388 0.77706 0.2724 0.0
H1480 H 0.63884 0.73608 0.31608 0.0
C1481 C 0.55989 0.74256 0.31516 0.0
C1482 C 0.59557 0.75412 0.2949 0.0
C1483 C 0.54396 0.74342 0.32545 0.0
C1484 C 0.66909 0.76727 0.26427 0.0
C1485 C 0.65163 0.76523 0.2724 0.0
C1486 C 0.62677 0.74092 0.30985 0.0
C1487 C 0.57816 0.74812 0.32412 0.0
C1488 C 0.59505 0.7477 0.31296 0.0
C1489 C 0.64484 0.74865 0.2814 0.0
C1490 C 0.62737 0.74756 0.29188 0.0
H1491 H 0.56608 0.76016 0.36904 0.0
H1492 H 0.59406 0.75891 0.35096 0.0
H1493 H 0.61072 0.73574 0.33406 0.0
H1494 H 0.68116 0.7244 0.27385 0.0
H1495 H 0.65043 0.72064 0.2878 0.0
C1496 C 0.01017 0.21368 0.44522 0.0
C1497 C 0.00266 0.21475 0.42688 0.0
C1498 C 0.00605 0.19634 0.45355 0.0
C1499 C -0.00814 0.14336 0.43998 0.0
H1500 H 0.98653 0.14176 0.49383 0.0
C1501 C 0.97931 0.07058 0.47211 0.0
C1502 C -0.00955 0.06994 0.48868 0.0
C1503 C 0.97834 0.08838 0.46539 0.0
C1504 C 0.98809 0.14199 0.47877 0.0
H1505 H 0.98414 0.19877 0.40329 0.0
H1506 H 0.97671 0.16863 0.41792 0.0
H1507 H 0.98888 0.17279 0.48062 0.0
H1508 H 0.0088 0.08766 0.51154 0.0
H1509 H 0.00722 0.11869 0.49972 0.0
H1510 H -0.00861 0.11269 0.43813 0.0
C1511 C 0.98611 0.18106 0.42573 0.0
C1512 C 0.98944 0.15977 0.47121 0.0
C1513 C 0.99028 0.19838 0.41738 0.0
C1514 C 9e-05 0.08759 0.49873 0.0
C1515 C -0.0009 0.10541 0.492 0.0
C1516 C -0.00952 0.12562 0.44753 0.0
C1517 C -0.00572 0.17969 0.44374 0.0
C1518 C -0.00848 0.16069 0.45173 0.0
C1519 C 0.98847 0.10599 0.47508 0.0
C1520 C 0.98876 0.12474 0.46704 0.0
H1521 H 0.01978 0.22603 0.45291 0.0
H1522 H 0.01273 0.19576 0.46736 0.0
H1523 H -0.00618 0.14356 0.42499 0.0
H1524 H 0.97157 0.05729 0.46407 0.0
H1525 H 0.96977 0.08834 0.45248 0.0
C1526 C 0.55099 0.2589 0.16405 0.0
C1527 C 0.55046 0.26295 0.14515 0.0
C1528 C 0.56745 0.25508 0.17265 0.0
C1529 C 0.61341 0.2409 0.16257 0.0
H1530 H 0.62598 0.26173 0.21522 0.0
C1531 C 0.68617 0.24553 0.20336 0.0
C1532 C 0.68574 0.2416 0.2223 0.0
C1533 C 0.66933 0.2454 0.19275 0.0
C1534 C 0.62252 0.25558 0.20059 0.0
H1535 H 0.56677 0.2662 0.12039 0.0
H1536 H 0.5959 0.26006 0.13564 0.0
H1537 H 0.59779 0.26817 0.19902 0.0
H1538 H 0.66749 0.23321 0.24467 0.0
H1539 H 0.63806 0.23301 0.22615 0.0
H1540 H 0.63866 0.22882 0.1642 0.0
C1541 C 0.5834 0.25947 0.14368 0.0
C1542 C 0.60636 0.25927 0.19128 0.0
C1543 C 0.56679 0.26313 0.13499 0.0
C1544 C 0.6682 0.23637 0.23011 0.0
C1545 C 0.65139 0.23637 0.21957 0.0
C1546 C 0.62975 0.23736 0.17188 0.0
C1547 C 0.58391 0.25544 0.16264 0.0
C1548 C 0.6015 0.25186 0.1722 0.0
C1549 C 0.65184 0.24149 0.201 0.0
C1550 C 0.63436 0.24457 0.19102 0.0
H1551 H 0.53858 0.25844 0.17221 0.0
H1552 H 0.56718 0.25163 0.18712 0.0
H1553 H 0.60997 0.2348 0.14793 0.0
H1554 H 0.69955 0.24957 0.19702 0.0
H1555 H 0.67008 0.24945 0.17849 0.0
C1556 C 0.53846 0.82525 0.94094 0.0
C1557 C 0.54599 0.82627 0.92308 0.0
C1558 C 0.53917 0.8422 0.95336 0.0
C1559 C 0.55968 0.89518 0.96257 0.0
H1560 H 0.50967 0.89868 0.97924 0.0
C1561 C 0.51282 0.95685 0.98492 0.0
C1562 C 0.52398 0.96869 -5e-05 0.0
C1563 C 0.51772 0.93948 0.97736 0.0
C1564 C 0.52374 0.89789 0.97474 0.0
H1565 H 0.56154 0.84573 0.90495 0.0
H1566 H 0.56259 0.87526 0.92656 0.0
H1567 H 0.51534 0.86786 0.96383 0.0
H1568 H 0.54931 0.97204 0.01855 0.0
H1569 H 0.55805 0.94145 0.00511 0.0
H1570 H 0.56777 0.92557 0.97306 0.0
C1571 C 0.5562 0.86136 0.93098 0.0
C1572 C 0.52706 0.88018 0.96612 0.0
C1573 C 0.55547 0.84442 0.91853 0.0
C1574 C 0.54047 0.96312 0.00697 0.0
C1575 C 0.54548 0.94571 -0.00073 0.0
C1576 C 0.55637 0.91293 0.97139 0.0
C1577 C 0.54745 0.8605 0.94822 0.0
C1578 C 0.54495 0.87871 0.95959 0.0
C1579 C 0.53393 0.93358 0.98463 0.0
C1580 C 0.53823 0.91452 0.97712 0.0
H1581 H 0.53123 0.81149 0.945 0.0
H1582 H 0.53257 0.84106 0.96671 0.0
H1583 H 0.57363 0.89442 0.95777 0.0
H1584 H 0.50002 0.96079 0.97923 0.0
H1585 H 0.50874 0.93056 0.96586 0.0
C1586 C 0.93938 0.74692 0.67725 0.0
C1587 C 0.94753 0.75942 0.6644 0.0
C1588 C 0.92441 0.75123 0.68762 0.0
C1589 C 0.88662 0.78021 0.68953 0.0
H1590 H 0.88662 0.76871 0.7417 0.0
C1591 C 0.82781 0.79525 0.73885 0.0
C1592 C 0.81961 0.77905 0.74775 0.0
C1593 C 0.84472 0.7953 0.72987 0.0
C1594 C 0.88644 0.77199 0.72716 0.0
H1595 H 0.946 0.78604 0.65201 0.0
H1596 H 0.9198 0.79374 0.6704 0.0
H1597 H 0.91343 0.76423 0.72305 0.0
H1598 H 0.82315 0.75062 0.75496 0.0
H1599 H 0.85275 0.75085 0.7395 0.0
H1600 H 0.85949 0.78787 0.69373 0.0
C1601 C 0.92498 0.7805 0.67229 0.0
C1602 C 0.90174 0.76935 0.71644 0.0
C1603 C 0.93998 0.7761 0.66177 0.0
C1604 C 0.82907 0.7633 0.74819 0.0
C1605 C 0.84607 0.76346 0.73941 0.0
C1606 C 0.87135 0.78299 0.70033 0.0
C1607 C 0.91725 0.76824 0.68556 0.0
C1608 C 0.9018 0.77296 0.69736 0.0
C1609 C 0.85387 0.77929 0.72986 0.0
C1610 C 0.87094 0.77849 0.71911 0.0
H1611 H 0.94468 0.73381 0.67947 0.0
H1612 H 0.91845 0.74118 0.69731 0.0
H1613 H 0.88617 0.78301 0.67485 0.0
H1614 H 0.82083 0.80759 0.7382 0.0
H1615 H 0.85052 0.80775 0.72273 0.0
C1616 C 0.06812 0.00409 0.82083 0.0
C1617 C 0.0858 -0.00083 0.81718 0.0
C1618 C 0.05978 0.00045 0.83772 0.0
C1619 C 0.07033 -0.00639 0.887 0.0
H1620 H 0.01584 0.976 0.88548 0.0
C1621 C 0.00416 0.97673 0.9395 0.0
C1622 C 0.00898 -0.00645 0.95258 0.0
C1623 C 0.01521 0.974 0.92412 0.0
C1624 C 0.0311 0.98059 0.88623 0.0
H1625 H 0.10858 0.98652 0.82853 0.0
H1626 H 0.0939 0.98017 0.85828 0.0
H1627 H 0.03175 0.97707 0.85607 0.0
H1628 H 0.02952 0.0203 0.96041 0.0
H1629 H 0.04861 0.01577 0.93341 0.0
H1630 H 0.0696 -0.0027 0.91724 0.0
C1631 C 0.08659 0.98691 0.84795 0.0
C1632 C 0.04019 0.98143 0.86934 0.0
C1633 C 0.09496 0.99048 0.83091 0.0
C1634 C 0.02549 0.00718 0.95051 0.0
C1635 C 0.03649 0.0045 0.93509 0.0
C1636 C 0.06121 0.99276 0.90397 0.0
C1637 C 0.06886 0.99179 0.85147 0.0
C1638 C 0.05982 0.98844 0.8695 0.0
C1639 C 0.03124 0.9881 0.92146 0.0
C1640 C 0.04142 0.98667 0.90376 0.0
H1641 H 0.06064 0.01084 0.81065 0.0
H1642 H 0.0463 0.00474 0.84013 0.0
H1643 H 0.08546 -0.00089 0.88758 0.0
H1644 H -0.0084 0.9659 0.9409 0.0
H1645 H 0.01095 0.96104 0.91407 0.0
C1646 C 0.74454 0.34852 0.56976 0.0
C1647 C 0.73404 0.34279 0.55234 0.0
C1648 C 0.74753 0.33464 0.5816 0.0
C1649 C 0.72623 0.28609 0.5927 0.0
H1650 H 0.77231 0.29337 0.62511 0.0
C1651 C 0.75944 0.25781 0.66393 0.0
C1652 C 0.74411 0.25909 0.67522 0.0
C1653 C 0.7588 0.26265 0.6454 0.0
C1654 C 0.75948 0.29078 0.61592 0.0
H1655 H 0.71891 0.318 0.53336 0.0
H1656 H 0.72423 0.2937 0.55408 0.0
H1657 H 0.77129 0.31264 0.59877 0.0
H1658 H 0.71568 0.26517 0.67587 0.0
H1659 H 0.71464 0.27396 0.64376 0.0
H1660 H 0.71431 0.26448 0.61009 0.0
C1661 C 0.72996 0.30895 0.55864 0.0
C1662 C 0.75882 0.30203 0.60098 0.0
C1663 C 0.72694 0.32286 0.54679 0.0
C1664 C 0.72771 0.26412 0.66742 0.0
C1665 C 0.72707 0.26899 0.64895 0.0
C1666 C 0.72691 0.27477 0.6076 0.0
C1667 C 0.74014 0.31472 0.57625 0.0
C1668 C 0.74196 0.30035 0.5897 0.0
C1669 C 0.74282 0.26887 0.63793 0.0
C1670 C 0.7433 0.27756 0.61982 0.0
H1671 H 0.7502 0.36377 0.57442 0.0
H1672 H 0.75514 0.3396 0.59523 0.0
H1673 H 0.71301 0.28446 0.58426 0.0
H1674 H 0.7722 0.25382 0.66964 0.0
H1675 H 0.77105 0.26219 0.63715 0.0
C1676 C 0.42152 0.04953 0.33232 0.0
C1677 C 0.43011 0.03893 0.31844 0.0
C1678 C 0.42953 0.05366 0.3509 0.0
C1679 C 0.47429 0.05531 0.37935 0.0
H1680 H 0.44154 0.04482 0.42039 0.0
C1681 C 0.47998 0.02667 0.45584 0.0
C1682 C 0.4975 0.03781 0.4632 0.0
C1683 C 0.4709 0.03151 0.43984 0.0
C1684 C 0.45086 0.04789 0.40908 0.0
H1685 H 0.4538 0.02433 0.31322 0.0
H1686 H 0.46746 0.03117 0.34551 0.0
H1687 H 0.42758 0.04411 0.38842 0.0
H1688 H 0.519 0.06317 0.46027 0.0
H1689 H 0.50303 0.07181 0.43223 0.0
H1690 H 0.49757 0.05779 0.39966 0.0
C1691 C 0.45479 0.03668 0.34201 0.0
C1692 C 0.44287 0.04769 0.39082 0.0
C1693 C 0.44684 0.03258 0.32351 0.0
C1694 C 0.50555 0.05427 0.45471 0.0
C1695 C 0.49642 0.05918 0.43869 0.0
C1696 C 0.48228 0.0554 0.39756 0.0
C1697 C 0.44628 0.04728 0.3559 0.0
C1698 C 0.45453 0.05072 0.37566 0.0
C1699 C 0.47916 0.04763 0.43089 0.0
C1700 C 0.47066 0.05104 0.4125 0.0
H1701 H 0.40866 0.0547 0.32883 0.0
H1702 H 0.4227 0.06192 0.36131 0.0
H1703 H 0.48363 0.05809 0.368 0.0
H1704 H 0.47351 0.01385 0.46212 0.0
H1705 H 0.4578 0.02209 0.43403 0.0
C1706 C 0.75849 0.6859 0.05195 0.0
C1707 C 0.75317 0.66549 0.05093 0.0
C1708 C 0.76054 0.69745 0.06947 0.0
C1709 C 0.76994 0.69579 0.12019 0.0
H1710 H 0.7434 0.73904 0.12774 0.0
C1711 C 0.74289 0.74253 0.18657 0.0
C1712 C 0.7596 0.74785 0.19845 0.0
C1713 C 0.74345 0.73466 0.16777 0.0
C1714 C 0.75093 0.72704 0.12578 0.0
H1715 H 0.74613 0.64119 0.06749 0.0
H1716 H 0.74999 0.66133 0.09798 0.0
H1717 H 0.74216 0.7208 0.09622 0.0
H1718 H 0.79008 0.74951 0.19972 0.0
H1719 H 0.79095 0.73551 0.16696 0.0
H1720 H 0.77849 0.70176 0.14974 0.0
C1721 C 0.75251 0.66838 0.08525 0.0
C1722 C 0.75034 0.71673 0.10776 0.0
C1723 C 0.75019 0.65688 0.06777 0.0
C1724 C 0.77693 0.74554 0.19098 0.0
C1725 C 0.77745 0.73746 0.17225 0.0
C1726 C 0.77074 0.70624 0.13812 0.0
C1727 C 0.75763 0.68877 0.08627 0.0
C1728 C 0.75957 0.7008 0.1049 0.0
C1729 C 0.76069 0.73175 0.16052 0.0
C1730 C 0.76101 0.72178 0.14115 0.0
H1731 H 0.76083 0.69296 0.03921 0.0
H1732 H 0.76455 0.71316 0.06992 0.0
H1733 H 0.77728 0.68364 0.11831 0.0
H1734 H 0.72932 0.74421 0.19185 0.0
H1735 H 0.7303 0.73024 0.15908 0.0
C1736 C 0.08751 0.00101 0.70862 0.0
C1737 C 0.10694 0.0007 0.71073 0.0
C1738 C 0.07969 0.0058 0.69188 0.0
C1739 C 0.09274 0.03039 0.6494 0.0
H1740 H 0.0418 0.00476 0.63088 0.0
C1741 C 0.05743 0.03537 0.57537 0.0
C1742 C 0.03823 0.0369 0.57484 0.0
C1743 C 0.06683 0.03319 0.5924 0.0
C1744 C 0.05596 0.0122 0.63601 0.0
H1745 H 0.13336 0.00462 0.69678 0.0
H1746 H 0.11957 0.01241 0.66723 0.0
H1747 H 0.0562 -0.00507 0.65893 0.0
H1748 H 0.01411 0.03863 0.59173 0.0
H1749 H 0.03052 0.03479 0.62145 0.0
H1750 H 0.0925 0.04728 0.62599 0.0
C1751 C 0.11046 0.00944 0.67871 0.0
C1752 C 0.06423 0.00658 0.6521 0.0
C1753 C 0.11833 0.00481 0.69557 0.0
C1754 C 0.02891 0.03743 0.59175 0.0
C1755 C 0.03824 0.03509 0.60872 0.0
C1756 C 0.08451 0.03586 0.63314 0.0
C1757 C 0.09107 0.01018 0.67674 0.0
C1758 C 0.08266 0.0157 0.65912 0.0
C1759 C 0.0571 0.03234 0.60908 0.0
C1760 C 0.06597 0.02693 0.62641 0.0
H1761 H 0.07837 -0.00193 0.7201 0.0
H1762 H 0.06478 0.00654 0.69103 0.0
H1763 H 0.10685 0.03791 0.65455 0.0
H1764 H 0.06492 0.0349 0.56249 0.0
H1765 H 0.08137 0.03107 0.5923 0.0
C1766 C 0.71427 0.3749 0.43345 0.0
C1767 C 0.71005 0.36691 0.45037 0.0
C1768 C 0.71447 0.3627 0.41667 0.0
C1769 C 0.72002 0.31228 0.40062 0.0
H1770 H 0.71027 0.32801 0.35109 0.0
C1771 C 0.72381 0.26658 0.32762 0.0
C1772 C 0.73537 0.27695 0.31524 0.0
C1773 C 0.71957 0.27611 0.34472 0.0
C1774 C 0.71299 0.32347 0.36487 0.0
H1775 H 0.70131 0.34004 0.46281 0.0
H1776 H 0.70082 0.31876 0.43338 0.0
H1777 H 0.70264 0.34726 0.37928 0.0
H1778 H 0.75235 0.30507 0.31138 0.0
H1779 H 0.7446 0.32169 0.341 0.0
H1780 H 0.73012 0.2883 0.38593 0.0
C1781 C 0.70472 0.33438 0.43315 0.0
C1782 C 0.70873 0.33451 0.38102 0.0
C1783 C 0.70485 0.34657 0.44998 0.0
C1784 C 0.74329 0.29673 0.32058 0.0
C1785 C 0.7388 0.30628 0.33745 0.0
C1786 C 0.72396 0.30105 0.38442 0.0
C1787 C 0.71013 0.34227 0.41641 0.0
C1788 C 0.71259 0.32932 0.39913 0.0
C1789 C 0.72662 0.29615 0.34945 0.0
C1790 C 0.72087 0.30683 0.36649 0.0
H1791 H 0.71845 0.39052 0.43337 0.0
H1792 H 0.71895 0.36933 0.40415 0.0
H1793 H 0.72349 0.30798 0.41431 0.0
H1794 H 0.71758 0.25131 0.32381 0.0
H1795 H 0.7102 0.26804 0.35388 0.0
C1796 C 0.43392 0.05771 0.21535 0.0
C1797 C 0.41417 0.05118 0.21368 0.0
C1798 C 0.44427 0.05856 0.19928 0.0
C1799 C 0.46204 0.04209 0.1651 0.0
H1800 H 0.44675 0.06067 0.1185 0.0
C1801 C 0.48703 0.01787 0.09239 0.0
C1802 C 0.49176 0.03211 0.08011 0.0
C1803 C 0.47943 0.02256 0.10958 0.0
C1804 C 0.4513 0.05564 0.13151 0.0
H1805 H 0.38961 0.04153 0.19388 0.0
H1806 H 0.40782 0.04295 0.16564 0.0
H1807 H 0.42915 0.06553 0.14675 0.0
H1808 H 0.49285 0.06249 0.07616 0.0
H1809 H 0.47943 0.0707 0.10632 0.0
H1810 H 0.48393 0.03187 0.14983 0.0
C1811 C 0.41522 0.04744 0.17944 0.0
C1812 C 0.44115 0.05826 0.14756 0.0
C1813 C 0.40483 0.04654 0.19557 0.0
C1814 C 0.48935 0.05127 0.08548 0.0
C1815 C 0.48157 0.05593 0.10261 0.0
C1816 C 0.47207 0.03933 0.14904 0.0
C1817 C 0.43508 0.05295 0.18121 0.0
C1818 C 0.44635 0.05136 0.16445 0.0
C1819 C 0.4763 0.04153 0.11467 0.0
C1820 C 0.46667 0.0459 0.13206 0.0
H1821 H 0.4415 0.06161 0.22912 0.0
H1822 H 0.45953 0.06316 0.201 0.0
H1823 H 0.46622 0.03643 0.17789 0.0
H1824 H 0.48872 0.00297 0.08849 0.0
H1825 H 0.47532 0.01115 0.11855 0.0
C1826 C 0.78262 0.67135 0.9253 0.0
C1827 C 0.77505 0.67981 0.94128 0.0
C1828 C 0.787 0.68187 0.90995 0.0
C1829 C 0.79287 0.73162 0.89441 0.0
H1830 H 0.77592 0.70269 0.84529 0.0
C1831 C 0.76585 0.74705 0.81615 0.0
C1832 C 0.77961 0.76313 0.8129 0.0
C1833 C 0.76837 0.73662 0.83136 0.0
C1834 C 0.78072 0.71099 0.85889 0.0
H1835 H 0.76681 0.70618 0.95404 0.0
H1836 H 0.77397 0.72437 0.9271 0.0
H1837 H 0.77493 0.68556 0.87325 0.0
H1838 H 0.80687 0.7809 0.82289 0.0
H1839 H 0.81137 0.76253 0.84964 0.0
H1840 H 0.79769 0.75723 0.88004 0.0
C1841 C 0.77687 0.70974 0.9265 0.0
C1842 C 0.7804 0.70113 0.87493 0.0
C1843 C 0.77263 0.69926 0.94192 0.0
C1844 C 0.79605 0.76854 0.8251 0.0
C1845 C 0.79858 0.75807 0.84042 0.0
C1846 C 0.79312 0.74152 0.87833 0.0
C1847 C 0.78375 0.70103 0.91016 0.0
C1848 C 0.78611 0.71136 0.89295 0.0
C1849 C 0.7847 0.74203 0.84374 0.0
C1850 C 0.78664 0.73136 0.86045 0.0
H1851 H 0.78483 0.65644 0.92447 0.0
H1852 H 0.79262 0.67484 0.89776 0.0
H1853 H 0.79763 0.73991 0.90803 0.0
H1854 H 0.75286 0.74277 0.80719 0.0
H1855 H 0.7572 0.72462 0.83372 0.0
C1856 C 0.80235 0.08641 0.01803 0.0
C1857 C 0.80061 0.10235 0.00817 0.0
C1858 C 0.81576 0.075 0.01332 0.0
C1859 C 0.85972 0.07504 0.98823 0.0
H1860 H 0.8472 0.01934 0.99151 0.0
C1861 C 0.91225 0.02512 0.96892 0.0
C1862 C 0.91652 0.01476 0.98385 0.0
C1863 C 0.89621 0.03365 0.96903 0.0
C1864 C 0.85082 0.03486 0.99048 0.0
H1865 H 0.81162 0.11893 0.98569 0.0
H1866 H 0.83478 0.09872 0.97713 0.0
H1867 H 0.82326 0.03936 -0.0025 0.0
H1868 H 0.90684 0.00391 0.00983 0.0
H1869 H 0.87856 0.01856 0.00986 0.0
H1870 H 0.88728 0.07045 0.98118 0.0
C1871 C 0.82603 0.09524 0.98877 0.0
C1872 C 0.8372 0.04637 -0.00596 0.0
C1873 C 0.81274 0.10683 -0.00635 0.0
C1874 C 0.90381 0.01182 -0.00185 0.0
C1875 C 0.88764 0.02016 -0.00186 0.0
C1876 C 0.87324 0.06349 0.98444 0.0
C1877 C 0.82759 0.0791 -0.00153 0.0
C1878 C 0.84161 0.06666 -0.00668 0.0
C1879 C 0.88409 0.03172 0.98394 0.0
C1880 C 0.869 0.04336 0.98584 0.0
H1881 H 0.7933 0.08269 0.0294 0.0
H1882 H 0.81689 0.063 0.02142 0.0
H1883 H 0.8637 0.09062 0.9878 0.0
H1884 H 0.92185 0.02758 0.95773 0.0
H1885 H 0.89364 0.04234 0.95783 0.0
C1886 C 0.29652 0.44884 0.02187 0.0
C1887 C 0.29121 0.42849 0.02127 0.0
C1888 C 0.3156 0.45766 0.02247 0.0
C1889 C 0.36036 0.44935 0.00669 0.0
H1890 H 0.38287 0.49221 0.04457 0.0
C1891 C 0.44005 0.48291 0.0109 0.0
C1892 C 0.44571 0.50286 0.01717 0.0
C1893 C 0.42115 0.47375 0.01128 0.0
C1894 C 0.37675 0.4805 0.03367 0.0
H1895 H 0.30159 0.40139 0.02106 0.0
H1896 H 0.33512 0.4169 0.02159 0.0
H1897 H 0.34998 0.47617 0.04629 0.0
H1898 H 0.43615 0.52916 0.02791 0.0
H1899 H 0.40292 0.51345 0.02775 0.0
H1900 H 0.38668 0.45405 -0.00647 0.0
C1901 C 0.32443 0.42593 0.02179 0.0
C1902 C 0.35798 0.47123 0.0348 0.0
C1903 C 0.30533 0.41712 0.02159 0.0
C1904 C 0.4321 0.5137 0.02316 0.0
C1905 C 0.41312 0.50463 0.02323 0.0
C1906 C 0.37902 0.45884 0.00534 0.0
C1907 C 0.32967 0.44625 0.02212 0.0
C1908 C 0.34969 0.45557 0.02135 0.0
C1909 C 0.40745 0.48446 0.01763 0.0
C1910 C 0.38747 0.47453 0.01883 0.0
H1911 H 0.28591 0.45796 0.02171 0.0
H1912 H 0.31935 0.47336 0.02263 0.0
H1913 H 0.35411 0.43745 -0.00399 0.0
H1914 H 0.45032 0.4742 0.00629 0.0
H1915 H 0.41743 0.45817 0.00713 0.0
C1916 C 0.32374 0.57822 0.75077 0.0
C1917 C 0.34344 0.5814 0.75482 0.0
C1918 C 0.31362 0.59303 0.75552 0.0
C1919 C 0.3159 0.64027 0.78498 0.0
H1920 H 0.28115 0.64951 0.74527 0.0
C1921 C 0.28884 0.71269 0.78402 0.0
C1922 C 0.27052 0.71216 0.77599 0.0
C1923 C 0.29626 0.69563 0.78381 0.0
C1924 C 0.2905 0.64695 0.75669 0.0
H1925 H 0.36787 0.60238 0.76763 0.0
H1926 H 0.3502 0.62826 0.77584 0.0
H1927 H 0.29683 0.6217 0.74063 0.0
H1928 H 0.24521 0.69306 0.76245 0.0
H1929 H 0.258 0.66329 0.76244 0.0
H1930 H 0.30971 0.6657 0.80095 0.0
C1931 C 0.34256 0.61428 0.7691 0.0
C1932 C 0.29953 0.631 0.75399 0.0
C1933 C 0.3527 0.59948 0.76429 0.0
C1934 C 0.25945 0.69404 0.76859 0.0
C1935 C 0.26683 0.67697 0.76847 0.0
C1936 C 0.30679 0.65621 0.78772 0.0
C1937 C 0.32295 0.61132 0.76447 0.0
C1938 C 0.31249 0.62758 0.76801 0.0
C1939 C 0.28549 0.67762 0.77565 0.0
C1940 C 0.29413 0.65988 0.77351 0.0
H1941 H 0.31616 0.56442 0.74357 0.0
H1942 H 0.29848 0.59021 0.752 0.0
H1943 H 0.32564 0.63788 0.79614 0.0
H1944 H 0.29779 0.72639 0.78984 0.0
H1945 H 0.31074 0.69674 0.7893 0.0
C1946 C 0.19128 0.61883 0.48459 0.0
C1947 C 0.19888 0.63655 0.49565 0.0
C1948 C 0.17178 0.61184 0.48295 0.0
C1949 C 0.13097 0.61208 0.51036 0.0
H1950 H 0.10327 0.5857 0.46402 0.0
C1951 C 0.05505 0.5675 0.51035 0.0
C1952 C 0.05144 0.54942 0.49899 0.0
C1953 C 0.07156 0.58109 0.50871 0.0
C1954 C 0.11084 0.59294 0.4771 0.0
H1955 H 0.1921 0.66131 0.51305 0.0
H1956 H 0.15783 0.6488 0.51048 0.0
H1957 H 0.13501 0.605 0.46266 0.0
H1958 H 0.06228 0.53135 0.47705 0.0
H1959 H 0.09128 0.55475 0.47458 0.0
H1960 H 0.10734 0.59924 0.52496 0.0
C1961 C 0.16704 0.64043 0.50303 0.0
C1962 C 0.12892 0.60407 0.47628 0.0
C1963 C 0.18658 0.64758 0.50444 0.0
C1964 C 0.06461 0.5452 0.48594 0.0
C1965 C 0.08117 0.5587 0.48441 0.0
C1966 C 0.11295 0.60081 0.51121 0.0
C1967 C 0.15953 0.62233 0.49253 0.0
C1968 C 0.13932 0.61333 0.49296 0.0
C1969 C 0.08484 0.5768 0.49577 0.0
C1970 C 0.10289 0.59069 0.49463 0.0
H1971 H 0.20045 0.61009 0.47758 0.0
H1972 H 0.16638 0.59774 0.47493 0.0
H1973 H 0.1388 0.6189 0.52346 0.0
H1974 H 0.04504 0.57127 0.52039 0.0
H1975 H 0.07387 0.59498 0.51752 0.0
C1976 C 0.65766 0.94323 0.77271 0.0
C1977 C 0.65992 0.95345 0.75682 0.0
C1978 C 0.67229 0.9347 0.77948 0.0
C1979 C 0.72325 0.93135 0.77317 0.0
H1980 H 0.70705 0.88054 0.79007 0.0
C1981 C 0.75987 0.8648 0.76352 0.0
C1982 C 0.76042 0.85393 0.7789 0.0
C1983 C 0.75169 0.8814 0.76508 0.0
C1984 C 0.71182 0.89488 0.78573 0.0
H1985 H 0.67911 0.96304 0.7356 0.0
H1986 H 0.70411 0.94711 0.74649 0.0
H1987 H 0.68379 0.90053 0.78446 0.0
H1988 H 0.75435 0.85254 0.80837 0.0
H1989 H 0.73951 0.88126 0.81088 0.0
H1990 H 0.75114 0.92454 0.77292 0.0
C1991 C 0.69149 0.94628 0.75436 0.0
C1992 C 0.69849 0.90645 0.78257 0.0
C1993 C 0.67707 0.95524 0.74793 0.0
C1994 C 0.75404 0.86068 0.79629 0.0
C1995 C 0.74557 0.87707 0.79775 0.0
C1996 C 0.73652 0.91952 0.77591 0.0
C1997 C 0.68926 0.93573 0.77014 0.0
C1998 C 0.70393 0.92467 0.77584 0.0
C1999 C 0.74374 0.8871 0.78195 0.0
C2000 C 0.7308 0.90107 0.7819 0.0
H2001 H 0.64464 0.94194 0.77999 0.0
H2002 H 0.67017 0.92714 0.79194 0.0
H2003 H 0.72808 0.94549 0.76846 0.0
H2004 H 0.76476 0.85987 0.74999 0.0
H2005 H 0.75027 0.88887 0.75267 0.0
C2006 C 0.66877 0.89788 0.52052 0.0
C2007 C 0.68431 0.90493 0.53364 0.0
C2008 C 0.65416 0.90838 0.51907 0.0
C2009 C 0.6307 0.9449 0.54294 0.0
H2010 H 0.62507 0.96253 0.49354 0.0
C2011 C 0.58578 0.00301 0.53098 0.0
C2012 C 0.57499 0.00061 0.51371 0.0
C2013 C 0.59949 0.99162 0.53361 0.0
C2014 C 0.62616 0.95752 0.50734 0.0
H2015 H 0.69625 0.92756 0.55633 0.0
H2016 H 0.67034 0.94553 0.55418 0.0
H2017 H 0.64622 0.93992 0.49842 0.0
H2018 H 0.57013 0.98477 0.48555 0.0
H2019 H 0.59339 0.96448 0.49026 0.0
H2020 H 0.61029 0.96196 0.55184 0.0
C2021 C 0.66962 0.93211 0.5449 0.0
C2022 C 0.63831 0.94458 0.5101 0.0
C2023 C 0.68441 0.92188 0.54608 0.0
C2024 C 0.57843 0.98707 0.49895 0.0
C2025 C 0.59185 0.97547 0.50166 0.0
C2026 C 0.61823 0.95755 0.5401 0.0
C2027 C 0.65469 0.92577 0.53101 0.0
C2028 C 0.64074 0.93826 0.52793 0.0
C2029 C 0.6024 0.97738 0.51911 0.0
C2030 C 0.61587 0.96412 0.52227 0.0
H2031 H 0.66844 0.88492 0.51073 0.0
H2032 H 0.6427 0.90324 0.50828 0.0
H2033 H 0.63241 0.94019 0.55682 0.0
H2034 H 0.58333 0.01335 0.5426 0.0
H2035 H 0.60762 -0.00617 0.54709 0.0
C2036 C 0.35344 0.45336 0.70863 0.0
C2037 C 0.3493 0.47005 0.71909 0.0
C2038 C 0.34259 0.43492 0.70997 0.0
C2039 C 0.31347 0.40864 0.74331 0.0
H2040 H 0.29829 0.36884 0.70054 0.0
C2041 C 0.26207 0.32861 0.72673 0.0
C2042 C 0.26806 0.31942 0.74185 0.0
C2043 C 0.27226 0.3466 0.72297 0.0
C2044 C 0.3024 0.37984 0.7126 0.0
H2045 H 0.32991 0.48051 0.73845 0.0
H2046 H 0.311 0.44833 0.74073 0.0
H2047 H 0.31434 0.40153 0.69521 0.0
H2048 H 0.28959 0.32143 0.76462 0.0
H2049 H 0.30744 0.35298 0.75809 0.0
H2050 H 0.30151 0.38704 0.76071 0.0
C2051 C 0.32279 0.44953 0.73168 0.0
C2052 C 0.31167 0.39849 0.70956 0.0
C2053 C 0.33355 0.46797 0.73025 0.0
C2054 C 0.28463 0.32828 0.75293 0.0
C2055 C 0.29477 0.34635 0.74925 0.0
C2056 C 0.30436 0.38998 0.74636 0.0
C2057 C 0.32745 0.43278 0.72188 0.0
C2058 C 0.31724 0.41309 0.72489 0.0
C2059 C 0.28858 0.35577 0.73434 0.0
C2060 C 0.2987 0.3754 0.73104 0.0
H2061 H 0.36543 0.45443 0.69985 0.0
H2062 H 0.34656 0.42227 0.70231 0.0
H2063 H 0.31783 0.41953 0.75543 0.0
H2064 H 0.24935 0.32203 0.71795 0.0
H2065 H 0.26708 0.35358 0.71149 0.0
C2066 C 0.11599 0.5639 0.23338 0.0
C2067 C 0.12388 0.54799 0.23801 0.0
C2068 C 0.12674 0.58285 0.2364 0.0
C2069 C 0.1706 0.61233 0.26212 0.0
H2070 H 0.16752 0.64632 0.22307 0.0
C2071 C 0.2136 0.69145 0.26825 0.0
C2072 C 0.22088 0.69792 0.25154 0.0
C2073 C 0.20117 0.6735 0.26765 0.0
C2074 C 0.16866 0.63695 0.23405 0.0
H2075 H 0.14924 0.53957 0.2495 0.0
H2076 H 0.16796 0.57234 0.25429 0.0
H2077 H 0.14668 0.61451 0.22018 0.0
H2078 H 0.22151 0.69026 0.22124 0.0
H2079 H 0.20036 0.65887 0.22028 0.0
H2080 H 0.19317 0.63444 0.27555 0.0
C2081 C 0.15338 0.57033 0.24875 0.0
C2082 C 0.15649 0.61882 0.23253 0.0
C2083 C 0.14265 0.55147 0.24584 0.0
C2084 C 0.21598 0.68581 0.23435 0.0
C2085 C 0.20372 0.66786 0.23377 0.0
C2086 C 0.18286 0.63042 0.26357 0.0
C2087 C 0.1456 0.58626 0.24403 0.0
C2088 C 0.15748 0.60618 0.24642 0.0
C2089 C 0.19589 0.66162 0.25034 0.0
C2090 C 0.18222 0.64283 0.24941 0.0
H2091 H 0.10154 0.56172 0.22742 0.0
H2092 H 0.12025 0.59484 0.23281 0.0
H2093 H 0.17154 0.60307 0.27323 0.0
H2094 H 0.21703 0.70049 0.28171 0.0
H2095 H 0.19531 0.66919 0.28066 0.0
C2096 C 0.48178 0.68651 0.40528 0.0
C2097 C 0.48956 0.70596 0.41223 0.0
C2098 C 0.48184 0.67166 0.41684 0.0
C2099 C 0.47507 0.64446 0.44715 0.0
H2100 H 0.52171 0.64348 0.47621 0.0
C2101 C 0.48034 0.58226 0.49177 0.0
C2102 C 0.49633 0.57364 0.48917 0.0
C2103 C 0.4797 0.6003 0.48552 0.0
C2104 C 0.50859 0.64358 0.46819 0.0
H2105 H 0.50317 0.72517 0.43686 0.0
H2106 H 0.5032 0.69916 0.45709 0.0
H2107 H 0.51952 0.67117 0.45867 0.0
H2108 H 0.5246 0.5777 0.47892 0.0
H2109 H 0.52336 0.60911 0.46775 0.0
H2110 H 0.46435 0.61661 0.45599 0.0
C2111 C 0.49721 0.69542 0.44265 0.0
C2112 C 0.50727 0.65951 0.4583 0.0
C2113 C 0.49709 0.71031 0.43109 0.0
C2114 C 0.51207 0.58394 0.48111 0.0
C2115 C 0.51139 0.60199 0.47479 0.0
C2116 C 0.47637 0.6286 0.45704 0.0
C2117 C 0.48971 0.67593 0.43558 0.0
C2118 C 0.4906 0.65993 0.44742 0.0
C2119 C 0.49499 0.6101 0.47647 0.0
C2120 C 0.49323 0.62784 0.46745 0.0
H2121 H 0.47591 0.68269 0.3908 0.0
H2122 H 0.47617 0.65675 0.41091 0.0
H2123 H 0.46197 0.64449 0.43906 0.0
H2124 H 0.46806 0.57483 0.49816 0.0
H2125 H 0.46702 0.60636 0.48735 0.0
C2126 C 0.59914 0.30612 0.65208 0.0
C2127 C 0.58515 0.31515 0.66033 0.0
C2128 C 0.61638 0.30675 0.66215 0.0
C2129 C 0.63618 0.31385 0.71194 0.0
H2130 H 0.68186 0.30574 0.68784 0.0
C2131 C 0.70455 0.30362 0.75275 0.0
C2132 C 0.70938 0.28552 0.74696 0.0
C2133 C 0.69116 0.31063 0.74194 0.0
C2134 C 0.66921 0.30815 0.69471 0.0
H2135 H 0.5787 0.3333 0.68478 0.0
H2136 H 0.6092 0.33544 0.70197 0.0
H2137 H 0.65575 0.31376 0.66906 0.0
H2138 H 0.70365 0.26028 0.72577 0.0
H2139 H 0.68095 0.27298 0.70636 0.0
H2140 H 0.64992 0.30843 0.73762 0.0
C2141 C 0.60663 0.32706 0.68811 0.0
C2142 C 0.65419 0.31259 0.68398 0.0
C2143 C 0.58921 0.32603 0.67822 0.0
C2144 C 0.70067 0.27456 0.73019 0.0
C2145 C 0.68763 0.28176 0.71917 0.0
C2146 C 0.65137 0.30985 0.72271 0.0
C2147 C 0.62016 0.31679 0.68054 0.0
C2148 C 0.63724 0.31495 0.69234 0.0
C2149 C 0.68268 0.29977 0.72503 0.0
C2150 C 0.66777 0.30648 0.71408 0.0
H2151 H 0.59633 0.29754 0.63832 0.0
H2152 H 0.62623 0.29842 0.65585 0.0
H2153 H 0.62333 0.31515 0.7189 0.0
H2154 H 0.71102 0.31231 0.76568 0.0
H2155 H 0.68742 0.32451 0.74675 0.0
C2156 C -0.00326 0.33277 0.88798 0.0
C2157 C 0.98971 0.3146 0.89415 0.0
C2158 C -0.00353 0.35007 0.89952 0.0
C2159 C 0.97345 0.37114 0.93965 0.0
H2160 H 0.01894 0.41128 0.94454 0.0
C2161 C 0.00811 0.44939 0.98656 0.0
C2162 C -0.00659 0.45987 0.98454 0.0
C2163 C 0.00677 0.43083 0.9768 0.0
C2164 C 0.00618 0.40016 0.94345 0.0
H2165 H 0.97656 0.30038 0.91721 0.0
H2166 H 0.97608 0.33068 0.93735 0.0
H2167 H 0.01834 0.38062 0.92477 0.0
H2168 H 0.96539 0.45864 0.97132 0.0
H2169 H 0.9631 0.42614 0.95422 0.0
H2170 H 0.96132 0.39081 0.95839 0.0
C2171 C 0.98174 0.33147 0.92354 0.0
C2172 C 0.00577 0.38269 0.93196 0.0
C2173 C 0.98213 0.31413 0.91204 0.0
C2174 C 0.97698 0.451 0.97316 0.0
C2175 C 0.97563 0.43235 0.96342 0.0
C2176 C 0.97381 0.38873 0.95106 0.0
C2177 C 0.98907 0.3496 0.91746 0.0
C2178 C 0.9894 0.36802 0.92989 0.0
C2179 C -0.00931 0.42227 0.96483 0.0
C2180 C 0.9902 0.40341 0.95308 0.0
H2181 H 0.00263 0.33368 0.87427 0.0
H2182 H 0.002 0.36385 0.89437 0.0
H2183 H 0.96061 0.36012 0.93822 0.0
H2184 H 0.02091 0.45568 -0.00468 0.0
H2185 H 0.01847 0.42328 0.97841 0.0
C2186 C 0.96798 0.7962 0.17851 0.0
C2187 C 0.98103 0.786 0.18609 0.0
C2188 C 0.95103 0.79722 0.18707 0.0
C2189 C 0.92767 0.79048 0.23207 0.0
H2190 H 0.88179 0.78671 0.20011 0.0
C2191 C 0.85176 0.77505 0.25828 0.0
C2192 C 0.83866 0.78535 0.251 0.0
C2193 C 0.86996 0.77701 0.25168 0.0
C2194 C 0.89453 0.78804 0.20923 0.0
H2195 H 0.98643 0.76869 0.20853 0.0
H2196 H 0.95666 0.77003 0.22316 0.0
H2197 H 0.91168 0.78582 0.18563 0.0
H2198 H 0.83443 0.80641 0.23182 0.0
H2199 H 0.86621 0.80982 0.22027 0.0
H2200 H 0.91024 0.79216 0.25565 0.0
C2201 C 0.9597 0.77764 0.21085 0.0
C2202 C 0.91168 0.78755 0.20093 0.0
C2203 C 0.97672 0.77675 0.20238 0.0
C2204 C 0.84426 0.79825 0.23762 0.0
C2205 C 0.86239 0.80011 0.23093 0.0
C2206 C 0.91045 0.79081 0.24036 0.0
C2207 C 0.94666 0.78792 0.20333 0.0
C2208 C 0.92847 0.78873 0.21224 0.0
C2209 C 0.87528 0.7892 0.2376 0.0
C2210 C 0.89372 0.78958 0.22901 0.0
H2211 H 0.97093 0.80362 0.16607 0.0
H2212 H 0.94146 0.80552 0.18106 0.0
H2213 H 0.94037 0.79174 0.24121 0.0
H2214 H 0.84774 0.76499 0.2686 0.0
H2215 H 0.87957 0.76835 0.25699 0.0
C2216 C 0.491 0.31613 0.07087 0.0
C2217 C 0.49561 0.31795 0.09047 0.0
C2218 C 0.49223 0.33273 0.06136 0.0
C2219 C 0.5161 0.38406 0.06479 0.0
H2220 H 0.47481 0.39018 0.0305 0.0
C2221 C 0.5108 0.45813 0.03962 0.0
C2222 C 0.50296 0.45866 0.02129 0.0
C2223 C 0.51091 0.44035 0.0467 0.0
C2224 C 0.48664 0.38858 0.03975 0.0
H2225 H 0.50501 0.3386 0.11547 0.0
H2226 H 0.50727 0.3675 0.09884 0.0
H2227 H 0.47278 0.3602 0.04544 0.0
H2228 H 0.48961 0.44081 -0.00422 0.0
H2229 H 0.4902 0.40973 0.00799 0.0
H2230 H 0.53007 0.41229 0.05911 0.0
C2231 C 0.50278 0.35325 0.09083 0.0
C2232 C 0.48542 0.37142 0.04836 0.0
C2233 C 0.50136 0.33669 0.10036 0.0
C2234 C 0.49569 0.44094 0.00999 0.0
C2235 C 0.49591 0.42311 0.01705 0.0
C2236 C 0.51741 0.40112 0.05607 0.0
C2237 C 0.4983 0.35145 0.07122 0.0
C2238 C 0.50001 0.36912 0.0612 0.0
C2239 C 0.50331 0.4226 0.03559 0.0
C2240 C 0.50256 0.40376 0.04367 0.0
H2241 H 0.48652 0.30188 0.06286 0.0
H2242 H 0.48876 0.33092 0.04623 0.0
H2243 H 0.52772 0.38254 0.07438 0.0
H2244 H 0.51645 0.47146 0.04878 0.0
H2245 H 0.51645 0.44059 0.06114 0.0
C2246 C 0.95787 0.27812 0.37153 0.0
C2247 C 0.97362 0.28704 0.36247 0.0
C2248 C 0.93963 0.28075 0.36624 0.0
C2249 C 0.91258 0.29354 0.32593 0.0
H2250 H 0.87553 0.30169 0.36248 0.0
C2251 C 0.84057 0.30844 0.30153 0.0
C2252 C 0.82485 0.29712 0.30861 0.0
C2253 C 0.8587 0.30975 0.30999 0.0
C2254 C 0.88572 0.29935 0.35212 0.0
H2255 H 0.98257 0.30612 0.34108 0.0
H2256 H 0.95096 0.31076 0.33207 0.0
H2257 H 0.90733 0.29828 0.37351 0.0
H2258 H 0.81542 0.27926 0.3307 0.0
H2259 H 0.84715 0.28133 0.34539 0.0
H2260 H 0.89109 0.2943 0.30454 0.0
C2261 C 0.95261 0.30149 0.34302 0.0
C2262 C 0.90388 0.29734 0.35843 0.0
C2263 C 0.97077 0.29886 0.34825 0.0
C2264 C 0.82735 0.2881 0.32498 0.0
C2265 C 0.84551 0.28934 0.33342 0.0
C2266 C 0.8945 0.29554 0.31966 0.0
C2267 C 0.93682 0.29232 0.3518 0.0
C2268 C 0.91749 0.29444 0.34537 0.0
C2269 C 0.86143 0.29966 0.32563 0.0
C2270 C 0.88086 0.29849 0.33265 0.0
H2271 H 0.95959 0.26896 0.38256 0.0
H2272 H 0.92769 0.27337 0.37316 0.0
H2273 H 0.92261 0.29092 0.31549 0.0
H2274 H 0.83898 0.31565 0.28899 0.0
H2275 H 0.87065 0.31815 0.30391 0.0
C2276 C 0.97788 0.68074 0.59603 0.0
C2277 C 0.98366 0.69946 0.59051 0.0
C2278 C 0.97547 0.66423 0.58275 0.0
C2279 C -0.00582 0.64643 0.53954 0.0
H2280 H 0.95177 0.60308 0.53795 0.0
C2281 C -0.00712 0.57396 0.49229 0.0
C2282 C 0.98592 0.55681 0.50026 0.0
C2283 C -0.00948 0.59207 0.50107 0.0
C2284 C 0.96382 0.61497 0.53833 0.0
H2285 H -0.00904 0.71561 0.56667 0.0
H2286 H 0.98714 0.68651 0.54343 0.0
H2287 H 0.95102 0.63366 0.55742 0.0
H2288 H 0.97034 0.54494 0.52309 0.0
H2289 H 0.96702 0.57644 0.53894 0.0
H2290 H 0.0075 0.62757 0.52133 0.0
C2291 C 0.98435 0.68476 0.55805 0.0
C2292 C 0.96329 0.63251 0.54938 0.0
C2293 C 0.98643 0.70136 0.57131 0.0
C2294 C 0.97614 0.55799 0.51684 0.0
C2295 C 0.97398 0.57607 0.52575 0.0
C2296 C -0.00516 0.62879 0.52869 0.0
C2297 C 0.97907 0.66604 0.56373 0.0
C2298 C 0.97859 0.6483 0.55031 0.0
C2299 C 0.98126 0.59339 0.51806 0.0
C2300 C 0.9798 0.61271 0.5282 0.0
H2301 H 0.97558 0.67883 0.61071 0.0
H2302 H 0.97154 0.64996 0.58754 0.0
H2303 H 0.00627 0.65832 0.5402 0.0
H2304 H 0.00038 0.57341 0.47942 0.0
H2305 H -0.00398 0.60504 0.49454 0.0
C2306 C 0.58876 0.75353 0.86985 0.0
C2307 C 0.57072 0.75243 0.86095 0.0
C2308 C 0.60469 0.75456 0.85917 0.0
C2309 C 0.61999 0.74563 0.81069 0.0
H2310 H 0.66438 0.78424 0.82995 0.0
C2311 C 0.69355 0.74918 0.78052 0.0
C2312 C 0.70487 0.76765 0.77969 0.0
C2313 C 0.67614 0.74744 0.78872 0.0
C2314 C 0.65202 0.77355 0.82428 0.0
H2315 H 0.5551 0.75073 0.83384 0.0
H2316 H 0.58289 0.75255 0.81526 0.0
H2317 H 0.63628 0.78008 0.84816 0.0
H2318 H 0.7063 0.79884 0.78596 0.0
H2319 H 0.67578 0.79577 0.80019 0.0
H2320 H 0.63574 0.73922 0.78673 0.0
C2321 C 0.58474 0.75257 0.83045 0.0
C2322 C 0.63603 0.77096 0.83484 0.0
C2323 C 0.56883 0.75161 0.84112 0.0
C2324 C 0.69797 0.78439 0.78644 0.0
C2325 C 0.68056 0.78264 0.79471 0.0
C2326 C 0.63602 0.74817 0.80015 0.0
C2327 C 0.60287 0.75441 0.8394 0.0
C2328 C 0.61988 0.75692 0.8282 0.0
C2329 C 0.66966 0.76413 0.7963 0.0
C2330 C 0.65223 0.76212 0.80686 0.0
H2331 H 0.59065 0.75411 0.8851 0.0
H2332 H 0.61847 0.75565 0.86642 0.0
H2333 H 0.60777 0.73464 0.80525 0.0
H2334 H 0.69838 0.73597 0.77538 0.0
H2335 H 0.66814 0.73298 0.78984 0.0
C2336 C 0.4178 0.55803 0.67916 0.0
C2337 C 0.39871 0.54912 0.67993 0.0
C2338 C 0.42633 0.55798 0.66189 0.0
C2339 C 0.42442 0.52779 0.61751 0.0
H2340 H 0.45552 0.57268 0.59969 0.0
C2341 C 0.46224 0.51976 0.54835 0.0
C2342 C 0.48034 0.53118 0.5477 0.0
C2343 C 0.45097 0.52338 0.56332 0.0
C2344 C 0.4471 0.55994 0.60457 0.0
H2345 H 0.37342 0.53379 0.66319 0.0
H2346 H 0.38851 0.53328 0.63305 0.0
H2347 H 0.43821 0.57701 0.62814 0.0
H2348 H 0.50102 0.55519 0.56222 0.0
H2349 H 0.48185 0.56091 0.58888 0.0
H2350 H 0.43392 0.51047 0.5948 0.0
C2351 C 0.39676 0.54041 0.64581 0.0
C2352 C 0.43709 0.56248 0.62078 0.0
C2353 C 0.38813 0.54077 0.66303 0.0
C2354 C 0.48705 0.54623 0.56233 0.0
C2355 C 0.47594 0.54962 0.57752 0.0
C2356 C 0.43467 0.52517 0.60155 0.0
C2357 C 0.41601 0.54872 0.64516 0.0
C2358 C 0.42571 0.54641 0.6274 0.0
C2359 C 0.45775 0.53819 0.57827 0.0
C2360 C 0.44623 0.54119 0.59487 0.0
H2361 H 0.42626 0.56463 0.69199 0.0
H2362 H 0.44122 0.56439 0.66174 0.0
H2363 H 0.41596 0.51512 0.62253 0.0
H2364 H 0.45684 0.50788 0.53741 0.0
H2365 H 0.43696 0.51446 0.56316 0.0
C2366 C 0.7852 0.21535 0.9717 0.0
C2367 C 0.78524 0.19536 0.96736 0.0
C2368 C 0.78686 0.22768 0.95744 0.0
C2369 C 0.79835 0.23057 0.90728 0.0
H2370 H 0.75839 0.26077 0.90606 0.0
C2371 C 0.78275 0.26659 0.84143 0.0
C2372 C 0.76353 0.26311 0.83513 0.0
C2373 C 0.78807 0.26324 0.85969 0.0
C2374 C 0.76965 0.25247 0.90623 0.0
H2375 H 0.78836 0.17286 0.94501 0.0
H2376 H 0.79109 0.19424 0.92018 0.0
H2377 H 0.76439 0.24531 0.93422 0.0
H2378 H 0.73475 0.25431 0.84302 0.0
H2379 H 0.74399 0.24795 0.87485 0.0
H2380 H 0.80282 0.2366 0.87888 0.0
C2381 C 0.7899 0.20049 0.93456 0.0
C2382 C 0.77327 0.24382 0.92245 0.0
C2383 C 0.78821 0.18819 0.94878 0.0
C2384 C 0.74966 0.2571 0.84761 0.0
C2385 C 0.75498 0.2536 0.86586 0.0
C2386 C 0.7947 0.23915 0.89105 0.0
C2387 C 0.78867 0.22024 0.93862 0.0
C2388 C 0.78726 0.23227 0.92291 0.0
C2389 C 0.77428 0.25618 0.87193 0.0
C2390 C 0.77994 0.24971 0.89014 0.0
H2391 H 0.78304 0.22132 0.98594 0.0
H2392 H 0.78611 0.24289 0.96102 0.0
H2393 H 0.80938 0.22196 0.90731 0.0
H2394 H 0.79373 0.27139 0.83208 0.0
H2395 H 0.80302 0.2657 0.86403 0.0
C2396 C 0.07086 0.45235 0.1739 0.0
C2397 C 0.08991 0.4615 0.17806 0.0
C2398 C 0.06199 0.45283 0.15616 0.0
C2399 C 0.06273 0.4877 0.12406 0.0
H2400 H 0.03014 0.4481 0.08905 0.0
C2401 C 0.02591 0.50916 0.05936 0.0
C2402 C 0.00767 0.49905 0.0531 0.0
C2403 C 0.03653 0.50232 0.07301 0.0
C2404 C 0.03899 0.45933 0.09884 0.0
H2405 H 0.11512 0.4767 0.16647 0.0
H2406 H 0.09943 0.47796 0.13561 0.0
H2407 H 0.04846 0.43837 0.11506 0.0
H2408 H 0.98581 0.47419 0.05655 0.0
H2409 H 0.00395 0.46275 0.08156 0.0
H2410 H 0.05265 0.50876 0.10906 0.0
C2411 C 0.09145 0.47036 0.14606 0.0
C2412 C 0.04959 0.45372 0.11354 0.0
C2413 C 0.10039 0.46964 0.16369 0.0
C2414 C -7e-05 0.48218 0.06113 0.0
C2415 C 0.01042 0.47553 0.07525 0.0
C2416 C 0.05191 0.4933 0.10973 0.0
C2417 C 0.07203 0.46266 0.14247 0.0
C2418 C 0.06163 0.46791 0.12612 0.0
C2419 C 0.02887 0.48557 0.08136 0.0
C2420 C 0.04002 0.47923 0.0968 0.0
H2421 H 0.06251 0.44581 0.1847 0.0
H2422 H 0.04697 0.44689 0.15369 0.0
H2423 H 0.07154 0.4989 0.13394 0.0
H2424 H 0.03202 0.5225 0.05375 0.0
H2425 H 0.05079 0.51026 0.07699 0.0
C2426 C 0.73081 0.8684 0.44612 0.0
C2427 C 0.73618 0.86187 0.46318 0.0
C2428 C 0.73338 0.85835 0.42872 0.0
C2429 C 0.76145 0.82455 0.40615 0.0
H2430 H 0.72234 0.81743 0.36541 0.0
C2431 C 0.77304 0.80045 0.32745 0.0
C2432 C 0.7579 0.78769 0.31689 0.0
C2433 C 0.77084 0.80818 0.34602 0.0
C2434 C 0.73335 0.81913 0.37668 0.0
H2435 H 0.74836 0.83948 0.47527 0.0
H2436 H 0.75275 0.82186 0.44479 0.0
H2437 H 0.71706 0.83303 0.39641 0.0
H2438 H 0.72891 0.77228 0.31796 0.0
H2439 H 0.72522 0.78555 0.35019 0.0
H2440 H 0.77769 0.8105 0.38633 0.0
C2441 C 0.74669 0.83489 0.44495 0.0
C2442 C 0.7304 0.82827 0.39439 0.0
C2443 C 0.74403 0.84491 0.46241 0.0
C2444 C 0.74081 0.78226 0.32555 0.0
C2445 C 0.73864 0.78994 0.34404 0.0
C2446 C 0.76444 0.81545 0.38836 0.0
C2447 C 0.74144 0.84155 0.42791 0.0
C2448 C 0.74443 0.83117 0.40931 0.0
C2449 C 0.75348 0.80328 0.35437 0.0
C2450 C 0.75042 0.81266 0.37342 0.0
H2451 H 0.72477 0.88144 0.44616 0.0
H2452 H 0.72939 0.864 0.41586 0.0
H2453 H 0.77261 0.82673 0.41733 0.0
H2454 H 0.78639 0.80492 0.3212 0.0
H2455 H 0.78251 0.81851 0.35359 0.0
C2456 C 0.41228 0.52994 0.79831 0.0
C2457 C 0.41442 0.51748 0.78211 0.0
C2458 C 0.41768 0.52571 0.81631 0.0
C2459 C 0.446 0.49427 0.83989 0.0
H2460 H 0.42037 0.51068 0.8838 0.0
C2461 C 0.47723 0.49382 0.91526 0.0
C2462 C 0.46521 0.49158 0.93019 0.0
C2463 C 0.46991 0.49489 0.89703 0.0
C2464 C 0.42748 0.50563 0.87168 0.0
H2465 H 0.4232 0.49051 0.772 0.0
H2466 H 0.43161 0.48258 0.80317 0.0
H2467 H 0.40944 0.5166 0.85258 0.0
H2468 H 0.43603 0.48769 0.93774 0.0
H2469 H 0.42297 0.48851 0.90557 0.0
H2470 H 0.46336 0.48235 0.85876 0.0
C2471 C 0.42666 0.4961 0.80217 0.0
C2472 C 0.42144 0.50941 0.85374 0.0
C2473 C 0.42173 0.50059 0.78423 0.0
C2474 C 0.44559 0.48945 0.92642 0.0
C2475 C 0.43817 0.49016 0.90804 0.0
C2476 C 0.45174 0.4901 0.85773 0.0
C2477 C 0.42489 0.50866 0.8185 0.0
C2478 C 0.43079 0.50404 0.83761 0.0
C2479 C 0.4503 0.49334 0.89317 0.0
C2480 C 0.44284 0.49606 0.87395 0.0
H2481 H 0.40667 0.54307 0.79705 0.0
H2482 H 0.41641 0.53596 0.82844 0.0
H2483 H 0.45382 0.49011 0.82797 0.0
H2484 H 0.49245 0.49568 0.9178 0.0
H2485 H 0.47981 0.49774 0.88618 0.0
C2486 C 0.75901 0.16655 0.08918 0.0
C2487 C 0.76793 0.17337 0.07335 0.0
C2488 C 0.7616 0.17811 0.10661 0.0
C2489 C 0.77429 0.22902 0.12811 0.0
H2490 H 0.77835 0.2048 0.17424 0.0
C2491 C 0.78299 0.27032 0.20479 0.0
C2492 C 0.77112 0.26098 0.21756 0.0
C2493 C 0.78405 0.261 0.18656 0.0
C2494 C 0.77718 0.21174 0.16146 0.0
H2495 H 0.7868 0.19764 0.06349 0.0
H2496 H 0.79143 0.21779 0.0941 0.0
H2497 H 0.77843 0.18557 0.14369 0.0
H2498 H 0.75048 0.23508 0.22118 0.0
H2499 H 0.75227 0.21898 0.18956 0.0
H2500 H 0.77286 0.25519 0.14609 0.0
C2501 C 0.78229 0.20355 0.0929 0.0
C2502 C 0.7772 0.20075 0.14399 0.0
C2503 C 0.77972 0.19195 0.07542 0.0
C2504 C 0.75984 0.24259 0.21166 0.0
C2505 C 0.76096 0.2333 0.19361 0.0
C2506 C 0.77435 0.24009 0.14567 0.0
C2507 C 0.7732 0.19676 0.10865 0.0
C2508 C 0.77528 0.20912 0.12712 0.0
C2509 C 0.77335 0.2422 0.18102 0.0
C2510 C 0.77531 0.23138 0.16246 0.0
H2511 H 0.74979 0.15235 0.08809 0.0
H2512 H 0.75415 0.17258 0.11841 0.0
H2513 H 0.77269 0.23584 0.11533 0.0
H2514 H 0.79179 0.28454 0.20903 0.0
H2515 H 0.79368 0.26816 0.17706 0.0
C2516 C 0.0701 0.46653 0.29364 0.0
C2517 C 0.06143 0.47602 0.28027 0.0
C2518 C 0.06185 0.46317 0.31065 0.0
C2519 C 0.01727 0.46211 0.33511 0.0
H2520 H 0.05148 0.47524 0.38016 0.0
C2521 C -0.00577 0.48272 0.40998 0.0
C2522 C 0.00431 0.47777 0.42547 0.0
C2523 C -0.0007 0.47804 0.39157 0.0
C2524 C 0.04174 0.47111 0.36773 0.0
H2525 H 0.03707 0.48904 0.2741 0.0
H2526 H 0.0229 0.48355 0.30401 0.0
H2527 H 0.06425 0.47587 0.34919 0.0
H2528 H 0.02645 0.46273 0.43403 0.0
H2529 H 0.03512 0.45428 0.40186 0.0
H2530 H -0.0053 0.45798 0.35385 0.0
C2531 C 0.03591 0.47842 0.30118 0.0
C2532 C 0.04907 0.4715 0.34995 0.0
C2533 C 0.04412 0.48171 0.28411 0.0
C2534 C 0.01861 0.46689 0.42228 0.0
C2535 C 0.02361 0.46213 0.4039 0.0
C2536 C 0.00991 0.46175 0.35295 0.0
C2537 C 0.0448 0.4693 0.31471 0.0
C2538 C 0.03692 0.46727 0.33345 0.0
C2539 C 0.01447 0.46828 0.38842 0.0
C2540 C 0.02208 0.4665 0.36944 0.0
H2541 H 0.08334 0.46177 0.29103 0.0
H2542 H 0.06889 0.45586 0.32069 0.0
H2543 H 0.00758 0.45853 0.32262 0.0
H2544 H 0.98313 0.4911 0.41212 0.0
H2545 H -0.00793 0.48309 0.37995 0.0
C2546 C 0.75455 0.86067 0.59347 0.0
C2547 C 0.74344 0.85101 0.57733 0.0
C2548 C 0.75486 0.85186 0.61015 0.0
C2549 C 0.74276 0.80425 0.6294 0.0
H2550 H 0.74365 0.83728 0.67687 0.0
C2551 C 0.73266 0.77304 0.70102 0.0
C2552 C 0.74621 0.78185 0.71568 0.0
C2553 C 0.73138 0.78162 0.68426 0.0
C2554 C 0.74349 0.8279 0.66373 0.0
H2555 H 0.7242 0.82437 0.56587 0.0
H2556 H 0.7244 0.8091 0.5951 0.0
H2557 H 0.74371 0.85155 0.64711 0.0
H2558 H 0.76871 0.80672 0.72456 0.0
H2559 H 0.76624 0.82189 0.69547 0.0
H2560 H 0.74229 0.78057 0.64615 0.0
C2561 C 0.73315 0.82337 0.59481 0.0
C2562 C 0.74362 0.83607 0.64666 0.0
C2563 C 0.73298 0.83213 0.57806 0.0
C2564 C 0.75802 0.7997 0.71356 0.0
C2565 C 0.75662 0.80837 0.6969 0.0
C2566 C 0.74245 0.79606 0.64648 0.0
C2567 C 0.74391 0.83324 0.61115 0.0
C2568 C 0.74343 0.82439 0.62928 0.0
C2569 C 0.74349 0.79926 0.68197 0.0
C2570 C 0.74295 0.80782 0.66382 0.0
H2571 H 0.76288 0.87518 0.59332 0.0
H2572 H 0.76366 0.85971 0.62229 0.0
H2573 H 0.74285 0.79485 0.61633 0.0
H2574 H 0.72336 0.75928 0.70229 0.0
H2575 H 0.721 0.77439 0.67305 0.0
C2576 C 0.6628 0.41286 0.52259 0.0
C2577 C 0.68181 0.4202 0.52889 0.0
C2578 C 0.64999 0.4255 0.52175 0.0
C2579 C 0.63235 0.46512 0.53875 0.0
H2580 H 0.62776 0.48225 0.48893 0.0
C2581 C 0.58123 0.51608 0.52312 0.0
C2582 C 0.56963 0.51004 0.50639 0.0
C2583 C 0.59736 0.50814 0.52626 0.0
C2584 C 0.62884 0.47758 0.5029 0.0
H2585 H 0.70208 0.44618 0.54034 0.0
H2586 H 0.67945 0.46819 0.53909 0.0
H2587 H 0.6501 0.46098 0.49518 0.0
H2588 H 0.56626 0.492 0.47934 0.0
H2589 H 0.59411 0.4779 0.48489 0.0
H2590 H 0.6106 0.48093 0.5464 0.0
C2591 C 0.67466 0.45274 0.53468 0.0
C2592 C 0.64163 0.4655 0.50644 0.0
C2593 C 0.68752 0.44016 0.53536 0.0
C2594 C 0.57501 0.49691 0.49236 0.0
C2595 C 0.59103 0.4889 0.49553 0.0
C2596 C 0.61944 0.47711 0.53521 0.0
C2597 C 0.65599 0.44551 0.52745 0.0
C2598 C 0.64324 0.45904 0.52428 0.0
C2599 C 0.60208 0.49398 0.51275 0.0
C2600 C 0.61733 0.48323 0.51714 0.0
H2601 H 0.65804 0.39757 0.51746 0.0
H2602 H 0.63557 0.41979 0.51609 0.0
H2603 H 0.6335 0.4602 0.55261 0.0
H2604 H 0.57739 0.52627 0.53412 0.0
H2605 H 0.6058 0.51263 0.53952 0.0
C2606 C 0.18993 0.09633 0.46394 0.0
C2607 C 0.1941 0.11633 0.47055 0.0
C2608 C 0.17166 0.08555 0.46461 0.0
C2609 C 0.13078 0.0846 0.49265 0.0
H2610 H 0.10406 0.04729 0.45181 0.0
C2611 C 0.05366 0.04582 0.49697 0.0
C2612 C 0.04792 0.02667 0.48809 0.0
C2613 C 0.07178 0.05626 0.49494 0.0
C2614 C 0.11147 0.0574 0.46346 0.0
H2615 H 0.18227 0.14094 0.48224 0.0
H2616 H 0.15031 0.12198 0.48361 0.0
H2617 H 0.13468 0.06714 0.44671 0.0
H2618 H 0.05677 0.00303 0.47087 0.0
H2619 H 0.08879 0.02108 0.46779 0.0
H2620 H 0.108 0.07464 0.50962 0.0
C2621 C 0.16124 0.1147 0.47796 0.0
C2622 C 0.12891 0.06886 0.46047 0.0
C2623 C 0.17947 0.12555 0.47705 0.0
C2624 C 0.06085 0.01783 0.47777 0.0
C2625 C 0.0791 0.02824 0.47587 0.0
C2626 C 0.11348 0.073 0.49573 0.0
C2627 C 0.1573 0.09453 0.47211 0.0
C2628 C 0.13864 0.08265 0.475 0.0
C2629 C 0.08466 0.04771 0.48417 0.0
C2630 C 0.10353 0.05935 0.48114 0.0
H2631 H 0.20094 0.08887 0.45881 0.0
H2632 H 0.16899 0.07001 0.46008 0.0
H2633 H 0.13819 0.09487 0.5042 0.0
H2634 H 0.04395 0.05301 0.505 0.0
H2635 H 0.07543 0.07128 0.50132 0.0
C2636 C 0.18207 0.95592 0.77394 0.0
C2637 C 0.16237 0.95213 0.76971 0.0
C2638 C 0.1922 0.94067 0.77256 0.0
C2639 C 0.19015 0.89158 0.74821 0.0
H2640 H 0.22527 0.88524 0.78891 0.0
C2641 C 0.21784 0.82018 0.75184 0.0
C2642 C 0.23618 0.82093 0.75991 0.0
C2643 C 0.21023 0.83709 0.75194 0.0
C2644 C 0.2158 0.88697 0.77723 0.0
H2645 H 0.13783 0.92937 0.76088 0.0
H2646 H 0.15552 0.90288 0.75831 0.0
H2647 H 0.20941 0.91318 0.79162 0.0
H2648 H 0.26121 0.84025 0.77372 0.0
H2649 H 0.24813 0.86987 0.77341 0.0
H2650 H 0.19656 0.86558 0.73368 0.0
C2651 C 0.16313 0.91762 0.76265 0.0
C2652 C 0.20666 0.90295 0.77885 0.0
C2653 C 0.15299 0.93279 0.76426 0.0
C2654 C 0.24699 0.83913 0.76748 0.0
C2655 C 0.23942 0.85611 0.76743 0.0
C2656 C 0.19943 0.87574 0.74648 0.0
C2657 C 0.18285 0.92141 0.76665 0.0
C2658 C 0.19351 0.90522 0.76449 0.0
C2659 C 0.22082 0.85526 0.75994 0.0
C2660 C 0.21214 0.87302 0.76111 0.0
H2661 H 0.18969 0.97068 0.77817 0.0
H2662 H 0.20741 0.94399 0.77568 0.0
H2663 H 0.18031 0.89316 0.73677 0.0
H2664 H 0.20904 0.80641 0.74597 0.0
H2665 H 0.19577 0.83576 0.7463 0.0
C2666 C 0.29296 0.94224 0.99226 0.0
C2667 C 0.28503 0.92548 0.00045 0.0
C2668 C 0.31255 0.9479 0.99203 0.0
C2669 C 0.35371 0.95031 0.98393 0.0
H2670 H 0.38526 0.94979 0.02941 0.0
C2671 C 0.43492 0.97068 0.98567 0.0
C2672 C 0.44389 0.98326 0.00148 0.0
C2673 C 0.41584 0.96202 0.98556 0.0
C2674 C 0.37661 0.95006 0.01663 0.0
H2675 H 0.29149 0.9014 0.01468 0.0
H2676 H 0.3258 0.91126 0.01412 0.0
H2677 H 0.35112 0.93785 0.02894 0.0
H2678 H 0.43988 -0.00366 0.02971 0.0
H2679 H 0.40649 0.9814 0.02936 0.0
H2680 H 0.37903 0.96309 0.9718 0.0
C2681 C 0.31679 0.9201 0.00806 0.0
C2682 C 0.35712 0.94304 0.0163 0.0
C2683 C 0.29715 0.91441 0.00829 0.0
C2684 C 0.43343 0.98671 0.0173 0.0
C2685 C 0.41432 0.97806 0.01717 0.0
C2686 C 0.37317 0.95732 0.98426 0.0
C2687 C 0.32467 0.93692 -5e-05 0.0
C2688 C 0.34546 0.94329 0.0 0.0
C2689 C 0.4053 0.96576 0.00122 0.0
C2690 C 0.38479 0.95743 0.00067 0.0
H2691 H 0.28404 0.95114 0.98614 0.0
H2692 H 0.31822 0.96109 0.98593 0.0
H2693 H 0.34509 0.95047 0.9711 0.0
H2694 H 0.44258 0.96757 0.97329 0.0
H2695 H 0.40932 0.95238 0.97318 0.0
C2696 C 0.82781 0.56775 0.77212 0.0
C2697 C 0.84721 0.57552 0.77623 0.0
C2698 C 0.81483 0.58015 0.77066 0.0
C2699 C 0.8137 0.62781 0.75662 0.0
H2700 H 0.76613 0.62553 0.78075 0.0
C2701 C 0.76363 0.68463 0.77615 0.0
C2702 C 0.76267 0.69246 0.75887 0.0
C2703 C 0.76958 0.66691 0.77694 0.0
C2704 C 0.7793 0.62616 0.7738 0.0
H2705 H 0.86805 0.60225 0.78328 0.0
H2706 H 0.8454 0.62381 0.78059 0.0
H2707 H 0.7862 0.6017 0.78648 0.0
H2708 H 0.76557 0.6874 0.72866 0.0
H2709 H 0.77609 0.65636 0.73004 0.0
H2710 H 0.80726 0.6524 0.74429 0.0
C2711 C 0.8403 0.60817 0.77833 0.0
C2712 C 0.79071 0.61258 0.77706 0.0
C2713 C 0.85322 0.59582 0.77996 0.0
C2714 C 0.76635 0.68168 0.74217 0.0
C2715 C 0.77239 0.66399 0.74297 0.0
C2716 C 0.80226 0.64117 0.7532 0.0
C2717 C 0.82113 0.60045 0.77312 0.0
C2718 C 0.80821 0.61366 0.76884 0.0
C2719 C 0.77473 0.65683 0.76047 0.0
C2720 C 0.78513 0.64073 0.76203 0.0
H2721 H 0.82277 0.55214 0.76926 0.0
H2722 H 0.80009 0.57391 0.76665 0.0
H2723 H 0.82702 0.62873 0.74991 0.0
H2724 H 0.76075 0.69267 0.78922 0.0
H2725 H 0.77139 0.66182 0.79063 0.0
C2726 C 0.7969 0.58207 0.00406 0.0
C2727 C 0.7954 0.59864 -0.00495 0.0
C2728 C 0.8131 0.57389 0.0028 0.0
C2729 C 0.86347 0.58518 -0.00718 0.0
H2730 H 0.85845 0.52885 0.9878 0.0
C2731 C 0.92792 0.54795 0.9845 0.0
C2732 C 0.92911 0.53353 -0.0035 0.0
C2733 C 0.91121 0.55511 0.98242 0.0
C2734 C 0.86005 0.5446 0.98928 0.0
H2735 H 0.80975 0.61961 0.9776 0.0
H2736 H 0.83801 0.60512 0.97521 0.0
H2737 H 0.83008 0.54325 0.98769 0.0
H2738 H 0.91376 0.51477 0.01524 0.0
H2739 H 0.88443 0.5273 0.01161 0.0
H2740 H 0.89345 0.5865 -0.00552 0.0
C2741 C 0.82672 0.59863 0.98346 0.0
C2742 C 0.84384 0.55285 0.98926 0.0
C2743 C 0.81051 0.6069 0.98478 0.0
C2744 C 0.91315 0.52589 0.0059 0.0
C2745 C 0.89638 0.533 0.00375 0.0
C2746 C 0.87969 0.57692 -0.00726 0.0
C2747 C 0.82815 0.582 0.99243 0.0
C2748 C 0.84537 0.57324 0.99128 0.0
C2749 C 0.89536 0.54792 0.99224 0.0
C2750 C 0.87813 0.55655 0.99118 0.0
H2751 H 0.78558 0.5754 0.01219 0.0
H2752 H 0.8139 0.56132 0.01019 0.0
H2753 H 0.86515 0.60092 -0.00535 0.0
H2754 H 0.94003 0.554 0.97702 0.0
H2755 H 0.91073 0.56641 0.97326 0.0
C2756 C 0.17228 0.06989 0.78136 0.0
C2757 C 0.15356 0.06746 0.77354 0.0
C2758 C 0.18468 0.08793 0.78201 0.0
C2759 C 0.19278 0.13083 0.75668 0.0
H2760 H 0.22198 0.15832 0.80179 0.0
C2761 C 0.2289 0.21071 0.7586 0.0
C2762 C 0.24693 0.21687 0.76791 0.0
C2763 C 0.21833 0.19229 0.76033 0.0
C2764 C 0.21413 0.1507 0.789 0.0
H2765 H 0.1331 0.0823 0.76081 0.0
H2766 H 0.1547 0.1134 0.7618 0.0
H2767 H 0.20233 0.12606 0.8031 0.0
H2768 H 0.26804 0.20877 0.78655 0.0
H2769 H 0.24973 0.17622 0.78921 0.0
H2770 H 0.20456 0.15506 0.74241 0.0
C2771 C 0.1598 0.10139 0.76733 0.0
C2772 C 0.20289 0.13227 0.78979 0.0
C2773 C 0.14741 0.08355 0.76687 0.0
C2774 C 0.25413 0.20435 0.77923 0.0
C2775 C 0.24361 0.18577 0.78083 0.0
C2776 C 0.20411 0.14906 0.75583 0.0
C2777 C 0.17861 0.10369 0.77462 0.0
C2778 C 0.19183 0.12238 0.77371 0.0
C2779 C 0.22565 0.17944 0.7712 0.0
C2780 C 0.21463 0.15944 0.77206 0.0
H2781 H 0.17744 0.05781 0.78666 0.0
H2782 H 0.19915 0.08937 0.7877 0.0
H2783 H 0.18465 0.12333 0.74399 0.0
H2784 H 0.22302 0.22005 0.74976 0.0
H2785 H 0.20439 0.18812 0.75306 0.0
C2786 C 0.37438 0.9527 0.24763 0.0
C2787 C 0.36718 0.96947 0.25364 0.0
C2788 C 0.36291 0.93421 0.24667 0.0
C2789 C 0.32009 0.90811 0.26602 0.0
H2790 H 0.32307 0.86788 0.22509 0.0
C2791 C 0.28871 0.82705 0.26932 0.0
C2792 C 0.27983 0.81593 0.25266 0.0
C2793 C 0.29836 0.84615 0.26891 0.0
C2794 C 0.32192 0.87901 0.23651 0.0
H2795 H 0.34216 0.97996 0.26297 0.0
H2796 H 0.32215 0.94773 0.26106 0.0
H2797 H 0.34165 0.90063 0.22483 0.0
H2798 H 0.27383 0.81633 0.22254 0.0
H2799 H 0.29053 0.84977 0.22191 0.0
H2800 H 0.3002 0.88658 0.27759 0.0
C2801 C 0.33674 0.94886 0.2574 0.0
C2802 C 0.33274 0.8977 0.23648 0.0
C2803 C 0.3482 0.96735 0.2584 0.0
C2804 C 0.2806 0.82444 0.23562 0.0
C2805 C 0.29025 0.84357 0.23523 0.0
C2806 C 0.30927 0.88944 0.26604 0.0
C2807 C 0.344 0.93208 0.25166 0.0
C2808 C 0.33204 0.91242 0.2513 0.0
C2809 C 0.29934 0.85458 0.25184 0.0
C2810 C 0.31018 0.87464 0.25137 0.0
H2811 H 0.38894 0.95381 0.2439 0.0
H2812 H 0.369 0.92154 0.24241 0.0
H2813 H 0.31938 0.91907 0.27775 0.0
H2814 H 0.28846 0.82095 0.28268 0.0
H2815 H 0.30544 0.85415 0.28191 0.0
C2816 C 0.49798 0.34581 0.6003 0.0
C2817 C 0.50999 0.33271 0.59528 0.0
C2818 C 0.49317 0.35811 0.58746 0.0
C2819 C 0.51266 0.38424 0.55004 0.0
H2820 H 0.46147 0.39134 0.53805 0.0
C2821 C 0.50063 0.44423 0.50516 0.0
C2822 C 0.48681 0.45493 0.51085 0.0
C2823 C 0.50137 0.42652 0.51212 0.0
C2824 C 0.47587 0.3897 0.54138 0.0
H2825 H 0.52612 0.3219 0.57281 0.0
H2826 H 0.51816 0.34389 0.55057 0.0
H2827 H 0.46664 0.36571 0.55727 0.0
H2828 H 0.4625 0.45535 0.52768 0.0
H2829 H 0.46431 0.425 0.54067 0.0
H2830 H 0.52218 0.40882 0.53544 0.0
C2831 C 0.51232 0.34442 0.56436 0.0
C2832 C 0.47877 0.37493 0.55228 0.0
C2833 C 0.51684 0.33187 0.57706 0.0
C2834 C 0.47322 0.44727 0.52298 0.0
C2835 C 0.47424 0.42979 0.53035 0.0
C2836 C 0.50981 0.39922 0.53951 0.0
C2837 C 0.50057 0.35773 0.56951 0.0
C2838 C 0.4972 0.37222 0.55681 0.0
C2839 C 0.48865 0.41942 0.52538 0.0
C2840 C 0.49139 0.40231 0.53517 0.0
H2841 H 0.49243 0.34669 0.61422 0.0
H2842 H 0.48422 0.36839 0.59178 0.0
H2843 H 0.52702 0.38257 0.55359 0.0
H2844 H 0.51112 0.44975 0.4956 0.0
H2845 H 0.51229 0.4187 0.50746 0.0
C2846 C 0.43268 0.74647 0.31432 0.0
C2847 C 0.43807 0.74357 0.33285 0.0
C2848 C 0.41405 0.74004 0.30702 0.0
C2849 C 0.36601 0.73144 0.32158 0.0
H2850 H 0.35471 0.71172 0.26849 0.0
C2851 C 0.30076 0.71752 0.25929 0.0
C2852 C 0.29549 0.73578 0.26272 0.0
C2853 C 0.31601 0.7133 0.2699 0.0
C2854 C 0.35748 0.71681 0.28344 0.0
H2855 H 0.42819 0.73128 0.35817 0.0
H2856 H 0.39529 0.72026 0.34539 0.0
H2857 H 0.38626 0.71289 0.28304 0.0
H2858 H 0.30205 0.764 0.27963 0.0
H2859 H 0.32836 0.75664 0.29823 0.0
H2860 H 0.33742 0.73608 0.32178 0.0
C2861 C 0.40565 0.72747 0.33656 0.0
C2862 C 0.37559 0.71764 0.29172 0.0
C2863 C 0.42444 0.73376 0.34385 0.0
C2864 C 0.30548 0.74961 0.27705 0.0
C2865 C 0.32055 0.74538 0.28772 0.0
C2866 C 0.34788 0.73064 0.31329 0.0
C2867 C 0.40029 0.73064 0.31809 0.0
C2868 C 0.38024 0.72573 0.31064 0.0
C2869 C 0.32615 0.72727 0.28413 0.0
C2870 C 0.3437 0.72407 0.29394 0.0
H2871 H 0.44283 0.75388 0.30542 0.0
H2872 H 0.41028 0.74301 0.29286 0.0
H2873 H 0.3692 0.73776 0.33619 0.0
H2874 H 0.29324 0.70662 0.24828 0.0
H2875 H 0.32004 0.69923 0.26684 0.0
C2876 C 0.02406 0.72697 0.10122 0.0
C2877 C 0.02872 0.72874 0.1208 0.0
C2878 C 0.02324 0.70922 0.09 0.0
C2879 C 0.03835 0.66134 0.08983 0.0
H2880 H -0.00096 0.64545 0.04924 0.0
C2881 C -0.00097 0.58741 0.03937 0.0
C2882 C 0.01472 0.57893 0.03477 0.0
C2883 C 0.00157 0.60621 0.04887 0.0
C2884 C 0.01003 0.64959 0.0606 0.0
H2885 H 0.03598 0.71318 0.14398 0.0
H2886 H 0.03396 0.68209 0.12454 0.0
H2887 H 0.00145 0.67675 0.06827 0.0
H2888 H 0.04545 0.5838 0.03621 0.0
H2889 H 0.0499 0.61688 0.05245 0.0
H2890 H 0.04635 0.63375 0.0827 0.0
C2891 C 0.03142 0.69453 0.11773 0.0
C2892 C 0.01158 0.66769 0.07137 0.0
C2893 C 0.03243 0.71233 0.12892 0.0
C2894 C 0.03305 0.58985 0.03964 0.0
C2895 C 0.0356 0.60878 0.04904 0.0
C2896 C 0.03669 0.64314 0.07916 0.0
C2897 C 0.02688 0.69276 0.09811 0.0
C2898 C 0.02567 0.67375 0.08623 0.0
C2899 C 0.01987 0.61714 0.05388 0.0
C2900 C 0.02239 0.63696 0.06452 0.0
H2901 H 0.02129 0.73938 0.09448 0.0
H2902 H 0.01999 0.7085 0.07491 0.0
H2903 H 0.04957 0.66565 0.10095 0.0
H2904 H 0.98469 0.57941 0.03596 0.0
H2905 H 0.98912 0.612 0.05266 0.0
C2906 C 0.04347 0.23745 0.83113 0.0
C2907 C 0.04309 0.24996 0.84783 0.0
C2908 C 0.06009 0.23817 0.82161 0.0
C2909 C 0.10184 0.27144 0.81206 0.0
H2910 H 0.12445 0.22604 0.79966 0.0
C2911 C 0.1757 0.27842 0.78349 0.0
C2912 C 0.17988 0.26319 0.771 0.0
C2913 C 0.15838 0.2764 0.7918 0.0
C2914 C 0.11814 0.23879 0.80265 0.0
H2915 H 0.05976 0.27285 0.86784 0.0
H2916 H 0.0888 0.2745 0.85079 0.0
H2917 H 0.09557 0.22292 0.81685 0.0
H2918 H 0.16919 0.23412 0.75686 0.0
H2919 H 0.13837 0.23081 0.77074 0.0
H2920 H 0.12378 0.28727 0.79743 0.0
C2921 C 0.07623 0.26403 0.84526 0.0
C2922 C 0.10171 0.237 0.81264 0.0
C2923 C 0.0597 0.26303 0.85502 0.0
C2924 C 0.16624 0.24606 0.76648 0.0
C2925 C 0.1487 0.24413 0.77459 0.0
C2926 C 0.11801 0.27317 0.80177 0.0
C2927 C 0.07649 0.25168 0.82844 0.0
C2928 C 0.09363 0.25338 0.81763 0.0
C2929 C 0.14466 0.25921 0.78755 0.0
C2930 C 0.12656 0.25694 0.79719 0.0
H2931 H 0.03086 0.22718 0.82535 0.0
H2932 H 0.05999 0.22857 0.80862 0.0
H2933 H 0.0956 0.28419 0.8155 0.0
H2934 H 0.18606 0.29173 0.78736 0.0
H2935 H 0.15604 0.28816 0.802 0.0
C2936 C 0.50859 0.71172 0.94195 0.0
C2937 C 0.50145 0.71229 0.92336 0.0
C2938 C 0.50411 0.69473 0.95077 0.0
C2939 C 0.4896 0.64163 0.93866 0.0
H2940 H 0.48363 0.64192 0.9926 0.0
C2941 C 0.47674 0.57031 0.97297 0.0
C2942 C 0.48801 0.57015 0.98959 0.0
C2943 C 0.47561 0.58785 0.96582 0.0
C2944 C 0.48535 0.64163 0.97753 0.0
H2945 H 0.48325 0.69581 0.89978 0.0
H2946 H 0.47518 0.66627 0.91528 0.0
H2947 H 0.48626 0.67238 0.9783 0.0
H2948 H 0.50629 0.58844 0.01215 0.0
H2949 H 0.50444 0.61906 -0.00046 0.0
H2950 H 0.48902 0.61102 0.9379 0.0
C2951 C 0.48456 0.67882 0.92291 0.0
C2952 C 0.48686 0.65906 0.96934 0.0
C2953 C 0.4891 0.69579 0.91406 0.0
C2954 C 0.49749 0.58803 -0.00069 0.0
C2955 C 0.49636 0.6056 0.99214 0.0
C2956 C 0.48805 0.62424 0.94684 0.0
C2957 C 0.49234 0.67795 0.94122 0.0
C2958 C 0.48922 0.6593 0.94983 0.0
C2959 C 0.48571 0.60566 0.9751 0.0
C2960 C 0.4861 0.62405 0.96639 0.0
H2961 H 0.51815 0.72419 0.9495 0.0
H2962 H 0.51051 0.69454 0.96479 0.0
H2963 H 0.49178 0.6413 0.92367 0.0
H2964 H 0.46908 0.55684 0.9652 0.0
H2965 H 0.46702 0.58743 0.95285 0.0
C2966 C 0.06806 0.76114 0.63546 0.0
C2967 C 0.05158 0.76123 0.64533 0.0
C2968 C 0.08433 0.75695 0.64436 0.0
C2969 C 0.10629 0.75571 0.69217 0.0
H2970 H 0.13813 0.72451 0.66534 0.0
C2971 C 0.16752 0.73225 0.73151 0.0
C2972 C 0.18507 0.73711 0.72362 0.0
C2973 C 0.15074 0.73226 0.7209 0.0
C2974 C 0.12934 0.73325 0.67296 0.0
H2975 H 0.03909 0.7567 0.67212 0.0
H2976 H 0.06711 0.74903 0.68739 0.0
H2977 H 0.10992 0.73127 0.64881 0.0
H2978 H 0.19892 0.74434 0.69815 0.0
H2979 H 0.16954 0.74427 0.67955 0.0
H2980 H 0.12559 0.75767 0.71628 0.0
C2981 C 0.06775 0.75263 0.67298 0.0
C2982 C 0.11328 0.73723 0.6635 0.0
C2983 C 0.05163 0.75696 0.66417 0.0
C2984 C 0.18553 0.74058 0.70455 0.0
C2985 C 0.16873 0.74049 0.6939 0.0
C2986 C 0.12218 0.7516 0.70162 0.0
C2987 C 0.08434 0.75267 0.66325 0.0
C2988 C 0.10157 0.74851 0.67302 0.0
C2989 C 0.15124 0.73703 0.7022 0.0
C2990 C 0.13387 0.74034 0.69214 0.0
H2991 H 0.06842 0.76437 0.62091 0.0
H2992 H 0.09695 0.75732 0.63654 0.0
H2993 H 0.09785 0.76481 0.69983 0.0
H2994 H 0.16679 0.72944 0.74616 0.0
H2995 H 0.1374 0.72923 0.72754 0.0
C2996 C 0.03958 0.33107 0.44171 0.0
C2997 C 0.04761 0.3302 0.42404 0.0
C2998 C 0.04159 0.34885 0.45324 0.0
C2999 C 0.04823 0.40099 0.44843 0.0
H3000 H 0.05259 0.40721 0.50334 0.0
C3001 C 0.04311 0.47398 0.49036 0.0
C3002 C 0.03104 0.47254 0.50526 0.0
C3003 C 0.04929 0.45746 0.48218 0.0
C3004 C 0.05132 0.40568 0.48801 0.0
H3005 H 0.06521 0.34709 0.40528 0.0
H3006 H 0.06883 0.37794 0.42545 0.0
H3007 H 0.05594 0.37625 0.48586 0.0
H3008 H 0.0162 0.45327 0.52379 0.0
H3009 H 0.02681 0.42425 0.50949 0.0
H3010 H 0.04292 0.43002 0.45044 0.0
C3011 C 0.06066 0.36498 0.43021 0.0
C3012 C 0.05325 0.38796 0.47801 0.0
C3013 C 0.05863 0.34725 0.41869 0.0
C3014 C 0.02577 0.45464 0.51245 0.0
C3015 C 0.0319 0.43809 0.50427 0.0
C3016 C 0.04625 0.41863 0.45839 0.0
C3017 C 0.0517 0.36609 0.44734 0.0
C3018 C 0.05147 0.38535 0.45811 0.0
C3019 C 0.04333 0.4392 0.48871 0.0
C3020 C 0.04749 0.42112 0.4783 0.0
H3021 H 0.03103 0.31821 0.44629 0.0
H3022 H 0.03442 0.34924 0.46631 0.0
H3023 H 0.04643 0.39935 0.43312 0.0
H3024 H 0.0472 0.48772 0.48459 0.0
H3025 H 0.05829 0.45887 0.4704 0.0
C3026 C 0.43877 0.24957 0.17924 0.0
C3027 C 0.44661 0.26166 0.16593 0.0
C3028 C 0.42389 0.25407 0.18965 0.0
C3029 C 0.38572 0.28257 0.19084 0.0
H3030 H 0.38619 0.27256 0.24345 0.0
C3031 C 0.32682 0.29805 0.23983 0.0
C3032 C 0.31884 0.28202 0.24908 0.0
C3033 C 0.34375 0.29813 0.23089 0.0
C3034 C 0.38588 0.27543 0.22879 0.0
H3035 H 0.44464 0.28777 0.15279 0.0
H3036 H 0.41861 0.29579 0.17123 0.0
H3037 H 0.413 0.26789 0.22487 0.0
H3038 H 0.32281 0.25397 0.25698 0.0
H3039 H 0.35245 0.25425 0.24159 0.0
H3040 H 0.35847 0.28999 0.19485 0.0
C3041 C 0.42396 0.28272 0.17346 0.0
C3042 C 0.40118 0.27268 0.21811 0.0
C3043 C 0.43887 0.27814 0.16291 0.0
C3044 C 0.32856 0.2665 0.24993 0.0
C3045 C 0.34558 0.2667 0.2412 0.0
C3046 C 0.37045 0.28546 0.2016 0.0
C3047 C 0.4165 0.27086 0.18715 0.0
C3048 C 0.40107 0.27574 0.19888 0.0
C3049 C 0.35315 0.28233 0.23128 0.0
C3050 C 0.37022 0.28149 0.22055 0.0
H3051 H 0.44422 0.23663 0.18178 0.0
H3052 H 0.41814 0.24431 0.19968 0.0
H3053 H 0.38513 0.28494 0.17605 0.0
H3054 H 0.31964 0.3102 0.23887 0.0
H3055 H 0.34937 0.31042 0.22346 0.0
C3056 C 0.59387 0.4925 0.33096 0.0
C3057 C 0.58542 0.50176 0.31721 0.0
C3058 C 0.58497 0.48889 0.34773 0.0
C3059 C 0.53799 0.48425 0.3678 0.0
H3060 H 0.56611 0.49908 0.4165 0.0
C3061 C 0.52162 0.51047 0.44824 0.0
C3062 C 0.50495 0.49704 0.45023 0.0
C3063 C 0.53281 0.50751 0.43305 0.0
C3064 C 0.55808 0.49481 0.403 0.0
H3065 H 0.56101 0.51452 0.3104 0.0
H3066 H 0.54575 0.50833 0.33939 0.0
H3067 H 0.58296 0.5007 0.38741 0.0
H3068 H 0.48724 0.46962 0.43843 0.0
H3069 H 0.50685 0.46433 0.41184 0.0
H3070 H 0.51304 0.47928 0.38317 0.0
C3071 C 0.55908 0.50362 0.3372 0.0
C3072 C 0.56776 0.49555 0.38636 0.0
C3073 C 0.56796 0.50731 0.32061 0.0
C3074 C 0.49996 0.48027 0.43711 0.0
C3075 C 0.51117 0.47728 0.42189 0.0
C3076 C 0.52835 0.48349 0.38438 0.0
C3077 C 0.5674 0.4943 0.35092 0.0
C3078 C 0.55772 0.49082 0.36859 0.0
C3079 C 0.52755 0.49105 0.4195 0.0
C3080 C 0.5382 0.48925 0.40216 0.0
H3081 H 0.60732 0.48804 0.32878 0.0
H3082 H 0.5917 0.48166 0.35808 0.0
H3083 H 0.52991 0.48022 0.3543 0.0
H3084 H 0.52577 0.52357 0.45814 0.0
H3085 H 0.54515 0.51855 0.43151 0.0
C3086 C 0.24845 0.85056 0.06938 0.0
C3087 C 0.2385 0.84447 0.05172 0.0
C3088 C 0.2519 0.83687 0.08129 0.0
C3089 C 0.23276 0.78699 0.09112 0.0
H3090 H 0.27754 0.79671 0.12566 0.0
C3091 C 0.26593 0.75803 0.16206 0.0
C3092 C 0.2497 0.7567 0.17246 0.0
C3093 C 0.26566 0.76411 0.144 0.0
C3094 C 0.26511 0.79346 0.11588 0.0
H3095 H 0.22498 0.81927 0.03232 0.0
H3096 H 0.23124 0.79534 0.05303 0.0
H3097 H 0.27619 0.81668 0.09993 0.0
H3098 H 0.22019 0.75947 0.1719 0.0
H3099 H 0.21975 0.77044 0.14066 0.0
H3100 H 0.22164 0.76385 0.10716 0.0
C3101 C 0.23608 0.8107 0.05782 0.0
C3102 C 0.26423 0.80512 0.10129 0.0
C3103 C 0.23254 0.8244 0.04595 0.0
C3104 C 0.2329 0.76039 0.16415 0.0
C3105 C 0.23264 0.76655 0.14616 0.0
C3106 C 0.2337 0.77524 0.10564 0.0
C3107 C 0.24558 0.81679 0.07573 0.0
C3108 C 0.24778 0.80247 0.08918 0.0
C3109 C 0.24916 0.76903 0.1361 0.0
C3110 C 0.2496 0.7788 0.11859 0.0
H3111 H 0.25322 0.86592 0.07421 0.0
H3112 H 0.25896 0.8421 0.09513 0.0
H3113 H 0.21985 0.78457 0.08208 0.0
H3114 H 0.27903 0.75512 0.16817 0.0
H3115 H 0.27853 0.76559 0.13648 0.0
C3116 C 0.9518 0.53945 0.82479 0.0
C3117 C 0.93457 0.54478 0.81968 0.0
C3118 C 0.95983 0.54422 0.84323 0.0
C3119 C 0.94692 0.55426 0.89176 0.0
H3120 H 0.00154 0.56482 0.9015 0.0
C3121 C 0.00856 0.55772 0.95596 0.0
C3122 C 0.00041 0.5405 0.96321 0.0
C3123 C -0.00029 0.5637 0.94034 0.0
C3124 C 0.98626 0.56233 0.89916 0.0
H3125 H 0.91244 0.55972 0.82983 0.0
H3126 H 0.9266 0.56811 0.86218 0.0
H3127 H 0.98804 0.5661 0.86983 0.0
H3128 H 0.97656 0.51624 0.9603 0.0
H3129 H 0.96132 0.52639 0.93297 0.0
H3130 H 0.94516 0.5502 0.92105 0.0
C3131 C 0.93377 0.56009 0.85188 0.0
C3132 C 0.97853 0.56281 0.88095 0.0
C3133 C 0.92568 0.55529 0.83336 0.0
C3134 C 0.98309 0.52964 0.95501 0.0
C3135 C 0.97427 0.53558 0.93946 0.0
C3136 C 0.95465 0.5539 0.91002 0.0
C3137 C 0.95088 0.55449 0.85701 0.0
C3138 C 0.95882 0.55794 0.87689 0.0
C3139 C 0.98261 0.55251 0.93175 0.0
C3140 C 0.97441 0.55709 0.9137 0.0
H3141 H 0.95903 0.53134 0.81462 0.0
H3142 H 0.97282 0.53931 0.84682 0.0
H3143 H 0.93167 0.55046 0.8891 0.0
H3144 H 0.02187 0.5664 0.96218 0.0
H3145 H 0.00639 0.57689 0.9348 0.0
C3146 C 0.25204 0.18654 0.55007 0.0
C3147 C 0.245 0.16633 0.54857 0.0
C3148 C 0.25217 0.19822 0.56731 0.0
C3149 C 0.23074 0.19813 0.61394 0.0
H3150 H 0.27419 0.23902 0.63038 0.0
C3151 C 0.26791 0.24502 0.68766 0.0
C3152 C 0.2517 0.24874 0.6966 0.0
C3153 C 0.26657 0.23712 0.66868 0.0
C3154 C 0.26198 0.22759 0.62605 0.0
H3155 H 0.23281 0.14255 0.5641 0.0
H3156 H 0.23346 0.16271 0.59408 0.0
H3157 H 0.27291 0.22055 0.59922 0.0
H3158 H 0.2215 0.24789 0.69236 0.0
H3159 H 0.21924 0.23454 0.65913 0.0
H3160 H 0.22025 0.20442 0.64107 0.0
C3161 C 0.23844 0.16969 0.58189 0.0
C3162 C 0.26113 0.21717 0.60806 0.0
C3163 C 0.2382 0.15808 0.56469 0.0
C3164 C 0.23423 0.24498 0.68597 0.0
C3165 C 0.23292 0.23725 0.66692 0.0
C3166 C 0.23166 0.20843 0.63195 0.0
C3167 C 0.24533 0.18992 0.58342 0.0
C3168 C 0.24564 0.20209 0.60191 0.0
C3169 C 0.24903 0.23292 0.65812 0.0
C3170 C 0.24741 0.22311 0.63835 0.0
H3171 H 0.25731 0.19338 0.53789 0.0
H3172 H 0.25741 0.21377 0.56794 0.0
H3173 H 0.21842 0.18686 0.60955 0.0
H3174 H 0.2816 0.24769 0.69544 0.0
H3175 H 0.27923 0.23372 0.6625 0.0
C3176 C 0.5853 0.49903 0.20943 0.0
C3177 C 0.60485 0.49915 0.21116 0.0
C3178 C 0.57703 0.5039 0.19295 0.0
C3179 C 0.58894 0.5302 0.15138 0.0
H3180 H 0.53838 0.50378 0.13242 0.0
C3181 C 0.55384 0.53714 0.07807 0.0
C3182 C 0.53438 0.53753 0.07722 0.0
C3183 C 0.56312 0.53469 0.09506 0.0
C3184 C 0.55241 0.51147 0.1377 0.0
H3185 H 0.63096 0.50379 0.19673 0.0
H3186 H 0.6164 0.51181 0.16767 0.0
H3187 H 0.55325 0.49339 0.15993 0.0
H3188 H 0.5096 0.53697 0.09357 0.0
H3189 H 0.52582 0.53273 0.12328 0.0
H3190 H 0.58813 0.54798 0.12875 0.0
C3191 C 0.60755 0.5084 0.17925 0.0
C3192 C 0.56096 0.5055 0.15345 0.0
C3193 C 0.61586 0.50363 0.19582 0.0
C3194 C 0.52461 0.53667 0.09385 0.0
C3195 C 0.53385 0.53409 0.11079 0.0
C3196 C 0.58042 0.53606 0.13549 0.0
C3197 C 0.58807 0.50886 0.17773 0.0
C3198 C 0.57929 0.51484 0.16056 0.0
C3199 C 0.55304 0.53246 0.11141 0.0
C3200 C 0.56203 0.52682 0.12857 0.0
H3201 H 0.57643 0.49574 0.22104 0.0
H3202 H 0.56205 0.50434 0.1924 0.0
H3203 H 0.60296 0.53791 0.15665 0.0
H3204 H 0.56168 0.53776 0.06542 0.0
H3205 H 0.5779 0.53343 0.09512 0.0
C3206 C 0.21142 0.87324 0.93323 0.0
C3207 C 0.20849 0.86563 0.95055 0.0
C3208 C 0.21163 0.86078 0.91663 0.0
C3209 C 0.21991 0.81115 0.9014 0.0
H3210 H 0.2072 0.82473 0.85166 0.0
C3211 C 0.2243 0.76464 0.82899 0.0
C3212 C 0.23483 0.77526 0.81606 0.0
C3213 C 0.21994 0.77418 0.84605 0.0
C3214 C 0.21076 0.82079 0.8655 0.0
H3215 H 0.202 0.83903 0.9639 0.0
H3216 H 0.20152 0.81723 0.93481 0.0
H3217 H 0.19923 0.84383 0.87979 0.0
H3218 H 0.24979 0.80392 0.8111 0.0
H3219 H 0.24183 0.82054 0.84065 0.0
H3220 H 0.2312 0.78789 0.88685 0.0
C3221 C 0.20441 0.83283 0.93411 0.0
C3222 C 0.2063 0.83175 0.88161 0.0
C3223 C 0.20452 0.8453 0.95076 0.0
C3224 C 0.24157 0.79537 0.82076 0.0
C3225 C 0.23695 0.80491 0.83758 0.0
C3226 C 0.22406 0.79998 0.88525 0.0
C3227 C 0.20859 0.84042 0.91694 0.0
C3228 C 0.21122 0.82737 0.89979 0.0
C3229 C 0.22581 0.79447 0.85017 0.0
C3230 C 0.2199 0.80501 0.86722 0.0
H3231 H 0.21464 0.88886 0.93266 0.0
H3232 H 0.21514 0.86723 0.90376 0.0
H3233 H 0.22422 0.8075 0.91513 0.0
H3234 H 0.21898 0.74911 0.82569 0.0
H3235 H 0.21139 0.76587 0.85565 0.0
C3236 C 0.90459 0.54533 0.69624 0.0
C3237 C 0.9142 0.55198 0.714 0.0
C3238 C 0.91431 0.54682 0.67972 0.0
C3239 C 0.93757 0.55845 0.64633 0.0
H3240 H 0.98491 0.53958 0.64921 0.0
C3241 C 0.98376 0.55216 0.58241 0.0
C3242 C 0.98865 0.53375 0.57867 0.0
C3243 C 0.97622 0.55732 0.59955 0.0
C3244 C 0.97177 0.54496 0.64823 0.0
H3245 H 0.9411 0.56666 0.72839 0.0
H3246 H 0.95795 0.56931 0.69957 0.0
H3247 H 0.96779 0.54382 0.67769 0.0
H3248 H 0.99023 0.50655 0.5899 0.0
H3249 H 0.97724 0.51562 0.61994 0.0
H3250 H 0.94133 0.55894 0.61667 0.0
C3251 C 0.94305 0.56264 0.69843 0.0
C3252 C 0.96205 0.54756 0.66453 0.0
C3253 C 0.93337 0.56115 0.71488 0.0
C3254 C 0.98659 0.52085 0.59252 0.0
C3255 C 0.97924 0.52607 0.6097 0.0
C3256 C 0.94739 0.55598 0.63001 0.0
C3257 C 0.93376 0.55501 0.68074 0.0
C3258 C 0.94472 0.55403 0.66369 0.0
C3259 C 0.97369 0.54421 0.61324 0.0
C3260 C 0.96439 0.54887 0.63078 0.0
H3261 H 0.88982 0.53829 0.69516 0.0
H3262 H 0.90684 0.54072 0.66625 0.0
H3263 H 0.9243 0.56357 0.64534 0.0
H3264 H 0.98519 0.56232 0.57187 0.0
H3265 H 0.97217 0.57144 0.60203 0.0
C3266 C 0.28333 0.17349 0.4256 0.0
C3267 C 0.27519 0.18158 0.4414 0.0
C3268 C 0.28792 0.18427 0.41046 0.0
C3269 C 0.29318 0.23415 0.39527 0.0
H3270 H 0.27694 0.20544 0.3459 0.0
C3271 C 0.2957 0.2716 0.32622 0.0
C3272 C 0.27923 0.26601 0.31409 0.0
C3273 C 0.29849 0.26111 0.34146 0.0
C3274 C 0.28156 0.21367 0.35958 0.0
H3275 H 0.26624 0.20758 0.45411 0.0
H3276 H 0.27382 0.22622 0.42755 0.0
H3277 H 0.27618 0.18805 0.3737 0.0
H3278 H 0.25266 0.24535 0.30845 0.0
H3279 H 0.25749 0.22712 0.33479 0.0
H3280 H 0.29758 0.25992 0.38113 0.0
C3281 C 0.27697 0.21168 0.42693 0.0
C3282 C 0.28136 0.20367 0.37552 0.0
C3283 C 0.2725 0.20094 0.44212 0.0
C3284 C 0.26568 0.24976 0.31733 0.0
C3285 C 0.26847 0.23928 0.33244 0.0
C3286 C 0.29333 0.24418 0.37929 0.0
C3287 C 0.28435 0.20332 0.41072 0.0
C3288 C 0.28678 0.21381 0.39363 0.0
C3289 C 0.28486 0.24485 0.34474 0.0
C3290 C 0.28707 0.23409 0.36133 0.0
H3291 H 0.28575 0.15866 0.42471 0.0
H3292 H 0.29392 0.17751 0.39837 0.0
H3293 H 0.2977 0.24238 0.40897 0.0
H3294 H 0.30634 0.28412 0.32401 0.0
H3295 H 0.3113 0.2657 0.35064 0.0
C3296 C 0.29501 0.5834 0.51888 0.0
C3297 C 0.29313 0.59892 0.50847 0.0
C3298 C 0.30905 0.57248 0.51509 0.0
C3299 C 0.35425 0.57419 0.49163 0.0
H3300 H 0.34479 0.51887 0.49707 0.0
C3301 C 0.40892 0.52667 0.47271 0.0
C3302 C 0.4144 0.5172 0.48785 0.0
C3303 C 0.39248 0.53452 0.47321 0.0
C3304 C 0.34755 0.5343 0.49548 0.0
H3305 H 0.30427 0.61504 0.48575 0.0
H3306 H 0.32837 0.59561 0.47867 0.0
H3307 H 0.3194 0.53733 0.50179 0.0
H3308 H 0.40655 0.50735 0.51477 0.0
H3309 H 0.37751 0.52081 0.51548 0.0
H3310 H 0.38234 0.57102 0.4851 0.0
C3311 C 0.31937 0.59217 0.49014 0.0
C3312 C 0.3331 0.54493 0.49831 0.0
C3313 C 0.30552 0.60328 0.49414 0.0
C3314 C 0.40258 0.51458 0.50292 0.0
C3315 C 0.38599 0.52223 0.50331 0.0
C3316 C 0.36857 0.56351 0.48853 0.0
C3317 C 0.32134 0.57665 0.5006 0.0
C3318 C 0.33635 0.56507 0.49666 0.0
C3319 C 0.38115 0.53279 0.48874 0.0
C3320 C 0.36541 0.54354 0.49062 0.0
H3321 H 0.28574 0.57977 0.53011 0.0
H3322 H 0.31038 0.56093 0.52371 0.0
H3323 H 0.35742 0.58972 0.49059 0.0
H3324 H 0.41781 0.52887 0.46092 0.0
H3325 H 0.38892 0.54247 0.46175 0.0
C3326 C 0.79808 0.9514 0.52468 0.0
C3327 C 0.79252 0.93103 0.52368 0.0
C3328 C 0.81722 0.96 0.52526 0.0
C3329 C 0.86151 0.95133 0.50856 0.0
H3330 H 0.88511 0.99323 0.54694 0.0
C3331 C 0.9414 0.98328 0.51178 0.0
C3332 C 0.94757 0.00312 0.51828 0.0
C3333 C 0.92245 0.97449 0.51251 0.0
C3334 C 0.87868 0.9818 0.53591 0.0
H3335 H 0.80254 0.90368 0.52274 0.0
H3336 H 0.83616 0.91881 0.52322 0.0
H3337 H 0.8521 0.97767 0.54889 0.0
H3338 H 0.93885 0.02958 0.52991 0.0
H3339 H 0.90547 0.01451 0.53039 0.0
H3340 H 0.88761 0.95584 0.49503 0.0
C3341 C 0.82562 0.92802 0.52376 0.0
C3342 C 0.85985 0.97279 0.53716 0.0
C3343 C 0.80646 0.91942 0.52359 0.0
C3344 C 0.9344 0.0142 0.52496 0.0
C3345 C 0.91534 0.0055 0.52538 0.0
C3346 C 0.88022 0.96056 0.50708 0.0
C3347 C 0.8311 0.94836 0.52447 0.0
C3348 C 0.85117 0.95746 0.52354 0.0
C3349 C 0.90917 0.98544 0.51944 0.0
C3350 C 0.88909 0.97588 0.52077 0.0
H3351 H 0.78761 0.96069 0.52485 0.0
H3352 H 0.82116 0.97571 0.52572 0.0
H3353 H 0.85495 0.9397 0.49774 0.0
H3354 H 0.95133 0.97438 0.50664 0.0
H3355 H 0.91836 0.95898 0.5081 0.0
C3356 C 0.82138 0.07855 0.2486 0.0
C3357 C 0.84094 0.0816 0.25348 0.0
C3358 C 0.81116 0.09335 0.25305 0.0
C3359 C 0.81249 0.13988 0.2833 0.0
H3360 H 0.78002 0.15086 0.24251 0.0
C3361 C 0.78733 0.21322 0.28286 0.0
C3362 C 0.76949 0.21339 0.27407 0.0
C3363 C 0.79427 0.19588 0.2825 0.0
C3364 C 0.78871 0.1478 0.25421 0.0
H3365 H 0.86498 0.10234 0.26741 0.0
H3366 H 0.84714 0.12816 0.27516 0.0
H3367 H 0.79539 0.1228 0.238 0.0
H3368 H 0.7445 0.19523 0.25893 0.0
H3369 H 0.75645 0.16493 0.25866 0.0
H3370 H 0.80596 0.16503 0.29945 0.0
C3371 C 0.83969 0.1143 0.26798 0.0
C3372 C 0.79757 0.13171 0.25159 0.0
C3373 C 0.84993 0.09954 0.26343 0.0
C3374 C 0.75838 0.19566 0.2657 0.0
C3375 C 0.76528 0.17829 0.26543 0.0
C3376 C 0.80354 0.15593 0.28596 0.0
C3377 C 0.82025 0.11147 0.26258 0.0
C3378 C 0.80976 0.12772 0.266 0.0
C3379 C 0.7835 0.17826 0.27345 0.0
C3380 C 0.79174 0.16026 0.27135 0.0
H3381 H 0.81402 0.06487 0.24098 0.0
H3382 H 0.79616 0.09066 0.2489 0.0
H3383 H 0.82162 0.13702 0.29476 0.0
H3384 H 0.7963 0.22659 0.28944 0.0
H3385 H 0.80844 0.19648 0.28865 0.0
C3386 C 0.69234 0.14373 0.00689 0.0
C3387 C 0.70529 0.1355 -0.004 0.0
C3388 C 0.67334 0.13438 0.00611 0.0
C3389 C 0.64479 0.08489 -0.00575 0.0
H3390 H 0.60194 0.11084 0.00016 0.0
C3391 C 0.56796 0.04308 0.98581 0.0
C3392 C 0.5562 0.04746 0.00027 0.0
C3393 C 0.58574 0.05474 0.98486 0.0
C3394 C 0.61385 0.10347 -0.00138 0.0
H3395 H 0.70844 0.11216 0.97461 0.0
H3396 H 0.67524 0.09631 0.97261 0.0
H3397 H 0.63363 0.13025 -0.00195 0.0
H3398 H 0.5537 0.06771 0.02488 0.0
H3399 H 0.58487 0.08819 0.0231 0.0
H3400 H 0.62504 0.05815 -0.0054 0.0
C3401 C 0.67977 0.10948 0.98234 0.0
C3402 C 0.63195 0.11454 -0.00257 0.0
C3403 C 0.69875 0.11862 0.98336 0.0
C3404 C 0.5625 0.06389 0.01365 0.0
C3405 C 0.58024 0.0757 0.01256 0.0
C3406 C 0.62674 0.07387 -0.00476 0.0
C3407 C 0.667 0.11681 -0.00577 0.0
C3408 C 0.64762 0.10534 -0.00484 0.0
C3409 C 0.59203 0.07113 -0.00178 0.0
C3410 C 0.61111 0.08304 -0.0026 0.0
H3411 H 0.69708 0.15674 0.01679 0.0
H3412 H 0.66389 0.14038 0.01551 0.0
H3413 H 0.65659 0.07733 -0.00694 0.0
H3414 H 0.56354 0.03053 0.97529 0.0
H3415 H 0.59454 0.05101 0.97359 0.0
C3416 C 0.17331 0.45563 0.24904 0.0
C3417 C 0.15617 0.45357 0.25797 0.0
C3418 C 0.18797 0.44701 0.2555 0.0
C3419 C 0.19584 0.40758 0.28386 0.0
H3420 H 0.24825 0.42647 0.27385 0.0
C3421 C 0.25247 0.36297 0.29726 0.0
C3422 C 0.2587 0.35623 0.2798 0.0
C3423 C 0.24374 0.37917 0.29877 0.0
C3424 C 0.2337 0.42123 0.27695 0.0
H3425 H 0.14114 0.44194 0.28122 0.0
H3426 H 0.16707 0.42772 0.29322 0.0
H3427 H 0.22474 0.44696 0.26951 0.0
H3428 H 0.26251 0.36203 0.25076 0.0
H3429 H 0.24758 0.39072 0.25353 0.0
H3430 H 0.20492 0.38192 0.29136 0.0
C3431 C 0.16901 0.43523 0.28072 0.0
C3432 C 0.22017 0.4328 0.27427 0.0
C3433 C 0.15415 0.44342 0.27392 0.0
C3434 C 0.25774 0.36696 0.26435 0.0
C3435 C 0.24931 0.38338 0.26596 0.0
C3436 C 0.20942 0.39629 0.28696 0.0
C3437 C 0.18598 0.43654 0.27134 0.0
C3438 C 0.20093 0.42581 0.27706 0.0
C3439 C 0.24151 0.38905 0.28293 0.0
C3440 C 0.22832 0.40277 0.28299 0.0
H3441 H 0.17517 0.46337 0.23666 0.0
H3442 H 0.20056 0.44803 0.2476 0.0
H3443 H 0.18121 0.40145 0.28585 0.0
H3444 H 0.25309 0.35494 0.30939 0.0
H3445 H 0.2378 0.38334 0.31197 0.0
C3446 C 0.18314 0.41824 0.04452 0.0
C3447 C 0.18329 0.40181 0.03146 0.0
C3448 C 0.16849 0.42866 0.04346 0.0
C3449 C 0.1389 0.4435 0.00882 0.0
H3450 H 0.10915 0.45863 0.05002 0.0
C3451 C 0.08052 0.48801 -0.00191 0.0
C3452 C 0.07648 0.50058 0.01338 0.0
C3453 C 0.09362 0.47599 0.00055 0.0
C3454 C 0.11758 0.45486 0.03846 0.0
H3455 H 0.16802 0.38292 0.00749 0.0
H3456 H 0.14254 0.40163 0.00524 0.0
H3457 H 0.13061 0.43609 0.05452 0.0
H3458 H 0.08347 0.51121 0.043 0.0
H3459 H 0.10724 0.49102 0.04713 0.0
H3460 H 0.12687 0.46289 -0.00701 0.0
C3461 C 0.15367 0.40617 0.01644 0.0
C3462 C 0.12966 0.44176 0.041 0.0
C3463 C 0.16813 0.39545 0.0178 0.0
C3464 C 0.0864 0.50164 0.03098 0.0
C3465 C 0.0998 0.48985 0.03338 0.0
C3466 C 0.12715 0.4569 0.00638 0.0
C3467 C 0.15398 0.42307 0.02905 0.0
C3468 C 0.14032 0.43593 0.02616 0.0
C3469 C 0.10324 0.47651 0.0183 0.0
C3470 C 0.11626 0.46272 0.02114 0.0
H3471 H 0.19473 0.4234 0.05518 0.0
H3472 H 0.16905 0.4417 0.05323 0.0
H3473 H 0.14731 0.43947 -0.00269 0.0
H3474 H 0.07289 0.48674 0.98441 0.0
H3475 H 0.09558 0.46574 0.98867 0.0
C3476 C 0.83437 0.96741 0.2327 0.0
C3477 C 0.85089 0.96965 0.22265 0.0
C3478 C 0.82386 0.94885 0.23414 0.0
C3479 C 0.81487 0.89757 0.21297 0.0
H3480 H 0.80063 0.88688 0.26333 0.0
C3481 C 0.764 0.82755 0.22794 0.0
C3482 C 0.76899 0.81863 0.24367 0.0
C3483 C 0.77434 0.84562 0.22458 0.0
C3484 C 0.80462 0.88961 0.24921 0.0
H3485 H 0.86885 0.95413 0.20553 0.0
H3486 H 0.85039 0.92175 0.208 0.0
H3487 H 0.8174 0.91933 0.25846 0.0
H3488 H 0.78881 0.82132 0.26806 0.0
H3489 H 0.8069 0.853 0.26222 0.0
H3490 H 0.80214 0.86777 0.20377 0.0
C3491 C 0.84562 0.93438 0.21477 0.0
C3492 C 0.81401 0.90824 0.24638 0.0
C3493 C 0.85622 0.95294 0.21342 0.0
C3494 C 0.78465 0.82794 0.25585 0.0
C3495 C 0.79493 0.84607 0.25257 0.0
C3496 C 0.80532 0.87896 0.21578 0.0
C3497 C 0.82955 0.93214 0.22545 0.0
C3498 C 0.81924 0.91242 0.22824 0.0
C3499 C 0.78979 0.85516 0.23697 0.0
C3500 C 0.80014 0.87479 0.23394 0.0
H3501 H 0.82982 0.97995 0.23993 0.0
H3502 H 0.81137 0.94756 0.24224 0.0
H3503 H 0.81867 0.90041 0.19883 0.0
H3504 H 0.752 0.82063 0.21831 0.0
H3505 H 0.76997 0.85235 0.21254 0.0
C3506 C 0.64717 0.05234 0.74632 0.0
C3507 C 0.62817 0.04908 0.73915 0.0
C3508 C 0.65788 0.07119 0.74959 0.0
C3509 C 0.65519 0.12289 0.75802 0.0
H3510 H 0.70462 0.13098 0.73716 0.0
C3511 C 0.71408 0.19018 0.73776 0.0
C3512 C 0.71774 0.20253 0.75492 0.0
C3513 C 0.70337 0.17142 0.73713 0.0
C3514 C 0.69087 0.12891 0.7431 0.0
H3515 H 0.6054 0.06317 0.73025 0.0
H3516 H 0.62426 0.09631 0.73611 0.0
H3517 H 0.68498 0.09836 0.73356 0.0
H3518 H 0.71302 0.2049 0.78491 0.0
H3519 H 0.69392 0.17192 0.78371 0.0
H3520 H 0.66115 0.1536 0.76743 0.0
C3521 C 0.63074 0.08415 0.73917 0.0
C3522 C 0.67968 0.11026 0.74113 0.0
C3523 C 0.62001 0.0652 0.73571 0.0
C3524 C 0.71048 0.19568 0.7715 0.0
C3525 C 0.69948 0.17691 0.7708 0.0
C3526 C 0.66652 0.14157 0.7602 0.0
C3527 C 0.64984 0.08726 0.74592 0.0
C3528 C 0.66169 0.10708 0.74844 0.0
C3529 C 0.69589 0.16463 0.75359 0.0
C3530 C 0.68437 0.14475 0.75256 0.0
H3531 H 0.65392 0.0403 0.74919 0.0
H3532 H 0.67252 0.07321 0.75498 0.0
H3533 H 0.64141 0.12077 0.76389 0.0
H3534 H 0.71953 0.19498 0.72474 0.0
H3535 H 0.70068 0.1623 0.72365 0.0
loop_
_geom_bond_atom_site_label_1
_geom_bond_atom_site_label_2
_geom_bond_distance
_geom_bond_site_symmetry_2
_ccdc_geom_bond_type
C0 O1 1.306 . S
C0 O3 1.160 . S
O1 C0 1.306 . S
O1 Cd2 2.228 1_655 S
Cd2 O1 2.228 1_455 S
Cd2 O6 2.273 . S
Cd2 O10 2.277 . S
O3 C0 1.160 . S
O3 Cd4 2.203 1_655 S
Cd4 O3 2.203 1_455 S
Cd4 O6 2.411 . S
Cd4 O7 2.333 . S
Cd4 O8 2.352 . S
Cd4 O12 2.277 . S
Cd4 O13 2.356 . S
C5 O10 1.209 . S
C5 O12 1.226 . S
O6 Cd2 2.273 . S
O6 Cd4 2.411 . S
O6 C9 1.320 . S
O7 Cd4 2.333 . S
O7 C9 1.214 . S
O8 Cd4 2.352 . S
O8 C11 1.258 . S
C9 O6 1.320 . S
C9 O7 1.214 . S
O10 Cd2 2.277 . S
O10 C5 1.209 . S
C11 O8 1.258 . S
C11 O13 1.282 . S
O12 Cd4 2.277 . S
O12 C5 1.226 . S
O13 Cd4 2.356 . S
O13 C11 1.282 . S
C14 O15 1.306 . S
C14 O17 1.160 . S
O15 C14 1.306 . S
O15 Cd16 2.228 1_655 S
Cd16 O15 2.228 1_455 S
Cd16 O20 2.273 . S
Cd16 O24 2.277 . S
O17 C14 1.160 . S
O17 Cd18 2.203 1_655 S
Cd18 O17 2.203 1_455 S
Cd18 O20 2.411 . S
Cd18 O21 2.333 . S
Cd18 O22 2.352 . S
Cd18 O26 2.277 . S
Cd18 O27 2.356 . S
C19 O24 1.209 . S
C19 O26 1.226 . S
O20 Cd16 2.273 . S
O20 Cd18 2.411 . S
O20 C23 1.320 . S
O21 Cd18 2.333 . S
O21 C23 1.214 . S
O22 Cd18 2.352 . S
O22 C25 1.258 . S
C23 O20 1.320 . S
C23 O21 1.214 . S
O24 Cd16 2.277 . S
O24 C19 1.209 . S
C25 O22 1.258 . S
C25 O27 1.282 . S
O26 Cd18 2.277 . S
O26 C19 1.226 . S
O27 Cd18 2.356 . S
O27 C25 1.282 . S
C28 O29 1.306 . S
C28 O31 1.160 . S
O29 C28 1.306 . S
O29 Cd30 2.228 . S
Cd30 O29 2.228 . S
Cd30 O34 2.273 . S
Cd30 O38 2.277 . S
O31 C28 1.160 . S
O31 Cd32 2.203 . S
Cd32 O31 2.203 . S
Cd32 O34 2.411 . S
Cd32 O35 2.333 . S
Cd32 O36 2.352 . S
Cd32 O40 2.277 . S
Cd32 O41 2.356 . S
C33 O38 1.209 . S
C33 O40 1.226 . S
O34 Cd30 2.273 . S
O34 Cd32 2.411 . S
O34 C37 1.320 . S
O35 Cd32 2.333 . S
O35 C37 1.214 . S
O36 Cd32 2.352 . S
O36 C39 1.258 . S
C37 O34 1.320 . S
C37 O35 1.214 . S
O38 Cd30 2.277 . S
O38 C33 1.209 . S
C39 O36 1.258 . S
C39 O41 1.282 . S
O40 Cd32 2.277 . S
O40 C33 1.226 . S
O41 Cd32 2.356 . S
O41 C39 1.282 . S
C42 O43 1.306 . S
C42 O45 1.160 . S
O43 C42 1.306 . S
O43 Cd44 2.228 . S
Cd44 O43 2.228 . S
Cd44 O48 2.273 . S
Cd44 O52 2.277 . S
O45 C42 1.160 . S
O45 Cd46 2.203 . S
Cd46 O45 2.203 . S
Cd46 O48 2.411 . S
Cd46 O49 2.333 . S
Cd46 O50 2.352 . S
Cd46 O54 2.277 . S
Cd46 O55 2.356 . S
C47 O52 1.209 . S
C47 O54 1.226 . S
O48 Cd44 2.273 . S
O48 Cd46 2.411 . S
O48 C51 1.320 . S
O49 Cd46 2.333 . S
O49 C51 1.214 . S
O50 Cd46 2.352 . S
O50 C53 1.258 . S
C51 O48 1.320 . S
C51 O49 1.214 . S
O52 Cd44 2.277 . S
O52 C47 1.209 . S
C53 O50 1.258 . S
C53 O55 1.282 . S
O54 Cd46 2.277 . S
O54 C47 1.226 . S
O55 Cd46 2.356 . S
O55 C53 1.282 . S
C56 O57 1.306 . S
C56 O59 1.160 . S
O57 C56 1.306 . S
O57 Cd58 2.228 1_655 S
Cd58 O57 2.228 1_455 S
Cd58 O62 2.273 . S
Cd58 O66 2.277 . S
O59 C56 1.160 . S
O59 Cd60 2.203 1_655 S
Cd60 O59 2.203 1_455 S
Cd60 O62 2.411 . S
Cd60 O63 2.333 . S
Cd60 O64 2.352 . S
Cd60 O68 2.277 . S
Cd60 O69 2.356 . S
C61 O66 1.209 . S
C61 O68 1.226 . S
O62 Cd58 2.273 . S
O62 Cd60 2.411 . S
O62 C65 1.320 . S
O63 Cd60 2.333 . S
O63 C65 1.214 . S
O64 Cd60 2.352 . S
O64 C67 1.258 . S
C65 O62 1.320 . S
C65 O63 1.214 . S
O66 Cd58 2.277 . S
O66 C61 1.209 . S
C67 O64 1.258 . S
C67 O69 1.282 . S
O68 Cd60 2.277 . S
O68 C61 1.226 . S
O69 Cd60 2.356 . S
O69 C67 1.282 . S
C70 O71 1.306 . S
C70 O73 1.160 . S
O71 C70 1.306 . S
O71 Cd72 2.228 . S
Cd72 O71 2.228 . S
Cd72 O76 2.273 . S
Cd72 O80 2.277 . S
O73 C70 1.160 . S
O73 Cd74 2.203 . S
Cd74 O73 2.203 . S
Cd74 O76 2.411 . S
Cd74 O77 2.333 . S
Cd74 O78 2.352 . S
Cd74 O82 2.277 . S
Cd74 O83 2.356 . S
C75 O80 1.209 . S
C75 O82 1.226 . S
O76 Cd72 2.273 . S
O76 Cd74 2.411 . S
O76 C79 1.320 . S
O77 Cd74 2.333 . S
O77 C79 1.214 . S
O78 Cd74 2.352 . S
O78 C81 1.258 . S
C79 O76 1.320 . S
C79 O77 1.214 . S
O80 Cd72 2.277 . S
O80 C75 1.209 . S
C81 O78 1.258 . S
C81 O83 1.282 . S
O82 Cd74 2.277 . S
O82 C75 1.226 . S
O83 Cd74 2.356 . S
O83 C81 1.282 . S
C84 O85 1.306 . S
C84 O87 1.160 . S
O85 C84 1.306 . S
O85 Cd86 2.228 . S
Cd86 O85 2.228 . S
Cd86 O90 2.273 . S
Cd86 O94 2.277 . S
O87 C84 1.160 . S
O87 Cd88 2.203 . S
Cd88 O87 2.203 . S
Cd88 O90 2.411 . S
Cd88 O91 2.333 . S
Cd88 O92 2.352 . S
Cd88 O96 2.277 . S
Cd88 O97 2.356 . S
C89 O94 1.209 . S
C89 O96 1.226 . S
O90 Cd86 2.273 . S
O90 Cd88 2.411 . S
O90 C93 1.320 . S
O91 Cd88 2.333 . S
O91 C93 1.214 . S
O92 Cd88 2.352 . S
O92 C95 1.258 . S
C93 O90 1.320 . S
C93 O91 1.214 . S
O94 Cd86 2.277 . S
O94 C89 1.209 . S
C95 O92 1.258 . S
C95 O97 1.282 . S
O96 Cd88 2.277 . S
O96 C89 1.226 . S
O97 Cd88 2.356 . S
O97 C95 1.282 . S
C98 O99 1.306 . S
C98 O101 1.160 . S
O99 C98 1.306 . S
O99 Cd100 2.228 1_655 S
Cd100 O99 2.228 1_455 S
Cd100 O104 2.273 . S
Cd100 O108 2.277 . S
O101 C98 1.160 . S
O101 Cd102 2.203 1_655 S
Cd102 O101 2.203 1_455 S
Cd102 O104 2.411 . S
Cd102 O105 2.333 . S
Cd102 O106 2.352 1_455 S
Cd102 O110 2.277 . S
Cd102 O111 2.356 . S
C103 O108 1.209 . S
C103 O110 1.226 . S
O104 Cd100 2.273 . S
O104 Cd102 2.411 . S
O104 C107 1.320 . S
O105 Cd102 2.333 . S
O105 C107 1.214 . S
O106 Cd102 2.352 1_655 S
O106 C109 1.254 1_655 S
C107 O104 1.320 . S
C107 O105 1.214 . S
O108 Cd100 2.277 . S
O108 C103 1.209 . S
C109 O106 1.254 1_455 S
C109 O111 1.288 . S
O110 Cd102 2.277 . S
O110 C103 1.226 . S
O111 Cd102 2.356 . S
O111 C109 1.288 . S
C112 O113 1.306 . S
C112 O115 1.160 . S
O113 C112 1.306 . S
O113 Cd114 2.228 1_545 S
Cd114 O113 2.228 1_565 S
Cd114 O118 2.273 1_565 S
Cd114 O122 2.277 . S
O115 C112 1.160 . S
O115 Cd116 2.203 . S
Cd116 O115 2.203 . S
Cd116 O118 2.411 . S
Cd116 O119 2.333 . S
Cd116 O120 2.352 . S
Cd116 O124 2.277 1_545 S
Cd116 O125 2.356 . S
C117 O122 1.209 . S
C117 O124 1.226 . S
O118 Cd114 2.273 1_545 S
O118 Cd116 2.411 . S
O118 C121 1.320 . S
O119 Cd116 2.333 . S
O119 C121 1.214 . S
O120 Cd116 2.352 . S
O120 C123 1.258 . S
C121 O118 1.320 . S
C121 O119 1.214 . S
O122 Cd114 2.277 . S
O122 C117 1.209 . S
C123 O120 1.258 . S
C123 O125 1.282 . S
O124 Cd116 2.277 1_565 S
O124 C117 1.226 . S
O125 Cd116 2.356 . S
O125 C123 1.282 . S
C126 O127 1.306 . S
C126 O129 1.160 . S
O127 C126 1.306 . S
O127 Cd128 2.228 . S
Cd128 O127 2.228 . S
Cd128 O132 2.273 . S
Cd128 O136 2.277 . S
O129 C126 1.160 . S
O129 Cd130 2.203 . S
Cd130 O129 2.203 . S
Cd130 O132 2.411 . S
Cd130 O133 2.333 . S
Cd130 O134 2.352 . S
Cd130 O138 2.277 . S
Cd130 O139 2.356 . S
C131 O136 1.209 . S
C131 O138 1.226 . S
O132 Cd128 2.273 . S
O132 Cd130 2.411 . S
O132 C135 1.320 . S
O133 Cd130 2.333 . S
O133 C135 1.214 . S
O134 Cd130 2.352 . S
O134 C137 1.258 . S
C135 O132 1.320 . S
C135 O133 1.214 . S
O136 Cd128 2.277 . S
O136 C131 1.209 . S
C137 O134 1.258 . S
C137 O139 1.282 . S
O138 Cd130 2.277 . S
O138 C131 1.226 . S
O139 Cd130 2.356 . S
O139 C137 1.282 . S
C140 O141 1.306 . S
C140 O143 1.150 1_545 S
O141 C140 1.306 . S
O141 Cd142 2.228 . S
Cd142 O141 2.228 . S
Cd142 O146 2.273 1_545 S
Cd142 O150 2.277 . S
O143 C140 1.150 1_565 S
O143 Cd144 2.203 . S
Cd144 O143 2.203 . S
Cd144 O146 2.411 . S
Cd144 O147 2.333 . S
Cd144 O148 2.352 . S
Cd144 O152 2.277 1_565 S
Cd144 O153 2.356 . S
C145 O150 1.209 . S
C145 O152 1.226 . S
O146 Cd142 2.273 1_565 S
O146 Cd144 2.411 . S
O146 C149 1.320 . S
O147 Cd144 2.333 . S
O147 C149 1.214 . S
O148 Cd144 2.352 . S
O148 C151 1.258 . S
C149 O146 1.320 . S
C149 O147 1.214 . S
O150 Cd142 2.277 . S
O150 C145 1.209 . S
C151 O148 1.258 . S
C151 O153 1.282 . S
O152 Cd144 2.277 1_545 S
O152 C145 1.226 . S
O153 Cd144 2.356 . S
O153 C151 1.282 . S
C154 O155 1.306 . S
C154 O157 1.160 . S
O155 C154 1.306 . S
O155 Cd156 2.240 . S
Cd156 O155 2.240 . S
Cd156 O160 2.292 . S
Cd156 O164 2.273 1_554 S
O157 C154 1.160 . S
O157 Cd158 2.203 . S
Cd158 O157 2.203 . S
Cd158 O160 2.411 . S
Cd158 O161 2.333 . S
Cd158 O162 2.352 . S
Cd158 O166 2.277 . S
Cd158 O167 2.356 . S
C159 O164 1.209 . S
C159 O166 1.226 1_556 S
O160 Cd156 2.292 . S
O160 Cd158 2.411 . S
O160 C163 1.320 . S
O161 Cd158 2.333 . S
O161 C163 1.214 . S
O162 Cd158 2.352 . S
O162 C165 1.258 . S
C163 O160 1.320 . S
C163 O161 1.214 . S
O164 Cd156 2.273 1_556 S
O164 C159 1.209 . S
C165 O162 1.258 . S
C165 O167 1.282 . S
O166 Cd158 2.277 . S
O166 C159 1.226 1_554 S
O167 Cd158 2.356 . S
O167 C165 1.282 . S
C168 O169 1.306 . S
C168 O171 1.160 . S
O169 C168 1.306 . S
O169 Cd170 2.228 1_554 S
Cd170 O169 2.228 1_556 S
Cd170 O174 2.273 1_556 S
Cd170 O178 2.277 . S
O171 C168 1.160 . S
O171 Cd172 2.203 . S
Cd172 O171 2.203 . S
Cd172 O174 2.411 . S
Cd172 O175 2.333 . S
Cd172 O176 2.352 . S
Cd172 O180 2.277 1_554 S
Cd172 O181 2.356 . S
C173 O178 1.209 . S
C173 O180 1.226 . S
O174 Cd170 2.273 1_554 S
O174 Cd172 2.411 . S
O174 C177 1.320 . S
O175 Cd172 2.333 . S
O175 C177 1.214 . S
O176 Cd172 2.352 . S
O176 C179 1.258 . S
C177 O174 1.320 . S
C177 O175 1.214 . S
O178 Cd170 2.277 . S
O178 C173 1.209 . S
C179 O176 1.258 . S
C179 O181 1.282 . S
O180 Cd172 2.277 1_556 S
O180 C173 1.226 . S
O181 Cd172 2.356 . S
O181 C179 1.282 . S
C182 O183 1.306 . S
C182 O185 1.160 1_554 S
O183 C182 1.306 . S
O183 Cd184 2.228 . S
Cd184 O183 2.228 . S
Cd184 O188 2.235 1_554 S
Cd184 O192 2.277 . S
O185 C182 1.160 1_556 S
O185 Cd186 2.203 . S
Cd186 O185 2.203 . S
Cd186 O188 2.419 . S
Cd186 O189 2.333 . S
Cd186 O190 2.352 . S
Cd186 O194 2.277 1_556 S
Cd186 O195 2.356 . S
C187 O192 1.209 . S
C187 O194 1.226 . S
O188 Cd184 2.235 1_556 S
O188 Cd186 2.419 . S
O188 C191 1.325 . S
O189 Cd186 2.333 . S
O189 C191 1.214 . S
O190 Cd186 2.352 . S
O190 C193 1.258 . S
C191 O188 1.325 . S
C191 O189 1.214 . S
O192 Cd184 2.277 . S
O192 C187 1.209 . S
C193 O190 1.258 . S
C193 O195 1.282 . S
O194 Cd186 2.277 1_554 S
O194 C187 1.226 . S
O195 Cd186 2.356 . S
O195 C193 1.282 . S
C196 O197 1.306 . S
C196 O199 1.160 . S
O197 C196 1.306 . S
O197 Cd198 2.228 . S
Cd198 O197 2.228 . S
Cd198 O202 2.273 . S
Cd198 O206 2.277 . S
O199 C196 1.160 . S
O199 Cd200 2.203 . S
Cd200 O199 2.203 . S
Cd200 O202 2.411 . S
Cd200 O203 2.333 . S
Cd200 O204 2.352 . S
Cd200 O208 2.277 . S
Cd200 O209 2.356 . S
C201 O206 1.209 . S
C201 O208 1.226 . S
O202 Cd198 2.273 . S
O202 Cd200 2.411 . S
O202 C205 1.320 . S
O203 Cd200 2.333 . S
O203 C205 1.214 . S
O204 Cd200 2.352 . S
O204 C207 1.258 . S
C205 O202 1.320 . S
C205 O203 1.214 . S
O206 Cd198 2.277 . S
O206 C201 1.209 . S
C207 O204 1.258 . S
C207 O209 1.282 . S
O208 Cd200 2.277 . S
O208 C201 1.226 . S
O209 Cd200 2.356 . S
O209 C207 1.282 . S
C210 O211 1.306 . S
C210 O213 1.160 . S
O211 C210 1.306 . S
O211 Cd212 2.228 . S
Cd212 O211 2.228 . S
Cd212 O216 2.273 . S
Cd212 O220 2.277 . S
O213 C210 1.160 . S
O213 Cd214 2.203 . S
Cd214 O213 2.203 . S
Cd214 O216 2.411 . S
Cd214 O217 2.333 . S
Cd214 O218 2.352 . S
Cd214 O222 2.277 . S
Cd214 O223 2.356 . S
C215 O220 1.209 . S
C215 O222 1.226 . S
O216 Cd212 2.273 . S
O216 Cd214 2.411 . S
O216 C219 1.320 . S
O217 Cd214 2.333 . S
O217 C219 1.214 . S
O218 Cd214 2.352 . S
O218 C221 1.258 . S
C219 O216 1.320 . S
C219 O217 1.214 . S
O220 Cd212 2.277 . S
O220 C215 1.209 . S
C221 O218 1.258 . S
C221 O223 1.282 . S
O222 Cd214 2.277 . S
O222 C215 1.226 . S
O223 Cd214 2.356 . S
O223 C221 1.282 . S
C224 O225 1.306 . S
C224 O227 1.160 . S
O225 C224 1.306 . S
O225 Cd226 2.228 . S
Cd226 O225 2.228 . S
Cd226 O230 2.273 . S
Cd226 O234 2.277 . S
O227 C224 1.160 . S
O227 Cd228 2.203 . S
Cd228 O227 2.203 . S
Cd228 O230 2.411 . S
Cd228 O231 2.333 . S
Cd228 O232 2.352 . S
Cd228 O236 2.277 . S
Cd228 O237 2.356 . S
C229 O234 1.209 . S
C229 O236 1.226 . S
O230 Cd226 2.273 . S
O230 Cd228 2.411 . S
O230 C233 1.320 . S
O231 Cd228 2.333 . S
O231 C233 1.214 . S
O232 Cd228 2.352 . S
O232 C235 1.258 . S
C233 O230 1.320 . S
C233 O231 1.214 . S
O234 Cd226 2.277 . S
O234 C229 1.209 . S
C235 O232 1.258 . S
C235 O237 1.282 . S
O236 Cd228 2.277 . S
O236 C229 1.226 . S
O237 Cd228 2.356 . S
O237 C235 1.282 . S
C238 O239 1.306 . S
C238 O241 1.160 . S
O239 C238 1.306 . S
O239 Cd240 2.228 . S
Cd240 O239 2.228 . S
Cd240 O244 2.273 . S
Cd240 O248 2.277 . S
O241 C238 1.160 . S
O241 Cd242 2.203 . S
Cd242 O241 2.203 . S
Cd242 O244 2.411 . S
Cd242 O245 2.333 . S
Cd242 O246 2.352 . S
Cd242 O250 2.277 . S
Cd242 O251 2.356 . S
C243 O248 1.209 . S
C243 O250 1.226 . S
O244 Cd240 2.273 . S
O244 Cd242 2.411 . S
O244 C247 1.320 . S
O245 Cd242 2.333 . S
O245 C247 1.214 . S
O246 Cd242 2.352 . S
O246 C249 1.258 . S
C247 O244 1.320 . S
C247 O245 1.214 . S
O248 Cd240 2.277 . S
O248 C243 1.209 . S
C249 O246 1.258 . S
C249 O251 1.282 . S
O250 Cd242 2.277 . S
O250 C243 1.226 . S
O251 Cd242 2.356 . S
O251 C249 1.282 . S
C252 O253 1.306 . S
C252 O255 1.160 . S
O253 C252 1.306 . S
O253 Cd254 2.228 . S
Cd254 O253 2.228 . S
Cd254 O258 2.273 . S
Cd254 O262 2.277 . S
O255 C252 1.160 . S
O255 Cd256 2.203 . S
Cd256 O255 2.203 . S
Cd256 O258 2.411 . S
Cd256 O259 2.333 . S
Cd256 O260 2.352 . S
Cd256 O264 2.277 . S
Cd256 O265 2.356 . S
C257 O262 1.209 . S
C257 O264 1.226 . S
O258 Cd254 2.273 . S
O258 Cd256 2.411 . S
O258 C261 1.320 . S
O259 Cd256 2.333 . S
O259 C261 1.214 . S
O260 Cd256 2.352 . S
O260 C263 1.258 . S
C261 O258 1.320 . S
C261 O259 1.214 . S
O262 Cd254 2.277 . S
O262 C257 1.209 . S
C263 O260 1.258 . S
C263 O265 1.282 . S
O264 Cd256 2.277 . S
O264 C257 1.226 . S
O265 Cd256 2.356 . S
O265 C263 1.282 . S
C266 O267 1.306 . S
C266 O269 1.160 . S
O267 C266 1.306 . S
O267 Cd268 2.228 . S
Cd268 O267 2.228 . S
Cd268 O272 2.273 . S
Cd268 O276 2.277 . S
O269 C266 1.160 . S
O269 Cd270 2.203 . S
Cd270 O269 2.203 . S
Cd270 O272 2.411 . S
Cd270 O273 2.333 . S
Cd270 O274 2.352 1_545 S
Cd270 O278 2.277 . S
Cd270 O279 2.381 . S
C271 O276 1.209 . S
C271 O278 1.226 . S
O272 Cd268 2.273 . S
O272 Cd270 2.411 . S
O272 C275 1.320 . S
O273 Cd270 2.333 . S
O273 C275 1.214 . S
O274 Cd270 2.352 1_565 S
O274 C277 1.258 . S
C275 O272 1.320 . S
C275 O273 1.214 . S
O276 Cd268 2.277 . S
O276 C271 1.209 . S
C277 O274 1.258 . S
C277 O279 1.258 1_565 S
O278 Cd270 2.277 . S
O278 C271 1.226 . S
O279 Cd270 2.381 . S
O279 C277 1.258 1_545 S
C280 O281 1.306 . S
C280 O283 1.160 . S
O281 C280 1.306 . S
O281 Cd282 2.228 . S
Cd282 O281 2.228 . S
Cd282 O286 2.273 . S
Cd282 O290 2.277 . S
O283 C280 1.160 . S
O283 Cd284 2.203 . S
Cd284 O283 2.203 . S
Cd284 O286 2.411 . S
Cd284 O287 2.333 . S
Cd284 O288 2.352 1_554 S
Cd284 O292 2.277 . S
Cd284 O293 2.356 1_554 S
C285 O290 1.209 . S
C285 O292 1.226 . S
O286 Cd282 2.273 . S
O286 Cd284 2.411 . S
O286 C289 1.320 . S
O287 Cd284 2.333 . S
O287 C289 1.214 . S
O288 Cd284 2.352 1_556 S
O288 C291 1.258 . S
C289 O286 1.320 . S
C289 O287 1.214 . S
O290 Cd282 2.277 . S
O290 C285 1.209 . S
C291 O288 1.258 . S
C291 O293 1.282 . S
O292 Cd284 2.277 . S
O292 C285 1.226 . S
O293 Cd284 2.356 1_556 S
O293 C291 1.282 . S
C294 O295 1.306 . S
C294 O297 1.160 . S
O295 C294 1.306 . S
O295 Cd296 2.228 . S
Cd296 O295 2.228 . S
Cd296 O300 2.273 . S
Cd296 O304 2.277 . S
O297 C294 1.160 . S
O297 Cd298 2.203 . S
Cd298 O297 2.203 . S
Cd298 O300 2.411 . S
Cd298 O301 2.333 . S
Cd298 O302 2.352 . S
Cd298 O306 2.277 . S
Cd298 O307 2.356 . S
C299 O304 1.209 . S
C299 O306 1.226 . S
O300 Cd296 2.273 . S
O300 Cd298 2.411 . S
O300 C303 1.320 . S
O301 Cd298 2.333 . S
O301 C303 1.214 . S
O302 Cd298 2.352 . S
O302 C305 1.258 . S
C303 O300 1.320 . S
C303 O301 1.214 . S
O304 Cd296 2.277 . S
O304 C299 1.209 . S
C305 O302 1.258 . S
C305 O307 1.282 . S
O306 Cd298 2.277 . S
O306 C299 1.226 . S
O307 Cd298 2.356 . S
O307 C305 1.282 . S
C308 O309 1.306 . S
C308 O311 1.160 . S
O309 C308 1.306 . S
O309 Cd310 2.228 . S
Cd310 O309 2.228 . S
Cd310 O314 2.273 . S
Cd310 O318 2.277 . S
O311 C308 1.160 . S
O311 Cd312 2.203 . S
Cd312 O311 2.203 . S
Cd312 O314 2.411 . S
Cd312 O315 2.333 . S
Cd312 O316 2.352 . S
Cd312 O320 2.277 . S
Cd312 O321 2.356 . S
C313 O318 1.209 . S
C313 O320 1.226 . S
O314 Cd310 2.273 . S
O314 Cd312 2.411 . S
O314 C317 1.320 . S
O315 Cd312 2.333 . S
O315 C317 1.214 . S
O316 Cd312 2.352 . S
O316 C319 1.258 . S
C317 O314 1.320 . S
C317 O315 1.214 . S
O318 Cd310 2.277 . S
O318 C313 1.209 . S
C319 O316 1.258 . S
C319 O321 1.282 . S
O320 Cd312 2.277 . S
O320 C313 1.226 . S
O321 Cd312 2.356 . S
O321 C319 1.282 . S
C322 O323 1.306 . S
C322 O325 1.160 . S
O323 C322 1.306 . S
O323 Cd324 2.228 . S
Cd324 O323 2.228 . S
Cd324 O328 2.273 . S
Cd324 O332 2.277 . S
O325 C322 1.160 . S
O325 Cd326 2.203 . S
Cd326 O325 2.203 . S
Cd326 O328 2.411 . S
Cd326 O329 2.333 . S
Cd326 O330 2.352 . S
Cd326 O334 2.277 . S
Cd326 O335 2.356 . S
C327 O332 1.209 . S
C327 O334 1.226 . S
O328 Cd324 2.273 . S
O328 Cd326 2.411 . S
O328 C331 1.320 . S
O329 Cd326 2.333 . S
O329 C331 1.214 . S
O330 Cd326 2.352 . S
O330 C333 1.258 . S
C331 O328 1.320 . S
C331 O329 1.214 . S
O332 Cd324 2.277 . S
O332 C327 1.209 . S
C333 O330 1.258 . S
C333 O335 1.282 . S
O334 Cd326 2.277 . S
O334 C327 1.226 . S
O335 Cd326 2.356 . S
O335 C333 1.282 . S
Dy336 O340 2.398 1_554 S
Dy336 O341 2.491 . S
Dy336 O342 2.418 1_554 S
Dy336 O343 2.664 1_654 S
Dy336 O347 2.315 1_654 S
Dy336 O351 2.310 1_655 S
Dy336 O352 2.351 1_545 S
C337 O348 1.185 . S
C337 O349 1.355 . S
C338 O340 1.185 . S
C338 O341 1.355 1_556 S
Dy339 O343 2.310 1_554 S
Dy339 O346 2.351 . S
Dy339 O348 2.398 . S
Dy339 O349 2.491 . S
Dy339 O350 2.403 . S
Dy339 O351 2.664 . S
Dy339 O353 2.315 1_545 S
O340 Dy336 2.398 1_556 S
O340 C338 1.185 . S
O341 Dy336 2.491 . S
O341 C338 1.355 1_554 S
O342 Dy336 2.418 1_556 S
O342 C344 1.223 1_655 S
O343 Dy336 2.664 1_456 S
O343 Dy339 2.310 1_556 S
O343 C344 1.268 . S
C344 O342 1.223 1_455 S
C344 O343 1.268 . S
C345 O350 1.254 . S
C345 O351 1.268 . S
O346 Dy339 2.351 . S
O346 C354 1.249 . S
O347 Dy336 2.315 1_456 S
O347 C354 1.291 1_556 S
O348 C337 1.185 . S
O348 Dy339 2.398 . S
O349 C337 1.355 . S
O349 Dy339 2.491 . S
O350 Dy339 2.403 . S
O350 C345 1.254 . S
O351 Dy336 2.310 1_455 S
O351 Dy339 2.664 . S
O351 C345 1.268 . S
O352 Dy336 2.351 1_565 S
O352 C355 1.249 1_655 S
O353 Dy339 2.315 1_565 S
O353 C355 1.274 . S
C354 O346 1.249 . S
C354 O347 1.291 1_554 S
C355 O352 1.249 1_455 S
C355 O353 1.274 . S
Dy356 O360 2.398 . S
Dy356 O361 2.491 . S
Dy356 O362 2.403 . S
Dy356 O363 2.664 . S
Dy356 O367 2.326 . S
Dy356 O371 2.310 . S
Dy356 O372 2.351 . S
C357 O368 1.185 . S
C357 O369 1.355 . S
C358 O360 1.185 . S
C358 O361 1.355 . S
Dy359 O363 2.310 . S
Dy359 O366 2.351 . S
Dy359 O368 2.398 . S
Dy359 O369 2.491 . S
Dy359 O370 2.403 . S
Dy359 O371 2.664 . S
Dy359 O373 2.326 . S
O360 Dy356 2.398 . S
O360 C358 1.185 . S
O361 Dy356 2.491 . S
O361 C358 1.355 . S
O362 Dy356 2.403 . S
O362 C364 1.254 . S
O363 Dy356 2.664 . S
O363 Dy359 2.310 . S
O363 C364 1.268 . S
C364 O362 1.254 . S
C364 O363 1.268 . S
C365 O370 1.254 . S
C365 O371 1.268 . S
O366 Dy359 2.351 . S
O366 C374 1.249 . S
O367 Dy356 2.326 . S
O367 C374 1.267 . S
O368 C357 1.185 . S
O368 Dy359 2.398 . S
O369 C357 1.355 . S
O369 Dy359 2.491 . S
O370 Dy359 2.403 . S
O370 C365 1.254 . S
O371 Dy356 2.310 . S
O371 Dy359 2.664 . S
O371 C365 1.268 . S
O372 Dy356 2.351 . S
O372 C375 1.249 . S
O373 Dy359 2.326 . S
O373 C375 1.267 . S
C374 O366 1.249 . S
C374 O367 1.267 . S
C375 O372 1.249 . S
C375 O373 1.267 . S
Dy376 O380 2.398 . S
Dy376 O381 2.501 . S
Dy376 O382 2.403 . S
Dy376 O383 2.664 . S
Dy376 O387 2.326 1_545 S
Dy376 O391 2.310 . S
Dy376 O392 2.351 . S
C377 O388 1.185 . S
C377 O389 1.355 . S
C378 O380 1.155 1_565 S
C378 O381 1.355 1_565 S
Dy379 O383 2.310 . S
Dy379 O386 2.351 1_545 S
Dy379 O388 2.398 . S
Dy379 O389 2.491 . S
Dy379 O390 2.403 . S
Dy379 O391 2.664 . S
Dy379 O393 2.326 . S
O380 Dy376 2.398 . S
O380 C378 1.155 1_545 S
O381 Dy376 2.501 . S
O381 C378 1.355 1_545 S
O382 Dy376 2.403 . S
O382 C384 1.254 . S
O383 Dy376 2.664 . S
O383 Dy379 2.310 . S
O383 C384 1.268 . S
C384 O382 1.254 . S
C384 O383 1.268 . S
C385 O390 1.254 . S
C385 O391 1.268 . S
O386 Dy379 2.351 1_565 S
O386 C394 1.249 . S
O387 Dy376 2.326 1_565 S
O387 C394 1.267 . S
O388 C377 1.185 . S
O388 Dy379 2.398 . S
O389 C377 1.355 . S
O389 Dy379 2.491 . S
O390 Dy379 2.403 . S
O390 C385 1.254 . S
O391 Dy376 2.310 . S
O391 Dy379 2.664 . S
O391 C385 1.268 . S
O392 Dy376 2.351 . S
O392 C395 1.249 . S
O393 Dy379 2.326 . S
O393 C395 1.267 . S
C394 O386 1.249 . S
C394 O387 1.267 . S
C395 O392 1.249 . S
C395 O393 1.267 . S
Dy396 O400 2.398 . S
Dy396 O401 2.491 . S
Dy396 O402 2.403 . S
Dy396 O403 2.664 . S
Dy396 O407 2.326 . S
Dy396 O411 2.310 . S
Dy396 O412 2.351 . S
C397 O408 1.185 . S
C397 O409 1.355 . S
C398 O400 1.185 . S
C398 O401 1.355 . S
Dy399 O403 2.310 . S
Dy399 O406 2.351 . S
Dy399 O408 2.398 . S
Dy399 O409 2.491 . S
Dy399 O410 2.403 . S
Dy399 O411 2.664 . S
Dy399 O413 2.326 . S
O400 Dy396 2.398 . S
O400 C398 1.185 . S
O401 Dy396 2.491 . S
O401 C398 1.355 . S
O402 Dy396 2.403 . S
O402 C404 1.254 . S
O403 Dy396 2.664 . S
O403 Dy399 2.310 . S
O403 C404 1.268 . S
C404 O402 1.254 . S
C404 O403 1.268 . S
C405 O410 1.254 . S
C405 O411 1.268 . S
O406 Dy399 2.351 . S
O406 C414 1.249 . S
O407 Dy396 2.326 . S
O407 C414 1.267 . S
O408 C397 1.185 . S
O408 Dy399 2.398 . S
O409 C397 1.355 . S
O409 Dy399 2.491 . S
O410 Dy399 2.403 . S
O410 C405 1.254 . S
O411 Dy396 2.310 . S
O411 Dy399 2.664 . S
O411 C405 1.268 . S
O412 Dy396 2.351 . S
O412 C415 1.249 . S
O413 Dy399 2.326 . S
O413 C415 1.267 . S
C414 O406 1.249 . S
C414 O407 1.267 . S
C415 O412 1.249 . S
C415 O413 1.267 . S
Dy416 O420 2.398 . S
Dy416 O421 2.491 1_455 S
Dy416 O422 2.403 . S
Dy416 O423 2.664 . S
Dy416 O427 2.326 . S
Dy416 O431 2.310 1_455 S
Dy416 O432 2.351 1_545 S
C417 O428 1.185 . S
C417 O429 1.355 . S
C418 O420 1.148 1_655 S
C418 O421 1.381 . S
Dy419 O423 2.310 . S
Dy419 O426 2.351 . S
Dy419 O428 2.398 . S
Dy419 O429 2.491 . S
Dy419 O430 2.403 1_455 S
Dy419 O431 2.664 1_455 S
Dy419 O433 2.319 1_545 S
O420 Dy416 2.398 . S
O420 C418 1.148 1_455 S
O421 Dy416 2.491 1_655 S
O421 C418 1.381 . S
O422 Dy416 2.403 . S
O422 C424 1.254 . S
O423 Dy416 2.664 . S
O423 Dy419 2.310 . S
O423 C424 1.268 . S
C424 O422 1.254 . S
C424 O423 1.268 . S
C425 O430 1.254 . S
C425 O431 1.268 . S
O426 Dy419 2.351 . S
O426 C434 1.249 . S
O427 Dy416 2.326 . S
O427 C434 1.267 . S
O428 C417 1.185 . S
O428 Dy419 2.398 . S
O429 C417 1.355 . S
O429 Dy419 2.491 . S
O430 Dy419 2.403 1_655 S
O430 C425 1.254 . S
O431 Dy416 2.310 1_655 S
O431 Dy419 2.664 1_655 S
O431 C425 1.268 . S
O432 Dy416 2.351 1_565 S
O432 C435 1.249 . S
O433 Dy419 2.319 1_565 S
O433 C435 1.272 . S
C434 O426 1.249 . S
C434 O427 1.267 . S
C435 O432 1.249 . S
C435 O433 1.272 . S
Dy436 O440 2.398 . S
Dy436 O441 2.491 . S
Dy436 O442 2.403 . S
Dy436 O443 2.664 . S
Dy436 O447 2.326 . S
Dy436 O451 2.310 . S
Dy436 O452 2.351 . S
C437 O448 1.185 . S
C437 O449 1.355 . S
C438 O440 1.185 . S
C438 O441 1.355 . S
Dy439 O443 2.310 . S
Dy439 O446 2.351 . S
Dy439 O448 2.398 . S
Dy439 O449 2.491 . S
Dy439 O450 2.403 . S
Dy439 O451 2.664 . S
Dy439 O453 2.326 . S
O440 Dy436 2.398 . S
O440 C438 1.185 . S
O441 Dy436 2.491 . S
O441 C438 1.355 . S
O442 Dy436 2.403 . S
O442 C444 1.254 . S
O443 Dy436 2.664 . S
O443 Dy439 2.310 . S
O443 C444 1.268 . S
C444 O442 1.254 . S
C444 O443 1.268 . S
C445 O450 1.254 . S
C445 O451 1.268 . S
O446 Dy439 2.351 . S
O446 C454 1.249 . S
O447 Dy436 2.326 . S
O447 C454 1.267 . S
O448 C437 1.185 . S
O448 Dy439 2.398 . S
O449 C437 1.355 . S
O449 Dy439 2.491 . S
O450 Dy439 2.403 . S
O450 C445 1.254 . S
O451 Dy436 2.310 . S
O451 Dy439 2.664 . S
O451 C445 1.268 . S
O452 Dy436 2.351 . S
O452 C455 1.249 . S
O453 Dy439 2.326 . S
O453 C455 1.267 . S
C454 O446 1.249 . S
C454 O447 1.267 . S
C455 O452 1.249 . S
C455 O453 1.267 . S
Dy456 O460 2.398 1_545 S
Dy456 O461 2.491 . S
Dy456 O462 2.403 1_545 S
Dy456 O463 2.664 . S
Dy456 O467 2.326 . S
Dy456 O471 2.310 . S
Dy456 O472 2.351 . S
C457 O468 1.185 . S
C457 O469 1.355 . S
C458 O460 1.185 1_545 S
C458 O461 1.355 . S
Dy459 O463 2.310 1_556 S
Dy459 O466 2.351 . S
Dy459 O468 2.398 . S
Dy459 O469 2.491 . S
Dy459 O470 2.403 1_556 S
Dy459 O471 2.664 1_556 S
Dy459 O473 2.328 . S
O460 Dy456 2.398 1_565 S
O460 C458 1.185 1_565 S
O461 Dy456 2.491 . S
O461 C458 1.355 . S
O462 Dy456 2.403 1_565 S
O462 C464 1.254 . S
O463 Dy456 2.664 . S
O463 Dy459 2.310 1_554 S
O463 C464 1.268 1_545 S
C464 O462 1.254 . S
C464 O463 1.268 1_565 S
C465 O470 1.254 . S
C465 O471 1.268 . S
O466 Dy459 2.351 . S
O466 C474 1.249 1_556 S
O467 Dy456 2.326 . S
O467 C474 1.267 . S
O468 C457 1.185 . S
O468 Dy459 2.398 . S
O469 C457 1.355 . S
O469 Dy459 2.491 . S
O470 Dy459 2.403 1_554 S
O470 C465 1.254 . S
O471 Dy456 2.310 . S
O471 Dy459 2.664 1_554 S
O471 C465 1.268 . S
O472 Dy456 2.351 . S
O472 C475 1.249 . S
O473 Dy459 2.328 . S
O473 C475 1.263 1_556 S
C474 O466 1.249 1_554 S
C474 O467 1.267 . S
C475 O472 1.249 . S
C475 O473 1.263 1_554 S
Dy476 O480 2.398 . S
Dy476 O481 2.491 . S
Dy476 O482 2.403 . S
Dy476 O483 2.664 . S
Dy476 O487 2.326 . S
Dy476 O491 2.310 . S
Dy476 O492 2.351 . S
C477 O488 1.185 . S
C477 O489 1.355 . S
C478 O480 1.185 . S
C478 O481 1.355 . S
Dy479 O483 2.310 . S
Dy479 O486 2.351 . S
Dy479 O488 2.398 . S
Dy479 O489 2.491 . S
Dy479 O490 2.403 . S
Dy479 O491 2.664 . S
Dy479 O493 2.326 . S
O480 Dy476 2.398 . S
O480 C478 1.185 . S
O481 Dy476 2.491 . S
O481 C478 1.355 . S
O482 Dy476 2.403 . S
O482 C484 1.254 . S
O483 Dy476 2.664 . S
O483 Dy479 2.310 . S
O483 C484 1.268 . S
C484 O482 1.254 . S
C484 O483 1.268 . S
C485 O490 1.254 . S
C485 O491 1.268 . S
O486 Dy479 2.351 . S
O486 C494 1.249 . S
O487 Dy476 2.326 . S
O487 C494 1.267 . S
O488 C477 1.185 . S
O488 Dy479 2.398 . S
O489 C477 1.355 . S
O489 Dy479 2.491 . S
O490 Dy479 2.403 . S
O490 C485 1.254 . S
O491 Dy476 2.310 . S
O491 Dy479 2.664 . S
O491 C485 1.268 . S
O492 Dy476 2.351 . S
O492 C495 1.249 . S
O493 Dy479 2.326 . S
O493 C495 1.267 . S
C494 O486 1.249 . S
C494 O487 1.267 . S
C495 O492 1.249 . S
C495 O493 1.267 . S
Dy496 O500 2.398 . S
Dy496 O501 2.491 . S
Dy496 O502 2.403 . S
Dy496 O503 2.664 1_556 S
Dy496 O507 2.326 . S
Dy496 O511 2.310 1_556 S
Dy496 O512 2.351 1_556 S
C497 O508 1.185 . S
C497 O509 1.355 . S
C498 O500 1.185 . S
C498 O501 1.355 . S
Dy499 O503 2.310 . S
Dy499 O506 2.351 . S
Dy499 O508 2.398 . S
Dy499 O509 2.491 . S
Dy499 O510 2.403 . S
Dy499 O511 2.664 . S
Dy499 O513 2.326 . S
O500 Dy496 2.398 . S
O500 C498 1.185 . S
O501 Dy496 2.491 . S
O501 C498 1.355 . S
O502 Dy496 2.403 . S
O502 C504 1.254 1_556 S
O503 Dy496 2.664 1_554 S
O503 Dy499 2.310 . S
O503 C504 1.268 . S
C504 O502 1.254 1_554 S
C504 O503 1.268 . S
C505 O510 1.254 . S
C505 O511 1.268 . S
O506 Dy499 2.351 . S
O506 C514 1.291 . S
O507 Dy496 2.326 . S
O507 C514 1.241 1_556 S
O508 C497 1.185 . S
O508 Dy499 2.398 . S
O509 C497 1.355 . S
O509 Dy499 2.491 . S
O510 Dy499 2.403 . S
O510 C505 1.254 . S
O511 Dy496 2.310 1_554 S
O511 Dy499 2.664 . S
O511 C505 1.268 . S
O512 Dy496 2.351 1_554 S
O512 C515 1.249 . S
O513 Dy499 2.326 . S
O513 C515 1.267 . S
C514 O506 1.291 . S
C514 O507 1.241 1_554 S
C515 O512 1.249 . S
C515 O513 1.267 . S
Dy516 O520 2.398 . S
Dy516 O521 2.491 . S
Dy516 O522 2.403 . S
Dy516 O523 2.664 . S
Dy516 O527 2.326 . S
Dy516 O531 2.310 . S
Dy516 O532 2.351 . S
C517 O528 1.185 . S
C517 O529 1.355 . S
C518 O520 1.185 . S
C518 O521 1.355 . S
Dy519 O523 2.310 . S
Dy519 O526 2.351 . S
Dy519 O528 2.398 . S
Dy519 O529 2.491 . S
Dy519 O530 2.403 . S
Dy519 O531 2.664 . S
Dy519 O533 2.326 . S
O520 Dy516 2.398 . S
O520 C518 1.185 . S
O521 Dy516 2.491 . S
O521 C518 1.355 . S
O522 Dy516 2.403 . S
O522 C524 1.254 . S
O523 Dy516 2.664 . S
O523 Dy519 2.310 . S
O523 C524 1.268 . S
C524 O522 1.254 . S
C524 O523 1.268 . S
C525 O530 1.254 . S
C525 O531 1.268 . S
O526 Dy519 2.351 . S
O526 C534 1.249 . S
O527 Dy516 2.326 . S
O527 C534 1.267 . S
O528 C517 1.185 . S
O528 Dy519 2.398 . S
O529 C517 1.355 . S
O529 Dy519 2.491 . S
O530 Dy519 2.403 . S
O530 C525 1.254 . S
O531 Dy516 2.310 . S
O531 Dy519 2.664 . S
O531 C525 1.268 . S
O532 Dy516 2.351 . S
O532 C535 1.249 . S
O533 Dy519 2.326 . S
O533 C535 1.267 . S
C534 O526 1.249 . S
C534 O527 1.267 . S
C535 O532 1.249 . S
C535 O533 1.267 . S
Dy536 O540 2.396 . S
Dy536 O541 2.491 1_455 S
Dy536 O542 2.403 . S
Dy536 O543 2.664 . S
Dy536 O547 2.326 1_455 S
Dy536 O551 2.310 . S
Dy536 O552 2.351 . S
C537 O548 1.185 . S
C537 O549 1.355 . S
C538 O540 1.187 1_655 S
C538 O541 1.355 . S
Dy539 O543 2.310 . S
Dy539 O546 2.351 1_455 S
Dy539 O548 2.398 . S
Dy539 O549 2.491 . S
Dy539 O550 2.403 . S
Dy539 O551 2.664 . S
Dy539 O553 2.326 . S
O540 Dy536 2.396 . S
O540 C538 1.187 1_455 S
O541 Dy536 2.491 1_655 S
O541 C538 1.355 . S
O542 Dy536 2.403 . S
O542 C544 1.254 . S
O543 Dy536 2.664 . S
O543 Dy539 2.310 . S
O543 C544 1.268 . S
C544 O542 1.254 . S
C544 O543 1.268 . S
C545 O550 1.254 . S
C545 O551 1.268 . S
O546 Dy539 2.351 1_655 S
O546 C554 1.249 . S
O547 Dy536 2.326 1_655 S
O547 C554 1.267 . S
O548 C537 1.185 . S
O548 Dy539 2.398 . S
O549 C537 1.355 . S
O549 Dy539 2.491 . S
O550 Dy539 2.403 . S
O550 C545 1.254 . S
O551 Dy536 2.310 . S
O551 Dy539 2.664 . S
O551 C545 1.268 . S
O552 Dy536 2.351 . S
O552 C555 1.249 . S
O553 Dy539 2.326 . S
O553 C555 1.267 . S
C554 O546 1.249 . S
C554 O547 1.267 . S
C555 O552 1.249 . S
C555 O553 1.267 . S
Dy556 O560 2.398 . S
Dy556 O561 2.491 . S
Dy556 O562 2.403 . S
Dy556 O563 2.664 . S
Dy556 O567 2.326 . S
Dy556 O571 2.310 . S
Dy556 O572 2.351 . S
C557 O568 1.185 . S
C557 O569 1.355 . S
C558 O560 1.185 . S
C558 O561 1.355 . S
Dy559 O563 2.310 . S
Dy559 O566 2.351 . S
Dy559 O568 2.398 . S
Dy559 O569 2.491 . S
Dy559 O570 2.403 . S
Dy559 O571 2.664 . S
Dy559 O573 2.326 . S
O560 Dy556 2.398 . S
O560 C558 1.185 . S
O561 Dy556 2.491 . S
O561 C558 1.355 . S
O562 Dy556 2.403 . S
O562 C564 1.254 . S
O563 Dy556 2.664 . S
O563 Dy559 2.310 . S
O563 C564 1.268 . S
C564 O562 1.254 . S
C564 O563 1.268 . S
C565 O570 1.254 . S
C565 O571 1.268 . S
O566 Dy559 2.351 . S
O566 C574 1.249 . S
O567 Dy556 2.326 . S
O567 C574 1.267 . S
O568 C557 1.185 . S
O568 Dy559 2.398 . S
O569 C557 1.355 . S
O569 Dy559 2.491 . S
O570 Dy559 2.403 . S
O570 C565 1.254 . S
O571 Dy556 2.310 . S
O571 Dy559 2.664 . S
O571 C565 1.268 . S
O572 Dy556 2.351 . S
O572 C575 1.249 . S
O573 Dy559 2.326 . S
O573 C575 1.267 . S
C574 O566 1.249 . S
C574 O567 1.267 . S
C575 O572 1.249 . S
C575 O573 1.267 . S
Dy576 O580 2.398 . S
Dy576 O581 2.491 . S
Dy576 O582 2.403 . S
Dy576 O583 2.664 . S
Dy576 O587 2.326 . S
Dy576 O591 2.310 . S
Dy576 O592 2.351 . S
C577 O588 1.185 . S
C577 O589 1.355 . S
C578 O580 1.185 . S
C578 O581 1.355 . S
Dy579 O583 2.310 . S
Dy579 O586 2.351 . S
Dy579 O588 2.398 . S
Dy579 O589 2.491 . S
Dy579 O590 2.403 . S
Dy579 O591 2.664 . S
Dy579 O593 2.326 . S
O580 Dy576 2.398 . S
O580 C578 1.185 . S
O581 Dy576 2.491 . S
O581 C578 1.355 . S
O582 Dy576 2.403 . S
O582 C584 1.254 . S
O583 Dy576 2.664 . S
O583 Dy579 2.310 . S
O583 C584 1.268 . S
C584 O582 1.254 . S
C584 O583 1.268 . S
C585 O590 1.254 . S
C585 O591 1.268 . S
O586 Dy579 2.351 . S
O586 C594 1.249 . S
O587 Dy576 2.326 . S
O587 C594 1.267 . S
O588 C577 1.185 . S
O588 Dy579 2.398 . S
O589 C577 1.355 . S
O589 Dy579 2.491 . S
O590 Dy579 2.403 . S
O590 C585 1.254 . S
O591 Dy576 2.310 . S
O591 Dy579 2.664 . S
O591 C585 1.268 . S
O592 Dy576 2.351 . S
O592 C595 1.249 . S
O593 Dy579 2.326 . S
O593 C595 1.267 . S
C594 O586 1.249 . S
C594 O587 1.267 . S
C595 O592 1.249 . S
C595 O593 1.267 . S
Dy596 O600 2.398 . S
Dy596 O601 2.491 . S
Dy596 O602 2.403 . S
Dy596 O603 2.664 . S
Dy596 O607 2.326 . S
Dy596 O611 2.310 . S
Dy596 O612 2.351 . S
C597 O608 1.185 . S
C597 O609 1.355 . S
C598 O600 1.185 . S
C598 O601 1.355 . S
Dy599 O603 2.310 . S
Dy599 O606 2.351 . S
Dy599 O608 2.398 . S
Dy599 O609 2.491 . S
Dy599 O610 2.403 . S
Dy599 O611 2.664 . S
Dy599 O613 2.326 . S
O600 Dy596 2.398 . S
O600 C598 1.185 . S
O601 Dy596 2.491 . S
O601 C598 1.355 . S
O602 Dy596 2.403 . S
O602 C604 1.254 . S
O603 Dy596 2.664 . S
O603 Dy599 2.310 . S
O603 C604 1.268 . S
C604 O602 1.254 . S
C604 O603 1.268 . S
C605 O610 1.254 . S
C605 O611 1.268 . S
O606 Dy599 2.351 . S
O606 C614 1.249 . S
O607 Dy596 2.326 . S
O607 C614 1.267 . S
O608 C597 1.185 . S
O608 Dy599 2.398 . S
O609 C597 1.355 . S
O609 Dy599 2.491 . S
O610 Dy599 2.403 . S
O610 C605 1.254 . S
O611 Dy596 2.310 . S
O611 Dy599 2.664 . S
O611 C605 1.268 . S
O612 Dy596 2.351 . S
O612 C615 1.249 . S
O613 Dy599 2.326 . S
O613 C615 1.267 . S
C614 O606 1.249 . S
C614 O607 1.267 . S
C615 O612 1.249 . S
C615 O613 1.267 . S
Dy616 O620 2.398 . S
Dy616 O621 2.491 . S
Dy616 O622 2.403 . S
Dy616 O623 2.664 . S
Dy616 O627 2.326 . S
Dy616 O631 2.310 . S
Dy616 O632 2.351 . S
C617 O628 1.185 . S
C617 O629 1.355 . S
C618 O620 1.185 . S
C618 O621 1.355 . S
Dy619 O623 2.310 . S
Dy619 O626 2.351 . S
Dy619 O628 2.398 . S
Dy619 O629 2.491 . S
Dy619 O630 2.403 . S
Dy619 O631 2.664 . S
Dy619 O633 2.326 . S
O620 Dy616 2.398 . S
O620 C618 1.185 . S
O621 Dy616 2.491 . S
O621 C618 1.355 . S
O622 Dy616 2.403 . S
O622 C624 1.254 . S
O623 Dy616 2.664 . S
O623 Dy619 2.310 . S
O623 C624 1.268 . S
C624 O622 1.254 . S
C624 O623 1.268 . S
C625 O630 1.254 . S
C625 O631 1.268 . S
O626 Dy619 2.351 . S
O626 C634 1.249 . S
O627 Dy616 2.326 . S
O627 C634 1.267 . S
O628 C617 1.185 . S
O628 Dy619 2.398 . S
O629 C617 1.355 . S
O629 Dy619 2.491 . S
O630 Dy619 2.403 . S
O630 C625 1.254 . S
O631 Dy616 2.310 . S
O631 Dy619 2.664 . S
O631 C625 1.268 . S
O632 Dy616 2.351 . S
O632 C635 1.249 . S
O633 Dy619 2.326 . S
O633 C635 1.267 . S
C634 O626 1.249 . S
C634 O627 1.267 . S
C635 O632 1.249 . S
C635 O633 1.267 . S
Dy636 O640 2.398 1_554 S
Dy636 O641 2.491 . S
Dy636 O642 2.403 1_554 S
Dy636 O643 2.664 1_554 S
Dy636 O647 2.326 1_554 S
Dy636 O651 2.310 . S
Dy636 O652 2.351 . S
C637 O648 1.185 . S
C637 O649 1.355 . S
C638 O640 1.158 1_554 S
C638 O641 1.390 . S
Dy639 O643 2.310 1_654 S
Dy639 O646 2.351 . S
Dy639 O648 2.398 . S
Dy639 O649 2.491 . S
Dy639 O650 2.403 . S
Dy639 O651 2.664 1_655 S
Dy639 O653 2.326 1_655 S
O640 Dy636 2.398 1_556 S
O640 C638 1.158 1_556 S
O641 Dy636 2.491 . S
O641 C638 1.390 . S
O642 Dy636 2.403 1_556 S
O642 C644 1.254 . S
O643 Dy636 2.664 1_556 S
O643 Dy639 2.310 1_456 S
O643 C644 1.268 . S
C644 O642 1.254 . S
C644 O643 1.268 . S
C645 O650 1.254 1_455 S
C645 O651 1.268 . S
O646 Dy639 2.351 . S
O646 C654 1.249 1_655 S
O647 Dy636 2.326 1_556 S
O647 C654 1.267 1_556 S
O648 C637 1.185 . S
O648 Dy639 2.398 . S
O649 C637 1.355 . S
O649 Dy639 2.491 . S
O650 Dy639 2.403 . S
O650 C645 1.254 1_655 S
O651 Dy636 2.310 . S
O651 Dy639 2.664 1_455 S
O651 C645 1.268 . S
O652 Dy636 2.351 . S
O652 C655 1.249 . S
O653 Dy639 2.326 1_455 S
O653 C655 1.267 . S
C654 O646 1.249 1_455 S
C654 O647 1.267 1_554 S
C655 O652 1.249 . S
C655 O653 1.267 . S
C656 C657 1.345 1_655 S
C656 C658 1.327 . S
C656 H681 0.950 . S
C657 C656 1.345 1_455 S
C657 C673 1.356 . S
C658 C656 1.327 . S
C658 C677 1.429 1_655 S
C658 H682 0.950 . S
C659 C676 1.574 . S
C659 C678 1.368 . S
C659 H683 0.949 . S
H660 C664 0.937 1_655 S
C661 C662 1.349 1_556 S
C661 C663 1.327 . S
C661 H684 0.950 . S
C662 C661 1.349 1_554 S
C662 C674 1.349 . S
C663 C661 1.327 . S
C663 C679 1.429 . S
C663 H685 0.950 . S
C664 H660 0.937 1_455 S
C664 C672 1.557 1_455 S
C664 C680 1.393 . S
H665 C673 0.950 . S
H666 C671 0.950 . S
H667 C672 0.976 . S
H668 C674 0.950 . S
H669 C675 0.935 1_655 S
H670 C676 0.949 . S
C671 H666 0.950 . S
C671 C673 1.327 . S
C671 C677 1.429 . S
C672 C664 1.557 1_655 S
C672 H667 0.976 . S
C672 C678 1.351 1_655 S
C673 C657 1.356 . S
C673 H665 0.950 . S
C673 C671 1.327 . S
C674 C662 1.349 . S
C674 H668 0.950 . S
C674 C675 1.327 . S
C675 H669 0.935 1_455 S
C675 C674 1.327 . S
C675 C679 1.429 1_554 S
C676 C659 1.574 . S
C676 H670 0.949 . S
C676 C680 1.368 . S
C677 C658 1.429 1_455 S
C677 C671 1.429 . S
C677 C678 1.523 . S
C678 C659 1.368 . S
C678 C672 1.351 1_455 S
C678 C677 1.523 . S
C679 C663 1.429 . S
C679 C675 1.429 1_556 S
C679 C680 1.523 . S
C680 C664 1.393 . S
C680 C676 1.368 . S
C680 C679 1.523 . S
H681 C656 0.950 . S
H682 C658 0.950 . S
H683 C659 0.949 . S
H684 C661 0.950 . S
H685 C663 0.950 . S
C686 C687 1.349 . S
C686 C688 1.327 . S
C686 H711 0.950 . S
C687 C686 1.349 . S
C687 C703 1.349 . S
C688 C686 1.327 . S
C688 C707 1.429 . S
C688 H712 0.950 . S
C689 C706 1.574 . S
C689 C708 1.368 . S
C689 H713 0.949 . S
H690 C694 0.949 . S
C691 C692 1.349 . S
C691 C693 1.327 . S
C691 H714 0.950 . S
C692 C691 1.349 . S
C692 C704 1.349 . S
C693 C691 1.327 . S
C693 C709 1.429 . S
C693 H715 0.950 . S
C694 H690 0.949 . S
C694 C702 1.574 . S
C694 C710 1.368 . S
H695 C703 0.950 . S
H696 C701 0.950 . S
H697 C702 0.949 . S
H698 C704 0.950 . S
H699 C705 0.950 . S
H700 C706 0.949 . S
C701 H696 0.950 . S
C701 C703 1.327 . S
C701 C707 1.429 . S
C702 C694 1.574 . S
C702 H697 0.949 . S
C702 C708 1.368 . S
C703 C687 1.349 . S
C703 H695 0.950 . S
C703 C701 1.327 . S
C704 C692 1.349 . S
C704 H698 0.950 . S
C704 C705 1.327 . S
C705 H699 0.950 . S
C705 C704 1.327 . S
C705 C709 1.429 . S
C706 C689 1.574 . S
C706 H700 0.949 . S
C706 C710 1.368 . S
C707 C688 1.429 . S
C707 C701 1.429 . S
C707 C708 1.523 . S
C708 C689 1.368 . S
C708 C702 1.368 . S
C708 C707 1.523 . S
C709 C693 1.429 . S
C709 C705 1.429 . S
C709 C710 1.523 . S
C710 C694 1.368 . S
C710 C706 1.368 . S
C710 C709 1.523 . S
H711 C686 0.950 . S
H712 C688 0.950 . S
H713 C689 0.949 . S
H714 C691 0.950 . S
H715 C693 0.950 . S
C716 C717 1.349 . S
C716 C718 1.327 . S
C716 H741 0.950 . S
C717 C716 1.349 . S
C717 C733 1.349 . S
C718 C716 1.327 . S
C718 C737 1.429 . S
C718 H742 0.950 . S
C719 C736 1.574 . S
C719 C738 1.368 . S
C719 H743 0.949 . S
H720 C724 0.949 . S
C721 C722 1.349 . S
C721 C723 1.327 . S
C721 H744 0.950 . S
C722 C721 1.349 . S
C722 C734 1.349 . S
C723 C721 1.327 . S
C723 C739 1.429 . S
C723 H745 0.950 . S
C724 H720 0.949 . S
C724 C732 1.574 . S
C724 C740 1.368 . S
H725 C733 0.950 . S
H726 C731 0.950 . S
H727 C732 0.949 . S
H728 C734 0.950 . S
H729 C735 0.950 . S
H730 C736 0.949 . S
C731 H726 0.950 . S
C731 C733 1.327 . S
C731 C737 1.429 . S
C732 C724 1.574 . S
C732 H727 0.949 . S
C732 C738 1.368 . S
C733 C717 1.349 . S
C733 H725 0.950 . S
C733 C731 1.327 . S
C734 C722 1.349 . S
C734 H728 0.950 . S
C734 C735 1.327 . S
C735 H729 0.950 . S
C735 C734 1.327 . S
C735 C739 1.429 . S
C736 C719 1.574 . S
C736 H730 0.949 . S
C736 C740 1.368 . S
C737 C718 1.429 . S
C737 C731 1.429 . S
C737 C738 1.523 . S
C738 C719 1.368 . S
C738 C732 1.368 . S
C738 C737 1.523 . S
C739 C723 1.429 . S
C739 C735 1.429 . S
C739 C740 1.523 . S
C740 C724 1.368 . S
C740 C736 1.368 . S
C740 C739 1.523 . S
H741 C716 0.950 . S
H742 C718 0.950 . S
H743 C719 0.949 . S
H744 C721 0.950 . S
H745 C723 0.950 . S
C746 C747 1.349 . S
C746 C748 1.327 . S
C746 H771 0.950 . S
C747 C746 1.349 . S
C747 C763 1.349 . S
C748 C746 1.327 . S
C748 C767 1.429 . S
C748 H772 0.950 . S
C749 C766 1.574 . S
C749 C768 1.368 . S
C749 H773 0.949 . S
H750 C754 0.949 . S
C751 C752 1.349 . S
C751 C753 1.327 . S
C751 H774 0.950 . S
C752 C751 1.349 . S
C752 C764 1.349 . S
C753 C751 1.327 . S
C753 C769 1.429 . S
C753 H775 0.950 . S
C754 H750 0.949 . S
C754 C762 1.574 . S
C754 C770 1.368 . S
H755 C763 0.950 . S
H756 C761 0.950 . S
H757 C762 0.949 . S
H758 C764 0.950 . S
H759 C765 0.950 . S
H760 C766 0.949 . S
C761 H756 0.950 . S
C761 C763 1.327 . S
C761 C767 1.429 . S
C762 C754 1.574 . S
C762 H757 0.949 . S
C762 C768 1.368 . S
C763 C747 1.349 . S
C763 H755 0.950 . S
C763 C761 1.327 . S
C764 C752 1.349 . S
C764 H758 0.950 . S
C764 C765 1.327 . S
C765 H759 0.950 . S
C765 C764 1.327 . S
C765 C769 1.429 . S
C766 C749 1.574 . S
C766 H760 0.949 . S
C766 C770 1.368 . S
C767 C748 1.429 . S
C767 C761 1.429 . S
C767 C768 1.523 . S
C768 C749 1.368 . S
C768 C762 1.368 . S
C768 C767 1.523 . S
C769 C753 1.429 . S
C769 C765 1.429 . S
C769 C770 1.523 . S
C770 C754 1.368 . S
C770 C766 1.368 . S
C770 C769 1.523 . S
H771 C746 0.950 . S
H772 C748 0.950 . S
H773 C749 0.949 . S
H774 C751 0.950 . S
H775 C753 0.950 . S
C776 C777 1.349 . S
C776 C778 1.327 . S
C776 H801 0.950 . S
C777 C776 1.349 . S
C777 C793 1.349 . S
C778 C776 1.327 . S
C778 C797 1.429 . S
C778 H802 0.950 . S
C779 C796 1.574 . S
C779 C798 1.368 . S
C779 H803 0.949 . S
H780 C784 0.949 . S
C781 C782 1.349 . S
C781 C783 1.327 . S
C781 H804 0.950 . S
C782 C781 1.349 . S
C782 C794 1.349 . S
C783 C781 1.327 . S
C783 C799 1.429 . S
C783 H805 0.950 . S
C784 H780 0.949 . S
C784 C792 1.574 . S
C784 C800 1.368 . S
H785 C793 0.950 . S
H786 C791 0.950 . S
H787 C792 0.949 . S
H788 C794 0.950 . S
H789 C795 0.950 . S
H790 C796 0.949 . S
C791 H786 0.950 . S
C791 C793 1.327 . S
C791 C797 1.429 . S
C792 C784 1.574 . S
C792 H787 0.949 . S
C792 C798 1.368 . S
C793 C777 1.349 . S
C793 H785 0.950 . S
C793 C791 1.327 . S
C794 C782 1.349 . S
C794 H788 0.950 . S
C794 C795 1.327 . S
C795 H789 0.950 . S
C795 C794 1.327 . S
C795 C799 1.429 . S
C796 C779 1.574 . S
C796 H790 0.949 . S
C796 C800 1.368 . S
C797 C778 1.429 . S
C797 C791 1.429 . S
C797 C798 1.523 . S
C798 C779 1.368 . S
C798 C792 1.368 . S
C798 C797 1.523 . S
C799 C783 1.429 . S
C799 C795 1.429 . S
C799 C800 1.523 . S
C800 C784 1.368 . S
C800 C796 1.368 . S
C800 C799 1.523 . S
H801 C776 0.950 . S
H802 C778 0.950 . S
H803 C779 0.949 . S
H804 C781 0.950 . S
H805 C783 0.950 . S
C806 C807 1.349 . S
C806 C808 1.327 . S
C806 H831 0.950 . S
C807 C806 1.349 . S
C807 C823 1.349 . S
C808 C806 1.327 . S
C808 C827 1.429 . S
C808 H832 0.950 . S
C809 C826 1.574 . S
C809 C828 1.368 . S
C809 H833 0.949 . S
H810 C814 0.949 . S
C811 C812 1.349 . S
C811 C813 1.327 . S
C811 H834 0.950 . S
C812 C811 1.349 . S
C812 C824 1.349 . S
C813 C811 1.327 . S
C813 C829 1.429 . S
C813 H835 0.950 . S
C814 H810 0.949 . S
C814 C822 1.574 . S
C814 C830 1.368 . S
H815 C823 0.950 . S
H816 C821 0.950 . S
H817 C822 0.949 . S
H818 C824 0.950 . S
H819 C825 0.950 . S
H820 C826 0.949 . S
C821 H816 0.950 . S
C821 C823 1.327 . S
C821 C827 1.429 . S
C822 C814 1.574 . S
C822 H817 0.949 . S
C822 C828 1.368 . S
C823 C807 1.349 . S
C823 H815 0.950 . S
C823 C821 1.327 . S
C824 C812 1.349 . S
C824 H818 0.950 . S
C824 C825 1.327 . S
C825 H819 0.950 . S
C825 C824 1.327 . S
C825 C829 1.429 . S
C826 C809 1.574 . S
C826 H820 0.949 . S
C826 C830 1.368 . S
C827 C808 1.429 . S
C827 C821 1.429 . S
C827 C828 1.523 . S
C828 C809 1.368 . S
C828 C822 1.368 . S
C828 C827 1.523 . S
C829 C813 1.429 . S
C829 C825 1.429 . S
C829 C830 1.523 . S
C830 C814 1.368 . S
C830 C826 1.368 . S
C830 C829 1.523 . S
H831 C806 0.950 . S
H832 C808 0.950 . S
H833 C809 0.949 . S
H834 C811 0.950 . S
H835 C813 0.950 . S
C836 C837 1.349 . S
C836 C838 1.327 . S
C836 H861 0.950 . S
C837 C836 1.349 . S
C837 C853 1.349 . S
C838 C836 1.327 . S
C838 C857 1.429 . S
C838 H862 0.950 . S
C839 C856 1.574 . S
C839 C858 1.368 . S
C839 H863 0.949 . S
H840 C844 0.949 . S
C841 C842 1.349 . S
C841 C843 1.327 . S
C841 H864 0.950 . S
C842 C841 1.349 . S
C842 C854 1.349 . S
C843 C841 1.327 . S
C843 C859 1.429 . S
C843 H865 0.950 . S
C844 H840 0.949 . S
C844 C852 1.574 . S
C844 C860 1.368 . S
H845 C853 0.950 . S
H846 C851 0.950 . S
H847 C852 0.949 . S
H848 C854 0.950 . S
H849 C855 0.950 . S
H850 C856 0.949 . S
C851 H846 0.950 . S
C851 C853 1.327 . S
C851 C857 1.429 . S
C852 C844 1.574 . S
C852 H847 0.949 . S
C852 C858 1.368 . S
C853 C837 1.349 . S
C853 H845 0.950 . S
C853 C851 1.327 . S
C854 C842 1.349 . S
C854 H848 0.950 . S
C854 C855 1.327 . S
C855 H849 0.950 . S
C855 C854 1.327 . S
C855 C859 1.429 . S
C856 C839 1.574 . S
C856 H850 0.949 . S
C856 C860 1.368 . S
C857 C838 1.429 . S
C857 C851 1.429 . S
C857 C858 1.523 . S
C858 C839 1.368 . S
C858 C852 1.368 . S
C858 C857 1.523 . S
C859 C843 1.429 . S
C859 C855 1.429 . S
C859 C860 1.523 . S
C860 C844 1.368 . S
C860 C856 1.368 . S
C860 C859 1.523 . S
H861 C836 0.950 . S
H862 C838 0.950 . S
H863 C839 0.949 . S
H864 C841 0.950 . S
H865 C843 0.950 . S
C866 C867 1.349 . S
C866 C868 1.327 . S
C866 H891 0.950 . S
C867 C866 1.349 . S
C867 C883 1.349 . S
C868 C866 1.327 . S
C868 C887 1.429 . S
C868 H892 0.950 . S
C869 C886 1.574 . S
C869 C888 1.368 . S
C869 H893 0.949 . S
H870 C874 0.949 . S
C871 C872 1.349 . S
C871 C873 1.327 . S
C871 H894 0.950 . S
C872 C871 1.349 . S
C872 C884 1.349 . S
C873 C871 1.327 . S
C873 C889 1.429 . S
C873 H895 0.950 . S
C874 H870 0.949 . S
C874 C882 1.574 . S
C874 C890 1.368 . S
H875 C883 0.950 . S
H876 C881 0.950 . S
H877 C882 0.949 . S
H878 C884 0.950 . S
H879 C885 0.950 . S
H880 C886 0.949 . S
C881 H876 0.950 . S
C881 C883 1.327 . S
C881 C887 1.429 . S
C882 C874 1.574 . S
C882 H877 0.949 . S
C882 C888 1.368 . S
C883 C867 1.349 . S
C883 H875 0.950 . S
C883 C881 1.327 . S
C884 C872 1.349 . S
C884 H878 0.950 . S
C884 C885 1.327 . S
C885 H879 0.950 . S
C885 C884 1.327 . S
C885 C889 1.429 . S
C886 C869 1.574 . S
C886 H880 0.949 . S
C886 C890 1.368 . S
C887 C868 1.429 . S
C887 C881 1.429 . S
C887 C888 1.523 . S
C888 C869 1.368 . S
C888 C882 1.368 . S
C888 C887 1.523 . S
C889 C873 1.429 . S
C889 C885 1.429 . S
C889 C890 1.523 . S
C890 C874 1.368 . S
C890 C886 1.368 . S
C890 C889 1.523 . S
H891 C866 0.950 . S
H892 C868 0.950 . S
H893 C869 0.949 . S
H894 C871 0.950 . S
H895 C873 0.950 . S
C896 C897 1.349 . S
C896 C898 1.327 . S
C896 H921 0.950 . S
C897 C896 1.349 . S
C897 C913 1.349 . S
C898 C896 1.327 . S
C898 C917 1.429 . S
C898 H922 0.950 . S
C899 C916 1.574 . S
C899 C918 1.368 . S
C899 H923 0.949 . S
H900 C904 0.949 . S
C901 C902 1.349 1_455 S
C901 C903 1.327 1_455 S
C901 H924 0.950 . S
C902 C901 1.349 1_655 S
C902 C914 1.349 . S
C903 C901 1.327 1_655 S
C903 C919 1.429 . S
C903 H925 0.950 . S
C904 H900 0.949 . S
C904 C912 1.574 . S
C904 C920 1.368 . S
H905 C913 0.950 . S
H906 C911 0.950 . S
H907 C912 0.949 . S
H908 C914 0.950 . S
H909 C915 0.950 . S
H910 C916 0.949 . S
C911 H906 0.950 . S
C911 C913 1.327 . S
C911 C917 1.429 . S
C912 C904 1.574 . S
C912 H907 0.949 . S
C912 C918 1.368 . S
C913 C897 1.349 . S
C913 H905 0.950 . S
C913 C911 1.327 . S
C914 C902 1.349 . S
C914 H908 0.950 . S
C914 C915 1.327 . S
C915 H909 0.950 . S
C915 C914 1.327 . S
C915 C919 1.429 . S
C916 C899 1.574 . S
C916 H910 0.949 . S
C916 C920 1.368 . S
C917 C898 1.429 . S
C917 C911 1.429 . S
C917 C918 1.523 . S
C918 C899 1.368 . S
C918 C912 1.368 . S
C918 C917 1.523 . S
C919 C903 1.429 . S
C919 C915 1.429 . S
C919 C920 1.523 . S
C920 C904 1.368 . S
C920 C916 1.368 . S
C920 C919 1.523 . S
H921 C896 0.950 . S
H922 C898 0.950 . S
H923 C899 0.949 . S
H924 C901 0.950 . S
H925 C903 0.950 . S
C926 C927 1.349 . S
C926 C928 1.327 . S
C926 H951 0.950 . S
C927 C926 1.349 . S
C927 C943 1.349 . S
C928 C926 1.327 . S
C928 C947 1.429 . S
C928 H952 0.950 . S
C929 C946 1.574 . S
C929 C948 1.368 . S
C929 H953 0.949 . S
H930 C934 0.949 . S
C931 C932 1.349 . S
C931 C933 1.327 . S
C931 H954 0.950 . S
C932 C931 1.349 . S
C932 C944 1.349 . S
C933 C931 1.327 . S
C933 C949 1.429 . S
C933 H955 0.950 . S
C934 H930 0.949 . S
C934 C942 1.574 . S
C934 C950 1.368 . S
H935 C943 0.950 . S
H936 C941 0.950 . S
H937 C942 0.949 . S
H938 C944 0.950 . S
H939 C945 0.950 . S
H940 C946 0.949 . S
C941 H936 0.950 . S
C941 C943 1.327 . S
C941 C947 1.429 . S
C942 C934 1.574 . S
C942 H937 0.949 . S
C942 C948 1.368 . S
C943 C927 1.349 . S
C943 H935 0.950 . S
C943 C941 1.327 . S
C944 C932 1.349 . S
C944 H938 0.950 . S
C944 C945 1.327 . S
C945 H939 0.950 . S
C945 C944 1.327 . S
C945 C949 1.429 . S
C946 C929 1.574 . S
C946 H940 0.949 . S
C946 C950 1.368 . S
C947 C928 1.429 . S
C947 C941 1.429 . S
C947 C948 1.523 . S
C948 C929 1.368 . S
C948 C942 1.368 . S
C948 C947 1.523 . S
C949 C933 1.429 . S
C949 C945 1.429 . S
C949 C950 1.523 . S
C950 C934 1.368 . S
C950 C946 1.368 . S
C950 C949 1.523 . S
H951 C926 0.950 . S
H952 C928 0.950 . S
H953 C929 0.949 . S
H954 C931 0.950 . S
H955 C933 0.950 . S
C956 C957 1.349 . S
C956 C958 1.327 . S
C956 H981 0.950 . S
C957 C956 1.349 . S
C957 C973 1.349 . S
C958 C956 1.327 . S
C958 C977 1.429 . S
C958 H982 0.950 . S
C959 C976 1.578 . S
C959 C978 1.403 . S
C959 H983 0.911 1_545 S
H960 C964 0.949 . S
C961 C962 1.385 . S
C961 C963 1.326 . S
C961 H984 0.922 1_545 S
C962 C961 1.385 . S
C962 C974 1.349 . S
C963 C961 1.326 . S
C963 C979 1.452 . S
C963 H985 0.919 1_545 S
C964 H960 0.949 . S
C964 C972 1.574 . S
C964 C980 1.368 . S
H965 C973 0.950 1_565 S
H966 C971 0.950 1_565 S
H967 C972 0.949 . S
H968 C974 0.950 . S
H969 C975 0.950 . S
H970 C976 0.934 1_565 S
C971 H966 0.950 1_545 S
C971 C973 1.327 . S
C971 C977 1.429 . S
C972 C964 1.574 . S
C972 H967 0.949 . S
C972 C978 1.368 . S
C973 C957 1.349 . S
C973 H965 0.950 1_545 S
C973 C971 1.327 . S
C974 C962 1.349 . S
C974 H968 0.950 . S
C974 C975 1.327 . S
C975 H969 0.950 . S
C975 C974 1.327 . S
C975 C979 1.429 . S
C976 C959 1.578 . S
C976 H970 0.934 1_545 S
C976 C980 1.390 . S
C977 C958 1.429 . S
C977 C971 1.429 . S
C977 C978 1.523 . S
C978 C959 1.403 . S
C978 C972 1.368 . S
C978 C977 1.523 . S
C979 C963 1.452 . S
C979 C975 1.429 . S
C979 C980 1.523 . S
C980 C964 1.368 . S
C980 C976 1.390 . S
C980 C979 1.523 . S
H981 C956 0.950 . S
H982 C958 0.950 . S
H983 C959 0.911 1_565 S
H984 C961 0.922 1_565 S
H985 C963 0.919 1_565 S
C986 C987 1.349 . S
C986 C988 1.327 . S
C986 H1011 0.950 . S
C987 C986 1.349 . S
C987 C1003 1.349 . S
C988 C986 1.327 . S
C988 C1007 1.429 . S
C988 H1012 0.950 . S
C989 C1006 1.574 . S
C989 C1008 1.368 . S
C989 H1013 0.949 . S
H990 C994 0.949 . S
C991 C992 1.349 . S
C991 C993 1.327 . S
C991 H1014 0.950 . S
C992 C991 1.349 . S
C992 C1004 1.349 . S
C993 C991 1.327 . S
C993 C1009 1.429 . S
C993 H1015 0.950 . S
C994 H990 0.949 . S
C994 C1002 1.574 . S
C994 C1010 1.368 . S
H995 C1003 0.950 . S
H996 C1001 0.950 . S
H997 C1002 0.949 . S
H998 C1004 0.950 . S
H999 C1005 0.950 . S
H1000 C1006 0.949 . S
C1001 H996 0.950 . S
C1001 C1003 1.327 . S
C1001 C1007 1.429 . S
C1002 C994 1.574 . S
C1002 H997 0.949 . S
C1002 C1008 1.368 . S
C1003 C987 1.349 . S
C1003 H995 0.950 . S
C1003 C1001 1.327 . S
C1004 C992 1.349 . S
C1004 H998 0.950 . S
C1004 C1005 1.327 . S
C1005 H999 0.950 . S
C1005 C1004 1.327 . S
C1005 C1009 1.429 . S
C1006 C989 1.574 . S
C1006 H1000 0.949 . S
C1006 C1010 1.368 . S
C1007 C988 1.429 . S
C1007 C1001 1.429 . S
C1007 C1008 1.523 . S
C1008 C989 1.368 . S
C1008 C1002 1.368 . S
C1008 C1007 1.523 . S
C1009 C993 1.429 . S
C1009 C1005 1.429 . S
C1009 C1010 1.523 . S
C1010 C994 1.368 . S
C1010 C1006 1.368 . S
C1010 C1009 1.523 . S
H1011 C986 0.950 . S
H1012 C988 0.950 . S
H1013 C989 0.949 . S
H1014 C991 0.950 . S
H1015 C993 0.950 . S
C1016 C1017 1.349 . S
C1016 C1018 1.327 . S
C1016 H1041 0.950 . S
C1017 C1016 1.349 . S
C1017 C1033 1.349 . S
C1018 C1016 1.327 . S
C1018 C1037 1.429 . S
C1018 H1042 0.950 . S
C1019 C1036 1.574 . S
C1019 C1038 1.368 . S
C1019 H1043 0.949 . S
H1020 C1024 0.949 . S
C1021 C1022 1.349 . S
C1021 C1023 1.327 . S
C1021 H1044 0.950 . S
C1022 C1021 1.349 . S
C1022 C1034 1.349 . S
C1023 C1021 1.327 . S
C1023 C1039 1.429 . S
C1023 H1045 0.950 . S
C1024 H1020 0.949 . S
C1024 C1032 1.574 . S
C1024 C1040 1.368 . S
H1025 C1033 0.950 . S
H1026 C1031 0.950 . S
H1027 C1032 0.949 . S
H1028 C1034 0.968 1_455 S
H1029 C1035 0.950 . S
H1030 C1036 0.949 . S
C1031 H1026 0.950 . S
C1031 C1033 1.327 . S
C1031 C1037 1.429 . S
C1032 C1024 1.574 . S
C1032 H1027 0.949 . S
C1032 C1038 1.368 . S
C1033 C1017 1.349 . S
C1033 H1025 0.950 . S
C1033 C1031 1.327 . S
C1034 C1022 1.349 . S
C1034 H1028 0.968 1_655 S
C1034 C1035 1.327 . S
C1035 H1029 0.950 . S
C1035 C1034 1.327 . S
C1035 C1039 1.429 . S
C1036 C1019 1.574 . S
C1036 H1030 0.949 . S
C1036 C1040 1.368 . S
C1037 C1018 1.429 . S
C1037 C1031 1.429 . S
C1037 C1038 1.523 . S
C1038 C1019 1.368 . S
C1038 C1032 1.368 . S
C1038 C1037 1.523 . S
C1039 C1023 1.429 . S
C1039 C1035 1.429 . S
C1039 C1040 1.523 . S
C1040 C1024 1.368 . S
C1040 C1036 1.368 . S
C1040 C1039 1.523 . S
H1041 C1016 0.950 . S
H1042 C1018 0.950 . S
H1043 C1019 0.949 . S
H1044 C1021 0.950 . S
H1045 C1023 0.950 . S
C1046 C1047 1.349 . S
C1046 C1048 1.327 . S
C1046 H1071 0.950 . S
C1047 C1046 1.349 . S
C1047 C1063 1.349 . S
C1048 C1046 1.327 . S
C1048 C1067 1.429 . S
C1048 H1072 0.950 . S
C1049 C1066 1.574 . S
C1049 C1068 1.368 . S
C1049 H1073 0.949 . S
H1050 C1054 0.949 . S
C1051 C1052 1.349 . S
C1051 C1053 1.327 . S
C1051 H1074 0.950 . S
C1052 C1051 1.349 . S
C1052 C1064 1.349 . S
C1053 C1051 1.327 . S
C1053 C1069 1.429 . S
C1053 H1075 0.950 . S
C1054 H1050 0.949 . S
C1054 C1062 1.574 . S
C1054 C1070 1.368 . S
H1055 C1063 0.950 . S
H1056 C1061 0.950 . S
H1057 C1062 0.949 . S
H1058 C1064 0.950 . S
H1059 C1065 0.950 . S
H1060 C1066 0.949 . S
C1061 H1056 0.950 . S
C1061 C1063 1.327 . S
C1061 C1067 1.429 . S
C1062 C1054 1.574 . S
C1062 H1057 0.949 . S
C1062 C1068 1.368 . S
C1063 C1047 1.349 . S
C1063 H1055 0.950 . S
C1063 C1061 1.327 . S
C1064 C1052 1.349 . S
C1064 H1058 0.950 . S
C1064 C1065 1.327 . S
C1065 H1059 0.950 . S
C1065 C1064 1.327 . S
C1065 C1069 1.429 . S
C1066 C1049 1.574 . S
C1066 H1060 0.949 . S
C1066 C1070 1.368 . S
C1067 C1048 1.429 . S
C1067 C1061 1.429 . S
C1067 C1068 1.523 . S
C1068 C1049 1.368 . S
C1068 C1062 1.368 . S
C1068 C1067 1.523 . S
C1069 C1053 1.429 . S
C1069 C1065 1.429 . S
C1069 C1070 1.523 . S
C1070 C1054 1.368 . S
C1070 C1066 1.368 . S
C1070 C1069 1.523 . S
H1071 C1046 0.950 . S
H1072 C1048 0.950 . S
H1073 C1049 0.949 . S
H1074 C1051 0.950 . S
H1075 C1053 0.950 . S
C1076 C1077 1.349 . S
C1076 C1078 1.327 . S
C1076 H1101 0.950 . S
C1077 C1076 1.349 . S
C1077 C1093 1.349 . S
C1078 C1076 1.327 . S
C1078 C1097 1.429 . S
C1078 H1102 0.950 . S
C1079 C1096 1.574 . S
C1079 C1098 1.368 . S
C1079 H1103 0.949 . S
H1080 C1084 0.949 . S
C1081 C1082 1.349 . S
C1081 C1083 1.327 . S
C1081 H1104 0.950 . S
C1082 C1081 1.349 . S
C1082 C1094 1.349 . S
C1083 C1081 1.327 . S
C1083 C1099 1.429 . S
C1083 H1105 0.950 . S
C1084 H1080 0.949 . S
C1084 C1092 1.574 . S
C1084 C1100 1.368 . S
H1085 C1093 0.950 . S
H1086 C1091 0.950 . S
H1087 C1092 0.949 . S
H1088 C1094 0.950 . S
H1089 C1095 0.950 . S
H1090 C1096 0.949 . S
C1091 H1086 0.950 . S
C1091 C1093 1.327 . S
C1091 C1097 1.429 . S
C1092 C1084 1.574 . S
C1092 H1087 0.949 . S
C1092 C1098 1.368 . S
C1093 C1077 1.349 . S
C1093 H1085 0.950 . S
C1093 C1091 1.327 . S
C1094 C1082 1.349 . S
C1094 H1088 0.950 . S
C1094 C1095 1.327 . S
C1095 H1089 0.950 . S
C1095 C1094 1.327 . S
C1095 C1099 1.429 . S
C1096 C1079 1.574 . S
C1096 H1090 0.949 . S
C1096 C1100 1.368 . S
C1097 C1078 1.429 . S
C1097 C1091 1.429 . S
C1097 C1098 1.523 . S
C1098 C1079 1.368 . S
C1098 C1092 1.368 . S
C1098 C1097 1.523 . S
C1099 C1083 1.429 . S
C1099 C1095 1.429 . S
C1099 C1100 1.523 . S
C1100 C1084 1.368 . S
C1100 C1096 1.368 . S
C1100 C1099 1.523 . S
H1101 C1076 0.950 . S
H1102 C1078 0.950 . S
H1103 C1079 0.949 . S
H1104 C1081 0.950 . S
H1105 C1083 0.950 . S
C1106 C1107 1.349 . S
C1106 C1108 1.327 . S
C1106 H1131 0.950 . S
C1107 C1106 1.349 . S
C1107 C1123 1.349 . S
C1108 C1106 1.327 . S
C1108 C1127 1.429 . S
C1108 H1132 0.950 . S
C1109 C1126 1.574 . S
C1109 C1128 1.368 . S
C1109 H1133 0.949 . S
H1110 C1114 0.949 . S
C1111 C1112 1.349 . S
C1111 C1113 1.327 . S
C1111 H1134 0.950 . S
C1112 C1111 1.349 . S
C1112 C1124 1.349 . S
C1113 C1111 1.327 . S
C1113 C1129 1.429 . S
C1113 H1135 0.950 . S
C1114 H1110 0.949 . S
C1114 C1122 1.574 . S
C1114 C1130 1.368 . S
H1115 C1123 0.950 . S
H1116 C1121 0.950 . S
H1117 C1122 0.949 . S
H1118 C1124 0.950 . S
H1119 C1125 0.950 . S
H1120 C1126 0.949 . S
C1121 H1116 0.950 . S
C1121 C1123 1.327 . S
C1121 C1127 1.429 . S
C1122 C1114 1.574 . S
C1122 H1117 0.949 . S
C1122 C1128 1.368 . S
C1123 C1107 1.349 . S
C1123 H1115 0.950 . S
C1123 C1121 1.327 . S
C1124 C1112 1.349 . S
C1124 H1118 0.950 . S
C1124 C1125 1.327 . S
C1125 H1119 0.950 . S
C1125 C1124 1.327 . S
C1125 C1129 1.429 . S
C1126 C1109 1.574 . S
C1126 H1120 0.949 . S
C1126 C1130 1.368 . S
C1127 C1108 1.429 . S
C1127 C1121 1.429 . S
C1127 C1128 1.523 . S
C1128 C1109 1.368 . S
C1128 C1122 1.368 . S
C1128 C1127 1.523 . S
C1129 C1113 1.429 . S
C1129 C1125 1.429 . S
C1129 C1130 1.523 . S
C1130 C1114 1.368 . S
C1130 C1126 1.368 . S
C1130 C1129 1.523 . S
H1131 C1106 0.950 . S
H1132 C1108 0.950 . S
H1133 C1109 0.949 . S
H1134 C1111 0.950 . S
H1135 C1113 0.950 . S
C1136 C1137 1.349 . S
C1136 C1138 1.327 . S
C1136 H1161 0.950 . S
C1137 C1136 1.349 . S
C1137 C1153 1.349 . S
C1138 C1136 1.327 . S
C1138 C1157 1.429 . S
C1138 H1162 0.950 . S
C1139 C1156 1.574 . S
C1139 C1158 1.368 . S
C1139 H1163 0.949 . S
H1140 C1144 0.949 . S
C1141 C1142 1.349 . S
C1141 C1143 1.327 . S
C1141 H1164 0.950 . S
C1142 C1141 1.349 . S
C1142 C1154 1.349 1_565 S
C1143 C1141 1.327 . S
C1143 C1159 1.429 . S
C1143 H1165 0.950 . S
C1144 H1140 0.949 . S
C1144 C1152 1.574 . S
C1144 C1160 1.368 . S
H1145 C1153 0.950 . S
H1146 C1151 0.950 . S
H1147 C1152 0.949 . S
H1148 C1154 0.950 . S
H1149 C1155 0.950 . S
H1150 C1156 0.949 . S
C1151 H1146 0.950 . S
C1151 C1153 1.327 . S
C1151 C1157 1.429 . S
C1152 C1144 1.574 . S
C1152 H1147 0.949 . S
C1152 C1158 1.368 . S
C1153 C1137 1.349 . S
C1153 H1145 0.950 . S
C1153 C1151 1.327 . S
C1154 C1142 1.349 1_545 S
C1154 H1148 0.950 . S
C1154 C1155 1.327 1_545 S
C1155 H1149 0.950 . S
C1155 C1154 1.327 1_565 S
C1155 C1159 1.429 . S
C1156 C1139 1.574 . S
C1156 H1150 0.949 . S
C1156 C1160 1.368 . S
C1157 C1138 1.429 . S
C1157 C1151 1.429 . S
C1157 C1158 1.523 . S
C1158 C1139 1.368 . S
C1158 C1152 1.368 . S
C1158 C1157 1.523 . S
C1159 C1143 1.429 . S
C1159 C1155 1.429 . S
C1159 C1160 1.523 . S
C1160 C1144 1.368 . S
C1160 C1156 1.368 . S
C1160 C1159 1.523 . S
H1161 C1136 0.950 . S
H1162 C1138 0.950 . S
H1163 C1139 0.949 . S
H1164 C1141 0.950 . S
H1165 C1143 0.950 . S
C1166 C1167 1.349 . S
C1166 C1168 1.327 . S
C1166 H1191 0.950 . S
C1167 C1166 1.349 . S
C1167 C1183 1.349 1_554 S
C1168 C1166 1.327 . S
C1168 C1187 1.429 . S
C1168 H1192 0.950 . S
C1169 C1186 1.574 . S
C1169 C1188 1.368 1_556 S
C1169 H1193 0.949 . S
H1170 C1174 0.949 . S
C1171 C1172 1.349 1_556 S
C1171 C1173 1.327 . S
C1171 H1194 0.950 . S
C1172 C1171 1.349 1_554 S
C1172 C1184 1.349 . S
C1173 C1171 1.327 . S
C1173 C1189 1.429 1_556 S
C1173 H1195 0.950 . S
C1174 H1170 0.949 . S
C1174 C1182 1.574 . S
C1174 C1190 1.368 . S
H1175 C1183 0.950 . S
H1176 C1181 0.950 . S
H1177 C1182 0.949 . S
H1178 C1184 0.950 . S
H1179 C1185 0.950 . S
H1180 C1186 0.949 . S
C1181 H1176 0.950 . S
C1181 C1183 1.327 . S
C1181 C1187 1.429 1_556 S
C1182 C1174 1.574 . S
C1182 H1177 0.949 . S
C1182 C1188 1.368 . S
C1183 C1167 1.349 1_556 S
C1183 H1175 0.950 . S
C1183 C1181 1.327 . S
C1184 C1172 1.349 . S
C1184 H1178 0.950 . S
C1184 C1185 1.327 . S
C1185 H1179 0.950 . S
C1185 C1184 1.327 . S
C1185 C1189 1.429 . S
C1186 C1169 1.574 . S
C1186 H1180 0.949 . S
C1186 C1190 1.368 1_556 S
C1187 C1168 1.429 . S
C1187 C1181 1.429 1_554 S
C1187 C1188 1.523 . S
C1188 C1169 1.368 1_554 S
C1188 C1182 1.368 . S
C1188 C1187 1.523 . S
C1189 C1173 1.429 1_554 S
C1189 C1185 1.429 . S
C1189 C1190 1.523 . S
C1190 C1174 1.368 . S
C1190 C1186 1.368 1_554 S
C1190 C1189 1.523 . S
H1191 C1166 0.950 . S
H1192 C1168 0.950 . S
H1193 C1169 0.949 . S
H1194 C1171 0.950 . S
H1195 C1173 0.950 . S
C1196 C1197 1.349 . S
C1196 C1198 1.327 . S
C1196 H1221 0.950 . S
C1197 C1196 1.349 . S
C1197 C1213 1.349 . S
C1198 C1196 1.327 . S
C1198 C1217 1.429 . S
C1198 H1222 0.950 . S
C1199 C1216 1.574 . S
C1199 C1218 1.368 . S
C1199 H1223 0.949 . S
H1200 C1204 0.949 . S
C1201 C1202 1.349 . S
C1201 C1203 1.327 . S
C1201 H1224 0.950 . S
C1202 C1201 1.349 . S
C1202 C1214 1.349 . S
C1203 C1201 1.327 . S
C1203 C1219 1.429 . S
C1203 H1225 0.950 . S
C1204 H1200 0.949 . S
C1204 C1212 1.574 . S
C1204 C1220 1.368 . S
H1205 C1213 0.950 . S
H1206 C1211 0.950 . S
H1207 C1212 0.949 . S
H1208 C1214 0.950 . S
H1209 C1215 0.950 . S
H1210 C1216 0.949 . S
C1211 H1206 0.950 . S
C1211 C1213 1.327 . S
C1211 C1217 1.429 . S
C1212 C1204 1.574 . S
C1212 H1207 0.949 . S
C1212 C1218 1.368 . S
C1213 C1197 1.349 . S
C1213 H1205 0.950 . S
C1213 C1211 1.327 . S
C1214 C1202 1.349 . S
C1214 H1208 0.950 . S
C1214 C1215 1.327 . S
C1215 H1209 0.950 . S
C1215 C1214 1.327 . S
C1215 C1219 1.429 . S
C1216 C1199 1.574 . S
C1216 H1210 0.949 . S
C1216 C1220 1.368 . S
C1217 C1198 1.429 . S
C1217 C1211 1.429 . S
C1217 C1218 1.523 . S
C1218 C1199 1.368 . S
C1218 C1212 1.368 . S
C1218 C1217 1.523 . S
C1219 C1203 1.429 . S
C1219 C1215 1.429 . S
C1219 C1220 1.523 . S
C1220 C1204 1.368 . S
C1220 C1216 1.368 . S
C1220 C1219 1.523 . S
H1221 C1196 0.950 . S
H1222 C1198 0.950 . S
H1223 C1199 0.949 . S
H1224 C1201 0.950 . S
H1225 C1203 0.950 . S
C1226 C1227 1.349 . S
C1226 C1228 1.327 . S
C1226 H1251 0.950 . S
C1227 C1226 1.349 . S
C1227 C1243 1.349 . S
C1228 C1226 1.327 . S
C1228 C1247 1.429 . S
C1228 H1252 0.950 . S
C1229 C1246 1.574 . S
C1229 C1248 1.368 . S
C1229 H1253 0.949 . S
H1230 C1234 0.949 . S
C1231 C1232 1.349 . S
C1231 C1233 1.327 . S
C1231 H1254 0.950 . S
C1232 C1231 1.349 . S
C1232 C1244 1.349 . S
C1233 C1231 1.327 . S
C1233 C1249 1.429 . S
C1233 H1255 0.950 . S
C1234 H1230 0.949 . S
C1234 C1242 1.574 . S
C1234 C1250 1.368 . S
H1235 C1243 0.950 . S
H1236 C1241 0.950 . S
H1237 C1242 0.949 . S
H1238 C1244 0.950 . S
H1239 C1245 0.950 . S
H1240 C1246 0.949 . S
C1241 H1236 0.950 . S
C1241 C1243 1.327 . S
C1241 C1247 1.429 . S
C1242 C1234 1.574 . S
C1242 H1237 0.949 . S
C1242 C1248 1.368 . S
C1243 C1227 1.349 . S
C1243 H1235 0.950 . S
C1243 C1241 1.327 . S
C1244 C1232 1.349 . S
C1244 H1238 0.950 . S
C1244 C1245 1.327 . S
C1245 H1239 0.950 . S
C1245 C1244 1.327 . S
C1245 C1249 1.429 . S
C1246 C1229 1.574 . S
C1246 H1240 0.949 . S
C1246 C1250 1.368 . S
C1247 C1228 1.429 . S
C1247 C1241 1.429 . S
C1247 C1248 1.523 . S
C1248 C1229 1.368 . S
C1248 C1242 1.368 . S
C1248 C1247 1.523 . S
C1249 C1233 1.429 . S
C1249 C1245 1.429 . S
C1249 C1250 1.523 . S
C1250 C1234 1.368 . S
C1250 C1246 1.368 . S
C1250 C1249 1.523 . S
H1251 C1226 0.950 . S
H1252 C1228 0.950 . S
H1253 C1229 0.949 . S
H1254 C1231 0.950 . S
H1255 C1233 0.950 . S
C1256 C1257 1.349 . S
C1256 C1258 1.327 . S
C1256 H1281 0.950 . S
C1257 C1256 1.349 . S
C1257 C1273 1.349 . S
C1258 C1256 1.327 . S
C1258 C1277 1.429 . S
C1258 H1282 0.950 . S
C1259 C1276 1.574 . S
C1259 C1278 1.368 . S
C1259 H1283 0.949 . S
H1260 C1264 0.949 . S
C1261 C1262 1.349 . S
C1261 C1263 1.327 . S
C1261 H1284 0.950 . S
C1262 C1261 1.349 . S
C1262 C1274 1.349 . S
C1263 C1261 1.327 . S
C1263 C1279 1.429 . S
C1263 H1285 0.950 . S
C1264 H1260 0.949 . S
C1264 C1272 1.574 . S
C1264 C1280 1.368 . S
H1265 C1273 0.950 . S
H1266 C1271 0.950 . S
H1267 C1272 0.949 . S
H1268 C1274 0.950 . S
H1269 C1275 0.950 . S
H1270 C1276 0.949 . S
C1271 H1266 0.950 . S
C1271 C1273 1.327 . S
C1271 C1277 1.429 . S
C1272 C1264 1.574 . S
C1272 H1267 0.949 . S
C1272 C1278 1.368 . S
C1273 C1257 1.349 . S
C1273 H1265 0.950 . S
C1273 C1271 1.327 . S
C1274 C1262 1.349 . S
C1274 H1268 0.950 . S
C1274 C1275 1.327 . S
C1275 H1269 0.950 . S
C1275 C1274 1.327 . S
C1275 C1279 1.429 . S
C1276 C1259 1.574 . S
C1276 H1270 0.949 . S
C1276 C1280 1.368 . S
C1277 C1258 1.429 . S
C1277 C1271 1.429 . S
C1277 C1278 1.523 . S
C1278 C1259 1.368 . S
C1278 C1272 1.368 . S
C1278 C1277 1.523 . S
C1279 C1263 1.429 . S
C1279 C1275 1.429 . S
C1279 C1280 1.523 . S
C1280 C1264 1.368 . S
C1280 C1276 1.368 . S
C1280 C1279 1.523 . S
H1281 C1256 0.950 . S
H1282 C1258 0.950 . S
H1283 C1259 0.949 . S
H1284 C1261 0.950 . S
H1285 C1263 0.950 . S
C1286 C1287 1.349 . S
C1286 C1288 1.327 . S
C1286 H1311 0.950 . S
C1287 C1286 1.349 . S
C1287 C1303 1.349 . S
C1288 C1286 1.327 . S
C1288 C1307 1.429 . S
C1288 H1312 0.950 . S
C1289 C1306 1.574 . S
C1289 C1308 1.368 . S
C1289 H1313 0.949 . S
H1290 C1294 0.949 . S
C1291 C1292 1.349 . S
C1291 C1293 1.327 . S
C1291 H1314 0.950 . S
C1292 C1291 1.349 . S
C1292 C1304 1.349 . S
C1293 C1291 1.327 . S
C1293 C1309 1.429 . S
C1293 H1315 0.950 . S
C1294 H1290 0.949 . S
C1294 C1302 1.574 . S
C1294 C1310 1.368 . S
H1295 C1303 0.950 . S
H1296 C1301 0.950 . S
H1297 C1302 0.949 . S
H1298 C1304 0.950 . S
H1299 C1305 0.950 . S
H1300 C1306 0.949 . S
C1301 H1296 0.950 . S
C1301 C1303 1.327 . S
C1301 C1307 1.429 . S
C1302 C1294 1.574 . S
C1302 H1297 0.949 . S
C1302 C1308 1.368 . S
C1303 C1287 1.349 . S
C1303 H1295 0.950 . S
C1303 C1301 1.327 . S
C1304 C1292 1.349 . S
C1304 H1298 0.950 . S
C1304 C1305 1.327 . S
C1305 H1299 0.950 . S
C1305 C1304 1.327 . S
C1305 C1309 1.429 . S
C1306 C1289 1.574 . S
C1306 H1300 0.949 . S
C1306 C1310 1.368 . S
C1307 C1288 1.429 . S
C1307 C1301 1.429 . S
C1307 C1308 1.523 . S
C1308 C1289 1.368 . S
C1308 C1302 1.368 . S
C1308 C1307 1.523 . S
C1309 C1293 1.429 . S
C1309 C1305 1.429 . S
C1309 C1310 1.523 . S
C1310 C1294 1.368 . S
C1310 C1306 1.368 . S
C1310 C1309 1.523 . S
H1311 C1286 0.950 . S
H1312 C1288 0.950 . S
H1313 C1289 0.949 . S
H1314 C1291 0.950 . S
H1315 C1293 0.950 . S
C1316 C1317 1.349 . S
C1316 C1318 1.327 . S
C1316 H1341 0.950 . S
C1317 C1316 1.349 . S
C1317 C1333 1.349 . S
C1318 C1316 1.327 . S
C1318 C1337 1.429 . S
C1318 H1342 0.950 . S
C1319 C1336 1.574 . S
C1319 C1338 1.368 . S
C1319 H1343 0.949 . S
H1320 C1324 0.949 . S
C1321 C1322 1.349 . S
C1321 C1323 1.327 . S
C1321 H1344 0.950 . S
C1322 C1321 1.349 . S
C1322 C1334 1.349 . S
C1323 C1321 1.327 . S
C1323 C1339 1.429 . S
C1323 H1345 0.950 . S
C1324 H1320 0.949 . S
C1324 C1332 1.574 . S
C1324 C1340 1.368 . S
H1325 C1333 0.950 . S
H1326 C1331 0.950 . S
H1327 C1332 0.949 . S
H1328 C1334 0.950 . S
H1329 C1335 0.950 . S
H1330 C1336 0.949 . S
C1331 H1326 0.950 . S
C1331 C1333 1.327 . S
C1331 C1337 1.429 . S
C1332 C1324 1.574 . S
C1332 H1327 0.949 . S
C1332 C1338 1.368 . S
C1333 C1317 1.349 . S
C1333 H1325 0.950 . S
C1333 C1331 1.327 . S
C1334 C1322 1.349 . S
C1334 H1328 0.950 . S
C1334 C1335 1.327 . S
C1335 H1329 0.950 . S
C1335 C1334 1.327 . S
C1335 C1339 1.429 . S
C1336 C1319 1.574 . S
C1336 H1330 0.949 . S
C1336 C1340 1.368 . S
C1337 C1318 1.429 . S
C1337 C1331 1.429 . S
C1337 C1338 1.523 . S
C1338 C1319 1.368 . S
C1338 C1332 1.368 . S
C1338 C1337 1.523 . S
C1339 C1323 1.429 . S
C1339 C1335 1.429 . S
C1339 C1340 1.523 . S
C1340 C1324 1.368 . S
C1340 C1336 1.368 . S
C1340 C1339 1.523 . S
H1341 C1316 0.950 . S
H1342 C1318 0.950 . S
H1343 C1319 0.949 . S
H1344 C1321 0.950 . S
H1345 C1323 0.950 . S
C1346 C1347 1.349 . S
C1346 C1348 1.327 . S
C1346 H1371 0.950 . S
C1347 C1346 1.349 . S
C1347 C1363 1.349 . S
C1348 C1346 1.327 . S
C1348 C1367 1.429 . S
C1348 H1372 0.950 . S
C1349 C1366 1.574 . S
C1349 C1368 1.368 . S
C1349 H1373 0.949 . S
H1350 C1354 0.949 . S
C1351 C1352 1.349 . S
C1351 C1353 1.327 . S
C1351 H1374 0.950 . S
C1352 C1351 1.349 . S
C1352 C1364 1.349 . S
C1353 C1351 1.327 . S
C1353 C1369 1.429 . S
C1353 H1375 0.950 . S
C1354 H1350 0.949 . S
C1354 C1362 1.574 . S
C1354 C1370 1.368 . S
H1355 C1363 0.950 . S
H1356 C1361 0.950 . S
H1357 C1362 0.949 . S
H1358 C1364 0.950 . S
H1359 C1365 0.950 . S
H1360 C1366 0.949 . S
C1361 H1356 0.950 . S
C1361 C1363 1.327 . S
C1361 C1367 1.429 . S
C1362 C1354 1.574 . S
C1362 H1357 0.949 . S
C1362 C1368 1.368 . S
C1363 C1347 1.349 . S
C1363 H1355 0.950 . S
C1363 C1361 1.327 . S
C1364 C1352 1.349 . S
C1364 H1358 0.950 . S
C1364 C1365 1.327 . S
C1365 H1359 0.950 . S
C1365 C1364 1.327 . S
C1365 C1369 1.429 . S
C1366 C1349 1.574 . S
C1366 H1360 0.949 . S
C1366 C1370 1.368 . S
C1367 C1348 1.429 . S
C1367 C1361 1.429 . S
C1367 C1368 1.523 . S
C1368 C1349 1.368 . S
C1368 C1362 1.368 . S
C1368 C1367 1.523 . S
C1369 C1353 1.429 . S
C1369 C1365 1.429 . S
C1369 C1370 1.523 . S
C1370 C1354 1.368 . S
C1370 C1366 1.368 . S
C1370 C1369 1.523 . S
H1371 C1346 0.950 . S
H1372 C1348 0.950 . S
H1373 C1349 0.949 . S
H1374 C1351 0.950 . S
H1375 C1353 0.950 . S
C1376 C1377 1.349 . S
C1376 C1378 1.327 . S
C1376 H1401 0.950 . S
C1377 C1376 1.349 . S
C1377 C1393 1.349 . S
C1378 C1376 1.327 . S
C1378 C1397 1.429 . S
C1378 H1402 0.943 1_455 S
C1379 C1396 1.574 . S
C1379 C1398 1.368 . S
C1379 H1403 0.949 . S
H1380 C1384 0.949 1_655 S
C1381 C1382 1.349 . S
C1381 C1383 1.327 . S
C1381 H1404 0.950 . S
C1382 C1381 1.349 . S
C1382 C1394 1.349 . S
C1383 C1381 1.327 . S
C1383 C1399 1.429 . S
C1383 H1405 0.950 . S
C1384 H1380 0.949 1_455 S
C1384 C1392 1.574 . S
C1384 C1400 1.368 . S
H1385 C1393 0.950 . S
H1386 C1391 0.950 . S
H1387 C1392 0.949 1_655 S
H1388 C1394 0.950 1_655 S
H1389 C1395 0.950 1_655 S
H1390 C1396 0.949 . S
C1391 H1386 0.950 . S
C1391 C1393 1.327 . S
C1391 C1397 1.429 . S
C1392 C1384 1.574 . S
C1392 H1387 0.949 1_455 S
C1392 C1398 1.368 . S
C1393 C1377 1.349 . S
C1393 H1385 0.950 . S
C1393 C1391 1.327 . S
C1394 C1382 1.349 . S
C1394 H1388 0.950 1_455 S
C1394 C1395 1.327 . S
C1395 H1389 0.950 1_455 S
C1395 C1394 1.327 . S
C1395 C1399 1.429 . S
C1396 C1379 1.574 . S
C1396 H1390 0.949 . S
C1396 C1400 1.368 . S
C1397 C1378 1.429 . S
C1397 C1391 1.429 . S
C1397 C1398 1.523 . S
C1398 C1379 1.368 . S
C1398 C1392 1.368 . S
C1398 C1397 1.523 . S
C1399 C1383 1.429 . S
C1399 C1395 1.429 . S
C1399 C1400 1.523 . S
C1400 C1384 1.368 . S
C1400 C1396 1.368 . S
C1400 C1399 1.523 . S
H1401 C1376 0.950 . S
H1402 C1378 0.943 1_655 S
H1403 C1379 0.949 . S
H1404 C1381 0.950 . S
H1405 C1383 0.950 . S
C1406 C1407 1.349 . S
C1406 C1408 1.327 . S
C1406 H1431 0.950 . S
C1407 C1406 1.349 . S
C1407 C1423 1.349 . S
C1408 C1406 1.327 . S
C1408 C1427 1.429 . S
C1408 H1432 0.950 . S
C1409 C1426 1.574 . S
C1409 C1428 1.368 . S
C1409 H1433 0.949 . S
H1410 C1414 0.949 . S
C1411 C1412 1.349 . S
C1411 C1413 1.327 . S
C1411 H1434 0.950 . S
C1412 C1411 1.349 . S
C1412 C1424 1.349 . S
C1413 C1411 1.327 . S
C1413 C1429 1.429 . S
C1413 H1435 0.950 . S
C1414 H1410 0.949 . S
C1414 C1422 1.574 . S
C1414 C1430 1.368 . S
H1415 C1423 0.950 . S
H1416 C1421 0.950 . S
H1417 C1422 0.949 . S
H1418 C1424 0.950 . S
H1419 C1425 0.950 . S
H1420 C1426 0.949 . S
C1421 H1416 0.950 . S
C1421 C1423 1.327 . S
C1421 C1427 1.429 . S
C1422 C1414 1.574 . S
C1422 H1417 0.949 . S
C1422 C1428 1.368 . S
C1423 C1407 1.349 . S
C1423 H1415 0.950 . S
C1423 C1421 1.327 . S
C1424 C1412 1.349 . S
C1424 H1418 0.950 . S
C1424 C1425 1.327 . S
C1425 H1419 0.950 . S
C1425 C1424 1.327 . S
C1425 C1429 1.429 . S
C1426 C1409 1.574 . S
C1426 H1420 0.949 . S
C1426 C1430 1.368 . S
C1427 C1408 1.429 . S
C1427 C1421 1.429 . S
C1427 C1428 1.523 . S
C1428 C1409 1.368 . S
C1428 C1422 1.368 . S
C1428 C1427 1.523 . S
C1429 C1413 1.429 . S
C1429 C1425 1.429 . S
C1429 C1430 1.523 . S
C1430 C1414 1.368 . S
C1430 C1426 1.368 . S
C1430 C1429 1.523 . S
H1431 C1406 0.950 . S
H1432 C1408 0.950 . S
H1433 C1409 0.949 . S
H1434 C1411 0.950 . S
H1435 C1413 0.950 . S
C1436 C1437 1.349 . S
C1436 C1438 1.327 . S
C1436 H1461 0.950 . S
C1437 C1436 1.349 . S
C1437 C1453 1.349 . S
C1438 C1436 1.327 . S
C1438 C1457 1.429 . S
C1438 H1462 0.950 . S
C1439 C1456 1.574 . S
C1439 C1458 1.368 . S
C1439 H1463 0.949 . S
H1440 C1444 0.949 . S
C1441 C1442 1.349 . S
C1441 C1443 1.327 . S
C1441 H1464 0.950 . S
C1442 C1441 1.349 . S
C1442 C1454 1.349 . S
C1443 C1441 1.327 . S
C1443 C1459 1.429 . S
C1443 H1465 0.950 . S
C1444 H1440 0.949 . S
C1444 C1452 1.574 . S
C1444 C1460 1.368 . S
H1445 C1453 0.950 . S
H1446 C1451 0.950 . S
H1447 C1452 0.949 . S
H1448 C1454 0.950 . S
H1449 C1455 0.950 . S
H1450 C1456 0.949 . S
C1451 H1446 0.950 . S
C1451 C1453 1.327 . S
C1451 C1457 1.429 . S
C1452 C1444 1.574 . S
C1452 H1447 0.949 . S
C1452 C1458 1.368 . S
C1453 C1437 1.349 . S
C1453 H1445 0.950 . S
C1453 C1451 1.327 . S
C1454 C1442 1.349 . S
C1454 H1448 0.950 . S
C1454 C1455 1.327 . S
C1455 H1449 0.950 . S
C1455 C1454 1.327 . S
C1455 C1459 1.429 . S
C1456 C1439 1.574 . S
C1456 H1450 0.949 . S
C1456 C1460 1.368 . S
C1457 C1438 1.429 . S
C1457 C1451 1.429 . S
C1457 C1458 1.523 . S
C1458 C1439 1.368 . S
C1458 C1452 1.368 . S
C1458 C1457 1.523 . S
C1459 C1443 1.429 . S
C1459 C1455 1.429 . S
C1459 C1460 1.523 . S
C1460 C1444 1.368 . S
C1460 C1456 1.368 . S
C1460 C1459 1.523 . S
H1461 C1436 0.950 . S
H1462 C1438 0.950 . S
H1463 C1439 0.949 . S
H1464 C1441 0.950 . S
H1465 C1443 0.950 . S
C1466 C1467 1.349 . S
C1466 C1468 1.327 . S
C1466 H1491 0.950 . S
C1467 C1466 1.349 . S
C1467 C1483 1.349 . S
C1468 C1466 1.327 . S
C1468 C1487 1.429 . S
C1468 H1492 0.950 . S
C1469 C1486 1.574 . S
C1469 C1488 1.368 . S
C1469 H1493 0.949 . S
H1470 C1474 0.949 . S
C1471 C1472 1.349 . S
C1471 C1473 1.327 . S
C1471 H1494 0.950 . S
C1472 C1471 1.349 . S
C1472 C1484 1.349 . S
C1473 C1471 1.327 . S
C1473 C1489 1.429 . S
C1473 H1495 0.950 . S
C1474 H1470 0.949 . S
C1474 C1482 1.574 . S
C1474 C1490 1.368 . S
H1475 C1483 0.950 . S
H1476 C1481 0.950 . S
H1477 C1482 0.949 . S
H1478 C1484 0.950 . S
H1479 C1485 0.950 . S
H1480 C1486 0.949 . S
C1481 H1476 0.950 . S
C1481 C1483 1.327 . S
C1481 C1487 1.429 . S
C1482 C1474 1.574 . S
C1482 H1477 0.949 . S
C1482 C1488 1.368 . S
C1483 C1467 1.349 . S
C1483 H1475 0.950 . S
C1483 C1481 1.327 . S
C1484 C1472 1.349 . S
C1484 H1478 0.950 . S
C1484 C1485 1.327 . S
C1485 H1479 0.950 . S
C1485 C1484 1.327 . S
C1485 C1489 1.429 . S
C1486 C1469 1.574 . S
C1486 H1480 0.949 . S
C1486 C1490 1.368 . S
C1487 C1468 1.429 . S
C1487 C1481 1.429 . S
C1487 C1488 1.523 . S
C1488 C1469 1.368 . S
C1488 C1482 1.368 . S
C1488 C1487 1.523 . S
C1489 C1473 1.429 . S
C1489 C1485 1.429 . S
C1489 C1490 1.523 . S
C1490 C1474 1.368 . S
C1490 C1486 1.368 . S
C1490 C1489 1.523 . S
H1491 C1466 0.950 . S
H1492 C1468 0.950 . S
H1493 C1469 0.949 . S
H1494 C1471 0.950 . S
H1495 C1473 0.950 . S
C1496 C1497 1.349 . S
C1496 C1498 1.327 . S
C1496 H1521 0.950 1_455 S
C1497 C1496 1.349 . S
C1497 C1513 1.349 . S
C1498 C1496 1.327 . S
C1498 C1517 1.434 . S
C1498 H1522 0.945 1_455 S
C1499 C1516 1.574 . S
C1499 C1518 1.368 . S
C1499 H1523 0.949 . S
H1500 C1504 0.949 . S
C1501 C1502 1.349 . S
C1501 C1503 1.327 . S
C1501 H1524 0.950 . S
C1502 C1501 1.349 . S
C1502 C1514 1.349 1_455 S
C1503 C1501 1.327 . S
C1503 C1519 1.429 . S
C1503 H1525 0.950 . S
C1504 H1500 0.949 . S
C1504 C1512 1.574 . S
C1504 C1520 1.368 1_655 S
H1505 C1513 0.950 . S
H1506 C1511 0.950 . S
H1507 C1512 0.949 . S
H1508 C1514 0.950 . S
H1509 C1515 0.950 . S
H1510 C1516 0.949 . S
C1511 H1506 0.950 . S
C1511 C1513 1.327 . S
C1511 C1517 1.429 . S
C1512 C1504 1.574 . S
C1512 H1507 0.949 . S
C1512 C1518 1.368 1_655 S
C1513 C1497 1.349 . S
C1513 H1505 0.950 . S
C1513 C1511 1.327 . S
C1514 C1502 1.349 1_655 S
C1514 H1508 0.950 . S
C1514 C1515 1.327 . S
C1515 H1509 0.950 . S
C1515 C1514 1.327 . S
C1515 C1519 1.429 1_655 S
C1516 C1499 1.574 . S
C1516 H1510 0.949 . S
C1516 C1520 1.368 . S
C1517 C1498 1.434 . S
C1517 C1511 1.429 . S
C1517 C1518 1.523 . S
C1518 C1499 1.368 . S
C1518 C1512 1.368 1_455 S
C1518 C1517 1.523 . S
C1519 C1503 1.429 . S
C1519 C1515 1.429 1_455 S
C1519 C1520 1.523 . S
C1520 C1504 1.368 1_455 S
C1520 C1516 1.368 . S
C1520 C1519 1.523 . S
H1521 C1496 0.950 1_655 S
H1522 C1498 0.945 1_655 S
H1523 C1499 0.949 . S
H1524 C1501 0.950 . S
H1525 C1503 0.950 . S
C1526 C1527 1.349 . S
C1526 C1528 1.327 . S
C1526 H1551 0.950 . S
C1527 C1526 1.349 . S
C1527 C1543 1.349 . S
C1528 C1526 1.327 . S
C1528 C1547 1.429 . S
C1528 H1552 0.950 . S
C1529 C1546 1.574 . S
C1529 C1548 1.368 . S
C1529 H1553 0.949 . S
H1530 C1534 0.949 . S
C1531 C1532 1.349 . S
C1531 C1533 1.327 . S
C1531 H1554 0.950 . S
C1532 C1531 1.349 . S
C1532 C1544 1.349 . S
C1533 C1531 1.327 . S
C1533 C1549 1.429 . S
C1533 H1555 0.950 . S
C1534 H1530 0.949 . S
C1534 C1542 1.574 . S
C1534 C1550 1.368 . S
H1535 C1543 0.950 . S
H1536 C1541 0.950 . S
H1537 C1542 0.949 . S
H1538 C1544 0.950 . S
H1539 C1545 0.950 . S
H1540 C1546 0.949 . S
C1541 H1536 0.950 . S
C1541 C1543 1.327 . S
C1541 C1547 1.429 . S
C1542 C1534 1.574 . S
C1542 H1537 0.949 . S
C1542 C1548 1.368 . S
C1543 C1527 1.349 . S
C1543 H1535 0.950 . S
C1543 C1541 1.327 . S
C1544 C1532 1.349 . S
C1544 H1538 0.950 . S
C1544 C1545 1.327 . S
C1545 H1539 0.950 . S
C1545 C1544 1.327 . S
C1545 C1549 1.429 . S
C1546 C1529 1.574 . S
C1546 H1540 0.949 . S
C1546 C1550 1.368 . S
C1547 C1528 1.429 . S
C1547 C1541 1.429 . S
C1547 C1548 1.523 . S
C1548 C1529 1.368 . S
C1548 C1542 1.368 . S
C1548 C1547 1.523 . S
C1549 C1533 1.429 . S
C1549 C1545 1.429 . S
C1549 C1550 1.523 . S
C1550 C1534 1.368 . S
C1550 C1546 1.368 . S
C1550 C1549 1.523 . S
H1551 C1526 0.950 . S
H1552 C1528 0.950 . S
H1553 C1529 0.949 . S
H1554 C1531 0.950 . S
H1555 C1533 0.950 . S
C1556 C1557 1.349 . S
C1556 C1558 1.327 . S
C1556 H1581 0.950 . S
C1557 C1556 1.349 . S
C1557 C1573 1.349 . S
C1558 C1556 1.327 . S
C1558 C1577 1.429 . S
C1558 H1582 0.950 . S
C1559 C1576 1.574 . S
C1559 C1578 1.368 . S
C1559 H1583 0.949 . S
H1560 C1564 0.949 . S
C1561 C1562 1.349 . S
C1561 C1563 1.327 . S
C1561 H1584 0.950 . S
C1562 C1561 1.349 . S
C1562 C1574 1.349 1_556 S
C1563 C1561 1.327 . S
C1563 C1579 1.429 . S
C1563 H1585 0.950 . S
C1564 H1560 0.949 . S
C1564 C1572 1.574 . S
C1564 C1580 1.368 . S
H1565 C1573 0.950 . S
H1566 C1571 0.950 . S
H1567 C1572 0.949 . S
H1568 C1574 0.950 . S
H1569 C1575 0.950 . S
H1570 C1576 0.949 . S
C1571 H1566 0.950 . S
C1571 C1573 1.327 . S
C1571 C1577 1.429 . S
C1572 C1564 1.574 . S
C1572 H1567 0.949 . S
C1572 C1578 1.368 . S
C1573 C1557 1.349 . S
C1573 H1565 0.950 . S
C1573 C1571 1.327 . S
C1574 C1562 1.349 1_554 S
C1574 H1568 0.950 . S
C1574 C1575 1.327 1_554 S
C1575 H1569 0.950 . S
C1575 C1574 1.327 1_556 S
C1575 C1579 1.429 . S
C1576 C1559 1.574 . S
C1576 H1570 0.949 . S
C1576 C1580 1.368 . S
C1577 C1558 1.429 . S
C1577 C1571 1.429 . S
C1577 C1578 1.523 . S
C1578 C1559 1.368 . S
C1578 C1572 1.368 . S
C1578 C1577 1.523 . S
C1579 C1563 1.429 . S
C1579 C1575 1.429 . S
C1579 C1580 1.523 . S
C1580 C1564 1.368 . S
C1580 C1576 1.368 . S
C1580 C1579 1.523 . S
H1581 C1556 0.950 . S
H1582 C1558 0.950 . S
H1583 C1559 0.949 . S
H1584 C1561 0.950 . S
H1585 C1563 0.950 . S
C1586 C1587 1.349 . S
C1586 C1588 1.327 . S
C1586 H1611 0.950 . S
C1587 C1586 1.349 . S
C1587 C1603 1.349 . S
C1588 C1586 1.327 . S
C1588 C1607 1.429 . S
C1588 H1612 0.950 . S
C1589 C1606 1.574 . S
C1589 C1608 1.368 . S
C1589 H1613 0.949 . S
H1590 C1594 0.949 . S
C1591 C1592 1.349 . S
C1591 C1593 1.327 . S
C1591 H1614 0.950 . S
C1592 C1591 1.349 . S
C1592 C1604 1.349 . S
C1593 C1591 1.327 . S
C1593 C1609 1.429 . S
C1593 H1615 0.950 . S
C1594 H1590 0.949 . S
C1594 C1602 1.574 . S
C1594 C1610 1.368 . S
H1595 C1603 0.950 . S
H1596 C1601 0.950 . S
H1597 C1602 0.949 . S
H1598 C1604 0.950 . S
H1599 C1605 0.950 . S
H1600 C1606 0.949 . S
C1601 H1596 0.950 . S
C1601 C1603 1.327 . S
C1601 C1607 1.429 . S
C1602 C1594 1.574 . S
C1602 H1597 0.949 . S
C1602 C1608 1.368 . S
C1603 C1587 1.349 . S
C1603 H1595 0.950 . S
C1603 C1601 1.327 . S
C1604 C1592 1.349 . S
C1604 H1598 0.950 . S
C1604 C1605 1.327 . S
C1605 H1599 0.950 . S
C1605 C1604 1.327 . S
C1605 C1609 1.429 . S
C1606 C1589 1.574 . S
C1606 H1600 0.949 . S
C1606 C1610 1.368 . S
C1607 C1588 1.429 . S
C1607 C1601 1.429 . S
C1607 C1608 1.523 . S
C1608 C1589 1.368 . S
C1608 C1602 1.368 . S
C1608 C1607 1.523 . S
C1609 C1593 1.429 . S
C1609 C1605 1.429 . S
C1609 C1610 1.523 . S
C1610 C1594 1.368 . S
C1610 C1606 1.368 . S
C1610 C1609 1.523 . S
H1611 C1586 0.950 . S
H1612 C1588 0.950 . S
H1613 C1589 0.949 . S
H1614 C1591 0.950 . S
H1615 C1593 0.950 . S
C1616 C1617 1.349 . S
C1616 C1618 1.327 . S
C1616 H1641 0.950 . S
C1617 C1616 1.349 . S
C1617 C1633 1.349 1_545 S
C1618 C1616 1.327 . S
C1618 C1637 1.429 . S
C1618 H1642 0.950 . S
C1619 C1636 1.574 . S
C1619 C1638 1.368 1_565 S
C1619 H1643 0.949 . S
H1620 C1624 0.949 . S
C1621 C1622 1.316 1_565 S
C1621 C1623 1.331 . S
C1621 H1644 0.981 . S
C1622 C1621 1.316 1_545 S
C1622 C1634 1.349 . S
C1623 C1621 1.331 . S
C1623 C1639 1.429 1_565 S
C1623 H1645 0.950 . S
C1624 H1620 0.949 . S
C1624 C1632 1.574 . S
C1624 C1640 1.368 . S
H1625 C1633 0.950 . S
H1626 C1631 0.950 . S
H1627 C1632 0.949 . S
H1628 C1634 0.950 . S
H1629 C1635 0.950 . S
H1630 C1636 0.949 . S
C1631 H1626 0.950 . S
C1631 C1633 1.327 . S
C1631 C1637 1.429 1_565 S
C1632 C1624 1.574 . S
C1632 H1627 0.949 . S
C1632 C1638 1.368 . S
C1633 C1617 1.349 1_565 S
C1633 H1625 0.950 . S
C1633 C1631 1.327 . S
C1634 C1622 1.349 . S
C1634 H1628 0.950 . S
C1634 C1635 1.327 . S
C1635 H1629 0.950 . S
C1635 C1634 1.327 . S
C1635 C1639 1.429 . S
C1636 C1619 1.574 . S
C1636 H1630 0.949 . S
C1636 C1640 1.368 1_565 S
C1637 C1618 1.429 . S
C1637 C1631 1.429 1_545 S
C1637 C1638 1.523 . S
C1638 C1619 1.368 1_545 S
C1638 C1632 1.368 . S
C1638 C1637 1.523 . S
C1639 C1623 1.429 1_545 S
C1639 C1635 1.429 . S
C1639 C1640 1.523 . S
C1640 C1624 1.368 . S
C1640 C1636 1.368 1_545 S
C1640 C1639 1.523 . S
H1641 C1616 0.950 . S
H1642 C1618 0.950 . S
H1643 C1619 0.949 . S
H1644 C1621 0.981 . S
H1645 C1623 0.950 . S
C1646 C1647 1.349 . S
C1646 C1648 1.327 . S
C1646 H1671 0.950 . S
C1647 C1646 1.349 . S
C1647 C1663 1.349 . S
C1648 C1646 1.327 . S
C1648 C1667 1.429 . S
C1648 H1672 0.950 . S
C1649 C1666 1.574 . S
C1649 C1668 1.368 . S
C1649 H1673 0.949 . S
H1650 C1654 0.949 . S
C1651 C1652 1.349 . S
C1651 C1653 1.327 . S
C1651 H1674 0.950 . S
C1652 C1651 1.349 . S
C1652 C1664 1.349 . S
C1653 C1651 1.327 . S
C1653 C1669 1.429 . S
C1653 H1675 0.950 . S
C1654 H1650 0.949 . S
C1654 C1662 1.574 . S
C1654 C1670 1.368 . S
H1655 C1663 0.950 . S
H1656 C1661 0.950 . S
H1657 C1662 0.949 . S
H1658 C1664 0.950 . S
H1659 C1665 0.950 . S
H1660 C1666 0.949 . S
C1661 H1656 0.950 . S
C1661 C1663 1.327 . S
C1661 C1667 1.429 . S
C1662 C1654 1.574 . S
C1662 H1657 0.949 . S
C1662 C1668 1.368 . S
C1663 C1647 1.349 . S
C1663 H1655 0.950 . S
C1663 C1661 1.327 . S
C1664 C1652 1.349 . S
C1664 H1658 0.950 . S
C1664 C1665 1.327 . S
C1665 H1659 0.950 . S
C1665 C1664 1.327 . S
C1665 C1669 1.429 . S
C1666 C1649 1.574 . S
C1666 H1660 0.949 . S
C1666 C1670 1.368 . S
C1667 C1648 1.429 . S
C1667 C1661 1.429 . S
C1667 C1668 1.523 . S
C1668 C1649 1.368 . S
C1668 C1662 1.368 . S
C1668 C1667 1.523 . S
C1669 C1653 1.429 . S
C1669 C1665 1.429 . S
C1669 C1670 1.523 . S
C1670 C1654 1.368 . S
C1670 C1666 1.368 . S
C1670 C1669 1.523 . S
H1671 C1646 0.950 . S
H1672 C1648 0.950 . S
H1673 C1649 0.949 . S
H1674 C1651 0.950 . S
H1675 C1653 0.950 . S
C1676 C1677 1.349 . S
C1676 C1678 1.327 . S
C1676 H1701 0.950 . S
C1677 C1676 1.349 . S
C1677 C1693 1.349 . S
C1678 C1676 1.327 . S
C1678 C1697 1.429 . S
C1678 H1702 0.950 . S
C1679 C1696 1.574 . S
C1679 C1698 1.368 . S
C1679 H1703 0.949 . S
H1680 C1684 0.949 . S
C1681 C1682 1.349 . S
C1681 C1683 1.327 . S
C1681 H1704 0.950 . S
C1682 C1681 1.349 . S
C1682 C1694 1.349 . S
C1683 C1681 1.327 . S
C1683 C1699 1.429 . S
C1683 H1705 0.950 . S
C1684 H1680 0.949 . S
C1684 C1692 1.574 . S
C1684 C1700 1.368 . S
H1685 C1693 0.950 . S
H1686 C1691 0.950 . S
H1687 C1692 0.949 . S
H1688 C1694 0.950 . S
H1689 C1695 0.950 . S
H1690 C1696 0.949 . S
C1691 H1686 0.950 . S
C1691 C1693 1.327 . S
C1691 C1697 1.429 . S
C1692 C1684 1.574 . S
C1692 H1687 0.949 . S
C1692 C1698 1.368 . S
C1693 C1677 1.349 . S
C1693 H1685 0.950 . S
C1693 C1691 1.327 . S
C1694 C1682 1.349 . S
C1694 H1688 0.950 . S
C1694 C1695 1.327 . S
C1695 H1689 0.950 . S
C1695 C1694 1.327 . S
C1695 C1699 1.429 . S
C1696 C1679 1.574 . S
C1696 H1690 0.949 . S
C1696 C1700 1.368 . S
C1697 C1678 1.429 . S
C1697 C1691 1.429 . S
C1697 C1698 1.523 . S
C1698 C1679 1.368 . S
C1698 C1692 1.368 . S
C1698 C1697 1.523 . S
C1699 C1683 1.429 . S
C1699 C1695 1.429 . S
C1699 C1700 1.523 . S
C1700 C1684 1.368 . S
C1700 C1696 1.368 . S
C1700 C1699 1.523 . S
H1701 C1676 0.950 . S
H1702 C1678 0.950 . S
H1703 C1679 0.949 . S
H1704 C1681 0.950 . S
H1705 C1683 0.950 . S
C1706 C1707 1.349 . S
C1706 C1708 1.327 . S
C1706 H1731 0.950 . S
C1707 C1706 1.349 . S
C1707 C1723 1.349 . S
C1708 C1706 1.327 . S
C1708 C1727 1.429 . S
C1708 H1732 0.950 . S
C1709 C1726 1.574 . S
C1709 C1728 1.368 . S
C1709 H1733 0.949 . S
H1710 C1714 0.949 . S
C1711 C1712 1.349 . S
C1711 C1713 1.327 . S
C1711 H1734 0.950 . S
C1712 C1711 1.349 . S
C1712 C1724 1.349 . S
C1713 C1711 1.327 . S
C1713 C1729 1.429 . S
C1713 H1735 0.950 . S
C1714 H1710 0.949 . S
C1714 C1722 1.574 . S
C1714 C1730 1.368 . S
H1715 C1723 0.950 . S
H1716 C1721 0.950 . S
H1717 C1722 0.949 . S
H1718 C1724 0.950 . S
H1719 C1725 0.950 . S
H1720 C1726 0.949 . S
C1721 H1716 0.950 . S
C1721 C1723 1.327 . S
C1721 C1727 1.429 . S
C1722 C1714 1.574 . S
C1722 H1717 0.949 . S
C1722 C1728 1.368 . S
C1723 C1707 1.349 . S
C1723 H1715 0.950 . S
C1723 C1721 1.327 . S
C1724 C1712 1.349 . S
C1724 H1718 0.950 . S
C1724 C1725 1.327 . S
C1725 H1719 0.950 . S
C1725 C1724 1.327 . S
C1725 C1729 1.429 . S
C1726 C1709 1.574 . S
C1726 H1720 0.949 . S
C1726 C1730 1.368 . S
C1727 C1708 1.429 . S
C1727 C1721 1.429 . S
C1727 C1728 1.523 . S
C1728 C1709 1.368 . S
C1728 C1722 1.368 . S
C1728 C1727 1.523 . S
C1729 C1713 1.429 . S
C1729 C1725 1.429 . S
C1729 C1730 1.523 . S
C1730 C1714 1.368 . S
C1730 C1726 1.368 . S
C1730 C1729 1.523 . S
H1731 C1706 0.950 . S
H1732 C1708 0.950 . S
H1733 C1709 0.949 . S
H1734 C1711 0.950 . S
H1735 C1713 0.950 . S
C1736 C1737 1.349 . S
C1736 C1738 1.327 . S
C1736 H1761 0.950 . S
C1737 C1736 1.349 . S
C1737 C1753 1.349 1_565 S
C1738 C1736 1.327 . S
C1738 C1757 1.429 1_565 S
C1738 H1762 0.950 . S
C1739 C1756 1.574 . S
C1739 C1758 1.368 . S
C1739 H1763 0.949 . S
H1740 C1744 0.949 . S
C1741 C1742 1.349 . S
C1741 C1743 1.327 . S
C1741 H1764 0.950 . S
C1742 C1741 1.349 . S
C1742 C1754 1.349 . S
C1743 C1741 1.327 . S
C1743 C1759 1.429 . S
C1743 H1765 0.950 . S
C1744 H1740 0.949 . S
C1744 C1752 1.574 . S
C1744 C1760 1.368 1_565 S
H1745 C1753 0.950 . S
H1746 C1751 0.950 . S
H1747 C1752 0.949 . S
H1748 C1754 0.950 1_565 S
H1749 C1755 0.999 . S
H1750 C1756 0.949 . S
C1751 H1746 0.950 . S
C1751 C1753 1.327 . S
C1751 C1757 1.429 . S
C1752 C1744 1.574 . S
C1752 H1747 0.949 . S
C1752 C1758 1.368 1_565 S
C1753 C1737 1.349 1_545 S
C1753 H1745 0.950 . S
C1753 C1751 1.327 . S
C1754 C1742 1.349 . S
C1754 H1748 0.950 1_545 S
C1754 C1755 1.310 1_545 S
C1755 H1749 0.999 . S
C1755 C1754 1.310 1_565 S
C1755 C1759 1.399 1_565 S
C1756 C1739 1.574 . S
C1756 H1750 0.949 . S
C1756 C1760 1.368 . S
C1757 C1738 1.429 1_545 S
C1757 C1751 1.429 . S
C1757 C1758 1.523 . S
C1758 C1739 1.368 . S
C1758 C1752 1.368 1_545 S
C1758 C1757 1.523 . S
C1759 C1743 1.429 . S
C1759 C1755 1.399 1_545 S
C1759 C1760 1.523 . S
C1760 C1744 1.368 1_545 S
C1760 C1756 1.368 . S
C1760 C1759 1.523 . S
H1761 C1736 0.950 . S
H1762 C1738 0.950 . S
H1763 C1739 0.949 . S
H1764 C1741 0.950 . S
H1765 C1743 0.950 . S
C1766 C1767 1.349 . S
C1766 C1768 1.327 . S
C1766 H1791 0.950 . S
C1767 C1766 1.349 . S
C1767 C1783 1.349 . S
C1768 C1766 1.327 . S
C1768 C1787 1.429 . S
C1768 H1792 0.950 . S
C1769 C1786 1.574 . S
C1769 C1788 1.368 . S
C1769 H1793 0.949 . S
H1770 C1774 0.949 . S
C1771 C1772 1.349 . S
C1771 C1773 1.327 . S
C1771 H1794 0.950 . S
C1772 C1771 1.349 . S
C1772 C1784 1.349 . S
C1773 C1771 1.327 . S
C1773 C1789 1.429 . S
C1773 H1795 0.950 . S
C1774 H1770 0.949 . S
C1774 C1782 1.574 . S
C1774 C1790 1.368 . S
H1775 C1783 0.950 . S
H1776 C1781 0.950 . S
H1777 C1782 0.949 . S
H1778 C1784 0.950 . S
H1779 C1785 0.950 . S
H1780 C1786 0.949 . S
C1781 H1776 0.950 . S
C1781 C1783 1.327 . S
C1781 C1787 1.429 . S
C1782 C1774 1.574 . S
C1782 H1777 0.949 . S
C1782 C1788 1.368 . S
C1783 C1767 1.349 . S
C1783 H1775 0.950 . S
C1783 C1781 1.327 . S
C1784 C1772 1.349 . S
C1784 H1778 0.950 . S
C1784 C1785 1.327 . S
C1785 H1779 0.950 . S
C1785 C1784 1.327 . S
C1785 C1789 1.429 . S
C1786 C1769 1.574 . S
C1786 H1780 0.949 . S
C1786 C1790 1.368 . S
C1787 C1768 1.429 . S
C1787 C1781 1.429 . S
C1787 C1788 1.523 . S
C1788 C1769 1.368 . S
C1788 C1782 1.368 . S
C1788 C1787 1.523 . S
C1789 C1773 1.429 . S
C1789 C1785 1.429 . S
C1789 C1790 1.523 . S
C1790 C1774 1.368 . S
C1790 C1786 1.368 . S
C1790 C1789 1.523 . S
H1791 C1766 0.950 . S
H1792 C1768 0.950 . S
H1793 C1769 0.949 . S
H1794 C1771 0.950 . S
H1795 C1773 0.950 . S
C1796 C1797 1.349 . S
C1796 C1798 1.327 . S
C1796 H1821 0.950 . S
C1797 C1796 1.349 . S
C1797 C1813 1.349 . S
C1798 C1796 1.327 . S
C1798 C1817 1.429 . S
C1798 H1822 0.950 . S
C1799 C1816 1.578 . S
C1799 C1818 1.336 1_565 S
C1799 H1823 0.976 . S
H1800 C1804 0.949 . S
C1801 C1802 1.349 1_565 S
C1801 C1803 1.327 . S
C1801 H1824 0.950 . S
C1802 C1801 1.349 1_545 S
C1802 C1814 1.349 . S
C1803 C1801 1.327 . S
C1803 C1819 1.429 1_565 S
C1803 H1825 0.950 . S
C1804 H1800 0.949 . S
C1804 C1812 1.574 . S
C1804 C1820 1.368 . S
H1805 C1813 0.950 1_565 S
H1806 C1811 0.950 1_565 S
H1807 C1812 0.949 . S
H1808 C1814 0.950 . S
H1809 C1815 0.950 . S
H1810 C1816 0.949 . S
C1811 H1806 0.950 1_545 S
C1811 C1813 1.327 . S
C1811 C1817 1.429 . S
C1812 C1804 1.574 . S
C1812 H1807 0.949 . S
C1812 C1818 1.368 . S
C1813 C1797 1.349 . S
C1813 H1805 0.950 1_545 S
C1813 C1811 1.327 . S
C1814 C1802 1.349 . S
C1814 H1808 0.950 . S
C1814 C1815 1.327 . S
C1815 H1809 0.950 . S
C1815 C1814 1.327 . S
C1815 C1819 1.429 . S
C1816 C1799 1.578 . S
C1816 H1810 0.949 . S
C1816 C1820 1.368 1_565 S
C1817 C1798 1.429 . S
C1817 C1811 1.429 . S
C1817 C1818 1.523 . S
C1818 C1799 1.336 1_545 S
C1818 C1812 1.368 . S
C1818 C1817 1.523 . S
C1819 C1803 1.429 1_545 S
C1819 C1815 1.429 . S
C1819 C1820 1.523 . S
C1820 C1804 1.368 . S
C1820 C1816 1.368 1_545 S
C1820 C1819 1.523 . S
H1821 C1796 0.950 . S
H1822 C1798 0.950 . S
H1823 C1799 0.976 . S
H1824 C1801 0.950 . S
H1825 C1803 0.950 . S
C1826 C1827 1.349 . S
C1826 C1828 1.327 . S
C1826 H1851 0.950 . S
C1827 C1826 1.349 . S
C1827 C1843 1.349 . S
C1828 C1826 1.327 . S
C1828 C1847 1.429 . S
C1828 H1852 0.950 . S
C1829 C1846 1.574 . S
C1829 C1848 1.368 . S
C1829 H1853 0.949 . S
H1830 C1834 0.949 . S
C1831 C1832 1.349 . S
C1831 C1833 1.327 . S
C1831 H1854 0.950 . S
C1832 C1831 1.349 . S
C1832 C1844 1.349 . S
C1833 C1831 1.327 . S
C1833 C1849 1.429 . S
C1833 H1855 0.950 . S
C1834 H1830 0.949 . S
C1834 C1842 1.574 . S
C1834 C1850 1.368 . S
H1835 C1843 0.950 . S
H1836 C1841 0.950 . S
H1837 C1842 0.949 . S
H1838 C1844 0.950 . S
H1839 C1845 0.950 . S
H1840 C1846 0.949 . S
C1841 H1836 0.950 . S
C1841 C1843 1.327 . S
C1841 C1847 1.429 . S
C1842 C1834 1.574 . S
C1842 H1837 0.949 . S
C1842 C1848 1.368 . S
C1843 C1827 1.349 . S
C1843 H1835 0.950 . S
C1843 C1841 1.327 . S
C1844 C1832 1.349 . S
C1844 H1838 0.950 . S
C1844 C1845 1.327 . S
C1845 H1839 0.950 . S
C1845 C1844 1.327 . S
C1845 C1849 1.429 . S
C1846 C1829 1.574 . S
C1846 H1840 0.949 . S
C1846 C1850 1.368 . S
C1847 C1828 1.429 . S
C1847 C1841 1.429 . S
C1847 C1848 1.523 . S
C1848 C1829 1.368 . S
C1848 C1842 1.368 . S
C1848 C1847 1.523 . S
C1849 C1833 1.429 . S
C1849 C1845 1.429 . S
C1849 C1850 1.523 . S
C1850 C1834 1.368 . S
C1850 C1846 1.368 . S
C1850 C1849 1.523 . S
H1851 C1826 0.950 . S
H1852 C1828 0.950 . S
H1853 C1829 0.949 . S
H1854 C1831 0.950 . S
H1855 C1833 0.950 . S
C1856 C1857 1.349 . S
C1856 C1858 1.327 . S
C1856 H1881 0.950 . S
C1857 C1856 1.349 . S
C1857 C1873 1.349 1_554 S
C1858 C1856 1.327 . S
C1858 C1877 1.405 1_554 S
C1858 H1882 0.950 . S
C1859 C1876 1.574 . S
C1859 C1878 1.368 . S
C1859 H1883 0.949 . S
H1860 C1864 0.949 . S
C1861 C1862 1.349 . S
C1861 C1863 1.327 . S
C1861 H1884 0.950 . S
C1862 C1861 1.349 . S
C1862 C1874 1.349 1_556 S
C1863 C1861 1.327 . S
C1863 C1879 1.429 . S
C1863 H1885 0.950 . S
C1864 H1860 0.949 . S
C1864 C1872 1.574 . S
C1864 C1880 1.368 1_554 S
H1865 C1873 0.950 . S
H1866 C1871 0.950 . S
H1867 C1872 0.949 . S
H1868 C1874 0.950 . S
H1869 C1875 0.950 . S
H1870 C1876 0.949 . S
C1871 H1866 0.950 . S
C1871 C1873 1.327 . S
C1871 C1877 1.451 . S
C1872 C1864 1.574 . S
C1872 H1867 0.949 . S
C1872 C1878 1.368 1_554 S
C1873 C1857 1.349 1_556 S
C1873 H1865 0.950 . S
C1873 C1871 1.327 . S
C1874 C1862 1.349 1_554 S
C1874 H1868 0.950 . S
C1874 C1875 1.327 . S
C1875 H1869 0.950 . S
C1875 C1874 1.327 . S
C1875 C1879 1.429 1_554 S
C1876 C1859 1.574 . S
C1876 H1870 0.949 . S
C1876 C1880 1.368 . S
C1877 C1858 1.405 1_556 S
C1877 C1871 1.451 . S
C1877 C1878 1.524 . S
C1878 C1859 1.368 . S
C1878 C1872 1.368 1_556 S
C1878 C1877 1.524 . S
C1879 C1863 1.429 . S
C1879 C1875 1.429 1_556 S
C1879 C1880 1.523 . S
C1880 C1864 1.368 1_556 S
C1880 C1876 1.368 . S
C1880 C1879 1.523 . S
H1881 C1856 0.950 . S
H1882 C1858 0.950 . S
H1883 C1859 0.949 . S
H1884 C1861 0.950 . S
H1885 C1863 0.950 . S
C1886 C1887 1.349 . S
C1886 C1888 1.327 . S
C1886 H1911 0.950 1_554 S
C1887 C1886 1.349 . S
C1887 C1903 1.349 . S
C1888 C1886 1.327 . S
C1888 C1907 1.429 . S
C1888 H1912 0.950 1_554 S
C1889 C1906 1.574 . S
C1889 C1908 1.368 . S
C1889 H1913 0.949 . S
H1890 C1894 0.949 1_556 S
C1891 C1892 1.349 . S
C1891 C1893 1.327 . S
C1891 H1914 0.950 . S
C1892 C1891 1.349 . S
C1892 C1904 1.349 . S
C1893 C1891 1.327 . S
C1893 C1909 1.429 . S
C1893 H1915 0.950 . S
C1894 H1890 0.949 1_554 S
C1894 C1902 1.574 . S
C1894 C1910 1.368 . S
H1895 C1903 0.950 . S
H1896 C1901 0.950 . S
H1897 C1902 0.949 1_556 S
H1898 C1904 0.950 1_556 S
H1899 C1905 0.950 1_556 S
H1900 C1906 0.949 . S
C1901 H1896 0.950 . S
C1901 C1903 1.327 . S
C1901 C1907 1.429 . S
C1902 C1894 1.574 . S
C1902 H1897 0.949 1_554 S
C1902 C1908 1.368 . S
C1903 C1887 1.349 . S
C1903 H1895 0.950 . S
C1903 C1901 1.327 . S
C1904 C1892 1.349 . S
C1904 H1898 0.950 1_554 S
C1904 C1905 1.327 . S
C1905 H1899 0.950 1_554 S
C1905 C1904 1.327 . S
C1905 C1909 1.429 . S
C1906 C1889 1.574 . S
C1906 H1900 0.949 . S
C1906 C1910 1.368 . S
C1907 C1888 1.429 . S
C1907 C1901 1.429 . S
C1907 C1908 1.523 . S
C1908 C1889 1.368 . S
C1908 C1902 1.368 . S
C1908 C1907 1.523 . S
C1909 C1893 1.429 . S
C1909 C1905 1.429 . S
C1909 C1910 1.523 . S
C1910 C1894 1.368 . S
C1910 C1906 1.368 . S
C1910 C1909 1.523 . S
H1911 C1886 0.950 1_556 S
H1912 C1888 0.950 1_556 S
H1913 C1889 0.949 . S
H1914 C1891 0.950 . S
H1915 C1893 0.950 . S
C1916 C1917 1.349 . S
C1916 C1918 1.327 . S
C1916 H1941 0.950 . S
C1917 C1916 1.349 . S
C1917 C1933 1.349 . S
C1918 C1916 1.327 . S
C1918 C1937 1.429 . S
C1918 H1942 0.950 . S
C1919 C1936 1.574 . S
C1919 C1938 1.368 . S
C1919 H1943 0.949 . S
H1920 C1924 0.949 . S
C1921 C1922 1.349 . S
C1921 C1923 1.327 . S
C1921 H1944 0.950 . S
C1922 C1921 1.349 . S
C1922 C1934 1.349 . S
C1923 C1921 1.327 . S
C1923 C1939 1.429 . S
C1923 H1945 0.950 . S
C1924 H1920 0.949 . S
C1924 C1932 1.574 . S
C1924 C1940 1.368 . S
H1925 C1933 0.950 . S
H1926 C1931 0.950 . S
H1927 C1932 0.949 . S
H1928 C1934 0.950 . S
H1929 C1935 0.950 . S
H1930 C1936 0.949 . S
C1931 H1926 0.950 . S
C1931 C1933 1.327 . S
C1931 C1937 1.429 . S
C1932 C1924 1.574 . S
C1932 H1927 0.949 . S
C1932 C1938 1.368 . S
C1933 C1917 1.349 . S
C1933 H1925 0.950 . S
C1933 C1931 1.327 . S
C1934 C1922 1.349 . S
C1934 H1928 0.950 . S
C1934 C1935 1.327 . S
C1935 H1929 0.950 . S
C1935 C1934 1.327 . S
C1935 C1939 1.429 . S
C1936 C1919 1.574 . S
C1936 H1930 0.949 . S
C1936 C1940 1.368 . S
C1937 C1918 1.429 . S
C1937 C1931 1.429 . S
C1937 C1938 1.523 . S
C1938 C1919 1.368 . S
C1938 C1932 1.368 . S
C1938 C1937 1.523 . S
C1939 C1923 1.429 . S
C1939 C1935 1.429 . S
C1939 C1940 1.523 . S
C1940 C1924 1.368 . S
C1940 C1936 1.368 . S
C1940 C1939 1.523 . S
H1941 C1916 0.950 . S
H1942 C1918 0.950 . S
H1943 C1919 0.949 . S
H1944 C1921 0.950 . S
H1945 C1923 0.950 . S
C1946 C1947 1.349 . S
C1946 C1948 1.327 . S
C1946 H1971 0.950 . S
C1947 C1946 1.349 . S
C1947 C1963 1.349 . S
C1948 C1946 1.327 . S
C1948 C1967 1.429 . S
C1948 H1972 0.950 . S
C1949 C1966 1.574 . S
C1949 C1968 1.368 . S
C1949 H1973 0.949 . S
H1950 C1954 0.949 . S
C1951 C1952 1.349 . S
C1951 C1953 1.327 . S
C1951 H1974 0.950 . S
C1952 C1951 1.349 . S
C1952 C1964 1.349 . S
C1953 C1951 1.327 . S
C1953 C1969 1.429 . S
C1953 H1975 0.950 . S
C1954 H1950 0.949 . S
C1954 C1962 1.574 . S
C1954 C1970 1.368 . S
H1955 C1963 0.950 . S
H1956 C1961 0.950 . S
H1957 C1962 0.949 . S
H1958 C1964 0.950 . S
H1959 C1965 0.950 . S
H1960 C1966 0.949 . S
C1961 H1956 0.950 . S
C1961 C1963 1.327 . S
C1961 C1967 1.429 . S
C1962 C1954 1.574 . S
C1962 H1957 0.949 . S
C1962 C1968 1.368 . S
C1963 C1947 1.349 . S
C1963 H1955 0.950 . S
C1963 C1961 1.327 . S
C1964 C1952 1.349 . S
C1964 H1958 0.950 . S
C1964 C1965 1.327 . S
C1965 H1959 0.950 . S
C1965 C1964 1.327 . S
C1965 C1969 1.429 . S
C1966 C1949 1.574 . S
C1966 H1960 0.949 . S
C1966 C1970 1.368 . S
C1967 C1948 1.429 . S
C1967 C1961 1.429 . S
C1967 C1968 1.523 . S
C1968 C1949 1.368 . S
C1968 C1962 1.368 . S
C1968 C1967 1.523 . S
C1969 C1953 1.429 . S
C1969 C1965 1.429 . S
C1969 C1970 1.523 . S
C1970 C1954 1.368 . S
C1970 C1966 1.368 . S
C1970 C1969 1.523 . S
H1971 C1946 0.950 . S
H1972 C1948 0.950 . S
H1973 C1949 0.949 . S
H1974 C1951 0.950 . S
H1975 C1953 0.950 . S
C1976 C1977 1.349 . S
C1976 C1978 1.327 . S
C1976 H2001 0.950 . S
C1977 C1976 1.349 . S
C1977 C1993 1.349 . S
C1978 C1976 1.327 . S
C1978 C1997 1.429 . S
C1978 H2002 0.950 . S
C1979 C1996 1.574 . S
C1979 C1998 1.368 . S
C1979 H2003 0.949 . S
H1980 C1984 0.949 . S
C1981 C1982 1.349 . S
C1981 C1983 1.327 . S
C1981 H2004 0.950 . S
C1982 C1981 1.349 . S
C1982 C1994 1.349 . S
C1983 C1981 1.327 . S
C1983 C1999 1.429 . S
C1983 H2005 0.950 . S
C1984 H1980 0.949 . S
C1984 C1992 1.574 . S
C1984 C2000 1.368 . S
H1985 C1993 0.950 . S
H1986 C1991 0.950 . S
H1987 C1992 0.949 . S
H1988 C1994 0.950 . S
H1989 C1995 0.950 . S
H1990 C1996 0.949 . S
C1991 H1986 0.950 . S
C1991 C1993 1.327 . S
C1991 C1997 1.429 . S
C1992 C1984 1.574 . S
C1992 H1987 0.949 . S
C1992 C1998 1.368 . S
C1993 C1977 1.349 . S
C1993 H1985 0.950 . S
C1993 C1991 1.327 . S
C1994 C1982 1.349 . S
C1994 H1988 0.950 . S
C1994 C1995 1.327 . S
C1995 H1989 0.950 . S
C1995 C1994 1.327 . S
C1995 C1999 1.429 . S
C1996 C1979 1.574 . S
C1996 H1990 0.949 . S
C1996 C2000 1.368 . S
C1997 C1978 1.429 . S
C1997 C1991 1.429 . S
C1997 C1998 1.523 . S
C1998 C1979 1.368 . S
C1998 C1992 1.368 . S
C1998 C1997 1.523 . S
C1999 C1983 1.429 . S
C1999 C1995 1.429 . S
C1999 C2000 1.523 . S
C2000 C1984 1.368 . S
C2000 C1996 1.368 . S
C2000 C1999 1.523 . S
H2001 C1976 0.950 . S
H2002 C1978 0.950 . S
H2003 C1979 0.949 . S
H2004 C1981 0.950 . S
H2005 C1983 0.950 . S
C2006 C2007 1.349 . S
C2006 C2008 1.327 . S
C2006 H2031 0.950 . S
C2007 C2006 1.349 . S
C2007 C2023 1.349 . S
C2008 C2006 1.327 . S
C2008 C2027 1.429 . S
C2008 H2032 0.950 . S
C2009 C2026 1.574 . S
C2009 C2028 1.368 . S
C2009 H2033 0.949 . S
H2010 C2014 0.949 . S
C2011 C2012 1.349 . S
C2011 C2013 1.327 . S
C2011 H2034 0.950 1_565 S
C2012 C2011 1.349 . S
C2012 C2024 1.349 . S
C2013 C2011 1.327 . S
C2013 C2029 1.429 . S
C2013 H2035 0.950 . S
C2014 H2010 0.949 . S
C2014 C2022 1.574 . S
C2014 C2030 1.368 . S
H2015 C2023 0.950 . S
H2016 C2021 0.950 . S
H2017 C2022 0.949 . S
H2018 C2024 0.950 . S
H2019 C2025 0.950 . S
H2020 C2026 0.949 . S
C2021 H2016 0.950 . S
C2021 C2023 1.327 . S
C2021 C2027 1.429 . S
C2022 C2014 1.574 . S
C2022 H2017 0.949 . S
C2022 C2028 1.368 . S
C2023 C2007 1.349 . S
C2023 H2015 0.950 . S
C2023 C2021 1.327 . S
C2024 C2012 1.349 . S
C2024 H2018 0.950 . S
C2024 C2025 1.327 . S
C2025 H2019 0.950 . S
C2025 C2024 1.327 . S
C2025 C2029 1.429 . S
C2026 C2009 1.574 . S
C2026 H2020 0.949 . S
C2026 C2030 1.368 . S
C2027 C2008 1.429 . S
C2027 C2021 1.429 . S
C2027 C2028 1.523 . S
C2028 C2009 1.368 . S
C2028 C2022 1.368 . S
C2028 C2027 1.523 . S
C2029 C2013 1.429 . S
C2029 C2025 1.429 . S
C2029 C2030 1.523 . S
C2030 C2014 1.368 . S
C2030 C2026 1.368 . S
C2030 C2029 1.523 . S
H2031 C2006 0.950 . S
H2032 C2008 0.950 . S
H2033 C2009 0.949 . S
H2034 C2011 0.950 1_545 S
H2035 C2013 0.950 . S
C2036 C2037 1.349 . S
C2036 C2038 1.327 . S
C2036 H2061 0.950 . S
C2037 C2036 1.349 . S
C2037 C2053 1.349 . S
C2038 C2036 1.327 . S
C2038 C2057 1.429 . S
C2038 H2062 0.950 . S
C2039 C2056 1.574 . S
C2039 C2058 1.368 . S
C2039 H2063 0.949 . S
H2040 C2044 0.949 . S
C2041 C2042 1.349 . S
C2041 C2043 1.327 . S
C2041 H2064 0.950 . S
C2042 C2041 1.349 . S
C2042 C2054 1.349 . S
C2043 C2041 1.327 . S
C2043 C2059 1.429 . S
C2043 H2065 0.950 . S
C2044 H2040 0.949 . S
C2044 C2052 1.574 . S
C2044 C2060 1.368 . S
H2045 C2053 0.950 . S
H2046 C2051 0.950 . S
H2047 C2052 0.949 . S
H2048 C2054 0.950 . S
H2049 C2055 0.950 . S
H2050 C2056 0.949 . S
C2051 H2046 0.950 . S
C2051 C2053 1.327 . S
C2051 C2057 1.429 . S
C2052 C2044 1.574 . S
C2052 H2047 0.949 . S
C2052 C2058 1.368 . S
C2053 C2037 1.349 . S
C2053 H2045 0.950 . S
C2053 C2051 1.327 . S
C2054 C2042 1.349 . S
C2054 H2048 0.950 . S
C2054 C2055 1.327 . S
C2055 H2049 0.950 . S
C2055 C2054 1.327 . S
C2055 C2059 1.429 . S
C2056 C2039 1.574 . S
C2056 H2050 0.949 . S
C2056 C2060 1.368 . S
C2057 C2038 1.429 . S
C2057 C2051 1.429 . S
C2057 C2058 1.523 . S
C2058 C2039 1.368 . S
C2058 C2052 1.368 . S
C2058 C2057 1.523 . S
C2059 C2043 1.429 . S
C2059 C2055 1.429 . S
C2059 C2060 1.523 . S
C2060 C2044 1.368 . S
C2060 C2056 1.368 . S
C2060 C2059 1.523 . S
H2061 C2036 0.950 . S
H2062 C2038 0.950 . S
H2063 C2039 0.949 . S
H2064 C2041 0.950 . S
H2065 C2043 0.950 . S
C2066 C2067 1.349 . S
C2066 C2068 1.327 . S
C2066 H2091 0.950 . S
C2067 C2066 1.349 . S
C2067 C2083 1.349 . S
C2068 C2066 1.327 . S
C2068 C2087 1.429 . S
C2068 H2092 0.950 . S
C2069 C2086 1.574 . S
C2069 C2088 1.368 . S
C2069 H2093 0.949 . S
H2070 C2074 0.949 . S
C2071 C2072 1.349 . S
C2071 C2073 1.327 . S
C2071 H2094 0.950 . S
C2072 C2071 1.349 . S
C2072 C2084 1.349 . S
C2073 C2071 1.327 . S
C2073 C2089 1.429 . S
C2073 H2095 0.950 . S
C2074 H2070 0.949 . S
C2074 C2082 1.574 . S
C2074 C2090 1.368 . S
H2075 C2083 0.950 . S
H2076 C2081 0.950 . S
H2077 C2082 0.949 . S
H2078 C2084 0.950 . S
H2079 C2085 0.950 . S
H2080 C2086 0.949 . S
C2081 H2076 0.950 . S
C2081 C2083 1.327 . S
C2081 C2087 1.429 . S
C2082 C2074 1.574 . S
C2082 H2077 0.949 . S
C2082 C2088 1.368 . S
C2083 C2067 1.349 . S
C2083 H2075 0.950 . S
C2083 C2081 1.327 . S
C2084 C2072 1.349 . S
C2084 H2078 0.950 . S
C2084 C2085 1.327 . S
C2085 H2079 0.950 . S
C2085 C2084 1.327 . S
C2085 C2089 1.429 . S
C2086 C2069 1.574 . S
C2086 H2080 0.949 . S
C2086 C2090 1.368 . S
C2087 C2068 1.429 . S
C2087 C2081 1.429 . S
C2087 C2088 1.523 . S
C2088 C2069 1.368 . S
C2088 C2082 1.368 . S
C2088 C2087 1.523 . S
C2089 C2073 1.429 . S
C2089 C2085 1.429 . S
C2089 C2090 1.523 . S
C2090 C2074 1.368 . S
C2090 C2086 1.368 . S
C2090 C2089 1.523 . S
H2091 C2066 0.950 . S
H2092 C2068 0.950 . S
H2093 C2069 0.949 . S
H2094 C2071 0.950 . S
H2095 C2073 0.950 . S
C2096 C2097 1.349 . S
C2096 C2098 1.327 . S
C2096 H2121 0.950 . S
C2097 C2096 1.349 . S
C2097 C2113 1.349 . S
C2098 C2096 1.327 . S
C2098 C2117 1.429 . S
C2098 H2122 0.950 . S
C2099 C2116 1.574 . S
C2099 C2118 1.368 . S
C2099 H2123 0.949 . S
H2100 C2104 0.949 . S
C2101 C2102 1.349 . S
C2101 C2103 1.327 . S
C2101 H2124 0.950 . S
C2102 C2101 1.349 . S
C2102 C2114 1.349 . S
C2103 C2101 1.327 . S
C2103 C2119 1.429 . S
C2103 H2125 0.950 . S
C2104 H2100 0.949 . S
C2104 C2112 1.574 . S
C2104 C2120 1.368 . S
H2105 C2113 0.950 . S
H2106 C2111 0.950 . S
H2107 C2112 0.949 . S
H2108 C2114 0.950 . S
H2109 C2115 0.950 . S
H2110 C2116 0.949 . S
C2111 H2106 0.950 . S
C2111 C2113 1.327 . S
C2111 C2117 1.429 . S
C2112 C2104 1.574 . S
C2112 H2107 0.949 . S
C2112 C2118 1.368 . S
C2113 C2097 1.349 . S
C2113 H2105 0.950 . S
C2113 C2111 1.327 . S
C2114 C2102 1.349 . S
C2114 H2108 0.950 . S
C2114 C2115 1.327 . S
C2115 H2109 0.950 . S
C2115 C2114 1.327 . S
C2115 C2119 1.429 . S
C2116 C2099 1.574 . S
C2116 H2110 0.949 . S
C2116 C2120 1.368 . S
C2117 C2098 1.429 . S
C2117 C2111 1.429 . S
C2117 C2118 1.523 . S
C2118 C2099 1.368 . S
C2118 C2112 1.368 . S
C2118 C2117 1.523 . S
C2119 C2103 1.429 . S
C2119 C2115 1.429 . S
C2119 C2120 1.523 . S
C2120 C2104 1.368 . S
C2120 C2116 1.368 . S
C2120 C2119 1.523 . S
H2121 C2096 0.950 . S
H2122 C2098 0.950 . S
H2123 C2099 0.949 . S
H2124 C2101 0.950 . S
H2125 C2103 0.950 . S
C2126 C2127 1.349 . S
C2126 C2128 1.327 . S
C2126 H2151 0.950 . S
C2127 C2126 1.349 . S
C2127 C2143 1.349 . S
C2128 C2126 1.327 . S
C2128 C2147 1.429 . S
C2128 H2152 0.950 . S
C2129 C2146 1.574 . S
C2129 C2148 1.368 . S
C2129 H2153 0.949 . S
H2130 C2134 0.949 . S
C2131 C2132 1.349 . S
C2131 C2133 1.327 . S
C2131 H2154 0.950 . S
C2132 C2131 1.349 . S
C2132 C2144 1.349 . S
C2133 C2131 1.327 . S
C2133 C2149 1.429 . S
C2133 H2155 0.950 . S
C2134 H2130 0.949 . S
C2134 C2142 1.574 . S
C2134 C2150 1.368 . S
H2135 C2143 0.950 . S
H2136 C2141 0.950 . S
H2137 C2142 0.949 . S
H2138 C2144 0.950 . S
H2139 C2145 0.950 . S
H2140 C2146 0.949 . S
C2141 H2136 0.950 . S
C2141 C2143 1.327 . S
C2141 C2147 1.429 . S
C2142 C2134 1.574 . S
C2142 H2137 0.949 . S
C2142 C2148 1.368 . S
C2143 C2127 1.349 . S
C2143 H2135 0.950 . S
C2143 C2141 1.327 . S
C2144 C2132 1.349 . S
C2144 H2138 0.950 . S
C2144 C2145 1.327 . S
C2145 H2139 0.950 . S
C2145 C2144 1.327 . S
C2145 C2149 1.429 . S
C2146 C2129 1.574 . S
C2146 H2140 0.949 . S
C2146 C2150 1.368 . S
C2147 C2128 1.429 . S
C2147 C2141 1.429 . S
C2147 C2148 1.523 . S
C2148 C2129 1.368 . S
C2148 C2142 1.368 . S
C2148 C2147 1.523 . S
C2149 C2133 1.429 . S
C2149 C2145 1.429 . S
C2149 C2150 1.523 . S
C2150 C2134 1.368 . S
C2150 C2146 1.368 . S
C2150 C2149 1.523 . S
H2151 C2126 0.950 . S
H2152 C2128 0.950 . S
H2153 C2129 0.949 . S
H2154 C2131 0.950 . S
H2155 C2133 0.950 . S
C2156 C2157 1.349 1_655 S
C2156 C2158 1.327 . S
C2156 H2181 0.950 . S
C2157 C2156 1.349 1_455 S
C2157 C2173 1.349 . S
C2158 C2156 1.327 . S
C2158 C2177 1.429 1_655 S
C2158 H2182 0.950 . S
C2159 C2176 1.574 . S
C2159 C2178 1.368 . S
C2159 H2183 0.949 . S
H2160 C2164 0.949 . S
C2161 C2162 1.349 . S
C2161 C2163 1.327 . S
C2161 H2184 0.950 . S
C2162 C2161 1.349 . S
C2162 C2174 1.349 1_454 S
C2163 C2161 1.327 . S
C2163 C2179 1.429 1_554 S
C2163 H2185 0.950 . S
C2164 H2160 0.949 . S
C2164 C2172 1.574 . S
C2164 C2180 1.368 1_655 S
H2165 C2173 0.950 . S
H2166 C2171 0.950 . S
H2167 C2172 0.949 . S
H2168 C2174 0.950 . S
H2169 C2175 0.950 . S
H2170 C2176 0.949 . S
C2171 H2166 0.950 . S
C2171 C2173 1.327 . S
C2171 C2177 1.429 . S
C2172 C2164 1.574 . S
C2172 H2167 0.949 . S
C2172 C2178 1.368 1_655 S
C2173 C2157 1.349 . S
C2173 H2165 0.950 . S
C2173 C2171 1.327 . S
C2174 C2162 1.349 1_656 S
C2174 H2168 0.950 . S
C2174 C2175 1.327 . S
C2175 H2169 0.950 . S
C2175 C2174 1.327 . S
C2175 C2179 1.429 1_655 S
C2176 C2159 1.574 . S
C2176 H2170 0.949 . S
C2176 C2180 1.368 . S
C2177 C2158 1.429 1_455 S
C2177 C2171 1.429 . S
C2177 C2178 1.523 . S
C2178 C2159 1.368 . S
C2178 C2172 1.368 1_455 S
C2178 C2177 1.523 . S
C2179 C2163 1.429 1_556 S
C2179 C2175 1.429 1_455 S
C2179 C2180 1.523 . S
C2180 C2164 1.368 1_455 S
C2180 C2176 1.368 . S
C2180 C2179 1.523 . S
H2181 C2156 0.950 . S
H2182 C2158 0.950 . S
H2183 C2159 0.949 . S
H2184 C2161 0.950 . S
H2185 C2163 0.950 . S
C2186 C2187 1.349 . S
C2186 C2188 1.327 . S
C2186 H2211 0.950 . S
C2187 C2186 1.349 . S
C2187 C2203 1.349 . S
C2188 C2186 1.327 . S
C2188 C2207 1.429 . S
C2188 H2212 0.950 . S
C2189 C2206 1.574 . S
C2189 C2208 1.368 . S
C2189 H2213 0.949 . S
H2190 C2194 0.949 . S
C2191 C2192 1.349 . S
C2191 C2193 1.327 . S
C2191 H2214 0.950 . S
C2192 C2191 1.349 . S
C2192 C2204 1.349 . S
C2193 C2191 1.327 . S
C2193 C2209 1.429 . S
C2193 H2215 0.950 . S
C2194 H2190 0.949 . S
C2194 C2202 1.574 . S
C2194 C2210 1.368 . S
H2195 C2203 0.950 . S
H2196 C2201 0.950 . S
H2197 C2202 0.949 . S
H2198 C2204 0.950 . S
H2199 C2205 0.950 . S
H2200 C2206 0.949 . S
C2201 H2196 0.950 . S
C2201 C2203 1.327 . S
C2201 C2207 1.429 . S
C2202 C2194 1.574 . S
C2202 H2197 0.949 . S
C2202 C2208 1.368 . S
C2203 C2187 1.349 . S
C2203 H2195 0.950 . S
C2203 C2201 1.327 . S
C2204 C2192 1.349 . S
C2204 H2198 0.950 . S
C2204 C2205 1.327 . S
C2205 H2199 0.950 . S
C2205 C2204 1.327 . S
C2205 C2209 1.429 . S
C2206 C2189 1.574 . S
C2206 H2200 0.949 . S
C2206 C2210 1.368 . S
C2207 C2188 1.429 . S
C2207 C2201 1.429 . S
C2207 C2208 1.523 . S
C2208 C2189 1.368 . S
C2208 C2202 1.368 . S
C2208 C2207 1.523 . S
C2209 C2193 1.429 . S
C2209 C2205 1.429 . S
C2209 C2210 1.523 . S
C2210 C2194 1.368 . S
C2210 C2206 1.368 . S
C2210 C2209 1.523 . S
H2211 C2186 0.950 . S
H2212 C2188 0.950 . S
H2213 C2189 0.949 . S
H2214 C2191 0.950 . S
H2215 C2193 0.950 . S
C2216 C2217 1.349 . S
C2216 C2218 1.327 . S
C2216 H2241 0.950 . S
C2217 C2216 1.349 . S
C2217 C2233 1.349 . S
C2218 C2216 1.327 . S
C2218 C2237 1.429 . S
C2218 H2242 0.950 . S
C2219 C2236 1.574 . S
C2219 C2238 1.368 . S
C2219 H2243 0.949 . S
H2220 C2224 0.949 . S
C2221 C2222 1.349 . S
C2221 C2223 1.327 . S
C2221 H2244 0.950 . S
C2222 C2221 1.349 . S
C2222 C2234 1.349 . S
C2223 C2221 1.327 . S
C2223 C2239 1.429 . S
C2223 H2245 0.950 . S
C2224 H2220 0.949 . S
C2224 C2232 1.574 . S
C2224 C2240 1.368 . S
H2225 C2233 0.950 . S
H2226 C2231 0.950 . S
H2227 C2232 0.949 . S
H2228 C2234 0.950 . S
H2229 C2235 0.950 . S
H2230 C2236 0.949 . S
C2231 H2226 0.950 . S
C2231 C2233 1.327 . S
C2231 C2237 1.429 . S
C2232 C2224 1.574 . S
C2232 H2227 0.949 . S
C2232 C2238 1.368 . S
C2233 C2217 1.349 . S
C2233 H2225 0.950 . S
C2233 C2231 1.327 . S
C2234 C2222 1.349 . S
C2234 H2228 0.950 . S
C2234 C2235 1.327 . S
C2235 H2229 0.950 . S
C2235 C2234 1.327 . S
C2235 C2239 1.429 . S
C2236 C2219 1.574 . S
C2236 H2230 0.949 . S
C2236 C2240 1.368 . S
C2237 C2218 1.429 . S
C2237 C2231 1.429 . S
C2237 C2238 1.523 . S
C2238 C2219 1.368 . S
C2238 C2232 1.368 . S
C2238 C2237 1.523 . S
C2239 C2223 1.429 . S
C2239 C2235 1.429 . S
C2239 C2240 1.523 . S
C2240 C2224 1.368 . S
C2240 C2236 1.368 . S
C2240 C2239 1.523 . S
H2241 C2216 0.950 . S
H2242 C2218 0.950 . S
H2243 C2219 0.949 . S
H2244 C2221 0.950 . S
H2245 C2223 0.950 . S
C2246 C2247 1.349 . S
C2246 C2248 1.327 . S
C2246 H2271 0.950 . S
C2247 C2246 1.349 . S
C2247 C2263 1.349 . S
C2248 C2246 1.327 . S
C2248 C2267 1.429 . S
C2248 H2272 0.950 . S
C2249 C2266 1.574 . S
C2249 C2268 1.368 . S
C2249 H2273 0.949 . S
H2250 C2254 0.949 . S
C2251 C2252 1.349 . S
C2251 C2253 1.327 . S
C2251 H2274 0.950 . S
C2252 C2251 1.349 . S
C2252 C2264 1.349 . S
C2253 C2251 1.327 . S
C2253 C2269 1.429 . S
C2253 H2275 0.950 . S
C2254 H2250 0.949 . S
C2254 C2262 1.574 . S
C2254 C2270 1.368 . S
H2255 C2263 0.950 . S
H2256 C2261 0.950 . S
H2257 C2262 0.949 . S
H2258 C2264 0.950 . S
H2259 C2265 0.950 . S
H2260 C2266 0.949 . S
C2261 H2256 0.950 . S
C2261 C2263 1.327 . S
C2261 C2267 1.429 . S
C2262 C2254 1.574 . S
C2262 H2257 0.949 . S
C2262 C2268 1.368 . S
C2263 C2247 1.349 . S
C2263 H2255 0.950 . S
C2263 C2261 1.327 . S
C2264 C2252 1.349 . S
C2264 H2258 0.950 . S
C2264 C2265 1.327 . S
C2265 H2259 0.950 . S
C2265 C2264 1.327 . S
C2265 C2269 1.429 . S
C2266 C2249 1.574 . S
C2266 H2260 0.949 . S
C2266 C2270 1.368 . S
C2267 C2248 1.429 . S
C2267 C2261 1.429 . S
C2267 C2268 1.523 . S
C2268 C2249 1.368 . S
C2268 C2262 1.368 . S
C2268 C2267 1.523 . S
C2269 C2253 1.429 . S
C2269 C2265 1.429 . S
C2269 C2270 1.523 . S
C2270 C2254 1.368 . S
C2270 C2266 1.368 . S
C2270 C2269 1.523 . S
H2271 C2246 0.950 . S
H2272 C2248 0.950 . S
H2273 C2249 0.949 . S
H2274 C2251 0.950 . S
H2275 C2253 0.950 . S
C2276 C2277 1.349 1_655 S
C2276 C2278 1.327 . S
C2276 H2301 0.950 . S
C2277 C2276 1.349 1_455 S
C2277 C2293 1.349 . S
C2278 C2276 1.327 . S
C2278 C2297 1.429 1_655 S
C2278 H2302 0.950 . S
C2279 C2296 1.574 . S
C2279 C2298 1.368 . S
C2279 H2303 0.949 . S
H2280 C2284 0.949 . S
C2281 C2282 1.349 . S
C2281 C2283 1.327 . S
C2281 H2304 0.950 . S
C2282 C2281 1.349 . S
C2282 C2294 1.349 1_455 S
C2283 C2281 1.327 . S
C2283 C2299 1.429 . S
C2283 H2305 0.950 . S
C2284 H2280 0.949 . S
C2284 C2292 1.574 . S
C2284 C2300 1.368 1_655 S
H2285 C2293 0.950 . S
H2286 C2291 0.950 . S
H2287 C2292 0.949 . S
H2288 C2294 0.950 . S
H2289 C2295 0.950 . S
H2290 C2296 0.949 . S
C2291 H2286 0.950 . S
C2291 C2293 1.327 . S
C2291 C2297 1.429 . S
C2292 C2284 1.574 . S
C2292 H2287 0.949 . S
C2292 C2298 1.368 1_655 S
C2293 C2277 1.349 . S
C2293 H2285 0.950 . S
C2293 C2291 1.327 . S
C2294 C2282 1.349 1_655 S
C2294 H2288 0.950 . S
C2294 C2295 1.327 . S
C2295 H2289 0.950 . S
C2295 C2294 1.327 . S
C2295 C2299 1.429 1_655 S
C2296 C2279 1.574 . S
C2296 H2290 0.949 . S
C2296 C2300 1.368 . S
C2297 C2278 1.429 1_455 S
C2297 C2291 1.429 . S
C2297 C2298 1.523 . S
C2298 C2279 1.368 . S
C2298 C2292 1.368 1_455 S
C2298 C2297 1.523 . S
C2299 C2283 1.429 . S
C2299 C2295 1.429 1_455 S
C2299 C2300 1.523 . S
C2300 C2284 1.368 1_455 S
C2300 C2296 1.368 . S
C2300 C2299 1.523 . S
H2301 C2276 0.950 . S
H2302 C2278 0.950 . S
H2303 C2279 0.949 . S
H2304 C2281 0.950 . S
H2305 C2283 0.950 . S
C2306 C2307 1.349 . S
C2306 C2308 1.327 . S
C2306 H2331 0.950 . S
C2307 C2306 1.349 . S
C2307 C2323 1.349 . S
C2308 C2306 1.327 . S
C2308 C2327 1.429 . S
C2308 H2332 0.950 . S
C2309 C2326 1.574 . S
C2309 C2328 1.368 . S
C2309 H2333 0.949 . S
H2310 C2314 0.949 . S
C2311 C2312 1.349 . S
C2311 C2313 1.327 . S
C2311 H2334 0.950 . S
C2312 C2311 1.349 . S
C2312 C2324 1.349 . S
C2313 C2311 1.327 . S
C2313 C2329 1.429 . S
C2313 H2335 0.950 . S
C2314 H2310 0.949 . S
C2314 C2322 1.574 . S
C2314 C2330 1.368 . S
H2315 C2323 0.950 . S
H2316 C2321 0.950 . S
H2317 C2322 0.949 . S
H2318 C2324 0.950 . S
H2319 C2325 0.950 . S
H2320 C2326 0.949 . S
C2321 H2316 0.950 . S
C2321 C2323 1.327 . S
C2321 C2327 1.429 . S
C2322 C2314 1.574 . S
C2322 H2317 0.949 . S
C2322 C2328 1.368 . S
C2323 C2307 1.349 . S
C2323 H2315 0.950 . S
C2323 C2321 1.327 . S
C2324 C2312 1.349 . S
C2324 H2318 0.950 . S
C2324 C2325 1.327 . S
C2325 H2319 0.950 . S
C2325 C2324 1.327 . S
C2325 C2329 1.429 . S
C2326 C2309 1.574 . S
C2326 H2320 0.949 . S
C2326 C2330 1.368 . S
C2327 C2308 1.429 . S
C2327 C2321 1.429 . S
C2327 C2328 1.523 . S
C2328 C2309 1.368 . S
C2328 C2322 1.368 . S
C2328 C2327 1.523 . S
C2329 C2313 1.429 . S
C2329 C2325 1.429 . S
C2329 C2330 1.523 . S
C2330 C2314 1.368 . S
C2330 C2326 1.368 . S
C2330 C2329 1.523 . S
H2331 C2306 0.950 . S
H2332 C2308 0.950 . S
H2333 C2309 0.949 . S
H2334 C2311 0.950 . S
H2335 C2313 0.950 . S
C2336 C2337 1.349 . S
C2336 C2338 1.327 . S
C2336 H2361 0.950 . S
C2337 C2336 1.349 . S
C2337 C2353 1.349 . S
C2338 C2336 1.327 . S
C2338 C2357 1.429 . S
C2338 H2362 0.950 . S
C2339 C2356 1.574 . S
C2339 C2358 1.368 . S
C2339 H2363 0.949 . S
H2340 C2344 0.949 . S
C2341 C2342 1.349 . S
C2341 C2343 1.327 . S
C2341 H2364 0.950 . S
C2342 C2341 1.349 . S
C2342 C2354 1.349 . S
C2343 C2341 1.327 . S
C2343 C2359 1.429 . S
C2343 H2365 0.950 . S
C2344 H2340 0.949 . S
C2344 C2352 1.574 . S
C2344 C2360 1.368 . S
H2345 C2353 0.950 . S
H2346 C2351 0.950 . S
H2347 C2352 0.949 . S
H2348 C2354 0.950 . S
H2349 C2355 0.950 . S
H2350 C2356 0.949 . S
C2351 H2346 0.950 . S
C2351 C2353 1.327 . S
C2351 C2357 1.429 . S
C2352 C2344 1.574 . S
C2352 H2347 0.949 . S
C2352 C2358 1.368 . S
C2353 C2337 1.349 . S
C2353 H2345 0.950 . S
C2353 C2351 1.327 . S
C2354 C2342 1.349 . S
C2354 H2348 0.950 . S
C2354 C2355 1.327 . S
C2355 H2349 0.950 . S
C2355 C2354 1.327 . S
C2355 C2359 1.429 . S
C2356 C2339 1.574 . S
C2356 H2350 0.949 . S
C2356 C2360 1.368 . S
C2357 C2338 1.429 . S
C2357 C2351 1.429 . S
C2357 C2358 1.523 . S
C2358 C2339 1.368 . S
C2358 C2352 1.368 . S
C2358 C2357 1.523 . S
C2359 C2343 1.429 . S
C2359 C2355 1.429 . S
C2359 C2360 1.523 . S
C2360 C2344 1.368 . S
C2360 C2356 1.368 . S
C2360 C2359 1.523 . S
H2361 C2336 0.950 . S
H2362 C2338 0.950 . S
H2363 C2339 0.949 . S
H2364 C2341 0.950 . S
H2365 C2343 0.950 . S
C2366 C2367 1.349 . S
C2366 C2368 1.327 . S
C2366 H2391 0.950 . S
C2367 C2366 1.349 . S
C2367 C2383 1.349 . S
C2368 C2366 1.327 . S
C2368 C2387 1.429 . S
C2368 H2392 0.950 . S
C2369 C2386 1.574 . S
C2369 C2388 1.368 . S
C2369 H2393 0.949 . S
H2370 C2374 0.949 . S
C2371 C2372 1.349 . S
C2371 C2373 1.327 . S
C2371 H2394 0.950 . S
C2372 C2371 1.349 . S
C2372 C2384 1.349 . S
C2373 C2371 1.327 . S
C2373 C2389 1.429 . S
C2373 H2395 0.950 . S
C2374 H2370 0.949 . S
C2374 C2382 1.574 . S
C2374 C2390 1.368 . S
H2375 C2383 0.950 . S
H2376 C2381 0.950 . S
H2377 C2382 0.949 . S
H2378 C2384 0.950 . S
H2379 C2385 0.950 . S
H2380 C2386 0.949 . S
C2381 H2376 0.950 . S
C2381 C2383 1.327 . S
C2381 C2387 1.429 . S
C2382 C2374 1.574 . S
C2382 H2377 0.949 . S
C2382 C2388 1.368 . S
C2383 C2367 1.349 . S
C2383 H2375 0.950 . S
C2383 C2381 1.327 . S
C2384 C2372 1.349 . S
C2384 H2378 0.950 . S
C2384 C2385 1.327 . S
C2385 H2379 0.950 . S
C2385 C2384 1.327 . S
C2385 C2389 1.429 . S
C2386 C2369 1.574 . S
C2386 H2380 0.949 . S
C2386 C2390 1.368 . S
C2387 C2368 1.429 . S
C2387 C2381 1.429 . S
C2387 C2388 1.523 . S
C2388 C2369 1.368 . S
C2388 C2382 1.368 . S
C2388 C2387 1.523 . S
C2389 C2373 1.429 . S
C2389 C2385 1.429 . S
C2389 C2390 1.523 . S
C2390 C2374 1.368 . S
C2390 C2386 1.368 . S
C2390 C2389 1.523 . S
H2391 C2366 0.950 . S
H2392 C2368 0.950 . S
H2393 C2369 0.949 . S
H2394 C2371 0.950 . S
H2395 C2373 0.950 . S
C2396 C2397 1.349 . S
C2396 C2398 1.327 . S
C2396 H2421 0.950 . S
C2397 C2396 1.349 . S
C2397 C2413 1.349 . S
C2398 C2396 1.327 . S
C2398 C2417 1.429 . S
C2398 H2422 0.950 . S
C2399 C2416 1.574 . S
C2399 C2418 1.368 . S
C2399 H2423 0.949 . S
H2400 C2404 0.949 . S
C2401 C2402 1.349 . S
C2401 C2403 1.327 . S
C2401 H2424 0.950 . S
C2402 C2401 1.349 . S
C2402 C2414 1.349 . S
C2403 C2401 1.327 . S
C2403 C2419 1.429 . S
C2403 H2425 0.950 . S
C2404 H2400 0.949 . S
C2404 C2412 1.574 . S
C2404 C2420 1.368 . S
H2405 C2413 0.950 . S
H2406 C2411 0.950 . S
H2407 C2412 0.949 . S
H2408 C2414 0.950 . S
H2409 C2415 0.950 . S
H2410 C2416 0.949 . S
C2411 H2406 0.950 . S
C2411 C2413 1.327 . S
C2411 C2417 1.429 . S
C2412 C2404 1.574 . S
C2412 H2407 0.949 . S
C2412 C2418 1.368 . S
C2413 C2397 1.349 . S
C2413 H2405 0.950 . S
C2413 C2411 1.327 . S
C2414 C2402 1.349 . S
C2414 H2408 0.950 . S
C2414 C2415 1.327 . S
C2415 H2409 0.950 . S
C2415 C2414 1.327 . S
C2415 C2419 1.429 . S
C2416 C2399 1.574 . S
C2416 H2410 0.949 . S
C2416 C2420 1.368 . S
C2417 C2398 1.429 . S
C2417 C2411 1.429 . S
C2417 C2418 1.523 . S
C2418 C2399 1.368 . S
C2418 C2412 1.368 . S
C2418 C2417 1.523 . S
C2419 C2403 1.429 . S
C2419 C2415 1.429 . S
C2419 C2420 1.523 . S
C2420 C2404 1.368 . S
C2420 C2416 1.368 . S
C2420 C2419 1.523 . S
H2421 C2396 0.950 . S
H2422 C2398 0.950 . S
H2423 C2399 0.949 . S
H2424 C2401 0.950 . S
H2425 C2403 0.950 . S
C2426 C2427 1.349 . S
C2426 C2428 1.327 . S
C2426 H2451 0.950 . S
C2427 C2426 1.349 . S
C2427 C2443 1.349 . S
C2428 C2426 1.327 . S
C2428 C2447 1.429 . S
C2428 H2452 0.950 . S
C2429 C2446 1.574 . S
C2429 C2448 1.368 . S
C2429 H2453 0.949 . S
H2430 C2434 0.949 . S
C2431 C2432 1.349 . S
C2431 C2433 1.327 . S
C2431 H2454 0.950 . S
C2432 C2431 1.349 . S
C2432 C2444 1.349 . S
C2433 C2431 1.327 . S
C2433 C2449 1.429 . S
C2433 H2455 0.950 . S
C2434 H2430 0.949 . S
C2434 C2442 1.574 . S
C2434 C2450 1.368 . S
H2435 C2443 0.950 . S
H2436 C2441 0.950 . S
H2437 C2442 0.949 . S
H2438 C2444 0.950 . S
H2439 C2445 0.950 . S
H2440 C2446 0.949 . S
C2441 H2436 0.950 . S
C2441 C2443 1.327 . S
C2441 C2447 1.429 . S
C2442 C2434 1.574 . S
C2442 H2437 0.949 . S
C2442 C2448 1.368 . S
C2443 C2427 1.349 . S
C2443 H2435 0.950 . S
C2443 C2441 1.327 . S
C2444 C2432 1.349 . S
C2444 H2438 0.950 . S
C2444 C2445 1.327 . S
C2445 H2439 0.950 . S
C2445 C2444 1.327 . S
C2445 C2449 1.429 . S
C2446 C2429 1.574 . S
C2446 H2440 0.949 . S
C2446 C2450 1.368 . S
C2447 C2428 1.429 . S
C2447 C2441 1.429 . S
C2447 C2448 1.523 . S
C2448 C2429 1.368 . S
C2448 C2442 1.368 . S
C2448 C2447 1.523 . S
C2449 C2433 1.429 . S
C2449 C2445 1.429 . S
C2449 C2450 1.523 . S
C2450 C2434 1.368 . S
C2450 C2446 1.368 . S
C2450 C2449 1.523 . S
H2451 C2426 0.950 . S
H2452 C2428 0.950 . S
H2453 C2429 0.949 . S
H2454 C2431 0.950 . S
H2455 C2433 0.950 . S
C2456 C2457 1.349 . S
C2456 C2458 1.327 . S
C2456 H2481 0.950 . S
C2457 C2456 1.349 . S
C2457 C2473 1.349 . S
C2458 C2456 1.327 . S
C2458 C2477 1.429 . S
C2458 H2482 0.950 . S
C2459 C2476 1.574 . S
C2459 C2478 1.368 . S
C2459 H2483 0.949 . S
H2460 C2464 0.949 . S
C2461 C2462 1.349 . S
C2461 C2463 1.327 . S
C2461 H2484 0.950 . S
C2462 C2461 1.349 . S
C2462 C2474 1.349 . S
C2463 C2461 1.327 . S
C2463 C2479 1.429 . S
C2463 H2485 0.950 . S
C2464 H2460 0.949 . S
C2464 C2472 1.574 . S
C2464 C2480 1.368 . S
H2465 C2473 0.950 . S
H2466 C2471 0.950 . S
H2467 C2472 0.949 . S
H2468 C2474 0.950 . S
H2469 C2475 0.950 . S
H2470 C2476 0.949 . S
C2471 H2466 0.950 . S
C2471 C2473 1.327 . S
C2471 C2477 1.429 . S
C2472 C2464 1.574 . S
C2472 H2467 0.949 . S
C2472 C2478 1.368 . S
C2473 C2457 1.349 . S
C2473 H2465 0.950 . S
C2473 C2471 1.327 . S
C2474 C2462 1.349 . S
C2474 H2468 0.950 . S
C2474 C2475 1.327 . S
C2475 H2469 0.950 . S
C2475 C2474 1.327 . S
C2475 C2479 1.429 . S
C2476 C2459 1.574 . S
C2476 H2470 0.949 . S
C2476 C2480 1.368 . S
C2477 C2458 1.429 . S
C2477 C2471 1.429 . S
C2477 C2478 1.523 . S
C2478 C2459 1.368 . S
C2478 C2472 1.368 . S
C2478 C2477 1.523 . S
C2479 C2463 1.429 . S
C2479 C2475 1.429 . S
C2479 C2480 1.523 . S
C2480 C2464 1.368 . S
C2480 C2476 1.368 . S
C2480 C2479 1.523 . S
H2481 C2456 0.950 . S
H2482 C2458 0.950 . S
H2483 C2459 0.949 . S
H2484 C2461 0.950 . S
H2485 C2463 0.950 . S
C2486 C2487 1.349 . S
C2486 C2488 1.327 . S
C2486 H2511 0.950 . S
C2487 C2486 1.349 . S
C2487 C2503 1.349 . S
C2488 C2486 1.327 . S
C2488 C2507 1.429 . S
C2488 H2512 0.950 . S
C2489 C2506 1.574 . S
C2489 C2508 1.368 . S
C2489 H2513 0.949 . S
H2490 C2494 0.949 . S
C2491 C2492 1.349 . S
C2491 C2493 1.327 . S
C2491 H2514 0.950 . S
C2492 C2491 1.349 . S
C2492 C2504 1.349 . S
C2493 C2491 1.327 . S
C2493 C2509 1.429 . S
C2493 H2515 0.950 . S
C2494 H2490 0.949 . S
C2494 C2502 1.574 . S
C2494 C2510 1.368 . S
H2495 C2503 0.950 . S
H2496 C2501 0.950 . S
H2497 C2502 0.949 . S
H2498 C2504 0.950 . S
H2499 C2505 0.950 . S
H2500 C2506 0.949 . S
C2501 H2496 0.950 . S
C2501 C2503 1.327 . S
C2501 C2507 1.429 . S
C2502 C2494 1.574 . S
C2502 H2497 0.949 . S
C2502 C2508 1.368 . S
C2503 C2487 1.349 . S
C2503 H2495 0.950 . S
C2503 C2501 1.327 . S
C2504 C2492 1.349 . S
C2504 H2498 0.950 . S
C2504 C2505 1.327 . S
C2505 H2499 0.950 . S
C2505 C2504 1.327 . S
C2505 C2509 1.429 . S
C2506 C2489 1.574 . S
C2506 H2500 0.949 . S
C2506 C2510 1.368 . S
C2507 C2488 1.429 . S
C2507 C2501 1.429 . S
C2507 C2508 1.523 . S
C2508 C2489 1.368 . S
C2508 C2502 1.368 . S
C2508 C2507 1.523 . S
C2509 C2493 1.429 . S
C2509 C2505 1.429 . S
C2509 C2510 1.523 . S
C2510 C2494 1.368 . S
C2510 C2506 1.368 . S
C2510 C2509 1.523 . S
H2511 C2486 0.950 . S
H2512 C2488 0.950 . S
H2513 C2489 0.949 . S
H2514 C2491 0.950 . S
H2515 C2493 0.950 . S
C2516 C2517 1.349 . S
C2516 C2518 1.327 . S
C2516 H2541 0.950 . S
C2517 C2516 1.349 . S
C2517 C2533 1.349 . S
C2518 C2516 1.327 . S
C2518 C2537 1.429 . S
C2518 H2542 0.950 . S
C2519 C2536 1.574 . S
C2519 C2538 1.368 . S
C2519 H2543 0.949 . S
H2520 C2524 0.949 . S
C2521 C2522 1.349 . S
C2521 C2523 1.327 . S
C2521 H2544 0.950 . S
C2522 C2521 1.349 . S
C2522 C2534 1.349 . S
C2523 C2521 1.327 . S
C2523 C2539 1.429 . S
C2523 H2545 0.950 . S
C2524 H2520 0.949 . S
C2524 C2532 1.574 . S
C2524 C2540 1.368 . S
H2525 C2533 0.950 . S
H2526 C2531 0.950 . S
H2527 C2532 0.949 . S
H2528 C2534 0.950 . S
H2529 C2535 0.950 . S
H2530 C2536 0.949 . S
C2531 H2526 0.950 . S
C2531 C2533 1.327 . S
C2531 C2537 1.429 . S
C2532 C2524 1.574 . S
C2532 H2527 0.949 . S
C2532 C2538 1.368 . S
C2533 C2517 1.349 . S
C2533 H2525 0.950 . S
C2533 C2531 1.327 . S
C2534 C2522 1.349 . S
C2534 H2528 0.950 . S
C2534 C2535 1.327 . S
C2535 H2529 0.950 . S
C2535 C2534 1.327 . S
C2535 C2539 1.429 . S
C2536 C2519 1.574 . S
C2536 H2530 0.949 . S
C2536 C2540 1.368 . S
C2537 C2518 1.429 . S
C2537 C2531 1.429 . S
C2537 C2538 1.523 . S
C2538 C2519 1.368 . S
C2538 C2532 1.368 . S
C2538 C2537 1.523 . S
C2539 C2523 1.429 . S
C2539 C2535 1.429 . S
C2539 C2540 1.523 . S
C2540 C2524 1.368 . S
C2540 C2536 1.368 . S
C2540 C2539 1.523 . S
H2541 C2516 0.950 . S
H2542 C2518 0.950 . S
H2543 C2519 0.949 . S
H2544 C2521 0.950 . S
H2545 C2523 0.950 . S
C2546 C2547 1.349 . S
C2546 C2548 1.327 . S
C2546 H2571 0.950 . S
C2547 C2546 1.349 . S
C2547 C2563 1.349 . S
C2548 C2546 1.327 . S
C2548 C2567 1.429 . S
C2548 H2572 0.950 . S
C2549 C2566 1.574 . S
C2549 C2568 1.368 . S
C2549 H2573 0.949 . S
H2550 C2554 0.949 . S
C2551 C2552 1.349 . S
C2551 C2553 1.327 . S
C2551 H2574 0.950 . S
C2552 C2551 1.349 . S
C2552 C2564 1.349 . S
C2553 C2551 1.327 . S
C2553 C2569 1.429 . S
C2553 H2575 0.950 . S
C2554 H2550 0.949 . S
C2554 C2562 1.574 . S
C2554 C2570 1.368 . S
H2555 C2563 0.950 . S
H2556 C2561 0.950 . S
H2557 C2562 0.949 . S
H2558 C2564 0.950 . S
H2559 C2565 0.950 . S
H2560 C2566 0.949 . S
C2561 H2556 0.950 . S
C2561 C2563 1.327 . S
C2561 C2567 1.429 . S
C2562 C2554 1.574 . S
C2562 H2557 0.949 . S
C2562 C2568 1.368 . S
C2563 C2547 1.349 . S
C2563 H2555 0.950 . S
C2563 C2561 1.327 . S
C2564 C2552 1.349 . S
C2564 H2558 0.950 . S
C2564 C2565 1.327 . S
C2565 H2559 0.950 . S
C2565 C2564 1.327 . S
C2565 C2569 1.429 . S
C2566 C2549 1.574 . S
C2566 H2560 0.949 . S
C2566 C2570 1.368 . S
C2567 C2548 1.429 . S
C2567 C2561 1.429 . S
C2567 C2568 1.523 . S
C2568 C2549 1.368 . S
C2568 C2562 1.368 . S
C2568 C2567 1.523 . S
C2569 C2553 1.429 . S
C2569 C2565 1.429 . S
C2569 C2570 1.523 . S
C2570 C2554 1.368 . S
C2570 C2566 1.368 . S
C2570 C2569 1.523 . S
H2571 C2546 0.950 . S
H2572 C2548 0.950 . S
H2573 C2549 0.949 . S
H2574 C2551 0.950 . S
H2575 C2553 0.950 . S
C2576 C2577 1.349 . S
C2576 C2578 1.327 . S
C2576 H2601 0.950 . S
C2577 C2576 1.349 . S
C2577 C2593 1.349 . S
C2578 C2576 1.327 . S
C2578 C2597 1.429 . S
C2578 H2602 0.950 . S
C2579 C2596 1.574 . S
C2579 C2598 1.368 . S
C2579 H2603 0.949 . S
H2580 C2584 0.949 . S
C2581 C2582 1.349 . S
C2581 C2583 1.327 . S
C2581 H2604 0.950 . S
C2582 C2581 1.349 . S
C2582 C2594 1.349 . S
C2583 C2581 1.327 . S
C2583 C2599 1.429 . S
C2583 H2605 0.950 . S
C2584 H2580 0.949 . S
C2584 C2592 1.574 . S
C2584 C2600 1.368 . S
H2585 C2593 0.950 . S
H2586 C2591 0.950 . S
H2587 C2592 0.949 . S
H2588 C2594 0.950 . S
H2589 C2595 0.950 . S
H2590 C2596 0.949 . S
C2591 H2586 0.950 . S
C2591 C2593 1.327 . S
C2591 C2597 1.429 . S
C2592 C2584 1.574 . S
C2592 H2587 0.949 . S
C2592 C2598 1.368 . S
C2593 C2577 1.349 . S
C2593 H2585 0.950 . S
C2593 C2591 1.327 . S
C2594 C2582 1.349 . S
C2594 H2588 0.950 . S
C2594 C2595 1.327 . S
C2595 H2589 0.950 . S
C2595 C2594 1.327 . S
C2595 C2599 1.429 . S
C2596 C2579 1.574 . S
C2596 H2590 0.949 . S
C2596 C2600 1.368 . S
C2597 C2578 1.429 . S
C2597 C2591 1.429 . S
C2597 C2598 1.523 . S
C2598 C2579 1.368 . S
C2598 C2592 1.368 . S
C2598 C2597 1.523 . S
C2599 C2583 1.429 . S
C2599 C2595 1.429 . S
C2599 C2600 1.523 . S
C2600 C2584 1.368 . S
C2600 C2596 1.368 . S
C2600 C2599 1.523 . S
H2601 C2576 0.950 . S
H2602 C2578 0.950 . S
H2603 C2579 0.949 . S
H2604 C2581 0.950 . S
H2605 C2583 0.950 . S
C2606 C2607 1.349 . S
C2606 C2608 1.327 . S
C2606 H2631 0.950 . S
C2607 C2606 1.349 . S
C2607 C2623 1.349 . S
C2608 C2606 1.327 . S
C2608 C2627 1.429 . S
C2608 H2632 0.950 . S
C2609 C2626 1.574 . S
C2609 C2628 1.368 . S
C2609 H2633 0.949 . S
H2610 C2614 0.949 . S
C2611 C2612 1.349 . S
C2611 C2613 1.327 . S
C2611 H2634 0.950 . S
C2612 C2611 1.349 . S
C2612 C2624 1.349 . S
C2613 C2611 1.327 . S
C2613 C2629 1.429 . S
C2613 H2635 0.950 . S
C2614 H2610 0.949 . S
C2614 C2622 1.574 . S
C2614 C2630 1.368 . S
H2615 C2623 0.950 . S
H2616 C2621 0.950 . S
H2617 C2622 0.949 . S
H2618 C2624 0.950 . S
H2619 C2625 0.950 . S
H2620 C2626 0.949 . S
C2621 H2616 0.950 . S
C2621 C2623 1.327 . S
C2621 C2627 1.429 . S
C2622 C2614 1.574 . S
C2622 H2617 0.949 . S
C2622 C2628 1.368 . S
C2623 C2607 1.349 . S
C2623 H2615 0.950 . S
C2623 C2621 1.327 . S
C2624 C2612 1.349 . S
C2624 H2618 0.950 . S
C2624 C2625 1.327 . S
C2625 H2619 0.950 . S
C2625 C2624 1.327 . S
C2625 C2629 1.429 . S
C2626 C2609 1.574 . S
C2626 H2620 0.949 . S
C2626 C2630 1.368 . S
C2627 C2608 1.429 . S
C2627 C2621 1.429 . S
C2627 C2628 1.523 . S
C2628 C2609 1.368 . S
C2628 C2622 1.368 . S
C2628 C2627 1.523 . S
C2629 C2613 1.429 . S
C2629 C2625 1.429 . S
C2629 C2630 1.523 . S
C2630 C2614 1.368 . S
C2630 C2626 1.368 . S
C2630 C2629 1.523 . S
H2631 C2606 0.950 . S
H2632 C2608 0.950 . S
H2633 C2609 0.949 . S
H2634 C2611 0.950 . S
H2635 C2613 0.950 . S
C2636 C2637 1.349 . S
C2636 C2638 1.327 . S
C2636 H2661 0.950 . S
C2637 C2636 1.349 . S
C2637 C2653 1.349 . S
C2638 C2636 1.327 . S
C2638 C2657 1.429 . S
C2638 H2662 0.950 . S
C2639 C2656 1.574 . S
C2639 C2658 1.368 . S
C2639 H2663 0.949 . S
H2640 C2644 0.949 . S
C2641 C2642 1.349 . S
C2641 C2643 1.327 . S
C2641 H2664 0.950 . S
C2642 C2641 1.349 . S
C2642 C2654 1.349 . S
C2643 C2641 1.327 . S
C2643 C2659 1.429 . S
C2643 H2665 0.950 . S
C2644 H2640 0.949 . S
C2644 C2652 1.574 . S
C2644 C2660 1.368 . S
H2645 C2653 0.950 . S
H2646 C2651 0.950 . S
H2647 C2652 0.949 . S
H2648 C2654 0.950 . S
H2649 C2655 0.950 . S
H2650 C2656 0.949 . S
C2651 H2646 0.950 . S
C2651 C2653 1.327 . S
C2651 C2657 1.429 . S
C2652 C2644 1.574 . S
C2652 H2647 0.949 . S
C2652 C2658 1.368 . S
C2653 C2637 1.349 . S
C2653 H2645 0.950 . S
C2653 C2651 1.327 . S
C2654 C2642 1.349 . S
C2654 H2648 0.950 . S
C2654 C2655 1.327 . S
C2655 H2649 0.950 . S
C2655 C2654 1.327 . S
C2655 C2659 1.429 . S
C2656 C2639 1.574 . S
C2656 H2650 0.949 . S
C2656 C2660 1.368 . S
C2657 C2638 1.429 . S
C2657 C2651 1.429 . S
C2657 C2658 1.523 . S
C2658 C2639 1.368 . S
C2658 C2652 1.368 . S
C2658 C2657 1.523 . S
C2659 C2643 1.429 . S
C2659 C2655 1.429 . S
C2659 C2660 1.523 . S
C2660 C2644 1.368 . S
C2660 C2656 1.368 . S
C2660 C2659 1.523 . S
H2661 C2636 0.950 . S
H2662 C2638 0.950 . S
H2663 C2639 0.949 . S
H2664 C2641 0.950 . S
H2665 C2643 0.950 . S
C2666 C2667 1.349 . S
C2666 C2668 1.327 . S
C2666 H2691 0.950 . S
C2667 C2666 1.349 . S
C2667 C2683 1.349 . S
C2668 C2666 1.327 . S
C2668 C2687 1.429 . S
C2668 H2692 0.950 . S
C2669 C2686 1.574 . S
C2669 C2688 1.368 . S
C2669 H2693 0.949 1_554 S
H2670 C2674 0.949 . S
C2671 C2672 1.350 1_556 S
C2671 C2673 1.320 1_546 S
C2671 H2694 0.948 . S
C2672 C2671 1.350 1_554 S
C2672 C2684 1.349 . S
C2673 C2671 1.320 1_564 S
C2673 C2689 1.479 . S
C2673 H2695 0.907 1_554 S
C2674 H2670 0.949 . S
C2674 C2682 1.574 . S
C2674 C2690 1.368 . S
H2675 C2683 0.910 1_556 S
H2676 C2681 0.950 1_556 S
H2677 C2682 0.949 . S
H2678 C2684 0.950 . S
H2679 C2685 0.955 . S
H2680 C2686 0.949 1_556 S
C2681 H2676 0.950 1_554 S
C2681 C2683 1.327 . S
C2681 C2687 1.429 . S
C2682 C2674 1.574 . S
C2682 H2677 0.949 . S
C2682 C2688 1.368 . S
C2683 C2667 1.349 . S
C2683 H2675 0.910 1_554 S
C2683 C2681 1.327 . S
C2684 C2672 1.349 . S
C2684 H2678 0.950 . S
C2684 C2685 1.309 1_545 S
C2685 H2679 0.955 . S
C2685 C2684 1.309 1_565 S
C2685 C2689 1.445 . S
C2686 C2669 1.574 . S
C2686 H2680 0.949 1_554 S
C2686 C2690 1.368 . S
C2687 C2668 1.429 . S
C2687 C2681 1.429 . S
C2687 C2688 1.523 . S
C2688 C2669 1.368 . S
C2688 C2682 1.368 . S
C2688 C2687 1.523 . S
C2689 C2673 1.479 . S
C2689 C2685 1.445 . S
C2689 C2690 1.523 . S
C2690 C2674 1.368 . S
C2690 C2686 1.368 . S
C2690 C2689 1.523 . S
H2691 C2666 0.950 . S
H2692 C2668 0.950 . S
H2693 C2669 0.949 1_556 S
H2694 C2671 0.948 . S
H2695 C2673 0.907 1_556 S
C2696 C2697 1.349 . S
C2696 C2698 1.327 . S
C2696 H2721 0.950 . S
C2697 C2696 1.349 . S
C2697 C2713 1.349 . S
C2698 C2696 1.327 . S
C2698 C2717 1.429 . S
C2698 H2722 0.950 . S
C2699 C2716 1.574 . S
C2699 C2718 1.368 . S
C2699 H2723 0.949 . S
H2700 C2704 0.949 . S
C2701 C2702 1.349 . S
C2701 C2703 1.327 . S
C2701 H2724 0.950 . S
C2702 C2701 1.349 . S
C2702 C2714 1.349 . S
C2703 C2701 1.327 . S
C2703 C2719 1.429 . S
C2703 H2725 0.950 . S
C2704 H2700 0.949 . S
C2704 C2712 1.574 . S
C2704 C2720 1.368 . S
H2705 C2713 0.950 . S
H2706 C2711 0.950 . S
H2707 C2712 0.949 . S
H2708 C2714 0.950 . S
H2709 C2715 0.950 . S
H2710 C2716 0.949 . S
C2711 H2706 0.950 . S
C2711 C2713 1.327 . S
C2711 C2717 1.429 . S
C2712 C2704 1.574 . S
C2712 H2707 0.949 . S
C2712 C2718 1.368 . S
C2713 C2697 1.349 . S
C2713 H2705 0.950 . S
C2713 C2711 1.327 . S
C2714 C2702 1.349 . S
C2714 H2708 0.950 . S
C2714 C2715 1.327 . S
C2715 H2709 0.950 . S
C2715 C2714 1.327 . S
C2715 C2719 1.429 . S
C2716 C2699 1.574 . S
C2716 H2710 0.949 . S
C2716 C2720 1.368 . S
C2717 C2698 1.429 . S
C2717 C2711 1.429 . S
C2717 C2718 1.523 . S
C2718 C2699 1.368 . S
C2718 C2712 1.368 . S
C2718 C2717 1.523 . S
C2719 C2703 1.429 . S
C2719 C2715 1.429 . S
C2719 C2720 1.523 . S
C2720 C2704 1.368 . S
C2720 C2716 1.368 . S
C2720 C2719 1.523 . S
H2721 C2696 0.950 . S
H2722 C2698 0.950 . S
H2723 C2699 0.949 . S
H2724 C2701 0.950 . S
H2725 C2703 0.950 . S
C2726 C2727 1.349 . S
C2726 C2728 1.327 . S
C2726 H2751 0.950 . S
C2727 C2726 1.349 . S
C2727 C2743 1.349 . S
C2728 C2726 1.327 . S
C2728 C2747 1.429 . S
C2728 H2752 0.950 . S
C2729 C2746 1.574 . S
C2729 C2748 1.368 . S
C2729 H2753 0.949 1_554 S
H2730 C2734 0.949 . S
C2731 C2732 1.349 . S
C2731 C2733 1.327 . S
C2731 H2754 0.950 . S
C2732 C2731 1.349 . S
C2732 C2744 1.349 . S
C2733 C2731 1.327 . S
C2733 C2749 1.429 . S
C2733 H2755 0.950 . S
C2734 H2730 0.949 . S
C2734 C2742 1.574 . S
C2734 C2750 1.368 . S
H2735 C2743 0.950 1_556 S
H2736 C2741 0.950 1_556 S
H2737 C2742 0.949 . S
H2738 C2744 0.950 . S
H2739 C2745 0.950 . S
H2740 C2746 0.955 . S
C2741 H2736 0.950 1_554 S
C2741 C2743 1.327 . S
C2741 C2747 1.429 . S
C2742 C2734 1.574 . S
C2742 H2737 0.949 . S
C2742 C2748 1.368 . S
C2743 C2727 1.349 . S
C2743 H2735 0.950 1_554 S
C2743 C2741 1.327 . S
C2744 C2732 1.349 . S
C2744 H2738 0.950 . S
C2744 C2745 1.327 . S
C2745 H2739 0.950 . S
C2745 C2744 1.327 . S
C2745 C2749 1.429 . S
C2746 C2729 1.574 . S
C2746 H2740 0.955 . S
C2746 C2750 1.368 . S
C2747 C2728 1.429 . S
C2747 C2741 1.429 . S
C2747 C2748 1.523 . S
C2748 C2729 1.368 . S
C2748 C2742 1.368 . S
C2748 C2747 1.523 . S
C2749 C2733 1.429 . S
C2749 C2745 1.429 . S
C2749 C2750 1.523 . S
C2750 C2734 1.368 . S
C2750 C2746 1.368 . S
C2750 C2749 1.523 . S
H2751 C2726 0.950 . S
H2752 C2728 0.950 . S
H2753 C2729 0.949 1_556 S
H2754 C2731 0.950 . S
H2755 C2733 0.950 . S
C2756 C2757 1.349 . S
C2756 C2758 1.327 . S
C2756 H2781 0.950 . S
C2757 C2756 1.349 . S
C2757 C2773 1.349 . S
C2758 C2756 1.327 . S
C2758 C2777 1.429 . S
C2758 H2782 0.950 . S
C2759 C2776 1.574 . S
C2759 C2778 1.368 . S
C2759 H2783 0.949 . S
H2760 C2764 0.949 . S
C2761 C2762 1.349 . S
C2761 C2763 1.327 . S
C2761 H2784 0.950 . S
C2762 C2761 1.349 . S
C2762 C2774 1.349 . S
C2763 C2761 1.327 . S
C2763 C2779 1.429 . S
C2763 H2785 0.950 . S
C2764 H2760 0.949 . S
C2764 C2772 1.574 . S
C2764 C2780 1.368 . S
H2765 C2773 0.950 . S
H2766 C2771 0.950 . S
H2767 C2772 0.949 . S
H2768 C2774 0.950 . S
H2769 C2775 0.950 . S
H2770 C2776 0.949 . S
C2771 H2766 0.950 . S
C2771 C2773 1.327 . S
C2771 C2777 1.429 . S
C2772 C2764 1.574 . S
C2772 H2767 0.949 . S
C2772 C2778 1.368 . S
C2773 C2757 1.349 . S
C2773 H2765 0.950 . S
C2773 C2771 1.327 . S
C2774 C2762 1.349 . S
C2774 H2768 0.950 . S
C2774 C2775 1.327 . S
C2775 H2769 0.950 . S
C2775 C2774 1.327 . S
C2775 C2779 1.429 . S
C2776 C2759 1.574 . S
C2776 H2770 0.949 . S
C2776 C2780 1.368 . S
C2777 C2758 1.429 . S
C2777 C2771 1.429 . S
C2777 C2778 1.523 . S
C2778 C2759 1.368 . S
C2778 C2772 1.368 . S
C2778 C2777 1.523 . S
C2779 C2763 1.429 . S
C2779 C2775 1.429 . S
C2779 C2780 1.523 . S
C2780 C2764 1.368 . S
C2780 C2776 1.368 . S
C2780 C2779 1.523 . S
H2781 C2756 0.950 . S
H2782 C2758 0.950 . S
H2783 C2759 0.949 . S
H2784 C2761 0.950 . S
H2785 C2763 0.950 . S
C2786 C2787 1.349 . S
C2786 C2788 1.327 . S
C2786 H2811 0.950 . S
C2787 C2786 1.349 . S
C2787 C2803 1.349 . S
C2788 C2786 1.327 . S
C2788 C2807 1.429 . S
C2788 H2812 0.950 . S
C2789 C2806 1.574 . S
C2789 C2808 1.368 . S
C2789 H2813 0.949 . S
H2790 C2794 0.949 . S
C2791 C2792 1.349 . S
C2791 C2793 1.327 . S
C2791 H2814 0.950 . S
C2792 C2791 1.349 . S
C2792 C2804 1.349 . S
C2793 C2791 1.327 . S
C2793 C2809 1.429 . S
C2793 H2815 0.950 . S
C2794 H2790 0.949 . S
C2794 C2802 1.574 . S
C2794 C2810 1.368 . S
H2795 C2803 0.950 . S
H2796 C2801 0.950 . S
H2797 C2802 0.949 . S
H2798 C2804 0.950 . S
H2799 C2805 0.950 . S
H2800 C2806 0.949 . S
C2801 H2796 0.950 . S
C2801 C2803 1.327 . S
C2801 C2807 1.429 . S
C2802 C2794 1.574 . S
C2802 H2797 0.949 . S
C2802 C2808 1.368 . S
C2803 C2787 1.349 . S
C2803 H2795 0.950 . S
C2803 C2801 1.327 . S
C2804 C2792 1.349 . S
C2804 H2798 0.950 . S
C2804 C2805 1.327 . S
C2805 H2799 0.950 . S
C2805 C2804 1.327 . S
C2805 C2809 1.429 . S
C2806 C2789 1.574 . S
C2806 H2800 0.949 . S
C2806 C2810 1.368 . S
C2807 C2788 1.429 . S
C2807 C2801 1.429 . S
C2807 C2808 1.523 . S
C2808 C2789 1.368 . S
C2808 C2802 1.368 . S
C2808 C2807 1.523 . S
C2809 C2793 1.429 . S
C2809 C2805 1.429 . S
C2809 C2810 1.523 . S
C2810 C2794 1.368 . S
C2810 C2806 1.368 . S
C2810 C2809 1.523 . S
H2811 C2786 0.950 . S
H2812 C2788 0.950 . S
H2813 C2789 0.949 . S
H2814 C2791 0.950 . S
H2815 C2793 0.950 . S
C2816 C2817 1.349 . S
C2816 C2818 1.327 . S
C2816 H2841 0.950 . S
C2817 C2816 1.349 . S
C2817 C2833 1.349 . S
C2818 C2816 1.327 . S
C2818 C2837 1.429 . S
C2818 H2842 0.950 . S
C2819 C2836 1.574 . S
C2819 C2838 1.368 . S
C2819 H2843 0.949 . S
H2820 C2824 0.949 . S
C2821 C2822 1.349 . S
C2821 C2823 1.327 . S
C2821 H2844 0.950 . S
C2822 C2821 1.349 . S
C2822 C2834 1.349 . S
C2823 C2821 1.327 . S
C2823 C2839 1.429 . S
C2823 H2845 0.950 . S
C2824 H2820 0.949 . S
C2824 C2832 1.574 . S
C2824 C2840 1.368 . S
H2825 C2833 0.950 . S
H2826 C2831 0.950 . S
H2827 C2832 0.949 . S
H2828 C2834 0.950 . S
H2829 C2835 0.950 . S
H2830 C2836 0.949 . S
C2831 H2826 0.950 . S
C2831 C2833 1.327 . S
C2831 C2837 1.429 . S
C2832 C2824 1.574 . S
C2832 H2827 0.949 . S
C2832 C2838 1.368 . S
C2833 C2817 1.349 . S
C2833 H2825 0.950 . S
C2833 C2831 1.327 . S
C2834 C2822 1.349 . S
C2834 H2828 0.950 . S
C2834 C2835 1.327 . S
C2835 H2829 0.950 . S
C2835 C2834 1.327 . S
C2835 C2839 1.429 . S
C2836 C2819 1.574 . S
C2836 H2830 0.949 . S
C2836 C2840 1.368 . S
C2837 C2818 1.429 . S
C2837 C2831 1.429 . S
C2837 C2838 1.523 . S
C2838 C2819 1.368 . S
C2838 C2832 1.368 . S
C2838 C2837 1.523 . S
C2839 C2823 1.429 . S
C2839 C2835 1.429 . S
C2839 C2840 1.523 . S
C2840 C2824 1.368 . S
C2840 C2836 1.368 . S
C2840 C2839 1.523 . S
H2841 C2816 0.950 . S
H2842 C2818 0.950 . S
H2843 C2819 0.949 . S
H2844 C2821 0.950 . S
H2845 C2823 0.950 . S
C2846 C2847 1.349 . S
C2846 C2848 1.327 . S
C2846 H2871 0.950 . S
C2847 C2846 1.349 . S
C2847 C2863 1.349 . S
C2848 C2846 1.327 . S
C2848 C2867 1.429 . S
C2848 H2872 0.950 . S
C2849 C2866 1.574 . S
C2849 C2868 1.368 . S
C2849 H2873 0.949 . S
H2850 C2854 0.949 . S
C2851 C2852 1.349 . S
C2851 C2853 1.327 . S
C2851 H2874 0.950 . S
C2852 C2851 1.349 . S
C2852 C2864 1.349 . S
C2853 C2851 1.327 . S
C2853 C2869 1.429 . S
C2853 H2875 0.950 . S
C2854 H2850 0.949 . S
C2854 C2862 1.574 . S
C2854 C2870 1.368 . S
H2855 C2863 0.950 . S
H2856 C2861 0.950 . S
H2857 C2862 0.949 . S
H2858 C2864 0.950 . S
H2859 C2865 0.950 . S
H2860 C2866 0.949 . S
C2861 H2856 0.950 . S
C2861 C2863 1.327 . S
C2861 C2867 1.429 . S
C2862 C2854 1.574 . S
C2862 H2857 0.949 . S
C2862 C2868 1.368 . S
C2863 C2847 1.349 . S
C2863 H2855 0.950 . S
C2863 C2861 1.327 . S
C2864 C2852 1.349 . S
C2864 H2858 0.950 . S
C2864 C2865 1.327 . S
C2865 H2859 0.950 . S
C2865 C2864 1.327 . S
C2865 C2869 1.429 . S
C2866 C2849 1.574 . S
C2866 H2860 0.949 . S
C2866 C2870 1.368 . S
C2867 C2848 1.429 . S
C2867 C2861 1.429 . S
C2867 C2868 1.523 . S
C2868 C2849 1.368 . S
C2868 C2862 1.368 . S
C2868 C2867 1.523 . S
C2869 C2853 1.429 . S
C2869 C2865 1.429 . S
C2869 C2870 1.523 . S
C2870 C2854 1.368 . S
C2870 C2866 1.368 . S
C2870 C2869 1.523 . S
H2871 C2846 0.950 . S
H2872 C2848 0.950 . S
H2873 C2849 0.949 . S
H2874 C2851 0.950 . S
H2875 C2853 0.950 . S
C2876 C2877 1.349 . S
C2876 C2878 1.327 . S
C2876 H2901 0.950 . S
C2877 C2876 1.349 . S
C2877 C2893 1.349 . S
C2878 C2876 1.327 . S
C2878 C2897 1.429 . S
C2878 H2902 0.950 . S
C2879 C2896 1.574 . S
C2879 C2898 1.368 . S
C2879 H2903 0.949 1_455 S
H2880 C2884 0.949 . S
C2881 C2882 1.349 . S
C2881 C2883 1.327 . S
C2881 H2904 0.950 1_455 S
C2882 C2881 1.349 . S
C2882 C2894 1.349 . S
C2883 C2881 1.327 . S
C2883 C2899 1.429 . S
C2883 H2905 0.950 1_455 S
C2884 H2880 0.949 . S
C2884 C2892 1.574 . S
C2884 C2900 1.368 . S
H2885 C2893 0.950 1_655 S
H2886 C2891 0.950 1_655 S
H2887 C2892 0.949 . S
H2888 C2894 0.950 . S
H2889 C2895 0.950 . S
H2890 C2896 0.949 1_655 S
C2891 H2886 0.950 1_455 S
C2891 C2893 1.327 . S
C2891 C2897 1.429 . S
C2892 C2884 1.574 . S
C2892 H2887 0.949 . S
C2892 C2898 1.368 . S
C2893 C2877 1.349 . S
C2893 H2885 0.950 1_455 S
C2893 C2891 1.327 . S
C2894 C2882 1.349 . S
C2894 H2888 0.950 . S
C2894 C2895 1.327 . S
C2895 H2889 0.950 . S
C2895 C2894 1.327 . S
C2895 C2899 1.429 . S
C2896 C2879 1.574 . S
C2896 H2890 0.949 1_455 S
C2896 C2900 1.368 . S
C2897 C2878 1.429 . S
C2897 C2891 1.429 . S
C2897 C2898 1.523 . S
C2898 C2879 1.368 . S
C2898 C2892 1.368 . S
C2898 C2897 1.523 . S
C2899 C2883 1.429 . S
C2899 C2895 1.429 . S
C2899 C2900 1.523 . S
C2900 C2884 1.368 . S
C2900 C2896 1.368 . S
C2900 C2899 1.523 . S
H2901 C2876 0.950 . S
H2902 C2878 0.950 . S
H2903 C2879 0.949 1_655 S
H2904 C2881 0.950 1_655 S
H2905 C2883 0.950 1_655 S
C2906 C2907 1.349 . S
C2906 C2908 1.327 . S
C2906 H2931 0.950 . S
C2907 C2906 1.349 . S
C2907 C2923 1.349 . S
C2908 C2906 1.327 . S
C2908 C2927 1.429 . S
C2908 H2932 0.950 . S
C2909 C2926 1.574 . S
C2909 C2928 1.368 . S
C2909 H2933 0.949 . S
H2910 C2914 0.949 . S
C2911 C2912 1.349 . S
C2911 C2913 1.327 . S
C2911 H2934 0.950 . S
C2912 C2911 1.349 . S
C2912 C2924 1.349 . S
C2913 C2911 1.327 . S
C2913 C2929 1.429 . S
C2913 H2935 0.950 . S
C2914 H2910 0.949 . S
C2914 C2922 1.574 . S
C2914 C2930 1.368 . S
H2915 C2923 0.950 . S
H2916 C2921 0.950 . S
H2917 C2922 0.949 . S
H2918 C2924 0.950 . S
H2919 C2925 0.950 . S
H2920 C2926 0.949 . S
C2921 H2916 0.950 . S
C2921 C2923 1.327 . S
C2921 C2927 1.429 . S
C2922 C2914 1.574 . S
C2922 H2917 0.949 . S
C2922 C2928 1.368 . S
C2923 C2907 1.349 . S
C2923 H2915 0.950 . S
C2923 C2921 1.327 . S
C2924 C2912 1.349 . S
C2924 H2918 0.950 . S
C2924 C2925 1.327 . S
C2925 H2919 0.950 . S
C2925 C2924 1.327 . S
C2925 C2929 1.429 . S
C2926 C2909 1.574 . S
C2926 H2920 0.949 . S
C2926 C2930 1.368 . S
C2927 C2908 1.429 . S
C2927 C2921 1.429 . S
C2927 C2928 1.523 . S
C2928 C2909 1.368 . S
C2928 C2922 1.368 . S
C2928 C2927 1.523 . S
C2929 C2913 1.429 . S
C2929 C2925 1.429 . S
C2929 C2930 1.523 . S
C2930 C2914 1.368 . S
C2930 C2926 1.368 . S
C2930 C2929 1.523 . S
H2931 C2906 0.950 . S
H2932 C2908 0.950 . S
H2933 C2909 0.949 . S
H2934 C2911 0.950 . S
H2935 C2913 0.950 . S
C2936 C2937 1.349 . S
C2936 C2938 1.327 . S
C2936 H2961 0.950 . S
C2937 C2936 1.349 . S
C2937 C2953 1.349 . S
C2938 C2936 1.327 . S
C2938 C2957 1.429 . S
C2938 H2962 0.950 . S
C2939 C2956 1.574 . S
C2939 C2958 1.368 . S
C2939 H2963 0.949 . S
H2940 C2944 0.949 . S
C2941 C2942 1.349 . S
C2941 C2943 1.327 . S
C2941 H2964 0.950 . S
C2942 C2941 1.349 . S
C2942 C2954 1.349 . S
C2943 C2941 1.327 . S
C2943 C2959 1.429 . S
C2943 H2965 0.950 . S
C2944 H2940 0.949 . S
C2944 C2952 1.574 . S
C2944 C2960 1.368 . S
H2945 C2953 0.950 . S
H2946 C2951 0.950 . S
H2947 C2952 0.949 . S
H2948 C2954 0.950 1_554 S
H2949 C2955 0.950 . S
H2950 C2956 0.949 . S
C2951 H2946 0.950 . S
C2951 C2953 1.327 . S
C2951 C2957 1.429 . S
C2952 C2944 1.574 . S
C2952 H2947 0.949 . S
C2952 C2958 1.368 . S
C2953 C2937 1.349 . S
C2953 H2945 0.950 . S
C2953 C2951 1.327 . S
C2954 C2942 1.349 . S
C2954 H2948 0.950 1_556 S
C2954 C2955 1.327 . S
C2955 H2949 0.950 . S
C2955 C2954 1.327 . S
C2955 C2959 1.429 . S
C2956 C2939 1.574 . S
C2956 H2950 0.949 . S
C2956 C2960 1.368 . S
C2957 C2938 1.429 . S
C2957 C2951 1.429 . S
C2957 C2958 1.523 . S
C2958 C2939 1.368 . S
C2958 C2952 1.368 . S
C2958 C2957 1.523 . S
C2959 C2943 1.429 . S
C2959 C2955 1.429 . S
C2959 C2960 1.523 . S
C2960 C2944 1.368 . S
C2960 C2956 1.368 . S
C2960 C2959 1.523 . S
H2961 C2936 0.950 . S
H2962 C2938 0.950 . S
H2963 C2939 0.949 . S
H2964 C2941 0.950 . S
H2965 C2943 0.950 . S
C2966 C2967 1.349 . S
C2966 C2968 1.327 . S
C2966 H2991 0.950 . S
C2967 C2966 1.349 . S
C2967 C2983 1.349 . S
C2968 C2966 1.327 . S
C2968 C2987 1.429 . S
C2968 H2992 0.950 . S
C2969 C2986 1.574 . S
C2969 C2988 1.368 . S
C2969 H2993 0.949 . S
H2970 C2974 0.949 . S
C2971 C2972 1.349 . S
C2971 C2973 1.327 . S
C2971 H2994 0.950 . S
C2972 C2971 1.349 . S
C2972 C2984 1.349 . S
C2973 C2971 1.327 . S
C2973 C2989 1.429 . S
C2973 H2995 0.950 . S
C2974 H2970 0.949 . S
C2974 C2982 1.574 . S
C2974 C2990 1.368 . S
H2975 C2983 0.950 . S
H2976 C2981 0.950 . S
H2977 C2982 0.949 . S
H2978 C2984 0.950 . S
H2979 C2985 0.950 . S
H2980 C2986 0.949 . S
C2981 H2976 0.950 . S
C2981 C2983 1.327 . S
C2981 C2987 1.429 . S
C2982 C2974 1.574 . S
C2982 H2977 0.949 . S
C2982 C2988 1.368 . S
C2983 C2967 1.349 . S
C2983 H2975 0.950 . S
C2983 C2981 1.327 . S
C2984 C2972 1.349 . S
C2984 H2978 0.950 . S
C2984 C2985 1.327 . S
C2985 H2979 0.950 . S
C2985 C2984 1.327 . S
C2985 C2989 1.429 . S
C2986 C2969 1.574 . S
C2986 H2980 0.949 . S
C2986 C2990 1.368 . S
C2987 C2968 1.429 . S
C2987 C2981 1.429 . S
C2987 C2988 1.523 . S
C2988 C2969 1.368 . S
C2988 C2982 1.368 . S
C2988 C2987 1.523 . S
C2989 C2973 1.429 . S
C2989 C2985 1.429 . S
C2989 C2990 1.523 . S
C2990 C2974 1.368 . S
C2990 C2986 1.368 . S
C2990 C2989 1.523 . S
H2991 C2966 0.950 . S
H2992 C2968 0.950 . S
H2993 C2969 0.949 . S
H2994 C2971 0.950 . S
H2995 C2973 0.950 . S
C2996 C2997 1.349 . S
C2996 C2998 1.327 . S
C2996 H3021 0.950 . S
C2997 C2996 1.349 . S
C2997 C3013 1.349 . S
C2998 C2996 1.327 . S
C2998 C3017 1.429 . S
C2998 H3022 0.950 . S
C2999 C3016 1.574 . S
C2999 C3018 1.368 . S
C2999 H3023 0.949 . S
H3000 C3004 0.949 . S
C3001 C3002 1.349 . S
C3001 C3003 1.327 . S
C3001 H3024 0.950 . S
C3002 C3001 1.349 . S
C3002 C3014 1.349 . S
C3003 C3001 1.327 . S
C3003 C3019 1.429 . S
C3003 H3025 0.950 . S
C3004 H3000 0.949 . S
C3004 C3012 1.574 . S
C3004 C3020 1.368 . S
H3005 C3013 0.950 . S
H3006 C3011 0.950 . S
H3007 C3012 0.949 . S
H3008 C3014 0.950 . S
H3009 C3015 0.950 . S
H3010 C3016 0.949 . S
C3011 H3006 0.950 . S
C3011 C3013 1.327 . S
C3011 C3017 1.429 . S
C3012 C3004 1.574 . S
C3012 H3007 0.949 . S
C3012 C3018 1.368 . S
C3013 C2997 1.349 . S
C3013 H3005 0.950 . S
C3013 C3011 1.327 . S
C3014 C3002 1.349 . S
C3014 H3008 0.950 . S
C3014 C3015 1.327 . S
C3015 H3009 0.950 . S
C3015 C3014 1.327 . S
C3015 C3019 1.429 . S
C3016 C2999 1.574 . S
C3016 H3010 0.949 . S
C3016 C3020 1.368 . S
C3017 C2998 1.429 . S
C3017 C3011 1.429 . S
C3017 C3018 1.523 . S
C3018 C2999 1.368 . S
C3018 C3012 1.368 . S
C3018 C3017 1.523 . S
C3019 C3003 1.429 . S
C3019 C3015 1.429 . S
C3019 C3020 1.523 . S
C3020 C3004 1.368 . S
C3020 C3016 1.368 . S
C3020 C3019 1.523 . S
H3021 C2996 0.950 . S
H3022 C2998 0.950 . S
H3023 C2999 0.949 . S
H3024 C3001 0.950 . S
H3025 C3003 0.950 . S
C3026 C3027 1.349 . S
C3026 C3028 1.327 . S
C3026 H3051 0.950 . S
C3027 C3026 1.349 . S
C3027 C3043 1.349 . S
C3028 C3026 1.327 . S
C3028 C3047 1.429 . S
C3028 H3052 0.950 . S
C3029 C3046 1.574 . S
C3029 C3048 1.368 . S
C3029 H3053 0.949 . S
H3030 C3034 0.949 . S
C3031 C3032 1.349 . S
C3031 C3033 1.327 . S
C3031 H3054 0.950 . S
C3032 C3031 1.349 . S
C3032 C3044 1.349 . S
C3033 C3031 1.327 . S
C3033 C3049 1.429 . S
C3033 H3055 0.950 . S
C3034 H3030 0.949 . S
C3034 C3042 1.574 . S
C3034 C3050 1.368 . S
H3035 C3043 0.950 . S
H3036 C3041 0.950 . S
H3037 C3042 0.949 . S
H3038 C3044 0.950 . S
H3039 C3045 0.950 . S
H3040 C3046 0.949 . S
C3041 H3036 0.950 . S
C3041 C3043 1.327 . S
C3041 C3047 1.429 . S
C3042 C3034 1.574 . S
C3042 H3037 0.949 . S
C3042 C3048 1.368 . S
C3043 C3027 1.349 . S
C3043 H3035 0.950 . S
C3043 C3041 1.327 . S
C3044 C3032 1.349 . S
C3044 H3038 0.950 . S
C3044 C3045 1.327 . S
C3045 H3039 0.950 . S
C3045 C3044 1.327 . S
C3045 C3049 1.429 . S
C3046 C3029 1.574 . S
C3046 H3040 0.949 . S
C3046 C3050 1.368 . S
C3047 C3028 1.429 . S
C3047 C3041 1.429 . S
C3047 C3048 1.523 . S
C3048 C3029 1.368 . S
C3048 C3042 1.368 . S
C3048 C3047 1.523 . S
C3049 C3033 1.429 . S
C3049 C3045 1.429 . S
C3049 C3050 1.523 . S
C3050 C3034 1.368 . S
C3050 C3046 1.368 . S
C3050 C3049 1.523 . S
H3051 C3026 0.950 . S
H3052 C3028 0.950 . S
H3053 C3029 0.949 . S
H3054 C3031 0.950 . S
H3055 C3033 0.950 . S
C3056 C3057 1.349 . S
C3056 C3058 1.327 . S
C3056 H3081 0.950 . S
C3057 C3056 1.349 . S
C3057 C3073 1.349 . S
C3058 C3056 1.327 . S
C3058 C3077 1.429 . S
C3058 H3082 0.950 . S
C3059 C3076 1.574 . S
C3059 C3078 1.368 . S
C3059 H3083 0.949 . S
H3060 C3064 0.949 . S
C3061 C3062 1.349 . S
C3061 C3063 1.327 . S
C3061 H3084 0.950 . S
C3062 C3061 1.349 . S
C3062 C3074 1.349 . S
C3063 C3061 1.327 . S
C3063 C3079 1.429 . S
C3063 H3085 0.950 . S
C3064 H3060 0.949 . S
C3064 C3072 1.574 . S
C3064 C3080 1.368 . S
H3065 C3073 0.950 . S
H3066 C3071 0.950 . S
H3067 C3072 0.949 . S
H3068 C3074 0.950 . S
H3069 C3075 0.950 . S
H3070 C3076 0.949 . S
C3071 H3066 0.950 . S
C3071 C3073 1.327 . S
C3071 C3077 1.429 . S
C3072 C3064 1.574 . S
C3072 H3067 0.949 . S
C3072 C3078 1.368 . S
C3073 C3057 1.349 . S
C3073 H3065 0.950 . S
C3073 C3071 1.327 . S
C3074 C3062 1.349 . S
C3074 H3068 0.950 . S
C3074 C3075 1.327 . S
C3075 H3069 0.950 . S
C3075 C3074 1.327 . S
C3075 C3079 1.429 . S
C3076 C3059 1.574 . S
C3076 H3070 0.949 . S
C3076 C3080 1.368 . S
C3077 C3058 1.429 . S
C3077 C3071 1.429 . S
C3077 C3078 1.523 . S
C3078 C3059 1.368 . S
C3078 C3072 1.368 . S
C3078 C3077 1.523 . S
C3079 C3063 1.429 . S
C3079 C3075 1.429 . S
C3079 C3080 1.523 . S
C3080 C3064 1.368 . S
C3080 C3076 1.368 . S
C3080 C3079 1.523 . S
H3081 C3056 0.950 . S
H3082 C3058 0.950 . S
H3083 C3059 0.949 . S
H3084 C3061 0.950 . S
H3085 C3063 0.950 . S
C3086 C3087 1.349 . S
C3086 C3088 1.327 . S
C3086 H3111 0.950 . S
C3087 C3086 1.349 . S
C3087 C3103 1.349 . S
C3088 C3086 1.327 . S
C3088 C3107 1.429 . S
C3088 H3112 0.950 . S
C3089 C3106 1.574 . S
C3089 C3108 1.368 . S
C3089 H3113 0.949 . S
H3090 C3094 0.949 . S
C3091 C3092 1.349 . S
C3091 C3093 1.327 . S
C3091 H3114 0.950 . S
C3092 C3091 1.349 . S
C3092 C3104 1.349 . S
C3093 C3091 1.327 . S
C3093 C3109 1.429 . S
C3093 H3115 0.950 . S
C3094 H3090 0.949 . S
C3094 C3102 1.574 . S
C3094 C3110 1.368 . S
H3095 C3103 0.950 . S
H3096 C3101 0.950 . S
H3097 C3102 0.949 . S
H3098 C3104 0.950 . S
H3099 C3105 0.950 . S
H3100 C3106 0.949 . S
C3101 H3096 0.950 . S
C3101 C3103 1.327 . S
C3101 C3107 1.429 . S
C3102 C3094 1.574 . S
C3102 H3097 0.949 . S
C3102 C3108 1.368 . S
C3103 C3087 1.349 . S
C3103 H3095 0.950 . S
C3103 C3101 1.327 . S
C3104 C3092 1.349 . S
C3104 H3098 0.950 . S
C3104 C3105 1.327 . S
C3105 H3099 0.950 . S
C3105 C3104 1.327 . S
C3105 C3109 1.429 . S
C3106 C3089 1.574 . S
C3106 H3100 0.949 . S
C3106 C3110 1.368 . S
C3107 C3088 1.429 . S
C3107 C3101 1.429 . S
C3107 C3108 1.523 . S
C3108 C3089 1.368 . S
C3108 C3102 1.368 . S
C3108 C3107 1.523 . S
C3109 C3093 1.429 . S
C3109 C3105 1.429 . S
C3109 C3110 1.523 . S
C3110 C3094 1.368 . S
C3110 C3106 1.368 . S
C3110 C3109 1.523 . S
H3111 C3086 0.950 . S
H3112 C3088 0.950 . S
H3113 C3089 0.949 . S
H3114 C3091 0.950 . S
H3115 C3093 0.950 . S
C3116 C3117 1.349 . S
C3116 C3118 1.327 . S
C3116 H3141 0.950 . S
C3117 C3116 1.349 . S
C3117 C3133 1.349 . S
C3118 C3116 1.327 . S
C3118 C3137 1.429 . S
C3118 H3142 0.950 . S
C3119 C3136 1.574 . S
C3119 C3138 1.368 . S
C3119 H3143 0.949 . S
H3120 C3124 0.949 . S
C3121 C3122 1.349 . S
C3121 C3123 1.327 . S
C3121 H3144 0.950 . S
C3122 C3121 1.349 . S
C3122 C3134 1.349 . S
C3123 C3121 1.327 . S
C3123 C3139 1.429 . S
C3123 H3145 0.950 . S
C3124 H3120 0.949 . S
C3124 C3132 1.574 . S
C3124 C3140 1.368 . S
H3125 C3133 0.950 . S
H3126 C3131 0.950 . S
H3127 C3132 0.949 . S
H3128 C3134 0.950 1_455 S
H3129 C3135 0.950 . S
H3130 C3136 0.949 . S
C3131 H3126 0.950 . S
C3131 C3133 1.327 . S
C3131 C3137 1.429 . S
C3132 C3124 1.574 . S
C3132 H3127 0.949 . S
C3132 C3138 1.368 . S
C3133 C3117 1.349 . S
C3133 H3125 0.950 . S
C3133 C3131 1.327 . S
C3134 C3122 1.349 . S
C3134 H3128 0.950 1_655 S
C3134 C3135 1.327 . S
C3135 H3129 0.950 . S
C3135 C3134 1.327 . S
C3135 C3139 1.429 . S
C3136 C3119 1.574 . S
C3136 H3130 0.949 . S
C3136 C3140 1.368 . S
C3137 C3118 1.429 . S
C3137 C3131 1.429 . S
C3137 C3138 1.523 . S
C3138 C3119 1.368 . S
C3138 C3132 1.368 . S
C3138 C3137 1.523 . S
C3139 C3123 1.429 . S
C3139 C3135 1.429 . S
C3139 C3140 1.523 . S
C3140 C3124 1.368 . S
C3140 C3136 1.368 . S
C3140 C3139 1.523 . S
H3141 C3116 0.950 . S
H3142 C3118 0.950 . S
H3143 C3119 0.949 . S
H3144 C3121 0.950 . S
H3145 C3123 0.950 . S
C3146 C3147 1.349 . S
C3146 C3148 1.327 . S
C3146 H3171 0.950 . S
C3147 C3146 1.349 . S
C3147 C3163 1.349 . S
C3148 C3146 1.327 . S
C3148 C3167 1.429 . S
C3148 H3172 0.950 . S
C3149 C3166 1.574 . S
C3149 C3168 1.368 . S
C3149 H3173 0.949 . S
H3150 C3154 0.949 . S
C3151 C3152 1.349 . S
C3151 C3153 1.327 . S
C3151 H3174 0.950 . S
C3152 C3151 1.349 . S
C3152 C3164 1.349 . S
C3153 C3151 1.327 . S
C3153 C3169 1.429 . S
C3153 H3175 0.950 . S
C3154 H3150 0.949 . S
C3154 C3162 1.574 . S
C3154 C3170 1.368 . S
H3155 C3163 0.950 . S
H3156 C3161 0.950 . S
H3157 C3162 0.949 . S
H3158 C3164 0.950 . S
H3159 C3165 0.950 . S
H3160 C3166 0.949 . S
C3161 H3156 0.950 . S
C3161 C3163 1.327 . S
C3161 C3167 1.429 . S
C3162 C3154 1.574 . S
C3162 H3157 0.949 . S
C3162 C3168 1.368 . S
C3163 C3147 1.349 . S
C3163 H3155 0.950 . S
C3163 C3161 1.327 . S
C3164 C3152 1.349 . S
C3164 H3158 0.950 . S
C3164 C3165 1.327 . S
C3165 H3159 0.950 . S
C3165 C3164 1.327 . S
C3165 C3169 1.429 . S
C3166 C3149 1.574 . S
C3166 H3160 0.949 . S
C3166 C3170 1.368 . S
C3167 C3148 1.429 . S
C3167 C3161 1.429 . S
C3167 C3168 1.523 . S
C3168 C3149 1.368 . S
C3168 C3162 1.368 . S
C3168 C3167 1.523 . S
C3169 C3153 1.429 . S
C3169 C3165 1.429 . S
C3169 C3170 1.523 . S
C3170 C3154 1.368 . S
C3170 C3166 1.368 . S
C3170 C3169 1.523 . S
H3171 C3146 0.950 . S
H3172 C3148 0.950 . S
H3173 C3149 0.949 . S
H3174 C3151 0.950 . S
H3175 C3153 0.950 . S
C3176 C3177 1.349 . S
C3176 C3178 1.327 . S
C3176 H3201 0.950 . S
C3177 C3176 1.349 . S
C3177 C3193 1.349 . S
C3178 C3176 1.327 . S
C3178 C3197 1.429 . S
C3178 H3202 0.950 . S
C3179 C3196 1.574 . S
C3179 C3198 1.368 . S
C3179 H3203 0.949 . S
H3180 C3184 0.949 . S
C3181 C3182 1.349 . S
C3181 C3183 1.327 . S
C3181 H3204 0.950 . S
C3182 C3181 1.349 . S
C3182 C3194 1.349 . S
C3183 C3181 1.327 . S
C3183 C3199 1.429 . S
C3183 H3205 0.950 . S
C3184 H3180 0.949 . S
C3184 C3192 1.574 . S
C3184 C3200 1.368 . S
H3185 C3193 0.950 . S
H3186 C3191 0.950 . S
H3187 C3192 0.949 . S
H3188 C3194 0.950 . S
H3189 C3195 0.950 . S
H3190 C3196 0.949 . S
C3191 H3186 0.950 . S
C3191 C3193 1.327 . S
C3191 C3197 1.429 . S
C3192 C3184 1.574 . S
C3192 H3187 0.949 . S
C3192 C3198 1.368 . S
C3193 C3177 1.349 . S
C3193 H3185 0.950 . S
C3193 C3191 1.327 . S
C3194 C3182 1.349 . S
C3194 H3188 0.950 . S
C3194 C3195 1.327 . S
C3195 H3189 0.950 . S
C3195 C3194 1.327 . S
C3195 C3199 1.429 . S
C3196 C3179 1.574 . S
C3196 H3190 0.949 . S
C3196 C3200 1.368 . S
C3197 C3178 1.429 . S
C3197 C3191 1.429 . S
C3197 C3198 1.523 . S
C3198 C3179 1.368 . S
C3198 C3192 1.368 . S
C3198 C3197 1.523 . S
C3199 C3183 1.429 . S
C3199 C3195 1.429 . S
C3199 C3200 1.523 . S
C3200 C3184 1.368 . S
C3200 C3196 1.368 . S
C3200 C3199 1.523 . S
H3201 C3176 0.950 . S
H3202 C3178 0.950 . S
H3203 C3179 0.949 . S
H3204 C3181 0.950 . S
H3205 C3183 0.950 . S
C3206 C3207 1.349 . S
C3206 C3208 1.327 . S
C3206 H3231 0.950 . S
C3207 C3206 1.349 . S
C3207 C3223 1.349 . S
C3208 C3206 1.327 . S
C3208 C3227 1.429 . S
C3208 H3232 0.950 . S
C3209 C3226 1.574 . S
C3209 C3228 1.368 . S
C3209 H3233 0.949 . S
H3210 C3214 0.949 . S
C3211 C3212 1.349 . S
C3211 C3213 1.327 . S
C3211 H3234 0.950 . S
C3212 C3211 1.349 . S
C3212 C3224 1.349 . S
C3213 C3211 1.327 . S
C3213 C3229 1.429 . S
C3213 H3235 0.950 . S
C3214 H3210 0.949 . S
C3214 C3222 1.574 . S
C3214 C3230 1.368 . S
H3215 C3223 0.950 . S
H3216 C3221 0.950 . S
H3217 C3222 0.949 . S
H3218 C3224 0.950 . S
H3219 C3225 0.950 . S
H3220 C3226 0.949 . S
C3221 H3216 0.950 . S
C3221 C3223 1.327 . S
C3221 C3227 1.429 . S
C3222 C3214 1.574 . S
C3222 H3217 0.949 . S
C3222 C3228 1.368 . S
C3223 C3207 1.349 . S
C3223 H3215 0.950 . S
C3223 C3221 1.327 . S
C3224 C3212 1.349 . S
C3224 H3218 0.950 . S
C3224 C3225 1.327 . S
C3225 H3219 0.950 . S
C3225 C3224 1.327 . S
C3225 C3229 1.429 . S
C3226 C3209 1.574 . S
C3226 H3220 0.949 . S
C3226 C3230 1.368 . S
C3227 C3208 1.429 . S
C3227 C3221 1.429 . S
C3227 C3228 1.523 . S
C3228 C3209 1.368 . S
C3228 C3222 1.368 . S
C3228 C3227 1.523 . S
C3229 C3213 1.429 . S
C3229 C3225 1.429 . S
C3229 C3230 1.523 . S
C3230 C3214 1.368 . S
C3230 C3226 1.368 . S
C3230 C3229 1.523 . S
H3231 C3206 0.950 . S
H3232 C3208 0.950 . S
H3233 C3209 0.949 . S
H3234 C3211 0.950 . S
H3235 C3213 0.950 . S
C3236 C3237 1.349 . S
C3236 C3238 1.327 . S
C3236 H3261 0.950 . S
C3237 C3236 1.349 . S
C3237 C3253 1.349 . S
C3238 C3236 1.327 . S
C3238 C3257 1.429 . S
C3238 H3262 0.950 . S
C3239 C3256 1.574 . S
C3239 C3258 1.368 . S
C3239 H3263 0.949 . S
H3240 C3244 0.949 . S
C3241 C3242 1.349 . S
C3241 C3243 1.327 . S
C3241 H3264 0.950 . S
C3242 C3241 1.349 . S
C3242 C3254 1.349 . S
C3243 C3241 1.327 . S
C3243 C3259 1.429 . S
C3243 H3265 0.950 . S
C3244 H3240 0.949 . S
C3244 C3252 1.574 . S
C3244 C3260 1.368 . S
H3245 C3253 0.950 . S
H3246 C3251 0.950 . S
H3247 C3252 0.949 . S
H3248 C3254 0.950 . S
H3249 C3255 0.950 . S
H3250 C3256 0.949 . S
C3251 H3246 0.950 . S
C3251 C3253 1.327 . S
C3251 C3257 1.429 . S
C3252 C3244 1.574 . S
C3252 H3247 0.949 . S
C3252 C3258 1.368 . S
C3253 C3237 1.349 . S
C3253 H3245 0.950 . S
C3253 C3251 1.327 . S
C3254 C3242 1.349 . S
C3254 H3248 0.950 . S
C3254 C3255 1.327 . S
C3255 H3249 0.950 . S
C3255 C3254 1.327 . S
C3255 C3259 1.429 . S
C3256 C3239 1.574 . S
C3256 H3250 0.949 . S
C3256 C3260 1.368 . S
C3257 C3238 1.429 . S
C3257 C3251 1.429 . S
C3257 C3258 1.523 . S
C3258 C3239 1.368 . S
C3258 C3252 1.368 . S
C3258 C3257 1.523 . S
C3259 C3243 1.429 . S
C3259 C3255 1.429 . S
C3259 C3260 1.523 . S
C3260 C3244 1.368 . S
C3260 C3256 1.368 . S
C3260 C3259 1.523 . S
H3261 C3236 0.950 . S
H3262 C3238 0.950 . S
H3263 C3239 0.949 . S
H3264 C3241 0.950 . S
H3265 C3243 0.950 . S
C3266 C3267 1.349 . S
C3266 C3268 1.327 . S
C3266 H3291 0.950 . S
C3267 C3266 1.349 . S
C3267 C3283 1.349 . S
C3268 C3266 1.327 . S
C3268 C3287 1.429 . S
C3268 H3292 0.950 . S
C3269 C3286 1.574 . S
C3269 C3288 1.368 . S
C3269 H3293 0.949 . S
H3270 C3274 0.949 . S
C3271 C3272 1.349 . S
C3271 C3273 1.327 . S
C3271 H3294 0.950 . S
C3272 C3271 1.349 . S
C3272 C3284 1.349 . S
C3273 C3271 1.327 . S
C3273 C3289 1.429 . S
C3273 H3295 0.950 . S
C3274 H3270 0.949 . S
C3274 C3282 1.574 . S
C3274 C3290 1.368 . S
H3275 C3283 0.950 . S
H3276 C3281 0.950 . S
H3277 C3282 0.949 . S
H3278 C3284 0.950 . S
H3279 C3285 0.950 . S
H3280 C3286 0.949 . S
C3281 H3276 0.950 . S
C3281 C3283 1.327 . S
C3281 C3287 1.429 . S
C3282 C3274 1.574 . S
C3282 H3277 0.949 . S
C3282 C3288 1.368 . S
C3283 C3267 1.349 . S
C3283 H3275 0.950 . S
C3283 C3281 1.327 . S
C3284 C3272 1.349 . S
C3284 H3278 0.950 . S
C3284 C3285 1.327 . S
C3285 H3279 0.950 . S
C3285 C3284 1.327 . S
C3285 C3289 1.429 . S
C3286 C3269 1.574 . S
C3286 H3280 0.949 . S
C3286 C3290 1.368 . S
C3287 C3268 1.429 . S
C3287 C3281 1.429 . S
C3287 C3288 1.523 . S
C3288 C3269 1.368 . S
C3288 C3282 1.368 . S
C3288 C3287 1.523 . S
C3289 C3273 1.429 . S
C3289 C3285 1.429 . S
C3289 C3290 1.523 . S
C3290 C3274 1.368 . S
C3290 C3286 1.368 . S
C3290 C3289 1.523 . S
H3291 C3266 0.950 . S
H3292 C3268 0.950 . S
H3293 C3269 0.949 . S
H3294 C3271 0.950 . S
H3295 C3273 0.950 . S
C3296 C3297 1.349 . S
C3296 C3298 1.327 . S
C3296 H3321 0.950 . S
C3297 C3296 1.349 . S
C3297 C3313 1.349 . S
C3298 C3296 1.327 . S
C3298 C3317 1.429 . S
C3298 H3322 0.950 . S
C3299 C3316 1.574 . S
C3299 C3318 1.368 . S
C3299 H3323 0.949 . S
H3300 C3304 0.949 . S
C3301 C3302 1.349 . S
C3301 C3303 1.327 . S
C3301 H3324 0.950 . S
C3302 C3301 1.349 . S
C3302 C3314 1.349 . S
C3303 C3301 1.327 . S
C3303 C3319 1.429 . S
C3303 H3325 0.950 . S
C3304 H3300 0.949 . S
C3304 C3312 1.574 . S
C3304 C3320 1.368 . S
H3305 C3313 0.950 . S
H3306 C3311 0.950 . S
H3307 C3312 0.949 . S
H3308 C3314 0.950 . S
H3309 C3315 0.950 . S
H3310 C3316 0.949 . S
C3311 H3306 0.950 . S
C3311 C3313 1.327 . S
C3311 C3317 1.429 . S
C3312 C3304 1.574 . S
C3312 H3307 0.949 . S
C3312 C3318 1.368 . S
C3313 C3297 1.349 . S
C3313 H3305 0.950 . S
C3313 C3311 1.327 . S
C3314 C3302 1.349 . S
C3314 H3308 0.950 . S
C3314 C3315 1.327 . S
C3315 H3309 0.950 . S
C3315 C3314 1.327 . S
C3315 C3319 1.429 . S
C3316 C3299 1.574 . S
C3316 H3310 0.949 . S
C3316 C3320 1.368 . S
C3317 C3298 1.429 . S
C3317 C3311 1.429 . S
C3317 C3318 1.523 . S
C3318 C3299 1.368 . S
C3318 C3312 1.368 . S
C3318 C3317 1.523 . S
C3319 C3303 1.429 . S
C3319 C3315 1.429 . S
C3319 C3320 1.523 . S
C3320 C3304 1.368 . S
C3320 C3316 1.368 . S
C3320 C3319 1.523 . S
H3321 C3296 0.950 . S
H3322 C3298 0.950 . S
H3323 C3299 0.949 . S
H3324 C3301 0.950 . S
H3325 C3303 0.950 . S
C3326 C3327 1.349 . S
C3326 C3328 1.327 . S
C3326 H3351 0.950 . S
C3327 C3326 1.349 . S
C3327 C3343 1.349 . S
C3328 C3326 1.327 . S
C3328 C3347 1.429 . S
C3328 H3352 0.950 . S
C3329 C3346 1.574 . S
C3329 C3348 1.368 . S
C3329 H3353 0.949 . S
H3330 C3334 0.949 . S
C3331 C3332 1.373 . S
C3331 C3333 1.327 . S
C3331 H3354 0.950 . S
C3332 C3331 1.373 . S
C3332 C3344 1.338 1_565 S
C3333 C3331 1.327 . S
C3333 C3349 1.429 . S
C3333 H3355 0.950 . S
C3334 H3330 0.949 . S
C3334 C3342 1.574 . S
C3334 C3350 1.368 . S
H3335 C3343 0.950 . S
H3336 C3341 0.950 . S
H3337 C3342 0.949 . S
H3338 C3344 0.950 . S
H3339 C3345 0.950 . S
H3340 C3346 0.949 . S
C3341 H3336 0.950 . S
C3341 C3343 1.327 . S
C3341 C3347 1.429 . S
C3342 C3334 1.574 . S
C3342 H3337 0.949 . S
C3342 C3348 1.368 . S
C3343 C3327 1.349 . S
C3343 H3335 0.950 . S
C3343 C3341 1.327 . S
C3344 C3332 1.338 1_545 S
C3344 H3338 0.950 . S
C3344 C3345 1.327 1_545 S
C3345 H3339 0.950 . S
C3345 C3344 1.327 1_565 S
C3345 C3349 1.429 . S
C3346 C3329 1.574 . S
C3346 H3340 0.949 . S
C3346 C3350 1.368 . S
C3347 C3328 1.429 . S
C3347 C3341 1.429 . S
C3347 C3348 1.523 . S
C3348 C3329 1.368 . S
C3348 C3342 1.368 . S
C3348 C3347 1.523 . S
C3349 C3333 1.429 . S
C3349 C3345 1.429 . S
C3349 C3350 1.523 . S
C3350 C3334 1.368 . S
C3350 C3346 1.368 . S
C3350 C3349 1.523 . S
H3351 C3326 0.950 . S
H3352 C3328 0.950 . S
H3353 C3329 0.949 . S
H3354 C3331 0.950 . S
H3355 C3333 0.950 . S
C3356 C3357 1.349 . S
C3356 C3358 1.327 . S
C3356 H3381 0.950 . S
C3357 C3356 1.349 . S
C3357 C3373 1.349 . S
C3358 C3356 1.327 . S
C3358 C3377 1.429 . S
C3358 H3382 0.950 . S
C3359 C3376 1.574 . S
C3359 C3378 1.368 . S
C3359 H3383 0.949 . S
H3360 C3364 0.949 . S
C3361 C3362 1.349 . S
C3361 C3363 1.327 . S
C3361 H3384 0.950 . S
C3362 C3361 1.349 . S
C3362 C3374 1.349 . S
C3363 C3361 1.327 . S
C3363 C3379 1.429 . S
C3363 H3385 0.950 . S
C3364 H3360 0.949 . S
C3364 C3372 1.574 . S
C3364 C3380 1.368 . S
H3365 C3373 0.950 . S
H3366 C3371 0.950 . S
H3367 C3372 0.949 . S
H3368 C3374 0.950 . S
H3369 C3375 0.950 . S
H3370 C3376 0.949 . S
C3371 H3366 0.950 . S
C3371 C3373 1.327 . S
C3371 C3377 1.429 . S
C3372 C3364 1.574 . S
C3372 H3367 0.949 . S
C3372 C3378 1.368 . S
C3373 C3357 1.349 . S
C3373 H3365 0.950 . S
C3373 C3371 1.327 . S
C3374 C3362 1.349 . S
C3374 H3368 0.950 . S
C3374 C3375 1.327 . S
C3375 H3369 0.950 . S
C3375 C3374 1.327 . S
C3375 C3379 1.429 . S
C3376 C3359 1.574 . S
C3376 H3370 0.949 . S
C3376 C3380 1.368 . S
C3377 C3358 1.429 . S
C3377 C3371 1.429 . S
C3377 C3378 1.523 . S
C3378 C3359 1.368 . S
C3378 C3372 1.368 . S
C3378 C3377 1.523 . S
C3379 C3363 1.429 . S
C3379 C3375 1.429 . S
C3379 C3380 1.523 . S
C3380 C3364 1.368 . S
C3380 C3376 1.368 . S
C3380 C3379 1.523 . S
H3381 C3356 0.950 . S
H3382 C3358 0.950 . S
H3383 C3359 0.949 . S
H3384 C3361 0.950 . S
H3385 C3363 0.950 . S
C3386 C3387 1.349 . S
C3386 C3388 1.327 . S
C3386 H3411 0.950 . S
C3387 C3386 1.349 . S
C3387 C3403 1.349 1_556 S
C3388 C3386 1.327 . S
C3388 C3407 1.429 1_556 S
C3388 H3412 0.950 . S
C3389 C3406 1.574 . S
C3389 C3408 1.368 . S
C3389 H3413 0.949 . S
H3390 C3394 0.955 . S
C3391 C3392 1.349 . S
C3391 C3393 1.327 . S
C3391 H3414 0.950 . S
C3392 C3391 1.349 . S
C3392 C3404 1.349 . S
C3393 C3391 1.327 . S
C3393 C3409 1.429 . S
C3393 H3415 0.950 . S
C3394 H3390 0.955 . S
C3394 C3402 1.578 . S
C3394 C3410 1.358 1_556 S
H3395 C3403 0.950 . S
H3396 C3401 0.950 . S
H3397 C3402 0.949 . S
H3398 C3404 0.950 . S
H3399 C3405 0.950 1_556 S
H3400 C3406 0.949 . S
C3401 H3396 0.950 . S
C3401 C3403 1.327 . S
C3401 C3407 1.429 . S
C3402 C3394 1.578 . S
C3402 H3397 0.949 . S
C3402 C3408 1.368 1_556 S
C3403 C3387 1.349 1_554 S
C3403 H3395 0.950 . S
C3403 C3401 1.327 . S
C3404 C3392 1.349 . S
C3404 H3398 0.950 . S
C3404 C3405 1.327 . S
C3405 H3399 0.950 1_554 S
C3405 C3404 1.327 . S
C3405 C3409 1.429 . S
C3406 C3389 1.574 . S
C3406 H3400 0.949 . S
C3406 C3410 1.368 . S
C3407 C3388 1.429 1_554 S
C3407 C3401 1.429 . S
C3407 C3408 1.523 . S
C3408 C3389 1.368 . S
C3408 C3402 1.368 1_554 S
C3408 C3407 1.523 . S
C3409 C3393 1.429 . S
C3409 C3405 1.429 . S
C3409 C3410 1.523 . S
C3410 C3394 1.358 1_554 S
C3410 C3406 1.368 . S
C3410 C3409 1.523 . S
H3411 C3386 0.950 . S
H3412 C3388 0.950 . S
H3413 C3389 0.949 . S
H3414 C3391 0.950 . S
H3415 C3393 0.950 . S
C3416 C3417 1.349 . S
C3416 C3418 1.327 . S
C3416 H3441 0.950 . S
C3417 C3416 1.349 . S
C3417 C3433 1.349 . S
C3418 C3416 1.327 . S
C3418 C3437 1.429 . S
C3418 H3442 0.950 . S
C3419 C3436 1.574 . S
C3419 C3438 1.368 . S
C3419 H3443 0.949 . S
H3420 C3424 0.949 . S
C3421 C3422 1.349 . S
C3421 C3423 1.327 . S
C3421 H3444 0.950 . S
C3422 C3421 1.349 . S
C3422 C3434 1.349 . S
C3423 C3421 1.327 . S
C3423 C3439 1.429 . S
C3423 H3445 0.950 . S
C3424 H3420 0.949 . S
C3424 C3432 1.574 . S
C3424 C3440 1.368 . S
H3425 C3433 0.950 . S
H3426 C3431 0.950 . S
H3427 C3432 0.949 . S
H3428 C3434 0.950 . S
H3429 C3435 0.950 . S
H3430 C3436 0.949 . S
C3431 H3426 0.950 . S
C3431 C3433 1.327 . S
C3431 C3437 1.429 . S
C3432 C3424 1.574 . S
C3432 H3427 0.949 . S
C3432 C3438 1.368 . S
C3433 C3417 1.349 . S
C3433 H3425 0.950 . S
C3433 C3431 1.327 . S
C3434 C3422 1.349 . S
C3434 H3428 0.950 . S
C3434 C3435 1.327 . S
C3435 H3429 0.950 . S
C3435 C3434 1.327 . S
C3435 C3439 1.429 . S
C3436 C3419 1.574 . S
C3436 H3430 0.949 . S
C3436 C3440 1.368 . S
C3437 C3418 1.429 . S
C3437 C3431 1.429 . S
C3437 C3438 1.523 . S
C3438 C3419 1.368 . S
C3438 C3432 1.368 . S
C3438 C3437 1.523 . S
C3439 C3423 1.429 . S
C3439 C3435 1.429 . S
C3439 C3440 1.523 . S
C3440 C3424 1.368 . S
C3440 C3436 1.368 . S
C3440 C3439 1.523 . S
H3441 C3416 0.950 . S
H3442 C3418 0.950 . S
H3443 C3419 0.949 . S
H3444 C3421 0.950 . S
H3445 C3423 0.950 . S
C3446 C3447 1.349 . S
C3446 C3448 1.327 . S
C3446 H3471 0.950 . S
C3447 C3446 1.349 . S
C3447 C3463 1.349 . S
C3448 C3446 1.327 . S
C3448 C3467 1.429 . S
C3448 H3472 0.950 . S
C3449 C3466 1.574 . S
C3449 C3468 1.368 1_556 S
C3449 H3473 0.949 . S
H3450 C3454 0.949 . S
C3451 C3452 1.351 . S
C3451 C3453 1.327 . S
C3451 H3474 0.950 . S
C3452 C3451 1.351 . S
C3452 C3464 1.346 1_556 S
C3453 C3451 1.327 . S
C3453 C3469 1.429 1_556 S
C3453 H3475 0.950 . S
C3454 H3450 0.949 . S
C3454 C3462 1.574 . S
C3454 C3470 1.368 . S
H3455 C3463 0.950 1_556 S
H3456 C3461 0.969 . S
H3457 C3462 0.949 . S
H3458 C3464 0.950 . S
H3459 C3465 0.950 . S
H3460 C3466 0.949 . S
C3461 H3456 0.969 . S
C3461 C3463 1.323 1_556 S
C3461 C3467 1.414 1_556 S
C3462 C3454 1.574 . S
C3462 H3457 0.949 . S
C3462 C3468 1.368 . S
C3463 C3447 1.349 . S
C3463 H3455 0.950 1_554 S
C3463 C3461 1.323 1_554 S
C3464 C3452 1.346 1_554 S
C3464 H3458 0.950 . S
C3464 C3465 1.327 . S
C3465 H3459 0.950 . S
C3465 C3464 1.327 . S
C3465 C3469 1.429 . S
C3466 C3449 1.574 . S
C3466 H3460 0.949 . S
C3466 C3470 1.368 1_556 S
C3467 C3448 1.429 . S
C3467 C3461 1.414 1_554 S
C3467 C3468 1.523 . S
C3468 C3449 1.368 1_554 S
C3468 C3462 1.368 . S
C3468 C3467 1.523 . S
C3469 C3453 1.429 1_554 S
C3469 C3465 1.429 . S
C3469 C3470 1.523 . S
C3470 C3454 1.368 . S
C3470 C3466 1.368 1_554 S
C3470 C3469 1.523 . S
H3471 C3446 0.950 . S
H3472 C3448 0.950 . S
H3473 C3449 0.949 . S
H3474 C3451 0.950 . S
H3475 C3453 0.950 . S
C3476 C3477 1.349 . S
C3476 C3478 1.327 . S
C3476 H3501 0.950 . S
C3477 C3476 1.349 . S
C3477 C3493 1.349 . S
C3478 C3476 1.327 . S
C3478 C3497 1.429 . S
C3478 H3502 0.950 . S
C3479 C3496 1.574 . S
C3479 C3498 1.368 . S
C3479 H3503 0.949 . S
H3480 C3484 0.949 . S
C3481 C3482 1.349 . S
C3481 C3483 1.327 . S
C3481 H3504 0.950 . S
C3482 C3481 1.349 . S
C3482 C3494 1.349 . S
C3483 C3481 1.327 . S
C3483 C3499 1.429 . S
C3483 H3505 0.950 . S
C3484 H3480 0.949 . S
C3484 C3492 1.574 . S
C3484 C3500 1.368 . S
H3485 C3493 0.950 . S
H3486 C3491 0.950 . S
H3487 C3492 0.949 . S
H3488 C3494 0.950 . S
H3489 C3495 0.950 . S
H3490 C3496 0.949 . S
C3491 H3486 0.950 . S
C3491 C3493 1.327 . S
C3491 C3497 1.429 . S
C3492 C3484 1.574 . S
C3492 H3487 0.949 . S
C3492 C3498 1.368 . S
C3493 C3477 1.349 . S
C3493 H3485 0.950 . S
C3493 C3491 1.327 . S
C3494 C3482 1.349 . S
C3494 H3488 0.950 . S
C3494 C3495 1.327 . S
C3495 H3489 0.950 . S
C3495 C3494 1.327 . S
C3495 C3499 1.429 . S
C3496 C3479 1.574 . S
C3496 H3490 0.949 . S
C3496 C3500 1.368 . S
C3497 C3478 1.429 . S
C3497 C3491 1.429 . S
C3497 C3498 1.523 . S
C3498 C3479 1.368 . S
C3498 C3492 1.368 . S
C3498 C3497 1.523 . S
C3499 C3483 1.429 . S
C3499 C3495 1.429 . S
C3499 C3500 1.523 . S
C3500 C3484 1.368 . S
C3500 C3496 1.368 . S
C3500 C3499 1.523 . S
H3501 C3476 0.950 . S
H3502 C3478 0.950 . S
H3503 C3479 0.949 . S
H3504 C3481 0.950 . S
H3505 C3483 0.950 . S
C3506 C3507 1.349 . S
C3506 C3508 1.327 . S
C3506 H3531 0.950 . S
C3507 C3506 1.349 . S
C3507 C3523 1.349 . S
C3508 C3506 1.327 . S
C3508 C3527 1.429 . S
C3508 H3532 0.950 . S
C3509 C3526 1.574 . S
C3509 C3528 1.368 . S
C3509 H3533 0.949 . S
H3510 C3514 0.949 . S
C3511 C3512 1.349 . S
C3511 C3513 1.327 . S
C3511 H3534 0.950 . S
C3512 C3511 1.349 . S
C3512 C3524 1.349 . S
C3513 C3511 1.327 . S
C3513 C3529 1.429 . S
C3513 H3535 0.950 . S
C3514 H3510 0.949 . S
C3514 C3522 1.574 . S
C3514 C3530 1.368 . S
H3515 C3523 0.950 . S
H3516 C3521 0.950 . S
H3517 C3522 0.949 . S
H3518 C3524 0.950 . S
H3519 C3525 0.950 . S
H3520 C3526 0.949 . S
C3521 H3516 0.950 . S
C3521 C3523 1.327 . S
C3521 C3527 1.429 . S
C3522 C3514 1.574 . S
C3522 H3517 0.949 . S
C3522 C3528 1.368 . S
C3523 C3507 1.349 . S
C3523 H3515 0.950 . S
C3523 C3521 1.327 . S
C3524 C3512 1.349 . S
C3524 H3518 0.950 . S
C3524 C3525 1.327 . S
C3525 H3519 0.950 . S
C3525 C3524 1.327 . S
C3525 C3529 1.429 . S
C3526 C3509 1.574 . S
C3526 H3520 0.949 . S
C3526 C3530 1.368 . S
C3527 C3508 1.429 . S
C3527 C3521 1.429 . S
C3527 C3528 1.523 . S
C3528 C3509 1.368 . S
C3528 C3522 1.368 . S
C3528 C3527 1.523 . S
C3529 C3513 1.429 . S
C3529 C3525 1.429 . S
C3529 C3530 1.523 . S
C3530 C3514 1.368 . S
C3530 C3526 1.368 . S
C3530 C3529 1.523 . S
H3531 C3506 0.950 . S
H3532 C3508 0.950 . S
H3533 C3509 0.949 . S
H3534 C3511 0.950 . S
H3535 C3513 0.950 . S
C657 C109 1.471 . S
C662 C354 1.430 . S
C687 C65 1.570 . S
C692 C365 1.566 . S
C717 C75 0.858 . S
C722 C394 0.847 . S
C752 C397 1.469 . S
C747 C84 1.469 . S
C777 C25 1.577 . S
C782 C435 1.532 . S
C812 C438 0.772 . S
C807 C28 0.771 . S
C842 C465 1.431 . S
C837 C47 1.435 . S
C867 C9 1.648 . S
C872 C494 1.590 . S
C902 C345 1.563 1_655 S
C897 C233 1.572 . S
C927 C249 0.671 . S
C932 C357 0.673 . S
C962 C385 1.633 . S
C957 C275 1.643 . S
C992 C414 0.946 . S
C987 C173 0.957 . S
C1017 C224 0.900 . S
C1022 C418 0.924 . S
C1052 C444 1.627 . S
C1047 C243 1.650 . S
C1082 C457 0.604 . S
C1077 C266 0.600 . S
C1112 C485 1.484 . S
C1107 C179 1.492 . S
C1142 C337 1.551 1_565 S
C1137 C163 1.564 . S
C1167 C289 1.740 . S
C1172 C504 1.714 . S
C1202 C535 1.428 . S
C1197 C333 1.470 . S
C1232 C554 0.759 . S
C1227 C308 0.759 . S
C1257 C123 1.321 . S
C1262 C477 1.317 . S
C1287 C126 1.457 . S
C1292 C377 1.466 . S
C1317 C327 1.605 . S
C1322 C565 1.592 . S
C1352 C594 0.858 . S
C1347 C299 0.870 . S
C1382 C355 1.451 . S
C1377 C67 1.490 . S
C1412 C584 1.591 . S
C1407 C98 1.575 . S
C1437 C89 0.889 . S
C1442 C395 0.877 . S
C1467 C79 1.522 . S
C1472 C558 1.513 . S
C1502 C434 1.562 . S
C1497 C11 1.607 . S
C1527 C51 0.800 . S
C1532 C517 0.800 . S
C1562 C464 1.478 1_556 S
C1557 C33 1.485 . S
C1592 C615 1.597 . S
C1587 C14 1.648 . S
C1622 C344 1.546 . S
C1617 C140 1.546 . S
C1652 C578 0.688 . S
C1647 C319 0.685 . S
C1677 C112 1.651 . S
C1682 C384 1.650 . S
C1707 C285 0.990 . S
C1712 C575 0.979 . S
C1737 C149 0.941 . S
C1742 C417 0.938 . S
C1772 C525 1.667 . S
C1767 C313 1.691 . S
C1797 C121 0.663 . S
C1802 C458 0.668 . S
C1827 C291 1.528 . S
C1832 C604 1.520 . S
C1857 C182 1.563 . S
C1862 C338 1.549 . S
C1887 C168 1.746 . S
C1892 C505 1.731 . S
C1917 C263 1.514 . S
C1922 C454 1.470 . S
C1947 C247 0.824 . S
C1952 C555 0.818 . S
C1982 C598 1.321 . S
C1977 C277 1.330 . S
C2007 C219 1.504 . S
C2012 C378 1.521 . S
C2042 C404 1.636 . S
C2037 C257 1.650 . S
C2072 C375 0.870 . S
C2067 C201 0.882 . S
C2097 C81 1.466 . S
C2102 C634 1.430 . S
C2132 C585 1.566 . S
C2127 C93 1.570 . S
C2157 C103 0.858 . S
C2162 C654 0.847 . S
C2187 C56 1.469 . S
C2192 C557 1.469 . S
C2217 C53 1.577 . S
C2222 C515 1.532 . S
C2252 C518 0.772 . S
C2247 C0 0.770 . S
C2282 C545 1.431 . S
C2277 C19 1.436 . S
C2312 C614 1.590 . S
C2307 C37 1.648 . S
C2342 C625 1.563 . S
C2337 C261 1.572 . S
C2367 C193 0.671 . S
C2372 C577 0.676 . S
C2402 C645 1.633 . S
C2397 C205 1.643 . S
C2432 C574 0.946 . S
C2427 C215 0.958 . S
C2462 C498 0.909 . S
C2457 C252 0.899 . S
C2487 C187 1.650 . S
C2492 C524 1.623 . S
C2522 C537 0.604 . S
C2517 C196 0.600 . S
C2547 C221 1.492 . S
C2552 C605 1.484 . S
C2582 C617 1.551 . S
C2577 C317 1.564 . S
C2607 C135 1.740 . S
C2612 C424 1.714 . S
C2642 C455 1.429 . S
C2637 C151 1.477 . S
C2672 C474 0.759 . S
C2667 C154 0.759 . S
C2702 C597 1.317 . S
C2697 C305 1.321 . S
C2727 C280 1.456 . S
C2732 C637 1.466 . S
C2762 C405 1.590 . S
C2757 C145 1.597 . S
C2792 C374 0.858 . S
C2787 C117 0.870 . S
C2817 C95 1.490 . S
C2822 C635 1.451 . S
C2852 C364 1.591 . S
C2847 C70 1.575 . S
C2877 C61 0.889 . S
C2882 C655 0.877 . S
C2907 C107 1.522 . S
C2912 C398 1.513 . S
C2937 C39 1.606 . S
C2942 C514 1.540 1_556 S
C2972 C437 0.800 . S
C2967 C23 0.800 . S
C2997 C5 1.485 . S
C3002 C544 1.478 . S
C3027 C42 1.648 . S
C3032 C495 1.597 . S
C3062 C624 1.546 . S
C3057 C322 1.546 . S
C3087 C165 0.685 . S
C3092 C358 0.688 . S
C3122 C644 1.650 1_655 S
C3117 C294 1.651 . S
C3147 C131 0.990 . S
C3152 C415 0.979 . S
C3177 C331 0.941 . S
C3182 C497 0.941 . S
C3212 C445 1.667 . S
C3207 C159 1.691 . S
C3237 C303 0.663 . S
C3242 C538 0.668 . S
C3272 C484 1.520 . S
C3267 C137 1.528 . S
C3302 C618 1.550 . S
C3297 C238 1.563 . S
C3332 C425 1.720 1_565 S
C3327 C210 1.746 . S
C3357 C235 1.514 . S
C3362 C534 1.469 . S
C3392 C475 0.818 . S
C3387 C191 0.823 . S
C3417 C207 1.331 . S
C3422 C478 1.321 . S
C3447 C177 1.504 . S
C3452 C638 1.490 1_556 S
C3482 C564 1.636 . S
C3477 C229 1.650 1_565 S
C3512 C595 0.870 . S
C3507 C271 0.882 . S
