# Generated by pormake.
# Topology ocu, (6,8)-cn, num edge types: 1
# Building blocks:
#     Node 0, Type 0, BuildingBlock: PAMTUU_clean_sbu_0, # of connection points: 6
#     Node 1, Type 0, BuildingBlock: PAMTUU_clean_sbu_0, # of connection points: 6
#     Node 2, Type 0, BuildingBlock: PAMTUU_clean_sbu_0, # of connection points: 6
#     Node 3, Type 0, BuildingBlock: PAMTUU_clean_sbu_0, # of connection points: 6
#     Node 4, Type 0, BuildingBlock: PAMTUU_clean_sbu_0, # of connection points: 6
#     Node 5, Type 0, BuildingBlock: PAMTUU_clean_sbu_0, # of connection points: 6
#     Node 6, Type 0, BuildingBlock: PAMTUU_clean_sbu_0, # of connection points: 6
#     Node 7, Type 0, BuildingBlock: PAMTUU_clean_sbu_0, # of connection points: 6
#     Node 8, Type 1, BuildingBlock: VETTIZ_charged_sbu_0, # of connection points: 8
#     Node 9, Type 1, BuildingBlock: VETTIZ_charged_sbu_0, # of connection points: 8
#     Node 10, Type 1, BuildingBlock: VETTIZ_charged_sbu_0, # of connection points: 8
#     Node 11, Type 1, BuildingBlock: VETTIZ_charged_sbu_0, # of connection points: 8
#     Node 12, Type 1, BuildingBlock: VETTIZ_charged_sbu_0, # of connection points: 8
#     Node 13, Type 1, BuildingBlock: VETTIZ_charged_sbu_0, # of connection points: 8
#     Edge 14, Type (0, 1), BuildingBlock: OJICUG_clean_linker_0, # of connection points: 2
#     Edge 15, Type (0, 1), BuildingBlock: OJICUG_clean_linker_0, # of connection points: 2
#     Edge 16, Type (0, 1), BuildingBlock: OJICUG_clean_linker_0, # of connection points: 2
#     Edge 17, Type (0, 1), BuildingBlock: OJICUG_clean_linker_0, # of connection points: 2
#     Edge 18, Type (0, 1), BuildingBlock: OJICUG_clean_linker_0, # of connection points: 2
#     Edge 19, Type (0, 1), BuildingBlock: OJICUG_clean_linker_0, # of connection points: 2
#     Edge 20, Type (0, 1), BuildingBlock: OJICUG_clean_linker_0, # of connection points: 2
#     Edge 21, Type (0, 1), BuildingBlock: OJICUG_clean_linker_0, # of connection points: 2
#     Edge 22, Type (0, 1), BuildingBlock: OJICUG_clean_linker_0, # of connection points: 2
#     Edge 23, Type (0, 1), BuildingBlock: OJICUG_clean_linker_0, # of connection points: 2
#     Edge 24, Type (0, 1), BuildingBlock: OJICUG_clean_linker_0, # of connection points: 2
#     Edge 25, Type (0, 1), BuildingBlock: OJICUG_clean_linker_0, # of connection points: 2
#     Edge 26, Type (0, 1), BuildingBlock: OJICUG_clean_linker_0, # of connection points: 2
#     Edge 27, Type (0, 1), BuildingBlock: OJICUG_clean_linker_0, # of connection points: 2
#     Edge 28, Type (0, 1), BuildingBlock: OJICUG_clean_linker_0, # of connection points: 2
#     Edge 29, Type (0, 1), BuildingBlock: OJICUG_clean_linker_0, # of connection points: 2
#     Edge 30, Type (0, 1), BuildingBlock: OJICUG_clean_linker_0, # of connection points: 2
#     Edge 31, Type (0, 1), BuildingBlock: OJICUG_clean_linker_0, # of connection points: 2
#     Edge 32, Type (0, 1), BuildingBlock: OJICUG_clean_linker_0, # of connection points: 2
#     Edge 33, Type (0, 1), BuildingBlock: OJICUG_clean_linker_0, # of connection points: 2
#     Edge 34, Type (0, 1), BuildingBlock: OJICUG_clean_linker_0, # of connection points: 2
#     Edge 35, Type (0, 1), BuildingBlock: OJICUG_clean_linker_0, # of connection points: 2
#     Edge 36, Type (0, 1), BuildingBlock: OJICUG_clean_linker_0, # of connection points: 2
#     Edge 37, Type (0, 1), BuildingBlock: OJICUG_clean_linker_0, # of connection points: 2
#     Edge 38, Type (0, 1), BuildingBlock: OJICUG_clean_linker_0, # of connection points: 2
#     Edge 39, Type (0, 1), BuildingBlock: OJICUG_clean_linker_0, # of connection points: 2
#     Edge 40, Type (0, 1), BuildingBlock: OJICUG_clean_linker_0, # of connection points: 2
#     Edge 41, Type (0, 1), BuildingBlock: OJICUG_clean_linker_0, # of connection points: 2
#     Edge 42, Type (0, 1), BuildingBlock: OJICUG_clean_linker_0, # of connection points: 2
#     Edge 43, Type (0, 1), BuildingBlock: OJICUG_clean_linker_0, # of connection points: 2
#     Edge 44, Type (0, 1), BuildingBlock: OJICUG_clean_linker_0, # of connection points: 2
#     Edge 45, Type (0, 1), BuildingBlock: OJICUG_clean_linker_0, # of connection points: 2
#     Edge 46, Type (0, 1), BuildingBlock: OJICUG_clean_linker_0, # of connection points: 2
#     Edge 47, Type (0, 1), BuildingBlock: OJICUG_clean_linker_0, # of connection points: 2
#     Edge 48, Type (0, 1), BuildingBlock: OJICUG_clean_linker_0, # of connection points: 2
#     Edge 49, Type (0, 1), BuildingBlock: OJICUG_clean_linker_0, # of connection points: 2
#     Edge 50, Type (0, 1), BuildingBlock: OJICUG_clean_linker_0, # of connection points: 2
#     Edge 51, Type (0, 1), BuildingBlock: OJICUG_clean_linker_0, # of connection points: 2
#     Edge 52, Type (0, 1), BuildingBlock: OJICUG_clean_linker_0, # of connection points: 2
#     Edge 53, Type (0, 1), BuildingBlock: OJICUG_clean_linker_0, # of connection points: 2
#     Edge 54, Type (0, 1), BuildingBlock: OJICUG_clean_linker_0, # of connection points: 2
#     Edge 55, Type (0, 1), BuildingBlock: OJICUG_clean_linker_0, # of connection points: 2
#     Edge 56, Type (0, 1), BuildingBlock: OJICUG_clean_linker_0, # of connection points: 2
#     Edge 57, Type (0, 1), BuildingBlock: OJICUG_clean_linker_0, # of connection points: 2
#     Edge 58, Type (0, 1), BuildingBlock: OJICUG_clean_linker_0, # of connection points: 2
#     Edge 59, Type (0, 1), BuildingBlock: OJICUG_clean_linker_0, # of connection points: 2
#     Edge 60, Type (0, 1), BuildingBlock: OJICUG_clean_linker_0, # of connection points: 2
#     Edge 61, Type (0, 1), BuildingBlock: OJICUG_clean_linker_0, # of connection points: 2
# Relax obj value: 0.179
# Max RMSD: 0.243
# Mean RMSD: 0.154
data_MOF--net-ocu--node1-PAMTUU_clean_sbu_0--node2-VETTIZ_charged_sbu_0--edge1-OJICUG_clean_linker_0
_symmetry_space_group_name_H-M    P1
_symmetry_Int_Tables_number       1
_symmetry_cell_setting            triclinic
loop_
_symmetry_equiv_pos_as_xyz
'x, y, z'
_cell_length_a     29.696033
_cell_length_b     32.555168
_cell_length_c     31.30758
_cell_angle_alpha  83.682902
_cell_angle_beta   96.268019
_cell_angle_gamma 108.49608
loop_
_atom_site_label
_atom_site_type_symbol
_atom_site_fract_x
_atom_site_fract_y
_atom_site_fract_z
_atom_type_partial_charge
Tb0 Tb 0.26178 0.28333 0.24938 0.0
Tb1 Tb 0.34503 0.30816 0.31499 0.0
C2 C 0.25823 0.23403 0.34104 0.0
C3 C 0.14143 0.2627 0.20233 0.0
C4 C 0.07647 0.30851 0.20081 0.0
C5 C 0.07901 0.28796 0.16426 0.0
C6 C 0.11201 0.26555 0.16489 0.0
C7 C 0.13208 0.27558 0.24096 0.0
C8 C 0.09992 0.29892 0.24013 0.0
C9 C 0.18912 0.26078 0.19817 0.0
O10 O 0.23849 0.33352 0.28526 0.0
O11 O 0.29333 0.34003 0.34233 0.0
O12 O 0.34867 0.36655 0.27466 0.0
O13 O 0.32083 0.32936 0.21701 0.0
O14 O 0.37315 0.31378 0.37913 0.0
O15 O 0.41831 0.33903 0.32667 0.0
O16 O 0.3746 0.27049 0.26767 0.0
O17 O 0.30643 0.24145 0.2271 0.0
O18 O 0.23513 0.25185 0.31075 0.0
O19 O 0.30434 0.24395 0.34063 0.0
C20 C 0.25331 0.3494 0.32475 0.0
O21 O 0.22101 0.29921 0.19535 0.0
O22 O 0.20347 0.23325 0.22544 0.0
C23 C 0.34913 0.36424 0.23382 0.0
C24 C 0.44865 0.30652 0.38892 0.0
C25 C 0.48726 0.24505 0.43357 0.0
C26 C 0.48047 0.2775 0.45572 0.0
C27 C 0.46102 0.30818 0.43336 0.0
C28 C 0.45939 0.27636 0.36637 0.0
C29 C 0.47879 0.24591 0.38859 0.0
C30 C 0.41673 0.33 0.3682 0.0
C31 C 0.35324 0.24397 0.23517 0.0
H32 H 0.06112 0.29477 0.13351 0.0
H33 H 0.11875 0.25563 0.1349 0.0
H34 H 0.15417 0.27295 0.27038 0.0
H35 H 0.09812 0.31415 0.26872 0.0
H36 H 0.48696 0.27723 0.49046 0.0
H37 H 0.45255 0.33117 0.45113 0.0
H38 H 0.44992 0.27437 0.33209 0.0
H39 H 0.48462 0.22143 0.37097 0.0
Tb40 Tb 0.76352 0.32668 0.32471 0.0
Tb41 Tb 0.81808 0.26628 0.29162 0.0
C42 C 0.8611 0.32788 0.36368 0.0
C43 C 0.72178 0.41743 0.31112 0.0
C44 C 0.7337 0.45901 0.2283 0.0
C45 C 0.76782 0.47481 0.26196 0.0
C46 C 0.76191 0.45401 0.30342 0.0
C47 C 0.68355 0.40838 0.27938 0.0
C48 C 0.68979 0.42861 0.23802 0.0
C49 C 0.72713 0.38156 0.34256 0.0
O50 O 0.81297 0.36951 0.27786 0.0
O51 O 0.82132 0.31741 0.23909 0.0
O52 O 0.74233 0.23651 0.28075 0.0
O53 O 0.72379 0.29931 0.26681 0.0
O54 O 0.8789 0.24692 0.29373 0.0
O55 O 0.82072 0.2249 0.24542 0.0
O56 O 0.79035 0.22886 0.35193 0.0
O57 O 0.73659 0.26395 0.36396 0.0
O58 O 0.81794 0.32136 0.37363 0.0
O59 O 0.86898 0.31717 0.32683 0.0
C60 C 0.8267 0.35851 0.24313 0.0
O61 O 0.70168 0.34239 0.33277 0.0
O62 O 0.77115 0.38336 0.3546 0.0
C63 C 0.71352 0.25776 0.26316 0.0
C64 C 0.86769 0.17931 0.2697 0.0
C65 C 0.90195 0.11223 0.30797 0.0
C66 C 0.92276 0.13787 0.27185 0.0
C67 C 0.90587 0.17159 0.25301 0.0
C68 C 0.84244 0.14987 0.30125 0.0
C69 C 0.85934 0.11633 0.3202 0.0
C70 C 0.86216 0.22244 0.26175 0.0
C71 C 0.75469 0.23111 0.37292 0.0
H72 H 0.80098 0.49984 0.25545 0.0
H73 H 0.7914 0.46293 0.32776 0.0
H74 H 0.65137 0.38162 0.28467 0.0
H75 H 0.66167 0.41786 0.21278 0.0
H76 H 0.95498 0.13488 0.26116 0.0
H77 H 0.9255 0.19412 0.22838 0.0
H78 H 0.81284 0.15556 0.3144 0.0
H79 H 0.84224 0.09734 0.34792 0.0
Tb80 Tb 0.8669 0.81524 0.26613 0.0
Tb81 Tb 0.79118 0.77124 0.3244 0.0
C82 C 0.87138 0.85253 0.35577 0.0
C83 C 0.96738 0.83534 0.20189 0.0
C84 C 0.99081 0.77153 0.16514 0.0
C85 C 0.98357 0.80724 0.13905 0.0
C86 C 0.97169 0.83907 0.15745 0.0
C87 C 0.98326 0.80424 0.22848 0.0
C88 C 0.99476 0.77224 0.21012 0.0
C89 C 0.93302 0.85267 0.21742 0.0
O90 O 0.89822 0.75805 0.29784 0.0
O91 O 0.84847 0.73419 0.35092 0.0
O92 O 0.78225 0.71948 0.28422 0.0
O93 O 0.81816 0.76334 0.22874 0.0
O94 O 0.77159 0.7535 0.38776 0.0
O95 O 0.7201 0.73513 0.33338 0.0
O96 O 0.75136 0.81471 0.27579 0.0
O97 O 0.81544 0.85901 0.24442 0.0
O98 O 0.89581 0.84559 0.32665 0.0
O99 O 0.82575 0.83204 0.35479 0.0
C100 C 0.88787 0.73058 0.3344 0.0
O101 O 0.88926 0.83346 0.20368 0.0
O102 O 0.93658 0.85694 0.25851 0.0
C103 C 0.79011 0.72581 0.24379 0.0
C104 C 0.69711 0.76094 0.39194 0.0
C105 C 0.66321 0.82009 0.42681 0.0
C106 C 0.67744 0.78833 0.45397 0.0
C107 C 0.69443 0.75893 0.43657 0.0
C108 C 0.67988 0.79076 0.36472 0.0
C109 C 0.66333 0.82015 0.38198 0.0
C110 C 0.72654 0.73911 0.37482 0.0
C111 C 0.76784 0.85093 0.24786 0.0
H112 H 0.98189 0.80797 0.10424 0.0
H113 H 0.96 0.86317 0.13653 0.0
H114 H 0.98103 0.80121 0.26304 0.0
H115 H 1.00088 0.74542 0.23105 0.0
H116 H 0.67692 0.78715 0.48863 0.0
H117 H 0.70803 0.73638 0.45804 0.0
H118 H 0.68194 0.79338 0.33017 0.0
H119 H 0.65322 0.84452 0.36016 0.0
Tb120 Tb 0.35139 0.76537 0.28949 0.0
Tb121 Tb 0.27469 0.81583 0.29859 0.0
C122 C 0.27416 0.73172 0.35403 0.0
C123 C 0.41675 0.69833 0.24791 0.0
C124 C 0.43835 0.64313 0.19594 0.0
C125 C 0.42826 0.62935 0.23892 0.0
C126 C 0.41784 0.65688 0.26479 0.0
C127 C 0.42495 0.71135 0.20433 0.0
C128 C 0.43578 0.68398 0.17863 0.0
C129 C 0.41144 0.72891 0.27685 0.0
O130 O 0.30291 0.75484 0.23049 0.0
O131 O 0.23837 0.76424 0.25674 0.0
O132 O 0.31707 0.84873 0.24661 0.0
O133 O 0.38378 0.83449 0.27734 0.0
O134 O 0.20255 0.81033 0.29764 0.0
O135 O 0.25696 0.8724 0.30428 0.0
O136 O 0.3316 0.83993 0.34956 0.0
O137 O 0.37563 0.79227 0.35196 0.0
O138 O 0.29357 0.72024 0.32355 0.0
O139 O 0.27174 0.77094 0.35391 0.0
C140 C 0.25694 0.75026 0.22746 0.0
O141 O 0.41122 0.76702 0.25927 0.0
O142 O 0.37998 0.71364 0.30527 0.0
C143 C 0.36334 0.85928 0.25239 0.0
C144 C 0.19287 0.85336 0.34747 0.0
C145 C 0.1574 0.85932 0.42493 0.0
C146 C 0.13618 0.87174 0.38524 0.0
C147 C 0.15382 0.86864 0.34662 0.0
C148 C 0.21265 0.83905 0.38679 0.0
C149 C 0.19488 0.84176 0.42527 0.0
C150 C 0.21216 0.85014 0.30766 0.0
C151 C 0.36561 0.82396 0.36786 0.0
H152 H 0.43052 0.59809 0.25306 0.0
H153 H 0.41211 0.6463 0.29836 0.0
H154 H 0.42442 0.74313 0.1903 0.0
H155 H 0.44309 0.69507 0.14543 0.0
H156 H 0.10774 0.88611 0.3841 0.0
H157 H 0.13782 0.87911 0.31634 0.0
H158 H 0.24255 0.82666 0.38781 0.0
H159 H 0.21171 0.83188 0.45537 0.0
Tb160 Tb 0.26776 0.8067 0.80084 0.0
Tb161 Tb 0.34126 0.75769 0.82129 0.0
C162 C 0.35272 0.83948 0.87812 0.0
C163 C 0.20391 0.8872 0.80241 0.0
C164 C 0.18565 0.96676 0.79612 0.0
C165 C 0.15707 0.93069 0.82032 0.0
C166 C 0.16535 0.89065 0.8222 0.0
C167 C 0.23844 0.92491 0.7876 0.0
C168 C 0.22966 0.96463 0.78486 0.0
C169 C 0.20538 0.84433 0.79422 0.0
O170 O 0.33156 0.85056 0.77169 0.0
O171 O 0.36265 0.79722 0.76198 0.0
O172 O 0.29102 0.71696 0.77205 0.0
O173 O 0.24951 0.76355 0.74543 0.0
O174 O 0.41172 0.75702 0.83626 0.0
O175 O 0.35343 0.69774 0.82687 0.0
O176 O 0.29295 0.73512 0.87287 0.0
O177 O 0.23002 0.74289 0.83018 0.0
O178 O 0.31078 0.84005 0.85856 0.0
O179 O 0.37223 0.81151 0.86597 0.0
C180 C 0.36124 0.83697 0.7531 0.0
O181 O 0.22913 0.84244 0.76203 0.0
O182 O 0.21333 0.82015 0.82833 0.0
C183 C 0.25974 0.72692 0.74255 0.0
C184 C 0.40717 0.6955 0.88474 0.0
C185 C 0.40997 0.65276 0.9669 0.0
C186 C 0.40173 0.62973 0.9298 0.0
C187 C 0.40083 0.65101 0.88919 0.0
C188 C 0.41388 0.71867 0.92156 0.0
C189 C 0.41602 0.69743 0.96258 0.0
C190 C 0.39726 0.71468 0.84208 0.0
C191 C 0.24676 0.72543 0.86521 0.0
H192 H 0.12487 0.93177 0.83272 0.0
H193 H 0.13962 0.86192 0.83599 0.0
H194 H 0.27001 0.92322 0.77441 0.0
H195 H 0.25462 0.99173 0.76821 0.0
H196 H 0.39866 0.59552 0.93197 0.0
H197 H 0.39438 0.63254 0.86114 0.0
H198 H 0.41735 0.75298 0.91869 0.0
H199 H 0.42379 0.71587 0.99071 0.0
Tb200 Tb 0.34088 0.28593 0.76623 0.0
Tb201 Tb 0.26059 0.27719 0.83268 0.0
C202 C 0.36475 0.3455 0.83942 0.0
C203 C 0.41999 0.24646 0.70668 0.0
C204 C 0.46256 0.18285 0.69086 0.0
C205 C 0.48841 0.21889 0.71403 0.0
C206 C 0.46748 0.25025 0.72171 0.0
C207 C 0.39408 0.21041 0.68362 0.0
C208 C 0.41497 0.17907 0.67596 0.0
C209 C 0.39834 0.28048 0.71436 0.0
O210 O 0.36762 0.25515 0.8277 0.0
O211 O 0.29891 0.22879 0.86309 0.0
O212 O 0.22492 0.23973 0.77743 0.0
O213 O 0.2895 0.22157 0.76683 0.0
O214 O 0.24632 0.29601 0.89031 0.0
O215 O 0.18963 0.25489 0.8516 0.0
O216 O 0.25304 0.3326 0.78618 0.0
O217 O 0.29326 0.32388 0.73081 0.0
O218 O 0.36925 0.34555 0.7983 0.0
O219 O 0.32849 0.31823 0.85822 0.0
C220 C 0.34475 0.23114 0.86068 0.0
O221 O 0.35264 0.27242 0.70485 0.0
O222 O 0.41161 0.29884 0.75055 0.0
C223 C 0.24425 0.2167 0.75787 0.0
C224 C 0.17237 0.30834 0.88883 0.0
C225 C 0.13051 0.36983 0.91114 0.0
C226 C 0.11408 0.32585 0.92701 0.0
C227 C 0.13497 0.29555 0.91615 0.0
C228 C 0.1868 0.3516 0.87083 0.0
C229 C 0.16624 0.38192 0.8819 0.0
C230 C 0.20054 0.27868 0.88434 0.0
C231 C 0.26296 0.34141 0.74513 0.0
H232 H 0.52529 0.22349 0.72548 0.0
H233 H 0.48871 0.27777 0.73917 0.0
H234 H 0.35757 0.20637 0.67122 0.0
H235 H 0.39357 0.15166 0.65846 0.0
H236 H 0.08695 0.31533 0.94981 0.0
H237 H 0.12341 0.26256 0.93078 0.0
H238 H 0.21564 0.36252 0.84978 0.0
H239 H 0.17946 0.41528 0.86858 0.0
Tb240 Tb 0.86921 0.26193 0.81968 0.0
Tb241 Tb 0.79354 0.30854 0.77713 0.0
C242 C 0.7701 0.24013 0.86582 0.0
C243 C 0.96193 0.21706 0.808 0.0
C244 C 0.99352 0.19581 0.73392 0.0
C245 C 0.96948 0.16296 0.76408 0.0
C246 C 0.954 0.17349 0.80077 0.0
C247 C 0.98921 0.24991 0.77958 0.0
C248 C 1.00478 0.23934 0.7429 0.0
C249 C 0.93407 0.22769 0.83923 0.0
O250 O 0.81731 0.2166 0.77936 0.0
O251 O 0.79772 0.26628 0.73095 0.0
O252 O 0.85891 0.34549 0.74283 0.0
O253 O 0.89966 0.29632 0.75786 0.0
O254 O 0.72351 0.30109 0.75049 0.0
O255 O 0.77701 0.36428 0.75074 0.0
O256 O 0.82007 0.34238 0.83394 0.0
O257 O 0.88281 0.31672 0.85819 0.0
O258 O 0.81499 0.23928 0.86903 0.0
O259 O 0.75482 0.26128 0.83082 0.0
C260 C 0.8004 0.22736 0.74099 0.0
O261 O 0.94045 0.2689 0.84173 0.0
O262 O 0.88891 0.20539 0.8376 0.0
C263 C 0.89436 0.33149 0.73488 0.0
C264 C 0.70338 0.3603 0.77092 0.0
C265 C 0.68335 0.40401 0.83509 0.0
C266 C 0.69564 0.42591 0.79477 0.0
C267 C 0.70553 0.40409 0.76278 0.0
C268 C 0.68661 0.33749 0.80966 0.0
C269 C 0.67687 0.3592 0.84152 0.0
C270 C 0.73164 0.3432 0.74636 0.0
C271 C 0.85688 0.34222 0.8607 0.0
H272 H 0.95994 0.12901 0.75806 0.0
H273 H 0.93295 0.14755 0.82191 0.0
H274 H 0.99621 0.28394 0.78413 0.0
H275 H 1.0241 0.26527 0.72074 0.0
H276 H 0.69985 0.46028 0.78874 0.0
H277 H 0.71893 0.42232 0.73326 0.0
H278 H 0.68516 0.30383 0.81709 0.0
H279 H 0.66764 0.34143 0.87231 0.0
Tb280 Tb 0.80936 0.81569 0.83777 0.0
Tb281 Tb 0.80714 0.74858 0.76422 0.0
C282 C 0.87328 0.84271 0.76037 0.0
C283 C 0.77545 0.8946 0.89914 0.0
C284 C 0.7218 0.94568 0.92337 0.0
C285 C 0.76956 0.95222 0.93965 0.0
C286 C 0.7959 0.92698 0.92773 0.0
C287 C 0.72846 0.8891 0.88127 0.0
C288 C 0.70192 0.91427 0.89333 0.0
C289 C 0.80093 0.86315 0.89362 0.0
O290 O 0.75019 0.81922 0.78978 0.0
O291 O 0.76667 0.79104 0.73078 0.0
O292 O 0.73893 0.72399 0.79237 0.0
O293 O 0.76964 0.75008 0.85732 0.0
O294 O 0.82568 0.73813 0.70416 0.0
O295 O 0.78992 0.68438 0.74748 0.0
O296 O 0.84525 0.72794 0.82272 0.0
O297 O 0.8669 0.78723 0.86341 0.0
O298 O 0.84548 0.85418 0.78327 0.0
O299 O 0.87295 0.80219 0.76267 0.0
C300 C 0.74373 0.81324 0.74806 0.0
O301 O 0.77416 0.82337 0.88909 0.0
O302 O 0.83589 0.87473 0.8684 0.0
C303 C 0.73543 0.72484 0.83354 0.0
C304 C 0.84495 0.67267 0.70506 0.0
C305 C 0.90768 0.62624 0.69117 0.0
C306 C 0.86604 0.6234 0.66371 0.0
C307 C 0.83509 0.64625 0.67067 0.0
C308 C 0.88622 0.67569 0.73278 0.0
C309 C 0.91729 0.65271 0.7259 0.0
C310 C 0.81131 0.69599 0.71191 0.0
C311 C 0.87001 0.74883 0.85587 0.0
H312 H 0.78608 0.97548 0.96332 0.0
H313 H 0.83173 0.93151 0.94244 0.0
H314 H 0.7116 0.86424 0.85921 0.0
H315 H 0.66555 0.90857 0.87971 0.0
H316 H 0.85781 0.60432 0.63604 0.0
H317 H 0.80347 0.64348 0.64891 0.0
H318 H 0.89441 0.69585 0.75964 0.0
H319 H 0.94876 0.65563 0.74785 0.0
Fe320 Fe 0.06828 0.09454 0.53798 0.0
O321 O 1.01715 0.04638 0.56667 0.0
Fe322 Fe 0.16567 0.05727 0.55455 0.0
Fe323 Fe 0.94791 0.03351 0.55006 0.0
O324 O 0.09848 0.04846 0.53524 0.0
O325 O 0.09675 0.04368 0.53522 0.0
O326 O 1.01503 0.04186 0.56536 0.0
Fe327 Fe 0.04557 0.9961 0.56462 0.0
C328 C 0.99533 0.12716 0.57432 0.0
O329 O 1.03275 0.07933 0.47867 0.0
O330 O 0.95818 0.07075 0.493 0.0
O331 O 0.08472 0.95404 0.56082 0.0
O332 O 0.15417 0.9975 0.53196 0.0
O333 O 0.17475 0.09526 0.49753 0.0
O334 O 0.12589 0.13729 0.50319 0.0
O335 O 0.93747 0.97903 0.51618 0.0
O336 O 1.00951 0.97629 0.50534 0.0
C337 C 0.16009 0.12876 0.48584 0.0
O338 O 0.07821 0.01348 0.62378 0.0
O339 O 0.15463 0.02511 0.61442 0.0
O340 O 1.0287 0.13587 0.54761 0.0
O341 O 0.96212 0.09013 0.5794 0.0
C342 C 0.98898 0.07352 0.46674 0.0
C343 C 0.96444 0.96579 0.49557 0.0
C344 C 0.95668 0.95989 0.61691 0.0
O345 O 0.93994 0.99216 0.60571 0.0
O346 O 0.98996 0.95254 0.59802 0.0
C347 C 0.12337 0.96012 0.54193 0.0
O348 O 0.17605 0.11471 0.58225 0.0
O349 O 0.10435 0.11187 0.59786 0.0
C350 C 0.12126 0.02076 0.6384 0.0
C351 C 0.1494 0.12379 0.60639 0.0
Fe352 Fe 0.54571 0.01017 0.07885 0.0
O353 O 0.58961 0.06223 0.10362 0.0
Fe354 Fe 0.43883 0.05238 0.05894 0.0
Fe355 Fe 0.659 0.08328 0.09896 0.0
O356 O 0.51004 0.05854 0.05541 0.0
O357 O 0.51137 0.07277 0.05954 0.0
O358 O 0.58517 0.08738 0.09695 0.0
Fe359 Fe 0.54943 0.13793 0.06438 0.0
C360 C 0.63988 0.98021 0.1396 0.0
O361 O 0.58056 0.01958 0.02301 0.0
O362 O 0.65538 0.04716 0.04874 0.0
O363 O 0.49684 0.15691 1.01613 0.0
O364 O 0.43489 0.09625 1.004 0.0
O365 O 0.4341 0.9983 1.02038 0.0
O366 O 0.48917 0.96207 0.04322 0.0
O367 O 0.66648 0.13776 0.05009 0.0
O368 O 0.59729 0.1429 1.01351 0.0
C369 C 0.4516 0.96611 1.01809 0.0
O370 O 0.50598 0.14879 0.11718 0.0
O371 O 0.43403 0.10443 0.10077 0.0
O372 O 0.59715 0.96935 0.11486 0.0
O373 O 0.66042 0.02271 0.14197 0.0
C374 C 0.62496 0.02801 1.02013 0.0
C375 C 0.64345 0.14884 1.01503 0.0
C376 C 0.63667 0.1446 0.14215 0.0
O377 O 0.66645 0.12307 0.1485 0.0
O378 O 0.60604 0.13514 0.1096 0.0
C379 C 0.45575 0.13739 0.99542 0.0
O380 O 0.43959 0.01189 0.11351 0.0
O381 O 0.50861 0.99656 0.13251 0.0
C382 C 0.45957 0.13816 0.12193 0.0
C383 C 0.46667 0.99546 0.13952 0.0
Fe384 Fe 1.03314 0.60413 0.04096 0.0
O385 O 0.97937 0.55506 1.0162 0.0
Fe386 Fe 0.12058 0.55213 0.07442 0.0
Fe387 Fe 0.9105 0.54918 0.02163 0.0
O388 O 0.05591 0.55572 0.07041 0.0
O389 O 0.05427 0.5515 0.07158 0.0
O390 O 0.97668 0.54976 1.01872 0.0
Fe391 Fe 0.99978 0.50236 0.05018 0.0
C392 C 0.95928 0.61044 0.09115 0.0
O393 O 0.99714 0.64765 1.00372 0.0
O394 O 0.92711 0.60042 0.97434 0.0
O395 O 1.03552 0.49828 0.99784 0.0
O396 O 0.10733 0.50479 0.03186 0.0
O397 O 0.14033 0.59896 0.0239 0.0
O398 O 0.07527 0.61208 0.98939 0.0
O399 O 0.89712 0.49801 0.98362 0.0
O400 O 0.94037 0.45719 0.02278 0.0
C401 C 0.11979 0.61548 0.99165 0.0
O402 O 1.02917 0.45921 0.08616 0.0
O403 O 0.09721 0.50129 0.12164 0.0
O404 O 0.99536 0.59771 0.09306 0.0
O405 O 0.9252 0.59807 0.06254 0.0
C406 C 0.95854 0.63879 0.97636 0.0
C407 C 0.90952 0.46292 0.99187 0.0
C408 C 0.91937 0.48909 0.10558 0.0
O409 O 0.89431 0.50095 0.07376 0.0
O410 O 0.96434 0.49962 0.10467 0.0
C411 C 0.07611 0.49175 1.00087 0.0
O412 O 0.13398 0.60321 0.11218 0.0
O413 O 0.09284 0.64807 0.07553 0.0
C414 C 0.062 0.46551 0.11767 0.0
C415 C 0.12584 0.64034 0.10414 0.0
Fe416 Fe 0.58304 0.51493 1.00018 0.0
O417 O 0.63167 0.54859 0.04376 0.0
Fe418 Fe 0.48746 0.45442 0.05647 0.0
Fe419 Fe 0.70132 0.57146 0.03604 0.0
O420 O 0.55668 0.47558 0.05081 0.0
O421 O 0.55634 0.47557 0.05599 0.0
O422 O 0.63191 0.54657 0.04912 0.0
Fe423 Fe 0.59733 0.51141 0.10204 0.0
C424 C 0.66706 0.49527 0.97677 0.0
O425 O 0.61342 0.55979 0.95136 0.0
O426 O 0.67205 0.60866 0.9899 0.0
O427 O 0.55489 0.55047 0.09703 0.0
O428 O 0.48589 0.4971 0.10077 0.0
O429 O 0.47243 0.49836 1.00975 0.0
O430 O 0.54067 0.55151 1.00761 0.0
O431 O 0.70166 0.60399 0.08966 0.0
O432 O 0.64982 0.559 0.13922 0.0
C433 C 0.49581 0.53847 1.00898 0.0
O434 O 0.55277 0.47002 0.14955 0.0
O435 O 0.50961 0.41752 0.10624 0.0
O436 O 0.62668 0.47988 0.99236 0.0
O437 O 0.69665 0.53248 0.98546 0.0
C438 C 0.64392 0.59763 0.95569 0.0
C439 C 0.68406 0.59453 0.12729 0.0
C440 C 0.668 0.48893 0.08588 0.0
O441 O 0.65655 0.51949 0.06257 0.0
O442 O 0.63729 0.46962 0.11124 0.0
C443 C 0.51187 0.53591 0.10689 0.0
O444 O 0.48924 0.41889 1.00661 0.0
O445 O 0.53021 0.47429 0.96008 0.0
C446 C 0.51857 0.43358 0.14309 0.0
C447 C 0.50095 0.43561 0.96824 0.0
Fe448 Fe 0.10547 0.42625 0.52886 0.0
O449 O 0.11851 0.49113 0.53015 0.0
Fe450 Fe 0.08309 0.52255 0.46628 0.0
Fe451 Fe 0.09643 0.51329 0.58089 0.0
O452 O 0.11395 0.49123 0.5188 0.0
O453 O 0.0645 0.54527 0.51898 0.0
O454 O 0.06805 0.54565 0.52893 0.0
Fe455 Fe 0.07176 0.60803 0.52696 0.0
C456 C 1.02862 0.42393 0.59462 0.0
O457 O 0.15976 0.43637 0.57898 0.0
O458 O 0.13274 0.4713 0.62595 0.0
O459 O 0.12183 0.62898 0.48185 0.0
O460 O 0.14414 0.57243 0.46646 0.0
O461 O 0.1193 0.48185 0.42492 0.0
O462 O 0.14892 0.43696 0.47494 0.0
O463 O 0.15902 0.56825 0.59465 0.0
O464 O 0.12605 0.62075 0.57708 0.0
C465 C 0.14478 0.45212 0.43458 0.0
O466 O 1.01691 0.60478 0.47533 0.0
O467 O 1.03913 0.57121 0.42447 0.0
O468 O 0.0576 0.40735 0.58059 0.0
O469 O 1.03156 0.46289 0.58093 0.0
C470 C 0.15851 0.44612 0.61798 0.0
C471 C 0.15722 0.6068 0.60006 0.0
C472 C 1.03342 0.56329 0.61326 0.0
O473 O 0.06288 0.54021 0.6226 0.0
O474 O 1.02748 0.58451 0.57645 0.0
C475 C 0.15059 0.61283 0.46708 0.0
O476 O 1.02151 0.47182 0.46619 0.0
O477 O 0.04863 0.41437 0.48354 0.0
C478 C 1.01482 0.59908 0.4346 0.0
C479 C 1.01742 0.43167 0.46635 0.0
Fe480 Fe 0.57215 0.95523 0.57283 0.0
O481 O 0.61674 1.00252 0.60714 0.0
Fe482 Fe 0.54972 0.01558 0.47604 0.0
Fe483 Fe 0.62052 1.00296 0.67024 0.0
O484 O 0.55483 1.00561 0.53973 0.0
O485 O 0.55855 0.01075 0.53822 0.0
O486 O 0.6204 1.00787 0.60591 0.0
Fe487 Fe 0.60325 0.05749 0.57172 0.0
C488 C 0.51726 0.94144 0.65344 0.0
O489 O 0.60086 0.90989 0.61462 0.0
O490 O 0.64741 0.9519 0.66804 0.0
O491 O 0.65746 0.07213 0.5288 0.0
O492 O 0.611 0.06779 0.46762 0.0
O493 O 0.58523 0.97263 0.46847 0.0
O494 O 0.62435 0.963 0.53206 0.0
O495 O 0.68189 0.05285 0.66182 0.0
O496 O 0.65341 0.09904 0.61307 0.0
C497 C 0.61543 0.95788 0.49192 0.0
O498 O 0.5766 0.10258 0.53449 0.0
O499 O 0.5196 0.06208 0.48663 0.0
O500 O 0.517 0.94401 0.61246 0.0
O501 O 0.55493 0.95693 0.67757 0.0
C502 C 0.63263 0.91643 0.64825 0.0
C503 C 0.68492 0.09082 0.64238 0.0
C504 C 0.55648 0.06102 0.64833 0.0
O505 O 0.589 0.05167 0.67364 0.0
O506 O 0.54903 0.04944 0.61033 0.0
C507 C 0.65095 0.08372 0.4885 0.0
O508 O 0.49133 0.96149 0.48406 0.0
O509 O 0.52128 0.91342 0.52935 0.0
C510 C 0.53978 0.097 0.50672 0.0
C511 C 0.49015 0.92257 0.49965 0.0
C512 C 0.18584 0.20578 0.38411 0.0
C513 C 0.23287 0.20736 0.37815 0.0
H514 H 0.12613 0.18065 0.42318 0.0
C515 C 0.25604 0.18491 0.40915 0.0
H516 H 0.16702 0.22314 0.36112 0.0
C517 C 0.2326 0.1607 0.44451 0.0
C518 C 0.18543 0.15858 0.45034 0.0
H519 H 0.29228 0.1857 0.40596 0.0
H520 H 0.25156 0.1433 0.46732 0.0
C521 C 0.1625 0.18189 0.41996 0.0
C522 C 0.90693 0.05499 0.36666 0.0
C523 C 0.93024 0.09117 0.33967 0.0
H524 H 0.90761 0.02167 0.42938 0.0
C525 C 0.97825 0.11426 0.35096 0.0
H526 H 0.8705 0.03583 0.35831 0.0
C527 C 0.99977 0.10558 0.39134 0.0
C528 C 0.9733 0.07413 0.42079 0.0
H529 H 0.99749 0.14231 0.331 0.0
H530 H 1.03503 0.12644 0.40105 0.0
C531 C 0.92805 0.047 0.40731 0.0
C532 C 0.8689 0.89405 0.41909 0.0
C533 C 0.89568 0.88234 0.39081 0.0
H534 H 0.86892 0.92899 0.47324 0.0
C535 C 0.94585 0.8985 0.39734 0.0
H536 H 0.83034 0.88244 0.41543 0.0
C537 C 0.96835 0.92513 0.43119 0.0
C538 C 0.94142 0.93688 0.45943 0.0
H539 H 0.96792 0.89018 0.37652 0.0
H540 H 1.00689 0.93663 0.43511 0.0
C541 C 0.89128 0.92093 0.45252 0.0
C542 C 0.18443 0.89629 0.49233 0.0
C543 C 0.14656 0.87244 0.46516 0.0
H544 H 0.20623 0.94307 0.53929 0.0
C545 C 0.09961 0.86928 0.47208 0.0
H546 H 0.22102 0.89937 0.48772 0.0
C547 C 0.09122 0.8942 0.50199 0.0
C548 C 0.12982 0.92271 0.52462 0.0
H549 H 0.06986 0.85057 0.45185 0.0
H550 H 0.05517 0.89474 0.5038 0.0
C551 C 0.17609 0.92148 0.52176 0.0
C552 C 0.11458 0.98099 0.75472 0.0
C553 C 0.16323 0.99707 0.76935 0.0
H554 H 0.06322 0.9755 0.70047 0.0
C555 C 0.19223 0.03296 0.74534 0.0
H556 H 0.08959 0.95505 0.77265 0.0
C557 C 0.17777 0.0424 0.70258 0.0
C558 C 0.13232 0.01952 0.68521 0.0
H559 H 0.22865 0.04905 0.7569 0.0
H560 H 0.20338 0.06491 0.6823 0.0
C561 C 0.09927 0.99218 0.7127 0.0
C562 C 0.24251 0.17228 0.69645 0.0
C563 C 0.21804 0.19078 0.72097 0.0
H564 H 0.24098 0.13822 0.64147 0.0
C565 C 0.17024 0.18733 0.70725 0.0
H566 H 0.27936 0.17436 0.7055 0.0
C567 C 0.14782 0.16595 0.67013 0.0
C568 C 0.17245 0.14759 0.64561 0.0
H569 H 0.15035 0.20177 0.72473 0.0
H570 H 0.11164 0.16478 0.66006 0.0
C571 C 0.22037 0.15162 0.65927 0.0
C572 C 0.9924 0.20641 0.65274 0.0
C573 C 1.00309 0.18422 0.69197 0.0
H574 H 0.98191 0.20593 0.58348 0.0
C575 C 1.01773 0.14751 0.69068 0.0
H576 H 0.98047 0.23459 0.65275 0.0
C577 C 1.01811 0.13132 0.6515 0.0
C578 C 1.00505 0.15193 0.61253 0.0
H579 H 1.02697 0.13014 0.72013 0.0
H580 H 1.02691 0.1014 0.65173 0.0
C581 C 0.99322 0.19021 0.61313 0.0
C582 C 0.92755 0.86256 0.69995 0.0
C583 C 0.89881 0.87409 0.72637 0.0
H584 H 0.96833 0.88041 0.64462 0.0
C585 C 0.89067 0.9145 0.71723 0.0
H586 H 0.93442 0.83161 0.706 0.0
C587 C 0.90943 0.94209 0.68177 0.0
C588 C 0.9372 0.93023 0.65463 0.0
H589 H 0.8686 0.92446 0.73673 0.0
H590 H 0.90187 0.97274 0.67561 0.0
C591 C 0.94676 0.89045 0.66458 0.0
C592 C 0.43254 0.22231 0.20747 0.0
C593 C 0.38135 0.21673 0.20705 0.0
H594 H 0.49482 0.20815 0.18661 0.0
C595 C 0.35854 0.18331 0.17685 0.0
H596 H 0.45597 0.24615 0.22804 0.0
C597 C 0.38223 0.15962 0.15204 0.0
C598 C 0.43332 0.16527 0.15213 0.0
H599 H 0.32013 0.1745 0.17186 0.0
H600 H 0.35873 0.13589 0.13139 0.0
C601 C 0.45637 0.19901 0.18208 0.0
C602 C 0.87363 0.38195 0.17603 0.0
C603 C 0.85002 0.39268 0.208 0.0
H604 H 0.91377 0.40337 0.11993 0.0
C605 C 0.84983 0.43623 0.20576 0.0
H606 H 0.87524 0.34917 0.17618 0.0
C607 C 0.87132 0.46741 0.17253 0.0
C608 C 0.89532 0.45651 0.14109 0.0
H609 H 0.83292 0.44621 0.22976 0.0
H610 H 0.86978 0.50027 0.17185 0.0
C611 C 0.89614 0.41326 0.14363 0.0
C612 C 0.68152 0.87111 0.20908 0.0
C613 C 0.73359 0.88294 0.22025 0.0
H614 H 0.61482 0.88353 0.17948 0.0
C615 C 0.75089 0.92842 0.20225 0.0
H616 H 0.66121 0.83823 0.2194 0.0
C617 C 0.72219 0.95658 0.17876 0.0
C618 C 0.6704 0.94489 0.1669 0.0
H619 H 0.78893 0.94397 0.20682 0.0
H620 H 0.74259 0.98959 0.169 0.0
C621 C 0.65284 0.89904 0.18433 0.0
C622 C 0.17629 0.72653 0.18483 0.0
C623 C 0.22439 0.72703 0.19154 0.0
H624 H 0.10751 0.70008 0.15086 0.0
C625 C 0.24021 0.70338 0.16481 0.0
H626 H 0.16273 0.74466 0.20445 0.0
C627 C 0.20841 0.6779 0.13436 0.0
C628 C 0.15986 0.67558 0.12911 0.0
H629 H 0.27678 0.70301 0.16859 0.0
H630 H 0.22152 0.65842 0.1159 0.0
C631 C 0.1445 0.70133 0.15378 0.0
C632 C 0.42131 0.87002 0.93936 0.0
C633 C 0.37832 0.87124 0.91459 0.0
H634 H 0.47697 0.89619 0.98945 0.0
C635 C 0.36027 0.90401 0.92558 0.0
H636 H 0.43763 0.84609 0.93321 0.0
C637 C 0.38334 0.93336 0.95832 0.0
C638 C 0.42626 0.93229 0.98321 0.0
H639 H 0.32779 0.90742 0.90845 0.0
H640 H 0.367 0.95742 0.96404 0.0
C641 C 0.44431 0.89931 0.97245 0.0
C642 C 0.06626 0.39647 0.9357 0.0
C643 C 0.11435 0.40364 0.92846 0.0
H644 H 1.01599 0.41948 0.96289 0.0
C645 C 0.1481 0.44259 0.94087 0.0
H646 H 1.03921 0.36701 0.92635 0.0
C647 C 0.13482 0.47226 0.96192 0.0
C648 C 0.08721 0.46441 0.97073 0.0
H649 H 0.18546 0.44921 0.93635 0.0
H650 H 0.16232 0.50082 0.9728 0.0
C651 C 0.0528 0.42675 0.95621 0.0
C652 C 0.75281 0.19589 0.94136 0.0
C653 C 0.73625 0.21653 0.90316 0.0
H654 H 0.73942 0.16016 1.00363 0.0
C655 C 0.68718 0.21402 0.90241 0.0
H656 H 0.78955 0.19608 0.94493 0.0
C657 C 0.65729 0.1925 0.93715 0.0
C658 C 0.67426 0.17212 0.97553 0.0
H659 H 0.67143 0.22888 0.87463 0.0
H660 H 0.62054 0.19224 0.93386 0.0
C661 C 0.72324 0.17478 0.97595 0.0
C662 C 0.91918 0.73812 0.92794 0.0
C663 C 0.90008 0.72576 0.88606 0.0
H664 H 0.95342 0.72141 0.98931 0.0
C665 C 0.90702 0.68792 0.87365 0.0
H666 H 0.91469 0.76674 0.93922 0.0
C667 C 0.92943 0.6624 0.90207 0.0
C668 C 0.94657 0.67328 0.94447 0.0
H669 H 0.89356 0.67681 0.84201 0.0
H670 H 0.93154 0.63262 0.89123 0.0
C671 C 0.94198 0.71225 0.95671 0.0
C672 C 1.02317 0.35046 0.16754 0.0
C673 C 0.06422 0.34923 0.19349 0.0
H674 H 0.99021 0.38856 0.12326 0.0
C675 C 0.10037 0.38838 0.20147 0.0
H676 H 0.99489 0.32071 0.16108 0.0
C677 C 0.09839 0.42736 0.17914 0.0
C678 C 0.06006 0.4276 0.14881 0.0
H679 H 0.13267 0.38822 0.22118 0.0
H680 H 0.12852 0.45636 0.18314 0.0
C681 C 1.02102 0.38938 0.14548 0.0
C682 C 0.23096 0.67338 0.93165 0.0
C683 C 0.21352 0.6957 0.8961 0.0
H684 H 0.21565 0.63066 0.98865 0.0
C685 C 0.16411 0.68999 0.89099 0.0
H686 H 0.26859 0.6767 0.93668 0.0
C687 C 0.13325 0.66345 0.9212 0.0
C688 C 0.15093 0.64165 0.95721 0.0
H689 H 0.14929 0.70667 0.86399 0.0
H690 H 0.09572 0.66056 0.91663 0.0
C691 C 0.20025 0.64675 0.96155 0.0
C692 C 0.35097 0.16898 0.92176 0.0
C693 C 0.37298 0.20737 0.89582 0.0
H694 H 0.35766 0.11782 0.97033 0.0
C695 C 0.42372 0.2227 0.90397 0.0
H696 H 0.31264 0.15491 0.91784 0.0
C697 C 0.45023 0.20162 0.93573 0.0
C698 C 0.42825 0.16262 0.961 0.0
H699 H 0.4435 0.25192 0.88583 0.0
H700 H 0.48853 0.21582 0.93987 0.0
C701 C 0.37756 0.1472 0.9525 0.0
C702 C 0.84696 0.40446 0.89427 0.0
C703 C 0.86849 0.37153 0.89562 0.0
H704 H 0.84245 0.45885 0.92391 0.0
C705 C 0.90004 0.36637 0.931 0.0
H706 H 0.82196 0.40895 0.86765 0.0
C707 C 0.91106 0.39452 0.96375 0.0
C708 C 0.89145 0.42889 0.96131 0.0
H709 H 0.91647 0.34079 0.93333 0.0
H710 H 0.93623 0.39011 0.99022 0.0
C711 C 0.85847 0.43296 0.92669 0.0
C712 C 0.71357 0.01305 0.9503 0.0
C713 C 0.6926 0.96969 0.94012 0.0
H714 H 0.70801 0.06574 0.98252 0.0
C715 C 0.64507 0.9485 0.95 0.0
H716 H 0.7495 0.03094 0.94229 0.0
C717 C 0.62076 0.96894 0.97257 0.0
C718 C 0.64357 0.01091 0.98593 0.0
H719 H 0.62766 0.91508 0.94286 0.0
H720 H 0.58562 0.95066 0.98242 0.0
C721 C 0.68952 0.03324 0.97301 0.0
C722 C 1.01117 0.70317 0.16172 0.0
C723 C 0.98358 0.73028 0.14619 0.0
H724 H 1.02409 0.64295 0.15722 0.0
C725 C 0.94505 0.71571 0.11544 0.0
H726 H 1.0405 0.71338 0.18598 0.0
C727 C 0.93525 0.6754 0.09938 0.0
C728 C 0.96389 0.64893 0.11371 0.0
H729 H 0.92199 0.73526 0.10408 0.0
H730 H 0.90621 0.66572 0.07474 0.0
C731 C 1.00144 0.6628 0.14556 0.0
C732 C 0.44108 0.90478 0.22662 0.0
C733 C 0.39274 0.89891 0.23031 0.0
H734 H 0.50333 0.94108 0.19509 0.0
C735 C 0.37207 0.93011 0.2108 0.0
H736 H 0.45803 0.88147 0.24217 0.0
C737 C 0.3981 0.96457 0.18442 0.0
C738 C 0.44491 0.9678 0.17671 0.0
H739 H 0.33519 0.92692 0.21433 0.0
H740 H 0.38036 0.98685 0.16782 0.0
C741 C 0.46709 0.93908 0.1999 0.0
C742 C 0.67181 0.25 0.19054 0.0
C743 C 0.67431 0.23455 0.23407 0.0
H744 H 0.65638 0.23168 0.12548 0.0
C745 C 0.65073 0.19094 0.24649 0.0
H746 H 0.69017 0.28358 0.18052 0.0
C747 C 0.63232 0.16151 0.21534 0.0
C748 C 0.63658 0.17584 0.1718 0.0
H749 H 0.65226 0.17865 0.28007 0.0
H750 H 0.6196 0.12711 0.22534 0.0
C751 C 0.65284 0.2204 0.15919 0.0
C752 C 0.68408 0.70502 0.89369 0.0
C753 C 0.69709 0.69303 0.85626 0.0
H754 H 0.65605 0.68323 0.95505 0.0
C755 C 0.68156 0.64924 0.84728 0.0
H756 H 0.69517 0.73877 0.90087 0.0
C757 C 0.65865 0.61735 0.87832 0.0
C758 C 0.65162 0.6294 0.91824 0.0
H759 H 0.69141 0.63939 0.81862 0.0
H760 H 0.6511 0.58341 0.87296 0.0
C761 C 0.66176 0.67338 0.92464 0.0
C762 C 0.47469 0.6449 1.01617 0.0
C763 C 0.42518 0.63183 1.0072 0.0
H764 H 0.53671 0.62488 1.01879 0.0
C765 C 0.39917 0.58816 1.01702 0.0
H766 H 0.49551 0.67885 1.01169 0.0
C767 C 0.42245 0.55683 1.01958 0.0
C768 C 0.47177 0.56996 1.01561 0.0
H769 H 0.36061 0.57771 1.01274 0.0
H770 H 0.40145 0.52284 1.02063 0.0
C771 C 0.49821 0.61395 1.01841 0.0
C772 C 0.41422 0.34607 0.908 0.0
C773 C 0.40541 0.36814 0.86838 0.0
H774 H 0.45223 0.34963 0.96991 0.0
C775 C 0.43368 0.41109 0.85905 0.0
H776 H 0.39389 0.31243 0.91557 0.0
C777 C 0.46755 0.43273 0.89066 0.0
C778 C 0.47352 0.41138 0.93164 0.0
H779 H 0.42782 0.42851 0.82851 0.0
H780 H 0.48696 0.46673 0.88386 0.0
C781 C 0.44789 0.36733 0.93914 0.0
C782 C 0.64456 0.40899 0.89985 0.0
C783 C 0.6802 0.42784 0.8715 0.0
H784 H 0.61384 0.41451 0.9561 0.0
C785 C 0.71413 0.46819 0.8796 0.0
H786 H 0.61779 0.37811 0.89435 0.0
C787 C 0.71162 0.48973 0.91509 0.0
C788 C 0.67531 0.471 0.94299 0.0
H789 H 0.74268 0.48297 0.85866 0.0
H790 H 0.73725 0.52132 0.92001 0.0
C791 C 0.64242 0.43004 0.93534 0.0
C792 C 0.73196 0.43747 0.15442 0.0
C793 C 0.74378 0.47068 0.18275 0.0
H794 H 0.70244 0.41981 0.09141 0.0
C795 C 0.75592 0.514 0.16549 0.0
H796 H 0.72544 0.40383 0.16677 0.0
C797 C 0.74535 0.52269 0.12141 0.0
C798 C 0.71711 0.48833 0.09737 0.0
H799 H 0.76806 0.54052 0.18627 0.0
H800 H 0.75017 0.55588 0.10908 0.0
C801 C 0.72025 0.44678 0.11087 0.0
C802 C 0.76251 0.70089 0.16991 0.0
C803 C 0.7633 0.69153 0.21462 0.0
H804 H 0.7358 0.6788 0.10801 0.0
C805 C 0.73565 0.65003 0.23109 0.0
H806 H 0.78256 0.73254 0.15603 0.0
C807 C 0.70846 0.61848 0.20328 0.0
C808 C 0.70821 0.6279 0.15842 0.0
H809 H 0.73516 0.64179 0.26554 0.0
H810 H 0.68858 0.58664 0.21683 0.0
C811 C 0.73525 0.66979 0.14234 0.0
C812 C 0.43079 0.57173 0.16899 0.0
C813 C 0.45501 0.61625 0.17035 0.0
H814 H 0.42961 0.51141 0.14742 0.0
C815 C 0.49701 0.63465 0.14921 0.0
H816 H 0.39821 0.55695 0.18493 0.0
C817 C 0.51537 0.60865 0.12817 0.0
C818 C 0.49161 0.56392 0.12739 0.0
H819 H 0.51651 0.66891 0.15018 0.0
H820 H 0.54833 0.62352 0.11285 0.0
C821 C 0.44875 0.54581 0.14743 0.0
C822 C 0.43547 0.41022 0.23388 0.0
C823 C 0.39119 0.39069 0.21123 0.0
H824 H 0.51144 0.43895 0.23037 0.0
C825 C 0.38917 0.38998 0.16665 0.0
H826 H 0.438 0.41137 0.2685 0.0
C827 C 0.43054 0.40507 0.1454 0.0
C828 C 0.47568 0.42142 0.16798 0.0
H829 H 0.35569 0.37577 0.14827 0.0
H830 H 0.42675 0.4029 0.11084 0.0
C831 C 0.47758 0.42563 0.21229 0.0
C832 C 0.92537 0.56329 0.6636 0.0
C833 C 0.94195 0.60383 0.68148 0.0
H834 H 0.94226 0.51775 0.6286 0.0
C835 C 0.99145 0.62487 0.6854 0.0
H836 H 0.88768 0.54561 0.66082 0.0
C837 C 1.02285 0.60796 0.66809 0.0
C838 C 1.00553 0.56961 0.64672 0.0
H839 H 1.0057 0.65622 0.69862 0.0
H840 H 0.06011 0.62703 0.66779 0.0
C841 C 0.95675 0.54664 0.64603 0.0
C842 C 0.4069 0.85105 0.68716 0.0
C843 C 0.39602 0.86661 0.72374 0.0
H844 H 0.45254 0.86311 0.6353 0.0
C845 C 0.42273 0.90869 0.73456 0.0
H846 H 0.38709 0.81865 0.67815 0.0
C847 C 0.46121 0.93356 0.71083 0.0
C848 C 0.47282 0.91754 0.67486 0.0
H849 H 0.41562 0.92138 0.7628 0.0
H850 H 0.48262 0.96505 0.72116 0.0
C851 C 0.44428 0.87652 0.66255 0.0
C852 C 0.24556 0.38015 0.66961 0.0
C853 C 0.23805 0.37111 0.71407 0.0
H854 H 0.22918 0.4095 0.60717 0.0
C855 C 0.20479 0.38994 0.72741 0.0
H856 H 0.27003 0.36717 0.65652 0.0
C857 C 0.1805 0.41534 0.6982 0.0
C858 C 0.18764 0.42365 0.6534 0.0
H859 H 0.19671 0.38452 0.76085 0.0
H860 H 0.15501 0.42743 0.71078 0.0
C861 C 0.22141 0.40517 0.64066 0.0
C862 C 0.78311 0.15271 0.7186 0.0
C863 C 0.77871 0.19443 0.71025 0.0
H864 H 0.75786 0.08709 0.70238 0.0
C865 C 0.74991 0.2035 0.67405 0.0
H866 H 0.80601 0.14516 0.74564 0.0
C867 C 0.72195 0.17023 0.64934 0.0
C868 C 0.72265 0.12751 0.6604 0.0
H869 H 0.74653 0.23571 0.66635 0.0
H870 H 0.69759 0.17758 0.62351 0.0
C871 C 0.75553 0.11953 0.69366 0.0
C872 C 0.8937 0.3838 0.41596 0.0
C873 C 0.9005 0.35281 0.39157 0.0
H874 H 0.9263 0.43405 0.45859 0.0
C875 C 0.9454 0.3472 0.39275 0.0
H876 H 0.85925 0.38885 0.41511 0.0
C877 C 0.98323 0.37234 0.41818 0.0
C878 C 0.97672 0.40404 0.44178 0.0
H879 H 0.9512 0.32346 0.37408 0.0
H880 H 1.01788 0.36781 0.41847 0.0
C881 C 0.93184 0.40974 0.44054 0.0
C882 C 0.61421 0.86982 0.42364 0.0
C883 C 0.6509 0.85489 0.44459 0.0
H884 H 0.57551 0.91485 0.42121 0.0
C885 C 0.67748 0.87526 0.48071 0.0
H886 H 0.59254 0.85431 0.39624 0.0
C887 C 0.66724 0.90992 0.49564 0.0
C888 C 0.63079 0.92503 0.47421 0.0
H889 H 0.70655 0.86484 0.49705 0.0
H890 H 0.68756 0.92467 0.52395 0.0
C891 C 0.60466 0.90478 0.43791 0.0
C892 C 0.2394 0.65569 0.38408 0.0
C893 C 0.25117 0.70029 0.38801 0.0
H894 H 0.19791 0.59237 0.40687 0.0
C895 C 0.23623 0.71529 0.42276 0.0
H896 H 0.25107 0.64345 0.35787 0.0
C897 C 0.20556 0.68637 0.45044 0.0
C898 C 0.19002 0.64209 0.44403 0.0
H899 H 0.24605 0.74964 0.42729 0.0
H900 H 0.1923 0.69887 0.47548 0.0
C901 C 0.20901 0.62661 0.41214 0.0
C902 C 0.53743 0.21261 0.48712 0.0
C903 C 0.4979 0.20741 0.4571 0.0
H904 H 0.58184 0.18116 0.52693 0.0
C905 C 0.46889 0.16562 0.44788 0.0
H906 H 0.55985 0.24472 0.49487 0.0
C907 C 0.48111 0.12943 0.46603 0.0
C908 C 0.52265 0.13449 0.49366 0.0
H909 H 0.43739 0.16104 0.42562 0.0
H910 H 0.45888 0.09767 0.45709 0.0
C911 C 0.54982 0.17626 0.50536 0.0
C912 C 0.70918 0.83934 0.67452 0.0
C913 C 0.7099 0.83355 0.72012 0.0
H914 H 0.68383 0.86926 0.61538 0.0
C915 C 0.67948 0.85015 0.73964 0.0
H916 H 0.73206 0.82732 0.658 0.0
C917 C 0.65153 0.87339 0.71523 0.0
C918 C 0.65243 0.88129 0.67005 0.0
H919 H 0.67825 0.84645 0.77434 0.0
H920 H 0.63062 0.88724 0.73224 0.0
C921 C 0.68102 0.86306 0.64984 0.0
C922 C 0.74487 0.15559 0.41319 0.0
C923 C 0.73259 0.19461 0.40661 0.0
H924 H 0.72984 0.09038 0.44427 0.0
C925 C 0.69697 0.19751 0.43152 0.0
H926 H 0.77173 0.15145 0.39476 0.0
C927 C 0.67364 0.16266 0.46046 0.0
C928 C 0.6849 0.12332 0.46619 0.0
H929 H 0.68597 0.22648 0.42784 0.0
H930 H 0.645 0.16586 0.47718 0.0
C931 C 0.72115 0.12047 0.44212 0.0
C932 C 0.95762 0.68287 0.33937 0.0
C933 C 0.92033 0.69557 0.35744 0.0
H934 H 1.01191 0.64829 0.3417 0.0
C935 C 0.91631 0.67214 0.40031 0.0
H936 H 0.96648 0.69706 0.30727 0.0
C937 C 0.94431 0.64267 0.42134 0.0
C938 C 0.98108 0.62922 0.40368 0.0
H939 H 0.89063 0.67711 0.41956 0.0
H940 H 0.93628 0.62983 0.45396 0.0
C941 C 0.9853 0.65247 0.36036 0.0
C942 C 0.37975 0.87175 0.42914 0.0
C943 C 0.39408 0.84295 0.4075 0.0
H944 H 0.39818 0.91793 0.47683 0.0
C945 C 0.43696 0.83434 0.42304 0.0
H946 H 0.34674 0.87874 0.41882 0.0
C947 C 0.46645 0.85666 0.45701 0.0
C948 C 0.45358 0.88791 0.47626 0.0
H949 H 0.44909 0.81214 0.40743 0.0
H950 H 0.50092 0.85202 0.46573 0.0
C951 C 0.40901 0.89381 0.46295 0.0
C952 C 0.18637 0.39535 0.33309 0.0
C953 C 0.22515 0.3777 0.35035 0.0
H954 H 0.13371 0.42968 0.33893 0.0
C955 C 0.23553 0.38844 0.39502 0.0
H956 H 0.17349 0.39015 0.29982 0.0
C957 C 0.21124 0.41195 0.41863 0.0
C958 C 0.17296 0.43015 0.40189 0.0
H959 H 0.26338 0.3777 0.41334 0.0
H960 H 0.22348 0.41576 0.45223 0.0
C961 C 0.16235 0.41977 0.35678 0.0
C962 C 0.51826 0.13717 0.71121 0.0
C963 C 0.48543 0.15014 0.68109 0.0
H964 H 0.56594 0.09877 0.72503 0.0
C965 C 0.47519 0.13211 0.64094 0.0
H966 H 0.52676 0.14984 0.74266 0.0
C967 C 0.49732 0.10257 0.63102 0.0
C968 C 0.53058 0.08999 0.66085 0.0
H969 H 0.45086 0.14164 0.61652 0.0
H970 H 0.48888 0.09022 0.5994 0.0
C971 C 0.5405 0.1075 0.70125 0.0
C972 C 0.96168 0.33698 0.68441 0.0
C973 C 0.9284 0.35491 0.69847 0.0
H974 H 1.01736 0.34252 0.6425 0.0
C975 C 0.92829 0.39551 0.67654 0.0
H976 H 0.96365 0.30592 0.69921 0.0
C977 C 0.95963 0.41687 0.64342 0.0
C978 C 0.99302 0.39905 0.62941 0.0
H979 H 0.90397 0.41135 0.68523 0.0
H980 H 0.95765 0.44797 0.62868 0.0
C981 C 0.99283 0.35822 0.65104 0.0
C982 C 0.20443 0.70681 0.6718 0.0
C983 C 0.23548 0.69593 0.70558 0.0
H984 H 0.15809 0.6899 0.61429 0.0
C985 C 0.24232 0.65471 0.70301 0.0
H986 H 0.19724 0.73747 0.67115 0.0
C987 C 0.21908 0.62625 0.66933 0.0
C988 C 0.18769 0.6373 0.63565 0.0
H989 H 0.26552 0.64388 0.72765 0.0
H990 H 0.22529 0.59514 0.67024 0.0
C991 C 0.18164 0.67877 0.6383 0.0
loop_
_geom_bond_atom_site_label_1
_geom_bond_atom_site_label_2
_geom_bond_distance
_geom_bond_site_symmetry_2
_ccdc_geom_bond_type
Tb0 C9 2.764 . S
Tb0 O10 2.325 . S
Tb0 O13 2.303 . S
Tb0 O17 2.322 . S
Tb0 O18 2.349 . S
Tb0 O21 2.415 . S
Tb0 O22 2.399 . S
Tb1 O11 2.322 . S
Tb1 O12 2.349 . S
Tb1 O14 2.415 . S
Tb1 O15 2.399 . S
Tb1 O16 2.325 . S
Tb1 O19 2.303 . S
Tb1 C30 2.764 . S
C2 O18 1.261 . S
C2 O19 1.257 . S
C3 C6 1.358 . S
C3 C7 1.332 . S
C3 C9 1.504 . S
C4 C5 1.373 . S
C4 C8 1.308 . S
C5 C4 1.373 . S
C5 C6 1.429 . S
C5 H32 0.932 . S
C6 C3 1.358 . S
C6 C5 1.429 . S
C6 H33 0.930 . S
C7 C3 1.332 . S
C7 C8 1.394 . S
C7 H34 0.932 . S
C8 C4 1.308 . S
C8 C7 1.394 . S
C8 H35 0.929 . S
C9 Tb0 2.764 . S
C9 C3 1.504 . S
C9 O21 1.239 . S
C9 O22 1.263 . S
O10 Tb0 2.325 . S
O10 C20 1.236 . S
O11 Tb1 2.322 . S
O11 C20 1.257 . S
O12 Tb1 2.349 . S
O12 C23 1.261 . S
O13 Tb0 2.303 . S
O13 C23 1.257 . S
O14 Tb1 2.415 . S
O14 C30 1.239 . S
O15 Tb1 2.399 . S
O15 C30 1.263 . S
O16 Tb1 2.325 . S
O16 C31 1.236 . S
O17 Tb0 2.322 . S
O17 C31 1.257 . S
O18 Tb0 2.349 . S
O18 C2 1.261 . S
O19 Tb1 2.303 . S
O19 C2 1.257 . S
C20 O10 1.236 . S
C20 O11 1.257 . S
O21 Tb0 2.415 . S
O21 C9 1.239 . S
O22 Tb0 2.399 . S
O22 C9 1.263 . S
C23 O12 1.261 . S
C23 O13 1.257 . S
C24 C27 1.358 . S
C24 C28 1.332 . S
C24 C30 1.504 . S
C25 C26 1.373 . S
C25 C29 1.308 . S
C26 C25 1.373 . S
C26 C27 1.429 . S
C26 H36 0.932 . S
C27 C24 1.358 . S
C27 C26 1.429 . S
C27 H37 0.930 . S
C28 C24 1.332 . S
C28 C29 1.394 . S
C28 H38 0.932 . S
C29 C25 1.308 . S
C29 C28 1.394 . S
C29 H39 0.929 . S
C30 Tb1 2.764 . S
C30 O14 1.239 . S
C30 O15 1.263 . S
C30 C24 1.504 . S
C31 O16 1.236 . S
C31 O17 1.257 . S
H32 C5 0.932 . S
H33 C6 0.930 . S
H34 C7 0.932 . S
H35 C8 0.929 . S
H36 C26 0.932 . S
H37 C27 0.930 . S
H38 C28 0.932 . S
H39 C29 0.929 . S
Tb40 C49 2.764 . S
Tb40 O50 2.325 . S
Tb40 O53 2.303 . S
Tb40 O57 2.322 . S
Tb40 O58 2.349 . S
Tb40 O61 2.415 . S
Tb40 O62 2.399 . S
Tb41 O51 2.322 . S
Tb41 O52 2.349 . S
Tb41 O54 2.415 . S
Tb41 O55 2.399 . S
Tb41 O56 2.325 . S
Tb41 O59 2.303 . S
Tb41 C70 2.764 . S
C42 O58 1.261 . S
C42 O59 1.257 . S
C43 C46 1.358 . S
C43 C47 1.332 . S
C43 C49 1.504 . S
C44 C45 1.373 . S
C44 C48 1.308 . S
C45 C44 1.373 . S
C45 C46 1.429 . S
C45 H72 0.932 . S
C46 C43 1.358 . S
C46 C45 1.429 . S
C46 H73 0.930 . S
C47 C43 1.332 . S
C47 C48 1.394 . S
C47 H74 0.932 . S
C48 C44 1.308 . S
C48 C47 1.394 . S
C48 H75 0.929 . S
C49 Tb40 2.764 . S
C49 C43 1.504 . S
C49 O61 1.239 . S
C49 O62 1.263 . S
O50 Tb40 2.325 . S
O50 C60 1.236 . S
O51 Tb41 2.322 . S
O51 C60 1.257 . S
O52 Tb41 2.349 . S
O52 C63 1.261 . S
O53 Tb40 2.303 . S
O53 C63 1.257 . S
O54 Tb41 2.415 . S
O54 C70 1.239 . S
O55 Tb41 2.399 . S
O55 C70 1.263 . S
O56 Tb41 2.325 . S
O56 C71 1.236 . S
O57 Tb40 2.322 . S
O57 C71 1.257 . S
O58 Tb40 2.349 . S
O58 C42 1.261 . S
O59 Tb41 2.303 . S
O59 C42 1.257 . S
C60 O50 1.236 . S
C60 O51 1.257 . S
O61 Tb40 2.415 . S
O61 C49 1.239 . S
O62 Tb40 2.399 . S
O62 C49 1.263 . S
C63 O52 1.261 . S
C63 O53 1.257 . S
C64 C67 1.358 . S
C64 C68 1.332 . S
C64 C70 1.504 . S
C65 C66 1.373 . S
C65 C69 1.308 . S
C66 C65 1.373 . S
C66 C67 1.429 . S
C66 H76 0.932 . S
C67 C64 1.358 . S
C67 C66 1.429 . S
C67 H77 0.930 . S
C68 C64 1.332 . S
C68 C69 1.394 . S
C68 H78 0.932 . S
C69 C65 1.308 . S
C69 C68 1.394 . S
C69 H79 0.929 . S
C70 Tb41 2.764 . S
C70 O54 1.239 . S
C70 O55 1.263 . S
C70 C64 1.504 . S
C71 O56 1.236 . S
C71 O57 1.257 . S
H72 C45 0.932 . S
H73 C46 0.930 . S
H74 C47 0.932 . S
H75 C48 0.929 . S
H76 C66 0.932 . S
H77 C67 0.930 . S
H78 C68 0.932 . S
H79 C69 0.929 . S
Tb80 C89 2.764 . S
Tb80 O90 2.325 . S
Tb80 O93 2.303 . S
Tb80 O97 2.322 . S
Tb80 O98 2.349 . S
Tb80 O101 2.415 . S
Tb80 O102 2.399 . S
Tb81 O91 2.322 . S
Tb81 O92 2.349 . S
Tb81 O94 2.415 . S
Tb81 O95 2.399 . S
Tb81 O96 2.325 . S
Tb81 O99 2.303 . S
Tb81 C110 2.764 . S
C82 O98 1.261 . S
C82 O99 1.257 . S
C83 C86 1.358 . S
C83 C87 1.332 . S
C83 C89 1.504 . S
C84 C85 1.373 . S
C84 C88 1.308 . S
C85 C84 1.373 . S
C85 C86 1.429 . S
C85 H112 0.932 . S
C86 C83 1.358 . S
C86 C85 1.429 . S
C86 H113 0.930 . S
C87 C83 1.332 . S
C87 C88 1.394 . S
C87 H114 0.932 . S
C88 C84 1.308 . S
C88 C87 1.394 . S
C88 H115 0.929 . S
C89 Tb80 2.764 . S
C89 C83 1.504 . S
C89 O101 1.239 . S
C89 O102 1.263 . S
O90 Tb80 2.325 . S
O90 C100 1.236 . S
O91 Tb81 2.322 . S
O91 C100 1.257 . S
O92 Tb81 2.349 . S
O92 C103 1.261 . S
O93 Tb80 2.303 . S
O93 C103 1.257 . S
O94 Tb81 2.415 . S
O94 C110 1.239 . S
O95 Tb81 2.399 . S
O95 C110 1.263 . S
O96 Tb81 2.325 . S
O96 C111 1.236 . S
O97 Tb80 2.322 . S
O97 C111 1.257 . S
O98 Tb80 2.349 . S
O98 C82 1.261 . S
O99 Tb81 2.303 . S
O99 C82 1.257 . S
C100 O90 1.236 . S
C100 O91 1.257 . S
O101 Tb80 2.415 . S
O101 C89 1.239 . S
O102 Tb80 2.399 . S
O102 C89 1.263 . S
C103 O92 1.261 . S
C103 O93 1.257 . S
C104 C107 1.358 . S
C104 C108 1.332 . S
C104 C110 1.504 . S
C105 C106 1.373 . S
C105 C109 1.308 . S
C106 C105 1.373 . S
C106 C107 1.429 . S
C106 H116 0.932 . S
C107 C104 1.358 . S
C107 C106 1.429 . S
C107 H117 0.930 . S
C108 C104 1.332 . S
C108 C109 1.394 . S
C108 H118 0.932 . S
C109 C105 1.308 . S
C109 C108 1.394 . S
C109 H119 0.929 . S
C110 Tb81 2.764 . S
C110 O94 1.239 . S
C110 O95 1.263 . S
C110 C104 1.504 . S
C111 O96 1.236 . S
C111 O97 1.257 . S
H112 C85 0.932 . S
H113 C86 0.930 . S
H114 C87 0.932 . S
H115 C88 0.929 . S
H116 C106 0.932 . S
H117 C107 0.930 . S
H118 C108 0.932 . S
H119 C109 0.929 . S
Tb120 C129 2.764 . S
Tb120 O130 2.325 . S
Tb120 O133 2.303 . S
Tb120 O137 2.322 . S
Tb120 O138 2.349 . S
Tb120 O141 2.415 . S
Tb120 O142 2.399 . S
Tb121 O131 2.322 . S
Tb121 O132 2.349 . S
Tb121 O134 2.415 . S
Tb121 O135 2.399 . S
Tb121 O136 2.325 . S
Tb121 O139 2.303 . S
Tb121 C150 2.764 . S
C122 O138 1.261 . S
C122 O139 1.257 . S
C123 C126 1.358 . S
C123 C127 1.332 . S
C123 C129 1.504 . S
C124 C125 1.373 . S
C124 C128 1.308 . S
C125 C124 1.373 . S
C125 C126 1.429 . S
C125 H152 0.932 . S
C126 C123 1.358 . S
C126 C125 1.429 . S
C126 H153 0.930 . S
C127 C123 1.332 . S
C127 C128 1.394 . S
C127 H154 0.932 . S
C128 C124 1.308 . S
C128 C127 1.394 . S
C128 H155 0.929 . S
C129 Tb120 2.764 . S
C129 C123 1.504 . S
C129 O141 1.239 . S
C129 O142 1.263 . S
O130 Tb120 2.325 . S
O130 C140 1.236 . S
O131 Tb121 2.322 . S
O131 C140 1.257 . S
O132 Tb121 2.349 . S
O132 C143 1.261 . S
O133 Tb120 2.303 . S
O133 C143 1.257 . S
O134 Tb121 2.415 . S
O134 C150 1.239 . S
O135 Tb121 2.399 . S
O135 C150 1.263 . S
O136 Tb121 2.325 . S
O136 C151 1.236 . S
O137 Tb120 2.322 . S
O137 C151 1.257 . S
O138 Tb120 2.349 . S
O138 C122 1.261 . S
O139 Tb121 2.303 . S
O139 C122 1.257 . S
C140 O130 1.236 . S
C140 O131 1.257 . S
O141 Tb120 2.415 . S
O141 C129 1.239 . S
O142 Tb120 2.399 . S
O142 C129 1.263 . S
C143 O132 1.261 . S
C143 O133 1.257 . S
C144 C147 1.358 . S
C144 C148 1.332 . S
C144 C150 1.504 . S
C145 C146 1.373 . S
C145 C149 1.308 . S
C146 C145 1.373 . S
C146 C147 1.429 . S
C146 H156 0.932 . S
C147 C144 1.358 . S
C147 C146 1.429 . S
C147 H157 0.930 . S
C148 C144 1.332 . S
C148 C149 1.394 . S
C148 H158 0.932 . S
C149 C145 1.308 . S
C149 C148 1.394 . S
C149 H159 0.929 . S
C150 Tb121 2.764 . S
C150 O134 1.239 . S
C150 O135 1.263 . S
C150 C144 1.504 . S
C151 O136 1.236 . S
C151 O137 1.257 . S
H152 C125 0.932 . S
H153 C126 0.930 . S
H154 C127 0.932 . S
H155 C128 0.929 . S
H156 C146 0.932 . S
H157 C147 0.930 . S
H158 C148 0.932 . S
H159 C149 0.929 . S
Tb160 C169 2.764 . S
Tb160 O170 2.325 . S
Tb160 O173 2.303 . S
Tb160 O177 2.322 . S
Tb160 O178 2.349 . S
Tb160 O181 2.415 . S
Tb160 O182 2.399 . S
Tb161 O171 2.322 . S
Tb161 O172 2.349 . S
Tb161 O174 2.415 . S
Tb161 O175 2.399 . S
Tb161 O176 2.325 . S
Tb161 O179 2.303 . S
Tb161 C190 2.764 . S
C162 O178 1.261 . S
C162 O179 1.257 . S
C163 C166 1.358 . S
C163 C167 1.332 . S
C163 C169 1.504 . S
C164 C165 1.373 . S
C164 C168 1.308 . S
C165 C164 1.373 . S
C165 C166 1.429 . S
C165 H192 0.932 . S
C166 C163 1.358 . S
C166 C165 1.429 . S
C166 H193 0.930 . S
C167 C163 1.332 . S
C167 C168 1.394 . S
C167 H194 0.932 . S
C168 C164 1.308 . S
C168 C167 1.394 . S
C168 H195 0.929 . S
C169 Tb160 2.764 . S
C169 C163 1.504 . S
C169 O181 1.239 . S
C169 O182 1.263 . S
O170 Tb160 2.325 . S
O170 C180 1.236 . S
O171 Tb161 2.322 . S
O171 C180 1.257 . S
O172 Tb161 2.349 . S
O172 C183 1.261 . S
O173 Tb160 2.303 . S
O173 C183 1.257 . S
O174 Tb161 2.415 . S
O174 C190 1.239 . S
O175 Tb161 2.399 . S
O175 C190 1.263 . S
O176 Tb161 2.325 . S
O176 C191 1.236 . S
O177 Tb160 2.322 . S
O177 C191 1.257 . S
O178 Tb160 2.349 . S
O178 C162 1.261 . S
O179 Tb161 2.303 . S
O179 C162 1.257 . S
C180 O170 1.236 . S
C180 O171 1.257 . S
O181 Tb160 2.415 . S
O181 C169 1.239 . S
O182 Tb160 2.399 . S
O182 C169 1.263 . S
C183 O172 1.261 . S
C183 O173 1.257 . S
C184 C187 1.358 . S
C184 C188 1.332 . S
C184 C190 1.504 . S
C185 C186 1.373 . S
C185 C189 1.308 . S
C186 C185 1.373 . S
C186 C187 1.429 . S
C186 H196 0.932 . S
C187 C184 1.358 . S
C187 C186 1.429 . S
C187 H197 0.930 . S
C188 C184 1.332 . S
C188 C189 1.394 . S
C188 H198 0.932 . S
C189 C185 1.308 . S
C189 C188 1.394 . S
C189 H199 0.929 . S
C190 Tb161 2.764 . S
C190 O174 1.239 . S
C190 O175 1.263 . S
C190 C184 1.504 . S
C191 O176 1.236 . S
C191 O177 1.257 . S
H192 C165 0.932 . S
H193 C166 0.930 . S
H194 C167 0.932 . S
H195 C168 0.929 . S
H196 C186 0.932 . S
H197 C187 0.930 . S
H198 C188 0.932 . S
H199 C189 0.929 . S
Tb200 C209 2.764 . S
Tb200 O210 2.325 . S
Tb200 O213 2.303 . S
Tb200 O217 2.322 . S
Tb200 O218 2.349 . S
Tb200 O221 2.415 . S
Tb200 O222 2.399 . S
Tb201 O211 2.322 . S
Tb201 O212 2.349 . S
Tb201 O214 2.415 . S
Tb201 O215 2.399 . S
Tb201 O216 2.325 . S
Tb201 O219 2.303 . S
Tb201 C230 2.764 . S
C202 O218 1.261 . S
C202 O219 1.257 . S
C203 C206 1.358 . S
C203 C207 1.332 . S
C203 C209 1.504 . S
C204 C205 1.373 . S
C204 C208 1.308 . S
C205 C204 1.373 . S
C205 C206 1.429 . S
C205 H232 0.932 . S
C206 C203 1.358 . S
C206 C205 1.429 . S
C206 H233 0.930 . S
C207 C203 1.332 . S
C207 C208 1.394 . S
C207 H234 0.932 . S
C208 C204 1.308 . S
C208 C207 1.394 . S
C208 H235 0.929 . S
C209 Tb200 2.764 . S
C209 C203 1.504 . S
C209 O221 1.239 . S
C209 O222 1.263 . S
O210 Tb200 2.325 . S
O210 C220 1.236 . S
O211 Tb201 2.322 . S
O211 C220 1.257 . S
O212 Tb201 2.349 . S
O212 C223 1.261 . S
O213 Tb200 2.303 . S
O213 C223 1.257 . S
O214 Tb201 2.415 . S
O214 C230 1.239 . S
O215 Tb201 2.399 . S
O215 C230 1.263 . S
O216 Tb201 2.325 . S
O216 C231 1.236 . S
O217 Tb200 2.322 . S
O217 C231 1.257 . S
O218 Tb200 2.349 . S
O218 C202 1.261 . S
O219 Tb201 2.303 . S
O219 C202 1.257 . S
C220 O210 1.236 . S
C220 O211 1.257 . S
O221 Tb200 2.415 . S
O221 C209 1.239 . S
O222 Tb200 2.399 . S
O222 C209 1.263 . S
C223 O212 1.261 . S
C223 O213 1.257 . S
C224 C227 1.358 . S
C224 C228 1.332 . S
C224 C230 1.504 . S
C225 C226 1.373 . S
C225 C229 1.308 . S
C226 C225 1.373 . S
C226 C227 1.429 . S
C226 H236 0.932 . S
C227 C224 1.358 . S
C227 C226 1.429 . S
C227 H237 0.930 . S
C228 C224 1.332 . S
C228 C229 1.394 . S
C228 H238 0.932 . S
C229 C225 1.308 . S
C229 C228 1.394 . S
C229 H239 0.929 . S
C230 Tb201 2.764 . S
C230 O214 1.239 . S
C230 O215 1.263 . S
C230 C224 1.504 . S
C231 O216 1.236 . S
C231 O217 1.257 . S
H232 C205 0.932 . S
H233 C206 0.930 . S
H234 C207 0.932 . S
H235 C208 0.929 . S
H236 C226 0.932 . S
H237 C227 0.930 . S
H238 C228 0.932 . S
H239 C229 0.929 . S
Tb240 C249 2.764 . S
Tb240 O250 2.325 . S
Tb240 O253 2.303 . S
Tb240 O257 2.322 . S
Tb240 O258 2.349 . S
Tb240 O261 2.415 . S
Tb240 O262 2.399 . S
Tb241 O251 2.322 . S
Tb241 O252 2.349 . S
Tb241 O254 2.415 . S
Tb241 O255 2.399 . S
Tb241 O256 2.325 . S
Tb241 O259 2.303 . S
Tb241 C270 2.764 . S
C242 O258 1.261 . S
C242 O259 1.257 . S
C243 C246 1.358 . S
C243 C247 1.332 . S
C243 C249 1.504 . S
C244 C245 1.373 . S
C244 C248 1.308 . S
C245 C244 1.373 . S
C245 C246 1.429 . S
C245 H272 0.932 . S
C246 C243 1.358 . S
C246 C245 1.429 . S
C246 H273 0.930 . S
C247 C243 1.332 . S
C247 C248 1.394 . S
C247 H274 0.932 . S
C248 C244 1.308 . S
C248 C247 1.394 . S
C248 H275 0.929 . S
C249 Tb240 2.764 . S
C249 C243 1.504 . S
C249 O261 1.239 . S
C249 O262 1.263 . S
O250 Tb240 2.325 . S
O250 C260 1.236 . S
O251 Tb241 2.322 . S
O251 C260 1.257 . S
O252 Tb241 2.349 . S
O252 C263 1.261 . S
O253 Tb240 2.303 . S
O253 C263 1.257 . S
O254 Tb241 2.415 . S
O254 C270 1.239 . S
O255 Tb241 2.399 . S
O255 C270 1.263 . S
O256 Tb241 2.325 . S
O256 C271 1.236 . S
O257 Tb240 2.322 . S
O257 C271 1.257 . S
O258 Tb240 2.349 . S
O258 C242 1.261 . S
O259 Tb241 2.303 . S
O259 C242 1.257 . S
C260 O250 1.236 . S
C260 O251 1.257 . S
O261 Tb240 2.415 . S
O261 C249 1.239 . S
O262 Tb240 2.399 . S
O262 C249 1.263 . S
C263 O252 1.261 . S
C263 O253 1.257 . S
C264 C267 1.358 . S
C264 C268 1.332 . S
C264 C270 1.504 . S
C265 C266 1.373 . S
C265 C269 1.308 . S
C266 C265 1.373 . S
C266 C267 1.429 . S
C266 H276 0.932 . S
C267 C264 1.358 . S
C267 C266 1.429 . S
C267 H277 0.930 . S
C268 C264 1.332 . S
C268 C269 1.394 . S
C268 H278 0.932 . S
C269 C265 1.308 . S
C269 C268 1.394 . S
C269 H279 0.929 . S
C270 Tb241 2.764 . S
C270 O254 1.239 . S
C270 O255 1.263 . S
C270 C264 1.504 . S
C271 O256 1.236 . S
C271 O257 1.257 . S
H272 C245 0.932 . S
H273 C246 0.930 . S
H274 C247 0.932 . S
H275 C248 0.929 . S
H276 C266 0.932 . S
H277 C267 0.930 . S
H278 C268 0.932 . S
H279 C269 0.929 . S
Tb280 C289 2.764 . S
Tb280 O290 2.325 . S
Tb280 O293 2.303 . S
Tb280 O297 2.322 . S
Tb280 O298 2.349 . S
Tb280 O301 2.415 . S
Tb280 O302 2.399 . S
Tb281 O291 2.322 . S
Tb281 O292 2.349 . S
Tb281 O294 2.415 . S
Tb281 O295 2.399 . S
Tb281 O296 2.325 . S
Tb281 O299 2.303 . S
Tb281 C310 2.764 . S
C282 O298 1.261 . S
C282 O299 1.257 . S
C283 C286 1.358 . S
C283 C287 1.332 . S
C283 C289 1.504 . S
C284 C285 1.373 . S
C284 C288 1.308 . S
C285 C284 1.373 . S
C285 C286 1.429 . S
C285 H312 0.932 . S
C286 C283 1.358 . S
C286 C285 1.429 . S
C286 H313 0.930 . S
C287 C283 1.332 . S
C287 C288 1.394 . S
C287 H314 0.932 . S
C288 C284 1.308 . S
C288 C287 1.394 . S
C288 H315 0.929 . S
C289 Tb280 2.764 . S
C289 C283 1.504 . S
C289 O301 1.239 . S
C289 O302 1.263 . S
O290 Tb280 2.325 . S
O290 C300 1.236 . S
O291 Tb281 2.322 . S
O291 C300 1.257 . S
O292 Tb281 2.349 . S
O292 C303 1.261 . S
O293 Tb280 2.303 . S
O293 C303 1.257 . S
O294 Tb281 2.415 . S
O294 C310 1.239 . S
O295 Tb281 2.399 . S
O295 C310 1.263 . S
O296 Tb281 2.325 . S
O296 C311 1.236 . S
O297 Tb280 2.322 . S
O297 C311 1.257 . S
O298 Tb280 2.349 . S
O298 C282 1.261 . S
O299 Tb281 2.303 . S
O299 C282 1.257 . S
C300 O290 1.236 . S
C300 O291 1.257 . S
O301 Tb280 2.415 . S
O301 C289 1.239 . S
O302 Tb280 2.399 . S
O302 C289 1.263 . S
C303 O292 1.261 . S
C303 O293 1.257 . S
C304 C307 1.358 . S
C304 C308 1.332 . S
C304 C310 1.504 . S
C305 C306 1.373 . S
C305 C309 1.308 . S
C306 C305 1.373 . S
C306 C307 1.429 . S
C306 H316 0.932 . S
C307 C304 1.358 . S
C307 C306 1.429 . S
C307 H317 0.930 . S
C308 C304 1.332 . S
C308 C309 1.394 . S
C308 H318 0.932 . S
C309 C305 1.308 . S
C309 C308 1.394 . S
C309 H319 0.929 . S
C310 Tb281 2.764 . S
C310 O294 1.239 . S
C310 O295 1.263 . S
C310 C304 1.504 . S
C311 O296 1.236 . S
C311 O297 1.257 . S
H312 C285 0.932 . S
H313 C286 0.930 . S
H314 C287 0.932 . S
H315 C288 0.929 . S
H316 C306 0.932 . S
H317 C307 0.930 . S
H318 C308 0.932 . S
H319 C309 0.929 . S
Fe320 O321 1.886 1_455 S
Fe320 O324 1.715 . S
Fe320 O329 2.077 1_455 S
Fe320 O334 1.935 . S
Fe320 O340 2.077 1_455 S
Fe320 O349 1.935 . S
O321 Fe320 1.886 1_655 S
O321 Fe323 1.715 . S
Fe322 O324 1.886 . S
Fe322 O325 1.715 1_545 S
Fe322 O332 1.935 . S
Fe322 O333 2.077 . S
Fe322 O339 1.935 . S
Fe322 O348 2.077 . S
Fe323 O321 1.715 . S
Fe323 O326 1.886 1_545 S
Fe323 O330 1.935 . S
Fe323 O335 2.077 1_545 S
Fe323 O341 1.935 . S
Fe323 O345 2.077 1_545 S
O324 Fe320 1.715 . S
O324 Fe322 1.886 . S
O325 Fe322 1.715 1_565 S
O325 Fe327 1.886 . S
O326 Fe323 1.886 1_565 S
O326 Fe327 1.715 1_655 S
Fe327 O325 1.886 . S
Fe327 O326 1.715 1_455 S
Fe327 O331 2.077 . S
Fe327 O336 1.935 1_455 S
Fe327 O338 2.077 . S
Fe327 O346 1.935 1_455 S
C328 O340 1.381 . S
C328 O341 1.421 . S
O329 Fe320 2.077 1_655 S
O329 C342 1.381 . S
O330 Fe323 1.935 . S
O330 C342 1.421 . S
O331 Fe327 2.077 . S
O331 C347 1.381 . S
O332 Fe322 1.935 . S
O332 C347 1.421 1_545 S
O333 Fe322 2.077 . S
O333 C337 1.381 . S
O334 Fe320 1.935 . S
O334 C337 1.421 . S
O335 Fe323 2.077 1_565 S
O335 C343 1.381 . S
O336 Fe327 1.935 1_655 S
O336 C343 1.421 . S
C337 O333 1.381 . S
C337 O334 1.421 . S
O338 Fe327 2.077 . S
O338 C350 1.381 . S
O339 Fe322 1.935 . S
O339 C350 1.421 1_545 S
O340 Fe320 2.077 1_655 S
O340 C328 1.381 . S
O341 Fe323 1.935 . S
O341 C328 1.421 . S
C342 O329 1.381 . S
C342 O330 1.421 . S
C343 O335 1.381 . S
C343 O336 1.421 . S
C344 O345 1.381 . S
C344 O346 1.421 . S
O345 Fe323 2.077 1_565 S
O345 C344 1.381 . S
O346 Fe327 1.935 1_655 S
O346 C344 1.421 . S
C347 O331 1.381 . S
C347 O332 1.421 1_565 S
O348 Fe322 2.077 . S
O348 C351 1.381 . S
O349 Fe320 1.935 . S
O349 C351 1.421 . S
C350 O338 1.381 . S
C350 O339 1.421 1_565 S
C351 O348 1.381 . S
C351 O349 1.421 . S
Fe352 O353 1.886 1_565 S
Fe352 O356 1.715 . S
Fe352 O361 2.077 . S
Fe352 O366 1.935 . S
Fe352 O372 2.077 . S
Fe352 O381 1.935 . S
O353 Fe352 1.886 1_545 S
O353 Fe355 1.715 . S
Fe354 O356 1.886 1_545 S
Fe354 O357 1.715 . S
Fe354 O364 1.935 . S
Fe354 O365 2.077 1_545 S
Fe354 O371 1.935 . S
Fe354 O380 2.077 1_545 S
Fe355 O353 1.715 . S
Fe355 O358 1.886 . S
Fe355 O362 1.935 . S
Fe355 O367 2.077 . S
Fe355 O373 1.935 . S
Fe355 O377 2.077 . S
O356 Fe352 1.715 . S
O356 Fe354 1.886 1_565 S
O357 Fe354 1.715 . S
O357 Fe359 1.886 . S
O358 Fe355 1.886 . S
O358 Fe359 1.715 . S
Fe359 O357 1.886 . S
Fe359 O358 1.715 . S
Fe359 O363 2.077 . S
Fe359 O368 1.935 . S
Fe359 O370 2.077 . S
Fe359 O378 1.935 . S
C360 O372 1.381 . S
C360 O373 1.421 1_565 S
O361 Fe352 2.077 . S
O361 C374 1.382 . S
O362 Fe355 1.935 . S
O362 C374 1.421 1_545 S
O363 Fe359 2.077 . S
O363 C379 1.381 1_554 S
O364 Fe354 1.935 . S
O364 C379 1.421 1_554 S
O365 Fe354 2.077 1_565 S
O365 C369 1.381 1_554 S
O366 Fe352 1.935 . S
O366 C369 1.421 1_554 S
O367 Fe355 2.077 . S
O367 C375 1.381 1_554 S
O368 Fe359 1.935 . S
O368 C375 1.421 1_554 S
C369 O365 1.381 1_556 S
C369 O366 1.421 1_556 S
O370 Fe359 2.077 . S
O370 C382 1.381 . S
O371 Fe354 1.935 . S
O371 C382 1.421 . S
O372 Fe352 2.077 . S
O372 C360 1.381 . S
O373 Fe355 1.935 . S
O373 C360 1.421 1_545 S
C374 O361 1.382 . S
C374 O362 1.421 1_565 S
C375 O367 1.381 1_556 S
C375 O368 1.421 1_556 S
C376 O377 1.381 . S
C376 O378 1.421 . S
O377 Fe355 2.077 . S
O377 C376 1.381 . S
O378 Fe359 1.935 . S
O378 C376 1.421 . S
C379 O363 1.381 1_556 S
C379 O364 1.421 1_556 S
O380 Fe354 2.077 1_565 S
O380 C383 1.381 . S
O381 Fe352 1.935 . S
O381 C383 1.421 . S
C382 O370 1.381 . S
C382 O371 1.421 . S
C383 O380 1.381 . S
C383 O381 1.421 . S
Fe384 O385 1.886 1_455 S
Fe384 O388 1.715 1_556 S
Fe384 O393 2.077 1_455 S
Fe384 O398 1.935 . S
Fe384 O404 2.077 1_456 S
Fe384 O413 1.935 1_556 S
O385 Fe384 1.886 1_655 S
O385 Fe387 1.715 . S
Fe386 O388 1.886 . S
Fe386 O389 1.715 . S
Fe386 O396 1.935 1_554 S
Fe386 O397 2.077 1_554 S
Fe386 O403 1.935 . S
Fe386 O412 2.077 . S
Fe387 O385 1.715 . S
Fe387 O390 1.886 1_556 S
Fe387 O394 1.935 . S
Fe387 O399 2.077 . S
Fe387 O405 1.935 1_556 S
Fe387 O409 2.077 1_556 S
O388 Fe384 1.715 1_554 S
O388 Fe386 1.886 . S
O389 Fe386 1.715 . S
O389 Fe391 1.886 1_455 S
O390 Fe387 1.886 1_554 S
O390 Fe391 1.715 . S
Fe391 O389 1.886 1_655 S
Fe391 O390 1.715 . S
Fe391 O395 2.077 1_654 S
Fe391 O400 1.935 1_554 S
Fe391 O402 2.077 1_655 S
Fe391 O410 1.935 . S
C392 O404 1.381 . S
C392 O405 1.421 . S
O393 Fe384 2.077 1_655 S
O393 C406 1.381 . S
O394 Fe387 1.935 . S
O394 C406 1.421 . S
O395 Fe391 2.077 1_456 S
O395 C411 1.381 . S
O396 Fe386 1.935 1_556 S
O396 C411 1.421 . S
O397 Fe386 2.077 1_556 S
O397 C401 1.381 . S
O398 Fe384 1.935 . S
O398 C401 1.421 . S
O399 Fe387 2.077 . S
O399 C407 1.381 . S
O400 Fe391 1.935 1_556 S
O400 C407 1.421 . S
C401 O397 1.381 . S
C401 O398 1.421 . S
O402 Fe391 2.077 1_455 S
O402 C414 1.381 . S
O403 Fe386 1.935 . S
O403 C414 1.421 . S
O404 Fe384 2.077 1_654 S
O404 C392 1.381 . S
O405 Fe387 1.935 1_554 S
O405 C392 1.421 . S
C406 O393 1.381 . S
C406 O394 1.421 . S
C407 O399 1.381 . S
C407 O400 1.421 . S
C408 O409 1.381 . S
C408 O410 1.421 . S
O409 Fe387 2.077 1_554 S
O409 C408 1.381 . S
O410 Fe391 1.935 . S
O410 C408 1.421 . S
C411 O395 1.381 . S
C411 O396 1.421 . S
O412 Fe386 2.077 . S
O412 C415 1.381 . S
O413 Fe384 1.935 1_554 S
O413 C415 1.421 . S
C414 O402 1.381 . S
C414 O403 1.421 . S
C415 O412 1.381 . S
C415 O413 1.421 . S
Fe416 O417 1.886 . S
Fe416 O420 1.715 . S
Fe416 O425 2.077 . S
Fe416 O430 1.935 . S
Fe416 O436 2.077 . S
Fe416 O445 1.935 . S
O417 Fe416 1.886 . S
O417 Fe419 1.715 1_556 S
Fe418 O420 1.886 1_554 S
Fe418 O421 1.715 . S
Fe418 O428 1.935 . S
Fe418 O429 2.077 1_554 S
Fe418 O435 1.935 . S
Fe418 O444 2.077 1_554 S
Fe419 O417 1.715 1_554 S
Fe419 O422 1.886 . S
Fe419 O426 1.945 . S
Fe419 O431 2.077 . S
Fe419 O437 1.935 . S
Fe419 O441 2.077 . S
O420 Fe416 1.715 . S
O420 Fe418 1.886 1_556 S
O421 Fe418 1.715 . S
O421 Fe423 1.886 . S
O422 Fe419 1.886 . S
O422 Fe423 1.715 . S
Fe423 O421 1.886 . S
Fe423 O422 1.715 . S
Fe423 O427 2.077 . S
Fe423 O432 1.935 . S
Fe423 O434 2.077 . S
Fe423 O442 1.935 . S
C424 O436 1.381 . S
C424 O437 1.421 1_556 S
O425 Fe416 2.077 . S
O425 C438 1.381 . S
O426 Fe419 1.945 . S
O426 C438 1.404 1_554 S
O427 Fe423 2.077 . S
O427 C443 1.381 . S
O428 Fe418 1.935 . S
O428 C443 1.421 . S
O429 Fe418 2.077 1_556 S
O429 C433 1.381 . S
O430 Fe416 1.935 . S
O430 C433 1.421 . S
O431 Fe419 2.077 . S
O431 C439 1.381 . S
O432 Fe423 1.935 . S
O432 C439 1.421 . S
C433 O429 1.381 . S
C433 O430 1.421 . S
O434 Fe423 2.077 . S
O434 C446 1.381 . S
O435 Fe418 1.935 . S
O435 C446 1.421 . S
O436 Fe416 2.077 . S
O436 C424 1.381 . S
O437 Fe419 1.935 . S
O437 C424 1.421 1_554 S
C438 O425 1.381 . S
C438 O426 1.404 1_556 S
C439 O431 1.381 . S
C439 O432 1.421 . S
C440 O441 1.381 . S
C440 O442 1.421 . S
O441 Fe419 2.077 . S
O441 C440 1.381 . S
O442 Fe423 1.935 . S
O442 C440 1.421 . S
C443 O427 1.381 . S
C443 O428 1.421 . S
O444 Fe418 2.077 1_556 S
O444 C447 1.381 . S
O445 Fe416 1.935 . S
O445 C447 1.421 . S
C446 O434 1.381 . S
C446 O435 1.421 . S
C447 O444 1.381 . S
C447 O445 1.421 . S
Fe448 O449 1.886 . S
Fe448 O452 1.715 . S
Fe448 O457 2.077 . S
Fe448 O462 1.935 . S
Fe448 O468 2.077 1_455 S
Fe448 O477 1.935 1_455 S
O449 Fe448 1.886 . S
O449 Fe451 1.715 . S
Fe450 O452 1.886 . S
Fe450 O453 1.715 . S
Fe450 O460 1.935 . S
Fe450 O461 2.077 . S
Fe450 O467 1.935 1_455 S
Fe450 O476 2.077 1_455 S
Fe451 O449 1.715 . S
Fe451 O454 1.886 . S
Fe451 O458 1.935 . S
Fe451 O463 2.077 . S
Fe451 O469 1.935 1_455 S
Fe451 O473 2.077 . S
O452 Fe448 1.715 . S
O452 Fe450 1.886 . S
O453 Fe450 1.715 . S
O453 Fe455 1.886 . S
O454 Fe451 1.886 . S
O454 Fe455 1.715 . S
Fe455 O453 1.886 . S
Fe455 O454 1.715 . S
Fe455 O459 2.077 . S
Fe455 O464 1.935 . S
Fe455 O466 2.077 . S
Fe455 O474 1.935 . S
C456 O468 1.381 . S
C456 O469 1.421 . S
O457 Fe448 2.077 . S
O457 C470 1.381 . S
O458 Fe451 1.935 . S
O458 C470 1.421 . S
O459 Fe455 2.077 . S
O459 C475 1.381 . S
O460 Fe450 1.935 . S
O460 C475 1.421 . S
O461 Fe450 2.077 . S
O461 C465 1.381 . S
O462 Fe448 1.935 . S
O462 C465 1.421 . S
O463 Fe451 2.077 . S
O463 C471 1.381 . S
O464 Fe455 1.935 . S
O464 C471 1.421 . S
C465 O461 1.381 . S
C465 O462 1.421 . S
O466 Fe455 2.077 . S
O466 C478 1.381 1_455 S
O467 Fe450 1.935 1_655 S
O467 C478 1.421 . S
O468 Fe448 2.077 1_655 S
O468 C456 1.381 . S
O469 Fe451 1.935 1_655 S
O469 C456 1.421 . S
C470 O457 1.381 . S
C470 O458 1.421 . S
C471 O463 1.381 . S
C471 O464 1.421 . S
C472 O473 1.381 1_655 S
C472 O474 1.421 1_655 S
O473 Fe451 2.077 . S
O473 C472 1.381 1_455 S
O474 Fe455 1.935 . S
O474 C472 1.421 1_455 S
C475 O459 1.381 . S
C475 O460 1.421 . S
O476 Fe450 2.077 1_655 S
O476 C479 1.381 . S
O477 Fe448 1.935 1_655 S
O477 C479 1.421 . S
C478 O466 1.381 1_655 S
C478 O467 1.421 . S
C479 O476 1.381 . S
C479 O477 1.421 . S
Fe480 O481 1.886 . S
Fe480 O484 1.715 . S
Fe480 O489 2.077 . S
Fe480 O494 1.935 . S
Fe480 O500 2.077 . S
Fe480 O509 1.935 . S
O481 Fe480 1.886 . S
O481 Fe483 1.715 1_565 S
Fe482 O484 1.886 1_545 S
Fe482 O485 1.715 . S
Fe482 O492 1.935 . S
Fe482 O493 2.077 1_545 S
Fe482 O499 1.935 . S
Fe482 O508 2.077 1_545 S
Fe483 O481 1.715 1_545 S
Fe483 O486 1.886 . S
Fe483 O490 1.935 1_545 S
Fe483 O495 2.077 . S
Fe483 O501 1.935 1_545 S
Fe483 O505 2.077 . S
O484 Fe480 1.715 . S
O484 Fe482 1.886 1_565 S
O485 Fe482 1.715 . S
O485 Fe487 1.886 . S
O486 Fe483 1.886 . S
O486 Fe487 1.715 . S
Fe487 O485 1.886 . S
Fe487 O486 1.715 . S
Fe487 O491 2.077 . S
Fe487 O496 1.935 . S
Fe487 O498 2.077 . S
Fe487 O506 1.935 . S
C488 O500 1.381 . S
C488 O501 1.421 . S
O489 Fe480 2.077 . S
O489 C502 1.381 . S
O490 Fe483 1.935 1_565 S
O490 C502 1.421 . S
O491 Fe487 2.077 . S
O491 C507 1.381 . S
O492 Fe482 1.935 . S
O492 C507 1.421 . S
O493 Fe482 2.077 1_565 S
O493 C497 1.381 . S
O494 Fe480 1.935 . S
O494 C497 1.421 . S
O495 Fe483 2.077 . S
O495 C503 1.381 . S
O496 Fe487 1.935 . S
O496 C503 1.421 . S
C497 O493 1.381 . S
C497 O494 1.421 . S
O498 Fe487 2.077 . S
O498 C510 1.381 . S
O499 Fe482 1.935 . S
O499 C510 1.421 . S
O500 Fe480 2.077 . S
O500 C488 1.381 . S
O501 Fe483 1.935 1_565 S
O501 C488 1.421 . S
C502 O489 1.381 . S
C502 O490 1.421 . S
C503 O495 1.381 . S
C503 O496 1.421 . S
C504 O505 1.381 . S
C504 O506 1.421 . S
O505 Fe483 2.077 . S
O505 C504 1.381 . S
O506 Fe487 1.935 . S
O506 C504 1.421 . S
C507 O491 1.381 . S
C507 O492 1.421 . S
O508 Fe482 2.077 1_565 S
O508 C511 1.381 . S
O509 Fe480 1.935 . S
O509 C511 1.421 . S
C510 O498 1.381 . S
C510 O499 1.421 . S
C511 O508 1.381 . S
C511 O509 1.421 . S
C512 C513 1.387 . S
C512 H516 0.950 . S
C512 C521 1.390 . S
C513 C512 1.387 . S
C513 C515 1.387 . S
H514 C521 0.950 . S
C515 C513 1.387 . S
C515 C517 1.390 . S
C515 H519 0.950 . S
H516 C512 0.950 . S
C517 C515 1.390 . S
C517 C518 1.387 . S
C517 H520 0.950 . S
C518 C517 1.387 . S
C518 C521 1.387 . S
H519 C515 0.950 . S
H520 C517 0.950 . S
C521 C512 1.390 . S
C521 H514 0.950 . S
C521 C518 1.387 . S
C522 C523 1.387 . S
C522 H526 0.950 . S
C522 C531 1.390 . S
C523 C522 1.387 . S
C523 C525 1.387 . S
H524 C531 0.950 . S
C525 C523 1.387 . S
C525 C527 1.390 . S
C525 H529 0.950 . S
H526 C522 0.950 . S
C527 C525 1.390 . S
C527 C528 1.387 . S
C527 H530 0.950 . S
C528 C527 1.387 . S
C528 C531 1.387 . S
H529 C525 0.950 . S
H530 C527 0.950 . S
C531 C522 1.390 . S
C531 H524 0.950 . S
C531 C528 1.387 . S
C532 C533 1.387 . S
C532 H536 0.950 . S
C532 C541 1.390 . S
C533 C532 1.387 . S
C533 C535 1.387 . S
H534 C541 0.950 . S
C535 C533 1.387 . S
C535 C537 1.390 . S
C535 H539 0.950 . S
H536 C532 0.950 . S
C537 C535 1.390 . S
C537 C538 1.387 . S
C537 H540 0.950 . S
C538 C537 1.387 . S
C538 C541 1.387 . S
H539 C535 0.950 . S
H540 C537 0.950 . S
C541 C532 1.390 . S
C541 H534 0.950 . S
C541 C538 1.387 . S
C542 C543 1.387 . S
C542 H546 0.950 1_565 S
C542 C551 1.390 . S
C543 C542 1.387 . S
C543 C545 1.387 . S
H544 C551 0.950 1_545 S
C545 C543 1.387 . S
C545 C547 1.390 . S
C545 H549 0.950 . S
H546 C542 0.950 1_545 S
C547 C545 1.390 . S
C547 C548 1.387 . S
C547 H550 0.950 . S
C548 C547 1.387 . S
C548 C551 1.387 . S
H549 C545 0.950 . S
H550 C547 0.950 . S
C551 C542 1.390 . S
C551 H544 0.950 1_565 S
C551 C548 1.387 . S
C552 C553 1.387 . S
C552 H556 0.950 . S
C552 C561 1.390 . S
C553 C552 1.387 . S
C553 C555 1.387 . S
H554 C561 0.950 . S
C555 C553 1.387 . S
C555 C557 1.390 . S
C555 H559 0.950 . S
H556 C552 0.950 . S
C557 C555 1.390 . S
C557 C558 1.387 . S
C557 H560 0.950 . S
C558 C557 1.387 . S
C558 C561 1.387 . S
H559 C555 0.950 . S
H560 C557 0.950 . S
C561 C552 1.390 . S
C561 H554 0.950 . S
C561 C558 1.387 . S
C562 C563 1.387 . S
C562 H566 0.950 . S
C562 C571 1.390 . S
C563 C562 1.387 . S
C563 C565 1.387 . S
H564 C571 0.950 . S
C565 C563 1.387 . S
C565 C567 1.390 . S
C565 H569 0.950 . S
H566 C562 0.950 . S
C567 C565 1.390 . S
C567 C568 1.387 . S
C567 H570 0.950 . S
C568 C567 1.387 . S
C568 C571 1.387 . S
H569 C565 0.950 . S
H570 C567 0.950 . S
C571 C562 1.390 . S
C571 H564 0.950 . S
C571 C568 1.387 . S
C572 C573 1.387 . S
C572 H576 0.950 . S
C572 C581 1.390 . S
C573 C572 1.387 . S
C573 C575 1.387 . S
H574 C581 0.950 . S
C575 C573 1.387 . S
C575 C577 1.390 . S
C575 H579 0.950 . S
H576 C572 0.950 . S
C577 C575 1.390 . S
C577 C578 1.387 . S
C577 H580 0.950 . S
C578 C577 1.387 . S
C578 C581 1.387 . S
H579 C575 0.950 . S
H580 C577 0.950 . S
C581 C572 1.390 . S
C581 H574 0.950 . S
C581 C578 1.387 . S
C582 C583 1.387 . S
C582 H586 0.950 . S
C582 C591 1.390 . S
C583 C582 1.387 . S
C583 C585 1.387 . S
H584 C591 0.950 . S
C585 C583 1.387 . S
C585 C587 1.390 . S
C585 H589 0.950 . S
H586 C582 0.950 . S
C587 C585 1.390 . S
C587 C588 1.387 . S
C587 H590 0.950 . S
C588 C587 1.387 . S
C588 C591 1.387 . S
H589 C585 0.950 . S
H590 C587 0.950 . S
C591 C582 1.390 . S
C591 H584 0.950 . S
C591 C588 1.387 . S
C592 C593 1.387 . S
C592 H596 0.950 . S
C592 C601 1.390 . S
C593 C592 1.387 . S
C593 C595 1.387 . S
H594 C601 0.950 . S
C595 C593 1.387 . S
C595 C597 1.390 . S
C595 H599 0.950 . S
H596 C592 0.950 . S
C597 C595 1.390 . S
C597 C598 1.387 . S
C597 H600 0.950 . S
C598 C597 1.387 . S
C598 C601 1.387 . S
H599 C595 0.950 . S
H600 C597 0.950 . S
C601 C592 1.390 . S
C601 H594 0.950 . S
C601 C598 1.387 . S
C602 C603 1.387 . S
C602 H606 0.950 . S
C602 C611 1.390 . S
C603 C602 1.387 . S
C603 C605 1.387 . S
H604 C611 0.950 . S
C605 C603 1.387 . S
C605 C607 1.390 . S
C605 H609 0.950 . S
H606 C602 0.950 . S
C607 C605 1.390 . S
C607 C608 1.387 . S
C607 H610 0.950 . S
C608 C607 1.387 . S
C608 C611 1.387 . S
H609 C605 0.950 . S
H610 C607 0.950 . S
C611 C602 1.390 . S
C611 H604 0.950 . S
C611 C608 1.387 . S
C612 C613 1.387 . S
C612 H616 0.950 . S
C612 C621 1.390 . S
C613 C612 1.387 . S
C613 C615 1.387 . S
H614 C621 0.950 . S
C615 C613 1.387 . S
C615 C617 1.390 . S
C615 H619 0.950 . S
H616 C612 0.950 . S
C617 C615 1.390 . S
C617 C618 1.387 . S
C617 H620 0.950 . S
C618 C617 1.387 . S
C618 C621 1.387 . S
H619 C615 0.950 . S
H620 C617 0.950 . S
C621 C612 1.390 . S
C621 H614 0.950 . S
C621 C618 1.387 . S
C622 C623 1.387 . S
C622 H626 0.950 . S
C622 C631 1.390 . S
C623 C622 1.387 . S
C623 C625 1.387 . S
H624 C631 0.950 . S
C625 C623 1.387 . S
C625 C627 1.390 . S
C625 H629 0.950 . S
H626 C622 0.950 . S
C627 C625 1.390 . S
C627 C628 1.387 . S
C627 H630 0.950 . S
C628 C627 1.387 . S
C628 C631 1.387 . S
H629 C625 0.950 . S
H630 C627 0.950 . S
C631 C622 1.390 . S
C631 H624 0.950 . S
C631 C628 1.387 . S
C632 C633 1.387 . S
C632 H636 0.950 . S
C632 C641 1.390 . S
C633 C632 1.387 . S
C633 C635 1.387 . S
H634 C641 0.950 . S
C635 C633 1.387 . S
C635 C637 1.390 . S
C635 H639 0.950 . S
H636 C632 0.950 . S
C637 C635 1.390 . S
C637 C638 1.387 . S
C637 H640 0.950 . S
C638 C637 1.387 . S
C638 C641 1.387 . S
H639 C635 0.950 . S
H640 C637 0.950 . S
C641 C632 1.390 . S
C641 H634 0.950 . S
C641 C638 1.387 . S
C642 C643 1.387 . S
C642 H646 0.950 . S
C642 C651 1.390 . S
C643 C642 1.387 . S
C643 C645 1.387 . S
H644 C651 0.950 . S
C645 C643 1.387 . S
C645 C647 1.390 . S
C645 H649 0.950 . S
H646 C642 0.950 . S
C647 C645 1.390 . S
C647 C648 1.387 . S
C647 H650 0.950 . S
C648 C647 1.387 . S
C648 C651 1.387 . S
H649 C645 0.950 . S
H650 C647 0.950 . S
C651 C642 1.390 . S
C651 H644 0.950 . S
C651 C648 1.387 . S
C652 C653 1.387 . S
C652 H656 0.950 . S
C652 C661 1.390 . S
C653 C652 1.387 . S
C653 C655 1.387 . S
H654 C661 0.950 . S
C655 C653 1.387 . S
C655 C657 1.390 . S
C655 H659 0.950 . S
H656 C652 0.950 . S
C657 C655 1.390 . S
C657 C658 1.387 . S
C657 H660 0.950 . S
C658 C657 1.387 . S
C658 C661 1.387 . S
H659 C655 0.950 . S
H660 C657 0.950 . S
C661 C652 1.390 . S
C661 H654 0.950 . S
C661 C658 1.387 . S
C662 C663 1.387 . S
C662 H666 0.950 . S
C662 C671 1.390 . S
C663 C662 1.387 . S
C663 C665 1.387 . S
H664 C671 0.950 . S
C665 C663 1.387 . S
C665 C667 1.390 . S
C665 H669 0.950 . S
H666 C662 0.950 . S
C667 C665 1.390 . S
C667 C668 1.387 . S
C667 H670 0.950 . S
C668 C667 1.387 . S
C668 C671 1.387 . S
H669 C665 0.950 . S
H670 C667 0.950 . S
C671 C662 1.390 . S
C671 H664 0.950 . S
C671 C668 1.387 . S
C672 C673 1.387 . S
C672 H676 0.947 1_455 S
C672 C681 1.390 . S
C673 C672 1.387 . S
C673 C675 1.387 . S
H674 C681 0.950 . S
C675 C673 1.387 . S
C675 C677 1.390 . S
C675 H679 0.950 . S
H676 C672 0.947 1_655 S
C677 C675 1.390 . S
C677 C678 1.387 . S
C677 H680 0.950 . S
C678 C677 1.387 . S
C678 C681 1.387 . S
H679 C675 0.950 . S
H680 C677 0.950 . S
C681 C672 1.390 . S
C681 H674 0.950 . S
C681 C678 1.387 . S
C682 C683 1.387 . S
C682 H686 0.950 . S
C682 C691 1.390 . S
C683 C682 1.387 . S
C683 C685 1.387 . S
H684 C691 0.950 . S
C685 C683 1.387 . S
C685 C687 1.390 . S
C685 H689 0.950 . S
H686 C682 0.950 . S
C687 C685 1.390 . S
C687 C688 1.387 . S
C687 H690 0.950 . S
C688 C687 1.387 . S
C688 C691 1.387 . S
H689 C685 0.950 . S
H690 C687 0.950 . S
C691 C682 1.390 . S
C691 H684 0.950 . S
C691 C688 1.387 . S
C692 C693 1.387 . S
C692 H696 0.950 . S
C692 C701 1.390 . S
C693 C692 1.387 . S
C693 C695 1.387 . S
H694 C701 0.950 . S
C695 C693 1.387 . S
C695 C697 1.390 . S
C695 H699 0.950 . S
H696 C692 0.950 . S
C697 C695 1.390 . S
C697 C698 1.387 . S
C697 H700 0.950 . S
C698 C697 1.387 . S
C698 C701 1.387 . S
H699 C695 0.950 . S
H700 C697 0.950 . S
C701 C692 1.390 . S
C701 H694 0.950 . S
C701 C698 1.387 . S
C702 C703 1.387 . S
C702 H706 0.950 . S
C702 C711 1.390 . S
C703 C702 1.387 . S
C703 C705 1.387 . S
H704 C711 0.950 . S
C705 C703 1.387 . S
C705 C707 1.390 . S
C705 H709 0.950 . S
H706 C702 0.950 . S
C707 C705 1.390 . S
C707 C708 1.387 . S
C707 H710 0.950 . S
C708 C707 1.387 . S
C708 C711 1.387 . S
H709 C705 0.950 . S
H710 C707 0.950 . S
C711 C702 1.390 . S
C711 H704 0.950 . S
C711 C708 1.387 . S
C712 C713 1.387 1_545 S
C712 H716 0.950 . S
C712 C721 1.390 . S
C713 C712 1.387 1_565 S
C713 C715 1.387 . S
H714 C721 0.950 . S
C715 C713 1.387 . S
C715 C717 1.390 . S
C715 H719 0.950 . S
H716 C712 0.950 . S
C717 C715 1.390 . S
C717 C718 1.387 . S
C717 H720 0.950 . S
C718 C717 1.387 . S
C718 C721 1.387 1_565 S
H719 C715 0.950 . S
H720 C717 0.950 . S
C721 C712 1.390 . S
C721 H714 0.950 . S
C721 C718 1.387 1_545 S
C722 C723 1.387 . S
C722 H726 0.950 . S
C722 C731 1.390 . S
C723 C722 1.387 . S
C723 C725 1.387 . S
H724 C731 0.950 . S
C725 C723 1.387 . S
C725 C727 1.390 . S
C725 H729 0.950 . S
H726 C722 0.950 . S
C727 C725 1.390 . S
C727 C728 1.387 . S
C727 H730 0.950 . S
C728 C727 1.387 . S
C728 C731 1.387 . S
H729 C725 0.950 . S
H730 C727 0.950 . S
C731 C722 1.390 . S
C731 H724 0.950 . S
C731 C728 1.387 . S
C732 C733 1.387 . S
C732 H736 0.950 . S
C732 C741 1.390 . S
C733 C732 1.387 . S
C733 C735 1.387 . S
H734 C741 0.950 . S
C735 C733 1.387 . S
C735 C737 1.390 . S
C735 H739 0.950 . S
H736 C732 0.950 . S
C737 C735 1.390 . S
C737 C738 1.387 . S
C737 H740 0.950 . S
C738 C737 1.387 . S
C738 C741 1.387 . S
H739 C735 0.950 . S
H740 C737 0.950 . S
C741 C732 1.390 . S
C741 H734 0.950 . S
C741 C738 1.387 . S
C742 C743 1.387 . S
C742 H746 0.950 . S
C742 C751 1.390 . S
C743 C742 1.387 . S
C743 C745 1.387 . S
H744 C751 0.950 . S
C745 C743 1.387 . S
C745 C747 1.390 . S
C745 H749 0.950 . S
H746 C742 0.950 . S
C747 C745 1.390 . S
C747 C748 1.387 . S
C747 H750 0.950 . S
C748 C747 1.387 . S
C748 C751 1.387 . S
H749 C745 0.950 . S
H750 C747 0.950 . S
C751 C742 1.390 . S
C751 H744 0.950 . S
C751 C748 1.387 . S
C752 C753 1.387 . S
C752 H756 0.950 . S
C752 C761 1.390 . S
C753 C752 1.387 . S
C753 C755 1.387 . S
H754 C761 0.950 . S
C755 C753 1.387 . S
C755 C757 1.390 . S
C755 H759 0.950 . S
H756 C752 0.950 . S
C757 C755 1.390 . S
C757 C758 1.387 . S
C757 H760 0.950 . S
C758 C757 1.387 . S
C758 C761 1.387 . S
H759 C755 0.950 . S
H760 C757 0.950 . S
C761 C752 1.390 . S
C761 H754 0.950 . S
C761 C758 1.387 . S
C762 C763 1.387 . S
C762 H766 0.950 1_556 S
C762 C771 1.390 . S
C763 C762 1.387 . S
C763 C765 1.387 . S
H764 C771 0.950 1_554 S
C765 C763 1.387 . S
C765 C767 1.390 . S
C765 H769 0.950 . S
H766 C762 0.950 1_554 S
C767 C765 1.390 . S
C767 C768 1.387 . S
C767 H770 0.950 . S
C768 C767 1.387 . S
C768 C771 1.387 . S
H769 C765 0.950 . S
H770 C767 0.950 . S
C771 C762 1.390 . S
C771 H764 0.950 1_556 S
C771 C768 1.387 . S
C772 C773 1.387 . S
C772 H776 0.950 . S
C772 C781 1.390 . S
C773 C772 1.387 . S
C773 C775 1.387 . S
H774 C781 0.950 . S
C775 C773 1.387 . S
C775 C777 1.390 . S
C775 H779 0.950 . S
H776 C772 0.950 . S
C777 C775 1.390 . S
C777 C778 1.387 . S
C777 H780 0.950 . S
C778 C777 1.387 . S
C778 C781 1.387 . S
H779 C775 0.950 . S
H780 C777 0.950 . S
C781 C772 1.390 . S
C781 H774 0.950 . S
C781 C778 1.387 . S
C782 C783 1.387 . S
C782 H786 0.950 . S
C782 C791 1.390 . S
C783 C782 1.387 . S
C783 C785 1.387 . S
H784 C791 0.950 . S
C785 C783 1.387 . S
C785 C787 1.390 . S
C785 H789 0.950 . S
H786 C782 0.950 . S
C787 C785 1.390 . S
C787 C788 1.387 . S
C787 H790 0.950 . S
C788 C787 1.387 . S
C788 C791 1.387 . S
H789 C785 0.950 . S
H790 C787 0.950 . S
C791 C782 1.390 . S
C791 H784 0.950 . S
C791 C788 1.387 . S
C792 C793 1.387 . S
C792 H796 0.950 . S
C792 C801 1.390 . S
C793 C792 1.387 . S
C793 C795 1.387 . S
H794 C801 0.950 . S
C795 C793 1.387 . S
C795 C797 1.390 . S
C795 H799 0.950 . S
H796 C792 0.950 . S
C797 C795 1.390 . S
C797 C798 1.387 . S
C797 H800 0.950 . S
C798 C797 1.387 . S
C798 C801 1.387 . S
H799 C795 0.950 . S
H800 C797 0.950 . S
C801 C792 1.390 . S
C801 H794 0.950 . S
C801 C798 1.387 . S
C802 C803 1.387 . S
C802 H806 0.950 . S
C802 C811 1.390 . S
C803 C802 1.387 . S
C803 C805 1.387 . S
H804 C811 0.950 . S
C805 C803 1.387 . S
C805 C807 1.390 . S
C805 H809 0.950 . S
H806 C802 0.950 . S
C807 C805 1.390 . S
C807 C808 1.387 . S
C807 H810 0.950 . S
C808 C807 1.387 . S
C808 C811 1.387 . S
H809 C805 0.950 . S
H810 C807 0.950 . S
C811 C802 1.390 . S
C811 H804 0.950 . S
C811 C808 1.387 . S
C812 C813 1.387 . S
C812 H816 0.950 . S
C812 C821 1.390 . S
C813 C812 1.387 . S
C813 C815 1.387 . S
H814 C821 0.950 . S
C815 C813 1.387 . S
C815 C817 1.390 . S
C815 H819 0.950 . S
H816 C812 0.950 . S
C817 C815 1.390 . S
C817 C818 1.387 . S
C817 H820 0.950 . S
C818 C817 1.387 . S
C818 C821 1.387 . S
H819 C815 0.950 . S
H820 C817 0.950 . S
C821 C812 1.390 . S
C821 H814 0.950 . S
C821 C818 1.387 . S
C822 C823 1.387 . S
C822 H826 0.950 . S
C822 C831 1.390 . S
C823 C822 1.387 . S
C823 C825 1.387 . S
H824 C831 0.950 . S
C825 C823 1.387 . S
C825 C827 1.390 . S
C825 H829 0.950 . S
H826 C822 0.950 . S
C827 C825 1.390 . S
C827 C828 1.387 . S
C827 H830 0.950 . S
C828 C827 1.387 . S
C828 C831 1.387 . S
H829 C825 0.950 . S
H830 C827 0.950 . S
C831 C822 1.390 . S
C831 H824 0.950 . S
C831 C828 1.387 . S
C832 C833 1.387 . S
C832 H836 0.950 . S
C832 C841 1.390 . S
C833 C832 1.387 . S
C833 C835 1.387 . S
H834 C841 0.950 . S
C835 C833 1.387 . S
C835 C837 1.390 . S
C835 H839 0.950 . S
H836 C832 0.950 . S
C837 C835 1.390 . S
C837 C838 1.387 . S
C837 H840 0.950 . S
C838 C837 1.387 . S
C838 C841 1.387 . S
H839 C835 0.950 . S
H840 C837 0.950 . S
C841 C832 1.390 . S
C841 H834 0.950 . S
C841 C838 1.387 . S
C842 C843 1.387 . S
C842 H846 0.950 . S
C842 C851 1.390 . S
C843 C842 1.387 . S
C843 C845 1.387 . S
H844 C851 0.950 . S
C845 C843 1.387 . S
C845 C847 1.390 . S
C845 H849 0.950 . S
H846 C842 0.950 . S
C847 C845 1.390 . S
C847 C848 1.387 . S
C847 H850 0.950 . S
C848 C847 1.387 . S
C848 C851 1.387 . S
H849 C845 0.950 . S
H850 C847 0.950 . S
C851 C842 1.390 . S
C851 H844 0.950 . S
C851 C848 1.387 . S
C852 C853 1.387 . S
C852 H856 0.950 . S
C852 C861 1.390 . S
C853 C852 1.387 . S
C853 C855 1.387 . S
H854 C861 0.950 . S
C855 C853 1.387 . S
C855 C857 1.390 . S
C855 H859 0.950 . S
H856 C852 0.950 . S
C857 C855 1.390 . S
C857 C858 1.387 . S
C857 H860 0.950 . S
C858 C857 1.387 . S
C858 C861 1.387 . S
H859 C855 0.950 . S
H860 C857 0.950 . S
C861 C852 1.390 . S
C861 H854 0.950 . S
C861 C858 1.387 . S
C862 C863 1.387 . S
C862 H866 0.950 . S
C862 C871 1.390 . S
C863 C862 1.387 . S
C863 C865 1.387 . S
H864 C871 0.950 . S
C865 C863 1.387 . S
C865 C867 1.390 . S
C865 H869 0.950 . S
H866 C862 0.950 . S
C867 C865 1.390 . S
C867 C868 1.387 . S
C867 H870 0.950 . S
C868 C867 1.387 . S
C868 C871 1.387 . S
H869 C865 0.950 . S
H870 C867 0.950 . S
C871 C862 1.390 . S
C871 H864 0.950 . S
C871 C868 1.387 . S
C872 C873 1.387 . S
C872 H876 0.950 . S
C872 C881 1.390 . S
C873 C872 1.387 . S
C873 C875 1.387 . S
H874 C881 0.950 . S
C875 C873 1.387 . S
C875 C877 1.390 . S
C875 H879 0.950 . S
H876 C872 0.950 . S
C877 C875 1.390 . S
C877 C878 1.387 . S
C877 H880 0.950 . S
C878 C877 1.387 . S
C878 C881 1.387 . S
H879 C875 0.950 . S
H880 C877 0.950 . S
C881 C872 1.390 . S
C881 H874 0.950 . S
C881 C878 1.387 . S
C882 C883 1.387 . S
C882 H886 0.950 . S
C882 C891 1.390 . S
C883 C882 1.387 . S
C883 C885 1.387 . S
H884 C891 0.950 . S
C885 C883 1.387 . S
C885 C887 1.390 . S
C885 H889 0.950 . S
H886 C882 0.950 . S
C887 C885 1.390 . S
C887 C888 1.387 . S
C887 H890 0.950 . S
C888 C887 1.387 . S
C888 C891 1.387 . S
H889 C885 0.950 . S
H890 C887 0.950 . S
C891 C882 1.390 . S
C891 H884 0.950 . S
C891 C888 1.387 . S
C892 C893 1.387 . S
C892 H896 0.950 . S
C892 C901 1.390 . S
C893 C892 1.387 . S
C893 C895 1.387 . S
H894 C901 0.950 . S
C895 C893 1.387 . S
C895 C897 1.390 . S
C895 H899 0.950 . S
H896 C892 0.950 . S
C897 C895 1.390 . S
C897 C898 1.387 . S
C897 H900 0.950 . S
C898 C897 1.387 . S
C898 C901 1.387 . S
H899 C895 0.950 . S
H900 C897 0.950 . S
C901 C892 1.390 . S
C901 H894 0.950 . S
C901 C898 1.387 . S
C902 C903 1.387 . S
C902 H906 0.950 . S
C902 C911 1.390 . S
C903 C902 1.387 . S
C903 C905 1.387 . S
H904 C911 0.950 . S
C905 C903 1.387 . S
C905 C907 1.390 . S
C905 H909 0.950 . S
H906 C902 0.950 . S
C907 C905 1.390 . S
C907 C908 1.387 . S
C907 H910 0.950 . S
C908 C907 1.387 . S
C908 C911 1.387 . S
H909 C905 0.950 . S
H910 C907 0.950 . S
C911 C902 1.390 . S
C911 H904 0.950 . S
C911 C908 1.387 . S
C912 C913 1.387 . S
C912 H916 0.950 . S
C912 C921 1.390 . S
C913 C912 1.387 . S
C913 C915 1.387 . S
H914 C921 0.950 . S
C915 C913 1.387 . S
C915 C917 1.390 . S
C915 H919 0.950 . S
H916 C912 0.950 . S
C917 C915 1.390 . S
C917 C918 1.387 . S
C917 H920 0.950 . S
C918 C917 1.387 . S
C918 C921 1.387 . S
H919 C915 0.950 . S
H920 C917 0.950 . S
C921 C912 1.390 . S
C921 H914 0.950 . S
C921 C918 1.387 . S
C922 C923 1.387 . S
C922 H926 0.950 . S
C922 C931 1.390 . S
C923 C922 1.387 . S
C923 C925 1.387 . S
H924 C931 0.950 . S
C925 C923 1.387 . S
C925 C927 1.390 . S
C925 H929 0.950 . S
H926 C922 0.950 . S
C927 C925 1.390 . S
C927 C928 1.387 . S
C927 H930 0.950 . S
C928 C927 1.387 . S
C928 C931 1.387 . S
H929 C925 0.950 . S
H930 C927 0.950 . S
C931 C922 1.390 . S
C931 H924 0.950 . S
C931 C928 1.387 . S
C932 C933 1.387 . S
C932 H936 0.950 . S
C932 C941 1.390 . S
C933 C932 1.387 . S
C933 C935 1.387 . S
H934 C941 0.950 . S
C935 C933 1.387 . S
C935 C937 1.390 . S
C935 H939 0.950 . S
H936 C932 0.950 . S
C937 C935 1.390 . S
C937 C938 1.387 . S
C937 H940 0.950 . S
C938 C937 1.387 . S
C938 C941 1.387 . S
H939 C935 0.950 . S
H940 C937 0.950 . S
C941 C932 1.390 . S
C941 H934 0.950 . S
C941 C938 1.387 . S
C942 C943 1.387 . S
C942 H946 0.950 . S
C942 C951 1.390 . S
C943 C942 1.387 . S
C943 C945 1.387 . S
H944 C951 0.950 . S
C945 C943 1.387 . S
C945 C947 1.390 . S
C945 H949 0.950 . S
H946 C942 0.950 . S
C947 C945 1.390 . S
C947 C948 1.387 . S
C947 H950 0.950 . S
C948 C947 1.387 . S
C948 C951 1.387 . S
H949 C945 0.950 . S
H950 C947 0.950 . S
C951 C942 1.390 . S
C951 H944 0.950 . S
C951 C948 1.387 . S
C952 C953 1.387 . S
C952 H956 0.950 . S
C952 C961 1.390 . S
C953 C952 1.387 . S
C953 C955 1.387 . S
H954 C961 0.950 . S
C955 C953 1.387 . S
C955 C957 1.390 . S
C955 H959 0.950 . S
H956 C952 0.950 . S
C957 C955 1.390 . S
C957 C958 1.387 . S
C957 H960 0.950 . S
C958 C957 1.387 . S
C958 C961 1.387 . S
H959 C955 0.950 . S
H960 C957 0.950 . S
C961 C952 1.390 . S
C961 H954 0.950 . S
C961 C958 1.387 . S
C962 C963 1.387 . S
C962 H966 0.950 . S
C962 C971 1.390 . S
C963 C962 1.387 . S
C963 C965 1.387 . S
H964 C971 0.950 . S
C965 C963 1.387 . S
C965 C967 1.390 . S
C965 H969 0.950 . S
H966 C962 0.950 . S
C967 C965 1.390 . S
C967 C968 1.387 . S
C967 H970 0.950 . S
C968 C967 1.387 . S
C968 C971 1.387 . S
H969 C965 0.950 . S
H970 C967 0.950 . S
C971 C962 1.390 . S
C971 H964 0.950 . S
C971 C968 1.387 . S
C972 C973 1.387 . S
C972 H976 0.950 . S
C972 C981 1.390 . S
C973 C972 1.387 . S
C973 C975 1.387 . S
H974 C981 0.950 . S
C975 C973 1.387 . S
C975 C977 1.390 . S
C975 H979 0.950 . S
H976 C972 0.950 . S
C977 C975 1.390 . S
C977 C978 1.387 . S
C977 H980 0.950 . S
C978 C977 1.387 . S
C978 C981 1.387 . S
H979 C975 0.950 . S
H980 C977 0.950 . S
C981 C972 1.390 . S
C981 H974 0.950 . S
C981 C978 1.387 . S
C982 C983 1.387 . S
C982 H986 0.950 . S
C982 C991 1.390 . S
C983 C982 1.387 . S
C983 C985 1.387 . S
H984 C991 0.950 . S
C985 C983 1.387 . S
C985 C987 1.390 . S
C985 H989 0.950 . S
H986 C982 0.950 . S
C987 C985 1.390 . S
C987 C988 1.387 . S
C987 H990 0.950 . S
C988 C987 1.387 . S
C988 C991 1.387 . S
H989 C985 0.950 . S
H990 C987 0.950 . S
C991 C982 1.390 . S
C991 H984 0.950 . S
C991 C988 1.387 . S
C518 C337 1.745 . S
C513 C2 1.703 . S
C528 C342 0.509 . S
C523 C65 0.362 . S
C538 C343 1.736 . S
C533 C82 1.728 . S
C543 C145 0.746 . S
C548 C347 0.750 . S
C553 C164 0.592 . S
C558 C350 0.792 . S
C568 C351 1.719 . S
C563 C223 1.705 . S
C573 C244 0.971 . S
C578 C328 0.994 . S
C583 C282 1.685 . S
C588 C344 1.722 . S
C598 C382 3.134 . S
C593 C31 3.173 . S
C603 C60 1.912 . S
C608 C408 1.893 . S
C618 C360 3.172 . S
C613 C111 3.287 . S
C628 C415 1.822 . S
C623 C140 1.827 . S
C633 C162 1.869 . S
C638 C369 1.885 . S
C648 C411 1.255 . S
C643 C225 1.267 . S
C653 C242 1.983 . S
C658 C375 1.968 . S
C663 C311 2.344 . S
C668 C406 2.305 . S
C673 C4 1.014 . S
C678 C414 1.025 . S
C683 C191 1.238 . S
C688 C401 1.223 . S
C698 C379 2.804 . S
C693 C220 2.825 . S
C708 C407 1.294 . S
C703 C271 1.348 . S
C713 C284 1.493 . S
C718 C374 1.464 1_556 S
C723 C84 0.985 . S
C728 C392 1.043 . S
C738 C383 1.293 . S
C733 C143 1.299 . S
C743 C63 1.370 . S
C748 C376 1.353 . S
C753 C303 1.656 . S
C758 C438 1.606 . S
C763 C185 0.598 . S
C768 C433 0.619 . S
C778 C447 1.588 . S
C773 C202 1.676 . S
C788 C424 0.924 . S
C783 C265 0.948 . S
C793 C44 0.349 . S
C798 C440 0.519 . S
C808 C439 1.595 . S
C803 C103 1.694 . S
C813 C124 0.723 . S
C818 C443 0.727 . S
C823 C23 1.673 . S
C828 C446 1.601 . S
C833 C305 1.497 . S
C838 C472 1.575 . S
C848 C488 1.266 . S
C843 C180 1.245 . S
C853 C231 2.839 . S
C858 C470 2.840 . S
C863 C260 1.352 . S
C868 C503 1.261 . S
C878 C479 1.340 . S
C873 C42 1.353 . S
C883 C105 0.987 . S
C888 C497 0.920 . S
C898 C475 1.239 . S
C893 C122 1.272 . S
C908 C510 0.982 . S
C903 C25 1.021 . S
C918 C502 2.353 . S
C913 C300 2.372 . S
C923 C71 1.911 . S
C928 C507 1.797 . S
C933 C100 3.302 . S
C938 C478 3.317 . S
C948 C511 1.766 . S
C943 C151 1.825 . S
C953 C20 3.190 . S
C958 C465 3.199 . S
C963 C204 1.284 . S
C968 C504 1.206 . S
C978 C456 1.907 . S
C973 C263 1.970 . S
C988 C471 1.750 . S
C983 C183 1.845 . S
