# Generated by pormake.
# Topology rtl, (3,6)-cn, num edge types: 1
# Building blocks:
#     Node 0, Type 0, BuildingBlock: OLANEW_clean_sbu_2, # of connection points: 3
#     Node 1, Type 0, BuildingBlock: OLANEW_clean_sbu_2, # of connection points: 3
#     Node 2, Type 0, BuildingBlock: OLANEW_clean_sbu_2, # of connection points: 3
#     Node 3, Type 0, BuildingBlock: OLANEW_clean_sbu_2, # of connection points: 3
#     Node 4, Type 1, BuildingBlock: KUMJIN_clean_sbu_1, # of connection points: 6
#     Node 5, Type 1, BuildingBlock: KUMJIN_clean_sbu_1, # of connection points: 6
#     Edge 6, Type (0, 1), BuildingBlock: TEMPAE_clean_linker_10, # of connection points: 2
#     Edge 7, Type (0, 1), BuildingBlock: TEMPAE_clean_linker_10, # of connection points: 2
#     Edge 8, Type (0, 1), BuildingBlock: TEMPAE_clean_linker_10, # of connection points: 2
#     Edge 9, Type (0, 1), BuildingBlock: TEMPAE_clean_linker_10, # of connection points: 2
#     Edge 10, Type (0, 1), BuildingBlock: TEMPAE_clean_linker_10, # of connection points: 2
#     Edge 11, Type (0, 1), BuildingBlock: TEMPAE_clean_linker_10, # of connection points: 2
#     Edge 12, Type (0, 1), BuildingBlock: TEMPAE_clean_linker_10, # of connection points: 2
#     Edge 13, Type (0, 1), BuildingBlock: TEMPAE_clean_linker_10, # of connection points: 2
#     Edge 14, Type (0, 1), BuildingBlock: TEMPAE_clean_linker_10, # of connection points: 2
#     Edge 15, Type (0, 1), BuildingBlock: TEMPAE_clean_linker_10, # of connection points: 2
#     Edge 16, Type (0, 1), BuildingBlock: TEMPAE_clean_linker_10, # of connection points: 2
#     Edge 17, Type (0, 1), BuildingBlock: TEMPAE_clean_linker_10, # of connection points: 2
# Relax obj value: 0.043
# Max RMSD: 0.165
# Mean RMSD: 0.131
data_MOF--net-rtl--node1-OLANEW_clean_sbu_2--node2-KUMJIN_clean_sbu_1--edge1-TEMPAE_clean_linker_10
_symmetry_space_group_name_H-M    P1
_symmetry_Int_Tables_number       1
_symmetry_cell_setting            triclinic
loop_
_symmetry_equiv_pos_as_xyz
'x, y, z'
_cell_length_a     38.146195
_cell_length_b     37.943522
_cell_length_c     29.497907
_cell_angle_alpha  75.810908
_cell_angle_beta   102.67113
_cell_angle_gamma 91.011543
loop_
_atom_site_label
_atom_site_type_symbol
_atom_site_fract_x
_atom_site_fract_y
_atom_site_fract_z
_atom_type_partial_charge
O0 O 0.24335 0.87307 0.96055 0.0
Cd1 Cd 0.28331 0.84214 0.03592 0.0
O2 O 0.20896 0.89902 0.99503 0.0
Cd3 Cd 0.23588 0.87793 0.06988 0.0
O4 O 0.21732 0.8791 0.1343 0.0
C5 C 0.18469 0.87077 0.13226 0.0
O6 O 0.16718 0.85981 0.09487 0.0
C7 C 0.21636 0.89342 0.95739 0.0
C8 C 0.31987 0.78338 0.0233 0.0
O9 O 0.28957 0.77941 0.03566 0.0
O10 O 0.33298 0.8151 0.01728 0.0
O11 O 0.66394 0.74477 0.708 0.0
Cd12 Cd 0.67841 0.78317 0.63496 0.0
O13 O 0.63714 0.71568 0.65553 0.0
Cd14 Cd 0.60876 0.67135 0.62991 0.0
O15 O 0.59461 0.63286 0.58535 0.0
C16 C 0.57043 0.64167 0.54691 0.0
O17 O 0.55287 0.67316 0.53633 0.0
C18 C 0.64463 0.71873 0.69854 0.0
C19 C 0.74218 0.8207 0.64146 0.0
O20 O 0.71272 0.83573 0.64287 0.0
O21 O 0.74178 0.7874 0.63906 0.0
O22 O 0.7649 0.14218 0.14824 0.0
Cd23 Cd 0.72879 0.16528 0.06698 0.0
O24 O 0.80243 0.11518 0.11949 0.0
Cd25 Cd 0.77653 0.13137 0.0438 0.0
O26 O 0.79626 0.12596 0.98209 0.0
C27 C 0.81788 0.09866 0.99197 0.0
O28 O 0.82357 0.07679 0.0352 0.0
C29 C 0.79328 0.12277 0.15498 0.0
C30 C 0.69271 0.2311 0.0557 0.0
O31 O 0.67722 0.2008 0.06569 0.0
O32 O 0.72532 0.23023 0.05118 0.0
O33 O 0.32202 0.30198 0.5452 0.0
Cd34 Cd 0.31443 0.27149 0.47967 0.0
O35 O 0.36306 0.33825 0.51967 0.0
Cd36 Cd 0.36339 0.32078 0.45448 0.0
O37 O 0.3797 0.33432 0.38582 0.0
C38 C 0.39856 0.36237 0.38028 0.0
O39 O 0.40613 0.37917 0.41509 0.0
C40 C 0.34387 0.32718 0.5502 0.0
C41 C 0.26036 0.22092 0.48538 0.0
O42 O 0.29326 0.21154 0.5058 0.0
O43 O 0.25313 0.25413 0.46193 0.0
Eu44 Eu 0.02489 0.97108 0.53696 0.0
C45 C 0.94389 0.12036 0.4928 0.0
N46 N 0.9776 0.11037 0.51966 0.0
C47 C 1.00008 0.16652 0.48128 0.0
C48 C 0.93712 0.15406 0.45847 0.0
C49 C 0.0055 0.13291 0.51496 0.0
C50 C 0.96575 0.17712 0.45282 0.0
C51 C 0.88112 0.10602 0.471 0.0
C52 C 0.91629 0.09631 0.49871 0.0
C53 C 0.87426 0.13973 0.43719 0.0
C54 C 0.90218 0.16358 0.43074 0.0
Eu55 Eu 0.98416 0.05348 0.57556 0.0
N56 N 0.9237 0.06369 0.53164 0.0
C57 C 0.85371 0.08181 0.47864 0.0
C58 C 0.89648 0.0414 0.54165 0.0
C59 C 0.86135 0.04958 0.51456 0.0
H60 H 0.03186 0.12517 0.53759 0.0
H61 H 0.84003 0.03141 0.52219 0.0
H62 H 0.97001 0.90133 0.55487 0.0
H63 H 0.16765 0.97967 0.61688 0.0
H64 H 0.90116 0.01802 0.57161 0.0
H65 H 0.82638 0.08825 0.45802 0.0
H66 H 0.10971 0.00082 0.56164 0.0
H67 H 0.02232 0.18429 0.47746 0.0
H68 H 0.84733 0.14779 0.41618 0.0
H69 H 0.89644 0.18939 0.40427 0.0
H70 H 0.97177 0.83951 0.6076 0.0
H71 H 0.96163 0.20318 0.42673 0.0
H72 H 0.1741 0.91839 0.67207 0.0
N73 N 0.02434 0.91112 0.58384 0.0
C74 C 0.05586 0.89735 0.61448 0.0
C75 C 0.99555 0.85555 0.61005 0.0
C76 C 0.0582 0.862 0.64481 0.0
C77 C 0.99452 0.89071 0.58063 0.0
C78 C 0.02749 0.84116 0.64241 0.0
N79 N 0.08231 0.95355 0.5878 0.0
C80 C 0.11149 0.97479 0.58676 0.0
C81 C 0.11867 0.90553 0.64803 0.0
C82 C 0.08571 0.91904 0.6163 0.0
C83 C 0.14825 0.92787 0.64853 0.0
C84 C 0.14469 0.96253 0.61753 0.0
H85 H 0.02819 0.81391 0.66519 0.0
H86 H 0.09319 0.82158 0.70031 0.0
H87 H 0.14615 0.85951 0.70283 0.0
O88 O 0.05425 0.97508 0.48028 0.0
O89 O 0.03016 0.96641 0.61648 0.0
O90 O 0.03505 0.02504 0.62481 0.0
O91 O 0.01992 0.92986 0.49593 0.0
O92 O 0.04879 0.02706 0.51708 0.0
O93 O 0.04314 0.05656 0.57532 0.0
O94 O 0.956 0.05588 0.63165 0.0
O95 O 0.9827 0.05776 0.49686 0.0
O96 O 0.9733 0.99953 0.48997 0.0
O97 O 0.99304 0.09758 0.61191 0.0
O98 O 0.96432 0.99635 0.60033 0.0
O99 O 0.96596 0.96951 0.53859 0.0
C100 C 0.0426 0.99003 0.64124 0.0
C101 C 0.02623 0.95061 0.41619 0.0
C102 C 0.03584 0.94381 0.33972 0.0
C103 C 0.00125 0.95937 0.31727 0.0
C104 C 0.99177 0.96597 0.39336 0.0
C105 C 0.97939 0.97029 0.34407 0.0
C106 C 0.04811 0.9396 0.38937 0.0
C107 C 0.05875 0.05176 0.54159 0.0
C108 C 0.04015 0.94643 0.46772 0.0
C109 C 0.09092 0.84864 0.67667 0.0
C110 C 0.12108 0.87029 0.67815 0.0
C111 C 0.96753 0.03471 0.47274 0.0
C112 C 0.98945 0.07959 0.69325 0.0
C113 C 0.98102 0.07572 0.77381 0.0
C114 C 0.01808 0.06782 0.792 0.0
C115 C 0.02637 0.0715 0.71189 0.0
C116 C 0.96703 0.08175 0.72424 0.0
C117 C 0.04056 0.06571 0.7611 0.0
C118 C 0.95341 0.97188 0.57589 0.0
C119 C 0.97329 0.08373 0.64218 0.0
H120 H 0.99094 0.96264 0.27916 0.0
H121 H 0.9745 0.97453 0.41357 0.0
H122 H 0.95274 0.98199 0.32663 0.0
H123 H 0.07491 0.92819 0.40713 0.0
H124 H 0.02953 0.06271 0.83012 0.0
H125 H 0.04412 0.06942 0.68854 0.0
H126 H 0.93855 0.08812 0.70962 0.0
H127 H 0.069 0.05925 0.77536 0.0
Eu128 Eu 0.47437 0.49855 0.96876 0.0
C129 C 0.62102 0.56129 0.0316 0.0
N130 N 0.60782 0.52947 0.05282 0.0
C131 C 0.66252 0.49763 0.0563 0.0
C132 C 0.65508 0.56219 0.02009 0.0
C133 C 0.62891 0.49828 0.06779 0.0
C134 C 0.67541 0.5296 0.03156 0.0
C135 C 0.61516 0.62719 0.00487 0.0
C136 C 0.6014 0.59344 0.02401 0.0
C137 C 0.64852 0.62806 0.99199 0.0
C138 C 0.66834 0.59563 -0.00071 0.0
Eu139 Eu 0.54934 0.53343 0.06717 0.0
N140 N 0.56912 0.59176 0.03649 0.0
C141 C 0.59522 0.65907 4e-05 0.0
C142 C 0.55033 0.62268 0.03412 0.0
C143 C 0.56284 0.65681 0.01523 0.0
H144 H 0.62032 0.4739 0.0894 0.0
H145 H 0.54753 0.6813 0.01238 0.0
H146 H 0.39853 0.53532 0.97897 0.0
H147 H 0.51014 0.35468 0.99432 0.0
H148 H 0.52537 0.62084 0.04605 0.0
H149 H 0.60485 0.68553 0.98534 0.0
H150 H 0.51248 0.42072 0.96139 0.0
H151 H 0.67873 0.47259 0.06729 0.0
H152 H 0.65958 0.65373 0.97734 0.0
H153 H 0.69436 0.59681 0.98998 0.0
H154 H 0.34512 0.51594 0.01238 0.0
H155 H 0.70167 0.52912 0.02327 0.0
H156 H 0.46424 0.33053 0.04028 0.0
N157 N 0.42206 0.48193 0.99824 0.0
C158 C 0.41827 0.44592 0.01649 0.0
C159 C 0.36561 0.49601 0.01403 0.0
C160 C 0.38858 0.43365 0.03645 0.0
C161 C 0.39581 0.50692 0.99522 0.0
C162 C 0.3622 0.45927 0.03532 0.0
N163 N 0.47171 0.43429 0.99368 0.0
C164 C 0.49386 0.41072 0.98382 0.0
C165 C 0.44093 0.38381 0.033 0.0
C166 C 0.44427 0.42145 0.01502 0.0
C167 C 0.46587 0.35965 0.02707 0.0
C168 C 0.49195 0.37317 0.00139 0.0
H169 H 0.33896 0.45093 0.05027 0.0
H170 H 0.36374 0.3864 0.07263 0.0
H171 H 0.40948 0.34269 0.06936 0.0
O172 O 0.45575 0.47646 0.90635 0.0
O173 O 0.46753 0.49409 0.04466 0.0
O174 O 0.52425 0.47934 0.0894 0.0
O175 O 0.4401 0.53155 0.90303 0.0
O176 O 0.53233 0.47781 0.98084 0.0
O177 O 0.55616 0.47562 0.06057 0.0
O178 O 0.53491 0.54938 0.1272 0.0
O179 O 0.53383 0.56589 0.98969 0.0
O180 O 0.52488 0.52268 0.94697 0.0
O181 O 0.58964 0.5323 0.13273 0.0
O182 O 0.49252 0.55697 0.05257 0.0
O183 O 0.46442 0.55632 0.97421 0.0
C184 C 0.48947 0.47629 0.08405 0.0
C185 C 0.39888 0.49785 0.85823 0.0
C186 C 0.35972 0.46715 0.80367 0.0
C187 C 0.32958 0.48227 0.81328 0.0
C188 C 0.36844 0.51275 0.86728 0.0
C189 C 0.33401 0.50488 0.84492 0.0
C190 C 0.3943 0.47518 0.82637 0.0
C191 C 0.55504 0.46382 0.02186 0.0
C192 C 0.4357 0.505 0.88166 0.0
C193 C 0.38608 0.39635 0.05649 0.0
C194 C 0.41222 0.37147 0.05479 0.0
C195 C 0.53772 0.55389 0.95306 0.0
C196 C 0.56715 0.51748 0.20306 0.0
C197 C 0.5653 0.51159 0.28669 0.0
C198 C 0.56682 0.47352 0.29444 0.0
C199 C 0.56869 0.47945 0.21135 0.0
C200 C 0.56536 0.53339 0.24065 0.0
C201 C 0.56856 0.45764 0.25692 0.0
C202 C 0.46814 0.56953 0.01251 0.0
C203 C 0.56657 0.54089 0.15521 0.0
H204 H 0.30262 0.47639 0.79664 0.0
H205 H 0.37115 0.53042 0.8915 0.0
H206 H 0.31065 0.51635 0.85215 0.0
H207 H 0.41781 0.46414 0.8188 0.0
H208 H 0.56714 0.45605 0.3296 0.0
H209 H 0.57005 0.46671 0.18267 0.0
H210 H 0.56366 0.56279 0.23384 0.0
H211 H 0.57003 0.42833 0.26327 0.0
C212 C 0.19533 0.20582 0.47014 0.0
C213 C 0.23145 0.19448 0.48984 0.0
C214 C 0.16752 0.18161 0.47635 0.0
C215 C 0.17603 0.14513 0.50275 0.0
C216 C 0.21246 0.13323 0.52162 0.0
C217 C 0.23974 0.15807 0.51501 0.0
C218 C 0.12898 0.19533 0.45581 0.0
C219 C 0.22258 0.09451 0.54987 0.0
C220 C 0.105 0.09575 0.56362 0.0
C221 C 0.08942 0.07474 0.53189 0.0
C222 C 0.13336 0.11845 0.55471 0.0
C223 C 0.14673 0.12012 0.51315 0.0
C224 C 0.13162 0.09852 0.48136 0.0
C225 C 0.10312 0.07605 0.49111 0.0
C226 C 0.14875 0.141 0.58957 0.0
C227 C 0.14531 0.09946 0.4368 0.0
H228 H 0.18866 0.23387 0.45056 0.0
H229 H 0.26757 0.14902 0.5302 0.0
H230 H 0.11469 0.17803 0.43284 0.0
H231 H 0.11482 0.19361 0.48533 0.0
H232 H 0.12692 0.22396 0.43419 0.0
H233 H 0.25213 0.08896 0.5595 0.0
H234 H 0.21249 0.08894 0.58337 0.0
H235 H 0.20977 0.07523 0.52896 0.0
H236 H 0.09492 0.09464 0.59555 0.0
H237 H 0.09132 0.05984 0.46647 0.0
H238 H 0.14531 0.17033 0.57101 0.0
H239 H 0.17802 0.13475 0.60324 0.0
H240 H 0.1357 0.13609 0.62062 0.0
H241 H 0.14135 0.12732 0.41289 0.0
H242 H 0.13144 0.08018 0.41654 0.0
H243 H 0.1746 0.09265 0.44653 0.0
C244 C 0.32503 0.71745 0.02429 0.0
C245 C 0.33938 0.75217 0.0168 0.0
C246 C 0.34396 0.68737 0.02025 0.0
C247 C 0.37805 0.69213 0.00848 0.0
C248 C 0.39223 0.72727 -0.00043 0.0
C249 C 0.37273 0.75686 0.00385 0.0
C250 C 0.32798 0.6503 0.03005 0.0
C251 C 0.42852 0.73342 0.98693 0.0
C252 C 0.44554 0.61236 0.05277 0.0
C253 C 0.44407 0.60024 0.01109 0.0
C254 C 0.42395 0.64194 0.05235 0.0
C255 C 0.40017 0.66001 0.00921 0.0
C256 C 0.39811 0.64773 0.96709 0.0
C257 C 0.42008 0.61793 0.96852 0.0
C258 C 0.42688 0.65408 0.09812 0.0
C259 C 0.37302 0.66635 0.92044 0.0
H260 H 0.2992 0.7136 0.03408 0.0
H261 H 0.38395 0.78362 0.99775 0.0
H262 H 0.3277 0.63751 -5e-05 0.0
H263 H 0.34484 0.6323 0.06275 0.0
H264 H 0.30012 0.65159 0.03533 0.0
H265 H 0.43468 0.76271 0.97803 0.0
H266 H 0.44984 0.71886 0.01756 0.0
H267 H 0.42965 0.72217 0.95591 0.0
H268 H 0.46378 0.59885 0.08599 0.0
H269 H 0.41869 0.60877 0.93616 0.0
H270 H 0.40019 0.65356 0.10741 0.0
H271 H 0.43569 0.68254 0.09297 0.0
H272 H 0.44623 0.63666 0.12886 0.0
H273 H 0.34502 0.66667 0.92533 0.0
H274 H 0.37381 0.65282 0.89126 0.0
H275 H 0.38037 0.69509 0.90909 0.0
C276 C 0.8081 0.82444 0.64321 0.0
C277 C 0.77502 0.84192 0.63907 0.0
C278 C 0.83862 0.84453 0.63639 0.0
C279 C 0.83585 0.88301 0.62449 0.0
C280 C 0.80281 0.90079 0.62156 0.0
C281 C 0.77287 0.88001 0.62924 0.0
C282 C 0.87357 0.82462 0.6406 0.0
C283 C 0.7987 0.94179 0.60847 0.0
C284 C 0.91966 0.93881 0.6361 0.0
C285 C 0.92429 0.94801 0.58884 0.0
C286 C 0.89144 0.91699 0.64853 0.0
C287 C 0.86691 0.90477 0.61259 0.0
C288 C 0.87155 0.91401 0.56479 0.0
C289 C 0.90038 0.93528 0.55358 0.0
C290 C 0.88773 0.90722 0.7 0.0
C291 C 0.84566 0.90203 0.52526 0.0
H292 H 0.81003 0.795 0.65102 0.0
H293 H 0.74739 0.89374 0.62581 0.0
H294 H 0.88077 0.83051 0.6051 0.0
H295 H 0.89567 0.83425 0.66547 0.0
H296 H 0.87202 0.7947 0.65366 0.0
H297 H 0.77158 0.9514 0.60939 0.0
H298 H 0.81913 0.95323 0.63342 0.0
H299 H 0.80334 0.95285 0.57188 0.0
H300 H 0.93827 0.94851 0.66345 0.0
H301 H 0.90369 0.9427 0.5169 0.0
H302 H 0.88735 0.87724 0.71326 0.0
H303 H 0.86184 0.91866 0.70244 0.0
H304 H 0.90994 0.91758 0.72397 0.0
H305 H 0.84484 0.87192 0.53405 0.0
H306 H 0.85308 0.91153 0.48998 0.0
H307 H 0.8181 0.91276 0.52202 0.0
C308 C 0.69252 0.29798 0.05001 0.0
C309 C 0.67348 0.26606 0.04957 0.0
C310 C 0.67462 0.3312 0.04497 0.0
C311 C 0.63675 0.33257 0.03859 0.0
C312 C 0.61735 0.30052 0.03751 0.0
C313 C 0.63598 0.2676 0.04331 0.0
C314 C 0.69624 0.36471 0.04715 0.0
C315 C 0.57688 0.30106 0.02982 0.0
C316 C 0.59065 0.4076 0.07113 0.0
C317 C 0.57773 0.43145 0.02609 0.0
C318 C 0.61063 0.37577 0.07578 0.0
C319 C 0.61742 0.36732 0.0343 0.0
C320 C 0.60493 0.39155 0.98877 0.0
C321 C 0.58553 0.42356 0.98528 0.0
C322 C 0.6238 0.35081 0.12502 0.0
C323 C 0.61134 0.38325 0.94368 0.0
H324 H 0.72153 0.29693 0.05502 0.0
H325 H 0.62109 0.24308 0.04253 0.0
H326 H 0.68704 0.38633 0.01371 0.0
H327 H 0.69195 0.37556 0.07727 0.0
H328 H 0.7255 0.35911 0.05207 0.0
H329 H 0.56596 0.2735 0.03204 0.0
H330 H 0.56822 0.31267 0.05682 0.0
H331 H 0.56484 0.31875 0.99395 0.0
H332 H 0.5846 0.41344 0.10284 0.0
H333 H 0.57586 0.4421 0.95044 0.0
H334 H 0.65323 0.34536 0.13195 0.0
H335 H 0.61072 0.3243 0.12692 0.0
H336 H 0.61802 0.36237 0.15387 0.0
H337 H 0.64054 0.37901 0.94671 0.0
H338 H 0.60064 0.40536 0.91121 0.0
H339 H 0.59827 0.35766 0.93885 0.0
C340 C 0.18154 0.8956 0.20268 0.0
C341 C 0.16527 0.87742 0.16786 0.0
C342 C 0.16193 0.9054 0.23314 0.0
C343 C 0.12528 0.89668 0.22872 0.0
C344 C 0.10912 0.87719 0.19484 0.0
C345 C 0.12929 0.86782 0.16483 0.0
C346 C 0.18006 0.92613 0.26894 0.0
C347 C 0.07017 0.86719 0.18926 0.0
C348 C 0.07842 0.89843 0.32925 0.0
C349 C 0.05914 0.93194 0.31158 0.0
C350 C 0.10046 0.88678 0.30299 0.0
C351 C 0.10329 0.90921 0.25801 0.0
C352 C 0.08416 0.94321 0.24017 0.0
C353 C 0.06226 0.95413 0.26714 0.0
C354 C 0.12029 0.85027 0.32302 0.0
C355 C 0.08664 0.96796 0.19243 0.0
H356 H 0.20931 0.90313 0.20525 0.0
H357 H 0.11654 0.85363 0.13819 0.0
H358 H 0.16714 0.95369 0.25975 0.0
H359 H 0.17679 0.9122 0.30542 0.0
H360 H 0.20922 0.929 0.26977 0.0
H361 H 0.0622 0.85032 0.16302 0.0
H362 H 0.06505 0.85201 0.22429 0.0
H363 H 0.05266 0.89228 0.17704 0.0
H364 H 0.07579 0.88099 0.36335 0.0
H365 H 0.0478 0.98026 0.25366 0.0
H366 H 0.14953 0.85357 0.32531 0.0
H367 H 0.11106 0.83224 0.29863 0.0
H368 H 0.11611 0.83662 0.35922 0.0
H369 H 0.1151 0.97432 0.19215 0.0
H370 H 0.07076 0.99389 0.18424 0.0
H371 H 0.07672 0.95402 0.16336 0.0
C372 C 0.59675 0.67884 0.7257 0.0
C373 C 0.63097 0.69282 0.73641 0.0
C374 C 0.58265 0.6553 0.76144 0.0
C375 C 0.60345 0.64519 0.80904 0.0
C376 C 0.63834 0.65877 0.81987 0.0
C377 C 0.65146 0.68291 0.78354 0.0
C378 C 0.54511 0.64199 0.7485 0.0
C379 C 0.66156 0.64881 0.86996 0.0
C380 C 0.55214 0.61492 0.90785 0.0
C381 C 0.55484 0.57698 0.91657 0.0
C382 C 0.56845 0.63742 0.87366 0.0
C383 C 0.58791 0.62155 0.8475 0.0
C384 C 0.59118 0.58317 0.85672 0.0
C385 C 0.57433 0.5613 0.89094 0.0
C386 C 0.56452 0.67817 0.86525 0.0
C387 C 0.61259 0.56527 0.83055 0.0
H388 H 0.58041 0.68729 0.6896 0.0
H389 H 0.67788 0.69384 0.79195 0.0
H390 H 0.5456 0.61182 0.75833 0.0
H391 H 0.52773 0.65147 0.76913 0.0
H392 H 0.53275 0.65177 0.70964 0.0
H393 H 0.69044 0.65302 0.86987 0.0
H394 H 0.65332 0.66649 0.89093 0.0
H395 H 0.65842 0.6201 0.88844 0.0
H396 H 0.53681 0.62708 0.92736 0.0
H397 H 0.5768 0.53192 0.89812 0.0
H398 H 0.55206 0.69055 0.82701 0.0
H399 H 0.59142 0.68973 0.87327 0.0
H400 H 0.54785 0.68615 0.88789 0.0
H401 H 0.6006 0.57309 0.79149 0.0
H402 H 0.61359 0.53513 0.84305 0.0
H403 H 0.64049 0.5749 0.8358 0.0
C404 C 0.8492 0.09066 0.20897 0.0
C405 C 0.81666 0.10963 0.20345 0.0
C406 C 0.87258 0.07898 0.25396 0.0
C407 C 0.86315 0.0861 0.29471 0.0
C408 C 0.83006 0.10465 0.28967 0.0
C409 C 0.80731 0.11647 0.24398 0.0
C410 C 0.90747 0.05905 0.25781 0.0
C411 C 0.81891 0.11326 0.33187 0.0
C412 C 0.91267 0.02601 0.41342 0.0
C413 C 0.94048 0.04826 0.42775 0.0
C414 C 0.88649 0.03851 0.37103 0.0
C415 C 0.88831 0.07401 0.34225 0.0
C416 C 0.91586 0.09689 0.35719 0.0
C417 C 0.94182 0.08361 0.39963 0.0
C418 C 0.857 0.01367 0.35684 0.0
C419 C 0.91821 0.13516 0.32793 0.0
H420 H 0.85674 0.08519 0.17794 0.0
H421 H 0.78231 0.13122 0.24007 0.0
H422 H 0.93056 0.07338 0.27425 0.0
H423 H 0.90798 0.03134 0.28152 0.0
H424 H 0.91127 0.05657 0.22243 0.0
H425 H 0.78917 0.11554 0.32598 0.0
H426 H 0.82943 0.09251 0.36577 0.0
H427 H 0.82967 0.13991 0.33599 0.0
H428 H 0.91123 0.99884 0.43552 0.0
H429 H 0.96343 0.10077 0.41057 0.0
H430 H 0.85891 0.00771 0.32245 0.0
H431 H 0.83035 0.02735 0.35113 0.0
H432 H 0.85837 0.98752 0.38436 0.0
H433 H 0.92255 0.13449 0.29215 0.0
H434 H 0.94038 0.14996 0.34556 0.0
H435 H 0.8925 0.1506 0.3221 0.0
C436 C 0.37031 0.37282 0.59527 0.0
C437 C 0.34639 0.34471 0.59058 0.0
C438 C 0.37205 0.39099 0.63171 0.0
C439 C 0.34937 0.38086 0.66446 0.0
C440 C 0.32565 0.35207 0.66062 0.0
C441 C 0.32442 0.33433 0.62369 0.0
C442 C 0.39778 0.4215 0.63463 0.0
C443 C 0.30119 0.34041 0.69505 0.0
C444 C 0.3769 0.4118 0.77998 0.0
C445 C 0.35532 0.44361 0.76939 0.0
C446 C 0.37448 0.39045 0.74677 0.0
C447 C 0.34997 0.40123 0.7018 0.0
C448 C 0.32746 0.43279 0.69139 0.0
C449 C 0.33037 0.45357 0.72533 0.0
C450 C 0.39878 0.35687 0.75932 0.0
C451 C 0.30109 0.44528 0.64377 0.0
H452 H 0.3875 0.38102 0.57002 0.0
H453 H 0.3059 0.31263 0.62045 0.0
H454 H 0.38255 0.44732 0.62969 0.0
H455 H 0.41615 0.41586 0.67061 0.0
H456 H 0.41422 0.42545 0.60713 0.0
H457 H 0.28537 0.31659 0.68846 0.0
H458 H 0.31718 0.33339 0.73252 0.0
H459 H 0.28225 0.36324 0.69168 0.0
H460 H 0.39584 0.40367 0.81428 0.0
H461 H 0.31387 0.47829 0.71674 0.0
H462 H 0.41761 0.36047 0.73485 0.0
H463 H 0.38268 0.33292 0.75436 0.0
H464 H 0.41475 0.35098 0.79685 0.0
H465 H 0.3159 0.45263 0.61452 0.0
H466 H 0.28414 0.46922 0.64229 0.0
H467 H 0.28327 0.42291 0.63668 0.0
C468 C 0.54 0.62963 0.46818 0.0
C469 C 0.56515 0.61881 0.51198 0.0
C470 C 0.53749 0.61043 0.4326 0.0
C471 C 0.56075 0.57974 0.44099 0.0
C472 C 0.58509 0.56772 0.48589 0.0
C473 C 0.58695 0.58736 0.52088 0.0
C474 C 0.51101 0.62391 0.38527 0.0
C475 C 0.61031 0.53508 0.4962 0.0
C476 C 0.54145 0.51581 0.35809 0.0
C477 C 0.56413 0.5287 0.32655 0.0
C478 C 0.53985 0.53223 0.39543 0.0
C479 C 0.5617 0.562 0.40155 0.0
C480 C 0.58482 0.57493 0.37003 0.0
C481 C 0.5857 0.55817 0.33289 0.0
C482 C 0.51469 0.51786 0.42813 0.0
C483 C 0.60876 0.60644 0.37561 0.0
H484 H 0.52289 0.65376 0.46108 0.0
H485 H 0.60636 0.57867 0.55469 0.0
H486 H 0.5258 0.63426 0.35651 0.0
H487 H 0.49462 0.60128 0.37566 0.0
H488 H 0.49266 0.64609 0.38597 0.0
H489 H 0.62558 0.52757 0.5341 0.0
H490 H 0.59511 0.51131 0.48826 0.0
H491 H 0.62977 0.54103 0.47259 0.0
H492 H 0.52459 0.49318 0.35314 0.0
H493 H 0.60368 0.56787 0.30907 0.0
H494 H 0.49539 0.53984 0.42678 0.0
H495 H 0.53015 0.50879 0.46575 0.0
H496 H 0.49928 0.49469 0.41829 0.0
H497 H 0.59219 0.63094 0.37279 0.0
H498 H 0.62524 0.61313 0.34811 0.0
H499 H 0.62709 0.59993 0.41164 0.0
C500 C 0.83651 0.1189 0.91359 0.0
C501 C 0.83905 0.09333 0.95759 0.0
C502 C 0.85876 0.11551 0.88266 0.0
C503 C 0.88402 0.08584 0.89613 0.0
C504 C 0.886 0.05943 0.93986 0.0
C505 C 0.86348 0.06349 0.97005 0.0
C506 C 0.85583 0.1441 0.83613 0.0
C507 C 0.9125 0.02733 0.95529 0.0
C508 C 0.9233 0.06106 0.80009 0.0
C509 C 0.9567 0.07744 0.80615 0.0
C510 C 0.89934 0.06358 0.82911 0.0
C511 C 0.90908 0.08289 0.8651 0.0
C512 C 0.94291 0.09916 0.87176 0.0
C513 C 0.96637 0.0962 0.84219 0.0
C514 C 0.86359 0.04566 0.82121 0.0
C515 C 0.95419 0.11996 0.90984 0.0
H516 H 0.81768 0.14201 0.90371 0.0
H517 H 0.86553 0.04354 0.00393 0.0
H518 H 0.88157 0.1582 0.83623 0.0
H519 H 0.85087 0.13116 0.80553 0.0
H520 H 0.83389 0.16473 0.83011 0.0
H521 H 0.90964 0.00845 0.98949 0.0
H522 H 0.9088 0.01197 0.92716 0.0
H523 H 0.94035 0.03707 0.95996 0.0
H524 H 0.91595 0.04606 0.7727 0.0
H525 H 0.992 0.1092 0.84665 0.0
H526 H 0.84133 0.0663 0.81262 0.0
H527 H 0.86109 0.02546 0.8545 0.0
H528 H 0.86014 0.03166 0.79164 0.0
H529 H 0.93476 0.14301 0.90349 0.0
H530 H 0.98149 0.13083 0.91053 0.0
H531 H 0.95396 0.10205 0.94567 0.0
C532 C 0.40347 0.35941 0.29762 0.0
C533 C 0.4114 0.37661 0.33554 0.0
C534 C 0.41533 0.37337 0.25502 0.0
C535 C 0.43553 0.40522 0.25037 0.0
C536 C 0.44363 0.42261 0.28852 0.0
C537 C 0.43156 0.40806 0.3306 0.0
C538 C 0.40612 0.35423 0.21491 0.0
C539 C 0.46503 0.45668 0.2849 0.0
C540 C 0.49563 0.42891 0.16112 0.0
C541 C 0.4749 0.45646 0.12512 0.0
C542 C 0.48261 0.411 0.20138 0.0
C543 C 0.44805 0.42091 0.20556 0.0
C544 C 0.42662 0.44797 0.16855 0.0
C545 C 0.44043 0.46558 0.12894 0.0
C546 C 0.50611 0.38206 0.23995 0.0
C547 C 0.3896 0.45925 0.17154 0.0
H548 H 0.3879 0.3351 0.30114 0.0
H549 H 0.43787 0.42157 0.35964 0.0
H550 H 0.3904 0.37304 0.18201 0.0
H551 H 0.43111 0.34599 0.20616 0.0
H552 H 0.39033 0.32967 0.22421 0.0
H553 H 0.46809 0.46747 0.31726 0.0
H554 H 0.49213 0.45088 0.27996 0.0
H555 H 0.45176 0.47817 0.25314 0.0
H556 H 0.52215 0.42152 0.15797 0.0
H557 H 0.42454 0.48724 0.10155 0.0
H558 H 0.49159 0.35636 0.24648 0.0
H559 H 0.51248 0.39066 0.2741 0.0
H560 H 0.53173 0.37656 0.2304 0.0
H561 H 0.37289 0.43509 0.17801 0.0
H562 H 0.37554 0.47906 0.13834 0.0
H563 H 0.39174 0.4718 0.20224 0.0
C564 C 0.15973 0.92715 0.90777 0.0
C565 C 0.19246 0.90965 0.91018 0.0
C566 C 0.1358 0.94114 0.86371 0.0
C567 C 0.14493 0.93786 0.82094 0.0
C568 C 0.17826 0.92107 0.82292 0.0
C569 C 0.20157 0.90693 0.86758 0.0
C570 C 0.10039 0.95876 0.863 0.0
C571 C 0.18899 0.91738 0.77796 0.0
C572 C 0.06806 0.94082 0.71383 0.0
C573 C 0.06827 0.97695 0.68757 0.0
C574 C 0.09321 0.92759 0.75701 0.0
C575 C 0.11903 0.95117 0.77434 0.0
C576 C 0.11936 0.9877 0.74791 0.0
C577 C 0.09389 1.00019 0.7048 0.0
C578 C 0.09198 0.88846 0.7842 0.0
C579 C 0.14667 0.01355 0.76508 0.0
H580 H 0.15239 0.92935 0.94047 0.0
H581 H 0.22683 0.89357 0.86911 0.0
H582 H 0.09754 0.98684 0.83974 0.0
H583 H 0.07783 0.94331 0.84762 0.0
H584 H 0.09774 0.95992 0.89937 0.0
H585 H 0.21728 0.90717 0.78511 0.0
H586 H 0.1712 0.89813 0.76194 0.0
H587 H 0.18559 0.94395 0.75102 0.0
H588 H 0.04811 0.92288 0.70067 0.0
H589 H 0.09447 0.028 0.68414 0.0
H590 H 0.08774 0.8873 0.82056 0.0
H591 H 0.11802 0.87401 0.78877 0.0
H592 H 0.07022 0.87373 0.76567 0.0
H593 H 0.14375 0.01671 0.80049 0.0
H594 H 0.14378 0.04087 0.73971 0.0
H595 H 0.17426 0.00227 0.76991 0.0
loop_
_geom_bond_atom_site_label_1
_geom_bond_atom_site_label_2
_geom_bond_distance
_geom_bond_site_symmetry_2
_ccdc_geom_bond_type
O0 Cd1 2.300 1_556 S
O0 C7 1.275 . S
Cd1 O0 2.300 1_554 S
Cd1 O9 2.381 . S
Cd1 O10 2.378 . S
O2 Cd3 2.385 1_556 S
O2 C7 1.255 . S
Cd3 O2 2.385 1_554 S
Cd3 O4 2.317 . S
O4 Cd3 2.317 . S
O4 C5 1.232 . S
C5 O4 1.232 . S
C5 O6 1.218 . S
O6 C5 1.218 . S
C7 O0 1.275 . S
C7 O2 1.255 . S
C8 O9 1.258 . S
C8 O10 1.256 . S
O9 Cd1 2.381 . S
O9 C8 1.258 . S
O10 Cd1 2.378 . S
O10 C8 1.256 . S
O11 Cd12 2.300 . S
O11 C18 1.275 . S
Cd12 O11 2.300 . S
Cd12 O20 2.381 . S
Cd12 O21 2.378 . S
O13 Cd14 2.385 . S
O13 C18 1.255 . S
Cd14 O13 2.385 . S
Cd14 O15 2.317 . S
O15 Cd14 2.317 . S
O15 C16 1.232 . S
C16 O15 1.232 . S
C16 O17 1.218 . S
O17 C16 1.218 . S
C18 O11 1.275 . S
C18 O13 1.255 . S
C19 O20 1.258 . S
C19 O21 1.256 . S
O20 Cd12 2.381 . S
O20 C19 1.258 . S
O21 Cd12 2.378 . S
O21 C19 1.256 . S
O22 Cd23 2.300 . S
O22 C29 1.275 . S
Cd23 O22 2.300 . S
Cd23 O31 2.381 . S
Cd23 O32 2.378 . S
O24 Cd25 2.385 . S
O24 C29 1.255 . S
Cd25 O24 2.385 . S
Cd25 O26 2.317 . S
O26 Cd25 2.317 . S
O26 C27 1.232 . S
C27 O26 1.232 . S
C27 O28 1.218 . S
O28 C27 1.218 . S
C29 O22 1.275 . S
C29 O24 1.255 . S
C30 O31 1.258 . S
C30 O32 1.256 . S
O31 Cd23 2.381 . S
O31 C30 1.258 . S
O32 Cd23 2.378 . S
O32 C30 1.256 . S
O33 Cd34 2.300 . S
O33 C40 1.275 . S
Cd34 O33 2.300 . S
Cd34 O42 2.381 . S
Cd34 O43 2.378 . S
O35 Cd36 2.385 . S
O35 C40 1.255 . S
Cd36 O35 2.385 . S
Cd36 O37 2.317 . S
O37 Cd36 2.317 . S
O37 C38 1.232 . S
C38 O37 1.232 . S
C38 O39 1.218 . S
O39 C38 1.218 . S
C40 O33 1.275 . S
C40 O35 1.255 . S
C41 O42 1.258 . S
C41 O43 1.256 . S
O42 Cd34 2.381 . S
O42 C41 1.258 . S
O43 Cd34 2.378 . S
O43 C41 1.256 . S
Eu44 N73 2.600 . S
Eu44 N79 2.562 . S
Eu44 O88 2.462 . S
Eu44 O89 2.373 . S
Eu44 O91 2.432 . S
Eu44 O92 2.291 1_565 S
Eu44 O96 2.335 1_465 S
Eu44 O99 2.372 1_455 S
Eu44 C108 2.787 . S
C45 N46 1.365 . S
C45 C48 1.405 . S
C45 C52 1.448 . S
N46 C45 1.365 . S
N46 C49 1.319 1_655 S
N46 Eu55 2.600 . S
C47 C49 1.397 . S
C47 C50 1.367 1_455 S
C47 H67 0.931 . S
C48 C45 1.405 . S
C48 C50 1.403 . S
C48 C54 1.439 . S
C49 N46 1.319 1_455 S
C49 C47 1.397 . S
C49 H60 0.930 . S
C50 C47 1.367 1_655 S
C50 C48 1.403 . S
C50 H71 0.929 . S
C51 C52 1.430 . S
C51 C53 1.387 . S
C51 C57 1.404 . S
C52 C45 1.448 . S
C52 C51 1.430 . S
C52 N56 1.351 . S
C53 C51 1.387 . S
C53 C54 1.374 . S
C53 H68 0.931 . S
C54 C48 1.439 . S
C54 C53 1.374 . S
C54 H69 0.931 . S
Eu55 N46 2.600 . S
Eu55 N56 2.562 . S
Eu55 O90 2.335 1_655 S
Eu55 O93 2.372 1_655 S
Eu55 O94 2.462 . S
Eu55 O95 2.373 . S
Eu55 O97 2.432 . S
Eu55 O98 2.291 1_545 S
Eu55 C119 2.787 . S
N56 C52 1.351 . S
N56 Eu55 2.562 . S
N56 C58 1.325 . S
C57 C51 1.404 . S
C57 C59 1.366 . S
C57 H65 0.930 . S
C58 N56 1.325 . S
C58 C59 1.416 . S
C58 H64 0.929 . S
C59 C57 1.366 . S
C59 C58 1.416 . S
C59 H61 0.930 . S
H60 C49 0.930 . S
H61 C59 0.930 . S
H62 C77 0.930 1_655 S
H63 C84 0.930 . S
H64 C58 0.929 . S
H65 C57 0.930 . S
H66 C80 0.929 . S
H67 C47 0.931 . S
H68 C53 0.931 . S
H69 C54 0.931 . S
H70 C75 0.931 1_655 S
H71 C50 0.929 . S
H72 C83 0.930 . S
N73 Eu44 2.600 . S
N73 C74 1.365 . S
N73 C77 1.319 . S
C74 N73 1.365 . S
C74 C76 1.405 . S
C74 C82 1.448 . S
C75 H70 0.931 1_455 S
C75 C77 1.397 . S
C75 C78 1.367 . S
C76 C74 1.405 . S
C76 C78 1.403 . S
C76 C109 1.439 . S
C77 H62 0.930 1_455 S
C77 N73 1.319 . S
C77 C75 1.397 . S
C78 C75 1.367 . S
C78 C76 1.403 . S
C78 H85 0.929 . S
N79 Eu44 2.562 . S
N79 C80 1.325 . S
N79 C82 1.351 . S
C80 H66 0.929 . S
C80 N79 1.325 . S
C80 C84 1.416 . S
C81 C82 1.430 . S
C81 C83 1.404 . S
C81 C110 1.387 . S
C82 C74 1.448 . S
C82 N79 1.351 . S
C82 C81 1.430 . S
C83 H72 0.930 . S
C83 C81 1.404 . S
C83 C84 1.366 . S
C84 H63 0.930 . S
C84 C80 1.416 . S
C84 C83 1.366 . S
H85 C78 0.929 . S
H86 C109 0.931 . S
H87 C110 0.931 . S
O88 Eu44 2.462 . S
O88 C108 1.252 . S
O89 Eu44 2.373 . S
O89 C100 1.249 . S
O90 Eu55 2.335 1_455 S
O90 C100 1.264 1_545 S
O91 Eu44 2.432 . S
O91 C108 1.268 . S
O92 Eu44 2.291 1_545 S
O92 C107 1.255 . S
O93 Eu55 2.372 1_455 S
O93 C107 1.257 . S
O94 Eu55 2.462 . S
O94 C119 1.252 . S
O95 Eu55 2.373 . S
O95 C111 1.249 . S
O96 Eu44 2.335 1_645 S
O96 C111 1.264 . S
O97 Eu55 2.432 . S
O97 C119 1.268 . S
O98 Eu55 2.291 1_565 S
O98 C118 1.255 . S
O99 Eu44 2.372 1_655 S
O99 C118 1.257 . S
C100 O89 1.249 . S
C100 O90 1.264 1_565 S
C101 C104 1.382 . S
C101 C106 1.390 . S
C101 C108 1.506 . S
C102 C103 1.398 . S
C102 C106 1.392 . S
C103 C102 1.398 . S
C103 C105 1.372 . S
C103 H120 0.931 . S
C104 C101 1.382 . S
C104 C105 1.390 . S
C104 H121 0.931 . S
C105 C103 1.372 . S
C105 C104 1.390 . S
C105 H122 0.929 . S
C106 C101 1.390 . S
C106 C102 1.392 . S
C106 H123 0.930 . S
C107 O92 1.255 . S
C107 O93 1.257 . S
C108 Eu44 2.787 . S
C108 O88 1.252 . S
C108 O91 1.268 . S
C108 C101 1.506 . S
C109 C76 1.439 . S
C109 H86 0.931 . S
C109 C110 1.374 . S
C110 C81 1.387 . S
C110 H87 0.931 . S
C110 C109 1.374 . S
C111 O95 1.249 . S
C111 O96 1.264 . S
C112 C115 1.382 . S
C112 C116 1.390 . S
C112 C119 1.506 . S
C113 C114 1.398 . S
C113 C116 1.392 . S
C114 C113 1.398 . S
C114 C117 1.372 . S
C114 H124 0.931 . S
C115 C112 1.382 . S
C115 C117 1.390 . S
C115 H125 0.931 . S
C116 C112 1.390 . S
C116 C113 1.392 . S
C116 H126 0.930 . S
C117 C114 1.372 . S
C117 C115 1.390 . S
C117 H127 0.929 . S
C118 O98 1.255 . S
C118 O99 1.257 . S
C119 Eu55 2.787 . S
C119 O94 1.252 . S
C119 O97 1.268 . S
C119 C112 1.506 . S
H120 C103 0.931 . S
H121 C104 0.931 . S
H122 C105 0.929 . S
H123 C106 0.930 . S
H124 C114 0.931 . S
H125 C115 0.931 . S
H126 C116 0.930 . S
H127 C117 0.929 . S
Eu128 N157 2.600 . S
Eu128 N163 2.562 1_556 S
Eu128 O172 2.462 . S
Eu128 O173 2.373 1_556 S
Eu128 O175 2.432 . S
Eu128 O176 2.291 1_556 S
Eu128 O180 2.335 . S
Eu128 O183 2.372 . S
Eu128 C192 2.787 . S
C129 N130 1.365 . S
C129 C132 1.405 . S
C129 C136 1.448 . S
N130 C129 1.365 . S
N130 C133 1.319 . S
N130 Eu139 2.600 . S
C131 C133 1.397 . S
C131 C134 1.367 . S
C131 H151 0.931 . S
C132 C129 1.405 . S
C132 C134 1.403 . S
C132 C138 1.439 . S
C133 N130 1.319 . S
C133 C131 1.397 . S
C133 H144 0.930 . S
C134 C131 1.367 . S
C134 C132 1.403 . S
C134 H155 0.929 . S
C135 C136 1.430 . S
C135 C137 1.387 . S
C135 C141 1.404 . S
C136 C129 1.448 . S
C136 C135 1.430 . S
C136 N140 1.351 . S
C137 C135 1.387 . S
C137 C138 1.374 . S
C137 H152 0.931 . S
C138 C132 1.439 . S
C138 C137 1.374 . S
C138 H153 0.931 . S
Eu139 N130 2.600 . S
Eu139 N140 2.562 . S
Eu139 O174 2.335 . S
Eu139 O177 2.372 . S
Eu139 O178 2.462 . S
Eu139 O179 2.373 1_554 S
Eu139 O181 2.432 . S
Eu139 O182 2.291 . S
Eu139 C203 2.787 . S
N140 C136 1.351 . S
N140 Eu139 2.562 . S
N140 C142 1.325 . S
C141 C135 1.404 . S
C141 C143 1.366 . S
C141 H149 0.930 . S
C142 N140 1.325 . S
C142 C143 1.416 . S
C142 H148 0.929 . S
C143 C141 1.366 . S
C143 C142 1.416 . S
C143 H145 0.930 . S
H144 C133 0.930 . S
H145 C143 0.930 . S
H146 C161 0.930 . S
H147 C168 0.930 . S
H148 C142 0.929 . S
H149 C141 0.930 . S
H150 C164 0.929 . S
H151 C131 0.931 . S
H152 C137 0.931 . S
H153 C138 0.931 . S
H154 C159 0.931 . S
H155 C134 0.929 . S
H156 C167 0.930 . S
N157 Eu128 2.600 . S
N157 C158 1.365 1_556 S
N157 C161 1.319 . S
C158 N157 1.365 1_554 S
C158 C160 1.405 . S
C158 C166 1.448 . S
C159 H154 0.931 . S
C159 C161 1.397 . S
C159 C162 1.365 1_556 S
C160 C158 1.405 . S
C160 C162 1.403 . S
C160 C193 1.439 . S
C161 H146 0.930 . S
C161 N157 1.319 . S
C161 C159 1.397 . S
C162 C159 1.365 1_554 S
C162 C160 1.403 . S
C162 H169 0.932 . S
N163 Eu128 2.562 1_554 S
N163 C164 1.325 . S
N163 C166 1.351 . S
C164 H150 0.929 . S
C164 N163 1.325 . S
C164 C168 1.416 . S
C165 C166 1.430 . S
C165 C167 1.404 . S
C165 C194 1.387 . S
C166 C158 1.448 . S
C166 N163 1.351 . S
C166 C165 1.430 . S
C167 H156 0.930 . S
C167 C165 1.404 . S
C167 C168 1.366 . S
C168 H147 0.930 . S
C168 C164 1.416 . S
C168 C167 1.366 . S
H169 C162 0.932 . S
H170 C193 0.931 . S
H171 C194 0.931 . S
O172 Eu128 2.462 . S
O172 C192 1.252 . S
O173 Eu128 2.373 1_554 S
O173 C184 1.249 . S
O174 Eu139 2.335 . S
O174 C184 1.264 . S
O175 Eu128 2.432 . S
O175 C192 1.268 . S
O176 Eu128 2.291 1_554 S
O176 C191 1.255 . S
O177 Eu139 2.372 . S
O177 C191 1.257 . S
O178 Eu139 2.462 . S
O178 C203 1.252 . S
O179 Eu139 2.373 1_556 S
O179 C195 1.249 . S
O180 Eu128 2.335 . S
O180 C195 1.264 . S
O181 Eu139 2.432 . S
O181 C203 1.268 . S
O182 Eu139 2.291 . S
O182 C202 1.255 . S
O183 Eu128 2.372 . S
O183 C202 1.257 1_556 S
C184 O173 1.249 . S
C184 O174 1.264 . S
C185 C188 1.382 . S
C185 C190 1.390 . S
C185 C192 1.506 . S
C186 C187 1.398 . S
C186 C190 1.392 . S
C187 C186 1.398 . S
C187 C189 1.372 . S
C187 H204 0.931 . S
C188 C185 1.382 . S
C188 C189 1.390 . S
C188 H205 0.931 . S
C189 C187 1.372 . S
C189 C188 1.390 . S
C189 H206 0.929 . S
C190 C185 1.390 . S
C190 C186 1.392 . S
C190 H207 0.930 . S
C191 O176 1.255 . S
C191 O177 1.257 . S
C192 Eu128 2.787 . S
C192 O172 1.252 . S
C192 O175 1.268 . S
C192 C185 1.506 . S
C193 C160 1.439 . S
C193 H170 0.931 . S
C193 C194 1.374 . S
C194 C165 1.387 . S
C194 H171 0.931 . S
C194 C193 1.374 . S
C195 O179 1.249 . S
C195 O180 1.264 . S
C196 C199 1.382 . S
C196 C200 1.390 . S
C196 C203 1.506 . S
C197 C198 1.398 . S
C197 C200 1.392 . S
C198 C197 1.398 . S
C198 C201 1.372 . S
C198 H208 0.931 . S
C199 C196 1.382 . S
C199 C201 1.390 . S
C199 H209 0.931 . S
C200 C196 1.390 . S
C200 C197 1.392 . S
C200 H210 0.930 . S
C201 C198 1.372 . S
C201 C199 1.390 . S
C201 H211 0.929 . S
C202 O182 1.255 . S
C202 O183 1.257 1_554 S
C203 Eu139 2.787 . S
C203 O178 1.252 . S
C203 O181 1.268 . S
C203 C196 1.506 . S
H204 C187 0.931 . S
H205 C188 0.931 . S
H206 C189 0.929 . S
H207 C190 0.930 . S
H208 C198 0.931 . S
H209 C199 0.931 . S
H210 C200 0.930 . S
H211 C201 0.929 . S
C212 C213 1.391 . S
C212 C214 1.394 . S
C212 H228 0.931 . S
C213 C212 1.391 . S
C213 C217 1.376 . S
C214 C212 1.394 . S
C214 C215 1.369 . S
C214 C218 1.531 . S
C215 C214 1.369 . S
C215 C216 1.410 . S
C215 C223 1.503 . S
C216 C215 1.410 . S
C216 C217 1.392 . S
C216 C219 1.511 . S
C217 C213 1.376 . S
C217 C216 1.392 . S
C217 H229 0.929 . S
C218 C214 1.531 . S
C218 H230 0.960 . S
C218 H231 0.962 . S
C218 H232 0.960 . S
C219 C216 1.511 . S
C219 H233 0.961 . S
C219 H234 0.961 . S
C219 H235 0.961 . S
C220 C221 1.370 . S
C220 C222 1.363 . S
C220 H236 0.931 . S
C221 C220 1.370 . S
C221 C225 1.408 . S
C222 C220 1.363 . S
C222 C223 1.370 . S
C222 C226 1.524 . S
C223 C215 1.503 . S
C223 C222 1.370 . S
C223 C224 1.403 . S
C224 C223 1.403 . S
C224 C225 1.404 . S
C224 C227 1.539 . S
C225 C221 1.408 . S
C225 C224 1.404 . S
C225 H237 0.930 . S
C226 C222 1.524 . S
C226 H238 0.956 . S
C226 H239 0.961 . S
C226 H240 0.961 . S
C227 C224 1.539 . S
C227 H241 0.958 . S
C227 H242 0.961 . S
C227 H243 0.960 . S
H228 C212 0.931 . S
H229 C217 0.929 . S
H230 C218 0.960 . S
H231 C218 0.962 . S
H232 C218 0.960 . S
H233 C219 0.961 . S
H234 C219 0.961 . S
H235 C219 0.961 . S
H236 C220 0.931 . S
H237 C225 0.930 . S
H238 C226 0.956 . S
H239 C226 0.961 . S
H240 C226 0.961 . S
H241 C227 0.958 . S
H242 C227 0.961 . S
H243 C227 0.960 . S
C244 C245 1.391 . S
C244 C246 1.394 . S
C244 H260 0.931 . S
C245 C244 1.391 . S
C245 C249 1.376 . S
C246 C244 1.394 . S
C246 C247 1.369 . S
C246 C250 1.531 . S
C247 C246 1.369 . S
C247 C248 1.410 . S
C247 C255 1.503 . S
C248 C247 1.410 . S
C248 C249 1.392 . S
C248 C251 1.511 1_554 S
C249 C245 1.376 . S
C249 C248 1.392 . S
C249 H261 0.929 . S
C250 C246 1.531 . S
C250 H262 0.960 . S
C250 H263 0.962 . S
C250 H264 0.960 . S
C251 C248 1.511 1_556 S
C251 H265 0.961 . S
C251 H266 0.961 . S
C251 H267 0.961 . S
C252 C253 1.370 . S
C252 C254 1.363 . S
C252 H268 0.931 . S
C253 C252 1.370 . S
C253 C257 1.408 1_554 S
C254 C252 1.363 . S
C254 C255 1.370 . S
C254 C258 1.524 . S
C255 C247 1.503 . S
C255 C254 1.370 . S
C255 C256 1.403 1_554 S
C256 C255 1.403 1_556 S
C256 C257 1.404 . S
C256 C259 1.539 . S
C257 C253 1.408 1_556 S
C257 C256 1.404 . S
C257 H269 0.930 . S
C258 C254 1.524 . S
C258 H270 0.956 . S
C258 H271 0.961 . S
C258 H272 0.961 . S
C259 C256 1.539 . S
C259 H273 0.958 . S
C259 H274 0.961 . S
C259 H275 0.960 . S
H260 C244 0.931 . S
H261 C249 0.929 . S
H262 C250 0.960 . S
H263 C250 0.962 . S
H264 C250 0.960 . S
H265 C251 0.961 . S
H266 C251 0.961 . S
H267 C251 0.961 . S
H268 C252 0.931 . S
H269 C257 0.930 . S
H270 C258 0.956 . S
H271 C258 0.961 . S
H272 C258 0.961 . S
H273 C259 0.958 . S
H274 C259 0.961 . S
H275 C259 0.960 . S
C276 C277 1.391 . S
C276 C278 1.394 . S
C276 H292 0.931 . S
C277 C276 1.391 . S
C277 C281 1.376 . S
C278 C276 1.394 . S
C278 C279 1.369 . S
C278 C282 1.531 . S
C279 C278 1.369 . S
C279 C280 1.410 . S
C279 C287 1.503 . S
C280 C279 1.410 . S
C280 C281 1.392 . S
C280 C283 1.511 . S
C281 C277 1.376 . S
C281 C280 1.392 . S
C281 H293 0.929 . S
C282 C278 1.531 . S
C282 H294 0.960 . S
C282 H295 0.962 . S
C282 H296 0.960 . S
C283 C280 1.511 . S
C283 H297 0.961 . S
C283 H298 0.961 . S
C283 H299 0.961 . S
C284 C285 1.370 . S
C284 C286 1.363 . S
C284 H300 0.931 . S
C285 C284 1.370 . S
C285 C289 1.408 . S
C286 C284 1.363 . S
C286 C287 1.370 . S
C286 C290 1.524 . S
C287 C279 1.503 . S
C287 C286 1.370 . S
C287 C288 1.403 . S
C288 C287 1.403 . S
C288 C289 1.404 . S
C288 C291 1.539 . S
C289 C285 1.408 . S
C289 C288 1.404 . S
C289 H301 0.930 . S
C290 C286 1.524 . S
C290 H302 0.956 . S
C290 H303 0.961 . S
C290 H304 0.961 . S
C291 C288 1.539 . S
C291 H305 0.958 . S
C291 H306 0.961 . S
C291 H307 0.960 . S
H292 C276 0.931 . S
H293 C281 0.929 . S
H294 C282 0.960 . S
H295 C282 0.962 . S
H296 C282 0.960 . S
H297 C283 0.961 . S
H298 C283 0.961 . S
H299 C283 0.961 . S
H300 C284 0.931 . S
H301 C289 0.930 . S
H302 C290 0.956 . S
H303 C290 0.961 . S
H304 C290 0.961 . S
H305 C291 0.958 . S
H306 C291 0.961 . S
H307 C291 0.960 . S
C308 C309 1.391 . S
C308 C310 1.394 . S
C308 H324 0.919 1_554 S
C309 C308 1.391 . S
C309 C313 1.376 . S
C310 C308 1.394 . S
C310 C311 1.369 . S
C310 C314 1.531 1_554 S
C311 C310 1.369 . S
C311 C312 1.410 . S
C311 C319 1.503 . S
C312 C311 1.410 . S
C312 C313 1.392 . S
C312 C315 1.511 . S
C313 C309 1.376 . S
C313 C312 1.392 . S
C313 H325 0.929 . S
C314 C310 1.531 1_556 S
C314 H326 0.960 . S
C314 H327 0.962 . S
C314 H328 0.960 . S
C315 C312 1.511 . S
C315 H329 0.961 . S
C315 H330 0.961 . S
C315 H331 0.961 . S
C316 C317 1.370 . S
C316 C318 1.363 . S
C316 H332 0.931 . S
C317 C316 1.370 . S
C317 C321 1.408 . S
C318 C316 1.363 . S
C318 C319 1.370 . S
C318 C322 1.524 . S
C319 C311 1.503 . S
C319 C318 1.370 . S
C319 C320 1.403 . S
C320 C319 1.403 . S
C320 C321 1.404 . S
C320 C323 1.539 1_554 S
C321 C317 1.408 . S
C321 C320 1.404 . S
C321 H333 0.930 1_554 S
C322 C318 1.524 . S
C322 H334 0.956 . S
C322 H335 0.961 . S
C322 H336 0.961 . S
C323 C320 1.539 1_556 S
C323 H337 0.958 . S
C323 H338 0.961 . S
C323 H339 0.960 . S
H324 C308 0.919 1_556 S
H325 C313 0.929 . S
H326 C314 0.960 . S
H327 C314 0.962 . S
H328 C314 0.960 . S
H329 C315 0.961 . S
H330 C315 0.961 . S
H331 C315 0.961 . S
H332 C316 0.931 . S
H333 C321 0.930 1_556 S
H334 C322 0.956 . S
H335 C322 0.961 . S
H336 C322 0.961 . S
H337 C323 0.958 . S
H338 C323 0.961 . S
H339 C323 0.960 . S
C340 C341 1.391 . S
C340 C342 1.394 . S
C340 H356 0.931 . S
C341 C340 1.391 . S
C341 C345 1.376 . S
C342 C340 1.394 . S
C342 C343 1.369 . S
C342 C346 1.531 . S
C343 C342 1.369 . S
C343 C344 1.410 . S
C343 C351 1.503 . S
C344 C343 1.410 . S
C344 C345 1.392 . S
C344 C347 1.511 . S
C345 C341 1.376 . S
C345 C344 1.392 . S
C345 H357 0.929 . S
C346 C342 1.531 . S
C346 H358 0.960 . S
C346 H359 0.962 . S
C346 H360 0.960 . S
C347 C344 1.511 . S
C347 H361 0.961 . S
C347 H362 0.961 . S
C347 H363 0.961 . S
C348 C349 1.370 . S
C348 C350 1.363 . S
C348 H364 0.931 . S
C349 C348 1.370 . S
C349 C353 1.408 . S
C350 C348 1.363 . S
C350 C351 1.370 . S
C350 C354 1.524 . S
C351 C343 1.503 . S
C351 C350 1.370 . S
C351 C352 1.403 . S
C352 C351 1.403 . S
C352 C353 1.404 . S
C352 C355 1.539 1_565 S
C353 C349 1.408 . S
C353 C352 1.404 . S
C353 H365 0.930 1_565 S
C354 C350 1.524 . S
C354 H366 0.956 . S
C354 H367 0.961 . S
C354 H368 0.961 . S
C355 C352 1.539 1_545 S
C355 H369 0.958 . S
C355 H370 0.961 . S
C355 H371 0.960 1_545 S
H356 C340 0.931 . S
H357 C345 0.929 . S
H358 C346 0.960 . S
H359 C346 0.962 . S
H360 C346 0.960 . S
H361 C347 0.961 . S
H362 C347 0.961 . S
H363 C347 0.961 . S
H364 C348 0.931 . S
H365 C353 0.930 1_545 S
H366 C354 0.956 . S
H367 C354 0.961 . S
H368 C354 0.961 . S
H369 C355 0.958 . S
H370 C355 0.961 . S
H371 C355 0.960 1_565 S
C372 C373 1.391 . S
C372 C374 1.394 . S
C372 H388 0.931 . S
C373 C372 1.391 . S
C373 C377 1.376 . S
C374 C372 1.394 . S
C374 C375 1.369 . S
C374 C378 1.531 . S
C375 C374 1.369 . S
C375 C376 1.410 . S
C375 C383 1.503 . S
C376 C375 1.410 . S
C376 C377 1.392 . S
C376 C379 1.511 . S
C377 C373 1.376 . S
C377 C376 1.392 . S
C377 H389 0.929 . S
C378 C374 1.531 . S
C378 H390 0.960 . S
C378 H391 0.962 . S
C378 H392 0.960 . S
C379 C376 1.511 . S
C379 H393 0.961 . S
C379 H394 0.961 . S
C379 H395 0.961 . S
C380 C381 1.370 . S
C380 C382 1.363 . S
C380 H396 0.931 . S
C381 C380 1.370 . S
C381 C385 1.408 . S
C382 C380 1.363 . S
C382 C383 1.370 . S
C382 C386 1.524 . S
C383 C375 1.503 . S
C383 C382 1.370 . S
C383 C384 1.403 . S
C384 C383 1.403 . S
C384 C385 1.404 . S
C384 C387 1.539 . S
C385 C381 1.408 . S
C385 C384 1.404 . S
C385 H397 0.930 . S
C386 C382 1.524 . S
C386 H398 0.956 . S
C386 H399 0.961 . S
C386 H400 0.961 . S
C387 C384 1.539 . S
C387 H401 0.958 . S
C387 H402 0.961 . S
C387 H403 0.960 . S
H388 C372 0.931 . S
H389 C377 0.929 . S
H390 C378 0.960 . S
H391 C378 0.962 . S
H392 C378 0.960 . S
H393 C379 0.961 . S
H394 C379 0.961 . S
H395 C379 0.961 . S
H396 C380 0.931 . S
H397 C385 0.930 . S
H398 C386 0.956 . S
H399 C386 0.961 . S
H400 C386 0.961 . S
H401 C387 0.958 . S
H402 C387 0.961 . S
H403 C387 0.960 . S
C404 C405 1.391 . S
C404 C406 1.394 . S
C404 H420 0.931 . S
C405 C404 1.391 . S
C405 C409 1.376 . S
C406 C404 1.394 . S
C406 C407 1.369 . S
C406 C410 1.531 . S
C407 C406 1.369 . S
C407 C408 1.410 . S
C407 C415 1.503 . S
C408 C407 1.410 . S
C408 C409 1.392 . S
C408 C411 1.511 . S
C409 C405 1.376 . S
C409 C408 1.392 . S
C409 H421 0.929 . S
C410 C406 1.531 . S
C410 H422 0.960 . S
C410 H423 0.962 . S
C410 H424 0.960 . S
C411 C408 1.511 . S
C411 H425 0.961 . S
C411 H426 0.961 . S
C411 H427 0.961 . S
C412 C413 1.370 . S
C412 C414 1.363 . S
C412 H428 0.931 . S
C413 C412 1.370 . S
C413 C417 1.408 . S
C414 C412 1.363 . S
C414 C415 1.370 . S
C414 C418 1.524 . S
C415 C407 1.503 . S
C415 C414 1.370 . S
C415 C416 1.403 . S
C416 C415 1.403 . S
C416 C417 1.404 . S
C416 C419 1.539 . S
C417 C413 1.408 . S
C417 C416 1.404 . S
C417 H429 0.930 . S
C418 C414 1.524 . S
C418 H430 0.956 . S
C418 H431 0.961 . S
C418 H432 0.961 . S
C419 C416 1.539 . S
C419 H433 0.958 . S
C419 H434 0.961 . S
C419 H435 0.960 . S
H420 C404 0.931 . S
H421 C409 0.929 . S
H422 C410 0.960 . S
H423 C410 0.962 . S
H424 C410 0.960 . S
H425 C411 0.961 . S
H426 C411 0.961 . S
H427 C411 0.961 . S
H428 C412 0.931 . S
H429 C417 0.930 . S
H430 C418 0.956 . S
H431 C418 0.961 . S
H432 C418 0.961 . S
H433 C419 0.958 . S
H434 C419 0.961 . S
H435 C419 0.960 . S
C436 C437 1.391 . S
C436 C438 1.394 . S
C436 H452 0.931 . S
C437 C436 1.391 . S
C437 C441 1.376 . S
C438 C436 1.394 . S
C438 C439 1.369 . S
C438 C442 1.531 . S
C439 C438 1.369 . S
C439 C440 1.410 . S
C439 C447 1.503 . S
C440 C439 1.410 . S
C440 C441 1.392 . S
C440 C443 1.511 . S
C441 C437 1.376 . S
C441 C440 1.392 . S
C441 H453 0.929 . S
C442 C438 1.531 . S
C442 H454 0.960 . S
C442 H455 0.962 . S
C442 H456 0.960 . S
C443 C440 1.511 . S
C443 H457 0.961 . S
C443 H458 0.961 . S
C443 H459 0.961 . S
C444 C445 1.370 . S
C444 C446 1.363 . S
C444 H460 0.931 . S
C445 C444 1.370 . S
C445 C449 1.408 . S
C446 C444 1.363 . S
C446 C447 1.370 . S
C446 C450 1.524 . S
C447 C439 1.503 . S
C447 C446 1.370 . S
C447 C448 1.403 . S
C448 C447 1.403 . S
C448 C449 1.404 . S
C448 C451 1.539 . S
C449 C445 1.408 . S
C449 C448 1.404 . S
C449 H461 0.930 . S
C450 C446 1.524 . S
C450 H462 0.956 . S
C450 H463 0.961 . S
C450 H464 0.961 . S
C451 C448 1.539 . S
C451 H465 0.958 . S
C451 H466 0.961 . S
C451 H467 0.960 . S
H452 C436 0.931 . S
H453 C441 0.929 . S
H454 C442 0.960 . S
H455 C442 0.962 . S
H456 C442 0.960 . S
H457 C443 0.961 . S
H458 C443 0.961 . S
H459 C443 0.961 . S
H460 C444 0.931 . S
H461 C449 0.930 . S
H462 C450 0.956 . S
H463 C450 0.961 . S
H464 C450 0.961 . S
H465 C451 0.958 . S
H466 C451 0.961 . S
H467 C451 0.960 . S
C468 C469 1.391 . S
C468 C470 1.394 . S
C468 H484 0.931 . S
C469 C468 1.391 . S
C469 C473 1.376 . S
C470 C468 1.394 . S
C470 C471 1.369 . S
C470 C474 1.531 . S
C471 C470 1.369 . S
C471 C472 1.410 . S
C471 C479 1.503 . S
C472 C471 1.410 . S
C472 C473 1.392 . S
C472 C475 1.511 . S
C473 C469 1.376 . S
C473 C472 1.392 . S
C473 H485 0.929 . S
C474 C470 1.531 . S
C474 H486 0.960 . S
C474 H487 0.962 . S
C474 H488 0.960 . S
C475 C472 1.511 . S
C475 H489 0.961 . S
C475 H490 0.961 . S
C475 H491 0.961 . S
C476 C477 1.370 . S
C476 C478 1.363 . S
C476 H492 0.931 . S
C477 C476 1.370 . S
C477 C481 1.408 . S
C478 C476 1.363 . S
C478 C479 1.370 . S
C478 C482 1.524 . S
C479 C471 1.503 . S
C479 C478 1.370 . S
C479 C480 1.403 . S
C480 C479 1.403 . S
C480 C481 1.404 . S
C480 C483 1.539 . S
C481 C477 1.408 . S
C481 C480 1.404 . S
C481 H493 0.930 . S
C482 C478 1.524 . S
C482 H494 0.956 . S
C482 H495 0.961 . S
C482 H496 0.961 . S
C483 C480 1.539 . S
C483 H497 0.958 . S
C483 H498 0.961 . S
C483 H499 0.960 . S
H484 C468 0.931 . S
H485 C473 0.929 . S
H486 C474 0.960 . S
H487 C474 0.962 . S
H488 C474 0.960 . S
H489 C475 0.961 . S
H490 C475 0.961 . S
H491 C475 0.961 . S
H492 C476 0.931 . S
H493 C481 0.930 . S
H494 C482 0.956 . S
H495 C482 0.961 . S
H496 C482 0.961 . S
H497 C483 0.958 . S
H498 C483 0.961 . S
H499 C483 0.960 . S
C500 C501 1.391 . S
C500 C502 1.394 . S
C500 H516 0.931 . S
C501 C500 1.391 . S
C501 C505 1.376 . S
C502 C500 1.394 . S
C502 C503 1.369 . S
C502 C506 1.531 . S
C503 C502 1.369 . S
C503 C504 1.410 . S
C503 C511 1.503 . S
C504 C503 1.410 . S
C504 C505 1.392 . S
C504 C507 1.511 . S
C505 C501 1.376 . S
C505 C504 1.392 . S
C505 H517 0.929 1_556 S
C506 C502 1.531 . S
C506 H518 0.960 . S
C506 H519 0.962 . S
C506 H520 0.960 . S
C507 C504 1.511 . S
C507 H521 0.961 1_556 S
C507 H522 0.961 . S
C507 H523 0.961 . S
C508 C509 1.370 . S
C508 C510 1.363 . S
C508 H524 0.931 . S
C509 C508 1.370 . S
C509 C513 1.408 . S
C510 C508 1.363 . S
C510 C511 1.370 . S
C510 C514 1.524 . S
C511 C503 1.503 . S
C511 C510 1.370 . S
C511 C512 1.403 . S
C512 C511 1.403 . S
C512 C513 1.404 . S
C512 C515 1.539 . S
C513 C509 1.408 . S
C513 C512 1.404 . S
C513 H525 0.930 . S
C514 C510 1.524 . S
C514 H526 0.956 . S
C514 H527 0.961 . S
C514 H528 0.961 1_545 S
C515 C512 1.539 . S
C515 H529 0.958 . S
C515 H530 0.961 . S
C515 H531 0.960 . S
H516 C500 0.931 . S
H517 C505 0.929 1_554 S
H518 C506 0.960 . S
H519 C506 0.962 . S
H520 C506 0.960 . S
H521 C507 0.961 1_554 S
H522 C507 0.961 . S
H523 C507 0.961 . S
H524 C508 0.931 . S
H525 C513 0.930 . S
H526 C514 0.956 . S
H527 C514 0.961 . S
H528 C514 0.961 1_565 S
H529 C515 0.958 . S
H530 C515 0.961 . S
H531 C515 0.960 . S
C532 C533 1.391 . S
C532 C534 1.394 . S
C532 H548 0.931 . S
C533 C532 1.391 . S
C533 C537 1.376 . S
C534 C532 1.394 . S
C534 C535 1.369 . S
C534 C538 1.531 . S
C535 C534 1.369 . S
C535 C536 1.410 . S
C535 C543 1.503 . S
C536 C535 1.410 . S
C536 C537 1.392 . S
C536 C539 1.511 . S
C537 C533 1.376 . S
C537 C536 1.392 . S
C537 H549 0.929 . S
C538 C534 1.531 . S
C538 H550 0.960 . S
C538 H551 0.962 . S
C538 H552 0.960 . S
C539 C536 1.511 . S
C539 H553 0.961 . S
C539 H554 0.961 . S
C539 H555 0.961 . S
C540 C541 1.370 . S
C540 C542 1.363 . S
C540 H556 0.931 . S
C541 C540 1.370 . S
C541 C545 1.408 . S
C542 C540 1.363 . S
C542 C543 1.370 . S
C542 C546 1.524 . S
C543 C535 1.503 . S
C543 C542 1.370 . S
C543 C544 1.403 . S
C544 C543 1.403 . S
C544 C545 1.404 . S
C544 C547 1.539 . S
C545 C541 1.408 . S
C545 C544 1.404 . S
C545 H557 0.930 . S
C546 C542 1.524 . S
C546 H558 0.956 . S
C546 H559 0.961 . S
C546 H560 0.961 . S
C547 C544 1.539 . S
C547 H561 0.958 . S
C547 H562 0.961 . S
C547 H563 0.960 . S
H548 C532 0.931 . S
H549 C537 0.929 . S
H550 C538 0.960 . S
H551 C538 0.962 . S
H552 C538 0.960 . S
H553 C539 0.961 . S
H554 C539 0.961 . S
H555 C539 0.961 . S
H556 C540 0.931 . S
H557 C545 0.930 . S
H558 C546 0.956 . S
H559 C546 0.961 . S
H560 C546 0.961 . S
H561 C547 0.958 . S
H562 C547 0.961 . S
H563 C547 0.960 . S
C564 C565 1.391 . S
C564 C566 1.394 . S
C564 H580 0.931 . S
C565 C564 1.391 . S
C565 C569 1.376 . S
C566 C564 1.394 . S
C566 C567 1.369 . S
C566 C570 1.531 . S
C567 C566 1.369 . S
C567 C568 1.410 . S
C567 C575 1.503 . S
C568 C567 1.410 . S
C568 C569 1.392 . S
C568 C571 1.511 . S
C569 C565 1.376 . S
C569 C568 1.392 . S
C569 H581 0.929 . S
C570 C566 1.531 . S
C570 H582 0.960 . S
C570 H583 0.962 . S
C570 H584 0.960 . S
C571 C568 1.511 . S
C571 H585 0.961 . S
C571 H586 0.961 . S
C571 H587 0.961 . S
C572 C573 1.370 . S
C572 C574 1.363 . S
C572 H588 0.931 . S
C573 C572 1.370 . S
C573 C577 1.408 . S
C574 C572 1.363 . S
C574 C575 1.370 . S
C574 C578 1.524 . S
C575 C567 1.503 . S
C575 C574 1.370 . S
C575 C576 1.403 . S
C576 C575 1.403 . S
C576 C577 1.404 . S
C576 C579 1.539 1_565 S
C577 C573 1.408 . S
C577 C576 1.404 . S
C577 H589 0.930 1_565 S
C578 C574 1.524 . S
C578 H590 0.956 . S
C578 H591 0.961 . S
C578 H592 0.961 . S
C579 C576 1.539 1_545 S
C579 H593 0.958 . S
C579 H594 0.961 . S
C579 H595 0.960 1_545 S
H580 C564 0.931 . S
H581 C569 0.929 . S
H582 C570 0.960 . S
H583 C570 0.962 . S
H584 C570 0.960 . S
H585 C571 0.961 . S
H586 C571 0.961 . S
H587 C571 0.961 . S
H588 C572 0.931 . S
H589 C577 0.930 1_545 S
H590 C578 0.956 . S
H591 C578 0.961 . S
H592 C578 0.961 . S
H593 C579 0.958 . S
H594 C579 0.961 . S
H595 C579 0.960 1_565 S
C221 C107 1.635 . S
C213 C41 1.641 . S
C245 C8 1.632 . S
C253 C202 1.633 . S
C277 C19 1.725 . S
C285 C118 1.749 . S
C309 C30 1.624 . S
C317 C191 1.622 . S
C349 C102 1.482 . S
C341 C5 1.443 . S
C381 C195 1.796 . S
C373 C18 1.727 . S
C405 C29 1.578 . S
C413 C111 1.708 . S
C437 C40 1.582 . S
C445 C186 1.499 . S
C477 C197 1.390 . S
C469 C16 1.349 . S
C509 C113 1.336 . S
C501 C27 1.236 1_556 S
C541 C184 1.541 . S
C533 C38 1.230 . S
C565 C7 1.469 . S
C573 C100 1.513 . S
